
###############################################################################
#
# This file contains modified crystal structure data generated from the
# MOF subset of the Cambridge Structural Database (CSD) v543 
# hosted by the Cambridge Crystallographic Data Centre (CCDC).
#
# This work is licensed under the Creative Commons
# Attribution-NonCommercial-ShareAlike 4.0 International License.
# To view a copy of this license, visit
# http://creativecommons.org/licenses/by-nc-sa/4.0/
# or send a letter to
# Creative Commons, PO Box 1866, Mountain View, CA 94042, USA.
#
# CIF created using the CSD Python API on 29 September 2022
# The structure has been converted into the P1 space group
# The structure has a 3D framework
# The original CSD entry XUNVAF is in the cubic crystal system
# The framework has been calculated to contain at least 10.0% void space
# The void calculation uses a probe of radius 1.32A, grid spacing 0.4
# H atom positions have been added when not included in the experimental data
# Generated hydrogen atom positions removed from atoms on special positions
#
###############################################################################

data_XUNVAF
_chemical_formula_moiety         '(C1536 H1872 B48 O206 Zn49)n'
_symmetry_cell_setting           triclinic
_symmetry_space_group_name_H-M   'P 1'
_symmetry_Int_Tables_number      1
_space_group_name_Hall           'P 1'
loop_
_symmetry_equiv_pos_site_id
_symmetry_equiv_pos_as_xyz
1 x,y,z
_cell_length_a                   37.0156(11)
_cell_length_b                   37.0156(11)
_cell_length_c                   37.0156(11)
_cell_angle_alpha                90
_cell_angle_beta                 90
_cell_angle_gamma                90
_cell_volume                     50717.1
loop_
_atom_site_label
_atom_site_type_symbol
_atom_site_fract_x
_atom_site_fract_y
_atom_site_fract_z
Zn1 Zn 0.5000 0.5000 0.5000
Zn2 Zn 0.44242(4) 0.44242(4) 0.44242(4)
O1 O 0.45304(13) 0.47463(14) 0.51731(12)
O2 O 0.42829(19) 0.4277(2) 0.48956(17)
O3 O 0.40894(17) 0.40894(17) 0.40894(17)
C1 C 0.44525(15) 0.38424(17) 0.59885(17)
C2 C 0.39052(15) 0.41914(19) 0.60424(18)
C3 C 0.45237(16) 0.40210(18) 0.56625(19)
C4 C 0.42963(16) 0.42819(17) 0.55421(18)
C5 C 0.47101(16) 0.35354(17) 0.61078(19)
H1 H 0.4661 0.3322 0.5968
H2 H 0.4673 0.3485 0.6359
H3 H 0.4956 0.3609 0.6069
C6 C 0.39819(16) 0.43650(18) 0.57231(16)
C7 C 0.4371(2) 0.4439(3) 0.5172(3)
C8 C 0.41436(16) 0.39326(18) 0.61829(17)
C9 C 0.35542(14) 0.43011(16) 0.62474(16)
H4 H 0.3475 0.4534 0.6166
H5 H 0.3602 0.4311 0.6502
H6 H 0.3369 0.4126 0.6201
C10 C 0.4366(2) 0.3750 0.6866(2)
C11 C 0.48692(17) 0.39122(19) 0.5444(2)
H7 H 0.5080 0.3960 0.5587
H8 H 0.4880 0.4050 0.5225
H9 H 0.4859 0.3659 0.5387
C12 C 0.4534(2) 0.4076(2) 0.6978(2)
C13 C 0.37255(16) 0.4652(2) 0.55689(18)
H10 H 0.3807 0.4723 0.5333
H11 H 0.3724 0.4859 0.5725
H12 H 0.3486 0.4554 0.5552
C14 C 0.4809(3) 0.4053(3) 0.7248(3)
C15 C 0.44171(19) 0.44261(19) 0.6828(2)
H13 H 0.4609 0.4528 0.6687
H14 H 0.4358 0.4587 0.7023
H15 H 0.4209 0.4391 0.6678
B1 B 0.4066(2) 0.3750 0.6566(2)
C16 C 0.4920(5) 0.3750 0.7420(5)
H16 H 0.5098 0.3750 0.7598
C17 C 0.4961(3) 0.4444(3) 0.7339(3)
H17 H 0.4773 0.4587 0.7446
H18 H 0.5043 0.4558 0.7121
H19 H 0.5159 0.4424 0.7506
O4 O 0.26731(12) 0.27537(14) 0.70304(13)
O5 O 0.23956(17) 0.3223(2) 0.67829(19)
C18 C 0.34885(17) 0.36576(17) 0.69525(15)
C19 C 0.35424(18) 0.33086(19) 0.64052(15)
C20 C 0.31625(19) 0.34790(18) 0.70237(16)
C21 C 0.30421(18) 0.32181(17) 0.67963(16)
C22 C 0.36078(19) 0.39646(17) 0.72101(16)
H20 H 0.3468 0.4178 0.7161
H21 H 0.3859 0.4015 0.7173
H22 H 0.3569 0.3891 0.7456
C23 C 0.32231(16) 0.31350(18) 0.64819(16)
C24 C 0.2672(3) 0.3061(3) 0.6871(2)
C25 C 0.36829(17) 0.35674(18) 0.66436(16)
C26 C 0.37474(16) 0.31989(16) 0.60542(14)
H23 H 0.3666 0.2966 0.5975
H24 H 0.4002 0.3189 0.6102
H25 H 0.3701 0.3374 0.5869
C27 C 0.2944(2) 0.35878(19) 0.73692(17)
H26 H 0.3087 0.3540 0.7580
H27 H 0.2725 0.3450 0.7380
H28 H 0.2887 0.3841 0.7359
C28 C 0.4478(2) 0.3424(2) 0.7034(2)
C29 C 0.30689(18) 0.2848(2) 0.62255(16)
H29 H 0.2833 0.2777 0.6307
H30 H 0.3225 0.2641 0.6224
H31 H 0.3052 0.2946 0.5986
C30 C 0.4748(3) 0.3447(3) 0.7309(3)
C31 C 0.4328(2) 0.30739(19) 0.69171(19)
H32 H 0.4187 0.2972 0.7109
H33 H 0.4523 0.2913 0.6858
H34 H 0.4178 0.3109 0.6709
C32 C 0.4839(3) 0.3056(3) 0.7461(3)
H35 H 0.4946 0.2913 0.7273
H36 H 0.4621 0.2942 0.7543
H37 H 0.5006 0.3076 0.7659
Zn3 Zn 0.55758(4) 0.55758(4) 0.55758(4)
O6 O 0.59106(17) 0.59106(17) 0.59106(17)
O7 O 0.48269(12) 0.54696(13) 0.52537(14)
O8 O 0.51044(17) 0.57171(19) 0.5723(2)
C33 C 0.40115(17) 0.55475(15) 0.61576(17)
C34 C 0.39576(18) 0.60948(15) 0.58086(19)
C35 C 0.43375(19) 0.54763(16) 0.59790(18)
C36 C 0.44579(18) 0.57037(16) 0.57181(17)
C37 C 0.38922(19) 0.52899(16) 0.64646(17)
H38 H 0.4032 0.5339 0.6678
H39 H 0.3641 0.5327 0.6515
H40 H 0.3931 0.5044 0.6391
C38 C 0.42769(16) 0.60181(16) 0.56350(18)
C39 C 0.4828(3) 0.5629(2) 0.5561(3)
C40 C 0.38171(17) 0.58564(16) 0.60674(18)
C41 C 0.37526(16) 0.64458(14) 0.56989(16)
H41 H 0.3834 0.6525 0.5466
H42 H 0.3498 0.6398 0.5689
H43 H 0.3799 0.6631 0.5874
C42 C 0.3134(2) 0.5634(2) 0.6250
C43 C 0.4556(2) 0.51308(17) 0.60878(19)
H44 H 0.4413 0.4920 0.6040
H45 H 0.4775 0.5120 0.5950
H46 H 0.4613 0.5141 0.6341
C44 C 0.3022(2) 0.5466(2) 0.5924(2)
C45 C 0.44311(18) 0.62745(16) 0.5348(2)
H47 H 0.4667 0.6193 0.5277
H48 H 0.4275 0.6276 0.5141
H49 H 0.4448 0.6514 0.5446
C46 C 0.2752(3) 0.5191(3) 0.5947(3)
C47 C 0.3172(2) 0.55829(19) 0.55739(19)
H50 H 0.3313 0.5391 0.5472
H51 H 0.2977 0.5642 0.5413
H52 H 0.3322 0.5791 0.5609
B2 B 0.3434(2) 0.5934(2) 0.6250
C48 C 0.2580(5) 0.5080(5) 0.6250
H53 H 0.2402 0.4902 0.6250
C49 C 0.2661(3) 0.5039(3) 0.5556(3)
H54 H 0.2554 0.5227 0.5413
H55 H 0.2879 0.4957 0.5442
H56 H 0.2494 0.4841 0.5576
O9 O 0.29696(13) 0.73269(12) 0.72463(14)
O10 O 0.32171(19) 0.76044(17) 0.6777(2)
C50 C 0.30475(15) 0.65115(17) 0.63424(17)
C51 C 0.35948(15) 0.64576(18) 0.66914(19)
C52 C 0.29763(16) 0.68375(19) 0.65210(18)
C53 C 0.32037(16) 0.69579(18) 0.67819(17)
C54 C 0.27899(16) 0.63922(19) 0.60354(17)
H57 H 0.2839 0.6532 0.5822
H58 H 0.2827 0.6141 0.5985
H59 H 0.2544 0.6431 0.6109
C55 C 0.35181(16) 0.67769(16) 0.68650(18)
C56 C 0.3129(2) 0.7328(3) 0.6939(3)
C57 C 0.33564(16) 0.63171(17) 0.64326(18)
C58 C 0.39458(14) 0.62526(16) 0.68011(16)
H60 H 0.4025 0.6334 0.7034
H61 H 0.3898 0.5998 0.6811
H62 H 0.4131 0.6299 0.6626
C59 C 0.26308(17) 0.7056(2) 0.64122(19)
H63 H 0.2420 0.6913 0.6460
H64 H 0.2620 0.7275 0.6550
H65 H 0.2641 0.7113 0.6159
C60 C 0.2966(2) 0.5522(2) 0.6576(2)
C61 C 0.37745(16) 0.69311(18) 0.7152(2)
H66 H 0.3693 0.7167 0.7223
H67 H 0.3776 0.6775 0.7359
H68 H 0.4014 0.6948 0.7054
C62 C 0.2691(3) 0.5252(3) 0.6553(3)
C63 C 0.30829(19) 0.5672(2) 0.69261(19)
H69 H 0.2891 0.5813 0.7028
H70 H 0.3142 0.5477 0.7087
H71 H 0.3291 0.5822 0.6891
C64 C 0.2539(3) 0.5161(3) 0.6944(3)
H72 H 0.2727 0.5054 0.7087
H73 H 0.2457 0.5379 0.7058
H74 H 0.2341 0.4994 0.6924
O11 O 0.52537(14) 0.48269(12) 0.54696(13)
O12 O 0.5723(2) 0.51044(17) 0.57171(19)
C65 C 0.61576(17) 0.40115(17) 0.55475(15)
C66 C 0.58086(19) 0.39576(18) 0.60948(15)
C67 C 0.59790(18) 0.43375(19) 0.54763(16)
C68 C 0.57181(17) 0.44579(18) 0.57037(16)
C69 C 0.64646(17) 0.38922(19) 0.52899(16)
H75 H 0.6678 0.4032 0.5339
H76 H 0.6515 0.3641 0.5327
H77 H 0.6391 0.3931 0.5044
C70 C 0.56350(18) 0.42769(16) 0.60181(16)
C71 C 0.5561(3) 0.4828(3) 0.5629(2)
C72 C 0.60674(18) 0.38171(17) 0.58564(16)
C73 C 0.56989(16) 0.37526(16) 0.64458(14)
H78 H 0.5466 0.3834 0.6525
H79 H 0.5689 0.3498 0.6398
H80 H 0.5874 0.3799 0.6631
C74 C 0.6250 0.3134(2) 0.5634(2)
C75 C 0.60878(19) 0.4556(2) 0.51308(17)
H81 H 0.6040 0.4413 0.4920
H82 H 0.5950 0.4775 0.5120
H83 H 0.6341 0.4613 0.5141
C76 C 0.5924(2) 0.3022(2) 0.5466(2)
C77 C 0.5348(2) 0.44311(18) 0.62745(16)
H84 H 0.5277 0.4667 0.6193
H85 H 0.5141 0.4275 0.6276
H86 H 0.5446 0.4448 0.6514
C78 C 0.5947(3) 0.2752(3) 0.5191(3)
C79 C 0.55739(19) 0.3172(2) 0.55829(19)
H87 H 0.5472 0.3313 0.5391
H88 H 0.5413 0.2977 0.5642
H89 H 0.5609 0.3322 0.5791
B3 B 0.6250 0.3434(2) 0.5934(2)
C80 C 0.6250 0.2580(5) 0.5080(5)
H90 H 0.6250 0.2402 0.4902
C81 C 0.5556(3) 0.2661(3) 0.5039(3)
H91 H 0.5413 0.2554 0.5227
H92 H 0.5442 0.2879 0.4957
H93 H 0.5576 0.2494 0.4841
O13 O 0.72463(14) 0.29696(13) 0.73269(12)
O14 O 0.6777(2) 0.32171(19) 0.76044(17)
C82 C 0.63424(17) 0.30475(15) 0.65115(17)
C83 C 0.66914(19) 0.35948(15) 0.64576(18)
C84 C 0.65210(18) 0.29763(16) 0.68375(19)
C85 C 0.67819(17) 0.32037(16) 0.69579(18)
C86 C 0.60354(17) 0.27899(16) 0.63922(19)
H94 H 0.5822 0.2839 0.6532
H95 H 0.5985 0.2827 0.6141
H96 H 0.6109 0.2544 0.6431
C87 C 0.68650(18) 0.35181(16) 0.67769(16)
C88 C 0.6939(3) 0.3129(2) 0.7328(3)
C89 C 0.64326(18) 0.33564(16) 0.63171(17)
C90 C 0.68011(16) 0.39458(14) 0.62526(16)
H97 H 0.7034 0.4025 0.6334
H98 H 0.6811 0.3898 0.5998
H99 H 0.6626 0.4131 0.6299
C91 C 0.64122(19) 0.26308(17) 0.7056(2)
H100 H 0.6460 0.2420 0.6913
H101 H 0.6550 0.2620 0.7275
H102 H 0.6159 0.2641 0.7113
C92 C 0.6576(2) 0.2966(2) 0.5522(2)
C93 C 0.7152(2) 0.37745(16) 0.69311(18)
H103 H 0.7223 0.3693 0.7167
H104 H 0.7359 0.3776 0.6775
H105 H 0.7054 0.4014 0.6948
C94 C 0.6553(3) 0.2691(3) 0.5252(3)
C95 C 0.69261(19) 0.30829(19) 0.5672(2)
H106 H 0.7028 0.2891 0.5813
H107 H 0.7087 0.3142 0.5477
H108 H 0.6891 0.3291 0.5822
C96 C 0.6944(3) 0.2539(3) 0.5161(3)
H109 H 0.7087 0.2727 0.5054
H110 H 0.7058 0.2457 0.5379
H111 H 0.6924 0.2341 0.4994
Zn4 Zn 0.7500 0.2500 0.7500
Zn5 Zn 0.2500 0.7500 0.7500
Zn6 Zn 0.2500 0.2500 0.7500
Zn7 Zn 0.19242(4) 0.30758(4) 0.69242(4)
Zn8 Zn 0.30758(4) 0.80758(4) 0.69242(4)
Zn9 Zn 0.69242(4) 0.30758(4) 0.80758(4)
O15 O 0.51731(12) 0.45304(13) 0.47463(14)
O16 O 0.47463(14) 0.51731(12) 0.45304(13)
O17 O 0.54696(13) 0.52537(14) 0.48269(12)
O18 O 0.48956(17) 0.42829(19) 0.4277(2)
O19 O 0.4277(2) 0.48956(17) 0.42829(19)
O20 O 0.57171(19) 0.5723(2) 0.51044(17)
Zn4_2 Zn 0.0000 0.5000 -0.0000
Zn6_2 Zn 0.0000 0.0000 -0.0000
H90_2 H 0.0098 0.3750 0.7402
H93_2 H 0.0006 0.3076 0.7341
H100_2 H 0.0080 0.3960 0.9413
H110_2 H 0.0043 0.4558 0.7879
H111_2 H 0.0159 0.4424 0.7494
Zn4_3 Zn 0.0000 0.5000 1.0000
Zn6_3 Zn 0.0000 0.0000 1.0000
Zn6_4 Zn -0.0000 1.0000 -0.0000
Zn6_5 Zn 0.0000 1.0000 1.0000
H16_2 H 0.8750 0.2598 0.0098
H19_2 H 0.8076 0.2659 0.0006
H26_2 H 0.8960 0.0587 0.0080
H36_2 H 0.9558 0.2121 0.0043
H37_2 H 0.9424 0.2506 0.0159
O14_2 O 0.92829(19) 0.4277(2) 0.01044(17)
Zn4_4 Zn 1.0000 0.5000 -0.0000
Zn5_2 Zn 0.5000 -0.0000 -0.0000
Zn6_6 Zn 1.0000 0.0000 -0.0000
Zn9_2 Zn 0.94242(4) 0.44242(4) 0.05758(4)
Zn2_2 Zn 0.80758(4) 0.19242(4) 0.69242(4)
O1_2 O 0.77537(14) 0.20304(13) 0.76731(12)
O2_2 O 0.8223(2) 0.17829(19) 0.73956(17)
O3_2 O 0.84106(17) 0.15894(17) 0.65894(17)
C1_2 C 0.86576(17) 0.19525(15) 0.84885(17)
C2_2 C 0.83086(19) 0.14052(15) 0.85424(18)
C3_2 C 0.84790(18) 0.20237(16) 0.81625(19)
C4_2 C 0.82181(17) 0.17963(16) 0.80421(18)
C5_2 C 0.89646(17) 0.22101(16) 0.86078(19)
H1_2 H 0.9178 0.2161 0.8468
H2_2 H 0.9015 0.2173 0.8859
H3_2 H 0.8891 0.2456 0.8569
C6_2 C 0.81350(18) 0.14819(16) 0.82231(16)
C7_2 C 0.8061(3) 0.1871(2) 0.7672(3)
C8_2 C 0.85674(18) 0.16436(16) 0.86829(17)
C9_2 C 0.81989(16) 0.10542(14) 0.87474(16)
H4_2 H 0.7966 0.0975 0.8666
H5_2 H 0.8189 0.1102 0.9002
H6_2 H 0.8374 0.0869 0.8701
C10_2 C 0.8750 0.1866(2) 0.9366(2)
C11_2 C 0.85878(19) 0.23692(17) 0.7944(2)
H7_2 H 0.8540 0.2580 0.8087
H8_2 H 0.8450 0.2380 0.7725
H9_2 H 0.8841 0.2359 0.7887
C12_2 C 0.8424(2) 0.2034(2) 0.9478(2)
C13_2 C 0.7848(2) 0.12255(16) 0.80689(18)
H10_2 H 0.7777 0.1307 0.7833
H11_2 H 0.7641 0.1224 0.8225
H12_2 H 0.7946 0.0986 0.8052
C14_2 C 0.8447(3) 0.2309(3) 0.9748(3)
C15_2 C 0.80739(19) 0.19171(19) 0.9328(2)
H13_2 H 0.7972 0.2109 0.9187
H14_2 H 0.7913 0.1858 0.9523
H15_2 H 0.8109 0.1709 0.9178
B1_2 B 0.8750 0.1566(2) 0.9066(2)
C16_2 C 0.8750 0.2420(5) 0.9920(5)
C17_2 C 0.8056(3) 0.2461(3) 0.9839(3)
H17_2 H 0.7913 0.2273 0.9946
H18_2 H 0.7942 0.2543 0.9621
O4_2 O 0.97463(14) 0.01731(12) 0.95304(13)
C18_2 C 0.88424(17) 0.09885(17) 0.94525(15)
C19_2 C 0.91914(19) 0.10424(18) 0.89052(15)
C20_2 C 0.90210(18) 0.06625(19) 0.95237(16)
C21_2 C 0.92819(17) 0.05421(18) 0.92963(16)
C22_2 C 0.85354(17) 0.11078(19) 0.97101(16)
H20_2 H 0.8322 0.0968 0.9661
H21_2 H 0.8485 0.1359 0.9673
H22_2 H 0.8609 0.1069 0.9956
C23_2 C 0.93650(18) 0.07231(16) 0.89819(16)
C24_2 C 0.9439(3) 0.0172(3) 0.9371(2)
C25_2 C 0.89326(18) 0.11829(17) 0.91436(16)
C26_2 C 0.93011(16) 0.12474(16) 0.85542(14)
H23_2 H 0.9534 0.1166 0.8475
H24_2 H 0.9311 0.1502 0.8602
H25_2 H 0.9126 0.1201 0.8369
C27_2 C 0.89122(19) 0.0444(2) 0.98692(17)
H27_2 H 0.9050 0.0225 0.9880
H28_2 H 0.8659 0.0387 0.9859
C28_2 C 0.9076(2) 0.1978(2) 0.9534(2)
C29_2 C 0.9652(2) 0.05689(18) 0.87255(16)
H29_2 H 0.9723 0.0333 0.8807
H30_2 H 0.9859 0.0725 0.8724
H31_2 H 0.9554 0.0552 0.8486
C30_2 C 0.9053(3) 0.2248(3) 0.9809(3)
C31_2 C 0.94261(19) 0.1828(2) 0.94171(19)
H32_2 H 0.9528 0.1687 0.9609
H33_2 H 0.9587 0.2023 0.9358
H34_2 H 0.9391 0.1678 0.9209
C32_2 C 0.9444(3) 0.2339(3) 0.9961(3)
H35_2 H 0.9587 0.2446 0.9773
O6_2 O 0.65894(17) 0.34106(17) 0.84106(17)
O7_2 O 0.70304(13) 0.23269(12) 0.77537(14)
O8_2 O 0.67829(19) 0.26044(17) 0.8223(2)
C33_2 C 0.69525(15) 0.15115(17) 0.86576(17)
C34_2 C 0.64052(15) 0.14576(18) 0.83086(19)
C35_2 C 0.70237(16) 0.18375(19) 0.84790(18)
C36_2 C 0.67963(16) 0.19579(18) 0.82181(17)
C37_2 C 0.72101(16) 0.13922(19) 0.89646(17)
H38_2 H 0.7161 0.1532 0.9178
H39_2 H 0.7173 0.1141 0.9015
H40_2 H 0.7456 0.1431 0.8891
C38_2 C 0.64819(16) 0.17769(16) 0.81350(18)
C39_2 C 0.6871(2) 0.2328(3) 0.8061(3)
C40_2 C 0.66436(16) 0.13171(17) 0.85674(18)
C41_2 C 0.60542(14) 0.12526(16) 0.81989(16)
H41_2 H 0.5975 0.1334 0.7966
H42_2 H 0.6102 0.0998 0.8189
H43_2 H 0.5869 0.1299 0.8374
C42_2 C 0.6866(2) 0.0634(2) 0.8750
C43_2 C 0.73692(17) 0.2056(2) 0.85878(19)
H44_2 H 0.7580 0.1913 0.8540
H45_2 H 0.7380 0.2275 0.8450
H46_2 H 0.7359 0.2113 0.8841
C44_2 C 0.7034(2) 0.0522(2) 0.8424(2)
C45_2 C 0.62255(16) 0.19311(18) 0.7848(2)
H47_2 H 0.6307 0.2167 0.7777
H48_2 H 0.6224 0.1775 0.7641
H49_2 H 0.5986 0.1948 0.7946
C46_2 C 0.7309(3) 0.0252(3) 0.8447(3)
C47_2 C 0.69171(19) 0.0672(2) 0.80739(19)
H50_2 H 0.7109 0.0813 0.7972
H51_2 H 0.6858 0.0477 0.7913
H52_2 H 0.6709 0.0822 0.8109
B2_2 B 0.6566(2) 0.0934(2) 0.8750
C48_2 C 0.7420(5) 0.0080(5) 0.8750
C49_2 C 0.7461(3) 0.0161(3) 0.8056(3)
H54_2 H 0.7273 0.0054 0.7913
H55_2 H 0.7543 0.0379 0.7942
O9_2 O 0.51731(12) 0.04696(13) 0.97463(14)
O10_2 O 0.48956(17) 0.07171(19) 0.9277(2)
C50_2 C 0.59885(17) 0.05475(15) 0.88424(17)
C51_2 C 0.60424(18) 0.10948(15) 0.91914(19)
C52_2 C 0.56625(19) 0.04763(16) 0.90210(18)
C53_2 C 0.55421(18) 0.07037(16) 0.92819(17)
C54_2 C 0.61078(19) 0.02899(16) 0.85354(17)
H57_2 H 0.5968 0.0339 0.8322
H58_2 H 0.6359 0.0327 0.8485
H59_2 H 0.6069 0.0044 0.8609
C55_2 C 0.57231(16) 0.10181(16) 0.93650(18)
C56_2 C 0.5172(3) 0.0629(2) 0.9439(3)
C57_2 C 0.61829(17) 0.08564(16) 0.89326(18)
C58_2 C 0.62474(16) 0.14458(14) 0.93011(16)
H60_2 H 0.6166 0.1525 0.9534
H61_2 H 0.6502 0.1398 0.9311
H62_2 H 0.6201 0.1631 0.9126
C59_2 C 0.5444(2) 0.01308(17) 0.89122(19)
H64_2 H 0.5225 0.0120 0.9050
H65_2 H 0.5387 0.0141 0.8659
C60_2 C 0.6978(2) 0.0466(2) 0.9076(2)
C61_2 C 0.55689(18) 0.12745(16) 0.9652(2)
H66_2 H 0.5333 0.1193 0.9723
H67_2 H 0.5725 0.1276 0.9859
H68_2 H 0.5552 0.1514 0.9554
C62_2 C 0.7248(3) 0.0191(3) 0.9053(3)
C63_2 C 0.6828(2) 0.05829(19) 0.94261(19)
H69_2 H 0.6687 0.0391 0.9528
H70_2 H 0.7023 0.0642 0.9587
H71_2 H 0.6678 0.0791 0.9391
C64_2 C 0.7339(3) 0.0039(3) 0.9444(3)
H72_2 H 0.7446 0.0227 0.9587
O11_2 O 0.76731(12) 0.27537(14) 0.79696(13)
O12_2 O 0.73956(17) 0.3223(2) 0.82171(19)
C65_2 C 0.84885(17) 0.36576(17) 0.80475(15)
C66_2 C 0.85424(18) 0.33086(19) 0.85948(15)
C67_2 C 0.81625(19) 0.34790(18) 0.79763(16)
C68_2 C 0.80421(18) 0.32181(17) 0.82037(16)
C69_2 C 0.86078(19) 0.39646(17) 0.77899(16)
H75_2 H 0.8468 0.4178 0.7839
H76_2 H 0.8859 0.4015 0.7827
H77_2 H 0.8569 0.3891 0.7544
C70_2 C 0.82231(16) 0.31350(18) 0.85181(16)
C71_2 C 0.7672(3) 0.3061(3) 0.8129(2)
C72_2 C 0.86829(17) 0.35674(18) 0.83564(16)
C73_2 C 0.87474(16) 0.31989(16) 0.89458(14)
H78_2 H 0.8666 0.2966 0.9025
H79_2 H 0.9002 0.3189 0.8898
H80_2 H 0.8701 0.3374 0.9131
C74_2 C 0.9366(2) 0.3750 0.8134(2)
C75_2 C 0.7944(2) 0.35878(19) 0.76308(17)
H81_2 H 0.8087 0.3540 0.7420
H82_2 H 0.7725 0.3450 0.7620
H83_2 H 0.7887 0.3841 0.7641
C76_2 C 0.9478(2) 0.3424(2) 0.7966(2)
C77_2 C 0.80689(18) 0.2848(2) 0.87745(16)
H84_2 H 0.7833 0.2777 0.8693
H85_2 H 0.8225 0.2641 0.8776
H86_2 H 0.8052 0.2946 0.9014
C78_2 C 0.9748(3) 0.3447(3) 0.7691(3)
C79_2 C 0.9328(2) 0.30739(19) 0.80829(19)
H87_2 H 0.9187 0.2972 0.7891
H88_2 H 0.9523 0.2913 0.8142
H89_2 H 0.9178 0.3109 0.8291
B3_2 B 0.9066(2) 0.3750 0.8434(2)
C80_2 C 0.9920(5) 0.3750 0.7580(5)
C81_2 C 0.9839(3) 0.3056(3) 0.7539(3)
H91_2 H 0.9946 0.2913 0.7727
H92_2 H 0.9621 0.2942 0.7457
O13_2 O 0.95304(13) 0.47463(14) 0.98269(12)
C82_2 C 0.94525(15) 0.38424(17) 0.90115(17)
C83_2 C 0.89052(15) 0.41914(19) 0.89576(18)
C84_2 C 0.95237(16) 0.40210(18) 0.93375(19)
C85_2 C 0.92963(16) 0.42819(17) 0.94579(18)
C86_2 C 0.97101(16) 0.35354(17) 0.88922(19)
H94_2 H 0.9661 0.3322 0.9032
H95_2 H 0.9673 0.3485 0.8641
H96_2 H 0.9956 0.3609 0.8931
C87_2 C 0.89819(16) 0.43650(18) 0.92769(16)
C88_2 C 0.9371(2) 0.4439(3) 0.9828(3)
C89_2 C 0.91436(16) 0.39326(18) 0.88171(17)
C90_2 C 0.85542(14) 0.43011(16) 0.87526(16)
H97_2 H 0.8475 0.4534 0.8834
H98_2 H 0.8602 0.4311 0.8498
H99_2 H 0.8369 0.4126 0.8799
C91_2 C 0.98692(17) 0.39122(19) 0.9556(2)
H101_2 H 0.9880 0.4050 0.9775
H102_2 H 0.9859 0.3659 0.9613
C92_2 C 0.9534(2) 0.4076(2) 0.8022(2)
C93_2 C 0.87255(16) 0.4652(2) 0.94311(18)
H103_2 H 0.8807 0.4723 0.9667
H104_2 H 0.8724 0.4859 0.9275
H105_2 H 0.8486 0.4554 0.9448
C94_2 C 0.9809(3) 0.4053(3) 0.7752(3)
C95_2 C 0.94171(19) 0.44261(19) 0.8172(2)
H106_2 H 0.9609 0.4528 0.8313
H107_2 H 0.9358 0.4587 0.7977
H108_2 H 0.9209 0.4391 0.8322
C96_2 C 0.9961(3) 0.4444(3) 0.7661(3)
H109_2 H 0.9773 0.4587 0.7554
Zn4_5 Zn 1.0000 0.5000 1.0000
Zn5_3 Zn 0.5000 -0.0000 1.0000
Zn6_7 Zn 1.0000 0.0000 1.0000
Zn8_2 Zn 0.44242(4) 0.05758(4) 0.94242(4)
O15_2 O 0.79696(13) 0.26731(12) 0.72463(14)
O16_2 O 0.73269(12) 0.22463(14) 0.70304(13)
O18_2 O 0.82171(19) 0.23956(17) 0.6777(2)
O19_2 O 0.76044(17) 0.1777(2) 0.67829(19)
Zn5_4 Zn 0.5000 1.0000 -0.0000
Zn6_8 Zn 1.0000 1.0000 -0.0000
O5_2 O 0.9277(2) 0.98956(17) 0.92829(19)
H53_2 H 0.7598 0.9902 0.8750
H56_2 H 0.7659 0.9994 0.8076
H63_2 H 0.5587 0.9920 0.8960
H73_2 H 0.7121 0.9957 0.9558
H74_2 H 0.7506 0.9841 0.9424
Zn5_5 Zn 0.5000 1.0000 1.0000
Zn6_9 Zn 1.0000 1.0000 1.0000
Zn7_2 Zn 0.94242(4) 0.94242(4) 0.94242(4)
Zn1_2 Zn 0.5000 0.5000 0.0000
Zn2_3 Zn 0.44242(4) 0.55758(4) 0.05758(4)
O2_3 O 0.42829(19) 0.5723(2) 0.01044(17)
O3_3 O 0.40894(17) 0.59106(17) 0.09106(17)
H81_3 H 0.6040 0.5587 0.0080
H90_3 H 0.6250 0.7598 0.0098
H92_3 H 0.5442 0.7121 0.0043
H93_3 H 0.5576 0.7506 0.0159
H111_3 H 0.6924 0.7659 0.0006
O15_3 O 0.51731(12) 0.54696(13) 0.02537(14)
O16_3 O 0.47463(14) 0.48269(12) 0.04696(13)
O17_2 O 0.54696(13) 0.47463(14) 0.01731(12)
O18_3 O 0.48956(17) 0.57171(19) 0.0723(2)
O19_3 O 0.4277(2) 0.51044(17) 0.07171(19)
Zn1_3 Zn 0.5000 0.5000 1.0000
O1_3 O 0.45304(13) 0.52537(14) 0.98269(12)
C1_3 C 0.44525(15) 0.61576(17) 0.90115(17)
C2_3 C 0.39052(15) 0.58086(19) 0.89576(18)
C3_3 C 0.45237(16) 0.59790(18) 0.93375(19)
C4_3 C 0.42963(16) 0.57181(17) 0.94579(18)
C5_3 C 0.47101(16) 0.64646(17) 0.88922(19)
H1_3 H 0.4661 0.6678 0.9032
H2_3 H 0.4673 0.6515 0.8641
H3_3 H 0.4956 0.6391 0.8931
C6_3 C 0.39819(16) 0.56350(18) 0.92769(16)
C7_3 C 0.4371(2) 0.5561(3) 0.9828(3)
C8_3 C 0.41436(16) 0.60674(18) 0.88171(17)
C9_3 C 0.35542(14) 0.56989(16) 0.87526(16)
H4_3 H 0.3475 0.5466 0.8834
H5_3 H 0.3602 0.5689 0.8498
H6_3 H 0.3369 0.5874 0.8799
C10_3 C 0.4366(2) 0.6250 0.8134(2)
C11_3 C 0.48692(17) 0.60878(19) 0.9556(2)
H7_3 H 0.5080 0.6040 0.9413
H8_3 H 0.4880 0.5950 0.9775
H9_3 H 0.4859 0.6341 0.9613
C12_3 C 0.4534(2) 0.5924(2) 0.8022(2)
C13_3 C 0.37255(16) 0.5348(2) 0.94311(18)
H10_3 H 0.3807 0.5277 0.9667
H11_3 H 0.3724 0.5141 0.9275
H12_3 H 0.3486 0.5446 0.9448
C14_3 C 0.4809(3) 0.5947(3) 0.7752(3)
C15_3 C 0.44171(19) 0.55739(19) 0.8172(2)
H13_3 H 0.4609 0.5472 0.8313
H14_3 H 0.4358 0.5413 0.7977
H15_3 H 0.4209 0.5609 0.8322
B1_3 B 0.4066(2) 0.6250 0.8434(2)
C16_3 C 0.4920(5) 0.6250 0.7580(5)
H16_3 H 0.5098 0.6250 0.7402
C17_3 C 0.4961(3) 0.5556(3) 0.7661(3)
H17_3 H 0.4773 0.5413 0.7554
H18_3 H 0.5043 0.5442 0.7879
H19_3 H 0.5159 0.5576 0.7494
O4_3 O 0.26731(12) 0.72463(14) 0.79696(13)
O5_3 O 0.23956(17) 0.6777(2) 0.82171(19)
C18_3 C 0.34885(17) 0.63424(17) 0.80475(15)
C19_3 C 0.35424(18) 0.66914(19) 0.85948(15)
C20_3 C 0.31625(19) 0.65210(18) 0.79763(16)
C21_3 C 0.30421(18) 0.67819(17) 0.82037(16)
C22_3 C 0.36078(19) 0.60354(17) 0.77899(16)
H20_3 H 0.3468 0.5822 0.7839
H21_3 H 0.3859 0.5985 0.7827
H22_3 H 0.3569 0.6109 0.7544
C23_3 C 0.32231(16) 0.68650(18) 0.85181(16)
C24_3 C 0.2672(3) 0.6939(3) 0.8129(2)
C25_3 C 0.36829(17) 0.64326(18) 0.83564(16)
C26_3 C 0.37474(16) 0.68011(16) 0.89458(14)
H23_3 H 0.3666 0.7034 0.9025
H24_3 H 0.4002 0.6811 0.8898
H25_3 H 0.3701 0.6626 0.9131
C27_3 C 0.2944(2) 0.64122(19) 0.76308(17)
H26_3 H 0.3087 0.6460 0.7420
H27_3 H 0.2725 0.6550 0.7620
H28_3 H 0.2887 0.6159 0.7641
C28_3 C 0.4478(2) 0.6576(2) 0.7966(2)
C29_3 C 0.30689(18) 0.7152(2) 0.87745(16)
H29_3 H 0.2833 0.7223 0.8693
H30_3 H 0.3225 0.7359 0.8776
H31_3 H 0.3052 0.7054 0.9014
C30_3 C 0.4748(3) 0.6553(3) 0.7691(3)
C31_3 C 0.4328(2) 0.69261(19) 0.80829(19)
H32_3 H 0.4187 0.7028 0.7891
H33_3 H 0.4523 0.7087 0.8142
H34_3 H 0.4178 0.6891 0.8291
C32_3 C 0.4839(3) 0.6944(3) 0.7539(3)
H35_3 H 0.4946 0.7087 0.7727
H36_3 H 0.4621 0.7058 0.7457
H37_3 H 0.5006 0.6924 0.7341
Zn3_2 Zn 0.55758(4) 0.44242(4) 0.94242(4)
O6_3 O 0.59106(17) 0.40894(17) 0.90894(17)
O7_3 O 0.48269(12) 0.45304(13) 0.97463(14)
O8_3 O 0.51044(17) 0.42829(19) 0.9277(2)
C33_3 C 0.40115(17) 0.44525(15) 0.88424(17)
C34_3 C 0.39576(18) 0.39052(15) 0.91914(19)
C35_3 C 0.43375(19) 0.45237(16) 0.90210(18)
C36_3 C 0.44579(18) 0.42963(16) 0.92819(17)
C37_3 C 0.38922(19) 0.47101(16) 0.85354(17)
H38_3 H 0.4032 0.4661 0.8322
H39_3 H 0.3641 0.4673 0.8485
H40_3 H 0.3931 0.4956 0.8609
C38_3 C 0.42769(16) 0.39819(16) 0.93650(18)
C39_3 C 0.4828(3) 0.4371(2) 0.9439(3)
C40_3 C 0.38171(17) 0.41436(16) 0.89326(18)
C41_3 C 0.37526(16) 0.35542(14) 0.93011(16)
H41_3 H 0.3834 0.3475 0.9534
H42_3 H 0.3498 0.3602 0.9311
H43_3 H 0.3799 0.3369 0.9126
C42_3 C 0.3134(2) 0.4366(2) 0.8750
C43_3 C 0.4556(2) 0.48692(17) 0.89122(19)
H44_3 H 0.4413 0.5080 0.8960
H45_3 H 0.4775 0.4880 0.9050
H46_3 H 0.4613 0.4859 0.8659
C44_3 C 0.3022(2) 0.4534(2) 0.9076(2)
C45_3 C 0.44311(18) 0.37255(16) 0.9652(2)
H47_3 H 0.4667 0.3807 0.9723
H48_3 H 0.4275 0.3724 0.9859
H49_3 H 0.4448 0.3486 0.9554
C46_3 C 0.2752(3) 0.4809(3) 0.9053(3)
C47_3 C 0.3172(2) 0.44171(19) 0.94261(19)
H50_3 H 0.3313 0.4609 0.9528
H51_3 H 0.2977 0.4358 0.9587
H52_3 H 0.3322 0.4209 0.9391
B2_3 B 0.3434(2) 0.4066(2) 0.8750
C48_3 C 0.2580(5) 0.4920(5) 0.8750
H53_3 H 0.2402 0.5098 0.8750
C49_3 C 0.2661(3) 0.4961(3) 0.9444(3)
H54_3 H 0.2554 0.4773 0.9587
H55_3 H 0.2879 0.5043 0.9558
H56_3 H 0.2494 0.5159 0.9424
O9_3 O 0.29696(13) 0.26731(12) 0.77537(14)
O10_3 O 0.32171(19) 0.23956(17) 0.8223(2)
C50_3 C 0.30475(15) 0.34885(17) 0.86576(17)
C51_3 C 0.35948(15) 0.35424(18) 0.83086(19)
C52_3 C 0.29763(16) 0.31625(19) 0.84790(18)
C53_3 C 0.32037(16) 0.30421(18) 0.82181(17)
C54_3 C 0.27899(16) 0.36078(19) 0.89646(17)
H57_3 H 0.2839 0.3468 0.9178
H58_3 H 0.2827 0.3859 0.9015
H59_3 H 0.2544 0.3569 0.8891
C55_3 C 0.35181(16) 0.32231(16) 0.81350(18)
C56_3 C 0.3129(2) 0.2672(3) 0.8061(3)
C57_3 C 0.33564(16) 0.36829(17) 0.85674(18)
C58_3 C 0.39458(14) 0.37474(16) 0.81989(16)
H60_3 H 0.4025 0.3666 0.7966
H61_3 H 0.3898 0.4002 0.8189
H62_3 H 0.4131 0.3701 0.8374
C59_3 C 0.26308(17) 0.2944(2) 0.85878(19)
H63_3 H 0.2420 0.3087 0.8540
H64_3 H 0.2620 0.2725 0.8450
H65_3 H 0.2641 0.2887 0.8841
C60_3 C 0.2966(2) 0.4478(2) 0.8424(2)
C61_3 C 0.37745(16) 0.30689(18) 0.7848(2)
H66_3 H 0.3693 0.2833 0.7777
H67_3 H 0.3776 0.3225 0.7641
H68_3 H 0.4014 0.3052 0.7946
C62_3 C 0.2691(3) 0.4748(3) 0.8447(3)
C63_3 C 0.30829(19) 0.4328(2) 0.80739(19)
H69_3 H 0.2891 0.4187 0.7972
H70_3 H 0.3142 0.4523 0.7913
H71_3 H 0.3291 0.4178 0.8109
C64_3 C 0.2539(3) 0.4839(3) 0.8056(3)
H72_3 H 0.2727 0.4946 0.7913
H73_3 H 0.2457 0.4621 0.7942
H74_3 H 0.2341 0.5006 0.8076
O11_3 O 0.52537(14) 0.51731(12) 0.95304(13)
O12_3 O 0.5723(2) 0.48956(17) 0.92829(19)
C65_3 C 0.61576(17) 0.59885(17) 0.94525(15)
C66_3 C 0.58086(19) 0.60424(18) 0.89052(15)
C67_3 C 0.59790(18) 0.56625(19) 0.95237(16)
C68_3 C 0.57181(17) 0.55421(18) 0.92963(16)
C69_3 C 0.64646(17) 0.61078(19) 0.97101(16)
H75_3 H 0.6678 0.5968 0.9661
H76_3 H 0.6515 0.6359 0.9673
H77_3 H 0.6391 0.6069 0.9956
C70_3 C 0.56350(18) 0.57231(16) 0.89819(16)
C71_3 C 0.5561(3) 0.5172(3) 0.9371(2)
C72_3 C 0.60674(18) 0.61829(17) 0.91436(16)
C73_3 C 0.56989(16) 0.62474(16) 0.85542(14)
H78_3 H 0.5466 0.6166 0.8475
H79_3 H 0.5689 0.6502 0.8602
H80_3 H 0.5874 0.6201 0.8369
C74_3 C 0.6250 0.6866(2) 0.9366(2)
C75_3 C 0.60878(19) 0.5444(2) 0.98692(17)
H82_3 H 0.5950 0.5225 0.9880
H83_3 H 0.6341 0.5387 0.9859
C76_3 C 0.5924(2) 0.6978(2) 0.9534(2)
C77_3 C 0.5348(2) 0.55689(18) 0.87255(16)
H84_3 H 0.5277 0.5333 0.8807
H85_3 H 0.5141 0.5725 0.8724
H86_3 H 0.5446 0.5552 0.8486
C78_3 C 0.5947(3) 0.7248(3) 0.9809(3)
C79_3 C 0.55739(19) 0.6828(2) 0.94171(19)
H87_3 H 0.5472 0.6687 0.9609
H88_3 H 0.5413 0.7023 0.9358
H89_3 H 0.5609 0.6678 0.9209
B3_3 B 0.6250 0.6566(2) 0.9066(2)
C80_3 C 0.6250 0.7420(5) 0.9920(5)
C81_3 C 0.5556(3) 0.7339(3) 0.9961(3)
H91_3 H 0.5413 0.7446 0.9773
O13_3 O 0.72463(14) 0.70304(13) 0.76731(12)
O14_3 O 0.6777(2) 0.67829(19) 0.73956(17)
C82_3 C 0.63424(17) 0.69525(15) 0.84885(17)
C83_3 C 0.66914(19) 0.64052(15) 0.85424(18)
C84_3 C 0.65210(18) 0.70237(16) 0.81625(19)
C85_3 C 0.67819(17) 0.67963(16) 0.80421(18)
C86_3 C 0.60354(17) 0.72101(16) 0.86078(19)
H94_3 H 0.5822 0.7161 0.8468
H95_3 H 0.5985 0.7173 0.8859
H96_3 H 0.6109 0.7456 0.8569
C87_3 C 0.68650(18) 0.64819(16) 0.82231(16)
C88_3 C 0.6939(3) 0.6871(2) 0.7672(3)
C89_3 C 0.64326(18) 0.66436(16) 0.86829(17)
C90_3 C 0.68011(16) 0.60542(14) 0.87474(16)
H97_3 H 0.7034 0.5975 0.8666
H98_3 H 0.6811 0.6102 0.9002
H99_3 H 0.6626 0.5869 0.8701
C91_3 C 0.64122(19) 0.73692(17) 0.7944(2)
H100_3 H 0.6460 0.7580 0.8087
H101_3 H 0.6550 0.7380 0.7725
H102_3 H 0.6159 0.7359 0.7887
C92_3 C 0.6576(2) 0.7034(2) 0.9478(2)
C93_3 C 0.7152(2) 0.62255(16) 0.80689(18)
H103_3 H 0.7223 0.6307 0.7833
H104_3 H 0.7359 0.6224 0.8225
H105_3 H 0.7054 0.5986 0.8052
C94_3 C 0.6553(3) 0.7309(3) 0.9748(3)
C95_3 C 0.69261(19) 0.69171(19) 0.9328(2)
H106_3 H 0.7028 0.7109 0.9187
H107_3 H 0.7087 0.6858 0.9523
H108_3 H 0.6891 0.6709 0.9178
C96_3 C 0.6944(3) 0.7461(3) 0.9839(3)
H109_3 H 0.7087 0.7273 0.9946
H110_3 H 0.7058 0.7543 0.9621
Zn4_6 Zn 0.7500 0.7500 0.7500
Zn7_3 Zn 0.19242(4) 0.69242(4) 0.80758(4)
Zn8_3 Zn 0.30758(4) 0.19242(4) 0.80758(4)
Zn9_3 Zn 0.69242(4) 0.69242(4) 0.69242(4)
O20_2 O 0.57171(19) 0.4277(2) 0.98956(17)
C1_4 C 0.59885(17) 0.44525(15) 0.38424(17)
C2_4 C 0.60424(18) 0.39052(15) 0.41914(19)
C3_4 C 0.56625(19) 0.45237(16) 0.40210(18)
C4_4 C 0.55421(18) 0.42963(16) 0.42819(17)
C5_4 C 0.61078(19) 0.47101(16) 0.35354(17)
H1_4 H 0.5968 0.4661 0.3322
H2_4 H 0.6359 0.4673 0.3485
H3_4 H 0.6069 0.4956 0.3609
C6_4 C 0.57231(16) 0.39819(16) 0.43650(18)
C7_4 C 0.5172(3) 0.4371(2) 0.4439(3)
C8_4 C 0.61829(17) 0.41436(16) 0.39326(18)
C9_4 C 0.62474(16) 0.35542(14) 0.43011(16)
H4_4 H 0.6166 0.3475 0.4534
H5_4 H 0.6502 0.3602 0.4311
H6_4 H 0.6201 0.3369 0.4126
C10_4 C 0.6866(2) 0.4366(2) 0.3750
C11_4 C 0.5444(2) 0.48692(17) 0.39122(19)
H7_4 H 0.5587 0.5080 0.3960
H8_4 H 0.5225 0.4880 0.4050
H9_4 H 0.5387 0.4859 0.3659
C12_4 C 0.6978(2) 0.4534(2) 0.4076(2)
C13_4 C 0.55689(18) 0.37255(16) 0.4652(2)
H10_4 H 0.5333 0.3807 0.4723
H11_4 H 0.5725 0.3724 0.4859
H12_4 H 0.5552 0.3486 0.4554
C14_4 C 0.7248(3) 0.4809(3) 0.4053(3)
C15_4 C 0.6828(2) 0.44171(19) 0.44261(19)
H13_4 H 0.6687 0.4609 0.4528
H14_4 H 0.7023 0.4358 0.4587
H15_4 H 0.6678 0.4209 0.4391
B1_4 B 0.6566(2) 0.4066(2) 0.3750
C16_4 C 0.7420(5) 0.4920(5) 0.3750
H16_4 H 0.7598 0.5098 0.3750
C17_4 C 0.7339(3) 0.4961(3) 0.4444(3)
H17_4 H 0.7446 0.4773 0.4587
H18_4 H 0.7121 0.5043 0.4558
H19_4 H 0.7506 0.5159 0.4424
O4_4 O 0.70304(13) 0.26731(12) 0.27537(14)
O5_4 O 0.67829(19) 0.23956(17) 0.3223(2)
C18_4 C 0.69525(15) 0.34885(17) 0.36576(17)
C19_4 C 0.64052(15) 0.35424(18) 0.33086(19)
C20_4 C 0.70237(16) 0.31625(19) 0.34790(18)
C21_4 C 0.67963(16) 0.30421(18) 0.32181(17)
C22_4 C 0.72101(16) 0.36078(19) 0.39646(17)
H20_4 H 0.7161 0.3468 0.4178
H21_4 H 0.7173 0.3859 0.4015
H22_4 H 0.7456 0.3569 0.3891
C23_4 C 0.64819(16) 0.32231(16) 0.31350(18)
C24_4 C 0.6871(2) 0.2672(3) 0.3061(3)
C25_4 C 0.66436(16) 0.36829(17) 0.35674(18)
C26_4 C 0.60542(14) 0.37474(16) 0.31989(16)
H23_4 H 0.5975 0.3666 0.2966
H24_4 H 0.6102 0.4002 0.3189
H25_4 H 0.5869 0.3701 0.3374
C27_4 C 0.73692(17) 0.2944(2) 0.35878(19)
H26_4 H 0.7580 0.3087 0.3540
H27_4 H 0.7380 0.2725 0.3450
H28_4 H 0.7359 0.2887 0.3841
C28_4 C 0.7034(2) 0.4478(2) 0.3424(2)
C29_4 C 0.62255(16) 0.30689(18) 0.2848(2)
H29_4 H 0.6307 0.2833 0.2777
H30_4 H 0.6224 0.3225 0.2641
H31_4 H 0.5986 0.3052 0.2946
C30_4 C 0.7309(3) 0.4748(3) 0.3447(3)
C31_4 C 0.69171(19) 0.4328(2) 0.30739(19)
H32_4 H 0.7109 0.4187 0.2972
H33_4 H 0.6858 0.4523 0.2913
H34_4 H 0.6709 0.4178 0.3109
C32_4 C 0.7461(3) 0.4839(3) 0.3056(3)
H35_4 H 0.7273 0.4946 0.2913
H36_4 H 0.7543 0.4621 0.2942
H37_4 H 0.7659 0.5006 0.3076
C65_4 C 0.55475(15) 0.61576(17) 0.40115(17)
C66_4 C 0.60948(15) 0.58086(19) 0.39576(18)
C67_4 C 0.54763(16) 0.59790(18) 0.43375(19)
C68_4 C 0.57037(16) 0.57181(17) 0.44579(18)
C69_4 C 0.52899(16) 0.64646(17) 0.38922(19)
H75_4 H 0.5339 0.6678 0.4032
H76_4 H 0.5327 0.6515 0.3641
H77_4 H 0.5044 0.6391 0.3931
C70_4 C 0.60181(16) 0.56350(18) 0.42769(16)
C71_4 C 0.5629(2) 0.5561(3) 0.4828(3)
C72_4 C 0.58564(16) 0.60674(18) 0.38171(17)
C73_4 C 0.64458(14) 0.56989(16) 0.37526(16)
H78_4 H 0.6525 0.5466 0.3834
H79_4 H 0.6398 0.5689 0.3498
H80_4 H 0.6631 0.5874 0.3799
C74_4 C 0.5634(2) 0.6250 0.3134(2)
C75_4 C 0.51308(17) 0.60878(19) 0.4556(2)
H81_4 H 0.4920 0.6040 0.4413
H82_4 H 0.5120 0.5950 0.4775
H83_4 H 0.5141 0.6341 0.4613
C76_4 C 0.5466(2) 0.5924(2) 0.3022(2)
C77_4 C 0.62745(16) 0.5348(2) 0.44311(18)
H84_4 H 0.6193 0.5277 0.4667
H85_4 H 0.6276 0.5141 0.4275
H86_4 H 0.6514 0.5446 0.4448
C78_4 C 0.5191(3) 0.5947(3) 0.2752(3)
C79_4 C 0.55829(19) 0.55739(19) 0.3172(2)
H87_4 H 0.5391 0.5472 0.3313
H88_4 H 0.5642 0.5413 0.2977
H89_4 H 0.5791 0.5609 0.3322
B3_4 B 0.5934(2) 0.6250 0.3434(2)
C80_4 C 0.5080(5) 0.6250 0.2580(5)
H90_4 H 0.4902 0.6250 0.2402
C81_4 C 0.5039(3) 0.5556(3) 0.2661(3)
H91_4 H 0.5227 0.5413 0.2554
H92_4 H 0.4957 0.5442 0.2879
H93_4 H 0.4841 0.5576 0.2494
O13_4 O 0.73269(12) 0.72463(14) 0.29696(13)
O14_4 O 0.76044(17) 0.6777(2) 0.32171(19)
C82_4 C 0.65115(17) 0.63424(17) 0.30475(15)
C83_4 C 0.64576(18) 0.66914(19) 0.35948(15)
C84_4 C 0.68375(19) 0.65210(18) 0.29763(16)
C85_4 C 0.69579(18) 0.67819(17) 0.32037(16)
C86_4 C 0.63922(19) 0.60354(17) 0.27899(16)
H94_4 H 0.6532 0.5822 0.2839
H95_4 H 0.6141 0.5985 0.2827
H96_4 H 0.6431 0.6109 0.2544
C87_4 C 0.67769(16) 0.68650(18) 0.35181(16)
C88_4 C 0.7328(3) 0.6939(3) 0.3129(2)
C89_4 C 0.63171(17) 0.64326(18) 0.33564(16)
C90_4 C 0.62526(16) 0.68011(16) 0.39458(14)
H97_4 H 0.6334 0.7034 0.4025
H98_4 H 0.5998 0.6811 0.3898
H99_4 H 0.6299 0.6626 0.4131
C91_4 C 0.7056(2) 0.64122(19) 0.26308(17)
H100_4 H 0.6913 0.6460 0.2420
H101_4 H 0.7275 0.6550 0.2620
H102_4 H 0.7113 0.6159 0.2641
C92_4 C 0.5522(2) 0.6576(2) 0.2966(2)
C93_4 C 0.69311(18) 0.7152(2) 0.37745(16)
H103_4 H 0.7167 0.7223 0.3693
H104_4 H 0.6775 0.7359 0.3776
H105_4 H 0.6948 0.7054 0.4014
C94_4 C 0.5252(3) 0.6553(3) 0.2691(3)
C95_4 C 0.5672(2) 0.69261(19) 0.30829(19)
H106_4 H 0.5813 0.7028 0.2891
H107_4 H 0.5477 0.7087 0.3142
H108_4 H 0.5822 0.6891 0.3291
C96_4 C 0.5161(3) 0.6944(3) 0.2539(3)
H109_4 H 0.5054 0.7087 0.2727
H110_4 H 0.5379 0.7058 0.2457
H111_4 H 0.4994 0.6924 0.2341
Zn4_7 Zn 0.7500 0.7500 0.2500
Zn6_10 Zn 0.7500 0.2500 0.2500
Zn7_4 Zn 0.69242(4) 0.19242(4) 0.30758(4)
Zn9_4 Zn 0.80758(4) 0.69242(4) 0.30758(4)
O1_4 O 0.04696(13) 0.52537(14) 0.01731(12)
C1_5 C 0.05475(15) 0.61576(17) 0.09885(17)
C2_5 C 0.10948(15) 0.58086(19) 0.10424(18)
C3_5 C 0.04763(16) 0.59790(18) 0.06625(19)
C4_5 C 0.07037(16) 0.57181(17) 0.05421(18)
C5_5 C 0.02899(16) 0.64646(17) 0.11078(19)
H1_5 H 0.0339 0.6678 0.0968
H2_5 H 0.0327 0.6515 0.1359
H3_5 H 0.0044 0.6391 0.1069
C6_5 C 0.10181(16) 0.56350(18) 0.07231(16)
C7_5 C 0.0629(2) 0.5561(3) 0.0172(3)
C8_5 C 0.08564(16) 0.60674(18) 0.11829(17)
C9_5 C 0.14458(14) 0.56989(16) 0.12474(16)
H4_5 H 0.1525 0.5466 0.1166
H5_5 H 0.1398 0.5689 0.1502
H6_5 H 0.1631 0.5874 0.1201
C10_5 C 0.0634(2) 0.6250 0.1866(2)
C11_5 C 0.01308(17) 0.60878(19) 0.0444(2)
H8_5 H 0.0120 0.5950 0.0225
H9_5 H 0.0141 0.6341 0.0387
C12_5 C 0.0466(2) 0.5924(2) 0.1978(2)
C13_5 C 0.12745(16) 0.5348(2) 0.05689(18)
H10_5 H 0.1193 0.5277 0.0333
H11_5 H 0.1276 0.5141 0.0725
H12_5 H 0.1514 0.5446 0.0552
C14_5 C 0.0191(3) 0.5947(3) 0.2248(3)
C15_5 C 0.05829(19) 0.55739(19) 0.1828(2)
H13_5 H 0.0391 0.5472 0.1687
H14_5 H 0.0642 0.5413 0.2023
H15_5 H 0.0791 0.5609 0.1678
B1_5 B 0.0934(2) 0.6250 0.1566(2)
C16_5 C 0.0080(5) 0.6250 0.2420(5)
C17_5 C 0.0039(3) 0.5556(3) 0.2339(3)
H17_5 H 0.0227 0.5413 0.2446
O4_5 O 0.23269(12) 0.72463(14) 0.20304(13)
O5_5 O 0.26044(17) 0.6777(2) 0.17829(19)
C18_5 C 0.15115(17) 0.63424(17) 0.19525(15)
C19_5 C 0.14576(18) 0.66914(19) 0.14052(15)
C20_5 C 0.18375(19) 0.65210(18) 0.20237(16)
C21_5 C 0.19579(18) 0.67819(17) 0.17963(16)
C22_5 C 0.13922(19) 0.60354(17) 0.22101(16)
H20_5 H 0.1532 0.5822 0.2161
H21_5 H 0.1141 0.5985 0.2173
H22_5 H 0.1431 0.6109 0.2456
C23_5 C 0.17769(16) 0.68650(18) 0.14819(16)
C24_5 C 0.2328(3) 0.6939(3) 0.1871(2)
C25_5 C 0.13171(17) 0.64326(18) 0.16436(16)
C26_5 C 0.12526(16) 0.68011(16) 0.10542(14)
H23_5 H 0.1334 0.7034 0.0975
H24_5 H 0.0998 0.6811 0.1102
H25_5 H 0.1299 0.6626 0.0869
C27_5 C 0.2056(2) 0.64122(19) 0.23692(17)
H26_5 H 0.1913 0.6460 0.2580
H27_5 H 0.2275 0.6550 0.2380
H28_5 H 0.2113 0.6159 0.2359
C28_5 C 0.0522(2) 0.6576(2) 0.2034(2)
C29_5 C 0.19311(18) 0.7152(2) 0.12255(16)
H29_5 H 0.2167 0.7223 0.1307
H30_5 H 0.1775 0.7359 0.1224
H31_5 H 0.1948 0.7054 0.0986
C30_5 C 0.0252(3) 0.6553(3) 0.2309(3)
C31_5 C 0.0672(2) 0.69261(19) 0.19171(19)
H32_5 H 0.0813 0.7028 0.2109
H33_5 H 0.0477 0.7087 0.1858
H34_5 H 0.0822 0.6891 0.1709
C32_5 C 0.0161(3) 0.6944(3) 0.2461(3)
H35_5 H 0.0054 0.7087 0.2273
H36_5 H 0.0379 0.7058 0.2543
O7_4 O 0.01731(12) 0.45304(13) 0.02537(14)
C33_4 C 0.09885(17) 0.44525(15) 0.11576(17)
C34_4 C 0.10424(18) 0.39052(15) 0.08086(19)
C35_4 C 0.06625(19) 0.45237(16) 0.09790(18)
C36_4 C 0.05421(18) 0.42963(16) 0.07181(17)
C37_4 C 0.11078(19) 0.47101(16) 0.14646(17)
H38_4 H 0.0968 0.4661 0.1678
H39_4 H 0.1359 0.4673 0.1515
H40_4 H 0.1069 0.4956 0.1391
C38_4 C 0.07231(16) 0.39819(16) 0.06350(18)
C39_4 C 0.0172(3) 0.4371(2) 0.0561(3)
C40_4 C 0.11829(17) 0.41436(16) 0.10674(18)
C41_4 C 0.12474(16) 0.35542(14) 0.06989(16)
H41_4 H 0.1166 0.3475 0.0466
H42_4 H 0.1502 0.3602 0.0689
H43_4 H 0.1201 0.3369 0.0874
C42_4 C 0.1866(2) 0.4366(2) 0.1250
C43_4 C 0.0444(2) 0.48692(17) 0.10878(19)
H44_4 H 0.0587 0.5080 0.1040
H45_4 H 0.0225 0.4880 0.0950
H46_4 H 0.0387 0.4859 0.1341
C44_4 C 0.1978(2) 0.4534(2) 0.0924(2)
C45_4 C 0.05689(18) 0.37255(16) 0.0348(2)
H47_4 H 0.0333 0.3807 0.0277
H48_4 H 0.0725 0.3724 0.0141
H49_4 H 0.0552 0.3486 0.0446
C46_4 C 0.2248(3) 0.4809(3) 0.0947(3)
C47_4 C 0.1828(2) 0.44171(19) 0.05739(19)
H50_4 H 0.1687 0.4609 0.0472
H51_4 H 0.2023 0.4358 0.0413
H52_4 H 0.1678 0.4209 0.0609
B2_4 B 0.1566(2) 0.4066(2) 0.1250
C48_4 C 0.2420(5) 0.4920(5) 0.1250
H53_4 H 0.2598 0.5098 0.1250
C49_4 C 0.2339(3) 0.4961(3) 0.0556(3)
H54_4 H 0.2446 0.4773 0.0413
H55_4 H 0.2121 0.5043 0.0442
H56_4 H 0.2506 0.5159 0.0576
O9_4 O 0.20304(13) 0.26731(12) 0.22463(14)
O10_4 O 0.17829(19) 0.23956(17) 0.1777(2)
C50_4 C 0.19525(15) 0.34885(17) 0.13424(17)
C51_4 C 0.14052(15) 0.35424(18) 0.16914(19)
C52_4 C 0.20237(16) 0.31625(19) 0.15210(18)
C53_4 C 0.17963(16) 0.30421(18) 0.17819(17)
C54_4 C 0.22101(16) 0.36078(19) 0.10354(17)
H57_4 H 0.2161 0.3468 0.0822
H58_4 H 0.2173 0.3859 0.0985
H59_4 H 0.2456 0.3569 0.1109
C55_4 C 0.14819(16) 0.32231(16) 0.18650(18)
C56_4 C 0.1871(2) 0.2672(3) 0.1939(3)
C57_4 C 0.16436(16) 0.36829(17) 0.14326(18)
C58_4 C 0.10542(14) 0.37474(16) 0.18011(16)
H60_4 H 0.0975 0.3666 0.2034
H61_4 H 0.1102 0.4002 0.1811
H62_4 H 0.0869 0.3701 0.1626
C59_4 C 0.23692(17) 0.2944(2) 0.14122(19)
H63_4 H 0.2580 0.3087 0.1460
H64_4 H 0.2380 0.2725 0.1550
H65_4 H 0.2359 0.2887 0.1159
C60_4 C 0.2034(2) 0.4478(2) 0.1576(2)
C61_4 C 0.12255(16) 0.30689(18) 0.2152(2)
H66_4 H 0.1307 0.2833 0.2223
H67_4 H 0.1224 0.3225 0.2359
H68_4 H 0.0986 0.3052 0.2054
C62_4 C 0.2309(3) 0.4748(3) 0.1553(3)
C63_4 C 0.19171(19) 0.4328(2) 0.19261(19)
H69_4 H 0.2109 0.4187 0.2028
H70_4 H 0.1858 0.4523 0.2087
H71_4 H 0.1709 0.4178 0.1891
C64_4 C 0.2461(3) 0.4839(3) 0.1944(3)
H72_4 H 0.2273 0.4946 0.2087
H73_4 H 0.2543 0.4621 0.2058
H74_4 H 0.2659 0.5006 0.1924
Zn5_6 Zn 0.2500 0.2500 0.2500
Zn6_11 Zn 0.2500 0.7500 0.2500
Zn7_5 Zn 0.30758(4) 0.69242(4) 0.19242(4)
Zn8_4 Zn 0.19242(4) 0.19242(4) 0.19242(4)
Zn2_4 Zn 0.05758(4) 0.55758(4) 0.94242(4)
O2_4 O 0.07171(19) 0.5723(2) 0.98956(17)
O3_4 O 0.09106(17) 0.59106(17) 0.90894(17)
O16_4 O 0.02537(14) 0.48269(12) 0.95304(13)
O18_4 O 0.01044(17) 0.57171(19) 0.9277(2)
O19_4 O 0.0723(2) 0.51044(17) 0.92829(19)
H7_5 H 0.9920 0.6040 0.0587
H16_5 H 0.9902 0.6250 0.2598
H18_5 H 0.9957 0.5442 0.2121
H19_5 H 0.9841 0.5576 0.2506
H37_5 H 0.9994 0.6924 0.2659
O6_4 O 0.90894(17) 0.40894(17) 0.09106(17)
O8_4 O 0.98956(17) 0.42829(19) 0.0723(2)
O11_4 O 0.97463(14) 0.51731(12) 0.04696(13)
O12_4 O 0.9277(2) 0.48956(17) 0.07171(19)
C65_5 C 0.88424(17) 0.59885(17) 0.05475(15)
C66_5 C 0.91914(19) 0.60424(18) 0.10948(15)
C67_5 C 0.90210(18) 0.56625(19) 0.04763(16)
C68_5 C 0.92819(17) 0.55421(18) 0.07037(16)
C69_5 C 0.85354(17) 0.61078(19) 0.02899(16)
H75_5 H 0.8322 0.5968 0.0339
H76_5 H 0.8485 0.6359 0.0327
H77_5 H 0.8609 0.6069 0.0044
C70_5 C 0.93650(18) 0.57231(16) 0.10181(16)
C71_5 C 0.9439(3) 0.5172(3) 0.0629(2)
C72_5 C 0.89326(18) 0.61829(17) 0.08564(16)
C73_5 C 0.93011(16) 0.62474(16) 0.14458(14)
H78_5 H 0.9534 0.6166 0.1525
H79_5 H 0.9311 0.6502 0.1398
H80_5 H 0.9126 0.6201 0.1631
C74_5 C 0.8750 0.6866(2) 0.0634(2)
C75_5 C 0.89122(19) 0.5444(2) 0.01308(17)
H82_5 H 0.9050 0.5225 0.0120
H83_5 H 0.8659 0.5387 0.0141
C76_5 C 0.9076(2) 0.6978(2) 0.0466(2)
C77_5 C 0.9652(2) 0.55689(18) 0.12745(16)
H84_5 H 0.9723 0.5333 0.1193
H85_5 H 0.9859 0.5725 0.1276
H86_5 H 0.9554 0.5552 0.1514
C78_5 C 0.9053(3) 0.7248(3) 0.0191(3)
C79_5 C 0.94261(19) 0.6828(2) 0.05829(19)
H87_5 H 0.9528 0.6687 0.0391
H88_5 H 0.9587 0.7023 0.0642
H89_5 H 0.9391 0.6678 0.0791
B3_5 B 0.8750 0.6566(2) 0.0934(2)
C80_5 C 0.8750 0.7420(5) 0.0080(5)
C81_5 C 0.9444(3) 0.7339(3) 0.0039(3)
H91_5 H 0.9587 0.7446 0.0227
O13_5 O 0.77537(14) 0.70304(13) 0.23269(12)
O14_5 O 0.8223(2) 0.67829(19) 0.26044(17)
C82_5 C 0.86576(17) 0.69525(15) 0.15115(17)
C83_5 C 0.83086(19) 0.64052(15) 0.14576(18)
C84_5 C 0.84790(18) 0.70237(16) 0.18375(19)
C85_5 C 0.82181(17) 0.67963(16) 0.19579(18)
C86_5 C 0.89646(17) 0.72101(16) 0.13922(19)
H94_5 H 0.9178 0.7161 0.1532
H95_5 H 0.9015 0.7173 0.1141
H96_5 H 0.8891 0.7456 0.1431
C87_5 C 0.81350(18) 0.64819(16) 0.17769(16)
C88_5 C 0.8061(3) 0.6871(2) 0.2328(3)
C89_5 C 0.85674(18) 0.66436(16) 0.13171(17)
C90_5 C 0.81989(16) 0.60542(14) 0.12526(16)
H97_5 H 0.7966 0.5975 0.1334
H98_5 H 0.8189 0.6102 0.0998
H99_5 H 0.8374 0.5869 0.1299
C91_5 C 0.85878(19) 0.73692(17) 0.2056(2)
H100_5 H 0.8540 0.7580 0.1913
H101_5 H 0.8450 0.7380 0.2275
H102_5 H 0.8841 0.7359 0.2113
C92_5 C 0.8424(2) 0.7034(2) 0.0522(2)
C93_5 C 0.7848(2) 0.62255(16) 0.19311(18)
H103_5 H 0.7777 0.6307 0.2167
H104_5 H 0.7641 0.6224 0.1775
H105_5 H 0.7946 0.5986 0.1948
C94_5 C 0.8447(3) 0.7309(3) 0.0252(3)
C95_5 C 0.80739(19) 0.69171(19) 0.0672(2)
H106_5 H 0.7972 0.7109 0.0813
H107_5 H 0.7913 0.6858 0.0477
H108_5 H 0.8109 0.6709 0.0822
C96_5 C 0.8056(3) 0.7461(3) 0.0161(3)
H109_5 H 0.7913 0.7273 0.0054
H110_5 H 0.7942 0.7543 0.0379
H81_5 H 0.8960 0.5587 0.9920
H90_5 H 0.8750 0.7598 0.9902
H92_5 H 0.9558 0.7121 0.9957
H93_5 H 0.9424 0.7506 0.9841
H111_5 H 0.8076 0.7659 0.9994
O15_4 O 0.98269(12) 0.54696(13) 0.97463(14)
Zn6_12 Zn 0.0000 0.0000 0.5000
H90_6 H 0.0098 0.6250 0.7598
H93_6 H 0.0006 0.6924 0.7659
H100_6 H 0.0080 0.6040 0.5587
H110_6 H 0.0043 0.5442 0.7121
H111_6 H 0.0159 0.5576 0.7506
Zn4_8 Zn 0.0000 0.5000 0.5000
Zn6_13 Zn 0.0000 1.0000 0.5000
O5_6 O 0.9277(2) 0.01044(17) 0.57171(19)
H53_5 H 0.7598 0.0098 0.6250
H56_5 H 0.7659 0.0006 0.6924
H63_5 H 0.5587 0.0080 0.6040
H73_5 H 0.7121 0.0043 0.5442
H74_5 H 0.7506 0.0159 0.5576
Zn5_7 Zn 0.5000 0.0000 0.5000
Zn6_14 Zn 1.0000 0.0000 0.5000
Zn7_6 Zn 0.94242(4) 0.05758(4) 0.55758(4)
Zn2_5 Zn 0.80758(4) 0.80758(4) 0.80758(4)
O1_5 O 0.77537(14) 0.79696(13) 0.73269(12)
O2_5 O 0.8223(2) 0.82171(19) 0.76044(17)
O3_5 O 0.84106(17) 0.84106(17) 0.84106(17)
C1_6 C 0.86576(17) 0.80475(15) 0.65115(17)
C2_6 C 0.83086(19) 0.85948(15) 0.64576(18)
C3_6 C 0.84790(18) 0.79763(16) 0.68375(19)
C4_6 C 0.82181(17) 0.82037(16) 0.69579(18)
C5_6 C 0.89646(17) 0.77899(16) 0.63922(19)
H1_6 H 0.9178 0.7839 0.6532
H2_6 H 0.9015 0.7827 0.6141
H3_6 H 0.8891 0.7544 0.6431
C6_6 C 0.81350(18) 0.85181(16) 0.67769(16)
C7_6 C 0.8061(3) 0.8129(2) 0.7328(3)
C8_6 C 0.85674(18) 0.83564(16) 0.63171(17)
C9_6 C 0.81989(16) 0.89458(14) 0.62526(16)
H4_6 H 0.7966 0.9025 0.6334
H5_6 H 0.8189 0.8898 0.5998
H6_6 H 0.8374 0.9131 0.6299
C10_6 C 0.8750 0.8134(2) 0.5634(2)
C11_6 C 0.85878(19) 0.76308(17) 0.7056(2)
H7_6 H 0.8540 0.7420 0.6913
H8_6 H 0.8450 0.7620 0.7275
H9_6 H 0.8841 0.7641 0.7113
C12_6 C 0.8424(2) 0.7966(2) 0.5522(2)
C13_6 C 0.7848(2) 0.87745(16) 0.69311(18)
H10_6 H 0.7777 0.8693 0.7167
H11_6 H 0.7641 0.8776 0.6775
H12_6 H 0.7946 0.9014 0.6948
C14_6 C 0.8447(3) 0.7691(3) 0.5252(3)
C15_6 C 0.80739(19) 0.80829(19) 0.5672(2)
H13_6 H 0.7972 0.7891 0.5813
H14_6 H 0.7913 0.8142 0.5477
H15_6 H 0.8109 0.8291 0.5822
B1_6 B 0.8750 0.8434(2) 0.5934(2)
C16_6 C 0.8750 0.7580(5) 0.5080(5)
H16_6 H 0.8750 0.7402 0.4902
C17_6 C 0.8056(3) 0.7539(3) 0.5161(3)
H17_6 H 0.7913 0.7727 0.5054
H18_6 H 0.7942 0.7457 0.5379
H19_6 H 0.8076 0.7341 0.4994
O4_6 O 0.97463(14) 0.98269(12) 0.54696(13)
C18_6 C 0.88424(17) 0.90115(17) 0.55475(15)
C19_6 C 0.91914(19) 0.89576(18) 0.60948(15)
C20_6 C 0.90210(18) 0.93375(19) 0.54763(16)
C21_6 C 0.92819(17) 0.94579(18) 0.57037(16)
C22_6 C 0.85354(17) 0.88922(19) 0.52899(16)
H20_6 H 0.8322 0.9032 0.5339
H21_6 H 0.8485 0.8641 0.5327
H22_6 H 0.8609 0.8931 0.5044
C23_6 C 0.93650(18) 0.92769(16) 0.60181(16)
C24_6 C 0.9439(3) 0.9828(3) 0.5629(2)
C25_6 C 0.89326(18) 0.88171(17) 0.58564(16)
C26_6 C 0.93011(16) 0.87526(16) 0.64458(14)
H23_6 H 0.9534 0.8834 0.6525
H24_6 H 0.9311 0.8498 0.6398
H25_6 H 0.9126 0.8799 0.6631
C27_6 C 0.89122(19) 0.9556(2) 0.51308(17)
H26_6 H 0.8960 0.9413 0.4920
H27_6 H 0.9050 0.9775 0.5120
H28_6 H 0.8659 0.9613 0.5141
C28_6 C 0.9076(2) 0.8022(2) 0.5466(2)
C29_6 C 0.9652(2) 0.94311(18) 0.62745(16)
H29_6 H 0.9723 0.9667 0.6193
H30_6 H 0.9859 0.9275 0.6276
H31_6 H 0.9554 0.9448 0.6514
C30_6 C 0.9053(3) 0.7752(3) 0.5191(3)
C31_6 C 0.94261(19) 0.8172(2) 0.55829(19)
H32_6 H 0.9528 0.8313 0.5391
H33_6 H 0.9587 0.7977 0.5642
H34_6 H 0.9391 0.8322 0.5791
C32_6 C 0.9444(3) 0.7661(3) 0.5039(3)
H35_6 H 0.9587 0.7554 0.5227
H36_6 H 0.9558 0.7879 0.4957
H37_6 H 0.9424 0.7494 0.4841
O6_5 O 0.65894(17) 0.65894(17) 0.65894(17)
O7_5 O 0.70304(13) 0.76731(12) 0.72463(14)
O8_5 O 0.67829(19) 0.73956(17) 0.6777(2)
C33_5 C 0.69525(15) 0.84885(17) 0.63424(17)
C34_5 C 0.64052(15) 0.85424(18) 0.66914(19)
C35_5 C 0.70237(16) 0.81625(19) 0.65210(18)
C36_5 C 0.67963(16) 0.80421(18) 0.67819(17)
C37_5 C 0.72101(16) 0.86078(19) 0.60354(17)
H38_5 H 0.7161 0.8468 0.5822
H39_5 H 0.7173 0.8859 0.5985
H40_5 H 0.7456 0.8569 0.6109
C38_5 C 0.64819(16) 0.82231(16) 0.68650(18)
C39_5 C 0.6871(2) 0.7672(3) 0.6939(3)
C40_5 C 0.66436(16) 0.86829(17) 0.64326(18)
C41_5 C 0.60542(14) 0.87474(16) 0.68011(16)
H41_5 H 0.5975 0.8666 0.7034
H42_5 H 0.6102 0.9002 0.6811
H43_5 H 0.5869 0.8701 0.6626
C42_5 C 0.6866(2) 0.9366(2) 0.6250
C43_5 C 0.73692(17) 0.7944(2) 0.64122(19)
H44_5 H 0.7580 0.8087 0.6460
H45_5 H 0.7380 0.7725 0.6550
H46_5 H 0.7359 0.7887 0.6159
C44_5 C 0.7034(2) 0.9478(2) 0.6576(2)
C45_5 C 0.62255(16) 0.80689(18) 0.7152(2)
H47_5 H 0.6307 0.7833 0.7223
H48_5 H 0.6224 0.8225 0.7359
H49_5 H 0.5986 0.8052 0.7054
C46_5 C 0.7309(3) 0.9748(3) 0.6553(3)
C47_5 C 0.69171(19) 0.9328(2) 0.69261(19)
H50_5 H 0.7109 0.9187 0.7028
H51_5 H 0.6858 0.9523 0.7087
H52_5 H 0.6709 0.9178 0.6891
B2_5 B 0.6566(2) 0.9066(2) 0.6250
C48_5 C 0.7420(5) 0.9920(5) 0.6250
C49_5 C 0.7461(3) 0.9839(3) 0.6944(3)
H54_5 H 0.7273 0.9946 0.7087
H55_5 H 0.7543 0.9621 0.7058
O9_5 O 0.51731(12) 0.95304(13) 0.52537(14)
O10_5 O 0.48956(17) 0.92829(19) 0.5723(2)
C50_5 C 0.59885(17) 0.94525(15) 0.61576(17)
C51_5 C 0.60424(18) 0.89052(15) 0.58086(19)
C52_5 C 0.56625(19) 0.95237(16) 0.59790(18)
C53_5 C 0.55421(18) 0.92963(16) 0.57181(17)
C54_5 C 0.61078(19) 0.97101(16) 0.64646(17)
H57_5 H 0.5968 0.9661 0.6678
H58_5 H 0.6359 0.9673 0.6515
H59_5 H 0.6069 0.9956 0.6391
C55_5 C 0.57231(16) 0.89819(16) 0.56350(18)
C56_5 C 0.5172(3) 0.9371(2) 0.5561(3)
C57_5 C 0.61829(17) 0.91436(16) 0.60674(18)
C58_5 C 0.62474(16) 0.85542(14) 0.56989(16)
H60_5 H 0.6166 0.8475 0.5466
H61_5 H 0.6502 0.8602 0.5689
H62_5 H 0.6201 0.8369 0.5874
C59_5 C 0.5444(2) 0.98692(17) 0.60878(19)
H64_5 H 0.5225 0.9880 0.5950
H65_5 H 0.5387 0.9859 0.6341
C60_5 C 0.6978(2) 0.9534(2) 0.5924(2)
C61_5 C 0.55689(18) 0.87255(16) 0.5348(2)
H66_5 H 0.5333 0.8807 0.5277
H67_5 H 0.5725 0.8724 0.5141
H68_5 H 0.5552 0.8486 0.5446
C62_5 C 0.7248(3) 0.9809(3) 0.5947(3)
C63_5 C 0.6828(2) 0.94171(19) 0.55739(19)
H69_5 H 0.6687 0.9609 0.5472
H70_5 H 0.7023 0.9358 0.5413
H71_5 H 0.6678 0.9209 0.5609
C64_5 C 0.7339(3) 0.9961(3) 0.5556(3)
H72_5 H 0.7446 0.9773 0.5413
O11_5 O 0.76731(12) 0.72463(14) 0.70304(13)
O12_5 O 0.73956(17) 0.6777(2) 0.67829(19)
C65_6 C 0.84885(17) 0.63424(17) 0.69525(15)
C66_6 C 0.85424(18) 0.66914(19) 0.64052(15)
C67_6 C 0.81625(19) 0.65210(18) 0.70237(16)
C68_6 C 0.80421(18) 0.67819(17) 0.67963(16)
C69_6 C 0.86078(19) 0.60354(17) 0.72101(16)
H75_6 H 0.8468 0.5822 0.7161
H76_6 H 0.8859 0.5985 0.7173
H77_6 H 0.8569 0.6109 0.7456
C70_6 C 0.82231(16) 0.68650(18) 0.64819(16)
C71_6 C 0.7672(3) 0.6939(3) 0.6871(2)
C72_6 C 0.86829(17) 0.64326(18) 0.66436(16)
C73_6 C 0.87474(16) 0.68011(16) 0.60542(14)
H78_6 H 0.8666 0.7034 0.5975
H79_6 H 0.9002 0.6811 0.6102
H80_6 H 0.8701 0.6626 0.5869
C74_6 C 0.9366(2) 0.6250 0.6866(2)
C75_6 C 0.7944(2) 0.64122(19) 0.73692(17)
H81_6 H 0.8087 0.6460 0.7580
H82_6 H 0.7725 0.6550 0.7380
H83_6 H 0.7887 0.6159 0.7359
C76_6 C 0.9478(2) 0.6576(2) 0.7034(2)
C77_6 C 0.80689(18) 0.7152(2) 0.62255(16)
H84_6 H 0.7833 0.7223 0.6307
H85_6 H 0.8225 0.7359 0.6224
H86_6 H 0.8052 0.7054 0.5986
C78_6 C 0.9748(3) 0.6553(3) 0.7309(3)
C79_6 C 0.9328(2) 0.69261(19) 0.69171(19)
H87_6 H 0.9187 0.7028 0.7109
H88_6 H 0.9523 0.7087 0.6858
H89_6 H 0.9178 0.6891 0.6709
B3_6 B 0.9066(2) 0.6250 0.6566(2)
C80_6 C 0.9920(5) 0.6250 0.7420(5)
C81_6 C 0.9839(3) 0.6944(3) 0.7461(3)
H91_6 H 0.9946 0.7087 0.7273
H92_6 H 0.9621 0.7058 0.7543
O13_6 O 0.95304(13) 0.52537(14) 0.51731(12)
O14_6 O 0.92829(19) 0.5723(2) 0.48956(17)
C82_6 C 0.94525(15) 0.61576(17) 0.59885(17)
C83_6 C 0.89052(15) 0.58086(19) 0.60424(18)
C84_6 C 0.95237(16) 0.59790(18) 0.56625(19)
C85_6 C 0.92963(16) 0.57181(17) 0.55421(18)
C86_6 C 0.97101(16) 0.64646(17) 0.61078(19)
H94_6 H 0.9661 0.6678 0.5968
H95_6 H 0.9673 0.6515 0.6359
H96_6 H 0.9956 0.6391 0.6069
C87_6 C 0.89819(16) 0.56350(18) 0.57231(16)
C88_6 C 0.9371(2) 0.5561(3) 0.5172(3)
C89_6 C 0.91436(16) 0.60674(18) 0.61829(17)
C90_6 C 0.85542(14) 0.56989(16) 0.62474(16)
H97_6 H 0.8475 0.5466 0.6166
H98_6 H 0.8602 0.5689 0.6502
H99_6 H 0.8369 0.5874 0.6201
C91_6 C 0.98692(17) 0.60878(19) 0.5444(2)
H101_6 H 0.9880 0.5950 0.5225
H102_6 H 0.9859 0.6341 0.5387
C92_6 C 0.9534(2) 0.5924(2) 0.6978(2)
C93_6 C 0.87255(16) 0.5348(2) 0.55689(18)
H103_6 H 0.8807 0.5277 0.5333
H104_6 H 0.8724 0.5141 0.5725
H105_6 H 0.8486 0.5446 0.5552
C94_6 C 0.9809(3) 0.5947(3) 0.7248(3)
C95_6 C 0.94171(19) 0.55739(19) 0.6828(2)
H106_6 H 0.9609 0.5472 0.6687
H107_6 H 0.9358 0.5413 0.7023
H108_6 H 0.9209 0.5609 0.6678
C96_6 C 0.9961(3) 0.5556(3) 0.7339(3)
H109_6 H 0.9773 0.5413 0.7446
Zn4_9 Zn 1.0000 0.5000 0.5000
Zn5_8 Zn 0.5000 1.0000 0.5000
Zn6_15 Zn 1.0000 1.0000 0.5000
Zn8_5 Zn 0.44242(4) 0.94242(4) 0.55758(4)
Zn9_5 Zn 0.94242(4) 0.55758(4) 0.44242(4)
O15_5 O 0.79696(13) 0.73269(12) 0.77537(14)
O16_5 O 0.73269(12) 0.77537(14) 0.79696(13)
O18_5 O 0.82171(19) 0.76044(17) 0.8223(2)
O19_5 O 0.76044(17) 0.8223(2) 0.82171(19)
O10_6 O 0.01044(17) 0.07171(19) 0.0723(2)
Zn8_6 Zn 0.05758(4) 0.05758(4) 0.05758(4)
O1_6 O 0.72463(14) 0.20304(13) 0.23269(12)
O2_6 O 0.6777(2) 0.17829(19) 0.26044(17)
O3_6 O 0.65894(17) 0.15894(17) 0.34106(17)
C1_7 C 0.63424(17) 0.19525(15) 0.15115(17)
C2_7 C 0.66914(19) 0.14052(15) 0.14576(18)
C3_7 C 0.65210(18) 0.20237(16) 0.18375(19)
C4_7 C 0.67819(17) 0.17963(16) 0.19579(18)
C5_7 C 0.60354(17) 0.22101(16) 0.13922(19)
H1_7 H 0.5822 0.2161 0.1532
H2_7 H 0.5985 0.2173 0.1141
H3_7 H 0.6109 0.2456 0.1431
C6_7 C 0.68650(18) 0.14819(16) 0.17769(16)
C7_7 C 0.6939(3) 0.1871(2) 0.2328(3)
C8_7 C 0.64326(18) 0.16436(16) 0.13171(17)
C9_7 C 0.68011(16) 0.10542(14) 0.12526(16)
H4_7 H 0.7034 0.0975 0.1334
H5_7 H 0.6811 0.1102 0.0998
H6_7 H 0.6626 0.0869 0.1299
C10_7 C 0.6250 0.1866(2) 0.0634(2)
C11_7 C 0.64122(19) 0.23692(17) 0.2056(2)
H7_7 H 0.6460 0.2580 0.1913
H8_7 H 0.6550 0.2380 0.2275
H9_7 H 0.6159 0.2359 0.2113
C12_7 C 0.6576(2) 0.2034(2) 0.0522(2)
C13_7 C 0.7152(2) 0.12255(16) 0.19311(18)
H10_7 H 0.7223 0.1307 0.2167
H11_7 H 0.7359 0.1224 0.1775
H12_7 H 0.7054 0.0986 0.1948
C14_7 C 0.6553(3) 0.2309(3) 0.0252(3)
C15_7 C 0.69261(19) 0.19171(19) 0.0672(2)
H13_7 H 0.7028 0.2109 0.0813
H14_7 H 0.7087 0.1858 0.0477
H15_7 H 0.6891 0.1709 0.0822
B1_7 B 0.6250 0.1566(2) 0.0934(2)
C16_7 C 0.6250 0.2420(5) 0.0080(5)
C17_7 C 0.6944(3) 0.2461(3) 0.0161(3)
H17_7 H 0.7087 0.2273 0.0054
H18_7 H 0.7058 0.2543 0.0379
O4_7 O 0.52537(14) 0.01731(12) 0.04696(13)
C18_7 C 0.61576(17) 0.09885(17) 0.05475(15)
C19_7 C 0.58086(19) 0.10424(18) 0.10948(15)
C20_7 C 0.59790(18) 0.06625(19) 0.04763(16)
C21_7 C 0.57181(17) 0.05421(18) 0.07037(16)
C22_7 C 0.64646(17) 0.11078(19) 0.02899(16)
H20_7 H 0.6678 0.0968 0.0339
H21_7 H 0.6515 0.1359 0.0327
H22_7 H 0.6391 0.1069 0.0044
C23_7 C 0.56350(18) 0.07231(16) 0.10181(16)
C24_7 C 0.5561(3) 0.0172(3) 0.0629(2)
C25_7 C 0.60674(18) 0.11829(17) 0.08564(16)
C26_7 C 0.56989(16) 0.12474(16) 0.14458(14)
H23_7 H 0.5466 0.1166 0.1525
H24_7 H 0.5689 0.1502 0.1398
H25_7 H 0.5874 0.1201 0.1631
C27_7 C 0.60878(19) 0.0444(2) 0.01308(17)
H27_7 H 0.5950 0.0225 0.0120
H28_7 H 0.6341 0.0387 0.0141
C28_7 C 0.5924(2) 0.1978(2) 0.0466(2)
C29_7 C 0.5348(2) 0.05689(18) 0.12745(16)
H29_7 H 0.5277 0.0333 0.1193
H30_7 H 0.5141 0.0725 0.1276
H31_7 H 0.5446 0.0552 0.1514
C30_7 C 0.5947(3) 0.2248(3) 0.0191(3)
C31_7 C 0.55739(19) 0.1828(2) 0.05829(19)
H32_7 H 0.5472 0.1687 0.0391
H33_7 H 0.5413 0.2023 0.0642
H34_7 H 0.5609 0.1678 0.0791
C32_7 C 0.5556(3) 0.2339(3) 0.0039(3)
H35_7 H 0.5413 0.2446 0.0227
Zn3_3 Zn 0.80758(4) 0.30758(4) 0.19242(4)
O6_6 O 0.84106(17) 0.34106(17) 0.15894(17)
O7_6 O 0.79696(13) 0.23269(12) 0.22463(14)
O8_6 O 0.82171(19) 0.26044(17) 0.1777(2)
C33_6 C 0.80475(15) 0.15115(17) 0.13424(17)
C34_6 C 0.85948(15) 0.14576(18) 0.16914(19)
C35_6 C 0.79763(16) 0.18375(19) 0.15210(18)
C36_6 C 0.82037(16) 0.19579(18) 0.17819(17)
C37_6 C 0.77899(16) 0.13922(19) 0.10354(17)
H38_6 H 0.7839 0.1532 0.0822
H39_6 H 0.7827 0.1141 0.0985
H40_6 H 0.7544 0.1431 0.1109
C38_6 C 0.85181(16) 0.17769(16) 0.18650(18)
C39_6 C 0.8129(2) 0.2328(3) 0.1939(3)
C40_6 C 0.83564(16) 0.13171(17) 0.14326(18)
C41_6 C 0.89458(14) 0.12526(16) 0.18011(16)
H41_6 H 0.9025 0.1334 0.2034
H42_6 H 0.8898 0.0998 0.1811
H43_6 H 0.9131 0.1299 0.1626
C42_6 C 0.8134(2) 0.0634(2) 0.1250
C43_6 C 0.76308(17) 0.2056(2) 0.14122(19)
H44_6 H 0.7420 0.1913 0.1460
H45_6 H 0.7620 0.2275 0.1550
H46_6 H 0.7641 0.2113 0.1159
C44_6 C 0.7966(2) 0.0522(2) 0.1576(2)
C45_6 C 0.87745(16) 0.19311(18) 0.2152(2)
H47_6 H 0.8693 0.2167 0.2223
H48_6 H 0.8776 0.1775 0.2359
H49_6 H 0.9014 0.1948 0.2054
C46_6 C 0.7691(3) 0.0252(3) 0.1553(3)
C47_6 C 0.80829(19) 0.0672(2) 0.19261(19)
H50_6 H 0.7891 0.0813 0.2028
H51_6 H 0.8142 0.0477 0.2087
H52_6 H 0.8291 0.0822 0.1891
B2_6 B 0.8434(2) 0.0934(2) 0.1250
C48_6 C 0.7580(5) 0.0080(5) 0.1250
C49_6 C 0.7539(3) 0.0161(3) 0.1944(3)
H54_6 H 0.7727 0.0054 0.2087
H55_6 H 0.7457 0.0379 0.2058
O9_6 O 0.98269(12) 0.04696(13) 0.02537(14)
C50_6 C 0.90115(17) 0.05475(15) 0.11576(17)
C51_6 C 0.89576(18) 0.10948(15) 0.08086(19)
C52_6 C 0.93375(19) 0.04763(16) 0.09790(18)
C53_6 C 0.94579(18) 0.07037(16) 0.07181(17)
C54_6 C 0.88922(19) 0.02899(16) 0.14646(17)
H57_6 H 0.9032 0.0339 0.1678
H58_6 H 0.8641 0.0327 0.1515
H59_6 H 0.8931 0.0044 0.1391
C55_6 C 0.92769(16) 0.10181(16) 0.06350(18)
C56_6 C 0.9828(3) 0.0629(2) 0.0561(3)
C57_6 C 0.88171(17) 0.08564(16) 0.10674(18)
C58_6 C 0.87526(16) 0.14458(14) 0.06989(16)
H60_6 H 0.8834 0.1525 0.0466
H61_6 H 0.8498 0.1398 0.0689
H62_6 H 0.8799 0.1631 0.0874
C59_6 C 0.9556(2) 0.01308(17) 0.10878(19)
H64_6 H 0.9775 0.0120 0.0950
H65_6 H 0.9613 0.0141 0.1341
C60_6 C 0.8022(2) 0.0466(2) 0.0924(2)
C61_6 C 0.94311(18) 0.12745(16) 0.0348(2)
H66_6 H 0.9667 0.1193 0.0277
H67_6 H 0.9275 0.1276 0.0141
H68_6 H 0.9448 0.1514 0.0446
C62_6 C 0.7752(3) 0.0191(3) 0.0947(3)
C63_6 C 0.8172(2) 0.05829(19) 0.05739(19)
H69_6 H 0.8313 0.0391 0.0472
H70_6 H 0.7977 0.0642 0.0413
H71_6 H 0.8322 0.0791 0.0609
C64_6 C 0.7661(3) 0.0039(3) 0.0556(3)
H72_6 H 0.7554 0.0227 0.0413
O11_6 O 0.73269(12) 0.27537(14) 0.20304(13)
O12_6 O 0.76044(17) 0.3223(2) 0.17829(19)
C65_7 C 0.65115(17) 0.36576(17) 0.19525(15)
C66_7 C 0.64576(18) 0.33086(19) 0.14052(15)
C67_7 C 0.68375(19) 0.34790(18) 0.20237(16)
C68_7 C 0.69579(18) 0.32181(17) 0.17963(16)
C69_7 C 0.63922(19) 0.39646(17) 0.22101(16)
H75_7 H 0.6532 0.4178 0.2161
H76_7 H 0.6141 0.4015 0.2173
H77_7 H 0.6431 0.3891 0.2456
C70_7 C 0.67769(16) 0.31350(18) 0.14819(16)
C71_7 C 0.7328(3) 0.3061(3) 0.1871(2)
C72_7 C 0.63171(17) 0.35674(18) 0.16436(16)
C73_7 C 0.62526(16) 0.31989(16) 0.10542(14)
H78_7 H 0.6334 0.2966 0.0975
H79_7 H 0.5998 0.3189 0.1102
H80_7 H 0.6299 0.3374 0.0869
C74_7 C 0.5634(2) 0.3750 0.1866(2)
C75_7 C 0.7056(2) 0.35878(19) 0.23692(17)
H81_7 H 0.6913 0.3540 0.2580
H82_7 H 0.7275 0.3450 0.2380
H83_7 H 0.7113 0.3841 0.2359
C76_7 C 0.5522(2) 0.3424(2) 0.2034(2)
C77_7 C 0.69311(18) 0.2848(2) 0.12255(16)
H84_7 H 0.7167 0.2777 0.1307
H85_7 H 0.6775 0.2641 0.1224
H86_7 H 0.6948 0.2946 0.0986
C78_7 C 0.5252(3) 0.3447(3) 0.2309(3)
C79_7 C 0.5672(2) 0.30739(19) 0.19171(19)
H87_7 H 0.5813 0.2972 0.2109
H88_7 H 0.5477 0.2913 0.1858
H89_7 H 0.5822 0.3109 0.1709
B3_7 B 0.5934(2) 0.3750 0.1566(2)
C80_7 C 0.5080(5) 0.3750 0.2420(5)
H90_7 H 0.4902 0.3750 0.2598
C81_7 C 0.5161(3) 0.3056(3) 0.2461(3)
H91_7 H 0.5054 0.2913 0.2273
H92_7 H 0.5379 0.2942 0.2543
H93_7 H 0.4994 0.3076 0.2659
C82_7 C 0.55475(15) 0.38424(17) 0.09885(17)
C83_7 C 0.60948(15) 0.41914(19) 0.10424(18)
C84_7 C 0.54763(16) 0.40210(18) 0.06625(19)
C85_7 C 0.57037(16) 0.42819(17) 0.05421(18)
C86_7 C 0.52899(16) 0.35354(17) 0.11078(19)
H94_7 H 0.5339 0.3322 0.0968
H95_7 H 0.5327 0.3485 0.1359
H96_7 H 0.5044 0.3609 0.1069
C87_7 C 0.60181(16) 0.43650(18) 0.07231(16)
C88_7 C 0.5629(2) 0.4439(3) 0.0172(3)
C89_7 C 0.58564(16) 0.39326(18) 0.11829(17)
C90_7 C 0.64458(14) 0.43011(16) 0.12474(16)
H97_7 H 0.6525 0.4534 0.1166
H98_7 H 0.6398 0.4311 0.1502
H99_7 H 0.6631 0.4126 0.1201
C91_7 C 0.51308(17) 0.39122(19) 0.0444(2)
H100_7 H 0.4920 0.3960 0.0587
H101_7 H 0.5120 0.4050 0.0225
H102_7 H 0.5141 0.3659 0.0387
C92_7 C 0.5466(2) 0.4076(2) 0.1978(2)
C93_7 C 0.62745(16) 0.4652(2) 0.05689(18)
H103_7 H 0.6193 0.4723 0.0333
H104_7 H 0.6276 0.4859 0.0725
H105_7 H 0.6514 0.4554 0.0552
C94_7 C 0.5191(3) 0.4053(3) 0.2248(3)
C95_7 C 0.55829(19) 0.44261(19) 0.1828(2)
H106_7 H 0.5391 0.4528 0.1687
H107_7 H 0.5642 0.4587 0.2023
H108_7 H 0.5791 0.4391 0.1678
C96_7 C 0.5039(3) 0.4444(3) 0.2339(3)
H109_7 H 0.5227 0.4587 0.2446
H110_7 H 0.4957 0.4558 0.2121
H111_7 H 0.4841 0.4424 0.2506
O16_6 O 0.76731(12) 0.22463(14) 0.29696(13)
O17_3 O 0.77537(14) 0.29696(13) 0.26731(12)
O19_6 O 0.73956(17) 0.1777(2) 0.32171(19)
O20_3 O 0.8223(2) 0.32171(19) 0.23956(17)
H16_7 H 0.6250 0.2598 0.9902
H19_7 H 0.6924 0.2659 0.9994
H26_7 H 0.6040 0.0587 0.9920
H36_7 H 0.5442 0.2121 0.9957
H37_7 H 0.5576 0.2506 0.9841
O5_7 O 0.5723(2) 0.98956(17) 0.07171(19)
H53_6 H 0.7402 0.9902 0.1250
H56_6 H 0.7341 0.9994 0.1924
H63_6 H 0.9413 0.9920 0.1040
H73_6 H 0.7879 0.9957 0.0442
H74_6 H 0.7494 0.9841 0.0576
Zn7_7 Zn 0.55758(4) 0.94242(4) 0.05758(4)
H16_8 H 0.0098 0.8750 0.2598
H19_8 H 0.0006 0.8076 0.2659
H26_8 H 0.0080 0.8960 0.0587
H36_8 H 0.0043 0.9558 0.2121
H37_8 H 0.0159 0.9424 0.2506
O14_7 O 0.01044(17) 0.92829(19) 0.4277(2)
Zn9_6 Zn 0.05758(4) 0.94242(4) 0.44242(4)
H90_8 H 0.7402 0.0098 0.3750
H93_8 H 0.7341 0.0006 0.3076
H100_8 H 0.9413 0.0080 0.3960
H110_8 H 0.7879 0.0043 0.4558
H111_8 H 0.7494 0.0159 0.4424
Zn2_6 Zn 0.69242(4) 0.80758(4) 0.19242(4)
O1_7 O 0.76731(12) 0.77537(14) 0.20304(13)
O2_7 O 0.73956(17) 0.8223(2) 0.17829(19)
O3_7 O 0.65894(17) 0.84106(17) 0.15894(17)
C1_8 C 0.84885(17) 0.86576(17) 0.19525(15)
C2_8 C 0.85424(18) 0.83086(19) 0.14052(15)
C3_8 C 0.81625(19) 0.84790(18) 0.20237(16)
C4_8 C 0.80421(18) 0.82181(17) 0.17963(16)
C5_8 C 0.86078(19) 0.89646(17) 0.22101(16)
H1_8 H 0.8468 0.9178 0.2161
H2_8 H 0.8859 0.9015 0.2173
H3_8 H 0.8569 0.8891 0.2456
C6_8 C 0.82231(16) 0.81350(18) 0.14819(16)
C7_8 C 0.7672(3) 0.8061(3) 0.1871(2)
C8_8 C 0.86829(17) 0.85674(18) 0.16436(16)
C9_8 C 0.87474(16) 0.81989(16) 0.10542(14)
H4_8 H 0.8666 0.7966 0.0975
H5_8 H 0.9002 0.8189 0.1102
H6_8 H 0.8701 0.8374 0.0869
C10_8 C 0.9366(2) 0.8750 0.1866(2)
C11_8 C 0.7944(2) 0.85878(19) 0.23692(17)
H7_8 H 0.8087 0.8540 0.2580
H8_8 H 0.7725 0.8450 0.2380
H9_8 H 0.7887 0.8841 0.2359
C12_8 C 0.9478(2) 0.8424(2) 0.2034(2)
C13_8 C 0.80689(18) 0.7848(2) 0.12255(16)
H10_8 H 0.7833 0.7777 0.1307
H11_8 H 0.8225 0.7641 0.1224
H12_8 H 0.8052 0.7946 0.0986
C14_8 C 0.9748(3) 0.8447(3) 0.2309(3)
C15_8 C 0.9328(2) 0.80739(19) 0.19171(19)
H13_8 H 0.9187 0.7972 0.2109
H14_8 H 0.9523 0.7913 0.1858
H15_8 H 0.9178 0.8109 0.1709
B1_8 B 0.9066(2) 0.8750 0.1566(2)
C16_8 C 0.9920(5) 0.8750 0.2420(5)
C17_8 C 0.9839(3) 0.8056(3) 0.2461(3)
H17_8 H 0.9946 0.7913 0.2273
H18_8 H 0.9621 0.7942 0.2543
O4_8 O 0.95304(13) 0.97463(14) 0.01731(12)
C18_8 C 0.94525(15) 0.88424(17) 0.09885(17)
C19_8 C 0.89052(15) 0.91914(19) 0.10424(18)
C20_8 C 0.95237(16) 0.90210(18) 0.06625(19)
C21_8 C 0.92963(16) 0.92819(17) 0.05421(18)
C22_8 C 0.97101(16) 0.85354(17) 0.11078(19)
H20_8 H 0.9661 0.8322 0.0968
H21_8 H 0.9673 0.8485 0.1359
H22_8 H 0.9956 0.8609 0.1069
C23_8 C 0.89819(16) 0.93650(18) 0.07231(16)
C24_8 C 0.9371(2) 0.9439(3) 0.0172(3)
C25_8 C 0.91436(16) 0.89326(18) 0.11829(17)
C26_8 C 0.85542(14) 0.93011(16) 0.12474(16)
H23_8 H 0.8475 0.9534 0.1166
H24_8 H 0.8602 0.9311 0.1502
H25_8 H 0.8369 0.9126 0.1201
C27_8 C 0.98692(17) 0.89122(19) 0.0444(2)
H27_8 H 0.9880 0.9050 0.0225
H28_8 H 0.9859 0.8659 0.0387
C28_8 C 0.9534(2) 0.9076(2) 0.1978(2)
C29_8 C 0.87255(16) 0.9652(2) 0.05689(18)
H29_8 H 0.8807 0.9723 0.0333
H30_8 H 0.8724 0.9859 0.0725
H31_8 H 0.8486 0.9554 0.0552
C30_8 C 0.9809(3) 0.9053(3) 0.2248(3)
C31_8 C 0.94171(19) 0.94261(19) 0.1828(2)
H32_8 H 0.9609 0.9528 0.1687
H33_8 H 0.9358 0.9587 0.2023
H34_8 H 0.9209 0.9391 0.1678
C32_8 C 0.9961(3) 0.9444(3) 0.2339(3)
H35_8 H 0.9773 0.9587 0.2446
O6_7 O 0.84106(17) 0.65894(17) 0.34106(17)
O11_7 O 0.79696(13) 0.76731(12) 0.27537(14)
O12_7 O 0.82171(19) 0.73956(17) 0.3223(2)
C65_8 C 0.80475(15) 0.84885(17) 0.36576(17)
C66_8 C 0.85948(15) 0.85424(18) 0.33086(19)
C67_8 C 0.79763(16) 0.81625(19) 0.34790(18)
C68_8 C 0.82037(16) 0.80421(18) 0.32181(17)
C69_8 C 0.77899(16) 0.86078(19) 0.39646(17)
H75_8 H 0.7839 0.8468 0.4178
H76_8 H 0.7827 0.8859 0.4015
H77_8 H 0.7544 0.8569 0.3891
C70_8 C 0.85181(16) 0.82231(16) 0.31350(18)
C71_8 C 0.8129(2) 0.7672(3) 0.3061(3)
C72_8 C 0.83564(16) 0.86829(17) 0.35674(18)
C73_8 C 0.89458(14) 0.87474(16) 0.31989(16)
H78_8 H 0.9025 0.8666 0.2966
H79_8 H 0.8898 0.9002 0.3189
H80_8 H 0.9131 0.8701 0.3374
C74_8 C 0.8134(2) 0.9366(2) 0.3750
C75_8 C 0.76308(17) 0.7944(2) 0.35878(19)
H81_8 H 0.7420 0.8087 0.3540
H82_8 H 0.7620 0.7725 0.3450
H83_8 H 0.7641 0.7887 0.3841
C76_8 C 0.7966(2) 0.9478(2) 0.3424(2)
C77_8 C 0.87745(16) 0.80689(18) 0.2848(2)
H84_8 H 0.8693 0.7833 0.2777
H85_8 H 0.8776 0.8225 0.2641
H86_8 H 0.9014 0.8052 0.2946
C78_8 C 0.7691(3) 0.9748(3) 0.3447(3)
C79_8 C 0.80829(19) 0.9328(2) 0.30739(19)
H87_8 H 0.7891 0.9187 0.2972
H88_8 H 0.8142 0.9523 0.2913
H89_8 H 0.8291 0.9178 0.3109
B3_8 B 0.8434(2) 0.9066(2) 0.3750
C80_8 C 0.7580(5) 0.9920(5) 0.3750
C81_8 C 0.7539(3) 0.9839(3) 0.3056(3)
H91_8 H 0.7727 0.9946 0.2913
H92_8 H 0.7457 0.9621 0.2942
O13_7 O 0.98269(12) 0.95304(13) 0.47463(14)
C82_8 C 0.90115(17) 0.94525(15) 0.38424(17)
C83_8 C 0.89576(18) 0.89052(15) 0.41914(19)
C84_8 C 0.93375(19) 0.95237(16) 0.40210(18)
C85_8 C 0.94579(18) 0.92963(16) 0.42819(17)
C86_8 C 0.88922(19) 0.97101(16) 0.35354(17)
H94_8 H 0.9032 0.9661 0.3322
H95_8 H 0.8641 0.9673 0.3485
H96_8 H 0.8931 0.9956 0.3609
C87_8 C 0.92769(16) 0.89819(16) 0.43650(18)
C88_8 C 0.9828(3) 0.9371(2) 0.4439(3)
C89_8 C 0.88171(17) 0.91436(16) 0.39326(18)
C90_8 C 0.87526(16) 0.85542(14) 0.43011(16)
H97_8 H 0.8834 0.8475 0.4534
H98_8 H 0.8498 0.8602 0.4311
H99_8 H 0.8799 0.8369 0.4126
C91_8 C 0.9556(2) 0.98692(17) 0.39122(19)
H101_8 H 0.9775 0.9880 0.4050
H102_8 H 0.9613 0.9859 0.3659
C92_8 C 0.8022(2) 0.9534(2) 0.4076(2)
C93_8 C 0.94311(18) 0.87255(16) 0.4652(2)
H103_8 H 0.9667 0.8807 0.4723
H104_8 H 0.9275 0.8724 0.4859
H105_8 H 0.9448 0.8486 0.4554
C94_8 C 0.7752(3) 0.9809(3) 0.4053(3)
C95_8 C 0.8172(2) 0.94171(19) 0.44261(19)
H106_8 H 0.8313 0.9609 0.4528
H107_8 H 0.7977 0.9358 0.4587
H108_8 H 0.8322 0.9209 0.4391
C96_8 C 0.7661(3) 0.9961(3) 0.4444(3)
H109_8 H 0.7554 0.9773 0.4587
O15_6 O 0.72463(14) 0.79696(13) 0.26731(12)
O16_7 O 0.70304(13) 0.73269(12) 0.22463(14)
O18_6 O 0.6777(2) 0.82171(19) 0.23956(17)
O19_7 O 0.67829(19) 0.76044(17) 0.1777(2)
O5_8 O 0.92829(19) 0.9277(2) 0.98956(17)
O5_9 O 0.01044(17) 0.42829(19) 0.5723(2)
Zn7_8 Zn 0.05758(4) 0.44242(4) 0.55758(4)
C1_9 C 0.80475(15) 0.34885(17) 0.63424(17)
C2_9 C 0.85948(15) 0.35424(18) 0.66914(19)
C3_9 C 0.79763(16) 0.31625(19) 0.65210(18)
C4_9 C 0.82037(16) 0.30421(18) 0.67819(17)
C5_9 C 0.77899(16) 0.36078(19) 0.60354(17)
H1_9 H 0.7839 0.3468 0.5822
H2_9 H 0.7827 0.3859 0.5985
H3_9 H 0.7544 0.3569 0.6109
C6_9 C 0.85181(16) 0.32231(16) 0.68650(18)
C7_9 C 0.8129(2) 0.2672(3) 0.6939(3)
C8_9 C 0.83564(16) 0.36829(17) 0.64326(18)
C9_9 C 0.89458(14) 0.37474(16) 0.68011(16)
H4_9 H 0.9025 0.3666 0.7034
H5_9 H 0.8898 0.4002 0.6811
H6_9 H 0.9131 0.3701 0.6626
C10_9 C 0.8134(2) 0.4366(2) 0.6250
C11_9 C 0.76308(17) 0.2944(2) 0.64122(19)
H7_9 H 0.7420 0.3087 0.6460
H8_9 H 0.7620 0.2725 0.6550
H9_9 H 0.7641 0.2887 0.6159
C12_9 C 0.7966(2) 0.4478(2) 0.6576(2)
C13_9 C 0.87745(16) 0.30689(18) 0.7152(2)
H10_9 H 0.8693 0.2833 0.7223
H11_9 H 0.8776 0.3225 0.7359
H12_9 H 0.9014 0.3052 0.7054
C14_9 C 0.7691(3) 0.4748(3) 0.6553(3)
C15_9 C 0.80829(19) 0.4328(2) 0.69261(19)
H13_9 H 0.7891 0.4187 0.7028
H14_9 H 0.8142 0.4523 0.7087
H15_9 H 0.8291 0.4178 0.6891
B1_9 B 0.8434(2) 0.4066(2) 0.6250
C16_9 C 0.7580(5) 0.4920(5) 0.6250
H16_9 H 0.7402 0.5098 0.6250
C17_9 C 0.7539(3) 0.4839(3) 0.6944(3)
H17_9 H 0.7727 0.4946 0.7087
H18_9 H 0.7457 0.4621 0.7058
H19_9 H 0.7341 0.5006 0.6924
O4_9 O 0.98269(12) 0.45304(13) 0.52537(14)
C18_9 C 0.90115(17) 0.44525(15) 0.61576(17)
C19_9 C 0.89576(18) 0.39052(15) 0.58086(19)
C20_9 C 0.93375(19) 0.45237(16) 0.59790(18)
C21_9 C 0.94579(18) 0.42963(16) 0.57181(17)
C22_9 C 0.88922(19) 0.47101(16) 0.64646(17)
H20_9 H 0.9032 0.4661 0.6678
H21_9 H 0.8641 0.4673 0.6515
H22_9 H 0.8931 0.4956 0.6391
C23_9 C 0.92769(16) 0.39819(16) 0.56350(18)
C24_9 C 0.9828(3) 0.4371(2) 0.5561(3)
C25_9 C 0.88171(17) 0.41436(16) 0.60674(18)
C26_9 C 0.87526(16) 0.35542(14) 0.56989(16)
H23_9 H 0.8834 0.3475 0.5466
H24_9 H 0.8498 0.3602 0.5689
H25_9 H 0.8799 0.3369 0.5874
C27_9 C 0.9556(2) 0.48692(17) 0.60878(19)
H26_9 H 0.9413 0.5080 0.6040
H27_9 H 0.9775 0.4880 0.5950
H28_9 H 0.9613 0.4859 0.6341
C28_9 C 0.8022(2) 0.4534(2) 0.5924(2)
C29_9 C 0.94311(18) 0.37255(16) 0.5348(2)
H29_9 H 0.9667 0.3807 0.5277
H30_9 H 0.9275 0.3724 0.5141
H31_9 H 0.9448 0.3486 0.5446
C30_9 C 0.7752(3) 0.4809(3) 0.5947(3)
C31_9 C 0.8172(2) 0.44171(19) 0.55739(19)
H32_9 H 0.8313 0.4609 0.5472
H33_9 H 0.7977 0.4358 0.5413
H34_9 H 0.8322 0.4209 0.5609
C32_9 C 0.7661(3) 0.4961(3) 0.5556(3)
H35_9 H 0.7554 0.4773 0.5413
H36_9 H 0.7879 0.5043 0.5442
H37_9 H 0.7494 0.5159 0.5576
O3_8 O 0.09106(17) 0.40894(17) 0.59106(17)
O15_7 O 0.02537(14) 0.51731(12) 0.54696(13)
O16_8 O 0.04696(13) 0.47463(14) 0.48269(12)
O17_4 O 0.01731(12) 0.54696(13) 0.47463(14)
O18_7 O 0.0723(2) 0.48956(17) 0.57171(19)
O19_8 O 0.07171(19) 0.4277(2) 0.51044(17)
O6_8 O 0.90894(17) 0.59106(17) 0.40894(17)
O7_7 O 0.97463(14) 0.48269(12) 0.45304(13)
O8_7 O 0.9277(2) 0.51044(17) 0.42829(19)
C33_7 C 0.88424(17) 0.40115(17) 0.44525(15)
C34_7 C 0.91914(19) 0.39576(18) 0.39052(15)
C35_7 C 0.90210(18) 0.43375(19) 0.45237(16)
C36_7 C 0.92819(17) 0.44579(18) 0.42963(16)
C37_7 C 0.85354(17) 0.38922(19) 0.47101(16)
H38_7 H 0.8322 0.4032 0.4661
H39_7 H 0.8485 0.3641 0.4673
H40_7 H 0.8609 0.3931 0.4956
C38_7 C 0.93650(18) 0.42769(16) 0.39819(16)
C39_7 C 0.9439(3) 0.4828(3) 0.4371(2)
C40_7 C 0.89326(18) 0.38171(17) 0.41436(16)
C41_7 C 0.93011(16) 0.37526(16) 0.35542(14)
H41_7 H 0.9534 0.3834 0.3475
H42_7 H 0.9311 0.3498 0.3602
H43_7 H 0.9126 0.3799 0.3369
C42_7 C 0.8750 0.3134(2) 0.4366(2)
C43_7 C 0.89122(19) 0.4556(2) 0.48692(17)
H44_7 H 0.8960 0.4413 0.5080
H45_7 H 0.9050 0.4775 0.4880
H46_7 H 0.8659 0.4613 0.4859
C44_7 C 0.9076(2) 0.3022(2) 0.4534(2)
C45_7 C 0.9652(2) 0.44311(18) 0.37255(16)
H47_7 H 0.9723 0.4667 0.3807
H48_7 H 0.9859 0.4275 0.3724
H49_7 H 0.9554 0.4448 0.3486
C46_7 C 0.9053(3) 0.2752(3) 0.4809(3)
C47_7 C 0.94261(19) 0.3172(2) 0.44171(19)
H50_7 H 0.9528 0.3313 0.4609
H51_7 H 0.9587 0.2977 0.4358
H52_7 H 0.9391 0.3322 0.4209
B2_7 B 0.8750 0.3434(2) 0.4066(2)
C48_7 C 0.8750 0.2580(5) 0.4920(5)
H53_7 H 0.8750 0.2402 0.5098
C49_7 C 0.9444(3) 0.2661(3) 0.4961(3)
H54_7 H 0.9587 0.2554 0.4773
H55_7 H 0.9558 0.2879 0.5043
H56_7 H 0.9424 0.2494 0.5159
C50_7 C 0.86576(17) 0.30475(15) 0.34885(17)
C51_7 C 0.83086(19) 0.35948(15) 0.35424(18)
C52_7 C 0.84790(18) 0.29763(16) 0.31625(19)
C53_7 C 0.82181(17) 0.32037(16) 0.30421(18)
C54_7 C 0.89646(17) 0.27899(16) 0.36078(19)
H57_7 H 0.9178 0.2839 0.3468
H58_7 H 0.9015 0.2827 0.3859
H59_7 H 0.8891 0.2544 0.3569
C55_7 C 0.81350(18) 0.35181(16) 0.32231(16)
C56_7 C 0.8061(3) 0.3129(2) 0.2672(3)
C57_7 C 0.85674(18) 0.33564(16) 0.36829(17)
C58_7 C 0.81989(16) 0.39458(14) 0.37474(16)
H60_7 H 0.7966 0.4025 0.3666
H61_7 H 0.8189 0.3898 0.4002
H62_7 H 0.8374 0.4131 0.3701
C59_7 C 0.85878(19) 0.26308(17) 0.2944(2)
H63_7 H 0.8540 0.2420 0.3087
H64_7 H 0.8450 0.2620 0.2725
H65_7 H 0.8841 0.2641 0.2887
C60_7 C 0.8424(2) 0.2966(2) 0.4478(2)
C61_7 C 0.7848(2) 0.37745(16) 0.30689(18)
H66_7 H 0.7777 0.3693 0.2833
H67_7 H 0.7641 0.3776 0.3225
H68_7 H 0.7946 0.4014 0.3052
C62_7 C 0.8447(3) 0.2691(3) 0.4748(3)
C63_7 C 0.80739(19) 0.30829(19) 0.4328(2)
H69_7 H 0.7972 0.2891 0.4187
H70_7 H 0.7913 0.3142 0.4523
H71_7 H 0.8109 0.3291 0.4178
C64_7 C 0.8056(3) 0.2539(3) 0.4839(3)
H72_7 H 0.7913 0.2727 0.4946
H73_7 H 0.7942 0.2457 0.4621
H74_7 H 0.8076 0.2341 0.5006
O20_4 O 0.98956(17) 0.57171(19) 0.4277(2)
C1_10 C 0.59885(17) 0.55475(15) 0.11576(17)
C2_10 C 0.60424(18) 0.60948(15) 0.08086(19)
C3_10 C 0.56625(19) 0.54763(16) 0.09790(18)
C4_10 C 0.55421(18) 0.57037(16) 0.07181(17)
C5_10 C 0.61078(19) 0.52899(16) 0.14646(17)
H1_10 H 0.5968 0.5339 0.1678
H2_10 H 0.6359 0.5327 0.1515
H3_10 H 0.6069 0.5044 0.1391
C6_10 C 0.57231(16) 0.60181(16) 0.06350(18)
C7_10 C 0.5172(3) 0.5629(2) 0.0561(3)
C8_10 C 0.61829(17) 0.58564(16) 0.10674(18)
C9_10 C 0.62474(16) 0.64458(14) 0.06989(16)
H4_10 H 0.6166 0.6525 0.0466
H5_10 H 0.6502 0.6398 0.0689
H6_10 H 0.6201 0.6631 0.0874
C10_10 C 0.6866(2) 0.5634(2) 0.1250
C11_10 C 0.5444(2) 0.51308(17) 0.10878(19)
H7_10 H 0.5587 0.4920 0.1040
H8_10 H 0.5225 0.5120 0.0950
H9_10 H 0.5387 0.5141 0.1341
C12_10 C 0.6978(2) 0.5466(2) 0.0924(2)
C13_10 C 0.55689(18) 0.62745(16) 0.0348(2)
H10_10 H 0.5333 0.6193 0.0277
H11_10 H 0.5725 0.6276 0.0141
H12_10 H 0.5552 0.6514 0.0446
C14_10 C 0.7248(3) 0.5191(3) 0.0947(3)
C15_10 C 0.6828(2) 0.55829(19) 0.05739(19)
H13_10 H 0.6687 0.5391 0.0472
H14_10 H 0.7023 0.5642 0.0413
H15_10 H 0.6678 0.5791 0.0609
B1_10 B 0.6566(2) 0.5934(2) 0.1250
C16_10 C 0.7420(5) 0.5080(5) 0.1250
H16_10 H 0.7598 0.4902 0.1250
C17_10 C 0.7339(3) 0.5039(3) 0.0556(3)
H17_10 H 0.7446 0.5227 0.0413
H18_10 H 0.7121 0.4957 0.0442
H19_10 H 0.7506 0.4841 0.0576
C18_10 C 0.69525(15) 0.65115(17) 0.13424(17)
C19_10 C 0.64052(15) 0.64576(18) 0.16914(19)
C20_10 C 0.70237(16) 0.68375(19) 0.15210(18)
C21_10 C 0.67963(16) 0.69579(18) 0.17819(17)
C22_10 C 0.72101(16) 0.63922(19) 0.10354(17)
H20_10 H 0.7161 0.6532 0.0822
H21_10 H 0.7173 0.6141 0.0985
H22_10 H 0.7456 0.6431 0.1109
C23_10 C 0.64819(16) 0.67769(16) 0.18650(18)
C24_10 C 0.6871(2) 0.7328(3) 0.1939(3)
C25_10 C 0.66436(16) 0.63171(17) 0.14326(18)
C26_10 C 0.60542(14) 0.62526(16) 0.18011(16)
H23_10 H 0.5975 0.6334 0.2034
H24_10 H 0.6102 0.5998 0.1811
H25_10 H 0.5869 0.6299 0.1626
C27_10 C 0.73692(17) 0.7056(2) 0.14122(19)
H26_10 H 0.7580 0.6913 0.1460
H27_10 H 0.7380 0.7275 0.1550
H28_10 H 0.7359 0.7113 0.1159
C28_10 C 0.7034(2) 0.5522(2) 0.1576(2)
C29_10 C 0.62255(16) 0.69311(18) 0.2152(2)
H29_10 H 0.6307 0.7167 0.2223
H30_10 H 0.6224 0.6775 0.2359
H31_10 H 0.5986 0.6948 0.2054
C30_10 C 0.7309(3) 0.5252(3) 0.1553(3)
C31_10 C 0.69171(19) 0.5672(2) 0.19261(19)
H32_10 H 0.7109 0.5813 0.2028
H33_10 H 0.6858 0.5477 0.2087
H34_10 H 0.6709 0.5822 0.1891
C32_10 C 0.7461(3) 0.5161(3) 0.1944(3)
H35_10 H 0.7273 0.5054 0.2087
H36_10 H 0.7543 0.5379 0.2058
H37_10 H 0.7659 0.4994 0.1924
C1_11 C 0.38424(17) 0.59885(17) 0.44525(15)
C2_11 C 0.41914(19) 0.60424(18) 0.39052(15)
C3_11 C 0.40210(18) 0.56625(19) 0.45237(16)
C4_11 C 0.42819(17) 0.55421(18) 0.42963(16)
C5_11 C 0.35354(17) 0.61078(19) 0.47101(16)
H1_11 H 0.3322 0.5968 0.4661
H2_11 H 0.3485 0.6359 0.4673
H3_11 H 0.3609 0.6069 0.4956
C6_11 C 0.43650(18) 0.57231(16) 0.39819(16)
C7_11 C 0.4439(3) 0.5172(3) 0.4371(2)
C8_11 C 0.39326(18) 0.61829(17) 0.41436(16)
C9_11 C 0.43011(16) 0.62474(16) 0.35542(14)
H4_11 H 0.4534 0.6166 0.3475
H5_11 H 0.4311 0.6502 0.3602
H6_11 H 0.4126 0.6201 0.3369
C10_11 C 0.3750 0.6866(2) 0.4366(2)
C11_11 C 0.39122(19) 0.5444(2) 0.48692(17)
H7_11 H 0.3960 0.5587 0.5080
H8_11 H 0.4050 0.5225 0.4880
H9_11 H 0.3659 0.5387 0.4859
C12_11 C 0.4076(2) 0.6978(2) 0.4534(2)
C13_11 C 0.4652(2) 0.55689(18) 0.37255(16)
H10_11 H 0.4723 0.5333 0.3807
H11_11 H 0.4859 0.5725 0.3724
H12_11 H 0.4554 0.5552 0.3486
C14_11 C 0.4053(3) 0.7248(3) 0.4809(3)
C15_11 C 0.44261(19) 0.6828(2) 0.44171(19)
H13_11 H 0.4528 0.6687 0.4609
H14_11 H 0.4587 0.7023 0.4358
H15_11 H 0.4391 0.6678 0.4209
B1_11 B 0.3750 0.6566(2) 0.4066(2)
C16_11 C 0.3750 0.7420(5) 0.4920(5)
H16_11 H 0.3750 0.7598 0.5098
C17_11 C 0.4444(3) 0.7339(3) 0.4961(3)
H17_11 H 0.4587 0.7446 0.4773
H18_11 H 0.4558 0.7121 0.5043
H19_11 H 0.4424 0.7506 0.5159
O4_10 O 0.27537(14) 0.70304(13) 0.26731(12)
O5_10 O 0.3223(2) 0.67829(19) 0.23956(17)
C18_11 C 0.36576(17) 0.69525(15) 0.34885(17)
C19_11 C 0.33086(19) 0.64052(15) 0.35424(18)
C20_11 C 0.34790(18) 0.70237(16) 0.31625(19)
C21_11 C 0.32181(17) 0.67963(16) 0.30421(18)
C22_11 C 0.39646(17) 0.72101(16) 0.36078(19)
H20_11 H 0.4178 0.7161 0.3468
H21_11 H 0.4015 0.7173 0.3859
H22_11 H 0.3891 0.7456 0.3569
C23_11 C 0.31350(18) 0.64819(16) 0.32231(16)
C24_11 C 0.3061(3) 0.6871(2) 0.2672(3)
C25_11 C 0.35674(18) 0.66436(16) 0.36829(17)
C26_11 C 0.31989(16) 0.60542(14) 0.37474(16)
H23_11 H 0.2966 0.5975 0.3666
H24_11 H 0.3189 0.6102 0.4002
H25_11 H 0.3374 0.5869 0.3701
C27_11 C 0.35878(19) 0.73692(17) 0.2944(2)
H26_11 H 0.3540 0.7580 0.3087
H27_11 H 0.3450 0.7380 0.2725
H28_11 H 0.3841 0.7359 0.2887
C28_11 C 0.3424(2) 0.7034(2) 0.4478(2)
C29_11 C 0.2848(2) 0.62255(16) 0.30689(18)
H29_11 H 0.2777 0.6307 0.2833
H30_11 H 0.2641 0.6224 0.3225
H31_11 H 0.2946 0.5986 0.3052
C30_11 C 0.3447(3) 0.7309(3) 0.4748(3)
C31_11 C 0.30739(19) 0.69171(19) 0.4328(2)
H32_11 H 0.2972 0.7109 0.4187
H33_11 H 0.2913 0.6858 0.4523
H34_11 H 0.3109 0.6709 0.4178
C32_11 C 0.3056(3) 0.7461(3) 0.4839(3)
H35_11 H 0.2913 0.7273 0.4946
H36_11 H 0.2942 0.7543 0.4621
H37_11 H 0.3076 0.7659 0.5006
O5_11 O 0.5723(2) 0.01044(17) 0.42829(19)
Zn7_9 Zn 0.55758(4) 0.05758(4) 0.44242(4)
C1_12 C 0.63424(17) 0.80475(15) 0.34885(17)
C2_12 C 0.66914(19) 0.85948(15) 0.35424(18)
C3_12 C 0.65210(18) 0.79763(16) 0.31625(19)
C4_12 C 0.67819(17) 0.82037(16) 0.30421(18)
C5_12 C 0.60354(17) 0.77899(16) 0.36078(19)
H1_12 H 0.5822 0.7839 0.3468
H2_12 H 0.5985 0.7827 0.3859
H3_12 H 0.6109 0.7544 0.3569
C6_12 C 0.68650(18) 0.85181(16) 0.32231(16)
C7_12 C 0.6939(3) 0.8129(2) 0.2672(3)
C8_12 C 0.64326(18) 0.83564(16) 0.36829(17)
C9_12 C 0.68011(16) 0.89458(14) 0.37474(16)
H4_12 H 0.7034 0.9025 0.3666
H5_12 H 0.6811 0.8898 0.4002
H6_12 H 0.6626 0.9131 0.3701
C10_12 C 0.6250 0.8134(2) 0.4366(2)
C11_12 C 0.64122(19) 0.76308(17) 0.2944(2)
H7_12 H 0.6460 0.7420 0.3087
H8_12 H 0.6550 0.7620 0.2725
H9_12 H 0.6159 0.7641 0.2887
C12_12 C 0.6576(2) 0.7966(2) 0.4478(2)
C13_12 C 0.7152(2) 0.87745(16) 0.30689(18)
H10_12 H 0.7223 0.8693 0.2833
H11_12 H 0.7359 0.8776 0.3225
H12_12 H 0.7054 0.9014 0.3052
C14_12 C 0.6553(3) 0.7691(3) 0.4748(3)
C15_12 C 0.69261(19) 0.80829(19) 0.4328(2)
H13_12 H 0.7028 0.7891 0.4187
H14_12 H 0.7087 0.8142 0.4523
H15_12 H 0.6891 0.8291 0.4178
B1_12 B 0.6250 0.8434(2) 0.4066(2)
C16_12 C 0.6250 0.7580(5) 0.4920(5)
H16_12 H 0.6250 0.7402 0.5098
C17_12 C 0.6944(3) 0.7539(3) 0.4839(3)
H17_12 H 0.7087 0.7727 0.4946
H18_12 H 0.7058 0.7457 0.4621
H19_12 H 0.6924 0.7341 0.5006
O4_11 O 0.52537(14) 0.98269(12) 0.45304(13)
C18_12 C 0.61576(17) 0.90115(17) 0.44525(15)
C19_12 C 0.58086(19) 0.89576(18) 0.39052(15)
C20_12 C 0.59790(18) 0.93375(19) 0.45237(16)
C21_12 C 0.57181(17) 0.94579(18) 0.42963(16)
C22_12 C 0.64646(17) 0.88922(19) 0.47101(16)
H20_12 H 0.6678 0.9032 0.4661
H21_12 H 0.6515 0.8641 0.4673
H22_12 H 0.6391 0.8931 0.4956
C23_12 C 0.56350(18) 0.92769(16) 0.39819(16)
C24_12 C 0.5561(3) 0.9828(3) 0.4371(2)
C25_12 C 0.60674(18) 0.88171(17) 0.41436(16)
C26_12 C 0.56989(16) 0.87526(16) 0.35542(14)
H23_12 H 0.5466 0.8834 0.3475
H24_12 H 0.5689 0.8498 0.3602
H25_12 H 0.5874 0.8799 0.3369
C27_12 C 0.60878(19) 0.9556(2) 0.48692(17)
H26_12 H 0.6040 0.9413 0.5080
H27_12 H 0.5950 0.9775 0.4880
H28_12 H 0.6341 0.9613 0.4859
C28_12 C 0.5924(2) 0.8022(2) 0.4534(2)
C29_12 C 0.5348(2) 0.94311(18) 0.37255(16)
H29_12 H 0.5277 0.9667 0.3807
H30_12 H 0.5141 0.9275 0.3724
H31_12 H 0.5446 0.9448 0.3486
C30_12 C 0.5947(3) 0.7752(3) 0.4809(3)
C31_12 C 0.55739(19) 0.8172(2) 0.44171(19)
H32_12 H 0.5472 0.8313 0.4609
H33_12 H 0.5413 0.7977 0.4358
H34_12 H 0.5609 0.8322 0.4209
C32_12 C 0.5556(3) 0.7661(3) 0.4961(3)
H35_12 H 0.5413 0.7554 0.4773
H36_12 H 0.5442 0.7879 0.5043
H37_12 H 0.5576 0.7494 0.5159
C1_13 C 0.05475(15) 0.38424(17) 0.40115(17)
C2_13 C 0.10948(15) 0.41914(19) 0.39576(18)
C3_13 C 0.04763(16) 0.40210(18) 0.43375(19)
C4_13 C 0.07037(16) 0.42819(17) 0.44579(18)
C5_13 C 0.02899(16) 0.35354(17) 0.38922(19)
H1_13 H 0.0339 0.3322 0.4032
H2_13 H 0.0327 0.3485 0.3641
H3_13 H 0.0044 0.3609 0.3931
C6_13 C 0.10181(16) 0.43650(18) 0.42769(16)
C7_13 C 0.0629(2) 0.4439(3) 0.4828(3)
C8_13 C 0.08564(16) 0.39326(18) 0.38171(17)
C9_13 C 0.14458(14) 0.43011(16) 0.37526(16)
H4_13 H 0.1525 0.4534 0.3834
H5_13 H 0.1398 0.4311 0.3498
H6_13 H 0.1631 0.4126 0.3799
C10_13 C 0.0634(2) 0.3750 0.3134(2)
C11_13 C 0.01308(17) 0.39122(19) 0.4556(2)
H8_13 H 0.0120 0.4050 0.4775
H9_13 H 0.0141 0.3659 0.4613
C12_13 C 0.0466(2) 0.4076(2) 0.3022(2)
C13_13 C 0.12745(16) 0.4652(2) 0.44311(18)
H10_13 H 0.1193 0.4723 0.4667
H11_13 H 0.1276 0.4859 0.4275
H12_13 H 0.1514 0.4554 0.4448
C14_13 C 0.0191(3) 0.4053(3) 0.2752(3)
C15_13 C 0.05829(19) 0.44261(19) 0.3172(2)
H13_13 H 0.0391 0.4528 0.3313
H14_13 H 0.0642 0.4587 0.2977
H15_13 H 0.0791 0.4391 0.3322
B1_13 B 0.0934(2) 0.3750 0.3434(2)
C16_13 C 0.0080(5) 0.3750 0.2580(5)
C17_13 C 0.0039(3) 0.4444(3) 0.2661(3)
H17_13 H 0.0227 0.4587 0.2554
O4_12 O 0.23269(12) 0.27537(14) 0.29696(13)
O5_12 O 0.26044(17) 0.3223(2) 0.32171(19)
C18_13 C 0.15115(17) 0.36576(17) 0.30475(15)
C19_13 C 0.14576(18) 0.33086(19) 0.35948(15)
C20_13 C 0.18375(19) 0.34790(18) 0.29763(16)
C21_13 C 0.19579(18) 0.32181(17) 0.32037(16)
C22_13 C 0.13922(19) 0.39646(17) 0.27899(16)
H20_13 H 0.1532 0.4178 0.2839
H21_13 H 0.1141 0.4015 0.2827
H22_13 H 0.1431 0.3891 0.2544
C23_13 C 0.17769(16) 0.31350(18) 0.35181(16)
C24_13 C 0.2328(3) 0.3061(3) 0.3129(2)
C25_13 C 0.13171(17) 0.35674(18) 0.33564(16)
C26_13 C 0.12526(16) 0.31989(16) 0.39458(14)
H23_13 H 0.1334 0.2966 0.4025
H24_13 H 0.0998 0.3189 0.3898
H25_13 H 0.1299 0.3374 0.4131
C27_13 C 0.2056(2) 0.35878(19) 0.26308(17)
H26_13 H 0.1913 0.3540 0.2420
H27_13 H 0.2275 0.3450 0.2620
H28_13 H 0.2113 0.3841 0.2641
C28_13 C 0.0522(2) 0.3424(2) 0.2966(2)
C29_13 C 0.19311(18) 0.2848(2) 0.37745(16)
H29_13 H 0.2167 0.2777 0.3693
H30_13 H 0.1775 0.2641 0.3776
H31_13 H 0.1948 0.2946 0.4014
C30_13 C 0.0252(3) 0.3447(3) 0.2691(3)
C31_13 C 0.0672(2) 0.30739(19) 0.30829(19)
H32_13 H 0.0813 0.2972 0.2891
H33_13 H 0.0477 0.2913 0.3142
H34_13 H 0.0822 0.3109 0.3291
C32_13 C 0.0161(3) 0.3056(3) 0.2539(3)
H35_13 H 0.0054 0.2913 0.2727
H36_13 H 0.0379 0.2942 0.2457
C33_8 C 0.09885(17) 0.55475(15) 0.38424(17)
C34_8 C 0.10424(18) 0.60948(15) 0.41914(19)
C35_8 C 0.06625(19) 0.54763(16) 0.40210(18)
C36_8 C 0.05421(18) 0.57037(16) 0.42819(17)
C37_8 C 0.11078(19) 0.52899(16) 0.35354(17)
H38_8 H 0.0968 0.5339 0.3322
H39_8 H 0.1359 0.5327 0.3485
H40_8 H 0.1069 0.5044 0.3609
C38_8 C 0.07231(16) 0.60181(16) 0.43650(18)
C39_8 C 0.0172(3) 0.5629(2) 0.4439(3)
C40_8 C 0.11829(17) 0.58564(16) 0.39326(18)
C41_8 C 0.12474(16) 0.64458(14) 0.43011(16)
H41_8 H 0.1166 0.6525 0.4534
H42_8 H 0.1502 0.6398 0.4311
H43_8 H 0.1201 0.6631 0.4126
C42_8 C 0.1866(2) 0.5634(2) 0.3750
C43_8 C 0.0444(2) 0.51308(17) 0.39122(19)
H44_8 H 0.0587 0.4920 0.3960
H45_8 H 0.0225 0.5120 0.4050
H46_8 H 0.0387 0.5141 0.3659
C44_8 C 0.1978(2) 0.5466(2) 0.4076(2)
C45_8 C 0.05689(18) 0.62745(16) 0.4652(2)
H47_8 H 0.0333 0.6193 0.4723
H48_8 H 0.0725 0.6276 0.4859
H49_8 H 0.0552 0.6514 0.4554
C46_8 C 0.2248(3) 0.5191(3) 0.4053(3)
C47_8 C 0.1828(2) 0.55829(19) 0.44261(19)
H50_8 H 0.1687 0.5391 0.4528
H51_8 H 0.2023 0.5642 0.4587
H52_8 H 0.1678 0.5791 0.4391
B2_8 B 0.1566(2) 0.5934(2) 0.3750
C48_8 C 0.2420(5) 0.5080(5) 0.3750
H53_8 H 0.2598 0.4902 0.3750
C49_8 C 0.2339(3) 0.5039(3) 0.4444(3)
H54_8 H 0.2446 0.5227 0.4587
H55_8 H 0.2121 0.4957 0.4558
H56_8 H 0.2506 0.4841 0.4424
O9_7 O 0.20304(13) 0.73269(12) 0.27537(14)
O10_7 O 0.17829(19) 0.76044(17) 0.3223(2)
C50_8 C 0.19525(15) 0.65115(17) 0.36576(17)
C51_8 C 0.14052(15) 0.64576(18) 0.33086(19)
C52_8 C 0.20237(16) 0.68375(19) 0.34790(18)
C53_8 C 0.17963(16) 0.69579(18) 0.32181(17)
C54_8 C 0.22101(16) 0.63922(19) 0.39646(17)
H57_8 H 0.2161 0.6532 0.4178
H58_8 H 0.2173 0.6141 0.4015
H59_8 H 0.2456 0.6431 0.3891
C55_8 C 0.14819(16) 0.67769(16) 0.31350(18)
C56_8 C 0.1871(2) 0.7328(3) 0.3061(3)
C57_8 C 0.16436(16) 0.63171(17) 0.35674(18)
C58_8 C 0.10542(14) 0.62526(16) 0.31989(16)
H60_8 H 0.0975 0.6334 0.2966
H61_8 H 0.1102 0.5998 0.3189
H62_8 H 0.0869 0.6299 0.3374
C59_8 C 0.23692(17) 0.7056(2) 0.35878(19)
H63_8 H 0.2580 0.6913 0.3540
H64_8 H 0.2380 0.7275 0.3450
H65_8 H 0.2359 0.7113 0.3841
C60_8 C 0.2034(2) 0.5522(2) 0.3424(2)
C61_8 C 0.12255(16) 0.69311(18) 0.2848(2)
H66_8 H 0.1307 0.7167 0.2777
H67_8 H 0.1224 0.6775 0.2641
H68_8 H 0.0986 0.6948 0.2946
C62_8 C 0.2309(3) 0.5252(3) 0.3447(3)
C63_8 C 0.19171(19) 0.5672(2) 0.30739(19)
H69_8 H 0.2109 0.5813 0.2972
H70_8 H 0.1858 0.5477 0.2913
H71_8 H 0.1709 0.5822 0.3109
C64_8 C 0.2461(3) 0.5161(3) 0.3056(3)
H72_8 H 0.2273 0.5054 0.2913
H73_8 H 0.2543 0.5379 0.2942
H74_8 H 0.2659 0.4994 0.3076
Zn7_10 Zn 0.30758(4) 0.30758(4) 0.30758(4)
Zn8_7 Zn 0.19242(4) 0.80758(4) 0.30758(4)
H7_13 H 0.9920 0.3960 0.4413
H16_13 H 0.9902 0.3750 0.2402
H18_13 H 0.9957 0.4558 0.2879
H19_13 H 0.9841 0.4424 0.2494
H37_13 H 0.9994 0.3076 0.2341
C1_14 C 0.90115(17) 0.55475(15) 0.88424(17)
C2_14 C 0.89576(18) 0.60948(15) 0.91914(19)
C3_14 C 0.93375(19) 0.54763(16) 0.90210(18)
C4_14 C 0.94579(18) 0.57037(16) 0.92819(17)
C5_14 C 0.88922(19) 0.52899(16) 0.85354(17)
H1_14 H 0.9032 0.5339 0.8322
H2_14 H 0.8641 0.5327 0.8485
H3_14 H 0.8931 0.5044 0.8609
C6_14 C 0.92769(16) 0.60181(16) 0.93650(18)
C7_14 C 0.9828(3) 0.5629(2) 0.9439(3)
C8_14 C 0.88171(17) 0.58564(16) 0.89326(18)
C9_14 C 0.87526(16) 0.64458(14) 0.93011(16)
H4_14 H 0.8834 0.6525 0.9534
H5_14 H 0.8498 0.6398 0.9311
H6_14 H 0.8799 0.6631 0.9126
C10_14 C 0.8134(2) 0.5634(2) 0.8750
C11_14 C 0.9556(2) 0.51308(17) 0.89122(19)
H7_14 H 0.9413 0.4920 0.8960
H8_14 H 0.9775 0.5120 0.9050
H9_14 H 0.9613 0.5141 0.8659
C12_14 C 0.8022(2) 0.5466(2) 0.9076(2)
C13_14 C 0.94311(18) 0.62745(16) 0.9652(2)
H10_14 H 0.9667 0.6193 0.9723
H11_14 H 0.9275 0.6276 0.9859
H12_14 H 0.9448 0.6514 0.9554
C14_14 C 0.7752(3) 0.5191(3) 0.9053(3)
C15_14 C 0.8172(2) 0.55829(19) 0.94261(19)
H13_14 H 0.8313 0.5391 0.9528
H14_14 H 0.7977 0.5642 0.9587
H15_14 H 0.8322 0.5791 0.9391
B1_14 B 0.8434(2) 0.5934(2) 0.8750
C16_14 C 0.7580(5) 0.5080(5) 0.8750
H16_14 H 0.7402 0.4902 0.8750
C17_14 C 0.7661(3) 0.5039(3) 0.9444(3)
H17_14 H 0.7554 0.5227 0.9587
H18_14 H 0.7879 0.4957 0.9558
H19_14 H 0.7494 0.4841 0.9424
C18_14 C 0.80475(15) 0.65115(17) 0.86576(17)
C19_14 C 0.85948(15) 0.64576(18) 0.83086(19)
C20_14 C 0.79763(16) 0.68375(19) 0.84790(18)
C21_14 C 0.82037(16) 0.69579(18) 0.82181(17)
C22_14 C 0.77899(16) 0.63922(19) 0.89646(17)
H20_14 H 0.7839 0.6532 0.9178
H21_14 H 0.7827 0.6141 0.9015
H22_14 H 0.7544 0.6431 0.8891
C23_14 C 0.85181(16) 0.67769(16) 0.81350(18)
C24_14 C 0.8129(2) 0.7328(3) 0.8061(3)
C25_14 C 0.83564(16) 0.63171(17) 0.85674(18)
C26_14 C 0.89458(14) 0.62526(16) 0.81989(16)
H23_14 H 0.9025 0.6334 0.7966
H24_14 H 0.8898 0.5998 0.8189
H25_14 H 0.9131 0.6299 0.8374
C27_14 C 0.76308(17) 0.7056(2) 0.85878(19)
H26_14 H 0.7420 0.6913 0.8540
H27_14 H 0.7620 0.7275 0.8450
H28_14 H 0.7641 0.7113 0.8841
C28_14 C 0.7966(2) 0.5522(2) 0.8424(2)
C29_14 C 0.87745(16) 0.69311(18) 0.7848(2)
H29_14 H 0.8693 0.7167 0.7777
H30_14 H 0.8776 0.6775 0.7641
H31_14 H 0.9014 0.6948 0.7946
C30_14 C 0.7691(3) 0.5252(3) 0.8447(3)
C31_14 C 0.80829(19) 0.5672(2) 0.80739(19)
H32_14 H 0.7891 0.5813 0.7972
H33_14 H 0.8142 0.5477 0.7913
H34_14 H 0.8291 0.5822 0.8109
C32_14 C 0.7539(3) 0.5161(3) 0.8056(3)
H35_14 H 0.7727 0.5054 0.7913
H36_14 H 0.7457 0.5379 0.7942
H37_14 H 0.7341 0.4994 0.8076
O5_13 O 0.57171(19) 0.9277(2) 0.01044(17)
C1_15 C 0.65115(17) 0.86576(17) 0.80475(15)
C2_15 C 0.64576(18) 0.83086(19) 0.85948(15)
C3_15 C 0.68375(19) 0.84790(18) 0.79763(16)
C4_15 C 0.69579(18) 0.82181(17) 0.82037(16)
C5_15 C 0.63922(19) 0.89646(17) 0.77899(16)
H1_15 H 0.6532 0.9178 0.7839
H2_15 H 0.6141 0.9015 0.7827
H3_15 H 0.6431 0.8891 0.7544
C6_15 C 0.67769(16) 0.81350(18) 0.85181(16)
C7_15 C 0.7328(3) 0.8061(3) 0.8129(2)
C8_15 C 0.63171(17) 0.85674(18) 0.83564(16)
C9_15 C 0.62526(16) 0.81989(16) 0.89458(14)
H4_15 H 0.6334 0.7966 0.9025
H5_15 H 0.5998 0.8189 0.8898
H6_15 H 0.6299 0.8374 0.9131
C10_15 C 0.5634(2) 0.8750 0.8134(2)
C11_15 C 0.7056(2) 0.85878(19) 0.76308(17)
H7_15 H 0.6913 0.8540 0.7420
H8_15 H 0.7275 0.8450 0.7620
H9_15 H 0.7113 0.8841 0.7641
C12_15 C 0.5522(2) 0.8424(2) 0.7966(2)
C13_15 C 0.69311(18) 0.7848(2) 0.87745(16)
H10_15 H 0.7167 0.7777 0.8693
H11_15 H 0.6775 0.7641 0.8776
H12_15 H 0.6948 0.7946 0.9014
C14_15 C 0.5252(3) 0.8447(3) 0.7691(3)
C15_15 C 0.5672(2) 0.80739(19) 0.80829(19)
H13_15 H 0.5813 0.7972 0.7891
H14_15 H 0.5477 0.7913 0.8142
H15_15 H 0.5822 0.8109 0.8291
B1_15 B 0.5934(2) 0.8750 0.8434(2)
C16_15 C 0.5080(5) 0.8750 0.7580(5)
H16_15 H 0.4902 0.8750 0.7402
C17_15 C 0.5161(3) 0.8056(3) 0.7539(3)
H17_15 H 0.5054 0.7913 0.7727
H18_15 H 0.5379 0.7942 0.7457
H19_15 H 0.4994 0.8076 0.7341
O4_13 O 0.54696(13) 0.97463(14) 0.98269(12)
C18_15 C 0.55475(15) 0.88424(17) 0.90115(17)
C19_15 C 0.60948(15) 0.91914(19) 0.89576(18)
C20_15 C 0.54763(16) 0.90210(18) 0.93375(19)
C21_15 C 0.57037(16) 0.92819(17) 0.94579(18)
C22_15 C 0.52899(16) 0.85354(17) 0.88922(19)
H20_15 H 0.5339 0.8322 0.9032
H21_15 H 0.5327 0.8485 0.8641
H22_15 H 0.5044 0.8609 0.8931
C23_15 C 0.60181(16) 0.93650(18) 0.92769(16)
C24_15 C 0.5629(2) 0.9439(3) 0.9828(3)
C25_15 C 0.58564(16) 0.89326(18) 0.88171(17)
C26_15 C 0.64458(14) 0.93011(16) 0.87526(16)
H23_15 H 0.6525 0.9534 0.8834
H24_15 H 0.6398 0.9311 0.8498
H25_15 H 0.6631 0.9126 0.8799
C27_15 C 0.51308(17) 0.89122(19) 0.9556(2)
H26_15 H 0.4920 0.8960 0.9413
H27_15 H 0.5120 0.9050 0.9775
H28_15 H 0.5141 0.8659 0.9613
C28_15 C 0.5466(2) 0.9076(2) 0.8022(2)
C29_15 C 0.62745(16) 0.9652(2) 0.94311(18)
H29_15 H 0.6193 0.9723 0.9667
H30_15 H 0.6276 0.9859 0.9275
H31_15 H 0.6514 0.9554 0.9448
C30_15 C 0.5191(3) 0.9053(3) 0.7752(3)
C31_15 C 0.55829(19) 0.94261(19) 0.8172(2)
H32_15 H 0.5391 0.9528 0.8313
H33_15 H 0.5642 0.9587 0.7977
H34_15 H 0.5791 0.9391 0.8322
C32_15 C 0.5039(3) 0.9444(3) 0.7661(3)
H35_15 H 0.5227 0.9587 0.7554
H36_15 H 0.4957 0.9558 0.7879
H37_15 H 0.4841 0.9424 0.7494
H16_16 H 0.0098 0.1250 0.2402
H19_16 H 0.0006 0.1924 0.2341
H26_16 H 0.0080 0.1040 0.4413
H36_16 H 0.0043 0.0442 0.2879
H37_16 H 0.0159 0.0576 0.2494
C1_16 C 0.84885(17) 0.13424(17) 0.30475(15)
C2_16 C 0.85424(18) 0.16914(19) 0.35948(15)
C3_16 C 0.81625(19) 0.15210(18) 0.29763(16)
C4_16 C 0.80421(18) 0.17819(17) 0.32037(16)
C5_16 C 0.86078(19) 0.10354(17) 0.27899(16)
H1_16 H 0.8468 0.0822 0.2839
H2_16 H 0.8859 0.0985 0.2827
H3_16 H 0.8569 0.1109 0.2544
C6_16 C 0.82231(16) 0.18650(18) 0.35181(16)
C7_16 C 0.7672(3) 0.1939(3) 0.3129(2)
C8_16 C 0.86829(17) 0.14326(18) 0.33564(16)
C9_16 C 0.87474(16) 0.18011(16) 0.39458(14)
H4_16 H 0.8666 0.2034 0.4025
H5_16 H 0.9002 0.1811 0.3898
H6_16 H 0.8701 0.1626 0.4131
C10_16 C 0.9366(2) 0.1250 0.3134(2)
C11_16 C 0.7944(2) 0.14122(19) 0.26308(17)
H7_16 H 0.8087 0.1460 0.2420
H8_16 H 0.7725 0.1550 0.2620
H9_16 H 0.7887 0.1159 0.2641
C12_16 C 0.9478(2) 0.1576(2) 0.2966(2)
C13_16 C 0.80689(18) 0.2152(2) 0.37745(16)
H10_16 H 0.7833 0.2223 0.3693
H11_16 H 0.8225 0.2359 0.3776
H12_16 H 0.8052 0.2054 0.4014
C14_16 C 0.9748(3) 0.1553(3) 0.2691(3)
C15_16 C 0.9328(2) 0.19261(19) 0.30829(19)
H13_16 H 0.9187 0.2028 0.2891
H14_16 H 0.9523 0.2087 0.3142
H15_16 H 0.9178 0.1891 0.3291
B1_16 B 0.9066(2) 0.1250 0.3434(2)
C16_16 C 0.9920(5) 0.1250 0.2580(5)
C17_16 C 0.9839(3) 0.1944(3) 0.2539(3)
H17_16 H 0.9946 0.2087 0.2727
H18_16 H 0.9621 0.2058 0.2457
O4_14 O 0.95304(13) 0.02537(14) 0.48269(12)
O5_14 O 0.92829(19) 0.0723(2) 0.51044(17)
C18_16 C 0.94525(15) 0.11576(17) 0.40115(17)
C19_16 C 0.89052(15) 0.08086(19) 0.39576(18)
C20_16 C 0.95237(16) 0.09790(18) 0.43375(19)
C21_16 C 0.92963(16) 0.07181(17) 0.44579(18)
C22_16 C 0.97101(16) 0.14646(17) 0.38922(19)
H20_16 H 0.9661 0.1678 0.4032
H21_16 H 0.9673 0.1515 0.3641
H22_16 H 0.9956 0.1391 0.3931
C23_16 C 0.89819(16) 0.06350(18) 0.42769(16)
C24_16 C 0.9371(2) 0.0561(3) 0.4828(3)
C25_16 C 0.91436(16) 0.10674(18) 0.38171(17)
C26_16 C 0.85542(14) 0.06989(16) 0.37526(16)
H23_16 H 0.8475 0.0466 0.3834
H24_16 H 0.8602 0.0689 0.3498
H25_16 H 0.8369 0.0874 0.3799
C27_16 C 0.98692(17) 0.10878(19) 0.4556(2)
H27_16 H 0.9880 0.0950 0.4775
H28_16 H 0.9859 0.1341 0.4613
C28_16 C 0.9534(2) 0.0924(2) 0.3022(2)
C29_16 C 0.87255(16) 0.0348(2) 0.44311(18)
H29_16 H 0.8807 0.0277 0.4667
H30_16 H 0.8724 0.0141 0.4275
H31_16 H 0.8486 0.0446 0.4448
C30_16 C 0.9809(3) 0.0947(3) 0.2752(3)
C31_16 C 0.94171(19) 0.05739(19) 0.3172(2)
H32_16 H 0.9609 0.0472 0.3313
H33_16 H 0.9358 0.0413 0.2977
H34_16 H 0.9209 0.0609 0.3322
C32_16 C 0.9961(3) 0.0556(3) 0.2661(3)
H35_16 H 0.9773 0.0413 0.2554
C1_17 C 0.65115(17) 0.13424(17) 0.69525(15)
C2_17 C 0.64576(18) 0.16914(19) 0.64052(15)
C3_17 C 0.68375(19) 0.15210(18) 0.70237(16)
C4_17 C 0.69579(18) 0.17819(17) 0.67963(16)
C5_17 C 0.63922(19) 0.10354(17) 0.72101(16)
H1_17 H 0.6532 0.0822 0.7161
H2_17 H 0.6141 0.0985 0.7173
H3_17 H 0.6431 0.1109 0.7456
C6_17 C 0.67769(16) 0.18650(18) 0.64819(16)
C7_17 C 0.7328(3) 0.1939(3) 0.6871(2)
C8_17 C 0.63171(17) 0.14326(18) 0.66436(16)
C9_17 C 0.62526(16) 0.18011(16) 0.60542(14)
H4_17 H 0.6334 0.2034 0.5975
H5_17 H 0.5998 0.1811 0.6102
H6_17 H 0.6299 0.1626 0.5869
C10_17 C 0.5634(2) 0.1250 0.6866(2)
C11_17 C 0.7056(2) 0.14122(19) 0.73692(17)
H7_17 H 0.6913 0.1460 0.7580
H8_17 H 0.7275 0.1550 0.7380
H9_17 H 0.7113 0.1159 0.7359
C12_17 C 0.5522(2) 0.1576(2) 0.7034(2)
C13_17 C 0.69311(18) 0.2152(2) 0.62255(16)
H10_17 H 0.7167 0.2223 0.6307
H11_17 H 0.6775 0.2359 0.6224
H12_17 H 0.6948 0.2054 0.5986
C14_17 C 0.5252(3) 0.1553(3) 0.7309(3)
C15_17 C 0.5672(2) 0.19261(19) 0.69171(19)
H13_17 H 0.5813 0.2028 0.7109
H14_17 H 0.5477 0.2087 0.6858
H15_17 H 0.5822 0.1891 0.6709
B1_17 B 0.5934(2) 0.1250 0.6566(2)
C16_17 C 0.5080(5) 0.1250 0.7420(5)
H16_17 H 0.4902 0.1250 0.7598
C17_17 C 0.5161(3) 0.1944(3) 0.7461(3)
H17_17 H 0.5054 0.2087 0.7273
H18_17 H 0.5379 0.2058 0.7543
H19_17 H 0.4994 0.1924 0.7659
O4_15 O 0.54696(13) 0.02537(14) 0.51731(12)
O5_15 O 0.57171(19) 0.0723(2) 0.48956(17)
C18_17 C 0.55475(15) 0.11576(17) 0.59885(17)
C19_17 C 0.60948(15) 0.08086(19) 0.60424(18)
C20_17 C 0.54763(16) 0.09790(18) 0.56625(19)
C21_17 C 0.57037(16) 0.07181(17) 0.55421(18)
C22_17 C 0.52899(16) 0.14646(17) 0.61078(19)
H20_17 H 0.5339 0.1678 0.5968
H21_17 H 0.5327 0.1515 0.6359
H22_17 H 0.5044 0.1391 0.6069
C23_17 C 0.60181(16) 0.06350(18) 0.57231(16)
C24_17 C 0.5629(2) 0.0561(3) 0.5172(3)
C25_17 C 0.58564(16) 0.10674(18) 0.61829(17)
C26_17 C 0.64458(14) 0.06989(16) 0.62474(16)
H23_17 H 0.6525 0.0466 0.6166
H24_17 H 0.6398 0.0689 0.6502
H25_17 H 0.6631 0.0874 0.6201
C27_17 C 0.51308(17) 0.10878(19) 0.5444(2)
H26_17 H 0.4920 0.1040 0.5587
H27_17 H 0.5120 0.0950 0.5225
H28_17 H 0.5141 0.1341 0.5387
C28_17 C 0.5466(2) 0.0924(2) 0.6978(2)
C29_17 C 0.62745(16) 0.0348(2) 0.55689(18)
H29_17 H 0.6193 0.0277 0.5333
H30_17 H 0.6276 0.0141 0.5725
H31_17 H 0.6514 0.0446 0.5552
C30_17 C 0.5191(3) 0.0947(3) 0.7248(3)
C31_17 C 0.55829(19) 0.05739(19) 0.6828(2)
H32_17 H 0.5391 0.0472 0.6687
H33_17 H 0.5642 0.0413 0.7023
H34_17 H 0.5791 0.0609 0.6678
C32_17 C 0.5039(3) 0.0556(3) 0.7339(3)
H35_17 H 0.5227 0.0413 0.7446
H36_17 H 0.4957 0.0442 0.7121
H37_17 H 0.4841 0.0576 0.7506
O3_9 O 0.59106(17) 0.09106(17) 0.40894(17)
O16_9 O 0.48269(12) 0.04696(13) 0.47463(14)
O17_5 O 0.47463(14) 0.01731(12) 0.54696(13)
O19_9 O 0.51044(17) 0.07171(19) 0.4277(2)
O6_9 O 0.40894(17) 0.90894(17) 0.59106(17)
O7_8 O 0.45304(13) 0.97463(14) 0.48269(12)
O8_8 O 0.42829(19) 0.9277(2) 0.51044(17)
C33_9 C 0.44525(15) 0.88424(17) 0.40115(17)
C34_9 C 0.39052(15) 0.91914(19) 0.39576(18)
C35_9 C 0.45237(16) 0.90210(18) 0.43375(19)
C36_9 C 0.42963(16) 0.92819(17) 0.44579(18)
C37_9 C 0.47101(16) 0.85354(17) 0.38922(19)
H38_9 H 0.4661 0.8322 0.4032
H39_9 H 0.4673 0.8485 0.3641
H40_9 H 0.4956 0.8609 0.3931
C38_9 C 0.39819(16) 0.93650(18) 0.42769(16)
C39_9 C 0.4371(2) 0.9439(3) 0.4828(3)
C40_9 C 0.41436(16) 0.89326(18) 0.38171(17)
C41_9 C 0.35542(14) 0.93011(16) 0.37526(16)
H41_9 H 0.3475 0.9534 0.3834
H42_9 H 0.3602 0.9311 0.3498
H43_9 H 0.3369 0.9126 0.3799
C42_9 C 0.4366(2) 0.8750 0.3134(2)
C43_9 C 0.48692(17) 0.89122(19) 0.4556(2)
H44_9 H 0.5080 0.8960 0.4413
H45_9 H 0.4880 0.9050 0.4775
H46_9 H 0.4859 0.8659 0.4613
C44_9 C 0.4534(2) 0.9076(2) 0.3022(2)
C45_9 C 0.37255(16) 0.9652(2) 0.44311(18)
H47_9 H 0.3807 0.9723 0.4667
H48_9 H 0.3724 0.9859 0.4275
H49_9 H 0.3486 0.9554 0.4448
C46_9 C 0.4809(3) 0.9053(3) 0.2752(3)
C47_9 C 0.44171(19) 0.94261(19) 0.3172(2)
H50_9 H 0.4609 0.9528 0.3313
H51_9 H 0.4358 0.9587 0.2977
H52_9 H 0.4209 0.9391 0.3322
B2_9 B 0.4066(2) 0.8750 0.3434(2)
C48_9 C 0.4920(5) 0.8750 0.2580(5)
H53_9 H 0.5098 0.8750 0.2402
C49_9 C 0.4961(3) 0.9444(3) 0.2661(3)
H54_9 H 0.4773 0.9587 0.2554
H55_9 H 0.5043 0.9558 0.2879
H56_9 H 0.5159 0.9424 0.2494
O9_8 O 0.26731(12) 0.77537(14) 0.29696(13)
O10_8 O 0.23956(17) 0.8223(2) 0.32171(19)
C50_9 C 0.34885(17) 0.86576(17) 0.30475(15)
C51_9 C 0.35424(18) 0.83086(19) 0.35948(15)
C52_9 C 0.31625(19) 0.84790(18) 0.29763(16)
C53_9 C 0.30421(18) 0.82181(17) 0.32037(16)
C54_9 C 0.36078(19) 0.89646(17) 0.27899(16)
H57_9 H 0.3468 0.9178 0.2839
H58_9 H 0.3859 0.9015 0.2827
H59_9 H 0.3569 0.8891 0.2544
C55_9 C 0.32231(16) 0.81350(18) 0.35181(16)
C56_9 C 0.2672(3) 0.8061(3) 0.3129(2)
C57_9 C 0.36829(17) 0.85674(18) 0.33564(16)
C58_9 C 0.37474(16) 0.81989(16) 0.39458(14)
H60_9 H 0.3666 0.7966 0.4025
H61_9 H 0.4002 0.8189 0.3898
H62_9 H 0.3701 0.8374 0.4131
C59_9 C 0.2944(2) 0.85878(19) 0.26308(17)
H63_9 H 0.3087 0.8540 0.2420
H64_9 H 0.2725 0.8450 0.2620
H65_9 H 0.2887 0.8841 0.2641
C60_9 C 0.4478(2) 0.8424(2) 0.2966(2)
C61_9 C 0.30689(18) 0.7848(2) 0.37745(16)
H66_9 H 0.2833 0.7777 0.3693
H67_9 H 0.3225 0.7641 0.3776
H68_9 H 0.3052 0.7946 0.4014
C62_9 C 0.4748(3) 0.8447(3) 0.2691(3)
C63_9 C 0.4328(2) 0.80739(19) 0.30829(19)
H69_9 H 0.4187 0.7972 0.2891
H70_9 H 0.4523 0.7913 0.3142
H71_9 H 0.4178 0.8109 0.3291
C64_9 C 0.4839(3) 0.8056(3) 0.2539(3)
H72_9 H 0.4946 0.7913 0.2727
H73_9 H 0.4621 0.7942 0.2457
H74_9 H 0.5006 0.8076 0.2341
O20_5 O 0.4277(2) 0.98956(17) 0.57171(19)
C1_18 C 0.38424(17) 0.40115(17) 0.05475(15)
C2_18 C 0.41914(19) 0.39576(18) 0.10948(15)
C3_18 C 0.40210(18) 0.43375(19) 0.04763(16)
C4_18 C 0.42819(17) 0.44579(18) 0.07037(16)
C5_18 C 0.35354(17) 0.38922(19) 0.02899(16)
H1_18 H 0.3322 0.4032 0.0339
H2_18 H 0.3485 0.3641 0.0327
H3_18 H 0.3609 0.3931 0.0044
C6_18 C 0.43650(18) 0.42769(16) 0.10181(16)
C7_18 C 0.4439(3) 0.4828(3) 0.0629(2)
C8_18 C 0.39326(18) 0.38171(17) 0.08564(16)
C9_18 C 0.43011(16) 0.37526(16) 0.14458(14)
H4_18 H 0.4534 0.3834 0.1525
H5_18 H 0.4311 0.3498 0.1398
H6_18 H 0.4126 0.3799 0.1631
C10_18 C 0.3750 0.3134(2) 0.0634(2)
C11_18 C 0.39122(19) 0.4556(2) 0.01308(17)
H8_18 H 0.4050 0.4775 0.0120
H9_18 H 0.3659 0.4613 0.0141
C12_18 C 0.4076(2) 0.3022(2) 0.0466(2)
C13_18 C 0.4652(2) 0.44311(18) 0.12745(16)
H10_18 H 0.4723 0.4667 0.1193
H11_18 H 0.4859 0.4275 0.1276
H12_18 H 0.4554 0.4448 0.1514
C14_18 C 0.4053(3) 0.2752(3) 0.0191(3)
C15_18 C 0.44261(19) 0.3172(2) 0.05829(19)
H13_18 H 0.4528 0.3313 0.0391
H14_18 H 0.4587 0.2977 0.0642
H15_18 H 0.4391 0.3322 0.0791
B1_18 B 0.3750 0.3434(2) 0.0934(2)
C16_18 C 0.3750 0.2580(5) 0.0080(5)
C17_18 C 0.4444(3) 0.2661(3) 0.0039(3)
H17_18 H 0.4587 0.2554 0.0227
O4_16 O 0.27537(14) 0.29696(13) 0.23269(12)
O5_16 O 0.3223(2) 0.32171(19) 0.26044(17)
C18_18 C 0.36576(17) 0.30475(15) 0.15115(17)
C19_18 C 0.33086(19) 0.35948(15) 0.14576(18)
C20_18 C 0.34790(18) 0.29763(16) 0.18375(19)
C21_18 C 0.32181(17) 0.32037(16) 0.19579(18)
C22_18 C 0.39646(17) 0.27899(16) 0.13922(19)
H20_18 H 0.4178 0.2839 0.1532
H21_18 H 0.4015 0.2827 0.1141
H22_18 H 0.3891 0.2544 0.1431
C23_18 C 0.31350(18) 0.35181(16) 0.17769(16)
C24_18 C 0.3061(3) 0.3129(2) 0.2328(3)
C25_18 C 0.35674(18) 0.33564(16) 0.13171(17)
C26_18 C 0.31989(16) 0.39458(14) 0.12526(16)
H23_18 H 0.2966 0.4025 0.1334
H24_18 H 0.3189 0.3898 0.0998
H25_18 H 0.3374 0.4131 0.1299
C27_18 C 0.35878(19) 0.26308(17) 0.2056(2)
H26_18 H 0.3540 0.2420 0.1913
H27_18 H 0.3450 0.2620 0.2275
H28_18 H 0.3841 0.2641 0.2113
C28_18 C 0.3424(2) 0.2966(2) 0.0522(2)
C29_18 C 0.2848(2) 0.37745(16) 0.19311(18)
H29_18 H 0.2777 0.3693 0.2167
H30_18 H 0.2641 0.3776 0.1775
H31_18 H 0.2946 0.4014 0.1948
C30_18 C 0.3447(3) 0.2691(3) 0.0252(3)
C31_18 C 0.30739(19) 0.30829(19) 0.0672(2)
H32_18 H 0.2972 0.2891 0.0813
H33_18 H 0.2913 0.3142 0.0477
H34_18 H 0.3109 0.3291 0.0822
C32_18 C 0.3056(3) 0.2539(3) 0.0161(3)
H35_18 H 0.2913 0.2727 0.0054
H36_18 H 0.2942 0.2457 0.0379
H7_18 H 0.3960 0.4413 0.9920
H16_18 H 0.3750 0.2402 0.9902
H18_18 H 0.4558 0.2879 0.9957
H19_18 H 0.4424 0.2494 0.9841
H37_18 H 0.3076 0.2341 0.9994
C1_19 C 0.11576(17) 0.59885(17) 0.55475(15)
C2_19 C 0.08086(19) 0.60424(18) 0.60948(15)
C3_19 C 0.09790(18) 0.56625(19) 0.54763(16)
C4_19 C 0.07181(17) 0.55421(18) 0.57037(16)
C5_19 C 0.14646(17) 0.61078(19) 0.52899(16)
H1_19 H 0.1678 0.5968 0.5339
H2_19 H 0.1515 0.6359 0.5327
H3_19 H 0.1391 0.6069 0.5044
C6_19 C 0.06350(18) 0.57231(16) 0.60181(16)
C7_19 C 0.0561(3) 0.5172(3) 0.5629(2)
C8_19 C 0.10674(18) 0.61829(17) 0.58564(16)
C9_19 C 0.06989(16) 0.62474(16) 0.64458(14)
H4_19 H 0.0466 0.6166 0.6525
H5_19 H 0.0689 0.6502 0.6398
H6_19 H 0.0874 0.6201 0.6631
C10_19 C 0.1250 0.6866(2) 0.5634(2)
C11_19 C 0.10878(19) 0.5444(2) 0.51308(17)
H7_19 H 0.1040 0.5587 0.4920
H8_19 H 0.0950 0.5225 0.5120
H9_19 H 0.1341 0.5387 0.5141
C12_19 C 0.0924(2) 0.6978(2) 0.5466(2)
C13_19 C 0.0348(2) 0.55689(18) 0.62745(16)
H10_19 H 0.0277 0.5333 0.6193
H11_19 H 0.0141 0.5725 0.6276
H12_19 H 0.0446 0.5552 0.6514
C14_19 C 0.0947(3) 0.7248(3) 0.5191(3)
C15_19 C 0.05739(19) 0.6828(2) 0.55829(19)
H13_19 H 0.0472 0.6687 0.5391
H14_19 H 0.0413 0.7023 0.5642
H15_19 H 0.0609 0.6678 0.5791
B1_19 B 0.1250 0.6566(2) 0.5934(2)
C16_19 C 0.1250 0.7420(5) 0.5080(5)
H16_19 H 0.1250 0.7598 0.4902
C17_19 C 0.0556(3) 0.7339(3) 0.5039(3)
H17_19 H 0.0413 0.7446 0.5227
H18_19 H 0.0442 0.7121 0.4957
H19_19 H 0.0576 0.7506 0.4841
O4_17 O 0.22463(14) 0.70304(13) 0.73269(12)
O5_17 O 0.1777(2) 0.67829(19) 0.76044(17)
C18_19 C 0.13424(17) 0.69525(15) 0.65115(17)
C19_19 C 0.16914(19) 0.64052(15) 0.64576(18)
C20_19 C 0.15210(18) 0.70237(16) 0.68375(19)
C21_19 C 0.17819(17) 0.67963(16) 0.69579(18)
C22_19 C 0.10354(17) 0.72101(16) 0.63922(19)
H20_19 H 0.0822 0.7161 0.6532
H21_19 H 0.0985 0.7173 0.6141
H22_19 H 0.1109 0.7456 0.6431
C23_19 C 0.18650(18) 0.64819(16) 0.67769(16)
C24_19 C 0.1939(3) 0.6871(2) 0.7328(3)
C25_19 C 0.14326(18) 0.66436(16) 0.63171(17)
C26_19 C 0.18011(16) 0.60542(14) 0.62526(16)
H23_19 H 0.2034 0.5975 0.6334
H24_19 H 0.1811 0.6102 0.5998
H25_19 H 0.1626 0.5869 0.6299
C27_19 C 0.14122(19) 0.73692(17) 0.7056(2)
H26_19 H 0.1460 0.7580 0.6913
H27_19 H 0.1550 0.7380 0.7275
H28_19 H 0.1159 0.7359 0.7113
C28_19 C 0.1576(2) 0.7034(2) 0.5522(2)
C29_19 C 0.2152(2) 0.62255(16) 0.69311(18)
H29_19 H 0.2223 0.6307 0.7167
H30_19 H 0.2359 0.6224 0.6775
H31_19 H 0.2054 0.5986 0.6948
C30_19 C 0.1553(3) 0.7309(3) 0.5252(3)
C31_19 C 0.19261(19) 0.69171(19) 0.5672(2)
H32_19 H 0.2028 0.7109 0.5813
H33_19 H 0.2087 0.6858 0.5477
H34_19 H 0.1891 0.6709 0.5822
C32_19 C 0.1944(3) 0.7461(3) 0.5161(3)
H35_19 H 0.2087 0.7273 0.5054
H36_19 H 0.2058 0.7543 0.5379
H37_19 H 0.1924 0.7659 0.4994
O6_10 O 0.09106(17) 0.09106(17) 0.09106(17)
O12_8 O 0.0723(2) 0.01044(17) 0.07171(19)
O20_6 O 0.07171(19) 0.0723(2) 0.01044(17)
O17_6 O 0.04696(13) 0.02537(14) 0.98269(12)
O11_8 O 0.02537(14) 0.98269(12) 0.04696(13)
C65_9 C 0.11576(17) 0.90115(17) 0.05475(15)
C66_9 C 0.08086(19) 0.89576(18) 0.10948(15)
C67_9 C 0.09790(18) 0.93375(19) 0.04763(16)
C68_9 C 0.07181(17) 0.94579(18) 0.07037(16)
C69_9 C 0.14646(17) 0.88922(19) 0.02899(16)
H75_9 H 0.1678 0.9032 0.0339
H76_9 H 0.1515 0.8641 0.0327
H77_9 H 0.1391 0.8931 0.0044
C70_9 C 0.06350(18) 0.92769(16) 0.10181(16)
C71_9 C 0.0561(3) 0.9828(3) 0.0629(2)
C72_9 C 0.10674(18) 0.88171(17) 0.08564(16)
C73_9 C 0.06989(16) 0.87526(16) 0.14458(14)
H78_9 H 0.0466 0.8834 0.1525
H79_9 H 0.0689 0.8498 0.1398
H80_9 H 0.0874 0.8799 0.1631
C74_9 C 0.1250 0.8134(2) 0.0634(2)
C75_9 C 0.10878(19) 0.9556(2) 0.01308(17)
H82_9 H 0.0950 0.9775 0.0120
H83_9 H 0.1341 0.9613 0.0141
C76_9 C 0.0924(2) 0.8022(2) 0.0466(2)
C77_9 C 0.0348(2) 0.94311(18) 0.12745(16)
H84_9 H 0.0277 0.9667 0.1193
H85_9 H 0.0141 0.9275 0.1276
H86_9 H 0.0446 0.9448 0.1514
C78_9 C 0.0947(3) 0.7752(3) 0.0191(3)
C79_9 C 0.05739(19) 0.8172(2) 0.05829(19)
H87_9 H 0.0472 0.8313 0.0391
H88_9 H 0.0413 0.7977 0.0642
H89_9 H 0.0609 0.8322 0.0791
B3_9 B 0.1250 0.8434(2) 0.0934(2)
C80_9 C 0.1250 0.7580(5) 0.0080(5)
C81_9 C 0.0556(3) 0.7661(3) 0.0039(3)
H91_9 H 0.0413 0.7554 0.0227
O13_8 O 0.22463(14) 0.79696(13) 0.23269(12)
O14_8 O 0.1777(2) 0.82171(19) 0.26044(17)
C82_9 C 0.13424(17) 0.80475(15) 0.15115(17)
C83_9 C 0.16914(19) 0.85948(15) 0.14576(18)
C84_9 C 0.15210(18) 0.79763(16) 0.18375(19)
C85_9 C 0.17819(17) 0.82037(16) 0.19579(18)
C86_9 C 0.10354(17) 0.77899(16) 0.13922(19)
H94_9 H 0.0822 0.7839 0.1532
H95_9 H 0.0985 0.7827 0.1141
H96_9 H 0.1109 0.7544 0.1431
C87_9 C 0.18650(18) 0.85181(16) 0.17769(16)
C88_9 C 0.1939(3) 0.8129(2) 0.2328(3)
C89_9 C 0.14326(18) 0.83564(16) 0.13171(17)
C90_9 C 0.18011(16) 0.89458(14) 0.12526(16)
H97_9 H 0.2034 0.9025 0.1334
H98_9 H 0.1811 0.8898 0.0998
H99_9 H 0.1626 0.9131 0.1299
C91_9 C 0.14122(19) 0.76308(17) 0.2056(2)
H100_9 H 0.1460 0.7420 0.1913
H101_9 H 0.1550 0.7620 0.2275
H102_9 H 0.1159 0.7641 0.2113
C92_9 C 0.1576(2) 0.7966(2) 0.0522(2)
C93_9 C 0.2152(2) 0.87745(16) 0.19311(18)
H103_9 H 0.2223 0.8693 0.2167
H104_9 H 0.2359 0.8776 0.1775
H105_9 H 0.2054 0.9014 0.1948
C94_9 C 0.1553(3) 0.7691(3) 0.0252(3)
C95_9 C 0.19261(19) 0.80829(19) 0.0672(2)
H106_9 H 0.2028 0.7891 0.0813
H107_9 H 0.2087 0.8142 0.0477
H108_9 H 0.1891 0.8291 0.0822
C96_9 C 0.1944(3) 0.7539(3) 0.0161(3)
H109_9 H 0.2087 0.7727 0.0054
H110_9 H 0.2058 0.7457 0.0379
H81_9 H 0.1040 0.9413 0.9920
H90_9 H 0.1250 0.7402 0.9902
H92_9 H 0.0442 0.7879 0.9957
H93_9 H 0.0576 0.7494 0.9841
H111_9 H 0.1924 0.7341 0.9994
O15_8 O 0.01731(12) 0.95304(13) 0.97463(14)
O3_10 O 0.90894(17) 0.90894(17) 0.90894(17)
O18_8 O 0.98956(17) 0.92829(19) 0.9277(2)
O3_11 O 0.34106(17) 0.65894(17) 0.15894(17)
O6_11 O 0.15894(17) 0.84106(17) 0.34106(17)
O15_9 O 0.29696(13) 0.76731(12) 0.22463(14)
O18_9 O 0.32171(19) 0.73956(17) 0.1777(2)
O11_9 O 0.02537(14) 0.01731(12) 0.45304(13)
C65_10 C 0.11576(17) 0.09885(17) 0.44525(15)
C66_10 C 0.08086(19) 0.10424(18) 0.39052(15)
C67_10 C 0.09790(18) 0.06625(19) 0.45237(16)
C68_10 C 0.07181(17) 0.05421(18) 0.42963(16)
C69_10 C 0.14646(17) 0.11078(19) 0.47101(16)
H75_10 H 0.1678 0.0968 0.4661
H76_10 H 0.1515 0.1359 0.4673
H77_10 H 0.1391 0.1069 0.4956
C70_10 C 0.06350(18) 0.07231(16) 0.39819(16)
C71_10 C 0.0561(3) 0.0172(3) 0.4371(2)
C72_10 C 0.10674(18) 0.11829(17) 0.41436(16)
C73_10 C 0.06989(16) 0.12474(16) 0.35542(14)
H78_10 H 0.0466 0.1166 0.3475
H79_10 H 0.0689 0.1502 0.3602
H80_10 H 0.0874 0.1201 0.3369
C74_10 C 0.1250 0.1866(2) 0.4366(2)
C75_10 C 0.10878(19) 0.0444(2) 0.48692(17)
H81_10 H 0.1040 0.0587 0.5080
H82_10 H 0.0950 0.0225 0.4880
H83_10 H 0.1341 0.0387 0.4859
C76_10 C 0.0924(2) 0.1978(2) 0.4534(2)
C77_10 C 0.0348(2) 0.05689(18) 0.37255(16)
H84_10 H 0.0277 0.0333 0.3807
H85_10 H 0.0141 0.0725 0.3724
H86_10 H 0.0446 0.0552 0.3486
C78_10 C 0.0947(3) 0.2248(3) 0.4809(3)
C79_10 C 0.05739(19) 0.1828(2) 0.44171(19)
H87_10 H 0.0472 0.1687 0.4609
H88_10 H 0.0413 0.2023 0.4358
H89_10 H 0.0609 0.1678 0.4209
B3_10 B 0.1250 0.1566(2) 0.4066(2)
C80_10 C 0.1250 0.2420(5) 0.4920(5)
H90_10 H 0.1250 0.2598 0.5098
C81_10 C 0.0556(3) 0.2339(3) 0.4961(3)
H91_10 H 0.0413 0.2446 0.4773
H92_10 H 0.0442 0.2121 0.5043
H93_10 H 0.0576 0.2506 0.5159
O13_9 O 0.22463(14) 0.20304(13) 0.26731(12)
O14_9 O 0.1777(2) 0.17829(19) 0.23956(17)
C82_10 C 0.13424(17) 0.19525(15) 0.34885(17)
C83_10 C 0.16914(19) 0.14052(15) 0.35424(18)
C84_10 C 0.15210(18) 0.20237(16) 0.31625(19)
C85_10 C 0.17819(17) 0.17963(16) 0.30421(18)
C86_10 C 0.10354(17) 0.22101(16) 0.36078(19)
H94_10 H 0.0822 0.2161 0.3468
H95_10 H 0.0985 0.2173 0.3859
H96_10 H 0.1109 0.2456 0.3569
C87_10 C 0.18650(18) 0.14819(16) 0.32231(16)
C88_10 C 0.1939(3) 0.1871(2) 0.2672(3)
C89_10 C 0.14326(18) 0.16436(16) 0.36829(17)
C90_10 C 0.18011(16) 0.10542(14) 0.37474(16)
H97_10 H 0.2034 0.0975 0.3666
H98_10 H 0.1811 0.1102 0.4002
H99_10 H 0.1626 0.0869 0.3701
C91_10 C 0.14122(19) 0.23692(17) 0.2944(2)
H100_10 H 0.1460 0.2580 0.3087
H101_10 H 0.1550 0.2380 0.2725
H102_10 H 0.1159 0.2359 0.2887
C92_10 C 0.1576(2) 0.2034(2) 0.4478(2)
C93_10 C 0.2152(2) 0.12255(16) 0.30689(18)
H103_10 H 0.2223 0.1307 0.2833
H104_10 H 0.2359 0.1224 0.3225
H105_10 H 0.2054 0.0986 0.3052
C94_10 C 0.1553(3) 0.2309(3) 0.4748(3)
C95_10 C 0.19261(19) 0.19171(19) 0.4328(2)
H106_10 H 0.2028 0.2109 0.4187
H107_10 H 0.2087 0.1858 0.4523
H108_10 H 0.1891 0.1709 0.4178
C96_10 C 0.1944(3) 0.2461(3) 0.4839(3)
H109_10 H 0.2087 0.2273 0.4946
H110_10 H 0.2058 0.2543 0.4621
H111_10 H 0.1924 0.2659 0.5006
O15_10 O 0.01731(12) 0.04696(13) 0.52537(14)
O6_12 O 0.09106(17) 0.90894(17) 0.40894(17)
O12_9 O 0.0723(2) 0.98956(17) 0.42829(19)
O17_7 O 0.04696(13) 0.97463(14) 0.51731(12)
O20_7 O 0.07171(19) 0.9277(2) 0.48956(17)
O3_12 O 0.90894(17) 0.09106(17) 0.59106(17)
O18_10 O 0.98956(17) 0.07171(19) 0.5723(2)
H7_20 H 0.0587 0.0080 0.8960
H16_20 H 0.2598 0.0098 0.8750
H18_20 H 0.2121 0.0043 0.9558
H19_20 H 0.2506 0.0159 0.9424
H37_20 H 0.2659 0.0006 0.8076
C65_11 C 0.05475(15) 0.11576(17) 0.90115(17)
C66_11 C 0.10948(15) 0.08086(19) 0.89576(18)
C67_11 C 0.04763(16) 0.09790(18) 0.93375(19)
C68_11 C 0.07037(16) 0.07181(17) 0.94579(18)
C69_11 C 0.02899(16) 0.14646(17) 0.88922(19)
H75_11 H 0.0339 0.1678 0.9032
H76_11 H 0.0327 0.1515 0.8641
H77_11 H 0.0044 0.1391 0.8931
C70_11 C 0.10181(16) 0.06350(18) 0.92769(16)
C71_11 C 0.0629(2) 0.0561(3) 0.9828(3)
C72_11 C 0.08564(16) 0.10674(18) 0.88171(17)
C73_11 C 0.14458(14) 0.06989(16) 0.87526(16)
H78_11 H 0.1525 0.0466 0.8834
H79_11 H 0.1398 0.0689 0.8498
H80_11 H 0.1631 0.0874 0.8799
C74_11 C 0.0634(2) 0.1250 0.8134(2)
C75_11 C 0.01308(17) 0.10878(19) 0.9556(2)
H82_11 H 0.0120 0.0950 0.9775
H83_11 H 0.0141 0.1341 0.9613
C76_11 C 0.0466(2) 0.0924(2) 0.8022(2)
C77_11 C 0.12745(16) 0.0348(2) 0.94311(18)
H84_11 H 0.1193 0.0277 0.9667
H85_11 H 0.1276 0.0141 0.9275
H86_11 H 0.1514 0.0446 0.9448
C78_11 C 0.0191(3) 0.0947(3) 0.7752(3)
C79_11 C 0.05829(19) 0.05739(19) 0.8172(2)
H87_11 H 0.0391 0.0472 0.8313
H88_11 H 0.0642 0.0413 0.7977
H89_11 H 0.0791 0.0609 0.8322
B3_11 B 0.0934(2) 0.1250 0.8434(2)
C80_11 C 0.0080(5) 0.1250 0.7580(5)
C81_11 C 0.0039(3) 0.0556(3) 0.7661(3)
H91_11 H 0.0227 0.0413 0.7554
O13_10 O 0.23269(12) 0.22463(14) 0.79696(13)
O14_10 O 0.26044(17) 0.1777(2) 0.82171(19)
C82_11 C 0.15115(17) 0.13424(17) 0.80475(15)
C83_11 C 0.14576(18) 0.16914(19) 0.85948(15)
C84_11 C 0.18375(19) 0.15210(18) 0.79763(16)
C85_11 C 0.19579(18) 0.17819(17) 0.82037(16)
C86_11 C 0.13922(19) 0.10354(17) 0.77899(16)
H94_11 H 0.1532 0.0822 0.7839
H95_11 H 0.1141 0.0985 0.7827
H96_11 H 0.1431 0.1109 0.7544
C87_11 C 0.17769(16) 0.18650(18) 0.85181(16)
C88_11 C 0.2328(3) 0.1939(3) 0.8129(2)
C89_11 C 0.13171(17) 0.14326(18) 0.83564(16)
C90_11 C 0.12526(16) 0.18011(16) 0.89458(14)
H97_11 H 0.1334 0.2034 0.9025
H98_11 H 0.0998 0.1811 0.8898
H99_11 H 0.1299 0.1626 0.9131
C91_11 C 0.2056(2) 0.14122(19) 0.76308(17)
H100_11 H 0.1913 0.1460 0.7420
H101_11 H 0.2275 0.1550 0.7620
H102_11 H 0.2113 0.1159 0.7641
C92_11 C 0.0522(2) 0.1576(2) 0.7966(2)
C93_11 C 0.19311(18) 0.2152(2) 0.87745(16)
H103_11 H 0.2167 0.2223 0.8693
H104_11 H 0.1775 0.2359 0.8776
H105_11 H 0.1948 0.2054 0.9014
C94_11 C 0.0252(3) 0.1553(3) 0.7691(3)
C95_11 C 0.0672(2) 0.19261(19) 0.80829(19)
H106_11 H 0.0813 0.2028 0.7891
H107_11 H 0.0477 0.2087 0.8142
H108_11 H 0.0822 0.1891 0.8291
C96_11 C 0.0161(3) 0.1944(3) 0.7539(3)
H109_11 H 0.0054 0.2087 0.7727
H110_11 H 0.0379 0.2058 0.7457
C1_20 C 0.09885(17) 0.94525(15) 0.88424(17)
C2_20 C 0.10424(18) 0.89052(15) 0.91914(19)
C3_20 C 0.06625(19) 0.95237(16) 0.90210(18)
C4_20 C 0.05421(18) 0.92963(16) 0.92819(17)
C5_20 C 0.11078(19) 0.97101(16) 0.85354(17)
H1_20 H 0.0968 0.9661 0.8322
H2_20 H 0.1359 0.9673 0.8485
H3_20 H 0.1069 0.9956 0.8609
C6_20 C 0.07231(16) 0.89819(16) 0.93650(18)
C7_20 C 0.0172(3) 0.9371(2) 0.9439(3)
C8_20 C 0.11829(17) 0.91436(16) 0.89326(18)
C9_20 C 0.12474(16) 0.85542(14) 0.93011(16)
H4_20 H 0.1166 0.8475 0.9534
H5_20 H 0.1502 0.8602 0.9311
H6_20 H 0.1201 0.8369 0.9126
C10_20 C 0.1866(2) 0.9366(2) 0.8750
C11_20 C 0.0444(2) 0.98692(17) 0.89122(19)
H8_20 H 0.0225 0.9880 0.9050
H9_20 H 0.0387 0.9859 0.8659
C12_20 C 0.1978(2) 0.9534(2) 0.9076(2)
C13_20 C 0.05689(18) 0.87255(16) 0.9652(2)
H10_20 H 0.0333 0.8807 0.9723
H11_20 H 0.0725 0.8724 0.9859
H12_20 H 0.0552 0.8486 0.9554
C14_20 C 0.2248(3) 0.9809(3) 0.9053(3)
C15_20 C 0.1828(2) 0.94171(19) 0.94261(19)
H13_20 H 0.1687 0.9609 0.9528
H14_20 H 0.2023 0.9358 0.9587
H15_20 H 0.1678 0.9209 0.9391
B1_20 B 0.1566(2) 0.9066(2) 0.8750
C16_20 C 0.2420(5) 0.9920(5) 0.8750
C17_20 C 0.2339(3) 0.9961(3) 0.9444(3)
H17_20 H 0.2446 0.9773 0.9587
O4_18 O 0.20304(13) 0.76731(12) 0.77537(14)
O5_18 O 0.17829(19) 0.73956(17) 0.8223(2)
C18_20 C 0.19525(15) 0.84885(17) 0.86576(17)
C19_20 C 0.14052(15) 0.85424(18) 0.83086(19)
C20_20 C 0.20237(16) 0.81625(19) 0.84790(18)
C21_20 C 0.17963(16) 0.80421(18) 0.82181(17)
C22_20 C 0.22101(16) 0.86078(19) 0.89646(17)
H20_20 H 0.2161 0.8468 0.9178
H21_20 H 0.2173 0.8859 0.9015
H22_20 H 0.2456 0.8569 0.8891
C23_20 C 0.14819(16) 0.82231(16) 0.81350(18)
C24_20 C 0.1871(2) 0.7672(3) 0.8061(3)
C25_20 C 0.16436(16) 0.86829(17) 0.85674(18)
C26_20 C 0.10542(14) 0.87474(16) 0.81989(16)
H23_20 H 0.0975 0.8666 0.7966
H24_20 H 0.1102 0.9002 0.8189
H25_20 H 0.0869 0.8701 0.8374
C27_20 C 0.23692(17) 0.7944(2) 0.85878(19)
H26_20 H 0.2580 0.8087 0.8540
H27_20 H 0.2380 0.7725 0.8450
H28_20 H 0.2359 0.7887 0.8841
C28_20 C 0.2034(2) 0.9478(2) 0.8424(2)
C29_20 C 0.12255(16) 0.80689(18) 0.7848(2)
H29_20 H 0.1307 0.7833 0.7777
H30_20 H 0.1224 0.8225 0.7641
H31_20 H 0.0986 0.8052 0.7946
C30_20 C 0.2309(3) 0.9748(3) 0.8447(3)
C31_20 C 0.19171(19) 0.9328(2) 0.80739(19)
H32_20 H 0.2109 0.9187 0.7972
H33_20 H 0.1858 0.9523 0.7913
H34_20 H 0.1709 0.9178 0.8109
C32_20 C 0.2461(3) 0.9839(3) 0.8056(3)
H35_20 H 0.2273 0.9946 0.7913
H36_20 H 0.2543 0.9621 0.7942
H81_11 H 0.9920 0.1040 0.9413
H90_11 H 0.9902 0.1250 0.7402
H92_11 H 0.9957 0.0442 0.7879
H93_11 H 0.9841 0.0576 0.7494
H111_11 H 0.9994 0.1924 0.7341
C65_12 C 0.38424(17) 0.09885(17) 0.55475(15)
C66_12 C 0.41914(19) 0.10424(18) 0.60948(15)
C67_12 C 0.40210(18) 0.06625(19) 0.54763(16)
C68_12 C 0.42819(17) 0.05421(18) 0.57037(16)
C69_12 C 0.35354(17) 0.11078(19) 0.52899(16)
H75_12 H 0.3322 0.0968 0.5339
H76_12 H 0.3485 0.1359 0.5327
H77_12 H 0.3609 0.1069 0.5044
C70_12 C 0.43650(18) 0.07231(16) 0.60181(16)
C71_12 C 0.4439(3) 0.0172(3) 0.5629(2)
C72_12 C 0.39326(18) 0.11829(17) 0.58564(16)
C73_12 C 0.43011(16) 0.12474(16) 0.64458(14)
H78_12 H 0.4534 0.1166 0.6525
H79_12 H 0.4311 0.1502 0.6398
H80_12 H 0.4126 0.1201 0.6631
C74_12 C 0.3750 0.1866(2) 0.5634(2)
C75_12 C 0.39122(19) 0.0444(2) 0.51308(17)
H81_12 H 0.3960 0.0587 0.4920
H82_12 H 0.4050 0.0225 0.5120
H83_12 H 0.3659 0.0387 0.5141
C76_12 C 0.4076(2) 0.1978(2) 0.5466(2)
C77_12 C 0.4652(2) 0.05689(18) 0.62745(16)
H84_12 H 0.4723 0.0333 0.6193
H85_12 H 0.4859 0.0725 0.6276
H86_12 H 0.4554 0.0552 0.6514
C78_12 C 0.4053(3) 0.2248(3) 0.5191(3)
C79_12 C 0.44261(19) 0.1828(2) 0.55829(19)
H87_12 H 0.4528 0.1687 0.5391
H88_12 H 0.4587 0.2023 0.5642
H89_12 H 0.4391 0.1678 0.5791
B3_12 B 0.3750 0.1566(2) 0.5934(2)
C80_12 C 0.3750 0.2420(5) 0.5080(5)
H90_12 H 0.3750 0.2598 0.4902
C81_12 C 0.4444(3) 0.2339(3) 0.5039(3)
H91_12 H 0.4587 0.2446 0.5227
H92_12 H 0.4558 0.2121 0.4957
H93_12 H 0.4424 0.2506 0.4841
O13_11 O 0.27537(14) 0.20304(13) 0.73269(12)
O14_11 O 0.3223(2) 0.17829(19) 0.76044(17)
C82_12 C 0.36576(17) 0.19525(15) 0.65115(17)
C83_12 C 0.33086(19) 0.14052(15) 0.64576(18)
C84_12 C 0.34790(18) 0.20237(16) 0.68375(19)
C85_12 C 0.32181(17) 0.17963(16) 0.69579(18)
C86_12 C 0.39646(17) 0.22101(16) 0.63922(19)
H94_12 H 0.4178 0.2161 0.6532
H95_12 H 0.4015 0.2173 0.6141
H96_12 H 0.3891 0.2456 0.6431
C87_12 C 0.31350(18) 0.14819(16) 0.67769(16)
C88_12 C 0.3061(3) 0.1871(2) 0.7328(3)
C89_12 C 0.35674(18) 0.16436(16) 0.63171(17)
C90_12 C 0.31989(16) 0.10542(14) 0.62526(16)
H97_12 H 0.2966 0.0975 0.6334
H98_12 H 0.3189 0.1102 0.5998
H99_12 H 0.3374 0.0869 0.6299
C91_12 C 0.35878(19) 0.23692(17) 0.7056(2)
H100_12 H 0.3540 0.2580 0.6913
H101_12 H 0.3450 0.2380 0.7275
H102_12 H 0.3841 0.2359 0.7113
C92_12 C 0.3424(2) 0.2034(2) 0.5522(2)
C93_12 C 0.2848(2) 0.12255(16) 0.69311(18)
H103_12 H 0.2777 0.1307 0.7167
H104_12 H 0.2641 0.1224 0.6775
H105_12 H 0.2946 0.0986 0.6948
C94_12 C 0.3447(3) 0.2309(3) 0.5252(3)
C95_12 C 0.30739(19) 0.19171(19) 0.5672(2)
H106_12 H 0.2972 0.2109 0.5813
H107_12 H 0.2913 0.1858 0.5477
H108_12 H 0.3109 0.1709 0.5822
C96_12 C 0.3056(3) 0.2461(3) 0.5161(3)
H109_12 H 0.2913 0.2273 0.5054
H110_12 H 0.2942 0.2543 0.5379
H111_12 H 0.3076 0.2659 0.4994
O3_13 O 0.34106(17) 0.34106(17) 0.34106(17)
O6_13 O 0.15894(17) 0.15894(17) 0.15894(17)
O11_10 O 0.26731(12) 0.22463(14) 0.20304(13)
O12_10 O 0.23956(17) 0.1777(2) 0.17829(19)
C65_13 C 0.34885(17) 0.13424(17) 0.19525(15)
C66_13 C 0.35424(18) 0.16914(19) 0.14052(15)
C67_13 C 0.31625(19) 0.15210(18) 0.20237(16)
C68_13 C 0.30421(18) 0.17819(17) 0.17963(16)
C69_13 C 0.36078(19) 0.10354(17) 0.22101(16)
H75_13 H 0.3468 0.0822 0.2161
H76_13 H 0.3859 0.0985 0.2173
H77_13 H 0.3569 0.1109 0.2456
C70_13 C 0.32231(16) 0.18650(18) 0.14819(16)
C71_13 C 0.2672(3) 0.1939(3) 0.1871(2)
C72_13 C 0.36829(17) 0.14326(18) 0.16436(16)
C73_13 C 0.37474(16) 0.18011(16) 0.10542(14)
H78_13 H 0.3666 0.2034 0.0975
H79_13 H 0.4002 0.1811 0.1102
H80_13 H 0.3701 0.1626 0.0869
C74_13 C 0.4366(2) 0.1250 0.1866(2)
C75_13 C 0.2944(2) 0.14122(19) 0.23692(17)
H81_13 H 0.3087 0.1460 0.2580
H82_13 H 0.2725 0.1550 0.2380
H83_13 H 0.2887 0.1159 0.2359
C76_13 C 0.4478(2) 0.1576(2) 0.2034(2)
C77_13 C 0.30689(18) 0.2152(2) 0.12255(16)
H84_13 H 0.2833 0.2223 0.1307
H85_13 H 0.3225 0.2359 0.1224
H86_13 H 0.3052 0.2054 0.0986
C78_13 C 0.4748(3) 0.1553(3) 0.2309(3)
C79_13 C 0.4328(2) 0.19261(19) 0.19171(19)
H87_13 H 0.4187 0.2028 0.2109
H88_13 H 0.4523 0.2087 0.1858
H89_13 H 0.4178 0.1891 0.1709
B3_13 B 0.4066(2) 0.1250 0.1566(2)
C80_13 C 0.4920(5) 0.1250 0.2420(5)
H90_13 H 0.5098 0.1250 0.2598
C81_13 C 0.4839(3) 0.1944(3) 0.2461(3)
H91_13 H 0.4946 0.2087 0.2273
H92_13 H 0.4621 0.2058 0.2543
H93_13 H 0.5006 0.1924 0.2659
O13_12 O 0.45304(13) 0.02537(14) 0.01731(12)
C82_13 C 0.44525(15) 0.11576(17) 0.09885(17)
C83_13 C 0.39052(15) 0.08086(19) 0.10424(18)
C84_13 C 0.45237(16) 0.09790(18) 0.06625(19)
C85_13 C 0.42963(16) 0.07181(17) 0.05421(18)
C86_13 C 0.47101(16) 0.14646(17) 0.11078(19)
H94_13 H 0.4661 0.1678 0.0968
H95_13 H 0.4673 0.1515 0.1359
H96_13 H 0.4956 0.1391 0.1069
C87_13 C 0.39819(16) 0.06350(18) 0.07231(16)
C88_13 C 0.4371(2) 0.0561(3) 0.0172(3)
C89_13 C 0.41436(16) 0.10674(18) 0.11829(17)
C90_13 C 0.35542(14) 0.06989(16) 0.12474(16)
H97_13 H 0.3475 0.0466 0.1166
H98_13 H 0.3602 0.0689 0.1502
H99_13 H 0.3369 0.0874 0.1201
C91_13 C 0.48692(17) 0.10878(19) 0.0444(2)
H100_13 H 0.5080 0.1040 0.0587
H101_13 H 0.4880 0.0950 0.0225
H102_13 H 0.4859 0.1341 0.0387
C92_13 C 0.4534(2) 0.0924(2) 0.1978(2)
C93_13 C 0.37255(16) 0.0348(2) 0.05689(18)
H103_13 H 0.3807 0.0277 0.0333
H104_13 H 0.3724 0.0141 0.0725
H105_13 H 0.3486 0.0446 0.0552
C94_13 C 0.4809(3) 0.0947(3) 0.2248(3)
C95_13 C 0.44171(19) 0.05739(19) 0.1828(2)
H106_13 H 0.4609 0.0472 0.1687
H107_13 H 0.4358 0.0413 0.2023
H108_13 H 0.4209 0.0609 0.1678
C96_13 C 0.4961(3) 0.0556(3) 0.2339(3)
H109_13 H 0.4773 0.0413 0.2446
H110_13 H 0.5043 0.0442 0.2121
H111_13 H 0.5159 0.0576 0.2506
O15_11 O 0.29696(13) 0.23269(12) 0.27537(14)
O18_11 O 0.32171(19) 0.26044(17) 0.3223(2)
O14_12 O 0.42829(19) 0.0723(2) 0.98956(17)
O3_14 O 0.15894(17) 0.65894(17) 0.84106(17)
O6_14 O 0.34106(17) 0.84106(17) 0.65894(17)
O11_11 O 0.23269(12) 0.77537(14) 0.70304(13)
O12_11 O 0.26044(17) 0.8223(2) 0.67829(19)
C65_14 C 0.15115(17) 0.86576(17) 0.69525(15)
C66_14 C 0.14576(18) 0.83086(19) 0.64052(15)
C67_14 C 0.18375(19) 0.84790(18) 0.70237(16)
C68_14 C 0.19579(18) 0.82181(17) 0.67963(16)
C69_14 C 0.13922(19) 0.89646(17) 0.72101(16)
H75_14 H 0.1532 0.9178 0.7161
H76_14 H 0.1141 0.9015 0.7173
H77_14 H 0.1431 0.8891 0.7456
C70_14 C 0.17769(16) 0.81350(18) 0.64819(16)
C71_14 C 0.2328(3) 0.8061(3) 0.6871(2)
C72_14 C 0.13171(17) 0.85674(18) 0.66436(16)
C73_14 C 0.12526(16) 0.81989(16) 0.60542(14)
H78_14 H 0.1334 0.7966 0.5975
H79_14 H 0.0998 0.8189 0.6102
H80_14 H 0.1299 0.8374 0.5869
C74_14 C 0.0634(2) 0.8750 0.6866(2)
C75_14 C 0.2056(2) 0.85878(19) 0.73692(17)
H81_14 H 0.1913 0.8540 0.7580
H82_14 H 0.2275 0.8450 0.7380
H83_14 H 0.2113 0.8841 0.7359
C76_14 C 0.0522(2) 0.8424(2) 0.7034(2)
C77_14 C 0.19311(18) 0.7848(2) 0.62255(16)
H84_14 H 0.2167 0.7777 0.6307
H85_14 H 0.1775 0.7641 0.6224
H86_14 H 0.1948 0.7946 0.5986
C78_14 C 0.0252(3) 0.8447(3) 0.7309(3)
C79_14 C 0.0672(2) 0.80739(19) 0.69171(19)
H87_14 H 0.0813 0.7972 0.7109
H88_14 H 0.0477 0.7913 0.6858
H89_14 H 0.0822 0.8109 0.6709
B3_14 B 0.0934(2) 0.8750 0.6566(2)
C80_14 C 0.0080(5) 0.8750 0.7420(5)
C81_14 C 0.0161(3) 0.8056(3) 0.7461(3)
H91_14 H 0.0054 0.7913 0.7273
H92_14 H 0.0379 0.7942 0.7543
C82_14 C 0.05475(15) 0.88424(17) 0.59885(17)
C83_14 C 0.10948(15) 0.91914(19) 0.60424(18)
C84_14 C 0.04763(16) 0.90210(18) 0.56625(19)
C85_14 C 0.07037(16) 0.92819(17) 0.55421(18)
C86_14 C 0.02899(16) 0.85354(17) 0.61078(19)
H94_14 H 0.0339 0.8322 0.5968
H95_14 H 0.0327 0.8485 0.6359
H96_14 H 0.0044 0.8609 0.6069
C87_14 C 0.10181(16) 0.93650(18) 0.57231(16)
C88_14 C 0.0629(2) 0.9439(3) 0.5172(3)
C89_14 C 0.08564(16) 0.89326(18) 0.61829(17)
C90_14 C 0.14458(14) 0.93011(16) 0.62474(16)
H97_14 H 0.1525 0.9534 0.6166
H98_14 H 0.1398 0.9311 0.6502
H99_14 H 0.1631 0.9126 0.6201
C91_14 C 0.01308(17) 0.89122(19) 0.5444(2)
H101_14 H 0.0120 0.9050 0.5225
H102_14 H 0.0141 0.8659 0.5387
C92_14 C 0.0466(2) 0.9076(2) 0.6978(2)
C93_14 C 0.12745(16) 0.9652(2) 0.55689(18)
H103_14 H 0.1193 0.9723 0.5333
H104_14 H 0.1276 0.9859 0.5725
H105_14 H 0.1514 0.9554 0.5552
C94_14 C 0.0191(3) 0.9053(3) 0.7248(3)
C95_14 C 0.05829(19) 0.94261(19) 0.6828(2)
H106_14 H 0.0391 0.9528 0.6687
H107_14 H 0.0642 0.9587 0.7023
H108_14 H 0.0791 0.9391 0.6678
C96_14 C 0.0039(3) 0.9444(3) 0.7339(3)
H109_14 H 0.0227 0.9587 0.7446
O17_8 O 0.27537(14) 0.79696(13) 0.76731(12)
O20_8 O 0.3223(2) 0.82171(19) 0.73956(17)
H90_14 H 0.9902 0.8750 0.7598
H93_14 H 0.9994 0.8076 0.7659
H100_14 H 0.9920 0.8960 0.5587
H110_14 H 0.9957 0.9558 0.7121
H111_14 H 0.9841 0.9424 0.7506
O3_15 O 0.15894(17) 0.34106(17) 0.65894(17)
O6_15 O 0.34106(17) 0.15894(17) 0.84106(17)
O15_12 O 0.22463(14) 0.29696(13) 0.76731(12)
O16_10 O 0.20304(13) 0.23269(12) 0.72463(14)
O18_12 O 0.1777(2) 0.32171(19) 0.73956(17)
O19_10 O 0.17829(19) 0.26044(17) 0.6777(2)
H16_21 H 0.2402 0.0098 0.1250
H19_21 H 0.2341 0.0006 0.1924
H26_21 H 0.4413 0.0080 0.1040
H36_21 H 0.2879 0.0043 0.0442
H37_21 H 0.2494 0.0159 0.0576
C1_21 C 0.30475(15) 0.84885(17) 0.13424(17)
C2_21 C 0.35948(15) 0.85424(18) 0.16914(19)
C3_21 C 0.29763(16) 0.81625(19) 0.15210(18)
C4_21 C 0.32037(16) 0.80421(18) 0.17819(17)
C5_21 C 0.27899(16) 0.86078(19) 0.10354(17)
H1_21 H 0.2839 0.8468 0.0822
H2_21 H 0.2827 0.8859 0.0985
H3_21 H 0.2544 0.8569 0.1109
C6_21 C 0.35181(16) 0.82231(16) 0.18650(18)
C7_21 C 0.3129(2) 0.7672(3) 0.1939(3)
C8_21 C 0.33564(16) 0.86829(17) 0.14326(18)
C9_21 C 0.39458(14) 0.87474(16) 0.18011(16)
H4_21 H 0.4025 0.8666 0.2034
H5_21 H 0.3898 0.9002 0.1811
H6_21 H 0.4131 0.8701 0.1626
C10_21 C 0.3134(2) 0.9366(2) 0.1250
C11_21 C 0.26308(17) 0.7944(2) 0.14122(19)
H7_21 H 0.2420 0.8087 0.1460
H8_21 H 0.2620 0.7725 0.1550
H9_21 H 0.2641 0.7887 0.1159
C12_21 C 0.2966(2) 0.9478(2) 0.1576(2)
C13_21 C 0.37745(16) 0.80689(18) 0.2152(2)
H10_21 H 0.3693 0.7833 0.2223
H11_21 H 0.3776 0.8225 0.2359
H12_21 H 0.4014 0.8052 0.2054
C14_21 C 0.2691(3) 0.9748(3) 0.1553(3)
C15_21 C 0.30829(19) 0.9328(2) 0.19261(19)
H13_21 H 0.2891 0.9187 0.2028
H14_21 H 0.3142 0.9523 0.2087
H15_21 H 0.3291 0.9178 0.1891
B1_21 B 0.3434(2) 0.9066(2) 0.1250
C16_21 C 0.2580(5) 0.9920(5) 0.1250
C17_21 C 0.2539(3) 0.9839(3) 0.1944(3)
H17_21 H 0.2727 0.9946 0.2087
H18_21 H 0.2457 0.9621 0.2058
O4_19 O 0.48269(12) 0.95304(13) 0.02537(14)
O5_19 O 0.51044(17) 0.92829(19) 0.0723(2)
C18_21 C 0.40115(17) 0.94525(15) 0.11576(17)
C19_21 C 0.39576(18) 0.89052(15) 0.08086(19)
C20_21 C 0.43375(19) 0.95237(16) 0.09790(18)
C21_21 C 0.44579(18) 0.92963(16) 0.07181(17)
C22_21 C 0.38922(19) 0.97101(16) 0.14646(17)
H20_21 H 0.4032 0.9661 0.1678
H21_21 H 0.3641 0.9673 0.1515
H22_21 H 0.3931 0.9956 0.1391
C23_21 C 0.42769(16) 0.89819(16) 0.06350(18)
C24_21 C 0.4828(3) 0.9371(2) 0.0561(3)
C25_21 C 0.38171(17) 0.91436(16) 0.10674(18)
C26_21 C 0.37526(16) 0.85542(14) 0.06989(16)
H23_21 H 0.3834 0.8475 0.0466
H24_21 H 0.3498 0.8602 0.0689
H25_21 H 0.3799 0.8369 0.0874
C27_21 C 0.4556(2) 0.98692(17) 0.10878(19)
H27_21 H 0.4775 0.9880 0.0950
H28_21 H 0.4613 0.9859 0.1341
C28_21 C 0.3022(2) 0.9534(2) 0.0924(2)
C29_21 C 0.44311(18) 0.87255(16) 0.0348(2)
H29_21 H 0.4667 0.8807 0.0277
H30_21 H 0.4275 0.8724 0.0141
H31_21 H 0.4448 0.8486 0.0446
C30_21 C 0.2752(3) 0.9809(3) 0.0947(3)
C31_21 C 0.3172(2) 0.94171(19) 0.05739(19)
H32_21 H 0.3313 0.9609 0.0472
H33_21 H 0.2977 0.9358 0.0413
H34_21 H 0.3322 0.9209 0.0609
C32_21 C 0.2661(3) 0.9961(3) 0.0556(3)
H35_21 H 0.2554 0.9773 0.0413
O6_16 O 0.40894(17) 0.09106(17) 0.90894(17)
O8_9 O 0.4277(2) 0.01044(17) 0.92829(19)
O3_16 O 0.59106(17) 0.90894(17) 0.09106(17)
H44_10 H 0.3960 0.9413 0.0080
H53_10 H 0.3750 0.7402 0.0098
H55_10 H 0.4558 0.7879 0.0043
H56_10 H 0.4424 0.7494 0.0159
H74_10 H 0.3076 0.7341 0.0006
O7_9 O 0.47463(14) 0.98269(12) 0.95304(13)
C33_10 C 0.38424(17) 0.90115(17) 0.94525(15)
C34_10 C 0.41914(19) 0.89576(18) 0.89052(15)
C35_10 C 0.40210(18) 0.93375(19) 0.95237(16)
C36_10 C 0.42819(17) 0.94579(18) 0.92963(16)
C37_10 C 0.35354(17) 0.88922(19) 0.97101(16)
H38_10 H 0.3322 0.9032 0.9661
H39_10 H 0.3485 0.8641 0.9673
H40_10 H 0.3609 0.8931 0.9956
C38_10 C 0.43650(18) 0.92769(16) 0.89819(16)
C39_10 C 0.4439(3) 0.9828(3) 0.9371(2)
C40_10 C 0.39326(18) 0.88171(17) 0.91436(16)
C41_10 C 0.43011(16) 0.87526(16) 0.85542(14)
H41_10 H 0.4534 0.8834 0.8475
H42_10 H 0.4311 0.8498 0.8602
H43_10 H 0.4126 0.8799 0.8369
C42_10 C 0.3750 0.8134(2) 0.9366(2)
C43_10 C 0.39122(19) 0.9556(2) 0.98692(17)
H45_10 H 0.4050 0.9775 0.9880
H46_10 H 0.3659 0.9613 0.9859
C44_10 C 0.4076(2) 0.8022(2) 0.9534(2)
C45_10 C 0.4652(2) 0.94311(18) 0.87255(16)
H47_10 H 0.4723 0.9667 0.8807
H48_10 H 0.4859 0.9275 0.8724
H49_10 H 0.4554 0.9448 0.8486
C46_10 C 0.4053(3) 0.7752(3) 0.9809(3)
C47_10 C 0.44261(19) 0.8172(2) 0.94171(19)
H50_10 H 0.4528 0.8313 0.9609
H51_10 H 0.4587 0.7977 0.9358
H52_10 H 0.4391 0.8322 0.9209
B2_10 B 0.3750 0.8434(2) 0.9066(2)
C48_10 C 0.3750 0.7580(5) 0.9920(5)
C49_10 C 0.4444(3) 0.7661(3) 0.9961(3)
H54_10 H 0.4587 0.7554 0.9773
C50_10 C 0.36576(17) 0.80475(15) 0.84885(17)
C51_10 C 0.33086(19) 0.85948(15) 0.85424(18)
C52_10 C 0.34790(18) 0.79763(16) 0.81625(19)
C53_10 C 0.32181(17) 0.82037(16) 0.80421(18)
C54_10 C 0.39646(17) 0.77899(16) 0.86078(19)
H57_10 H 0.4178 0.7839 0.8468
H58_10 H 0.4015 0.7827 0.8859
H59_10 H 0.3891 0.7544 0.8569
C55_10 C 0.31350(18) 0.85181(16) 0.82231(16)
C56_10 C 0.3061(3) 0.8129(2) 0.7672(3)
C57_10 C 0.35674(18) 0.83564(16) 0.86829(17)
C58_10 C 0.31989(16) 0.89458(14) 0.87474(16)
H60_10 H 0.2966 0.9025 0.8666
H61_10 H 0.3189 0.8898 0.9002
H62_10 H 0.3374 0.9131 0.8701
C59_10 C 0.35878(19) 0.76308(17) 0.7944(2)
H63_10 H 0.3540 0.7420 0.8087
H64_10 H 0.3450 0.7620 0.7725
H65_10 H 0.3841 0.7641 0.7887
C60_10 C 0.3424(2) 0.7966(2) 0.9478(2)
C61_10 C 0.2848(2) 0.87745(16) 0.80689(18)
H66_10 H 0.2777 0.8693 0.7833
H67_10 H 0.2641 0.8776 0.8225
H68_10 H 0.2946 0.9014 0.8052
C62_10 C 0.3447(3) 0.7691(3) 0.9748(3)
C63_10 C 0.30739(19) 0.80829(19) 0.9328(2)
H69_10 H 0.2972 0.7891 0.9187
H70_10 H 0.2913 0.8142 0.9523
H71_10 H 0.3109 0.8291 0.9178
C64_10 C 0.3056(3) 0.7539(3) 0.9839(3)
H72_10 H 0.2913 0.7727 0.9946
H73_10 H 0.2942 0.7457 0.9621
C1_22 C 0.09885(17) 0.05475(15) 0.61576(17)
C2_22 C 0.10424(18) 0.10948(15) 0.58086(19)
C3_22 C 0.06625(19) 0.04763(16) 0.59790(18)
C4_22 C 0.05421(18) 0.07037(16) 0.57181(17)
C5_22 C 0.11078(19) 0.02899(16) 0.64646(17)
H1_22 H 0.0968 0.0339 0.6678
H2_22 H 0.1359 0.0327 0.6515
H3_22 H 0.1069 0.0044 0.6391
C6_22 C 0.07231(16) 0.10181(16) 0.56350(18)
C7_22 C 0.0172(3) 0.0629(2) 0.5561(3)
C8_22 C 0.11829(17) 0.08564(16) 0.60674(18)
C9_22 C 0.12474(16) 0.14458(14) 0.56989(16)
H4_22 H 0.1166 0.1525 0.5466
H5_22 H 0.1502 0.1398 0.5689
H6_22 H 0.1201 0.1631 0.5874
C10_22 C 0.1866(2) 0.0634(2) 0.6250
C11_22 C 0.0444(2) 0.01308(17) 0.60878(19)
H8_22 H 0.0225 0.0120 0.5950
H9_22 H 0.0387 0.0141 0.6341
C12_22 C 0.1978(2) 0.0466(2) 0.5924(2)
C13_22 C 0.05689(18) 0.12745(16) 0.5348(2)
H10_22 H 0.0333 0.1193 0.5277
H11_22 H 0.0725 0.1276 0.5141
H12_22 H 0.0552 0.1514 0.5446
C14_22 C 0.2248(3) 0.0191(3) 0.5947(3)
C15_22 C 0.1828(2) 0.05829(19) 0.55739(19)
H13_22 H 0.1687 0.0391 0.5472
H14_22 H 0.2023 0.0642 0.5413
H15_22 H 0.1678 0.0791 0.5609
B1_22 B 0.1566(2) 0.0934(2) 0.6250
C16_22 C 0.2420(5) 0.0080(5) 0.6250
C17_22 C 0.2339(3) 0.0039(3) 0.5556(3)
H17_22 H 0.2446 0.0227 0.5413
C18_22 C 0.19525(15) 0.15115(17) 0.63424(17)
C19_22 C 0.14052(15) 0.14576(18) 0.66914(19)
C20_22 C 0.20237(16) 0.18375(19) 0.65210(18)
C21_22 C 0.17963(16) 0.19579(18) 0.67819(17)
C22_22 C 0.22101(16) 0.13922(19) 0.60354(17)
H20_22 H 0.2161 0.1532 0.5822
H21_22 H 0.2173 0.1141 0.5985
H22_22 H 0.2456 0.1431 0.6109
C23_22 C 0.14819(16) 0.17769(16) 0.68650(18)
C24_22 C 0.1871(2) 0.2328(3) 0.6939(3)
C25_22 C 0.16436(16) 0.13171(17) 0.64326(18)
C26_22 C 0.10542(14) 0.12526(16) 0.68011(16)
H23_22 H 0.0975 0.1334 0.7034
H24_22 H 0.1102 0.0998 0.6811
H25_22 H 0.0869 0.1299 0.6626
C27_22 C 0.23692(17) 0.2056(2) 0.64122(19)
H26_22 H 0.2580 0.1913 0.6460
H27_22 H 0.2380 0.2275 0.6550
H28_22 H 0.2359 0.2113 0.6159
C28_22 C 0.2034(2) 0.0522(2) 0.6576(2)
C29_22 C 0.12255(16) 0.19311(18) 0.7152(2)
H29_22 H 0.1307 0.2167 0.7223
H30_22 H 0.1224 0.1775 0.7359
H31_22 H 0.0986 0.1948 0.7054
C30_22 C 0.2309(3) 0.0252(3) 0.6553(3)
C31_22 C 0.19171(19) 0.0672(2) 0.69261(19)
H32_22 H 0.2109 0.0813 0.7028
H33_22 H 0.1858 0.0477 0.7087
H34_22 H 0.1709 0.0822 0.6891
C32_22 C 0.2461(3) 0.0161(3) 0.6944(3)
H35_22 H 0.2273 0.0054 0.7087
H36_22 H 0.2543 0.0379 0.7058
H7_22 H 0.0587 0.9920 0.6040
H16_22 H 0.2598 0.9902 0.6250
H18_22 H 0.2121 0.9957 0.5442
H19_22 H 0.2506 0.9841 0.5576
H37_22 H 0.2659 0.9994 0.6924
H16_23 H 0.1250 0.2402 0.0098
H19_23 H 0.1924 0.2341 0.0006
H26_23 H 0.1040 0.4413 0.0080
H36_23 H 0.0442 0.2879 0.0043
H37_23 H 0.0576 0.2494 0.0159
C1_23 C 0.13424(17) 0.30475(15) 0.84885(17)
C2_23 C 0.16914(19) 0.35948(15) 0.85424(18)
C3_23 C 0.15210(18) 0.29763(16) 0.81625(19)
C4_23 C 0.17819(17) 0.32037(16) 0.80421(18)
C5_23 C 0.10354(17) 0.27899(16) 0.86078(19)
H1_23 H 0.0822 0.2839 0.8468
H2_23 H 0.0985 0.2827 0.8859
H3_23 H 0.1109 0.2544 0.8569
C6_23 C 0.18650(18) 0.35181(16) 0.82231(16)
C7_23 C 0.1939(3) 0.3129(2) 0.7672(3)
C8_23 C 0.14326(18) 0.33564(16) 0.86829(17)
C9_23 C 0.18011(16) 0.39458(14) 0.87474(16)
H4_23 H 0.2034 0.4025 0.8666
H5_23 H 0.1811 0.3898 0.9002
H6_23 H 0.1626 0.4131 0.8701
C10_23 C 0.1250 0.3134(2) 0.9366(2)
C11_23 C 0.14122(19) 0.26308(17) 0.7944(2)
H7_23 H 0.1460 0.2420 0.8087
H8_23 H 0.1550 0.2620 0.7725
H9_23 H 0.1159 0.2641 0.7887
C12_23 C 0.1576(2) 0.2966(2) 0.9478(2)
C13_23 C 0.2152(2) 0.37745(16) 0.80689(18)
H10_23 H 0.2223 0.3693 0.7833
H11_23 H 0.2359 0.3776 0.8225
H12_23 H 0.2054 0.4014 0.8052
C14_23 C 0.1553(3) 0.2691(3) 0.9748(3)
C15_23 C 0.19261(19) 0.30829(19) 0.9328(2)
H13_23 H 0.2028 0.2891 0.9187
H14_23 H 0.2087 0.3142 0.9523
H15_23 H 0.1891 0.3291 0.9178
B1_23 B 0.1250 0.3434(2) 0.9066(2)
C16_23 C 0.1250 0.2580(5) 0.9920(5)
C17_23 C 0.1944(3) 0.2539(3) 0.9839(3)
H17_23 H 0.2087 0.2727 0.9946
H18_23 H 0.2058 0.2457 0.9621
C18_23 C 0.11576(17) 0.40115(17) 0.94525(15)
C19_23 C 0.08086(19) 0.39576(18) 0.89052(15)
C20_23 C 0.09790(18) 0.43375(19) 0.95237(16)
C21_23 C 0.07181(17) 0.44579(18) 0.92963(16)
C22_23 C 0.14646(17) 0.38922(19) 0.97101(16)
H20_23 H 0.1678 0.4032 0.9661
H21_23 H 0.1515 0.3641 0.9673
H22_23 H 0.1391 0.3931 0.9956
C23_23 C 0.06350(18) 0.42769(16) 0.89819(16)
C24_23 C 0.0561(3) 0.4828(3) 0.9371(2)
C25_23 C 0.10674(18) 0.38171(17) 0.91436(16)
C26_23 C 0.06989(16) 0.37526(16) 0.85542(14)
H23_23 H 0.0466 0.3834 0.8475
H24_23 H 0.0689 0.3498 0.8602
H25_23 H 0.0874 0.3799 0.8369
C27_23 C 0.10878(19) 0.4556(2) 0.98692(17)
H27_23 H 0.0950 0.4775 0.9880
H28_23 H 0.1341 0.4613 0.9859
C28_23 C 0.0924(2) 0.3022(2) 0.9534(2)
C29_23 C 0.0348(2) 0.44311(18) 0.87255(16)
H29_23 H 0.0277 0.4667 0.8807
H30_23 H 0.0141 0.4275 0.8724
H31_23 H 0.0446 0.4448 0.8486
C30_23 C 0.0947(3) 0.2752(3) 0.9809(3)
C31_23 C 0.05739(19) 0.3172(2) 0.94171(19)
H32_23 H 0.0472 0.3313 0.9609
H33_23 H 0.0413 0.2977 0.9358
H34_23 H 0.0609 0.3322 0.9209
C32_23 C 0.0556(3) 0.2661(3) 0.9961(3)
H35_23 H 0.0413 0.2554 0.9773
C1_24 C 0.40115(17) 0.05475(15) 0.38424(17)
C2_24 C 0.39576(18) 0.10948(15) 0.41914(19)
C3_24 C 0.43375(19) 0.04763(16) 0.40210(18)
C4_24 C 0.44579(18) 0.07037(16) 0.42819(17)
C5_24 C 0.38922(19) 0.02899(16) 0.35354(17)
H1_24 H 0.4032 0.0339 0.3322
H2_24 H 0.3641 0.0327 0.3485
H3_24 H 0.3931 0.0044 0.3609
C6_24 C 0.42769(16) 0.10181(16) 0.43650(18)
C7_24 C 0.4828(3) 0.0629(2) 0.4439(3)
C8_24 C 0.38171(17) 0.08564(16) 0.39326(18)
C9_24 C 0.37526(16) 0.14458(14) 0.43011(16)
H4_24 H 0.3834 0.1525 0.4534
H5_24 H 0.3498 0.1398 0.4311
H6_24 H 0.3799 0.1631 0.4126
C10_24 C 0.3134(2) 0.0634(2) 0.3750
C11_24 C 0.4556(2) 0.01308(17) 0.39122(19)
H8_24 H 0.4775 0.0120 0.4050
H9_24 H 0.4613 0.0141 0.3659
C12_24 C 0.3022(2) 0.0466(2) 0.4076(2)
C13_24 C 0.44311(18) 0.12745(16) 0.4652(2)
H10_24 H 0.4667 0.1193 0.4723
H11_24 H 0.4275 0.1276 0.4859
H12_24 H 0.4448 0.1514 0.4554
C14_24 C 0.2752(3) 0.0191(3) 0.4053(3)
C15_24 C 0.3172(2) 0.05829(19) 0.44261(19)
H13_24 H 0.3313 0.0391 0.4528
H14_24 H 0.2977 0.0642 0.4587
H15_24 H 0.3322 0.0791 0.4391
B1_24 B 0.3434(2) 0.0934(2) 0.3750
C16_24 C 0.2580(5) 0.0080(5) 0.3750
C17_24 C 0.2661(3) 0.0039(3) 0.4444(3)
H17_24 H 0.2554 0.0227 0.4587
C18_24 C 0.30475(15) 0.15115(17) 0.36576(17)
C19_24 C 0.35948(15) 0.14576(18) 0.33086(19)
C20_24 C 0.29763(16) 0.18375(19) 0.34790(18)
C21_24 C 0.32037(16) 0.19579(18) 0.32181(17)
C22_24 C 0.27899(16) 0.13922(19) 0.39646(17)
H20_24 H 0.2839 0.1532 0.4178
H21_24 H 0.2827 0.1141 0.4015
H22_24 H 0.2544 0.1431 0.3891
C23_24 C 0.35181(16) 0.17769(16) 0.31350(18)
C24_24 C 0.3129(2) 0.2328(3) 0.3061(3)
C25_24 C 0.33564(16) 0.13171(17) 0.35674(18)
C26_24 C 0.39458(14) 0.12526(16) 0.31989(16)
H23_24 H 0.4025 0.1334 0.2966
H24_24 H 0.3898 0.0998 0.3189
H25_24 H 0.4131 0.1299 0.3374
C27_24 C 0.26308(17) 0.2056(2) 0.35878(19)
H26_24 H 0.2420 0.1913 0.3540
H27_24 H 0.2620 0.2275 0.3450
H28_24 H 0.2641 0.2113 0.3841
C28_24 C 0.2966(2) 0.0522(2) 0.3424(2)
C29_24 C 0.37745(16) 0.19311(18) 0.2848(2)
H29_24 H 0.3693 0.2167 0.2777
H30_24 H 0.3776 0.1775 0.2641
H31_24 H 0.4014 0.1948 0.2946
C30_24 C 0.2691(3) 0.0252(3) 0.3447(3)
C31_24 C 0.30829(19) 0.0672(2) 0.30739(19)
H32_24 H 0.2891 0.0813 0.2972
H33_24 H 0.3142 0.0477 0.2913
H34_24 H 0.3291 0.0822 0.3109
C32_24 C 0.2539(3) 0.0161(3) 0.3056(3)
H35_24 H 0.2727 0.0054 0.2913
H36_24 H 0.2457 0.0379 0.2942
H7_24 H 0.4413 0.9920 0.3960
H16_24 H 0.2402 0.9902 0.3750
H18_24 H 0.2879 0.9957 0.4558
H19_24 H 0.2494 0.9841 0.4424
H37_24 H 0.2341 0.9994 0.3076
loop_
_geom_bond_atom_site_label_1
_geom_bond_atom_site_label_2
_geom_bond_site_symmetry_1
_geom_bond_site_symmetry_2
Zn1 O1 1_555 1_555
Zn2 O2 1_555 1_555
O1 C7 1_555 1_555
O2 C7 1_555 1_555
O3 Zn2 1_555 1_555
C1 C3 1_555 1_555
C2 C6 1_555 1_555
C3 C4 1_555 1_555
C4 C6 1_555 1_555
C5 C1 1_555 1_555
H1 C5 1_555 1_555
H2 C5 1_555 1_555
H3 C5 1_555 1_555
C6 C13 1_555 1_555
C7 C4 1_555 1_555
C8 C1 1_555 1_555
C9 C2 1_555 1_555
H4 C9 1_555 1_555
H5 C9 1_555 1_555
H6 C9 1_555 1_555
C10 C12 1_555 1_555
C11 C3 1_555 1_555
H7 C11 1_555 1_555
H8 C11 1_555 1_555
H9 C11 1_555 1_555
C12 C14 1_555 1_555
C13 H10 1_555 1_555
H11 C13 1_555 1_555
H12 C13 1_555 1_555
C14 C16 1_555 1_555
C15 C12 1_555 1_555
H13 C15 1_555 1_555
H14 C15 1_555 1_555
H15 C15 1_555 1_555
B1 C8 1_555 1_555
C16 H16 1_555 1_555
C17 C14 1_555 1_555
H17 C17 1_555 1_555
H18 C17 1_555 1_555
H19 C17 1_555 1_555
O4 C24 1_555 1_555
O5 C24 1_555 1_555
C18 C20 1_555 1_555
C19 C23 1_555 1_555
C20 C21 1_555 1_555
C21 C23 1_555 1_555
C22 C18 1_555 1_555
H20 C22 1_555 1_555
H21 C22 1_555 1_555
H22 C22 1_555 1_555
C23 C29 1_555 1_555
C24 C21 1_555 1_555
C25 B1 1_555 1_555
C26 C19 1_555 1_555
H23 C26 1_555 1_555
H24 C26 1_555 1_555
H25 C26 1_555 1_555
C27 C20 1_555 1_555
H26 C27 1_555 1_555
H27 C27 1_555 1_555
H28 C27 1_555 1_555
C28 C10 1_555 1_555
C29 H29 1_555 1_555
H30 C29 1_555 1_555
H31 C29 1_555 1_555
C30 C16 1_555 1_555
C31 C28 1_555 1_555
H32 C31 1_555 1_555
H33 C31 1_555 1_555
H34 C31 1_555 1_555
C32 C30 1_555 1_555
H35 C32 1_555 1_555
H36 C32 1_555 1_555
H37 C32 1_555 1_555
Zn3 O6 1_555 1_555
O7 Zn1 1_555 1_555
O8 Zn3 1_555 1_555
C33 C35 1_555 1_555
C34 C38 1_555 1_555
C35 C36 1_555 1_555
C36 C38 1_555 1_555
C37 C33 1_555 1_555
H38 C37 1_555 1_555
H39 C37 1_555 1_555
H40 C37 1_555 1_555
C38 C45 1_555 1_555
C39 O7 1_555 1_555
C40 C33 1_555 1_555
C41 C34 1_555 1_555
H41 C41 1_555 1_555
H42 C41 1_555 1_555
H43 C41 1_555 1_555
C42 C44 1_555 1_555
C43 C35 1_555 1_555
H44 C43 1_555 1_555
H45 C43 1_555 1_555
H46 C43 1_555 1_555
C44 C46 1_555 1_555
C45 H47 1_555 1_555
H48 C45 1_555 1_555
H49 C45 1_555 1_555
C46 C48 1_555 1_555
C47 C44 1_555 1_555
H50 C47 1_555 1_555
H51 C47 1_555 1_555
H52 C47 1_555 1_555
B2 C40 1_555 1_555
C48 H53 1_555 1_555
C49 C46 1_555 1_555
H54 C49 1_555 1_555
H55 C49 1_555 1_555
H56 C49 1_555 1_555
O9 C56 1_555 1_555
O10 C56 1_555 1_555
C50 C52 1_555 1_555
C51 C55 1_555 1_555
C52 C53 1_555 1_555
C53 C55 1_555 1_555
C54 C50 1_555 1_555
H57 C54 1_555 1_555
H58 C54 1_555 1_555
H59 C54 1_555 1_555
C55 C61 1_555 1_555
C56 C53 1_555 1_555
C57 B2 1_555 1_555
C58 C51 1_555 1_555
H60 C58 1_555 1_555
H61 C58 1_555 1_555
H62 C58 1_555 1_555
C59 C52 1_555 1_555
H63 C59 1_555 1_555
H64 C59 1_555 1_555
H65 C59 1_555 1_555
C60 C42 1_555 1_555
C61 H66 1_555 1_555
H67 C61 1_555 1_555
H68 C61 1_555 1_555
C62 C48 1_555 1_555
C63 C60 1_555 1_555
H69 C63 1_555 1_555
H70 C63 1_555 1_555
H71 C63 1_555 1_555
C64 C62 1_555 1_555
H72 C64 1_555 1_555
H73 C64 1_555 1_555
H74 C64 1_555 1_555
O11 Zn1 1_555 1_555
O12 Zn3 1_555 1_555
C65 C67 1_555 1_555
C66 C70 1_555 1_555
C67 C68 1_555 1_555
C68 C70 1_555 1_555
C69 C65 1_555 1_555
H75 C69 1_555 1_555
H76 C69 1_555 1_555
H77 C69 1_555 1_555
C70 C77 1_555 1_555
C71 O11 1_555 1_555
C72 C65 1_555 1_555
C73 C66 1_555 1_555
H78 C73 1_555 1_555
H79 C73 1_555 1_555
H80 C73 1_555 1_555
C74 C76 1_555 1_555
C75 C67 1_555 1_555
H81 C75 1_555 1_555
H82 C75 1_555 1_555
H83 C75 1_555 1_555
C76 C78 1_555 1_555
C77 H84 1_555 1_555
H85 C77 1_555 1_555
H86 C77 1_555 1_555
C78 C80 1_555 1_555
C79 C76 1_555 1_555
H87 C79 1_555 1_555
H88 C79 1_555 1_555
H89 C79 1_555 1_555
B3 C72 1_555 1_555
C80 H90 1_555 1_555
C81 C78 1_555 1_555
H91 C81 1_555 1_555
H92 C81 1_555 1_555
H93 C81 1_555 1_555
O13 C88 1_555 1_555
O14 C88 1_555 1_555
C82 C84 1_555 1_555
C83 C87 1_555 1_555
C84 C85 1_555 1_555
C85 C87 1_555 1_555
C86 C82 1_555 1_555
H94 C86 1_555 1_555
H95 C86 1_555 1_555
H96 C86 1_555 1_555
C87 C93 1_555 1_555
C88 C85 1_555 1_555
C89 B3 1_555 1_555
C90 C83 1_555 1_555
H97 C90 1_555 1_555
H98 C90 1_555 1_555
H99 C90 1_555 1_555
C91 C84 1_555 1_555
H100 C91 1_555 1_555
H101 C91 1_555 1_555
H102 C91 1_555 1_555
C92 C74 1_555 1_555
C93 H103 1_555 1_555
H104 C93 1_555 1_555
H105 C93 1_555 1_555
C94 C80 1_555 1_555
C95 C92 1_555 1_555
H106 C95 1_555 1_555
H107 C95 1_555 1_555
H108 C95 1_555 1_555
C96 C94 1_555 1_555
H109 C96 1_555 1_555
H110 C96 1_555 1_555
H111 C96 1_555 1_555
Zn4 O13 1_555 1_555
Zn5 O9 1_555 1_555
Zn6 O4 1_555 1_555
Zn7 O5 1_555 1_555
Zn8 O10 1_555 1_555
Zn9 O14 1_555 1_555
O15 Zn1 1_555 1_555
O16 Zn1 1_555 1_555
O17 Zn1 1_555 1_555
O18 Zn2 1_555 1_555
O19 Zn2 1_555 1_555
O20 Zn3 1_555 1_555
C2 C8 1_555 1_555
C10 B1 1_555 1_555
C18 C25 1_555 1_555
C19 C25 1_555 1_555
C28 C30 1_555 1_555
O8 C39 1_555 1_555
C34 C40 1_555 1_555
C36 C39 1_555 1_555
C42 B2 1_555 1_555
C50 C57 1_555 1_555
C51 C57 1_555 1_555
C60 C62 1_555 1_555
O12 C71 1_555 1_555
C66 C72 1_555 1_555
C68 C71 1_555 1_555
C74 B3 1_555 1_555
C82 C89 1_555 1_555
C83 C89 1_555 1_555
C92 C94 1_555 1_555
Zn9_2 O14_2 1_555 1_555
Zn4 O1_2 1_555 1_555
Zn2_2 O2_2 1_555 1_555
O1_2 C7_2 1_555 1_555
O2_2 C7_2 1_555 1_555
O3_2 Zn2_2 1_555 1_555
C1_2 C3_2 1_555 1_555
C2_2 C6_2 1_555 1_555
C3_2 C4_2 1_555 1_555
C4_2 C6_2 1_555 1_555
C5_2 C1_2 1_555 1_555
H1_2 C5_2 1_555 1_555
H2_2 C5_2 1_555 1_555
H3_2 C5_2 1_555 1_555
C6_2 C13_2 1_555 1_555
C7_2 C4_2 1_555 1_555
C8_2 C1_2 1_555 1_555
C9_2 C2_2 1_555 1_555
H4_2 C9_2 1_555 1_555
H5_2 C9_2 1_555 1_555
H6_2 C9_2 1_555 1_555
C10_2 C12_2 1_555 1_555
C11_2 C3_2 1_555 1_555
H7_2 C11_2 1_555 1_555
H8_2 C11_2 1_555 1_555
H9_2 C11_2 1_555 1_555
C12_2 C14_2 1_555 1_555
C13_2 H10_2 1_555 1_555
H11_2 C13_2 1_555 1_555
H12_2 C13_2 1_555 1_555
C14_2 C16_2 1_555 1_555
C15_2 C12_2 1_555 1_555
H13_2 C15_2 1_555 1_555
H14_2 C15_2 1_555 1_555
H15_2 C15_2 1_555 1_555
B1_2 C8_2 1_555 1_555
C17_2 C14_2 1_555 1_555
H17_2 C17_2 1_555 1_555
H18_2 C17_2 1_555 1_555
O4_2 C24_2 1_555 1_555
C18_2 C20_2 1_555 1_555
C19_2 C23_2 1_555 1_555
C20_2 C21_2 1_555 1_555
C21_2 C23_2 1_555 1_555
C22_2 C18_2 1_555 1_555
H20_2 C22_2 1_555 1_555
H21_2 C22_2 1_555 1_555
H22_2 C22_2 1_555 1_555
C23_2 C29_2 1_555 1_555
C24_2 C21_2 1_555 1_555
C25_2 B1_2 1_555 1_555
C26_2 C19_2 1_555 1_555
H23_2 C26_2 1_555 1_555
H24_2 C26_2 1_555 1_555
H25_2 C26_2 1_555 1_555
C27_2 C20_2 1_555 1_555
H27_2 C27_2 1_555 1_555
H28_2 C27_2 1_555 1_555
C28_2 C10_2 1_555 1_555
C29_2 H29_2 1_555 1_555
H30_2 C29_2 1_555 1_555
H31_2 C29_2 1_555 1_555
C30_2 C16_2 1_555 1_555
C31_2 C28_2 1_555 1_555
H32_2 C31_2 1_555 1_555
H33_2 C31_2 1_555 1_555
H34_2 C31_2 1_555 1_555
C32_2 C30_2 1_555 1_555
H35_2 C32_2 1_555 1_555
Zn9 O6_2 1_555 1_555
O7_2 Zn4 1_555 1_555
O8_2 Zn9 1_555 1_555
C33_2 C35_2 1_555 1_555
C34_2 C38_2 1_555 1_555
C35_2 C36_2 1_555 1_555
C36_2 C38_2 1_555 1_555
C37_2 C33_2 1_555 1_555
H38_2 C37_2 1_555 1_555
H39_2 C37_2 1_555 1_555
H40_2 C37_2 1_555 1_555
C38_2 C45_2 1_555 1_555
C39_2 O7_2 1_555 1_555
C40_2 C33_2 1_555 1_555
C41_2 C34_2 1_555 1_555
H41_2 C41_2 1_555 1_555
H42_2 C41_2 1_555 1_555
H43_2 C41_2 1_555 1_555
C42_2 C44_2 1_555 1_555
C43_2 C35_2 1_555 1_555
H44_2 C43_2 1_555 1_555
H45_2 C43_2 1_555 1_555
H46_2 C43_2 1_555 1_555
C44_2 C46_2 1_555 1_555
C45_2 H47_2 1_555 1_555
H48_2 C45_2 1_555 1_555
H49_2 C45_2 1_555 1_555
C46_2 C48_2 1_555 1_555
C47_2 C44_2 1_555 1_555
H50_2 C47_2 1_555 1_555
H51_2 C47_2 1_555 1_555
H52_2 C47_2 1_555 1_555
B2_2 C40_2 1_555 1_555
C49_2 C46_2 1_555 1_555
H54_2 C49_2 1_555 1_555
H55_2 C49_2 1_555 1_555
O9_2 C56_2 1_555 1_555
O10_2 C56_2 1_555 1_555
C50_2 C52_2 1_555 1_555
C51_2 C55_2 1_555 1_555
C52_2 C53_2 1_555 1_555
C53_2 C55_2 1_555 1_555
C54_2 C50_2 1_555 1_555
H57_2 C54_2 1_555 1_555
H58_2 C54_2 1_555 1_555
H59_2 C54_2 1_555 1_555
C55_2 C61_2 1_555 1_555
C56_2 C53_2 1_555 1_555
C57_2 B2_2 1_555 1_555
C58_2 C51_2 1_555 1_555
H60_2 C58_2 1_555 1_555
H61_2 C58_2 1_555 1_555
H62_2 C58_2 1_555 1_555
C59_2 C52_2 1_555 1_555
H64_2 C59_2 1_555 1_555
H65_2 C59_2 1_555 1_555
C60_2 C42_2 1_555 1_555
C61_2 H66_2 1_555 1_555
H67_2 C61_2 1_555 1_555
H68_2 C61_2 1_555 1_555
C62_2 C48_2 1_555 1_555
C63_2 C60_2 1_555 1_555
H69_2 C63_2 1_555 1_555
H70_2 C63_2 1_555 1_555
H71_2 C63_2 1_555 1_555
C64_2 C62_2 1_555 1_555
H72_2 C64_2 1_555 1_555
O11_2 Zn4 1_555 1_555
O12_2 Zn9 1_555 1_555
C65_2 C67_2 1_555 1_555
C66_2 C70_2 1_555 1_555
C67_2 C68_2 1_555 1_555
C68_2 C70_2 1_555 1_555
C69_2 C65_2 1_555 1_555
H75_2 C69_2 1_555 1_555
H76_2 C69_2 1_555 1_555
H77_2 C69_2 1_555 1_555
C70_2 C77_2 1_555 1_555
C71_2 O11_2 1_555 1_555
C72_2 C65_2 1_555 1_555
C73_2 C66_2 1_555 1_555
H78_2 C73_2 1_555 1_555
H79_2 C73_2 1_555 1_555
H80_2 C73_2 1_555 1_555
C74_2 C76_2 1_555 1_555
C75_2 C67_2 1_555 1_555
H81_2 C75_2 1_555 1_555
H82_2 C75_2 1_555 1_555
H83_2 C75_2 1_555 1_555
C76_2 C78_2 1_555 1_555
C77_2 H84_2 1_555 1_555
H85_2 C77_2 1_555 1_555
H86_2 C77_2 1_555 1_555
C78_2 C80_2 1_555 1_555
C79_2 C76_2 1_555 1_555
H87_2 C79_2 1_555 1_555
H88_2 C79_2 1_555 1_555
H89_2 C79_2 1_555 1_555
B3_2 C72_2 1_555 1_555
C81_2 C78_2 1_555 1_555
H91_2 C81_2 1_555 1_555
H92_2 C81_2 1_555 1_555
O13_2 C88_2 1_555 1_555
C82_2 C84_2 1_555 1_555
C83_2 C87_2 1_555 1_555
C84_2 C85_2 1_555 1_555
C85_2 C87_2 1_555 1_555
C86_2 C82_2 1_555 1_555
H94_2 C86_2 1_555 1_555
H95_2 C86_2 1_555 1_555
H96_2 C86_2 1_555 1_555
C87_2 C93_2 1_555 1_555
C88_2 C85_2 1_555 1_555
C89_2 B3_2 1_555 1_555
C90_2 C83_2 1_555 1_555
H97_2 C90_2 1_555 1_555
H98_2 C90_2 1_555 1_555
H99_2 C90_2 1_555 1_555
C91_2 C84_2 1_555 1_555
H101_2 C91_2 1_555 1_555
H102_2 C91_2 1_555 1_555
C92_2 C74_2 1_555 1_555
C93_2 H103_2 1_555 1_555
H104_2 C93_2 1_555 1_555
H105_2 C93_2 1_555 1_555
C94_2 C80_2 1_555 1_555
C95_2 C92_2 1_555 1_555
H106_2 C95_2 1_555 1_555
H107_2 C95_2 1_555 1_555
H108_2 C95_2 1_555 1_555
C96_2 C94_2 1_555 1_555
H109_2 C96_2 1_555 1_555
Zn4_5 O13_2 1_555 1_555
Zn5_3 O9_2 1_555 1_555
Zn6_7 O4_2 1_555 1_555
Zn8_2 O10_2 1_555 1_555
O15_2 Zn4 1_555 1_555
O16_2 Zn4 1_555 1_555
O18_2 Zn2_2 1_555 1_555
O19_2 Zn2_2 1_555 1_555
C2_2 C8_2 1_555 1_555
C10_2 B1_2 1_555 1_555
C18_2 C25_2 1_555 1_555
C19_2 C25_2 1_555 1_555
C28_2 C30_2 1_555 1_555
O8_2 C39_2 1_555 1_555
C34_2 C40_2 1_555 1_555
C36_2 C39_2 1_555 1_555
C42_2 B2_2 1_555 1_555
C50_2 C57_2 1_555 1_555
C51_2 C57_2 1_555 1_555
C60_2 C62_2 1_555 1_555
O12_2 C71_2 1_555 1_555
C66_2 C72_2 1_555 1_555
C68_2 C71_2 1_555 1_555
C74_2 B3_2 1_555 1_555
C82_2 C89_2 1_555 1_555
C83_2 C89_2 1_555 1_555
C92_2 C94_2 1_555 1_555
Zn7_2 O5_2 1_555 1_555
Zn2_3 O2_3 1_555 1_555
O3_3 Zn2_3 1_555 1_555
O15_3 Zn1_2 1_555 1_555
O16_3 Zn1_2 1_555 1_555
O17_2 Zn1_2 1_555 1_555
O18_3 Zn2_3 1_555 1_555
O19_3 Zn2_3 1_555 1_555
Zn1_3 O1_3 1_555 1_555
O1_3 C7_3 1_555 1_555
C1_3 C3_3 1_555 1_555
C2_3 C6_3 1_555 1_555
C3_3 C4_3 1_555 1_555
C4_3 C6_3 1_555 1_555
C5_3 C1_3 1_555 1_555
H1_3 C5_3 1_555 1_555
H2_3 C5_3 1_555 1_555
H3_3 C5_3 1_555 1_555
C6_3 C13_3 1_555 1_555
C7_3 C4_3 1_555 1_555
C8_3 C1_3 1_555 1_555
C9_3 C2_3 1_555 1_555
H4_3 C9_3 1_555 1_555
H5_3 C9_3 1_555 1_555
H6_3 C9_3 1_555 1_555
C10_3 C12_3 1_555 1_555
C11_3 C3_3 1_555 1_555
H7_3 C11_3 1_555 1_555
H8_3 C11_3 1_555 1_555
H9_3 C11_3 1_555 1_555
C12_3 C14_3 1_555 1_555
C13_3 H10_3 1_555 1_555
H11_3 C13_3 1_555 1_555
H12_3 C13_3 1_555 1_555
C14_3 C16_3 1_555 1_555
C15_3 C12_3 1_555 1_555
H13_3 C15_3 1_555 1_555
H14_3 C15_3 1_555 1_555
H15_3 C15_3 1_555 1_555
B1_3 C8_3 1_555 1_555
C16_3 H16_3 1_555 1_555
C17_3 C14_3 1_555 1_555
H17_3 C17_3 1_555 1_555
H18_3 C17_3 1_555 1_555
H19_3 C17_3 1_555 1_555
O4_3 C24_3 1_555 1_555
O5_3 C24_3 1_555 1_555
C18_3 C20_3 1_555 1_555
C19_3 C23_3 1_555 1_555
C20_3 C21_3 1_555 1_555
C21_3 C23_3 1_555 1_555
C22_3 C18_3 1_555 1_555
H20_3 C22_3 1_555 1_555
H21_3 C22_3 1_555 1_555
H22_3 C22_3 1_555 1_555
C23_3 C29_3 1_555 1_555
C24_3 C21_3 1_555 1_555
C25_3 B1_3 1_555 1_555
C26_3 C19_3 1_555 1_555
H23_3 C26_3 1_555 1_555
H24_3 C26_3 1_555 1_555
H25_3 C26_3 1_555 1_555
C27_3 C20_3 1_555 1_555
H26_3 C27_3 1_555 1_555
H27_3 C27_3 1_555 1_555
H28_3 C27_3 1_555 1_555
C28_3 C10_3 1_555 1_555
C29_3 H29_3 1_555 1_555
H30_3 C29_3 1_555 1_555
H31_3 C29_3 1_555 1_555
C30_3 C16_3 1_555 1_555
C31_3 C28_3 1_555 1_555
H32_3 C31_3 1_555 1_555
H33_3 C31_3 1_555 1_555
H34_3 C31_3 1_555 1_555
C32_3 C30_3 1_555 1_555
H35_3 C32_3 1_555 1_555
H36_3 C32_3 1_555 1_555
H37_3 C32_3 1_555 1_555
Zn3_2 O6_3 1_555 1_555
O7_3 Zn1_3 1_555 1_555
O8_3 Zn3_2 1_555 1_555
C33_3 C35_3 1_555 1_555
C34_3 C38_3 1_555 1_555
C35_3 C36_3 1_555 1_555
C36_3 C38_3 1_555 1_555
C37_3 C33_3 1_555 1_555
H38_3 C37_3 1_555 1_555
H39_3 C37_3 1_555 1_555
H40_3 C37_3 1_555 1_555
C38_3 C45_3 1_555 1_555
C39_3 O7_3 1_555 1_555
C40_3 C33_3 1_555 1_555
C41_3 C34_3 1_555 1_555
H41_3 C41_3 1_555 1_555
H42_3 C41_3 1_555 1_555
H43_3 C41_3 1_555 1_555
C42_3 C44_3 1_555 1_555
C43_3 C35_3 1_555 1_555
H44_3 C43_3 1_555 1_555
H45_3 C43_3 1_555 1_555
H46_3 C43_3 1_555 1_555
C44_3 C46_3 1_555 1_555
C45_3 H47_3 1_555 1_555
H48_3 C45_3 1_555 1_555
H49_3 C45_3 1_555 1_555
C46_3 C48_3 1_555 1_555
C47_3 C44_3 1_555 1_555
H50_3 C47_3 1_555 1_555
H51_3 C47_3 1_555 1_555
H52_3 C47_3 1_555 1_555
B2_3 C40_3 1_555 1_555
C48_3 H53_3 1_555 1_555
C49_3 C46_3 1_555 1_555
H54_3 C49_3 1_555 1_555
H55_3 C49_3 1_555 1_555
H56_3 C49_3 1_555 1_555
O9_3 C56_3 1_555 1_555
O10_3 C56_3 1_555 1_555
C50_3 C52_3 1_555 1_555
C51_3 C55_3 1_555 1_555
C52_3 C53_3 1_555 1_555
C53_3 C55_3 1_555 1_555
C54_3 C50_3 1_555 1_555
H57_3 C54_3 1_555 1_555
H58_3 C54_3 1_555 1_555
H59_3 C54_3 1_555 1_555
C55_3 C61_3 1_555 1_555
C56_3 C53_3 1_555 1_555
C57_3 B2_3 1_555 1_555
C58_3 C51_3 1_555 1_555
H60_3 C58_3 1_555 1_555
H61_3 C58_3 1_555 1_555
H62_3 C58_3 1_555 1_555
C59_3 C52_3 1_555 1_555
H63_3 C59_3 1_555 1_555
H64_3 C59_3 1_555 1_555
H65_3 C59_3 1_555 1_555
C60_3 C42_3 1_555 1_555
C61_3 H66_3 1_555 1_555
H67_3 C61_3 1_555 1_555
H68_3 C61_3 1_555 1_555
C62_3 C48_3 1_555 1_555
C63_3 C60_3 1_555 1_555
H69_3 C63_3 1_555 1_555
H70_3 C63_3 1_555 1_555
H71_3 C63_3 1_555 1_555
C64_3 C62_3 1_555 1_555
H72_3 C64_3 1_555 1_555
H73_3 C64_3 1_555 1_555
H74_3 C64_3 1_555 1_555
O11_3 Zn1_3 1_555 1_555
O12_3 Zn3_2 1_555 1_555
C65_3 C67_3 1_555 1_555
C66_3 C70_3 1_555 1_555
C67_3 C68_3 1_555 1_555
C68_3 C70_3 1_555 1_555
C69_3 C65_3 1_555 1_555
H75_3 C69_3 1_555 1_555
H76_3 C69_3 1_555 1_555
H77_3 C69_3 1_555 1_555
C70_3 C77_3 1_555 1_555
C71_3 O11_3 1_555 1_555
C72_3 C65_3 1_555 1_555
C73_3 C66_3 1_555 1_555
H78_3 C73_3 1_555 1_555
H79_3 C73_3 1_555 1_555
H80_3 C73_3 1_555 1_555
C74_3 C76_3 1_555 1_555
C75_3 C67_3 1_555 1_555
H82_3 C75_3 1_555 1_555
H83_3 C75_3 1_555 1_555
C76_3 C78_3 1_555 1_555
C77_3 H84_3 1_555 1_555
H85_3 C77_3 1_555 1_555
H86_3 C77_3 1_555 1_555
C78_3 C80_3 1_555 1_555
C79_3 C76_3 1_555 1_555
H87_3 C79_3 1_555 1_555
H88_3 C79_3 1_555 1_555
H89_3 C79_3 1_555 1_555
B3_3 C72_3 1_555 1_555
C81_3 C78_3 1_555 1_555
H91_3 C81_3 1_555 1_555
O13_3 C88_3 1_555 1_555
O14_3 C88_3 1_555 1_555
C82_3 C84_3 1_555 1_555
C83_3 C87_3 1_555 1_555
C84_3 C85_3 1_555 1_555
C85_3 C87_3 1_555 1_555
C86_3 C82_3 1_555 1_555
H94_3 C86_3 1_555 1_555
H95_3 C86_3 1_555 1_555
H96_3 C86_3 1_555 1_555
C87_3 C93_3 1_555 1_555
C88_3 C85_3 1_555 1_555
C89_3 B3_3 1_555 1_555
C90_3 C83_3 1_555 1_555
H97_3 C90_3 1_555 1_555
H98_3 C90_3 1_555 1_555
H99_3 C90_3 1_555 1_555
C91_3 C84_3 1_555 1_555
H100_3 C91_3 1_555 1_555
H101_3 C91_3 1_555 1_555
H102_3 C91_3 1_555 1_555
C92_3 C74_3 1_555 1_555
C93_3 H103_3 1_555 1_555
H104_3 C93_3 1_555 1_555
H105_3 C93_3 1_555 1_555
C94_3 C80_3 1_555 1_555
C95_3 C92_3 1_555 1_555
H106_3 C95_3 1_555 1_555
H107_3 C95_3 1_555 1_555
H108_3 C95_3 1_555 1_555
C96_3 C94_3 1_555 1_555
H109_3 C96_3 1_555 1_555
H110_3 C96_3 1_555 1_555
Zn4_6 O13_3 1_555 1_555
Zn6 O9_3 1_555 1_555
Zn5 O4_3 1_555 1_555
Zn7_3 O5_3 1_555 1_555
Zn8_3 O10_3 1_555 1_555
Zn9_3 O14_3 1_555 1_555
O20_2 Zn3_2 1_555 1_555
C2_3 C8_3 1_555 1_555
C10_3 B1_3 1_555 1_555
C18_3 C25_3 1_555 1_555
C19_3 C25_3 1_555 1_555
C28_3 C30_3 1_555 1_555
O8_3 C39_3 1_555 1_555
C34_3 C40_3 1_555 1_555
C36_3 C39_3 1_555 1_555
C42_3 B2_3 1_555 1_555
C50_3 C57_3 1_555 1_555
C51_3 C57_3 1_555 1_555
C60_3 C62_3 1_555 1_555
O12_3 C71_3 1_555 1_555
C66_3 C72_3 1_555 1_555
C68_3 C71_3 1_555 1_555
C74_3 B3_3 1_555 1_555
C82_3 C89_3 1_555 1_555
C83_3 C89_3 1_555 1_555
C92_3 C94_3 1_555 1_555
O15 C7_4 1_555 1_555
O18 C7_4 1_555 1_555
C1_4 C3_4 1_555 1_555
C2_4 C6_4 1_555 1_555
C3_4 C4_4 1_555 1_555
C4_4 C6_4 1_555 1_555
C5_4 C1_4 1_555 1_555
H1_4 C5_4 1_555 1_555
H2_4 C5_4 1_555 1_555
H3_4 C5_4 1_555 1_555
C6_4 C13_4 1_555 1_555
C7_4 C4_4 1_555 1_555
C8_4 C1_4 1_555 1_555
C9_4 C2_4 1_555 1_555
H4_4 C9_4 1_555 1_555
H5_4 C9_4 1_555 1_555
H6_4 C9_4 1_555 1_555
C10_4 C12_4 1_555 1_555
C11_4 C3_4 1_555 1_555
H7_4 C11_4 1_555 1_555
H8_4 C11_4 1_555 1_555
H9_4 C11_4 1_555 1_555
C12_4 C14_4 1_555 1_555
C13_4 H10_4 1_555 1_555
H11_4 C13_4 1_555 1_555
H12_4 C13_4 1_555 1_555
C14_4 C16_4 1_555 1_555
C15_4 C12_4 1_555 1_555
H13_4 C15_4 1_555 1_555
H14_4 C15_4 1_555 1_555
H15_4 C15_4 1_555 1_555
B1_4 C8_4 1_555 1_555
C16_4 H16_4 1_555 1_555
C17_4 C14_4 1_555 1_555
H17_4 C17_4 1_555 1_555
H18_4 C17_4 1_555 1_555
H19_4 C17_4 1_555 1_555
O4_4 C24_4 1_555 1_555
O5_4 C24_4 1_555 1_555
C18_4 C20_4 1_555 1_555
C19_4 C23_4 1_555 1_555
C20_4 C21_4 1_555 1_555
C21_4 C23_4 1_555 1_555
C22_4 C18_4 1_555 1_555
H20_4 C22_4 1_555 1_555
H21_4 C22_4 1_555 1_555
H22_4 C22_4 1_555 1_555
C23_4 C29_4 1_555 1_555
C24_4 C21_4 1_555 1_555
C25_4 B1_4 1_555 1_555
C26_4 C19_4 1_555 1_555
H23_4 C26_4 1_555 1_555
H24_4 C26_4 1_555 1_555
H25_4 C26_4 1_555 1_555
C27_4 C20_4 1_555 1_555
H26_4 C27_4 1_555 1_555
H27_4 C27_4 1_555 1_555
H28_4 C27_4 1_555 1_555
C28_4 C10_4 1_555 1_555
C29_4 H29_4 1_555 1_555
H30_4 C29_4 1_555 1_555
H31_4 C29_4 1_555 1_555
C30_4 C16_4 1_555 1_555
C31_4 C28_4 1_555 1_555
H32_4 C31_4 1_555 1_555
H33_4 C31_4 1_555 1_555
H34_4 C31_4 1_555 1_555
C32_4 C30_4 1_555 1_555
H35_4 C32_4 1_555 1_555
H36_4 C32_4 1_555 1_555
H37_4 C32_4 1_555 1_555
C65_4 C67_4 1_555 1_555
C66_4 C70_4 1_555 1_555
C67_4 C68_4 1_555 1_555
C68_4 C70_4 1_555 1_555
C69_4 C65_4 1_555 1_555
H75_4 C69_4 1_555 1_555
H76_4 C69_4 1_555 1_555
H77_4 C69_4 1_555 1_555
C70_4 C77_4 1_555 1_555
C71_4 O17 1_555 1_555
C72_4 C65_4 1_555 1_555
C73_4 C66_4 1_555 1_555
H78_4 C73_4 1_555 1_555
H79_4 C73_4 1_555 1_555
H80_4 C73_4 1_555 1_555
C74_4 C76_4 1_555 1_555
C75_4 C67_4 1_555 1_555
H81_4 C75_4 1_555 1_555
H82_4 C75_4 1_555 1_555
H83_4 C75_4 1_555 1_555
C76_4 C78_4 1_555 1_555
C77_4 H84_4 1_555 1_555
H85_4 C77_4 1_555 1_555
H86_4 C77_4 1_555 1_555
C78_4 C80_4 1_555 1_555
C79_4 C76_4 1_555 1_555
H87_4 C79_4 1_555 1_555
H88_4 C79_4 1_555 1_555
H89_4 C79_4 1_555 1_555
B3_4 C72_4 1_555 1_555
C80_4 H90_4 1_555 1_555
C81_4 C78_4 1_555 1_555
H91_4 C81_4 1_555 1_555
H92_4 C81_4 1_555 1_555
H93_4 C81_4 1_555 1_555
O13_4 C88_4 1_555 1_555
O14_4 C88_4 1_555 1_555
C82_4 C84_4 1_555 1_555
C83_4 C87_4 1_555 1_555
C84_4 C85_4 1_555 1_555
C85_4 C87_4 1_555 1_555
C86_4 C82_4 1_555 1_555
H94_4 C86_4 1_555 1_555
H95_4 C86_4 1_555 1_555
H96_4 C86_4 1_555 1_555
C87_4 C93_4 1_555 1_555
C88_4 C85_4 1_555 1_555
C89_4 B3_4 1_555 1_555
C90_4 C83_4 1_555 1_555
H97_4 C90_4 1_555 1_555
H98_4 C90_4 1_555 1_555
H99_4 C90_4 1_555 1_555
C91_4 C84_4 1_555 1_555
H100_4 C91_4 1_555 1_555
H101_4 C91_4 1_555 1_555
H102_4 C91_4 1_555 1_555
C92_4 C74_4 1_555 1_555
C93_4 H103_4 1_555 1_555
H104_4 C93_4 1_555 1_555
H105_4 C93_4 1_555 1_555
C94_4 C80_4 1_555 1_555
C95_4 C92_4 1_555 1_555
H106_4 C95_4 1_555 1_555
H107_4 C95_4 1_555 1_555
H108_4 C95_4 1_555 1_555
C96_4 C94_4 1_555 1_555
H109_4 C96_4 1_555 1_555
H110_4 C96_4 1_555 1_555
H111_4 C96_4 1_555 1_555
Zn4_7 O13_4 1_555 1_555
Zn6_10 O4_4 1_555 1_555
Zn7_4 O5_4 1_555 1_555
Zn9_4 O14_4 1_555 1_555
C2_4 C8_4 1_555 1_555
C10_4 B1_4 1_555 1_555
C18_4 C25_4 1_555 1_555
C19_4 C25_4 1_555 1_555
C28_4 C30_4 1_555 1_555
O20 C71_4 1_555 1_555
C66_4 C72_4 1_555 1_555
C68_4 C71_4 1_555 1_555
C74_4 B3_4 1_555 1_555
C82_4 C89_4 1_555 1_555
C83_4 C89_4 1_555 1_555
C92_4 C94_4 1_555 1_555
Zn4_2 O1_4 1_555 1_555
O1_4 C7_5 1_555 1_555
C1_5 C3_5 1_555 1_555
C2_5 C6_5 1_555 1_555
C3_5 C4_5 1_555 1_555
C4_5 C6_5 1_555 1_555
C5_5 C1_5 1_555 1_555
H1_5 C5_5 1_555 1_555
H2_5 C5_5 1_555 1_555
H3_5 C5_5 1_555 1_555
C6_5 C13_5 1_555 1_555
C7_5 C4_5 1_555 1_555
C8_5 C1_5 1_555 1_555
C9_5 C2_5 1_555 1_555
H4_5 C9_5 1_555 1_555
H5_5 C9_5 1_555 1_555
H6_5 C9_5 1_555 1_555
C10_5 C12_5 1_555 1_555
C11_5 C3_5 1_555 1_555
H8_5 C11_5 1_555 1_555
H9_5 C11_5 1_555 1_555
C12_5 C14_5 1_555 1_555
C13_5 H10_5 1_555 1_555
H11_5 C13_5 1_555 1_555
H12_5 C13_5 1_555 1_555
C14_5 C16_5 1_555 1_555
C15_5 C12_5 1_555 1_555
H13_5 C15_5 1_555 1_555
H14_5 C15_5 1_555 1_555
H15_5 C15_5 1_555 1_555
B1_5 C8_5 1_555 1_555
C17_5 C14_5 1_555 1_555
H17_5 C17_5 1_555 1_555
O4_5 C24_5 1_555 1_555
O5_5 C24_5 1_555 1_555
C18_5 C20_5 1_555 1_555
C19_5 C23_5 1_555 1_555
C20_5 C21_5 1_555 1_555
C21_5 C23_5 1_555 1_555
C22_5 C18_5 1_555 1_555
H20_5 C22_5 1_555 1_555
H21_5 C22_5 1_555 1_555
H22_5 C22_5 1_555 1_555
C23_5 C29_5 1_555 1_555
C24_5 C21_5 1_555 1_555
C25_5 B1_5 1_555 1_555
C26_5 C19_5 1_555 1_555
H23_5 C26_5 1_555 1_555
H24_5 C26_5 1_555 1_555
H25_5 C26_5 1_555 1_555
C27_5 C20_5 1_555 1_555
H26_5 C27_5 1_555 1_555
H27_5 C27_5 1_555 1_555
H28_5 C27_5 1_555 1_555
C28_5 C10_5 1_555 1_555
C29_5 H29_5 1_555 1_555
H30_5 C29_5 1_555 1_555
H31_5 C29_5 1_555 1_555
C30_5 C16_5 1_555 1_555
C31_5 C28_5 1_555 1_555
H32_5 C31_5 1_555 1_555
H33_5 C31_5 1_555 1_555
H34_5 C31_5 1_555 1_555
C32_5 C30_5 1_555 1_555
H35_5 C32_5 1_555 1_555
H36_5 C32_5 1_555 1_555
O7_4 Zn4_2 1_555 1_555
C33_4 C35_4 1_555 1_555
C34_4 C38_4 1_555 1_555
C35_4 C36_4 1_555 1_555
C36_4 C38_4 1_555 1_555
C37_4 C33_4 1_555 1_555
H38_4 C37_4 1_555 1_555
H39_4 C37_4 1_555 1_555
H40_4 C37_4 1_555 1_555
C38_4 C45_4 1_555 1_555
C39_4 O7_4 1_555 1_555
C40_4 C33_4 1_555 1_555
C41_4 C34_4 1_555 1_555
H41_4 C41_4 1_555 1_555
H42_4 C41_4 1_555 1_555
H43_4 C41_4 1_555 1_555
C42_4 C44_4 1_555 1_555
C43_4 C35_4 1_555 1_555
H44_4 C43_4 1_555 1_555
H45_4 C43_4 1_555 1_555
H46_4 C43_4 1_555 1_555
C44_4 C46_4 1_555 1_555
C45_4 H47_4 1_555 1_555
H48_4 C45_4 1_555 1_555
H49_4 C45_4 1_555 1_555
C46_4 C48_4 1_555 1_555
C47_4 C44_4 1_555 1_555
H50_4 C47_4 1_555 1_555
H51_4 C47_4 1_555 1_555
H52_4 C47_4 1_555 1_555
B2_4 C40_4 1_555 1_555
C48_4 H53_4 1_555 1_555
C49_4 C46_4 1_555 1_555
H54_4 C49_4 1_555 1_555
H55_4 C49_4 1_555 1_555
H56_4 C49_4 1_555 1_555
O9_4 C56_4 1_555 1_555
O10_4 C56_4 1_555 1_555
C50_4 C52_4 1_555 1_555
C51_4 C55_4 1_555 1_555
C52_4 C53_4 1_555 1_555
C53_4 C55_4 1_555 1_555
C54_4 C50_4 1_555 1_555
H57_4 C54_4 1_555 1_555
H58_4 C54_4 1_555 1_555
H59_4 C54_4 1_555 1_555
C55_4 C61_4 1_555 1_555
C56_4 C53_4 1_555 1_555
C57_4 B2_4 1_555 1_555
C58_4 C51_4 1_555 1_555
H60_4 C58_4 1_555 1_555
H61_4 C58_4 1_555 1_555
H62_4 C58_4 1_555 1_555
C59_4 C52_4 1_555 1_555
H63_4 C59_4 1_555 1_555
H64_4 C59_4 1_555 1_555
H65_4 C59_4 1_555 1_555
C60_4 C42_4 1_555 1_555
C61_4 H66_4 1_555 1_555
H67_4 C61_4 1_555 1_555
H68_4 C61_4 1_555 1_555
C62_4 C48_4 1_555 1_555
C63_4 C60_4 1_555 1_555
H69_4 C63_4 1_555 1_555
H70_4 C63_4 1_555 1_555
H71_4 C63_4 1_555 1_555
C64_4 C62_4 1_555 1_555
H72_4 C64_4 1_555 1_555
H73_4 C64_4 1_555 1_555
H74_4 C64_4 1_555 1_555
Zn5_6 O9_4 1_555 1_555
Zn6_11 O4_5 1_555 1_555
Zn7_5 O5_5 1_555 1_555
Zn8_4 O10_4 1_555 1_555
C2_5 C8_5 1_555 1_555
C10_5 B1_5 1_555 1_555
C18_5 C25_5 1_555 1_555
C19_5 C25_5 1_555 1_555
C28_5 C30_5 1_555 1_555
C34_4 C40_4 1_555 1_555
C36_4 C39_4 1_555 1_555
C42_4 B2_4 1_555 1_555
C50_4 C57_4 1_555 1_555
C51_4 C57_4 1_555 1_555
C60_4 C62_4 1_555 1_555
Zn2_4 O2_4 1_555 1_555
O3_4 Zn2_4 1_555 1_555
O16_4 Zn4_3 1_555 1_555
O18_4 Zn2_4 1_555 1_555
O19_4 Zn2_4 1_555 1_555
Zn9_2 O6_4 1_555 1_555
O8_4 Zn9_2 1_555 1_555
O11_4 Zn4_4 1_555 1_555
O12_4 Zn9_2 1_555 1_555
C65_5 C67_5 1_555 1_555
C66_5 C70_5 1_555 1_555
C67_5 C68_5 1_555 1_555
C68_5 C70_5 1_555 1_555
C69_5 C65_5 1_555 1_555
H75_5 C69_5 1_555 1_555
H76_5 C69_5 1_555 1_555
H77_5 C69_5 1_555 1_555
C70_5 C77_5 1_555 1_555
C71_5 O11_4 1_555 1_555
C72_5 C65_5 1_555 1_555
C73_5 C66_5 1_555 1_555
H78_5 C73_5 1_555 1_555
H79_5 C73_5 1_555 1_555
H80_5 C73_5 1_555 1_555
C74_5 C76_5 1_555 1_555
C75_5 C67_5 1_555 1_555
H82_5 C75_5 1_555 1_555
H83_5 C75_5 1_555 1_555
C76_5 C78_5 1_555 1_555
C77_5 H84_5 1_555 1_555
H85_5 C77_5 1_555 1_555
H86_5 C77_5 1_555 1_555
C78_5 C80_5 1_555 1_555
C79_5 C76_5 1_555 1_555
H87_5 C79_5 1_555 1_555
H88_5 C79_5 1_555 1_555
H89_5 C79_5 1_555 1_555
B3_5 C72_5 1_555 1_555
C81_5 C78_5 1_555 1_555
H91_5 C81_5 1_555 1_555
O13_5 C88_5 1_555 1_555
O14_5 C88_5 1_555 1_555
C82_5 C84_5 1_555 1_555
C83_5 C87_5 1_555 1_555
C84_5 C85_5 1_555 1_555
C85_5 C87_5 1_555 1_555
C86_5 C82_5 1_555 1_555
H94_5 C86_5 1_555 1_555
H95_5 C86_5 1_555 1_555
H96_5 C86_5 1_555 1_555
C87_5 C93_5 1_555 1_555
C88_5 C85_5 1_555 1_555
C89_5 B3_5 1_555 1_555
C90_5 C83_5 1_555 1_555
H97_5 C90_5 1_555 1_555
H98_5 C90_5 1_555 1_555
H99_5 C90_5 1_555 1_555
C91_5 C84_5 1_555 1_555
H100_5 C91_5 1_555 1_555
H101_5 C91_5 1_555 1_555
H102_5 C91_5 1_555 1_555
C92_5 C74_5 1_555 1_555
C93_5 H103_5 1_555 1_555
H104_5 C93_5 1_555 1_555
H105_5 C93_5 1_555 1_555
C94_5 C80_5 1_555 1_555
C95_5 C92_5 1_555 1_555
H106_5 C95_5 1_555 1_555
H107_5 C95_5 1_555 1_555
H108_5 C95_5 1_555 1_555
C96_5 C94_5 1_555 1_555
H109_5 C96_5 1_555 1_555
H110_5 C96_5 1_555 1_555
Zn4_7 O13_5 1_555 1_555
Zn9_4 O14_5 1_555 1_555
O12_4 C71_5 1_555 1_555
C66_5 C72_5 1_555 1_555
C68_5 C71_5 1_555 1_555
C74_5 B3_5 1_555 1_555
C82_5 C89_5 1_555 1_555
C83_5 C89_5 1_555 1_555
C92_5 C94_5 1_555 1_555
O15_4 Zn4_5 1_555 1_555
Zn7_6 O5_6 1_555 1_555
Zn4_6 O1_5 1_555 1_555
Zn2_5 O2_5 1_555 1_555
O1_5 C7_6 1_555 1_555
O2_5 C7_6 1_555 1_555
O3_5 Zn2_5 1_555 1_555
C1_6 C3_6 1_555 1_555
C2_6 C6_6 1_555 1_555
C3_6 C4_6 1_555 1_555
C4_6 C6_6 1_555 1_555
C5_6 C1_6 1_555 1_555
H1_6 C5_6 1_555 1_555
H2_6 C5_6 1_555 1_555
H3_6 C5_6 1_555 1_555
C6_6 C13_6 1_555 1_555
C7_6 C4_6 1_555 1_555
C8_6 C1_6 1_555 1_555
C9_6 C2_6 1_555 1_555
H4_6 C9_6 1_555 1_555
H5_6 C9_6 1_555 1_555
H6_6 C9_6 1_555 1_555
C10_6 C12_6 1_555 1_555
C11_6 C3_6 1_555 1_555
H7_6 C11_6 1_555 1_555
H8_6 C11_6 1_555 1_555
H9_6 C11_6 1_555 1_555
C12_6 C14_6 1_555 1_555
C13_6 H10_6 1_555 1_555
H11_6 C13_6 1_555 1_555
H12_6 C13_6 1_555 1_555
C14_6 C16_6 1_555 1_555
C15_6 C12_6 1_555 1_555
H13_6 C15_6 1_555 1_555
H14_6 C15_6 1_555 1_555
H15_6 C15_6 1_555 1_555
B1_6 C8_6 1_555 1_555
C16_6 H16_6 1_555 1_555
C17_6 C14_6 1_555 1_555
H17_6 C17_6 1_555 1_555
H18_6 C17_6 1_555 1_555
H19_6 C17_6 1_555 1_555
O4_6 C24_6 1_555 1_555
C18_6 C20_6 1_555 1_555
C19_6 C23_6 1_555 1_555
C20_6 C21_6 1_555 1_555
C21_6 C23_6 1_555 1_555
C22_6 C18_6 1_555 1_555
H20_6 C22_6 1_555 1_555
H21_6 C22_6 1_555 1_555
H22_6 C22_6 1_555 1_555
C23_6 C29_6 1_555 1_555
C24_6 C21_6 1_555 1_555
C25_6 B1_6 1_555 1_555
C26_6 C19_6 1_555 1_555
H23_6 C26_6 1_555 1_555
H24_6 C26_6 1_555 1_555
H25_6 C26_6 1_555 1_555
C27_6 C20_6 1_555 1_555
H26_6 C27_6 1_555 1_555
H27_6 C27_6 1_555 1_555
H28_6 C27_6 1_555 1_555
C28_6 C10_6 1_555 1_555
C29_6 H29_6 1_555 1_555
H30_6 C29_6 1_555 1_555
H31_6 C29_6 1_555 1_555
C30_6 C16_6 1_555 1_555
C31_6 C28_6 1_555 1_555
H32_6 C31_6 1_555 1_555
H33_6 C31_6 1_555 1_555
H34_6 C31_6 1_555 1_555
C32_6 C30_6 1_555 1_555
H35_6 C32_6 1_555 1_555
H36_6 C32_6 1_555 1_555
H37_6 C32_6 1_555 1_555
Zn9_3 O6_5 1_555 1_555
O7_5 Zn4_6 1_555 1_555
O8_5 Zn9_3 1_555 1_555
C33_5 C35_5 1_555 1_555
C34_5 C38_5 1_555 1_555
C35_5 C36_5 1_555 1_555
C36_5 C38_5 1_555 1_555
C37_5 C33_5 1_555 1_555
H38_5 C37_5 1_555 1_555
H39_5 C37_5 1_555 1_555
H40_5 C37_5 1_555 1_555
C38_5 C45_5 1_555 1_555
C39_5 O7_5 1_555 1_555
C40_5 C33_5 1_555 1_555
C41_5 C34_5 1_555 1_555
H41_5 C41_5 1_555 1_555
H42_5 C41_5 1_555 1_555
H43_5 C41_5 1_555 1_555
C42_5 C44_5 1_555 1_555
C43_5 C35_5 1_555 1_555
H44_5 C43_5 1_555 1_555
H45_5 C43_5 1_555 1_555
H46_5 C43_5 1_555 1_555
C44_5 C46_5 1_555 1_555
C45_5 H47_5 1_555 1_555
H48_5 C45_5 1_555 1_555
H49_5 C45_5 1_555 1_555
C46_5 C48_5 1_555 1_555
C47_5 C44_5 1_555 1_555
H50_5 C47_5 1_555 1_555
H51_5 C47_5 1_555 1_555
H52_5 C47_5 1_555 1_555
B2_5 C40_5 1_555 1_555
C49_5 C46_5 1_555 1_555
H54_5 C49_5 1_555 1_555
H55_5 C49_5 1_555 1_555
O9_5 C56_5 1_555 1_555
O10_5 C56_5 1_555 1_555
C50_5 C52_5 1_555 1_555
C51_5 C55_5 1_555 1_555
C52_5 C53_5 1_555 1_555
C53_5 C55_5 1_555 1_555
C54_5 C50_5 1_555 1_555
H57_5 C54_5 1_555 1_555
H58_5 C54_5 1_555 1_555
H59_5 C54_5 1_555 1_555
C55_5 C61_5 1_555 1_555
C56_5 C53_5 1_555 1_555
C57_5 B2_5 1_555 1_555
C58_5 C51_5 1_555 1_555
H60_5 C58_5 1_555 1_555
H61_5 C58_5 1_555 1_555
H62_5 C58_5 1_555 1_555
C59_5 C52_5 1_555 1_555
H64_5 C59_5 1_555 1_555
H65_5 C59_5 1_555 1_555
C60_5 C42_5 1_555 1_555
C61_5 H66_5 1_555 1_555
H67_5 C61_5 1_555 1_555
H68_5 C61_5 1_555 1_555
C62_5 C48_5 1_555 1_555
C63_5 C60_5 1_555 1_555
H69_5 C63_5 1_555 1_555
H70_5 C63_5 1_555 1_555
H71_5 C63_5 1_555 1_555
C64_5 C62_5 1_555 1_555
H72_5 C64_5 1_555 1_555
O11_5 Zn4_6 1_555 1_555
O12_5 Zn9_3 1_555 1_555
C65_6 C67_6 1_555 1_555
C66_6 C70_6 1_555 1_555
C67_6 C68_6 1_555 1_555
C68_6 C70_6 1_555 1_555
C69_6 C65_6 1_555 1_555
H75_6 C69_6 1_555 1_555
H76_6 C69_6 1_555 1_555
H77_6 C69_6 1_555 1_555
C70_6 C77_6 1_555 1_555
C71_6 O11_5 1_555 1_555
C72_6 C65_6 1_555 1_555
C73_6 C66_6 1_555 1_555
H78_6 C73_6 1_555 1_555
H79_6 C73_6 1_555 1_555
H80_6 C73_6 1_555 1_555
C74_6 C76_6 1_555 1_555
C75_6 C67_6 1_555 1_555
H81_6 C75_6 1_555 1_555
H82_6 C75_6 1_555 1_555
H83_6 C75_6 1_555 1_555
C76_6 C78_6 1_555 1_555
C77_6 H84_6 1_555 1_555
H85_6 C77_6 1_555 1_555
H86_6 C77_6 1_555 1_555
C78_6 C80_6 1_555 1_555
C79_6 C76_6 1_555 1_555
H87_6 C79_6 1_555 1_555
H88_6 C79_6 1_555 1_555
H89_6 C79_6 1_555 1_555
B3_6 C72_6 1_555 1_555
C81_6 C78_6 1_555 1_555
H91_6 C81_6 1_555 1_555
H92_6 C81_6 1_555 1_555
O13_6 C88_6 1_555 1_555
O14_6 C88_6 1_555 1_555
C82_6 C84_6 1_555 1_555
C83_6 C87_6 1_555 1_555
C84_6 C85_6 1_555 1_555
C85_6 C87_6 1_555 1_555
C86_6 C82_6 1_555 1_555
H94_6 C86_6 1_555 1_555
H95_6 C86_6 1_555 1_555
H96_6 C86_6 1_555 1_555
C87_6 C93_6 1_555 1_555
C88_6 C85_6 1_555 1_555
C89_6 B3_6 1_555 1_555
C90_6 C83_6 1_555 1_555
H97_6 C90_6 1_555 1_555
H98_6 C90_6 1_555 1_555
H99_6 C90_6 1_555 1_555
C91_6 C84_6 1_555 1_555
H101_6 C91_6 1_555 1_555
H102_6 C91_6 1_555 1_555
C92_6 C74_6 1_555 1_555
C93_6 H103_6 1_555 1_555
H104_6 C93_6 1_555 1_555
H105_6 C93_6 1_555 1_555
C94_6 C80_6 1_555 1_555
C95_6 C92_6 1_555 1_555
H106_6 C95_6 1_555 1_555
H107_6 C95_6 1_555 1_555
H108_6 C95_6 1_555 1_555
C96_6 C94_6 1_555 1_555
H109_6 C96_6 1_555 1_555
Zn4_9 O13_6 1_555 1_555
Zn5_8 O9_5 1_555 1_555
Zn6_15 O4_6 1_555 1_555
Zn8_5 O10_5 1_555 1_555
Zn9_5 O14_6 1_555 1_555
O15_5 Zn4_6 1_555 1_555
O16_5 Zn4_6 1_555 1_555
O18_5 Zn2_5 1_555 1_555
O19_5 Zn2_5 1_555 1_555
C2_6 C8_6 1_555 1_555
C10_6 B1_6 1_555 1_555
C18_6 C25_6 1_555 1_555
C19_6 C25_6 1_555 1_555
C28_6 C30_6 1_555 1_555
O8_5 C39_5 1_555 1_555
C34_5 C40_5 1_555 1_555
C36_5 C39_5 1_555 1_555
C42_5 B2_5 1_555 1_555
C50_5 C57_5 1_555 1_555
C51_5 C57_5 1_555 1_555
C60_5 C62_5 1_555 1_555
O12_5 C71_6 1_555 1_555
C66_6 C72_6 1_555 1_555
C68_6 C71_6 1_555 1_555
C74_6 B3_6 1_555 1_555
C82_6 C89_6 1_555 1_555
C83_6 C89_6 1_555 1_555
C92_6 C94_6 1_555 1_555
Zn8_6 O10_6 1_555 1_555
Zn6_10 O1_6 1_555 1_555
Zn7_4 O2_6 1_555 1_555
O1_6 C7_7 1_555 1_555
O2_6 C7_7 1_555 1_555
O3_6 Zn7_4 1_555 1_555
C1_7 C3_7 1_555 1_555
C2_7 C6_7 1_555 1_555
C3_7 C4_7 1_555 1_555
C4_7 C6_7 1_555 1_555
C5_7 C1_7 1_555 1_555
H1_7 C5_7 1_555 1_555
H2_7 C5_7 1_555 1_555
H3_7 C5_7 1_555 1_555
C6_7 C13_7 1_555 1_555
C7_7 C4_7 1_555 1_555
C8_7 C1_7 1_555 1_555
C9_7 C2_7 1_555 1_555
H4_7 C9_7 1_555 1_555
H5_7 C9_7 1_555 1_555
H6_7 C9_7 1_555 1_555
C10_7 C12_7 1_555 1_555
C11_7 C3_7 1_555 1_555
H7_7 C11_7 1_555 1_555
H8_7 C11_7 1_555 1_555
H9_7 C11_7 1_555 1_555
C12_7 C14_7 1_555 1_555
C13_7 H10_7 1_555 1_555
H11_7 C13_7 1_555 1_555
H12_7 C13_7 1_555 1_555
C14_7 C16_7 1_555 1_555
C15_7 C12_7 1_555 1_555
H13_7 C15_7 1_555 1_555
H14_7 C15_7 1_555 1_555
H15_7 C15_7 1_555 1_555
B1_7 C8_7 1_555 1_555
C17_7 C14_7 1_555 1_555
H17_7 C17_7 1_555 1_555
H18_7 C17_7 1_555 1_555
O4_7 C24_7 1_555 1_555
C18_7 C20_7 1_555 1_555
C19_7 C23_7 1_555 1_555
C20_7 C21_7 1_555 1_555
C21_7 C23_7 1_555 1_555
C22_7 C18_7 1_555 1_555
H20_7 C22_7 1_555 1_555
H21_7 C22_7 1_555 1_555
H22_7 C22_7 1_555 1_555
C23_7 C29_7 1_555 1_555
C24_7 C21_7 1_555 1_555
C25_7 B1_7 1_555 1_555
C26_7 C19_7 1_555 1_555
H23_7 C26_7 1_555 1_555
H24_7 C26_7 1_555 1_555
H25_7 C26_7 1_555 1_555
C27_7 C20_7 1_555 1_555
H27_7 C27_7 1_555 1_555
H28_7 C27_7 1_555 1_555
C28_7 C10_7 1_555 1_555
C29_7 H29_7 1_555 1_555
H30_7 C29_7 1_555 1_555
H31_7 C29_7 1_555 1_555
C30_7 C16_7 1_555 1_555
C31_7 C28_7 1_555 1_555
H32_7 C31_7 1_555 1_555
H33_7 C31_7 1_555 1_555
H34_7 C31_7 1_555 1_555
C32_7 C30_7 1_555 1_555
H35_7 C32_7 1_555 1_555
Zn3_3 O6_6 1_555 1_555
O7_6 Zn6_10 1_555 1_555
O8_6 Zn3_3 1_555 1_555
C33_6 C35_6 1_555 1_555
C34_6 C38_6 1_555 1_555
C35_6 C36_6 1_555 1_555
C36_6 C38_6 1_555 1_555
C37_6 C33_6 1_555 1_555
H38_6 C37_6 1_555 1_555
H39_6 C37_6 1_555 1_555
H40_6 C37_6 1_555 1_555
C38_6 C45_6 1_555 1_555
C39_6 O7_6 1_555 1_555
C40_6 C33_6 1_555 1_555
C41_6 C34_6 1_555 1_555
H41_6 C41_6 1_555 1_555
H42_6 C41_6 1_555 1_555
H43_6 C41_6 1_555 1_555
C42_6 C44_6 1_555 1_555
C43_6 C35_6 1_555 1_555
H44_6 C43_6 1_555 1_555
H45_6 C43_6 1_555 1_555
H46_6 C43_6 1_555 1_555
C44_6 C46_6 1_555 1_555
C45_6 H47_6 1_555 1_555
H48_6 C45_6 1_555 1_555
H49_6 C45_6 1_555 1_555
C46_6 C48_6 1_555 1_555
C47_6 C44_6 1_555 1_555
H50_6 C47_6 1_555 1_555
H51_6 C47_6 1_555 1_555
H52_6 C47_6 1_555 1_555
B2_6 C40_6 1_555 1_555
C49_6 C46_6 1_555 1_555
H54_6 C49_6 1_555 1_555
H55_6 C49_6 1_555 1_555
O9_6 C56_6 1_555 1_555
C50_6 C52_6 1_555 1_555
C51_6 C55_6 1_555 1_555
C52_6 C53_6 1_555 1_555
C53_6 C55_6 1_555 1_555
C54_6 C50_6 1_555 1_555
H57_6 C54_6 1_555 1_555
H58_6 C54_6 1_555 1_555
H59_6 C54_6 1_555 1_555
C55_6 C61_6 1_555 1_555
C56_6 C53_6 1_555 1_555
C57_6 B2_6 1_555 1_555
C58_6 C51_6 1_555 1_555
H60_6 C58_6 1_555 1_555
H61_6 C58_6 1_555 1_555
H62_6 C58_6 1_555 1_555
C59_6 C52_6 1_555 1_555
H64_6 C59_6 1_555 1_555
H65_6 C59_6 1_555 1_555
C60_6 C42_6 1_555 1_555
C61_6 H66_6 1_555 1_555
H67_6 C61_6 1_555 1_555
H68_6 C61_6 1_555 1_555
C62_6 C48_6 1_555 1_555
C63_6 C60_6 1_555 1_555
H69_6 C63_6 1_555 1_555
H70_6 C63_6 1_555 1_555
H71_6 C63_6 1_555 1_555
C64_6 C62_6 1_555 1_555
H72_6 C64_6 1_555 1_555
O11_6 Zn6_10 1_555 1_555
O12_6 Zn3_3 1_555 1_555
C65_7 C67_7 1_555 1_555
C66_7 C70_7 1_555 1_555
C67_7 C68_7 1_555 1_555
C68_7 C70_7 1_555 1_555
C69_7 C65_7 1_555 1_555
H75_7 C69_7 1_555 1_555
H76_7 C69_7 1_555 1_555
H77_7 C69_7 1_555 1_555
C70_7 C77_7 1_555 1_555
C71_7 O11_6 1_555 1_555
C72_7 C65_7 1_555 1_555
C73_7 C66_7 1_555 1_555
H78_7 C73_7 1_555 1_555
H79_7 C73_7 1_555 1_555
H80_7 C73_7 1_555 1_555
C74_7 C76_7 1_555 1_555
C75_7 C67_7 1_555 1_555
H81_7 C75_7 1_555 1_555
H82_7 C75_7 1_555 1_555
H83_7 C75_7 1_555 1_555
C76_7 C78_7 1_555 1_555
C77_7 H84_7 1_555 1_555
H85_7 C77_7 1_555 1_555
H86_7 C77_7 1_555 1_555
C78_7 C80_7 1_555 1_555
C79_7 C76_7 1_555 1_555
H87_7 C79_7 1_555 1_555
H88_7 C79_7 1_555 1_555
H89_7 C79_7 1_555 1_555
B3_7 C72_7 1_555 1_555
C80_7 H90_7 1_555 1_555
C81_7 C78_7 1_555 1_555
H91_7 C81_7 1_555 1_555
H92_7 C81_7 1_555 1_555
H93_7 C81_7 1_555 1_555
O17_2 C88_7 1_555 1_555
C82_7 C84_7 1_555 1_555
C83_7 C87_7 1_555 1_555
C84_7 C85_7 1_555 1_555
C85_7 C87_7 1_555 1_555
C86_7 C82_7 1_555 1_555
H94_7 C86_7 1_555 1_555
H95_7 C86_7 1_555 1_555
H96_7 C86_7 1_555 1_555
C87_7 C93_7 1_555 1_555
C88_7 C85_7 1_555 1_555
C89_7 B3_7 1_555 1_555
C90_7 C83_7 1_555 1_555
H97_7 C90_7 1_555 1_555
H98_7 C90_7 1_555 1_555
H99_7 C90_7 1_555 1_555
C91_7 C84_7 1_555 1_555
H100_7 C91_7 1_555 1_555
H101_7 C91_7 1_555 1_555
H102_7 C91_7 1_555 1_555
C92_7 C74_7 1_555 1_555
C93_7 H103_7 1_555 1_555
H104_7 C93_7 1_555 1_555
H105_7 C93_7 1_555 1_555
C94_7 C80_7 1_555 1_555
C95_7 C92_7 1_555 1_555
H106_7 C95_7 1_555 1_555
H107_7 C95_7 1_555 1_555
H108_7 C95_7 1_555 1_555
C96_7 C94_7 1_555 1_555
H109_7 C96_7 1_555 1_555
H110_7 C96_7 1_555 1_555
H111_7 C96_7 1_555 1_555
Zn6_6 O9_6 1_555 1_555
Zn5_2 O4_7 1_555 1_555
O16_6 Zn6_10 1_555 1_555
O17_3 Zn6_10 1_555 1_555
O19_6 Zn7_4 1_555 1_555
O20_3 Zn3_3 1_555 1_555
C2_7 C8_7 1_555 1_555
C10_7 B1_7 1_555 1_555
C18_7 C25_7 1_555 1_555
C19_7 C25_7 1_555 1_555
C28_7 C30_7 1_555 1_555
O8_6 C39_6 1_555 1_555
C34_6 C40_6 1_555 1_555
C36_6 C39_6 1_555 1_555
C42_6 B2_6 1_555 1_555
C50_6 C57_6 1_555 1_555
C51_6 C57_6 1_555 1_555
C60_6 C62_6 1_555 1_555
O12_6 C71_7 1_555 1_555
C66_7 C72_7 1_555 1_555
C68_7 C71_7 1_555 1_555
C74_7 B3_7 1_555 1_555
C82_7 C89_7 1_555 1_555
C83_7 C89_7 1_555 1_555
C92_7 C94_7 1_555 1_555
Zn7_7 O5_7 1_555 1_555
Zn9_6 O14_7 1_555 1_555
Zn4_7 O1_7 1_555 1_555
Zn2_6 O2_7 1_555 1_555
O1_7 C7_8 1_555 1_555
O2_7 C7_8 1_555 1_555
O3_7 Zn2_6 1_555 1_555
C1_8 C3_8 1_555 1_555
C2_8 C6_8 1_555 1_555
C3_8 C4_8 1_555 1_555
C4_8 C6_8 1_555 1_555
C5_8 C1_8 1_555 1_555
H1_8 C5_8 1_555 1_555
H2_8 C5_8 1_555 1_555
H3_8 C5_8 1_555 1_555
C6_8 C13_8 1_555 1_555
C7_8 C4_8 1_555 1_555
C8_8 C1_8 1_555 1_555
C9_8 C2_8 1_555 1_555
H4_8 C9_8 1_555 1_555
H5_8 C9_8 1_555 1_555
H6_8 C9_8 1_555 1_555
C10_8 C12_8 1_555 1_555
C11_8 C3_8 1_555 1_555
H7_8 C11_8 1_555 1_555
H8_8 C11_8 1_555 1_555
H9_8 C11_8 1_555 1_555
C12_8 C14_8 1_555 1_555
C13_8 H10_8 1_555 1_555
H11_8 C13_8 1_555 1_555
H12_8 C13_8 1_555 1_555
C14_8 C16_8 1_555 1_555
C15_8 C12_8 1_555 1_555
H13_8 C15_8 1_555 1_555
H14_8 C15_8 1_555 1_555
H15_8 C15_8 1_555 1_555
B1_8 C8_8 1_555 1_555
C17_8 C14_8 1_555 1_555
H17_8 C17_8 1_555 1_555
H18_8 C17_8 1_555 1_555
O4_8 C24_8 1_555 1_555
C18_8 C20_8 1_555 1_555
C19_8 C23_8 1_555 1_555
C20_8 C21_8 1_555 1_555
C21_8 C23_8 1_555 1_555
C22_8 C18_8 1_555 1_555
H20_8 C22_8 1_555 1_555
H21_8 C22_8 1_555 1_555
H22_8 C22_8 1_555 1_555
C23_8 C29_8 1_555 1_555
C24_8 C21_8 1_555 1_555
C25_8 B1_8 1_555 1_555
C26_8 C19_8 1_555 1_555
H23_8 C26_8 1_555 1_555
H24_8 C26_8 1_555 1_555
H25_8 C26_8 1_555 1_555
C27_8 C20_8 1_555 1_555
H27_8 C27_8 1_555 1_555
H28_8 C27_8 1_555 1_555
C28_8 C10_8 1_555 1_555
C29_8 H29_8 1_555 1_555
H30_8 C29_8 1_555 1_555
H31_8 C29_8 1_555 1_555
C30_8 C16_8 1_555 1_555
C31_8 C28_8 1_555 1_555
H32_8 C31_8 1_555 1_555
H33_8 C31_8 1_555 1_555
H34_8 C31_8 1_555 1_555
C32_8 C30_8 1_555 1_555
H35_8 C32_8 1_555 1_555
Zn9_4 O6_7 1_555 1_555
O11_7 Zn4_7 1_555 1_555
O12_7 Zn9_4 1_555 1_555
C65_8 C67_8 1_555 1_555
C66_8 C70_8 1_555 1_555
C67_8 C68_8 1_555 1_555
C68_8 C70_8 1_555 1_555
C69_8 C65_8 1_555 1_555
H75_8 C69_8 1_555 1_555
H76_8 C69_8 1_555 1_555
H77_8 C69_8 1_555 1_555
C70_8 C77_8 1_555 1_555
C71_8 O11_7 1_555 1_555
C72_8 C65_8 1_555 1_555
C73_8 C66_8 1_555 1_555
H78_8 C73_8 1_555 1_555
H79_8 C73_8 1_555 1_555
H80_8 C73_8 1_555 1_555
C74_8 C76_8 1_555 1_555
C75_8 C67_8 1_555 1_555
H81_8 C75_8 1_555 1_555
H82_8 C75_8 1_555 1_555
H83_8 C75_8 1_555 1_555
C76_8 C78_8 1_555 1_555
C77_8 H84_8 1_555 1_555
H85_8 C77_8 1_555 1_555
H86_8 C77_8 1_555 1_555
C78_8 C80_8 1_555 1_555
C79_8 C76_8 1_555 1_555
H87_8 C79_8 1_555 1_555
H88_8 C79_8 1_555 1_555
H89_8 C79_8 1_555 1_555
B3_8 C72_8 1_555 1_555
C81_8 C78_8 1_555 1_555
H91_8 C81_8 1_555 1_555
H92_8 C81_8 1_555 1_555
O13_7 C88_8 1_555 1_555
C82_8 C84_8 1_555 1_555
C83_8 C87_8 1_555 1_555
C84_8 C85_8 1_555 1_555
C85_8 C87_8 1_555 1_555
C86_8 C82_8 1_555 1_555
H94_8 C86_8 1_555 1_555
H95_8 C86_8 1_555 1_555
H96_8 C86_8 1_555 1_555
C87_8 C93_8 1_555 1_555
C88_8 C85_8 1_555 1_555
C89_8 B3_8 1_555 1_555
C90_8 C83_8 1_555 1_555
H97_8 C90_8 1_555 1_555
H98_8 C90_8 1_555 1_555
H99_8 C90_8 1_555 1_555
C91_8 C84_8 1_555 1_555
H101_8 C91_8 1_555 1_555
H102_8 C91_8 1_555 1_555
C92_8 C74_8 1_555 1_555
C93_8 H103_8 1_555 1_555
H104_8 C93_8 1_555 1_555
H105_8 C93_8 1_555 1_555
C94_8 C80_8 1_555 1_555
C95_8 C92_8 1_555 1_555
H106_8 C95_8 1_555 1_555
H107_8 C95_8 1_555 1_555
H108_8 C95_8 1_555 1_555
C96_8 C94_8 1_555 1_555
H109_8 C96_8 1_555 1_555
Zn6_15 O13_7 1_555 1_555
Zn6_8 O4_8 1_555 1_555
O15_6 Zn4_7 1_555 1_555
O16_7 Zn4_7 1_555 1_555
O18_6 Zn2_6 1_555 1_555
O19_7 Zn2_6 1_555 1_555
C2_8 C8_8 1_555 1_555
C10_8 B1_8 1_555 1_555
C18_8 C25_8 1_555 1_555
C19_8 C25_8 1_555 1_555
C28_8 C30_8 1_555 1_555
O12_7 C71_8 1_555 1_555
C66_8 C72_8 1_555 1_555
C68_8 C71_8 1_555 1_555
C74_8 B3_8 1_555 1_555
C82_8 C89_8 1_555 1_555
C83_8 C89_8 1_555 1_555
C92_8 C94_8 1_555 1_555
Zn7_2 O5_8 1_555 1_555
Zn7_8 O5_9 1_555 1_555
O15_2 C7_9 1_555 1_555
O18_2 C7_9 1_555 1_555
C1_9 C3_9 1_555 1_555
C2_9 C6_9 1_555 1_555
C3_9 C4_9 1_555 1_555
C4_9 C6_9 1_555 1_555
C5_9 C1_9 1_555 1_555
H1_9 C5_9 1_555 1_555
H2_9 C5_9 1_555 1_555
H3_9 C5_9 1_555 1_555
C6_9 C13_9 1_555 1_555
C7_9 C4_9 1_555 1_555
C8_9 C1_9 1_555 1_555
C9_9 C2_9 1_555 1_555
H4_9 C9_9 1_555 1_555
H5_9 C9_9 1_555 1_555
H6_9 C9_9 1_555 1_555
C10_9 C12_9 1_555 1_555
C11_9 C3_9 1_555 1_555
H7_9 C11_9 1_555 1_555
H8_9 C11_9 1_555 1_555
H9_9 C11_9 1_555 1_555
C12_9 C14_9 1_555 1_555
C13_9 H10_9 1_555 1_555
H11_9 C13_9 1_555 1_555
H12_9 C13_9 1_555 1_555
C14_9 C16_9 1_555 1_555
C15_9 C12_9 1_555 1_555
H13_9 C15_9 1_555 1_555
H14_9 C15_9 1_555 1_555
H15_9 C15_9 1_555 1_555
B1_9 C8_9 1_555 1_555
C16_9 H16_9 1_555 1_555
C17_9 C14_9 1_555 1_555
H17_9 C17_9 1_555 1_555
H18_9 C17_9 1_555 1_555
H19_9 C17_9 1_555 1_555
O4_9 C24_9 1_555 1_555
C18_9 C20_9 1_555 1_555
C19_9 C23_9 1_555 1_555
C20_9 C21_9 1_555 1_555
C21_9 C23_9 1_555 1_555
C22_9 C18_9 1_555 1_555
H20_9 C22_9 1_555 1_555
H21_9 C22_9 1_555 1_555
H22_9 C22_9 1_555 1_555
C23_9 C29_9 1_555 1_555
C24_9 C21_9 1_555 1_555
C25_9 B1_9 1_555 1_555
C26_9 C19_9 1_555 1_555
H23_9 C26_9 1_555 1_555
H24_9 C26_9 1_555 1_555
H25_9 C26_9 1_555 1_555
C27_9 C20_9 1_555 1_555
H26_9 C27_9 1_555 1_555
H27_9 C27_9 1_555 1_555
H28_9 C27_9 1_555 1_555
C28_9 C10_9 1_555 1_555
C29_9 H29_9 1_555 1_555
H30_9 C29_9 1_555 1_555
H31_9 C29_9 1_555 1_555
C30_9 C16_9 1_555 1_555
C31_9 C28_9 1_555 1_555
H32_9 C31_9 1_555 1_555
H33_9 C31_9 1_555 1_555
H34_9 C31_9 1_555 1_555
C32_9 C30_9 1_555 1_555
H35_9 C32_9 1_555 1_555
H36_9 C32_9 1_555 1_555
H37_9 C32_9 1_555 1_555
Zn4_9 O4_9 1_555 1_555
C2_9 C8_9 1_555 1_555
C10_9 B1_9 1_555 1_555
C18_9 C25_9 1_555 1_555
C19_9 C25_9 1_555 1_555
C28_9 C30_9 1_555 1_555
O3_8 Zn7_8 1_555 1_555
O15_7 Zn4_8 1_555 1_555
O16_8 Zn4_8 1_555 1_555
O17_4 Zn4_8 1_555 1_555
O18_7 Zn7_8 1_555 1_555
O19_8 Zn7_8 1_555 1_555
Zn9_5 O6_8 1_555 1_555
O7_7 Zn4_9 1_555 1_555
O8_7 Zn9_5 1_555 1_555
C33_7 C35_7 1_555 1_555
C34_7 C38_7 1_555 1_555
C35_7 C36_7 1_555 1_555
C36_7 C38_7 1_555 1_555
C37_7 C33_7 1_555 1_555
H38_7 C37_7 1_555 1_555
H39_7 C37_7 1_555 1_555
H40_7 C37_7 1_555 1_555
C38_7 C45_7 1_555 1_555
C39_7 O7_7 1_555 1_555
C40_7 C33_7 1_555 1_555
C41_7 C34_7 1_555 1_555
H41_7 C41_7 1_555 1_555
H42_7 C41_7 1_555 1_555
H43_7 C41_7 1_555 1_555
C42_7 C44_7 1_555 1_555
C43_7 C35_7 1_555 1_555
H44_7 C43_7 1_555 1_555
H45_7 C43_7 1_555 1_555
H46_7 C43_7 1_555 1_555
C44_7 C46_7 1_555 1_555
C45_7 H47_7 1_555 1_555
H48_7 C45_7 1_555 1_555
H49_7 C45_7 1_555 1_555
C46_7 C48_7 1_555 1_555
C47_7 C44_7 1_555 1_555
H50_7 C47_7 1_555 1_555
H51_7 C47_7 1_555 1_555
H52_7 C47_7 1_555 1_555
B2_7 C40_7 1_555 1_555
C48_7 H53_7 1_555 1_555
C49_7 C46_7 1_555 1_555
H54_7 C49_7 1_555 1_555
H55_7 C49_7 1_555 1_555
H56_7 C49_7 1_555 1_555
O17_3 C56_7 1_555 1_555
O20_3 C56_7 1_555 1_555
C50_7 C52_7 1_555 1_555
C51_7 C55_7 1_555 1_555
C52_7 C53_7 1_555 1_555
C53_7 C55_7 1_555 1_555
C54_7 C50_7 1_555 1_555
H57_7 C54_7 1_555 1_555
H58_7 C54_7 1_555 1_555
H59_7 C54_7 1_555 1_555
C55_7 C61_7 1_555 1_555
C56_7 C53_7 1_555 1_555
C57_7 B2_7 1_555 1_555
C58_7 C51_7 1_555 1_555
H60_7 C58_7 1_555 1_555
H61_7 C58_7 1_555 1_555
H62_7 C58_7 1_555 1_555
C59_7 C52_7 1_555 1_555
H63_7 C59_7 1_555 1_555
H64_7 C59_7 1_555 1_555
H65_7 C59_7 1_555 1_555
C60_7 C42_7 1_555 1_555
C61_7 H66_7 1_555 1_555
H67_7 C61_7 1_555 1_555
H68_7 C61_7 1_555 1_555
C62_7 C48_7 1_555 1_555
C63_7 C60_7 1_555 1_555
H69_7 C63_7 1_555 1_555
H70_7 C63_7 1_555 1_555
H71_7 C63_7 1_555 1_555
C64_7 C62_7 1_555 1_555
H72_7 C64_7 1_555 1_555
H73_7 C64_7 1_555 1_555
H74_7 C64_7 1_555 1_555
O20_4 Zn9_5 1_555 1_555
O8_7 C39_7 1_555 1_555
C34_7 C40_7 1_555 1_555
C36_7 C39_7 1_555 1_555
C42_7 B2_7 1_555 1_555
C50_7 C57_7 1_555 1_555
C51_7 C57_7 1_555 1_555
C60_7 C62_7 1_555 1_555
O15_3 C7_10 1_555 1_555
O18_3 C7_10 1_555 1_555
C1_10 C3_10 1_555 1_555
C2_10 C6_10 1_555 1_555
C3_10 C4_10 1_555 1_555
C4_10 C6_10 1_555 1_555
C5_10 C1_10 1_555 1_555
H1_10 C5_10 1_555 1_555
H2_10 C5_10 1_555 1_555
H3_10 C5_10 1_555 1_555
C6_10 C13_10 1_555 1_555
C7_10 C4_10 1_555 1_555
C8_10 C1_10 1_555 1_555
C9_10 C2_10 1_555 1_555
H4_10 C9_10 1_555 1_555
H5_10 C9_10 1_555 1_555
H6_10 C9_10 1_555 1_555
C10_10 C12_10 1_555 1_555
C11_10 C3_10 1_555 1_555
H7_10 C11_10 1_555 1_555
H8_10 C11_10 1_555 1_555
H9_10 C11_10 1_555 1_555
C12_10 C14_10 1_555 1_555
C13_10 H10_10 1_555 1_555
H11_10 C13_10 1_555 1_555
H12_10 C13_10 1_555 1_555
C14_10 C16_10 1_555 1_555
C15_10 C12_10 1_555 1_555
H13_10 C15_10 1_555 1_555
H14_10 C15_10 1_555 1_555
H15_10 C15_10 1_555 1_555
B1_10 C8_10 1_555 1_555
C16_10 H16_10 1_555 1_555
C17_10 C14_10 1_555 1_555
H17_10 C17_10 1_555 1_555
H18_10 C17_10 1_555 1_555
H19_10 C17_10 1_555 1_555
O16_7 C24_10 1_555 1_555
O19_7 C24_10 1_555 1_555
C18_10 C20_10 1_555 1_555
C19_10 C23_10 1_555 1_555
C20_10 C21_10 1_555 1_555
C21_10 C23_10 1_555 1_555
C22_10 C18_10 1_555 1_555
H20_10 C22_10 1_555 1_555
H21_10 C22_10 1_555 1_555
H22_10 C22_10 1_555 1_555
C23_10 C29_10 1_555 1_555
C24_10 C21_10 1_555 1_555
C25_10 B1_10 1_555 1_555
C26_10 C19_10 1_555 1_555
H23_10 C26_10 1_555 1_555
H24_10 C26_10 1_555 1_555
H25_10 C26_10 1_555 1_555
C27_10 C20_10 1_555 1_555
H26_10 C27_10 1_555 1_555
H27_10 C27_10 1_555 1_555
H28_10 C27_10 1_555 1_555
C28_10 C10_10 1_555 1_555
C29_10 H29_10 1_555 1_555
H30_10 C29_10 1_555 1_555
H31_10 C29_10 1_555 1_555
C30_10 C16_10 1_555 1_555
C31_10 C28_10 1_555 1_555
H32_10 C31_10 1_555 1_555
H33_10 C31_10 1_555 1_555
H34_10 C31_10 1_555 1_555
C32_10 C30_10 1_555 1_555
H35_10 C32_10 1_555 1_555
H36_10 C32_10 1_555 1_555
H37_10 C32_10 1_555 1_555
C2_10 C8_10 1_555 1_555
C10_10 B1_10 1_555 1_555
C18_10 C25_10 1_555 1_555
C19_10 C25_10 1_555 1_555
C28_10 C30_10 1_555 1_555
O16 C7_11 1_555 1_555
O19 C7_11 1_555 1_555
C1_11 C3_11 1_555 1_555
C2_11 C6_11 1_555 1_555
C3_11 C4_11 1_555 1_555
C4_11 C6_11 1_555 1_555
C5_11 C1_11 1_555 1_555
H1_11 C5_11 1_555 1_555
H2_11 C5_11 1_555 1_555
H3_11 C5_11 1_555 1_555
C6_11 C13_11 1_555 1_555
C7_11 C4_11 1_555 1_555
C8_11 C1_11 1_555 1_555
C9_11 C2_11 1_555 1_555
H4_11 C9_11 1_555 1_555
H5_11 C9_11 1_555 1_555
H6_11 C9_11 1_555 1_555
C10_11 C12_11 1_555 1_555
C11_11 C3_11 1_555 1_555
H7_11 C11_11 1_555 1_555
H8_11 C11_11 1_555 1_555
H9_11 C11_11 1_555 1_555
C12_11 C14_11 1_555 1_555
C13_11 H10_11 1_555 1_555
H11_11 C13_11 1_555 1_555
H12_11 C13_11 1_555 1_555
C14_11 C16_11 1_555 1_555
C15_11 C12_11 1_555 1_555
H13_11 C15_11 1_555 1_555
H14_11 C15_11 1_555 1_555
H15_11 C15_11 1_555 1_555
B1_11 C8_11 1_555 1_555
C16_11 H16_11 1_555 1_555
C17_11 C14_11 1_555 1_555
H17_11 C17_11 1_555 1_555
H18_11 C17_11 1_555 1_555
H19_11 C17_11 1_555 1_555
O4_10 C24_11 1_555 1_555
O5_10 C24_11 1_555 1_555
C18_11 C20_11 1_555 1_555
C19_11 C23_11 1_555 1_555
C20_11 C21_11 1_555 1_555
C21_11 C23_11 1_555 1_555
C22_11 C18_11 1_555 1_555
H20_11 C22_11 1_555 1_555
H21_11 C22_11 1_555 1_555
H22_11 C22_11 1_555 1_555
C23_11 C29_11 1_555 1_555
C24_11 C21_11 1_555 1_555
C25_11 B1_11 1_555 1_555
C26_11 C19_11 1_555 1_555
H23_11 C26_11 1_555 1_555
H24_11 C26_11 1_555 1_555
H25_11 C26_11 1_555 1_555
C27_11 C20_11 1_555 1_555
H26_11 C27_11 1_555 1_555
H27_11 C27_11 1_555 1_555
H28_11 C27_11 1_555 1_555
C28_11 C10_11 1_555 1_555
C29_11 H29_11 1_555 1_555
H30_11 C29_11 1_555 1_555
H31_11 C29_11 1_555 1_555
C30_11 C16_11 1_555 1_555
C31_11 C28_11 1_555 1_555
H32_11 C31_11 1_555 1_555
H33_11 C31_11 1_555 1_555
H34_11 C31_11 1_555 1_555
C32_11 C30_11 1_555 1_555
H35_11 C32_11 1_555 1_555
H36_11 C32_11 1_555 1_555
H37_11 C32_11 1_555 1_555
Zn6_11 O4_10 1_555 1_555
Zn7_5 O5_10 1_555 1_555
C2_11 C8_11 1_555 1_555
C10_11 B1_11 1_555 1_555
C18_11 C25_11 1_555 1_555
C19_11 C25_11 1_555 1_555
C28_11 C30_11 1_555 1_555
Zn7_9 O5_11 1_555 1_555
O15_6 C7_12 1_555 1_555
O18_6 C7_12 1_555 1_555
C1_12 C3_12 1_555 1_555
C2_12 C6_12 1_555 1_555
C3_12 C4_12 1_555 1_555
C4_12 C6_12 1_555 1_555
C5_12 C1_12 1_555 1_555
H1_12 C5_12 1_555 1_555
H2_12 C5_12 1_555 1_555
H3_12 C5_12 1_555 1_555
C6_12 C13_12 1_555 1_555
C7_12 C4_12 1_555 1_555
C8_12 C1_12 1_555 1_555
C9_12 C2_12 1_555 1_555
H4_12 C9_12 1_555 1_555
H5_12 C9_12 1_555 1_555
H6_12 C9_12 1_555 1_555
C10_12 C12_12 1_555 1_555
C11_12 C3_12 1_555 1_555
H7_12 C11_12 1_555 1_555
H8_12 C11_12 1_555 1_555
H9_12 C11_12 1_555 1_555
C12_12 C14_12 1_555 1_555
C13_12 H10_12 1_555 1_555
H11_12 C13_12 1_555 1_555
H12_12 C13_12 1_555 1_555
C14_12 C16_12 1_555 1_555
C15_12 C12_12 1_555 1_555
H13_12 C15_12 1_555 1_555
H14_12 C15_12 1_555 1_555
H15_12 C15_12 1_555 1_555
B1_12 C8_12 1_555 1_555
C16_12 H16_12 1_555 1_555
C17_12 C14_12 1_555 1_555
H17_12 C17_12 1_555 1_555
H18_12 C17_12 1_555 1_555
H19_12 C17_12 1_555 1_555
O4_11 C24_12 1_555 1_555
C18_12 C20_12 1_555 1_555
C19_12 C23_12 1_555 1_555
C20_12 C21_12 1_555 1_555
C21_12 C23_12 1_555 1_555
C22_12 C18_12 1_555 1_555
H20_12 C22_12 1_555 1_555
H21_12 C22_12 1_555 1_555
H22_12 C22_12 1_555 1_555
C23_12 C29_12 1_555 1_555
C24_12 C21_12 1_555 1_555
C25_12 B1_12 1_555 1_555
C26_12 C19_12 1_555 1_555
H23_12 C26_12 1_555 1_555
H24_12 C26_12 1_555 1_555
H25_12 C26_12 1_555 1_555
C27_12 C20_12 1_555 1_555
H26_12 C27_12 1_555 1_555
H27_12 C27_12 1_555 1_555
H28_12 C27_12 1_555 1_555
C28_12 C10_12 1_555 1_555
C29_12 H29_12 1_555 1_555
H30_12 C29_12 1_555 1_555
H31_12 C29_12 1_555 1_555
C30_12 C16_12 1_555 1_555
C31_12 C28_12 1_555 1_555
H32_12 C31_12 1_555 1_555
H33_12 C31_12 1_555 1_555
H34_12 C31_12 1_555 1_555
C32_12 C30_12 1_555 1_555
H35_12 C32_12 1_555 1_555
H36_12 C32_12 1_555 1_555
H37_12 C32_12 1_555 1_555
Zn5_8 O4_11 1_555 1_555
C2_12 C8_12 1_555 1_555
C10_12 B1_12 1_555 1_555
C18_12 C25_12 1_555 1_555
C19_12 C25_12 1_555 1_555
C28_12 C30_12 1_555 1_555
O16_8 C7_13 1_555 1_555
O19_8 C7_13 1_555 1_555
C1_13 C3_13 1_555 1_555
C2_13 C6_13 1_555 1_555
C3_13 C4_13 1_555 1_555
C4_13 C6_13 1_555 1_555
C5_13 C1_13 1_555 1_555
H1_13 C5_13 1_555 1_555
H2_13 C5_13 1_555 1_555
H3_13 C5_13 1_555 1_555
C6_13 C13_13 1_555 1_555
C7_13 C4_13 1_555 1_555
C8_13 C1_13 1_555 1_555
C9_13 C2_13 1_555 1_555
H4_13 C9_13 1_555 1_555
H5_13 C9_13 1_555 1_555
H6_13 C9_13 1_555 1_555
C10_13 C12_13 1_555 1_555
C11_13 C3_13 1_555 1_555
H8_13 C11_13 1_555 1_555
H9_13 C11_13 1_555 1_555
C12_13 C14_13 1_555 1_555
C13_13 H10_13 1_555 1_555
H11_13 C13_13 1_555 1_555
H12_13 C13_13 1_555 1_555
C14_13 C16_13 1_555 1_555
C15_13 C12_13 1_555 1_555
H13_13 C15_13 1_555 1_555
H14_13 C15_13 1_555 1_555
H15_13 C15_13 1_555 1_555
B1_13 C8_13 1_555 1_555
C17_13 C14_13 1_555 1_555
H17_13 C17_13 1_555 1_555
O4_12 C24_13 1_555 1_555
O5_12 C24_13 1_555 1_555
C18_13 C20_13 1_555 1_555
C19_13 C23_13 1_555 1_555
C20_13 C21_13 1_555 1_555
C21_13 C23_13 1_555 1_555
C22_13 C18_13 1_555 1_555
H20_13 C22_13 1_555 1_555
H21_13 C22_13 1_555 1_555
H22_13 C22_13 1_555 1_555
C23_13 C29_13 1_555 1_555
C24_13 C21_13 1_555 1_555
C25_13 B1_13 1_555 1_555
C26_13 C19_13 1_555 1_555
H23_13 C26_13 1_555 1_555
H24_13 C26_13 1_555 1_555
H25_13 C26_13 1_555 1_555
C27_13 C20_13 1_555 1_555
H26_13 C27_13 1_555 1_555
H27_13 C27_13 1_555 1_555
H28_13 C27_13 1_555 1_555
C28_13 C10_13 1_555 1_555
C29_13 H29_13 1_555 1_555
H30_13 C29_13 1_555 1_555
H31_13 C29_13 1_555 1_555
C30_13 C16_13 1_555 1_555
C31_13 C28_13 1_555 1_555
H32_13 C31_13 1_555 1_555
H33_13 C31_13 1_555 1_555
H34_13 C31_13 1_555 1_555
C32_13 C30_13 1_555 1_555
H35_13 C32_13 1_555 1_555
H36_13 C32_13 1_555 1_555
C33_8 C35_8 1_555 1_555
C34_8 C38_8 1_555 1_555
C35_8 C36_8 1_555 1_555
C36_8 C38_8 1_555 1_555
C37_8 C33_8 1_555 1_555
H38_8 C37_8 1_555 1_555
H39_8 C37_8 1_555 1_555
H40_8 C37_8 1_555 1_555
C38_8 C45_8 1_555 1_555
C39_8 O17_4 1_555 1_555
C40_8 C33_8 1_555 1_555
C41_8 C34_8 1_555 1_555
H41_8 C41_8 1_555 1_555
H42_8 C41_8 1_555 1_555
H43_8 C41_8 1_555 1_555
C42_8 C44_8 1_555 1_555
C43_8 C35_8 1_555 1_555
H44_8 C43_8 1_555 1_555
H45_8 C43_8 1_555 1_555
H46_8 C43_8 1_555 1_555
C44_8 C46_8 1_555 1_555
C45_8 H47_8 1_555 1_555
H48_8 C45_8 1_555 1_555
H49_8 C45_8 1_555 1_555
C46_8 C48_8 1_555 1_555
C47_8 C44_8 1_555 1_555
H50_8 C47_8 1_555 1_555
H51_8 C47_8 1_555 1_555
H52_8 C47_8 1_555 1_555
B2_8 C40_8 1_555 1_555
C48_8 H53_8 1_555 1_555
C49_8 C46_8 1_555 1_555
H54_8 C49_8 1_555 1_555
H55_8 C49_8 1_555 1_555
H56_8 C49_8 1_555 1_555
O9_7 C56_8 1_555 1_555
O10_7 C56_8 1_555 1_555
C50_8 C52_8 1_555 1_555
C51_8 C55_8 1_555 1_555
C52_8 C53_8 1_555 1_555
C53_8 C55_8 1_555 1_555
C54_8 C50_8 1_555 1_555
H57_8 C54_8 1_555 1_555
H58_8 C54_8 1_555 1_555
H59_8 C54_8 1_555 1_555
C55_8 C61_8 1_555 1_555
C56_8 C53_8 1_555 1_555
C57_8 B2_8 1_555 1_555
C58_8 C51_8 1_555 1_555
H60_8 C58_8 1_555 1_555
H61_8 C58_8 1_555 1_555
H62_8 C58_8 1_555 1_555
C59_8 C52_8 1_555 1_555
H63_8 C59_8 1_555 1_555
H64_8 C59_8 1_555 1_555
H65_8 C59_8 1_555 1_555
C60_8 C42_8 1_555 1_555
C61_8 H66_8 1_555 1_555
H67_8 C61_8 1_555 1_555
H68_8 C61_8 1_555 1_555
C62_8 C48_8 1_555 1_555
C63_8 C60_8 1_555 1_555
H69_8 C63_8 1_555 1_555
H70_8 C63_8 1_555 1_555
H71_8 C63_8 1_555 1_555
C64_8 C62_8 1_555 1_555
H72_8 C64_8 1_555 1_555
H73_8 C64_8 1_555 1_555
H74_8 C64_8 1_555 1_555
Zn6_11 O9_7 1_555 1_555
Zn5_6 O4_12 1_555 1_555
Zn7_10 O5_12 1_555 1_555
Zn8_7 O10_7 1_555 1_555
C2_13 C8_13 1_555 1_555
C10_13 B1_13 1_555 1_555
C18_13 C25_13 1_555 1_555
C19_13 C25_13 1_555 1_555
C28_13 C30_13 1_555 1_555
C34_8 C40_8 1_555 1_555
C36_8 C39_8 1_555 1_555
C42_8 B2_8 1_555 1_555
C50_8 C57_8 1_555 1_555
C51_8 C57_8 1_555 1_555
C60_8 C62_8 1_555 1_555
O15_4 C7_14 1_555 1_555
C1_14 C3_14 1_555 1_555
C2_14 C6_14 1_555 1_555
C3_14 C4_14 1_555 1_555
C4_14 C6_14 1_555 1_555
C5_14 C1_14 1_555 1_555
H1_14 C5_14 1_555 1_555
H2_14 C5_14 1_555 1_555
H3_14 C5_14 1_555 1_555
C6_14 C13_14 1_555 1_555
C7_14 C4_14 1_555 1_555
C8_14 C1_14 1_555 1_555
C9_14 C2_14 1_555 1_555
H4_14 C9_14 1_555 1_555
H5_14 C9_14 1_555 1_555
H6_14 C9_14 1_555 1_555
C10_14 C12_14 1_555 1_555
C11_14 C3_14 1_555 1_555
H7_14 C11_14 1_555 1_555
H8_14 C11_14 1_555 1_555
H9_14 C11_14 1_555 1_555
C12_14 C14_14 1_555 1_555
C13_14 H10_14 1_555 1_555
H11_14 C13_14 1_555 1_555
H12_14 C13_14 1_555 1_555
C14_14 C16_14 1_555 1_555
C15_14 C12_14 1_555 1_555
H13_14 C15_14 1_555 1_555
H14_14 C15_14 1_555 1_555
H15_14 C15_14 1_555 1_555
B1_14 C8_14 1_555 1_555
C16_14 H16_14 1_555 1_555
C17_14 C14_14 1_555 1_555
H17_14 C17_14 1_555 1_555
H18_14 C17_14 1_555 1_555
H19_14 C17_14 1_555 1_555
O15_5 C24_14 1_555 1_555
O18_5 C24_14 1_555 1_555
C18_14 C20_14 1_555 1_555
C19_14 C23_14 1_555 1_555
C20_14 C21_14 1_555 1_555
C21_14 C23_14 1_555 1_555
C22_14 C18_14 1_555 1_555
H20_14 C22_14 1_555 1_555
H21_14 C22_14 1_555 1_555
H22_14 C22_14 1_555 1_555
C23_14 C29_14 1_555 1_555
C24_14 C21_14 1_555 1_555
C25_14 B1_14 1_555 1_555
C26_14 C19_14 1_555 1_555
H23_14 C26_14 1_555 1_555
H24_14 C26_14 1_555 1_555
H25_14 C26_14 1_555 1_555
C27_14 C20_14 1_555 1_555
H26_14 C27_14 1_555 1_555
H27_14 C27_14 1_555 1_555
H28_14 C27_14 1_555 1_555
C28_14 C10_14 1_555 1_555
C29_14 H29_14 1_555 1_555
H30_14 C29_14 1_555 1_555
H31_14 C29_14 1_555 1_555
C30_14 C16_14 1_555 1_555
C31_14 C28_14 1_555 1_555
H32_14 C31_14 1_555 1_555
H33_14 C31_14 1_555 1_555
H34_14 C31_14 1_555 1_555
C32_14 C30_14 1_555 1_555
H35_14 C32_14 1_555 1_555
H36_14 C32_14 1_555 1_555
H37_14 C32_14 1_555 1_555
C2_14 C8_14 1_555 1_555
C10_14 B1_14 1_555 1_555
C18_14 C25_14 1_555 1_555
C19_14 C25_14 1_555 1_555
C28_14 C30_14 1_555 1_555
Zn7_7 O5_13 1_555 1_555
O16_5 C7_15 1_555 1_555
O19_5 C7_15 1_555 1_555
C1_15 C3_15 1_555 1_555
C2_15 C6_15 1_555 1_555
C3_15 C4_15 1_555 1_555
C4_15 C6_15 1_555 1_555
C5_15 C1_15 1_555 1_555
H1_15 C5_15 1_555 1_555
H2_15 C5_15 1_555 1_555
H3_15 C5_15 1_555 1_555
C6_15 C13_15 1_555 1_555
C7_15 C4_15 1_555 1_555
C8_15 C1_15 1_555 1_555
C9_15 C2_15 1_555 1_555
H4_15 C9_15 1_555 1_555
H5_15 C9_15 1_555 1_555
H6_15 C9_15 1_555 1_555
C10_15 C12_15 1_555 1_555
C11_15 C3_15 1_555 1_555
H7_15 C11_15 1_555 1_555
H8_15 C11_15 1_555 1_555
H9_15 C11_15 1_555 1_555
C12_15 C14_15 1_555 1_555
C13_15 H10_15 1_555 1_555
H11_15 C13_15 1_555 1_555
H12_15 C13_15 1_555 1_555
C14_15 C16_15 1_555 1_555
C15_15 C12_15 1_555 1_555
H13_15 C15_15 1_555 1_555
H14_15 C15_15 1_555 1_555
H15_15 C15_15 1_555 1_555
B1_15 C8_15 1_555 1_555
C16_15 H16_15 1_555 1_555
C17_15 C14_15 1_555 1_555
H17_15 C17_15 1_555 1_555
H18_15 C17_15 1_555 1_555
H19_15 C17_15 1_555 1_555
O4_13 C24_15 1_555 1_555
C18_15 C20_15 1_555 1_555
C19_15 C23_15 1_555 1_555
C20_15 C21_15 1_555 1_555
C21_15 C23_15 1_555 1_555
C22_15 C18_15 1_555 1_555
H20_15 C22_15 1_555 1_555
H21_15 C22_15 1_555 1_555
H22_15 C22_15 1_555 1_555
C23_15 C29_15 1_555 1_555
C24_15 C21_15 1_555 1_555
C25_15 B1_15 1_555 1_555
C26_15 C19_15 1_555 1_555
H23_15 C26_15 1_555 1_555
H24_15 C26_15 1_555 1_555
H25_15 C26_15 1_555 1_555
C27_15 C20_15 1_555 1_555
H26_15 C27_15 1_555 1_555
H27_15 C27_15 1_555 1_555
H28_15 C27_15 1_555 1_555
C28_15 C10_15 1_555 1_555
C29_15 H29_15 1_555 1_555
H30_15 C29_15 1_555 1_555
H31_15 C29_15 1_555 1_555
C30_15 C16_15 1_555 1_555
C31_15 C28_15 1_555 1_555
H32_15 C31_15 1_555 1_555
H33_15 C31_15 1_555 1_555
H34_15 C31_15 1_555 1_555
C32_15 C30_15 1_555 1_555
H35_15 C32_15 1_555 1_555
H36_15 C32_15 1_555 1_555
H37_15 C32_15 1_555 1_555
Zn5_5 O4_13 1_555 1_555
C2_15 C8_15 1_555 1_555
C10_15 B1_15 1_555 1_555
C18_15 C25_15 1_555 1_555
C19_15 C25_15 1_555 1_555
C28_15 C30_15 1_555 1_555
O16_6 C7_16 1_555 1_555
O19_6 C7_16 1_555 1_555
C1_16 C3_16 1_555 1_555
C2_16 C6_16 1_555 1_555
C3_16 C4_16 1_555 1_555
C4_16 C6_16 1_555 1_555
C5_16 C1_16 1_555 1_555
H1_16 C5_16 1_555 1_555
H2_16 C5_16 1_555 1_555
H3_16 C5_16 1_555 1_555
C6_16 C13_16 1_555 1_555
C7_16 C4_16 1_555 1_555
C8_16 C1_16 1_555 1_555
C9_16 C2_16 1_555 1_555
H4_16 C9_16 1_555 1_555
H5_16 C9_16 1_555 1_555
H6_16 C9_16 1_555 1_555
C10_16 C12_16 1_555 1_555
C11_16 C3_16 1_555 1_555
H7_16 C11_16 1_555 1_555
H8_16 C11_16 1_555 1_555
H9_16 C11_16 1_555 1_555
C12_16 C14_16 1_555 1_555
C13_16 H10_16 1_555 1_555
H11_16 C13_16 1_555 1_555
H12_16 C13_16 1_555 1_555
C14_16 C16_16 1_555 1_555
C15_16 C12_16 1_555 1_555
H13_16 C15_16 1_555 1_555
H14_16 C15_16 1_555 1_555
H15_16 C15_16 1_555 1_555
B1_16 C8_16 1_555 1_555
C17_16 C14_16 1_555 1_555
H17_16 C17_16 1_555 1_555
H18_16 C17_16 1_555 1_555
O4_14 C24_16 1_555 1_555
O5_14 C24_16 1_555 1_555
C18_16 C20_16 1_555 1_555
C19_16 C23_16 1_555 1_555
C20_16 C21_16 1_555 1_555
C21_16 C23_16 1_555 1_555
C22_16 C18_16 1_555 1_555
H20_16 C22_16 1_555 1_555
H21_16 C22_16 1_555 1_555
H22_16 C22_16 1_555 1_555
C23_16 C29_16 1_555 1_555
C24_16 C21_16 1_555 1_555
C25_16 B1_16 1_555 1_555
C26_16 C19_16 1_555 1_555
H23_16 C26_16 1_555 1_555
H24_16 C26_16 1_555 1_555
H25_16 C26_16 1_555 1_555
C27_16 C20_16 1_555 1_555
H27_16 C27_16 1_555 1_555
H28_16 C27_16 1_555 1_555
C28_16 C10_16 1_555 1_555
C29_16 H29_16 1_555 1_555
H30_16 C29_16 1_555 1_555
H31_16 C29_16 1_555 1_555
C30_16 C16_16 1_555 1_555
C31_16 C28_16 1_555 1_555
H32_16 C31_16 1_555 1_555
H33_16 C31_16 1_555 1_555
H34_16 C31_16 1_555 1_555
C32_16 C30_16 1_555 1_555
H35_16 C32_16 1_555 1_555
Zn6_14 O4_14 1_555 1_555
Zn7_6 O5_14 1_555 1_555
C2_16 C8_16 1_555 1_555
C10_16 B1_16 1_555 1_555
C18_16 C25_16 1_555 1_555
C19_16 C25_16 1_555 1_555
C28_16 C30_16 1_555 1_555
O16_2 C7_17 1_555 1_555
O19_2 C7_17 1_555 1_555
C1_17 C3_17 1_555 1_555
C2_17 C6_17 1_555 1_555
C3_17 C4_17 1_555 1_555
C4_17 C6_17 1_555 1_555
C5_17 C1_17 1_555 1_555
H1_17 C5_17 1_555 1_555
H2_17 C5_17 1_555 1_555
H3_17 C5_17 1_555 1_555
C6_17 C13_17 1_555 1_555
C7_17 C4_17 1_555 1_555
C8_17 C1_17 1_555 1_555
C9_17 C2_17 1_555 1_555
H4_17 C9_17 1_555 1_555
H5_17 C9_17 1_555 1_555
H6_17 C9_17 1_555 1_555
C10_17 C12_17 1_555 1_555
C11_17 C3_17 1_555 1_555
H7_17 C11_17 1_555 1_555
H8_17 C11_17 1_555 1_555
H9_17 C11_17 1_555 1_555
C12_17 C14_17 1_555 1_555
C13_17 H10_17 1_555 1_555
H11_17 C13_17 1_555 1_555
H12_17 C13_17 1_555 1_555
C14_17 C16_17 1_555 1_555
C15_17 C12_17 1_555 1_555
H13_17 C15_17 1_555 1_555
H14_17 C15_17 1_555 1_555
H15_17 C15_17 1_555 1_555
B1_17 C8_17 1_555 1_555
C16_17 H16_17 1_555 1_555
C17_17 C14_17 1_555 1_555
H17_17 C17_17 1_555 1_555
H18_17 C17_17 1_555 1_555
H19_17 C17_17 1_555 1_555
O4_15 C24_17 1_555 1_555
O5_15 C24_17 1_555 1_555
C18_17 C20_17 1_555 1_555
C19_17 C23_17 1_555 1_555
C20_17 C21_17 1_555 1_555
C21_17 C23_17 1_555 1_555
C22_17 C18_17 1_555 1_555
H20_17 C22_17 1_555 1_555
H21_17 C22_17 1_555 1_555
H22_17 C22_17 1_555 1_555
C23_17 C29_17 1_555 1_555
C24_17 C21_17 1_555 1_555
C25_17 B1_17 1_555 1_555
C26_17 C19_17 1_555 1_555
H23_17 C26_17 1_555 1_555
H24_17 C26_17 1_555 1_555
H25_17 C26_17 1_555 1_555
C27_17 C20_17 1_555 1_555
H26_17 C27_17 1_555 1_555
H27_17 C27_17 1_555 1_555
H28_17 C27_17 1_555 1_555
C28_17 C10_17 1_555 1_555
C29_17 H29_17 1_555 1_555
H30_17 C29_17 1_555 1_555
H31_17 C29_17 1_555 1_555
C30_17 C16_17 1_555 1_555
C31_17 C28_17 1_555 1_555
H32_17 C31_17 1_555 1_555
H33_17 C31_17 1_555 1_555
H34_17 C31_17 1_555 1_555
C32_17 C30_17 1_555 1_555
H35_17 C32_17 1_555 1_555
H36_17 C32_17 1_555 1_555
H37_17 C32_17 1_555 1_555
Zn5_7 O4_15 1_555 1_555
Zn7_9 O5_15 1_555 1_555
C2_17 C8_17 1_555 1_555
C10_17 B1_17 1_555 1_555
C18_17 C25_17 1_555 1_555
C19_17 C25_17 1_555 1_555
C28_17 C30_17 1_555 1_555
O3_9 Zn7_9 1_555 1_555
O16_9 Zn5_7 1_555 1_555
O17_5 Zn5_7 1_555 1_555
O19_9 Zn7_9 1_555 1_555
Zn8_5 O6_9 1_555 1_555
O7_8 Zn5_8 1_555 1_555
O8_8 Zn8_5 1_555 1_555
C33_9 C35_9 1_555 1_555
C34_9 C38_9 1_555 1_555
C35_9 C36_9 1_555 1_555
C36_9 C38_9 1_555 1_555
C37_9 C33_9 1_555 1_555
H38_9 C37_9 1_555 1_555
H39_9 C37_9 1_555 1_555
H40_9 C37_9 1_555 1_555
C38_9 C45_9 1_555 1_555
C39_9 O7_8 1_555 1_555
C40_9 C33_9 1_555 1_555
C41_9 C34_9 1_555 1_555
H41_9 C41_9 1_555 1_555
H42_9 C41_9 1_555 1_555
H43_9 C41_9 1_555 1_555
C42_9 C44_9 1_555 1_555
C43_9 C35_9 1_555 1_555
H44_9 C43_9 1_555 1_555
H45_9 C43_9 1_555 1_555
H46_9 C43_9 1_555 1_555
C44_9 C46_9 1_555 1_555
C45_9 H47_9 1_555 1_555
H48_9 C45_9 1_555 1_555
H49_9 C45_9 1_555 1_555
C46_9 C48_9 1_555 1_555
C47_9 C44_9 1_555 1_555
H50_9 C47_9 1_555 1_555
H51_9 C47_9 1_555 1_555
H52_9 C47_9 1_555 1_555
B2_9 C40_9 1_555 1_555
C48_9 H53_9 1_555 1_555
C49_9 C46_9 1_555 1_555
H54_9 C49_9 1_555 1_555
H55_9 C49_9 1_555 1_555
H56_9 C49_9 1_555 1_555
O9_8 C56_9 1_555 1_555
O10_8 C56_9 1_555 1_555
C50_9 C52_9 1_555 1_555
C51_9 C55_9 1_555 1_555
C52_9 C53_9 1_555 1_555
C53_9 C55_9 1_555 1_555
C54_9 C50_9 1_555 1_555
H57_9 C54_9 1_555 1_555
H58_9 C54_9 1_555 1_555
H59_9 C54_9 1_555 1_555
C55_9 C61_9 1_555 1_555
C56_9 C53_9 1_555 1_555
C57_9 B2_9 1_555 1_555
C58_9 C51_9 1_555 1_555
H60_9 C58_9 1_555 1_555
H61_9 C58_9 1_555 1_555
H62_9 C58_9 1_555 1_555
C59_9 C52_9 1_555 1_555
H63_9 C59_9 1_555 1_555
H64_9 C59_9 1_555 1_555
H65_9 C59_9 1_555 1_555
C60_9 C42_9 1_555 1_555
C61_9 H66_9 1_555 1_555
H67_9 C61_9 1_555 1_555
H68_9 C61_9 1_555 1_555
C62_9 C48_9 1_555 1_555
C63_9 C60_9 1_555 1_555
H69_9 C63_9 1_555 1_555
H70_9 C63_9 1_555 1_555
H71_9 C63_9 1_555 1_555
C64_9 C62_9 1_555 1_555
H72_9 C64_9 1_555 1_555
H73_9 C64_9 1_555 1_555
H74_9 C64_9 1_555 1_555
Zn6_11 O9_8 1_555 1_555
Zn8_7 O10_8 1_555 1_555
O20_5 Zn8_5 1_555 1_555
O8_8 C39_9 1_555 1_555
C34_9 C40_9 1_555 1_555
C36_9 C39_9 1_555 1_555
C42_9 B2_9 1_555 1_555
C50_9 C57_9 1_555 1_555
C51_9 C57_9 1_555 1_555
C60_9 C62_9 1_555 1_555
O16_3 C7_18 1_555 1_555
O19_3 C7_18 1_555 1_555
C1_18 C3_18 1_555 1_555
C2_18 C6_18 1_555 1_555
C3_18 C4_18 1_555 1_555
C4_18 C6_18 1_555 1_555
C5_18 C1_18 1_555 1_555
H1_18 C5_18 1_555 1_555
H2_18 C5_18 1_555 1_555
H3_18 C5_18 1_555 1_555
C6_18 C13_18 1_555 1_555
C7_18 C4_18 1_555 1_555
C8_18 C1_18 1_555 1_555
C9_18 C2_18 1_555 1_555
H4_18 C9_18 1_555 1_555
H5_18 C9_18 1_555 1_555
H6_18 C9_18 1_555 1_555
C10_18 C12_18 1_555 1_555
C11_18 C3_18 1_555 1_555
H8_18 C11_18 1_555 1_555
H9_18 C11_18 1_555 1_555
C12_18 C14_18 1_555 1_555
C13_18 H10_18 1_555 1_555
H11_18 C13_18 1_555 1_555
H12_18 C13_18 1_555 1_555
C14_18 C16_18 1_555 1_555
C15_18 C12_18 1_555 1_555
H13_18 C15_18 1_555 1_555
H14_18 C15_18 1_555 1_555
H15_18 C15_18 1_555 1_555
B1_18 C8_18 1_555 1_555
C17_18 C14_18 1_555 1_555
H17_18 C17_18 1_555 1_555
O4_16 C24_18 1_555 1_555
O5_16 C24_18 1_555 1_555
C18_18 C20_18 1_555 1_555
C19_18 C23_18 1_555 1_555
C20_18 C21_18 1_555 1_555
C21_18 C23_18 1_555 1_555
C22_18 C18_18 1_555 1_555
H20_18 C22_18 1_555 1_555
H21_18 C22_18 1_555 1_555
H22_18 C22_18 1_555 1_555
C23_18 C29_18 1_555 1_555
C24_18 C21_18 1_555 1_555
C25_18 B1_18 1_555 1_555
C26_18 C19_18 1_555 1_555
H23_18 C26_18 1_555 1_555
H24_18 C26_18 1_555 1_555
H25_18 C26_18 1_555 1_555
C27_18 C20_18 1_555 1_555
H26_18 C27_18 1_555 1_555
H27_18 C27_18 1_555 1_555
H28_18 C27_18 1_555 1_555
C28_18 C10_18 1_555 1_555
C29_18 H29_18 1_555 1_555
H30_18 C29_18 1_555 1_555
H31_18 C29_18 1_555 1_555
C30_18 C16_18 1_555 1_555
C31_18 C28_18 1_555 1_555
H32_18 C31_18 1_555 1_555
H33_18 C31_18 1_555 1_555
H34_18 C31_18 1_555 1_555
C32_18 C30_18 1_555 1_555
H35_18 C32_18 1_555 1_555
H36_18 C32_18 1_555 1_555
Zn5_6 O4_16 1_555 1_555
Zn7_10 O5_16 1_555 1_555
C2_18 C8_18 1_555 1_555
C10_18 B1_18 1_555 1_555
C18_18 C25_18 1_555 1_555
C19_18 C25_18 1_555 1_555
C28_18 C30_18 1_555 1_555
O15_7 C7_19 1_555 1_555
O18_7 C7_19 1_555 1_555
C1_19 C3_19 1_555 1_555
C2_19 C6_19 1_555 1_555
C3_19 C4_19 1_555 1_555
C4_19 C6_19 1_555 1_555
C5_19 C1_19 1_555 1_555
H1_19 C5_19 1_555 1_555
H2_19 C5_19 1_555 1_555
H3_19 C5_19 1_555 1_555
C6_19 C13_19 1_555 1_555
C7_19 C4_19 1_555 1_555
C8_19 C1_19 1_555 1_555
C9_19 C2_19 1_555 1_555
H4_19 C9_19 1_555 1_555
H5_19 C9_19 1_555 1_555
H6_19 C9_19 1_555 1_555
C10_19 C12_19 1_555 1_555
C11_19 C3_19 1_555 1_555
H7_19 C11_19 1_555 1_555
H8_19 C11_19 1_555 1_555
H9_19 C11_19 1_555 1_555
C12_19 C14_19 1_555 1_555
C13_19 H10_19 1_555 1_555
H11_19 C13_19 1_555 1_555
H12_19 C13_19 1_555 1_555
C14_19 C16_19 1_555 1_555
C15_19 C12_19 1_555 1_555
H13_19 C15_19 1_555 1_555
H14_19 C15_19 1_555 1_555
H15_19 C15_19 1_555 1_555
B1_19 C8_19 1_555 1_555
C16_19 H16_19 1_555 1_555
C17_19 C14_19 1_555 1_555
H17_19 C17_19 1_555 1_555
H18_19 C17_19 1_555 1_555
H19_19 C17_19 1_555 1_555
O4_17 C24_19 1_555 1_555
O5_17 C24_19 1_555 1_555
C18_19 C20_19 1_555 1_555
C19_19 C23_19 1_555 1_555
C20_19 C21_19 1_555 1_555
C21_19 C23_19 1_555 1_555
C22_19 C18_19 1_555 1_555
H20_19 C22_19 1_555 1_555
H21_19 C22_19 1_555 1_555
H22_19 C22_19 1_555 1_555
C23_19 C29_19 1_555 1_555
C24_19 C21_19 1_555 1_555
C25_19 B1_19 1_555 1_555
C26_19 C19_19 1_555 1_555
H23_19 C26_19 1_555 1_555
H24_19 C26_19 1_555 1_555
H25_19 C26_19 1_555 1_555
C27_19 C20_19 1_555 1_555
H26_19 C27_19 1_555 1_555
H27_19 C27_19 1_555 1_555
H28_19 C27_19 1_555 1_555
C28_19 C10_19 1_555 1_555
C29_19 H29_19 1_555 1_555
H30_19 C29_19 1_555 1_555
H31_19 C29_19 1_555 1_555
C30_19 C16_19 1_555 1_555
C31_19 C28_19 1_555 1_555
H32_19 C31_19 1_555 1_555
H33_19 C31_19 1_555 1_555
H34_19 C31_19 1_555 1_555
C32_19 C30_19 1_555 1_555
H35_19 C32_19 1_555 1_555
H36_19 C32_19 1_555 1_555
H37_19 C32_19 1_555 1_555
Zn5 O4_17 1_555 1_555
Zn7_3 O5_17 1_555 1_555
C2_19 C8_19 1_555 1_555
C10_19 B1_19 1_555 1_555
C18_19 C25_19 1_555 1_555
C19_19 C25_19 1_555 1_555
C28_19 C30_19 1_555 1_555
Zn8_6 O6_10 1_555 1_555
O12_8 Zn8_6 1_555 1_555
O20_6 Zn8_6 1_555 1_555
O17_6 Zn6_3 1_555 1_555
O11_8 Zn6_4 1_555 1_555
C65_9 C67_9 1_555 1_555
C66_9 C70_9 1_555 1_555
C67_9 C68_9 1_555 1_555
C68_9 C70_9 1_555 1_555
C69_9 C65_9 1_555 1_555
H75_9 C69_9 1_555 1_555
H76_9 C69_9 1_555 1_555
H77_9 C69_9 1_555 1_555
C70_9 C77_9 1_555 1_555
C71_9 O11_8 1_555 1_555
C72_9 C65_9 1_555 1_555
C73_9 C66_9 1_555 1_555
H78_9 C73_9 1_555 1_555
H79_9 C73_9 1_555 1_555
H80_9 C73_9 1_555 1_555
C74_9 C76_9 1_555 1_555
C75_9 C67_9 1_555 1_555
H82_9 C75_9 1_555 1_555
H83_9 C75_9 1_555 1_555
C76_9 C78_9 1_555 1_555
C77_9 H84_9 1_555 1_555
H85_9 C77_9 1_555 1_555
H86_9 C77_9 1_555 1_555
C78_9 C80_9 1_555 1_555
C79_9 C76_9 1_555 1_555
H87_9 C79_9 1_555 1_555
H88_9 C79_9 1_555 1_555
H89_9 C79_9 1_555 1_555
B3_9 C72_9 1_555 1_555
C81_9 C78_9 1_555 1_555
H91_9 C81_9 1_555 1_555
O13_8 C88_9 1_555 1_555
O14_8 C88_9 1_555 1_555
C82_9 C84_9 1_555 1_555
C83_9 C87_9 1_555 1_555
C84_9 C85_9 1_555 1_555
C85_9 C87_9 1_555 1_555
C86_9 C82_9 1_555 1_555
H94_9 C86_9 1_555 1_555
H95_9 C86_9 1_555 1_555
H96_9 C86_9 1_555 1_555
C87_9 C93_9 1_555 1_555
C88_9 C85_9 1_555 1_555
C89_9 B3_9 1_555 1_555
C90_9 C83_9 1_555 1_555
H97_9 C90_9 1_555 1_555
H98_9 C90_9 1_555 1_555
H99_9 C90_9 1_555 1_555
C91_9 C84_9 1_555 1_555
H100_9 C91_9 1_555 1_555
H101_9 C91_9 1_555 1_555
H102_9 C91_9 1_555 1_555
C92_9 C74_9 1_555 1_555
C93_9 H103_9 1_555 1_555
H104_9 C93_9 1_555 1_555
H105_9 C93_9 1_555 1_555
C94_9 C80_9 1_555 1_555
C95_9 C92_9 1_555 1_555
H106_9 C95_9 1_555 1_555
H107_9 C95_9 1_555 1_555
H108_9 C95_9 1_555 1_555
C96_9 C94_9 1_555 1_555
H109_9 C96_9 1_555 1_555
H110_9 C96_9 1_555 1_555
Zn6_11 O13_8 1_555 1_555
Zn8_7 O14_8 1_555 1_555
C66_9 C72_9 1_555 1_555
C68_9 C71_9 1_555 1_555
C74_9 B3_9 1_555 1_555
C82_9 C89_9 1_555 1_555
C83_9 C89_9 1_555 1_555
C92_9 C94_9 1_555 1_555
O15_8 Zn6_5 1_555 1_555
O3_10 Zn7_2 1_555 1_555
O18_8 Zn7_2 1_555 1_555
O3_11 Zn7_5 1_555 1_555
Zn8_7 O6_11 1_555 1_555
O15_9 Zn6_11 1_555 1_555
O18_9 Zn7_5 1_555 1_555
O11_9 Zn6_12 1_555 1_555
C65_10 C67_10 1_555 1_555
C66_10 C70_10 1_555 1_555
C67_10 C68_10 1_555 1_555
C68_10 C70_10 1_555 1_555
C69_10 C65_10 1_555 1_555
H75_10 C69_10 1_555 1_555
H76_10 C69_10 1_555 1_555
H77_10 C69_10 1_555 1_555
C70_10 C77_10 1_555 1_555
C71_10 O11_9 1_555 1_555
C72_10 C65_10 1_555 1_555
C73_10 C66_10 1_555 1_555
H78_10 C73_10 1_555 1_555
H79_10 C73_10 1_555 1_555
H80_10 C73_10 1_555 1_555
C74_10 C76_10 1_555 1_555
C75_10 C67_10 1_555 1_555
H81_10 C75_10 1_555 1_555
H82_10 C75_10 1_555 1_555
H83_10 C75_10 1_555 1_555
C76_10 C78_10 1_555 1_555
C77_10 H84_10 1_555 1_555
H85_10 C77_10 1_555 1_555
H86_10 C77_10 1_555 1_555
C78_10 C80_10 1_555 1_555
C79_10 C76_10 1_555 1_555
H87_10 C79_10 1_555 1_555
H88_10 C79_10 1_555 1_555
H89_10 C79_10 1_555 1_555
B3_10 C72_10 1_555 1_555
C80_10 H90_10 1_555 1_555
C81_10 C78_10 1_555 1_555
H91_10 C81_10 1_555 1_555
H92_10 C81_10 1_555 1_555
H93_10 C81_10 1_555 1_555
O13_9 C88_10 1_555 1_555
O14_9 C88_10 1_555 1_555
C82_10 C84_10 1_555 1_555
C83_10 C87_10 1_555 1_555
C84_10 C85_10 1_555 1_555
C85_10 C87_10 1_555 1_555
C86_10 C82_10 1_555 1_555
H94_10 C86_10 1_555 1_555
H95_10 C86_10 1_555 1_555
H96_10 C86_10 1_555 1_555
C87_10 C93_10 1_555 1_555
C88_10 C85_10 1_555 1_555
C89_10 B3_10 1_555 1_555
C90_10 C83_10 1_555 1_555
H97_10 C90_10 1_555 1_555
H98_10 C90_10 1_555 1_555
H99_10 C90_10 1_555 1_555
C91_10 C84_10 1_555 1_555
H100_10 C91_10 1_555 1_555
H101_10 C91_10 1_555 1_555
H102_10 C91_10 1_555 1_555
C92_10 C74_10 1_555 1_555
C93_10 H103_10 1_555 1_555
H104_10 C93_10 1_555 1_555
H105_10 C93_10 1_555 1_555
C94_10 C80_10 1_555 1_555
C95_10 C92_10 1_555 1_555
H106_10 C95_10 1_555 1_555
H107_10 C95_10 1_555 1_555
H108_10 C95_10 1_555 1_555
C96_10 C94_10 1_555 1_555
H109_10 C96_10 1_555 1_555
H110_10 C96_10 1_555 1_555
H111_10 C96_10 1_555 1_555
Zn5_6 O13_9 1_555 1_555
Zn8_4 O14_9 1_555 1_555
O15_10 Zn6_12 1_555 1_555
C66_10 C72_10 1_555 1_555
C68_10 C71_10 1_555 1_555
C74_10 B3_10 1_555 1_555
C82_10 C89_10 1_555 1_555
C83_10 C89_10 1_555 1_555
C92_10 C94_10 1_555 1_555
Zn9_6 O6_12 1_555 1_555
O12_9 Zn9_6 1_555 1_555
O17_7 Zn6_13 1_555 1_555
O20_7 Zn9_6 1_555 1_555
O3_12 Zn7_6 1_555 1_555
O18_10 Zn7_6 1_555 1_555
C65_11 C67_11 1_555 1_555
C66_11 C70_11 1_555 1_555
C67_11 C68_11 1_555 1_555
C68_11 C70_11 1_555 1_555
C69_11 C65_11 1_555 1_555
H75_11 C69_11 1_555 1_555
H76_11 C69_11 1_555 1_555
H77_11 C69_11 1_555 1_555
C70_11 C77_11 1_555 1_555
C71_11 O17_6 1_555 1_555
C72_11 C65_11 1_555 1_555
C73_11 C66_11 1_555 1_555
H78_11 C73_11 1_555 1_555
H79_11 C73_11 1_555 1_555
H80_11 C73_11 1_555 1_555
C74_11 C76_11 1_555 1_555
C75_11 C67_11 1_555 1_555
H82_11 C75_11 1_555 1_555
H83_11 C75_11 1_555 1_555
C76_11 C78_11 1_555 1_555
C77_11 H84_11 1_555 1_555
H85_11 C77_11 1_555 1_555
H86_11 C77_11 1_555 1_555
C78_11 C80_11 1_555 1_555
C79_11 C76_11 1_555 1_555
H87_11 C79_11 1_555 1_555
H88_11 C79_11 1_555 1_555
H89_11 C79_11 1_555 1_555
B3_11 C72_11 1_555 1_555
C81_11 C78_11 1_555 1_555
H91_11 C81_11 1_555 1_555
O13_10 C88_11 1_555 1_555
O14_10 C88_11 1_555 1_555
C82_11 C84_11 1_555 1_555
C83_11 C87_11 1_555 1_555
C84_11 C85_11 1_555 1_555
C85_11 C87_11 1_555 1_555
C86_11 C82_11 1_555 1_555
H94_11 C86_11 1_555 1_555
H95_11 C86_11 1_555 1_555
H96_11 C86_11 1_555 1_555
C87_11 C93_11 1_555 1_555
C88_11 C85_11 1_555 1_555
C89_11 B3_11 1_555 1_555
C90_11 C83_11 1_555 1_555
H97_11 C90_11 1_555 1_555
H98_11 C90_11 1_555 1_555
H99_11 C90_11 1_555 1_555
C91_11 C84_11 1_555 1_555
H100_11 C91_11 1_555 1_555
H101_11 C91_11 1_555 1_555
H102_11 C91_11 1_555 1_555
C92_11 C74_11 1_555 1_555
C93_11 H103_11 1_555 1_555
H104_11 C93_11 1_555 1_555
H105_11 C93_11 1_555 1_555
C94_11 C80_11 1_555 1_555
C95_11 C92_11 1_555 1_555
H106_11 C95_11 1_555 1_555
H107_11 C95_11 1_555 1_555
H108_11 C95_11 1_555 1_555
C96_11 C94_11 1_555 1_555
H109_11 C96_11 1_555 1_555
H110_11 C96_11 1_555 1_555
Zn6 O13_10 1_555 1_555
Zn8_3 O14_10 1_555 1_555
C66_11 C72_11 1_555 1_555
C68_11 C71_11 1_555 1_555
C74_11 B3_11 1_555 1_555
C82_11 C89_11 1_555 1_555
C83_11 C89_11 1_555 1_555
C92_11 C94_11 1_555 1_555
O15_8 C7_20 1_555 1_555
C1_20 C3_20 1_555 1_555
C2_20 C6_20 1_555 1_555
C3_20 C4_20 1_555 1_555
C4_20 C6_20 1_555 1_555
C5_20 C1_20 1_555 1_555
H1_20 C5_20 1_555 1_555
H2_20 C5_20 1_555 1_555
H3_20 C5_20 1_555 1_555
C6_20 C13_20 1_555 1_555
C7_20 C4_20 1_555 1_555
C8_20 C1_20 1_555 1_555
C9_20 C2_20 1_555 1_555
H4_20 C9_20 1_555 1_555
H5_20 C9_20 1_555 1_555
H6_20 C9_20 1_555 1_555
C10_20 C12_20 1_555 1_555
C11_20 C3_20 1_555 1_555
H8_20 C11_20 1_555 1_555
H9_20 C11_20 1_555 1_555
C12_20 C14_20 1_555 1_555
C13_20 H10_20 1_555 1_555
H11_20 C13_20 1_555 1_555
H12_20 C13_20 1_555 1_555
C14_20 C16_20 1_555 1_555
C15_20 C12_20 1_555 1_555
H13_20 C15_20 1_555 1_555
H14_20 C15_20 1_555 1_555
H15_20 C15_20 1_555 1_555
B1_20 C8_20 1_555 1_555
C17_20 C14_20 1_555 1_555
H17_20 C17_20 1_555 1_555
O4_18 C24_20 1_555 1_555
O5_18 C24_20 1_555 1_555
C18_20 C20_20 1_555 1_555
C19_20 C23_20 1_555 1_555
C20_20 C21_20 1_555 1_555
C21_20 C23_20 1_555 1_555
C22_20 C18_20 1_555 1_555
H20_20 C22_20 1_555 1_555
H21_20 C22_20 1_555 1_555
H22_20 C22_20 1_555 1_555
C23_20 C29_20 1_555 1_555
C24_20 C21_20 1_555 1_555
C25_20 B1_20 1_555 1_555
C26_20 C19_20 1_555 1_555
H23_20 C26_20 1_555 1_555
H24_20 C26_20 1_555 1_555
H25_20 C26_20 1_555 1_555
C27_20 C20_20 1_555 1_555
H26_20 C27_20 1_555 1_555
H27_20 C27_20 1_555 1_555
H28_20 C27_20 1_555 1_555
C28_20 C10_20 1_555 1_555
C29_20 H29_20 1_555 1_555
H30_20 C29_20 1_555 1_555
H31_20 C29_20 1_555 1_555
C30_20 C16_20 1_555 1_555
C31_20 C28_20 1_555 1_555
H32_20 C31_20 1_555 1_555
H33_20 C31_20 1_555 1_555
H34_20 C31_20 1_555 1_555
C32_20 C30_20 1_555 1_555
H35_20 C32_20 1_555 1_555
H36_20 C32_20 1_555 1_555
Zn5 O4_18 1_555 1_555
Zn7_3 O5_18 1_555 1_555
C2_20 C8_20 1_555 1_555
C10_20 B1_20 1_555 1_555
C18_20 C25_20 1_555 1_555
C19_20 C25_20 1_555 1_555
C28_20 C30_20 1_555 1_555
C65_12 C67_12 1_555 1_555
C66_12 C70_12 1_555 1_555
C67_12 C68_12 1_555 1_555
C68_12 C70_12 1_555 1_555
C69_12 C65_12 1_555 1_555
H75_12 C69_12 1_555 1_555
H76_12 C69_12 1_555 1_555
H77_12 C69_12 1_555 1_555
C70_12 C77_12 1_555 1_555
C71_12 O17_5 1_555 1_555
C72_12 C65_12 1_555 1_555
C73_12 C66_12 1_555 1_555
H78_12 C73_12 1_555 1_555
H79_12 C73_12 1_555 1_555
H80_12 C73_12 1_555 1_555
C74_12 C76_12 1_555 1_555
C75_12 C67_12 1_555 1_555
H81_12 C75_12 1_555 1_555
H82_12 C75_12 1_555 1_555
H83_12 C75_12 1_555 1_555
C76_12 C78_12 1_555 1_555
C77_12 H84_12 1_555 1_555
H85_12 C77_12 1_555 1_555
H86_12 C77_12 1_555 1_555
C78_12 C80_12 1_555 1_555
C79_12 C76_12 1_555 1_555
H87_12 C79_12 1_555 1_555
H88_12 C79_12 1_555 1_555
H89_12 C79_12 1_555 1_555
B3_12 C72_12 1_555 1_555
C80_12 H90_12 1_555 1_555
C81_12 C78_12 1_555 1_555
H91_12 C81_12 1_555 1_555
H92_12 C81_12 1_555 1_555
H93_12 C81_12 1_555 1_555
O13_11 C88_12 1_555 1_555
O14_11 C88_12 1_555 1_555
C82_12 C84_12 1_555 1_555
C83_12 C87_12 1_555 1_555
C84_12 C85_12 1_555 1_555
C85_12 C87_12 1_555 1_555
C86_12 C82_12 1_555 1_555
H94_12 C86_12 1_555 1_555
H95_12 C86_12 1_555 1_555
H96_12 C86_12 1_555 1_555
C87_12 C93_12 1_555 1_555
C88_12 C85_12 1_555 1_555
C89_12 B3_12 1_555 1_555
C90_12 C83_12 1_555 1_555
H97_12 C90_12 1_555 1_555
H98_12 C90_12 1_555 1_555
H99_12 C90_12 1_555 1_555
C91_12 C84_12 1_555 1_555
H100_12 C91_12 1_555 1_555
H101_12 C91_12 1_555 1_555
H102_12 C91_12 1_555 1_555
C92_12 C74_12 1_555 1_555
C93_12 H103_12 1_555 1_555
H104_12 C93_12 1_555 1_555
H105_12 C93_12 1_555 1_555
C94_12 C80_12 1_555 1_555
C95_12 C92_12 1_555 1_555
H106_12 C95_12 1_555 1_555
H107_12 C95_12 1_555 1_555
H108_12 C95_12 1_555 1_555
C96_12 C94_12 1_555 1_555
H109_12 C96_12 1_555 1_555
H110_12 C96_12 1_555 1_555
H111_12 C96_12 1_555 1_555
Zn6 O13_11 1_555 1_555
Zn8_3 O14_11 1_555 1_555
C66_12 C72_12 1_555 1_555
C68_12 C71_12 1_555 1_555
C74_12 B3_12 1_555 1_555
C82_12 C89_12 1_555 1_555
C83_12 C89_12 1_555 1_555
C92_12 C94_12 1_555 1_555
O3_13 Zn7_10 1_555 1_555
Zn8_4 O6_13 1_555 1_555
O11_10 Zn5_6 1_555 1_555
O12_10 Zn8_4 1_555 1_555
C65_13 C67_13 1_555 1_555
C66_13 C70_13 1_555 1_555
C67_13 C68_13 1_555 1_555
C68_13 C70_13 1_555 1_555
C69_13 C65_13 1_555 1_555
H75_13 C69_13 1_555 1_555
H76_13 C69_13 1_555 1_555
H77_13 C69_13 1_555 1_555
C70_13 C77_13 1_555 1_555
C71_13 O11_10 1_555 1_555
C72_13 C65_13 1_555 1_555
C73_13 C66_13 1_555 1_555
H78_13 C73_13 1_555 1_555
H79_13 C73_13 1_555 1_555
H80_13 C73_13 1_555 1_555
C74_13 C76_13 1_555 1_555
C75_13 C67_13 1_555 1_555
H81_13 C75_13 1_555 1_555
H82_13 C75_13 1_555 1_555
H83_13 C75_13 1_555 1_555
C76_13 C78_13 1_555 1_555
C77_13 H84_13 1_555 1_555
H85_13 C77_13 1_555 1_555
H86_13 C77_13 1_555 1_555
C78_13 C80_13 1_555 1_555
C79_13 C76_13 1_555 1_555
H87_13 C79_13 1_555 1_555
H88_13 C79_13 1_555 1_555
H89_13 C79_13 1_555 1_555
B3_13 C72_13 1_555 1_555
C80_13 H90_13 1_555 1_555
C81_13 C78_13 1_555 1_555
H91_13 C81_13 1_555 1_555
H92_13 C81_13 1_555 1_555
H93_13 C81_13 1_555 1_555
O13_12 C88_13 1_555 1_555
C82_13 C84_13 1_555 1_555
C83_13 C87_13 1_555 1_555
C84_13 C85_13 1_555 1_555
C85_13 C87_13 1_555 1_555
C86_13 C82_13 1_555 1_555
H94_13 C86_13 1_555 1_555
H95_13 C86_13 1_555 1_555
H96_13 C86_13 1_555 1_555
C87_13 C93_13 1_555 1_555
C88_13 C85_13 1_555 1_555
C89_13 B3_13 1_555 1_555
C90_13 C83_13 1_555 1_555
H97_13 C90_13 1_555 1_555
H98_13 C90_13 1_555 1_555
H99_13 C90_13 1_555 1_555
C91_13 C84_13 1_555 1_555
H100_13 C91_13 1_555 1_555
H101_13 C91_13 1_555 1_555
H102_13 C91_13 1_555 1_555
C92_13 C74_13 1_555 1_555
C93_13 H103_13 1_555 1_555
H104_13 C93_13 1_555 1_555
H105_13 C93_13 1_555 1_555
C94_13 C80_13 1_555 1_555
C95_13 C92_13 1_555 1_555
H106_13 C95_13 1_555 1_555
H107_13 C95_13 1_555 1_555
H108_13 C95_13 1_555 1_555
C96_13 C94_13 1_555 1_555
H109_13 C96_13 1_555 1_555
H110_13 C96_13 1_555 1_555
H111_13 C96_13 1_555 1_555
Zn5_2 O13_12 1_555 1_555
O15_11 Zn5_6 1_555 1_555
O18_11 Zn7_10 1_555 1_555
O12_10 C71_13 1_555 1_555
C66_13 C72_13 1_555 1_555
C68_13 C71_13 1_555 1_555
C74_13 B3_13 1_555 1_555
C82_13 C89_13 1_555 1_555
C83_13 C89_13 1_555 1_555
C92_13 C94_13 1_555 1_555
Zn8_2 O14_12 1_555 1_555
O3_14 Zn7_3 1_555 1_555
Zn8 O6_14 1_555 1_555
O11_11 Zn5 1_555 1_555
O12_11 Zn8 1_555 1_555
C65_14 C67_14 1_555 1_555
C66_14 C70_14 1_555 1_555
C67_14 C68_14 1_555 1_555
C68_14 C70_14 1_555 1_555
C69_14 C65_14 1_555 1_555
H75_14 C69_14 1_555 1_555
H76_14 C69_14 1_555 1_555
H77_14 C69_14 1_555 1_555
C70_14 C77_14 1_555 1_555
C71_14 O11_11 1_555 1_555
C72_14 C65_14 1_555 1_555
C73_14 C66_14 1_555 1_555
H78_14 C73_14 1_555 1_555
H79_14 C73_14 1_555 1_555
H80_14 C73_14 1_555 1_555
C74_14 C76_14 1_555 1_555
C75_14 C67_14 1_555 1_555
H81_14 C75_14 1_555 1_555
H82_14 C75_14 1_555 1_555
H83_14 C75_14 1_555 1_555
C76_14 C78_14 1_555 1_555
C77_14 H84_14 1_555 1_555
H85_14 C77_14 1_555 1_555
H86_14 C77_14 1_555 1_555
C78_14 C80_14 1_555 1_555
C79_14 C76_14 1_555 1_555
H87_14 C79_14 1_555 1_555
H88_14 C79_14 1_555 1_555
H89_14 C79_14 1_555 1_555
B3_14 C72_14 1_555 1_555
C81_14 C78_14 1_555 1_555
H91_14 C81_14 1_555 1_555
H92_14 C81_14 1_555 1_555
O17_7 C88_14 1_555 1_555
O20_7 C88_14 1_555 1_555
C82_14 C84_14 1_555 1_555
C83_14 C87_14 1_555 1_555
C84_14 C85_14 1_555 1_555
C85_14 C87_14 1_555 1_555
C86_14 C82_14 1_555 1_555
H94_14 C86_14 1_555 1_555
H95_14 C86_14 1_555 1_555
H96_14 C86_14 1_555 1_555
C87_14 C93_14 1_555 1_555
C88_14 C85_14 1_555 1_555
C89_14 B3_14 1_555 1_555
C90_14 C83_14 1_555 1_555
H97_14 C90_14 1_555 1_555
H98_14 C90_14 1_555 1_555
H99_14 C90_14 1_555 1_555
C91_14 C84_14 1_555 1_555
H101_14 C91_14 1_555 1_555
H102_14 C91_14 1_555 1_555
C92_14 C74_14 1_555 1_555
C93_14 H103_14 1_555 1_555
H104_14 C93_14 1_555 1_555
H105_14 C93_14 1_555 1_555
C94_14 C80_14 1_555 1_555
C95_14 C92_14 1_555 1_555
H106_14 C95_14 1_555 1_555
H107_14 C95_14 1_555 1_555
H108_14 C95_14 1_555 1_555
C96_14 C94_14 1_555 1_555
H109_14 C96_14 1_555 1_555
O17_8 Zn5 1_555 1_555
O20_8 Zn8 1_555 1_555
O12_11 C71_14 1_555 1_555
C66_14 C72_14 1_555 1_555
C68_14 C71_14 1_555 1_555
C74_14 B3_14 1_555 1_555
C82_14 C89_14 1_555 1_555
C83_14 C89_14 1_555 1_555
C92_14 C94_14 1_555 1_555
O3_15 Zn7 1_555 1_555
Zn8_3 O6_15 1_555 1_555
O15_12 Zn6 1_555 1_555
O16_10 Zn6 1_555 1_555
O18_12 Zn7 1_555 1_555
O19_10 Zn7 1_555 1_555
O15_9 C7_21 1_555 1_555
O18_9 C7_21 1_555 1_555
C1_21 C3_21 1_555 1_555
C2_21 C6_21 1_555 1_555
C3_21 C4_21 1_555 1_555
C4_21 C6_21 1_555 1_555
C5_21 C1_21 1_555 1_555
H1_21 C5_21 1_555 1_555
H2_21 C5_21 1_555 1_555
H3_21 C5_21 1_555 1_555
C6_21 C13_21 1_555 1_555
C7_21 C4_21 1_555 1_555
C8_21 C1_21 1_555 1_555
C9_21 C2_21 1_555 1_555
H4_21 C9_21 1_555 1_555
H5_21 C9_21 1_555 1_555
H6_21 C9_21 1_555 1_555
C10_21 C12_21 1_555 1_555
C11_21 C3_21 1_555 1_555
H7_21 C11_21 1_555 1_555
H8_21 C11_21 1_555 1_555
H9_21 C11_21 1_555 1_555
C12_21 C14_21 1_555 1_555
C13_21 H10_21 1_555 1_555
H11_21 C13_21 1_555 1_555
H12_21 C13_21 1_555 1_555
C14_21 C16_21 1_555 1_555
C15_21 C12_21 1_555 1_555
H13_21 C15_21 1_555 1_555
H14_21 C15_21 1_555 1_555
H15_21 C15_21 1_555 1_555
B1_21 C8_21 1_555 1_555
C17_21 C14_21 1_555 1_555
H17_21 C17_21 1_555 1_555
H18_21 C17_21 1_555 1_555
O4_19 C24_21 1_555 1_555
O5_19 C24_21 1_555 1_555
C18_21 C20_21 1_555 1_555
C19_21 C23_21 1_555 1_555
C20_21 C21_21 1_555 1_555
C21_21 C23_21 1_555 1_555
C22_21 C18_21 1_555 1_555
H20_21 C22_21 1_555 1_555
H21_21 C22_21 1_555 1_555
H22_21 C22_21 1_555 1_555
C23_21 C29_21 1_555 1_555
C24_21 C21_21 1_555 1_555
C25_21 B1_21 1_555 1_555
C26_21 C19_21 1_555 1_555
H23_21 C26_21 1_555 1_555
H24_21 C26_21 1_555 1_555
H25_21 C26_21 1_555 1_555
C27_21 C20_21 1_555 1_555
H27_21 C27_21 1_555 1_555
H28_21 C27_21 1_555 1_555
C28_21 C10_21 1_555 1_555
C29_21 H29_21 1_555 1_555
H30_21 C29_21 1_555 1_555
H31_21 C29_21 1_555 1_555
C30_21 C16_21 1_555 1_555
C31_21 C28_21 1_555 1_555
H32_21 C31_21 1_555 1_555
H33_21 C31_21 1_555 1_555
H34_21 C31_21 1_555 1_555
C32_21 C30_21 1_555 1_555
H35_21 C32_21 1_555 1_555
Zn5_4 O4_19 1_555 1_555
Zn7_7 O5_19 1_555 1_555
C2_21 C8_21 1_555 1_555
C10_21 B1_21 1_555 1_555
C18_21 C25_21 1_555 1_555
C19_21 C25_21 1_555 1_555
C28_21 C30_21 1_555 1_555
Zn8_2 O6_16 1_555 1_555
O8_9 Zn8_2 1_555 1_555
O3_16 Zn7_7 1_555 1_555
O7_9 Zn5_5 1_555 1_555
C33_10 C35_10 1_555 1_555
C34_10 C38_10 1_555 1_555
C35_10 C36_10 1_555 1_555
C36_10 C38_10 1_555 1_555
C37_10 C33_10 1_555 1_555
H38_10 C37_10 1_555 1_555
H39_10 C37_10 1_555 1_555
H40_10 C37_10 1_555 1_555
C38_10 C45_10 1_555 1_555
C39_10 O7_9 1_555 1_555
C40_10 C33_10 1_555 1_555
C41_10 C34_10 1_555 1_555
H41_10 C41_10 1_555 1_555
H42_10 C41_10 1_555 1_555
H43_10 C41_10 1_555 1_555
C42_10 C44_10 1_555 1_555
C43_10 C35_10 1_555 1_555
H45_10 C43_10 1_555 1_555
H46_10 C43_10 1_555 1_555
C44_10 C46_10 1_555 1_555
C45_10 H47_10 1_555 1_555
H48_10 C45_10 1_555 1_555
H49_10 C45_10 1_555 1_555
C46_10 C48_10 1_555 1_555
C47_10 C44_10 1_555 1_555
H50_10 C47_10 1_555 1_555
H51_10 C47_10 1_555 1_555
H52_10 C47_10 1_555 1_555
B2_10 C40_10 1_555 1_555
C49_10 C46_10 1_555 1_555
H54_10 C49_10 1_555 1_555
O17_8 C56_10 1_555 1_555
O20_8 C56_10 1_555 1_555
C50_10 C52_10 1_555 1_555
C51_10 C55_10 1_555 1_555
C52_10 C53_10 1_555 1_555
C53_10 C55_10 1_555 1_555
C54_10 C50_10 1_555 1_555
H57_10 C54_10 1_555 1_555
H58_10 C54_10 1_555 1_555
H59_10 C54_10 1_555 1_555
C55_10 C61_10 1_555 1_555
C56_10 C53_10 1_555 1_555
C57_10 B2_10 1_555 1_555
C58_10 C51_10 1_555 1_555
H60_10 C58_10 1_555 1_555
H61_10 C58_10 1_555 1_555
H62_10 C58_10 1_555 1_555
C59_10 C52_10 1_555 1_555
H63_10 C59_10 1_555 1_555
H64_10 C59_10 1_555 1_555
H65_10 C59_10 1_555 1_555
C60_10 C42_10 1_555 1_555
C61_10 H66_10 1_555 1_555
H67_10 C61_10 1_555 1_555
H68_10 C61_10 1_555 1_555
C62_10 C48_10 1_555 1_555
C63_10 C60_10 1_555 1_555
H69_10 C63_10 1_555 1_555
H70_10 C63_10 1_555 1_555
H71_10 C63_10 1_555 1_555
C64_10 C62_10 1_555 1_555
H72_10 C64_10 1_555 1_555
H73_10 C64_10 1_555 1_555
C34_10 C40_10 1_555 1_555
C36_10 C39_10 1_555 1_555
C42_10 B2_10 1_555 1_555
C50_10 C57_10 1_555 1_555
C51_10 C57_10 1_555 1_555
C60_10 C62_10 1_555 1_555
O15_10 C7_22 1_555 1_555
C1_22 C3_22 1_555 1_555
C2_22 C6_22 1_555 1_555
C3_22 C4_22 1_555 1_555
C4_22 C6_22 1_555 1_555
C5_22 C1_22 1_555 1_555
H1_22 C5_22 1_555 1_555
H2_22 C5_22 1_555 1_555
H3_22 C5_22 1_555 1_555
C6_22 C13_22 1_555 1_555
C7_22 C4_22 1_555 1_555
C8_22 C1_22 1_555 1_555
C9_22 C2_22 1_555 1_555
H4_22 C9_22 1_555 1_555
H5_22 C9_22 1_555 1_555
H6_22 C9_22 1_555 1_555
C10_22 C12_22 1_555 1_555
C11_22 C3_22 1_555 1_555
H8_22 C11_22 1_555 1_555
H9_22 C11_22 1_555 1_555
C12_22 C14_22 1_555 1_555
C13_22 H10_22 1_555 1_555
H11_22 C13_22 1_555 1_555
H12_22 C13_22 1_555 1_555
C14_22 C16_22 1_555 1_555
C15_22 C12_22 1_555 1_555
H13_22 C15_22 1_555 1_555
H14_22 C15_22 1_555 1_555
H15_22 C15_22 1_555 1_555
B1_22 C8_22 1_555 1_555
C17_22 C14_22 1_555 1_555
H17_22 C17_22 1_555 1_555
O16_10 C24_22 1_555 1_555
O19_10 C24_22 1_555 1_555
C18_22 C20_22 1_555 1_555
C19_22 C23_22 1_555 1_555
C20_22 C21_22 1_555 1_555
C21_22 C23_22 1_555 1_555
C22_22 C18_22 1_555 1_555
H20_22 C22_22 1_555 1_555
H21_22 C22_22 1_555 1_555
H22_22 C22_22 1_555 1_555
C23_22 C29_22 1_555 1_555
C24_22 C21_22 1_555 1_555
C25_22 B1_22 1_555 1_555
C26_22 C19_22 1_555 1_555
H23_22 C26_22 1_555 1_555
H24_22 C26_22 1_555 1_555
H25_22 C26_22 1_555 1_555
C27_22 C20_22 1_555 1_555
H26_22 C27_22 1_555 1_555
H27_22 C27_22 1_555 1_555
H28_22 C27_22 1_555 1_555
C28_22 C10_22 1_555 1_555
C29_22 H29_22 1_555 1_555
H30_22 C29_22 1_555 1_555
H31_22 C29_22 1_555 1_555
C30_22 C16_22 1_555 1_555
C31_22 C28_22 1_555 1_555
H32_22 C31_22 1_555 1_555
H33_22 C31_22 1_555 1_555
H34_22 C31_22 1_555 1_555
C32_22 C30_22 1_555 1_555
H35_22 C32_22 1_555 1_555
H36_22 C32_22 1_555 1_555
C2_22 C8_22 1_555 1_555
C10_22 B1_22 1_555 1_555
C18_22 C25_22 1_555 1_555
C19_22 C25_22 1_555 1_555
C28_22 C30_22 1_555 1_555
O15_12 C7_23 1_555 1_555
O18_12 C7_23 1_555 1_555
C1_23 C3_23 1_555 1_555
C2_23 C6_23 1_555 1_555
C3_23 C4_23 1_555 1_555
C4_23 C6_23 1_555 1_555
C5_23 C1_23 1_555 1_555
H1_23 C5_23 1_555 1_555
H2_23 C5_23 1_555 1_555
H3_23 C5_23 1_555 1_555
C6_23 C13_23 1_555 1_555
C7_23 C4_23 1_555 1_555
C8_23 C1_23 1_555 1_555
C9_23 C2_23 1_555 1_555
H4_23 C9_23 1_555 1_555
H5_23 C9_23 1_555 1_555
H6_23 C9_23 1_555 1_555
C10_23 C12_23 1_555 1_555
C11_23 C3_23 1_555 1_555
H7_23 C11_23 1_555 1_555
H8_23 C11_23 1_555 1_555
H9_23 C11_23 1_555 1_555
C12_23 C14_23 1_555 1_555
C13_23 H10_23 1_555 1_555
H11_23 C13_23 1_555 1_555
H12_23 C13_23 1_555 1_555
C14_23 C16_23 1_555 1_555
C15_23 C12_23 1_555 1_555
H13_23 C15_23 1_555 1_555
H14_23 C15_23 1_555 1_555
H15_23 C15_23 1_555 1_555
B1_23 C8_23 1_555 1_555
C17_23 C14_23 1_555 1_555
H17_23 C17_23 1_555 1_555
H18_23 C17_23 1_555 1_555
O16_4 C24_23 1_555 1_555
O19_4 C24_23 1_555 1_555
C18_23 C20_23 1_555 1_555
C19_23 C23_23 1_555 1_555
C20_23 C21_23 1_555 1_555
C21_23 C23_23 1_555 1_555
C22_23 C18_23 1_555 1_555
H20_23 C22_23 1_555 1_555
H21_23 C22_23 1_555 1_555
H22_23 C22_23 1_555 1_555
C23_23 C29_23 1_555 1_555
C24_23 C21_23 1_555 1_555
C25_23 B1_23 1_555 1_555
C26_23 C19_23 1_555 1_555
H23_23 C26_23 1_555 1_555
H24_23 C26_23 1_555 1_555
H25_23 C26_23 1_555 1_555
C27_23 C20_23 1_555 1_555
H27_23 C27_23 1_555 1_555
H28_23 C27_23 1_555 1_555
C28_23 C10_23 1_555 1_555
C29_23 H29_23 1_555 1_555
H30_23 C29_23 1_555 1_555
H31_23 C29_23 1_555 1_555
C30_23 C16_23 1_555 1_555
C31_23 C28_23 1_555 1_555
H32_23 C31_23 1_555 1_555
H33_23 C31_23 1_555 1_555
H34_23 C31_23 1_555 1_555
C32_23 C30_23 1_555 1_555
H35_23 C32_23 1_555 1_555
C2_23 C8_23 1_555 1_555
C10_23 B1_23 1_555 1_555
C18_23 C25_23 1_555 1_555
C19_23 C25_23 1_555 1_555
C28_23 C30_23 1_555 1_555
O16_9 C7_24 1_555 1_555
O19_9 C7_24 1_555 1_555
C1_24 C3_24 1_555 1_555
C2_24 C6_24 1_555 1_555
C3_24 C4_24 1_555 1_555
C4_24 C6_24 1_555 1_555
C5_24 C1_24 1_555 1_555
H1_24 C5_24 1_555 1_555
H2_24 C5_24 1_555 1_555
H3_24 C5_24 1_555 1_555
C6_24 C13_24 1_555 1_555
C7_24 C4_24 1_555 1_555
C8_24 C1_24 1_555 1_555
C9_24 C2_24 1_555 1_555
H4_24 C9_24 1_555 1_555
H5_24 C9_24 1_555 1_555
H6_24 C9_24 1_555 1_555
C10_24 C12_24 1_555 1_555
C11_24 C3_24 1_555 1_555
H8_24 C11_24 1_555 1_555
H9_24 C11_24 1_555 1_555
C12_24 C14_24 1_555 1_555
C13_24 H10_24 1_555 1_555
H11_24 C13_24 1_555 1_555
H12_24 C13_24 1_555 1_555
C14_24 C16_24 1_555 1_555
C15_24 C12_24 1_555 1_555
H13_24 C15_24 1_555 1_555
H14_24 C15_24 1_555 1_555
H15_24 C15_24 1_555 1_555
B1_24 C8_24 1_555 1_555
C17_24 C14_24 1_555 1_555
H17_24 C17_24 1_555 1_555
O15_11 C24_24 1_555 1_555
O18_11 C24_24 1_555 1_555
C18_24 C20_24 1_555 1_555
C19_24 C23_24 1_555 1_555
C20_24 C21_24 1_555 1_555
C21_24 C23_24 1_555 1_555
C22_24 C18_24 1_555 1_555
H20_24 C22_24 1_555 1_555
H21_24 C22_24 1_555 1_555
H22_24 C22_24 1_555 1_555
C23_24 C29_24 1_555 1_555
C24_24 C21_24 1_555 1_555
C25_24 B1_24 1_555 1_555
C26_24 C19_24 1_555 1_555
H23_24 C26_24 1_555 1_555
H24_24 C26_24 1_555 1_555
H25_24 C26_24 1_555 1_555
C27_24 C20_24 1_555 1_555
H26_24 C27_24 1_555 1_555
H27_24 C27_24 1_555 1_555
H28_24 C27_24 1_555 1_555
C28_24 C10_24 1_555 1_555
C29_24 H29_24 1_555 1_555
H30_24 C29_24 1_555 1_555
H31_24 C29_24 1_555 1_555
C30_24 C16_24 1_555 1_555
C31_24 C28_24 1_555 1_555
H32_24 C31_24 1_555 1_555
H33_24 C31_24 1_555 1_555
H34_24 C31_24 1_555 1_555
C32_24 C30_24 1_555 1_555
H35_24 C32_24 1_555 1_555
H36_24 C32_24 1_555 1_555
C2_24 C8_24 1_555 1_555
C10_24 B1_24 1_555 1_555
C18_24 C25_24 1_555 1_555
C19_24 C25_24 1_555 1_555
C28_24 C30_24 1_555 1_555

#END
