
###############################################################################
#
# This file contains modified crystal structure data generated from the
# MOF subset of the Cambridge Structural Database (CSD) v543 
# hosted by the Cambridge Crystallographic Data Centre (CCDC).
#
# This work is licensed under the Creative Commons
# Attribution-NonCommercial-ShareAlike 4.0 International License.
# To view a copy of this license, visit
# http://creativecommons.org/licenses/by-nc-sa/4.0/
# or send a letter to
# Creative Commons, PO Box 1866, Mountain View, CA 94042, USA.
#
# CIF created using the CSD Python API on 29 September 2022
# The structure has been converted into the P1 space group
# The structure has a 3D framework
# The original CSD entry XUNVEJ is in the monoclinic crystal system
# The framework has been calculated to contain at least 10.0% void space
# The void calculation uses a probe of radius 1.32A, grid spacing 0.4
#
###############################################################################

data_XUNVEJ
_chemical_formula_moiety         '(C164 H216 B4 Cd8 N8 O32)n'
_symmetry_cell_setting           triclinic
_symmetry_space_group_name_H-M   'P 1'
_symmetry_Int_Tables_number      1
_space_group_name_Hall           'P 1'
loop_
_symmetry_equiv_pos_site_id
_symmetry_equiv_pos_as_xyz
1 x,y,z
_cell_length_a                   14.9156(7)
_cell_length_b                   15.0624(8)
_cell_length_c                   28.7668(11)
_cell_angle_alpha                90
_cell_angle_beta                 117.561(3)
_cell_angle_gamma                90
_cell_volume                     5729.47
loop_
_atom_site_label
_atom_site_type_symbol
_atom_site_fract_x
_atom_site_fract_y
_atom_site_fract_z
O18 O 0.3658(5) 0.7147(4) 0.0109(2)
Cd2 Cd 0.29345(4) 0.66412(4) 0.930248(18)
O1 O 0.1423(4) 0.6243(5) 0.8538(2)
O2 O 0.1340(4) 0.6756(5) 0.9233(2)
O7 O 0.2808(5) 0.8067(5) 0.8949(3)
N1 N 0.3938(9) 0.8693(8) 0.8727(5)
H17 H 0.0312 0.5140 0.8979
C20 C 0.0920(6) 0.6541(7) 0.8752(3)
C21 C 0.0059(6) 0.8150(7) 0.8180(4)
H20 H 0.0753 0.7972 0.8376
C34 C 0.3208(10) 0.8244(8) 0.8635(4)
C35 C 0.2717(9) 0.7910(9) 0.8065(4)
H37 H 0.2235 0.7453 0.8021
H38 H 0.3229 0.7675 0.7987
H39 H 0.2379 0.8394 0.7832
C36 C 0.4372(10) 0.8903(9) 0.8389(5)
H40 H 0.4832 0.9392 0.8534
H41 H 0.3844 0.9063 0.8049
H42 H 0.4730 0.8396 0.8358
C37 C 0.4441(10) 0.9020(9) 0.9310(5)
H43 H 0.3924 0.9185 0.9404
H44 H 0.4862 0.9524 0.9348
H45 H 0.4844 0.8551 0.9536
O21 O 0.3940(4) 0.6487(4) 0.8936(2)
O23 O 0.3227(4) 0.5154(4) 0.9580(2)
Cd1 Cd 0.5000 -0.0000 0.5000
O8 O 0.6773(4) 0.0154(4) 0.5420(2)
H54 H 0.7997 0.0218 0.5058
O11 O 0.4935(5) 0.1407(4) 0.4734(2)
O12 O 0.6342(5) 0.2147(4) 0.4891(2)
O13 O 0.4861(4) 0.4556(4) 0.06896(19)
O14 O 0.6060(4) 0.3513(4) 0.1064(2)
N4 N 0.2148(9) 0.0861(8) 0.4519(5)
C42 C 0.4093(5) 0.2807(5) 0.2992(3)
C43 C 0.3818(5) 0.3176(5) 0.3360(3)
C44 C 0.4248(6) 0.2868(5) 0.3874(3)
C45 C 0.4995(6) 0.2211(5) 0.4035(3)
C46 C 0.5321(5) 0.1846(5) 0.3693(3)
C47 C 0.4850(5) 0.2140(5) 0.3169(3)
C48 C 0.5200(6) 0.1718(6) 0.2801(3)
H55 H 0.5751 0.2055 0.2807
H56 H 0.5418 0.1121 0.2913
H57 H 0.4650 0.1711 0.2451
C49 C 0.6139(6) 0.1161(6) 0.3878(3)
H58 H 0.6621 0.1311 0.3757
H59 H 0.6470 0.1141 0.4254
H60 H 0.5849 0.0590 0.3741
C50 C 0.5465(6) 0.1902(5) 0.4591(3)
C51 C 0.3905(7) 0.3234(6) 0.4258(3)
H61 H 0.4162 0.3826 0.4359
H62 H 0.3180 0.3245 0.4095
H63 H 0.4157 0.2863 0.4564
C52 C 0.3096(6) 0.3951(6) 0.3221(3)
H64 H 0.2468 0.3754 0.3202
H65 H 0.3385 0.4402 0.3485
H66 H 0.2977 0.4190 0.2888
C53 C 0.2327(6) 0.3211(5) 0.2114(3)
C54 C 0.1692(6) 0.2529(6) 0.2115(3)
C55 C 0.0623(6) 0.2600(6) 0.1825(3)
C56 C 0.0212(6) 0.3390(6) 0.1557(3)
C57 C 0.0852(6) 0.4096(6) 0.1561(4)
C58 C 0.1884(6) 0.4003(6) 0.1835(3)
C59 C 0.2532(7) 0.4782(6) 0.1855(4)
H67 H 0.2552 0.4830 0.1527
H68 H 0.2253 0.5316 0.1917
H69 H 0.3206 0.4697 0.2133
C60 C 0.0392(7) 0.4952(7) 0.1254(5)
H70 H 0.0737 0.5112 0.1055
H72 H 0.0465 0.5422 0.1495
H73 H 0.0084 0.1711 0.2174
H75 H 0.0060 0.1335 0.1660
C63 C 0.2102(6) 0.1638(6) 0.2380(3)
H76 H 0.1901 0.1542 0.2648
H77 H 0.1837 0.1171 0.2125
H78 H 0.2827 0.1640 0.2534
C64 C 0.4081(5) 0.3263(5) 0.2053(3)
C65 C 0.4908(5) 0.3838(5) 0.2215(2)
C66 C 0.5328(5) 0.4046(5) 0.1888(3)
C67 C 0.4894(6) 0.3685(5) 0.1380(3)
C68 C 0.4098(6) 0.3088(5) 0.1213(3)
C69 C 0.3684(6) 0.2859(5) 0.1548(3)
C70 C 0.2878(7) 0.2147(6) 0.1379(3)
H79 H 0.3033 0.1684 0.1198
H80 H 0.2858 0.1904 0.1683
H81 H 0.2232 0.2401 0.1150
C71 C 0.3673(7) 0.2667(6) 0.0669(3)
H82 H 0.3811 0.2041 0.0704
H83 H 0.2955 0.2761 0.0485
H84 H 0.3984 0.2935 0.0477
C72 C 0.5302(6) 0.3938(6) 0.1011(3)
C73 C 0.6217(6) 0.4670(6) 0.2055(3)
H85 H 0.6002 0.5265 0.2072
H86 H 0.6737 0.4498 0.2394
H87 H 0.6475 0.4645 0.1806
C74 C 0.5361(6) 0.4270(5) 0.2756(3)
H88 H 0.5435 0.4897 0.2722
H89 H 0.4921 0.4173 0.2911
H90 H 0.6011 0.4014 0.2975
C79 C 0.2675(7) 0.0453(8) 0.4394(4)
C80 C 0.2565(8) 0.0901(8) 0.3850(4)
H100 H 0.2985 0.0586 0.3734
H101 H 0.1873 0.0867 0.3585
H102 H 0.2771 0.1511 0.3912
C81 C 0.1487(9) 0.1692(9) 0.4281(5)
H103 H 0.1152 0.1849 0.4485
H104 H 0.1907 0.2177 0.4283
H105 H 0.0991 0.1568 0.3927
C82 C 0.2196(9) 0.0393(9) 0.5020(5)
H106 H 0.2873 0.0427 0.5302
H107 H 0.1742 0.0685 0.5121
B2 B 0.3518(6) 0.3080(6) 0.2399(3)
Cd5 Cd 0.5000 0.5000 0.0000
Cd7 Cd 0.70655(4) 0.16412(4) 0.569752(18)
Cd8 Cd 0.70655(4) 0.33588(4) 0.069752(18)
O19 O 0.4861(4) 0.0444(4) 0.56896(19)
Cd5_2 Cd 0.5000 0.5000 1.0000
Cd1_2 Cd 0.5000 1.0000 0.5000
O3 O 0.5065(5) 0.8593(4) 0.5266(2)
O4 O 0.3658(5) 0.7853(4) 0.5109(2)
O5 O 0.5139(4) 0.5444(4) 0.93104(19)
N2 N 0.7852(9) 0.9139(8) 0.5481(5)
C1 C 0.5907(5) 0.7193(5) 0.7008(3)
C2 C 0.6182(5) 0.6824(5) 0.6640(3)
C3 C 0.5752(6) 0.7132(5) 0.6126(3)
C4 C 0.5005(6) 0.7789(5) 0.5965(3)
C5 C 0.4679(5) 0.8154(5) 0.6307(3)
C6 C 0.5150(5) 0.7860(5) 0.6831(3)
C7 C 0.4800(6) 0.8282(6) 0.7199(3)
H1 H 0.4249 0.7945 0.7193
H2 H 0.4582 0.8879 0.7087
H3 H 0.5350 0.8289 0.7549
C8 C 0.3861(6) 0.8839(6) 0.6122(3)
H4 H 0.3379 0.8689 0.6243
H5 H 0.3530 0.8859 0.5746
H6 H 0.4151 0.9410 0.6259
C9 C 0.4535(6) 0.8098(5) 0.5409(3)
C10 C 0.6095(7) 0.6766(6) 0.5742(3)
H7 H 0.5838 0.6174 0.5641
H8 H 0.6820 0.6755 0.5905
H9 H 0.5843 0.7137 0.5436
C11 C 0.6904(6) 0.6049(6) 0.6779(3)
H10 H 0.7532 0.6246 0.6798
H11 H 0.6615 0.5598 0.6515
H12 H 0.7023 0.5810 0.7112
C12 C 0.7673(6) 0.6789(5) 0.7886(3)
C13 C 0.8308(6) 0.7471(6) 0.7885(3)
C14 C 0.9377(6) 0.7400(6) 0.8175(3)
C15 C 0.9788(6) 0.6610(6) 0.8443(3)
C16 C 0.9148(6) 0.5904(6) 0.8439(4)
C17 C 0.8116(6) 0.5997(6) 0.8165(3)
C18 C 0.7468(7) 0.5218(6) 0.8145(4)
H13 H 0.7448 0.5170 0.8473
H14 H 0.7747 0.4684 0.8083
H15 H 0.6794 0.5303 0.7867
C19 C 0.9608(7) 0.5048(7) 0.8746(5)
H16 H 0.9263 0.4888 0.8945
H18 H 0.9535 0.4578 0.8505
H19 H 0.9916 0.8289 0.7826
H21 H 0.9940 0.8665 0.8340
C22 C 0.7898(6) 0.8362(6) 0.7620(3)
H22 H 0.8099 0.8458 0.7352
H23 H 0.8163 0.8829 0.7875
H24 H 0.7173 0.8360 0.7466
C23 C 0.5919(5) 0.6737(5) 0.7947(3)
C24 C 0.5092(5) 0.6162(5) 0.7785(2)
C25 C 0.4672(5) 0.5954(5) 0.8112(3)
C26 C 0.5106(6) 0.6315(5) 0.8620(3)
C27 C 0.5902(6) 0.6912(5) 0.8787(3)
C28 C 0.6316(6) 0.7141(5) 0.8452(3)
C29 C 0.7122(7) 0.7853(6) 0.8621(3)
H25 H 0.6967 0.8316 0.8802
H26 H 0.7142 0.8096 0.8317
H27 H 0.7768 0.7599 0.8850
C30 C 0.6327(7) 0.7333(6) 0.9331(3)
H28 H 0.6189 0.7959 0.9296
H29 H 0.7045 0.7239 0.9515
H30 H 0.6016 0.7065 0.9523
C31 C 0.4698(6) 0.6062(6) 0.8989(3)
C32 C 0.3783(6) 0.5330(6) 0.7945(3)
H31 H 0.3998 0.4735 0.7928
H32 H 0.3263 0.5502 0.7606
H33 H 0.3525 0.5355 0.8194
C33 C 0.4639(6) 0.5730(5) 0.7244(3)
H34 H 0.4565 0.5103 0.7278
H35 H 0.5079 0.5827 0.7089
H36 H 0.3989 0.5986 0.7025
C38 C 0.7325(7) 0.9547(8) 0.5606(4)
C39 C 0.7435(8) 0.9099(8) 0.6150(4)
H46 H 0.7015 0.9414 0.6266
H47 H 0.8127 0.9133 0.6415
H48 H 0.7229 0.8489 0.6088
C40 C 0.8513(9) 0.8308(9) 0.5719(5)
H49 H 0.8848 0.8151 0.5515
H50 H 0.8093 0.7823 0.5717
H51 H 0.9009 0.8432 0.6073
C41 C 0.7804(9) 0.9607(9) 0.4980(5)
H52 H 0.7127 0.9573 0.4698
H53 H 0.8258 0.9315 0.4879
B1 B 0.6482(6) 0.6920(6) 0.7601(3)
O16 O 0.3227(4) 0.9846(4) 0.4580(2)
H108 H 0.2003 0.9782 0.4942
Cd9 Cd 0.29345(4) 0.83588(4) 0.430248(18)
O20 O 0.5139(4) 0.9556(4) 0.43104(19)
O9 O 0.8577(4) 0.3757(5) 0.1462(2)
O10 O 0.8660(4) 0.3244(5) 0.0767(2)
O15 O 0.7192(5) 0.1933(5) 0.1051(3)
N3 N 0.6062(9) 0.1307(8) 0.1273(5)
H71 H 0.9688 0.4860 0.1021
C61 C 0.9080(6) 0.3459(7) 0.1248(3)
C62 C 0.9941(6) 0.1850(7) 0.1820(4)
H74 H 0.9247 0.2028 0.1624
C75 C 0.6792(10) 0.1756(8) 0.1365(4)
C76 C 0.7283(9) 0.2090(9) 0.1935(4)
H91 H 0.7765 0.2547 0.1979
H92 H 0.6771 0.2325 0.2013
H93 H 0.7621 0.1606 0.2168
C77 C 0.5628(10) 0.1097(9) 0.1611(5)
H94 H 0.5168 0.0608 0.1466
H95 H 0.6156 0.0937 0.1951
H96 H 0.5270 0.1604 0.1642
C78 C 0.5559(10) 0.0980(9) 0.0690(5)
H97 H 0.6076 0.0815 0.0596
H98 H 0.5138 0.0476 0.0652
H99 H 0.5156 0.1449 0.0464
O24 O 0.6773(4) 0.4846(4) 0.0420(2)
O17 O 0.6342(5) 0.2853(4) 0.9891(2)
O9_2 O 0.1423(4) 0.8757(5) 0.3538(2)
O10_2 O 0.1340(4) 0.8244(5) 0.4233(2)
O15_2 O 0.2808(5) 0.6933(5) 0.3949(3)
N3_2 N 0.3938(9) 0.6307(8) 0.3727(5)
H71_2 H 0.0312 0.9860 0.3979
C61_2 C 0.0920(6) 0.8459(7) 0.3752(3)
C62_2 C 0.0059(6) 0.6850(7) 0.3180(4)
H74_2 H 0.0753 0.7028 0.3376
C75_2 C 0.3208(10) 0.6756(8) 0.3635(4)
C76_2 C 0.2717(9) 0.7090(9) 0.3065(4)
H91_2 H 0.2235 0.7547 0.3021
H92_2 H 0.3229 0.7325 0.2987
H93_2 H 0.2379 0.6606 0.2832
C77_2 C 0.4372(10) 0.6097(9) 0.3389(5)
H94_2 H 0.4832 0.5608 0.3534
H95_2 H 0.3844 0.5937 0.3049
H96_2 H 0.4730 0.6604 0.3358
C78_2 C 0.4441(10) 0.5980(9) 0.4310(5)
H97_2 H 0.3924 0.5815 0.4404
H98_2 H 0.4862 0.5476 0.4348
H99_2 H 0.4844 0.6449 0.4536
O22 O 0.3940(4) 0.8513(4) 0.3936(2)
H68_2 H 0.7747 0.0316 0.3083
H70_2 H 0.9263 0.0112 0.3945
H72_2 H 0.9535 0.0422 0.3505
H85_2 H 0.3998 0.0265 0.2928
C41_2 C 0.2196(9) 0.4607(9) 0.0020(5)
H52_2 H 0.2873 0.4573 0.0302
H53_2 H 0.1742 0.4315 0.0121
O11_2 O 0.5065(5) 0.6407(4) 0.0266(2)
N4_2 N 0.7852(9) 0.5861(8) 0.0481(5)
C42_2 C 0.5907(5) 0.7807(5) 0.2008(3)
C43_2 C 0.6182(5) 0.8176(5) 0.1640(3)
C44_2 C 0.5752(6) 0.7868(5) 0.1126(3)
C45_2 C 0.5005(6) 0.7211(5) 0.0965(3)
C46_2 C 0.4679(5) 0.6846(5) 0.1307(3)
C47_2 C 0.5150(5) 0.7140(5) 0.1831(3)
C48_2 C 0.4800(6) 0.6718(6) 0.2199(3)
H55_2 H 0.4249 0.7055 0.2193
H56_2 H 0.4582 0.6121 0.2087
H57_2 H 0.5350 0.6711 0.2549
C49_2 C 0.3861(6) 0.6161(6) 0.1122(3)
H58_2 H 0.3379 0.6311 0.1243
H59_2 H 0.3530 0.6141 0.0746
H60_2 H 0.4151 0.5590 0.1259
C50_2 C 0.4535(6) 0.6902(5) 0.0409(3)
C51_2 C 0.6095(7) 0.8234(6) 0.0742(3)
H61_2 H 0.5838 0.8826 0.0641
H62_2 H 0.6820 0.8245 0.0905
H63_2 H 0.5843 0.7863 0.0436
C52_2 C 0.6904(6) 0.8951(6) 0.1779(3)
H64_2 H 0.7532 0.8754 0.1798
H65_2 H 0.6615 0.9402 0.1515
H66_2 H 0.7023 0.9190 0.2112
C53_2 C 0.7673(6) 0.8211(5) 0.2886(3)
C54_2 C 0.8308(6) 0.7529(6) 0.2885(3)
C55_2 C 0.9377(6) 0.7600(6) 0.3175(3)
C56_2 C 0.9788(6) 0.8390(6) 0.3443(3)
C57_2 C 0.9148(6) 0.9096(6) 0.3439(4)
C58_2 C 0.8116(6) 0.9003(6) 0.3165(3)
C59_2 C 0.7468(7) 0.9782(6) 0.3145(4)
H67_2 H 0.7448 0.9830 0.3473
H69_2 H 0.6794 0.9697 0.2867
C60_2 C 0.9608(7) 0.9952(7) 0.3746(5)
H73_2 H 0.9916 0.6711 0.2826
H75_2 H 0.9940 0.6335 0.3340
C63_2 C 0.7898(6) 0.6638(6) 0.2620(3)
H76_2 H 0.8099 0.6542 0.2352
H77_2 H 0.8163 0.6171 0.2875
H78_2 H 0.7173 0.6640 0.2466
C64_2 C 0.5919(5) 0.8263(5) 0.2947(3)
C65_2 C 0.5092(5) 0.8838(5) 0.2785(2)
C66_2 C 0.4672(5) 0.9046(5) 0.3112(3)
C67_2 C 0.5106(6) 0.8685(5) 0.3620(3)
C68_2 C 0.5902(6) 0.8088(5) 0.3787(3)
C69_2 C 0.6316(6) 0.7859(5) 0.3452(3)
C70_2 C 0.7122(7) 0.7147(6) 0.3621(3)
H79_2 H 0.6967 0.6684 0.3802
H80_2 H 0.7142 0.6904 0.3317
H81_2 H 0.7768 0.7401 0.3850
C71_2 C 0.6327(7) 0.7667(6) 0.4331(3)
H82_2 H 0.6189 0.7041 0.4296
H83_2 H 0.7045 0.7761 0.4515
H84_2 H 0.6016 0.7935 0.4523
C72_2 C 0.4698(6) 0.8938(6) 0.3989(3)
C73_2 C 0.3783(6) 0.9670(6) 0.2945(3)
H86_2 H 0.3263 0.9498 0.2606
H87_2 H 0.3525 0.9645 0.3194
C74_2 C 0.4639(6) 0.9270(5) 0.2244(3)
H88_2 H 0.4565 0.9897 0.2278
H89_2 H 0.5079 0.9173 0.2089
H90_2 H 0.3989 0.9014 0.2025
C79_2 C 0.7325(7) 0.5453(8) 0.0606(4)
C80_2 C 0.7435(8) 0.5901(8) 0.1150(4)
H100_2 H 0.7015 0.5586 0.1266
H101_2 H 0.8127 0.5867 0.1415
H102_2 H 0.7229 0.6511 0.1088
C81_2 C 0.8513(9) 0.6692(9) 0.0719(5)
H103_2 H 0.8848 0.6849 0.0515
H104_2 H 0.8093 0.7177 0.0717
H105_2 H 0.9009 0.6568 0.1073
H108_2 H 0.7997 0.4782 0.0058
B2_2 B 0.6482(6) 0.8080(6) 0.2601(3)
O3_2 O 0.4935(5) 0.3593(4) 0.9734(2)
O6 O 0.6060(4) 0.1487(4) 0.6064(2)
N2_2 N 0.2148(9) 0.4139(8) 0.9519(5)
C1_2 C 0.4093(5) 0.2193(5) 0.7992(3)
C2_2 C 0.3818(5) 0.1824(5) 0.8360(3)
C3_2 C 0.4248(6) 0.2132(5) 0.8874(3)
C4_2 C 0.4995(6) 0.2789(5) 0.9035(3)
C5_2 C 0.5321(5) 0.3154(5) 0.8693(3)
C6_2 C 0.4850(5) 0.2860(5) 0.8169(3)
C7_2 C 0.5200(6) 0.3282(6) 0.7801(3)
H1_2 H 0.5751 0.2945 0.7807
H2_2 H 0.5418 0.3879 0.7913
H3_2 H 0.4650 0.3289 0.7451
C8_2 C 0.6139(6) 0.3839(6) 0.8878(3)
H4_2 H 0.6621 0.3689 0.8757
H5_2 H 0.6470 0.3859 0.9254
H6_2 H 0.5849 0.4410 0.8741
C9_2 C 0.5465(6) 0.3098(5) 0.9591(3)
C10_2 C 0.3905(7) 0.1766(6) 0.9258(3)
H7_2 H 0.4162 0.1174 0.9359
H8_2 H 0.3180 0.1755 0.9095
H9_2 H 0.4157 0.2137 0.9564
C11_2 C 0.3096(6) 0.1049(6) 0.8221(3)
H10_2 H 0.2468 0.1246 0.8202
H11_2 H 0.3385 0.0598 0.8485
H12_2 H 0.2977 0.0810 0.7888
C12_2 C 0.2327(6) 0.1789(5) 0.7114(3)
C13_2 C 0.1692(6) 0.2471(6) 0.7115(3)
C14_2 C 0.0623(6) 0.2400(6) 0.6825(3)
C15_2 C 0.0212(6) 0.1610(6) 0.6557(3)
C16_2 C 0.0852(6) 0.0904(6) 0.6561(4)
C17_2 C 0.1884(6) 0.0997(6) 0.6835(3)
C18_2 C 0.2532(7) 0.0218(6) 0.6855(4)
H13_2 H 0.2552 0.0170 0.6527
H15_2 H 0.3206 0.0303 0.7133
C19_2 C 0.0392(7) 0.0048(7) 0.6254(5)
H19_2 H 0.0084 0.3289 0.7174
H21_2 H 0.0060 0.3665 0.6660
C22_2 C 0.2102(6) 0.3362(6) 0.7380(3)
H22_2 H 0.1901 0.3458 0.7648
H23_2 H 0.1837 0.3829 0.7125
H24_2 H 0.2827 0.3360 0.7534
C23_2 C 0.4081(5) 0.1737(5) 0.7053(3)
C24_2 C 0.4908(5) 0.1162(5) 0.7215(2)
C25_2 C 0.5328(5) 0.0954(5) 0.6888(3)
C26_2 C 0.4894(6) 0.1315(5) 0.6380(3)
C27_2 C 0.4098(6) 0.1912(5) 0.6213(3)
C28_2 C 0.3684(6) 0.2141(5) 0.6548(3)
C29_2 C 0.2878(7) 0.2853(6) 0.6379(3)
H25_2 H 0.3033 0.3316 0.6198
H26_2 H 0.2858 0.3096 0.6683
H27_2 H 0.2232 0.2599 0.6150
C30_2 C 0.3673(7) 0.2333(6) 0.5669(3)
H28_2 H 0.3811 0.2959 0.5704
H29_2 H 0.2955 0.2239 0.5485
H30_2 H 0.3984 0.2065 0.5477
C31_2 C 0.5302(6) 0.1062(6) 0.6011(3)
C32_2 C 0.6217(6) 0.0330(6) 0.7055(3)
H32_2 H 0.6737 0.0502 0.7394
H33_2 H 0.6475 0.0355 0.6806
C33_2 C 0.5361(6) 0.0730(5) 0.7756(3)
H34_2 H 0.5435 0.0103 0.7722
H35_2 H 0.4921 0.0827 0.7911
H36_2 H 0.6011 0.0986 0.7975
C38_2 C 0.2675(7) 0.4547(8) 0.9394(4)
C39_2 C 0.2565(8) 0.4099(8) 0.8850(4)
H46_2 H 0.2985 0.4414 0.8734
H47_2 H 0.1873 0.4133 0.8585
H48_2 H 0.2771 0.3489 0.8912
C40_2 C 0.1487(9) 0.3308(9) 0.9281(5)
H49_2 H 0.1152 0.3151 0.9485
H50_2 H 0.1907 0.2823 0.9283
H51_2 H 0.0991 0.3432 0.8927
H54_2 H 0.2003 0.5218 0.9942
B1_2 B 0.3518(6) 0.1920(6) 0.7399(3)
C82_2 C 0.7804(9) 0.5393(9) 0.9980(5)
H106_2 H 0.7127 0.5427 0.9698
H107_2 H 0.8258 0.5685 0.9879
H14_2 H 0.2253 0.9684 0.6917
H16_2 H 0.0737 0.9888 0.6055
H18_2 H 0.0465 0.9578 0.6495
H31_2 H 0.6002 0.9735 0.7072
O1_2 O 0.8577(4) 0.1243(5) 0.6462(2)
O2_2 O 0.8660(4) 0.1756(5) 0.5767(2)
O7_2 O 0.7192(5) 0.3067(5) 0.6051(3)
N1_2 N 0.6062(9) 0.3693(8) 0.6273(5)
H17_2 H 0.9688 0.0140 0.6021
C20_2 C 0.9080(6) 0.1541(7) 0.6248(3)
C21_2 C 0.9941(6) 0.3150(7) 0.6820(4)
H20_2 H 0.9247 0.2972 0.6624
C34_2 C 0.6792(10) 0.3244(8) 0.6365(4)
C35_2 C 0.7283(9) 0.2910(9) 0.6935(4)
H37_2 H 0.7765 0.2453 0.6979
H38_2 H 0.6771 0.2675 0.7013
H39_2 H 0.7621 0.3394 0.7168
C36_2 C 0.5628(10) 0.3903(9) 0.6611(5)
H40_2 H 0.5168 0.4392 0.6466
H41_2 H 0.6156 0.4063 0.6951
H42_2 H 0.5270 0.3396 0.6642
C37_2 C 0.5559(10) 0.4020(9) 0.5690(5)
H43_2 H 0.6076 0.4185 0.5596
H44_2 H 0.5138 0.4524 0.5652
H45_2 H 0.5156 0.3551 0.5464
loop_
_geom_bond_atom_site_label_1
_geom_bond_atom_site_label_2
_geom_bond_site_symmetry_1
_geom_bond_site_symmetry_2
Cd2 O1 1_555 1_555
O1 C20 1_555 1_555
O2 Cd2 1_555 1_555
O7 Cd2 1_555 1_555
N1 C34 1_555 1_555
C20 O2 1_555 1_555
H20 C21 1_555 1_555
C34 O7 1_555 1_555
C35 C34 1_555 1_555
H37 C35 1_555 1_555
H38 C35 1_555 1_555
H39 C35 1_555 1_555
C36 N1 1_555 1_555
H40 C36 1_555 1_555
H41 C36 1_555 1_555
H42 C36 1_555 1_555
C37 N1 1_555 1_555
H43 C37 1_555 1_555
H44 C37 1_555 1_555
H45 C37 1_555 1_555
O21 Cd2 1_555 1_555
O23 Cd2 1_555 1_555
O8 Cd1 1_555 1_555
O11 Cd1 1_555 1_555
O12 C50 1_555 1_555
O13 C72 1_555 1_555
O14 C72 1_555 1_555
N4 C79 1_555 1_555
C42 C43 1_555 1_555
C43 C44 1_555 1_555
C44 C45 1_555 1_555
C45 C46 1_555 1_555
C46 C47 1_555 1_555
C47 C42 1_555 1_555
C48 C47 1_555 1_555
H55 C48 1_555 1_555
H56 C48 1_555 1_555
H57 C48 1_555 1_555
C49 C46 1_555 1_555
H58 C49 1_555 1_555
H59 C49 1_555 1_555
H60 C49 1_555 1_555
C50 O11 1_555 1_555
C51 C44 1_555 1_555
H61 C51 1_555 1_555
H62 C51 1_555 1_555
H63 C51 1_555 1_555
C52 C43 1_555 1_555
H64 C52 1_555 1_555
H65 C52 1_555 1_555
H66 C52 1_555 1_555
C53 C54 1_555 1_555
C54 C55 1_555 1_555
C55 C56 1_555 1_555
C56 C57 1_555 1_555
C57 C58 1_555 1_555
C58 C53 1_555 1_555
C59 C58 1_555 1_555
H67 C59 1_555 1_555
H68 C59 1_555 1_555
H69 C59 1_555 1_555
C60 C57 1_555 1_555
H70 C60 1_555 1_555
H72 C60 1_555 1_555
C63 C54 1_555 1_555
H76 C63 1_555 1_555
H77 C63 1_555 1_555
H78 C63 1_555 1_555
C64 C65 1_555 1_555
C65 C66 1_555 1_555
C66 C67 1_555 1_555
C67 C68 1_555 1_555
C68 C69 1_555 1_555
C69 C64 1_555 1_555
C70 C69 1_555 1_555
H79 C70 1_555 1_555
H80 C70 1_555 1_555
H81 C70 1_555 1_555
C71 C68 1_555 1_555
H82 C71 1_555 1_555
H83 C71 1_555 1_555
H84 C71 1_555 1_555
C72 C67 1_555 1_555
C73 C66 1_555 1_555
H85 C73 1_555 1_555
H86 C73 1_555 1_555
H87 C73 1_555 1_555
C74 C65 1_555 1_555
H88 C74 1_555 1_555
H89 C74 1_555 1_555
H90 C74 1_555 1_555
C80 C79 1_555 1_555
H100 C80 1_555 1_555
H101 C80 1_555 1_555
H102 C80 1_555 1_555
C81 N4 1_555 1_555
H103 C81 1_555 1_555
H104 C81 1_555 1_555
H105 C81 1_555 1_555
C82 N4 1_555 1_555
H106 C82 1_555 1_555
H107 C82 1_555 1_555
B2 C42 1_555 1_555
Cd5 O13 1_555 1_555
Cd7 O8 1_555 1_555
Cd8 O14 1_555 1_555
O19 Cd1 1_555 1_555
O12 Cd7 1_555 1_555
C45 C50 1_555 1_555
C53 B2 1_555 1_555
C64 B2 1_555 1_555
Cd1_2 O3 1_555 1_555
O3 C9 1_555 1_555
O4 C9 1_555 1_555
O5 C31 1_555 1_555
O21 C31 1_555 1_555
N2 C38 1_555 1_555
C1 C2 1_555 1_555
C2 C3 1_555 1_555
C3 C4 1_555 1_555
C4 C5 1_555 1_555
C5 C6 1_555 1_555
C6 C1 1_555 1_555
C7 C6 1_555 1_555
H1 C7 1_555 1_555
H2 C7 1_555 1_555
H3 C7 1_555 1_555
C8 C5 1_555 1_555
H4 C8 1_555 1_555
H5 C8 1_555 1_555
H6 C8 1_555 1_555
C9 C4 1_555 1_555
C10 C3 1_555 1_555
H7 C10 1_555 1_555
H8 C10 1_555 1_555
H9 C10 1_555 1_555
C11 C2 1_555 1_555
H10 C11 1_555 1_555
H11 C11 1_555 1_555
H12 C11 1_555 1_555
C12 C13 1_555 1_555
C13 C14 1_555 1_555
C14 C15 1_555 1_555
C15 C16 1_555 1_555
C16 C17 1_555 1_555
C17 C12 1_555 1_555
C18 C17 1_555 1_555
H13 C18 1_555 1_555
H14 C18 1_555 1_555
H15 C18 1_555 1_555
C19 C16 1_555 1_555
H16 C19 1_555 1_555
H18 C19 1_555 1_555
C22 C13 1_555 1_555
H22 C22 1_555 1_555
H23 C22 1_555 1_555
H24 C22 1_555 1_555
C23 C24 1_555 1_555
C24 C25 1_555 1_555
C25 C26 1_555 1_555
C26 C27 1_555 1_555
C27 C28 1_555 1_555
C28 C23 1_555 1_555
C29 C28 1_555 1_555
H25 C29 1_555 1_555
H26 C29 1_555 1_555
H27 C29 1_555 1_555
C30 C27 1_555 1_555
H28 C30 1_555 1_555
H29 C30 1_555 1_555
H30 C30 1_555 1_555
C31 C26 1_555 1_555
C32 C25 1_555 1_555
H31 C32 1_555 1_555
H32 C32 1_555 1_555
H33 C32 1_555 1_555
C33 C24 1_555 1_555
H34 C33 1_555 1_555
H35 C33 1_555 1_555
H36 C33 1_555 1_555
C39 C38 1_555 1_555
H46 C39 1_555 1_555
H47 C39 1_555 1_555
H48 C39 1_555 1_555
C40 N2 1_555 1_555
H49 C40 1_555 1_555
H50 C40 1_555 1_555
H51 C40 1_555 1_555
C41 N2 1_555 1_555
H52 C41 1_555 1_555
H53 C41 1_555 1_555
B1 C1 1_555 1_555
O16 Cd1_2 1_555 1_555
Cd5_2 O5 1_555 1_555
Cd9 O4 1_555 1_555
O20 Cd1_2 1_555 1_555
C12 B1 1_555 1_555
C23 B1 1_555 1_555
O16 Cd9 1_555 1_555
Cd8 O9 1_555 1_555
O9 C61 1_555 1_555
O10 Cd8 1_555 1_555
O15 Cd8 1_555 1_555
N3 C75 1_555 1_555
C61 O10 1_555 1_555
H74 C62 1_555 1_555
C75 O15 1_555 1_555
C76 C75 1_555 1_555
H91 C76 1_555 1_555
H92 C76 1_555 1_555
H93 C76 1_555 1_555
C77 N3 1_555 1_555
H94 C77 1_555 1_555
H95 C77 1_555 1_555
H96 C77 1_555 1_555
C78 N3 1_555 1_555
H97 C78 1_555 1_555
H98 C78 1_555 1_555
H99 C78 1_555 1_555
O24 Cd8 1_555 1_555
Cd9 O9_2 1_555 1_555
O9_2 C61_2 1_555 1_555
O10_2 Cd9 1_555 1_555
O15_2 Cd9 1_555 1_555
N3_2 C75_2 1_555 1_555
C61_2 O10_2 1_555 1_555
H74_2 C62_2 1_555 1_555
C75_2 O15_2 1_555 1_555
C76_2 C75_2 1_555 1_555
H91_2 C76_2 1_555 1_555
H92_2 C76_2 1_555 1_555
H93_2 C76_2 1_555 1_555
C77_2 N3_2 1_555 1_555
H94_2 C77_2 1_555 1_555
H95_2 C77_2 1_555 1_555
H96_2 C77_2 1_555 1_555
C78_2 N3_2 1_555 1_555
H97_2 C78_2 1_555 1_555
H98_2 C78_2 1_555 1_555
H99_2 C78_2 1_555 1_555
O22 Cd9 1_555 1_555
H52_2 C41_2 1_555 1_555
H53_2 C41_2 1_555 1_555
O11_2 Cd5 1_555 1_555
O18 C50_2 1_555 1_555
O20 C72_2 1_555 1_555
O22 C72_2 1_555 1_555
O24 Cd5 1_555 1_555
N4_2 C79_2 1_555 1_555
C42_2 C43_2 1_555 1_555
C43_2 C44_2 1_555 1_555
C44_2 C45_2 1_555 1_555
C45_2 C46_2 1_555 1_555
C46_2 C47_2 1_555 1_555
C47_2 C42_2 1_555 1_555
C48_2 C47_2 1_555 1_555
H55_2 C48_2 1_555 1_555
H56_2 C48_2 1_555 1_555
H57_2 C48_2 1_555 1_555
C49_2 C46_2 1_555 1_555
H58_2 C49_2 1_555 1_555
H59_2 C49_2 1_555 1_555
H60_2 C49_2 1_555 1_555
C50_2 O11_2 1_555 1_555
C51_2 C44_2 1_555 1_555
H61_2 C51_2 1_555 1_555
H62_2 C51_2 1_555 1_555
H63_2 C51_2 1_555 1_555
C52_2 C43_2 1_555 1_555
H64_2 C52_2 1_555 1_555
H65_2 C52_2 1_555 1_555
H66_2 C52_2 1_555 1_555
C53_2 C54_2 1_555 1_555
C54_2 C55_2 1_555 1_555
C55_2 C56_2 1_555 1_555
C56_2 C57_2 1_555 1_555
C57_2 C58_2 1_555 1_555
C58_2 C53_2 1_555 1_555
C59_2 C58_2 1_555 1_555
H67_2 C59_2 1_555 1_555
H69_2 C59_2 1_555 1_555
C60_2 C57_2 1_555 1_555
C63_2 C54_2 1_555 1_555
H76_2 C63_2 1_555 1_555
H77_2 C63_2 1_555 1_555
H78_2 C63_2 1_555 1_555
C64_2 C65_2 1_555 1_555
C65_2 C66_2 1_555 1_555
C66_2 C67_2 1_555 1_555
C67_2 C68_2 1_555 1_555
C68_2 C69_2 1_555 1_555
C69_2 C64_2 1_555 1_555
C70_2 C69_2 1_555 1_555
H79_2 C70_2 1_555 1_555
H80_2 C70_2 1_555 1_555
H81_2 C70_2 1_555 1_555
C71_2 C68_2 1_555 1_555
H82_2 C71_2 1_555 1_555
H83_2 C71_2 1_555 1_555
H84_2 C71_2 1_555 1_555
C72_2 C67_2 1_555 1_555
C73_2 C66_2 1_555 1_555
H86_2 C73_2 1_555 1_555
H87_2 C73_2 1_555 1_555
C74_2 C65_2 1_555 1_555
H88_2 C74_2 1_555 1_555
H89_2 C74_2 1_555 1_555
H90_2 C74_2 1_555 1_555
C79_2 O24 1_555 1_555
C80_2 C79_2 1_555 1_555
H100_2 C80_2 1_555 1_555
H101_2 C80_2 1_555 1_555
H102_2 C80_2 1_555 1_555
C81_2 N4_2 1_555 1_555
H103_2 C81_2 1_555 1_555
H104_2 C81_2 1_555 1_555
H105_2 C81_2 1_555 1_555
B2_2 C42_2 1_555 1_555
C45_2 C50_2 1_555 1_555
C53_2 B2_2 1_555 1_555
C64_2 B2_2 1_555 1_555
Cd5_2 O3_2 1_555 1_555
O3_2 C9_2 1_555 1_555
O17 C9_2 1_555 1_555
O19 C31_2 1_555 1_555
O6 C31_2 1_555 1_555
O23 Cd5_2 1_555 1_555
N2_2 C38_2 1_555 1_555
C1_2 C2_2 1_555 1_555
C2_2 C3_2 1_555 1_555
C3_2 C4_2 1_555 1_555
C4_2 C5_2 1_555 1_555
C5_2 C6_2 1_555 1_555
C6_2 C1_2 1_555 1_555
C7_2 C6_2 1_555 1_555
H1_2 C7_2 1_555 1_555
H2_2 C7_2 1_555 1_555
H3_2 C7_2 1_555 1_555
C8_2 C5_2 1_555 1_555
H4_2 C8_2 1_555 1_555
H5_2 C8_2 1_555 1_555
H6_2 C8_2 1_555 1_555
C9_2 C4_2 1_555 1_555
C10_2 C3_2 1_555 1_555
H7_2 C10_2 1_555 1_555
H8_2 C10_2 1_555 1_555
H9_2 C10_2 1_555 1_555
C11_2 C2_2 1_555 1_555
H10_2 C11_2 1_555 1_555
H11_2 C11_2 1_555 1_555
H12_2 C11_2 1_555 1_555
C12_2 C13_2 1_555 1_555
C13_2 C14_2 1_555 1_555
C14_2 C15_2 1_555 1_555
C15_2 C16_2 1_555 1_555
C16_2 C17_2 1_555 1_555
C17_2 C12_2 1_555 1_555
C18_2 C17_2 1_555 1_555
H13_2 C18_2 1_555 1_555
H15_2 C18_2 1_555 1_555
C19_2 C16_2 1_555 1_555
C22_2 C13_2 1_555 1_555
H22_2 C22_2 1_555 1_555
H23_2 C22_2 1_555 1_555
H24_2 C22_2 1_555 1_555
C23_2 C24_2 1_555 1_555
C24_2 C25_2 1_555 1_555
C25_2 C26_2 1_555 1_555
C26_2 C27_2 1_555 1_555
C27_2 C28_2 1_555 1_555
C28_2 C23_2 1_555 1_555
C29_2 C28_2 1_555 1_555
H25_2 C29_2 1_555 1_555
H26_2 C29_2 1_555 1_555
H27_2 C29_2 1_555 1_555
C30_2 C27_2 1_555 1_555
H28_2 C30_2 1_555 1_555
H29_2 C30_2 1_555 1_555
H30_2 C30_2 1_555 1_555
C31_2 C26_2 1_555 1_555
C32_2 C25_2 1_555 1_555
H32_2 C32_2 1_555 1_555
H33_2 C32_2 1_555 1_555
C33_2 C24_2 1_555 1_555
H34_2 C33_2 1_555 1_555
H35_2 C33_2 1_555 1_555
H36_2 C33_2 1_555 1_555
C38_2 O23 1_555 1_555
C39_2 C38_2 1_555 1_555
H46_2 C39_2 1_555 1_555
H47_2 C39_2 1_555 1_555
H48_2 C39_2 1_555 1_555
C40_2 N2_2 1_555 1_555
H49_2 C40_2 1_555 1_555
H50_2 C40_2 1_555 1_555
H51_2 C40_2 1_555 1_555
B1_2 C1_2 1_555 1_555
H106_2 C82_2 1_555 1_555
H107_2 C82_2 1_555 1_555
Cd7 O6 1_555 1_555
C12_2 B1_2 1_555 1_555
C23_2 B1_2 1_555 1_555
Cd7 O1_2 1_555 1_555
O1_2 C20_2 1_555 1_555
O2_2 Cd7 1_555 1_555
O7_2 Cd7 1_555 1_555
N1_2 C34_2 1_555 1_555
C20_2 O2_2 1_555 1_555
H20_2 C21_2 1_555 1_555
C34_2 O7_2 1_555 1_555
C35_2 C34_2 1_555 1_555
H37_2 C35_2 1_555 1_555
H38_2 C35_2 1_555 1_555
H39_2 C35_2 1_555 1_555
C36_2 N1_2 1_555 1_555
H40_2 C36_2 1_555 1_555
H41_2 C36_2 1_555 1_555
H42_2 C36_2 1_555 1_555
C37_2 N1_2 1_555 1_555
H43_2 C37_2 1_555 1_555
H44_2 C37_2 1_555 1_555
H45_2 C37_2 1_555 1_555

#END
