
###############################################################################
#
# This file contains modified crystal structure data generated from the
# MOF subset of the Cambridge Structural Database (CSD) v543 
# hosted by the Cambridge Crystallographic Data Centre (CCDC).
#
# This work is licensed under the Creative Commons
# Attribution-NonCommercial-ShareAlike 4.0 International License.
# To view a copy of this license, visit
# http://creativecommons.org/licenses/by-nc-sa/4.0/
# or send a letter to
# Creative Commons, PO Box 1866, Mountain View, CA 94042, USA.
#
# CIF created using the CSD Python API on 29 September 2022
# The structure has been converted into the P1 space group
# The structure has a 3D framework
# The original CSD entry XUPZEQ is in the monoclinic crystal system
# The framework has been calculated to contain at least 10.0% void space
# The void calculation uses a probe of radius 1.32A, grid spacing 0.4
#
###############################################################################

data_XUPZEQ
_chemical_formula_moiety         '(C288 H192 Cl48 N92 Zn24)n'
_symmetry_cell_setting           triclinic
_symmetry_space_group_name_H-M   'P 1'
_symmetry_Int_Tables_number      1
_space_group_name_Hall           'P 1'
loop_
_symmetry_equiv_pos_site_id
_symmetry_equiv_pos_as_xyz
1 x,y,z
_cell_length_a                   32.8136(6)
_cell_length_b                   14.42330(10)
_cell_length_c                   31.0646(5)
_cell_angle_alpha                90
_cell_angle_beta                 100.840(2)
_cell_angle_gamma                90
_cell_volume                     14439.9
loop_
_atom_site_label
_atom_site_type_symbol
_atom_site_fract_x
_atom_site_fract_y
_atom_site_fract_z
Zn1 Zn 0.12272(2) 0.62944(3) 0.05433(2)
Zn2 Zn 0.42325(2) 0.63988(3) 0.40209(2)
Zn3 Zn 0.30325(10) 0.14869(6) 0.70811(10)
Cl1 Cl 0.10768(4) 0.75787(6) 0.08679(5)
Cl2 Cl 0.38744(5) 0.74981(7) 0.42692(6)
Cl4 Cl 0.47814(6) 0.66683(12) 0.37249(5)
Cl5 Cl 0.24281(12) 0.20332(17) 0.67553(18)
Cl6 Cl 0.3338(2) 0.1877(2) 0.77501(11)
N1 N 0.45711(10) 0.1500(2) 0.58045(12)
N2 N 0.27716(9) 0.46632(18) 0.22487(10)
N3 N 0.31386(9) 0.32908(18) 0.24876(10)
N4 N 0.42539(10) 0.2937(2) 0.55799(11)
N5 N 0.43897(11) 0.5402(2) 0.44921(11)
N6 N 0.16364(10) 0.55780(19) 0.10102(11)
N7 N 0.47875(9) 0.23662(18) 0.52461(9)
N9 N 0.25974(10) 0.32579(18) 0.18700(10)
N10 N 0.38223(11) 0.56464(19) 0.35662(11)
C1 C 0.48104(12) 0.1637(2) 0.55100(12)
C2 C 0.45103(11) 0.2998(2) 0.53005(12)
C3 C 0.44801(11) 0.3847(2) 0.50256(12)
C4 C 0.28919(12) 0.2855(2) 0.21655(12)
C5 C 0.51279(12) 0.0907(2) 0.54809(13)
C6 C 0.47239(12) 0.3967(2) 0.47187(12)
H1 H 0.492204 0.352549 0.468553
C7 C 0.30638(11) 0.4195(2) 0.25181(12)
C8 C 0.33199(12) 0.4714(2) 0.28863(12)
C9 C 0.42904(12) 0.2171(2) 0.58229(13)
N12 N 0.34651(16) 0.1734(3) 0.66989(17)
C10 C 0.53842(13) 0.0972(2) 0.51901(13)
H2 H 0.536331 0.146754 0.499576
C11 C 0.46739(12) 0.4754(2) 0.44569(13)
H3 H 0.484277 0.483299 0.425053
C12 C 0.56793(12) 0.0287(2) 0.51859(13)
H4 H 0.585080 0.032169 0.497974
C13 C 0.25518(12) 0.4161(2) 0.19286(12)
C14 C 0.19057(13) 0.6046(2) 0.13053(15)
H5 H 0.189042 0.668952 0.130779
C15 C 0.29388(12) 0.1836(2) 0.21455(12)
C16 C 0.33118(15) 0.5658(2) 0.29124(14)
H6 H 0.313794 0.600105 0.269964
C17 C 0.22335(12) 0.4655(2) 0.16080(12)
C18 C 0.16566(14) 0.4660(3) 0.10181(15)
H7 H 0.146317 0.433062 0.081850
C19 C 0.40059(14) 0.2037(3) 0.61350(15)
C20 C 0.42025(14) 0.4540(3) 0.50772(16)
H8 H 0.404315 0.450030 0.529440
C21 C 0.22060(13) 0.5611(2) 0.16068(13)
H9 H 0.238936 0.595901 0.180869
C23 C 0.41672(15) 0.5299(3) 0.47964(19)
H11 H 0.397508 0.575668 0.482674
C24 C 0.35637(16) 0.6099(2) 0.32570(15)
H12 H 0.355203 0.674206 0.327349
C25 C 0.27377(17) 0.0363(3) 0.1826(2)
H13 H 0.257106 0.001843 0.160818
C26 C 0.26862(16) 0.1312(3) 0.18296(18)
H14 H 0.248388 0.159649 0.162182
C27 C 0.51601(15) 0.0144(3) 0.57675(16)
H15 H 0.498212 0.007206 0.596536
C28 C 0.19467(14) 0.4169(2) 0.13044(14)
H16 H 0.195157 0.352488 0.129560
C29 C 0.36222(18) 0.2445(3) 0.60623(18)
H17 H 0.354282 0.283605 0.582318
C30 C 0.35701(15) 0.4239(2) 0.32240(16)
H18 H 0.357022 0.359410 0.322987
C31 C 0.32163(18) 0.1375(2) 0.24456(17)
H19 H 0.338829 0.169574 0.266831
C32 C 0.3360(2) 0.2277(3) 0.6340(2)
H20 H 0.309709 0.254382 0.628269
C33 C 0.38169(17) 0.4732(3) 0.35486(17)
H21 H 0.399012 0.440590 0.376846
C34 C 0.3242(2) 0.0429(3) 0.24191(18)
H22 H 0.343587 0.012405 0.262863
C35 C 0.3832(2) 0.1363(5) 0.6775(2)
H23 H 0.390628 0.099068 0.702195
C36 C 0.4118(2) 0.1499(4) 0.6502(2)
H24 H 0.438039 0.123076 0.656764
N13 N 0.07265(11) 0.5424(2) 0.04683(12)
N14 N 0.30113(13) 0.0069(2) 0.71164(14)
C5_2 C 0.01279(12) 0.4093(2) 0.04809(13)
C10_2 C 0.03842(13) 0.4028(2) 0.01901(13)
C12_2 C 0.06793(12) 0.4713(2) 0.01859(13)
C22 C 0.04707(18) 0.5496(3) 0.07407(18)
H10 H 0.049751 0.600509 0.092778
C27_2 C 0.01601(15) 0.4856(3) 0.07675(16)
Cl3 Cl 0.14575(5) 0.62434(12) 0.99260(5)
N8 N 0.57265(11) 0.9576(2) 0.54683(12)
N11 N 0.30113(13) 0.9931(2) 0.21164(14)
C22_2 C 0.54707(18) 0.9504(3) 0.57407(18)
H10_2 H 0.549751 0.899491 0.592778
Zn4 Zn 0.62272(2) 0.87056(3) 0.55433(2)
Zn5 Zn 0.30325(10) 0.85131(6) 0.20811(10)
Cl5_2 Cl 0.24281(12) 0.79668(17) 0.17553(18)
Cl6_2 Cl 0.3338(2) 0.8123(2) 0.27501(11)
N1_2 N 0.45711(10) 0.8500(2) 0.08045(12)
N4_2 N 0.42539(10) 0.7063(2) 0.05799(11)
N7_2 N 0.47875(9) 0.76338(18) 0.02461(9)
C1_2 C 0.48104(12) 0.8363(2) 0.05100(12)
C2_2 C 0.45103(11) 0.7002(2) 0.03005(12)
C3_2 C 0.44801(11) 0.6153(2) 0.00256(12)
C5_3 C 0.51279(12) 0.9093(2) 0.04809(13)
C9_2 C 0.42904(12) 0.7829(2) 0.08229(13)
N12_2 N 0.34651(16) 0.8266(3) 0.16989(17)
C10_3 C 0.53842(13) 0.9028(2) 0.01901(13)
C12_3 C 0.56793(12) 0.9713(2) 0.01859(13)
C19_2 C 0.40059(14) 0.7963(3) 0.11350(15)
C20_2 C 0.42025(14) 0.5460(3) 0.00772(16)
H8_2 H 0.404315 0.549970 0.029440
C27_3 C 0.51601(15) 0.9856(3) 0.07675(16)
H15_2 H 0.498212 0.992794 0.096536
C29_2 C 0.36222(18) 0.7555(3) 0.10623(18)
H17_2 H 0.354282 0.716395 0.082318
C32_2 C 0.3360(2) 0.7723(3) 0.1340(2)
H20_2 H 0.309709 0.745618 0.128269
C35_2 C 0.3832(2) 0.8637(5) 0.1775(2)
H23_2 H 0.390628 0.900932 0.202195
C36_2 C 0.4118(2) 0.8501(4) 0.1502(2)
H24_2 H 0.438039 0.876924 0.156764
Zn2_2 Zn 0.92325(2) 0.86012(3) 0.90209(2)
Cl1_2 Cl 0.60768(4) 0.74213(6) 0.58679(5)
Cl2_2 Cl 0.88744(5) 0.75019(7) 0.92692(6)
Cl3_2 Cl 0.64575(5) 0.87566(12) 0.49260(5)
Cl4_2 Cl 0.97814(6) 0.83317(12) 0.87249(5)
N5_2 N 0.93897(11) 0.9598(2) 0.94921(11)
N6_2 N 0.66364(10) 0.94220(19) 0.60102(11)
N10_2 N 0.88223(11) 0.93536(19) 0.85662(11)
C14_2 C 0.69057(13) 0.8954(2) 0.63053(15)
H5_2 H 0.689042 0.831048 0.630779
C16_2 C 0.83118(15) 0.9342(2) 0.79124(14)
H6_2 H 0.813794 0.899895 0.769964
C21_2 C 0.72060(13) 0.9389(2) 0.66068(13)
H9_2 H 0.738936 0.904099 0.680869
C23_2 C 0.91672(15) 0.9701(3) 0.97964(19)
H11_2 H 0.897508 0.924332 0.982674
C24_2 C 0.85637(16) 0.8901(2) 0.82570(15)
H12_2 H 0.855203 0.825794 0.827349
Zn1_2 Zn 0.87728(2) 0.62944(3) 0.44567(2)
Zn2_3 Zn 0.57675(2) 0.63988(3) 0.09791(2)
Cl1_3 Cl 0.89232(4) 0.75787(6) 0.41321(5)
Cl2_3 Cl 0.61256(5) 0.74981(7) 0.07308(6)
Cl3_3 Cl 0.85425(5) 0.62434(12) 0.50740(5)
Cl4_3 Cl 0.52186(6) 0.66683(12) 0.12751(5)
N2_2 N 0.72284(9) 0.46632(18) 0.27513(10)
N3_2 N 0.68614(9) 0.32908(18) 0.25124(10)
N5_3 N 0.56103(11) 0.5402(2) 0.05079(11)
N6_3 N 0.83636(10) 0.55780(19) 0.39898(11)
N9_2 N 0.74026(10) 0.32579(18) 0.31300(10)
N10_3 N 0.61777(11) 0.56464(19) 0.14338(11)
C4_2 C 0.71081(12) 0.2855(2) 0.28345(12)
C6_2 C 0.52761(12) 0.3967(2) 0.02813(12)
H1_2 H 0.507796 0.352549 0.031447
C7_2 C 0.69362(11) 0.4195(2) 0.24819(12)
C8_2 C 0.66801(12) 0.4714(2) 0.21137(12)
H2_2 H 0.463669 0.146754 0.000424
C11_2 C 0.53261(12) 0.4754(2) 0.05431(13)
H3_2 H 0.515723 0.483299 0.074947
H4_2 H 0.414920 0.032169 0.002026
C13_2 C 0.74482(12) 0.4161(2) 0.30714(12)
C14_3 C 0.80943(13) 0.6046(2) 0.36947(15)
H5_3 H 0.810958 0.668952 0.369221
C15_2 C 0.70612(12) 0.1836(2) 0.28545(12)
C16_3 C 0.66882(15) 0.5658(2) 0.20876(14)
H6_3 H 0.686206 0.600105 0.230036
C17_2 C 0.77665(12) 0.4655(2) 0.33920(12)
C18_2 C 0.83434(14) 0.4660(3) 0.39819(15)
H7_2 H 0.853683 0.433062 0.418150
C21_3 C 0.77940(13) 0.5611(2) 0.33932(13)
H9_3 H 0.761064 0.595901 0.319131
C23_3 C 0.58328(15) 0.5299(3) 0.02036(19)
H11_3 H 0.602492 0.575668 0.017326
C24_3 C 0.64363(16) 0.6099(2) 0.17430(15)
H12_3 H 0.644797 0.674206 0.172651
C25_2 C 0.72623(17) 0.0363(3) 0.3174(2)
H13_2 H 0.742894 0.001843 0.339182
C26_2 C 0.73138(16) 0.1312(3) 0.31704(18)
H14_2 H 0.751612 0.159649 0.337818
C28_2 C 0.80533(14) 0.4169(2) 0.36956(14)
H16_2 H 0.804843 0.352488 0.370440
C30_2 C 0.64299(15) 0.4239(2) 0.17760(16)
H18_2 H 0.642978 0.359410 0.177013
C31_2 C 0.67837(18) 0.1375(2) 0.25544(17)
H19_2 H 0.661171 0.169574 0.233169
C33_2 C 0.61831(17) 0.4732(3) 0.14514(17)
H21_2 H 0.600988 0.440590 0.123154
C34_2 C 0.6758(2) 0.0429(3) 0.25809(18)
H22_2 H 0.656413 0.012405 0.237137
N13_2 N 0.92735(11) 0.5424(2) 0.45317(12)
C5_4 C 0.98721(12) 0.4093(2) 0.45191(13)
C10_4 C 0.96158(13) 0.4028(2) 0.48099(13)
H2_3 H 0.963669 0.353246 0.500424
C12_4 C 0.93207(12) 0.4713(2) 0.48141(13)
H4_3 H 0.914920 0.467831 0.502026
C22_3 C 0.95293(18) 0.5496(3) 0.42593(18)
H10_3 H 0.950249 0.600509 0.407222
C27_4 C 0.98399(15) 0.4856(3) 0.42325(16)
Zn3_2 Zn 0.69675(10) 0.14869(6) 0.79189(10)
Cl5_3 Cl 0.75719(12) 0.20332(17) 0.82447(18)
Cl6_3 Cl 0.6662(2) 0.1877(2) 0.72499(11)
N1_3 N 0.54289(10) 0.1500(2) 0.91955(12)
N4_3 N 0.57461(10) 0.2937(2) 0.94201(11)
N7_3 N 0.52125(9) 0.23662(18) 0.97539(9)
C1_3 C 0.51896(12) 0.1637(2) 0.94900(12)
C2_3 C 0.54897(11) 0.2998(2) 0.96995(12)
C3_3 C 0.55199(11) 0.3847(2) 0.99744(12)
C5_5 C 0.48721(12) 0.0907(2) 0.95191(13)
C9_3 C 0.57096(12) 0.2171(2) 0.91771(13)
N12_3 N 0.65349(16) 0.1734(3) 0.83011(17)
C10_5 C 0.46158(13) 0.0972(2) 0.98099(13)
C12_5 C 0.43207(12) 0.0287(2) 0.98141(13)
C19_3 C 0.59941(14) 0.2037(3) 0.88650(15)
C20_3 C 0.57975(14) 0.4540(3) 0.99228(16)
H8_3 H 0.595685 0.450030 0.970560
C27_5 C 0.48399(15) 0.0144(3) 0.92325(16)
H15_3 H 0.501788 0.007206 0.903464
C29_3 C 0.63778(18) 0.2445(3) 0.89377(18)
H17_3 H 0.645718 0.283605 0.917682
C32_3 C 0.6640(2) 0.2277(3) 0.8660(2)
H20_3 H 0.690291 0.254382 0.871731
C35_3 C 0.6168(2) 0.1363(5) 0.8225(2)
H23_3 H 0.609372 0.099068 0.797805
C36_3 C 0.5882(2) 0.1499(4) 0.8498(2)
H24_3 H 0.561961 0.123076 0.843236
N14_2 N 0.69887(13) 0.0069(2) 0.78836(14)
Zn1_3 Zn 0.37728(2) 0.12944(3) 0.44567(2)
Zn2_4 Zn 0.07675(2) 0.13988(3) 0.09791(2)
Cl1_4 Cl 0.39232(4) 0.25787(6) 0.41321(5)
Cl2_4 Cl 0.11256(5) 0.24981(7) 0.07308(6)
Cl3_4 Cl 0.35425(5) 0.12434(12) 0.50740(5)
Cl4_4 Cl 0.02186(6) 0.16683(12) 0.12751(5)
N5_4 N 0.06103(11) 0.0402(2) 0.05079(11)
N6_4 N 0.33636(10) 0.05780(19) 0.39898(11)
N10_4 N 0.11777(11) 0.06464(19) 0.14338(11)
C14_4 C 0.30943(13) 0.1046(2) 0.36947(15)
H5_4 H 0.310958 0.168952 0.369221
C16_4 C 0.16882(15) 0.0658(2) 0.20876(14)
H6_4 H 0.186206 0.100105 0.230036
C21_4 C 0.27940(13) 0.0611(2) 0.33932(13)
H9_4 H 0.261064 0.095901 0.319131
C23_4 C 0.08328(15) 0.0299(3) 0.02036(19)
H11_4 H 0.102492 0.075668 0.017326
C24_4 C 0.14363(16) 0.1099(2) 0.17430(15)
H12_4 H 0.144797 0.174206 0.172651
N13_3 N 0.42735(11) 0.0424(2) 0.45317(12)
C22_4 C 0.45293(18) 0.0496(3) 0.42593(18)
H10_4 H 0.450249 0.100509 0.407222
N11_2 N 0.69887(13) 0.9931(2) 0.28836(14)
Zn5_2 Zn 0.69675(10) 0.85131(6) 0.29189(10)
N8_2 N 0.92735(11) 0.4576(2) 0.95317(12)
C5_6 C 0.98721(12) 0.5907(2) 0.95191(13)
C10_6 C 0.96158(13) 0.5972(2) 0.98099(13)
C12_6 C 0.93207(12) 0.5287(2) 0.98141(13)
C22_5 C 0.95293(18) 0.4504(3) 0.92593(18)
H10_5 H 0.950249 0.399491 0.907222
C27_6 C 0.98399(15) 0.5144(3) 0.92325(16)
Zn4_2 Zn 0.87728(2) 0.37056(3) 0.94567(2)
Zn2_5 Zn 0.57675(2) 0.36012(3) 0.59791(2)
Cl1_5 Cl 0.89232(4) 0.24213(6) 0.91321(5)
Cl2_5 Cl 0.61256(5) 0.25019(7) 0.57308(6)
Cl4_5 Cl 0.52186(6) 0.33317(12) 0.62751(5)
Cl5_4 Cl 0.75719(12) 0.79668(17) 0.32447(18)
Cl6_4 Cl 0.6662(2) 0.8123(2) 0.22499(11)
N1_4 N 0.54289(10) 0.8500(2) 0.41955(12)
N2_3 N 0.72284(9) 0.53368(18) 0.77513(10)
N3_3 N 0.68614(9) 0.67092(18) 0.75124(10)
N4_4 N 0.57461(10) 0.7063(2) 0.44201(11)
N5_5 N 0.56103(11) 0.4598(2) 0.55079(11)
N6_5 N 0.83636(10) 0.44220(19) 0.89898(11)
N7_4 N 0.52125(9) 0.76338(18) 0.47539(9)
N9_3 N 0.74026(10) 0.67421(18) 0.81300(10)
N10_5 N 0.61777(11) 0.43536(19) 0.64338(11)
C1_4 C 0.51896(12) 0.8363(2) 0.44900(12)
C2_4 C 0.54897(11) 0.7002(2) 0.46995(12)
C3_4 C 0.55199(11) 0.6153(2) 0.49744(12)
C4_3 C 0.71081(12) 0.7145(2) 0.78345(12)
C5_7 C 0.48721(12) 0.9093(2) 0.45191(13)
C6_3 C 0.52761(12) 0.6033(2) 0.52813(12)
H1_3 H 0.507796 0.647451 0.531447
C7_3 C 0.69362(11) 0.5805(2) 0.74819(12)
C8_3 C 0.66801(12) 0.5286(2) 0.71137(12)
C9_4 C 0.57096(12) 0.7829(2) 0.41771(13)
N12_4 N 0.65349(16) 0.8266(3) 0.33011(17)
C10_7 C 0.46158(13) 0.9028(2) 0.48099(13)
H2_4 H 0.463669 0.853246 0.500424
C11_3 C 0.53261(12) 0.5246(2) 0.55431(13)
H3_3 H 0.515723 0.516701 0.574947
C12_7 C 0.43207(12) 0.9713(2) 0.48141(13)
H4_4 H 0.414920 0.967831 0.502026
C13_3 C 0.74482(12) 0.5839(2) 0.80714(12)
C14_5 C 0.80943(13) 0.3954(2) 0.86947(15)
H5_5 H 0.810958 0.331048 0.869221
C15_3 C 0.70612(12) 0.8164(2) 0.78545(12)
C16_5 C 0.66882(15) 0.4342(2) 0.70876(14)
H6_5 H 0.686206 0.399895 0.730036
C17_3 C 0.77665(12) 0.5345(2) 0.83920(12)
C18_3 C 0.83434(14) 0.5340(3) 0.89819(15)
H7_3 H 0.853683 0.566938 0.918150
C19_4 C 0.59941(14) 0.7963(3) 0.38650(15)
C20_4 C 0.57975(14) 0.5460(3) 0.49228(16)
H8_4 H 0.595685 0.549970 0.470560
C21_5 C 0.77940(13) 0.4389(2) 0.83932(13)
H9_5 H 0.761064 0.404099 0.819131
C23_5 C 0.58328(15) 0.4701(3) 0.52036(19)
H11_5 H 0.602492 0.424332 0.517326
C24_5 C 0.64363(16) 0.3901(2) 0.67430(15)
H12_5 H 0.644797 0.325794 0.672651
C25_3 C 0.72623(17) 0.9637(3) 0.8174(2)
H13_3 H 0.742894 0.998157 0.839182
C26_3 C 0.73138(16) 0.8688(3) 0.81704(18)
H14_3 H 0.751612 0.840351 0.837818
C27_7 C 0.48399(15) 0.9856(3) 0.42325(16)
H15_4 H 0.501788 0.992794 0.403464
C28_3 C 0.80533(14) 0.5831(2) 0.86956(14)
H16_3 H 0.804843 0.647512 0.870440
C29_4 C 0.63778(18) 0.7555(3) 0.39377(18)
H17_4 H 0.645718 0.716395 0.417682
C30_3 C 0.64299(15) 0.5761(2) 0.67760(16)
H18_3 H 0.642978 0.640590 0.677013
C31_3 C 0.67837(18) 0.8625(2) 0.75544(17)
H19_3 H 0.661171 0.830426 0.733169
C32_4 C 0.6640(2) 0.7723(3) 0.3660(2)
H20_4 H 0.690291 0.745618 0.371731
C33_3 C 0.61831(17) 0.5268(3) 0.64514(17)
H21_3 H 0.600988 0.559410 0.623154
C34_3 C 0.6758(2) 0.9571(3) 0.75809(18)
H22_3 H 0.656413 0.987595 0.737137
C35_4 C 0.6168(2) 0.8637(5) 0.3225(2)
H23_4 H 0.609372 0.900932 0.297805
C36_4 C 0.5882(2) 0.8501(4) 0.3498(2)
H24_4 H 0.561961 0.876924 0.343236
N8_3 N 0.42735(11) 0.9576(2) 0.95317(12)
C22_6 C 0.45293(18) 0.9504(3) 0.92593(18)
H10_6 H 0.450249 0.899491 0.907222
Zn4_3 Zn 0.37728(2) 0.87056(3) 0.94567(2)
Zn2_6 Zn 0.07675(2) 0.86012(3) 0.59791(2)
Cl1_6 Cl 0.39232(4) 0.74213(6) 0.91321(5)
Cl2_6 Cl 0.11256(5) 0.75019(7) 0.57308(6)
Cl4_6 Cl 0.02186(6) 0.83317(12) 0.62751(5)
N5_6 N 0.06103(11) 0.9598(2) 0.55079(11)
N6_6 N 0.33636(10) 0.94220(19) 0.89898(11)
N10_6 N 0.11777(11) 0.93536(19) 0.64338(11)
C14_6 C 0.30943(13) 0.8954(2) 0.86947(15)
H5_6 H 0.310958 0.831048 0.869221
C16_6 C 0.16882(15) 0.9342(2) 0.70876(14)
H6_6 H 0.186206 0.899895 0.730036
C21_6 C 0.27940(13) 0.9389(2) 0.83932(13)
H9_6 H 0.261064 0.904099 0.819131
C23_6 C 0.08328(15) 0.9701(3) 0.52036(19)
H11_6 H 0.102492 0.924332 0.517326
C24_6 C 0.14363(16) 0.8901(2) 0.67430(15)
H12_6 H 0.144797 0.825794 0.672651
N8_4 N 0.07265(11) 0.4576(2) 0.54683(12)
C5_8 C 0.01279(12) 0.5907(2) 0.54809(13)
C10_8 C 0.03842(13) 0.5972(2) 0.51901(13)
H2_5 H 0.036331 0.646754 0.499576
C12_8 C 0.06793(12) 0.5287(2) 0.51859(13)
H4_5 H 0.085080 0.532169 0.497974
C22_7 C 0.04707(18) 0.4504(3) 0.57407(18)
H10_7 H 0.049751 0.399491 0.592778
C27_8 C 0.01601(15) 0.5144(3) 0.57675(16)
Zn4_4 Zn 0.12272(2) 0.37056(3) 0.55433(2)
Zn2_7 Zn 0.42325(2) 0.36012(3) 0.90209(2)
Cl1_7 Cl 0.10768(4) 0.24213(6) 0.58679(5)
Cl2_7 Cl 0.38744(5) 0.25019(7) 0.92692(6)
Cl3_5 Cl 0.14575(5) 0.37566(12) 0.49260(5)
Cl4_7 Cl 0.47814(6) 0.33317(12) 0.87249(5)
N2_4 N 0.27716(9) 0.53368(18) 0.72487(10)
N3_4 N 0.31386(9) 0.67092(18) 0.74876(10)
N5_7 N 0.43897(11) 0.4598(2) 0.94921(11)
N6_7 N 0.16364(10) 0.44220(19) 0.60102(11)
N9_4 N 0.25974(10) 0.67421(18) 0.68700(10)
N10_7 N 0.38223(11) 0.43536(19) 0.85662(11)
C4_4 C 0.28919(12) 0.7145(2) 0.71655(12)
C6_4 C 0.47239(12) 0.6033(2) 0.97187(12)
H1_4 H 0.492204 0.647451 0.968553
C7_4 C 0.30638(11) 0.5805(2) 0.75181(12)
C8_4 C 0.33199(12) 0.5286(2) 0.78863(12)
H2_6 H 0.536331 0.853246 0.999576
C11_4 C 0.46739(12) 0.5246(2) 0.94569(13)
H3_4 H 0.484277 0.516701 0.925053
H4_6 H 0.585080 0.967831 0.997974
C13_4 C 0.25518(12) 0.5839(2) 0.69286(12)
C14_7 C 0.19057(13) 0.3954(2) 0.63053(15)
H5_7 H 0.189042 0.331048 0.630779
C15_4 C 0.29388(12) 0.8164(2) 0.71455(12)
C16_7 C 0.33118(15) 0.4342(2) 0.79124(14)
H6_7 H 0.313794 0.399895 0.769964
C17_4 C 0.22335(12) 0.5345(2) 0.66080(12)
C18_4 C 0.16566(14) 0.5340(3) 0.60181(15)
H7_4 H 0.146317 0.566938 0.581850
C21_7 C 0.22060(13) 0.4389(2) 0.66068(13)
H9_7 H 0.238936 0.404099 0.680869
C23_7 C 0.41672(15) 0.4701(3) 0.97964(19)
H11_7 H 0.397508 0.424332 0.982674
C24_7 C 0.35637(16) 0.3901(2) 0.82570(15)
H12_7 H 0.355203 0.325794 0.827349
C25_4 C 0.27377(17) 0.9637(3) 0.6826(2)
H13_4 H 0.257106 0.998157 0.660818
C26_4 C 0.26862(16) 0.8688(3) 0.68296(18)
H14_4 H 0.248388 0.840351 0.662182
C28_4 C 0.19467(14) 0.5831(2) 0.63044(14)
H16_4 H 0.195157 0.647512 0.629560
C30_4 C 0.35701(15) 0.5761(2) 0.82240(16)
H18_4 H 0.357022 0.640590 0.822987
C31_4 C 0.32163(18) 0.8625(2) 0.74456(17)
H19_4 H 0.338829 0.830426 0.766831
C33_4 C 0.38169(17) 0.5268(3) 0.85486(17)
H21_4 H 0.399012 0.559410 0.876846
C34_4 C 0.3242(2) 0.9571(3) 0.74191(18)
H22_4 H 0.343587 0.987595 0.762863
Zn1_4 Zn 0.62272(2) 0.12944(3) 0.05433(2)
Zn2_8 Zn 0.92325(2) 0.13988(3) 0.40209(2)
Cl1_8 Cl 0.60768(4) 0.25787(6) 0.08679(5)
Cl2_8 Cl 0.88744(5) 0.24981(7) 0.42692(6)
Cl4_8 Cl 0.97814(6) 0.16683(12) 0.37249(5)
N5_8 N 0.93897(11) 0.0402(2) 0.44921(11)
N6_8 N 0.66364(10) 0.05780(19) 0.10102(11)
N10_8 N 0.88223(11) 0.06464(19) 0.35662(11)
C14_8 C 0.69057(13) 0.1046(2) 0.13053(15)
H5_8 H 0.689042 0.168952 0.130779
C16_8 C 0.83118(15) 0.0658(2) 0.29124(14)
H6_8 H 0.813794 0.100105 0.269964
C21_8 C 0.72060(13) 0.0611(2) 0.16068(13)
H9_8 H 0.738936 0.095901 0.180869
C23_8 C 0.91672(15) 0.0299(3) 0.47964(19)
H11_8 H 0.897508 0.075668 0.482674
C24_8 C 0.85637(16) 0.1099(2) 0.32570(15)
H12_8 H 0.855203 0.174206 0.327349
N13_4 N 0.57265(11) 0.0424(2) 0.04683(12)
C22_8 C 0.54707(18) 0.0496(3) 0.07407(18)
H10_8 H 0.549751 0.100509 0.092778
Cl3_6 Cl 0.64575(5) 0.12434(12) 0.99260(5)
Zn3_3 Zn 0.80325(10) 0.64869(6) 0.70811(10)
Cl5_5 Cl 0.74281(12) 0.70332(17) 0.67553(18)
Cl6_5 Cl 0.8338(2) 0.6877(2) 0.77501(11)
N1_5 N 0.95711(10) 0.6500(2) 0.58045(12)
N2_5 N 0.77716(9) 0.96632(18) 0.22487(10)
N3_5 N 0.81386(9) 0.82908(18) 0.24876(10)
N4_5 N 0.92539(10) 0.7937(2) 0.55799(11)
N7_5 N 0.97875(9) 0.73662(18) 0.52461(9)
N9_5 N 0.75974(10) 0.82579(18) 0.18700(10)
C1_5 C 0.98104(12) 0.6637(2) 0.55100(12)
C2_5 C 0.95103(11) 0.7998(2) 0.53005(12)
C3_5 C 0.94801(11) 0.8847(2) 0.50256(12)
N11_3 N 0.80113(13) 0.4931(2) 0.21164(14)
C4_5 C 0.78919(12) 0.7855(2) 0.21655(12)
C6_5 C 0.97239(12) 0.8967(2) 0.47187(12)
H1_5 H 0.992204 0.852549 0.468553
C7_5 C 0.80638(11) 0.9195(2) 0.25181(12)
C8_5 C 0.83199(12) 0.9714(2) 0.28863(12)
C9_5 C 0.92904(12) 0.7171(2) 0.58229(13)
N12_5 N 0.84651(16) 0.6734(3) 0.66989(17)
C11_5 C 0.96739(12) 0.9754(2) 0.44569(13)
H3_5 H 0.984277 0.983299 0.425053
C13_5 C 0.75518(12) 0.9161(2) 0.19286(12)
C15_5 C 0.79388(12) 0.6836(2) 0.21455(12)
C17_5 C 0.72335(12) 0.9655(2) 0.16080(12)
C18_5 C 0.66566(14) 0.9660(3) 0.10181(15)
H7_5 H 0.646317 0.933062 0.081850
C19_5 C 0.90059(14) 0.7037(3) 0.61350(15)
C20_5 C 0.92025(14) 0.9540(3) 0.50772(16)
H8_5 H 0.904315 0.950030 0.529440
C25_5 C 0.77377(17) 0.5363(3) 0.1826(2)
H13_5 H 0.757106 0.501843 0.160818
C26_5 C 0.76862(16) 0.6312(3) 0.18296(18)
H14_5 H 0.748388 0.659649 0.162182
H15_5 H 0.998212 0.507206 0.596536
C28_5 C 0.69467(14) 0.9169(2) 0.13044(14)
H16_5 H 0.695157 0.852488 0.129560
C29_5 C 0.86222(18) 0.7445(3) 0.60623(18)
H17_5 H 0.854282 0.783605 0.582318
C30_5 C 0.85701(15) 0.9239(2) 0.32240(16)
H18_5 H 0.857022 0.859410 0.322987
C31_5 C 0.82163(18) 0.6375(2) 0.24456(17)
H19_5 H 0.838829 0.669574 0.266831
C32_5 C 0.8360(2) 0.7277(3) 0.6340(2)
H20_5 H 0.809709 0.754382 0.628269
C33_5 C 0.88169(17) 0.9732(3) 0.35486(17)
H21_5 H 0.899012 0.940590 0.376846
C34_5 C 0.8242(2) 0.5429(3) 0.24191(18)
H22_5 H 0.843587 0.512405 0.262863
C35_5 C 0.8832(2) 0.6363(5) 0.6775(2)
H23_5 H 0.890628 0.599068 0.702195
C36_5 C 0.9118(2) 0.6499(4) 0.6502(2)
H24_5 H 0.938039 0.623076 0.656764
Zn5_3 Zn 0.80325(10) 0.35131(6) 0.20811(10)
N14_3 N 0.80113(13) 0.5069(2) 0.71164(14)
Cl5_6 Cl 0.74281(12) 0.29668(17) 0.17553(18)
Cl6_6 Cl 0.8338(2) 0.3123(2) 0.27501(11)
N1_6 N 0.95711(10) 0.3500(2) 0.08045(12)
N4_6 N 0.92539(10) 0.2063(2) 0.05799(11)
N7_6 N 0.97875(9) 0.26338(18) 0.02461(9)
C1_6 C 0.98104(12) 0.3363(2) 0.05100(12)
C2_6 C 0.95103(11) 0.2002(2) 0.03005(12)
C3_6 C 0.94801(11) 0.1153(2) 0.00256(12)
C9_6 C 0.92904(12) 0.2829(2) 0.08229(13)
N12_6 N 0.84651(16) 0.3266(3) 0.16989(17)
C19_6 C 0.90059(14) 0.2963(3) 0.11350(15)
C20_6 C 0.92025(14) 0.0460(3) 0.00772(16)
H8_6 H 0.904315 0.049970 0.029440
H15_6 H 0.998212 0.492794 0.096536
C29_6 C 0.86222(18) 0.2555(3) 0.10623(18)
H17_6 H 0.854282 0.216395 0.082318
C32_6 C 0.8360(2) 0.2723(3) 0.1340(2)
H20_6 H 0.809709 0.245618 0.128269
C35_6 C 0.8832(2) 0.3637(5) 0.1775(2)
H23_6 H 0.890628 0.400932 0.202195
C36_6 C 0.9118(2) 0.3501(4) 0.1502(2)
H24_6 H 0.938039 0.376924 0.156764
N2_6 N 0.77716(9) 0.03368(18) 0.72487(10)
N3_6 N 0.81386(9) 0.17092(18) 0.74876(10)
N9_6 N 0.75974(10) 0.17421(18) 0.68700(10)
C4_6 C 0.78919(12) 0.2145(2) 0.71655(12)
C6_6 C 0.97239(12) 0.1033(2) 0.97187(12)
H1_6 H 0.992204 0.147451 0.968553
C7_6 C 0.80638(11) 0.0805(2) 0.75181(12)
C8_6 C 0.83199(12) 0.0286(2) 0.78863(12)
C11_6 C 0.96739(12) 0.0246(2) 0.94569(13)
H3_6 H 0.984277 0.016701 0.925053
C13_6 C 0.75518(12) 0.0839(2) 0.69286(12)
C15_6 C 0.79388(12) 0.3164(2) 0.71455(12)
C17_6 C 0.72335(12) 0.0345(2) 0.66080(12)
C18_6 C 0.66566(14) 0.0340(3) 0.60181(15)
H7_6 H 0.646317 0.066938 0.581850
C25_6 C 0.77377(17) 0.4637(3) 0.6826(2)
H13_6 H 0.757106 0.498157 0.660818
C26_6 C 0.76862(16) 0.3688(3) 0.68296(18)
H14_6 H 0.748388 0.340351 0.662182
C28_6 C 0.69467(14) 0.0831(2) 0.63044(14)
H16_6 H 0.695157 0.147512 0.629560
C30_6 C 0.85701(15) 0.0761(2) 0.82240(16)
H18_6 H 0.857022 0.140590 0.822987
C31_6 C 0.82163(18) 0.3625(2) 0.74456(17)
H19_6 H 0.838829 0.330426 0.766831
C33_6 C 0.88169(17) 0.0268(3) 0.85486(17)
H21_6 H 0.899012 0.059410 0.876846
C34_6 C 0.8242(2) 0.4571(3) 0.74191(18)
H22_6 H 0.843587 0.487595 0.762863
N2_7 N 0.22284(9) 0.96632(18) 0.27513(10)
N3_7 N 0.18614(9) 0.82908(18) 0.25124(10)
N9_7 N 0.24026(10) 0.82579(18) 0.31300(10)
N11_4 N 0.19887(13) 0.4931(2) 0.28836(14)
C4_7 C 0.21081(12) 0.7855(2) 0.28345(12)
C6_7 C 0.02761(12) 0.8967(2) 0.02813(12)
H1_7 H 0.007796 0.852549 0.031447
C7_7 C 0.19362(11) 0.9195(2) 0.24819(12)
C8_7 C 0.16801(12) 0.9714(2) 0.21137(12)
C11_7 C 0.03261(12) 0.9754(2) 0.05431(13)
H3_7 H 0.015723 0.983299 0.074947
C13_7 C 0.24482(12) 0.9161(2) 0.30714(12)
C15_7 C 0.20612(12) 0.6836(2) 0.28545(12)
C17_7 C 0.27665(12) 0.9655(2) 0.33920(12)
C18_7 C 0.33434(14) 0.9660(3) 0.39819(15)
H7_7 H 0.353683 0.933062 0.418150
C25_7 C 0.22623(17) 0.5363(3) 0.3174(2)
H13_7 H 0.242894 0.501843 0.339182
C26_7 C 0.23138(16) 0.6312(3) 0.31704(18)
H14_7 H 0.251612 0.659649 0.337818
C28_7 C 0.30533(14) 0.9169(2) 0.36956(14)
H16_7 H 0.304843 0.852488 0.370440
C30_7 C 0.14299(15) 0.9239(2) 0.17760(16)
H18_7 H 0.142978 0.859410 0.177013
C31_7 C 0.17837(18) 0.6375(2) 0.25544(17)
H19_7 H 0.161171 0.669574 0.233169
C33_7 C 0.11831(17) 0.9732(3) 0.14514(17)
H21_7 H 0.100988 0.940590 0.123154
C34_7 C 0.1758(2) 0.5429(3) 0.25809(18)
H22_7 H 0.156413 0.512405 0.237137
Zn5_4 Zn 0.19675(10) 0.35131(6) 0.29189(10)
Zn3_4 Zn 0.19675(10) 0.64869(6) 0.79189(10)
Cl5_7 Cl 0.25719(12) 0.70332(17) 0.82447(18)
Cl6_7 Cl 0.1662(2) 0.6877(2) 0.72499(11)
N1_7 N 0.04289(10) 0.6500(2) 0.91955(12)
N4_7 N 0.07461(10) 0.7937(2) 0.94201(11)
N7_7 N 0.02125(9) 0.73662(18) 0.97539(9)
C1_7 C 0.01896(12) 0.6637(2) 0.94900(12)
C2_7 C 0.04897(11) 0.7998(2) 0.96995(12)
C3_7 C 0.05199(11) 0.8847(2) 0.99744(12)
C9_7 C 0.07096(12) 0.7171(2) 0.91771(13)
N12_7 N 0.15349(16) 0.6734(3) 0.83011(17)
C19_7 C 0.09941(14) 0.7037(3) 0.88650(15)
C20_7 C 0.07975(14) 0.9540(3) 0.99228(16)
H8_7 H 0.095685 0.950030 0.970560
H15_7 H 0.001788 0.507206 0.903464
C29_7 C 0.13778(18) 0.7445(3) 0.89377(18)
H17_7 H 0.145718 0.783605 0.917682
C32_7 C 0.1640(2) 0.7277(3) 0.8660(2)
H20_7 H 0.190291 0.754382 0.871731
C35_7 C 0.1168(2) 0.6363(5) 0.8225(2)
H23_7 H 0.109372 0.599068 0.797805
C36_7 C 0.0882(2) 0.6499(4) 0.8498(2)
H24_7 H 0.061961 0.623076 0.843236
N14_4 N 0.19887(13) 0.5069(2) 0.78836(14)
Cl5_8 Cl 0.25719(12) 0.29668(17) 0.32447(18)
Cl6_8 Cl 0.1662(2) 0.3123(2) 0.22499(11)
N1_8 N 0.04289(10) 0.3500(2) 0.41955(12)
N2_8 N 0.22284(9) 0.03368(18) 0.77513(10)
N3_8 N 0.18614(9) 0.17092(18) 0.75124(10)
N4_8 N 0.07461(10) 0.2063(2) 0.44201(11)
N7_8 N 0.02125(9) 0.26338(18) 0.47539(9)
N9_8 N 0.24026(10) 0.17421(18) 0.81300(10)
C1_8 C 0.01896(12) 0.3363(2) 0.44900(12)
C2_8 C 0.04897(11) 0.2002(2) 0.46995(12)
C3_8 C 0.05199(11) 0.1153(2) 0.49744(12)
C4_8 C 0.21081(12) 0.2145(2) 0.78345(12)
C6_8 C 0.02761(12) 0.1033(2) 0.52813(12)
H1_8 H 0.007796 0.147451 0.531447
C7_8 C 0.19362(11) 0.0805(2) 0.74819(12)
C8_8 C 0.16801(12) 0.0286(2) 0.71137(12)
C9_8 C 0.07096(12) 0.2829(2) 0.41771(13)
N12_8 N 0.15349(16) 0.3266(3) 0.33011(17)
C11_8 C 0.03261(12) 0.0246(2) 0.55431(13)
H3_8 H 0.015723 0.016701 0.574947
C13_8 C 0.24482(12) 0.0839(2) 0.80714(12)
C15_8 C 0.20612(12) 0.3164(2) 0.78545(12)
C17_8 C 0.27665(12) 0.0345(2) 0.83920(12)
C18_8 C 0.33434(14) 0.0340(3) 0.89819(15)
H7_8 H 0.353683 0.066938 0.918150
C19_8 C 0.09941(14) 0.2963(3) 0.38650(15)
C20_8 C 0.07975(14) 0.0460(3) 0.49228(16)
H8_8 H 0.095685 0.049970 0.470560
C25_8 C 0.22623(17) 0.4637(3) 0.8174(2)
H13_8 H 0.242894 0.498157 0.839182
C26_8 C 0.23138(16) 0.3688(3) 0.81704(18)
H14_8 H 0.251612 0.340351 0.837818
H15_8 H 0.001788 0.492794 0.403464
C28_8 C 0.30533(14) 0.0831(2) 0.86956(14)
H16_8 H 0.304843 0.147512 0.870440
C29_8 C 0.13778(18) 0.2555(3) 0.39377(18)
H17_8 H 0.145718 0.216395 0.417682
C30_8 C 0.14299(15) 0.0761(2) 0.67760(16)
H18_8 H 0.142978 0.140590 0.677013
C31_8 C 0.17837(18) 0.3625(2) 0.75544(17)
H19_8 H 0.161171 0.330426 0.733169
C32_8 C 0.1640(2) 0.2723(3) 0.3660(2)
H20_8 H 0.190291 0.245618 0.371731
C33_8 C 0.11831(17) 0.0268(3) 0.64514(17)
H21_8 H 0.100988 0.059410 0.623154
C34_8 C 0.1758(2) 0.4571(3) 0.75809(18)
H22_8 H 0.156413 0.487595 0.737137
C35_8 C 0.1168(2) 0.3637(5) 0.3225(2)
H23_8 H 0.109372 0.400932 0.297805
C36_8 C 0.0882(2) 0.3501(4) 0.3498(2)
H24_8 H 0.061961 0.376924 0.343236
H2_7 H 0.963669 0.646754 0.000424
H4_7 H 0.914920 0.532169 0.002026
Cl3_7 Cl 0.85425(5) 0.37566(12) 0.00740(5)
Cl3_8 Cl 0.35425(5) 0.87566(12) 0.00740(5)
H2_8 H 0.036331 0.353246 0.999576
H4_8 H 0.085080 0.467831 0.997974
loop_
_geom_bond_atom_site_label_1
_geom_bond_atom_site_label_2
_geom_bond_site_symmetry_1
_geom_bond_site_symmetry_2
Zn1 Cl1 1_555 1_555
Zn2 Cl2 1_555 1_555
Zn3 Cl5 1_555 1_555
Cl4 Zn2 1_555 1_555
Cl6 Zn3 1_555 1_555
N1 C1 1_555 1_555
N2 C7 1_555 1_555
N3 C4 1_555 1_555
N4 C2 1_555 1_555
N5 Zn2 1_555 1_555
N6 Zn1 1_555 1_555
N7 C1 1_555 1_555
N9 C4 1_555 1_555
N10 Zn2 1_555 1_555
C1 C5 1_555 1_555
C2 N7 1_555 1_555
C3 C2 1_555 1_555
C4 C15 1_555 1_555
C5 C10 1_555 1_555
C6 C3 1_555 1_555
H1 C6 1_555 1_555
C7 N3 1_555 1_555
C8 C7 1_555 1_555
C9 N1 1_555 1_555
N12 Zn3 1_555 1_555
C10 H2 1_555 1_555
C11 N5 1_555 1_555
H3 C11 1_555 1_555
C12 C10 1_555 1_555
H4 C12 1_555 1_555
C13 N2 1_555 1_555
C14 N6 1_555 1_555
H5 C14 1_555 1_555
C15 C26 1_555 1_555
C16 C8 1_555 1_555
H6 C16 1_555 1_555
C17 C13 1_555 1_555
C18 N6 1_555 1_555
H7 C18 1_555 1_555
C19 C9 1_555 1_555
C20 C3 1_555 1_555
H8 C20 1_555 1_555
C21 C14 1_555 1_555
H9 C21 1_555 1_555
C23 N5 1_555 1_555
H11 C23 1_555 1_555
C24 N10 1_555 1_555
H12 C24 1_555 1_555
C25 H13 1_555 1_555
C26 C25 1_555 1_555
H14 C26 1_555 1_555
C27 C5 1_555 1_555
H15 C27 1_555 1_555
C28 C17 1_555 1_555
H16 C28 1_555 1_555
C29 C19 1_555 1_555
H17 C29 1_555 1_555
C30 C8 1_555 1_555
H18 C30 1_555 1_555
C31 C15 1_555 1_555
H19 C31 1_555 1_555
C32 N12 1_555 1_555
H20 C32 1_555 1_555
C33 N10 1_555 1_555
H21 C33 1_555 1_555
H22 C34 1_555 1_555
C35 N12 1_555 1_555
H23 C35 1_555 1_555
C36 C19 1_555 1_555
H24 C36 1_555 1_555
N13 Zn1 1_555 1_555
N14 Zn3 1_555 1_555
N4 C9 1_555 1_555
N9 C13 1_555 1_555
C6 C11 1_555 1_555
C16 C24 1_555 1_555
C17 C21 1_555 1_555
C18 C28 1_555 1_555
C20 C23 1_555 1_555
C29 C32 1_555 1_555
C30 C33 1_555 1_555
C31 C34 1_555 1_555
C35 C36 1_555 1_555
N13 C12_2 1_555 1_555
C5_2 C10_2 1_555 1_555
C12_2 C10_2 1_555 1_555
C22 N13 1_555 1_555
H10 C22 1_555 1_555
C27_2 C5_2 1_555 1_555
C22 C27_2 1_555 1_555
C22_2 N8 1_555 1_555
H10_2 C22_2 1_555 1_555
Zn4 N8 1_555 1_555
Zn5 N11 1_555 1_555
Zn5 Cl5_2 1_555 1_555
Cl6_2 Zn5 1_555 1_555
N1_2 C1_2 1_555 1_555
N4_2 C2_2 1_555 1_555
N7_2 C1_2 1_555 1_555
C1_2 C5_3 1_555 1_555
C2_2 N7_2 1_555 1_555
C3_2 C2_2 1_555 1_555
C5_3 C10_3 1_555 1_555
C9_2 N1_2 1_555 1_555
N12_2 Zn5 1_555 1_555
C12_3 C10_3 1_555 1_555
C19_2 C9_2 1_555 1_555
C20_2 C3_2 1_555 1_555
H8_2 C20_2 1_555 1_555
C27_3 C5_3 1_555 1_555
H15_2 C27_3 1_555 1_555
C29_2 C19_2 1_555 1_555
H17_2 C29_2 1_555 1_555
C32_2 N12_2 1_555 1_555
H20_2 C32_2 1_555 1_555
C35_2 N12_2 1_555 1_555
H23_2 C35_2 1_555 1_555
C36_2 C19_2 1_555 1_555
H24_2 C36_2 1_555 1_555
N4_2 C9_2 1_555 1_555
C29_2 C32_2 1_555 1_555
C35_2 C36_2 1_555 1_555
Zn4 Cl1_2 1_555 1_555
Zn2_2 Cl2_2 1_555 1_555
Cl3_2 Zn4 1_555 1_555
Cl4_2 Zn2_2 1_555 1_555
N5_2 Zn2_2 1_555 1_555
N6_2 Zn4 1_555 1_555
N10_2 Zn2_2 1_555 1_555
C14_2 N6_2 1_555 1_555
H5_2 C14_2 1_555 1_555
H6_2 C16_2 1_555 1_555
C21_2 C14_2 1_555 1_555
H9_2 C21_2 1_555 1_555
C23_2 N5_2 1_555 1_555
H11_2 C23_2 1_555 1_555
C24_2 N10_2 1_555 1_555
H12_2 C24_2 1_555 1_555
C16_2 C24_2 1_555 1_555
Zn1_2 Cl1_3 1_555 1_555
Zn2_3 Cl2_3 1_555 1_555
Cl3_3 Zn1_2 1_555 1_555
Cl4_3 Zn2_3 1_555 1_555
N2_2 C7_2 1_555 1_555
N3_2 C4_2 1_555 1_555
N5_3 Zn2_3 1_555 1_555
N6_3 Zn1_2 1_555 1_555
N9_2 C4_2 1_555 1_555
N10_3 Zn2_3 1_555 1_555
C4_2 C15_2 1_555 1_555
H1_2 C6_2 1_555 1_555
C7_2 N3_2 1_555 1_555
C8_2 C7_2 1_555 1_555
C11_2 N5_3 1_555 1_555
H3_2 C11_2 1_555 1_555
C13_2 N2_2 1_555 1_555
C14_3 N6_3 1_555 1_555
H5_3 C14_3 1_555 1_555
C15_2 C26_2 1_555 1_555
C16_3 C8_2 1_555 1_555
H6_3 C16_3 1_555 1_555
C17_2 C13_2 1_555 1_555
C18_2 N6_3 1_555 1_555
H7_2 C18_2 1_555 1_555
C21_3 C14_3 1_555 1_555
H9_3 C21_3 1_555 1_555
C23_3 N5_3 1_555 1_555
H11_3 C23_3 1_555 1_555
C24_3 N10_3 1_555 1_555
H12_3 C24_3 1_555 1_555
C25_2 H13_2 1_555 1_555
C26_2 C25_2 1_555 1_555
H14_2 C26_2 1_555 1_555
C28_2 C17_2 1_555 1_555
H16_2 C28_2 1_555 1_555
C30_2 C8_2 1_555 1_555
H18_2 C30_2 1_555 1_555
C31_2 C15_2 1_555 1_555
H19_2 C31_2 1_555 1_555
C33_2 N10_3 1_555 1_555
H21_2 C33_2 1_555 1_555
H22_2 C34_2 1_555 1_555
N13_2 Zn1_2 1_555 1_555
N9_2 C13_2 1_555 1_555
C6_2 C11_2 1_555 1_555
C16_3 C24_3 1_555 1_555
C17_2 C21_3 1_555 1_555
C18_2 C28_2 1_555 1_555
C30_2 C33_2 1_555 1_555
C31_2 C34_2 1_555 1_555
N13_2 C12_4 1_555 1_555
C5_4 C10_4 1_555 1_555
C10_4 H2_3 1_555 1_555
C12_4 C10_4 1_555 1_555
H4_3 C12_4 1_555 1_555
C22_3 N13_2 1_555 1_555
H10_3 C22_3 1_555 1_555
C27_4 C5_4 1_555 1_555
C22_3 C27_4 1_555 1_555
Zn3_2 Cl5_3 1_555 1_555
Cl6_3 Zn3_2 1_555 1_555
N1_3 C1_3 1_555 1_555
N4_3 C2_3 1_555 1_555
N7_3 C1_3 1_555 1_555
C1_3 C5_5 1_555 1_555
C2_3 N7_3 1_555 1_555
C3_3 C2_3 1_555 1_555
C5_5 C10_5 1_555 1_555
C9_3 N1_3 1_555 1_555
N12_3 Zn3_2 1_555 1_555
C12_5 C10_5 1_555 1_555
C19_3 C9_3 1_555 1_555
C20_3 C3_3 1_555 1_555
H8_3 C20_3 1_555 1_555
C27_5 C5_5 1_555 1_555
H15_3 C27_5 1_555 1_555
C29_3 C19_3 1_555 1_555
H17_3 C29_3 1_555 1_555
C32_3 N12_3 1_555 1_555
H20_3 C32_3 1_555 1_555
C35_3 N12_3 1_555 1_555
H23_3 C35_3 1_555 1_555
C36_3 C19_3 1_555 1_555
H24_3 C36_3 1_555 1_555
N14_2 Zn3_2 1_555 1_555
N4_3 C9_3 1_555 1_555
C29_3 C32_3 1_555 1_555
C35_3 C36_3 1_555 1_555
Zn1_3 Cl1_4 1_555 1_555
Zn2_4 Cl2_4 1_555 1_555
Cl3_4 Zn1_3 1_555 1_555
Cl4_4 Zn2_4 1_555 1_555
N5_4 Zn2_4 1_555 1_555
N6_4 Zn1_3 1_555 1_555
N10_4 Zn2_4 1_555 1_555
C14_4 N6_4 1_555 1_555
H5_4 C14_4 1_555 1_555
H6_4 C16_4 1_555 1_555
C21_4 C14_4 1_555 1_555
H9_4 C21_4 1_555 1_555
C23_4 N5_4 1_555 1_555
H11_4 C23_4 1_555 1_555
C24_4 N10_4 1_555 1_555
H12_4 C24_4 1_555 1_555
N13_3 Zn1_3 1_555 1_555
C16_4 C24_4 1_555 1_555
C22_4 N13_3 1_555 1_555
H10_4 C22_4 1_555 1_555
Zn5_2 N11_2 1_555 1_555
N8_2 C12_6 1_555 1_555
C5_6 C10_6 1_555 1_555
C12_6 C10_6 1_555 1_555
C22_5 N8_2 1_555 1_555
H10_5 C22_5 1_555 1_555
C27_6 C5_6 1_555 1_555
Zn4_2 N8_2 1_555 1_555
C22_5 C27_6 1_555 1_555
Zn4_2 Cl1_5 1_555 1_555
Zn2_5 Cl2_5 1_555 1_555
Zn5_2 Cl5_4 1_555 1_555
Cl4_5 Zn2_5 1_555 1_555
Cl6_4 Zn5_2 1_555 1_555
N1_4 C1_4 1_555 1_555
N2_3 C7_3 1_555 1_555
N3_3 C4_3 1_555 1_555
N4_4 C2_4 1_555 1_555
N5_5 Zn2_5 1_555 1_555
N6_5 Zn4_2 1_555 1_555
N7_4 C1_4 1_555 1_555
N9_3 C4_3 1_555 1_555
N10_5 Zn2_5 1_555 1_555
C1_4 C5_7 1_555 1_555
C2_4 N7_4 1_555 1_555
C3_4 C2_4 1_555 1_555
C4_3 C15_3 1_555 1_555
C5_7 C10_7 1_555 1_555
C6_3 C3_4 1_555 1_555
H1_3 C6_3 1_555 1_555
C7_3 N3_3 1_555 1_555
C8_3 C7_3 1_555 1_555
C9_4 N1_4 1_555 1_555
N12_4 Zn5_2 1_555 1_555
C10_7 H2_4 1_555 1_555
C11_3 N5_5 1_555 1_555
H3_3 C11_3 1_555 1_555
C12_7 C10_7 1_555 1_555
H4_4 C12_7 1_555 1_555
C13_3 N2_3 1_555 1_555
C14_5 N6_5 1_555 1_555
H5_5 C14_5 1_555 1_555
C15_3 C26_3 1_555 1_555
C16_5 C8_3 1_555 1_555
H6_5 C16_5 1_555 1_555
C17_3 C13_3 1_555 1_555
C18_3 N6_5 1_555 1_555
H7_3 C18_3 1_555 1_555
C19_4 C9_4 1_555 1_555
C20_4 C3_4 1_555 1_555
H8_4 C20_4 1_555 1_555
C21_5 C14_5 1_555 1_555
H9_5 C21_5 1_555 1_555
C23_5 N5_5 1_555 1_555
H11_5 C23_5 1_555 1_555
C24_5 N10_5 1_555 1_555
H12_5 C24_5 1_555 1_555
C25_3 H13_3 1_555 1_555
C26_3 C25_3 1_555 1_555
H14_3 C26_3 1_555 1_555
C27_7 C5_7 1_555 1_555
H15_4 C27_7 1_555 1_555
C28_3 C17_3 1_555 1_555
H16_3 C28_3 1_555 1_555
C29_4 C19_4 1_555 1_555
H17_4 C29_4 1_555 1_555
C30_3 C8_3 1_555 1_555
H18_3 C30_3 1_555 1_555
C31_3 C15_3 1_555 1_555
H19_3 C31_3 1_555 1_555
C32_4 N12_4 1_555 1_555
H20_4 C32_4 1_555 1_555
C33_3 N10_5 1_555 1_555
H21_3 C33_3 1_555 1_555
H22_3 C34_3 1_555 1_555
C35_4 N12_4 1_555 1_555
H23_4 C35_4 1_555 1_555
C36_4 C19_4 1_555 1_555
H24_4 C36_4 1_555 1_555
N4_4 C9_4 1_555 1_555
N9_3 C13_3 1_555 1_555
C6_3 C11_3 1_555 1_555
C16_5 C24_5 1_555 1_555
C17_3 C21_5 1_555 1_555
C18_3 C28_3 1_555 1_555
C20_4 C23_5 1_555 1_555
C29_4 C32_4 1_555 1_555
C30_3 C33_3 1_555 1_555
C31_3 C34_3 1_555 1_555
C35_4 C36_4 1_555 1_555
C22_6 N8_3 1_555 1_555
H10_6 C22_6 1_555 1_555
Zn4_3 N8_3 1_555 1_555
Zn4_3 Cl1_6 1_555 1_555
Zn2_6 Cl2_6 1_555 1_555
Cl4_6 Zn2_6 1_555 1_555
N5_6 Zn2_6 1_555 1_555
N6_6 Zn4_3 1_555 1_555
N10_6 Zn2_6 1_555 1_555
C14_6 N6_6 1_555 1_555
H5_6 C14_6 1_555 1_555
H6_6 C16_6 1_555 1_555
C21_6 C14_6 1_555 1_555
H9_6 C21_6 1_555 1_555
C23_6 N5_6 1_555 1_555
H11_6 C23_6 1_555 1_555
C24_6 N10_6 1_555 1_555
H12_6 C24_6 1_555 1_555
C16_6 C24_6 1_555 1_555
N8_4 C12_8 1_555 1_555
C5_8 C10_8 1_555 1_555
C10_8 H2_5 1_555 1_555
C12_8 C10_8 1_555 1_555
H4_5 C12_8 1_555 1_555
C22_7 N8_4 1_555 1_555
H10_7 C22_7 1_555 1_555
C27_8 C5_8 1_555 1_555
Zn4_4 N8_4 1_555 1_555
C22_7 C27_8 1_555 1_555
Zn4_4 Cl1_7 1_555 1_555
Zn2_7 Cl2_7 1_555 1_555
Cl3_5 Zn4_4 1_555 1_555
Cl4_7 Zn2_7 1_555 1_555
N2_4 C7_4 1_555 1_555
N3_4 C4_4 1_555 1_555
N5_7 Zn2_7 1_555 1_555
N6_7 Zn4_4 1_555 1_555
N9_4 C4_4 1_555 1_555
N10_7 Zn2_7 1_555 1_555
C4_4 C15_4 1_555 1_555
H1_4 C6_4 1_555 1_555
C7_4 N3_4 1_555 1_555
C8_4 C7_4 1_555 1_555
C11_4 N5_7 1_555 1_555
H3_4 C11_4 1_555 1_555
C13_4 N2_4 1_555 1_555
C14_7 N6_7 1_555 1_555
H5_7 C14_7 1_555 1_555
C15_4 C26_4 1_555 1_555
C16_7 C8_4 1_555 1_555
H6_7 C16_7 1_555 1_555
C17_4 C13_4 1_555 1_555
C18_4 N6_7 1_555 1_555
H7_4 C18_4 1_555 1_555
C21_7 C14_7 1_555 1_555
H9_7 C21_7 1_555 1_555
C23_7 N5_7 1_555 1_555
H11_7 C23_7 1_555 1_555
C24_7 N10_7 1_555 1_555
H12_7 C24_7 1_555 1_555
C25_4 H13_4 1_555 1_555
C26_4 C25_4 1_555 1_555
H14_4 C26_4 1_555 1_555
C28_4 C17_4 1_555 1_555
H16_4 C28_4 1_555 1_555
C30_4 C8_4 1_555 1_555
H18_4 C30_4 1_555 1_555
C31_4 C15_4 1_555 1_555
H19_4 C31_4 1_555 1_555
C33_4 N10_7 1_555 1_555
H21_4 C33_4 1_555 1_555
H22_4 C34_4 1_555 1_555
N9_4 C13_4 1_555 1_555
C6_4 C11_4 1_555 1_555
C16_7 C24_7 1_555 1_555
C17_4 C21_7 1_555 1_555
C18_4 C28_4 1_555 1_555
C30_4 C33_4 1_555 1_555
C31_4 C34_4 1_555 1_555
Zn1_4 Cl1_8 1_555 1_555
Zn2_8 Cl2_8 1_555 1_555
Cl4_8 Zn2_8 1_555 1_555
N5_8 Zn2_8 1_555 1_555
N6_8 Zn1_4 1_555 1_555
N10_8 Zn2_8 1_555 1_555
C14_8 N6_8 1_555 1_555
H5_8 C14_8 1_555 1_555
H6_8 C16_8 1_555 1_555
C21_8 C14_8 1_555 1_555
H9_8 C21_8 1_555 1_555
C23_8 N5_8 1_555 1_555
H11_8 C23_8 1_555 1_555
C24_8 N10_8 1_555 1_555
H12_8 C24_8 1_555 1_555
N13_4 Zn1_4 1_555 1_555
C16_8 C24_8 1_555 1_555
C22_8 N13_4 1_555 1_555
H10_8 C22_8 1_555 1_555
Zn3_3 Cl5_5 1_555 1_555
Cl6_5 Zn3_3 1_555 1_555
N1_5 C1_5 1_555 1_555
N2_5 C7_5 1_555 1_555
N3_5 C4_5 1_555 1_555
N4_5 C2_5 1_555 1_555
N7_5 C1_5 1_555 1_555
N9_5 C4_5 1_555 1_555
C2_5 N7_5 1_555 1_555
C3_5 C2_5 1_555 1_555
N11_3 C25_5 1_555 1_555
C4_5 C15_5 1_555 1_555
C6_5 C3_5 1_555 1_555
H1_5 C6_5 1_555 1_555
C7_5 N3_5 1_555 1_555
C8_5 C7_5 1_555 1_555
C9_5 N1_5 1_555 1_555
N12_5 Zn3_3 1_555 1_555
H3_5 C11_5 1_555 1_555
C13_5 N2_5 1_555 1_555
C15_5 C26_5 1_555 1_555
C17_5 C13_5 1_555 1_555
H7_5 C18_5 1_555 1_555
C19_5 C9_5 1_555 1_555
C20_5 C3_5 1_555 1_555
H8_5 C20_5 1_555 1_555
C25_5 H13_5 1_555 1_555
C26_5 C25_5 1_555 1_555
H14_5 C26_5 1_555 1_555
C28_5 C17_5 1_555 1_555
H16_5 C28_5 1_555 1_555
C29_5 C19_5 1_555 1_555
H17_5 C29_5 1_555 1_555
C30_5 C8_5 1_555 1_555
H18_5 C30_5 1_555 1_555
C31_5 C15_5 1_555 1_555
H19_5 C31_5 1_555 1_555
C32_5 N12_5 1_555 1_555
H20_5 C32_5 1_555 1_555
H21_5 C33_5 1_555 1_555
C34_5 N11_3 1_555 1_555
H22_5 C34_5 1_555 1_555
C35_5 N12_5 1_555 1_555
H23_5 C35_5 1_555 1_555
C36_5 C19_5 1_555 1_555
H24_5 C36_5 1_555 1_555
Zn5_3 N11_3 1_555 1_555
N14_3 Zn3_3 1_555 1_555
N4_5 C9_5 1_555 1_555
N9_5 C13_5 1_555 1_555
C6_5 C11_5 1_555 1_555
C18_5 C28_5 1_555 1_555
C29_5 C32_5 1_555 1_555
C30_5 C33_5 1_555 1_555
C31_5 C34_5 1_555 1_555
C35_5 C36_5 1_555 1_555
Zn5_3 Cl5_6 1_555 1_555
Cl6_6 Zn5_3 1_555 1_555
N1_6 C1_6 1_555 1_555
N4_6 C2_6 1_555 1_555
N7_6 C1_6 1_555 1_555
C2_6 N7_6 1_555 1_555
C3_6 C2_6 1_555 1_555
C9_6 N1_6 1_555 1_555
N12_6 Zn5_3 1_555 1_555
C19_6 C9_6 1_555 1_555
C20_6 C3_6 1_555 1_555
H8_6 C20_6 1_555 1_555
C29_6 C19_6 1_555 1_555
H17_6 C29_6 1_555 1_555
C32_6 N12_6 1_555 1_555
H20_6 C32_6 1_555 1_555
C35_6 N12_6 1_555 1_555
H23_6 C35_6 1_555 1_555
C36_6 C19_6 1_555 1_555
H24_6 C36_6 1_555 1_555
N4_6 C9_6 1_555 1_555
C29_6 C32_6 1_555 1_555
C35_6 C36_6 1_555 1_555
N2_6 C7_6 1_555 1_555
N3_6 C4_6 1_555 1_555
N9_6 C4_6 1_555 1_555
N14_3 C25_6 1_555 1_555
C4_6 C15_6 1_555 1_555
H1_6 C6_6 1_555 1_555
C7_6 N3_6 1_555 1_555
C8_6 C7_6 1_555 1_555
H3_6 C11_6 1_555 1_555
C13_6 N2_6 1_555 1_555
C15_6 C26_6 1_555 1_555
C17_6 C13_6 1_555 1_555
H7_6 C18_6 1_555 1_555
C25_6 H13_6 1_555 1_555
C26_6 C25_6 1_555 1_555
H14_6 C26_6 1_555 1_555
C28_6 C17_6 1_555 1_555
H16_6 C28_6 1_555 1_555
C30_6 C8_6 1_555 1_555
H18_6 C30_6 1_555 1_555
C31_6 C15_6 1_555 1_555
H19_6 C31_6 1_555 1_555
H21_6 C33_6 1_555 1_555
C34_6 N14_3 1_555 1_555
H22_6 C34_6 1_555 1_555
N9_6 C13_6 1_555 1_555
C6_6 C11_6 1_555 1_555
C18_6 C28_6 1_555 1_555
C30_6 C33_6 1_555 1_555
C31_6 C34_6 1_555 1_555
N2_7 C7_7 1_555 1_555
N3_7 C4_7 1_555 1_555
N9_7 C4_7 1_555 1_555
N11_4 C25_7 1_555 1_555
C4_7 C15_7 1_555 1_555
H1_7 C6_7 1_555 1_555
C7_7 N3_7 1_555 1_555
C8_7 C7_7 1_555 1_555
H3_7 C11_7 1_555 1_555
C13_7 N2_7 1_555 1_555
C15_7 C26_7 1_555 1_555
C17_7 C13_7 1_555 1_555
H7_7 C18_7 1_555 1_555
C25_7 H13_7 1_555 1_555
C26_7 C25_7 1_555 1_555
H14_7 C26_7 1_555 1_555
C28_7 C17_7 1_555 1_555
H16_7 C28_7 1_555 1_555
C30_7 C8_7 1_555 1_555
H18_7 C30_7 1_555 1_555
C31_7 C15_7 1_555 1_555
H19_7 C31_7 1_555 1_555
H21_7 C33_7 1_555 1_555
C34_7 N11_4 1_555 1_555
H22_7 C34_7 1_555 1_555
Zn5_4 N11_4 1_555 1_555
N9_7 C13_7 1_555 1_555
C6_7 C11_7 1_555 1_555
C18_7 C28_7 1_555 1_555
C30_7 C33_7 1_555 1_555
C31_7 C34_7 1_555 1_555
Zn3_4 Cl5_7 1_555 1_555
Cl6_7 Zn3_4 1_555 1_555
N1_7 C1_7 1_555 1_555
N4_7 C2_7 1_555 1_555
N7_7 C1_7 1_555 1_555
C2_7 N7_7 1_555 1_555
C3_7 C2_7 1_555 1_555
C9_7 N1_7 1_555 1_555
N12_7 Zn3_4 1_555 1_555
C19_7 C9_7 1_555 1_555
C20_7 C3_7 1_555 1_555
H8_7 C20_7 1_555 1_555
C29_7 C19_7 1_555 1_555
H17_7 C29_7 1_555 1_555
C32_7 N12_7 1_555 1_555
H20_7 C32_7 1_555 1_555
C35_7 N12_7 1_555 1_555
H23_7 C35_7 1_555 1_555
C36_7 C19_7 1_555 1_555
H24_7 C36_7 1_555 1_555
N14_4 Zn3_4 1_555 1_555
N4_7 C9_7 1_555 1_555
C29_7 C32_7 1_555 1_555
C35_7 C36_7 1_555 1_555
Zn5_4 Cl5_8 1_555 1_555
Cl6_8 Zn5_4 1_555 1_555
N1_8 C1_8 1_555 1_555
N2_8 C7_8 1_555 1_555
N3_8 C4_8 1_555 1_555
N4_8 C2_8 1_555 1_555
N7_8 C1_8 1_555 1_555
N9_8 C4_8 1_555 1_555
C2_8 N7_8 1_555 1_555
C3_8 C2_8 1_555 1_555
N14_4 C25_8 1_555 1_555
C4_8 C15_8 1_555 1_555
C6_8 C3_8 1_555 1_555
H1_8 C6_8 1_555 1_555
C7_8 N3_8 1_555 1_555
C8_8 C7_8 1_555 1_555
C9_8 N1_8 1_555 1_555
N12_8 Zn5_4 1_555 1_555
H3_8 C11_8 1_555 1_555
C13_8 N2_8 1_555 1_555
C15_8 C26_8 1_555 1_555
C17_8 C13_8 1_555 1_555
H7_8 C18_8 1_555 1_555
C19_8 C9_8 1_555 1_555
C20_8 C3_8 1_555 1_555
H8_8 C20_8 1_555 1_555
C25_8 H13_8 1_555 1_555
C26_8 C25_8 1_555 1_555
H14_8 C26_8 1_555 1_555
C28_8 C17_8 1_555 1_555
H16_8 C28_8 1_555 1_555
C29_8 C19_8 1_555 1_555
H17_8 C29_8 1_555 1_555
C30_8 C8_8 1_555 1_555
H18_8 C30_8 1_555 1_555
C31_8 C15_8 1_555 1_555
H19_8 C31_8 1_555 1_555
C32_8 N12_8 1_555 1_555
H20_8 C32_8 1_555 1_555
H21_8 C33_8 1_555 1_555
C34_8 N14_4 1_555 1_555
H22_8 C34_8 1_555 1_555
C35_8 N12_8 1_555 1_555
H23_8 C35_8 1_555 1_555
C36_8 C19_8 1_555 1_555
H24_8 C36_8 1_555 1_555
N4_8 C9_8 1_555 1_555
N9_8 C13_8 1_555 1_555
C6_8 C11_8 1_555 1_555
C18_8 C28_8 1_555 1_555
C29_8 C32_8 1_555 1_555
C30_8 C33_8 1_555 1_555
C31_8 C34_8 1_555 1_555
C35_8 C36_8 1_555 1_555

#END
