
###############################################################################
#
# This file contains modified crystal structure data generated from the
# MOF subset of the Cambridge Structural Database (CSD) v543 
# hosted by the Cambridge Crystallographic Data Centre (CCDC).
#
# This work is licensed under the Creative Commons
# Attribution-NonCommercial-ShareAlike 4.0 International License.
# To view a copy of this license, visit
# http://creativecommons.org/licenses/by-nc-sa/4.0/
# or send a letter to
# Creative Commons, PO Box 1866, Mountain View, CA 94042, USA.
#
# CIF created using the CSD Python API on 29 September 2022
# The structure has been converted into the P1 space group
# The structure has a 3D framework
# The original CSD entry XUQZAN is in the monoclinic crystal system
# The framework has been calculated to contain at least 10.0% void space
# The void calculation uses a probe of radius 1.32A, grid spacing 0.4
#
###############################################################################

data_XUQZAN
_chemical_formula_moiety         '(C192 H136 N48 O42 Zn14)n'
_symmetry_cell_setting           triclinic
_symmetry_space_group_name_H-M   'P 1'
_symmetry_Int_Tables_number      1
_space_group_name_Hall           'P 1'
loop_
_symmetry_equiv_pos_site_id
_symmetry_equiv_pos_as_xyz
1 x,y,z
_cell_length_a                   31.5415(15)
_cell_length_b                   11.9129(12)
_cell_length_c                   17.1406(15)
_cell_angle_alpha                90
_cell_angle_beta                 120.301(8)
_cell_angle_gamma                90
_cell_volume                     5560.72
loop_
_atom_site_label
_atom_site_type_symbol
_atom_site_fract_x
_atom_site_fract_y
_atom_site_fract_z
O10 O 0.1246(4) 0.1111(11) 0.0835(11)
C29 C 0.1057(3) 0.0249(7) 0.0935(5)
C30 C 0.0506(2) 0.0116(6) 0.0435(4)
C31 C 0.0203(3) 0.1035(6) 0.0093(6)
H20 H 0.0339 0.1745 0.0157
C23 C 0.0295(3) 0.9077(6) 0.0339(5)
H16 H 0.0493 0.8445 0.0570
O9 O 0.12963(17) 0.9402(4) 0.1281(4)
Zn6 Zn 0.20004(2) 0.91302(6) 0.19541(4)
Zn1 Zn 0.5000 0.28582(7) 0.2500
Zn2 Zn 0.79996(2) 0.08698(6) 0.80459(4)
N1 N 0.62978(15) 0.4741(4) 0.3715(3)
N2 N 0.55549(15) 0.4006(4) 0.3030(3)
N3 N 0.78463(15) 0.3354(4) 0.6202(3)
N4 N 0.80188(17) 0.1978(4) 0.7168(3)
N5 N 0.78237(16) 0.6688(4) 0.4588(3)
N6 N 0.79959(17) 0.8100(4) 0.3974(3)
O1 O 0.4788(2) 0.1974(4) 0.3214(3)
O2 O 0.5570(2) 0.1646(5) 0.3967(4)
O3 O 0.87037(17) 0.0598(4) 0.8719(4)
O6 O 0.7002(2) 0.0828(6) 0.7124(6)
C1 C 0.68182(18) 0.4844(5) 0.4302(3)
C2 C 0.70671(19) 0.4053(5) 0.4973(3)
H1 H 0.6900 0.3466 0.5059
C3 C 0.75754(18) 0.4161(4) 0.5518(3)
C4 C 0.7823(2) 0.5036(5) 0.5398(4)
H2 H 0.8161 0.5107 0.5770
C5 C 0.7565(2) 0.5802(5) 0.4722(4)
C6 C 0.7062(2) 0.5712(5) 0.4164(4)
H3 H 0.6890 0.6229 0.3704
C7 C 0.60065(18) 0.3907(5) 0.3713(4)
H4 H 0.6112 0.3336 0.4140
C8 C 0.5561(2) 0.4939(5) 0.2569(4)
H5 H 0.5293 0.5213 0.2044
C9 C 0.6010(2) 0.5401(6) 0.2982(4)
H6 H 0.6106 0.6044 0.2805
C10 C 0.7666(2) 0.2566(5) 0.6521(4)
H7 H 0.7333 0.2454 0.6309
C11 C 0.8452(2) 0.2401(5) 0.7275(4)
H8 H 0.8764 0.2142 0.7688
C12 C 0.8352(2) 0.3243(6) 0.6692(4)
H9 H 0.8579 0.3672 0.6628
C13 C 0.7650(2) 0.7421(5) 0.3908(4)
H10 H 0.7324 0.7449 0.3444
C14 C 0.8318(2) 0.6931(7) 0.5130(5)
H11 H 0.8542 0.6564 0.5659
C15 C 0.8412(2) 0.7796(6) 0.4745(5)
H12 H 0.8716 0.8140 0.4971
C16 C 0.5150(3) 0.1501(5) 0.3834(4)
C17 C 0.5075(3) 0.0724(5) 0.4447(4)
C18 C 0.4610(3) 0.0569(7) 0.4317(5)
H13 H 0.4345 0.0952 0.3855
C28 C 0.5467(3) 0.0154(7) 0.5132(5)
H19 H 0.5781 0.0253 0.5224
C32 C 0.9705(3) 0.0923(6) 0.9661(5)
H21 H 0.9507 0.1555 0.9430
N7 N 0.37022(15) 0.4741(4) 0.1285(3)
N8 N 0.44451(15) 0.4006(4) 0.1970(3)
N11 N 0.21763(16) 0.6688(4) 0.0412(3)
N12 N 0.20041(17) 0.8100(4) 0.1026(3)
C33 C 0.31818(18) 0.4844(5) 0.0698(3)
C34 C 0.29329(19) 0.4053(5) 0.0027(3)
C37 C 0.2435(2) 0.5802(5) 0.0278(4)
C38 C 0.2938(2) 0.5712(5) 0.0836(4)
H24 H 0.3110 0.6229 0.1296
C39 C 0.39935(18) 0.3907(5) 0.1287(4)
H25 H 0.3888 0.3336 0.0860
C40 C 0.4439(2) 0.4939(5) 0.2431(4)
H26 H 0.4707 0.5213 0.2956
C41 C 0.3990(2) 0.5401(6) 0.2018(4)
H27 H 0.3894 0.6044 0.2195
C45 C 0.2350(2) 0.7421(5) 0.1092(4)
H31 H 0.2676 0.7449 0.1556
C47 C 0.1588(2) 0.7796(6) 0.0255(5)
H33 H 0.1284 0.8140 0.0029
Zn7 Zn 0.79996(2) 0.91302(6) 0.30459(4)
N14 N 0.79959(17) 0.1900(4) 0.8974(3)
O13 O 0.5212(2) 0.1974(4) 0.1786(3)
Zn3 Zn 0.20004(2) 0.08698(6) 0.69541(4)
N9 N 0.21537(15) 0.3354(4) 0.8798(3)
N10 N 0.19812(17) 0.1978(4) 0.7832(3)
O12 O 0.2998(2) 0.0828(6) 0.7876(6)
H22 H 0.3100 0.3466 0.9941
C35 C 0.24246(18) 0.4161(4) 0.9482(3)
C36 C 0.2177(2) 0.5036(5) 0.9602(4)
H23 H 0.1839 0.5107 0.9230
C42 C 0.2334(2) 0.2566(5) 0.8479(4)
H28 H 0.2667 0.2454 0.8691
C43 C 0.1548(2) 0.2401(5) 0.7725(4)
H29 H 0.1236 0.2142 0.7312
C44 C 0.1648(2) 0.3243(6) 0.8308(4)
H30 H 0.1421 0.3672 0.8372
C46 C 0.1682(2) 0.6931(7) 0.9870(5)
H32 H 0.1458 0.6564 0.9341
N13 N 0.20041(17) 0.1900(4) 0.6026(3)
O14 O 0.12963(17) 0.0598(4) 0.6281(4)
O4 O 0.8754(4) 0.8889(11) 0.9165(11)
O5 O 0.7566(2) 0.9615(4) 0.7511(4)
C19 C 0.4533(3) 0.9846(7) 0.4868(5)
H14 H 0.4219 0.9747 0.4776
C20 C 0.8943(3) 0.9751(7) 0.9065(5)
C21 C 0.9494(2) 0.9884(6) 0.9565(4)
C22 C 0.9797(3) 0.8965(6) 0.9907(6)
H15 H 0.9661 0.8255 0.9843
C24 C 0.7124(3) 0.9891(7) 0.7134(5)
H17 H 0.6885 0.9342 0.6852
O7 O 0.5212(2) 0.8026(4) 0.6786(3)
O8 O 0.4430(2) 0.8354(5) 0.6033(4)
C25 C 0.4850(3) 0.8499(5) 0.6166(4)
C26 C 0.4925(3) 0.9276(5) 0.5553(4)
C27 C 0.5390(3) 0.9431(7) 0.5683(5)
H18 H 0.5655 0.9048 0.6145
Zn4 Zn 0.5000 0.71418(7) 0.7500
O11 O 0.2434(2) 0.9615(4) 0.7489(4)
C48 C 0.2876(3) 0.9891(7) 0.7866(5)
H34 H 0.3115 0.9342 0.8148
O2_2 O 0.4430(2) 0.1646(5) 0.1033(4)
C16_2 C 0.4850(3) 0.1501(5) 0.1166(4)
C17_2 C 0.4925(3) 0.0724(5) 0.0553(4)
C18_2 C 0.5390(3) 0.0569(7) 0.0683(5)
H13_2 H 0.5655 0.0952 0.1145
C28_2 C 0.4533(3) 0.0154(7) 0.9868(5)
H19_2 H 0.4219 0.0253 0.9776
C32_2 C 0.0295(3) 0.0923(6) 0.5339(5)
H21_2 H 0.0493 0.1555 0.5570
C19_2 C 0.5467(3) 0.9846(7) 0.0132(5)
H14_2 H 0.5781 0.9747 0.0224
O4_2 O 0.1246(4) 0.8889(11) 0.5835(11)
C20_2 C 0.1057(3) 0.9751(7) 0.5935(5)
C21_2 C 0.0506(2) 0.9884(6) 0.5435(4)
C22_2 C 0.0203(3) 0.8965(6) 0.5093(6)
H15_2 H 0.0339 0.8255 0.5157
O7_2 O 0.4788(2) 0.8026(4) 0.8214(3)
O8_2 O 0.5570(2) 0.8354(5) 0.8967(4)
C25_2 C 0.5150(3) 0.8499(5) 0.8834(4)
C26_2 C 0.5075(3) 0.9276(5) 0.9447(4)
C27_2 C 0.4610(3) 0.9431(7) 0.9317(5)
H18_2 H 0.4345 0.9048 0.8855
O10_2 O 0.8754(4) 0.1111(11) 0.4165(11)
C29_2 C 0.8943(3) 0.0249(7) 0.4065(5)
C30_2 C 0.9494(2) 0.0116(6) 0.4565(4)
C31_2 C 0.9797(3) 0.1035(6) 0.4907(6)
H20_2 H 0.9661 0.1745 0.4843
C23_2 C 0.9705(3) 0.9077(6) 0.4661(5)
H16_2 H 0.9507 0.8445 0.4430
O9_2 O 0.87037(17) 0.9402(4) 0.3719(4)
O11_2 O 0.7566(2) 0.0385(4) 0.2511(4)
C48_2 C 0.7124(3) 0.0109(7) 0.2134(5)
H34_2 H 0.6885 0.0658 0.1852
O5_2 O 0.2434(2) 0.0385(4) 0.2489(4)
C24_2 C 0.2876(3) 0.0109(7) 0.2866(5)
H17_2 H 0.3115 0.0658 0.3148
N9_2 N 0.78463(15) 0.6646(4) 0.1202(3)
N10_2 N 0.80188(17) 0.8022(4) 0.2168(3)
O12_2 O 0.7002(2) 0.9172(6) 0.2124(6)
H22_2 H 0.6900 0.6534 0.0059
C35_2 C 0.75754(18) 0.5839(4) 0.0518(3)
C36_2 C 0.7823(2) 0.4964(5) 0.0398(4)
H23_2 H 0.8161 0.4893 0.0770
C42_2 C 0.7666(2) 0.7434(5) 0.1521(4)
H28_2 H 0.7333 0.7546 0.1309
C43_2 C 0.8452(2) 0.7599(5) 0.2275(4)
H29_2 H 0.8764 0.7858 0.2688
C44_2 C 0.8352(2) 0.6757(6) 0.1692(4)
H30_2 H 0.8579 0.6328 0.1628
C46_2 C 0.8318(2) 0.3069(7) 0.0130(5)
H32_2 H 0.8542 0.3436 0.0659
N1_2 N 0.37022(15) 0.5259(4) 0.6285(3)
N2_2 N 0.44451(15) 0.5994(4) 0.6970(3)
N3_2 N 0.21537(15) 0.6646(4) 0.3798(3)
N4_2 N 0.19812(17) 0.8022(4) 0.2832(3)
N5_2 N 0.21763(16) 0.3312(4) 0.5412(3)
O6_2 O 0.2998(2) 0.9172(6) 0.2876(6)
C1_2 C 0.31818(18) 0.5156(5) 0.5698(3)
C2_2 C 0.29329(19) 0.5947(5) 0.5027(3)
H1_2 H 0.3100 0.6534 0.4941
C3_2 C 0.24246(18) 0.5839(4) 0.4482(3)
C4_2 C 0.2177(2) 0.4964(5) 0.4602(4)
H2_2 H 0.1839 0.4893 0.4230
C5_2 C 0.2435(2) 0.4198(5) 0.5278(4)
C6_2 C 0.2938(2) 0.4288(5) 0.5836(4)
H3_2 H 0.3110 0.3771 0.6296
C7_2 C 0.39935(18) 0.6093(5) 0.6287(4)
H4_2 H 0.3888 0.6664 0.5860
C8_2 C 0.4439(2) 0.5061(5) 0.7431(4)
H5_2 H 0.4707 0.4787 0.7956
C9_2 C 0.3990(2) 0.4599(6) 0.7018(4)
H6_2 H 0.3894 0.3956 0.7195
C10_2 C 0.2334(2) 0.7434(5) 0.3479(4)
H7_2 H 0.2667 0.7546 0.3691
C11_2 C 0.1548(2) 0.7599(5) 0.2725(4)
H8_2 H 0.1236 0.7858 0.2312
C12_2 C 0.1648(2) 0.6757(6) 0.3308(4)
H9_2 H 0.1421 0.6328 0.3372
C13_2 C 0.2350(2) 0.2579(5) 0.6092(4)
H10_2 H 0.2676 0.2551 0.6556
C14_2 C 0.1682(2) 0.3069(7) 0.4870(5)
H11_2 H 0.1458 0.3436 0.4341
C15_2 C 0.1588(2) 0.2204(6) 0.5255(5)
H12_2 H 0.1284 0.1860 0.5029
N7_2 N 0.62978(15) 0.5259(4) 0.8715(3)
N8_2 N 0.55549(15) 0.5994(4) 0.8030(3)
N11_2 N 0.78237(16) 0.3312(4) 0.9588(3)
C33_2 C 0.68182(18) 0.5156(5) 0.9302(3)
C34_2 C 0.70671(19) 0.5947(5) 0.9973(3)
C37_2 C 0.7565(2) 0.4198(5) 0.9722(4)
C38_2 C 0.7062(2) 0.4288(5) 0.9164(4)
H24_2 H 0.6890 0.3771 0.8704
C39_2 C 0.60065(18) 0.6093(5) 0.8713(4)
H25_2 H 0.6112 0.6664 0.9140
C40_2 C 0.5561(2) 0.5061(5) 0.7569(4)
H26_2 H 0.5293 0.4787 0.7044
C41_2 C 0.6010(2) 0.4599(6) 0.7982(4)
H27_2 H 0.6106 0.3956 0.7805
C45_2 C 0.7650(2) 0.2579(5) 0.8908(4)
H31_2 H 0.7324 0.2551 0.8444
C47_2 C 0.8412(2) 0.2204(6) 0.9745(5)
H33_2 H 0.8716 0.1860 0.9971
N5_3 N 0.28237(16) 0.1688(4) 0.4588(3)
N6_2 N 0.29959(17) 0.3100(4) 0.3974(3)
C4_3 C 0.2823(2) 0.0036(5) 0.5398(4)
H2_3 H 0.3161 0.0107 0.5770
C5_3 C 0.2565(2) 0.0802(5) 0.4722(4)
C6_3 C 0.2062(2) 0.0712(5) 0.4164(4)
H3_3 H 0.1890 0.1229 0.3704
H5_3 H 0.0293 0.0213 0.2044
C9_3 C 0.1010(2) 0.0401(6) 0.2982(4)
H6_3 H 0.1106 0.1044 0.2805
C13_3 C 0.2650(2) 0.2421(5) 0.3908(4)
H10_3 H 0.2324 0.2449 0.3444
C14_3 C 0.3318(2) 0.1931(7) 0.5130(5)
H11_3 H 0.3542 0.1564 0.5659
C15_3 C 0.3412(2) 0.2796(6) 0.4745(5)
H12_3 H 0.3716 0.3140 0.4971
Zn7_2 Zn 0.29996(2) 0.41302(6) 0.30459(4)
C23_3 C 0.5295(3) 0.4077(6) 0.0339(5)
H16_3 H 0.5493 0.3445 0.0570
O9_3 O 0.62963(17) 0.4402(4) 0.1281(4)
O10_3 O 0.6246(4) 0.6111(11) 0.0835(11)
C29_3 C 0.6057(3) 0.5249(7) 0.0935(5)
C30_3 C 0.5506(2) 0.5116(6) 0.0435(4)
C31_3 C 0.5203(3) 0.6035(6) 0.0093(6)
H20_3 H 0.5339 0.6745 0.0157
Zn6_2 Zn 0.70004(2) 0.41302(6) 0.19541(4)
Zn1_2 Zn 0.0000 0.78582(7) 0.2500
Zn2_2 Zn 0.29996(2) 0.58698(6) 0.80459(4)
N1_3 N 0.12978(15) 0.9741(4) 0.3715(3)
N2_3 N 0.05549(15) 0.9006(4) 0.3030(3)
N3_3 N 0.28463(15) 0.8354(4) 0.6202(3)
N4_3 N 0.30188(17) 0.6978(4) 0.7168(3)
O2_3 O 0.0570(2) 0.6646(5) 0.3967(4)
O3_2 O 0.37037(17) 0.5598(4) 0.8719(4)
O4_3 O 0.3754(4) 0.3889(11) 0.9165(11)
O5_3 O 0.2566(2) 0.4615(4) 0.7511(4)
O6_3 O 0.2002(2) 0.5828(6) 0.7124(6)
C1_3 C 0.18182(18) 0.9844(5) 0.4302(3)
C2_3 C 0.20671(19) 0.9053(5) 0.4973(3)
H1_3 H 0.1900 0.8466 0.5059
C3_3 C 0.25754(18) 0.9161(4) 0.5518(3)
C7_3 C 0.10065(18) 0.8907(5) 0.3713(4)
H4_3 H 0.1112 0.8336 0.4140
C8_3 C 0.0561(2) 0.9939(5) 0.2569(4)
C10_3 C 0.2666(2) 0.7566(5) 0.6521(4)
H7_3 H 0.2333 0.7454 0.6309
C11_3 C 0.3452(2) 0.7401(5) 0.7275(4)
H8_3 H 0.3764 0.7142 0.7688
C12_3 C 0.3352(2) 0.8243(6) 0.6692(4)
H9_3 H 0.3579 0.8672 0.6628
C16_3 C 0.0150(3) 0.6501(5) 0.3834(4)
C17_3 C 0.0075(3) 0.5724(5) 0.4447(4)
C20_3 C 0.3943(3) 0.4751(7) 0.9065(5)
C21_3 C 0.4494(2) 0.4884(6) 0.9565(4)
C22_3 C 0.4797(3) 0.3965(6) 0.9907(6)
H15_3 H 0.4661 0.3255 0.9843
C24_3 C 0.2124(3) 0.4891(7) 0.7134(5)
H17_3 H 0.1885 0.4342 0.6852
O7_3 O 0.0212(2) 0.3026(4) 0.6786(3)
C27_3 C 0.0390(3) 0.4431(7) 0.5683(5)
H18_3 H 0.0655 0.4048 0.6145
C28_3 C 0.0467(3) 0.5154(7) 0.5132(5)
H19_3 H 0.0781 0.5253 0.5224
C32_3 C 0.4705(3) 0.5923(6) 0.9661(5)
H21_3 H 0.4507 0.6555 0.9430
Zn4_2 Zn 0.0000 0.21418(7) 0.7500
N14_2 N 0.29959(17) 0.6900(4) 0.8974(3)
O13_2 O 0.0212(2) 0.6974(4) 0.1786(3)
N11_3 N 0.71763(16) 0.1688(4) 0.0412(3)
N12_2 N 0.70041(17) 0.3100(4) 0.1026(3)
C37_3 C 0.7435(2) 0.0802(5) 0.0278(4)
C38_3 C 0.7938(2) 0.0712(5) 0.0836(4)
H24_3 H 0.8110 0.1229 0.1296
H26_3 H 0.9707 0.0213 0.2956
C41_3 C 0.8990(2) 0.0401(6) 0.2018(4)
H27_3 H 0.8894 0.1044 0.2195
C45_3 C 0.7350(2) 0.2421(5) 0.1092(4)
H31_3 H 0.7676 0.2449 0.1556
C47_3 C 0.6588(2) 0.2796(6) 0.0255(5)
H33_3 H 0.6284 0.3140 0.0029
Zn1_3 Zn 1.0000 0.78582(7) 0.2500
O1_2 O 0.9788(2) 0.6974(4) 0.3214(3)
C18_3 C 0.9610(3) 0.5569(7) 0.4317(5)
H13_3 H 0.9345 0.5952 0.3855
C19_3 C 0.9533(3) 0.4846(7) 0.4868(5)
H14_3 H 0.9219 0.4747 0.4776
O8_3 O 0.9430(2) 0.3354(5) 0.6033(4)
C25_3 C 0.9850(3) 0.3499(5) 0.6166(4)
C26_3 C 0.9925(3) 0.4276(5) 0.5553(4)
N7_3 N 0.87022(15) 0.9741(4) 0.1285(3)
N8_3 N 0.94451(15) 0.9006(4) 0.1970(3)
C33_3 C 0.81818(18) 0.9844(5) 0.0698(3)
C34_3 C 0.79329(19) 0.9053(5) 0.0027(3)
C39_3 C 0.89935(18) 0.8907(5) 0.1287(4)
H25_3 H 0.8888 0.8336 0.0860
C40_3 C 0.9439(2) 0.9939(5) 0.2431(4)
Zn4_3 Zn 1.0000 0.21418(7) 0.7500
Zn3_2 Zn 0.70004(2) 0.58698(6) 0.69541(4)
N9_3 N 0.71537(15) 0.8354(4) 0.8798(3)
N10_3 N 0.69812(17) 0.6978(4) 0.7832(3)
O11_3 O 0.7434(2) 0.4615(4) 0.7489(4)
O12_3 O 0.7998(2) 0.5828(6) 0.7876(6)
H22_3 H 0.8100 0.8466 0.9941
C35_3 C 0.74246(18) 0.9161(4) 0.9482(3)
C42_3 C 0.7334(2) 0.7566(5) 0.8479(4)
H28_3 H 0.7667 0.7454 0.8691
C43_3 C 0.6548(2) 0.7401(5) 0.7725(4)
H29_3 H 0.6236 0.7142 0.7312
C44_3 C 0.6648(2) 0.8243(6) 0.8308(4)
H30_3 H 0.6421 0.8672 0.8372
C48_3 C 0.7876(3) 0.4891(7) 0.7866(5)
H34_3 H 0.8115 0.4342 0.8148
N13_2 N 0.70041(17) 0.6900(4) 0.6026(3)
O14_2 O 0.62963(17) 0.5598(4) 0.6281(4)
C18_4 C 0.0390(3) 0.5569(7) 0.0683(5)
H13_4 H 0.0655 0.5952 0.1145
C19_4 C 0.0467(3) 0.4846(7) 0.0132(5)
H14_4 H 0.0781 0.4747 0.0224
O8_4 O 0.0570(2) 0.3354(5) 0.8967(4)
C25_4 C 0.0150(3) 0.3499(5) 0.8834(4)
C26_4 C 0.0075(3) 0.4276(5) 0.9447(4)
O2_4 O 0.9430(2) 0.6646(5) 0.1033(4)
C16_4 C 0.9850(3) 0.6501(5) 0.1166(4)
C17_4 C 0.9925(3) 0.5724(5) 0.0553(4)
O4_4 O 0.6246(4) 0.3889(11) 0.5835(11)
C20_4 C 0.6057(3) 0.4751(7) 0.5935(5)
C21_4 C 0.5506(2) 0.4884(6) 0.5435(4)
C22_4 C 0.5203(3) 0.3965(6) 0.5093(6)
H15_4 H 0.5339 0.3255 0.5157
C23_4 C 0.4705(3) 0.4077(6) 0.4661(5)
H16_4 H 0.4507 0.3445 0.4430
O7_4 O 0.9788(2) 0.3026(4) 0.8214(3)
C27_4 C 0.9610(3) 0.4431(7) 0.9317(5)
H18_4 H 0.9345 0.4048 0.8855
C28_4 C 0.9533(3) 0.5154(7) 0.9868(5)
H19_4 H 0.9219 0.5253 0.9776
O9_4 O 0.37037(17) 0.4402(4) 0.3719(4)
O10_4 O 0.3754(4) 0.6111(11) 0.4165(11)
C29_4 C 0.3943(3) 0.5249(7) 0.4065(5)
C30_4 C 0.4494(2) 0.5116(6) 0.4565(4)
C31_4 C 0.4797(3) 0.6035(6) 0.4907(6)
H20_4 H 0.4661 0.6745 0.4843
C32_4 C 0.5295(3) 0.5923(6) 0.5339(5)
H21_4 H 0.5493 0.6555 0.5570
N9_4 N 0.28463(15) 0.1646(4) 0.1202(3)
N10_4 N 0.30188(17) 0.3022(4) 0.2168(3)
O11_4 O 0.2566(2) 0.5385(4) 0.2511(4)
O12_4 O 0.2002(2) 0.4172(6) 0.2124(6)
H22_4 H 0.1900 0.1534 0.0059
C35_4 C 0.25754(18) 0.0839(4) 0.0518(3)
C42_4 C 0.2666(2) 0.2434(5) 0.1521(4)
H28_4 H 0.2333 0.2546 0.1309
C43_4 C 0.3452(2) 0.2599(5) 0.2275(4)
H29_4 H 0.3764 0.2858 0.2688
C44_4 C 0.3352(2) 0.1757(6) 0.1692(4)
H30_4 H 0.3579 0.1328 0.1628
C48_4 C 0.2124(3) 0.5109(7) 0.2134(5)
H34_4 H 0.1885 0.5658 0.1852
N7_4 N 0.12978(15) 0.0259(4) 0.8715(3)
N8_4 N 0.05549(15) 0.0994(4) 0.8030(3)
C33_4 C 0.18182(18) 0.0156(5) 0.9302(3)
C34_4 C 0.20671(19) 0.0947(5) 0.9973(3)
C39_4 C 0.10065(18) 0.1093(5) 0.8713(4)
H25_4 H 0.1112 0.1664 0.9140
C40_4 C 0.0561(2) 0.0061(5) 0.7569(4)
N11_4 N 0.28237(16) 0.8312(4) 0.9588(3)
C37_4 C 0.2565(2) 0.9198(5) 0.9722(4)
C38_4 C 0.2062(2) 0.9288(5) 0.9164(4)
H24_4 H 0.1890 0.8771 0.8704
H26_4 H 0.0293 0.9787 0.7044
C41_4 C 0.1010(2) 0.9599(6) 0.7982(4)
H27_4 H 0.1106 0.8956 0.7805
C45_4 C 0.2650(2) 0.7579(5) 0.8908(4)
H31_4 H 0.2324 0.7551 0.8444
C47_4 C 0.3412(2) 0.7204(6) 0.9745(5)
H33_4 H 0.3716 0.6860 0.9971
N1_4 N 0.87022(15) 0.0259(4) 0.6285(3)
N2_4 N 0.94451(15) 0.0994(4) 0.6970(3)
N3_4 N 0.71537(15) 0.1646(4) 0.3798(3)
N4_4 N 0.69812(17) 0.3022(4) 0.2832(3)
O5_4 O 0.7434(2) 0.5385(4) 0.2489(4)
O6_4 O 0.7998(2) 0.4172(6) 0.2876(6)
C1_4 C 0.81818(18) 0.0156(5) 0.5698(3)
C2_4 C 0.79329(19) 0.0947(5) 0.5027(3)
H1_4 H 0.8100 0.1534 0.4941
C3_4 C 0.74246(18) 0.0839(4) 0.4482(3)
C7_4 C 0.89935(18) 0.1093(5) 0.6287(4)
H4_4 H 0.8888 0.1664 0.5860
C8_4 C 0.9439(2) 0.0061(5) 0.7431(4)
C10_4 C 0.7334(2) 0.2434(5) 0.3479(4)
H7_4 H 0.7667 0.2546 0.3691
C11_4 C 0.6548(2) 0.2599(5) 0.2725(4)
H8_4 H 0.6236 0.2858 0.2312
C12_4 C 0.6648(2) 0.1757(6) 0.3308(4)
H9_4 H 0.6421 0.1328 0.3372
C24_4 C 0.7876(3) 0.5109(7) 0.2866(5)
H17_4 H 0.8115 0.5658 0.3148
N5_4 N 0.71763(16) 0.8312(4) 0.5412(3)
C4_4 C 0.7177(2) 0.9964(5) 0.4602(4)
H2_4 H 0.6839 0.9893 0.4230
C5_4 C 0.7435(2) 0.9198(5) 0.5278(4)
C6_4 C 0.7938(2) 0.9288(5) 0.5836(4)
H3_4 H 0.8110 0.8771 0.6296
H5_4 H 0.9707 0.9787 0.7956
C9_4 C 0.8990(2) 0.9599(6) 0.7018(4)
H6_4 H 0.8894 0.8956 0.7195
C13_4 C 0.7350(2) 0.7579(5) 0.6092(4)
H10_4 H 0.7676 0.7551 0.6556
C14_4 C 0.6682(2) 0.8069(7) 0.4870(5)
H11_4 H 0.6458 0.8436 0.4341
C15_4 C 0.6588(2) 0.7204(6) 0.5255(5)
H12_4 H 0.6284 0.6860 0.5029
C36_3 C 0.7177(2) 0.0036(5) 0.9602(4)
H23_3 H 0.6839 0.0107 0.9230
C46_3 C 0.6682(2) 0.1931(7) 0.9870(5)
H32_3 H 0.6458 0.1564 0.9341
C36_4 C 0.2823(2) 0.9964(5) 0.0398(4)
H23_4 H 0.3161 0.9893 0.0770
C46_4 C 0.3318(2) 0.8069(7) 0.0130(5)
H32_4 H 0.3542 0.8436 0.0659
loop_
_geom_bond_atom_site_label_1
_geom_bond_atom_site_label_2
_geom_bond_site_symmetry_1
_geom_bond_site_symmetry_2
O10 C29 1_555 1_555
C29 C30 1_555 1_555
C31 C30 1_555 1_555
H20 C31 1_555 1_555
H16 C23 1_555 1_555
Zn6 O9 1_555 1_555
Zn1 N2 1_555 1_555
Zn2 N4 1_555 1_555
N1 C1 1_555 1_555
N2 C7 1_555 1_555
N3 C3 1_555 1_555
N4 C10 1_555 1_555
N5 C5 1_555 1_555
N6 C13 1_555 1_555
O1 Zn1 1_555 1_555
O2 C16 1_555 1_555
O3 Zn2 1_555 1_555
C1 C2 1_555 1_555
C2 H1 1_555 1_555
C3 C2 1_555 1_555
C4 C3 1_555 1_555
H2 C4 1_555 1_555
C5 C4 1_555 1_555
C6 C1 1_555 1_555
H3 C6 1_555 1_555
C7 N1 1_555 1_555
H4 C7 1_555 1_555
C8 N2 1_555 1_555
H5 C8 1_555 1_555
C9 N1 1_555 1_555
H6 C9 1_555 1_555
C10 N3 1_555 1_555
H7 C10 1_555 1_555
C11 N4 1_555 1_555
H8 C11 1_555 1_555
C12 N3 1_555 1_555
H9 C12 1_555 1_555
C13 N5 1_555 1_555
H10 C13 1_555 1_555
C14 N5 1_555 1_555
H11 C14 1_555 1_555
C15 N6 1_555 1_555
H12 C15 1_555 1_555
C16 O1 1_555 1_555
C17 C16 1_555 1_555
C18 C17 1_555 1_555
H13 C18 1_555 1_555
C28 C17 1_555 1_555
H19 C28 1_555 1_555
H21 C32 1_555 1_555
N7 C33 1_555 1_555
N8 Zn1 1_555 1_555
N11 C37 1_555 1_555
N12 C45 1_555 1_555
C33 C34 1_555 1_555
C38 C33 1_555 1_555
H24 C38 1_555 1_555
C39 N7 1_555 1_555
H25 C39 1_555 1_555
C40 N8 1_555 1_555
H26 C40 1_555 1_555
C41 N7 1_555 1_555
H27 C41 1_555 1_555
C45 N11 1_555 1_555
H31 C45 1_555 1_555
C47 N12 1_555 1_555
H33 C47 1_555 1_555
Zn6 N12 1_555 1_555
Zn7 N6 1_555 1_555
N14 Zn2 1_555 1_555
O13 Zn1 1_555 1_555
C5 C6 1_555 1_555
C8 C9 1_555 1_555
C11 C12 1_555 1_555
C14 C15 1_555 1_555
N8 C39 1_555 1_555
C37 C38 1_555 1_555
C40 C41 1_555 1_555
Zn3 N10 1_555 1_555
N9 C35 1_555 1_555
N10 C42 1_555 1_555
C36 C35 1_555 1_555
H23 C36 1_555 1_555
C42 N9 1_555 1_555
H28 C42 1_555 1_555
C43 N10 1_555 1_555
H29 C43 1_555 1_555
C44 N9 1_555 1_555
H30 C44 1_555 1_555
H32 C46 1_555 1_555
N13 Zn3 1_555 1_555
O14 Zn3 1_555 1_555
C43 C44 1_555 1_555
O4 C20 1_555 1_555
H14 C19 1_555 1_555
C21 C20 1_555 1_555
C22 C21 1_555 1_555
H15 C22 1_555 1_555
C24 O5 1_555 1_555
H17 C24 1_555 1_555
O7 C25 1_555 1_555
O8 C25 1_555 1_555
C25 C26 1_555 1_555
C26 C19 1_555 1_555
C27 C26 1_555 1_555
H18 C27 1_555 1_555
Zn4 O7 1_555 1_555
C48 O11 1_555 1_555
H34 C48 1_555 1_555
O2_2 C16_2 1_555 1_555
C16_2 O13 1_555 1_555
C17_2 C16_2 1_555 1_555
C18_2 C17_2 1_555 1_555
H13_2 C18_2 1_555 1_555
H19_2 C28_2 1_555 1_555
H21_2 C32_2 1_555 1_555
H14_2 C19_2 1_555 1_555
O4_2 C20_2 1_555 1_555
C21_2 C20_2 1_555 1_555
C22_2 C21_2 1_555 1_555
H15_2 C22_2 1_555 1_555
O7_2 C25_2 1_555 1_555
O8_2 C25_2 1_555 1_555
C25_2 C26_2 1_555 1_555
C27_2 C26_2 1_555 1_555
H18_2 C27_2 1_555 1_555
Zn4 O7_2 1_555 1_555
O10_2 C29_2 1_555 1_555
C29_2 C30_2 1_555 1_555
C31_2 C30_2 1_555 1_555
H20_2 C31_2 1_555 1_555
H16_2 C23_2 1_555 1_555
Zn7 O9_2 1_555 1_555
C48_2 O11_2 1_555 1_555
H34_2 C48_2 1_555 1_555
C24_2 O5_2 1_555 1_555
H17_2 C24_2 1_555 1_555
Zn7 N10_2 1_555 1_555
N9_2 C35_2 1_555 1_555
N10_2 C42_2 1_555 1_555
C36_2 C35_2 1_555 1_555
H23_2 C36_2 1_555 1_555
C42_2 N9_2 1_555 1_555
H28_2 C42_2 1_555 1_555
C43_2 N10_2 1_555 1_555
H29_2 C43_2 1_555 1_555
C44_2 N9_2 1_555 1_555
H30_2 C44_2 1_555 1_555
H32_2 C46_2 1_555 1_555
C43_2 C44_2 1_555 1_555
Zn4 N2_2 1_555 1_555
Zn6 N4_2 1_555 1_555
N1_2 C1_2 1_555 1_555
N2_2 C7_2 1_555 1_555
N3_2 C3_2 1_555 1_555
N4_2 C10_2 1_555 1_555
N5_2 C5_2 1_555 1_555
N13 C13_2 1_555 1_555
C1_2 C2_2 1_555 1_555
C2_2 H1_2 1_555 1_555
C3_2 C2_2 1_555 1_555
C4_2 C3_2 1_555 1_555
H2_2 C4_2 1_555 1_555
C5_2 C4_2 1_555 1_555
C6_2 C1_2 1_555 1_555
H3_2 C6_2 1_555 1_555
C7_2 N1_2 1_555 1_555
H4_2 C7_2 1_555 1_555
C8_2 N2_2 1_555 1_555
H5_2 C8_2 1_555 1_555
C9_2 N1_2 1_555 1_555
H6_2 C9_2 1_555 1_555
C10_2 N3_2 1_555 1_555
H7_2 C10_2 1_555 1_555
C11_2 N4_2 1_555 1_555
H8_2 C11_2 1_555 1_555
C12_2 N3_2 1_555 1_555
H9_2 C12_2 1_555 1_555
C13_2 N5_2 1_555 1_555
H10_2 C13_2 1_555 1_555
C14_2 N5_2 1_555 1_555
H11_2 C14_2 1_555 1_555
C15_2 N13 1_555 1_555
H12_2 C15_2 1_555 1_555
N7_2 C33_2 1_555 1_555
N8_2 Zn4 1_555 1_555
N11_2 C37_2 1_555 1_555
N14 C45_2 1_555 1_555
C33_2 C34_2 1_555 1_555
C38_2 C33_2 1_555 1_555
H24_2 C38_2 1_555 1_555
C39_2 N7_2 1_555 1_555
H25_2 C39_2 1_555 1_555
C40_2 N8_2 1_555 1_555
H26_2 C40_2 1_555 1_555
C41_2 N7_2 1_555 1_555
H27_2 C41_2 1_555 1_555
C45_2 N11_2 1_555 1_555
H31_2 C45_2 1_555 1_555
C47_2 N14 1_555 1_555
H33_2 C47_2 1_555 1_555
C5_2 C6_2 1_555 1_555
C8_2 C9_2 1_555 1_555
C11_2 C12_2 1_555 1_555
C14_2 C15_2 1_555 1_555
N8_2 C39_2 1_555 1_555
C37_2 C38_2 1_555 1_555
C40_2 C41_2 1_555 1_555
N5_3 C5_3 1_555 1_555
N6_2 C13_3 1_555 1_555
H2_3 C4_3 1_555 1_555
C5_3 C4_3 1_555 1_555
H3_3 C6_3 1_555 1_555
H6_3 C9_3 1_555 1_555
C13_3 N5_3 1_555 1_555
H10_3 C13_3 1_555 1_555
C14_3 N5_3 1_555 1_555
H11_3 C14_3 1_555 1_555
C15_3 N6_2 1_555 1_555
H12_3 C15_3 1_555 1_555
Zn7_2 N6_2 1_555 1_555
C5_3 C6_3 1_555 1_555
C14_3 C15_3 1_555 1_555
H16_3 C23_3 1_555 1_555
O9_3 C29_3 1_555 1_555
O10_3 C29_3 1_555 1_555
C29_3 C30_3 1_555 1_555
C30_3 C23_3 1_555 1_555
C31_3 C30_3 1_555 1_555
H20_3 C31_3 1_555 1_555
Zn6_2 O9_3 1_555 1_555
Zn1_2 N2_3 1_555 1_555
Zn2_2 N4_3 1_555 1_555
N1_3 C1_3 1_555 1_555
N2_3 C7_3 1_555 1_555
N3_3 C3_3 1_555 1_555
N4_3 C10_3 1_555 1_555
O2_3 C16_3 1_555 1_555
O3_2 Zn2_2 1_555 1_555
O4_3 C20_3 1_555 1_555
O5_3 Zn2_2 1_555 1_555
O6_3 C24_3 1_555 1_555
C1_3 C2_3 1_555 1_555
C2_3 H1_3 1_555 1_555
C3_3 C2_3 1_555 1_555
C7_3 N1_3 1_555 1_555
H4_3 C7_3 1_555 1_555
C8_3 N2_3 1_555 1_555
C10_3 N3_3 1_555 1_555
H7_3 C10_3 1_555 1_555
C11_3 N4_3 1_555 1_555
H8_3 C11_3 1_555 1_555
C12_3 N3_3 1_555 1_555
H9_3 C12_3 1_555 1_555
C17_3 C16_3 1_555 1_555
C20_3 O3_2 1_555 1_555
C21_3 C20_3 1_555 1_555
C22_3 C21_3 1_555 1_555
H15_3 C22_3 1_555 1_555
C24_3 O5_3 1_555 1_555
H17_3 C24_3 1_555 1_555
H18_3 C27_3 1_555 1_555
C28_3 C17_3 1_555 1_555
H19_3 C28_3 1_555 1_555
C32_3 C21_3 1_555 1_555
H21_3 C32_3 1_555 1_555
Zn4_2 O7_3 1_555 1_555
N14_2 Zn2_2 1_555 1_555
O13_2 Zn1_2 1_555 1_555
C11_3 C12_3 1_555 1_555
C27_3 C28_3 1_555 1_555
N11_3 C37_3 1_555 1_555
N12_2 C45_3 1_555 1_555
H24_3 C38_3 1_555 1_555
H27_3 C41_3 1_555 1_555
C45_3 N11_3 1_555 1_555
H31_3 C45_3 1_555 1_555
C47_3 N12_2 1_555 1_555
H33_3 C47_3 1_555 1_555
Zn6_2 N12_2 1_555 1_555
C37_3 C38_3 1_555 1_555
O1_2 Zn1_3 1_555 1_555
H13_3 C18_3 1_555 1_555
C19_3 C18_3 1_555 1_555
H14_3 C19_3 1_555 1_555
O8_3 C25_3 1_555 1_555
C25_3 C26_3 1_555 1_555
C26_3 C19_3 1_555 1_555
N7_3 C33_3 1_555 1_555
N8_3 Zn1_3 1_555 1_555
C33_3 C34_3 1_555 1_555
C39_3 N7_3 1_555 1_555
H25_3 C39_3 1_555 1_555
C40_3 N8_3 1_555 1_555
N8_3 C39_3 1_555 1_555
Zn3_2 N10_3 1_555 1_555
N9_3 C35_3 1_555 1_555
N10_3 C42_3 1_555 1_555
O11_3 Zn3_2 1_555 1_555
O12_3 C48_3 1_555 1_555
C42_3 N9_3 1_555 1_555
H28_3 C42_3 1_555 1_555
C43_3 N10_3 1_555 1_555
H29_3 C43_3 1_555 1_555
C44_3 N9_3 1_555 1_555
H30_3 C44_3 1_555 1_555
C48_3 O11_3 1_555 1_555
H34_3 C48_3 1_555 1_555
N13_2 Zn3_2 1_555 1_555
O14_2 Zn3_2 1_555 1_555
C43_3 C44_3 1_555 1_555
H13_4 C18_4 1_555 1_555
C19_4 C18_4 1_555 1_555
H14_4 C19_4 1_555 1_555
O8_4 C25_4 1_555 1_555
C25_4 C26_4 1_555 1_555
O2_4 C16_4 1_555 1_555
C17_4 C16_4 1_555 1_555
O4_4 C20_4 1_555 1_555
C20_4 O14_2 1_555 1_555
C21_4 C20_4 1_555 1_555
C22_4 C21_4 1_555 1_555
H15_4 C22_4 1_555 1_555
C23_4 C22_4 1_555 1_555
H16_4 C23_4 1_555 1_555
H18_4 C27_4 1_555 1_555
H19_4 C28_4 1_555 1_555
O9_4 C29_4 1_555 1_555
O10_4 C29_4 1_555 1_555
C29_4 C30_4 1_555 1_555
C30_4 C23_4 1_555 1_555
C31_4 C30_4 1_555 1_555
H20_4 C31_4 1_555 1_555
C32_4 C21_4 1_555 1_555
H21_4 C32_4 1_555 1_555
Zn4_3 O7_4 1_555 1_555
Zn7_2 O9_4 1_555 1_555
C27_4 C28_4 1_555 1_555
C31_4 C32_4 1_555 1_555
Zn7_2 N10_4 1_555 1_555
N9_4 C35_4 1_555 1_555
N10_4 C42_4 1_555 1_555
O11_4 Zn7_2 1_555 1_555
O12_4 C48_4 1_555 1_555
C42_4 N9_4 1_555 1_555
H28_4 C42_4 1_555 1_555
C43_4 N10_4 1_555 1_555
H29_4 C43_4 1_555 1_555
C44_4 N9_4 1_555 1_555
H30_4 C44_4 1_555 1_555
C48_4 O11_4 1_555 1_555
H34_4 C48_4 1_555 1_555
C43_4 C44_4 1_555 1_555
N7_4 C33_4 1_555 1_555
N8_4 Zn4_2 1_555 1_555
C33_4 C34_4 1_555 1_555
C39_4 N7_4 1_555 1_555
H25_4 C39_4 1_555 1_555
C40_4 N8_4 1_555 1_555
N8_4 C39_4 1_555 1_555
N11_4 C37_4 1_555 1_555
N14_2 C45_4 1_555 1_555
H24_4 C38_4 1_555 1_555
H27_4 C41_4 1_555 1_555
C45_4 N11_4 1_555 1_555
H31_4 C45_4 1_555 1_555
C47_4 N14_2 1_555 1_555
H33_4 C47_4 1_555 1_555
C37_4 C38_4 1_555 1_555
Zn4_3 N2_4 1_555 1_555
Zn6_2 N4_4 1_555 1_555
N1_4 C1_4 1_555 1_555
N2_4 C7_4 1_555 1_555
N3_4 C3_4 1_555 1_555
N4_4 C10_4 1_555 1_555
O5_4 Zn6_2 1_555 1_555
O6_4 C24_4 1_555 1_555
C1_4 C2_4 1_555 1_555
C2_4 H1_4 1_555 1_555
C3_4 C2_4 1_555 1_555
C7_4 N1_4 1_555 1_555
H4_4 C7_4 1_555 1_555
C8_4 N2_4 1_555 1_555
C10_4 N3_4 1_555 1_555
H7_4 C10_4 1_555 1_555
C11_4 N4_4 1_555 1_555
H8_4 C11_4 1_555 1_555
C12_4 N3_4 1_555 1_555
H9_4 C12_4 1_555 1_555
C24_4 O5_4 1_555 1_555
H17_4 C24_4 1_555 1_555
C11_4 C12_4 1_555 1_555
N5_4 C5_4 1_555 1_555
N13_2 C13_4 1_555 1_555
H2_4 C4_4 1_555 1_555
C5_4 C4_4 1_555 1_555
H3_4 C6_4 1_555 1_555
H6_4 C9_4 1_555 1_555
C13_4 N5_4 1_555 1_555
H10_4 C13_4 1_555 1_555
C14_4 N5_4 1_555 1_555
H11_4 C14_4 1_555 1_555
C15_4 N13_2 1_555 1_555
H12_4 C15_4 1_555 1_555
C5_4 C6_4 1_555 1_555
C14_4 C15_4 1_555 1_555
H23_3 C36_3 1_555 1_555
H32_3 C46_3 1_555 1_555
H23_4 C36_4 1_555 1_555
H32_4 C46_4 1_555 1_555

#END
