
###############################################################################
#
# This file contains modified crystal structure data generated from the
# MOF subset of the Cambridge Structural Database (CSD) v543 
# hosted by the Cambridge Crystallographic Data Centre (CCDC).
#
# This work is licensed under the Creative Commons
# Attribution-NonCommercial-ShareAlike 4.0 International License.
# To view a copy of this license, visit
# http://creativecommons.org/licenses/by-nc-sa/4.0/
# or send a letter to
# Creative Commons, PO Box 1866, Mountain View, CA 94042, USA.
#
# CIF created using the CSD Python API on 29 September 2022
# The structure has been converted into the P1 space group
# The structure has a 3D framework
# The original CSD entry XUSQUY is in the monoclinic crystal system
# The framework has been calculated to contain at least 10.0% void space
# The void calculation uses a probe of radius 1.32A, grid spacing 0.4
#
###############################################################################

data_XUSQUY
_chemical_formula_moiety         '(C212 H184 Cu10 N16 O58)n'
_symmetry_cell_setting           triclinic
_symmetry_space_group_name_H-M   'P 1'
_symmetry_Int_Tables_number      1
_space_group_name_Hall           'P 1'
loop_
_symmetry_equiv_pos_site_id
_symmetry_equiv_pos_as_xyz
1 x,y,z
_cell_length_a                   17.7239(18)
_cell_length_b                   15.9708(16)
_cell_length_c                   19.4016(19)
_cell_angle_alpha                90
_cell_angle_beta                 98.1520(10)
_cell_angle_gamma                90
_cell_volume                     5436.42
loop_
_atom_site_label
_atom_site_type_symbol
_atom_site_fract_x
_atom_site_fract_y
_atom_site_fract_z
O13 O 0.22129(15) 0.03325(18) 0.24473(14)
O14 O 0.27610(16) 0.15840(19) 0.24673(16)
O15 O 0.06285(18) 0.3457(2) 0.32492(19)
C19 C 0.0089(2) 0.1419(2) 0.25397(19)
C20 C 0.0790(2) 0.1054(2) 0.24586(19)
H13 H 0.0810 0.0513 0.2286
C21 C 0.1456(2) 0.1514(3) 0.2641(2)
C22 C 0.1428(2) 0.2316(3) 0.2903(2)
H14 H 0.1876 0.2618 0.3021
C23 C 0.0729(2) 0.2676(3) 0.2993(2)
C24 C 0.0060(2) 0.2218(2) 0.2803(2)
C26 C 0.2207(2) 0.1139(3) 0.25149(19)
C27 C 0.1286(3) 0.3953(3) 0.3455(3)
H16 H 0.1615 0.3671 0.3818
H17 H 0.1137 0.4484 0.3623
H18 H 0.1552 0.4039 0.3063
Cu6 Cu 0.31700(3) 0.01092(3) 0.20920(2)
Cu2 Cu 0.77841(2) 0.07211(3) 0.217455(18)
O6 O 0.77833(16) 0.10714(18) 0.11838(13)
O11 O 0.87529(15) 0.12876(17) 0.24279(15)
O12 O 0.94133(15) 0.02320(17) 0.20519(15)
N3 N 0.70842(19) 0.1712(2) 0.24846(16)
N4 N 0.76224(19) 0.4623(2) 0.61365(17)
C10 C 0.8083(2) 0.1095(2) 0.00336(18)
H9 H 0.7923 0.2274 0.0383
C16 C 0.8079(2) 0.0681(2) 0.07299(19)
H12 H 0.8107 0.3574 0.0257
H15 H 0.9592 0.2455 0.2854
C25 C 0.9363(2) 0.0943(2) 0.23217(19)
C41 C 0.7166(2) 0.2517(3) 0.2308(2)
H33 H 0.7554 0.2658 0.2053
C42 C 0.6693(3) 0.3140(3) 0.2491(2)
H34 H 0.6765 0.3690 0.2358
C43 C 0.6109(3) 0.2950(3) 0.2874(2)
C44 C 0.6029(3) 0.2137(3) 0.3038(3)
H35 H 0.5641 0.1982 0.3288
C45 C 0.6512(3) 0.1531(3) 0.2841(2)
H36 H 0.6436 0.0977 0.2960
C46 C 0.5596(3) 0.3619(4) 0.3115(3)
H37 H 0.5073 0.3421 0.3047
H38 H 0.5620 0.4120 0.2837
C47 C 0.5838(4) 0.3834(4) 0.3895(3)
H39 H 0.5472 0.4219 0.4046
H40 H 0.5836 0.3327 0.4170
C48 C 0.6593(4) 0.4208(5) 0.4013(4)
H41 H 0.6570 0.4763 0.3807
H42 H 0.6938 0.3873 0.3783
C49 C 0.7873(3) 0.4019(3) 0.5757(3)
H43 H 0.8297 0.3710 0.5947
C50 C 0.7533(3) 0.3834(4) 0.5097(3)
H44 H 0.7726 0.3404 0.4851
C51 C 0.6910(3) 0.4278(4) 0.4796(3)
C52 C 0.6617(3) 0.4873(3) 0.5207(2)
H45 H 0.6175 0.5166 0.5040
C53 C 0.6993(2) 0.5022(3) 0.5867(2)
H46 H 0.6794 0.5424 0.6137
Cu8 Cu 0.81700(3) 0.48908(3) 0.70920(2)
O16 O 0.79784(17) 0.01241(17) 0.30982(13)
N6 N 0.26224(19) 0.0377(2) 0.11365(17)
O9 O 0.85879(17) 0.09575(18) 0.76975(13)
O10 O 0.8132(3) 0.32230(18) 0.93018(16)
C11 C 0.8188(3) 0.0634(2) 0.9450(2)
H7 H 0.8209 0.0053 0.9471
C12 C 0.8262(2) 0.1050(2) 0.88290(18)
C13 C 0.8257(2) 0.1917(2) 0.88008(19)
H8 H 0.8335 0.2191 0.8394
C14 C 0.8132(3) 0.2376(2) 0.9390(2)
C15 C 0.8029(2) 0.1969(2) 0.99991(19)
C17 C 0.8285(2) 0.0581(2) 0.81569(19)
C18 C 0.7849(5) 0.3717(3) 0.9803(3)
H10 H 0.7313 0.3619 0.9786
H11 H 0.7935 0.4297 0.9711
Cu4 Cu 0.85647(2) 0.05567(2) 0.674110(19)
Cu1 Cu 0.85647(2) 0.94433(2) 0.174110(19)
O1 O 0.75498(15) 0.89225(17) 0.14948(16)
O2 O 0.69134(15) 0.99817(16) 0.19051(15)
O3 O 0.41285(15) 0.98871(18) 0.17237(15)
O4 O 0.35531(18) 0.86461(19) 0.16053(17)
O5 O 0.56186(19) 0.6794(2) 0.0718(2)
O7 O 0.84130(16) 0.99771(17) 0.08158(13)
N1 N 0.92766(19) 0.8449(2) 0.14451(17)
C1 C 0.6207(2) 0.8809(2) 0.14362(19)
C2 C 0.5528(2) 0.9170(2) 0.15641(19)
H1 H 0.5528 0.9703 0.1756
C3 C 0.4852(2) 0.8732(2) 0.1405(2)
C4 C 0.4856(2) 0.7931(3) 0.1119(2)
H2 H 0.4402 0.7636 0.1014
C5 C 0.5535(2) 0.7575(3) 0.0990(2)
C6 C 0.6217(2) 0.8015(3) 0.1156(2)
H3 H 0.6675 0.7774 0.1077
C7 C 0.6948(2) 0.9274(2) 0.16259(19)
C8 C 0.4118(2) 0.9101(3) 0.1588(2)
C9 C 0.4947(3) 0.6315(3) 0.0531(3)
H4 H 0.4680 0.6262 0.0926
H5 H 0.5082 0.5769 0.0381
H6 H 0.4626 0.6589 0.0159
C28 C 0.9255(2) 0.7666(2) 0.1683(2)
H19 H 0.8891 0.7534 0.1967
C29 C 0.9743(2) 0.7045(3) 0.1530(2)
H20 H 0.9709 0.6511 0.1716
C32 C 0.9798(3) 0.8615(3) 0.1027(3)
H22 H 0.9822 0.9154 0.0852
C35 C 0.9790(4) 0.5741(4) 0.0119(3)
H27 H 0.9440 0.6076 0.0346
H28 H 0.9880 0.5223 0.0378
O17 O 0.85879(17) 0.90425(18) 0.26975(13)
N5 N 0.3691(2) 0.9838(2) 0.30492(18)
O8 O 0.79784(17) 0.98759(17) 0.80982(13)
N2 N 0.8691(2) 0.5162(2) 0.80492(18)
C36 C 0.8723(3) 0.5939(3) 0.8292(3)
H29 H 0.8496 0.6365 0.8007
C37 C 0.9080(3) 0.6143(3) 0.8952(2)
H30 H 0.9091 0.6697 0.9102
C38 C 0.9415(3) 0.5537(3) 0.9381(2)
C39 C 0.9396(3) 0.4729(3) 0.9128(3)
H31 H 0.9630 0.4297 0.9401
C40 C 0.9028(3) 0.4571(3) 0.8470(3)
H32 H 0.9014 0.4021 0.8310
Cu5 Cu 0.77841(2) 0.92789(3) 0.717455(18)
O13_2 O 0.22129(15) 0.96675(18) 0.74473(14)
O14_2 O 0.27610(16) 0.84160(19) 0.74673(16)
O15_2 O 0.06285(18) 0.6543(2) 0.82492(19)
C19_2 C 0.0089(2) 0.8581(2) 0.75397(19)
C20_2 C 0.0790(2) 0.8946(2) 0.74586(19)
H13_2 H 0.0810 0.9487 0.7286
C21_2 C 0.1456(2) 0.8486(3) 0.7641(2)
C22_2 C 0.1428(2) 0.7684(3) 0.7903(2)
H14_2 H 0.1876 0.7382 0.8021
C23_2 C 0.0729(2) 0.7324(3) 0.7993(2)
C24_2 C 0.0060(2) 0.7782(2) 0.7803(2)
C26_2 C 0.2207(2) 0.8861(3) 0.75149(19)
C27_2 C 0.1286(3) 0.6047(3) 0.8455(3)
H16_2 H 0.1615 0.6329 0.8818
H17_2 H 0.1137 0.5516 0.8623
H18_2 H 0.1552 0.5961 0.8063
Cu6_2 Cu 0.31700(3) 0.98908(3) 0.70920(2)
O1_2 O 0.75498(15) 0.10775(17) 0.64948(16)
O2_2 O 0.69134(15) 0.00183(16) 0.69051(15)
O3_2 O 0.41285(15) 0.01129(18) 0.67237(15)
O4_2 O 0.35531(18) 0.13539(19) 0.66053(17)
O5_2 O 0.56186(19) 0.3206(2) 0.5718(2)
O7_2 O 0.84130(16) 0.00229(17) 0.58158(13)
N1_2 N 0.92766(19) 0.1551(2) 0.64451(17)
N2_2 N 0.8691(2) 0.4838(2) 0.30492(18)
C1_2 C 0.6207(2) 0.1191(2) 0.64362(19)
C2_2 C 0.5528(2) 0.0830(2) 0.65641(19)
H1_2 H 0.5528 0.0297 0.6756
C3_2 C 0.4852(2) 0.1268(2) 0.6405(2)
C4_2 C 0.4856(2) 0.2069(3) 0.6119(2)
H2_2 H 0.4402 0.2364 0.6014
C5_2 C 0.5535(2) 0.2425(3) 0.5990(2)
C6_2 C 0.6217(2) 0.1985(3) 0.6156(2)
H3_2 H 0.6675 0.2226 0.6077
C7_2 C 0.6948(2) 0.0726(2) 0.66259(19)
C8_2 C 0.4118(2) 0.0899(3) 0.6588(2)
C9_2 C 0.4947(3) 0.3685(3) 0.5531(3)
H4_2 H 0.4680 0.3738 0.5926
H5_2 H 0.5082 0.4231 0.5381
H6_2 H 0.4626 0.3411 0.5159
C28_2 C 0.9255(2) 0.2334(2) 0.6683(2)
H19_2 H 0.8891 0.2466 0.6967
C29_2 C 0.9743(2) 0.2955(3) 0.6530(2)
H20_2 H 0.9709 0.3489 0.6716
C32_2 C 0.9798(3) 0.1385(3) 0.6027(3)
H22_2 H 0.9822 0.0846 0.5852
C35_2 C 0.9790(4) 0.4259(4) 0.5119(3)
H27_2 H 0.9440 0.3924 0.5346
H28_2 H 0.9880 0.4777 0.5378
C36_2 C 0.8723(3) 0.4061(3) 0.3292(3)
H29_2 H 0.8496 0.3635 0.3007
C37_2 C 0.9080(3) 0.3857(3) 0.3952(2)
H30_2 H 0.9091 0.3303 0.4102
C38_2 C 0.9415(3) 0.4463(3) 0.4381(2)
C39_2 C 0.9396(3) 0.5271(3) 0.4128(3)
H31_2 H 0.9630 0.5703 0.4401
C40_2 C 0.9028(3) 0.5429(3) 0.3470(3)
H32_2 H 0.9014 0.5979 0.3310
Cu7 Cu 0.81700(3) 0.51092(3) 0.20920(2)
N5_2 N 0.3691(2) 0.0162(2) 0.80492(18)
N4_2 N 0.76224(19) 0.5377(2) 0.11365(17)
C49_2 C 0.7873(3) 0.5981(3) 0.0757(3)
H43_2 H 0.8297 0.6290 0.0947
C50_2 C 0.7533(3) 0.6166(4) 0.0097(3)
C52_2 C 0.6617(3) 0.5127(3) 0.0207(2)
H45_2 H 0.6175 0.4834 0.0040
C53_2 C 0.6993(2) 0.4978(3) 0.0867(2)
H46_2 H 0.6794 0.4576 0.1137
O6_2 O 0.77833(16) 0.89286(18) 0.61838(13)
O10_2 O 0.8132(3) 0.67770(18) 0.43018(16)
O11_2 O 0.87529(15) 0.87124(17) 0.74279(15)
O12_2 O 0.94133(15) 0.97680(17) 0.70519(15)
N3_2 N 0.70842(19) 0.8288(2) 0.74846(16)
C10_2 C 0.8083(2) 0.8905(2) 0.50336(18)
C11_2 C 0.8188(3) 0.9366(2) 0.4450(2)
H7_2 H 0.8209 0.9947 0.4471
C12_2 C 0.8262(2) 0.8950(2) 0.38290(18)
C13_2 C 0.8257(2) 0.8083(2) 0.38008(19)
H8_2 H 0.8335 0.7809 0.3394
C14_2 C 0.8132(3) 0.7624(2) 0.4390(2)
C15_2 C 0.8029(2) 0.8031(2) 0.49991(19)
H9_2 H 0.7923 0.7726 0.5383
C16_2 C 0.8079(2) 0.9319(2) 0.57299(19)
C17_2 C 0.8285(2) 0.9419(2) 0.31569(19)
C18_2 C 0.7849(5) 0.6283(3) 0.4803(3)
H10_2 H 0.7313 0.6381 0.4786
H11_2 H 0.7935 0.5703 0.4711
H12_2 H 0.8107 0.6426 0.5257
H15_2 H 0.9592 0.7545 0.7854
C25_2 C 0.9363(2) 0.9057(2) 0.73217(19)
C41_2 C 0.7166(2) 0.7483(3) 0.7308(2)
H33_2 H 0.7554 0.7342 0.7053
C42_2 C 0.6693(3) 0.6860(3) 0.7491(2)
H34_2 H 0.6765 0.6310 0.7358
C43_2 C 0.6109(3) 0.7050(3) 0.7874(2)
C44_2 C 0.6029(3) 0.7863(3) 0.8038(3)
H35_2 H 0.5641 0.8018 0.8288
C45_2 C 0.6512(3) 0.8469(3) 0.7841(2)
H36_2 H 0.6436 0.9023 0.7960
C46_2 C 0.5596(3) 0.6381(4) 0.8115(3)
H37_2 H 0.5073 0.6579 0.8047
H38_2 H 0.5620 0.5880 0.7837
C47_2 C 0.5838(4) 0.6166(4) 0.8895(3)
H39_2 H 0.5472 0.5781 0.9046
H40_2 H 0.5836 0.6673 0.9170
C48_2 C 0.6593(4) 0.5792(5) 0.9013(4)
H41_2 H 0.6570 0.5237 0.8807
H42_2 H 0.6938 0.6127 0.8783
H44_2 H 0.7726 0.6596 0.9851
C51_2 C 0.6910(3) 0.5722(4) 0.9796(3)
N6_2 N 0.26224(19) 0.9623(2) 0.61365(17)
Cu1_2 Cu 0.35647(2) 0.44433(2) 0.174110(19)
Cu2_2 Cu 0.27841(2) 0.57211(3) 0.217455(18)
O1_3 O 0.25498(15) 0.39225(17) 0.14948(16)
O2_3 O 0.19134(15) 0.49817(16) 0.19051(15)
O5_3 O 0.06186(19) 0.1794(2) 0.0718(2)
O6_3 O 0.27833(16) 0.60714(18) 0.11838(13)
O7_3 O 0.34130(16) 0.49771(17) 0.08158(13)
O11_3 O 0.37529(15) 0.62876(17) 0.24279(15)
O12_3 O 0.44133(15) 0.52320(17) 0.20519(15)
O13_3 O 0.72129(15) 0.53325(18) 0.24473(14)
O14_3 O 0.77610(16) 0.65840(19) 0.24673(16)
O15_3 O 0.56285(18) 0.8457(2) 0.32492(19)
N1_3 N 0.42766(19) 0.3449(2) 0.14451(17)
N3_3 N 0.20842(19) 0.6712(2) 0.24846(16)
C1_3 C 0.1207(2) 0.3809(2) 0.14362(19)
C2_3 C 0.0528(2) 0.4170(2) 0.15641(19)
H1_3 H 0.0528 0.4703 0.1756
C5_3 C 0.0535(2) 0.2575(3) 0.0990(2)
C6_3 C 0.1217(2) 0.3015(3) 0.1156(2)
H3_3 H 0.1675 0.2774 0.1077
C7_3 C 0.1948(2) 0.4274(2) 0.16259(19)
H5_3 H 0.0082 0.0769 0.0381
C10_3 C 0.3083(2) 0.6095(2) 0.00336(18)
H9_3 H 0.2923 0.7274 0.0383
C16_3 C 0.3079(2) 0.5681(2) 0.07299(19)
H12_3 H 0.3107 0.8574 0.0257
C19_3 C 0.5089(2) 0.6419(2) 0.25397(19)
C20_3 C 0.5790(2) 0.6054(2) 0.24586(19)
H13_3 H 0.5810 0.5513 0.2286
C21_3 C 0.6456(2) 0.6514(3) 0.2641(2)
C22_3 C 0.6428(2) 0.7316(3) 0.2903(2)
H14_3 H 0.6876 0.7618 0.3021
C23_3 C 0.5729(2) 0.7676(3) 0.2993(2)
C24_3 C 0.5060(2) 0.7218(2) 0.2803(2)
H15_3 H 0.4592 0.7455 0.2854
C25_3 C 0.4363(2) 0.5943(2) 0.23217(19)
C26_3 C 0.7207(2) 0.6139(3) 0.25149(19)
C27_3 C 0.6286(3) 0.8953(3) 0.3455(3)
H16_3 H 0.6615 0.8671 0.3818
H17_3 H 0.6137 0.9484 0.3623
H18_3 H 0.6552 0.9039 0.3063
C28_3 C 0.4255(2) 0.2666(2) 0.1683(2)
H19_3 H 0.3891 0.2534 0.1967
C29_3 C 0.4743(2) 0.2045(3) 0.1530(2)
H20_3 H 0.4709 0.1511 0.1716
C30 C 0.5286(2) 0.2214(3) 0.1101(2)
C31 C 0.5302(3) 0.3019(3) 0.0845(3)
H21 H 0.5651 0.3162 0.0550
C32_3 C 0.4798(3) 0.3615(3) 0.1027(3)
H22_3 H 0.4822 0.4154 0.0852
C33 C 0.5814(3) 0.1548(3) 0.0884(2)
H23 H 0.5848 0.1090 0.1215
H24 H 0.6320 0.1783 0.0895
C34 C 0.5536(3) 0.1209(3) 0.0149(2)
H26 H 0.5919 0.0837 0.0009
C35_3 C 0.4790(4) 0.0741(4) 0.0119(3)
H27_3 H 0.4440 0.1076 0.0346
H28_3 H 0.4880 0.0223 0.0378
C41_3 C 0.2166(2) 0.7517(3) 0.2308(2)
H33_3 H 0.2554 0.7658 0.2053
C42_3 C 0.1693(3) 0.8140(3) 0.2491(2)
H34_3 H 0.1765 0.8690 0.2358
C43_3 C 0.1109(3) 0.7950(3) 0.2874(2)
C44_3 C 0.1029(3) 0.7137(3) 0.3038(3)
H35_3 H 0.0641 0.6982 0.3288
C45_3 C 0.1512(3) 0.6531(3) 0.2841(2)
H36_3 H 0.1436 0.5977 0.2960
C46_3 C 0.0596(3) 0.8619(4) 0.3115(3)
H37_3 H 0.0073 0.8421 0.3047
H38_3 H 0.0620 0.9120 0.2837
C47_3 C 0.0838(4) 0.8834(4) 0.3895(3)
H39_3 H 0.0472 0.9219 0.4046
H40_3 H 0.0836 0.8327 0.4170
C48_3 C 0.1593(4) 0.9208(5) 0.4013(4)
H41_3 H 0.1570 0.9763 0.3807
H42_3 H 0.1938 0.8873 0.3783
C49_3 C 0.2873(3) 0.9019(3) 0.5757(3)
H43_3 H 0.3297 0.8710 0.5947
C50_3 C 0.2533(3) 0.8834(4) 0.5097(3)
H44_3 H 0.2726 0.8404 0.4851
C51_3 C 0.1910(3) 0.9278(4) 0.4796(3)
C52_3 C 0.1617(3) 0.9873(3) 0.5207(2)
O16_2 O 0.29784(17) 0.51241(17) 0.30982(13)
O17_2 O 0.35879(17) 0.40425(18) 0.26975(13)
O8_2 O 0.29784(17) 0.48759(17) 0.80982(13)
O9_2 O 0.35879(17) 0.59575(18) 0.76975(13)
O10_3 O 0.3132(3) 0.82230(18) 0.93018(16)
C11_3 C 0.3188(3) 0.5634(2) 0.9450(2)
H7_3 H 0.3209 0.5053 0.9471
C12_3 C 0.3262(2) 0.6050(2) 0.88290(18)
C13_3 C 0.3257(2) 0.6917(2) 0.88008(19)
H8_3 H 0.3335 0.7191 0.8394
C14_3 C 0.3132(3) 0.7376(2) 0.9390(2)
C15_3 C 0.3029(2) 0.6969(2) 0.99991(19)
C17_3 C 0.3285(2) 0.5581(2) 0.81569(19)
C18_3 C 0.2849(5) 0.8717(3) 0.9803(3)
H10_3 H 0.2313 0.8619 0.9786
H11_3 H 0.2935 0.9297 0.9711
H25 H 0.5471 0.1672 0.9822
C36_3 C 0.3723(3) 0.0939(3) 0.8292(3)
H29_3 H 0.3496 0.1365 0.8007
C37_3 C 0.4080(3) 0.1143(3) 0.8952(2)
H30_3 H 0.4091 0.1697 0.9102
C38_3 C 0.4415(3) 0.0537(3) 0.9381(2)
Cu4_2 Cu 0.35647(2) 0.55567(2) 0.674110(19)
Cu5_2 Cu 0.27841(2) 0.42789(3) 0.717455(18)
C39_3 C 0.4396(3) 0.9729(3) 0.9128(3)
H31_3 H 0.4630 0.9297 0.9401
C40_3 C 0.4028(3) 0.9571(3) 0.8470(3)
H32_3 H 0.4014 0.9021 0.8310
O3_3 O 0.91285(15) 0.48871(18) 0.17237(15)
O4_3 O 0.85531(18) 0.36461(19) 0.16053(17)
C3_3 C 0.9852(2) 0.3732(2) 0.1405(2)
C4_3 C 0.9856(2) 0.2931(3) 0.1119(2)
H2_3 H 0.9402 0.2636 0.1014
C8_3 C 0.9118(2) 0.4101(3) 0.1588(2)
C9_3 C 0.9947(3) 0.1315(3) 0.0531(3)
H4_3 H 0.9680 0.1262 0.0926
H6_3 H 0.9626 0.1589 0.0159
C39_4 C 0.4396(3) 0.0271(3) 0.4128(3)
H31_4 H 0.4630 0.0703 0.4401
C40_4 C 0.4028(3) 0.0429(3) 0.3470(3)
H32_4 H 0.4014 0.0979 0.3310
C49_4 C 0.2873(3) 0.0981(3) 0.0757(3)
H43_4 H 0.3297 0.1290 0.0947
C50_4 C 0.2533(3) 0.1166(4) 0.0097(3)
C52_4 C 0.1617(3) 0.0127(3) 0.0207(2)
O1_4 O 0.25498(15) 0.60775(17) 0.64948(16)
O2_4 O 0.19134(15) 0.50183(16) 0.69051(15)
O5_4 O 0.06186(19) 0.8206(2) 0.5718(2)
O6_4 O 0.27833(16) 0.39286(18) 0.61838(13)
O7_4 O 0.34130(16) 0.50229(17) 0.58158(13)
O10_4 O 0.3132(3) 0.17770(18) 0.43018(16)
O11_4 O 0.37529(15) 0.37124(17) 0.74279(15)
O12_4 O 0.44133(15) 0.47680(17) 0.70519(15)
O13_4 O 0.72129(15) 0.46675(18) 0.74473(14)
O14_4 O 0.77610(16) 0.34160(19) 0.74673(16)
O15_4 O 0.56285(18) 0.1543(2) 0.82492(19)
N1_4 N 0.42766(19) 0.6551(2) 0.64451(17)
N3_4 N 0.20842(19) 0.3288(2) 0.74846(16)
C1_4 C 0.1207(2) 0.6191(2) 0.64362(19)
C2_4 C 0.0528(2) 0.5830(2) 0.65641(19)
H1_4 H 0.0528 0.5297 0.6756
C5_4 C 0.0535(2) 0.7425(3) 0.5990(2)
C6_4 C 0.1217(2) 0.6985(3) 0.6156(2)
H3_4 H 0.1675 0.7226 0.6077
C7_4 C 0.1948(2) 0.5726(2) 0.66259(19)
H5_4 H 0.0082 0.9231 0.5381
C10_4 C 0.3083(2) 0.3905(2) 0.50336(18)
C11_4 C 0.3188(3) 0.4366(2) 0.4450(2)
H7_4 H 0.3209 0.4947 0.4471
C12_4 C 0.3262(2) 0.3950(2) 0.38290(18)
C13_4 C 0.3257(2) 0.3083(2) 0.38008(19)
H8_4 H 0.3335 0.2809 0.3394
C14_4 C 0.3132(3) 0.2624(2) 0.4390(2)
C15_4 C 0.3029(2) 0.3031(2) 0.49991(19)
H9_4 H 0.2923 0.2726 0.5383
C16_4 C 0.3079(2) 0.4319(2) 0.57299(19)
C17_4 C 0.3285(2) 0.4419(2) 0.31569(19)
C18_4 C 0.2849(5) 0.1283(3) 0.4803(3)
H10_4 H 0.2313 0.1381 0.4786
H11_4 H 0.2935 0.0703 0.4711
H12_4 H 0.3107 0.1426 0.5257
C19_4 C 0.5089(2) 0.3581(2) 0.75397(19)
C20_4 C 0.5790(2) 0.3946(2) 0.74586(19)
H13_4 H 0.5810 0.4487 0.7286
C21_4 C 0.6456(2) 0.3486(3) 0.7641(2)
C22_4 C 0.6428(2) 0.2684(3) 0.7903(2)
H14_4 H 0.6876 0.2382 0.8021
C23_4 C 0.5729(2) 0.2324(3) 0.7993(2)
C24_4 C 0.5060(2) 0.2782(2) 0.7803(2)
H15_4 H 0.4592 0.2545 0.7854
C25_4 C 0.4363(2) 0.4057(2) 0.73217(19)
C26_4 C 0.7207(2) 0.3861(3) 0.75149(19)
C27_4 C 0.6286(3) 0.1047(3) 0.8455(3)
H16_4 H 0.6615 0.1329 0.8818
H17_4 H 0.6137 0.0516 0.8623
H18_4 H 0.6552 0.0961 0.8063
C28_4 C 0.4255(2) 0.7334(2) 0.6683(2)
H19_4 H 0.3891 0.7466 0.6967
C29_4 C 0.4743(2) 0.7955(3) 0.6530(2)
H20_4 H 0.4709 0.8489 0.6716
C30_2 C 0.5286(2) 0.7786(3) 0.6101(2)
C31_2 C 0.5302(3) 0.6981(3) 0.5845(3)
H21_2 H 0.5651 0.6838 0.5550
C32_4 C 0.4798(3) 0.6385(3) 0.6027(3)
H22_4 H 0.4822 0.5846 0.5852
C33_2 C 0.5814(3) 0.8452(3) 0.5884(2)
H23_2 H 0.5848 0.8910 0.6215
H24_2 H 0.6320 0.8217 0.5895
C34_2 C 0.5536(3) 0.8791(3) 0.5149(2)
H25_2 H 0.5471 0.8328 0.4822
H26_2 H 0.5919 0.9163 0.5009
C35_4 C 0.4790(4) 0.9259(4) 0.5119(3)
H27_4 H 0.4440 0.8924 0.5346
H28_4 H 0.4880 0.9777 0.5378
C36_4 C 0.3723(3) 0.9061(3) 0.3292(3)
H29_4 H 0.3496 0.8635 0.3007
C37_4 C 0.4080(3) 0.8857(3) 0.3952(2)
H30_4 H 0.4091 0.8303 0.4102
C38_4 C 0.4415(3) 0.9463(3) 0.4381(2)
C41_4 C 0.2166(2) 0.2483(3) 0.7308(2)
H33_4 H 0.2554 0.2342 0.7053
C42_4 C 0.1693(3) 0.1860(3) 0.7491(2)
H34_4 H 0.1765 0.1310 0.7358
C43_4 C 0.1109(3) 0.2050(3) 0.7874(2)
C44_4 C 0.1029(3) 0.2863(3) 0.8038(3)
H35_4 H 0.0641 0.3018 0.8288
C45_4 C 0.1512(3) 0.3469(3) 0.7841(2)
H36_4 H 0.1436 0.4023 0.7960
C46_4 C 0.0596(3) 0.1381(4) 0.8115(3)
H37_4 H 0.0073 0.1579 0.8047
H38_4 H 0.0620 0.0880 0.7837
C47_4 C 0.0838(4) 0.1166(4) 0.8895(3)
H39_4 H 0.0472 0.0781 0.9046
H40_4 H 0.0836 0.1673 0.9170
C48_4 C 0.1593(4) 0.0792(5) 0.9013(4)
H41_4 H 0.1570 0.0237 0.8807
H42_4 H 0.1938 0.1127 0.8783
H44_4 H 0.2726 0.1596 0.9851
C51_4 C 0.1910(3) 0.0722(4) 0.9796(3)
O3_4 O 0.91285(15) 0.51129(18) 0.67237(15)
O4_4 O 0.85531(18) 0.63539(19) 0.66053(17)
C3_4 C 0.9852(2) 0.6268(2) 0.6405(2)
C4_4 C 0.9856(2) 0.7069(3) 0.6119(2)
H2_4 H 0.9402 0.7364 0.6014
C8_4 C 0.9118(2) 0.5899(3) 0.6588(2)
C9_4 C 0.9947(3) 0.8685(3) 0.5531(3)
H4_4 H 0.9680 0.8738 0.5926
H6_4 H 0.9626 0.8411 0.5159
C30_3 C 0.0286(2) 0.7214(3) 0.1101(2)
C31_3 C 0.0302(3) 0.8019(3) 0.0845(3)
H21_3 H 0.0651 0.8162 0.0550
C33_3 C 0.0814(3) 0.6548(3) 0.0884(2)
H23_3 H 0.0848 0.6090 0.1215
H24_3 H 0.1320 0.6783 0.0895
C34_3 C 0.0536(3) 0.6209(3) 0.0149(2)
H26_3 H 0.0919 0.5837 0.0009
H25_3 H 0.0471 0.6672 0.9822
C30_4 C 0.0286(2) 0.2786(3) 0.6101(2)
C31_4 C 0.0302(3) 0.1981(3) 0.5845(3)
H21_4 H 0.0651 0.1838 0.5550
C33_4 C 0.0814(3) 0.3452(3) 0.5884(2)
H23_4 H 0.0848 0.3910 0.6215
H24_4 H 0.1320 0.3217 0.5895
C34_4 C 0.0536(3) 0.3791(3) 0.5149(2)
H25_4 H 0.0471 0.3328 0.4822
H26_4 H 0.0919 0.4163 0.5009
H45_3 H 0.1175 0.0166 0.5040
C53_3 C 0.1993(2) 0.0022(3) 0.5867(2)
H46_3 H 0.1794 0.0424 0.6137
H45_4 H 0.1175 0.9834 0.0040
C53_4 C 0.1993(2) 0.9978(3) 0.0867(2)
H46_4 H 0.1794 0.9576 0.1137
loop_
_geom_bond_atom_site_label_1
_geom_bond_atom_site_label_2
_geom_bond_site_symmetry_1
_geom_bond_site_symmetry_2
O13 C26 1_555 1_555
O14 C26 1_555 1_555
O15 C23 1_555 1_555
C19 C20 1_555 1_555
C20 H13 1_555 1_555
C21 C20 1_555 1_555
C22 C21 1_555 1_555
H14 C22 1_555 1_555
C23 C22 1_555 1_555
C24 C19 1_555 1_555
C26 C21 1_555 1_555
C27 O15 1_555 1_555
H16 C27 1_555 1_555
H17 C27 1_555 1_555
H18 C27 1_555 1_555
Cu6 O13 1_555 1_555
C23 C24 1_555 1_555
O6 Cu2 1_555 1_555
O11 Cu2 1_555 1_555
N3 Cu2 1_555 1_555
N4 C49 1_555 1_555
C16 O6 1_555 1_555
C25 O11 1_555 1_555
C41 N3 1_555 1_555
H33 C41 1_555 1_555
C42 C41 1_555 1_555
H34 C42 1_555 1_555
C43 C42 1_555 1_555
C44 C43 1_555 1_555
H35 C44 1_555 1_555
C45 N3 1_555 1_555
H36 C45 1_555 1_555
C46 C43 1_555 1_555
H37 C46 1_555 1_555
H38 C46 1_555 1_555
C47 C46 1_555 1_555
H39 C47 1_555 1_555
H40 C47 1_555 1_555
C48 C47 1_555 1_555
H41 C48 1_555 1_555
H42 C48 1_555 1_555
C49 H43 1_555 1_555
C50 C49 1_555 1_555
H44 C50 1_555 1_555
C51 C48 1_555 1_555
C52 C51 1_555 1_555
H45 C52 1_555 1_555
C53 N4 1_555 1_555
H46 C53 1_555 1_555
Cu8 N4 1_555 1_555
O16 Cu2 1_555 1_555
N6 Cu6 1_555 1_555
O12 C25 1_555 1_555
C10 C16 1_555 1_555
C44 C45 1_555 1_555
C50 C51 1_555 1_555
C52 C53 1_555 1_555
O9 C17 1_555 1_555
O10 C14 1_555 1_555
C11 H7 1_555 1_555
C12 C11 1_555 1_555
C13 C12 1_555 1_555
H8 C13 1_555 1_555
C14 C13 1_555 1_555
C17 C12 1_555 1_555
C18 O10 1_555 1_555
H10 C18 1_555 1_555
H11 C18 1_555 1_555
Cu4 O9 1_555 1_555
C14 C15 1_555 1_555
Cu1 O1 1_555 1_555
O1 C7 1_555 1_555
O2 C7 1_555 1_555
O3 C8 1_555 1_555
O4 C8 1_555 1_555
O5 C5 1_555 1_555
O7 Cu1 1_555 1_555
N1 Cu1 1_555 1_555
C1 C2 1_555 1_555
C2 H1 1_555 1_555
C3 C2 1_555 1_555
C4 C3 1_555 1_555
H2 C4 1_555 1_555
C5 C4 1_555 1_555
C6 C1 1_555 1_555
H3 C6 1_555 1_555
C7 C1 1_555 1_555
C8 C3 1_555 1_555
C9 O5 1_555 1_555
H4 C9 1_555 1_555
H5 C9 1_555 1_555
H6 C9 1_555 1_555
C28 N1 1_555 1_555
H19 C28 1_555 1_555
C29 C28 1_555 1_555
H20 C29 1_555 1_555
C32 N1 1_555 1_555
H22 C32 1_555 1_555
H27 C35 1_555 1_555
H28 C35 1_555 1_555
O17 Cu1 1_555 1_555
C5 C6 1_555 1_555
N2 C36 1_555 1_555
C36 H29 1_555 1_555
C37 C36 1_555 1_555
H30 C37 1_555 1_555
C39 C38 1_555 1_555
H31 C39 1_555 1_555
C40 N2 1_555 1_555
H32 C40 1_555 1_555
Cu5 O8 1_555 1_555
Cu8 N2 1_555 1_555
C37 C38 1_555 1_555
C39 C40 1_555 1_555
O13_2 C26_2 1_555 1_555
O14_2 C26_2 1_555 1_555
O15_2 C23_2 1_555 1_555
C19_2 C20_2 1_555 1_555
C20_2 H13_2 1_555 1_555
C21_2 C20_2 1_555 1_555
C22_2 C21_2 1_555 1_555
H14_2 C22_2 1_555 1_555
C23_2 C22_2 1_555 1_555
C24_2 C19_2 1_555 1_555
C26_2 C21_2 1_555 1_555
C27_2 O15_2 1_555 1_555
H16_2 C27_2 1_555 1_555
H17_2 C27_2 1_555 1_555
H18_2 C27_2 1_555 1_555
Cu6_2 O13_2 1_555 1_555
C23_2 C24_2 1_555 1_555
Cu4 O1_2 1_555 1_555
O1_2 C7_2 1_555 1_555
O2_2 C7_2 1_555 1_555
O3_2 C8_2 1_555 1_555
O4_2 C8_2 1_555 1_555
O5_2 C5_2 1_555 1_555
O7_2 Cu4 1_555 1_555
N1_2 Cu4 1_555 1_555
N2_2 C36_2 1_555 1_555
C1_2 C2_2 1_555 1_555
C2_2 H1_2 1_555 1_555
C3_2 C2_2 1_555 1_555
C4_2 C3_2 1_555 1_555
H2_2 C4_2 1_555 1_555
C5_2 C4_2 1_555 1_555
C6_2 C1_2 1_555 1_555
H3_2 C6_2 1_555 1_555
C7_2 C1_2 1_555 1_555
C8_2 C3_2 1_555 1_555
C9_2 O5_2 1_555 1_555
H4_2 C9_2 1_555 1_555
H5_2 C9_2 1_555 1_555
H6_2 C9_2 1_555 1_555
C28_2 N1_2 1_555 1_555
H19_2 C28_2 1_555 1_555
C29_2 C28_2 1_555 1_555
H20_2 C29_2 1_555 1_555
C32_2 N1_2 1_555 1_555
H22_2 C32_2 1_555 1_555
H27_2 C35_2 1_555 1_555
H28_2 C35_2 1_555 1_555
C36_2 H29_2 1_555 1_555
C37_2 C36_2 1_555 1_555
H30_2 C37_2 1_555 1_555
C38_2 C35_2 1_555 1_555
C39_2 C38_2 1_555 1_555
H31_2 C39_2 1_555 1_555
C40_2 N2_2 1_555 1_555
H32_2 C40_2 1_555 1_555
Cu7 N2_2 1_555 1_555
C5_2 C6_2 1_555 1_555
C37_2 C38_2 1_555 1_555
C39_2 C40_2 1_555 1_555
N4_2 C49_2 1_555 1_555
C49_2 H43_2 1_555 1_555
C50_2 C49_2 1_555 1_555
H45_2 C52_2 1_555 1_555
C53_2 N4_2 1_555 1_555
H46_2 C53_2 1_555 1_555
Cu7 N4_2 1_555 1_555
C52_2 C53_2 1_555 1_555
O6_2 Cu5 1_555 1_555
O17 C17_2 1_555 1_555
O10_2 C14_2 1_555 1_555
O11_2 Cu5 1_555 1_555
N3_2 Cu5 1_555 1_555
C10_2 C11_2 1_555 1_555
C11_2 H7_2 1_555 1_555
C12_2 C11_2 1_555 1_555
C13_2 C12_2 1_555 1_555
H8_2 C13_2 1_555 1_555
C14_2 C13_2 1_555 1_555
C15_2 C10_2 1_555 1_555
H9_2 C15_2 1_555 1_555
C16_2 O6_2 1_555 1_555
C17_2 C12_2 1_555 1_555
C18_2 O10_2 1_555 1_555
H10_2 C18_2 1_555 1_555
H11_2 C18_2 1_555 1_555
H12_2 C18_2 1_555 1_555
C25_2 O11_2 1_555 1_555
C41_2 N3_2 1_555 1_555
H33_2 C41_2 1_555 1_555
C42_2 C41_2 1_555 1_555
H34_2 C42_2 1_555 1_555
C43_2 C42_2 1_555 1_555
C44_2 C43_2 1_555 1_555
H35_2 C44_2 1_555 1_555
C45_2 N3_2 1_555 1_555
H36_2 C45_2 1_555 1_555
C46_2 C43_2 1_555 1_555
H37_2 C46_2 1_555 1_555
H38_2 C46_2 1_555 1_555
C47_2 C46_2 1_555 1_555
H39_2 C47_2 1_555 1_555
H40_2 C47_2 1_555 1_555
C48_2 C47_2 1_555 1_555
H41_2 C48_2 1_555 1_555
H42_2 C48_2 1_555 1_555
C51_2 C48_2 1_555 1_555
N6_2 Cu6_2 1_555 1_555
O12_2 C25_2 1_555 1_555
C10_2 C16_2 1_555 1_555
C14_2 C15_2 1_555 1_555
C44_2 C45_2 1_555 1_555
Cu1_2 O1_3 1_555 1_555
Cu2_2 O2_3 1_555 1_555
O1_3 C7_3 1_555 1_555
O2_3 C7_3 1_555 1_555
O5_3 C5_3 1_555 1_555
O6_3 Cu2_2 1_555 1_555
O7_3 Cu1_2 1_555 1_555
O11_3 Cu2_2 1_555 1_555
O12_3 Cu1_2 1_555 1_555
O13_3 C26_3 1_555 1_555
O14_3 C26_3 1_555 1_555
O15_3 C23_3 1_555 1_555
N1_3 Cu1_2 1_555 1_555
N3_3 Cu2_2 1_555 1_555
N6_2 C49_3 1_555 1_555
C1_3 C2_3 1_555 1_555
C2_3 H1_3 1_555 1_555
C6_3 C1_3 1_555 1_555
H3_3 C6_3 1_555 1_555
C7_3 C1_3 1_555 1_555
C16_3 O6_3 1_555 1_555
C19_3 C20_3 1_555 1_555
C20_3 H13_3 1_555 1_555
C21_3 C20_3 1_555 1_555
C22_3 C21_3 1_555 1_555
H14_3 C22_3 1_555 1_555
C23_3 C22_3 1_555 1_555
C24_3 C19_3 1_555 1_555
H15_3 C24_3 1_555 1_555
C25_3 O11_3 1_555 1_555
C26_3 C21_3 1_555 1_555
C27_3 O15_3 1_555 1_555
H16_3 C27_3 1_555 1_555
H17_3 C27_3 1_555 1_555
H18_3 C27_3 1_555 1_555
C28_3 N1_3 1_555 1_555
H19_3 C28_3 1_555 1_555
C29_3 C28_3 1_555 1_555
H20_3 C29_3 1_555 1_555
C30 C29_3 1_555 1_555
C31 C30 1_555 1_555
H21 C31 1_555 1_555
C32_3 N1_3 1_555 1_555
H22_3 C32_3 1_555 1_555
C33 C30 1_555 1_555
H23 C33 1_555 1_555
H24 C33 1_555 1_555
C34 C33 1_555 1_555
H26 C34 1_555 1_555
C35_3 C34 1_555 1_555
H27_3 C35_3 1_555 1_555
H28_3 C35_3 1_555 1_555
C41_3 N3_3 1_555 1_555
H33_3 C41_3 1_555 1_555
C42_3 C41_3 1_555 1_555
H34_3 C42_3 1_555 1_555
C43_3 C42_3 1_555 1_555
C44_3 C43_3 1_555 1_555
H35_3 C44_3 1_555 1_555
C45_3 N3_3 1_555 1_555
H36_3 C45_3 1_555 1_555
C46_3 C43_3 1_555 1_555
H37_3 C46_3 1_555 1_555
H38_3 C46_3 1_555 1_555
C47_3 C46_3 1_555 1_555
H39_3 C47_3 1_555 1_555
H40_3 C47_3 1_555 1_555
C48_3 C47_3 1_555 1_555
H41_3 C48_3 1_555 1_555
H42_3 C48_3 1_555 1_555
C49_3 H43_3 1_555 1_555
C50_3 C49_3 1_555 1_555
H44_3 C50_3 1_555 1_555
C51_3 C48_3 1_555 1_555
C52_3 C51_3 1_555 1_555
Cu7 O13_3 1_555 1_555
O16_2 Cu2_2 1_555 1_555
O17_2 Cu1_2 1_555 1_555
O7_3 C16_3 1_555 1_555
O12_3 C25_3 1_555 1_555
C5_3 C6_3 1_555 1_555
C10_3 C16_3 1_555 1_555
C19_3 C25_3 1_555 1_555
C23_3 C24_3 1_555 1_555
C31 C32_3 1_555 1_555
C44_3 C45_3 1_555 1_555
C50_3 C51_3 1_555 1_555
O8_2 C17_3 1_555 1_555
O9_2 C17_3 1_555 1_555
O10_3 C14_3 1_555 1_555
N5_2 C36_3 1_555 1_555
C11_3 H7_3 1_555 1_555
C12_3 C11_3 1_555 1_555
C13_3 C12_3 1_555 1_555
H8_3 C13_3 1_555 1_555
C14_3 C13_3 1_555 1_555
C17_3 C12_3 1_555 1_555
C18_3 O10_3 1_555 1_555
H10_3 C18_3 1_555 1_555
H11_3 C18_3 1_555 1_555
C36_3 H29_3 1_555 1_555
C37_3 C36_3 1_555 1_555
H30_3 C37_3 1_555 1_555
Cu4_2 O9_2 1_555 1_555
Cu5_2 O8_2 1_555 1_555
C14_3 C15_3 1_555 1_555
C37_3 C38_3 1_555 1_555
H31_3 C39_3 1_555 1_555
H32_3 C40_3 1_555 1_555
C39_3 C40_3 1_555 1_555
Cu7 O3_3 1_555 1_555
O3_3 C8_3 1_555 1_555
O4_3 C8_3 1_555 1_555
C4_3 C3_3 1_555 1_555
H2_3 C4_3 1_555 1_555
C8_3 C3_3 1_555 1_555
H4_3 C9_3 1_555 1_555
H6_3 C9_3 1_555 1_555
H31_4 C39_4 1_555 1_555
H32_4 C40_4 1_555 1_555
C39_4 C40_4 1_555 1_555
N6 C49_4 1_555 1_555
C49_4 H43_4 1_555 1_555
C50_4 C49_4 1_555 1_555
Cu4_2 O1_4 1_555 1_555
Cu5_2 O2_4 1_555 1_555
O1_4 C7_4 1_555 1_555
O2_4 C7_4 1_555 1_555
O5_4 C5_4 1_555 1_555
O6_4 Cu5_2 1_555 1_555
O7_4 Cu4_2 1_555 1_555
O16_2 C17_4 1_555 1_555
O17_2 C17_4 1_555 1_555
O10_4 C14_4 1_555 1_555
O11_4 Cu5_2 1_555 1_555
O12_4 Cu4_2 1_555 1_555
O13_4 C26_4 1_555 1_555
O14_4 C26_4 1_555 1_555
O15_4 C23_4 1_555 1_555
N1_4 Cu4_2 1_555 1_555
N5 C36_4 1_555 1_555
N3_4 Cu5_2 1_555 1_555
C1_4 C2_4 1_555 1_555
C2_4 H1_4 1_555 1_555
C6_4 C1_4 1_555 1_555
H3_4 C6_4 1_555 1_555
C7_4 C1_4 1_555 1_555
C10_4 C11_4 1_555 1_555
C11_4 H7_4 1_555 1_555
C12_4 C11_4 1_555 1_555
C13_4 C12_4 1_555 1_555
H8_4 C13_4 1_555 1_555
C14_4 C13_4 1_555 1_555
C15_4 C10_4 1_555 1_555
H9_4 C15_4 1_555 1_555
C16_4 O6_4 1_555 1_555
C17_4 C12_4 1_555 1_555
C18_4 O10_4 1_555 1_555
H10_4 C18_4 1_555 1_555
H11_4 C18_4 1_555 1_555
H12_4 C18_4 1_555 1_555
C19_4 C20_4 1_555 1_555
C20_4 H13_4 1_555 1_555
C21_4 C20_4 1_555 1_555
C22_4 C21_4 1_555 1_555
H14_4 C22_4 1_555 1_555
C23_4 C22_4 1_555 1_555
C24_4 C19_4 1_555 1_555
H15_4 C24_4 1_555 1_555
C25_4 O11_4 1_555 1_555
C26_4 C21_4 1_555 1_555
C27_4 O15_4 1_555 1_555
H16_4 C27_4 1_555 1_555
H17_4 C27_4 1_555 1_555
H18_4 C27_4 1_555 1_555
C28_4 N1_4 1_555 1_555
H19_4 C28_4 1_555 1_555
C29_4 C28_4 1_555 1_555
H20_4 C29_4 1_555 1_555
C30_2 C29_4 1_555 1_555
C31_2 C30_2 1_555 1_555
H21_2 C31_2 1_555 1_555
C32_4 N1_4 1_555 1_555
H22_4 C32_4 1_555 1_555
C33_2 C30_2 1_555 1_555
H23_2 C33_2 1_555 1_555
H24_2 C33_2 1_555 1_555
C34_2 C33_2 1_555 1_555
H25_2 C34_2 1_555 1_555
H26_2 C34_2 1_555 1_555
C35_4 C34_2 1_555 1_555
H27_4 C35_4 1_555 1_555
H28_4 C35_4 1_555 1_555
C36_4 H29_4 1_555 1_555
C37_4 C36_4 1_555 1_555
H30_4 C37_4 1_555 1_555
C38_4 C35_4 1_555 1_555
C41_4 N3_4 1_555 1_555
H33_4 C41_4 1_555 1_555
C42_4 C41_4 1_555 1_555
H34_4 C42_4 1_555 1_555
C43_4 C42_4 1_555 1_555
C44_4 C43_4 1_555 1_555
H35_4 C44_4 1_555 1_555
C45_4 N3_4 1_555 1_555
H36_4 C45_4 1_555 1_555
C46_4 C43_4 1_555 1_555
H37_4 C46_4 1_555 1_555
H38_4 C46_4 1_555 1_555
C47_4 C46_4 1_555 1_555
H39_4 C47_4 1_555 1_555
H40_4 C47_4 1_555 1_555
C48_4 C47_4 1_555 1_555
H41_4 C48_4 1_555 1_555
H42_4 C48_4 1_555 1_555
C51_4 C48_4 1_555 1_555
Cu8 O13_4 1_555 1_555
O7_4 C16_4 1_555 1_555
O12_4 C25_4 1_555 1_555
C5_4 C6_4 1_555 1_555
C10_4 C16_4 1_555 1_555
C14_4 C15_4 1_555 1_555
C19_4 C25_4 1_555 1_555
C23_4 C24_4 1_555 1_555
C31_2 C32_4 1_555 1_555
C37_4 C38_4 1_555 1_555
C44_4 C45_4 1_555 1_555
Cu8 O3_4 1_555 1_555
O3_4 C8_4 1_555 1_555
O4_4 C8_4 1_555 1_555
C4_4 C3_4 1_555 1_555
H2_4 C4_4 1_555 1_555
C8_4 C3_4 1_555 1_555
H4_4 C9_4 1_555 1_555
H6_4 C9_4 1_555 1_555
C31_3 C30_3 1_555 1_555
H21_3 C31_3 1_555 1_555
C33_3 C30_3 1_555 1_555
H23_3 C33_3 1_555 1_555
H24_3 C33_3 1_555 1_555
C34_3 C33_3 1_555 1_555
H26_3 C34_3 1_555 1_555
C31_4 C30_4 1_555 1_555
H21_4 C31_4 1_555 1_555
C33_4 C30_4 1_555 1_555
H23_4 C33_4 1_555 1_555
H24_4 C33_4 1_555 1_555
C34_4 C33_4 1_555 1_555
H25_4 C34_4 1_555 1_555
H26_4 C34_4 1_555 1_555
H46_3 C53_3 1_555 1_555
H46_4 C53_4 1_555 1_555

#END
