
###############################################################################
#
# This file contains modified crystal structure data generated from the
# MOF subset of the Cambridge Structural Database (CSD) v543 
# hosted by the Cambridge Crystallographic Data Centre (CCDC).
#
# This work is licensed under the Creative Commons
# Attribution-NonCommercial-ShareAlike 4.0 International License.
# To view a copy of this license, visit
# http://creativecommons.org/licenses/by-nc-sa/4.0/
# or send a letter to
# Creative Commons, PO Box 1866, Mountain View, CA 94042, USA.
#
# CIF created using the CSD Python API on 29 September 2022
# The structure has been converted into the P1 space group
# The structure has a 3D framework
# The original CSD entry XUSZAP is in the tetragonal crystal system
# The framework has been calculated to contain at least 10.0% void space
# The void calculation uses a probe of radius 1.32A, grid spacing 0.4
# H atom positions have been added when not included in the experimental data
# Generated hydrogen atom positions removed from atoms on special positions
#
###############################################################################

data_XUSZAP
_chemical_formula_moiety         '(C96 H160 Cu12 N16 O58 S16 Zr14)n'
_symmetry_cell_setting           triclinic
_symmetry_space_group_name_H-M   'P 1'
_symmetry_Int_Tables_number      1
_space_group_name_Hall           'P 1'
loop_
_symmetry_equiv_pos_site_id
_symmetry_equiv_pos_as_xyz
1 x,y,z
_cell_length_a                   16.3246(7)
_cell_length_b                   16.3246(7)
_cell_length_c                   29.1864(13)
_cell_angle_alpha                90
_cell_angle_beta                 90
_cell_angle_gamma                90
_cell_volume                     7777.96
loop_
_atom_site_label
_atom_site_type_symbol
_atom_site_fract_x
_atom_site_fract_y
_atom_site_fract_z
Zr1 Zr 0.39356(3) 0.60644(3) 0.5000
Zr2 Zr 0.42354(3) 0.42354(3) 0.560547(16)
Cu1 Cu 0.07808(5) 0.46262(5) 0.27914(2)
S1 S 0.00775(8) 0.64447(8) 0.28829(4)
O1 O 0.2869(2) 0.5998(2) 0.45435(10)
O2 O 0.3294(2) 0.3294(2) 0.5588(2)
O3 O 0.3049(3) 0.4829(2) 0.41414(13)
O4 O 0.4311(3) 0.4311(3) 0.63509(17)
O5 O 0.3707(4) 0.4752(4) 0.5000
O6 O 0.4472(3) 0.5528(3) 0.5606(3)
N1 N 0.1134(3) 0.5402(2) 0.32822(12)
C1 C 0.2699(3) 0.5494(3) 0.42240(15)
C2 C 0.2022(3) 0.5753(3) 0.39080(16)
C3 C 0.1731(3) 0.5200(3) 0.35793(15)
H1 H 0.1961 0.4666 0.3566
C4 C 0.0816(3) 0.6159(3) 0.32956(15)
C5 C 0.1674(4) 0.6528(4) 0.39202(19)
H2 H 0.1850 0.6918 0.4141
C6 C 0.1076(4) 0.6726(3) 0.36112(19)
H3 H 0.0839 0.7258 0.3615
Zr3 Zr 0.42354(3) 0.42354(3) 0.439453(16)
Cu4 Cu 0.07808(5) 0.46262(5) 0.72086(2)
S4 S 0.00775(8) 0.64447(8) 0.71171(4)
O11 O 0.2869(2) 0.5998(2) 0.54565(10)
O12 O 0.3294(2) 0.3294(2) 0.4412(2)
O13 O 0.3049(3) 0.4829(2) 0.58586(13)
O14 O 0.4311(3) 0.4311(3) 0.36491(17)
O15 O 0.4472(3) 0.5528(3) 0.4394(3)
N4 N 0.1134(3) 0.5402(2) 0.67178(12)
C19 C 0.2699(3) 0.5494(3) 0.57760(15)
C20 C 0.2022(3) 0.5753(3) 0.60920(16)
C21 C 0.1731(3) 0.5200(3) 0.64207(15)
H10 H 0.1961 0.4666 0.6434
C22 C 0.0816(3) 0.6159(3) 0.67044(15)
C23 C 0.1674(4) 0.6528(4) 0.60798(19)
H11 H 0.1850 0.6918 0.5859
C24 C 0.1076(4) 0.6726(3) 0.63888(19)
H12 H 0.0839 0.7258 0.6385
O16 O 0.5248(4) 0.6293(4) 0.5000
Zr6 Zr 0.57646(3) 0.57646(3) 0.560547(16)
Zr8 Zr 0.57646(3) 0.57646(3) 0.439453(16)
Cu5 Cu 0.03738(5) 0.57808(5) 0.77914(2)
Cu8 Cu 0.03738(5) 0.57808(5) 0.22086(2)
S6 S 0.14447(8) 0.49225(8) 0.78829(4)
S7 S 0.14447(8) 0.49225(8) 0.21171(4)
O17 O 0.4002(2) 0.7131(2) 0.54565(10)
O18 O 0.4002(2) 0.7131(2) 0.45435(10)
O19 O 0.4829(2) 0.3049(3) 0.58586(13)
O20 O 0.4829(2) 0.3049(3) 0.41414(13)
O21 O 0.4752(4) 0.3707(4) 0.5000
O22 O 0.5528(3) 0.4472(3) 0.5606(3)
O23 O 0.5528(3) 0.4472(3) 0.4394(3)
Cu2 Cu 0.92192(5) 0.53738(5) 0.27914(2)
S2 S 0.99225(8) 0.35553(8) 0.28829(4)
O7 O 0.7131(2) 0.4002(2) 0.45435(10)
O8 O 0.6951(3) 0.5171(2) 0.41414(13)
N2 N 0.8866(3) 0.4598(2) 0.32822(12)
C7 C 0.7301(3) 0.4506(3) 0.42240(15)
C8 C 0.7978(3) 0.4247(3) 0.39080(16)
C9 C 0.8269(3) 0.4800(3) 0.35793(15)
H4 H 0.8039 0.5334 0.3566
C10 C 0.9184(3) 0.3841(3) 0.32956(15)
C11 C 0.8326(4) 0.3472(4) 0.39202(19)
H5 H 0.8150 0.3082 0.4141
C12 C 0.8924(4) 0.3274(3) 0.36112(19)
H6 H 0.9161 0.2742 0.3615
Cu3 Cu 0.92192(5) 0.53738(5) 0.72086(2)
S3 S 0.99225(8) 0.35553(8) 0.71171(4)
O9 O 0.7131(2) 0.4002(2) 0.54565(10)
O10 O 0.6951(3) 0.5171(2) 0.58586(13)
N3 N 0.8866(3) 0.4598(2) 0.67178(12)
C13 C 0.7301(3) 0.4506(3) 0.57760(15)
C14 C 0.7978(3) 0.4247(3) 0.60920(16)
C15 C 0.8269(3) 0.4800(3) 0.64207(15)
H7 H 0.8039 0.5334 0.6434
C16 C 0.9184(3) 0.3841(3) 0.67044(15)
C17 C 0.8326(4) 0.3472(4) 0.60798(19)
H8 H 0.8150 0.3082 0.5859
C18 C 0.8924(4) 0.3274(3) 0.63888(19)
H9 H 0.9161 0.2742 0.6385
Zr4 Zr 0.60644(3) 0.39356(3) 0.5000
Cu6 Cu 0.96262(5) 0.42192(5) 0.77914(2)
Cu7 Cu 0.96262(5) 0.42192(5) 0.22086(2)
S5 S 0.85553(8) 0.50775(8) 0.78829(4)
S8 S 0.85553(8) 0.50775(8) 0.21171(4)
O2_2 O 0.6706(2) 0.6706(2) 0.5588(2)
O4_2 O 0.5689(3) 0.5689(3) 0.63509(17)
O5_2 O 0.6293(4) 0.5248(4) 0.5000
O12_2 O 0.6706(2) 0.6706(2) 0.4412(2)
O14_2 O 0.5689(3) 0.5689(3) 0.36491(17)
O17_2 O 0.5998(2) 0.2869(2) 0.54565(10)
O18_2 O 0.5998(2) 0.2869(2) 0.45435(10)
O19_2 O 0.5171(2) 0.6951(3) 0.58586(13)
O20_2 O 0.5171(2) 0.6951(3) 0.41414(13)
O22_2 O 0.0528(3) 0.0528(3) 0.0606(3)
O23_2 O 0.0528(3) 0.0528(3) 0.9394(3)
Zr2_2 Zr 0.07646(3) 0.92354(3) 0.060547(16)
O2_3 O 0.1706(2) 0.8294(2) 0.0588(2)
O4_3 O 0.0689(3) 0.9311(3) 0.13509(17)
O5_3 O 0.0248(4) 0.8707(4) 0.0000
O9_2 O 0.0998(2) 0.2131(2) 0.04565(10)
N3_2 N 0.0402(2) 0.3866(3) 0.17178(12)
C13_2 C 0.0494(3) 0.2301(3) 0.07760(15)
C14_2 C 0.0753(3) 0.2978(3) 0.10920(16)
C15_2 C 0.0200(3) 0.3269(3) 0.14207(15)
C16_2 C 0.1159(3) 0.4184(3) 0.17044(15)
C17_2 C 0.1528(4) 0.3326(4) 0.10798(19)
H8_2 H 0.1918 0.3150 0.0859
C18_2 C 0.1726(3) 0.3924(4) 0.13888(19)
H9_2 H 0.2258 0.4161 0.1385
O13_2 O 0.0171(2) 0.8049(3) 0.08586(13)
H10_2 H 0.0334 0.6961 0.1434
Zr4_2 Zr 0.10644(3) 0.10644(3) 0.0000
O19_3 O 0.1951(3) 0.9829(2) 0.08586(13)
O21_2 O 0.1293(4) 0.9752(4) 0.0000
O3_2 O 0.0171(2) 0.8049(3) 0.91414(13)
O5_4 O 0.0248(4) 0.8707(4) 1.0000
H1_2 H 0.0334 0.6961 0.8566
O7_2 O 0.0998(2) 0.2131(2) 0.95435(10)
N2_2 N 0.0402(2) 0.3866(3) 0.82822(12)
C7_2 C 0.0494(3) 0.2301(3) 0.92240(15)
C8_2 C 0.0753(3) 0.2978(3) 0.89080(16)
C9_2 C 0.0200(3) 0.3269(3) 0.85793(15)
C10_2 C 0.1159(3) 0.4184(3) 0.82956(15)
C11_2 C 0.1528(4) 0.3326(4) 0.89202(19)
H5_2 H 0.1918 0.3150 0.9141
C12_2 C 0.1726(3) 0.3924(4) 0.86112(19)
H6_2 H 0.2258 0.4161 0.8615
Zr3_2 Zr 0.07646(3) 0.92354(3) 0.939453(16)
O12_3 O 0.1706(2) 0.8294(2) 0.9412(2)
O14_3 O 0.0689(3) 0.9311(3) 0.86491(17)
Zr4_3 Zr 0.10644(3) 0.10644(3) 1.0000
O20_3 O 0.1951(3) 0.9829(2) 0.91414(13)
O21_3 O 0.1293(4) 0.9752(4) 1.0000
O16_2 O 0.8707(4) 0.0248(4) 0.0000
Zr6_2 Zr 0.92354(3) 0.07646(3) 0.060547(16)
O16_3 O 0.8707(4) 0.0248(4) 1.0000
Zr8_2 Zr 0.92354(3) 0.07646(3) 0.939453(16)
Zr1_2 Zr 0.89356(3) 0.89356(3) 0.0000
O6_2 O 0.9472(3) 0.9472(3) 0.0606(3)
O10_2 O 0.9829(2) 0.1951(3) 0.08586(13)
H7_2 H 0.9666 0.3039 0.1434
O11_2 O 0.9002(2) 0.7869(2) 0.04565(10)
N4_2 N 0.9598(2) 0.6134(3) 0.17178(12)
C19_2 C 0.9506(3) 0.7699(3) 0.07760(15)
C20_2 C 0.9247(3) 0.7022(3) 0.10920(16)
C21_2 C 0.9800(3) 0.6731(3) 0.14207(15)
C22_2 C 0.8841(3) 0.5816(3) 0.17044(15)
C23_2 C 0.8472(4) 0.6674(4) 0.10798(19)
H11_2 H 0.8082 0.6850 0.0859
C24_2 C 0.8274(3) 0.6076(4) 0.13888(19)
H12_2 H 0.7742 0.5839 0.1385
O17_3 O 0.7869(2) 0.9002(2) 0.04565(10)
Zr1_3 Zr 0.89356(3) 0.89356(3) 1.0000
O1_2 O 0.9002(2) 0.7869(2) 0.95435(10)
N1_2 N 0.9598(2) 0.6134(3) 0.82822(12)
C1_2 C 0.9506(3) 0.7699(3) 0.92240(15)
C2_2 C 0.9247(3) 0.7022(3) 0.89080(16)
C3_2 C 0.9800(3) 0.6731(3) 0.85793(15)
C4_2 C 0.8841(3) 0.5816(3) 0.82956(15)
C5_2 C 0.8472(4) 0.6674(4) 0.89202(19)
H2_2 H 0.8082 0.6850 0.9141
C6_2 C 0.8274(3) 0.6076(4) 0.86112(19)
H3_2 H 0.7742 0.5839 0.8615
O8_2 O 0.9829(2) 0.1951(3) 0.91414(13)
H4_2 H 0.9666 0.3039 0.8566
O15_2 O 0.9472(3) 0.9472(3) 0.9394(3)
O18_3 O 0.7869(2) 0.9002(2) 0.95435(10)
O17_4 O 0.2131(2) 0.0998(2) 0.04565(10)
O18_4 O 0.2131(2) 0.0998(2) 0.95435(10)
O2_4 O 0.8294(2) 0.1706(2) 0.0588(2)
O4_4 O 0.9311(3) 0.0689(3) 0.13509(17)
O5_5 O 0.9752(4) 0.1293(4) 0.0000
O19_4 O 0.8049(3) 0.0171(2) 0.08586(13)
O5_6 O 0.9752(4) 0.1293(4) 1.0000
O12_4 O 0.8294(2) 0.1706(2) 0.9412(2)
O14_4 O 0.9311(3) 0.0689(3) 0.86491(17)
O20_4 O 0.8049(3) 0.0171(2) 0.91414(13)
S1_2 S 0.49225(8) 0.14447(8) 0.21171(4)
N1_3 N 0.3866(3) 0.0402(2) 0.17178(12)
C1_3 C 0.2301(3) 0.0494(3) 0.07760(15)
C2_3 C 0.2978(3) 0.0753(3) 0.10920(16)
C3_3 C 0.3269(3) 0.0200(3) 0.14207(15)
C4_3 C 0.4184(3) 0.1159(3) 0.17044(15)
C5_3 C 0.3326(4) 0.1528(4) 0.10798(19)
H2_3 H 0.3150 0.1918 0.0859
C6_3 C 0.3924(4) 0.1726(3) 0.13888(19)
H3_3 H 0.4161 0.2258 0.1385
Cu2_2 Cu 0.57808(5) 0.03738(5) 0.22086(2)
H4_3 H 0.6961 0.0334 0.1434
Cu8_2 Cu 0.46262(5) 0.07808(5) 0.27914(2)
S8_2 S 0.64447(8) 0.00775(8) 0.28829(4)
Cu3_2 Cu 0.57808(5) 0.03738(5) 0.77914(2)
H7_3 H 0.6961 0.0334 0.8566
S4_2 S 0.49225(8) 0.14447(8) 0.78829(4)
N4_3 N 0.3866(3) 0.0402(2) 0.82822(12)
C19_3 C 0.2301(3) 0.0494(3) 0.92240(15)
C20_3 C 0.2978(3) 0.0753(3) 0.89080(16)
C21_3 C 0.3269(3) 0.0200(3) 0.85793(15)
C22_3 C 0.4184(3) 0.1159(3) 0.82956(15)
C23_3 C 0.3326(4) 0.1528(4) 0.89202(19)
H11_3 H 0.3150 0.1918 0.9141
C24_3 C 0.3924(4) 0.1726(3) 0.86112(19)
H12_3 H 0.4161 0.2258 0.8615
Cu5_2 Cu 0.46262(5) 0.07808(5) 0.72086(2)
S5_2 S 0.64447(8) 0.00775(8) 0.71171(4)
Cu1_2 Cu 0.42192(5) 0.96262(5) 0.22086(2)
H1_3 H 0.3039 0.9666 0.1434
S2_2 S 0.50775(8) 0.85553(8) 0.21171(4)
N2_3 N 0.6134(3) 0.9598(2) 0.17178(12)
C7_3 C 0.7699(3) 0.9506(3) 0.07760(15)
C8_3 C 0.7022(3) 0.9247(3) 0.10920(16)
C9_3 C 0.6731(3) 0.9800(3) 0.14207(15)
C10_3 C 0.5816(3) 0.8841(3) 0.17044(15)
C11_3 C 0.6674(4) 0.8472(4) 0.10798(19)
H5_3 H 0.6850 0.8082 0.0859
C12_3 C 0.6076(4) 0.8274(3) 0.13888(19)
H6_3 H 0.5839 0.7742 0.1385
Cu7_2 Cu 0.53738(5) 0.92192(5) 0.27914(2)
S7_2 S 0.35553(8) 0.99225(8) 0.28829(4)
S3_2 S 0.50775(8) 0.85553(8) 0.78829(4)
N3_3 N 0.6134(3) 0.9598(2) 0.82822(12)
C13_3 C 0.7699(3) 0.9506(3) 0.92240(15)
C14_3 C 0.7022(3) 0.9247(3) 0.89080(16)
C15_3 C 0.6731(3) 0.9800(3) 0.85793(15)
C16_3 C 0.5816(3) 0.8841(3) 0.82956(15)
C17_3 C 0.6674(4) 0.8472(4) 0.89202(19)
H8_3 H 0.6850 0.8082 0.9141
C18_3 C 0.6076(4) 0.8274(3) 0.86112(19)
H9_3 H 0.5839 0.7742 0.8615
Cu4_2 Cu 0.42192(5) 0.96262(5) 0.77914(2)
H10_3 H 0.3039 0.9666 0.8566
Cu6_2 Cu 0.53738(5) 0.92192(5) 0.72086(2)
S6_2 S 0.35553(8) 0.99225(8) 0.71171(4)
N1_4 N 0.5402(2) 0.1134(3) 0.67178(12)
C1_4 C 0.5494(3) 0.2699(3) 0.57760(15)
C2_4 C 0.5753(3) 0.2022(3) 0.60920(16)
C3_4 C 0.5200(3) 0.1731(3) 0.64207(15)
H1_4 H 0.4666 0.1961 0.6434
C4_4 C 0.6159(3) 0.0816(3) 0.67044(15)
C5_4 C 0.6528(4) 0.1674(4) 0.60798(19)
H2_4 H 0.6918 0.1850 0.5859
C6_4 C 0.6726(3) 0.1076(4) 0.63888(19)
H3_4 H 0.7258 0.0839 0.6385
N4_4 N 0.5402(2) 0.1134(3) 0.32822(12)
C19_4 C 0.5494(3) 0.2699(3) 0.42240(15)
C20_4 C 0.5753(3) 0.2022(3) 0.39080(16)
C21_4 C 0.5200(3) 0.1731(3) 0.35793(15)
H10_4 H 0.4666 0.1961 0.3566
C22_4 C 0.6159(3) 0.0816(3) 0.32956(15)
C23_4 C 0.6528(4) 0.1674(4) 0.39202(19)
H11_4 H 0.6918 0.1850 0.4141
C24_4 C 0.6726(3) 0.1076(4) 0.36112(19)
H12_4 H 0.7258 0.0839 0.3615
N2_4 N 0.4598(2) 0.8866(3) 0.67178(12)
C7_4 C 0.4506(3) 0.7301(3) 0.57760(15)
C8_4 C 0.4247(3) 0.7978(3) 0.60920(16)
C9_4 C 0.4800(3) 0.8269(3) 0.64207(15)
H4_4 H 0.5334 0.8039 0.6434
C10_4 C 0.3841(3) 0.9184(3) 0.67044(15)
C11_4 C 0.3472(4) 0.8326(4) 0.60798(19)
H5_4 H 0.3082 0.8150 0.5859
C12_4 C 0.3274(3) 0.8924(4) 0.63888(19)
H6_4 H 0.2742 0.9161 0.6385
N3_4 N 0.4598(2) 0.8866(3) 0.32822(12)
C13_4 C 0.4506(3) 0.7301(3) 0.42240(15)
C14_4 C 0.4247(3) 0.7978(3) 0.39080(16)
C15_4 C 0.4800(3) 0.8269(3) 0.35793(15)
H7_4 H 0.5334 0.8039 0.3566
C16_4 C 0.3841(3) 0.9184(3) 0.32956(15)
C17_4 C 0.3472(4) 0.8326(4) 0.39202(19)
H8_4 H 0.3082 0.8150 0.4141
C18_4 C 0.3274(3) 0.8924(4) 0.36112(19)
H9_4 H 0.2742 0.9161 0.3615
loop_
_geom_bond_atom_site_label_1
_geom_bond_atom_site_label_2
_geom_bond_site_symmetry_1
_geom_bond_site_symmetry_2
Zr1 O1 1_555 1_555
Zr2 O2 1_555 1_555
Cu1 N1 1_555 1_555
S1 C4 1_555 1_555
O1 C1 1_555 1_555
O3 C1 1_555 1_555
O4 Zr2 1_555 1_555
O5 Zr1 1_555 1_555
O6 Zr1 1_555 1_555
N1 C3 1_555 1_555
C1 C2 1_555 1_555
C2 C3 1_555 1_555
C3 H1 1_555 1_555
C4 N1 1_555 1_555
C5 C2 1_555 1_555
H2 C5 1_555 1_555
C6 C4 1_555 1_555
H3 C6 1_555 1_555
Zr3 O3 1_555 1_555
O11 Zr1 1_555 1_555
O12 Zr3 1_555 1_555
O13 Zr2 1_555 1_555
O14 Zr3 1_555 1_555
O15 Zr1 1_555 1_555
N4 Cu4 1_555 1_555
C19 O11 1_555 1_555
C20 C19 1_555 1_555
C21 N4 1_555 1_555
H10 C21 1_555 1_555
C22 S4 1_555 1_555
C23 C20 1_555 1_555
H11 C23 1_555 1_555
C24 C22 1_555 1_555
H12 C24 1_555 1_555
O16 Zr1 1_555 1_555
Zr6 O6 1_555 1_555
Zr8 O15 1_555 1_555
Cu5 S4 1_555 1_555
Cu8 S1 1_555 1_555
S6 Cu4 1_555 1_555
S7 Cu1 1_555 1_555
O17 Zr1 1_555 1_555
O18 Zr1 1_555 1_555
O19 Zr2 1_555 1_555
O20 Zr3 1_555 1_555
O21 Zr2 1_555 1_555
O22 Zr2 1_555 1_555
O23 Zr3 1_555 1_555
Zr2 O5 1_555 1_555
Zr2 O6 1_555 1_555
O5 Zr3 1_555 1_555
C5 C6 1_555 1_555
Zr3 O15 1_555 1_555
Zr3 O21 1_555 1_555
O13 C19 1_555 1_555
N4 C22 1_555 1_555
C20 C21 1_555 1_555
C23 C24 1_555 1_555
O16 Zr6 1_555 1_555
O16 Zr8 1_555 1_555
Zr6 O22 1_555 1_555
Zr8 O23 1_555 1_555
Cu5 S6 1_555 1_555
Cu8 S7 1_555 1_555
O7 C7 1_555 1_555
O8 C7 1_555 1_555
N2 Cu2 1_555 1_555
C7 C8 1_555 1_555
C8 C9 1_555 1_555
C9 N2 1_555 1_555
H4 C9 1_555 1_555
C10 S2 1_555 1_555
C11 C8 1_555 1_555
H5 C11 1_555 1_555
C12 C10 1_555 1_555
H6 C12 1_555 1_555
Cu3 N3 1_555 1_555
S3 C16 1_555 1_555
O9 C13 1_555 1_555
O10 C13 1_555 1_555
N3 C15 1_555 1_555
C13 C14 1_555 1_555
C14 C15 1_555 1_555
C15 H7 1_555 1_555
C16 N3 1_555 1_555
C17 C14 1_555 1_555
H8 C17 1_555 1_555
C18 C16 1_555 1_555
H9 C18 1_555 1_555
Zr4 O7 1_555 1_555
Zr6 O10 1_555 1_555
Zr8 O8 1_555 1_555
Cu6 S3 1_555 1_555
Cu7 S2 1_555 1_555
S5 Cu3 1_555 1_555
S8 Cu2 1_555 1_555
N2 C10 1_555 1_555
C11 C12 1_555 1_555
O9 Zr4 1_555 1_555
C17 C18 1_555 1_555
Cu6 S5 1_555 1_555
Cu7 S8 1_555 1_555
Zr6 O2_2 1_555 1_555
O4_2 Zr6 1_555 1_555
O5_2 Zr4 1_555 1_555
O22 Zr4 1_555 1_555
O12_2 Zr8 1_555 1_555
O14_2 Zr8 1_555 1_555
O23 Zr4 1_555 1_555
O21 Zr4 1_555 1_555
O17_2 Zr4 1_555 1_555
O18_2 Zr4 1_555 1_555
O19_2 Zr6 1_555 1_555
O20_2 Zr8 1_555 1_555
Zr6 O5_2 1_555 1_555
O5_2 Zr8 1_555 1_555
Zr2_2 O2_3 1_555 1_555
O4_3 Zr2_2 1_555 1_555
S7 C16_2 1_555 1_555
O9_2 C13_2 1_555 1_555
N3_2 C15_2 1_555 1_555
C13_2 C14_2 1_555 1_555
C14_2 C15_2 1_555 1_555
C16_2 N3_2 1_555 1_555
C17_2 C14_2 1_555 1_555
H8_2 C17_2 1_555 1_555
C18_2 C16_2 1_555 1_555
H9_2 C18_2 1_555 1_555
O13_2 Zr2_2 1_555 1_555
O19_3 Zr2_2 1_555 1_555
O21_2 Zr2_2 1_555 1_555
Zr2_2 O5_3 1_555 1_555
O9_2 Zr4_2 1_555 1_555
C17_2 C18_2 1_555 1_555
O7_2 C7_2 1_555 1_555
C7_2 C8_2 1_555 1_555
C8_2 C9_2 1_555 1_555
C9_2 N2_2 1_555 1_555
C10_2 S6 1_555 1_555
C11_2 C8_2 1_555 1_555
H5_2 C11_2 1_555 1_555
C12_2 C10_2 1_555 1_555
H6_2 C12_2 1_555 1_555
Zr3_2 O3_2 1_555 1_555
O12_3 Zr3_2 1_555 1_555
O14_3 Zr3_2 1_555 1_555
Zr4_3 O7_2 1_555 1_555
O20_3 Zr3_2 1_555 1_555
O5_4 Zr3_2 1_555 1_555
N2_2 C10_2 1_555 1_555
C11_2 C12_2 1_555 1_555
Zr3_2 O21_3 1_555 1_555
O16_2 Zr6_2 1_555 1_555
O16_3 Zr8_2 1_555 1_555
O6_2 Zr1_2 1_555 1_555
O11_2 Zr1_2 1_555 1_555
C19_2 O11_2 1_555 1_555
C20_2 C19_2 1_555 1_555
C21_2 N4_2 1_555 1_555
C22_2 S8 1_555 1_555
C23_2 C20_2 1_555 1_555
H11_2 C23_2 1_555 1_555
C24_2 C22_2 1_555 1_555
H12_2 C24_2 1_555 1_555
Zr6_2 O10_2 1_555 1_555
O17_3 Zr1_2 1_555 1_555
N4_2 C22_2 1_555 1_555
C20_2 C21_2 1_555 1_555
C23_2 C24_2 1_555 1_555
Zr1_3 O1_2 1_555 1_555
S5 C4_2 1_555 1_555
O1_2 C1_2 1_555 1_555
N1_2 C3_2 1_555 1_555
C1_2 C2_2 1_555 1_555
C2_2 C3_2 1_555 1_555
C4_2 N1_2 1_555 1_555
C5_2 C2_2 1_555 1_555
H2_2 C5_2 1_555 1_555
C6_2 C4_2 1_555 1_555
H3_2 C6_2 1_555 1_555
O15_2 Zr1_3 1_555 1_555
Zr8_2 O8_2 1_555 1_555
O18_3 Zr1_3 1_555 1_555
C5_2 C6_2 1_555 1_555
O22_2 Zr4_2 1_555 1_555
O17_4 Zr4_2 1_555 1_555
O23_2 Zr4_3 1_555 1_555
O18_4 Zr4_3 1_555 1_555
Zr6_2 O2_4 1_555 1_555
O4_4 Zr6_2 1_555 1_555
O19_4 Zr6_2 1_555 1_555
Zr6_2 O5_5 1_555 1_555
O12_4 Zr8_2 1_555 1_555
O14_4 Zr8_2 1_555 1_555
O20_4 Zr8_2 1_555 1_555
O5_6 Zr8_2 1_555 1_555
S1_2 C4_3 1_555 1_555
O17_4 C1_3 1_555 1_555
N1_3 C3_3 1_555 1_555
C1_3 C2_3 1_555 1_555
C2_3 C3_3 1_555 1_555
C4_3 N1_3 1_555 1_555
C5_3 C2_3 1_555 1_555
H2_3 C5_3 1_555 1_555
C6_3 C4_3 1_555 1_555
H3_3 C6_3 1_555 1_555
Cu2_2 S1_2 1_555 1_555
Cu8_2 S1_2 1_555 1_555
S8_2 Cu2_2 1_555 1_555
C5_3 C6_3 1_555 1_555
S4_2 Cu3_2 1_555 1_555
C19_3 O18_4 1_555 1_555
C20_3 C19_3 1_555 1_555
C21_3 N4_3 1_555 1_555
C22_3 S4_2 1_555 1_555
C23_3 C20_3 1_555 1_555
H11_3 C23_3 1_555 1_555
C24_3 C22_3 1_555 1_555
H12_3 C24_3 1_555 1_555
Cu5_2 S4_2 1_555 1_555
S5_2 Cu3_2 1_555 1_555
N4_3 C22_3 1_555 1_555
C20_3 C21_3 1_555 1_555
C23_3 C24_3 1_555 1_555
S2_2 Cu1_2 1_555 1_555
O17_3 C7_3 1_555 1_555
C7_3 C8_3 1_555 1_555
C8_3 C9_3 1_555 1_555
C9_3 N2_3 1_555 1_555
C10_3 S2_2 1_555 1_555
C11_3 C8_3 1_555 1_555
H5_3 C11_3 1_555 1_555
C12_3 C10_3 1_555 1_555
H6_3 C12_3 1_555 1_555
Cu7_2 S2_2 1_555 1_555
S7_2 Cu1_2 1_555 1_555
N2_3 C10_3 1_555 1_555
C11_3 C12_3 1_555 1_555
S3_2 C16_3 1_555 1_555
O18_3 C13_3 1_555 1_555
N3_3 C15_3 1_555 1_555
C13_3 C14_3 1_555 1_555
C14_3 C15_3 1_555 1_555
C16_3 N3_3 1_555 1_555
C17_3 C14_3 1_555 1_555
H8_3 C17_3 1_555 1_555
C18_3 C16_3 1_555 1_555
H9_3 C18_3 1_555 1_555
Cu4_2 S3_2 1_555 1_555
Cu6_2 S3_2 1_555 1_555
S6_2 Cu4_2 1_555 1_555
C17_3 C18_3 1_555 1_555
Cu5_2 N1_4 1_555 1_555
S5_2 C4_4 1_555 1_555
O17_2 C1_4 1_555 1_555
O19 C1_4 1_555 1_555
N1_4 C3_4 1_555 1_555
C1_4 C2_4 1_555 1_555
C2_4 C3_4 1_555 1_555
C3_4 H1_4 1_555 1_555
C4_4 N1_4 1_555 1_555
C5_4 C2_4 1_555 1_555
H2_4 C5_4 1_555 1_555
C6_4 C4_4 1_555 1_555
H3_4 C6_4 1_555 1_555
N4_4 Cu8_2 1_555 1_555
C19_4 O18_2 1_555 1_555
C20_4 C19_4 1_555 1_555
C21_4 N4_4 1_555 1_555
H10_4 C21_4 1_555 1_555
C22_4 S8_2 1_555 1_555
C23_4 C20_4 1_555 1_555
H11_4 C23_4 1_555 1_555
C24_4 C22_4 1_555 1_555
H12_4 C24_4 1_555 1_555
C5_4 C6_4 1_555 1_555
O20 C19_4 1_555 1_555
N4_4 C22_4 1_555 1_555
C20_4 C21_4 1_555 1_555
C23_4 C24_4 1_555 1_555
O17 C7_4 1_555 1_555
O19_2 C7_4 1_555 1_555
N2_4 Cu6_2 1_555 1_555
C7_4 C8_4 1_555 1_555
C8_4 C9_4 1_555 1_555
C9_4 N2_4 1_555 1_555
H4_4 C9_4 1_555 1_555
C10_4 S6_2 1_555 1_555
C11_4 C8_4 1_555 1_555
H5_4 C11_4 1_555 1_555
C12_4 C10_4 1_555 1_555
H6_4 C12_4 1_555 1_555
Cu7_2 N3_4 1_555 1_555
S7_2 C16_4 1_555 1_555
O18 C13_4 1_555 1_555
O20_2 C13_4 1_555 1_555
N3_4 C15_4 1_555 1_555
C13_4 C14_4 1_555 1_555
C14_4 C15_4 1_555 1_555
C15_4 H7_4 1_555 1_555
C16_4 N3_4 1_555 1_555
C17_4 C14_4 1_555 1_555
H8_4 C17_4 1_555 1_555
C18_4 C16_4 1_555 1_555
H9_4 C18_4 1_555 1_555
N2_4 C10_4 1_555 1_555
C11_4 C12_4 1_555 1_555
C17_4 C18_4 1_555 1_555

#END
