
###############################################################################
#
# This file contains modified crystal structure data generated from the
# MOF subset of the Cambridge Structural Database (CSD) v543 
# hosted by the Cambridge Crystallographic Data Centre (CCDC).
#
# This work is licensed under the Creative Commons
# Attribution-NonCommercial-ShareAlike 4.0 International License.
# To view a copy of this license, visit
# http://creativecommons.org/licenses/by-nc-sa/4.0/
# or send a letter to
# Creative Commons, PO Box 1866, Mountain View, CA 94042, USA.
#
# CIF created using the CSD Python API on 29 September 2022
# The structure has been converted into the P1 space group
# The structure has a 3D framework
# The original CSD entry XUTQEI is in the trigonal crystal system
# The original CSD entry XUTQEI is in a Sohncke space group
# The framework has been calculated to contain at least 10.0% void space
# The void calculation uses a probe of radius 1.32A, grid spacing 0.4
# H atom positions have been added when not included in the experimental data
#
###############################################################################

data_XUTQEI
_chemical_formula_moiety         '(C147 H129 N18 Ni9 O54)n'
_symmetry_cell_setting           triclinic
_symmetry_space_group_name_H-M   'P 1'
_symmetry_Int_Tables_number      1
_space_group_name_Hall           'P 1'
loop_
_symmetry_equiv_pos_site_id
_symmetry_equiv_pos_as_xyz
1 x,y,z
_cell_length_a                   33.5211(10)
_cell_length_b                   33.5211(10)
_cell_length_c                   11.3015(5)
_cell_angle_alpha                90
_cell_angle_beta                 90
_cell_angle_gamma                120
_cell_volume                     10997.7
loop_
_atom_site_label
_atom_site_type_symbol
_atom_site_fract_x
_atom_site_fract_y
_atom_site_fract_z
N9 N 0.17040(13) 0.83209(13) 0.0184(4)
H34 H 0.0805192 0.556691 0.00491836
Ni3 Ni 0.16566(3) 0.83496(3) 0.84811(10)
C2 C 0.01495(13) 0.71519(10) 0.9193(2)
H1 H 0.0250 0.7472 0.9169
C3 C 0.04564(10) 0.69989(13) 0.8938(2)
C4 C 0.03092(12) 0.65309(14) 0.8972(2)
H2 H 0.0519 0.6426 0.8797
C8 C 0.0923(2) 0.7366(2) 0.8662(5)
O3 O 0.10406(16) 0.77381(16) 0.8614(4)
O4 O 0.12501(18) 0.72247(18) 0.8370(4)
C32 C 0.0193(3) 0.4800(3) 0.5290(8)
H17 H 0.0350 0.4674 0.4870
C33 C 0.0190(3) 0.4800(3) 0.6501(9)
H18 H 0.0352 0.4675 0.6903
C37 C 0.0185(3) 0.5394(3) 0.2782(7)
H21 H 0.0327 0.5675 0.3214
C38 C 0.0203(3) 0.5409(3) 0.1578(7)
H22 H 0.0360 0.5693 0.1163
N5 N 0.16279(18) 0.8338(2) 0.6651(7)
C39 C 0.1355(3) 0.7947(3) 0.5961(7)
H23 H 0.1148 0.7669 0.6354
C40 C 0.1370(2) 0.7945(2) 0.4766(6)
H24 H 0.1178 0.7672 0.4330
C41 C 0.16721(19) 0.8351(2) 0.4193(6)
C42 C 0.1943(2) 0.8736(2) 0.4830(6)
H25 H 0.2151 0.9012 0.4431
C43 C 0.1921(2) 0.8733(3) 0.6023(6)
H26 H 0.2111 0.9010 0.6444
C44 C 0.1305(3) 0.8202(2) 0.0928(7)
H27 H 0.1022 0.8108 0.0532
C45 C 0.1296(3) 0.8213(3) 0.2152(8)
H28 H 0.1010 0.8128 0.2525
C46 C 0.1684(2) 0.8344(2) 0.2878(7)
C47 C 0.2081(3) 0.8465(2) 0.2245(6)
H29 H 0.2367 0.8563 0.2630
C48 C 0.2044(2) 0.8439(2) 0.1050(6)
H30 H 0.2333 0.8526 0.0697
O13 O 0.20239(14) 0.79971(14) 0.8543(4)
O14 O 0.12997(16) 0.87236(16) 0.8784(5)
C49 C 0.1317(5) 0.9089(5) 0.8207(13)
H31 H 0.1096 0.9164 0.8568
H32 H 0.1237 0.9010 0.7372
H33 H 0.1628 0.9356 0.8266
O16 O 0.0729(2) 0.5387(2) 0.9303(5)
O20 O 0.22663(15) 0.89310(21) 0.8678(4)
H35 H 0.0853693 0.517371 0.933497
H40 H 0.193067 0.777884 0.78681
H41 H 0.235906 0.822134 0.849204
C13 C 0.34715(10) 0.96860(16) 0.8982(3)
H5 H 0.3575 0.9475 0.8812
C14 C 0.30032(14) 0.95383(17) 0.8969(2)
C15 C 0.28520(13) 0.98471(19) 0.9217(2)
H6 H 0.2532 0.9746 0.9208
C18 C 0.2667(2) 0.9084(3) 0.8716(5)
O11 O 0.2787(2) 0.8763(3) 0.8457(5)
Ni1 Ni 0.83454(3) 0.66984(3) 0.00668(9)
O1 O 0.89592(17) 0.67223(17) 0.0033(4)
O18 O 0.86955(15) 0.73961(15) 0.0105(4)
N7 N 0.83813(15) 0.67265(14) 0.1938(5)
N8 N 0.99807(14) 0.49881(14) 0.0978(5)
H39 H 0.847373 0.751062 0.0127561
H42 H 0.801565 0.582627 0.0585718
Ni2 Ni 0.99847(4) 0.49920(4) 0.90870(11)
C1 C 0.96954(12) 0.68369(13) 0.9483(2)
C5 C 0.98551(14) 0.62159(10) 0.9262(3)
C6 C 0.95482(10) 0.63689(11) 0.9517(2)
H3 H 0.9238 0.6154 0.9715
C7 C 0.9324(3) 0.6958(3) 0.9773(5)
O2 O 0.9487(2) 0.7413(2) 0.9733(5)
C9 C 0.9705(3) 0.5707(2) 0.9276(5)
O5 O 0.99668(17) 0.55922(17) 0.9091(4)
O6 O 0.9283(3) 0.5425(3) 0.9566(6)
C10 C 0.71346(13) 0.68310(10) 0.9479(2)
C11 C 0.68141(10) 0.63628(13) 0.9492(2)
H4 H 0.6909 0.6146 0.9670
C12 C 0.63540(14) 0.62115(12) 0.9244(3)
C13_2 C 0.62145(12) 0.65285(10) 0.8982(3)
H5_2 H 0.5900 0.6425 0.8812
C14_2 C 0.65351(10) 0.69968(14) 0.8969(2)
C15_2 C 0.69951(14) 0.71480(13) 0.9217(2)
H6_2 H 0.7214 0.7468 0.9208
C16 C 0.7638(2) 0.6975(2) 0.9751(5)
O7 O 0.7924(2) 0.7409(2) 0.9738(5)
O8 O 0.77563(19) 0.66962(19) 0.9998(4)
C17 C 0.5981(3) 0.5701(2) 0.9231(5)
O9 O 0.6139(3) 0.5407(3) 0.9502(6)
O10 O 0.56120(18) 0.55835(18) 0.9045(4)
C18_2 C 0.6417(2) 0.7333(2) 0.8716(5)
O11_2 O 0.5976(2) 0.7213(2) 0.8457(5)
O12 O 0.66647(15) 0.77337(15) 0.8678(4)
N1 N 0.83212(17) 0.67046(16) 0.8316(6)
C19 C 0.7944(3) 0.6438(2) 0.7569(6)
H7 H 0.7655 0.6235 0.7921
C20 C 0.7973(3) 0.6454(2) 0.6357(7)
H8 H 0.7702 0.6260 0.5920
C21 C 0.83786(18) 0.67392(17) 0.5718(5)
C22 C 0.8764(3) 0.7009(2) 0.6394(6)
H9 H 0.9055 0.7213 0.6052
C23 C 0.8698(3) 0.6963(2) 0.7579(7)
H10 H 0.8973 0.7152 0.8010
C24 C 0.8082(2) 0.68256(19) 0.2566(7)
H11 H 0.7894 0.6911 0.2129
C25 C 0.8043(3) 0.6806(2) 0.3769(7)
H12 H 0.7833 0.6875 0.4155
C26 C 0.8313(3) 0.6687(2) 0.4406(7)
C27 C 0.8608(3) 0.6583(2) 0.3791(7)
H13 H 0.8793 0.6494 0.4230
C28 C 0.8646(2) 0.6602(2) 0.2597(6)
H14 H 0.8855 0.6530 0.2216
N3 N 0.99606(17) 0.49735(16) 0.7180(7)
C29 C 0.9717(3) 0.5167(3) 0.6639(8)
H15 H 0.9553 0.5292 0.7027
C30 C 0.9762(3) 0.5137(3) 0.5457(9)
H16 H 0.9603 0.5261 0.5037
C31 C 0.9968(2) 0.4982(2) 0.4693(7)
C34 C 0.9757(2) 0.4566(3) 0.1564(6)
H19 H 0.9609 0.4282 0.1149
C35 C 0.9762(3) 0.4586(3) 0.2772(7)
H20 H 0.9615 0.4305 0.3203
C36 C 0.99696(19) 0.49880(18) 0.3385(6)
O15 O 0.9300(3) 0.4676(3) 0.9246(7)
O17 O 0.7949(2) 0.5972(2) 0.9907(6)
O19 O 0.99715(25) 0.43880(18) 0.9045(4)
Ni4 Ni 0.50080(4) 0.49927(6) 0.90870(11)
Ni5 Ni 0.66930(4) 0.83434(3) 0.84811(10)
H36 H 0.916851 0.475411 0.855616
H37 H 0.917236 0.433753 0.927571
H38 H 0.889041 0.751579 0.938597
H43 H 0.761639 0.587482 0.99038
Ni1_2 Ni 0.33016(3) 0.16470(4) 0.00668(9)
O1_2 O 0.32777(17) 0.22369(24) 0.0033(4)
O18_2 O 0.26039(15) 0.12994(21) 0.0105(4)
N7_2 N 0.32735(14) 0.16548(21) 0.1938(5)
N8_2 N 0.50119(14) 0.49926(20) 0.0978(5)
N9_2 N 0.16791(13) 0.33831(18) 0.0184(4)
H34_2 H 0.443309 0.523829 0.00491836
H39_2 H 0.248938 0.0963107 0.0127561
H42_2 H 0.417373 0.218938 0.0585718
Ni3_2 Ni 0.16504(3) 0.33070(4) 0.84811(10)
C1_2 C 0.31631(13) 0.28585(18) 0.9483(2)
C2_2 C 0.28481(10) 0.29976(16) 0.9193(2)
H1_2 H 0.2528 0.2778 0.9169
C3_2 C 0.30011(13) 0.34575(16) 0.8938(2)
C4_2 C 0.34691(14) 0.37783(18) 0.8972(2)
H2_2 H 0.3574 0.4093 0.8797
C5_2 C 0.37841(10) 0.36392(17) 0.9262(3)
C6_2 C 0.36311(11) 0.31793(15) 0.9517(2)
H3_2 H 0.3846 0.3084 0.9715
C7_2 C 0.3042(3) 0.2366(4) 0.9773(5)
O2_2 O 0.2587(2) 0.2074(3) 0.9733(5)
C8_2 C 0.2634(2) 0.3557(3) 0.8662(5)
O3_2 O 0.22619(16) 0.33025(23) 0.8614(4)
O4_2 O 0.27753(18) 0.40254(25) 0.8370(4)
C9_2 C 0.4293(2) 0.3998(4) 0.9276(5)
O5_2 O 0.44078(17) 0.43746(24) 0.9091(4)
O6_2 O 0.4575(3) 0.3858(4) 0.9566(6)
C10_2 C 0.31690(10) 0.03036(16) 0.9479(2)
C11_2 C 0.36372(13) 0.04513(16) 0.9492(2)
H4_2 H 0.3854 0.0763 0.9670
C12_2 C 0.37885(12) 0.01425(18) 0.9244(3)
C16_2 C 0.3025(2) 0.0663(3) 0.9751(5)
O7_2 O 0.2591(2) 0.0515(3) 0.9738(5)
O8_2 O 0.33038(19) 0.10601(27) 0.9998(4)
C17_2 C 0.4299(2) 0.0280(4) 0.9231(5)
O9_2 O 0.4593(3) 0.0732(4) 0.9502(6)
O10_2 O 0.44165(18) 0.00285(25) 0.9045(4)
N1_2 N 0.32954(16) 0.16166(23) 0.8316(6)
C19_2 C 0.3562(2) 0.1506(4) 0.7569(6)
H7_2 H 0.3765 0.1420 0.7921
C20_2 C 0.3546(2) 0.1519(4) 0.6357(7)
H8_2 H 0.3740 0.1442 0.5920
C21_2 C 0.32608(17) 0.16394(25) 0.5718(5)
C22_2 C 0.2991(2) 0.1755(4) 0.6394(6)
H9_2 H 0.2787 0.1842 0.6052
C23_2 C 0.3037(2) 0.1735(4) 0.7579(7)
H10_2 H 0.2848 0.1821 0.8010
C24_2 C 0.31744(19) 0.12564(28) 0.2566(7)
H11_2 H 0.3089 0.0983 0.2129
C25_2 C 0.3194(2) 0.1237(4) 0.3769(7)
H12_2 H 0.3125 0.0958 0.4155
C26_2 C 0.3313(2) 0.1626(4) 0.4406(7)
C27_2 C 0.3417(2) 0.2025(4) 0.3791(7)
H13_2 H 0.3506 0.2299 0.4230
C28_2 C 0.3398(2) 0.2044(3) 0.2597(6)
H14_2 H 0.3470 0.2325 0.2216
N3_2 N 0.50265(16) 0.49871(23) 0.7180(7)
C29_2 C 0.4833(3) 0.4550(4) 0.6639(8)
H15_2 H 0.4708 0.4261 0.7027
C30_2 C 0.4863(3) 0.4625(4) 0.5457(9)
H16_2 H 0.4739 0.4342 0.5037
C31_2 C 0.5018(2) 0.4986(3) 0.4693(7)
C32_2 C 0.5200(3) 0.5393(4) 0.5290(8)
H17_2 H 0.5326 0.5676 0.4870
C33_2 C 0.5200(3) 0.5390(4) 0.6501(9)
H18_2 H 0.5325 0.5677 0.6903
C34_2 C 0.5434(3) 0.5191(4) 0.1564(6)
H19_2 H 0.5718 0.5327 0.1149
C35_2 C 0.5414(3) 0.5176(4) 0.2772(7)
H20_2 H 0.5695 0.5310 0.3203
C36_2 C 0.50120(18) 0.49816(26) 0.3385(6)
C37_2 C 0.4606(3) 0.4791(4) 0.2782(7)
H21_2 H 0.4325 0.4652 0.3214
C38_2 C 0.4591(3) 0.4794(4) 0.1578(7)
H22_2 H 0.4307 0.4667 0.1163
N5_2 N 0.1662(2) 0.32899(27) 0.6651(7)
C39_2 C 0.2053(3) 0.3408(4) 0.5961(7)
H23_2 H 0.2331 0.3479 0.6354
C40_2 C 0.2055(2) 0.3425(3) 0.4766(6)
H24_2 H 0.2328 0.3506 0.4330
C41_2 C 0.1649(2) 0.33211(28) 0.4193(6)
C42_2 C 0.1264(2) 0.3207(3) 0.4830(6)
H25_2 H 0.0988 0.3139 0.4431
C43_2 C 0.1267(3) 0.3188(4) 0.6023(6)
H26_2 H 0.0990 0.3101 0.6444
C44_2 C 0.1798(2) 0.3103(4) 0.0928(7)
H27_2 H 0.1892 0.2914 0.0532
C45_2 C 0.1787(3) 0.3083(4) 0.2152(8)
H28_2 H 0.1872 0.2882 0.2525
C46_2 C 0.1656(2) 0.3340(3) 0.2878(7)
C47_2 C 0.1535(2) 0.3616(4) 0.2245(6)
H29_2 H 0.1437 0.3804 0.2630
C48_2 C 0.1561(2) 0.3605(3) 0.1050(6)
H30_2 H 0.1474 0.3807 0.0697
O13_2 O 0.20029(14) 0.40268(20) 0.8543(4)
O14_2 O 0.12764(16) 0.25761(23) 0.8784(5)
C49_2 C 0.0911(5) 0.2228(7) 0.8207(13)
H31_2 H 0.0836 0.1932 0.8568
H32_2 H 0.0990 0.2227 0.7372
H33_2 H 0.0644 0.2272 0.8266
O15_2 O 0.5324(3) 0.4624(4) 0.9246(7)
O16_2 O 0.4613(2) 0.5342(3) 0.9303(5)
O17_2 O 0.4028(2) 0.1977(3) 0.9907(6)
O20_2 O 0.10690(21) 0.33353(26) 0.8678(4)
Ni4_2 Ni 0.50073(6) 0.00153(7) 0.90870(11)
H35_2 H 0.482629 0.567998 0.933497
H36_2 H 0.524589 0.44144 0.855616
H37_2 H 0.566247 0.483483 0.927571
H38_2 H 0.248421 0.137462 0.938597
H40_2 H 0.222116 0.415182 0.78681
H41_2 H 0.177866 0.413772 0.849204
H43_2 H 0.412518 0.174157 0.99038
C13_3 C 0.03140(16) 0.37855(12) 0.8982(3)
H5_3 H 0.0525 0.4100 0.8812
C14_3 C 0.04617(17) 0.34649(10) 0.8969(2)
C15_3 C 0.01529(19) 0.30049(14) 0.9217(2)
H6_3 H 0.0254 0.2786 0.9208
C18_3 C 0.0916(3) 0.3583(2) 0.8716(5)
O11_3 O 0.1237(3) 0.4024(2) 0.8457(5)
Ni1_3 Ni 0.83530(4) 0.16546(3) 0.00668(9)
O1_3 O 0.77631(24) 0.10408(17) 0.0033(4)
O18_3 O 0.87006(21) 0.13045(15) 0.0105(4)
N7_3 N 0.83452(21) 0.16187(15) 0.1938(5)
N8_3 N 0.50074(20) 0.00193(14) 0.0978(5)
H39_3 H 0.903689 0.152627 0.0127561
H42_3 H 0.781062 0.198435 0.0585718
C1_3 C 0.71415(18) 0.03046(12) 0.9483(2)
C5_3 C 0.63608(17) 0.01449(14) 0.9262(3)
C6_3 C 0.68207(15) 0.04518(10) 0.9517(2)
H3_3 H 0.6916 0.0762 0.9715
C7_3 C 0.7634(4) 0.0676(3) 0.9773(5)
O2_3 O 0.7926(3) 0.0513(2) 0.9733(5)
C9_3 C 0.6002(4) 0.0295(3) 0.9276(5)
O5_3 O 0.56254(24) 0.00332(17) 0.9091(4)
O6_3 O 0.6142(4) 0.0717(3) 0.9566(6)
C10_3 C 0.96964(16) 0.28654(13) 0.9479(2)
C11_3 C 0.95487(16) 0.31859(10) 0.9492(2)
H4_3 H 0.9237 0.3091 0.9670
C12_3 C 0.98575(18) 0.36460(14) 0.9244(3)
C16_3 C 0.9337(3) 0.2362(2) 0.9751(5)
O7_3 O 0.9485(3) 0.2076(2) 0.9738(5)
O8_3 O 0.89399(27) 0.22437(19) 0.9998(4)
C17_3 C 0.9720(4) 0.4019(3) 0.9231(5)
O9_3 O 0.9268(4) 0.3861(3) 0.9502(6)
N1_3 N 0.83834(23) 0.16788(17) 0.8316(6)
C19_3 C 0.8494(4) 0.2056(3) 0.7569(6)
H7_3 H 0.8580 0.2345 0.7921
C20_3 C 0.8481(4) 0.2027(3) 0.6357(7)
H8_3 H 0.8558 0.2298 0.5920
C21_3 C 0.83606(25) 0.16214(18) 0.5718(5)
C22_3 C 0.8245(4) 0.1236(3) 0.6394(6)
H9_3 H 0.8158 0.0945 0.6052
C23_3 C 0.8265(4) 0.1302(3) 0.7579(7)
H10_3 H 0.8179 0.1027 0.8010
C24_3 C 0.87436(28) 0.1918(2) 0.2566(7)
H11_3 H 0.9017 0.2106 0.2129
C25_3 C 0.8763(4) 0.1957(3) 0.3769(7)
H12_3 H 0.9042 0.2167 0.4155
C26_3 C 0.8374(4) 0.1687(3) 0.4406(7)
C27_3 C 0.7975(4) 0.1392(3) 0.3791(7)
H13_3 H 0.7701 0.1207 0.4230
C28_3 C 0.7956(3) 0.1354(2) 0.2597(6)
H14_3 H 0.7675 0.1145 0.2216
N3_3 N 0.50129(23) 0.00394(17) 0.7180(7)
C29_3 C 0.5450(4) 0.0283(3) 0.6639(8)
H15_3 H 0.5739 0.0447 0.7027
C30_3 C 0.5375(4) 0.0238(3) 0.5457(9)
H16_3 H 0.5658 0.0397 0.5037
C31_3 C 0.5014(3) 0.0032(2) 0.4693(7)
C34_3 C 0.4809(4) 0.0243(2) 0.1564(6)
H19_3 H 0.4673 0.0391 0.1149
C35_3 C 0.4824(4) 0.0238(3) 0.2772(7)
H20_3 H 0.4690 0.0385 0.3203
C36_3 C 0.50184(26) 0.00304(19) 0.3385(6)
O15_3 O 0.5376(4) 0.0700(3) 0.9246(7)
O17_3 O 0.8023(3) 0.2051(2) 0.9907(6)
H36_3 H 0.55856 0.0831493 0.855616
H37_3 H 0.516517 0.0827644 0.927571
H38_3 H 0.862538 0.110959 0.938597
H43_3 H 0.825843 0.238361 0.99038
N9_3 N 0.66169(18) 0.82960(13) 0.0184(4)
H34_3 H 0.476171 0.919481 0.00491836
C2_3 C 0.70024(16) 0.98505(13) 0.9193(2)
H1_3 H 0.7222 0.9750 0.9169
C3_3 C 0.65425(16) 0.95436(10) 0.8938(2)
C4_3 C 0.62217(18) 0.96908(12) 0.8972(2)
H2_3 H 0.5907 0.9481 0.8797
C8_3 C 0.6443(3) 0.9077(2) 0.8662(5)
O3_3 O 0.66975(23) 0.89594(16) 0.8614(4)
O4_3 O 0.59746(25) 0.87499(18) 0.8370(4)
C32_3 C 0.4607(4) 0.9807(3) 0.5290(8)
H17_3 H 0.4324 0.9650 0.4870
C33_3 C 0.4610(4) 0.9810(3) 0.6501(9)
H18_3 H 0.4323 0.9648 0.6903
C37_3 C 0.5209(4) 0.9815(3) 0.2782(7)
H21_3 H 0.5348 0.9673 0.3214
C38_3 C 0.5206(4) 0.9797(3) 0.1578(7)
H22_3 H 0.5333 0.9640 0.1163
N5_3 N 0.67101(27) 0.83721(18) 0.6651(7)
C39_3 C 0.6592(4) 0.8645(3) 0.5961(7)
H23_3 H 0.6521 0.8852 0.6354
C40_3 C 0.6575(3) 0.8630(2) 0.4766(6)
H24_3 H 0.6494 0.8822 0.4330
C41_3 C 0.66789(28) 0.83279(19) 0.4193(6)
C42_3 C 0.6793(3) 0.8057(2) 0.4830(6)
H25_3 H 0.6861 0.7849 0.4431
C43_3 C 0.6812(4) 0.8079(2) 0.6023(6)
H26_3 H 0.6899 0.7889 0.6444
C44_3 C 0.6897(4) 0.8695(3) 0.0928(7)
H27_3 H 0.7086 0.8978 0.0532
C45_3 C 0.6917(4) 0.8704(3) 0.2152(8)
H28_3 H 0.7118 0.8990 0.2525
C46_3 C 0.6660(3) 0.8316(2) 0.2878(7)
C47_3 C 0.6384(4) 0.7919(3) 0.2245(6)
H29_3 H 0.6196 0.7633 0.2630
C48_3 C 0.6395(3) 0.7956(2) 0.1050(6)
H30_3 H 0.6193 0.7667 0.0697
O13_3 O 0.59732(20) 0.79761(14) 0.8543(4)
O14_3 O 0.74239(23) 0.87003(16) 0.8784(5)
C49_3 C 0.7772(7) 0.8683(5) 0.8207(13)
H31_3 H 0.8068 0.8904 0.8568
H32_3 H 0.7773 0.8763 0.7372
H33_3 H 0.7728 0.8372 0.8266
O16_3 O 0.4658(3) 0.9271(2) 0.9303(5)
H35_3 H 0.432002 0.914631 0.933497
H40_3 H 0.584818 0.806933 0.78681
H41_3 H 0.586228 0.764094 0.849204
loop_
_geom_bond_atom_site_label_1
_geom_bond_atom_site_label_2
_geom_bond_site_symmetry_1
_geom_bond_site_symmetry_2
Ni3 O3 1_555 1_555
C2 H1 1_555 1_555
C3 C2 1_555 1_555
C4 C3 1_555 1_555
H2 C4 1_555 1_555
C8 C3 1_555 1_555
O3 C8 1_555 1_555
O4 C8 1_555 1_555
H17 C32 1_555 1_555
H18 C33 1_555 1_555
H21 C37 1_555 1_555
H22 C38 1_555 1_555
N5 Ni3 1_555 1_555
C39 N5 1_555 1_555
H23 C39 1_555 1_555
C40 C39 1_555 1_555
H24 C40 1_555 1_555
C41 C40 1_555 1_555
C42 C41 1_555 1_555
H25 C42 1_555 1_555
C43 N5 1_555 1_555
H26 C43 1_555 1_555
N9 C44 1_555 1_555
C44 H27 1_555 1_555
C45 C44 1_555 1_555
H28 C45 1_555 1_555
C46 C41 1_555 1_555
C47 C46 1_555 1_555
H29 C47 1_555 1_555
C48 N9 1_555 1_555
H30 C48 1_555 1_555
O13 Ni3 1_555 1_555
O14 Ni3 1_555 1_555
C49 O14 1_555 1_555
H31 C49 1_555 1_555
H32 C49 1_555 1_555
H33 C49 1_555 1_555
O20 Ni3 1_555 1_555
C32 C33 1_555 1_555
C37 C38 1_555 1_555
C42 C43 1_555 1_555
C45 C46 1_555 1_555
C47 C48 1_555 1_555
O16 H35 1_555 1_555
O13 H40 1_555 1_555
O13 H41 1_555 1_555
H5 C13 1_555 1_555
C14 C13 1_555 1_555
H6 C15 1_555 1_555
C18 C14 1_555 1_555
O11 C18 1_555 1_555
O20 C18 1_555 1_555
C14 C15 1_555 1_555
Ni1 O1 1_555 1_555
O18 Ni1 1_555 1_555
N7 Ni1 1_555 1_555
O18 H39 1_555 1_555
Ni2 O5 1_555 1_555
C6 C1 1_555 1_555
H3 C6 1_555 1_555
C7 C1 1_555 1_555
O2 C7 1_555 1_555
C9 C5 1_555 1_555
O5 C9 1_555 1_555
O6 C9 1_555 1_555
C10 C11 1_555 1_555
C11 H4 1_555 1_555
C12 C11 1_555 1_555
C13_2 C12 1_555 1_555
H5_2 C13_2 1_555 1_555
C14_2 C13_2 1_555 1_555
C15_2 C10 1_555 1_555
H6_2 C15_2 1_555 1_555
C16 C10 1_555 1_555
O7 C16 1_555 1_555
C17 C12 1_555 1_555
O9 C17 1_555 1_555
O10 C17 1_555 1_555
C18_2 C14_2 1_555 1_555
O11_2 C18_2 1_555 1_555
O12 C18_2 1_555 1_555
C19 N1 1_555 1_555
H7 C19 1_555 1_555
C20 C19 1_555 1_555
H8 C20 1_555 1_555
C21 C20 1_555 1_555
C22 C21 1_555 1_555
H9 C22 1_555 1_555
C23 N1 1_555 1_555
H10 C23 1_555 1_555
N7 C24 1_555 1_555
C24 H11 1_555 1_555
C25 C24 1_555 1_555
H12 C25 1_555 1_555
C26 C21 1_555 1_555
C27 C26 1_555 1_555
H13 C27 1_555 1_555
C28 N7 1_555 1_555
H14 C28 1_555 1_555
N3 Ni2 1_555 1_555
C29 N3 1_555 1_555
H15 C29 1_555 1_555
C30 C29 1_555 1_555
H16 C30 1_555 1_555
C31 C30 1_555 1_555
N8 C34 1_555 1_555
C34 H19 1_555 1_555
C35 C34 1_555 1_555
H20 C35 1_555 1_555
C36 C31 1_555 1_555
O15 Ni2 1_555 1_555
O19 Ni2 1_555 1_555
Ni4 O10 1_555 1_555
Ni5 O12 1_555 1_555
C5 C6 1_555 1_555
C14_2 C15_2 1_555 1_555
C16 O8 1_555 1_555
C22 C23 1_555 1_555
C25 C26 1_555 1_555
C27 C28 1_555 1_555
C35 C36 1_555 1_555
O15 H36 1_555 1_555
O15 H37 1_555 1_555
O17 H43 1_555 1_555
Ni1_2 O1_2 1_555 1_555
O18_2 Ni1_2 1_555 1_555
N7_2 Ni1_2 1_555 1_555
O18_2 H39_2 1_555 1_555
Ni4 O5_2 1_555 1_555
Ni3_2 O3_2 1_555 1_555
C1_2 C2_2 1_555 1_555
C2_2 H1_2 1_555 1_555
C3_2 C2_2 1_555 1_555
C4_2 C3_2 1_555 1_555
H2_2 C4_2 1_555 1_555
C5_2 C4_2 1_555 1_555
C6_2 C1_2 1_555 1_555
H3_2 C6_2 1_555 1_555
C7_2 C1_2 1_555 1_555
O2_2 C7_2 1_555 1_555
C8_2 C3_2 1_555 1_555
O3_2 C8_2 1_555 1_555
O4_2 C8_2 1_555 1_555
C9_2 C5_2 1_555 1_555
O5_2 C9_2 1_555 1_555
O6_2 C9_2 1_555 1_555
C10_2 C11_2 1_555 1_555
C11_2 H4_2 1_555 1_555
C12_2 C11_2 1_555 1_555
C16_2 C10_2 1_555 1_555
O7_2 C16_2 1_555 1_555
C17_2 C12_2 1_555 1_555
O9_2 C17_2 1_555 1_555
O10_2 C17_2 1_555 1_555
C19_2 N1_2 1_555 1_555
H7_2 C19_2 1_555 1_555
C20_2 C19_2 1_555 1_555
H8_2 C20_2 1_555 1_555
C21_2 C20_2 1_555 1_555
C22_2 C21_2 1_555 1_555
H9_2 C22_2 1_555 1_555
C23_2 N1_2 1_555 1_555
H10_2 C23_2 1_555 1_555
N7_2 C24_2 1_555 1_555
C24_2 H11_2 1_555 1_555
C25_2 C24_2 1_555 1_555
H12_2 C25_2 1_555 1_555
C26_2 C21_2 1_555 1_555
C27_2 C26_2 1_555 1_555
H13_2 C27_2 1_555 1_555
C28_2 N7_2 1_555 1_555
H14_2 C28_2 1_555 1_555
N3_2 Ni4 1_555 1_555
C29_2 N3_2 1_555 1_555
H15_2 C29_2 1_555 1_555
C30_2 C29_2 1_555 1_555
H16_2 C30_2 1_555 1_555
C31_2 C30_2 1_555 1_555
C32_2 C31_2 1_555 1_555
H17_2 C32_2 1_555 1_555
C33_2 N3_2 1_555 1_555
H18_2 C33_2 1_555 1_555
N8_2 C34_2 1_555 1_555
C34_2 H19_2 1_555 1_555
C35_2 C34_2 1_555 1_555
H20_2 C35_2 1_555 1_555
C36_2 C31_2 1_555 1_555
C37_2 C36_2 1_555 1_555
H21_2 C37_2 1_555 1_555
C38_2 N8_2 1_555 1_555
H22_2 C38_2 1_555 1_555
N5_2 Ni3_2 1_555 1_555
C39_2 N5_2 1_555 1_555
H23_2 C39_2 1_555 1_555
C40_2 C39_2 1_555 1_555
H24_2 C40_2 1_555 1_555
C41_2 C40_2 1_555 1_555
C42_2 C41_2 1_555 1_555
H25_2 C42_2 1_555 1_555
C43_2 N5_2 1_555 1_555
H26_2 C43_2 1_555 1_555
N9_2 C44_2 1_555 1_555
C44_2 H27_2 1_555 1_555
C45_2 C44_2 1_555 1_555
H28_2 C45_2 1_555 1_555
C46_2 C41_2 1_555 1_555
C47_2 C46_2 1_555 1_555
H29_2 C47_2 1_555 1_555
C48_2 N9_2 1_555 1_555
H30_2 C48_2 1_555 1_555
O13_2 Ni3_2 1_555 1_555
O14_2 Ni3_2 1_555 1_555
C49_2 O14_2 1_555 1_555
H31_2 C49_2 1_555 1_555
H32_2 C49_2 1_555 1_555
H33_2 C49_2 1_555 1_555
O15_2 Ni4 1_555 1_555
O16_2 Ni4 1_555 1_555
O20_2 Ni3_2 1_555 1_555
Ni4_2 O10_2 1_555 1_555
C5_2 C6_2 1_555 1_555
C16_2 O8_2 1_555 1_555
C22_2 C23_2 1_555 1_555
C25_2 C26_2 1_555 1_555
C27_2 C28_2 1_555 1_555
C32_2 C33_2 1_555 1_555
C35_2 C36_2 1_555 1_555
C37_2 C38_2 1_555 1_555
C42_2 C43_2 1_555 1_555
C45_2 C46_2 1_555 1_555
C47_2 C48_2 1_555 1_555
O16_2 H35_2 1_555 1_555
O15_2 H36_2 1_555 1_555
O15_2 H37_2 1_555 1_555
O13_2 H40_2 1_555 1_555
O13_2 H41_2 1_555 1_555
O17_2 H43_2 1_555 1_555
H5_3 C13_3 1_555 1_555
C14_3 C13_3 1_555 1_555
H6_3 C15_3 1_555 1_555
C18_3 C14_3 1_555 1_555
O11_3 C18_3 1_555 1_555
O20_2 C18_3 1_555 1_555
C14_3 C15_3 1_555 1_555
Ni1_3 O1_3 1_555 1_555
O18_3 Ni1_3 1_555 1_555
N7_3 Ni1_3 1_555 1_555
O18_3 H39_3 1_555 1_555
Ni4_2 O5_3 1_555 1_555
C6_3 C1_3 1_555 1_555
H3_3 C6_3 1_555 1_555
C7_3 C1_3 1_555 1_555
O2_3 C7_3 1_555 1_555
C9_3 C5_3 1_555 1_555
O5_3 C9_3 1_555 1_555
O6_3 C9_3 1_555 1_555
C10_3 C11_3 1_555 1_555
C11_3 H4_3 1_555 1_555
C12_3 C11_3 1_555 1_555
C16_3 C10_3 1_555 1_555
O7_3 C16_3 1_555 1_555
C17_3 C12_3 1_555 1_555
O9_3 C17_3 1_555 1_555
O19 C17_3 1_555 1_555
C19_3 N1_3 1_555 1_555
H7_3 C19_3 1_555 1_555
C20_3 C19_3 1_555 1_555
H8_3 C20_3 1_555 1_555
C21_3 C20_3 1_555 1_555
C22_3 C21_3 1_555 1_555
H9_3 C22_3 1_555 1_555
C23_3 N1_3 1_555 1_555
H10_3 C23_3 1_555 1_555
N7_3 C24_3 1_555 1_555
C24_3 H11_3 1_555 1_555
C25_3 C24_3 1_555 1_555
H12_3 C25_3 1_555 1_555
C26_3 C21_3 1_555 1_555
C27_3 C26_3 1_555 1_555
H13_3 C27_3 1_555 1_555
C28_3 N7_3 1_555 1_555
H14_3 C28_3 1_555 1_555
N3_3 Ni4_2 1_555 1_555
C29_3 N3_3 1_555 1_555
H15_3 C29_3 1_555 1_555
C30_3 C29_3 1_555 1_555
H16_3 C30_3 1_555 1_555
C31_3 C30_3 1_555 1_555
N8_3 C34_3 1_555 1_555
C34_3 H19_3 1_555 1_555
C35_3 C34_3 1_555 1_555
H20_3 C35_3 1_555 1_555
C36_3 C31_3 1_555 1_555
O15_3 Ni4_2 1_555 1_555
C5_3 C6_3 1_555 1_555
C16_3 O8_3 1_555 1_555
C22_3 C23_3 1_555 1_555
C25_3 C26_3 1_555 1_555
C27_3 C28_3 1_555 1_555
C35_3 C36_3 1_555 1_555
O15_3 H36_3 1_555 1_555
O15_3 H37_3 1_555 1_555
O17_3 H43_3 1_555 1_555
Ni5 O3_3 1_555 1_555
C2_3 H1_3 1_555 1_555
C3_3 C2_3 1_555 1_555
C4_3 C3_3 1_555 1_555
H2_3 C4_3 1_555 1_555
C8_3 C3_3 1_555 1_555
O3_3 C8_3 1_555 1_555
O4_3 C8_3 1_555 1_555
H17_3 C32_3 1_555 1_555
H18_3 C33_3 1_555 1_555
H21_3 C37_3 1_555 1_555
H22_3 C38_3 1_555 1_555
N5_3 Ni5 1_555 1_555
C39_3 N5_3 1_555 1_555
H23_3 C39_3 1_555 1_555
C40_3 C39_3 1_555 1_555
H24_3 C40_3 1_555 1_555
C41_3 C40_3 1_555 1_555
C42_3 C41_3 1_555 1_555
H25_3 C42_3 1_555 1_555
C43_3 N5_3 1_555 1_555
H26_3 C43_3 1_555 1_555
N9_3 C44_3 1_555 1_555
C44_3 H27_3 1_555 1_555
C45_3 C44_3 1_555 1_555
H28_3 C45_3 1_555 1_555
C46_3 C41_3 1_555 1_555
C47_3 C46_3 1_555 1_555
H29_3 C47_3 1_555 1_555
C48_3 N9_3 1_555 1_555
H30_3 C48_3 1_555 1_555
O13_3 Ni5 1_555 1_555
O14_3 Ni5 1_555 1_555
C49_3 O14_3 1_555 1_555
H31_3 C49_3 1_555 1_555
H32_3 C49_3 1_555 1_555
H33_3 C49_3 1_555 1_555
C32_3 C33_3 1_555 1_555
C37_3 C38_3 1_555 1_555
C42_3 C43_3 1_555 1_555
C45_3 C46_3 1_555 1_555
C47_3 C48_3 1_555 1_555
O16_3 H35_3 1_555 1_555
O13_3 H40_3 1_555 1_555
O13_3 H41_3 1_555 1_555

#END
