
###############################################################################
#
# This file contains modified crystal structure data generated from the
# MOF subset of the Cambridge Structural Database (CSD) v543 
# hosted by the Cambridge Crystallographic Data Centre (CCDC).
#
# This work is licensed under the Creative Commons
# Attribution-NonCommercial-ShareAlike 4.0 International License.
# To view a copy of this license, visit
# http://creativecommons.org/licenses/by-nc-sa/4.0/
# or send a letter to
# Creative Commons, PO Box 1866, Mountain View, CA 94042, USA.
#
# CIF created using the CSD Python API on 29 September 2022
# The structure has been converted into the P1 space group
# The structure has a 3D framework
# The original CSD entry XUVHEB is in the orthorhombic crystal system
# The framework has been calculated to contain at least 10.0% void space
# The void calculation uses a probe of radius 1.32A, grid spacing 0.4
#
###############################################################################

data_XUVHEB
_chemical_formula_moiety         '(C208 H128 N8 O48 Zn14)n'
_symmetry_cell_setting           triclinic
_symmetry_space_group_name_H-M   'P 1'
_symmetry_Int_Tables_number      1
_space_group_name_Hall           'P 1'
loop_
_symmetry_equiv_pos_site_id
_symmetry_equiv_pos_as_xyz
1 x,y,z
_cell_length_a                   14.532(3)
_cell_length_b                   25.037(5)
_cell_length_c                   18.184(4)
_cell_angle_alpha                90
_cell_angle_beta                 90
_cell_angle_gamma                90
_cell_volume                     6616.02
loop_
_atom_site_label
_atom_site_type_symbol
_atom_site_fract_x
_atom_site_fract_y
_atom_site_fract_z
Zn9 Zn 0.03536(4) 0.85192(2) 0.05685(3)
Zn10 Zn -0.0000 0.85163(3) 0.2500
Zn1 Zn 0.46464(4) 0.35192(2) 0.05685(3)
Zn2 Zn 0.5000 0.35163(3) 0.2500
O1 O 0.3336(3) 0.3471(2) 0.0794(3)
O2 O 0.0300(3) 0.78563(16) 0.4260(2)
O3 O 0.4673(3) 0.41739(16) 0.4278(2)
O4 O 0.4440(7) 0.4078(3) 0.3112(3)
O5 O 0.3848(4) 0.3547(5) 0.1854(3)
O6 O 0.0554(10) 0.7958(4) 0.3124(4)
C6 C 0.3732(4) 0.4799(2) 0.3676(3)
C7 C 0.3500(5) 0.5054(3) 0.4337(3)
H5 H 0.3691 0.4913 0.4785
C8 C 0.2983(4) 0.5518(3) 0.4317(3)
H6 H 0.2846 0.5694 0.4754
C9 C 0.2665(4) 0.5728(2) 0.3652(3)
C10 C 0.2890(5) 0.5464(3) 0.3005(3)
H7 H 0.2690 0.5603 0.2558
C11 C 0.3407(6) 0.4997(3) 0.3014(3)
H8 H 0.3534 0.4819 0.2577
C12 C 0.2120(4) 0.6229(2) 0.3645(3)
C13 C 0.1728(9) 0.6429(4) 0.4246(4)
H9 H 0.1782 0.6241 0.4685
C14 C 0.2039(13) 0.6533(6) 0.3049(5)
H10 H 0.2346 0.6436 0.2621
C15 C 0.3218(4) 0.3488(3) 0.1466(3)
C16 C 0.2262(4) 0.3443(3) 0.1772(3)
C17 C 0.1517(4) 0.3339(3) 0.1327(3)
H11 H 0.1606 0.3284 0.0826
C18 C 0.0650(4) 0.3317(4) 0.1613(4)
H12 H 0.0158 0.3251 0.1299
C19 C 0.0480(4) 0.3389(3) 0.2349(3)
C20 C 0.1223(5) 0.3463(4) 0.2797(4)
H13 H 0.1135 0.3489 0.3303
C21 C 0.2112(4) 0.3501(4) 0.2511(4)
H14 H 0.2606 0.3566 0.2824
C22 C 0.0631(6) 0.7708(3) 0.3676(4)
C23 C 0.1124(5) 0.7194(3) 0.3657(3)
C24 C 0.1242(8) 0.6906(4) 0.4248(4)
H15 H 0.0991 0.7026 0.4689
C25 C 0.1502(15) 0.6996(6) 0.3054(5)
H16 H 0.1405 0.7173 0.2612
C26 C 0.4325(5) 0.4310(3) 0.3683(3)
O9 O 0.9700(3) 0.78563(16) 0.0740(2)
O10 O 0.5327(3) 0.41739(16) 0.0722(2)
O11 O 0.5560(7) 0.4078(3) 0.1888(3)
O12 O 0.9446(10) 0.7958(4) 0.1876(4)
C39 C 0.6268(4) 0.4799(2) 0.1324(3)
C40 C 0.6500(5) 0.5054(3) 0.0663(3)
H25 H 0.6309 0.4913 0.0215
C41 C 0.7017(4) 0.5518(3) 0.0683(3)
H26 H 0.7154 0.5694 0.0246
C42 C 0.7335(4) 0.5728(2) 0.1348(3)
C43 C 0.7110(5) 0.5464(3) 0.1995(3)
H27 H 0.7310 0.5603 0.2442
C44 C 0.6593(6) 0.4997(3) 0.1986(3)
H28 H 0.6466 0.4819 0.2423
C45 C 0.7880(4) 0.6229(2) 0.1355(3)
C46 C 0.8272(9) 0.6429(4) 0.0754(4)
H29 H 0.8218 0.6241 0.0315
C47 C 0.7961(13) 0.6533(6) 0.1951(5)
H30 H 0.7654 0.6436 0.2379
C48 C 0.9369(6) 0.7708(3) 0.1324(4)
C49 C 0.8876(5) 0.7194(3) 0.1343(3)
C50 C 0.8758(8) 0.6906(4) 0.0752(4)
H31 H 0.9009 0.7026 0.0311
C51 C 0.8498(15) 0.6996(6) 0.1946(5)
H32 H 0.8595 0.7173 0.2388
C52 C 0.5675(5) 0.4310(3) 0.1317(3)
O13 O 0.5300(3) 0.28563(16) 0.0740(2)
O14 O 0.6152(4) 0.3547(5) 0.3146(3)
O15 O 0.5554(10) 0.2958(4) 0.1876(4)
O16 O 0.4446(10) 0.2958(4) 0.3124(4)
Zn5 Zn 0.53536(4) 0.35192(2) 0.44315(3)
Zn10_2 Zn 1.0000 0.85163(3) 0.2500
N1 N 0.4748(3) 0.35181(19) 0.9428(2)
C1 C 0.5059(4) 0.3951(2) 0.9071(3)
H1 H 0.5212 0.4254 0.9340
C2 C 0.5160(4) 0.3957(3) 0.8317(3)
H2 H 0.5372 0.4265 0.8085
C3 C 0.4951(4) 0.3514(2) 0.7905(3)
C4 C 0.4620(5) 0.3071(3) 0.8274(3)
H3 H 0.4460 0.2764 0.8016
C5 C 0.4528(6) 0.3089(3) 0.9034(3)
H4 H 0.4305 0.2789 0.9278
C27 C 0.5049(4) 0.3514(2) 0.7095(3)
C28 C 0.4840(4) 0.3957(3) 0.6683(3)
C29 C 0.4941(4) 0.3951(2) 0.5929(3)
N2 N 0.5252(3) 0.35181(19) 0.5572(2)
C30 C 0.5472(6) 0.3089(3) 0.5966(3)
C31 C 0.5380(5) 0.3071(3) 0.6726(3)
H17 H 0.5540 0.2764 0.6984
H18 H 0.5695 0.2789 0.5722
H19 H 0.4788 0.4254 0.5660
H20 H 0.4628 0.4265 0.6915
C32 C 0.9520(4) 0.3389(3) 0.2651(3)
C33 C 0.9350(4) 0.3317(4) 0.3387(4)
C34 C 0.8483(4) 0.3339(3) 0.3673(3)
C35 C 0.7738(4) 0.3443(3) 0.3228(3)
C36 C 0.6782(4) 0.3488(3) 0.3534(3)
O7 O 0.6664(3) 0.3471(2) 0.4206(3)
C37 C 0.7888(4) 0.3501(4) 0.2489(4)
C38 C 0.8777(5) 0.3463(4) 0.2203(4)
H21 H 0.8865 0.3489 0.1697
H22 H 0.7394 0.3566 0.2176
H23 H 0.8394 0.3284 0.4174
H24 H 0.9842 0.3251 0.3701
Zn4 Zn 0.96464(4) 0.85192(2) 0.44315(3)
O17 O 0.4700(3) 0.28563(16) 0.4260(2)
C40_2 C 0.1500(5) 0.0054(3) 0.4337(3)
C41_2 C 0.2017(4) 0.0518(3) 0.4317(3)
H26_2 H 0.2154 0.0694 0.4754
C42_2 C 0.2335(4) 0.0728(2) 0.3652(3)
C43_2 C 0.2110(5) 0.0464(3) 0.3005(3)
H27_2 H 0.2310 0.0603 0.2558
C45_2 C 0.2880(4) 0.1229(2) 0.3645(3)
C46_2 C 0.3272(9) 0.1429(4) 0.4246(4)
H29_2 H 0.3218 0.1241 0.4685
C47_2 C 0.2961(13) 0.1533(6) 0.3049(5)
H30_2 H 0.2654 0.1436 0.2621
C48_2 C 0.4369(6) 0.2708(3) 0.3676(4)
C49_2 C 0.3876(5) 0.2194(3) 0.3657(3)
C50_2 C 0.3758(8) 0.1906(4) 0.4248(4)
H31_2 H 0.4009 0.2026 0.4689
C51_2 C 0.3498(15) 0.1996(6) 0.3054(5)
H32_2 H 0.3595 0.2173 0.2612
C1_2 C 0.0059(4) 0.8951(2) 0.5929(3)
H1_2 H 0.0212 0.9254 0.5660
C2_2 C 0.0160(4) 0.8957(3) 0.6683(3)
H2_2 H 0.0372 0.9265 0.6915
C27_2 C 0.0049(4) 0.8514(2) 0.7905(3)
N2_2 N 0.0252(3) 0.85181(19) 0.9428(2)
C30_2 C 0.0472(6) 0.8089(3) 0.9034(3)
C31_2 C 0.0380(5) 0.8071(3) 0.8274(3)
H17_2 H 0.0540 0.7764 0.8016
H18_2 H 0.0695 0.7789 0.9278
O10_2 O 0.0327(3) 0.91739(16) 0.4278(2)
O11_2 O 0.0560(7) 0.9078(3) 0.3112(3)
C39_2 C 0.1268(4) 0.9799(2) 0.3676(3)
H25_2 H 0.1309 0.9913 0.4785
C44_2 C 0.1593(6) 0.9997(3) 0.3014(3)
H28_2 H 0.1466 0.9819 0.2577
C52_2 C 0.0675(5) 0.9310(3) 0.3683(3)
O14_2 O 0.1152(4) 0.8547(5) 0.1854(3)
C7_2 C 0.8500(5) 0.0054(3) 0.0663(3)
C8_2 C 0.7983(4) 0.0518(3) 0.0683(3)
H6_2 H 0.7846 0.0694 0.0246
C9_2 C 0.7665(4) 0.0728(2) 0.1348(3)
C10_2 C 0.7890(5) 0.0464(3) 0.1995(3)
H7_2 H 0.7690 0.0603 0.2442
C12_2 C 0.7120(4) 0.1229(2) 0.1355(3)
C13_2 C 0.6728(9) 0.1429(4) 0.0754(4)
H9_2 H 0.6782 0.1241 0.0315
C14_2 C 0.7039(13) 0.1533(6) 0.1951(5)
H10_2 H 0.7346 0.1436 0.2379
C22_2 C 0.5631(6) 0.2708(3) 0.1324(4)
C23_2 C 0.6124(5) 0.2194(3) 0.1343(3)
C24_2 C 0.6242(8) 0.1906(4) 0.0752(4)
H15_2 H 0.5991 0.2026 0.0311
C25_2 C 0.6502(15) 0.1996(6) 0.1946(5)
H16_2 H 0.6405 0.2173 0.2388
N1_2 N 0.9748(3) 0.85181(19) 0.5572(2)
O1_2 O 0.8336(3) 0.8471(2) 0.4206(3)
O3_2 O 0.9673(3) 0.91739(16) 0.0722(2)
O4_2 O 0.9440(7) 0.9078(3) 0.1888(3)
O5_2 O 0.8848(4) 0.8547(5) 0.3146(3)
C3_2 C 0.9951(4) 0.8514(2) 0.7095(3)
C4_2 C 0.9620(5) 0.8071(3) 0.6726(3)
H3_2 H 0.9460 0.7764 0.6984
C5_2 C 0.9528(6) 0.8089(3) 0.5966(3)
H4_2 H 0.9305 0.7789 0.5722
C6_2 C 0.8732(4) 0.9799(2) 0.1324(3)
H5_2 H 0.8691 0.9913 0.0215
C11_2 C 0.8407(6) 0.9997(3) 0.1986(3)
H8_2 H 0.8534 0.9819 0.2423
C15_2 C 0.8218(4) 0.8488(3) 0.3534(3)
C16_2 C 0.7262(4) 0.8443(3) 0.3228(3)
C17_2 C 0.6517(4) 0.8339(3) 0.3673(3)
H11_2 H 0.6606 0.8284 0.4174
C18_2 C 0.5650(4) 0.8317(4) 0.3387(4)
H12_2 H 0.5158 0.8251 0.3701
C19_2 C 0.5480(4) 0.8389(3) 0.2651(3)
C20_2 C 0.6223(5) 0.8463(4) 0.2203(4)
H13_2 H 0.6135 0.8489 0.1697
C21_2 C 0.7112(4) 0.8501(4) 0.2489(4)
H14_2 H 0.7606 0.8566 0.2176
C26_2 C 0.9325(5) 0.9310(3) 0.1317(3)
C28_2 C 0.9840(4) 0.8957(3) 0.8317(3)
C29_2 C 0.9941(4) 0.8951(2) 0.9071(3)
H19_2 H 0.9788 0.9254 0.9340
H20_2 H 0.9628 0.9265 0.8085
C32_2 C 0.4520(4) 0.8389(3) 0.2349(3)
C33_2 C 0.4350(4) 0.8317(4) 0.1613(4)
C34_2 C 0.3483(4) 0.8339(3) 0.1327(3)
C35_2 C 0.2738(4) 0.8443(3) 0.1772(3)
C36_2 C 0.1782(4) 0.8488(3) 0.1466(3)
O7_2 O 0.1664(3) 0.8471(2) 0.0794(3)
C37_2 C 0.2888(4) 0.8501(4) 0.2511(4)
C38_2 C 0.3777(5) 0.8463(4) 0.2797(4)
H21_2 H 0.3865 0.8489 0.3303
H22_2 H 0.2394 0.8566 0.2824
H23_2 H 0.3394 0.8284 0.0826
H24_2 H 0.4842 0.8251 0.1299
Zn8 Zn -0.0000 0.14837(3) 0.7500
O17_2 O 0.0300(3) 0.21437(16) 0.9260(2)
O18 O 0.0327(3) 0.08261(16) 0.9278(2)
N3 N 0.9748(3) 0.14819(19) 0.0572(2)
Zn1_2 Zn 0.03536(4) 0.14808(2) 0.55685(3)
N1_3 N 0.0252(3) 0.14819(19) 0.4428(2)
O1_3 O 0.1664(3) 0.1529(2) 0.5794(3)
O4_3 O 0.0560(7) 0.0922(3) 0.8112(3)
O5_3 O 0.1152(4) 0.1453(5) 0.6854(3)
C3_3 C 0.0049(4) 0.1486(2) 0.2905(3)
C4_3 C 0.0380(5) 0.1929(3) 0.3274(3)
H3_3 H 0.0540 0.2236 0.3016
C5_3 C 0.0472(6) 0.1911(3) 0.4034(3)
H4_3 H 0.0695 0.2211 0.4278
C6_3 C 0.1268(4) 0.0201(2) 0.8676(3)
H5_3 H 0.1309 0.0087 0.9785
C11_3 C 0.1593(6) 0.0003(3) 0.8014(3)
H8_3 H 0.1466 0.0181 0.7577
C15_3 C 0.1782(4) 0.1512(3) 0.6466(3)
C16_3 C 0.2738(4) 0.1557(3) 0.6772(3)
C17_3 C 0.3483(4) 0.1661(3) 0.6327(3)
H11_3 H 0.3394 0.1716 0.5826
C18_3 C 0.4350(4) 0.1683(4) 0.6613(4)
H12_3 H 0.4842 0.1749 0.6299
C19_3 C 0.4520(4) 0.1611(3) 0.7349(3)
C20_3 C 0.3777(5) 0.1537(4) 0.7797(4)
H13_3 H 0.3865 0.1511 0.8303
C21_3 C 0.2888(4) 0.1499(4) 0.7511(4)
H14_3 H 0.2394 0.1434 0.7824
C26_3 C 0.0675(5) 0.0690(3) 0.8683(3)
C28_3 C 0.0160(4) 0.1043(3) 0.1683(3)
C29_3 C 0.0059(4) 0.1049(2) 0.0929(3)
H19_3 H 0.0212 0.0746 0.0660
H20_3 H 0.0372 0.0735 0.1915
C32_3 C 0.5480(4) 0.1611(3) 0.7651(3)
C33_3 C 0.5650(4) 0.1683(4) 0.8387(4)
C34_3 C 0.6517(4) 0.1661(3) 0.8673(3)
C35_3 C 0.7262(4) 0.1557(3) 0.8228(3)
C36_3 C 0.8218(4) 0.1512(3) 0.8534(3)
O7_3 O 0.8336(3) 0.1529(2) 0.9206(3)
O8 O 0.8848(4) 0.1453(5) 0.8146(3)
C37_3 C 0.7112(4) 0.1499(4) 0.7489(4)
C38_3 C 0.6223(5) 0.1537(4) 0.7203(4)
H21_3 H 0.6135 0.1511 0.6697
H22_3 H 0.7606 0.1434 0.7176
H23_3 H 0.6606 0.1716 0.9174
H24_3 H 0.5158 0.1749 0.8701
Zn3 Zn 0.96464(4) 0.14808(2) 0.94315(3)
O16_2 O 0.0554(10) 0.2042(4) 0.8124(4)
Zn8_2 Zn 1.0000 0.14837(3) 0.7500
O2_2 O 0.4700(3) 0.71437(16) 0.9260(2)
O6_2 O 0.4446(10) 0.7042(4) 0.8124(4)
C7_3 C 0.1500(5) 0.9946(3) 0.9337(3)
C8_3 C 0.2017(4) 0.9482(3) 0.9317(3)
H6_3 H 0.2154 0.9306 0.9754
C9_3 C 0.2335(4) 0.9272(2) 0.8652(3)
C10_3 C 0.2110(5) 0.9536(3) 0.8005(3)
H7_3 H 0.2310 0.9397 0.7558
C12_3 C 0.2880(4) 0.8771(2) 0.8645(3)
C13_3 C 0.3272(9) 0.8571(4) 0.9246(4)
H9_3 H 0.3218 0.8759 0.9685
C14_3 C 0.2961(13) 0.8467(6) 0.8049(5)
H10_3 H 0.2654 0.8564 0.7621
C22_3 C 0.4369(6) 0.7292(3) 0.8676(4)
C23_3 C 0.3876(5) 0.7806(3) 0.8657(3)
C24_3 C 0.3758(8) 0.8094(4) 0.9248(4)
H15_3 H 0.4009 0.7974 0.9689
C25_3 C 0.3498(15) 0.8004(6) 0.8054(5)
H16_3 H 0.3595 0.7827 0.7612
Zn4_2 Zn 0.53536(4) 0.64808(2) 0.94315(3)
Zn6 Zn 0.5000 0.64837(3) 0.7500
C1_3 C 0.9941(4) 0.1049(2) 0.4071(3)
H1_3 H 0.9788 0.0746 0.4340
C2_3 C 0.9840(4) 0.1043(3) 0.3317(3)
H2_3 H 0.9628 0.0735 0.3085
C27_3 C 0.9951(4) 0.1486(2) 0.2095(3)
C30_3 C 0.9528(6) 0.1911(3) 0.0966(3)
C31_3 C 0.9620(5) 0.1929(3) 0.1726(3)
H17_3 H 0.9460 0.2236 0.1984
H18_3 H 0.9305 0.2211 0.0722
O10_3 O 0.9673(3) 0.08261(16) 0.5722(2)
O11_3 O 0.9440(7) 0.0922(3) 0.6888(3)
C39_3 C 0.8732(4) 0.0201(2) 0.6324(3)
H25_3 H 0.8691 0.0087 0.5215
C44_3 C 0.8407(6) 0.0003(3) 0.6986(3)
H28_3 H 0.8534 0.0181 0.7423
C52_3 C 0.9325(5) 0.0690(3) 0.6317(3)
O13_2 O 0.9700(3) 0.21437(16) 0.5740(2)
O15_2 O 0.9446(10) 0.2042(4) 0.6876(4)
O9_2 O 0.5300(3) 0.71437(16) 0.5740(2)
O12_2 O 0.5554(10) 0.7042(4) 0.6876(4)
C40_3 C 0.8500(5) 0.9946(3) 0.5663(3)
C41_3 C 0.7983(4) 0.9482(3) 0.5683(3)
H26_3 H 0.7846 0.9306 0.5246
C42_3 C 0.7665(4) 0.9272(2) 0.6348(3)
C43_3 C 0.7890(5) 0.9536(3) 0.6995(3)
H27_3 H 0.7690 0.9397 0.7442
C45_3 C 0.7120(4) 0.8771(2) 0.6355(3)
C46_3 C 0.6728(9) 0.8571(4) 0.5754(4)
H29_3 H 0.6782 0.8759 0.5315
C47_3 C 0.7039(13) 0.8467(6) 0.6951(5)
H30_3 H 0.7346 0.8564 0.7379
C48_3 C 0.5631(6) 0.7292(3) 0.6324(4)
C49_3 C 0.6124(5) 0.7806(3) 0.6343(3)
C50_3 C 0.6242(8) 0.8094(4) 0.5752(4)
H31_3 H 0.5991 0.7974 0.5311
C51_3 C 0.6502(15) 0.8004(6) 0.6946(5)
H32_3 H 0.6405 0.7827 0.7388
Zn9_2 Zn 0.46464(4) 0.64808(2) 0.55685(3)
C32_4 C 0.0480(4) 0.6611(3) 0.7349(3)
C33_4 C 0.0650(4) 0.6683(4) 0.6613(4)
C34_4 C 0.1517(4) 0.6661(3) 0.6327(3)
C35_4 C 0.2262(4) 0.6557(3) 0.6772(3)
C36_4 C 0.3218(4) 0.6512(3) 0.6466(3)
O7_4 O 0.3336(3) 0.6529(2) 0.5794(3)
O8_2 O 0.3848(4) 0.6453(5) 0.6854(3)
C37_4 C 0.2112(4) 0.6499(4) 0.7511(4)
C38_4 C 0.1223(5) 0.6537(4) 0.7797(4)
H21_4 H 0.1135 0.6511 0.8303
H22_4 H 0.2606 0.6434 0.7824
H23_4 H 0.1606 0.6716 0.5826
H24_4 H 0.0158 0.6749 0.6299
N3_2 N 0.4748(3) 0.64819(19) 0.4428(2)
O18_2 O 0.5327(3) 0.58261(16) 0.5722(2)
N1_4 N 0.5252(3) 0.64819(19) 0.0572(2)
C1_4 C 0.4941(4) 0.6049(2) 0.0929(3)
H1_4 H 0.4788 0.5746 0.0660
C2_4 C 0.4840(4) 0.6043(3) 0.1683(3)
H2_4 H 0.4628 0.5735 0.1915
C3_4 C 0.5049(4) 0.6486(2) 0.2095(3)
C4_4 C 0.5380(5) 0.6929(3) 0.1726(3)
H3_4 H 0.5540 0.7236 0.1984
C5_4 C 0.5472(6) 0.6911(3) 0.0966(3)
H4_4 H 0.5695 0.7211 0.0722
C27_4 C 0.4951(4) 0.6486(2) 0.2905(3)
C28_4 C 0.5160(4) 0.6043(3) 0.3317(3)
C29_4 C 0.5059(4) 0.6049(2) 0.4071(3)
C30_4 C 0.4528(6) 0.6911(3) 0.4034(3)
C31_4 C 0.4620(5) 0.6929(3) 0.3274(3)
H17_4 H 0.4460 0.7236 0.3016
H18_4 H 0.4305 0.7211 0.4278
H19_4 H 0.5212 0.5746 0.4340
H20_4 H 0.5372 0.5735 0.3085
O1_4 O 0.6664(3) 0.6529(2) 0.9206(3)
O4_4 O 0.5560(7) 0.5922(3) 0.6888(3)
O5_4 O 0.6152(4) 0.6453(5) 0.8146(3)
C6_4 C 0.6268(4) 0.5201(2) 0.6324(3)
C7_4 C 0.6500(5) 0.4946(3) 0.5663(3)
H5_4 H 0.6309 0.5087 0.5215
C8_4 C 0.7017(4) 0.4482(3) 0.5683(3)
H6_4 H 0.7154 0.4306 0.5246
C9_4 C 0.7335(4) 0.4272(2) 0.6348(3)
C10_4 C 0.7110(5) 0.4536(3) 0.6995(3)
H7_4 H 0.7310 0.4397 0.7442
C11_4 C 0.6593(6) 0.5003(3) 0.6986(3)
H8_4 H 0.6466 0.5181 0.7423
C12_4 C 0.7880(4) 0.3771(2) 0.6355(3)
C13_4 C 0.8272(9) 0.3571(4) 0.5754(4)
H9_4 H 0.8218 0.3759 0.5315
C14_4 C 0.7961(13) 0.3467(6) 0.6951(5)
H10_4 H 0.7654 0.3564 0.7379
C15_4 C 0.6782(4) 0.6512(3) 0.8534(3)
C16_4 C 0.7738(4) 0.6557(3) 0.8228(3)
C17_4 C 0.8483(4) 0.6661(3) 0.8673(3)
H11_4 H 0.8394 0.6716 0.9174
C18_4 C 0.9350(4) 0.6683(4) 0.8387(4)
H12_4 H 0.9842 0.6749 0.8701
C19_4 C 0.9520(4) 0.6611(3) 0.7651(3)
C20_4 C 0.8777(5) 0.6537(4) 0.7203(4)
H13_4 H 0.8865 0.6511 0.6697
C21_4 C 0.7888(4) 0.6499(4) 0.7489(4)
H14_4 H 0.7394 0.6434 0.7176
C22_4 C 0.9369(6) 0.2292(3) 0.6324(4)
C23_4 C 0.8876(5) 0.2806(3) 0.6343(3)
C24_4 C 0.8758(8) 0.3094(4) 0.5752(4)
H15_4 H 0.9009 0.2974 0.5311
C25_4 C 0.8498(15) 0.3004(6) 0.6946(5)
H16_4 H 0.8595 0.2827 0.7388
C26_4 C 0.5675(5) 0.5690(3) 0.6317(3)
O10_4 O 0.4673(3) 0.58261(16) 0.9278(2)
O11_4 O 0.4440(7) 0.5922(3) 0.8112(3)
C39_4 C 0.3732(4) 0.5201(2) 0.8676(3)
C40_4 C 0.3500(5) 0.4946(3) 0.9337(3)
H25_4 H 0.3691 0.5087 0.9785
C41_4 C 0.2983(4) 0.4482(3) 0.9317(3)
H26_4 H 0.2846 0.4306 0.9754
C42_4 C 0.2665(4) 0.4272(2) 0.8652(3)
C43_4 C 0.2890(5) 0.4536(3) 0.8005(3)
H27_4 H 0.2690 0.4397 0.7558
C44_4 C 0.3407(6) 0.5003(3) 0.8014(3)
H28_4 H 0.3534 0.5181 0.7577
C45_4 C 0.2120(4) 0.3771(2) 0.8645(3)
C46_4 C 0.1728(9) 0.3571(4) 0.9246(4)
H29_4 H 0.1782 0.3759 0.9685
C47_4 C 0.2039(13) 0.3467(6) 0.8049(5)
H30_4 H 0.2346 0.3564 0.7621
C48_4 C 0.0631(6) 0.2292(3) 0.8676(4)
C49_4 C 0.1124(5) 0.2806(3) 0.8657(3)
C50_4 C 0.1242(8) 0.3094(4) 0.9248(4)
H31_4 H 0.0991 0.2974 0.9689
C51_4 C 0.1502(15) 0.3004(6) 0.8054(5)
H32_4 H 0.1405 0.2827 0.7612
C52_4 C 0.4325(5) 0.5690(3) 0.8683(3)
loop_
_geom_bond_atom_site_label_1
_geom_bond_atom_site_label_2
_geom_bond_site_symmetry_1
_geom_bond_site_symmetry_2
Zn2 O4 1_555 1_555
O1 Zn1 1_555 1_555
O2 C22 1_555 1_555
O3 C26 1_555 1_555
O4 C26 1_555 1_555
O5 Zn2 1_555 1_555
O6 C22 1_555 1_555
C6 C7 1_555 1_555
C7 H5 1_555 1_555
C8 C7 1_555 1_555
H6 C8 1_555 1_555
C9 C8 1_555 1_555
C10 C9 1_555 1_555
H7 C10 1_555 1_555
C11 C6 1_555 1_555
H8 C11 1_555 1_555
C12 C9 1_555 1_555
C13 C12 1_555 1_555
H9 C13 1_555 1_555
C14 C12 1_555 1_555
H10 C14 1_555 1_555
C15 O1 1_555 1_555
C16 C15 1_555 1_555
C17 C16 1_555 1_555
H11 C17 1_555 1_555
C18 C17 1_555 1_555
H12 C18 1_555 1_555
C19 C18 1_555 1_555
C20 C19 1_555 1_555
H13 C20 1_555 1_555
C21 C16 1_555 1_555
H14 C21 1_555 1_555
C22 C23 1_555 1_555
C23 C24 1_555 1_555
C24 C13 1_555 1_555
H15 C24 1_555 1_555
C25 C14 1_555 1_555
H16 C25 1_555 1_555
C26 C6 1_555 1_555
O9 C48 1_555 1_555
O10 Zn1 1_555 1_555
O11 Zn2 1_555 1_555
O12 C48 1_555 1_555
C39 C40 1_555 1_555
C40 H25 1_555 1_555
C41 C40 1_555 1_555
H26 C41 1_555 1_555
C42 C41 1_555 1_555
C43 C42 1_555 1_555
H27 C43 1_555 1_555
C44 C39 1_555 1_555
H28 C44 1_555 1_555
C45 C42 1_555 1_555
C46 C45 1_555 1_555
H29 C46 1_555 1_555
C47 C45 1_555 1_555
H30 C47 1_555 1_555
C48 C49 1_555 1_555
C49 C50 1_555 1_555
C50 C46 1_555 1_555
H31 C50 1_555 1_555
C51 C47 1_555 1_555
H32 C51 1_555 1_555
C52 O10 1_555 1_555
O13 Zn1 1_555 1_555
O14 Zn2 1_555 1_555
O15 Zn2 1_555 1_555
O16 Zn2 1_555 1_555
Zn5 O3 1_555 1_555
Zn10 O6 1_555 1_555
Zn10_2 O12 1_555 1_555
O5 C15 1_555 1_555
C10 C11 1_555 1_555
C20 C21 1_555 1_555
C23 C25 1_555 1_555
O11 C52 1_555 1_555
C39 C52 1_555 1_555
C43 C44 1_555 1_555
C49 C51 1_555 1_555
N1 C1 1_555 1_555
C1 H1 1_555 1_555
C2 C1 1_555 1_555
H2 C2 1_555 1_555
C3 C2 1_555 1_555
C4 C3 1_555 1_555
H3 C4 1_555 1_555
C5 N1 1_555 1_555
H4 C5 1_555 1_555
C27 C3 1_555 1_555
C28 C27 1_555 1_555
C29 C28 1_555 1_555
N2 C29 1_555 1_555
C30 N2 1_555 1_555
C31 C27 1_555 1_555
H17 C31 1_555 1_555
H18 C30 1_555 1_555
H19 C29 1_555 1_555
H20 C28 1_555 1_555
Zn5 N2 1_555 1_555
C4 C5 1_555 1_555
C30 C31 1_555 1_555
C33 C32 1_555 1_555
C34 C33 1_555 1_555
C35 C34 1_555 1_555
C36 C35 1_555 1_555
O7 C36 1_555 1_555
O14 C36 1_555 1_555
C37 C35 1_555 1_555
C38 C32 1_555 1_555
H21 C38 1_555 1_555
H22 C37 1_555 1_555
H23 C34 1_555 1_555
H24 C33 1_555 1_555
Zn5 O7 1_555 1_555
O17 Zn5 1_555 1_555
C37 C38 1_555 1_555
O17 C48_2 1_555 1_555
O16 C48_2 1_555 1_555
C41_2 C40_2 1_555 1_555
H26_2 C41_2 1_555 1_555
C42_2 C41_2 1_555 1_555
C43_2 C42_2 1_555 1_555
H27_2 C43_2 1_555 1_555
C45_2 C42_2 1_555 1_555
C46_2 C45_2 1_555 1_555
H29_2 C46_2 1_555 1_555
C47_2 C45_2 1_555 1_555
H30_2 C47_2 1_555 1_555
C48_2 C49_2 1_555 1_555
C49_2 C50_2 1_555 1_555
C50_2 C46_2 1_555 1_555
H31_2 C50_2 1_555 1_555
C51_2 C47_2 1_555 1_555
H32_2 C51_2 1_555 1_555
C49_2 C51_2 1_555 1_555
C1_2 H1_2 1_555 1_555
C2_2 C1_2 1_555 1_555
H2_2 C2_2 1_555 1_555
C30_2 N2_2 1_555 1_555
C31_2 C27_2 1_555 1_555
H17_2 C31_2 1_555 1_555
H18_2 C30_2 1_555 1_555
O11_2 Zn10 1_555 1_555
C44_2 C39_2 1_555 1_555
H28_2 C44_2 1_555 1_555
C52_2 O10_2 1_555 1_555
O14_2 Zn10 1_555 1_555
C30_2 C31_2 1_555 1_555
O11_2 C52_2 1_555 1_555
C39_2 C52_2 1_555 1_555
O13 C22_2 1_555 1_555
O15 C22_2 1_555 1_555
C8_2 C7_2 1_555 1_555
H6_2 C8_2 1_555 1_555
C9_2 C8_2 1_555 1_555
C10_2 C9_2 1_555 1_555
H7_2 C10_2 1_555 1_555
C12_2 C9_2 1_555 1_555
C13_2 C12_2 1_555 1_555
H9_2 C13_2 1_555 1_555
C14_2 C12_2 1_555 1_555
H10_2 C14_2 1_555 1_555
C22_2 C23_2 1_555 1_555
C23_2 C24_2 1_555 1_555
C24_2 C13_2 1_555 1_555
H15_2 C24_2 1_555 1_555
C25_2 C14_2 1_555 1_555
H16_2 C25_2 1_555 1_555
C23_2 C25_2 1_555 1_555
Zn4 N1_2 1_555 1_555
Zn10_2 O4_2 1_555 1_555
O1_2 Zn4 1_555 1_555
O3_2 C26_2 1_555 1_555
O4_2 C26_2 1_555 1_555
O5_2 Zn10_2 1_555 1_555
C4_2 C3_2 1_555 1_555
H3_2 C4_2 1_555 1_555
C5_2 N1_2 1_555 1_555
H4_2 C5_2 1_555 1_555
C11_2 C6_2 1_555 1_555
H8_2 C11_2 1_555 1_555
C15_2 O1_2 1_555 1_555
C16_2 C15_2 1_555 1_555
C17_2 C16_2 1_555 1_555
H11_2 C17_2 1_555 1_555
C18_2 C17_2 1_555 1_555
H12_2 C18_2 1_555 1_555
C19_2 C18_2 1_555 1_555
C20_2 C19_2 1_555 1_555
H13_2 C20_2 1_555 1_555
C21_2 C16_2 1_555 1_555
H14_2 C21_2 1_555 1_555
C26_2 C6_2 1_555 1_555
C29_2 C28_2 1_555 1_555
H19_2 C29_2 1_555 1_555
H20_2 C28_2 1_555 1_555
C32_2 C19_2 1_555 1_555
C33_2 C32_2 1_555 1_555
C34_2 C33_2 1_555 1_555
C35_2 C34_2 1_555 1_555
C36_2 C35_2 1_555 1_555
O7_2 C36_2 1_555 1_555
O14_2 C36_2 1_555 1_555
C37_2 C35_2 1_555 1_555
C38_2 C32_2 1_555 1_555
H21_2 C38_2 1_555 1_555
H22_2 C37_2 1_555 1_555
H23_2 C34_2 1_555 1_555
H24_2 C33_2 1_555 1_555
Zn9 O7_2 1_555 1_555
O5_2 C15_2 1_555 1_555
C4_2 C5_2 1_555 1_555
C20_2 C21_2 1_555 1_555
C37_2 C38_2 1_555 1_555
Zn1_2 N1_3 1_555 1_555
Zn8 O4_3 1_555 1_555
O1_3 Zn1_2 1_555 1_555
O18 C26_3 1_555 1_555
O4_3 C26_3 1_555 1_555
O5_3 Zn8 1_555 1_555
C4_3 C3_3 1_555 1_555
H3_3 C4_3 1_555 1_555
C5_3 N1_3 1_555 1_555
H4_3 C5_3 1_555 1_555
C11_3 C6_3 1_555 1_555
H8_3 C11_3 1_555 1_555
C15_3 O1_3 1_555 1_555
C16_3 C15_3 1_555 1_555
C17_3 C16_3 1_555 1_555
H11_3 C17_3 1_555 1_555
C18_3 C17_3 1_555 1_555
H12_3 C18_3 1_555 1_555
C19_3 C18_3 1_555 1_555
C20_3 C19_3 1_555 1_555
H13_3 C20_3 1_555 1_555
C21_3 C16_3 1_555 1_555
H14_3 C21_3 1_555 1_555
C26_3 C6_3 1_555 1_555
C29_3 C28_3 1_555 1_555
H19_3 C29_3 1_555 1_555
H20_3 C28_3 1_555 1_555
C32_3 C19_3 1_555 1_555
C33_3 C32_3 1_555 1_555
C34_3 C33_3 1_555 1_555
C35_3 C34_3 1_555 1_555
C36_3 C35_3 1_555 1_555
O7_3 C36_3 1_555 1_555
O8 C36_3 1_555 1_555
C37_3 C35_3 1_555 1_555
C38_3 C32_3 1_555 1_555
H21_3 C38_3 1_555 1_555
H22_3 C37_3 1_555 1_555
H23_3 C34_3 1_555 1_555
H24_3 C33_3 1_555 1_555
Zn3 O7_3 1_555 1_555
O16_2 Zn8 1_555 1_555
Zn8_2 O8 1_555 1_555
O5_3 C15_3 1_555 1_555
C4_3 C5_3 1_555 1_555
C20_3 C21_3 1_555 1_555
C37_3 C38_3 1_555 1_555
O2_2 C22_3 1_555 1_555
O6_2 C22_3 1_555 1_555
C8_3 C7_3 1_555 1_555
H6_3 C8_3 1_555 1_555
C9_3 C8_3 1_555 1_555
C10_3 C9_3 1_555 1_555
H7_3 C10_3 1_555 1_555
C12_3 C9_3 1_555 1_555
C13_3 C12_3 1_555 1_555
H9_3 C13_3 1_555 1_555
C14_3 C12_3 1_555 1_555
H10_3 C14_3 1_555 1_555
C22_3 C23_3 1_555 1_555
C23_3 C24_3 1_555 1_555
C24_3 C13_3 1_555 1_555
H15_3 C24_3 1_555 1_555
C25_3 C14_3 1_555 1_555
H16_3 C25_3 1_555 1_555
Zn4_2 O2_2 1_555 1_555
Zn6 O6_2 1_555 1_555
C23_3 C25_3 1_555 1_555
C1_3 H1_3 1_555 1_555
C2_3 C1_3 1_555 1_555
H2_3 C2_3 1_555 1_555
C30_3 N3 1_555 1_555
C31_3 C27_3 1_555 1_555
H17_3 C31_3 1_555 1_555
H18_3 C30_3 1_555 1_555
O11_3 Zn8_2 1_555 1_555
C44_3 C39_3 1_555 1_555
H28_3 C44_3 1_555 1_555
C52_3 O10_3 1_555 1_555
O15_2 Zn8_2 1_555 1_555
C30_3 C31_3 1_555 1_555
O11_3 C52_3 1_555 1_555
C39_3 C52_3 1_555 1_555
O9_2 C48_3 1_555 1_555
O12_2 C48_3 1_555 1_555
C41_3 C40_3 1_555 1_555
H26_3 C41_3 1_555 1_555
C42_3 C41_3 1_555 1_555
C43_3 C42_3 1_555 1_555
H27_3 C43_3 1_555 1_555
C45_3 C42_3 1_555 1_555
C46_3 C45_3 1_555 1_555
H29_3 C46_3 1_555 1_555
C47_3 C45_3 1_555 1_555
H30_3 C47_3 1_555 1_555
C48_3 C49_3 1_555 1_555
C49_3 C50_3 1_555 1_555
C50_3 C46_3 1_555 1_555
H31_3 C50_3 1_555 1_555
C51_3 C47_3 1_555 1_555
H32_3 C51_3 1_555 1_555
Zn9_2 O9_2 1_555 1_555
Zn6 O12_2 1_555 1_555
C49_3 C51_3 1_555 1_555
C33_4 C32_4 1_555 1_555
C34_4 C33_4 1_555 1_555
C35_4 C34_4 1_555 1_555
C36_4 C35_4 1_555 1_555
O7_4 C36_4 1_555 1_555
O8_2 C36_4 1_555 1_555
C37_4 C35_4 1_555 1_555
C38_4 C32_4 1_555 1_555
H21_4 C38_4 1_555 1_555
H22_4 C37_4 1_555 1_555
H23_4 C34_4 1_555 1_555
H24_4 C33_4 1_555 1_555
Zn9_2 O7_4 1_555 1_555
Zn6 O8_2 1_555 1_555
N3_2 Zn9_2 1_555 1_555
O18_2 Zn9_2 1_555 1_555
C37_4 C38_4 1_555 1_555
N1_4 C1_4 1_555 1_555
C1_4 H1_4 1_555 1_555
C2_4 C1_4 1_555 1_555
H2_4 C2_4 1_555 1_555
C3_4 C2_4 1_555 1_555
C4_4 C3_4 1_555 1_555
H3_4 C4_4 1_555 1_555
C5_4 N1_4 1_555 1_555
H4_4 C5_4 1_555 1_555
C27_4 C3_4 1_555 1_555
C28_4 C27_4 1_555 1_555
C29_4 C28_4 1_555 1_555
N3_2 C29_4 1_555 1_555
C30_4 N3_2 1_555 1_555
C31_4 C27_4 1_555 1_555
H17_4 C31_4 1_555 1_555
H18_4 C30_4 1_555 1_555
H19_4 C29_4 1_555 1_555
H20_4 C28_4 1_555 1_555
C4_4 C5_4 1_555 1_555
C30_4 C31_4 1_555 1_555
Zn6 O4_4 1_555 1_555
O1_4 Zn4_2 1_555 1_555
O13_2 C22_4 1_555 1_555
O18_2 C26_4 1_555 1_555
O4_4 C26_4 1_555 1_555
O5_4 Zn6 1_555 1_555
O15_2 C22_4 1_555 1_555
C6_4 C7_4 1_555 1_555
C7_4 H5_4 1_555 1_555
C8_4 C7_4 1_555 1_555
H6_4 C8_4 1_555 1_555
C9_4 C8_4 1_555 1_555
C10_4 C9_4 1_555 1_555
H7_4 C10_4 1_555 1_555
C11_4 C6_4 1_555 1_555
H8_4 C11_4 1_555 1_555
C12_4 C9_4 1_555 1_555
C13_4 C12_4 1_555 1_555
H9_4 C13_4 1_555 1_555
C14_4 C12_4 1_555 1_555
H10_4 C14_4 1_555 1_555
C15_4 O1_4 1_555 1_555
C16_4 C15_4 1_555 1_555
C17_4 C16_4 1_555 1_555
H11_4 C17_4 1_555 1_555
C18_4 C17_4 1_555 1_555
H12_4 C18_4 1_555 1_555
C19_4 C18_4 1_555 1_555
C20_4 C19_4 1_555 1_555
H13_4 C20_4 1_555 1_555
C21_4 C16_4 1_555 1_555
H14_4 C21_4 1_555 1_555
C22_4 C23_4 1_555 1_555
C23_4 C24_4 1_555 1_555
C24_4 C13_4 1_555 1_555
H15_4 C24_4 1_555 1_555
C25_4 C14_4 1_555 1_555
H16_4 C25_4 1_555 1_555
C26_4 C6_4 1_555 1_555
O17_2 C48_4 1_555 1_555
O10_4 Zn4_2 1_555 1_555
O11_4 Zn6 1_555 1_555
O16_2 C48_4 1_555 1_555
C39_4 C40_4 1_555 1_555
C40_4 H25_4 1_555 1_555
C41_4 C40_4 1_555 1_555
H26_4 C41_4 1_555 1_555
C42_4 C41_4 1_555 1_555
C43_4 C42_4 1_555 1_555
H27_4 C43_4 1_555 1_555
C44_4 C39_4 1_555 1_555
H28_4 C44_4 1_555 1_555
C45_4 C42_4 1_555 1_555
C46_4 C45_4 1_555 1_555
H29_4 C46_4 1_555 1_555
C47_4 C45_4 1_555 1_555
H30_4 C47_4 1_555 1_555
C48_4 C49_4 1_555 1_555
C49_4 C50_4 1_555 1_555
C50_4 C46_4 1_555 1_555
H31_4 C50_4 1_555 1_555
C51_4 C47_4 1_555 1_555
H32_4 C51_4 1_555 1_555
C52_4 O10_4 1_555 1_555
O5_4 C15_4 1_555 1_555
C10_4 C11_4 1_555 1_555
C20_4 C21_4 1_555 1_555
C23_4 C25_4 1_555 1_555
O11_4 C52_4 1_555 1_555
C39_4 C52_4 1_555 1_555
C43_4 C44_4 1_555 1_555
C49_4 C51_4 1_555 1_555

#END
