
###############################################################################
#
# This file contains modified crystal structure data generated from the
# MOF subset of the Cambridge Structural Database (CSD) v543 
# hosted by the Cambridge Crystallographic Data Centre (CCDC).
#
# This work is licensed under the Creative Commons
# Attribution-NonCommercial-ShareAlike 4.0 International License.
# To view a copy of this license, visit
# http://creativecommons.org/licenses/by-nc-sa/4.0/
# or send a letter to
# Creative Commons, PO Box 1866, Mountain View, CA 94042, USA.
#
# CIF created using the CSD Python API on 29 September 2022
# The structure has been converted into the P1 space group
# The structure has a 3D framework
# The original CSD entry XUVHEB02 is in the orthorhombic crystal system
# The framework has been calculated to contain at least 10.0% void space
# The void calculation uses a probe of radius 1.32A, grid spacing 0.4
#
###############################################################################

data_XUVHEB02
_chemical_formula_moiety         '(C208 H128 N8 O48 Zn14)n'
_symmetry_cell_setting           triclinic
_symmetry_space_group_name_H-M   'P 1'
_symmetry_Int_Tables_number      1
_space_group_name_Hall           'P 1'
loop_
_symmetry_equiv_pos_site_id
_symmetry_equiv_pos_as_xyz
1 x,y,z
_cell_length_a                   14.5387(4)
_cell_length_b                   25.0165(8)
_cell_length_c                   18.1249(7)
_cell_angle_alpha                90
_cell_angle_beta                 90
_cell_angle_gamma                90
_cell_volume                     6592.16
loop_
_atom_site_label
_atom_site_type_symbol
_atom_site_fract_x
_atom_site_fract_y
_atom_site_fract_z
O1 O 0.0834(3) 0.10490(19) 0.1830(2)
Zn2 Zn 0.000000 0.14861(2) 0.250000
O5 O 0.03315(17) 0.08271(10) 0.07195(13)
C7 C 0.1274(3) 0.02047(14) 0.13188(19)
C8 C 0.0677(3) 0.06901(15) 0.13134(19)
H3 H 0.144133 0.017128 0.242089
H10 H 0.128841 0.007999 0.021813
O14 O 0.0892(3) 0.19105(18) 0.1794(3)
O16 O 0.1165(3) 0.1274(3) 0.3155(3)
O17 O 0.02902(19) 0.21464(10) 0.07410(14)
C1 C 0.0053(2) 0.10526(13) 0.90738(17)
H1 H 0.020160 0.074838 0.934364
C2 C 0.0166(3) 0.10415(15) 0.83189(18)
H2 H 0.038914 0.073552 0.808874
N2 N 0.0259(2) 0.14802(10) 0.55659(14)
C36 C 0.0053(3) 0.14872(13) 0.70926(17)
C37 C 0.0376(3) 0.19308(16) 0.6718(2)
H23 H 0.053148 0.223922 0.697642
C38 C 0.0468(3) 0.19144(15) 0.59628(19)
H24 H 0.068298 0.221670 0.571902
Zn4 Zn 0.03550(2) 0.14818(2) 0.44304(2)
O2 O 0.4108(3) 0.69105(18) 0.1794(3)
O6 O 0.47098(19) 0.71464(10) 0.07410(14)
C3 C 0.2884(4) 0.87688(18) 0.1354(2)
C9 C 0.1587(3) 0.99986(15) 0.1982(2)
C10 C 0.2115(3) 0.95368(15) 0.1997(2)
H4 H 0.231247 0.940019 0.244748
C11 C 0.2353(3) 0.92757(14) 0.1346(2)
C12 C 0.2901(5) 0.8452(2) 0.1942(3)
H5 H 0.258974 0.855402 0.236730
C13 C 0.3384(5) 0.7965(2) 0.1928(3)
H6 H 0.335543 0.774089 0.233728
C14 C 0.3312(5) 0.8583(2) 0.0756(3)
H7 H 0.329926 0.878596 0.032630
C15 C 0.3774(5) 0.8100(2) 0.0752(3)
H8 H 0.401450 0.797573 0.030865
C16 C 0.2027(3) 0.94877(14) 0.06807(19)
H9 H 0.217129 0.931699 0.023978
C17 C 0.1497(3) 0.99453(14) 0.06662(18)
C18 C 0.4392(4) 0.72943(17) 0.1321(2)
C19 C 0.3885(5) 0.7813(2) 0.1341(2)
Zn5 Zn 0.53550(2) 0.64818(2) 0.05696(2)
Zn9 Zn 0.500000 0.64861(2) 0.250000
O3 O 0.8835(3) 0.1274(3) 0.1845(3)
Zn1 Zn 0.96450(2) 0.14818(2) 0.05696(2)
Zn2_2 Zn 1.000000 0.14861(2) 0.250000
O4 O 0.83333(18) 0.15268(12) 0.07925(17)
C4 C 0.5479(2) 0.16017(16) 0.2348(2)
C6 C 0.8216(2) 0.15177(16) 0.1461(2)
C20 C 0.7263(2) 0.15543(15) 0.1773(2)
C21 C 0.6525(2) 0.1640(2) 0.1323(2)
H11 H 0.661565 0.168380 0.081873
C22 C 0.5644(3) 0.1662(2) 0.1608(2)
H12 H 0.515211 0.171993 0.128974
C23 C 0.6226(3) 0.1530(2) 0.2796(2)
H13 H 0.613871 0.150183 0.330314
C24 C 0.7113(3) 0.1499(2) 0.2511(2)
H14 H 0.760763 0.144080 0.282634
O8 O 0.16667(18) 0.15268(12) 0.42075(17)
C27 C 0.4521(2) 0.16017(16) 0.2652(2)
C28 C 0.1784(2) 0.15177(16) 0.3539(2)
C29 C 0.2737(2) 0.15543(15) 0.3227(2)
C30 C 0.3475(2) 0.1640(2) 0.3677(2)
H17 H 0.338435 0.168380 0.418127
C31 C 0.4356(3) 0.1662(2) 0.3392(2)
H18 H 0.484789 0.171993 0.371026
C32 C 0.3774(3) 0.1530(2) 0.2204(2)
H19 H 0.386129 0.150183 0.169686
C33 C 0.2887(3) 0.1499(2) 0.2489(2)
H20 H 0.239237 0.144080 0.217366
O13 O 0.9166(3) 0.10490(19) 0.3170(2)
O15 O 0.9108(3) 0.19105(18) 0.3206(3)
N1 N 0.9741(2) 0.14802(10) 0.94341(14)
C5 C 0.9947(3) 0.14872(13) 0.79074(17)
C25 C 0.9624(3) 0.19308(16) 0.8282(2)
H15 H 0.946852 0.223922 0.802358
C26 C 0.9532(3) 0.19144(15) 0.90372(19)
H16 H 0.931702 0.221670 0.928098
C34 C 0.9947(2) 0.10526(13) 0.59262(17)
H21 H 0.979840 0.074838 0.565636
C35 C 0.9834(3) 0.10415(15) 0.66811(18)
H22 H 0.961086 0.073552 0.691126
O11 O 0.96685(17) 0.08271(10) 0.42805(13)
C40 C 0.8726(3) 0.02047(14) 0.36812(19)
C41 C 0.9323(3) 0.06901(15) 0.36866(19)
H25 H 0.855867 0.017128 0.257911
H32 H 0.871159 0.007999 0.478187
O18 O 0.97098(19) 0.21464(10) 0.42590(14)
O10 O 0.5892(3) 0.69105(18) 0.3206(3)
O12 O 0.52902(19) 0.71464(10) 0.42590(14)
C39 C 0.7116(4) 0.87688(18) 0.3646(2)
C42 C 0.8413(3) 0.99986(15) 0.3018(2)
C43 C 0.7885(3) 0.95368(15) 0.3003(2)
H26 H 0.768753 0.940019 0.255252
C44 C 0.7647(3) 0.92757(14) 0.3654(2)
C45 C 0.7099(5) 0.8452(2) 0.3058(3)
H27 H 0.741026 0.855402 0.263270
C46 C 0.6616(5) 0.7965(2) 0.3072(3)
H28 H 0.664457 0.774089 0.266272
C47 C 0.6688(5) 0.8583(2) 0.4244(3)
H29 H 0.670074 0.878596 0.467370
C48 C 0.6226(5) 0.8100(2) 0.4248(3)
H30 H 0.598550 0.797573 0.469135
C49 C 0.7973(3) 0.94877(14) 0.43193(19)
H31 H 0.782871 0.931699 0.476022
C50 C 0.8503(3) 0.99453(14) 0.43338(18)
C51 C 0.5608(4) 0.72943(17) 0.3679(2)
C52 C 0.6115(5) 0.7813(2) 0.3659(2)
Zn6 Zn 0.46450(2) 0.64818(2) 0.44304(2)
O7 O 0.3835(3) 0.6274(3) 0.3155(3)
O8_2 O 0.33333(18) 0.65268(12) 0.42075(17)
C27_2 C 0.0479(2) 0.66017(16) 0.2652(2)
C28_2 C 0.3216(2) 0.65177(16) 0.3539(2)
C29_2 C 0.2263(2) 0.65543(15) 0.3227(2)
C30_2 C 0.1525(2) 0.6640(2) 0.3677(2)
H17_2 H 0.161565 0.668380 0.418127
C31_2 C 0.0644(3) 0.6662(2) 0.3392(2)
H18_2 H 0.015211 0.671993 0.371026
C32_2 C 0.1226(3) 0.6530(2) 0.2204(2)
H19_2 H 0.113871 0.650183 0.169686
C33_2 C 0.2113(3) 0.6499(2) 0.2489(2)
H20_2 H 0.260763 0.644080 0.217366
O9 O 0.5834(3) 0.60490(19) 0.3170(2)
O11_2 O 0.53315(17) 0.58271(10) 0.42805(13)
C39_2 C 0.7884(4) 0.37688(18) 0.3646(2)
C40_2 C 0.6274(3) 0.52047(14) 0.36812(19)
C41_2 C 0.5677(3) 0.56901(15) 0.36866(19)
C42_2 C 0.6587(3) 0.49986(15) 0.3018(2)
H25_2 H 0.644133 0.517128 0.257911
C43_2 C 0.7115(3) 0.45368(15) 0.3003(2)
H26_2 H 0.731247 0.440019 0.255252
C44_2 C 0.7353(3) 0.42757(14) 0.3654(2)
C45_2 C 0.7901(5) 0.3452(2) 0.3058(3)
H27_2 H 0.758974 0.355402 0.263270
C46_2 C 0.8384(5) 0.2965(2) 0.3072(3)
H28_2 H 0.835543 0.274089 0.266272
C47_2 C 0.8312(5) 0.3583(2) 0.4244(3)
H29_2 H 0.829926 0.378596 0.467370
C48_2 C 0.8774(5) 0.3100(2) 0.4248(3)
H30_2 H 0.901450 0.297573 0.469135
C49_2 C 0.7027(3) 0.44877(14) 0.43193(19)
H31_2 H 0.717129 0.431699 0.476022
C50_2 C 0.6497(3) 0.49453(14) 0.43338(18)
H32_2 H 0.628841 0.507999 0.478187
C51_2 C 0.9392(4) 0.22943(17) 0.3679(2)
C52_2 C 0.8885(5) 0.2813(2) 0.3659(2)
N3 N 0.4741(2) 0.64802(10) 0.55659(14)
O1_2 O 0.4166(3) 0.60490(19) 0.1830(2)
O3_2 O 0.6165(3) 0.6274(3) 0.1845(3)
O4_2 O 0.66667(18) 0.65268(12) 0.07925(17)
O5_2 O 0.46685(17) 0.58271(10) 0.07195(13)
C3_2 C 0.2116(4) 0.37688(18) 0.1354(2)
C4_2 C 0.9521(2) 0.66017(16) 0.2348(2)
C6_2 C 0.6784(2) 0.65177(16) 0.1461(2)
C7_2 C 0.3726(3) 0.52047(14) 0.13188(19)
C8_2 C 0.4323(3) 0.56901(15) 0.13134(19)
C9_2 C 0.3413(3) 0.49986(15) 0.1982(2)
H3_2 H 0.355867 0.517128 0.242089
C10_2 C 0.2885(3) 0.45368(15) 0.1997(2)
H4_2 H 0.268753 0.440019 0.244748
C11_2 C 0.2647(3) 0.42757(14) 0.1346(2)
C12_2 C 0.2099(5) 0.3452(2) 0.1942(3)
H5_2 H 0.241026 0.355402 0.236730
C13_2 C 0.1616(5) 0.2965(2) 0.1928(3)
H6_2 H 0.164457 0.274089 0.233728
C14_2 C 0.1688(5) 0.3583(2) 0.0756(3)
H7_2 H 0.170074 0.378596 0.032630
C15_2 C 0.1226(5) 0.3100(2) 0.0752(3)
H8_2 H 0.098550 0.297573 0.030865
C16_2 C 0.2973(3) 0.44877(14) 0.06807(19)
H9_2 H 0.282871 0.431699 0.023978
C17_2 C 0.3503(3) 0.49453(14) 0.06662(18)
H10_2 H 0.371159 0.507999 0.021813
C18_2 C 0.0608(4) 0.22943(17) 0.1321(2)
C19_2 C 0.1115(5) 0.2813(2) 0.1341(2)
C20_2 C 0.7737(2) 0.65543(15) 0.1773(2)
C21_2 C 0.8475(2) 0.6640(2) 0.1323(2)
H11_2 H 0.838435 0.668380 0.081873
C22_2 C 0.9356(3) 0.6662(2) 0.1608(2)
H12_2 H 0.984789 0.671993 0.128974
C23_2 C 0.8774(3) 0.6530(2) 0.2796(2)
H13_2 H 0.886129 0.650183 0.330314
C24_2 C 0.7887(3) 0.6499(2) 0.2511(2)
H14_2 H 0.739237 0.644080 0.282634
C1_2 C 0.4947(2) 0.60526(13) 0.90738(17)
H1_2 H 0.479840 0.574838 0.934364
C2_2 C 0.4834(3) 0.60415(15) 0.83189(18)
H2_2 H 0.461086 0.573552 0.808874
N1_2 N 0.5259(2) 0.64802(10) 0.94341(14)
C5_2 C 0.5053(3) 0.64872(13) 0.79074(17)
C25_2 C 0.5376(3) 0.69308(16) 0.8282(2)
H15_2 H 0.553148 0.723922 0.802358
C26_2 C 0.5468(3) 0.69144(15) 0.90372(19)
H16_2 H 0.568298 0.721670 0.928098
C34_2 C 0.5053(2) 0.60526(13) 0.59262(17)
H21_2 H 0.520160 0.574838 0.565636
C35_2 C 0.5166(3) 0.60415(15) 0.66811(18)
H22_2 H 0.538914 0.573552 0.691126
C36_2 C 0.4947(3) 0.64872(13) 0.70926(17)
C37_2 C 0.4624(3) 0.69308(16) 0.6718(2)
H23_2 H 0.446852 0.723922 0.697642
C38_2 C 0.4532(3) 0.69144(15) 0.59628(19)
H24_2 H 0.431702 0.721670 0.571902
Zn5_2 Zn 0.03550(2) 0.85182(2) 0.94304(2)
Zn9_2 Zn 0.000000 0.85139(2) 0.750000
C1_3 C 0.5053(2) 0.39474(13) 0.09262(17)
H1_3 H 0.520160 0.425162 0.065636
C2_3 C 0.5166(3) 0.39585(15) 0.16811(18)
H2_3 H 0.538914 0.426448 0.191126
N1_3 N 0.4741(2) 0.35198(10) 0.05659(14)
C5_3 C 0.4947(3) 0.35128(13) 0.20926(17)
C25_3 C 0.4624(3) 0.30692(16) 0.1718(2)
H15_3 H 0.446852 0.276078 0.197642
C26_3 C 0.4532(3) 0.30856(15) 0.09628(19)
H16_3 H 0.431702 0.278330 0.071902
C34_3 C 0.4947(2) 0.39474(13) 0.40738(17)
H21_3 H 0.479840 0.425162 0.434364
C35_3 C 0.4834(3) 0.39585(15) 0.33189(18)
H22_3 H 0.461086 0.426448 0.308874
N2_2 N 0.5259(2) 0.35198(10) 0.44341(14)
C36_3 C 0.5053(3) 0.35128(13) 0.29074(17)
C37_3 C 0.5376(3) 0.30692(16) 0.3282(2)
H23_3 H 0.553148 0.276078 0.302358
C38_3 C 0.5468(3) 0.30856(15) 0.40372(19)
H24_3 H 0.568298 0.278330 0.428098
Zn4_2 Zn 0.53550(2) 0.35182(2) 0.55696(2)
O1_3 O 0.5834(3) 0.39510(19) 0.8170(2)
O2_2 O 0.9108(3) 0.80895(18) 0.8206(3)
O3_3 O 0.3835(3) 0.3726(3) 0.8155(3)
Zn1_2 Zn 0.46450(2) 0.35182(2) 0.94304(2)
Zn2_3 Zn 0.500000 0.35139(2) 0.750000
O4_3 O 0.33333(18) 0.34732(12) 0.92075(17)
O5_3 O 0.53315(17) 0.41729(10) 0.92805(13)
O6_2 O 0.97098(19) 0.78536(10) 0.92590(14)
C3_3 C 0.7884(4) 0.62312(18) 0.8646(2)
C4_3 C 0.0479(2) 0.33983(16) 0.7652(2)
C6_3 C 0.3216(2) 0.34823(16) 0.8539(2)
C7_3 C 0.6274(3) 0.47953(14) 0.86812(19)
C8_3 C 0.5677(3) 0.43099(15) 0.86866(19)
C9_3 C 0.6587(3) 0.50014(15) 0.8018(2)
H3_3 H 0.644133 0.482872 0.757911
C10_3 C 0.7115(3) 0.54632(15) 0.8003(2)
H4_3 H 0.731247 0.559981 0.755252
C11_3 C 0.7353(3) 0.57243(14) 0.8654(2)
C12_3 C 0.7901(5) 0.6548(2) 0.8058(3)
H5_3 H 0.758974 0.644598 0.763270
C13_3 C 0.8384(5) 0.7035(2) 0.8072(3)
H6_3 H 0.835543 0.725911 0.766272
C14_3 C 0.8312(5) 0.6417(2) 0.9244(3)
H7_3 H 0.829926 0.621404 0.967370
C15_3 C 0.8774(5) 0.6900(2) 0.9248(3)
H8_3 H 0.901450 0.702427 0.969135
C16_3 C 0.7027(3) 0.55123(14) 0.93193(19)
H9_3 H 0.717129 0.568301 0.976022
C17_3 C 0.6497(3) 0.50547(14) 0.93338(18)
H10_3 H 0.628841 0.492001 0.978187
C18_3 C 0.9392(4) 0.77057(17) 0.8679(2)
C19_3 C 0.8885(5) 0.7187(2) 0.8659(2)
C20_3 C 0.2263(2) 0.34457(15) 0.8227(2)
C21_3 C 0.1525(2) 0.3360(2) 0.8677(2)
H11_3 H 0.161565 0.331620 0.918127
C22_3 C 0.0644(3) 0.3338(2) 0.8392(2)
H12_3 H 0.015211 0.328007 0.871026
C23_3 C 0.1226(3) 0.3470(2) 0.7204(2)
H13_3 H 0.113871 0.349817 0.669686
C24_3 C 0.2113(3) 0.3501(2) 0.7489(2)
H14_3 H 0.260763 0.355920 0.717366
O13_2 O 0.4166(3) 0.39510(19) 0.6830(2)
O14_2 O 0.5892(3) 0.30895(18) 0.8206(3)
O15_2 O 0.4108(3) 0.30895(18) 0.6794(3)
O16_2 O 0.6165(3) 0.3726(3) 0.6845(3)
Zn9_3 Zn 1.000000 0.85139(2) 0.750000
O17_2 O 0.52902(19) 0.28536(10) 0.92590(14)
O8_3 O 0.66667(18) 0.34732(12) 0.57925(17)
C27_3 C 0.9521(2) 0.33983(16) 0.7348(2)
C28_3 C 0.6784(2) 0.34823(16) 0.6461(2)
C29_3 C 0.7737(2) 0.34457(15) 0.6773(2)
C30_3 C 0.8475(2) 0.3360(2) 0.6323(2)
H17_3 H 0.838435 0.331620 0.581873
C31_3 C 0.9356(3) 0.3338(2) 0.6608(2)
H18_3 H 0.984789 0.328007 0.628974
C32_3 C 0.8774(3) 0.3470(2) 0.7796(2)
H19_3 H 0.886129 0.349817 0.830314
C33_3 C 0.7887(3) 0.3501(2) 0.7511(2)
H20_3 H 0.739237 0.355920 0.782634
O10_2 O 0.0892(3) 0.80895(18) 0.6794(3)
O11_3 O 0.46685(17) 0.41729(10) 0.57195(13)
O12_2 O 0.02902(19) 0.78536(10) 0.57410(14)
C39_3 C 0.2116(4) 0.62312(18) 0.6354(2)
C40_3 C 0.3726(3) 0.47953(14) 0.63188(19)
C41_3 C 0.4323(3) 0.43099(15) 0.63134(19)
C42_3 C 0.3413(3) 0.50014(15) 0.6982(2)
H25_3 H 0.355867 0.482872 0.742089
C43_3 C 0.2885(3) 0.54632(15) 0.6997(2)
H26_3 H 0.268753 0.559981 0.744748
C44_3 C 0.2647(3) 0.57243(14) 0.6346(2)
C45_3 C 0.2099(5) 0.6548(2) 0.6942(3)
H27_3 H 0.241026 0.644598 0.736730
C46_3 C 0.1616(5) 0.7035(2) 0.6928(3)
H28_3 H 0.164457 0.725911 0.733728
C47_3 C 0.1688(5) 0.6417(2) 0.5756(3)
H29_3 H 0.170074 0.621404 0.532630
C48_3 C 0.1226(5) 0.6900(2) 0.5752(3)
H30_3 H 0.098550 0.702427 0.530865
C49_3 C 0.2973(3) 0.55123(14) 0.56807(19)
H31_3 H 0.282871 0.568301 0.523978
C50_3 C 0.3503(3) 0.50547(14) 0.56662(18)
H32_3 H 0.371159 0.492001 0.521813
C51_3 C 0.0608(4) 0.77057(17) 0.6321(2)
C52_3 C 0.1115(5) 0.7187(2) 0.6341(2)
O18_2 O 0.47098(19) 0.28536(10) 0.57410(14)
Zn6_2 Zn 0.96450(2) 0.85182(2) 0.55696(2)
C39_4 C 0.2884(4) 0.12312(18) 0.6354(2)
C42_4 C 0.1587(3) 0.00014(15) 0.6982(2)
C43_4 C 0.2115(3) 0.04632(15) 0.6997(2)
H26_4 H 0.231247 0.059981 0.744748
C44_4 C 0.2353(3) 0.07243(14) 0.6346(2)
C45_4 C 0.2901(5) 0.1548(2) 0.6942(3)
H27_4 H 0.258974 0.144598 0.736730
C46_4 C 0.3384(5) 0.2035(2) 0.6928(3)
H28_4 H 0.335543 0.225911 0.733728
C47_4 C 0.3312(5) 0.1417(2) 0.5756(3)
H29_4 H 0.329926 0.121404 0.532630
C48_4 C 0.3774(5) 0.1900(2) 0.5752(3)
H30_4 H 0.401450 0.202427 0.530865
C49_4 C 0.2027(3) 0.05123(14) 0.56807(19)
H31_4 H 0.217129 0.068301 0.523978
C50_4 C 0.1497(3) 0.00547(14) 0.56662(18)
C51_4 C 0.4392(4) 0.27057(17) 0.6321(2)
C52_4 C 0.3885(5) 0.2187(2) 0.6341(2)
O9_2 O 0.0834(3) 0.89510(19) 0.6830(2)
O11_4 O 0.03315(17) 0.91729(10) 0.57195(13)
C40_4 C 0.1274(3) 0.97953(14) 0.63188(19)
C41_4 C 0.0677(3) 0.93099(15) 0.63134(19)
H25_4 H 0.144133 0.982872 0.742089
H32_4 H 0.128841 0.992001 0.521813
N1_4 N 0.0259(2) 0.85198(10) 0.05659(14)
C5_4 C 0.0053(3) 0.85128(13) 0.20926(17)
C25_4 C 0.0376(3) 0.80692(16) 0.1718(2)
H15_4 H 0.053148 0.776078 0.197642
C26_4 C 0.0468(3) 0.80856(15) 0.09628(19)
H16_4 H 0.068298 0.778330 0.071902
C34_4 C 0.0053(2) 0.89474(13) 0.40738(17)
H21_4 H 0.020160 0.925162 0.434364
C35_4 C 0.0166(3) 0.89585(15) 0.33189(18)
H22_4 H 0.038914 0.926448 0.308874
O3_4 O 0.1165(3) 0.8726(3) 0.8155(3)
O4_4 O 0.16667(18) 0.84732(12) 0.92075(17)
C4_4 C 0.4521(2) 0.83983(16) 0.7652(2)
C6_4 C 0.1784(2) 0.84823(16) 0.8539(2)
C20_4 C 0.2737(2) 0.84457(15) 0.8227(2)
C21_4 C 0.3475(2) 0.8360(2) 0.8677(2)
H11_4 H 0.338435 0.831620 0.918127
C22_4 C 0.4356(3) 0.8338(2) 0.8392(2)
H12_4 H 0.484789 0.828007 0.871026
C23_4 C 0.3774(3) 0.8470(2) 0.7204(2)
H13_4 H 0.386129 0.849817 0.669686
C24_4 C 0.2887(3) 0.8501(2) 0.7489(2)
H14_4 H 0.239237 0.855920 0.717366
O7_2 O 0.8835(3) 0.8726(3) 0.6845(3)
O8_4 O 0.83333(18) 0.84732(12) 0.57925(17)
C27_4 C 0.5479(2) 0.83983(16) 0.7348(2)
C28_4 C 0.8216(2) 0.84823(16) 0.6461(2)
C29_4 C 0.7263(2) 0.84457(15) 0.6773(2)
C30_4 C 0.6525(2) 0.8360(2) 0.6323(2)
H17_4 H 0.661565 0.831620 0.581873
C31_4 C 0.5644(3) 0.8338(2) 0.6608(2)
H18_4 H 0.515211 0.828007 0.628974
C32_4 C 0.6226(3) 0.8470(2) 0.7796(2)
H19_4 H 0.613871 0.849817 0.830314
C33_4 C 0.7113(3) 0.8501(2) 0.7511(2)
H20_4 H 0.760763 0.855920 0.782634
N3_2 N 0.9741(2) 0.85198(10) 0.44341(14)
C3_4 C 0.7116(4) 0.12312(18) 0.8646(2)
C9_4 C 0.8413(3) 0.00014(15) 0.8018(2)
C10_4 C 0.7885(3) 0.04632(15) 0.8003(2)
H4_4 H 0.768753 0.059981 0.755252
C11_4 C 0.7647(3) 0.07243(14) 0.8654(2)
C12_4 C 0.7099(5) 0.1548(2) 0.8058(3)
H5_4 H 0.741026 0.144598 0.763270
C13_4 C 0.6616(5) 0.2035(2) 0.8072(3)
H6_4 H 0.664457 0.225911 0.766272
C14_4 C 0.6688(5) 0.1417(2) 0.9244(3)
H7_4 H 0.670074 0.121404 0.967370
C15_4 C 0.6226(5) 0.1900(2) 0.9248(3)
H8_4 H 0.598550 0.202427 0.969135
C16_4 C 0.7973(3) 0.05123(14) 0.93193(19)
H9_4 H 0.782871 0.068301 0.976022
C17_4 C 0.8503(3) 0.00547(14) 0.93338(18)
C18_4 C 0.5608(4) 0.27057(17) 0.8679(2)
C19_4 C 0.6115(5) 0.2187(2) 0.8659(2)
C1_4 C 0.9947(2) 0.89474(13) 0.09262(17)
H1_4 H 0.979840 0.925162 0.065636
C2_4 C 0.9834(3) 0.89585(15) 0.16811(18)
H2_4 H 0.961086 0.926448 0.191126
C36_4 C 0.9947(3) 0.85128(13) 0.29074(17)
C37_4 C 0.9624(3) 0.80692(16) 0.3282(2)
H23_4 H 0.946852 0.776078 0.302358
C38_4 C 0.9532(3) 0.80856(15) 0.40372(19)
H24_4 H 0.931702 0.778330 0.428098
O1_4 O 0.9166(3) 0.89510(19) 0.8170(2)
O5_4 O 0.96685(17) 0.91729(10) 0.92805(13)
C7_4 C 0.8726(3) 0.97953(14) 0.86812(19)
C8_4 C 0.9323(3) 0.93099(15) 0.86866(19)
H3_4 H 0.855867 0.982872 0.757911
H10_4 H 0.871159 0.992001 0.978187
loop_
_geom_bond_atom_site_label_1
_geom_bond_atom_site_label_2
_geom_bond_site_symmetry_1
_geom_bond_site_symmetry_2
O1 Zn2 1_555 1_555
C7 C8 1_555 1_555
C8 O1 1_555 1_555
O14 Zn2 1_555 1_555
O16 Zn2 1_555 1_555
O5 C8 1_555 1_555
C1 H1 1_555 1_555
C2 C1 1_555 1_555
H2 C2 1_555 1_555
C37 C36 1_555 1_555
H23 C37 1_555 1_555
C38 N2 1_555 1_555
H24 C38 1_555 1_555
Zn4 N2 1_555 1_555
C37 C38 1_555 1_555
O2 C18 1_555 1_555
O6 C18 1_555 1_555
C3 C11 1_555 1_555
C10 C9 1_555 1_555
H4 C10 1_555 1_555
C11 C10 1_555 1_555
C12 C3 1_555 1_555
H5 C12 1_555 1_555
C13 C12 1_555 1_555
H6 C13 1_555 1_555
C14 C3 1_555 1_555
H7 C14 1_555 1_555
C15 C14 1_555 1_555
H8 C15 1_555 1_555
C16 C11 1_555 1_555
H9 C16 1_555 1_555
C18 C19 1_555 1_555
C19 C13 1_555 1_555
Zn5 O6 1_555 1_555
Zn9 O2 1_555 1_555
C15 C19 1_555 1_555
C16 C17 1_555 1_555
O3 Zn2_2 1_555 1_555
Zn1 O4 1_555 1_555
Zn2_2 O13 1_555 1_555
O4 C6 1_555 1_555
C4 C22 1_555 1_555
C6 O3 1_555 1_555
C20 C6 1_555 1_555
C21 C20 1_555 1_555
H11 C21 1_555 1_555
C22 C21 1_555 1_555
H12 C22 1_555 1_555
C23 C4 1_555 1_555
H13 C23 1_555 1_555
C24 C20 1_555 1_555
H14 C24 1_555 1_555
O16 C28 1_555 1_555
O8 C28 1_555 1_555
C27 C4 1_555 1_555
C28 C29 1_555 1_555
C29 C30 1_555 1_555
C30 H17 1_555 1_555
C31 C27 1_555 1_555
H18 C31 1_555 1_555
C32 C27 1_555 1_555
H19 C32 1_555 1_555
C33 C29 1_555 1_555
H20 C33 1_555 1_555
Zn4 O8 1_555 1_555
O15 Zn2_2 1_555 1_555
C23 C24 1_555 1_555
C30 C31 1_555 1_555
C32 C33 1_555 1_555
C25 C5 1_555 1_555
H15 C25 1_555 1_555
C26 N1 1_555 1_555
H16 C26 1_555 1_555
C34 H21 1_555 1_555
C35 C34 1_555 1_555
H22 C35 1_555 1_555
C25 C26 1_555 1_555
O13 C41 1_555 1_555
C40 C41 1_555 1_555
C41 O11 1_555 1_555
O10 C51 1_555 1_555
O12 C51 1_555 1_555
C39 C44 1_555 1_555
C43 C42 1_555 1_555
H26 C43 1_555 1_555
C44 C43 1_555 1_555
C45 C39 1_555 1_555
H27 C45 1_555 1_555
C46 C45 1_555 1_555
H28 C46 1_555 1_555
C47 C39 1_555 1_555
H29 C47 1_555 1_555
C48 C47 1_555 1_555
H30 C48 1_555 1_555
C49 C44 1_555 1_555
H31 C49 1_555 1_555
C51 C52 1_555 1_555
C52 C46 1_555 1_555
Zn6 O12 1_555 1_555
Zn9 O10 1_555 1_555
C48 C52 1_555 1_555
C49 C50 1_555 1_555
O7 C28_2 1_555 1_555
O8_2 C28_2 1_555 1_555
C28_2 C29_2 1_555 1_555
C29_2 C30_2 1_555 1_555
C30_2 H17_2 1_555 1_555
C31_2 C27_2 1_555 1_555
H18_2 C31_2 1_555 1_555
C32_2 C27_2 1_555 1_555
H19_2 C32_2 1_555 1_555
C33_2 C29_2 1_555 1_555
H20_2 C33_2 1_555 1_555
O9 C41_2 1_555 1_555
O15 C51_2 1_555 1_555
Zn6 O8_2 1_555 1_555
O11_2 Zn6 1_555 1_555
O18 C51_2 1_555 1_555
C39_2 C44_2 1_555 1_555
C40_2 C41_2 1_555 1_555
C41_2 O11_2 1_555 1_555
C42_2 C40_2 1_555 1_555
H25_2 C42_2 1_555 1_555
C43_2 C42_2 1_555 1_555
H26_2 C43_2 1_555 1_555
C44_2 C43_2 1_555 1_555
C45_2 C39_2 1_555 1_555
H27_2 C45_2 1_555 1_555
C46_2 C45_2 1_555 1_555
H28_2 C46_2 1_555 1_555
C47_2 C39_2 1_555 1_555
H29_2 C47_2 1_555 1_555
C48_2 C47_2 1_555 1_555
H30_2 C48_2 1_555 1_555
C49_2 C44_2 1_555 1_555
H31_2 C49_2 1_555 1_555
C50_2 C40_2 1_555 1_555
H32_2 C50_2 1_555 1_555
C51_2 C52_2 1_555 1_555
C52_2 C46_2 1_555 1_555
Zn9 O7 1_555 1_555
N3 Zn6 1_555 1_555
C30_2 C31_2 1_555 1_555
C32_2 C33_2 1_555 1_555
O9 Zn9 1_555 1_555
C48_2 C52_2 1_555 1_555
C49_2 C50_2 1_555 1_555
O1_2 Zn9 1_555 1_555
O14 C18_2 1_555 1_555
O3_2 Zn9 1_555 1_555
Zn5 O4_2 1_555 1_555
O4_2 C6_2 1_555 1_555
O5_2 Zn5 1_555 1_555
O17 C18_2 1_555 1_555
C3_2 C11_2 1_555 1_555
C4_2 C22_2 1_555 1_555
C6_2 O3_2 1_555 1_555
C7_2 C8_2 1_555 1_555
C8_2 O1_2 1_555 1_555
C9_2 C7_2 1_555 1_555
H3_2 C9_2 1_555 1_555
C10_2 C9_2 1_555 1_555
H4_2 C10_2 1_555 1_555
C11_2 C10_2 1_555 1_555
C12_2 C3_2 1_555 1_555
H5_2 C12_2 1_555 1_555
C13_2 C12_2 1_555 1_555
H6_2 C13_2 1_555 1_555
C14_2 C3_2 1_555 1_555
H7_2 C14_2 1_555 1_555
C15_2 C14_2 1_555 1_555
H8_2 C15_2 1_555 1_555
C16_2 C11_2 1_555 1_555
H9_2 C16_2 1_555 1_555
C17_2 C7_2 1_555 1_555
H10_2 C17_2 1_555 1_555
C18_2 C19_2 1_555 1_555
C19_2 C13_2 1_555 1_555
C20_2 C6_2 1_555 1_555
C21_2 C20_2 1_555 1_555
H11_2 C21_2 1_555 1_555
C22_2 C21_2 1_555 1_555
H12_2 C22_2 1_555 1_555
C23_2 C4_2 1_555 1_555
H13_2 C23_2 1_555 1_555
C24_2 C20_2 1_555 1_555
H14_2 C24_2 1_555 1_555
O5_2 C8_2 1_555 1_555
C15_2 C19_2 1_555 1_555
C16_2 C17_2 1_555 1_555
C23_2 C24_2 1_555 1_555
C1_2 H1_2 1_555 1_555
C2_2 C1_2 1_555 1_555
H2_2 C2_2 1_555 1_555
C5_2 C2_2 1_555 1_555
C25_2 C5_2 1_555 1_555
H15_2 C25_2 1_555 1_555
C26_2 N1_2 1_555 1_555
H16_2 C26_2 1_555 1_555
C34_2 H21_2 1_555 1_555
C35_2 C34_2 1_555 1_555
H22_2 C35_2 1_555 1_555
N3 C34_2 1_555 1_555
C36_2 C5_2 1_555 1_555
C37_2 C36_2 1_555 1_555
H23_2 C37_2 1_555 1_555
C38_2 N3 1_555 1_555
H24_2 C38_2 1_555 1_555
C1_2 N1_2 1_555 1_555
C25_2 C26_2 1_555 1_555
C35_2 C36_2 1_555 1_555
C37_2 C38_2 1_555 1_555
C1_3 H1_3 1_555 1_555
C2_3 C1_3 1_555 1_555
H2_3 C2_3 1_555 1_555
C5_3 C2_3 1_555 1_555
C25_3 C5_3 1_555 1_555
H15_3 C25_3 1_555 1_555
C26_3 N1_3 1_555 1_555
H16_3 C26_3 1_555 1_555
C34_3 H21_3 1_555 1_555
C35_3 C34_3 1_555 1_555
H22_3 C35_3 1_555 1_555
N2_2 C34_3 1_555 1_555
C36_3 C5_3 1_555 1_555
C37_3 C36_3 1_555 1_555
H23_3 C37_3 1_555 1_555
C38_3 N2_2 1_555 1_555
H24_3 C38_3 1_555 1_555
Zn4_2 N2_2 1_555 1_555
C1_3 N1_3 1_555 1_555
C25_3 C26_3 1_555 1_555
C35_3 C36_3 1_555 1_555
C37_3 C38_3 1_555 1_555
O1_3 Zn2_3 1_555 1_555
O2_2 C18_3 1_555 1_555
O3_3 Zn2_3 1_555 1_555
Zn1_2 O4_3 1_555 1_555
Zn2_3 O13_2 1_555 1_555
O4_3 C6_3 1_555 1_555
O5_3 Zn1_2 1_555 1_555
O6_2 C18_3 1_555 1_555
C3_3 C11_3 1_555 1_555
C4_3 C22_3 1_555 1_555
C6_3 O3_3 1_555 1_555
C7_3 C8_3 1_555 1_555
C8_3 O1_3 1_555 1_555
C9_3 C7_3 1_555 1_555
H3_3 C9_3 1_555 1_555
C10_3 C9_3 1_555 1_555
H4_3 C10_3 1_555 1_555
C11_3 C10_3 1_555 1_555
C12_3 C3_3 1_555 1_555
H5_3 C12_3 1_555 1_555
C13_3 C12_3 1_555 1_555
H6_3 C13_3 1_555 1_555
C14_3 C3_3 1_555 1_555
H7_3 C14_3 1_555 1_555
C15_3 C14_3 1_555 1_555
H8_3 C15_3 1_555 1_555
C16_3 C11_3 1_555 1_555
H9_3 C16_3 1_555 1_555
C17_3 C7_3 1_555 1_555
H10_3 C17_3 1_555 1_555
C18_3 C19_3 1_555 1_555
C19_3 C13_3 1_555 1_555
C20_3 C6_3 1_555 1_555
C21_3 C20_3 1_555 1_555
H11_3 C21_3 1_555 1_555
C22_3 C21_3 1_555 1_555
H12_3 C22_3 1_555 1_555
C23_3 C4_3 1_555 1_555
H13_3 C23_3 1_555 1_555
C24_3 C20_3 1_555 1_555
H14_3 C24_3 1_555 1_555
O14_2 Zn2_3 1_555 1_555
O15_2 Zn2_3 1_555 1_555
O16_2 Zn2_3 1_555 1_555
Zn9_3 O2_2 1_555 1_555
O17_2 Zn1_2 1_555 1_555
O5_3 C8_3 1_555 1_555
C15_3 C19_3 1_555 1_555
C16_3 C17_3 1_555 1_555
C23_3 C24_3 1_555 1_555
O16_2 C28_3 1_555 1_555
O8_3 C28_3 1_555 1_555
C28_3 C29_3 1_555 1_555
C29_3 C30_3 1_555 1_555
C30_3 H17_3 1_555 1_555
C31_3 C27_3 1_555 1_555
H18_3 C31_3 1_555 1_555
C32_3 C27_3 1_555 1_555
H19_3 C32_3 1_555 1_555
C33_3 C29_3 1_555 1_555
H20_3 C33_3 1_555 1_555
O13_2 C41_3 1_555 1_555
O10_2 C51_3 1_555 1_555
Zn4_2 O8_3 1_555 1_555
O11_3 Zn4_2 1_555 1_555
O12_2 C51_3 1_555 1_555
C39_3 C44_3 1_555 1_555
C40_3 C41_3 1_555 1_555
C41_3 O11_3 1_555 1_555
C42_3 C40_3 1_555 1_555
H25_3 C42_3 1_555 1_555
C43_3 C42_3 1_555 1_555
H26_3 C43_3 1_555 1_555
C44_3 C43_3 1_555 1_555
C45_3 C39_3 1_555 1_555
H27_3 C45_3 1_555 1_555
C46_3 C45_3 1_555 1_555
H28_3 C46_3 1_555 1_555
C47_3 C39_3 1_555 1_555
H29_3 C47_3 1_555 1_555
C48_3 C47_3 1_555 1_555
H30_3 C48_3 1_555 1_555
C49_3 C44_3 1_555 1_555
H31_3 C49_3 1_555 1_555
C50_3 C40_3 1_555 1_555
H32_3 C50_3 1_555 1_555
C51_3 C52_3 1_555 1_555
C52_3 C46_3 1_555 1_555
Zn9_2 O10_2 1_555 1_555
O18_2 Zn4_2 1_555 1_555
C30_3 C31_3 1_555 1_555
C32_3 C33_3 1_555 1_555
C48_3 C52_3 1_555 1_555
C49_3 C50_3 1_555 1_555
O15_2 C51_4 1_555 1_555
O18_2 C51_4 1_555 1_555
C39_4 C44_4 1_555 1_555
C43_4 C42_4 1_555 1_555
H26_4 C43_4 1_555 1_555
C44_4 C43_4 1_555 1_555
C45_4 C39_4 1_555 1_555
H27_4 C45_4 1_555 1_555
C46_4 C45_4 1_555 1_555
H28_4 C46_4 1_555 1_555
C47_4 C39_4 1_555 1_555
H29_4 C47_4 1_555 1_555
C48_4 C47_4 1_555 1_555
H30_4 C48_4 1_555 1_555
C49_4 C44_4 1_555 1_555
H31_4 C49_4 1_555 1_555
C51_4 C52_4 1_555 1_555
C52_4 C46_4 1_555 1_555
C48_4 C52_4 1_555 1_555
C49_4 C50_4 1_555 1_555
O9_2 C41_4 1_555 1_555
C40_4 C41_4 1_555 1_555
C41_4 O11_4 1_555 1_555
O9_2 Zn9_2 1_555 1_555
C25_4 C5_4 1_555 1_555
H15_4 C25_4 1_555 1_555
C26_4 N1_4 1_555 1_555
H16_4 C26_4 1_555 1_555
C34_4 H21_4 1_555 1_555
C35_4 C34_4 1_555 1_555
H22_4 C35_4 1_555 1_555
C25_4 C26_4 1_555 1_555
O3_4 Zn9_2 1_555 1_555
Zn5_2 O4_4 1_555 1_555
O4_4 C6_4 1_555 1_555
C4_4 C22_4 1_555 1_555
C6_4 O3_4 1_555 1_555
C20_4 C6_4 1_555 1_555
C21_4 C20_4 1_555 1_555
H11_4 C21_4 1_555 1_555
C22_4 C21_4 1_555 1_555
H12_4 C22_4 1_555 1_555
C23_4 C4_4 1_555 1_555
H13_4 C23_4 1_555 1_555
C24_4 C20_4 1_555 1_555
H14_4 C24_4 1_555 1_555
O7_2 C28_4 1_555 1_555
O8_4 C28_4 1_555 1_555
C27_4 C4_4 1_555 1_555
C28_4 C29_4 1_555 1_555
C29_4 C30_4 1_555 1_555
C30_4 H17_4 1_555 1_555
C31_4 C27_4 1_555 1_555
H18_4 C31_4 1_555 1_555
C32_4 C27_4 1_555 1_555
H19_4 C32_4 1_555 1_555
C33_4 C29_4 1_555 1_555
H20_4 C33_4 1_555 1_555
Zn6_2 O8_4 1_555 1_555
Zn9_3 O7_2 1_555 1_555
N3_2 Zn6_2 1_555 1_555
C23_4 C24_4 1_555 1_555
C30_4 C31_4 1_555 1_555
C32_4 C33_4 1_555 1_555
O14_2 C18_4 1_555 1_555
O17_2 C18_4 1_555 1_555
C3_4 C11_4 1_555 1_555
C10_4 C9_4 1_555 1_555
H4_4 C10_4 1_555 1_555
C11_4 C10_4 1_555 1_555
C12_4 C3_4 1_555 1_555
H5_4 C12_4 1_555 1_555
C13_4 C12_4 1_555 1_555
H6_4 C13_4 1_555 1_555
C14_4 C3_4 1_555 1_555
H7_4 C14_4 1_555 1_555
C15_4 C14_4 1_555 1_555
H8_4 C15_4 1_555 1_555
C16_4 C11_4 1_555 1_555
H9_4 C16_4 1_555 1_555
C18_4 C19_4 1_555 1_555
C19_4 C13_4 1_555 1_555
C15_4 C19_4 1_555 1_555
C16_4 C17_4 1_555 1_555
C1_4 H1_4 1_555 1_555
C2_4 C1_4 1_555 1_555
H2_4 C2_4 1_555 1_555
C37_4 C36_4 1_555 1_555
H23_4 C37_4 1_555 1_555
C38_4 N3_2 1_555 1_555
H24_4 C38_4 1_555 1_555
C37_4 C38_4 1_555 1_555
O1_4 Zn9_3 1_555 1_555
C7_4 C8_4 1_555 1_555
C8_4 O1_4 1_555 1_555
O5_4 C8_4 1_555 1_555

#END
