
###############################################################################
#
# This file contains modified crystal structure data generated from the
# MOF subset of the Cambridge Structural Database (CSD) v543 
# hosted by the Cambridge Crystallographic Data Centre (CCDC).
#
# This work is licensed under the Creative Commons
# Attribution-NonCommercial-ShareAlike 4.0 International License.
# To view a copy of this license, visit
# http://creativecommons.org/licenses/by-nc-sa/4.0/
# or send a letter to
# Creative Commons, PO Box 1866, Mountain View, CA 94042, USA.
#
# CIF created using the CSD Python API on 29 September 2022
# The structure has been converted into the P1 space group
# The structure has a 3D framework
# The original CSD entry XUVPAH is in the rhombohedral crystal system
# The framework has been calculated to contain at least 10.0% void space
# The void calculation uses a probe of radius 1.32A, grid spacing 0.4
#
###############################################################################

data_XUVPAH
_chemical_formula_moiety         '(C378 H252 Co11 N90 S18)n'
_symmetry_cell_setting           triclinic
_symmetry_space_group_name_H-M   'P 1'
_symmetry_Int_Tables_number      1
_space_group_name_Hall           'P 1'
loop_
_symmetry_equiv_pos_site_id
_symmetry_equiv_pos_as_xyz
1 x,y,z
_cell_length_a                   28.729(3)
_cell_length_b                   28.729(3)
_cell_length_c                   14.9816(15)
_cell_angle_alpha                90
_cell_angle_beta                 90
_cell_angle_gamma                120
_cell_volume                     10708.5
loop_
_atom_site_label
_atom_site_type_symbol
_atom_site_fract_x
_atom_site_fract_y
_atom_site_fract_z
N5 N 0.75439(9) 0.10396(10) 0.12284(15)
C12 C 0.64927(11) 0.03107(11) 0.06767(17)
C13 C 0.67346(12) 0.01904(12) 0.13843(19)
C14 C 0.72545(12) 0.05601(12) 0.16204(19)
H8 H 0.7417 0.0469 0.2089
C15 C 0.73130(12) 0.11463(12) 0.05458(19)
H9 H 0.7514 0.1480 0.0244
C16 C 0.67980(11) 0.07973(11) 0.02580(19)
Co3 Co 0.8333 0.1667 0.1667
N10 N 0.91228(9) 0.22937(10) 0.21049(15)
C34 C 0.99321(12) 0.31429(12) 0.19490(19)
C35 C 0.94122(12) 0.27732(12) 0.17129(19)
H22 H 0.9250 0.2864 0.1244
C36 C 0.93537(12) 0.21870(12) 0.27875(19)
H23 H 0.9153 0.1853 0.3089
C37 C 0.98687(11) 0.25360(11) 0.30753(19)
S1 S 0.85438(6) 0.01113(4) 0.18254(8)
N1 N 0.85526(16) 0.10822(11) 0.17857(15)
N2 N 0.80831(14) 0.15370(10) 0.30855(16)
N3 N 0.74782(13) 0.08299(9) 0.61826(15)
N4 N 0.74917(16) 0.19405(12) 0.87789(19)
C1 C 0.85506(20) 0.06803(14) 0.17996(19)
C2 C 0.80084(17) 0.11045(12) 0.35619(19)
H1 H 0.8054 0.0838 0.3267
C3 C 0.78700(17) 0.10307(12) 0.44439(19)
H2 H 0.7820 0.0717 0.4741
C4 C 0.78000(16) 0.14061(11) 0.49103(19)
C5 C 0.78797(20) 0.18535(13) 0.4432(2)
H3 H 0.7841 0.2128 0.4718
C6 C 0.80144(20) 0.18997(13) 0.3545(2)
H4 H 0.8062 0.2209 0.3235
C7 C 0.76496(16) 0.13278(11) 0.58720(19)
C8 C 0.76933(17) 0.17415(12) 0.64116(19)
H5 H 0.7823 0.2091 0.6172
C9 C 0.75447(16) 0.16403(11) 0.73033(19)
C10 C 0.73675(16) 0.11259(11) 0.76210(19)
H6 H 0.7266 0.1043 0.8230
C11 C 0.73374(16) 0.07322(11) 0.70500(17)
C12_2 C 0.71513(16) 0.01740(11) 0.73434(17)
H7 H 0.6649 0.0124 0.8363
H10 H 0.7573 0.0014 0.6435
C17 C 0.75877(17) 0.20687(12) 0.7915(2)
C18 C 0.77187(21) 0.25689(14) 0.7615(3)
H11 H 0.7789 0.2659 0.7000
C19 C 0.77468(24) 0.29469(15) 0.8237(4)
H12 H 0.7827 0.3295 0.8044
C20 C 0.76597(23) 0.28160(16) 0.9112(3)
H13 H 0.7687 0.3070 0.9547
C21 C 0.75336(22) 0.23194(17) 0.9342(3)
H14 H 0.7468 0.2227 0.9957
S2 S 0.81228(6) 0.32221(4) 0.15080(8)
N6 N 0.81140(16) 0.22512(11) 0.15477(15)
N7 N 0.85835(14) 0.17964(10) 0.02479(16)
C22 C 0.81160(20) 0.26531(14) 0.15338(19)
H15 H 0.8612 0.2496 0.0067
H18 H 0.8604 0.1125 0.0099
Co1 Co 0.5000 -0.0000 0.5000
S1_2 S 0.65554(4) 0.17659(4) 0.51587(8)
N1_2 N 0.55845(11) 0.08038(11) 0.51190(15)
C1_2 C 0.59864(14) 0.12037(14) 0.51329(19)
C2_2 C 0.55622(12) 0.02373(12) 0.68952(19)
H1_2 H 0.5829 0.0550 0.6600
C3_2 C 0.56360(12) 0.01727(12) 0.77772(19)
H2_2 H 0.5950 0.0437 0.8074
H10_2 H 0.6653 0.0893 0.9768
N7_2 N 0.48703(10) 0.01205(10) 0.35812(16)
N8 N 0.41632(9) 0.00183(9) 0.04841(15)
C25 C 0.47394(11) 0.02727(12) 0.17564(19)
C26 C 0.51868(13) 0.06404(15) 0.2235(2)
H17 H 0.5461 0.0953 0.1949
C27 C 0.52330(13) 0.05519(15) 0.3122(2)
H18_2 H 0.5542 0.0813 0.3432
C28 C 0.46611(11) 0.03448(12) 0.07947(19)
C29 C 0.50748(12) 0.07148(12) 0.02551(19)
H19 H 0.5424 0.0934 0.0495
N12 N 0.43729(10) 0.01624(13) 0.54383(15)
H7_2 H 0.6808 0.0017 0.5029
C14_2 C 0.61066(12) 0.00277(17) 0.49537(19)
H8_2 H 0.6198 0.0281 0.5422
N8_2 N 0.33150(9) 0.08116(13) 0.71508(15)
N9 N 0.22179(11) 0.08251(16) 0.45545(19)
C23 C 0.35706(12) 0.13418(17) 0.97715(19)
C24 C 0.35060(12) 0.12034(17) 0.88895(19)
H16 H 0.3770 0.1154 0.8593
C25_2 C 0.30606(12) 0.11334(16) 0.84231(19)
C26_2 C 0.26929(15) 0.12131(20) 0.8902(2)
H17_2 H 0.2380 0.1175 0.8616
C27_2 C 0.27814(15) 0.13478(20) 0.9789(2)
C28_2 C 0.29885(12) 0.09830(16) 0.74614(19)
C29_2 C 0.26185(12) 0.10267(17) 0.69218(19)
H19_2 H 0.2399 0.1157 0.7162
C30 C 0.25711(11) 0.08781(16) 0.60301(19)
C31 C 0.29083(11) 0.07009(16) 0.57124(19)
H20 H 0.2890 0.0600 0.5104
C32 C 0.32719(11) 0.06708(16) 0.62834(17)
C33 C 0.36440(11) 0.04847(16) 0.59900(17)
C34_2 C 0.35237(12) 0.01225(17) 0.52824(19)
C36_2 C 0.44796(12) 0.05000(17) 0.61209(19)
H23_2 H 0.4813 0.0633 0.6423
C37_2 C 0.41306(11) 0.06660(16) 0.64087(19)
H24 H 0.4226 0.0907 0.6899
C38 C 0.21857(12) 0.09211(17) 0.5419(2)
C39 C 0.18165(16) 0.10521(21) 0.5719(3)
H25 H 0.1797 0.1123 0.6334
C40 C 0.14666(19) 0.10802(24) 0.5097(4)
H26 H 0.1199 0.1161 0.5290
C41 C 0.15104(16) 0.09931(23) 0.4222(3)
H27 H 0.1284 0.1021 0.3787
C42 C 0.18809(14) 0.08670(22) 0.3992(3)
H28 H 0.1908 0.0802 0.3377
N9_2 N 0.52738(12) 0.11154(11) 0.78878(19)
C30_2 C 0.49736(11) 0.07622(11) 0.93634(19)
C31_2 C 0.44592(11) 0.04250(11) 0.90457(19)
H20_2 H 0.4376 0.0443 0.8437
C32_2 C 0.40655(11) 0.00614(11) 0.96167(17)
H21 H 0.3457 0.0141 0.8304
C38_2 C 0.54020(12) 0.11476(12) 0.8752(2)
C39_2 C 0.59022(14) 0.15168(16) 0.9052(3)
H25_2 H 0.5992 0.1536 0.9667
C40_2 C 0.62802(15) 0.18667(19) 0.8430(4)
H26_2 H 0.6628 0.2134 0.8623
C41_2 C 0.61493(16) 0.18229(16) 0.7555(3)
H27_2 H 0.6403 0.2049 0.7120
C42_2 C 0.56527(17) 0.14524(14) 0.7325(3)
H28_2 H 0.5560 0.1425 0.6710
N4_2 N 0.47262(12) 0.88846(11) 0.21122(19)
C9_2 C 0.50264(11) 0.92378(11) 0.06366(19)
C10_2 C 0.55408(11) 0.95750(11) 0.09543(19)
H6_2 H 0.5624 0.9557 0.1563
C11_2 C 0.59345(11) 0.99386(11) 0.03833(17)
H7_3 H 0.6543 0.9859 0.1696
C17_2 C 0.45980(12) 0.88524(12) 0.1248(2)
C18_2 C 0.40978(14) 0.84832(16) 0.0948(3)
H11_2 H 0.4008 0.8464 0.0333
C19_2 C 0.37198(15) 0.81333(19) 0.1570(4)
H12_2 H 0.3372 0.7866 0.1377
C20_2 C 0.38507(16) 0.81771(16) 0.2445(3)
H13_2 H 0.3597 0.7951 0.2880
C21_2 C 0.43473(17) 0.85476(14) 0.2675(3)
H14_2 H 0.4440 0.8575 0.3290
Co1_2 Co 0.5000 1.0000 0.5000
N2_2 N 0.51297(10) 0.98795(10) 0.64188(16)
N3_2 N 0.58368(9) 0.99817(9) 0.95159(15)
C4_2 C 0.52606(11) 0.97273(12) 0.82436(19)
C5_2 C 0.48132(13) 0.93596(15) 0.7765(2)
H3_2 H 0.4539 0.9047 0.8051
C6_2 C 0.47670(13) 0.94481(15) 0.6878(2)
H4_2 H 0.4458 0.9187 0.6568
C7_2 C 0.53389(11) 0.96552(12) 0.92053(19)
C8_2 C 0.49252(12) 0.92852(12) 0.97449(19)
H5_2 H 0.4576 0.9066 0.9505
S2_2 S 0.34446(4) 0.82341(4) 0.48413(8)
N6_2 N 0.44155(11) 0.91962(11) 0.48810(15)
C22_2 C 0.40136(14) 0.87963(14) 0.48671(19)
C23_2 C 0.44378(12) 0.97627(12) 0.31048(19)
H15_2 H 0.4171 0.9450 0.3400
C24_2 C 0.43640(12) 0.98273(12) 0.22228(19)
H16_2 H 0.4050 0.9563 0.1926
H24_2 H 0.3347 0.9107 0.0232
N11 N 0.56271(10) 0.98376(13) 0.45617(15)
N3_3 N 0.66850(9) 0.91884(13) 0.28492(15)
N4_3 N 0.77821(11) 0.91749(16) 0.54455(19)
C2_3 C 0.64294(12) 0.86582(17) 0.02285(19)
C3_3 C 0.64940(12) 0.87966(17) 0.11105(19)
H2_3 H 0.6230 0.8846 0.1407
C4_3 C 0.69394(12) 0.88666(16) 0.15769(19)
C5_3 C 0.73071(15) 0.87869(20) 0.1098(2)
H3_3 H 0.7620 0.8825 0.1384
C6_3 C 0.72186(15) 0.86522(20) 0.0211(2)
C7_3 C 0.70115(12) 0.90170(16) 0.25386(19)
C8_3 C 0.73815(12) 0.89733(17) 0.30782(19)
H5_3 H 0.7601 0.8843 0.2838
C9_3 C 0.74289(11) 0.91219(16) 0.39699(19)
C10_3 C 0.70917(11) 0.92991(16) 0.42876(19)
H6_3 H 0.7110 0.9400 0.4896
C11_3 C 0.67281(11) 0.93292(16) 0.37166(17)
C12_3 C 0.63560(11) 0.95153(16) 0.40100(17)
C13_2 C 0.64763(12) 0.98775(17) 0.47176(19)
C15_2 C 0.55204(12) 0.95000(17) 0.38791(19)
H9_2 H 0.5187 0.9367 0.3577
C16_2 C 0.58694(11) 0.93340(16) 0.35913(19)
H10_3 H 0.5774 0.9093 0.3101
C17_3 C 0.78143(12) 0.90789(17) 0.4581(2)
C18_3 C 0.81835(16) 0.89479(21) 0.4281(3)
H11_3 H 0.8203 0.8877 0.3666
C19_3 C 0.85334(19) 0.89198(24) 0.4903(4)
H12_3 H 0.8801 0.8839 0.4710
C20_3 C 0.84896(16) 0.90069(23) 0.5778(3)
H13_3 H 0.8716 0.8979 0.6213
C21_3 C 0.81191(14) 0.91330(22) 0.6008(3)
H14_3 H 0.8092 0.9198 0.6623
H21_2 H 0.3192 0.9983 0.4971
C35_2 C 0.38934(12) 0.99723(17) 0.50463(19)
H22_2 H 0.3802 0.9719 0.4578
N10_2 N 0.24561(9) 0.89604(10) 0.87716(15)
C33_2 C 0.35073(11) 0.96893(11) 0.93233(17)
C34_3 C 0.32654(12) 0.98096(12) 0.86157(19)
C35_3 C 0.27455(12) 0.94399(12) 0.83796(19)
H22_3 H 0.2583 0.9531 0.7911
C36_3 C 0.26870(12) 0.88537(12) 0.94542(19)
H23_3 H 0.2486 0.8520 0.9756
C37_3 C 0.32020(11) 0.92027(11) 0.97420(19)
Co2 Co 0.1667 0.8333 0.8333
S1_3 S 0.18772(6) 0.67779(4) 0.84920(8)
N1_3 N 0.18860(16) 0.77488(11) 0.84523(15)
N2_3 N 0.14165(14) 0.82036(10) 0.97521(16)
C1_3 C 0.18840(20) 0.73469(14) 0.84662(19)
H1_3 H 0.1388 0.7504 0.9933
H4_3 H 0.1396 0.8875 0.9901
S2_3 S 0.14562(6) 0.98887(4) 0.81746(8)
N6_3 N 0.14474(16) 0.89178(11) 0.82143(15)
N7_3 N 0.19169(14) 0.84630(10) 0.69145(16)
N8_3 N 0.25218(13) 0.91701(9) 0.38174(15)
N9_3 N 0.25083(16) 0.80595(12) 0.12211(19)
C22_3 C 0.14494(20) 0.93197(14) 0.82004(19)
C23_3 C 0.19916(17) 0.88955(12) 0.64381(19)
H15_3 H 0.1946 0.9162 0.6733
C24_3 C 0.21300(17) 0.89693(12) 0.55561(19)
H16_3 H 0.2180 0.9283 0.5259
C25_3 C 0.22000(16) 0.85939(11) 0.50897(19)
C26_3 C 0.21203(20) 0.81465(13) 0.5568(2)
H17_3 H 0.2159 0.7872 0.5282
C27_3 C 0.19856(20) 0.81003(13) 0.6455(2)
H18_3 H 0.1938 0.7791 0.6765
C28_3 C 0.23504(16) 0.86722(11) 0.41280(19)
C29_3 C 0.23067(17) 0.82585(12) 0.35884(19)
H19_3 H 0.2177 0.7909 0.3828
C30_3 C 0.24553(16) 0.83597(11) 0.26967(19)
C31_3 C 0.26325(16) 0.88741(11) 0.23790(19)
H20_3 H 0.2734 0.8957 0.1770
C32_3 C 0.26626(16) 0.92678(11) 0.29500(17)
C33_3 C 0.28487(16) 0.98260(11) 0.26566(17)
H21_3 H 0.3351 0.9876 0.1637
H24_3 H 0.2427 0.9986 0.3565
C38_3 C 0.24123(17) 0.79313(12) 0.2085(2)
C39_3 C 0.22813(21) 0.74311(14) 0.2385(3)
H25_3 H 0.2211 0.7341 0.3000
C40_3 C 0.22532(24) 0.70531(15) 0.1763(4)
H26_3 H 0.2173 0.6705 0.1956
C41_3 C 0.23403(23) 0.71840(16) 0.0888(3)
H27_3 H 0.2313 0.6930 0.0453
C42_3 C 0.24664(22) 0.76806(17) 0.0658(3)
H28_3 H 0.2532 0.7773 0.0043
N11_2 N 0.08772(16) 0.77063(10) 0.78951(15)
C13_3 C 0.00679(12) 0.68571(12) 0.80510(19)
C14_3 C 0.05878(12) 0.72268(12) 0.82871(19)
H8_3 H 0.0750 0.7136 0.8756
C15_3 C 0.06463(12) 0.78130(12) 0.72125(19)
H9_3 H 0.0847 0.8147 0.6911
C16_3 C 0.01313(11) 0.74640(11) 0.69247(19)
N4_4 N 0.11154(11) 0.58416(16) 0.21122(19)
C9_4 C 0.07622(11) 0.57886(16) 0.06366(19)
C10_4 C 0.04250(11) 0.59658(16) 0.09543(19)
H6_4 H 0.0443 0.6067 0.1563
C11_4 C 0.00614(11) 0.59959(16) 0.03833(17)
H7_4 H 0.0141 0.6684 0.1696
C17_4 C 0.11476(12) 0.57456(17) 0.1248(2)
C18_4 C 0.15168(16) 0.56146(21) 0.0948(3)
H11_4 H 0.1536 0.5544 0.0333
C19_4 C 0.18667(19) 0.55865(24) 0.1570(4)
H12_4 H 0.2134 0.5506 0.1377
C20_4 C 0.18229(16) 0.56736(23) 0.2445(3)
H13_4 H 0.2049 0.5646 0.2880
C21_4 C 0.14524(14) 0.57997(22) 0.2675(3)
H14_4 H 0.1425 0.5865 0.3290
Co1_3 Co 0.0000 0.5000 0.5000
N2_4 N 0.01205(10) 0.52502(14) 0.64188(16)
N3_4 N 0.00183(9) 0.58551(13) 0.95159(15)
C4_4 C 0.02727(12) 0.55333(16) 0.82436(19)
C5_4 C 0.06404(15) 0.54536(20) 0.7765(2)
H3_4 H 0.0953 0.5492 0.8051
C6_4 C 0.05519(15) 0.53189(20) 0.6878(2)
H4_4 H 0.0813 0.5271 0.6568
C7_4 C 0.03448(12) 0.56837(16) 0.92053(19)
C8_4 C 0.07148(12) 0.56400(17) 0.97449(19)
H5_4 H 0.0934 0.5510 0.9505
S2_4 S 0.17659(4) 0.52105(6) 0.48413(8)
N6_4 N 0.08038(11) 0.52193(16) 0.48810(15)
C22_4 C 0.12037(14) 0.52173(20) 0.48671(19)
C23_4 C 0.02373(12) 0.46751(17) 0.31048(19)
H15_4 H 0.0550 0.4721 0.3400
C24_4 C 0.01727(12) 0.45367(17) 0.22228(19)
H16_4 H 0.0437 0.4487 0.1926
H24_4 H 0.0893 0.4240 0.0232
N11_3 N 0.01624(13) 0.57894(16) 0.45617(15)
N3_5 N 0.08116(13) 0.74965(9) 0.28492(15)
N4_5 N 0.08251(16) 0.86071(12) 0.54455(19)
C2_4 C 0.13418(17) 0.77711(12) 0.02285(19)
C3_4 C 0.12034(17) 0.76973(12) 0.11105(19)
H2_4 H 0.1154 0.7383 0.1407
C4_5 C 0.11334(16) 0.80727(11) 0.15769(19)
C5_5 C 0.12131(20) 0.85201(13) 0.1098(2)
H3_5 H 0.1175 0.8794 0.1384
C6_5 C 0.13478(20) 0.85663(13) 0.0211(2)
C7_5 C 0.09830(16) 0.79944(11) 0.25386(19)
C8_5 C 0.10267(17) 0.84081(12) 0.30782(19)
H5_5 H 0.1157 0.8757 0.2838
C9_5 C 0.08781(16) 0.83069(11) 0.39699(19)
C10_5 C 0.07009(16) 0.77925(11) 0.42876(19)
H6_5 H 0.0600 0.7709 0.4896
C11_5 C 0.06708(16) 0.73988(11) 0.37166(17)
C12_4 C 0.04847(16) 0.68406(11) 0.40100(17)
C13_4 C 0.01225(17) 0.65987(12) 0.47176(19)
C15_4 C 0.05000(17) 0.60203(12) 0.38791(19)
H9_4 H 0.0633 0.5819 0.3577
C16_4 C 0.06660(16) 0.65353(11) 0.35913(19)
H10_4 H 0.0907 0.6680 0.3101
C17_5 C 0.09211(17) 0.87353(12) 0.4581(2)
C18_5 C 0.10521(21) 0.92355(14) 0.4281(3)
H11_5 H 0.1123 0.9325 0.3666
C19_5 C 0.10802(24) 0.96135(15) 0.4903(4)
H12_5 H 0.1161 0.9961 0.4710
C20_5 C 0.09931(23) 0.94826(16) 0.5778(3)
H13_5 H 0.1021 0.9736 0.6213
C21_5 C 0.08670(22) 0.89860(17) 0.6008(3)
H14_5 H 0.0802 0.8893 0.6623
H21_4 H 0.0017 0.3210 0.4971
C35_4 C 0.00277(17) 0.39212(12) 0.50463(19)
H22_4 H 0.0281 0.4084 0.4578
N10_3 N 0.10396(10) 0.34957(13) 0.87716(15)
C33_4 C 0.03107(11) 0.38180(16) 0.93233(17)
C34_4 C 0.01904(12) 0.34558(17) 0.86157(19)
C35_5 C 0.05601(12) 0.33056(17) 0.83796(19)
H22_5 H 0.0469 0.3052 0.7911
C36_4 C 0.11463(12) 0.38333(17) 0.94542(19)
H23_4 H 0.1480 0.3966 0.9756
C37_4 C 0.07973(11) 0.39993(16) 0.97420(19)
Co2_2 Co 0.1667 0.3333 0.8333
N4_6 N 0.41584(16) 0.52738(12) 0.21122(19)
N5_2 N 0.34957(13) 0.24561(9) 0.12284(15)
C9_6 C 0.42114(16) 0.49736(11) 0.06366(19)
C10_6 C 0.40342(16) 0.44592(11) 0.09543(19)
H6_6 H 0.3933 0.4376 0.1563
C11_6 C 0.40041(16) 0.40655(11) 0.03833(17)
C12_5 C 0.38180(16) 0.35073(11) 0.06767(17)
C13_5 C 0.34558(17) 0.32654(12) 0.13843(19)
H7_5 H 0.3316 0.3457 0.1696
C14_4 C 0.33056(17) 0.27455(12) 0.16204(19)
H8_4 H 0.3052 0.2583 0.2089
C15_5 C 0.38333(17) 0.26870(12) 0.05458(19)
H9_5 H 0.3966 0.2486 0.0244
C16_5 C 0.39993(16) 0.32020(11) 0.02580(19)
C17_6 C 0.42544(17) 0.54020(12) 0.1248(2)
C18_6 C 0.43854(21) 0.59022(14) 0.0948(3)
H11_6 H 0.4456 0.5992 0.0333
C19_6 C 0.44135(24) 0.62802(15) 0.1570(4)
H12_6 H 0.4494 0.6628 0.1377
C20_6 C 0.43264(23) 0.61493(16) 0.2445(3)
H13_6 H 0.4354 0.6403 0.2880
C21_6 C 0.42003(22) 0.56527(17) 0.2675(3)
H14_6 H 0.4135 0.5560 0.3290
Co3_2 Co 0.3333 0.1667 0.1667
S1_4 S 0.32221(4) 0.50992(4) 0.84920(8)
N1_4 N 0.22512(11) 0.41371(11) 0.84523(15)
N2_5 N 0.17964(10) 0.32128(10) 0.97521(16)
C1_4 C 0.26531(14) 0.45370(14) 0.84662(19)
H1_4 H 0.2496 0.3883 0.9933
H4_5 H 0.1125 0.2520 0.9901
S2_5 S 0.01113(4) 0.15674(4) 0.81746(8)
N6_5 N 0.10822(11) 0.25295(11) 0.82143(15)
N7_4 N 0.15370(10) 0.34538(10) 0.69145(16)
N8_4 N 0.08299(9) 0.33516(9) 0.38174(15)
N9_4 N 0.19405(12) 0.44487(11) 0.12211(19)
C22_5 C 0.06803(14) 0.21296(14) 0.82004(19)
C23_5 C 0.11045(12) 0.30960(12) 0.64381(19)
H15_5 H 0.0838 0.2783 0.6733
C24_5 C 0.10307(12) 0.31606(12) 0.55561(19)
H16_5 H 0.0717 0.2896 0.5259
C25_4 C 0.14061(11) 0.36060(12) 0.50897(19)
C26_4 C 0.18535(13) 0.39737(15) 0.5568(2)
H17_4 H 0.2128 0.4286 0.5282
C27_4 C 0.18997(13) 0.38852(15) 0.6455(2)
H18_4 H 0.2209 0.4146 0.6765
C28_4 C 0.13278(11) 0.36781(12) 0.41280(19)
C29_4 C 0.17415(12) 0.40481(12) 0.35884(19)
H19_4 H 0.2091 0.4267 0.3828
C30_4 C 0.16403(11) 0.40955(11) 0.26967(19)
C31_4 C 0.11259(11) 0.37583(11) 0.23790(19)
H20_4 H 0.1043 0.3776 0.1770
C32_4 C 0.07322(11) 0.33947(11) 0.29500(17)
C33_5 C 0.01740(11) 0.30226(11) 0.26566(17)
H21_5 H 0.0124 0.3474 0.1637
H24_5 H 0.0014 0.2440 0.3565
C38_4 C 0.20687(12) 0.44809(12) 0.2085(2)
C39_4 C 0.25689(14) 0.48501(16) 0.2385(3)
H25_4 H 0.2659 0.4869 0.3000
C40_4 C 0.29469(15) 0.52000(19) 0.1763(4)
H26_4 H 0.3295 0.5467 0.1956
C41_4 C 0.28160(16) 0.51562(16) 0.0888(3)
H27_4 H 0.3070 0.5382 0.0453
C42_4 C 0.23194(17) 0.47857(14) 0.0658(3)
H28_4 H 0.2227 0.4758 0.0043
N11_4 N 0.22937(10) 0.31710(13) 0.78951(15)
N10_4 N 0.31710(13) 0.08772(9) 0.21049(15)
C34_5 C 0.32109(17) 0.00679(12) 0.19490(19)
C35_6 C 0.33611(17) 0.05878(12) 0.17129(19)
H22_6 H 0.3615 0.0750 0.1244
C36_5 C 0.28334(17) 0.06463(12) 0.27875(19)
H23_5 H 0.2701 0.0847 0.3089
C37_5 C 0.26674(16) 0.01313(11) 0.30753(19)
S1_5 S 0.15674(4) 0.14562(6) 0.18254(8)
N1_5 N 0.25295(11) 0.14474(16) 0.17857(15)
N2_6 N 0.34538(10) 0.19169(14) 0.30855(16)
N3_6 N 0.33516(9) 0.25218(13) 0.61826(15)
N4_7 N 0.44487(11) 0.25083(16) 0.87789(19)
C1_5 C 0.21296(14) 0.14494(20) 0.17996(19)
C2_5 C 0.30960(12) 0.19916(17) 0.35619(19)
H1_5 H 0.2783 0.1946 0.3267
C3_5 C 0.31606(12) 0.21300(17) 0.44439(19)
H2_5 H 0.2896 0.2180 0.4741
C4_6 C 0.36060(12) 0.22000(16) 0.49103(19)
C5_6 C 0.39737(15) 0.21203(20) 0.4432(2)
H3_6 H 0.4286 0.2159 0.4718
C6_6 C 0.38852(15) 0.19856(20) 0.3545(2)
H4_6 H 0.4146 0.1938 0.3235
C7_6 C 0.36781(12) 0.23504(16) 0.58720(19)
C8_6 C 0.40481(12) 0.23067(17) 0.64116(19)
H5_6 H 0.4267 0.2177 0.6172
C9_7 C 0.40955(11) 0.24553(16) 0.73033(19)
C10_7 C 0.37583(11) 0.26325(16) 0.76210(19)
H6_7 H 0.3776 0.2734 0.8230
C11_7 C 0.33947(11) 0.26626(16) 0.70500(17)
C12_6 C 0.30226(11) 0.28487(16) 0.73434(17)
C13_6 C 0.31429(12) 0.32109(17) 0.80510(19)
H7_6 H 0.3474 0.3351 0.8363
C14_5 C 0.27732(12) 0.33611(17) 0.82871(19)
H8_5 H 0.2864 0.3615 0.8756
C15_6 C 0.21870(12) 0.28334(17) 0.72125(19)
H9_6 H 0.1853 0.2701 0.6911
C16_6 C 0.25360(11) 0.26674(16) 0.69247(19)
H10_5 H 0.2440 0.2427 0.6435
C17_7 C 0.44809(12) 0.24123(17) 0.7915(2)
C18_7 C 0.48501(16) 0.22813(21) 0.7615(3)
H11_7 H 0.4869 0.2211 0.7000
C19_7 C 0.52000(19) 0.22532(24) 0.8237(4)
H12_7 H 0.5467 0.2173 0.8044
C20_7 C 0.51562(16) 0.23403(23) 0.9112(3)
H13_7 H 0.5382 0.2313 0.9547
C21_7 C 0.47857(14) 0.24664(22) 0.9342(3)
H14_7 H 0.4758 0.2532 0.9957
S2_6 S 0.50992(4) 0.18772(6) 0.15080(8)
N6_6 N 0.41371(11) 0.18860(16) 0.15477(15)
N7_5 N 0.32128(10) 0.14165(14) 0.02479(16)
C22_6 C 0.45370(14) 0.18840(20) 0.15338(19)
H15_6 H 0.3883 0.1388 0.0067
H18_5 H 0.2520 0.1396 0.0099
N5_3 N 0.89604(10) 0.65043(13) 0.12284(15)
C12_7 C 0.96893(11) 0.61820(16) 0.06767(17)
C13_7 C 0.98096(12) 0.65442(17) 0.13843(19)
C14_6 C 0.94399(12) 0.66944(17) 0.16204(19)
H8_6 H 0.9531 0.6948 0.2089
C15_7 C 0.88537(12) 0.61667(17) 0.05458(19)
H9_7 H 0.8520 0.6034 0.0244
C16_7 C 0.92027(11) 0.60007(16) 0.02580(19)
Co3_3 Co 0.8333 0.6667 0.1667
N9_5 N 0.58416(16) 0.47262(12) 0.78878(19)
N10_5 N 0.65043(13) 0.75439(9) 0.87716(15)
C30_5 C 0.57886(16) 0.50264(11) 0.93634(19)
C31_5 C 0.59658(16) 0.55408(11) 0.90457(19)
H20_5 H 0.6067 0.5624 0.8437
C32_5 C 0.59959(16) 0.59345(11) 0.96167(17)
C33_6 C 0.61820(16) 0.64927(11) 0.93233(17)
C34_6 C 0.65442(17) 0.67346(12) 0.86157(19)
H21_6 H 0.6684 0.6543 0.8304
C35_7 C 0.66944(17) 0.72545(12) 0.83796(19)
H22_7 H 0.6948 0.7417 0.7911
C36_6 C 0.61667(17) 0.73130(12) 0.94542(19)
H23_6 H 0.6034 0.7514 0.9756
C37_6 C 0.60007(16) 0.67980(11) 0.97420(19)
C38_5 C 0.57456(17) 0.45980(12) 0.8752(2)
C39_5 C 0.56146(21) 0.40978(14) 0.9052(3)
H25_5 H 0.5544 0.4008 0.9667
C40_5 C 0.55865(24) 0.37198(15) 0.8430(4)
H26_5 H 0.5506 0.3372 0.8623
C41_5 C 0.56736(23) 0.38507(16) 0.7555(3)
H27_5 H 0.5646 0.3597 0.7120
C42_5 C 0.57997(22) 0.43473(17) 0.7325(3)
H28_5 H 0.5865 0.4440 0.6710
Co2_3 Co 0.6667 0.8333 0.8333
S1_6 S 0.49008(4) 0.81228(6) 0.84920(8)
N1_6 N 0.58629(11) 0.81140(16) 0.84523(15)
N2_7 N 0.67872(10) 0.85835(14) 0.97521(16)
C1_6 C 0.54630(14) 0.81160(20) 0.84662(19)
H1_6 H 0.6117 0.8612 0.9933
H4_7 H 0.7480 0.8604 0.9901
S2_7 S 0.84326(4) 0.85438(6) 0.81746(8)
N6_7 N 0.74705(11) 0.85526(16) 0.82143(15)
N7_6 N 0.65462(10) 0.80831(14) 0.69145(16)
N8_5 N 0.66484(9) 0.74782(13) 0.38174(15)
N9_6 N 0.55513(11) 0.74917(16) 0.12211(19)
N10_6 N 0.77063(10) 0.68290(13) 0.21049(15)
C22_7 C 0.78704(14) 0.85506(20) 0.82004(19)
C23_6 C 0.69040(12) 0.80084(17) 0.64381(19)
H15_7 H 0.7217 0.8054 0.6733
C24_6 C 0.68394(12) 0.78700(17) 0.55561(19)
H16_6 H 0.7104 0.7820 0.5259
C25_5 C 0.63940(12) 0.78000(16) 0.50897(19)
C26_5 C 0.60263(15) 0.78797(20) 0.5568(2)
H17_5 H 0.5714 0.7841 0.5282
C27_5 C 0.61148(15) 0.80144(20) 0.6455(2)
H18_6 H 0.5854 0.8062 0.6765
C28_5 C 0.63219(12) 0.76496(16) 0.41280(19)
C29_5 C 0.59519(12) 0.76933(17) 0.35884(19)
H19_5 H 0.5733 0.7823 0.3828
C30_6 C 0.59045(11) 0.75447(16) 0.26967(19)
C31_6 C 0.62417(11) 0.73675(16) 0.23790(19)
H20_6 H 0.6224 0.7266 0.1770
C32_6 C 0.66053(11) 0.73374(16) 0.29500(17)
C33_7 C 0.69774(11) 0.71513(16) 0.26566(17)
C34_7 C 0.68571(12) 0.67891(17) 0.19490(19)
H21_7 H 0.6526 0.6649 0.1637
C35_8 C 0.72268(12) 0.66389(17) 0.17129(19)
H22_8 H 0.7136 0.6385 0.1244
C36_7 C 0.78130(12) 0.71666(17) 0.27875(19)
H23_7 H 0.8147 0.7299 0.3089
C37_7 C 0.74640(11) 0.73326(16) 0.30753(19)
H24_6 H 0.7560 0.7573 0.3565
C38_6 C 0.55191(12) 0.75877(17) 0.2085(2)
C39_6 C 0.51499(16) 0.77187(21) 0.2385(3)
H25_6 H 0.5131 0.7789 0.3000
C40_6 C 0.48000(19) 0.77468(24) 0.1763(4)
H26_6 H 0.4533 0.7827 0.1956
C41_6 C 0.48438(16) 0.76597(23) 0.0888(3)
H27_6 H 0.4618 0.7687 0.0453
C42_6 C 0.52143(14) 0.75336(22) 0.0658(3)
H28_6 H 0.5242 0.7468 0.0043
N11_5 N 0.68290(13) 0.91228(16) 0.78951(15)
S1_7 S 0.98887(4) 0.84326(4) 0.18254(8)
N1_7 N 0.89178(11) 0.74705(11) 0.17857(15)
N2_8 N 0.84630(10) 0.65462(10) 0.30855(16)
N3_7 N 0.91701(9) 0.66484(9) 0.61826(15)
N4_8 N 0.80595(12) 0.55513(11) 0.87789(19)
C1_7 C 0.93197(14) 0.78704(14) 0.17996(19)
C2_6 C 0.88955(12) 0.69040(12) 0.35619(19)
H1_7 H 0.9162 0.7217 0.3267
C3_6 C 0.89693(12) 0.68394(12) 0.44439(19)
H2_6 H 0.9283 0.7104 0.4741
C4_7 C 0.85939(11) 0.63940(12) 0.49103(19)
C5_7 C 0.81465(13) 0.60263(15) 0.4432(2)
H3_7 H 0.7872 0.5714 0.4718
C6_7 C 0.81003(13) 0.61148(15) 0.3545(2)
H4_8 H 0.7791 0.5854 0.3235
C7_7 C 0.86722(11) 0.63219(12) 0.58720(19)
C8_7 C 0.82585(12) 0.59519(12) 0.64116(19)
H5_7 H 0.7909 0.5733 0.6172
C9_8 C 0.83597(11) 0.59045(11) 0.73033(19)
C10_8 C 0.88741(11) 0.62417(11) 0.76210(19)
H6_8 H 0.8957 0.6224 0.8230
C11_8 C 0.92678(11) 0.66053(11) 0.70500(17)
C12_8 C 0.98260(11) 0.69774(11) 0.73434(17)
H7_7 H 0.9876 0.6526 0.8363
H10_6 H 0.9986 0.7560 0.6435
C17_8 C 0.79313(12) 0.55191(12) 0.7915(2)
C18_8 C 0.74311(14) 0.51499(16) 0.7615(3)
H11_8 H 0.7341 0.5131 0.7000
C19_8 C 0.70531(15) 0.48000(19) 0.8237(4)
H12_8 H 0.6705 0.4533 0.8044
C20_8 C 0.71840(16) 0.48438(16) 0.9112(3)
H13_8 H 0.6930 0.4618 0.9547
C21_8 C 0.76806(17) 0.52143(14) 0.9342(3)
H14_8 H 0.7773 0.5242 0.9957
S2_8 S 0.67779(4) 0.49008(4) 0.15080(8)
N6_8 N 0.77488(11) 0.58629(11) 0.15477(15)
N7_7 N 0.82036(10) 0.67872(10) 0.02479(16)
C22_8 C 0.73469(14) 0.54630(14) 0.15338(19)
H15_8 H 0.7504 0.6117 0.0067
H18_7 H 0.8875 0.7480 0.0099
C13_8 C 0.67891(17) 0.99321(12) 0.80510(19)
C14_7 C 0.66389(17) 0.94122(12) 0.82871(19)
H8_7 H 0.6385 0.9250 0.8756
C15_8 C 0.71666(17) 0.93537(12) 0.72125(19)
H9_8 H 0.7299 0.9153 0.6911
C16_8 C 0.73326(16) 0.98687(11) 0.69247(19)
Co1_4 Co 1.0000 0.5000 0.5000
S1_8 S 0.82341(4) 0.47895(6) 0.51587(8)
N1_8 N 0.91962(11) 0.47807(16) 0.51190(15)
C1_8 C 0.87963(14) 0.47827(20) 0.51329(19)
C2_7 C 0.97627(12) 0.53249(17) 0.68952(19)
H1_8 H 0.9450 0.5279 0.6600
C3_7 C 0.98273(12) 0.54633(17) 0.77772(19)
H2_7 H 0.9563 0.5513 0.8074
H10_7 H 0.9107 0.5760 0.9768
N7_8 N 0.98795(10) 0.47498(14) 0.35812(16)
N8_6 N 0.99817(9) 0.41449(13) 0.04841(15)
C25_6 C 0.97273(12) 0.44667(16) 0.17564(19)
C26_6 C 0.93596(15) 0.45464(20) 0.2235(2)
H17_6 H 0.9047 0.4508 0.1949
C27_6 C 0.94481(15) 0.46811(20) 0.3122(2)
H18_8 H 0.9187 0.4729 0.3432
C28_6 C 0.96552(12) 0.43163(16) 0.07947(19)
C29_6 C 0.92852(12) 0.43600(17) 0.02551(19)
H19_6 H 0.9066 0.4490 0.0495
N12_2 N 0.98376(13) 0.42106(16) 0.54383(15)
H7_8 H 0.9983 0.6790 0.5029
C14_8 C 0.99723(17) 0.60788(12) 0.49537(19)
H8_8 H 0.9719 0.5916 0.5422
N8_7 N 0.91884(13) 0.25035(9) 0.71508(15)
N9_7 N 0.91749(16) 0.13929(12) 0.45545(19)
C23_7 C 0.86582(17) 0.22289(12) 0.97715(19)
C24_7 C 0.87966(17) 0.23027(12) 0.88895(19)
H16_7 H 0.8846 0.2617 0.8593
C25_7 C 0.88666(16) 0.19273(11) 0.84231(19)
C26_7 C 0.87869(20) 0.14799(13) 0.8902(2)
H17_7 H 0.8825 0.1206 0.8616
C27_7 C 0.86522(20) 0.14337(13) 0.9789(2)
C28_7 C 0.90170(16) 0.20056(11) 0.74614(19)
C29_7 C 0.89733(17) 0.15919(12) 0.69218(19)
H19_7 H 0.8843 0.1243 0.7162
C30_7 C 0.91219(16) 0.16931(11) 0.60301(19)
C31_7 C 0.92991(16) 0.22075(11) 0.57124(19)
H20_7 H 0.9400 0.2291 0.5104
C32_7 C 0.93292(16) 0.26012(11) 0.62834(17)
C33_8 C 0.95153(16) 0.31594(11) 0.59900(17)
C34_8 C 0.98775(17) 0.34013(12) 0.52824(19)
C36_8 C 0.95000(17) 0.39797(12) 0.61209(19)
H23_8 H 0.9367 0.4181 0.6423
C37_8 C 0.93340(16) 0.34647(11) 0.64087(19)
H24_7 H 0.9093 0.3320 0.6899
C38_7 C 0.90789(17) 0.12647(12) 0.5419(2)
C39_7 C 0.89479(21) 0.07645(14) 0.5719(3)
H25_7 H 0.8877 0.0675 0.6334
C40_7 C 0.89198(24) 0.03865(15) 0.5097(4)
H26_7 H 0.8839 0.0039 0.5290
C41_7 C 0.90069(23) 0.05174(16) 0.4222(3)
H27_7 H 0.8979 0.0264 0.3787
C42_7 C 0.91330(22) 0.10140(17) 0.3992(3)
H28_7 H 0.9198 0.1107 0.3377
N9_8 N 0.88846(11) 0.41584(16) 0.78878(19)
C30_8 C 0.92378(11) 0.42114(16) 0.93634(19)
C31_8 C 0.95750(11) 0.40342(16) 0.90457(19)
H20_8 H 0.9557 0.3933 0.8437
C32_8 C 0.99386(11) 0.40041(16) 0.96167(17)
H21_8 H 0.9859 0.3316 0.8304
C38_8 C 0.88524(12) 0.42544(17) 0.8752(2)
C39_8 C 0.84832(16) 0.43854(21) 0.9052(3)
H25_8 H 0.8464 0.4456 0.9667
C40_8 C 0.81333(19) 0.44135(24) 0.8430(4)
H26_8 H 0.7866 0.4494 0.8623
C41_8 C 0.81771(16) 0.43264(23) 0.7555(3)
H27_8 H 0.7951 0.4354 0.7120
C42_8 C 0.85476(14) 0.42003(22) 0.7325(3)
H28_8 H 0.8575 0.4135 0.6710
Co1_5 Co 0.5000 0.5000 0.5000
S1_9 S 0.52105(6) 0.34446(4) 0.51587(8)
N1_9 N 0.52193(16) 0.44155(11) 0.51190(15)
N2_9 N 0.47498(14) 0.48703(10) 0.64188(16)
N3_8 N 0.41449(13) 0.41632(9) 0.95159(15)
C1_9 C 0.52173(20) 0.40136(14) 0.51329(19)
C2_8 C 0.46751(17) 0.44378(12) 0.68952(19)
H1_9 H 0.4721 0.4171 0.6600
C3_8 C 0.45367(17) 0.43640(12) 0.77772(19)
H2_8 H 0.4487 0.4050 0.8074
C4_8 C 0.44667(16) 0.47394(11) 0.82436(19)
C5_8 C 0.45464(20) 0.51868(13) 0.7765(2)
H3_8 H 0.4508 0.5461 0.8051
C6_8 C 0.46811(20) 0.52330(13) 0.6878(2)
H4_9 H 0.4729 0.5542 0.6568
C7_8 C 0.43163(16) 0.46611(11) 0.92053(19)
C8_8 C 0.43600(17) 0.50748(12) 0.97449(19)
H5_8 H 0.4490 0.5424 0.9505
H10_8 H 0.4240 0.3347 0.9768
S2_9 S 0.47895(6) 0.65554(4) 0.48413(8)
N6_9 N 0.47807(16) 0.55845(11) 0.48810(15)
N7_9 N 0.52502(14) 0.51297(10) 0.35812(16)
N8_8 N 0.58551(13) 0.58368(9) 0.04841(15)
C22_9 C 0.47827(20) 0.59864(14) 0.48671(19)
C23_8 C 0.53249(17) 0.55622(12) 0.31048(19)
H15_9 H 0.5279 0.5829 0.3400
C24_8 C 0.54633(17) 0.56360(12) 0.22228(19)
H16_8 H 0.5513 0.5950 0.1926
C25_8 C 0.55333(16) 0.52606(11) 0.17564(19)
C26_8 C 0.54536(20) 0.48132(13) 0.2235(2)
H17_8 H 0.5492 0.4539 0.1949
C27_8 C 0.53189(20) 0.47670(13) 0.3122(2)
H18_9 H 0.5271 0.4458 0.3432
C28_8 C 0.56837(16) 0.53389(11) 0.07947(19)
C29_8 C 0.56400(17) 0.49252(12) 0.02551(19)
H19_8 H 0.5510 0.4576 0.0495
H24_8 H 0.5760 0.6653 0.0232
N11_6 N 0.42106(16) 0.43729(10) 0.45617(15)
N12_3 N 0.57894(16) 0.56271(10) 0.54383(15)
N3_9 N 0.25035(9) 0.33150(9) 0.28492(15)
N4_9 N 0.13929(12) 0.22179(11) 0.54455(19)
C2_9 C 0.22289(12) 0.35706(12) 0.02285(19)
C3_9 C 0.23027(12) 0.35060(12) 0.11105(19)
H2_9 H 0.2617 0.3770 0.1407
C4_9 C 0.19273(11) 0.30606(12) 0.15769(19)
C5_9 C 0.14799(13) 0.26929(15) 0.1098(2)
H3_9 H 0.1206 0.2380 0.1384
C6_9 C 0.14337(13) 0.27814(15) 0.0211(2)
C7_9 C 0.20056(11) 0.29885(12) 0.25386(19)
C8_9 C 0.15919(12) 0.26185(12) 0.30782(19)
H5_9 H 0.1243 0.2399 0.2838
C9_9 C 0.16931(11) 0.25711(11) 0.39699(19)
C10_9 C 0.22075(11) 0.29083(11) 0.42876(19)
H6_9 H 0.2291 0.2890 0.4896
C11_9 C 0.26012(11) 0.32719(11) 0.37166(17)
C12_9 C 0.31594(11) 0.36440(11) 0.40100(17)
C13_9 C 0.34013(12) 0.35237(12) 0.47176(19)
H7_9 H 0.3210 0.3192 0.5029
C14_9 C 0.39212(12) 0.38934(12) 0.49537(19)
H8_9 H 0.4084 0.3802 0.5422
C15_9 C 0.39797(12) 0.44796(12) 0.38791(19)
H9_9 H 0.4181 0.4813 0.3577
C16_9 C 0.34647(11) 0.41306(11) 0.35913(19)
H10_9 H 0.3320 0.4226 0.3101
C17_9 C 0.12647(12) 0.21857(12) 0.4581(2)
C18_9 C 0.07645(14) 0.18165(16) 0.4281(3)
H11_9 H 0.0675 0.1797 0.3666
C19_9 C 0.03865(15) 0.14666(19) 0.4903(4)
H12_9 H 0.0039 0.1199 0.4710
C20_9 C 0.05174(16) 0.15104(16) 0.5778(3)
H13_9 H 0.0264 0.1284 0.6213
C21_9 C 0.10140(17) 0.18809(14) 0.6008(3)
H14_9 H 0.1107 0.1908 0.6623
N8_9 N 0.74965(9) 0.66850(9) 0.71508(15)
N9_9 N 0.86071(12) 0.77821(11) 0.45545(19)
C23_9 C 0.77711(12) 0.64294(12) 0.97715(19)
C24_9 C 0.76973(12) 0.64940(12) 0.88895(19)
H16_9 H 0.7383 0.6230 0.8593
C25_9 C 0.80727(11) 0.69394(12) 0.84231(19)
C26_9 C 0.85201(13) 0.73071(15) 0.8902(2)
H17_9 H 0.8794 0.7620 0.8616
C27_9 C 0.85663(13) 0.72186(15) 0.9789(2)
C28_9 C 0.79944(11) 0.70115(12) 0.74614(19)
C29_9 C 0.84081(12) 0.73815(12) 0.69218(19)
H19_9 H 0.8757 0.7601 0.7162
C30_9 C 0.83069(11) 0.74289(11) 0.60301(19)
C31_9 C 0.77925(11) 0.70917(11) 0.57124(19)
H20_9 H 0.7709 0.7110 0.5104
C32_9 C 0.73988(11) 0.67281(11) 0.62834(17)
C33_9 C 0.68406(11) 0.63560(11) 0.59900(17)
C34_9 C 0.65987(12) 0.64763(12) 0.52824(19)
H21_9 H 0.6790 0.6808 0.4971
C35_9 C 0.60788(12) 0.61066(12) 0.50463(19)
H22_9 H 0.5916 0.6198 0.4578
C36_9 C 0.60203(12) 0.55204(12) 0.61209(19)
H23_9 H 0.5819 0.5187 0.6423
C37_9 C 0.65353(11) 0.58694(11) 0.64087(19)
H24_9 H 0.6680 0.5774 0.6899
C38_9 C 0.87353(12) 0.78143(12) 0.5419(2)
C39_9 C 0.92355(14) 0.81835(16) 0.5719(3)
H25_9 H 0.9325 0.8203 0.6334
C40_9 C 0.96135(15) 0.85334(19) 0.5097(4)
H26_9 H 0.9961 0.8801 0.5290
C41_9 C 0.94826(16) 0.84896(16) 0.4222(3)
H27_9 H 0.9736 0.8716 0.3787
C42_9 C 0.89860(17) 0.81191(14) 0.3992(3)
H28_9 H 0.8893 0.8092 0.3377
loop_
_geom_bond_atom_site_label_1
_geom_bond_atom_site_label_2
_geom_bond_site_symmetry_1
_geom_bond_site_symmetry_2
N5 C14 1_555 1_555
C13 C12 1_555 1_555
C14 C13 1_555 1_555
H8 C14 1_555 1_555
C15 N5 1_555 1_555
H9 C15 1_555 1_555
C16 C12 1_555 1_555
Co3 N5 1_555 1_555
C15 C16 1_555 1_555
N10 C35 1_555 1_555
C35 C34 1_555 1_555
H22 C35 1_555 1_555
C36 N10 1_555 1_555
H23 C36 1_555 1_555
Co3 N10 1_555 1_555
C36 C37 1_555 1_555
Co3 N1 1_555 1_555
S1 C1 1_555 1_555
N1 C1 1_555 1_555
N2 Co3 1_555 1_555
N3 C7 1_555 1_555
N4 C17 1_555 1_555
C2 N2 1_555 1_555
H1 C2 1_555 1_555
C3 C2 1_555 1_555
H2 C3 1_555 1_555
C4 C3 1_555 1_555
C5 C4 1_555 1_555
H3 C5 1_555 1_555
C6 N2 1_555 1_555
H4 C6 1_555 1_555
C7 C4 1_555 1_555
C8 C7 1_555 1_555
H5 C8 1_555 1_555
C9 C8 1_555 1_555
C10 C9 1_555 1_555
H6 C10 1_555 1_555
C11 N3 1_555 1_555
C12_2 C11 1_555 1_555
C17 C9 1_555 1_555
C18 C17 1_555 1_555
H11 C18 1_555 1_555
C19 C18 1_555 1_555
H12 C19 1_555 1_555
C20 C19 1_555 1_555
H13 C20 1_555 1_555
C21 N4 1_555 1_555
H14 C21 1_555 1_555
S2 C22 1_555 1_555
N6 Co3 1_555 1_555
N7 Co3 1_555 1_555
C22 N6 1_555 1_555
C5 C6 1_555 1_555
C10 C11 1_555 1_555
C20 C21 1_555 1_555
Co1 N1_2 1_555 1_555
S1_2 C1_2 1_555 1_555
N1_2 C1_2 1_555 1_555
H1_2 C2_2 1_555 1_555
C3_2 C2_2 1_555 1_555
H2_2 C3_2 1_555 1_555
N7_2 Co1 1_555 1_555
N8 C28 1_555 1_555
C26 C25 1_555 1_555
H17 C26 1_555 1_555
C27 N7_2 1_555 1_555
H18_2 C27 1_555 1_555
C28 C25 1_555 1_555
C29 C28 1_555 1_555
H19 C29 1_555 1_555
N12 Co1 1_555 1_555
C26 C27 1_555 1_555
H8_2 C14_2 1_555 1_555
N8_2 C28_2 1_555 1_555
N9 C38 1_555 1_555
C24 C23 1_555 1_555
H16 C24 1_555 1_555
C25_2 C24 1_555 1_555
C26_2 C25_2 1_555 1_555
H17_2 C26_2 1_555 1_555
C28_2 C25_2 1_555 1_555
C29_2 C28_2 1_555 1_555
H19_2 C29_2 1_555 1_555
C30 C29_2 1_555 1_555
C31 C30 1_555 1_555
H20 C31 1_555 1_555
C32 N8_2 1_555 1_555
C33 C32 1_555 1_555
C34_2 C33 1_555 1_555
C36_2 N12 1_555 1_555
H23_2 C36_2 1_555 1_555
C37_2 C33 1_555 1_555
H24 C37_2 1_555 1_555
C38 C30 1_555 1_555
C39 C38 1_555 1_555
H25 C39 1_555 1_555
C40 C39 1_555 1_555
H26 C40 1_555 1_555
C41 C40 1_555 1_555
H27 C41 1_555 1_555
C42 N9 1_555 1_555
H28 C42 1_555 1_555
C26_2 C27_2 1_555 1_555
C31 C32 1_555 1_555
C36_2 C37_2 1_555 1_555
C41 C42 1_555 1_555
N9_2 C38_2 1_555 1_555
C31_2 C30_2 1_555 1_555
H20_2 C31_2 1_555 1_555
C38_2 C30_2 1_555 1_555
C39_2 C38_2 1_555 1_555
H25_2 C39_2 1_555 1_555
C40_2 C39_2 1_555 1_555
H26_2 C40_2 1_555 1_555
C41_2 C40_2 1_555 1_555
H27_2 C41_2 1_555 1_555
C42_2 N9_2 1_555 1_555
H28_2 C42_2 1_555 1_555
C31_2 C32_2 1_555 1_555
C41_2 C42_2 1_555 1_555
N4_2 C17_2 1_555 1_555
C10_2 C9_2 1_555 1_555
H6_2 C10_2 1_555 1_555
C17_2 C9_2 1_555 1_555
C18_2 C17_2 1_555 1_555
H11_2 C18_2 1_555 1_555
C19_2 C18_2 1_555 1_555
H12_2 C19_2 1_555 1_555
C20_2 C19_2 1_555 1_555
H13_2 C20_2 1_555 1_555
C21_2 N4_2 1_555 1_555
H14_2 C21_2 1_555 1_555
C10_2 C11_2 1_555 1_555
C20_2 C21_2 1_555 1_555
N2_2 Co1_2 1_555 1_555
N3_2 C7_2 1_555 1_555
C5_2 C4_2 1_555 1_555
H3_2 C5_2 1_555 1_555
C6_2 N2_2 1_555 1_555
H4_2 C6_2 1_555 1_555
C7_2 C4_2 1_555 1_555
C8_2 C7_2 1_555 1_555
H5_2 C8_2 1_555 1_555
S2_2 C22_2 1_555 1_555
N6_2 Co1_2 1_555 1_555
C22_2 N6_2 1_555 1_555
H15_2 C23_2 1_555 1_555
C24_2 C23_2 1_555 1_555
H16_2 C24_2 1_555 1_555
N11 Co1_2 1_555 1_555
C5_2 C6_2 1_555 1_555
N3_3 C7_3 1_555 1_555
N4_3 C17_3 1_555 1_555
C3_3 C2_3 1_555 1_555
H2_3 C3_3 1_555 1_555
C4_3 C3_3 1_555 1_555
C5_3 C4_3 1_555 1_555
H3_3 C5_3 1_555 1_555
C7_3 C4_3 1_555 1_555
C8_3 C7_3 1_555 1_555
H5_3 C8_3 1_555 1_555
C9_3 C8_3 1_555 1_555
C10_3 C9_3 1_555 1_555
H6_3 C10_3 1_555 1_555
C11_3 N3_3 1_555 1_555
C12_3 C11_3 1_555 1_555
C13_2 C12_3 1_555 1_555
C15_2 N11 1_555 1_555
H9_2 C15_2 1_555 1_555
C16_2 C12_3 1_555 1_555
H10_3 C16_2 1_555 1_555
C17_3 C9_3 1_555 1_555
C18_3 C17_3 1_555 1_555
H11_3 C18_3 1_555 1_555
C19_3 C18_3 1_555 1_555
H12_3 C19_3 1_555 1_555
C20_3 C19_3 1_555 1_555
H13_3 C20_3 1_555 1_555
C21_3 N4_3 1_555 1_555
H14_3 C21_3 1_555 1_555
C5_3 C6_3 1_555 1_555
C10_3 C11_3 1_555 1_555
C15_2 C16_2 1_555 1_555
C20_3 C21_3 1_555 1_555
H22_2 C35_2 1_555 1_555
N10_2 C35_3 1_555 1_555
C34_3 C33_2 1_555 1_555
C35_3 C34_3 1_555 1_555
H22_3 C35_3 1_555 1_555
C36_3 N10_2 1_555 1_555
H23_3 C36_3 1_555 1_555
C37_3 C33_2 1_555 1_555
Co2 N10_2 1_555 1_555
C36_3 C37_3 1_555 1_555
Co2 N1_3 1_555 1_555
S1_3 C1_3 1_555 1_555
N1_3 C1_3 1_555 1_555
N2_3 Co2 1_555 1_555
S2_3 C22_3 1_555 1_555
N6_3 Co2 1_555 1_555
N7_3 Co2 1_555 1_555
N8_3 C28_3 1_555 1_555
N9_3 C38_3 1_555 1_555
C22_3 N6_3 1_555 1_555
C23_3 N7_3 1_555 1_555
H15_3 C23_3 1_555 1_555
C24_3 C23_3 1_555 1_555
H16_3 C24_3 1_555 1_555
C25_3 C24_3 1_555 1_555
C26_3 C25_3 1_555 1_555
H17_3 C26_3 1_555 1_555
C27_3 N7_3 1_555 1_555
H18_3 C27_3 1_555 1_555
C28_3 C25_3 1_555 1_555
C29_3 C28_3 1_555 1_555
H19_3 C29_3 1_555 1_555
C30_3 C29_3 1_555 1_555
C31_3 C30_3 1_555 1_555
H20_3 C31_3 1_555 1_555
C32_3 N8_3 1_555 1_555
C33_3 C32_3 1_555 1_555
C38_3 C30_3 1_555 1_555
C39_3 C38_3 1_555 1_555
H25_3 C39_3 1_555 1_555
C40_3 C39_3 1_555 1_555
H26_3 C40_3 1_555 1_555
C41_3 C40_3 1_555 1_555
H27_3 C41_3 1_555 1_555
C42_3 N9_3 1_555 1_555
H28_3 C42_3 1_555 1_555
N11_2 Co2 1_555 1_555
C26_3 C27_3 1_555 1_555
C31_3 C32_3 1_555 1_555
C41_3 C42_3 1_555 1_555
N11_2 C14_3 1_555 1_555
C14_3 C13_3 1_555 1_555
H8_3 C14_3 1_555 1_555
C15_3 N11_2 1_555 1_555
H9_3 C15_3 1_555 1_555
C15_3 C16_3 1_555 1_555
N4_4 C17_4 1_555 1_555
C10_4 C9_4 1_555 1_555
H6_4 C10_4 1_555 1_555
C17_4 C9_4 1_555 1_555
C18_4 C17_4 1_555 1_555
H11_4 C18_4 1_555 1_555
C19_4 C18_4 1_555 1_555
H12_4 C19_4 1_555 1_555
C20_4 C19_4 1_555 1_555
H13_4 C20_4 1_555 1_555
C21_4 N4_4 1_555 1_555
H14_4 C21_4 1_555 1_555
C10_4 C11_4 1_555 1_555
C20_4 C21_4 1_555 1_555
N2_4 Co1_3 1_555 1_555
N3_4 C7_4 1_555 1_555
C5_4 C4_4 1_555 1_555
H3_4 C5_4 1_555 1_555
C6_4 N2_4 1_555 1_555
H4_4 C6_4 1_555 1_555
C7_4 C4_4 1_555 1_555
C8_4 C7_4 1_555 1_555
H5_4 C8_4 1_555 1_555
S2_4 C22_4 1_555 1_555
N6_4 Co1_3 1_555 1_555
C22_4 N6_4 1_555 1_555
H15_4 C23_4 1_555 1_555
C24_4 C23_4 1_555 1_555
H16_4 C24_4 1_555 1_555
N11_3 Co1_3 1_555 1_555
C5_4 C6_4 1_555 1_555
N3_5 C7_5 1_555 1_555
N4_5 C17_5 1_555 1_555
C3_4 C2_4 1_555 1_555
H2_4 C3_4 1_555 1_555
C4_5 C3_4 1_555 1_555
C5_5 C4_5 1_555 1_555
H3_5 C5_5 1_555 1_555
C7_5 C4_5 1_555 1_555
C8_5 C7_5 1_555 1_555
H5_5 C8_5 1_555 1_555
C9_5 C8_5 1_555 1_555
C10_5 C9_5 1_555 1_555
H6_5 C10_5 1_555 1_555
C11_5 N3_5 1_555 1_555
C12_4 C11_5 1_555 1_555
C13_4 C12_4 1_555 1_555
C15_4 N11_3 1_555 1_555
H9_4 C15_4 1_555 1_555
C16_4 C12_4 1_555 1_555
H10_4 C16_4 1_555 1_555
C17_5 C9_5 1_555 1_555
C18_5 C17_5 1_555 1_555
H11_5 C18_5 1_555 1_555
C19_5 C18_5 1_555 1_555
H12_5 C19_5 1_555 1_555
C20_5 C19_5 1_555 1_555
H13_5 C20_5 1_555 1_555
C21_5 N4_5 1_555 1_555
H14_5 C21_5 1_555 1_555
C5_5 C6_5 1_555 1_555
C10_5 C11_5 1_555 1_555
C15_4 C16_4 1_555 1_555
C20_5 C21_5 1_555 1_555
H22_4 C35_4 1_555 1_555
N10_3 C35_5 1_555 1_555
C34_4 C33_4 1_555 1_555
C35_5 C34_4 1_555 1_555
H22_5 C35_5 1_555 1_555
C36_4 N10_3 1_555 1_555
H23_4 C36_4 1_555 1_555
C37_4 C33_4 1_555 1_555
Co2_2 N10_3 1_555 1_555
C36_4 C37_4 1_555 1_555
N4_6 C17_6 1_555 1_555
N5_2 C14_4 1_555 1_555
C10_6 C9_6 1_555 1_555
H6_6 C10_6 1_555 1_555
C12_5 C11_6 1_555 1_555
C13_5 C12_5 1_555 1_555
H7_5 C13_5 1_555 1_555
C14_4 C13_5 1_555 1_555
H8_4 C14_4 1_555 1_555
C15_5 N5_2 1_555 1_555
H9_5 C15_5 1_555 1_555
C16_5 C12_5 1_555 1_555
C17_6 C9_6 1_555 1_555
C18_6 C17_6 1_555 1_555
H11_6 C18_6 1_555 1_555
C19_6 C18_6 1_555 1_555
H12_6 C19_6 1_555 1_555
C20_6 C19_6 1_555 1_555
H13_6 C20_6 1_555 1_555
C21_6 N4_6 1_555 1_555
H14_6 C21_6 1_555 1_555
Co3_2 N5_2 1_555 1_555
C10_6 C11_6 1_555 1_555
C15_5 C16_5 1_555 1_555
C20_6 C21_6 1_555 1_555
Co2_2 N1_4 1_555 1_555
S1_4 C1_4 1_555 1_555
N1_4 C1_4 1_555 1_555
N2_5 Co2_2 1_555 1_555
S2_5 C22_5 1_555 1_555
N6_5 Co2_2 1_555 1_555
N7_4 Co2_2 1_555 1_555
N8_4 C28_4 1_555 1_555
N9_4 C38_4 1_555 1_555
C22_5 N6_5 1_555 1_555
C23_5 N7_4 1_555 1_555
H15_5 C23_5 1_555 1_555
C24_5 C23_5 1_555 1_555
H16_5 C24_5 1_555 1_555
C25_4 C24_5 1_555 1_555
C26_4 C25_4 1_555 1_555
H17_4 C26_4 1_555 1_555
C27_4 N7_4 1_555 1_555
H18_4 C27_4 1_555 1_555
C28_4 C25_4 1_555 1_555
C29_4 C28_4 1_555 1_555
H19_4 C29_4 1_555 1_555
C30_4 C29_4 1_555 1_555
C31_4 C30_4 1_555 1_555
H20_4 C31_4 1_555 1_555
C32_4 N8_4 1_555 1_555
C33_5 C32_4 1_555 1_555
C38_4 C30_4 1_555 1_555
C39_4 C38_4 1_555 1_555
H25_4 C39_4 1_555 1_555
C40_4 C39_4 1_555 1_555
H26_4 C40_4 1_555 1_555
C41_4 C40_4 1_555 1_555
H27_4 C41_4 1_555 1_555
C42_4 N9_4 1_555 1_555
H28_4 C42_4 1_555 1_555
N11_4 Co2_2 1_555 1_555
C26_4 C27_4 1_555 1_555
C31_4 C32_4 1_555 1_555
C41_4 C42_4 1_555 1_555
N10_4 C35_6 1_555 1_555
C35_6 C34_5 1_555 1_555
H22_6 C35_6 1_555 1_555
C36_5 N10_4 1_555 1_555
H23_5 C36_5 1_555 1_555
Co3_2 N10_4 1_555 1_555
C36_5 C37_5 1_555 1_555
Co3_2 N1_5 1_555 1_555
S1_5 C1_5 1_555 1_555
N1_5 C1_5 1_555 1_555
N2_6 Co3_2 1_555 1_555
N3_6 C7_6 1_555 1_555
N4_7 C17_7 1_555 1_555
N11_4 C14_5 1_555 1_555
C2_5 N2_6 1_555 1_555
H1_5 C2_5 1_555 1_555
C3_5 C2_5 1_555 1_555
H2_5 C3_5 1_555 1_555
C4_6 C3_5 1_555 1_555
C5_6 C4_6 1_555 1_555
H3_6 C5_6 1_555 1_555
C6_6 N2_6 1_555 1_555
H4_6 C6_6 1_555 1_555
C7_6 C4_6 1_555 1_555
C8_6 C7_6 1_555 1_555
H5_6 C8_6 1_555 1_555
C9_7 C8_6 1_555 1_555
C10_7 C9_7 1_555 1_555
H6_7 C10_7 1_555 1_555
C11_7 N3_6 1_555 1_555
C12_6 C11_7 1_555 1_555
C13_6 C12_6 1_555 1_555
H7_6 C13_6 1_555 1_555
C14_5 C13_6 1_555 1_555
H8_5 C14_5 1_555 1_555
C15_6 N11_4 1_555 1_555
H9_6 C15_6 1_555 1_555
C16_6 C12_6 1_555 1_555
H10_5 C16_6 1_555 1_555
C17_7 C9_7 1_555 1_555
C18_7 C17_7 1_555 1_555
H11_7 C18_7 1_555 1_555
C19_7 C18_7 1_555 1_555
H12_7 C19_7 1_555 1_555
C20_7 C19_7 1_555 1_555
H13_7 C20_7 1_555 1_555
C21_7 N4_7 1_555 1_555
H14_7 C21_7 1_555 1_555
S2_6 C22_6 1_555 1_555
N6_6 Co3_2 1_555 1_555
N7_5 Co3_2 1_555 1_555
C22_6 N6_6 1_555 1_555
C5_6 C6_6 1_555 1_555
C10_7 C11_7 1_555 1_555
C15_6 C16_6 1_555 1_555
C20_7 C21_7 1_555 1_555
N5_3 C14_6 1_555 1_555
C13_7 C12_7 1_555 1_555
C14_6 C13_7 1_555 1_555
H8_6 C14_6 1_555 1_555
C15_7 N5_3 1_555 1_555
H9_7 C15_7 1_555 1_555
C16_7 C12_7 1_555 1_555
Co3_3 N5_3 1_555 1_555
C15_7 C16_7 1_555 1_555
N9_5 C38_5 1_555 1_555
N10_5 C35_7 1_555 1_555
C31_5 C30_5 1_555 1_555
H20_5 C31_5 1_555 1_555
C33_6 C32_5 1_555 1_555
C34_6 C33_6 1_555 1_555
H21_6 C34_6 1_555 1_555
C35_7 C34_6 1_555 1_555
H22_7 C35_7 1_555 1_555
C36_6 N10_5 1_555 1_555
H23_6 C36_6 1_555 1_555
C37_6 C33_6 1_555 1_555
C38_5 C30_5 1_555 1_555
C39_5 C38_5 1_555 1_555
H25_5 C39_5 1_555 1_555
C40_5 C39_5 1_555 1_555
H26_5 C40_5 1_555 1_555
C41_5 C40_5 1_555 1_555
H27_5 C41_5 1_555 1_555
C42_5 N9_5 1_555 1_555
H28_5 C42_5 1_555 1_555
Co2_3 N10_5 1_555 1_555
C31_5 C32_5 1_555 1_555
C36_6 C37_6 1_555 1_555
C41_5 C42_5 1_555 1_555
Co2_3 N1_6 1_555 1_555
S1_6 C1_6 1_555 1_555
N1_6 C1_6 1_555 1_555
N2_7 Co2_3 1_555 1_555
S2_7 C22_7 1_555 1_555
N6_7 Co2_3 1_555 1_555
N7_6 Co2_3 1_555 1_555
N8_5 C28_5 1_555 1_555
N9_6 C38_6 1_555 1_555
N10_6 C35_8 1_555 1_555
C22_7 N6_7 1_555 1_555
C23_6 N7_6 1_555 1_555
H15_7 C23_6 1_555 1_555
C24_6 C23_6 1_555 1_555
H16_6 C24_6 1_555 1_555
C25_5 C24_6 1_555 1_555
C26_5 C25_5 1_555 1_555
H17_5 C26_5 1_555 1_555
C27_5 N7_6 1_555 1_555
H18_6 C27_5 1_555 1_555
C28_5 C25_5 1_555 1_555
C29_5 C28_5 1_555 1_555
H19_5 C29_5 1_555 1_555
C30_6 C29_5 1_555 1_555
C31_6 C30_6 1_555 1_555
H20_6 C31_6 1_555 1_555
C32_6 N8_5 1_555 1_555
C33_7 C32_6 1_555 1_555
C34_7 C33_7 1_555 1_555
H21_7 C34_7 1_555 1_555
C35_8 C34_7 1_555 1_555
H22_8 C35_8 1_555 1_555
C36_7 N10_6 1_555 1_555
H23_7 C36_7 1_555 1_555
C37_7 C33_7 1_555 1_555
H24_6 C37_7 1_555 1_555
C38_6 C30_6 1_555 1_555
C39_6 C38_6 1_555 1_555
H25_6 C39_6 1_555 1_555
C40_6 C39_6 1_555 1_555
H26_6 C40_6 1_555 1_555
C41_6 C40_6 1_555 1_555
H27_6 C41_6 1_555 1_555
C42_6 N9_6 1_555 1_555
H28_6 C42_6 1_555 1_555
Co3_3 N10_6 1_555 1_555
N11_5 Co2_3 1_555 1_555
C26_5 C27_5 1_555 1_555
C31_6 C32_6 1_555 1_555
C36_7 C37_7 1_555 1_555
C41_6 C42_6 1_555 1_555
Co3_3 N1_7 1_555 1_555
S1_7 C1_7 1_555 1_555
N1_7 C1_7 1_555 1_555
N2_8 Co3_3 1_555 1_555
N3_7 C7_7 1_555 1_555
N4_8 C17_8 1_555 1_555
C2_6 N2_8 1_555 1_555
H1_7 C2_6 1_555 1_555
C3_6 C2_6 1_555 1_555
H2_6 C3_6 1_555 1_555
C4_7 C3_6 1_555 1_555
C5_7 C4_7 1_555 1_555
H3_7 C5_7 1_555 1_555
C6_7 N2_8 1_555 1_555
H4_8 C6_7 1_555 1_555
C7_7 C4_7 1_555 1_555
C8_7 C7_7 1_555 1_555
H5_7 C8_7 1_555 1_555
C9_8 C8_7 1_555 1_555
C10_8 C9_8 1_555 1_555
H6_8 C10_8 1_555 1_555
C11_8 N3_7 1_555 1_555
C12_8 C11_8 1_555 1_555
C17_8 C9_8 1_555 1_555
C18_8 C17_8 1_555 1_555
H11_8 C18_8 1_555 1_555
C19_8 C18_8 1_555 1_555
H12_8 C19_8 1_555 1_555
C20_8 C19_8 1_555 1_555
H13_8 C20_8 1_555 1_555
C21_8 N4_8 1_555 1_555
H14_8 C21_8 1_555 1_555
S2_8 C22_8 1_555 1_555
N6_8 Co3_3 1_555 1_555
N7_7 Co3_3 1_555 1_555
C22_8 N6_8 1_555 1_555
C5_7 C6_7 1_555 1_555
C10_8 C11_8 1_555 1_555
C20_8 C21_8 1_555 1_555
N11_5 C14_7 1_555 1_555
C14_7 C13_8 1_555 1_555
H8_7 C14_7 1_555 1_555
C15_8 N11_5 1_555 1_555
H9_8 C15_8 1_555 1_555
C15_8 C16_8 1_555 1_555
Co1_4 N1_8 1_555 1_555
S1_8 C1_8 1_555 1_555
N1_8 C1_8 1_555 1_555
H1_8 C2_7 1_555 1_555
C3_7 C2_7 1_555 1_555
H2_7 C3_7 1_555 1_555
N7_8 Co1_4 1_555 1_555
N8_6 C28_6 1_555 1_555
C26_6 C25_6 1_555 1_555
H17_6 C26_6 1_555 1_555
C27_6 N7_8 1_555 1_555
H18_8 C27_6 1_555 1_555
C28_6 C25_6 1_555 1_555
C29_6 C28_6 1_555 1_555
H19_6 C29_6 1_555 1_555
N12_2 Co1_4 1_555 1_555
C26_6 C27_6 1_555 1_555
H8_8 C14_8 1_555 1_555
N8_7 C28_7 1_555 1_555
N9_7 C38_7 1_555 1_555
C24_7 C23_7 1_555 1_555
H16_7 C24_7 1_555 1_555
C25_7 C24_7 1_555 1_555
C26_7 C25_7 1_555 1_555
H17_7 C26_7 1_555 1_555
C28_7 C25_7 1_555 1_555
C29_7 C28_7 1_555 1_555
H19_7 C29_7 1_555 1_555
C30_7 C29_7 1_555 1_555
C31_7 C30_7 1_555 1_555
H20_7 C31_7 1_555 1_555
C32_7 N8_7 1_555 1_555
C33_8 C32_7 1_555 1_555
C34_8 C33_8 1_555 1_555
C36_8 N12_2 1_555 1_555
H23_8 C36_8 1_555 1_555
C37_8 C33_8 1_555 1_555
H24_7 C37_8 1_555 1_555
C38_7 C30_7 1_555 1_555
C39_7 C38_7 1_555 1_555
H25_7 C39_7 1_555 1_555
C40_7 C39_7 1_555 1_555
H26_7 C40_7 1_555 1_555
C41_7 C40_7 1_555 1_555
H27_7 C41_7 1_555 1_555
C42_7 N9_7 1_555 1_555
H28_7 C42_7 1_555 1_555
C26_7 C27_7 1_555 1_555
C31_7 C32_7 1_555 1_555
C36_8 C37_8 1_555 1_555
C41_7 C42_7 1_555 1_555
N9_8 C38_8 1_555 1_555
C31_8 C30_8 1_555 1_555
H20_8 C31_8 1_555 1_555
C38_8 C30_8 1_555 1_555
C39_8 C38_8 1_555 1_555
H25_8 C39_8 1_555 1_555
C40_8 C39_8 1_555 1_555
H26_8 C40_8 1_555 1_555
C41_8 C40_8 1_555 1_555
H27_8 C41_8 1_555 1_555
C42_8 N9_8 1_555 1_555
H28_8 C42_8 1_555 1_555
C31_8 C32_8 1_555 1_555
C41_8 C42_8 1_555 1_555
Co1_5 N1_9 1_555 1_555
S1_9 C1_9 1_555 1_555
N1_9 C1_9 1_555 1_555
N2_9 Co1_5 1_555 1_555
N3_8 C7_8 1_555 1_555
C2_8 N2_9 1_555 1_555
H1_9 C2_8 1_555 1_555
C3_8 C2_8 1_555 1_555
H2_8 C3_8 1_555 1_555
C4_8 C3_8 1_555 1_555
C5_8 C4_8 1_555 1_555
H3_8 C5_8 1_555 1_555
C6_8 N2_9 1_555 1_555
H4_9 C6_8 1_555 1_555
C7_8 C4_8 1_555 1_555
C8_8 C7_8 1_555 1_555
H5_8 C8_8 1_555 1_555
S2_9 C22_9 1_555 1_555
N6_9 Co1_5 1_555 1_555
N7_9 Co1_5 1_555 1_555
N8_8 C28_8 1_555 1_555
C22_9 N6_9 1_555 1_555
C23_8 N7_9 1_555 1_555
H15_9 C23_8 1_555 1_555
C24_8 C23_8 1_555 1_555
H16_8 C24_8 1_555 1_555
C25_8 C24_8 1_555 1_555
C26_8 C25_8 1_555 1_555
H17_8 C26_8 1_555 1_555
C27_8 N7_9 1_555 1_555
H18_9 C27_8 1_555 1_555
C28_8 C25_8 1_555 1_555
C29_8 C28_8 1_555 1_555
H19_8 C29_8 1_555 1_555
N11_6 Co1_5 1_555 1_555
N12_3 Co1_5 1_555 1_555
C5_8 C6_8 1_555 1_555
C26_8 C27_8 1_555 1_555
N3_9 C7_9 1_555 1_555
N4_9 C17_9 1_555 1_555
N11_6 C14_9 1_555 1_555
C3_9 C2_9 1_555 1_555
H2_9 C3_9 1_555 1_555
C4_9 C3_9 1_555 1_555
C5_9 C4_9 1_555 1_555
H3_9 C5_9 1_555 1_555
C7_9 C4_9 1_555 1_555
C8_9 C7_9 1_555 1_555
H5_9 C8_9 1_555 1_555
C9_9 C8_9 1_555 1_555
C10_9 C9_9 1_555 1_555
H6_9 C10_9 1_555 1_555
C11_9 N3_9 1_555 1_555
C12_9 C11_9 1_555 1_555
C13_9 C12_9 1_555 1_555
H7_9 C13_9 1_555 1_555
C14_9 C13_9 1_555 1_555
H8_9 C14_9 1_555 1_555
C15_9 N11_6 1_555 1_555
H9_9 C15_9 1_555 1_555
C16_9 C12_9 1_555 1_555
H10_9 C16_9 1_555 1_555
C17_9 C9_9 1_555 1_555
C18_9 C17_9 1_555 1_555
H11_9 C18_9 1_555 1_555
C19_9 C18_9 1_555 1_555
H12_9 C19_9 1_555 1_555
C20_9 C19_9 1_555 1_555
H13_9 C20_9 1_555 1_555
C21_9 N4_9 1_555 1_555
H14_9 C21_9 1_555 1_555
C5_9 C6_9 1_555 1_555
C10_9 C11_9 1_555 1_555
C15_9 C16_9 1_555 1_555
C20_9 C21_9 1_555 1_555
N8_9 C28_9 1_555 1_555
N9_9 C38_9 1_555 1_555
N12_3 C35_9 1_555 1_555
C24_9 C23_9 1_555 1_555
H16_9 C24_9 1_555 1_555
C25_9 C24_9 1_555 1_555
C26_9 C25_9 1_555 1_555
H17_9 C26_9 1_555 1_555
C28_9 C25_9 1_555 1_555
C29_9 C28_9 1_555 1_555
H19_9 C29_9 1_555 1_555
C30_9 C29_9 1_555 1_555
C31_9 C30_9 1_555 1_555
H20_9 C31_9 1_555 1_555
C32_9 N8_9 1_555 1_555
C33_9 C32_9 1_555 1_555
C34_9 C33_9 1_555 1_555
H21_9 C34_9 1_555 1_555
C35_9 C34_9 1_555 1_555
H22_9 C35_9 1_555 1_555
C36_9 N12_3 1_555 1_555
H23_9 C36_9 1_555 1_555
C37_9 C33_9 1_555 1_555
H24_9 C37_9 1_555 1_555
C38_9 C30_9 1_555 1_555
C39_9 C38_9 1_555 1_555
H25_9 C39_9 1_555 1_555
C40_9 C39_9 1_555 1_555
H26_9 C40_9 1_555 1_555
C41_9 C40_9 1_555 1_555
H27_9 C41_9 1_555 1_555
C42_9 N9_9 1_555 1_555
H28_9 C42_9 1_555 1_555
C26_9 C27_9 1_555 1_555
C31_9 C32_9 1_555 1_555
C36_9 C37_9 1_555 1_555
C41_9 C42_9 1_555 1_555

#END
