
###############################################################################
#
# This file contains modified crystal structure data generated from the
# MOF subset of the Cambridge Structural Database (CSD) v543 
# hosted by the Cambridge Crystallographic Data Centre (CCDC).
#
# This work is licensed under the Creative Commons
# Attribution-NonCommercial-ShareAlike 4.0 International License.
# To view a copy of this license, visit
# http://creativecommons.org/licenses/by-nc-sa/4.0/
# or send a letter to
# Creative Commons, PO Box 1866, Mountain View, CA 94042, USA.
#
# CIF created using the CSD Python API on 29 September 2022
# The structure has been converted into the P1 space group
# The structure has a 3D framework
# The original CSD entry XUVQOW is in the orthorhombic crystal system
# The original CSD entry XUVQOW is in a Sohncke space group
# The framework has been calculated to contain at least 10.0% void space
# The void calculation uses a probe of radius 1.32A, grid spacing 0.4
# The framework is charged, counterions have been retained in the structure
#
###############################################################################

data_XUVQOW
_chemical_formula_moiety         '(C240 H232 Cd16 N16 O112 2+)n'
_symmetry_cell_setting           triclinic
_symmetry_space_group_name_H-M   'P 1'
_symmetry_Int_Tables_number      1
_space_group_name_Hall           'P 1'
loop_
_symmetry_equiv_pos_site_id
_symmetry_equiv_pos_as_xyz
1 x,y,z
_cell_length_a                   18.633(5)
_cell_length_b                   20.399(5)
_cell_length_c                   20.852(5)
_cell_angle_alpha                90
_cell_angle_beta                 90
_cell_angle_gamma                90
_cell_volume                     7925.73
loop_
_atom_site_label
_atom_site_type_symbol
_atom_site_fract_x
_atom_site_fract_y
_atom_site_fract_z
O3 O 0.16496(18) 0.49108(17) 0.11468(19)
O4 O 0.0662(2) 0.43427(18) 0.1160(2)
O19 O 0.1905(3) 0.6332(4) 0.1872(3)
O23 O 0.2000(2) 0.6276(2) 0.0843(2)
C12 C 0.0973(3) 0.4877(2) 0.1143(3)
C36 C 0.0391(3) 0.6648(2) 0.1350(2)
H24 H 0.0589 0.7051 0.1461
C37 C 0.0838(3) 0.6107(3) 0.1286(2)
C38 C 0.0543(3) 0.5497(2) 0.1174(3)
C48 C 0.1632(3) 0.6228(3) 0.1353(3)
Cd6 Cd 0.172249(18) 0.371960(15) 0.113464(16)
Cd9 Cd 0.31149(2) 0.663289(17) 0.135373(17)
Cd11 Cd 0.244617(19) 0.536624(17) 0.038298(17)
Cd2 Cd 0.68851(2) 0.163289(17) 0.364627(17)
Cd3 Cd 0.755383(19) 0.036624(17) 0.461702(17)
Cd4 Cd 0.19579(2) 0.08593(2) 0.11856(2)
O1 O 0.67677(18) 0.04346(17) 0.37290(16)
O2 O 0.5766(2) 0.09896(19) 0.3707(3)
O15 O 0.3069(3) 0.0586(2) 0.1960(2)
O24 O 0.2055(4) 0.1745(3) 0.1895(3)
H3 H 0.2554 0.1842 0.1964
H4 H 0.1820 0.2125 0.1723
O25 O 0.7410(4) 0.2640(3) 0.3727(5)
O26 O 0.2000(3) 0.0185(2) 0.2003(2)
O27 O 0.0761(3) 0.0986(3) 0.1278(4)
O28 O 0.8273(3) 0.0021(2) 0.5420(2)
H5 H 0.8457 0.0394 0.5648
O29 O 0.1995(4) 0.1656(3) 0.0457(3)
H7 H 0.1961 0.1468 0.0035
H8 H 0.1601 0.1950 0.0525
H10 H 0.4727 0.0264 0.3559
C6 C 0.6079(3) 0.0465(2) 0.3755(2)
C44 C 0.2615(3) 0.0230(3) 0.2214(3)
C49 C 0.0326(6) 0.0608(7) 0.1507(6)
C50 C 0.0045(9) 0.0436(10) 0.0423(5)
H25 H 0.0434 0.0744 0.0402
H27 H 0.0134 0.0081 0.0132
N2 N 0.8415(7) 0.3261(7) 0.3655(11)
C52 C 0.7891(8) 0.2905(8) 0.4006(10)
C53 C 0.8109(13) 0.2889(10) 0.4693(10)
H31 H 0.7775 0.2626 0.4931
H32 H 0.8112 0.3327 0.4861
H33 H 0.8581 0.2703 0.4729
C54 C 0.8945(9) 0.3660(8) 0.3955(13)
H34 H 0.9081 0.3468 0.4357
H35 H 0.8752 0.4090 0.4027
H36 H 0.9358 0.3691 0.3681
C55 C 0.8250(15) 0.3482(13) 0.3017(12)
H37 H 0.8653 0.3719 0.2847
H38 H 0.7838 0.3764 0.3030
H39 H 0.8150 0.3111 0.2749
C56 C 0.0224(8) 0.0340(11) 0.2158(6)
H40 H 0.0482 0.0604 0.2462
O32 O 0.6949(3) 0.0979(2) 0.5278(2)
O33 O 0.6547(3) 0.1814(2) 0.4673(2)
O34 O 0.1790(3) 0.0061(2) 0.0392(3)
O35 O 0.2895(3) 0.0366(2) 0.0491(2)
O36 O 0.6743(3) 0.1424(3) 0.2443(2)
O37 O 0.8095(3) 0.1332(4) 0.3128(3)
O40 O 0.6196(3) 0.2225(2) 0.2926(2)
O41 O 0.8000(2) 0.1276(2) 0.4157(2)
Cd1 Cd 0.827751(18) 0.871960(15) 0.386536(16)
O5 O 0.8294(3) 0.89327(19) 0.2635(2)
O6 O 0.8550(2) 0.7987(2) 0.30693(18)
O7 O 0.70915(19) 0.8770(2) 0.3734(2)
O8 O 0.7007(2) 0.93835(18) 0.46129(19)
O9 O 0.8051(3) 0.9021(2) 0.0278(2)
O13 O 0.2053(3) 0.8429(3) 0.4476(3)
O14 O 0.1262(3) 0.8945(4) 0.3867(4)
H1 H 0.0970 0.8739 0.4107
O16 O 0.3257(3) 0.6424(3) 0.2557(2)
O17 O 0.6979(3) 0.6836(3) 0.2047(2)
O18 O 0.6135(2) 0.6389(3) 0.1429(3)
H2 H 0.5860 0.6604 0.1677
O20 O 0.3596(3) 0.71309(19) 0.54672(18)
O21 O 0.3527(3) 0.6212(2) 0.4960(2)
O22 O 0.3804(3) 0.7225(2) 0.2074(2)
H6 H 0.8664 0.9774 0.5243
C1 C 0.5542(3) 0.8683(2) 0.3968(2)
H9 H 0.5748 0.8283 0.4076
C2 C 0.5670(3) 0.9839(2) 0.3811(2)
C3 C 0.4933(3) 0.9863(2) 0.3661(3)
C4 C 0.4502(3) 0.9300(3) 0.3662(2)
C5 C 0.4812(3) 0.8704(2) 0.3821(2)
C7 C 0.4413(2) 0.8070(2) 0.3811(2)
C8 C 0.4209(3) 0.7810(2) 0.3224(2)
H11 H 0.4316 0.8031 0.2846
C9 C 0.3836(3) 0.7202(3) 0.3204(3)
C10 C 0.3677(3) 0.6876(2) 0.3769(3)
H12 H 0.3442 0.6474 0.3757
C11 C 0.4236(3) 0.7741(3) 0.4379(2)
H13 H 0.4365 0.7918 0.4773
C13 C 0.8501(3) 0.8345(3) 0.2586(3)
C14 C 0.8668(3) 0.8067(2) 0.1957(3)
C15 C 0.8431(3) 0.8377(3) 0.1393(2)
H14 H 0.8164 0.8761 0.1422
C16 C 0.9078(3) 0.7497(3) 0.1900(2)
H15 H 0.9257 0.7296 0.2268
C17 C 0.9222(2) 0.7222(2) 0.1297(2)
C18 C 0.8975(3) 0.7535(2) 0.0754(3)
H16 H 0.9069 0.7352 0.0354
C19 C 0.9657(3) 0.6601(2) 0.1250(2)
C20 C 0.9355(3) 0.5991(2) 0.1090(3)
C21 C 0.9794(3) 0.5455(2) 0.1076(3)
H17 H 0.9591 0.5046 0.0997
C22 C 0.8590(3) 0.8114(3) 0.0790(3)
C23 C 0.8346(3) 0.8473(3) 0.0201(3)
C24 C 0.8047(3) 0.6207(2) 0.1325(3)
H18 H 0.8182 0.6476 0.1665
C25 C 0.7324(3) 0.6118(2) 0.1194(3)
C26 C 0.7121(3) 0.5725(3) 0.0676(3)
H19 H 0.6638 0.5678 0.0577
C27 C 0.7634(3) 0.5404(3) 0.0307(3)
C28 C 0.8357(3) 0.5507(2) 0.0446(3)
H20 H 0.8703 0.5307 0.0191
C29 C 0.3727(3) 0.9372(2) 0.3484(2)
C30 C 0.3197(3) 0.9063(2) 0.3846(3)
H21 H 0.3318 0.8818 0.4206
C31 C 0.2473(3) 0.9128(3) 0.3656(3)
C32 C 0.2295(3) 0.9506(3) 0.3135(3)
H22 H 0.1816 0.9554 0.3018
C33 C 0.2822(3) 0.9814(3) 0.2785(3)
C34 C 0.6764(3) 0.9140(2) 0.4118(3)
C35 C 0.3536(3) 0.9748(3) 0.2969(3)
H23 H 0.3890 0.9964 0.2737
C39 C 0.8577(3) 0.5904(3) 0.0959(3)
C41 C 0.1909(3) 0.8788(4) 0.4040(3)
C42 C 0.5967(2) 0.9236(2) 0.3959(2)
C43 C 0.3867(3) 0.7149(2) 0.4354(2)
C45 C 0.3624(3) 0.6926(3) 0.2569(3)
C46 C 0.3650(3) 0.6812(3) 0.4957(3)
C47 C 0.6784(3) 0.6473(3) 0.1596(3)
H41 H 0.0400 0.9898 0.2173
Cd5 Cd 0.327751(18) 0.628040(15) 0.613464(16)
O30 O 0.83504(18) 0.99108(17) 0.38532(19)
O31 O 0.9338(2) 0.93427(18) 0.3840(2)
O38 O 0.8596(3) 0.78691(19) 0.45328(18)
O39 O 0.8527(3) 0.8788(2) 0.5040(2)
O10 O 0.8453(3) 0.8186(2) 0.9673(2)
O11 O 0.6790(3) 0.4939(2) 0.9608(3)
O12 O 0.7895(3) 0.4634(2) 0.9509(2)
C40 C 0.7427(3) 0.4962(3) 0.9764(3)
Cd7 Cd 0.81149(2) 0.836711(17) 0.864627(17)
Cd10 Cd 0.744617(19) 0.963376(17) 0.961702(17)
Cd12 Cd 0.69579(2) 0.41407(2) 0.88144(2)
O20_2 O 0.1404(3) 0.28691(19) 0.04672(18)
O13_2 O 0.2947(3) 0.1571(3) 0.9476(3)
O14_2 O 0.3738(3) 0.1055(4) 0.8867(4)
H1_2 H 0.4030 0.1261 0.9107
O16_2 O 0.1743(3) 0.3576(3) 0.7557(2)
O21_2 O 0.1473(3) 0.3788(2) 0.9960(2)
O22_2 O 0.1196(3) 0.2775(2) 0.7074(2)
C3_2 C 0.0067(3) 0.0137(2) 0.8661(3)
C4_2 C 0.0498(3) 0.0700(3) 0.8662(2)
C5_2 C 0.0188(3) 0.1296(2) 0.8821(2)
C7_2 C 0.0587(2) 0.1930(2) 0.8811(2)
C8_2 C 0.0791(3) 0.2190(2) 0.8224(2)
H11_2 H 0.0684 0.1969 0.7846
C9_2 C 0.1164(3) 0.2798(3) 0.8204(3)
C10_2 C 0.1323(3) 0.3124(2) 0.8769(3)
H12_2 H 0.1558 0.3526 0.8757
C11_2 C 0.0764(3) 0.2259(3) 0.9379(2)
H13_2 H 0.0635 0.2082 0.9773
C29_2 C 0.1273(3) 0.0628(2) 0.8484(2)
C30_2 C 0.1803(3) 0.0937(2) 0.8846(3)
H21_2 H 0.1682 0.1182 0.9206
C31_2 C 0.2527(3) 0.0872(3) 0.8656(3)
C32_2 C 0.2705(3) 0.0494(3) 0.8135(3)
H22_2 H 0.3184 0.0446 0.8018
C33_2 C 0.2178(3) 0.0186(3) 0.7785(3)
C35_2 C 0.1464(3) 0.0252(3) 0.7969(3)
H23_2 H 0.1110 0.0036 0.7737
C41_2 C 0.3091(3) 0.1212(4) 0.9040(3)
C43_2 C 0.1133(3) 0.2851(2) 0.9354(2)
C45_2 C 0.1376(3) 0.3074(3) 0.7569(3)
C46_2 C 0.1350(3) 0.3188(3) 0.9957(3)
C51 C 0.5508(11) 0.0287(10) 0.6348(11)
H28 H 0.5396 0.0346 0.6794
H29 H 0.5463 0.0699 0.6129
H30 H 0.5990 0.0128 0.6306
H41_2 H 0.4600 0.0102 0.7173
Cd8 Cd 0.18851(2) 0.336711(17) 0.635373(17)
H6_2 H 0.6336 0.0226 0.0243
O39_2 O 0.6473(3) 0.1212(2) 0.0040(2)
Cd1_2 Cd 0.672249(18) 0.128040(15) 0.886536(16)
O3_2 O 0.33504(18) 0.50892(17) 0.61468(19)
O4_2 O 0.4338(2) 0.56573(18) 0.6160(2)
O5_2 O 0.6706(3) 0.10673(19) 0.7635(2)
O6_2 O 0.6450(2) 0.2013(2) 0.80693(18)
O7_2 O 0.79085(19) 0.1230(2) 0.8734(2)
O8_2 O 0.7993(2) 0.06165(18) 0.96129(19)
O11_2 O 0.8210(3) 0.5061(2) 0.4608(3)
O12_2 O 0.7105(3) 0.5366(2) 0.4509(2)
O17_2 O 0.8021(3) 0.3164(3) 0.7047(2)
O18_2 O 0.8865(2) 0.3611(3) 0.6429(3)
H2_2 H 0.9140 0.3396 0.6677
O19_2 O 0.3095(3) 0.3668(4) 0.6872(3)
O23_2 O 0.3000(2) 0.3724(2) 0.5843(2)
C1_2 C 0.9458(3) 0.1317(2) 0.8968(2)
H9_2 H 0.9252 0.1717 0.9076
C2_2 C 0.9330(3) 0.0161(2) 0.8811(2)
C12_2 C 0.4027(3) 0.5123(2) 0.6143(3)
C13_2 C 0.6499(3) 0.1655(3) 0.7586(3)
C14_2 C 0.6332(3) 0.1933(2) 0.6957(3)
C15_2 C 0.6569(3) 0.1623(3) 0.6393(2)
H14_2 H 0.6836 0.1239 0.6422
C16_2 C 0.5922(3) 0.2503(3) 0.6900(2)
H15_2 H 0.5743 0.2704 0.7268
C17_2 C 0.5778(2) 0.2778(2) 0.6297(2)
C18_2 C 0.6025(3) 0.2465(2) 0.5754(3)
H16_2 H 0.5931 0.2648 0.5354
C19_2 C 0.5343(3) 0.3399(2) 0.6250(2)
C20_2 C 0.5645(3) 0.4009(2) 0.6090(3)
C21_2 C 0.5206(3) 0.4545(2) 0.6076(3)
H17_2 H 0.5409 0.4954 0.5997
C22_2 C 0.6410(3) 0.1886(3) 0.5790(3)
C23_2 C 0.6654(3) 0.1527(3) 0.5201(3)
C24_2 C 0.6953(3) 0.3793(2) 0.6325(3)
H18_2 H 0.6818 0.3524 0.6665
C25_2 C 0.7676(3) 0.3882(2) 0.6194(3)
C26_2 C 0.7879(3) 0.4275(3) 0.5676(3)
H19_2 H 0.8362 0.4322 0.5577
C27_2 C 0.7366(3) 0.4596(3) 0.5307(3)
C28_2 C 0.6643(3) 0.4493(2) 0.5446(3)
H20_2 H 0.6297 0.4693 0.5191
C34_2 C 0.8236(3) 0.0860(2) 0.9118(3)
C36_2 C 0.4609(3) 0.3352(2) 0.6350(2)
H24_2 H 0.4411 0.2949 0.6461
C37_2 C 0.4162(3) 0.3893(3) 0.6286(2)
C38_2 C 0.4457(3) 0.4503(2) 0.6174(3)
C39_2 C 0.6423(3) 0.4096(3) 0.5959(3)
C40_2 C 0.7573(3) 0.5038(3) 0.4764(3)
C42_2 C 0.9033(2) 0.0764(2) 0.8959(2)
C47_2 C 0.8216(3) 0.3527(3) 0.6596(3)
C48_2 C 0.3368(3) 0.3772(3) 0.6353(3)
Cd11_2 Cd 0.255383(19) 0.463376(17) 0.538298(17)
Cd12_2 Cd 0.80421(2) 0.58593(2) 0.38144(2)
O30_2 O 0.66496(18) 0.00892(17) 0.88532(19)
O31_2 O 0.5662(2) 0.06573(18) 0.8840(2)
O38_2 O 0.6404(3) 0.21309(19) 0.95328(18)
O28_2 O 0.6727(3) 0.9979(2) 0.0420(2)
H5_2 H 0.6543 0.9606 0.0648
O1_2 O 0.82323(18) 0.95654(17) 0.87290(16)
O2_2 O 0.9234(2) 0.90104(19) 0.8707(3)
O25_2 O 0.7590(4) 0.7360(3) 0.8727(5)
C6_2 C 0.8921(3) 0.9535(2) 0.8755(2)
N2_2 N 0.6585(7) 0.6739(7) 0.8655(11)
C52_2 C 0.7109(8) 0.7095(8) 0.9006(10)
C53_2 C 0.6891(13) 0.7111(10) 0.9693(10)
H31_2 H 0.7225 0.7374 0.9931
H32_2 H 0.6888 0.6673 0.9861
H33_2 H 0.6419 0.7297 0.9729
C54_2 C 0.6055(9) 0.6340(8) 0.8955(13)
H34_2 H 0.5919 0.6532 0.9357
H35_2 H 0.6248 0.5910 0.9027
H36_2 H 0.5642 0.6309 0.8681
C55_2 C 0.6750(15) 0.6518(13) 0.8017(12)
H37_2 H 0.6347 0.6281 0.7847
H38_2 H 0.7162 0.6236 0.8030
H39_2 H 0.6850 0.6889 0.7749
O36_2 O 0.8257(3) 0.8576(3) 0.7443(2)
O37_2 O 0.6905(3) 0.8668(4) 0.8128(3)
O40_2 O 0.8804(3) 0.7775(2) 0.7926(2)
O41_2 O 0.7000(2) 0.8724(2) 0.9157(2)
C40_3 C 0.2427(3) 0.0038(3) 0.0236(3)
C12_3 C 0.5973(3) 0.0123(2) 0.8857(3)
O10_2 O 0.3453(3) 0.6814(2) 0.0327(2)
O1_3 O 0.17677(18) 0.45654(17) 0.62710(16)
O2_3 O 0.0766(2) 0.40104(19) 0.6293(3)
O5_3 O 0.3294(3) 0.60673(19) 0.7365(2)
O6_3 O 0.3550(2) 0.7013(2) 0.69307(18)
O7_3 O 0.20915(19) 0.6230(2) 0.6266(2)
O8_3 O 0.2007(2) 0.56165(18) 0.53871(19)
O9_2 O 0.3051(3) 0.5979(2) 0.9722(2)
O17_3 O 0.1979(3) 0.8164(3) 0.7953(2)
O18_3 O 0.1135(2) 0.8611(3) 0.8571(3)
H2_3 H 0.0860 0.8396 0.8323
O25_3 O 0.2410(4) 0.2360(3) 0.6273(5)
O28_3 O 0.3273(3) 0.4979(2) 0.4580(2)
H5_3 H 0.3457 0.4606 0.4352
H6_3 H 0.3664 0.5226 0.4757
C1_3 C 0.0542(3) 0.6317(2) 0.6032(2)
H9_3 H 0.0748 0.6717 0.5924
C2_3 C 0.0670(3) 0.5161(2) 0.6189(2)
C6_3 C 0.1079(3) 0.4535(2) 0.6245(2)
C13_3 C 0.3501(3) 0.6655(3) 0.7414(3)
C14_3 C 0.3668(3) 0.6933(2) 0.8043(3)
C15_3 C 0.3431(3) 0.6623(3) 0.8607(2)
H14_3 H 0.3164 0.6239 0.8578
C16_3 C 0.4078(3) 0.7503(3) 0.8100(2)
H15_3 H 0.4257 0.7704 0.7732
C17_3 C 0.4222(2) 0.7778(2) 0.8703(2)
C18_3 C 0.3975(3) 0.7465(2) 0.9246(3)
H16_3 H 0.4069 0.7648 0.9646
C19_3 C 0.4657(3) 0.8399(2) 0.8750(2)
C20_3 C 0.4355(3) 0.9009(2) 0.8910(3)
C21_3 C 0.4794(3) 0.9545(2) 0.8924(3)
H17_3 H 0.4591 0.9954 0.9003
C22_3 C 0.3590(3) 0.6886(3) 0.9210(3)
C23_3 C 0.3346(3) 0.6527(3) 0.9799(3)
C24_3 C 0.3047(3) 0.8793(2) 0.8675(3)
H18_3 H 0.3182 0.8524 0.8335
C25_3 C 0.2324(3) 0.8882(2) 0.8806(3)
C26_3 C 0.2121(3) 0.9275(3) 0.9324(3)
H19_3 H 0.1638 0.9322 0.9423
C27_3 C 0.2634(3) 0.9596(3) 0.9693(3)
C28_3 C 0.3357(3) 0.9493(2) 0.9554(3)
H20_3 H 0.3703 0.9693 0.9809
C34_3 C 0.1764(3) 0.5860(2) 0.5882(3)
C36_3 C 0.5391(3) 0.8352(2) 0.8650(2)
H24_3 H 0.5589 0.7949 0.8539
C37_3 C 0.5838(3) 0.8893(3) 0.8714(2)
C38_3 C 0.5543(3) 0.9503(2) 0.8826(3)
C39_3 C 0.3577(3) 0.9096(3) 0.9041(3)
C42_3 C 0.0967(2) 0.5764(2) 0.6041(2)
C47_3 C 0.1784(3) 0.8527(3) 0.8404(3)
C48_3 C 0.6632(3) 0.8772(3) 0.8647(3)
N2_3 N 0.3415(7) 0.1739(7) 0.6345(11)
C52_3 C 0.2891(8) 0.2095(8) 0.5994(10)
C53_3 C 0.3109(13) 0.2111(10) 0.5307(10)
H31_3 H 0.2775 0.2374 0.5069
H32_3 H 0.3112 0.1673 0.5139
H33_3 H 0.3581 0.2297 0.5271
C54_3 C 0.3945(9) 0.1340(8) 0.6045(13)
H34_3 H 0.4081 0.1532 0.5643
H35_3 H 0.3752 0.0910 0.5973
H36_3 H 0.4358 0.1309 0.6319
C55_3 C 0.3250(15) 0.1518(13) 0.6983(12)
H37_3 H 0.3653 0.1281 0.7153
H38_3 H 0.2838 0.1236 0.6970
H39_3 H 0.3150 0.1889 0.7251
O32_2 O 0.1949(3) 0.4021(2) 0.4722(2)
O33_2 O 0.1547(3) 0.3186(2) 0.5327(2)
O13_3 O 0.7053(3) 0.6571(3) 0.5524(3)
O14_3 O 0.6262(3) 0.6055(4) 0.6133(4)
H1_3 H 0.5970 0.6261 0.5893
O15_2 O 0.8069(3) 0.4414(2) 0.8040(2)
O24_2 O 0.7055(4) 0.3255(3) 0.8105(3)
H3_2 H 0.7554 0.3158 0.8036
H4_2 H 0.6820 0.2875 0.8277
O26_2 O 0.7000(3) 0.4815(2) 0.7997(2)
O27_2 O 0.5761(3) 0.4014(3) 0.8722(4)
O29_2 O 0.6995(4) 0.3344(3) 0.9543(3)
H7_2 H 0.6961 0.3532 0.9965
H8_2 H 0.6601 0.3050 0.9475
C3_3 C 0.9933(3) 0.5137(2) 0.6339(3)
H10_2 H 0.9727 0.4736 0.6441
C4_3 C 0.9502(3) 0.5700(3) 0.6338(2)
C5_3 C 0.9812(3) 0.6296(2) 0.6179(2)
C7_3 C 0.9413(2) 0.6930(2) 0.6189(2)
C8_3 C 0.9209(3) 0.7190(2) 0.6776(2)
H11_3 H 0.9316 0.6969 0.7154
C9_3 C 0.8836(3) 0.7798(3) 0.6796(3)
C10_3 C 0.8677(3) 0.8124(2) 0.6231(3)
H12_3 H 0.8442 0.8526 0.6243
C11_3 C 0.9236(3) 0.7259(3) 0.5621(2)
H13_3 H 0.9365 0.7082 0.5227
C29_3 C 0.8727(3) 0.5628(2) 0.6516(2)
C30_3 C 0.8197(3) 0.5937(2) 0.6154(3)
H21_3 H 0.8318 0.6182 0.5794
C31_3 C 0.7473(3) 0.5872(3) 0.6344(3)
C32_3 C 0.7295(3) 0.5494(3) 0.6865(3)
H22_3 H 0.6816 0.5446 0.6982
C33_3 C 0.7822(3) 0.5186(3) 0.7215(3)
C35_3 C 0.8536(3) 0.5252(3) 0.7031(3)
H23_3 H 0.8890 0.5036 0.7263
C41_3 C 0.6909(3) 0.6212(4) 0.5960(3)
C43_3 C 0.8867(3) 0.7851(2) 0.5646(2)
C44_2 C 0.7615(3) 0.4770(3) 0.7786(3)
C45_3 C 0.8624(3) 0.8074(3) 0.7431(3)
C46_3 C 0.8650(3) 0.8188(3) 0.5043(3)
C49_2 C 0.5326(6) 0.4392(7) 0.8493(6)
N1 N 0.4986(8) 0.4817(8) 0.8932(6)
C50_2 C 0.5045(9) 0.4564(10) 0.9577(5)
H25_2 H 0.5434 0.4256 0.9598
H26 H 0.4605 0.4348 0.9693
H27_2 H 0.5134 0.4919 0.9868
C51_2 C 0.4492(11) 0.5287(10) 0.8652(11)
H28_2 H 0.4604 0.5346 0.8206
H29_2 H 0.4537 0.5699 0.8871
H30_2 H 0.4010 0.5128 0.8694
C56_2 C 0.5224(8) 0.4660(11) 0.7842(6)
H40_2 H 0.5482 0.4396 0.7538
H41_3 H 0.5400 0.5102 0.7827
H42 H 0.4722 0.4657 0.7736
O1_4 O 0.32323(18) 0.54346(17) 0.12710(16)
O2_4 O 0.4234(2) 0.59896(19) 0.1293(3)
O5_4 O 0.1706(3) 0.39327(19) 0.2365(2)
O6_4 O 0.1450(2) 0.2987(2) 0.19307(18)
O7_4 O 0.29085(19) 0.3770(2) 0.1266(2)
O8_4 O 0.2993(2) 0.43835(18) 0.03871(19)
O13_4 O 0.7947(3) 0.3429(3) 0.0524(3)
O14_4 O 0.8738(3) 0.3945(4) 0.1133(4)
H1_4 H 0.9030 0.3739 0.0893
O15_3 O 0.6931(3) 0.5586(2) 0.3040(2)
O17_4 O 0.3021(3) 0.1836(3) 0.2953(2)
O18_4 O 0.3865(2) 0.1389(3) 0.3571(3)
H2_4 H 0.4140 0.1604 0.3323
O24_3 O 0.7945(4) 0.6745(3) 0.3105(3)
H3_3 H 0.7446 0.6842 0.3036
H4_3 H 0.8180 0.7125 0.3277
O25_4 O 0.2590(4) 0.7640(3) 0.1273(5)
O26_3 O 0.8000(3) 0.5185(2) 0.2997(2)
O27_3 O 0.9239(3) 0.5986(3) 0.3722(4)
O29_3 O 0.8005(4) 0.6656(3) 0.4543(3)
H7_3 H 0.8039 0.6468 0.4965
H8_3 H 0.8399 0.6950 0.4475
C1_4 C 0.4458(3) 0.3683(2) 0.1032(2)
H9_4 H 0.4252 0.3283 0.0924
C2_4 C 0.4330(3) 0.4839(2) 0.1189(2)
C3_4 C 0.5067(3) 0.4863(2) 0.1339(3)
H10_3 H 0.5273 0.5264 0.1441
C4_4 C 0.5498(3) 0.4300(3) 0.1338(2)
C5_4 C 0.5188(3) 0.3704(2) 0.1179(2)
C6_4 C 0.3921(3) 0.5465(2) 0.1245(2)
C7_4 C 0.5587(2) 0.3070(2) 0.1189(2)
C8_4 C 0.5791(3) 0.2810(2) 0.1776(2)
H11_4 H 0.5684 0.3031 0.2154
C9_4 C 0.6164(3) 0.2202(3) 0.1796(3)
C10_4 C 0.6323(3) 0.1876(2) 0.1231(3)
H12_4 H 0.6558 0.1474 0.1243
C11_4 C 0.5764(3) 0.2741(3) 0.0621(2)
H13_4 H 0.5635 0.2918 0.0227
C13_4 C 0.1499(3) 0.3345(3) 0.2414(3)
C14_4 C 0.1332(3) 0.3067(2) 0.3043(3)
C15_4 C 0.1569(3) 0.3377(3) 0.3607(2)
H14_4 H 0.1836 0.3761 0.3578
C16_4 C 0.0922(3) 0.2497(3) 0.3100(2)
H15_4 H 0.0743 0.2296 0.2732
C17_4 C 0.0778(2) 0.2222(2) 0.3703(2)
C18_4 C 0.1025(3) 0.2535(2) 0.4246(3)
H16_4 H 0.0931 0.2352 0.4646
C19_4 C 0.0343(3) 0.1601(2) 0.3750(2)
C20_4 C 0.0645(3) 0.0991(2) 0.3910(3)
C21_4 C 0.0206(3) 0.0455(2) 0.3924(3)
H17_4 H 0.0409 0.0046 0.4003
C22_4 C 0.1410(3) 0.3114(3) 0.4210(3)
C23_4 C 0.1654(3) 0.3473(3) 0.4799(3)
C24_4 C 0.1953(3) 0.1207(2) 0.3675(3)
H18_4 H 0.1818 0.1476 0.3335
C25_4 C 0.2676(3) 0.1118(2) 0.3806(3)
C26_4 C 0.2879(3) 0.0725(3) 0.4324(3)
H19_4 H 0.3362 0.0678 0.4423
C27_4 C 0.2366(3) 0.0404(3) 0.4693(3)
C28_4 C 0.1643(3) 0.0507(2) 0.4554(3)
H20_4 H 0.1297 0.0307 0.4809
C29_4 C 0.6273(3) 0.4372(2) 0.1516(2)
C30_4 C 0.6803(3) 0.4063(2) 0.1154(3)
H21_4 H 0.6682 0.3818 0.0794
C31_4 C 0.7527(3) 0.4128(3) 0.1344(3)
C32_4 C 0.7705(3) 0.4506(3) 0.1865(3)
H22_4 H 0.8184 0.4554 0.1982
C33_4 C 0.7178(3) 0.4814(3) 0.2215(3)
C34_4 C 0.3236(3) 0.4140(2) 0.0882(3)
C35_4 C 0.6464(3) 0.4748(3) 0.2031(3)
H23_4 H 0.6110 0.4964 0.2263
C39_4 C 0.1423(3) 0.0904(3) 0.4041(3)
C41_4 C 0.8091(3) 0.3788(4) 0.0960(3)
C42_4 C 0.4033(2) 0.4236(2) 0.1041(2)
C43_4 C 0.6133(3) 0.2149(2) 0.0646(2)
C44_3 C 0.7385(3) 0.5230(3) 0.2786(3)
C45_4 C 0.6376(3) 0.1926(3) 0.2431(3)
C46_4 C 0.6350(3) 0.1812(3) 0.0043(3)
C47_4 C 0.3216(3) 0.1473(3) 0.3404(3)
C49_3 C 0.9674(6) 0.5608(7) 0.3493(6)
C50_3 C 0.9955(9) 0.5436(10) 0.4577(5)
H25_3 H 0.9566 0.5744 0.4598
H27_3 H 0.9866 0.5081 0.4868
N2_4 N 0.1585(7) 0.8261(7) 0.1345(11)
C52_4 C 0.2109(8) 0.7905(8) 0.0994(10)
C53_4 C 0.1891(13) 0.7889(10) 0.0307(10)
H31_4 H 0.2225 0.7626 0.0069
H32_4 H 0.1888 0.8327 0.0139
H33_4 H 0.1419 0.7703 0.0271
C54_4 C 0.1055(9) 0.8660(8) 0.1045(13)
H34_4 H 0.0919 0.8468 0.0643
H35_4 H 0.1248 0.9090 0.0973
H36_4 H 0.0642 0.8691 0.1319
C55_4 C 0.1750(15) 0.8482(13) 0.1983(12)
H37_4 H 0.1347 0.8719 0.2153
H38_4 H 0.2162 0.8764 0.1970
H39_4 H 0.1850 0.8111 0.2251
C56_3 C 0.9776(8) 0.5340(11) 0.2842(6)
H40_3 H 0.9518 0.5604 0.2538
H41_4 H 0.9600 0.4898 0.2827
O28_4 O 0.1727(3) 0.5021(2) 0.9580(2)
H5_4 H 0.1543 0.5394 0.9352
H6_4 H 0.1336 0.4774 0.9757
C36_4 C 0.9609(3) 0.1648(2) 0.3650(2)
H24_4 H 0.9411 0.2051 0.3539
C37_4 C 0.9162(3) 0.1107(3) 0.3714(2)
C38_4 C 0.9457(3) 0.0497(2) 0.3826(3)
C48_4 C 0.8368(3) 0.1228(3) 0.3647(3)
C12_4 C 0.9027(3) 0.9877(2) 0.3857(3)
N1_2 N 0.9986(8) 0.0183(8) 0.1068(6)
H26_2 H 0.9605 0.0652 0.0307
H42_2 H 0.9722 0.0343 0.2264
C51_3 C 0.9492(11) 0.9713(10) 0.1348(11)
H28_3 H 0.9604 0.9654 0.1794
H29_3 H 0.9537 0.9301 0.1129
H30_3 H 0.9010 0.9872 0.1306
Cd4_2 Cd 0.30421(2) 0.91407(2) 0.61856(2)
O15_4 O 0.1931(3) 0.9414(2) 0.6960(2)
O24_4 O 0.2945(4) 0.8255(3) 0.6895(3)
H3_4 H 0.2446 0.8158 0.6964
H4_4 H 0.3180 0.7875 0.6723
O26_4 O 0.3000(3) 0.9815(2) 0.7003(2)
O27_4 O 0.4239(3) 0.9014(3) 0.6278(4)
O29_4 O 0.3005(4) 0.8344(3) 0.5457(3)
H7_4 H 0.3039 0.8532 0.5035
H8_4 H 0.3399 0.8050 0.5525
H10_4 H 0.0273 0.9736 0.8559
C44_4 C 0.2385(3) 0.9770(3) 0.7214(3)
C49_4 C 0.4674(6) 0.9392(7) 0.6507(6)
N1_3 N 0.5014(8) 0.9817(8) 0.6068(6)
C50_4 C 0.4955(9) 0.9564(10) 0.5423(5)
H25_4 H 0.4566 0.9256 0.5402
H26_3 H 0.5395 0.9348 0.5307
H27_4 H 0.4866 0.9919 0.5132
C56_4 C 0.4776(8) 0.9660(11) 0.7158(6)
H40_4 H 0.4518 0.9396 0.7462
H42_3 H 0.5278 0.9657 0.7264
O34_2 O 0.3210(3) 0.9939(2) 0.5392(3)
O35_2 O 0.2105(3) 0.9634(2) 0.5491(2)
C40_4 C 0.2573(3) 0.9962(3) 0.5236(3)
N1_4 N 0.0014(8) 0.5183(8) 0.3932(6)
H26_4 H 0.0395 0.5652 0.4693
C51_4 C 0.0508(11) 0.4713(10) 0.3652(11)
H28_4 H 0.0396 0.4654 0.3206
H29_4 H 0.0463 0.4301 0.3871
H30_4 H 0.0990 0.4872 0.3694
H42_4 H 0.0278 0.5343 0.2736
H43 H 0.7352 0.0276 0.7689
C57 C 0.8282(6) 0.0283(6) 0.7294(5)
H45 H 0.8528 0.0439 0.7669
H46 H 0.8182 0.0646 0.7014
H50 H 0.7035 0.0037 0.6688
N3 N 0.7619(4) 0.9976(4) 0.7480(3)
H44 H 0.7723 0.9656 0.7762
H47 H 0.8579 0.9971 0.7074
C58 C 0.7185(9) 0.9697(6) 0.6977(8)
H48 H 0.6770 0.9491 0.7161
H49 H 0.7460 0.9377 0.6746
N3_2 N 0.7381(4) 0.0024(4) 0.2480(3)
H44_2 H 0.7277 0.0344 0.2762
H47_2 H 0.6421 0.0029 0.2074
C58_2 C 0.7815(9) 0.0303(6) 0.1977(8)
H48_2 H 0.8230 0.0509 0.2161
H49_2 H 0.7540 0.0623 0.1746
H43_2 H 0.7648 0.9724 0.2689
C57_2 C 0.6718(6) 0.9717(6) 0.2294(5)
H45_2 H 0.6472 0.9561 0.2669
H46_2 H 0.6818 0.9354 0.2014
H50_2 H 0.7965 0.9963 0.1688
N3_3 N 0.2619(4) 0.5024(4) 0.2520(3)
H43_3 H 0.2352 0.4724 0.2311
H44_3 H 0.2723 0.5344 0.2238
C57_3 C 0.3282(6) 0.4717(6) 0.2706(5)
H45_3 H 0.3528 0.4561 0.2331
H46_3 H 0.3182 0.4354 0.2986
H47_3 H 0.3579 0.5029 0.2926
C58_3 C 0.2185(9) 0.5303(6) 0.3023(8)
H48_3 H 0.1770 0.5509 0.2839
H49_3 H 0.2460 0.5623 0.3254
H50_3 H 0.2035 0.4963 0.3312
N3_4 N 0.2381(4) 0.4976(4) 0.7520(3)
H43_4 H 0.2648 0.5276 0.7311
H44_4 H 0.2277 0.4656 0.7238
C57_4 C 0.1718(6) 0.5283(6) 0.7706(5)
H45_4 H 0.1472 0.5439 0.7331
H46_4 H 0.1818 0.5646 0.7986
H47_4 H 0.1421 0.4971 0.7926
C58_4 C 0.2815(9) 0.4697(6) 0.8023(8)
H48_4 H 0.3230 0.4491 0.7839
H49_4 H 0.2540 0.4377 0.8254
H50_4 H 0.2965 0.5037 0.8312
N4 N 0.4068(5) 0.1075(5) 0.0970(7)
H51 H 0.4131 0.1041 0.0543
H52 H 0.3697 0.0816 0.1082
C59 C 0.3912(8) 0.1739(5) 0.1135(8)
H53 H 0.3448 0.1856 0.0972
H54 H 0.4269 0.2022 0.0952
H55 H 0.3915 0.1786 0.1594
C60 C 0.4712(8) 0.0862(10) 0.1300(11)
H56 H 0.4805 0.0411 0.1201
H57 H 0.4647 0.0911 0.1754
H58 H 0.5111 0.1125 0.1163
N4_2 N 0.0932(5) 0.8925(5) 0.5970(7)
H51_2 H 0.0869 0.8959 0.5543
H52_2 H 0.1303 0.9184 0.6082
C59_2 C 0.1088(8) 0.8261(5) 0.6135(8)
H53_2 H 0.1552 0.8144 0.5972
H54_2 H 0.0731 0.7978 0.5952
H55_2 H 0.1085 0.8214 0.6594
C60_2 C 0.0288(8) 0.9138(10) 0.6300(11)
H56_2 H 0.0195 0.9589 0.6201
H57_2 H 0.0353 0.9089 0.6754
H58_2 H 0.9889 0.8875 0.6163
H58_3 H 0.0111 0.3875 0.8837
N4_3 N 0.9068(5) 0.3925(5) 0.9030(7)
H51_3 H 0.9131 0.3959 0.9457
H52_3 H 0.8697 0.4184 0.8918
C59_3 C 0.8912(8) 0.3261(5) 0.8865(8)
H53_3 H 0.8448 0.3144 0.9028
H54_3 H 0.9269 0.2978 0.9048
H55_3 H 0.8915 0.3214 0.8406
C60_3 C 0.9712(8) 0.4138(10) 0.8700(11)
H56_3 H 0.9805 0.4589 0.8799
H57_3 H 0.9647 0.4089 0.8246
N4_4 N 0.5932(5) 0.6075(5) 0.4030(7)
H51_4 H 0.5869 0.6041 0.4457
H52_4 H 0.6303 0.5816 0.3918
C59_4 C 0.6088(8) 0.6739(5) 0.3865(8)
H53_4 H 0.6552 0.6856 0.4028
H54_4 H 0.5731 0.7022 0.4048
H55_4 H 0.6085 0.6786 0.3406
C60_4 C 0.5288(8) 0.5862(10) 0.3700(11)
H56_4 H 0.5195 0.5411 0.3799
H57_4 H 0.5353 0.5911 0.3246
H58_4 H 0.4889 0.6125 0.3837
loop_
_geom_bond_atom_site_label_1
_geom_bond_atom_site_label_2
_geom_bond_site_symmetry_1
_geom_bond_site_symmetry_2
O3 C12 1_555 1_555
O4 C12 1_555 1_555
O19 C48 1_555 1_555
O23 C48 1_555 1_555
C12 C38 1_555 1_555
H24 C36 1_555 1_555
C37 C36 1_555 1_555
C48 C37 1_555 1_555
Cd6 O3 1_555 1_555
Cd9 O19 1_555 1_555
Cd11 O3 1_555 1_555
O4 Cd6 1_555 1_555
O23 Cd9 1_555 1_555
O23 Cd11 1_555 1_555
C37 C38 1_555 1_555
Cd2 O1 1_555 1_555
Cd3 O1 1_555 1_555
Cd4 O15 1_555 1_555
O1 C6 1_555 1_555
O2 Cd2 1_555 1_555
O15 C44 1_555 1_555
O24 Cd4 1_555 1_555
H3 O24 1_555 1_555
H4 O24 1_555 1_555
O25 Cd2 1_555 1_555
O26 Cd4 1_555 1_555
O27 Cd4 1_555 1_555
O28 Cd3 1_555 1_555
H5 O28 1_555 1_555
O29 Cd4 1_555 1_555
H7 O29 1_555 1_555
H8 O29 1_555 1_555
C6 O2 1_555 1_555
C44 O26 1_555 1_555
C49 O27 1_555 1_555
H25 C50 1_555 1_555
H27 C50 1_555 1_555
N2 C52 1_555 1_555
C52 O25 1_555 1_555
C53 C52 1_555 1_555
H31 C53 1_555 1_555
H32 C53 1_555 1_555
H33 C53 1_555 1_555
C54 N2 1_555 1_555
H34 C54 1_555 1_555
H35 C54 1_555 1_555
H36 C54 1_555 1_555
C55 N2 1_555 1_555
H37 C55 1_555 1_555
H38 C55 1_555 1_555
H39 C55 1_555 1_555
C56 C49 1_555 1_555
H40 C56 1_555 1_555
O32 Cd3 1_555 1_555
O33 Cd2 1_555 1_555
O34 Cd4 1_555 1_555
O35 Cd4 1_555 1_555
O36 Cd2 1_555 1_555
O37 Cd2 1_555 1_555
O40 Cd2 1_555 1_555
O41 Cd2 1_555 1_555
Cd3 O41 1_555 1_555
Cd1 O5 1_555 1_555
O5 C13 1_555 1_555
O6 Cd1 1_555 1_555
O7 Cd1 1_555 1_555
O9 C23 1_555 1_555
O13 C41 1_555 1_555
O14 H1 1_555 1_555
O16 C45 1_555 1_555
O17 C47 1_555 1_555
O18 H2 1_555 1_555
O20 C46 1_555 1_555
O21 C46 1_555 1_555
O22 C45 1_555 1_555
C1 H9 1_555 1_555
C2 C3 1_555 1_555
C4 C3 1_555 1_555
C5 C1 1_555 1_555
C7 C5 1_555 1_555
C8 C7 1_555 1_555
H11 C8 1_555 1_555
C9 C8 1_555 1_555
C10 C9 1_555 1_555
H12 C10 1_555 1_555
C11 C7 1_555 1_555
H13 C11 1_555 1_555
C13 O6 1_555 1_555
C14 C13 1_555 1_555
C15 C14 1_555 1_555
H14 C15 1_555 1_555
C16 C14 1_555 1_555
H15 C16 1_555 1_555
C17 C16 1_555 1_555
C18 C17 1_555 1_555
H16 C18 1_555 1_555
C19 C17 1_555 1_555
C20 C19 1_555 1_555
C21 C20 1_555 1_555
H17 C21 1_555 1_555
C22 C15 1_555 1_555
C23 C22 1_555 1_555
C24 H18 1_555 1_555
C25 C24 1_555 1_555
C26 C25 1_555 1_555
H19 C26 1_555 1_555
C27 C26 1_555 1_555
C28 C27 1_555 1_555
H20 C28 1_555 1_555
C29 C4 1_555 1_555
C30 C29 1_555 1_555
H21 C30 1_555 1_555
C31 C30 1_555 1_555
C32 C31 1_555 1_555
H22 C32 1_555 1_555
C33 C32 1_555 1_555
C34 O7 1_555 1_555
C35 C29 1_555 1_555
H23 C35 1_555 1_555
C39 C20 1_555 1_555
C41 O14 1_555 1_555
C42 C1 1_555 1_555
C43 C10 1_555 1_555
C45 C9 1_555 1_555
C46 C43 1_555 1_555
C47 O18 1_555 1_555
Cd5 O20 1_555 1_555
Cd9 O16 1_555 1_555
O30 Cd1 1_555 1_555
O31 Cd1 1_555 1_555
O38 Cd1 1_555 1_555
O39 Cd1 1_555 1_555
O8 C34 1_555 1_555
O21 Cd5 1_555 1_555
O22 Cd9 1_555 1_555
C2 C42 1_555 1_555
C4 C5 1_555 1_555
C11 C43 1_555 1_555
C18 C22 1_555 1_555
C24 C39 1_555 1_555
C25 C47 1_555 1_555
C28 C39 1_555 1_555
C31 C41 1_555 1_555
C33 C35 1_555 1_555
C34 C42 1_555 1_555
O11 C40 1_555 1_555
O12 C40 1_555 1_555
Cd7 O10 1_555 1_555
Cd12 O11 1_555 1_555
O12 Cd12 1_555 1_555
Cd6 O20_2 1_555 1_555
O13_2 C41_2 1_555 1_555
O14_2 H1_2 1_555 1_555
O16_2 C45_2 1_555 1_555
O21_2 C46_2 1_555 1_555
O22_2 C45_2 1_555 1_555
C4_2 C3_2 1_555 1_555
C7_2 C5_2 1_555 1_555
C8_2 C7_2 1_555 1_555
H11_2 C8_2 1_555 1_555
C9_2 C8_2 1_555 1_555
C10_2 C9_2 1_555 1_555
H12_2 C10_2 1_555 1_555
C11_2 C7_2 1_555 1_555
H13_2 C11_2 1_555 1_555
C29_2 C4_2 1_555 1_555
C30_2 C29_2 1_555 1_555
H21_2 C30_2 1_555 1_555
C31_2 C30_2 1_555 1_555
C32_2 C31_2 1_555 1_555
H22_2 C32_2 1_555 1_555
C33_2 C32_2 1_555 1_555
C35_2 C29_2 1_555 1_555
H23_2 C35_2 1_555 1_555
C41_2 O14_2 1_555 1_555
C43_2 C10_2 1_555 1_555
C45_2 C9_2 1_555 1_555
C46_2 C43_2 1_555 1_555
H28 C51 1_555 1_555
H29 C51 1_555 1_555
H30 C51 1_555 1_555
Cd8 O16_2 1_555 1_555
O22_2 Cd8 1_555 1_555
C4_2 C5_2 1_555 1_555
C11_2 C43_2 1_555 1_555
C31_2 C41_2 1_555 1_555
C33_2 C35_2 1_555 1_555
Cd1_2 O5_2 1_555 1_555
O3_2 C12_2 1_555 1_555
O4_2 C12_2 1_555 1_555
O5_2 C13_2 1_555 1_555
O6_2 Cd1_2 1_555 1_555
O7_2 Cd1_2 1_555 1_555
O32 C23_2 1_555 1_555
O33 C23_2 1_555 1_555
O11_2 C40_2 1_555 1_555
O12_2 C40_2 1_555 1_555
O17_2 C47_2 1_555 1_555
O18_2 H2_2 1_555 1_555
O19_2 C48_2 1_555 1_555
O23_2 C48_2 1_555 1_555
C1_2 H9_2 1_555 1_555
C12_2 C38_2 1_555 1_555
C13_2 O6_2 1_555 1_555
C14_2 C13_2 1_555 1_555
C15_2 C14_2 1_555 1_555
H14_2 C15_2 1_555 1_555
C16_2 C14_2 1_555 1_555
H15_2 C16_2 1_555 1_555
C17_2 C16_2 1_555 1_555
C18_2 C17_2 1_555 1_555
H16_2 C18_2 1_555 1_555
C19_2 C17_2 1_555 1_555
C20_2 C19_2 1_555 1_555
C21_2 C20_2 1_555 1_555
H17_2 C21_2 1_555 1_555
C22_2 C15_2 1_555 1_555
C23_2 C22_2 1_555 1_555
C24_2 H18_2 1_555 1_555
C25_2 C24_2 1_555 1_555
C26_2 C25_2 1_555 1_555
H19_2 C26_2 1_555 1_555
C27_2 C26_2 1_555 1_555
C28_2 C27_2 1_555 1_555
H20_2 C28_2 1_555 1_555
C34_2 O7_2 1_555 1_555
C36_2 C19_2 1_555 1_555
H24_2 C36_2 1_555 1_555
C37_2 C36_2 1_555 1_555
C38_2 C21_2 1_555 1_555
C39_2 C20_2 1_555 1_555
C40_2 C27_2 1_555 1_555
C42_2 C1_2 1_555 1_555
C47_2 O18_2 1_555 1_555
C48_2 C37_2 1_555 1_555
Cd5 O3_2 1_555 1_555
Cd8 O19_2 1_555 1_555
Cd11_2 O3_2 1_555 1_555
Cd12_2 O11_2 1_555 1_555
O30_2 Cd1_2 1_555 1_555
O31_2 Cd1_2 1_555 1_555
O38_2 Cd1_2 1_555 1_555
O4_2 Cd5 1_555 1_555
O8_2 C34_2 1_555 1_555
O12_2 Cd12_2 1_555 1_555
O23_2 Cd8 1_555 1_555
O23_2 Cd11_2 1_555 1_555
C2_2 C42_2 1_555 1_555
C18_2 C22_2 1_555 1_555
C24_2 C39_2 1_555 1_555
C25_2 C47_2 1_555 1_555
C28_2 C39_2 1_555 1_555
C34_2 C42_2 1_555 1_555
C37_2 C38_2 1_555 1_555
H5_2 O28_2 1_555 1_555
Cd7 O1_2 1_555 1_555
Cd10 O1_2 1_555 1_555
O1_2 C6_2 1_555 1_555
O2_2 Cd7 1_555 1_555
O25_2 Cd7 1_555 1_555
C6_2 O2_2 1_555 1_555
N2_2 C52_2 1_555 1_555
C52_2 O25_2 1_555 1_555
C53_2 C52_2 1_555 1_555
H31_2 C53_2 1_555 1_555
H32_2 C53_2 1_555 1_555
H33_2 C53_2 1_555 1_555
C54_2 N2_2 1_555 1_555
H34_2 C54_2 1_555 1_555
H35_2 C54_2 1_555 1_555
H36_2 C54_2 1_555 1_555
C55_2 N2_2 1_555 1_555
H37_2 C55_2 1_555 1_555
H38_2 C55_2 1_555 1_555
H39_2 C55_2 1_555 1_555
O36_2 Cd7 1_555 1_555
O37_2 Cd7 1_555 1_555
O40_2 Cd7 1_555 1_555
O41_2 Cd7 1_555 1_555
Cd10 O41_2 1_555 1_555
O34 C40_3 1_555 1_555
O35 C40_3 1_555 1_555
O30_2 C12_3 1_555 1_555
O31_2 C12_3 1_555 1_555
Cd9 O10_2 1_555 1_555
Cd5 O5_3 1_555 1_555
Cd8 O1_3 1_555 1_555
Cd11_2 O1_3 1_555 1_555
O1_3 C6_3 1_555 1_555
O2_3 Cd8 1_555 1_555
O5_3 C13_3 1_555 1_555
O6_3 Cd5 1_555 1_555
O7_3 Cd5 1_555 1_555
O8_3 Cd11_2 1_555 1_555
O9_2 C23_3 1_555 1_555
O17_3 C47_3 1_555 1_555
O18_3 H2_3 1_555 1_555
O37_2 C48_3 1_555 1_555
O41_2 C48_3 1_555 1_555
O25_3 Cd8 1_555 1_555
O28_3 Cd11_2 1_555 1_555
H5_3 O28_3 1_555 1_555
H6_3 O28_3 1_555 1_555
C1_3 H9_3 1_555 1_555
C6_3 O2_3 1_555 1_555
C13_3 O6_3 1_555 1_555
C14_3 C13_3 1_555 1_555
C15_3 C14_3 1_555 1_555
H14_3 C15_3 1_555 1_555
C16_3 C14_3 1_555 1_555
H15_3 C16_3 1_555 1_555
C17_3 C16_3 1_555 1_555
C18_3 C17_3 1_555 1_555
H16_3 C18_3 1_555 1_555
C19_3 C17_3 1_555 1_555
C20_3 C19_3 1_555 1_555
C21_3 C20_3 1_555 1_555
H17_3 C21_3 1_555 1_555
C22_3 C15_3 1_555 1_555
C23_3 C22_3 1_555 1_555
C24_3 H18_3 1_555 1_555
C25_3 C24_3 1_555 1_555
C26_3 C25_3 1_555 1_555
H19_3 C26_3 1_555 1_555
C27_3 C26_3 1_555 1_555
C28_3 C27_3 1_555 1_555
H20_3 C28_3 1_555 1_555
C34_3 O7_3 1_555 1_555
C36_3 C19_3 1_555 1_555
H24_3 C36_3 1_555 1_555
C37_3 C36_3 1_555 1_555
C38_3 C21_3 1_555 1_555
C39_3 C20_3 1_555 1_555
C42_3 C1_3 1_555 1_555
C47_3 O18_3 1_555 1_555
C48_3 C37_3 1_555 1_555
N2_3 C52_3 1_555 1_555
C52_3 O25_3 1_555 1_555
C53_3 C52_3 1_555 1_555
H31_3 C53_3 1_555 1_555
H32_3 C53_3 1_555 1_555
H33_3 C53_3 1_555 1_555
C54_3 N2_3 1_555 1_555
H34_3 C54_3 1_555 1_555
H35_3 C54_3 1_555 1_555
H36_3 C54_3 1_555 1_555
C55_3 N2_3 1_555 1_555
H37_3 C55_3 1_555 1_555
H38_3 C55_3 1_555 1_555
H39_3 C55_3 1_555 1_555
O32_2 Cd11_2 1_555 1_555
O33_2 Cd8 1_555 1_555
O8_3 C34_3 1_555 1_555
C2_3 C6_3 1_555 1_555
C2_3 C42_3 1_555 1_555
C18_3 C22_3 1_555 1_555
C24_3 C39_3 1_555 1_555
C25_3 C47_3 1_555 1_555
C28_3 C39_3 1_555 1_555
C34_3 C42_3 1_555 1_555
C37_3 C38_3 1_555 1_555
Cd12 O15_2 1_555 1_555
O13_3 C41_3 1_555 1_555
O14_3 H1_3 1_555 1_555
O15_2 C44_2 1_555 1_555
O36_2 C45_3 1_555 1_555
O38 C46_3 1_555 1_555
O39 C46_3 1_555 1_555
O40_2 C45_3 1_555 1_555
O24_2 Cd12 1_555 1_555
H3_2 O24_2 1_555 1_555
H4_2 O24_2 1_555 1_555
O26_2 Cd12 1_555 1_555
O27_2 Cd12 1_555 1_555
O29_2 Cd12 1_555 1_555
H7_2 O29_2 1_555 1_555
H8_2 O29_2 1_555 1_555
C3_3 H10_2 1_555 1_555
C4_3 C3_3 1_555 1_555
C7_3 C5_3 1_555 1_555
C8_3 C7_3 1_555 1_555
H11_3 C8_3 1_555 1_555
C9_3 C8_3 1_555 1_555
C10_3 C9_3 1_555 1_555
H12_3 C10_3 1_555 1_555
C11_3 C7_3 1_555 1_555
H13_3 C11_3 1_555 1_555
C29_3 C4_3 1_555 1_555
C30_3 C29_3 1_555 1_555
H21_3 C30_3 1_555 1_555
C31_3 C30_3 1_555 1_555
C32_3 C31_3 1_555 1_555
H22_3 C32_3 1_555 1_555
C33_3 C32_3 1_555 1_555
C35_3 C29_3 1_555 1_555
H23_3 C35_3 1_555 1_555
C41_3 O14_3 1_555 1_555
C43_3 C10_3 1_555 1_555
C44_2 O26_2 1_555 1_555
C45_3 C9_3 1_555 1_555
C46_3 C43_3 1_555 1_555
C49_2 O27_2 1_555 1_555
N1 C49_2 1_555 1_555
C50_2 N1 1_555 1_555
H25_2 C50_2 1_555 1_555
H26 C50_2 1_555 1_555
H27_2 C50_2 1_555 1_555
C51_2 N1 1_555 1_555
H28_2 C51_2 1_555 1_555
H29_2 C51_2 1_555 1_555
H30_2 C51_2 1_555 1_555
C56_2 C49_2 1_555 1_555
H40_2 C56_2 1_555 1_555
H41_3 C56_2 1_555 1_555
H42 C56_2 1_555 1_555
C4_3 C5_3 1_555 1_555
C11_3 C43_3 1_555 1_555
C31_3 C41_3 1_555 1_555
C33_3 C35_3 1_555 1_555
C33_3 C44_2 1_555 1_555
Cd6 O5_4 1_555 1_555
Cd9 O1_4 1_555 1_555
Cd11 O1_4 1_555 1_555
Cd12_2 O15_3 1_555 1_555
O1_4 C6_4 1_555 1_555
O2_4 Cd9 1_555 1_555
O5_4 C13_4 1_555 1_555
O6_4 Cd6 1_555 1_555
O7_4 Cd6 1_555 1_555
O8_4 Cd11 1_555 1_555
O32_2 C23_4 1_555 1_555
O33_2 C23_4 1_555 1_555
O13_4 C41_4 1_555 1_555
O14_4 H1_4 1_555 1_555
O15_3 C44_3 1_555 1_555
O36 C45_4 1_555 1_555
O17_4 C47_4 1_555 1_555
O18_4 H2_4 1_555 1_555
O39_2 C46_4 1_555 1_555
O40 C45_4 1_555 1_555
O24_3 Cd12_2 1_555 1_555
H3_3 O24_3 1_555 1_555
H4_3 O24_3 1_555 1_555
O25_4 Cd9 1_555 1_555
O26_3 Cd12_2 1_555 1_555
O27_3 Cd12_2 1_555 1_555
O29_3 Cd12_2 1_555 1_555
H7_3 O29_3 1_555 1_555
H8_3 O29_3 1_555 1_555
C1_4 H9_4 1_555 1_555
C2_4 C3_4 1_555 1_555
C3_4 H10_3 1_555 1_555
C4_4 C3_4 1_555 1_555
C5_4 C1_4 1_555 1_555
C6_4 O2_4 1_555 1_555
C7_4 C5_4 1_555 1_555
C8_4 C7_4 1_555 1_555
H11_4 C8_4 1_555 1_555
C9_4 C8_4 1_555 1_555
C10_4 C9_4 1_555 1_555
H12_4 C10_4 1_555 1_555
C11_4 C7_4 1_555 1_555
H13_4 C11_4 1_555 1_555
C13_4 O6_4 1_555 1_555
C14_4 C13_4 1_555 1_555
C15_4 C14_4 1_555 1_555
H14_4 C15_4 1_555 1_555
C16_4 C14_4 1_555 1_555
H15_4 C16_4 1_555 1_555
C17_4 C16_4 1_555 1_555
C18_4 C17_4 1_555 1_555
H16_4 C18_4 1_555 1_555
C19_4 C17_4 1_555 1_555
C20_4 C19_4 1_555 1_555
C21_4 C20_4 1_555 1_555
H17_4 C21_4 1_555 1_555
C22_4 C15_4 1_555 1_555
C23_4 C22_4 1_555 1_555
C24_4 H18_4 1_555 1_555
C25_4 C24_4 1_555 1_555
C26_4 C25_4 1_555 1_555
H19_4 C26_4 1_555 1_555
C27_4 C26_4 1_555 1_555
C28_4 C27_4 1_555 1_555
H20_4 C28_4 1_555 1_555
C29_4 C4_4 1_555 1_555
C30_4 C29_4 1_555 1_555
H21_4 C30_4 1_555 1_555
C31_4 C30_4 1_555 1_555
C32_4 C31_4 1_555 1_555
H22_4 C32_4 1_555 1_555
C33_4 C32_4 1_555 1_555
C34_4 O7_4 1_555 1_555
C35_4 C29_4 1_555 1_555
H23_4 C35_4 1_555 1_555
C39_4 C20_4 1_555 1_555
C41_4 O14_4 1_555 1_555
C42_4 C1_4 1_555 1_555
C43_4 C10_4 1_555 1_555
C44_3 O26_3 1_555 1_555
C45_4 C9_4 1_555 1_555
C46_4 C43_4 1_555 1_555
C47_4 O18_4 1_555 1_555
C49_3 O27_3 1_555 1_555
H25_3 C50_3 1_555 1_555
H27_3 C50_3 1_555 1_555
N2_4 C52_4 1_555 1_555
C52_4 O25_4 1_555 1_555
C53_4 C52_4 1_555 1_555
H31_4 C53_4 1_555 1_555
H32_4 C53_4 1_555 1_555
H33_4 C53_4 1_555 1_555
C54_4 N2_4 1_555 1_555
H34_4 C54_4 1_555 1_555
H35_4 C54_4 1_555 1_555
H36_4 C54_4 1_555 1_555
C55_4 N2_4 1_555 1_555
H37_4 C55_4 1_555 1_555
H38_4 C55_4 1_555 1_555
H39_4 C55_4 1_555 1_555
C56_3 C49_3 1_555 1_555
H40_3 C56_3 1_555 1_555
H41_4 C56_3 1_555 1_555
O8_4 C34_4 1_555 1_555
C2_4 C6_4 1_555 1_555
C2_4 C42_4 1_555 1_555
C4_4 C5_4 1_555 1_555
C11_4 C43_4 1_555 1_555
C18_4 C22_4 1_555 1_555
C24_4 C39_4 1_555 1_555
C25_4 C47_4 1_555 1_555
C28_4 C39_4 1_555 1_555
C31_4 C41_4 1_555 1_555
C33_4 C35_4 1_555 1_555
C33_4 C44_3 1_555 1_555
C34_4 C42_4 1_555 1_555
H5_4 O28_4 1_555 1_555
H6_4 O28_4 1_555 1_555
O37 C48_4 1_555 1_555
O41 C48_4 1_555 1_555
H24_4 C36_4 1_555 1_555
C37_4 C36_4 1_555 1_555
C48_4 C37_4 1_555 1_555
C37_4 C38_4 1_555 1_555
O30 C12_4 1_555 1_555
O31 C12_4 1_555 1_555
H28_3 C51_3 1_555 1_555
H29_3 C51_3 1_555 1_555
H30_3 C51_3 1_555 1_555
Cd4_2 O15_4 1_555 1_555
O15_4 C44_4 1_555 1_555
O24_4 Cd4_2 1_555 1_555
H3_4 O24_4 1_555 1_555
H4_4 O24_4 1_555 1_555
O26_4 Cd4_2 1_555 1_555
O27_4 Cd4_2 1_555 1_555
O29_4 Cd4_2 1_555 1_555
H7_4 O29_4 1_555 1_555
H8_4 O29_4 1_555 1_555
C44_4 O26_4 1_555 1_555
C49_4 O27_4 1_555 1_555
N1_3 C49_4 1_555 1_555
C50_4 N1_3 1_555 1_555
H25_4 C50_4 1_555 1_555
H26_3 C50_4 1_555 1_555
H27_4 C50_4 1_555 1_555
C56_4 C49_4 1_555 1_555
H40_4 C56_4 1_555 1_555
H42_3 C56_4 1_555 1_555
O34_2 Cd4_2 1_555 1_555
O35_2 Cd4_2 1_555 1_555
O34_2 C40_4 1_555 1_555
O35_2 C40_4 1_555 1_555
C51_4 N1_4 1_555 1_555
H28_4 C51_4 1_555 1_555
H29_4 C51_4 1_555 1_555
H30_4 C51_4 1_555 1_555
H45 C57 1_555 1_555
H46 C57 1_555 1_555
H44 N3 1_555 1_555
C58 N3 1_555 1_555
H48 C58 1_555 1_555
H49 C58 1_555 1_555
H44_2 N3_2 1_555 1_555
C58_2 N3_2 1_555 1_555
H48_2 C58_2 1_555 1_555
H49_2 C58_2 1_555 1_555
H45_2 C57_2 1_555 1_555
H46_2 C57_2 1_555 1_555
N3_3 H43_3 1_555 1_555
H44_3 N3_3 1_555 1_555
C57_3 N3_3 1_555 1_555
H45_3 C57_3 1_555 1_555
H46_3 C57_3 1_555 1_555
H47_3 C57_3 1_555 1_555
C58_3 N3_3 1_555 1_555
H48_3 C58_3 1_555 1_555
H49_3 C58_3 1_555 1_555
H50_3 C58_3 1_555 1_555
N3_4 H43_4 1_555 1_555
H44_4 N3_4 1_555 1_555
C57_4 N3_4 1_555 1_555
H45_4 C57_4 1_555 1_555
H46_4 C57_4 1_555 1_555
H47_4 C57_4 1_555 1_555
C58_4 N3_4 1_555 1_555
H48_4 C58_4 1_555 1_555
H49_4 C58_4 1_555 1_555
H50_4 C58_4 1_555 1_555
N4 H51 1_555 1_555
H52 N4 1_555 1_555
C59 N4 1_555 1_555
H53 C59 1_555 1_555
H54 C59 1_555 1_555
H55 C59 1_555 1_555
C60 N4 1_555 1_555
H56 C60 1_555 1_555
H57 C60 1_555 1_555
H58 C60 1_555 1_555
N4_2 H51_2 1_555 1_555
H52_2 N4_2 1_555 1_555
C59_2 N4_2 1_555 1_555
H53_2 C59_2 1_555 1_555
H54_2 C59_2 1_555 1_555
H55_2 C59_2 1_555 1_555
C60_2 N4_2 1_555 1_555
H56_2 C60_2 1_555 1_555
H57_2 C60_2 1_555 1_555
N4_3 H51_3 1_555 1_555
H52_3 N4_3 1_555 1_555
C59_3 N4_3 1_555 1_555
H53_3 C59_3 1_555 1_555
H54_3 C59_3 1_555 1_555
H55_3 C59_3 1_555 1_555
C60_3 N4_3 1_555 1_555
H56_3 C60_3 1_555 1_555
H57_3 C60_3 1_555 1_555
N4_4 H51_4 1_555 1_555
H52_4 N4_4 1_555 1_555
C59_4 N4_4 1_555 1_555
H53_4 C59_4 1_555 1_555
H54_4 C59_4 1_555 1_555
H55_4 C59_4 1_555 1_555
C60_4 N4_4 1_555 1_555
H56_4 C60_4 1_555 1_555
H57_4 C60_4 1_555 1_555
H58_4 C60_4 1_555 1_555

#END
