
###############################################################################
#
# This file contains modified crystal structure data generated from the
# MOF subset of the Cambridge Structural Database (CSD) v543 
# hosted by the Cambridge Crystallographic Data Centre (CCDC).
#
# This work is licensed under the Creative Commons
# Attribution-NonCommercial-ShareAlike 4.0 International License.
# To view a copy of this license, visit
# http://creativecommons.org/licenses/by-nc-sa/4.0/
# or send a letter to
# Creative Commons, PO Box 1866, Mountain View, CA 94042, USA.
#
# CIF created using the CSD Python API on 29 September 2022
# The structure has been converted into the P1 space group
# The structure has a 3D framework
# The original CSD entry XUWFUR is in the orthorhombic crystal system
# The framework has been calculated to contain at least 10.0% void space
# The void calculation uses a probe of radius 1.32A, grid spacing 0.4
# The framework is charged, counterions have been retained in the structure
#
###############################################################################

data_XUWFUR
_chemical_formula_moiety         '(C400 H320 Cu24 N80 24+)n'
_symmetry_cell_setting           triclinic
_symmetry_space_group_name_H-M   'P 1'
_symmetry_Int_Tables_number      1
_space_group_name_Hall           'P 1'
loop_
_symmetry_equiv_pos_site_id
_symmetry_equiv_pos_as_xyz
1 x,y,z
_cell_length_a                   29.886(3)
_cell_length_b                   28.350(3)
_cell_length_c                   15.2719(18)
_cell_angle_alpha                90
_cell_angle_beta                 90
_cell_angle_gamma                90
_cell_volume                     12939.4
loop_
_atom_site_label
_atom_site_type_symbol
_atom_site_fract_x
_atom_site_fract_y
_atom_site_fract_z
Cu1 Cu 0.67043(7) 0.33158(7) 0.32050(17)
Cu2 Cu 0.30652(6) 0.31330(7) 0.45730(14)
N1 N 0.6056(4) 0.3252(5) 0.3515(10)
N2 N 0.3720(4) 0.3101(4) 0.4309(9)
N3 N 0.2812(4) 0.3757(5) 0.4299(10)
N4 N 0.1959(5) 0.6047(5) 0.3492(11)
N5 N 0.2741(4) 0.2599(4) 0.5069(8)
N6 N 0.1681(4) 0.0457(4) 0.6288(9)
C1 C 0.5768(7) 0.3160(9) 0.2858(13)
H1 H 0.5879 0.3140 0.2289
C2 C 0.5307(7) 0.3093(8) 0.2997(13)
H2 H 0.5124 0.3000 0.2536
C3 C 0.5126(5) 0.3166(5) 0.3825(9)
C4 C 0.5422(5) 0.3282(5) 0.4486(10)
H3 H 0.5318 0.3327 0.5053
C5 C 0.5868(6) 0.3330(6) 0.4309(13)
H4 H 0.6055 0.3423 0.4764
C6 C 0.3888(5) 0.3233(6) 0.3514(12)
H5 H 0.3689 0.3317 0.3074
C7 C 0.4341(5) 0.3246(6) 0.3332(10)
H6 H 0.4439 0.3334 0.2778
C8 C 0.4646(4) 0.3130(4) 0.3971(10)
C9 C 0.4477(4) 0.2983(5) 0.4782(10)
H7 H 0.4672 0.2896 0.5229
C10 C 0.4026(5) 0.2968(5) 0.4915(11)
H8 H 0.3922 0.2859 0.5453
C11 C 0.3071(5) 0.4138(7) 0.4187(15)
H9 H 0.3378 0.4095 0.4245
C12 C 0.2932(5) 0.4567(6) 0.4003(16)
H10 H 0.3135 0.4804 0.3867
C13 C 0.2463(5) 0.4660(6) 0.4017(13)
C14 C 0.2192(6) 0.4301(6) 0.4199(16)
H11 H 0.1884 0.4344 0.4223
C15 C 0.2378(6) 0.3865(6) 0.4351(18)
H12 H 0.2183 0.3623 0.4504
C16 C 0.1709(6) 0.5720(7) 0.3928(16)
H13 H 0.1419 0.5801 0.4093
C17 C 0.1860(6) 0.5277(7) 0.4136(16)
H14 H 0.1685 0.5070 0.4460
C18 C 0.2289(5) 0.5145(5) 0.3845(12)
C19 C 0.2538(7) 0.5487(6) 0.3460(15)
H15 H 0.2836 0.5428 0.3324
C20 C 0.2356(6) 0.5920(7) 0.3266(15)
H16 H 0.2531 0.6134 0.2954
C21 C 0.2288(5) 0.2539(5) 0.5011(12)
H17 H 0.2118 0.2783 0.4774
C22 C 0.2075(4) 0.2143(5) 0.5280(12)
H18 H 0.1764 0.2126 0.5247
C23 C 0.2313(4) 0.1762(4) 0.5603(9)
C24 C 0.2765(5) 0.1817(5) 0.5688(11)
H19 H 0.2937 0.1580 0.5943
C25 C 0.2972(5) 0.2240(5) 0.5380(11)
H20 H 0.3283 0.2263 0.5400
C26 C 0.1499(5) 0.0760(6) 0.5714(14)
H21 H 0.1230 0.0679 0.5448
C27 C 0.1691(5) 0.1182(6) 0.5504(14)
H22 H 0.1547 0.1388 0.5123
C28 C 0.2097(5) 0.1303(5) 0.5855(10)
C29 C 0.2281(6) 0.1002(6) 0.6428(14)
H23 H 0.2554 0.1075 0.6687
C30 C 0.2070(6) 0.0586(7) 0.6636(13)
H24 H 0.2206 0.0385 0.7037
C31 C 0.0905(6) 0.0350(6) 0.8047(14)
H25 H 0.1036 0.0616 0.7803
C32 C 0.0564(6) 0.0404(5) 0.8649(11)
H26 H 0.0464 0.0706 0.8784
C33 C 0.0365(5) 0.0013(5) 0.9063(11)
Cu4 Cu 0.17043(7) 0.66842(7) 0.32050(17)
N11 N 0.6959(5) 0.3953(5) 0.3492(11)
N13 N 0.7063(5) 0.2807(5) 0.2646(10)
N8 N 0.9233(4) 0.0135(4) 0.0798(9)
C36 C 0.9323(6) 0.0452(6) 0.0186(13)
H29 H 0.9136 0.0715 0.0166
Cu6 Cu 0.86604(6) 0.01558(6) 0.15799(13)
N7 N 0.8951(4) 0.0073(4) 0.2809(9)
N9 N 0.8311(4) 0.0769(4) 0.1546(9)
C34 C 0.9465(5) 0.0428(4) 0.3828(10)
H27 H 0.9573 0.0701 0.4093
C35 C 0.9138(5) 0.0454(5) 0.3205(11)
H28 H 0.9036 0.0751 0.3042
H31 H 0.9887 0.0506 0.5401
C41 C 0.8509(4) 0.1185(4) 0.1585(9)
H33 H 0.8817 0.1202 0.1506
C42 C 0.8271(4) 0.1601(5) 0.1740(10)
H34 H 0.8424 0.1886 0.1768
C43 C 0.7805(4) 0.1594(5) 0.1855(11)
C44 C 0.7600(5) 0.1147(5) 0.1787(17)
H35 H 0.7293 0.1115 0.1856
C45 C 0.7863(5) 0.0761(6) 0.1617(16)
H36 H 0.7720 0.0472 0.1545
C46 C 0.7506(6) 0.2793(6) 0.2660(18)
H37 H 0.7656 0.3057 0.2870
C47 C 0.7756(5) 0.2421(6) 0.2389(16)
H38 H 0.8067 0.2443 0.2395
C48 C 0.7563(5) 0.2025(5) 0.2115(12)
C49 C 0.7098(5) 0.2036(6) 0.2094(16)
H39 H 0.6939 0.1774 0.1902
C50 C 0.6873(6) 0.2433(7) 0.2356(16)
H40 H 0.6562 0.2431 0.2321
N1_2 N 0.1056(4) 0.6748(5) 0.3515(10)
C1_2 C 0.0768(7) 0.6840(9) 0.2858(13)
H1_2 H 0.0879 0.6860 0.2289
C2_2 C 0.0307(7) 0.6907(8) 0.2997(13)
H2_2 H 0.0124 0.7000 0.2536
C3_2 C 0.0126(5) 0.6834(5) 0.3825(9)
C4_2 C 0.0422(5) 0.6718(5) 0.4486(10)
H3_2 H 0.0318 0.6673 0.5053
C5_2 C 0.0868(6) 0.6670(6) 0.4309(13)
H4_2 H 0.1055 0.6577 0.4764
N13_2 N 0.2063(5) 0.7193(5) 0.2646(10)
N8_2 N 0.4233(4) 0.9865(4) 0.0798(9)
C36_2 C 0.4323(6) 0.9548(6) 0.0186(13)
H29_2 H 0.4136 0.9285 0.0166
Cu6_2 Cu 0.36604(6) 0.98442(6) 0.15799(13)
Cu2_2 Cu 0.80652(6) 0.68670(7) 0.45730(14)
N2_2 N 0.8720(4) 0.6899(4) 0.4309(9)
N3_2 N 0.7812(4) 0.6243(5) 0.4299(10)
N5_2 N 0.7741(4) 0.7401(4) 0.5069(8)
N6_2 N 0.6681(4) 0.9543(4) 0.6288(9)
C6_2 C 0.8888(5) 0.6767(6) 0.3514(12)
H5_2 H 0.8689 0.6683 0.3074
C7_2 C 0.9341(5) 0.6754(6) 0.3332(10)
H6_2 H 0.9439 0.6666 0.2778
C8_2 C 0.9646(4) 0.6870(4) 0.3971(10)
C9_2 C 0.9477(4) 0.7017(5) 0.4782(10)
H7_2 H 0.9672 0.7104 0.5229
C10_2 C 0.9026(5) 0.7032(5) 0.4915(11)
H8_2 H 0.8922 0.7141 0.5453
C11_2 C 0.8071(5) 0.5862(7) 0.4187(15)
H9_2 H 0.8378 0.5905 0.4245
C12_2 C 0.7932(5) 0.5433(6) 0.4003(16)
H10_2 H 0.8135 0.5196 0.3867
C13_2 C 0.7463(5) 0.5340(6) 0.4017(13)
C14_2 C 0.7192(6) 0.5699(6) 0.4199(16)
H11_2 H 0.6884 0.5656 0.4223
C15_2 C 0.7378(6) 0.6135(6) 0.4351(18)
H12_2 H 0.7183 0.6377 0.4504
C16_2 C 0.6709(6) 0.4280(7) 0.3928(16)
H13_2 H 0.6419 0.4199 0.4093
C17_2 C 0.6860(6) 0.4723(7) 0.4136(16)
H14_2 H 0.6685 0.4930 0.4460
C18_2 C 0.7289(5) 0.4855(5) 0.3845(12)
C19_2 C 0.7538(7) 0.4513(6) 0.3460(15)
H15_2 H 0.7836 0.4572 0.3324
C20_2 C 0.7356(6) 0.4080(7) 0.3266(15)
H16_2 H 0.7531 0.3866 0.2954
C21_2 C 0.7288(5) 0.7461(5) 0.5011(12)
H17_2 H 0.7118 0.7217 0.4774
C22_2 C 0.7075(4) 0.7857(5) 0.5280(12)
H18_2 H 0.6764 0.7874 0.5247
C23_2 C 0.7313(4) 0.8238(4) 0.5603(9)
C24_2 C 0.7765(5) 0.8183(5) 0.5688(11)
H19_2 H 0.7937 0.8420 0.5943
C25_2 C 0.7972(5) 0.7760(5) 0.5380(11)
H20_2 H 0.8283 0.7737 0.5400
C26_2 C 0.6499(5) 0.9240(6) 0.5714(14)
H21_2 H 0.6230 0.9321 0.5448
C27_2 C 0.6691(5) 0.8818(6) 0.5504(14)
H22_2 H 0.6547 0.8612 0.5123
C28_2 C 0.7097(5) 0.8697(5) 0.5855(10)
C29_2 C 0.7281(6) 0.8998(6) 0.6428(14)
H23_2 H 0.7554 0.8925 0.6687
C30_2 C 0.7070(6) 0.9414(7) 0.6636(13)
H24_2 H 0.7206 0.9615 0.7037
C31_2 C 0.5905(6) 0.9650(6) 0.8047(14)
H25_2 H 0.6036 0.9384 0.7803
C32_2 C 0.5564(6) 0.9596(5) 0.8649(11)
H26_2 H 0.5464 0.9294 0.8784
C33_2 C 0.5365(5) 0.9987(5) 0.9063(11)
C37 C 0.4658(6) 0.9565(6) 0.9584(11)
H30 H 0.4679 0.9341 0.9140
C38 C 0.4981(5) 0.9945(5) 0.9659(10)
N7_2 N 0.3951(4) 0.9927(4) 0.2809(9)
N9_2 N 0.3311(4) 0.9231(4) 0.1546(9)
C34_2 C 0.4465(5) 0.9572(4) 0.3828(10)
H27_2 H 0.4573 0.9299 0.4093
C35_2 C 0.4138(5) 0.9546(5) 0.3205(11)
H28_2 H 0.4036 0.9249 0.3042
C39 C 0.5090(4) 0.9740(6) 0.5319(11)
H31_2 H 0.4887 0.9494 0.5401
C40 C 0.5457(5) 0.9777(5) 0.5871(12)
H32 H 0.5496 0.9552 0.6307
C41_2 C 0.3509(4) 0.8815(4) 0.1585(9)
H33_2 H 0.3817 0.8798 0.1506
C42_2 C 0.3271(4) 0.8399(5) 0.1740(10)
H34_2 H 0.3424 0.8114 0.1768
C43_2 C 0.2805(4) 0.8406(5) 0.1855(11)
C44_2 C 0.2600(5) 0.8853(5) 0.1787(17)
H35_2 H 0.2293 0.8885 0.1856
C45_2 C 0.2863(5) 0.9239(6) 0.1617(16)
H36_2 H 0.2720 0.9528 0.1545
C46_2 C 0.2506(6) 0.7207(6) 0.2660(18)
H37_2 H 0.2656 0.6943 0.2870
C47_2 C 0.2756(5) 0.7579(6) 0.2389(16)
H38_2 H 0.3067 0.7557 0.2395
C48_2 C 0.2563(5) 0.7975(5) 0.2115(12)
C49_2 C 0.2098(5) 0.7964(6) 0.2094(16)
H39_2 H 0.1939 0.8226 0.1902
C50_2 C 0.1873(6) 0.7567(7) 0.2356(16)
H40_2 H 0.1562 0.7569 0.2321
H31_3 H 0.0113 0.9494 0.0401
Cu3 Cu 0.13396(6) 0.98442(6) 0.65799(13)
N7_3 N 0.1049(4) 0.9927(4) 0.7809(9)
N9_3 N 0.1689(4) 0.9231(4) 0.6546(9)
N10 N 0.2937(5) 0.7193(5) 0.7646(10)
C34_3 C 0.0535(5) 0.9572(4) 0.8828(10)
H27_3 H 0.0427 0.9299 0.9093
C35_3 C 0.0862(5) 0.9546(5) 0.8205(11)
H28_3 H 0.0964 0.9249 0.8042
C41_3 C 0.1491(4) 0.8815(4) 0.6585(9)
H33_3 H 0.1183 0.8798 0.6506
C42_3 C 0.1729(4) 0.8399(5) 0.6740(10)
H34_3 H 0.1576 0.8114 0.6768
C43_3 C 0.2195(4) 0.8406(5) 0.6855(11)
C44_3 C 0.2400(5) 0.8853(5) 0.6787(17)
H35_3 H 0.2707 0.8885 0.6856
C45_3 C 0.2137(5) 0.9239(6) 0.6617(16)
H36_3 H 0.2280 0.9528 0.6545
C46_3 C 0.2494(6) 0.7207(6) 0.7660(18)
H37_3 H 0.2344 0.6943 0.7870
C47_3 C 0.2244(5) 0.7579(6) 0.7389(16)
H38_3 H 0.1933 0.7557 0.7395
C48_3 C 0.2437(5) 0.7975(5) 0.7115(12)
C49_3 C 0.2902(5) 0.7964(6) 0.7094(16)
H39_3 H 0.3061 0.8226 0.6902
C50_3 C 0.3127(6) 0.7567(7) 0.7356(16)
H40_3 H 0.3438 0.7569 0.7321
Cu5 Cu 0.32957(7) 0.66842(7) 0.82050(17)
N12 N 0.0767(4) 0.9865(4) 0.5798(9)
C36_3 C 0.0677(6) 0.9548(6) 0.5186(13)
H29_3 H 0.0864 0.9285 0.5166
C37_2 C 0.0342(6) 0.9565(6) 0.4584(11)
H30_2 H 0.0321 0.9341 0.4140
C38_2 C 0.0019(5) 0.9945(5) 0.4659(10)
Cu2_3 Cu 0.69348(6) 0.68670(7) 0.95730(14)
N1_3 N 0.3944(4) 0.6748(5) 0.8515(10)
N2_3 N 0.6280(4) 0.6899(4) 0.9309(9)
N3_3 N 0.7188(4) 0.6243(5) 0.9299(10)
N4_2 N 0.8041(5) 0.3953(5) 0.8492(11)
C1_3 C 0.4232(7) 0.6840(9) 0.7858(13)
H1_3 H 0.4121 0.6860 0.7289
C2_3 C 0.4693(7) 0.6907(8) 0.7997(13)
H2_3 H 0.4876 0.7000 0.7536
C3_3 C 0.4874(5) 0.6834(5) 0.8825(9)
C4_3 C 0.4578(5) 0.6718(5) 0.9486(10)
C5_3 C 0.4132(6) 0.6670(6) 0.9309(13)
H4_3 H 0.3945 0.6577 0.9764
C6_3 C 0.6112(5) 0.6767(6) 0.8514(12)
H5_3 H 0.6311 0.6683 0.8074
C7_3 C 0.5659(5) 0.6754(6) 0.8332(10)
H6_3 H 0.5561 0.6666 0.7778
C8_3 C 0.5354(4) 0.6870(4) 0.8971(10)
C9_3 C 0.5523(4) 0.7017(5) 0.9782(10)
C10_3 C 0.5974(5) 0.7032(5) 0.9915(11)
C11_3 C 0.6929(5) 0.5862(7) 0.9187(15)
H9_3 H 0.6622 0.5905 0.9245
C12_3 C 0.7068(5) 0.5433(6) 0.9003(16)
H10_3 H 0.6865 0.5196 0.8867
C13_3 C 0.7537(5) 0.5340(6) 0.9017(13)
C14_3 C 0.7808(6) 0.5699(6) 0.9199(16)
H11_3 H 0.8116 0.5656 0.9223
C15_3 C 0.7622(6) 0.6135(6) 0.9351(18)
H12_3 H 0.7817 0.6377 0.9504
C16_3 C 0.8291(6) 0.4280(7) 0.8928(16)
H13_3 H 0.8581 0.4199 0.9093
C17_3 C 0.8140(6) 0.4723(7) 0.9136(16)
H14_3 H 0.8315 0.4930 0.9460
C18_3 C 0.7711(5) 0.4855(5) 0.8845(12)
C19_3 C 0.7462(7) 0.4513(6) 0.8460(15)
H15_3 H 0.7164 0.4572 0.8324
C20_3 C 0.7644(6) 0.4080(7) 0.8266(15)
H16_3 H 0.7469 0.3866 0.7954
H17_3 H 0.7882 0.7217 0.9774
Cu4_2 Cu 0.82957(7) 0.33158(7) 0.82050(17)
N11_2 N 0.3041(5) 0.6047(5) 0.8492(11)
Cu3_2 Cu 0.63396(6) 0.01558(6) 0.65799(13)
N7_4 N 0.6049(4) 0.0073(4) 0.7809(9)
N9_4 N 0.6689(4) 0.0769(4) 0.6546(9)
N10_2 N 0.7937(5) 0.2807(5) 0.7646(10)
C34_4 C 0.5535(5) 0.0428(4) 0.8828(10)
H27_4 H 0.5427 0.0701 0.9093
C35_4 C 0.5862(5) 0.0454(5) 0.8205(11)
H28_4 H 0.5964 0.0751 0.8042
C41_4 C 0.6491(4) 0.1185(4) 0.6585(9)
H33_4 H 0.6183 0.1202 0.6506
C42_4 C 0.6729(4) 0.1601(5) 0.6740(10)
H34_4 H 0.6576 0.1886 0.6768
C43_4 C 0.7195(4) 0.1594(5) 0.6855(11)
C44_4 C 0.7400(5) 0.1147(5) 0.6787(17)
H35_4 H 0.7707 0.1115 0.6856
C45_4 C 0.7137(5) 0.0761(6) 0.6617(16)
H36_4 H 0.7280 0.0472 0.6545
C46_4 C 0.7494(6) 0.2793(6) 0.7660(18)
H37_4 H 0.7344 0.3057 0.7870
C47_4 C 0.7244(5) 0.2421(6) 0.7389(16)
H38_4 H 0.6933 0.2443 0.7395
C48_4 C 0.7437(5) 0.2025(5) 0.7115(12)
C49_4 C 0.7902(5) 0.2036(6) 0.7094(16)
H39_4 H 0.8061 0.1774 0.6902
C50_4 C 0.8127(6) 0.2433(7) 0.7356(16)
H40_4 H 0.8438 0.2431 0.7321
N12_2 N 0.5767(4) 0.0135(4) 0.5798(9)
N5_3 N 0.2259(4) 0.2599(4) 0.0069(8)
N6_3 N 0.3319(4) 0.0457(4) 0.1288(9)
H7_3 H 0.0328 0.2896 0.0229
H8_3 H 0.1078 0.2859 0.0453
C21_3 C 0.2712(5) 0.2539(5) 0.0011(12)
C22_3 C 0.2925(4) 0.2143(5) 0.0280(12)
H18_3 H 0.3236 0.2126 0.0247
C23_3 C 0.2687(4) 0.1762(4) 0.0603(9)
C24_3 C 0.2235(5) 0.1817(5) 0.0688(11)
H19_3 H 0.2063 0.1580 0.0943
C25_3 C 0.2028(5) 0.2240(5) 0.0380(11)
H20_3 H 0.1717 0.2263 0.0400
C26_3 C 0.3501(5) 0.0760(6) 0.0714(14)
H21_3 H 0.3770 0.0679 0.0448
C27_3 C 0.3309(5) 0.1182(6) 0.0504(14)
H22_3 H 0.3453 0.1388 0.0123
C28_3 C 0.2903(5) 0.1303(5) 0.0855(10)
C29_3 C 0.2719(6) 0.1002(6) 0.1428(14)
H23_3 H 0.2446 0.1075 0.1687
C30_3 C 0.2930(6) 0.0586(7) 0.1636(13)
H24_3 H 0.2794 0.0385 0.2037
C31_3 C 0.4095(6) 0.0350(6) 0.3047(14)
H25_3 H 0.3964 0.0616 0.2803
C32_3 C 0.4436(6) 0.0404(5) 0.3649(11)
H26_3 H 0.4536 0.0706 0.3784
C33_3 C 0.4635(5) 0.0013(5) 0.4063(11)
C36_4 C 0.5677(6) 0.0452(6) 0.5186(13)
H29_4 H 0.5864 0.0715 0.5166
C37_3 C 0.5342(6) 0.0435(6) 0.4584(11)
H30_3 H 0.5321 0.0659 0.4140
C38_3 C 0.5019(5) 0.0055(5) 0.4659(10)
Cu2_4 Cu 0.19348(6) 0.31330(7) 0.95730(14)
N2_4 N 0.1280(4) 0.3101(4) 0.9309(9)
N3_4 N 0.2188(4) 0.3757(5) 0.9299(10)
C6_4 C 0.1112(5) 0.3233(6) 0.8514(12)
H5_4 H 0.1311 0.3317 0.8074
C7_4 C 0.0659(5) 0.3246(6) 0.8332(10)
H6_4 H 0.0561 0.3334 0.7778
C8_4 C 0.0354(4) 0.3130(4) 0.8971(10)
C9_4 C 0.0523(4) 0.2983(5) 0.9782(10)
C10_4 C 0.0974(5) 0.2968(5) 0.9915(11)
C11_4 C 0.1929(5) 0.4138(7) 0.9187(15)
H9_4 H 0.1622 0.4095 0.9245
C12_4 C 0.2068(5) 0.4567(6) 0.9003(16)
H10_4 H 0.1865 0.4804 0.8867
C13_4 C 0.2537(5) 0.4660(6) 0.9017(13)
C14_4 C 0.2808(6) 0.4301(6) 0.9199(16)
H11_4 H 0.3116 0.4344 0.9223
C15_4 C 0.2622(6) 0.3865(6) 0.9351(18)
H12_4 H 0.2817 0.3623 0.9504
C16_4 C 0.3291(6) 0.5720(7) 0.8928(16)
H13_4 H 0.3581 0.5801 0.9093
C17_4 C 0.3140(6) 0.5277(7) 0.9136(16)
H14_4 H 0.3315 0.5070 0.9460
C18_4 C 0.2711(5) 0.5145(5) 0.8845(12)
C19_4 C 0.2462(7) 0.5487(6) 0.8460(15)
H15_4 H 0.2164 0.5428 0.8324
C20_4 C 0.2644(6) 0.5920(7) 0.8266(15)
H16_4 H 0.2469 0.6134 0.7954
H17_4 H 0.2882 0.2783 0.9774
N1_4 N 0.8944(4) 0.3252(5) 0.8515(10)
C1_4 C 0.9232(7) 0.3160(9) 0.7858(13)
H1_4 H 0.9121 0.3140 0.7289
C2_4 C 0.9693(7) 0.3093(8) 0.7997(13)
H2_4 H 0.9876 0.3000 0.7536
C3_4 C 0.9874(5) 0.3166(5) 0.8825(9)
C4_4 C 0.9578(5) 0.3282(5) 0.9486(10)
C5_4 C 0.9132(6) 0.3330(6) 0.9309(13)
H4_4 H 0.8945 0.3423 0.9764
C37_4 C 0.9658(6) 0.0435(6) 0.9584(11)
H30_4 H 0.9679 0.0659 0.9140
C38_4 C 0.9981(5) 0.0055(5) 0.9659(10)
C39_2 C 0.9910(4) 0.9740(6) 0.0319(11)
C40_2 C 0.9543(5) 0.9777(5) 0.0871(12)
H32_2 H 0.9504 0.9552 0.1307
C39_3 C 0.0090(4) 0.0260(6) 0.5319(11)
C40_3 C 0.0457(5) 0.0223(5) 0.5871(12)
H32_3 H 0.0496 0.0448 0.6307
N5_4 N 0.7259(4) 0.7401(4) 0.0069(8)
N6_4 N 0.8319(4) 0.9543(4) 0.1288(9)
H3_3 H 0.4682 0.6673 0.0053
H7_4 H 0.5328 0.7104 0.0229
H8_4 H 0.6078 0.7141 0.0453
C21_4 C 0.7712(5) 0.7461(5) 0.0011(12)
C22_4 C 0.7925(4) 0.7857(5) 0.0280(12)
H18_4 H 0.8236 0.7874 0.0247
C23_4 C 0.7687(4) 0.8238(4) 0.0603(9)
C24_4 C 0.7235(5) 0.8183(5) 0.0688(11)
H19_4 H 0.7063 0.8420 0.0943
C25_4 C 0.7028(5) 0.7760(5) 0.0380(11)
H20_4 H 0.6717 0.7737 0.0400
C26_4 C 0.8501(5) 0.9240(6) 0.0714(14)
H21_4 H 0.8770 0.9321 0.0448
C27_4 C 0.8309(5) 0.8818(6) 0.0504(14)
H22_4 H 0.8453 0.8612 0.0123
C28_4 C 0.7903(5) 0.8697(5) 0.0855(10)
C29_4 C 0.7719(6) 0.8998(6) 0.1428(14)
H23_4 H 0.7446 0.8925 0.1687
C30_4 C 0.7930(6) 0.9414(7) 0.1636(13)
H24_4 H 0.7794 0.9615 0.2037
C31_4 C 0.9095(6) 0.9650(6) 0.3047(14)
H25_4 H 0.8964 0.9384 0.2803
C32_4 C 0.9436(6) 0.9596(5) 0.3649(11)
H26_4 H 0.9536 0.9294 0.3784
C33_4 C 0.9635(5) 0.9987(5) 0.4063(11)
C39_4 C 0.4910(4) 0.0260(6) 0.0319(11)
H31_4 H 0.5113 0.0506 0.0401
C40_4 C 0.4543(5) 0.0223(5) 0.0871(12)
H32_4 H 0.4504 0.0448 0.1307
H3_4 H 0.9682 0.3327 0.0053
H47 H 0.0387 0.1692 0.0240
H48 H 0.1141 0.1622 0.0076
Cu8 Cu 0.18427(6) 0.16410(6) 0.86157(14)
Cu9 Cu 0.36538(6) 0.47827(6) 0.62619(13)
N15 N 0.1176(4) 0.1672(4) 0.8792(9)
N16 N 0.2100(4) 0.1023(4) 0.8966(10)
N18 N 0.2185(4) 0.2140(4) 0.8004(7)
N19 N 0.3313(4) 0.4166(4) 0.6427(9)
N20 N 0.3285(4) 0.5351(4) 0.5914(9)
N21 N 0.2180(4) 0.7495(4) 0.4819(9)
N22 N 0.4222(4) 0.4769(4) 0.5453(9)
N23 N 0.6011(4) 0.5076(4) 0.2427(9)
C56 C 0.0913(5) 0.1726(7) 0.8091(12)
H45 H 0.1042 0.1723 0.7537
C57 C 0.0458(5) 0.1784(6) 0.8164(11)
H46 H 0.0286 0.1828 0.7662
C58 C 0.0254(4) 0.1778(4) 0.8978(10)
C59 C 0.0514(5) 0.1708(5) 0.9684(10)
C60 C 0.0966(5) 0.1663(6) 0.9577(11)
C61 C 0.1832(7) 0.0688(6) 0.9301(16)
H49 H 0.1540 0.0768 0.9451
C62 C 0.1980(6) 0.0208(6) 0.9438(15)
C63 C 0.2412(5) 0.0103(5) 0.9138(12)
C64 C 0.2681(5) 0.0450(6) 0.8829(14)
H51 H 0.2976 0.0387 0.8678
C65 C 0.2509(5) 0.0899(6) 0.8741(16)
H52 H 0.2694 0.1130 0.8508
C71 C 0.2622(5) 0.2189(5) 0.8054(11)
H57 H 0.2782 0.1953 0.8339
C72 C 0.2858(4) 0.2564(5) 0.7714(11)
H58 H 0.3169 0.2574 0.7756
C73 C 0.2629(4) 0.2924(4) 0.7313(10)
C74 C 0.2161(4) 0.2884(5) 0.7295(11)
H59 H 0.1988 0.3125 0.7062
C75 C 0.1964(4) 0.2493(5) 0.7618(11)
H60 H 0.1655 0.2467 0.7569
C76 C 0.3521(4) 0.3760(4) 0.6520(10)
H61 H 0.3825 0.3747 0.6394
C77 C 0.3313(4) 0.3354(4) 0.6794(10)
H62 H 0.3477 0.3076 0.6847
C78 C 0.2862(4) 0.3356(4) 0.6991(9)
C79 C 0.2641(4) 0.3778(5) 0.6864(13)
H63 H 0.2336 0.3799 0.6975
C80 C 0.2867(5) 0.4163(5) 0.6578(15)
H64 H 0.2707 0.4440 0.6481
C81 C 0.3450(6) 0.5666(7) 0.5357(17)
H65 H 0.3720 0.5595 0.5082
C82 C 0.3246(5) 0.6094(7) 0.5157(19)
H66 H 0.3393 0.6309 0.4798
C83 C 0.2836(4) 0.6202(5) 0.5479(11)
C84 C 0.2671(7) 0.5884(7) 0.6048(16)
H67 H 0.2402 0.5949 0.6330
C85 C 0.2892(7) 0.5456(7) 0.6230(16)
H68 H 0.2751 0.5238 0.6592
C86 C 0.2611(5) 0.7454(5) 0.4735(17)
H69 H 0.2776 0.7711 0.4537
C87 C 0.2835(5) 0.7033(6) 0.4935(16)
H70 H 0.3142 0.7011 0.4842
C88 C 0.2608(4) 0.6655(5) 0.5264(10)
C89 C 0.2170(5) 0.6706(5) 0.5363(11)
H71 H 0.2001 0.6463 0.5604
C90 C 0.1963(5) 0.7128(5) 0.5101(11)
H72 H 0.1652 0.7145 0.5131
C91 C 0.4324(5) 0.4451(5) 0.4870(13)
H73 H 0.4152 0.4178 0.4861
C92 C 0.4663(5) 0.4485(5) 0.4269(11)
H74 H 0.4701 0.4253 0.3846
C93 C 0.4946(4) 0.4867(5) 0.4299(11)
C94 C 0.4863(5) 0.5189(5) 0.4940(11)
H75 H 0.5057 0.5442 0.5014
C95 C 0.4501(5) 0.5147(5) 0.5470(12)
H76 H 0.4442 0.5389 0.5865
C96 C 0.5864(6) 0.4633(5) 0.2625(12)
H77 H 0.5998 0.4375 0.2353
C97 C 0.5521(6) 0.4554(6) 0.3223(13)
H78 H 0.5424 0.4248 0.3333
C98 C 0.5322(4) 0.4926(4) 0.3654(11)
C99 C 0.5489(5) 0.5370(5) 0.3463(11)
H79 H 0.5370 0.5632 0.3743
C100 C 0.5825(5) 0.5427(5) 0.2874(10)
H80 H 0.5931 0.5731 0.2777
Cu11 Cu 0.18369(6) 0.80447(6) 0.44296(15)
Cu12 Cu 0.63462(6) 0.52173(6) 0.12619(13)
N26 N 0.3989(4) 0.4924(4) 0.7427(9)
Cu7 Cu 0.81631(6) 0.19553(6) 0.94296(15)
N14 N 0.8833(4) 0.1913(4) 0.9248(9)
C51 C 0.9023(5) 0.1770(7) 0.8495(11)
H41 H 0.8834 0.1693 0.8032
C52 C 0.9477(5) 0.1730(6) 0.8364(9)
H42 H 0.9589 0.1638 0.7822
C53 C 0.9755(4) 0.1825(4) 0.9036(9)
C54 C 0.9565(5) 0.1969(6) 0.9838(11)
C55 C 0.9106(5) 0.2004(6) 0.9901(10)
N24 N 0.7904(4) 0.1318(4) 0.9274(9)
N25 N 0.7820(4) 0.2505(4) 0.9819(9)
N14_2 N 0.1167(4) 0.8087(4) 0.4248(9)
C51_2 C 0.0977(5) 0.8230(7) 0.3495(11)
H41_2 H 0.1166 0.8307 0.3032
C52_2 C 0.0523(5) 0.8270(6) 0.3364(9)
H42_2 H 0.0411 0.8362 0.2822
C53_2 C 0.0245(4) 0.8175(4) 0.4036(9)
C54_2 C 0.0435(5) 0.8031(6) 0.4838(11)
H43 H 0.0254 0.7961 0.5316
C55_2 C 0.0894(5) 0.7996(6) 0.4901(10)
H44 H 0.1017 0.7904 0.5434
N24_2 N 0.2096(4) 0.8682(4) 0.4274(9)
Cu8_2 Cu 0.81573(6) 0.83590(6) 0.36157(14)
N15_2 N 0.8824(4) 0.8328(4) 0.3792(9)
N16_2 N 0.7900(4) 0.8977(4) 0.3966(10)
N18_2 N 0.7815(4) 0.7860(4) 0.3004(7)
N19_2 N 0.6687(4) 0.5834(4) 0.1427(9)
N20_2 N 0.6715(4) 0.4649(4) 0.0914(9)
N22_2 N 0.5778(4) 0.5231(4) 0.0453(9)
C56_2 C 0.9087(5) 0.8274(7) 0.3091(12)
H45_2 H 0.8958 0.8277 0.2537
C57_2 C 0.9542(5) 0.8216(6) 0.3164(11)
H46_2 H 0.9714 0.8172 0.2662
C58_2 C 0.9746(4) 0.8222(4) 0.3978(10)
C59_2 C 0.9486(5) 0.8292(5) 0.4684(10)
H47_2 H 0.9613 0.8308 0.5240
C60_2 C 0.9034(5) 0.8337(6) 0.4577(11)
H48_2 H 0.8859 0.8378 0.5076
C61_2 C 0.8168(7) 0.9312(6) 0.4301(16)
H49_2 H 0.8460 0.9232 0.4451
C62_2 C 0.8020(6) 0.9792(6) 0.4438(15)
C63_2 C 0.7588(5) 0.9897(5) 0.4138(12)
C64_2 C 0.7319(5) 0.9550(6) 0.3829(14)
H51_2 H 0.7024 0.9613 0.3678
C65_2 C 0.7491(5) 0.9101(6) 0.3741(16)
H52_2 H 0.7306 0.8870 0.3508
C71_2 C 0.7378(5) 0.7811(5) 0.3054(11)
H57_2 H 0.7218 0.8047 0.3339
C72_2 C 0.7142(4) 0.7436(5) 0.2714(11)
H58_2 H 0.6831 0.7426 0.2756
C73_2 C 0.7371(4) 0.7076(4) 0.2313(10)
C74_2 C 0.7839(4) 0.7116(5) 0.2295(11)
H59_2 H 0.8012 0.6875 0.2062
C75_2 C 0.8036(4) 0.7507(5) 0.2618(11)
H60_2 H 0.8345 0.7533 0.2569
C76_2 C 0.6479(4) 0.6240(4) 0.1520(10)
H61_2 H 0.6175 0.6253 0.1394
C77_2 C 0.6687(4) 0.6646(4) 0.1794(10)
H62_2 H 0.6523 0.6924 0.1847
C78_2 C 0.7138(4) 0.6644(4) 0.1991(9)
C79_2 C 0.7359(4) 0.6222(5) 0.1864(13)
H63_2 H 0.7664 0.6201 0.1975
C80_2 C 0.7133(5) 0.5837(5) 0.1578(15)
H64_2 H 0.7293 0.5560 0.1481
C81_2 C 0.6550(6) 0.4334(7) 0.0357(17)
H65_2 H 0.6280 0.4405 0.0082
C82_2 C 0.6754(5) 0.3906(7) 0.0157(19)
C83_2 C 0.7164(4) 0.3798(5) 0.0479(11)
C84_2 C 0.7329(7) 0.4116(7) 0.1048(16)
H67_2 H 0.7598 0.4051 0.1330
C85_2 C 0.7108(7) 0.4544(7) 0.1230(16)
H68_2 H 0.7249 0.4762 0.1592
C88_2 C 0.7392(4) 0.3345(5) 0.0264(10)
C89_2 C 0.7830(5) 0.3294(5) 0.0363(11)
H71_2 H 0.7999 0.3537 0.0604
C90_2 C 0.8037(5) 0.2872(5) 0.0101(11)
H72_2 H 0.8348 0.2855 0.0131
H75_2 H 0.4943 0.4558 0.0014
C95_2 C 0.5499(5) 0.4853(5) 0.0470(12)
H76_2 H 0.5558 0.4611 0.0865
H66_2 H 0.6607 0.3691 0.9798
C86_2 C 0.7389(5) 0.2546(5) 0.9735(17)
H69_2 H 0.7224 0.2289 0.9537
C87_2 C 0.7165(5) 0.2967(6) 0.9935(16)
H70_2 H 0.6858 0.2989 0.9842
C91_2 C 0.5676(5) 0.5549(5) 0.9870(13)
H73_2 H 0.5848 0.5822 0.9861
C92_2 C 0.5337(5) 0.5515(5) 0.9269(11)
H74_2 H 0.5299 0.5747 0.8846
C93_2 C 0.5054(4) 0.5133(5) 0.9299(11)
C94_2 C 0.5137(5) 0.4811(5) 0.9940(11)
C96_2 C 0.4136(6) 0.5367(5) 0.7625(12)
H77_2 H 0.4002 0.5625 0.7353
C97_2 C 0.4479(6) 0.5446(6) 0.8223(13)
H78_2 H 0.4576 0.5752 0.8333
C98_2 C 0.4678(4) 0.5074(4) 0.8654(11)
C99_2 C 0.4511(5) 0.4630(5) 0.8463(11)
H79_2 H 0.4630 0.4368 0.8743
C100_2 C 0.4175(5) 0.4573(5) 0.7874(10)
H80_2 H 0.4069 0.4269 0.7777
H50 H 0.6800 0.0017 0.9707
C66 C 0.7471(6) 0.1230(6) 0.9279(19)
H53 H 0.7272 0.1481 0.9316
C67 C 0.7304(5) 0.0780(6) 0.9233(17)
H54 H 0.6996 0.0733 0.9234
C68 C 0.7582(5) 0.0405(5) 0.9185(13)
C69 C 0.8031(5) 0.0484(6) 0.9216(16)
H55 H 0.8231 0.0233 0.9205
C70 C 0.8182(5) 0.0934(6) 0.9263(15)
H56 H 0.8489 0.0985 0.9289
H50_2 H 0.3200 0.9983 0.4707
C66_2 C 0.2529(6) 0.8770(6) 0.4279(19)
H53_2 H 0.2728 0.8519 0.4316
C67_2 C 0.2696(5) 0.9220(6) 0.4233(17)
H54_2 H 0.3004 0.9267 0.4234
C68_2 C 0.2418(5) 0.9595(5) 0.4185(13)
C69_2 C 0.1969(5) 0.9516(6) 0.4216(16)
H55_2 H 0.1769 0.9767 0.4205
C70_2 C 0.1818(5) 0.9066(6) 0.4263(15)
H56_2 H 0.1511 0.9015 0.4289
N17 N 0.2904(4) 0.8682(4) 0.9274(9)
H50_3 H 0.1800 0.9983 0.9707
C66_3 C 0.2471(6) 0.8770(6) 0.9279(19)
H53_3 H 0.2272 0.8519 0.9316
C67_3 C 0.2304(5) 0.9220(6) 0.9233(17)
H54_3 H 0.1996 0.9267 0.9234
C68_3 C 0.2582(5) 0.9595(5) 0.9185(13)
C69_3 C 0.3031(5) 0.9516(6) 0.9216(16)
H55_3 H 0.3231 0.9767 0.9205
C70_3 C 0.3182(5) 0.9066(6) 0.9263(15)
H56_3 H 0.3489 0.9015 0.9289
Cu10 Cu 0.31631(6) 0.80447(6) 0.94296(15)
N17_2 N 0.7096(4) 0.1318(4) 0.4274(9)
H50_4 H 0.8200 0.0017 0.4707
C66_4 C 0.7529(6) 0.1230(6) 0.4279(19)
H53_4 H 0.7728 0.1481 0.4316
C67_4 C 0.7696(5) 0.0780(6) 0.4233(17)
H54_4 H 0.8004 0.0733 0.4234
C68_4 C 0.7418(5) 0.0405(5) 0.4185(13)
C69_4 C 0.6969(5) 0.0484(6) 0.4216(16)
H55_4 H 0.6769 0.0233 0.4205
C70_4 C 0.6818(5) 0.0934(6) 0.4263(15)
H56_4 H 0.6511 0.0985 0.4289
Cu10_2 Cu 0.68369(6) 0.19553(6) 0.44296(15)
N23_2 N 0.1011(4) 0.4924(4) 0.2427(9)
H75_3 H 0.0057 0.4558 0.5014
C96_3 C 0.0864(6) 0.5367(5) 0.2625(12)
H77_3 H 0.0998 0.5625 0.2353
C97_3 C 0.0521(6) 0.5446(6) 0.3223(13)
H78_3 H 0.0424 0.5752 0.3333
C98_3 C 0.0322(4) 0.5074(4) 0.3654(11)
C99_3 C 0.0489(5) 0.4630(5) 0.3463(11)
H79_3 H 0.0370 0.4368 0.3743
C100_3 C 0.0825(5) 0.4573(5) 0.2874(10)
H80_3 H 0.0931 0.4269 0.2777
Cu12_2 Cu 0.13462(6) 0.47827(6) 0.12619(13)
Cu8_3 Cu 0.68427(6) 0.83590(6) 0.86157(14)
Cu9_2 Cu 0.86538(6) 0.52173(6) 0.62619(13)
N14_3 N 0.3833(4) 0.8087(4) 0.9248(9)
N15_3 N 0.6176(4) 0.8328(4) 0.8792(9)
N16_3 N 0.7100(4) 0.8977(4) 0.8966(10)
N18_3 N 0.7185(4) 0.7860(4) 0.8004(7)
N19_3 N 0.8313(4) 0.5834(4) 0.6427(9)
N20_3 N 0.8285(4) 0.4649(4) 0.5914(9)
N21_2 N 0.7180(4) 0.2505(4) 0.4819(9)
N22_3 N 0.9222(4) 0.5231(4) 0.5453(9)
C51_3 C 0.4023(5) 0.8230(7) 0.8495(11)
H41_3 H 0.3834 0.8307 0.8032
C52_3 C 0.4477(5) 0.8270(6) 0.8364(9)
H42_3 H 0.4589 0.8362 0.7822
C53_3 C 0.4755(4) 0.8175(4) 0.9036(9)
C54_3 C 0.4565(5) 0.8031(6) 0.9838(11)
C55_3 C 0.4106(5) 0.7996(6) 0.9901(10)
C56_3 C 0.5913(5) 0.8274(7) 0.8091(12)
H45_3 H 0.6042 0.8277 0.7537
C57_3 C 0.5458(5) 0.8216(6) 0.8164(11)
H46_3 H 0.5286 0.8172 0.7662
C58_3 C 0.5254(4) 0.8222(4) 0.8978(10)
C59_3 C 0.5514(5) 0.8292(5) 0.9684(10)
C60_3 C 0.5966(5) 0.8337(6) 0.9577(11)
C61_3 C 0.6832(7) 0.9312(6) 0.9301(16)
H49_3 H 0.6540 0.9232 0.9451
C62_3 C 0.6980(6) 0.9792(6) 0.9438(15)
C63_3 C 0.7412(5) 0.9897(5) 0.9138(12)
C64_3 C 0.7681(5) 0.9550(6) 0.8829(14)
H51_3 H 0.7976 0.9613 0.8678
C65_3 C 0.7509(5) 0.9101(6) 0.8741(16)
H52_3 H 0.7694 0.8870 0.8508
C71_3 C 0.7622(5) 0.7811(5) 0.8054(11)
H57_3 H 0.7782 0.8047 0.8339
C72_3 C 0.7858(4) 0.7436(5) 0.7714(11)
H58_3 H 0.8169 0.7426 0.7756
C73_3 C 0.7629(4) 0.7076(4) 0.7313(10)
C74_3 C 0.7161(4) 0.7116(5) 0.7295(11)
H59_3 H 0.6988 0.6875 0.7062
C75_3 C 0.6964(4) 0.7507(5) 0.7618(11)
H60_3 H 0.6655 0.7533 0.7569
C76_3 C 0.8521(4) 0.6240(4) 0.6520(10)
H61_3 H 0.8825 0.6253 0.6394
C77_3 C 0.8313(4) 0.6646(4) 0.6794(10)
H62_3 H 0.8477 0.6924 0.6847
C78_3 C 0.7862(4) 0.6644(4) 0.6991(9)
C79_3 C 0.7641(4) 0.6222(5) 0.6864(13)
H63_3 H 0.7336 0.6201 0.6975
C80_3 C 0.7867(5) 0.5837(5) 0.6578(15)
H64_3 H 0.7707 0.5560 0.6481
C81_3 C 0.8450(6) 0.4334(7) 0.5357(17)
H65_3 H 0.8720 0.4405 0.5082
C82_3 C 0.8246(5) 0.3906(7) 0.5157(19)
H66_3 H 0.8393 0.3691 0.4798
C83_3 C 0.7836(4) 0.3798(5) 0.5479(11)
C84_3 C 0.7671(7) 0.4116(7) 0.6048(16)
H67_3 H 0.7402 0.4051 0.6330
C85_3 C 0.7892(7) 0.4544(7) 0.6230(16)
H68_3 H 0.7751 0.4762 0.6592
C86_3 C 0.7611(5) 0.2546(5) 0.4735(17)
H69_3 H 0.7776 0.2289 0.4537
C87_3 C 0.7835(5) 0.2967(6) 0.4935(16)
H70_3 H 0.8142 0.2989 0.4842
C88_3 C 0.7608(4) 0.3345(5) 0.5264(10)
C89_3 C 0.7170(5) 0.3294(5) 0.5363(11)
H71_3 H 0.7001 0.3537 0.5604
C90_3 C 0.6963(5) 0.2872(5) 0.5101(11)
H72_3 H 0.6652 0.2855 0.5131
C91_3 C 0.9324(5) 0.5549(5) 0.4870(13)
H73_3 H 0.9152 0.5822 0.4861
C92_3 C 0.9663(5) 0.5515(5) 0.4269(11)
H74_3 H 0.9701 0.5747 0.3846
C93_3 C 0.9946(4) 0.5133(5) 0.4299(11)
C94_3 C 0.9863(5) 0.4811(5) 0.4940(11)
C95_3 C 0.9501(5) 0.4853(5) 0.5470(12)
H76_3 H 0.9442 0.4611 0.5865
N25_2 N 0.2820(4) 0.7495(4) 0.9819(9)
N26_2 N 0.8989(4) 0.5076(4) 0.7427(9)
Cu8_4 Cu 0.31573(6) 0.16410(6) 0.36157(14)
N14_4 N 0.6167(4) 0.1913(4) 0.4248(9)
N15_4 N 0.3824(4) 0.1672(4) 0.3792(9)
N16_4 N 0.2900(4) 0.1023(4) 0.3966(10)
N18_4 N 0.2815(4) 0.2140(4) 0.3004(7)
N19_4 N 0.1687(4) 0.4166(4) 0.1427(9)
N20_4 N 0.1715(4) 0.5351(4) 0.0914(9)
N22_4 N 0.0778(4) 0.4769(4) 0.0453(9)
C51_4 C 0.5977(5) 0.1770(7) 0.3495(11)
H41_4 H 0.6166 0.1693 0.3032
C52_4 C 0.5523(5) 0.1730(6) 0.3364(9)
H42_4 H 0.5411 0.1638 0.2822
C53_4 C 0.5245(4) 0.1825(4) 0.4036(9)
C54_4 C 0.5435(5) 0.1969(6) 0.4838(11)
H43_2 H 0.5254 0.2039 0.5316
C55_4 C 0.5894(5) 0.2004(6) 0.4901(10)
H44_2 H 0.6017 0.2096 0.5434
C56_4 C 0.4087(5) 0.1726(7) 0.3091(12)
H45_4 H 0.3958 0.1723 0.2537
C57_4 C 0.4542(5) 0.1784(6) 0.3164(11)
H46_4 H 0.4714 0.1828 0.2662
C58_4 C 0.4746(4) 0.1778(4) 0.3978(10)
C59_4 C 0.4486(5) 0.1708(5) 0.4684(10)
H47_3 H 0.4613 0.1692 0.5240
C60_4 C 0.4034(5) 0.1663(6) 0.4577(11)
H48_3 H 0.3859 0.1622 0.5076
C61_4 C 0.3168(7) 0.0688(6) 0.4301(16)
H49_4 H 0.3460 0.0768 0.4451
C62_4 C 0.3020(6) 0.0208(6) 0.4438(15)
C63_4 C 0.2588(5) 0.0103(5) 0.4138(12)
C64_4 C 0.2319(5) 0.0450(6) 0.3829(14)
H51_4 H 0.2024 0.0387 0.3678
C65_4 C 0.2491(5) 0.0899(6) 0.3741(16)
H52_4 H 0.2306 0.1130 0.3508
C71_4 C 0.2378(5) 0.2189(5) 0.3054(11)
H57_4 H 0.2218 0.1953 0.3339
C72_4 C 0.2142(4) 0.2564(5) 0.2714(11)
H58_4 H 0.1831 0.2574 0.2756
C73_4 C 0.2371(4) 0.2924(4) 0.2313(10)
C74_4 C 0.2839(4) 0.2884(5) 0.2295(11)
H59_4 H 0.3012 0.3125 0.2062
C75_4 C 0.3036(4) 0.2493(5) 0.2618(11)
H60_4 H 0.3345 0.2467 0.2569
C76_4 C 0.1479(4) 0.3760(4) 0.1520(10)
H61_4 H 0.1175 0.3747 0.1394
C77_4 C 0.1687(4) 0.3354(4) 0.1794(10)
H62_4 H 0.1523 0.3076 0.1847
C78_4 C 0.2138(4) 0.3356(4) 0.1991(9)
C79_4 C 0.2359(4) 0.3778(5) 0.1864(13)
H63_4 H 0.2664 0.3799 0.1975
C80_4 C 0.2133(5) 0.4163(5) 0.1578(15)
H64_4 H 0.2293 0.4440 0.1481
C81_4 C 0.1550(6) 0.5666(7) 0.0357(17)
H65_4 H 0.1280 0.5595 0.0082
C82_4 C 0.1754(5) 0.6094(7) 0.0157(19)
C83_4 C 0.2164(4) 0.6202(5) 0.0479(11)
C84_4 C 0.2329(7) 0.5884(7) 0.1048(16)
H67_4 H 0.2598 0.5949 0.1330
C85_4 C 0.2108(7) 0.5456(7) 0.1230(16)
H68_4 H 0.2249 0.5238 0.1592
C88_4 C 0.2392(4) 0.6655(5) 0.0264(10)
C89_4 C 0.2830(5) 0.6706(5) 0.0363(11)
H71_4 H 0.2999 0.6463 0.0604
C90_4 C 0.3037(5) 0.7128(5) 0.0101(11)
H72_4 H 0.3348 0.7145 0.0131
C95_4 C 0.0499(5) 0.5147(5) 0.0470(12)
H76_4 H 0.0558 0.5389 0.0865
H66_4 H 0.1607 0.6309 0.9798
C86_4 C 0.2389(5) 0.7454(5) 0.9735(17)
H69_4 H 0.2224 0.7711 0.9537
C87_4 C 0.2165(5) 0.7033(6) 0.9935(16)
H70_4 H 0.1858 0.7011 0.9842
C91_4 C 0.0676(5) 0.4451(5) 0.9870(13)
H73_4 H 0.0848 0.4178 0.9861
C92_4 C 0.0337(5) 0.4485(5) 0.9269(11)
H74_4 H 0.0299 0.4253 0.8846
C93_4 C 0.0054(4) 0.4867(5) 0.9299(11)
C94_4 C 0.0137(5) 0.5189(5) 0.9940(11)
C96_4 C 0.9136(6) 0.4633(5) 0.7625(12)
H77_4 H 0.9002 0.4375 0.7353
C97_4 C 0.9479(6) 0.4554(6) 0.8223(13)
H78_4 H 0.9576 0.4248 0.8333
C98_4 C 0.9678(4) 0.4926(4) 0.8654(11)
C99_4 C 0.9511(5) 0.5370(5) 0.8463(11)
H79_4 H 0.9630 0.5632 0.8743
C100_4 C 0.9175(5) 0.5427(5) 0.7874(10)
H80_4 H 0.9069 0.5731 0.7777
H43_3 H 0.9746 0.2039 0.0316
H44_3 H 0.8983 0.2096 0.0434
H43_4 H 0.4746 0.7961 0.0316
H44_4 H 0.3983 0.7904 0.0434
H47_4 H 0.5387 0.8308 0.0240
H48_4 H 0.6141 0.8378 0.0076
H75_4 H 0.9943 0.5442 0.0014
loop_
_geom_bond_atom_site_label_1
_geom_bond_atom_site_label_2
_geom_bond_site_symmetry_1
_geom_bond_site_symmetry_2
Cu1 N1 1_555 1_555
Cu2 N2 1_555 1_555
N1 C1 1_555 1_555
N2 C6 1_555 1_555
N3 Cu2 1_555 1_555
N4 C16 1_555 1_555
N5 Cu2 1_555 1_555
N6 C26 1_555 1_555
C1 H1 1_555 1_555
C2 C1 1_555 1_555
H2 C2 1_555 1_555
C3 C2 1_555 1_555
C4 C3 1_555 1_555
H3 C4 1_555 1_555
C5 N1 1_555 1_555
H4 C5 1_555 1_555
C6 H5 1_555 1_555
C7 C6 1_555 1_555
H6 C7 1_555 1_555
C8 C3 1_555 1_555
C9 C8 1_555 1_555
H7 C9 1_555 1_555
C10 N2 1_555 1_555
H8 C10 1_555 1_555
C11 N3 1_555 1_555
H9 C11 1_555 1_555
C12 C11 1_555 1_555
H10 C12 1_555 1_555
C13 C12 1_555 1_555
C14 C13 1_555 1_555
H11 C14 1_555 1_555
C15 N3 1_555 1_555
H12 C15 1_555 1_555
C16 H13 1_555 1_555
C17 C16 1_555 1_555
H14 C17 1_555 1_555
C18 C13 1_555 1_555
C19 C18 1_555 1_555
H15 C19 1_555 1_555
C20 N4 1_555 1_555
H16 C20 1_555 1_555
C21 N5 1_555 1_555
H17 C21 1_555 1_555
C22 C21 1_555 1_555
H18 C22 1_555 1_555
C23 C22 1_555 1_555
C24 C23 1_555 1_555
H19 C24 1_555 1_555
C25 N5 1_555 1_555
H20 C25 1_555 1_555
C26 H21 1_555 1_555
C27 C26 1_555 1_555
H22 C27 1_555 1_555
C28 C23 1_555 1_555
C29 C28 1_555 1_555
H23 C29 1_555 1_555
C30 N6 1_555 1_555
H24 C30 1_555 1_555
H25 C31 1_555 1_555
C32 C31 1_555 1_555
H26 C32 1_555 1_555
C33 C32 1_555 1_555
Cu4 N4 1_555 1_555
N11 Cu1 1_555 1_555
N13 Cu1 1_555 1_555
C4 C5 1_555 1_555
C7 C8 1_555 1_555
C9 C10 1_555 1_555
C14 C15 1_555 1_555
C17 C18 1_555 1_555
C19 C20 1_555 1_555
C24 C25 1_555 1_555
C27 C28 1_555 1_555
C29 C30 1_555 1_555
N8 C36 1_555 1_555
C36 H29 1_555 1_555
Cu6 N8 1_555 1_555
N7 Cu6 1_555 1_555
N9 Cu6 1_555 1_555
N13 C46 1_555 1_555
H27 C34 1_555 1_555
C35 N7 1_555 1_555
H28 C35 1_555 1_555
C41 N9 1_555 1_555
H33 C41 1_555 1_555
C42 C41 1_555 1_555
H34 C42 1_555 1_555
C43 C42 1_555 1_555
C44 C43 1_555 1_555
H35 C44 1_555 1_555
C45 N9 1_555 1_555
H36 C45 1_555 1_555
C46 H37 1_555 1_555
C47 C46 1_555 1_555
H38 C47 1_555 1_555
C48 C43 1_555 1_555
C49 C48 1_555 1_555
H39 C49 1_555 1_555
C50 N13 1_555 1_555
H40 C50 1_555 1_555
C34 C35 1_555 1_555
C44 C45 1_555 1_555
C47 C48 1_555 1_555
C49 C50 1_555 1_555
Cu4 N1_2 1_555 1_555
N1_2 C1_2 1_555 1_555
C1_2 H1_2 1_555 1_555
C2_2 C1_2 1_555 1_555
H2_2 C2_2 1_555 1_555
C3_2 C2_2 1_555 1_555
C4_2 C3_2 1_555 1_555
H3_2 C4_2 1_555 1_555
C5_2 N1_2 1_555 1_555
H4_2 C5_2 1_555 1_555
N13_2 Cu4 1_555 1_555
C4_2 C5_2 1_555 1_555
N8_2 C36_2 1_555 1_555
C36_2 H29_2 1_555 1_555
Cu6_2 N8_2 1_555 1_555
Cu2_2 N2_2 1_555 1_555
N2_2 C6_2 1_555 1_555
N3_2 Cu2_2 1_555 1_555
N11 C16_2 1_555 1_555
N5_2 Cu2_2 1_555 1_555
N6_2 C26_2 1_555 1_555
C6_2 H5_2 1_555 1_555
C7_2 C6_2 1_555 1_555
H6_2 C7_2 1_555 1_555
C9_2 C8_2 1_555 1_555
H7_2 C9_2 1_555 1_555
C10_2 N2_2 1_555 1_555
H8_2 C10_2 1_555 1_555
C11_2 N3_2 1_555 1_555
H9_2 C11_2 1_555 1_555
C12_2 C11_2 1_555 1_555
H10_2 C12_2 1_555 1_555
C13_2 C12_2 1_555 1_555
C14_2 C13_2 1_555 1_555
H11_2 C14_2 1_555 1_555
C15_2 N3_2 1_555 1_555
H12_2 C15_2 1_555 1_555
C16_2 H13_2 1_555 1_555
C17_2 C16_2 1_555 1_555
H14_2 C17_2 1_555 1_555
C18_2 C13_2 1_555 1_555
C19_2 C18_2 1_555 1_555
H15_2 C19_2 1_555 1_555
C20_2 N11 1_555 1_555
H16_2 C20_2 1_555 1_555
C21_2 N5_2 1_555 1_555
H17_2 C21_2 1_555 1_555
C22_2 C21_2 1_555 1_555
H18_2 C22_2 1_555 1_555
C23_2 C22_2 1_555 1_555
C24_2 C23_2 1_555 1_555
H19_2 C24_2 1_555 1_555
C25_2 N5_2 1_555 1_555
H20_2 C25_2 1_555 1_555
C26_2 H21_2 1_555 1_555
C27_2 C26_2 1_555 1_555
H22_2 C27_2 1_555 1_555
C28_2 C23_2 1_555 1_555
C29_2 C28_2 1_555 1_555
H23_2 C29_2 1_555 1_555
C30_2 N6_2 1_555 1_555
H24_2 C30_2 1_555 1_555
H25_2 C31_2 1_555 1_555
C32_2 C31_2 1_555 1_555
H26_2 C32_2 1_555 1_555
C33_2 C32_2 1_555 1_555
H30 C37 1_555 1_555
C38 C33_2 1_555 1_555
C7_2 C8_2 1_555 1_555
C9_2 C10_2 1_555 1_555
C14_2 C15_2 1_555 1_555
C17_2 C18_2 1_555 1_555
C19_2 C20_2 1_555 1_555
C24_2 C25_2 1_555 1_555
C27_2 C28_2 1_555 1_555
C29_2 C30_2 1_555 1_555
C37 C38 1_555 1_555
N7_2 Cu6_2 1_555 1_555
N9_2 Cu6_2 1_555 1_555
N13_2 C46_2 1_555 1_555
H27_2 C34_2 1_555 1_555
C35_2 N7_2 1_555 1_555
H28_2 C35_2 1_555 1_555
H31_2 C39 1_555 1_555
H32 C40 1_555 1_555
C41_2 N9_2 1_555 1_555
H33_2 C41_2 1_555 1_555
C42_2 C41_2 1_555 1_555
H34_2 C42_2 1_555 1_555
C43_2 C42_2 1_555 1_555
C44_2 C43_2 1_555 1_555
H35_2 C44_2 1_555 1_555
C45_2 N9_2 1_555 1_555
H36_2 C45_2 1_555 1_555
C46_2 H37_2 1_555 1_555
C47_2 C46_2 1_555 1_555
H38_2 C47_2 1_555 1_555
C48_2 C43_2 1_555 1_555
C49_2 C48_2 1_555 1_555
H39_2 C49_2 1_555 1_555
C50_2 N13_2 1_555 1_555
H40_2 C50_2 1_555 1_555
C34_2 C35_2 1_555 1_555
C39 C40 1_555 1_555
C44_2 C45_2 1_555 1_555
C47_2 C48_2 1_555 1_555
C49_2 C50_2 1_555 1_555
N7_3 Cu3 1_555 1_555
N9_3 Cu3 1_555 1_555
N10 C46_3 1_555 1_555
H27_3 C34_3 1_555 1_555
C35_3 N7_3 1_555 1_555
H28_3 C35_3 1_555 1_555
C41_3 N9_3 1_555 1_555
H33_3 C41_3 1_555 1_555
C42_3 C41_3 1_555 1_555
H34_3 C42_3 1_555 1_555
C43_3 C42_3 1_555 1_555
C44_3 C43_3 1_555 1_555
H35_3 C44_3 1_555 1_555
C45_3 N9_3 1_555 1_555
H36_3 C45_3 1_555 1_555
C46_3 H37_3 1_555 1_555
C47_3 C46_3 1_555 1_555
H38_3 C47_3 1_555 1_555
C48_3 C43_3 1_555 1_555
C49_3 C48_3 1_555 1_555
H39_3 C49_3 1_555 1_555
C50_3 N10 1_555 1_555
H40_3 C50_3 1_555 1_555
Cu5 N10 1_555 1_555
N12 Cu3 1_555 1_555
C34_3 C35_3 1_555 1_555
C44_3 C45_3 1_555 1_555
C47_3 C48_3 1_555 1_555
C49_3 C50_3 1_555 1_555
N12 C36_3 1_555 1_555
C36_3 H29_3 1_555 1_555
C37_2 C36_3 1_555 1_555
H30_2 C37_2 1_555 1_555
C37_2 C38_2 1_555 1_555
Cu5 N1_3 1_555 1_555
Cu2_3 N2_3 1_555 1_555
N1_3 C1_3 1_555 1_555
N2_3 C6_3 1_555 1_555
N3_3 Cu2_3 1_555 1_555
N4_2 C16_3 1_555 1_555
C1_3 H1_3 1_555 1_555
C2_3 C1_3 1_555 1_555
H2_3 C2_3 1_555 1_555
C3_3 C2_3 1_555 1_555
C4_3 C3_3 1_555 1_555
C5_3 N1_3 1_555 1_555
H4_3 C5_3 1_555 1_555
C6_3 H5_3 1_555 1_555
C7_3 C6_3 1_555 1_555
H6_3 C7_3 1_555 1_555
C8_3 C3_3 1_555 1_555
C9_3 C8_3 1_555 1_555
C10_3 N2_3 1_555 1_555
C11_3 N3_3 1_555 1_555
H9_3 C11_3 1_555 1_555
C12_3 C11_3 1_555 1_555
H10_3 C12_3 1_555 1_555
C13_3 C12_3 1_555 1_555
C14_3 C13_3 1_555 1_555
H11_3 C14_3 1_555 1_555
C15_3 N3_3 1_555 1_555
H12_3 C15_3 1_555 1_555
C16_3 H13_3 1_555 1_555
C17_3 C16_3 1_555 1_555
H14_3 C17_3 1_555 1_555
C18_3 C13_3 1_555 1_555
C19_3 C18_3 1_555 1_555
H15_3 C19_3 1_555 1_555
C20_3 N4_2 1_555 1_555
H16_3 C20_3 1_555 1_555
Cu4_2 N4_2 1_555 1_555
N11_2 Cu5 1_555 1_555
C4_3 C5_3 1_555 1_555
C7_3 C8_3 1_555 1_555
C9_3 C10_3 1_555 1_555
C14_3 C15_3 1_555 1_555
C17_3 C18_3 1_555 1_555
C19_3 C20_3 1_555 1_555
N7_4 Cu3_2 1_555 1_555
N9_4 Cu3_2 1_555 1_555
N10_2 C46_4 1_555 1_555
H27_4 C34_4 1_555 1_555
C35_4 N7_4 1_555 1_555
H28_4 C35_4 1_555 1_555
C41_4 N9_4 1_555 1_555
H33_4 C41_4 1_555 1_555
C42_4 C41_4 1_555 1_555
H34_4 C42_4 1_555 1_555
C43_4 C42_4 1_555 1_555
C44_4 C43_4 1_555 1_555
H35_4 C44_4 1_555 1_555
C45_4 N9_4 1_555 1_555
H36_4 C45_4 1_555 1_555
C46_4 H37_4 1_555 1_555
C47_4 C46_4 1_555 1_555
H38_4 C47_4 1_555 1_555
C48_4 C43_4 1_555 1_555
C49_4 C48_4 1_555 1_555
H39_4 C49_4 1_555 1_555
C50_4 N10_2 1_555 1_555
H40_4 C50_4 1_555 1_555
Cu4_2 N10_2 1_555 1_555
N12_2 Cu3_2 1_555 1_555
C34_4 C35_4 1_555 1_555
C44_4 C45_4 1_555 1_555
C47_4 C48_4 1_555 1_555
C49_4 C50_4 1_555 1_555
N6_3 C26_3 1_555 1_555
N12_2 C36_4 1_555 1_555
C21_3 N5_3 1_555 1_555
C22_3 C21_3 1_555 1_555
H18_3 C22_3 1_555 1_555
C23_3 C22_3 1_555 1_555
C24_3 C23_3 1_555 1_555
H19_3 C24_3 1_555 1_555
C25_3 N5_3 1_555 1_555
H20_3 C25_3 1_555 1_555
C26_3 H21_3 1_555 1_555
C27_3 C26_3 1_555 1_555
H22_3 C27_3 1_555 1_555
C28_3 C23_3 1_555 1_555
C29_3 C28_3 1_555 1_555
H23_3 C29_3 1_555 1_555
C30_3 N6_3 1_555 1_555
H24_3 C30_3 1_555 1_555
H25_3 C31_3 1_555 1_555
C32_3 C31_3 1_555 1_555
H26_3 C32_3 1_555 1_555
C33_3 C32_3 1_555 1_555
C36_4 H29_4 1_555 1_555
C37_3 C36_4 1_555 1_555
H30_3 C37_3 1_555 1_555
C38_3 C33_3 1_555 1_555
C24_3 C25_3 1_555 1_555
C27_3 C28_3 1_555 1_555
C29_3 C30_3 1_555 1_555
C37_3 C38_3 1_555 1_555
Cu2_4 N2_4 1_555 1_555
N2_4 C6_4 1_555 1_555
N3_4 Cu2_4 1_555 1_555
N11_2 C16_4 1_555 1_555
C6_4 H5_4 1_555 1_555
C7_4 C6_4 1_555 1_555
H6_4 C7_4 1_555 1_555
C9_4 C8_4 1_555 1_555
C10_4 N2_4 1_555 1_555
C11_4 N3_4 1_555 1_555
H9_4 C11_4 1_555 1_555
C12_4 C11_4 1_555 1_555
H10_4 C12_4 1_555 1_555
C13_4 C12_4 1_555 1_555
C14_4 C13_4 1_555 1_555
H11_4 C14_4 1_555 1_555
C15_4 N3_4 1_555 1_555
H12_4 C15_4 1_555 1_555
C16_4 H13_4 1_555 1_555
C17_4 C16_4 1_555 1_555
H14_4 C17_4 1_555 1_555
C18_4 C13_4 1_555 1_555
C19_4 C18_4 1_555 1_555
H15_4 C19_4 1_555 1_555
C20_4 N11_2 1_555 1_555
H16_4 C20_4 1_555 1_555
C7_4 C8_4 1_555 1_555
C9_4 C10_4 1_555 1_555
C14_4 C15_4 1_555 1_555
C17_4 C18_4 1_555 1_555
C19_4 C20_4 1_555 1_555
Cu4_2 N1_4 1_555 1_555
N1_4 C1_4 1_555 1_555
C1_4 H1_4 1_555 1_555
C2_4 C1_4 1_555 1_555
H2_4 C2_4 1_555 1_555
C3_4 C2_4 1_555 1_555
C4_4 C3_4 1_555 1_555
C5_4 N1_4 1_555 1_555
H4_4 C5_4 1_555 1_555
C4_4 C5_4 1_555 1_555
H30_4 C37_4 1_555 1_555
C37_4 C38_4 1_555 1_555
H32_2 C40_2 1_555 1_555
C39_2 C40_2 1_555 1_555
H32_3 C40_3 1_555 1_555
C39_3 C40_3 1_555 1_555
N6_4 C26_4 1_555 1_555
C21_4 N5_4 1_555 1_555
C22_4 C21_4 1_555 1_555
H18_4 C22_4 1_555 1_555
C23_4 C22_4 1_555 1_555
C24_4 C23_4 1_555 1_555
H19_4 C24_4 1_555 1_555
C25_4 N5_4 1_555 1_555
H20_4 C25_4 1_555 1_555
C26_4 H21_4 1_555 1_555
C27_4 C26_4 1_555 1_555
H22_4 C27_4 1_555 1_555
C28_4 C23_4 1_555 1_555
C29_4 C28_4 1_555 1_555
H23_4 C29_4 1_555 1_555
C30_4 N6_4 1_555 1_555
H24_4 C30_4 1_555 1_555
H25_4 C31_4 1_555 1_555
C32_4 C31_4 1_555 1_555
H26_4 C32_4 1_555 1_555
C33_4 C32_4 1_555 1_555
C24_4 C25_4 1_555 1_555
C27_4 C28_4 1_555 1_555
C29_4 C30_4 1_555 1_555
H31_4 C39_4 1_555 1_555
H32_4 C40_4 1_555 1_555
C39_4 C40_4 1_555 1_555
Cu8 N15 1_555 1_555
Cu9 N19 1_555 1_555
N15 C56 1_555 1_555
N16 Cu8 1_555 1_555
N18 Cu8 1_555 1_555
N19 C76 1_555 1_555
N20 Cu9 1_555 1_555
N21 C86 1_555 1_555
N22 Cu9 1_555 1_555
N23 C96 1_555 1_555
C56 H45 1_555 1_555
C57 C56 1_555 1_555
H46 C57 1_555 1_555
C59 C58 1_555 1_555
C60 N15 1_555 1_555
C61 N16 1_555 1_555
H49 C61 1_555 1_555
C62 C61 1_555 1_555
C63 C62 1_555 1_555
C64 C63 1_555 1_555
H51 C64 1_555 1_555
C65 N16 1_555 1_555
H52 C65 1_555 1_555
C71 N18 1_555 1_555
H57 C71 1_555 1_555
C72 C71 1_555 1_555
H58 C72 1_555 1_555
C73 C72 1_555 1_555
C74 C73 1_555 1_555
H59 C74 1_555 1_555
C75 N18 1_555 1_555
H60 C75 1_555 1_555
C76 H61 1_555 1_555
C77 C76 1_555 1_555
H62 C77 1_555 1_555
C78 C73 1_555 1_555
C79 C78 1_555 1_555
H63 C79 1_555 1_555
C80 N19 1_555 1_555
H64 C80 1_555 1_555
C81 N20 1_555 1_555
H65 C81 1_555 1_555
C82 C81 1_555 1_555
H66 C82 1_555 1_555
C83 C82 1_555 1_555
C84 C83 1_555 1_555
H67 C84 1_555 1_555
C85 N20 1_555 1_555
H68 C85 1_555 1_555
C86 H69 1_555 1_555
C87 C86 1_555 1_555
H70 C87 1_555 1_555
C88 C83 1_555 1_555
C89 C88 1_555 1_555
H71 C89 1_555 1_555
C90 N21 1_555 1_555
H72 C90 1_555 1_555
C91 N22 1_555 1_555
H73 C91 1_555 1_555
C92 C91 1_555 1_555
H74 C92 1_555 1_555
C93 C92 1_555 1_555
C94 C93 1_555 1_555
H75 C94 1_555 1_555
C95 N22 1_555 1_555
H76 C95 1_555 1_555
C96 H77 1_555 1_555
C97 C96 1_555 1_555
H78 C97 1_555 1_555
C98 C93 1_555 1_555
C99 C98 1_555 1_555
H79 C99 1_555 1_555
C100 N23 1_555 1_555
H80 C100 1_555 1_555
Cu11 N21 1_555 1_555
Cu12 N23 1_555 1_555
N26 Cu9 1_555 1_555
C57 C58 1_555 1_555
C59 C60 1_555 1_555
C64 C65 1_555 1_555
C74 C75 1_555 1_555
C77 C78 1_555 1_555
C79 C80 1_555 1_555
C84 C85 1_555 1_555
C87 C88 1_555 1_555
C89 C90 1_555 1_555
C94 C95 1_555 1_555
C97 C98 1_555 1_555
C99 C100 1_555 1_555
Cu7 N14 1_555 1_555
N14 C51 1_555 1_555
C51 H41 1_555 1_555
C52 C51 1_555 1_555
H42 C52 1_555 1_555
C53 C52 1_555 1_555
C54 C53 1_555 1_555
C55 N14 1_555 1_555
N24 Cu7 1_555 1_555
N25 Cu7 1_555 1_555
C54 C55 1_555 1_555
Cu11 N14_2 1_555 1_555
N14_2 C51_2 1_555 1_555
C51_2 H41_2 1_555 1_555
C52_2 C51_2 1_555 1_555
H42_2 C52_2 1_555 1_555
C53_2 C52_2 1_555 1_555
C54_2 C53_2 1_555 1_555
H43 C54_2 1_555 1_555
C55_2 N14_2 1_555 1_555
H44 C55_2 1_555 1_555
N24_2 Cu11 1_555 1_555
C54_2 C55_2 1_555 1_555
Cu8_2 N15_2 1_555 1_555
Cu12 N19_2 1_555 1_555
N15_2 C56_2 1_555 1_555
N16_2 Cu8_2 1_555 1_555
N18_2 Cu8_2 1_555 1_555
N19_2 C76_2 1_555 1_555
N20_2 Cu12 1_555 1_555
N22_2 Cu12 1_555 1_555
C56_2 H45_2 1_555 1_555
C57_2 C56_2 1_555 1_555
H46_2 C57_2 1_555 1_555
C59_2 C58_2 1_555 1_555
H47_2 C59_2 1_555 1_555
C60_2 N15_2 1_555 1_555
H48_2 C60_2 1_555 1_555
C61_2 N16_2 1_555 1_555
H49_2 C61_2 1_555 1_555
C62_2 C61_2 1_555 1_555
C63_2 C62_2 1_555 1_555
C64_2 C63_2 1_555 1_555
H51_2 C64_2 1_555 1_555
C65_2 N16_2 1_555 1_555
H52_2 C65_2 1_555 1_555
C71_2 N18_2 1_555 1_555
H57_2 C71_2 1_555 1_555
C72_2 C71_2 1_555 1_555
H58_2 C72_2 1_555 1_555
C73_2 C72_2 1_555 1_555
C74_2 C73_2 1_555 1_555
H59_2 C74_2 1_555 1_555
C75_2 N18_2 1_555 1_555
H60_2 C75_2 1_555 1_555
C76_2 H61_2 1_555 1_555
C77_2 C76_2 1_555 1_555
H62_2 C77_2 1_555 1_555
C78_2 C73_2 1_555 1_555
C79_2 C78_2 1_555 1_555
H63_2 C79_2 1_555 1_555
C80_2 N19_2 1_555 1_555
H64_2 C80_2 1_555 1_555
C81_2 N20_2 1_555 1_555
H65_2 C81_2 1_555 1_555
C82_2 C81_2 1_555 1_555
C83_2 C82_2 1_555 1_555
C84_2 C83_2 1_555 1_555
H67_2 C84_2 1_555 1_555
C85_2 N20_2 1_555 1_555
H68_2 C85_2 1_555 1_555
C88_2 C83_2 1_555 1_555
C89_2 C88_2 1_555 1_555
H71_2 C89_2 1_555 1_555
H72_2 C90_2 1_555 1_555
C95_2 N22_2 1_555 1_555
H76_2 C95_2 1_555 1_555
C57_2 C58_2 1_555 1_555
C59_2 C60_2 1_555 1_555
C64_2 C65_2 1_555 1_555
C74_2 C75_2 1_555 1_555
C77_2 C78_2 1_555 1_555
C79_2 C80_2 1_555 1_555
C84_2 C85_2 1_555 1_555
C89_2 C90_2 1_555 1_555
N25 C86_2 1_555 1_555
N26 C96_2 1_555 1_555
C86_2 H69_2 1_555 1_555
C87_2 C86_2 1_555 1_555
H70_2 C87_2 1_555 1_555
H73_2 C91_2 1_555 1_555
C92_2 C91_2 1_555 1_555
H74_2 C92_2 1_555 1_555
C93_2 C92_2 1_555 1_555
C94_2 C93_2 1_555 1_555
C96_2 H77_2 1_555 1_555
C97_2 C96_2 1_555 1_555
H78_2 C97_2 1_555 1_555
C98_2 C93_2 1_555 1_555
C99_2 C98_2 1_555 1_555
H79_2 C99_2 1_555 1_555
C100_2 N26 1_555 1_555
H80_2 C100_2 1_555 1_555
C97_2 C98_2 1_555 1_555
C99_2 C100_2 1_555 1_555
N24 C66 1_555 1_555
C66 H53 1_555 1_555
C67 C66 1_555 1_555
H54 C67 1_555 1_555
C69 C68 1_555 1_555
H55 C69 1_555 1_555
C70 N24 1_555 1_555
H56 C70 1_555 1_555
C67 C68 1_555 1_555
C69 C70 1_555 1_555
N24_2 C66_2 1_555 1_555
C66_2 H53_2 1_555 1_555
C67_2 C66_2 1_555 1_555
H54_2 C67_2 1_555 1_555
C69_2 C68_2 1_555 1_555
H55_2 C69_2 1_555 1_555
C70_2 N24_2 1_555 1_555
H56_2 C70_2 1_555 1_555
C67_2 C68_2 1_555 1_555
C69_2 C70_2 1_555 1_555
N17 C66_3 1_555 1_555
C66_3 H53_3 1_555 1_555
C67_3 C66_3 1_555 1_555
H54_3 C67_3 1_555 1_555
C69_3 C68_3 1_555 1_555
H55_3 C69_3 1_555 1_555
C70_3 N17 1_555 1_555
H56_3 C70_3 1_555 1_555
Cu10 N17 1_555 1_555
C67_3 C68_3 1_555 1_555
C69_3 C70_3 1_555 1_555
N17_2 C66_4 1_555 1_555
C66_4 H53_4 1_555 1_555
C67_4 C66_4 1_555 1_555
H54_4 C67_4 1_555 1_555
C69_4 C68_4 1_555 1_555
H55_4 C69_4 1_555 1_555
C70_4 N17_2 1_555 1_555
H56_4 C70_4 1_555 1_555
Cu10_2 N17_2 1_555 1_555
C67_4 C68_4 1_555 1_555
C69_4 C70_4 1_555 1_555
N23_2 C96_3 1_555 1_555
C96_3 H77_3 1_555 1_555
C97_3 C96_3 1_555 1_555
H78_3 C97_3 1_555 1_555
C99_3 C98_3 1_555 1_555
H79_3 C99_3 1_555 1_555
C100_3 N23_2 1_555 1_555
H80_3 C100_3 1_555 1_555
Cu12_2 N23_2 1_555 1_555
C97_3 C98_3 1_555 1_555
C99_3 C100_3 1_555 1_555
Cu10 N14_3 1_555 1_555
Cu8_3 N15_3 1_555 1_555
Cu9_2 N19_3 1_555 1_555
N14_3 C51_3 1_555 1_555
N15_3 C56_3 1_555 1_555
N16_3 Cu8_3 1_555 1_555
N18_3 Cu8_3 1_555 1_555
N19_3 C76_3 1_555 1_555
N20_3 Cu9_2 1_555 1_555
N21_2 C86_3 1_555 1_555
N22_3 Cu9_2 1_555 1_555
C51_3 H41_3 1_555 1_555
C52_3 C51_3 1_555 1_555
H42_3 C52_3 1_555 1_555
C53_3 C52_3 1_555 1_555
C54_3 C53_3 1_555 1_555
C55_3 N14_3 1_555 1_555
C56_3 H45_3 1_555 1_555
C57_3 C56_3 1_555 1_555
H46_3 C57_3 1_555 1_555
C58_3 C53_3 1_555 1_555
C59_3 C58_3 1_555 1_555
C60_3 N15_3 1_555 1_555
C61_3 N16_3 1_555 1_555
H49_3 C61_3 1_555 1_555
C62_3 C61_3 1_555 1_555
C63_3 C62_3 1_555 1_555
C64_3 C63_3 1_555 1_555
H51_3 C64_3 1_555 1_555
C65_3 N16_3 1_555 1_555
H52_3 C65_3 1_555 1_555
C71_3 N18_3 1_555 1_555
H57_3 C71_3 1_555 1_555
C72_3 C71_3 1_555 1_555
H58_3 C72_3 1_555 1_555
C73_3 C72_3 1_555 1_555
C74_3 C73_3 1_555 1_555
H59_3 C74_3 1_555 1_555
C75_3 N18_3 1_555 1_555
H60_3 C75_3 1_555 1_555
C76_3 H61_3 1_555 1_555
C77_3 C76_3 1_555 1_555
H62_3 C77_3 1_555 1_555
C78_3 C73_3 1_555 1_555
C79_3 C78_3 1_555 1_555
H63_3 C79_3 1_555 1_555
C80_3 N19_3 1_555 1_555
H64_3 C80_3 1_555 1_555
C81_3 N20_3 1_555 1_555
H65_3 C81_3 1_555 1_555
C82_3 C81_3 1_555 1_555
H66_3 C82_3 1_555 1_555
C83_3 C82_3 1_555 1_555
C84_3 C83_3 1_555 1_555
H67_3 C84_3 1_555 1_555
C85_3 N20_3 1_555 1_555
H68_3 C85_3 1_555 1_555
C86_3 H69_3 1_555 1_555
C87_3 C86_3 1_555 1_555
H70_3 C87_3 1_555 1_555
C88_3 C83_3 1_555 1_555
C89_3 C88_3 1_555 1_555
H71_3 C89_3 1_555 1_555
C90_3 N21_2 1_555 1_555
H72_3 C90_3 1_555 1_555
C91_3 N22_3 1_555 1_555
H73_3 C91_3 1_555 1_555
C92_3 C91_3 1_555 1_555
H74_3 C92_3 1_555 1_555
C93_3 C92_3 1_555 1_555
C94_3 C93_3 1_555 1_555
C95_3 N22_3 1_555 1_555
H76_3 C95_3 1_555 1_555
Cu10_2 N21_2 1_555 1_555
N25_2 Cu10 1_555 1_555
N26_2 Cu9_2 1_555 1_555
C54_3 C55_3 1_555 1_555
C57_3 C58_3 1_555 1_555
C59_3 C60_3 1_555 1_555
C64_3 C65_3 1_555 1_555
C74_3 C75_3 1_555 1_555
C77_3 C78_3 1_555 1_555
C79_3 C80_3 1_555 1_555
C84_3 C85_3 1_555 1_555
C87_3 C88_3 1_555 1_555
C89_3 C90_3 1_555 1_555
C94_3 C95_3 1_555 1_555
Cu10_2 N14_4 1_555 1_555
Cu8_4 N15_4 1_555 1_555
Cu12_2 N19_4 1_555 1_555
N14_4 C51_4 1_555 1_555
N15_4 C56_4 1_555 1_555
N16_4 Cu8_4 1_555 1_555
N18_4 Cu8_4 1_555 1_555
N19_4 C76_4 1_555 1_555
N20_4 Cu12_2 1_555 1_555
N22_4 Cu12_2 1_555 1_555
C51_4 H41_4 1_555 1_555
C52_4 C51_4 1_555 1_555
H42_4 C52_4 1_555 1_555
C53_4 C52_4 1_555 1_555
C54_4 C53_4 1_555 1_555
H43_2 C54_4 1_555 1_555
C55_4 N14_4 1_555 1_555
H44_2 C55_4 1_555 1_555
C56_4 H45_4 1_555 1_555
C57_4 C56_4 1_555 1_555
H46_4 C57_4 1_555 1_555
C58_4 C53_4 1_555 1_555
C59_4 C58_4 1_555 1_555
H47_3 C59_4 1_555 1_555
C60_4 N15_4 1_555 1_555
H48_3 C60_4 1_555 1_555
C61_4 N16_4 1_555 1_555
H49_4 C61_4 1_555 1_555
C62_4 C61_4 1_555 1_555
C63_4 C62_4 1_555 1_555
C64_4 C63_4 1_555 1_555
H51_4 C64_4 1_555 1_555
C65_4 N16_4 1_555 1_555
H52_4 C65_4 1_555 1_555
C71_4 N18_4 1_555 1_555
H57_4 C71_4 1_555 1_555
C72_4 C71_4 1_555 1_555
H58_4 C72_4 1_555 1_555
C73_4 C72_4 1_555 1_555
C74_4 C73_4 1_555 1_555
H59_4 C74_4 1_555 1_555
C75_4 N18_4 1_555 1_555
H60_4 C75_4 1_555 1_555
C76_4 H61_4 1_555 1_555
C77_4 C76_4 1_555 1_555
H62_4 C77_4 1_555 1_555
C78_4 C73_4 1_555 1_555
C79_4 C78_4 1_555 1_555
H63_4 C79_4 1_555 1_555
C80_4 N19_4 1_555 1_555
H64_4 C80_4 1_555 1_555
C81_4 N20_4 1_555 1_555
H65_4 C81_4 1_555 1_555
C82_4 C81_4 1_555 1_555
C83_4 C82_4 1_555 1_555
C84_4 C83_4 1_555 1_555
H67_4 C84_4 1_555 1_555
C85_4 N20_4 1_555 1_555
H68_4 C85_4 1_555 1_555
C88_4 C83_4 1_555 1_555
C89_4 C88_4 1_555 1_555
H71_4 C89_4 1_555 1_555
H72_4 C90_4 1_555 1_555
C95_4 N22_4 1_555 1_555
H76_4 C95_4 1_555 1_555
C54_4 C55_4 1_555 1_555
C57_4 C58_4 1_555 1_555
C59_4 C60_4 1_555 1_555
C64_4 C65_4 1_555 1_555
C74_4 C75_4 1_555 1_555
C77_4 C78_4 1_555 1_555
C79_4 C80_4 1_555 1_555
C84_4 C85_4 1_555 1_555
C89_4 C90_4 1_555 1_555
N25_2 C86_4 1_555 1_555
C86_4 H69_4 1_555 1_555
C87_4 C86_4 1_555 1_555
H70_4 C87_4 1_555 1_555
H73_4 C91_4 1_555 1_555
C92_4 C91_4 1_555 1_555
H74_4 C92_4 1_555 1_555
C93_4 C92_4 1_555 1_555
C94_4 C93_4 1_555 1_555
N26_2 C96_4 1_555 1_555
C96_4 H77_4 1_555 1_555
C97_4 C96_4 1_555 1_555
H78_4 C97_4 1_555 1_555
C99_4 C98_4 1_555 1_555
H79_4 C99_4 1_555 1_555
C100_4 N26_2 1_555 1_555
H80_4 C100_4 1_555 1_555
C97_4 C98_4 1_555 1_555
C99_4 C100_4 1_555 1_555

#END
