
###############################################################################
#
# This file contains modified crystal structure data generated from the
# MOF subset of the Cambridge Structural Database (CSD) v543 
# hosted by the Cambridge Crystallographic Data Centre (CCDC).
#
# This work is licensed under the Creative Commons
# Attribution-NonCommercial-ShareAlike 4.0 International License.
# To view a copy of this license, visit
# http://creativecommons.org/licenses/by-nc-sa/4.0/
# or send a letter to
# Creative Commons, PO Box 1866, Mountain View, CA 94042, USA.
#
# CIF created using the CSD Python API on 29 September 2022
# The structure has been converted into the P1 space group
# The structure has a 3D framework
# The original CSD entry XUWVUG is in the monoclinic crystal system
# The original CSD entry XUWVUG is in a Sohncke space group
# The framework has been calculated to contain at least 10.0% void space
# The void calculation uses a probe of radius 1.32A, grid spacing 0.4
# H atom positions have been added when not included in the experimental data
#
###############################################################################

data_XUWVUG
_chemical_formula_moiety         '(C18 H6 Eu6 O17)n'
_symmetry_cell_setting           triclinic
_symmetry_space_group_name_H-M   'P 1'
_symmetry_Int_Tables_number      1
_space_group_name_Hall           'P 1'
loop_
_symmetry_equiv_pos_site_id
_symmetry_equiv_pos_as_xyz
1 x,y,z
_cell_length_a                   17.640(1)
_cell_length_b                   3.689(2)
_cell_length_c                   12.385(1)
_cell_angle_alpha                90
_cell_angle_beta                 91.247(4)
_cell_angle_gamma                90
_cell_volume                     805.75
loop_
_atom_site_label
_atom_site_type_symbol
_atom_site_fract_x
_atom_site_fract_y
_atom_site_fract_z
Eu1 Eu 0.0949(3) 0.2500 0.5515(5)
O2 O 0.171(2) 0.245(10) 0.716(3)
O5 O 0.151(1) 0.340(11) 0.391(1)
C1 C 0.138(1) 0.230(10) 0.303(2)
O6 O 0.088(2) 0.395(14) 0.240(2)
C2 C 0.213(1) 0.146(7) 0.241(1)
C3 C 0.274(1) 0.360(17) 0.282(2)
C4 C 0.205(1) 0.130(17) 0.130(2)
C5 C 0.336(1) 0.415(9) 0.219(1)
C6 C 0.274(1) 0.170(9) 0.059(1)
C7 C 0.412(1) 0.455(6) 0.267(2)
C8 C 0.337(2) 0.270(16) 0.114(1)
O7 O 0.457(1) 0.195(7) 0.299(3)
O8 O 0.447(2) 0.720(8) 0.221(3)
O15 O 0.048(2) 0.765(10) 0.446(3)
O17 O 0.187(2) 0.765(12) 0.544(3)
O18 O 0.051(3) 0.760(18) 0.678(4)
Eu10 Eu 0.2673(3) 0.7500 0.7095(4)
Eu11 Eu 0.5408(3) 0.7500 0.3688(4)
Eu13 Eu 0.4592(3) 0.2500 0.6312(4)
O23 O 0.286(2) 0.205(9) 0.870(1)
O25 O 0.596(2) 0.250(10) 0.281(3)
O26 O 0.315(2) 0.245(10) 0.606(3)
O29 O 0.561(2) 0.250(13) 0.496(3)
H1 H 0.391488 0.237296 0.0754814
H2 H 0.271628 0.478884 0.362339
H3 H 0.149114 0.0885926 0.0929641
C9 C 0.262(2) 0.020(13) 0.959(1)
O11 O 0.404(2) 0.750(10) 0.719(3)
O13 O 0.439(2) 0.750(13) 0.504(3)
O21 O 0.206(2) 0.810(12) 0.925(2)
O27 O 0.685(2) 0.745(10) 0.394(3)
O1 O 0.952(2) 0.265(10) 0.554(3)
Eu6 Eu 0.9051(3) 0.7500 0.4485(5)
Eu9 Eu 0.7327(3) 0.2500 0.2905(4)
O8_2 O 0.553(2) 0.220(8) 0.779(3)
O17_2 O 0.813(2) 0.265(12) 0.456(3)
O18_2 O 0.949(3) 0.260(18) 0.322(4)
C9_2 C 0.738(2) 0.520(13) 0.041(1)
O9 O 0.794(2) 0.310(12) 0.075(2)
O10 O 0.714(2) 0.705(9) 0.130(1)
O2_2 O 0.829(2) 0.745(10) 0.284(3)
O5_2 O 0.849(1) 0.840(11) 0.609(1)
C1_2 C 0.862(1) 0.730(10) 0.697(2)
O6_2 O 0.912(2) 0.895(14) 0.760(2)
C2_2 C 0.787(1) 0.646(7) 0.759(1)
C3_2 C 0.726(1) 0.860(17) 0.718(2)
C4_2 C 0.795(1) 0.630(17) 0.870(2)
C5_2 C 0.664(1) 0.915(9) 0.781(1)
C6_2 C 0.726(1) 0.670(9) 0.941(1)
C7_2 C 0.588(1) 0.955(6) 0.733(2)
C8_2 C 0.663(2) 0.770(16) 0.886(1)
O7_2 O 0.543(1) 0.695(7) 0.701(3)
H1_2 H 0.608512 0.737296 0.924519
H2_2 H 0.728372 0.978884 0.637661
H3_2 H 0.850886 0.588593 0.907036
loop_
_geom_bond_atom_site_label_1
_geom_bond_atom_site_label_2
_geom_bond_site_symmetry_1
_geom_bond_site_symmetry_2
O2 Eu1 1_555 1_555
O5 Eu1 1_555 1_555
C1 O5 1_555 1_555
O6 C1 1_555 1_555
C2 C1 1_555 1_555
C3 C2 1_555 1_555
C4 C2 1_555 1_555
C5 C3 1_555 1_555
C6 C4 1_555 1_555
C7 C5 1_555 1_555
C8 C5 1_555 1_555
O7 C7 1_555 1_555
O8 C7 1_555 1_555
O15 Eu1 1_555 1_555
O17 Eu1 1_555 1_555
O18 Eu1 1_555 1_555
Eu10 O2 1_555 1_555
Eu11 O7 1_555 1_555
C6 C8 1_555 1_555
O8 Eu11 1_555 1_555
O17 Eu10 1_555 1_555
Eu10 O23 1_555 1_555
Eu10 O26 1_555 1_555
Eu11 O25 1_555 1_555
Eu11 O29 1_555 1_555
Eu13 O26 1_555 1_555
Eu13 O29 1_555 1_555
C8 H1 1_555 1_555
C3 H2 1_555 1_555
C4 H3 1_555 1_555
O23 C9 1_555 1_555
O11 Eu10 1_555 1_555
O13 Eu11 1_555 1_555
Eu13 O11 1_555 1_555
O21 Eu10 1_555 1_555
O27 Eu11 1_555 1_555
O13 Eu13 1_555 1_555
Eu6 O1 1_555 1_555
O8_2 Eu13 1_555 1_555
O17_2 Eu9 1_555 1_555
O9 C9_2 1_555 1_555
O10 C9_2 1_555 1_555
Eu9 O9 1_555 1_555
O10 Eu9 1_555 1_555
O2_2 Eu6 1_555 1_555
O17_2 Eu6 1_555 1_555
O18_2 Eu6 1_555 1_555
O5_2 Eu6 1_555 1_555
Eu9 O2_2 1_555 1_555
C1_2 O5_2 1_555 1_555
O6_2 C1_2 1_555 1_555
C2_2 C1_2 1_555 1_555
C3_2 C2_2 1_555 1_555
C4_2 C2_2 1_555 1_555
C5_2 C3_2 1_555 1_555
C6_2 C4_2 1_555 1_555
Eu13 O7_2 1_555 1_555
C7_2 C5_2 1_555 1_555
C8_2 C5_2 1_555 1_555
O7_2 C7_2 1_555 1_555
O25 Eu9 1_555 1_555
O27 Eu9 1_555 1_555
C6_2 C8_2 1_555 1_555
C8_2 H1_2 1_555 1_555
C3_2 H2_2 1_555 1_555
C4_2 H3_2 1_555 1_555

#END
