
###############################################################################
#
# This file contains modified crystal structure data generated from the
# MOF subset of the Cambridge Structural Database (CSD) v543 
# hosted by the Cambridge Crystallographic Data Centre (CCDC).
#
# This work is licensed under the Creative Commons
# Attribution-NonCommercial-ShareAlike 4.0 International License.
# To view a copy of this license, visit
# http://creativecommons.org/licenses/by-nc-sa/4.0/
# or send a letter to
# Creative Commons, PO Box 1866, Mountain View, CA 94042, USA.
#
# CIF created using the CSD Python API on 29 September 2022
# The structure has been converted into the P1 space group
# The structure has a 3D framework
# The original CSD entry XUXPUD is in the trigonal crystal system
# The original CSD entry XUXPUD is in a Sohncke space group
# The framework has been calculated to contain at least 10.0% void space
# The void calculation uses a probe of radius 1.32A, grid spacing 0.4
#
###############################################################################

data_XUXPUD
_chemical_formula_moiety         '(C72 H84 N6 O24 Zn6)n'
_symmetry_cell_setting           triclinic
_symmetry_space_group_name_H-M   'P 1'
_symmetry_Int_Tables_number      1
_space_group_name_Hall           'P 1'
loop_
_symmetry_equiv_pos_site_id
_symmetry_equiv_pos_as_xyz
1 x,y,z
_cell_length_a                   21.698(3)
_cell_length_b                   21.698(3)
_cell_length_c                   6.8690(14)
_cell_angle_alpha                90
_cell_angle_beta                 90
_cell_angle_gamma                120
_cell_volume                     2800.68
loop_
_atom_site_label
_atom_site_type_symbol
_atom_site_fract_x
_atom_site_fract_y
_atom_site_fract_z
Zn1 Zn 0.60639(3) 0.27947(2) 0.15793(6)
H3 H 0.6070 0.1182 0.1262
O4 O 0.50364(18) 0.2277(2) 0.0379(5)
H5 H 0.3701 0.1616 0.0325
C10 C 0.3569(7) 0.2517(9) 0.011(3)
H7 H 0.4041 0.2928 0.0362
H8 H 0.3300 0.2362 0.1332
O9 O 0.58925(28) 0.3510(2) 0.3023(4)
O11 O 0.71379(23) 0.35007(28) 0.2780(4)
O15 O 0.58207(17) 0.20738(15) 0.3738(4)
O1 O 0.6490(2) 0.23825(19) 0.9690(4)
O2 O 0.63628(16) 0.28621(23) 0.6113(4)
C1 C 0.6138(3) 0.1744(3) 0.8787(6)
C2 C 0.5940(2) 0.1649(4) 0.6810(6)
C3 C 0.5602(3) 0.0958(4) 0.6029(7)
H1 H 0.5470 0.0898 0.4694
C4 C 0.5449(3) 0.0355(4) 0.7105(7)
C5 C 0.5638(3) 0.0465(2) 0.9089(6)
H2 H 0.5538 0.0067 0.9881
C6 C 0.5962(3) 0.1132(3) 0.9911(6)
C7 C 0.6050(2) 0.2229(4) 0.5481(7)
C8 C 0.4926(3) 0.2359(3) 0.8694(8)
H4 H 0.5327 0.2584 0.7854
N1 N 0.4291(3) 0.2159(4) 0.7923(8)
C9 C 0.3652(5) 0.1891(7) 0.9245(15)
H6 H 0.3218 0.1566 0.8504
H9 H 0.3314 0.2650 0.9179
C11 C 0.4276(7) 0.2267(8) 0.5793(13)
H10 H 0.4762 0.2609 0.5334
H11 H 0.3967 0.2471 0.5515
C12 C 0.3996(10) 0.1560(12) 0.470(2)
H12 H 0.3644 0.1170 0.5511
H13 H 0.4393 0.1478 0.4419
H14 H 0.3774 0.1579 0.3480
Zn4 Zn 0.72053(2) 0.32692(4) 0.82460(6)
Zn5 Zn 0.67308(4) 0.39361(3) 0.49126(6)
O12 O 0.64993(28) 0.36372(16) 0.9446(4)
Zn7 Zn 0.32692(4) 0.72053(2) 0.17540(6)
O5 O 0.41075(28) 0.76175(19) 0.3643(4)
C13 C 0.4394(4) 0.8256(3) 0.4546(6)
C14 C 0.5173(4) 0.9535(2) 0.4244(6)
H15 H 0.5471 0.9933 0.3452
C15 C 0.4830(4) 0.8868(3) 0.3422(6)
H16 H 0.4888 0.8818 0.2071
O6 O 0.35007(28) 0.71379(23) 0.7220(4)
C16 C 0.4291(4) 0.8351(4) 0.6523(6)
C17 C 0.4644(5) 0.9042(4) 0.7304(7)
H17 H 0.4572 0.9102 0.8639
C18 C 0.5094(5) 0.9645(4) 0.6228(7)
C19 C 0.3821(4) 0.7771(4) 0.7852(7)
O7 O 0.37469(23) 0.79262(15) 0.9595(4)
O8 O 0.27594(27) 0.7723(2) 0.2954(5)
C20 C 0.2567(4) 0.7641(3) 0.4639(8)
H18 H 0.2743 0.7416 0.5479
N2 N 0.2132(5) 0.7841(4) 0.5410(8)
C21 C 0.1761(9) 0.8109(7) 0.4088(15)
H19 H 0.2085 0.8384 0.3008
H20 H 0.1652 0.8434 0.4829
C22 C 0.1052(11) 0.7483(9) 0.322(3)
H21 H 0.1113 0.7072 0.2971
H22 H 0.0938 0.7638 0.2001
H23 H 0.0664 0.7350 0.4154
C23 C 0.2009(11) 0.7733(8) 0.7540(13)
H24 H 0.2153 0.7391 0.7999
H25 H 0.1496 0.7529 0.7818
C24 C 0.2436(16) 0.8440(12) 0.863(2)
H26 H 0.2474 0.8830 0.7822
H27 H 0.2915 0.8522 0.8914
H28 H 0.2195 0.8421 0.9853
Zn6 Zn 0.27947(2) 0.60639(3) 0.84207(6)
Zn8 Zn 0.39361(3) 0.67308(4) 0.50874(6)
O10 O 0.23825(19) 0.6490(2) 0.0310(4)
O13 O 0.28621(23) 0.63628(16) 0.3887(4)
O14 O 0.36372(16) 0.64993(28) 0.0554(4)
C13_2 C 0.1744(3) 0.6138(5) 0.1213(6)
C14_2 C 0.0465(2) 0.5638(4) 0.0911(6)
H15_2 H 0.0067 0.5538 0.0119
C15_2 C 0.1132(3) 0.5962(5) 0.0089(6)
C16_2 C 0.1649(4) 0.5940(6) 0.3190(6)
C17_2 C 0.0958(4) 0.5602(6) 0.3971(7)
H17_2 H 0.0898 0.5470 0.5306
C18_2 C 0.0355(4) 0.5449(6) 0.2895(7)
C19_2 C 0.2229(4) 0.6050(6) 0.4519(7)
O7_2 O 0.20738(15) 0.58207(27) 0.6262(4)
C20_2 C 0.2359(3) 0.4926(5) 0.1306(8)
H18_2 H 0.2584 0.5327 0.2146
N2_2 N 0.2159(4) 0.4291(6) 0.2077(8)
C21_2 C 0.1891(7) 0.3652(11) 0.0755(15)
H20_2 H 0.1566 0.3218 0.1496
H23_2 H 0.2650 0.3314 0.0821
C23_2 C 0.2267(8) 0.4276(14) 0.4207(13)
H24_2 H 0.2609 0.4762 0.4666
H25_2 H 0.2471 0.3967 0.4485
C24_2 C 0.1560(12) 0.3996(20) 0.530(2)
H26_2 H 0.1170 0.3644 0.4489
H27_2 H 0.1478 0.4393 0.5581
H28_2 H 0.1579 0.3774 0.6520
H16_2 H 0.1182 0.6070 0.8738
O8_2 O 0.2277(2) 0.50364(34) 0.9621(5)
H19_2 H 0.1616 0.3701 0.9675
C22_2 C 0.2517(9) 0.3569(14) 0.989(3)
H21_2 H 0.2928 0.4041 0.9638
H22_2 H 0.2362 0.3300 0.8668
O10_2 O 0.3510(2) 0.58925(28) 0.6977(4)
O15_2 O 0.79262(15) 0.37469(23) 0.0405(4)
O1_2 O 0.76175(19) 0.41075(28) 0.6357(4)
C1_2 C 0.8256(3) 0.4394(4) 0.5454(6)
C2_2 C 0.8351(4) 0.4291(4) 0.3477(6)
C3_2 C 0.9042(4) 0.4644(5) 0.2696(7)
H1_2 H 0.9102 0.4572 0.1361
C4_2 C 0.9645(4) 0.5094(5) 0.3772(7)
C5_2 C 0.9535(2) 0.5173(4) 0.5756(6)
H2_2 H 0.9933 0.5471 0.6548
C6_2 C 0.8868(3) 0.4830(4) 0.6578(6)
H3_2 H 0.8818 0.4888 0.7929
C7_2 C 0.7771(4) 0.3821(4) 0.2148(7)
O4_2 O 0.7723(2) 0.27594(27) 0.7046(5)
C8_2 C 0.7641(3) 0.2567(4) 0.5361(8)
H4_2 H 0.7416 0.2743 0.4521
N1_2 N 0.7841(4) 0.2132(5) 0.4590(8)
C9_2 C 0.8109(7) 0.1761(9) 0.5912(15)
H5_2 H 0.8384 0.2085 0.6992
H6_2 H 0.8434 0.1652 0.5171
C10_2 C 0.7483(9) 0.1052(11) 0.678(3)
H7_2 H 0.7072 0.1113 0.7029
H8_2 H 0.7638 0.0938 0.7999
H9_2 H 0.7350 0.0664 0.5846
C11_2 C 0.7733(8) 0.2009(11) 0.2460(13)
H10_2 H 0.7391 0.2153 0.2001
H11_2 H 0.7529 0.1496 0.2182
C12_2 C 0.8440(12) 0.2436(16) 0.137(2)
H12_2 H 0.8830 0.2474 0.2178
H13_2 H 0.8522 0.2915 0.1086
H14_2 H 0.8421 0.2195 0.0147
C1_3 C 0.5606(4) 0.3862(3) 0.2120(6)
C2_3 C 0.5709(4) 0.4060(2) 0.0143(6)
C4_3 C 0.4906(5) 0.4551(3) 0.0438(7)
C5_3 C 0.4827(4) 0.4362(3) 0.2422(6)
H2_3 H 0.4529 0.4462 0.3214
C6_3 C 0.5170(4) 0.4038(3) 0.3244(6)
H3_3 H 0.5112 0.3930 0.4595
O4_3 O 0.72406(27) 0.49636(18) 0.3712(5)
C8_3 C 0.7433(4) 0.5074(3) 0.2027(8)
H4_3 H 0.7257 0.4673 0.1187
N1_3 N 0.7868(5) 0.5709(3) 0.1256(8)
C9_3 C 0.8239(9) 0.6348(5) 0.2578(15)
H5_3 H 0.7915 0.6299 0.3658
H6_3 H 0.8348 0.6782 0.1837
C10_3 C 0.8948(11) 0.6431(7) 0.344(3)
H7_3 H 0.8887 0.5959 0.3695
H8_3 H 0.9062 0.6700 0.4665
H9_3 H 0.9336 0.6686 0.2512
C17_3 C 0.4398(6) 0.5356(5) 0.0638(7)
H17_3 H 0.4530 0.5428 0.1973
C19_3 C 0.3950(6) 0.6179(4) 0.1186(7)
O7_3 O 0.41793(27) 0.62531(23) 0.2929(4)
C23_3 C 0.5724(14) 0.7991(11) 0.0874(13)
H24_3 H 0.5238 0.7847 0.1333
H25_3 H 0.6033 0.8504 0.1152
C24_3 C 0.6004(20) 0.7564(16) 0.197(2)
H26_3 H 0.6356 0.7526 0.1156
H27_3 H 0.5607 0.7085 0.2248
H28_3 H 0.6226 0.7805 0.3187
O15_3 O 0.62531(23) 0.41793(17) 0.7071(4)
C3_3 C 0.5356(5) 0.4398(3) 0.9362(7)
H1_3 H 0.5428 0.4530 0.8027
C7_3 C 0.6179(4) 0.3950(2) 0.8814(7)
C11_3 C 0.7991(11) 0.5724(7) 0.9126(13)
H10_3 H 0.7847 0.5238 0.8667
H11_3 H 0.8504 0.6033 0.8848
C12_3 C 0.7564(16) 0.6004(10) 0.803(2)
H12_3 H 0.7526 0.6356 0.8844
H13_3 H 0.7085 0.5607 0.7752
H14_3 H 0.7805 0.6226 0.6813
C13_3 C 0.3862(5) 0.5606(4) 0.7880(6)
C14_3 C 0.4362(4) 0.4827(4) 0.7578(6)
H15_3 H 0.4462 0.4529 0.6786
C15_3 C 0.4038(5) 0.5170(4) 0.6756(6)
H16_3 H 0.3930 0.5112 0.5405
C16_3 C 0.4060(6) 0.5709(4) 0.9857(6)
C18_3 C 0.4551(6) 0.4906(5) 0.9562(7)
O8_3 O 0.49636(34) 0.72406(27) 0.6288(5)
C20_3 C 0.5074(5) 0.7433(4) 0.7973(8)
H18_3 H 0.4673 0.7257 0.8813
N2_3 N 0.5709(6) 0.7868(5) 0.8744(8)
C21_3 C 0.6348(11) 0.8239(9) 0.7422(15)
H19_3 H 0.6299 0.7915 0.6342
H20_3 H 0.6782 0.8348 0.8163
C22_3 C 0.6431(14) 0.8948(11) 0.656(3)
H21_3 H 0.5959 0.8887 0.6305
H22_3 H 0.6700 0.9062 0.5335
H23_3 H 0.6686 0.9336 0.7488
loop_
_geom_bond_atom_site_label_1
_geom_bond_atom_site_label_2
_geom_bond_site_symmetry_1
_geom_bond_site_symmetry_2
O4 Zn1 1_555 1_555
H7 C10 1_555 1_555
H8 C10 1_555 1_555
O9 Zn1 1_555 1_555
O11 Zn1 1_555 1_555
O15 Zn1 1_555 1_555
O1 C1 1_555 1_555
O2 C7 1_555 1_555
O15 C7 1_555 1_555
C1 C2 1_555 1_555
C2 C3 1_555 1_555
C3 H1 1_555 1_555
C4 C3 1_555 1_555
C5 C4 1_555 1_555
H2 C5 1_555 1_555
C6 C1 1_555 1_555
C7 C2 1_555 1_555
H4 C8 1_555 1_555
N1 C8 1_555 1_555
C9 N1 1_555 1_555
H6 C9 1_555 1_555
C11 N1 1_555 1_555
H10 C11 1_555 1_555
H11 C11 1_555 1_555
C12 C11 1_555 1_555
H12 C12 1_555 1_555
H13 C12 1_555 1_555
H14 C12 1_555 1_555
Zn4 O1 1_555 1_555
Zn5 O2 1_555 1_555
O2 Zn4 1_555 1_555
C5 C6 1_555 1_555
Zn4 O12 1_555 1_555
O5 C13 1_555 1_555
C13 C15 1_555 1_555
C14 H15 1_555 1_555
C15 C14 1_555 1_555
H16 C15 1_555 1_555
O6 C19 1_555 1_555
C16 C13 1_555 1_555
C17 C16 1_555 1_555
H17 C17 1_555 1_555
C19 C16 1_555 1_555
O7 C19 1_555 1_555
Zn7 O5 1_555 1_555
O8 Zn7 1_555 1_555
C20 O8 1_555 1_555
H18 C20 1_555 1_555
N2 C20 1_555 1_555
C21 N2 1_555 1_555
H19 C21 1_555 1_555
H20 C21 1_555 1_555
C22 C21 1_555 1_555
H21 C22 1_555 1_555
H22 C22 1_555 1_555
H23 C22 1_555 1_555
C23 N2 1_555 1_555
H24 C23 1_555 1_555
H25 C23 1_555 1_555
C24 C23 1_555 1_555
H26 C24 1_555 1_555
H27 C24 1_555 1_555
H28 C24 1_555 1_555
Zn6 O6 1_555 1_555
Zn8 O5 1_555 1_555
O10 Zn7 1_555 1_555
O13 Zn7 1_555 1_555
O14 Zn7 1_555 1_555
C14 C18 1_555 1_555
O6 Zn8 1_555 1_555
C17 C18 1_555 1_555
Zn8 O13 1_555 1_555
O10 C13_2 1_555 1_555
C13_2 C15_2 1_555 1_555
C14_2 H15_2 1_555 1_555
C15_2 C14_2 1_555 1_555
O13 C19_2 1_555 1_555
C16_2 C13_2 1_555 1_555
C17_2 C16_2 1_555 1_555
H17_2 C17_2 1_555 1_555
C19_2 C16_2 1_555 1_555
O7_2 C19_2 1_555 1_555
H18_2 C20_2 1_555 1_555
N2_2 C20_2 1_555 1_555
C21_2 N2_2 1_555 1_555
H20_2 C21_2 1_555 1_555
C23_2 N2_2 1_555 1_555
H24_2 C23_2 1_555 1_555
H25_2 C23_2 1_555 1_555
C24_2 C23_2 1_555 1_555
H26_2 C24_2 1_555 1_555
H27_2 C24_2 1_555 1_555
H28_2 C24_2 1_555 1_555
Zn6 O7_2 1_555 1_555
C14_2 C18_2 1_555 1_555
C17_2 C18_2 1_555 1_555
O8_2 Zn6 1_555 1_555
H21_2 C22_2 1_555 1_555
H22_2 C22_2 1_555 1_555
O10_2 Zn6 1_555 1_555
Zn4 O1_2 1_555 1_555
O1_2 C1_2 1_555 1_555
O11 C7_2 1_555 1_555
O15_2 C7_2 1_555 1_555
C1_2 C2_2 1_555 1_555
C2_2 C3_2 1_555 1_555
C3_2 H1_2 1_555 1_555
C4_2 C3_2 1_555 1_555
C5_2 C4_2 1_555 1_555
H2_2 C5_2 1_555 1_555
C6_2 C1_2 1_555 1_555
H3_2 C6_2 1_555 1_555
C7_2 C2_2 1_555 1_555
O4_2 Zn4 1_555 1_555
C8_2 O4_2 1_555 1_555
H4_2 C8_2 1_555 1_555
N1_2 C8_2 1_555 1_555
C9_2 N1_2 1_555 1_555
H5_2 C9_2 1_555 1_555
H6_2 C9_2 1_555 1_555
C10_2 C9_2 1_555 1_555
H7_2 C10_2 1_555 1_555
H8_2 C10_2 1_555 1_555
H9_2 C10_2 1_555 1_555
C11_2 N1_2 1_555 1_555
H10_2 C11_2 1_555 1_555
H11_2 C11_2 1_555 1_555
C12_2 C11_2 1_555 1_555
H12_2 C12_2 1_555 1_555
H13_2 C12_2 1_555 1_555
H14_2 C12_2 1_555 1_555
Zn5 O1_2 1_555 1_555
O11 Zn5 1_555 1_555
C5_2 C6_2 1_555 1_555
Zn5 O9 1_555 1_555
O9 C1_3 1_555 1_555
C1_3 C2_3 1_555 1_555
C5_3 C4_3 1_555 1_555
H2_3 C5_3 1_555 1_555
C6_3 C1_3 1_555 1_555
H3_3 C6_3 1_555 1_555
O4_3 Zn5 1_555 1_555
C8_3 O4_3 1_555 1_555
H4_3 C8_3 1_555 1_555
N1_3 C8_3 1_555 1_555
C9_3 N1_3 1_555 1_555
H5_3 C9_3 1_555 1_555
H6_3 C9_3 1_555 1_555
C10_3 C9_3 1_555 1_555
H7_3 C10_3 1_555 1_555
H8_3 C10_3 1_555 1_555
H9_3 C10_3 1_555 1_555
O14 C19_3 1_555 1_555
H17_3 C17_3 1_555 1_555
O7_3 C19_3 1_555 1_555
H24_3 C23_3 1_555 1_555
H25_3 C23_3 1_555 1_555
C24_3 C23_3 1_555 1_555
H26_3 C24_3 1_555 1_555
H27_3 C24_3 1_555 1_555
H28_3 C24_3 1_555 1_555
Zn8 O7_3 1_555 1_555
O15_3 Zn5 1_555 1_555
C5_3 C6_3 1_555 1_555
O12 C7_3 1_555 1_555
O15_3 C7_3 1_555 1_555
C3_3 H1_3 1_555 1_555
H10_3 C11_3 1_555 1_555
H11_3 C11_3 1_555 1_555
C12_3 C11_3 1_555 1_555
H12_3 C12_3 1_555 1_555
H13_3 C12_3 1_555 1_555
H14_3 C12_3 1_555 1_555
O10_2 C13_3 1_555 1_555
C13_3 C15_3 1_555 1_555
C14_3 H15_3 1_555 1_555
C15_3 C14_3 1_555 1_555
H16_3 C15_3 1_555 1_555
C16_3 C13_3 1_555 1_555
Zn8 O10_2 1_555 1_555
O8_3 Zn8 1_555 1_555
C20_3 O8_3 1_555 1_555
H18_3 C20_3 1_555 1_555
N2_3 C20_3 1_555 1_555
C21_3 N2_3 1_555 1_555
H19_3 C21_3 1_555 1_555
H20_3 C21_3 1_555 1_555
C22_3 C21_3 1_555 1_555
H21_3 C22_3 1_555 1_555
H22_3 C22_3 1_555 1_555
H23_3 C22_3 1_555 1_555
C14_3 C18_3 1_555 1_555

#END
