
###############################################################################
#
# This file contains modified crystal structure data generated from the
# MOF subset of the Cambridge Structural Database (CSD) v543 
# hosted by the Cambridge Crystallographic Data Centre (CCDC).
#
# This work is licensed under the Creative Commons
# Attribution-NonCommercial-ShareAlike 4.0 International License.
# To view a copy of this license, visit
# http://creativecommons.org/licenses/by-nc-sa/4.0/
# or send a letter to
# Creative Commons, PO Box 1866, Mountain View, CA 94042, USA.
#
# CIF created using the CSD Python API on 29 September 2022
# The structure has been converted into the P1 space group
# The structure has a 3D framework
# The original CSD entry XUYDIF is in the triclinic crystal system
# The framework has been calculated to contain at least 10.0% void space
# The void calculation uses a probe of radius 1.32A, grid spacing 0.4
#
###############################################################################

data_XUYDIF
_chemical_formula_moiety         '(C34 H24 Cd4 N36)n'
_symmetry_cell_setting           triclinic
_symmetry_space_group_name_H-M   'P 1'
_symmetry_Int_Tables_number      1
_space_group_name_Hall           'P 1'
loop_
_symmetry_equiv_pos_site_id
_symmetry_equiv_pos_as_xyz
1 x,y,z
_cell_length_a                   9.599(3)
_cell_length_b                   11.025(3)
_cell_length_c                   12.571(4)
_cell_angle_alpha                86.328(5)
_cell_angle_beta                 81.705(5)
_cell_angle_gamma                79.834(4)
_cell_volume                     1294.77
loop_
_atom_site_label
_atom_site_type_symbol
_atom_site_fract_x
_atom_site_fract_y
_atom_site_fract_z
N6 N 0.3475(8) 0.1288(6) 0.2880(6)
C15 C 0.2276(12) 0.0833(8) 0.3134(9)
H10 H 0.1479 0.1324 0.3490
C16 C 0.4605(11) 0.0582(9) 0.2426(9)
H11 H 0.5444 0.0908 0.2267
Cd5 Cd 0.32456(7) 0.35049(5) 0.28521(5)
Cd1 Cd 0.17429(7) 0.51286(6) 0.02395(5)
N2 N 0.2642(8) 0.6126(6) 0.1501(6)
N3 N 0.3220(8) 0.5715(6) 0.2428(6)
N4 N 0.3280(8) 0.7679(6) 0.2158(6)
N5 N 0.5638(8) 0.6585(6) 0.5590(6)
N10 N 0.2412(10) 0.3369(7) 0.1188(6)
N11 N 0.3079(12) 0.2552(8) 0.0643(7)
N12 N 0.3718(18) 0.1778(11) 0.0143(9)
N13 N 0.1118(11) 0.3801(13) 0.3865(9)
N14 N 0.0051(13) 0.3885(11) 0.3601(9)
C4 C 0.2313(11) 0.9189(8) 0.0100(8)
H4 H 0.2766 0.9633 0.0509
C5 C 0.2168(10) 0.8007(8) 0.0396(7)
C6 C 0.2657(10) 0.7287(8) 0.1358(7)
C7 C 0.3595(10) 0.6659(8) 0.2801(7)
C8 C 0.4311(10) 0.6652(7) 0.3774(7)
C9 C 0.5709(12) 0.6150(12) 0.3759(8)
H5 H 0.6235 0.5809 0.3136
C10 C 0.6344(12) 0.6150(12) 0.4678(9)
H6 H 0.7311 0.5829 0.4651
C11 C 0.4269(13) 0.7039(12) 0.5609(9)
H7 H 0.3748 0.7317 0.6256
C12 C 0.3570(13) 0.7121(12) 0.4710(9)
H8 H 0.2616 0.7488 0.4744
C13 C 0.3377(10) 0.8920(7) 0.2409(7)
C14 C 0.2174(11) 0.9642(8) 0.2883(9)
H9 H 0.1314 0.9348 0.3034
C17 C 0.4643(11) 0.9366(9) 0.2161(9)
H12 H 0.5471 0.8886 0.1836
Cd4 Cd 0.67544(7) 0.64951(5) 0.71479(5)
N19 N 0.4362(8) 0.3415(6) 0.4410(6)
N22 N 0.5503(10) 0.3329(8) 0.1900(7)
N1 N 0.1524(9) 0.7324(7) 0.9816(6)
N16 N 0.4497(10) 0.6671(8) 0.8100(7)
N17 N 0.4125(9) 0.5820(8) 0.8561(7)
N18 N 0.3760(11) 0.4936(9) 0.9010(9)
C1 C 0.1053(12) 0.7853(10) 0.8927(9)
H1 H 0.0618 0.7400 0.8512
C2 C 0.1184(13) 0.9058(11) 0.8593(9)
H2 H 0.0859 0.9397 0.7959
C3 C 0.1784(12) 0.9723(10) 0.9192(9)
N21 N 0.0592(9) 0.4396(8) 0.9003(7)
N7 N 0.9408(9) 0.5604(8) 0.0997(7)
N8 N 0.8978(10) 0.6420(9) 0.1544(7)
N9 N 0.8572(16) 0.7266(12) 0.2086(10)
N15 N 0.8925(18) 0.392(3) 0.3361(16)
Cd3 Cd 0.82571(7) 0.48714(6) 0.97605(5)
N8_2 N 0.1022(10) 0.3580(9) 0.8456(7)
N9_2 N 0.1428(16) 0.2734(12) 0.7914(10)
N15_2 N 0.1075(18) 0.608(3) 0.6639(16)
N1_2 N 0.8476(9) 0.2676(7) 0.0184(6)
N17_2 N 0.5875(9) 0.4180(8) 0.1439(7)
N18_2 N 0.6240(11) 0.5064(9) 0.0990(9)
C1_2 C 0.8947(12) 0.2147(10) 0.1073(9)
H1_2 H 0.9382 0.2600 0.1488
C2_2 C 0.8816(13) 0.0942(11) 0.1407(9)
H2_2 H 0.9141 0.0603 0.2041
C3_2 C 0.8216(12) 0.0277(10) 0.0808(9)
N2_2 N 0.7358(8) 0.3874(6) 0.8499(6)
N3_2 N 0.6780(8) 0.4285(6) 0.7572(6)
N4_2 N 0.6720(8) 0.2321(6) 0.7842(6)
N10_2 N 0.7588(10) 0.6631(7) 0.8812(6)
N11_2 N 0.6921(12) 0.7448(8) 0.9357(7)
N12_2 N 0.6282(18) 0.8222(11) 0.9857(9)
N13_2 N 0.8882(11) 0.6199(13) 0.6135(9)
N14_2 N 0.9949(13) 0.6115(11) 0.6399(9)
C4_2 C 0.7687(11) 0.0811(8) 0.9900(8)
H4_2 H 0.7234 0.0367 0.9491
C5_2 C 0.7832(10) 0.1993(8) 0.9604(7)
C6_2 C 0.7343(10) 0.2713(8) 0.8642(7)
C7_2 C 0.6405(10) 0.3341(8) 0.7199(7)
C8_2 C 0.5689(10) 0.3348(7) 0.6226(7)
C9_2 C 0.4291(12) 0.3850(12) 0.6241(8)
H5_2 H 0.3765 0.4191 0.6864
C10_2 C 0.3656(12) 0.3850(12) 0.5322(9)
H6_2 H 0.2689 0.4171 0.5349
C11_2 C 0.5731(13) 0.2961(12) 0.4391(9)
H7_2 H 0.6252 0.2683 0.3744
C12_2 C 0.6430(13) 0.2879(12) 0.5290(9)
H8_2 H 0.7384 0.2512 0.5256
C13_2 C 0.6623(10) 0.1080(7) 0.7591(7)
C14_2 C 0.7826(11) 0.0358(8) 0.7117(9)
H9_2 H 0.8686 0.0652 0.6966
C17_2 C 0.5357(11) 0.0634(9) 0.7839(9)
H12_2 H 0.4529 0.1114 0.8164
N20 N 0.6525(8) 0.8712(6) 0.7120(6)
C15_2 C 0.7724(12) 0.9167(8) 0.6866(9)
H10_2 H 0.8521 0.8676 0.6510
C16_2 C 0.5395(11) 0.9418(9) 0.7574(9)
H11_2 H 0.4556 0.9092 0.7733
H3 H 0.1843 0.0542 0.8996
H3_2 H 0.8157 0.9458 0.1004
loop_
_geom_bond_atom_site_label_1
_geom_bond_atom_site_label_2
_geom_bond_site_symmetry_1
_geom_bond_site_symmetry_2
N6 C15 1_555 1_555
H10 C15 1_555 1_555
C16 N6 1_555 1_555
H11 C16 1_555 1_555
Cd5 N6 1_555 1_555
Cd5 N3 1_555 1_555
N2 Cd1 1_555 1_555
N3 N2 1_555 1_555
N4 C6 1_555 1_555
N5 C10 1_555 1_555
N10 Cd1 1_555 1_555
N11 N10 1_555 1_555
N12 N11 1_555 1_555
N13 Cd5 1_555 1_555
N14 N13 1_555 1_555
H4 C4 1_555 1_555
C6 N2 1_555 1_555
C7 N3 1_555 1_555
C8 C7 1_555 1_555
C9 C8 1_555 1_555
H5 C9 1_555 1_555
C10 C9 1_555 1_555
H6 C10 1_555 1_555
C11 N5 1_555 1_555
H7 C11 1_555 1_555
C12 C8 1_555 1_555
H8 C12 1_555 1_555
C13 N4 1_555 1_555
C14 C13 1_555 1_555
H9 C14 1_555 1_555
C17 C13 1_555 1_555
H12 C17 1_555 1_555
Cd4 N5 1_555 1_555
N19 Cd5 1_555 1_555
N22 Cd5 1_555 1_555
Cd5 N10 1_555 1_555
N4 C7 1_555 1_555
C4 C5 1_555 1_555
C5 C6 1_555 1_555
C11 C12 1_555 1_555
N1 C1 1_555 1_555
N16 N17 1_555 1_555
N17 N18 1_555 1_555
C1 H1 1_555 1_555
C2 C1 1_555 1_555
H2 C2 1_555 1_555
C3 C2 1_555 1_555
Cd4 N16 1_555 1_555
N8 N7 1_555 1_555
N9 N8 1_555 1_555
N8_2 N21 1_555 1_555
N9_2 N8_2 1_555 1_555
N1_2 C1_2 1_555 1_555
N22 N17_2 1_555 1_555
N17_2 N18_2 1_555 1_555
C1_2 H1_2 1_555 1_555
C2_2 C1_2 1_555 1_555
H2_2 C2_2 1_555 1_555
C3_2 C2_2 1_555 1_555
Cd4 N3_2 1_555 1_555
N2_2 Cd3 1_555 1_555
N3_2 N2_2 1_555 1_555
N4_2 C6_2 1_555 1_555
N19 C10_2 1_555 1_555
N10_2 Cd3 1_555 1_555
N11_2 N10_2 1_555 1_555
N12_2 N11_2 1_555 1_555
N13_2 Cd4 1_555 1_555
N14_2 N13_2 1_555 1_555
H4_2 C4_2 1_555 1_555
C6_2 N2_2 1_555 1_555
C7_2 N3_2 1_555 1_555
C8_2 C7_2 1_555 1_555
C9_2 C8_2 1_555 1_555
H5_2 C9_2 1_555 1_555
C10_2 C9_2 1_555 1_555
H6_2 C10_2 1_555 1_555
C11_2 N19 1_555 1_555
H7_2 C11_2 1_555 1_555
C12_2 C8_2 1_555 1_555
H8_2 C12_2 1_555 1_555
C13_2 N4_2 1_555 1_555
C14_2 C13_2 1_555 1_555
H9_2 C14_2 1_555 1_555
C17_2 C13_2 1_555 1_555
H12_2 C17_2 1_555 1_555
N20 Cd4 1_555 1_555
Cd4 N10_2 1_555 1_555
N4_2 C7_2 1_555 1_555
C4_2 C5_2 1_555 1_555
C5_2 C6_2 1_555 1_555
C11_2 C12_2 1_555 1_555
N20 C15_2 1_555 1_555
H10_2 C15_2 1_555 1_555
C16_2 N20 1_555 1_555
H11_2 C16_2 1_555 1_555

#END
