
###############################################################################
#
# This file contains modified crystal structure data generated from the
# MOF subset of the Cambridge Structural Database (CSD) v543 
# hosted by the Cambridge Crystallographic Data Centre (CCDC).
#
# This work is licensed under the Creative Commons
# Attribution-NonCommercial-ShareAlike 4.0 International License.
# To view a copy of this license, visit
# http://creativecommons.org/licenses/by-nc-sa/4.0/
# or send a letter to
# Creative Commons, PO Box 1866, Mountain View, CA 94042, USA.
#
# CIF created using the CSD Python API on 29 September 2022
# The structure has been converted into the P1 space group
# The structure has a 3D framework
# The original CSD entry XUYXAR is in the monoclinic crystal system
# The framework has been calculated to contain at least 10.0% void space
# The void calculation uses a probe of radius 1.32A, grid spacing 0.4
#
###############################################################################

data_XUYXAR
_chemical_formula_moiety         '(C104 H56 N8 O28 Zn8)n'
_symmetry_cell_setting           triclinic
_symmetry_space_group_name_H-M   'P 1'
_symmetry_Int_Tables_number      1
_space_group_name_Hall           'P 1'
loop_
_symmetry_equiv_pos_site_id
_symmetry_equiv_pos_as_xyz
1 x,y,z
_cell_length_a                   8.2087(7)
_cell_length_b                   14.9912(13)
_cell_length_c                   21.9789(19)
_cell_angle_alpha                90
_cell_angle_beta                 94.702(1)
_cell_angle_gamma                90
_cell_volume                     2695.58
loop_
_atom_site_label
_atom_site_type_symbol
_atom_site_fract_x
_atom_site_fract_y
_atom_site_fract_z
Zn8 Zn 0.32564(5) 0.08091(2) 0.135064(17)
O21 O 0.3318(3) 0.01478(17) 0.05737(12)
Zn10 Zn 0.03362(5) 0.26724(3) 0.742830(18)
Zn7 Zn 0.67436(5) 0.91909(2) 0.864936(17)
Zn12 Zn 0.46638(5) 0.76724(3) 0.757170(18)
C28 C 0.0260(4) 0.5461(2) 0.79765(15)
C31 C 0.0694(4) 0.6953(2) 0.87443(15)
C32 C 0.1654(4) 0.6193(2) 0.88328(16)
H16 H 0.2480 0.6187 0.9149
C33 C 0.1421(4) 0.5449(2) 0.84668(16)
H17 H 0.2047 0.4940 0.8551
C35 C 0.1030(4) 0.7691(2) 0.91945(15)
C36 C 0.2457(4) 0.8198(2) 0.92058(14)
C37 C 0.3643(5) 0.8116(2) 0.87252(15)
C38 C 0.2806(4) 0.8821(2) 0.96689(15)
H18 H 0.3756 0.9160 0.9672
C47 C 0.0954(6) 0.0775(3) 0.7762(2)
C48 C 0.1824(6) 0.1287(3) 0.8254(2)
C49 C 0.2756(7) 0.0902(4) 0.8740(3)
H25 H 0.2848 0.0284 0.8766
C50 C 0.3525(7) 0.1416(5) 0.9174(3)
H26 H 0.4138 0.1158 0.9503
C51 C 0.3399(7) 0.2310(4) 0.9127(2)
H27 H 0.3936 0.2675 0.9421
C52 C 0.2469(6) 0.2678(3) 0.8641(2)
H28 H 0.2391 0.3296 0.8613
N3 N 0.0282(4) 0.1255(2) 0.72897(17)
N4 N 0.1679(4) 0.2180(2) 0.82104(15)
O9 O 0.0374(3) 0.39193(16) 0.77925(11)
O15 O 0.3081(3) 0.79217(17) 0.81916(11)
O17 O 0.1919(3) 0.29217(17) 0.68084(11)
O18 O 0.5136(3) 0.82429(17) 0.88796(12)
C2 C 0.4740(4) 0.0461(2) 0.70235(15)
C3 C 0.5687(4) 0.1218(2) 0.71262(15)
H1 H 0.6457 0.1234 0.7461
C4 C 0.5522(4) 0.1956(2) 0.67442(15)
C5 C 0.4306(4) 0.1953(2) 0.62557(15)
C6 C 0.3346(4) 0.1193(2) 0.61672(16)
H2 H 0.2520 0.1187 0.5851
C7 C 0.3579(4) 0.0449(2) 0.65332(16)
C8 C 0.6715(4) 0.2712(2) 0.68543(16)
C9 C 0.3970(4) 0.2691(2) 0.58055(15)
C10 C 0.2543(4) 0.3198(2) 0.57942(14)
C11 C 0.1357(5) 0.3116(2) 0.62748(15)
C12 C 0.2194(4) 0.3821(2) 0.53311(15)
H4 H 0.1244 0.4160 0.5328
C13 C 0.3240(4) 0.3943(2) 0.48760(15)
C14 C 0.4648(5) 0.3431(3) 0.48832(17)
H5 H 0.5356 0.3503 0.4577
C15 C 0.5005(5) 0.2816(2) 0.53405(17)
H6 H 0.5954 0.2477 0.5339
C16 C 0.2841(5) 0.4604(2) 0.43708(17)
O3 O 0.6499(3) 0.33914(15) 0.65285(12)
O4 O 0.7853(3) 0.26122(17) 0.72675(12)
O7 O 0.1682(3) 0.51478(17) 0.44263(12)
O8 O 0.3603(4) 0.4596(2) 0.39091(13)
Zn4 Zn 0.82564(5) 0.41909(2) 0.635064(17)
Zn6 Zn 0.17436(5) 0.58091(2) 0.364936(17)
C1 C 0.5030(4) 0.9658(2) 0.74285(15)
H3 H 0.2953 0.9940 0.6449
C17 C 0.5484(6) 0.5837(3) 0.8185(3)
H7 H 0.5950 0.6172 0.8510
C18 C 0.5608(7) 0.4915(4) 0.8207(3)
H8 H 0.6127 0.4633 0.8546
C19 C 0.4950(10) 0.4423(4) 0.7718(4)
H9 H 0.5037 0.3804 0.7721
C20 C 0.4174(8) 0.4846(3) 0.7232(3)
H10 H 0.3731 0.4521 0.6898
C21 C 0.4046(6) 0.5775(3) 0.7238(2)
C22 C 0.3176(6) 0.6287(3) 0.6746(2)
C23 C 0.2244(7) 0.5902(4) 0.6260(3)
H11 H 0.2152 0.5284 0.6234
C24 C 0.1475(7) 0.6416(5) 0.5826(3)
H12 H 0.0862 0.6158 0.5497
C25 C 0.1601(7) 0.7310(4) 0.5873(2)
H13 H 0.1064 0.7675 0.5579
C26 C 0.2531(6) 0.7678(3) 0.6359(2)
H14 H 0.2609 0.8296 0.6387
N1 N 0.4718(4) 0.6255(2) 0.77103(17)
N2 N 0.3321(4) 0.7180(2) 0.67896(15)
O1 O 0.4626(3) 0.89193(16) 0.72075(11)
O2 O 0.5659(4) 0.98154(17) 0.79593(11)
C27 C 0.9970(4) 0.4658(2) 0.75715(15)
C29 C 0.9313(4) 0.6218(2) 0.78738(15)
H15 H 0.8543 0.6234 0.7539
C30 C 0.9478(4) 0.6956(2) 0.82558(15)
C34 C 0.8285(4) 0.7712(2) 0.81457(16)
C41 C 0.9995(5) 0.7816(2) 0.96595(17)
H20 H 0.9046 0.7477 0.9661
C43 C 0.9516(6) 0.0837(3) 0.6815(3)
H21 H 0.9050 0.1172 0.6490
O10 O 0.9341(4) 0.48154(17) 0.70407(11)
O11 O 0.8501(3) 0.83914(15) 0.84715(12)
O13 O 0.7147(3) 0.76122(17) 0.77325(12)
O20 O 0.9864(3) 0.32429(17) 0.61204(12)
O22 O 0.6682(3) 0.98522(17) 0.94263(12)
O23 O 0.8318(3) 0.48522(17) 0.55737(12)
C44 C 0.9392(7) 0.9915(4) 0.6793(3)
H22 H 0.8873 0.9633 0.6454
H23 H 0.9963 0.8804 0.7279
O6 O 0.0136(3) 0.67571(17) 0.38796(12)
C44_2 C 0.0608(7) 0.0085(4) 0.3207(3)
H22_2 H 0.1127 0.0367 0.3546
H23_2 H 0.0037 0.1196 0.2721
Zn2 Zn 0.53362(5) 0.23276(3) 0.242830(18)
C1_2 C 0.4970(4) 0.0342(2) 0.25715(15)
H3_2 H 0.7047 0.0060 0.3551
C17_2 C 0.4516(6) 0.4163(3) 0.1815(3)
H7_2 H 0.4050 0.3828 0.1490
C18_2 C 0.4392(7) 0.5085(4) 0.1793(3)
H8_2 H 0.3873 0.5367 0.1454
C19_2 C 0.5050(10) 0.5577(4) 0.2282(4)
H9_2 H 0.4963 0.6196 0.2279
C20_2 C 0.5826(8) 0.5154(3) 0.2768(3)
H10_2 H 0.6269 0.5479 0.3102
C21_2 C 0.5954(6) 0.4225(3) 0.2762(2)
C22_2 C 0.6824(6) 0.3713(3) 0.3254(2)
C23_2 C 0.7756(7) 0.4098(4) 0.3740(3)
H11_2 H 0.7848 0.4716 0.3766
C24_2 C 0.8525(7) 0.3584(5) 0.4174(3)
H12_2 H 0.9138 0.3842 0.4503
C25_2 C 0.8399(7) 0.2690(4) 0.4127(2)
H13_2 H 0.8936 0.2325 0.4421
C26_2 C 0.7469(6) 0.2322(3) 0.3641(2)
H14_2 H 0.7391 0.1704 0.3613
N1_2 N 0.5282(4) 0.3745(2) 0.22897(17)
N2_2 N 0.6679(4) 0.2820(2) 0.32104(15)
O1_2 O 0.5374(3) 0.10807(16) 0.27925(11)
O2_2 O 0.4341(4) 0.01846(17) 0.20407(11)
C27_2 C 0.0030(4) 0.5342(2) 0.24285(15)
C29_2 C 0.0687(4) 0.3782(2) 0.21262(15)
H15_2 H 0.1457 0.3766 0.2461
C30_2 C 0.0522(4) 0.3044(2) 0.17442(15)
C34_2 C 0.1715(4) 0.2288(2) 0.18543(16)
C41_2 C 0.0005(5) 0.2184(2) 0.03405(17)
H20_2 H 0.0954 0.2523 0.0339
C43_2 C 0.0484(6) 0.9163(3) 0.3185(3)
H21_2 H 0.0950 0.8828 0.3510
O10_2 O 0.0659(4) 0.51846(17) 0.29593(11)
O11_2 O 0.1499(3) 0.16086(15) 0.15285(12)
O12 O 0.3501(3) 0.66086(15) 0.34715(12)
O13_2 O 0.2853(3) 0.23878(17) 0.22675(12)
O14 O 0.2147(3) 0.73878(17) 0.27325(12)
O16 O 0.6919(3) 0.20783(17) 0.18084(11)
O19 O 0.4864(3) 0.17571(17) 0.11204(12)
C2_2 C 0.5260(4) 0.9539(2) 0.29765(15)
C3_2 C 0.4313(4) 0.8782(2) 0.28738(15)
H1_2 H 0.3543 0.8766 0.2539
C4_2 C 0.4478(4) 0.8044(2) 0.32558(15)
C5_2 C 0.5694(4) 0.8047(2) 0.37443(15)
C6_2 C 0.6654(4) 0.8807(2) 0.38328(16)
H2_2 H 0.7480 0.8813 0.4149
C7_2 C 0.6421(4) 0.9551(2) 0.34668(16)
C8_2 C 0.3285(4) 0.7288(2) 0.31457(16)
C9_2 C 0.6030(4) 0.7309(2) 0.41945(15)
C10_2 C 0.7457(4) 0.6802(2) 0.42058(14)
C11_2 C 0.8643(5) 0.6884(2) 0.37252(15)
C12_2 C 0.7806(4) 0.6179(2) 0.46689(15)
H4_2 H 0.8756 0.5840 0.4672
C13_2 C 0.6760(4) 0.6057(2) 0.51240(15)
C14_2 C 0.5352(5) 0.6569(3) 0.51168(17)
H5_2 H 0.4644 0.6497 0.5423
C15_2 C 0.4995(5) 0.7184(2) 0.46595(17)
H6_2 H 0.4046 0.7523 0.4661
C16_2 C 0.7159(5) 0.5396(2) 0.56292(17)
O5 O 0.8081(3) 0.70783(17) 0.31916(11)
O8_2 O 0.6397(4) 0.5404(2) 0.60909(13)
Zn11 Zn 0.96638(5) 0.73276(3) 0.257170(18)
C28_2 C 0.9740(4) 0.4539(2) 0.20235(15)
C31_2 C 0.9306(4) 0.3047(2) 0.12557(15)
C32_2 C 0.8346(4) 0.3807(2) 0.11672(16)
H16_2 H 0.7520 0.3813 0.0851
C33_2 C 0.8579(4) 0.4551(2) 0.15332(16)
H17_2 H 0.7953 0.5060 0.1449
C35_2 C 0.8970(4) 0.2309(2) 0.08055(15)
C36_2 C 0.7543(4) 0.1802(2) 0.07942(14)
C37_2 C 0.6357(5) 0.1884(2) 0.12748(15)
C38_2 C 0.7194(4) 0.1179(2) 0.03311(15)
H18_2 H 0.6244 0.0840 0.0328
C47_2 C 0.9046(6) 0.9225(3) 0.2238(2)
C48_2 C 0.8176(6) 0.8713(3) 0.1746(2)
C49_2 C 0.7244(7) 0.9098(4) 0.1260(3)
H25_2 H 0.7152 0.9716 0.1234
C50_2 C 0.6475(7) 0.8584(5) 0.0826(3)
H26_2 H 0.5862 0.8842 0.0497
C51_2 C 0.6601(7) 0.7690(4) 0.0873(2)
H27_2 H 0.6064 0.7325 0.0579
C52_2 C 0.7531(6) 0.7322(3) 0.1359(2)
H28_2 H 0.7609 0.6704 0.1387
N3_2 N 0.9718(4) 0.8745(2) 0.27103(17)
N4_2 N 0.8321(4) 0.7820(2) 0.17896(15)
O9_2 O 0.9626(3) 0.60807(16) 0.22075(11)
C39 C 0.1760(4) 0.8943(2) 0.01240(15)
C40 C 0.0352(5) 0.8431(3) 0.01168(17)
C42 C 0.2159(5) 0.9604(2) 0.06292(17)
O24 O 0.1397(4) 0.9596(2) 0.10909(13)
C45 C 0.0050(10) 0.9423(4) 0.7282(4)
C46 C 0.0826(8) 0.9846(3) 0.7768(3)
H24 H 0.1269 0.9521 0.8102
H19 H 0.9644 0.8503 0.0423
H19_2 H 0.0356 0.1497 0.9577
C45_2 C 0.9950(10) 0.0577(4) 0.2718(4)
C46_2 C 0.9174(8) 0.0154(3) 0.2232(3)
H24_2 H 0.8731 0.0479 0.1898
C39_2 C 0.8240(4) 0.1057(2) 0.98760(15)
C40_2 C 0.9648(5) 0.1569(3) 0.98832(17)
C42_2 C 0.7841(5) 0.0396(2) 0.93708(17)
O24_2 O 0.8603(4) 0.0404(2) 0.89091(13)
loop_
_geom_bond_atom_site_label_1
_geom_bond_atom_site_label_2
_geom_bond_site_symmetry_1
_geom_bond_site_symmetry_2
Zn8 O21 1_555 1_555
Zn7 O18 1_555 1_555
Zn10 N3 1_555 1_555
Zn12 O15 1_555 1_555
C32 C31 1_555 1_555
H16 C32 1_555 1_555
C33 C28 1_555 1_555
H17 C33 1_555 1_555
C35 C31 1_555 1_555
C36 C35 1_555 1_555
C37 C36 1_555 1_555
C38 C36 1_555 1_555
H18 C38 1_555 1_555
C48 C47 1_555 1_555
C49 C48 1_555 1_555
H25 C49 1_555 1_555
C50 C49 1_555 1_555
H26 C50 1_555 1_555
C51 C50 1_555 1_555
H27 C51 1_555 1_555
C52 C51 1_555 1_555
H28 C52 1_555 1_555
N4 Zn10 1_555 1_555
O9 Zn10 1_555 1_555
O15 C37 1_555 1_555
O17 Zn10 1_555 1_555
O18 C37 1_555 1_555
C32 C33 1_555 1_555
C47 N3 1_555 1_555
C48 N4 1_555 1_555
C52 N4 1_555 1_555
C2 C3 1_555 1_555
C3 H1 1_555 1_555
C4 C3 1_555 1_555
C5 C4 1_555 1_555
C6 C5 1_555 1_555
H2 C6 1_555 1_555
C7 C2 1_555 1_555
C8 C4 1_555 1_555
C9 C5 1_555 1_555
C10 C9 1_555 1_555
C11 C10 1_555 1_555
C12 C10 1_555 1_555
H4 C12 1_555 1_555
C13 C12 1_555 1_555
C14 C13 1_555 1_555
H5 C14 1_555 1_555
C15 C9 1_555 1_555
H6 C15 1_555 1_555
C16 C13 1_555 1_555
O3 C8 1_555 1_555
O4 C8 1_555 1_555
O17 C11 1_555 1_555
O7 C16 1_555 1_555
O8 C16 1_555 1_555
Zn4 O3 1_555 1_555
Zn6 O7 1_555 1_555
C6 C7 1_555 1_555
C14 C15 1_555 1_555
Zn7 O2 1_555 1_555
Zn12 N1 1_555 1_555
C17 H7 1_555 1_555
C18 C17 1_555 1_555
H8 C18 1_555 1_555
C19 C18 1_555 1_555
H9 C19 1_555 1_555
C20 C19 1_555 1_555
H10 C20 1_555 1_555
C21 C20 1_555 1_555
C22 C21 1_555 1_555
C23 C22 1_555 1_555
H11 C23 1_555 1_555
C24 C23 1_555 1_555
H12 C24 1_555 1_555
C25 C24 1_555 1_555
H13 C25 1_555 1_555
C26 C25 1_555 1_555
H14 C26 1_555 1_555
N1 C17 1_555 1_555
N2 Zn12 1_555 1_555
O1 Zn12 1_555 1_555
O2 C1 1_555 1_555
Zn4 O10 1_555 1_555
C29 H15 1_555 1_555
C30 C29 1_555 1_555
C34 C30 1_555 1_555
H20 C41 1_555 1_555
C43 H21 1_555 1_555
O10 C27 1_555 1_555
O11 Zn7 1_555 1_555
O13 Zn12 1_555 1_555
O20 Zn4 1_555 1_555
O22 Zn7 1_555 1_555
O23 Zn4 1_555 1_555
C1 O1 1_555 1_555
C21 N1 1_555 1_555
C22 N2 1_555 1_555
C26 N2 1_555 1_555
C34 O11 1_555 1_555
C34 O13 1_555 1_555
H22 C44 1_555 1_555
Zn6 O6 1_555 1_555
H22_2 C44_2 1_555 1_555
Zn8 O2_2 1_555 1_555
Zn2 N1_2 1_555 1_555
C17_2 H7_2 1_555 1_555
C18_2 C17_2 1_555 1_555
H8_2 C18_2 1_555 1_555
C19_2 C18_2 1_555 1_555
H9_2 C19_2 1_555 1_555
C20_2 C19_2 1_555 1_555
H10_2 C20_2 1_555 1_555
C21_2 C20_2 1_555 1_555
C22_2 C21_2 1_555 1_555
C23_2 C22_2 1_555 1_555
H11_2 C23_2 1_555 1_555
C24_2 C23_2 1_555 1_555
H12_2 C24_2 1_555 1_555
C25_2 C24_2 1_555 1_555
H13_2 C25_2 1_555 1_555
C26_2 C25_2 1_555 1_555
H14_2 C26_2 1_555 1_555
N1_2 C17_2 1_555 1_555
N2_2 Zn2 1_555 1_555
O1_2 Zn2 1_555 1_555
O2_2 C1_2 1_555 1_555
Zn6 O10_2 1_555 1_555
C29_2 H15_2 1_555 1_555
C30_2 C29_2 1_555 1_555
C34_2 C30_2 1_555 1_555
H20_2 C41_2 1_555 1_555
C43_2 H21_2 1_555 1_555
O10_2 C27_2 1_555 1_555
O11_2 Zn8 1_555 1_555
O12 Zn6 1_555 1_555
O13_2 Zn2 1_555 1_555
O16 Zn2 1_555 1_555
O19 Zn8 1_555 1_555
C1_2 O1_2 1_555 1_555
C21_2 N1_2 1_555 1_555
C22_2 N2_2 1_555 1_555
C26_2 N2_2 1_555 1_555
C34_2 O11_2 1_555 1_555
C34_2 O13_2 1_555 1_555
C2_2 C3_2 1_555 1_555
C3_2 H1_2 1_555 1_555
C4_2 C3_2 1_555 1_555
C5_2 C4_2 1_555 1_555
C6_2 C5_2 1_555 1_555
H2_2 C6_2 1_555 1_555
C7_2 C2_2 1_555 1_555
C8_2 C4_2 1_555 1_555
C9_2 C5_2 1_555 1_555
C10_2 C9_2 1_555 1_555
C11_2 C10_2 1_555 1_555
C12_2 C10_2 1_555 1_555
H4_2 C12_2 1_555 1_555
C13_2 C12_2 1_555 1_555
C14_2 C13_2 1_555 1_555
H5_2 C14_2 1_555 1_555
C15_2 C9_2 1_555 1_555
H6_2 C15_2 1_555 1_555
C16_2 C13_2 1_555 1_555
O12 C8_2 1_555 1_555
O14 C8_2 1_555 1_555
O5 C11_2 1_555 1_555
O23 C16_2 1_555 1_555
O8_2 C16_2 1_555 1_555
Zn11 O5 1_555 1_555
C6_2 C7_2 1_555 1_555
C14_2 C15_2 1_555 1_555
Zn11 N3_2 1_555 1_555
C32_2 C31_2 1_555 1_555
H16_2 C32_2 1_555 1_555
C33_2 C28_2 1_555 1_555
H17_2 C33_2 1_555 1_555
C35_2 C31_2 1_555 1_555
C36_2 C35_2 1_555 1_555
C37_2 C36_2 1_555 1_555
C38_2 C36_2 1_555 1_555
H18_2 C38_2 1_555 1_555
C48_2 C47_2 1_555 1_555
C49_2 C48_2 1_555 1_555
H25_2 C49_2 1_555 1_555
C50_2 C49_2 1_555 1_555
H26_2 C50_2 1_555 1_555
C51_2 C50_2 1_555 1_555
H27_2 C51_2 1_555 1_555
C52_2 C51_2 1_555 1_555
H28_2 C52_2 1_555 1_555
N4_2 Zn11 1_555 1_555
O9_2 Zn11 1_555 1_555
O16 C37_2 1_555 1_555
O19 C37_2 1_555 1_555
C32_2 C33_2 1_555 1_555
C47_2 N3_2 1_555 1_555
C48_2 N4_2 1_555 1_555
C52_2 N4_2 1_555 1_555
C40 C39 1_555 1_555
C42 C39 1_555 1_555
O24 C42 1_555 1_555
C46 C45 1_555 1_555
H24 C46 1_555 1_555
C46_2 C45_2 1_555 1_555
H24_2 C46_2 1_555 1_555
C40_2 C39_2 1_555 1_555
C42_2 C39_2 1_555 1_555
O24_2 C42_2 1_555 1_555

#END
