
###############################################################################
#
# This file contains modified crystal structure data generated from the
# MOF subset of the Cambridge Structural Database (CSD) v543 
# hosted by the Cambridge Crystallographic Data Centre (CCDC).
#
# This work is licensed under the Creative Commons
# Attribution-NonCommercial-ShareAlike 4.0 International License.
# To view a copy of this license, visit
# http://creativecommons.org/licenses/by-nc-sa/4.0/
# or send a letter to
# Creative Commons, PO Box 1866, Mountain View, CA 94042, USA.
#
# CIF created using the CSD Python API on 29 September 2022
# The structure has been converted into the P1 space group
# The structure has a 3D framework
# The original CSD entry XUZFUU is in the orthorhombic crystal system
# The framework has been calculated to contain at least 10.0% void space
# The void calculation uses a probe of radius 1.32A, grid spacing 0.4
# The framework is charged, counterions have been retained in the structure
#
###############################################################################

data_XUZFUU
_chemical_formula_moiety         '(C60 H20 Ho4 Na22 O40 2-)n'
_symmetry_cell_setting           triclinic
_symmetry_space_group_name_H-M   'P 1'
_symmetry_Int_Tables_number      1
_space_group_name_Hall           'P 1'
loop_
_symmetry_equiv_pos_site_id
_symmetry_equiv_pos_as_xyz
1 x,y,z
_cell_length_a                   16.6995(15)
_cell_length_b                   16.7106(16)
_cell_length_c                   9.7907(10)
_cell_angle_alpha                90
_cell_angle_beta                 90
_cell_angle_gamma                90
_cell_volume                     2732.18
loop_
_atom_site_label
_atom_site_type_symbol
_atom_site_fract_x
_atom_site_fract_y
_atom_site_fract_z
Ho1 Ho -0.0000 0.7500 0.11987(7)
O1 O 0.0902(4) 0.7500 0.3100(7)
O2 O 0.1360(4) 0.7500 0.0513(8)
O3 O -0.0000 0.6170(4) 0.1956(8)
C1 C 0.1676(6) 0.7500 0.2878(11)
C2 C 0.1928(6) 0.7500 0.1422(11)
C3 C -0.0000 0.4780(6) 0.1384(11)
C5 C -0.0000 0.5585(6) 0.1046(10)
C6 C 0.2253(6) 0.7500 0.3900(10)
H1 H -0.0000 0.4634 0.2322
H2 H 0.2091 0.7500 0.4830
Ho2 Ho 0.5000 0.7500 0.38013(7)
O5 O 0.4098(4) 0.7500 0.1900(7)
O7 O 0.3640(4) 0.7500 0.4487(8)
O10 O 0.0000 0.8830(4) 0.1956(8)
O11 O -0.0000 0.3397(4) 0.0664(8)
C7 C 0.3324(6) 0.7500 0.2122(11)
C8 C 0.3072(6) 0.7500 0.3578(11)
C10 C 0.0000 0.4169(6) 0.0389(9)
C12 C 0.2747(6) 0.7500 0.1100(10)
H4 H 0.2909 0.7500 0.0170
O4 O -0.0000 0.6603(4) 0.9336(8)
C4 C -0.0000 0.5831(6) 0.9611(9)
Ho3 Ho -0.0000 0.2500 0.88013(7)
O9 O -0.0000 0.3830(4) 0.8044(8)
O12 O -0.0000 0.8397(4) 0.9336(8)
C9 C -0.0000 0.5220(6) 0.8616(11)
C11 C -0.0000 0.4415(6) 0.8954(10)
H3 H -0.0000 0.5366 0.7678
Ho1_2 Ho 1.0000 0.7500 0.11987(7)
O3_2 O 1.0000 0.6170(4) 0.1956(8)
C3_2 C 1.0000 0.4780(6) 0.1384(11)
C5_2 C 1.0000 0.5585(6) 0.1046(10)
H1_2 H 1.0000 0.4634 0.2322
O6 O 0.9098(4) 0.7500 0.3100(7)
O8 O 0.8640(4) 0.7500 0.0513(8)
O10_2 O 1.0000 0.8830(4) 0.1956(8)
O11_2 O 1.0000 0.3397(4) 0.0664(8)
C10_2 C 1.0000 0.4169(6) 0.0389(9)
O4_2 O 1.0000 0.6603(4) 0.9336(8)
C4_2 C 1.0000 0.5831(6) 0.9611(9)
Ho3_2 Ho 1.0000 0.2500 0.88013(7)
O9_2 O 1.0000 0.3830(4) 0.8044(8)
O12_2 O 1.0000 0.8397(4) 0.9336(8)
C9_2 C 1.0000 0.5220(6) 0.8616(11)
C11_2 C 1.0000 0.4415(6) 0.8954(10)
H3_2 H 1.0000 0.5366 0.7678
C3_3 C 0.0000 0.0220(6) 0.1384(11)
H1_3 H 0.0000 0.0366 0.2322
O11_3 O 0.0000 0.1603(4) 0.0664(8)
C10_3 C -0.0000 0.0831(6) 0.0389(9)
O9_3 O -0.0000 0.1170(4) 0.8044(8)
C11_3 C -0.0000 0.0585(6) 0.8954(10)
C5_3 C -0.0000 0.9415(6) 0.1046(10)
C4_3 C 0.0000 0.9169(6) 0.9611(9)
C9_3 C -0.0000 0.9780(6) 0.8616(11)
H3_3 H -0.0000 0.9634 0.7678
C3_4 C 1.0000 0.0220(6) 0.1384(11)
H1_4 H 1.0000 0.0366 0.2322
O11_4 O 1.0000 0.1603(4) 0.0664(8)
C10_4 C 1.0000 0.0831(6) 0.0389(9)
O9_4 O 1.0000 0.1170(4) 0.8044(8)
C11_4 C 1.0000 0.0585(6) 0.8954(10)
C1_2 C 0.8324(6) 0.7500 0.2878(11)
C2_2 C 0.8072(6) 0.7500 0.1422(11)
C5_4 C 1.0000 0.9415(6) 0.1046(10)
C6_2 C 0.7747(6) 0.7500 0.3900(10)
H2_2 H 0.7909 0.7500 0.4830
O5_2 O 0.5902(4) 0.7500 0.1900(7)
O7_2 O 0.6360(4) 0.7500 0.4487(8)
C7_2 C 0.6676(6) 0.7500 0.2122(11)
C8_2 C 0.6928(6) 0.7500 0.3578(11)
C12_2 C 0.7253(6) 0.7500 0.1100(10)
H4_2 H 0.7091 0.7500 0.0170
C4_4 C 1.0000 0.9169(6) 0.9611(9)
C9_4 C 1.0000 0.9780(6) 0.8616(11)
H3_4 H 1.0000 0.9634 0.7678
O1_2 O 0.0902(4) 0.2500 0.6900(7)
O2_2 O 0.1360(4) 0.2500 0.9487(8)
C1_3 C 0.1676(6) 0.2500 0.7122(11)
C2_3 C 0.1928(6) 0.2500 0.8578(11)
C6_3 C 0.2253(6) 0.2500 0.6100(10)
H2_3 H 0.2091 0.2500 0.5170
Ho2_2 Ho 0.5000 0.2500 0.61987(7)
O5_3 O 0.4098(4) 0.2500 0.8100(7)
O7_3 O 0.3640(4) 0.2500 0.5513(8)
C7_3 C 0.3324(6) 0.2500 0.7878(11)
C8_3 C 0.3072(6) 0.2500 0.6422(11)
C12_3 C 0.2747(6) 0.2500 0.8900(10)
H4_3 H 0.2909 0.2500 0.9830
O6_2 O 0.9098(4) 0.2500 0.6900(7)
O8_2 O 0.8640(4) 0.2500 0.9487(8)
C1_4 C 0.8324(6) 0.2500 0.7122(11)
C2_4 C 0.8072(6) 0.2500 0.8578(11)
C6_4 C 0.7747(6) 0.2500 0.6100(10)
H2_4 H 0.7909 0.2500 0.5170
O5_4 O 0.5902(4) 0.2500 0.8100(7)
O7_4 O 0.6360(4) 0.2500 0.5513(8)
C7_4 C 0.6676(6) 0.2500 0.7878(11)
C8_4 C 0.6928(6) 0.2500 0.6422(11)
C12_4 C 0.7253(6) 0.2500 0.8900(10)
H4_4 H 0.7091 0.2500 0.9830
O3_3 O 0.5000 0.1170(4) 0.6956(8)
O4_3 O 0.5000 0.1603(4) 0.4336(8)
C4_5 C 0.5000 0.0831(6) 0.4611(9)
C5_5 C 0.5000 0.0585(6) 0.6046(10)
O10_3 O 0.5000 0.3830(4) 0.6956(8)
O12_3 O 0.5000 0.3397(4) 0.4336(8)
C9_5 C 0.5000 0.0220(6) 0.3616(11)
H3_5 H 0.5000 0.0366 0.2678
C3_5 C 0.5000 0.9780(6) 0.6384(11)
H1_5 H 0.5000 0.9634 0.7322
O9_5 O 0.5000 0.8830(4) 0.3044(8)
O11_5 O 0.5000 0.8397(4) 0.5664(8)
C10_5 C 0.5000 0.9169(6) 0.5389(9)
C11_5 C 0.5000 0.9415(6) 0.3954(10)
C3_6 C 0.5000 0.5220(6) 0.6384(11)
C4_6 C 0.5000 0.4169(6) 0.4611(9)
C5_6 C 0.5000 0.4415(6) 0.6046(10)
H1_6 H 0.5000 0.5366 0.7322
O9_6 O 0.5000 0.6170(4) 0.3044(8)
O11_6 O 0.5000 0.6603(4) 0.5664(8)
C9_6 C 0.5000 0.4780(6) 0.3616(11)
C10_6 C 0.5000 0.5831(6) 0.5389(9)
C11_6 C 0.5000 0.5585(6) 0.3954(10)
H3_6 H 0.5000 0.4634 0.2678
Na1 Na -0.0000 0.7500 0.5071(7)
Na1_2 Na 1.0000 0.7500 0.5071(7)
Na1_3 Na -0.0000 0.2500 0.4929(7)
Na1_4 Na 1.0000 0.2500 0.4929(7)
Na1_5 Na 0.5000 0.2500 0.0071(7)
Na1_6 Na 0.5000 0.7500 0.9929(7)
Na2 Na 0.8619(5) 0.6865(5) 0.8283(9)
Na2_2 Na 0.1381(5) 0.8135(5) 0.8283(9)
Na2_3 Na 0.8619(5) 0.3135(5) 0.1717(9)
Na2_4 Na 0.1381(5) 0.1865(5) 0.1717(9)
Na2_5 Na 0.3619(5) 0.1865(5) 0.3283(9)
Na2_6 Na 0.6381(5) 0.3135(5) 0.3283(9)
Na2_7 Na 0.3619(5) 0.8135(5) 0.6717(9)
Na2_8 Na 0.6381(5) 0.6865(5) 0.6717(9)
Na2_9 Na 0.1381(5) 0.3135(5) 0.1717(9)
Na2_10 Na 0.8619(5) 0.1865(5) 0.1717(9)
Na2_11 Na 0.1381(5) 0.6865(5) 0.8283(9)
Na2_12 Na 0.8619(5) 0.8135(5) 0.8283(9)
Na2_13 Na 0.6381(5) 0.8135(5) 0.6717(9)
Na2_14 Na 0.3619(5) 0.6865(5) 0.6717(9)
Na2_15 Na 0.6381(5) 0.1865(5) 0.3283(9)
Na2_16 Na 0.3619(5) 0.3135(5) 0.3283(9)
loop_
_geom_bond_atom_site_label_1
_geom_bond_atom_site_label_2
_geom_bond_site_symmetry_1
_geom_bond_site_symmetry_2
Ho1 O1 1_555 1_555
O1 C1 1_555 1_555
O2 Ho1 1_555 1_555
O3 Ho1 1_555 1_555
C1 C2 1_555 1_555
C2 O2 1_555 1_555
C3 C5 1_555 1_555
C5 O3 1_555 1_555
C6 C1 1_555 1_555
H1 C3 1_555 1_555
H2 C6 1_555 1_555
Ho2 O5 1_555 1_555
O5 C7 1_555 1_555
O7 Ho2 1_555 1_555
O10 Ho1 1_555 1_555
C7 C8 1_555 1_555
C8 C6 1_555 1_555
C10 C3 1_555 1_555
C12 C2 1_555 1_555
H4 C12 1_555 1_555
O7 C8 1_555 1_555
O11 C10 1_555 1_555
C7 C12 1_555 1_555
C4 O4 1_555 1_555
Ho3 O9 1_555 1_555
O9 C11 1_555 1_555
C9 C4 1_555 1_555
C11 C9 1_555 1_555
H3 C9 1_555 1_555
O3_2 Ho1_2 1_555 1_555
C3_2 C5_2 1_555 1_555
C5_2 O3_2 1_555 1_555
H1_2 C3_2 1_555 1_555
O6 Ho1_2 1_555 1_555
O8 Ho1_2 1_555 1_555
O10_2 Ho1_2 1_555 1_555
C10_2 C3_2 1_555 1_555
O11_2 C10_2 1_555 1_555
C4_2 O4_2 1_555 1_555
Ho3_2 O9_2 1_555 1_555
O9_2 C11_2 1_555 1_555
C9_2 C4_2 1_555 1_555
C11_2 C9_2 1_555 1_555
H3_2 C9_2 1_555 1_555
H1_3 C3_3 1_555 1_555
C10_3 C3_3 1_555 1_555
O11_3 C10_3 1_555 1_555
Ho3 O9_3 1_555 1_555
O9_3 C11_3 1_555 1_555
C5_3 O10 1_555 1_555
C4_3 O12 1_555 1_555
C9_3 C4_3 1_555 1_555
H3_3 C9_3 1_555 1_555
H1_4 C3_4 1_555 1_555
C10_4 C3_4 1_555 1_555
O11_4 C10_4 1_555 1_555
Ho3_2 O9_4 1_555 1_555
O9_4 C11_4 1_555 1_555
O6 C1_2 1_555 1_555
C1_2 C2_2 1_555 1_555
C2_2 O8 1_555 1_555
C5_4 O10_2 1_555 1_555
C6_2 C1_2 1_555 1_555
H2_2 C6_2 1_555 1_555
Ho2 O5_2 1_555 1_555
O5_2 C7_2 1_555 1_555
O7_2 Ho2 1_555 1_555
C7_2 C8_2 1_555 1_555
C8_2 C6_2 1_555 1_555
C12_2 C2_2 1_555 1_555
H4_2 C12_2 1_555 1_555
O7_2 C8_2 1_555 1_555
C7_2 C12_2 1_555 1_555
C4_4 O12_2 1_555 1_555
C9_4 C4_4 1_555 1_555
H3_4 C9_4 1_555 1_555
Ho3 O1_2 1_555 1_555
O1_2 C1_3 1_555 1_555
O2_2 Ho3 1_555 1_555
C1_3 C2_3 1_555 1_555
C2_3 O2_2 1_555 1_555
C6_3 C1_3 1_555 1_555
H2_3 C6_3 1_555 1_555
Ho2_2 O5_3 1_555 1_555
O5_3 C7_3 1_555 1_555
O7_3 Ho2_2 1_555 1_555
C7_3 C8_3 1_555 1_555
C8_3 C6_3 1_555 1_555
C12_3 C2_3 1_555 1_555
H4_3 C12_3 1_555 1_555
O7_3 C8_3 1_555 1_555
C7_3 C12_3 1_555 1_555
O6_2 Ho3_2 1_555 1_555
O8_2 Ho3_2 1_555 1_555
O6_2 C1_4 1_555 1_555
C1_4 C2_4 1_555 1_555
C2_4 O8_2 1_555 1_555
C6_4 C1_4 1_555 1_555
H2_4 C6_4 1_555 1_555
Ho2_2 O5_4 1_555 1_555
O5_4 C7_4 1_555 1_555
O7_4 Ho2_2 1_555 1_555
C7_4 C8_4 1_555 1_555
C8_4 C6_4 1_555 1_555
C12_4 C2_4 1_555 1_555
H4_4 C12_4 1_555 1_555
O7_4 C8_4 1_555 1_555
C7_4 C12_4 1_555 1_555
O3_3 Ho2_2 1_555 1_555
O4_3 Ho2_2 1_555 1_555
C4_5 O4_3 1_555 1_555
C5_5 O3_3 1_555 1_555
O10_3 Ho2_2 1_555 1_555
O12_3 Ho2_2 1_555 1_555
C9_5 C4_5 1_555 1_555
H3_5 C9_5 1_555 1_555
C4_5 C5_5 1_555 1_555
H1_5 C3_5 1_555 1_555
Ho2 O9_5 1_555 1_555
O9_5 C11_5 1_555 1_555
O11_5 Ho2 1_555 1_555
C10_5 C3_5 1_555 1_555
O11_5 C10_5 1_555 1_555
C10_5 C11_5 1_555 1_555
C3_6 C5_6 1_555 1_555
C4_6 O12_3 1_555 1_555
C5_6 O10_3 1_555 1_555
H1_6 C3_6 1_555 1_555
Ho2 O9_6 1_555 1_555
O9_6 C11_6 1_555 1_555
O11_6 Ho2 1_555 1_555
C9_6 C4_6 1_555 1_555
C10_6 C3_6 1_555 1_555
C11_6 C9_6 1_555 1_555
H3_6 C9_6 1_555 1_555
C4_6 C5_6 1_555 1_555
O11_6 C10_6 1_555 1_555
C10_6 C11_6 1_555 1_555

#END
