
###############################################################################
#
# This file contains modified crystal structure data generated from the
# MOF subset of the Cambridge Structural Database (CSD) v543 
# hosted by the Cambridge Crystallographic Data Centre (CCDC).
#
# This work is licensed under the Creative Commons
# Attribution-NonCommercial-ShareAlike 4.0 International License.
# To view a copy of this license, visit
# http://creativecommons.org/licenses/by-nc-sa/4.0/
# or send a letter to
# Creative Commons, PO Box 1866, Mountain View, CA 94042, USA.
#
# CIF created using the CSD Python API on 29 September 2022
# The structure has been converted into the P1 space group
# The structure has a 3D framework
# The original CSD entry XUZVUL is in the hexagonal crystal system
# The original CSD entry XUZVUL is in a Sohncke space group
# The framework has been calculated to contain at least 10.0% void space
# The void calculation uses a probe of radius 1.32A, grid spacing 0.4
#
###############################################################################

data_XUZVUL
_chemical_formula_moiety         '(C108 H96 Ag12 N24 O34)n'
_symmetry_cell_setting           triclinic
_symmetry_space_group_name_H-M   'P 1'
_symmetry_Int_Tables_number      1
_space_group_name_Hall           'P 1'
loop_
_symmetry_equiv_pos_site_id
_symmetry_equiv_pos_as_xyz
1 x,y,z
_cell_length_a                   16.5478(10)
_cell_length_b                   16.5478(12)
_cell_length_c                   12.4353(15)
_cell_angle_alpha                90
_cell_angle_beta                 90
_cell_angle_gamma                120
_cell_volume                     2948.95
loop_
_atom_site_label
_atom_site_type_symbol
_atom_site_fract_x
_atom_site_fract_y
_atom_site_fract_z
Ag1 Ag 0.65222(3) 0.34778(3) 0.4167
Ag2 Ag 0.39649(3) 0.60351(3) 0.4167
N1 N 0.5740(3) 0.4260(3) 0.4167
N2 N 0.4784(3) 0.5216(3) 0.4167
N3 N -0.0000 0.1821(7) 0.3333
O1 O 0.1880(4) 0.5971(4) 0.3056(4)
O2 O 0.2418(4) 0.5132(4) 0.3862(5)
O3 O 0.0697(6) 0.1817(6) 0.3663(11)
C1 C -0.0000 0.4350(6) 0.3333
H1 H -0.0000 0.4924 0.3333
C2 C 0.0839(5) 0.4346(5) 0.3410(6)
C3 C 0.0832(6) 0.3518(6) 0.3437(7)
H2 H 0.1397 0.3507 0.3525
C4 C -0.0000 0.2704(7) 0.3333
C5 C 0.1788(5) 0.5239(5) 0.3451(6)
C6 C 0.3338(6) 0.3847(6) 0.4755(8)
H3 H 0.3287 0.3876 0.5538
H4 H 0.3023 0.3193 0.4525
H5 H 0.3045 0.4167 0.4408
C7 C 0.4375(8) 0.2843(7) 0.4711(8)
H6 H 0.4063 0.2461 0.4078
H7 H 0.3913 0.2713 0.5277
H8 H 0.4843 0.2694 0.4974
C8 C 0.4820(6) 0.3809(6) 0.4427(5)
C9 C 0.4342(6) 0.4311(6) 0.4445(6)
C10 C 0.6153(6) 0.6662(6) 0.3578(8)
H9 H 0.6124 0.6713 0.2795
H10 H 0.6807 0.6977 0.3808
H11 H 0.5833 0.6955 0.3925
C11 C 0.7157(7) 0.5625(8) 0.3622(8)
H12 H 0.7539 0.5937 0.4255
H13 H 0.7287 0.6087 0.3056
H14 H 0.7306 0.5157 0.3359
C12 C 0.6191(6) 0.5180(6) 0.3906(5)
C13 C 0.5689(6) 0.5658(6) 0.3888(6)
Ag4 Ag 0.30444(4) 0.65222(3) 0.5834
Ag5 Ag 0.34778(3) 0.69556(4) 0.2500
Ag6 Ag 0.79298(4) 0.39649(3) 0.5834
Ag8 Ag 0.60351(3) 0.20702(4) 0.2500
O7 O 0.5909(6) 0.1880(4) 0.4723(4)
O8 O 0.8120(4) 0.4091(6) 0.3611(4)
O9 O 0.4868(4) 0.7582(4) 0.4471(5)
N3_2 N 1.0000 0.1821(7) 0.3333
C1_2 C 1.0000 0.4350(6) 0.3333
H1_2 H 1.0000 0.4924 0.3333
C4_2 C 1.0000 0.2704(7) 0.3333
O5 O 0.7582(4) 0.2714(6) 0.2805(5)
O6 O 0.9303(6) 0.1120(8) 0.3004(11)
C14 C 0.9161(5) 0.3507(7) 0.3257(6)
C15 C 0.9168(6) 0.2686(8) 0.3230(7)
H15 H 0.8603 0.2110 0.3142
C16 C 0.8212(5) 0.3451(7) 0.3216(6)
N1_2 N 0.1480(4) 0.5740(3) 0.5834
C7_2 C 0.1532(11) 0.4375(8) 0.6378(8)
H6_2 H 0.1602 0.4063 0.5745
H7_2 H 0.1200 0.3913 0.6944
H8_2 H 0.2149 0.4843 0.6641
C8_2 C 0.1011(8) 0.4820(6) 0.6094(5)
C9_2 C 0.0031(8) 0.4342(6) 0.6112(6)
C11_2 C 0.1532(11) 0.7157(7) 0.5289(8)
H12_2 H 0.1602 0.7539 0.5922
H13_2 H 0.1200 0.7287 0.4723
H14_2 H 0.2149 0.7306 0.5026
C12_2 C 0.1011(8) 0.6191(6) 0.5573(5)
C13_2 C 0.0031(8) 0.5689(6) 0.5555(6)
Ag6_2 Ag 0.39649(5) 0.79298(4) 0.7500
O7_2 O 0.4029(7) 0.5909(6) 0.6389(4)
O8_2 O 0.4029(7) 0.8120(4) 0.5277(4)
N2_2 N 0.9568(4) 0.4784(3) 0.5834
N3_3 N 0.8179(7) -0.0000 0.5000
O2_2 O 0.7286(6) 0.2418(4) 0.5529(5)
O3_2 O 0.8880(8) 0.0697(6) 0.5330(11)
C1_3 C 0.5650(6) -0.0000 0.5000
H1_3 H 0.5076 -0.0000 0.5000
C2_2 C 0.6493(7) 0.0839(5) 0.5077(6)
C3_2 C 0.7314(8) 0.0832(6) 0.5104(7)
H2_2 H 0.7890 0.1397 0.5192
C4_3 C 0.7296(7) -0.0000 0.5000
C5_2 C 0.6549(7) 0.1788(5) 0.5118(6)
C6_2 C 0.9491(8) 0.3338(6) 0.6422(8)
H3_2 H 0.9411 0.3287 0.7205
H4_2 H 0.9830 0.3023 0.6192
H5_2 H 0.8878 0.3045 0.6075
C10_2 C 0.9491(8) 0.6153(6) 0.5245(8)
H9_2 H 0.9411 0.6124 0.4462
H10_2 H 0.9830 0.6807 0.5475
H11_2 H 0.8878 0.5833 0.5592
Ag4_2 Ag 0.65222(5) 0.30444(4) 0.7500
O9_2 O 0.7286(6) 0.4868(4) 0.6138(5)
N3_4 N 0.8179(7) 1.0000 0.5000
C1_4 C 0.5650(6) 1.0000 0.5000
H1_4 H 0.5076 1.0000 0.5000
C4_4 C 0.7296(7) 1.0000 0.5000
O6_2 O 0.8183(10) 0.9303(6) 0.4670(11)
C14_2 C 0.5654(9) 0.9161(5) 0.4923(6)
C15_2 C 0.6482(10) 0.9168(6) 0.4896(7)
H15_2 H 0.6493 0.8603 0.4808
C16_2 C 0.4761(9) 0.8212(5) 0.4882(6)
N1_3 N 0.5740(3) 0.1480(4) 0.7500
C7_3 C 0.7157(7) 0.1532(11) 0.8044(8)
H6_3 H 0.7539 0.1602 0.7411
H7_3 H 0.7287 0.1200 0.8610
H8_3 H 0.7306 0.2149 0.8307
C8_3 C 0.6191(6) 0.1011(8) 0.7760(5)
C9_3 C 0.5689(6) 0.0031(8) 0.7778(6)
C11_3 C 0.4375(8) 0.1532(11) 0.6956(8)
H12_3 H 0.4063 0.1602 0.7589
H13_3 H 0.3913 0.1200 0.6390
H14_3 H 0.4843 0.2149 0.6693
C12_3 C 0.4820(6) 0.1011(8) 0.7240(5)
C13_3 C 0.4342(6) 0.0031(8) 0.7222(6)
Ag6_3 Ag 0.60351(3) 0.39649(5) 0.9167
O7_3 O 0.8120(4) 0.4029(7) 0.8056(4)
O8_3 O 0.5909(6) 0.4029(7) 0.6944(4)
N2_3 N 0.4784(3) 0.9568(4) 0.7500
N3_5 N 0.8179(7) 0.8179(7) 0.6666
O2_3 O 0.4868(4) 0.7286(6) 0.7195(5)
O3_3 O 0.8183(6) 0.8880(8) 0.6996(11)
C1_5 C 0.5650(6) 0.5650(6) 0.6666
H1_5 H 0.5076 0.5076 0.6666
C2_3 C 0.5654(5) 0.6493(7) 0.6743(6)
C3_3 C 0.6482(6) 0.7314(8) 0.6770(7)
H2_3 H 0.6493 0.7890 0.6858
C4_5 C 0.7296(7) 0.7296(7) 0.6666
C5_3 C 0.4761(5) 0.6549(7) 0.6784(6)
C6_3 C 0.6153(6) 0.9491(8) 0.8088(8)
H3_3 H 0.6124 0.9411 0.8871
H4_3 H 0.6807 0.9830 0.7858
H5_3 H 0.5833 0.8878 0.7741
C10_3 C 0.3338(6) 0.9491(8) 0.6912(8)
H9_3 H 0.3287 0.9411 0.6129
H10_3 H 0.3023 0.9830 0.7142
H11_3 H 0.3045 0.8878 0.7259
O6_3 O 0.8880(8) 0.8183(10) 0.6337(11)
C14_3 C 0.6493(7) 0.5654(9) 0.6590(6)
C15_3 C 0.7314(8) 0.6482(10) 0.6563(7)
H15_3 H 0.7890 0.6493 0.6475
C16_3 C 0.6549(7) 0.4761(9) 0.6549(6)
Ag4_3 Ag 0.34778(3) 0.65222(5) 0.9167
O9_3 O 0.2418(4) 0.7286(6) 0.7805(5)
N3_6 N -0.0000 0.8179(7) 0.8333
C1_6 C 0.0000 0.5650(6) 0.8333
H1_6 H 0.0000 0.5076 0.8333
C4_6 C 0.0000 0.7296(7) 0.8333
O4 O 0.1880(4) 0.5909(6) 0.8611(4)
O6_4 O 0.0697(6) 0.8880(8) 0.8004(11)
C14_4 C 0.0839(5) 0.6493(7) 0.8257(6)
C15_4 C 0.0832(6) 0.7314(8) 0.8230(7)
H15_4 H 0.1397 0.7890 0.8142
C16_4 C 0.1788(5) 0.6549(7) 0.8216(6)
H3_4 H 0.6713 0.6124 0.0538
H7_4 H 0.6087 0.7287 0.0277
Ag4_4 Ag 0.69556(4) 0.34778(3) 0.0834
Ag6_4 Ag 0.20702(4) 0.60351(3) 0.0834
N1_4 N 0.4260(3) 0.5740(3) 0.9167
N2_4 N 0.5216(3) 0.4784(3) 0.9167
N3_7 N 1.0000 0.8179(7) 0.8333
O2_4 O 0.7582(4) 0.4868(4) 0.8862(5)
O3_4 O 0.9303(6) 0.8183(6) 0.8663(11)
C1_7 C 1.0000 0.5650(6) 0.8333
H1_7 H 1.0000 0.5076 0.8333
C2_4 C 0.9161(5) 0.5654(5) 0.8410(6)
C3_4 C 0.9168(6) 0.6482(6) 0.8437(7)
H2_4 H 0.8603 0.6493 0.8525
C4_7 C 1.0000 0.7296(7) 0.8333
C5_4 C 0.8212(5) 0.4761(5) 0.8451(6)
C6_4 C 0.6662(6) 0.6153(6) 0.9755(8)
H4_4 H 0.6977 0.6807 0.9525
H5_4 H 0.6955 0.5833 0.9408
C7_4 C 0.5625(8) 0.7157(7) 0.9711(8)
H6_4 H 0.5937 0.7539 0.9078
H8_4 H 0.5157 0.7306 0.9974
C8_4 C 0.5180(6) 0.6191(6) 0.9427(5)
C9_4 C 0.5658(6) 0.5689(6) 0.9445(6)
C10_4 C 0.3847(6) 0.3338(6) 0.8578(8)
H9_4 H 0.3876 0.3287 0.7795
H10_4 H 0.3193 0.3023 0.8808
H11_4 H 0.4167 0.3045 0.8925
C11_4 C 0.2843(7) 0.4375(8) 0.8622(8)
H12_4 H 0.2461 0.4063 0.9255
H13_4 H 0.2713 0.3913 0.8056
H14_4 H 0.2694 0.4843 0.8359
C12_4 C 0.3809(6) 0.4820(6) 0.8906(5)
C13_4 C 0.4311(6) 0.4342(6) 0.8888(6)
O7_4 O 0.4091(6) 0.8120(4) 0.9723(4)
O9_4 O 0.5132(4) 0.2418(4) 0.9471(5)
N3_8 N 0.1821(7) 0.0000 -0.0000
C1_8 C 0.4350(6) 0.0000 -0.0000
H1_8 H 0.4924 0.0000 -0.0000
C4_8 C 0.2704(7) 0.0000 -0.0000
O4_2 O 0.5971(7) 0.1880(4) 0.0277(4)
N3_9 N 0.1821(7) 0.0000 1.0000
C1_9 C 0.4350(6) 0.0000 1.0000
H1_9 H 0.4924 0.0000 1.0000
C4_9 C 0.2704(7) 0.0000 1.0000
O6_5 O 0.1817(10) 0.0697(6) 0.9670(11)
C14_5 C 0.4346(9) 0.0839(5) 0.9923(6)
C15_5 C 0.3518(10) 0.0832(6) 0.9896(7)
H15_5 H 0.3507 0.1397 0.9808
C16_5 C 0.5239(9) 0.1788(5) 0.9882(6)
N2_5 N 0.0432(4) 0.5216(3) 0.0834
N3_10 N 0.1821(7) 1.0000 -0.0000
O2_5 O 0.2714(6) 0.7582(4) 0.0529(5)
O3_5 O 0.1120(8) 0.9303(6) 0.0330(11)
C1_10 C 0.4350(6) 1.0000 -0.0000
H1_10 H 0.4924 1.0000 -0.0000
C2_5 C 0.3507(7) 0.9161(5) 0.0077(6)
C3_5 C 0.2686(8) 0.9168(6) 0.0104(7)
H2_5 H 0.2110 0.8603 0.0192
C4_10 C 0.2704(7) 1.0000 -0.0000
C5_5 C 0.3451(7) 0.8212(5) 0.0118(6)
C6_5 C 0.0509(8) 0.6662(6) 0.1422(8)
H3_5 H 0.0589 0.6713 0.2205
H4_5 H 0.0170 0.6977 0.1192
H5_5 H 0.1122 0.6955 0.1075
C10_5 C 0.0509(8) 0.3847(6) 0.0245(8)
H10_5 H 0.0170 0.3193 0.0475
H11_5 H 0.1122 0.4167 0.0592
O9_5 O 0.2714(6) 0.5132(4) 0.1138(5)
N3_11 N 0.1821(7) 1.0000 1.0000
C1_11 C 0.4350(6) 1.0000 1.0000
H1_11 H 0.4924 1.0000 1.0000
C4_11 C 0.2704(7) 1.0000 1.0000
H9_5 H 0.0589 0.3876 0.9462
N1_5 N 0.8520(4) 0.4260(3) 0.0834
C7_5 C 0.8468(11) 0.5625(8) 0.1378(8)
H6_5 H 0.8398 0.5937 0.0745
H7_5 H 0.8800 0.6087 0.1944
H8_5 H 0.7851 0.5157 0.1641
C8_5 C 0.8989(8) 0.5180(6) 0.1094(5)
C9_5 C 0.9969(8) 0.5658(6) 0.1112(6)
C11_5 C 0.8468(11) 0.2843(7) 0.0289(8)
H12_5 H 0.8398 0.2461 0.0922
H14_5 H 0.7851 0.2694 0.0026
C12_5 C 0.8989(8) 0.3809(6) 0.0573(5)
C13_5 C 0.9969(8) 0.4311(6) 0.0555(6)
O7_5 O 0.5971(7) 0.4091(6) 0.1389(4)
H13_5 H 0.8800 0.2713 0.9723
N2_6 N 0.5216(3) 0.0432(4) 0.2500
N3_12 N 0.1821(7) 0.1821(7) 0.1666
O2_6 O 0.5132(4) 0.2714(6) 0.2195(5)
O3_6 O 0.1817(6) 0.1120(8) 0.1996(11)
C1_12 C 0.4350(6) 0.4350(6) 0.1666
H1_12 H 0.4924 0.4924 0.1666
C2_6 C 0.4346(5) 0.3507(7) 0.1743(6)
C3_6 C 0.3518(6) 0.2686(8) 0.1770(7)
H2_6 H 0.3507 0.2110 0.1858
C4_12 C 0.2704(7) 0.2704(7) 0.1666
C5_6 C 0.5239(5) 0.3451(7) 0.1784(6)
C6_6 C 0.3847(6) 0.0509(8) 0.3088(8)
H3_6 H 0.3876 0.0589 0.3871
H4_6 H 0.3193 0.0170 0.2858
H5_6 H 0.4167 0.1122 0.2741
C10_6 C 0.6662(6) 0.0509(8) 0.1912(8)
H9_6 H 0.6713 0.0589 0.1129
H10_6 H 0.6977 0.0170 0.2142
H11_6 H 0.6955 0.1122 0.2259
O4_3 O 0.4091(6) 0.5971(7) 0.1944(4)
O6_6 O 0.1120(8) 0.1817(10) 0.1337(11)
C14_6 C 0.3507(7) 0.4346(9) 0.1590(6)
C15_6 C 0.2686(8) 0.3518(10) 0.1563(7)
H15_6 H 0.2110 0.3507 0.1475
C16_6 C 0.3451(7) 0.5239(9) 0.1549(6)
N1_6 N 0.4260(3) 0.8520(4) 0.2500
C7_6 C 0.2843(7) 0.8468(11) 0.3044(8)
H6_6 H 0.2461 0.8398 0.2411
H7_6 H 0.2713 0.8800 0.3610
H8_6 H 0.2694 0.7851 0.3307
C8_6 C 0.3809(6) 0.8989(8) 0.2760(5)
C9_6 C 0.4311(6) 0.9969(8) 0.2778(6)
C11_6 C 0.5625(8) 0.8468(11) 0.1956(8)
H12_6 H 0.5937 0.8398 0.2589
H13_6 H 0.6087 0.8800 0.1390
H14_6 H 0.5157 0.7851 0.1693
C12_6 C 0.5180(6) 0.8989(8) 0.2240(5)
C13_6 C 0.5658(6) 0.9969(8) 0.2222(6)
loop_
_geom_bond_atom_site_label_1
_geom_bond_atom_site_label_2
_geom_bond_site_symmetry_1
_geom_bond_site_symmetry_2
Ag1 N1 1_555 1_555
Ag2 N2 1_555 1_555
N1 C8 1_555 1_555
N2 C9 1_555 1_555
N3 O3 1_555 1_555
O1 C5 1_555 1_555
O2 Ag2 1_555 1_555
C1 H1 1_555 1_555
C2 C1 1_555 1_555
C3 C2 1_555 1_555
H2 C3 1_555 1_555
C4 N3 1_555 1_555
C5 O2 1_555 1_555
C6 H3 1_555 1_555
H4 C6 1_555 1_555
H5 C6 1_555 1_555
C7 H6 1_555 1_555
H7 C7 1_555 1_555
H8 C7 1_555 1_555
C8 C7 1_555 1_555
C9 C6 1_555 1_555
C10 H9 1_555 1_555
H10 C10 1_555 1_555
H11 C10 1_555 1_555
C11 H12 1_555 1_555
H13 C11 1_555 1_555
H14 C11 1_555 1_555
C12 N1 1_555 1_555
C13 N2 1_555 1_555
Ag4 Ag2 1_555 1_555
Ag5 Ag2 1_555 1_555
Ag6 Ag1 1_555 1_555
Ag8 Ag1 1_555 1_555
O7 Ag1 1_555 1_555
O8 Ag1 1_555 1_555
O9 Ag2 1_555 1_555
O1 Ag5 1_555 1_555
C2 C5 1_555 1_555
C3 C4 1_555 1_555
C8 C9 1_555 1_555
C10 C13 1_555 1_555
C11 C12 1_555 1_555
C12 C13 1_555 1_555
C1_2 H1_2 1_555 1_555
C4_2 N3_2 1_555 1_555
O8 C16 1_555 1_555
O5 C16 1_555 1_555
O6 N3_2 1_555 1_555
C14 C1_2 1_555 1_555
C15 C4_2 1_555 1_555
H15 C15 1_555 1_555
C16 C14 1_555 1_555
Ag8 O5 1_555 1_555
C14 C15 1_555 1_555
Ag4 N1_2 1_555 1_555
N1_2 C8_2 1_555 1_555
C7_2 H6_2 1_555 1_555
H7_2 C7_2 1_555 1_555
H8_2 C7_2 1_555 1_555
C8_2 C7_2 1_555 1_555
C11_2 H12_2 1_555 1_555
H13_2 C11_2 1_555 1_555
H14_2 C11_2 1_555 1_555
C12_2 N1_2 1_555 1_555
Ag6_2 Ag4 1_555 1_555
O7_2 Ag4 1_555 1_555
O8_2 Ag4 1_555 1_555
C8_2 C9_2 1_555 1_555
C11_2 C12_2 1_555 1_555
C12_2 C13_2 1_555 1_555
Ag6 N2_2 1_555 1_555
N3_3 O3_2 1_555 1_555
O7 C5_2 1_555 1_555
O2_2 Ag6 1_555 1_555
C1_3 H1_3 1_555 1_555
C2_2 C1_3 1_555 1_555
C3_2 C2_2 1_555 1_555
H2_2 C3_2 1_555 1_555
C4_3 N3_3 1_555 1_555
C5_2 O2_2 1_555 1_555
C6_2 H3_2 1_555 1_555
H4_2 C6_2 1_555 1_555
H5_2 C6_2 1_555 1_555
C10_2 H9_2 1_555 1_555
H10_2 C10_2 1_555 1_555
H11_2 C10_2 1_555 1_555
Ag4_2 Ag6 1_555 1_555
O9_2 Ag6 1_555 1_555
C2_2 C5_2 1_555 1_555
C3_2 C4_3 1_555 1_555
C1_4 H1_4 1_555 1_555
C4_4 N3_4 1_555 1_555
O8_2 C16_2 1_555 1_555
O9 C16_2 1_555 1_555
O6_2 N3_4 1_555 1_555
C14_2 C1_4 1_555 1_555
C15_2 C4_4 1_555 1_555
H15_2 C15_2 1_555 1_555
C16_2 C14_2 1_555 1_555
C14_2 C15_2 1_555 1_555
Ag4_2 N1_3 1_555 1_555
N1_3 C8_3 1_555 1_555
C7_3 H6_3 1_555 1_555
H7_3 C7_3 1_555 1_555
H8_3 C7_3 1_555 1_555
C8_3 C7_3 1_555 1_555
C11_3 H12_3 1_555 1_555
H13_3 C11_3 1_555 1_555
H14_3 C11_3 1_555 1_555
C12_3 N1_3 1_555 1_555
Ag6_3 Ag4_2 1_555 1_555
O7_3 Ag4_2 1_555 1_555
O8_3 Ag4_2 1_555 1_555
C8_3 C9_3 1_555 1_555
C11_3 C12_3 1_555 1_555
C12_3 C13_3 1_555 1_555
Ag6_2 N2_3 1_555 1_555
N3_5 O3_3 1_555 1_555
O7_2 C5_3 1_555 1_555
O2_3 Ag6_2 1_555 1_555
C1_5 H1_5 1_555 1_555
C2_3 C1_5 1_555 1_555
C3_3 C2_3 1_555 1_555
H2_3 C3_3 1_555 1_555
C4_5 N3_5 1_555 1_555
C5_3 O2_3 1_555 1_555
C6_3 H3_3 1_555 1_555
H4_3 C6_3 1_555 1_555
H5_3 C6_3 1_555 1_555
C10_3 H9_3 1_555 1_555
H10_3 C10_3 1_555 1_555
H11_3 C10_3 1_555 1_555
O8_3 C16_3 1_555 1_555
O9_2 C16_3 1_555 1_555
O6_3 N3_5 1_555 1_555
C14_3 C1_5 1_555 1_555
C15_3 C4_5 1_555 1_555
H15_3 C15_3 1_555 1_555
C16_3 C14_3 1_555 1_555
Ag4_3 Ag6_2 1_555 1_555
O9_3 Ag6_2 1_555 1_555
C2_3 C5_3 1_555 1_555
C3_3 C4_5 1_555 1_555
C14_3 C15_3 1_555 1_555
C1_6 H1_6 1_555 1_555
C4_6 N3_6 1_555 1_555
O4 C16_4 1_555 1_555
O9_3 C16_4 1_555 1_555
O6_4 N3_6 1_555 1_555
C14_4 C1_6 1_555 1_555
C15_4 C4_6 1_555 1_555
H15_4 C15_4 1_555 1_555
C16_4 C14_4 1_555 1_555
Ag4_3 O4 1_555 1_555
C14_4 C15_4 1_555 1_555
Ag4_3 N1_4 1_555 1_555
Ag6_3 N2_4 1_555 1_555
N1_4 C8_4 1_555 1_555
N2_4 C9_4 1_555 1_555
N3_7 O3_4 1_555 1_555
O7_3 C5_4 1_555 1_555
O2_4 Ag6_3 1_555 1_555
C1_7 H1_7 1_555 1_555
C2_4 C1_7 1_555 1_555
C3_4 C2_4 1_555 1_555
H2_4 C3_4 1_555 1_555
C4_7 N3_7 1_555 1_555
C5_4 O2_4 1_555 1_555
H4_4 C6_4 1_555 1_555
H5_4 C6_4 1_555 1_555
C7_4 H6_4 1_555 1_555
H8_4 C7_4 1_555 1_555
C8_4 C7_4 1_555 1_555
C9_4 C6_4 1_555 1_555
C10_4 H9_4 1_555 1_555
H10_4 C10_4 1_555 1_555
H11_4 C10_4 1_555 1_555
C11_4 H12_4 1_555 1_555
H13_4 C11_4 1_555 1_555
H14_4 C11_4 1_555 1_555
C12_4 N1_4 1_555 1_555
C13_4 N2_4 1_555 1_555
O7_4 Ag4_3 1_555 1_555
O9_4 Ag6_3 1_555 1_555
C2_4 C5_4 1_555 1_555
C3_4 C4_7 1_555 1_555
C8_4 C9_4 1_555 1_555
C10_4 C13_4 1_555 1_555
C11_4 C12_4 1_555 1_555
C12_4 C13_4 1_555 1_555
C1_8 H1_8 1_555 1_555
C4_8 N3_8 1_555 1_555
Ag4_4 O4_2 1_555 1_555
C1_9 H1_9 1_555 1_555
C4_9 N3_9 1_555 1_555
O9_4 C16_5 1_555 1_555
O6_5 N3_9 1_555 1_555
C14_5 C1_9 1_555 1_555
C15_5 C4_9 1_555 1_555
H15_5 C15_5 1_555 1_555
C16_5 C14_5 1_555 1_555
C14_5 C15_5 1_555 1_555
Ag6_4 N2_5 1_555 1_555
N3_10 O3_5 1_555 1_555
O2_5 Ag6_4 1_555 1_555
C1_10 H1_10 1_555 1_555
C2_5 C1_10 1_555 1_555
C3_5 C2_5 1_555 1_555
H2_5 C3_5 1_555 1_555
C4_10 N3_10 1_555 1_555
C5_5 O2_5 1_555 1_555
C6_5 H3_5 1_555 1_555
H4_5 C6_5 1_555 1_555
H5_5 C6_5 1_555 1_555
H10_5 C10_5 1_555 1_555
H11_5 C10_5 1_555 1_555
Ag5 Ag6_4 1_555 1_555
O9_5 Ag6_4 1_555 1_555
C2_5 C5_5 1_555 1_555
C3_5 C4_10 1_555 1_555
C1_11 H1_11 1_555 1_555
C4_11 N3_11 1_555 1_555
Ag4_4 N1_5 1_555 1_555
N1_5 C8_5 1_555 1_555
C7_5 H6_5 1_555 1_555
H7_5 C7_5 1_555 1_555
H8_5 C7_5 1_555 1_555
C8_5 C7_5 1_555 1_555
C11_5 H12_5 1_555 1_555
H14_5 C11_5 1_555 1_555
C12_5 N1_5 1_555 1_555
Ag8 Ag4_4 1_555 1_555
O7_5 Ag4_4 1_555 1_555
C8_5 C9_5 1_555 1_555
C11_5 C12_5 1_555 1_555
C12_5 C13_5 1_555 1_555
Ag8 N2_6 1_555 1_555
N3_12 O3_6 1_555 1_555
O7_5 C5_6 1_555 1_555
O2_6 Ag8 1_555 1_555
C1_12 H1_12 1_555 1_555
C2_6 C1_12 1_555 1_555
C3_6 C2_6 1_555 1_555
H2_6 C3_6 1_555 1_555
C4_12 N3_12 1_555 1_555
C5_6 O2_6 1_555 1_555
C6_6 H3_6 1_555 1_555
H4_6 C6_6 1_555 1_555
H5_6 C6_6 1_555 1_555
C10_6 H9_6 1_555 1_555
H10_6 C10_6 1_555 1_555
H11_6 C10_6 1_555 1_555
O4_3 C16_6 1_555 1_555
O9_5 C16_6 1_555 1_555
O6_6 N3_12 1_555 1_555
C14_6 C1_12 1_555 1_555
C15_6 C4_12 1_555 1_555
H15_6 C15_6 1_555 1_555
C16_6 C14_6 1_555 1_555
Ag5 O4_3 1_555 1_555
C2_6 C5_6 1_555 1_555
C3_6 C4_12 1_555 1_555
C14_6 C15_6 1_555 1_555
Ag5 N1_6 1_555 1_555
N1_6 C8_6 1_555 1_555
C7_6 H6_6 1_555 1_555
H7_6 C7_6 1_555 1_555
H8_6 C7_6 1_555 1_555
C8_6 C7_6 1_555 1_555
C11_6 H12_6 1_555 1_555
H13_6 C11_6 1_555 1_555
H14_6 C11_6 1_555 1_555
C12_6 N1_6 1_555 1_555
C8_6 C9_6 1_555 1_555
C11_6 C12_6 1_555 1_555
C12_6 C13_6 1_555 1_555

#END
