
###############################################################################
#
# This file contains modified crystal structure data generated from the
# MOF subset of the Cambridge Structural Database (CSD) v543 
# hosted by the Cambridge Crystallographic Data Centre (CCDC).
#
# This work is licensed under the Creative Commons
# Attribution-NonCommercial-ShareAlike 4.0 International License.
# To view a copy of this license, visit
# http://creativecommons.org/licenses/by-nc-sa/4.0/
# or send a letter to
# Creative Commons, PO Box 1866, Mountain View, CA 94042, USA.
#
# CIF created using the CSD Python API on 29 September 2022
# The structure has been converted into the P1 space group
# The structure has a 3D framework
# The original CSD entry YABHER is in the tetragonal crystal system
# The framework has been calculated to contain at least 10.0% void space
# The void calculation uses a probe of radius 1.32A, grid spacing 0.4
# H atom positions have been added when not included in the experimental data
# Generated hydrogen atom positions removed from atoms on special positions
#
###############################################################################

data_YABHER
_chemical_formula_moiety         '(C256 H240 Cu16 O80)n'
_symmetry_cell_setting           triclinic
_symmetry_space_group_name_H-M   'P 1'
_symmetry_Int_Tables_number      1
_space_group_name_Hall           'P 1'
loop_
_symmetry_equiv_pos_site_id
_symmetry_equiv_pos_as_xyz
1 x,y,z
_cell_length_a                   18.7570(5)
_cell_length_b                   18.7570(5)
_cell_length_c                   36.092(2)
_cell_angle_alpha                90
_cell_angle_beta                 90
_cell_angle_gamma                90
_cell_volume                     12698.1
loop_
_atom_site_label
_atom_site_type_symbol
_atom_site_fract_x
_atom_site_fract_y
_atom_site_fract_z
Cu1 Cu 0.20137(3) 0.79863(3) 0.226367(18)
Cu2 Cu 0.26578(3) 0.73422(3) 0.282786(17)
O1 O 0.29616(16) 0.80305(18) 0.20531(8)
O2 O 0.14899(17) 0.85101(17) 0.18114(11)
O3 O 0.35305(14) 0.75031(16) 0.25339(7)
O4 O 0.31721(17) 0.68279(17) 0.32821(11)
O5 O 0.61530(15) 0.71982(17) 0.24486(8)
O6 O 0.66978(14) 0.77253(16) 0.19638(7)
C1 C 0.48273(10) 0.76427(11) 0.21648(4)
H1 H 0.4849 0.7580 0.2426
C2 C 0.41742(9) 0.77588(10) 0.19931(5)
C3 C 0.41419(10) 0.78502(14) 0.16113(5)
H2 H 0.3696 0.7930 0.1494
C4 C 0.47625(11) 0.78255(17) 0.14012(4)
C5 C 0.54155(10) 0.77094(15) 0.15730(5)
H3 H 0.5840 0.7693 0.1429
C6 C 0.54479(9) 0.76180(12) 0.19548(5)
C7 C 0.35035(10) 0.77848(17) 0.22116(7)
C8 C 0.61517(10) 0.75215(19) 0.21357(7)
C9 C 0.4721(2) 0.78201(17) 0.09829(6)
C10 C 0.4646(2) 0.84633(15) 0.07957(7)
C11 C 0.4621(2) 0.84724(17) 0.04108(7)
H4 H 0.4569 0.8912 0.0283
C12 C 0.4671(2) 0.7838(2) 0.02132(6)
C13 C 0.4747(3) 0.71953(17) 0.04004(9)
H5 H 0.4782 0.6762 0.0265
C14 C 0.4772(3) 0.71861(15) 0.07853(9)
C15 C 0.4454(4) 0.91830(18) 0.10045(11)
H6 H 0.4489 0.9109 0.1273
H7 H 0.3967 0.9326 0.0941
H8 H 0.4787 0.9558 0.0929
C16 C 0.4989(6) 0.6508(4) 0.09884(16)
H9 H 0.5010 0.6111 0.0812
H10 H 0.4638 0.6401 0.1182
H11 H 0.5459 0.6576 0.1102
Cu4 Cu 0.70137(3) 0.70137(3) 0.273633(18)
Cu7 Cu 0.76578(3) 0.76578(3) 0.217214(17)
O11 O 0.19695(18) 0.70384(16) 0.20531(8)
O12 O 0.24969(16) 0.64695(14) 0.25339(7)
O13 O 0.11530(15) 0.78018(17) 0.25514(8)
O14 O 0.21982(17) 0.88470(15) 0.25514(8)
O15 O 0.16978(14) 0.72747(16) 0.30362(7)
O16 O 0.27253(16) 0.83022(14) 0.30362(7)
O7 O 0.29616(16) 0.80305(18) 0.79469(8)
O8 O 0.35305(14) 0.75031(16) 0.74661(7)
O9 O 0.61530(15) 0.71982(17) 0.75514(8)
O10 O 0.66978(14) 0.77253(16) 0.80362(7)
C17 C 0.48273(10) 0.76427(11) 0.78352(4)
H12 H 0.4849 0.7580 0.7574
C18 C 0.41742(9) 0.77588(10) 0.80069(5)
C19 C 0.41419(10) 0.78502(14) 0.83887(5)
H13 H 0.3696 0.7930 0.8506
C20 C 0.47625(11) 0.78255(17) 0.85988(4)
C21 C 0.54155(10) 0.77094(15) 0.84270(5)
H14 H 0.5840 0.7693 0.8571
C22 C 0.54479(9) 0.76180(12) 0.80452(5)
C23 C 0.35035(10) 0.77848(17) 0.77884(7)
C24 C 0.61517(10) 0.75215(19) 0.78643(7)
C25 C 0.4721(2) 0.78201(17) 0.90171(6)
C26 C 0.4646(2) 0.84633(15) 0.92043(7)
C27 C 0.4621(2) 0.84724(17) 0.95892(7)
H15 H 0.4569 0.8912 0.9717
C28 C 0.4671(2) 0.7838(2) 0.97868(6)
C29 C 0.4747(3) 0.71953(17) 0.95996(9)
H16 H 0.4782 0.6762 0.9735
C30 C 0.4772(3) 0.71861(15) 0.92147(9)
C31 C 0.4454(4) 0.91830(18) 0.89955(11)
H17 H 0.4489 0.9109 0.8727
H18 H 0.3967 0.9326 0.9059
H19 H 0.4787 0.9558 0.9071
C32 C 0.4989(6) 0.6508(4) 0.90116(16)
H20 H 0.5010 0.6111 0.9188
H21 H 0.4638 0.6401 0.8818
H22 H 0.5459 0.6576 0.8898
Cu3 Cu 0.70137(3) 0.70137(3) 0.726367(18)
Cu5 Cu 0.20137(3) 0.79863(3) 0.773633(18)
Cu6 Cu 0.76578(3) 0.76578(3) 0.782786(17)
Cu8 Cu 0.26578(3) 0.73422(3) 0.717214(17)
O5_2 O 0.78018(17) 0.11530(15) 0.74486(8)
O6_2 O 0.72747(16) 0.16978(14) 0.69638(7)
C5_2 C 0.72906(15) 0.04155(10) 0.65730(5)
H3_2 H 0.7307 0.0840 0.6429
C6_2 C 0.73820(12) 0.04479(9) 0.69548(5)
C8_2 C 0.74785(19) 0.11517(10) 0.71357(7)
H9_2 H 0.8889 0.0010 0.5812
H11_2 H 0.8424 0.0459 0.6102
O9_2 O 0.78018(17) 0.11530(15) 0.25514(8)
O10_2 O 0.72747(16) 0.16978(14) 0.30362(7)
C21_2 C 0.72906(15) 0.04155(10) 0.34270(5)
H14_2 H 0.7307 0.0840 0.3571
C22_2 C 0.73820(12) 0.04479(9) 0.30452(5)
C24_2 C 0.74785(19) 0.11517(10) 0.28643(7)
H20_2 H 0.8889 0.0010 0.4188
H22_2 H 0.8424 0.0459 0.3898
Cu3_2 Cu 0.79863(3) 0.20137(3) 0.226367(18)
Cu4_2 Cu 0.79863(3) 0.20137(3) 0.773633(18)
Cu6_2 Cu 0.73422(3) 0.26578(3) 0.282786(17)
Cu7_2 Cu 0.73422(3) 0.26578(3) 0.717214(17)
O1_2 O 0.69695(18) 0.79616(16) 0.70531(8)
O2_2 O 0.64899(17) 0.64899(17) 0.68114(11)
O3_2 O 0.74969(16) 0.85305(14) 0.75339(7)
O4_2 O 0.81721(17) 0.81721(17) 0.82821(11)
C1_2 C 0.73573(11) 0.98273(10) 0.71648(4)
H1_2 H 0.7420 0.9849 0.7426
C2_2 C 0.72412(10) 0.91742(9) 0.69931(5)
C3_2 C 0.71498(14) 0.91419(10) 0.66113(5)
H2_2 H 0.7070 0.8696 0.6494
C4_2 C 0.71745(17) 0.97625(11) 0.64012(4)
C7_2 C 0.72152(17) 0.85035(10) 0.72116(7)
C9_2 C 0.71799(17) 0.9721(2) 0.59829(6)
C10_2 C 0.65367(15) 0.9646(2) 0.57957(7)
C11_2 C 0.65276(17) 0.9621(2) 0.54108(7)
H4_2 H 0.6088 0.9569 0.5283
C12_2 C 0.7162(2) 0.9671(2) 0.52132(6)
C13_2 C 0.78047(17) 0.9747(3) 0.54004(9)
H5_2 H 0.8238 0.9782 0.5265
C14_2 C 0.78139(15) 0.9772(3) 0.57853(9)
C15_2 C 0.58170(18) 0.9454(4) 0.60045(11)
H6_2 H 0.5891 0.9489 0.6273
H7_2 H 0.5674 0.8967 0.5941
H8_2 H 0.5442 0.9787 0.5929
C16_2 C 0.8492(4) 0.9989(6) 0.59884(16)
H10_2 H 0.8599 0.9638 0.6182
O7_2 O 0.69695(18) 0.79616(16) 0.29469(8)
O8_2 O 0.74969(16) 0.85305(14) 0.24661(7)
C17_2 C 0.73573(11) 0.98273(10) 0.28352(4)
H12_2 H 0.7420 0.9849 0.2574
C18_2 C 0.72412(10) 0.91742(9) 0.30069(5)
C19_2 C 0.71498(14) 0.91419(10) 0.33887(5)
H13_2 H 0.7070 0.8696 0.3506
C20_2 C 0.71745(17) 0.97625(11) 0.35988(4)
C23_2 C 0.72152(17) 0.85035(10) 0.27884(7)
C25_2 C 0.71799(17) 0.9721(2) 0.40171(6)
C26_2 C 0.65367(15) 0.9646(2) 0.42043(7)
C27_2 C 0.65276(17) 0.9621(2) 0.45892(7)
H15_2 H 0.6088 0.9569 0.4717
C28_2 C 0.7162(2) 0.9671(2) 0.47868(6)
C29_2 C 0.78047(17) 0.9747(3) 0.45996(9)
H16_2 H 0.8238 0.9782 0.4735
C30_2 C 0.78139(15) 0.9772(3) 0.42147(9)
C31_2 C 0.58170(18) 0.9454(4) 0.39955(11)
H17_2 H 0.5891 0.9489 0.3727
H18_2 H 0.5674 0.8967 0.4059
H19_2 H 0.5442 0.9787 0.4071
C32_2 C 0.8492(4) 0.9989(6) 0.40116(16)
H21_2 H 0.8599 0.9638 0.3818
O11_2 O 0.79616(16) 0.69695(18) 0.70531(8)
O12_2 O 0.85305(14) 0.74969(16) 0.75339(7)
O13_2 O 0.71982(17) 0.61530(15) 0.75514(8)
O15_2 O 0.77253(16) 0.66978(14) 0.80362(7)
O1_3 O 0.70384(16) 0.19695(18) 0.20531(8)
O2_3 O 0.85101(17) 0.14899(17) 0.18114(11)
O3_3 O 0.64695(14) 0.24969(16) 0.25339(7)
O4_3 O 0.68279(17) 0.31721(17) 0.32821(11)
O5_3 O 0.38470(15) 0.28018(17) 0.24486(8)
O6_3 O 0.33022(14) 0.22747(16) 0.19638(7)
C1_3 C 0.51727(10) 0.23573(11) 0.21648(4)
H1_3 H 0.5151 0.2420 0.2426
C2_3 C 0.58258(9) 0.22412(10) 0.19931(5)
C3_3 C 0.58581(10) 0.21498(14) 0.16113(5)
H2_3 H 0.6304 0.2070 0.1494
C4_3 C 0.52375(11) 0.21745(17) 0.14012(4)
C5_3 C 0.45845(10) 0.22906(15) 0.15730(5)
H3_3 H 0.4160 0.2307 0.1429
C6_3 C 0.45521(9) 0.23820(12) 0.19548(5)
C7_3 C 0.64965(10) 0.22152(17) 0.22116(7)
C8_3 C 0.38483(10) 0.24785(19) 0.21357(7)
C9_3 C 0.5279(2) 0.21799(17) 0.09829(6)
C10_3 C 0.5354(2) 0.15367(15) 0.07957(7)
C11_3 C 0.5379(2) 0.15276(17) 0.04108(7)
H4_3 H 0.5431 0.1088 0.0283
C12_3 C 0.5329(2) 0.2162(2) 0.02132(6)
C13_3 C 0.5253(3) 0.28047(17) 0.04004(9)
H5_3 H 0.5218 0.3238 0.0265
C14_3 C 0.5228(3) 0.28139(15) 0.07853(9)
C15_3 C 0.5546(4) 0.08170(18) 0.10045(11)
H6_3 H 0.5511 0.0891 0.1273
H7_3 H 0.6033 0.0674 0.0941
H8_3 H 0.5213 0.0442 0.0929
C16_3 C 0.5011(6) 0.3492(4) 0.09884(16)
H9_3 H 0.4990 0.3889 0.0812
H10_3 H 0.5362 0.3599 0.1182
H11_3 H 0.4541 0.3424 0.1102
Cu4_3 Cu 0.29863(3) 0.29863(3) 0.273633(18)
Cu7_3 Cu 0.23422(3) 0.23422(3) 0.217214(17)
O11_3 O 0.80305(18) 0.29616(16) 0.20531(8)
O12_3 O 0.75031(16) 0.35305(14) 0.25339(7)
O13_3 O 0.88470(15) 0.21982(17) 0.25514(8)
O15_3 O 0.83022(14) 0.27253(16) 0.30362(7)
O7_3 O 0.70384(16) 0.19695(18) 0.79469(8)
O8_3 O 0.64695(14) 0.24969(16) 0.74661(7)
O9_3 O 0.38470(15) 0.28018(17) 0.75514(8)
O10_3 O 0.33022(14) 0.22747(16) 0.80362(7)
C17_3 C 0.51727(10) 0.23573(11) 0.78352(4)
H12_3 H 0.5151 0.2420 0.7574
C18_3 C 0.58258(9) 0.22412(10) 0.80069(5)
C19_3 C 0.58581(10) 0.21498(14) 0.83887(5)
H13_3 H 0.6304 0.2070 0.8506
C20_3 C 0.52375(11) 0.21745(17) 0.85988(4)
C21_3 C 0.45845(10) 0.22906(15) 0.84270(5)
H14_3 H 0.4160 0.2307 0.8571
C22_3 C 0.45521(9) 0.23820(12) 0.80452(5)
C23_3 C 0.64965(10) 0.22152(17) 0.77884(7)
C24_3 C 0.38483(10) 0.24785(19) 0.78643(7)
C25_3 C 0.5279(2) 0.21799(17) 0.90171(6)
C26_3 C 0.5354(2) 0.15367(15) 0.92043(7)
C27_3 C 0.5379(2) 0.15276(17) 0.95892(7)
H15_3 H 0.5431 0.1088 0.9717
C28_3 C 0.5329(2) 0.2162(2) 0.97868(6)
C29_3 C 0.5253(3) 0.28047(17) 0.95996(9)
H16_3 H 0.5218 0.3238 0.9735
C30_3 C 0.5228(3) 0.28139(15) 0.92147(9)
C31_3 C 0.5546(4) 0.08170(18) 0.89955(11)
H17_3 H 0.5511 0.0891 0.8727
H18_3 H 0.6033 0.0674 0.9059
H19_3 H 0.5213 0.0442 0.9071
C32_3 C 0.5011(6) 0.3492(4) 0.90116(16)
H20_3 H 0.4990 0.3889 0.9188
H21_3 H 0.5362 0.3599 0.8818
H22_3 H 0.4541 0.3424 0.8898
Cu3_3 Cu 0.29863(3) 0.29863(3) 0.726367(18)
Cu6_3 Cu 0.23422(3) 0.23422(3) 0.782786(17)
O1_4 O 0.30305(18) 0.20384(16) 0.70531(8)
O2_4 O 0.35101(17) 0.35101(17) 0.68114(11)
O3_4 O 0.25031(16) 0.14695(14) 0.75339(7)
O4_4 O 0.18279(17) 0.18279(17) 0.82821(11)
C1_4 C 0.26427(11) 0.01727(10) 0.71648(4)
H1_4 H 0.2580 0.0151 0.7426
C2_4 C 0.27588(10) 0.08258(9) 0.69931(5)
C3_4 C 0.28502(14) 0.08581(10) 0.66113(5)
H2_4 H 0.2930 0.1304 0.6494
C4_4 C 0.28255(17) 0.02375(11) 0.64012(4)
C7_4 C 0.27848(17) 0.14965(10) 0.72116(7)
C9_4 C 0.28201(17) 0.0279(2) 0.59829(6)
C10_4 C 0.34633(15) 0.0354(2) 0.57957(7)
C11_4 C 0.34724(17) 0.0379(2) 0.54108(7)
H4_4 H 0.3912 0.0431 0.5283
C12_4 C 0.2838(2) 0.0329(2) 0.52132(6)
C13_4 C 0.21953(17) 0.0253(3) 0.54004(9)
H5_4 H 0.1762 0.0218 0.5265
C14_4 C 0.21861(15) 0.0228(3) 0.57853(9)
C15_4 C 0.41830(18) 0.0546(4) 0.60045(11)
H6_4 H 0.4109 0.0511 0.6273
H7_4 H 0.4326 0.1033 0.5941
H8_4 H 0.4558 0.0213 0.5929
C16_4 C 0.1508(4) 0.0011(6) 0.59884(16)
H10_4 H 0.1401 0.0362 0.6182
O7_4 O 0.30305(18) 0.20384(16) 0.29469(8)
O8_4 O 0.25031(16) 0.14695(14) 0.24661(7)
C17_4 C 0.26427(11) 0.01727(10) 0.28352(4)
H12_4 H 0.2580 0.0151 0.2574
C18_4 C 0.27588(10) 0.08258(9) 0.30069(5)
C19_4 C 0.28502(14) 0.08581(10) 0.33887(5)
H13_4 H 0.2930 0.1304 0.3506
C20_4 C 0.28255(17) 0.02375(11) 0.35988(4)
C23_4 C 0.27848(17) 0.14965(10) 0.27884(7)
C25_4 C 0.28201(17) 0.0279(2) 0.40171(6)
C26_4 C 0.34633(15) 0.0354(2) 0.42043(7)
C27_4 C 0.34724(17) 0.0379(2) 0.45892(7)
H15_4 H 0.3912 0.0431 0.4717
C28_4 C 0.2838(2) 0.0329(2) 0.47868(6)
C29_4 C 0.21953(17) 0.0253(3) 0.45996(9)
H16_4 H 0.1762 0.0218 0.4735
C30_4 C 0.21861(15) 0.0228(3) 0.42147(9)
C31_4 C 0.41830(18) 0.0546(4) 0.39955(11)
H17_4 H 0.4109 0.0511 0.3727
H18_4 H 0.4326 0.1033 0.4059
H19_4 H 0.4558 0.0213 0.4071
C32_4 C 0.1508(4) 0.0011(6) 0.40116(16)
H21_4 H 0.1401 0.0362 0.3818
O11_4 O 0.20384(16) 0.30305(18) 0.70531(8)
O12_4 O 0.14695(14) 0.25031(16) 0.75339(7)
O13_4 O 0.28018(17) 0.38470(15) 0.75514(8)
O15_4 O 0.22747(16) 0.33022(14) 0.80362(7)
O5_4 O 0.21982(17) 0.88470(15) 0.74486(8)
O6_4 O 0.27253(16) 0.83022(14) 0.69638(7)
C5_4 C 0.27094(15) 0.95845(10) 0.65730(5)
H3_4 H 0.2693 0.9160 0.6429
C6_4 C 0.26180(12) 0.95521(9) 0.69548(5)
C8_4 C 0.25215(19) 0.88483(10) 0.71357(7)
H9_4 H 0.1111 0.9990 0.5812
H11_4 H 0.1576 0.9541 0.6102
C21_4 C 0.27094(15) 0.95845(10) 0.34270(5)
H14_4 H 0.2693 0.9160 0.3571
C22_4 C 0.26180(12) 0.95521(9) 0.30452(5)
C24_4 C 0.25215(19) 0.88483(10) 0.28643(7)
H20_4 H 0.1111 0.9990 0.4188
H22_4 H 0.1576 0.9541 0.3898
C5_5 C 0.04155(10) 0.72906(15) 0.34270(5)
H3_5 H 0.0840 0.7307 0.3571
C6_5 C 0.04479(9) 0.73820(12) 0.30452(5)
C8_5 C 0.11517(10) 0.74785(19) 0.28643(7)
H9_5 H 0.0010 0.8889 0.4188
H11_5 H 0.0459 0.8424 0.3898
O9_4 O 0.11530(15) 0.78018(17) 0.74486(8)
O10_4 O 0.16978(14) 0.72747(16) 0.69638(7)
C21_5 C 0.04155(10) 0.72906(15) 0.65730(5)
H14_5 H 0.0840 0.7307 0.6429
C22_5 C 0.04479(9) 0.73820(12) 0.69548(5)
C24_5 C 0.11517(10) 0.74785(19) 0.71357(7)
H20_5 H 0.0010 0.8889 0.5812
H22_5 H 0.0459 0.8424 0.6102
O1_5 O 0.79616(16) 0.69695(18) 0.29469(8)
O2_5 O 0.64899(17) 0.64899(17) 0.31886(11)
O3_5 O 0.85305(14) 0.74969(16) 0.24661(7)
O4_5 O 0.81721(17) 0.81721(17) 0.17179(11)
C1_5 C 0.98273(10) 0.73573(11) 0.28352(4)
H1_5 H 0.9849 0.7420 0.2574
C2_5 C 0.91742(9) 0.72412(10) 0.30069(5)
C3_5 C 0.91419(10) 0.71498(14) 0.33887(5)
H2_5 H 0.8696 0.7070 0.3506
C4_5 C 0.97625(11) 0.71745(17) 0.35988(4)
C7_5 C 0.85035(10) 0.72152(17) 0.27884(7)
C9_5 C 0.9721(2) 0.71799(17) 0.40171(6)
C10_5 C 0.9646(2) 0.65367(15) 0.42043(7)
C11_5 C 0.9621(2) 0.65276(17) 0.45892(7)
H4_5 H 0.9569 0.6088 0.4717
C12_5 C 0.9671(2) 0.7162(2) 0.47868(6)
C13_5 C 0.9747(3) 0.78047(17) 0.45996(9)
H5_5 H 0.9782 0.8238 0.4735
C14_5 C 0.9772(3) 0.78139(15) 0.42147(9)
C15_5 C 0.9454(4) 0.58170(18) 0.39955(11)
H6_5 H 0.9489 0.5891 0.3727
H7_5 H 0.8967 0.5674 0.4059
H8_5 H 0.9787 0.5442 0.4071
C16_5 C 0.9989(6) 0.8492(4) 0.40116(16)
H10_5 H 0.9638 0.8599 0.3818
C17_5 C 0.98273(10) 0.73573(11) 0.71648(4)
H12_5 H 0.9849 0.7420 0.7426
C18_5 C 0.91742(9) 0.72412(10) 0.69931(5)
C19_5 C 0.91419(10) 0.71498(14) 0.66113(5)
H13_5 H 0.8696 0.7070 0.6494
C20_5 C 0.97625(11) 0.71745(17) 0.64012(4)
C23_5 C 0.85035(10) 0.72152(17) 0.72116(7)
C25_5 C 0.9721(2) 0.71799(17) 0.59829(6)
C26_5 C 0.9646(2) 0.65367(15) 0.57957(7)
C27_5 C 0.9621(2) 0.65276(17) 0.54108(7)
H15_5 H 0.9569 0.6088 0.5283
C28_5 C 0.9671(2) 0.7162(2) 0.52132(6)
C29_5 C 0.9747(3) 0.78047(17) 0.54004(9)
H16_5 H 0.9782 0.8238 0.5265
C30_5 C 0.9772(3) 0.78139(15) 0.57853(9)
C31_5 C 0.9454(4) 0.58170(18) 0.60045(11)
H17_5 H 0.9489 0.5891 0.6273
H18_5 H 0.8967 0.5674 0.5941
H19_5 H 0.9787 0.5442 0.5929
C32_5 C 0.9989(6) 0.8492(4) 0.59884(16)
H21_5 H 0.9638 0.8599 0.6182
O14_2 O 0.71982(17) 0.61530(15) 0.24486(8)
O16_2 O 0.77253(16) 0.66978(14) 0.19638(7)
O1_6 O 0.20384(16) 0.30305(18) 0.29469(8)
O2_6 O 0.35101(17) 0.35101(17) 0.31886(11)
O3_6 O 0.14695(14) 0.25031(16) 0.24661(7)
O4_6 O 0.18279(17) 0.18279(17) 0.17179(11)
C1_6 C 0.01727(10) 0.26427(11) 0.28352(4)
H1_6 H 0.0151 0.2580 0.2574
C2_6 C 0.08258(9) 0.27588(10) 0.30069(5)
C3_6 C 0.08581(10) 0.28502(14) 0.33887(5)
H2_6 H 0.1304 0.2930 0.3506
C4_6 C 0.02375(11) 0.28255(17) 0.35988(4)
C7_6 C 0.14965(10) 0.27848(17) 0.27884(7)
C9_6 C 0.0279(2) 0.28201(17) 0.40171(6)
C10_6 C 0.0354(2) 0.34633(15) 0.42043(7)
C11_6 C 0.0379(2) 0.34724(17) 0.45892(7)
H4_6 H 0.0431 0.3912 0.4717
C12_6 C 0.0329(2) 0.2838(2) 0.47868(6)
C13_6 C 0.0253(3) 0.21953(17) 0.45996(9)
H5_6 H 0.0218 0.1762 0.4735
C14_6 C 0.0228(3) 0.21861(15) 0.42147(9)
C15_6 C 0.0546(4) 0.41830(18) 0.39955(11)
H6_6 H 0.0511 0.4109 0.3727
H7_6 H 0.1033 0.4326 0.4059
H8_6 H 0.0213 0.4558 0.4071
C16_6 C 0.0011(6) 0.1508(4) 0.40116(16)
H10_6 H 0.0362 0.1401 0.3818
C17_6 C 0.01727(10) 0.26427(11) 0.71648(4)
H12_6 H 0.0151 0.2580 0.7426
C18_6 C 0.08258(9) 0.27588(10) 0.69931(5)
C19_6 C 0.08581(10) 0.28502(14) 0.66113(5)
H13_6 H 0.1304 0.2930 0.6494
C20_6 C 0.02375(11) 0.28255(17) 0.64012(4)
C23_6 C 0.14965(10) 0.27848(17) 0.72116(7)
C25_6 C 0.0279(2) 0.28201(17) 0.59829(6)
C26_6 C 0.0354(2) 0.34633(15) 0.57957(7)
C27_6 C 0.0379(2) 0.34724(17) 0.54108(7)
H15_6 H 0.0431 0.3912 0.5283
C28_6 C 0.0329(2) 0.2838(2) 0.52132(6)
C29_6 C 0.0253(3) 0.21953(17) 0.54004(9)
H16_6 H 0.0218 0.1762 0.5265
C30_6 C 0.0228(3) 0.21861(15) 0.57853(9)
C31_6 C 0.0546(4) 0.41830(18) 0.60045(11)
H17_6 H 0.0511 0.4109 0.6273
H18_6 H 0.1033 0.4326 0.5941
H19_6 H 0.0213 0.4558 0.5929
C32_6 C 0.0011(6) 0.1508(4) 0.59884(16)
H21_6 H 0.0362 0.1401 0.6182
O14_3 O 0.28018(17) 0.38470(15) 0.24486(8)
O16_3 O 0.22747(16) 0.33022(14) 0.19638(7)
C5_6 C 0.95845(10) 0.27094(15) 0.34270(5)
H3_6 H 0.9160 0.2693 0.3571
C6_6 C 0.95521(9) 0.26180(12) 0.30452(5)
C8_6 C 0.88483(10) 0.25215(19) 0.28643(7)
H9_6 H 0.9990 0.1111 0.4188
H11_6 H 0.9541 0.1576 0.3898
O9_5 O 0.88470(15) 0.21982(17) 0.74486(8)
O10_5 O 0.83022(14) 0.27253(16) 0.69638(7)
C21_6 C 0.95845(10) 0.27094(15) 0.65730(5)
H14_6 H 0.9160 0.2693 0.6429
C22_6 C 0.95521(9) 0.26180(12) 0.69548(5)
C24_6 C 0.88483(10) 0.25215(19) 0.71357(7)
H20_6 H 0.9990 0.1111 0.5812
H22_6 H 0.9541 0.1576 0.6102
C17_7 C 0.76427(11) 0.48273(10) 0.21648(4)
H12_7 H 0.7580 0.4849 0.2426
C18_7 C 0.77588(10) 0.41742(9) 0.19931(5)
C19_7 C 0.78502(14) 0.41419(10) 0.16113(5)
H13_7 H 0.7930 0.3696 0.1494
C20_7 C 0.78255(17) 0.47625(11) 0.14012(4)
C21_7 C 0.77094(15) 0.54155(10) 0.15730(5)
H14_7 H 0.7693 0.5840 0.1429
C22_7 C 0.76180(12) 0.54479(9) 0.19548(5)
C23_7 C 0.77848(17) 0.35035(10) 0.22116(7)
C24_7 C 0.75215(19) 0.61517(10) 0.21357(7)
C25_7 C 0.78201(17) 0.4721(2) 0.09829(6)
C26_7 C 0.84633(15) 0.4646(2) 0.07957(7)
C27_7 C 0.84724(17) 0.4621(2) 0.04108(7)
H15_7 H 0.8912 0.4569 0.0283
C28_7 C 0.7838(2) 0.4671(2) 0.02132(6)
C29_7 C 0.71953(17) 0.4747(3) 0.04004(9)
H16_7 H 0.6762 0.4782 0.0265
C30_7 C 0.71861(15) 0.4772(3) 0.07853(9)
C31_7 C 0.91830(18) 0.4454(4) 0.10045(11)
H17_7 H 0.9109 0.4489 0.1273
H18_7 H 0.9326 0.3967 0.0941
H19_7 H 0.9558 0.4787 0.0929
C32_7 C 0.6508(4) 0.4989(6) 0.09884(16)
H20_7 H 0.6111 0.5010 0.0812
H21_7 H 0.6401 0.4638 0.1182
H22_7 H 0.6576 0.5459 0.1102
O1_7 O 0.80305(18) 0.29616(16) 0.79469(8)
O2_7 O 0.85101(17) 0.14899(17) 0.81886(11)
O3_7 O 0.75031(16) 0.35305(14) 0.74661(7)
O4_7 O 0.68279(17) 0.31721(17) 0.67179(11)
C1_7 C 0.76427(11) 0.48273(10) 0.78352(4)
H1_7 H 0.7580 0.4849 0.7574
C2_7 C 0.77588(10) 0.41742(9) 0.80069(5)
C3_7 C 0.78502(14) 0.41419(10) 0.83887(5)
H2_7 H 0.7930 0.3696 0.8506
C4_7 C 0.78255(17) 0.47625(11) 0.85988(4)
C5_7 C 0.77094(15) 0.54155(10) 0.84270(5)
H3_7 H 0.7693 0.5840 0.8571
C6_7 C 0.76180(12) 0.54479(9) 0.80452(5)
C7_7 C 0.77848(17) 0.35035(10) 0.77884(7)
C8_7 C 0.75215(19) 0.61517(10) 0.78643(7)
C9_7 C 0.78201(17) 0.4721(2) 0.90171(6)
C10_7 C 0.84633(15) 0.4646(2) 0.92043(7)
C11_7 C 0.84724(17) 0.4621(2) 0.95892(7)
H4_7 H 0.8912 0.4569 0.9717
C12_7 C 0.7838(2) 0.4671(2) 0.97868(6)
C13_7 C 0.71953(17) 0.4747(3) 0.95996(9)
H5_7 H 0.6762 0.4782 0.9735
C14_7 C 0.71861(15) 0.4772(3) 0.92147(9)
C15_7 C 0.91830(18) 0.4454(4) 0.89955(11)
H6_7 H 0.9109 0.4489 0.8727
H7_7 H 0.9326 0.3967 0.9059
H8_7 H 0.9558 0.4787 0.9071
C16_7 C 0.6508(4) 0.4989(6) 0.90116(16)
H9_7 H 0.6111 0.5010 0.9188
H10_7 H 0.6401 0.4638 0.8818
H11_7 H 0.6576 0.5459 0.8898
C17_8 C 0.23573(11) 0.51727(10) 0.21648(4)
H12_8 H 0.2420 0.5151 0.2426
C18_8 C 0.22412(10) 0.58258(9) 0.19931(5)
C19_8 C 0.21498(14) 0.58581(10) 0.16113(5)
H13_8 H 0.2070 0.6304 0.1494
C20_8 C 0.21745(17) 0.52375(11) 0.14012(4)
C21_8 C 0.22906(15) 0.45845(10) 0.15730(5)
H14_8 H 0.2307 0.4160 0.1429
C22_8 C 0.23820(12) 0.45521(9) 0.19548(5)
C23_8 C 0.22152(17) 0.64965(10) 0.22116(7)
C24_8 C 0.24785(19) 0.38483(10) 0.21357(7)
C25_8 C 0.21799(17) 0.5279(2) 0.09829(6)
C26_8 C 0.15367(15) 0.5354(2) 0.07957(7)
C27_8 C 0.15276(17) 0.5379(2) 0.04108(7)
H15_8 H 0.1088 0.5431 0.0283
C28_8 C 0.2162(2) 0.5329(2) 0.02132(6)
C29_8 C 0.28047(17) 0.5253(3) 0.04004(9)
H16_8 H 0.3238 0.5218 0.0265
C30_8 C 0.28139(15) 0.5228(3) 0.07853(9)
C31_8 C 0.08170(18) 0.5546(4) 0.10045(11)
H17_8 H 0.0891 0.5511 0.1273
H18_8 H 0.0674 0.6033 0.0941
H19_8 H 0.0442 0.5213 0.0929
C32_8 C 0.3492(4) 0.5011(6) 0.09884(16)
H20_8 H 0.3889 0.4990 0.0812
H21_8 H 0.3599 0.5362 0.1182
H22_8 H 0.3424 0.4541 0.1102
O1_8 O 0.19695(18) 0.70384(16) 0.79469(8)
O2_8 O 0.14899(17) 0.85101(17) 0.81886(11)
O3_8 O 0.24969(16) 0.64695(14) 0.74661(7)
O4_8 O 0.31721(17) 0.68279(17) 0.67179(11)
C1_8 C 0.23573(11) 0.51727(10) 0.78352(4)
H1_8 H 0.2420 0.5151 0.7574
C2_8 C 0.22412(10) 0.58258(9) 0.80069(5)
C3_8 C 0.21498(14) 0.58581(10) 0.83887(5)
H2_8 H 0.2070 0.6304 0.8506
C4_8 C 0.21745(17) 0.52375(11) 0.85988(4)
C5_8 C 0.22906(15) 0.45845(10) 0.84270(5)
H3_8 H 0.2307 0.4160 0.8571
C6_8 C 0.23820(12) 0.45521(9) 0.80452(5)
C7_8 C 0.22152(17) 0.64965(10) 0.77884(7)
C8_8 C 0.24785(19) 0.38483(10) 0.78643(7)
C9_8 C 0.21799(17) 0.5279(2) 0.90171(6)
C10_8 C 0.15367(15) 0.5354(2) 0.92043(7)
C11_8 C 0.15276(17) 0.5379(2) 0.95892(7)
H4_8 H 0.1088 0.5431 0.9717
C12_8 C 0.2162(2) 0.5329(2) 0.97868(6)
C13_8 C 0.28047(17) 0.5253(3) 0.95996(9)
H5_8 H 0.3238 0.5218 0.9735
C14_8 C 0.28139(15) 0.5228(3) 0.92147(9)
C15_8 C 0.08170(18) 0.5546(4) 0.89955(11)
H6_8 H 0.0891 0.5511 0.8727
H7_8 H 0.0674 0.6033 0.9059
H8_8 H 0.0442 0.5213 0.9071
C16_8 C 0.3492(4) 0.5011(6) 0.90116(16)
H9_8 H 0.3889 0.4990 0.9188
H10_8 H 0.3599 0.5362 0.8818
H11_8 H 0.3424 0.4541 0.8898
loop_
_geom_bond_atom_site_label_1
_geom_bond_atom_site_label_2
_geom_bond_site_symmetry_1
_geom_bond_site_symmetry_2
Cu1 Cu2 1_555 1_555
Cu2 O3 1_555 1_555
O1 Cu1 1_555 1_555
O2 Cu1 1_555 1_555
O3 C7 1_555 1_555
O4 Cu2 1_555 1_555
O5 C8 1_555 1_555
O6 C8 1_555 1_555
C1 H1 1_555 1_555
C2 C1 1_555 1_555
C3 C2 1_555 1_555
H2 C3 1_555 1_555
C4 C3 1_555 1_555
C5 C4 1_555 1_555
H3 C5 1_555 1_555
C6 C1 1_555 1_555
C7 O1 1_555 1_555
C8 C6 1_555 1_555
C9 C4 1_555 1_555
C10 C9 1_555 1_555
C11 C10 1_555 1_555
H4 C11 1_555 1_555
C12 C11 1_555 1_555
C13 C12 1_555 1_555
H5 C13 1_555 1_555
C14 C9 1_555 1_555
C15 C10 1_555 1_555
H6 C15 1_555 1_555
H7 C15 1_555 1_555
H8 C15 1_555 1_555
C16 C14 1_555 1_555
H9 C16 1_555 1_555
H10 C16 1_555 1_555
H11 C16 1_555 1_555
Cu4 O5 1_555 1_555
Cu7 O6 1_555 1_555
O11 Cu1 1_555 1_555
O12 Cu2 1_555 1_555
O13 Cu1 1_555 1_555
O14 Cu1 1_555 1_555
O15 Cu2 1_555 1_555
O16 Cu2 1_555 1_555
C2 C7 1_555 1_555
C5 C6 1_555 1_555
C13 C14 1_555 1_555
Cu4 Cu7 1_555 1_555
O7 C23 1_555 1_555
O8 C23 1_555 1_555
O9 C24 1_555 1_555
O10 C24 1_555 1_555
C17 H12 1_555 1_555
C18 C17 1_555 1_555
C19 C18 1_555 1_555
H13 C19 1_555 1_555
C20 C19 1_555 1_555
C21 C20 1_555 1_555
H14 C21 1_555 1_555
C22 C17 1_555 1_555
C23 C18 1_555 1_555
C24 C22 1_555 1_555
C25 C20 1_555 1_555
C26 C25 1_555 1_555
C27 C26 1_555 1_555
H15 C27 1_555 1_555
C29 C28 1_555 1_555
H16 C29 1_555 1_555
C30 C25 1_555 1_555
C31 C26 1_555 1_555
H17 C31 1_555 1_555
H18 C31 1_555 1_555
H19 C31 1_555 1_555
C32 C30 1_555 1_555
H20 C32 1_555 1_555
H21 C32 1_555 1_555
H22 C32 1_555 1_555
Cu3 O9 1_555 1_555
Cu5 O7 1_555 1_555
Cu6 O10 1_555 1_555
Cu8 O8 1_555 1_555
C21 C22 1_555 1_555
C27 C28 1_555 1_555
C29 C30 1_555 1_555
Cu3 Cu6 1_555 1_555
Cu5 Cu8 1_555 1_555
O5_2 C8_2 1_555 1_555
O6_2 C8_2 1_555 1_555
H3_2 C5_2 1_555 1_555
C8_2 C6_2 1_555 1_555
O9_2 C24_2 1_555 1_555
O10_2 C24_2 1_555 1_555
H14_2 C21_2 1_555 1_555
C24_2 C22_2 1_555 1_555
Cu3_2 O9_2 1_555 1_555
Cu4_2 O5_2 1_555 1_555
Cu6_2 O10_2 1_555 1_555
Cu7_2 O6_2 1_555 1_555
C5_2 C6_2 1_555 1_555
C21_2 C22_2 1_555 1_555
Cu3_2 Cu6_2 1_555 1_555
Cu4_2 Cu7_2 1_555 1_555
Cu6 O3_2 1_555 1_555
O1_2 Cu3 1_555 1_555
O2_2 Cu3 1_555 1_555
O3_2 C7_2 1_555 1_555
O4_2 Cu6 1_555 1_555
C1_2 H1_2 1_555 1_555
C2_2 C1_2 1_555 1_555
C3_2 C2_2 1_555 1_555
H2_2 C3_2 1_555 1_555
C4_2 C3_2 1_555 1_555
C7_2 O1_2 1_555 1_555
C9_2 C4_2 1_555 1_555
C10_2 C9_2 1_555 1_555
C11_2 C10_2 1_555 1_555
H4_2 C11_2 1_555 1_555
C12_2 C11_2 1_555 1_555
C13_2 C12_2 1_555 1_555
H5_2 C13_2 1_555 1_555
C14_2 C9_2 1_555 1_555
C15_2 C10_2 1_555 1_555
H6_2 C15_2 1_555 1_555
H7_2 C15_2 1_555 1_555
H8_2 C15_2 1_555 1_555
C16_2 C14_2 1_555 1_555
H10_2 C16_2 1_555 1_555
O7_2 C23_2 1_555 1_555
O8_2 C23_2 1_555 1_555
C17_2 H12_2 1_555 1_555
C18_2 C17_2 1_555 1_555
C19_2 C18_2 1_555 1_555
H13_2 C19_2 1_555 1_555
C20_2 C19_2 1_555 1_555
C23_2 C18_2 1_555 1_555
C25_2 C20_2 1_555 1_555
C26_2 C25_2 1_555 1_555
C27_2 C26_2 1_555 1_555
H15_2 C27_2 1_555 1_555
C28_2 C12_2 1_555 1_555
C29_2 C28_2 1_555 1_555
H16_2 C29_2 1_555 1_555
C30_2 C25_2 1_555 1_555
C31_2 C26_2 1_555 1_555
H17_2 C31_2 1_555 1_555
H18_2 C31_2 1_555 1_555
H19_2 C31_2 1_555 1_555
C32_2 C30_2 1_555 1_555
H21_2 C32_2 1_555 1_555
Cu4 O7_2 1_555 1_555
Cu7 O8_2 1_555 1_555
O11_2 Cu3 1_555 1_555
O12_2 Cu6 1_555 1_555
O13_2 Cu3 1_555 1_555
O15_2 Cu6 1_555 1_555
C2_2 C7_2 1_555 1_555
C13_2 C14_2 1_555 1_555
C27_2 C28_2 1_555 1_555
C29_2 C30_2 1_555 1_555
Cu6_2 O3_3 1_555 1_555
O1_3 Cu3_2 1_555 1_555
O2_3 Cu3_2 1_555 1_555
O3_3 C7_3 1_555 1_555
O4_3 Cu6_2 1_555 1_555
O5_3 C8_3 1_555 1_555
O6_3 C8_3 1_555 1_555
C1_3 H1_3 1_555 1_555
C2_3 C1_3 1_555 1_555
C3_3 C2_3 1_555 1_555
H2_3 C3_3 1_555 1_555
C4_3 C3_3 1_555 1_555
C5_3 C4_3 1_555 1_555
H3_3 C5_3 1_555 1_555
C6_3 C1_3 1_555 1_555
C7_3 O1_3 1_555 1_555
C8_3 C6_3 1_555 1_555
C9_3 C4_3 1_555 1_555
C10_3 C9_3 1_555 1_555
C11_3 C10_3 1_555 1_555
H4_3 C11_3 1_555 1_555
C12_3 C11_3 1_555 1_555
C13_3 C12_3 1_555 1_555
H5_3 C13_3 1_555 1_555
C14_3 C9_3 1_555 1_555
C15_3 C10_3 1_555 1_555
H6_3 C15_3 1_555 1_555
H7_3 C15_3 1_555 1_555
H8_3 C15_3 1_555 1_555
C16_3 C14_3 1_555 1_555
H9_3 C16_3 1_555 1_555
H10_3 C16_3 1_555 1_555
H11_3 C16_3 1_555 1_555
Cu4_3 O5_3 1_555 1_555
Cu7_3 O6_3 1_555 1_555
O11_3 Cu3_2 1_555 1_555
O12_3 Cu6_2 1_555 1_555
O13_3 Cu3_2 1_555 1_555
O15_3 Cu6_2 1_555 1_555
C2_3 C7_3 1_555 1_555
C5_3 C6_3 1_555 1_555
C13_3 C14_3 1_555 1_555
Cu4_3 Cu7_3 1_555 1_555
O7_3 C23_3 1_555 1_555
O8_3 C23_3 1_555 1_555
O9_3 C24_3 1_555 1_555
O10_3 C24_3 1_555 1_555
C17_3 H12_3 1_555 1_555
C18_3 C17_3 1_555 1_555
C19_3 C18_3 1_555 1_555
H13_3 C19_3 1_555 1_555
C20_3 C19_3 1_555 1_555
C21_3 C20_3 1_555 1_555
H14_3 C21_3 1_555 1_555
C22_3 C17_3 1_555 1_555
C23_3 C18_3 1_555 1_555
C24_3 C22_3 1_555 1_555
C25_3 C20_3 1_555 1_555
C26_3 C25_3 1_555 1_555
C27_3 C26_3 1_555 1_555
H15_3 C27_3 1_555 1_555
C29_3 C28_3 1_555 1_555
H16_3 C29_3 1_555 1_555
C30_3 C25_3 1_555 1_555
C31_3 C26_3 1_555 1_555
H17_3 C31_3 1_555 1_555
H18_3 C31_3 1_555 1_555
H19_3 C31_3 1_555 1_555
C32_3 C30_3 1_555 1_555
H20_3 C32_3 1_555 1_555
H21_3 C32_3 1_555 1_555
H22_3 C32_3 1_555 1_555
Cu3_3 O9_3 1_555 1_555
Cu4_2 O7_3 1_555 1_555
Cu6_3 O10_3 1_555 1_555
Cu7_2 O8_3 1_555 1_555
C21_3 C22_3 1_555 1_555
C27_3 C28_3 1_555 1_555
C29_3 C30_3 1_555 1_555
Cu3_3 Cu6_3 1_555 1_555
Cu6_3 O3_4 1_555 1_555
O1_4 Cu3_3 1_555 1_555
O2_4 Cu3_3 1_555 1_555
O3_4 C7_4 1_555 1_555
O4_4 Cu6_3 1_555 1_555
C1_4 H1_4 1_555 1_555
C2_4 C1_4 1_555 1_555
C3_4 C2_4 1_555 1_555
H2_4 C3_4 1_555 1_555
C4_4 C3_4 1_555 1_555
C7_4 O1_4 1_555 1_555
C9_4 C4_4 1_555 1_555
C10_4 C9_4 1_555 1_555
C11_4 C10_4 1_555 1_555
H4_4 C11_4 1_555 1_555
C12_4 C11_4 1_555 1_555
C13_4 C12_4 1_555 1_555
H5_4 C13_4 1_555 1_555
C14_4 C9_4 1_555 1_555
C15_4 C10_4 1_555 1_555
H6_4 C15_4 1_555 1_555
H7_4 C15_4 1_555 1_555
H8_4 C15_4 1_555 1_555
C16_4 C14_4 1_555 1_555
H10_4 C16_4 1_555 1_555
O7_4 C23_4 1_555 1_555
O8_4 C23_4 1_555 1_555
C17_4 H12_4 1_555 1_555
C18_4 C17_4 1_555 1_555
C19_4 C18_4 1_555 1_555
H13_4 C19_4 1_555 1_555
C20_4 C19_4 1_555 1_555
C23_4 C18_4 1_555 1_555
C25_4 C20_4 1_555 1_555
C26_4 C25_4 1_555 1_555
C27_4 C26_4 1_555 1_555
H15_4 C27_4 1_555 1_555
C28_4 C12_4 1_555 1_555
C29_4 C28_4 1_555 1_555
H16_4 C29_4 1_555 1_555
C30_4 C25_4 1_555 1_555
C31_4 C26_4 1_555 1_555
H17_4 C31_4 1_555 1_555
H18_4 C31_4 1_555 1_555
H19_4 C31_4 1_555 1_555
C32_4 C30_4 1_555 1_555
H21_4 C32_4 1_555 1_555
Cu4_3 O7_4 1_555 1_555
Cu7_3 O8_4 1_555 1_555
O11_4 Cu3_3 1_555 1_555
O12_4 Cu6_3 1_555 1_555
O13_4 Cu3_3 1_555 1_555
O15_4 Cu6_3 1_555 1_555
C2_4 C7_4 1_555 1_555
C13_4 C14_4 1_555 1_555
C27_4 C28_4 1_555 1_555
C29_4 C30_4 1_555 1_555
O5_4 C8_4 1_555 1_555
O6_4 C8_4 1_555 1_555
H3_4 C5_4 1_555 1_555
C8_4 C6_4 1_555 1_555
O14 C24_4 1_555 1_555
O16 C24_4 1_555 1_555
H14_4 C21_4 1_555 1_555
C24_4 C22_4 1_555 1_555
Cu5 O5_4 1_555 1_555
Cu8 O6_4 1_555 1_555
C5_4 C6_4 1_555 1_555
C21_4 C22_4 1_555 1_555
O13 C8_5 1_555 1_555
O15 C8_5 1_555 1_555
H3_5 C5_5 1_555 1_555
C8_5 C6_5 1_555 1_555
O9_4 C24_5 1_555 1_555
O10_4 C24_5 1_555 1_555
H14_5 C21_5 1_555 1_555
C24_5 C22_5 1_555 1_555
Cu5 O9_4 1_555 1_555
Cu8 O10_4 1_555 1_555
C5_5 C6_5 1_555 1_555
C21_5 C22_5 1_555 1_555
Cu7 O3_5 1_555 1_555
O1_5 Cu4 1_555 1_555
O2_5 Cu4 1_555 1_555
O3_5 C7_5 1_555 1_555
O4_5 Cu7 1_555 1_555
C1_5 H1_5 1_555 1_555
C2_5 C1_5 1_555 1_555
C3_5 C2_5 1_555 1_555
H2_5 C3_5 1_555 1_555
C4_5 C3_5 1_555 1_555
C7_5 O1_5 1_555 1_555
C9_5 C4_5 1_555 1_555
C10_5 C9_5 1_555 1_555
C11_5 C10_5 1_555 1_555
H4_5 C11_5 1_555 1_555
C12_5 C11_5 1_555 1_555
C13_5 C12_5 1_555 1_555
H5_5 C13_5 1_555 1_555
C14_5 C9_5 1_555 1_555
C15_5 C10_5 1_555 1_555
H6_5 C15_5 1_555 1_555
H7_5 C15_5 1_555 1_555
H8_5 C15_5 1_555 1_555
C16_5 C14_5 1_555 1_555
H10_5 C16_5 1_555 1_555
O11_2 C23_5 1_555 1_555
O12_2 C23_5 1_555 1_555
C17_5 H12_5 1_555 1_555
C18_5 C17_5 1_555 1_555
C19_5 C18_5 1_555 1_555
H13_5 C19_5 1_555 1_555
C20_5 C19_5 1_555 1_555
C23_5 C18_5 1_555 1_555
C25_5 C20_5 1_555 1_555
C26_5 C25_5 1_555 1_555
C27_5 C26_5 1_555 1_555
H15_5 C27_5 1_555 1_555
C28_5 C12_5 1_555 1_555
C29_5 C28_5 1_555 1_555
H16_5 C29_5 1_555 1_555
C30_5 C25_5 1_555 1_555
C31_5 C26_5 1_555 1_555
H17_5 C31_5 1_555 1_555
H18_5 C31_5 1_555 1_555
H19_5 C31_5 1_555 1_555
C32_5 C30_5 1_555 1_555
H21_5 C32_5 1_555 1_555
O14_2 Cu4 1_555 1_555
O16_2 Cu7 1_555 1_555
C2_5 C7_5 1_555 1_555
C13_5 C14_5 1_555 1_555
C27_5 C28_5 1_555 1_555
C29_5 C30_5 1_555 1_555
Cu7_3 O3_6 1_555 1_555
O1_6 Cu4_3 1_555 1_555
O2_6 Cu4_3 1_555 1_555
O3_6 C7_6 1_555 1_555
O4_6 Cu7_3 1_555 1_555
C1_6 H1_6 1_555 1_555
C2_6 C1_6 1_555 1_555
C3_6 C2_6 1_555 1_555
H2_6 C3_6 1_555 1_555
C4_6 C3_6 1_555 1_555
C7_6 O1_6 1_555 1_555
C9_6 C4_6 1_555 1_555
C10_6 C9_6 1_555 1_555
C11_6 C10_6 1_555 1_555
H4_6 C11_6 1_555 1_555
C12_6 C11_6 1_555 1_555
C13_6 C12_6 1_555 1_555
H5_6 C13_6 1_555 1_555
C14_6 C9_6 1_555 1_555
C15_6 C10_6 1_555 1_555
H6_6 C15_6 1_555 1_555
H7_6 C15_6 1_555 1_555
H8_6 C15_6 1_555 1_555
C16_6 C14_6 1_555 1_555
H10_6 C16_6 1_555 1_555
O11_4 C23_6 1_555 1_555
O12_4 C23_6 1_555 1_555
C17_6 H12_6 1_555 1_555
C18_6 C17_6 1_555 1_555
C19_6 C18_6 1_555 1_555
H13_6 C19_6 1_555 1_555
C20_6 C19_6 1_555 1_555
C23_6 C18_6 1_555 1_555
C25_6 C20_6 1_555 1_555
C26_6 C25_6 1_555 1_555
C27_6 C26_6 1_555 1_555
H15_6 C27_6 1_555 1_555
C28_6 C12_6 1_555 1_555
C29_6 C28_6 1_555 1_555
H16_6 C29_6 1_555 1_555
C30_6 C25_6 1_555 1_555
C31_6 C26_6 1_555 1_555
H17_6 C31_6 1_555 1_555
H18_6 C31_6 1_555 1_555
H19_6 C31_6 1_555 1_555
C32_6 C30_6 1_555 1_555
H21_6 C32_6 1_555 1_555
O14_3 Cu4_3 1_555 1_555
O16_3 Cu7_3 1_555 1_555
C2_6 C7_6 1_555 1_555
C13_6 C14_6 1_555 1_555
C27_6 C28_6 1_555 1_555
C29_6 C30_6 1_555 1_555
O13_3 C8_6 1_555 1_555
O15_3 C8_6 1_555 1_555
H3_6 C5_6 1_555 1_555
C8_6 C6_6 1_555 1_555
O9_5 C24_6 1_555 1_555
O10_5 C24_6 1_555 1_555
H14_6 C21_6 1_555 1_555
C24_6 C22_6 1_555 1_555
Cu4_2 O9_5 1_555 1_555
Cu7_2 O10_5 1_555 1_555
C5_6 C6_6 1_555 1_555
C21_6 C22_6 1_555 1_555
O11_3 C23_7 1_555 1_555
O12_3 C23_7 1_555 1_555
O14_2 C24_7 1_555 1_555
O16_2 C24_7 1_555 1_555
C17_7 H12_7 1_555 1_555
C18_7 C17_7 1_555 1_555
C19_7 C18_7 1_555 1_555
H13_7 C19_7 1_555 1_555
C20_7 C19_7 1_555 1_555
C21_7 C20_7 1_555 1_555
H14_7 C21_7 1_555 1_555
C22_7 C17_7 1_555 1_555
C23_7 C18_7 1_555 1_555
C24_7 C22_7 1_555 1_555
C25_7 C20_7 1_555 1_555
C26_7 C25_7 1_555 1_555
C27_7 C26_7 1_555 1_555
H15_7 C27_7 1_555 1_555
C29_7 C28_7 1_555 1_555
H16_7 C29_7 1_555 1_555
C30_7 C25_7 1_555 1_555
C31_7 C26_7 1_555 1_555
H17_7 C31_7 1_555 1_555
H18_7 C31_7 1_555 1_555
H19_7 C31_7 1_555 1_555
C32_7 C30_7 1_555 1_555
H20_7 C32_7 1_555 1_555
H21_7 C32_7 1_555 1_555
H22_7 C32_7 1_555 1_555
C21_7 C22_7 1_555 1_555
C27_7 C28_7 1_555 1_555
C29_7 C30_7 1_555 1_555
Cu7_2 O3_7 1_555 1_555
O1_7 Cu4_2 1_555 1_555
O2_7 Cu4_2 1_555 1_555
O3_7 C7_7 1_555 1_555
O4_7 Cu7_2 1_555 1_555
O13_2 C8_7 1_555 1_555
O15_2 C8_7 1_555 1_555
C1_7 H1_7 1_555 1_555
C2_7 C1_7 1_555 1_555
C3_7 C2_7 1_555 1_555
H2_7 C3_7 1_555 1_555
C4_7 C3_7 1_555 1_555
C5_7 C4_7 1_555 1_555
H3_7 C5_7 1_555 1_555
C6_7 C1_7 1_555 1_555
C7_7 O1_7 1_555 1_555
C8_7 C6_7 1_555 1_555
C9_7 C4_7 1_555 1_555
C10_7 C9_7 1_555 1_555
C11_7 C10_7 1_555 1_555
H4_7 C11_7 1_555 1_555
C12_7 C11_7 1_555 1_555
C13_7 C12_7 1_555 1_555
H5_7 C13_7 1_555 1_555
C14_7 C9_7 1_555 1_555
C15_7 C10_7 1_555 1_555
H6_7 C15_7 1_555 1_555
H7_7 C15_7 1_555 1_555
H8_7 C15_7 1_555 1_555
C16_7 C14_7 1_555 1_555
H9_7 C16_7 1_555 1_555
H10_7 C16_7 1_555 1_555
H11_7 C16_7 1_555 1_555
C2_7 C7_7 1_555 1_555
C5_7 C6_7 1_555 1_555
C13_7 C14_7 1_555 1_555
O11 C23_8 1_555 1_555
O12 C23_8 1_555 1_555
O14_3 C24_8 1_555 1_555
O16_3 C24_8 1_555 1_555
C17_8 H12_8 1_555 1_555
C18_8 C17_8 1_555 1_555
C19_8 C18_8 1_555 1_555
H13_8 C19_8 1_555 1_555
C20_8 C19_8 1_555 1_555
C21_8 C20_8 1_555 1_555
H14_8 C21_8 1_555 1_555
C22_8 C17_8 1_555 1_555
C23_8 C18_8 1_555 1_555
C24_8 C22_8 1_555 1_555
C25_8 C20_8 1_555 1_555
C26_8 C25_8 1_555 1_555
C27_8 C26_8 1_555 1_555
H15_8 C27_8 1_555 1_555
C29_8 C28_8 1_555 1_555
H16_8 C29_8 1_555 1_555
C30_8 C25_8 1_555 1_555
C31_8 C26_8 1_555 1_555
H17_8 C31_8 1_555 1_555
H18_8 C31_8 1_555 1_555
H19_8 C31_8 1_555 1_555
C32_8 C30_8 1_555 1_555
H20_8 C32_8 1_555 1_555
H21_8 C32_8 1_555 1_555
H22_8 C32_8 1_555 1_555
C21_8 C22_8 1_555 1_555
C27_8 C28_8 1_555 1_555
C29_8 C30_8 1_555 1_555
Cu8 O3_8 1_555 1_555
O1_8 Cu5 1_555 1_555
O2_8 Cu5 1_555 1_555
O3_8 C7_8 1_555 1_555
O4_8 Cu8 1_555 1_555
O13_4 C8_8 1_555 1_555
O15_4 C8_8 1_555 1_555
C1_8 H1_8 1_555 1_555
C2_8 C1_8 1_555 1_555
C3_8 C2_8 1_555 1_555
H2_8 C3_8 1_555 1_555
C4_8 C3_8 1_555 1_555
C5_8 C4_8 1_555 1_555
H3_8 C5_8 1_555 1_555
C6_8 C1_8 1_555 1_555
C7_8 O1_8 1_555 1_555
C8_8 C6_8 1_555 1_555
C9_8 C4_8 1_555 1_555
C10_8 C9_8 1_555 1_555
C11_8 C10_8 1_555 1_555
H4_8 C11_8 1_555 1_555
C12_8 C11_8 1_555 1_555
C13_8 C12_8 1_555 1_555
H5_8 C13_8 1_555 1_555
C14_8 C9_8 1_555 1_555
C15_8 C10_8 1_555 1_555
H6_8 C15_8 1_555 1_555
H7_8 C15_8 1_555 1_555
H8_8 C15_8 1_555 1_555
C16_8 C14_8 1_555 1_555
H9_8 C16_8 1_555 1_555
H10_8 C16_8 1_555 1_555
H11_8 C16_8 1_555 1_555
C2_8 C7_8 1_555 1_555
C5_8 C6_8 1_555 1_555
C13_8 C14_8 1_555 1_555

#END
