
###############################################################################
#
# This file contains modified crystal structure data generated from the
# MOF subset of the Cambridge Structural Database (CSD) v543 
# hosted by the Cambridge Crystallographic Data Centre (CCDC).
#
# This work is licensed under the Creative Commons
# Attribution-NonCommercial-ShareAlike 4.0 International License.
# To view a copy of this license, visit
# http://creativecommons.org/licenses/by-nc-sa/4.0/
# or send a letter to
# Creative Commons, PO Box 1866, Mountain View, CA 94042, USA.
#
# CIF created using the CSD Python API on 29 September 2022
# The structure has been converted into the P1 space group
# The structure has a 3D framework
# The original CSD entry YABKEU is in the triclinic crystal system
# The framework has been calculated to contain at least 10.0% void space
# The void calculation uses a probe of radius 1.32A, grid spacing 0.4
# The framework is charged, counterions have been retained in the structure
#
###############################################################################

data_YABKEU
_chemical_formula_moiety         '(C48 H24 Eu3 O26 1-)n'
_symmetry_cell_setting           triclinic
_symmetry_space_group_name_H-M   'P 1'
_symmetry_Int_Tables_number      1
_space_group_name_Hall           'P 1'
loop_
_symmetry_equiv_pos_site_id
_symmetry_equiv_pos_as_xyz
1 x,y,z
_cell_length_a                   11.6692(4)
_cell_length_b                   12.2365(4)
_cell_length_c                   13.6586(6)
_cell_angle_alpha                65.229(4)
_cell_angle_beta                 67.518(4)
_cell_angle_gamma                88.435(3)
_cell_volume                     1615.62
loop_
_atom_site_label
_atom_site_type_symbol
_atom_site_fract_x
_atom_site_fract_y
_atom_site_fract_z
_atom_site_U_iso_or_equiv
_atom_site_thermal_displace_type
Eu2 Eu 0.43318(2) 0.33010(2) 0.32575(2) 0.0177 Uani
O1 O 0.6532(4) 0.4051(4) 0.1933(4) 0.0526 Uani
H1 H 0.7116 0.4256 0.2116 0.0790 Uiso
H2 H 0.6876 0.4162 0.1192 0.0790 Uiso
O8 O 0.1420(5) 0.1657(4) 0.3191(4) 0.0487 Uani
O9 O 0.2655(4) 0.1731(3) 0.4049(4) 0.0368 Uani
C13 C 0.2113(6) 0.1190(5) 0.3712(5) 0.0295 Uani
O16 O 0.5027(5) 0.1998(4) 0.2209(4) 0.0416 Uani
O17 O 0.4450(4) 0.3710(3) 0.1284(3) 0.0375 Uani
C29 C 0.4904(6) 0.1087(5) 0.0676(5) 0.0343 Uani
H14 H 0.4878 0.0544 0.1409 0.0410 Uiso
C30 C 0.4881(6) 0.2322(5) 0.0421(5) 0.0313 Uani
C31 C 0.4793(6) 0.2709(5) 0.1345(5) 0.0302 Uani
O27 O 0.4768(4) 0.5312(3) 0.3092(3) 0.0305 Uani
O33 O 0.5655(3) 0.3441(3) 0.4431(3) 0.0228 Uani
O35 O 0.5174(4) 0.1685(3) 0.4490(4) 0.0307 Uani
O38 O 0.2668(4) 0.4423(3) 0.2942(4) 0.0303 Uani
O42 O 0.2893(4) 0.3082(4) 0.5184(3) 0.0345 Uani
O14 O 0.5232(4) 0.4688(3) 0.6908(3) 0.0305 Uani
O15 O 0.4626(4) 0.3110(3) 0.6797(3) 0.0407 Uani
C25 C 0.4909(5) 0.3564(5) 0.7355(5) 0.0209 Uani
C26 C 0.4925(5) 0.2735(5) 0.8527(5) 0.0234 Uani
C27 C 0.4961(6) 0.1480(5) 0.8816(5) 0.0305 Uani
H13 H 0.4984 0.1210 0.8267 0.0360 Uiso
C28 C 0.4965(6) 0.0647(5) 0.9872(5) 0.0295 Uani
C32 C 0.4895(5) 0.3150(5) 0.9337(5) 0.0286 Uani
H15 H 0.4885 0.3970 0.9159 0.0340 Uiso
Eu5 Eu 0.5000 0.5000 0.5000 0.0147 Uani
Eu11 Eu 0.56682(2) 0.66990(2) 0.67425(2) 0.0177 Uani
O3 O 0.5374(4) 0.6890(3) 0.3203(3) 0.0407 Uani
O4 O 0.4345(3) 0.6559(3) 0.5569(3) 0.0228 Uani
O5 O 0.4826(4) 0.8315(3) 0.5510(4) 0.0307 Uani
O11 O 0.0827(4) 0.3671(4) 0.3129(4) 0.0369 Uani
H3 H 0.1225 0.3153 0.2986 0.0550 Uiso
C1 C 0.5091(5) 0.6436(5) 0.2645(5) 0.0209 Uani
C2 C 0.5075(5) 0.7265(5) 0.1473(5) 0.0234 Uani
C3 C 0.5039(6) 0.8520(5) 0.1184(5) 0.0305 Uani
H4 H 0.5016 0.8790 0.1733 0.0360 Uiso
C4 C 0.5035(6) 0.9353(5) 0.0128(5) 0.0295 Uani
C8 C 0.5105(5) 0.6850(5) 0.0663(5) 0.0286 Uani
H6 H 0.5115 0.6030 0.0841 0.0340 Uiso
C9 C 0.4240(5) 0.7688(5) 0.5281(5) 0.0205 Uani
C10 C 0.3356(5) 0.8219(5) 0.4708(5) 0.0221 Uani
C11 C 0.3180(5) 0.9418(5) 0.4429(5) 0.0274 Uani
H7 H 0.3647 0.9910 0.4555 0.0330 Uiso
C12 C 0.2308(5) 0.9887(5) 0.3962(5) 0.0276 Uani
C14 C 0.1619(5) 0.9166(5) 0.3766(5) 0.0265 Uani
H8 H 0.1026 0.9485 0.3468 0.0320 Uiso
C15 C 0.1797(5) 0.7975(5) 0.4006(5) 0.0222 Uani
C16 C 0.2657(5) 0.7500(5) 0.4501(5) 0.0251 Uani
H9 H 0.2764 0.6691 0.4695 0.0300 Uiso
C17 C 0.1060(5) 0.7167(5) 0.3818(5) 0.0239 Uani
C22 C 0.0943(5) 0.5460(5) 0.3358(5) 0.0207 Uani
C23 C 0.1559(5) 0.4461(5) 0.3110(5) 0.0226 Uani
C24 C 0.1638(5) 0.6297(5) 0.3454(5) 0.0233 Uani
H12 H 0.2489 0.6279 0.3275 0.0280 Uiso
O25 O 0.2834(4) 0.4516(4) 0.5770(4) 0.0372 Uani
C42 C 0.0223(5) 0.2820(5) 0.5933(5) 0.0220 Uani
H22 H 0.0625 0.2253 0.5692 0.0270 Uiso
C43 C 0.0896(5) 0.3644(5) 0.6041(5) 0.0207 Uani
C44 C 0.2312(5) 0.3731(5) 0.5641(5) 0.0225 Uani
C45 C 0.0317(5) 0.4499(5) 0.6406(5) 0.0239 Uani
H23 H 0.0774 0.5040 0.6490 0.0290 Uiso
O40 O 0.7166(4) 0.5484(4) 0.4230(4) 0.0372 Uani
O6 O 0.4973(5) 0.8002(4) 0.7791(4) 0.0416 Uani
O7 O 0.5550(4) 0.6290(3) 0.8716(3) 0.0375 Uani
C5 C 0.5096(6) 0.8913(5) 0.9324(5) 0.0343 Uani
H5 H 0.5122 0.9456 0.8591 0.0410 Uiso
C6 C 0.5119(6) 0.7678(5) 0.9579(5) 0.0313 Uani
C7 C 0.5207(6) 0.7291(5) 0.8655(5) 0.0302 Uani
O13 O 0.7107(4) 0.6918(4) 0.4816(3) 0.0345 Uani
C18 C 0.9777(5) 0.7180(5) 0.4067(5) 0.0220 Uani
H10 H 0.9375 0.7747 0.4308 0.0270 Uiso
C19 C 0.9104(5) 0.6356(5) 0.3959(5) 0.0207 Uani
C20 C 0.7688(5) 0.6269(5) 0.4359(5) 0.0225 Uani
C21 C 0.9683(5) 0.5501(5) 0.3594(5) 0.0239 Uani
H11 H 0.9226 0.4960 0.3510 0.0290 Uiso
O23 O 0.7332(4) 0.5577(3) 0.7058(4) 0.0303 Uani
O24 O 0.9173(4) 0.6329(4) 0.6871(4) 0.0369 Uani
H18 H 0.8775 0.6847 0.7014 0.0550 Uiso
C33 C 0.5760(5) 0.2312(5) 0.4719(5) 0.0205 Uani
C34 C 0.6644(5) 0.1781(5) 0.5292(5) 0.0221 Uani
C35 C 0.6820(5) 0.0582(5) 0.5571(5) 0.0274 Uani
H19 H 0.6353 0.0090 0.5445 0.0330 Uiso
C36 C 0.7692(5) 0.0113(5) 0.6038(5) 0.0276 Uani
C38 C 0.8381(5) 0.0834(5) 0.6234(5) 0.0265 Uani
H20 H 0.8974 0.0515 0.6532 0.0320 Uiso
C39 C 0.8203(5) 0.2025(5) 0.5994(5) 0.0222 Uani
C40 C 0.7343(5) 0.2500(5) 0.5499(5) 0.0251 Uani
H21 H 0.7236 0.3309 0.5305 0.0300 Uiso
C41 C 0.8940(5) 0.2833(5) 0.6182(5) 0.0239 Uani
C46 C 0.9057(5) 0.4540(5) 0.6642(5) 0.0207 Uani
C47 C 0.8441(5) 0.5539(5) 0.6890(5) 0.0226 Uani
C48 C 0.8362(5) 0.3703(5) 0.6546(5) 0.0233 Uani
H24 H 0.7511 0.3721 0.6725 0.0280 Uiso
O18 O 0.3468(4) 0.5949(4) 0.8067(4) 0.0526 Uani
H16 H 0.2884 0.5744 0.7884 0.0790 Uiso
H17 H 0.3124 0.5838 0.8808 0.0790 Uiso
O21 O 0.8580(5) 0.8343(4) 0.6809(4) 0.0487 Uani
O22 O 0.7345(4) 0.8269(3) 0.5951(4) 0.0368 Uani
C37 C 0.7887(6) 0.8810(5) 0.6288(5) 0.0295 Uani
loop_
_atom_site_aniso_label
_atom_site_aniso_U_11
_atom_site_aniso_U_22
_atom_site_aniso_U_33
_atom_site_aniso_U_23
_atom_site_aniso_U_13
_atom_site_aniso_U_12
Eu2 0.02301 0.01656 0.02173 -0.01206 -0.01336 0.00684
O1 0.044 0.076 0.034 -0.028 -0.007 -0.008
O8 0.071 0.03 0.09 -0.037 -0.067 0.029
O9 0.047 0.022 0.065 -0.026 -0.039 0.01
C13 0.032 0.023 0.042 -0.016 -0.022 0.007
O16 0.078 0.03 0.036 -0.021 -0.036 0.022
O17 0.072 0.025 0.031 -0.018 -0.031 0.021
C29 0.059 0.021 0.028 -0.011 -0.023 0.012
C30 0.043 0.024 0.031 -0.014 -0.017 0.005
C31 0.049 0.023 0.023 -0.011 -0.018 0.005
O27 0.047 0.013 0.037 -0.007 -0.027 0.004
O33 0.028 0.019 0.03 -0.0154 -0.0158 0.0099
O35 0.042 0.019 0.054 -0.022 -0.036 0.0109
O38 0.026 0.031 0.046 -0.022 -0.022 0.0158
O42 0.032 0.044 0.03 -0.02 -0.0116 0.016
O14 0.047 0.013 0.037 -0.007 -0.027 0.004
O15 0.081 0.023 0.025 -0.007 -0.032 0.002
C25 0.02 0.018 0.025 -0.011 -0.008 0.004
C26 0.03 0.02 0.021 -0.01 -0.01 0
C27 0.046 0.026 0.025 -0.013 -0.018 0.007
C28 0.05 0.021 0.025 -0.012 -0.021 0.008
C32 0.04 0.017 0.033 -0.013 -0.017 0.006
Eu5 0.0165 0.0143 0.0158 -0.0072 -0.00864 0.00485
Eu11 0.02301 0.01656 0.02173 -0.01206 -0.01336 0.00684
O3 0.081 0.023 0.025 -0.007 -0.032 0.002
O4 0.028 0.019 0.03 -0.0154 -0.0158 0.0099
O5 0.042 0.019 0.054 -0.022 -0.036 0.0109
O11 0.037 0.03 0.067 -0.034 -0.031 0.017
C1 0.02 0.018 0.025 -0.011 -0.008 0.004
C2 0.03 0.02 0.021 -0.01 -0.01 0
C3 0.046 0.026 0.025 -0.013 -0.018 0.007
C4 0.05 0.021 0.025 -0.012 -0.021 0.008
C8 0.04 0.017 0.033 -0.013 -0.017 0.006
C9 0.028 0.017 0.023 -0.011 -0.015 0.01
C10 0.024 0.017 0.03 -0.012 -0.014 0.004
C11 0.028 0.021 0.046 -0.02 -0.022 0.006
C12 0.035 0.016 0.043 -0.017 -0.023 0.01
C14 0.031 0.021 0.039 -0.014 -0.025 0.008
C15 0.021 0.019 0.039 -0.019 -0.018 0.009
C16 0.029 0.017 0.039 -0.015 -0.021 0.01
C17 0.028 0.018 0.03 -0.01 -0.017 0.008
C22 0.025 0.018 0.026 -0.011 -0.016 0.007
C23 0.033 0.02 0.023 -0.013 -0.016 0.009
C24 0.022 0.023 0.032 -0.015 -0.015 0.006
O25 0.022 0.033 0.065 -0.026 -0.021 0.0012
C42 0.023 0.02 0.026 -0.013 -0.01 0.006
C43 0.02 0.021 0.025 -0.012 -0.011 0.005
C44 0.02 0.022 0.019 -0.004 -0.007 0.001
C45 0.027 0.02 0.033 -0.014 -0.018 0.004
O40 0.022 0.033 0.065 -0.026 -0.021 0.0012
O6 0.078 0.03 0.036 -0.021 -0.036 0.022
O7 0.072 0.025 0.031 -0.018 -0.031 0.021
C5 0.059 0.021 0.028 -0.011 -0.023 0.012
C6 0.043 0.024 0.031 -0.014 -0.017 0.005
C7 0.049 0.023 0.023 -0.011 -0.018 0.005
O13 0.032 0.044 0.03 -0.02 -0.0116 0.016
C18 0.023 0.02 0.026 -0.013 -0.01 0.006
C19 0.02 0.021 0.025 -0.012 -0.011 0.005
C20 0.02 0.022 0.019 -0.004 -0.007 0.001
C21 0.027 0.02 0.033 -0.014 -0.018 0.004
O23 0.026 0.031 0.046 -0.022 -0.022 0.0158
O24 0.037 0.03 0.067 -0.034 -0.031 0.017
C33 0.028 0.017 0.023 -0.011 -0.015 0.01
C34 0.024 0.017 0.03 -0.012 -0.014 0.004
C35 0.028 0.021 0.046 -0.02 -0.022 0.006
C36 0.035 0.016 0.043 -0.017 -0.023 0.01
C38 0.031 0.021 0.039 -0.014 -0.025 0.008
C39 0.021 0.019 0.039 -0.019 -0.018 0.009
C40 0.029 0.017 0.039 -0.015 -0.021 0.01
C41 0.028 0.018 0.03 -0.01 -0.017 0.008
C46 0.025 0.018 0.026 -0.011 -0.016 0.007
C47 0.033 0.02 0.023 -0.013 -0.016 0.009
C48 0.022 0.023 0.032 -0.015 -0.015 0.006
O18 0.044 0.076 0.034 -0.028 -0.007 -0.008
O21 0.071 0.03 0.09 -0.037 -0.067 0.029
O22 0.047 0.022 0.065 -0.026 -0.039 0.01
C37 0.032 0.023 0.042 -0.016 -0.022 0.007
loop_
_geom_bond_atom_site_label_1
_geom_bond_atom_site_label_2
_geom_bond_site_symmetry_1
_geom_bond_site_symmetry_2
Eu2 O1 1_555 1_555
O1 H1 1_555 1_555
H2 O1 1_555 1_555
O8 C13 1_555 1_555
O9 Eu2 1_555 1_555
C13 O9 1_555 1_555
O16 Eu2 1_555 1_555
O17 Eu2 1_555 1_555
H14 C29 1_555 1_555
C30 C29 1_555 1_555
C31 O16 1_555 1_555
O27 Eu2 1_555 1_555
O33 Eu2 1_555 1_555
O35 Eu2 1_555 1_555
O38 Eu2 1_555 1_555
O42 Eu2 1_555 1_555
O17 C31 1_555 1_555
C30 C31 1_555 1_555
O14 C25 1_555 1_555
O15 C25 1_555 1_555
C25 C26 1_555 1_555
C26 C27 1_555 1_555
C27 H13 1_555 1_555
C32 C26 1_555 1_555
H15 C32 1_555 1_555
Eu5 O14 1_555 1_555
Eu11 O14 1_555 1_555
O15 Eu5 1_555 1_555
C27 C28 1_555 1_555
Eu5 O27 1_555 1_555
O27 C1 1_555 1_555
O3 Eu5 1_555 1_555
O4 Eu5 1_555 1_555
O5 C9 1_555 1_555
O38 C23 1_555 1_555
O11 H3 1_555 1_555
C1 O3 1_555 1_555
C2 C1 1_555 1_555
C3 C2 1_555 1_555
H4 C3 1_555 1_555
C4 C3 1_555 1_555
C8 C2 1_555 1_555
H6 C8 1_555 1_555
C9 O4 1_555 1_555
C10 C9 1_555 1_555
C11 C10 1_555 1_555
H7 C11 1_555 1_555
C12 C11 1_555 1_555
C14 C12 1_555 1_555
H8 C14 1_555 1_555
C15 C14 1_555 1_555
C16 C10 1_555 1_555
H9 C16 1_555 1_555
C17 C15 1_555 1_555
C23 O11 1_555 1_555
C24 C17 1_555 1_555
H12 C24 1_555 1_555
O25 Eu5 1_555 1_555
O42 C44 1_555 1_555
H22 C42 1_555 1_555
C43 C42 1_555 1_555
C44 O25 1_555 1_555
C45 C43 1_555 1_555
H23 C45 1_555 1_555
Eu11 O4 1_555 1_555
O33 Eu5 1_555 1_555
O40 Eu5 1_555 1_555
O5 Eu11 1_555 1_555
C15 C16 1_555 1_555
C22 C23 1_555 1_555
C22 C24 1_555 1_555
C43 C44 1_555 1_555
O6 C7 1_555 1_555
O7 C7 1_555 1_555
H5 C5 1_555 1_555
C6 C5 1_555 1_555
C7 C6 1_555 1_555
Eu11 O6 1_555 1_555
O7 Eu11 1_555 1_555
O40 C20 1_555 1_555
O13 C20 1_555 1_555
H10 C18 1_555 1_555
C19 C18 1_555 1_555
C20 C19 1_555 1_555
C21 C19 1_555 1_555
H11 C21 1_555 1_555
O33 C33 1_555 1_555
O35 C33 1_555 1_555
O23 C47 1_555 1_555
O24 H18 1_555 1_555
C33 C34 1_555 1_555
C34 C35 1_555 1_555
C35 H19 1_555 1_555
C36 C35 1_555 1_555
C38 C36 1_555 1_555
H20 C38 1_555 1_555
C39 C38 1_555 1_555
C40 C34 1_555 1_555
H21 C40 1_555 1_555
C41 C39 1_555 1_555
C47 O24 1_555 1_555
C48 C41 1_555 1_555
H24 C48 1_555 1_555
Eu11 O13 1_555 1_555
O23 Eu11 1_555 1_555
C39 C40 1_555 1_555
C46 C47 1_555 1_555
C46 C48 1_555 1_555
Eu11 O18 1_555 1_555
O18 H16 1_555 1_555
H17 O18 1_555 1_555
O21 C37 1_555 1_555
O22 Eu11 1_555 1_555
C37 O22 1_555 1_555

#END
