
###############################################################################
#
# This file contains modified crystal structure data generated from the
# MOF subset of the Cambridge Structural Database (CSD) v543 
# hosted by the Cambridge Crystallographic Data Centre (CCDC).
#
# This work is licensed under the Creative Commons
# Attribution-NonCommercial-ShareAlike 4.0 International License.
# To view a copy of this license, visit
# http://creativecommons.org/licenses/by-nc-sa/4.0/
# or send a letter to
# Creative Commons, PO Box 1866, Mountain View, CA 94042, USA.
#
# CIF created using the CSD Python API on 29 September 2022
# The structure has been converted into the P1 space group
# The structure has a 3D framework
# The original CSD entry YABYAD is in the monoclinic crystal system
# The framework has been calculated to contain at least 10.0% void space
# The void calculation uses a probe of radius 1.32A, grid spacing 0.4
#
###############################################################################

data_YABYAD
_chemical_formula_moiety         '(C152 H120 Co8 N24 O32)n'
_symmetry_cell_setting           triclinic
_symmetry_space_group_name_H-M   'P 1'
_symmetry_Int_Tables_number      1
_space_group_name_Hall           'P 1'
loop_
_symmetry_equiv_pos_site_id
_symmetry_equiv_pos_as_xyz
1 x,y,z
_cell_length_a                   15.7443(9)
_cell_length_b                   12.7077(7)
_cell_length_c                   21.1794(12)
_cell_angle_alpha                90
_cell_angle_beta                 103.9190(10)
_cell_angle_gamma                90
_cell_volume                     4113.02
loop_
_atom_site_label
_atom_site_type_symbol
_atom_site_fract_x
_atom_site_fract_y
_atom_site_fract_z
Co1 Co 0.14032(2) 0.25545(3) 0.032655(17)
O1 O 0.03619(13) 0.36748(16) 0.02859(11)
O2 O 0.03052(14) 0.22447(16) 0.08452(10)
O6 O 0.19056(12) 0.10797(14) 0.05960(9)
N4 N 0.22300(15) 0.32185(19) 0.11758(11)
N2 N 0.06487(15) 0.18499(18) 0.94559(11)
C3 C 0.0369(2) 0.2409(2) 0.89081(15)
H4 H 0.0556 0.3120 0.8906
C5 C 0.03848(18) 0.0842(2) 0.94351(14)
H6 H 0.0587 0.0421 0.9812
O5 O 0.19170(13) 0.35149(15) 0.97485(10)
O3 O 0.80830(13) 0.64851(15) 0.02515(10)
O4 O 0.69056(12) 0.60797(14) 0.05960(9)
C2 C 0.8525(2) 0.2677(2) 0.08350(15)
H3 H 0.8727 0.1975 0.0921
C4 C 0.87897(18) 0.4461(2) 0.05501(13)
H5 H 0.9159 0.4973 0.0426
C6 C 0.99686(18) 0.3100(2) 0.06026(14)
C9 C 0.7677(2) 0.2932(2) 0.08708(15)
C12 C 0.90802(18) 0.3424(2) 0.06767(14)
C15 C 0.74086(19) 0.3973(2) 0.07639(14)
H12 H 0.6839 0.4167 0.0799
C17 C 0.79557(18) 0.4736(2) 0.06069(13)
C18 C 0.76287(17) 0.5850(2) 0.04729(12)
C19 C 0.7063(2) 0.2101(3) 0.10029(19)
H13 H 0.7262 0.1859 0.1454
H14 H 0.7055 0.1507 0.0707
H15 H 0.6473 0.2396 0.0934
Co3 Co 0.64032(2) 0.75545(3) 0.032655(17)
N1 N 0.89971(17) 0.0500(2) 0.78022(12)
N3 N 0.72300(15) 0.17815(19) 0.61758(11)
C1 C 0.8089(2) 0.1983(3) 0.72695(15)
H2 H 0.8259 0.2420 0.7643
C7 C 0.7533(2) 0.0797(2) 0.61945(15)
H7 H 0.7329 0.0367 0.5822
C8 C 0.98392(18) 0.0383(2) 0.88997(14)
C10 C 0.7512(2) 0.2350(2) 0.67179(15)
H9 H 0.7301 0.3050 0.6722
C11 C 0.95353(18) 0.0981(2) 0.83371(14)
C13 C 0.8118(2) 0.0368(2) 0.67163(15)
C14 C 0.9827(2) 0.2015(2) 0.83487(14)
H11 H 0.9654 0.2447 0.7973
C16 C 0.84217(19) 0.0965(2) 0.72763(14)
Co2 Co 0.85968(2) 0.74455(3) 0.967345(17)
Co4 Co 0.64032(2) 0.24455(3) 0.532655(17)
O3_2 O 0.19170(13) 0.64851(15) 0.47485(10)
O4_2 O 0.30944(12) 0.60797(14) 0.44040(9)
N1_2 N 0.10029(17) 0.0500(2) 0.71978(12)
N3_2 N 0.27700(15) 0.17815(19) 0.88242(11)
C1_2 C 0.1911(2) 0.1983(3) 0.77305(15)
H2_2 H 0.1741 0.2420 0.7357
C2_2 C 0.1475(2) 0.2677(2) 0.41650(15)
H3_2 H 0.1273 0.1975 0.4079
C4_2 C 0.12103(18) 0.4461(2) 0.44499(13)
H5_2 H 0.0841 0.4973 0.4574
C6_2 C 0.00314(18) 0.3100(2) 0.43974(14)
C7_2 C 0.2467(2) 0.0797(2) 0.88055(15)
H7_2 H 0.2671 0.0367 0.9178
C8_2 C 0.01608(18) 0.0383(2) 0.61003(14)
C9_2 C 0.2323(2) 0.2932(2) 0.41292(15)
C10_2 C 0.2488(2) 0.2350(2) 0.82821(15)
H9_2 H 0.2699 0.3050 0.8278
C11_2 C 0.04647(18) 0.0981(2) 0.66629(14)
C12_2 C 0.09198(18) 0.3424(2) 0.43233(14)
C13_2 C 0.1882(2) 0.0368(2) 0.82837(15)
C14_2 C 0.0173(2) 0.2015(2) 0.66513(14)
H11_2 H 0.0346 0.2447 0.7027
C15_2 C 0.25914(19) 0.3973(2) 0.42361(14)
H12_2 H 0.3161 0.4167 0.4201
C16_2 C 0.15783(19) 0.0965(2) 0.77237(14)
C17_2 C 0.20443(18) 0.4736(2) 0.43931(13)
C18_2 C 0.23713(17) 0.5850(2) 0.45271(12)
C19_2 C 0.2937(2) 0.2101(3) 0.39971(19)
H13_2 H 0.2738 0.1859 0.3546
H14_2 H 0.2945 0.1507 0.4293
H15_2 H 0.3527 0.2396 0.4066
Co2_2 Co 0.14032(2) 0.74455(3) 0.532655(17)
Co3_2 Co 0.35968(2) 0.75545(3) 0.467345(17)
Co4_2 Co 0.35968(2) 0.24455(3) 0.967345(17)
Co1_2 Co 0.85968(2) 0.25545(3) 0.467345(17)
O1_2 O 0.96381(13) 0.36748(16) 0.47141(11)
O2_2 O 0.96948(14) 0.22447(16) 0.41548(10)
N2_2 N 0.93513(15) 0.18499(18) 0.55441(11)
C3_2 C 0.9631(2) 0.2409(2) 0.60919(15)
H4_2 H 0.9444 0.3120 0.6094
C5_2 C 0.96152(18) 0.0842(2) 0.55649(14)
H6_2 H 0.9413 0.0421 0.5188
O5_2 O 0.80830(13) 0.35149(15) 0.52515(10)
O6_2 O 0.80944(12) 0.10797(14) 0.44040(9)
N4_2 N 0.77700(15) 0.32185(19) 0.38242(11)
O3_3 O 0.30830(13) 0.14851(15) 0.02515(10)
C18_3 C 0.26287(17) 0.0850(2) 0.04729(12)
O1_3 O 0.53619(13) 0.86748(16) 0.02859(11)
O2_3 O 0.53052(14) 0.72447(16) 0.08452(10)
C2_3 C 0.3525(2) 0.7677(2) 0.08350(15)
H3_3 H 0.3727 0.6975 0.0921
C4_3 C 0.37897(18) 0.9461(2) 0.05501(13)
H5_3 H 0.4159 0.9973 0.0426
C6_3 C 0.49686(18) 0.8100(2) 0.06026(14)
C9_3 C 0.2677(2) 0.7932(2) 0.08708(15)
C12_3 C 0.40802(18) 0.8424(2) 0.06767(14)
C15_3 C 0.24086(19) 0.8973(2) 0.07639(14)
H12_3 H 0.1839 0.9167 0.0799
C17_3 C 0.29557(18) 0.9736(2) 0.06069(13)
C19_3 C 0.2063(2) 0.7101(3) 0.10029(19)
H13_3 H 0.2262 0.6859 0.1454
H14_3 H 0.2055 0.6507 0.0707
H15_3 H 0.1473 0.7396 0.0934
N4_3 N 0.72300(15) 0.82185(19) 0.11758(11)
N1_3 N 0.39971(17) 0.5500(2) 0.78022(12)
H1 H 0.398(2) 0.478(3) 0.7811(16)
N2_3 N 0.56487(15) 0.68499(18) 0.94559(11)
N3_3 N 0.22300(15) 0.67815(19) 0.61758(11)
C1_3 C 0.3089(2) 0.6983(3) 0.72695(15)
H2_3 H 0.3259 0.7420 0.7643
C3_3 C 0.5369(2) 0.7409(2) 0.89081(15)
H4_3 H 0.5556 0.8120 0.8906
C5_3 C 0.53848(18) 0.5842(2) 0.94351(14)
H6_3 H 0.5587 0.5421 0.9812
C7_3 C 0.2533(2) 0.5797(2) 0.61945(15)
H7_3 H 0.2329 0.5367 0.5822
C8_3 C 0.48392(18) 0.5383(2) 0.88997(14)
H8 H 0.4671 0.4667 0.8913
C10_3 C 0.2512(2) 0.7350(2) 0.67179(15)
H9_3 H 0.2301 0.8050 0.6722
C11_3 C 0.45353(18) 0.5981(2) 0.83371(14)
C13_3 C 0.3118(2) 0.5368(2) 0.67163(15)
H10 H 0.3316 0.4666 0.6696
C14_3 C 0.4827(2) 0.7015(2) 0.83487(14)
H11_3 H 0.4654 0.7447 0.7973
C16_3 C 0.34217(19) 0.5965(2) 0.72763(14)
O5_3 O 0.69170(13) 0.85149(15) 0.97485(10)
O3_4 O 0.69170(13) 0.14851(15) 0.47485(10)
C18_4 C 0.73713(17) 0.0850(2) 0.45271(12)
O1_4 O 0.46381(13) 0.86748(16) 0.47141(11)
O2_4 O 0.46948(14) 0.72447(16) 0.41548(10)
N1_4 N 0.60029(17) 0.5500(2) 0.71978(12)
H1_2 H 0.602(2) 0.478(3) 0.7189(16)
N2_4 N 0.43513(15) 0.68499(18) 0.55441(11)
N3_4 N 0.77700(15) 0.67815(19) 0.88242(11)
C1_4 C 0.6911(2) 0.6983(3) 0.77305(15)
H2_4 H 0.6741 0.7420 0.7357
C2_4 C 0.6475(2) 0.7677(2) 0.41650(15)
H3_4 H 0.6273 0.6975 0.4079
C3_4 C 0.4631(2) 0.7409(2) 0.60919(15)
H4_4 H 0.4444 0.8120 0.6094
C4_4 C 0.62103(18) 0.9461(2) 0.44499(13)
H5_4 H 0.5841 0.9973 0.4574
C5_4 C 0.46152(18) 0.5842(2) 0.55649(14)
H6_4 H 0.4413 0.5421 0.5188
C6_4 C 0.50314(18) 0.8100(2) 0.43974(14)
C7_4 C 0.7467(2) 0.5797(2) 0.88055(15)
H7_4 H 0.7671 0.5367 0.9178
C8_4 C 0.51608(18) 0.5383(2) 0.61003(14)
H8_2 H 0.5329 0.4667 0.6087
C9_4 C 0.7323(2) 0.7932(2) 0.41292(15)
C10_4 C 0.7488(2) 0.7350(2) 0.82821(15)
H9_4 H 0.7699 0.8050 0.8278
C11_4 C 0.54647(18) 0.5981(2) 0.66629(14)
C12_4 C 0.59198(18) 0.8424(2) 0.43233(14)
C13_4 C 0.6882(2) 0.5368(2) 0.82837(15)
H10_2 H 0.6684 0.4666 0.8304
C14_4 C 0.5173(2) 0.7015(2) 0.66513(14)
H11_4 H 0.5346 0.7447 0.7027
C15_4 C 0.75914(19) 0.8973(2) 0.42361(14)
H12_4 H 0.8161 0.9167 0.4201
C16_4 C 0.65783(19) 0.5965(2) 0.77237(14)
C17_4 C 0.70443(18) 0.9736(2) 0.43931(13)
C19_4 C 0.7937(2) 0.7101(3) 0.39971(19)
H13_4 H 0.7738 0.6859 0.3546
H14_4 H 0.7945 0.6507 0.4293
H15_4 H 0.8527 0.7396 0.4066
O5_4 O 0.30830(13) 0.85149(15) 0.52515(10)
N4_4 N 0.27700(15) 0.82185(19) 0.38242(11)
N1_5 N 0.10029(17) 0.9500(2) 0.21978(12)
C1_5 C 0.1911(2) 0.8017(3) 0.27305(15)
H2_5 H 0.1741 0.7580 0.2357
C7_5 C 0.2467(2) 0.9203(2) 0.38055(15)
H7_5 H 0.2671 0.9633 0.4178
C8_5 C 0.01608(18) 0.9617(2) 0.11003(14)
C10_5 C 0.2488(2) 0.7650(2) 0.32821(15)
H9_5 H 0.2699 0.6950 0.3278
C11_5 C 0.04647(18) 0.9019(2) 0.16629(14)
C13_5 C 0.1882(2) 0.9632(2) 0.32837(15)
C14_5 C 0.0173(2) 0.7985(2) 0.16513(14)
H11_5 H 0.0346 0.7553 0.2027
C16_5 C 0.15783(19) 0.9035(2) 0.27237(14)
O4_3 O 0.30944(12) 0.39203(14) 0.94040(9)
C2_5 C 0.1475(2) 0.7323(2) 0.91650(15)
H3_5 H 0.1273 0.8025 0.9079
C4_5 C 0.12103(18) 0.5539(2) 0.94499(13)
H5_5 H 0.0841 0.5027 0.9574
C6_5 C 0.00314(18) 0.6900(2) 0.93974(14)
C9_5 C 0.2323(2) 0.7068(2) 0.91292(15)
C12_5 C 0.09198(18) 0.6576(2) 0.93233(14)
C15_5 C 0.25914(19) 0.6027(2) 0.92361(14)
H12_5 H 0.3161 0.5833 0.9201
C17_5 C 0.20443(18) 0.5264(2) 0.93931(13)
C18_5 C 0.23713(17) 0.4150(2) 0.95271(12)
C19_5 C 0.2937(2) 0.7899(3) 0.89971(19)
H13_5 H 0.2738 0.8141 0.8546
H14_5 H 0.2945 0.8493 0.9293
H15_5 H 0.3527 0.7604 0.9066
N2_5 N 0.93513(15) 0.81501(18) 0.05441(11)
C3_5 C 0.9631(2) 0.7591(2) 0.10919(15)
H4_5 H 0.9444 0.6880 0.1094
C5_5 C 0.96152(18) 0.9158(2) 0.05649(14)
H6_5 H 0.9413 0.9579 0.0188
O1_5 O 0.96381(13) 0.63252(16) 0.97141(11)
O2_5 O 0.96948(14) 0.77553(16) 0.91548(10)
O6_3 O 0.80944(12) 0.89203(14) 0.94040(9)
O1_6 O 0.03619(13) 0.63252(16) 0.52859(11)
O2_6 O 0.03052(14) 0.77553(16) 0.58452(10)
N2_6 N 0.06487(15) 0.81501(18) 0.44559(11)
C3_6 C 0.0369(2) 0.7591(2) 0.39081(15)
H4_6 H 0.0556 0.6880 0.3906
C5_6 C 0.03848(18) 0.9158(2) 0.44351(14)
H6_6 H 0.0587 0.9579 0.4812
O6_4 O 0.19056(12) 0.89203(14) 0.55960(9)
O4_4 O 0.69056(12) 0.39203(14) 0.55960(9)
N1_6 N 0.89971(17) 0.9500(2) 0.28022(12)
C1_6 C 0.8089(2) 0.8017(3) 0.22695(15)
H2_6 H 0.8259 0.7580 0.2643
C2_6 C 0.8525(2) 0.7323(2) 0.58350(15)
H3_6 H 0.8727 0.8025 0.5921
C4_6 C 0.87897(18) 0.5539(2) 0.55501(13)
H5_6 H 0.9159 0.5027 0.5426
C6_6 C 0.99686(18) 0.6900(2) 0.56026(14)
C7_6 C 0.7533(2) 0.9203(2) 0.11945(15)
H7_6 H 0.7329 0.9633 0.0822
C8_6 C 0.98392(18) 0.9617(2) 0.38997(14)
C9_6 C 0.7677(2) 0.7068(2) 0.58708(15)
C10_6 C 0.7512(2) 0.7650(2) 0.17179(15)
H9_6 H 0.7301 0.6950 0.1722
C11_6 C 0.95353(18) 0.9019(2) 0.33371(14)
C12_6 C 0.90802(18) 0.6576(2) 0.56767(14)
C13_6 C 0.8118(2) 0.9632(2) 0.17163(15)
C14_6 C 0.9827(2) 0.7985(2) 0.33487(14)
H11_6 H 0.9654 0.7553 0.2973
C15_6 C 0.74086(19) 0.6027(2) 0.57639(14)
H12_6 H 0.6839 0.5833 0.5799
C16_6 C 0.84217(19) 0.9035(2) 0.22763(14)
C17_6 C 0.79557(18) 0.5264(2) 0.56069(13)
C18_6 C 0.76287(17) 0.4150(2) 0.54729(12)
C19_6 C 0.7063(2) 0.7899(3) 0.60029(19)
H13_6 H 0.7262 0.8141 0.6454
H14_6 H 0.7055 0.8493 0.5707
H15_6 H 0.6473 0.7604 0.5934
N1_7 N 0.60029(17) 0.4500(2) 0.21978(12)
H1_3 H 0.602(2) 0.522(3) 0.2189(16)
N2_7 N 0.43513(15) 0.31501(18) 0.05441(11)
C1_7 C 0.6911(2) 0.3017(3) 0.27305(15)
H2_7 H 0.6741 0.2580 0.2357
C3_7 C 0.4631(2) 0.2591(2) 0.10919(15)
H4_7 H 0.4444 0.1880 0.1094
C5_7 C 0.46152(18) 0.4158(2) 0.05649(14)
H6_7 H 0.4413 0.4579 0.0188
C7_7 C 0.7467(2) 0.4203(2) 0.38055(15)
H7_7 H 0.7671 0.4633 0.4178
C8_7 C 0.51608(18) 0.4617(2) 0.11003(14)
H8_3 H 0.5329 0.5333 0.1087
C10_7 C 0.7488(2) 0.2650(2) 0.32821(15)
H9_7 H 0.7699 0.1950 0.3278
C11_7 C 0.54647(18) 0.4019(2) 0.16629(14)
C13_7 C 0.6882(2) 0.4632(2) 0.32837(15)
H10_3 H 0.6684 0.5334 0.3304
C14_7 C 0.5173(2) 0.2985(2) 0.16513(14)
H11_7 H 0.5346 0.2553 0.2027
C16_7 C 0.65783(19) 0.4035(2) 0.27237(14)
O1_7 O 0.46381(13) 0.13252(16) 0.97141(11)
O2_7 O 0.46948(14) 0.27553(16) 0.91548(10)
C2_7 C 0.6475(2) 0.2323(2) 0.91650(15)
H3_7 H 0.6273 0.3025 0.9079
C4_7 C 0.62103(18) 0.0539(2) 0.94499(13)
H5_7 H 0.5841 0.0027 0.9574
C6_7 C 0.50314(18) 0.1900(2) 0.93974(14)
C9_7 C 0.7323(2) 0.2068(2) 0.91292(15)
C12_7 C 0.59198(18) 0.1576(2) 0.93233(14)
C15_7 C 0.75914(19) 0.1027(2) 0.92361(14)
H12_7 H 0.8161 0.0833 0.9201
C17_7 C 0.70443(18) 0.0264(2) 0.93931(13)
C19_7 C 0.7937(2) 0.2899(3) 0.89971(19)
H13_7 H 0.7738 0.3141 0.8546
H14_7 H 0.7945 0.3493 0.9293
H15_7 H 0.8527 0.2604 0.9066
C18_7 C 0.73713(17) 0.9150(2) 0.95271(12)
O1_8 O 0.53619(13) 0.13252(16) 0.52859(11)
O2_8 O 0.53052(14) 0.27553(16) 0.58452(10)
N1_8 N 0.39971(17) 0.4500(2) 0.28022(12)
H1_4 H 0.398(2) 0.522(3) 0.2811(16)
N2_8 N 0.56487(15) 0.31501(18) 0.44559(11)
C1_8 C 0.3089(2) 0.3017(3) 0.22695(15)
H2_8 H 0.3259 0.2580 0.2643
C2_8 C 0.3525(2) 0.2323(2) 0.58350(15)
H3_8 H 0.3727 0.3025 0.5921
C3_8 C 0.5369(2) 0.2591(2) 0.39081(15)
H4_8 H 0.5556 0.1880 0.3906
C4_8 C 0.37897(18) 0.0539(2) 0.55501(13)
H5_8 H 0.4159 0.0027 0.5426
C5_8 C 0.53848(18) 0.4158(2) 0.44351(14)
H6_8 H 0.5587 0.4579 0.4812
C6_8 C 0.49686(18) 0.1900(2) 0.56026(14)
C7_8 C 0.2533(2) 0.4203(2) 0.11945(15)
H7_8 H 0.2329 0.4633 0.0822
C8_8 C 0.48392(18) 0.4617(2) 0.38997(14)
H8_4 H 0.4671 0.5333 0.3913
C9_8 C 0.2677(2) 0.2068(2) 0.58708(15)
C10_8 C 0.2512(2) 0.2650(2) 0.17179(15)
H9_8 H 0.2301 0.1950 0.1722
C11_8 C 0.45353(18) 0.4019(2) 0.33371(14)
C12_8 C 0.40802(18) 0.1576(2) 0.56767(14)
C13_8 C 0.3118(2) 0.4632(2) 0.17163(15)
H10_4 H 0.3316 0.5334 0.1696
C14_8 C 0.4827(2) 0.2985(2) 0.33487(14)
H11_8 H 0.4654 0.2553 0.2973
C15_8 C 0.24086(19) 0.1027(2) 0.57639(14)
H12_8 H 0.1839 0.0833 0.5799
C16_8 C 0.34217(19) 0.4035(2) 0.22763(14)
C17_8 C 0.29557(18) 0.0264(2) 0.56069(13)
C19_8 C 0.2063(2) 0.2899(3) 0.60029(19)
H13_8 H 0.2262 0.3141 0.6454
H14_8 H 0.2055 0.3493 0.5707
H15_8 H 0.1473 0.2604 0.5934
C18_8 C 0.26287(17) 0.9150(2) 0.54729(12)
H1_5 H 0.898(2) 0.978(3) 0.7811(16)
H8_5 H 0.9671 0.9667 0.8913
H10_5 H 0.8316 0.9666 0.6696
H1_6 H 0.102(2) 0.978(3) 0.7189(16)
H8_6 H 0.0329 0.9667 0.6087
H10_6 H 0.1684 0.9666 0.8304
H1_7 H 0.102(2) 0.022(3) 0.2189(16)
H8_7 H 0.0329 0.0333 0.1087
H10_7 H 0.1684 0.0334 0.3304
H1_8 H 0.898(2) 0.022(3) 0.2811(16)
H8_8 H 0.9671 0.0333 0.3913
H10_8 H 0.8316 0.0334 0.1696
loop_
_geom_bond_atom_site_label_1
_geom_bond_atom_site_label_2
_geom_bond_site_symmetry_1
_geom_bond_site_symmetry_2
Co1 O1 1_555 1_555
O2 Co1 1_555 1_555
O6 Co1 1_555 1_555
N4 Co1 1_555 1_555
C3 N2 1_555 1_555
H4 C3 1_555 1_555
C5 N2 1_555 1_555
H6 C5 1_555 1_555
O3 C18 1_555 1_555
O4 C18 1_555 1_555
C2 H3 1_555 1_555
C4 H5 1_555 1_555
C9 C2 1_555 1_555
C12 C2 1_555 1_555
C15 C9 1_555 1_555
H12 C15 1_555 1_555
C17 C4 1_555 1_555
C18 C17 1_555 1_555
C19 C9 1_555 1_555
H13 C19 1_555 1_555
H14 C19 1_555 1_555
H15 C19 1_555 1_555
Co3 O4 1_555 1_555
C4 C12 1_555 1_555
C6 C12 1_555 1_555
C15 C17 1_555 1_555
N3 C7 1_555 1_555
C1 H2 1_555 1_555
C7 H7 1_555 1_555
C10 N3 1_555 1_555
H9 C10 1_555 1_555
C11 N1 1_555 1_555
C13 C7 1_555 1_555
H11 C14 1_555 1_555
C16 N1 1_555 1_555
Co4 N3 1_555 1_555
C1 C10 1_555 1_555
C1 C16 1_555 1_555
C8 C11 1_555 1_555
C11 C14 1_555 1_555
C13 C16 1_555 1_555
O3_2 C18_2 1_555 1_555
O4_2 C18_2 1_555 1_555
N3_2 C7_2 1_555 1_555
C1_2 H2_2 1_555 1_555
C2_2 H3_2 1_555 1_555
C4_2 H5_2 1_555 1_555
C7_2 H7_2 1_555 1_555
C9_2 C2_2 1_555 1_555
C10_2 N3_2 1_555 1_555
H9_2 C10_2 1_555 1_555
C11_2 N1_2 1_555 1_555
C12_2 C2_2 1_555 1_555
C13_2 C7_2 1_555 1_555
H11_2 C14_2 1_555 1_555
C15_2 C9_2 1_555 1_555
H12_2 C15_2 1_555 1_555
C16_2 N1_2 1_555 1_555
C17_2 C4_2 1_555 1_555
C18_2 C17_2 1_555 1_555
C19_2 C9_2 1_555 1_555
H13_2 C19_2 1_555 1_555
H14_2 C19_2 1_555 1_555
H15_2 C19_2 1_555 1_555
Co2_2 O3_2 1_555 1_555
Co3_2 O4_2 1_555 1_555
Co4_2 N3_2 1_555 1_555
C1_2 C10_2 1_555 1_555
C1_2 C16_2 1_555 1_555
C4_2 C12_2 1_555 1_555
C6_2 C12_2 1_555 1_555
C8_2 C11_2 1_555 1_555
C11_2 C14_2 1_555 1_555
C13_2 C16_2 1_555 1_555
C15_2 C17_2 1_555 1_555
Co1_2 O1_2 1_555 1_555
O2_2 Co1_2 1_555 1_555
N2_2 Co1_2 1_555 1_555
C3_2 N2_2 1_555 1_555
H4_2 C3_2 1_555 1_555
C5_2 N2_2 1_555 1_555
H6_2 C5_2 1_555 1_555
O5_2 Co1_2 1_555 1_555
O6_2 Co1_2 1_555 1_555
N4_2 Co1_2 1_555 1_555
O3_3 C18_3 1_555 1_555
O6 C18_3 1_555 1_555
Co3 O1_3 1_555 1_555
O1_3 C6_3 1_555 1_555
O2_3 Co3 1_555 1_555
C2_3 H3_3 1_555 1_555
C4_3 H5_3 1_555 1_555
C6_3 O2_3 1_555 1_555
C9_3 C2_3 1_555 1_555
C12_3 C2_3 1_555 1_555
C15_3 C9_3 1_555 1_555
H12_3 C15_3 1_555 1_555
C17_3 C4_3 1_555 1_555
C19_3 C9_3 1_555 1_555
H13_3 C19_3 1_555 1_555
H14_3 C19_3 1_555 1_555
H15_3 C19_3 1_555 1_555
N4_3 Co3 1_555 1_555
C4_3 C12_3 1_555 1_555
C6_3 C12_3 1_555 1_555
C15_3 C17_3 1_555 1_555
N1_3 H1 1_555 1_555
N3_3 C7_3 1_555 1_555
C1_3 H2_3 1_555 1_555
C3_3 N2_3 1_555 1_555
H4_3 C3_3 1_555 1_555
C5_3 N2_3 1_555 1_555
H6_3 C5_3 1_555 1_555
C7_3 H7_3 1_555 1_555
C8_3 C5_3 1_555 1_555
H8 C8_3 1_555 1_555
C10_3 N3_3 1_555 1_555
H9_3 C10_3 1_555 1_555
C11_3 N1_3 1_555 1_555
C13_3 C7_3 1_555 1_555
H10 C13_3 1_555 1_555
C14_3 C3_3 1_555 1_555
H11_3 C14_3 1_555 1_555
C16_3 N1_3 1_555 1_555
Co2_2 N3_3 1_555 1_555
C1_3 C10_3 1_555 1_555
C1_3 C16_3 1_555 1_555
C8_3 C11_3 1_555 1_555
C11_3 C14_3 1_555 1_555
C13_3 C16_3 1_555 1_555
O3_4 C18_4 1_555 1_555
O6_2 C18_4 1_555 1_555
Co4 O3_4 1_555 1_555
Co3_2 O1_4 1_555 1_555
O1_4 C6_4 1_555 1_555
O2_4 Co3_2 1_555 1_555
N1_4 H1_2 1_555 1_555
N2_4 Co3_2 1_555 1_555
N3_4 C7_4 1_555 1_555
C1_4 H2_4 1_555 1_555
C2_4 H3_4 1_555 1_555
C3_4 N2_4 1_555 1_555
H4_4 C3_4 1_555 1_555
C4_4 H5_4 1_555 1_555
C5_4 N2_4 1_555 1_555
H6_4 C5_4 1_555 1_555
C6_4 O2_4 1_555 1_555
C7_4 H7_4 1_555 1_555
C8_4 C5_4 1_555 1_555
H8_2 C8_4 1_555 1_555
C9_4 C2_4 1_555 1_555
C10_4 N3_4 1_555 1_555
H9_4 C10_4 1_555 1_555
C11_4 N1_4 1_555 1_555
C12_4 C2_4 1_555 1_555
C13_4 C7_4 1_555 1_555
H10_2 C13_4 1_555 1_555
C14_4 C3_4 1_555 1_555
H11_4 C14_4 1_555 1_555
C15_4 C9_4 1_555 1_555
H12_4 C15_4 1_555 1_555
C16_4 N1_4 1_555 1_555
C17_4 C4_4 1_555 1_555
C19_4 C9_4 1_555 1_555
H13_4 C19_4 1_555 1_555
H14_4 C19_4 1_555 1_555
H15_4 C19_4 1_555 1_555
Co2 N3_4 1_555 1_555
O5_4 Co3_2 1_555 1_555
N4_4 Co3_2 1_555 1_555
C1_4 C10_4 1_555 1_555
C1_4 C16_4 1_555 1_555
C4_4 C12_4 1_555 1_555
C6_4 C12_4 1_555 1_555
C8_4 C11_4 1_555 1_555
C11_4 C14_4 1_555 1_555
C13_4 C16_4 1_555 1_555
C15_4 C17_4 1_555 1_555
N4_4 C7_5 1_555 1_555
C1_5 H2_5 1_555 1_555
C7_5 H7_5 1_555 1_555
C10_5 N4_4 1_555 1_555
H9_5 C10_5 1_555 1_555
C11_5 N1_5 1_555 1_555
C13_5 C7_5 1_555 1_555
H11_5 C14_5 1_555 1_555
C16_5 N1_5 1_555 1_555
C1_5 C10_5 1_555 1_555
C1_5 C16_5 1_555 1_555
C8_5 C11_5 1_555 1_555
C11_5 C14_5 1_555 1_555
C13_5 C16_5 1_555 1_555
O5 C18_5 1_555 1_555
O4_3 C18_5 1_555 1_555
C2_5 H3_5 1_555 1_555
C4_5 H5_5 1_555 1_555
C9_5 C2_5 1_555 1_555
C12_5 C2_5 1_555 1_555
C15_5 C9_5 1_555 1_555
H12_5 C15_5 1_555 1_555
C17_5 C4_5 1_555 1_555
C18_5 C17_5 1_555 1_555
C19_5 C9_5 1_555 1_555
H13_5 C19_5 1_555 1_555
H14_5 C19_5 1_555 1_555
H15_5 C19_5 1_555 1_555
Co4_2 O4_3 1_555 1_555
C4_5 C12_5 1_555 1_555
C6_5 C12_5 1_555 1_555
C15_5 C17_5 1_555 1_555
C3_5 N2_5 1_555 1_555
H4_5 C3_5 1_555 1_555
C5_5 N2_5 1_555 1_555
H6_5 C5_5 1_555 1_555
Co2 O1_5 1_555 1_555
O2_5 Co2 1_555 1_555
O6_3 Co2 1_555 1_555
Co2_2 O1_6 1_555 1_555
O2_6 Co2_2 1_555 1_555
N2_6 Co2_2 1_555 1_555
C3_6 N2_6 1_555 1_555
H4_6 C3_6 1_555 1_555
C5_6 N2_6 1_555 1_555
H6_6 C5_6 1_555 1_555
O6_4 Co2_2 1_555 1_555
O5_2 C18_6 1_555 1_555
O4_4 C18_6 1_555 1_555
N4_3 C7_6 1_555 1_555
C1_6 H2_6 1_555 1_555
C2_6 H3_6 1_555 1_555
C4_6 H5_6 1_555 1_555
C7_6 H7_6 1_555 1_555
C9_6 C2_6 1_555 1_555
C10_6 N4_3 1_555 1_555
H9_6 C10_6 1_555 1_555
C11_6 N1_6 1_555 1_555
C12_6 C2_6 1_555 1_555
C13_6 C7_6 1_555 1_555
H11_6 C14_6 1_555 1_555
C15_6 C9_6 1_555 1_555
H12_6 C15_6 1_555 1_555
C16_6 N1_6 1_555 1_555
C17_6 C4_6 1_555 1_555
C18_6 C17_6 1_555 1_555
C19_6 C9_6 1_555 1_555
H13_6 C19_6 1_555 1_555
H14_6 C19_6 1_555 1_555
H15_6 C19_6 1_555 1_555
Co4 O4_4 1_555 1_555
C1_6 C10_6 1_555 1_555
C1_6 C16_6 1_555 1_555
C4_6 C12_6 1_555 1_555
C6_6 C12_6 1_555 1_555
C8_6 C11_6 1_555 1_555
C11_6 C14_6 1_555 1_555
C13_6 C16_6 1_555 1_555
C15_6 C17_6 1_555 1_555
N1_7 H1_3 1_555 1_555
N4_2 C7_7 1_555 1_555
C1_7 H2_7 1_555 1_555
C3_7 N2_7 1_555 1_555
H4_7 C3_7 1_555 1_555
C5_7 N2_7 1_555 1_555
H6_7 C5_7 1_555 1_555
C7_7 H7_7 1_555 1_555
C8_7 C5_7 1_555 1_555
H8_3 C8_7 1_555 1_555
C10_7 N4_2 1_555 1_555
H9_7 C10_7 1_555 1_555
C11_7 N1_7 1_555 1_555
C13_7 C7_7 1_555 1_555
H10_3 C13_7 1_555 1_555
C14_7 C3_7 1_555 1_555
H11_7 C14_7 1_555 1_555
C16_7 N1_7 1_555 1_555
C1_7 C10_7 1_555 1_555
C1_7 C16_7 1_555 1_555
C8_7 C11_7 1_555 1_555
C11_7 C14_7 1_555 1_555
C13_7 C16_7 1_555 1_555
Co4_2 O1_7 1_555 1_555
O1_7 C6_7 1_555 1_555
O2_7 Co4_2 1_555 1_555
C2_7 H3_7 1_555 1_555
C4_7 H5_7 1_555 1_555
C6_7 O2_7 1_555 1_555
C9_7 C2_7 1_555 1_555
C12_7 C2_7 1_555 1_555
C15_7 C9_7 1_555 1_555
H12_7 C15_7 1_555 1_555
C17_7 C4_7 1_555 1_555
C19_7 C9_7 1_555 1_555
H13_7 C19_7 1_555 1_555
H14_7 C19_7 1_555 1_555
H15_7 C19_7 1_555 1_555
C4_7 C12_7 1_555 1_555
C6_7 C12_7 1_555 1_555
C15_7 C17_7 1_555 1_555
O5_3 C18_7 1_555 1_555
O6_3 C18_7 1_555 1_555
Co4 O1_8 1_555 1_555
O1_8 C6_8 1_555 1_555
O2_8 Co4 1_555 1_555
N1_8 H1_4 1_555 1_555
N2_8 Co4 1_555 1_555
N4 C7_8 1_555 1_555
C1_8 H2_8 1_555 1_555
C2_8 H3_8 1_555 1_555
C3_8 N2_8 1_555 1_555
H4_8 C3_8 1_555 1_555
C4_8 H5_8 1_555 1_555
C5_8 N2_8 1_555 1_555
H6_8 C5_8 1_555 1_555
C6_8 O2_8 1_555 1_555
C7_8 H7_8 1_555 1_555
C8_8 C5_8 1_555 1_555
H8_4 C8_8 1_555 1_555
C9_8 C2_8 1_555 1_555
C10_8 N4 1_555 1_555
H9_8 C10_8 1_555 1_555
C11_8 N1_8 1_555 1_555
C12_8 C2_8 1_555 1_555
C13_8 C7_8 1_555 1_555
H10_4 C13_8 1_555 1_555
C14_8 C3_8 1_555 1_555
H11_8 C14_8 1_555 1_555
C15_8 C9_8 1_555 1_555
H12_8 C15_8 1_555 1_555
C16_8 N1_8 1_555 1_555
C17_8 C4_8 1_555 1_555
C19_8 C9_8 1_555 1_555
H13_8 C19_8 1_555 1_555
H14_8 C19_8 1_555 1_555
H15_8 C19_8 1_555 1_555
C1_8 C10_8 1_555 1_555
C1_8 C16_8 1_555 1_555
C4_8 C12_8 1_555 1_555
C6_8 C12_8 1_555 1_555
C8_8 C11_8 1_555 1_555
C11_8 C14_8 1_555 1_555
C13_8 C16_8 1_555 1_555
C15_8 C17_8 1_555 1_555
O5_4 C18_8 1_555 1_555
O6_4 C18_8 1_555 1_555

#END
