
###############################################################################
#
# This file contains modified crystal structure data generated from the
# MOF subset of the Cambridge Structural Database (CSD) v543 
# hosted by the Cambridge Crystallographic Data Centre (CCDC).
#
# This work is licensed under the Creative Commons
# Attribution-NonCommercial-ShareAlike 4.0 International License.
# To view a copy of this license, visit
# http://creativecommons.org/licenses/by-nc-sa/4.0/
# or send a letter to
# Creative Commons, PO Box 1866, Mountain View, CA 94042, USA.
#
# CIF created using the CSD Python API on 29 September 2022
# The structure has been converted into the P1 space group
# The structure has a 3D framework
# The original CSD entry YAFMIF is in the orthorhombic crystal system
# The framework has been calculated to contain at least 10.0% void space
# The void calculation uses a probe of radius 1.32A, grid spacing 0.4
# The framework is charged, counterions have been retained in the structure
# H atom positions have been added when not included in the experimental data
#
###############################################################################

data_YAFMIF
_chemical_formula_moiety         '(C192 H144 Cd8 K8 N8 O58)n'
_symmetry_cell_setting           triclinic
_symmetry_space_group_name_H-M   'P 1'
_symmetry_Int_Tables_number      1
_space_group_name_Hall           'P 1'
loop_
_symmetry_equiv_pos_site_id
_symmetry_equiv_pos_as_xyz
1 x,y,z
_cell_length_a                   18.4177(17)
_cell_length_b                   14.0743(13)
_cell_length_c                   18.9916(17)
_cell_angle_alpha                90
_cell_angle_beta                 90
_cell_angle_gamma                90
_cell_volume                     4922.93
loop_
_atom_site_label
_atom_site_type_symbol
_atom_site_fract_x
_atom_site_fract_y
_atom_site_fract_z
O1 O 0.27000(16) 0.06739(18) 0.09584(15)
O10 O 0.31668(15) 0.02047(18) 0.51159(13)
Cd3 Cd 0.27784(2) 0.12686(2) 0.97112(2)
Cd1 Cd 0.27784(2) 0.87314(2) 0.47112(2)
O2 O 0.31668(15) 0.97953(18) 0.01159(13)
O3 O 0.32532(19) 0.9528(3) 0.34919(15)
O4 O 0.28454(17) 0.8079(2) 0.35945(14)
O5 O 0.68404(14) 0.27242(19) 0.48860(14)
O6 O 0.58960(17) 0.1787(2) 0.5036(2)
O7 O 0.34356(15) 0.3070(2) 0.46048(17)
O8 O 0.32914(13) 0.45914(19) 0.44112(15)
C1 C 0.3113(2) 0.8743(3) 0.32405(19)
C2 C 0.32470(19) 0.8558(2) 0.24653(18)
C3 C 0.30835(19) 0.9276(2) 0.19883(17)
H1 H 0.293548 0.986619 0.215597
C4 C 0.31365(18) 0.9131(2) 0.12651(17)
C5 C 0.3348(2) 0.8244(2) 0.10180(17)
H2 H 0.337482 0.813230 0.053600
C6 C 0.3518(2) 0.7526(2) 0.14873(17)
H3 H 0.365553 0.693473 0.131463
C7 C 0.34869(18) 0.7668(2) 0.22130(17)
C8 C 0.29895(19) 0.9924(2) 0.07520(17)
C9 C 0.37662(18) 0.6907(2) 0.26870(16)
C10 C 0.4279(2) 0.7127(2) 0.32004(18)
H4 H 0.441762 0.775599 0.326967
C11 C 0.45875(19) 0.6410(2) 0.36118(18)
H5 H 0.492812 0.656909 0.395360
C12 C 0.43940(17) 0.5459(2) 0.35196(17)
C13 C 0.38719(18) 0.5242(2) 0.30084(18)
H6 H 0.372824 0.461475 0.294407
C14 C 0.35643(19) 0.5955(2) 0.25941(18)
H7 H 0.322232 0.579739 0.225330
C15 C 0.47970(17) 0.4716(2) 0.39168(17)
C16 C 0.55589(18) 0.4774(3) 0.3886(2)
H8 H 0.577186 0.527873 0.364713
C17 C 0.60032(18) 0.4099(3) 0.4203(2)
H9 H 0.650509 0.417082 0.419526
C18 C 0.56914(18) 0.3316(2) 0.45332(19)
C19 C 0.49389(18) 0.3255(2) 0.45753(18)
H10 H 0.473060 0.273445 0.479947
C20 C 0.44870(17) 0.3954(2) 0.42901(17)
C21 C 0.36811(18) 0.3874(3) 0.44368(18)
C22 C 0.61664(19) 0.2550(3) 0.48426(19)
Cd2 Cd 0.72216(2) 0.12686(2) 0.52888(2)
Cd4 Cd 0.22216(2) 0.37314(2) 0.47112(2)
O9 O 0.27000(16) 0.93261(18) 0.59584(15)
O11 O 0.31596(14) 0.72758(19) 0.51140(14)
O12 O 0.41040(17) 0.8213(2) 0.4964(2)
O13 O 0.15644(15) 0.8070(2) 0.46048(17)
O14 O 0.17086(13) 0.95914(19) 0.44112(15)
O7_2 O 0.15644(15) 0.1930(2) 0.96048(17)
O8_2 O 0.17086(13) 0.04086(19) 0.94112(15)
H6_2 H 0.127176 0.038525 0.794407
C15_2 C 0.02030(17) 0.0284(2) 0.89168(17)
C19_2 C 0.00611(18) 0.1745(2) 0.95753(18)
H10_2 H 0.026940 0.226555 0.979947
C20_2 C 0.05130(17) 0.1046(2) 0.92901(17)
C21_2 C 0.13189(18) 0.1126(3) 0.94368(18)
O9_2 O 0.23000(16) 0.56739(18) 0.09584(15)
O10_2 O 0.18332(15) 0.47953(18) 0.01159(13)
O11_2 O 0.18404(14) 0.77242(19) 0.01140(14)
Cd1_2 Cd 0.22216(2) 0.62686(2) 0.97112(2)
O1_2 O 0.23000(16) 0.43261(18) 0.59584(15)
O2_2 O 0.18332(15) 0.52047(18) 0.51159(13)
O3_2 O 0.17468(19) 0.5472(3) 0.84919(15)
O4_2 O 0.21546(17) 0.6921(2) 0.85945(14)
C1_2 C 0.1887(2) 0.6257(3) 0.82405(19)
C2_2 C 0.17530(19) 0.6442(2) 0.74653(18)
C3_2 C 0.19165(19) 0.5724(2) 0.69883(17)
H1_2 H 0.206452 0.513381 0.715597
C4_2 C 0.18635(18) 0.5869(2) 0.62651(17)
C5_2 C 0.1652(2) 0.6756(2) 0.60180(17)
H2_2 H 0.162518 0.686770 0.553600
C6_2 C 0.1482(2) 0.7474(2) 0.64873(17)
H3_2 H 0.134447 0.806527 0.631463
C7_2 C 0.15131(18) 0.7332(2) 0.72130(17)
C8_2 C 0.20105(19) 0.5076(2) 0.57520(17)
C9_2 C 0.12338(18) 0.8093(2) 0.76870(16)
C10_2 C 0.0721(2) 0.7873(2) 0.82004(18)
H4_2 H 0.058238 0.724401 0.826967
C11_2 C 0.04125(19) 0.8590(2) 0.86118(18)
H5_2 H 0.007188 0.843091 0.895360
C12_2 C 0.06060(17) 0.9541(2) 0.85196(17)
C13_2 C 0.11281(18) 0.9758(2) 0.80084(18)
C14_2 C 0.14357(19) 0.9045(2) 0.75941(18)
H7_2 H 0.177768 0.920261 0.725330
O12_2 O 0.08960(17) 0.6787(2) 0.9964(2)
O13_2 O 0.34356(15) 0.6930(2) 0.96048(17)
O14_2 O 0.32914(13) 0.54086(19) 0.94112(15)
O6_2 O 0.91040(17) 0.3213(2) 0.0036(2)
Cd2_2 Cd 0.77784(2) 0.37314(2) 0.02888(2)
O5_2 O 0.81596(14) 0.22758(19) 0.98860(14)
C16_2 C 0.94411(18) 0.0226(3) 0.8886(2)
C17_2 C 0.89968(18) 0.0901(3) 0.9203(2)
H9_2 H 0.849491 0.082918 0.919526
C18_2 C 0.93086(18) 0.1684(2) 0.95332(19)
C22_2 C 0.88336(19) 0.2450(3) 0.98426(19)
O1_3 O 0.73000(16) 0.06739(18) 0.40416(15)
O10_3 O 0.68332(15) 0.02047(18) 0.98841(13)
Cd1_3 Cd 0.72216(2) 0.87314(2) 0.02888(2)
O2_3 O 0.68332(15) 0.97953(18) 0.48841(13)
O3_3 O 0.67468(19) 0.9528(3) 0.15081(15)
O4_3 O 0.71546(17) 0.8079(2) 0.14055(14)
O5_3 O 0.31596(14) 0.27242(19) 0.01140(14)
O7_3 O 0.65644(15) 0.3070(2) 0.03952(17)
O8_3 O 0.67086(13) 0.45914(19) 0.05888(15)
C1_3 C 0.6887(2) 0.8743(3) 0.17595(19)
C2_3 C 0.67530(19) 0.8558(2) 0.25347(18)
C3_3 C 0.69165(19) 0.9276(2) 0.30117(17)
H1_3 H 0.706452 0.986619 0.284403
C4_3 C 0.68635(18) 0.9131(2) 0.37349(17)
C5_3 C 0.6652(2) 0.8244(2) 0.39820(17)
H2_3 H 0.662518 0.813230 0.446400
C6_3 C 0.6482(2) 0.7526(2) 0.35127(17)
H3_3 H 0.634447 0.693473 0.368537
C7_3 C 0.65131(18) 0.7668(2) 0.27870(17)
C8_3 C 0.70105(19) 0.9924(2) 0.42480(17)
C9_3 C 0.62338(18) 0.6907(2) 0.23130(16)
C10_3 C 0.5721(2) 0.7127(2) 0.17996(18)
H4_3 H 0.558238 0.775599 0.173033
C11_3 C 0.54125(19) 0.6410(2) 0.13882(18)
H5_3 H 0.507188 0.656909 0.104640
C12_3 C 0.56060(17) 0.5459(2) 0.14804(17)
C13_3 C 0.61281(18) 0.5242(2) 0.19916(18)
H6_3 H 0.627176 0.461475 0.205593
C14_3 C 0.64357(19) 0.5955(2) 0.24059(18)
H7_3 H 0.677768 0.579739 0.274670
C15_3 C 0.52030(17) 0.4716(2) 0.10832(17)
C16_3 C 0.44411(18) 0.4774(3) 0.1114(2)
H8_2 H 0.422814 0.527873 0.135287
C17_3 C 0.39968(18) 0.4099(3) 0.0797(2)
H9_3 H 0.349491 0.417082 0.080474
C18_3 C 0.43086(18) 0.3316(2) 0.04668(19)
C19_3 C 0.50611(18) 0.3255(2) 0.04247(18)
H10_3 H 0.526940 0.273445 0.020053
C20_3 C 0.55130(17) 0.3954(2) 0.07099(17)
C21_3 C 0.63189(18) 0.3874(3) 0.05632(18)
C22_3 C 0.38336(19) 0.2550(3) 0.01574(19)
O12_3 O 0.58960(17) 0.8213(2) 0.0036(2)
O13_3 O 0.84356(15) 0.8070(2) 0.03952(17)
O14_3 O 0.82914(13) 0.95914(19) 0.05888(15)
O6_3 O 0.41040(17) 0.1787(2) 0.9964(2)
O9_3 O 0.73000(16) 0.93261(18) 0.90416(15)
O11_3 O 0.68404(14) 0.72758(19) 0.98860(14)
O5_4 O 0.18404(14) 0.22758(19) 0.51140(14)
O6_4 O 0.08960(17) 0.3213(2) 0.4964(2)
C16_4 C 0.05589(18) 0.0226(3) 0.6114(2)
C17_4 C 0.10032(18) 0.0901(3) 0.5797(2)
H9_4 H 0.150509 0.082918 0.580474
C18_4 C 0.06914(18) 0.1684(2) 0.54668(19)
C22_4 C 0.11664(19) 0.2450(3) 0.51574(19)
O7_4 O 0.84356(15) 0.1930(2) 0.53952(17)
O8_4 O 0.82914(13) 0.04086(19) 0.55888(15)
H6_4 H 0.872824 0.038525 0.705593
C15_4 C 0.97970(17) 0.0284(2) 0.60832(17)
C19_4 C 0.99389(18) 0.1745(2) 0.54247(18)
H10_4 H 0.973060 0.226555 0.520053
C20_4 C 0.94870(17) 0.1046(2) 0.57099(17)
C21_4 C 0.86811(18) 0.1126(3) 0.55632(18)
Cd1_4 Cd 0.77784(2) 0.62686(2) 0.52888(2)
O1_4 O 0.77000(16) 0.43261(18) 0.90416(15)
O2_4 O 0.81668(15) 0.52047(18) 0.98841(13)
O3_4 O 0.82532(19) 0.5472(3) 0.65081(15)
O4_4 O 0.78454(17) 0.6921(2) 0.64055(14)
C1_4 C 0.8113(2) 0.6257(3) 0.67595(19)
C2_4 C 0.82470(19) 0.6442(2) 0.75347(18)
C3_4 C 0.80835(19) 0.5724(2) 0.80117(17)
H1_4 H 0.793548 0.513381 0.784403
C4_4 C 0.81365(18) 0.5869(2) 0.87349(17)
C5_4 C 0.8348(2) 0.6756(2) 0.89820(17)
H2_4 H 0.837482 0.686770 0.946400
C6_4 C 0.8518(2) 0.7474(2) 0.85127(17)
H3_4 H 0.865553 0.806527 0.868537
C7_4 C 0.84869(18) 0.7332(2) 0.77870(17)
C8_4 C 0.79895(19) 0.5076(2) 0.92480(17)
C9_4 C 0.87662(18) 0.8093(2) 0.73130(16)
C10_4 C 0.9279(2) 0.7873(2) 0.67996(18)
H4_4 H 0.941762 0.724401 0.673033
C11_4 C 0.95875(19) 0.8590(2) 0.63882(18)
H5_4 H 0.992812 0.843091 0.604640
C12_4 C 0.93940(17) 0.9541(2) 0.64804(17)
C13_4 C 0.88719(18) 0.9758(2) 0.69916(18)
C14_4 C 0.85643(19) 0.9045(2) 0.74059(18)
H7_4 H 0.822232 0.920261 0.774670
O9_4 O 0.77000(16) 0.56739(18) 0.40416(15)
O10_4 O 0.81668(15) 0.47953(18) 0.48841(13)
O11_4 O 0.81596(14) 0.77242(19) 0.48860(14)
O12_4 O 0.91040(17) 0.6787(2) 0.5036(2)
O13_4 O 0.65644(15) 0.6930(2) 0.53952(17)
O14_4 O 0.67086(13) 0.54086(19) 0.55888(15)
O3_5 O 0.67468(19) 0.0472(3) 0.65081(15)
O4_5 O 0.71546(17) 0.1921(2) 0.64055(14)
C1_5 C 0.6887(2) 0.1257(3) 0.67595(19)
C2_5 C 0.67530(19) 0.1442(2) 0.75347(18)
C3_5 C 0.69165(19) 0.0724(2) 0.80117(17)
H1_5 H 0.706452 0.013381 0.784403
C4_5 C 0.68635(18) 0.0869(2) 0.87349(17)
C5_5 C 0.6652(2) 0.1756(2) 0.89820(17)
H2_5 H 0.662518 0.186770 0.946400
C6_5 C 0.6482(2) 0.2474(2) 0.85127(17)
H3_5 H 0.634447 0.306527 0.868537
C7_5 C 0.65131(18) 0.2332(2) 0.77870(17)
C8_5 C 0.70105(19) 0.0076(2) 0.92480(17)
C9_5 C 0.62338(18) 0.3093(2) 0.73130(16)
C10_5 C 0.5721(2) 0.2873(2) 0.67996(18)
H4_5 H 0.558238 0.224401 0.673033
C11_5 C 0.54125(19) 0.3590(2) 0.63882(18)
H5_5 H 0.507188 0.343091 0.604640
C12_5 C 0.56060(17) 0.4541(2) 0.64804(17)
C13_5 C 0.61281(18) 0.4758(2) 0.69916(18)
H6_5 H 0.627176 0.538525 0.705593
C14_5 C 0.64357(19) 0.4045(2) 0.74059(18)
H7_5 H 0.677768 0.420261 0.774670
C15_5 C 0.52030(17) 0.5284(2) 0.60832(17)
C16_5 C 0.44411(18) 0.5226(3) 0.6114(2)
H8_3 H 0.422814 0.472127 0.635287
C17_5 C 0.39968(18) 0.5901(3) 0.5797(2)
H9_5 H 0.349491 0.582918 0.580474
C18_5 C 0.43086(18) 0.6684(2) 0.54668(19)
C19_5 C 0.50611(18) 0.6745(2) 0.54247(18)
H10_5 H 0.526940 0.726555 0.520053
C20_5 C 0.55130(17) 0.6046(2) 0.57099(17)
C21_5 C 0.63189(18) 0.6126(3) 0.55632(18)
C22_5 C 0.38336(19) 0.7450(3) 0.51574(19)
C16_6 C 0.05589(18) 0.9774(3) 0.1114(2)
C17_6 C 0.10032(18) 0.9099(3) 0.0797(2)
H9_6 H 0.150509 0.917082 0.080474
C18_6 C 0.06914(18) 0.8316(2) 0.04668(19)
C22_6 C 0.11664(19) 0.7550(3) 0.01574(19)
O3_6 O 0.82532(19) 0.4528(3) 0.15081(15)
O4_6 O 0.78454(17) 0.3079(2) 0.14055(14)
C1_6 C 0.8113(2) 0.3743(3) 0.17595(19)
C2_6 C 0.82470(19) 0.3558(2) 0.25347(18)
C3_6 C 0.80835(19) 0.4276(2) 0.30117(17)
H1_6 H 0.793548 0.486619 0.284403
C4_6 C 0.81365(18) 0.4131(2) 0.37349(17)
C5_6 C 0.8348(2) 0.3244(2) 0.39820(17)
H2_6 H 0.837482 0.313230 0.446400
C6_6 C 0.8518(2) 0.2526(2) 0.35127(17)
H3_6 H 0.865553 0.193473 0.368537
C7_6 C 0.84869(18) 0.2668(2) 0.27870(17)
C8_6 C 0.79895(19) 0.4924(2) 0.42480(17)
C9_6 C 0.87662(18) 0.1907(2) 0.23130(16)
C10_6 C 0.9279(2) 0.2127(2) 0.17996(18)
H4_6 H 0.941762 0.275599 0.173033
C11_6 C 0.95875(19) 0.1410(2) 0.13882(18)
H5_6 H 0.992812 0.156909 0.104640
C12_6 C 0.93940(17) 0.0459(2) 0.14804(17)
C13_6 C 0.88719(18) 0.0242(2) 0.19916(18)
C14_6 C 0.85643(19) 0.0955(2) 0.24059(18)
H7_6 H 0.822232 0.079739 0.274670
H6_6 H 0.872824 0.961475 0.205593
C15_6 C 0.97970(17) 0.9716(2) 0.10832(17)
C19_6 C 0.99389(18) 0.8255(2) 0.04247(18)
H10_6 H 0.973060 0.773445 0.020053
C20_6 C 0.94870(17) 0.8954(2) 0.07099(17)
C21_6 C 0.86811(18) 0.8874(3) 0.05632(18)
O3_7 O 0.32532(19) 0.0472(3) 0.84919(15)
O4_7 O 0.28454(17) 0.1921(2) 0.85945(14)
C1_7 C 0.3113(2) 0.1257(3) 0.82405(19)
C2_7 C 0.32470(19) 0.1442(2) 0.74653(18)
C3_7 C 0.30835(19) 0.0724(2) 0.69883(17)
H1_7 H 0.293548 0.013381 0.715597
C4_7 C 0.31365(18) 0.0869(2) 0.62651(17)
C5_7 C 0.3348(2) 0.1756(2) 0.60180(17)
H2_7 H 0.337482 0.186770 0.553600
C6_7 C 0.3518(2) 0.2474(2) 0.64873(17)
H3_7 H 0.365553 0.306527 0.631463
C7_7 C 0.34869(18) 0.2332(2) 0.72130(17)
C8_7 C 0.29895(19) 0.0076(2) 0.57520(17)
C9_7 C 0.37662(18) 0.3093(2) 0.76870(16)
C10_7 C 0.4279(2) 0.2873(2) 0.82004(18)
H4_7 H 0.441762 0.224401 0.826967
C11_7 C 0.45875(19) 0.3590(2) 0.86118(18)
H5_7 H 0.492812 0.343091 0.895360
C12_7 C 0.43940(17) 0.4541(2) 0.85196(17)
C13_7 C 0.38719(18) 0.4758(2) 0.80084(18)
H6_7 H 0.372824 0.538525 0.794407
C14_7 C 0.35643(19) 0.4045(2) 0.75941(18)
H7_7 H 0.322232 0.420261 0.725330
C15_7 C 0.47970(17) 0.5284(2) 0.89168(17)
C16_7 C 0.55589(18) 0.5226(3) 0.8886(2)
H8_4 H 0.577186 0.472127 0.864713
C17_7 C 0.60032(18) 0.5901(3) 0.9203(2)
H9_7 H 0.650509 0.582918 0.919526
C18_7 C 0.56914(18) 0.6684(2) 0.95332(19)
C19_7 C 0.49389(18) 0.6745(2) 0.95753(18)
H10_7 H 0.473060 0.726555 0.979947
C20_7 C 0.44870(17) 0.6046(2) 0.92901(17)
C21_7 C 0.36811(18) 0.6126(3) 0.94368(18)
C22_7 C 0.61664(19) 0.7450(3) 0.98426(19)
O3_8 O 0.17468(19) 0.4528(3) 0.34919(15)
O4_8 O 0.21546(17) 0.3079(2) 0.35945(14)
C1_8 C 0.1887(2) 0.3743(3) 0.32405(19)
C2_8 C 0.17530(19) 0.3558(2) 0.24653(18)
C3_8 C 0.19165(19) 0.4276(2) 0.19883(17)
H1_8 H 0.206452 0.486619 0.215597
C4_8 C 0.18635(18) 0.4131(2) 0.12651(17)
C5_8 C 0.1652(2) 0.3244(2) 0.10180(17)
H2_8 H 0.162518 0.313230 0.053600
C6_8 C 0.1482(2) 0.2526(2) 0.14873(17)
H3_8 H 0.134447 0.193473 0.131463
C7_8 C 0.15131(18) 0.2668(2) 0.22130(17)
C8_8 C 0.20105(19) 0.4924(2) 0.07520(17)
C9_8 C 0.12338(18) 0.1907(2) 0.26870(16)
C10_8 C 0.0721(2) 0.2127(2) 0.32004(18)
H4_8 H 0.058238 0.275599 0.326967
C11_8 C 0.04125(19) 0.1410(2) 0.36118(18)
H5_8 H 0.007188 0.156909 0.395360
C12_8 C 0.06060(17) 0.0459(2) 0.35196(17)
C13_8 C 0.11281(18) 0.0242(2) 0.30084(18)
C14_8 C 0.14357(19) 0.0955(2) 0.25941(18)
H7_8 H 0.177768 0.079739 0.225330
H6_8 H 0.127176 0.961475 0.294407
C15_8 C 0.02030(17) 0.9716(2) 0.39168(17)
C19_8 C 0.00611(18) 0.8255(2) 0.45753(18)
H10_8 H 0.026940 0.773445 0.479947
C20_8 C 0.05130(17) 0.8954(2) 0.42901(17)
C21_8 C 0.13189(18) 0.8874(3) 0.44368(18)
C16_8 C 0.94411(18) 0.9774(3) 0.3886(2)
C17_8 C 0.89968(18) 0.9099(3) 0.4203(2)
H9_8 H 0.849491 0.917082 0.419526
C18_8 C 0.93086(18) 0.8316(2) 0.45332(19)
C22_8 C 0.88336(19) 0.7550(3) 0.48426(19)
H8_5 H 0.922814 0.972127 0.864713
H8_6 H 0.077186 0.972127 0.635287
H8_7 H 0.077186 0.027873 0.135287
H8_8 H 0.922814 0.027873 0.364713
K1 K 0.25718(6) 0.61965(6) 0.40580(5)
K1_2 K 0.24282(6) 0.88035(6) 0.90580(5)
K1_3 K 0.74282(6) 0.61965(6) 0.09420(5)
K1_4 K 0.75718(6) 0.88035(6) 0.59420(5)
K1_5 K 0.74282(6) 0.38035(6) 0.59420(5)
K1_6 K 0.75718(6) 0.11965(6) 0.09420(5)
K1_7 K 0.25718(6) 0.38035(6) 0.90580(5)
K1_8 K 0.24282(6) 0.11965(6) 0.40580(5)
C24 C 0.0774(5) 0.4792(7) 0.4292(6)
H16 H 0.0969494 0.424053 0.393727
H17 H 0.0973093 0.54808 0.411606
H18 H 0.0970687 0.465173 0.482267
N1 N 0.9969(5) 0.4796(8) 0.4292(6)
H11 H 0.982754 0.422467 0.443790
H12 H 0.982941 0.484915 0.384541
C23 C 0.9550(3) 0.5496(5) 0.4696(3)
H13 H 0.96605 0.540578 0.525533
H14 H 0.970577 0.620983 0.453435
H15 H 0.897289 0.539169 0.459804
N1_2 N 0.5031(5) 0.0204(8) 0.9292(6)
H11_2 H 0.517246 0.077533 0.943790
H12_2 H 0.517059 0.015085 0.884541
C24_2 C 0.4226(5) 0.0208(7) 0.9292(6)
H16_2 H 0.403051 0.0759468 0.893727
H18_2 H 0.402931 0.0348275 0.982267
H13_2 H 0.53395 0.959422 0.0255326
C23_2 C 0.5450(3) 0.9504(5) 0.9696(3)
H14_2 H 0.529423 0.879017 0.953435
H15_2 H 0.602711 0.960831 0.959804
H17_2 H 0.402691 0.95192 0.911606
N1_3 N 0.0031(5) 0.4796(8) 0.0708(6)
H11_3 H 0.017246 0.422467 0.056210
H12_3 H 0.017059 0.484915 0.115459
C23_3 C 0.0450(3) 0.5496(5) 0.0304(3)
H14_3 H 0.0294233 0.620983 0.0465653
H15_3 H 0.102711 0.539169 0.0401963
H13_3 H 0.0339498 0.540578 0.974467
C24_3 C 0.9226(5) 0.4792(7) 0.0708(6)
H16_3 H 0.903051 0.424053 0.106273
H17_3 H 0.902691 0.54808 0.0883935
H18_3 H 0.902931 0.465173 0.017733
N1_4 N 0.4969(5) 0.0204(8) 0.5708(6)
H11_4 H 0.482754 0.077533 0.556210
H12_4 H 0.482941 0.015085 0.615459
C24_4 C 0.5774(5) 0.0208(7) 0.5708(6)
H16_4 H 0.596949 0.0759468 0.606273
H18_4 H 0.597069 0.0348275 0.517733
C23_4 C 0.4550(3) 0.9504(5) 0.5304(3)
H13_4 H 0.46605 0.959422 0.474467
H14_4 H 0.470577 0.879017 0.546565
H15_4 H 0.397289 0.960831 0.540196
H17_4 H 0.597309 0.95192 0.588394
N1_5 N 0.0031(5) 0.5204(8) 0.5708(6)
H11_5 H 0.017246 0.577533 0.556210
H12_5 H 0.017059 0.515085 0.615459
C23_5 C 0.0450(3) 0.4504(5) 0.5304(3)
H13_5 H 0.0339498 0.459422 0.474467
H14_5 H 0.0294233 0.379017 0.546565
H15_5 H 0.102711 0.460831 0.540196
C24_5 C 0.9226(5) 0.5208(7) 0.5708(6)
H16_5 H 0.903051 0.575947 0.606273
H17_5 H 0.902691 0.45192 0.588394
H18_5 H 0.902931 0.534827 0.517733
C23_6 C 0.4550(3) 0.0496(5) 0.0304(3)
H14_6 H 0.470577 0.120983 0.0465653
H15_6 H 0.397289 0.0391692 0.0401963
H17_6 H 0.597309 0.0480804 0.0883935
H13_6 H 0.46605 0.0405775 0.974467
N1_6 N 0.4969(5) 0.9796(8) 0.0708(6)
H11_6 H 0.482754 0.922467 0.056210
H12_6 H 0.482941 0.984915 0.115459
C24_6 C 0.5774(5) 0.9792(7) 0.0708(6)
H16_6 H 0.596949 0.924053 0.106273
H18_6 H 0.597069 0.965173 0.017733
C24_7 C 0.0774(5) 0.5208(7) 0.9292(6)
H16_7 H 0.0969494 0.575947 0.893727
H17_7 H 0.0973093 0.45192 0.911606
H18_7 H 0.0970687 0.534827 0.982267
H13_7 H 0.96605 0.459422 0.0255326
N1_7 N 0.9969(5) 0.5204(8) 0.9292(6)
H11_7 H 0.982754 0.577533 0.943790
H12_7 H 0.982941 0.515085 0.884541
C23_7 C 0.9550(3) 0.4504(5) 0.9696(3)
H14_7 H 0.970577 0.379017 0.953435
H15_7 H 0.897289 0.460831 0.959804
C23_8 C 0.5450(3) 0.0496(5) 0.4696(3)
H13_8 H 0.53395 0.0405775 0.525533
H14_8 H 0.529423 0.120983 0.453435
H15_8 H 0.602711 0.0391692 0.459804
H17_8 H 0.402691 0.0480804 0.411606
N1_8 N 0.5031(5) 0.9796(8) 0.4292(6)
H11_8 H 0.517246 0.922467 0.443790
H12_8 H 0.517059 0.984915 0.384541
C24_8 C 0.4226(5) 0.9792(7) 0.4292(6)
H16_8 H 0.403051 0.924053 0.393727
H18_8 H 0.402931 0.965173 0.482267
loop_
_geom_bond_atom_site_label_1
_geom_bond_atom_site_label_2
_geom_bond_site_symmetry_1
_geom_bond_site_symmetry_2
Cd1 O3 1_555 1_555
O2 C8 1_555 1_555
O3 C1 1_555 1_555
O4 Cd1 1_555 1_555
O5 C22 1_555 1_555
O6 C22 1_555 1_555
O7 C21 1_555 1_555
O8 C21 1_555 1_555
C1 O4 1_555 1_555
C2 C1 1_555 1_555
C3 C2 1_555 1_555
H1 C3 1_555 1_555
C4 C3 1_555 1_555
C5 C4 1_555 1_555
H2 C5 1_555 1_555
C6 C5 1_555 1_555
H3 C6 1_555 1_555
C7 C2 1_555 1_555
C8 C4 1_555 1_555
C9 C7 1_555 1_555
C10 C9 1_555 1_555
H4 C10 1_555 1_555
C11 C10 1_555 1_555
H5 C11 1_555 1_555
C12 C11 1_555 1_555
C13 C12 1_555 1_555
H6 C13 1_555 1_555
C14 C9 1_555 1_555
H7 C14 1_555 1_555
C15 C12 1_555 1_555
C16 C15 1_555 1_555
H8 C16 1_555 1_555
C17 C16 1_555 1_555
H9 C17 1_555 1_555
C18 C17 1_555 1_555
C19 C18 1_555 1_555
H10 C19 1_555 1_555
C20 C15 1_555 1_555
C21 C20 1_555 1_555
C22 C18 1_555 1_555
Cd2 O5 1_555 1_555
Cd4 O7 1_555 1_555
O9 Cd1 1_555 1_555
O11 Cd1 1_555 1_555
O12 Cd1 1_555 1_555
O13 Cd1 1_555 1_555
O14 Cd1 1_555 1_555
O6 Cd2 1_555 1_555
O8 Cd4 1_555 1_555
C6 C7 1_555 1_555
C13 C14 1_555 1_555
C19 C20 1_555 1_555
O7_2 C21_2 1_555 1_555
O8_2 C21_2 1_555 1_555
H10_2 C19_2 1_555 1_555
C20_2 C15_2 1_555 1_555
C21_2 C20_2 1_555 1_555
Cd3 O7_2 1_555 1_555
O8_2 Cd3 1_555 1_555
C19_2 C20_2 1_555 1_555
Cd1_2 O3_2 1_555 1_555
O1_2 C8_2 1_555 1_555
O2_2 C8_2 1_555 1_555
O3_2 C1_2 1_555 1_555
O4_2 Cd1_2 1_555 1_555
C1_2 O4_2 1_555 1_555
C2_2 C1_2 1_555 1_555
C3_2 C2_2 1_555 1_555
H1_2 C3_2 1_555 1_555
C4_2 C3_2 1_555 1_555
C5_2 C4_2 1_555 1_555
H2_2 C5_2 1_555 1_555
C6_2 C5_2 1_555 1_555
H3_2 C6_2 1_555 1_555
C7_2 C2_2 1_555 1_555
C8_2 C4_2 1_555 1_555
C9_2 C7_2 1_555 1_555
C10_2 C9_2 1_555 1_555
H4_2 C10_2 1_555 1_555
C11_2 C10_2 1_555 1_555
H5_2 C11_2 1_555 1_555
C12_2 C11_2 1_555 1_555
C13_2 C12_2 1_555 1_555
C14_2 C9_2 1_555 1_555
H7_2 C14_2 1_555 1_555
Cd4 O1_2 1_555 1_555
O12_2 Cd1_2 1_555 1_555
O13_2 Cd1_2 1_555 1_555
O14_2 Cd1_2 1_555 1_555
O2_2 Cd4 1_555 1_555
C6_2 C7_2 1_555 1_555
C13_2 C14_2 1_555 1_555
O6_2 Cd2_2 1_555 1_555
O5_2 C22_2 1_555 1_555
C17_2 C16_2 1_555 1_555
H9_2 C17_2 1_555 1_555
C18_2 C17_2 1_555 1_555
C22_2 C18_2 1_555 1_555
Cd2 O1_3 1_555 1_555
Cd1_3 O3_3 1_555 1_555
O2_3 C8_3 1_555 1_555
O3_3 C1_3 1_555 1_555
O4_3 Cd1_3 1_555 1_555
O5_3 C22_3 1_555 1_555
O7_3 C21_3 1_555 1_555
O8_3 C21_3 1_555 1_555
C1_3 O4_3 1_555 1_555
C2_3 C1_3 1_555 1_555
C3_3 C2_3 1_555 1_555
H1_3 C3_3 1_555 1_555
C4_3 C3_3 1_555 1_555
C5_3 C4_3 1_555 1_555
H2_3 C5_3 1_555 1_555
C6_3 C5_3 1_555 1_555
H3_3 C6_3 1_555 1_555
C7_3 C2_3 1_555 1_555
C8_3 C4_3 1_555 1_555
C9_3 C7_3 1_555 1_555
C10_3 C9_3 1_555 1_555
H4_3 C10_3 1_555 1_555
C11_3 C10_3 1_555 1_555
H5_3 C11_3 1_555 1_555
C12_3 C11_3 1_555 1_555
C13_3 C12_3 1_555 1_555
H6_3 C13_3 1_555 1_555
C14_3 C9_3 1_555 1_555
H7_3 C14_3 1_555 1_555
C15_3 C12_3 1_555 1_555
C16_3 C15_3 1_555 1_555
H8_2 C16_3 1_555 1_555
C17_3 C16_3 1_555 1_555
H9_3 C17_3 1_555 1_555
C18_3 C17_3 1_555 1_555
C19_3 C18_3 1_555 1_555
H10_3 C19_3 1_555 1_555
C20_3 C15_3 1_555 1_555
C21_3 C20_3 1_555 1_555
C22_3 C18_3 1_555 1_555
Cd2_2 O7_3 1_555 1_555
O12_3 Cd1_3 1_555 1_555
O13_3 Cd1_3 1_555 1_555
O14_3 Cd1_3 1_555 1_555
O8_3 Cd2_2 1_555 1_555
C6_3 C7_3 1_555 1_555
C13_3 C14_3 1_555 1_555
C19_3 C20_3 1_555 1_555
O6_3 Cd3 1_555 1_555
O5_4 C22_4 1_555 1_555
O6_4 C22_4 1_555 1_555
C17_4 C16_4 1_555 1_555
H9_4 C17_4 1_555 1_555
C18_4 C17_4 1_555 1_555
C22_4 C18_4 1_555 1_555
Cd4 O5_4 1_555 1_555
O6_4 Cd4 1_555 1_555
O7_4 C21_4 1_555 1_555
O8_4 C21_4 1_555 1_555
H10_4 C19_4 1_555 1_555
C20_4 C15_4 1_555 1_555
C21_4 C20_4 1_555 1_555
Cd2 O7_4 1_555 1_555
O8_4 Cd2 1_555 1_555
C19_4 C20_4 1_555 1_555
Cd1_4 O3_4 1_555 1_555
O1_4 C8_4 1_555 1_555
O2_4 C8_4 1_555 1_555
O3_4 C1_4 1_555 1_555
O4_4 Cd1_4 1_555 1_555
C1_4 O4_4 1_555 1_555
C2_4 C1_4 1_555 1_555
C3_4 C2_4 1_555 1_555
H1_4 C3_4 1_555 1_555
C4_4 C3_4 1_555 1_555
C5_4 C4_4 1_555 1_555
H2_4 C5_4 1_555 1_555
C6_4 C5_4 1_555 1_555
H3_4 C6_4 1_555 1_555
C7_4 C2_4 1_555 1_555
C8_4 C4_4 1_555 1_555
C9_4 C7_4 1_555 1_555
C10_4 C9_4 1_555 1_555
H4_4 C10_4 1_555 1_555
C11_4 C10_4 1_555 1_555
H5_4 C11_4 1_555 1_555
C12_4 C11_4 1_555 1_555
C13_4 C12_4 1_555 1_555
C14_4 C9_4 1_555 1_555
H7_4 C14_4 1_555 1_555
O9_4 Cd1_4 1_555 1_555
O10_4 Cd1_4 1_555 1_555
O11_4 Cd1_4 1_555 1_555
O12_4 Cd1_4 1_555 1_555
O13_4 Cd1_4 1_555 1_555
O14_4 Cd1_4 1_555 1_555
C6_4 C7_4 1_555 1_555
C13_4 C14_4 1_555 1_555
Cd2 O3_5 1_555 1_555
O10_3 C8_5 1_555 1_555
O3_5 C1_5 1_555 1_555
O4_5 Cd2 1_555 1_555
O11 C22_5 1_555 1_555
O12 C22_5 1_555 1_555
O13_4 C21_5 1_555 1_555
O14_4 C21_5 1_555 1_555
C1_5 O4_5 1_555 1_555
C2_5 C1_5 1_555 1_555
C3_5 C2_5 1_555 1_555
H1_5 C3_5 1_555 1_555
C4_5 C3_5 1_555 1_555
C5_5 C4_5 1_555 1_555
H2_5 C5_5 1_555 1_555
C6_5 C5_5 1_555 1_555
H3_5 C6_5 1_555 1_555
C7_5 C2_5 1_555 1_555
C8_5 C4_5 1_555 1_555
C9_5 C7_5 1_555 1_555
C10_5 C9_5 1_555 1_555
H4_5 C10_5 1_555 1_555
C11_5 C10_5 1_555 1_555
H5_5 C11_5 1_555 1_555
C12_5 C11_5 1_555 1_555
C13_5 C12_5 1_555 1_555
H6_5 C13_5 1_555 1_555
C14_5 C9_5 1_555 1_555
H7_5 C14_5 1_555 1_555
C15_5 C12_5 1_555 1_555
C16_5 C15_5 1_555 1_555
H8_3 C16_5 1_555 1_555
C17_5 C16_5 1_555 1_555
H9_5 C17_5 1_555 1_555
C18_5 C17_5 1_555 1_555
C19_5 C18_5 1_555 1_555
H10_5 C19_5 1_555 1_555
C20_5 C15_5 1_555 1_555
C21_5 C20_5 1_555 1_555
C22_5 C18_5 1_555 1_555
C6_5 C7_5 1_555 1_555
C13_5 C14_5 1_555 1_555
C19_5 C20_5 1_555 1_555
O11_2 C22_6 1_555 1_555
C17_6 C16_6 1_555 1_555
H9_6 C17_6 1_555 1_555
C18_6 C17_6 1_555 1_555
C22_6 C18_6 1_555 1_555
Cd2_2 O3_6 1_555 1_555
O9_4 C8_6 1_555 1_555
O10_4 C8_6 1_555 1_555
O3_6 C1_6 1_555 1_555
O4_6 Cd2_2 1_555 1_555
C1_6 O4_6 1_555 1_555
C2_6 C1_6 1_555 1_555
C3_6 C2_6 1_555 1_555
H1_6 C3_6 1_555 1_555
C4_6 C3_6 1_555 1_555
C5_6 C4_6 1_555 1_555
H2_6 C5_6 1_555 1_555
C6_6 C5_6 1_555 1_555
H3_6 C6_6 1_555 1_555
C7_6 C2_6 1_555 1_555
C8_6 C4_6 1_555 1_555
C9_6 C7_6 1_555 1_555
C10_6 C9_6 1_555 1_555
H4_6 C10_6 1_555 1_555
C11_6 C10_6 1_555 1_555
H5_6 C11_6 1_555 1_555
C12_6 C11_6 1_555 1_555
C13_6 C12_6 1_555 1_555
C14_6 C9_6 1_555 1_555
H7_6 C14_6 1_555 1_555
C6_6 C7_6 1_555 1_555
C13_6 C14_6 1_555 1_555
O13_3 C21_6 1_555 1_555
O14_3 C21_6 1_555 1_555
H10_6 C19_6 1_555 1_555
C20_6 C15_6 1_555 1_555
C21_6 C20_6 1_555 1_555
C19_6 C20_6 1_555 1_555
Cd3 O3_7 1_555 1_555
O10 C8_7 1_555 1_555
O3_7 C1_7 1_555 1_555
O4_7 Cd3 1_555 1_555
O11_3 C22_7 1_555 1_555
O13_2 C21_7 1_555 1_555
O14_2 C21_7 1_555 1_555
C1_7 O4_7 1_555 1_555
C2_7 C1_7 1_555 1_555
C3_7 C2_7 1_555 1_555
H1_7 C3_7 1_555 1_555
C4_7 C3_7 1_555 1_555
C5_7 C4_7 1_555 1_555
H2_7 C5_7 1_555 1_555
C6_7 C5_7 1_555 1_555
H3_7 C6_7 1_555 1_555
C7_7 C2_7 1_555 1_555
C8_7 C4_7 1_555 1_555
C9_7 C7_7 1_555 1_555
C10_7 C9_7 1_555 1_555
H4_7 C10_7 1_555 1_555
C11_7 C10_7 1_555 1_555
H5_7 C11_7 1_555 1_555
C12_7 C11_7 1_555 1_555
C13_7 C12_7 1_555 1_555
H6_7 C13_7 1_555 1_555
C14_7 C9_7 1_555 1_555
H7_7 C14_7 1_555 1_555
C15_7 C12_7 1_555 1_555
C16_7 C15_7 1_555 1_555
H8_4 C16_7 1_555 1_555
C17_7 C16_7 1_555 1_555
H9_7 C17_7 1_555 1_555
C18_7 C17_7 1_555 1_555
C19_7 C18_7 1_555 1_555
H10_7 C19_7 1_555 1_555
C20_7 C15_7 1_555 1_555
C21_7 C20_7 1_555 1_555
C22_7 C18_7 1_555 1_555
C6_7 C7_7 1_555 1_555
C13_7 C14_7 1_555 1_555
C19_7 C20_7 1_555 1_555
Cd4 O3_8 1_555 1_555
O9_2 C8_8 1_555 1_555
O10_2 C8_8 1_555 1_555
O3_8 C1_8 1_555 1_555
O4_8 Cd4 1_555 1_555
C1_8 O4_8 1_555 1_555
C2_8 C1_8 1_555 1_555
C3_8 C2_8 1_555 1_555
H1_8 C3_8 1_555 1_555
C4_8 C3_8 1_555 1_555
C5_8 C4_8 1_555 1_555
H2_8 C5_8 1_555 1_555
C6_8 C5_8 1_555 1_555
H3_8 C6_8 1_555 1_555
C7_8 C2_8 1_555 1_555
C8_8 C4_8 1_555 1_555
C9_8 C7_8 1_555 1_555
C10_8 C9_8 1_555 1_555
H4_8 C10_8 1_555 1_555
C11_8 C10_8 1_555 1_555
H5_8 C11_8 1_555 1_555
C12_8 C11_8 1_555 1_555
C13_8 C12_8 1_555 1_555
C14_8 C9_8 1_555 1_555
H7_8 C14_8 1_555 1_555
C6_8 C7_8 1_555 1_555
C13_8 C14_8 1_555 1_555
O13 C21_8 1_555 1_555
O14 C21_8 1_555 1_555
H10_8 C19_8 1_555 1_555
C20_8 C15_8 1_555 1_555
C21_8 C20_8 1_555 1_555
C19_8 C20_8 1_555 1_555
O11_4 C22_8 1_555 1_555
O12_4 C22_8 1_555 1_555
C17_8 C16_8 1_555 1_555
H9_8 C17_8 1_555 1_555
C18_8 C17_8 1_555 1_555
C22_8 C18_8 1_555 1_555
C24 H16 1_555 1_555
C24 H17 1_555 1_555
C24 H18 1_555 1_555
N1 H11 1_555 1_555
H12 N1 1_555 1_555
C23 N1 1_555 1_555
C23 H13 1_555 1_555
C23 H14 1_555 1_555
C23 H15 1_555 1_555
N1_2 H11_2 1_555 1_555
H12_2 N1_2 1_555 1_555
C24_2 N1_2 1_555 1_555
C24_2 H16_2 1_555 1_555
C24_2 H18_2 1_555 1_555
C23_2 H14_2 1_555 1_555
C23_2 H15_2 1_555 1_555
N1_3 H11_3 1_555 1_555
H12_3 N1_3 1_555 1_555
C23_3 N1_3 1_555 1_555
C23_3 H14_3 1_555 1_555
C23_3 H15_3 1_555 1_555
C24_3 H16_3 1_555 1_555
C24_3 H17_3 1_555 1_555
C24_3 H18_3 1_555 1_555
N1_4 H11_4 1_555 1_555
H12_4 N1_4 1_555 1_555
C24_4 N1_4 1_555 1_555
C24_4 H16_4 1_555 1_555
C24_4 H18_4 1_555 1_555
C23_4 H13_4 1_555 1_555
C23_4 H14_4 1_555 1_555
C23_4 H15_4 1_555 1_555
N1_5 H11_5 1_555 1_555
H12_5 N1_5 1_555 1_555
C23_5 N1_5 1_555 1_555
C23_5 H13_5 1_555 1_555
C23_5 H14_5 1_555 1_555
C23_5 H15_5 1_555 1_555
C24_5 H16_5 1_555 1_555
C24_5 H17_5 1_555 1_555
C24_5 H18_5 1_555 1_555
C23_6 H14_6 1_555 1_555
C23_6 H15_6 1_555 1_555
N1_6 H11_6 1_555 1_555
H12_6 N1_6 1_555 1_555
C24_6 N1_6 1_555 1_555
C24_6 H16_6 1_555 1_555
C24_6 H18_6 1_555 1_555
C24_7 H16_7 1_555 1_555
C24_7 H17_7 1_555 1_555
C24_7 H18_7 1_555 1_555
N1_7 H11_7 1_555 1_555
H12_7 N1_7 1_555 1_555
C23_7 N1_7 1_555 1_555
C23_7 H14_7 1_555 1_555
C23_7 H15_7 1_555 1_555
C23_8 H13_8 1_555 1_555
C23_8 H14_8 1_555 1_555
C23_8 H15_8 1_555 1_555
N1_8 H11_8 1_555 1_555
H12_8 N1_8 1_555 1_555
C24_8 N1_8 1_555 1_555
C24_8 H16_8 1_555 1_555
C24_8 H18_8 1_555 1_555

#END
