
###############################################################################
#
# This file contains modified crystal structure data generated from the
# MOF subset of the Cambridge Structural Database (CSD) v543 
# hosted by the Cambridge Crystallographic Data Centre (CCDC).
#
# This work is licensed under the Creative Commons
# Attribution-NonCommercial-ShareAlike 4.0 International License.
# To view a copy of this license, visit
# http://creativecommons.org/licenses/by-nc-sa/4.0/
# or send a letter to
# Creative Commons, PO Box 1866, Mountain View, CA 94042, USA.
#
# CIF created using the CSD Python API on 29 September 2022
# The structure has been converted into the P1 space group
# The structure has a 3D framework
# The original CSD entry YAFWEL is in the cubic crystal system
# The framework has been calculated to contain at least 10.0% void space
# The void calculation uses a probe of radius 1.32A, grid spacing 0.4
# The framework is charged, counterions have been retained in the structure
#
###############################################################################

data_YAFWEL
_chemical_formula_moiety         '(C240 H144 Cr20 N24 O100 16+)n'
_symmetry_cell_setting           triclinic
_symmetry_space_group_name_H-M   'P 1'
_symmetry_Int_Tables_number      1
_space_group_name_Hall           'P 1'
loop_
_symmetry_equiv_pos_site_id
_symmetry_equiv_pos_as_xyz
1 x,y,z
_cell_length_a                   20.663(4)
_cell_length_b                   20.663
_cell_length_c                   20.663
_cell_angle_alpha                90
_cell_angle_beta                 90
_cell_angle_gamma                90
_cell_volume                     8822.27
loop_
_atom_site_label
_atom_site_type_symbol
_atom_site_fract_x
_atom_site_fract_y
_atom_site_fract_z
_atom_site_U_iso_or_equiv
_atom_site_thermal_displace_type
O11 O 0.07754 0.1487 0.7571 0.0250 Uiso
C24 C 0.0949 0.0949 0.7539 0.0250 Uiso
C25 C 0.0462 0.0462 0.7444 0.0250 Uiso
O13 O 0.1487 0.07754 0.7571 0.0250 Uiso
Cr6 Cr 0.1127(22) 0.2334(9) 0.7666(9) 0.0250 Uiso
O25 O 0.15276 0.22641 0.67849 0.0250 Uiso
N6 N 0.22969 0.22969 0.46227 0.0250 Uiso
C55 C 0.18454 0.2592 0.492 0.0250 Uiso
H33 H 0.1619 0.2904 0.4708 0.0250 Uiso
C56 C 0.16961 0.2458 0.5526 0.0250 Uiso
H34 H 0.1375 0.2682 0.5725 0.0250 Uiso
C57 C 0.20043 0.20043 0.5845 0.0250 Uiso
C58 C 0.19121 0.19121 0.6524 0.0250 Uiso
O26 O 0.22641 0.15276 0.67849 0.0250 Uiso
C59 C 0.2592 0.18454 0.492 0.0250 Uiso
H35 H 0.2904 0.1619 0.4708 0.0250 Uiso
C60 C 0.2458 0.16961 0.5526 0.0250 Uiso
H36 H 0.2682 0.1375 0.5725 0.0250 Uiso
Cr9 Cr 0.2334(9) 0.1127(22) 0.7666(9) 0.0250 Uiso
Cr13 Cr 0.2666(9) 0.2666(9) 0.3873(22) 0.0250 Uiso
O28 O 0.1982 0.1982 0.8018 0.0250 Uiso
O29 O 0.15276 0.32151 0.77359 0.0250 Uiso
O32 O 0.07754 0.2429 0.8513 0.0250 Uiso
N12 N 0.03773 0.27031 0.72969 0.0250 Uiso
O5 O 0.1487 0.7571 0.07754 0.0250 Uiso
C10 C 0.0949 0.7539 0.0949 0.0250 Uiso
C11 C 0.0462 0.7444 0.0462 0.0250 Uiso
O7 O 0.07754 0.7571 0.1487 0.0250 Uiso
Cr5 Cr 0.2334(9) 0.7666(9) 0.1127(22) 0.0250 Uiso
O23 O 0.22641 0.67849 0.15276 0.0250 Uiso
N5 N 0.22969 0.46227 0.22969 0.0250 Uiso
C49 C 0.2592 0.492 0.18454 0.0250 Uiso
H29 H 0.2904 0.4708 0.1619 0.0250 Uiso
C50 C 0.2458 0.5526 0.16961 0.0250 Uiso
H30 H 0.2682 0.5725 0.1375 0.0250 Uiso
C51 C 0.20043 0.5845 0.20043 0.0250 Uiso
C52 C 0.19121 0.6524 0.19121 0.0250 Uiso
O24 O 0.15276 0.67849 0.22641 0.0250 Uiso
C53 C 0.18454 0.492 0.2592 0.0250 Uiso
H31 H 0.1619 0.4708 0.2904 0.0250 Uiso
C54 C 0.16961 0.5526 0.2458 0.0250 Uiso
H32 H 0.1375 0.5725 0.2682 0.0250 Uiso
Cr10 Cr 0.1127(22) 0.7666(9) 0.2334(9) 0.0250 Uiso
Cr12 Cr 0.2666(9) 0.3873(22) 0.2666(9) 0.0250 Uiso
O27 O 0.1982 0.8018 0.1982 0.0250 Uiso
O31 O 0.32151 0.77359 0.15276 0.0250 Uiso
O34 O 0.2429 0.8513 0.07754 0.0250 Uiso
N11 N 0.27031 0.72969 0.03773 0.0250 Uiso
O17 O 0.7571 0.07754 0.1487 0.0250 Uiso
C38 C 0.7539 0.0949 0.0949 0.0250 Uiso
C39 C 0.7444 0.0462 0.0462 0.0250 Uiso
O19 O 0.7571 0.1487 0.07754 0.0250 Uiso
Cr4 Cr 0.7666(9) 0.1127(22) 0.2334(9) 0.0250 Uiso
O20 O 0.8018 0.1982 0.1982 0.0250 Uiso
O21 O 0.67849 0.15276 0.22641 0.0250 Uiso
N4 N 0.46227 0.22969 0.22969 0.0250 Uiso
C43 C 0.492 0.18454 0.2592 0.0250 Uiso
H25 H 0.4708 0.1619 0.2904 0.0250 Uiso
C44 C 0.5526 0.16961 0.2458 0.0250 Uiso
H26 H 0.5725 0.1375 0.2682 0.0250 Uiso
C45 C 0.5845 0.20043 0.20043 0.0250 Uiso
C46 C 0.6524 0.19121 0.19121 0.0250 Uiso
O22 O 0.67849 0.22641 0.15276 0.0250 Uiso
C47 C 0.492 0.2592 0.18454 0.0250 Uiso
H27 H 0.4708 0.2904 0.1619 0.0250 Uiso
C48 C 0.5526 0.2458 0.16961 0.0250 Uiso
H28 H 0.5725 0.2682 0.1375 0.0250 Uiso
Cr7 Cr 0.8873(22) 0.2334(9) 0.2334(9) 0.0250 Uiso
Cr8 Cr 0.7666(9) 0.2334(9) 0.1127(22) 0.0250 Uiso
Cr11 Cr 0.3873(22) 0.2666(9) 0.2666(9) 0.0250 Uiso
O30 O 0.77359 0.15276 0.32151 0.0250 Uiso
O33 O 0.8513 0.07754 0.2429 0.0250 Uiso
N10 N 0.72969 0.03773 0.27031 0.0250 Uiso
Cr1 Cr 0.8873(22) 0.7666(9) 0.7666(9) 0.0250 Uiso
O1 O 0.8018 0.8018 0.8018 0.0250 Uiso
O2 O 0.84724 0.67849 0.77359 0.0250 Uiso
O3 O 0.92246 0.7571 0.8513 0.0250 Uiso
N1 N 0.77031 0.46227 0.77031 0.0250 Uiso
C1 C 0.81546 0.492 0.7408 0.0250 Uiso
H1 H 0.8381 0.4708 0.7096 0.0250 Uiso
C2 C 0.83039 0.5526 0.7542 0.0250 Uiso
H2 H 0.8625 0.5725 0.7318 0.0250 Uiso
C3 C 0.79957 0.5845 0.79957 0.0250 Uiso
C4 C 0.80879 0.6524 0.80879 0.0250 Uiso
C5 C 0.9051 0.7539 0.9051 0.0250 Uiso
C6 C 0.9538 0.7444 0.9538 0.0250 Uiso
O4 O 0.77359 0.67849 0.84724 0.0250 Uiso
C8 C 0.7408 0.492 0.81546 0.0250 Uiso
H4 H 0.7096 0.4708 0.8381 0.0250 Uiso
C9 C 0.7542 0.5526 0.83039 0.0250 Uiso
H5 H 0.7318 0.5725 0.8625 0.0250 Uiso
O6 O 0.8513 0.7571 0.92246 0.0250 Uiso
Cr2 Cr 0.7666(9) 0.8873(22) 0.7666(9) 0.0250 Uiso
O8 O 0.77359 0.84724 0.67849 0.0250 Uiso
O9 O 0.8513 0.92246 0.7571 0.0250 Uiso
N2 N 0.77031 0.77031 0.46227 0.0250 Uiso
C15 C 0.7408 0.81546 0.492 0.0250 Uiso
H9 H 0.7096 0.8381 0.4708 0.0250 Uiso
C16 C 0.7542 0.83039 0.5526 0.0250 Uiso
H10 H 0.7318 0.8625 0.5725 0.0250 Uiso
C17 C 0.79957 0.79957 0.5845 0.0250 Uiso
C18 C 0.80879 0.80879 0.6524 0.0250 Uiso
C19 C 0.9051 0.9051 0.7539 0.0250 Uiso
C20 C 0.9538 0.9538 0.7444 0.0250 Uiso
O10 O 0.84724 0.77359 0.67849 0.0250 Uiso
C22 C 0.81546 0.7408 0.492 0.0250 Uiso
H12 H 0.8381 0.7096 0.4708 0.0250 Uiso
C23 C 0.83039 0.7542 0.5526 0.0250 Uiso
H13 H 0.8625 0.7318 0.5725 0.0250 Uiso
O12 O 0.92246 0.8513 0.7571 0.0250 Uiso
Cr3 Cr 0.7666(9) 0.7666(9) 0.8873(22) 0.0250 Uiso
O14 O 0.67849 0.77359 0.84724 0.0250 Uiso
O15 O 0.7571 0.8513 0.92246 0.0250 Uiso
N3 N 0.46227 0.77031 0.77031 0.0250 Uiso
C29 C 0.492 0.7408 0.81546 0.0250 Uiso
H17 H 0.4708 0.7096 0.8381 0.0250 Uiso
C30 C 0.5526 0.7542 0.83039 0.0250 Uiso
H18 H 0.5725 0.7318 0.8625 0.0250 Uiso
C31 C 0.5845 0.79957 0.79957 0.0250 Uiso
C32 C 0.6524 0.80879 0.80879 0.0250 Uiso
C33 C 0.7539 0.9051 0.9051 0.0250 Uiso
C34 C 0.7444 0.9538 0.9538 0.0250 Uiso
O16 O 0.67849 0.84724 0.77359 0.0250 Uiso
C36 C 0.492 0.81546 0.7408 0.0250 Uiso
H20 H 0.4708 0.8381 0.7096 0.0250 Uiso
C37 C 0.5526 0.83039 0.7542 0.0250 Uiso
H21 H 0.5725 0.8625 0.7318 0.0250 Uiso
O18 O 0.7571 0.92246 0.8513 0.0250 Uiso
Cr14 Cr 0.7334(9) 0.3873(22) 0.7334(9) 0.0250 Uiso
Cr15 Cr 0.7334(9) 0.7334(9) 0.3873(22) 0.0250 Uiso
Cr16 Cr 0.3873(22) 0.7334(9) 0.7334(9) 0.0250 Uiso
N7 N 0.96227 0.72969 0.72969 0.0250 Uiso
N8 N 0.72969 0.96227 0.72969 0.0250 Uiso
N9 N 0.72969 0.72969 0.96227 0.0250 Uiso
Cr7_2 Cr 0.2334(9) 0.8873(22) 0.2334(9) 0.0250 Uiso
Cr7_3 Cr 0.2334(9) 0.2334(9) 0.8873(22) 0.0250 Uiso
C38_2 C 0.0949 0.2461 0.9051 0.0250 Uiso
C39_2 C 0.0462 0.2556 0.9538 0.0250 Uiso
O19_2 O 0.1487 0.2429 0.92246 0.0250 Uiso
N4_2 N 0.22969 0.53773 0.77031 0.0250 Uiso
C43_2 C 0.18454 0.508 0.7408 0.0250 Uiso
H25_2 H 0.1619 0.5292 0.7096 0.0250 Uiso
C44_2 C 0.16961 0.4474 0.7542 0.0250 Uiso
H26_2 H 0.1375 0.4275 0.7318 0.0250 Uiso
C45_2 C 0.20043 0.4155 0.79957 0.0250 Uiso
C46_2 C 0.19121 0.3476 0.80879 0.0250 Uiso
O22_2 O 0.22641 0.32151 0.84724 0.0250 Uiso
C47_2 C 0.2592 0.508 0.81546 0.0250 Uiso
H27_2 H 0.2904 0.5292 0.8381 0.0250 Uiso
C48_2 C 0.2458 0.4474 0.83039 0.0250 Uiso
H28_2 H 0.2682 0.4275 0.8625 0.0250 Uiso
Cr11_2 Cr 0.2666(9) 0.6127(22) 0.7334(9) 0.0250 Uiso
O11_2 O 0.1487 0.92246 0.2429 0.0250 Uiso
C24_2 C 0.0949 0.9051 0.2461 0.0250 Uiso
C25_2 C 0.0462 0.9538 0.2556 0.0250 Uiso
O13_2 O 0.07754 0.8513 0.2429 0.0250 Uiso
O25_2 O 0.22641 0.84724 0.32151 0.0250 Uiso
N6_2 N 0.22969 0.77031 0.53773 0.0250 Uiso
C55_2 C 0.2592 0.81546 0.508 0.0250 Uiso
H33_2 H 0.2904 0.8381 0.5292 0.0250 Uiso
C56_2 C 0.2458 0.83039 0.4474 0.0250 Uiso
H34_2 H 0.2682 0.8625 0.4275 0.0250 Uiso
C57_2 C 0.20043 0.79957 0.4155 0.0250 Uiso
C58_2 C 0.19121 0.80879 0.3476 0.0250 Uiso
O26_2 O 0.15276 0.77359 0.32151 0.0250 Uiso
C59_2 C 0.18454 0.7408 0.508 0.0250 Uiso
H35_2 H 0.1619 0.7096 0.5292 0.0250 Uiso
C60_2 C 0.16961 0.7542 0.4474 0.0250 Uiso
H36_2 H 0.1375 0.7318 0.4275 0.0250 Uiso
Cr13_2 Cr 0.2666(9) 0.7334(9) 0.6127(22) 0.0250 Uiso
O29_2 O 0.32151 0.84724 0.22641 0.0250 Uiso
O32_2 O 0.2429 0.92246 0.1487 0.0250 Uiso
N12_2 N 0.27031 0.96227 0.27031 0.0250 Uiso
O8_2 O 0.84724 0.22641 0.32151 0.0250 Uiso
O9_2 O 0.92246 0.1487 0.2429 0.0250 Uiso
N2_2 N 0.77031 0.22969 0.53773 0.0250 Uiso
C15_2 C 0.81546 0.2592 0.508 0.0250 Uiso
H9_2 H 0.8381 0.2904 0.5292 0.0250 Uiso
C16_2 C 0.83039 0.2458 0.4474 0.0250 Uiso
H10_2 H 0.8625 0.2682 0.4275 0.0250 Uiso
C17_2 C 0.79957 0.20043 0.4155 0.0250 Uiso
C18_2 C 0.80879 0.19121 0.3476 0.0250 Uiso
C19_2 C 0.9051 0.0949 0.2461 0.0250 Uiso
C20_2 C 0.9538 0.0462 0.2556 0.0250 Uiso
C22_2 C 0.7408 0.18454 0.508 0.0250 Uiso
H12_2 H 0.7096 0.1619 0.5292 0.0250 Uiso
C23_2 C 0.7542 0.16961 0.4474 0.0250 Uiso
H13_2 H 0.7318 0.1375 0.4275 0.0250 Uiso
O14_2 O 0.77359 0.32151 0.15276 0.0250 Uiso
O15_2 O 0.8513 0.2429 0.07754 0.0250 Uiso
N3_2 N 0.77031 0.53773 0.22969 0.0250 Uiso
C29_2 C 0.7408 0.508 0.18454 0.0250 Uiso
H17_2 H 0.7096 0.5292 0.1619 0.0250 Uiso
C30_2 C 0.7542 0.4474 0.16961 0.0250 Uiso
H18_2 H 0.7318 0.4275 0.1375 0.0250 Uiso
C31_2 C 0.79957 0.4155 0.20043 0.0250 Uiso
C32_2 C 0.80879 0.3476 0.19121 0.0250 Uiso
C33_2 C 0.9051 0.2461 0.0949 0.0250 Uiso
C34_2 C 0.9538 0.2556 0.0462 0.0250 Uiso
O16_2 O 0.84724 0.32151 0.22641 0.0250 Uiso
C36_2 C 0.81546 0.508 0.2592 0.0250 Uiso
H20_2 H 0.8381 0.5292 0.2904 0.0250 Uiso
C37_2 C 0.83039 0.4474 0.2458 0.0250 Uiso
H21_2 H 0.8625 0.4275 0.2682 0.0250 Uiso
O18_2 O 0.92246 0.2429 0.1487 0.0250 Uiso
Cr15_2 Cr 0.7334(9) 0.2666(9) 0.6127(22) 0.0250 Uiso
Cr16_2 Cr 0.7334(9) 0.6127(22) 0.2666(9) 0.0250 Uiso
N8_2 N 0.96227 0.27031 0.27031 0.0250 Uiso
N9_2 N 0.72969 0.27031 0.03773 0.0250 Uiso
O11_3 O 0.2429 0.1487 0.92246 0.0250 Uiso
C24_3 C 0.2461 0.0949 0.9051 0.0250 Uiso
C25_3 C 0.2556 0.0462 0.9538 0.0250 Uiso
O13_3 O 0.2429 0.07754 0.8513 0.0250 Uiso
O25_3 O 0.32151 0.22641 0.84724 0.0250 Uiso
N6_3 N 0.53773 0.22969 0.77031 0.0250 Uiso
C55_3 C 0.508 0.2592 0.81546 0.0250 Uiso
H33_3 H 0.5292 0.2904 0.8381 0.0250 Uiso
C56_3 C 0.4474 0.2458 0.83039 0.0250 Uiso
H34_3 H 0.4275 0.2682 0.8625 0.0250 Uiso
C57_3 C 0.4155 0.20043 0.79957 0.0250 Uiso
C58_3 C 0.3476 0.19121 0.80879 0.0250 Uiso
O26_3 O 0.32151 0.15276 0.77359 0.0250 Uiso
C59_3 C 0.508 0.18454 0.7408 0.0250 Uiso
H35_3 H 0.5292 0.1619 0.7096 0.0250 Uiso
C60_3 C 0.4474 0.16961 0.7542 0.0250 Uiso
H36_3 H 0.4275 0.1375 0.7318 0.0250 Uiso
Cr13_3 Cr 0.6127(22) 0.2666(9) 0.7334(9) 0.0250 Uiso
N12_3 N 0.27031 0.27031 0.96227 0.0250 Uiso
N2_3 N 0.53773 0.77031 0.22969 0.0250 Uiso
C15_3 C 0.508 0.81546 0.2592 0.0250 Uiso
H9_3 H 0.5292 0.8381 0.2904 0.0250 Uiso
C16_3 C 0.4474 0.83039 0.2458 0.0250 Uiso
H10_3 H 0.4275 0.8625 0.2682 0.0250 Uiso
C17_3 C 0.4155 0.79957 0.20043 0.0250 Uiso
C18_3 C 0.3476 0.80879 0.19121 0.0250 Uiso
C19_3 C 0.2461 0.9051 0.0949 0.0250 Uiso
C20_3 C 0.2556 0.9538 0.0462 0.0250 Uiso
C22_3 C 0.508 0.7408 0.18454 0.0250 Uiso
H12_3 H 0.5292 0.7096 0.1619 0.0250 Uiso
C23_3 C 0.4474 0.7542 0.16961 0.0250 Uiso
H13_3 H 0.4275 0.7318 0.1375 0.0250 Uiso
Cr15_3 Cr 0.6127(22) 0.7334(9) 0.2666(9) 0.0250 Uiso
N9_3 N 0.03773 0.72969 0.27031 0.0250 Uiso
N9_4 N 0.27031 0.03773 0.72969 0.0250 Uiso
O1_2 O 0.3018 0.3018 0.3018 0.0250 Uiso
O2_2 O 0.34724 0.17849 0.27359 0.0250 Uiso
O3_2 O 0.42246 0.2571 0.3513 0.0250 Uiso
C2_2 C 0.33039 0.0526 0.2542 0.0250 Uiso
H2_2 H 0.3625 0.0725 0.2318 0.0250 Uiso
C3_2 C 0.29957 0.0845 0.29957 0.0250 Uiso
C4_2 C 0.30879 0.1524 0.30879 0.0250 Uiso
C5_2 C 0.4051 0.2539 0.4051 0.0250 Uiso
C6_2 C 0.4538 0.2444 0.4538 0.0250 Uiso
C7 C 0.5147 0.2442 0.4385 0.0250 Uiso
H3 H 0.5264 0.2441 0.3962 0.0250 Uiso
O4_2 O 0.27359 0.17849 0.34724 0.0250 Uiso
C9_2 C 0.2542 0.0526 0.33039 0.0250 Uiso
H5_2 H 0.2318 0.0725 0.3625 0.0250 Uiso
O5_2 O 0.6487 0.2571 0.57754 0.0250 Uiso
C10_2 C 0.5949 0.2539 0.5949 0.0250 Uiso
C11_2 C 0.5462 0.2444 0.5462 0.0250 Uiso
C12 C 0.5615 0.2442 0.4853 0.0250 Uiso
H6 H 0.6038 0.2441 0.4736 0.0250 Uiso
O6_2 O 0.3513 0.2571 0.42246 0.0250 Uiso
C13 C 0.4385 0.2442 0.5147 0.0250 Uiso
H7 H 0.3962 0.2441 0.5264 0.0250 Uiso
O7_2 O 0.57754 0.2571 0.6487 0.0250 Uiso
C14 C 0.4853 0.2442 0.5615 0.0250 Uiso
H8 H 0.4736 0.2441 0.6038 0.0250 Uiso
O8_3 O 0.27359 0.34724 0.17849 0.0250 Uiso
O9_3 O 0.3513 0.42246 0.2571 0.0250 Uiso
C16_4 C 0.2542 0.33039 0.0526 0.0250 Uiso
H10_4 H 0.2318 0.3625 0.0725 0.0250 Uiso
C17_4 C 0.29957 0.29957 0.0845 0.0250 Uiso
C18_4 C 0.30879 0.30879 0.1524 0.0250 Uiso
C19_4 C 0.4051 0.4051 0.2539 0.0250 Uiso
C20_4 C 0.4538 0.4538 0.2444 0.0250 Uiso
C21 C 0.4385 0.5147 0.2442 0.0250 Uiso
H11 H 0.3962 0.5264 0.2441 0.0250 Uiso
O10_2 O 0.34724 0.27359 0.17849 0.0250 Uiso
C23_4 C 0.33039 0.2542 0.0526 0.0250 Uiso
H13_4 H 0.3625 0.2318 0.0725 0.0250 Uiso
O11_4 O 0.57754 0.6487 0.2571 0.0250 Uiso
C24_4 C 0.5949 0.5949 0.2539 0.0250 Uiso
C25_4 C 0.5462 0.5462 0.2444 0.0250 Uiso
C26 C 0.4853 0.5615 0.2442 0.0250 Uiso
H14 H 0.4736 0.6038 0.2441 0.0250 Uiso
O12_2 O 0.42246 0.3513 0.2571 0.0250 Uiso
C27 C 0.5147 0.4385 0.2442 0.0250 Uiso
H15 H 0.5264 0.3962 0.2441 0.0250 Uiso
O13_4 O 0.6487 0.57754 0.2571 0.0250 Uiso
C28 C 0.5615 0.4853 0.2442 0.0250 Uiso
H16 H 0.6038 0.4736 0.2441 0.0250 Uiso
O14_3 O 0.17849 0.27359 0.34724 0.0250 Uiso
O15_3 O 0.2571 0.3513 0.42246 0.0250 Uiso
C30_3 C 0.0526 0.2542 0.33039 0.0250 Uiso
H18_3 H 0.0725 0.2318 0.3625 0.0250 Uiso
C31_3 C 0.0845 0.29957 0.29957 0.0250 Uiso
C32_3 C 0.1524 0.30879 0.30879 0.0250 Uiso
C33_3 C 0.2539 0.4051 0.4051 0.0250 Uiso
C34_3 C 0.2444 0.4538 0.4538 0.0250 Uiso
C35 C 0.2442 0.4385 0.5147 0.0250 Uiso
H19 H 0.2441 0.3962 0.5264 0.0250 Uiso
O16_3 O 0.17849 0.34724 0.27359 0.0250 Uiso
C37_3 C 0.0526 0.33039 0.2542 0.0250 Uiso
H21_3 H 0.0725 0.3625 0.2318 0.0250 Uiso
O17_2 O 0.2571 0.57754 0.6487 0.0250 Uiso
C38_3 C 0.2539 0.5949 0.5949 0.0250 Uiso
C39_3 C 0.2444 0.5462 0.5462 0.0250 Uiso
C40 C 0.2442 0.4853 0.5615 0.0250 Uiso
H22 H 0.2441 0.4736 0.6038 0.0250 Uiso
O18_3 O 0.2571 0.42246 0.3513 0.0250 Uiso
C41 C 0.2442 0.5147 0.4385 0.0250 Uiso
H23 H 0.2441 0.5264 0.3962 0.0250 Uiso
O19_3 O 0.2571 0.6487 0.57754 0.0250 Uiso
C42 C 0.2442 0.5615 0.4853 0.0250 Uiso
H24 H 0.2441 0.6038 0.4736 0.0250 Uiso
O20_2 O 0.3018 0.6982 0.6982 0.0250 Uiso
O21_2 O 0.17849 0.65276 0.72641 0.0250 Uiso
C44_3 C 0.0526 0.66961 0.7458 0.0250 Uiso
H26_3 H 0.0725 0.6375 0.7682 0.0250 Uiso
C45_3 C 0.0845 0.70043 0.70043 0.0250 Uiso
C46_3 C 0.1524 0.69121 0.69121 0.0250 Uiso
O22_3 O 0.17849 0.72641 0.65276 0.0250 Uiso
C48_3 C 0.0526 0.7458 0.66961 0.0250 Uiso
H28_3 H 0.0725 0.7682 0.6375 0.0250 Uiso
O23_2 O 0.72641 0.17849 0.65276 0.0250 Uiso
C50_2 C 0.7458 0.0526 0.66961 0.0250 Uiso
H30_2 H 0.7682 0.0725 0.6375 0.0250 Uiso
C51_2 C 0.70043 0.0845 0.70043 0.0250 Uiso
C52_2 C 0.69121 0.1524 0.69121 0.0250 Uiso
O24_2 O 0.65276 0.17849 0.72641 0.0250 Uiso
C54_2 C 0.66961 0.0526 0.7458 0.0250 Uiso
H32_2 H 0.6375 0.0725 0.7682 0.0250 Uiso
O25_4 O 0.65276 0.72641 0.17849 0.0250 Uiso
C56_4 C 0.66961 0.7458 0.0526 0.0250 Uiso
H34_4 H 0.6375 0.7682 0.0725 0.0250 Uiso
C57_4 C 0.70043 0.70043 0.0845 0.0250 Uiso
C58_4 C 0.69121 0.69121 0.1524 0.0250 Uiso
O26_4 O 0.72641 0.65276 0.17849 0.0250 Uiso
C60_4 C 0.7458 0.66961 0.0526 0.0250 Uiso
H36_4 H 0.7682 0.6375 0.0725 0.0250 Uiso
O27_2 O 0.6982 0.3018 0.6982 0.0250 Uiso
O28_2 O 0.6982 0.6982 0.3018 0.0250 Uiso
O29_3 O 0.65276 0.82151 0.27359 0.0250 Uiso
O30_2 O 0.27359 0.65276 0.82151 0.0250 Uiso
O31_2 O 0.82151 0.27359 0.65276 0.0250 Uiso
O32_3 O 0.57754 0.7429 0.3513 0.0250 Uiso
O33_2 O 0.3513 0.57754 0.7429 0.0250 Uiso
O34_2 O 0.7429 0.3513 0.57754 0.0250 Uiso
C15_4 C 0.2408 0.31546 0.992 0.0250 Uiso
H9_4 H 0.2096 0.3381 0.9708 0.0250 Uiso
C22_4 C 0.31546 0.2408 0.992 0.0250 Uiso
H12_4 H 0.3381 0.2096 0.9708 0.0250 Uiso
C55_4 C 0.68454 0.7592 0.992 0.0250 Uiso
H33_4 H 0.6619 0.7904 0.9708 0.0250 Uiso
C59_4 C 0.7592 0.68454 0.992 0.0250 Uiso
H35_4 H 0.7904 0.6619 0.9708 0.0250 Uiso
C1_2 C 0.31546 0.992 0.2408 0.0250 Uiso
H1_2 H 0.3381 0.9708 0.2096 0.0250 Uiso
C8_2 C 0.2408 0.992 0.31546 0.0250 Uiso
H4_2 H 0.2096 0.9708 0.3381 0.0250 Uiso
C49_2 C 0.7592 0.992 0.68454 0.0250 Uiso
H29_2 H 0.7904 0.9708 0.6619 0.0250 Uiso
C53_2 C 0.68454 0.992 0.7592 0.0250 Uiso
H31_2 H 0.6619 0.9708 0.7904 0.0250 Uiso
C29_3 C 0.992 0.2408 0.31546 0.0250 Uiso
H17_3 H 0.9708 0.2096 0.3381 0.0250 Uiso
C36_3 C 0.992 0.31546 0.2408 0.0250 Uiso
H20_3 H 0.9708 0.3381 0.2096 0.0250 Uiso
C43_3 C 0.992 0.68454 0.7592 0.0250 Uiso
H25_3 H 0.9708 0.6619 0.7904 0.0250 Uiso
C47_3 C 0.992 0.7592 0.68454 0.0250 Uiso
H27_3 H 0.9708 0.7904 0.6619 0.0250 Uiso
C29_4 C 0.2408 0.008 0.68454 0.0250 Uiso
H17_4 H 0.2096 0.0292 0.6619 0.0250 Uiso
C36_4 C 0.31546 0.008 0.7592 0.0250 Uiso
H20_4 H 0.3381 0.0292 0.7904 0.0250 Uiso
C43_4 C 0.68454 0.008 0.2408 0.0250 Uiso
H25_4 H 0.6619 0.0292 0.2096 0.0250 Uiso
C47_4 C 0.7592 0.008 0.31546 0.0250 Uiso
H27_4 H 0.7904 0.0292 0.3381 0.0250 Uiso
C15_5 C 0.31546 0.7592 0.008 0.0250 Uiso
H9_5 H 0.3381 0.7904 0.0292 0.0250 Uiso
C22_5 C 0.2408 0.68454 0.008 0.0250 Uiso
H12_5 H 0.2096 0.6619 0.0292 0.0250 Uiso
C55_5 C 0.7592 0.31546 0.008 0.0250 Uiso
H33_5 H 0.7904 0.3381 0.0292 0.0250 Uiso
C59_5 C 0.68454 0.2408 0.008 0.0250 Uiso
H35_5 H 0.6619 0.2096 0.0292 0.0250 Uiso
O8_4 O 0.34724 0.72641 0.82151 0.0250 Uiso
O9_4 O 0.42246 0.6487 0.7429 0.0250 Uiso
C16_5 C 0.33039 0.7458 0.9474 0.0250 Uiso
H10_5 H 0.3625 0.7682 0.9275 0.0250 Uiso
C17_5 C 0.29957 0.70043 0.9155 0.0250 Uiso
C18_5 C 0.30879 0.69121 0.8476 0.0250 Uiso
C19_5 C 0.4051 0.5949 0.7461 0.0250 Uiso
C20_5 C 0.4538 0.5462 0.7556 0.0250 Uiso
C21_2 C 0.5147 0.5615 0.7558 0.0250 Uiso
H11_2 H 0.5264 0.6038 0.7559 0.0250 Uiso
C23_5 C 0.2542 0.66961 0.9474 0.0250 Uiso
H13_5 H 0.2318 0.6375 0.9275 0.0250 Uiso
O11_5 O 0.6487 0.42246 0.7429 0.0250 Uiso
C24_5 C 0.5949 0.4051 0.7461 0.0250 Uiso
C25_5 C 0.5462 0.4538 0.7556 0.0250 Uiso
C26_2 C 0.5615 0.5147 0.7558 0.0250 Uiso
H14_2 H 0.6038 0.5264 0.7559 0.0250 Uiso
C27_2 C 0.4385 0.4853 0.7558 0.0250 Uiso
H15_2 H 0.3962 0.4736 0.7559 0.0250 Uiso
O13_5 O 0.57754 0.3513 0.7429 0.0250 Uiso
C28_2 C 0.4853 0.4385 0.7558 0.0250 Uiso
H16_2 H 0.4736 0.3962 0.7559 0.0250 Uiso
O14_4 O 0.27359 0.82151 0.65276 0.0250 Uiso
O15_4 O 0.3513 0.7429 0.57754 0.0250 Uiso
C30_4 C 0.2542 0.9474 0.66961 0.0250 Uiso
H18_4 H 0.2318 0.9275 0.6375 0.0250 Uiso
C31_4 C 0.29957 0.9155 0.70043 0.0250 Uiso
C32_4 C 0.30879 0.8476 0.69121 0.0250 Uiso
C33_4 C 0.4051 0.7461 0.5949 0.0250 Uiso
C34_4 C 0.4538 0.7556 0.5462 0.0250 Uiso
C35_2 C 0.4385 0.7558 0.4853 0.0250 Uiso
H19_2 H 0.3962 0.7559 0.4736 0.0250 Uiso
O16_4 O 0.34724 0.82151 0.72641 0.0250 Uiso
C37_4 C 0.33039 0.9474 0.7458 0.0250 Uiso
H21_4 H 0.3625 0.9275 0.7682 0.0250 Uiso
C38_4 C 0.5949 0.7461 0.4051 0.0250 Uiso
C39_4 C 0.5462 0.7556 0.4538 0.0250 Uiso
C40_2 C 0.4853 0.7558 0.4385 0.0250 Uiso
H22_2 H 0.4736 0.7559 0.3962 0.0250 Uiso
O18_4 O 0.42246 0.7429 0.6487 0.0250 Uiso
C41_2 C 0.5147 0.7558 0.5615 0.0250 Uiso
H23_2 H 0.5264 0.7559 0.6038 0.0250 Uiso
O19_4 O 0.6487 0.7429 0.42246 0.0250 Uiso
C42_2 C 0.5615 0.7558 0.5147 0.0250 Uiso
H24_2 H 0.6038 0.7559 0.5264 0.0250 Uiso
C44_4 C 0.66961 0.9474 0.2542 0.0250 Uiso
H26_4 H 0.6375 0.9275 0.2318 0.0250 Uiso
C45_4 C 0.70043 0.9155 0.29957 0.0250 Uiso
C46_4 C 0.69121 0.8476 0.30879 0.0250 Uiso
O22_4 O 0.72641 0.82151 0.34724 0.0250 Uiso
C48_4 C 0.7458 0.9474 0.33039 0.0250 Uiso
H28_4 H 0.7682 0.9275 0.3625 0.0250 Uiso
O25_5 O 0.72641 0.34724 0.82151 0.0250 Uiso
C56_5 C 0.7458 0.33039 0.9474 0.0250 Uiso
H34_5 H 0.7682 0.3625 0.9275 0.0250 Uiso
C57_5 C 0.70043 0.29957 0.9155 0.0250 Uiso
C58_5 C 0.69121 0.30879 0.8476 0.0250 Uiso
O26_5 O 0.65276 0.27359 0.82151 0.0250 Uiso
C60_5 C 0.66961 0.2542 0.9474 0.0250 Uiso
H36_5 H 0.6375 0.2318 0.9275 0.0250 Uiso
O29_4 O 0.82151 0.34724 0.72641 0.0250 Uiso
O32_4 O 0.7429 0.42246 0.6487 0.0250 Uiso
C15_6 C 0.008 0.31546 0.7592 0.0250 Uiso
H9_6 H 0.0292 0.3381 0.7904 0.0250 Uiso
C22_6 C 0.008 0.2408 0.68454 0.0250 Uiso
H12_6 H 0.0292 0.2096 0.6619 0.0250 Uiso
C55_6 C 0.008 0.7592 0.31546 0.0250 Uiso
H33_6 H 0.0292 0.7904 0.3381 0.0250 Uiso
C59_6 C 0.008 0.68454 0.2408 0.0250 Uiso
H35_6 H 0.0292 0.6619 0.2096 0.0250 Uiso
C16_6 C 0.9474 0.33039 0.7458 0.0250 Uiso
H10_6 H 0.9275 0.3625 0.7682 0.0250 Uiso
C17_6 C 0.9155 0.29957 0.70043 0.0250 Uiso
C18_6 C 0.8476 0.30879 0.69121 0.0250 Uiso
C19_6 C 0.7461 0.4051 0.5949 0.0250 Uiso
C20_6 C 0.7556 0.4538 0.5462 0.0250 Uiso
C21_3 C 0.7558 0.5147 0.5615 0.0250 Uiso
H11_3 H 0.7559 0.5264 0.6038 0.0250 Uiso
C23_6 C 0.9474 0.2542 0.66961 0.0250 Uiso
H13_6 H 0.9275 0.2318 0.6375 0.0250 Uiso
O11_6 O 0.7429 0.6487 0.42246 0.0250 Uiso
C24_6 C 0.7461 0.5949 0.4051 0.0250 Uiso
C25_6 C 0.7556 0.5462 0.4538 0.0250 Uiso
C26_3 C 0.7558 0.5615 0.5147 0.0250 Uiso
H14_3 H 0.7559 0.6038 0.5264 0.0250 Uiso
C27_3 C 0.7558 0.4385 0.4853 0.0250 Uiso
H15_3 H 0.7559 0.3962 0.4736 0.0250 Uiso
O13_6 O 0.7429 0.57754 0.3513 0.0250 Uiso
C28_3 C 0.7558 0.4853 0.4385 0.0250 Uiso
H16_3 H 0.7559 0.4736 0.3962 0.0250 Uiso
O25_6 O 0.82151 0.72641 0.34724 0.0250 Uiso
C56_6 C 0.9474 0.7458 0.33039 0.0250 Uiso
H34_6 H 0.9275 0.7682 0.3625 0.0250 Uiso
C57_6 C 0.9155 0.70043 0.29957 0.0250 Uiso
C58_6 C 0.8476 0.69121 0.30879 0.0250 Uiso
O26_6 O 0.82151 0.65276 0.27359 0.0250 Uiso
C60_6 C 0.9474 0.66961 0.2542 0.0250 Uiso
H36_6 H 0.9275 0.6375 0.2318 0.0250 Uiso
C7_2 C 0.0147 0.7442 0.9385 0.0250 Uiso
H3_2 H 0.0264 0.7441 0.8962 0.0250 Uiso
C12_2 C 0.0615 0.7442 0.9853 0.0250 Uiso
H6_2 H 0.1038 0.7441 0.9736 0.0250 Uiso
C27_4 C 0.0147 0.9385 0.7442 0.0250 Uiso
H15_4 H 0.0264 0.8962 0.7441 0.0250 Uiso
C28_4 C 0.0615 0.9853 0.7442 0.0250 Uiso
H16_4 H 0.1038 0.9736 0.7441 0.0250 Uiso
C27_5 C 0.2558 0.9385 0.9853 0.0250 Uiso
H15_5 H 0.2559 0.8962 0.9736 0.0250 Uiso
C28_5 C 0.2558 0.9853 0.9385 0.0250 Uiso
H16_5 H 0.2559 0.9736 0.8962 0.0250 Uiso
C21_4 C 0.9385 0.0147 0.7442 0.0250 Uiso
H11_4 H 0.8962 0.0264 0.7441 0.0250 Uiso
C26_4 C 0.9853 0.0615 0.7442 0.0250 Uiso
H14_4 H 0.9736 0.1038 0.7441 0.0250 Uiso
C41_3 C 0.7442 0.0147 0.9385 0.0250 Uiso
H23_3 H 0.7441 0.0264 0.8962 0.0250 Uiso
C42_3 C 0.7442 0.0615 0.9853 0.0250 Uiso
H24_3 H 0.7441 0.1038 0.9736 0.0250 Uiso
C35_3 C 0.9385 0.2558 0.9853 0.0250 Uiso
H19_3 H 0.8962 0.2559 0.9736 0.0250 Uiso
C40_3 C 0.9853 0.2558 0.9385 0.0250 Uiso
H22_3 H 0.9736 0.2559 0.8962 0.0250 Uiso
C13_2 C 0.9385 0.7442 0.0147 0.0250 Uiso
H7_2 H 0.8962 0.7441 0.0264 0.0250 Uiso
C14_2 C 0.9853 0.7442 0.0615 0.0250 Uiso
H8_2 H 0.9736 0.7441 0.1038 0.0250 Uiso
C35_4 C 0.7442 0.9385 0.0147 0.0250 Uiso
H19_4 H 0.7441 0.8962 0.0264 0.0250 Uiso
C40_4 C 0.7442 0.9853 0.0615 0.0250 Uiso
H22_4 H 0.7441 0.9736 0.1038 0.0250 Uiso
C27_6 C 0.9385 0.9853 0.2558 0.0250 Uiso
H15_6 H 0.8962 0.9736 0.2559 0.0250 Uiso
C28_6 C 0.9853 0.9385 0.2558 0.0250 Uiso
H16_6 H 0.9736 0.8962 0.2559 0.0250 Uiso
C21_5 C 0.0147 0.0615 0.2558 0.0250 Uiso
H11_5 H 0.0264 0.1038 0.2559 0.0250 Uiso
C26_5 C 0.0615 0.0147 0.2558 0.0250 Uiso
H14_5 H 0.1038 0.0264 0.2559 0.0250 Uiso
C41_4 C 0.0147 0.2558 0.0615 0.0250 Uiso
H23_4 H 0.0264 0.2559 0.1038 0.0250 Uiso
C42_4 C 0.0615 0.2558 0.0147 0.0250 Uiso
H24_4 H 0.1038 0.2559 0.0264 0.0250 Uiso
C21_6 C 0.2558 0.0147 0.0615 0.0250 Uiso
H11_6 H 0.2559 0.0264 0.1038 0.0250 Uiso
C26_6 C 0.2558 0.0615 0.0147 0.0250 Uiso
H14_6 H 0.2559 0.1038 0.0264 0.0250 Uiso
loop_
_geom_bond_atom_site_label_1
_geom_bond_atom_site_label_2
_geom_bond_site_symmetry_1
_geom_bond_site_symmetry_2
O11 C24 1_555 1_555
C24 C25 1_555 1_555
O13 C24 1_555 1_555
Cr6 O11 1_555 1_555
O25 Cr6 1_555 1_555
N6 C55 1_555 1_555
C55 H33 1_555 1_555
C56 C55 1_555 1_555
H34 C56 1_555 1_555
C57 C56 1_555 1_555
C58 O25 1_555 1_555
O26 C58 1_555 1_555
C59 N6 1_555 1_555
H35 C59 1_555 1_555
C60 C57 1_555 1_555
H36 C60 1_555 1_555
Cr9 O13 1_555 1_555
Cr13 N6 1_555 1_555
O28 Cr6 1_555 1_555
O29 Cr6 1_555 1_555
O32 Cr6 1_555 1_555
N12 Cr6 1_555 1_555
C57 C58 1_555 1_555
O26 Cr9 1_555 1_555
C59 C60 1_555 1_555
Cr9 O28 1_555 1_555
O5 C10 1_555 1_555
C10 C11 1_555 1_555
O7 C10 1_555 1_555
Cr5 O5 1_555 1_555
O23 Cr5 1_555 1_555
N5 C49 1_555 1_555
C49 H29 1_555 1_555
C50 C49 1_555 1_555
H30 C50 1_555 1_555
C51 C50 1_555 1_555
C52 O23 1_555 1_555
O24 C52 1_555 1_555
C53 N5 1_555 1_555
H31 C53 1_555 1_555
C54 C51 1_555 1_555
H32 C54 1_555 1_555
Cr10 O7 1_555 1_555
Cr12 N5 1_555 1_555
O27 Cr5 1_555 1_555
O31 Cr5 1_555 1_555
O34 Cr5 1_555 1_555
N11 Cr5 1_555 1_555
C51 C52 1_555 1_555
O24 Cr10 1_555 1_555
C53 C54 1_555 1_555
Cr10 O27 1_555 1_555
O17 C38 1_555 1_555
C38 C39 1_555 1_555
O19 C38 1_555 1_555
Cr4 O17 1_555 1_555
O20 Cr4 1_555 1_555
O21 Cr4 1_555 1_555
N4 C43 1_555 1_555
C43 H25 1_555 1_555
C44 C43 1_555 1_555
H26 C44 1_555 1_555
C45 C44 1_555 1_555
C46 O21 1_555 1_555
O22 C46 1_555 1_555
C47 N4 1_555 1_555
H27 C47 1_555 1_555
C48 C45 1_555 1_555
H28 C48 1_555 1_555
Cr7 O20 1_555 1_555
Cr8 O19 1_555 1_555
Cr11 N4 1_555 1_555
O30 Cr4 1_555 1_555
O33 Cr4 1_555 1_555
N10 Cr4 1_555 1_555
O20 Cr8 1_555 1_555
C45 C46 1_555 1_555
O22 Cr8 1_555 1_555
C47 C48 1_555 1_555
Cr1 O1 1_555 1_555
O1 Cr2 1_555 1_555
O2 Cr1 1_555 1_555
O3 Cr1 1_555 1_555
N1 C1 1_555 1_555
C1 H1 1_555 1_555
C2 C1 1_555 1_555
H2 C2 1_555 1_555
C3 C2 1_555 1_555
C4 O2 1_555 1_555
C5 O3 1_555 1_555
C6 C5 1_555 1_555
O4 C4 1_555 1_555
C8 N1 1_555 1_555
H4 C8 1_555 1_555
C9 C3 1_555 1_555
H5 C9 1_555 1_555
O6 C5 1_555 1_555
Cr2 O8 1_555 1_555
O8 C18 1_555 1_555
O9 Cr2 1_555 1_555
N2 C15 1_555 1_555
C15 H9 1_555 1_555
C16 C15 1_555 1_555
H10 C16 1_555 1_555
C17 C16 1_555 1_555
C18 C17 1_555 1_555
C19 O9 1_555 1_555
C20 C19 1_555 1_555
O10 Cr1 1_555 1_555
C22 N2 1_555 1_555
H12 C22 1_555 1_555
C23 C17 1_555 1_555
H13 C23 1_555 1_555
O12 Cr1 1_555 1_555
Cr3 O1 1_555 1_555
O14 Cr3 1_555 1_555
O15 Cr3 1_555 1_555
N3 C29 1_555 1_555
C29 H17 1_555 1_555
C30 C29 1_555 1_555
H18 C30 1_555 1_555
C31 C30 1_555 1_555
C32 O14 1_555 1_555
C33 O15 1_555 1_555
C34 C33 1_555 1_555
O16 Cr2 1_555 1_555
C36 N3 1_555 1_555
H20 C36 1_555 1_555
C37 C31 1_555 1_555
H21 C37 1_555 1_555
O18 Cr2 1_555 1_555
Cr14 N1 1_555 1_555
Cr15 N2 1_555 1_555
Cr16 N3 1_555 1_555
N7 Cr1 1_555 1_555
N8 Cr2 1_555 1_555
N9 Cr3 1_555 1_555
C3 C4 1_555 1_555
O4 Cr3 1_555 1_555
C8 C9 1_555 1_555
O6 Cr3 1_555 1_555
C18 O10 1_555 1_555
C19 O12 1_555 1_555
C22 C23 1_555 1_555
C31 C32 1_555 1_555
C32 O16 1_555 1_555
C33 O18 1_555 1_555
C36 C37 1_555 1_555
Cr7_2 O27 1_555 1_555
Cr7_3 O28 1_555 1_555
O32 C38_2 1_555 1_555
C38_2 C39_2 1_555 1_555
O19_2 C38_2 1_555 1_555
N4_2 C43_2 1_555 1_555
C43_2 H25_2 1_555 1_555
C44_2 C43_2 1_555 1_555
H26_2 C44_2 1_555 1_555
C45_2 C44_2 1_555 1_555
C46_2 O29 1_555 1_555
O22_2 C46_2 1_555 1_555
C47_2 N4_2 1_555 1_555
H27_2 C47_2 1_555 1_555
C48_2 C45_2 1_555 1_555
H28_2 C48_2 1_555 1_555
Cr7_3 O19_2 1_555 1_555
Cr11_2 N4_2 1_555 1_555
C45_2 C46_2 1_555 1_555
O22_2 Cr7_3 1_555 1_555
C47_2 C48_2 1_555 1_555
O11_2 C24_2 1_555 1_555
C24_2 C25_2 1_555 1_555
O13_2 C24_2 1_555 1_555
Cr7_2 O11_2 1_555 1_555
O25_2 Cr7_2 1_555 1_555
N6_2 C55_2 1_555 1_555
C55_2 H33_2 1_555 1_555
C56_2 C55_2 1_555 1_555
H34_2 C56_2 1_555 1_555
C57_2 C56_2 1_555 1_555
C58_2 O25_2 1_555 1_555
O26_2 C58_2 1_555 1_555
C59_2 N6_2 1_555 1_555
H35_2 C59_2 1_555 1_555
C60_2 C57_2 1_555 1_555
H36_2 C60_2 1_555 1_555
Cr10 O13_2 1_555 1_555
Cr13_2 N6_2 1_555 1_555
O29_2 Cr7_2 1_555 1_555
O32_2 Cr7_2 1_555 1_555
N12_2 Cr7_2 1_555 1_555
C57_2 C58_2 1_555 1_555
O26_2 Cr10 1_555 1_555
C59_2 C60_2 1_555 1_555
Cr7 O8_2 1_555 1_555
O8_2 C18_2 1_555 1_555
O9_2 Cr7 1_555 1_555
N2_2 C15_2 1_555 1_555
C15_2 H9_2 1_555 1_555
C16_2 C15_2 1_555 1_555
H10_2 C16_2 1_555 1_555
C17_2 C16_2 1_555 1_555
C18_2 C17_2 1_555 1_555
C19_2 O9_2 1_555 1_555
C20_2 C19_2 1_555 1_555
C22_2 N2_2 1_555 1_555
H12_2 C22_2 1_555 1_555
C23_2 C17_2 1_555 1_555
H13_2 C23_2 1_555 1_555
O14_2 Cr8 1_555 1_555
O15_2 Cr8 1_555 1_555
N3_2 C29_2 1_555 1_555
C29_2 H17_2 1_555 1_555
C30_2 C29_2 1_555 1_555
H18_2 C30_2 1_555 1_555
C31_2 C30_2 1_555 1_555
C32_2 O14_2 1_555 1_555
C33_2 O15_2 1_555 1_555
C34_2 C33_2 1_555 1_555
O16_2 Cr7 1_555 1_555
C36_2 N3_2 1_555 1_555
H20_2 C36_2 1_555 1_555
C37_2 C31_2 1_555 1_555
H21_2 C37_2 1_555 1_555
O18_2 Cr7 1_555 1_555
Cr15_2 N2_2 1_555 1_555
Cr16_2 N3_2 1_555 1_555
N8_2 Cr7 1_555 1_555
N9_2 Cr8 1_555 1_555
C18_2 O30 1_555 1_555
C19_2 O33 1_555 1_555
C22_2 C23_2 1_555 1_555
C31_2 C32_2 1_555 1_555
C32_2 O16_2 1_555 1_555
C33_2 O18_2 1_555 1_555
C36_2 C37_2 1_555 1_555
O11_3 C24_3 1_555 1_555
C24_3 C25_3 1_555 1_555
O13_3 C24_3 1_555 1_555
Cr7_3 O11_3 1_555 1_555
O25_3 Cr7_3 1_555 1_555
N6_3 C55_3 1_555 1_555
C55_3 H33_3 1_555 1_555
C56_3 C55_3 1_555 1_555
H34_3 C56_3 1_555 1_555
C57_3 C56_3 1_555 1_555
C58_3 O25_3 1_555 1_555
O26_3 C58_3 1_555 1_555
C59_3 N6_3 1_555 1_555
H35_3 C59_3 1_555 1_555
C60_3 C57_3 1_555 1_555
H36_3 C60_3 1_555 1_555
Cr9 O13_3 1_555 1_555
Cr13_3 N6_3 1_555 1_555
N12_3 Cr7_3 1_555 1_555
C57_3 C58_3 1_555 1_555
O26_3 Cr9 1_555 1_555
C59_3 C60_3 1_555 1_555
O29_2 C18_3 1_555 1_555
N2_3 C15_3 1_555 1_555
C15_3 H9_3 1_555 1_555
C16_3 C15_3 1_555 1_555
H10_3 C16_3 1_555 1_555
C17_3 C16_3 1_555 1_555
C18_3 C17_3 1_555 1_555
C19_3 O32_2 1_555 1_555
C20_3 C19_3 1_555 1_555
C22_3 N2_3 1_555 1_555
H12_3 C22_3 1_555 1_555
C23_3 C17_3 1_555 1_555
H13_3 C23_3 1_555 1_555
Cr15_3 N2_3 1_555 1_555
N9_3 Cr10 1_555 1_555
C18_3 O31 1_555 1_555
C19_3 O34 1_555 1_555
C22_3 C23_3 1_555 1_555
N9_4 Cr9 1_555 1_555
Cr11 O1_2 1_555 1_555
O1_2 Cr12 1_555 1_555
O2_2 Cr11 1_555 1_555
O3_2 Cr11 1_555 1_555
H2_2 C2_2 1_555 1_555
C3_2 C2_2 1_555 1_555
C4_2 O2_2 1_555 1_555
C5_2 O3_2 1_555 1_555
C6_2 C5_2 1_555 1_555
C7 C6_2 1_555 1_555
H3 C7 1_555 1_555
O4_2 C4_2 1_555 1_555
C9_2 C3_2 1_555 1_555
H5_2 C9_2 1_555 1_555
O5_2 C10_2 1_555 1_555
C10_2 C11_2 1_555 1_555
C11_2 C12 1_555 1_555
C12 C7 1_555 1_555
H6 C12 1_555 1_555
O6_2 C5_2 1_555 1_555
C13 C6_2 1_555 1_555
H7 C13 1_555 1_555
O7_2 C10_2 1_555 1_555
C14 C11_2 1_555 1_555
H8 C14 1_555 1_555
Cr12 O8_3 1_555 1_555
O8_3 C18_4 1_555 1_555
O9_3 Cr12 1_555 1_555
H10_4 C16_4 1_555 1_555
C17_4 C16_4 1_555 1_555
C18_4 C17_4 1_555 1_555
C19_4 O9_3 1_555 1_555
C20_4 C19_4 1_555 1_555
C21 C20_4 1_555 1_555
H11 C21 1_555 1_555
O10_2 Cr11 1_555 1_555
C23_4 C17_4 1_555 1_555
H13_4 C23_4 1_555 1_555
O11_4 C24_4 1_555 1_555
C24_4 C25_4 1_555 1_555
C25_4 C26 1_555 1_555
C26 C21 1_555 1_555
H14 C26 1_555 1_555
O12_2 Cr11 1_555 1_555
C27 C20_4 1_555 1_555
H15 C27 1_555 1_555
O13_4 C24_4 1_555 1_555
C28 C25_4 1_555 1_555
H16 C28 1_555 1_555
Cr13 O1_2 1_555 1_555
O14_3 Cr13 1_555 1_555
O15_3 Cr13 1_555 1_555
H18_3 C30_3 1_555 1_555
C31_3 C30_3 1_555 1_555
C32_3 O14_3 1_555 1_555
C33_3 O15_3 1_555 1_555
C34_3 C33_3 1_555 1_555
C35 C34_3 1_555 1_555
H19 C35 1_555 1_555
O16_3 Cr12 1_555 1_555
C37_3 C31_3 1_555 1_555
H21_3 C37_3 1_555 1_555
O17_2 C38_3 1_555 1_555
C38_3 C39_3 1_555 1_555
C39_3 C40 1_555 1_555
C40 C35 1_555 1_555
H22 C40 1_555 1_555
O18_3 Cr12 1_555 1_555
C41 C34_3 1_555 1_555
H23 C41 1_555 1_555
O19_3 C38_3 1_555 1_555
C42 C39_3 1_555 1_555
H24 C42 1_555 1_555
Cr11_2 O17_2 1_555 1_555
O20_2 Cr11_2 1_555 1_555
O21_2 Cr11_2 1_555 1_555
H26_3 C44_3 1_555 1_555
C45_3 C44_3 1_555 1_555
C46_3 O21_2 1_555 1_555
O22_3 C46_3 1_555 1_555
C48_3 C45_3 1_555 1_555
H28_3 C48_3 1_555 1_555
Cr15_2 O5_2 1_555 1_555
O23_2 Cr15_2 1_555 1_555
H30_2 C50_2 1_555 1_555
C51_2 C50_2 1_555 1_555
C52_2 O23_2 1_555 1_555
O24_2 C52_2 1_555 1_555
C54_2 C51_2 1_555 1_555
H32_2 C54_2 1_555 1_555
Cr15_3 O11_4 1_555 1_555
O25_4 Cr15_3 1_555 1_555
H34_4 C56_4 1_555 1_555
C57_4 C56_4 1_555 1_555
C58_4 O25_4 1_555 1_555
O26_4 C58_4 1_555 1_555
C60_4 C57_4 1_555 1_555
H36_4 C60_4 1_555 1_555
Cr16 O20_2 1_555 1_555
Cr13_2 O19_3 1_555 1_555
Cr16_2 O13_4 1_555 1_555
Cr13_3 O7_2 1_555 1_555
O27_2 Cr15_2 1_555 1_555
O28_2 Cr15_3 1_555 1_555
O29_3 Cr15_3 1_555 1_555
O30_2 Cr11_2 1_555 1_555
O31_2 Cr15_2 1_555 1_555
O32_3 Cr15_3 1_555 1_555
O33_2 Cr11_2 1_555 1_555
O34_2 Cr15_2 1_555 1_555
C3_2 C4_2 1_555 1_555
O4_2 Cr13 1_555 1_555
O6_2 Cr13 1_555 1_555
C13 C14 1_555 1_555
C18_4 O10_2 1_555 1_555
C19_4 O12_2 1_555 1_555
C27 C28 1_555 1_555
C31_3 C32_3 1_555 1_555
C32_3 O16_3 1_555 1_555
C33_3 O18_3 1_555 1_555
C41 C42 1_555 1_555
O20_2 Cr13_2 1_555 1_555
C45_3 C46_3 1_555 1_555
O22_3 Cr13_2 1_555 1_555
C51_2 C52_2 1_555 1_555
O24_2 Cr13_3 1_555 1_555
C57_4 C58_4 1_555 1_555
O26_4 Cr16_2 1_555 1_555
Cr16_2 O28_2 1_555 1_555
Cr13_3 O27_2 1_555 1_555
N12_3 C15_4 1_555 1_555
C15_4 H9_4 1_555 1_555
C22_4 N12_3 1_555 1_555
H12_4 C22_4 1_555 1_555
N9 C55_4 1_555 1_555
C55_4 H33_4 1_555 1_555
C59_4 N9 1_555 1_555
H35_4 C59_4 1_555 1_555
N12_2 C1_2 1_555 1_555
C1_2 H1_2 1_555 1_555
C8_2 N12_2 1_555 1_555
H4_2 C8_2 1_555 1_555
N8 C49_2 1_555 1_555
C49_2 H29_2 1_555 1_555
C53_2 N8 1_555 1_555
H31_2 C53_2 1_555 1_555
N8_2 C29_3 1_555 1_555
C29_3 H17_3 1_555 1_555
C36_3 N8_2 1_555 1_555
H20_3 C36_3 1_555 1_555
N7 C43_3 1_555 1_555
C43_3 H25_3 1_555 1_555
C47_3 N7 1_555 1_555
H27_3 C47_3 1_555 1_555
Cr14 O27_2 1_555 1_555
Cr15 O28_2 1_555 1_555
N9_4 C29_4 1_555 1_555
C29_4 H17_4 1_555 1_555
C36_4 N9_4 1_555 1_555
H20_4 C36_4 1_555 1_555
N10 C43_4 1_555 1_555
C43_4 H25_4 1_555 1_555
C47_4 N10 1_555 1_555
H27_4 C47_4 1_555 1_555
N11 C15_5 1_555 1_555
C15_5 H9_5 1_555 1_555
C22_5 N11 1_555 1_555
H12_5 C22_5 1_555 1_555
N9_2 C55_5 1_555 1_555
C55_5 H33_5 1_555 1_555
C59_5 N9_2 1_555 1_555
H35_5 C59_5 1_555 1_555
Cr16 O8_4 1_555 1_555
O8_4 C18_5 1_555 1_555
O9_4 Cr16 1_555 1_555
H10_5 C16_5 1_555 1_555
C17_5 C16_5 1_555 1_555
C18_5 C17_5 1_555 1_555
C19_5 O9_4 1_555 1_555
C20_5 C19_5 1_555 1_555
C21_2 C20_5 1_555 1_555
H11_2 C21_2 1_555 1_555
C23_5 C17_5 1_555 1_555
H13_5 C23_5 1_555 1_555
O11_5 C24_5 1_555 1_555
C24_5 C25_5 1_555 1_555
C25_5 C26_2 1_555 1_555
C26_2 C21_2 1_555 1_555
H14_2 C26_2 1_555 1_555
C27_2 C20_5 1_555 1_555
H15_2 C27_2 1_555 1_555
O13_5 C24_5 1_555 1_555
C28_2 C25_5 1_555 1_555
H16_2 C28_2 1_555 1_555
O14_4 Cr13_2 1_555 1_555
O15_4 Cr13_2 1_555 1_555
H18_4 C30_4 1_555 1_555
C31_4 C30_4 1_555 1_555
C32_4 O14_4 1_555 1_555
C33_4 O15_4 1_555 1_555
C34_4 C33_4 1_555 1_555
C35_2 C34_4 1_555 1_555
H19_2 C35_2 1_555 1_555
O16_4 Cr16 1_555 1_555
C37_4 C31_4 1_555 1_555
H21_4 C37_4 1_555 1_555
O32_3 C38_4 1_555 1_555
C38_4 C39_4 1_555 1_555
C39_4 C40_2 1_555 1_555
C40_2 C35_2 1_555 1_555
H22_2 C40_2 1_555 1_555
O18_4 Cr16 1_555 1_555
C41_2 C34_4 1_555 1_555
H23_2 C41_2 1_555 1_555
O19_4 C38_4 1_555 1_555
C42_2 C39_4 1_555 1_555
H24_2 C42_2 1_555 1_555
H26_4 C44_4 1_555 1_555
C45_4 C44_4 1_555 1_555
C46_4 O29_3 1_555 1_555
O22_4 C46_4 1_555 1_555
C48_4 C45_4 1_555 1_555
H28_4 C48_4 1_555 1_555
Cr14 O11_5 1_555 1_555
O25_5 Cr14 1_555 1_555
H34_5 C56_5 1_555 1_555
C57_5 C56_5 1_555 1_555
C58_5 O25_5 1_555 1_555
O26_5 C58_5 1_555 1_555
C60_5 C57_5 1_555 1_555
H36_5 C60_5 1_555 1_555
Cr15 O19_4 1_555 1_555
Cr13_3 O13_5 1_555 1_555
O29_4 Cr14 1_555 1_555
O32_4 Cr14 1_555 1_555
C18_5 O30_2 1_555 1_555
C19_5 O33_2 1_555 1_555
C27_2 C28_2 1_555 1_555
C31_4 C32_4 1_555 1_555
C32_4 O16_4 1_555 1_555
C33_4 O18_4 1_555 1_555
C41_2 C42_2 1_555 1_555
C45_4 C46_4 1_555 1_555
O22_4 Cr15 1_555 1_555
C57_5 C58_5 1_555 1_555
O26_5 Cr13_3 1_555 1_555
N12 C15_6 1_555 1_555
C15_6 H9_6 1_555 1_555
C22_6 N12 1_555 1_555
H12_6 C22_6 1_555 1_555
N9_3 C55_6 1_555 1_555
C55_6 H33_6 1_555 1_555
C59_6 N9_3 1_555 1_555
H35_6 C59_6 1_555 1_555
O29_4 C18_6 1_555 1_555
H10_6 C16_6 1_555 1_555
C17_6 C16_6 1_555 1_555
C18_6 C17_6 1_555 1_555
C19_6 O32_4 1_555 1_555
C20_6 C19_6 1_555 1_555
C21_3 C20_6 1_555 1_555
H11_3 C21_3 1_555 1_555
C23_6 C17_6 1_555 1_555
H13_6 C23_6 1_555 1_555
O11_6 C24_6 1_555 1_555
C24_6 C25_6 1_555 1_555
C25_6 C26_3 1_555 1_555
C26_3 C21_3 1_555 1_555
H14_3 C26_3 1_555 1_555
C27_3 C20_6 1_555 1_555
H15_3 C27_3 1_555 1_555
O13_6 C24_6 1_555 1_555
C28_3 C25_6 1_555 1_555
H16_3 C28_3 1_555 1_555
Cr15 O11_6 1_555 1_555
O25_6 Cr15 1_555 1_555
H34_6 C56_6 1_555 1_555
C57_6 C56_6 1_555 1_555
C58_6 O25_6 1_555 1_555
O26_6 C58_6 1_555 1_555
C60_6 C57_6 1_555 1_555
H36_6 C60_6 1_555 1_555
Cr16_2 O13_6 1_555 1_555
C18_6 O31_2 1_555 1_555
C19_6 O34_2 1_555 1_555
C27_3 C28_3 1_555 1_555
C57_6 C58_6 1_555 1_555
O26_6 Cr16_2 1_555 1_555
H3_2 C7_2 1_555 1_555
C12_2 C7_2 1_555 1_555
H6_2 C12_2 1_555 1_555
H15_4 C27_4 1_555 1_555
H16_4 C28_4 1_555 1_555
C27_4 C28_4 1_555 1_555
H15_5 C27_5 1_555 1_555
H16_5 C28_5 1_555 1_555
C27_5 C28_5 1_555 1_555
H11_4 C21_4 1_555 1_555
C26_4 C21_4 1_555 1_555
H14_4 C26_4 1_555 1_555
H23_3 C41_3 1_555 1_555
H24_3 C42_3 1_555 1_555
C41_3 C42_3 1_555 1_555
H19_3 C35_3 1_555 1_555
C40_3 C35_3 1_555 1_555
H22_3 C40_3 1_555 1_555
H7_2 C13_2 1_555 1_555
H8_2 C14_2 1_555 1_555
H19_4 C35_4 1_555 1_555
C40_4 C35_4 1_555 1_555
H22_4 C40_4 1_555 1_555
C13_2 C14_2 1_555 1_555
H15_6 C27_6 1_555 1_555
H16_6 C28_6 1_555 1_555
C27_6 C28_6 1_555 1_555
H11_5 C21_5 1_555 1_555
C26_5 C21_5 1_555 1_555
H14_5 C26_5 1_555 1_555
H23_4 C41_4 1_555 1_555
H24_4 C42_4 1_555 1_555
C41_4 C42_4 1_555 1_555
H11_6 C21_6 1_555 1_555
C26_6 C21_6 1_555 1_555
H14_6 C26_6 1_555 1_555

#END
