
###############################################################################
#
# This file contains modified crystal structure data generated from the
# MOF subset of the Cambridge Structural Database (CSD) v543 
# hosted by the Cambridge Crystallographic Data Centre (CCDC).
#
# This work is licensed under the Creative Commons
# Attribution-NonCommercial-ShareAlike 4.0 International License.
# To view a copy of this license, visit
# http://creativecommons.org/licenses/by-nc-sa/4.0/
# or send a letter to
# Creative Commons, PO Box 1866, Mountain View, CA 94042, USA.
#
# CIF created using the CSD Python API on 29 September 2022
# The structure has been converted into the P1 space group
# The structure has a 3D framework
# The original CSD entry YAHPED is in the monoclinic crystal system
# The framework has been calculated to contain at least 10.0% void space
# The void calculation uses a probe of radius 1.32A, grid spacing 0.4
#
###############################################################################

data_YAHPED
_chemical_formula_moiety         '(C80 H48 N8 Ni1 O20)n'
_symmetry_cell_setting           triclinic
_symmetry_space_group_name_H-M   'P 1'
_symmetry_Int_Tables_number      1
_space_group_name_Hall           'P 1'
loop_
_symmetry_equiv_pos_site_id
_symmetry_equiv_pos_as_xyz
1 x,y,z
_cell_length_a                   11.248(2)
_cell_length_b                   16.801(4)
_cell_length_c                   14.945(3)
_cell_angle_alpha                90.00
_cell_angle_beta                 103.732(4)
_cell_angle_gamma                90.00
_cell_volume                     2743.54
loop_
_atom_site_label
_atom_site_type_symbol
_atom_site_fract_x
_atom_site_fract_y
_atom_site_fract_z
C2 C 0.2449(6) 0.0164(4) 0.1799(5)
H3 H 0.2116 0.0577 0.2100
C4 C 0.3674(6) 0.0212(4) 0.1761(5)
H5 H 0.4162 0.0649 0.2034
C8 C 0.6248(7) 0.0258(4) 0.1632(7)
H7 H 0.5935 0.0706 0.1888
C10 C 0.7485(7) 0.0231(4) 0.1604(7)
H9 H 0.7993 0.0665 0.1860
Ni6 Ni 0.01458(7) 0.45990(4) 0.36709(6)
O7 O 0.0091(5) 0.3427(3) 0.3021(3)
C30 C 0.0220(6) 0.1160(3) 0.0621(4)
C31 C 0.0079(6) 0.3309(4) 0.1433(5)
C32 C 0.0144(6) 0.3713(4) 0.0642(4)
H22 H 0.0091 0.4278 0.0629
C33 C 0.0095(6) 0.2473(3) 0.1438(4)
H23 H 0.0013 0.2188 0.1969
C35 C 0.0231(6) 0.2069(4) 0.0659(5)
C38 C 0.0000(6) 0.3765(4) 0.2270(4)
Ni7 Ni 0.01458(7) 0.04010(4) 0.86709(6)
O13 O 0.0566(4) 0.0847(2) 0.9966(3)
O16 O 0.0918(5) 0.3494(3) 0.8472(4)
C34 C 0.0286(6) 0.3304(4) 0.9861(5)
C36 C 0.0363(6) 0.2471(3) 0.9881(5)
H24 H 0.0504 0.2187 0.9367
C37 C 0.0378(7) 0.3734(4) 0.9017(5)
N1 N 0.1726(5) 0.9560(3) 0.1427(4)
N2 N 0.7985(5) 0.9642(3) 0.1245(4)
O2 O 0.0128(5) 0.9527(2) 0.2775(3)
O3 O 0.0148(4) 0.5797(2) 0.3763(3)
O6 O 0.0231(5) 0.9406(3) 0.6062(4)
H1 H 0.0308 0.9588 0.6596
C1 C 0.2227(6) 0.8980(4) 0.1026(5)
H2 H 0.1728 0.8541 0.0772
C3 C 0.3427(6) 0.8986(4) 0.0963(5)
H4 H 0.3743 0.8559 0.0673
C5 C 0.4170(7) 0.9622(4) 0.1328(5)
C6 C 0.5488(6) 0.9628(4) 0.1286(4)
C7 C 0.6001(7) 0.9023(5) 0.0889(8)
H6 H 0.5516 0.8582 0.0620
C9 C 0.7235(7) 0.9055(5) 0.0881(7)
H8 H 0.7562 0.8629 0.0597
C19 C 0.0000(6) 0.8765(4) 0.2730(4)
Ni3 Ni 0.98542(7) 0.95990(4) 0.13291(6)
O9 O 0.9872(5) 0.4527(2) 0.2225(3)
O11 O 0.9852(4) 0.0797(2) 0.1237(3)
C38_2 C 1.0000(6) 0.3765(4) 0.2270(4)
O1 O 0.9909(5) 0.8427(3) 0.1979(3)
O4 O 0.9434(4) 0.5847(2) 0.5034(3)
O5 O 0.9082(5) 0.8494(3) 0.6528(4)
C11 C 0.9780(6) 0.6160(3) 0.4379(4)
C12 C 0.9921(6) 0.8309(4) 0.3567(5)
C13 C 0.9856(6) 0.8713(4) 0.4358(4)
H10 H 0.9909 0.9278 0.4371
C14 C 0.9905(6) 0.7473(3) 0.3562(4)
H11 H 0.9987 0.7188 0.3031
C15 C 0.9714(6) 0.8304(4) 0.5139(5)
C16 C 0.9769(6) 0.7069(4) 0.4341(5)
C17 C 0.9637(6) 0.7471(3) 0.5119(5)
H12 H 0.9496 0.7187 0.5633
C18 C 0.9622(7) 0.8734(4) 0.5983(5)
C19_2 C 1.0000(6) 0.8765(4) 0.2730(4)
Ni5 Ni 0.98542(7) 0.54010(4) 0.63291(6)
O14 O 0.9434(4) 0.9153(2) 0.0034(3)
N5 N 0.2015(5) 0.4642(3) 0.3755(4)
O15 O 0.0566(4) 0.4153(2) 0.4966(3)
N3 N 0.8274(5) 0.4560(3) 0.3573(4)
C20 C 0.7773(6) 0.3980(4) 0.3974(5)
H14 H 0.8272 0.3541 0.4228
C21 C 0.7551(6) 0.5164(4) 0.3201(5)
H15 H 0.7884 0.5577 0.2900
C22 C 0.6573(6) 0.3986(4) 0.4037(5)
H16 H 0.6257 0.3559 0.4327
C23 C 0.6326(6) 0.5212(4) 0.3239(5)
H17 H 0.5838 0.5649 0.2966
C24 C 0.5830(7) 0.4622(4) 0.3672(5)
C25 C 0.4512(6) 0.4628(4) 0.3714(4)
C26 C 0.3999(7) 0.4023(5) 0.4111(8)
H18 H 0.4484 0.3582 0.4380
C27 C 0.3752(7) 0.5258(4) 0.3368(7)
H19 H 0.4065 0.5706 0.3112
C28 C 0.2765(7) 0.4055(5) 0.4119(7)
H20 H 0.2438 0.3629 0.4403
C29 C 0.2515(7) 0.5231(4) 0.3396(7)
H21 H 0.2007 0.5665 0.3140
N5_2 N 0.2015(5) 0.0358(3) 0.8755(4)
O8 O 0.0091(5) 0.1573(3) 0.8021(3)
O12 O 0.0148(4) 0.9203(2) 0.8763(3)
O5_2 O 0.0918(5) 0.1506(3) 0.3472(4)
C11_2 C 0.0220(6) 0.3840(3) 0.5621(4)
C12_2 C 0.0079(6) 0.1691(4) 0.6433(5)
C13_2 C 0.0144(6) 0.1287(4) 0.5642(4)
H10_2 H 0.0091 0.0722 0.5629
C14_2 C 0.0095(6) 0.2527(3) 0.6438(4)
H11_2 H 0.0013 0.2812 0.6969
C15_2 C 0.0286(6) 0.1696(4) 0.4861(5)
C16_2 C 0.0231(6) 0.2931(4) 0.5659(5)
C17_2 C 0.0363(6) 0.2529(3) 0.4881(5)
H12_2 H 0.0504 0.2813 0.4367
C18_2 C 0.0378(7) 0.1266(4) 0.4017(5)
C19_3 C -0.0000(6) 0.1235(4) 0.7270(4)
N3_2 N 0.8274(5) 0.0440(3) 0.8573(4)
O10 O 0.9872(5) 0.0473(2) 0.7225(3)
C20_2 C 0.7773(6) 0.1020(4) 0.8974(5)
H14_2 H 0.8272 0.1459 0.9228
C22_2 C 0.6573(6) 0.1014(4) 0.9037(5)
H16_2 H 0.6257 0.1441 0.9327
C24_2 C 0.5830(7) 0.0378(4) 0.8672(5)
C25_2 C 0.4512(6) 0.0372(4) 0.8714(4)
C26_2 C 0.3999(7) 0.0977(5) 0.9111(8)
H18_2 H 0.4484 0.1418 0.9380
C28_2 C 0.2765(7) 0.0945(5) 0.9119(7)
H20_2 H 0.2438 0.1371 0.9403
O9_2 O 0.0128(5) 0.5473(2) 0.7775(3)
C21_2 C 0.7551(6) 0.9836(4) 0.8201(5)
H15_2 H 0.7884 0.9423 0.7900
C23_2 C 0.6326(6) 0.9788(4) 0.8239(5)
H17_2 H 0.5838 0.9351 0.7966
C27_2 C 0.3752(7) 0.9742(4) 0.8368(7)
H19_2 H 0.4065 0.9294 0.8112
C29_2 C 0.2515(7) 0.9769(4) 0.8396(7)
H21_2 H 0.2007 0.9335 0.8140
C38_3 C -0.0000(6) 0.6235(4) 0.7730(4)
O3_2 O 0.9852(4) 0.4203(2) 0.6237(3)
O6_2 O 0.9769(5) 0.0594(3) 0.3938(4)
H1_2 H 0.9692 0.0412 0.3404
C19_4 C 1.0000(6) 0.1235(4) 0.7270(4)
O16_2 O 0.9082(5) 0.6506(3) 0.1528(4)
C34_2 C 0.9714(6) 0.6696(4) 0.0139(5)
C36_2 C 0.9637(6) 0.7529(3) 0.0119(5)
H24_2 H 0.9496 0.7813 0.0633
C37_2 C 0.9622(7) 0.6266(4) 0.0983(5)
O7_2 O 0.9909(5) 0.6573(3) 0.6979(3)
C30_2 C 0.9780(6) 0.8840(3) 0.9379(4)
C31_2 C 0.9921(6) 0.6691(4) 0.8567(5)
C32_2 C 0.9856(6) 0.6287(4) 0.9358(4)
H22_2 H 0.9909 0.5722 0.9371
C33_2 C 0.9905(6) 0.7527(3) 0.8562(4)
H23_2 H 0.9987 0.7812 0.8031
C35_2 C 0.9769(6) 0.7931(4) 0.9341(5)
C38_4 C 1.0000(6) 0.6235(4) 0.7730(4)
N1_2 N 0.1726(5) 0.5440(3) 0.6427(4)
N2_2 N 0.7985(5) 0.5358(3) 0.6245(4)
C1_2 C 0.2227(6) 0.6020(4) 0.6026(5)
H2_2 H 0.1728 0.6459 0.5772
C2_2 C 0.2449(6) 0.4836(4) 0.6799(5)
H3_2 H 0.2116 0.4423 0.7100
C3_2 C 0.3427(6) 0.6014(4) 0.5963(5)
H4_2 H 0.3743 0.6441 0.5673
C4_2 C 0.3674(6) 0.4788(4) 0.6761(5)
H5_2 H 0.4162 0.4351 0.7034
C5_2 C 0.4170(7) 0.5378(4) 0.6328(5)
C6_2 C 0.5488(6) 0.5372(4) 0.6286(4)
C7_2 C 0.6001(7) 0.5977(5) 0.5889(8)
H6_2 H 0.5516 0.6418 0.5620
C8_2 C 0.6248(7) 0.4742(4) 0.6632(7)
H7_2 H 0.5935 0.4294 0.6888
C9_2 C 0.7235(7) 0.5945(5) 0.5881(7)
H8_2 H 0.7562 0.6371 0.5597
C10_2 C 0.7485(7) 0.4769(4) 0.6604(7)
H9_2 H 0.7993 0.4335 0.6860
O17 O 0.9769(5) 0.4406(3) 0.8938(4)
H13 H 0.9692 0.4588 0.8404
O17_2 O 0.0231(5) 0.5594(3) 0.1062(4)
H13_2 H 0.0308 0.5412 0.1596
loop_
_geom_bond_atom_site_label_1
_geom_bond_atom_site_label_2
_geom_bond_site_symmetry_1
_geom_bond_site_symmetry_2
H3 C2 1_555 1_555
C4 C2 1_555 1_555
H5 C4 1_555 1_555
H7 C8 1_555 1_555
H9 C10 1_555 1_555
Ni6 O7 1_555 1_555
O7 C38 1_555 1_555
C31 C32 1_555 1_555
C32 H22 1_555 1_555
C33 C31 1_555 1_555
H23 C33 1_555 1_555
C35 C30 1_555 1_555
C8 C10 1_555 1_555
C31 C38 1_555 1_555
C33 C35 1_555 1_555
Ni7 O13 1_555 1_555
O16 C37 1_555 1_555
C36 C34 1_555 1_555
H24 C36 1_555 1_555
C34 C37 1_555 1_555
N1 C1 1_555 1_555
N2 C9 1_555 1_555
O6 H1 1_555 1_555
C1 H2 1_555 1_555
C3 C1 1_555 1_555
H4 C3 1_555 1_555
C5 C3 1_555 1_555
C6 C5 1_555 1_555
C7 C6 1_555 1_555
H6 C7 1_555 1_555
C9 C7 1_555 1_555
H8 C9 1_555 1_555
Ni3 N2 1_555 1_555
Ni6 O3 1_555 1_555
O2 C19 1_555 1_555
C38_2 O9 1_555 1_555
O1 Ni3 1_555 1_555
O4 C11 1_555 1_555
O5 C18 1_555 1_555
C11 C16 1_555 1_555
C12 C13 1_555 1_555
C13 H10 1_555 1_555
C14 C12 1_555 1_555
H11 C14 1_555 1_555
C15 C13 1_555 1_555
C16 C14 1_555 1_555
C17 C15 1_555 1_555
H12 C17 1_555 1_555
C19_2 O1 1_555 1_555
Ni5 O4 1_555 1_555
O14 Ni3 1_555 1_555
C12 C19_2 1_555 1_555
C15 C18 1_555 1_555
C16 C17 1_555 1_555
N5 Ni6 1_555 1_555
O15 Ni6 1_555 1_555
N3 C20 1_555 1_555
C20 H14 1_555 1_555
C21 N3 1_555 1_555
H15 C21 1_555 1_555
C22 C20 1_555 1_555
H16 C22 1_555 1_555
C23 C21 1_555 1_555
H17 C23 1_555 1_555
C24 C22 1_555 1_555
C25 C24 1_555 1_555
C26 C25 1_555 1_555
H18 C26 1_555 1_555
C27 C25 1_555 1_555
H19 C27 1_555 1_555
C28 N5 1_555 1_555
H20 C28 1_555 1_555
C29 N5 1_555 1_555
H21 C29 1_555 1_555
C23 C24 1_555 1_555
C26 C28 1_555 1_555
C27 C29 1_555 1_555
N5_2 Ni7 1_555 1_555
O8 Ni7 1_555 1_555
O15 C11_2 1_555 1_555
O5_2 C18_2 1_555 1_555
C11_2 C16_2 1_555 1_555
C12_2 C13_2 1_555 1_555
C13_2 H10_2 1_555 1_555
C14_2 C12_2 1_555 1_555
H11_2 C14_2 1_555 1_555
C15_2 C13_2 1_555 1_555
C16_2 C14_2 1_555 1_555
C17_2 C15_2 1_555 1_555
H12_2 C17_2 1_555 1_555
C19_3 O8 1_555 1_555
N3_2 C20_2 1_555 1_555
C20_2 H14_2 1_555 1_555
C22_2 C20_2 1_555 1_555
H16_2 C22_2 1_555 1_555
C24_2 C22_2 1_555 1_555
C25_2 C24_2 1_555 1_555
C26_2 C25_2 1_555 1_555
H18_2 C26_2 1_555 1_555
C28_2 N5_2 1_555 1_555
H20_2 C28_2 1_555 1_555
C12_2 C19_3 1_555 1_555
C15_2 C18_2 1_555 1_555
C16_2 C17_2 1_555 1_555
C26_2 C28_2 1_555 1_555
H15_2 C21_2 1_555 1_555
C23_2 C21_2 1_555 1_555
H17_2 C23_2 1_555 1_555
H19_2 C27_2 1_555 1_555
H21_2 C29_2 1_555 1_555
C38_3 O9_2 1_555 1_555
C27_2 C29_2 1_555 1_555
O6_2 H1_2 1_555 1_555
Ni5 O3_2 1_555 1_555
O10 C19_4 1_555 1_555
O16_2 C37_2 1_555 1_555
C36_2 C34_2 1_555 1_555
H24_2 C36_2 1_555 1_555
C34_2 C37_2 1_555 1_555
Ni5 O7_2 1_555 1_555
O7_2 C38_4 1_555 1_555
C31_2 C32_2 1_555 1_555
C32_2 H22_2 1_555 1_555
C33_2 C31_2 1_555 1_555
H23_2 C33_2 1_555 1_555
C35_2 C30_2 1_555 1_555
C31_2 C38_4 1_555 1_555
C33_2 C35_2 1_555 1_555
N1_2 C1_2 1_555 1_555
N2_2 C9_2 1_555 1_555
C1_2 H2_2 1_555 1_555
C2_2 N1_2 1_555 1_555
H3_2 C2_2 1_555 1_555
C3_2 C1_2 1_555 1_555
H4_2 C3_2 1_555 1_555
C4_2 C2_2 1_555 1_555
H5_2 C4_2 1_555 1_555
C5_2 C3_2 1_555 1_555
C6_2 C5_2 1_555 1_555
C7_2 C6_2 1_555 1_555
H6_2 C7_2 1_555 1_555
C8_2 C6_2 1_555 1_555
H7_2 C8_2 1_555 1_555
C9_2 C7_2 1_555 1_555
H8_2 C9_2 1_555 1_555
C10_2 N2_2 1_555 1_555
H9_2 C10_2 1_555 1_555
Ni5 N2_2 1_555 1_555
C4_2 C5_2 1_555 1_555
C8_2 C10_2 1_555 1_555
O17 H13 1_555 1_555
O17_2 H13_2 1_555 1_555

#END
