
###############################################################################
#
# This file contains modified crystal structure data generated from the
# MOF subset of the Cambridge Structural Database (CSD) v543 
# hosted by the Cambridge Crystallographic Data Centre (CCDC).
#
# This work is licensed under the Creative Commons
# Attribution-NonCommercial-ShareAlike 4.0 International License.
# To view a copy of this license, visit
# http://creativecommons.org/licenses/by-nc-sa/4.0/
# or send a letter to
# Creative Commons, PO Box 1866, Mountain View, CA 94042, USA.
#
# CIF created using the CSD Python API on 29 September 2022
# The structure has been converted into the P1 space group
# The structure has a 3D framework
# The original CSD entry YAJXIT is in the monoclinic crystal system
# The framework has been calculated to contain at least 10.0% void space
# The void calculation uses a probe of radius 1.32A, grid spacing 0.4
#
###############################################################################

data_YAJXIT
_chemical_formula_moiety         '(C192 H96 Cu8 N32 O76 U8)n'
_symmetry_cell_setting           triclinic
_symmetry_space_group_name_H-M   'P 1'
_symmetry_Int_Tables_number      1
_space_group_name_Hall           'P 1'
loop_
_symmetry_equiv_pos_site_id
_symmetry_equiv_pos_as_xyz
1 x,y,z
_cell_length_a                   17.4935(9)
_cell_length_b                   26.0116(8)
_cell_length_c                   15.8081(8)
_cell_angle_alpha                90
_cell_angle_beta                 114.995(6)
_cell_angle_gamma                90
_cell_volume                     6519.54
loop_
_atom_site_label
_atom_site_type_symbol
_atom_site_fract_x
_atom_site_fract_y
_atom_site_fract_z
H2 H 0.0234 0.5661 0.6431
C4 C 0.0288(8) 0.4610(5) 0.6280(9)
H4 H 0.0706 0.4854 0.6566
C17 C 0.0482(8) 0.4113(5) 0.6236(10)
H11 H 0.1044 0.4012 0.6485
C20 C 0.0060(8) 0.3188(5) 0.5743(10)
O7 O 0.0802(6) 0.3095(3) 0.5856(6)
U2 U 0.14677(2) 0.234702(14) 0.57713(3)
U1 U 0.64677(2) 0.734702(14) 0.57713(3)
Cu1 Cu 0.75966(8) 0.47113(5) 0.48597(8)
C1 C 0.9321(7) 0.6196(4) 0.6005(8)
H1 H 0.9671 0.6483 0.6174
N1 N 0.6951(6) 0.4069(3) 0.4321(6)
C2 C 0.9652(7) 0.5708(4) 0.6137(9)
N2 N 0.7169(6) 0.4547(4) 0.5857(6)
C3 C 0.7965(6) 0.5817(4) 0.5340(7)
H3 H 0.7381 0.5854 0.5073
N3 N 0.8830(5) 0.4399(3) 0.5483(6)
N4 N 0.8295(5) 0.5342(3) 0.5443(6)
C5 C 0.6390(7) 0.3427(4) 0.3162(8)
C6 C 0.8032(7) 0.6767(4) 0.5451(6)
C7 C 0.6728(8) 0.4098(5) 0.5703(8)
C8 C 0.7398(8) 0.4795(5) 0.6661(8)
H5 H 0.7715 0.5095 0.6763
C9 C 0.8455(6) 0.6247(4) 0.5614(7)
C10 C 0.6877(6) 0.3869(4) 0.3526(7)
H6 H 0.7152 0.4023 0.3201
C11 C 0.9868(7) 0.3757(4) 0.5835(9)
C12 C 0.5965(8) 0.3208(5) 0.3634(8)
H7 H 0.5624 0.2921 0.3390
C13 C 0.9060(7) 0.3914(4) 0.5472(9)
H8 H 0.8640 0.3669 0.5197
C14 C 0.6723(12) 0.4195(7) 0.7191(11)
H9 H 0.6548 0.4082 0.7639
C15 C 0.9124(6) 0.5284(4) 0.5834(7)
C16 C 0.6052(8) 0.3417(5) 0.4469(9)
H10 H 0.5772 0.3273 0.4797
C18 C 0.6565(8) 0.3848(4) 0.4820(7)
C19 C 0.9437(7) 0.4744(4) 0.5880(8)
O1 O 0.7392(5) 0.7632(3) 0.6563(6)
O2 O 0.8459(5) 0.7146(3) 0.5434(5)
O3 O 0.5556(5) 0.7050(3) 0.4966(6)
O4 O 0.7284(5) 0.6772(3) 0.5341(6)
O5 O 0.6762(6) 0.3392(3) 0.1863(6)
O6 O 0.5997(6) 0.2760(3) 0.2024(6)
C21 C 0.6384(7) 0.3181(5) 0.2299(8)
O8 O 0.9498(7) 0.2865(4) 0.5556(10)
C22 C 0.6488(12) 0.3901(7) 0.6356(10)
H12 H 0.6190 0.3594 0.6262
C23 C 0.7473(9) 0.4954(6) 0.8269(10)
C24 C 0.7174(10) 0.4616(6) 0.7355(9)
O9 O 0.7023(7) 0.4888(4) 0.8685(6)
O10 O 0.8056(7) 0.5235(5) 0.8433(7)
U3 U 0.64677(2) 0.265298(14) 0.07713(3)
U4 U 0.85323(2) 0.765298(14) 0.42287(3)
Cu2 Cu 0.75966(8) 0.52887(5) 0.98597(8)
O11 O 0.6541(5) 0.7854(3) 0.4566(5)
O12 O 0.6762(6) 0.6608(3) 0.6863(6)
O13 O 0.5997(6) 0.7240(3) 0.7024(6)
O14 O 0.5802(6) 0.8095(3) 0.5856(6)
O15 O 0.7023(7) 0.5112(4) 0.3685(6)
O16 O 0.8056(7) 0.4765(5) 0.3433(7)
Cu1_2 Cu 0.24034(8) 0.47113(5) 0.01403(8)
N1_2 N 0.3049(6) 0.4069(3) 0.0679(6)
C5_2 C 0.3610(7) 0.3427(4) 0.1838(8)
C10_2 C 0.3123(6) 0.3869(4) 0.1474(7)
H6_2 H 0.2848 0.4023 0.1799
C12_2 C 0.4035(8) 0.3208(5) 0.1366(8)
H7_2 H 0.4376 0.2921 0.1610
C16_2 C 0.3948(8) 0.3417(5) 0.0531(9)
H10_2 H 0.4228 0.3273 0.0203
C18_2 C 0.3435(8) 0.3848(4) 0.0180(7)
O3_2 O 0.4444(5) 0.7050(3) 0.0034(6)
O5_2 O 0.3238(6) 0.3392(3) 0.3137(6)
O6_2 O 0.4003(6) 0.2760(3) 0.2976(6)
C21_2 C 0.3616(7) 0.3181(5) 0.2701(8)
U3_2 U 0.35323(2) 0.265298(14) 0.42287(3)
U4_2 U 0.14677(2) 0.765298(14) 0.07713(3)
O11_2 O 0.3459(5) 0.7854(3) 0.0434(5)
O15_2 O 0.2977(7) 0.5112(4) 0.1315(6)
O16_2 O 0.1944(7) 0.4765(5) 0.1567(7)
U1_2 U 0.35323(2) 0.734702(14) 0.92287(3)
C1_2 C 0.0679(7) 0.6196(4) 0.8995(8)
H1_2 H 0.0329 0.6483 0.8826
C2_2 C 0.0348(7) 0.5708(4) 0.8863(9)
N2_2 N 0.2831(6) 0.4547(4) 0.9143(6)
C3_2 C 0.2035(6) 0.5817(4) 0.9660(7)
H3_2 H 0.2619 0.5854 0.9927
N3_2 N 0.1170(5) 0.4399(3) 0.9517(6)
N4_2 N 0.1705(5) 0.5342(3) 0.9557(6)
C6_2 C 0.1968(7) 0.6767(4) 0.9549(6)
C7_2 C 0.3272(8) 0.4098(5) 0.9297(8)
C8_2 C 0.2602(8) 0.4795(5) 0.8339(8)
H5_2 H 0.2285 0.5095 0.8237
C9_2 C 0.1545(6) 0.6247(4) 0.9386(7)
C11_2 C 0.0132(7) 0.3757(4) 0.9165(9)
C13_2 C 0.0940(7) 0.3914(4) 0.9528(9)
H8_2 H 0.1360 0.3669 0.9803
C14_2 C 0.3277(12) 0.4195(7) 0.7809(11)
H9_2 H 0.3452 0.4082 0.7361
C15_2 C 0.0876(6) 0.5284(4) 0.9166(7)
C19_2 C 0.0563(7) 0.4744(4) 0.9120(8)
O1_2 O 0.2608(5) 0.7632(3) 0.8437(6)
O2_2 O 0.1541(5) 0.7146(3) 0.9566(5)
O4_2 O 0.2716(5) 0.6772(3) 0.9659(6)
O8_2 O 0.0502(7) 0.2865(4) 0.9444(10)
C22_2 C 0.3512(12) 0.3901(7) 0.8644(10)
H12_2 H 0.3810 0.3594 0.8738
C23_2 C 0.2527(9) 0.4954(6) 0.6731(10)
C24_2 C 0.2826(10) 0.4616(6) 0.7645(9)
O9_2 O 0.2977(7) 0.4888(4) 0.6315(6)
O10_2 O 0.1944(7) 0.5235(5) 0.6567(7)
Cu2_2 Cu 0.24034(8) 0.52887(5) 0.51403(8)
O12_2 O 0.3238(6) 0.6608(3) 0.8137(6)
O13_2 O 0.4003(6) 0.7240(3) 0.7976(6)
O14_2 O 0.4198(6) 0.8095(3) 0.9144(6)
H2_2 H 0.9766 0.5661 0.8569
C4_2 C 0.9712(8) 0.4610(5) 0.8720(9)
H4_2 H 0.9294 0.4854 0.8434
C17_2 C 0.9518(8) 0.4113(5) 0.8764(10)
H11_2 H 0.8956 0.4012 0.8515
C20_2 C 0.9940(8) 0.3188(5) 0.9257(10)
O7_2 O 0.9198(6) 0.3095(3) 0.9144(6)
U2_2 U 0.85323(2) 0.234702(14) 0.92287(3)
C1_3 C 0.4321(7) 0.1196(4) 0.6005(8)
H1_3 H 0.4671 0.1483 0.6174
C2_3 C 0.4652(7) 0.0708(4) 0.6137(9)
H2_3 H 0.5234 0.0661 0.6431
C3_3 C 0.2965(6) 0.0817(4) 0.5340(7)
H3_3 H 0.2381 0.0854 0.5073
N4_3 N 0.3295(5) 0.0342(3) 0.5443(6)
C6_3 C 0.3032(7) 0.1767(4) 0.5451(6)
H5_3 H 0.2715 0.0095 0.6763
C9_3 C 0.3455(6) 0.1247(4) 0.5614(7)
C15_3 C 0.4124(6) 0.0284(4) 0.5834(7)
O1_3 O 0.2392(5) 0.2632(3) 0.6563(6)
O2_3 O 0.3459(5) 0.2146(3) 0.5434(5)
O3_3 O 0.0556(5) 0.2050(3) 0.4966(6)
O4_3 O 0.2284(5) 0.1772(3) 0.5341(6)
O10_3 O 0.3056(7) 0.0235(5) 0.8433(7)
Cu2_3 Cu 0.25966(8) 0.02887(5) 0.98597(8)
O11_3 O 0.1541(5) 0.2854(3) 0.4566(5)
O12_3 O 0.1762(6) 0.1608(3) 0.6863(6)
O13_3 O 0.0997(6) 0.2240(3) 0.7024(6)
O15_3 O 0.2023(7) 0.0112(4) 0.3685(6)
Cu1_3 Cu 0.25966(8) 0.97113(5) 0.48597(8)
N1_3 N 0.1951(6) 0.9069(3) 0.4321(6)
N2_3 N 0.2169(6) 0.9547(4) 0.5857(6)
N3_3 N 0.3830(5) 0.9399(3) 0.5483(6)
C4_3 C 0.5288(8) 0.9610(5) 0.6280(9)
H4_3 H 0.5706 0.9854 0.6566
C5_3 C 0.1390(7) 0.8427(4) 0.3162(8)
C7_3 C 0.1728(8) 0.9098(5) 0.5703(8)
C8_3 C 0.2398(8) 0.9795(5) 0.6661(8)
C10_3 C 0.1877(6) 0.8869(4) 0.3526(7)
H6_3 H 0.2152 0.9023 0.3201
C11_3 C 0.4868(7) 0.8757(4) 0.5835(9)
C12_3 C 0.0965(8) 0.8208(5) 0.3634(8)
H7_3 H 0.0624 0.7921 0.3390
C13_3 C 0.4060(7) 0.8914(4) 0.5472(9)
H8_3 H 0.3640 0.8669 0.5197
C14_3 C 0.1723(12) 0.9195(7) 0.7191(11)
H9_3 H 0.1548 0.9082 0.7639
C16_3 C 0.1052(8) 0.8417(5) 0.4469(9)
H10_3 H 0.0772 0.8273 0.4797
C17_3 C 0.5482(8) 0.9113(5) 0.6236(10)
H11_3 H 0.6044 0.9012 0.6485
C18_3 C 0.1565(8) 0.8848(4) 0.4820(7)
C19_3 C 0.4437(7) 0.9744(4) 0.5880(8)
C20_3 C 0.5060(8) 0.8188(5) 0.5743(10)
O5_3 O 0.1762(6) 0.8392(3) 0.1863(6)
O6_3 O 0.0997(6) 0.7760(3) 0.2024(6)
C21_3 C 0.1384(7) 0.8181(5) 0.2299(8)
O8_3 O 0.4498(7) 0.7865(4) 0.5556(10)
C22_3 C 0.1488(12) 0.8901(7) 0.6356(10)
H12_3 H 0.1190 0.8594 0.6262
C23_3 C 0.2473(9) 0.9954(6) 0.8269(10)
C24_3 C 0.2174(10) 0.9616(6) 0.7355(9)
O9_3 O 0.2023(7) 0.9888(4) 0.8685(6)
O16_3 O 0.3056(7) 0.9765(5) 0.3433(7)
O3_4 O 0.9444(5) 0.2050(3) 0.0034(6)
O11_4 O 0.8459(5) 0.2854(3) 0.0434(5)
O15_4 O 0.7977(7) 0.0112(4) 0.1315(6)
C1_4 C 0.5679(7) 0.1196(4) 0.8995(8)
H1_4 H 0.5329 0.1483 0.8826
C2_4 C 0.5348(7) 0.0708(4) 0.8863(9)
H2_4 H 0.4766 0.0661 0.8569
C3_4 C 0.7035(6) 0.0817(4) 0.9660(7)
H3_4 H 0.7619 0.0854 0.9927
N4_4 N 0.6705(5) 0.0342(3) 0.9557(6)
C6_4 C 0.6968(7) 0.1767(4) 0.9549(6)
H5_4 H 0.7285 0.0095 0.8237
C9_4 C 0.6545(6) 0.1247(4) 0.9386(7)
C15_4 C 0.5876(6) 0.0284(4) 0.9166(7)
O1_4 O 0.7608(5) 0.2632(3) 0.8437(6)
O2_4 O 0.6541(5) 0.2146(3) 0.9566(5)
O4_4 O 0.7716(5) 0.1772(3) 0.9659(6)
O10_4 O 0.6944(7) 0.0235(5) 0.6567(7)
Cu2_4 Cu 0.74034(8) 0.02887(5) 0.51403(8)
O12_4 O 0.8238(6) 0.1608(3) 0.8137(6)
O13_4 O 0.9003(6) 0.2240(3) 0.7976(6)
Cu1_4 Cu 0.74034(8) 0.97113(5) 0.01403(8)
N1_4 N 0.8049(6) 0.9069(3) 0.0679(6)
C5_4 C 0.8610(7) 0.8427(4) 0.1838(8)
C10_4 C 0.8123(6) 0.8869(4) 0.1474(7)
H6_4 H 0.7848 0.9023 0.1799
C12_4 C 0.9035(8) 0.8208(5) 0.1366(8)
H7_4 H 0.9376 0.7921 0.1610
C16_4 C 0.8948(8) 0.8417(5) 0.0531(9)
H10_4 H 0.9228 0.8273 0.0203
C18_4 C 0.8435(8) 0.8848(4) 0.0180(7)
O5_4 O 0.8238(6) 0.8392(3) 0.3137(6)
O6_4 O 0.9003(6) 0.7760(3) 0.2976(6)
C21_4 C 0.8616(7) 0.8181(5) 0.2701(8)
O16_4 O 0.6944(7) 0.9765(5) 0.1567(7)
N2_4 N 0.7831(6) 0.9547(4) 0.9143(6)
N3_4 N 0.6170(5) 0.9399(3) 0.9517(6)
C4_4 C 0.4712(8) 0.9610(5) 0.8720(9)
H4_4 H 0.4294 0.9854 0.8434
C7_4 C 0.8272(8) 0.9098(5) 0.9297(8)
C8_4 C 0.7602(8) 0.9795(5) 0.8339(8)
C11_4 C 0.5132(7) 0.8757(4) 0.9165(9)
C13_4 C 0.5940(7) 0.8914(4) 0.9528(9)
H8_4 H 0.6360 0.8669 0.9803
C14_4 C 0.8277(12) 0.9195(7) 0.7809(11)
H9_4 H 0.8452 0.9082 0.7361
C17_4 C 0.4518(8) 0.9113(5) 0.8764(10)
H11_4 H 0.3956 0.9012 0.8515
C19_4 C 0.5563(7) 0.9744(4) 0.9120(8)
C20_4 C 0.4940(8) 0.8188(5) 0.9257(10)
O8_4 O 0.5502(7) 0.7865(4) 0.9444(10)
C22_4 C 0.8512(12) 0.8901(7) 0.8644(10)
H12_4 H 0.8810 0.8594 0.8738
C23_4 C 0.7527(9) 0.9954(6) 0.6731(10)
C24_4 C 0.7826(10) 0.9616(6) 0.7645(9)
O9_4 O 0.7977(7) 0.9888(4) 0.6315(6)
C1_5 C 0.0679(7) 0.3804(4) 0.3995(8)
H1_5 H 0.0329 0.3517 0.3826
N1_5 N 0.3049(6) 0.5931(3) 0.5679(6)
C2_5 C 0.0348(7) 0.4292(4) 0.3863(9)
N2_5 N 0.2831(6) 0.5453(4) 0.4143(6)
C3_5 C 0.2035(6) 0.4183(4) 0.4660(7)
H3_5 H 0.2619 0.4146 0.4927
N3_5 N 0.1170(5) 0.5601(3) 0.4517(6)
N4_5 N 0.1705(5) 0.4658(3) 0.4557(6)
C5_5 C 0.3610(7) 0.6573(4) 0.6838(8)
C6_5 C 0.1968(7) 0.3233(4) 0.4549(6)
C7_5 C 0.3272(8) 0.5902(5) 0.4297(8)
C8_5 C 0.2602(8) 0.5205(5) 0.3339(8)
H5_5 H 0.2285 0.4905 0.3237
C9_5 C 0.1545(6) 0.3753(4) 0.4386(7)
C10_5 C 0.3123(6) 0.6131(4) 0.6474(7)
H6_5 H 0.2848 0.5977 0.6799
C11_5 C 0.0132(7) 0.6243(4) 0.4165(9)
C12_5 C 0.4035(8) 0.6792(5) 0.6366(8)
H7_5 H 0.4376 0.7079 0.6610
C13_5 C 0.0940(7) 0.6086(4) 0.4528(9)
H8_5 H 0.1360 0.6331 0.4803
C14_5 C 0.3277(12) 0.5805(7) 0.2809(11)
H9_5 H 0.3452 0.5918 0.2361
C15_5 C 0.0876(6) 0.4716(4) 0.4166(7)
C16_5 C 0.3948(8) 0.6583(5) 0.5531(9)
H10_5 H 0.4228 0.6727 0.5203
C18_5 C 0.3435(8) 0.6152(4) 0.5180(7)
C19_5 C 0.0563(7) 0.5256(4) 0.4120(8)
O1_5 O 0.2608(5) 0.2368(3) 0.3437(6)
O3_5 O 0.4444(5) 0.2950(3) 0.5034(6)
O4_5 O 0.2716(5) 0.3228(3) 0.4659(6)
C21_5 C 0.3616(7) 0.6819(5) 0.7701(8)
O8_5 O 0.0502(7) 0.7135(4) 0.4444(10)
C22_5 C 0.3512(12) 0.6099(7) 0.3644(10)
H12_5 H 0.3810 0.6406 0.3738
C23_5 C 0.2527(9) 0.5046(6) 0.1731(10)
C24_5 C 0.2826(10) 0.5384(6) 0.2645(9)
O14_3 O 0.4198(6) 0.1905(3) 0.4144(6)
H2_5 H 0.9766 0.4339 0.3569
C4_5 C 0.9712(8) 0.5390(5) 0.3720(9)
H4_5 H 0.9294 0.5146 0.3434
C17_5 C 0.9518(8) 0.5887(5) 0.3764(10)
H11_5 H 0.8956 0.5988 0.3515
C20_5 C 0.9940(8) 0.6812(5) 0.4257(10)
O7_3 O 0.9198(6) 0.6905(3) 0.4144(6)
H2_6 H 0.0234 0.4339 0.1431
C4_6 C 0.0288(8) 0.5390(5) 0.1280(9)
H4_6 H 0.0706 0.5146 0.1566
C17_6 C 0.0482(8) 0.5887(5) 0.1236(10)
H11_6 H 0.1044 0.5988 0.1485
C20_6 C 0.0060(8) 0.6812(5) 0.0743(10)
O7_4 O 0.0802(6) 0.6905(3) 0.0856(6)
C1_6 C 0.9321(7) 0.3804(4) 0.1005(8)
H1_6 H 0.9671 0.3517 0.1174
C2_6 C 0.9652(7) 0.4292(4) 0.1137(9)
N2_6 N 0.7169(6) 0.5453(4) 0.0857(6)
C3_6 C 0.7965(6) 0.4183(4) 0.0340(7)
H3_6 H 0.7381 0.4146 0.0073
N3_6 N 0.8830(5) 0.5601(3) 0.0483(6)
N4_6 N 0.8295(5) 0.4658(3) 0.0443(6)
C6_6 C 0.8032(7) 0.3233(4) 0.0451(6)
C7_6 C 0.6728(8) 0.5902(5) 0.0703(8)
C8_6 C 0.7398(8) 0.5205(5) 0.1661(8)
H5_6 H 0.7715 0.4905 0.1763
C9_6 C 0.8455(6) 0.3753(4) 0.0614(7)
C11_6 C 0.9868(7) 0.6243(4) 0.0835(9)
C13_6 C 0.9060(7) 0.6086(4) 0.0472(9)
H8_6 H 0.8640 0.6331 0.0197
C14_6 C 0.6723(12) 0.5805(7) 0.2191(11)
H9_6 H 0.6548 0.5918 0.2639
C15_6 C 0.9124(6) 0.4716(4) 0.0834(7)
C19_6 C 0.9437(7) 0.5256(4) 0.0880(8)
O1_6 O 0.7392(5) 0.2368(3) 0.1563(6)
O4_6 O 0.7284(5) 0.3228(3) 0.0341(6)
O8_6 O 0.9498(7) 0.7135(4) 0.0556(10)
C22_6 C 0.6488(12) 0.6099(7) 0.1356(10)
H12_6 H 0.6190 0.6406 0.1262
C23_6 C 0.7473(9) 0.5046(6) 0.3269(10)
C24_6 C 0.7174(10) 0.5384(6) 0.2355(9)
O14_4 O 0.5802(6) 0.1905(3) 0.0856(6)
N1_6 N 0.6951(6) 0.5931(3) 0.9321(6)
C5_6 C 0.6390(7) 0.6573(4) 0.8162(8)
C10_6 C 0.6877(6) 0.6131(4) 0.8526(7)
H6_6 H 0.7152 0.5977 0.8201
C12_6 C 0.5965(8) 0.6792(5) 0.8634(8)
H7_6 H 0.5624 0.7079 0.8390
C16_6 C 0.6052(8) 0.6583(5) 0.9469(9)
H10_6 H 0.5772 0.6727 0.9797
C18_6 C 0.6565(8) 0.6152(4) 0.9820(7)
O3_6 O 0.5556(5) 0.2950(3) 0.9966(6)
C21_6 C 0.6384(7) 0.6819(5) 0.7299(8)
N1_7 N 0.8049(6) 0.0931(3) 0.5679(6)
N2_7 N 0.7831(6) 0.0453(4) 0.4143(6)
N3_7 N 0.6170(5) 0.0601(3) 0.4517(6)
C4_7 C 0.4712(8) 0.0390(5) 0.3720(9)
H4_7 H 0.4294 0.0146 0.3434
C5_7 C 0.8610(7) 0.1573(4) 0.6838(8)
C7_7 C 0.8272(8) 0.0902(5) 0.4297(8)
C8_7 C 0.7602(8) 0.0205(5) 0.3339(8)
C10_7 C 0.8123(6) 0.1131(4) 0.6474(7)
H6_7 H 0.7848 0.0977 0.6799
C11_7 C 0.5132(7) 0.1243(4) 0.4165(9)
C12_7 C 0.9035(8) 0.1792(5) 0.6366(8)
H7_7 H 0.9376 0.2079 0.6610
C13_7 C 0.5940(7) 0.1086(4) 0.4528(9)
H8_7 H 0.6360 0.1331 0.4803
C14_7 C 0.8277(12) 0.0805(7) 0.2809(11)
H9_7 H 0.8452 0.0918 0.2361
C16_7 C 0.8948(8) 0.1583(5) 0.5531(9)
H10_7 H 0.9228 0.1727 0.5203
C17_7 C 0.4518(8) 0.0887(5) 0.3764(10)
H11_7 H 0.3956 0.0988 0.3515
C18_7 C 0.8435(8) 0.1152(4) 0.5180(7)
C19_7 C 0.5563(7) 0.0256(4) 0.4120(8)
C20_7 C 0.4940(8) 0.1812(5) 0.4257(10)
C21_7 C 0.8616(7) 0.1819(5) 0.7701(8)
O8_7 O 0.5502(7) 0.2135(4) 0.4444(10)
C22_7 C 0.8512(12) 0.1099(7) 0.3644(10)
H12_7 H 0.8810 0.1406 0.3738
C23_7 C 0.7527(9) 0.0046(6) 0.1731(10)
C24_7 C 0.7826(10) 0.0384(6) 0.2645(9)
C1_7 C 0.5679(7) 0.8804(4) 0.3995(8)
H1_7 H 0.5329 0.8517 0.3826
C2_7 C 0.5348(7) 0.9292(4) 0.3863(9)
H2_7 H 0.4766 0.9339 0.3569
C3_7 C 0.7035(6) 0.9183(4) 0.4660(7)
H3_7 H 0.7619 0.9146 0.4927
N4_7 N 0.6705(5) 0.9658(3) 0.4557(6)
C6_7 C 0.6968(7) 0.8233(4) 0.4549(6)
H5_7 H 0.7285 0.9905 0.3237
C9_7 C 0.6545(6) 0.8753(4) 0.4386(7)
C15_7 C 0.5876(6) 0.9716(4) 0.4166(7)
O1_7 O 0.7608(5) 0.7368(3) 0.3437(6)
O3_7 O 0.9444(5) 0.7950(3) 0.5034(6)
O4_7 O 0.7716(5) 0.8228(3) 0.4659(6)
N2_8 N 0.2169(6) 0.0453(4) 0.0857(6)
N3_8 N 0.3830(5) 0.0601(3) 0.0483(6)
C4_8 C 0.5288(8) 0.0390(5) 0.1280(9)
H4_8 H 0.5706 0.0146 0.1566
C7_8 C 0.1728(8) 0.0902(5) 0.0703(8)
C8_8 C 0.2398(8) 0.0205(5) 0.1661(8)
C11_8 C 0.4868(7) 0.1243(4) 0.0835(9)
C13_8 C 0.4060(7) 0.1086(4) 0.0472(9)
H8_8 H 0.3640 0.1331 0.0197
C14_8 C 0.1723(12) 0.0805(7) 0.2191(11)
H9_8 H 0.1548 0.0918 0.2639
C17_8 C 0.5482(8) 0.0887(5) 0.1236(10)
H11_8 H 0.6044 0.0988 0.1485
C19_8 C 0.4437(7) 0.0256(4) 0.0880(8)
C20_8 C 0.5060(8) 0.1812(5) 0.0743(10)
O8_8 O 0.4498(7) 0.2135(4) 0.0556(10)
C22_8 C 0.1488(12) 0.1099(7) 0.1356(10)
H12_8 H 0.1190 0.1406 0.1262
C23_8 C 0.2473(9) 0.0046(6) 0.3269(10)
C24_8 C 0.2174(10) 0.0384(6) 0.2355(9)
N1_8 N 0.1951(6) 0.0931(3) 0.9321(6)
C5_8 C 0.1390(7) 0.1573(4) 0.8162(8)
C10_8 C 0.1877(6) 0.1131(4) 0.8526(7)
H6_8 H 0.2152 0.0977 0.8201
C12_8 C 0.0965(8) 0.1792(5) 0.8634(8)
H7_8 H 0.0624 0.2079 0.8390
C16_8 C 0.1052(8) 0.1583(5) 0.9469(9)
H10_8 H 0.0772 0.1727 0.9797
C18_8 C 0.1565(8) 0.1152(4) 0.9820(7)
C21_8 C 0.1384(7) 0.1819(5) 0.7299(8)
C1_8 C 0.4321(7) 0.8804(4) 0.1005(8)
H1_8 H 0.4671 0.8517 0.1174
C2_8 C 0.4652(7) 0.9292(4) 0.1137(9)
H2_8 H 0.5234 0.9339 0.1431
C3_8 C 0.2965(6) 0.9183(4) 0.0340(7)
H3_8 H 0.2381 0.9146 0.0073
N4_8 N 0.3295(5) 0.9658(3) 0.0443(6)
C6_8 C 0.3032(7) 0.8233(4) 0.0451(6)
H5_8 H 0.2715 0.9905 0.1763
C9_8 C 0.3455(6) 0.8753(4) 0.0614(7)
C15_8 C 0.4124(6) 0.9716(4) 0.0834(7)
O1_8 O 0.2392(5) 0.7368(3) 0.1563(6)
O4_8 O 0.2284(5) 0.8228(3) 0.0341(6)
O3_8 O 0.0556(5) 0.7950(3) 0.9966(6)
loop_
_geom_bond_atom_site_label_1
_geom_bond_atom_site_label_2
_geom_bond_site_symmetry_1
_geom_bond_site_symmetry_2
C4 H4 1_555 1_555
C17 C4 1_555 1_555
H11 C17 1_555 1_555
O7 C20 1_555 1_555
U2 O7 1_555 1_555
U1 O1 1_555 1_555
Cu1 N1 1_555 1_555
C1 H1 1_555 1_555
N1 C10 1_555 1_555
C2 C1 1_555 1_555
N2 Cu1 1_555 1_555
C3 H3 1_555 1_555
N3 Cu1 1_555 1_555
N4 Cu1 1_555 1_555
C5 C10 1_555 1_555
C6 C9 1_555 1_555
C7 N2 1_555 1_555
C8 N2 1_555 1_555
H5 C8 1_555 1_555
C9 C1 1_555 1_555
C10 H6 1_555 1_555
C11 C13 1_555 1_555
C12 C5 1_555 1_555
H7 C12 1_555 1_555
C13 N3 1_555 1_555
H8 C13 1_555 1_555
C14 H9 1_555 1_555
C15 C2 1_555 1_555
C16 C12 1_555 1_555
H10 C16 1_555 1_555
C18 N1 1_555 1_555
C19 N3 1_555 1_555
O2 C6 1_555 1_555
O3 U1 1_555 1_555
O4 U1 1_555 1_555
O5 C21 1_555 1_555
O6 C21 1_555 1_555
C21 C5 1_555 1_555
C22 C7 1_555 1_555
H12 C22 1_555 1_555
C23 C24 1_555 1_555
C24 C8 1_555 1_555
O9 C23 1_555 1_555
O10 C23 1_555 1_555
U3 O5 1_555 1_555
U4 O2 1_555 1_555
Cu2 O9 1_555 1_555
O11 U1 1_555 1_555
O12 U1 1_555 1_555
O13 U1 1_555 1_555
O14 U1 1_555 1_555
O15 Cu1 1_555 1_555
O16 Cu1 1_555 1_555
C3 N4 1_555 1_555
C3 C9 1_555 1_555
N4 C15 1_555 1_555
C6 O4 1_555 1_555
C7 C18 1_555 1_555
C14 C22 1_555 1_555
C14 C24 1_555 1_555
C15 C19 1_555 1_555
C16 C18 1_555 1_555
O6 U3 1_555 1_555
O10 Cu2 1_555 1_555
Cu1_2 N1_2 1_555 1_555
N1_2 C10_2 1_555 1_555
C5_2 C10_2 1_555 1_555
C10_2 H6_2 1_555 1_555
C12_2 C5_2 1_555 1_555
H7_2 C12_2 1_555 1_555
C16_2 C12_2 1_555 1_555
H10_2 C16_2 1_555 1_555
C18_2 N1_2 1_555 1_555
O5_2 C21_2 1_555 1_555
O6_2 C21_2 1_555 1_555
C21_2 C5_2 1_555 1_555
U3_2 O5_2 1_555 1_555
O15_2 Cu1_2 1_555 1_555
O16_2 Cu1_2 1_555 1_555
C16_2 C18_2 1_555 1_555
O6_2 U3_2 1_555 1_555
U1_2 O1_2 1_555 1_555
C1_2 H1_2 1_555 1_555
C2_2 C1_2 1_555 1_555
C3_2 H3_2 1_555 1_555
C6_2 C9_2 1_555 1_555
C7_2 N2_2 1_555 1_555
C8_2 N2_2 1_555 1_555
H5_2 C8_2 1_555 1_555
C9_2 C1_2 1_555 1_555
C11_2 C13_2 1_555 1_555
C13_2 N3_2 1_555 1_555
H8_2 C13_2 1_555 1_555
C14_2 H9_2 1_555 1_555
C15_2 C2_2 1_555 1_555
C19_2 N3_2 1_555 1_555
O2_2 C6_2 1_555 1_555
O4_2 U1_2 1_555 1_555
C22_2 C7_2 1_555 1_555
H12_2 C22_2 1_555 1_555
C23_2 C24_2 1_555 1_555
C24_2 C8_2 1_555 1_555
O9_2 C23_2 1_555 1_555
O10_2 C23_2 1_555 1_555
Cu2_2 O9_2 1_555 1_555
O12_2 U1_2 1_555 1_555
O13_2 U1_2 1_555 1_555
O14_2 U1_2 1_555 1_555
C3_2 N4_2 1_555 1_555
C3_2 C9_2 1_555 1_555
N4_2 C15_2 1_555 1_555
C6_2 O4_2 1_555 1_555
C14_2 C22_2 1_555 1_555
C14_2 C24_2 1_555 1_555
C15_2 C19_2 1_555 1_555
O10_2 Cu2_2 1_555 1_555
C4_2 H4_2 1_555 1_555
C17_2 C4_2 1_555 1_555
H11_2 C17_2 1_555 1_555
O7_2 C20_2 1_555 1_555
U2_2 O7_2 1_555 1_555
U2 O1_3 1_555 1_555
C1_3 H1_3 1_555 1_555
C2_3 C1_3 1_555 1_555
H2_3 C2_3 1_555 1_555
C3_3 H3_3 1_555 1_555
C6_3 C9_3 1_555 1_555
C9_3 C1_3 1_555 1_555
C15_3 C2_3 1_555 1_555
O2_3 C6_3 1_555 1_555
O3_3 U2 1_555 1_555
O4_3 U2 1_555 1_555
U3_2 O2_3 1_555 1_555
O11_3 U2 1_555 1_555
O12_3 U2 1_555 1_555
O13_3 U2 1_555 1_555
C3_3 N4_3 1_555 1_555
C3_3 C9_3 1_555 1_555
N4_3 C15_3 1_555 1_555
C6_3 O4_3 1_555 1_555
O10_3 Cu2_3 1_555 1_555
Cu1_3 N1_3 1_555 1_555
N1_3 C10_3 1_555 1_555
N2_3 Cu1_3 1_555 1_555
N3_3 Cu1_3 1_555 1_555
C4_3 H4_3 1_555 1_555
C5_3 C10_3 1_555 1_555
C7_3 N2_3 1_555 1_555
C8_3 N2_3 1_555 1_555
C10_3 H6_3 1_555 1_555
C11_3 C13_3 1_555 1_555
C12_3 C5_3 1_555 1_555
H7_3 C12_3 1_555 1_555
C13_3 N3_3 1_555 1_555
H8_3 C13_3 1_555 1_555
C14_3 H9_3 1_555 1_555
C16_3 C12_3 1_555 1_555
H10_3 C16_3 1_555 1_555
C17_3 C4_3 1_555 1_555
H11_3 C17_3 1_555 1_555
C18_3 N1_3 1_555 1_555
C19_3 N3_3 1_555 1_555
C20_3 C11_3 1_555 1_555
O5_3 C21_3 1_555 1_555
O6_3 C21_3 1_555 1_555
O14 C20_3 1_555 1_555
C21_3 C5_3 1_555 1_555
O8_3 C20_3 1_555 1_555
C22_3 C7_3 1_555 1_555
H12_3 C22_3 1_555 1_555
C23_3 C24_3 1_555 1_555
C24_3 C8_3 1_555 1_555
O9_3 C23_3 1_555 1_555
U4_2 O5_3 1_555 1_555
O16_3 Cu1_3 1_555 1_555
C4_3 C19_3 1_555 1_555
C7_3 C18_3 1_555 1_555
C11_3 C17_3 1_555 1_555
C14_3 C22_3 1_555 1_555
C14_3 C24_3 1_555 1_555
C16_3 C18_3 1_555 1_555
O6_3 U4_2 1_555 1_555
U2_2 O1_4 1_555 1_555
C1_4 H1_4 1_555 1_555
C2_4 C1_4 1_555 1_555
H2_4 C2_4 1_555 1_555
C3_4 H3_4 1_555 1_555
C6_4 C9_4 1_555 1_555
C9_4 C1_4 1_555 1_555
C15_4 C2_4 1_555 1_555
O2_4 C6_4 1_555 1_555
O4_4 U2_2 1_555 1_555
O12_4 U2_2 1_555 1_555
O13_4 U2_2 1_555 1_555
C3_4 N4_4 1_555 1_555
C3_4 C9_4 1_555 1_555
N4_4 C15_4 1_555 1_555
C6_4 O4_4 1_555 1_555
O10_4 Cu2_4 1_555 1_555
Cu1_4 N1_4 1_555 1_555
N1_4 C10_4 1_555 1_555
C5_4 C10_4 1_555 1_555
C10_4 H6_4 1_555 1_555
C12_4 C5_4 1_555 1_555
H7_4 C12_4 1_555 1_555
C16_4 C12_4 1_555 1_555
H10_4 C16_4 1_555 1_555
C18_4 N1_4 1_555 1_555
O5_4 C21_4 1_555 1_555
O6_4 C21_4 1_555 1_555
C21_4 C5_4 1_555 1_555
U4 O5_4 1_555 1_555
O16_4 Cu1_4 1_555 1_555
C16_4 C18_4 1_555 1_555
O6_4 U4 1_555 1_555
C4_4 H4_4 1_555 1_555
C7_4 N2_4 1_555 1_555
C8_4 N2_4 1_555 1_555
C11_4 C13_4 1_555 1_555
C13_4 N3_4 1_555 1_555
H8_4 C13_4 1_555 1_555
C14_4 H9_4 1_555 1_555
C17_4 C4_4 1_555 1_555
H11_4 C17_4 1_555 1_555
C19_4 N3_4 1_555 1_555
C20_4 C11_4 1_555 1_555
O14_2 C20_4 1_555 1_555
O8_4 C20_4 1_555 1_555
C22_4 C7_4 1_555 1_555
H12_4 C22_4 1_555 1_555
C23_4 C24_4 1_555 1_555
C24_4 C8_4 1_555 1_555
O9_4 C23_4 1_555 1_555
C4_4 C19_4 1_555 1_555
C11_4 C17_4 1_555 1_555
C14_4 C22_4 1_555 1_555
C14_4 C24_4 1_555 1_555
U3_2 O1_5 1_555 1_555
Cu2_2 N1_5 1_555 1_555
C1_5 H1_5 1_555 1_555
N1_5 C10_5 1_555 1_555
C2_5 C1_5 1_555 1_555
N2_5 Cu2_2 1_555 1_555
C3_5 H3_5 1_555 1_555
N3_5 Cu2_2 1_555 1_555
N4_5 Cu2_2 1_555 1_555
C5_5 C10_5 1_555 1_555
C6_5 C9_5 1_555 1_555
C7_5 N2_5 1_555 1_555
C8_5 N2_5 1_555 1_555
H5_5 C8_5 1_555 1_555
C9_5 C1_5 1_555 1_555
C10_5 H6_5 1_555 1_555
C11_5 C13_5 1_555 1_555
C12_5 C5_5 1_555 1_555
H7_5 C12_5 1_555 1_555
C13_5 N3_5 1_555 1_555
H8_5 C13_5 1_555 1_555
C14_5 H9_5 1_555 1_555
C15_5 C2_5 1_555 1_555
C16_5 C12_5 1_555 1_555
H10_5 C16_5 1_555 1_555
C18_5 N1_5 1_555 1_555
C19_5 N3_5 1_555 1_555
O11_3 C6_5 1_555 1_555
O3_5 U3_2 1_555 1_555
O4_5 U3_2 1_555 1_555
O12_2 C21_5 1_555 1_555
O13_2 C21_5 1_555 1_555
C21_5 C5_5 1_555 1_555
C22_5 C7_5 1_555 1_555
H12_5 C22_5 1_555 1_555
C23_5 C24_5 1_555 1_555
C24_5 C8_5 1_555 1_555
O15_2 C23_5 1_555 1_555
O16_2 C23_5 1_555 1_555
O14_3 U3_2 1_555 1_555
C3_5 N4_5 1_555 1_555
C3_5 C9_5 1_555 1_555
N4_5 C15_5 1_555 1_555
C6_5 O4_5 1_555 1_555
C7_5 C18_5 1_555 1_555
C14_5 C22_5 1_555 1_555
C14_5 C24_5 1_555 1_555
C15_5 C19_5 1_555 1_555
C16_5 C18_5 1_555 1_555
C4_5 H4_5 1_555 1_555
C17_5 C4_5 1_555 1_555
H11_5 C17_5 1_555 1_555
O7_3 C20_5 1_555 1_555
U4 O7_3 1_555 1_555
C4_6 H4_6 1_555 1_555
C17_6 C4_6 1_555 1_555
H11_6 C17_6 1_555 1_555
O7_4 C20_6 1_555 1_555
U4_2 O7_4 1_555 1_555
U3 O1_6 1_555 1_555
C1_6 H1_6 1_555 1_555
C2_6 C1_6 1_555 1_555
C3_6 H3_6 1_555 1_555
C6_6 C9_6 1_555 1_555
C7_6 N2_6 1_555 1_555
C8_6 N2_6 1_555 1_555
H5_6 C8_6 1_555 1_555
C9_6 C1_6 1_555 1_555
C11_6 C13_6 1_555 1_555
C13_6 N3_6 1_555 1_555
H8_6 C13_6 1_555 1_555
C14_6 H9_6 1_555 1_555
C15_6 C2_6 1_555 1_555
C19_6 N3_6 1_555 1_555
O11_4 C6_6 1_555 1_555
O4_6 U3 1_555 1_555
C22_6 C7_6 1_555 1_555
H12_6 C22_6 1_555 1_555
C23_6 C24_6 1_555 1_555
C24_6 C8_6 1_555 1_555
O15 C23_6 1_555 1_555
O16 C23_6 1_555 1_555
O14_4 U3 1_555 1_555
C3_6 N4_6 1_555 1_555
C3_6 C9_6 1_555 1_555
N4_6 C15_6 1_555 1_555
C6_6 O4_6 1_555 1_555
C14_6 C22_6 1_555 1_555
C14_6 C24_6 1_555 1_555
C15_6 C19_6 1_555 1_555
Cu2 N1_6 1_555 1_555
N1_6 C10_6 1_555 1_555
C5_6 C10_6 1_555 1_555
C10_6 H6_6 1_555 1_555
C12_6 C5_6 1_555 1_555
H7_6 C12_6 1_555 1_555
C16_6 C12_6 1_555 1_555
H10_6 C16_6 1_555 1_555
C18_6 N1_6 1_555 1_555
O12 C21_6 1_555 1_555
O13 C21_6 1_555 1_555
C21_6 C5_6 1_555 1_555
C16_6 C18_6 1_555 1_555
Cu2_4 N1_7 1_555 1_555
N1_7 C10_7 1_555 1_555
N2_7 Cu2_4 1_555 1_555
N3_7 Cu2_4 1_555 1_555
C4_7 H4_7 1_555 1_555
C5_7 C10_7 1_555 1_555
C7_7 N2_7 1_555 1_555
C8_7 N2_7 1_555 1_555
C10_7 H6_7 1_555 1_555
C11_7 C13_7 1_555 1_555
C12_7 C5_7 1_555 1_555
H7_7 C12_7 1_555 1_555
C13_7 N3_7 1_555 1_555
H8_7 C13_7 1_555 1_555
C14_7 H9_7 1_555 1_555
C16_7 C12_7 1_555 1_555
H10_7 C16_7 1_555 1_555
C17_7 C4_7 1_555 1_555
H11_7 C17_7 1_555 1_555
C18_7 N1_7 1_555 1_555
C19_7 N3_7 1_555 1_555
C20_7 C11_7 1_555 1_555
O12_4 C21_7 1_555 1_555
O13_4 C21_7 1_555 1_555
O14_3 C20_7 1_555 1_555
C21_7 C5_7 1_555 1_555
O8_7 C20_7 1_555 1_555
C22_7 C7_7 1_555 1_555
H12_7 C22_7 1_555 1_555
C23_7 C24_7 1_555 1_555
C24_7 C8_7 1_555 1_555
O15_4 C23_7 1_555 1_555
C4_7 C19_7 1_555 1_555
C7_7 C18_7 1_555 1_555
C11_7 C17_7 1_555 1_555
C14_7 C22_7 1_555 1_555
C14_7 C24_7 1_555 1_555
C16_7 C18_7 1_555 1_555
U4 O1_7 1_555 1_555
C1_7 H1_7 1_555 1_555
C2_7 C1_7 1_555 1_555
H2_7 C2_7 1_555 1_555
C3_7 H3_7 1_555 1_555
C6_7 C9_7 1_555 1_555
C9_7 C1_7 1_555 1_555
C15_7 C2_7 1_555 1_555
O11 C6_7 1_555 1_555
O3_7 U4 1_555 1_555
O4_7 U4 1_555 1_555
C3_7 N4_7 1_555 1_555
C3_7 C9_7 1_555 1_555
N4_7 C15_7 1_555 1_555
C6_7 O4_7 1_555 1_555
C4_8 H4_8 1_555 1_555
C7_8 N2_8 1_555 1_555
C8_8 N2_8 1_555 1_555
C11_8 C13_8 1_555 1_555
C13_8 N3_8 1_555 1_555
H8_8 C13_8 1_555 1_555
C14_8 H9_8 1_555 1_555
C17_8 C4_8 1_555 1_555
H11_8 C17_8 1_555 1_555
C19_8 N3_8 1_555 1_555
C20_8 C11_8 1_555 1_555
O14_4 C20_8 1_555 1_555
O8_8 C20_8 1_555 1_555
C22_8 C7_8 1_555 1_555
H12_8 C22_8 1_555 1_555
C23_8 C24_8 1_555 1_555
C24_8 C8_8 1_555 1_555
O15_3 C23_8 1_555 1_555
C4_8 C19_8 1_555 1_555
C11_8 C17_8 1_555 1_555
C14_8 C22_8 1_555 1_555
C14_8 C24_8 1_555 1_555
Cu2_3 N1_8 1_555 1_555
N1_8 C10_8 1_555 1_555
C5_8 C10_8 1_555 1_555
C10_8 H6_8 1_555 1_555
C12_8 C5_8 1_555 1_555
H7_8 C12_8 1_555 1_555
C16_8 C12_8 1_555 1_555
H10_8 C16_8 1_555 1_555
C18_8 N1_8 1_555 1_555
O12_3 C21_8 1_555 1_555
O13_3 C21_8 1_555 1_555
C21_8 C5_8 1_555 1_555
C16_8 C18_8 1_555 1_555
U4_2 O1_8 1_555 1_555
C1_8 H1_8 1_555 1_555
C2_8 C1_8 1_555 1_555
H2_8 C2_8 1_555 1_555
C3_8 H3_8 1_555 1_555
C6_8 C9_8 1_555 1_555
C9_8 C1_8 1_555 1_555
C15_8 C2_8 1_555 1_555
O11_2 C6_8 1_555 1_555
O4_8 U4_2 1_555 1_555
C3_8 N4_8 1_555 1_555
C3_8 C9_8 1_555 1_555
N4_8 C15_8 1_555 1_555
C6_8 O4_8 1_555 1_555

#END
