
###############################################################################
#
# This file contains modified crystal structure data generated from the
# MOF subset of the Cambridge Structural Database (CSD) v543 
# hosted by the Cambridge Crystallographic Data Centre (CCDC).
#
# This work is licensed under the Creative Commons
# Attribution-NonCommercial-ShareAlike 4.0 International License.
# To view a copy of this license, visit
# http://creativecommons.org/licenses/by-nc-sa/4.0/
# or send a letter to
# Creative Commons, PO Box 1866, Mountain View, CA 94042, USA.
#
# CIF created using the CSD Python API on 29 September 2022
# The structure has been converted into the P1 space group
# The structure has a 3D framework
# The original CSD entry YAJXUF is in the monoclinic crystal system
# The framework has been calculated to contain at least 10.0% void space
# The void calculation uses a probe of radius 1.32A, grid spacing 0.4
#
###############################################################################

data_YAJXUF
_chemical_formula_moiety         '(C192 H96 N32 O80 U8 Zn8)n'
_symmetry_cell_setting           triclinic
_symmetry_space_group_name_H-M   'P 1'
_symmetry_Int_Tables_number      1
_space_group_name_Hall           'P 1'
loop_
_symmetry_equiv_pos_site_id
_symmetry_equiv_pos_as_xyz
1 x,y,z
_cell_length_a                   17.4301(3)
_cell_length_b                   26.2700(3)
_cell_length_c                   15.4596(3)
_cell_angle_alpha                90
_cell_angle_beta                 113.498(3)
_cell_angle_gamma                90
_cell_volume                     6491.76
loop_
_atom_site_label
_atom_site_type_symbol
_atom_site_fract_x
_atom_site_fract_y
_atom_site_fract_z
U1 U 0.149576(11) 0.737906(7) 0.584168(13)
Zn1 Zn 0.26599(3) 0.469986(19) 0.50064(4)
N1 N 0.3899(2) 0.44385(14) 0.5635(3)
N2 N 0.3364(2) 0.53793(15) 0.5641(3)
N4 N 0.2156(2) 0.54772(15) 0.0992(3)
C3 C 0.4717(3) 0.57449(19) 0.6184(4)
H1 H 0.5295 0.5706 0.6428
C5 C 0.4929(3) 0.37923(18) 0.5931(4)
C6 C 0.3077(3) 0.67838(17) 0.5526(3)
C7 C 0.1741(3) 0.5922(2) 0.0854(4)
C8 C 0.4357(3) 0.62336(19) 0.6043(4)
H3 H 0.4691 0.6523 0.6164
C9 C 0.3028(3) 0.58374(17) 0.5534(3)
H4 H 0.2450 0.5867 0.5323
C10 C 0.4508(3) 0.47934(18) 0.5998(3)
C11 C 0.4203(3) 0.53277(17) 0.5957(3)
C12 C 0.4112(3) 0.39543(18) 0.5608(4)
H5 H 0.3689 0.3714 0.5359
C13 C 0.3508(3) 0.62742(18) 0.5726(3)
C14 C 0.1481(4) 0.6115(2) 0.1522(4)
H6 H 0.1178 0.6417 0.1412
C15 C 0.5561(3) 0.4153(2) 0.6301(4)
H7 H 0.6120 0.4058 0.6523
C17 C 0.2097(3) 0.5407(2) 0.2510(4)
C18 C 0.1679(4) 0.5853(2) 0.2358(4)
H8 H 0.1522 0.5985 0.2822
C19 C 0.5337(3) 0.4660(2) 0.6333(4)
H9 H 0.5749 0.4908 0.6580
C20 C 0.2327(3) 0.52269(19) 0.1804(3)
H10 H 0.2612 0.4919 0.1897
C21 C 0.2324(3) 0.5104(2) 0.3400(4)
C24 C 0.5103(4) 0.3239(2) 0.5819(4)
O1 O 0.2325(2) 0.67925(12) 0.5430(3)
O2 O 0.3485(2) 0.71646(12) 0.5458(2)
O3 O 0.0580(2) 0.70733(13) 0.5059(3)
O4 O 0.2426(2) 0.76777(14) 0.6605(3)
O5 O 0.2924(2) 0.47995(16) 0.3610(3)
O8 O 0.1928(2) 0.51738(15) 0.3910(2)
O9 O 0.5853(2) 0.31414(13) 0.5950(3)
O10 O 0.4549(3) 0.29325(16) 0.5641(4)
U3 U 0.649576(11) 0.237906(7) 0.584168(13)
U4 U 0.350424(11) 0.762094(7) 0.415832(13)
Zn2 Zn 0.26599(3) 0.530014(19) 0.00064(4)
N5 N 0.2011(2) 0.40204(15) 0.4463(3)
N6 N 0.2156(2) 0.45228(15) 0.5992(3)
O11 O 0.1515(2) 0.78354(12) 0.4542(2)
O12 O 0.1035(2) 0.72842(14) 0.7144(3)
O13 O 0.1777(2) 0.66566(14) 0.6948(3)
O14 O 0.0853(2) 0.81414(13) 0.5950(3)
C1 C 0.1415(3) 0.6865(2) 0.7410(4)
N3 N 0.2011(2) 0.59796(15) 0.9463(3)
C2 C 0.1421(3) 0.66197(19) 0.8281(4)
C4 C 0.1929(3) 0.61987(18) 0.8650(3)
H2 H 0.2225 0.6064 0.8318
C16 C 0.1587(3) 0.61780(19) 0.9946(3)
C22 C 0.1054(3) 0.6585(2) 0.9614(4)
H11 H 0.0747 0.6706 0.9944
C23 C 0.0985(3) 0.6812(2) 0.8778(4)
H12 H 0.0644 0.7095 0.8553
C1_2 C 0.8585(3) 0.6865(2) 0.7590(4)
N3_2 N 0.7989(2) 0.59796(15) 0.5537(3)
C2_2 C 0.8579(3) 0.66197(19) 0.6719(4)
N4_2 N 0.7844(2) 0.54772(15) 0.4008(3)
C4_2 C 0.8071(3) 0.61987(18) 0.6350(3)
H2_2 H 0.7775 0.6064 0.6682
C7_2 C 0.8259(3) 0.5922(2) 0.4146(4)
C14_2 C 0.8519(4) 0.6115(2) 0.3478(4)
H6_2 H 0.8822 0.6417 0.3588
C16_2 C 0.8413(3) 0.61780(19) 0.5054(3)
C17_2 C 0.7903(3) 0.5407(2) 0.2490(4)
C18_2 C 0.8321(4) 0.5853(2) 0.2642(4)
H8_2 H 0.8478 0.5985 0.2178
C20_2 C 0.7673(3) 0.52269(19) 0.3196(3)
H10_2 H 0.7388 0.4919 0.3103
C21_2 C 0.7676(3) 0.5104(2) 0.1600(4)
C22_2 C 0.8946(3) 0.6585(2) 0.5386(4)
H11_2 H 0.9253 0.6706 0.5056
C23_2 C 0.9015(3) 0.6812(2) 0.6222(4)
H12_2 H 0.9356 0.7095 0.6447
O5_2 O 0.7076(2) 0.47995(16) 0.1390(3)
O6 O 0.8965(2) 0.72842(14) 0.7856(3)
O7 O 0.8223(2) 0.66566(14) 0.8052(3)
O8_2 O 0.8072(2) 0.51738(15) 0.1090(2)
U2 U 0.850424(11) 0.737906(7) 0.915832(13)
U4_2 U 0.649576(11) 0.762094(7) 0.084168(13)
Zn2_2 Zn 0.73401(3) 0.530014(19) 0.49936(4)
N5_2 N 0.7989(2) 0.40204(15) 0.0537(3)
O11_2 O 0.8485(2) 0.78354(12) 0.0458(2)
Zn1_2 Zn 0.73401(3) 0.469986(19) 0.99936(4)
N1_2 N 0.6101(2) 0.44385(14) 0.9365(3)
N2_2 N 0.6636(2) 0.53793(15) 0.9359(3)
C3_2 C 0.5283(3) 0.57449(19) 0.8816(4)
H1_2 H 0.4705 0.5706 0.8572
C5_2 C 0.5071(3) 0.37923(18) 0.9069(4)
C6_2 C 0.6923(3) 0.67838(17) 0.9474(3)
C8_2 C 0.5643(3) 0.62336(19) 0.8957(4)
H3_2 H 0.5309 0.6523 0.8836
C9_2 C 0.6972(3) 0.58374(17) 0.9466(3)
H4_2 H 0.7550 0.5867 0.9677
C10_2 C 0.5492(3) 0.47934(18) 0.9002(3)
C11_2 C 0.5797(3) 0.53277(17) 0.9043(3)
C12_2 C 0.5888(3) 0.39543(18) 0.9392(4)
H5_2 H 0.6311 0.3714 0.9641
C13_2 C 0.6492(3) 0.62742(18) 0.9274(3)
C15_2 C 0.4439(3) 0.4153(2) 0.8699(4)
H7_2 H 0.3880 0.4058 0.8477
C19_2 C 0.4663(3) 0.4660(2) 0.8667(4)
H9_2 H 0.4251 0.4908 0.8420
C24_2 C 0.4897(4) 0.3239(2) 0.9181(4)
O1_2 O 0.7675(2) 0.67925(12) 0.9570(3)
O2_2 O 0.6515(2) 0.71646(12) 0.9542(2)
O3_2 O 0.9420(2) 0.70733(13) 0.9941(3)
O4_2 O 0.7574(2) 0.76777(14) 0.8395(3)
O9_2 O 0.4147(2) 0.31414(13) 0.9050(3)
O10_2 O 0.5451(3) 0.29325(16) 0.9359(4)
U3_2 U 0.350424(11) 0.237906(7) 0.915832(13)
N6_2 N 0.7844(2) 0.45228(15) 0.9008(3)
O14_2 O 0.9147(2) 0.81414(13) 0.9050(3)
C15_3 C 0.0561(3) 0.9153(2) 0.6301(4)
H7_3 H 0.1120 0.9058 0.6523
C19_3 C 0.0337(3) 0.9660(2) 0.6333(4)
H9_3 H 0.0749 0.9908 0.6580
C24_3 C 0.0103(4) 0.8239(2) 0.5819(4)
N2_3 N 0.8364(2) 0.03793(15) 0.5641(3)
N4_3 N 0.7156(2) 0.04772(15) 0.0992(3)
C3_3 C 0.9717(3) 0.07449(19) 0.6184(4)
C6_3 C 0.8077(3) 0.17838(17) 0.5526(3)
C7_3 C 0.6741(3) 0.0922(2) 0.0854(4)
C8_3 C 0.9357(3) 0.12336(19) 0.6043(4)
H3_3 H 0.9691 0.1523 0.6164
C9_3 C 0.8028(3) 0.08374(17) 0.5534(3)
H4_3 H 0.7450 0.0867 0.5323
C11_3 C 0.9203(3) 0.03277(17) 0.5957(3)
C13_3 C 0.8508(3) 0.12742(18) 0.5726(3)
C14_3 C 0.6481(4) 0.1115(2) 0.1522(4)
H6_3 H 0.6178 0.1417 0.1412
C17_3 C 0.7097(3) 0.0407(2) 0.2510(4)
C18_3 C 0.6679(4) 0.0853(2) 0.2358(4)
H8_3 H 0.6522 0.0985 0.2822
C20_3 C 0.7327(3) 0.02269(19) 0.1804(3)
C21_3 C 0.7324(3) 0.0104(2) 0.3400(4)
O1_3 O 0.7325(2) 0.17925(12) 0.5430(3)
O2_3 O 0.8485(2) 0.21646(12) 0.5458(2)
O3_3 O 0.5580(2) 0.20733(13) 0.5059(3)
O4_3 O 0.7426(2) 0.26777(14) 0.6605(3)
O8_3 O 0.6928(2) 0.01738(15) 0.3910(2)
U4_3 U 0.850424(11) 0.262094(7) 0.415832(13)
Zn2_3 Zn 0.76599(3) 0.030014(19) 0.00064(4)
O11_3 O 0.6515(2) 0.28354(12) 0.4542(2)
O12_2 O 0.6035(2) 0.22842(14) 0.7144(3)
O13_2 O 0.6777(2) 0.16566(14) 0.6948(3)
C1_3 C 0.6415(3) 0.1865(2) 0.7410(4)
N3_3 N 0.7011(2) 0.09796(15) 0.9463(3)
C2_3 C 0.6421(3) 0.16197(19) 0.8281(4)
C4_3 C 0.6929(3) 0.11987(18) 0.8650(3)
H2_3 H 0.7225 0.1064 0.8318
C16_3 C 0.6587(3) 0.11780(19) 0.9946(3)
C22_3 C 0.6054(3) 0.1585(2) 0.9614(4)
H11_3 H 0.5747 0.1706 0.9944
C23_3 C 0.5985(3) 0.1812(2) 0.8778(4)
H12_3 H 0.5644 0.2095 0.8553
Zn1_3 Zn 0.76599(3) 0.969986(19) 0.50064(4)
N1_3 N 0.8899(2) 0.94385(14) 0.5635(3)
C5_3 C 0.9929(3) 0.87923(18) 0.5931(4)
C10_3 C 0.9508(3) 0.97934(18) 0.5998(3)
C12_3 C 0.9112(3) 0.89543(18) 0.5608(4)
H5_3 H 0.8689 0.8714 0.5359
H10_3 H 0.7612 0.9919 0.1897
O5_3 O 0.7924(2) 0.97995(16) 0.3610(3)
O10_3 O 0.9549(3) 0.79325(16) 0.5641(4)
N5_3 N 0.7011(2) 0.90204(15) 0.4463(3)
N6_3 N 0.7156(2) 0.95228(15) 0.5992(3)
C1_4 C 0.3585(3) 0.1865(2) 0.7590(4)
N3_4 N 0.2989(2) 0.09796(15) 0.5537(3)
C2_4 C 0.3579(3) 0.16197(19) 0.6719(4)
N4_4 N 0.2844(2) 0.04772(15) 0.4008(3)
C4_4 C 0.3071(3) 0.11987(18) 0.6350(3)
H2_4 H 0.2775 0.1064 0.6682
C7_4 C 0.3259(3) 0.0922(2) 0.4146(4)
C14_4 C 0.3519(4) 0.1115(2) 0.3478(4)
H6_4 H 0.3822 0.1417 0.3588
C16_4 C 0.3413(3) 0.11780(19) 0.5054(3)
C17_4 C 0.2903(3) 0.0407(2) 0.2490(4)
C18_4 C 0.3321(4) 0.0853(2) 0.2642(4)
H8_4 H 0.3478 0.0985 0.2178
C20_4 C 0.2673(3) 0.02269(19) 0.3196(3)
C21_4 C 0.2676(3) 0.0104(2) 0.1600(4)
C22_4 C 0.3946(3) 0.1585(2) 0.5386(4)
H11_4 H 0.4253 0.1706 0.5056
C23_4 C 0.4015(3) 0.1812(2) 0.6222(4)
H12_4 H 0.4356 0.2095 0.6447
O6_2 O 0.3965(2) 0.22842(14) 0.7856(3)
O7_2 O 0.3223(2) 0.16566(14) 0.8052(3)
O8_4 O 0.3072(2) 0.01738(15) 0.1090(2)
U4_4 U 0.149576(11) 0.262094(7) 0.084168(13)
Zn2_4 Zn 0.23401(3) 0.030014(19) 0.49936(4)
O11_4 O 0.3485(2) 0.28354(12) 0.0458(2)
N2_4 N 0.1636(2) 0.03793(15) 0.9359(3)
C3_4 C 0.0283(3) 0.07449(19) 0.8816(4)
C6_4 C 0.1923(3) 0.17838(17) 0.9474(3)
C8_4 C 0.0643(3) 0.12336(19) 0.8957(4)
H3_4 H 0.0309 0.1523 0.8836
C9_4 C 0.1972(3) 0.08374(17) 0.9466(3)
H4_4 H 0.2550 0.0867 0.9677
C11_4 C 0.0797(3) 0.03277(17) 0.9043(3)
C13_4 C 0.1492(3) 0.12742(18) 0.9274(3)
O1_4 O 0.2675(2) 0.17925(12) 0.9570(3)
O2_4 O 0.1515(2) 0.21646(12) 0.9542(2)
O3_4 O 0.4420(2) 0.20733(13) 0.9941(3)
O4_4 O 0.2574(2) 0.26777(14) 0.8395(3)
H10_4 H 0.2388 0.9919 0.3103
O5_4 O 0.2076(2) 0.97995(16) 0.1390(3)
N5_4 N 0.2989(2) 0.90204(15) 0.0537(3)
Zn1_4 Zn 0.23401(3) 0.969986(19) 0.99936(4)
N1_4 N 0.1101(2) 0.94385(14) 0.9365(3)
C5_4 C 0.0071(3) 0.87923(18) 0.9069(4)
C10_4 C 0.0492(3) 0.97934(18) 0.9002(3)
C12_4 C 0.0888(3) 0.89543(18) 0.9392(4)
H5_4 H 0.1311 0.8714 0.9641
O10_4 O 0.0451(3) 0.79325(16) 0.9359(4)
N6_4 N 0.2844(2) 0.95228(15) 0.9008(3)
C15_4 C 0.9439(3) 0.9153(2) 0.8699(4)
H7_4 H 0.8880 0.9058 0.8477
C19_4 C 0.9663(3) 0.9660(2) 0.8667(4)
H9_4 H 0.9251 0.9908 0.8420
C24_4 C 0.9897(4) 0.8239(2) 0.9181(4)
C1_5 C 0.8585(3) 0.3135(2) 0.2590(4)
C2_5 C 0.8579(3) 0.33803(19) 0.1719(4)
C4_5 C 0.8071(3) 0.38013(18) 0.1350(3)
H2_5 H 0.7775 0.3936 0.1682
C16_5 C 0.8413(3) 0.38220(19) 0.0054(3)
C22_5 C 0.8946(3) 0.3415(2) 0.0386(4)
H11_5 H 0.9253 0.3294 0.0056
C23_5 C 0.9015(3) 0.3188(2) 0.1222(4)
H12_5 H 0.9356 0.2905 0.1447
O6_3 O 0.8965(2) 0.27158(14) 0.2856(3)
O7_3 O 0.8223(2) 0.33434(14) 0.3052(3)
N1_5 N 0.6101(2) 0.55615(14) 0.4365(3)
N2_5 N 0.6636(2) 0.46207(15) 0.4359(3)
C3_5 C 0.5283(3) 0.42551(19) 0.3816(4)
H1_3 H 0.4705 0.4294 0.3572
C5_5 C 0.5071(3) 0.62077(18) 0.4069(4)
C6_5 C 0.6923(3) 0.32162(17) 0.4474(3)
C7_5 C 0.8259(3) 0.4078(2) 0.9146(4)
C8_5 C 0.5643(3) 0.37664(19) 0.3957(4)
H3_5 H 0.5309 0.3477 0.3836
C9_5 C 0.6972(3) 0.41626(17) 0.4466(3)
H4_5 H 0.7550 0.4133 0.4677
C10_5 C 0.5492(3) 0.52066(18) 0.4002(3)
C11_5 C 0.5797(3) 0.46723(17) 0.4043(3)
C12_5 C 0.5888(3) 0.60457(18) 0.4392(4)
H5_5 H 0.6311 0.6286 0.4641
C13_5 C 0.6492(3) 0.37258(18) 0.4274(3)
C14_5 C 0.8519(4) 0.3885(2) 0.8478(4)
H6_5 H 0.8822 0.3583 0.8588
C15_5 C 0.4439(3) 0.5847(2) 0.3699(4)
H7_5 H 0.3880 0.5942 0.3477
C17_5 C 0.7903(3) 0.4593(2) 0.7490(4)
C18_5 C 0.8321(4) 0.4147(2) 0.7642(4)
H8_5 H 0.8478 0.4015 0.7178
C19_5 C 0.4663(3) 0.5340(2) 0.3667(4)
H9_5 H 0.4251 0.5092 0.3420
C20_5 C 0.7673(3) 0.47731(19) 0.8196(3)
H10_5 H 0.7388 0.5081 0.8103
C21_5 C 0.7676(3) 0.4896(2) 0.6600(4)
C24_5 C 0.4897(4) 0.6761(2) 0.4181(4)
O1_5 O 0.7675(2) 0.32075(12) 0.4570(3)
O3_5 O 0.9420(2) 0.29267(13) 0.4941(3)
O4_5 O 0.7574(2) 0.23223(14) 0.3395(3)
O5_5 O 0.7076(2) 0.52005(16) 0.6390(3)
O8_5 O 0.8072(2) 0.48262(15) 0.6090(2)
O9_3 O 0.4147(2) 0.68586(13) 0.4050(3)
O10_5 O 0.5451(3) 0.70675(16) 0.4359(4)
O14_3 O 0.9147(2) 0.18586(13) 0.4050(3)
N1_6 N 0.3899(2) 0.55615(14) 0.0635(3)
N2_6 N 0.3364(2) 0.46207(15) 0.0641(3)
C3_6 C 0.4717(3) 0.42551(19) 0.1184(4)
H1_4 H 0.5295 0.4294 0.1428
C5_6 C 0.4929(3) 0.62077(18) 0.0931(4)
C6_6 C 0.3077(3) 0.32162(17) 0.0526(3)
C8_6 C 0.4357(3) 0.37664(19) 0.1043(4)
H3_6 H 0.4691 0.3477 0.1164
C9_6 C 0.3028(3) 0.41626(17) 0.0534(3)
H4_6 H 0.2450 0.4133 0.0323
C10_6 C 0.4508(3) 0.52066(18) 0.0998(3)
C11_6 C 0.4203(3) 0.46723(17) 0.0957(3)
C12_6 C 0.4112(3) 0.60457(18) 0.0608(4)
H5_6 H 0.3689 0.6286 0.0359
C13_6 C 0.3508(3) 0.37258(18) 0.0726(3)
C15_6 C 0.5561(3) 0.5847(2) 0.1301(4)
H7_6 H 0.6120 0.5942 0.1523
C19_6 C 0.5337(3) 0.5340(2) 0.1333(4)
H9_6 H 0.5749 0.5092 0.1580
C24_6 C 0.5103(4) 0.6761(2) 0.0819(4)
O1_6 O 0.2325(2) 0.32075(12) 0.0430(3)
O3_6 O 0.0580(2) 0.29267(13) 0.0059(3)
O4_6 O 0.2426(2) 0.23223(14) 0.1605(3)
O9_4 O 0.5853(2) 0.68586(13) 0.0950(3)
O10_6 O 0.4549(3) 0.70675(16) 0.0641(4)
O12_3 O 0.1035(2) 0.27158(14) 0.2144(3)
O13_3 O 0.1777(2) 0.33434(14) 0.1948(3)
O14_4 O 0.0853(2) 0.18586(13) 0.0950(3)
C1_6 C 0.1415(3) 0.3135(2) 0.2410(4)
C2_6 C 0.1421(3) 0.33803(19) 0.3281(4)
C4_6 C 0.1929(3) 0.38013(18) 0.3650(3)
H2_6 H 0.2225 0.3936 0.3318
C7_6 C 0.1741(3) 0.4078(2) 0.5854(4)
C14_6 C 0.1481(4) 0.3885(2) 0.6522(4)
H6_6 H 0.1178 0.3583 0.6412
C16_6 C 0.1587(3) 0.38220(19) 0.4946(3)
C17_6 C 0.2097(3) 0.4593(2) 0.7510(4)
C18_6 C 0.1679(4) 0.4147(2) 0.7358(4)
H8_6 H 0.1522 0.4015 0.7822
C20_6 C 0.2327(3) 0.47731(19) 0.6804(3)
H10_6 H 0.2612 0.5081 0.6897
C21_6 C 0.2324(3) 0.4896(2) 0.8400(4)
C22_6 C 0.1054(3) 0.3415(2) 0.4614(4)
H11_6 H 0.0747 0.3294 0.4944
C23_6 C 0.0985(3) 0.3188(2) 0.3778(4)
H12_6 H 0.0644 0.2905 0.3553
O5_6 O 0.2924(2) 0.52005(16) 0.8610(3)
O8_6 O 0.1928(2) 0.48262(15) 0.8910(2)
N1_7 N 0.1101(2) 0.05615(14) 0.4365(3)
C5_7 C 0.0071(3) 0.12077(18) 0.4069(4)
C10_7 C 0.0492(3) 0.02066(18) 0.4002(3)
C12_7 C 0.0888(3) 0.10457(18) 0.4392(4)
H5_7 H 0.1311 0.1286 0.4641
H10_7 H 0.2388 0.0081 0.8103
O5_7 O 0.2076(2) 0.02005(16) 0.6390(3)
O10_7 O 0.0451(3) 0.20675(16) 0.4359(4)
C1_7 C 0.3585(3) 0.8135(2) 0.2590(4)
C2_7 C 0.3579(3) 0.83803(19) 0.1719(4)
C4_7 C 0.3071(3) 0.88013(18) 0.1350(3)
H2_7 H 0.2775 0.8936 0.1682
C16_7 C 0.3413(3) 0.88220(19) 0.0054(3)
C22_7 C 0.3946(3) 0.8415(2) 0.0386(4)
H11_7 H 0.4253 0.8294 0.0056
C23_7 C 0.4015(3) 0.8188(2) 0.1222(4)
H12_7 H 0.4356 0.7905 0.1447
O6_4 O 0.3965(2) 0.77158(14) 0.2856(3)
O7_4 O 0.3223(2) 0.83434(14) 0.3052(3)
N2_7 N 0.1636(2) 0.96207(15) 0.4359(3)
C3_7 C 0.0283(3) 0.92551(19) 0.3816(4)
C6_7 C 0.1923(3) 0.82162(17) 0.4474(3)
C7_7 C 0.3259(3) 0.9078(2) 0.9146(4)
C8_7 C 0.0643(3) 0.87664(19) 0.3957(4)
H3_7 H 0.0309 0.8477 0.3836
C9_7 C 0.1972(3) 0.91626(17) 0.4466(3)
H4_7 H 0.2550 0.9133 0.4677
C11_7 C 0.0797(3) 0.96723(17) 0.4043(3)
C13_7 C 0.1492(3) 0.87258(18) 0.4274(3)
C14_7 C 0.3519(4) 0.8885(2) 0.8478(4)
H6_7 H 0.3822 0.8583 0.8588
C17_7 C 0.2903(3) 0.9593(2) 0.7490(4)
C18_7 C 0.3321(4) 0.9147(2) 0.7642(4)
H8_7 H 0.3478 0.9015 0.7178
C20_7 C 0.2673(3) 0.97731(19) 0.8196(3)
C21_7 C 0.2676(3) 0.9896(2) 0.6600(4)
O1_7 O 0.2675(2) 0.82075(12) 0.4570(3)
O3_7 O 0.4420(2) 0.79267(13) 0.4941(3)
O4_7 O 0.2574(2) 0.73223(14) 0.3395(3)
O8_7 O 0.3072(2) 0.98262(15) 0.6090(2)
C15_7 C 0.9439(3) 0.0847(2) 0.3699(4)
H7_7 H 0.8880 0.0942 0.3477
C19_7 C 0.9663(3) 0.0340(2) 0.3667(4)
H9_7 H 0.9251 0.0092 0.3420
C24_7 C 0.9897(4) 0.1761(2) 0.4181(4)
C15_8 C 0.0561(3) 0.0847(2) 0.1301(4)
H7_8 H 0.1120 0.0942 0.1523
C19_8 C 0.0337(3) 0.0340(2) 0.1333(4)
H9_8 H 0.0749 0.0092 0.1580
C24_8 C 0.0103(4) 0.1761(2) 0.0819(4)
N1_8 N 0.8899(2) 0.05615(14) 0.0635(3)
C5_8 C 0.9929(3) 0.12077(18) 0.0931(4)
C10_8 C 0.9508(3) 0.02066(18) 0.0998(3)
C12_8 C 0.9112(3) 0.10457(18) 0.0608(4)
H5_8 H 0.8689 0.1286 0.0359
O10_8 O 0.9549(3) 0.20675(16) 0.0641(4)
H10_8 H 0.7612 0.0081 0.6897
O5_8 O 0.7924(2) 0.02005(16) 0.8610(3)
N2_8 N 0.8364(2) 0.96207(15) 0.0641(3)
C3_8 C 0.9717(3) 0.92551(19) 0.1184(4)
C6_8 C 0.8077(3) 0.82162(17) 0.0526(3)
C8_8 C 0.9357(3) 0.87664(19) 0.1043(4)
H3_8 H 0.9691 0.8477 0.1164
C9_8 C 0.8028(3) 0.91626(17) 0.0534(3)
H4_8 H 0.7450 0.9133 0.0323
C11_8 C 0.9203(3) 0.96723(17) 0.0957(3)
C13_8 C 0.8508(3) 0.87258(18) 0.0726(3)
O1_8 O 0.7325(2) 0.82075(12) 0.0430(3)
O3_8 O 0.5580(2) 0.79267(13) 0.0059(3)
O4_8 O 0.7426(2) 0.73223(14) 0.1605(3)
O12_4 O 0.6035(2) 0.77158(14) 0.2144(3)
O13_4 O 0.6777(2) 0.83434(14) 0.1948(3)
C1_8 C 0.6415(3) 0.8135(2) 0.2410(4)
C2_8 C 0.6421(3) 0.83803(19) 0.3281(4)
C4_8 C 0.6929(3) 0.88013(18) 0.3650(3)
H2_8 H 0.7225 0.8936 0.3318
C7_8 C 0.6741(3) 0.9078(2) 0.5854(4)
C14_8 C 0.6481(4) 0.8885(2) 0.6522(4)
H6_8 H 0.6178 0.8583 0.6412
C16_8 C 0.6587(3) 0.88220(19) 0.4946(3)
C17_8 C 0.7097(3) 0.9593(2) 0.7510(4)
C18_8 C 0.6679(4) 0.9147(2) 0.7358(4)
H8_8 H 0.6522 0.9015 0.7822
C20_8 C 0.7327(3) 0.97731(19) 0.6804(3)
C21_8 C 0.7324(3) 0.9896(2) 0.8400(4)
C22_8 C 0.6054(3) 0.8415(2) 0.4614(4)
H11_8 H 0.5747 0.8294 0.4944
C23_8 C 0.5985(3) 0.8188(2) 0.3778(4)
H12_8 H 0.5644 0.7905 0.3553
O8_8 O 0.6928(2) 0.98262(15) 0.8910(2)
H1_5 H 0.0295 0.0706 0.6428
H1_6 H 0.9705 0.0706 0.8572
H1_7 H 0.9705 0.9294 0.3572
H1_8 H 0.0295 0.9294 0.1428
loop_
_geom_bond_atom_site_label_1
_geom_bond_atom_site_label_2
_geom_bond_site_symmetry_1
_geom_bond_site_symmetry_2
U1 O1 1_555 1_555
Zn1 N1 1_555 1_555
N1 C10 1_555 1_555
N2 Zn1 1_555 1_555
N4 C7 1_555 1_555
C3 H1 1_555 1_555
C5 C12 1_555 1_555
C6 C13 1_555 1_555
C7 C14 1_555 1_555
C8 C3 1_555 1_555
H3 C8 1_555 1_555
C9 N2 1_555 1_555
H4 C9 1_555 1_555
C10 C11 1_555 1_555
C11 N2 1_555 1_555
C12 N1 1_555 1_555
H5 C12 1_555 1_555
C13 C8 1_555 1_555
C14 H6 1_555 1_555
C15 C5 1_555 1_555
H7 C15 1_555 1_555
C17 C18 1_555 1_555
C18 C14 1_555 1_555
H8 C18 1_555 1_555
C19 C10 1_555 1_555
H9 C19 1_555 1_555
C20 N4 1_555 1_555
H10 C20 1_555 1_555
C21 C17 1_555 1_555
C24 C5 1_555 1_555
O1 C6 1_555 1_555
O2 C6 1_555 1_555
O3 U1 1_555 1_555
O4 U1 1_555 1_555
O5 Zn1 1_555 1_555
O8 Zn1 1_555 1_555
O9 C24 1_555 1_555
O10 C24 1_555 1_555
U3 O9 1_555 1_555
U4 O2 1_555 1_555
N5 Zn1 1_555 1_555
N6 Zn1 1_555 1_555
O11 U1 1_555 1_555
O12 U1 1_555 1_555
O13 U1 1_555 1_555
O14 U1 1_555 1_555
N4 Zn2 1_555 1_555
C3 C11 1_555 1_555
C9 C13 1_555 1_555
C15 C19 1_555 1_555
C17 C20 1_555 1_555
C21 O5 1_555 1_555
C21 O8 1_555 1_555
C1 C2 1_555 1_555
N3 C4 1_555 1_555
C2 C4 1_555 1_555
C4 H2 1_555 1_555
C16 N3 1_555 1_555
C22 C16 1_555 1_555
H11 C22 1_555 1_555
C23 C2 1_555 1_555
H12 C23 1_555 1_555
O12 C1 1_555 1_555
O13 C1 1_555 1_555
C22 C23 1_555 1_555
C1_2 C2_2 1_555 1_555
N3_2 C4_2 1_555 1_555
C2_2 C4_2 1_555 1_555
N4_2 C7_2 1_555 1_555
C4_2 H2_2 1_555 1_555
C7_2 C14_2 1_555 1_555
C14_2 H6_2 1_555 1_555
C16_2 N3_2 1_555 1_555
C17_2 C18_2 1_555 1_555
C18_2 C14_2 1_555 1_555
H8_2 C18_2 1_555 1_555
C20_2 N4_2 1_555 1_555
H10_2 C20_2 1_555 1_555
C21_2 C17_2 1_555 1_555
C22_2 C16_2 1_555 1_555
H11_2 C22_2 1_555 1_555
C23_2 C2_2 1_555 1_555
H12_2 C23_2 1_555 1_555
O6 C1_2 1_555 1_555
O7 C1_2 1_555 1_555
U2 O6 1_555 1_555
Zn2_2 N3_2 1_555 1_555
N4_2 Zn2_2 1_555 1_555
C7_2 C16_2 1_555 1_555
C17_2 C20_2 1_555 1_555
C21_2 O5_2 1_555 1_555
C21_2 O8_2 1_555 1_555
C22_2 C23_2 1_555 1_555
O7 U2 1_555 1_555
U2 O1_2 1_555 1_555
Zn1_2 N1_2 1_555 1_555
N1_2 C10_2 1_555 1_555
N2_2 Zn1_2 1_555 1_555
C3_2 H1_2 1_555 1_555
C5_2 C12_2 1_555 1_555
C6_2 C13_2 1_555 1_555
C8_2 C3_2 1_555 1_555
H3_2 C8_2 1_555 1_555
C9_2 N2_2 1_555 1_555
H4_2 C9_2 1_555 1_555
C10_2 C11_2 1_555 1_555
C11_2 N2_2 1_555 1_555
C12_2 N1_2 1_555 1_555
H5_2 C12_2 1_555 1_555
C13_2 C8_2 1_555 1_555
C15_2 C5_2 1_555 1_555
H7_2 C15_2 1_555 1_555
C19_2 C10_2 1_555 1_555
H9_2 C19_2 1_555 1_555
C24_2 C5_2 1_555 1_555
O1_2 C6_2 1_555 1_555
O2_2 C6_2 1_555 1_555
O3_2 U2 1_555 1_555
O4_2 U2 1_555 1_555
O9_2 C24_2 1_555 1_555
O10_2 C24_2 1_555 1_555
U3_2 O9_2 1_555 1_555
N6_2 Zn1_2 1_555 1_555
O14_2 U2 1_555 1_555
C3_2 C11_2 1_555 1_555
C9_2 C13_2 1_555 1_555
C15_2 C19_2 1_555 1_555
H7_3 C15_3 1_555 1_555
H9_3 C19_3 1_555 1_555
O14 C24_3 1_555 1_555
C15_3 C19_3 1_555 1_555
U3 O1_3 1_555 1_555
N4_3 C7_3 1_555 1_555
C6_3 C13_3 1_555 1_555
C7_3 C14_3 1_555 1_555
C8_3 C3_3 1_555 1_555
H3_3 C8_3 1_555 1_555
C9_3 N2_3 1_555 1_555
H4_3 C9_3 1_555 1_555
C11_3 N2_3 1_555 1_555
C13_3 C8_3 1_555 1_555
C14_3 H6_3 1_555 1_555
C17_3 C18_3 1_555 1_555
C18_3 C14_3 1_555 1_555
H8_3 C18_3 1_555 1_555
C20_3 N4_3 1_555 1_555
C21_3 C17_3 1_555 1_555
O1_3 C6_3 1_555 1_555
O2_3 C6_3 1_555 1_555
O3_3 U3 1_555 1_555
O4_3 U3 1_555 1_555
U4_3 O2_3 1_555 1_555
O11_3 U3 1_555 1_555
O12_2 U3 1_555 1_555
O13_2 U3 1_555 1_555
N4_3 Zn2_3 1_555 1_555
C3_3 C11_3 1_555 1_555
C9_3 C13_3 1_555 1_555
C17_3 C20_3 1_555 1_555
C21_3 O8_3 1_555 1_555
C1_3 C2_3 1_555 1_555
N3_3 C4_3 1_555 1_555
C2_3 C4_3 1_555 1_555
C4_3 H2_3 1_555 1_555
C16_3 N3_3 1_555 1_555
C22_3 C16_3 1_555 1_555
H11_3 C22_3 1_555 1_555
C23_3 C2_3 1_555 1_555
H12_3 C23_3 1_555 1_555
O12_2 C1_3 1_555 1_555
O13_2 C1_3 1_555 1_555
C22_3 C23_3 1_555 1_555
Zn1_3 N1_3 1_555 1_555
N1_3 C10_3 1_555 1_555
C5_3 C12_3 1_555 1_555
C12_3 N1_3 1_555 1_555
H5_3 C12_3 1_555 1_555
O5_3 Zn1_3 1_555 1_555
N5_3 Zn1_3 1_555 1_555
N6_3 Zn1_3 1_555 1_555
C1_4 C2_4 1_555 1_555
N3_4 C4_4 1_555 1_555
C2_4 C4_4 1_555 1_555
N4_4 C7_4 1_555 1_555
C4_4 H2_4 1_555 1_555
C7_4 C14_4 1_555 1_555
C14_4 H6_4 1_555 1_555
C16_4 N3_4 1_555 1_555
C17_4 C18_4 1_555 1_555
C18_4 C14_4 1_555 1_555
H8_4 C18_4 1_555 1_555
C20_4 N4_4 1_555 1_555
C21_4 C17_4 1_555 1_555
C22_4 C16_4 1_555 1_555
H11_4 C22_4 1_555 1_555
C23_4 C2_4 1_555 1_555
H12_4 C23_4 1_555 1_555
O6_2 C1_4 1_555 1_555
O7_2 C1_4 1_555 1_555
U3_2 O6_2 1_555 1_555
Zn2_4 N3_4 1_555 1_555
N4_4 Zn2_4 1_555 1_555
C7_4 C16_4 1_555 1_555
C17_4 C20_4 1_555 1_555
C21_4 O8_4 1_555 1_555
C22_4 C23_4 1_555 1_555
O7_2 U3_2 1_555 1_555
U3_2 O1_4 1_555 1_555
C6_4 C13_4 1_555 1_555
C8_4 C3_4 1_555 1_555
H3_4 C8_4 1_555 1_555
C9_4 N2_4 1_555 1_555
H4_4 C9_4 1_555 1_555
C11_4 N2_4 1_555 1_555
C13_4 C8_4 1_555 1_555
O1_4 C6_4 1_555 1_555
O2_4 C6_4 1_555 1_555
O3_4 U3_2 1_555 1_555
O4_4 U3_2 1_555 1_555
C3_4 C11_4 1_555 1_555
C9_4 C13_4 1_555 1_555
Zn1_4 N1_4 1_555 1_555
N1_4 C10_4 1_555 1_555
C5_4 C12_4 1_555 1_555
C12_4 N1_4 1_555 1_555
H5_4 C12_4 1_555 1_555
N6_4 Zn1_4 1_555 1_555
H7_4 C15_4 1_555 1_555
H9_4 C19_4 1_555 1_555
O14_2 C24_4 1_555 1_555
C15_4 C19_4 1_555 1_555
C1_5 C2_5 1_555 1_555
N5_2 C4_5 1_555 1_555
C2_5 C4_5 1_555 1_555
C4_5 H2_5 1_555 1_555
C16_5 N5_2 1_555 1_555
C22_5 C16_5 1_555 1_555
H11_5 C22_5 1_555 1_555
C23_5 C2_5 1_555 1_555
H12_5 C23_5 1_555 1_555
O6_3 C1_5 1_555 1_555
O7_3 C1_5 1_555 1_555
U4_3 O6_3 1_555 1_555
C22_5 C23_5 1_555 1_555
O7_3 U4_3 1_555 1_555
U4_3 O1_5 1_555 1_555
Zn2_2 N1_5 1_555 1_555
N1_5 C10_5 1_555 1_555
N2_5 Zn2_2 1_555 1_555
N6_2 C7_5 1_555 1_555
C3_5 H1_3 1_555 1_555
C5_5 C12_5 1_555 1_555
C6_5 C13_5 1_555 1_555
C7_5 C14_5 1_555 1_555
C8_5 C3_5 1_555 1_555
H3_5 C8_5 1_555 1_555
C9_5 N2_5 1_555 1_555
H4_5 C9_5 1_555 1_555
C10_5 C11_5 1_555 1_555
C11_5 N2_5 1_555 1_555
C12_5 N1_5 1_555 1_555
H5_5 C12_5 1_555 1_555
C13_5 C8_5 1_555 1_555
C14_5 H6_5 1_555 1_555
C15_5 C5_5 1_555 1_555
H7_5 C15_5 1_555 1_555
C17_5 C18_5 1_555 1_555
C18_5 C14_5 1_555 1_555
H8_5 C18_5 1_555 1_555
C19_5 C10_5 1_555 1_555
H9_5 C19_5 1_555 1_555
C20_5 N6_2 1_555 1_555
H10_5 C20_5 1_555 1_555
C21_5 C17_5 1_555 1_555
C24_5 C5_5 1_555 1_555
O1_5 C6_5 1_555 1_555
O11_3 C6_5 1_555 1_555
O3_5 U4_3 1_555 1_555
O4_5 U4_3 1_555 1_555
O5_5 Zn2_2 1_555 1_555
O8_5 Zn2_2 1_555 1_555
O9_3 C24_5 1_555 1_555
O10_5 C24_5 1_555 1_555
U4 O9_3 1_555 1_555
O14_3 U4_3 1_555 1_555
C3_5 C11_5 1_555 1_555
C9_5 C13_5 1_555 1_555
C15_5 C19_5 1_555 1_555
C17_5 C20_5 1_555 1_555
C21_5 O5_5 1_555 1_555
C21_5 O8_5 1_555 1_555
U4_4 O1_6 1_555 1_555
Zn2 N1_6 1_555 1_555
N1_6 C10_6 1_555 1_555
N2_6 Zn2 1_555 1_555
C3_6 H1_4 1_555 1_555
C5_6 C12_6 1_555 1_555
C6_6 C13_6 1_555 1_555
C8_6 C3_6 1_555 1_555
H3_6 C8_6 1_555 1_555
C9_6 N2_6 1_555 1_555
H4_6 C9_6 1_555 1_555
C10_6 C11_6 1_555 1_555
C11_6 N2_6 1_555 1_555
C12_6 N1_6 1_555 1_555
H5_6 C12_6 1_555 1_555
C13_6 C8_6 1_555 1_555
C15_6 C5_6 1_555 1_555
H7_6 C15_6 1_555 1_555
C19_6 C10_6 1_555 1_555
H9_6 C19_6 1_555 1_555
C24_6 C5_6 1_555 1_555
O1_6 C6_6 1_555 1_555
O11_4 C6_6 1_555 1_555
O3_6 U4_4 1_555 1_555
O4_6 U4_4 1_555 1_555
O9_4 C24_6 1_555 1_555
O10_6 C24_6 1_555 1_555
U4_2 O9_4 1_555 1_555
O12_3 U4_4 1_555 1_555
O13_3 U4_4 1_555 1_555
O14_4 U4_4 1_555 1_555
C3_6 C11_6 1_555 1_555
C9_6 C13_6 1_555 1_555
C15_6 C19_6 1_555 1_555
C1_6 C2_6 1_555 1_555
N5 C4_6 1_555 1_555
C2_6 C4_6 1_555 1_555
N6 C7_6 1_555 1_555
C4_6 H2_6 1_555 1_555
C7_6 C14_6 1_555 1_555
C14_6 H6_6 1_555 1_555
C16_6 N5 1_555 1_555
C17_6 C18_6 1_555 1_555
C18_6 C14_6 1_555 1_555
H8_6 C18_6 1_555 1_555
C20_6 N6 1_555 1_555
H10_6 C20_6 1_555 1_555
C21_6 C17_6 1_555 1_555
C22_6 C16_6 1_555 1_555
H11_6 C22_6 1_555 1_555
C23_6 C2_6 1_555 1_555
H12_6 C23_6 1_555 1_555
O12_3 C1_6 1_555 1_555
O13_3 C1_6 1_555 1_555
C7_6 C16_6 1_555 1_555
C17_6 C20_6 1_555 1_555
C21_6 O5_6 1_555 1_555
C21_6 O8_6 1_555 1_555
C22_6 C23_6 1_555 1_555
Zn2_4 N1_7 1_555 1_555
N1_7 C10_7 1_555 1_555
C5_7 C12_7 1_555 1_555
C12_7 N1_7 1_555 1_555
H5_7 C12_7 1_555 1_555
O5_7 Zn2_4 1_555 1_555
C1_7 C2_7 1_555 1_555
N5_4 C4_7 1_555 1_555
C2_7 C4_7 1_555 1_555
C4_7 H2_7 1_555 1_555
C16_7 N5_4 1_555 1_555
C22_7 C16_7 1_555 1_555
H11_7 C22_7 1_555 1_555
C23_7 C2_7 1_555 1_555
H12_7 C23_7 1_555 1_555
O6_4 C1_7 1_555 1_555
O7_4 C1_7 1_555 1_555
U4 O6_4 1_555 1_555
C22_7 C23_7 1_555 1_555
O7_4 U4 1_555 1_555
U4 O1_7 1_555 1_555
N6_4 C7_7 1_555 1_555
C6_7 C13_7 1_555 1_555
C7_7 C14_7 1_555 1_555
C8_7 C3_7 1_555 1_555
H3_7 C8_7 1_555 1_555
C9_7 N2_7 1_555 1_555
H4_7 C9_7 1_555 1_555
C11_7 N2_7 1_555 1_555
C13_7 C8_7 1_555 1_555
C14_7 H6_7 1_555 1_555
C17_7 C18_7 1_555 1_555
C18_7 C14_7 1_555 1_555
H8_7 C18_7 1_555 1_555
C20_7 N6_4 1_555 1_555
C21_7 C17_7 1_555 1_555
O1_7 C6_7 1_555 1_555
O11 C6_7 1_555 1_555
O3_7 U4 1_555 1_555
O4_7 U4 1_555 1_555
C3_7 C11_7 1_555 1_555
C9_7 C13_7 1_555 1_555
C17_7 C20_7 1_555 1_555
C21_7 O8_7 1_555 1_555
H7_7 C15_7 1_555 1_555
H9_7 C19_7 1_555 1_555
O14_3 C24_7 1_555 1_555
C15_7 C19_7 1_555 1_555
H7_8 C15_8 1_555 1_555
H9_8 C19_8 1_555 1_555
O14_4 C24_8 1_555 1_555
C15_8 C19_8 1_555 1_555
Zn2_3 N1_8 1_555 1_555
N1_8 C10_8 1_555 1_555
C5_8 C12_8 1_555 1_555
C12_8 N1_8 1_555 1_555
H5_8 C12_8 1_555 1_555
U4_2 O1_8 1_555 1_555
C6_8 C13_8 1_555 1_555
C8_8 C3_8 1_555 1_555
H3_8 C8_8 1_555 1_555
C9_8 N2_8 1_555 1_555
H4_8 C9_8 1_555 1_555
C11_8 N2_8 1_555 1_555
C13_8 C8_8 1_555 1_555
O1_8 C6_8 1_555 1_555
O11_2 C6_8 1_555 1_555
O3_8 U4_2 1_555 1_555
O4_8 U4_2 1_555 1_555
O12_4 U4_2 1_555 1_555
O13_4 U4_2 1_555 1_555
C3_8 C11_8 1_555 1_555
C9_8 C13_8 1_555 1_555
C1_8 C2_8 1_555 1_555
N5_3 C4_8 1_555 1_555
C2_8 C4_8 1_555 1_555
N6_3 C7_8 1_555 1_555
C4_8 H2_8 1_555 1_555
C7_8 C14_8 1_555 1_555
C14_8 H6_8 1_555 1_555
C16_8 N5_3 1_555 1_555
C17_8 C18_8 1_555 1_555
C18_8 C14_8 1_555 1_555
H8_8 C18_8 1_555 1_555
C20_8 N6_3 1_555 1_555
C21_8 C17_8 1_555 1_555
C22_8 C16_8 1_555 1_555
H11_8 C22_8 1_555 1_555
C23_8 C2_8 1_555 1_555
H12_8 C23_8 1_555 1_555
O12_4 C1_8 1_555 1_555
O13_4 C1_8 1_555 1_555
C7_8 C16_8 1_555 1_555
C17_8 C20_8 1_555 1_555
C21_8 O8_8 1_555 1_555
C22_8 C23_8 1_555 1_555

#END
