
###############################################################################
#
# This file contains modified crystal structure data generated from the
# MOF subset of the Cambridge Structural Database (CSD) v543 
# hosted by the Cambridge Crystallographic Data Centre (CCDC).
#
# This work is licensed under the Creative Commons
# Attribution-NonCommercial-ShareAlike 4.0 International License.
# To view a copy of this license, visit
# http://creativecommons.org/licenses/by-nc-sa/4.0/
# or send a letter to
# Creative Commons, PO Box 1866, Mountain View, CA 94042, USA.
#
# CIF created using the CSD Python API on 29 September 2022
# The structure has been converted into the P1 space group
# The structure has a 3D framework
# The original CSD entry YAKCUM is in the orthorhombic crystal system
# The original CSD entry YAKCUM is in a Sohncke space group
# The framework has been calculated to contain at least 10.0% void space
# The void calculation uses a probe of radius 1.32A, grid spacing 0.4
# The framework is charged, counterions have been retained in the structure
# H atom positions have been added when not included in the experimental data
#
###############################################################################

data_YAKCUM
_chemical_formula_moiety         '(C200 H384 Ca20 Cu40 N40 O345 1+)n'
_symmetry_cell_setting           triclinic
_symmetry_space_group_name_H-M   'P 1'
_symmetry_Int_Tables_number      1
_space_group_name_Hall           'P 1'
loop_
_symmetry_equiv_pos_site_id
_symmetry_equiv_pos_as_xyz
1 x,y,z
_cell_length_a                   23.196(2)
_cell_length_b                   23.760(2)
_cell_length_c                   31.489(3)
_cell_angle_alpha                90
_cell_angle_beta                 90
_cell_angle_gamma                90
_cell_volume                     17354.8
loop_
_atom_site_label
_atom_site_type_symbol
_atom_site_fract_x
_atom_site_fract_y
_atom_site_fract_z
O17 O 0.6388(6) 0.1857(6) 0.0198(4)
O18 O 0.6256(4) 0.3110(5) 0.0338(3)
O19 O 0.7428(7) 0.2739(10) 0.0443(4)
H39 H 0.584024 0.308153 0.0265994
H40 H 0.632687 0.292838 0.0617174
H43 H 0.750983 0.314378 0.0493257
H44 H 0.72171 0.258183 0.0690477
H46 H 0.705238 0.373787 0.00641552
H47 H 0.65621 0.149454 0.0107459
H48 H 0.645929 0.191521 0.0505827
Ca1 Ca 0.59130(5) 0.33977(6) 0.87398(4)
Ca2 Ca 0.50748(8) 0.42606(8) 0.76898(5)
Ca3 Ca 0.68266(9) 0.26358(9) 0.97912(6)
O1 O 0.5239(3) 0.3302(3) 0.8002(2)
O2 O 0.5342(3) 0.4348(3) 0.84767(18)
O3 O 0.6876(3) 0.2862(3) 0.8988(2)
O4 O 0.5831(3) 0.2704(3) 0.94855(19)
O5 O 0.6530(3) 0.3239(3) 0.8103(2)
O6 O 0.4875(3) 0.3276(3) 0.89387(19)
O7 O 0.5824(3) 0.2386(3) 0.85333(19)
O8 O 0.6634(3) 0.4158(3) 0.87302(19)
O9 O 0.5704(3) 0.3984(3) 0.93642(18)
O10 O 0.4162(3) 0.4492(3) 0.7995(2)
O11 O 0.4282(5) 0.3683(5) 0.7358(3)
O12 O 0.5536(5) 0.3705(4) 0.7102(3)
O13 O 0.4877(4) 0.4737(4) 0.6989(2)
O14 O 0.5089(3) 0.5314(3) 0.7825(2)
O15 O 0.6065(3) 0.4524(4) 0.7682(3)
O16 O 0.7037(4) 0.1722(4) 0.9451(2)
O20 O 0.7865(3) 0.2630(3) 0.9646(2)
O21 O 0.7023(5) 0.3590(4) 0.9770(5)
H31 H 0.643656 0.452548 0.869271
H32 H 0.684978 0.415887 0.900256
H33 H 0.598659 0.233108 0.824454
H34 H 0.603893 0.214928 0.873939
H35 H 0.473105 0.291252 0.882478
H36 H 0.48373 0.327748 0.925282
H37 H 0.64697 0.354944 0.78966
H38 H 0.694135 0.322922 0.819001
H41 H 0.419482 0.449241 0.830942
H42 H 0.404083 0.487083 0.789615
H45 H 0.670777 0.378805 0.961771
H49 H 0.548376 0.543133 0.790894
H50 H 0.497423 0.551604 0.756221
H51 H 0.451069 0.459113 0.68685
H52 H 0.484443 0.514952 0.703351
H53 H 0.628512 0.425591 0.750247
H54 H 0.610351 0.490985 0.756421
H55 H 0.798453 0.300475 0.953768
H56 H 0.807823 0.254474 0.991177
H57 H 0.403148 0.352611 0.758466
H58 H 0.404842 0.392522 0.716712
H59 H 0.740676 0.17478 0.929329
H60 H 0.706734 0.142557 0.967217
H61 H 0.533005 0.386743 0.949
H62 H 0.60153 0.393629 0.957766
H63 H 0.529009 0.337581 0.703176
H64 H 0.557836 0.394729 0.684696
O6_2 O 0.0125(3) 0.6724(3) 0.39387(19)
O10_2 O 0.0838(3) 0.5508(3) 0.2995(2)
O11_2 O 0.0718(5) 0.6317(5) 0.2358(3)
O13_2 O 0.0123(4) 0.5263(4) 0.1989(2)
H35_2 H 0.0268954 0.708748 0.382478
H36_2 H 0.0162697 0.672252 0.425282
H41_2 H 0.0805184 0.550759 0.330942
H42_2 H 0.0959174 0.512917 0.289615
H50_2 H 0.00257725 0.448396 0.256221
H51_2 H 0.0489306 0.540887 0.18685
H52_2 H 0.0155573 0.485048 0.203351
H57_2 H 0.0968521 0.647389 0.258466
H58_2 H 0.0951578 0.607478 0.216712
Ca1_2 Ca 0.90870(5) 0.66023(6) 0.37398(4)
Ca2_2 Ca 0.99252(8) 0.57394(8) 0.26898(5)
Ca3_2 Ca 0.81734(9) 0.73642(9) 0.47912(6)
O1_2 O 0.9761(3) 0.6698(3) 0.3002(2)
O2_2 O 0.9658(3) 0.5652(3) 0.34767(18)
O3_2 O 0.8124(3) 0.7138(3) 0.3988(2)
O4_2 O 0.9169(3) 0.7296(3) 0.44855(19)
O5_2 O 0.8470(3) 0.6761(3) 0.3103(2)
O7_2 O 0.9176(3) 0.7614(3) 0.35333(19)
O8_2 O 0.8366(3) 0.5842(3) 0.37302(19)
O9_2 O 0.9296(3) 0.6016(3) 0.43642(18)
O12_2 O 0.9464(5) 0.6295(4) 0.2102(3)
O14_2 O 0.9911(3) 0.4686(3) 0.2825(2)
O15_2 O 0.8935(3) 0.5476(4) 0.2682(3)
O16_2 O 0.7963(4) 0.8278(4) 0.4451(2)
O17_2 O 0.8612(6) 0.8143(6) 0.5198(4)
O18_2 O 0.8744(4) 0.6890(5) 0.5338(3)
O19_2 O 0.7572(7) 0.7261(10) 0.5443(4)
O20_2 O 0.7135(3) 0.7370(3) 0.4646(2)
O21_2 O 0.7977(5) 0.6410(4) 0.4770(5)
H31_2 H 0.856344 0.547452 0.369271
H32_2 H 0.815022 0.584113 0.400256
H33_2 H 0.901341 0.766892 0.324454
H34_2 H 0.896107 0.785072 0.373939
H37_2 H 0.85303 0.645056 0.28966
H38_2 H 0.805865 0.677078 0.319001
H39_2 H 0.915976 0.691847 0.526599
H40_2 H 0.867313 0.707162 0.561717
H43_2 H 0.749017 0.685622 0.549326
H44_2 H 0.77829 0.741817 0.569048
H45_2 H 0.829223 0.621195 0.461771
H46_2 H 0.794762 0.626213 0.506416
H47_2 H 0.84379 0.850546 0.510746
H48_2 H 0.854071 0.808479 0.550583
H49_2 H 0.951624 0.456867 0.290894
H53_2 H 0.871488 0.574409 0.250247
H54_2 H 0.889649 0.509015 0.256421
H55_2 H 0.701547 0.699525 0.453768
H56_2 H 0.692177 0.745526 0.491177
H59_2 H 0.759324 0.82522 0.429329
H60_2 H 0.793266 0.857443 0.467217
H61_2 H 0.966995 0.613257 0.449
H62_2 H 0.89847 0.606371 0.457766
H63_2 H 0.970991 0.662419 0.203176
H64_2 H 0.942164 0.605271 0.184696
O14_3 O 0.4911(3) 0.0314(3) 0.7175(2)
H49_3 H 0.451624 0.0431328 0.709106
H50_3 H 0.502577 0.0516037 0.743779
H52_3 H 0.515557 0.0149522 0.796649
Ca1_3 Ca 0.40870(5) 0.83977(6) 0.62602(4)
Ca2_3 Ca 0.49252(8) 0.92606(8) 0.73102(5)
Ca3_3 Ca 0.31734(9) 0.76358(9) 0.52088(6)
O1_3 O 0.4761(3) 0.8302(3) 0.6998(2)
O2_3 O 0.4658(3) 0.9348(3) 0.65233(18)
O3_3 O 0.3124(3) 0.7862(3) 0.6012(2)
O4_3 O 0.4169(3) 0.7704(3) 0.55145(19)
O5_3 O 0.3470(3) 0.8239(3) 0.6897(2)
O6_3 O 0.5125(3) 0.8276(3) 0.60613(19)
O7_3 O 0.4176(3) 0.7386(3) 0.64667(19)
O8_3 O 0.3366(3) 0.9158(3) 0.62698(19)
O9_3 O 0.4296(3) 0.8984(3) 0.56358(18)
O10_3 O 0.5838(3) 0.9492(3) 0.7005(2)
O11_3 O 0.5718(5) 0.8683(5) 0.7642(3)
O12_3 O 0.4464(5) 0.8705(4) 0.7898(3)
O13_3 O 0.5123(4) 0.9737(4) 0.8011(2)
O15_3 O 0.3935(3) 0.9524(4) 0.7318(3)
O16_3 O 0.2963(4) 0.6722(4) 0.5549(2)
O17_3 O 0.3612(6) 0.6857(6) 0.4802(4)
O18_3 O 0.3744(4) 0.8110(5) 0.4662(3)
O19_3 O 0.2572(7) 0.7739(10) 0.4557(4)
O20_3 O 0.2135(3) 0.7630(3) 0.5354(2)
O21_3 O 0.2977(5) 0.8590(4) 0.5230(5)
H31_3 H 0.356344 0.952548 0.630729
H32_3 H 0.315022 0.915887 0.599744
H33_3 H 0.401341 0.733108 0.675546
H34_3 H 0.396107 0.714928 0.626061
H35_3 H 0.526895 0.791252 0.617522
H36_3 H 0.51627 0.827748 0.574718
H37_3 H 0.35303 0.854944 0.71034
H38_3 H 0.305865 0.822922 0.680999
H39_3 H 0.415976 0.808153 0.473401
H40_3 H 0.367313 0.792838 0.438283
H41_3 H 0.580518 0.949241 0.669058
H42_3 H 0.595917 0.987083 0.710385
H43_3 H 0.249017 0.814378 0.450674
H44_3 H 0.27829 0.758183 0.430952
H45_3 H 0.329223 0.878805 0.538229
H46_3 H 0.294762 0.873787 0.493584
H47_3 H 0.34379 0.649454 0.489254
H48_3 H 0.354071 0.691521 0.449417
H51_3 H 0.548931 0.959113 0.81315
H53_3 H 0.371488 0.925591 0.749753
H54_3 H 0.389649 0.990985 0.743579
H55_3 H 0.201547 0.800475 0.546232
H56_3 H 0.192177 0.754474 0.508823
H57_3 H 0.596852 0.852611 0.741534
H58_3 H 0.595158 0.892522 0.783288
H59_3 H 0.259324 0.67478 0.570671
H60_3 H 0.293266 0.642557 0.532783
H61_3 H 0.466995 0.886743 0.551
H62_3 H 0.39847 0.893629 0.542234
H63_3 H 0.470991 0.837581 0.796824
H64_3 H 0.442164 0.894729 0.815304
Ca1_4 Ca 0.09130(5) 0.16023(6) 0.12602(4)
Ca2_4 Ca 0.00748(8) 0.07394(8) 0.23102(5)
Ca3_4 Ca 0.18266(9) 0.23642(9) 0.02088(6)
O1_4 O 0.0239(3) 0.1698(3) 0.1998(2)
O2_4 O 0.0342(3) 0.0652(3) 0.15233(18)
O3_4 O 0.1876(3) 0.2138(3) 0.1012(2)
O4_4 O 0.0831(3) 0.2296(3) 0.05145(19)
O5_4 O 0.1530(3) 0.1761(3) 0.1897(2)
O7_4 O 0.0824(3) 0.2614(3) 0.14667(19)
O8_4 O 0.1634(3) 0.0842(3) 0.12698(19)
O9_4 O 0.0704(3) 0.1016(3) 0.06358(18)
O12_4 O 0.0536(5) 0.1295(4) 0.2898(3)
O15_4 O 0.1065(3) 0.0476(4) 0.2318(3)
O16_4 O 0.2037(4) 0.3278(4) 0.0549(2)
O20_4 O 0.2865(3) 0.2370(3) 0.0354(2)
O21_4 O 0.2023(5) 0.1410(4) 0.0230(5)
H31_4 H 0.143656 0.047452 0.130729
H32_4 H 0.184978 0.0841131 0.0997445
H33_4 H 0.0986586 0.266892 0.175546
H34_4 H 0.103893 0.285072 0.126061
H37_4 H 0.14697 0.145056 0.21034
H38_4 H 0.194135 0.177078 0.180999
H45_4 H 0.170777 0.121195 0.0382289
H53_4 H 0.128512 0.0744087 0.249753
H54_4 H 0.110351 0.00901456 0.243579
H55_4 H 0.298453 0.199525 0.0462318
H56_4 H 0.307823 0.245526 0.00882311
H59_4 H 0.240676 0.32522 0.0706713
H60_4 H 0.206734 0.357443 0.0327831
H61_4 H 0.0330049 0.113257 0.0509997
H62_4 H 0.10153 0.106371 0.0422344
H63_4 H 0.0290087 0.162419 0.296824
H64_4 H 0.0578363 0.105271 0.315304
O17_4 O 0.1388(6) 0.3143(6) 0.9802(4)
O18_4 O 0.1256(4) 0.1890(5) 0.9662(3)
O19_4 O 0.2428(7) 0.2261(10) 0.9557(4)
H39_4 H 0.084024 0.191847 0.973401
H40_4 H 0.132687 0.207162 0.938283
H43_4 H 0.250983 0.185622 0.950674
H44_4 H 0.22171 0.241817 0.930952
H46_4 H 0.205238 0.126213 0.993584
H47_4 H 0.15621 0.350546 0.989254
H48_4 H 0.145929 0.308479 0.949417
O14_4 O 0.0089(3) 0.9686(3) 0.2175(2)
H49_4 H 0.0483757 0.956867 0.209106
O6_4 O 0.9875(3) 0.1724(3) 0.10613(19)
O10_4 O 0.9162(3) 0.0508(3) 0.2005(2)
O11_4 O 0.9282(5) 0.1317(5) 0.2642(3)
O13_4 O 0.9877(4) 0.0263(4) 0.3011(2)
H35_4 H 0.973105 0.208748 0.117522
H36_4 H 0.98373 0.172252 0.0747179
H41_4 H 0.919482 0.0507588 0.169058
H42_4 H 0.904083 0.0129174 0.210385
H51_4 H 0.951069 0.0408868 0.31315
H57_4 H 0.903148 0.147389 0.241534
H58_4 H 0.904842 0.107478 0.283288
H50_4 H 0.997423 0.948396 0.243779
H52_4 H 0.984443 0.985048 0.296649
O72 O 0.7341(4) 0.0580(4) 0.0040(3)
O90 O 0.8735(3) 0.1555(3) 0.03590(17)
H66 H 0.731672 0.0319543 0.028597
Cu2 Cu 0.83838(5) 0.27390(5) 0.83917(3)
Cu4 Cu 0.25288(5) 0.02578(5) 0.70537(3)
Cu8 Cu 0.62865(5) 0.09157(5) 0.83858(4)
Cu9 Cu 0.70376(5) 0.27819(6) 0.70559(3)
Cu10 Cu 0.44563(5) 0.18526(5) 0.77027(3)
Ca4 Ca 0.85144(12) 0.07203(13) 0.98016(7)
Ca5 Ca 0.66377(14) 0.51969(13) 0.62295(8)
N2 N 0.2776(3) 0.0616(3) 0.6534(2)
N3 N 0.7990(3) 0.2191(3) 0.8029(2)
N4 N 0.7627(3) 0.3272(4) 0.7313(2)
N5 N 0.5461(3) 0.0990(3) 0.8503(2)
N6 N 0.5242(3) 0.1677(3) 0.7538(2)
O22 O 0.2678(3) 0.0507(3) 0.58012(16)
O25 O 0.3203(3) 0.0537(3) 0.73590(19)
O27 O 0.7702(3) 0.4769(3) 0.74631(16)
O28 O 0.8218(3) 0.3267(3) 0.79019(19)
O29 O 0.7353(3) 0.2206(3) 0.74510(18)
O30 O 0.6585(3) 0.4281(4) 0.6580(2)
O31 O 0.6960(3) 0.1878(3) 0.8442(2)
O32 O 0.8120(3) 0.1408(3) 0.9194(2)
O33 O 0.6063(3) 0.1252(3) 0.7828(2)
O34 O 0.4648(3) 0.1401(3) 0.8226(2)
O35 O 0.4713(4) 0.2905(4) 0.6723(2)
O36 O 0.6243(3) 0.0688(4) 0.9672(2)
O43 O 0.4646(3) 0.1196(3) 0.9458(2)
O49 O 0.3887(3) 0.0229(3) 0.63616(19)
O50 O 0.5955(3) 0.2615(3) 0.74984(19)
O53 O 0.7154(3) 0.4129(3) 0.77790(18)
O54 O 0.7102(3) 0.0998(3) 0.8233(2)
O58 O 0.5284(3) 0.1754(3) 0.91584(19)
O60 O 0.4190(3) 0.1097(3) 0.62151(17)
O61 O 0.6396(3) 0.2283(3) 0.69324(19)
O63 O 0.4000(3) 0.1034(3) 0.7458(2)
O64 O 0.6660(3) 0.3425(3) 0.67717(19)
O65 O 0.8331(3) 0.2229(3) 0.8880(2)
O66 O 0.4359(3) 0.2404(3) 0.7250(2)
O67 O 0.6483(3) 0.0796(3) 0.8990(2)
C2 C 0.2551(4) 0.0404(3) 0.6178(2)
C6 C 0.3240(4) 0.1027(4) 0.6482(2)
H4 H 0.311572 0.131038 0.626583
C7 C 0.3346(4) 0.1342(4) 0.6915(3)
H5 H 0.365196 0.162737 0.687546
H6 H 0.298867 0.154063 0.699963
C8 C 0.3526(3) 0.0933(4) 0.7274(3)
C10 C 0.7518(4) 0.4285(4) 0.7505(2)
C11 C 0.7739(3) 0.2441(4) 0.7705(2)
C12 C 0.7874(3) 0.3040(4) 0.7639(2)
C13 C 0.7770(4) 0.3856(4) 0.7181(2)
H7 H 0.819958 0.389637 0.718032
C14 C 0.7546(4) 0.3986(5) 0.6730(2)
H8 H 0.775463 0.374738 0.652301
H9 H 0.763073 0.438414 0.666099
C15 C 0.6887(4) 0.3881(5) 0.6684(3)
C16 C 0.7873(4) 0.1614(5) 0.8114(3)
H10 H 0.791776 0.139705 0.784404
C17 C 0.7282(4) 0.1531(4) 0.8273(2)
C18 C 0.8323(4) 0.1396(5) 0.8438(3)
H11 H 0.871694 0.146392 0.832830
H12 H 0.827409 0.098544 0.847877
C19 C 0.8243(4) 0.1707(5) 0.8874(3)
C21 C 0.5187(4) 0.1251(4) 0.8213(3)
C22 C 0.5530(4) 0.1400(4) 0.7824(3)
C23 C 0.5079(4) 0.1975(5) 0.6797(3)
H13 H 0.529069 0.207178 0.653355
H14 H 0.482910 0.164808 0.673385
C24 C 0.4710(4) 0.2462(5) 0.6921(3)
C25 C 0.5172(4) 0.0830(5) 0.8898(3)
H15 H 0.480031 0.064390 0.881962
C26 C 0.5553(4) 0.0376(5) 0.9156(3)
H16 H 0.533810 0.024779 0.941011
H17 H 0.563028 0.004492 0.897456
C27 C 0.6117(5) 0.0641(5) 0.9291(3)
C38 C 0.5033(3) 0.1314(4) 0.9195(3)
C48 C 0.3828(4) 0.0762(4) 0.6333(2)
C49 C 0.5523(4) 0.1805(4) 0.7146(2)
H30 H 0.571767 0.145263 0.704736
C50 C 0.5997(4) 0.2261(4) 0.7198(2)
O74 O 0.5961(3) 0.5188(4) 0.5646(3)
O75 O 0.5983(5) 0.5262(5) 0.6862(3)
O76 O 0.6310(3) 0.6140(3) 0.6296(2)
O77 O 0.7183(4) 0.5747(4) 0.5758(3)
O78 O 0.7372(4) 0.5433(4) 0.6727(3)
O79 O 0.7156(5) 0.4534(5) 0.5793(3)
O80 O 0.1581(5) 0.0635(5) 0.5233(3)
O81 O 0.9320(4) 0.2548(4) 0.8167(2)
O83 O 0.1875(5) 0.0922(4) 0.7256(3)
O86 O 0.6285(3) 0.0014(4) 0.8148(3)
O87 O 0.7568(4) 0.2533(5) 0.6454(3)
Cu13 Cu 0.48466(5) 0.07954(5) 0.59000(3)
Cu14 Cu 0.74712(5) 0.52578(5) 0.79463(3)
Cu15 Cu 0.43707(5) 0.18958(5) 0.97453(3)
O88 O 0.2781(3) 0.0169(3) 0.49458(18)
O92 O 0.9590(3) 0.0230(3) 0.99914(19)
O93 O 0.8662(3) 0.3367(3) 0.87358(17)
O94 O 0.3715(3) 0.2086(3) 0.79694(19)
H65 H 0.712112 0.0420877 0.979752
H67 H 0.620168 0.516471 0.712297
H68 H 0.583153 0.565154 0.688654
H69 H 0.645079 0.630062 0.656803
H70 H 0.646023 0.636721 0.605557
H71 H 0.556616 0.512077 0.57568
H72 H 0.597291 0.555619 0.549705
H73 H 0.72069 0.555426 0.547874
H74 H 0.699548 0.611959 0.572159
H75 H 0.769886 0.516604 0.669712
H76 H 0.75092 0.582206 0.667177
H79 H 0.157284 0.0958344 0.703431
H80 H 0.169423 0.0807823 0.752856
H81 H 0.792899 0.23412 0.654223
H82 H 0.733592 0.227499 0.627423
H85 H 0.156057 0.0924215 0.546015
H86 H 0.169329 0.0816247 0.496116
H87 H 0.689092 0.422911 0.57014
H88 H 0.731143 0.473012 0.553916
H93 H 0.935133 0.261972 0.785719
H94 H 0.959426 0.279497 0.83216
Cu1 Cu 0.22582(4) 0.99632(4) 0.54135(3)
Cu5 Cu 0.06293(5) 0.81042(5) 0.47453(3)
Cu7 Cu 0.16211(5) 0.63306(5) 0.40703(3)
N1 N 0.1880(3) 0.9732(3) 0.5938(2)
N7 N 0.0825(3) 0.7342(3) 0.4916(2)
N8 N 0.1519(3) 0.7112(3) 0.3941(2)
N9 N 0.0389(3) 0.4604(4) 0.4451(2)
O23 O 0.1968(3) 0.9862(3) 0.66721(16)
O24 O 0.1442(3) 0.8547(3) 0.50293(18)
O37 O 0.1096(3) 0.7925(3) 0.42192(16)
O38 O 0.1265(3) 0.6555(3) 0.46410(17)
O41 O 0.0727(2) 0.7265(3) 0.33003(18)
O42 O 0.1855(4) 0.6365(3) 0.2786(2)
O45 O 0.0410(3) 0.5230(3) 0.50086(19)
O47 O 0.0670(3) 0.5615(3) 0.40209(18)
O48 O 0.1180(4) 0.4455(3) 0.3263(2)
O51 O 0.2232(3) 0.8663(3) 0.6154(2)
O55 O 0.1338(3) 0.8367(3) 0.62642(17)
O56 O 0.0340(3) 0.6177(3) 0.55309(17)
O57 O 0.1285(3) 0.7914(3) 0.29694(19)
O59 O 0.1576(3) 0.5533(3) 0.4233(2)
O62 O 0.1962(3) 0.9318(3) 0.51014(18)
O68 O 0.0045(3) 0.8179(3) 0.51878(19)
O69 O 0.1751(3) 0.6131(3) 0.3456(2)
O71 O 0.0351(3) 0.4268(3) 0.35892(18)
C1 C 0.2105(3) 0.9975(3) 0.6286(3)
C3 C 0.1450(4) 0.9275(4) 0.5994(2)
H1 H 0.115742 0.940534 0.620587
C4 C 0.1140(4) 0.9193(4) 0.5563(2)
H2 H 0.083200 0.890792 0.559970
H3 H 0.095290 0.955140 0.548225
C5 C 0.1538(4) 0.9004(4) 0.5198(2)
C20 C 0.1705(3) 0.8721(4) 0.6154(2)
C28 C 0.1099(4) 0.7057(3) 0.4616(2)
C29 C 0.1252(4) 0.7401(4) 0.4237(2)
C30 C 0.0704(4) 0.7070(4) 0.5309(2)
H18 H 0.107528 0.690565 0.541288
C31 C 0.0500(4) 0.7503(4) 0.5653(3)
H19 H 0.039411 0.729352 0.591318
H20 H 0.082883 0.775112 0.572500
C32 C 0.0010(4) 0.7856(4) 0.5527(3)
C33 C 0.0280(4) 0.6594(4) 0.5277(2)
C34 C 0.1675(4) 0.7423(4) 0.3539(3)
H21 H 0.184677 0.779651 0.361330
C35 C 0.1172(4) 0.7507(3) 0.3272(2)
C36 C 0.2134(4) 0.7057(5) 0.3313(3)
H22 H 0.246508 0.699922 0.350609
H23 H 0.227530 0.725849 0.305828
C37 C 0.1890(4) 0.6470(4) 0.3176(3)
C40 C 0.0169(4) 0.4886(4) 0.4768(2)
C41 C 0.0994(4) 0.4743(4) 0.4337(3)
H24 H 0.122943 0.470224 0.460142
C42 C 0.1065(4) 0.5344(4) 0.4185(3)
C43 C 0.1226(4) 0.4304(4) 0.4010(3)
H25 H 0.164155 0.437276 0.395917
H26 H 0.118476 0.392006 0.412906
C44 C 0.0901(4) 0.4340(4) 0.3590(3)
O73 O 0.8517(9) 0.9804(9) 0.9297(5)
O82 O 0.0118(4) 0.3311(4) 0.4330(2)
O84 O 0.0258(5) 0.5026(5) 0.5982(2)
O85 O 0.2575(3) 0.6356(4) 0.4298(2)
Cu12 Cu 0.16162(5) 0.77390(5) 0.66083(3)
Cu16 Cu 0.05437(5) 0.81474(5) 0.27027(3)
Ca6 Ca 0.14856(12) 0.57203(13) 0.51984(7)
O89 O 0.2298(3) 0.9769(3) 0.75369(16)
O91 O 0.0354(3) 0.8804(3) 0.4458(2)
H77 H 0.877661 0.986994 0.905124
H78 H 0.865554 0.947347 0.94608
H83 H 0.00566951 0.32811 0.464128
H89 H 0.260845 0.661051 0.454691
H90 H 0.269985 0.59712 0.437974
H91 H 0.60329 0.998443 0.789411
H92 H 0.668384 0.99014 0.807113
H95 H 0.0467982 0.46964 0.58651
H96 H 0.0532788 0.527421 0.613496
Cu3 Cu 0.98466(5) 0.42046(5) 0.41000(3)
Cu6 Cu 0.98325(5) 0.55233(5) 0.54312(3)
N10 N 0.9330(3) 0.4936(3) 0.51990(18)
O26 O 0.7781(3) 0.4831(3) 0.50542(18)
O39 O 0.9537(4) 0.7825(4) 0.5716(2)
O40 O 0.9880(3) 0.6621(3) 0.50018(18)
O44 O 0.9318(3) 0.4341(3) 0.46011(19)
O46 O 0.8316(3) 0.5929(4) 0.5923(2)
O52 O 0.8419(3) 0.5387(3) 0.4748(2)
O70 O 0.9188(4) 0.5856(3) 0.5755(2)
C9 C 0.8278(4) 0.5024(4) 0.5022(2)
C39 C 0.9562(4) 0.4714(4) 0.4858(2)
C45 C 0.8742(4) 0.4768(4) 0.5323(2)
H27 H 0.870934 0.434875 0.532776
C46 C 0.8654(5) 0.5010(4) 0.5778(2)
H28 H 0.825998 0.491237 0.587381
H29 H 0.892886 0.482191 0.597178
C47 C 0.8731(4) 0.5636(4) 0.5819(3)
Cu11 Cu 0.72582(4) 0.50368(4) 0.45865(3)
O95 O 0.9190(3) 0.3903(3) 0.37849(17)
H84 H 0.988125 0.302289 0.418245
Cu1_2 Cu 0.27418(4) 0.00368(4) 0.04135(3)
Cu6_2 Cu 0.51675(5) 0.44767(5) 0.04312(3)
N1_2 N 0.3120(3) 0.0268(3) 0.0938(2)
N10_2 N 0.5670(3) 0.5064(3) 0.01990(18)
O23_2 O 0.3032(3) 0.0138(3) 0.16721(16)
O24_2 O 0.3558(3) 0.1453(3) 0.00293(18)
O26_2 O 0.7219(3) 0.5169(3) 0.00542(18)
O39_2 O 0.5463(4) 0.2175(4) 0.0716(2)
O40_2 O 0.5120(3) 0.3379(3) 0.00018(18)
O45_2 O 0.4590(3) 0.4770(3) 0.00086(19)
O46_2 O 0.6684(3) 0.4071(4) 0.0923(2)
O51_2 O 0.2768(3) 0.1337(3) 0.1154(2)
O55_2 O 0.3662(3) 0.1633(3) 0.12642(17)
O56_2 O 0.4660(3) 0.3823(3) 0.05309(17)
O62_2 O 0.3038(3) 0.0682(3) 0.01014(18)
O68_2 O 0.4955(3) 0.1821(3) 0.01878(19)
O70_2 O 0.5812(4) 0.4144(3) 0.0755(2)
C1_2 C 0.2895(3) 0.0025(3) 0.1286(3)
C3_2 C 0.3550(4) 0.0725(4) 0.0994(2)
H1_2 H 0.384258 0.059466 0.120587
C4_2 C 0.3860(4) 0.0807(4) 0.0563(2)
H2_2 H 0.416800 0.109208 0.059970
H3_2 H 0.404710 0.044860 0.048225
C5_2 C 0.3462(4) 0.0996(4) 0.0198(2)
C9_2 C 0.6722(4) 0.4976(4) 0.0022(2)
C20_2 C 0.3295(3) 0.1279(4) 0.1154(2)
C30_2 C 0.4296(4) 0.2930(4) 0.0309(2)
H18_2 H 0.392472 0.309435 0.041288
C31_2 C 0.4500(4) 0.2497(4) 0.0653(3)
H19_2 H 0.460589 0.270648 0.091318
H20_2 H 0.417117 0.224888 0.072500
C32_2 C 0.4990(4) 0.2144(4) 0.0527(3)
C33_2 C 0.4720(4) 0.3406(4) 0.0277(2)
C45_2 C 0.6258(4) 0.5232(4) 0.0323(2)
H27_2 H 0.629066 0.565125 0.032776
C46_2 C 0.6346(5) 0.4990(4) 0.0778(2)
H28_2 H 0.674002 0.508763 0.087381
H29_2 H 0.607114 0.517809 0.097178
C47_2 C 0.6269(4) 0.4364(4) 0.0819(3)
O84_2 O 0.4742(5) 0.4974(5) 0.0982(2)
Cu12_2 Cu 0.33838(5) 0.22610(5) 0.16083(3)
Ca6_2 Ca 0.35144(12) 0.42797(13) 0.01984(7)
O89_2 O 0.2702(3) 0.0231(3) 0.25369(16)
H95_2 H 0.453202 0.53036 0.0865101
H96_2 H 0.446721 0.472579 0.113496
Cu3_2 Cu 0.51534(5) 0.57954(5) 0.91000(3)
Cu7_2 Cu 0.33789(5) 0.36694(5) 0.90703(3)
N7_2 N 0.4175(3) 0.2658(3) 0.9916(2)
N8_2 N 0.3481(3) 0.2888(3) 0.8941(2)
N9_2 N 0.4611(3) 0.5396(4) 0.9451(2)
O37_2 O 0.3904(3) 0.2075(3) 0.92192(16)
O38_2 O 0.3735(3) 0.3445(3) 0.96410(17)
O41_2 O 0.4273(2) 0.2735(3) 0.83003(18)
O42_2 O 0.3145(4) 0.3635(3) 0.7786(2)
O44_2 O 0.5682(3) 0.5659(3) 0.96011(19)
O47_2 O 0.4330(3) 0.4385(3) 0.90209(18)
O48_2 O 0.3820(4) 0.5545(3) 0.8263(2)
O52_2 O 0.6581(3) 0.4613(3) 0.9748(2)
O59_2 O 0.3424(3) 0.4467(3) 0.9233(2)
O69_2 O 0.3249(3) 0.3869(3) 0.8456(2)
O71_2 O 0.4649(3) 0.5732(3) 0.85892(18)
C28_2 C 0.3901(4) 0.2943(3) 0.9616(2)
C29_2 C 0.3748(4) 0.2599(4) 0.9237(2)
C34_2 C 0.3325(4) 0.2577(4) 0.8539(3)
H21_2 H 0.315323 0.220349 0.861330
C35_2 C 0.3828(4) 0.2493(3) 0.8272(2)
C36_2 C 0.2866(4) 0.2943(5) 0.8313(3)
H22_2 H 0.253492 0.300078 0.850609
H23_2 H 0.272470 0.274151 0.805828
C37_2 C 0.3110(4) 0.3530(4) 0.8176(3)
C39_2 C 0.5438(4) 0.5286(4) 0.9858(2)
C40_2 C 0.4831(4) 0.5114(4) 0.9768(2)
C41_2 C 0.4006(4) 0.5257(4) 0.9337(3)
H24_2 H 0.377057 0.529776 0.960142
C42_2 C 0.3935(4) 0.4656(4) 0.9185(3)
C43_2 C 0.3774(4) 0.5696(4) 0.9010(3)
H25_2 H 0.335845 0.562724 0.895917
H26_2 H 0.381524 0.607994 0.912906
C44_2 C 0.4099(4) 0.5660(4) 0.8590(3)
O82_2 O 0.4882(4) 0.6689(4) 0.9330(2)
O85_2 O 0.2425(3) 0.3644(4) 0.9298(2)
Cu11_2 Cu 0.77418(4) 0.49632(4) 0.95865(3)
O95_2 O 0.5810(3) 0.6097(3) 0.87849(17)
H83_2 H 0.49433 0.67189 0.964128
H84_2 H 0.511875 0.697711 0.918245
H89_2 H 0.239155 0.338949 0.954691
H90_2 H 0.230015 0.40288 0.937974
Cu4_2 Cu 0.24712(5) 0.97422(5) 0.20537(3)
N2_2 N 0.2224(3) 0.9384(3) 0.1534(2)
O22_2 O 0.2322(3) 0.9493(3) 0.08012(16)
O25_2 O 0.1797(3) 0.9463(3) 0.23590(19)
O34_2 O 0.0352(3) 0.8599(3) 0.3226(2)
O35_2 O 0.0287(4) 0.7095(4) 0.1723(2)
O49_2 O 0.1113(3) 0.9771(3) 0.13616(19)
O60_2 O 0.0810(3) 0.8903(3) 0.12151(17)
O63_2 O 0.1000(3) 0.8966(3) 0.2458(2)
O66_2 O 0.0641(3) 0.7596(3) 0.2250(2)
C2_2 C 0.2449(4) 0.9596(3) 0.1178(2)
C6_2 C 0.1760(4) 0.8973(4) 0.1482(2)
H4_2 H 0.188428 0.868962 0.126583
C7_2 C 0.1654(4) 0.8658(4) 0.1915(3)
H5_2 H 0.134804 0.837263 0.187546
H6_2 H 0.201133 0.845937 0.199963
C8_2 C 0.1474(3) 0.9067(4) 0.2274(3)
H14_2 H 0.017090 0.835192 0.173385
C24_2 C 0.0290(4) 0.7538(5) 0.1921(3)
H15_2 H 0.019969 0.935610 0.381962
C48_2 C 0.1172(4) 0.9238(4) 0.1333(2)
O80_2 O 0.3419(5) 0.9365(5) 0.0233(3)
O83_2 O 0.3125(5) 0.9078(4) 0.2256(3)
Cu13_2 Cu 0.01534(5) 0.92046(5) 0.09000(3)
H79_2 H 0.342716 0.904166 0.203431
H80_2 H 0.330577 0.919218 0.252856
H85_2 H 0.343943 0.907578 0.0460145
Cu2_2 Cu 0.66162(5) 0.72610(5) 0.33917(3)
Cu8_2 Cu 0.87135(5) 0.90843(5) 0.33858(4)
Cu9_2 Cu 0.79624(5) 0.72181(6) 0.20559(3)
Ca4_2 Ca 0.64856(12) 0.92797(13) 0.48016(7)
Ca5_2 Ca 0.83623(14) 0.48031(13) 0.12295(8)
N3_2 N 0.7010(3) 0.7809(3) 0.3029(2)
N4_2 N 0.7373(3) 0.6728(4) 0.2313(2)
N5_2 N 0.9539(3) 0.9010(3) 0.3503(2)
N6_2 N 0.9758(3) 0.8323(3) 0.2538(2)
O27_2 O 0.7298(3) 0.5231(3) 0.24631(16)
O28_2 O 0.6782(3) 0.6733(3) 0.29019(19)
O29_2 O 0.7647(3) 0.7794(3) 0.24510(18)
O30_2 O 0.8415(3) 0.5719(4) 0.1580(2)
O31_2 O 0.8040(3) 0.8122(3) 0.3442(2)
O32_2 O 0.6880(3) 0.8592(3) 0.4194(2)
O33_2 O 0.8937(3) 0.8748(3) 0.2828(2)
O36_2 O 0.8757(3) 0.9312(4) 0.4672(2)
O50_2 O 0.9045(3) 0.7385(3) 0.24984(19)
O53_2 O 0.7846(3) 0.5871(3) 0.27790(18)
O54_2 O 0.7898(3) 0.9002(3) 0.3233(2)
O58_2 O 0.9716(3) 0.8246(3) 0.41584(19)
O61_2 O 0.8604(3) 0.7717(3) 0.19324(19)
O64_2 O 0.8340(3) 0.6575(3) 0.17717(19)
O65_2 O 0.6669(3) 0.7771(3) 0.3880(2)
O67_2 O 0.8517(3) 0.9204(3) 0.3990(2)
C10_2 C 0.7482(4) 0.5715(4) 0.2505(2)
C11_2 C 0.7261(3) 0.7559(4) 0.2705(2)
C12_2 C 0.7126(3) 0.6960(4) 0.2639(2)
C13_2 C 0.7230(4) 0.6144(4) 0.2181(2)
H7_2 H 0.680042 0.610363 0.218032
C14_2 C 0.7454(4) 0.6014(5) 0.1730(2)
H8_2 H 0.724537 0.625262 0.152301
H9_2 H 0.736927 0.561586 0.166099
C15_2 C 0.8113(4) 0.6119(5) 0.1684(3)
C16_2 C 0.7127(4) 0.8386(5) 0.3114(3)
H10_2 H 0.708224 0.860295 0.284404
C17_2 C 0.7718(4) 0.8469(4) 0.3273(2)
C18_2 C 0.6677(4) 0.8604(5) 0.3438(3)
H11_2 H 0.628306 0.853608 0.332830
H12_2 H 0.672591 0.901456 0.347877
C19_2 C 0.6757(4) 0.8293(5) 0.3874(3)
C21_2 C 0.9813(4) 0.8749(4) 0.3213(3)
C22_2 C 0.9470(4) 0.8600(4) 0.2824(3)
C23_2 C 0.9921(4) 0.8025(5) 0.1797(3)
H13_2 H 0.970931 0.792822 0.153355
C25_2 C 0.9828(4) 0.9170(5) 0.3898(3)
C26_2 C 0.9447(4) 0.9624(5) 0.4156(3)
H16_2 H 0.966190 0.975221 0.441011
H17_2 H 0.936972 0.995508 0.397456
C27_2 C 0.8883(5) 0.9359(5) 0.4291(3)
C38_2 C 0.9967(3) 0.8686(4) 0.4195(3)
C49_2 C 0.9477(4) 0.8195(4) 0.2146(2)
H30_2 H 0.928233 0.854737 0.204736
C50_2 C 0.9003(4) 0.7739(4) 0.2198(2)
O72_2 O 0.7659(4) 0.9420(4) 0.5040(3)
O74_2 O 0.9039(3) 0.4812(4) 0.0646(3)
O75_2 O 0.9017(5) 0.4738(5) 0.1862(3)
O76_2 O 0.8690(3) 0.3860(3) 0.1296(2)
O77_2 O 0.7817(4) 0.4253(4) 0.0758(3)
O78_2 O 0.7628(4) 0.4567(4) 0.1727(3)
O79_2 O 0.7844(5) 0.5466(5) 0.0793(3)
O81_2 O 0.5680(4) 0.7452(4) 0.3167(2)
O86_2 O 0.8715(3) 0.9986(4) 0.3148(3)
O87_2 O 0.7432(4) 0.7467(5) 0.1454(3)
Cu14_2 Cu 0.75288(5) 0.47422(5) 0.29463(3)
O90_2 O 0.6265(3) 0.8445(3) 0.53590(17)
O92_2 O 0.5410(3) 0.9770(3) 0.49914(19)
O93_2 O 0.6338(3) 0.6633(3) 0.37358(17)
H65_2 H 0.787888 0.957912 0.479752
H66_2 H 0.768328 0.968046 0.528597
H67_2 H 0.879832 0.483529 0.212297
H68_2 H 0.916847 0.434846 0.188654
H69_2 H 0.854921 0.369938 0.156803
H70_2 H 0.853977 0.363279 0.105557
H71_2 H 0.943384 0.487923 0.0756801
H72_2 H 0.902709 0.444381 0.049705
H73_2 H 0.77931 0.444574 0.0478742
H74_2 H 0.800452 0.388041 0.0721586
H75_2 H 0.730114 0.483396 0.169712
H76_2 H 0.74908 0.417794 0.167177
H81_2 H 0.707101 0.76588 0.154223
H82_2 H 0.766408 0.772501 0.127423
H87_2 H 0.810908 0.577089 0.0701399
H88_2 H 0.768857 0.526988 0.0539155
H93_2 H 0.564867 0.738028 0.285719
H94_2 H 0.540574 0.720503 0.33216
O52_3 O 0.1581(3) 0.0387(3) 0.0252(2)
O44_3 O 0.0682(3) 0.9341(3) 0.03989(19)
C39_3 C 0.0438(4) 0.9714(4) 0.0142(2)
H84_3 H 0.0118747 0.802289 0.0817547
Ca5_3 Ca 0.33623(14) 0.01969(13) 0.87705(8)
O74_3 O 0.4039(3) 0.0188(4) 0.9354(3)
O75_3 O 0.4017(5) 0.0262(5) 0.8138(3)
O76_3 O 0.3690(3) 0.1140(3) 0.8704(2)
O77_3 O 0.2817(4) 0.0747(4) 0.9242(3)
O78_3 O 0.2628(4) 0.0433(4) 0.8273(3)
H67_3 H 0.379832 0.0164708 0.787703
H68_3 H 0.416847 0.065154 0.811346
H69_3 H 0.354921 0.130062 0.843197
H70_3 H 0.353977 0.136721 0.894443
H71_3 H 0.443384 0.0120772 0.92432
H72_3 H 0.402709 0.0556188 0.950295
H73_3 H 0.27931 0.0554264 0.952126
H74_3 H 0.300452 0.111959 0.927841
H75_3 H 0.230114 0.0166037 0.830288
H76_3 H 0.24908 0.0822056 0.832823
Cu5_2 Cu 0.93707(5) 0.31042(5) 0.02547(3)
Cu7_3 Cu 0.83789(5) 0.13306(5) 0.09297(3)
N7_3 N 0.9175(3) 0.2342(3) 0.0084(2)
N8_3 N 0.8481(3) 0.2112(3) 0.1059(2)
O37_3 O 0.8904(3) 0.2925(3) 0.07808(16)
O41_3 O 0.9273(2) 0.2265(3) 0.16997(18)
O42_3 O 0.8145(4) 0.1365(3) 0.2214(2)
O47_3 O 0.9330(3) 0.0615(3) 0.09791(18)
O57_2 O 0.8715(3) 0.2914(3) 0.20306(19)
O59_3 O 0.8424(3) 0.0533(3) 0.0767(2)
O69_3 O 0.8249(3) 0.1131(3) 0.1544(2)
C28_3 C 0.8901(4) 0.2057(3) 0.0384(2)
C29_3 C 0.8748(4) 0.2401(4) 0.0763(2)
C34_3 C 0.8325(4) 0.2423(4) 0.1461(3)
H21_3 H 0.815323 0.279651 0.138670
C35_3 C 0.8828(4) 0.2507(3) 0.1728(2)
C36_3 C 0.7866(4) 0.2057(5) 0.1687(3)
H22_3 H 0.753492 0.199922 0.149391
H23_3 H 0.772470 0.225849 0.194172
C37_3 C 0.8110(4) 0.1470(4) 0.1824(3)
C42_3 C 0.8935(4) 0.0344(4) 0.0815(3)
O85_3 O 0.7425(3) 0.1356(4) 0.0702(2)
Cu16_2 Cu 0.94563(5) 0.31474(5) 0.22973(3)
O91_2 O 0.9646(3) 0.3804(3) 0.0542(2)
H86_2 H 0.830671 0.581625 0.00388437
H89_3 H 0.739155 0.161051 0.0453087
H90_3 H 0.730015 0.0971196 0.0620261
Cu8_3 Cu 0.37135(5) 0.59157(5) 0.66142(4)
Cu9_3 Cu 0.29624(5) 0.77819(6) 0.79441(3)
Cu10_2 Cu 0.55437(5) 0.68526(5) 0.72973(3)
N1_3 N 0.8120(3) 0.4732(3) 0.9062(2)
N2_3 N 0.7224(3) 0.5616(3) 0.8466(2)
N3_3 N 0.2010(3) 0.7191(3) 0.6971(2)
N4_3 N 0.2373(3) 0.8272(4) 0.7687(2)
N5_3 N 0.4539(3) 0.5990(3) 0.6497(2)
N6_3 N 0.4758(3) 0.6677(3) 0.7462(2)
O22_3 O 0.7322(3) 0.5507(3) 0.91988(16)
O23_3 O 0.8032(3) 0.4862(3) 0.83279(16)
O24_3 O 0.8558(3) 0.3547(3) 0.99707(18)
O25_3 O 0.6797(3) 0.5537(3) 0.76410(19)
O28_3 O 0.1782(3) 0.8267(3) 0.70981(19)
O29_3 O 0.2647(3) 0.7206(3) 0.75490(18)
O30_3 O 0.3415(3) 0.9281(4) 0.8420(2)
O31_3 O 0.3040(3) 0.6878(3) 0.6558(2)
O32_3 O 0.1880(3) 0.6408(3) 0.5806(2)
O33_3 O 0.3937(3) 0.6252(3) 0.7172(2)
O34_3 O 0.5352(3) 0.6401(3) 0.6774(2)
O35_3 O 0.5287(4) 0.7905(4) 0.8277(2)
O36_3 O 0.3757(3) 0.5688(4) 0.5328(2)
O43_2 O 0.5354(3) 0.6196(3) 0.5542(2)
O49_3 O 0.6113(3) 0.5229(3) 0.86384(19)
O50_3 O 0.4045(3) 0.7615(3) 0.75016(19)
O51_3 O 0.7768(3) 0.3663(3) 0.8846(2)
O53_3 O 0.2846(3) 0.9129(3) 0.72210(18)
O54_3 O 0.2898(3) 0.5998(3) 0.6767(2)
O56_3 O 0.9660(3) 0.1177(3) 0.94691(17)
O58_3 O 0.4716(3) 0.6754(3) 0.58416(19)
O61_3 O 0.3604(3) 0.7283(3) 0.80676(19)
O62_3 O 0.8038(3) 0.4318(3) 0.98986(18)
O63_3 O 0.6000(3) 0.6034(3) 0.7542(2)
O64_3 O 0.3340(3) 0.8425(3) 0.82283(19)
O65_3 O 0.1669(3) 0.7229(3) 0.6120(2)
O66_3 O 0.5641(3) 0.7404(3) 0.7750(2)
O67_3 O 0.3517(3) 0.5796(3) 0.6010(2)
O68_3 O 0.9955(3) 0.3179(3) 0.98122(19)
C1_3 C 0.7895(3) 0.4975(3) 0.8714(3)
C2_3 C 0.7449(4) 0.5404(3) 0.8822(2)
C3_3 C 0.8550(4) 0.4275(4) 0.9006(2)
H1_3 H 0.884258 0.440534 0.879413
C4_3 C 0.8860(4) 0.4193(4) 0.9437(2)
H2_3 H 0.916800 0.390792 0.940030
H3_3 H 0.904710 0.455140 0.951775
C5_3 C 0.8462(4) 0.4004(4) 0.9802(2)
C6_3 C 0.6760(4) 0.6027(4) 0.8518(2)
H4_3 H 0.688428 0.631038 0.873417
C7_3 C 0.6654(4) 0.6342(4) 0.8085(3)
H5_3 H 0.634804 0.662737 0.812454
H6_3 H 0.701133 0.654063 0.800037
C8_3 C 0.6474(3) 0.5933(4) 0.7726(3)
C10_3 C 0.2482(4) 0.9285(4) 0.7495(2)
C11_3 C 0.2261(3) 0.7441(4) 0.7295(2)
C12_3 C 0.2126(3) 0.8040(4) 0.7361(2)
C13_3 C 0.2230(4) 0.8856(4) 0.7819(2)
H7_3 H 0.180042 0.889637 0.781968
C14_3 C 0.2454(4) 0.8986(5) 0.8270(2)
H8_3 H 0.224537 0.874738 0.847699
H9_3 H 0.236927 0.938414 0.833901
C15_3 C 0.3113(4) 0.8881(5) 0.8316(3)
C16_3 C 0.2127(4) 0.6614(5) 0.6886(3)
H10_3 H 0.208224 0.639705 0.715596
C17_3 C 0.2718(4) 0.6531(4) 0.6727(2)
C18_3 C 0.1677(4) 0.6396(5) 0.6562(3)
H11_3 H 0.128306 0.646392 0.667170
H12_3 H 0.172591 0.598544 0.652123
C19_3 C 0.1757(4) 0.6707(5) 0.6126(3)
C20_3 C 0.8295(3) 0.3721(4) 0.8846(2)
C21_3 C 0.4813(4) 0.6251(4) 0.6787(3)
C22_3 C 0.4470(4) 0.6400(4) 0.7176(3)
C23_3 C 0.4921(4) 0.6975(5) 0.8203(3)
H13_3 H 0.470931 0.707178 0.846645
H14_3 H 0.517090 0.664808 0.826615
C24_3 C 0.5290(4) 0.7462(5) 0.8079(3)
C25_3 C 0.4828(4) 0.5830(5) 0.6102(3)
H15_3 H 0.519969 0.564390 0.618038
C26_3 C 0.4447(4) 0.5376(5) 0.5844(3)
H16_3 H 0.466190 0.524779 0.558989
H17_3 H 0.436972 0.504492 0.602544
C27_3 C 0.3883(5) 0.5641(5) 0.5709(3)
C30_3 C 0.9296(4) 0.2070(4) 0.9691(2)
H18_3 H 0.892472 0.190565 0.958712
C31_3 C 0.9500(4) 0.2503(4) 0.9347(3)
H19_3 H 0.960589 0.229352 0.908682
H20_3 H 0.917117 0.275112 0.927500
C32_3 C 0.9990(4) 0.2856(4) 0.9473(3)
C33_3 C 0.9720(4) 0.1594(4) 0.9723(2)
C38_3 C 0.4967(3) 0.6314(4) 0.5805(3)
C48_3 C 0.6172(4) 0.5762(4) 0.8667(2)
C49_3 C 0.4477(4) 0.6805(4) 0.7854(2)
H30_3 H 0.428233 0.645263 0.795264
C50_3 C 0.4003(4) 0.7261(4) 0.7802(2)
O72_3 O 0.2659(4) 0.5580(4) 0.4960(3)
O73_2 O 0.1483(9) 0.4804(9) 0.5703(5)
O79_3 O 0.2844(5) 0.9534(5) 0.9207(3)
O80_3 O 0.8419(5) 0.5635(5) 0.9767(3)
O81_3 O 0.0680(4) 0.7548(4) 0.6833(2)
O83_3 O 0.8125(5) 0.5922(4) 0.7744(3)
O84_3 O 0.9742(5) 0.0026(5) 0.9018(2)
O86_3 O 0.3715(3) 0.5014(4) 0.6852(3)
O87_3 O 0.2432(4) 0.7533(5) 0.8546(3)
Cu15_2 Cu 0.56293(5) 0.68958(5) 0.52547(3)
O94_2 O 0.6285(3) 0.7086(3) 0.70306(19)
H65_3 H 0.287888 0.542088 0.520248
H66_3 H 0.268328 0.531954 0.471403
H77_2 H 0.122339 0.486994 0.594876
H78_2 H 0.134446 0.447347 0.55392
H79_3 H 0.842716 0.595834 0.796569
H80_3 H 0.830577 0.580782 0.747144
H81_3 H 0.207101 0.73412 0.845777
H82_3 H 0.266408 0.727499 0.872577
H85_3 H 0.843943 0.592422 0.953985
H87_3 H 0.310908 0.922911 0.92986
H88_3 H 0.268857 0.973012 0.946084
H91_2 H 0.39671 0.498443 0.710589
H92_2 H 0.331616 0.49014 0.692887
H93_3 H 0.0648665 0.761972 0.714281
H94_3 H 0.0405739 0.779497 0.66784
H96_3 H 0.946721 0.0274208 0.886504
Cu8_4 Cu 0.12865(5) 0.40843(5) 0.16142(4)
Cu9_4 Cu 0.20376(5) 0.22181(6) 0.29441(3)
N3_4 N 0.2990(3) 0.2809(3) 0.1971(2)
N4_4 N 0.2627(3) 0.1728(4) 0.2687(2)
N5_4 N 0.0461(3) 0.4010(3) 0.1497(2)
N6_4 N 0.0242(3) 0.3323(3) 0.2462(2)
O28_4 O 0.3218(3) 0.1733(3) 0.20981(19)
O29_4 O 0.2353(3) 0.2794(3) 0.25490(18)
O30_4 O 0.1585(3) 0.0719(4) 0.3420(2)
O31_4 O 0.1960(3) 0.3122(3) 0.1558(2)
O32_4 O 0.3120(3) 0.3592(3) 0.0806(2)
O33_4 O 0.1063(3) 0.3748(3) 0.2172(2)
O36_4 O 0.1243(3) 0.4312(4) 0.0328(2)
O50_4 O 0.0955(3) 0.2385(3) 0.25016(19)
O53_4 O 0.2154(3) 0.0871(3) 0.22210(18)
O54_4 O 0.2102(3) 0.4002(3) 0.1767(2)
O58_4 O 0.0284(3) 0.3246(3) 0.08416(19)
O61_4 O 0.1396(3) 0.2717(3) 0.30676(19)
O64_4 O 0.1660(3) 0.1575(3) 0.32283(19)
O65_4 O 0.3331(3) 0.2771(3) 0.1120(2)
O67_4 O 0.1483(3) 0.4204(3) 0.1010(2)
C10_4 C 0.2518(4) 0.0715(4) 0.2495(2)
C11_4 C 0.2739(3) 0.2559(4) 0.2295(2)
C12_4 C 0.2874(3) 0.1960(4) 0.2361(2)
C13_4 C 0.2770(4) 0.1144(4) 0.2819(2)
H7_4 H 0.319958 0.110363 0.281968
C14_4 C 0.2546(4) 0.1014(5) 0.3270(2)
H8_4 H 0.275463 0.125262 0.347699
H9_4 H 0.263073 0.061586 0.333901
C15_4 C 0.1887(4) 0.1119(5) 0.3316(3)
C16_4 C 0.2873(4) 0.3386(5) 0.1886(3)
H10_4 H 0.291776 0.360295 0.215596
C17_4 C 0.2282(4) 0.3469(4) 0.1727(2)
C18_4 C 0.3323(4) 0.3604(5) 0.1562(3)
H11_4 H 0.371694 0.353608 0.167170
H12_4 H 0.327409 0.401456 0.152123
C19_4 C 0.3243(4) 0.3293(5) 0.1126(3)
C21_4 C 0.0187(4) 0.3749(4) 0.1787(3)
C22_4 C 0.0530(4) 0.3600(4) 0.2176(3)
C23_4 C 0.0079(4) 0.3025(5) 0.3203(3)
H13_4 H 0.029069 0.292822 0.346645
C25_4 C 0.0172(4) 0.4170(5) 0.1102(3)
C26_4 C 0.0553(4) 0.4624(5) 0.0844(3)
H16_4 H 0.033810 0.475221 0.058989
H17_4 H 0.063028 0.495508 0.102544
C27_4 C 0.1117(5) 0.4359(5) 0.0709(3)
C38_4 C 0.0033(3) 0.3686(4) 0.0805(3)
C49_4 C 0.0523(4) 0.3195(4) 0.2854(2)
H30_4 H 0.071767 0.354737 0.295264
C50_4 C 0.0997(4) 0.2739(4) 0.2802(2)
O73_3 O 0.3517(9) 0.5196(9) 0.0703(5)
O79_4 O 0.2156(5) 0.0466(5) 0.4207(3)
O81_4 O 0.4320(4) 0.2452(4) 0.1833(2)
O86_4 O 0.1285(3) 0.4986(4) 0.1852(3)
O87_4 O 0.2568(4) 0.2467(5) 0.3546(3)
H65_4 H 0.212112 0.457912 0.0202476
H77_3 H 0.377661 0.513006 0.0948758
H78_3 H 0.365554 0.552653 0.05392
H81_4 H 0.292899 0.26588 0.345777
H82_4 H 0.233592 0.272501 0.372577
H87_4 H 0.189092 0.0770887 0.42986
H88_4 H 0.231143 0.0269885 0.446084
H91_3 H 0.10329 0.501557 0.210589
H92_3 H 0.168384 0.50986 0.192887
H93_4 H 0.435133 0.238028 0.214281
H94_4 H 0.459426 0.220503 0.16784
O72_4 O 0.2341(4) 0.4420(4) 0.9960(3)
H66_4 H 0.231672 0.468046 0.971403
Ca5_4 Ca 0.16377(14) 0.98031(13) 0.37705(8)
O74_4 O 0.0961(3) 0.9812(4) 0.4354(3)
O75_4 O 0.0983(5) 0.9738(5) 0.3138(3)
O76_4 O 0.1310(3) 0.8860(3) 0.3704(2)
O77_4 O 0.2183(4) 0.9253(4) 0.4242(3)
O78_4 O 0.2372(4) 0.9567(4) 0.3273(3)
H67_4 H 0.120168 0.983529 0.287703
H68_4 H 0.0831534 0.934846 0.311346
H69_4 H 0.145079 0.869938 0.343197
H70_4 H 0.146023 0.863279 0.394443
H71_4 H 0.0566164 0.987923 0.42432
H72_4 H 0.097291 0.944381 0.450295
H73_4 H 0.22069 0.944574 0.452126
H74_4 H 0.199548 0.888041 0.427841
H75_4 H 0.269886 0.983396 0.330288
H76_4 H 0.25092 0.917794 0.332823
N9_3 N 0.5389(3) 0.0396(4) 0.5549(2)
N10_3 N 0.4330(3) 0.0064(3) 0.48010(18)
O44_4 O 0.4318(3) 0.0659(3) 0.53989(19)
O48_3 O 0.6180(4) 0.0545(3) 0.6737(2)
O71_3 O 0.5351(3) 0.0732(3) 0.64108(18)
C39_4 C 0.4562(4) 0.0286(4) 0.5142(2)
C40_3 C 0.5169(4) 0.0114(4) 0.5232(2)
C41_3 C 0.5994(4) 0.0257(4) 0.5663(3)
H24_3 H 0.622943 0.029776 0.539858
C43_3 C 0.6226(4) 0.0696(4) 0.5990(3)
H25_3 H 0.664155 0.062724 0.604083
H26_3 H 0.618476 0.107994 0.587094
C44_3 C 0.5901(4) 0.0660(4) 0.6410(3)
C45_3 C 0.3742(4) 0.0232(4) 0.4677(2)
H27_3 H 0.370934 0.065125 0.467224
H28_3 H 0.325998 0.008763 0.412619
H29_3 H 0.392886 0.017809 0.402822
O82_3 O 0.5118(4) 0.1689(4) 0.5670(2)
H83_3 H 0.50567 0.17189 0.535872
H84_4 H 0.488125 0.197711 0.581755
H95_3 H 0.546798 0.0303604 0.41349
Cu6_3 Cu 0.48325(5) 0.94767(5) 0.45688(3)
Cu7_4 Cu 0.66211(5) 0.86694(5) 0.59297(3)
N1_4 N 0.6880(3) 0.5268(3) 0.4062(2)
N2_4 N 0.7776(3) 0.4384(3) 0.3466(2)
N7_4 N 0.5825(3) 0.7658(3) 0.5084(2)
N8_4 N 0.6519(3) 0.7888(3) 0.6059(2)
O22_4 O 0.7678(3) 0.4493(3) 0.41988(16)
O23_4 O 0.6968(3) 0.5138(3) 0.33279(16)
O24_4 O 0.6442(3) 0.6453(3) 0.49707(18)
O25_4 O 0.8203(3) 0.4463(3) 0.26410(19)
O34_4 O 0.9648(3) 0.3599(3) 0.1774(2)
O35_4 O 0.9713(4) 0.2095(4) 0.3277(2)
O37_4 O 0.6096(3) 0.7075(3) 0.57808(16)
O39_3 O 0.4537(4) 0.7175(4) 0.4284(2)
O40_3 O 0.4880(3) 0.8379(3) 0.49982(18)
O41_4 O 0.5727(2) 0.7735(3) 0.66997(18)
O42_4 O 0.6855(4) 0.8635(3) 0.7214(2)
O46_3 O 0.3316(3) 0.9071(4) 0.4077(2)
O47_4 O 0.5670(3) 0.9385(3) 0.59791(18)
O49_4 O 0.8887(3) 0.4771(3) 0.36384(19)
O51_4 O 0.7232(3) 0.6337(3) 0.3846(2)
O52_4 O 0.3419(3) 0.9613(3) 0.5252(2)
O56_4 O 0.5340(3) 0.8823(3) 0.44691(17)
O59_4 O 0.6576(3) 0.9467(3) 0.5767(2)
O62_4 O 0.6962(3) 0.5682(3) 0.48986(18)
O63_4 O 0.9000(3) 0.3966(3) 0.2542(2)
O66_4 O 0.9359(3) 0.2596(3) 0.2750(2)
O68_4 O 0.5045(3) 0.6821(3) 0.48122(19)
O69_4 O 0.6751(3) 0.8869(3) 0.6544(2)
O70_3 O 0.4188(4) 0.9144(3) 0.4245(2)
C1_4 C 0.7105(3) 0.5025(3) 0.3714(3)
C2_4 C 0.7551(4) 0.4596(3) 0.3822(2)
C3_4 C 0.6450(4) 0.5725(4) 0.4006(2)
H1_4 H 0.615742 0.559466 0.379413
C4_4 C 0.6140(4) 0.5807(4) 0.4437(2)
H2_4 H 0.583200 0.609208 0.440030
H3_4 H 0.595290 0.544860 0.451775
C5_4 C 0.6538(4) 0.5996(4) 0.4802(2)
C6_4 C 0.8240(4) 0.3973(4) 0.3518(2)
H4_4 H 0.811572 0.368962 0.373417
C7_4 C 0.8346(4) 0.3658(4) 0.3085(3)
H5_4 H 0.865196 0.337263 0.312454
H6_4 H 0.798867 0.345937 0.300037
C8_4 C 0.8526(3) 0.4067(4) 0.2726(3)
C9_3 C 0.3278(4) 0.9976(4) 0.4978(2)
C20_4 C 0.6705(3) 0.6279(4) 0.3846(2)
H14_4 H 0.982910 0.335192 0.326615
C24_4 C 0.9710(4) 0.2538(5) 0.3079(3)
H15_4 H 0.980031 0.435610 0.118038
C28_4 C 0.6099(4) 0.7943(3) 0.5384(2)
C29_4 C 0.6252(4) 0.7599(4) 0.5763(2)
C30_4 C 0.5704(4) 0.7930(4) 0.4691(2)
H18_4 H 0.607528 0.809435 0.458712
C31_4 C 0.5500(4) 0.7497(4) 0.4347(3)
H19_4 H 0.539411 0.770648 0.408682
H20_4 H 0.582883 0.724888 0.427500
C32_4 C 0.5010(4) 0.7144(4) 0.4473(3)
C33_4 C 0.5280(4) 0.8406(4) 0.4723(2)
C34_4 C 0.6675(4) 0.7577(4) 0.6461(3)
H21_4 H 0.684677 0.720349 0.638670
C35_4 C 0.6172(4) 0.7493(3) 0.6728(2)
C36_4 C 0.7134(4) 0.7943(5) 0.6687(3)
H22_4 H 0.746508 0.800078 0.649391
H23_4 H 0.727530 0.774151 0.694172
C37_4 C 0.6890(4) 0.8530(4) 0.6824(3)
C42_4 C 0.6065(4) 0.9656(4) 0.5815(3)
C46_3 C 0.3654(5) 0.9990(4) 0.4222(2)
C47_3 C 0.3731(4) 0.9364(4) 0.4181(3)
C48_4 C 0.8828(4) 0.4238(4) 0.3667(2)
O80_4 O 0.6581(5) 0.4365(5) 0.4767(3)
O83_4 O 0.6875(5) 0.4078(4) 0.2744(3)
O84_4 O 0.5258(5) 0.9974(5) 0.4018(2)
O85_4 O 0.7575(3) 0.8644(4) 0.5702(2)
H79_4 H 0.657284 0.404166 0.296569
H80_4 H 0.669423 0.419218 0.247144
H85_4 H 0.656057 0.407578 0.453985
H86_3 H 0.669329 0.418375 0.503884
H89_4 H 0.760845 0.838949 0.545309
H90_4 H 0.769985 0.90288 0.562026
H96_4 H 0.553279 0.972579 0.386504
O88_2 O 0.2219(3) 0.9831(3) 0.99458(18)
H86_4 H 0.330671 0.918375 0.996116
N10_4 N 0.0670(3) 0.9936(3) 0.98010(18)
C45_4 C 0.1258(4) 0.9768(4) 0.9677(2)
H27_4 H 0.129066 0.934875 0.967224
H28_4 H 0.174002 0.991237 0.912619
H29_4 H 0.107114 0.982191 0.902822
O73_4 O 0.6483(9) 0.0196(9) 0.4297(5)
H77_4 H 0.622339 0.0130058 0.405124
H78_4 H 0.634446 0.0526526 0.44608
H91_4 H 0.89671 0.00155706 0.289411
H92_4 H 0.831616 0.00986004 0.307113
Cu6_4 Cu 0.01675(5) 0.05233(5) 0.95688(3)
O39_4 O 0.0463(4) 0.2825(4) 0.9284(2)
O40_4 O 0.0120(3) 0.1621(3) 0.99982(18)
O46_4 O 0.1684(3) 0.0929(4) 0.9077(2)
O70_4 O 0.0812(4) 0.0856(3) 0.9245(2)
C9_4 C 0.1722(4) 0.0024(4) 0.9978(2)
C46_4 C 0.1346(5) 0.0010(4) 0.9222(2)
C47_4 C 0.1269(4) 0.0636(4) 0.9181(3)
N9_4 N 0.9611(3) 0.9604(4) 0.0549(2)
O48_4 O 0.8820(4) 0.9455(3) 0.1737(2)
O71_4 O 0.9649(3) 0.9268(3) 0.14108(18)
C40_4 C 0.9831(4) 0.9886(4) 0.0232(2)
C41_4 C 0.9006(4) 0.9743(4) 0.0663(3)
H24_4 H 0.877057 0.970224 0.039858
C43_4 C 0.8774(4) 0.9304(4) 0.0990(3)
H25_4 H 0.835845 0.937276 0.104083
H26_4 H 0.881524 0.892006 0.087094
C44_4 C 0.9099(4) 0.9340(4) 0.1410(3)
O82_4 O 0.9882(4) 0.8311(4) 0.0670(2)
H83_4 H 0.99433 0.82811 0.0358719
H95_4 H 0.953202 0.96964 0.91349
loop_
_geom_bond_atom_site_label_1
_geom_bond_atom_site_label_2
_geom_bond_site_symmetry_1
_geom_bond_site_symmetry_2
O18 H39 1_555 1_555
O18 H40 1_555 1_555
O19 H43 1_555 1_555
O19 H44 1_555 1_555
O17 H47 1_555 1_555
O17 H48 1_555 1_555
Ca1 O1 1_555 1_555
Ca2 O1 1_555 1_555
Ca3 O3 1_555 1_555
O2 Ca1 1_555 1_555
O3 Ca1 1_555 1_555
O4 Ca1 1_555 1_555
O5 Ca1 1_555 1_555
O6 Ca1 1_555 1_555
O7 Ca1 1_555 1_555
O8 Ca1 1_555 1_555
O9 Ca1 1_555 1_555
O10 Ca2 1_555 1_555
O11 Ca2 1_555 1_555
O12 Ca2 1_555 1_555
O13 Ca2 1_555 1_555
O14 Ca2 1_555 1_555
O15 Ca2 1_555 1_555
O16 Ca3 1_555 1_555
O20 Ca3 1_555 1_555
O21 Ca3 1_555 1_555
Ca2 O2 1_555 1_555
Ca3 O4 1_555 1_555
O8 H31 1_555 1_555
O8 H32 1_555 1_555
O7 H33 1_555 1_555
O7 H34 1_555 1_555
O6 H35 1_555 1_555
O6 H36 1_555 1_555
O5 H37 1_555 1_555
O5 H38 1_555 1_555
O10 H41 1_555 1_555
O10 H42 1_555 1_555
O21 H45 1_555 1_555
O14 H49 1_555 1_555
O14 H50 1_555 1_555
O13 H51 1_555 1_555
O13 H52 1_555 1_555
O15 H53 1_555 1_555
O15 H54 1_555 1_555
O20 H55 1_555 1_555
O20 H56 1_555 1_555
O11 H57 1_555 1_555
O11 H58 1_555 1_555
O16 H59 1_555 1_555
O16 H60 1_555 1_555
O9 H61 1_555 1_555
O9 H62 1_555 1_555
O12 H63 1_555 1_555
O12 H64 1_555 1_555
O6_2 H35_2 1_555 1_555
O6_2 H36_2 1_555 1_555
O10_2 H41_2 1_555 1_555
O10_2 H42_2 1_555 1_555
O13_2 H51_2 1_555 1_555
O13_2 H52_2 1_555 1_555
O11_2 H57_2 1_555 1_555
O11_2 H58_2 1_555 1_555
Ca1_2 O1_2 1_555 1_555
Ca2_2 O1_2 1_555 1_555
Ca3_2 O3_2 1_555 1_555
O2_2 Ca1_2 1_555 1_555
O3_2 Ca1_2 1_555 1_555
O4_2 Ca1_2 1_555 1_555
O5_2 Ca1_2 1_555 1_555
O7_2 Ca1_2 1_555 1_555
O8_2 Ca1_2 1_555 1_555
O9_2 Ca1_2 1_555 1_555
O12_2 Ca2_2 1_555 1_555
O14_2 Ca2_2 1_555 1_555
O15_2 Ca2_2 1_555 1_555
O16_2 Ca3_2 1_555 1_555
O17_2 Ca3_2 1_555 1_555
O18_2 Ca3_2 1_555 1_555
O19_2 Ca3_2 1_555 1_555
O20_2 Ca3_2 1_555 1_555
O21_2 Ca3_2 1_555 1_555
Ca2_2 O2_2 1_555 1_555
Ca3_2 O4_2 1_555 1_555
O8_2 H31_2 1_555 1_555
O8_2 H32_2 1_555 1_555
O7_2 H33_2 1_555 1_555
O7_2 H34_2 1_555 1_555
O5_2 H37_2 1_555 1_555
O5_2 H38_2 1_555 1_555
O18_2 H39_2 1_555 1_555
O18_2 H40_2 1_555 1_555
O19_2 H43_2 1_555 1_555
O19_2 H44_2 1_555 1_555
O21_2 H45_2 1_555 1_555
O21_2 H46_2 1_555 1_555
O17_2 H47_2 1_555 1_555
O17_2 H48_2 1_555 1_555
O14_2 H49_2 1_555 1_555
O15_2 H53_2 1_555 1_555
O15_2 H54_2 1_555 1_555
O20_2 H55_2 1_555 1_555
O20_2 H56_2 1_555 1_555
O16_2 H59_2 1_555 1_555
O16_2 H60_2 1_555 1_555
O9_2 H61_2 1_555 1_555
O9_2 H62_2 1_555 1_555
O12_2 H63_2 1_555 1_555
O12_2 H64_2 1_555 1_555
O14_3 H49_3 1_555 1_555
O14_3 H50_3 1_555 1_555
Ca1_3 O1_3 1_555 1_555
Ca2_3 O1_3 1_555 1_555
Ca3_3 O3_3 1_555 1_555
O2_3 Ca1_3 1_555 1_555
O3_3 Ca1_3 1_555 1_555
O4_3 Ca1_3 1_555 1_555
O5_3 Ca1_3 1_555 1_555
O6_3 Ca1_3 1_555 1_555
O7_3 Ca1_3 1_555 1_555
O8_3 Ca1_3 1_555 1_555
O9_3 Ca1_3 1_555 1_555
O10_3 Ca2_3 1_555 1_555
O11_3 Ca2_3 1_555 1_555
O12_3 Ca2_3 1_555 1_555
O13_3 Ca2_3 1_555 1_555
O15_3 Ca2_3 1_555 1_555
O16_3 Ca3_3 1_555 1_555
O17_3 Ca3_3 1_555 1_555
O18_3 Ca3_3 1_555 1_555
O19_3 Ca3_3 1_555 1_555
O20_3 Ca3_3 1_555 1_555
O21_3 Ca3_3 1_555 1_555
Ca2_3 O2_3 1_555 1_555
Ca3_3 O4_3 1_555 1_555
O8_3 H31_3 1_555 1_555
O8_3 H32_3 1_555 1_555
O7_3 H33_3 1_555 1_555
O7_3 H34_3 1_555 1_555
O6_3 H35_3 1_555 1_555
O6_3 H36_3 1_555 1_555
O5_3 H37_3 1_555 1_555
O5_3 H38_3 1_555 1_555
O18_3 H39_3 1_555 1_555
O18_3 H40_3 1_555 1_555
O10_3 H41_3 1_555 1_555
O10_3 H42_3 1_555 1_555
O19_3 H43_3 1_555 1_555
O19_3 H44_3 1_555 1_555
O21_3 H45_3 1_555 1_555
O21_3 H46_3 1_555 1_555
O17_3 H47_3 1_555 1_555
O17_3 H48_3 1_555 1_555
O13_3 H51_3 1_555 1_555
O15_3 H53_3 1_555 1_555
O15_3 H54_3 1_555 1_555
O20_3 H55_3 1_555 1_555
O20_3 H56_3 1_555 1_555
O11_3 H57_3 1_555 1_555
O11_3 H58_3 1_555 1_555
O16_3 H59_3 1_555 1_555
O16_3 H60_3 1_555 1_555
O9_3 H61_3 1_555 1_555
O9_3 H62_3 1_555 1_555
O12_3 H63_3 1_555 1_555
O12_3 H64_3 1_555 1_555
Ca1_4 O1_4 1_555 1_555
Ca2_4 O1_4 1_555 1_555
Ca3_4 O3_4 1_555 1_555
O2_4 Ca1_4 1_555 1_555
O3_4 Ca1_4 1_555 1_555
O4_4 Ca1_4 1_555 1_555
O5_4 Ca1_4 1_555 1_555
O7_4 Ca1_4 1_555 1_555
O8_4 Ca1_4 1_555 1_555
O9_4 Ca1_4 1_555 1_555
O12_4 Ca2_4 1_555 1_555
O15_4 Ca2_4 1_555 1_555
O16_4 Ca3_4 1_555 1_555
O20_4 Ca3_4 1_555 1_555
O21_4 Ca3_4 1_555 1_555
Ca2_4 O2_4 1_555 1_555
Ca3_4 O4_4 1_555 1_555
O8_4 H31_4 1_555 1_555
O8_4 H32_4 1_555 1_555
O7_4 H33_4 1_555 1_555
O7_4 H34_4 1_555 1_555
O5_4 H37_4 1_555 1_555
O5_4 H38_4 1_555 1_555
O21_4 H45_4 1_555 1_555
O15_4 H53_4 1_555 1_555
O15_4 H54_4 1_555 1_555
O20_4 H55_4 1_555 1_555
O20_4 H56_4 1_555 1_555
O16_4 H59_4 1_555 1_555
O16_4 H60_4 1_555 1_555
O9_4 H61_4 1_555 1_555
O9_4 H62_4 1_555 1_555
O12_4 H63_4 1_555 1_555
O12_4 H64_4 1_555 1_555
O18_4 H39_4 1_555 1_555
O18_4 H40_4 1_555 1_555
O19_4 H43_4 1_555 1_555
O19_4 H44_4 1_555 1_555
O17_4 H47_4 1_555 1_555
O17_4 H48_4 1_555 1_555
O14_4 H49_4 1_555 1_555
O6_4 H35_4 1_555 1_555
O6_4 H36_4 1_555 1_555
O10_4 H41_4 1_555 1_555
O10_4 H42_4 1_555 1_555
O13_4 H51_4 1_555 1_555
O11_4 H57_4 1_555 1_555
O11_4 H58_4 1_555 1_555
O72 H66 1_555 1_555
Cu2 N3 1_555 1_555
Cu4 N2 1_555 1_555
Cu8 N5 1_555 1_555
Cu9 N4 1_555 1_555
Cu10 N6 1_555 1_555
Ca4 O32 1_555 1_555
Ca5 O30 1_555 1_555
N2 C2 1_555 1_555
N3 C11 1_555 1_555
N4 C12 1_555 1_555
N5 C21 1_555 1_555
N6 C22 1_555 1_555
O25 Cu4 1_555 1_555
O27 C10 1_555 1_555
O28 Cu2 1_555 1_555
O29 Cu9 1_555 1_555
O30 C15 1_555 1_555
O31 Cu8 1_555 1_555
O32 C19 1_555 1_555
O33 Cu8 1_555 1_555
O34 Cu10 1_555 1_555
O35 C24 1_555 1_555
O36 C27 1_555 1_555
O43 C38 1_555 1_555
O49 C48 1_555 1_555
O50 C50 1_555 1_555
O53 C10 1_555 1_555
O54 Cu8 1_555 1_555
O58 C38 1_555 1_555
O60 C48 1_555 1_555
O61 Cu9 1_555 1_555
O63 Cu10 1_555 1_555
O64 Cu9 1_555 1_555
O65 Cu2 1_555 1_555
O66 Cu10 1_555 1_555
O67 Cu8 1_555 1_555
C2 O22 1_555 1_555
C6 N2 1_555 1_555
H4 C6 1_555 1_555
C7 C6 1_555 1_555
H5 C7 1_555 1_555
H6 C7 1_555 1_555
C8 O25 1_555 1_555
C10 C13 1_555 1_555
C11 O29 1_555 1_555
C12 O28 1_555 1_555
C13 N4 1_555 1_555
H7 C13 1_555 1_555
C14 C13 1_555 1_555
H8 C14 1_555 1_555
H9 C14 1_555 1_555
C15 O64 1_555 1_555
C16 N3 1_555 1_555
H10 C16 1_555 1_555
C17 O31 1_555 1_555
C18 C16 1_555 1_555
H11 C18 1_555 1_555
H12 C18 1_555 1_555
C19 O65 1_555 1_555
C21 O34 1_555 1_555
C22 O33 1_555 1_555
C23 H13 1_555 1_555
H14 C23 1_555 1_555
C24 O66 1_555 1_555
C25 N5 1_555 1_555
H15 C25 1_555 1_555
C26 C25 1_555 1_555
H16 C26 1_555 1_555
H17 C26 1_555 1_555
C27 O67 1_555 1_555
C38 C25 1_555 1_555
C48 C6 1_555 1_555
C49 N6 1_555 1_555
H30 C49 1_555 1_555
C50 O61 1_555 1_555
O74 Ca5 1_555 1_555
O75 Ca5 1_555 1_555
O76 Ca5 1_555 1_555
O77 Ca5 1_555 1_555
O78 Ca5 1_555 1_555
O79 Ca5 1_555 1_555
O81 Cu2 1_555 1_555
O83 Cu4 1_555 1_555
O86 Cu8 1_555 1_555
O87 Cu9 1_555 1_555
Cu13 O60 1_555 1_555
Cu14 O27 1_555 1_555
Cu15 O43 1_555 1_555
O92 Ca4 1_555 1_555
O93 Cu2 1_555 1_555
O94 Cu10 1_555 1_555
O54 C17 1_555 1_555
O63 C8 1_555 1_555
C7 C8 1_555 1_555
C11 C12 1_555 1_555
C14 C15 1_555 1_555
C16 C17 1_555 1_555
C18 C19 1_555 1_555
C21 C22 1_555 1_555
C23 C24 1_555 1_555
C23 C49 1_555 1_555
C26 C27 1_555 1_555
C49 C50 1_555 1_555
O75 H67 1_555 1_555
O75 H68 1_555 1_555
O76 H69 1_555 1_555
O76 H70 1_555 1_555
O74 H71 1_555 1_555
O74 H72 1_555 1_555
O77 H73 1_555 1_555
O77 H74 1_555 1_555
O78 H75 1_555 1_555
O78 H76 1_555 1_555
O83 H79 1_555 1_555
O83 H80 1_555 1_555
O87 H81 1_555 1_555
O87 H82 1_555 1_555
O80 H85 1_555 1_555
O80 H86 1_555 1_555
O79 H87 1_555 1_555
O79 H88 1_555 1_555
O81 H93 1_555 1_555
O81 H94 1_555 1_555
Cu1 N1 1_555 1_555
Cu5 N7 1_555 1_555
Cu7 N8 1_555 1_555
N1 C1 1_555 1_555
N7 C28 1_555 1_555
N8 C29 1_555 1_555
N9 C40 1_555 1_555
O24 Cu5 1_555 1_555
O37 Cu5 1_555 1_555
O38 Cu7 1_555 1_555
O41 C35 1_555 1_555
O42 C37 1_555 1_555
O47 Cu7 1_555 1_555
O48 C44 1_555 1_555
O51 C20 1_555 1_555
O55 C20 1_555 1_555
O57 C35 1_555 1_555
O59 Cu7 1_555 1_555
O62 Cu1 1_555 1_555
O68 Cu5 1_555 1_555
O69 Cu7 1_555 1_555
C1 O23 1_555 1_555
C3 N1 1_555 1_555
H1 C3 1_555 1_555
C4 C3 1_555 1_555
H2 C4 1_555 1_555
H3 C4 1_555 1_555
C5 O24 1_555 1_555
C20 C3 1_555 1_555
C28 O38 1_555 1_555
C29 O37 1_555 1_555
C30 N7 1_555 1_555
H18 C30 1_555 1_555
C31 C30 1_555 1_555
H19 C31 1_555 1_555
H20 C31 1_555 1_555
C32 O68 1_555 1_555
C33 O56 1_555 1_555
C34 N8 1_555 1_555
H21 C34 1_555 1_555
C35 C34 1_555 1_555
C36 C34 1_555 1_555
H22 C36 1_555 1_555
H23 C36 1_555 1_555
C37 O69 1_555 1_555
C40 O45 1_555 1_555
C41 N9 1_555 1_555
H24 C41 1_555 1_555
C42 O47 1_555 1_555
C43 C41 1_555 1_555
H25 C43 1_555 1_555
H26 C43 1_555 1_555
C44 O71 1_555 1_555
O85 Cu7 1_555 1_555
Cu12 O55 1_555 1_555
Cu16 O57 1_555 1_555
Ca6 O38 1_555 1_555
O91 Cu5 1_555 1_555
O45 Ca6 1_555 1_555
O59 C42 1_555 1_555
O62 C5 1_555 1_555
C4 C5 1_555 1_555
C28 C29 1_555 1_555
C30 C33 1_555 1_555
C31 C32 1_555 1_555
C36 C37 1_555 1_555
C41 C42 1_555 1_555
C43 C44 1_555 1_555
O73 H77 1_555 1_555
O73 H78 1_555 1_555
O82 H83 1_555 1_555
O85 H89 1_555 1_555
O85 H90 1_555 1_555
O84 H95 1_555 1_555
O84 H96 1_555 1_555
Cu6 N10 1_555 1_555
N10 C39 1_555 1_555
O26 C9 1_555 1_555
O44 Cu3 1_555 1_555
O46 C47 1_555 1_555
O52 C9 1_555 1_555
O70 Cu6 1_555 1_555
C9 C45 1_555 1_555
C39 O44 1_555 1_555
C45 N10 1_555 1_555
H27 C45 1_555 1_555
C46 C45 1_555 1_555
H28 C46 1_555 1_555
H29 C46 1_555 1_555
C47 O70 1_555 1_555
Cu11 O26 1_555 1_555
O95 Cu3 1_555 1_555
C46 C47 1_555 1_555
Cu1_2 N1_2 1_555 1_555
Cu6_2 N10_2 1_555 1_555
N1_2 C1_2 1_555 1_555
O26_2 C9_2 1_555 1_555
O39_2 C32_2 1_555 1_555
O40_2 C33_2 1_555 1_555
O45_2 Cu6_2 1_555 1_555
O46_2 C47_2 1_555 1_555
O51_2 C20_2 1_555 1_555
O55_2 C20_2 1_555 1_555
O56_2 Cu6_2 1_555 1_555
O62_2 Cu1_2 1_555 1_555
O70_2 Cu6_2 1_555 1_555
C1_2 O23_2 1_555 1_555
C3_2 N1_2 1_555 1_555
H1_2 C3_2 1_555 1_555
C4_2 C3_2 1_555 1_555
H2_2 C4_2 1_555 1_555
H3_2 C4_2 1_555 1_555
C5_2 O24_2 1_555 1_555
C9_2 C45_2 1_555 1_555
C20_2 C3_2 1_555 1_555
H18_2 C30_2 1_555 1_555
C31_2 C30_2 1_555 1_555
H19_2 C31_2 1_555 1_555
H20_2 C31_2 1_555 1_555
C32_2 O68_2 1_555 1_555
C33_2 O56_2 1_555 1_555
C45_2 N10_2 1_555 1_555
H27_2 C45_2 1_555 1_555
C46_2 C45_2 1_555 1_555
H28_2 C46_2 1_555 1_555
H29_2 C46_2 1_555 1_555
C47_2 O70_2 1_555 1_555
O84_2 Cu6_2 1_555 1_555
Cu12_2 O55_2 1_555 1_555
O45_2 Ca6_2 1_555 1_555
O62_2 C5_2 1_555 1_555
C4_2 C5_2 1_555 1_555
C30_2 C33_2 1_555 1_555
C31_2 C32_2 1_555 1_555
C46_2 C47_2 1_555 1_555
O84_2 H95_2 1_555 1_555
O84_2 H96_2 1_555 1_555
Cu3_2 N9_2 1_555 1_555
Cu15 N7_2 1_555 1_555
Cu7_2 N8_2 1_555 1_555
N7_2 C28_2 1_555 1_555
N8_2 C29_2 1_555 1_555
N9_2 C40_2 1_555 1_555
O37_2 Cu15 1_555 1_555
O38_2 Cu7_2 1_555 1_555
O41_2 C35_2 1_555 1_555
O42_2 C37_2 1_555 1_555
O44_2 Cu3_2 1_555 1_555
O47_2 Cu7_2 1_555 1_555
O48_2 C44_2 1_555 1_555
O94 C35_2 1_555 1_555
O59_2 Cu7_2 1_555 1_555
O69_2 Cu7_2 1_555 1_555
O71_2 Cu3_2 1_555 1_555
C28_2 O38_2 1_555 1_555
C29_2 O37_2 1_555 1_555
C34_2 N8_2 1_555 1_555
H21_2 C34_2 1_555 1_555
C35_2 C34_2 1_555 1_555
C36_2 C34_2 1_555 1_555
H22_2 C36_2 1_555 1_555
H23_2 C36_2 1_555 1_555
C37_2 O69_2 1_555 1_555
C39_2 O44_2 1_555 1_555
C41_2 N9_2 1_555 1_555
H24_2 C41_2 1_555 1_555
C42_2 O47_2 1_555 1_555
C43_2 C41_2 1_555 1_555
H25_2 C43_2 1_555 1_555
H26_2 C43_2 1_555 1_555
C44_2 O71_2 1_555 1_555
O82_2 Cu3_2 1_555 1_555
O85_2 Cu7_2 1_555 1_555
O95_2 Cu3_2 1_555 1_555
O59_2 C42_2 1_555 1_555
C28_2 C29_2 1_555 1_555
C36_2 C37_2 1_555 1_555
C39_2 C40_2 1_555 1_555
C41_2 C42_2 1_555 1_555
C43_2 C44_2 1_555 1_555
O82_2 H83_2 1_555 1_555
O82_2 H84_2 1_555 1_555
O85_2 H89_2 1_555 1_555
O85_2 H90_2 1_555 1_555
Cu4_2 N2_2 1_555 1_555
N2_2 C2_2 1_555 1_555
O25_2 Cu4_2 1_555 1_555
O34_2 Cu16 1_555 1_555
O35_2 C24_2 1_555 1_555
O49_2 C48_2 1_555 1_555
O60_2 C48_2 1_555 1_555
O63_2 Cu16 1_555 1_555
O66_2 Cu16 1_555 1_555
C2_2 O22_2 1_555 1_555
C6_2 N2_2 1_555 1_555
H4_2 C6_2 1_555 1_555
C7_2 C6_2 1_555 1_555
H5_2 C7_2 1_555 1_555
H6_2 C7_2 1_555 1_555
C8_2 O25_2 1_555 1_555
C24_2 O66_2 1_555 1_555
C48_2 C6_2 1_555 1_555
O83_2 Cu4_2 1_555 1_555
Cu13_2 O60_2 1_555 1_555
O63_2 C8_2 1_555 1_555
C7_2 C8_2 1_555 1_555
O83_2 H79_2 1_555 1_555
O83_2 H80_2 1_555 1_555
O80_2 H85_2 1_555 1_555
Cu2_2 N3_2 1_555 1_555
Cu8_2 N5_2 1_555 1_555
Cu9_2 N4_2 1_555 1_555
Ca4_2 O32_2 1_555 1_555
Ca5_2 O30_2 1_555 1_555
N3_2 C11_2 1_555 1_555
N4_2 C12_2 1_555 1_555
N5_2 C21_2 1_555 1_555
N6_2 C22_2 1_555 1_555
O27_2 C10_2 1_555 1_555
O28_2 Cu2_2 1_555 1_555
O29_2 Cu9_2 1_555 1_555
O30_2 C15_2 1_555 1_555
O31_2 Cu8_2 1_555 1_555
O32_2 C19_2 1_555 1_555
O33_2 Cu8_2 1_555 1_555
O36_2 C27_2 1_555 1_555
O50_2 C50_2 1_555 1_555
O53_2 C10_2 1_555 1_555
O54_2 Cu8_2 1_555 1_555
O58_2 C38_2 1_555 1_555
O61_2 Cu9_2 1_555 1_555
O64_2 Cu9_2 1_555 1_555
O65_2 Cu2_2 1_555 1_555
O67_2 Cu8_2 1_555 1_555
C10_2 C13_2 1_555 1_555
C11_2 O29_2 1_555 1_555
C12_2 O28_2 1_555 1_555
C13_2 N4_2 1_555 1_555
H7_2 C13_2 1_555 1_555
C14_2 C13_2 1_555 1_555
H8_2 C14_2 1_555 1_555
H9_2 C14_2 1_555 1_555
C15_2 O64_2 1_555 1_555
C16_2 N3_2 1_555 1_555
H10_2 C16_2 1_555 1_555
C17_2 O31_2 1_555 1_555
C18_2 C16_2 1_555 1_555
H11_2 C18_2 1_555 1_555
H12_2 C18_2 1_555 1_555
C19_2 O65_2 1_555 1_555
C22_2 O33_2 1_555 1_555
C23_2 H13_2 1_555 1_555
C25_2 N5_2 1_555 1_555
C26_2 C25_2 1_555 1_555
H16_2 C26_2 1_555 1_555
H17_2 C26_2 1_555 1_555
C27_2 O67_2 1_555 1_555
C38_2 C25_2 1_555 1_555
C49_2 N6_2 1_555 1_555
H30_2 C49_2 1_555 1_555
C50_2 O61_2 1_555 1_555
O72_2 Ca4_2 1_555 1_555
O74_2 Ca5_2 1_555 1_555
O75_2 Ca5_2 1_555 1_555
O76_2 Ca5_2 1_555 1_555
O77_2 Ca5_2 1_555 1_555
O78_2 Ca5_2 1_555 1_555
O79_2 Ca5_2 1_555 1_555
O81_2 Cu2_2 1_555 1_555
O86_2 Cu8_2 1_555 1_555
O87_2 Cu9_2 1_555 1_555
Cu14_2 O27_2 1_555 1_555
O90_2 Ca4_2 1_555 1_555
O92_2 Ca4_2 1_555 1_555
O93_2 Cu2_2 1_555 1_555
O54_2 C17_2 1_555 1_555
C11_2 C12_2 1_555 1_555
C14_2 C15_2 1_555 1_555
C16_2 C17_2 1_555 1_555
C18_2 C19_2 1_555 1_555
C21_2 C22_2 1_555 1_555
C23_2 C49_2 1_555 1_555
C26_2 C27_2 1_555 1_555
C49_2 C50_2 1_555 1_555
O72_2 H65_2 1_555 1_555
O72_2 H66_2 1_555 1_555
O75_2 H67_2 1_555 1_555
O75_2 H68_2 1_555 1_555
O76_2 H69_2 1_555 1_555
O76_2 H70_2 1_555 1_555
O74_2 H71_2 1_555 1_555
O74_2 H72_2 1_555 1_555
O77_2 H73_2 1_555 1_555
O77_2 H74_2 1_555 1_555
O78_2 H75_2 1_555 1_555
O78_2 H76_2 1_555 1_555
O87_2 H81_2 1_555 1_555
O87_2 H82_2 1_555 1_555
O79_2 H87_2 1_555 1_555
O79_2 H88_2 1_555 1_555
O81_2 H93_2 1_555 1_555
O81_2 H94_2 1_555 1_555
O44_3 Cu13_2 1_555 1_555
C39_3 O44_3 1_555 1_555
O74_3 Ca5_3 1_555 1_555
O75_3 Ca5_3 1_555 1_555
O76_3 Ca5_3 1_555 1_555
O77_3 Ca5_3 1_555 1_555
O78_3 Ca5_3 1_555 1_555
O75_3 H67_3 1_555 1_555
O75_3 H68_3 1_555 1_555
O76_3 H69_3 1_555 1_555
O76_3 H70_3 1_555 1_555
O74_3 H71_3 1_555 1_555
O74_3 H72_3 1_555 1_555
O77_3 H73_3 1_555 1_555
O77_3 H74_3 1_555 1_555
O78_3 H75_3 1_555 1_555
O78_3 H76_3 1_555 1_555
Cu5_2 N7_3 1_555 1_555
Cu7_3 N8_3 1_555 1_555
N7_3 C28_3 1_555 1_555
N8_3 C29_3 1_555 1_555
O37_3 Cu5_2 1_555 1_555
O90 Cu7_3 1_555 1_555
O41_3 C35_3 1_555 1_555
O42_3 C37_3 1_555 1_555
O47_3 Cu7_3 1_555 1_555
O57_2 C35_3 1_555 1_555
O59_3 Cu7_3 1_555 1_555
O69_3 Cu7_3 1_555 1_555
C28_3 O90 1_555 1_555
C29_3 O37_3 1_555 1_555
C34_3 N8_3 1_555 1_555
H21_3 C34_3 1_555 1_555
C35_3 C34_3 1_555 1_555
C36_3 C34_3 1_555 1_555
H22_3 C36_3 1_555 1_555
H23_3 C36_3 1_555 1_555
C37_3 O69_3 1_555 1_555
C42_3 O47_3 1_555 1_555
O85_3 Cu7_3 1_555 1_555
Cu16_2 O57_2 1_555 1_555
O91_2 Cu5_2 1_555 1_555
O59_3 C42_3 1_555 1_555
C28_3 C29_3 1_555 1_555
C36_3 C37_3 1_555 1_555
O85_3 H89_3 1_555 1_555
O85_3 H90_3 1_555 1_555
Cu11_2 N1_3 1_555 1_555
Cu12 N3_3 1_555 1_555
Cu14 N2_3 1_555 1_555
Cu8_3 N5_3 1_555 1_555
Cu9_3 N4_3 1_555 1_555
Cu10_2 N6_3 1_555 1_555
Ca6 O32_3 1_555 1_555
N1_3 C1_3 1_555 1_555
N2_3 C2_3 1_555 1_555
N3_3 C11_3 1_555 1_555
N4_3 C12_3 1_555 1_555
N5_3 C21_3 1_555 1_555
N6_3 C22_3 1_555 1_555
O22_3 Cu11_2 1_555 1_555
O23_3 Cu14 1_555 1_555
O25_3 Cu14 1_555 1_555
O89 C10_3 1_555 1_555
O28_3 Cu12 1_555 1_555
O29_3 Cu9_3 1_555 1_555
O30_3 C15_3 1_555 1_555
O31_3 Cu8_3 1_555 1_555
O32_3 C19_3 1_555 1_555
O33_3 Cu8_3 1_555 1_555
O34_3 Cu10_2 1_555 1_555
O35_3 C24_3 1_555 1_555
O36_3 C27_3 1_555 1_555
O43_2 C38_3 1_555 1_555
O49_3 C48_3 1_555 1_555
O50_3 C50_3 1_555 1_555
O51_3 C20_3 1_555 1_555
O53_3 C10_3 1_555 1_555
O54_3 Cu8_3 1_555 1_555
O93 C20_3 1_555 1_555
O58_3 C38_3 1_555 1_555
O95_2 C48_3 1_555 1_555
O61_3 Cu9_3 1_555 1_555
O62_3 Cu11_2 1_555 1_555
O63_3 Cu10_2 1_555 1_555
O64_3 Cu9_3 1_555 1_555
O65_3 Cu12 1_555 1_555
O66_3 Cu10_2 1_555 1_555
O67_3 Cu8_3 1_555 1_555
C1_3 O23_3 1_555 1_555
C2_3 O22_3 1_555 1_555
C3_3 N1_3 1_555 1_555
H1_3 C3_3 1_555 1_555
C4_3 C3_3 1_555 1_555
H2_3 C4_3 1_555 1_555
H3_3 C4_3 1_555 1_555
C5_3 O24_3 1_555 1_555
C6_3 N2_3 1_555 1_555
H4_3 C6_3 1_555 1_555
C7_3 C6_3 1_555 1_555
H5_3 C7_3 1_555 1_555
H6_3 C7_3 1_555 1_555
C8_3 O25_3 1_555 1_555
C10_3 C13_3 1_555 1_555
C11_3 O29_3 1_555 1_555
C12_3 O28_3 1_555 1_555
C13_3 N4_3 1_555 1_555
H7_3 C13_3 1_555 1_555
C14_3 C13_3 1_555 1_555
H8_3 C14_3 1_555 1_555
H9_3 C14_3 1_555 1_555
C15_3 O64_3 1_555 1_555
C16_3 N3_3 1_555 1_555
H10_3 C16_3 1_555 1_555
C17_3 O31_3 1_555 1_555
C18_3 C16_3 1_555 1_555
H11_3 C18_3 1_555 1_555
H12_3 C18_3 1_555 1_555
C19_3 O65_3 1_555 1_555
C20_3 C3_3 1_555 1_555
C21_3 O34_3 1_555 1_555
C22_3 O33_3 1_555 1_555
C23_3 H13_3 1_555 1_555
H14_3 C23_3 1_555 1_555
C24_3 O66_3 1_555 1_555
C25_3 N5_3 1_555 1_555
H15_3 C25_3 1_555 1_555
C26_3 C25_3 1_555 1_555
H16_3 C26_3 1_555 1_555
H17_3 C26_3 1_555 1_555
C27_3 O67_3 1_555 1_555
H18_3 C30_3 1_555 1_555
C31_3 C30_3 1_555 1_555
H19_3 C31_3 1_555 1_555
H20_3 C31_3 1_555 1_555
C32_3 O68_3 1_555 1_555
C33_3 O56_3 1_555 1_555
C38_3 C25_3 1_555 1_555
C48_3 C6_3 1_555 1_555
C49_3 N6_3 1_555 1_555
H30_3 C49_3 1_555 1_555
C50_3 O61_3 1_555 1_555
O72_3 Ca6 1_555 1_555
O73_2 Ca6 1_555 1_555
O80_3 Cu11_2 1_555 1_555
O81_3 Cu12 1_555 1_555
O83_3 Cu14 1_555 1_555
O86_3 Cu8_3 1_555 1_555
O87_3 Cu9_3 1_555 1_555
Cu15_2 O43_2 1_555 1_555
O94_2 Cu10_2 1_555 1_555
O54_3 C17_3 1_555 1_555
O62_3 C5_3 1_555 1_555
O63_3 C8_3 1_555 1_555
C1_3 C2_3 1_555 1_555
C4_3 C5_3 1_555 1_555
C7_3 C8_3 1_555 1_555
C11_3 C12_3 1_555 1_555
C14_3 C15_3 1_555 1_555
C16_3 C17_3 1_555 1_555
C18_3 C19_3 1_555 1_555
C21_3 C22_3 1_555 1_555
C23_3 C24_3 1_555 1_555
C23_3 C49_3 1_555 1_555
C26_3 C27_3 1_555 1_555
C30_3 C33_3 1_555 1_555
C31_3 C32_3 1_555 1_555
C49_3 C50_3 1_555 1_555
O72_3 H65_3 1_555 1_555
O72_3 H66_3 1_555 1_555
O73_2 H77_2 1_555 1_555
O73_2 H78_2 1_555 1_555
O83_3 H79_3 1_555 1_555
O83_3 H80_3 1_555 1_555
O87_3 H81_3 1_555 1_555
O87_3 H82_3 1_555 1_555
O80_3 H85_3 1_555 1_555
O79_3 H87_3 1_555 1_555
O79_3 H88_3 1_555 1_555
O86_3 H91_2 1_555 1_555
O86_3 H92_2 1_555 1_555
O81_3 H93_3 1_555 1_555
O81_3 H94_3 1_555 1_555
O84_3 H96_3 1_555 1_555
Cu12_2 N3_4 1_555 1_555
Cu8_4 N5_4 1_555 1_555
Cu9_4 N4_4 1_555 1_555
Ca6_2 O32_4 1_555 1_555
N3_4 C11_4 1_555 1_555
N4_4 C12_4 1_555 1_555
N5_4 C21_4 1_555 1_555
N6_4 C22_4 1_555 1_555
O89_2 C10_4 1_555 1_555
O28_4 Cu12_2 1_555 1_555
O29_4 Cu9_4 1_555 1_555
O30_4 C15_4 1_555 1_555
O31_4 Cu8_4 1_555 1_555
O32_4 C19_4 1_555 1_555
O33_4 Cu8_4 1_555 1_555
O36_4 C27_4 1_555 1_555
O50_4 C50_4 1_555 1_555
O53_4 C10_4 1_555 1_555
O54_4 Cu8_4 1_555 1_555
O58_4 C38_4 1_555 1_555
O61_4 Cu9_4 1_555 1_555
O64_4 Cu9_4 1_555 1_555
O65_4 Cu12_2 1_555 1_555
O67_4 Cu8_4 1_555 1_555
C10_4 C13_4 1_555 1_555
C11_4 O29_4 1_555 1_555
C12_4 O28_4 1_555 1_555
C13_4 N4_4 1_555 1_555
H7_4 C13_4 1_555 1_555
C14_4 C13_4 1_555 1_555
H8_4 C14_4 1_555 1_555
H9_4 C14_4 1_555 1_555
C15_4 O64_4 1_555 1_555
C16_4 N3_4 1_555 1_555
H10_4 C16_4 1_555 1_555
C17_4 O31_4 1_555 1_555
C18_4 C16_4 1_555 1_555
H11_4 C18_4 1_555 1_555
H12_4 C18_4 1_555 1_555
C19_4 O65_4 1_555 1_555
C22_4 O33_4 1_555 1_555
C23_4 H13_4 1_555 1_555
C25_4 N5_4 1_555 1_555
C26_4 C25_4 1_555 1_555
H16_4 C26_4 1_555 1_555
H17_4 C26_4 1_555 1_555
C27_4 O67_4 1_555 1_555
C38_4 C25_4 1_555 1_555
C49_4 N6_4 1_555 1_555
H30_4 C49_4 1_555 1_555
C50_4 O61_4 1_555 1_555
O73_3 Ca6_2 1_555 1_555
O81_4 Cu12_2 1_555 1_555
O86_4 Cu8_4 1_555 1_555
O87_4 Cu9_4 1_555 1_555
O54_4 C17_4 1_555 1_555
C11_4 C12_4 1_555 1_555
C14_4 C15_4 1_555 1_555
C16_4 C17_4 1_555 1_555
C18_4 C19_4 1_555 1_555
C21_4 C22_4 1_555 1_555
C23_4 C49_4 1_555 1_555
C26_4 C27_4 1_555 1_555
C49_4 C50_4 1_555 1_555
O73_3 H77_3 1_555 1_555
O73_3 H78_3 1_555 1_555
O87_4 H81_4 1_555 1_555
O87_4 H82_4 1_555 1_555
O79_4 H87_4 1_555 1_555
O79_4 H88_4 1_555 1_555
O86_4 H91_3 1_555 1_555
O86_4 H92_3 1_555 1_555
O81_4 H93_4 1_555 1_555
O81_4 H94_4 1_555 1_555
O72_4 H66_4 1_555 1_555
O74_4 Ca5_4 1_555 1_555
O75_4 Ca5_4 1_555 1_555
O76_4 Ca5_4 1_555 1_555
O77_4 Ca5_4 1_555 1_555
O78_4 Ca5_4 1_555 1_555
O75_4 H67_4 1_555 1_555
O75_4 H68_4 1_555 1_555
O76_4 H69_4 1_555 1_555
O76_4 H70_4 1_555 1_555
O74_4 H71_4 1_555 1_555
O74_4 H72_4 1_555 1_555
O77_4 H73_4 1_555 1_555
O77_4 H74_4 1_555 1_555
O78_4 H75_4 1_555 1_555
O78_4 H76_4 1_555 1_555
Cu13 N9_3 1_555 1_555
N9_3 C40_3 1_555 1_555
N10_3 C39_4 1_555 1_555
O44_4 Cu13 1_555 1_555
O48_3 C44_3 1_555 1_555
O71_3 Cu13 1_555 1_555
C39_4 O44_4 1_555 1_555
C41_3 N9_3 1_555 1_555
H24_3 C41_3 1_555 1_555
C43_3 C41_3 1_555 1_555
H25_3 C43_3 1_555 1_555
H26_3 C43_3 1_555 1_555
C44_3 O71_3 1_555 1_555
C45_3 N10_3 1_555 1_555
H27_3 C45_3 1_555 1_555
O82_3 Cu13 1_555 1_555
C39_4 C40_3 1_555 1_555
C43_3 C44_3 1_555 1_555
O82_3 H83_3 1_555 1_555
O82_3 H84_4 1_555 1_555
Cu11 N1_4 1_555 1_555
Cu14_2 N2_4 1_555 1_555
Cu15_2 N7_4 1_555 1_555
Cu7_4 N8_4 1_555 1_555
N1_4 C1_4 1_555 1_555
N2_4 C2_4 1_555 1_555
N7_4 C28_4 1_555 1_555
N8_4 C29_4 1_555 1_555
O22_4 Cu11 1_555 1_555
O23_4 Cu14_2 1_555 1_555
O24_4 Cu15_2 1_555 1_555
O25_4 Cu14_2 1_555 1_555
O34_4 Cu16_2 1_555 1_555
O35_4 C24_4 1_555 1_555
O37_4 Cu15_2 1_555 1_555
O90_2 Cu7_4 1_555 1_555
O39_3 C32_4 1_555 1_555
O40_3 C33_4 1_555 1_555
O41_4 C35_4 1_555 1_555
O42_4 C37_4 1_555 1_555
O92_2 Cu6_3 1_555 1_555
O46_3 C47_3 1_555 1_555
O47_4 Cu7_4 1_555 1_555
O49_4 C48_4 1_555 1_555
O51_4 C20_4 1_555 1_555
O52_4 C9_3 1_555 1_555
O93_2 C20_4 1_555 1_555
O56_4 Cu6_3 1_555 1_555
O94_2 C35_4 1_555 1_555
O59_4 Cu7_4 1_555 1_555
O95 C48_4 1_555 1_555
O62_4 Cu11 1_555 1_555
O63_4 Cu16_2 1_555 1_555
O66_4 Cu16_2 1_555 1_555
O68_4 Cu15_2 1_555 1_555
O69_4 Cu7_4 1_555 1_555
O70_3 Cu6_3 1_555 1_555
C1_4 O23_4 1_555 1_555
C2_4 O22_4 1_555 1_555
C3_4 N1_4 1_555 1_555
H1_4 C3_4 1_555 1_555
C4_4 C3_4 1_555 1_555
H2_4 C4_4 1_555 1_555
H3_4 C4_4 1_555 1_555
C5_4 O24_4 1_555 1_555
C6_4 N2_4 1_555 1_555
H4_4 C6_4 1_555 1_555
C7_4 C6_4 1_555 1_555
H5_4 C7_4 1_555 1_555
H6_4 C7_4 1_555 1_555
C8_4 O25_4 1_555 1_555
C20_4 C3_4 1_555 1_555
C24_4 O66_4 1_555 1_555
C28_4 O90_2 1_555 1_555
C29_4 O37_4 1_555 1_555
C30_4 N7_4 1_555 1_555
H18_4 C30_4 1_555 1_555
C31_4 C30_4 1_555 1_555
H19_4 C31_4 1_555 1_555
H20_4 C31_4 1_555 1_555
C32_4 O68_4 1_555 1_555
C33_4 O56_4 1_555 1_555
C34_4 N8_4 1_555 1_555
H21_4 C34_4 1_555 1_555
C35_4 C34_4 1_555 1_555
C36_4 C34_4 1_555 1_555
H22_4 C36_4 1_555 1_555
H23_4 C36_4 1_555 1_555
C37_4 O69_4 1_555 1_555
C42_4 O47_4 1_555 1_555
C47_3 O70_3 1_555 1_555
C48_4 C6_4 1_555 1_555
O80_4 Cu11 1_555 1_555
O83_4 Cu14_2 1_555 1_555
O84_4 Cu6_3 1_555 1_555
O85_4 Cu7_4 1_555 1_555
O59_4 C42_4 1_555 1_555
O62_4 C5_4 1_555 1_555
O63_4 C8_4 1_555 1_555
C1_4 C2_4 1_555 1_555
C4_4 C5_4 1_555 1_555
C7_4 C8_4 1_555 1_555
C28_4 C29_4 1_555 1_555
C30_4 C33_4 1_555 1_555
C31_4 C32_4 1_555 1_555
C36_4 C37_4 1_555 1_555
C46_3 C47_3 1_555 1_555
O83_4 H79_4 1_555 1_555
O83_4 H80_4 1_555 1_555
O80_4 H85_4 1_555 1_555
O80_4 H86_3 1_555 1_555
O85_4 H89_4 1_555 1_555
O85_4 H90_4 1_555 1_555
O84_4 H96_4 1_555 1_555
C45_4 N10_4 1_555 1_555
H27_4 C45_4 1_555 1_555
O73_4 H77_4 1_555 1_555
O73_4 H78_4 1_555 1_555
O46_4 C47_4 1_555 1_555
O70_4 Cu6_4 1_555 1_555
C47_4 O70_4 1_555 1_555
C46_4 C47_4 1_555 1_555
N9_4 C40_4 1_555 1_555
O48_4 C44_4 1_555 1_555
C41_4 N9_4 1_555 1_555
H24_4 C41_4 1_555 1_555
C43_4 C41_4 1_555 1_555
H25_4 C43_4 1_555 1_555
H26_4 C43_4 1_555 1_555
C44_4 O71_4 1_555 1_555
C43_4 C44_4 1_555 1_555
O82_4 H83_4 1_555 1_555

#END
