
###############################################################################
#
# This file contains modified crystal structure data generated from the
# MOF subset of the Cambridge Structural Database (CSD) v543 
# hosted by the Cambridge Crystallographic Data Centre (CCDC).
#
# This work is licensed under the Creative Commons
# Attribution-NonCommercial-ShareAlike 4.0 International License.
# To view a copy of this license, visit
# http://creativecommons.org/licenses/by-nc-sa/4.0/
# or send a letter to
# Creative Commons, PO Box 1866, Mountain View, CA 94042, USA.
#
# CIF created using the CSD Python API on 29 September 2022
# The structure has been converted into the P1 space group
# The structure has a 3D framework
# The original CSD entry YALJAA is in the monoclinic crystal system
# The framework has been calculated to contain at least 10.0% void space
# The void calculation uses a probe of radius 1.32A, grid spacing 0.4
#
###############################################################################

data_YALJAA
_chemical_formula_moiety         '(C320 H192 Cd14 N16 O64)n'
_symmetry_cell_setting           triclinic
_symmetry_space_group_name_H-M   'P 1'
_symmetry_Int_Tables_number      1
_space_group_name_Hall           'P 1'
loop_
_symmetry_equiv_pos_site_id
_symmetry_equiv_pos_as_xyz
1 x,y,z
_cell_length_a                   27.1434(14)
_cell_length_b                   21.6127(10)
_cell_length_c                   27.6892(13)
_cell_angle_alpha                90
_cell_angle_beta                 105.362(5)
_cell_angle_gamma                90
_cell_volume                     15663.3
loop_
_atom_site_label
_atom_site_type_symbol
_atom_site_fract_x
_atom_site_fract_y
_atom_site_fract_z
O10 O 0.23438(10) 0.90436(13) 0.57806(10)
O11 O 0.24044(12) 0.82751(15) 0.63140(12)
C41 C 0.15738(16) 0.86149(18) 0.59010(16)
C47 C 0.21416(17) 0.8644(2) 0.60057(17)
C50 C 0.13582(17) 0.8178(2) 0.61360(19)
H27 H 0.1562 0.7919 0.6376
C51 C 0.05229(17) 0.8505(2) 0.5659(2)
C54 C 0.07406(18) 0.8962(2) 0.5449(2)
H28 H 0.0536 0.9239 0.5227
C55 C 0.12588(18) 0.9014(2) 0.55642(18)
H29 H 0.1404 0.9324 0.5414
H32 H 0.0076 0.9347 0.6112
C67 C 0.08226(18) 0.8125(2) 0.6010(2)
H35 H 0.0671 0.7829 0.6168
H40 H 0.0090 0.6567 0.4843
C73 C 0.0074(2) 0.7409(2) 0.5149(2)
H41 H 0.0373 0.7550 0.5084
Cd6 Cd 0.2500 0.90326(2) 0.5000
Cd9 Cd 0.31916(2) 0.86771(2) 0.62433(2)
Cd1 Cd 0.7500 0.09674(2) 0.5000
Cd2 Cd 0.68084(2) 0.13229(2) 0.37567(2)
O1 O 0.68746(12) 0.02910(14) 0.47242(12)
O4 O 0.63433(12) 0.06188(16) 0.40081(13)
C6 C 0.64564(17) 0.02777(19) 0.43806(17)
H2 H 0.5502 0.0096 0.3847
Cd3 Cd 0.81916(2) 0.13229(2) 0.62433(2)
O9 O 0.81254(12) 0.02910(14) 0.52758(12)
O12 O 0.86567(12) 0.06188(16) 0.59919(13)
C46 C 0.85436(17) 0.02777(19) 0.56194(17)
H26 H 0.9498 0.0096 0.6153
O17 O 0.73438(10) 0.09564(13) 0.57806(10)
O18 O 0.76562(10) 0.09564(13) 0.42194(10)
O19 O 0.74044(12) 0.17249(15) 0.63140(12)
O20 O 0.75956(12) 0.17249(15) 0.36860(12)
O21 O 0.65089(15) 0.22181(15) 0.39959(12)
O22 O 0.84911(15) 0.22181(15) 0.60041(12)
O23 O 0.81243(15) 0.07016(17) 0.69496(12)
O24 O 0.68757(15) 0.07016(17) 0.30504(12)
O25 O 0.69621(13) 0.17663(15) 0.46744(13)
O26 O 0.80379(13) 0.17663(15) 0.53256(13)
O27 O 0.86024(14) 0.15424(17) 0.70758(11)
O28 O 0.63976(14) 0.15424(17) 0.29242(11)
O2 O 0.26562(10) 0.90436(13) 0.42194(10)
O3 O 0.25956(12) 0.82751(15) 0.36860(12)
O6 O 0.68757(15) 0.42984(17) 0.80504(12)
O8 O 0.63976(14) 0.34576(17) 0.79242(11)
N1 N 0.62903(18) 0.41895(16) 0.56514(14)
C1 C 0.34262(16) 0.86149(18) 0.40990(16)
N2 N 0.50150(13) 0.83940(17) 0.44770(19)
C2 C 0.65985(17) 0.27338(18) 0.47675(16)
C3 C 0.60680(16) 0.98146(18) 0.44315(17)
C4 C 0.68519(19) 0.2781(2) 0.52663(17)
H1 H 0.7092 0.2482 0.5411
C5 C 0.66951(18) 0.2205(2) 0.44614(19)
C7 C 0.28584(17) 0.8644(2) 0.39943(17)
C8 C 0.6081(2) 0.4775(2) 0.54380(16)
C9 C 0.55897(17) 0.9795(2) 0.40954(18)
C10 C 0.36418(17) 0.8178(2) 0.38640(19)
H3 H 0.3438 0.7919 0.3624
C11 C 0.44771(17) 0.8505(2) 0.4341(2)
C12 C 0.63938(19) 0.37124(17) 0.53463(16)
C13 C 0.65087(19) 0.3977(2) 0.71985(16)
C14 C 0.42594(18) 0.8962(2) 0.4551(2)
H4 H 0.4464 0.9239 0.4773
C15 C 0.37412(18) 0.9014(2) 0.44358(18)
H5 H 0.3596 0.9324 0.4586
C16 C 0.62467(18) 0.3188(2) 0.45620(17)
H6 H 0.6078 0.3169 0.4223
C17 C 0.6367(2) 0.4112(2) 0.61756(17)
C18 C 0.67602(19) 0.3261(2) 0.55573(16)
H7 H 0.6940 0.3287 0.5893
C19 C 0.55344(18) 0.6584(2) 0.49112(19)
C20 C 0.57233(19) 0.59449(19) 0.50798(19)
C21 C 0.52435(17) 0.9345(2) 0.41182(19)
H8 H 0.4924 0.9347 0.3888
C22 C 0.53599(17) 0.8893(2) 0.4474(2)
C23 C 0.61394(19) 0.36694(19) 0.48472(16)
H9 H 0.5895 0.3964 0.4701
C24 C 0.61773(18) 0.9381(2) 0.4811(2)
H10 H 0.6490 0.9394 0.5052
C25 C 0.6597(2) 0.3911(2) 0.77553(18)
C26 C 0.51894(18) 0.7787(2) 0.4615(2)
C27 C 0.41774(18) 0.8125(2) 0.3990(2)
H11 H 0.4329 0.7829 0.3832
C28 C 0.6683(2) 0.4499(2) 0.70048(18)
H12 H 0.6846 0.4808 0.7223
C29 C 0.58225(19) 0.8921(2) 0.4837(2)
H13 H 0.5897 0.8635 0.5097
C30 C 0.6267(2) 0.3518(2) 0.68685(18)
H14 H 0.6153 0.3160 0.6992
C31 C 0.6197(2) 0.3587(2) 0.63672(17)
H15 H 0.6032 0.3278 0.6150
C32 C 0.5098(2) 0.6815(2) 0.4997(2)
H16 H 0.4910 0.6567 0.5157
C33 C 0.4926(2) 0.7409(2) 0.4851(2)
H17 H 0.4627 0.7550 0.4916
C34 C 0.6621(2) 0.4572(2) 0.65038(18)
H18 H 0.6745 0.4923 0.6381
C35 C 0.5623(2) 0.7555(2) 0.4511(3)
H19 H 0.5800 0.7798 0.4336
C36 C 0.5798(2) 0.6969(2) 0.4661(2)
H20 H 0.6097 0.6828 0.4595
C37 C 0.6303(3) 0.5108(3) 0.5129(3)
H21 H 0.6586 0.4950 0.5042
C38 C 0.5679(3) 0.5040(3) 0.5551(3)
H22 H 0.5514 0.4832 0.5757
C39 C 0.5510(3) 0.5606(3) 0.5371(3)
H23 H 0.5227 0.5768 0.5456
C40 C 0.6107(3) 0.5676(3) 0.4947(3)
H24 H 0.6250 0.5880 0.4722
O14 O 0.81243(15) 0.42984(17) 0.19496(12)
O16 O 0.86024(14) 0.34576(17) 0.20758(11)
N3 N 0.87097(18) 0.41895(16) 0.43486(14)
N4 N 0.99850(13) 0.83940(17) 0.55230(19)
C42 C 0.84015(17) 0.27338(18) 0.52325(16)
C43 C 0.89320(16) 0.98146(18) 0.55685(17)
C44 C 0.81481(19) 0.2781(2) 0.47337(17)
H25 H 0.7908 0.2482 0.4589
C45 C 0.83049(18) 0.2205(2) 0.55386(19)
C48 C 0.8919(2) 0.4775(2) 0.45620(16)
C49 C 0.94103(17) 0.9795(2) 0.59046(18)
C52 C 0.86062(19) 0.37124(17) 0.46537(16)
C53 C 0.84913(19) 0.3977(2) 0.28015(16)
C56 C 0.87533(18) 0.3188(2) 0.54380(17)
H30 H 0.8922 0.3169 0.5777
C57 C 0.8633(2) 0.4112(2) 0.38244(17)
C58 C 0.82398(19) 0.3261(2) 0.44427(16)
H31 H 0.8060 0.3287 0.4107
C59 C 0.94656(18) 0.6584(2) 0.50888(19)
C60 C 0.92767(19) 0.59449(19) 0.49202(19)
C61 C 0.97565(17) 0.9345(2) 0.58818(19)
C62 C 0.96401(17) 0.8893(2) 0.5526(2)
C63 C 0.88606(19) 0.36694(19) 0.51528(16)
H33 H 0.9105 0.3964 0.5299
C64 C 0.88227(18) 0.9381(2) 0.5189(2)
H34 H 0.8510 0.9394 0.4948
C65 C 0.8403(2) 0.3911(2) 0.22447(18)
C66 C 0.98106(18) 0.7787(2) 0.5385(2)
C68 C 0.8317(2) 0.4499(2) 0.29952(18)
H36 H 0.8154 0.4808 0.2777
C69 C 0.91775(19) 0.8921(2) 0.5163(2)
H37 H 0.9103 0.8635 0.4903
C70 C 0.8733(2) 0.3518(2) 0.31315(18)
H38 H 0.8847 0.3160 0.3008
C71 C 0.8803(2) 0.3587(2) 0.36328(17)
H39 H 0.8968 0.3278 0.3850
C72 C 0.9902(2) 0.6815(2) 0.5003(2)
C74 C 0.8379(2) 0.4572(2) 0.34962(18)
H42 H 0.8255 0.4923 0.3619
C75 C 0.9377(2) 0.7555(2) 0.5489(3)
H43 H 0.9200 0.7798 0.5664
C76 C 0.9202(2) 0.6969(2) 0.5339(2)
H44 H 0.8903 0.6828 0.5405
C77 C 0.8697(3) 0.5108(3) 0.4871(3)
H45 H 0.8414 0.4950 0.4958
C78 C 0.9321(3) 0.5040(3) 0.4449(3)
H46 H 0.9486 0.4832 0.4243
C79 C 0.9490(3) 0.5606(3) 0.4629(3)
H47 H 0.9773 0.5768 0.4544
C80 C 0.8893(3) 0.5676(3) 0.5053(3)
H48 H 0.8750 0.5880 0.5278
Cd10 Cd 0.18084(2) 0.86771(2) 0.37567(2)
Cd11 Cd 0.81916(2) 0.36771(2) 0.12433(2)
Cd12 Cd 0.68084(2) 0.36771(2) 0.87567(2)
Cd1_2 Cd 0.2500 0.59674(2) 0.0000
C20_2 C 0.07233(19) 0.09449(19) 0.00798(19)
H10_2 H 0.1490 0.4394 0.0052
H13_2 H 0.0897 0.3635 0.0097
C37_2 C 0.1303(3) 0.0108(3) 0.0129(3)
C38_2 C 0.0679(3) 0.0040(3) 0.0551(3)
C39_2 C 0.0510(3) 0.0606(3) 0.0371(3)
H23_2 H 0.0227 0.0768 0.0456
Cd3_2 Cd 0.31916(2) 0.63229(2) 0.12433(2)
O9_2 O 0.31254(12) 0.52910(14) 0.02758(12)
O10_2 O 0.73438(10) 0.40436(13) 0.07806(10)
O11_2 O 0.74044(12) 0.32751(15) 0.13140(12)
O12_2 O 0.36567(12) 0.56188(16) 0.09919(13)
C41_2 C 0.65738(16) 0.36149(18) 0.09010(16)
N4_2 N 0.49850(13) 0.33940(17) 0.05230(19)
C43_2 C 0.39320(16) 0.48146(18) 0.05685(17)
C46_2 C 0.35436(17) 0.52777(19) 0.06194(17)
C47_2 C 0.71416(17) 0.3644(2) 0.10057(17)
C49_2 C 0.44103(17) 0.4795(2) 0.09046(18)
H26_2 H 0.4498 0.5096 0.1153
C50_2 C 0.63582(17) 0.3178(2) 0.11360(19)
H27_2 H 0.6562 0.2919 0.1376
C51_2 C 0.55229(17) 0.3505(2) 0.0659(2)
C54_2 C 0.57406(18) 0.3962(2) 0.0449(2)
H28_2 H 0.5536 0.4239 0.0227
C55_2 C 0.62588(18) 0.4014(2) 0.05642(18)
H29_2 H 0.6404 0.4324 0.0414
C59_2 C 0.44656(18) 0.1584(2) 0.00888(19)
C61_2 C 0.47565(17) 0.4345(2) 0.08818(19)
H32_2 H 0.5076 0.4347 0.1112
C62_2 C 0.46401(17) 0.3893(2) 0.0526(2)
C64_2 C 0.38227(18) 0.4381(2) 0.0189(2)
C66_2 C 0.48106(18) 0.2787(2) 0.0385(2)
C67_2 C 0.58226(18) 0.3125(2) 0.1010(2)
H35_2 H 0.5671 0.2829 0.1168
C69_2 C 0.41775(19) 0.3921(2) 0.0163(2)
C72_2 C 0.4902(2) 0.1815(2) 0.0003(2)
C73_2 C 0.5074(2) 0.2409(2) 0.0149(2)
H41_2 H 0.5373 0.2550 0.0084
C75_2 C 0.4377(2) 0.2555(2) 0.0489(3)
H43_2 H 0.4200 0.2798 0.0664
C76_2 C 0.4202(2) 0.1969(2) 0.0339(2)
H44_2 H 0.3903 0.1828 0.0405
C80_2 C 0.3893(3) 0.0676(3) 0.0053(3)
H48_2 H 0.3750 0.0880 0.0278
Cd6_2 Cd 0.7500 0.40326(2) 0.0000
O17_2 O 0.23438(10) 0.59564(13) 0.07806(10)
O19_2 O 0.24044(12) 0.67249(15) 0.13140(12)
O22_2 O 0.34911(15) 0.72181(15) 0.10041(12)
O23_2 O 0.31243(15) 0.57016(17) 0.19496(12)
O26_2 O 0.30379(13) 0.67663(15) 0.03256(13)
O27_2 O 0.36024(14) 0.65424(17) 0.20758(11)
Cd1_3 Cd 0.2500 0.59674(2) 1.0000
Cd2_2 Cd 0.18084(2) 0.63229(2) 0.87567(2)
O1_2 O 0.18746(12) 0.52910(14) 0.97242(12)
O4_2 O 0.13433(12) 0.56188(16) 0.90081(13)
N2_2 N 0.00150(13) 0.33940(17) 0.94770(19)
C3_2 C 0.10680(16) 0.48146(18) 0.94315(17)
C6_2 C 0.14564(17) 0.52777(19) 0.93806(17)
C9_2 C 0.05897(17) 0.4795(2) 0.90954(18)
H2_2 H 0.0502 0.5096 0.8847
C19_2 C 0.05344(18) 0.1584(2) 0.99112(19)
C21_2 C 0.02435(17) 0.4345(2) 0.91182(19)
C22_2 C 0.03599(17) 0.3893(2) 0.9474(2)
C24_2 C 0.11773(18) 0.4381(2) 0.9811(2)
C26_2 C 0.01894(18) 0.2787(2) 0.9615(2)
C29_2 C 0.08225(19) 0.3921(2) 0.9837(2)
C32_2 C 0.0098(2) 0.1815(2) 0.9997(2)
C35_2 C 0.0623(2) 0.2555(2) 0.9511(3)
H19_2 H 0.0800 0.2798 0.9336
C36_2 C 0.0798(2) 0.1969(2) 0.9661(2)
H20_2 H 0.1097 0.1828 0.9595
C40_2 C 0.1107(3) 0.0676(3) 0.9947(3)
H24_2 H 0.1250 0.0880 0.9722
C60_2 C 0.42767(19) 0.09449(19) 0.99202(19)
H34_2 H 0.3510 0.4394 0.9948
H37_2 H 0.4103 0.3635 0.9903
H40_2 H 0.5090 0.1567 0.9843
C77_2 C 0.3697(3) 0.0108(3) 0.9871(3)
C78_2 C 0.4321(3) 0.0040(3) 0.9449(3)
C79_2 C 0.4490(3) 0.0606(3) 0.9629(3)
H47_2 H 0.4773 0.0768 0.9544
Cd6_3 Cd 0.7500 0.40326(2) 1.0000
O18_2 O 0.26562(10) 0.59564(13) 0.92194(10)
O20_2 O 0.25956(12) 0.67249(15) 0.86860(12)
O21_2 O 0.15089(15) 0.72181(15) 0.89959(12)
O24_2 O 0.18757(15) 0.57016(17) 0.80504(12)
O25_2 O 0.19621(13) 0.67663(15) 0.96744(13)
O28_2 O 0.13976(14) 0.65424(17) 0.79242(11)
O6_2 O 0.18757(15) 0.92984(17) 0.30504(12)
O8_2 O 0.13976(14) 0.84576(17) 0.29242(11)
N1_2 N 0.12903(18) 0.91895(16) 0.06514(14)
C4_2 C 0.18519(19) 0.7781(2) 0.02663(17)
H1_2 H 0.2092 0.7482 0.0411
C8_2 C 0.1081(2) 0.9775(2) 0.04380(16)
C12_2 C 0.13938(19) 0.87124(17) 0.03463(16)
C13_2 C 0.15087(19) 0.8977(2) 0.21985(16)
C17_2 C 0.1367(2) 0.9112(2) 0.11756(17)
C18_2 C 0.17602(19) 0.8261(2) 0.05573(16)
H7_2 H 0.1940 0.8287 0.0893
C25_2 C 0.1597(2) 0.8911(2) 0.27553(18)
C28_2 C 0.1683(2) 0.9499(2) 0.20048(18)
H12_2 H 0.1846 0.9808 0.2223
C30_2 C 0.1267(2) 0.8518(2) 0.18685(18)
H14_2 H 0.1153 0.8160 0.1992
C31_2 C 0.1197(2) 0.8587(2) 0.13672(17)
H15_2 H 0.1032 0.8278 0.1150
C34_2 C 0.1621(2) 0.9572(2) 0.15038(18)
H18_2 H 0.1745 0.9923 0.1381
H21_2 H 0.1586 0.9950 0.0042
H22_2 H 0.0514 0.9832 0.0757
C42_2 C 0.34015(17) 0.77338(18) 0.02325(16)
C45_2 C 0.33049(18) 0.7205(2) 0.05386(19)
C56_2 C 0.37533(18) 0.8188(2) 0.04380(17)
H30_2 H 0.3922 0.8169 0.0777
C63_2 C 0.38606(19) 0.86694(19) 0.01528(16)
H33_2 H 0.4105 0.8964 0.0299
C2_2 C 0.15985(17) 0.77338(18) 0.97675(16)
C5_2 C 0.16951(18) 0.7205(2) 0.94614(19)
C16_2 C 0.12467(18) 0.8188(2) 0.95620(17)
H6_2 H 0.1078 0.8169 0.9223
C23_2 C 0.11394(19) 0.86694(19) 0.98472(16)
H9_2 H 0.0895 0.8964 0.9701
O14_2 O 0.31243(15) 0.92984(17) 0.69496(12)
O16_2 O 0.36024(14) 0.84576(17) 0.70758(11)
N3_2 N 0.37097(18) 0.91895(16) 0.93486(14)
C44_2 C 0.31481(19) 0.7781(2) 0.97337(17)
H25_2 H 0.2908 0.7482 0.9589
C48_2 C 0.3919(2) 0.9775(2) 0.95620(16)
C52_2 C 0.36062(19) 0.87124(17) 0.96537(16)
C53_2 C 0.34913(19) 0.8977(2) 0.78015(16)
C57_2 C 0.3633(2) 0.9112(2) 0.88244(17)
C58_2 C 0.32398(19) 0.8261(2) 0.94427(16)
H31_2 H 0.3060 0.8287 0.9107
C65_2 C 0.3403(2) 0.8911(2) 0.72447(18)
C68_2 C 0.3317(2) 0.9499(2) 0.79952(18)
H36_2 H 0.3154 0.9808 0.7777
C70_2 C 0.3733(2) 0.8518(2) 0.81315(18)
H38_2 H 0.3847 0.8160 0.8008
C71_2 C 0.3803(2) 0.8587(2) 0.86328(17)
H39_2 H 0.3968 0.8278 0.8850
C74_2 C 0.3379(2) 0.9572(2) 0.84962(18)
H42_2 H 0.3255 0.9923 0.8619
H45_2 H 0.3414 0.9950 0.9958
H46_2 H 0.4486 0.9832 0.9243
H16_2 H 0.9910 0.1567 0.0157
O2_2 O 0.76562(10) 0.40436(13) 0.92194(10)
O3_2 O 0.75956(12) 0.32751(15) 0.86860(12)
C1_2 C 0.84262(16) 0.36149(18) 0.90990(16)
C7_2 C 0.78584(17) 0.3644(2) 0.89943(17)
C10_2 C 0.86418(17) 0.3178(2) 0.88640(19)
H3_2 H 0.8438 0.2919 0.8624
C11_2 C 0.94771(17) 0.3505(2) 0.9341(2)
C14_2 C 0.92594(18) 0.3962(2) 0.9551(2)
H4_2 H 0.9464 0.4239 0.9773
C15_2 C 0.87412(18) 0.4014(2) 0.94358(18)
H5_2 H 0.8596 0.4324 0.9586
H8_2 H 0.9924 0.4347 0.8888
C27_2 C 0.91774(18) 0.3125(2) 0.8990(2)
H11_2 H 0.9329 0.2829 0.8832
C33_2 C 0.9926(2) 0.2409(2) 0.9851(2)
H17_2 H 0.9627 0.2550 0.9916
O5 O 0.34911(15) 0.77819(15) 0.60041(12)
O7 O 0.30379(13) 0.82337(15) 0.53256(13)
N1_3 N 0.37097(18) 0.58105(16) 0.43486(14)
C1_3 C 0.65738(16) 0.13851(18) 0.59010(16)
N2_3 N 0.49850(13) 0.16060(17) 0.55230(19)
C2_3 C 0.34015(17) 0.72662(18) 0.52325(16)
C3_3 C 0.39320(16) 0.01854(18) 0.55685(17)
C4_3 C 0.31481(19) 0.7219(2) 0.47337(17)
H1_3 H 0.2908 0.7518 0.4589
C5_3 C 0.33049(18) 0.7795(2) 0.55386(19)
C7_3 C 0.71416(17) 0.1356(2) 0.60057(17)
C8_3 C 0.3919(2) 0.5225(2) 0.45620(16)
C9_3 C 0.44103(17) 0.0205(2) 0.59046(18)
C10_3 C 0.63582(17) 0.1822(2) 0.61360(19)
H3_3 H 0.6562 0.2081 0.6376
C11_3 C 0.55229(17) 0.1495(2) 0.5659(2)
C12_3 C 0.36062(19) 0.62876(17) 0.46537(16)
C13_3 C 0.34913(19) 0.6023(2) 0.28015(16)
C14_3 C 0.57406(18) 0.1038(2) 0.5449(2)
H4_3 H 0.5536 0.0761 0.5227
C15_3 C 0.62588(18) 0.0986(2) 0.55642(18)
H5_3 H 0.6404 0.0676 0.5414
C16_3 C 0.37533(18) 0.6812(2) 0.54380(17)
H6_3 H 0.3922 0.6831 0.5777
C17_3 C 0.3633(2) 0.5888(2) 0.38244(17)
C18_3 C 0.32398(19) 0.6739(2) 0.44427(16)
H7_3 H 0.3060 0.6713 0.4107
C19_3 C 0.44656(18) 0.3416(2) 0.50888(19)
C20_3 C 0.42767(19) 0.40551(19) 0.49202(19)
C21_3 C 0.47565(17) 0.0655(2) 0.58818(19)
H8_3 H 0.5076 0.0653 0.6112
C22_3 C 0.46401(17) 0.1107(2) 0.5526(2)
C23_3 C 0.38606(19) 0.63306(19) 0.51528(16)
H9_3 H 0.4105 0.6036 0.5299
C24_3 C 0.38227(18) 0.0619(2) 0.5189(2)
H10_3 H 0.3510 0.0606 0.4948
C25_3 C 0.3403(2) 0.6089(2) 0.22447(18)
C26_3 C 0.48106(18) 0.2213(2) 0.5385(2)
C27_3 C 0.58226(18) 0.1875(2) 0.6010(2)
H11_3 H 0.5671 0.2171 0.6168
C28_3 C 0.3317(2) 0.5501(2) 0.29952(18)
H12_3 H 0.3154 0.5192 0.2777
C29_3 C 0.41775(19) 0.1079(2) 0.5163(2)
H13_3 H 0.4103 0.1365 0.4903
C30_3 C 0.3733(2) 0.6482(2) 0.31315(18)
H14_3 H 0.3847 0.6840 0.3008
C31_3 C 0.3803(2) 0.6413(2) 0.36328(17)
H15_3 H 0.3968 0.6722 0.3850
C32_3 C 0.4902(2) 0.3185(2) 0.5003(2)
H16_3 H 0.5090 0.3433 0.4843
C33_3 C 0.5074(2) 0.2591(2) 0.5149(2)
H17_3 H 0.5373 0.2450 0.5084
C34_3 C 0.3379(2) 0.5428(2) 0.34962(18)
H18_3 H 0.3255 0.5077 0.3619
C35_3 C 0.4377(2) 0.2445(2) 0.5489(3)
H19_3 H 0.4200 0.2202 0.5664
C36_3 C 0.4202(2) 0.3031(2) 0.5339(2)
H20_3 H 0.3903 0.3172 0.5405
C37_3 C 0.3697(3) 0.4892(3) 0.4871(3)
H21_3 H 0.3414 0.5050 0.4958
C38_3 C 0.4321(3) 0.4960(3) 0.4449(3)
H22_3 H 0.4486 0.5168 0.4243
C39_3 C 0.4490(3) 0.4394(3) 0.4629(3)
H23_3 H 0.4773 0.4232 0.4544
C40_3 C 0.3893(3) 0.4324(3) 0.5053(3)
H24_3 H 0.3750 0.4120 0.5278
O13 O 0.15089(15) 0.77819(15) 0.39959(12)
O15 O 0.19621(13) 0.82337(15) 0.46744(13)
N3_3 N 0.12903(18) 0.58105(16) 0.56514(14)
N4_3 N 0.00150(13) 0.16060(17) 0.44770(19)
C42_3 C 0.15985(17) 0.72662(18) 0.47675(16)
C43_3 C 0.10680(16) 0.01854(18) 0.44315(17)
C44_3 C 0.18519(19) 0.7219(2) 0.52663(17)
H25_3 H 0.2092 0.7518 0.5411
C45_3 C 0.16951(18) 0.7795(2) 0.44614(19)
C48_3 C 0.1081(2) 0.5225(2) 0.54380(16)
C49_3 C 0.05897(17) 0.0205(2) 0.40954(18)
C52_3 C 0.13938(19) 0.62876(17) 0.53463(16)
C53_3 C 0.15087(19) 0.6023(2) 0.71985(16)
C56_3 C 0.12467(18) 0.6812(2) 0.45620(17)
H30_3 H 0.1078 0.6831 0.4223
C57_3 C 0.1367(2) 0.5888(2) 0.61756(17)
C58_3 C 0.17602(19) 0.6739(2) 0.55573(16)
H31_3 H 0.1940 0.6713 0.5893
C59_3 C 0.05344(18) 0.3416(2) 0.49112(19)
C60_3 C 0.07233(19) 0.40551(19) 0.50798(19)
C61_3 C 0.02435(17) 0.0655(2) 0.41182(19)
C62_3 C 0.03599(17) 0.1107(2) 0.4474(2)
C63_3 C 0.11394(19) 0.63306(19) 0.48472(16)
H33_3 H 0.0895 0.6036 0.4701
C64_3 C 0.11773(18) 0.0619(2) 0.4811(2)
H34_3 H 0.1490 0.0606 0.5052
C65_3 C 0.1597(2) 0.6089(2) 0.77553(18)
C66_3 C 0.01894(18) 0.2213(2) 0.4615(2)
C68_3 C 0.1683(2) 0.5501(2) 0.70048(18)
H36_3 H 0.1846 0.5192 0.7223
C69_3 C 0.08225(19) 0.1079(2) 0.4837(2)
H37_3 H 0.0897 0.1365 0.5097
C70_3 C 0.1267(2) 0.6482(2) 0.68685(18)
H38_3 H 0.1153 0.6840 0.6992
C71_3 C 0.1197(2) 0.6413(2) 0.63672(17)
H39_3 H 0.1032 0.6722 0.6150
C72_3 C 0.0098(2) 0.3185(2) 0.4997(2)
C74_3 C 0.1621(2) 0.5428(2) 0.65038(18)
H42_3 H 0.1745 0.5077 0.6381
C75_3 C 0.0623(2) 0.2445(2) 0.4511(3)
H43_3 H 0.0800 0.2202 0.4336
C76_3 C 0.0798(2) 0.3031(2) 0.4661(2)
H44_3 H 0.1097 0.3172 0.4595
C77_3 C 0.1303(3) 0.4892(3) 0.5129(3)
H45_3 H 0.1586 0.5050 0.5042
C78_3 C 0.0679(3) 0.4960(3) 0.5551(3)
H46_3 H 0.0514 0.5168 0.5757
C79_3 C 0.0510(3) 0.4394(3) 0.5371(3)
H47_3 H 0.0227 0.4232 0.5456
C80_3 C 0.1107(3) 0.4324(3) 0.4947(3)
H48_3 H 0.1250 0.4120 0.4722
O1_3 O 0.31254(12) 0.97090(14) 0.52758(12)
O4_3 O 0.36567(12) 0.93812(16) 0.59919(13)
C6_3 C 0.35436(17) 0.97223(19) 0.56194(17)
H2_3 H 0.4498 0.9904 0.6153
O9_3 O 0.18746(12) 0.97090(14) 0.47242(12)
O12_3 O 0.13433(12) 0.93812(16) 0.40081(13)
C46_3 C 0.14564(17) 0.97223(19) 0.43806(17)
H26_3 H 0.0502 0.9904 0.3847
C41_3 C 0.84262(16) 0.13851(18) 0.40990(16)
C47_3 C 0.78584(17) 0.1356(2) 0.39943(17)
C50_3 C 0.86418(17) 0.1822(2) 0.38640(19)
H27_3 H 0.8438 0.2081 0.3624
C51_3 C 0.94771(17) 0.1495(2) 0.4341(2)
C54_3 C 0.92594(18) 0.1038(2) 0.4551(2)
H28_3 H 0.9464 0.0761 0.4773
C55_3 C 0.87412(18) 0.0986(2) 0.44358(18)
H29_3 H 0.8596 0.0676 0.4586
H32_3 H 0.9924 0.0653 0.3888
C67_3 C 0.91774(18) 0.1875(2) 0.3990(2)
H35_3 H 0.9329 0.2171 0.3832
H40_3 H 0.9910 0.3433 0.5157
C73_3 C 0.9926(2) 0.2591(2) 0.4851(2)
H41_3 H 0.9627 0.2450 0.4916
C1_4 C 0.15738(16) 0.63851(18) 0.09010(16)
C7_4 C 0.21416(17) 0.6356(2) 0.10057(17)
C10_4 C 0.13582(17) 0.6822(2) 0.11360(19)
H3_4 H 0.1562 0.7081 0.1376
C11_4 C 0.05229(17) 0.6495(2) 0.0659(2)
C14_4 C 0.07406(18) 0.6038(2) 0.0449(2)
H4_4 H 0.0536 0.5761 0.0227
C15_4 C 0.12588(18) 0.5986(2) 0.05642(18)
H5_4 H 0.1404 0.5676 0.0414
H8_4 H 0.0076 0.5653 0.1112
C27_4 C 0.08226(18) 0.6875(2) 0.1010(2)
H11_4 H 0.0671 0.7171 0.1168
C33_4 C 0.0074(2) 0.7591(2) 0.0149(2)
H17_4 H 0.0373 0.7450 0.0084
H16_4 H 0.0090 0.8433 0.9843
O5_2 O 0.84911(15) 0.27819(15) 0.10041(12)
O7_2 O 0.80379(13) 0.32337(15) 0.03256(13)
C2_4 C 0.84015(17) 0.22662(18) 0.02325(16)
C5_4 C 0.83049(18) 0.2795(2) 0.05386(19)
C16_4 C 0.87533(18) 0.1812(2) 0.04380(17)
H6_4 H 0.8922 0.1831 0.0777
C23_4 C 0.88606(19) 0.13306(19) 0.01528(16)
H9_4 H 0.9105 0.1036 0.0299
N3_4 N 0.62903(18) 0.08105(16) 0.06514(14)
C44_4 C 0.68519(19) 0.2219(2) 0.02663(17)
H25_4 H 0.7092 0.2518 0.0411
C48_4 C 0.6081(2) 0.0225(2) 0.04380(16)
C52_4 C 0.63938(19) 0.12876(17) 0.03463(16)
C53_4 C 0.65087(19) 0.1023(2) 0.21985(16)
C57_4 C 0.6367(2) 0.0888(2) 0.11756(17)
C58_4 C 0.67602(19) 0.1739(2) 0.05573(16)
H31_4 H 0.6940 0.1713 0.0893
C65_4 C 0.6597(2) 0.1089(2) 0.27553(18)
C68_4 C 0.6683(2) 0.0501(2) 0.20048(18)
H36_4 H 0.6846 0.0192 0.2223
C70_4 C 0.6267(2) 0.1482(2) 0.18685(18)
H38_4 H 0.6153 0.1840 0.1992
C71_4 C 0.6197(2) 0.1413(2) 0.13672(17)
H39_4 H 0.6032 0.1722 0.1150
C74_4 C 0.6621(2) 0.0428(2) 0.15038(18)
H42_4 H 0.6745 0.0077 0.1381
H45_4 H 0.6586 0.0050 0.0042
H46_4 H 0.5514 0.0168 0.0757
N1_4 N 0.87097(18) 0.08105(16) 0.93486(14)
C4_4 C 0.81481(19) 0.2219(2) 0.97337(17)
H1_4 H 0.7908 0.2518 0.9589
C8_4 C 0.8919(2) 0.0225(2) 0.95620(16)
C12_4 C 0.86062(19) 0.12876(17) 0.96537(16)
C13_4 C 0.84913(19) 0.1023(2) 0.78015(16)
C17_4 C 0.8633(2) 0.0888(2) 0.88244(17)
C18_4 C 0.82398(19) 0.1739(2) 0.94427(16)
H7_4 H 0.8060 0.1713 0.9107
C25_4 C 0.8403(2) 0.1089(2) 0.72447(18)
C28_4 C 0.8317(2) 0.0501(2) 0.79952(18)
H12_4 H 0.8154 0.0192 0.7777
C30_4 C 0.8733(2) 0.1482(2) 0.81315(18)
H14_4 H 0.8847 0.1840 0.8008
C31_4 C 0.8803(2) 0.1413(2) 0.86328(17)
H15_4 H 0.8968 0.1722 0.8850
C34_4 C 0.8379(2) 0.0428(2) 0.84962(18)
H18_4 H 0.8255 0.0077 0.8619
H21_4 H 0.8414 0.0050 0.9958
H22_4 H 0.9486 0.0168 0.9243
O13_2 O 0.65089(15) 0.27819(15) 0.89959(12)
O15_2 O 0.69621(13) 0.32337(15) 0.96744(13)
C42_4 C 0.65985(17) 0.22662(18) 0.97675(16)
C45_4 C 0.66951(18) 0.2795(2) 0.94614(19)
C56_4 C 0.62467(18) 0.1812(2) 0.95620(17)
H30_4 H 0.6078 0.1831 0.9223
C63_4 C 0.61394(19) 0.13306(19) 0.98472(16)
H33_4 H 0.5895 0.1036 0.9701
O1_4 O 0.81254(12) 0.47090(14) 0.02758(12)
O4_4 O 0.86567(12) 0.43812(16) 0.09919(13)
N2_4 N 0.99850(13) 0.66060(17) 0.05230(19)
C3_4 C 0.89320(16) 0.51854(18) 0.05685(17)
C6_4 C 0.85436(17) 0.47223(19) 0.06194(17)
C9_4 C 0.94103(17) 0.5205(2) 0.09046(18)
H2_4 H 0.9498 0.4904 0.1153
C19_4 C 0.94656(18) 0.8416(2) 0.00888(19)
C21_4 C 0.97565(17) 0.5655(2) 0.08818(19)
C22_4 C 0.96401(17) 0.6107(2) 0.0526(2)
C24_4 C 0.88227(18) 0.5619(2) 0.0189(2)
C26_4 C 0.98106(18) 0.7213(2) 0.0385(2)
C29_4 C 0.91775(19) 0.6079(2) 0.0163(2)
C32_4 C 0.9902(2) 0.8185(2) 0.0003(2)
C35_4 C 0.9377(2) 0.7445(2) 0.0489(3)
H19_4 H 0.9200 0.7202 0.0664
C36_4 C 0.9202(2) 0.8031(2) 0.0339(2)
H20_4 H 0.8903 0.8172 0.0405
C40_4 C 0.8893(3) 0.9324(3) 0.0053(3)
H24_4 H 0.8750 0.9120 0.0278
C60_4 C 0.57233(19) 0.90551(19) 0.00798(19)
H34_4 H 0.6490 0.5606 0.0052
H37_4 H 0.5897 0.6365 0.0097
H40_4 H 0.4910 0.8433 0.0157
C77_4 C 0.6303(3) 0.9892(3) 0.0129(3)
C78_4 C 0.5679(3) 0.9960(3) 0.0551(3)
C79_4 C 0.5510(3) 0.9394(3) 0.0371(3)
H47_4 H 0.5227 0.9232 0.0456
C20_4 C 0.92767(19) 0.90551(19) 0.99202(19)
H10_4 H 0.8510 0.5606 0.9948
H13_4 H 0.9103 0.6365 0.9903
C37_4 C 0.8697(3) 0.9892(3) 0.9871(3)
C38_4 C 0.9321(3) 0.9960(3) 0.9449(3)
C39_4 C 0.9490(3) 0.9394(3) 0.9629(3)
H23_4 H 0.9773 0.9232 0.9544
O9_4 O 0.68746(12) 0.47090(14) 0.97242(12)
O12_4 O 0.63433(12) 0.43812(16) 0.90081(13)
C41_4 C 0.34262(16) 0.63851(18) 0.90990(16)
N4_4 N 0.50150(13) 0.66060(17) 0.94770(19)
C43_4 C 0.60680(16) 0.51854(18) 0.94315(17)
C46_4 C 0.64564(17) 0.47223(19) 0.93806(17)
C47_4 C 0.28584(17) 0.6356(2) 0.89943(17)
C49_4 C 0.55897(17) 0.5205(2) 0.90954(18)
H26_4 H 0.5502 0.4904 0.8847
C50_4 C 0.36418(17) 0.6822(2) 0.88640(19)
H27_4 H 0.3438 0.7081 0.8624
C51_4 C 0.44771(17) 0.6495(2) 0.9341(2)
C54_4 C 0.42594(18) 0.6038(2) 0.9551(2)
H28_4 H 0.4464 0.5761 0.9773
C55_4 C 0.37412(18) 0.5986(2) 0.94358(18)
H29_4 H 0.3596 0.5676 0.9586
C59_4 C 0.55344(18) 0.8416(2) 0.99112(19)
C61_4 C 0.52435(17) 0.5655(2) 0.91182(19)
H32_4 H 0.4924 0.5653 0.8888
C62_4 C 0.53599(17) 0.6107(2) 0.9474(2)
C64_4 C 0.61773(18) 0.5619(2) 0.9811(2)
C66_4 C 0.51894(18) 0.7213(2) 0.9615(2)
C67_4 C 0.41774(18) 0.6875(2) 0.8990(2)
H35_4 H 0.4329 0.7171 0.8832
C69_4 C 0.58225(19) 0.6079(2) 0.9837(2)
C72_4 C 0.5098(2) 0.8185(2) 0.9997(2)
C73_4 C 0.4926(2) 0.7591(2) 0.9851(2)
H41_4 H 0.4627 0.7450 0.9916
C75_4 C 0.5623(2) 0.7445(2) 0.9511(3)
H43_4 H 0.5800 0.7202 0.9336
C76_4 C 0.5798(2) 0.8031(2) 0.9661(2)
H44_4 H 0.6097 0.8172 0.9595
C80_4 C 0.6107(3) 0.9324(3) 0.9947(3)
H48_4 H 0.6250 0.9120 0.9722
loop_
_geom_bond_atom_site_label_1
_geom_bond_atom_site_label_2
_geom_bond_site_symmetry_1
_geom_bond_site_symmetry_2
O10 C47 1_555 1_555
O11 C47 1_555 1_555
C41 C47 1_555 1_555
C50 C41 1_555 1_555
H27 C50 1_555 1_555
C51 C54 1_555 1_555
C54 H28 1_555 1_555
C55 C41 1_555 1_555
H29 C55 1_555 1_555
C67 C50 1_555 1_555
H35 C67 1_555 1_555
H41 C73 1_555 1_555
Cd6 O10 1_555 1_555
Cd9 O10 1_555 1_555
O11 Cd9 1_555 1_555
C51 C67 1_555 1_555
C54 C55 1_555 1_555
Cd1 O1 1_555 1_555
Cd2 O4 1_555 1_555
O1 C6 1_555 1_555
O4 C6 1_555 1_555
Cd3 O12 1_555 1_555
O9 Cd1 1_555 1_555
O12 C46 1_555 1_555
C46 O9 1_555 1_555
O17 Cd1 1_555 1_555
O18 Cd1 1_555 1_555
O19 Cd3 1_555 1_555
O20 Cd2 1_555 1_555
O21 Cd2 1_555 1_555
O22 Cd3 1_555 1_555
O23 Cd3 1_555 1_555
O24 Cd2 1_555 1_555
O25 Cd1 1_555 1_555
O26 Cd1 1_555 1_555
O27 Cd3 1_555 1_555
O28 Cd2 1_555 1_555
Cd2 O18 1_555 1_555
Cd2 O25 1_555 1_555
Cd3 O17 1_555 1_555
Cd3 O26 1_555 1_555
O2 C7 1_555 1_555
O3 C7 1_555 1_555
O21 C5 1_555 1_555
O6 C25 1_555 1_555
O25 C5 1_555 1_555
O8 C25 1_555 1_555
N1 C8 1_555 1_555
C1 C7 1_555 1_555
N2 C11 1_555 1_555
C2 C4 1_555 1_555
C4 H1 1_555 1_555
C5 C2 1_555 1_555
C8 C37 1_555 1_555
C9 C3 1_555 1_555
C10 C1 1_555 1_555
H3 C10 1_555 1_555
C11 C14 1_555 1_555
C12 N1 1_555 1_555
C13 C25 1_555 1_555
C14 H4 1_555 1_555
C15 C1 1_555 1_555
H5 C15 1_555 1_555
C16 C2 1_555 1_555
H6 C16 1_555 1_555
C17 N1 1_555 1_555
C18 C4 1_555 1_555
H7 C18 1_555 1_555
C19 C20 1_555 1_555
C20 C39 1_555 1_555
C21 C9 1_555 1_555
H8 C21 1_555 1_555
C22 N2 1_555 1_555
C23 C12 1_555 1_555
H9 C23 1_555 1_555
C24 C3 1_555 1_555
H10 C24 1_555 1_555
C26 N2 1_555 1_555
C27 C10 1_555 1_555
H11 C27 1_555 1_555
C28 C13 1_555 1_555
H12 C28 1_555 1_555
C29 C22 1_555 1_555
H13 C29 1_555 1_555
C30 C13 1_555 1_555
H14 C30 1_555 1_555
C31 C17 1_555 1_555
H15 C31 1_555 1_555
C32 C19 1_555 1_555
H16 C32 1_555 1_555
C33 C26 1_555 1_555
H17 C33 1_555 1_555
C34 C17 1_555 1_555
H18 C34 1_555 1_555
C35 C26 1_555 1_555
H19 C35 1_555 1_555
C36 C19 1_555 1_555
H20 C36 1_555 1_555
C37 H21 1_555 1_555
C38 C8 1_555 1_555
H22 C38 1_555 1_555
C39 C38 1_555 1_555
H23 C39 1_555 1_555
C40 C20 1_555 1_555
H24 C40 1_555 1_555
O22 C45 1_555 1_555
O14 C65 1_555 1_555
O26 C45 1_555 1_555
O16 C65 1_555 1_555
N3 C48 1_555 1_555
C42 C44 1_555 1_555
C44 H25 1_555 1_555
C45 C42 1_555 1_555
C48 C77 1_555 1_555
C49 C43 1_555 1_555
C52 N3 1_555 1_555
C53 C65 1_555 1_555
C56 C42 1_555 1_555
H30 C56 1_555 1_555
C57 N3 1_555 1_555
C58 C44 1_555 1_555
H31 C58 1_555 1_555
C59 C60 1_555 1_555
C60 C79 1_555 1_555
C61 C49 1_555 1_555
C62 N4 1_555 1_555
C63 C52 1_555 1_555
H33 C63 1_555 1_555
C64 C43 1_555 1_555
H34 C64 1_555 1_555
C66 N4 1_555 1_555
C68 C53 1_555 1_555
H36 C68 1_555 1_555
C69 C62 1_555 1_555
H37 C69 1_555 1_555
C70 C53 1_555 1_555
H38 C70 1_555 1_555
C71 C57 1_555 1_555
H39 C71 1_555 1_555
C72 C59 1_555 1_555
C74 C57 1_555 1_555
H42 C74 1_555 1_555
C75 C66 1_555 1_555
H43 C75 1_555 1_555
C76 C59 1_555 1_555
H44 C76 1_555 1_555
C77 H45 1_555 1_555
C78 C48 1_555 1_555
H46 C78 1_555 1_555
C79 C78 1_555 1_555
H47 C79 1_555 1_555
C80 C60 1_555 1_555
H48 C80 1_555 1_555
Cd6 O2 1_555 1_555
Cd10 O2 1_555 1_555
Cd11 O14 1_555 1_555
Cd12 O6 1_555 1_555
O3 Cd10 1_555 1_555
O8 Cd12 1_555 1_555
C11 C27 1_555 1_555
C12 C18 1_555 1_555
C14 C15 1_555 1_555
C16 C23 1_555 1_555
C21 C22 1_555 1_555
C24 C29 1_555 1_555
C28 C34 1_555 1_555
C30 C31 1_555 1_555
C32 C33 1_555 1_555
C35 C36 1_555 1_555
C37 C40 1_555 1_555
O16 Cd11 1_555 1_555
C52 C58 1_555 1_555
C56 C63 1_555 1_555
C61 C62 1_555 1_555
C64 C69 1_555 1_555
C68 C74 1_555 1_555
C70 C71 1_555 1_555
C75 C76 1_555 1_555
C77 C80 1_555 1_555
C20_2 C39_2 1_555 1_555
C39_2 C38_2 1_555 1_555
H23_2 C39_2 1_555 1_555
Cd3_2 O12_2 1_555 1_555
O9_2 Cd1_2 1_555 1_555
O10_2 C47_2 1_555 1_555
O11_2 C47_2 1_555 1_555
O12_2 C46_2 1_555 1_555
C41_2 C47_2 1_555 1_555
N4_2 C51_2 1_555 1_555
C43_2 C46_2 1_555 1_555
C46_2 O9_2 1_555 1_555
C49_2 C43_2 1_555 1_555
H26_2 C49_2 1_555 1_555
C50_2 C41_2 1_555 1_555
H27_2 C50_2 1_555 1_555
C51_2 C54_2 1_555 1_555
C54_2 H28_2 1_555 1_555
C55_2 C41_2 1_555 1_555
H29_2 C55_2 1_555 1_555
C61_2 C49_2 1_555 1_555
H32_2 C61_2 1_555 1_555
C62_2 N4_2 1_555 1_555
C64_2 C43_2 1_555 1_555
C66_2 N4_2 1_555 1_555
C67_2 C50_2 1_555 1_555
H35_2 C67_2 1_555 1_555
C69_2 C62_2 1_555 1_555
C72_2 C59_2 1_555 1_555
C73_2 C66_2 1_555 1_555
H41_2 C73_2 1_555 1_555
C75_2 C66_2 1_555 1_555
H43_2 C75_2 1_555 1_555
C76_2 C59_2 1_555 1_555
H44_2 C76_2 1_555 1_555
H48_2 C80_2 1_555 1_555
Cd6_2 O10_2 1_555 1_555
Cd11 O10_2 1_555 1_555
O17_2 Cd1_2 1_555 1_555
O19_2 Cd3_2 1_555 1_555
O22_2 Cd3_2 1_555 1_555
O23_2 Cd3_2 1_555 1_555
O26_2 Cd1_2 1_555 1_555
O27_2 Cd3_2 1_555 1_555
Cd3_2 O17_2 1_555 1_555
Cd3_2 O26_2 1_555 1_555
O11_2 Cd11 1_555 1_555
C51_2 C67_2 1_555 1_555
C54_2 C55_2 1_555 1_555
C61_2 C62_2 1_555 1_555
C64_2 C69_2 1_555 1_555
C72_2 C73_2 1_555 1_555
C75_2 C76_2 1_555 1_555
Cd1_3 O1_2 1_555 1_555
Cd2_2 O4_2 1_555 1_555
O1_2 C6_2 1_555 1_555
O4_2 C6_2 1_555 1_555
C3_2 C6_2 1_555 1_555
C9_2 C3_2 1_555 1_555
H2_2 C9_2 1_555 1_555
C21_2 C9_2 1_555 1_555
C22_2 N2_2 1_555 1_555
C24_2 C3_2 1_555 1_555
C26_2 N2_2 1_555 1_555
C29_2 C22_2 1_555 1_555
C32_2 C19_2 1_555 1_555
C35_2 C26_2 1_555 1_555
H19_2 C35_2 1_555 1_555
C36_2 C19_2 1_555 1_555
H20_2 C36_2 1_555 1_555
H24_2 C40_2 1_555 1_555
C60_2 C79_2 1_555 1_555
C79_2 C78_2 1_555 1_555
H47_2 C79_2 1_555 1_555
O18_2 Cd1_3 1_555 1_555
O20_2 Cd2_2 1_555 1_555
O21_2 Cd2_2 1_555 1_555
O24_2 Cd2_2 1_555 1_555
O25_2 Cd1_3 1_555 1_555
O28_2 Cd2_2 1_555 1_555
Cd2_2 O18_2 1_555 1_555
Cd2_2 O25_2 1_555 1_555
C21_2 C22_2 1_555 1_555
C24_2 C29_2 1_555 1_555
C35_2 C36_2 1_555 1_555
O6_2 C25_2 1_555 1_555
O8_2 C25_2 1_555 1_555
N1_2 C8_2 1_555 1_555
C4_2 H1_2 1_555 1_555
C12_2 N1_2 1_555 1_555
C13_2 C25_2 1_555 1_555
C17_2 N1_2 1_555 1_555
C18_2 C4_2 1_555 1_555
H7_2 C18_2 1_555 1_555
C28_2 C13_2 1_555 1_555
H12_2 C28_2 1_555 1_555
C30_2 C13_2 1_555 1_555
H14_2 C30_2 1_555 1_555
C31_2 C17_2 1_555 1_555
H15_2 C31_2 1_555 1_555
C34_2 C17_2 1_555 1_555
H18_2 C34_2 1_555 1_555
O22_2 C45_2 1_555 1_555
O26_2 C45_2 1_555 1_555
C45_2 C42_2 1_555 1_555
C56_2 C42_2 1_555 1_555
H30_2 C56_2 1_555 1_555
H33_2 C63_2 1_555 1_555
Cd10 O6_2 1_555 1_555
O8_2 Cd10 1_555 1_555
C12_2 C18_2 1_555 1_555
C28_2 C34_2 1_555 1_555
C30_2 C31_2 1_555 1_555
C56_2 C63_2 1_555 1_555
O21_2 C5_2 1_555 1_555
O25_2 C5_2 1_555 1_555
C5_2 C2_2 1_555 1_555
C16_2 C2_2 1_555 1_555
H6_2 C16_2 1_555 1_555
H9_2 C23_2 1_555 1_555
O14_2 C65_2 1_555 1_555
O16_2 C65_2 1_555 1_555
N3_2 C48_2 1_555 1_555
C44_2 H25_2 1_555 1_555
C52_2 N3_2 1_555 1_555
C53_2 C65_2 1_555 1_555
C57_2 N3_2 1_555 1_555
C58_2 C44_2 1_555 1_555
H31_2 C58_2 1_555 1_555
C68_2 C53_2 1_555 1_555
H36_2 C68_2 1_555 1_555
C70_2 C53_2 1_555 1_555
H38_2 C70_2 1_555 1_555
C71_2 C57_2 1_555 1_555
H39_2 C71_2 1_555 1_555
C74_2 C57_2 1_555 1_555
H42_2 C74_2 1_555 1_555
Cd9 O14_2 1_555 1_555
C16_2 C23_2 1_555 1_555
O16_2 Cd9 1_555 1_555
C52_2 C58_2 1_555 1_555
C68_2 C74_2 1_555 1_555
C70_2 C71_2 1_555 1_555
O2_2 C7_2 1_555 1_555
O3_2 C7_2 1_555 1_555
C1_2 C7_2 1_555 1_555
C10_2 C1_2 1_555 1_555
H3_2 C10_2 1_555 1_555
C11_2 C14_2 1_555 1_555
C14_2 H4_2 1_555 1_555
C15_2 C1_2 1_555 1_555
H5_2 C15_2 1_555 1_555
C27_2 C10_2 1_555 1_555
H11_2 C27_2 1_555 1_555
H17_2 C33_2 1_555 1_555
Cd6_3 O2_2 1_555 1_555
Cd12 O2_2 1_555 1_555
O3_2 Cd12 1_555 1_555
C11_2 C27_2 1_555 1_555
C14_2 C15_2 1_555 1_555
O17 C7_3 1_555 1_555
O19 C7_3 1_555 1_555
O5 C5_3 1_555 1_555
O23_2 C25_3 1_555 1_555
O7 C5_3 1_555 1_555
O27_2 C25_3 1_555 1_555
N1_3 C8_3 1_555 1_555
C1_3 C7_3 1_555 1_555
N2_3 C11_3 1_555 1_555
C2_3 C4_3 1_555 1_555
C4_3 H1_3 1_555 1_555
C5_3 C2_3 1_555 1_555
C8_3 C37_3 1_555 1_555
C9_3 C3_3 1_555 1_555
C10_3 C1_3 1_555 1_555
H3_3 C10_3 1_555 1_555
C11_3 C14_3 1_555 1_555
C12_3 N1_3 1_555 1_555
C13_3 C25_3 1_555 1_555
C14_3 H4_3 1_555 1_555
C15_3 C1_3 1_555 1_555
H5_3 C15_3 1_555 1_555
C16_3 C2_3 1_555 1_555
H6_3 C16_3 1_555 1_555
C17_3 N1_3 1_555 1_555
C18_3 C4_3 1_555 1_555
H7_3 C18_3 1_555 1_555
C19_3 C20_3 1_555 1_555
C20_3 C39_3 1_555 1_555
C21_3 C9_3 1_555 1_555
H8_3 C21_3 1_555 1_555
C22_3 N2_3 1_555 1_555
C23_3 C12_3 1_555 1_555
H9_3 C23_3 1_555 1_555
C24_3 C3_3 1_555 1_555
H10_3 C24_3 1_555 1_555
C26_3 N2_3 1_555 1_555
C27_3 C10_3 1_555 1_555
H11_3 C27_3 1_555 1_555
C28_3 C13_3 1_555 1_555
H12_3 C28_3 1_555 1_555
C29_3 C22_3 1_555 1_555
H13_3 C29_3 1_555 1_555
C30_3 C13_3 1_555 1_555
H14_3 C30_3 1_555 1_555
C31_3 C17_3 1_555 1_555
H15_3 C31_3 1_555 1_555
C32_3 C19_3 1_555 1_555
H16_3 C32_3 1_555 1_555
C33_3 C26_3 1_555 1_555
H17_3 C33_3 1_555 1_555
C34_3 C17_3 1_555 1_555
H18_3 C34_3 1_555 1_555
C35_3 C26_3 1_555 1_555
H19_3 C35_3 1_555 1_555
C36_3 C19_3 1_555 1_555
H20_3 C36_3 1_555 1_555
C37_3 H21_3 1_555 1_555
C38_3 C8_3 1_555 1_555
H22_3 C38_3 1_555 1_555
C39_3 C38_3 1_555 1_555
H23_3 C39_3 1_555 1_555
C40_3 C20_3 1_555 1_555
H24_3 C40_3 1_555 1_555
O13 C45_3 1_555 1_555
O24_2 C65_3 1_555 1_555
O15 C45_3 1_555 1_555
O28_2 C65_3 1_555 1_555
N3_3 C48_3 1_555 1_555
C42_3 C44_3 1_555 1_555
C44_3 H25_3 1_555 1_555
C45_3 C42_3 1_555 1_555
C48_3 C77_3 1_555 1_555
C49_3 C43_3 1_555 1_555
C52_3 N3_3 1_555 1_555
C53_3 C65_3 1_555 1_555
C56_3 C42_3 1_555 1_555
H30_3 C56_3 1_555 1_555
C57_3 N3_3 1_555 1_555
C58_3 C44_3 1_555 1_555
H31_3 C58_3 1_555 1_555
C59_3 C60_3 1_555 1_555
C60_3 C79_3 1_555 1_555
C61_3 C49_3 1_555 1_555
C62_3 N4_3 1_555 1_555
C63_3 C52_3 1_555 1_555
H33_3 C63_3 1_555 1_555
C64_3 C43_3 1_555 1_555
H34_3 C64_3 1_555 1_555
C66_3 N4_3 1_555 1_555
C68_3 C53_3 1_555 1_555
H36_3 C68_3 1_555 1_555
C69_3 C62_3 1_555 1_555
H37_3 C69_3 1_555 1_555
C70_3 C53_3 1_555 1_555
H38_3 C70_3 1_555 1_555
C71_3 C57_3 1_555 1_555
H39_3 C71_3 1_555 1_555
C72_3 C59_3 1_555 1_555
C74_3 C57_3 1_555 1_555
H42_3 C74_3 1_555 1_555
C75_3 C66_3 1_555 1_555
H43_3 C75_3 1_555 1_555
C76_3 C59_3 1_555 1_555
H44_3 C76_3 1_555 1_555
C77_3 H45_3 1_555 1_555
C78_3 C48_3 1_555 1_555
H46_3 C78_3 1_555 1_555
C79_3 C78_3 1_555 1_555
H47_3 C79_3 1_555 1_555
C80_3 C60_3 1_555 1_555
H48_3 C80_3 1_555 1_555
Cd6 O7 1_555 1_555
Cd9 O5 1_555 1_555
Cd10 O13 1_555 1_555
O7 Cd9 1_555 1_555
C11_3 C27_3 1_555 1_555
C12_3 C18_3 1_555 1_555
C14_3 C15_3 1_555 1_555
C16_3 C23_3 1_555 1_555
C21_3 C22_3 1_555 1_555
C24_3 C29_3 1_555 1_555
C28_3 C34_3 1_555 1_555
C30_3 C31_3 1_555 1_555
C32_3 C33_3 1_555 1_555
C35_3 C36_3 1_555 1_555
C37_3 C40_3 1_555 1_555
O15 Cd6 1_555 1_555
O15 Cd10 1_555 1_555
C52_3 C58_3 1_555 1_555
C56_3 C63_3 1_555 1_555
C61_3 C62_3 1_555 1_555
C64_3 C69_3 1_555 1_555
C68_3 C74_3 1_555 1_555
C70_3 C71_3 1_555 1_555
C75_3 C76_3 1_555 1_555
C77_3 C80_3 1_555 1_555
Cd6 O1_3 1_555 1_555
Cd9 O4_3 1_555 1_555
O1_3 C6_3 1_555 1_555
O4_3 C6_3 1_555 1_555
Cd10 O12_3 1_555 1_555
O9_3 Cd6 1_555 1_555
O12_3 C46_3 1_555 1_555
C46_3 O9_3 1_555 1_555
O18 C47_3 1_555 1_555
O20 C47_3 1_555 1_555
C41_3 C47_3 1_555 1_555
C50_3 C41_3 1_555 1_555
H27_3 C50_3 1_555 1_555
C51_3 C54_3 1_555 1_555
C54_3 H28_3 1_555 1_555
C55_3 C41_3 1_555 1_555
H29_3 C55_3 1_555 1_555
C67_3 C50_3 1_555 1_555
H35_3 C67_3 1_555 1_555
H41_3 C73_3 1_555 1_555
C51_3 C67_3 1_555 1_555
C54_3 C55_3 1_555 1_555
O17_2 C7_4 1_555 1_555
O19_2 C7_4 1_555 1_555
C1_4 C7_4 1_555 1_555
C10_4 C1_4 1_555 1_555
H3_4 C10_4 1_555 1_555
C11_4 C14_4 1_555 1_555
C14_4 H4_4 1_555 1_555
C15_4 C1_4 1_555 1_555
H5_4 C15_4 1_555 1_555
C27_4 C10_4 1_555 1_555
H11_4 C27_4 1_555 1_555
H17_4 C33_4 1_555 1_555
C11_4 C27_4 1_555 1_555
C14_4 C15_4 1_555 1_555
O5_2 C5_4 1_555 1_555
O7_2 C5_4 1_555 1_555
C5_4 C2_4 1_555 1_555
C16_4 C2_4 1_555 1_555
H6_4 C16_4 1_555 1_555
H9_4 C23_4 1_555 1_555
O24 C65_4 1_555 1_555
O28 C65_4 1_555 1_555
N3_4 C48_4 1_555 1_555
C44_4 H25_4 1_555 1_555
C52_4 N3_4 1_555 1_555
C53_4 C65_4 1_555 1_555
C57_4 N3_4 1_555 1_555
C58_4 C44_4 1_555 1_555
H31_4 C58_4 1_555 1_555
C68_4 C53_4 1_555 1_555
H36_4 C68_4 1_555 1_555
C70_4 C53_4 1_555 1_555
H38_4 C70_4 1_555 1_555
C71_4 C57_4 1_555 1_555
H39_4 C71_4 1_555 1_555
C74_4 C57_4 1_555 1_555
H42_4 C74_4 1_555 1_555
Cd6_2 O7_2 1_555 1_555
Cd11 O5_2 1_555 1_555
O7_2 Cd11 1_555 1_555
C16_4 C23_4 1_555 1_555
C52_4 C58_4 1_555 1_555
C68_4 C74_4 1_555 1_555
C70_4 C71_4 1_555 1_555
O23 C25_4 1_555 1_555
O27 C25_4 1_555 1_555
N1_4 C8_4 1_555 1_555
C4_4 H1_4 1_555 1_555
C12_4 N1_4 1_555 1_555
C13_4 C25_4 1_555 1_555
C17_4 N1_4 1_555 1_555
C18_4 C4_4 1_555 1_555
H7_4 C18_4 1_555 1_555
C28_4 C13_4 1_555 1_555
H12_4 C28_4 1_555 1_555
C30_4 C13_4 1_555 1_555
H14_4 C30_4 1_555 1_555
C31_4 C17_4 1_555 1_555
H15_4 C31_4 1_555 1_555
C34_4 C17_4 1_555 1_555
H18_4 C34_4 1_555 1_555
O13_2 C45_4 1_555 1_555
O15_2 C45_4 1_555 1_555
C45_4 C42_4 1_555 1_555
C56_4 C42_4 1_555 1_555
H30_4 C56_4 1_555 1_555
H33_4 C63_4 1_555 1_555
Cd12 O13_2 1_555 1_555
C12_4 C18_4 1_555 1_555
C28_4 C34_4 1_555 1_555
C30_4 C31_4 1_555 1_555
O15_2 Cd6_3 1_555 1_555
O15_2 Cd12 1_555 1_555
C56_4 C63_4 1_555 1_555
Cd6_2 O1_4 1_555 1_555
Cd11 O4_4 1_555 1_555
O1_4 C6_4 1_555 1_555
O4_4 C6_4 1_555 1_555
C3_4 C6_4 1_555 1_555
C9_4 C3_4 1_555 1_555
H2_4 C9_4 1_555 1_555
C21_4 C9_4 1_555 1_555
C22_4 N2_4 1_555 1_555
C24_4 C3_4 1_555 1_555
C26_4 N2_4 1_555 1_555
C29_4 C22_4 1_555 1_555
C32_4 C19_4 1_555 1_555
C35_4 C26_4 1_555 1_555
H19_4 C35_4 1_555 1_555
C36_4 C19_4 1_555 1_555
H20_4 C36_4 1_555 1_555
H24_4 C40_4 1_555 1_555
C60_4 C79_4 1_555 1_555
C79_4 C78_4 1_555 1_555
H47_4 C79_4 1_555 1_555
C21_4 C22_4 1_555 1_555
C24_4 C29_4 1_555 1_555
C35_4 C36_4 1_555 1_555
C20_4 C39_4 1_555 1_555
C39_4 C38_4 1_555 1_555
H23_4 C39_4 1_555 1_555
Cd12 O12_4 1_555 1_555
O9_4 Cd6_3 1_555 1_555
O18_2 C47_4 1_555 1_555
O20_2 C47_4 1_555 1_555
O12_4 C46_4 1_555 1_555
C41_4 C47_4 1_555 1_555
N4_4 C51_4 1_555 1_555
C43_4 C46_4 1_555 1_555
C46_4 O9_4 1_555 1_555
C49_4 C43_4 1_555 1_555
H26_4 C49_4 1_555 1_555
C50_4 C41_4 1_555 1_555
H27_4 C50_4 1_555 1_555
C51_4 C54_4 1_555 1_555
C54_4 H28_4 1_555 1_555
C55_4 C41_4 1_555 1_555
H29_4 C55_4 1_555 1_555
C61_4 C49_4 1_555 1_555
H32_4 C61_4 1_555 1_555
C62_4 N4_4 1_555 1_555
C64_4 C43_4 1_555 1_555
C66_4 N4_4 1_555 1_555
C67_4 C50_4 1_555 1_555
H35_4 C67_4 1_555 1_555
C69_4 C62_4 1_555 1_555
C72_4 C59_4 1_555 1_555
C73_4 C66_4 1_555 1_555
H41_4 C73_4 1_555 1_555
C75_4 C66_4 1_555 1_555
H43_4 C75_4 1_555 1_555
C76_4 C59_4 1_555 1_555
H44_4 C76_4 1_555 1_555
H48_4 C80_4 1_555 1_555
C51_4 C67_4 1_555 1_555
C54_4 C55_4 1_555 1_555
C61_4 C62_4 1_555 1_555
C64_4 C69_4 1_555 1_555
C72_4 C73_4 1_555 1_555
C75_4 C76_4 1_555 1_555

#END
