
###############################################################################
#
# This file contains modified crystal structure data generated from the
# MOF subset of the Cambridge Structural Database (CSD) v543 
# hosted by the Cambridge Crystallographic Data Centre (CCDC).
#
# This work is licensed under the Creative Commons
# Attribution-NonCommercial-ShareAlike 4.0 International License.
# To view a copy of this license, visit
# http://creativecommons.org/licenses/by-nc-sa/4.0/
# or send a letter to
# Creative Commons, PO Box 1866, Mountain View, CA 94042, USA.
#
# CIF created using the CSD Python API on 29 September 2022
# The structure has been converted into the P1 space group
# The structure has a 3D framework
# The original CSD entry YALTOY is in the tetragonal crystal system
# The framework has been calculated to contain at least 10.0% void space
# The void calculation uses a probe of radius 1.32A, grid spacing 0.4
#
###############################################################################

data_YALTOY
_chemical_formula_moiety         '(C216 H144 N24 O74 Zn6)n'
_symmetry_cell_setting           triclinic
_symmetry_space_group_name_H-M   'P 1'
_symmetry_Int_Tables_number      1
_space_group_name_Hall           'P 1'
loop_
_symmetry_equiv_pos_site_id
_symmetry_equiv_pos_as_xyz
1 x,y,z
_cell_length_a                   15.3689(2)
_cell_length_b                   15.3689(2)
_cell_length_c                   28.1065(6)
_cell_angle_alpha                90
_cell_angle_beta                 90
_cell_angle_gamma                90
_cell_volume                     6638.84
loop_
_atom_site_label
_atom_site_type_symbol
_atom_site_fract_x
_atom_site_fract_y
_atom_site_fract_z
Zn1 Zn 0.250000 0.250000 0.55220(2)
O1 O 0.35111(10) 0.16882(10) 0.54040(5)
O2 O 0.33230(10) 0.14994(10) 0.46227(5)
O3 O 0.63092(11) 0.00455(13) 0.43327(6)
O4 O 0.61536(16) 0.02316(17) 0.23912(7)
O5 O 0.56460(12) 0.09073(13) 0.30072(6)
N1 N 0.250000 0.250000 0.62449(7)
N2 N 0.62059(14) 0.04681(14) 0.28090(7)
C1 C 0.36690(12) 0.13238(12) 0.50138(7)
C2 C 0.43459(12) 0.06249(12) 0.50090(7)
C3 C 0.49709(14) 0.06386(14) 0.46538(7)
H1 H 0.494841 0.107371 0.441405
C4 C 0.56281(14) 0.00226(15) 0.46458(7)
C5 C 0.61557(15) 0.03813(15) 0.38722(7)
H2 H 0.607964 0.102056 0.388501
H3 H 0.562395 0.011997 0.373405
C6 C 0.69420(14) 0.01493(13) 0.35765(7)
H7 H 0.770280 0.004506 0.248156
C11 C 0.69706(15) 0.02028(14) 0.30803(7)
C12 C 0.31539(12) 0.21360(12) 0.64893(6)
H8 H 0.361899 0.187612 0.631794
C13 C 0.31790(13) 0.21234(13) 0.69820(6)
H9 H 0.365385 0.186089 0.714399
C14 C 0.250000 0.250000 0.72366(8)
C21 C 0.23102(14) 0.01541(14) 0.62012(8)
H13 H 0.230176 0.020833 0.586455
C22 C 0.15757(15) 0.03795(16) 0.64598(9)
H14 H 0.107718 0.059626 0.629889
C23 C 0.15612(16) 0.02921(16) 0.69493(8)
H15 H 0.104899 0.042779 0.712340
C24 C 0.22940(15) 0.00074(16) 0.71817(8)
C26 C 0.18461(12) 0.28640(12) 0.64893(6)
H17 H 0.138101 0.312388 0.631794
C27 C 0.18210(13) 0.28766(13) 0.69820(6)
H18 H 0.134615 0.313911 0.714399
N4 N 0.250000 0.250000 0.87551(7)
C28 C 0.21360(12) 0.31539(12) 0.85107(6)
H19 H 0.187612 0.361899 0.868206
C29 C 0.21234(13) 0.31790(13) 0.80180(6)
H20 H 0.186089 0.365385 0.785601
C30 C 0.250000 0.250000 0.77634(8)
C31 C 0.28640(12) 0.18461(12) 0.85107(6)
H21 H 0.312388 0.138101 0.868206
C32 C 0.28766(13) 0.18210(13) 0.80180(6)
H22 H 0.313911 0.134615 0.785601
O11 O 0.14889(10) 0.33118(10) 0.54040(5)
O12 O 0.16770(10) 0.35006(10) 0.46227(5)
C33 C 0.13310(12) 0.36762(12) 0.50138(7)
C34 C 0.06541(12) 0.43751(12) 0.50090(7)
C35 C 0.00291(14) 0.43614(14) 0.46538(7)
H23 H 0.005159 0.392629 0.441405
O18 O 0.13092(11) 0.50455(13) 0.56673(6)
O19 O 0.11536(16) 0.52316(17) 0.76088(7)
O20 O 0.06460(12) 0.59073(13) 0.69928(6)
N6 N 0.12059(14) 0.54681(14) 0.71910(7)
C47 C 0.06281(14) 0.50226(15) 0.53542(7)
C48 C 0.11557(15) 0.53813(15) 0.61278(7)
H31 H 0.107964 0.602056 0.611499
H32 H 0.062395 0.511997 0.626595
C49 C 0.19420(14) 0.51493(13) 0.64235(7)
C50 C 0.26898(14) 0.48459(14) 0.62012(8)
H33 H 0.269824 0.479167 0.586455
C51 C 0.34243(15) 0.46205(16) 0.64598(9)
H34 H 0.392282 0.440374 0.629889
C52 C 0.34388(16) 0.47079(16) 0.69493(8)
H35 H 0.395101 0.457221 0.712340
C53 C 0.27060(15) 0.49926(16) 0.71817(8)
H36 H 0.270280 0.504506 0.751844
C54 C 0.19706(15) 0.52028(14) 0.69197(7)
Zn2 Zn 0.250000 0.250000 0.44780(2)
Zn3 Zn 0.250000 0.250000 0.94780(2)
O21 O 0.14889(10) 0.16882(10) 0.45960(5)
O22 O 0.35111(10) 0.33118(10) 0.45960(5)
O23 O 0.16770(10) 0.14994(10) 0.53773(5)
O24 O 0.33230(10) 0.35006(10) 0.53773(5)
N7 N 0.250000 0.250000 0.37551(7)
C7 C 0.76898(14) 0.98459(14) 0.37988(8)
H4 H 0.769824 0.979167 0.413545
C8 C 0.84243(15) 0.96205(16) 0.35402(9)
H5 H 0.892282 0.940374 0.370111
C9 C 0.84388(16) 0.97079(16) 0.30507(8)
H6 H 0.895101 0.957221 0.287660
C10 C 0.77060(15) 0.99926(16) 0.28183(8)
O6 O 0.64889(10) 0.83118(10) 0.45960(5)
O7 O 0.66770(10) 0.85006(10) 0.53773(5)
O8 O 0.36908(11) 0.99545(13) 0.56673(6)
O9 O 0.38464(16) 0.97684(17) 0.76088(7)
O10 O 0.43540(12) 0.90927(13) 0.69928(6)
N3 N 0.37941(14) 0.95319(14) 0.71910(7)
C15 C 0.63310(12) 0.86762(12) 0.49862(7)
C16 C 0.56541(12) 0.93751(12) 0.49910(7)
C17 C 0.50291(14) 0.93614(14) 0.53462(7)
H10 H 0.505159 0.892629 0.558595
C18 C 0.43719(14) 0.99774(15) 0.53542(7)
C19 C 0.38443(15) 0.96187(15) 0.61278(7)
H11 H 0.392036 0.897944 0.611499
H12 H 0.437605 0.988003 0.626595
C20 C 0.30580(14) 0.98507(13) 0.64235(7)
H16 H 0.229720 0.995494 0.751844
C25 C 0.30294(15) 0.97972(14) 0.69197(7)
Zn5 Zn 0.750000 0.750000 0.44780(2)
Zn7 Zn 0.750000 0.750000 0.55220(2)
O13 O 0.86908(11) 0.49545(13) 0.43327(6)
O14 O 0.88464(16) 0.47684(17) 0.23912(7)
O15 O 0.93540(12) 0.40927(13) 0.30072(6)
N5 N 0.87941(14) 0.45319(14) 0.28090(7)
C36 C 0.93719(14) 0.49774(15) 0.46458(7)
C37 C 0.88443(15) 0.46187(15) 0.38722(7)
H24 H 0.892036 0.397944 0.388501
H25 H 0.937605 0.488003 0.373405
C38 C 0.80580(14) 0.48507(13) 0.35765(7)
C39 C 0.73102(14) 0.51541(14) 0.37988(8)
H26 H 0.730176 0.520833 0.413545
C40 C 0.65757(15) 0.53795(16) 0.35402(9)
H27 H 0.607718 0.559626 0.370111
C41 C 0.65612(16) 0.52921(16) 0.30507(8)
H28 H 0.604899 0.542779 0.287660
C42 C 0.72940(15) 0.50074(16) 0.28183(8)
H29 H 0.729720 0.495494 0.248156
C43 C 0.80294(15) 0.47972(14) 0.30803(7)
O16 O 0.85111(10) 0.66882(10) 0.45960(5)
O17 O 0.83230(10) 0.64994(10) 0.53773(5)
C44 C 0.86690(12) 0.63238(12) 0.49862(7)
C45 C 0.93459(12) 0.56249(12) 0.49910(7)
C46 C 0.99709(14) 0.56386(14) 0.53462(7)
H30 H 0.994841 0.607371 0.558595
Zn1_2 Zn 0.250000 0.250000 0.05220(2)
O1_2 O 0.33118(10) 0.35111(10) 0.04040(5)
N1_2 N 0.250000 0.250000 0.12449(7)
C1_2 C 0.36762(12) 0.36690(12) 0.00138(7)
C2_2 C 0.43751(12) 0.43459(12) 0.00090(7)
C12_2 C 0.28640(12) 0.31539(12) 0.14893(6)
H8_2 H 0.312388 0.361899 0.131794
C13_2 C 0.28766(13) 0.31790(13) 0.19820(6)
H9_2 H 0.313911 0.365385 0.214399
C14_2 C 0.250000 0.250000 0.22366(8)
O7_2 O 0.64994(10) 0.66770(10) 0.03773(5)
O8_2 O 0.50455(13) 0.36908(11) 0.06673(6)
O9_2 O 0.52316(17) 0.38464(16) 0.26088(7)
O10_2 O 0.59073(13) 0.43540(12) 0.19928(6)
N3_2 N 0.54681(14) 0.37941(14) 0.21910(7)
C17_2 C 0.56386(14) 0.50291(14) 0.03462(7)
H10_2 H 0.607371 0.505159 0.058595
C18_2 C 0.50226(15) 0.43719(14) 0.03542(7)
C19_2 C 0.53813(15) 0.38443(15) 0.11278(7)
H11_2 H 0.602056 0.392036 0.111499
H12_2 H 0.511997 0.437605 0.126595
C20_2 C 0.51493(13) 0.30580(14) 0.14235(7)
C21_2 C 0.48459(14) 0.23102(14) 0.12012(8)
H13_2 H 0.479167 0.230176 0.086455
C22_2 C 0.46205(16) 0.15757(15) 0.14598(9)
H14_2 H 0.440374 0.107718 0.129889
C23_2 C 0.47079(16) 0.15612(16) 0.19493(8)
H15_2 H 0.457221 0.104899 0.212340
C24_2 C 0.49926(16) 0.22940(15) 0.21817(8)
H16_2 H 0.504506 0.229720 0.251844
C25_2 C 0.52028(14) 0.30294(15) 0.19197(7)
C26_2 C 0.21360(12) 0.18461(12) 0.14893(6)
H17_2 H 0.187612 0.138101 0.131794
C27_2 C 0.21234(13) 0.18210(13) 0.19820(6)
H18_2 H 0.186089 0.134615 0.214399
C28_2 C 0.18461(12) 0.21360(12) 0.35107(6)
H19_2 H 0.138101 0.187612 0.368206
C29_2 C 0.18210(13) 0.21234(13) 0.30180(6)
H20_2 H 0.134615 0.186089 0.285601
C30_2 C 0.250000 0.250000 0.27634(8)
C31_2 C 0.31539(12) 0.28640(12) 0.35107(6)
H21_2 H 0.361899 0.312388 0.368206
C32_2 C 0.31790(13) 0.28766(13) 0.30180(6)
H22_2 H 0.365385 0.313911 0.285601
O11_2 O 0.16882(10) 0.14889(10) 0.04040(5)
C33_2 C 0.13238(12) 0.13310(12) 0.00138(7)
C34_2 C 0.06249(12) 0.06541(12) 0.00090(7)
C50_2 C 0.01541(14) 0.26898(14) 0.12012(8)
H33_2 H 0.020833 0.269824 0.086455
C51_2 C 0.03795(16) 0.34243(15) 0.14598(9)
H34_2 H 0.059626 0.392282 0.129889
C52_2 C 0.02921(16) 0.34388(16) 0.19493(8)
H35_2 H 0.042779 0.395101 0.212340
C53_2 C 0.00074(16) 0.27060(15) 0.21817(8)
Zn7_2 Zn 0.750000 0.750000 0.05220(2)
O23_2 O 0.35006(10) 0.16770(10) 0.03773(5)
O24_2 O 0.14994(10) 0.33230(10) 0.03773(5)
O2_2 O 0.35006(10) 0.33230(10) 0.96227(5)
O3_2 O 0.49545(13) 0.63092(11) 0.93327(6)
O4_2 O 0.47684(17) 0.61536(16) 0.73912(7)
O5_2 O 0.40927(13) 0.56460(12) 0.80072(6)
N2_2 N 0.45319(14) 0.62059(14) 0.78090(7)
C3_2 C 0.43614(14) 0.49709(14) 0.96538(7)
H1_2 H 0.392629 0.494841 0.941405
C4_2 C 0.49774(15) 0.56281(14) 0.96458(7)
C5_2 C 0.46187(15) 0.61557(15) 0.88722(7)
H2_2 H 0.397944 0.607964 0.888501
H3_2 H 0.488003 0.562395 0.873405
C6_2 C 0.48507(13) 0.69420(14) 0.85765(7)
C7_2 C 0.51541(14) 0.76898(14) 0.87988(8)
H4_2 H 0.520833 0.769824 0.913545
C8_2 C 0.53795(16) 0.84243(15) 0.85402(9)
H5_2 H 0.559626 0.892282 0.870111
C9_2 C 0.52921(16) 0.84388(16) 0.80507(8)
H6_2 H 0.542779 0.895101 0.787660
C10_2 C 0.50074(16) 0.77060(15) 0.78183(8)
H7_2 H 0.495494 0.770280 0.748156
C11_2 C 0.47972(14) 0.69706(15) 0.80803(7)
O6_2 O 0.66882(10) 0.64889(10) 0.95960(5)
C15_2 C 0.63238(12) 0.63310(12) 0.99862(7)
C16_2 C 0.56249(12) 0.56541(12) 0.99910(7)
O12_2 O 0.14994(10) 0.16770(10) 0.96227(5)
C35_2 C 0.06386(14) 0.00291(14) 0.96538(7)
H23_2 H 0.107371 0.005159 0.941405
Zn5_2 Zn 0.750000 0.750000 0.94780(2)
O21_2 O 0.33118(10) 0.14889(10) 0.95960(5)
O22_2 O 0.16882(10) 0.35111(10) 0.95960(5)
O17_2 O 0.85006(10) 0.83230(10) 0.03773(5)
C46_2 C 0.93614(14) 0.99709(14) 0.03462(7)
H30_2 H 0.892629 0.994841 0.058595
C39_2 C 0.98459(14) 0.73102(14) 0.87988(8)
H26_2 H 0.979167 0.730176 0.913545
C40_2 C 0.96205(16) 0.65757(15) 0.85402(9)
H27_2 H 0.940374 0.607718 0.870111
C41_2 C 0.97079(16) 0.65612(16) 0.80507(8)
H28_2 H 0.957221 0.604899 0.787660
C42_2 C 0.99926(16) 0.72940(15) 0.78183(8)
O16_2 O 0.83118(10) 0.85111(10) 0.95960(5)
C44_2 C 0.86762(12) 0.86690(12) 0.99862(7)
C45_2 C 0.93751(12) 0.93459(12) 0.99910(7)
C1_3 C 0.13310(12) 0.13238(12) 0.49862(7)
C2_3 C 0.06541(12) 0.06249(12) 0.49910(7)
C3_3 C 0.00291(14) 0.06386(14) 0.53462(7)
H1_3 H 0.005159 0.107371 0.558595
C21_3 C 0.26898(14) 0.01541(14) 0.37988(8)
H13_3 H 0.269824 0.020833 0.413545
C22_3 C 0.34243(15) 0.03795(16) 0.35402(9)
H14_3 H 0.392282 0.059626 0.370111
C23_3 C 0.34388(16) 0.02921(16) 0.30507(8)
H15_3 H 0.395101 0.042779 0.287660
C24_3 C 0.27060(15) 0.00074(16) 0.28183(8)
O13_2 O 0.63092(11) 0.49545(13) 0.56673(6)
O14_2 O 0.61536(16) 0.47684(17) 0.76088(7)
O15_2 O 0.56460(12) 0.40927(13) 0.69928(6)
N5_2 N 0.62059(14) 0.45319(14) 0.71910(7)
C33_3 C 0.36690(12) 0.36762(12) 0.49862(7)
C34_3 C 0.43459(12) 0.43751(12) 0.49910(7)
C35_3 C 0.49709(14) 0.43614(14) 0.53462(7)
H23_3 H 0.494841 0.392629 0.558595
C36_2 C 0.56281(14) 0.49774(15) 0.53542(7)
C37_2 C 0.61557(15) 0.46187(15) 0.61278(7)
H24_2 H 0.607964 0.397944 0.611499
H25_2 H 0.562395 0.488003 0.626595
C38_2 C 0.69420(14) 0.48507(13) 0.64235(7)
C39_3 C 0.76898(14) 0.51541(14) 0.62012(8)
H26_3 H 0.769824 0.520833 0.586455
C40_3 C 0.84243(15) 0.53795(16) 0.64598(9)
H27_3 H 0.892282 0.559626 0.629889
C41_3 C 0.84388(16) 0.52921(16) 0.69493(8)
H28_3 H 0.895101 0.542779 0.712340
C42_3 C 0.77060(15) 0.50074(16) 0.71817(8)
H29_2 H 0.770280 0.495494 0.751844
C43_2 C 0.69706(15) 0.47972(14) 0.69197(7)
O16_3 O 0.64889(10) 0.66882(10) 0.54040(5)
O17_3 O 0.66770(10) 0.64994(10) 0.46227(5)
O18_2 O 0.36908(11) 0.50455(13) 0.43327(6)
O19_2 O 0.38464(16) 0.52316(17) 0.23912(7)
O20_2 O 0.43540(12) 0.59073(13) 0.30072(6)
N6_2 N 0.37941(14) 0.54681(14) 0.28090(7)
C44_3 C 0.63310(12) 0.63238(12) 0.50138(7)
C45_3 C 0.56541(12) 0.56249(12) 0.50090(7)
C46_3 C 0.50291(14) 0.56386(14) 0.46538(7)
H30_3 H 0.505159 0.607371 0.441405
C47_2 C 0.43719(14) 0.50226(15) 0.46458(7)
C48_2 C 0.38443(15) 0.53813(15) 0.38722(7)
H31_2 H 0.392036 0.602056 0.388501
H32_2 H 0.437605 0.511997 0.373405
C49_2 C 0.30580(14) 0.51493(13) 0.35765(7)
C50_3 C 0.23102(14) 0.48459(14) 0.37988(8)
H33_3 H 0.230176 0.479167 0.413545
C51_3 C 0.15757(15) 0.46205(16) 0.35402(9)
H34_3 H 0.107718 0.440374 0.370111
C52_3 C 0.15612(16) 0.47079(16) 0.30507(8)
H35_3 H 0.104899 0.457221 0.287660
C53_3 C 0.22940(15) 0.49926(16) 0.28183(8)
H36_2 H 0.229720 0.504506 0.248156
C54_2 C 0.30294(15) 0.52028(14) 0.30803(7)
C7_3 C 0.73102(14) 0.98459(14) 0.62012(8)
H4_3 H 0.730176 0.979167 0.586455
C8_3 C 0.65757(15) 0.96205(16) 0.64598(9)
H5_3 H 0.607718 0.940374 0.629889
C9_3 C 0.65612(16) 0.97079(16) 0.69493(8)
H6_3 H 0.604899 0.957221 0.712340
C10_3 C 0.72940(15) 0.99926(16) 0.71817(8)
O6_3 O 0.85111(10) 0.83118(10) 0.54040(5)
O7_3 O 0.83230(10) 0.85006(10) 0.46227(5)
C15_3 C 0.86690(12) 0.86762(12) 0.50138(7)
C16_3 C 0.93459(12) 0.93751(12) 0.50090(7)
C17_3 C 0.99709(14) 0.93614(14) 0.46538(7)
H10_3 H 0.994841 0.892629 0.441405
O3_3 O 0.00455(13) 0.63092(11) 0.06673(6)
O4_3 O 0.02316(17) 0.61536(16) 0.26088(7)
O5_3 O 0.09073(13) 0.56460(12) 0.19928(6)
N2_3 N 0.04681(14) 0.62059(14) 0.21910(7)
C3_4 C 0.06386(14) 0.49709(14) 0.03462(7)
H1_4 H 0.107371 0.494841 0.058595
C4_3 C 0.00226(15) 0.56281(14) 0.03542(7)
C5_3 C 0.03813(15) 0.61557(15) 0.11278(7)
H2_3 H 0.102056 0.607964 0.111499
H3_3 H 0.011997 0.562395 0.126595
C6_3 C 0.01493(13) 0.69420(14) 0.14235(7)
H7_3 H 0.004506 0.770280 0.251844
C11_3 C 0.02028(14) 0.69706(15) 0.19197(7)
C35_4 C 0.43614(14) 0.00291(14) 0.03462(7)
H23_4 H 0.392629 0.005159 0.058595
C1_4 C 0.13238(12) 0.36690(12) 0.99862(7)
C2_4 C 0.06249(12) 0.43459(12) 0.99910(7)
C21_4 C 0.01541(14) 0.23102(14) 0.87988(8)
H13_4 H 0.020833 0.230176 0.913545
C22_4 C 0.03795(16) 0.15757(15) 0.85402(9)
H14_4 H 0.059626 0.107718 0.870111
C23_4 C 0.02921(16) 0.15612(16) 0.80507(8)
H15_4 H 0.042779 0.104899 0.787660
C24_4 C 0.00074(16) 0.22940(15) 0.78183(8)
C33_4 C 0.36762(12) 0.13310(12) 0.99862(7)
C34_4 C 0.43751(12) 0.06541(12) 0.99910(7)
O18_3 O 0.50455(13) 0.13092(11) 0.93327(6)
O19_3 O 0.52316(17) 0.11536(16) 0.73912(7)
O20_3 O 0.59073(13) 0.06460(12) 0.80072(6)
N6_3 N 0.54681(14) 0.12059(14) 0.78090(7)
C47_3 C 0.50226(15) 0.06281(14) 0.96458(7)
C48_3 C 0.53813(15) 0.11557(15) 0.88722(7)
H31_3 H 0.602056 0.107964 0.888501
H32_3 H 0.511997 0.062395 0.873405
C49_3 C 0.51493(13) 0.19420(14) 0.85765(7)
C50_4 C 0.48459(14) 0.26898(14) 0.87988(8)
H33_4 H 0.479167 0.269824 0.913545
C51_4 C 0.46205(16) 0.34243(15) 0.85402(9)
H34_4 H 0.440374 0.392282 0.870111
C52_4 C 0.47079(16) 0.34388(16) 0.80507(8)
H35_4 H 0.457221 0.395101 0.787660
C53_4 C 0.49926(16) 0.27060(15) 0.78183(8)
H36_3 H 0.504506 0.270280 0.748156
C54_3 C 0.52028(14) 0.19706(15) 0.80803(7)
O13_3 O 0.49545(13) 0.86908(11) 0.06673(6)
O14_3 O 0.47684(17) 0.88464(16) 0.26088(7)
O15_3 O 0.40927(13) 0.93540(12) 0.19928(6)
N5_3 N 0.45319(14) 0.87941(14) 0.21910(7)
C36_3 C 0.49774(15) 0.93719(14) 0.03542(7)
C37_3 C 0.46187(15) 0.88443(15) 0.11278(7)
H24_3 H 0.397944 0.892036 0.111499
H25_3 H 0.488003 0.937605 0.126595
C38_3 C 0.48507(13) 0.80580(14) 0.14235(7)
C39_4 C 0.51541(14) 0.73102(14) 0.12012(8)
H26_4 H 0.520833 0.730176 0.086455
C40_4 C 0.53795(16) 0.65757(15) 0.14598(9)
H27_4 H 0.559626 0.607718 0.129889
C41_4 C 0.52921(16) 0.65612(16) 0.19493(8)
H28_4 H 0.542779 0.604899 0.212340
C42_4 C 0.50074(16) 0.72940(15) 0.21817(8)
H29_3 H 0.495494 0.729720 0.251844
C43_3 C 0.47972(14) 0.80294(15) 0.19197(7)
O16_4 O 0.66882(10) 0.85111(10) 0.04040(5)
C44_4 C 0.63238(12) 0.86690(12) 0.00138(7)
C45_4 C 0.56249(12) 0.93459(12) 0.00090(7)
O17_4 O 0.64994(10) 0.83230(10) 0.96227(5)
C46_4 C 0.56386(14) 0.99709(14) 0.96538(7)
H30_4 H 0.607371 0.994841 0.941405
C7_4 C 0.98459(14) 0.76898(14) 0.12012(8)
H4_4 H 0.979167 0.769824 0.086455
C8_4 C 0.96205(16) 0.84243(15) 0.14598(9)
H5_4 H 0.940374 0.892282 0.129889
C9_4 C 0.97079(16) 0.84388(16) 0.19493(8)
H6_4 H 0.957221 0.895101 0.212340
C10_4 C 0.99926(16) 0.77060(15) 0.21817(8)
O6_4 O 0.83118(10) 0.64889(10) 0.04040(5)
C15_4 C 0.86762(12) 0.63310(12) 0.00138(7)
C16_4 C 0.93751(12) 0.56541(12) 0.00090(7)
O7_4 O 0.85006(10) 0.66770(10) 0.96227(5)
O8_3 O 0.99545(13) 0.36908(11) 0.93327(6)
O9_3 O 0.97684(17) 0.38464(16) 0.73912(7)
O10_3 O 0.90927(13) 0.43540(12) 0.80072(6)
N3_3 N 0.95319(14) 0.37941(14) 0.78090(7)
C17_4 C 0.93614(14) 0.50291(14) 0.96538(7)
H10_4 H 0.892629 0.505159 0.941405
C18_3 C 0.99774(15) 0.43719(14) 0.96458(7)
C19_3 C 0.96187(15) 0.38443(15) 0.88722(7)
H11_3 H 0.897944 0.392036 0.888501
H12_3 H 0.988003 0.437605 0.873405
C20_3 C 0.98507(13) 0.30580(14) 0.85765(7)
H16_3 H 0.995494 0.229720 0.748156
C25_3 C 0.97972(14) 0.30294(15) 0.80803(7)
N1_3 N 0.750000 0.750000 0.37551(7)
C12_3 C 0.68461(12) 0.78640(12) 0.35107(6)
H8_3 H 0.638101 0.812388 0.368206
C13_3 C 0.68210(13) 0.78766(13) 0.30180(6)
H9_3 H 0.634615 0.813911 0.285601
C14_3 C 0.750000 0.750000 0.27634(8)
C26_3 C 0.81539(12) 0.71360(12) 0.35107(6)
H17_3 H 0.861899 0.687612 0.368206
C27_3 C 0.81790(13) 0.71234(13) 0.30180(6)
H18_3 H 0.865385 0.686089 0.285601
N4_2 N 0.750000 0.750000 0.12449(7)
C28_3 C 0.78640(12) 0.68461(12) 0.14893(6)
H19_3 H 0.812388 0.638101 0.131794
C29_3 C 0.78766(13) 0.68210(13) 0.19820(6)
H20_3 H 0.813911 0.634615 0.214399
C30_3 C 0.750000 0.750000 0.22366(8)
C31_3 C 0.71360(12) 0.81539(12) 0.14893(6)
H21_3 H 0.687612 0.861899 0.131794
C32_3 C 0.71234(13) 0.81790(13) 0.19820(6)
H22_3 H 0.686089 0.865385 0.214399
N7_2 N 0.750000 0.750000 0.62449(7)
N1_4 N 0.750000 0.750000 0.87551(7)
C12_4 C 0.71360(12) 0.68461(12) 0.85107(6)
H8_4 H 0.687612 0.638101 0.868206
C13_4 C 0.71234(13) 0.68210(13) 0.80180(6)
H9_4 H 0.686089 0.634615 0.785601
C14_4 C 0.750000 0.750000 0.77634(8)
C26_4 C 0.78640(12) 0.81539(12) 0.85107(6)
H17_4 H 0.812388 0.861899 0.868206
C27_4 C 0.78766(13) 0.81790(13) 0.80180(6)
H18_4 H 0.813911 0.865385 0.785601
C28_4 C 0.81539(12) 0.78640(12) 0.64893(6)
H19_4 H 0.861899 0.812388 0.631794
C29_4 C 0.81790(13) 0.78766(13) 0.69820(6)
H20_4 H 0.865385 0.813911 0.714399
C30_4 C 0.750000 0.750000 0.72366(8)
C31_4 C 0.68461(12) 0.71360(12) 0.64893(6)
H21_4 H 0.638101 0.687612 0.631794
C32_4 C 0.68210(13) 0.71234(13) 0.69820(6)
H22_4 H 0.634615 0.686089 0.714399
O13_4 O 0.00455(13) 0.86908(11) 0.93327(6)
O14_4 O 0.02316(17) 0.88464(16) 0.73912(7)
O15_4 O 0.09073(13) 0.93540(12) 0.80072(6)
N5_4 N 0.04681(14) 0.87941(14) 0.78090(7)
C36_4 C 0.00226(15) 0.93719(14) 0.96458(7)
C37_4 C 0.03813(15) 0.88443(15) 0.88722(7)
H24_4 H 0.102056 0.892036 0.888501
H25_4 H 0.011997 0.937605 0.873405
C38_4 C 0.01493(13) 0.80580(14) 0.85765(7)
H29_4 H 0.004506 0.729720 0.748156
C43_4 C 0.02028(14) 0.80294(15) 0.80803(7)
O18_4 O 0.99545(13) 0.13092(11) 0.06673(6)
O19_4 O 0.97684(17) 0.11536(16) 0.26088(7)
O20_4 O 0.90927(13) 0.06460(12) 0.19928(6)
N6_4 N 0.95319(14) 0.12059(14) 0.21910(7)
C47_4 C 0.99774(15) 0.06281(14) 0.03542(7)
C48_4 C 0.96187(15) 0.11557(15) 0.11278(7)
H31_4 H 0.897944 0.107964 0.111499
H32_4 H 0.988003 0.062395 0.126595
C49_4 C 0.98507(13) 0.19420(14) 0.14235(7)
H36_4 H 0.995494 0.270280 0.251844
C54_4 C 0.97972(14) 0.19706(15) 0.19197(7)
O8_4 O 0.13092(11) 0.99545(13) 0.43327(6)
O9_4 O 0.11536(16) 0.97684(17) 0.23912(7)
O10_4 O 0.06460(12) 0.90927(13) 0.30072(6)
N3_4 N 0.12059(14) 0.95319(14) 0.28090(7)
C18_4 C 0.06281(14) 0.99774(15) 0.46458(7)
C19_4 C 0.11557(15) 0.96187(15) 0.38722(7)
H11_4 H 0.107964 0.897944 0.388501
H12_4 H 0.062395 0.988003 0.373405
C20_4 C 0.19420(14) 0.98507(13) 0.35765(7)
H16_4 H 0.270280 0.995494 0.248156
C25_4 C 0.19706(15) 0.97972(14) 0.30803(7)
O3_4 O 0.86908(11) 0.00455(13) 0.56673(6)
O4_4 O 0.88464(16) 0.02316(17) 0.76088(7)
O5_4 O 0.93540(12) 0.09073(13) 0.69928(6)
N2_4 N 0.87941(14) 0.04681(14) 0.71910(7)
C4_4 C 0.93719(14) 0.00226(15) 0.53542(7)
C5_4 C 0.88443(15) 0.03813(15) 0.61278(7)
H2_4 H 0.892036 0.102056 0.611499
H3_4 H 0.937605 0.011997 0.626595
C6_4 C 0.80580(14) 0.01493(13) 0.64235(7)
H7_4 H 0.729720 0.004506 0.751844
C11_4 C 0.80294(15) 0.02028(14) 0.69197(7)
loop_
_geom_bond_atom_site_label_1
_geom_bond_atom_site_label_2
_geom_bond_site_symmetry_1
_geom_bond_site_symmetry_2
Zn1 O1 1_555 1_555
O1 C1 1_555 1_555
O2 C1 1_555 1_555
O3 C4 1_555 1_555
O4 N2 1_555 1_555
O5 N2 1_555 1_555
N1 Zn1 1_555 1_555
N2 C11 1_555 1_555
C1 C2 1_555 1_555
C2 C3 1_555 1_555
C3 H1 1_555 1_555
C4 C3 1_555 1_555
C5 O3 1_555 1_555
H2 C5 1_555 1_555
H3 C5 1_555 1_555
C6 C5 1_555 1_555
C11 C6 1_555 1_555
C12 N1 1_555 1_555
H8 C12 1_555 1_555
C13 C12 1_555 1_555
H9 C13 1_555 1_555
C14 C13 1_555 1_555
H13 C21 1_555 1_555
C22 C21 1_555 1_555
H14 C22 1_555 1_555
C23 C22 1_555 1_555
H15 C23 1_555 1_555
C24 C23 1_555 1_555
C26 N1 1_555 1_555
H17 C26 1_555 1_555
C27 C14 1_555 1_555
H18 C27 1_555 1_555
N4 C28 1_555 1_555
C28 H19 1_555 1_555
C29 C28 1_555 1_555
H20 C29 1_555 1_555
C30 C14 1_555 1_555
C31 N4 1_555 1_555
H21 C31 1_555 1_555
C32 C30 1_555 1_555
H22 C32 1_555 1_555
O11 Zn1 1_555 1_555
O12 C33 1_555 1_555
C33 O11 1_555 1_555
C34 C33 1_555 1_555
C35 C34 1_555 1_555
H23 C35 1_555 1_555
O18 C47 1_555 1_555
O19 N6 1_555 1_555
O20 N6 1_555 1_555
N6 C54 1_555 1_555
C47 C34 1_555 1_555
C48 O18 1_555 1_555
H31 C48 1_555 1_555
H32 C48 1_555 1_555
C49 C48 1_555 1_555
C50 C49 1_555 1_555
H33 C50 1_555 1_555
C51 C50 1_555 1_555
H34 C51 1_555 1_555
C52 C51 1_555 1_555
H35 C52 1_555 1_555
C53 C52 1_555 1_555
H36 C53 1_555 1_555
C54 C49 1_555 1_555
Zn2 O2 1_555 1_555
Zn3 N4 1_555 1_555
O21 Zn2 1_555 1_555
O22 Zn2 1_555 1_555
O23 Zn1 1_555 1_555
O24 Zn1 1_555 1_555
N7 Zn2 1_555 1_555
C26 C27 1_555 1_555
C29 C30 1_555 1_555
C31 C32 1_555 1_555
O12 Zn2 1_555 1_555
C53 C54 1_555 1_555
H4 C7 1_555 1_555
C8 C7 1_555 1_555
H5 C8 1_555 1_555
C9 C8 1_555 1_555
H6 C9 1_555 1_555
C10 C9 1_555 1_555
O6 C15 1_555 1_555
O7 C15 1_555 1_555
O8 C18 1_555 1_555
O9 N3 1_555 1_555
O10 N3 1_555 1_555
N3 C25 1_555 1_555
C15 C16 1_555 1_555
C17 C16 1_555 1_555
H10 C17 1_555 1_555
C19 O8 1_555 1_555
H11 C19 1_555 1_555
H12 C19 1_555 1_555
C20 C19 1_555 1_555
C25 C20 1_555 1_555
Zn5 O6 1_555 1_555
Zn7 O7 1_555 1_555
C17 C18 1_555 1_555
O13 C36 1_555 1_555
O14 N5 1_555 1_555
O15 N5 1_555 1_555
N5 C43 1_555 1_555
C37 O13 1_555 1_555
H24 C37 1_555 1_555
H25 C37 1_555 1_555
C38 C37 1_555 1_555
C39 C38 1_555 1_555
H26 C39 1_555 1_555
C40 C39 1_555 1_555
H27 C40 1_555 1_555
C41 C40 1_555 1_555
H28 C41 1_555 1_555
C42 C41 1_555 1_555
H29 C42 1_555 1_555
C43 C38 1_555 1_555
O16 C44 1_555 1_555
O17 C44 1_555 1_555
C44 C45 1_555 1_555
C45 C36 1_555 1_555
C46 C45 1_555 1_555
H30 C46 1_555 1_555
Zn5 O16 1_555 1_555
Zn7 O17 1_555 1_555
C42 C43 1_555 1_555
Zn1_2 O1_2 1_555 1_555
O1_2 C1_2 1_555 1_555
N1_2 Zn1_2 1_555 1_555
C1_2 C2_2 1_555 1_555
C12_2 N1_2 1_555 1_555
H8_2 C12_2 1_555 1_555
C13_2 C12_2 1_555 1_555
H9_2 C13_2 1_555 1_555
C14_2 C13_2 1_555 1_555
O8_2 C18_2 1_555 1_555
O9_2 N3_2 1_555 1_555
O10_2 N3_2 1_555 1_555
N3_2 C25_2 1_555 1_555
H10_2 C17_2 1_555 1_555
C18_2 C2_2 1_555 1_555
C19_2 O8_2 1_555 1_555
H11_2 C19_2 1_555 1_555
H12_2 C19_2 1_555 1_555
C20_2 C19_2 1_555 1_555
C21_2 C20_2 1_555 1_555
H13_2 C21_2 1_555 1_555
C22_2 C21_2 1_555 1_555
H14_2 C22_2 1_555 1_555
C23_2 C22_2 1_555 1_555
H15_2 C23_2 1_555 1_555
C24_2 C23_2 1_555 1_555
H16_2 C24_2 1_555 1_555
C25_2 C20_2 1_555 1_555
C26_2 N1_2 1_555 1_555
H17_2 C26_2 1_555 1_555
C27_2 C14_2 1_555 1_555
H18_2 C27_2 1_555 1_555
N7 C28_2 1_555 1_555
C28_2 H19_2 1_555 1_555
C29_2 C28_2 1_555 1_555
H20_2 C29_2 1_555 1_555
C30_2 C14_2 1_555 1_555
C31_2 N7 1_555 1_555
H21_2 C31_2 1_555 1_555
C32_2 C30_2 1_555 1_555
H22_2 C32_2 1_555 1_555
O11_2 Zn1_2 1_555 1_555
C33_2 O11_2 1_555 1_555
C34_2 C33_2 1_555 1_555
H33_2 C50_2 1_555 1_555
C51_2 C50_2 1_555 1_555
H34_2 C51_2 1_555 1_555
C52_2 C51_2 1_555 1_555
H35_2 C52_2 1_555 1_555
C53_2 C52_2 1_555 1_555
Zn7_2 O7_2 1_555 1_555
O23_2 Zn1_2 1_555 1_555
O24_2 Zn1_2 1_555 1_555
C17_2 C18_2 1_555 1_555
C24_2 C25_2 1_555 1_555
C26_2 C27_2 1_555 1_555
C29_2 C30_2 1_555 1_555
C31_2 C32_2 1_555 1_555
O3_2 C4_2 1_555 1_555
O4_2 N2_2 1_555 1_555
O5_2 N2_2 1_555 1_555
N2_2 C11_2 1_555 1_555
C3_2 H1_2 1_555 1_555
C4_2 C3_2 1_555 1_555
C5_2 O3_2 1_555 1_555
H2_2 C5_2 1_555 1_555
H3_2 C5_2 1_555 1_555
C6_2 C5_2 1_555 1_555
C7_2 C6_2 1_555 1_555
H4_2 C7_2 1_555 1_555
C8_2 C7_2 1_555 1_555
H5_2 C8_2 1_555 1_555
C9_2 C8_2 1_555 1_555
H6_2 C9_2 1_555 1_555
C10_2 C9_2 1_555 1_555
H7_2 C10_2 1_555 1_555
C11_2 C6_2 1_555 1_555
O6_2 C15_2 1_555 1_555
C15_2 C16_2 1_555 1_555
C16_2 C4_2 1_555 1_555
H23_2 C35_2 1_555 1_555
Zn3 O2_2 1_555 1_555
Zn5_2 O6_2 1_555 1_555
O21_2 Zn3 1_555 1_555
O22_2 Zn3 1_555 1_555
C10_2 C11_2 1_555 1_555
O12_2 Zn3 1_555 1_555
H30_2 C46_2 1_555 1_555
Zn7_2 O17_2 1_555 1_555
H26_2 C39_2 1_555 1_555
C40_2 C39_2 1_555 1_555
H27_2 C40_2 1_555 1_555
C41_2 C40_2 1_555 1_555
H28_2 C41_2 1_555 1_555
C42_2 C41_2 1_555 1_555
O16_2 C44_2 1_555 1_555
C44_2 C45_2 1_555 1_555
Zn5_2 O16_2 1_555 1_555
O21 C1_3 1_555 1_555
O23 C1_3 1_555 1_555
C1_3 C2_3 1_555 1_555
C2_3 C3_3 1_555 1_555
C3_3 H1_3 1_555 1_555
H13_3 C21_3 1_555 1_555
C22_3 C21_3 1_555 1_555
H14_3 C22_3 1_555 1_555
C23_3 C22_3 1_555 1_555
H15_3 C23_3 1_555 1_555
C24_3 C23_3 1_555 1_555
O24 C33_3 1_555 1_555
O13_2 C36_2 1_555 1_555
O14_2 N5_2 1_555 1_555
O15_2 N5_2 1_555 1_555
N5_2 C43_2 1_555 1_555
C33_3 O22 1_555 1_555
C34_3 C33_3 1_555 1_555
C35_3 C34_3 1_555 1_555
H23_3 C35_3 1_555 1_555
C36_2 C35_3 1_555 1_555
C37_2 O13_2 1_555 1_555
H24_2 C37_2 1_555 1_555
H25_2 C37_2 1_555 1_555
C38_2 C37_2 1_555 1_555
C39_3 C38_2 1_555 1_555
H26_3 C39_3 1_555 1_555
C40_3 C39_3 1_555 1_555
H27_3 C40_3 1_555 1_555
C41_3 C40_3 1_555 1_555
H28_3 C41_3 1_555 1_555
C42_3 C41_3 1_555 1_555
H29_2 C42_3 1_555 1_555
C43_2 C38_2 1_555 1_555
O16_3 C44_3 1_555 1_555
O17_3 C44_3 1_555 1_555
O18_2 C47_2 1_555 1_555
O19_2 N6_2 1_555 1_555
O20_2 N6_2 1_555 1_555
N6_2 C54_2 1_555 1_555
C44_3 C45_3 1_555 1_555
C45_3 C36_2 1_555 1_555
C46_3 C45_3 1_555 1_555
H30_3 C46_3 1_555 1_555
C47_2 C34_3 1_555 1_555
C48_2 O18_2 1_555 1_555
H31_2 C48_2 1_555 1_555
H32_2 C48_2 1_555 1_555
C49_2 C48_2 1_555 1_555
C50_3 C49_2 1_555 1_555
H33_3 C50_3 1_555 1_555
C51_3 C50_3 1_555 1_555
H34_3 C51_3 1_555 1_555
C52_3 C51_3 1_555 1_555
H35_3 C52_3 1_555 1_555
C53_3 C52_3 1_555 1_555
H36_2 C53_3 1_555 1_555
C54_2 C49_2 1_555 1_555
Zn7 O16_3 1_555 1_555
Zn5 O17_3 1_555 1_555
C42_3 C43_2 1_555 1_555
C46_3 C47_2 1_555 1_555
C53_3 C54_2 1_555 1_555
H4_3 C7_3 1_555 1_555
C8_3 C7_3 1_555 1_555
H5_3 C8_3 1_555 1_555
C9_3 C8_3 1_555 1_555
H6_3 C9_3 1_555 1_555
C10_3 C9_3 1_555 1_555
O6_3 C15_3 1_555 1_555
O7_3 C15_3 1_555 1_555
C15_3 C16_3 1_555 1_555
C17_3 C16_3 1_555 1_555
H10_3 C17_3 1_555 1_555
Zn7 O6_3 1_555 1_555
Zn5 O7_3 1_555 1_555
O3_3 C4_3 1_555 1_555
O4_3 N2_3 1_555 1_555
O5_3 N2_3 1_555 1_555
N2_3 C11_3 1_555 1_555
C3_4 H1_4 1_555 1_555
C4_3 C3_4 1_555 1_555
C5_3 O3_3 1_555 1_555
H2_3 C5_3 1_555 1_555
H3_3 C5_3 1_555 1_555
C6_3 C5_3 1_555 1_555
C11_3 C6_3 1_555 1_555
H23_4 C35_4 1_555 1_555
O22_2 C1_4 1_555 1_555
C1_4 C2_4 1_555 1_555
H13_4 C21_4 1_555 1_555
C22_4 C21_4 1_555 1_555
H14_4 C22_4 1_555 1_555
C23_4 C22_4 1_555 1_555
H15_4 C23_4 1_555 1_555
C24_4 C23_4 1_555 1_555
C33_4 O21_2 1_555 1_555
C34_4 C33_4 1_555 1_555
O18_3 C47_3 1_555 1_555
O19_3 N6_3 1_555 1_555
O20_3 N6_3 1_555 1_555
N6_3 C54_3 1_555 1_555
C47_3 C34_4 1_555 1_555
C48_3 O18_3 1_555 1_555
H31_3 C48_3 1_555 1_555
H32_3 C48_3 1_555 1_555
C49_3 C48_3 1_555 1_555
C50_4 C49_3 1_555 1_555
H33_4 C50_4 1_555 1_555
C51_4 C50_4 1_555 1_555
H34_4 C51_4 1_555 1_555
C52_4 C51_4 1_555 1_555
H35_4 C52_4 1_555 1_555
C53_4 C52_4 1_555 1_555
H36_3 C53_4 1_555 1_555
C54_3 C49_3 1_555 1_555
C53_4 C54_3 1_555 1_555
O13_3 C36_3 1_555 1_555
O14_3 N5_3 1_555 1_555
O15_3 N5_3 1_555 1_555
N5_3 C43_3 1_555 1_555
C37_3 O13_3 1_555 1_555
H24_3 C37_3 1_555 1_555
H25_3 C37_3 1_555 1_555
C38_3 C37_3 1_555 1_555
C39_4 C38_3 1_555 1_555
H26_4 C39_4 1_555 1_555
C40_4 C39_4 1_555 1_555
H27_4 C40_4 1_555 1_555
C41_4 C40_4 1_555 1_555
H28_4 C41_4 1_555 1_555
C42_4 C41_4 1_555 1_555
H29_3 C42_4 1_555 1_555
C43_3 C38_3 1_555 1_555
O16_4 C44_4 1_555 1_555
C44_4 C45_4 1_555 1_555
C45_4 C36_3 1_555 1_555
Zn7_2 O16_4 1_555 1_555
C42_4 C43_3 1_555 1_555
H30_4 C46_4 1_555 1_555
Zn5_2 O17_4 1_555 1_555
H4_4 C7_4 1_555 1_555
C8_4 C7_4 1_555 1_555
H5_4 C8_4 1_555 1_555
C9_4 C8_4 1_555 1_555
H6_4 C9_4 1_555 1_555
C10_4 C9_4 1_555 1_555
O6_4 C15_4 1_555 1_555
C15_4 C16_4 1_555 1_555
Zn7_2 O6_4 1_555 1_555
O8_3 C18_3 1_555 1_555
O9_3 N3_3 1_555 1_555
O10_3 N3_3 1_555 1_555
N3_3 C25_3 1_555 1_555
H10_4 C17_4 1_555 1_555
C19_3 O8_3 1_555 1_555
H11_3 C19_3 1_555 1_555
H12_3 C19_3 1_555 1_555
C20_3 C19_3 1_555 1_555
C25_3 C20_3 1_555 1_555
Zn5_2 O7_4 1_555 1_555
C17_4 C18_3 1_555 1_555
N1_3 Zn5 1_555 1_555
C12_3 N1_3 1_555 1_555
H8_3 C12_3 1_555 1_555
C13_3 C12_3 1_555 1_555
H9_3 C13_3 1_555 1_555
C14_3 C13_3 1_555 1_555
C26_3 N1_3 1_555 1_555
H17_3 C26_3 1_555 1_555
C27_3 C14_3 1_555 1_555
H18_3 C27_3 1_555 1_555
N4_2 C28_3 1_555 1_555
C28_3 H19_3 1_555 1_555
C29_3 C28_3 1_555 1_555
H20_3 C29_3 1_555 1_555
C30_3 C14_3 1_555 1_555
C31_3 N4_2 1_555 1_555
H21_3 C31_3 1_555 1_555
C32_3 C30_3 1_555 1_555
H22_3 C32_3 1_555 1_555
Zn7_2 N4_2 1_555 1_555
N7_2 Zn7 1_555 1_555
C26_3 C27_3 1_555 1_555
C29_3 C30_3 1_555 1_555
C31_3 C32_3 1_555 1_555
N1_4 Zn5_2 1_555 1_555
C12_4 N1_4 1_555 1_555
H8_4 C12_4 1_555 1_555
C13_4 C12_4 1_555 1_555
H9_4 C13_4 1_555 1_555
C14_4 C13_4 1_555 1_555
C26_4 N1_4 1_555 1_555
H17_4 C26_4 1_555 1_555
C27_4 C14_4 1_555 1_555
H18_4 C27_4 1_555 1_555
N7_2 C28_4 1_555 1_555
C28_4 H19_4 1_555 1_555
C29_4 C28_4 1_555 1_555
H20_4 C29_4 1_555 1_555
C30_4 C14_4 1_555 1_555
C31_4 N7_2 1_555 1_555
H21_4 C31_4 1_555 1_555
C32_4 C30_4 1_555 1_555
H22_4 C32_4 1_555 1_555
C26_4 C27_4 1_555 1_555
C29_4 C30_4 1_555 1_555
C31_4 C32_4 1_555 1_555
O13_4 C36_4 1_555 1_555
O14_4 N5_4 1_555 1_555
O15_4 N5_4 1_555 1_555
N5_4 C43_4 1_555 1_555
C37_4 O13_4 1_555 1_555
H24_4 C37_4 1_555 1_555
H25_4 C37_4 1_555 1_555
C38_4 C37_4 1_555 1_555
C43_4 C38_4 1_555 1_555
O18_4 C47_4 1_555 1_555
O19_4 N6_4 1_555 1_555
O20_4 N6_4 1_555 1_555
N6_4 C54_4 1_555 1_555
C48_4 O18_4 1_555 1_555
H31_4 C48_4 1_555 1_555
H32_4 C48_4 1_555 1_555
C49_4 C48_4 1_555 1_555
C54_4 C49_4 1_555 1_555
O8_4 C18_4 1_555 1_555
O9_4 N3_4 1_555 1_555
O10_4 N3_4 1_555 1_555
N3_4 C25_4 1_555 1_555
C19_4 O8_4 1_555 1_555
H11_4 C19_4 1_555 1_555
H12_4 C19_4 1_555 1_555
C20_4 C19_4 1_555 1_555
C25_4 C20_4 1_555 1_555
O3_4 C4_4 1_555 1_555
O4_4 N2_4 1_555 1_555
O5_4 N2_4 1_555 1_555
N2_4 C11_4 1_555 1_555
C5_4 O3_4 1_555 1_555
H2_4 C5_4 1_555 1_555
H3_4 C5_4 1_555 1_555
C6_4 C5_4 1_555 1_555
C11_4 C6_4 1_555 1_555

#END
