
###############################################################################
#
# This file contains modified crystal structure data generated from the
# MOF subset of the Cambridge Structural Database (CSD) v543 
# hosted by the Cambridge Crystallographic Data Centre (CCDC).
#
# This work is licensed under the Creative Commons
# Attribution-NonCommercial-ShareAlike 4.0 International License.
# To view a copy of this license, visit
# http://creativecommons.org/licenses/by-nc-sa/4.0/
# or send a letter to
# Creative Commons, PO Box 1866, Mountain View, CA 94042, USA.
#
# CIF created using the CSD Python API on 29 September 2022
# The structure has been converted into the P1 space group
# The structure has a 3D framework
# The original CSD entry YALTIS is in the tetragonal crystal system
# The framework has been calculated to contain at least 10.0% void space
# The void calculation uses a probe of radius 1.32A, grid spacing 0.4
#
###############################################################################

data_YALTIS
_chemical_formula_moiety         '(C216 H144 N24 O74 Zn6)n'
_symmetry_cell_setting           triclinic
_symmetry_space_group_name_H-M   'P 1'
_symmetry_Int_Tables_number      1
_space_group_name_Hall           'P 1'
loop_
_symmetry_equiv_pos_site_id
_symmetry_equiv_pos_as_xyz
1 x,y,z
_cell_length_a                   15.3684(3)
_cell_length_b                   15.3684(3)
_cell_length_c                   28.0526(7)
_cell_angle_alpha                90
_cell_angle_beta                 90
_cell_angle_gamma                90
_cell_volume                     6625.68
loop_
_atom_site_label
_atom_site_type_symbol
_atom_site_fract_x
_atom_site_fract_y
_atom_site_fract_z
Zn1 Zn 0.250000 0.250000 0.44785(2)
O1 O 0.16948(19) 0.35157(19) 0.45948(9)
O2 O 0.14937(19) 0.33130(19) 0.53759(9)
O3 O 0.0051(3) 0.6306(2) 0.56719(11)
O4 O 0.0878(2) 0.5630(2) 0.70040(11)
O5 O 0.0224(3) 0.6161(3) 0.76246(11)
N1 N 0.250000 0.250000 0.37560(13)
N2 N 0.0448(3) 0.6207(2) 0.72021(13)
C1 C 0.1321(2) 0.3667(2) 0.49846(14)
C2 C 0.0622(2) 0.4343(2) 0.49910(13)
C3 C 0.0635(3) 0.4963(3) 0.53485(13)
H1 H 0.106711 0.493457 0.559019
C4 C 0.0024(3) 0.5623(3) 0.53570(13)
C5 C 0.0369(3) 0.6146(3) 0.61369(13)
H2 H 0.100746 0.606016 0.613076
H3 H 0.009497 0.561747 0.627208
C6 C 0.0138(3) 0.6934(3) 0.64309(13)
H7 H 0.004007 0.770705 0.752631
C11 C 0.0188(3) 0.6967(3) 0.69273(14)
C12 C 0.2860(2) 0.1843(2) 0.35122(12)
H8 H 0.311593 0.137541 0.368363
C13 C 0.2871(2) 0.1822(3) 0.30214(12)
H9 H 0.313211 0.134605 0.285932
C14 C 0.250000 0.250000 0.27639(15)
C21 C 0.0164(3) 0.2317(3) 0.37911(14)
H13 H 0.022167 0.231216 0.412827
C22 C 0.0385(3) 0.1580(3) 0.35367(15)
H14 H 0.060009 0.108310 0.369976
C23 C 0.0295(3) 0.1561(3) 0.30480(15)
H15 H 0.042644 0.104549 0.287570
C24 C 0.0014(3) 0.2294(3) 0.28110(14)
C26 C 0.2140(2) 0.3157(2) 0.35122(12)
H17 H 0.188407 0.362459 0.368363
C27 C 0.2129(2) 0.3178(3) 0.30214(12)
H18 H 0.186789 0.365395 0.285932
N4 N 0.250000 0.250000 0.12440(13)
C28 C 0.1843(2) 0.2860(2) 0.14878(12)
H19 H 0.137541 0.311593 0.131637
C29 C 0.1822(3) 0.2871(2) 0.19786(12)
H20 H 0.134605 0.313211 0.214068
C30 C 0.250000 0.250000 0.22361(15)
C31 C 0.3157(2) 0.2140(2) 0.14878(12)
H21 H 0.362459 0.188407 0.131637
C32 C 0.3178(3) 0.2129(2) 0.19786(12)
H22 H 0.365395 0.186789 0.214068
O11 O 0.33052(19) 0.14843(19) 0.45948(9)
O12 O 0.35063(19) 0.16870(19) 0.53759(9)
C33 C 0.3679(2) 0.1333(2) 0.49846(14)
C34 C 0.4378(2) 0.0657(2) 0.49910(13)
C35 C 0.4365(3) 0.0037(3) 0.53485(13)
H23 H 0.393289 0.006543 0.559019
O18 O 0.5051(3) 0.1306(2) 0.43281(11)
O19 O 0.5878(2) 0.0630(2) 0.29960(11)
O20 O 0.5224(3) 0.1161(3) 0.23754(11)
N6 N 0.5448(3) 0.1207(2) 0.27979(13)
C47 C 0.5024(3) 0.0623(3) 0.46430(13)
C48 C 0.5369(3) 0.1146(3) 0.38631(13)
H31 H 0.600746 0.106016 0.386924
H32 H 0.509497 0.061747 0.372792
C49 C 0.5138(3) 0.1934(3) 0.35691(13)
C50 C 0.4836(3) 0.2683(3) 0.37911(14)
H33 H 0.477833 0.268784 0.412827
C51 C 0.4615(3) 0.3420(3) 0.35367(15)
H34 H 0.439991 0.391690 0.369976
C52 C 0.4705(3) 0.3439(3) 0.30480(15)
H35 H 0.457356 0.395451 0.287570
C53 C 0.4986(3) 0.2706(3) 0.28110(14)
H36 H 0.504007 0.270705 0.247369
C54 C 0.5188(3) 0.1967(3) 0.30727(14)
Zn2 Zn 0.250000 0.250000 0.55215(2)
Zn3 Zn 0.250000 0.250000 0.05215(2)
O21 O 0.33052(19) 0.35157(19) 0.54052(9)
O22 O 0.16948(19) 0.14843(19) 0.54052(9)
O23 O 0.35063(19) 0.33130(19) 0.46241(9)
O24 O 0.14937(19) 0.16870(19) 0.46241(9)
N7 N 0.250000 0.250000 0.62440(13)
O13 O 0.4949(3) 0.8694(2) 0.56719(11)
O14 O 0.4122(2) 0.9370(2) 0.70040(11)
O15 O 0.4776(3) 0.8839(3) 0.76246(11)
N5 N 0.4552(3) 0.8793(2) 0.72021(13)
C36 C 0.4976(3) 0.9377(3) 0.53570(13)
C37 C 0.4631(3) 0.8854(3) 0.61369(13)
H24 H 0.399254 0.893984 0.613076
H25 H 0.490503 0.938253 0.627208
C38 C 0.4862(3) 0.8066(3) 0.64309(13)
C39 C 0.5164(3) 0.7317(3) 0.62089(14)
H26 H 0.522167 0.731216 0.587173
C40 C 0.5385(3) 0.6580(3) 0.64633(15)
H27 H 0.560009 0.608310 0.630024
C41 C 0.5295(3) 0.6561(3) 0.69520(15)
H28 H 0.542644 0.604549 0.712430
C42 C 0.5014(3) 0.7294(3) 0.71890(14)
H29 H 0.495993 0.729295 0.752631
C43 C 0.4812(3) 0.8033(3) 0.69273(14)
O16 O 0.66948(19) 0.85157(19) 0.54052(9)
O17 O 0.64937(19) 0.83130(19) 0.46241(9)
C44 C 0.6321(2) 0.8667(2) 0.50154(14)
C45 C 0.5622(2) 0.9343(2) 0.50090(13)
C46 C 0.5635(3) 0.9963(3) 0.46515(13)
H30 H 0.606711 0.993457 0.440981
Zn5 Zn 0.750000 0.750000 0.55215(2)
Zn7 Zn 0.750000 0.750000 0.44785(2)
C7 C 0.9836(3) 0.7683(3) 0.62089(14)
H4 H 0.977833 0.768784 0.587173
C8 C 0.9615(3) 0.8420(3) 0.64633(15)
H5 H 0.939991 0.891690 0.630024
C9 C 0.9705(3) 0.8439(3) 0.69520(15)
H6 H 0.957356 0.895451 0.712430
C10 C 0.9986(3) 0.7706(3) 0.71890(14)
O6 O 0.83052(19) 0.64843(19) 0.54052(9)
O7 O 0.85063(19) 0.66870(19) 0.46241(9)
O8 O 0.9949(3) 0.3694(2) 0.43281(11)
O9 O 0.9122(2) 0.4370(2) 0.29960(11)
O10 O 0.9776(3) 0.3839(3) 0.23754(11)
N3 N 0.9552(3) 0.3793(2) 0.27979(13)
C15 C 0.8679(2) 0.6333(2) 0.50154(14)
C16 C 0.9378(2) 0.5657(2) 0.50090(13)
C17 C 0.9365(3) 0.5037(3) 0.46515(13)
H10 H 0.893289 0.506543 0.440981
C18 C 0.9976(3) 0.4377(3) 0.46430(13)
C19 C 0.9631(3) 0.3854(3) 0.38631(13)
H11 H 0.899254 0.393984 0.386924
H12 H 0.990503 0.438253 0.372792
C20 C 0.9862(3) 0.3066(3) 0.35691(13)
H16 H 0.995993 0.229295 0.247369
C25 C 0.9812(3) 0.3033(3) 0.30727(14)
O2_2 O 0.16870(19) 0.14937(19) 0.03759(9)
C3_2 C 0.0037(3) 0.0635(3) 0.03485(13)
H1_2 H 0.006543 0.106711 0.059019
O12_2 O 0.33130(19) 0.35063(19) 0.03759(9)
O13_2 O 0.6306(2) 0.4949(3) 0.06719(11)
O14_2 O 0.5630(2) 0.4122(2) 0.20040(11)
O15_2 O 0.6161(3) 0.4776(3) 0.26246(11)
N5_2 N 0.6207(2) 0.4552(3) 0.22021(13)
C35_2 C 0.4963(3) 0.4365(3) 0.03485(13)
H23_2 H 0.493457 0.393289 0.059019
C36_2 C 0.5623(3) 0.4976(3) 0.03570(13)
C37_2 C 0.6146(3) 0.4631(3) 0.11369(13)
H24_2 H 0.606016 0.399254 0.113076
H25_2 H 0.561747 0.490503 0.127208
C38_2 C 0.6934(3) 0.4862(3) 0.14309(13)
C39_2 C 0.7683(3) 0.5164(3) 0.12089(14)
H26_2 H 0.768784 0.522167 0.087173
C40_2 C 0.8420(3) 0.5385(3) 0.14633(15)
H27_2 H 0.891690 0.560009 0.130024
C41_2 C 0.8439(3) 0.5295(3) 0.19520(15)
H28_2 H 0.895451 0.542644 0.212430
C42_2 C 0.7706(3) 0.5014(3) 0.21890(14)
H29_2 H 0.770705 0.495993 0.252631
C43_2 C 0.6967(3) 0.4812(3) 0.19273(14)
O16_2 O 0.64843(19) 0.66948(19) 0.04052(9)
C44_2 C 0.6333(2) 0.6321(2) 0.00154(14)
C45_2 C 0.5657(2) 0.5622(2) 0.00090(13)
Zn5_2 Zn 0.750000 0.750000 0.05215(2)
O21_2 O 0.14843(19) 0.33052(19) 0.04052(9)
O22_2 O 0.35157(19) 0.16948(19) 0.04052(9)
Zn1_2 Zn 0.250000 0.250000 0.94785(2)
O1_2 O 0.14843(19) 0.16948(19) 0.95948(9)
N1_2 N 0.250000 0.250000 0.87560(13)
C1_2 C 0.1333(2) 0.1321(2) 0.99846(14)
C2_2 C 0.0657(2) 0.0622(2) 0.99910(13)
C12_2 C 0.3157(2) 0.2860(2) 0.85122(12)
H8_2 H 0.362459 0.311593 0.868363
C13_2 C 0.3178(3) 0.2871(2) 0.80214(12)
H9_2 H 0.365395 0.313211 0.785932
C14_2 C 0.250000 0.250000 0.77639(15)
C21_2 C 0.2683(3) 0.0164(3) 0.87911(14)
H13_2 H 0.268784 0.022167 0.912827
C22_2 C 0.3420(3) 0.0385(3) 0.85367(15)
H14_2 H 0.391690 0.060009 0.869976
C23_2 C 0.3439(3) 0.0295(3) 0.80480(15)
H15_2 H 0.395451 0.042644 0.787570
C24_2 C 0.2706(3) 0.0014(3) 0.78110(14)
C26_2 C 0.1843(2) 0.2140(2) 0.85122(12)
H17_2 H 0.137541 0.188407 0.868363
C27_2 C 0.1822(3) 0.2129(2) 0.80214(12)
H18_2 H 0.134605 0.186789 0.785932
C28_2 C 0.2140(2) 0.1843(2) 0.64878(12)
H19_2 H 0.188407 0.137541 0.631637
C29_2 C 0.2129(2) 0.1822(3) 0.69786(12)
H20_2 H 0.186789 0.134605 0.714068
C30_2 C 0.250000 0.250000 0.72361(15)
C31_2 C 0.2860(2) 0.3157(2) 0.64878(12)
H21_2 H 0.311593 0.362459 0.631637
C32_2 C 0.2871(2) 0.3178(3) 0.69786(12)
H22_2 H 0.313211 0.365395 0.714068
O11_2 O 0.35157(19) 0.33052(19) 0.95948(9)
C33_2 C 0.3667(2) 0.3679(2) 0.99846(14)
C34_2 C 0.4343(2) 0.4378(2) 0.99910(13)
O17_2 O 0.66870(19) 0.64937(19) 0.96241(9)
O18_2 O 0.3694(2) 0.5051(3) 0.93281(11)
O19_2 O 0.4370(2) 0.5878(2) 0.79960(11)
O20_2 O 0.3839(3) 0.5224(3) 0.73754(11)
N6_2 N 0.3793(2) 0.5448(3) 0.77979(13)
C46_2 C 0.5037(3) 0.5635(3) 0.96515(13)
H30_2 H 0.506543 0.606711 0.940981
C47_2 C 0.4377(3) 0.5024(3) 0.96430(13)
C48_2 C 0.3854(3) 0.5369(3) 0.88631(13)
H31_2 H 0.393984 0.600746 0.886924
H32_2 H 0.438253 0.509497 0.872792
C49_2 C 0.3066(3) 0.5138(3) 0.85691(13)
C50_2 C 0.2317(3) 0.4836(3) 0.87911(14)
H33_2 H 0.231216 0.477833 0.912827
C51_2 C 0.1580(3) 0.4615(3) 0.85367(15)
H34_2 H 0.108310 0.439991 0.869976
C52_2 C 0.1561(3) 0.4705(3) 0.80480(15)
H35_2 H 0.104549 0.457356 0.787570
C53_2 C 0.2294(3) 0.4986(3) 0.78110(14)
H36_2 H 0.229295 0.504007 0.747369
C54_2 C 0.3033(3) 0.5188(3) 0.80727(14)
Zn7_2 Zn 0.750000 0.750000 0.94785(2)
O23_2 O 0.16870(19) 0.35063(19) 0.96241(9)
O24_2 O 0.33130(19) 0.14937(19) 0.96241(9)
C7_2 C 0.7317(3) 0.9836(3) 0.12089(14)
H4_2 H 0.731216 0.977833 0.087173
C8_2 C 0.6580(3) 0.9615(3) 0.14633(15)
H5_2 H 0.608310 0.939991 0.130024
C9_2 C 0.6561(3) 0.9705(3) 0.19520(15)
H6_2 H 0.604549 0.957356 0.212430
C10_2 C 0.7294(3) 0.9986(3) 0.21890(14)
O6_2 O 0.85157(19) 0.83052(19) 0.04052(9)
C15_2 C 0.8667(2) 0.8679(2) 0.00154(14)
C16_2 C 0.9343(2) 0.9378(2) 0.00090(13)
O7_2 O 0.83130(19) 0.85063(19) 0.96241(9)
C17_2 C 0.9963(3) 0.9365(3) 0.96515(13)
H10_2 H 0.993457 0.893289 0.940981
O3_2 O 0.4949(3) 0.6306(2) 0.43281(11)
O4_2 O 0.4122(2) 0.5630(2) 0.29960(11)
O5_2 O 0.4776(3) 0.6161(3) 0.23754(11)
N2_2 N 0.4552(3) 0.6207(2) 0.27979(13)
C1_3 C 0.3679(2) 0.3667(2) 0.50154(14)
C2_3 C 0.4378(2) 0.4343(2) 0.50090(13)
C3_3 C 0.4365(3) 0.4963(3) 0.46515(13)
H1_3 H 0.393289 0.493457 0.440981
C4_2 C 0.4976(3) 0.5623(3) 0.46430(13)
C5_2 C 0.4631(3) 0.6146(3) 0.38631(13)
H2_2 H 0.399254 0.606016 0.386924
H3_2 H 0.490503 0.561747 0.372792
C6_2 C 0.4862(3) 0.6934(3) 0.35691(13)
C7_3 C 0.5164(3) 0.7683(3) 0.37911(14)
H4_3 H 0.522167 0.768784 0.412827
C8_3 C 0.5385(3) 0.8420(3) 0.35367(15)
H5_3 H 0.560009 0.891690 0.369976
C9_3 C 0.5295(3) 0.8439(3) 0.30480(15)
H6_3 H 0.542644 0.895451 0.287570
C10_3 C 0.5014(3) 0.7706(3) 0.28110(14)
H7_2 H 0.495993 0.770705 0.247369
C11_2 C 0.4812(3) 0.6967(3) 0.30727(14)
O6_3 O 0.66948(19) 0.64843(19) 0.45948(9)
O7_3 O 0.64937(19) 0.66870(19) 0.53759(9)
O8_2 O 0.5051(3) 0.3694(2) 0.56719(11)
O9_2 O 0.5878(2) 0.4370(2) 0.70040(11)
O10_2 O 0.5224(3) 0.3839(3) 0.76246(11)
N3_2 N 0.5448(3) 0.3793(2) 0.72021(13)
C15_3 C 0.6321(2) 0.6333(2) 0.49846(14)
C16_3 C 0.5622(2) 0.5657(2) 0.49910(13)
C17_3 C 0.5635(3) 0.5037(3) 0.53485(13)
H10_3 H 0.606711 0.506543 0.559019
C18_2 C 0.5024(3) 0.4377(3) 0.53570(13)
C19_2 C 0.5369(3) 0.3854(3) 0.61369(13)
H11_2 H 0.600746 0.393984 0.613076
H12_2 H 0.509497 0.438253 0.627208
C20_2 C 0.5138(3) 0.3066(3) 0.64309(13)
C21_3 C 0.4836(3) 0.2317(3) 0.62089(14)
H13_3 H 0.477833 0.231216 0.587173
C22_3 C 0.4615(3) 0.1580(3) 0.64633(15)
H14_3 H 0.439991 0.108310 0.630024
C23_3 C 0.4705(3) 0.1561(3) 0.69520(15)
H15_3 H 0.457356 0.104549 0.712430
C24_3 C 0.4986(3) 0.2294(3) 0.71890(14)
H16_2 H 0.504007 0.229295 0.752631
C25_2 C 0.5188(3) 0.3033(3) 0.69273(14)
C33_3 C 0.1321(2) 0.1333(2) 0.50154(14)
C34_3 C 0.0622(2) 0.0657(2) 0.50090(13)
C35_3 C 0.0635(3) 0.0037(3) 0.46515(13)
H23_3 H 0.106711 0.006543 0.440981
C50_3 C 0.0164(3) 0.2683(3) 0.62089(14)
H33_3 H 0.022167 0.268784 0.587173
C51_3 C 0.0385(3) 0.3420(3) 0.64633(15)
H34_3 H 0.060009 0.391690 0.630024
C52_3 C 0.0295(3) 0.3439(3) 0.69520(15)
H35_3 H 0.042644 0.395451 0.712430
C53_3 C 0.0014(3) 0.2706(3) 0.71890(14)
C39_3 C 0.9836(3) 0.7317(3) 0.37911(14)
H26_3 H 0.977833 0.731216 0.412827
C40_3 C 0.9615(3) 0.6580(3) 0.35367(15)
H27_3 H 0.939991 0.608310 0.369976
C41_3 C 0.9705(3) 0.6561(3) 0.30480(15)
H28_3 H 0.957356 0.604549 0.287570
C42_3 C 0.9986(3) 0.7294(3) 0.28110(14)
O16_3 O 0.83052(19) 0.85157(19) 0.45948(9)
O17_3 O 0.85063(19) 0.83130(19) 0.53759(9)
C44_3 C 0.8679(2) 0.8667(2) 0.49846(14)
C45_3 C 0.9378(2) 0.9343(2) 0.49910(13)
C46_3 C 0.9365(3) 0.9963(3) 0.53485(13)
H30_3 H 0.893289 0.993457 0.559019
C1_4 C 0.3667(2) 0.1321(2) 0.00154(14)
C2_4 C 0.4343(2) 0.0622(2) 0.00090(13)
C21_4 C 0.2317(3) 0.0164(3) 0.12089(14)
H13_4 H 0.231216 0.022167 0.087173
C22_4 C 0.1580(3) 0.0385(3) 0.14633(15)
H14_4 H 0.108310 0.060009 0.130024
C23_4 C 0.1561(3) 0.0295(3) 0.19520(15)
H15_4 H 0.104549 0.042644 0.212430
C24_4 C 0.2294(3) 0.0014(3) 0.21890(14)
C33_4 C 0.1333(2) 0.3679(2) 0.00154(14)
C34_4 C 0.0657(2) 0.4378(2) 0.00090(13)
O18_3 O 0.1306(2) 0.5051(3) 0.06719(11)
O19_3 O 0.0630(2) 0.5878(2) 0.20040(11)
O20_3 O 0.1161(3) 0.5224(3) 0.26246(11)
N6_3 N 0.1207(2) 0.5448(3) 0.22021(13)
C47_3 C 0.0623(3) 0.5024(3) 0.03570(13)
C48_3 C 0.1146(3) 0.5369(3) 0.11369(13)
H31_3 H 0.106016 0.600746 0.113076
H32_3 H 0.061747 0.509497 0.127208
C49_3 C 0.1934(3) 0.5138(3) 0.14309(13)
C50_4 C 0.2683(3) 0.4836(3) 0.12089(14)
H33_4 H 0.268784 0.477833 0.087173
C51_4 C 0.3420(3) 0.4615(3) 0.14633(15)
H34_4 H 0.391690 0.439991 0.130024
C52_4 C 0.3439(3) 0.4705(3) 0.19520(15)
H35_4 H 0.395451 0.457356 0.212430
C53_4 C 0.2706(3) 0.4986(3) 0.21890(14)
H36_3 H 0.270705 0.504007 0.252631
C54_3 C 0.1967(3) 0.5188(3) 0.19273(14)
O3_3 O 0.6306(2) 0.0051(3) 0.93281(11)
O4_3 O 0.5630(2) 0.0878(2) 0.79960(11)
O5_3 O 0.6161(3) 0.0224(3) 0.73754(11)
N2_3 N 0.6207(2) 0.0448(3) 0.77979(13)
C3_4 C 0.4963(3) 0.0635(3) 0.96515(13)
H1_4 H 0.493457 0.106711 0.940981
C4_3 C 0.5623(3) 0.0024(3) 0.96430(13)
C5_3 C 0.6146(3) 0.0369(3) 0.88631(13)
H2_3 H 0.606016 0.100746 0.886924
H3_3 H 0.561747 0.009497 0.872792
C6_3 C 0.6934(3) 0.0138(3) 0.85691(13)
H7_3 H 0.770705 0.004007 0.747369
C11_3 C 0.6967(3) 0.0188(3) 0.80727(14)
C35_4 C 0.0037(3) 0.4365(3) 0.96515(13)
H23_4 H 0.006543 0.393289 0.940981
O7_4 O 0.66870(19) 0.85063(19) 0.03759(9)
O8_3 O 0.3694(2) 0.9949(3) 0.06719(11)
O9_3 O 0.4370(2) 0.9122(2) 0.20040(11)
O10_3 O 0.3839(3) 0.9776(3) 0.26246(11)
N3_3 N 0.3793(2) 0.9552(3) 0.22021(13)
C17_4 C 0.5037(3) 0.9365(3) 0.03485(13)
H10_4 H 0.506543 0.893289 0.059019
C18_3 C 0.4377(3) 0.9976(3) 0.03570(13)
C19_3 C 0.3854(3) 0.9631(3) 0.11369(13)
H11_3 H 0.393984 0.899254 0.113076
H12_3 H 0.438253 0.990503 0.127208
C20_3 C 0.3066(3) 0.9862(3) 0.14309(13)
H16_3 H 0.229295 0.995993 0.252631
C25_3 C 0.3033(3) 0.9812(3) 0.19273(14)
C7_4 C 0.7683(3) 0.9836(3) 0.87911(14)
H4_4 H 0.768784 0.977833 0.912827
C8_4 C 0.8420(3) 0.9615(3) 0.85367(15)
H5_4 H 0.891690 0.939991 0.869976
C9_4 C 0.8439(3) 0.9705(3) 0.80480(15)
H6_4 H 0.895451 0.957356 0.787570
C10_4 C 0.7706(3) 0.9986(3) 0.78110(14)
O6_4 O 0.64843(19) 0.83052(19) 0.95948(9)
C15_4 C 0.6333(2) 0.8679(2) 0.99846(14)
C16_4 C 0.5657(2) 0.9378(2) 0.99910(13)
O17_4 O 0.83130(19) 0.64937(19) 0.03759(9)
C46_4 C 0.9963(3) 0.5635(3) 0.03485(13)
H30_4 H 0.993457 0.606711 0.059019
O13_3 O 0.8694(2) 0.4949(3) 0.93281(11)
O14_3 O 0.9370(2) 0.4122(2) 0.79960(11)
O15_3 O 0.8839(3) 0.4776(3) 0.73754(11)
N5_3 N 0.8793(2) 0.4552(3) 0.77979(13)
C36_3 C 0.9377(3) 0.4976(3) 0.96430(13)
C37_3 C 0.8854(3) 0.4631(3) 0.88631(13)
H24_3 H 0.893984 0.399254 0.886924
H25_3 H 0.938253 0.490503 0.872792
C38_3 C 0.8066(3) 0.4862(3) 0.85691(13)
C39_4 C 0.7317(3) 0.5164(3) 0.87911(14)
H26_4 H 0.731216 0.522167 0.912827
C40_4 C 0.6580(3) 0.5385(3) 0.85367(15)
H27_4 H 0.608310 0.560009 0.869976
C41_4 C 0.6561(3) 0.5295(3) 0.80480(15)
H28_4 H 0.604549 0.542644 0.787570
C42_4 C 0.7294(3) 0.5014(3) 0.78110(14)
H29_3 H 0.729295 0.495993 0.747369
C43_3 C 0.8033(3) 0.4812(3) 0.80727(14)
O16_4 O 0.85157(19) 0.66948(19) 0.95948(9)
C44_4 C 0.8667(2) 0.6321(2) 0.99846(14)
C45_4 C 0.9343(2) 0.5622(2) 0.99910(13)
N1_3 N 0.750000 0.750000 0.62440(13)
C12_3 C 0.7140(2) 0.8157(2) 0.64878(12)
H8_3 H 0.688407 0.862459 0.631637
C13_3 C 0.7129(2) 0.8178(3) 0.69786(12)
H9_3 H 0.686789 0.865395 0.714068
C14_3 C 0.750000 0.750000 0.72361(15)
C26_3 C 0.7860(2) 0.6843(2) 0.64878(12)
H17_3 H 0.811593 0.637541 0.631637
C27_3 C 0.7871(2) 0.6822(3) 0.69786(12)
H18_3 H 0.813211 0.634605 0.714068
N4_2 N 0.750000 0.750000 0.87560(13)
C28_3 C 0.8157(2) 0.7140(2) 0.85122(12)
H19_3 H 0.862459 0.688407 0.868363
C29_3 C 0.8178(3) 0.7129(2) 0.80214(12)
H20_3 H 0.865395 0.686789 0.785932
C30_3 C 0.750000 0.750000 0.77639(15)
C31_3 C 0.6843(2) 0.7860(2) 0.85122(12)
H21_3 H 0.637541 0.811593 0.868363
C32_3 C 0.6822(3) 0.7871(2) 0.80214(12)
H22_3 H 0.634605 0.813211 0.785932
N7_2 N 0.750000 0.750000 0.37560(13)
N1_4 N 0.750000 0.750000 0.12440(13)
C12_4 C 0.6843(2) 0.7140(2) 0.14878(12)
H8_4 H 0.637541 0.688407 0.131637
C13_4 C 0.6822(3) 0.7129(2) 0.19786(12)
H9_4 H 0.634605 0.686789 0.214068
C14_4 C 0.750000 0.750000 0.22361(15)
C26_4 C 0.8157(2) 0.7860(2) 0.14878(12)
H17_4 H 0.862459 0.811593 0.131637
C27_4 C 0.8178(3) 0.7871(2) 0.19786(12)
H18_4 H 0.865395 0.813211 0.214068
C28_4 C 0.7860(2) 0.8157(2) 0.35122(12)
H19_4 H 0.811593 0.862459 0.368363
C29_4 C 0.7871(2) 0.8178(3) 0.30214(12)
H20_4 H 0.813211 0.865395 0.285932
C30_4 C 0.750000 0.750000 0.27639(15)
C31_4 C 0.7140(2) 0.6843(2) 0.35122(12)
H21_4 H 0.688407 0.637541 0.368363
C32_4 C 0.7129(2) 0.6822(3) 0.30214(12)
H22_4 H 0.686789 0.634605 0.285932
O8_4 O 0.1306(2) 0.9949(3) 0.93281(11)
O9_4 O 0.0630(2) 0.9122(2) 0.79960(11)
O10_4 O 0.1161(3) 0.9776(3) 0.73754(11)
N3_4 N 0.1207(2) 0.9552(3) 0.77979(13)
C18_4 C 0.0623(3) 0.9976(3) 0.96430(13)
C19_4 C 0.1146(3) 0.9631(3) 0.88631(13)
H11_4 H 0.106016 0.899254 0.886924
H12_4 H 0.061747 0.990503 0.872792
C20_4 C 0.1934(3) 0.9862(3) 0.85691(13)
H16_4 H 0.270705 0.995993 0.747369
C25_4 C 0.1967(3) 0.9812(3) 0.80727(14)
O3_4 O 0.8694(2) 0.0051(3) 0.06719(11)
O4_4 O 0.9370(2) 0.0878(2) 0.20040(11)
O5_4 O 0.8839(3) 0.0224(3) 0.26246(11)
N2_4 N 0.8793(2) 0.0448(3) 0.22021(13)
C4_4 C 0.9377(3) 0.0024(3) 0.03570(13)
C5_4 C 0.8854(3) 0.0369(3) 0.11369(13)
H2_4 H 0.893984 0.100746 0.113076
H3_4 H 0.938253 0.009497 0.127208
C6_4 C 0.8066(3) 0.0138(3) 0.14309(13)
H7_4 H 0.729295 0.004007 0.252631
C11_4 C 0.8033(3) 0.0188(3) 0.19273(14)
O13_4 O 0.0051(3) 0.8694(2) 0.43281(11)
O14_4 O 0.0878(2) 0.9370(2) 0.29960(11)
O15_4 O 0.0224(3) 0.8839(3) 0.23754(11)
N5_4 N 0.0448(3) 0.8793(2) 0.27979(13)
C36_4 C 0.0024(3) 0.9377(3) 0.46430(13)
C37_4 C 0.0369(3) 0.8854(3) 0.38631(13)
H24_4 H 0.100746 0.893984 0.386924
H25_4 H 0.009497 0.938253 0.372792
C38_4 C 0.0138(3) 0.8066(3) 0.35691(13)
H29_4 H 0.004007 0.729295 0.247369
C43_4 C 0.0188(3) 0.8033(3) 0.30727(14)
O18_4 O 0.9949(3) 0.1306(2) 0.56719(11)
O19_4 O 0.9122(2) 0.0630(2) 0.70040(11)
O20_4 O 0.9776(3) 0.1161(3) 0.76246(11)
N6_4 N 0.9552(3) 0.1207(2) 0.72021(13)
C47_4 C 0.9976(3) 0.0623(3) 0.53570(13)
C48_4 C 0.9631(3) 0.1146(3) 0.61369(13)
H31_4 H 0.899254 0.106016 0.613076
H32_4 H 0.990503 0.061747 0.627208
C49_4 C 0.9862(3) 0.1934(3) 0.64309(13)
H36_4 H 0.995993 0.270705 0.752631
C54_4 C 0.9812(3) 0.1967(3) 0.69273(14)
loop_
_geom_bond_atom_site_label_1
_geom_bond_atom_site_label_2
_geom_bond_site_symmetry_1
_geom_bond_site_symmetry_2
Zn1 O1 1_555 1_555
O1 C1 1_555 1_555
O2 C1 1_555 1_555
O3 C4 1_555 1_555
O4 N2 1_555 1_555
O5 N2 1_555 1_555
N1 Zn1 1_555 1_555
N2 C11 1_555 1_555
C1 C2 1_555 1_555
C2 C3 1_555 1_555
C3 H1 1_555 1_555
C4 C3 1_555 1_555
C5 O3 1_555 1_555
H2 C5 1_555 1_555
H3 C5 1_555 1_555
C6 C5 1_555 1_555
C11 C6 1_555 1_555
C12 N1 1_555 1_555
H8 C12 1_555 1_555
C13 C12 1_555 1_555
H9 C13 1_555 1_555
C14 C13 1_555 1_555
H13 C21 1_555 1_555
C22 C21 1_555 1_555
H14 C22 1_555 1_555
C23 C22 1_555 1_555
H15 C23 1_555 1_555
C24 C23 1_555 1_555
C26 N1 1_555 1_555
H17 C26 1_555 1_555
C27 C14 1_555 1_555
H18 C27 1_555 1_555
N4 C28 1_555 1_555
C28 H19 1_555 1_555
C29 C28 1_555 1_555
H20 C29 1_555 1_555
C30 C14 1_555 1_555
C31 N4 1_555 1_555
H21 C31 1_555 1_555
C32 C30 1_555 1_555
H22 C32 1_555 1_555
O11 Zn1 1_555 1_555
O12 C33 1_555 1_555
C33 O11 1_555 1_555
C34 C33 1_555 1_555
C35 C34 1_555 1_555
H23 C35 1_555 1_555
O18 C47 1_555 1_555
O19 N6 1_555 1_555
O20 N6 1_555 1_555
N6 C54 1_555 1_555
C47 C34 1_555 1_555
C48 O18 1_555 1_555
H31 C48 1_555 1_555
H32 C48 1_555 1_555
C49 C48 1_555 1_555
C50 C49 1_555 1_555
H33 C50 1_555 1_555
C51 C50 1_555 1_555
H34 C51 1_555 1_555
C52 C51 1_555 1_555
H35 C52 1_555 1_555
C53 C52 1_555 1_555
H36 C53 1_555 1_555
C54 C49 1_555 1_555
Zn2 O2 1_555 1_555
Zn3 N4 1_555 1_555
O21 Zn2 1_555 1_555
O22 Zn2 1_555 1_555
O23 Zn1 1_555 1_555
O24 Zn1 1_555 1_555
N7 Zn2 1_555 1_555
C26 C27 1_555 1_555
C29 C30 1_555 1_555
C31 C32 1_555 1_555
O12 Zn2 1_555 1_555
C53 C54 1_555 1_555
O13 C36 1_555 1_555
O14 N5 1_555 1_555
O15 N5 1_555 1_555
N5 C43 1_555 1_555
C37 O13 1_555 1_555
H24 C37 1_555 1_555
H25 C37 1_555 1_555
C38 C37 1_555 1_555
C39 C38 1_555 1_555
H26 C39 1_555 1_555
C40 C39 1_555 1_555
H27 C40 1_555 1_555
C41 C40 1_555 1_555
H28 C41 1_555 1_555
C42 C41 1_555 1_555
H29 C42 1_555 1_555
C43 C38 1_555 1_555
O16 C44 1_555 1_555
O17 C44 1_555 1_555
C44 C45 1_555 1_555
C45 C36 1_555 1_555
C46 C45 1_555 1_555
H30 C46 1_555 1_555
Zn5 O16 1_555 1_555
Zn7 O17 1_555 1_555
C42 C43 1_555 1_555
H4 C7 1_555 1_555
C8 C7 1_555 1_555
H5 C8 1_555 1_555
C9 C8 1_555 1_555
H6 C9 1_555 1_555
C10 C9 1_555 1_555
O6 C15 1_555 1_555
O7 C15 1_555 1_555
O8 C18 1_555 1_555
O9 N3 1_555 1_555
O10 N3 1_555 1_555
N3 C25 1_555 1_555
C15 C16 1_555 1_555
C17 C16 1_555 1_555
H10 C17 1_555 1_555
C19 O8 1_555 1_555
H11 C19 1_555 1_555
H12 C19 1_555 1_555
C20 C19 1_555 1_555
C25 C20 1_555 1_555
Zn5 O6 1_555 1_555
Zn7 O7 1_555 1_555
C17 C18 1_555 1_555
C3_2 H1_2 1_555 1_555
O13_2 C36_2 1_555 1_555
O14_2 N5_2 1_555 1_555
O15_2 N5_2 1_555 1_555
N5_2 C43_2 1_555 1_555
H23_2 C35_2 1_555 1_555
C36_2 C35_2 1_555 1_555
C37_2 O13_2 1_555 1_555
H24_2 C37_2 1_555 1_555
H25_2 C37_2 1_555 1_555
C38_2 C37_2 1_555 1_555
C39_2 C38_2 1_555 1_555
H26_2 C39_2 1_555 1_555
C40_2 C39_2 1_555 1_555
H27_2 C40_2 1_555 1_555
C41_2 C40_2 1_555 1_555
H28_2 C41_2 1_555 1_555
C42_2 C41_2 1_555 1_555
H29_2 C42_2 1_555 1_555
C43_2 C38_2 1_555 1_555
O16_2 C44_2 1_555 1_555
C44_2 C45_2 1_555 1_555
C45_2 C36_2 1_555 1_555
Zn3 O2_2 1_555 1_555
Zn5_2 O16_2 1_555 1_555
O21_2 Zn3 1_555 1_555
O22_2 Zn3 1_555 1_555
O12_2 Zn3 1_555 1_555
C42_2 C43_2 1_555 1_555
Zn1_2 O1_2 1_555 1_555
O1_2 C1_2 1_555 1_555
N1_2 Zn1_2 1_555 1_555
C1_2 C2_2 1_555 1_555
C12_2 N1_2 1_555 1_555
H8_2 C12_2 1_555 1_555
C13_2 C12_2 1_555 1_555
H9_2 C13_2 1_555 1_555
C14_2 C13_2 1_555 1_555
H13_2 C21_2 1_555 1_555
C22_2 C21_2 1_555 1_555
H14_2 C22_2 1_555 1_555
C23_2 C22_2 1_555 1_555
H15_2 C23_2 1_555 1_555
C24_2 C23_2 1_555 1_555
C26_2 N1_2 1_555 1_555
H17_2 C26_2 1_555 1_555
C27_2 C14_2 1_555 1_555
H18_2 C27_2 1_555 1_555
N7 C28_2 1_555 1_555
C28_2 H19_2 1_555 1_555
C29_2 C28_2 1_555 1_555
H20_2 C29_2 1_555 1_555
C30_2 C14_2 1_555 1_555
C31_2 N7 1_555 1_555
H21_2 C31_2 1_555 1_555
C32_2 C30_2 1_555 1_555
H22_2 C32_2 1_555 1_555
O11_2 Zn1_2 1_555 1_555
C33_2 O11_2 1_555 1_555
C34_2 C33_2 1_555 1_555
O18_2 C47_2 1_555 1_555
O19_2 N6_2 1_555 1_555
O20_2 N6_2 1_555 1_555
N6_2 C54_2 1_555 1_555
H30_2 C46_2 1_555 1_555
C47_2 C34_2 1_555 1_555
C48_2 O18_2 1_555 1_555
H31_2 C48_2 1_555 1_555
H32_2 C48_2 1_555 1_555
C49_2 C48_2 1_555 1_555
C50_2 C49_2 1_555 1_555
H33_2 C50_2 1_555 1_555
C51_2 C50_2 1_555 1_555
H34_2 C51_2 1_555 1_555
C52_2 C51_2 1_555 1_555
H35_2 C52_2 1_555 1_555
C53_2 C52_2 1_555 1_555
H36_2 C53_2 1_555 1_555
C54_2 C49_2 1_555 1_555
Zn7_2 O17_2 1_555 1_555
O23_2 Zn1_2 1_555 1_555
O24_2 Zn1_2 1_555 1_555
C26_2 C27_2 1_555 1_555
C29_2 C30_2 1_555 1_555
C31_2 C32_2 1_555 1_555
C46_2 C47_2 1_555 1_555
C53_2 C54_2 1_555 1_555
H4_2 C7_2 1_555 1_555
C8_2 C7_2 1_555 1_555
H5_2 C8_2 1_555 1_555
C9_2 C8_2 1_555 1_555
H6_2 C9_2 1_555 1_555
C10_2 C9_2 1_555 1_555
O6_2 C15_2 1_555 1_555
C15_2 C16_2 1_555 1_555
Zn5_2 O6_2 1_555 1_555
H10_2 C17_2 1_555 1_555
Zn7_2 O7_2 1_555 1_555
O21 C1_3 1_555 1_555
O23 C1_3 1_555 1_555
O3_2 C4_2 1_555 1_555
O4_2 N2_2 1_555 1_555
O5_2 N2_2 1_555 1_555
N2_2 C11_2 1_555 1_555
C1_3 C2_3 1_555 1_555
C2_3 C3_3 1_555 1_555
C3_3 H1_3 1_555 1_555
C4_2 C3_3 1_555 1_555
C5_2 O3_2 1_555 1_555
H2_2 C5_2 1_555 1_555
H3_2 C5_2 1_555 1_555
C6_2 C5_2 1_555 1_555
C7_3 C6_2 1_555 1_555
H4_3 C7_3 1_555 1_555
C8_3 C7_3 1_555 1_555
H5_3 C8_3 1_555 1_555
C9_3 C8_3 1_555 1_555
H6_3 C9_3 1_555 1_555
C10_3 C9_3 1_555 1_555
H7_2 C10_3 1_555 1_555
C11_2 C6_2 1_555 1_555
O6_3 C15_3 1_555 1_555
O7_3 C15_3 1_555 1_555
O8_2 C18_2 1_555 1_555
O9_2 N3_2 1_555 1_555
O10_2 N3_2 1_555 1_555
N3_2 C25_2 1_555 1_555
C15_3 C16_3 1_555 1_555
C16_3 C4_2 1_555 1_555
C17_3 C16_3 1_555 1_555
H10_3 C17_3 1_555 1_555
C18_2 C2_3 1_555 1_555
C19_2 O8_2 1_555 1_555
H11_2 C19_2 1_555 1_555
H12_2 C19_2 1_555 1_555
C20_2 C19_2 1_555 1_555
C21_3 C20_2 1_555 1_555
H13_3 C21_3 1_555 1_555
C22_3 C21_3 1_555 1_555
H14_3 C22_3 1_555 1_555
C23_3 C22_3 1_555 1_555
H15_3 C23_3 1_555 1_555
C24_3 C23_3 1_555 1_555
H16_2 C24_3 1_555 1_555
C25_2 C20_2 1_555 1_555
O24 C33_3 1_555 1_555
C33_3 O22 1_555 1_555
C34_3 C33_3 1_555 1_555
C35_3 C34_3 1_555 1_555
H23_3 C35_3 1_555 1_555
H33_3 C50_3 1_555 1_555
C51_3 C50_3 1_555 1_555
H34_3 C51_3 1_555 1_555
C52_3 C51_3 1_555 1_555
H35_3 C52_3 1_555 1_555
C53_3 C52_3 1_555 1_555
Zn7 O6_3 1_555 1_555
Zn5 O7_3 1_555 1_555
C10_3 C11_2 1_555 1_555
C17_3 C18_2 1_555 1_555
C24_3 C25_2 1_555 1_555
H26_3 C39_3 1_555 1_555
C40_3 C39_3 1_555 1_555
H27_3 C40_3 1_555 1_555
C41_3 C40_3 1_555 1_555
H28_3 C41_3 1_555 1_555
C42_3 C41_3 1_555 1_555
O16_3 C44_3 1_555 1_555
O17_3 C44_3 1_555 1_555
C44_3 C45_3 1_555 1_555
C46_3 C45_3 1_555 1_555
H30_3 C46_3 1_555 1_555
Zn7 O16_3 1_555 1_555
Zn5 O17_3 1_555 1_555
O22_2 C1_4 1_555 1_555
C1_4 C2_4 1_555 1_555
H13_4 C21_4 1_555 1_555
C22_4 C21_4 1_555 1_555
H14_4 C22_4 1_555 1_555
C23_4 C22_4 1_555 1_555
H15_4 C23_4 1_555 1_555
C24_4 C23_4 1_555 1_555
C33_4 O21_2 1_555 1_555
C34_4 C33_4 1_555 1_555
O18_3 C47_3 1_555 1_555
O19_3 N6_3 1_555 1_555
O20_3 N6_3 1_555 1_555
N6_3 C54_3 1_555 1_555
C47_3 C34_4 1_555 1_555
C48_3 O18_3 1_555 1_555
H31_3 C48_3 1_555 1_555
H32_3 C48_3 1_555 1_555
C49_3 C48_3 1_555 1_555
C50_4 C49_3 1_555 1_555
H33_4 C50_4 1_555 1_555
C51_4 C50_4 1_555 1_555
H34_4 C51_4 1_555 1_555
C52_4 C51_4 1_555 1_555
H35_4 C52_4 1_555 1_555
C53_4 C52_4 1_555 1_555
H36_3 C53_4 1_555 1_555
C54_3 C49_3 1_555 1_555
C53_4 C54_3 1_555 1_555
O3_3 C4_3 1_555 1_555
O4_3 N2_3 1_555 1_555
O5_3 N2_3 1_555 1_555
N2_3 C11_3 1_555 1_555
C3_4 H1_4 1_555 1_555
C4_3 C3_4 1_555 1_555
C5_3 O3_3 1_555 1_555
H2_3 C5_3 1_555 1_555
H3_3 C5_3 1_555 1_555
C6_3 C5_3 1_555 1_555
C11_3 C6_3 1_555 1_555
H23_4 C35_4 1_555 1_555
O8_3 C18_3 1_555 1_555
O9_3 N3_3 1_555 1_555
O10_3 N3_3 1_555 1_555
N3_3 C25_3 1_555 1_555
H10_4 C17_4 1_555 1_555
C19_3 O8_3 1_555 1_555
H11_3 C19_3 1_555 1_555
H12_3 C19_3 1_555 1_555
C20_3 C19_3 1_555 1_555
C25_3 C20_3 1_555 1_555
Zn5_2 O7_4 1_555 1_555
C17_4 C18_3 1_555 1_555
H4_4 C7_4 1_555 1_555
C8_4 C7_4 1_555 1_555
H5_4 C8_4 1_555 1_555
C9_4 C8_4 1_555 1_555
H6_4 C9_4 1_555 1_555
C10_4 C9_4 1_555 1_555
O6_4 C15_4 1_555 1_555
C15_4 C16_4 1_555 1_555
Zn7_2 O6_4 1_555 1_555
H30_4 C46_4 1_555 1_555
Zn5_2 O17_4 1_555 1_555
O13_3 C36_3 1_555 1_555
O14_3 N5_3 1_555 1_555
O15_3 N5_3 1_555 1_555
N5_3 C43_3 1_555 1_555
C37_3 O13_3 1_555 1_555
H24_3 C37_3 1_555 1_555
H25_3 C37_3 1_555 1_555
C38_3 C37_3 1_555 1_555
C39_4 C38_3 1_555 1_555
H26_4 C39_4 1_555 1_555
C40_4 C39_4 1_555 1_555
H27_4 C40_4 1_555 1_555
C41_4 C40_4 1_555 1_555
H28_4 C41_4 1_555 1_555
C42_4 C41_4 1_555 1_555
H29_3 C42_4 1_555 1_555
C43_3 C38_3 1_555 1_555
O16_4 C44_4 1_555 1_555
C44_4 C45_4 1_555 1_555
C45_4 C36_3 1_555 1_555
Zn7_2 O16_4 1_555 1_555
C42_4 C43_3 1_555 1_555
N1_3 Zn5 1_555 1_555
C12_3 N1_3 1_555 1_555
H8_3 C12_3 1_555 1_555
C13_3 C12_3 1_555 1_555
H9_3 C13_3 1_555 1_555
C14_3 C13_3 1_555 1_555
C26_3 N1_3 1_555 1_555
H17_3 C26_3 1_555 1_555
C27_3 C14_3 1_555 1_555
H18_3 C27_3 1_555 1_555
N4_2 C28_3 1_555 1_555
C28_3 H19_3 1_555 1_555
C29_3 C28_3 1_555 1_555
H20_3 C29_3 1_555 1_555
C30_3 C14_3 1_555 1_555
C31_3 N4_2 1_555 1_555
H21_3 C31_3 1_555 1_555
C32_3 C30_3 1_555 1_555
H22_3 C32_3 1_555 1_555
Zn7_2 N4_2 1_555 1_555
N7_2 Zn7 1_555 1_555
C26_3 C27_3 1_555 1_555
C29_3 C30_3 1_555 1_555
C31_3 C32_3 1_555 1_555
N1_4 Zn5_2 1_555 1_555
C12_4 N1_4 1_555 1_555
H8_4 C12_4 1_555 1_555
C13_4 C12_4 1_555 1_555
H9_4 C13_4 1_555 1_555
C14_4 C13_4 1_555 1_555
C26_4 N1_4 1_555 1_555
H17_4 C26_4 1_555 1_555
C27_4 C14_4 1_555 1_555
H18_4 C27_4 1_555 1_555
N7_2 C28_4 1_555 1_555
C28_4 H19_4 1_555 1_555
C29_4 C28_4 1_555 1_555
H20_4 C29_4 1_555 1_555
C30_4 C14_4 1_555 1_555
C31_4 N7_2 1_555 1_555
H21_4 C31_4 1_555 1_555
C32_4 C30_4 1_555 1_555
H22_4 C32_4 1_555 1_555
C26_4 C27_4 1_555 1_555
C29_4 C30_4 1_555 1_555
C31_4 C32_4 1_555 1_555
O8_4 C18_4 1_555 1_555
O9_4 N3_4 1_555 1_555
O10_4 N3_4 1_555 1_555
N3_4 C25_4 1_555 1_555
C19_4 O8_4 1_555 1_555
H11_4 C19_4 1_555 1_555
H12_4 C19_4 1_555 1_555
C20_4 C19_4 1_555 1_555
C25_4 C20_4 1_555 1_555
O3_4 C4_4 1_555 1_555
O4_4 N2_4 1_555 1_555
O5_4 N2_4 1_555 1_555
N2_4 C11_4 1_555 1_555
C5_4 O3_4 1_555 1_555
H2_4 C5_4 1_555 1_555
H3_4 C5_4 1_555 1_555
C6_4 C5_4 1_555 1_555
C11_4 C6_4 1_555 1_555
O13_4 C36_4 1_555 1_555
O14_4 N5_4 1_555 1_555
O15_4 N5_4 1_555 1_555
N5_4 C43_4 1_555 1_555
C37_4 O13_4 1_555 1_555
H24_4 C37_4 1_555 1_555
H25_4 C37_4 1_555 1_555
C38_4 C37_4 1_555 1_555
C43_4 C38_4 1_555 1_555
O18_4 C47_4 1_555 1_555
O19_4 N6_4 1_555 1_555
O20_4 N6_4 1_555 1_555
N6_4 C54_4 1_555 1_555
C48_4 O18_4 1_555 1_555
H31_4 C48_4 1_555 1_555
H32_4 C48_4 1_555 1_555
C49_4 C48_4 1_555 1_555
C54_4 C49_4 1_555 1_555

#END
