
###############################################################################
#
# This file contains modified crystal structure data generated from the
# MOF subset of the Cambridge Structural Database (CSD) v543 
# hosted by the Cambridge Crystallographic Data Centre (CCDC).
#
# This work is licensed under the Creative Commons
# Attribution-NonCommercial-ShareAlike 4.0 International License.
# To view a copy of this license, visit
# http://creativecommons.org/licenses/by-nc-sa/4.0/
# or send a letter to
# Creative Commons, PO Box 1866, Mountain View, CA 94042, USA.
#
# CIF created using the CSD Python API on 29 September 2022
# The structure has been converted into the P1 space group
# The structure has a 3D framework
# The original CSD entry YAMKOP is in the monoclinic crystal system
# The framework has been calculated to contain at least 10.0% void space
# The void calculation uses a probe of radius 1.32A, grid spacing 0.4
# The framework is charged, counterions have been retained in the structure
#
###############################################################################

data_YAMKOP
_chemical_formula_moiety         '(C72 H60 Cl4 Mn4 N24 O16 4+)n'
_symmetry_cell_setting           triclinic
_symmetry_space_group_name_H-M   'P 1'
_symmetry_Int_Tables_number      1
_space_group_name_Hall           'P 1'
loop_
_symmetry_equiv_pos_site_id
_symmetry_equiv_pos_as_xyz
1 x,y,z
_cell_length_a                   8.311(2)
_cell_length_b                   21.674(6)
_cell_length_c                   13.501(4)
_cell_angle_alpha                90
_cell_angle_beta                 103.323(5)
_cell_angle_gamma                90
_cell_volume                     2366.52
loop_
_atom_site_label
_atom_site_type_symbol
_atom_site_fract_x
_atom_site_fract_y
_atom_site_fract_z
Mn1 Mn 0.0000 -0.0000 0.5000
H4 H 0.0073 0.1940 0.7821
H22 H 0.2943 0.0209 0.3614
N14 N 0.1443(6) 0.0871(2) 0.4895(3)
Mn1_2 Mn 0.0000 1.0000 0.5000
N9 N 0.1425(6) 0.9526(2) 0.3981(3)
N10 N 0.2212(6) 0.8850(2) 0.2961(4)
N11 N 0.2608(6) 0.6699(2) 0.0728(4)
N12 N 0.3557(6) 0.5871(2) 0.0105(3)
C25 C 0.1262(8) 0.8964(3) 0.3625(4)
H21 H 0.0563 0.8672 0.3810
C26 C 0.2578(8) 0.9803(3) 0.3515(5)
C27 C 0.3080(8) 0.9393(3) 0.2900(5)
H23 H 0.3853 0.9460 0.2511
C28 C 0.2318(8) 0.8293(3) 0.2417(4)
C29 C 0.0940(9) 0.7939(3) 0.2062(5)
C30 C 0.1048(8) 0.7408(3) 0.1535(5)
H25 H 0.0119 0.7162 0.1310
C31 C 0.2553(8) 0.7239(3) 0.1339(4)
C32 C 0.3944(8) 0.7580(3) 0.1708(5)
H26 H 0.4958 0.7458 0.1593
C33 C 0.3817(8) 0.8108(3) 0.2254(5)
H27 H 0.4757 0.8342 0.2516
C34 C 0.3885(7) 0.6309(3) 0.0785(4)
H28 H 0.4889 0.6347 0.1257
Mn4 Mn 0.5000 0.5000 0.0000
N15 N 0.1965(6) 0.9702(2) 0.6421(3)
C11 C 0.8628(8) 0.3506(3) 0.0055(5)
H9 H 0.9671 0.3333 0.0284
C12 C 0.8026(8) 0.4010(3) 0.0426(5)
H10 H 0.8606 0.4245 0.0968
H16 H 0.1606 0.0242 0.7551
C24 C 0.4137(8) 0.0436(3) 0.9347(5)
H20 H 0.3564 0.0732 0.8905
N8 N 0.3605(6) 0.9692(2) 0.7957(3)
C19 C 0.2256(8) 0.9940(3) 0.7348(4)
C20 C 0.3156(8) 0.9265(3) 0.6458(5)
H17 H 0.3247 0.9011 0.5918
C21 C 0.4178(8) 0.9255(3) 0.7386(5)
H18 H 0.5095 0.9001 0.7600
C22 C 0.4309(7) 0.9854(3) 0.9005(4)
C23 C 0.5179(8) 0.9414(3) 0.9642(4)
H19 H 0.5309 0.9020 0.9400
N5 N 0.6965(6) 0.5298(2) 0.1421(3)
N6 N 0.8605(6) 0.5308(2) 0.2957(3)
C13 C 0.7256(8) 0.5060(3) 0.2348(4)
H11 H 0.6606 0.4758 0.2551
C14 C 0.8156(8) 0.5735(3) 0.1458(5)
H12 H 0.8247 0.5989 0.0918
C15 C 0.9178(8) 0.5745(3) 0.2386(5)
C16 C 0.9309(7) 0.5146(3) 0.4005(4)
C18 C 0.9137(8) 0.4564(3) 0.4347(5)
H15 H 0.8564 0.4268 0.3905
H18_2 H 0.9905 0.4001 0.7400
C23_2 C 0.9821(8) 0.4414(3) 0.5358(4)
H19_2 H 0.9691 0.4020 0.5600
N9_2 N 0.3575(6) 0.4526(2) 0.1019(3)
N10_2 N 0.2788(6) 0.3850(2) 0.2039(4)
N11_2 N 0.2392(6) 0.1699(2) 0.4272(4)
C25_2 C 0.3738(8) 0.3964(3) 0.1375(4)
H21_2 H 0.4437 0.3672 0.1190
C26_2 C 0.2422(8) 0.4803(3) 0.1485(5)
H22_2 H 0.2057 0.5209 0.1386
C27_2 C 0.1920(8) 0.4393(3) 0.2100(5)
H23_2 H 0.1147 0.4460 0.2489
C28_2 C 0.2682(8) 0.3293(3) 0.2583(4)
C29_2 C 0.4060(9) 0.2939(3) 0.2938(5)
H24 H 0.5073 0.3060 0.2821
C30_2 C 0.3952(8) 0.2408(3) 0.3465(5)
H25_2 H 0.4881 0.2162 0.3690
C31_2 C 0.2447(8) 0.2239(3) 0.3661(4)
C32_2 C 0.1056(8) 0.2580(3) 0.3292(5)
H26_2 H 0.0042 0.2458 0.3407
C33_2 C 0.1183(8) 0.3108(3) 0.2746(5)
H27_2 H 0.0243 0.3342 0.2484
C34_2 C 0.1115(7) 0.1309(3) 0.4215(4)
H28_2 H 0.0111 0.1347 0.3743
C35 C 0.3628(8) 0.1494(3) 0.5055(5)
H29 H 0.4671 0.1667 0.5284
C36 C 0.3026(8) 0.0990(3) 0.5426(5)
H30 H 0.3606 0.0755 0.5968
C35_2 C 0.1372(8) 0.6494(3) 0.9945(5)
H29_2 H 0.0329 0.6667 0.9716
C36_2 C 0.1974(8) 0.5990(3) 0.9574(5)
H30_2 H 0.1394 0.5755 0.9032
Mn4_2 Mn 0.5000 0.5000 1.0000
Mn1_3 Mn 1.0000 -0.0000 0.5000
N1 N 0.8575(6) 0.0474(2) 0.6019(3)
N2 N 0.7788(6) 0.1150(2) 0.7039(4)
N3 N 0.7392(6) 0.3301(2) 0.9272(4)
N4 N 0.6443(6) 0.4129(2) 0.9895(3)
N5_2 N 0.8035(6) 0.0298(2) 0.3579(3)
N6_2 N 0.6395(6) 0.0308(2) 0.2043(3)
C1 C 0.8738(8) 0.1036(3) 0.6375(4)
H1 H 0.9437 0.1328 0.6190
C2 C 0.7422(8) 0.0197(3) 0.6485(5)
C3 C 0.6920(8) 0.0607(3) 0.7100(5)
H3 H 0.6147 0.0540 0.7489
C4 C 0.7682(8) 0.1707(3) 0.7583(4)
C5 C 0.9060(9) 0.2061(3) 0.7938(5)
C6 C 0.8952(8) 0.2592(3) 0.8465(5)
H5 H 0.9881 0.2838 0.8690
C7 C 0.7447(8) 0.2761(3) 0.8661(4)
C8 C 0.6056(8) 0.2420(3) 0.8292(5)
H6 H 0.5042 0.2542 0.8407
C9 C 0.6183(8) 0.1892(3) 0.7746(5)
H7 H 0.5243 0.1658 0.7484
C10 C 0.6115(7) 0.3691(3) 0.9215(4)
H8 H 0.5111 0.3653 0.8743
C13_2 C 0.7744(8) 0.0060(3) 0.2652(4)
C14_2 C 0.6844(8) 0.0735(3) 0.3542(5)
H12_2 H 0.6753 0.0989 0.4082
C15_2 C 0.5822(8) 0.0745(3) 0.2614(5)
H13 H 0.4905 0.0999 0.2400
C16_2 C 0.5691(7) 0.0146(3) 0.0995(4)
C17 C 0.4821(8) 0.0586(3) 0.0358(4)
H14 H 0.4691 0.0980 0.0600
Mn1_4 Mn 1.0000 1.0000 0.5000
H2 H 0.7057 0.9791 0.6386
H11_2 H 0.8394 0.9758 0.2449
C18_2 C 0.5863(8) 0.9564(3) 0.0653(5)
H15_2 H 0.6436 0.9268 0.1095
H24_2 H 0.9927 0.8060 0.2179
N13 N 0.8557(6) 0.9129(2) 0.5105(3)
H13_2 H 0.0095 0.5999 0.2600
C17_2 C 0.0179(8) 0.5586(3) 0.4642(4)
H14_2 H 0.0309 0.5980 0.4400
N7 N 0.3035(6) 0.4702(2) 0.8579(3)
N8_2 N 0.1395(6) 0.4692(2) 0.7043(3)
C19_2 C 0.2744(8) 0.4940(3) 0.7652(4)
H16_2 H 0.3394 0.5242 0.7449
C20_2 C 0.1844(8) 0.4265(3) 0.8542(5)
H17_2 H 0.1753 0.4011 0.9082
C21_2 C 0.0822(8) 0.4255(3) 0.7614(5)
C22_2 C 0.0691(7) 0.4854(3) 0.5995(4)
C24_2 C 0.0863(8) 0.5436(3) 0.5653(5)
H20_2 H 0.1436 0.5732 0.6095
N1_2 N 0.6425(6) 0.5474(2) 0.8981(3)
N2_2 N 0.7212(6) 0.6150(2) 0.7961(4)
N3_2 N 0.7608(6) 0.8301(2) 0.5728(4)
C1_2 C 0.6262(8) 0.6036(3) 0.8625(4)
H1_2 H 0.5563 0.6328 0.8810
C2_2 C 0.7578(8) 0.5197(3) 0.8515(5)
H2_2 H 0.7943 0.4791 0.8614
C3_2 C 0.8080(8) 0.5607(3) 0.7900(5)
H3_2 H 0.8853 0.5540 0.7511
C4_2 C 0.7318(8) 0.6707(3) 0.7417(4)
C5_2 C 0.5940(9) 0.7061(3) 0.7062(5)
H4_2 H 0.4927 0.6940 0.7179
C6_2 C 0.6048(8) 0.7592(3) 0.6535(5)
H5_2 H 0.5119 0.7838 0.6310
C7_2 C 0.7553(8) 0.7761(3) 0.6339(4)
C8_2 C 0.8944(8) 0.7420(3) 0.6708(5)
H6_2 H 0.9958 0.7542 0.6593
C9_2 C 0.8817(8) 0.6892(3) 0.7254(5)
H7_2 H 0.9757 0.6658 0.7516
C10_2 C 0.8885(7) 0.8691(3) 0.5785(4)
H8_2 H 0.9889 0.8653 0.6257
C11_2 C 0.6372(8) 0.8506(3) 0.4945(5)
H9_2 H 0.5329 0.8333 0.4716
C12_2 C 0.6974(8) 0.9010(3) 0.4574(5)
H10_2 H 0.6394 0.9245 0.4032
Cl1 Cl 0.3246(3) 0.23770(10) 0.01501(18)
O1 O 0.1967(8) 0.2534(4) 0.0585(6)
O2 O 0.4826(9) 0.2464(5) 0.0642(7)
O3 O 0.2925(7) 0.1887(3) 0.9472(5)
O4 O 0.2978(12) 0.2888(4) 0.9397(10)
Cl1_2 Cl 0.1754(3) 0.73770(10) 0.48499(18)
O1_2 O 0.3033(8) 0.7534(4) 0.4415(6)
O2_2 O 0.0174(9) 0.7464(5) 0.4358(7)
O3_2 O 0.2075(7) 0.6887(3) 0.5528(5)
O4_2 O 0.2022(12) 0.7888(4) 0.5603(10)
O3_3 O 0.7075(7) 0.8113(3) 0.0528(5)
O4_3 O 0.7022(12) 0.7112(4) 0.0603(10)
Cl1_3 Cl 0.6754(3) 0.76230(10) 0.98499(18)
O1_3 O 0.8033(8) 0.7466(4) 0.9415(6)
O2_3 O 0.5174(9) 0.7536(5) 0.9358(7)
Cl1_4 Cl 0.8246(3) 0.26230(10) 0.51501(18)
O1_4 O 0.6967(8) 0.2466(4) 0.5585(6)
O2_4 O 0.9826(9) 0.2536(5) 0.5642(7)
O3_4 O 0.7925(7) 0.3113(3) 0.4472(5)
O4_4 O 0.7978(12) 0.2112(4) 0.4397(10)
loop_
_geom_bond_atom_site_label_1
_geom_bond_atom_site_label_2
_geom_bond_site_symmetry_1
_geom_bond_site_symmetry_2
N14 Mn1 1_555 1_555
N9 Mn1_2 1_555 1_555
N10 C25 1_555 1_555
N11 C31 1_555 1_555
N12 C34 1_555 1_555
C25 N9 1_555 1_555
H21 C25 1_555 1_555
C26 N9 1_555 1_555
C27 N10 1_555 1_555
H23 C27 1_555 1_555
C28 N10 1_555 1_555
C29 C28 1_555 1_555
C30 C29 1_555 1_555
H25 C30 1_555 1_555
C31 C30 1_555 1_555
C32 C31 1_555 1_555
H26 C32 1_555 1_555
C33 C28 1_555 1_555
H27 C33 1_555 1_555
C34 N11 1_555 1_555
H28 C34 1_555 1_555
Mn4 N12 1_555 1_555
N15 Mn1_2 1_555 1_555
C26 C27 1_555 1_555
C32 C33 1_555 1_555
H9 C11 1_555 1_555
H10 C12 1_555 1_555
C11 C12 1_555 1_555
H20 C24 1_555 1_555
N15 C19 1_555 1_555
N8 C19 1_555 1_555
C20 N15 1_555 1_555
H17 C20 1_555 1_555
C21 N8 1_555 1_555
H18 C21 1_555 1_555
C22 N8 1_555 1_555
H19 C23 1_555 1_555
C20 C21 1_555 1_555
C22 C23 1_555 1_555
N5 Mn4 1_555 1_555
N6 C13 1_555 1_555
C13 N5 1_555 1_555
H11 C13 1_555 1_555
C14 N5 1_555 1_555
H12 C14 1_555 1_555
C15 N6 1_555 1_555
C16 N6 1_555 1_555
C18 C16 1_555 1_555
H15 C18 1_555 1_555
C23_2 C18 1_555 1_555
H19_2 C23_2 1_555 1_555
N9_2 Mn4 1_555 1_555
N10_2 C25_2 1_555 1_555
N11_2 C31_2 1_555 1_555
N14 C34_2 1_555 1_555
C25_2 N9_2 1_555 1_555
H21_2 C25_2 1_555 1_555
C26_2 N9_2 1_555 1_555
H22_2 C26_2 1_555 1_555
C27_2 N10_2 1_555 1_555
H23_2 C27_2 1_555 1_555
C28_2 N10_2 1_555 1_555
C29_2 C28_2 1_555 1_555
H24 C29_2 1_555 1_555
C30_2 C29_2 1_555 1_555
H25_2 C30_2 1_555 1_555
C31_2 C30_2 1_555 1_555
C32_2 C31_2 1_555 1_555
H26_2 C32_2 1_555 1_555
C33_2 C28_2 1_555 1_555
H27_2 C33_2 1_555 1_555
C34_2 N11_2 1_555 1_555
H28_2 C34_2 1_555 1_555
C35 N11_2 1_555 1_555
H29 C35 1_555 1_555
C36 N14 1_555 1_555
H30 C36 1_555 1_555
C14 C15 1_555 1_555
C26_2 C27_2 1_555 1_555
C32_2 C33_2 1_555 1_555
C35 C36 1_555 1_555
H29_2 C35_2 1_555 1_555
H30_2 C36_2 1_555 1_555
C35_2 C36_2 1_555 1_555
Mn1_3 N1 1_555 1_555
N1 C1 1_555 1_555
N2 C1 1_555 1_555
N3 C7 1_555 1_555
N4 C10 1_555 1_555
N5_2 Mn1_3 1_555 1_555
N6_2 C13_2 1_555 1_555
C1 H1 1_555 1_555
C2 N1 1_555 1_555
C3 N2 1_555 1_555
H3 C3 1_555 1_555
C4 N2 1_555 1_555
C5 C4 1_555 1_555
C6 C5 1_555 1_555
H5 C6 1_555 1_555
C7 C6 1_555 1_555
C8 C7 1_555 1_555
H6 C8 1_555 1_555
C9 C4 1_555 1_555
H7 C9 1_555 1_555
C10 N3 1_555 1_555
H8 C10 1_555 1_555
C13_2 N5_2 1_555 1_555
C14_2 N5_2 1_555 1_555
H12_2 C14_2 1_555 1_555
C15_2 N6_2 1_555 1_555
H13 C15_2 1_555 1_555
C16_2 N6_2 1_555 1_555
C17 C16_2 1_555 1_555
H14 C17 1_555 1_555
Mn4_2 N4 1_555 1_555
C2 C3 1_555 1_555
C8 C9 1_555 1_555
C14_2 C15_2 1_555 1_555
H15_2 C18_2 1_555 1_555
N13 Mn1_4 1_555 1_555
H14_2 C17_2 1_555 1_555
N7 C19_2 1_555 1_555
N8_2 C19_2 1_555 1_555
C19_2 H16_2 1_555 1_555
C20_2 N7 1_555 1_555
H17_2 C20_2 1_555 1_555
C21_2 N8_2 1_555 1_555
C22_2 N8_2 1_555 1_555
C24_2 C17_2 1_555 1_555
H20_2 C24_2 1_555 1_555
Mn4_2 N7 1_555 1_555
C20_2 C21_2 1_555 1_555
C22_2 C24_2 1_555 1_555
Mn4_2 N1_2 1_555 1_555
N1_2 C1_2 1_555 1_555
N2_2 C1_2 1_555 1_555
N3_2 C7_2 1_555 1_555
N13 C10_2 1_555 1_555
C1_2 H1_2 1_555 1_555
C2_2 N1_2 1_555 1_555
H2_2 C2_2 1_555 1_555
C3_2 N2_2 1_555 1_555
H3_2 C3_2 1_555 1_555
C4_2 N2_2 1_555 1_555
C5_2 C4_2 1_555 1_555
H4_2 C5_2 1_555 1_555
C6_2 C5_2 1_555 1_555
H5_2 C6_2 1_555 1_555
C7_2 C6_2 1_555 1_555
C8_2 C7_2 1_555 1_555
H6_2 C8_2 1_555 1_555
C9_2 C4_2 1_555 1_555
H7_2 C9_2 1_555 1_555
C10_2 N3_2 1_555 1_555
H8_2 C10_2 1_555 1_555
C11_2 N3_2 1_555 1_555
H9_2 C11_2 1_555 1_555
C12_2 N13 1_555 1_555
H10_2 C12_2 1_555 1_555
C2_2 C3_2 1_555 1_555
C8_2 C9_2 1_555 1_555
C11_2 C12_2 1_555 1_555
Cl1 O1 1_555 1_555
O2 Cl1 1_555 1_555
Cl1_2 O1_2 1_555 1_555
O2_2 Cl1_2 1_555 1_555
O3_2 Cl1_2 1_555 1_555
O4_2 Cl1_2 1_555 1_555
Cl1_3 O1_3 1_555 1_555
O2_3 Cl1_3 1_555 1_555
Cl1_4 O1_4 1_555 1_555
O2_4 Cl1_4 1_555 1_555
O3_4 Cl1_4 1_555 1_555
O4_4 Cl1_4 1_555 1_555

#END
