
###############################################################################
#
# This file contains modified crystal structure data generated from the
# MOF subset of the Cambridge Structural Database (CSD) v543 
# hosted by the Cambridge Crystallographic Data Centre (CCDC).
#
# This work is licensed under the Creative Commons
# Attribution-NonCommercial-ShareAlike 4.0 International License.
# To view a copy of this license, visit
# http://creativecommons.org/licenses/by-nc-sa/4.0/
# or send a letter to
# Creative Commons, PO Box 1866, Mountain View, CA 94042, USA.
#
# CIF created using the CSD Python API on 29 September 2022
# The structure has been converted into the P1 space group
# The structure has a 3D framework
# The original CSD entry YAMPEL is in the monoclinic crystal system
# The framework has been calculated to contain at least 10.0% void space
# The void calculation uses a probe of radius 1.32A, grid spacing 0.4
#
###############################################################################

data_YAMPEL
_chemical_formula_moiety         '(C424 H320 Li22 N16 O136 Zn16 4+)n'
_symmetry_cell_setting           triclinic
_symmetry_space_group_name_H-M   'P 1'
_symmetry_Int_Tables_number      1
_space_group_name_Hall           'P 1'
loop_
_symmetry_equiv_pos_site_id
_symmetry_equiv_pos_as_xyz
1 x,y,z
_cell_length_a                   19.4368(7)
_cell_length_b                   29.1158(12)
_cell_length_c                   27.0718(15)
_cell_angle_alpha                90
_cell_angle_beta                 92.466(4)
_cell_angle_gamma                90
_cell_volume                     15306.2
loop_
_atom_site_label
_atom_site_type_symbol
_atom_site_fract_x
_atom_site_fract_y
_atom_site_fract_z
N1 N 0.3335(7) 0.6828(7) 0.7045(6)
H1 H 0.322959 0.680476 0.736855
H2 H 0.361745 0.707433 0.701207
C1 C 0.2717(8) 0.6888(8) 0.6742(7)
H3 H 0.232459 0.692694 0.695387
H4 H 0.264271 0.661722 0.653194
H5 H 0.276234 0.716104 0.653442
C2 C 0.3699(10) 0.6384(8) 0.6878(8)
H6 H 0.406125 0.629985 0.712417
H7 H 0.390353 0.643731 0.655823
H8 H 0.336208 0.613417 0.684533
N1_2 N 0.6665(7) 0.6828(7) 0.7955(6)
H1_2 H 0.677041 0.680476 0.763145
H2_2 H 0.638255 0.707433 0.798793
C1_2 C 0.7283(8) 0.6888(8) 0.8258(7)
H3_2 H 0.767541 0.692694 0.804613
H4_2 H 0.735729 0.661722 0.846806
H5_2 H 0.723766 0.716104 0.846558
C2_2 C 0.6301(10) 0.6384(8) 0.8122(8)
H6_2 H 0.593875 0.629985 0.787583
H7_2 H 0.609647 0.643731 0.844177
H8_2 H 0.663792 0.613417 0.815467
N1_3 N 0.8335(7) 0.1828(7) 0.7045(6)
H1_3 H 0.822959 0.180476 0.736855
H2_3 H 0.861745 0.207433 0.701207
C1_3 C 0.7717(8) 0.1888(8) 0.6742(7)
H3_3 H 0.732459 0.192694 0.695387
H4_3 H 0.764271 0.161722 0.653194
H5_3 H 0.776234 0.216104 0.653442
C2_3 C 0.8699(10) 0.1384(8) 0.6878(8)
H6_3 H 0.906125 0.129985 0.712417
H7_3 H 0.890353 0.143731 0.655823
H8_3 H 0.836208 0.113417 0.684533
N1_4 N 0.1665(7) 0.1828(7) 0.7955(6)
H1_4 H 0.177041 0.180476 0.763145
H2_4 H 0.138255 0.207433 0.798793
C1_4 C 0.2283(8) 0.1888(8) 0.8258(7)
H3_4 H 0.267541 0.192694 0.804613
H4_4 H 0.235729 0.161722 0.846806
H5_4 H 0.223766 0.216104 0.846558
C2_4 C 0.1301(10) 0.1384(8) 0.8122(8)
H6_4 H 0.093875 0.129985 0.787583
H7_4 H 0.109647 0.143731 0.844177
H8_4 H 0.163792 0.113417 0.815467
N1_5 N 0.6665(7) 0.3172(7) 0.2955(6)
H1_5 H 0.677041 0.319524 0.263145
H2_5 H 0.638255 0.292567 0.298793
C1_5 C 0.7283(8) 0.3112(8) 0.3258(7)
H3_5 H 0.767541 0.307306 0.304613
H4_5 H 0.735729 0.338278 0.346806
H5_5 H 0.723766 0.283896 0.346558
C2_5 C 0.6301(10) 0.3616(8) 0.3122(8)
H6_5 H 0.593875 0.370015 0.287583
H7_5 H 0.609647 0.356269 0.344177
H8_5 H 0.663792 0.386583 0.315467
N1_6 N 0.3335(7) 0.3172(7) 0.2045(6)
H1_6 H 0.322959 0.319524 0.236855
H2_6 H 0.361745 0.292567 0.201207
C1_6 C 0.2717(8) 0.3112(8) 0.1742(7)
H3_6 H 0.232459 0.307306 0.195387
H4_6 H 0.264271 0.338278 0.153194
H5_6 H 0.276234 0.283896 0.153442
C2_6 C 0.3699(10) 0.3616(8) 0.1878(8)
H6_6 H 0.406125 0.370015 0.212417
H7_6 H 0.390353 0.356269 0.155823
H8_6 H 0.336208 0.386583 0.184533
N1_7 N 0.1665(7) 0.8172(7) 0.2955(6)
H1_7 H 0.177041 0.819524 0.263145
H2_7 H 0.138255 0.792567 0.298793
C1_7 C 0.2283(8) 0.8112(8) 0.3258(7)
H3_7 H 0.267541 0.807306 0.304613
H4_7 H 0.235729 0.838278 0.346806
H5_7 H 0.223766 0.783896 0.346558
C2_7 C 0.1301(10) 0.8616(8) 0.3122(8)
H6_7 H 0.093875 0.870015 0.287583
H7_7 H 0.109647 0.856269 0.344177
H8_7 H 0.163792 0.886583 0.315467
N1_8 N 0.8335(7) 0.8172(7) 0.2045(6)
H1_8 H 0.822959 0.819524 0.236855
H2_8 H 0.861745 0.792567 0.201207
C1_8 C 0.7717(8) 0.8112(8) 0.1742(7)
H3_8 H 0.732459 0.807306 0.195387
H4_8 H 0.764271 0.838278 0.153194
H5_8 H 0.776234 0.783896 0.153442
C2_8 C 0.8699(10) 0.8616(8) 0.1878(8)
H6_8 H 0.906125 0.870015 0.212417
H7_8 H 0.890353 0.856269 0.155823
H8_8 H 0.836208 0.886583 0.184533
Li1 Li 0.6944(6) 0.7298(5) 0.4786(5)
Zn1 Zn 0.67605(4) 0.73106(3) 0.35808(3)
Li2 Li 0.2704(7) 0.7275(5) 0.5426(5)
Zn2 Zn 0.31360(4) 0.63099(3) 0.53253(4)
Li3 Li 0.000000 0.8313(9) 0.750000
O1 O 0.6840(4) 0.6653(2) 0.3720(3)
O2 O 0.6926(4) 0.6699(2) 0.4534(3)
C3 C 0.6925(5) 0.6486(3) 0.4142(4)
C4 C 0.6986(5) 0.5965(3) 0.4157(4)
C5 C 0.6629(6) 0.5740(4) 0.4506(4)
H9 H 0.638218 0.590922 0.474033
C6 C 0.6625(6) 0.5264(3) 0.4517(4)
H10 H 0.633531 0.511383 0.474030
C7 C 0.7016(4) 0.5006(3) 0.4225(4)
C8 C 0.7486(6) 0.5231(3) 0.3906(5)
C9 C 0.7927(6) 0.4979(4) 0.3589(5)
H11 H 0.788370 0.465565 0.355529
C10 C 0.8420(8) 0.5221(5) 0.3330(6)
H12 H 0.877261 0.506049 0.316938
C11 C 0.8388(7) 0.5695(4) 0.3313(6)
H13 H 0.868517 0.585552 0.310265
C12 C 0.7948(6) 0.5939(4) 0.3584(5)
H14 H 0.797103 0.626503 0.358337
C13 C 0.7456(6) 0.5717(3) 0.3868(5)
C14 C 0.6969(5) 0.4491(3) 0.4259(5)
O3 O 0.7098(4) 0.4249(2) 0.3914(3)
H15 H 0.730508 0.401255 0.401818
O4 O 0.6779(3) 0.4350(2) 0.4681(3)
O5 O 0.5963(3) 0.7644(2) 0.3757(3)
O6 O 0.6200(3) 0.7629(3) 0.4562(3)
C15 C 0.5841(5) 0.7743(3) 0.4189(5)
C16 C 0.5148(4) 0.7967(3) 0.4290(3)
C17 C 0.4801(5) 0.8261(4) 0.3948(4)
C18 C 0.5048(6) 0.8393(5) 0.3498(5)
H16 H 0.547058 0.826853 0.339538
C19 C 0.4691(7) 0.8706(5) 0.3192(6)
H17 H 0.487271 0.880383 0.289001
C20 C 0.4063(7) 0.8869(5) 0.3342(5)
H18 H 0.381656 0.906972 0.312168
C21 C 0.3771(6) 0.8767(5) 0.3773(5)
H19 H 0.334201 0.889327 0.385938
C22 C 0.4157(5) 0.8453(4) 0.4093(4)
C23 C 0.3888(3) 0.8340(3) 0.4539(3)
C24 C 0.4247(4) 0.8063(3) 0.4872(4)
H20 H 0.406791 0.799342 0.518453
C25 C 0.4889(4) 0.7883(3) 0.4737(4)
H21 H 0.514591 0.769810 0.496710
C26 C 0.3182(3) 0.8547(3) 0.4681(3)
O7 O 0.2686(3) 0.83452(19) 0.4461(2)
O8 O 0.3176(3) 0.8824(3) 0.5001(3)
O9 O 0.3948(3) 0.6550(2) 0.5686(3)
O10 O 0.3601(3) 0.7275(2) 0.5749(2)
C27 C 0.4069(4) 0.6968(3) 0.5765(3)
C28 C 0.4805(4) 0.7098(3) 0.5837(3)
C29 C 0.5040(4) 0.7462(3) 0.6148(3)
C30 C 0.4601(5) 0.7726(3) 0.6431(4)
H22 H 0.411670 0.767822 0.640576
C31 C 0.4885(5) 0.8060(5) 0.6751(5)
H23 H 0.458913 0.822977 0.695432
C32 C 0.5579(5) 0.8150(5) 0.6780(5)
H24 H 0.575766 0.838606 0.699172
C33 C 0.6004(6) 0.7902(4) 0.6506(5)
H25 H 0.648357 0.796392 0.653216
C34 C 0.5768(4) 0.7560(3) 0.6189(3)
C35 C 0.6217(4) 0.7287(3) 0.5891(3)
C36 C 0.5960(4) 0.6948(3) 0.5614(3)
H26 H 0.625933 0.677732 0.541543
C37 C 0.5259(4) 0.6832(3) 0.5606(3)
H27 H 0.510230 0.656383 0.543548
C38 C 0.6983(4) 0.7376(3) 0.5879(3)
O11 O 0.7231(3) 0.7395(2) 0.5463(2)
O12 O 0.7313(3) 0.7435(2) 0.6281(2)
O13 O 0.2160(3) 0.77993(19) 0.52885(19)
O14 O 0.1700(3) 0.8493(2) 0.5357(2)
C39 C 0.1895(4) 0.8108(3) 0.5534(3)
C40 C 0.1802(4) 0.8031(3) 0.6068(3)
C41 C 0.2235(4) 0.8246(3) 0.6422(3)
C42 C 0.2790(5) 0.8523(4) 0.6301(4)
H28 H 0.286831 0.857573 0.596172
C43 C 0.3227(7) 0.8722(5) 0.6650(5)
H29 H 0.361635 0.889307 0.655536
C44 C 0.3084(7) 0.8668(5) 0.7145(6)
H30 H 0.336288 0.881813 0.739212
C45 C 0.2548(6) 0.8401(4) 0.7278(4)
H31 H 0.247438 0.836173 0.762018
C46 C 0.2106(5) 0.8185(3) 0.6939(4)
C47 C 0.1539(4) 0.7910(3) 0.7073(3)
C48 C 0.1118(5) 0.7707(3) 0.6709(3)
H32 H 0.072022 0.754223 0.679684
C49 C 0.1280(5) 0.7746(3) 0.6209(3)
H33 H 0.102634 0.757320 0.596525
C50 C 0.1379(4) 0.7840(3) 0.7599(3)
O15 O 0.1846(3) 0.7667(2) 0.7871(2)
O16 O 0.0806(3) 0.7954(2) 0.7742(2)
C51 C 0.0016(5) 0.8548(4) 0.8492(4)
H34 H 0.030812 0.828642 0.851288
C52 C 0.0035(6) 0.8542(5) 0.9374(4)
H35 H 0.024227 0.823880 0.932989
H37 H 0.036701 0.874413 0.954839
O34 O 0.0172(4) 0.8683(3) 0.6940(3)
N3 N 0.0151(5) 0.8732(4) 0.6093(4)
H68 H 0.037698 0.851112 0.543164
C104 C 0.0605(9) 0.9142(5) 0.6118(7)
H70 H 0.066813 0.924319 0.646215
H71 H 0.039403 0.938992 0.591899
H72 H 0.105381 0.906375 0.598860
Li6 Li 0.8056(6) 0.7702(5) 0.5214(5)
Zn6 Zn 0.82395(4) 0.76894(3) 0.64192(3)
Zn8 Zn 0.17605(4) 0.76894(3) 0.85808(3)
Li8 Li 0.2296(7) 0.7725(5) 0.4574(5)
Zn9 Zn 0.68640(4) 0.36901(3) 0.46747(4)
Zn11 Zn 0.18640(4) 0.86901(3) 0.46747(4)
O35 O 0.3221(3) 0.5650(2) 0.5319(3)
O37 O 0.2314(3) 0.66548(19) 0.5539(2)
O39 O 0.7769(3) 0.7605(2) 0.4537(2)
O41 O 0.7687(3) 0.7565(2) 0.3719(2)
O43 O 0.2840(3) 0.72007(19) 0.47115(19)
O45 O 0.3300(3) 0.6507(2) 0.4643(2)
O48 O 0.6846(3) 0.7333(2) 0.2871(2)
Li4 Li 0.3056(6) 0.7298(5) 0.0214(5)
Zn3 Zn 0.32395(4) 0.73106(3) 0.14192(3)
O18 O 0.3160(4) 0.6653(2) 0.1280(3)
O19 O 0.3074(4) 0.6699(2) 0.0466(3)
C54 C 0.3075(5) 0.6486(3) 0.0858(4)
C55 C 0.3014(5) 0.5965(3) 0.0843(4)
C56 C 0.3371(6) 0.5740(4) 0.0494(4)
H41 H 0.361782 0.590922 0.025967
C57 C 0.3375(6) 0.5264(3) 0.0483(4)
H42 H 0.366469 0.511383 0.025970
C58 C 0.2984(4) 0.5006(3) 0.0775(4)
C59 C 0.2514(6) 0.5231(3) 0.1094(5)
C60 C 0.2073(6) 0.4979(4) 0.1411(5)
H43 H 0.211630 0.465565 0.144471
C61 C 0.1580(8) 0.5221(5) 0.1670(6)
H44 H 0.122739 0.506049 0.183062
C62 C 0.1612(7) 0.5695(4) 0.1687(6)
H45 H 0.131483 0.585552 0.189735
C63 C 0.2052(6) 0.5939(4) 0.1416(5)
H46 H 0.202897 0.626503 0.141663
C64 C 0.2544(6) 0.5717(3) 0.1132(5)
C65 C 0.3031(5) 0.4491(3) 0.0741(5)
O20 O 0.2902(4) 0.4249(2) 0.1086(3)
H47 H 0.269492 0.401255 0.098182
O21 O 0.3221(3) 0.4350(2) 0.0319(3)
O22 O 0.4037(3) 0.7644(2) 0.1243(3)
O23 O 0.3800(3) 0.7629(3) 0.0438(3)
C66 C 0.4159(5) 0.7743(3) 0.0811(5)
C67 C 0.4852(4) 0.7967(3) 0.0710(3)
C68 C 0.5199(5) 0.8261(4) 0.1052(4)
C69 C 0.4952(6) 0.8393(5) 0.1502(5)
H48 H 0.452942 0.826853 0.160462
C70 C 0.5309(7) 0.8706(5) 0.1808(6)
H49 H 0.512729 0.880383 0.210999
C71 C 0.5937(7) 0.8869(5) 0.1658(5)
H50 H 0.618344 0.906972 0.187832
C72 C 0.6229(6) 0.8767(5) 0.1227(5)
H51 H 0.665799 0.889327 0.114062
C73 C 0.5843(5) 0.8453(4) 0.0907(4)
C74 C 0.6112(3) 0.8340(3) 0.0461(3)
C75 C 0.5753(4) 0.8063(3) 0.0128(4)
C76 C 0.5111(4) 0.7883(3) 0.0263(4)
H53 H 0.485409 0.769810 0.003290
C77 C 0.6818(3) 0.8547(3) 0.0319(3)
O24 O 0.7314(3) 0.83452(19) 0.0539(2)
Li9 Li 0.7704(7) 0.7725(5) 0.0426(5)
Zn10 Zn 0.31360(4) 0.36901(3) 0.03253(4)
Zn12 Zn 0.81360(4) 0.86901(3) 0.03253(4)
O40 O 0.2231(3) 0.7605(2) 0.0463(2)
O42 O 0.2313(3) 0.7565(2) 0.1281(2)
O44 O 0.7160(3) 0.72007(19) 0.02885(19)
O46 O 0.6700(3) 0.6507(2) 0.0357(2)
O47 O 0.3154(3) 0.7333(2) 0.2129(2)
Li3_2 Li 1.000000 0.8313(9) 0.750000
O17 O 0.9828(4) 0.8683(3) 0.8060(3)
N2 N 0.9849(5) 0.8732(4) 0.8907(4)
H36 H 0.962302 0.851112 0.956836
C53 C 0.9395(9) 0.9142(5) 0.8882(7)
H38 H 0.933187 0.924319 0.853785
H39 H 0.960597 0.938992 0.908101
H40 H 0.894619 0.906375 0.901140
Li5 Li 0.7296(7) 0.7275(5) 0.9574(5)
Zn4 Zn 0.68640(4) 0.63099(3) 0.96747(4)
H52 H 0.593209 0.799342 0.981547
O25 O 0.6824(3) 0.8824(3) 0.9999(3)
O26 O 0.6052(3) 0.6550(2) 0.9314(3)
O27 O 0.6399(3) 0.7275(2) 0.9251(2)
C78 C 0.5931(4) 0.6968(3) 0.9235(3)
C79 C 0.5195(4) 0.7098(3) 0.9163(3)
C80 C 0.4960(4) 0.7462(3) 0.8852(3)
C81 C 0.5399(5) 0.7726(3) 0.8569(4)
H54 H 0.588330 0.767822 0.859424
C82 C 0.5115(5) 0.8060(5) 0.8249(5)
H55 H 0.541087 0.822977 0.804568
C83 C 0.4421(5) 0.8150(5) 0.8220(5)
H56 H 0.424234 0.838606 0.800828
C84 C 0.3996(6) 0.7902(4) 0.8494(5)
H57 H 0.351643 0.796392 0.846784
C85 C 0.4232(4) 0.7560(3) 0.8811(3)
C86 C 0.3783(4) 0.7287(3) 0.9109(3)
C87 C 0.4040(4) 0.6948(3) 0.9386(3)
H58 H 0.374067 0.677732 0.958457
C88 C 0.4741(4) 0.6832(3) 0.9394(3)
H59 H 0.489770 0.656383 0.956452
C89 C 0.3017(4) 0.7376(3) 0.9121(3)
O28 O 0.2769(3) 0.7395(2) 0.9537(2)
O29 O 0.2687(3) 0.7435(2) 0.8719(2)
O30 O 0.7840(3) 0.77993(19) 0.97115(19)
O31 O 0.8300(3) 0.8493(2) 0.9643(2)
C90 C 0.8105(4) 0.8108(3) 0.9466(3)
C91 C 0.8198(4) 0.8031(3) 0.8932(3)
C92 C 0.7765(4) 0.8246(3) 0.8578(3)
C93 C 0.7210(5) 0.8523(4) 0.8699(4)
H60 H 0.713169 0.857573 0.903828
C94 C 0.6773(7) 0.8722(5) 0.8350(5)
H61 H 0.638365 0.889307 0.844464
C95 C 0.6916(7) 0.8668(5) 0.7855(6)
H62 H 0.663712 0.881813 0.760788
C96 C 0.7452(6) 0.8401(4) 0.7722(4)
H63 H 0.752562 0.836173 0.737982
C97 C 0.7894(5) 0.8185(3) 0.8061(4)
C98 C 0.8461(4) 0.7910(3) 0.7927(3)
C99 C 0.8882(5) 0.7707(3) 0.8291(3)
H64 H 0.927978 0.754223 0.820316
C100 C 0.8720(5) 0.7746(3) 0.8791(3)
H65 H 0.897366 0.757320 0.903475
C101 C 0.8621(4) 0.7840(3) 0.7401(3)
O32 O 0.8154(3) 0.7667(2) 0.7129(2)
O33 O 0.9194(3) 0.7954(2) 0.7258(2)
C102 C 0.9984(5) 0.8548(4) 0.6508(4)
H66 H 0.969188 0.828642 0.648712
C103 C 0.9965(6) 0.8542(5) 0.5626(4)
H67 H 0.975773 0.823880 0.567011
H69 H 0.963299 0.874413 0.545161
Li7 Li 0.1944(6) 0.7702(5) 0.9786(5)
O36 O 0.6779(3) 0.5650(2) 0.9681(3)
O38 O 0.7686(3) 0.66548(19) 0.9461(2)
Li1_2 Li 0.1944(6) 0.2298(5) 0.4786(5)
Zn1_2 Zn 0.17605(4) 0.23106(3) 0.35808(3)
O1_2 O 0.1840(4) 0.1653(2) 0.3720(3)
O2_2 O 0.1926(4) 0.1699(2) 0.4534(3)
C3_2 C 0.1925(5) 0.1486(3) 0.4142(4)
C4_2 C 0.1986(5) 0.0965(3) 0.4157(4)
C5_2 C 0.1629(6) 0.0740(4) 0.4506(4)
H9_2 H 0.138218 0.090922 0.474033
C6_2 C 0.1625(6) 0.0264(3) 0.4517(4)
H10_2 H 0.133531 0.011383 0.474030
C7_2 C 0.2016(4) 0.0006(3) 0.4225(4)
C8_2 C 0.2486(6) 0.0231(3) 0.3906(5)
C10_2 C 0.3420(8) 0.0221(5) 0.3330(6)
H12_2 H 0.377261 0.006049 0.316938
C11_2 C 0.3388(7) 0.0695(4) 0.3313(6)
H13_2 H 0.368517 0.085552 0.310265
C12_2 C 0.2948(6) 0.0939(4) 0.3584(5)
H14_2 H 0.297103 0.126503 0.358337
C13_2 C 0.2456(6) 0.0717(3) 0.3868(5)
O5_2 O 0.0963(3) 0.2644(2) 0.3757(3)
O6_2 O 0.1200(3) 0.2629(3) 0.4562(3)
C15_2 C 0.0841(5) 0.2743(3) 0.4189(5)
C16_2 C 0.0148(4) 0.2967(3) 0.4290(3)
C18_2 C 0.0048(6) 0.3393(5) 0.3498(5)
H16_2 H 0.047058 0.326853 0.339538
H21_2 H 0.014591 0.269810 0.496710
C29_2 C 0.0040(4) 0.2462(3) 0.6148(3)
C32_2 C 0.0579(5) 0.3150(5) 0.6780(5)
H24_2 H 0.075766 0.338606 0.699172
C33_2 C 0.1004(6) 0.2902(4) 0.6506(5)
H25_2 H 0.148357 0.296392 0.653216
C34_2 C 0.0768(4) 0.2560(3) 0.6189(3)
C35_2 C 0.1217(4) 0.2287(3) 0.5891(3)
C36_2 C 0.0960(4) 0.1948(3) 0.5614(3)
H26_2 H 0.125933 0.177732 0.541543
C37_2 C 0.0259(4) 0.1832(3) 0.5606(3)
H27_2 H 0.010230 0.156383 0.543548
C38_2 C 0.1983(4) 0.2376(3) 0.5879(3)
O11_2 O 0.2231(3) 0.2395(2) 0.5463(2)
O12_2 O 0.2313(3) 0.2435(2) 0.6281(2)
Li6_2 Li 0.3056(6) 0.2702(5) 0.5214(5)
Zn6_2 Zn 0.32395(4) 0.26894(3) 0.64192(3)
O39_2 O 0.2769(3) 0.2605(2) 0.4537(2)
O41_2 O 0.2687(3) 0.2565(2) 0.3719(2)
O48_2 O 0.1846(3) 0.2333(2) 0.2871(2)
C9_2 C 0.2927(6) 0.9979(4) 0.3589(5)
H11_2 H 0.288370 0.965565 0.355529
C14_2 C 0.1969(5) 0.9491(3) 0.4259(5)
O3_2 O 0.2098(4) 0.9249(2) 0.3914(3)
H15_2 H 0.230508 0.901255 0.401818
O4_2 O 0.1779(3) 0.9350(2) 0.4681(3)
C68_2 C 0.0199(5) 0.3261(4) 0.1052(4)
C70_2 C 0.0309(7) 0.3706(5) 0.1808(6)
H49_2 H 0.012729 0.380383 0.210999
C71_2 C 0.0937(7) 0.3869(5) 0.1658(5)
H50_2 H 0.118344 0.406972 0.187832
C72_2 C 0.1229(6) 0.3767(5) 0.1227(5)
H51_2 H 0.165799 0.389327 0.114062
C73_2 C 0.0843(5) 0.3453(4) 0.0907(4)
C74_2 C 0.1112(3) 0.3340(3) 0.0461(3)
C75_2 C 0.0753(4) 0.3063(3) 0.0128(4)
C76_2 C 0.0111(4) 0.2883(3) 0.0263(4)
C77_2 C 0.1818(3) 0.3547(3) 0.0319(3)
O24_2 O 0.2314(3) 0.33452(19) 0.0539(2)
Li9_2 Li 0.2704(7) 0.2725(5) 0.0426(5)
O44_2 O 0.2160(3) 0.22007(19) 0.02885(19)
O46_2 O 0.1700(3) 0.1507(2) 0.0357(2)
Li2_2 Li 0.7704(7) 0.2275(5) 0.5426(5)
Zn2_2 Zn 0.81360(4) 0.13099(3) 0.53253(4)
Li3_3 Li 0.500000 0.3313(9) 0.750000
C17_2 C 0.9801(5) 0.3261(4) 0.3948(4)
C19_2 C 0.9691(7) 0.3706(5) 0.3192(6)
H17_2 H 0.987271 0.380383 0.289001
C20_2 C 0.9063(7) 0.3869(5) 0.3342(5)
H18_2 H 0.881656 0.406972 0.312168
C21_2 C 0.8771(6) 0.3767(5) 0.3773(5)
H19_2 H 0.834201 0.389327 0.385938
C22_2 C 0.9157(5) 0.3453(4) 0.4093(4)
C23_2 C 0.8888(3) 0.3340(3) 0.4539(3)
C24_2 C 0.9247(4) 0.3063(3) 0.4872(4)
H20_2 H 0.906791 0.299342 0.518453
C25_2 C 0.9889(4) 0.2883(3) 0.4737(4)
C26_2 C 0.8182(3) 0.3547(3) 0.4681(3)
O7_2 O 0.7686(3) 0.33452(19) 0.4461(2)
O8_2 O 0.8176(3) 0.3824(3) 0.5001(3)
O9_2 O 0.8948(3) 0.1550(2) 0.5686(3)
O10_2 O 0.8601(3) 0.2275(2) 0.5749(2)
C27_2 C 0.9069(4) 0.1968(3) 0.5765(3)
C28_2 C 0.9805(4) 0.2098(3) 0.5837(3)
C30_2 C 0.9601(5) 0.2726(3) 0.6431(4)
H22_2 H 0.911670 0.267822 0.640576
C31_2 C 0.9885(5) 0.3060(5) 0.6751(5)
H23_2 H 0.958913 0.322977 0.695432
O13_2 O 0.7160(3) 0.27993(19) 0.52885(19)
O14_2 O 0.6700(3) 0.3493(2) 0.5357(2)
C39_2 C 0.6895(4) 0.3108(3) 0.5534(3)
C40_2 C 0.6802(4) 0.3031(3) 0.6068(3)
C41_2 C 0.7235(4) 0.3246(3) 0.6422(3)
C42_2 C 0.7790(5) 0.3523(4) 0.6301(4)
H28_2 H 0.786831 0.357573 0.596172
C43_2 C 0.8227(7) 0.3722(5) 0.6650(5)
H29_2 H 0.861635 0.389307 0.655536
C44_2 C 0.8084(7) 0.3668(5) 0.7145(6)
H30_2 H 0.836288 0.381813 0.739212
C45_2 C 0.7548(6) 0.3401(4) 0.7278(4)
H31_2 H 0.747438 0.336173 0.762018
C46_2 C 0.7106(5) 0.3185(3) 0.6939(4)
C47_2 C 0.6539(4) 0.2910(3) 0.7073(3)
C48_2 C 0.6118(5) 0.2707(3) 0.6709(3)
H32_2 H 0.572022 0.254223 0.679684
C49_2 C 0.6280(5) 0.2746(3) 0.6209(3)
H33_2 H 0.602634 0.257320 0.596525
C50_2 C 0.6379(4) 0.2840(3) 0.7599(3)
O15_2 O 0.6846(3) 0.2667(2) 0.7871(2)
O16_2 O 0.5806(3) 0.2954(2) 0.7742(2)
O17_2 O 0.4828(4) 0.3683(3) 0.8060(3)
C51_2 C 0.5016(5) 0.3548(4) 0.8492(4)
H34_2 H 0.530812 0.328642 0.851288
N2_2 N 0.4849(5) 0.3732(4) 0.8907(4)
C52_2 C 0.5035(6) 0.3542(5) 0.9374(4)
H35_2 H 0.524227 0.323880 0.932989
H36_2 H 0.462302 0.351112 0.956836
H37_2 H 0.536701 0.374413 0.954839
C53_2 C 0.4395(9) 0.4142(5) 0.8882(7)
H38_2 H 0.433187 0.424319 0.853785
H39_2 H 0.460597 0.438992 0.908101
H40_2 H 0.394619 0.406375 0.901140
Li5_2 Li 0.2296(7) 0.2275(5) 0.9574(5)
Zn4_2 Zn 0.18640(4) 0.13099(3) 0.96747(4)
H52_2 H 0.093209 0.299342 0.981547
O25_2 O 0.1824(3) 0.3824(3) 0.9999(3)
O26_2 O 0.1052(3) 0.1550(2) 0.9314(3)
O27_2 O 0.1399(3) 0.2275(2) 0.9251(2)
C78_2 C 0.0931(4) 0.1968(3) 0.9235(3)
C79_2 C 0.0195(4) 0.2098(3) 0.9163(3)
C81_2 C 0.0399(5) 0.2726(3) 0.8569(4)
H54_2 H 0.088330 0.267822 0.859424
C82_2 C 0.0115(5) 0.3060(5) 0.8249(5)
H55_2 H 0.041087 0.322977 0.804568
O30_2 O 0.2840(3) 0.27993(19) 0.97115(19)
O31_2 O 0.3300(3) 0.3493(2) 0.9643(2)
C90_2 C 0.3105(4) 0.3108(3) 0.9466(3)
C91_2 C 0.3198(4) 0.3031(3) 0.8932(3)
C92_2 C 0.2765(4) 0.3246(3) 0.8578(3)
C93_2 C 0.2210(5) 0.3523(4) 0.8699(4)
H60_2 H 0.213169 0.357573 0.903828
C94_2 C 0.1773(7) 0.3722(5) 0.8350(5)
H61_2 H 0.138365 0.389307 0.844464
C95_2 C 0.1916(7) 0.3668(5) 0.7855(6)
H62_2 H 0.163712 0.381813 0.760788
C96_2 C 0.2452(6) 0.3401(4) 0.7722(4)
H63_2 H 0.252562 0.336173 0.737982
C97_2 C 0.2894(5) 0.3185(3) 0.8061(4)
C98_2 C 0.3461(4) 0.2910(3) 0.7927(3)
C99_2 C 0.3882(5) 0.2707(3) 0.8291(3)
H64_2 H 0.427978 0.254223 0.820316
C100_2 C 0.3720(5) 0.2746(3) 0.8791(3)
H65_2 H 0.397366 0.257320 0.903475
C101_2 C 0.3621(4) 0.2840(3) 0.7401(3)
O32_2 O 0.3154(3) 0.2667(2) 0.7129(2)
O33_2 O 0.4194(3) 0.2954(2) 0.7258(2)
O34_2 O 0.5172(4) 0.3683(3) 0.6940(3)
C102_2 C 0.4984(5) 0.3548(4) 0.6508(4)
H66_2 H 0.469188 0.328642 0.648712
N3_2 N 0.5151(5) 0.3732(4) 0.6093(4)
C103_2 C 0.4965(6) 0.3542(5) 0.5626(4)
H67_2 H 0.475773 0.323880 0.567011
H68_2 H 0.537698 0.351112 0.543164
H69_2 H 0.463299 0.374413 0.545161
C104_2 C 0.5605(9) 0.4142(5) 0.6118(7)
H70_2 H 0.566813 0.424319 0.646215
H71_2 H 0.539403 0.438992 0.591899
H72_2 H 0.605381 0.406375 0.598860
Zn8_2 Zn 0.67605(4) 0.26894(3) 0.85808(3)
Li8_2 Li 0.7296(7) 0.2725(5) 0.4574(5)
O35_2 O 0.8221(3) 0.0650(2) 0.5319(3)
O36_2 O 0.1779(3) 0.0650(2) 0.9681(3)
O37_2 O 0.7314(3) 0.16548(19) 0.5539(2)
O38_2 O 0.2686(3) 0.16548(19) 0.9461(2)
O43_2 O 0.7840(3) 0.22007(19) 0.47115(19)
O45_2 O 0.8300(3) 0.1507(2) 0.4643(2)
Li4_2 Li 0.8056(6) 0.2298(5) 0.0214(5)
Zn3_2 Zn 0.82395(4) 0.23106(3) 0.14192(3)
O18_2 O 0.8160(4) 0.1653(2) 0.1280(3)
O19_2 O 0.8074(4) 0.1699(2) 0.0466(3)
C54_2 C 0.8075(5) 0.1486(3) 0.0858(4)
C55_2 C 0.8014(5) 0.0965(3) 0.0843(4)
C56_2 C 0.8371(6) 0.0740(4) 0.0494(4)
H41_2 H 0.861782 0.090922 0.025967
C57_2 C 0.8375(6) 0.0264(3) 0.0483(4)
H42_2 H 0.866469 0.011383 0.025970
C58_2 C 0.7984(4) 0.0006(3) 0.0775(4)
C59_2 C 0.7514(6) 0.0231(3) 0.1094(5)
C61_2 C 0.6580(8) 0.0221(5) 0.1670(6)
H44_2 H 0.622739 0.006049 0.183062
C62_2 C 0.6612(7) 0.0695(4) 0.1687(6)
H45_2 H 0.631483 0.085552 0.189735
C63_2 C 0.7052(6) 0.0939(4) 0.1416(5)
H46_2 H 0.702897 0.126503 0.141663
C64_2 C 0.7544(6) 0.0717(3) 0.1132(5)
O22_2 O 0.9037(3) 0.2644(2) 0.1243(3)
O23_2 O 0.8800(3) 0.2629(3) 0.0438(3)
C66_2 C 0.9159(5) 0.2743(3) 0.0811(5)
C67_2 C 0.9852(4) 0.2967(3) 0.0710(3)
C69_2 C 0.9952(6) 0.3393(5) 0.1502(5)
H48_2 H 0.952942 0.326853 0.160462
H53_2 H 0.985409 0.269810 0.003290
O40_2 O 0.7231(3) 0.2605(2) 0.0463(2)
O42_2 O 0.7313(3) 0.2565(2) 0.1281(2)
O47_2 O 0.8154(3) 0.2333(2) 0.2129(2)
C80_2 C 0.9960(4) 0.2462(3) 0.8852(3)
C83_2 C 0.9421(5) 0.3150(5) 0.8220(5)
H56_2 H 0.924234 0.338606 0.800828
C84_2 C 0.8996(6) 0.2902(4) 0.8494(5)
H57_2 H 0.851643 0.296392 0.846784
C85_2 C 0.9232(4) 0.2560(3) 0.8811(3)
C86_2 C 0.8783(4) 0.2287(3) 0.9109(3)
C87_2 C 0.9040(4) 0.1948(3) 0.9386(3)
H58_2 H 0.874067 0.177732 0.958457
C88_2 C 0.9741(4) 0.1832(3) 0.9394(3)
H59_2 H 0.989770 0.156383 0.956452
C89_2 C 0.8017(4) 0.2376(3) 0.9121(3)
O28_2 O 0.7769(3) 0.2395(2) 0.9537(2)
O29_2 O 0.7687(3) 0.2435(2) 0.8719(2)
Li7_2 Li 0.6944(6) 0.2702(5) 0.9786(5)
C60_2 C 0.7073(6) 0.9979(4) 0.1411(5)
H43_2 H 0.711630 0.965565 0.144471
C65_2 C 0.8031(5) 0.9491(3) 0.0741(5)
O20_2 O 0.7902(4) 0.9249(2) 0.1086(3)
H47_2 H 0.769492 0.901255 0.098182
O21_2 O 0.8221(3) 0.9350(2) 0.0319(3)
Li3_4 Li -0.000000 0.1687(9) 0.250000
O17_3 O 0.0172(4) 0.1317(3) 0.1940(3)
N2_3 N 0.0151(5) 0.1268(4) 0.1093(4)
H36_3 H 0.037698 0.148888 0.043164
C53_3 C 0.0605(9) 0.0858(5) 0.1118(7)
H38_3 H 0.066813 0.075681 0.146215
H39_3 H 0.039403 0.061008 0.091899
H40_3 H 0.105381 0.093625 0.098860
H52_3 H 0.406791 0.200658 0.018453
O25_3 O 0.3176(3) 0.1176(3) 0.0001(3)
O26_3 O 0.3948(3) 0.3450(2) 0.0686(3)
O27_3 O 0.3601(3) 0.2725(2) 0.0749(2)
C78_3 C 0.4069(4) 0.3032(3) 0.0765(3)
C79_3 C 0.4805(4) 0.2902(3) 0.0837(3)
C80_3 C 0.5040(4) 0.2538(3) 0.1148(3)
C81_3 C 0.4601(5) 0.2274(3) 0.1431(4)
H54_3 H 0.411670 0.232178 0.140576
C82_3 C 0.4885(5) 0.1940(5) 0.1751(5)
H55_3 H 0.458913 0.177023 0.195432
C83_3 C 0.5579(5) 0.1850(5) 0.1780(5)
H56_3 H 0.575766 0.161394 0.199172
C84_3 C 0.6004(6) 0.2098(4) 0.1506(5)
H57_3 H 0.648357 0.203608 0.153216
C85_3 C 0.5768(4) 0.2440(3) 0.1189(3)
C86_3 C 0.6217(4) 0.2713(3) 0.0891(3)
C87_3 C 0.5960(4) 0.3052(3) 0.0614(3)
H58_3 H 0.625933 0.322268 0.041543
C88_3 C 0.5259(4) 0.3168(3) 0.0606(3)
H59_3 H 0.510230 0.343617 0.043548
C89_3 C 0.6983(4) 0.2624(3) 0.0879(3)
C90_3 C 0.1895(4) 0.1892(3) 0.0534(3)
C91_3 C 0.1802(4) 0.1969(3) 0.1068(3)
C92_3 C 0.2235(4) 0.1754(3) 0.1422(3)
C93_3 C 0.2790(5) 0.1477(4) 0.1301(4)
H60_3 H 0.286831 0.142427 0.096172
C94_3 C 0.3227(7) 0.1278(5) 0.1650(5)
H61_3 H 0.361635 0.110693 0.155536
C95_3 C 0.3084(7) 0.1332(5) 0.2145(6)
H62_3 H 0.336288 0.118187 0.239212
C96_3 C 0.2548(6) 0.1599(4) 0.2278(4)
H63_3 H 0.247438 0.163827 0.262018
C97_3 C 0.2106(5) 0.1815(3) 0.1939(4)
C98_3 C 0.1539(4) 0.2090(3) 0.2073(3)
C99_3 C 0.1118(5) 0.2293(3) 0.1709(3)
H64_3 H 0.072022 0.245777 0.179684
C100_3 C 0.1280(5) 0.2254(3) 0.1209(3)
H65_3 H 0.102634 0.242680 0.096525
C101_3 C 0.1379(4) 0.2160(3) 0.2599(3)
O33_3 O 0.0806(3) 0.2046(2) 0.2742(2)
C102_3 C 0.0016(5) 0.1452(4) 0.3492(4)
H66_3 H 0.030812 0.171358 0.351288
C103_3 C 0.0035(6) 0.1458(5) 0.4374(4)
H67_3 H 0.024227 0.176120 0.432989
H69_3 H 0.036701 0.125587 0.454839
O18_3 O 0.6840(4) 0.3347(2) 0.8720(3)
O19_3 O 0.6926(4) 0.3301(2) 0.9534(3)
C54_3 C 0.6925(5) 0.3514(3) 0.9142(4)
C55_3 C 0.6986(5) 0.4035(3) 0.9157(4)
C56_3 C 0.6629(6) 0.4260(4) 0.9506(4)
H41_3 H 0.638218 0.409078 0.974033
C57_3 C 0.6625(6) 0.4736(3) 0.9517(4)
H42_3 H 0.633531 0.488617 0.974030
C58_3 C 0.7016(4) 0.4994(3) 0.9225(4)
C59_3 C 0.7486(6) 0.4769(3) 0.8906(5)
C60_3 C 0.7927(6) 0.5021(4) 0.8589(5)
H43_3 H 0.788370 0.534435 0.855529
C61_3 C 0.8420(8) 0.4779(5) 0.8330(6)
H44_3 H 0.877261 0.493951 0.816938
C62_3 C 0.8388(7) 0.4305(4) 0.8313(6)
H45_3 H 0.868517 0.414448 0.810265
C63_3 C 0.7948(6) 0.4061(4) 0.8584(5)
H46_3 H 0.797103 0.373497 0.858337
C64_3 C 0.7456(6) 0.4283(3) 0.8868(5)
C65_3 C 0.6969(5) 0.5509(3) 0.9259(5)
O20_3 O 0.7098(4) 0.5751(2) 0.8914(3)
H47_3 H 0.730508 0.598745 0.901818
O22_3 O 0.5963(3) 0.2356(2) 0.8757(3)
O23_3 O 0.6200(3) 0.2371(3) 0.9562(3)
C66_3 C 0.5841(5) 0.2257(3) 0.9189(5)
C67_3 C 0.5148(4) 0.2033(3) 0.9290(3)
C68_3 C 0.4801(5) 0.1739(4) 0.8948(4)
C69_3 C 0.5048(6) 0.1607(5) 0.8498(5)
H48_3 H 0.547058 0.173147 0.839538
C70_3 C 0.4691(7) 0.1294(5) 0.8192(6)
H49_3 H 0.487271 0.119617 0.789001
C71_3 C 0.4063(7) 0.1131(5) 0.8342(5)
H50_3 H 0.381656 0.093028 0.812168
C72_3 C 0.3771(6) 0.1233(5) 0.8773(5)
H51_3 H 0.334201 0.110673 0.885938
C73_3 C 0.4157(5) 0.1547(4) 0.9093(4)
C74_3 C 0.3888(3) 0.1660(3) 0.9539(3)
C75_3 C 0.4247(4) 0.1937(3) 0.9872(4)
C76_3 C 0.4889(4) 0.2117(3) 0.9737(4)
H53_3 H 0.514591 0.230190 0.996710
C77_3 C 0.3182(3) 0.1453(3) 0.9681(3)
Li3_5 Li 1.000000 0.1687(9) 0.250000
O1_3 O 0.3160(4) 0.3347(2) 0.6280(3)
O2_3 O 0.3074(4) 0.3301(2) 0.5466(3)
C3_3 C 0.3075(5) 0.3514(3) 0.5858(4)
C4_3 C 0.3014(5) 0.4035(3) 0.5843(4)
C5_3 C 0.3371(6) 0.4260(4) 0.5494(4)
H9_3 H 0.361782 0.409078 0.525967
C6_3 C 0.3375(6) 0.4736(3) 0.5483(4)
H10_3 H 0.366469 0.488617 0.525970
C7_3 C 0.2984(4) 0.4994(3) 0.5775(4)
C8_3 C 0.2514(6) 0.4769(3) 0.6094(5)
C9_3 C 0.2073(6) 0.5021(4) 0.6411(5)
H11_3 H 0.211630 0.534435 0.644471
C10_3 C 0.1580(8) 0.4779(5) 0.6670(6)
H12_3 H 0.122739 0.493951 0.683062
C11_3 C 0.1612(7) 0.4305(4) 0.6687(6)
H13_3 H 0.131483 0.414448 0.689735
C12_3 C 0.2052(6) 0.4061(4) 0.6416(5)
H14_3 H 0.202897 0.373497 0.641663
C13_3 C 0.2544(6) 0.4283(3) 0.6132(5)
C14_3 C 0.3031(5) 0.5509(3) 0.5741(5)
O3_3 O 0.2902(4) 0.5751(2) 0.6086(3)
H15_3 H 0.269492 0.598745 0.598182
O5_3 O 0.4037(3) 0.2356(2) 0.6243(3)
O6_3 O 0.3800(3) 0.2371(3) 0.5438(3)
C15_3 C 0.4159(5) 0.2257(3) 0.5811(5)
C16_3 C 0.4852(4) 0.2033(3) 0.5710(3)
C17_3 C 0.5199(5) 0.1739(4) 0.6052(4)
C18_3 C 0.4952(6) 0.1607(5) 0.6502(5)
H16_3 H 0.452942 0.173147 0.660462
C19_3 C 0.5309(7) 0.1294(5) 0.6808(6)
H17_3 H 0.512729 0.119617 0.710999
C20_3 C 0.5937(7) 0.1131(5) 0.6658(5)
H18_3 H 0.618344 0.093028 0.687832
C21_3 C 0.6229(6) 0.1233(5) 0.6227(5)
H19_3 H 0.665799 0.110673 0.614062
C22_3 C 0.5843(5) 0.1547(4) 0.5907(4)
C23_3 C 0.6112(3) 0.1660(3) 0.5461(3)
C24_3 C 0.5753(4) 0.1937(3) 0.5128(4)
H20_3 H 0.593209 0.200658 0.481547
C25_3 C 0.5111(4) 0.2117(3) 0.5263(4)
H21_3 H 0.485409 0.230190 0.503290
C26_3 C 0.6818(3) 0.1453(3) 0.5319(3)
O8_3 O 0.6824(3) 0.1176(3) 0.4999(3)
O9_3 O 0.6052(3) 0.3450(2) 0.4314(3)
O10_3 O 0.6399(3) 0.2725(2) 0.4251(2)
C27_3 C 0.5931(4) 0.3032(3) 0.4235(3)
C28_3 C 0.5195(4) 0.2902(3) 0.4163(3)
C29_3 C 0.4960(4) 0.2538(3) 0.3852(3)
C30_3 C 0.5399(5) 0.2274(3) 0.3569(4)
H22_3 H 0.588330 0.232178 0.359424
C31_3 C 0.5115(5) 0.1940(5) 0.3249(5)
H23_3 H 0.541087 0.177023 0.304568
C32_3 C 0.4421(5) 0.1850(5) 0.3220(5)
H24_3 H 0.424234 0.161394 0.300828
C33_3 C 0.3996(6) 0.2098(4) 0.3494(5)
H25_3 H 0.351643 0.203608 0.346784
C34_3 C 0.4232(4) 0.2440(3) 0.3811(3)
C35_3 C 0.3783(4) 0.2713(3) 0.4109(3)
C36_3 C 0.4040(4) 0.3052(3) 0.4386(3)
H26_3 H 0.374067 0.322268 0.458457
C37_3 C 0.4741(4) 0.3168(3) 0.4394(3)
H27_3 H 0.489770 0.343617 0.456452
C38_3 C 0.3017(4) 0.2624(3) 0.4121(3)
C39_3 C 0.8105(4) 0.1892(3) 0.4466(3)
C40_3 C 0.8198(4) 0.1969(3) 0.3932(3)
C41_3 C 0.7765(4) 0.1754(3) 0.3578(3)
C42_3 C 0.7210(5) 0.1477(4) 0.3699(4)
H28_3 H 0.713169 0.142427 0.403828
C43_3 C 0.6773(7) 0.1278(5) 0.3350(5)
H29_3 H 0.638365 0.110693 0.344464
C44_3 C 0.6916(7) 0.1332(5) 0.2855(6)
H30_3 H 0.663712 0.118187 0.260788
C45_3 C 0.7452(6) 0.1599(4) 0.2722(4)
H31_3 H 0.752562 0.163827 0.237982
C46_3 C 0.7894(5) 0.1815(3) 0.3061(4)
C47_3 C 0.8461(4) 0.2090(3) 0.2927(3)
C48_3 C 0.8882(5) 0.2293(3) 0.3291(3)
H32_3 H 0.927978 0.245777 0.320316
C49_3 C 0.8720(5) 0.2254(3) 0.3791(3)
H33_3 H 0.897366 0.242680 0.403475
C50_3 C 0.8621(4) 0.2160(3) 0.2401(3)
O16_3 O 0.9194(3) 0.2046(2) 0.2258(2)
C51_3 C 0.9984(5) 0.1452(4) 0.1508(4)
H34_3 H 0.969188 0.171358 0.148712
C52_3 C 0.9965(6) 0.1458(5) 0.0626(4)
H35_3 H 0.975773 0.176120 0.067011
H37_3 H 0.963299 0.125587 0.045161
O34_3 O 0.9828(4) 0.1317(3) 0.3060(3)
N3_3 N 0.9849(5) 0.1268(4) 0.3907(4)
H68_3 H 0.962302 0.148888 0.456836
C104_3 C 0.9395(9) 0.0858(5) 0.3882(7)
H70_3 H 0.933187 0.075681 0.353785
H71_3 H 0.960597 0.061008 0.408101
H72_3 H 0.894619 0.093625 0.401140
C60_4 C 0.2927(6) 0.0021(4) 0.8589(5)
H43_4 H 0.288370 0.034435 0.855529
C65_4 C 0.1969(5) 0.0509(3) 0.9259(5)
O20_4 O 0.2098(4) 0.0751(2) 0.8914(3)
H47_4 H 0.230508 0.098745 0.901818
C80_4 C 0.0040(4) 0.7538(3) 0.1148(3)
C83_4 C 0.0579(5) 0.6850(5) 0.1780(5)
H56_4 H 0.075766 0.661394 0.199172
C84_4 C 0.1004(6) 0.7098(4) 0.1506(5)
H57_4 H 0.148357 0.703608 0.153216
C85_4 C 0.0768(4) 0.7440(3) 0.1189(3)
C86_4 C 0.1217(4) 0.7713(3) 0.0891(3)
C87_4 C 0.0960(4) 0.8052(3) 0.0614(3)
H58_4 H 0.125933 0.822268 0.041543
C88_4 C 0.0259(4) 0.8168(3) 0.0606(3)
H59_4 H 0.010230 0.843617 0.043548
C89_4 C 0.1983(4) 0.7624(3) 0.0879(3)
O18_4 O 0.1840(4) 0.8347(2) 0.8720(3)
O19_4 O 0.1926(4) 0.8301(2) 0.9534(3)
C54_4 C 0.1925(5) 0.8514(3) 0.9142(4)
C55_4 C 0.1986(5) 0.9035(3) 0.9157(4)
C56_4 C 0.1629(6) 0.9260(4) 0.9506(4)
H41_4 H 0.138218 0.909078 0.974033
C57_4 C 0.1625(6) 0.9736(3) 0.9517(4)
H42_4 H 0.133531 0.988617 0.974030
C58_4 C 0.2016(4) 0.9994(3) 0.9225(4)
C59_4 C 0.2486(6) 0.9769(3) 0.8906(5)
C61_4 C 0.3420(8) 0.9779(5) 0.8330(6)
H44_4 H 0.377261 0.993951 0.816938
C62_4 C 0.3388(7) 0.9305(4) 0.8313(6)
H45_4 H 0.368517 0.914448 0.810265
C63_4 C 0.2948(6) 0.9061(4) 0.8584(5)
H46_4 H 0.297103 0.873497 0.858337
C64_4 C 0.2456(6) 0.9283(3) 0.8868(5)
O22_4 O 0.0963(3) 0.7356(2) 0.8757(3)
O23_4 O 0.1200(3) 0.7371(3) 0.9562(3)
C66_4 C 0.0841(5) 0.7257(3) 0.9189(5)
C67_4 C 0.0148(4) 0.7033(3) 0.9290(3)
C69_4 C 0.0048(6) 0.6607(5) 0.8498(5)
H48_4 H 0.047058 0.673147 0.839538
H53_4 H 0.014591 0.730190 0.996710
Li3_6 Li 0.500000 0.6687(9) 0.250000
C17_4 C 0.0199(5) 0.6739(4) 0.6052(4)
C19_4 C 0.0309(7) 0.6294(5) 0.6808(6)
H17_4 H 0.012729 0.619617 0.710999
C20_4 C 0.0937(7) 0.6131(5) 0.6658(5)
H18_4 H 0.118344 0.593028 0.687832
C21_4 C 0.1229(6) 0.6233(5) 0.6227(5)
H19_4 H 0.165799 0.610673 0.614062
C22_4 C 0.0843(5) 0.6547(4) 0.5907(4)
C23_4 C 0.1112(3) 0.6660(3) 0.5461(3)
C24_4 C 0.0753(4) 0.6937(3) 0.5128(4)
H20_4 H 0.093209 0.700658 0.481547
C25_4 C 0.0111(4) 0.7117(3) 0.5263(4)
C26_4 C 0.1818(3) 0.6453(3) 0.5319(3)
O8_4 O 0.1824(3) 0.6176(3) 0.4999(3)
O9_4 O 0.1052(3) 0.8450(2) 0.4314(3)
O10_4 O 0.1399(3) 0.7725(2) 0.4251(2)
C27_4 C 0.0931(4) 0.8032(3) 0.4235(3)
C28_4 C 0.0195(4) 0.7902(3) 0.4163(3)
C30_4 C 0.0399(5) 0.7274(3) 0.3569(4)
H22_4 H 0.088330 0.732178 0.359424
C31_4 C 0.0115(5) 0.6940(5) 0.3249(5)
H23_4 H 0.041087 0.677023 0.304568
C39_4 C 0.3105(4) 0.6892(3) 0.4466(3)
C40_4 C 0.3198(4) 0.6969(3) 0.3932(3)
C41_4 C 0.2765(4) 0.6754(3) 0.3578(3)
C42_4 C 0.2210(5) 0.6477(4) 0.3699(4)
H28_4 H 0.213169 0.642427 0.403828
C43_4 C 0.1773(7) 0.6278(5) 0.3350(5)
H29_4 H 0.138365 0.610693 0.344464
C44_4 C 0.1916(7) 0.6332(5) 0.2855(6)
H30_4 H 0.163712 0.618187 0.260788
C45_4 C 0.2452(6) 0.6599(4) 0.2722(4)
H31_4 H 0.252562 0.663827 0.237982
C46_4 C 0.2894(5) 0.6815(3) 0.3061(4)
C47_4 C 0.3461(4) 0.7090(3) 0.2927(3)
C48_4 C 0.3882(5) 0.7293(3) 0.3291(3)
H32_4 H 0.427978 0.745777 0.320316
C49_4 C 0.3720(5) 0.7254(3) 0.3791(3)
H33_4 H 0.397366 0.742680 0.403475
C50_4 C 0.3621(4) 0.7160(3) 0.2401(3)
O16_4 O 0.4194(3) 0.7046(2) 0.2258(2)
O17_4 O 0.5172(4) 0.6317(3) 0.1940(3)
C51_4 C 0.4984(5) 0.6452(4) 0.1508(4)
H34_4 H 0.469188 0.671358 0.148712
N2_4 N 0.5151(5) 0.6268(4) 0.1093(4)
C52_4 C 0.4965(6) 0.6458(5) 0.0626(4)
H35_4 H 0.475773 0.676120 0.067011
H36_4 H 0.537698 0.648888 0.043164
H37_4 H 0.463299 0.625587 0.045161
C53_4 C 0.5605(9) 0.5858(5) 0.1118(7)
H38_4 H 0.566813 0.575681 0.146215
H39_4 H 0.539403 0.561008 0.091899
H40_4 H 0.605381 0.593625 0.098860
H52_4 H 0.906791 0.700658 0.018453
O25_4 O 0.8176(3) 0.6176(3) 0.0001(3)
O26_4 O 0.8948(3) 0.8450(2) 0.0686(3)
O27_4 O 0.8601(3) 0.7725(2) 0.0749(2)
C78_4 C 0.9069(4) 0.8032(3) 0.0765(3)
C79_4 C 0.9805(4) 0.7902(3) 0.0837(3)
C81_4 C 0.9601(5) 0.7274(3) 0.1431(4)
H54_4 H 0.911670 0.732178 0.140576
C82_4 C 0.9885(5) 0.6940(5) 0.1751(5)
H55_4 H 0.958913 0.677023 0.195432
C90_4 C 0.6895(4) 0.6892(3) 0.0534(3)
C91_4 C 0.6802(4) 0.6969(3) 0.1068(3)
C92_4 C 0.7235(4) 0.6754(3) 0.1422(3)
C93_4 C 0.7790(5) 0.6477(4) 0.1301(4)
H60_4 H 0.786831 0.642427 0.096172
C94_4 C 0.8227(7) 0.6278(5) 0.1650(5)
H61_4 H 0.861635 0.610693 0.155536
C95_4 C 0.8084(7) 0.6332(5) 0.2145(6)
H62_4 H 0.836288 0.618187 0.239212
C96_4 C 0.7548(6) 0.6599(4) 0.2278(4)
H63_4 H 0.747438 0.663827 0.262018
C97_4 C 0.7106(5) 0.6815(3) 0.1939(4)
C98_4 C 0.6539(4) 0.7090(3) 0.2073(3)
C99_4 C 0.6118(5) 0.7293(3) 0.1709(3)
H64_4 H 0.572022 0.745777 0.179684
C100_4 C 0.6280(5) 0.7254(3) 0.1209(3)
H65_4 H 0.602634 0.742680 0.096525
C101_4 C 0.6379(4) 0.7160(3) 0.2599(3)
O33_4 O 0.5806(3) 0.7046(2) 0.2742(2)
O34_4 O 0.4828(4) 0.6317(3) 0.3060(3)
C102_4 C 0.5016(5) 0.6452(4) 0.3492(4)
H66_4 H 0.530812 0.671358 0.351288
N3_4 N 0.4849(5) 0.6268(4) 0.3907(4)
C103_4 C 0.5035(6) 0.6458(5) 0.4374(4)
H67_4 H 0.524227 0.676120 0.432989
H68_4 H 0.462302 0.648888 0.456836
H69_4 H 0.536701 0.625587 0.454839
C104_4 C 0.4395(9) 0.5858(5) 0.3882(7)
H70_4 H 0.433187 0.575681 0.353785
H71_4 H 0.460597 0.561008 0.408101
H72_4 H 0.394619 0.593625 0.401140
C68_4 C 0.9801(5) 0.6739(4) 0.8948(4)
C70_4 C 0.9691(7) 0.6294(5) 0.8192(6)
H49_4 H 0.987271 0.619617 0.789001
C71_4 C 0.9063(7) 0.6131(5) 0.8342(5)
H50_4 H 0.881656 0.593028 0.812168
C72_4 C 0.8771(6) 0.6233(5) 0.8773(5)
H51_4 H 0.834201 0.610673 0.885938
C73_4 C 0.9157(5) 0.6547(4) 0.9093(4)
C74_4 C 0.8888(3) 0.6660(3) 0.9539(3)
C75_4 C 0.9247(4) 0.6937(3) 0.9872(4)
C76_4 C 0.9889(4) 0.7117(3) 0.9737(4)
C77_4 C 0.8182(3) 0.6453(3) 0.9681(3)
C9_4 C 0.7073(6) 0.0021(4) 0.6411(5)
H11_4 H 0.711630 0.034435 0.644471
C14_4 C 0.8031(5) 0.0509(3) 0.5741(5)
O3_4 O 0.7902(4) 0.0751(2) 0.6086(3)
H15_4 H 0.769492 0.098745 0.598182
O1_4 O 0.8160(4) 0.8347(2) 0.6280(3)
O2_4 O 0.8074(4) 0.8301(2) 0.5466(3)
C3_4 C 0.8075(5) 0.8514(3) 0.5858(4)
C4_4 C 0.8014(5) 0.9035(3) 0.5843(4)
C5_4 C 0.8371(6) 0.9260(4) 0.5494(4)
H9_4 H 0.861782 0.909078 0.525967
C6_4 C 0.8375(6) 0.9736(3) 0.5483(4)
H10_4 H 0.866469 0.988617 0.525970
C7_4 C 0.7984(4) 0.9994(3) 0.5775(4)
C8_4 C 0.7514(6) 0.9769(3) 0.6094(5)
C10_4 C 0.6580(8) 0.9779(5) 0.6670(6)
H12_4 H 0.622739 0.993951 0.683062
C11_4 C 0.6612(7) 0.9305(4) 0.6687(6)
H13_4 H 0.631483 0.914448 0.689735
C12_4 C 0.7052(6) 0.9061(4) 0.6416(5)
H14_4 H 0.702897 0.873497 0.641663
C13_4 C 0.7544(6) 0.9283(3) 0.6132(5)
O5_4 O 0.9037(3) 0.7356(2) 0.6243(3)
O6_4 O 0.8800(3) 0.7371(3) 0.5438(3)
C15_4 C 0.9159(5) 0.7257(3) 0.5811(5)
C16_4 C 0.9852(4) 0.7033(3) 0.5710(3)
C18_4 C 0.9952(6) 0.6607(5) 0.6502(5)
H16_4 H 0.952942 0.673147 0.660462
H21_4 H 0.985409 0.730190 0.503290
C29_4 C 0.9960(4) 0.7538(3) 0.3852(3)
C32_4 C 0.9421(5) 0.6850(5) 0.3220(5)
H24_4 H 0.924234 0.661394 0.300828
C33_4 C 0.8996(6) 0.7098(4) 0.3494(5)
H25_4 H 0.851643 0.703608 0.346784
C34_4 C 0.9232(4) 0.7440(3) 0.3811(3)
C35_4 C 0.8783(4) 0.7713(3) 0.4109(3)
C36_4 C 0.9040(4) 0.8052(3) 0.4386(3)
H26_4 H 0.874067 0.822268 0.458457
C37_4 C 0.9741(4) 0.8168(3) 0.4394(3)
H27_4 H 0.989770 0.843617 0.456452
C38_4 C 0.8017(4) 0.7624(3) 0.4121(3)
loop_
_geom_bond_atom_site_label_1
_geom_bond_atom_site_label_2
_geom_bond_site_symmetry_1
_geom_bond_site_symmetry_2
N1 H1 1_555 1_555
H2 N1 1_555 1_555
C1 N1 1_555 1_555
H3 C1 1_555 1_555
H4 C1 1_555 1_555
H5 C1 1_555 1_555
C2 N1 1_555 1_555
H6 C2 1_555 1_555
H7 C2 1_555 1_555
H8 C2 1_555 1_555
N1_2 H1_2 1_555 1_555
H2_2 N1_2 1_555 1_555
C1_2 N1_2 1_555 1_555
H3_2 C1_2 1_555 1_555
H4_2 C1_2 1_555 1_555
H5_2 C1_2 1_555 1_555
C2_2 N1_2 1_555 1_555
H6_2 C2_2 1_555 1_555
H7_2 C2_2 1_555 1_555
H8_2 C2_2 1_555 1_555
N1_3 H1_3 1_555 1_555
H2_3 N1_3 1_555 1_555
C1_3 N1_3 1_555 1_555
H3_3 C1_3 1_555 1_555
H4_3 C1_3 1_555 1_555
H5_3 C1_3 1_555 1_555
C2_3 N1_3 1_555 1_555
H6_3 C2_3 1_555 1_555
H7_3 C2_3 1_555 1_555
H8_3 C2_3 1_555 1_555
N1_4 H1_4 1_555 1_555
H2_4 N1_4 1_555 1_555
C1_4 N1_4 1_555 1_555
H3_4 C1_4 1_555 1_555
H4_4 C1_4 1_555 1_555
H5_4 C1_4 1_555 1_555
C2_4 N1_4 1_555 1_555
H6_4 C2_4 1_555 1_555
H7_4 C2_4 1_555 1_555
H8_4 C2_4 1_555 1_555
N1_5 H1_5 1_555 1_555
H2_5 N1_5 1_555 1_555
C1_5 N1_5 1_555 1_555
H3_5 C1_5 1_555 1_555
H4_5 C1_5 1_555 1_555
H5_5 C1_5 1_555 1_555
C2_5 N1_5 1_555 1_555
H6_5 C2_5 1_555 1_555
H7_5 C2_5 1_555 1_555
H8_5 C2_5 1_555 1_555
N1_6 H1_6 1_555 1_555
H2_6 N1_6 1_555 1_555
C1_6 N1_6 1_555 1_555
H3_6 C1_6 1_555 1_555
H4_6 C1_6 1_555 1_555
H5_6 C1_6 1_555 1_555
C2_6 N1_6 1_555 1_555
H6_6 C2_6 1_555 1_555
H7_6 C2_6 1_555 1_555
H8_6 C2_6 1_555 1_555
N1_7 H1_7 1_555 1_555
H2_7 N1_7 1_555 1_555
C1_7 N1_7 1_555 1_555
H3_7 C1_7 1_555 1_555
H4_7 C1_7 1_555 1_555
H5_7 C1_7 1_555 1_555
C2_7 N1_7 1_555 1_555
H6_7 C2_7 1_555 1_555
H7_7 C2_7 1_555 1_555
H8_7 C2_7 1_555 1_555
N1_8 H1_8 1_555 1_555
H2_8 N1_8 1_555 1_555
C1_8 N1_8 1_555 1_555
H3_8 C1_8 1_555 1_555
H4_8 C1_8 1_555 1_555
H5_8 C1_8 1_555 1_555
C2_8 N1_8 1_555 1_555
H6_8 C2_8 1_555 1_555
H7_8 C2_8 1_555 1_555
H8_8 C2_8 1_555 1_555
Li1 O2 1_555 1_555
Zn1 O1 1_555 1_555
Li2 O10 1_555 1_555
Zn2 O9 1_555 1_555
Li3 O16 1_555 1_555
O1 C3 1_555 1_555
O2 C3 1_555 1_555
C3 C4 1_555 1_555
C4 C5 1_555 1_555
C5 H9 1_555 1_555
C6 C5 1_555 1_555
H10 C6 1_555 1_555
C7 C6 1_555 1_555
C8 C7 1_555 1_555
C9 C8 1_555 1_555
H11 C9 1_555 1_555
C10 C9 1_555 1_555
H12 C10 1_555 1_555
C11 C10 1_555 1_555
H13 C11 1_555 1_555
C12 C11 1_555 1_555
H14 C12 1_555 1_555
C13 C4 1_555 1_555
C14 C7 1_555 1_555
O3 C14 1_555 1_555
H15 O3 1_555 1_555
O4 C14 1_555 1_555
O5 Zn1 1_555 1_555
O6 Li1 1_555 1_555
C15 O5 1_555 1_555
C16 C15 1_555 1_555
C17 C16 1_555 1_555
C18 C17 1_555 1_555
H16 C18 1_555 1_555
C19 C18 1_555 1_555
H17 C19 1_555 1_555
C20 C19 1_555 1_555
H18 C20 1_555 1_555
C21 C20 1_555 1_555
H19 C21 1_555 1_555
C22 C17 1_555 1_555
C23 C22 1_555 1_555
C24 C23 1_555 1_555
H20 C24 1_555 1_555
C25 C16 1_555 1_555
H21 C25 1_555 1_555
C26 C23 1_555 1_555
O7 C26 1_555 1_555
O8 C26 1_555 1_555
O9 C27 1_555 1_555
O10 C27 1_555 1_555
C27 C28 1_555 1_555
C28 C29 1_555 1_555
C29 C30 1_555 1_555
C30 H22 1_555 1_555
C31 C30 1_555 1_555
H23 C31 1_555 1_555
C32 C31 1_555 1_555
H24 C32 1_555 1_555
C33 C32 1_555 1_555
H25 C33 1_555 1_555
C34 C29 1_555 1_555
C35 C34 1_555 1_555
C36 C35 1_555 1_555
H26 C36 1_555 1_555
C37 C28 1_555 1_555
H27 C37 1_555 1_555
C38 C35 1_555 1_555
O11 Li1 1_555 1_555
O12 C38 1_555 1_555
O13 Li2 1_555 1_555
O14 C39 1_555 1_555
C39 O13 1_555 1_555
C40 C39 1_555 1_555
C41 C40 1_555 1_555
C42 C41 1_555 1_555
H28 C42 1_555 1_555
C43 C42 1_555 1_555
H29 C43 1_555 1_555
C44 C43 1_555 1_555
H30 C44 1_555 1_555
C45 C44 1_555 1_555
H31 C45 1_555 1_555
C46 C41 1_555 1_555
C47 C46 1_555 1_555
C48 C47 1_555 1_555
H32 C48 1_555 1_555
C49 C40 1_555 1_555
H33 C49 1_555 1_555
C50 C47 1_555 1_555
O15 C50 1_555 1_555
O16 C50 1_555 1_555
H34 C51 1_555 1_555
H35 C52 1_555 1_555
H37 C52 1_555 1_555
O34 Li3 1_555 1_555
C104 N3 1_555 1_555
H70 C104 1_555 1_555
H71 C104 1_555 1_555
H72 C104 1_555 1_555
Li6 O11 1_555 1_555
Zn6 O12 1_555 1_555
Zn8 O15 1_555 1_555
Li8 O7 1_555 1_555
Zn9 O4 1_555 1_555
Zn11 O7 1_555 1_555
O35 Zn2 1_555 1_555
O37 Li2 1_555 1_555
O39 Li1 1_555 1_555
O41 Zn1 1_555 1_555
O43 Li2 1_555 1_555
O45 Zn2 1_555 1_555
O48 Zn1 1_555 1_555
Zn2 O37 1_555 1_555
C8 C13 1_555 1_555
C12 C13 1_555 1_555
O6 C15 1_555 1_555
C21 C22 1_555 1_555
C24 C25 1_555 1_555
C33 C34 1_555 1_555
C36 C37 1_555 1_555
C38 O11 1_555 1_555
O13 Li8 1_555 1_555
O14 Zn11 1_555 1_555
C45 C46 1_555 1_555
C48 C49 1_555 1_555
Li6 O39 1_555 1_555
Li8 O43 1_555 1_555
Li4 O19 1_555 1_555
Zn3 O18 1_555 1_555
O18 C54 1_555 1_555
O19 C54 1_555 1_555
C54 C55 1_555 1_555
C55 C56 1_555 1_555
C56 H41 1_555 1_555
C57 C56 1_555 1_555
H42 C57 1_555 1_555
C58 C57 1_555 1_555
C59 C58 1_555 1_555
C60 C59 1_555 1_555
H43 C60 1_555 1_555
C61 C60 1_555 1_555
H44 C61 1_555 1_555
C62 C61 1_555 1_555
H45 C62 1_555 1_555
C63 C62 1_555 1_555
H46 C63 1_555 1_555
C64 C55 1_555 1_555
C65 C58 1_555 1_555
O20 C65 1_555 1_555
H47 O20 1_555 1_555
O21 C65 1_555 1_555
O22 Zn3 1_555 1_555
O23 Li4 1_555 1_555
C66 O22 1_555 1_555
C67 C66 1_555 1_555
C68 C67 1_555 1_555
C69 C68 1_555 1_555
H48 C69 1_555 1_555
C70 C69 1_555 1_555
H49 C70 1_555 1_555
C71 C70 1_555 1_555
H50 C71 1_555 1_555
C72 C71 1_555 1_555
H51 C72 1_555 1_555
C73 C68 1_555 1_555
C74 C73 1_555 1_555
C75 C74 1_555 1_555
C76 C67 1_555 1_555
H53 C76 1_555 1_555
C77 C74 1_555 1_555
O24 C77 1_555 1_555
Li9 O24 1_555 1_555
Zn10 O21 1_555 1_555
Zn12 O24 1_555 1_555
O40 Li4 1_555 1_555
O42 Zn3 1_555 1_555
O47 Zn3 1_555 1_555
C59 C64 1_555 1_555
C63 C64 1_555 1_555
O23 C66 1_555 1_555
C72 C73 1_555 1_555
C75 C76 1_555 1_555
Li9 O44 1_555 1_555
O17 Li3_2 1_555 1_555
C53 N2 1_555 1_555
H38 C53 1_555 1_555
H39 C53 1_555 1_555
H40 C53 1_555 1_555
Li5 O27 1_555 1_555
Zn4 O26 1_555 1_555
O26 C78 1_555 1_555
O27 C78 1_555 1_555
C78 C79 1_555 1_555
C79 C80 1_555 1_555
C80 C81 1_555 1_555
C81 H54 1_555 1_555
C82 C81 1_555 1_555
H55 C82 1_555 1_555
C83 C82 1_555 1_555
H56 C83 1_555 1_555
C84 C83 1_555 1_555
H57 C84 1_555 1_555
C85 C80 1_555 1_555
C86 C85 1_555 1_555
C87 C86 1_555 1_555
H58 C87 1_555 1_555
C88 C79 1_555 1_555
H59 C88 1_555 1_555
C89 C86 1_555 1_555
O29 C89 1_555 1_555
O30 Li5 1_555 1_555
O31 C90 1_555 1_555
C90 O30 1_555 1_555
C91 C90 1_555 1_555
C92 C91 1_555 1_555
C93 C92 1_555 1_555
H60 C93 1_555 1_555
C94 C93 1_555 1_555
H61 C94 1_555 1_555
C95 C94 1_555 1_555
H62 C95 1_555 1_555
C96 C95 1_555 1_555
H63 C96 1_555 1_555
C97 C92 1_555 1_555
C98 C97 1_555 1_555
C99 C98 1_555 1_555
H64 C99 1_555 1_555
C100 C91 1_555 1_555
H65 C100 1_555 1_555
C101 C98 1_555 1_555
O32 C101 1_555 1_555
O33 Li3_2 1_555 1_555
H66 C102 1_555 1_555
H67 C103 1_555 1_555
H69 C103 1_555 1_555
Li7 O28 1_555 1_555
Zn6 O32 1_555 1_555
Zn8 O29 1_555 1_555
O36 Zn4 1_555 1_555
O38 Li5 1_555 1_555
Zn4 O38 1_555 1_555
C84 C85 1_555 1_555
C87 C88 1_555 1_555
C89 O28 1_555 1_555
C96 C97 1_555 1_555
C99 C100 1_555 1_555
C101 O33 1_555 1_555
Li1_2 O2_2 1_555 1_555
Zn1_2 O1_2 1_555 1_555
O1_2 C3_2 1_555 1_555
O2_2 C3_2 1_555 1_555
C3_2 C4_2 1_555 1_555
C4_2 C5_2 1_555 1_555
C5_2 H9_2 1_555 1_555
C6_2 C5_2 1_555 1_555
H10_2 C6_2 1_555 1_555
C7_2 C6_2 1_555 1_555
C8_2 C7_2 1_555 1_555
H12_2 C10_2 1_555 1_555
C11_2 C10_2 1_555 1_555
H13_2 C11_2 1_555 1_555
C12_2 C11_2 1_555 1_555
H14_2 C12_2 1_555 1_555
C13_2 C4_2 1_555 1_555
O5_2 Zn1_2 1_555 1_555
O6_2 Li1_2 1_555 1_555
C15_2 O5_2 1_555 1_555
C16_2 C15_2 1_555 1_555
H16_2 C18_2 1_555 1_555
H24_2 C32_2 1_555 1_555
C33_2 C32_2 1_555 1_555
H25_2 C33_2 1_555 1_555
C34_2 C29_2 1_555 1_555
C35_2 C34_2 1_555 1_555
C36_2 C35_2 1_555 1_555
H26_2 C36_2 1_555 1_555
H27_2 C37_2 1_555 1_555
C38_2 C35_2 1_555 1_555
O11_2 Li1_2 1_555 1_555
O12_2 C38_2 1_555 1_555
Li6_2 O11_2 1_555 1_555
Zn6_2 O12_2 1_555 1_555
O39_2 Li1_2 1_555 1_555
O41_2 Zn1_2 1_555 1_555
O48_2 Zn1_2 1_555 1_555
C8_2 C13_2 1_555 1_555
C12_2 C13_2 1_555 1_555
O6_2 C15_2 1_555 1_555
C33_2 C34_2 1_555 1_555
C36_2 C37_2 1_555 1_555
C38_2 O11_2 1_555 1_555
Li6_2 O39_2 1_555 1_555
H11_2 C9_2 1_555 1_555
O3_2 C14_2 1_555 1_555
H15_2 O3_2 1_555 1_555
O4_2 C14_2 1_555 1_555
Zn11 O4_2 1_555 1_555
H49_2 C70_2 1_555 1_555
C71_2 C70_2 1_555 1_555
H50_2 C71_2 1_555 1_555
C72_2 C71_2 1_555 1_555
H51_2 C72_2 1_555 1_555
C73_2 C68_2 1_555 1_555
C74_2 C73_2 1_555 1_555
C75_2 C74_2 1_555 1_555
C77_2 C74_2 1_555 1_555
O24_2 C77_2 1_555 1_555
Li9_2 O24_2 1_555 1_555
Zn10 O24_2 1_555 1_555
C72_2 C73_2 1_555 1_555
C75_2 C76_2 1_555 1_555
Li9_2 O44_2 1_555 1_555
Li2_2 O10_2 1_555 1_555
Zn2_2 O9_2 1_555 1_555
Li3_3 O16_2 1_555 1_555
H17_2 C19_2 1_555 1_555
C20_2 C19_2 1_555 1_555
H18_2 C20_2 1_555 1_555
C21_2 C20_2 1_555 1_555
H19_2 C21_2 1_555 1_555
C22_2 C17_2 1_555 1_555
C23_2 C22_2 1_555 1_555
C24_2 C23_2 1_555 1_555
H20_2 C24_2 1_555 1_555
C26_2 C23_2 1_555 1_555
O7_2 C26_2 1_555 1_555
O8_2 C26_2 1_555 1_555
O9_2 C27_2 1_555 1_555
O10_2 C27_2 1_555 1_555
C27_2 C28_2 1_555 1_555
C30_2 H22_2 1_555 1_555
C31_2 C30_2 1_555 1_555
H23_2 C31_2 1_555 1_555
O13_2 Li2_2 1_555 1_555
O14_2 C39_2 1_555 1_555
C39_2 O13_2 1_555 1_555
C40_2 C39_2 1_555 1_555
C41_2 C40_2 1_555 1_555
C42_2 C41_2 1_555 1_555
H28_2 C42_2 1_555 1_555
C43_2 C42_2 1_555 1_555
H29_2 C43_2 1_555 1_555
C44_2 C43_2 1_555 1_555
H30_2 C44_2 1_555 1_555
C45_2 C44_2 1_555 1_555
H31_2 C45_2 1_555 1_555
C46_2 C41_2 1_555 1_555
C47_2 C46_2 1_555 1_555
C48_2 C47_2 1_555 1_555
H32_2 C48_2 1_555 1_555
C49_2 C40_2 1_555 1_555
H33_2 C49_2 1_555 1_555
C50_2 C47_2 1_555 1_555
O15_2 C50_2 1_555 1_555
O16_2 C50_2 1_555 1_555
O17_2 Li3_3 1_555 1_555
C51_2 O17_2 1_555 1_555
H34_2 C51_2 1_555 1_555
N2_2 C51_2 1_555 1_555
C52_2 N2_2 1_555 1_555
H35_2 C52_2 1_555 1_555
H36_2 C52_2 1_555 1_555
H37_2 C52_2 1_555 1_555
C53_2 N2_2 1_555 1_555
H38_2 C53_2 1_555 1_555
H39_2 C53_2 1_555 1_555
H40_2 C53_2 1_555 1_555
Li5_2 O27_2 1_555 1_555
Zn4_2 O26_2 1_555 1_555
O26_2 C78_2 1_555 1_555
O27_2 C78_2 1_555 1_555
C78_2 C79_2 1_555 1_555
C81_2 H54_2 1_555 1_555
C82_2 C81_2 1_555 1_555
H55_2 C82_2 1_555 1_555
O30_2 Li5_2 1_555 1_555
O31_2 C90_2 1_555 1_555
C90_2 O30_2 1_555 1_555
C91_2 C90_2 1_555 1_555
C92_2 C91_2 1_555 1_555
C93_2 C92_2 1_555 1_555
H60_2 C93_2 1_555 1_555
C94_2 C93_2 1_555 1_555
H61_2 C94_2 1_555 1_555
C95_2 C94_2 1_555 1_555
H62_2 C95_2 1_555 1_555
C96_2 C95_2 1_555 1_555
H63_2 C96_2 1_555 1_555
C97_2 C92_2 1_555 1_555
C98_2 C97_2 1_555 1_555
C99_2 C98_2 1_555 1_555
H64_2 C99_2 1_555 1_555
C100_2 C91_2 1_555 1_555
H65_2 C100_2 1_555 1_555
C101_2 C98_2 1_555 1_555
O32_2 C101_2 1_555 1_555
O33_2 Li3_3 1_555 1_555
O34_2 Li3_3 1_555 1_555
C102_2 O34_2 1_555 1_555
H66_2 C102_2 1_555 1_555
N3_2 C102_2 1_555 1_555
C103_2 N3_2 1_555 1_555
H67_2 C103_2 1_555 1_555
H68_2 C103_2 1_555 1_555
H69_2 C103_2 1_555 1_555
C104_2 N3_2 1_555 1_555
H70_2 C104_2 1_555 1_555
H71_2 C104_2 1_555 1_555
H72_2 C104_2 1_555 1_555
Zn6_2 O32_2 1_555 1_555
Zn8_2 O15_2 1_555 1_555
Li8_2 O7_2 1_555 1_555
Zn9 O7_2 1_555 1_555
O35_2 Zn2_2 1_555 1_555
O36_2 Zn4_2 1_555 1_555
O37_2 Li2_2 1_555 1_555
O38_2 Li5_2 1_555 1_555
O43_2 Li2_2 1_555 1_555
O45_2 Zn2_2 1_555 1_555
Zn2_2 O37_2 1_555 1_555
C21_2 C22_2 1_555 1_555
C24_2 C25_2 1_555 1_555
O13_2 Li8_2 1_555 1_555
O14_2 Zn9 1_555 1_555
C45_2 C46_2 1_555 1_555
C48_2 C49_2 1_555 1_555
Zn4_2 O38_2 1_555 1_555
C96_2 C97_2 1_555 1_555
C99_2 C100_2 1_555 1_555
C101_2 O33_2 1_555 1_555
Li8_2 O43_2 1_555 1_555
Li4_2 O19_2 1_555 1_555
Zn3_2 O18_2 1_555 1_555
O18_2 C54_2 1_555 1_555
O19_2 C54_2 1_555 1_555
C54_2 C55_2 1_555 1_555
C55_2 C56_2 1_555 1_555
C56_2 H41_2 1_555 1_555
C57_2 C56_2 1_555 1_555
H42_2 C57_2 1_555 1_555
C58_2 C57_2 1_555 1_555
C59_2 C58_2 1_555 1_555
H44_2 C61_2 1_555 1_555
C62_2 C61_2 1_555 1_555
H45_2 C62_2 1_555 1_555
C63_2 C62_2 1_555 1_555
H46_2 C63_2 1_555 1_555
C64_2 C55_2 1_555 1_555
O22_2 Zn3_2 1_555 1_555
O23_2 Li4_2 1_555 1_555
C66_2 O22_2 1_555 1_555
C67_2 C66_2 1_555 1_555
H48_2 C69_2 1_555 1_555
O40_2 Li4_2 1_555 1_555
O42_2 Zn3_2 1_555 1_555
O47_2 Zn3_2 1_555 1_555
C59_2 C64_2 1_555 1_555
C63_2 C64_2 1_555 1_555
O23_2 C66_2 1_555 1_555
H56_2 C83_2 1_555 1_555
C84_2 C83_2 1_555 1_555
H57_2 C84_2 1_555 1_555
C85_2 C80_2 1_555 1_555
C86_2 C85_2 1_555 1_555
C87_2 C86_2 1_555 1_555
H58_2 C87_2 1_555 1_555
H59_2 C88_2 1_555 1_555
C89_2 C86_2 1_555 1_555
O29_2 C89_2 1_555 1_555
Li7_2 O28_2 1_555 1_555
Zn8_2 O29_2 1_555 1_555
C84_2 C85_2 1_555 1_555
C87_2 C88_2 1_555 1_555
C89_2 O28_2 1_555 1_555
H43_2 C60_2 1_555 1_555
O20_2 C65_2 1_555 1_555
H47_2 O20_2 1_555 1_555
O21_2 C65_2 1_555 1_555
Zn12 O21_2 1_555 1_555
O17_3 Li3_4 1_555 1_555
C53_3 N2_3 1_555 1_555
H38_3 C53_3 1_555 1_555
H39_3 C53_3 1_555 1_555
H40_3 C53_3 1_555 1_555
Li9_2 O27_3 1_555 1_555
Zn10 O26_3 1_555 1_555
O26_3 C78_3 1_555 1_555
O27_3 C78_3 1_555 1_555
C78_3 C79_3 1_555 1_555
C79_3 C80_3 1_555 1_555
C80_3 C81_3 1_555 1_555
C81_3 H54_3 1_555 1_555
C82_3 C81_3 1_555 1_555
H55_3 C82_3 1_555 1_555
C83_3 C82_3 1_555 1_555
H56_3 C83_3 1_555 1_555
C84_3 C83_3 1_555 1_555
H57_3 C84_3 1_555 1_555
C85_3 C80_3 1_555 1_555
C86_3 C85_3 1_555 1_555
C87_3 C86_3 1_555 1_555
H58_3 C87_3 1_555 1_555
C88_3 C79_3 1_555 1_555
H59_3 C88_3 1_555 1_555
C89_3 C86_3 1_555 1_555
O42_2 C89_3 1_555 1_555
O46_2 C90_3 1_555 1_555
C90_3 O44_2 1_555 1_555
C91_3 C90_3 1_555 1_555
C92_3 C91_3 1_555 1_555
C93_3 C92_3 1_555 1_555
H60_3 C93_3 1_555 1_555
C94_3 C93_3 1_555 1_555
H61_3 C94_3 1_555 1_555
C95_3 C94_3 1_555 1_555
H62_3 C95_3 1_555 1_555
C96_3 C95_3 1_555 1_555
H63_3 C96_3 1_555 1_555
C97_3 C92_3 1_555 1_555
C98_3 C97_3 1_555 1_555
C99_3 C98_3 1_555 1_555
H64_3 C99_3 1_555 1_555
C100_3 C91_3 1_555 1_555
H65_3 C100_3 1_555 1_555
C101_3 C98_3 1_555 1_555
O48_2 C101_3 1_555 1_555
O33_3 Li3_4 1_555 1_555
H66_3 C102_3 1_555 1_555
H67_3 C103_3 1_555 1_555
H69_3 C103_3 1_555 1_555
C84_3 C85_3 1_555 1_555
C87_3 C88_3 1_555 1_555
C89_3 O40_2 1_555 1_555
C96_3 C97_3 1_555 1_555
C99_3 C100_3 1_555 1_555
C101_3 O33_3 1_555 1_555
Li7_2 O19_3 1_555 1_555
Zn8_2 O18_3 1_555 1_555
O18_3 C54_3 1_555 1_555
O19_3 C54_3 1_555 1_555
C54_3 C55_3 1_555 1_555
C55_3 C56_3 1_555 1_555
C56_3 H41_3 1_555 1_555
C57_3 C56_3 1_555 1_555
H42_3 C57_3 1_555 1_555
C58_3 C57_3 1_555 1_555
C59_3 C58_3 1_555 1_555
C60_3 C59_3 1_555 1_555
H43_3 C60_3 1_555 1_555
C61_3 C60_3 1_555 1_555
H44_3 C61_3 1_555 1_555
C62_3 C61_3 1_555 1_555
H45_3 C62_3 1_555 1_555
C63_3 C62_3 1_555 1_555
H46_3 C63_3 1_555 1_555
C64_3 C55_3 1_555 1_555
C65_3 C58_3 1_555 1_555
O20_3 C65_3 1_555 1_555
H47_3 O20_3 1_555 1_555
O36 C65_3 1_555 1_555
O22_3 Zn8_2 1_555 1_555
O23_3 Li7_2 1_555 1_555
C66_3 O22_3 1_555 1_555
C67_3 C66_3 1_555 1_555
C68_3 C67_3 1_555 1_555
C69_3 C68_3 1_555 1_555
H48_3 C69_3 1_555 1_555
C70_3 C69_3 1_555 1_555
H49_3 C70_3 1_555 1_555
C71_3 C70_3 1_555 1_555
H50_3 C71_3 1_555 1_555
C72_3 C71_3 1_555 1_555
H51_3 C72_3 1_555 1_555
C73_3 C68_3 1_555 1_555
C74_3 C73_3 1_555 1_555
C75_3 C74_3 1_555 1_555
C76_3 C67_3 1_555 1_555
H53_3 C76_3 1_555 1_555
C77_3 C74_3 1_555 1_555
O38_2 C77_3 1_555 1_555
C59_3 C64_3 1_555 1_555
C63_3 C64_3 1_555 1_555
O23_3 C66_3 1_555 1_555
C72_3 C73_3 1_555 1_555
C75_3 C76_3 1_555 1_555
Li6_2 O2_3 1_555 1_555
Zn6_2 O1_3 1_555 1_555
Li8_2 O10_3 1_555 1_555
Zn9 O9_3 1_555 1_555
Li3_5 O16_3 1_555 1_555
O1_3 C3_3 1_555 1_555
O2_3 C3_3 1_555 1_555
C3_3 C4_3 1_555 1_555
C4_3 C5_3 1_555 1_555
C5_3 H9_3 1_555 1_555
C6_3 C5_3 1_555 1_555
H10_3 C6_3 1_555 1_555
C7_3 C6_3 1_555 1_555
C8_3 C7_3 1_555 1_555
C9_3 C8_3 1_555 1_555
H11_3 C9_3 1_555 1_555
C10_3 C9_3 1_555 1_555
H12_3 C10_3 1_555 1_555
C11_3 C10_3 1_555 1_555
H13_3 C11_3 1_555 1_555
C12_3 C11_3 1_555 1_555
H14_3 C12_3 1_555 1_555
C13_3 C4_3 1_555 1_555
C14_3 C7_3 1_555 1_555
O3_3 C14_3 1_555 1_555
H15_3 O3_3 1_555 1_555
O35 C14_3 1_555 1_555
O5_3 Zn6_2 1_555 1_555
O6_3 Li6_2 1_555 1_555
C15_3 O5_3 1_555 1_555
C16_3 C15_3 1_555 1_555
C17_3 C16_3 1_555 1_555
C18_3 C17_3 1_555 1_555
H16_3 C18_3 1_555 1_555
C19_3 C18_3 1_555 1_555
H17_3 C19_3 1_555 1_555
C20_3 C19_3 1_555 1_555
H18_3 C20_3 1_555 1_555
C21_3 C20_3 1_555 1_555
H19_3 C21_3 1_555 1_555
C22_3 C17_3 1_555 1_555
C23_3 C22_3 1_555 1_555
C24_3 C23_3 1_555 1_555
H20_3 C24_3 1_555 1_555
C25_3 C16_3 1_555 1_555
H21_3 C25_3 1_555 1_555
C26_3 C23_3 1_555 1_555
O37_2 C26_3 1_555 1_555
O8_3 C26_3 1_555 1_555
O9_3 C27_3 1_555 1_555
O10_3 C27_3 1_555 1_555
C27_3 C28_3 1_555 1_555
C28_3 C29_3 1_555 1_555
C29_3 C30_3 1_555 1_555
C30_3 H22_3 1_555 1_555
C31_3 C30_3 1_555 1_555
H23_3 C31_3 1_555 1_555
C32_3 C31_3 1_555 1_555
H24_3 C32_3 1_555 1_555
C33_3 C32_3 1_555 1_555
H25_3 C33_3 1_555 1_555
C34_3 C29_3 1_555 1_555
C35_3 C34_3 1_555 1_555
C36_3 C35_3 1_555 1_555
H26_3 C36_3 1_555 1_555
C37_3 C28_3 1_555 1_555
H27_3 C37_3 1_555 1_555
C38_3 C35_3 1_555 1_555
O41_2 C38_3 1_555 1_555
O45_2 C39_3 1_555 1_555
C39_3 O43_2 1_555 1_555
C40_3 C39_3 1_555 1_555
C41_3 C40_3 1_555 1_555
C42_3 C41_3 1_555 1_555
H28_3 C42_3 1_555 1_555
C43_3 C42_3 1_555 1_555
H29_3 C43_3 1_555 1_555
C44_3 C43_3 1_555 1_555
H30_3 C44_3 1_555 1_555
C45_3 C44_3 1_555 1_555
H31_3 C45_3 1_555 1_555
C46_3 C41_3 1_555 1_555
C47_3 C46_3 1_555 1_555
C48_3 C47_3 1_555 1_555
H32_3 C48_3 1_555 1_555
C49_3 C40_3 1_555 1_555
H33_3 C49_3 1_555 1_555
C50_3 C47_3 1_555 1_555
O47_2 C50_3 1_555 1_555
O16_3 C50_3 1_555 1_555
H34_3 C51_3 1_555 1_555
H35_3 C52_3 1_555 1_555
H37_3 C52_3 1_555 1_555
O34_3 Li3_5 1_555 1_555
C104_3 N3_3 1_555 1_555
H70_3 C104_3 1_555 1_555
H71_3 C104_3 1_555 1_555
H72_3 C104_3 1_555 1_555
C8_3 C13_3 1_555 1_555
C12_3 C13_3 1_555 1_555
O6_3 C15_3 1_555 1_555
C21_3 C22_3 1_555 1_555
C24_3 C25_3 1_555 1_555
C33_3 C34_3 1_555 1_555
C36_3 C37_3 1_555 1_555
C38_3 O39_2 1_555 1_555
C45_3 C46_3 1_555 1_555
C48_3 C49_3 1_555 1_555
H43_4 C60_4 1_555 1_555
O20_4 C65_4 1_555 1_555
H47_4 O20_4 1_555 1_555
O36_2 C65_4 1_555 1_555
H56_4 C83_4 1_555 1_555
C84_4 C83_4 1_555 1_555
H57_4 C84_4 1_555 1_555
C85_4 C80_4 1_555 1_555
C86_4 C85_4 1_555 1_555
C87_4 C86_4 1_555 1_555
H58_4 C87_4 1_555 1_555
H59_4 C88_4 1_555 1_555
C89_4 C86_4 1_555 1_555
O42 C89_4 1_555 1_555
C84_4 C85_4 1_555 1_555
C87_4 C88_4 1_555 1_555
C89_4 O40 1_555 1_555
Li7 O19_4 1_555 1_555
Zn8 O18_4 1_555 1_555
O18_4 C54_4 1_555 1_555
O19_4 C54_4 1_555 1_555
C54_4 C55_4 1_555 1_555
C55_4 C56_4 1_555 1_555
C56_4 H41_4 1_555 1_555
C57_4 C56_4 1_555 1_555
H42_4 C57_4 1_555 1_555
C58_4 C57_4 1_555 1_555
C59_4 C58_4 1_555 1_555
H44_4 C61_4 1_555 1_555
C62_4 C61_4 1_555 1_555
H45_4 C62_4 1_555 1_555
C63_4 C62_4 1_555 1_555
H46_4 C63_4 1_555 1_555
C64_4 C55_4 1_555 1_555
O22_4 Zn8 1_555 1_555
O23_4 Li7 1_555 1_555
C66_4 O22_4 1_555 1_555
C67_4 C66_4 1_555 1_555
H48_4 C69_4 1_555 1_555
C59_4 C64_4 1_555 1_555
C63_4 C64_4 1_555 1_555
O23_4 C66_4 1_555 1_555
Li8 O10_4 1_555 1_555
Zn11 O9_4 1_555 1_555
Li3_6 O16_4 1_555 1_555
H17_4 C19_4 1_555 1_555
C20_4 C19_4 1_555 1_555
H18_4 C20_4 1_555 1_555
C21_4 C20_4 1_555 1_555
H19_4 C21_4 1_555 1_555
C22_4 C17_4 1_555 1_555
C23_4 C22_4 1_555 1_555
C24_4 C23_4 1_555 1_555
H20_4 C24_4 1_555 1_555
C26_4 C23_4 1_555 1_555
O37 C26_4 1_555 1_555
O8_4 C26_4 1_555 1_555
O9_4 C27_4 1_555 1_555
O10_4 C27_4 1_555 1_555
C27_4 C28_4 1_555 1_555
C30_4 H22_4 1_555 1_555
C31_4 C30_4 1_555 1_555
H23_4 C31_4 1_555 1_555
O45 C39_4 1_555 1_555
C39_4 O43 1_555 1_555
C40_4 C39_4 1_555 1_555
C41_4 C40_4 1_555 1_555
C42_4 C41_4 1_555 1_555
H28_4 C42_4 1_555 1_555
C43_4 C42_4 1_555 1_555
H29_4 C43_4 1_555 1_555
C44_4 C43_4 1_555 1_555
H30_4 C44_4 1_555 1_555
C45_4 C44_4 1_555 1_555
H31_4 C45_4 1_555 1_555
C46_4 C41_4 1_555 1_555
C47_4 C46_4 1_555 1_555
C48_4 C47_4 1_555 1_555
H32_4 C48_4 1_555 1_555
C49_4 C40_4 1_555 1_555
H33_4 C49_4 1_555 1_555
C50_4 C47_4 1_555 1_555
O47 C50_4 1_555 1_555
O16_4 C50_4 1_555 1_555
O17_4 Li3_6 1_555 1_555
C51_4 O17_4 1_555 1_555
H34_4 C51_4 1_555 1_555
N2_4 C51_4 1_555 1_555
C52_4 N2_4 1_555 1_555
H35_4 C52_4 1_555 1_555
H36_4 C52_4 1_555 1_555
H37_4 C52_4 1_555 1_555
C53_4 N2_4 1_555 1_555
H38_4 C53_4 1_555 1_555
H39_4 C53_4 1_555 1_555
H40_4 C53_4 1_555 1_555
Li9 O27_4 1_555 1_555
Zn12 O26_4 1_555 1_555
O26_4 C78_4 1_555 1_555
O27_4 C78_4 1_555 1_555
C78_4 C79_4 1_555 1_555
C81_4 H54_4 1_555 1_555
C82_4 C81_4 1_555 1_555
H55_4 C82_4 1_555 1_555
O46 C90_4 1_555 1_555
C90_4 O44 1_555 1_555
C91_4 C90_4 1_555 1_555
C92_4 C91_4 1_555 1_555
C93_4 C92_4 1_555 1_555
H60_4 C93_4 1_555 1_555
C94_4 C93_4 1_555 1_555
H61_4 C94_4 1_555 1_555
C95_4 C94_4 1_555 1_555
H62_4 C95_4 1_555 1_555
C96_4 C95_4 1_555 1_555
H63_4 C96_4 1_555 1_555
C97_4 C92_4 1_555 1_555
C98_4 C97_4 1_555 1_555
C99_4 C98_4 1_555 1_555
H64_4 C99_4 1_555 1_555
C100_4 C91_4 1_555 1_555
H65_4 C100_4 1_555 1_555
C101_4 C98_4 1_555 1_555
O48 C101_4 1_555 1_555
O33_4 Li3_6 1_555 1_555
O34_4 Li3_6 1_555 1_555
C102_4 O34_4 1_555 1_555
H66_4 C102_4 1_555 1_555
N3_4 C102_4 1_555 1_555
C103_4 N3_4 1_555 1_555
H67_4 C103_4 1_555 1_555
H68_4 C103_4 1_555 1_555
H69_4 C103_4 1_555 1_555
C104_4 N3_4 1_555 1_555
H70_4 C104_4 1_555 1_555
H71_4 C104_4 1_555 1_555
H72_4 C104_4 1_555 1_555
C21_4 C22_4 1_555 1_555
C24_4 C25_4 1_555 1_555
C45_4 C46_4 1_555 1_555
C48_4 C49_4 1_555 1_555
C96_4 C97_4 1_555 1_555
C99_4 C100_4 1_555 1_555
C101_4 O33_4 1_555 1_555
H49_4 C70_4 1_555 1_555
C71_4 C70_4 1_555 1_555
H50_4 C71_4 1_555 1_555
C72_4 C71_4 1_555 1_555
H51_4 C72_4 1_555 1_555
C73_4 C68_4 1_555 1_555
C74_4 C73_4 1_555 1_555
C75_4 C74_4 1_555 1_555
C77_4 C74_4 1_555 1_555
O38 C77_4 1_555 1_555
C72_4 C73_4 1_555 1_555
C75_4 C76_4 1_555 1_555
H11_4 C9_4 1_555 1_555
O3_4 C14_4 1_555 1_555
H15_4 O3_4 1_555 1_555
O35_2 C14_4 1_555 1_555
Li6 O2_4 1_555 1_555
Zn6 O1_4 1_555 1_555
O1_4 C3_4 1_555 1_555
O2_4 C3_4 1_555 1_555
C3_4 C4_4 1_555 1_555
C4_4 C5_4 1_555 1_555
C5_4 H9_4 1_555 1_555
C6_4 C5_4 1_555 1_555
H10_4 C6_4 1_555 1_555
C7_4 C6_4 1_555 1_555
C8_4 C7_4 1_555 1_555
H12_4 C10_4 1_555 1_555
C11_4 C10_4 1_555 1_555
H13_4 C11_4 1_555 1_555
C12_4 C11_4 1_555 1_555
H14_4 C12_4 1_555 1_555
C13_4 C4_4 1_555 1_555
O5_4 Zn6 1_555 1_555
O6_4 Li6 1_555 1_555
C15_4 O5_4 1_555 1_555
C16_4 C15_4 1_555 1_555
H16_4 C18_4 1_555 1_555
H24_4 C32_4 1_555 1_555
C33_4 C32_4 1_555 1_555
H25_4 C33_4 1_555 1_555
C34_4 C29_4 1_555 1_555
C35_4 C34_4 1_555 1_555
C36_4 C35_4 1_555 1_555
H26_4 C36_4 1_555 1_555
H27_4 C37_4 1_555 1_555
C38_4 C35_4 1_555 1_555
O41 C38_4 1_555 1_555
C8_4 C13_4 1_555 1_555
C12_4 C13_4 1_555 1_555
O6_4 C15_4 1_555 1_555
C33_4 C34_4 1_555 1_555
C36_4 C37_4 1_555 1_555
C38_4 O39 1_555 1_555

#END
