
###############################################################################
#
# This file contains modified crystal structure data generated from the
# MOF subset of the Cambridge Structural Database (CSD) v543 
# hosted by the Cambridge Crystallographic Data Centre (CCDC).
#
# This work is licensed under the Creative Commons
# Attribution-NonCommercial-ShareAlike 4.0 International License.
# To view a copy of this license, visit
# http://creativecommons.org/licenses/by-nc-sa/4.0/
# or send a letter to
# Creative Commons, PO Box 1866, Mountain View, CA 94042, USA.
#
# CIF created using the CSD Python API on 29 September 2022
# The structure has been converted into the P1 space group
# The structure has a 3D framework
# The original CSD entry YANBAR03 is in the monoclinic crystal system
# The framework has been calculated to contain at least 10.0% void space
# The void calculation uses a probe of radius 1.32A, grid spacing 0.4
#
###############################################################################

data_YANBAR03
_chemical_formula_moiety         '(C24 H24 Co19 O47)n'
_symmetry_cell_setting           triclinic
_symmetry_space_group_name_H-M   'P 1'
_symmetry_Int_Tables_number      1
_space_group_name_Hall           'P 1'
loop_
_symmetry_equiv_pos_site_id
_symmetry_equiv_pos_as_xyz
1 x,y,z
_cell_length_a                   11.3729(4)
_cell_length_b                   9.9463(4)
_cell_length_c                   14.5118(6)
_cell_angle_alpha                90
_cell_angle_beta                 91.2783(15)
_cell_angle_gamma                90
_cell_volume                     1641.14
loop_
_atom_site_label
_atom_site_type_symbol
_atom_site_fract_x
_atom_site_fract_y
_atom_site_fract_z
Co1 Co 0.25477(2) 0.42208(2) 0.133533(16)
Co2 Co 0.5000 0.5000 0.0000
Co3 Co 0.0000 0.5000 0.0000
Co4 Co 0.23921(2) 0.61426(2) 0.309185(16)
O1 O 0.34805(11) 0.58268(12) 0.19574(9)
O2 O 0.50984(12) 0.62210(14) 0.11547(9)
C1 C 0.44456(17) 0.64291(19) 0.18049(13)
H1 H 0.4684 0.7103 0.2234
O3 O 0.18492(11) 0.52599(13) 0.02297(9)
O5 O 0.15736(10) 0.24471(14) 0.10835(8)
C3 C 0.07800(16) 0.21420(18) 0.04833(13)
H3 H 0.0611 0.1213 0.0404
O7 O 0.30439(11) 0.30342(12) 0.24837(8)
O8 O 0.30354(12) 0.44243(13) 0.37011(9)
C4 C 0.31797(16) 0.33055(18) 0.33401(12)
H4 H 0.3412 0.2588 0.3736
O9 O 0.40133(11) 0.34919(13) 0.06636(9)
O10 O 0.39561(12) 0.12863(13) 0.09992(9)
C5 C 0.43797(15) 0.22800(18) 0.06123(12)
H5 H 0.5043 0.2125 0.0240
O11 O 0.12868(12) 0.50825(12) 0.21747(9)
C6 C 0.01732(16) 0.51772(19) 0.21010(13)
Co8 Co 0.26079(2) 0.11426(2) 0.190815(16)
O26 O 0.65095(12) 0.39794(14) 0.04212(10)
O27 O 0.34264(10) 0.74471(14) 0.39165(8)
O29 O 0.19561(11) 0.80342(12) 0.25163(8)
O32 O 0.10439(12) 0.62863(13) 0.40008(9)
Co2_2 Co 0.5000 0.5000 1.0000
Co3_2 Co -0.0000 0.5000 1.0000
O4 O 0.34905(12) 0.60206(14) 0.95788(10)
C2 C 0.24098(17) 0.59905(18) 0.96605(13)
H2 H 0.1956 0.6560 0.9266
O6 O 0.02093(12) 0.29386(14) 0.99940(9)
O24 O 0.04272(12) 0.49926(14) 0.86083(10)
H12 H 0.0235 0.4600 0.7356
O25 O 0.49016(12) 0.37790(14) 0.88453(9)
O31 O 0.59867(11) 0.65081(13) 0.93364(9)
Co3_3 Co 1.0000 0.5000 0.0000
O12 O 0.95728(12) 0.50074(14) 0.13917(10)
H6 H 0.9765 0.5400 0.2644
C8 C 0.75902(17) 0.40095(18) 0.03395(13)
H8 H 0.8044 0.3440 0.0734
O18 O 0.97907(12) 0.70614(14) 0.00060(9)
Co3_4 Co 1.0000 0.5000 1.0000
Co5 Co 0.74523(2) 0.57792(2) 0.866467(16)
Co6 Co 0.76079(2) 0.38574(2) 0.690815(16)
O13 O 0.65195(11) 0.41732(12) 0.80426(9)
C7 C 0.55544(17) 0.35709(19) 0.81951(13)
H7 H 0.5316 0.2897 0.7766
O15 O 0.81508(11) 0.47401(13) 0.97703(9)
O17 O 0.84264(10) 0.75529(14) 0.89165(8)
C9 C 0.92200(16) 0.78580(18) 0.95167(13)
H9 H 0.9389 0.8787 0.9596
O19 O 0.69561(11) 0.69658(12) 0.75163(8)
O20 O 0.69646(12) 0.55757(13) 0.62989(9)
C10 C 0.68203(16) 0.66945(18) 0.66599(12)
H10 H 0.6588 0.7412 0.6264
O22 O 0.60439(12) 0.87137(13) 0.90008(9)
C11 C 0.56203(15) 0.77200(18) 0.93877(12)
H11 H 0.4957 0.7875 0.9760
O23 O 0.87132(12) 0.49175(12) 0.78253(9)
C12 C 0.98268(16) 0.48228(19) 0.78990(13)
Co9 Co 0.73921(2) 0.88574(2) 0.809185(16)
O28 O 0.65736(10) 0.25529(14) 0.60835(8)
O30 O 0.80439(11) 0.19658(12) 0.74837(8)
O33 O 0.89561(12) 0.37137(13) 0.59992(9)
H11_2 H 0.0043 0.2875 0.5240
Co7 Co -0.0000 0.0000 0.5000
O14 O 0.00984(12) 0.87790(14) 0.61547(9)
Co7_2 Co -0.0000 1.0000 0.5000
Co3_5 Co 0.5000 0.0000 0.5000
O1_2 O 0.15195(11) 0.08268(12) 0.30426(9)
C1_2 C 0.05544(17) 0.14291(19) 0.31951(13)
H1_2 H 0.0316 0.2103 0.2766
O3_2 O 0.31508(11) 0.02599(13) 0.47703(9)
O4_2 O 0.15095(12) 0.10206(14) 0.54212(10)
C2_2 C 0.25902(17) 0.09905(18) 0.53395(13)
H2_2 H 0.3044 0.1560 0.5734
O11_2 O 0.37132(12) 0.00825(12) 0.28253(9)
O12_2 O 0.54272(12) 0.00074(14) 0.36083(10)
C6_2 C 0.48268(16) 0.01772(19) 0.28990(13)
H6_2 H 0.5235 0.0400 0.2356
Co5_2 Co 0.75477(2) 0.07792(2) 0.633533(16)
O18_2 O 0.52093(12) 0.20614(14) 0.49940(9)
C9_2 C 0.57800(16) 0.28580(18) 0.54833(13)
H9_2 H 0.5611 0.3787 0.5404
O20_2 O 0.80354(12) 0.05757(13) 0.87011(9)
C10_2 C 0.81797(16) 0.16945(18) 0.83401(12)
H10_2 H 0.8412 0.2412 0.8736
O21 O 0.90133(11) 0.15081(13) 0.56636(9)
C11_2 C 0.93797(15) 0.27200(18) 0.56123(12)
Co7_3 Co 1.0000 0.0000 0.5000
Co1_2 Co 0.24523(2) 0.92208(2) 0.366467(16)
Co3_6 Co 0.5000 1.0000 0.5000
O6_2 O 0.47907(12) 0.79386(14) 0.50060(9)
C3_2 C 0.42200(16) 0.71420(18) 0.45167(13)
H3_2 H 0.4389 0.6213 0.4596
O8_2 O 0.19646(12) 0.94243(13) 0.12989(9)
C4_2 C 0.18203(16) 0.83055(18) 0.16599(12)
H4_2 H 0.1588 0.7588 0.1264
O9_2 O 0.09867(11) 0.84919(13) 0.43364(9)
C5_2 C 0.06203(15) 0.72800(18) 0.43877(12)
O13_2 O 0.84805(11) 0.91732(12) 0.69574(9)
C7_2 C 0.94456(17) 0.85709(19) 0.68049(13)
H7_2 H 0.9684 0.7897 0.7234
O15_2 O 0.68492(11) 0.97401(13) 0.52297(9)
O16 O 0.84905(12) 0.89794(14) 0.45788(10)
C8_2 C 0.74098(17) 0.90095(18) 0.46605(13)
H8_2 H 0.6956 0.8440 0.4266
O23_2 O 0.62868(12) 0.99175(12) 0.71747(9)
O24_2 O 0.45728(12) 0.99926(14) 0.63917(10)
C12_2 C 0.51732(16) 0.98228(19) 0.71010(13)
H12_2 H 0.4765 0.9600 0.7644
Co7_4 Co 1.0000 1.0000 0.5000
O2_2 O 0.99016(12) 0.12210(14) 0.38453(9)
H5_2 H 0.9957 0.7125 0.4760
loop_
_geom_bond_atom_site_label_1
_geom_bond_atom_site_label_2
_geom_bond_site_symmetry_1
_geom_bond_site_symmetry_2
Co1 O1 1_555 1_555
Co2 O2 1_555 1_555
Co3 O3 1_555 1_555
Co4 O1 1_555 1_555
O1 C1 1_555 1_555
O2 C1 1_555 1_555
C1 H1 1_555 1_555
O3 Co1 1_555 1_555
O5 Co1 1_555 1_555
C3 O5 1_555 1_555
H3 C3 1_555 1_555
O7 Co1 1_555 1_555
O8 Co4 1_555 1_555
C4 O7 1_555 1_555
H4 C4 1_555 1_555
O9 Co1 1_555 1_555
O10 C5 1_555 1_555
C5 O9 1_555 1_555
H5 C5 1_555 1_555
O11 Co1 1_555 1_555
C6 O11 1_555 1_555
Co8 O5 1_555 1_555
O26 Co2 1_555 1_555
O27 Co4 1_555 1_555
O29 Co4 1_555 1_555
O32 Co4 1_555 1_555
Co2 O9 1_555 1_555
Co4 O11 1_555 1_555
O7 Co8 1_555 1_555
O8 C4 1_555 1_555
O10 Co8 1_555 1_555
O4 Co2_2 1_555 1_555
H2 C2 1_555 1_555
O6 Co3_2 1_555 1_555
O24 Co3_2 1_555 1_555
O25 Co2_2 1_555 1_555
O31 Co2_2 1_555 1_555
O4 C2 1_555 1_555
O12 Co3_3 1_555 1_555
O26 C8 1_555 1_555
H8 C8 1_555 1_555
O18 Co3_3 1_555 1_555
Co5 O13 1_555 1_555
Co6 O13 1_555 1_555
O13 C7 1_555 1_555
O25 C7 1_555 1_555
C7 H7 1_555 1_555
O15 Co3_4 1_555 1_555
O17 Co5 1_555 1_555
C9 O17 1_555 1_555
H9 C9 1_555 1_555
O19 Co5 1_555 1_555
O20 Co6 1_555 1_555
C10 O19 1_555 1_555
H10 C10 1_555 1_555
O31 Co5 1_555 1_555
O22 C11 1_555 1_555
C11 O31 1_555 1_555
H11 C11 1_555 1_555
O23 Co5 1_555 1_555
C12 O23 1_555 1_555
Co9 O17 1_555 1_555
O28 Co6 1_555 1_555
O30 Co6 1_555 1_555
O33 Co6 1_555 1_555
Co5 O15 1_555 1_555
Co6 O23 1_555 1_555
O19 Co9 1_555 1_555
O20 C10 1_555 1_555
O22 Co9 1_555 1_555
Co7_2 O14 1_555 1_555
Co3_5 O3_2 1_555 1_555
Co8 O1_2 1_555 1_555
O1_2 C1_2 1_555 1_555
C1_2 H1_2 1_555 1_555
O4_2 Co7 1_555 1_555
C2_2 O3_2 1_555 1_555
H2_2 C2_2 1_555 1_555
O12_2 Co3_5 1_555 1_555
C6_2 O11_2 1_555 1_555
H6_2 C6_2 1_555 1_555
O28 Co5_2 1_555 1_555
O18_2 Co3_5 1_555 1_555
C9_2 O28 1_555 1_555
H9_2 C9_2 1_555 1_555
O30 Co5_2 1_555 1_555
C10_2 O30 1_555 1_555
H10_2 C10_2 1_555 1_555
O21 Co5_2 1_555 1_555
O33 C11_2 1_555 1_555
C11_2 O21 1_555 1_555
Co8 O11_2 1_555 1_555
O4_2 C2_2 1_555 1_555
O12_2 C6_2 1_555 1_555
O18_2 C9_2 1_555 1_555
O20_2 C10_2 1_555 1_555
O21 Co7_3 1_555 1_555
O27 Co1_2 1_555 1_555
O6_2 Co3_6 1_555 1_555
C3_2 O27 1_555 1_555
H3_2 C3_2 1_555 1_555
O29 Co1_2 1_555 1_555
C4_2 O29 1_555 1_555
H4_2 C4_2 1_555 1_555
O9_2 Co1_2 1_555 1_555
O32 C5_2 1_555 1_555
C5_2 O9_2 1_555 1_555
Co9 O13_2 1_555 1_555
O13_2 C7_2 1_555 1_555
C7_2 H7_2 1_555 1_555
O15_2 Co3_6 1_555 1_555
O16 C8_2 1_555 1_555
C8_2 O15_2 1_555 1_555
H8_2 C8_2 1_555 1_555
O24_2 Co3_6 1_555 1_555
C12_2 O23_2 1_555 1_555
H12_2 C12_2 1_555 1_555
Co7_2 O9_2 1_555 1_555
O6_2 C3_2 1_555 1_555
O8_2 C4_2 1_555 1_555
Co9 O23_2 1_555 1_555
O16 Co7_4 1_555 1_555
O24_2 C12_2 1_555 1_555
Co7_3 O2_2 1_555 1_555

#END
