
###############################################################################
#
# This file contains modified crystal structure data generated from the
# MOF subset of the Cambridge Structural Database (CSD) v543 
# hosted by the Cambridge Crystallographic Data Centre (CCDC).
#
# This work is licensed under the Creative Commons
# Attribution-NonCommercial-ShareAlike 4.0 International License.
# To view a copy of this license, visit
# http://creativecommons.org/licenses/by-nc-sa/4.0/
# or send a letter to
# Creative Commons, PO Box 1866, Mountain View, CA 94042, USA.
#
# CIF created using the CSD Python API on 29 September 2022
# The structure has been converted into the P1 space group
# The structure has a 3D framework
# The original CSD entry YANBAR is in the monoclinic crystal system
# The framework has been calculated to contain at least 10.0% void space
# The void calculation uses a probe of radius 1.32A, grid spacing 0.4
#
###############################################################################

data_YANBAR
_chemical_formula_moiety         '(C24 H24 Co23 O48)n'
_symmetry_cell_setting           triclinic
_symmetry_space_group_name_H-M   'P 1'
_symmetry_Int_Tables_number      1
_space_group_name_Hall           'P 1'
loop_
_symmetry_equiv_pos_site_id
_symmetry_equiv_pos_as_xyz
1 x,y,z
_cell_length_a                   11.3457(7)
_cell_length_b                   10.0117(7)
_cell_length_c                   14.8200(10)
_cell_angle_alpha                90
_cell_angle_beta                 91.3720(10)
_cell_angle_gamma                90
_cell_volume                     1682.92
loop_
_atom_site_label
_atom_site_type_symbol
_atom_site_fract_x
_atom_site_fract_y
_atom_site_fract_z
Co5 Co 0.0000 0.5000 0.5000
Co14 Co 0.23945(3) 0.12263(3) 0.30462(2)
Co1 Co 0.5000 0.5000 0.5000
Co3 Co 0.24509(3) 0.42763(4) 0.36592(2)
Co4 Co 0.26055(3) 0.62263(3) 0.19538(2)
O1 O 0.3143(2) 0.5265(2) 0.47710(10)
O2 O 0.1518(2) 0.5967(2) 0.5439(2)
O3 O 0.5413(2) 0.5099(2) 0.36380(10)
O4 O 0.3716(2) 0.5167(2) 0.28540(10)
O5 O 0.4813(2) 0.2949(2) 0.49330(10)
O6 O 0.3432(2) 0.2510(2) 0.38680(10)
O8 O 0.1524(2) 0.5900(2) 0.30760(10)
O9 O 0.0984(2) 0.3525(2) 0.43120(10)
O10 O 0.1036(2) 0.1362(2) 0.39340(10)
O11 O 0.1949(2) 0.3116(2) 0.25120(10)
O12 O 0.1936(2) 0.4540(2) 0.13470(10)
C1 C 0.2586(3) 0.5950(3) 0.5345(2)
C2 C 0.4821(3) 0.5279(3) 0.2946(2)
C3 C 0.4237(3) 0.2191(3) 0.4439(2)
C4 C 0.0583(3) 0.6512(3) 0.3258(2)
C5 C 0.0624(3) 0.2335(3) 0.4330(2)
C6 C 0.1788(3) 0.3426(3) 0.1686(2)
H1 H 0.3035 0.6491 0.5731
H2 H 0.5228 0.5523 0.2434
H3 H 0.4410 0.1286 0.4489
H4 H 0.0360 0.7208 0.2875
H6 H 0.1534 0.2748 0.1299
Co5_2 Co 1.0000 0.5000 0.5000
Co6 Co 0.75491(3) 0.57237(4) 0.63408(2)
Co8 Co 0.25491(3) 0.92763(4) 0.13408(2)
Co9 Co 0.73945(3) 0.37737(3) 0.80462(2)
Co11 Co 0.76055(3) 0.87737(3) 0.69538(2)
O13 O 0.6857(2) 0.4735(2) 0.52290(10)
O14 O 0.8482(2) 0.4033(2) 0.4561(2)
O16 O 0.4587(2) 0.4901(2) 0.63620(10)
O17 O 0.6284(2) 0.4833(2) 0.71460(10)
O18 O 0.5187(2) 0.7051(2) 0.50670(10)
O19 O 0.6568(2) 0.7490(2) 0.61320(10)
O20 O 0.1568(2) 0.7510(2) 0.11320(10)
O21 O 0.8432(2) 0.2490(2) 0.88680(10)
O22 O 0.0066(2) 0.3723(2) 0.61080(10)
O24 O 0.8476(2) 0.4100(2) 0.69240(10)
O26 O 0.9016(2) 0.6475(2) 0.56880(10)
O28 O 0.3964(2) 0.6362(2) 0.10660(10)
O29 O 0.6036(2) 0.3638(2) 0.89340(10)
O30 O 0.3051(2) 0.8116(2) 0.24880(10)
O31 O 0.8051(2) 0.6884(2) 0.74880(10)
O32 O 0.6949(2) 0.1884(2) 0.75120(10)
O33 O 0.3064(2) 0.9540(2) 0.36530(10)
O34 O 0.8064(2) 0.5460(2) 0.86530(10)
C7 C 0.7414(3) 0.4050(3) 0.4655(2)
C8 C 0.5179(3) 0.4721(3) 0.7054(2)
C9 C 0.5763(3) 0.7809(3) 0.5561(2)
C12 C 0.3212(3) 0.8426(3) 0.3314(2)
H7 H 0.6965 0.3509 0.4269
H8 H 0.4772 0.4477 0.7566
H9 H 0.5590 0.8714 0.5511
H11 H 0.0028 0.7830 0.5317
H12 H 0.3466 0.7748 0.3701
O7 O 0.9934(2) 0.6277(2) 0.38920(10)
H5 H 0.9972 0.2170 0.4683
O27 O 0.8964(2) 0.8638(2) 0.60660(10)
C10 C 0.9417(3) 0.3488(3) 0.6742(2)
C11 C 0.9376(3) 0.7665(3) 0.5670(2)
H10 H 0.9640 0.2792 0.7125
Co1_2 Co -0.0000 0.0000 0.0000
Co2 Co 0.5000 0.0000 0.0000
O1_2 O 0.1857(2) 0.0265(2) 0.02290(10)
O4_2 O 0.1284(2) 0.0167(2) 0.21460(10)
O7_2 O 0.5066(2) 0.1277(2) 0.11080(10)
O8_2 O 0.3476(2) 0.0900(2) 0.19240(10)
C2_2 C 0.0179(3) 0.0279(3) 0.2054(2)
C4_2 C 0.4417(3) 0.1512(3) 0.1742(2)
H4_2 H 0.4640 0.2208 0.2125
Co1_3 Co 0.0000 0.0000 1.0000
Co2_2 Co 0.5000 0.0000 1.0000
O2_2 O 0.3482(2) 0.0967(2) 0.9561(2)
C1_2 C 0.2414(3) 0.0950(3) 0.9655(2)
H1_2 H 0.1965 0.1491 0.9269
Co7 Co 0.74509(3) 0.07237(4) 0.86592(2)
O25 O 0.5984(2) 0.1475(2) 0.93120(10)
C11_2 C 0.5624(3) 0.2665(3) 0.9330(2)
H11_2 H 0.4972 0.2830 0.9683
Co1_4 Co -0.0000 1.0000 0.0000
Co2_3 Co 0.5000 1.0000 0.0000
O5_2 O 0.0187(2) 0.7949(2) 0.00670(10)
O9_2 O 0.4016(2) 0.8525(2) 0.06880(10)
C3_2 C 0.0763(3) 0.7191(3) 0.0561(2)
C5_2 C 0.4376(3) 0.7335(3) 0.0670(2)
H3_2 H 0.0590 0.6286 0.0511
H5_2 H 0.5028 0.7170 0.0317
O15 O 0.6518(2) 0.9033(2) 0.0439(2)
Co1_5 Co 0.0000 1.0000 1.0000
Co2_4 Co 0.5000 1.0000 1.0000
O16_2 O 0.0413(2) 0.9901(2) 0.86380(10)
O22_2 O 0.4934(2) 0.8723(2) 0.88920(10)
O23 O 0.6524(2) 0.9100(2) 0.80760(10)
C10_2 C 0.5583(3) 0.8488(3) 0.8258(2)
H8_2 H 0.0228 0.9477 0.7434
H10_2 H 0.5360 0.7792 0.7875
Co1_6 Co 1.0000 0.0000 0.0000
O3_2 O 0.9587(2) 0.0099(2) 0.13620(10)
H2_2 H 0.9772 0.0523 0.2566
Co1_7 Co 1.0000 0.0000 1.0000
O18_2 O 0.9813(2) 0.2051(2) 0.99330(10)
O34_2 O 0.6936(2) 0.0460(2) 0.63470(10)
C9_2 C 0.9237(3) 0.2809(3) 0.9439(2)
H9_2 H 0.9410 0.3714 0.9489
Co1_8 Co 1.0000 1.0000 0.0000
C7_2 C 0.7586(3) 0.9050(3) 0.0345(2)
H7_2 H 0.8035 0.8509 0.0731
Co1_9 Co 1.0000 1.0000 1.0000
O13_2 O 0.8143(2) 0.9735(2) 0.97710(10)
O17_2 O 0.8716(2) 0.9833(2) 0.78540(10)
C8_2 C 0.9821(3) 0.9721(3) 0.7946(2)
C6_2 C 0.8212(3) 0.6574(3) 0.8314(2)
H6_2 H 0.8466 0.7252 0.8701
C12_2 C 0.6788(3) 0.1574(3) 0.6686(2)
H12_2 H 0.6534 0.2252 0.6299
loop_
_geom_bond_atom_site_label_1
_geom_bond_atom_site_label_2
_geom_bond_site_symmetry_1
_geom_bond_site_symmetry_2
Co1 O1 1_555 1_555
Co5 O2 1_555 1_555
Co3 O1 1_555 1_555
Co4 O4 1_555 1_555
O1 C1 1_555 1_555
O2 C1 1_555 1_555
O3 Co1 1_555 1_555
O4 Co3 1_555 1_555
O5 Co1 1_555 1_555
O6 Co3 1_555 1_555
O8 Co3 1_555 1_555
O9 Co5 1_555 1_555
O10 C5 1_555 1_555
O11 Co3 1_555 1_555
O12 Co4 1_555 1_555
C1 H1 1_555 1_555
C2 O3 1_555 1_555
C3 O5 1_555 1_555
C5 O9 1_555 1_555
C6 O11 1_555 1_555
H2 C2 1_555 1_555
H3 C3 1_555 1_555
H4 C4 1_555 1_555
H6 C6 1_555 1_555
Co5_2 O14 1_555 1_555
Co6 O13 1_555 1_555
Co8 O20 1_555 1_555
Co9 O17 1_555 1_555
Co14 O6 1_555 1_555
Co11 O19 1_555 1_555
O13 Co1 1_555 1_555
O14 C7 1_555 1_555
O16 Co1 1_555 1_555
O17 Co6 1_555 1_555
O18 Co1 1_555 1_555
O19 Co6 1_555 1_555
O20 Co4 1_555 1_555
O21 Co9 1_555 1_555
O22 Co5 1_555 1_555
O24 Co6 1_555 1_555
O26 Co5_2 1_555 1_555
O28 Co4 1_555 1_555
O29 Co9 1_555 1_555
O30 Co4 1_555 1_555
O31 Co6 1_555 1_555
O32 Co9 1_555 1_555
O33 C12 1_555 1_555
O34 Co9 1_555 1_555
C7 O13 1_555 1_555
C8 O16 1_555 1_555
C9 O18 1_555 1_555
C12 O30 1_555 1_555
H7 C7 1_555 1_555
H8 C8 1_555 1_555
H9 C9 1_555 1_555
H12 C12 1_555 1_555
Co3 O9 1_555 1_555
Co4 O8 1_555 1_555
O4 C2 1_555 1_555
O6 C3 1_555 1_555
O8 C4 1_555 1_555
O10 Co14 1_555 1_555
O11 Co14 1_555 1_555
O12 C6 1_555 1_555
Co6 O26 1_555 1_555
Co8 O30 1_555 1_555
Co9 O24 1_555 1_555
Co11 O31 1_555 1_555
O17 C8 1_555 1_555
O19 C9 1_555 1_555
O7 Co5_2 1_555 1_555
Co11 O27 1_555 1_555
O24 C10 1_555 1_555
O27 C11 1_555 1_555
C11 O26 1_555 1_555
H10 C10 1_555 1_555
Co1_2 O1_2 1_555 1_555
Co14 O4_2 1_555 1_555
O7_2 Co2 1_555 1_555
C4_2 O7_2 1_555 1_555
H4_2 C4_2 1_555 1_555
Co14 O8_2 1_555 1_555
O4_2 C2_2 1_555 1_555
O8_2 C4_2 1_555 1_555
Co2_2 O2_2 1_555 1_555
O2_2 C1_2 1_555 1_555
C1_2 H1_2 1_555 1_555
O25 Co2_2 1_555 1_555
O29 C11_2 1_555 1_555
C11_2 O25 1_555 1_555
H11_2 C11_2 1_555 1_555
Co7 O25 1_555 1_555
O5_2 Co1_4 1_555 1_555
O9_2 Co2_3 1_555 1_555
O28 C5_2 1_555 1_555
C3_2 O5_2 1_555 1_555
C5_2 O9_2 1_555 1_555
H3_2 C3_2 1_555 1_555
H5_2 C5_2 1_555 1_555
O15 Co2_3 1_555 1_555
Co8 O9_2 1_555 1_555
O20 C3_2 1_555 1_555
Co11 O23 1_555 1_555
O16_2 Co1_5 1_555 1_555
O22_2 Co2_4 1_555 1_555
O23 C10_2 1_555 1_555
C10_2 O22_2 1_555 1_555
H10_2 C10_2 1_555 1_555
O3_2 Co1_6 1_555 1_555
O18_2 Co1_7 1_555 1_555
O21 Co7 1_555 1_555
O32 Co7 1_555 1_555
C9_2 O18_2 1_555 1_555
H9_2 C9_2 1_555 1_555
O21 C9_2 1_555 1_555
O15 C7_2 1_555 1_555
H7_2 C7_2 1_555 1_555
Co11 O17_2 1_555 1_555
O13_2 Co1_9 1_555 1_555
O17_2 C8_2 1_555 1_555
C6_2 O31 1_555 1_555
H6_2 C6_2 1_555 1_555
O34_2 C12_2 1_555 1_555
C12_2 O32 1_555 1_555
H12_2 C12_2 1_555 1_555
O34 C6_2 1_555 1_555

#END
