
###############################################################################
#
# This file contains modified crystal structure data generated from the
# MOF subset of the Cambridge Structural Database (CSD) v543 
# hosted by the Cambridge Crystallographic Data Centre (CCDC).
#
# This work is licensed under the Creative Commons
# Attribution-NonCommercial-ShareAlike 4.0 International License.
# To view a copy of this license, visit
# http://creativecommons.org/licenses/by-nc-sa/4.0/
# or send a letter to
# Creative Commons, PO Box 1866, Mountain View, CA 94042, USA.
#
# CIF created using the CSD Python API on 29 September 2022
# The structure has been converted into the P1 space group
# The structure has a 3D framework
# The original CSD entry YAPCOL is in the tetragonal crystal system
# The framework has been calculated to contain at least 10.0% void space
# The void calculation uses a probe of radius 1.32A, grid spacing 0.4
#
###############################################################################

data_YAPCOL
_chemical_formula_moiety         '(C224 H192 Cu18 O112)n'
_symmetry_cell_setting           triclinic
_symmetry_space_group_name_H-M   'P 1'
_symmetry_Int_Tables_number      1
_space_group_name_Hall           'P 1'
loop_
_symmetry_equiv_pos_site_id
_symmetry_equiv_pos_as_xyz
1 x,y,z
_cell_length_a                   16.7577(7)
_cell_length_b                   16.7577(7)
_cell_length_c                   28.9418(13)
_cell_angle_alpha                90
_cell_angle_beta                 90
_cell_angle_gamma                90
_cell_volume                     8127.45
loop_
_atom_site_label
_atom_site_type_symbol
_atom_site_fract_x
_atom_site_fract_y
_atom_site_fract_z
Cu1 Cu 0.500000 0.45082(6) 0.74002(3)
Cu2 Cu 0.14861(6) 0.750000 0.49037(3)
O1 O 0.4163(2) 0.5900(2) 0.69353(12)
O2 O 0.1593(2) 0.6696(2) 0.53938(12)
O3 O 0.4185(2) 0.4560(2) 0.69383(13)
O4 O 0.2925(2) 0.6704(3) 0.53739(14)
C1 C 0.2307(3) 0.5835(3) 0.59063(14)
C2 C 0.2262(3) 0.5041(3) 0.56435(15)
H1 H 0.270843 0.500742 0.542024
H2 H 0.175516 0.501340 0.546853
C3 C 0.3109(3) 0.4391(3) 0.625000
H3 H 0.355768 0.434988 0.602892
C4 C 0.3107(3) 0.5888(3) 0.61721(14)
H4 H 0.355815 0.586563 0.595179
H5 H 0.313665 0.640076 0.634141
C5 C 0.3914(3) 0.5225(3) 0.68126(14)
C6 C 0.3163(3) 0.5191(3) 0.65136(15)
C7 C 0.1607(3) 0.5893(3) 0.625000
H6 H 0.109380 0.586823 0.608152
C8 C 0.2267(3) 0.6474(3) 0.55313(15)
O5 O 0.1600(2) 0.3337(2) 0.55647(12)
O6 O 0.0804(2) 0.5907(2) 0.71062(12)
O7 O 0.2940(2) 0.3315(2) 0.55617(13)
O8 O 0.0796(3) 0.4575(2) 0.71261(14)
C9 C 0.1665(3) 0.5193(3) 0.65937(14)
C10 C 0.2459(3) 0.5238(3) 0.68565(15)
H7 H 0.249258 0.479157 0.707976
H8 H 0.248660 0.574484 0.703147
H9 H 0.315012 0.394232 0.647108
C11 C 0.1612(3) 0.4393(3) 0.63279(14)
H10 H 0.163437 0.394185 0.654821
H11 H 0.109924 0.436335 0.615859
C12 C 0.2275(3) 0.3586(3) 0.56874(14)
C13 C 0.2309(3) 0.4337(3) 0.59864(15)
H12 H 0.163177 0.640620 0.641848
C14 C 0.1026(3) 0.5233(3) 0.69687(15)
Cu3 Cu -0.000000 0.45082(6) 0.75998(3)
Cu4 Cu 0.29918(6) 0.750000 0.49002(3)
Cu5 Cu 0.29918(6) 0.250000 0.50998(3)
Cu6 Cu 0.14861(6) 0.250000 0.50963(3)
Cu7 Cu 0.500000 0.60139(6) 0.74037(3)
Cu8 Cu -0.000000 0.60139(6) 0.75963(3)
O9 O 0.5815(2) 0.4560(2) 0.69383(13)
O10 O 0.4204(3) 0.4575(2) 0.78739(14)
O11 O 0.5796(3) 0.4575(2) 0.78739(14)
O12 O 0.4196(2) 0.5907(2) 0.78938(12)
O13 O 0.5804(2) 0.5907(2) 0.78938(12)
O14 O 0.5837(2) 0.5900(2) 0.69353(12)
Cu3_2 Cu 1.000000 0.45082(6) 0.75998(3)
Cu8_2 Cu 1.000000 0.60139(6) 0.75963(3)
Cu1_2 Cu 0.000000 0.54918(6) 0.24002(3)
O1_2 O 0.0837(2) 0.4100(2) 0.19353(12)
O2_2 O 0.3407(2) 0.3304(2) 0.03938(12)
O3_2 O 0.0815(2) 0.5440(2) 0.19383(13)
O4_2 O 0.2075(2) 0.3296(3) 0.03739(14)
C1_2 C 0.2693(3) 0.4165(3) 0.09063(14)
C2_2 C 0.2738(3) 0.4959(3) 0.06435(15)
H1_2 H 0.229157 0.499258 0.042024
H2_2 H 0.324484 0.498660 0.046853
C3_2 C 0.1891(3) 0.5609(3) 0.125000
H3_2 H 0.144232 0.565012 0.102892
C4_2 C 0.1893(3) 0.4112(3) 0.11721(14)
H4_2 H 0.144185 0.413437 0.095179
H5_2 H 0.186335 0.359924 0.134141
C5_2 C 0.1086(3) 0.4775(3) 0.18126(14)
C6_2 C 0.1837(3) 0.4809(3) 0.15136(15)
C7_2 C 0.3393(3) 0.4107(3) 0.125000
H6_2 H 0.390620 0.413177 0.108152
C8_2 C 0.2733(3) 0.3526(3) 0.05313(15)
O5_2 O 0.3400(2) 0.6663(2) 0.05647(12)
O6_2 O 0.4196(2) 0.4093(2) 0.21062(12)
O7_2 O 0.2060(2) 0.6685(2) 0.05617(13)
O8_2 O 0.4204(3) 0.5425(2) 0.21261(14)
C9_2 C 0.3335(3) 0.4807(3) 0.15937(14)
C10_2 C 0.2541(3) 0.4762(3) 0.18565(15)
H7_2 H 0.250742 0.520843 0.207976
H8_2 H 0.251340 0.425516 0.203147
H9_2 H 0.184988 0.605768 0.147108
C11_2 C 0.3388(3) 0.5607(3) 0.13279(14)
H10_2 H 0.336563 0.605815 0.154821
H11_2 H 0.390076 0.563665 0.115859
C12_2 C 0.2725(3) 0.6414(3) 0.06874(14)
C13_2 C 0.2691(3) 0.5663(3) 0.09864(15)
H12_2 H 0.336823 0.359380 0.141848
C14_2 C 0.3974(3) 0.4767(3) 0.19687(15)
Cu3_3 Cu 0.500000 0.54918(6) 0.25998(3)
Cu5_2 Cu 0.20082(6) 0.750000 0.00998(3)
Cu6_2 Cu 0.35139(6) 0.750000 0.00963(3)
Cu7_2 Cu 0.000000 0.39861(6) 0.24037(3)
Cu8_3 Cu 0.500000 0.39861(6) 0.25963(3)
O10_2 O 0.0796(3) 0.5425(2) 0.28739(14)
O12_2 O 0.0804(2) 0.4093(2) 0.28938(12)
Cu2_2 Cu 0.35139(6) 0.250000 0.99037(3)
Cu4_2 Cu 0.20082(6) 0.250000 0.99002(3)
Cu1_3 Cu 1.000000 0.54918(6) 0.24002(3)
Cu7_3 Cu 1.000000 0.39861(6) 0.24037(3)
O9_2 O 0.9185(2) 0.5440(2) 0.19383(13)
O11_2 O 0.9204(3) 0.5425(2) 0.28739(14)
O13_2 O 0.9196(2) 0.4093(2) 0.28938(12)
O14_2 O 0.9163(2) 0.4100(2) 0.19353(12)
Cu5_3 Cu 0.000000 0.04918(6) 0.75998(3)
Cu6_3 Cu -0.000000 0.89861(6) 0.75963(3)
O10_3 O 0.7925(2) 0.1704(3) 0.03739(14)
O11_3 O 0.7925(2) 0.3296(3) 0.03739(14)
O12_3 O 0.6593(2) 0.1696(2) 0.03938(12)
O13_3 O 0.6593(2) 0.3304(2) 0.03938(12)
Cu1_4 Cu 0.79918(6) 0.250000 0.99002(3)
O1_3 O 0.6600(2) 0.1663(2) 0.94353(12)
O3_3 O 0.7940(2) 0.1685(2) 0.94383(13)
O4_3 O 0.5796(3) 0.0425(2) 0.78739(14)
H1_3 H 0.749258 0.020843 0.792024
C3_3 C 0.8109(3) 0.0609(3) 0.875000
H3_3 H 0.815012 0.105768 0.852892
C4_3 C 0.6612(3) 0.0607(3) 0.86721(14)
H4_3 H 0.663437 0.105815 0.845179
H5_3 H 0.609924 0.063665 0.884141
C5_3 C 0.7275(3) 0.1414(3) 0.93126(14)
C6_3 C 0.7309(3) 0.0663(3) 0.90136(15)
O7_3 O 0.9185(2) 0.0440(2) 0.80617(13)
H9_3 H 0.855768 0.065012 0.897108
Cu4_3 Cu 0.500000 0.04918(6) 0.74002(3)
Cu5_4 Cu 1.000000 0.04918(6) 0.75998(3)
Cu7_4 Cu 0.64861(6) 0.250000 0.99037(3)
O9_3 O 0.7940(2) 0.3315(2) 0.94383(13)
O14_3 O 0.6600(2) 0.3337(2) 0.94353(12)
Cu3_4 Cu 0.79918(6) 0.750000 0.00998(3)
Cu8_4 Cu 0.64861(6) 0.750000 0.00963(3)
Cu2_3 Cu 0.500000 0.89861(6) 0.74037(3)
O2_3 O 0.5804(2) 0.9093(2) 0.78938(12)
C1_3 C 0.6665(3) 0.9807(3) 0.84063(14)
C2_3 C 0.7459(3) 0.9762(3) 0.81435(15)
H2_3 H 0.748660 0.925516 0.796853
C7_3 C 0.6607(3) 0.9107(3) 0.875000
H6_3 H 0.663177 0.859380 0.858152
C8_3 C 0.6026(3) 0.9767(3) 0.80313(15)
O5_3 O 0.9163(2) 0.9100(2) 0.80647(12)
O6_3 O 0.6593(2) 0.8304(2) 0.96062(12)
O8_3 O 0.7925(2) 0.8296(3) 0.96261(14)
C9_3 C 0.7307(3) 0.9165(3) 0.90937(14)
C10_3 C 0.7262(3) 0.9959(3) 0.93565(15)
H7_3 H 0.770843 0.999258 0.957976
H8_3 H 0.675516 0.998660 0.953147
C11_3 C 0.8107(3) 0.9112(3) 0.88279(14)
H10_3 H 0.855815 0.913437 0.904821
H11_3 H 0.813665 0.859924 0.865859
C12_3 C 0.8914(3) 0.9775(3) 0.81874(14)
C13_3 C 0.8163(3) 0.9809(3) 0.84864(15)
H12_3 H 0.609380 0.913177 0.891848
C14_3 C 0.7267(3) 0.8526(3) 0.94687(15)
Cu6_4 Cu 1.000000 0.89861(6) 0.75963(3)
Cu2_4 Cu 0.000000 0.10139(6) 0.24037(3)
Cu4_4 Cu 0.000000 0.95082(6) 0.24002(3)
Cu2_5 Cu 1.000000 0.10139(6) 0.24037(3)
O2_4 O 0.9196(2) 0.0907(2) 0.28938(12)
C1_4 C 0.8335(3) 0.0193(3) 0.34063(14)
C2_4 C 0.7541(3) 0.0238(3) 0.31435(15)
H2_4 H 0.751340 0.074484 0.296853
C7_4 C 0.8393(3) 0.0893(3) 0.375000
H6_4 H 0.836823 0.140620 0.358152
C8_4 C 0.8974(3) 0.0233(3) 0.30313(15)
O5_4 O 0.5837(2) 0.0900(2) 0.30647(12)
O6_4 O 0.8407(2) 0.1696(2) 0.46062(12)
O8_4 O 0.7075(2) 0.1704(3) 0.46261(14)
C9_4 C 0.7693(3) 0.0835(3) 0.40937(14)
C10_4 C 0.7738(3) 0.0041(3) 0.43565(15)
H7_4 H 0.729157 0.000742 0.457976
H8_4 H 0.824484 0.001340 0.453147
C11_4 C 0.6893(3) 0.0888(3) 0.38279(14)
H10_4 H 0.644185 0.086563 0.404821
H11_4 H 0.686335 0.140076 0.365859
C12_4 C 0.6086(3) 0.0225(3) 0.31874(14)
C13_4 C 0.6837(3) 0.0191(3) 0.34864(15)
H12_4 H 0.890620 0.086823 0.391848
C14_4 C 0.7733(3) 0.1474(3) 0.44687(15)
Cu3_5 Cu 0.70082(6) 0.250000 0.50998(3)
Cu6_5 Cu 0.500000 0.10139(6) 0.25963(3)
Cu8_5 Cu 0.85139(6) 0.250000 0.50963(3)
Cu1_5 Cu 0.70082(6) 0.750000 0.49002(3)
O1_4 O 0.8400(2) 0.8337(2) 0.44353(12)
O3_4 O 0.7060(2) 0.8315(2) 0.44383(13)
O4_4 O 0.9204(3) 0.9575(2) 0.28739(14)
H1_4 H 0.750742 0.979157 0.292024
C3_4 C 0.6891(3) 0.9391(3) 0.375000
H3_4 H 0.684988 0.894232 0.352892
C4_4 C 0.8388(3) 0.9393(3) 0.36721(14)
H4_4 H 0.836563 0.894185 0.345179
H5_4 H 0.890076 0.936335 0.384141
C5_4 C 0.7725(3) 0.8586(3) 0.43126(14)
C6_4 C 0.7691(3) 0.9337(3) 0.40136(15)
O7_4 O 0.5815(2) 0.9560(2) 0.30617(13)
H9_4 H 0.644232 0.934988 0.397108
Cu4_5 Cu 1.000000 0.95082(6) 0.24002(3)
Cu5_5 Cu 0.500000 0.95082(6) 0.25998(3)
Cu7_5 Cu 0.85139(6) 0.750000 0.49037(3)
O9_4 O 0.7060(2) 0.6685(2) 0.44383(13)
O10_4 O 0.7075(2) 0.8296(3) 0.53739(14)
O11_4 O 0.7075(2) 0.6704(3) 0.53739(14)
O12_4 O 0.8407(2) 0.8304(2) 0.53938(12)
O13_4 O 0.8407(2) 0.6696(2) 0.53938(12)
O14_4 O 0.8400(2) 0.6663(2) 0.44353(12)
O1_5 O 0.0837(2) 0.5900(2) 0.80647(12)
O2_5 O 0.3407(2) 0.6696(2) 0.96062(12)
O3_5 O 0.0815(2) 0.4560(2) 0.80617(13)
O4_5 O 0.2075(2) 0.6704(3) 0.96261(14)
C1_5 C 0.2693(3) 0.5835(3) 0.90937(14)
C2_5 C 0.2738(3) 0.5041(3) 0.93565(15)
H1_5 H 0.229157 0.500742 0.957976
H2_5 H 0.324484 0.501340 0.953147
C3_5 C 0.1891(3) 0.4391(3) 0.875000
H3_5 H 0.144232 0.434988 0.897108
C4_5 C 0.1893(3) 0.5888(3) 0.88279(14)
H4_5 H 0.144185 0.586563 0.904821
H5_5 H 0.186335 0.640076 0.865859
C5_5 C 0.1086(3) 0.5225(3) 0.81874(14)
C6_5 C 0.1837(3) 0.5191(3) 0.84864(15)
C7_5 C 0.3393(3) 0.5893(3) 0.875000
H6_5 H 0.390620 0.586823 0.891848
C8_5 C 0.2733(3) 0.6474(3) 0.94687(15)
O5_5 O 0.3400(2) 0.3337(2) 0.94353(12)
O7_5 O 0.2060(2) 0.3315(2) 0.94383(13)
C9_5 C 0.3335(3) 0.5193(3) 0.84063(14)
C10_5 C 0.2541(3) 0.5238(3) 0.81435(15)
H7_5 H 0.250742 0.479157 0.792024
H8_5 H 0.251340 0.574484 0.796853
H9_5 H 0.184988 0.394232 0.852892
C11_5 C 0.3388(3) 0.4393(3) 0.86721(14)
H10_5 H 0.336563 0.394185 0.845179
H11_5 H 0.390076 0.436335 0.884141
C12_5 C 0.2725(3) 0.3586(3) 0.93126(14)
C13_5 C 0.2691(3) 0.4337(3) 0.90136(15)
H12_5 H 0.336823 0.640620 0.858152
C14_5 C 0.3974(3) 0.5233(3) 0.80313(15)
O9_5 O 0.9185(2) 0.4560(2) 0.80617(13)
O11_5 O 0.9204(3) 0.4575(2) 0.71261(14)
O13_5 O 0.9196(2) 0.5907(2) 0.71062(12)
O14_5 O 0.9163(2) 0.5900(2) 0.80647(12)
O1_6 O 0.4163(2) 0.4100(2) 0.30647(12)
O2_6 O 0.1593(2) 0.3304(2) 0.46062(12)
O3_6 O 0.4185(2) 0.5440(2) 0.30617(13)
O4_6 O 0.2925(2) 0.3296(3) 0.46261(14)
C1_6 C 0.2307(3) 0.4165(3) 0.40937(14)
C2_6 C 0.2262(3) 0.4959(3) 0.43565(15)
H1_6 H 0.270843 0.499258 0.457976
H2_6 H 0.175516 0.498660 0.453147
C3_6 C 0.3109(3) 0.5609(3) 0.375000
H3_6 H 0.355768 0.565012 0.397108
C4_6 C 0.3107(3) 0.4112(3) 0.38279(14)
H4_6 H 0.355815 0.413437 0.404821
H5_6 H 0.313665 0.359924 0.365859
C5_6 C 0.3914(3) 0.4775(3) 0.31874(14)
C6_6 C 0.3163(3) 0.4809(3) 0.34864(15)
C7_6 C 0.1607(3) 0.4107(3) 0.375000
H6_6 H 0.109380 0.413177 0.391848
C8_6 C 0.2267(3) 0.3526(3) 0.44687(15)
O5_6 O 0.1600(2) 0.6663(2) 0.44353(12)
O7_6 O 0.2940(2) 0.6685(2) 0.44383(13)
C9_6 C 0.1665(3) 0.4807(3) 0.34063(14)
C10_6 C 0.2459(3) 0.4762(3) 0.31435(15)
H7_6 H 0.249258 0.520843 0.292024
H8_6 H 0.248660 0.425516 0.296853
H9_6 H 0.315012 0.605768 0.352892
C11_6 C 0.1612(3) 0.5607(3) 0.36721(14)
H10_6 H 0.163437 0.605815 0.345179
H11_6 H 0.109924 0.563665 0.384141
C12_6 C 0.2275(3) 0.6414(3) 0.43126(14)
C13_6 C 0.2309(3) 0.5663(3) 0.40136(15)
H12_6 H 0.163177 0.359380 0.358152
C14_6 C 0.1026(3) 0.4767(3) 0.30313(15)
O9_6 O 0.5815(2) 0.5440(2) 0.30617(13)
O11_6 O 0.5796(3) 0.5425(2) 0.21261(14)
O13_6 O 0.5804(2) 0.4093(2) 0.21062(12)
O14_6 O 0.5837(2) 0.4100(2) 0.30647(12)
O1_7 O 0.8400(2) 0.1663(2) 0.55647(12)
O3_7 O 0.7060(2) 0.1685(2) 0.55617(13)
O4_7 O 0.9204(3) 0.0425(2) 0.71261(14)
H1_7 H 0.750742 0.020843 0.707976
C3_7 C 0.6891(3) 0.0609(3) 0.625000
H3_7 H 0.684988 0.105768 0.647108
C4_7 C 0.8388(3) 0.0607(3) 0.63279(14)
H4_7 H 0.836563 0.105815 0.654821
H5_7 H 0.890076 0.063665 0.615859
C5_7 C 0.7725(3) 0.1414(3) 0.56874(14)
C6_7 C 0.7691(3) 0.0663(3) 0.59864(15)
O7_7 O 0.5815(2) 0.0440(2) 0.69383(13)
H9_7 H 0.644232 0.065012 0.602892
O9_7 O 0.7060(2) 0.3315(2) 0.55617(13)
O11_7 O 0.7075(2) 0.3296(3) 0.46261(14)
O13_7 O 0.8407(2) 0.3304(2) 0.46062(12)
O14_7 O 0.8400(2) 0.3337(2) 0.55647(12)
O2_7 O 0.9196(2) 0.9093(2) 0.71062(12)
C1_7 C 0.8335(3) 0.9807(3) 0.65937(14)
C2_7 C 0.7541(3) 0.9762(3) 0.68565(15)
H2_7 H 0.751340 0.925516 0.703147
C7_7 C 0.8393(3) 0.9107(3) 0.625000
H6_7 H 0.836823 0.859380 0.641848
C8_7 C 0.8974(3) 0.9767(3) 0.69687(15)
O5_7 O 0.5837(2) 0.9100(2) 0.69353(12)
C9_7 C 0.7693(3) 0.9165(3) 0.59063(14)
C10_7 C 0.7738(3) 0.9959(3) 0.56435(15)
H7_7 H 0.729157 0.999258 0.542024
H8_7 H 0.824484 0.998660 0.546853
C11_7 C 0.6893(3) 0.9112(3) 0.61721(14)
H10_7 H 0.644185 0.913437 0.595179
H11_7 H 0.686335 0.859924 0.634141
C12_7 C 0.6086(3) 0.9775(3) 0.68126(14)
C13_7 C 0.6837(3) 0.9809(3) 0.65136(15)
H12_7 H 0.890620 0.913177 0.608152
C14_7 C 0.7733(3) 0.8526(3) 0.55313(15)
O2_8 O 0.5804(2) 0.0907(2) 0.21062(12)
C1_8 C 0.6665(3) 0.0193(3) 0.15937(14)
C2_8 C 0.7459(3) 0.0238(3) 0.18565(15)
H2_8 H 0.748660 0.074484 0.203147
C7_8 C 0.6607(3) 0.0893(3) 0.125000
H6_8 H 0.663177 0.140620 0.141848
C8_8 C 0.6026(3) 0.0233(3) 0.19687(15)
O5_8 O 0.9163(2) 0.0900(2) 0.19353(12)
C9_8 C 0.7307(3) 0.0835(3) 0.09063(14)
C10_8 C 0.7262(3) 0.0041(3) 0.06435(15)
H7_8 H 0.770843 0.000742 0.042024
H8_8 H 0.675516 0.001340 0.046853
C11_8 C 0.8107(3) 0.0888(3) 0.11721(14)
H10_8 H 0.855815 0.086563 0.095179
H11_8 H 0.813665 0.140076 0.134141
C12_8 C 0.8914(3) 0.0225(3) 0.18126(14)
C13_8 C 0.8163(3) 0.0191(3) 0.15136(15)
H12_8 H 0.609380 0.086823 0.108152
C14_8 C 0.7267(3) 0.1474(3) 0.05313(15)
O1_8 O 0.6600(2) 0.8337(2) 0.05647(12)
O3_8 O 0.7940(2) 0.8315(2) 0.05617(13)
O4_8 O 0.5796(3) 0.9575(2) 0.21261(14)
H1_8 H 0.749258 0.979157 0.207976
C3_8 C 0.8109(3) 0.9391(3) 0.125000
H3_8 H 0.815012 0.894232 0.147108
C4_8 C 0.6612(3) 0.9393(3) 0.13279(14)
H4_8 H 0.663437 0.894185 0.154821
H5_8 H 0.609924 0.936335 0.115859
C5_8 C 0.7275(3) 0.8586(3) 0.06874(14)
C6_8 C 0.7309(3) 0.9337(3) 0.09864(15)
O7_8 O 0.9185(2) 0.9560(2) 0.19383(13)
H9_8 H 0.855768 0.934988 0.102892
O9_8 O 0.7940(2) 0.6685(2) 0.05617(13)
O14_8 O 0.6600(2) 0.6663(2) 0.05647(12)
O11_8 O 0.7925(2) 0.6704(3) 0.96261(14)
O13_8 O 0.6593(2) 0.6696(2) 0.96062(12)
O13_9 O 0.0804(2) 0.0907(2) 0.28938(12)
O14_9 O 0.0837(2) 0.0900(2) 0.19353(12)
O9_9 O 0.0815(2) 0.9560(2) 0.19383(13)
O11_9 O 0.0796(3) 0.9575(2) 0.28739(14)
O9_10 O 0.4185(2) 0.0440(2) 0.69383(13)
O11_10 O 0.4204(3) 0.0425(2) 0.78739(14)
O13_10 O 0.4196(2) 0.9093(2) 0.78938(12)
O14_10 O 0.4163(2) 0.9100(2) 0.69353(12)
O9_11 O 0.2940(2) 0.8315(2) 0.44383(13)
O11_11 O 0.2925(2) 0.8296(3) 0.53739(14)
O13_11 O 0.1593(2) 0.8304(2) 0.53938(12)
O14_11 O 0.1600(2) 0.8337(2) 0.44353(12)
O11_12 O 0.2075(2) 0.1704(3) 0.03739(14)
O13_12 O 0.3407(2) 0.1696(2) 0.03938(12)
O9_12 O 0.2060(2) 0.1685(2) 0.94383(13)
O14_12 O 0.3400(2) 0.1663(2) 0.94353(12)
O13_13 O 0.4196(2) 0.0907(2) 0.21062(12)
O14_13 O 0.4163(2) 0.0900(2) 0.30647(12)
O9_13 O 0.4185(2) 0.9560(2) 0.30617(13)
O11_13 O 0.4204(3) 0.9575(2) 0.21261(14)
O9_14 O 0.0815(2) 0.0440(2) 0.80617(13)
O11_14 O 0.0796(3) 0.0425(2) 0.71261(14)
O13_14 O 0.0804(2) 0.9093(2) 0.71062(12)
O14_14 O 0.0837(2) 0.9100(2) 0.80647(12)
O9_15 O 0.2060(2) 0.8315(2) 0.05617(13)
O14_15 O 0.3400(2) 0.8337(2) 0.05647(12)
O11_15 O 0.2075(2) 0.8296(3) 0.96261(14)
O13_15 O 0.3407(2) 0.8304(2) 0.96062(12)
O9_16 O 0.2940(2) 0.1685(2) 0.55617(13)
O11_16 O 0.2925(2) 0.1704(3) 0.46261(14)
O13_16 O 0.1593(2) 0.1696(2) 0.46062(12)
O14_16 O 0.1600(2) 0.1663(2) 0.55647(12)
C1_9 C 0.7693(3) 0.4165(3) 0.40937(14)
C2_9 C 0.7738(3) 0.4959(3) 0.43565(15)
H1_9 H 0.729157 0.499258 0.457976
H2_9 H 0.824484 0.498660 0.453147
C3_9 C 0.6891(3) 0.5609(3) 0.375000
H3_9 H 0.644232 0.565012 0.397108
C4_9 C 0.6893(3) 0.4112(3) 0.38279(14)
H4_9 H 0.644185 0.413437 0.404821
H5_9 H 0.686335 0.359924 0.365859
C5_9 C 0.6086(3) 0.4775(3) 0.31874(14)
C6_9 C 0.6837(3) 0.4809(3) 0.34864(15)
C7_9 C 0.8393(3) 0.4107(3) 0.375000
H6_9 H 0.890620 0.413177 0.391848
C8_9 C 0.7733(3) 0.3526(3) 0.44687(15)
C9_9 C 0.8335(3) 0.4807(3) 0.34063(14)
C10_9 C 0.7541(3) 0.4762(3) 0.31435(15)
H7_9 H 0.750742 0.520843 0.292024
H8_9 H 0.751340 0.425516 0.296853
H9_9 H 0.684988 0.605768 0.352892
C11_9 C 0.8388(3) 0.5607(3) 0.36721(14)
H10_9 H 0.836563 0.605815 0.345179
H11_9 H 0.890076 0.563665 0.384141
C12_9 C 0.7725(3) 0.6414(3) 0.43126(14)
C13_9 C 0.7691(3) 0.5663(3) 0.40136(15)
H12_9 H 0.836823 0.359380 0.358152
C14_9 C 0.8974(3) 0.4767(3) 0.30313(15)
C1_10 C 0.7307(3) 0.5835(3) 0.90937(14)
C2_10 C 0.7262(3) 0.5041(3) 0.93565(15)
H1_10 H 0.770843 0.500742 0.957976
H2_10 H 0.675516 0.501340 0.953147
C3_10 C 0.8109(3) 0.4391(3) 0.875000
H3_10 H 0.855768 0.434988 0.897108
C4_10 C 0.8107(3) 0.5888(3) 0.88279(14)
H4_10 H 0.855815 0.586563 0.904821
H5_10 H 0.813665 0.640076 0.865859
C5_10 C 0.8914(3) 0.5225(3) 0.81874(14)
C6_10 C 0.8163(3) 0.5191(3) 0.84864(15)
C7_10 C 0.6607(3) 0.5893(3) 0.875000
H6_10 H 0.609380 0.586823 0.891848
C8_10 C 0.7267(3) 0.6474(3) 0.94687(15)
C9_10 C 0.6665(3) 0.5193(3) 0.84063(14)
C10_10 C 0.7459(3) 0.5238(3) 0.81435(15)
H7_10 H 0.749258 0.479157 0.792024
H8_10 H 0.748660 0.574484 0.796853
H9_10 H 0.815012 0.394232 0.852892
C11_10 C 0.6612(3) 0.4393(3) 0.86721(14)
H10_10 H 0.663437 0.394185 0.845179
H11_10 H 0.609924 0.436335 0.884141
C12_10 C 0.7275(3) 0.3586(3) 0.93126(14)
C13_10 C 0.7309(3) 0.4337(3) 0.90136(15)
H12_10 H 0.663177 0.640620 0.858152
C14_10 C 0.6026(3) 0.5233(3) 0.80313(15)
C1_11 C 0.3335(3) 0.0193(3) 0.15937(14)
C2_11 C 0.2541(3) 0.0238(3) 0.18565(15)
H2_11 H 0.251340 0.074484 0.203147
C7_11 C 0.3393(3) 0.0893(3) 0.125000
H6_11 H 0.336823 0.140620 0.141848
C8_11 C 0.3974(3) 0.0233(3) 0.19687(15)
C9_11 C 0.2693(3) 0.0835(3) 0.09063(14)
C10_11 C 0.2738(3) 0.0041(3) 0.06435(15)
H7_11 H 0.229157 0.000742 0.042024
H8_11 H 0.324484 0.001340 0.046853
C11_11 C 0.1893(3) 0.0888(3) 0.11721(14)
H10_11 H 0.144185 0.086563 0.095179
H11_11 H 0.186335 0.140076 0.134141
C12_11 C 0.1086(3) 0.0225(3) 0.18126(14)
C13_11 C 0.1837(3) 0.0191(3) 0.15136(15)
H12_11 H 0.390620 0.086823 0.108152
C14_11 C 0.2733(3) 0.1474(3) 0.05313(15)
H1_11 H 0.250742 0.979157 0.207976
C3_11 C 0.1891(3) 0.9391(3) 0.125000
H3_11 H 0.184988 0.894232 0.147108
C4_11 C 0.3388(3) 0.9393(3) 0.13279(14)
H4_11 H 0.336563 0.894185 0.154821
H5_11 H 0.390076 0.936335 0.115859
C5_11 C 0.2725(3) 0.8586(3) 0.06874(14)
C6_11 C 0.2691(3) 0.9337(3) 0.09864(15)
H9_11 H 0.144232 0.934988 0.102892
H1_12 H 0.249258 0.020843 0.707976
C3_12 C 0.3109(3) 0.0609(3) 0.625000
H3_12 H 0.315012 0.105768 0.647108
C4_12 C 0.1612(3) 0.0607(3) 0.63279(14)
H4_12 H 0.163437 0.105815 0.654821
H5_12 H 0.109924 0.063665 0.615859
C5_12 C 0.2275(3) 0.1414(3) 0.56874(14)
C6_12 C 0.2309(3) 0.0663(3) 0.59864(15)
H9_12 H 0.355768 0.065012 0.602892
C1_12 C 0.1665(3) 0.9807(3) 0.65937(14)
C2_12 C 0.2459(3) 0.9762(3) 0.68565(15)
H2_12 H 0.248660 0.925516 0.703147
C7_12 C 0.1607(3) 0.9107(3) 0.625000
H6_12 H 0.163177 0.859380 0.641848
C8_12 C 0.1026(3) 0.9767(3) 0.69687(15)
C9_12 C 0.2307(3) 0.9165(3) 0.59063(14)
C10_12 C 0.2262(3) 0.9959(3) 0.56435(15)
H7_12 H 0.270843 0.999258 0.542024
H8_12 H 0.175516 0.998660 0.546853
C11_12 C 0.3107(3) 0.9112(3) 0.61721(14)
H10_12 H 0.355815 0.913437 0.595179
H11_12 H 0.313665 0.859924 0.634141
C12_12 C 0.3914(3) 0.9775(3) 0.68126(14)
C13_12 C 0.3163(3) 0.9809(3) 0.65136(15)
H12_12 H 0.109380 0.913177 0.608152
C14_12 C 0.2267(3) 0.8526(3) 0.55313(15)
C1_13 C 0.7307(3) 0.4165(3) 0.09063(14)
C2_13 C 0.7262(3) 0.4959(3) 0.06435(15)
H1_13 H 0.770843 0.499258 0.042024
H2_13 H 0.675516 0.498660 0.046853
C3_13 C 0.8109(3) 0.5609(3) 0.125000
H3_13 H 0.855768 0.565012 0.102892
C4_13 C 0.8107(3) 0.4112(3) 0.11721(14)
H4_13 H 0.855815 0.413437 0.095179
H5_13 H 0.813665 0.359924 0.134141
C5_13 C 0.8914(3) 0.4775(3) 0.18126(14)
C6_13 C 0.8163(3) 0.4809(3) 0.15136(15)
C7_13 C 0.6607(3) 0.4107(3) 0.125000
H6_13 H 0.609380 0.413177 0.108152
C8_13 C 0.7267(3) 0.3526(3) 0.05313(15)
C9_13 C 0.6665(3) 0.4807(3) 0.15937(14)
C10_13 C 0.7459(3) 0.4762(3) 0.18565(15)
H7_13 H 0.749258 0.520843 0.207976
H8_13 H 0.748660 0.425516 0.203147
H9_13 H 0.815012 0.605768 0.147108
C11_13 C 0.6612(3) 0.5607(3) 0.13279(14)
H10_13 H 0.663437 0.605815 0.154821
H11_13 H 0.609924 0.563665 0.115859
C12_13 C 0.7275(3) 0.6414(3) 0.06874(14)
C13_13 C 0.7309(3) 0.5663(3) 0.09864(15)
H12_13 H 0.663177 0.359380 0.141848
C14_13 C 0.6026(3) 0.4767(3) 0.19687(15)
C1_14 C 0.7693(3) 0.5835(3) 0.59063(14)
C2_14 C 0.7738(3) 0.5041(3) 0.56435(15)
H1_14 H 0.729157 0.500742 0.542024
H2_14 H 0.824484 0.501340 0.546853
C3_14 C 0.6891(3) 0.4391(3) 0.625000
H3_14 H 0.644232 0.434988 0.602892
C4_14 C 0.6893(3) 0.5888(3) 0.61721(14)
H4_14 H 0.644185 0.586563 0.595179
H5_14 H 0.686335 0.640076 0.634141
C5_14 C 0.6086(3) 0.5225(3) 0.68126(14)
C6_14 C 0.6837(3) 0.5191(3) 0.65136(15)
C7_14 C 0.8393(3) 0.5893(3) 0.625000
H6_14 H 0.890620 0.586823 0.608152
C8_14 C 0.7733(3) 0.6474(3) 0.55313(15)
C9_14 C 0.8335(3) 0.5193(3) 0.65937(14)
C10_14 C 0.7541(3) 0.5238(3) 0.68565(15)
H7_14 H 0.750742 0.479157 0.707976
H8_14 H 0.751340 0.574484 0.703147
H9_14 H 0.684988 0.394232 0.647108
C11_14 C 0.8388(3) 0.4393(3) 0.63279(14)
H10_14 H 0.836563 0.394185 0.654821
H11_14 H 0.890076 0.436335 0.615859
C12_14 C 0.7725(3) 0.3586(3) 0.56874(14)
C13_14 C 0.7691(3) 0.4337(3) 0.59864(15)
H12_14 H 0.836823 0.640620 0.641848
C14_14 C 0.8974(3) 0.5233(3) 0.69687(15)
C1_15 C 0.1665(3) 0.0193(3) 0.34063(14)
C2_15 C 0.2459(3) 0.0238(3) 0.31435(15)
H2_15 H 0.248660 0.074484 0.296853
C7_15 C 0.1607(3) 0.0893(3) 0.375000
H6_15 H 0.163177 0.140620 0.358152
C8_15 C 0.1026(3) 0.0233(3) 0.30313(15)
C9_15 C 0.2307(3) 0.0835(3) 0.40937(14)
C10_15 C 0.2262(3) 0.0041(3) 0.43565(15)
H7_15 H 0.270843 0.000742 0.457976
H8_15 H 0.175516 0.001340 0.453147
C11_15 C 0.3107(3) 0.0888(3) 0.38279(14)
H10_15 H 0.355815 0.086563 0.404821
H11_15 H 0.313665 0.140076 0.365859
C12_15 C 0.3914(3) 0.0225(3) 0.31874(14)
C13_15 C 0.3163(3) 0.0191(3) 0.34864(15)
H12_15 H 0.109380 0.086823 0.391848
C14_15 C 0.2267(3) 0.1474(3) 0.44687(15)
H1_15 H 0.249258 0.979157 0.292024
C3_15 C 0.3109(3) 0.9391(3) 0.375000
H3_15 H 0.315012 0.894232 0.352892
C4_15 C 0.1612(3) 0.9393(3) 0.36721(14)
H4_15 H 0.163437 0.894185 0.345179
H5_15 H 0.109924 0.936335 0.384141
C5_15 C 0.2275(3) 0.8586(3) 0.43126(14)
C6_15 C 0.2309(3) 0.9337(3) 0.40136(15)
H9_15 H 0.355768 0.934988 0.397108
H1_16 H 0.250742 0.020843 0.792024
C3_16 C 0.1891(3) 0.0609(3) 0.875000
H3_16 H 0.184988 0.105768 0.852892
C4_16 C 0.3388(3) 0.0607(3) 0.86721(14)
H4_16 H 0.336563 0.105815 0.845179
H5_16 H 0.390076 0.063665 0.884141
C5_16 C 0.2725(3) 0.1414(3) 0.93126(14)
C6_16 C 0.2691(3) 0.0663(3) 0.90136(15)
H9_16 H 0.144232 0.065012 0.897108
C1_16 C 0.3335(3) 0.9807(3) 0.84063(14)
C2_16 C 0.2541(3) 0.9762(3) 0.81435(15)
H2_16 H 0.251340 0.925516 0.796853
C7_16 C 0.3393(3) 0.9107(3) 0.875000
H6_16 H 0.336823 0.859380 0.858152
C8_16 C 0.3974(3) 0.9767(3) 0.80313(15)
C9_16 C 0.2693(3) 0.9165(3) 0.90937(14)
C10_16 C 0.2738(3) 0.9959(3) 0.93565(15)
H7_16 H 0.229157 0.999258 0.957976
H8_16 H 0.324484 0.998660 0.953147
C11_16 C 0.1893(3) 0.9112(3) 0.88279(14)
H10_16 H 0.144185 0.913437 0.904821
H11_16 H 0.186335 0.859924 0.865859
C12_16 C 0.1086(3) 0.9775(3) 0.81874(14)
C13_16 C 0.1837(3) 0.9809(3) 0.84864(15)
H12_16 H 0.390620 0.913177 0.891848
C14_16 C 0.2733(3) 0.8526(3) 0.94687(15)
loop_
_geom_bond_atom_site_label_1
_geom_bond_atom_site_label_2
_geom_bond_site_symmetry_1
_geom_bond_site_symmetry_2
Cu1 O3 1_555 1_555
Cu2 O2 1_555 1_555
O1 C5 1_555 1_555
O2 C8 1_555 1_555
O3 C5 1_555 1_555
O4 C8 1_555 1_555
C1 C2 1_555 1_555
C2 H1 1_555 1_555
H2 C2 1_555 1_555
C3 H3 1_555 1_555
C4 C1 1_555 1_555
H4 C4 1_555 1_555
H5 C4 1_555 1_555
C5 C6 1_555 1_555
C6 C3 1_555 1_555
C7 C1 1_555 1_555
H6 C7 1_555 1_555
C8 C1 1_555 1_555
O5 C12 1_555 1_555
O6 C14 1_555 1_555
O7 C12 1_555 1_555
O8 C14 1_555 1_555
C9 C7 1_555 1_555
C10 C6 1_555 1_555
H7 C10 1_555 1_555
H8 C10 1_555 1_555
H9 C3 1_555 1_555
C11 C9 1_555 1_555
H10 C11 1_555 1_555
H11 C11 1_555 1_555
C12 C13 1_555 1_555
C13 C2 1_555 1_555
H12 C7 1_555 1_555
C14 C9 1_555 1_555
Cu3 O8 1_555 1_555
Cu4 Cu2 1_555 1_555
Cu5 O7 1_555 1_555
Cu6 O5 1_555 1_555
Cu7 Cu1 1_555 1_555
Cu8 O6 1_555 1_555
O9 Cu1 1_555 1_555
O10 Cu1 1_555 1_555
O11 Cu1 1_555 1_555
O12 Cu7 1_555 1_555
O13 Cu7 1_555 1_555
O14 Cu7 1_555 1_555
O1 Cu7 1_555 1_555
O4 Cu4 1_555 1_555
C3 C13 1_555 1_555
C4 C6 1_555 1_555
C9 C10 1_555 1_555
C11 C13 1_555 1_555
Cu3 Cu8 1_555 1_555
Cu5 Cu6 1_555 1_555
Cu3_2 Cu8_2 1_555 1_555
Cu1_2 O3_2 1_555 1_555
O1_2 C5_2 1_555 1_555
O2_2 C8_2 1_555 1_555
O3_2 C5_2 1_555 1_555
O4_2 C8_2 1_555 1_555
C1_2 C2_2 1_555 1_555
C2_2 H1_2 1_555 1_555
H2_2 C2_2 1_555 1_555
C3_2 H3_2 1_555 1_555
C4_2 C1_2 1_555 1_555
H4_2 C4_2 1_555 1_555
H5_2 C4_2 1_555 1_555
C5_2 C6_2 1_555 1_555
C6_2 C3_2 1_555 1_555
C7_2 C1_2 1_555 1_555
H6_2 C7_2 1_555 1_555
C8_2 C1_2 1_555 1_555
O5_2 C12_2 1_555 1_555
O6_2 C14_2 1_555 1_555
O7_2 C12_2 1_555 1_555
O8_2 C14_2 1_555 1_555
C9_2 C7_2 1_555 1_555
C10_2 C6_2 1_555 1_555
H7_2 C10_2 1_555 1_555
H8_2 C10_2 1_555 1_555
H9_2 C3_2 1_555 1_555
C11_2 C9_2 1_555 1_555
H10_2 C11_2 1_555 1_555
H11_2 C11_2 1_555 1_555
C12_2 C13_2 1_555 1_555
C13_2 C2_2 1_555 1_555
H12_2 C7_2 1_555 1_555
C14_2 C9_2 1_555 1_555
Cu3_3 O8_2 1_555 1_555
Cu5_2 O7_2 1_555 1_555
Cu6_2 O5_2 1_555 1_555
Cu7_2 Cu1_2 1_555 1_555
Cu8_3 O6_2 1_555 1_555
O10_2 Cu1_2 1_555 1_555
O12_2 Cu7_2 1_555 1_555
O1_2 Cu7_2 1_555 1_555
C3_2 C13_2 1_555 1_555
C4_2 C6_2 1_555 1_555
C9_2 C10_2 1_555 1_555
C11_2 C13_2 1_555 1_555
Cu3_3 Cu8_3 1_555 1_555
Cu5_2 Cu6_2 1_555 1_555
Cu4_2 Cu2_2 1_555 1_555
Cu7_3 Cu1_3 1_555 1_555
O9_2 Cu1_3 1_555 1_555
O11_2 Cu1_3 1_555 1_555
O13_2 Cu7_3 1_555 1_555
O14_2 Cu7_3 1_555 1_555
Cu1_4 O3_3 1_555 1_555
O1_3 C5_3 1_555 1_555
O3_3 C5_3 1_555 1_555
C3_3 H3_3 1_555 1_555
H4_3 C4_3 1_555 1_555
H5_3 C4_3 1_555 1_555
C5_3 C6_3 1_555 1_555
C6_3 C3_3 1_555 1_555
H9_3 C3_3 1_555 1_555
Cu5_4 O7_3 1_555 1_555
Cu7_4 Cu1_4 1_555 1_555
O9_3 Cu1_4 1_555 1_555
O14_3 Cu7_4 1_555 1_555
O1_3 Cu7_4 1_555 1_555
O4_3 Cu4_3 1_555 1_555
C4_3 C6_3 1_555 1_555
Cu3_4 Cu8_4 1_555 1_555
Cu2_3 O2_3 1_555 1_555
O2_3 C8_3 1_555 1_555
C1_3 C2_3 1_555 1_555
H2_3 C2_3 1_555 1_555
C7_3 C1_3 1_555 1_555
H6_3 C7_3 1_555 1_555
C8_3 C1_3 1_555 1_555
O5_3 C12_3 1_555 1_555
O6_3 C14_3 1_555 1_555
O8_3 C14_3 1_555 1_555
C9_3 C7_3 1_555 1_555
H7_3 C10_3 1_555 1_555
H8_3 C10_3 1_555 1_555
C11_3 C9_3 1_555 1_555
H10_3 C11_3 1_555 1_555
H11_3 C11_3 1_555 1_555
C12_3 C13_3 1_555 1_555
C13_3 C2_3 1_555 1_555
H12_3 C7_3 1_555 1_555
C14_3 C9_3 1_555 1_555
Cu6_4 O5_3 1_555 1_555
C9_3 C10_3 1_555 1_555
C11_3 C13_3 1_555 1_555
Cu2_5 O2_4 1_555 1_555
O2_4 C8_4 1_555 1_555
C1_4 C2_4 1_555 1_555
H2_4 C2_4 1_555 1_555
C7_4 C1_4 1_555 1_555
H6_4 C7_4 1_555 1_555
C8_4 C1_4 1_555 1_555
O5_4 C12_4 1_555 1_555
O6_4 C14_4 1_555 1_555
O8_4 C14_4 1_555 1_555
C9_4 C7_4 1_555 1_555
H7_4 C10_4 1_555 1_555
H8_4 C10_4 1_555 1_555
C11_4 C9_4 1_555 1_555
H10_4 C11_4 1_555 1_555
H11_4 C11_4 1_555 1_555
C12_4 C13_4 1_555 1_555
C13_4 C2_4 1_555 1_555
H12_4 C7_4 1_555 1_555
C14_4 C9_4 1_555 1_555
Cu3_5 O8_4 1_555 1_555
Cu6_5 O5_4 1_555 1_555
Cu8_5 O6_4 1_555 1_555
C9_4 C10_4 1_555 1_555
C11_4 C13_4 1_555 1_555
Cu3_5 Cu8_5 1_555 1_555
Cu1_5 O3_4 1_555 1_555
O1_4 C5_4 1_555 1_555
O3_4 C5_4 1_555 1_555
C3_4 H3_4 1_555 1_555
H4_4 C4_4 1_555 1_555
H5_4 C4_4 1_555 1_555
C5_4 C6_4 1_555 1_555
C6_4 C3_4 1_555 1_555
H9_4 C3_4 1_555 1_555
Cu5_5 O7_4 1_555 1_555
Cu7_5 Cu1_5 1_555 1_555
O9_4 Cu1_5 1_555 1_555
O10_4 Cu1_5 1_555 1_555
O11_4 Cu1_5 1_555 1_555
O12_4 Cu7_5 1_555 1_555
O13_4 Cu7_5 1_555 1_555
O14_4 Cu7_5 1_555 1_555
O1_4 Cu7_5 1_555 1_555
O4_4 Cu4_5 1_555 1_555
C4_4 C6_4 1_555 1_555
Cu3 O3_5 1_555 1_555
O1_5 C5_5 1_555 1_555
O2_5 C8_5 1_555 1_555
O3_5 C5_5 1_555 1_555
O4_5 C8_5 1_555 1_555
C1_5 C2_5 1_555 1_555
C2_5 H1_5 1_555 1_555
H2_5 C2_5 1_555 1_555
C3_5 H3_5 1_555 1_555
C4_5 C1_5 1_555 1_555
H4_5 C4_5 1_555 1_555
H5_5 C4_5 1_555 1_555
C5_5 C6_5 1_555 1_555
C6_5 C3_5 1_555 1_555
C7_5 C1_5 1_555 1_555
H6_5 C7_5 1_555 1_555
C8_5 C1_5 1_555 1_555
O5_5 C12_5 1_555 1_555
O12 C14_5 1_555 1_555
O7_5 C12_5 1_555 1_555
O10 C14_5 1_555 1_555
C9_5 C7_5 1_555 1_555
C10_5 C6_5 1_555 1_555
H7_5 C10_5 1_555 1_555
H8_5 C10_5 1_555 1_555
H9_5 C3_5 1_555 1_555
C11_5 C9_5 1_555 1_555
H10_5 C11_5 1_555 1_555
H11_5 C11_5 1_555 1_555
C12_5 C13_5 1_555 1_555
C13_5 C2_5 1_555 1_555
H12_5 C7_5 1_555 1_555
C14_5 C9_5 1_555 1_555
Cu4_2 O7_5 1_555 1_555
Cu2_2 O5_5 1_555 1_555
O1_5 Cu8 1_555 1_555
C3_5 C13_5 1_555 1_555
C4_5 C6_5 1_555 1_555
C9_5 C10_5 1_555 1_555
C11_5 C13_5 1_555 1_555
O9_5 Cu3_2 1_555 1_555
O11_5 Cu3_2 1_555 1_555
O13_5 Cu8_2 1_555 1_555
O14_5 Cu8_2 1_555 1_555
Cu3_3 O3_6 1_555 1_555
Cu6 O2_6 1_555 1_555
O1_6 C5_6 1_555 1_555
O2_6 C8_6 1_555 1_555
O3_6 C5_6 1_555 1_555
O4_6 C8_6 1_555 1_555
C1_6 C2_6 1_555 1_555
C2_6 H1_6 1_555 1_555
H2_6 C2_6 1_555 1_555
C3_6 H3_6 1_555 1_555
C4_6 C1_6 1_555 1_555
H4_6 C4_6 1_555 1_555
H5_6 C4_6 1_555 1_555
C5_6 C6_6 1_555 1_555
C6_6 C3_6 1_555 1_555
C7_6 C1_6 1_555 1_555
H6_6 C7_6 1_555 1_555
C8_6 C1_6 1_555 1_555
O5_6 C12_6 1_555 1_555
O12_2 C14_6 1_555 1_555
O7_6 C12_6 1_555 1_555
O10_2 C14_6 1_555 1_555
C9_6 C7_6 1_555 1_555
C10_6 C6_6 1_555 1_555
H7_6 C10_6 1_555 1_555
H8_6 C10_6 1_555 1_555
H9_6 C3_6 1_555 1_555
C11_6 C9_6 1_555 1_555
H10_6 C11_6 1_555 1_555
H11_6 C11_6 1_555 1_555
C12_6 C13_6 1_555 1_555
C13_6 C2_6 1_555 1_555
H12_6 C7_6 1_555 1_555
C14_6 C9_6 1_555 1_555
Cu4 O7_6 1_555 1_555
Cu2 O5_6 1_555 1_555
O9_6 Cu3_3 1_555 1_555
O11_6 Cu3_3 1_555 1_555
O13_6 Cu8_3 1_555 1_555
O14_6 Cu8_3 1_555 1_555
O1_6 Cu8_3 1_555 1_555
O4_6 Cu5 1_555 1_555
C3_6 C13_6 1_555 1_555
C4_6 C6_6 1_555 1_555
C9_6 C10_6 1_555 1_555
C11_6 C13_6 1_555 1_555
Cu3_5 O3_7 1_555 1_555
O1_7 C5_7 1_555 1_555
O3_7 C5_7 1_555 1_555
C3_7 H3_7 1_555 1_555
H4_7 C4_7 1_555 1_555
H5_7 C4_7 1_555 1_555
C5_7 C6_7 1_555 1_555
C6_7 C3_7 1_555 1_555
H9_7 C3_7 1_555 1_555
Cu4_3 O7_7 1_555 1_555
O9_7 Cu3_5 1_555 1_555
O11_7 Cu3_5 1_555 1_555
O13_7 Cu8_5 1_555 1_555
O14_7 Cu8_5 1_555 1_555
O1_7 Cu8_5 1_555 1_555
O4_7 Cu5_4 1_555 1_555
C4_7 C6_7 1_555 1_555
Cu6_4 O2_7 1_555 1_555
O2_7 C8_7 1_555 1_555
C1_7 C2_7 1_555 1_555
H2_7 C2_7 1_555 1_555
C7_7 C1_7 1_555 1_555
H6_7 C7_7 1_555 1_555
C8_7 C1_7 1_555 1_555
O5_7 C12_7 1_555 1_555
O12_4 C14_7 1_555 1_555
O10_4 C14_7 1_555 1_555
C9_7 C7_7 1_555 1_555
H7_7 C10_7 1_555 1_555
H8_7 C10_7 1_555 1_555
C11_7 C9_7 1_555 1_555
H10_7 C11_7 1_555 1_555
H11_7 C11_7 1_555 1_555
C12_7 C13_7 1_555 1_555
C13_7 C2_7 1_555 1_555
H12_7 C7_7 1_555 1_555
C14_7 C9_7 1_555 1_555
Cu2_3 O5_7 1_555 1_555
C9_7 C10_7 1_555 1_555
C11_7 C13_7 1_555 1_555
Cu6_5 O2_8 1_555 1_555
O2_8 C8_8 1_555 1_555
C1_8 C2_8 1_555 1_555
H2_8 C2_8 1_555 1_555
C7_8 C1_8 1_555 1_555
H6_8 C7_8 1_555 1_555
C8_8 C1_8 1_555 1_555
O5_8 C12_8 1_555 1_555
O12_3 C14_8 1_555 1_555
O10_3 C14_8 1_555 1_555
C9_8 C7_8 1_555 1_555
H7_8 C10_8 1_555 1_555
H8_8 C10_8 1_555 1_555
C11_8 C9_8 1_555 1_555
H10_8 C11_8 1_555 1_555
H11_8 C11_8 1_555 1_555
C12_8 C13_8 1_555 1_555
C13_8 C2_8 1_555 1_555
H12_8 C7_8 1_555 1_555
C14_8 C9_8 1_555 1_555
Cu2_5 O5_8 1_555 1_555
C9_8 C10_8 1_555 1_555
C11_8 C13_8 1_555 1_555
Cu3_4 O3_8 1_555 1_555
O1_8 C5_8 1_555 1_555
O3_8 C5_8 1_555 1_555
C3_8 H3_8 1_555 1_555
H4_8 C4_8 1_555 1_555
H5_8 C4_8 1_555 1_555
C5_8 C6_8 1_555 1_555
C6_8 C3_8 1_555 1_555
H9_8 C3_8 1_555 1_555
Cu4_5 O7_8 1_555 1_555
O9_8 Cu3_4 1_555 1_555
O14_8 Cu8_4 1_555 1_555
O1_8 Cu8_4 1_555 1_555
O4_8 Cu5_5 1_555 1_555
C4_8 C6_8 1_555 1_555
O13_9 Cu2_4 1_555 1_555
O14_9 Cu2_4 1_555 1_555
O9_9 Cu4_4 1_555 1_555
O11_9 Cu4_4 1_555 1_555
O9_10 Cu4_3 1_555 1_555
O11_10 Cu4_3 1_555 1_555
O13_10 Cu2_3 1_555 1_555
O14_10 Cu2_3 1_555 1_555
O9_11 Cu4 1_555 1_555
O11_11 Cu4 1_555 1_555
O13_11 Cu2 1_555 1_555
O14_11 Cu2 1_555 1_555
O9_12 Cu4_2 1_555 1_555
O14_12 Cu2_2 1_555 1_555
O13_13 Cu6_5 1_555 1_555
O14_13 Cu6_5 1_555 1_555
O9_13 Cu5_5 1_555 1_555
O11_13 Cu5_5 1_555 1_555
O9_14 Cu5_3 1_555 1_555
O11_14 Cu5_3 1_555 1_555
O13_14 Cu6_3 1_555 1_555
O14_14 Cu6_3 1_555 1_555
O9_15 Cu5_2 1_555 1_555
O14_15 Cu6_2 1_555 1_555
O9_16 Cu5 1_555 1_555
O11_16 Cu5 1_555 1_555
O13_16 Cu6 1_555 1_555
O14_16 Cu6 1_555 1_555
O14_6 C5_9 1_555 1_555
O13_7 C8_9 1_555 1_555
O9_6 C5_9 1_555 1_555
O11_7 C8_9 1_555 1_555
C1_9 C2_9 1_555 1_555
C2_9 H1_9 1_555 1_555
H2_9 C2_9 1_555 1_555
C3_9 H3_9 1_555 1_555
C4_9 C1_9 1_555 1_555
H4_9 C4_9 1_555 1_555
H5_9 C4_9 1_555 1_555
C5_9 C6_9 1_555 1_555
C6_9 C3_9 1_555 1_555
C7_9 C1_9 1_555 1_555
H6_9 C7_9 1_555 1_555
C8_9 C1_9 1_555 1_555
O14_4 C12_9 1_555 1_555
O13_2 C14_9 1_555 1_555
O9_4 C12_9 1_555 1_555
O11_2 C14_9 1_555 1_555
C9_9 C7_9 1_555 1_555
C10_9 C6_9 1_555 1_555
H7_9 C10_9 1_555 1_555
H8_9 C10_9 1_555 1_555
H9_9 C3_9 1_555 1_555
C11_9 C9_9 1_555 1_555
H10_9 C11_9 1_555 1_555
H11_9 C11_9 1_555 1_555
C12_9 C13_9 1_555 1_555
C13_9 C2_9 1_555 1_555
H12_9 C7_9 1_555 1_555
C14_9 C9_9 1_555 1_555
C3_9 C13_9 1_555 1_555
C4_9 C6_9 1_555 1_555
C9_9 C10_9 1_555 1_555
C11_9 C13_9 1_555 1_555
O14_5 C5_10 1_555 1_555
O13_8 C8_10 1_555 1_555
O9_5 C5_10 1_555 1_555
O11_8 C8_10 1_555 1_555
C1_10 C2_10 1_555 1_555
C2_10 H1_10 1_555 1_555
H2_10 C2_10 1_555 1_555
C3_10 H3_10 1_555 1_555
C4_10 C1_10 1_555 1_555
H4_10 C4_10 1_555 1_555
H5_10 C4_10 1_555 1_555
C5_10 C6_10 1_555 1_555
C6_10 C3_10 1_555 1_555
C7_10 C1_10 1_555 1_555
H6_10 C7_10 1_555 1_555
C8_10 C1_10 1_555 1_555
O14_3 C12_10 1_555 1_555
O13 C14_10 1_555 1_555
O9_3 C12_10 1_555 1_555
O11 C14_10 1_555 1_555
C9_10 C7_10 1_555 1_555
C10_10 C6_10 1_555 1_555
H7_10 C10_10 1_555 1_555
H8_10 C10_10 1_555 1_555
H9_10 C3_10 1_555 1_555
C11_10 C9_10 1_555 1_555
H10_10 C11_10 1_555 1_555
H11_10 C11_10 1_555 1_555
C12_10 C13_10 1_555 1_555
C13_10 C2_10 1_555 1_555
H12_10 C7_10 1_555 1_555
C14_10 C9_10 1_555 1_555
C3_10 C13_10 1_555 1_555
C4_10 C6_10 1_555 1_555
C9_10 C10_10 1_555 1_555
C11_10 C13_10 1_555 1_555
O13_13 C8_11 1_555 1_555
C1_11 C2_11 1_555 1_555
H2_11 C2_11 1_555 1_555
C7_11 C1_11 1_555 1_555
H6_11 C7_11 1_555 1_555
C8_11 C1_11 1_555 1_555
O14_9 C12_11 1_555 1_555
O13_12 C14_11 1_555 1_555
O11_12 C14_11 1_555 1_555
C9_11 C7_11 1_555 1_555
H7_11 C10_11 1_555 1_555
H8_11 C10_11 1_555 1_555
C11_11 C9_11 1_555 1_555
H10_11 C11_11 1_555 1_555
H11_11 C11_11 1_555 1_555
C12_11 C13_11 1_555 1_555
C13_11 C2_11 1_555 1_555
H12_11 C7_11 1_555 1_555
C14_11 C9_11 1_555 1_555
C9_11 C10_11 1_555 1_555
C11_11 C13_11 1_555 1_555
O14_15 C5_11 1_555 1_555
O9_15 C5_11 1_555 1_555
C3_11 H3_11 1_555 1_555
H4_11 C4_11 1_555 1_555
H5_11 C4_11 1_555 1_555
C5_11 C6_11 1_555 1_555
C6_11 C3_11 1_555 1_555
H9_11 C3_11 1_555 1_555
C4_11 C6_11 1_555 1_555
O14_16 C5_12 1_555 1_555
O9_16 C5_12 1_555 1_555
C3_12 H3_12 1_555 1_555
H4_12 C4_12 1_555 1_555
H5_12 C4_12 1_555 1_555
C5_12 C6_12 1_555 1_555
C6_12 C3_12 1_555 1_555
H9_12 C3_12 1_555 1_555
C4_12 C6_12 1_555 1_555
O13_14 C8_12 1_555 1_555
C1_12 C2_12 1_555 1_555
H2_12 C2_12 1_555 1_555
C7_12 C1_12 1_555 1_555
H6_12 C7_12 1_555 1_555
C8_12 C1_12 1_555 1_555
O14_10 C12_12 1_555 1_555
O13_11 C14_12 1_555 1_555
O11_11 C14_12 1_555 1_555
C9_12 C7_12 1_555 1_555
H7_12 C10_12 1_555 1_555
H8_12 C10_12 1_555 1_555
C11_12 C9_12 1_555 1_555
H10_12 C11_12 1_555 1_555
H11_12 C11_12 1_555 1_555
C12_12 C13_12 1_555 1_555
C13_12 C2_12 1_555 1_555
H12_12 C7_12 1_555 1_555
C14_12 C9_12 1_555 1_555
C9_12 C10_12 1_555 1_555
C11_12 C13_12 1_555 1_555
O14_2 C5_13 1_555 1_555
O13_3 C8_13 1_555 1_555
O9_2 C5_13 1_555 1_555
O11_3 C8_13 1_555 1_555
C1_13 C2_13 1_555 1_555
C2_13 H1_13 1_555 1_555
H2_13 C2_13 1_555 1_555
C3_13 H3_13 1_555 1_555
C4_13 C1_13 1_555 1_555
H4_13 C4_13 1_555 1_555
H5_13 C4_13 1_555 1_555
C5_13 C6_13 1_555 1_555
C6_13 C3_13 1_555 1_555
C7_13 C1_13 1_555 1_555
H6_13 C7_13 1_555 1_555
C8_13 C1_13 1_555 1_555
O14_8 C12_13 1_555 1_555
O13_6 C14_13 1_555 1_555
O9_8 C12_13 1_555 1_555
O11_6 C14_13 1_555 1_555
C9_13 C7_13 1_555 1_555
C10_13 C6_13 1_555 1_555
H7_13 C10_13 1_555 1_555
H8_13 C10_13 1_555 1_555
H9_13 C3_13 1_555 1_555
C11_13 C9_13 1_555 1_555
H10_13 C11_13 1_555 1_555
H11_13 C11_13 1_555 1_555
C12_13 C13_13 1_555 1_555
C13_13 C2_13 1_555 1_555
H12_13 C7_13 1_555 1_555
C14_13 C9_13 1_555 1_555
C3_13 C13_13 1_555 1_555
C4_13 C6_13 1_555 1_555
C9_13 C10_13 1_555 1_555
C11_13 C13_13 1_555 1_555
O14 C5_14 1_555 1_555
O13_4 C8_14 1_555 1_555
O9 C5_14 1_555 1_555
O11_4 C8_14 1_555 1_555
C1_14 C2_14 1_555 1_555
C2_14 H1_14 1_555 1_555
H2_14 C2_14 1_555 1_555
C3_14 H3_14 1_555 1_555
C4_14 C1_14 1_555 1_555
H4_14 C4_14 1_555 1_555
H5_14 C4_14 1_555 1_555
C5_14 C6_14 1_555 1_555
C6_14 C3_14 1_555 1_555
C7_14 C1_14 1_555 1_555
H6_14 C7_14 1_555 1_555
C8_14 C1_14 1_555 1_555
O14_7 C12_14 1_555 1_555
O13_5 C14_14 1_555 1_555
O9_7 C12_14 1_555 1_555
O11_5 C14_14 1_555 1_555
C9_14 C7_14 1_555 1_555
C10_14 C6_14 1_555 1_555
H7_14 C10_14 1_555 1_555
H8_14 C10_14 1_555 1_555
H9_14 C3_14 1_555 1_555
C11_14 C9_14 1_555 1_555
H10_14 C11_14 1_555 1_555
H11_14 C11_14 1_555 1_555
C12_14 C13_14 1_555 1_555
C13_14 C2_14 1_555 1_555
H12_14 C7_14 1_555 1_555
C14_14 C9_14 1_555 1_555
C3_14 C13_14 1_555 1_555
C4_14 C6_14 1_555 1_555
C9_14 C10_14 1_555 1_555
C11_14 C13_14 1_555 1_555
O13_9 C8_15 1_555 1_555
C1_15 C2_15 1_555 1_555
H2_15 C2_15 1_555 1_555
C7_15 C1_15 1_555 1_555
H6_15 C7_15 1_555 1_555
C8_15 C1_15 1_555 1_555
O14_13 C12_15 1_555 1_555
O13_16 C14_15 1_555 1_555
O11_16 C14_15 1_555 1_555
C9_15 C7_15 1_555 1_555
H7_15 C10_15 1_555 1_555
H8_15 C10_15 1_555 1_555
C11_15 C9_15 1_555 1_555
H10_15 C11_15 1_555 1_555
H11_15 C11_15 1_555 1_555
C12_15 C13_15 1_555 1_555
C13_15 C2_15 1_555 1_555
H12_15 C7_15 1_555 1_555
C14_15 C9_15 1_555 1_555
C9_15 C10_15 1_555 1_555
C11_15 C13_15 1_555 1_555
O14_11 C5_15 1_555 1_555
O9_11 C5_15 1_555 1_555
C3_15 H3_15 1_555 1_555
H4_15 C4_15 1_555 1_555
H5_15 C4_15 1_555 1_555
C5_15 C6_15 1_555 1_555
C6_15 C3_15 1_555 1_555
H9_15 C3_15 1_555 1_555
C4_15 C6_15 1_555 1_555
O14_12 C5_16 1_555 1_555
O9_12 C5_16 1_555 1_555
C3_16 H3_16 1_555 1_555
H4_16 C4_16 1_555 1_555
H5_16 C4_16 1_555 1_555
C5_16 C6_16 1_555 1_555
C6_16 C3_16 1_555 1_555
H9_16 C3_16 1_555 1_555
C4_16 C6_16 1_555 1_555
O13_10 C8_16 1_555 1_555
C1_16 C2_16 1_555 1_555
H2_16 C2_16 1_555 1_555
C7_16 C1_16 1_555 1_555
H6_16 C7_16 1_555 1_555
C8_16 C1_16 1_555 1_555
O14_14 C12_16 1_555 1_555
O13_15 C14_16 1_555 1_555
O11_15 C14_16 1_555 1_555
C9_16 C7_16 1_555 1_555
H7_16 C10_16 1_555 1_555
H8_16 C10_16 1_555 1_555
C11_16 C9_16 1_555 1_555
H10_16 C11_16 1_555 1_555
H11_16 C11_16 1_555 1_555
C12_16 C13_16 1_555 1_555
C13_16 C2_16 1_555 1_555
H12_16 C7_16 1_555 1_555
C14_16 C9_16 1_555 1_555
C9_16 C10_16 1_555 1_555
C11_16 C13_16 1_555 1_555

#END
