
###############################################################################
#
# This file contains modified crystal structure data generated from the
# MOF subset of the Cambridge Structural Database (CSD) v543 
# hosted by the Cambridge Crystallographic Data Centre (CCDC).
#
# This work is licensed under the Creative Commons
# Attribution-NonCommercial-ShareAlike 4.0 International License.
# To view a copy of this license, visit
# http://creativecommons.org/licenses/by-nc-sa/4.0/
# or send a letter to
# Creative Commons, PO Box 1866, Mountain View, CA 94042, USA.
#
# CIF created using the CSD Python API on 29 September 2022
# The structure has been converted into the P1 space group
# The structure has a 3D framework
# The original CSD entry YAPPOY is in the monoclinic crystal system
# The framework has been calculated to contain at least 10.0% void space
# The void calculation uses a probe of radius 1.32A, grid spacing 0.4
# The framework is charged, counterions have been retained in the structure
# H atom positions have been added when not included in the experimental data
# Generated hydrogen atom positions removed from atoms on special positions
#
###############################################################################

data_YAPPOY
_chemical_formula_moiety         '(C128 H128 Cu8 K6 N16 Nd8 O104 4-)n'
_symmetry_cell_setting           triclinic
_symmetry_space_group_name_H-M   'P 1'
_symmetry_Int_Tables_number      1
_space_group_name_Hall           'P 1'
loop_
_symmetry_equiv_pos_site_id
_symmetry_equiv_pos_as_xyz
1 x,y,z
_cell_length_a                   23.5338(6)
_cell_length_b                   13.5498(3)
_cell_length_c                   17.8421(3)
_cell_angle_alpha                90
_cell_angle_beta                 104.123(2)
_cell_angle_gamma                90
_cell_volume                     5517.49
loop_
_atom_site_label
_atom_site_type_symbol
_atom_site_fract_x
_atom_site_fract_y
_atom_site_fract_z
Nd5 Nd 0.15900(2) 0.08515(3) 0.97464(2)
Nd6 Nd 0.84100(2) 0.08515(3) 0.52536(2)
O12 O 0.7650(2) 0.6409(4) 0.0219(3)
C25 C 0.2541(3) 0.9164(5) 0.0493(4)
C26 C 0.3072(3) 0.8334(6) 0.1696(4)
C27 C 0.3483(3) 0.7537(5) 0.1873(4)
C28 C 0.3631(3) 0.7189(6) 0.2621(4)
H10 H 0.389958 0.667641 0.275130
C29 C 0.3381(3) 0.7597(6) 0.3186(4)
C30 C 0.3002(3) 0.8396(6) 0.3017(4)
H11 H 0.285306 0.868116 0.340345
C31 C 0.2846(3) 0.8768(6) 0.2269(4)
H12 H 0.259321 0.930391 0.215174
C32 C 0.3478(3) 0.7095(6) 0.3944(4)
N4 N 0.2948(3) 0.8593(5) 0.0912(3)
O15 O 0.3714(2) 0.7159(4) 0.1307(3)
O17 O 0.2152(2) 0.9658(4) 0.0688(3)
O20 O 0.3670(2) 0.6211(4) 0.4014(3)
O21 O 0.3344(3) 0.7501(4) 0.4518(3)
Cu2 Cu 0.33976(4) 0.78426(9) 0.03446(5)
O30 O 0.7152(2) 0.4658(4) 0.0688(3)
O31 O 0.6330(2) 0.6211(4) 0.0986(3)
O33 O 0.6656(3) 0.7501(4) 0.0482(3)
Nd4 Nd 0.34100(2) 0.58515(3) 0.52536(2)
H16 H 0.607865 0.421512 0.0497731
H21 H 0.766111 0.712713 0.0332641
H22 H 0.783931 0.604088 0.0695805
C1 C 0.6303(4) 0.7258(6) 0.8133(4)
C2 C 0.6513(4) 0.7674(6) 0.7470(4)
C3 C 0.6219(3) 0.7386(6) 0.6729(4)
H1 H 0.588630 0.699330 0.665746
C4 C 0.6424(3) 0.7685(6) 0.6092(4)
C5 C 0.6900(3) 0.8354(5) 0.6215(4)
C6 C 0.7168(3) 0.8691(6) 0.6954(4)
H2 H 0.746799 0.915443 0.702460
C7 C 0.6986(3) 0.8333(6) 0.7578(4)
H3 H 0.717701 0.852887 0.807537
C8 C 0.7428(3) 0.9204(5) 0.5360(4)
C9 C 0.7459(3) 0.9164(5) 0.4507(4)
C10 C 0.6928(3) 0.8334(6) 0.3304(4)
C11 C 0.6517(3) 0.7537(5) 0.3127(4)
C12 C 0.6369(3) 0.7189(6) 0.2379(4)
H4 H 0.610042 0.667641 0.224870
C13 C 0.6619(3) 0.7597(6) 0.1814(4)
C14 C 0.6998(3) 0.8396(6) 0.1983(4)
H5 H 0.714694 0.868116 0.159655
C15 C 0.7154(3) 0.8768(6) 0.2731(4)
H6 H 0.740679 0.930391 0.284826
C16 C 0.6522(3) 0.7095(6) 0.1056(4)
N1 N 0.7046(3) 0.8582(5) 0.5515(3)
N2 N 0.7052(3) 0.8593(5) 0.4088(3)
O1 O 0.6170(2) 0.7346(4) 0.5368(3)
O2 O 0.6286(2) 0.7159(4) 0.3693(3)
O3 O 0.7756(2) 0.9810(4) 0.5797(3)
O4 O 0.7848(2) 0.9658(4) 0.4312(3)
O5 O 0.5761(2) 0.7076(4) 0.8019(3)
O6 O 0.6669(2) 0.7094(4) 0.8774(3)
O9 O 0.5562(2) 0.6495(4) 0.9325(3)
O10 O 0.6091(2) 0.4929(4) 0.8468(3)
O11 O 0.5906(2) 0.4538(4) 0.9994(3)
O13 O 0.5187(4) 0.4662(7) 0.6105(5)
K1 K 0.500000 0.5575(5) 0.750000
Cu1 Cu 0.66024(4) 0.78426(9) 0.46554(5)
Nd1 Nd 0.65900(2) 0.58515(3) 0.97464(2)
C17 C 0.3697(4) 0.7258(6) 0.6867(4)
C18 C 0.3487(4) 0.7674(6) 0.7530(4)
C19 C 0.3781(3) 0.7386(6) 0.8271(4)
H7 H 0.411370 0.699330 0.834254
C20 C 0.3576(3) 0.7685(6) 0.8908(4)
C21 C 0.3100(3) 0.8354(5) 0.8785(4)
C22 C 0.2832(3) 0.8691(6) 0.8046(4)
H8 H 0.253201 0.915443 0.797540
C23 C 0.3014(3) 0.8333(6) 0.7422(4)
H9 H 0.282299 0.852887 0.692463
C24 C 0.2572(3) 0.9204(5) 0.9640(4)
N3 N 0.2954(3) 0.8582(5) 0.9485(3)
O14 O 0.3830(2) 0.7346(4) 0.9632(3)
O16 O 0.2244(2) 0.9810(4) 0.9203(3)
O18 O 0.4239(2) 0.7076(4) 0.6981(3)
O19 O 0.3331(2) 0.7094(4) 0.6226(3)
O22 O 0.4438(2) 0.6495(4) 0.5675(3)
O23 O 0.3909(2) 0.4929(4) 0.6532(3)
O24 O 0.4094(2) 0.4538(4) 0.5006(3)
O25 O 0.2350(2) 0.6409(4) 0.4781(3)
O26 O 0.4813(4) 0.4662(7) 0.8895(5)
O27 O 0.2756(2) 0.4810(4) 0.5797(3)
O28 O 0.7244(2) 0.4810(4) 0.9203(3)
O29 O 0.2848(2) 0.4658(4) 0.4312(3)
H13 H 0.540864 0.637747 0.876252
H14 H 0.531051 0.614819 0.961406
H15 H 0.584433 0.403807 0.957492
H17 H 0.459136 0.637747 0.623748
H18 H 0.468949 0.614819 0.538594
H23 H 0.415567 0.403807 0.542508
H24 H 0.392135 0.421512 0.450227
H27 H 0.233889 0.712713 0.466736
H28 H 0.216069 0.604088 0.43042
O12_2 O 0.2650(2) 0.1409(4) 0.0219(3)
O31_2 O 0.1330(2) 0.1211(4) 0.0986(3)
O33_2 O 0.1656(3) 0.2501(4) 0.0482(3)
H21_2 H 0.266111 0.212713 0.0332641
H22_2 H 0.283931 0.104088 0.0695805
C1_2 C 0.1303(4) 0.2258(6) 0.8133(4)
C2_2 C 0.1513(4) 0.2674(6) 0.7470(4)
C3_2 C 0.1219(3) 0.2386(6) 0.6729(4)
H1_2 H 0.088630 0.199330 0.665746
C4_2 C 0.1424(3) 0.2685(6) 0.6092(4)
C5_2 C 0.1900(3) 0.3354(5) 0.6215(4)
C6_2 C 0.2168(3) 0.3691(6) 0.6954(4)
H2_2 H 0.246799 0.415443 0.702460
C7_2 C 0.1986(3) 0.3333(6) 0.7578(4)
H3_2 H 0.217701 0.352887 0.807537
C8_2 C 0.2428(3) 0.4204(5) 0.5360(4)
C9_2 C 0.2459(3) 0.4164(5) 0.4507(4)
C10_2 C 0.1928(3) 0.3334(6) 0.3304(4)
C11_2 C 0.1517(3) 0.2537(5) 0.3127(4)
C12_2 C 0.1369(3) 0.2189(6) 0.2379(4)
H4_2 H 0.110042 0.167641 0.224870
C13_2 C 0.1619(3) 0.2597(6) 0.1814(4)
C14_2 C 0.1998(3) 0.3396(6) 0.1983(4)
H5_2 H 0.214694 0.368116 0.159655
C15_2 C 0.2154(3) 0.3768(6) 0.2731(4)
H6_2 H 0.240679 0.430391 0.284826
C16_2 C 0.1522(3) 0.2095(6) 0.1056(4)
N1_2 N 0.2046(3) 0.3582(5) 0.5515(3)
N2_2 N 0.2052(3) 0.3593(5) 0.4088(3)
O1_2 O 0.1170(2) 0.2346(4) 0.5368(3)
O2_2 O 0.1286(2) 0.2159(4) 0.3693(3)
O5_2 O 0.0761(2) 0.2076(4) 0.8019(3)
O6_2 O 0.1669(2) 0.2094(4) 0.8774(3)
O9_2 O 0.0562(2) 0.1495(4) 0.9325(3)
K1_2 K 0.000000 0.0575(5) 0.750000
Cu1_2 Cu 0.16024(4) 0.28426(9) 0.46554(5)
H13_2 H 0.0408645 0.137747 0.876252
H14_2 H 0.0310515 0.114819 0.961406
H16_2 H 0.107865 0.921512 0.0497731
O10_2 O 0.1091(2) 0.9929(4) 0.8468(3)
O11_2 O 0.0906(2) 0.9538(4) 0.9994(3)
O13_2 O 0.0187(4) 0.9662(7) 0.6105(5)
H15_2 H 0.0844327 0.903807 0.957492
H19 H 0.0590513 0.938977 0.621047
C25_2 C 0.7541(3) 0.4164(5) 0.0493(4)
C26_2 C 0.8072(3) 0.3334(6) 0.1696(4)
C27_2 C 0.8483(3) 0.2537(5) 0.1873(4)
C28_2 C 0.8631(3) 0.2189(6) 0.2621(4)
H10_2 H 0.889958 0.167641 0.275130
C29_2 C 0.8381(3) 0.2597(6) 0.3186(4)
C30_2 C 0.8002(3) 0.3396(6) 0.3017(4)
H11_2 H 0.785306 0.368116 0.340345
C31_2 C 0.7846(3) 0.3768(6) 0.2269(4)
H12_2 H 0.759321 0.430391 0.215174
C32_2 C 0.8478(3) 0.2095(6) 0.3944(4)
N4_2 N 0.7948(3) 0.3593(5) 0.0912(3)
O15_2 O 0.8714(2) 0.2159(4) 0.1307(3)
O20_2 O 0.8670(2) 0.1211(4) 0.4014(3)
O21_2 O 0.8344(3) 0.2501(4) 0.4518(3)
Cu2_2 Cu 0.83976(4) 0.28426(9) 0.03446(5)
K1_3 K 1.000000 0.0575(5) 0.750000
C17_2 C 0.8697(4) 0.2258(6) 0.6867(4)
C18_2 C 0.8487(4) 0.2674(6) 0.7530(4)
C19_2 C 0.8781(3) 0.2386(6) 0.8271(4)
H7_2 H 0.911370 0.199330 0.834254
C20_2 C 0.8576(3) 0.2685(6) 0.8908(4)
C21_2 C 0.8100(3) 0.3354(5) 0.8785(4)
C22_2 C 0.7832(3) 0.3691(6) 0.8046(4)
H8_2 H 0.753201 0.415443 0.797540
C23_2 C 0.8014(3) 0.3333(6) 0.7422(4)
H9_2 H 0.782299 0.352887 0.692463
C24_2 C 0.7572(3) 0.4204(5) 0.9640(4)
N3_2 N 0.7954(3) 0.3582(5) 0.9485(3)
O14_2 O 0.8830(2) 0.2346(4) 0.9632(3)
O18_2 O 0.9239(2) 0.2076(4) 0.6981(3)
O19_2 O 0.8331(2) 0.2094(4) 0.6226(3)
O22_2 O 0.9438(2) 0.1495(4) 0.5675(3)
O25_2 O 0.7350(2) 0.1409(4) 0.4781(3)
H17_2 H 0.959136 0.137747 0.623748
H18_2 H 0.968949 0.114819 0.538594
H25 H 0.964599 0.0155869 0.919259
H27_2 H 0.733889 0.212713 0.466736
H28_2 H 0.716069 0.104088 0.43042
O23_2 O 0.8909(2) 0.9929(4) 0.6532(3)
O24_2 O 0.9094(2) 0.9538(4) 0.5006(3)
O26_2 O 0.9813(4) 0.9662(7) 0.8895(5)
H20 H 0.989921 0.912069 0.593999
H23_2 H 0.915567 0.903807 0.542508
H24_2 H 0.892135 0.921512 0.450227
H26 H 0.953661 0.910042 0.875247
H25_2 H 0.0354015 0.0155869 0.580741
H20_2 H 0.0100788 0.912069 0.906001
H26_2 H 0.0463389 0.910042 0.624753
H19_2 H 0.940949 0.938977 0.878953
Nd3 Nd 0.34100(2) 0.41485(3) 0.02536(2)
C1_3 C 0.3697(4) 0.2742(6) 0.1867(4)
C2_3 C 0.3487(4) 0.2326(6) 0.2530(4)
C3_3 C 0.3781(3) 0.2614(6) 0.3271(4)
H1_3 H 0.411370 0.300670 0.334254
C4_3 C 0.3576(3) 0.2315(6) 0.3908(4)
C5_3 C 0.3100(3) 0.1646(5) 0.3785(4)
C6_3 C 0.2832(3) 0.1309(6) 0.3046(4)
H2_3 H 0.253201 0.084557 0.297540
C7_3 C 0.3014(3) 0.1667(6) 0.2422(4)
H3_3 H 0.282299 0.147113 0.192463
C8_3 C 0.2572(3) 0.0796(5) 0.4640(4)
C9_3 C 0.2541(3) 0.0836(5) 0.5493(4)
C10_3 C 0.3072(3) 0.1666(6) 0.6696(4)
C11_3 C 0.3483(3) 0.2463(5) 0.6873(4)
C12_3 C 0.3631(3) 0.2811(6) 0.7621(4)
H4_3 H 0.389958 0.332359 0.775130
C13_3 C 0.3381(3) 0.2403(6) 0.8186(4)
C14_3 C 0.3002(3) 0.1604(6) 0.8017(4)
H5_3 H 0.285306 0.131884 0.840345
C15_3 C 0.2846(3) 0.1232(6) 0.7269(4)
H6_3 H 0.259321 0.069609 0.715174
C16_3 C 0.3478(3) 0.2905(6) 0.8944(4)
N1_3 N 0.2954(3) 0.1418(5) 0.4485(3)
N2_3 N 0.2948(3) 0.1407(5) 0.5912(3)
O1_3 O 0.3830(2) 0.2654(4) 0.4632(3)
O2_3 O 0.3714(2) 0.2841(4) 0.6307(3)
O3_2 O 0.2244(2) 0.0190(4) 0.4203(3)
O4_2 O 0.2152(2) 0.0342(4) 0.5688(3)
O5_3 O 0.4239(2) 0.2924(4) 0.1981(3)
O6_3 O 0.3331(2) 0.2906(4) 0.1226(3)
O7 O 0.3670(2) 0.3789(4) 0.9014(3)
O8 O 0.3344(3) 0.2499(4) 0.9518(3)
O9_3 O 0.4438(2) 0.3505(4) 0.0675(3)
O10_3 O 0.3909(2) 0.5071(4) 0.1532(3)
O11_3 O 0.4094(2) 0.5462(4) 0.0006(3)
O13_3 O 0.4813(4) 0.5338(7) 0.3895(5)
K1_4 K 0.500000 0.4425(5) 0.250000
Cu1_3 Cu 0.33976(4) 0.21574(9) 0.53446(5)
C17_3 C 0.6303(4) 0.2742(6) 0.3133(4)
C18_3 C 0.6513(4) 0.2326(6) 0.2470(4)
C19_3 C 0.6219(3) 0.2614(6) 0.1729(4)
H7_3 H 0.588630 0.300670 0.165746
C20_3 C 0.6424(3) 0.2315(6) 0.1092(4)
C21_3 C 0.6900(3) 0.1646(5) 0.1215(4)
C22_3 C 0.7168(3) 0.1309(6) 0.1954(4)
H8_3 H 0.746799 0.084557 0.202460
C23_3 C 0.6986(3) 0.1667(6) 0.2578(4)
H9_3 H 0.717701 0.147113 0.307537
C24_3 C 0.7428(3) 0.0796(5) 0.0360(4)
N3_3 N 0.7046(3) 0.1418(5) 0.0515(3)
O14_3 O 0.6170(2) 0.2654(4) 0.0368(3)
O16_2 O 0.7756(2) 0.0190(4) 0.0797(3)
O18_3 O 0.5761(2) 0.2924(4) 0.3019(3)
O19_3 O 0.6669(2) 0.2906(4) 0.3774(3)
O22_3 O 0.5562(2) 0.3505(4) 0.4325(3)
O23_3 O 0.6091(2) 0.5071(4) 0.3468(3)
O24_3 O 0.5906(2) 0.5462(4) 0.4994(3)
O25_3 O 0.7650(2) 0.3591(4) 0.5219(3)
O26_3 O 0.5187(4) 0.5338(7) 0.1105(5)
Nd2 Nd 0.65900(2) 0.41485(3) 0.47464(2)
O27_2 O 0.7244(2) 0.5190(4) 0.4203(3)
O28_2 O 0.2756(2) 0.5190(4) 0.0797(3)
O29_2 O 0.7152(2) 0.5342(4) 0.5688(3)
O32 O 0.6330(2) 0.3789(4) 0.5986(3)
O34 O 0.6656(3) 0.2499(4) 0.5482(3)
H13_3 H 0.459136 0.362253 0.123748
H14_3 H 0.468949 0.385181 0.0385938
H15_3 H 0.415567 0.596193 0.0425077
H17_3 H 0.540864 0.362253 0.376252
H18_3 H 0.531051 0.385181 0.461406
H23_3 H 0.584433 0.596193 0.457492
H24_3 H 0.607865 0.578488 0.549773
H27_3 H 0.766111 0.287287 0.533264
H28_3 H 0.783931 0.395912 0.56958
O12_3 O 0.2350(2) 0.3591(4) 0.9781(3)
C25_3 C 0.7459(3) 0.0836(5) 0.9507(4)
C26_3 C 0.6928(3) 0.1666(6) 0.8304(4)
C27_3 C 0.6517(3) 0.2463(5) 0.8127(4)
C28_3 C 0.6369(3) 0.2811(6) 0.7379(4)
H10_3 H 0.610042 0.332359 0.724870
C29_3 C 0.6619(3) 0.2403(6) 0.6814(4)
C30_3 C 0.6998(3) 0.1604(6) 0.6983(4)
H11_3 H 0.714694 0.131884 0.659655
C31_3 C 0.7154(3) 0.1232(6) 0.7731(4)
H12_3 H 0.740679 0.069609 0.784826
C32_3 C 0.6522(3) 0.2905(6) 0.6056(4)
N4_3 N 0.7052(3) 0.1407(5) 0.9088(3)
O15_3 O 0.6286(2) 0.2841(4) 0.8693(3)
O17_2 O 0.7848(2) 0.0342(4) 0.9312(3)
Cu2_3 Cu 0.66024(4) 0.21574(9) 0.96554(5)
O30_2 O 0.2848(2) 0.5342(4) 0.9312(3)
H16_3 H 0.392135 0.578488 0.950227
H21_3 H 0.233889 0.287287 0.966736
H22_3 H 0.216069 0.395912 0.93042
Nd5_2 Nd 0.84100(2) 0.91485(3) 0.02536(2)
Nd6_2 Nd 0.15900(2) 0.91485(3) 0.47464(2)
O23_4 O 0.1091(2) 0.0071(4) 0.3468(3)
O24_4 O 0.0906(2) 0.0462(4) 0.4994(3)
O26_4 O 0.0187(4) 0.0338(7) 0.1105(5)
H20_3 H 0.0100788 0.0879314 0.406001
H23_4 H 0.0844327 0.0961926 0.457492
H24_4 H 0.107865 0.0784877 0.549773
H26_3 H 0.0463389 0.0899582 0.124753
K1_5 K -0.000000 0.9425(5) 0.250000
C17_4 C 0.1303(4) 0.7742(6) 0.3133(4)
C18_4 C 0.1513(4) 0.7326(6) 0.2470(4)
C19_4 C 0.1219(3) 0.7614(6) 0.1729(4)
H7_4 H 0.088630 0.800670 0.165746
C20_4 C 0.1424(3) 0.7315(6) 0.1092(4)
C21_4 C 0.1900(3) 0.6646(5) 0.1215(4)
C22_4 C 0.2168(3) 0.6309(6) 0.1954(4)
H8_4 H 0.246799 0.584557 0.202460
C23_4 C 0.1986(3) 0.6667(6) 0.2578(4)
H9_4 H 0.217701 0.647113 0.307537
C24_4 C 0.2428(3) 0.5796(5) 0.0360(4)
N3_4 N 0.2046(3) 0.6418(5) 0.0515(3)
O14_4 O 0.1170(2) 0.7654(4) 0.0368(3)
O18_4 O 0.0761(2) 0.7924(4) 0.3019(3)
O19_4 O 0.1669(2) 0.7906(4) 0.3774(3)
O22_4 O 0.0562(2) 0.8505(4) 0.4325(3)
O25_4 O 0.2650(2) 0.8591(4) 0.5219(3)
O32_2 O 0.1330(2) 0.8789(4) 0.5986(3)
O34_2 O 0.1656(3) 0.7499(4) 0.5482(3)
H17_4 H 0.0408645 0.862253 0.376252
H18_4 H 0.0310515 0.885181 0.461406
H25_3 H 0.0354015 0.984413 0.0807414
H27_4 H 0.266111 0.787287 0.533264
H28_4 H 0.283931 0.895912 0.56958
C25_4 C 0.2459(3) 0.5836(5) 0.9507(4)
C26_4 C 0.1928(3) 0.6666(6) 0.8304(4)
C27_4 C 0.1517(3) 0.7463(5) 0.8127(4)
C28_4 C 0.1369(3) 0.7811(6) 0.7379(4)
H10_4 H 0.110042 0.832359 0.724870
C29_4 C 0.1619(3) 0.7403(6) 0.6814(4)
C30_4 C 0.1998(3) 0.6604(6) 0.6983(4)
H11_4 H 0.214694 0.631884 0.659655
C31_4 C 0.2154(3) 0.6232(6) 0.7731(4)
H12_4 H 0.240679 0.569609 0.784826
C32_4 C 0.1522(3) 0.7905(6) 0.6056(4)
N4_4 N 0.2052(3) 0.6407(5) 0.9088(3)
O15_4 O 0.1286(2) 0.7841(4) 0.8693(3)
Cu2_4 Cu 0.16024(4) 0.71574(9) 0.96554(5)
O10_4 O 0.8909(2) 0.0071(4) 0.1532(3)
O11_4 O 0.9094(2) 0.0462(4) 0.0006(3)
O13_4 O 0.9813(4) 0.0338(7) 0.3895(5)
H15_4 H 0.915567 0.0961926 0.0425077
H19_3 H 0.940949 0.0610234 0.378953
H16_4 H 0.892135 0.0784877 0.950227
C1_4 C 0.8697(4) 0.7742(6) 0.1867(4)
C2_4 C 0.8487(4) 0.7326(6) 0.2530(4)
C3_4 C 0.8781(3) 0.7614(6) 0.3271(4)
H1_4 H 0.911370 0.800670 0.334254
C4_4 C 0.8576(3) 0.7315(6) 0.3908(4)
C5_4 C 0.8100(3) 0.6646(5) 0.3785(4)
C6_4 C 0.7832(3) 0.6309(6) 0.3046(4)
H2_4 H 0.753201 0.584557 0.297540
C7_4 C 0.8014(3) 0.6667(6) 0.2422(4)
H3_4 H 0.782299 0.647113 0.192463
C8_4 C 0.7572(3) 0.5796(5) 0.4640(4)
C9_4 C 0.7541(3) 0.5836(5) 0.5493(4)
C10_4 C 0.8072(3) 0.6666(6) 0.6696(4)
C11_4 C 0.8483(3) 0.7463(5) 0.6873(4)
C12_4 C 0.8631(3) 0.7811(6) 0.7621(4)
H4_4 H 0.889958 0.832359 0.775130
C13_4 C 0.8381(3) 0.7403(6) 0.8186(4)
C14_4 C 0.8002(3) 0.6604(6) 0.8017(4)
H5_4 H 0.785306 0.631884 0.840345
C15_4 C 0.7846(3) 0.6232(6) 0.7269(4)
H6_4 H 0.759321 0.569609 0.715174
C16_4 C 0.8478(3) 0.7905(6) 0.8944(4)
N1_4 N 0.7954(3) 0.6418(5) 0.4485(3)
N2_4 N 0.7948(3) 0.6407(5) 0.5912(3)
O1_4 O 0.8830(2) 0.7654(4) 0.4632(3)
O2_4 O 0.8714(2) 0.7841(4) 0.6307(3)
O5_4 O 0.9239(2) 0.7924(4) 0.1981(3)
O6_4 O 0.8331(2) 0.7906(4) 0.1226(3)
O7_2 O 0.8670(2) 0.8789(4) 0.9014(3)
O8_2 O 0.8344(3) 0.7499(4) 0.9518(3)
O9_4 O 0.9438(2) 0.8505(4) 0.0675(3)
K1_6 K 1.000000 0.9425(5) 0.250000
Cu1_4 Cu 0.83976(4) 0.71574(9) 0.53446(5)
H13_4 H 0.959136 0.862253 0.123748
H14_4 H 0.968949 0.885181 0.0385938
O12_4 O 0.7350(2) 0.8591(4) 0.9781(3)
H21_4 H 0.733889 0.787287 0.966736
H22_4 H 0.716069 0.895912 0.93042
H19_4 H 0.0590513 0.0610234 0.121047
H20_4 H 0.989921 0.0879314 0.0939992
H26_4 H 0.953661 0.0899582 0.375247
H25_4 H 0.964599 0.984413 0.419259
loop_
_geom_bond_atom_site_label_1
_geom_bond_atom_site_label_2
_geom_bond_site_symmetry_1
_geom_bond_site_symmetry_2
C25 N4 1_555 1_555
C26 C27 1_555 1_555
C27 C28 1_555 1_555
C28 H10 1_555 1_555
C29 C28 1_555 1_555
C30 C29 1_555 1_555
H11 C30 1_555 1_555
C31 C26 1_555 1_555
H12 C31 1_555 1_555
C32 C29 1_555 1_555
N4 C26 1_555 1_555
O15 C27 1_555 1_555
O17 C25 1_555 1_555
O20 C32 1_555 1_555
O21 C32 1_555 1_555
Nd4 O20 1_555 1_555
C30 C31 1_555 1_555
N4 Cu2 1_555 1_555
O15 Cu2 1_555 1_555
O21 Nd4 1_555 1_555
O12 H21 1_555 1_555
O12 H22 1_555 1_555
C1 C2 1_555 1_555
C2 C3 1_555 1_555
C3 H1 1_555 1_555
C4 C3 1_555 1_555
C5 C4 1_555 1_555
C6 C5 1_555 1_555
H2 C6 1_555 1_555
C7 C2 1_555 1_555
H3 C7 1_555 1_555
C8 C9 1_555 1_555
C9 N2 1_555 1_555
C10 C11 1_555 1_555
C11 C12 1_555 1_555
C12 H4 1_555 1_555
C13 C12 1_555 1_555
C14 C13 1_555 1_555
H5 C14 1_555 1_555
C15 C10 1_555 1_555
H6 C15 1_555 1_555
C16 C13 1_555 1_555
N1 C5 1_555 1_555
N2 C10 1_555 1_555
O1 C4 1_555 1_555
O2 C11 1_555 1_555
O3 C8 1_555 1_555
O4 C9 1_555 1_555
O5 C1 1_555 1_555
O6 C1 1_555 1_555
O31 C16 1_555 1_555
O33 C16 1_555 1_555
O9 Nd1 1_555 1_555
O10 K1 1_555 1_555
O11 Nd1 1_555 1_555
O13 K1 1_555 1_555
K1 O5 1_555 1_555
Cu1 N1 1_555 1_555
Nd1 O6 1_555 1_555
C17 C18 1_555 1_555
C18 C19 1_555 1_555
C19 H7 1_555 1_555
C20 C19 1_555 1_555
C21 C20 1_555 1_555
C22 C21 1_555 1_555
H8 C22 1_555 1_555
C23 C18 1_555 1_555
H9 C23 1_555 1_555
N3 C21 1_555 1_555
O14 C20 1_555 1_555
O16 C24 1_555 1_555
O18 K1 1_555 1_555
O19 C17 1_555 1_555
O22 Nd4 1_555 1_555
O23 K1 1_555 1_555
O24 Nd4 1_555 1_555
O25 Nd4 1_555 1_555
O26 K1 1_555 1_555
Nd4 O19 1_555 1_555
O27 Nd4 1_555 1_555
O28 Nd1 1_555 1_555
O29 Nd4 1_555 1_555
C6 C7 1_555 1_555
C8 N1 1_555 1_555
C14 C15 1_555 1_555
N2 Cu1 1_555 1_555
O1 Cu1 1_555 1_555
O2 Cu1 1_555 1_555
O10 Nd1 1_555 1_555
C17 O18 1_555 1_555
C22 C23 1_555 1_555
C24 N3 1_555 1_555
O23 Nd4 1_555 1_555
O9 H13 1_555 1_555
O9 H14 1_555 1_555
O11 H15 1_555 1_555
O22 H17 1_555 1_555
O22 H18 1_555 1_555
O24 H23 1_555 1_555
O24 H24 1_555 1_555
O25 H27 1_555 1_555
O25 H28 1_555 1_555
O12_2 H21_2 1_555 1_555
O12_2 H22_2 1_555 1_555
C1_2 C2_2 1_555 1_555
C2_2 C3_2 1_555 1_555
C3_2 H1_2 1_555 1_555
C4_2 C3_2 1_555 1_555
C5_2 C4_2 1_555 1_555
C6_2 C5_2 1_555 1_555
H2_2 C6_2 1_555 1_555
C7_2 C2_2 1_555 1_555
H3_2 C7_2 1_555 1_555
C8_2 C9_2 1_555 1_555
C9_2 N2_2 1_555 1_555
C10_2 C11_2 1_555 1_555
C11_2 C12_2 1_555 1_555
C12_2 H4_2 1_555 1_555
C13_2 C12_2 1_555 1_555
C14_2 C13_2 1_555 1_555
H5_2 C14_2 1_555 1_555
C15_2 C10_2 1_555 1_555
H6_2 C15_2 1_555 1_555
C16_2 C13_2 1_555 1_555
N1_2 C5_2 1_555 1_555
N2_2 C10_2 1_555 1_555
O1_2 C4_2 1_555 1_555
O2_2 C11_2 1_555 1_555
O27 C8_2 1_555 1_555
O29 C9_2 1_555 1_555
O5_2 C1_2 1_555 1_555
O6_2 C1_2 1_555 1_555
O31_2 C16_2 1_555 1_555
O33_2 C16_2 1_555 1_555
O9_2 Nd5 1_555 1_555
K1_2 O5_2 1_555 1_555
Cu1_2 N1_2 1_555 1_555
Nd5 O6_2 1_555 1_555
C6_2 C7_2 1_555 1_555
C8_2 N1_2 1_555 1_555
C14_2 C15_2 1_555 1_555
N2_2 Cu1_2 1_555 1_555
O1_2 Cu1_2 1_555 1_555
O2_2 Cu1_2 1_555 1_555
O9_2 H13_2 1_555 1_555
O9_2 H14_2 1_555 1_555
O11_2 H15_2 1_555 1_555
O13_2 H19 1_555 1_555
C25_2 N4_2 1_555 1_555
C26_2 C27_2 1_555 1_555
C27_2 C28_2 1_555 1_555
C28_2 H10_2 1_555 1_555
C29_2 C28_2 1_555 1_555
C30_2 C29_2 1_555 1_555
H11_2 C30_2 1_555 1_555
C31_2 C26_2 1_555 1_555
H12_2 C31_2 1_555 1_555
C32_2 C29_2 1_555 1_555
N4_2 C26_2 1_555 1_555
O15_2 C27_2 1_555 1_555
O30 C25_2 1_555 1_555
O20_2 C32_2 1_555 1_555
O21_2 C32_2 1_555 1_555
Nd6 O20_2 1_555 1_555
C30_2 C31_2 1_555 1_555
N4_2 Cu2_2 1_555 1_555
O15_2 Cu2_2 1_555 1_555
O21_2 Nd6 1_555 1_555
C17_2 C18_2 1_555 1_555
C18_2 C19_2 1_555 1_555
C19_2 H7_2 1_555 1_555
C20_2 C19_2 1_555 1_555
C21_2 C20_2 1_555 1_555
C22_2 C21_2 1_555 1_555
H8_2 C22_2 1_555 1_555
C23_2 C18_2 1_555 1_555
H9_2 C23_2 1_555 1_555
N3_2 C21_2 1_555 1_555
O14_2 C20_2 1_555 1_555
O28 C24_2 1_555 1_555
O18_2 K1_3 1_555 1_555
O19_2 C17_2 1_555 1_555
O22_2 Nd6 1_555 1_555
O25_2 Nd6 1_555 1_555
Nd6 O19_2 1_555 1_555
C17_2 O18_2 1_555 1_555
C22_2 C23_2 1_555 1_555
C24_2 N3_2 1_555 1_555
O22_2 H17_2 1_555 1_555
O22_2 H18_2 1_555 1_555
O25_2 H27_2 1_555 1_555
O25_2 H28_2 1_555 1_555
O24_2 H23_2 1_555 1_555
O24_2 H24_2 1_555 1_555
O26_2 H26 1_555 1_555
O13_2 H26_2 1_555 1_555
O26_2 H19_2 1_555 1_555
C1_3 C2_3 1_555 1_555
C2_3 C3_3 1_555 1_555
C3_3 H1_3 1_555 1_555
C4_3 C3_3 1_555 1_555
C5_3 C4_3 1_555 1_555
C6_3 C5_3 1_555 1_555
H2_3 C6_3 1_555 1_555
C7_3 C2_3 1_555 1_555
H3_3 C7_3 1_555 1_555
C8_3 C9_3 1_555 1_555
C9_3 N2_3 1_555 1_555
C10_3 C11_3 1_555 1_555
C11_3 C12_3 1_555 1_555
C12_3 H4_3 1_555 1_555
C13_3 C12_3 1_555 1_555
C14_3 C13_3 1_555 1_555
H5_3 C14_3 1_555 1_555
C15_3 C10_3 1_555 1_555
H6_3 C15_3 1_555 1_555
C16_3 C13_3 1_555 1_555
N1_3 C5_3 1_555 1_555
N2_3 C10_3 1_555 1_555
O1_3 C4_3 1_555 1_555
O2_3 C11_3 1_555 1_555
O3_2 C8_3 1_555 1_555
O4_2 C9_3 1_555 1_555
O5_3 C1_3 1_555 1_555
O6_3 C1_3 1_555 1_555
O7 C16_3 1_555 1_555
O8 C16_3 1_555 1_555
O9_3 Nd3 1_555 1_555
O10_3 K1_4 1_555 1_555
O11_3 Nd3 1_555 1_555
O13_3 K1_4 1_555 1_555
K1_4 O5_3 1_555 1_555
Cu1_3 N1_3 1_555 1_555
Nd3 O6_3 1_555 1_555
C17_3 C18_3 1_555 1_555
C18_3 C19_3 1_555 1_555
C19_3 H7_3 1_555 1_555
C20_3 C19_3 1_555 1_555
C21_3 C20_3 1_555 1_555
C22_3 C21_3 1_555 1_555
H8_3 C22_3 1_555 1_555
C23_3 C18_3 1_555 1_555
H9_3 C23_3 1_555 1_555
N3_3 C21_3 1_555 1_555
O14_3 C20_3 1_555 1_555
O16_2 C24_3 1_555 1_555
O18_3 K1_4 1_555 1_555
O19_3 C17_3 1_555 1_555
O22_3 Nd2 1_555 1_555
O23_3 K1_4 1_555 1_555
O24_3 Nd2 1_555 1_555
O25_3 Nd2 1_555 1_555
O26_3 K1_4 1_555 1_555
Nd2 O19_3 1_555 1_555
O27_2 Nd2 1_555 1_555
O28_2 Nd3 1_555 1_555
O29_2 Nd2 1_555 1_555
O32 Nd2 1_555 1_555
O34 Nd2 1_555 1_555
C6_3 C7_3 1_555 1_555
C8_3 N1_3 1_555 1_555
C14_3 C15_3 1_555 1_555
N2_3 Cu1_3 1_555 1_555
O1_3 Cu1_3 1_555 1_555
O2_3 Cu1_3 1_555 1_555
O10_3 Nd3 1_555 1_555
C17_3 O18_3 1_555 1_555
C22_3 C23_3 1_555 1_555
C24_3 N3_3 1_555 1_555
O23_3 Nd2 1_555 1_555
O9_3 H13_3 1_555 1_555
O9_3 H14_3 1_555 1_555
O11_3 H15_3 1_555 1_555
O22_3 H17_3 1_555 1_555
O22_3 H18_3 1_555 1_555
O24_3 H23_3 1_555 1_555
O24_3 H24_3 1_555 1_555
O25_3 H27_3 1_555 1_555
O25_3 H28_3 1_555 1_555
C25_3 N4_3 1_555 1_555
C26_3 C27_3 1_555 1_555
C27_3 C28_3 1_555 1_555
C28_3 H10_3 1_555 1_555
C29_3 C28_3 1_555 1_555
C30_3 C29_3 1_555 1_555
H11_3 C30_3 1_555 1_555
C31_3 C26_3 1_555 1_555
H12_3 C31_3 1_555 1_555
C32_3 C29_3 1_555 1_555
N4_3 C26_3 1_555 1_555
O15_3 C27_3 1_555 1_555
O17_2 C25_3 1_555 1_555
O32 C32_3 1_555 1_555
O34 C32_3 1_555 1_555
C30_3 C31_3 1_555 1_555
N4_3 Cu2_3 1_555 1_555
O15_3 Cu2_3 1_555 1_555
O12_3 H21_3 1_555 1_555
O12_3 H22_3 1_555 1_555
O24_4 H23_4 1_555 1_555
O24_4 H24_4 1_555 1_555
O26_4 H26_3 1_555 1_555
C17_4 C18_4 1_555 1_555
C18_4 C19_4 1_555 1_555
C19_4 H7_4 1_555 1_555
C20_4 C19_4 1_555 1_555
C21_4 C20_4 1_555 1_555
C22_4 C21_4 1_555 1_555
H8_4 C22_4 1_555 1_555
C23_4 C18_4 1_555 1_555
H9_4 C23_4 1_555 1_555
N3_4 C21_4 1_555 1_555
O14_4 C20_4 1_555 1_555
O28_2 C24_4 1_555 1_555
O18_4 K1_5 1_555 1_555
O19_4 C17_4 1_555 1_555
O22_4 Nd6_2 1_555 1_555
O25_4 Nd6_2 1_555 1_555
Nd6_2 O19_4 1_555 1_555
O32_2 Nd6_2 1_555 1_555
O34_2 Nd6_2 1_555 1_555
C17_4 O18_4 1_555 1_555
C22_4 C23_4 1_555 1_555
C24_4 N3_4 1_555 1_555
O22_4 H17_4 1_555 1_555
O22_4 H18_4 1_555 1_555
O25_4 H27_4 1_555 1_555
O25_4 H28_4 1_555 1_555
C25_4 N4_4 1_555 1_555
C26_4 C27_4 1_555 1_555
C27_4 C28_4 1_555 1_555
C28_4 H10_4 1_555 1_555
C29_4 C28_4 1_555 1_555
C30_4 C29_4 1_555 1_555
H11_4 C30_4 1_555 1_555
C31_4 C26_4 1_555 1_555
H12_4 C31_4 1_555 1_555
C32_4 C29_4 1_555 1_555
N4_4 C26_4 1_555 1_555
O15_4 C27_4 1_555 1_555
O30_2 C25_4 1_555 1_555
O32_2 C32_4 1_555 1_555
O34_2 C32_4 1_555 1_555
C30_4 C31_4 1_555 1_555
N4_4 Cu2_4 1_555 1_555
O15_4 Cu2_4 1_555 1_555
O11_4 H15_4 1_555 1_555
O13_4 H19_3 1_555 1_555
C1_4 C2_4 1_555 1_555
C2_4 C3_4 1_555 1_555
C3_4 H1_4 1_555 1_555
C4_4 C3_4 1_555 1_555
C5_4 C4_4 1_555 1_555
C6_4 C5_4 1_555 1_555
H2_4 C6_4 1_555 1_555
C7_4 C2_4 1_555 1_555
H3_4 C7_4 1_555 1_555
C8_4 C9_4 1_555 1_555
C9_4 N2_4 1_555 1_555
C10_4 C11_4 1_555 1_555
C11_4 C12_4 1_555 1_555
C12_4 H4_4 1_555 1_555
C13_4 C12_4 1_555 1_555
C14_4 C13_4 1_555 1_555
H5_4 C14_4 1_555 1_555
C15_4 C10_4 1_555 1_555
H6_4 C15_4 1_555 1_555
C16_4 C13_4 1_555 1_555
N1_4 C5_4 1_555 1_555
N2_4 C10_4 1_555 1_555
O1_4 C4_4 1_555 1_555
O2_4 C11_4 1_555 1_555
O27_2 C8_4 1_555 1_555
O29_2 C9_4 1_555 1_555
O5_4 C1_4 1_555 1_555
O6_4 C1_4 1_555 1_555
O7_2 C16_4 1_555 1_555
O8_2 C16_4 1_555 1_555
O9_4 Nd5_2 1_555 1_555
K1_6 O5_4 1_555 1_555
Cu1_4 N1_4 1_555 1_555
Nd5_2 O6_4 1_555 1_555
C6_4 C7_4 1_555 1_555
C8_4 N1_4 1_555 1_555
C14_4 C15_4 1_555 1_555
N2_4 Cu1_4 1_555 1_555
O1_4 Cu1_4 1_555 1_555
O2_4 Cu1_4 1_555 1_555
O9_4 H13_4 1_555 1_555
O9_4 H14_4 1_555 1_555
O12_4 H21_4 1_555 1_555
O12_4 H22_4 1_555 1_555
O26_4 H19_4 1_555 1_555
O13_4 H26_4 1_555 1_555

#END
