
###############################################################################
#
# This file contains modified crystal structure data generated from the
# MOF subset of the Cambridge Structural Database (CSD) v543 
# hosted by the Cambridge Crystallographic Data Centre (CCDC).
#
# This work is licensed under the Creative Commons
# Attribution-NonCommercial-ShareAlike 4.0 International License.
# To view a copy of this license, visit
# http://creativecommons.org/licenses/by-nc-sa/4.0/
# or send a letter to
# Creative Commons, PO Box 1866, Mountain View, CA 94042, USA.
#
# CIF created using the CSD Python API on 29 September 2022
# The structure has been converted into the P1 space group
# The structure has a 3D framework
# The original CSD entry YAPPEO is in the monoclinic crystal system
# The framework has been calculated to contain at least 10.0% void space
# The void calculation uses a probe of radius 1.32A, grid spacing 0.4
# The framework is charged, counterions have been retained in the structure
# H atom positions have been added when not included in the experimental data
# Generated hydrogen atom positions removed from atoms on special positions
#
###############################################################################

data_YAPPEO
_chemical_formula_moiety         '(C128 H128 Ce8 Cu8 K6 N16 O104 4-)n'
_symmetry_cell_setting           triclinic
_symmetry_space_group_name_H-M   'P 1'
_symmetry_Int_Tables_number      1
_space_group_name_Hall           'P 1'
loop_
_symmetry_equiv_pos_site_id
_symmetry_equiv_pos_as_xyz
1 x,y,z
_cell_length_a                   23.6122(12)
_cell_length_b                   13.6609(6)
_cell_length_c                   17.8883(8)
_cell_angle_alpha                90
_cell_angle_beta                 104.2450(10)
_cell_angle_gamma                90
_cell_volume                     5592.7
loop_
_atom_site_label
_atom_site_type_symbol
_atom_site_fract_x
_atom_site_fract_y
_atom_site_fract_z
Ce3 Ce 0.34060(2) 0.41493(2) 0.02585(2)
C1 C 0.3477(3) 0.2903(5) 0.8943(3)
C2 C 0.3384(3) 0.2402(5) 0.8185(3)
C3 C 0.3004(3) 0.1603(5) 0.8008(3)
H1 H 0.284947 0.130979 0.839760
C4 C 0.3629(3) 0.2813(5) 0.7619(3)
H2 H 0.389522 0.334337 0.774717
C5 C 0.2853(3) 0.1243(5) 0.7263(4)
H3 H 0.259789 0.069774 0.714246
C6 C 0.3484(3) 0.2454(5) 0.6875(3)
C7 C 0.3072(3) 0.1672(5) 0.6693(3)
C8 C 0.2554(3) 0.0846(4) 0.5498(3)
C9 C 0.2584(3) 0.0807(5) 0.4645(3)
C10 C 0.3106(3) 0.1656(5) 0.3797(3)
C11 C 0.3578(3) 0.2332(5) 0.3911(3)
C12 C 0.3775(3) 0.2626(5) 0.3283(3)
H4 H 0.410870 0.303668 0.335759
C13 C 0.2833(3) 0.1323(5) 0.3058(3)
H5 H 0.252469 0.085955 0.298405
C14 C 0.3020(3) 0.1680(5) 0.2433(3)
H6 H 0.282493 0.148125 0.192595
C15 C 0.3490(3) 0.2329(5) 0.2539(3)
C16 C 0.3698(3) 0.2739(5) 0.1880(3)
Cu1 Cu 0.33976(3) 0.21591(6) 0.53498(4)
K1 K 0.500000 0.4441(3) 0.250000
N1 N 0.2958(2) 0.1418(4) 0.5914(3)
N2 N 0.2956(2) 0.1441(4) 0.4486(3)
O1 O 0.3344(2) 0.2496(4) 0.9506(2)
O2 O 0.3673(2) 0.3772(3) 0.9007(2)
O3 O 0.37135(19) 0.2839(3) 0.6310(2)
O4 O 0.21600(18) 0.0356(3) 0.5690(2)
O5 O 0.22560(19) 0.0208(3) 0.4209(2)
O6 O 0.38231(19) 0.2661(3) 0.4635(2)
O7 O 0.4233(2) 0.2949(4) 0.2001(3)
O8 O 0.3327(2) 0.2886(3) 0.1238(2)
O10 O 0.44479(19) 0.3497(3) 0.0687(2)
O11 O 0.4094(2) 0.5465(4) 0.0008(3)
O12 O 0.39045(19) 0.5093(3) 0.1550(2)
O13 O 0.5178(3) 0.5369(8) 0.1106(4)
C25 C 0.7416(3) 0.0807(5) 0.0355(3)
C26 C 0.6894(3) 0.1656(5) 0.1203(3)
C27 C 0.6422(3) 0.2332(5) 0.1089(3)
C28 C 0.6225(3) 0.2626(5) 0.1717(3)
H10 H 0.589130 0.303668 0.164241
C29 C 0.7167(3) 0.1323(5) 0.1942(3)
H11 H 0.747531 0.085955 0.201595
C30 C 0.6980(3) 0.1680(5) 0.2567(3)
H12 H 0.717507 0.148125 0.307405
C31 C 0.6510(3) 0.2329(5) 0.2461(3)
C32 C 0.6302(3) 0.2739(5) 0.3120(3)
Ce2 Ce 0.65940(2) 0.41493(2) 0.47415(2)
N4 N 0.7044(2) 0.1441(4) 0.0514(3)
O18 O 0.77440(19) 0.0208(3) 0.0791(2)
O19 O 0.61769(19) 0.2661(3) 0.0365(2)
O20 O 0.5767(2) 0.2949(4) 0.2999(3)
O21 O 0.6673(2) 0.2886(3) 0.3762(2)
O22 O 0.76645(19) 0.3577(4) 0.5221(3)
O23 O 0.55521(19) 0.3497(3) 0.4313(2)
O24 O 0.5906(2) 0.5465(4) 0.4992(3)
O25 O 0.60955(19) 0.5093(3) 0.3450(2)
O26 O 0.4822(3) 0.5369(8) 0.3894(4)
O28 O 0.6656(2) 0.2496(4) 0.5494(2)
O30 O 0.6327(2) 0.3772(3) 0.5993(2)
O31 O 0.71600(18) 0.5356(3) 0.5690(2)
O33 O 0.72560(19) 0.5208(3) 0.4209(2)
O34 O 0.27440(19) 0.5208(3) 0.0791(2)
H13 H 0.212342 0.370259 0.0184807
H15 H 0.444957 0.278471 0.0576837
H16 H 0.469932 0.384369 0.0401803
H21 H 0.787658 0.370259 0.481519
H22 H 0.785562 0.394296 0.56957
H23 H 0.555043 0.278471 0.442316
H24 H 0.530068 0.384369 0.45982
H27 H 0.552724 0.516315 0.501107
H28 H 0.608102 0.578988 0.549208
O9 O 0.23355(19) 0.3577(4) 0.9779(3)
C17 C 0.6523(3) 0.2903(5) 0.6057(3)
C18 C 0.6616(3) 0.2402(5) 0.6815(3)
C19 C 0.6996(3) 0.1603(5) 0.6992(3)
H7 H 0.715053 0.130979 0.660240
C20 C 0.6371(3) 0.2813(5) 0.7381(3)
H8 H 0.610478 0.334337 0.725283
C21 C 0.7147(3) 0.1243(5) 0.7737(4)
H9 H 0.740211 0.069774 0.785754
C22 C 0.6516(3) 0.2454(5) 0.8125(3)
C23 C 0.6928(3) 0.1672(5) 0.8307(3)
C24 C 0.7446(3) 0.0846(4) 0.9502(3)
Cu2 Cu 0.66024(3) 0.21591(6) 0.96502(4)
N3 N 0.7042(2) 0.1418(4) 0.9086(3)
O16 O 0.62865(19) 0.2839(3) 0.8690(2)
O17 O 0.78400(18) 0.0356(3) 0.9310(2)
O32 O 0.28400(18) 0.5356(3) 0.9310(2)
H14 H 0.214438 0.394296 0.93043
H17 H 0.447276 0.516315 0.998893
H18 H 0.391898 0.578988 0.950792
Ce5 Ce 0.84060(2) 0.91493(2) 0.02585(2)
Ce6 Ce 0.15940(2) 0.91493(2) 0.47415(2)
O13_2 O 0.0178(3) 0.0369(8) 0.1106(4)
O24_2 O 0.0906(2) 0.0465(4) 0.4992(3)
O25_2 O 0.10955(19) 0.0093(3) 0.3450(2)
H20 H 0.0455653 0.0923028 0.12505
H26 H 0.0110103 0.0905665 0.405328
H27_2 H 0.052724 0.0163148 0.501107
H28_2 H 0.108102 0.0789878 0.549208
K1_2 K 0.000000 0.9441(3) 0.250000
C25_2 C 0.2416(3) 0.5807(5) 0.0355(3)
C26_2 C 0.1894(3) 0.6656(5) 0.1203(3)
C27_2 C 0.1422(3) 0.7332(5) 0.1089(3)
C28_2 C 0.1225(3) 0.7626(5) 0.1717(3)
H10_2 H 0.089130 0.803668 0.164241
C29_2 C 0.2167(3) 0.6323(5) 0.1942(3)
H11_2 H 0.247531 0.585955 0.201595
C30_2 C 0.1980(3) 0.6680(5) 0.2567(3)
H12_2 H 0.217507 0.648125 0.307405
C31_2 C 0.1510(3) 0.7329(5) 0.2461(3)
C32_2 C 0.1302(3) 0.7739(5) 0.3120(3)
N4_2 N 0.2044(2) 0.6441(4) 0.0514(3)
O19_2 O 0.11769(19) 0.7661(3) 0.0365(2)
O20_2 O 0.0767(2) 0.7949(4) 0.2999(3)
O21_2 O 0.1673(2) 0.7886(3) 0.3762(2)
O22_2 O 0.26645(19) 0.8577(4) 0.5221(3)
O23_2 O 0.05521(19) 0.8497(3) 0.4313(2)
O28_2 O 0.1656(2) 0.7496(4) 0.5494(2)
O30_2 O 0.1327(2) 0.8772(3) 0.5993(2)
H21_2 H 0.287658 0.870259 0.481519
H22_2 H 0.285562 0.894296 0.56957
H23_2 H 0.0550432 0.778471 0.442316
H24_2 H 0.0300681 0.884369 0.45982
C17_2 C 0.1523(3) 0.7903(5) 0.6057(3)
C18_2 C 0.1616(3) 0.7402(5) 0.6815(3)
C19_2 C 0.1996(3) 0.6603(5) 0.6992(3)
H7_2 H 0.215053 0.630979 0.660240
C20_2 C 0.1371(3) 0.7813(5) 0.7381(3)
H8_2 H 0.110478 0.834337 0.725283
C21_2 C 0.2147(3) 0.6243(5) 0.7737(4)
H9_2 H 0.240211 0.569774 0.785754
C22_2 C 0.1516(3) 0.7454(5) 0.8125(3)
C23_2 C 0.1928(3) 0.6672(5) 0.8307(3)
C24_2 C 0.2446(3) 0.5846(4) 0.9502(3)
Cu2_2 Cu 0.16024(3) 0.71591(6) 0.96502(4)
N3_2 N 0.2042(2) 0.6418(4) 0.9086(3)
O16_2 O 0.12865(19) 0.7839(3) 0.8690(2)
O11_2 O 0.9094(2) 0.0465(4) 0.0008(3)
O12_2 O 0.89045(19) 0.0093(3) 0.1550(2)
O26_2 O 0.9822(3) 0.0369(8) 0.3894(4)
H19 H 0.979864 0.0616918 0.0791125
H17_2 H 0.947276 0.0163148 0.998893
H18_2 H 0.891898 0.0789878 0.950792
C1_2 C 0.8477(3) 0.7903(5) 0.8943(3)
C2_2 C 0.8384(3) 0.7402(5) 0.8185(3)
C3_2 C 0.8004(3) 0.6603(5) 0.8008(3)
H1_2 H 0.784947 0.630979 0.839760
C4_2 C 0.8629(3) 0.7813(5) 0.7619(3)
H2_2 H 0.889522 0.834337 0.774717
C5_2 C 0.7853(3) 0.6243(5) 0.7263(4)
H3_2 H 0.759789 0.569774 0.714246
C6_2 C 0.8484(3) 0.7454(5) 0.6875(3)
C7_2 C 0.8072(3) 0.6672(5) 0.6693(3)
C8_2 C 0.7554(3) 0.5846(4) 0.5498(3)
C9_2 C 0.7584(3) 0.5807(5) 0.4645(3)
C10_2 C 0.8106(3) 0.6656(5) 0.3797(3)
C11_2 C 0.8578(3) 0.7332(5) 0.3911(3)
C12_2 C 0.8775(3) 0.7626(5) 0.3283(3)
H4_2 H 0.910870 0.803668 0.335759
C13_2 C 0.7833(3) 0.6323(5) 0.3058(3)
H5_2 H 0.752469 0.585955 0.298405
C14_2 C 0.8020(3) 0.6680(5) 0.2433(3)
H6_2 H 0.782493 0.648125 0.192595
C15_2 C 0.8490(3) 0.7329(5) 0.2539(3)
C16_2 C 0.8698(3) 0.7739(5) 0.1880(3)
Cu1_2 Cu 0.83976(3) 0.71591(6) 0.53498(4)
K1_3 K 1.000000 0.9441(3) 0.250000
N1_2 N 0.7958(2) 0.6418(4) 0.5914(3)
N2_2 N 0.7956(2) 0.6441(4) 0.4486(3)
O1_2 O 0.8344(2) 0.7496(4) 0.9506(2)
O2_2 O 0.8673(2) 0.8772(3) 0.9007(2)
O3_2 O 0.87135(19) 0.7839(3) 0.6310(2)
O6_2 O 0.88231(19) 0.7661(3) 0.4635(2)
O7_2 O 0.9233(2) 0.7949(4) 0.2001(3)
O8_2 O 0.8327(2) 0.7886(3) 0.1238(2)
O10_2 O 0.94479(19) 0.8497(3) 0.0687(2)
H13_2 H 0.712342 0.870259 0.0184807
H15_2 H 0.944957 0.778471 0.0576837
H16_2 H 0.969932 0.884369 0.0401803
H25 H 0.987521 0.987618 0.431362
O9_2 O 0.73355(19) 0.8577(4) 0.9779(3)
H14_2 H 0.714438 0.894296 0.93043
H19_2 H 0.0201365 0.0616918 0.420888
H25_2 H 0.0124787 0.987618 0.0686382
H20_2 H 0.954435 0.0923028 0.37495
H26_2 H 0.98899 0.0905665 0.0946722
Ce5_2 Ce 0.15940(2) 0.08507(2) 0.97415(2)
Ce6_2 Ce 0.84060(2) 0.08507(2) 0.52585(2)
O9_3 O 0.76645(19) 0.6423(4) 0.0221(3)
C17_3 C 0.3477(3) 0.7097(5) 0.3943(3)
C18_3 C 0.3384(3) 0.7598(5) 0.3185(3)
C19_3 C 0.3004(3) 0.8397(5) 0.3008(3)
H7_3 H 0.284947 0.869021 0.339760
C20_3 C 0.3629(3) 0.7187(5) 0.2619(3)
H8_3 H 0.389522 0.665663 0.274717
C21_3 C 0.2853(3) 0.8757(5) 0.2263(4)
H9_3 H 0.259789 0.930226 0.214246
C22_3 C 0.3484(3) 0.7546(5) 0.1875(3)
C23_3 C 0.3072(3) 0.8328(5) 0.1693(3)
C24_3 C 0.2554(3) 0.9154(4) 0.0498(3)
Cu2_3 Cu 0.33976(3) 0.78409(6) 0.03498(4)
N3_3 N 0.2958(2) 0.8582(4) 0.0914(3)
O14 O 0.3344(2) 0.7504(4) 0.4506(2)
O15 O 0.3673(2) 0.6228(3) 0.4007(2)
O16_3 O 0.37135(19) 0.7161(3) 0.1310(2)
O17_2 O 0.21600(18) 0.9644(3) 0.0690(2)
Ce4 Ce 0.34060(2) 0.58507(2) 0.52585(2)
O27 O 0.6656(2) 0.7504(4) 0.0494(2)
O29 O 0.6327(2) 0.6228(3) 0.0993(2)
O32_2 O 0.71600(18) 0.4644(3) 0.0690(2)
H14_3 H 0.785562 0.605704 0.0695695
H17_3 H 0.552724 0.483685 0.00110686
H18_3 H 0.608102 0.421012 0.0492081
C1_3 C 0.6523(3) 0.7097(5) 0.1057(3)
C2_3 C 0.6616(3) 0.7598(5) 0.1815(3)
C3_3 C 0.6996(3) 0.8397(5) 0.1992(3)
H1_3 H 0.715053 0.869021 0.160240
C4_3 C 0.6371(3) 0.7187(5) 0.2381(3)
H2_3 H 0.610478 0.665663 0.225283
C5_3 C 0.7147(3) 0.8757(5) 0.2737(4)
H3_3 H 0.740211 0.930226 0.285754
C6_3 C 0.6516(3) 0.7546(5) 0.3125(3)
C7_3 C 0.6928(3) 0.8328(5) 0.3307(3)
C8_3 C 0.7446(3) 0.9154(4) 0.4502(3)
C9_3 C 0.7416(3) 0.9193(5) 0.5355(3)
C10_3 C 0.6894(3) 0.8344(5) 0.6203(3)
C11_3 C 0.6422(3) 0.7668(5) 0.6089(3)
C12_3 C 0.6225(3) 0.7374(5) 0.6717(3)
H4_3 H 0.589130 0.696332 0.664241
C13_3 C 0.7167(3) 0.8677(5) 0.6942(3)
H5_3 H 0.747531 0.914045 0.701595
C14_3 C 0.6980(3) 0.8320(5) 0.7567(3)
H6_3 H 0.717507 0.851875 0.807405
C15_3 C 0.6510(3) 0.7671(5) 0.7461(3)
C16_3 C 0.6302(3) 0.7261(5) 0.8120(3)
Ce1 Ce 0.65940(2) 0.58507(2) 0.97415(2)
Cu1_3 Cu 0.66024(3) 0.78409(6) 0.46502(4)
K1_4 K 0.500000 0.5559(3) 0.750000
N1_3 N 0.7042(2) 0.8582(4) 0.4086(3)
N2_3 N 0.7044(2) 0.8559(4) 0.5514(3)
O3_3 O 0.62865(19) 0.7161(3) 0.3690(2)
O4_2 O 0.78400(18) 0.9644(3) 0.4310(2)
O5_2 O 0.77440(19) 0.9792(3) 0.5791(2)
O6_3 O 0.61769(19) 0.7339(3) 0.5365(2)
O7_3 O 0.5767(2) 0.7051(4) 0.7999(3)
O8_3 O 0.6673(2) 0.7114(3) 0.8762(2)
O10_3 O 0.55521(19) 0.6503(3) 0.9313(2)
O11_3 O 0.5906(2) 0.4535(4) 0.9992(3)
O12_3 O 0.60955(19) 0.4907(3) 0.8450(2)
O13_3 O 0.4822(3) 0.4631(8) 0.8894(4)
C25_3 C 0.2584(3) 0.9193(5) 0.9645(3)
C26_3 C 0.3106(3) 0.8344(5) 0.8797(3)
C27_3 C 0.3578(3) 0.7668(5) 0.8911(3)
C28_3 C 0.3775(3) 0.7374(5) 0.8283(3)
H10_3 H 0.410870 0.696332 0.835759
C29_3 C 0.2833(3) 0.8677(5) 0.8058(3)
H11_3 H 0.252469 0.914045 0.798405
C30_3 C 0.3020(3) 0.8320(5) 0.7433(3)
H12_3 H 0.282493 0.851875 0.692595
C31_3 C 0.3490(3) 0.7671(5) 0.7539(3)
C32_3 C 0.3698(3) 0.7261(5) 0.6880(3)
N4_3 N 0.2956(2) 0.8559(4) 0.9486(3)
O18_2 O 0.22560(19) 0.9792(3) 0.9209(2)
O19_3 O 0.38231(19) 0.7339(3) 0.9635(2)
O20_3 O 0.4233(2) 0.7051(4) 0.7001(3)
O21_3 O 0.3327(2) 0.7114(3) 0.6238(2)
O22_3 O 0.23355(19) 0.6423(4) 0.4779(3)
O23_3 O 0.44479(19) 0.6503(3) 0.5687(2)
O24_3 O 0.4094(2) 0.4535(4) 0.5008(3)
O25_3 O 0.39045(19) 0.4907(3) 0.6550(2)
O26_3 O 0.5178(3) 0.4631(8) 0.6106(4)
O31_2 O 0.28400(18) 0.4644(3) 0.4310(2)
O33_2 O 0.27440(19) 0.4792(3) 0.5791(2)
O34_2 O 0.72560(19) 0.4792(3) 0.9209(2)
H13_3 H 0.787658 0.629741 0.981519
H15_3 H 0.555043 0.721529 0.942316
H16_3 H 0.530068 0.615631 0.95982
H21_3 H 0.212342 0.629741 0.518481
H22_3 H 0.214438 0.605704 0.43043
H23_3 H 0.444957 0.721529 0.557684
H24_3 H 0.469932 0.615631 0.54018
H27_3 H 0.447276 0.483685 0.498893
H28_3 H 0.391898 0.421012 0.450792
O9_4 O 0.26645(19) 0.1423(4) 0.0221(3)
O27_2 O 0.1656(2) 0.2504(4) 0.0494(2)
O29_2 O 0.1327(2) 0.1228(3) 0.0993(2)
H14_4 H 0.285562 0.105704 0.0695695
C1_4 C 0.1523(3) 0.2097(5) 0.1057(3)
C2_4 C 0.1616(3) 0.2598(5) 0.1815(3)
C3_4 C 0.1996(3) 0.3397(5) 0.1992(3)
H1_4 H 0.215053 0.369021 0.160240
C4_4 C 0.1371(3) 0.2187(5) 0.2381(3)
H2_4 H 0.110478 0.165663 0.225283
C5_4 C 0.2147(3) 0.3757(5) 0.2737(4)
H3_4 H 0.240211 0.430226 0.285754
C6_4 C 0.1516(3) 0.2546(5) 0.3125(3)
C7_4 C 0.1928(3) 0.3328(5) 0.3307(3)
C8_4 C 0.2446(3) 0.4154(4) 0.4502(3)
C9_4 C 0.2416(3) 0.4193(5) 0.5355(3)
C10_4 C 0.1894(3) 0.3344(5) 0.6203(3)
C11_4 C 0.1422(3) 0.2668(5) 0.6089(3)
C12_4 C 0.1225(3) 0.2374(5) 0.6717(3)
H4_4 H 0.089130 0.196332 0.664241
C13_4 C 0.2167(3) 0.3677(5) 0.6942(3)
H5_4 H 0.247531 0.414045 0.701595
C14_4 C 0.1980(3) 0.3320(5) 0.7567(3)
H6_4 H 0.217507 0.351875 0.807405
C15_4 C 0.1510(3) 0.2671(5) 0.7461(3)
C16_4 C 0.1302(3) 0.2261(5) 0.8120(3)
Cu1_4 Cu 0.16024(3) 0.28409(6) 0.46502(4)
K1_5 K -0.000000 0.0559(3) 0.750000
N1_4 N 0.2042(2) 0.3582(4) 0.4086(3)
N2_4 N 0.2044(2) 0.3559(4) 0.5514(3)
O3_4 O 0.12865(19) 0.2161(3) 0.3690(2)
O6_4 O 0.11769(19) 0.2339(3) 0.5365(2)
O7_4 O 0.0767(2) 0.2051(4) 0.7999(3)
O8_4 O 0.1673(2) 0.2114(3) 0.8762(2)
O10_4 O 0.05521(19) 0.1503(3) 0.9313(2)
H13_4 H 0.287658 0.129741 0.981519
H15_4 H 0.0550432 0.221529 0.942316
H16_4 H 0.0300681 0.115631 0.95982
H25_3 H 0.0124787 0.0123815 0.568638
H17_4 H 0.052724 0.983685 0.00110686
H18_4 H 0.108102 0.921012 0.0492081
O11_4 O 0.0906(2) 0.9535(4) 0.9992(3)
O12_4 O 0.10955(19) 0.9907(3) 0.8450(2)
O26_4 O 0.0178(3) 0.9631(8) 0.6106(4)
H19_3 H 0.0201365 0.938308 0.920888
C17_4 C 0.8477(3) 0.2097(5) 0.3943(3)
C18_4 C 0.8384(3) 0.2598(5) 0.3185(3)
C19_4 C 0.8004(3) 0.3397(5) 0.3008(3)
H7_4 H 0.784947 0.369021 0.339760
C20_4 C 0.8629(3) 0.2187(5) 0.2619(3)
H8_4 H 0.889522 0.165663 0.274717
C21_4 C 0.7853(3) 0.3757(5) 0.2263(4)
H9_4 H 0.759789 0.430226 0.214246
C22_4 C 0.8484(3) 0.2546(5) 0.1875(3)
C23_4 C 0.8072(3) 0.3328(5) 0.1693(3)
C24_4 C 0.7554(3) 0.4154(4) 0.0498(3)
Cu2_4 Cu 0.83976(3) 0.28409(6) 0.03498(4)
N3_4 N 0.7958(2) 0.3582(4) 0.0914(3)
O14_2 O 0.8344(2) 0.2504(4) 0.4506(2)
O15_2 O 0.8673(2) 0.1228(3) 0.4007(2)
O16_4 O 0.87135(19) 0.2161(3) 0.1310(2)
K1_6 K 1.000000 0.0559(3) 0.750000
C25_4 C 0.7584(3) 0.4193(5) 0.9645(3)
C26_4 C 0.8106(3) 0.3344(5) 0.8797(3)
C27_4 C 0.8578(3) 0.2668(5) 0.8911(3)
C28_4 C 0.8775(3) 0.2374(5) 0.8283(3)
H10_4 H 0.910870 0.196332 0.835759
C29_4 C 0.7833(3) 0.3677(5) 0.8058(3)
H11_4 H 0.752469 0.414045 0.798405
C30_4 C 0.8020(3) 0.3320(5) 0.7433(3)
H12_4 H 0.782493 0.351875 0.692595
C31_4 C 0.8490(3) 0.2671(5) 0.7539(3)
C32_4 C 0.8698(3) 0.2261(5) 0.6880(3)
N4_4 N 0.7956(2) 0.3559(4) 0.9486(3)
O19_4 O 0.88231(19) 0.2339(3) 0.9635(2)
O20_4 O 0.9233(2) 0.2051(4) 0.7001(3)
O21_4 O 0.8327(2) 0.2114(3) 0.6238(2)
O22_4 O 0.73355(19) 0.1423(4) 0.4779(3)
O23_4 O 0.94479(19) 0.1503(3) 0.5687(2)
H21_4 H 0.712342 0.129741 0.518481
H22_4 H 0.714438 0.105704 0.43043
H23_4 H 0.944957 0.221529 0.557684
H24_4 H 0.969932 0.115631 0.54018
O13_4 O 0.9822(3) 0.9631(8) 0.8894(4)
O24_4 O 0.9094(2) 0.9535(4) 0.5008(3)
O25_4 O 0.89045(19) 0.9907(3) 0.6550(2)
H20_3 H 0.954435 0.907697 0.87495
H26_3 H 0.98899 0.909434 0.594672
H27_4 H 0.947276 0.983685 0.498893
H28_4 H 0.891898 0.921012 0.450792
H20_4 H 0.0455653 0.907697 0.62505
H26_4 H 0.0110103 0.909434 0.905328
H25_4 H 0.987521 0.0123815 0.931362
H19_4 H 0.979864 0.938308 0.579112
loop_
_geom_bond_atom_site_label_1
_geom_bond_atom_site_label_2
_geom_bond_site_symmetry_1
_geom_bond_site_symmetry_2
C1 C2 1_555 1_555
C2 C3 1_555 1_555
C3 H1 1_555 1_555
C4 C2 1_555 1_555
H2 C4 1_555 1_555
C5 C3 1_555 1_555
H3 C5 1_555 1_555
C6 C4 1_555 1_555
C7 C5 1_555 1_555
C8 C9 1_555 1_555
C9 N2 1_555 1_555
C10 C11 1_555 1_555
C11 C12 1_555 1_555
C12 H4 1_555 1_555
C13 C10 1_555 1_555
H5 C13 1_555 1_555
C14 C13 1_555 1_555
H6 C14 1_555 1_555
C15 C12 1_555 1_555
C16 C15 1_555 1_555
Ce3 O8 1_555 1_555
Cu1 N1 1_555 1_555
K1 O7 1_555 1_555
N1 C7 1_555 1_555
N2 C10 1_555 1_555
O1 C1 1_555 1_555
O2 C1 1_555 1_555
O3 C6 1_555 1_555
O4 C8 1_555 1_555
O5 C9 1_555 1_555
O6 C11 1_555 1_555
O7 C16 1_555 1_555
O8 C16 1_555 1_555
O10 Ce3 1_555 1_555
O11 Ce3 1_555 1_555
O12 Ce3 1_555 1_555
O13 K1 1_555 1_555
C25 N4 1_555 1_555
C26 C27 1_555 1_555
C27 C28 1_555 1_555
C28 H10 1_555 1_555
C29 C26 1_555 1_555
H11 C29 1_555 1_555
C30 C29 1_555 1_555
H12 C30 1_555 1_555
C31 C28 1_555 1_555
C32 C31 1_555 1_555
Ce2 O21 1_555 1_555
N4 C26 1_555 1_555
O18 C25 1_555 1_555
O19 C27 1_555 1_555
O20 K1 1_555 1_555
O21 C32 1_555 1_555
O22 Ce2 1_555 1_555
O23 Ce2 1_555 1_555
O24 Ce2 1_555 1_555
O25 K1 1_555 1_555
O26 K1 1_555 1_555
O28 Ce2 1_555 1_555
O30 Ce2 1_555 1_555
O31 Ce2 1_555 1_555
O33 Ce2 1_555 1_555
O34 Ce3 1_555 1_555
C6 C7 1_555 1_555
C8 N1 1_555 1_555
C14 C15 1_555 1_555
Cu1 N2 1_555 1_555
Cu1 O3 1_555 1_555
Cu1 O6 1_555 1_555
K1 O12 1_555 1_555
C30 C31 1_555 1_555
C32 O20 1_555 1_555
Ce2 O25 1_555 1_555
O10 H15 1_555 1_555
O10 H16 1_555 1_555
O22 H21 1_555 1_555
O22 H22 1_555 1_555
O23 H23 1_555 1_555
O23 H24 1_555 1_555
O24 H27 1_555 1_555
O24 H28 1_555 1_555
C17 C18 1_555 1_555
C18 C19 1_555 1_555
C19 H7 1_555 1_555
C20 C18 1_555 1_555
H8 C20 1_555 1_555
C21 C19 1_555 1_555
H9 C21 1_555 1_555
C22 C20 1_555 1_555
C23 C21 1_555 1_555
Cu2 N3 1_555 1_555
N3 C23 1_555 1_555
O28 C17 1_555 1_555
O30 C17 1_555 1_555
O16 C22 1_555 1_555
O17 C24 1_555 1_555
C22 C23 1_555 1_555
C24 N3 1_555 1_555
Cu2 O16 1_555 1_555
O9 H14 1_555 1_555
O13_2 H20 1_555 1_555
O24_2 H27_2 1_555 1_555
O24_2 H28_2 1_555 1_555
C25_2 N4_2 1_555 1_555
C26_2 C27_2 1_555 1_555
C27_2 C28_2 1_555 1_555
C28_2 H10_2 1_555 1_555
C29_2 C26_2 1_555 1_555
H11_2 C29_2 1_555 1_555
C30_2 C29_2 1_555 1_555
H12_2 C30_2 1_555 1_555
C31_2 C28_2 1_555 1_555
C32_2 C31_2 1_555 1_555
Ce6 O21_2 1_555 1_555
N4_2 C26_2 1_555 1_555
O34 C25_2 1_555 1_555
O19_2 C27_2 1_555 1_555
O20_2 K1_2 1_555 1_555
O21_2 C32_2 1_555 1_555
O22_2 Ce6 1_555 1_555
O23_2 Ce6 1_555 1_555
O28_2 Ce6 1_555 1_555
O30_2 Ce6 1_555 1_555
C30_2 C31_2 1_555 1_555
C32_2 O20_2 1_555 1_555
O22_2 H21_2 1_555 1_555
O22_2 H22_2 1_555 1_555
O23_2 H23_2 1_555 1_555
O23_2 H24_2 1_555 1_555
C17_2 C18_2 1_555 1_555
C18_2 C19_2 1_555 1_555
C19_2 H7_2 1_555 1_555
C20_2 C18_2 1_555 1_555
H8_2 C20_2 1_555 1_555
C21_2 C19_2 1_555 1_555
H9_2 C21_2 1_555 1_555
C22_2 C20_2 1_555 1_555
C23_2 C21_2 1_555 1_555
Cu2_2 N3_2 1_555 1_555
N3_2 C23_2 1_555 1_555
O28_2 C17_2 1_555 1_555
O30_2 C17_2 1_555 1_555
O16_2 C22_2 1_555 1_555
O32 C24_2 1_555 1_555
C22_2 C23_2 1_555 1_555
C24_2 N3_2 1_555 1_555
Cu2_2 O16_2 1_555 1_555
C1_2 C2_2 1_555 1_555
C2_2 C3_2 1_555 1_555
C3_2 H1_2 1_555 1_555
C4_2 C2_2 1_555 1_555
H2_2 C4_2 1_555 1_555
C5_2 C3_2 1_555 1_555
H3_2 C5_2 1_555 1_555
C6_2 C4_2 1_555 1_555
C7_2 C5_2 1_555 1_555
C8_2 C9_2 1_555 1_555
C9_2 N2_2 1_555 1_555
C10_2 C11_2 1_555 1_555
C11_2 C12_2 1_555 1_555
C12_2 H4_2 1_555 1_555
C13_2 C10_2 1_555 1_555
H5_2 C13_2 1_555 1_555
C14_2 C13_2 1_555 1_555
H6_2 C14_2 1_555 1_555
C15_2 C12_2 1_555 1_555
C16_2 C15_2 1_555 1_555
Ce5 O8_2 1_555 1_555
Cu1_2 N1_2 1_555 1_555
K1_3 O7_2 1_555 1_555
N1_2 C7_2 1_555 1_555
N2_2 C10_2 1_555 1_555
O1_2 C1_2 1_555 1_555
O2_2 C1_2 1_555 1_555
O3_2 C6_2 1_555 1_555
O31 C8_2 1_555 1_555
O33 C9_2 1_555 1_555
O6_2 C11_2 1_555 1_555
O7_2 C16_2 1_555 1_555
O8_2 C16_2 1_555 1_555
O10_2 Ce5 1_555 1_555
C6_2 C7_2 1_555 1_555
C8_2 N1_2 1_555 1_555
C14_2 C15_2 1_555 1_555
Cu1_2 N2_2 1_555 1_555
Cu1_2 O3_2 1_555 1_555
Cu1_2 O6_2 1_555 1_555
O10_2 H15_2 1_555 1_555
O10_2 H16_2 1_555 1_555
O9_2 H14_2 1_555 1_555
O26_2 H20_2 1_555 1_555
C17_3 C18_3 1_555 1_555
C18_3 C19_3 1_555 1_555
C19_3 H7_3 1_555 1_555
C20_3 C18_3 1_555 1_555
H8_3 C20_3 1_555 1_555
C21_3 C19_3 1_555 1_555
H9_3 C21_3 1_555 1_555
C22_3 C20_3 1_555 1_555
C23_3 C21_3 1_555 1_555
Cu2_3 N3_3 1_555 1_555
N3_3 C23_3 1_555 1_555
O14 C17_3 1_555 1_555
O15 C17_3 1_555 1_555
O16_3 C22_3 1_555 1_555
O17_2 C24_3 1_555 1_555
Ce4 O14 1_555 1_555
C22_3 C23_3 1_555 1_555
C24_3 N3_3 1_555 1_555
Cu2_3 O16_3 1_555 1_555
O15 Ce4 1_555 1_555
O9_3 H14_3 1_555 1_555
C1_3 C2_3 1_555 1_555
C2_3 C3_3 1_555 1_555
C3_3 H1_3 1_555 1_555
C4_3 C2_3 1_555 1_555
H2_3 C4_3 1_555 1_555
C5_3 C3_3 1_555 1_555
H3_3 C5_3 1_555 1_555
C6_3 C4_3 1_555 1_555
C7_3 C5_3 1_555 1_555
C8_3 C9_3 1_555 1_555
C9_3 N2_3 1_555 1_555
C10_3 C11_3 1_555 1_555
C11_3 C12_3 1_555 1_555
C12_3 H4_3 1_555 1_555
C13_3 C10_3 1_555 1_555
H5_3 C13_3 1_555 1_555
C14_3 C13_3 1_555 1_555
H6_3 C14_3 1_555 1_555
C15_3 C12_3 1_555 1_555
C16_3 C15_3 1_555 1_555
Ce1 O8_3 1_555 1_555
Cu1_3 N1_3 1_555 1_555
K1_4 O7_3 1_555 1_555
N1_3 C7_3 1_555 1_555
N2_3 C10_3 1_555 1_555
O27 C1_3 1_555 1_555
O29 C1_3 1_555 1_555
O3_3 C6_3 1_555 1_555
O4_2 C8_3 1_555 1_555
O5_2 C9_3 1_555 1_555
O6_3 C11_3 1_555 1_555
O7_3 C16_3 1_555 1_555
O8_3 C16_3 1_555 1_555
O10_3 Ce1 1_555 1_555
O11_3 Ce1 1_555 1_555
O12_3 Ce1 1_555 1_555
O13_3 K1_4 1_555 1_555
C25_3 N4_3 1_555 1_555
C26_3 C27_3 1_555 1_555
C27_3 C28_3 1_555 1_555
C28_3 H10_3 1_555 1_555
C29_3 C26_3 1_555 1_555
H11_3 C29_3 1_555 1_555
C30_3 C29_3 1_555 1_555
H12_3 C30_3 1_555 1_555
C31_3 C28_3 1_555 1_555
C32_3 C31_3 1_555 1_555
Ce4 O21_3 1_555 1_555
N4_3 C26_3 1_555 1_555
O18_2 C25_3 1_555 1_555
O19_3 C27_3 1_555 1_555
O20_3 K1_4 1_555 1_555
O21_3 C32_3 1_555 1_555
O22_3 Ce4 1_555 1_555
O23_3 Ce4 1_555 1_555
O24_3 Ce4 1_555 1_555
O25_3 K1_4 1_555 1_555
O26_3 K1_4 1_555 1_555
O31_2 Ce4 1_555 1_555
O33_2 Ce4 1_555 1_555
O34_2 Ce1 1_555 1_555
C6_3 C7_3 1_555 1_555
C8_3 N1_3 1_555 1_555
C14_3 C15_3 1_555 1_555
Cu1_3 N2_3 1_555 1_555
Cu1_3 O3_3 1_555 1_555
Cu1_3 O6_3 1_555 1_555
K1_4 O12_3 1_555 1_555
C30_3 C31_3 1_555 1_555
C32_3 O20_3 1_555 1_555
Ce4 O25_3 1_555 1_555
O10_3 H15_3 1_555 1_555
O10_3 H16_3 1_555 1_555
O22_3 H21_3 1_555 1_555
O22_3 H22_3 1_555 1_555
O23_3 H23_3 1_555 1_555
O23_3 H24_3 1_555 1_555
O24_3 H27_3 1_555 1_555
O24_3 H28_3 1_555 1_555
O9_4 H14_4 1_555 1_555
C1_4 C2_4 1_555 1_555
C2_4 C3_4 1_555 1_555
C3_4 H1_4 1_555 1_555
C4_4 C2_4 1_555 1_555
H2_4 C4_4 1_555 1_555
C5_4 C3_4 1_555 1_555
H3_4 C5_4 1_555 1_555
C6_4 C4_4 1_555 1_555
C7_4 C5_4 1_555 1_555
C8_4 C9_4 1_555 1_555
C9_4 N2_4 1_555 1_555
C10_4 C11_4 1_555 1_555
C11_4 C12_4 1_555 1_555
C12_4 H4_4 1_555 1_555
C13_4 C10_4 1_555 1_555
H5_4 C13_4 1_555 1_555
C14_4 C13_4 1_555 1_555
H6_4 C14_4 1_555 1_555
C15_4 C12_4 1_555 1_555
C16_4 C15_4 1_555 1_555
Ce5_2 O8_4 1_555 1_555
Cu1_4 N1_4 1_555 1_555
K1_5 O7_4 1_555 1_555
N1_4 C7_4 1_555 1_555
N2_4 C10_4 1_555 1_555
O27_2 C1_4 1_555 1_555
O29_2 C1_4 1_555 1_555
O3_4 C6_4 1_555 1_555
O31_2 C8_4 1_555 1_555
O33_2 C9_4 1_555 1_555
O6_4 C11_4 1_555 1_555
O7_4 C16_4 1_555 1_555
O8_4 C16_4 1_555 1_555
O10_4 Ce5_2 1_555 1_555
C6_4 C7_4 1_555 1_555
C8_4 N1_4 1_555 1_555
C14_4 C15_4 1_555 1_555
Cu1_4 N2_4 1_555 1_555
Cu1_4 O3_4 1_555 1_555
Cu1_4 O6_4 1_555 1_555
O10_4 H15_4 1_555 1_555
O10_4 H16_4 1_555 1_555
C17_4 C18_4 1_555 1_555
C18_4 C19_4 1_555 1_555
C19_4 H7_4 1_555 1_555
C20_4 C18_4 1_555 1_555
H8_4 C20_4 1_555 1_555
C21_4 C19_4 1_555 1_555
H9_4 C21_4 1_555 1_555
C22_4 C20_4 1_555 1_555
C23_4 C21_4 1_555 1_555
Cu2_4 N3_4 1_555 1_555
N3_4 C23_4 1_555 1_555
O14_2 C17_4 1_555 1_555
O15_2 C17_4 1_555 1_555
O16_4 C22_4 1_555 1_555
O32_2 C24_4 1_555 1_555
Ce6_2 O14_2 1_555 1_555
C22_4 C23_4 1_555 1_555
C24_4 N3_4 1_555 1_555
Cu2_4 O16_4 1_555 1_555
O15_2 Ce6_2 1_555 1_555
C25_4 N4_4 1_555 1_555
C26_4 C27_4 1_555 1_555
C27_4 C28_4 1_555 1_555
C28_4 H10_4 1_555 1_555
C29_4 C26_4 1_555 1_555
H11_4 C29_4 1_555 1_555
C30_4 C29_4 1_555 1_555
H12_4 C30_4 1_555 1_555
C31_4 C28_4 1_555 1_555
C32_4 C31_4 1_555 1_555
Ce6_2 O21_4 1_555 1_555
N4_4 C26_4 1_555 1_555
O34_2 C25_4 1_555 1_555
O19_4 C27_4 1_555 1_555
O20_4 K1_6 1_555 1_555
O21_4 C32_4 1_555 1_555
O22_4 Ce6_2 1_555 1_555
O23_4 Ce6_2 1_555 1_555
C30_4 C31_4 1_555 1_555
C32_4 O20_4 1_555 1_555
O22_4 H21_4 1_555 1_555
O22_4 H22_4 1_555 1_555
O23_4 H23_4 1_555 1_555
O23_4 H24_4 1_555 1_555
O13_4 H20_3 1_555 1_555
O24_4 H27_4 1_555 1_555
O24_4 H28_4 1_555 1_555
O26_4 H20_4 1_555 1_555

#END
