
###############################################################################
#
# This file contains modified crystal structure data generated from the
# MOF subset of the Cambridge Structural Database (CSD) v543 
# hosted by the Cambridge Crystallographic Data Centre (CCDC).
#
# This work is licensed under the Creative Commons
# Attribution-NonCommercial-ShareAlike 4.0 International License.
# To view a copy of this license, visit
# http://creativecommons.org/licenses/by-nc-sa/4.0/
# or send a letter to
# Creative Commons, PO Box 1866, Mountain View, CA 94042, USA.
#
# CIF created using the CSD Python API on 29 September 2022
# The structure has been converted into the P1 space group
# The structure has a 3D framework
# The original CSD entry YAPRUE is in the tetragonal crystal system
# The original CSD entry YAPRUE is in a Sohncke space group
# The framework has been calculated to contain at least 10.0% void space
# The void calculation uses a probe of radius 1.32A, grid spacing 0.4
# The framework is charged, counterions have been retained in the structure
# H atom positions have been added when not included in the experimental data
#
###############################################################################

data_YAPRUE
_chemical_formula_moiety         '(C192 H352 Cs8 O160 8+)n'
_symmetry_cell_setting           triclinic
_symmetry_space_group_name_H-M   'P 1'
_symmetry_Int_Tables_number      1
_space_group_name_Hall           'P 1'
loop_
_symmetry_equiv_pos_site_id
_symmetry_equiv_pos_as_xyz
1 x,y,z
_cell_length_a                   24.136(6)
_cell_length_b                   24.136(6)
_cell_length_c                   15.454(4)
_cell_angle_alpha                90
_cell_angle_beta                 90
_cell_angle_gamma                90
_cell_volume                     9002.67
loop_
_atom_site_label
_atom_site_type_symbol
_atom_site_fract_x
_atom_site_fract_y
_atom_site_fract_z
Cs3 Cs 0.33183(2) 0.16911(2) 0.38517(7)
Cs8 Cs 0.16817(2) 0.33089(2) 0.88517(7)
O22 O 0.2482(2) 0.1553(2) 0.5456(4)
O25 O 0.2463(3) 0.1125(2) 0.7735(4)
H42 H 0.2745 0.1289 0.8111
O28 O 0.1527(3) 0.1908(3) 0.7647(4)
H45 H 0.1537 0.1658 0.8146
O31 O 0.1108(2) 0.2095(2) 0.5986(4)
O34 O 0.2231(3) 0.2511(3) 0.4585(4)
H48 H 0.2211 0.2729 0.4051
O37 O 0.0612(3) 0.2641(3) 0.5055(4)
O41 O 0.2907(2) 0.0166(2) 0.7435(4)
H52 H 0.2711 0.0513 0.7558
O43 O 0.2286(2) 0.0704(2) 0.6076(4)
O46 O 0.1029(3) 0.2917(3) 0.7294(5)
O50 O 0.3971(3) 0.2083(3) 0.2294(5)
H54 H 0.1185 0.2545 0.7369
H58 H 0.3815 0.2455 0.2369
O53 O 0.0045(7) 0.2111(6) 0.3641(8)
H61 H 0.0408 0.2283 0.3542
O59 O 0.3817(2) 0.2477(2) 0.5240(4)
O74 O 0.4637(3) 0.2048(3) 0.4152(4)
H73 H 0.4796 0.2022 0.3569
O84 O 0.3098(3) 0.0821(3) 0.2294(5)
H80 H 0.3163 0.0427 0.2177
O91 O 0.2431(3) 0.1801(3) 0.2385(4)
H87 H 0.2321 0.2157 0.2133
C26 C 0.2563(3) 0.1203(3) 0.6192(5)
H93 H 0.2968 0.1124 0.6247
C29 C 0.2372(3) 0.1477(4) 0.7011(6)
H96 H 0.2589 0.1826 0.7095
C32 C 0.1749(4) 0.1630(3) 0.6902(5)
H99 H 0.1532 0.1283 0.6802
C35 C 0.1684(3) 0.2000(3) 0.6128(6)
H102 H 0.1884 0.2358 0.6219
C38 C 0.1914(3) 0.1696(3) 0.5331(5)
H105 H 0.1694 0.1350 0.5237
C41 C 0.1891(4) 0.2048(4) 0.4511(5)
H108 H 0.2010 0.1823 0.4010
H111 H 0.1504 0.2169 0.4407
C44 C 0.0952(3) 0.2648(3) 0.5794(5)
H114 H 0.1295 0.2864 0.5657
C47 C 0.0667(3) 0.2919(3) 0.6563(6)
H117 H 0.0582 0.3313 0.6410
C50 C 0.0129(3) 0.2623(3) 0.6754(5)
H120 H 0.0209 0.2234 0.6939
C53 C 0.2615(3) 0.0224(3) 0.5927(5)
H123 H 0.3001 0.0336 0.5768
C56 C 0.0111(4) 0.2351(4) 0.5178(6)
H126 H 0.0192 0.1954 0.5316
C58 C 0.2385(6) 0.0227(5) 0.4328(7)
H128 H 0.2216 0.0595 0.4419
H131 H 0.2779 0.0283 0.4173
H176 H 0.386536 0.190016 0.174254
H181 H 0.482395 0.178804 0.455547
H184 H 0.329141 0.100122 0.180166
H190 H 0.208639 0.163364 0.261928
O7 O 0.0166(2) 0.7093(2) 0.7435(4)
H4 H 0.0513 0.7289 0.7558
C12 C 0.0227(5) 0.7615(6) 0.4328(7)
H25 H 0.0595 0.7784 0.4419
H26 H 0.0283 0.7221 0.4173
Cs4 Cs 0.16911(2) 0.66817(2) 0.38517(7)
Cs9 Cs 0.33089(2) 0.83183(2) 0.88517(7)
O23 O 0.1553(2) 0.7518(2) 0.5456(4)
O26 O 0.1125(2) 0.7537(3) 0.7735(4)
H43 H 0.1289 0.7255 0.8111
O29 O 0.1908(3) 0.8473(3) 0.7647(4)
H46 H 0.1658 0.8463 0.8146
O32 O 0.2095(2) 0.8892(2) 0.5986(4)
O35 O 0.2511(3) 0.7769(3) 0.4585(4)
H49 H 0.2729 0.7789 0.4051
O36 O 0.2641(3) 0.9388(3) 0.5055(4)
O44 O 0.0704(2) 0.7714(2) 0.6076(4)
O47 O 0.2917(3) 0.8971(3) 0.7294(5)
O51 O 0.2083(3) 0.6029(3) 0.2294(5)
H55 H 0.2545 0.8815 0.7369
H59 H 0.2455 0.6185 0.2369
O52 O 0.2111(6) 0.9955(7) 0.3641(8)
H60 H 0.2283 0.9592 0.3542
O60 O 0.2477(2) 0.6183(2) 0.5240(4)
O75 O 0.2048(3) 0.5363(3) 0.4152(4)
H74 H 0.2022 0.5204 0.3569
O85 O 0.0821(3) 0.6902(3) 0.2294(5)
H81 H 0.0427 0.6837 0.2177
O92 O 0.1801(3) 0.7569(3) 0.2385(4)
H88 H 0.2157 0.7679 0.2133
C27 C 0.1203(3) 0.7437(3) 0.6192(5)
H92 H 0.1124 0.7032 0.6247
C30 C 0.1477(4) 0.7628(3) 0.7011(6)
H95 H 0.1826 0.7411 0.7095
C33 C 0.1630(3) 0.8251(4) 0.6902(5)
H98 H 0.1283 0.8468 0.6802
C36 C 0.2000(3) 0.8316(3) 0.6128(6)
H103 H 0.2358 0.8116 0.6219
C39 C 0.1696(3) 0.8086(3) 0.5331(5)
H106 H 0.1350 0.8306 0.5237
C42 C 0.2048(4) 0.8109(4) 0.4511(5)
H109 H 0.1823 0.7990 0.4010
H112 H 0.2169 0.8496 0.4407
C45 C 0.2648(3) 0.9048(3) 0.5794(5)
H113 H 0.2864 0.8705 0.5657
C48 C 0.2919(3) 0.9333(3) 0.6563(6)
H116 H 0.3313 0.9418 0.6410
C51 C 0.2623(3) 0.9871(3) 0.6754(5)
H119 H 0.2234 0.9791 0.6939
C54 C 0.0224(3) 0.7385(3) 0.5927(5)
H122 H 0.0336 0.6999 0.5768
C55 C 0.2351(4) 0.9889(4) 0.5178(6)
H125 H 0.1954 0.9808 0.5316
H179 H 0.190016 0.613464 0.174254
H180 H 0.178804 0.517605 0.455547
H186 H 0.100122 0.670859 0.180166
H187 H 0.163364 0.791361 0.261928
Cs2 Cs 0.83089(2) 0.33183(2) 0.38517(7)
Cs7 Cs 0.66911(2) 0.16817(2) 0.88517(7)
O21 O 0.8447(2) 0.2482(2) 0.5456(4)
O24 O 0.8875(2) 0.2463(3) 0.7735(4)
H41 H 0.8711 0.2745 0.8111
O27 O 0.8092(3) 0.1527(3) 0.7647(4)
H44 H 0.8342 0.1537 0.8146
O30 O 0.7905(2) 0.1108(2) 0.5986(4)
O33 O 0.7489(3) 0.2231(3) 0.4585(4)
H47 H 0.7271 0.2211 0.4051
O38 O 0.7359(3) 0.0612(3) 0.5055(4)
O40 O 0.9834(2) 0.2907(2) 0.7435(4)
H51 H 0.9487 0.2711 0.7558
O42 O 0.9296(2) 0.2286(2) 0.6076(4)
O45 O 0.7083(3) 0.1029(3) 0.7294(5)
O49 O 0.7917(3) 0.3971(3) 0.2294(5)
H53 H 0.7455 0.1185 0.7369
H57 H 0.7545 0.3815 0.2369
O54 O 0.7889(6) 0.0045(7) 0.3641(8)
H62 H 0.7717 0.0408 0.3542
O58 O 0.7523(2) 0.3817(2) 0.5240(4)
O73 O 0.7952(3) 0.4637(3) 0.4152(4)
H72 H 0.7978 0.4796 0.3569
O83 O 0.9179(3) 0.3098(3) 0.2294(5)
H79 H 0.9573 0.3163 0.2177
O90 O 0.8199(3) 0.2431(3) 0.2385(4)
H86 H 0.7843 0.2321 0.2133
C25 C 0.8797(3) 0.2563(3) 0.6192(5)
H94 H 0.8876 0.2968 0.6247
C28 C 0.8523(4) 0.2372(3) 0.7011(6)
H97 H 0.8174 0.2589 0.7095
C31 C 0.8370(3) 0.1749(4) 0.6902(5)
H100 H 0.8717 0.1532 0.6802
C34 C 0.8000(3) 0.1684(3) 0.6128(6)
H101 H 0.7642 0.1884 0.6219
C37 C 0.8304(3) 0.1914(3) 0.5331(5)
H104 H 0.8650 0.1694 0.5237
C40 C 0.7952(4) 0.1891(4) 0.4511(5)
H107 H 0.8177 0.2010 0.4010
H110 H 0.7831 0.1504 0.4407
C43 C 0.7352(3) 0.0952(3) 0.5794(5)
H115 H 0.7136 0.1295 0.5657
C46 C 0.7081(3) 0.0667(3) 0.6563(6)
H118 H 0.6687 0.0582 0.6410
C49 C 0.7377(3) 0.0129(3) 0.6754(5)
H121 H 0.7766 0.0209 0.6939
C52 C 0.9776(3) 0.2615(3) 0.5927(5)
H124 H 0.9664 0.3001 0.5768
C57 C 0.7649(4) 0.0111(4) 0.5178(6)
H127 H 0.8046 0.0192 0.5316
C59 C 0.9773(5) 0.2385(6) 0.4328(7)
H129 H 0.9405 0.2216 0.4419
H132 H 0.9717 0.2779 0.4173
H178 H 0.809984 0.386536 0.174254
H183 H 0.899878 0.329141 0.180166
H185 H 0.821196 0.482395 0.455547
H189 H 0.836636 0.208639 0.261928
Cs1 Cs 0.66817(2) 0.83089(2) 0.38517(7)
O1 O 0.7518(2) 0.8447(2) 0.5456(4)
O2 O 0.7537(3) 0.8875(2) 0.7735(4)
H1 H 0.7255 0.8711 0.8111
O3 O 0.8473(3) 0.8092(3) 0.7647(4)
H2 H 0.8463 0.8342 0.8146
O4 O 0.8892(2) 0.7905(2) 0.5986(4)
O5 O 0.7769(3) 0.7489(3) 0.4585(4)
H3 H 0.7789 0.7271 0.4051
O6 O 0.9388(3) 0.7359(3) 0.5055(4)
O8 O 0.7714(2) 0.9296(2) 0.6076(4)
O9 O 0.8971(3) 0.7083(3) 0.7294(5)
H5 H 0.8815 0.7455 0.7369
O10 O 0.9955(7) 0.7889(6) 0.3641(8)
H6 H 0.9592 0.7717 0.3542
O11 O 0.6183(2) 0.7523(2) 0.5240(4)
O12 O 0.6541(3) 0.7530(3) 0.7526(4)
H7 H 0.6626 0.7850 0.7893
O13 O 0.5395(3) 0.7926(3) 0.7526(5)
H8 H 0.5179 0.8223 0.7257
O14 O 0.4782(2) 0.7466(2) 0.6149(4)
O15 O 0.5363(3) 0.7952(3) 0.4152(4)
H9 H 0.5204 0.7978 0.3569
O16 O 0.4080(2) 0.7540(3) 0.5101(4)
O17 O 0.4179(3) 0.8098(3) 0.7294(5)
H10 H 0.4573 0.8163 0.7177
O18 O 0.3199(3) 0.7431(3) 0.7385(4)
H11 H 0.2843 0.7321 0.7133
O19 O 0.6546(2) 0.6842(2) 0.6168(4)
O20 O 0.4043(3) 0.6678(3) 0.3818(6)
H12 H 0.4002 0.6967 0.3378
C1 C 0.7437(3) 0.8797(3) 0.6192(5)
H13 H 0.7032 0.8876 0.6247
C2 C 0.7628(3) 0.8523(4) 0.7011(6)
H14 H 0.7411 0.8174 0.7095
C3 C 0.8251(4) 0.8370(3) 0.6902(5)
H15 H 0.8468 0.8717 0.6802
C4 C 0.8316(3) 0.8000(3) 0.6128(6)
H16 H 0.8116 0.7642 0.6219
C5 C 0.8086(3) 0.8304(3) 0.5331(5)
H17 H 0.8306 0.8650 0.5237
C6 C 0.8109(4) 0.7952(4) 0.4511(5)
H18 H 0.7990 0.8177 0.4010
H19 H 0.8496 0.7831 0.4407
C7 C 0.9048(3) 0.7352(3) 0.5794(5)
H20 H 0.8705 0.7136 0.5657
C8 C 0.9333(3) 0.7081(3) 0.6563(6)
H21 H 0.9418 0.6687 0.6410
C9 C 0.9871(3) 0.7377(3) 0.6754(5)
H22 H 0.9791 0.7766 0.6939
C10 C 0.7385(3) 0.9776(3) 0.5927(5)
H23 H 0.6999 0.9664 0.5768
C11 C 0.9889(4) 0.7649(4) 0.5178(6)
H24 H 0.9808 0.8046 0.5316
C13 C 0.6503(3) 0.7424(3) 0.5992(6)
H27 H 0.6883 0.7576 0.5898
C14 C 0.6246(4) 0.7709(3) 0.6784(6)
H28 H 0.6295 0.8119 0.6722
C15 C 0.5632(4) 0.7585(3) 0.6868(6)
H29 H 0.5590 0.7189 0.7049
C16 C 0.5337(3) 0.7660(3) 0.6025(5)
H30 H 0.5331 0.8062 0.5870
C17 C 0.5627(3) 0.7333(3) 0.5307(6)
H31 H 0.5632 0.6932 0.5472
C18 C 0.5386(4) 0.7385(4) 0.4410(6)
H32 H 0.5616 0.7174 0.3996
H33 H 0.5008 0.7226 0.4403
C19 C 0.4329(4) 0.7776(4) 0.5837(7)
H34 H 0.4473 0.8149 0.5667
C20 C 0.3930(4) 0.7859(4) 0.6563(6)
H35 H 0.3642 0.8126 0.6354
C21 C 0.3633(4) 0.7319(3) 0.6783(5)
H36 H 0.3903 0.7054 0.7048
C22 C 0.7069(3) 0.6601(3) 0.5959(6)
H37 H 0.7320 0.6893 0.5719
C23 C 0.3863(3) 0.7001(3) 0.5296(6)
H38 H 0.4162 0.6760 0.5538
C24 C 0.3645(4) 0.6756(4) 0.4471(6)
H39 H 0.3473 0.6393 0.4605
H40 H 0.3349 0.7001 0.4244
Cs5 Cs 0.83183(2) 0.66911(2) 0.88517(7)
O39 O 0.7093(2) 0.9834(2) 0.7435(4)
H50 H 0.7289 0.9487 0.7558
O48 O 0.6029(3) 0.7917(3) 0.2294(5)
H56 H 0.6185 0.7545 0.2369
O61 O 0.7530(3) 0.3459(3) 0.7526(4)
O62 O 0.3459(3) 0.2470(3) 0.7526(4)
O63 O 0.2470(3) 0.6541(3) 0.7526(4)
H63 H 0.7850 0.3374 0.7893
H64 H 0.3374 0.2150 0.7893
H65 H 0.2150 0.6626 0.7893
O64 O 0.7926(3) 0.4605(3) 0.7526(5)
O65 O 0.4605(3) 0.2074(3) 0.7526(5)
O66 O 0.2074(3) 0.5395(3) 0.7526(5)
H66 H 0.8223 0.4821 0.7257
H67 H 0.4821 0.1777 0.7257
H68 H 0.1777 0.5179 0.7257
O67 O 0.7466(2) 0.5218(2) 0.6149(4)
O68 O 0.5218(2) 0.2534(2) 0.6149(4)
O69 O 0.2534(2) 0.4782(2) 0.6149(4)
O76 O 0.2460(3) 0.4080(2) 0.5101(4)
O77 O 0.5920(2) 0.2460(3) 0.5101(4)
O78 O 0.7540(3) 0.5920(2) 0.5101(4)
O79 O 0.8098(3) 0.5821(3) 0.7294(5)
O80 O 0.5821(3) 0.1902(3) 0.7294(5)
O81 O 0.1902(3) 0.4179(3) 0.7294(5)
O82 O 0.6902(3) 0.9179(3) 0.2294(5)
H75 H 0.8163 0.5427 0.7177
H76 H 0.5427 0.1837 0.7177
H77 H 0.1837 0.4573 0.7177
H78 H 0.6837 0.9573 0.2177
O86 O 0.7431(3) 0.6801(3) 0.7385(4)
O87 O 0.6801(3) 0.2569(3) 0.7385(4)
O88 O 0.2569(3) 0.3199(3) 0.7385(4)
O89 O 0.7569(3) 0.8199(3) 0.2385(4)
H82 H 0.7321 0.7157 0.7133
H83 H 0.7157 0.2679 0.7133
H84 H 0.2679 0.2843 0.7133
H85 H 0.7679 0.7843 0.2133
O93 O 0.6842(2) 0.3454(2) 0.6168(4)
O94 O 0.3454(2) 0.3158(2) 0.6168(4)
O95 O 0.3158(2) 0.6546(2) 0.6168(4)
O96 O 0.3322(3) 0.4043(3) 0.3818(6)
O97 O 0.5957(3) 0.3322(3) 0.3818(6)
O98 O 0.6678(3) 0.5957(3) 0.3818(6)
H89 H 0.3033 0.4002 0.3378
H90 H 0.5998 0.3033 0.3378
H91 H 0.6967 0.5998 0.3378
C60 C 0.7615(6) 0.9773(5) 0.4328(7)
H130 H 0.7784 0.9405 0.4419
H133 H 0.7221 0.9717 0.4173
C61 C 0.7424(3) 0.3497(3) 0.5992(6)
C62 C 0.3497(3) 0.2576(3) 0.5992(6)
C63 C 0.2576(3) 0.6503(3) 0.5992(6)
H134 H 0.2424 0.6883 0.5898
H135 H 0.3117 0.2424 0.5898
H136 H 0.7576 0.3117 0.5898
C64 C 0.7709(3) 0.3754(4) 0.6784(6)
C65 C 0.3754(4) 0.2291(3) 0.6784(6)
C66 C 0.2291(3) 0.6246(4) 0.6784(6)
H137 H 0.1881 0.6295 0.6722
H138 H 0.3705 0.1881 0.6722
H139 H 0.8119 0.3705 0.6722
C67 C 0.7585(3) 0.4368(4) 0.6868(6)
C68 C 0.4368(4) 0.2415(3) 0.6868(6)
C69 C 0.2415(3) 0.5632(4) 0.6868(6)
H140 H 0.2811 0.5590 0.7049
H141 H 0.4410 0.2811 0.7049
H142 H 0.7189 0.4410 0.7049
C70 C 0.7660(3) 0.4663(3) 0.6025(5)
C71 C 0.4663(3) 0.2340(3) 0.6025(5)
C72 C 0.2340(3) 0.5337(3) 0.6025(5)
H143 H 0.8062 0.4669 0.5870
H144 H 0.4669 0.1938 0.5870
H145 H 0.1938 0.5331 0.5870
C73 C 0.7333(3) 0.4373(3) 0.5307(6)
C74 C 0.4373(3) 0.2667(3) 0.5307(6)
C75 C 0.2667(3) 0.5627(3) 0.5307(6)
H146 H 0.6932 0.4368 0.5472
H147 H 0.4368 0.3068 0.5472
H148 H 0.3068 0.5632 0.5472
C76 C 0.7385(4) 0.4614(4) 0.4410(6)
C77 C 0.4614(4) 0.2615(4) 0.4410(6)
C78 C 0.2615(4) 0.5386(4) 0.4410(6)
H149 H 0.7174 0.4384 0.3996
H150 H 0.4384 0.2826 0.3996
H151 H 0.2826 0.5616 0.3996
H152 H 0.7226 0.4992 0.4403
H153 H 0.4992 0.2774 0.4403
H154 H 0.2774 0.5008 0.4403
C79 C 0.7776(4) 0.5671(4) 0.5837(7)
C80 C 0.5671(4) 0.2224(4) 0.5837(7)
C81 C 0.2224(4) 0.4329(4) 0.5837(7)
H155 H 0.1851 0.4473 0.5667
H156 H 0.5527 0.1851 0.5667
H157 H 0.8149 0.5527 0.5667
C82 C 0.7859(4) 0.6070(4) 0.6563(6)
C83 C 0.6070(4) 0.2141(4) 0.6563(6)
C84 C 0.2141(4) 0.3930(4) 0.6563(6)
H158 H 0.1874 0.3642 0.6354
H159 H 0.6358 0.1874 0.6354
H160 H 0.8126 0.6358 0.6354
C85 C 0.7319(3) 0.6367(4) 0.6783(5)
C86 C 0.6367(4) 0.2681(3) 0.6783(5)
C87 C 0.2681(3) 0.3633(4) 0.6783(5)
H161 H 0.2946 0.3903 0.7048
H162 H 0.6097 0.2946 0.7048
H163 H 0.7054 0.6097 0.7048
C88 C 0.6601(3) 0.2931(3) 0.5959(6)
C89 C 0.2931(3) 0.3399(3) 0.5959(6)
C90 C 0.3399(3) 0.7069(3) 0.5959(6)
H164 H 0.3107 0.7320 0.5719
H165 H 0.2680 0.3107 0.5719
H166 H 0.6893 0.2680 0.5719
C91 C 0.2999(3) 0.3863(3) 0.5296(6)
C92 C 0.6137(3) 0.2999(3) 0.5296(6)
C93 C 0.7001(3) 0.6137(3) 0.5296(6)
H167 H 0.3240 0.4162 0.5538
H168 H 0.5838 0.3240 0.5538
H169 H 0.6760 0.5838 0.5538
C94 C 0.3244(4) 0.3645(4) 0.4471(6)
C95 C 0.6355(4) 0.3244(4) 0.4471(6)
C96 C 0.6756(4) 0.6355(4) 0.4471(6)
H170 H 0.3607 0.3473 0.4605
H171 H 0.6527 0.3607 0.4605
H172 H 0.6393 0.6527 0.4605
H173 H 0.2999 0.3349 0.4244
H174 H 0.6651 0.2999 0.4244
H175 H 0.7001 0.6651 0.4244
H177 H 0.613464 0.809984 0.174254
H182 H 0.670859 0.899878 0.180166
H188 H 0.791361 0.836636 0.261928
H181_2 H 0.517605 0.821196 0.455547
O1_2 O 0.2518(2) 0.3447(2) 0.0456(4)
O2_2 O 0.2537(3) 0.3875(2) 0.2735(4)
H1_2 H 0.2255 0.3711 0.3111
O3_2 O 0.3473(3) 0.3092(3) 0.2647(4)
H2_2 H 0.3463 0.3342 0.3146
O4_2 O 0.3892(2) 0.2905(2) 0.0986(4)
O6_2 O 0.4388(3) 0.2359(3) 0.0055(4)
O7_2 O 0.5166(2) 0.2093(2) 0.2435(4)
H4_2 H 0.5513 0.2289 0.2558
O8_2 O 0.2714(2) 0.4296(2) 0.1076(4)
O11_2 O 0.1183(2) 0.2523(2) 0.0240(4)
O12_2 O 0.1541(3) 0.2530(3) 0.2526(4)
H7_2 H 0.1626 0.2850 0.2893
O13_2 O 0.0395(3) 0.2926(3) 0.2526(5)
H8_2 H 0.0179 0.3223 0.2257
O19_2 O 0.1546(2) 0.1842(2) 0.1168(4)
C1_2 C 0.2437(3) 0.3797(3) 0.1192(5)
H13_2 H 0.2032 0.3876 0.1247
C2_2 C 0.2628(3) 0.3523(4) 0.2011(6)
H14_2 H 0.2411 0.3174 0.2095
C3_2 C 0.3251(4) 0.3370(3) 0.1902(5)
H15_2 H 0.3468 0.3717 0.1802
C4_2 C 0.3316(3) 0.3000(3) 0.1128(6)
H16_2 H 0.3116 0.2642 0.1219
C5_2 C 0.3086(3) 0.3304(3) 0.0331(5)
H17_2 H 0.3306 0.3650 0.0237
C7_2 C 0.4048(3) 0.2352(3) 0.0794(5)
H20_2 H 0.3705 0.2136 0.0657
C8_2 C 0.4333(3) 0.2081(3) 0.1563(6)
H21_2 H 0.4418 0.1687 0.1410
C9_2 C 0.4871(3) 0.2377(3) 0.1754(5)
H22_2 H 0.4791 0.2766 0.1939
C10_2 C 0.2385(3) 0.4776(3) 0.0927(5)
H23_2 H 0.1999 0.4664 0.0768
C11_2 C 0.4889(4) 0.2649(4) 0.0178(6)
H24_2 H 0.4808 0.3046 0.0316
C13_2 C 0.1503(3) 0.2424(3) 0.0992(6)
H27_2 H 0.1883 0.2576 0.0898
C14_2 C 0.1246(4) 0.2709(3) 0.1784(6)
H28_2 H 0.1295 0.3119 0.1722
C15_2 C 0.0632(4) 0.2585(3) 0.1868(6)
H29_2 H 0.0590 0.2189 0.2049
C16_2 C 0.0337(3) 0.2660(3) 0.1025(5)
H30_2 H 0.0331 0.3062 0.0870
C17_2 C 0.0627(3) 0.2333(3) 0.0307(6)
H31_2 H 0.0632 0.1932 0.0472
C22_2 C 0.2069(3) 0.1601(3) 0.0959(6)
H37_2 H 0.2320 0.1893 0.0719
O21_2 O 0.3447(2) 0.7482(2) 0.0456(4)
O22_2 O 0.7482(2) 0.6553(2) 0.0456(4)
O23_2 O 0.6553(2) 0.2518(2) 0.0456(4)
O24_2 O 0.3875(2) 0.7463(3) 0.2735(4)
O25_2 O 0.7463(3) 0.6125(2) 0.2735(4)
O26_2 O 0.6125(2) 0.2537(3) 0.2735(4)
H41_2 H 0.3711 0.7745 0.3111
H42_2 H 0.7745 0.6289 0.3111
H43_2 H 0.6289 0.2255 0.3111
O27_2 O 0.3092(3) 0.6527(3) 0.2647(4)
O28_2 O 0.6527(3) 0.6908(3) 0.2647(4)
O29_2 O 0.6908(3) 0.3473(3) 0.2647(4)
H44_2 H 0.3342 0.6537 0.3146
H45_2 H 0.6537 0.6658 0.3146
H46_2 H 0.6658 0.3463 0.3146
O30_2 O 0.2905(2) 0.6108(2) 0.0986(4)
O31_2 O 0.6108(2) 0.7095(2) 0.0986(4)
O32_2 O 0.7095(2) 0.3892(2) 0.0986(4)
O36_2 O 0.7641(3) 0.4388(3) 0.0055(4)
O37_2 O 0.5612(3) 0.7641(3) 0.0055(4)
O38_2 O 0.2359(3) 0.5612(3) 0.0055(4)
O39_2 O 0.2093(2) 0.4834(2) 0.2435(4)
O40_2 O 0.4834(2) 0.7907(2) 0.2435(4)
O41_2 O 0.7907(2) 0.5166(2) 0.2435(4)
H50_2 H 0.2289 0.4487 0.2558
H51_2 H 0.4487 0.7711 0.2558
H52_2 H 0.7711 0.5513 0.2558
O42_2 O 0.4296(2) 0.7286(2) 0.1076(4)
O43_2 O 0.7286(2) 0.5704(2) 0.1076(4)
O44_2 O 0.5704(2) 0.2714(2) 0.1076(4)
O58_2 O 0.2523(2) 0.8817(2) 0.0240(4)
O59_2 O 0.8817(2) 0.7477(2) 0.0240(4)
O60_2 O 0.7477(2) 0.1183(2) 0.0240(4)
O67_2 O 0.2466(2) 0.0218(2) 0.1149(4)
O78_2 O 0.2540(3) 0.0920(2) 0.0101(4)
C25_2 C 0.3797(3) 0.7563(3) 0.1192(5)
C26_2 C 0.7563(3) 0.6203(3) 0.1192(5)
C27_2 C 0.6203(3) 0.2437(3) 0.1192(5)
H92_2 H 0.6124 0.2032 0.1247
H93_2 H 0.7968 0.6124 0.1247
H94_2 H 0.3876 0.7968 0.1247
C28_2 C 0.3523(4) 0.7372(3) 0.2011(6)
C29_2 C 0.7372(3) 0.6477(4) 0.2011(6)
C30_2 C 0.6477(4) 0.2628(3) 0.2011(6)
H95_2 H 0.6826 0.2411 0.2095
H96_2 H 0.7589 0.6826 0.2095
H97_2 H 0.3174 0.7589 0.2095
C31_2 C 0.3370(3) 0.6749(4) 0.1902(5)
C32_2 C 0.6749(4) 0.6630(3) 0.1902(5)
C33_2 C 0.6630(3) 0.3251(4) 0.1902(5)
H98_2 H 0.6283 0.3468 0.1802
H99_2 H 0.6532 0.6283 0.1802
H100_2 H 0.3717 0.6532 0.1802
C34_2 C 0.3000(3) 0.6684(3) 0.1128(6)
C35_2 C 0.6684(3) 0.7000(3) 0.1128(6)
C36_2 C 0.7000(3) 0.3316(3) 0.1128(6)
H101_2 H 0.2642 0.6884 0.1219
H102_2 H 0.6884 0.7358 0.1219
H103_2 H 0.7358 0.3116 0.1219
C37_2 C 0.3304(3) 0.6914(3) 0.0331(5)
C38_2 C 0.6914(3) 0.6696(3) 0.0331(5)
C39_2 C 0.6696(3) 0.3086(3) 0.0331(5)
H104_2 H 0.3650 0.6694 0.0237
H105_2 H 0.6694 0.6350 0.0237
H106_2 H 0.6350 0.3306 0.0237
C43_2 C 0.2352(3) 0.5952(3) 0.0794(5)
C44_2 C 0.5952(3) 0.7648(3) 0.0794(5)
C45_2 C 0.7648(3) 0.4048(3) 0.0794(5)
H113_2 H 0.7864 0.3705 0.0657
H114_2 H 0.6295 0.7864 0.0657
H115_2 H 0.2136 0.6295 0.0657
C46_2 C 0.2081(3) 0.5667(3) 0.1563(6)
C47_2 C 0.5667(3) 0.7919(3) 0.1563(6)
C48_2 C 0.7919(3) 0.4333(3) 0.1563(6)
H116_2 H 0.8313 0.4418 0.1410
H117_2 H 0.5582 0.8313 0.1410
H118_2 H 0.1687 0.5582 0.1410
C49_2 C 0.2377(3) 0.5129(3) 0.1754(5)
C50_2 C 0.5129(3) 0.7623(3) 0.1754(5)
C51_2 C 0.7623(3) 0.4871(3) 0.1754(5)
H119_2 H 0.7234 0.4791 0.1939
H120_2 H 0.5209 0.7234 0.1939
H121_2 H 0.2766 0.5209 0.1939
C52_2 C 0.4776(3) 0.7615(3) 0.0927(5)
C53_2 C 0.7615(3) 0.5224(3) 0.0927(5)
C54_2 C 0.5224(3) 0.2385(3) 0.0927(5)
H122_2 H 0.5336 0.1999 0.0768
H123_2 H 0.8001 0.5336 0.0768
H124_2 H 0.4664 0.8001 0.0768
C55_2 C 0.7351(4) 0.4889(4) 0.0178(6)
C56_2 C 0.5111(4) 0.7351(4) 0.0178(6)
C57_2 C 0.2649(4) 0.5111(4) 0.0178(6)
H125_2 H 0.6954 0.4808 0.0316
H126_2 H 0.5192 0.6954 0.0316
H127_2 H 0.3046 0.5192 0.0316
C79_2 C 0.2776(4) 0.0671(4) 0.0837(7)
H157_2 H 0.3149 0.0527 0.0667
C82_2 C 0.2859(4) 0.1070(4) 0.1563(6)
H160_2 H 0.3126 0.1358 0.1354
C85_2 C 0.2319(3) 0.1367(4) 0.1783(5)
H163_2 H 0.2054 0.1097 0.2048
C93_2 C 0.2001(3) 0.1137(3) 0.0296(6)
H169_2 H 0.1760 0.0838 0.0538
O5_2 O 0.2769(3) 0.2489(3) 0.9585(4)
H3_2 H 0.2789 0.2271 0.9051
O10_2 O 0.4955(7) 0.2889(6) 0.8641(8)
H6_2 H 0.4592 0.2717 0.8542
O15_2 O 0.0363(3) 0.2952(3) 0.9152(4)
H9_2 H 0.0204 0.2978 0.8569
C6_2 C 0.3109(4) 0.2952(4) 0.9511(5)
H18_2 H 0.2990 0.3177 0.9010
H19_2 H 0.3496 0.2831 0.9407
C12_2 C 0.5227(5) 0.2615(6) 0.9328(7)
H25_2 H 0.5595 0.2784 0.9419
H26_2 H 0.5283 0.2221 0.9173
C18_2 C 0.0386(4) 0.2385(4) 0.9410(6)
H32_2 H 0.0616 0.2174 0.8996
H33_2 H 0.0008 0.2226 0.9403
O33_2 O 0.2489(3) 0.7231(3) 0.9585(4)
O34_2 O 0.7231(3) 0.7511(3) 0.9585(4)
O35_2 O 0.7511(3) 0.2769(3) 0.9585(4)
H47_2 H 0.2271 0.7211 0.9051
H48_2 H 0.7211 0.7729 0.9051
H49_2 H 0.7729 0.2789 0.9051
O52_2 O 0.7111(6) 0.4955(7) 0.8641(8)
O53_2 O 0.5045(7) 0.7111(6) 0.8641(8)
O54_2 O 0.2889(6) 0.5045(7) 0.8641(8)
H60_2 H 0.7283 0.4592 0.8542
H61_2 H 0.5408 0.7283 0.8542
H62_2 H 0.2717 0.5408 0.8542
O73_2 O 0.2952(3) 0.9637(3) 0.9152(4)
O74_2 O 0.9637(3) 0.7048(3) 0.9152(4)
O75_2 O 0.7048(3) 0.0363(3) 0.9152(4)
H72_2 H 0.2978 0.9796 0.8569
H73_2 H 0.9796 0.7022 0.8569
H74_2 H 0.7022 0.0204 0.8569
O98_2 O 0.1678(3) 0.0957(3) 0.8818(6)
H91_2 H 0.1967 0.0998 0.8378
C40_2 C 0.2952(4) 0.6891(4) 0.9511(5)
C41_2 C 0.6891(4) 0.7048(4) 0.9511(5)
C42_2 C 0.7048(4) 0.3109(4) 0.9511(5)
H107_2 H 0.3177 0.7010 0.9010
H108_2 H 0.7010 0.6823 0.9010
H109_2 H 0.6823 0.2990 0.9010
H110_2 H 0.2831 0.6504 0.9407
H111_2 H 0.6504 0.7169 0.9407
H112_2 H 0.7169 0.3496 0.9407
C58_2 C 0.7385(6) 0.5227(5) 0.9328(7)
C59_2 C 0.4773(5) 0.7385(6) 0.9328(7)
C60_2 C 0.2615(6) 0.4773(5) 0.9328(7)
H128_2 H 0.7216 0.5595 0.9419
H129_2 H 0.4405 0.7216 0.9419
H130_2 H 0.2784 0.4405 0.9419
H131_2 H 0.7779 0.5283 0.9173
H132_2 H 0.4717 0.7779 0.9173
H133_2 H 0.2221 0.4717 0.9173
C96_2 C 0.1756(4) 0.1355(4) 0.9471(6)
H172_2 H 0.1393 0.1527 0.9605
H175_2 H 0.2001 0.1651 0.9244
H176_2 H 0.886536 0.690016 0.674254
H177_2 H 0.113464 0.309984 0.674254
H178_2 H 0.309984 0.886536 0.674254
H179_2 H 0.690016 0.113464 0.674254
H180_2 H 0.678804 0.017605 0.955547
H181_3 H 0.982395 0.678804 0.955547
H182_2 H 0.170859 0.399878 0.680166
H183_2 H 0.399878 0.829141 0.680166
H184_2 H 0.829141 0.600122 0.680166
H185_2 H 0.321196 0.982395 0.955547
H186_2 H 0.600122 0.170859 0.680166
H187_2 H 0.663364 0.291361 0.761928
H188_2 H 0.291361 0.336636 0.761928
H189_2 H 0.336636 0.708639 0.761928
H190_2 H 0.708639 0.663364 0.761928
O61_2 O 0.2530(3) 0.8459(3) 0.2526(4)
H63_2 H 0.2850 0.8374 0.2893
O64_2 O 0.2926(3) 0.9605(3) 0.2526(5)
H66_2 H 0.3223 0.9821 0.2257
O68_2 O 0.0218(2) 0.7534(2) 0.1149(4)
O77_2 O 0.0920(2) 0.7460(3) 0.0101(4)
O93_2 O 0.1842(2) 0.8454(2) 0.1168(4)
C61_2 C 0.2424(3) 0.8497(3) 0.0992(6)
H136_2 H 0.2576 0.8117 0.0898
C64_2 C 0.2709(3) 0.8754(4) 0.1784(6)
H139_2 H 0.3119 0.8705 0.1722
C67_2 C 0.2585(3) 0.9368(4) 0.1868(6)
H142_2 H 0.2189 0.9410 0.2049
C70_2 C 0.2660(3) 0.9663(3) 0.1025(5)
H143_2 H 0.3062 0.9669 0.0870
C73_2 C 0.2333(3) 0.9373(3) 0.0307(6)
H146_2 H 0.1932 0.9368 0.0472
C80_2 C 0.0671(4) 0.7224(4) 0.0837(7)
H156_2 H 0.0527 0.6851 0.0667
C83_2 C 0.1070(4) 0.7141(4) 0.1563(6)
H159_2 H 0.1358 0.6874 0.1354
C86_2 C 0.1367(4) 0.7681(3) 0.1783(5)
H162_2 H 0.1097 0.7946 0.2048
C88_2 C 0.1601(3) 0.7931(3) 0.0959(6)
H166_2 H 0.1893 0.7680 0.0719
C92_2 C 0.1137(3) 0.7999(3) 0.0296(6)
H168_2 H 0.0838 0.8240 0.0538
O97_2 O 0.0957(3) 0.8322(3) 0.8818(6)
H90_2 H 0.0998 0.8033 0.8378
C76_2 C 0.2385(4) 0.9614(4) 0.9410(6)
H149_2 H 0.2174 0.9384 0.8996
H152_2 H 0.2226 0.9992 0.9403
C95_2 C 0.1355(4) 0.8244(4) 0.9471(6)
H171_2 H 0.1527 0.8607 0.9605
H174_2 H 0.1651 0.7999 0.9244
O14_2 O 0.9782(2) 0.2466(2) 0.1149(4)
O16_2 O 0.9080(2) 0.2540(3) 0.0101(4)
C19_2 C 0.9329(4) 0.2776(4) 0.0837(7)
H34_2 H 0.9473 0.3149 0.0667
C20_2 C 0.8930(4) 0.2859(4) 0.1563(6)
H35_2 H 0.8642 0.3126 0.1354
C21_2 C 0.8633(4) 0.2319(3) 0.1783(5)
H36_2 H 0.8903 0.2054 0.2048
C23_2 C 0.8863(3) 0.2001(3) 0.0296(6)
H38_2 H 0.9162 0.1760 0.0538
O63_2 O 0.7470(3) 0.1541(3) 0.2526(4)
H65_2 H 0.7150 0.1626 0.2893
O66_2 O 0.7074(3) 0.0395(3) 0.2526(5)
H68_2 H 0.6777 0.0179 0.2257
O95_2 O 0.8158(2) 0.1546(2) 0.1168(4)
C63_2 C 0.7576(3) 0.1503(3) 0.0992(6)
H134_2 H 0.7424 0.1883 0.0898
C66_2 C 0.7291(3) 0.1246(4) 0.1784(6)
H137_2 H 0.6881 0.1295 0.1722
C69_2 C 0.7415(3) 0.0632(4) 0.1868(6)
H140_2 H 0.7811 0.0590 0.2049
C72_2 C 0.7340(3) 0.0337(3) 0.1025(5)
H145_2 H 0.6938 0.0331 0.0870
C75_2 C 0.7667(3) 0.0627(3) 0.0307(6)
H148_2 H 0.8068 0.0632 0.0472
C90_2 C 0.8399(3) 0.2069(3) 0.0959(6)
H164_2 H 0.8107 0.2320 0.0719
O20_2 O 0.9043(3) 0.1678(3) 0.8818(6)
H12_2 H 0.9002 0.1967 0.8378
C24_2 C 0.8645(4) 0.1756(4) 0.9471(6)
H39_2 H 0.8473 0.1393 0.9605
H40_2 H 0.8349 0.2001 0.9244
C78_2 C 0.7615(4) 0.0386(4) 0.9410(6)
H151_2 H 0.7826 0.0616 0.8996
H154_2 H 0.7774 0.0008 0.9403
O62_2 O 0.8459(3) 0.7470(3) 0.2526(4)
H64_2 H 0.8374 0.7150 0.2893
O65_2 O 0.9605(3) 0.7074(3) 0.2526(5)
H67_2 H 0.9821 0.6777 0.2257
O69_2 O 0.7534(2) 0.9782(2) 0.1149(4)
O76_2 O 0.7460(3) 0.9080(2) 0.0101(4)
O94_2 O 0.8454(2) 0.8158(2) 0.1168(4)
C62_2 C 0.8497(3) 0.7576(3) 0.0992(6)
H135_2 H 0.8117 0.7424 0.0898
C65_2 C 0.8754(4) 0.7291(3) 0.1784(6)
H138_2 H 0.8705 0.6881 0.1722
C68_2 C 0.9368(4) 0.7415(3) 0.1868(6)
H141_2 H 0.9410 0.7811 0.2049
C71_2 C 0.9663(3) 0.7340(3) 0.1025(5)
H144_2 H 0.9669 0.6938 0.0870
C74_2 C 0.9373(3) 0.7667(3) 0.0307(6)
H147_2 H 0.9368 0.8068 0.0472
C81_2 C 0.7224(4) 0.9329(4) 0.0837(7)
H155_2 H 0.6851 0.9473 0.0667
C84_2 C 0.7141(4) 0.8930(4) 0.1563(6)
H158_2 H 0.6874 0.8642 0.1354
C87_2 C 0.7681(3) 0.8633(4) 0.1783(5)
H161_2 H 0.7946 0.8903 0.2048
C89_2 C 0.7931(3) 0.8399(3) 0.0959(6)
H165_2 H 0.7680 0.8107 0.0719
C91_2 C 0.7999(3) 0.8863(3) 0.0296(6)
H167_2 H 0.8240 0.9162 0.0538
O96_2 O 0.8322(3) 0.9043(3) 0.8818(6)
H89_2 H 0.8033 0.9002 0.8378
C77_2 C 0.9614(4) 0.7615(4) 0.9410(6)
H150_2 H 0.9384 0.7826 0.8996
H153_2 H 0.9992 0.7774 0.9403
C94_2 C 0.8244(4) 0.8645(4) 0.9471(6)
H170_2 H 0.8607 0.8473 0.9605
H173_2 H 0.7999 0.8349 0.9244
H181_4 H 0.017605 0.321196 0.955547
loop_
_geom_bond_atom_site_label_1
_geom_bond_atom_site_label_2
_geom_bond_site_symmetry_1
_geom_bond_site_symmetry_2
Cs3 O22 1_555 1_555
Cs8 O46 1_555 1_555
O22 C26 1_555 1_555
O25 H42 1_555 1_555
O28 H45 1_555 1_555
O31 C35 1_555 1_555
O34 Cs3 1_555 1_555
H48 O34 1_555 1_555
O37 C44 1_555 1_555
O41 H52 1_555 1_555
O43 C26 1_555 1_555
O46 H54 1_555 1_555
O50 Cs3 1_555 1_555
H58 O50 1_555 1_555
O53 H61 1_555 1_555
O59 Cs3 1_555 1_555
O74 Cs3 1_555 1_555
H73 O74 1_555 1_555
O84 Cs3 1_555 1_555
H80 O84 1_555 1_555
O91 Cs3 1_555 1_555
H87 O91 1_555 1_555
C26 H93 1_555 1_555
C29 O25 1_555 1_555
H96 C29 1_555 1_555
C32 O28 1_555 1_555
H99 C32 1_555 1_555
C35 C32 1_555 1_555
H102 C35 1_555 1_555
C38 O22 1_555 1_555
H105 C38 1_555 1_555
C41 O34 1_555 1_555
H108 C41 1_555 1_555
H111 C41 1_555 1_555
C44 O31 1_555 1_555
H114 C44 1_555 1_555
C47 O46 1_555 1_555
H117 C47 1_555 1_555
H120 C50 1_555 1_555
C53 O43 1_555 1_555
H123 C53 1_555 1_555
C56 O37 1_555 1_555
H126 C56 1_555 1_555
H128 C58 1_555 1_555
H131 C58 1_555 1_555
C26 C29 1_555 1_555
C29 C32 1_555 1_555
C35 C38 1_555 1_555
C38 C41 1_555 1_555
C44 C47 1_555 1_555
C47 C50 1_555 1_555
O50 H176 1_555 1_555
O74 H181 1_555 1_555
O84 H184 1_555 1_555
O91 H190 1_555 1_555
O7 H4 1_555 1_555
H25 C12 1_555 1_555
H26 C12 1_555 1_555
Cs4 O23 1_555 1_555
Cs9 O47 1_555 1_555
O23 C27 1_555 1_555
O26 H43 1_555 1_555
O29 H46 1_555 1_555
O32 C36 1_555 1_555
O35 Cs4 1_555 1_555
H49 O35 1_555 1_555
O36 C45 1_555 1_555
O44 C27 1_555 1_555
O47 H55 1_555 1_555
O51 Cs4 1_555 1_555
H59 O51 1_555 1_555
O52 H60 1_555 1_555
O60 Cs4 1_555 1_555
O75 Cs4 1_555 1_555
H74 O75 1_555 1_555
O85 Cs4 1_555 1_555
H81 O85 1_555 1_555
O92 Cs4 1_555 1_555
H88 O92 1_555 1_555
C27 H92 1_555 1_555
C30 O26 1_555 1_555
H95 C30 1_555 1_555
C33 O29 1_555 1_555
H98 C33 1_555 1_555
C36 C33 1_555 1_555
H103 C36 1_555 1_555
C39 O23 1_555 1_555
H106 C39 1_555 1_555
C42 O35 1_555 1_555
H109 C42 1_555 1_555
H112 C42 1_555 1_555
C45 O32 1_555 1_555
H113 C45 1_555 1_555
C48 O47 1_555 1_555
H116 C48 1_555 1_555
H119 C51 1_555 1_555
H122 C54 1_555 1_555
C55 O36 1_555 1_555
H125 C55 1_555 1_555
O44 C54 1_555 1_555
C27 C30 1_555 1_555
C30 C33 1_555 1_555
C36 C39 1_555 1_555
C39 C42 1_555 1_555
C45 C48 1_555 1_555
C48 C51 1_555 1_555
O51 H179 1_555 1_555
O75 H180 1_555 1_555
O85 H186 1_555 1_555
O92 H187 1_555 1_555
Cs2 O21 1_555 1_555
Cs7 O45 1_555 1_555
O21 C25 1_555 1_555
O24 H41 1_555 1_555
O27 H44 1_555 1_555
O30 C34 1_555 1_555
O33 Cs2 1_555 1_555
H47 O33 1_555 1_555
O38 C43 1_555 1_555
O40 H51 1_555 1_555
O42 C25 1_555 1_555
O45 H53 1_555 1_555
O49 Cs2 1_555 1_555
H57 O49 1_555 1_555
O54 H62 1_555 1_555
O58 Cs2 1_555 1_555
O73 Cs2 1_555 1_555
H72 O73 1_555 1_555
O83 Cs2 1_555 1_555
H79 O83 1_555 1_555
O90 Cs2 1_555 1_555
H86 O90 1_555 1_555
C25 H94 1_555 1_555
C28 O24 1_555 1_555
H97 C28 1_555 1_555
C31 O27 1_555 1_555
H100 C31 1_555 1_555
C34 C31 1_555 1_555
H101 C34 1_555 1_555
C37 O21 1_555 1_555
H104 C37 1_555 1_555
C40 O33 1_555 1_555
H107 C40 1_555 1_555
H110 C40 1_555 1_555
C43 O30 1_555 1_555
H115 C43 1_555 1_555
C46 O45 1_555 1_555
H118 C46 1_555 1_555
H121 C49 1_555 1_555
C52 O42 1_555 1_555
H124 C52 1_555 1_555
H127 C57 1_555 1_555
H129 C59 1_555 1_555
H132 C59 1_555 1_555
O38 C57 1_555 1_555
C25 C28 1_555 1_555
C28 C31 1_555 1_555
C34 C37 1_555 1_555
C37 C40 1_555 1_555
C43 C46 1_555 1_555
C46 C49 1_555 1_555
O49 H178 1_555 1_555
O83 H183 1_555 1_555
O73 H185 1_555 1_555
O90 H189 1_555 1_555
Cs1 O1 1_555 1_555
O1 C1 1_555 1_555
O2 H1 1_555 1_555
O3 H2 1_555 1_555
O4 C4 1_555 1_555
O5 Cs1 1_555 1_555
H3 O5 1_555 1_555
O6 C7 1_555 1_555
O8 C1 1_555 1_555
O9 H5 1_555 1_555
O10 H6 1_555 1_555
O11 Cs1 1_555 1_555
O12 H7 1_555 1_555
O13 H8 1_555 1_555
O14 C16 1_555 1_555
O15 Cs1 1_555 1_555
H9 O15 1_555 1_555
O16 C19 1_555 1_555
O17 H10 1_555 1_555
O18 H11 1_555 1_555
O19 C13 1_555 1_555
O20 H12 1_555 1_555
C1 H13 1_555 1_555
C2 O2 1_555 1_555
H14 C2 1_555 1_555
C3 O3 1_555 1_555
H15 C3 1_555 1_555
C4 C3 1_555 1_555
H16 C4 1_555 1_555
C5 O1 1_555 1_555
H17 C5 1_555 1_555
C6 O5 1_555 1_555
H18 C6 1_555 1_555
H19 C6 1_555 1_555
C7 O4 1_555 1_555
H20 C7 1_555 1_555
C8 O9 1_555 1_555
H21 C8 1_555 1_555
H22 C9 1_555 1_555
C10 O8 1_555 1_555
H23 C10 1_555 1_555
C11 O6 1_555 1_555
H24 C11 1_555 1_555
C13 O11 1_555 1_555
H27 C13 1_555 1_555
C14 O12 1_555 1_555
H28 C14 1_555 1_555
C15 O13 1_555 1_555
H29 C15 1_555 1_555
C16 C15 1_555 1_555
H30 C16 1_555 1_555
C17 O11 1_555 1_555
H31 C17 1_555 1_555
C18 O15 1_555 1_555
H32 C18 1_555 1_555
H33 C18 1_555 1_555
C19 O14 1_555 1_555
H34 C19 1_555 1_555
C20 O17 1_555 1_555
H35 C20 1_555 1_555
C21 O18 1_555 1_555
H36 C21 1_555 1_555
C22 O19 1_555 1_555
H37 C22 1_555 1_555
C23 O16 1_555 1_555
H38 C23 1_555 1_555
C24 O20 1_555 1_555
H39 C24 1_555 1_555
H40 C24 1_555 1_555
Cs5 O9 1_555 1_555
Cs9 O17 1_555 1_555
Cs7 O80 1_555 1_555
Cs8 O81 1_555 1_555
O39 H50 1_555 1_555
O48 Cs1 1_555 1_555
H56 O48 1_555 1_555
O58 C61 1_555 1_555
O59 C62 1_555 1_555
O60 C63 1_555 1_555
O61 H63 1_555 1_555
O62 H64 1_555 1_555
O63 H65 1_555 1_555
O64 H66 1_555 1_555
O65 H67 1_555 1_555
O66 H68 1_555 1_555
O67 C70 1_555 1_555
O68 C71 1_555 1_555
O69 C72 1_555 1_555
O76 C81 1_555 1_555
O77 C80 1_555 1_555
O78 C79 1_555 1_555
O79 Cs5 1_555 1_555
O80 H76 1_555 1_555
O81 H77 1_555 1_555
O82 Cs1 1_555 1_555
H75 O79 1_555 1_555
H78 O82 1_555 1_555
O86 Cs5 1_555 1_555
O87 Cs7 1_555 1_555
O88 Cs8 1_555 1_555
O89 Cs1 1_555 1_555
H82 O86 1_555 1_555
H83 O87 1_555 1_555
H84 O88 1_555 1_555
H85 O89 1_555 1_555
O93 C61 1_555 1_555
O94 C62 1_555 1_555
O95 C63 1_555 1_555
O96 H89 1_555 1_555
O97 H90 1_555 1_555
O98 H91 1_555 1_555
H130 C60 1_555 1_555
H133 C60 1_555 1_555
C61 H136 1_555 1_555
C62 H135 1_555 1_555
C63 H134 1_555 1_555
C64 O61 1_555 1_555
C65 O62 1_555 1_555
C66 O63 1_555 1_555
H137 C66 1_555 1_555
H138 C65 1_555 1_555
H139 C64 1_555 1_555
C67 O64 1_555 1_555
C68 O65 1_555 1_555
C69 O66 1_555 1_555
H140 C69 1_555 1_555
H141 C68 1_555 1_555
H142 C67 1_555 1_555
C70 C67 1_555 1_555
C71 C68 1_555 1_555
C72 C69 1_555 1_555
H143 C70 1_555 1_555
H144 C71 1_555 1_555
H145 C72 1_555 1_555
C73 O58 1_555 1_555
C74 O59 1_555 1_555
C75 O60 1_555 1_555
H146 C73 1_555 1_555
H147 C74 1_555 1_555
H148 C75 1_555 1_555
C76 O73 1_555 1_555
C77 O74 1_555 1_555
C78 O75 1_555 1_555
H149 C76 1_555 1_555
H150 C77 1_555 1_555
H151 C78 1_555 1_555
H152 C76 1_555 1_555
H153 C77 1_555 1_555
H154 C78 1_555 1_555
C79 O67 1_555 1_555
C80 O68 1_555 1_555
C81 O69 1_555 1_555
H155 C81 1_555 1_555
H156 C80 1_555 1_555
H157 C79 1_555 1_555
C82 O79 1_555 1_555
C83 O80 1_555 1_555
C84 O81 1_555 1_555
H158 C84 1_555 1_555
H159 C83 1_555 1_555
H160 C82 1_555 1_555
C85 C22 1_555 1_555
C86 O87 1_555 1_555
C87 O88 1_555 1_555
H161 C87 1_555 1_555
H162 C86 1_555 1_555
H163 C85 1_555 1_555
C88 O93 1_555 1_555
C89 O94 1_555 1_555
C90 C21 1_555 1_555
H164 C90 1_555 1_555
H165 C89 1_555 1_555
H166 C88 1_555 1_555
C91 O76 1_555 1_555
C92 O77 1_555 1_555
C93 C22 1_555 1_555
H167 C91 1_555 1_555
H168 C92 1_555 1_555
H169 C93 1_555 1_555
C94 O96 1_555 1_555
C95 O97 1_555 1_555
C96 O98 1_555 1_555
H170 C94 1_555 1_555
H171 C95 1_555 1_555
H172 C96 1_555 1_555
H173 C94 1_555 1_555
H174 C95 1_555 1_555
H175 C96 1_555 1_555
O18 Cs9 1_555 1_555
C1 C2 1_555 1_555
C2 C3 1_555 1_555
C4 C5 1_555 1_555
C5 C6 1_555 1_555
C7 C8 1_555 1_555
C8 C9 1_555 1_555
C13 C14 1_555 1_555
C14 C15 1_555 1_555
C16 C17 1_555 1_555
C17 C18 1_555 1_555
C19 C20 1_555 1_555
C20 C21 1_555 1_555
C23 C24 1_555 1_555
C23 C90 1_555 1_555
O78 C93 1_555 1_555
O86 C85 1_555 1_555
O95 C90 1_555 1_555
C61 C64 1_555 1_555
C62 C65 1_555 1_555
C63 C66 1_555 1_555
C64 C67 1_555 1_555
C65 C68 1_555 1_555
C66 C69 1_555 1_555
C70 C73 1_555 1_555
C71 C74 1_555 1_555
C72 C75 1_555 1_555
C73 C76 1_555 1_555
C74 C77 1_555 1_555
C75 C78 1_555 1_555
C79 C82 1_555 1_555
C80 C83 1_555 1_555
C81 C84 1_555 1_555
C82 C85 1_555 1_555
C83 C86 1_555 1_555
C84 C87 1_555 1_555
C86 C88 1_555 1_555
C87 C89 1_555 1_555
C88 C92 1_555 1_555
C89 C91 1_555 1_555
C91 C94 1_555 1_555
C92 C95 1_555 1_555
C93 C96 1_555 1_555
O48 H177 1_555 1_555
O82 H182 1_555 1_555
O89 H188 1_555 1_555
O15 H181_2 1_555 1_555
O1_2 C1_2 1_555 1_555
O2_2 H1_2 1_555 1_555
O3_2 H2_2 1_555 1_555
O4_2 C4_2 1_555 1_555
O6_2 C7_2 1_555 1_555
O7_2 H4_2 1_555 1_555
O8_2 C1_2 1_555 1_555
O12_2 H7_2 1_555 1_555
O13_2 H8_2 1_555 1_555
O19_2 C13_2 1_555 1_555
C1_2 H13_2 1_555 1_555
C2_2 O2_2 1_555 1_555
H14_2 C2_2 1_555 1_555
C3_2 O3_2 1_555 1_555
H15_2 C3_2 1_555 1_555
C4_2 C3_2 1_555 1_555
H16_2 C4_2 1_555 1_555
C5_2 O1_2 1_555 1_555
H17_2 C5_2 1_555 1_555
C7_2 O4_2 1_555 1_555
H20_2 C7_2 1_555 1_555
C8_2 O50 1_555 1_555
H21_2 C8_2 1_555 1_555
C9_2 O7_2 1_555 1_555
H22_2 C9_2 1_555 1_555
C10_2 O8_2 1_555 1_555
H23_2 C10_2 1_555 1_555
C11_2 O6_2 1_555 1_555
H24_2 C11_2 1_555 1_555
C13_2 O11_2 1_555 1_555
H27_2 C13_2 1_555 1_555
C14_2 O12_2 1_555 1_555
H28_2 C14_2 1_555 1_555
C15_2 O13_2 1_555 1_555
H29_2 C15_2 1_555 1_555
C16_2 C15_2 1_555 1_555
H30_2 C16_2 1_555 1_555
C17_2 O11_2 1_555 1_555
H31_2 C17_2 1_555 1_555
C22_2 O19_2 1_555 1_555
H37_2 C22_2 1_555 1_555
O21_2 C25_2 1_555 1_555
O22_2 C26_2 1_555 1_555
O23_2 C27_2 1_555 1_555
O24_2 H41_2 1_555 1_555
O25_2 H42_2 1_555 1_555
O26_2 H43_2 1_555 1_555
O27_2 H44_2 1_555 1_555
O28_2 H45_2 1_555 1_555
O29_2 H46_2 1_555 1_555
O30_2 C34_2 1_555 1_555
O31_2 C35_2 1_555 1_555
O32_2 C36_2 1_555 1_555
O36_2 C45_2 1_555 1_555
O37_2 C44_2 1_555 1_555
O38_2 C43_2 1_555 1_555
O39_2 H50_2 1_555 1_555
O40_2 H51_2 1_555 1_555
O41_2 H52_2 1_555 1_555
O42_2 C25_2 1_555 1_555
O43_2 C26_2 1_555 1_555
O44_2 C27_2 1_555 1_555
O78_2 C79_2 1_555 1_555
C25_2 H94_2 1_555 1_555
C26_2 H93_2 1_555 1_555
C27_2 H92_2 1_555 1_555
C28_2 O24_2 1_555 1_555
C29_2 O25_2 1_555 1_555
C30_2 O26_2 1_555 1_555
H95_2 C30_2 1_555 1_555
H96_2 C29_2 1_555 1_555
H97_2 C28_2 1_555 1_555
C31_2 O27_2 1_555 1_555
C32_2 O28_2 1_555 1_555
C33_2 O29_2 1_555 1_555
H98_2 C33_2 1_555 1_555
H99_2 C32_2 1_555 1_555
H100_2 C31_2 1_555 1_555
C34_2 C31_2 1_555 1_555
C35_2 C32_2 1_555 1_555
C36_2 C33_2 1_555 1_555
H101_2 C34_2 1_555 1_555
H102_2 C35_2 1_555 1_555
H103_2 C36_2 1_555 1_555
C37_2 O21_2 1_555 1_555
C38_2 O22_2 1_555 1_555
C39_2 O23_2 1_555 1_555
H104_2 C37_2 1_555 1_555
H105_2 C38_2 1_555 1_555
H106_2 C39_2 1_555 1_555
C43_2 O30_2 1_555 1_555
C44_2 O31_2 1_555 1_555
C45_2 O32_2 1_555 1_555
H113_2 C45_2 1_555 1_555
H114_2 C44_2 1_555 1_555
H115_2 C43_2 1_555 1_555
C46_2 O51 1_555 1_555
C47_2 O48 1_555 1_555
C48_2 O49 1_555 1_555
H116_2 C48_2 1_555 1_555
H117_2 C47_2 1_555 1_555
H118_2 C46_2 1_555 1_555
C49_2 C10_2 1_555 1_555
C50_2 O40_2 1_555 1_555
C51_2 O41_2 1_555 1_555
H119_2 C51_2 1_555 1_555
H120_2 C50_2 1_555 1_555
H121_2 C49_2 1_555 1_555
C52_2 O42_2 1_555 1_555
C53_2 O43_2 1_555 1_555
C54_2 C9_2 1_555 1_555
H122_2 C54_2 1_555 1_555
H123_2 C53_2 1_555 1_555
H124_2 C52_2 1_555 1_555
C55_2 O36_2 1_555 1_555
C56_2 O37_2 1_555 1_555
C57_2 C10_2 1_555 1_555
H125_2 C55_2 1_555 1_555
H126_2 C56_2 1_555 1_555
H127_2 C57_2 1_555 1_555
C79_2 O67_2 1_555 1_555
H157_2 C79_2 1_555 1_555
C82_2 O84 1_555 1_555
H160_2 C82_2 1_555 1_555
C85_2 C22_2 1_555 1_555
H163_2 C85_2 1_555 1_555
C93_2 C22_2 1_555 1_555
H169_2 C93_2 1_555 1_555
C1_2 C2_2 1_555 1_555
C2_2 C3_2 1_555 1_555
C4_2 C5_2 1_555 1_555
C7_2 C8_2 1_555 1_555
C8_2 C9_2 1_555 1_555
C11_2 C54_2 1_555 1_555
C13_2 C14_2 1_555 1_555
C14_2 C15_2 1_555 1_555
C16_2 C17_2 1_555 1_555
O38_2 C57_2 1_555 1_555
O39_2 C49_2 1_555 1_555
O44_2 C54_2 1_555 1_555
O78_2 C93_2 1_555 1_555
O91 C85_2 1_555 1_555
C25_2 C28_2 1_555 1_555
C26_2 C29_2 1_555 1_555
C27_2 C30_2 1_555 1_555
C28_2 C31_2 1_555 1_555
C29_2 C32_2 1_555 1_555
C30_2 C33_2 1_555 1_555
C34_2 C37_2 1_555 1_555
C35_2 C38_2 1_555 1_555
C36_2 C39_2 1_555 1_555
C43_2 C46_2 1_555 1_555
C44_2 C47_2 1_555 1_555
C45_2 C48_2 1_555 1_555
C46_2 C49_2 1_555 1_555
C47_2 C50_2 1_555 1_555
C48_2 C51_2 1_555 1_555
C50_2 C52_2 1_555 1_555
C51_2 C53_2 1_555 1_555
C52_2 C56_2 1_555 1_555
C53_2 C55_2 1_555 1_555
C79_2 C82_2 1_555 1_555
C82_2 C85_2 1_555 1_555
O5_2 Cs8 1_555 1_555
H3_2 O5_2 1_555 1_555
O10_2 H6_2 1_555 1_555
O15_2 Cs8 1_555 1_555
H9_2 O15_2 1_555 1_555
C6_2 O5_2 1_555 1_555
H18_2 C6_2 1_555 1_555
H19_2 C6_2 1_555 1_555
C12_2 O10_2 1_555 1_555
H25_2 C12_2 1_555 1_555
H26_2 C12_2 1_555 1_555
C18_2 O15_2 1_555 1_555
H32_2 C18_2 1_555 1_555
H33_2 C18_2 1_555 1_555
O33_2 Cs9 1_555 1_555
O34_2 Cs5 1_555 1_555
O35_2 Cs7 1_555 1_555
H47_2 O33_2 1_555 1_555
H48_2 O34_2 1_555 1_555
H49_2 O35_2 1_555 1_555
O52_2 H60_2 1_555 1_555
O53_2 H61_2 1_555 1_555
O54_2 H62_2 1_555 1_555
O73_2 Cs9 1_555 1_555
O74_2 Cs5 1_555 1_555
O75_2 Cs7 1_555 1_555
H72_2 O73_2 1_555 1_555
H73_2 O74_2 1_555 1_555
H74_2 O75_2 1_555 1_555
O98_2 H91_2 1_555 1_555
C40_2 O33_2 1_555 1_555
C41_2 O34_2 1_555 1_555
C42_2 O35_2 1_555 1_555
H107_2 C40_2 1_555 1_555
H108_2 C41_2 1_555 1_555
H109_2 C42_2 1_555 1_555
H110_2 C40_2 1_555 1_555
H111_2 C41_2 1_555 1_555
H112_2 C42_2 1_555 1_555
C58_2 O52_2 1_555 1_555
C59_2 O53_2 1_555 1_555
C60_2 O54_2 1_555 1_555
H128_2 C58_2 1_555 1_555
H129_2 C59_2 1_555 1_555
H130_2 C60_2 1_555 1_555
H131_2 C58_2 1_555 1_555
H132_2 C59_2 1_555 1_555
H133_2 C60_2 1_555 1_555
C96_2 O98_2 1_555 1_555
H172_2 C96_2 1_555 1_555
H175_2 C96_2 1_555 1_555
O9 H176_2 1_555 1_555
O46 H177_2 1_555 1_555
O47 H178_2 1_555 1_555
O45 H179_2 1_555 1_555
O75_2 H180_2 1_555 1_555
O74_2 H181_3 1_555 1_555
O81 H182_2 1_555 1_555
O17 H183_2 1_555 1_555
O79 H184_2 1_555 1_555
O73_2 H185_2 1_555 1_555
O80 H186_2 1_555 1_555
O87 H187_2 1_555 1_555
O88 H188_2 1_555 1_555
O18 H189_2 1_555 1_555
O86 H190_2 1_555 1_555
O58_2 C61_2 1_555 1_555
O61_2 H63_2 1_555 1_555
O64_2 H66_2 1_555 1_555
O77_2 C80_2 1_555 1_555
O93_2 C61_2 1_555 1_555
C61_2 H136_2 1_555 1_555
C64_2 O61_2 1_555 1_555
H139_2 C64_2 1_555 1_555
C67_2 O64_2 1_555 1_555
H142_2 C67_2 1_555 1_555
C70_2 C67_2 1_555 1_555
H143_2 C70_2 1_555 1_555
C73_2 O58_2 1_555 1_555
H146_2 C73_2 1_555 1_555
C80_2 O68_2 1_555 1_555
H156_2 C80_2 1_555 1_555
C83_2 O85 1_555 1_555
H159_2 C83_2 1_555 1_555
C86_2 O92 1_555 1_555
H162_2 C86_2 1_555 1_555
C88_2 O93_2 1_555 1_555
H166_2 C88_2 1_555 1_555
C92_2 O77_2 1_555 1_555
H168_2 C92_2 1_555 1_555
C61_2 C64_2 1_555 1_555
C64_2 C67_2 1_555 1_555
C70_2 C73_2 1_555 1_555
C80_2 C83_2 1_555 1_555
C83_2 C86_2 1_555 1_555
C86_2 C88_2 1_555 1_555
C88_2 C92_2 1_555 1_555
O97_2 H90_2 1_555 1_555
C76_2 O73_2 1_555 1_555
H149_2 C76_2 1_555 1_555
H152_2 C76_2 1_555 1_555
C95_2 O97_2 1_555 1_555
H171_2 C95_2 1_555 1_555
H174_2 C95_2 1_555 1_555
O16_2 C19_2 1_555 1_555
C19_2 O14_2 1_555 1_555
H34_2 C19_2 1_555 1_555
C20_2 O83 1_555 1_555
H35_2 C20_2 1_555 1_555
C21_2 O90 1_555 1_555
H36_2 C21_2 1_555 1_555
C23_2 O16_2 1_555 1_555
H38_2 C23_2 1_555 1_555
O60_2 C63_2 1_555 1_555
O63_2 H65_2 1_555 1_555
O66_2 H68_2 1_555 1_555
O95_2 C63_2 1_555 1_555
C63_2 H134_2 1_555 1_555
C66_2 O63_2 1_555 1_555
H137_2 C66_2 1_555 1_555
C69_2 O66_2 1_555 1_555
H140_2 C69_2 1_555 1_555
C72_2 C69_2 1_555 1_555
H145_2 C72_2 1_555 1_555
C75_2 O60_2 1_555 1_555
H148_2 C75_2 1_555 1_555
C90_2 C21_2 1_555 1_555
H164_2 C90_2 1_555 1_555
C19_2 C20_2 1_555 1_555
C20_2 C21_2 1_555 1_555
C23_2 C90_2 1_555 1_555
O95_2 C90_2 1_555 1_555
C63_2 C66_2 1_555 1_555
C66_2 C69_2 1_555 1_555
C72_2 C75_2 1_555 1_555
O20_2 H12_2 1_555 1_555
C24_2 O20_2 1_555 1_555
H39_2 C24_2 1_555 1_555
H40_2 C24_2 1_555 1_555
C78_2 O75_2 1_555 1_555
H151_2 C78_2 1_555 1_555
H154_2 C78_2 1_555 1_555
O59_2 C62_2 1_555 1_555
O62_2 H64_2 1_555 1_555
O65_2 H67_2 1_555 1_555
O76_2 C81_2 1_555 1_555
O94_2 C62_2 1_555 1_555
C62_2 H135_2 1_555 1_555
C65_2 O62_2 1_555 1_555
H138_2 C65_2 1_555 1_555
C68_2 O65_2 1_555 1_555
H141_2 C68_2 1_555 1_555
C71_2 C68_2 1_555 1_555
H144_2 C71_2 1_555 1_555
C74_2 O59_2 1_555 1_555
H147_2 C74_2 1_555 1_555
C81_2 O69_2 1_555 1_555
H155_2 C81_2 1_555 1_555
C84_2 O82 1_555 1_555
H158_2 C84_2 1_555 1_555
C87_2 O89 1_555 1_555
H161_2 C87_2 1_555 1_555
C89_2 O94_2 1_555 1_555
H165_2 C89_2 1_555 1_555
C91_2 O76_2 1_555 1_555
H167_2 C91_2 1_555 1_555
C62_2 C65_2 1_555 1_555
C65_2 C68_2 1_555 1_555
C71_2 C74_2 1_555 1_555
C81_2 C84_2 1_555 1_555
C84_2 C87_2 1_555 1_555
C87_2 C89_2 1_555 1_555
C89_2 C91_2 1_555 1_555
O96_2 H89_2 1_555 1_555
C77_2 O74_2 1_555 1_555
H150_2 C77_2 1_555 1_555
H153_2 C77_2 1_555 1_555
C94_2 O96_2 1_555 1_555
H170_2 C94_2 1_555 1_555
H173_2 C94_2 1_555 1_555
O15_2 H181_4 1_555 1_555

#END
