
###############################################################################
#
# This file contains modified crystal structure data generated from the
# MOF subset of the Cambridge Structural Database (CSD) v543 
# hosted by the Cambridge Crystallographic Data Centre (CCDC).
#
# This work is licensed under the Creative Commons
# Attribution-NonCommercial-ShareAlike 4.0 International License.
# To view a copy of this license, visit
# http://creativecommons.org/licenses/by-nc-sa/4.0/
# or send a letter to
# Creative Commons, PO Box 1866, Mountain View, CA 94042, USA.
#
# CIF created using the CSD Python API on 29 September 2022
# The structure has been converted into the P1 space group
# The structure has a 3D framework
# The original CSD entry YAPRUE01 is in the tetragonal crystal system
# The original CSD entry YAPRUE01 is in a Sohncke space group
# The framework has been calculated to contain at least 10.0% void space
# The void calculation uses a probe of radius 1.32A, grid spacing 0.4
# H atom positions have been added when not included in the experimental data
#
###############################################################################

data_YAPRUE01
_chemical_formula_moiety         '(C192 H288 Cs8 O160)n'
_symmetry_cell_setting           triclinic
_symmetry_space_group_name_H-M   'P 1'
_symmetry_Int_Tables_number      1
_space_group_name_Hall           'P 1'
loop_
_symmetry_equiv_pos_site_id
_symmetry_equiv_pos_as_xyz
1 x,y,z
_cell_length_a                   24.1489(4)
_cell_length_b                   24.1489(4)
_cell_length_c                   15.4420(3)
_cell_angle_alpha                90
_cell_angle_beta                 90
_cell_angle_gamma                90
_cell_volume                     9005.3
loop_
_atom_site_label
_atom_site_type_symbol
_atom_site_fract_x
_atom_site_fract_y
_atom_site_fract_z
Cs6 Cs 0.66938(2) 0.16740(2) 0.07829(3)
Cs8 Cs 0.33062(2) 0.83260(2) 0.07829(3)
Cs10 Cs 0.83260(2) 0.66938(2) 0.07829(3)
Cs12 Cs 0.16740(2) 0.33062(2) 0.07829(3)
Cs1 Cs 0.16938(2) 0.66740(2) 0.57829(3)
O1 O 0.31613(12) 0.65579(12) 0.80987(19)
O2 O 0.24695(13) 0.65617(14) 0.9443(2)
H1 H 0.254585 0.688871 0.930069
O3 O 0.24833(12) 0.61954(12) 0.71591(19)
O4 O 0.25326(14) 0.38800(13) 0.4653(2)
H2 H 0.218998 0.393234 0.469875
O5 O 0.38913(12) 0.29011(12) 0.2922(2)
O6 O 0.25366(12) 0.47898(11) 0.8087(2)
O7 O 0.27140(12) 0.43006(12) 0.2993(2)
O8 O 0.20955(12) 0.48409(12) 0.4346(2)
H3 H 0.231011 0.460864 0.457211
O9 O 0.24564(13) 0.41035(14) 0.7040(2)
O10 O 0.34726(15) 0.31007(13) 0.4569(2)
H4 H 0.379377 0.321573 0.467571
O11 O 0.25181(12) 0.34447(12) 0.23780(19)
O12 O 0.32022(13) 0.74379(13) 0.9315(2)
O13 O 0.43834(13) 0.23476(15) 0.1982(2)
O14 O 0.20896(13) 0.60328(12) 0.4217(2)
O15 O 0.20648(14) 0.53667(14) 0.6070(2)
H5 H 0.1971(15) 0.5034(8) 0.590(4)
O16 O 0.33115(13) 0.40637(17) 0.5741(3)
H6 H 0.315468 0.396230 0.528176
O17 O 0.20840(16) 0.54144(16) 0.9448(2)
H7 H 0.175618 0.538860 0.927104
O18 O 0.19075(14) 0.41965(14) 0.9248(3)
O19 O 0.27695(15) 0.24838(14) 0.1525(2)
C1 C 0.23788(18) 0.51273(18) 0.3665(3)
H8 H 0.276808 0.520527 0.384907
C2 C 0.29938(17) 0.38747(18) 0.7222(3)
H9 H 0.324149 0.416799 0.746461
C3 C 0.32579(19) 0.33831(19) 0.3824(3)
H10 H 0.347222 0.373202 0.372749
C4 C 0.24407(18) 0.37908(17) 0.3113(3)
H11 H 0.203548 0.386671 0.317272
C5 C 0.40482(19) 0.23506(18) 0.2710(3)
H12 H 0.370480 0.213610 0.257474
C6 C 0.30885(18) 0.33023(17) 0.2250(3)
H13 H 0.330469 0.364981 0.215087
C7 C 0.22970(17) 0.62582(19) 0.8692(3)
H14 H 0.188788 0.630408 0.862167
C8 C 0.22110(16) 0.43523(17) 0.7777(3)
H15 H 0.183992 0.450148 0.760925
C9 C 0.3232(2) 0.3655(2) 0.6391(3)
H16 H 0.359310 0.347843 0.651768
H17 H 0.298209 0.336536 0.616189
C10 C 0.25843(17) 0.65153(17) 0.7906(3)
H18 H 0.243244 0.689586 0.781177
C11 C 0.26381(19) 0.35237(19) 0.3938(3)
H19 H 0.242832 0.317108 0.402530
C12 C 0.33223(18) 0.30069(18) 0.3044(3)
H20 H 0.311940 0.265157 0.314312
C13 C 0.21337(18) 0.39359(18) 0.8502(3)
H21 H 0.186614 0.364726 0.830082
C14 C 0.3106(2) 0.29560(19) 0.1432(3)
H22 H 0.342374 0.297009 0.101716
C15 C 0.36496(18) 0.73193(19) 0.8723(3)
H23 H 0.391824 0.705435 0.898945
C16 C 0.34051(18) 0.70755(18) 0.7879(3)
H24 H 0.311649 0.733069 0.764195
C17 C 0.23851(17) 0.47811(16) 0.2849(3)
H25 H 0.199895 0.467047 0.269138
C18 C 0.20811(17) 0.56715(16) 0.3492(3)
H26 H 0.168652 0.558805 0.334522
C19 C 0.48944(19) 0.2646(2) 0.2107(3)
H27 H 0.481438 0.304319 0.224036
C20 C 0.26691(19) 0.56333(17) 0.7226(3)
H28 H 0.306819 0.563495 0.739882
C21 C 0.5222(2) 0.2601(3) 0.1253(3)
H29 H 0.556859 0.241694 0.120620
C22 C 0.24229(18) 0.56502(19) 0.8781(3)
H30 H 0.281978 0.560891 0.895404
C23 C 0.2622(2) 0.53794(19) 0.6330(3)
H31 H 0.284072 0.560026 0.591217
H32 H 0.277322 0.499838 0.633797
C24 C 0.23364(17) 0.53471(17) 0.7938(3)
H33 H 0.193423 0.534061 0.778380
O20 O 0.4964(3) 0.2855(3) 0.0568(3)
H34 H 0.500728 0.266352 0.011879
O21 O 0.34421(12) 0.31613(12) 0.80987(19)
O22 O 0.34383(14) 0.24695(13) 0.9443(2)
H35 H 0.311129 0.254585 0.930069
O23 O 0.38046(12) 0.24833(12) 0.71591(19)
O24 O 0.52102(11) 0.25366(12) 0.8087(2)
O25 O 0.58965(14) 0.24564(13) 0.7040(2)
O26 O 0.25621(13) 0.32022(13) 0.9315(2)
O27 O 0.46333(14) 0.20648(14) 0.6070(2)
H36 H 0.4966(8) 0.1971(15) 0.590(4)
O28 O 0.59363(17) 0.33115(13) 0.5741(3)
H37 H 0.603770 0.315468 0.528176
O29 O 0.45856(16) 0.20840(16) 0.9448(2)
H38 H 0.461140 0.175618 0.927104
O30 O 0.58035(14) 0.19075(14) 0.9248(3)
C25 C 0.61253(18) 0.29938(17) 0.7222(3)
H39 H 0.583201 0.324149 0.746461
C26 C 0.37418(19) 0.22970(17) 0.8692(3)
H40 H 0.369592 0.188788 0.862167
C27 C 0.56477(17) 0.22110(16) 0.7777(3)
H41 H 0.549852 0.183992 0.760925
C28 C 0.6345(2) 0.3232(2) 0.6391(3)
H42 H 0.652157 0.359310 0.651768
H43 H 0.663464 0.298209 0.616189
C29 C 0.34847(17) 0.25843(17) 0.7906(3)
H44 H 0.310414 0.243244 0.781177
C30 C 0.60641(18) 0.21337(18) 0.8502(3)
H45 H 0.635274 0.186614 0.830082
C31 C 0.26807(19) 0.36496(18) 0.8723(3)
H46 H 0.294565 0.391824 0.898945
C32 C 0.29245(18) 0.34051(18) 0.7879(3)
H47 H 0.266931 0.311649 0.764195
C33 C 0.43667(17) 0.26691(19) 0.7226(3)
H48 H 0.436505 0.306819 0.739882
C34 C 0.43498(19) 0.24229(18) 0.8781(3)
H49 H 0.439109 0.281978 0.895404
C35 C 0.46206(19) 0.2622(2) 0.6330(3)
H50 H 0.439974 0.284072 0.591217
H51 H 0.500162 0.277322 0.633797
C36 C 0.46529(17) 0.23364(17) 0.7938(3)
H52 H 0.465939 0.193423 0.778380
O31 O 0.65579(12) 0.68387(12) 0.80987(19)
O32 O 0.65617(14) 0.75305(13) 0.9443(2)
H53 H 0.688871 0.745415 0.930069
O33 O 0.61954(12) 0.75167(12) 0.71591(19)
O34 O 0.47898(11) 0.74634(12) 0.8087(2)
O35 O 0.41035(14) 0.75436(13) 0.7040(2)
O36 O 0.74379(13) 0.67978(13) 0.9315(2)
O37 O 0.53667(14) 0.79352(14) 0.6070(2)
H54 H 0.5034(8) 0.8029(15) 0.590(4)
O38 O 0.40637(17) 0.66885(13) 0.5741(3)
H55 H 0.396230 0.684532 0.528176
O39 O 0.54144(16) 0.79160(16) 0.9448(2)
H56 H 0.538860 0.824382 0.927104
O40 O 0.41965(14) 0.80925(14) 0.9248(3)
C37 C 0.38747(18) 0.70062(17) 0.7222(3)
H57 H 0.416799 0.675851 0.746461
C38 C 0.62582(19) 0.77030(17) 0.8692(3)
H58 H 0.630408 0.811212 0.862167
C39 C 0.43523(17) 0.77890(16) 0.7777(3)
H59 H 0.450148 0.816008 0.760925
C40 C 0.3655(2) 0.6768(2) 0.6391(3)
H60 H 0.347843 0.640690 0.651768
H61 H 0.336536 0.701791 0.616189
C41 C 0.65153(17) 0.74157(17) 0.7906(3)
H62 H 0.689586 0.756756 0.781177
C42 C 0.39359(18) 0.78663(18) 0.8502(3)
H63 H 0.364726 0.813386 0.830082
C43 C 0.73193(19) 0.63504(18) 0.8723(3)
H64 H 0.705435 0.608176 0.898945
C44 C 0.70755(18) 0.65949(18) 0.7879(3)
H65 H 0.733069 0.688351 0.764195
C45 C 0.56333(17) 0.73309(19) 0.7226(3)
H66 H 0.563495 0.693181 0.739882
C46 C 0.56502(19) 0.75771(18) 0.8781(3)
H67 H 0.560891 0.718022 0.895404
C47 C 0.53794(19) 0.7378(2) 0.6330(3)
H68 H 0.560026 0.715928 0.591217
H69 H 0.499838 0.722678 0.633797
C48 C 0.53471(17) 0.76636(17) 0.7938(3)
H70 H 0.534061 0.806577 0.778380
O41 O 0.68387(12) 0.34421(12) 0.80987(19)
O42 O 0.75305(13) 0.34383(14) 0.9443(2)
H71 H 0.745415 0.311129 0.930069
O43 O 0.75167(12) 0.38046(12) 0.71591(19)
O44 O 0.74634(12) 0.52102(11) 0.8087(2)
O45 O 0.75436(13) 0.58965(14) 0.7040(2)
O46 O 0.67978(13) 0.25621(13) 0.9315(2)
O47 O 0.79352(14) 0.46333(14) 0.6070(2)
H72 H 0.8029(15) 0.4966(8) 0.590(4)
O48 O 0.66885(13) 0.59363(17) 0.5741(3)
H73 H 0.684532 0.603770 0.528176
O49 O 0.79160(16) 0.45856(16) 0.9448(2)
H74 H 0.824382 0.461140 0.927104
O50 O 0.80925(14) 0.58035(14) 0.9248(3)
C49 C 0.70062(17) 0.61253(18) 0.7222(3)
H75 H 0.675851 0.583201 0.746461
C50 C 0.77030(17) 0.37418(19) 0.8692(3)
H76 H 0.811212 0.369592 0.862167
C51 C 0.77890(16) 0.56477(17) 0.7777(3)
H77 H 0.816008 0.549852 0.760925
C52 C 0.6768(2) 0.6345(2) 0.6391(3)
H78 H 0.640690 0.652157 0.651768
H79 H 0.701791 0.663464 0.616189
C53 C 0.74157(17) 0.34847(17) 0.7906(3)
H80 H 0.756756 0.310414 0.781177
C54 C 0.78663(18) 0.60641(18) 0.8502(3)
H81 H 0.813386 0.635274 0.830082
C55 C 0.63504(18) 0.26807(19) 0.8723(3)
H82 H 0.608176 0.294565 0.898945
C56 C 0.65949(18) 0.29245(18) 0.7879(3)
H83 H 0.688351 0.266931 0.764195
C57 C 0.73309(19) 0.43667(17) 0.7226(3)
H84 H 0.693181 0.436505 0.739882
C58 C 0.75771(18) 0.43498(19) 0.8781(3)
H85 H 0.718022 0.439109 0.895404
C59 C 0.7378(2) 0.46206(19) 0.6330(3)
H86 H 0.715928 0.439974 0.591217
H87 H 0.722678 0.500162 0.633797
C60 C 0.76636(17) 0.46529(17) 0.7938(3)
H88 H 0.806577 0.465939 0.778380
O51 O 0.61200(13) 0.25326(14) 0.4653(2)
H89 H 0.606766 0.218998 0.469875
O52 O 0.70989(12) 0.38913(12) 0.2922(2)
O53 O 0.56994(12) 0.27140(12) 0.2993(2)
O54 O 0.51591(12) 0.20955(12) 0.4346(2)
H90 H 0.539136 0.231011 0.457211
O55 O 0.68993(13) 0.34726(15) 0.4569(2)
H91 H 0.678427 0.379377 0.467571
O56 O 0.65553(12) 0.25181(12) 0.23780(19)
O57 O 0.76524(15) 0.43834(13) 0.1982(2)
O58 O 0.39672(12) 0.20896(13) 0.4217(2)
O59 O 0.75162(14) 0.27695(15) 0.1525(2)
C61 C 0.48727(18) 0.23788(18) 0.3665(3)
H92 H 0.479473 0.276808 0.384907
C62 C 0.66169(19) 0.32579(19) 0.3824(3)
H93 H 0.626798 0.347222 0.372749
C63 C 0.62092(17) 0.24407(18) 0.3113(3)
H94 H 0.613329 0.203548 0.317272
C64 C 0.76494(18) 0.40482(19) 0.2710(3)
H95 H 0.786390 0.370480 0.257474
C65 C 0.66977(17) 0.30885(18) 0.2250(3)
H96 H 0.635019 0.330469 0.215087
C66 C 0.64763(19) 0.26381(19) 0.3938(3)
H97 H 0.682892 0.242832 0.402530
C67 C 0.69931(18) 0.33223(18) 0.3044(3)
H98 H 0.734843 0.311940 0.314312
C68 C 0.70440(19) 0.3106(2) 0.1432(3)
H99 H 0.702991 0.342374 0.101716
C69 C 0.52189(16) 0.23851(17) 0.2849(3)
H100 H 0.532953 0.199895 0.269138
C70 C 0.43285(16) 0.20811(17) 0.3492(3)
H101 H 0.441195 0.168652 0.334522
C71 C 0.7354(2) 0.48944(19) 0.2107(3)
H102 H 0.695681 0.481438 0.224036
C72 C 0.7399(3) 0.5222(2) 0.1253(3)
H103 H 0.758306 0.556859 0.120620
O60 O 0.7145(3) 0.4964(3) 0.0568(3)
H104 H 0.733648 0.500728 0.011879
O61 O 0.38800(13) 0.74674(14) 0.4653(2)
H105 H 0.393234 0.781002 0.469875
O62 O 0.29011(12) 0.61087(12) 0.2922(2)
O63 O 0.43006(12) 0.72860(12) 0.2993(2)
O64 O 0.48409(12) 0.79045(12) 0.4346(2)
H106 H 0.460864 0.768989 0.457211
O65 O 0.31007(13) 0.65274(15) 0.4569(2)
H107 H 0.321573 0.620623 0.467571
O66 O 0.34447(12) 0.74819(12) 0.23780(19)
O67 O 0.23476(15) 0.56166(13) 0.1982(2)
O68 O 0.60328(12) 0.79104(13) 0.4217(2)
O69 O 0.24838(14) 0.72305(15) 0.1525(2)
C73 C 0.51273(18) 0.76212(18) 0.3665(3)
H108 H 0.520527 0.723192 0.384907
C74 C 0.33831(19) 0.67421(19) 0.3824(3)
H109 H 0.373202 0.652778 0.372749
C75 C 0.37908(17) 0.75593(18) 0.3113(3)
H110 H 0.386671 0.796452 0.317272
C76 C 0.23506(18) 0.59518(19) 0.2710(3)
H111 H 0.213610 0.629520 0.257474
C77 C 0.33023(17) 0.69115(18) 0.2250(3)
H112 H 0.364981 0.669531 0.215087
C78 C 0.35237(19) 0.73619(19) 0.3938(3)
H113 H 0.317108 0.757168 0.402530
C79 C 0.30069(18) 0.66777(18) 0.3044(3)
H114 H 0.265157 0.688060 0.314312
C80 C 0.29560(19) 0.6894(2) 0.1432(3)
H115 H 0.297009 0.657626 0.101716
C81 C 0.47811(16) 0.76149(17) 0.2849(3)
H116 H 0.467047 0.800105 0.269138
C82 C 0.56715(16) 0.79189(17) 0.3492(3)
H117 H 0.558805 0.831348 0.334522
C83 C 0.2646(2) 0.51056(19) 0.2107(3)
H118 H 0.304319 0.518562 0.224036
C84 C 0.2601(3) 0.4778(2) 0.1253(3)
H119 H 0.241694 0.443141 0.120620
O70 O 0.2855(3) 0.5036(3) 0.0568(3)
H120 H 0.266352 0.499272 0.011879
O71 O 0.74674(14) 0.61200(13) 0.4653(2)
H121 H 0.781002 0.606766 0.469875
O72 O 0.61087(12) 0.70989(12) 0.2922(2)
O73 O 0.72860(12) 0.56994(12) 0.2993(2)
O74 O 0.79045(12) 0.51591(12) 0.4346(2)
H122 H 0.768989 0.539136 0.457211
O75 O 0.65274(15) 0.68993(13) 0.4569(2)
H123 H 0.620623 0.678427 0.467571
O76 O 0.74819(12) 0.65553(12) 0.23780(19)
O77 O 0.56166(13) 0.76524(15) 0.1982(2)
O78 O 0.79104(13) 0.39672(12) 0.4217(2)
O79 O 0.72305(15) 0.75162(14) 0.1525(2)
C85 C 0.76212(18) 0.48727(18) 0.3665(3)
H124 H 0.723192 0.479473 0.384907
C86 C 0.67421(19) 0.66169(19) 0.3824(3)
H125 H 0.652778 0.626798 0.372749
C87 C 0.75593(18) 0.62092(17) 0.3113(3)
H126 H 0.796452 0.613329 0.317272
C88 C 0.59518(19) 0.76494(18) 0.2710(3)
H127 H 0.629520 0.786390 0.257474
C89 C 0.69115(18) 0.66977(17) 0.2250(3)
H128 H 0.669531 0.635019 0.215087
C90 C 0.73619(19) 0.64763(19) 0.3938(3)
H129 H 0.757168 0.682892 0.402530
C91 C 0.66777(18) 0.69931(18) 0.3044(3)
H130 H 0.688060 0.734843 0.314312
C92 C 0.6894(2) 0.70440(19) 0.1432(3)
H131 H 0.657626 0.702991 0.101716
C93 C 0.76149(17) 0.52189(16) 0.2849(3)
H132 H 0.800105 0.532953 0.269138
C94 C 0.79189(17) 0.43285(16) 0.3492(3)
H133 H 0.831348 0.441195 0.334522
C95 C 0.51056(19) 0.7354(2) 0.2107(3)
H134 H 0.518562 0.695681 0.224036
C96 C 0.4778(2) 0.7399(3) 0.1253(3)
H135 H 0.443141 0.758306 0.120620
O80 O 0.5036(3) 0.7145(3) 0.0568(3)
H136 H 0.499272 0.733648 0.011879
Cs2 Cs 0.83062(2) 0.33260(2) 0.57829(3)
Cs3 Cs 0.33260(2) 0.16938(2) 0.57829(3)
Cs4 Cs 0.66740(2) 0.83062(2) 0.57829(3)
O81 O 0.75181(12) 0.84447(12) 0.73780(19)
O82 O 0.24819(12) 0.15553(12) 0.73780(19)
O83 O 0.15553(12) 0.75181(12) 0.73780(19)
O84 O 0.84447(12) 0.24819(12) 0.73780(19)
O85 O 0.82022(13) 0.24379(13) 0.4315(2)
O86 O 0.17978(13) 0.75621(13) 0.4315(2)
O87 O 0.75621(13) 0.82022(13) 0.4315(2)
O88 O 0.24379(13) 0.17978(13) 0.4315(2)
O89 O 0.69075(14) 0.91965(14) 0.4248(3)
O90 O 0.30925(14) 0.08035(14) 0.4248(3)
O91 O 0.08035(14) 0.69075(14) 0.4248(3)
O92 O 0.91965(14) 0.30925(14) 0.4248(3)
O93 O 0.77695(15) 0.74838(14) 0.6525(2)
O94 O 0.22305(15) 0.25162(14) 0.6525(2)
O95 O 0.25162(14) 0.77695(15) 0.6525(2)
O96 O 0.74838(14) 0.22305(15) 0.6525(2)
H137 H 0.281699 0.32029 0.105257
H138 H 0.778419 0.500849 0.11014
H139 H 0.67971 0.281699 0.105257
H140 H 0.500849 0.221581 0.11014
H141 H 0.32029 0.718301 0.105257
H142 H 0.718301 0.67971 0.105257
H143 H 0.221581 0.499151 0.11014
H144 H 0.499151 0.778419 0.11014
O31_2 O 0.15579(12) 0.18387(12) 0.30987(19)
O32_2 O 0.15617(14) 0.25305(13) 0.4443(2)
H53_2 H 0.188871 0.245415 0.430069
O33_2 O 0.11954(12) 0.25167(12) 0.21591(19)
O37_2 O 0.03667(14) 0.29352(14) 0.1070(2)
H54_2 H 0.0034(8) 0.3029(15) 0.090(4)
O39_2 O 0.04144(16) 0.29160(16) 0.4448(2)
H56_2 H 0.038860 0.324382 0.427104
C38_2 C 0.12582(19) 0.27030(17) 0.3692(3)
H58_2 H 0.130408 0.311212 0.362167
C41_2 C 0.15153(17) 0.24157(17) 0.2906(3)
H62_2 H 0.189586 0.256756 0.281177
C43_2 C 0.23193(19) 0.13504(18) 0.3723(3)
H64_2 H 0.205435 0.108176 0.398945
C44_2 C 0.20755(18) 0.15949(18) 0.2879(3)
H65_2 H 0.233069 0.188351 0.264195
C45_2 C 0.06333(17) 0.23309(19) 0.2226(3)
H66_2 H 0.063495 0.193181 0.239882
C46_2 C 0.06502(19) 0.25771(18) 0.3781(3)
H67_2 H 0.060891 0.218022 0.395404
C47_2 C 0.03794(19) 0.2378(2) 0.1330(3)
H68_2 H 0.060026 0.215928 0.091217
C48_2 C 0.03471(17) 0.26636(17) 0.2938(3)
H70_2 H 0.034061 0.306577 0.278380
O44_2 O 0.24634(12) 0.02102(11) 0.3087(2)
O45_2 O 0.25436(13) 0.08965(14) 0.2040(2)
O48_2 O 0.16885(13) 0.09363(17) 0.0741(3)
H73_2 H 0.184532 0.103770 0.028176
C49_2 C 0.20062(17) 0.11253(18) 0.2222(3)
H75_2 H 0.175851 0.083201 0.246461
C51_2 C 0.27890(16) 0.06477(17) 0.2777(3)
H77_2 H 0.316008 0.049852 0.260925
C52_2 C 0.1768(2) 0.1345(2) 0.1391(3)
H78_2 H 0.140690 0.152157 0.151768
H79_2 H 0.201791 0.163464 0.116189
C54_2 C 0.28663(18) 0.10641(18) 0.3502(3)
H81_2 H 0.313386 0.135274 0.330082
H87_2 H 0.222678 0.000162 0.133797
C72_2 C 0.2399(3) 0.0222(2) 0.6253(3)
H103_2 H 0.258306 0.056859 0.620620
H104_2 H 0.233648 0.000728 0.511879
O68_2 O 0.10328(12) 0.29104(13) 0.9217(2)
C73_2 C 0.01273(18) 0.26212(18) 0.8665(3)
H108_2 H 0.020527 0.223192 0.884907
C82_2 C 0.06715(16) 0.29189(17) 0.8492(3)
H117_2 H 0.058805 0.331348 0.834522
O71_2 O 0.24674(14) 0.11200(13) 0.9653(2)
H121_2 H 0.281002 0.106766 0.969875
O72_2 O 0.11087(12) 0.20989(12) 0.7922(2)
O73_2 O 0.22860(12) 0.06994(12) 0.7993(2)
O74_2 O 0.29045(12) 0.01591(12) 0.9346(2)
H122_2 H 0.268989 0.039136 0.957211
O75_2 O 0.15274(15) 0.18993(13) 0.9569(2)
H123_2 H 0.120623 0.178427 0.967571
O77_2 O 0.06166(13) 0.26524(15) 0.6982(2)
C86_2 C 0.17421(19) 0.16169(19) 0.8824(3)
H125_2 H 0.152778 0.126798 0.872749
C87_2 C 0.25593(18) 0.12092(17) 0.8113(3)
H126_2 H 0.296452 0.113329 0.817272
C88_2 C 0.09518(19) 0.26494(18) 0.7710(3)
H127_2 H 0.129520 0.286390 0.757474
C89_2 C 0.19115(18) 0.16977(17) 0.7250(3)
H128_2 H 0.169531 0.135019 0.715087
C90_2 C 0.23619(19) 0.14763(19) 0.8938(3)
H129_2 H 0.257168 0.182892 0.902530
C91_2 C 0.16777(18) 0.19931(18) 0.8044(3)
H130_2 H 0.188060 0.234843 0.814312
C92_2 C 0.1894(2) 0.20440(19) 0.6432(3)
H131_2 H 0.157626 0.202991 0.601716
C93_2 C 0.26149(17) 0.02189(16) 0.7849(3)
H132_2 H 0.300105 0.032953 0.769138
C95_2 C 0.01056(19) 0.2354(2) 0.7107(3)
H134_2 H 0.018562 0.195681 0.724036
O80_2 O 0.0036(3) 0.2145(3) 0.5568(3)
H138_2 H 0.278419 0.0008489 0.61014
H142_2 H 0.218301 0.17971 0.605257
O24_2 O 0.02102(11) 0.75366(12) 0.3087(2)
O25_2 O 0.08965(14) 0.74564(13) 0.2040(2)
O28_2 O 0.09363(17) 0.83115(13) 0.0741(3)
H37_2 H 0.103770 0.815468 0.028176
C25_2 C 0.11253(18) 0.79938(17) 0.2222(3)
H39_2 H 0.083201 0.824149 0.246461
C27_2 C 0.06477(17) 0.72110(16) 0.2777(3)
H41_2 H 0.049852 0.683992 0.260925
C28_2 C 0.1345(2) 0.8232(2) 0.1391(3)
H42_2 H 0.152157 0.859310 0.151768
H43_2 H 0.163464 0.798209 0.116189
C30_2 C 0.10641(18) 0.71337(18) 0.3502(3)
H45_2 H 0.135274 0.686614 0.330082
H51_2 H 0.000162 0.777322 0.133797
O41_2 O 0.18387(12) 0.84421(12) 0.30987(19)
O42_2 O 0.25305(13) 0.84383(14) 0.4443(2)
H71_2 H 0.245415 0.811129 0.430069
O43_2 O 0.25167(12) 0.88046(12) 0.21591(19)
O47_2 O 0.29352(14) 0.96333(14) 0.1070(2)
H72_2 H 0.3029(15) 0.9966(8) 0.090(4)
O49_2 O 0.29160(16) 0.95856(16) 0.4448(2)
H74_2 H 0.324382 0.961140 0.427104
C50_2 C 0.27030(17) 0.87418(19) 0.3692(3)
H76_2 H 0.311212 0.869592 0.362167
C53_2 C 0.24157(17) 0.84847(17) 0.2906(3)
H80_2 H 0.256756 0.810414 0.281177
C55_2 C 0.13504(18) 0.76807(19) 0.3723(3)
H82_2 H 0.108176 0.794565 0.398945
C56_2 C 0.15949(18) 0.79245(18) 0.2879(3)
H83_2 H 0.188351 0.766931 0.264195
C57_2 C 0.23309(19) 0.93667(17) 0.2226(3)
H84_2 H 0.193181 0.936505 0.239882
C58_2 C 0.25771(18) 0.93498(19) 0.3781(3)
H85_2 H 0.218022 0.939109 0.395404
C59_2 C 0.2378(2) 0.96206(19) 0.1330(3)
H86_2 H 0.215928 0.939974 0.091217
C60_2 C 0.26636(17) 0.96529(17) 0.2938(3)
H88_2 H 0.306577 0.965939 0.278380
C21_2 C 0.0222(2) 0.7601(3) 0.6253(3)
H29_2 H 0.056859 0.741694 0.620620
H34_2 H 0.000728 0.766352 0.511879
O51_2 O 0.11200(13) 0.75326(14) 0.9653(2)
H89_2 H 0.106766 0.718998 0.969875
O52_2 O 0.20989(12) 0.88913(12) 0.7922(2)
O53_2 O 0.06994(12) 0.77140(12) 0.7993(2)
O54_2 O 0.01591(12) 0.70955(12) 0.9346(2)
H90_2 H 0.039136 0.731011 0.957211
O55_2 O 0.18993(13) 0.84726(15) 0.9569(2)
H91_2 H 0.178427 0.879377 0.967571
O57_2 O 0.26524(15) 0.93834(13) 0.6982(2)
C62_2 C 0.16169(19) 0.82579(19) 0.8824(3)
H93_2 H 0.126798 0.847222 0.872749
C63_2 C 0.12092(17) 0.74407(18) 0.8113(3)
H94_2 H 0.113329 0.703548 0.817272
C64_2 C 0.26494(18) 0.90482(19) 0.7710(3)
H95_2 H 0.286390 0.870480 0.757474
C65_2 C 0.16977(17) 0.80885(18) 0.7250(3)
H96_2 H 0.135019 0.830469 0.715087
C66_2 C 0.14763(19) 0.76381(19) 0.8938(3)
H97_2 H 0.182892 0.742832 0.902530
C67_2 C 0.19931(18) 0.83223(18) 0.8044(3)
H98_2 H 0.234843 0.811940 0.814312
C68_2 C 0.20440(19) 0.8106(2) 0.6432(3)
H99_2 H 0.202991 0.842374 0.601716
C69_2 C 0.02189(16) 0.73851(17) 0.7849(3)
H100_2 H 0.032953 0.699895 0.769138
C71_2 C 0.2354(2) 0.98944(19) 0.7107(3)
H102_2 H 0.195681 0.981438 0.724036
O60_2 O 0.2145(3) 0.9964(3) 0.5568(3)
O78_2 O 0.29104(13) 0.89672(12) 0.9217(2)
C85_2 C 0.26212(18) 0.98727(18) 0.8665(3)
H124_2 H 0.223192 0.979473 0.884907
C94_2 C 0.29189(17) 0.93285(16) 0.8492(3)
H133_2 H 0.331348 0.941195 0.834522
H139_2 H 0.17971 0.781699 0.605257
H140_2 H 0.0008489 0.721581 0.61014
O1_2 O 0.81613(12) 0.15579(12) 0.30987(19)
O2_2 O 0.74695(13) 0.15617(14) 0.4443(2)
H1_2 H 0.754585 0.188871 0.430069
O3_2 O 0.74833(12) 0.11954(12) 0.21591(19)
O15_2 O 0.70648(14) 0.03667(14) 0.1070(2)
H5_2 H 0.6971(15) 0.0034(8) 0.090(4)
O17_2 O 0.70840(16) 0.04144(16) 0.4448(2)
H7_2 H 0.675618 0.038860 0.427104
C7_2 C 0.72970(17) 0.12582(19) 0.3692(3)
H14_2 H 0.688788 0.130408 0.362167
C10_2 C 0.75843(17) 0.15153(17) 0.2906(3)
H18_2 H 0.743244 0.189586 0.281177
C15_2 C 0.86496(18) 0.23193(19) 0.3723(3)
H23_2 H 0.891824 0.205435 0.398945
C16_2 C 0.84051(18) 0.20755(18) 0.2879(3)
H24_2 H 0.811649 0.233069 0.264195
C20_2 C 0.76691(19) 0.06333(17) 0.2226(3)
H28_2 H 0.806819 0.063495 0.239882
C22_2 C 0.74229(18) 0.06502(19) 0.3781(3)
H30_2 H 0.781978 0.060891 0.395404
C23_2 C 0.7622(2) 0.03794(19) 0.1330(3)
H31_2 H 0.784072 0.060026 0.091217
C24_2 C 0.73364(17) 0.03471(17) 0.2938(3)
H33_2 H 0.693423 0.034061 0.278380
O34_2 O 0.97898(11) 0.24634(12) 0.3087(2)
O35_2 O 0.91035(14) 0.25436(13) 0.2040(2)
O38_2 O 0.90637(17) 0.16885(13) 0.0741(3)
H55_2 H 0.896230 0.184532 0.028176
C37_2 C 0.88747(18) 0.20062(17) 0.2222(3)
H57_2 H 0.916799 0.175851 0.246461
C39_2 C 0.93523(17) 0.27890(16) 0.2777(3)
H59_2 H 0.950148 0.316008 0.260925
C40_2 C 0.8655(2) 0.1768(2) 0.1391(3)
H60_2 H 0.847843 0.140690 0.151768
H61_2 H 0.836536 0.201791 0.116189
C42_2 C 0.89359(18) 0.28663(18) 0.3502(3)
H63_2 H 0.864726 0.313386 0.330082
H69_2 H 0.999838 0.222678 0.133797
O14_2 O 0.70896(13) 0.10328(12) 0.9217(2)
C1_2 C 0.73788(18) 0.01273(18) 0.8665(3)
H8_2 H 0.776808 0.020527 0.884907
C18_2 C 0.70811(17) 0.06715(16) 0.8492(3)
H26_2 H 0.668652 0.058805 0.834522
O61_2 O 0.88800(13) 0.24674(14) 0.9653(2)
H105_2 H 0.893234 0.281002 0.969875
O62_2 O 0.79011(12) 0.11087(12) 0.7922(2)
O63_2 O 0.93006(12) 0.22860(12) 0.7993(2)
O64_2 O 0.98409(12) 0.29045(12) 0.9346(2)
H106_2 H 0.960864 0.268989 0.957211
O65_2 O 0.81007(13) 0.15274(15) 0.9569(2)
H107_2 H 0.821573 0.120623 0.967571
O67_2 O 0.73476(15) 0.06166(13) 0.6982(2)
C74_2 C 0.83831(19) 0.17421(19) 0.8824(3)
H109_2 H 0.873202 0.152778 0.872749
C75_2 C 0.87908(17) 0.25593(18) 0.8113(3)
H110_2 H 0.886671 0.296452 0.817272
C76_2 C 0.73506(18) 0.09518(19) 0.7710(3)
H111_2 H 0.713610 0.129520 0.757474
C77_2 C 0.83023(17) 0.19115(18) 0.7250(3)
H112_2 H 0.864981 0.169531 0.715087
C78_2 C 0.85237(19) 0.23619(19) 0.8938(3)
H113_2 H 0.817108 0.257168 0.902530
C79_2 C 0.80069(18) 0.16777(18) 0.8044(3)
H114_2 H 0.765157 0.188060 0.814312
C80_2 C 0.79560(19) 0.1894(2) 0.6432(3)
H115_2 H 0.797009 0.157626 0.601716
C81_2 C 0.97811(16) 0.26149(17) 0.7849(3)
H116_2 H 0.967047 0.300105 0.769138
C83_2 C 0.7646(2) 0.01056(19) 0.7107(3)
H118_2 H 0.804319 0.018562 0.724036
O70_2 O 0.7855(3) 0.0036(3) 0.5568(3)
C96_2 C 0.9778(2) 0.2399(3) 0.6253(3)
H135_2 H 0.943141 0.258306 0.620620
H136_2 H 0.999272 0.233648 0.511879
H141_2 H 0.82029 0.218301 0.605257
H144_2 H 0.999151 0.278419 0.61014
O6_2 O 0.75366(12) 0.97898(11) 0.3087(2)
O9_2 O 0.74564(13) 0.91035(14) 0.2040(2)
O16_2 O 0.83115(13) 0.90637(17) 0.0741(3)
H6_2 H 0.815468 0.896230 0.028176
C2_2 C 0.79938(17) 0.88747(18) 0.2222(3)
H9_2 H 0.824149 0.916799 0.246461
C8_2 C 0.72110(16) 0.93523(17) 0.2777(3)
H15_2 H 0.683992 0.950148 0.260925
C9_2 C 0.8232(2) 0.8655(2) 0.1391(3)
H16_2 H 0.859310 0.847843 0.151768
H17_2 H 0.798209 0.836536 0.116189
C13_2 C 0.71337(18) 0.89359(18) 0.3502(3)
H21_2 H 0.686614 0.864726 0.330082
H32_2 H 0.777322 0.999838 0.133797
O21_2 O 0.84421(12) 0.81613(12) 0.30987(19)
O22_2 O 0.84383(14) 0.74695(13) 0.4443(2)
H35_2 H 0.811129 0.754585 0.430069
O23_2 O 0.88046(12) 0.74833(12) 0.21591(19)
O27_2 O 0.96333(14) 0.70648(14) 0.1070(2)
H36_2 H 0.9966(8) 0.6971(15) 0.090(4)
O29_2 O 0.95856(16) 0.70840(16) 0.4448(2)
H38_2 H 0.961140 0.675618 0.427104
C26_2 C 0.87418(19) 0.72970(17) 0.3692(3)
H40_2 H 0.869592 0.688788 0.362167
C29_2 C 0.84847(17) 0.75843(17) 0.2906(3)
H44_2 H 0.810414 0.743244 0.281177
C31_2 C 0.76807(19) 0.86496(18) 0.3723(3)
H46_2 H 0.794565 0.891824 0.398945
C32_2 C 0.79245(18) 0.84051(18) 0.2879(3)
H47_2 H 0.766931 0.811649 0.264195
C33_2 C 0.93667(17) 0.76691(19) 0.2226(3)
H48_2 H 0.936505 0.806819 0.239882
C34_2 C 0.93498(19) 0.74229(18) 0.3781(3)
H49_2 H 0.939109 0.781978 0.395404
C35_2 C 0.96206(19) 0.7622(2) 0.1330(3)
H50_2 H 0.939974 0.784072 0.091217
C36_2 C 0.96529(17) 0.73364(17) 0.2938(3)
H52_2 H 0.965939 0.693423 0.278380
O4_2 O 0.75326(14) 0.88800(13) 0.9653(2)
H2_2 H 0.718998 0.893234 0.969875
O5_2 O 0.88913(12) 0.79011(12) 0.7922(2)
O7_2 O 0.77140(12) 0.93006(12) 0.7993(2)
O8_2 O 0.70955(12) 0.98409(12) 0.9346(2)
H3_2 H 0.731011 0.960864 0.957211
O10_2 O 0.84726(15) 0.81007(13) 0.9569(2)
H4_2 H 0.879377 0.821573 0.967571
O13_2 O 0.93834(13) 0.73476(15) 0.6982(2)
C3_2 C 0.82579(19) 0.83831(19) 0.8824(3)
H10_2 H 0.847222 0.873202 0.872749
C4_2 C 0.74407(18) 0.87908(17) 0.8113(3)
H11_2 H 0.703548 0.886671 0.817272
C5_2 C 0.90482(19) 0.73506(18) 0.7710(3)
H12_2 H 0.870480 0.713610 0.757474
C6_2 C 0.80885(18) 0.83023(17) 0.7250(3)
H13_2 H 0.830469 0.864981 0.715087
C11_2 C 0.76381(19) 0.85237(19) 0.8938(3)
H19_2 H 0.742832 0.817108 0.902530
C12_2 C 0.83223(18) 0.80069(18) 0.8044(3)
H20_2 H 0.811940 0.765157 0.814312
C14_2 C 0.8106(2) 0.79560(19) 0.6432(3)
H22_2 H 0.842374 0.797009 0.601716
C17_2 C 0.73851(17) 0.97811(16) 0.7849(3)
H25_2 H 0.699895 0.967047 0.769138
C19_2 C 0.98944(19) 0.7646(2) 0.7107(3)
H27_2 H 0.981438 0.804319 0.724036
O20_2 O 0.9964(3) 0.7855(3) 0.5568(3)
O58_2 O 0.89672(12) 0.70896(13) 0.9217(2)
C61_2 C 0.98727(18) 0.73788(18) 0.8665(3)
H92_2 H 0.979473 0.776808 0.884907
C70_2 C 0.93285(16) 0.70811(17) 0.8492(3)
H101_2 H 0.941195 0.668652 0.834522
C84_2 C 0.7601(3) 0.9778(2) 0.6253(3)
H119_2 H 0.741694 0.943141 0.620620
H120_2 H 0.766352 0.999272 0.511879
H137_2 H 0.781699 0.82029 0.605257
H143_2 H 0.721581 0.999151 0.61014
loop_
_geom_bond_atom_site_label_1
_geom_bond_atom_site_label_2
_geom_bond_site_symmetry_1
_geom_bond_site_symmetry_2
Cs1 O3 1_555 1_555
O1 C10 1_555 1_555
O2 H1 1_555 1_555
O3 C10 1_555 1_555
O4 H2 1_555 1_555
O5 C5 1_555 1_555
O6 C8 1_555 1_555
O7 C4 1_555 1_555
O8 H3 1_555 1_555
O9 C2 1_555 1_555
O10 H4 1_555 1_555
O11 C4 1_555 1_555
O12 C15 1_555 1_555
O13 C5 1_555 1_555
O14 Cs1 1_555 1_555
O15 Cs1 1_555 1_555
H5 O15 1_555 1_555
O16 H6 1_555 1_555
O17 H7 1_555 1_555
O18 C13 1_555 1_555
O19 C14 1_555 1_555
C1 O8 1_555 1_555
H8 C1 1_555 1_555
C2 H9 1_555 1_555
C3 O10 1_555 1_555
H10 C3 1_555 1_555
C4 H11 1_555 1_555
C5 H12 1_555 1_555
C6 O11 1_555 1_555
H13 C6 1_555 1_555
C7 O2 1_555 1_555
H14 C7 1_555 1_555
C8 O9 1_555 1_555
H15 C8 1_555 1_555
C9 O16 1_555 1_555
H16 C9 1_555 1_555
H17 C9 1_555 1_555
C10 C7 1_555 1_555
H18 C10 1_555 1_555
C11 O4 1_555 1_555
H19 C11 1_555 1_555
C12 O5 1_555 1_555
H20 C12 1_555 1_555
C13 C8 1_555 1_555
H21 C13 1_555 1_555
C14 C6 1_555 1_555
H22 C14 1_555 1_555
C15 H23 1_555 1_555
C16 O1 1_555 1_555
H24 C16 1_555 1_555
C17 O7 1_555 1_555
H25 C17 1_555 1_555
C18 O14 1_555 1_555
H26 C18 1_555 1_555
C19 O13 1_555 1_555
H27 C19 1_555 1_555
C20 O3 1_555 1_555
H28 C20 1_555 1_555
C21 C19 1_555 1_555
H29 C21 1_555 1_555
C22 O17 1_555 1_555
H30 C22 1_555 1_555
C23 O15 1_555 1_555
H31 C23 1_555 1_555
H32 C23 1_555 1_555
C24 O6 1_555 1_555
H33 C24 1_555 1_555
O20 C21 1_555 1_555
H34 O20 1_555 1_555
O21 C29 1_555 1_555
O22 H35 1_555 1_555
O23 C29 1_555 1_555
O24 C27 1_555 1_555
O25 C25 1_555 1_555
O26 C31 1_555 1_555
O27 H36 1_555 1_555
O28 H37 1_555 1_555
O29 H38 1_555 1_555
O30 C30 1_555 1_555
C25 H39 1_555 1_555
C26 O22 1_555 1_555
H40 C26 1_555 1_555
C27 O25 1_555 1_555
H41 C27 1_555 1_555
C28 O28 1_555 1_555
H42 C28 1_555 1_555
H43 C28 1_555 1_555
C29 C26 1_555 1_555
H44 C29 1_555 1_555
C30 C27 1_555 1_555
H45 C30 1_555 1_555
C31 C13 1_555 1_555
H46 C31 1_555 1_555
C32 C2 1_555 1_555
H47 C32 1_555 1_555
C33 O23 1_555 1_555
H48 C33 1_555 1_555
C34 O29 1_555 1_555
H49 C34 1_555 1_555
C35 O27 1_555 1_555
H50 C35 1_555 1_555
H51 C35 1_555 1_555
C36 O24 1_555 1_555
H52 C36 1_555 1_555
O31 C41 1_555 1_555
O32 H53 1_555 1_555
O33 C41 1_555 1_555
O34 C39 1_555 1_555
O35 C37 1_555 1_555
O36 C43 1_555 1_555
O37 H54 1_555 1_555
O38 H55 1_555 1_555
O39 H56 1_555 1_555
O40 C42 1_555 1_555
C37 C16 1_555 1_555
H57 C37 1_555 1_555
C38 O32 1_555 1_555
H58 C38 1_555 1_555
C39 O35 1_555 1_555
H59 C39 1_555 1_555
C40 O38 1_555 1_555
H60 C40 1_555 1_555
H61 C40 1_555 1_555
C41 C38 1_555 1_555
H62 C41 1_555 1_555
C42 C15 1_555 1_555
H63 C42 1_555 1_555
C43 H64 1_555 1_555
C44 O31 1_555 1_555
H65 C44 1_555 1_555
C45 O33 1_555 1_555
H66 C45 1_555 1_555
C46 O39 1_555 1_555
H67 C46 1_555 1_555
C47 O37 1_555 1_555
H68 C47 1_555 1_555
H69 C47 1_555 1_555
C48 O34 1_555 1_555
H70 C48 1_555 1_555
O41 C53 1_555 1_555
O42 H71 1_555 1_555
O43 C53 1_555 1_555
O44 C51 1_555 1_555
O45 C49 1_555 1_555
O46 C55 1_555 1_555
O47 H72 1_555 1_555
O48 H73 1_555 1_555
O49 H74 1_555 1_555
O50 C54 1_555 1_555
C49 C44 1_555 1_555
H75 C49 1_555 1_555
C50 O42 1_555 1_555
H76 C50 1_555 1_555
C51 O45 1_555 1_555
H77 C51 1_555 1_555
C52 O48 1_555 1_555
H78 C52 1_555 1_555
H79 C52 1_555 1_555
C53 C50 1_555 1_555
H80 C53 1_555 1_555
C54 C43 1_555 1_555
H81 C54 1_555 1_555
C55 C30 1_555 1_555
H82 C55 1_555 1_555
C56 C25 1_555 1_555
H83 C56 1_555 1_555
C57 O43 1_555 1_555
H84 C57 1_555 1_555
C58 O49 1_555 1_555
H85 C58 1_555 1_555
C59 O47 1_555 1_555
H86 C59 1_555 1_555
H87 C59 1_555 1_555
C60 O44 1_555 1_555
H88 C60 1_555 1_555
O51 H89 1_555 1_555
O52 C64 1_555 1_555
O53 C63 1_555 1_555
O54 H90 1_555 1_555
O55 H91 1_555 1_555
O56 C63 1_555 1_555
O57 C64 1_555 1_555
O58 C70 1_555 1_555
O59 C68 1_555 1_555
C61 O54 1_555 1_555
H92 C61 1_555 1_555
C62 O55 1_555 1_555
H93 C62 1_555 1_555
C63 H94 1_555 1_555
C64 H95 1_555 1_555
C65 O56 1_555 1_555
H96 C65 1_555 1_555
C66 O51 1_555 1_555
H97 C66 1_555 1_555
C67 O52 1_555 1_555
H98 C67 1_555 1_555
C68 C65 1_555 1_555
H99 C68 1_555 1_555
C69 C19 1_555 1_555
H100 C69 1_555 1_555
C70 C5 1_555 1_555
H101 C70 1_555 1_555
C71 O57 1_555 1_555
H102 C71 1_555 1_555
C72 C71 1_555 1_555
H103 C72 1_555 1_555
O60 C72 1_555 1_555
H104 O60 1_555 1_555
O61 H105 1_555 1_555
O62 C76 1_555 1_555
O63 C75 1_555 1_555
O64 H106 1_555 1_555
O65 H107 1_555 1_555
O66 C75 1_555 1_555
O67 C76 1_555 1_555
O68 C82 1_555 1_555
O69 C80 1_555 1_555
C73 O64 1_555 1_555
H108 C73 1_555 1_555
C74 O65 1_555 1_555
H109 C74 1_555 1_555
C75 H110 1_555 1_555
C76 C18 1_555 1_555
H111 C76 1_555 1_555
C77 O66 1_555 1_555
H112 C77 1_555 1_555
C78 O61 1_555 1_555
H113 C78 1_555 1_555
C79 O62 1_555 1_555
H114 C79 1_555 1_555
C80 C77 1_555 1_555
H115 C80 1_555 1_555
C81 O63 1_555 1_555
H116 C81 1_555 1_555
C82 C73 1_555 1_555
H117 C82 1_555 1_555
C83 C17 1_555 1_555
H118 C83 1_555 1_555
C84 C83 1_555 1_555
H119 C84 1_555 1_555
O70 C84 1_555 1_555
H120 O70 1_555 1_555
O71 H121 1_555 1_555
O72 C88 1_555 1_555
O73 C87 1_555 1_555
O74 H122 1_555 1_555
O75 H123 1_555 1_555
O76 C87 1_555 1_555
O77 C88 1_555 1_555
O78 C94 1_555 1_555
O79 C92 1_555 1_555
C85 O74 1_555 1_555
H124 C85 1_555 1_555
C86 O75 1_555 1_555
H125 C86 1_555 1_555
C87 H126 1_555 1_555
C88 C82 1_555 1_555
H127 C88 1_555 1_555
C89 O76 1_555 1_555
H128 C89 1_555 1_555
C90 O71 1_555 1_555
H129 C90 1_555 1_555
C91 O72 1_555 1_555
H130 C91 1_555 1_555
C92 C89 1_555 1_555
H131 C92 1_555 1_555
C93 C71 1_555 1_555
H132 C93 1_555 1_555
C94 C64 1_555 1_555
H133 C94 1_555 1_555
C95 C81 1_555 1_555
H134 C95 1_555 1_555
C96 C95 1_555 1_555
H135 C96 1_555 1_555
O80 C96 1_555 1_555
H136 O80 1_555 1_555
Cs2 O43 1_555 1_555
Cs3 O23 1_555 1_555
Cs4 O33 1_555 1_555
Cs6 O56 1_555 1_555
Cs8 O66 1_555 1_555
Cs10 O76 1_555 1_555
Cs12 O11 1_555 1_555
O81 Cs4 1_555 1_555
O82 Cs3 1_555 1_555
O83 Cs1 1_555 1_555
O84 Cs2 1_555 1_555
O85 Cs2 1_555 1_555
O86 Cs1 1_555 1_555
O87 Cs4 1_555 1_555
O88 Cs3 1_555 1_555
O89 Cs4 1_555 1_555
O90 Cs3 1_555 1_555
O91 Cs1 1_555 1_555
O92 Cs2 1_555 1_555
O93 Cs4 1_555 1_555
O94 Cs3 1_555 1_555
O95 Cs1 1_555 1_555
O96 Cs2 1_555 1_555
O19 Cs12 1_555 1_555
C1 C17 1_555 1_555
C1 C18 1_555 1_555
C2 C9 1_555 1_555
C3 C11 1_555 1_555
C3 C12 1_555 1_555
C4 C11 1_555 1_555
C6 C12 1_555 1_555
C7 C22 1_555 1_555
C15 C16 1_555 1_555
C20 C23 1_555 1_555
C20 C24 1_555 1_555
C22 C24 1_555 1_555
O21 C32 1_555 1_555
O27 Cs3 1_555 1_555
C25 C28 1_555 1_555
C26 C34 1_555 1_555
C31 C32 1_555 1_555
C33 C35 1_555 1_555
C33 C36 1_555 1_555
C34 C36 1_555 1_555
O37 Cs4 1_555 1_555
C37 C40 1_555 1_555
C38 C46 1_555 1_555
C39 C42 1_555 1_555
C43 C44 1_555 1_555
C45 C47 1_555 1_555
C45 C48 1_555 1_555
C46 C48 1_555 1_555
O41 C56 1_555 1_555
O47 Cs2 1_555 1_555
C49 C52 1_555 1_555
C50 C58 1_555 1_555
C51 C54 1_555 1_555
C55 C56 1_555 1_555
C57 C59 1_555 1_555
C57 C60 1_555 1_555
C58 C60 1_555 1_555
O53 C69 1_555 1_555
O58 Cs3 1_555 1_555
O59 Cs6 1_555 1_555
C61 C69 1_555 1_555
C61 C70 1_555 1_555
C62 C66 1_555 1_555
C62 C67 1_555 1_555
C63 C66 1_555 1_555
C65 C67 1_555 1_555
O67 C83 1_555 1_555
O68 Cs4 1_555 1_555
O69 Cs8 1_555 1_555
C73 C81 1_555 1_555
C74 C78 1_555 1_555
C74 C79 1_555 1_555
C75 C78 1_555 1_555
C77 C79 1_555 1_555
O73 C93 1_555 1_555
O77 C95 1_555 1_555
O78 Cs2 1_555 1_555
O79 Cs10 1_555 1_555
C85 C93 1_555 1_555
C85 C94 1_555 1_555
C86 C90 1_555 1_555
C86 C91 1_555 1_555
C87 C90 1_555 1_555
C89 C91 1_555 1_555
C14 H137 1_555 1_555
C72 H138 1_555 1_555
C68 H139 1_555 1_555
C21 H140 1_555 1_555
C80 H141 1_555 1_555
C92 H142 1_555 1_555
C84 H143 1_555 1_555
C96 H144 1_555 1_555
O31_2 C41_2 1_555 1_555
O32_2 H53_2 1_555 1_555
O33_2 C41_2 1_555 1_555
O88 C43_2 1_555 1_555
O37_2 H54_2 1_555 1_555
O39_2 H56_2 1_555 1_555
C38_2 O32_2 1_555 1_555
H58_2 C38_2 1_555 1_555
C41_2 C38_2 1_555 1_555
H62_2 C41_2 1_555 1_555
C43_2 H64_2 1_555 1_555
C44_2 O31_2 1_555 1_555
H65_2 C44_2 1_555 1_555
C45_2 O33_2 1_555 1_555
H66_2 C45_2 1_555 1_555
C46_2 O39_2 1_555 1_555
H67_2 C46_2 1_555 1_555
C47_2 O37_2 1_555 1_555
H68_2 C47_2 1_555 1_555
H70_2 C48_2 1_555 1_555
O44_2 C51_2 1_555 1_555
O45_2 C49_2 1_555 1_555
O48_2 H73_2 1_555 1_555
O90 C54_2 1_555 1_555
C49_2 C44_2 1_555 1_555
H75_2 C49_2 1_555 1_555
C51_2 O45_2 1_555 1_555
H77_2 C51_2 1_555 1_555
C52_2 O48_2 1_555 1_555
H78_2 C52_2 1_555 1_555
H79_2 C52_2 1_555 1_555
C54_2 C43_2 1_555 1_555
H81_2 C54_2 1_555 1_555
Cs12 O33_2 1_555 1_555
O37_2 Cs12 1_555 1_555
C38_2 C46_2 1_555 1_555
C43_2 C44_2 1_555 1_555
C45_2 C47_2 1_555 1_555
C45_2 C48_2 1_555 1_555
C46_2 C48_2 1_555 1_555
C49_2 C52_2 1_555 1_555
C51_2 C54_2 1_555 1_555
H103_2 C72_2 1_555 1_555
O68_2 C82_2 1_555 1_555
H108_2 C73_2 1_555 1_555
C82_2 C73_2 1_555 1_555
H117_2 C82_2 1_555 1_555
O71_2 H121_2 1_555 1_555
O72_2 C88_2 1_555 1_555
O73_2 C87_2 1_555 1_555
O74_2 H122_2 1_555 1_555
O75_2 H123_2 1_555 1_555
O82 C87_2 1_555 1_555
O77_2 C88_2 1_555 1_555
O94 C92_2 1_555 1_555
C86_2 O75_2 1_555 1_555
H125_2 C86_2 1_555 1_555
C87_2 H126_2 1_555 1_555
C88_2 C82_2 1_555 1_555
H127_2 C88_2 1_555 1_555
C89_2 O82 1_555 1_555
H128_2 C89_2 1_555 1_555
C90_2 O71_2 1_555 1_555
H129_2 C90_2 1_555 1_555
C91_2 O72_2 1_555 1_555
H130_2 C91_2 1_555 1_555
C92_2 C89_2 1_555 1_555
H131_2 C92_2 1_555 1_555
H132_2 C93_2 1_555 1_555
H134_2 C95_2 1_555 1_555
O73_2 C93_2 1_555 1_555
O77_2 C95_2 1_555 1_555
C86_2 C90_2 1_555 1_555
C86_2 C91_2 1_555 1_555
C87_2 C90_2 1_555 1_555
C89_2 C91_2 1_555 1_555
C72_2 H138_2 1_555 1_555
C92_2 H142_2 1_555 1_555
O24_2 C27_2 1_555 1_555
O25_2 C25_2 1_555 1_555
O28_2 H37_2 1_555 1_555
O91 C30_2 1_555 1_555
C25_2 H39_2 1_555 1_555
C27_2 O25_2 1_555 1_555
H41_2 C27_2 1_555 1_555
C28_2 O28_2 1_555 1_555
H42_2 C28_2 1_555 1_555
H43_2 C28_2 1_555 1_555
C30_2 C27_2 1_555 1_555
H45_2 C30_2 1_555 1_555
O41_2 C53_2 1_555 1_555
O42_2 H71_2 1_555 1_555
O43_2 C53_2 1_555 1_555
O86 C55_2 1_555 1_555
O47_2 H72_2 1_555 1_555
O49_2 H74_2 1_555 1_555
C50_2 O42_2 1_555 1_555
H76_2 C50_2 1_555 1_555
C53_2 C50_2 1_555 1_555
H80_2 C53_2 1_555 1_555
C55_2 C30_2 1_555 1_555
H82_2 C55_2 1_555 1_555
C56_2 C25_2 1_555 1_555
H83_2 C56_2 1_555 1_555
C57_2 O43_2 1_555 1_555
H84_2 C57_2 1_555 1_555
C58_2 O49_2 1_555 1_555
H85_2 C58_2 1_555 1_555
C59_2 O47_2 1_555 1_555
H86_2 C59_2 1_555 1_555
H88_2 C60_2 1_555 1_555
Cs8 O43_2 1_555 1_555
C25_2 C28_2 1_555 1_555
O41_2 C56_2 1_555 1_555
O47_2 Cs8 1_555 1_555
C50_2 C58_2 1_555 1_555
C55_2 C56_2 1_555 1_555
C57_2 C59_2 1_555 1_555
C57_2 C60_2 1_555 1_555
C58_2 C60_2 1_555 1_555
H29_2 C21_2 1_555 1_555
O51_2 H89_2 1_555 1_555
O52_2 C64_2 1_555 1_555
O53_2 C63_2 1_555 1_555
O54_2 H90_2 1_555 1_555
O55_2 H91_2 1_555 1_555
O83 C63_2 1_555 1_555
O57_2 C64_2 1_555 1_555
O95 C68_2 1_555 1_555
C62_2 O55_2 1_555 1_555
H93_2 C62_2 1_555 1_555
C63_2 H94_2 1_555 1_555
C64_2 H95_2 1_555 1_555
C65_2 O83 1_555 1_555
H96_2 C65_2 1_555 1_555
C66_2 O51_2 1_555 1_555
H97_2 C66_2 1_555 1_555
C67_2 O52_2 1_555 1_555
H98_2 C67_2 1_555 1_555
C68_2 C65_2 1_555 1_555
H99_2 C68_2 1_555 1_555
H100_2 C69_2 1_555 1_555
C71_2 O57_2 1_555 1_555
H102_2 C71_2 1_555 1_555
O78_2 C94_2 1_555 1_555
H124_2 C85_2 1_555 1_555
C94_2 C64_2 1_555 1_555
H133_2 C94_2 1_555 1_555
O53_2 C69_2 1_555 1_555
C62_2 C66_2 1_555 1_555
C62_2 C67_2 1_555 1_555
C63_2 C66_2 1_555 1_555
C65_2 C67_2 1_555 1_555
C85_2 C94_2 1_555 1_555
C68_2 H139_2 1_555 1_555
C21_2 H140_2 1_555 1_555
Cs6 O3_2 1_555 1_555
O1_2 C10_2 1_555 1_555
O2_2 H1_2 1_555 1_555
O3_2 C10_2 1_555 1_555
O85 C15_2 1_555 1_555
O15_2 Cs6 1_555 1_555
H5_2 O15_2 1_555 1_555
O17_2 H7_2 1_555 1_555
C7_2 O2_2 1_555 1_555
H14_2 C7_2 1_555 1_555
C10_2 C7_2 1_555 1_555
H18_2 C10_2 1_555 1_555
C15_2 H23_2 1_555 1_555
C16_2 O1_2 1_555 1_555
H24_2 C16_2 1_555 1_555
C20_2 O3_2 1_555 1_555
H28_2 C20_2 1_555 1_555
C22_2 O17_2 1_555 1_555
H30_2 C22_2 1_555 1_555
C23_2 O15_2 1_555 1_555
H31_2 C23_2 1_555 1_555
H33_2 C24_2 1_555 1_555
O34_2 C39_2 1_555 1_555
O35_2 C37_2 1_555 1_555
O38_2 H55_2 1_555 1_555
O92 C42_2 1_555 1_555
C37_2 C16_2 1_555 1_555
H57_2 C37_2 1_555 1_555
C39_2 O35_2 1_555 1_555
H59_2 C39_2 1_555 1_555
C40_2 O38_2 1_555 1_555
H60_2 C40_2 1_555 1_555
H61_2 C40_2 1_555 1_555
C42_2 C15_2 1_555 1_555
H63_2 C42_2 1_555 1_555
C7_2 C22_2 1_555 1_555
C15_2 C16_2 1_555 1_555
C20_2 C23_2 1_555 1_555
C20_2 C24_2 1_555 1_555
C22_2 C24_2 1_555 1_555
C37_2 C40_2 1_555 1_555
C39_2 C42_2 1_555 1_555
H8_2 C1_2 1_555 1_555
C18_2 O14_2 1_555 1_555
H26_2 C18_2 1_555 1_555
O61_2 H105_2 1_555 1_555
O62_2 C76_2 1_555 1_555
O63_2 C75_2 1_555 1_555
O64_2 H106_2 1_555 1_555
O65_2 H107_2 1_555 1_555
O84 C75_2 1_555 1_555
O67_2 C76_2 1_555 1_555
O96 C80_2 1_555 1_555
C74_2 O65_2 1_555 1_555
H109_2 C74_2 1_555 1_555
C75_2 H110_2 1_555 1_555
C76_2 C18_2 1_555 1_555
H111_2 C76_2 1_555 1_555
C77_2 O84 1_555 1_555
H112_2 C77_2 1_555 1_555
C78_2 O61_2 1_555 1_555
H113_2 C78_2 1_555 1_555
C79_2 O62_2 1_555 1_555
H114_2 C79_2 1_555 1_555
C80_2 C77_2 1_555 1_555
H115_2 C80_2 1_555 1_555
C81_2 O63_2 1_555 1_555
H116_2 C81_2 1_555 1_555
H118_2 C83_2 1_555 1_555
H135_2 C96_2 1_555 1_555
C1_2 C18_2 1_555 1_555
O67_2 C83_2 1_555 1_555
C74_2 C78_2 1_555 1_555
C74_2 C79_2 1_555 1_555
C75_2 C78_2 1_555 1_555
C77_2 C79_2 1_555 1_555
C80_2 H141_2 1_555 1_555
C96_2 H144_2 1_555 1_555
O6_2 C8_2 1_555 1_555
O9_2 C2_2 1_555 1_555
O16_2 H6_2 1_555 1_555
O89 C13_2 1_555 1_555
C2_2 H9_2 1_555 1_555
C8_2 O9_2 1_555 1_555
H15_2 C8_2 1_555 1_555
C9_2 O16_2 1_555 1_555
H16_2 C9_2 1_555 1_555
H17_2 C9_2 1_555 1_555
C13_2 C8_2 1_555 1_555
H21_2 C13_2 1_555 1_555
O21_2 C29_2 1_555 1_555
O22_2 H35_2 1_555 1_555
O23_2 C29_2 1_555 1_555
O87 C31_2 1_555 1_555
O27_2 H36_2 1_555 1_555
O29_2 H38_2 1_555 1_555
C26_2 O22_2 1_555 1_555
H40_2 C26_2 1_555 1_555
C29_2 C26_2 1_555 1_555
H44_2 C29_2 1_555 1_555
C31_2 C13_2 1_555 1_555
H46_2 C31_2 1_555 1_555
C32_2 C2_2 1_555 1_555
H47_2 C32_2 1_555 1_555
C33_2 O23_2 1_555 1_555
H48_2 C33_2 1_555 1_555
C34_2 O29_2 1_555 1_555
H49_2 C34_2 1_555 1_555
C35_2 O27_2 1_555 1_555
H50_2 C35_2 1_555 1_555
H52_2 C36_2 1_555 1_555
Cs10 O23_2 1_555 1_555
C2_2 C9_2 1_555 1_555
O21_2 C32_2 1_555 1_555
O27_2 Cs10 1_555 1_555
C26_2 C34_2 1_555 1_555
C31_2 C32_2 1_555 1_555
C33_2 C35_2 1_555 1_555
C33_2 C36_2 1_555 1_555
C34_2 C36_2 1_555 1_555
O4_2 H2_2 1_555 1_555
O5_2 C5_2 1_555 1_555
O7_2 C4_2 1_555 1_555
O8_2 H3_2 1_555 1_555
O10_2 H4_2 1_555 1_555
O81 C4_2 1_555 1_555
O13_2 C5_2 1_555 1_555
O93 C14_2 1_555 1_555
C3_2 O10_2 1_555 1_555
H10_2 C3_2 1_555 1_555
C4_2 H11_2 1_555 1_555
C5_2 H12_2 1_555 1_555
C6_2 O81 1_555 1_555
H13_2 C6_2 1_555 1_555
C11_2 O4_2 1_555 1_555
H19_2 C11_2 1_555 1_555
C12_2 O5_2 1_555 1_555
H20_2 C12_2 1_555 1_555
C14_2 C6_2 1_555 1_555
H22_2 C14_2 1_555 1_555
C17_2 O7_2 1_555 1_555
H25_2 C17_2 1_555 1_555
C19_2 O13_2 1_555 1_555
H27_2 C19_2 1_555 1_555
O58_2 C70_2 1_555 1_555
H92_2 C61_2 1_555 1_555
C70_2 C5_2 1_555 1_555
H101_2 C70_2 1_555 1_555
H119_2 C84_2 1_555 1_555
C3_2 C11_2 1_555 1_555
C3_2 C12_2 1_555 1_555
C4_2 C11_2 1_555 1_555
C6_2 C12_2 1_555 1_555
C61_2 C70_2 1_555 1_555
C14_2 H137_2 1_555 1_555
C84_2 H143_2 1_555 1_555

#END
