
###############################################################################
#
# This file contains modified crystal structure data generated from the
# MOF subset of the Cambridge Structural Database (CSD) v543 
# hosted by the Cambridge Crystallographic Data Centre (CCDC).
#
# This work is licensed under the Creative Commons
# Attribution-NonCommercial-ShareAlike 4.0 International License.
# To view a copy of this license, visit
# http://creativecommons.org/licenses/by-nc-sa/4.0/
# or send a letter to
# Creative Commons, PO Box 1866, Mountain View, CA 94042, USA.
#
# CIF created using the CSD Python API on 29 September 2022
# The structure has been converted into the P1 space group
# The structure has a 3D framework
# The original CSD entry YAPSAL is in the trigonal crystal system
# The original CSD entry YAPSAL is in a Sohncke space group
# The framework has been calculated to contain at least 10.0% void space
# The void calculation uses a probe of radius 1.32A, grid spacing 0.4
# The framework is charged, counterions have been retained in the structure
# H atom positions have been added when not included in the experimental data
#
###############################################################################

data_YAPSAL
_chemical_formula_moiety         '(C144 H243 Br6 O129 Sr3)n'
_symmetry_cell_setting           triclinic
_symmetry_space_group_name_H-M   'P 1'
_symmetry_Int_Tables_number      1
_space_group_name_Hall           'P 1'
loop_
_symmetry_equiv_pos_site_id
_symmetry_equiv_pos_as_xyz
1 x,y,z
_cell_length_a                   17.4843(2)
_cell_length_b                   17.4843(2)
_cell_length_c                   22.5856(5)
_cell_angle_alpha                90
_cell_angle_beta                 90
_cell_angle_gamma                120
_cell_volume                     5979.42
loop_
_atom_site_label
_atom_site_type_symbol
_atom_site_fract_x
_atom_site_fract_y
_atom_site_fract_z
Sr1 Sr 0.41921(5) 0.67413(5) 0.28771(3)
O1 O 0.4434(4) 0.6347(4) 0.1717(3)
O2 O 0.1357(4) 0.3745(4) 0.1970(3)
O3 O 0.0830(4) 0.2605(4) 0.1289(3)
O5 O 0.4490(5) 0.8212(5) 0.3416(3)
O6 O 0.5512(5) 0.6931(5) 0.0027(3)
H1 H 0.5629 0.7456 0.0074
O7 O 0.3354(4) 0.5273(4) 0.1122(3)
O8 O 0.0094(8) 0.1925(6) 0.0173(3)
H4 H 0.0465 0.2453 0.0252
O9 O 0.3219(4) 0.7191(5) 0.2320(3)
H6 H 0.0539 0.1151 0.1748
O10 O 0.5369(4) 0.8175(4) 0.2360(3)
C5 C 0.0031(6) 0.1768(6) 0.1238(4)
C7 C 0.5636(7) 0.0681(6) 0.2374(4)
H9 H 0.5880 0.1183 0.2655
H10 H 0.4993 0.0450 0.2336
C8 C 0.8430(6) 0.3885(6) 0.0727(4)
H11 H 0.7897 0.3874 0.0557
C9 C 0.0064(7) 0.1366(7) 0.0647(4)
H12 H 0.0615 0.1326 0.0634
C10 C 0.2455(6) 0.4814(6) 0.1301(4)
H13 H 0.2294 0.5254 0.1449
C11 C 0.9103(6) 0.4846(6) 0.0873(4)
H14 H 0.9652 0.4864 0.1017
C12 C 0.7654(6) 0.6033(6) 0.0468(4)
H16 H 0.7043 0.5511 0.0458
C14 C 0.7619(7) 0.6242(7) 0.1576(4)
H18 H 0.7004 0.5737 0.1620
C17 C 0.1852(6) 0.4314(6) 0.0770(4)
H21 H 0.1953 0.3821 0.0651
C18 C 0.7153(6) 0.7005(6) 0.0934(4)
H22 H 0.7184 0.7590 0.0890
C20 C 0.5629(6) 0.6605(6) 0.1055(4)
H25 H 0.5938 0.7253 0.1140
C22 C 0.5034(6) 0.6418(6) 0.0525(4)
H27 H 0.4742 0.5776 0.0424
C24 C 0.0912(6) 0.3942(6) 0.0967(4)
H29 H 0.0837 0.4443 0.1106
C25 C 0.7599(6) 0.6873(6) 0.0400(4)
H30 H 0.8215 0.7385 0.0378
C27 C 0.0754(6) 0.3327(5) 0.1499(4)
H33 H 0.0140 0.3101 0.1649
C28 C 0.3845(6) 0.6178(6) 0.1249(4)
H34 H 0.3428 0.6387 0.1364
C29 C 0.4331(6) 0.6660(5) 0.0687(4)
H35 H 0.4637 0.7310 0.0767
C30 C 0.7290(7) 0.1097(7) 0.0896(5)
H36 H 0.7403 0.0624 0.1047
C31 C 0.6086(6) 0.0988(6) 0.1768(4)
H37 H 0.5963 0.1450 0.1609
C32 C 0.8768(6) 0.5195(6) 0.1366(4)
H38 H 0.9243 0.5806 0.1472
O13 O 0.2847(4) 0.5259(4) 0.2560(3)
C33 C 0.8083(6) 0.6052(6) 0.1076(4)
H39 H 0.8718 0.6526 0.1068
C34 C 0.5799(6) 0.0261(6) 0.1315(4)
H42 H 0.0401 0.2057 0.2439
C38 C 0.6316(6) 0.0654(6) 0.0751(4)
H46 H 0.6175 0.1104 0.0593
C40 C 0.7562(7) 0.1776(6) 0.1381(5)
H48 H 0.8193 0.1998 0.1490
C41 C 0.8118(7) 0.6398(7) 0.2161(5)
H49 H 0.8127 0.5856 0.2276
H50 H 0.8737 0.6880 0.2111
C42 C 0.5656(6) 0.6337(6) 0.2153(4)
H51 H 0.6080 0.6121 0.2117
H52 H 0.5997 0.6987 0.2198
C43 C 0.7846(7) 0.3796(7) 0.1776(4)
H53 H 0.7314 0.3809 0.1627
C44 C 0.2823(7) 0.4492(6) 0.2322(4)
H54 H 0.2606 0.4029 0.2631
H55 H 0.3432 0.4639 0.2218
C45 C 0.8147(6) 0.3347(7) 0.1307(4)
H56 H 0.8662 0.3314 0.1469
C46 C 0.7640(8) 0.3328(9) 0.2353(5)
H57 H 0.7561 0.3693 0.2655
H58 H 0.7073 0.2765 0.2318
C47 C 0.2258(6) 0.4129(6) 0.1791(4)
H59 H 0.2349 0.3650 0.1624
O20 O 0.7597(4) 0.7029(5) 0.1462(3)
O21 O 0.8150(4) 0.5945(4) 0.0024(3)
O22 O 0.0295(4) 0.3501(4) 0.0520(3)
O23 O 0.3712(4) 0.6471(4) 0.0214(3)
O24 O 0.2067(4) 0.4915(4) 0.0287(3)
H64 H 0.1675 0.5056 0.0253
O26 O 0.6273(4) 0.6356(4) 0.0927(3)
O27 O 0.8312(6) 0.3139(6) 0.2554(3)
H65 H 0.8735 0.3352 0.2314
O28 O 0.8541(4) 0.4665(4) 0.1868(3)
O29 O 0.8034(4) 0.5231(4) 0.1150(3)
O31 O 0.7462(5) 0.2481(4) 0.1174(3)
O32 O 0.9330(5) 0.5404(5) 0.0378(3)
H66 H 0.8896 0.5456 0.0277
O34 O 0.7009(4) 0.1388(4) 0.1894(3)
O36 O 0.8726(5) 0.3506(5) 0.0317(3)
H68 H 0.9220 0.3583 0.0423
O39 O 0.5119(5) 0.5956(5) 0.2664(3)
H71 H 0.6433 0.0161 0.0041
O42 O 0.7850(6) 0.1484(6) 0.0399(4)
H73 H 0.7815 0.1922 0.0284
C48 C 0.5102(6) 0.6104(6) 0.1601(4)
H74 H 0.4812 0.5454 0.1528
O43 O 0.7702(8) 0.6629(9) 0.2620(5)
H75 H 0.8018 0.6778 0.2926
O44 O 0.5510(6) 0.7429(4) 0.3629(3)
O45 O 0.2759(6) 0.6288(4) 0.3547(3)
O46 O 0.4127(6) 0.5693(4) 0.3760(3)
H76 H 0.274979 0.667161 0.210612
H77 H 0.294356 0.741451 0.260461
H78 H 0.510297 0.829278 0.200815
H79 H 0.558128 0.867797 0.26405
H80 H 0.413847 0.844487 0.322186
H81 H 0.431527 0.80838 0.383859
H62 H 0.7817 0.5526 0.9800
O37 O 0.7164(5) 0.6856(5) 0.9878(3)
H69 H 0.7374 0.7372 0.9747
Sr3 Sr 0.32587(5) 0.74508(7) 0.95438(3)
C1 C 0.0571(7) 0.8161(6) 0.0580(5)
C3 C 0.3095(6) 0.8665(6) 0.0748(4)
H5 H 0.3402 0.9284 0.0594
C6 C 0.0073(6) 0.9068(6) 0.1125(4)
C13 C 0.1033(6) 0.8145(6) 0.1146(4)
H17 H 0.1025 0.7569 0.1166
C15 C 0.3776(5) 0.8406(5) 0.0919(4)
H19 H 0.3450 0.7784 0.1068
C16 C 0.0501(6) 0.8979(6) 0.0564(4)
H20 H 0.1108 0.9502 0.0531
C19 C 0.4359(5) 0.8985(6) 0.1419(4)
H24 H 0.4747 0.8751 0.1557
C21 C 0.3190(6) 0.9230(6) 0.1766(4)
H26 H 0.3505 0.9848 0.1608
C23 C 0.2562(5) 0.8607(6) 0.1291(4)
H28 H 0.2260 0.7988 0.1445
C26 C 0.2742(6) 0.9212(6) 0.2335(4)
H31 H 0.3179 0.9665 0.2606
H32 H 0.2279 0.9367 0.2254
H40 H 0.5943 0.9811 0.1468
C37 C 0.0185(8) 0.9024(8) 0.2242(5)
H44 H 0.0267 0.9618 0.2318
C39 C 0.0580(7) 0.9034(7) 0.1663(5)
H47 H 0.1197 0.9544 0.1649
O14 O 0.1017(5) 0.8081(5) 0.0101(3)
H60 H 0.1562 0.8423 0.0144
O15 O 0.2353(5) 0.8379(5) 0.2618(3)
H61 H 0.2365 0.8007 0.2388
O16 O 0.3821(4) 0.8969(4) 0.1906(3)
O17 O 0.1915(4) 0.8831(4) 0.1126(3)
O18 O 0.2571(4) 0.8081(4) 0.0296(3)
O19 O 0.0604(5) 0.8220(5) 0.1648(3)
O25 O 0.0101(4) 0.9898(4) 0.1102(3)
O30 O 0.4307(4) 0.8434(4) 0.0427(3)
O33 O 0.4893(4) 0.9844(4) 0.1196(3)
O35 O 0.5794(5) 0.9992(4) 0.2593(3)
H67 H 0.5309 0.9530 0.2653
O38 O 0.0016(5) 0.8942(6) 0.0053(4)
O40 O 0.6074(5) 0.9971(5) 0.0324(3)
O41 O 0.0541(7) 0.8789(7) 0.2720(4)
H72 H 0.0719 0.8450 0.2600
C1_2 C 0.1839(6) 0.2410(9) 0.7247(5)
H2 H 0.2361 0.2321 0.7250
C3_2 C 0.1335(6) 0.4430(8) 0.7415(4)
H5_2 H 0.0716 0.4118 0.7261
C6_2 C 0.0932(6) 0.1005(8) 0.7792(4)
H8 H 0.1423 0.0868 0.7814
C13_2 C 0.1855(6) 0.2888(8) 0.7813(4)
H17_2 H 0.2431 0.3456 0.7833
C15_2 C 0.1594(5) 0.5370(7) 0.7586(4)
H19_2 H 0.2216 0.5666 0.7735
C16_2 C 0.1021(6) 0.1522(8) 0.7231(4)
H20_2 H 0.0498 0.1606 0.7198
C19_2 C 0.1015(6) 0.5374(8) 0.8086(4)
H24_2 H 0.1249 0.5996 0.8224
C21_2 C 0.0770(6) 0.3960(8) 0.8433(4)
H26_2 H 0.0152 0.3657 0.8275
C23_2 C 0.1393(6) 0.3955(8) 0.7958(4)
H28_2 H 0.2012 0.4272 0.8112
C26_2 C 0.0788(6) 0.3530(8) 0.9002(4)
H31_2 H 0.0335 0.3514 0.9273
H32_2 H 0.0633 0.2912 0.8921
H40_2 H 0.0189 0.6132 0.8135
C37_2 C 0.0976(8) 0.1161(11) 0.8909(5)
H44_2 H 0.0382 0.0649 0.8985
H45 H 0.1397 0.0939 0.8889
C39_2 C 0.0966(7) 0.1546(10) 0.8330(5)
H47_2 H 0.0456 0.1653 0.8316
O14_2 O 0.1919(5) 0.2936(7) 0.6768(3)
H60_2 H 0.1577 0.3139 0.6811
O15_2 O 0.1621(5) 0.3974(7) 0.9285(3)
H61_2 H 0.1993 0.4358 0.9055
O16_2 O 0.1031(4) 0.4852(6) 0.8573(3)
O17_2 O 0.1169(4) 0.3084(6) 0.7793(3)
O18_2 O 0.1919(4) 0.4490(6) 0.6963(3)
O19_2 O 0.1780(5) 0.2384(7) 0.8315(3)
O25_2 O 0.0102(4) 0.0203(6) 0.7769(3)
O30_2 O 0.1566(4) 0.5873(6) 0.7094(3)
O33_2 O 0.0156(4) 0.5049(6) 0.7863(3)
O35_2 O 0.0008(4) 0.5802(6) 0.9260(3)
H67_2 H 0.0470 0.5779 0.9320
O38_2 O 0.1058(6) 0.1074(8) 0.6720(4)
H70 H 0.0800 0.0529 0.6787
O40_2 O 0.0029(5) 0.6103(7) 0.6991(3)
O41_2 O 0.1211(7) 0.1752(10) 0.9387(4)
H72_2 H 0.1550 0.2269 0.9267
Sr2 Sr 0.25492(7) 0.58079(9) 0.62104(3)
O5_2 O 0.1788(5) 0.6278(7) 0.0083(3)
H81_2 H 0.19162 0.623147 0.0505253
O1_2 O 0.3653(4) 0.8087(6) 0.8384(3)
O2_2 O 0.6255(4) 0.7612(6) 0.8637(3)
O3_2 O 0.7395(4) 0.8225(6) 0.7956(3)
O4 O 0.9695(4) 0.8946(6) 0.8337(3)
O6_2 O 0.3069(5) 0.8581(7) 0.6694(3)
H1_2 H 0.2544 0.8173 0.6741
O7_2 O 0.4727(4) 0.8081(6) 0.7789(3)
C2 C 0.9564(7) 0.8837(10) 0.7280(5)
H3 H 0.9534 0.8251 0.7301
O8_2 O 0.8075(6) 0.8169(10) 0.6840(3)
H4_2 H 0.7547 0.8012 0.6919
O9_2 O 0.2809(5) 0.6028(6) 0.8987(3)
C4 C 0.8822(6) 0.8803(9) 0.8406(4)
H6_2 H 0.8849 0.9388 0.8415
O10_2 O 0.1825(4) 0.7194(6) 0.9027(3)
C5_2 C 0.8232(6) 0.8263(8) 0.7905(4)
H7 H 0.8145 0.7653 0.7916
C9_2 C 0.8634(7) 0.8698(10) 0.7314(4)
H12_2 H 0.8674 0.9289 0.7301
C10_2 C 0.5186(6) 0.7641(8) 0.7968(4)
H13_2 H 0.4746 0.7040 0.8116
O11 O 0.8347(5) 0.7481(7) 0.8990(3)
H15 H 0.7830 0.7132 0.9105
C17_2 C 0.5686(6) 0.7538(8) 0.7437(4)
H21_2 H 0.6179 0.8132 0.7318
H22_2 H 0.2410 0.9594 0.7557
O12 O 0.9965(6) 0.9258(8) 0.6731(3)
H23 H 0.9971 0.8885 0.6499
C20_2 C 0.3395(6) 0.9024(8) 0.7722(4)
H25_2 H 0.2747 0.8685 0.7807
C22_2 C 0.3582(6) 0.8616(8) 0.7192(4)
H27_2 H 0.4224 0.8966 0.7091
C24_2 C 0.6058(6) 0.6970(8) 0.7634(4)
H29_2 H 0.5557 0.6394 0.7773
C27_2 C 0.6673(5) 0.7427(8) 0.8166(4)
H33_2 H 0.6899 0.7039 0.8316
C28_2 C 0.3822(6) 0.7667(8) 0.7916(4)
H34_2 H 0.3613 0.7041 0.8031
C29_2 C 0.3340(5) 0.7671(8) 0.7354(4)
H35_2 H 0.2690 0.7327 0.7434
O13_2 O 0.4741(4) 0.7588(6) 0.9227(3)
C35 C 0.8498(7) 0.8354(10) 0.9001(4)
H41 H 0.8942 0.8697 0.9309
H42_2 H 0.7943 0.8344 0.9106
C42_2 C 0.3663(6) 0.9319(8) 0.8820(4)
H51_2 H 0.3879 0.9959 0.8784
H52_2 H 0.3013 0.9010 0.8865
C44_2 C 0.5508(6) 0.8331(9) 0.8989(4)
H54_2 H 0.5971 0.8577 0.9298
H55_2 H 0.5361 0.8793 0.8885
C47_2 C 0.5871(6) 0.8129(8) 0.8458(4)
H59_2 H 0.6350 0.8699 0.8291
O22_2 O 0.6499(4) 0.6794(6) 0.7187(3)
H63 H 0.7009 0.6934 0.7303
O23_2 O 0.3529(4) 0.7241(6) 0.6881(3)
O24_2 O 0.5085(4) 0.7152(6) 0.6954(3)
H64_2 H 0.4944 0.6619 0.6920
O26_2 O 0.3644(4) 0.9917(6) 0.7594(3)
O39_2 O 0.4044(5) 0.9163(7) 0.9331(3)
C48_2 C 0.3896(6) 0.8998(8) 0.8268(4)
H74_2 H 0.4546 0.9358 0.8195
H76_2 H 0.332839 0.607817 0.877279
H77_2 H 0.258549 0.552905 0.927128
H78_2 H 0.170722 0.681019 0.867482
H79_2 H 0.132203 0.690331 0.930716
H80_2 H 0.155513 0.56936 0.988852
O1_3 O 0.1913(6) 0.5566(4) 0.5050(3)
O2_3 O 0.2388(6) 0.8643(4) 0.5303(3)
O3_3 O 0.1775(6) 0.9170(4) 0.4622(3)
O5_3 O 0.3722(7) 0.5510(5) 0.6749(3)
O6_3 O 0.1419(7) 0.4488(5) 0.3360(3)
H1_3 H 0.1827 0.4371 0.3407
O7_3 O 0.1919(6) 0.6646(4) 0.4455(3)
O8_3 O 0.1831(10) 0.9906(8) 0.3506(3)
H4_3 H 0.1988 0.9535 0.3585
O9_3 O 0.3972(6) 0.6781(4) 0.5653(3)
H6_3 H 0.0612 0.9461 0.5081
O10_3 O 0.2806(6) 0.4631(4) 0.5693(3)
C5_3 C 0.1737(8) 0.9969(6) 0.4571(4)
C9_3 C 0.1302(10) 0.9936(7) 0.3980(4)
H12_3 H 0.0711 0.9385 0.3967
C10_3 C 0.2359(8) 0.7545(6) 0.4634(4)
H13_3 H 0.2960 0.7706 0.4782
C17_3 C 0.2462(8) 0.8148(6) 0.4103(4)
H21_3 H 0.1868 0.8047 0.3984
H22_3 H 0.0406 0.2816 0.4223
C20_3 C 0.0976(8) 0.4371(6) 0.4388(4)
H25_3 H 0.1315 0.4062 0.4473
C22_3 C 0.1384(8) 0.4966(6) 0.3858(4)
H27_3 H 0.1034 0.5258 0.3757
C24_3 C 0.3030(8) 0.9088(6) 0.4300(4)
H29_3 H 0.3606 0.9163 0.4439
C27_3 C 0.2573(8) 0.9246(6) 0.4832(4)
H33_3 H 0.2961 0.9860 0.4982
C28_3 C 0.2333(8) 0.6155(6) 0.4582(4)
H34_3 H 0.2959 0.6572 0.4697
C29_3 C 0.2329(8) 0.5669(6) 0.4020(4)
H35_3 H 0.2673 0.5363 0.4100
O13_3 O 0.2412(6) 0.7153(4) 0.5893(3)
H42_3 H 0.1656 0.9599 0.5772
C42_3 C 0.0681(8) 0.4344(6) 0.5486(4)
H51_3 H 0.0041 0.3920 0.5450
H52_3 H 0.0990 0.4003 0.5531
C44_3 C 0.1669(9) 0.7177(7) 0.5655(4)
H54_3 H 0.1423 0.7394 0.5964
H55_3 H 0.1207 0.6568 0.5551
C47_3 C 0.1871(8) 0.7742(6) 0.5124(4)
H59_3 H 0.1301 0.7651 0.4957
O22_3 O 0.3206(6) 0.9705(4) 0.3853(3)
O24_3 O 0.2848(6) 0.7933(4) 0.3620(3)
H64_3 H 0.3381 0.8325 0.3586
O26_3 O 0.0083(6) 0.3727(4) 0.4260(3)
O39_3 O 0.0837(7) 0.4881(5) 0.5997(3)
C48_3 C 0.1002(8) 0.4898(6) 0.4934(4)
H74_3 H 0.0642 0.5188 0.4861
H76_3 H 0.392183 0.725021 0.543945
H77_3 H 0.447095 0.705644 0.593795
H78_3 H 0.318981 0.489703 0.534148
H79_3 H 0.309669 0.441872 0.597383
H80_3 H 0.43064 0.586153 0.655519
H81_3 H 0.376853 0.568473 0.717192
C1_3 C 0.7590(9) 0.9429(7) 0.3913(5)
C3_3 C 0.5570(8) 0.6905(6) 0.4081(4)
H5_3 H 0.5882 0.6598 0.3927
C6_3 C 0.8995(8) 0.9927(6) 0.4458(4)
C7_2 C 0.5045(9) 0.4364(7) 0.5707(4)
H9_2 H 0.5303 0.4120 0.5988
H10_2 H 0.5457 0.5007 0.5669
C8_2 C 0.5455(8) 0.1570(6) 0.4060(4)
H11_2 H 0.5977 0.2103 0.3890
C11_2 C 0.5743(8) 0.0897(6) 0.4206(4)
H14_2 H 0.5212 0.0348 0.4350
C12_2 C 0.8379(8) 0.2346(6) 0.3801(4)
H16_2 H 0.8468 0.2957 0.3791
C13_3 C 0.7112(8) 0.8967(6) 0.4479(4)
H17_3 H 0.6544 0.8975 0.4499
C14_2 C 0.8623(10) 0.2381(7) 0.4909(4)
H18_2 H 0.8733 0.2996 0.4953
C15_3 C 0.4630(7) 0.6224(5) 0.4252(4)
H19_3 H 0.4334 0.6550 0.4401
C16_3 C 0.8478(8) 0.9499(6) 0.3897(4)
H20_3 H 0.8394 0.8892 0.3864
C18_2 C 0.9852(8) 0.2847(6) 0.4267(4)
C19_3 C 0.4626(8) 0.5641(5) 0.4752(4)
H24_3 H 0.4004 0.5253 0.4890
C21_3 C 0.6040(8) 0.6810(6) 0.5099(4)
H26_3 H 0.6343 0.6495 0.4941
C23_3 C 0.6045(8) 0.7438(5) 0.4624(4)
H28_3 H 0.5728 0.7740 0.4778
C25_2 C 0.9274(8) 0.2401(6) 0.3733(4)
H30_2 H 0.9170 0.1785 0.3711
C26_3 C 0.6470(8) 0.7258(6) 0.5668(4)
H31_3 H 0.6486 0.6821 0.5939
H32_3 H 0.7088 0.7721 0.5587
C30_2 C 0.3807(10) 0.2710(7) 0.4229(5)
H36_2 H 0.3221 0.2597 0.4380
C31_2 C 0.4902(8) 0.3914(6) 0.5101(4)
H37_2 H 0.5487 0.4037 0.4942
C32_2 C 0.6427(8) 0.1232(6) 0.4699(4)
H38_2 H 0.6563 0.0757 0.4805
C33_2 C 0.7969(8) 0.1917(6) 0.4409(4)
H39_2 H 0.7808 0.1282 0.4401
C34_2 C 0.4462(8) 0.4201(6) 0.4648(4)
H40_3 H 0.3868 0.4057 0.4801
C37_3 C 0.8839(11) 0.9815(8) 0.5575(5)
H44_3 H 0.9351 0.9733 0.5651
C38_2 C 0.4338(8) 0.3684(6) 0.4084(4)
H46_2 H 0.4929 0.3825 0.3926
C39_3 C 0.8454(10) 0.9420(7) 0.4996(5)
H47_3 H 0.8347 0.8803 0.4982
C40_2 C 0.4214(9) 0.2438(7) 0.4714(5)
H48_2 H 0.3805 0.1807 0.4823
C41_2 C 0.8280(10) 0.1882(7) 0.5494(5)
H49_2 H 0.7729 0.1873 0.5609
H50_2 H 0.8143 0.1263 0.5444
C43_2 C 0.5950(10) 0.2154(7) 0.5109(4)
H53_2 H 0.6495 0.2686 0.4960
C45_2 C 0.5200(9) 0.1853(6) 0.4640(4)
H56_2 H 0.4652 0.1338 0.4802
C46_2 C 0.5688(12) 0.2360(8) 0.5686(5)
H57_2 H 0.6132 0.2439 0.5988
H58_2 H 0.5692 0.2927 0.5651
O14_3 O 0.7064(7) 0.8983(5) 0.3434(3)
H60_3 H 0.6861 0.8438 0.3477
O15_3 O 0.6026(7) 0.7647(5) 0.5951(3)
H61_3 H 0.5642 0.7635 0.5721
O16_3 O 0.5148(6) 0.6179(4) 0.5239(3)
O17_3 O 0.6916(6) 0.8085(4) 0.4459(3)
O19_3 O 0.7616(7) 0.9396(5) 0.4981(3)
O20_2 O 0.9432(6) 0.2403(4) 0.4795(3)
O21_2 O 0.7795(6) 0.1850(4) 0.3357(3)
H62_2 H 0.7709 0.2183 0.3133
O25_3 O 0.9797(6) 0.9899(4) 0.4435(3)
O27_2 O 0.4827(8) 0.1688(6) 0.5887(3)
H65_2 H 0.4617 0.1265 0.5647
O28_2 O 0.6124(6) 0.1459(4) 0.5201(3)
O29_2 O 0.7197(6) 0.1966(4) 0.4483(3)
O31_2 O 0.5019(6) 0.2538(5) 0.4507(3)
O32_2 O 0.6074(7) 0.0670(5) 0.3711(3)
H66_2 H 0.6560 0.1104 0.3610
O33_3 O 0.4951(6) 0.5107(4) 0.4529(3)
O34_2 O 0.4379(6) 0.2991(4) 0.5227(3)
O35_3 O 0.4198(6) 0.4206(5) 0.5926(3)
H67_3 H 0.4221 0.4691 0.5986
O36_2 O 0.4780(7) 0.1274(5) 0.3650(3)
H68_2 H 0.4363 0.0780 0.3756
O37_2 O 0.9692(7) 0.2836(5) 0.3211(3)
H69_2 H 0.9998 0.2626 0.3080
O38_3 O 0.8926(8) 0.9984(5) 0.3386(4)
O40_3 O 0.3897(7) 0.3926(5) 0.3657(3)
H71_2 H 0.3728 0.3567 0.3374
O41_3 O 0.8248(10) 0.9459(7) 0.6053(4)
H72_3 H 0.7731 0.9281 0.5933
O42_2 O 0.3634(8) 0.2150(6) 0.3732(4)
H73_2 H 0.4107 0.2185 0.3617
O43_2 O 0.8927(12) 0.2298(8) 0.5953(5)
H75_2 H 0.8760 0.1982 0.6259
O4_2 O 0.9251(5) 0.0305(4) 0.1670(3)
C2_2 C 0.9273(7) 0.0436(7) 0.0613(5)
H3_2 H 0.8717 0.0466 0.0634
C4_2 C 0.9981(7) 0.1178(6) 0.1739(4)
H7_2 H 0.9508 0.1855 0.1249
O11_2 O 0.9134(5) 0.1653(5) 0.2323(3)
H15_2 H 0.9302 0.2170 0.2438
O12_2 O 0.9293(6) 0.0035(6) 0.0064(3)
C35_2 C 0.9856(7) 0.1502(7) 0.2334(4)
H41_2 H 0.9755 0.1058 0.2642
H63_2 H 0.9925 0.2991 0.0636
H23_2 H 0.8914 0.0029 0.9832
H2_2 H 0.9960 0.7639 0.0583
H8_2 H 0.9445 0.8577 0.1147
C36 C 0.9311(6) 0.9922(7) 0.1133(5)
H43 H 0.8803 0.9306 0.1108
H45_2 H 0.9542 0.8603 0.2222
H70_2 H 0.9729 0.9200 0.0120
C36_2 C 0.0078(7) 0.9389(9) 0.7800(5)
H43_2 H 0.0694 0.9497 0.7775
C7_3 C 0.9319(6) 0.4955(9) 0.9041(4)
H9_3 H 0.8817 0.4697 0.9322
H10_3 H 0.9550 0.4543 0.9003
C8_3 C 0.6115(6) 0.4545(8) 0.7394(4)
H11_3 H 0.6126 0.4023 0.7224
C11_3 C 0.5154(6) 0.4257(8) 0.7540(4)
H14_3 H 0.5136 0.4788 0.7684
C12_3 C 0.3967(6) 0.1621(8) 0.7135(4)
H16_3 H 0.4489 0.1532 0.7125
C14_3 C 0.3758(7) 0.1377(10) 0.8243(4)
H18_3 H 0.4263 0.1267 0.8287
C18_3 C 0.2995(6) 0.0148(8) 0.7601(4)
C25_3 C 0.3127(6) 0.0726(8) 0.7067(4)
H30_3 H 0.2615 0.0830 0.7045
C30_3 C 0.8903(7) 0.6193(10) 0.7563(5)
H36_3 H 0.9376 0.6779 0.7714
C31_3 C 0.9012(6) 0.5098(8) 0.8435(4)
H37_3 H 0.8550 0.4513 0.8276
C32_3 C 0.4805(6) 0.3573(8) 0.8033(4)
H38_3 H 0.4194 0.3437 0.8139
C33_3 C 0.3948(6) 0.2031(8) 0.7743(4)
H39_3 H 0.3474 0.2192 0.7735
C34_3 C 0.9739(6) 0.5538(8) 0.7982(4)
C38_3 C 0.9346(6) 0.5662(8) 0.7418(4)
H46_3 H 0.8896 0.5071 0.7260
C40_3 C 0.8224(6) 0.5786(9) 0.8048(5)
H48_3 H 0.8002 0.6195 0.8157
C41_3 C 0.3602(7) 0.1720(10) 0.8828(5)
H49_3 H 0.4144 0.2271 0.8943
H50_3 H 0.3120 0.1857 0.8778
C43_3 C 0.6204(7) 0.4050(10) 0.8443(4)
H53_3 H 0.6191 0.3505 0.8294
C45_3 C 0.6653(7) 0.4800(9) 0.7974(4)
H56_3 H 0.6686 0.5348 0.8136
C46_3 C 0.6672(9) 0.4312(12) 0.9020(5)
H57_3 H 0.6307 0.3868 0.9322
H58_3 H 0.7235 0.4308 0.8985
O20_3 O 0.2971(5) 0.0568(6) 0.8129(3)
O21_3 O 0.4055(4) 0.2205(6) 0.6691(3)
H62_3 H 0.4474 0.2291 0.6467
O27_3 O 0.6861(6) 0.5173(8) 0.9221(3)
H65_3 H 0.6648 0.5383 0.8981
O28_3 O 0.5335(4) 0.3876(6) 0.8535(3)
O29_3 O 0.4769(4) 0.2803(6) 0.7817(3)
O31_3 O 0.7519(4) 0.4981(6) 0.7841(3)
O32_3 O 0.4596(5) 0.3926(7) 0.7045(3)
H66_3 H 0.4544 0.3440 0.6944
O34_3 O 0.8612(4) 0.5621(6) 0.8561(3)
O36_3 O 0.6494(5) 0.5220(7) 0.6984(3)
H68_3 H 0.6417 0.5637 0.7090
O37_3 O 0.3144(5) 0.0308(7) 0.6545(3)
H69_3 H 0.2628 0.0002 0.6414
H71_3 H 0.9839 0.6272 0.6708
O42_3 O 0.8516(6) 0.6366(8) 0.7066(4)
H73_3 H 0.8078 0.5893 0.6951
O43_3 O 0.3371(9) 0.1073(12) 0.9287(5)
H75_3 H 0.3222 0.1240 0.9593
O4_3 O 0.1054(6) 0.0749(5) 0.5003(3)
C2_3 C 0.1163(10) 0.0727(7) 0.3946(5)
H3_3 H 0.1749 0.1283 0.3967
C4_3 C 0.1197(9) 0.0019(7) 0.5072(4)
H7_3 H 0.2347 0.0492 0.4582
O11_3 O 0.2519(7) 0.0866(5) 0.5656(3)
H15_3 H 0.2868 0.0698 0.5771
O12_3 O 0.0742(8) 0.0707(6) 0.3397(3)
H23_3 H 0.1115 0.1086 0.3165
C35_3 C 0.1646(10) 0.0144(7) 0.5667(4)
H41_3 H 0.1303 0.0245 0.5975
C36_3 C 0.0611(9) 0.0689(6) 0.4466(5)
H43_3 H 0.0503 0.1197 0.4441
H63_3 H 0.3066 0.0075 0.3969
H2_3 H 0.7679 0.0040 0.3916
H8_3 H 0.9132 0.0555 0.4480
H45_3 H 0.9061 0.0458 0.5555
H70_3 H 0.9471 0.0271 0.3453
Br1 Br 0.12213(8) 0.61207(7) 0.17003(6)
Br1_2 Br 0.38793(7) 0.51006(11) 0.83670(6)
Br1_3 Br 0.48994(11) 0.87787(8) 0.50336(6)
Br2 Br 0.1950(3) 0.3027(2) 0.4780(3)
Br2_2 Br 0.6973(2) 0.8923(4) 0.1447(3)
Br2_3 Br 0.1077(4) 0.8050(3) 0.8113(3)
loop_
_geom_bond_atom_site_label_1
_geom_bond_atom_site_label_2
_geom_bond_site_symmetry_1
_geom_bond_site_symmetry_2
Sr1 O1 1_555 1_555
O1 C28 1_555 1_555
O2 C27 1_555 1_555
O3 C5 1_555 1_555
O5 Sr1 1_555 1_555
O6 H1 1_555 1_555
O7 C10 1_555 1_555
O8 H4 1_555 1_555
O9 Sr1 1_555 1_555
O10 Sr1 1_555 1_555
C7 H9 1_555 1_555
H10 C7 1_555 1_555
C8 H11 1_555 1_555
H12 C9 1_555 1_555
C10 H13 1_555 1_555
C11 C8 1_555 1_555
H14 C11 1_555 1_555
C12 H16 1_555 1_555
C14 H18 1_555 1_555
C17 C10 1_555 1_555
H21 C17 1_555 1_555
C18 H22 1_555 1_555
C20 H25 1_555 1_555
C22 O6 1_555 1_555
H27 C22 1_555 1_555
C24 C17 1_555 1_555
H29 C24 1_555 1_555
C25 C12 1_555 1_555
H30 C25 1_555 1_555
C27 O3 1_555 1_555
H33 C27 1_555 1_555
C28 O7 1_555 1_555
H34 C28 1_555 1_555
C29 C22 1_555 1_555
H35 C29 1_555 1_555
C30 H36 1_555 1_555
C31 C7 1_555 1_555
H37 C31 1_555 1_555
C32 C11 1_555 1_555
H38 C32 1_555 1_555
O13 Sr1 1_555 1_555
C33 C12 1_555 1_555
H39 C33 1_555 1_555
C34 C31 1_555 1_555
C38 C30 1_555 1_555
H46 C38 1_555 1_555
C40 C30 1_555 1_555
H48 C40 1_555 1_555
C41 C14 1_555 1_555
H49 C41 1_555 1_555
H50 C41 1_555 1_555
C42 H51 1_555 1_555
H52 C42 1_555 1_555
C43 H53 1_555 1_555
C44 O13 1_555 1_555
H54 C44 1_555 1_555
H55 C44 1_555 1_555
C45 C8 1_555 1_555
H56 C45 1_555 1_555
C46 C43 1_555 1_555
H57 C46 1_555 1_555
H58 C46 1_555 1_555
C47 O2 1_555 1_555
H59 C47 1_555 1_555
O20 C14 1_555 1_555
O21 C12 1_555 1_555
O22 C24 1_555 1_555
O23 C29 1_555 1_555
O24 C17 1_555 1_555
H64 O24 1_555 1_555
O26 C18 1_555 1_555
O27 C46 1_555 1_555
H65 O27 1_555 1_555
O28 C32 1_555 1_555
O29 C32 1_555 1_555
O31 C40 1_555 1_555
O32 C11 1_555 1_555
H66 O32 1_555 1_555
O34 C31 1_555 1_555
O36 C8 1_555 1_555
H68 O36 1_555 1_555
O39 Sr1 1_555 1_555
O42 C30 1_555 1_555
H73 O42 1_555 1_555
C48 O1 1_555 1_555
H74 C48 1_555 1_555
O43 C41 1_555 1_555
H75 O43 1_555 1_555
O44 Sr1 1_555 1_555
O45 Sr1 1_555 1_555
O46 Sr1 1_555 1_555
O8 C9 1_555 1_555
C5 C9 1_555 1_555
C10 C47 1_555 1_555
C14 C33 1_555 1_555
C18 C25 1_555 1_555
C18 O20 1_555 1_555
C20 C22 1_555 1_555
C20 O26 1_555 1_555
C20 C48 1_555 1_555
C24 C27 1_555 1_555
C28 C29 1_555 1_555
C33 O29 1_555 1_555
C34 C38 1_555 1_555
C40 O34 1_555 1_555
C42 O39 1_555 1_555
C42 C48 1_555 1_555
C43 C45 1_555 1_555
C43 O28 1_555 1_555
C44 C47 1_555 1_555
C45 O31 1_555 1_555
O9 H76 1_555 1_555
O9 H77 1_555 1_555
O10 H78 1_555 1_555
O10 H79 1_555 1_555
O5 H80 1_555 1_555
O5 H81 1_555 1_555
H69 O37 1_555 1_555
C3 H5 1_555 1_555
C13 C1 1_555 1_555
H17 C13 1_555 1_555
C15 C3 1_555 1_555
H19 C15 1_555 1_555
C16 C1 1_555 1_555
H20 C16 1_555 1_555
C19 C15 1_555 1_555
H24 C19 1_555 1_555
C21 H26 1_555 1_555
C23 C3 1_555 1_555
H28 C23 1_555 1_555
C26 C21 1_555 1_555
H31 C26 1_555 1_555
H32 C26 1_555 1_555
C37 H44 1_555 1_555
C39 C6 1_555 1_555
H47 C39 1_555 1_555
O14 C1 1_555 1_555
H60 O14 1_555 1_555
O15 C26 1_555 1_555
H61 O15 1_555 1_555
O16 C19 1_555 1_555
O17 C13 1_555 1_555
O18 C3 1_555 1_555
O19 C13 1_555 1_555
O25 C6 1_555 1_555
O30 C15 1_555 1_555
O33 C19 1_555 1_555
H67 O35 1_555 1_555
O38 C16 1_555 1_555
O41 C37 1_555 1_555
H72 O41 1_555 1_555
C6 C16 1_555 1_555
C21 C23 1_555 1_555
C21 O16 1_555 1_555
C23 O17 1_555 1_555
C37 C39 1_555 1_555
C39 O19 1_555 1_555
C1_2 H2 1_555 1_555
C3_2 H5_2 1_555 1_555
C6_2 H8 1_555 1_555
C13_2 C1_2 1_555 1_555
H17_2 C13_2 1_555 1_555
C15_2 C3_2 1_555 1_555
H19_2 C15_2 1_555 1_555
C16_2 C1_2 1_555 1_555
H20_2 C16_2 1_555 1_555
C19_2 C15_2 1_555 1_555
H24_2 C19_2 1_555 1_555
C21_2 H26_2 1_555 1_555
C23_2 C3_2 1_555 1_555
H28_2 C23_2 1_555 1_555
C26_2 C21_2 1_555 1_555
H31_2 C26_2 1_555 1_555
H32_2 C26_2 1_555 1_555
C37_2 H44_2 1_555 1_555
H45 C37_2 1_555 1_555
C39_2 C6_2 1_555 1_555
H47_2 C39_2 1_555 1_555
O14_2 C1_2 1_555 1_555
H60_2 O14_2 1_555 1_555
O15_2 C26_2 1_555 1_555
H61_2 O15_2 1_555 1_555
O16_2 C19_2 1_555 1_555
O17_2 C13_2 1_555 1_555
O18_2 C3_2 1_555 1_555
O19_2 C13_2 1_555 1_555
O25_2 C6_2 1_555 1_555
O30_2 C15_2 1_555 1_555
O33_2 C19_2 1_555 1_555
H67_2 O35_2 1_555 1_555
O38_2 C16_2 1_555 1_555
H70 O38_2 1_555 1_555
O41_2 C37_2 1_555 1_555
H72_2 O41_2 1_555 1_555
Sr2 O18_2 1_555 1_555
C6_2 C16_2 1_555 1_555
C21_2 C23_2 1_555 1_555
C21_2 O16_2 1_555 1_555
C23_2 O17_2 1_555 1_555
C37_2 C39_2 1_555 1_555
C39_2 O19_2 1_555 1_555
O30_2 Sr2 1_555 1_555
O5_2 H81_2 1_555 1_555
Sr3 O1_2 1_555 1_555
O1_2 C28_2 1_555 1_555
O2_2 C27_2 1_555 1_555
O3_2 C5_2 1_555 1_555
O4 C4 1_555 1_555
O6_2 H1_2 1_555 1_555
O7_2 C10_2 1_555 1_555
C2 H3 1_555 1_555
O8_2 H4_2 1_555 1_555
O9_2 Sr3 1_555 1_555
C4 H6_2 1_555 1_555
O10_2 Sr3 1_555 1_555
C5_2 C4 1_555 1_555
H7 C5_2 1_555 1_555
C9_2 C2 1_555 1_555
H12_2 C9_2 1_555 1_555
C10_2 H13_2 1_555 1_555
O11 H15 1_555 1_555
C17_2 C10_2 1_555 1_555
H21_2 C17_2 1_555 1_555
O12 C2 1_555 1_555
H23 O12 1_555 1_555
C20_2 H25_2 1_555 1_555
C22_2 O6_2 1_555 1_555
H27_2 C22_2 1_555 1_555
C24_2 C17_2 1_555 1_555
H29_2 C24_2 1_555 1_555
C27_2 O3_2 1_555 1_555
H33_2 C27_2 1_555 1_555
C28_2 O7_2 1_555 1_555
H34_2 C28_2 1_555 1_555
C29_2 C22_2 1_555 1_555
H35_2 C29_2 1_555 1_555
O13_2 Sr3 1_555 1_555
C35 C4 1_555 1_555
H41 C35 1_555 1_555
H42_2 C35 1_555 1_555
C42_2 H51_2 1_555 1_555
H52_2 C42_2 1_555 1_555
C44_2 O13_2 1_555 1_555
H54_2 C44_2 1_555 1_555
H55_2 C44_2 1_555 1_555
C47_2 O2_2 1_555 1_555
H59_2 C47_2 1_555 1_555
O22_2 C24_2 1_555 1_555
H63 O22_2 1_555 1_555
O23_2 C29_2 1_555 1_555
O24_2 C17_2 1_555 1_555
H64_2 O24_2 1_555 1_555
O39_2 Sr3 1_555 1_555
C48_2 O1_2 1_555 1_555
H74_2 C48_2 1_555 1_555
Sr2 O23_2 1_555 1_555
O8_2 C9_2 1_555 1_555
C5_2 C9_2 1_555 1_555
C10_2 C47_2 1_555 1_555
O11 C35 1_555 1_555
C20_2 C22_2 1_555 1_555
C20_2 O26_2 1_555 1_555
C20_2 C48_2 1_555 1_555
C24_2 C27_2 1_555 1_555
C28_2 C29_2 1_555 1_555
C42_2 O39_2 1_555 1_555
C42_2 C48_2 1_555 1_555
C44_2 C47_2 1_555 1_555
O9_2 H76_2 1_555 1_555
O9_2 H77_2 1_555 1_555
O10_2 H78_2 1_555 1_555
O10_2 H79_2 1_555 1_555
Sr2 O1_3 1_555 1_555
O1_3 C28_3 1_555 1_555
O2_3 C27_3 1_555 1_555
O3_3 C5_3 1_555 1_555
O5_3 Sr2 1_555 1_555
O6_3 H1_3 1_555 1_555
O7_3 C10_3 1_555 1_555
O8_3 H4_3 1_555 1_555
O9_3 Sr2 1_555 1_555
O10_3 Sr2 1_555 1_555
H12_3 C9_3 1_555 1_555
C10_3 H13_3 1_555 1_555
C17_3 C10_3 1_555 1_555
H21_3 C17_3 1_555 1_555
C20_3 H25_3 1_555 1_555
C22_3 O6_3 1_555 1_555
H27_3 C22_3 1_555 1_555
C24_3 C17_3 1_555 1_555
H29_3 C24_3 1_555 1_555
C27_3 O3_3 1_555 1_555
H33_3 C27_3 1_555 1_555
C28_3 O7_3 1_555 1_555
H34_3 C28_3 1_555 1_555
C29_3 C22_3 1_555 1_555
H35_3 C29_3 1_555 1_555
O13_3 Sr2 1_555 1_555
C42_3 H51_3 1_555 1_555
H52_3 C42_3 1_555 1_555
C44_3 O13_3 1_555 1_555
H54_3 C44_3 1_555 1_555
H55_3 C44_3 1_555 1_555
C47_3 O2_3 1_555 1_555
H59_3 C47_3 1_555 1_555
O22_3 C24_3 1_555 1_555
O45 C29_3 1_555 1_555
O24_3 C17_3 1_555 1_555
H64_3 O24_3 1_555 1_555
O39_3 Sr2 1_555 1_555
C48_3 O1_3 1_555 1_555
H74_3 C48_3 1_555 1_555
O8_3 C9_3 1_555 1_555
C5_3 C9_3 1_555 1_555
C10_3 C47_3 1_555 1_555
C20_3 C22_3 1_555 1_555
C20_3 O26_3 1_555 1_555
C20_3 C48_3 1_555 1_555
C24_3 C27_3 1_555 1_555
C28_3 C29_3 1_555 1_555
C42_3 O39_3 1_555 1_555
C42_3 C48_3 1_555 1_555
C44_3 C47_3 1_555 1_555
O9_3 H76_3 1_555 1_555
O9_3 H77_3 1_555 1_555
O10_3 H78_3 1_555 1_555
O10_3 H79_3 1_555 1_555
O5_3 H80_3 1_555 1_555
O5_3 H81_3 1_555 1_555
C3_3 H5_3 1_555 1_555
C7_2 H9_2 1_555 1_555
H10_2 C7_2 1_555 1_555
C8_2 H11_2 1_555 1_555
C11_2 C8_2 1_555 1_555
H14_2 C11_2 1_555 1_555
C12_2 H16_2 1_555 1_555
C13_3 C1_3 1_555 1_555
H17_3 C13_3 1_555 1_555
C14_2 H18_2 1_555 1_555
C15_3 C3_3 1_555 1_555
H19_3 C15_3 1_555 1_555
C16_3 C1_3 1_555 1_555
H20_3 C16_3 1_555 1_555
C19_3 C15_3 1_555 1_555
H24_3 C19_3 1_555 1_555
C21_3 H26_3 1_555 1_555
C23_3 C3_3 1_555 1_555
H28_3 C23_3 1_555 1_555
C25_2 C12_2 1_555 1_555
H30_2 C25_2 1_555 1_555
C26_3 C21_3 1_555 1_555
H31_3 C26_3 1_555 1_555
H32_3 C26_3 1_555 1_555
C30_2 H36_2 1_555 1_555
C31_2 C7_2 1_555 1_555
H37_2 C31_2 1_555 1_555
C32_2 C11_2 1_555 1_555
H38_2 C32_2 1_555 1_555
C33_2 C12_2 1_555 1_555
H39_2 C33_2 1_555 1_555
C34_2 C31_2 1_555 1_555
H40_3 C34_2 1_555 1_555
C37_3 H44_3 1_555 1_555
C38_2 C30_2 1_555 1_555
H46_2 C38_2 1_555 1_555
C39_3 C6_3 1_555 1_555
H47_3 C39_3 1_555 1_555
C40_2 C30_2 1_555 1_555
H48_2 C40_2 1_555 1_555
C41_2 C14_2 1_555 1_555
H49_2 C41_2 1_555 1_555
H50_2 C41_2 1_555 1_555
C43_2 H53_2 1_555 1_555
C45_2 C8_2 1_555 1_555
H56_2 C45_2 1_555 1_555
C46_2 C43_2 1_555 1_555
H57_2 C46_2 1_555 1_555
H58_2 C46_2 1_555 1_555
O14_3 C1_3 1_555 1_555
H60_3 O14_3 1_555 1_555
O15_3 C26_3 1_555 1_555
H61_3 O15_3 1_555 1_555
O16_3 C19_3 1_555 1_555
O17_3 C13_3 1_555 1_555
O44 C3_3 1_555 1_555
O19_3 C13_3 1_555 1_555
O20_2 C14_2 1_555 1_555
O21_2 C12_2 1_555 1_555
H62_2 O21_2 1_555 1_555
O25_3 C6_3 1_555 1_555
O27_2 C46_2 1_555 1_555
H65_2 O27_2 1_555 1_555
O28_2 C32_2 1_555 1_555
O29_2 C32_2 1_555 1_555
O46 C15_3 1_555 1_555
O31_2 C40_2 1_555 1_555
O32_2 C11_2 1_555 1_555
H66_2 O32_2 1_555 1_555
O33_3 C19_3 1_555 1_555
O34_2 C31_2 1_555 1_555
O35_3 C7_2 1_555 1_555
H67_3 O35_3 1_555 1_555
O36_2 C8_2 1_555 1_555
H68_2 O36_2 1_555 1_555
O37_2 C25_2 1_555 1_555
H69_2 O37_2 1_555 1_555
O38_3 C16_3 1_555 1_555
O40_3 C38_2 1_555 1_555
H71_2 O40_3 1_555 1_555
O41_3 C37_3 1_555 1_555
H72_3 O41_3 1_555 1_555
O42_2 C30_2 1_555 1_555
H73_2 O42_2 1_555 1_555
O43_2 C41_2 1_555 1_555
H75_2 O43_2 1_555 1_555
C6_3 C16_3 1_555 1_555
C14_2 C33_2 1_555 1_555
C18_2 C25_2 1_555 1_555
C18_2 O20_2 1_555 1_555
C21_3 C23_3 1_555 1_555
C21_3 O16_3 1_555 1_555
C23_3 O17_3 1_555 1_555
C33_2 O29_2 1_555 1_555
C34_2 C38_2 1_555 1_555
C34_2 O33_3 1_555 1_555
C37_3 C39_3 1_555 1_555
C39_3 O19_3 1_555 1_555
C40_2 O34_2 1_555 1_555
C43_2 C45_2 1_555 1_555
C43_2 O28_2 1_555 1_555
C45_2 O31_2 1_555 1_555
O4_2 C4_2 1_555 1_555
C2_2 H3_2 1_555 1_555
O11_2 H15_2 1_555 1_555
O12_2 C2_2 1_555 1_555
C35_2 C4_2 1_555 1_555
H41_2 C35_2 1_555 1_555
O11_2 C35_2 1_555 1_555
H43 C36 1_555 1_555
H43_2 C36_2 1_555 1_555
C7_3 H9_3 1_555 1_555
H10_3 C7_3 1_555 1_555
C8_3 H11_3 1_555 1_555
C11_3 C8_3 1_555 1_555
H14_3 C11_3 1_555 1_555
C12_3 H16_3 1_555 1_555
C14_3 H18_3 1_555 1_555
C25_3 C12_3 1_555 1_555
H30_3 C25_3 1_555 1_555
C30_3 H36_3 1_555 1_555
C31_3 C7_3 1_555 1_555
H37_3 C31_3 1_555 1_555
C32_3 C11_3 1_555 1_555
H38_3 C32_3 1_555 1_555
C33_3 C12_3 1_555 1_555
H39_3 C33_3 1_555 1_555
C34_3 C31_3 1_555 1_555
C38_3 C30_3 1_555 1_555
H46_3 C38_3 1_555 1_555
C40_3 C30_3 1_555 1_555
H48_3 C40_3 1_555 1_555
C41_3 C14_3 1_555 1_555
H49_3 C41_3 1_555 1_555
H50_3 C41_3 1_555 1_555
C43_3 H53_3 1_555 1_555
C45_3 C8_3 1_555 1_555
H56_3 C45_3 1_555 1_555
C46_3 C43_3 1_555 1_555
H57_3 C46_3 1_555 1_555
H58_3 C46_3 1_555 1_555
O20_3 C14_3 1_555 1_555
O21_3 C12_3 1_555 1_555
H62_3 O21_3 1_555 1_555
O27_3 C46_3 1_555 1_555
H65_3 O27_3 1_555 1_555
O28_3 C32_3 1_555 1_555
O29_3 C32_3 1_555 1_555
O31_3 C40_3 1_555 1_555
O32_3 C11_3 1_555 1_555
H66_3 O32_3 1_555 1_555
O34_3 C31_3 1_555 1_555
O36_3 C8_3 1_555 1_555
H68_3 O36_3 1_555 1_555
O37_3 C25_3 1_555 1_555
H69_3 O37_3 1_555 1_555
O42_3 C30_3 1_555 1_555
H73_3 O42_3 1_555 1_555
O43_3 C41_3 1_555 1_555
H75_3 O43_3 1_555 1_555
C14_3 C33_3 1_555 1_555
C18_3 C25_3 1_555 1_555
C18_3 O20_3 1_555 1_555
C33_3 O29_3 1_555 1_555
C34_3 C38_3 1_555 1_555
C40_3 O34_3 1_555 1_555
C43_3 C45_3 1_555 1_555
C43_3 O28_3 1_555 1_555
C45_3 O31_3 1_555 1_555
O4_3 C4_3 1_555 1_555
C2_3 H3_3 1_555 1_555
O11_3 H15_3 1_555 1_555
O12_3 C2_3 1_555 1_555
H23_3 O12_3 1_555 1_555
C35_3 C4_3 1_555 1_555
H41_3 C35_3 1_555 1_555
C36_3 O4_3 1_555 1_555
H43_3 C36_3 1_555 1_555
C2_3 C36_3 1_555 1_555
O11_3 C35_3 1_555 1_555

#END
