
###############################################################################
#
# This file contains modified crystal structure data generated from the
# MOF subset of the Cambridge Structural Database (CSD) v543 
# hosted by the Cambridge Crystallographic Data Centre (CCDC).
#
# This work is licensed under the Creative Commons
# Attribution-NonCommercial-ShareAlike 4.0 International License.
# To view a copy of this license, visit
# http://creativecommons.org/licenses/by-nc-sa/4.0/
# or send a letter to
# Creative Commons, PO Box 1866, Mountain View, CA 94042, USA.
#
# CIF created using the CSD Python API on 29 September 2022
# The structure has been converted into the P1 space group
# The structure has a 3D framework
# The original CSD entry YAPXIA is in the monoclinic crystal system
# The framework has been calculated to contain at least 10.0% void space
# The void calculation uses a probe of radius 1.32A, grid spacing 0.4
#
###############################################################################

data_YAPXIA
_chemical_formula_moiety         '(C344 H264 Eu8 N16 O72)n'
_symmetry_cell_setting           triclinic
_symmetry_space_group_name_H-M   'P 1'
_symmetry_Int_Tables_number      1
_space_group_name_Hall           'P 1'
loop_
_symmetry_equiv_pos_site_id
_symmetry_equiv_pos_as_xyz
1 x,y,z
_cell_length_a                   19.806(4)
_cell_length_b                   24.602(5)
_cell_length_c                   18.733(4)
_cell_angle_alpha                90
_cell_angle_beta                 112.36(3)
_cell_angle_gamma                90
_cell_volume                     8441.66
loop_
_atom_site_label
_atom_site_type_symbol
_atom_site_fract_x
_atom_site_fract_y
_atom_site_fract_z
C82 C 0.5303(4) 0.7142(3) 0.0278(5)
H63 H 0.5465 0.7370 0.0706
C84 C 0.5782(4) 0.6785(3) 0.0142(5)
H65 H 0.6272 0.6784 0.0467
Eu1 Eu 0.2500 0.58053(2) 0.2500
Eu2 Eu 0.2500 0.74232(2) 0.2500
O1 O 0.3358(2) 0.70775(16) 0.2019(3)
O2 O 0.3336(2) 0.61658(16) 0.2004(3)
C1 C 0.4399(3) 0.6612(2) 0.1996(4)
C2 C 0.3638(3) 0.6620(2) 0.1999(4)
C3 C 0.5851(4) 0.6560(4) 0.2148(5)
H1 H 0.6337 0.6539 0.2203
C4 C 0.4599(3) 0.6237(3) 0.1543(4)
C5 C 0.5329(4) 0.6208(3) 0.1637(5)
H2 H 0.5475 0.5953 0.1358
C6 C 0.5637(4) 0.6936(3) 0.2566(5)
H3 H 0.5980 0.7171 0.2901
C7 C 0.4913(4) 0.6966(3) 0.2492(4)
H4 H 0.4772 0.7222 0.2773
C8 C 0.4042(3) 0.5923(3) 0.0916(4)
C10 C 0.3488(3) 0.6208(2) 0.0335(4)
H6 H 0.3470 0.6585 0.0359
C11 C 0.3529(4) 0.5086(3) 0.0246(4)
H7 H 0.3545 0.4709 0.0218
C12 C 0.1015(3) 0.4445(2) 0.0392(4)
H8 H 0.1277 0.4732 0.0694
H15 H 0.2236 0.4573 0.0169
C19 C 0.0005(3) 0.3802(2) 0.0070(4)
C20 C 0.0424(3) 0.4227(2) 0.0523(4)
H17 H 0.0304 0.4366 0.0921
H19 H 0.0023 0.3433 0.1390
C42 C 0.4062(4) 0.5358(3) 0.0854(4)
H33 H 0.4434 0.5161 0.1221
O7 O 0.1706(5) 0.5014(4) 0.2402(5)
O8 O 0.2401(7) 0.5105(5) 0.3440(7)
O9 O 0.1829(6) 0.4264(4) 0.3251(6)
N2 N 0.1929(7) 0.4763(5) 0.3019(7)
O10 O 0.1642(2) 0.70775(16) 0.2981(3)
O11 O 0.1664(2) 0.61658(16) 0.2996(3)
C44 C 0.0601(3) 0.6612(2) 0.3004(4)
C45 C 0.1362(3) 0.6620(2) 0.3001(4)
C47 C 0.0401(3) 0.6237(3) 0.3457(4)
C50 C 0.0087(4) 0.6966(3) 0.2508(4)
H37 H 0.0228 0.7222 0.2227
C51 C 0.0958(3) 0.5923(3) 0.4084(4)
C52 C 0.2031(3) 0.5934(2) 0.5272(4)
H38 H 0.2389 0.6130 0.5656
C53 C 0.1512(3) 0.6208(2) 0.4665(4)
H39 H 0.1530 0.6585 0.4641
C54 C 0.1471(4) 0.5086(3) 0.4754(4)
H40 H 0.1455 0.4709 0.4782
C55 C 0.3985(3) 0.4445(2) 0.4608(4)
H41 H 0.3723 0.4732 0.4306
C56 C 0.2583(3) 0.5089(2) 0.5998(4)
H42 H 0.2362 0.4766 0.6112
H43 H 0.2709 0.5329 0.6441
N3 N 0.3294(3) 0.49212(19) 0.5902(3)
C57 C 0.3784(3) 0.4234(2) 0.5195(4)
C58 C 0.3594(3) 0.5391(2) 0.5607(4)
H44 H 0.3270 0.5475 0.5089
H45 H 0.4066 0.5298 0.5612
H46 H 0.3636 0.5702 0.5931
C59 C 0.3121(3) 0.4450(2) 0.5321(4)
H47 H 0.2902 0.4156 0.5503
H48 H 0.2764 0.4573 0.4831
C60 C 0.2023(3) 0.5370(2) 0.5315(4)
C61 C 0.4196(4) 0.3804(2) 0.5639(4)
H49 H 0.4067 0.3656 0.6026
C62 C 0.4995(3) 0.3802(2) 0.4930(4)
C63 C 0.4576(3) 0.4227(2) 0.4477(4)
H50 H 0.4696 0.4366 0.4079
C64 C 0.4789(4) 0.3593(2) 0.5516(4)
H51 H 0.5055 0.3310 0.5824
C65 C 0.5437(4) 0.3370(2) 0.3988(4)
H52 H 0.4977 0.3433 0.3610
C66 C 0.5589(3) 0.3546(2) 0.4749(3)
C67 C 0.6288(3) 0.3432(2) 0.5313(3)
C68 C 0.5961(4) 0.3104(2) 0.3787(4)
H53 H 0.5856 0.3007 0.3276
C69 C 0.6637(3) 0.2986(2) 0.4347(4)
H54 H 0.6983 0.2801 0.4218
C70 C 0.6797(3) 0.3146(2) 0.5110(4)
H55 H 0.7249 0.3061 0.5488
C71 C 0.3735(4) 0.5256(3) 0.7799(4)
H56 H 0.3340 0.5040 0.7768
C72 C 0.4703(4) 0.5482(3) 0.7385(4)
H57 H 0.4962 0.5417 0.7071
C73 C 0.4096(4) 0.5164(2) 0.7299(4)
C74 C 0.3841(4) 0.4726(2) 0.6691(4)
H58 H 0.3617 0.4438 0.6877
H59 H 0.4264 0.4574 0.6621
C75 C 0.4547(3) 0.6004(2) 0.8405(4)
C76 C 0.4930(4) 0.5895(3) 0.7928(4)
H60 H 0.5339 0.6101 0.7976
C77 C 0.4800(4) 0.6431(3) 0.9011(4)
C78 C 0.3963(4) 0.5670(3) 0.8344(4)
H61 H 0.3718 0.5725 0.8675
C79 C 0.3577(3) 0.6939(2) 0.8539(4)
C80 C 0.4322(3) 0.6818(2) 0.9125(4)
C81 C 0.4583(4) 0.7155(2) 0.9773(4)
H62 H 0.4263 0.7396 0.9866
C83 C 0.5528(4) 0.6429(3) 0.9521(5)
H64 H 0.5851 0.6183 0.9444
O12 O 0.3097(2) 0.71455(16) 0.8754(2)
O13 O 0.3457(2) 0.68868(18) 0.7826(2)
C85 C 0.0938(4) 0.5358(3) 0.4146(4)
H66 H 0.0566 0.5161 0.3779
O14 O 0.6903(2) 0.33547(15) 0.6691(2)
O15 O 0.6519(3) 0.41598(17) 0.6209(3)
C86 C 0.6569(3) 0.3660(2) 0.6117(3)
O16 O 0.3294(5) 0.5014(4) 0.2598(5)
O17 O 0.2599(7) 0.5105(5) 0.1560(7)
O18 O 0.3171(6) 0.4264(4) 0.1749(6)
N4 N 0.3071(7) 0.4763(5) 0.1981(7)
Eu4 Eu 0.7500 0.41947(2) 0.7500
Eu6 Eu 0.7500 0.25768(2) 0.7500
Eu8 Eu 0.2500 0.75768(2) 0.7500
O19 O 0.1903(2) 0.78545(16) 0.1246(2)
O20 O 0.3097(2) 0.78545(16) 0.3754(2)
O21 O 0.1543(2) 0.81132(18) 0.2174(2)
O22 O 0.3457(2) 0.81132(18) 0.2826(2)
O23 O 0.1903(2) 0.66453(15) 0.1691(2)
O24 O 0.3097(2) 0.66453(15) 0.3309(2)
O25 O 0.1519(3) 0.58402(17) 0.1209(3)
O26 O 0.3481(3) 0.58402(17) 0.3791(3)
C9 C 0.2969(3) 0.5934(2) 0.9728(4)
H5 H 0.2611 0.6130 0.9344
C13 C 0.2417(3) 0.5089(2) 0.9002(4)
H9 H 0.2638 0.4766 0.8888
H10 H 0.2291 0.5329 0.8559
N1 N 0.1706(3) 0.49212(19) 0.9098(3)
C14 C 0.1216(3) 0.4234(2) 0.9805(4)
C15 C 0.1406(3) 0.5391(2) 0.9393(4)
H11 H 0.1730 0.5475 0.9911
H12 H 0.0934 0.5298 0.9388
H13 H 0.1364 0.5702 0.9069
C16 C 0.1879(3) 0.4450(2) 0.9679(4)
H14 H 0.2098 0.4156 0.9497
C17 C 0.2977(3) 0.5370(2) 0.9685(4)
C18 C 0.0804(4) 0.3804(2) 0.9361(4)
H16 H 0.0933 0.3656 0.8974
C21 C 0.0211(4) 0.3593(2) 0.9484(4)
C28 C 0.1265(4) 0.5256(3) 0.7201(4)
H23 H 0.1660 0.5040 0.7232
C29 C 0.0297(4) 0.5482(3) 0.7615(4)
H24 H 0.0038 0.5417 0.7929
C30 C 0.0904(4) 0.5164(2) 0.7701(4)
C31 C 0.1159(4) 0.4726(2) 0.8309(4)
H25 H 0.1383 0.4438 0.8123
H26 H 0.0736 0.4574 0.8379
C32 C 0.0453(3) 0.6004(2) 0.6595(4)
C33 C 0.0070(4) 0.5895(3) 0.7072(4)
C34 C 0.0200(4) 0.6431(3) 0.5989(4)
C35 C 0.1037(4) 0.5670(3) 0.6656(4)
H28 H 0.1282 0.5725 0.6325
C36 C 0.1423(3) 0.6939(2) 0.6461(4)
C37 C 0.0678(3) 0.6818(2) 0.5875(4)
C38 C 0.0417(4) 0.7155(2) 0.5227(4)
H29 H 0.0737 0.7396 0.5134
O3 O 0.1903(2) 0.71455(16) 0.6246(2)
O4 O 0.1543(2) 0.68868(18) 0.7174(2)
H18 H 0.9945 0.3310 0.9176
C24 C 0.8712(3) 0.3432(2) 0.9687(3)
C27 C 0.8203(3) 0.3146(2) 0.9890(4)
H22 H 0.7751 0.3061 0.9512
H27 H 0.9661 0.6101 0.7024
C39 C 0.9697(4) 0.7142(3) 0.4722(5)
H30 H 0.9535 0.7370 0.4294
C40 C 0.9472(4) 0.6429(3) 0.5479(5)
H31 H 0.9149 0.6183 0.5556
C41 C 0.9218(4) 0.6785(3) 0.4858(5)
H32 H 0.8728 0.6784 0.4533
O5 O 0.8097(2) 0.33547(15) 0.8309(2)
O6 O 0.8481(3) 0.41598(17) 0.8791(3)
C43 C 0.8431(3) 0.3660(2) 0.8883(3)
H18_2 H 0.0055 0.8310 0.5824
C22 C 0.0437(4) 0.8370(2) 0.3988(4)
C23 C 0.0589(3) 0.8546(2) 0.4749(3)
C24_2 C 0.1288(3) 0.8432(2) 0.5313(3)
C25 C 0.0961(4) 0.8104(2) 0.3787(4)
H20 H 0.0856 0.8007 0.3276
C26 C 0.1637(3) 0.7986(2) 0.4347(4)
H21 H 0.1983 0.7801 0.4218
C27_2 C 0.1797(3) 0.8146(2) 0.5110(4)
H22_2 H 0.2249 0.8061 0.5488
O5_2 O 0.1903(2) 0.83547(15) 0.6691(2)
O6_2 O 0.1519(3) 0.91598(17) 0.6209(3)
C43_2 C 0.1569(3) 0.8660(2) 0.6117(3)
Eu3 Eu 0.2500 0.91947(2) 0.7500
Eu1_2 Eu 0.7500 0.08053(2) 0.2500
Eu2_2 Eu 0.7500 0.24232(2) 0.2500
O1_2 O 0.6642(2) 0.20775(16) 0.2981(3)
O2_2 O 0.6664(2) 0.11658(16) 0.2996(3)
C1_2 C 0.5601(3) 0.1612(2) 0.3004(4)
C2_2 C 0.6362(3) 0.1620(2) 0.3001(4)
C3_2 C 0.4149(4) 0.1560(4) 0.2852(5)
H1_2 H 0.3663 0.1539 0.2797
C4_2 C 0.5401(3) 0.1237(3) 0.3457(4)
C5_2 C 0.4671(4) 0.1208(3) 0.3363(5)
H2_2 H 0.4525 0.0953 0.3642
C6_2 C 0.4363(4) 0.1936(3) 0.2434(5)
H3_2 H 0.4020 0.2171 0.2099
C7_2 C 0.5087(4) 0.1966(3) 0.2508(4)
H4_2 H 0.5228 0.2222 0.2227
C8_2 C 0.5958(3) 0.0923(3) 0.4084(4)
C9_2 C 0.7031(3) 0.0934(2) 0.5272(4)
H5_2 H 0.7389 0.1130 0.5656
C10_2 C 0.6512(3) 0.1208(2) 0.4665(4)
H6_2 H 0.6530 0.1585 0.4641
C11_2 C 0.6471(4) 0.0086(3) 0.4754(4)
C13_2 C 0.7583(3) 0.0089(2) 0.5998(4)
H10_2 H 0.7709 0.0329 0.6441
C15_2 C 0.8594(3) 0.0391(2) 0.5607(4)
H11_2 H 0.8270 0.0475 0.5089
H12_2 H 0.9066 0.0298 0.5612
H13_2 H 0.8636 0.0702 0.5931
C17_2 C 0.7023(3) 0.0370(2) 0.5315(4)
C28_2 C 0.8735(4) 0.0256(3) 0.7799(4)
H23_2 H 0.8340 0.0040 0.7768
C29_2 C 0.9703(4) 0.0482(3) 0.7385(4)
H24_2 H 0.9962 0.0417 0.7071
C30_2 C 0.9096(4) 0.0164(2) 0.7299(4)
C32_2 C 0.9547(3) 0.1004(2) 0.8405(4)
C33_2 C 0.9930(4) 0.0895(3) 0.7928(4)
C34_2 C 0.9800(4) 0.1431(3) 0.9011(4)
C35_2 C 0.8963(4) 0.0670(3) 0.8344(4)
H28_2 H 0.8718 0.0725 0.8675
C36_2 C 0.8577(3) 0.1939(2) 0.8539(4)
C37_2 C 0.9322(3) 0.1818(2) 0.9125(4)
C38_2 C 0.9583(4) 0.2155(2) 0.9773(4)
H29_2 H 0.9263 0.2396 0.9866
O3_2 O 0.8097(2) 0.21455(16) 0.8754(2)
O4_2 O 0.8457(2) 0.18868(18) 0.7826(2)
C42_2 C 0.5938(4) 0.0358(3) 0.4146(4)
H33_2 H 0.5566 0.0161 0.3779
O7_2 O 0.8294(5) 0.0014(4) 0.2598(5)
O8_2 O 0.7599(7) 0.0105(5) 0.1560(7)
O10_2 O 0.8358(2) 0.20775(16) 0.2019(3)
O11_2 O 0.8336(2) 0.11658(16) 0.2004(3)
C44_2 C 0.9399(3) 0.1612(2) 0.1996(4)
C45_2 C 0.8638(3) 0.1620(2) 0.1999(4)
C47_2 C 0.9599(3) 0.1237(3) 0.1543(4)
C50_2 C 0.9913(4) 0.1966(3) 0.2492(4)
H37_2 H 0.9772 0.2222 0.2773
C51_2 C 0.9042(3) 0.0923(3) 0.0916(4)
C53_2 C 0.8488(3) 0.1208(2) 0.0335(4)
H39_2 H 0.8470 0.1585 0.0359
C54_2 C 0.8529(4) 0.0086(3) 0.0246(4)
C85_2 C 0.9062(4) 0.0358(3) 0.0854(4)
H66_2 H 0.9434 0.0161 0.1221
O16_2 O 0.6706(5) 0.0014(4) 0.2402(5)
O17_2 O 0.7401(7) 0.0105(5) 0.3440(7)
O19_2 O 0.8097(2) 0.28545(16) 0.3754(2)
O20_2 O 0.6903(2) 0.28545(16) 0.1246(2)
O21_2 O 0.8457(2) 0.31132(18) 0.2826(2)
O22_2 O 0.6543(2) 0.31132(18) 0.2174(2)
O23_2 O 0.8097(2) 0.16453(15) 0.3309(2)
O24_2 O 0.6903(2) 0.16453(15) 0.1691(2)
O25_2 O 0.8481(3) 0.08402(17) 0.3791(3)
O26_2 O 0.6519(3) 0.08402(17) 0.1209(3)
C52_2 C 0.7969(3) 0.0934(2) 0.9728(4)
H38_2 H 0.7611 0.1130 0.9344
C56_2 C 0.7417(3) 0.0089(2) 0.9002(4)
H43_2 H 0.7291 0.0329 0.8559
C58_2 C 0.6406(3) 0.0391(2) 0.9393(4)
H44_2 H 0.6730 0.0475 0.9911
H45_2 H 0.5934 0.0298 0.9388
H46_2 H 0.6364 0.0702 0.9069
C60_2 C 0.7977(3) 0.0370(2) 0.9685(4)
C71_2 C 0.6265(4) 0.0256(3) 0.7201(4)
H56_2 H 0.6660 0.0040 0.7232
C72_2 C 0.5297(4) 0.0482(3) 0.7615(4)
H57_2 H 0.5038 0.0417 0.7929
C73_2 C 0.5904(4) 0.0164(2) 0.7701(4)
C75_2 C 0.5453(3) 0.1004(2) 0.6595(4)
C76_2 C 0.5070(4) 0.0895(3) 0.7072(4)
H60_2 H 0.4661 0.1101 0.7024
C77_2 C 0.5200(4) 0.1431(3) 0.5989(4)
C78_2 C 0.6037(4) 0.0670(3) 0.6656(4)
H61_2 H 0.6282 0.0725 0.6325
C79_2 C 0.6423(3) 0.1939(2) 0.6461(4)
C80_2 C 0.5678(3) 0.1818(2) 0.5875(4)
C81_2 C 0.5417(4) 0.2155(2) 0.5227(4)
H62_2 H 0.5737 0.2396 0.5134
C82_2 C 0.4697(4) 0.2142(3) 0.4722(5)
H63_2 H 0.4535 0.2370 0.4294
C83_2 C 0.4472(4) 0.1429(3) 0.5479(5)
H64_2 H 0.4149 0.1183 0.5556
C84_2 C 0.4218(4) 0.1785(3) 0.4858(5)
H65_2 H 0.3728 0.1784 0.4533
O12_2 O 0.6903(2) 0.21455(16) 0.6246(2)
O13_2 O 0.6543(2) 0.18868(18) 0.7174(2)
H42_2 H 0.7638 0.9766 0.8888
N3_2 N 0.6706(3) 0.99212(19) 0.9098(3)
C57_2 C 0.6216(3) 0.9234(2) 0.9805(4)
C59_2 C 0.6879(3) 0.9450(2) 0.9679(4)
H47_2 H 0.7098 0.9156 0.9497
C61_2 C 0.5804(4) 0.8804(2) 0.9361(4)
H49_2 H 0.5933 0.8656 0.8974
C64_2 C 0.5211(4) 0.8593(2) 0.9484(4)
H51_2 H 0.4945 0.8310 0.9176
C67_2 C 0.3712(3) 0.8432(2) 0.9687(3)
C70_2 C 0.3203(3) 0.8146(2) 0.9890(4)
H55_2 H 0.2751 0.8061 0.9512
C74_2 C 0.6159(4) 0.9726(2) 0.8309(4)
H58_2 H 0.6383 0.9438 0.8123
H59_2 H 0.5736 0.9574 0.8379
O14_2 O 0.3097(2) 0.83547(15) 0.8309(2)
O15_2 O 0.3481(3) 0.91598(17) 0.8791(3)
C86_2 C 0.3431(3) 0.8660(2) 0.8883(3)
H18_3 H 0.0055 0.6690 0.0824
C24_3 C 0.1288(3) 0.6568(2) 0.0313(3)
C27_3 C 0.1797(3) 0.6854(2) 0.0110(4)
H22_3 H 0.2249 0.6939 0.0488
H27_2 H 0.0339 0.3899 0.2976
C39_2 C 0.0303(4) 0.2858(3) 0.5278(5)
H30_2 H 0.0465 0.2630 0.5706
C40_2 C 0.0528(4) 0.3571(3) 0.4521(5)
H31_2 H 0.0851 0.3817 0.4444
C41_2 C 0.0782(4) 0.3215(3) 0.5142(5)
H32_2 H 0.1272 0.3216 0.5467
C43_3 C 0.1569(3) 0.6340(2) 0.1117(3)
C9_3 C 0.7031(3) 0.4066(2) 0.0272(4)
H5_3 H 0.7389 0.3870 0.0656
C13_3 C 0.7583(3) 0.4911(2) 0.0998(4)
H9_2 H 0.7362 0.5234 0.1112
H10_3 H 0.7709 0.4671 0.1441
N1_2 N 0.8294(3) 0.50788(19) 0.0902(3)
C14_2 C 0.8784(3) 0.5766(2) 0.0195(4)
C15_3 C 0.8594(3) 0.4609(2) 0.0607(4)
H11_3 H 0.8270 0.4525 0.0089
H12_3 H 0.9066 0.4702 0.0612
H13_3 H 0.8636 0.4298 0.0931
C16_2 C 0.8121(3) 0.5550(2) 0.0321(4)
H14_2 H 0.7902 0.5844 0.0503
C17_3 C 0.7023(3) 0.4630(2) 0.0315(4)
C18_2 C 0.9196(4) 0.6196(2) 0.0639(4)
H16_2 H 0.9067 0.6344 0.1026
C21_2 C 0.9789(4) 0.6407(2) 0.0516(4)
C28_3 C 0.8735(4) 0.4744(3) 0.2799(4)
H23_3 H 0.8340 0.4960 0.2768
C29_3 C 0.9703(4) 0.4518(3) 0.2385(4)
H24_3 H 0.9962 0.4583 0.2071
C30_3 C 0.9096(4) 0.4836(2) 0.2299(4)
C31_2 C 0.8841(4) 0.5274(2) 0.1691(4)
H25_2 H 0.8617 0.5562 0.1877
H26_2 H 0.9264 0.5426 0.1621
C32_3 C 0.9547(3) 0.3996(2) 0.3405(4)
C33_3 C 0.9930(4) 0.4105(3) 0.2928(4)
C34_3 C 0.9800(4) 0.3569(3) 0.4011(4)
C35_3 C 0.8963(4) 0.4330(3) 0.3344(4)
H28_3 H 0.8718 0.4275 0.3675
C36_3 C 0.8577(3) 0.3061(2) 0.3539(4)
C37_3 C 0.9322(3) 0.3182(2) 0.4125(4)
C38_3 C 0.9583(4) 0.2845(2) 0.4773(4)
H29_3 H 0.9263 0.2604 0.4866
O1_3 O 0.6642(2) 0.29225(16) 0.7981(3)
O2_3 O 0.6664(2) 0.38342(16) 0.7996(3)
C1_3 C 0.5601(3) 0.3388(2) 0.8004(4)
C2_3 C 0.6362(3) 0.3380(2) 0.8001(4)
C3_3 C 0.4149(4) 0.3440(4) 0.7852(5)
H1_3 H 0.3663 0.3461 0.7797
C4_3 C 0.5401(3) 0.3763(3) 0.8457(4)
C5_3 C 0.4671(4) 0.3792(3) 0.8363(5)
H2_3 H 0.4525 0.4047 0.8642
C6_3 C 0.4363(4) 0.3064(3) 0.7434(5)
H3_3 H 0.4020 0.2829 0.7099
C7_3 C 0.5087(4) 0.3034(3) 0.7508(4)
H4_3 H 0.5228 0.2778 0.7227
C8_3 C 0.5958(3) 0.4077(3) 0.9084(4)
C10_3 C 0.6512(3) 0.3792(2) 0.9665(4)
H6_3 H 0.6530 0.3415 0.9641
C11_3 C 0.6471(4) 0.4914(3) 0.9754(4)
H7_2 H 0.6455 0.5291 0.9782
C12_2 C 0.8985(3) 0.5555(2) 0.9608(4)
H8_2 H 0.8723 0.5268 0.9306
H15_2 H 0.7764 0.5427 0.9831
C19_2 C 0.9995(3) 0.6198(2) 0.9930(4)
C20_2 C 0.9576(3) 0.5773(2) 0.9477(4)
H17_2 H 0.9696 0.5634 0.9079
H19_2 H 0.9977 0.6567 0.8610
C42_3 C 0.5938(4) 0.4642(3) 0.9146(4)
H33_3 H 0.5566 0.4839 0.8779
O7_3 O 0.8294(5) 0.4986(4) 0.7598(5)
O8_3 O 0.7599(7) 0.4895(5) 0.6560(7)
O9_2 O 0.8171(6) 0.5736(4) 0.6749(6)
N2_2 N 0.8071(7) 0.5237(5) 0.6981(7)
O10_3 O 0.8358(2) 0.29225(16) 0.7019(3)
O11_3 O 0.8336(2) 0.38342(16) 0.7004(3)
C44_3 C 0.9399(3) 0.3388(2) 0.6996(4)
C45_3 C 0.8638(3) 0.3380(2) 0.6999(4)
C47_3 C 0.9599(3) 0.3763(3) 0.6543(4)
C50_3 C 0.9913(4) 0.3034(3) 0.7492(4)
H37_3 H 0.9772 0.2778 0.7773
C51_3 C 0.9042(3) 0.4077(3) 0.5916(4)
C52_3 C 0.7969(3) 0.4066(2) 0.4728(4)
H38_3 H 0.7611 0.3870 0.4344
C53_3 C 0.8488(3) 0.3792(2) 0.5335(4)
H39_3 H 0.8470 0.3415 0.5359
C54_3 C 0.8529(4) 0.4914(3) 0.5246(4)
H40_2 H 0.8545 0.5291 0.5218
C55_2 C 0.6015(3) 0.5555(2) 0.5392(4)
H41_2 H 0.6277 0.5268 0.5694
C56_3 C 0.7417(3) 0.4911(2) 0.4002(4)
H42_3 H 0.7638 0.5234 0.3888
H43_3 H 0.7291 0.4671 0.3559
N3_3 N 0.6706(3) 0.50788(19) 0.4098(3)
C57_3 C 0.6216(3) 0.5766(2) 0.4805(4)
C58_3 C 0.6406(3) 0.4609(2) 0.4393(4)
H44_3 H 0.6730 0.4525 0.4911
H45_3 H 0.5934 0.4702 0.4388
H46_3 H 0.6364 0.4298 0.4069
C59_3 C 0.6879(3) 0.5550(2) 0.4679(4)
H47_3 H 0.7098 0.5844 0.4497
H48_2 H 0.7236 0.5427 0.5169
C60_3 C 0.7977(3) 0.4630(2) 0.4685(4)
C61_3 C 0.5804(4) 0.6196(2) 0.4361(4)
H49_3 H 0.5933 0.6344 0.3974
C62_2 C 0.5005(3) 0.6198(2) 0.5070(4)
C63_2 C 0.5424(3) 0.5773(2) 0.5523(4)
H50_2 H 0.5304 0.5634 0.5921
C64_3 C 0.5211(4) 0.6407(2) 0.4484(4)
H51_3 H 0.4945 0.6690 0.4176
C65_2 C 0.4563(4) 0.6630(2) 0.6012(4)
H52_2 H 0.5023 0.6567 0.6390
C66_2 C 0.4411(3) 0.6454(2) 0.5251(3)
C67_3 C 0.3712(3) 0.6568(2) 0.4687(3)
C68_2 C 0.4039(4) 0.6896(2) 0.6213(4)
H53_2 H 0.4144 0.6993 0.6724
C69_2 C 0.3363(3) 0.7014(2) 0.5653(4)
H54_2 H 0.3017 0.7199 0.5782
C70_3 C 0.3203(3) 0.6854(2) 0.4890(4)
H55_3 H 0.2751 0.6939 0.4512
C71_3 C 0.6265(4) 0.4744(3) 0.2201(4)
H56_3 H 0.6660 0.4960 0.2232
C72_3 C 0.5297(4) 0.4518(3) 0.2615(4)
H57_3 H 0.5038 0.4583 0.2929
C73_3 C 0.5904(4) 0.4836(2) 0.2701(4)
C74_3 C 0.6159(4) 0.5274(2) 0.3309(4)
H58_3 H 0.6383 0.5562 0.3123
H59_3 H 0.5736 0.5426 0.3379
C75_3 C 0.5453(3) 0.3996(2) 0.1595(4)
C76_3 C 0.5070(4) 0.4105(3) 0.2072(4)
H60_3 H 0.4661 0.3899 0.2024
C77_3 C 0.5200(4) 0.3569(3) 0.0989(4)
C78_3 C 0.6037(4) 0.4330(3) 0.1656(4)
H61_3 H 0.6282 0.4275 0.1325
C79_3 C 0.6423(3) 0.3061(2) 0.1461(4)
C80_3 C 0.5678(3) 0.3182(2) 0.0875(4)
C81_3 C 0.5417(4) 0.2845(2) 0.0227(4)
H62_3 H 0.5737 0.2604 0.0134
C83_3 C 0.4472(4) 0.3571(3) 0.0479(5)
H64_3 H 0.4149 0.3817 0.0556
C85_3 C 0.9062(4) 0.4642(3) 0.5854(4)
H66_3 H 0.9434 0.4839 0.6221
C86_3 C 0.3431(3) 0.6340(2) 0.3883(3)
O16_3 O 0.6706(5) 0.4986(4) 0.7402(5)
O17_3 O 0.7401(7) 0.4895(5) 0.8440(7)
O18_2 O 0.6829(6) 0.5736(4) 0.8251(6)
N4_2 N 0.6929(7) 0.5237(5) 0.8019(7)
H42_4 H 0.2362 0.0234 0.1112
N3_4 N 0.3294(3) 0.00788(19) 0.0902(3)
C57_4 C 0.3784(3) 0.0766(2) 0.0195(4)
C59_4 C 0.3121(3) 0.0550(2) 0.0321(4)
H47_4 H 0.2902 0.0844 0.0503
C61_4 C 0.4196(4) 0.1196(2) 0.0639(4)
H49_4 H 0.4067 0.1344 0.1026
C64_4 C 0.4789(4) 0.1407(2) 0.0516(4)
H51_4 H 0.5055 0.1690 0.0824
C67_4 C 0.6288(3) 0.1568(2) 0.0313(3)
C70_4 C 0.6797(3) 0.1854(2) 0.0110(4)
H55_4 H 0.7249 0.1939 0.0488
C74_4 C 0.3841(4) 0.0274(2) 0.1691(4)
H58_4 H 0.3617 0.0562 0.1877
H59_4 H 0.4264 0.0426 0.1621
C86_4 C 0.6569(3) 0.1340(2) 0.1117(3)
C52_4 C 0.2031(3) 0.9066(2) 0.0272(4)
H38_4 H 0.2389 0.8870 0.0656
C56_4 C 0.2583(3) 0.9911(2) 0.0998(4)
H43_4 H 0.2709 0.9671 0.1441
C58_4 C 0.3594(3) 0.9609(2) 0.0607(4)
H44_4 H 0.3270 0.9525 0.0089
H45_4 H 0.4066 0.9702 0.0612
H46_4 H 0.3636 0.9298 0.0931
C60_4 C 0.2023(3) 0.9630(2) 0.0315(4)
C71_4 C 0.3735(4) 0.9744(3) 0.2799(4)
H56_4 H 0.3340 0.9960 0.2768
C72_4 C 0.4703(4) 0.9518(3) 0.2385(4)
H57_4 H 0.4962 0.9583 0.2071
C73_4 C 0.4096(4) 0.9836(2) 0.2299(4)
C75_4 C 0.4547(3) 0.8996(2) 0.3405(4)
C76_4 C 0.4930(4) 0.9105(3) 0.2928(4)
H60_4 H 0.5339 0.8899 0.2976
C77_4 C 0.4800(4) 0.8569(3) 0.4011(4)
C78_4 C 0.3963(4) 0.9330(3) 0.3344(4)
H61_4 H 0.3718 0.9275 0.3675
C79_4 C 0.3577(3) 0.8061(2) 0.3539(4)
C80_4 C 0.4322(3) 0.8182(2) 0.4125(4)
C81_4 C 0.4583(4) 0.7845(2) 0.4773(4)
H62_4 H 0.4263 0.7604 0.4866
C82_3 C 0.5303(4) 0.7858(3) 0.5278(5)
H63_3 H 0.5465 0.7630 0.5706
C83_4 C 0.5528(4) 0.8571(3) 0.4521(5)
H64_4 H 0.5851 0.8817 0.4444
C84_3 C 0.5782(4) 0.8215(3) 0.5142(5)
H65_3 H 0.6272 0.8216 0.5467
O1_4 O 0.3358(2) 0.79225(16) 0.7019(3)
O2_4 O 0.3336(2) 0.88342(16) 0.7004(3)
C1_4 C 0.4399(3) 0.8388(2) 0.6996(4)
C2_4 C 0.3638(3) 0.8380(2) 0.6999(4)
C3_4 C 0.5851(4) 0.8440(4) 0.7148(5)
H1_4 H 0.6337 0.8461 0.7203
C4_4 C 0.4599(3) 0.8763(3) 0.6543(4)
C5_4 C 0.5329(4) 0.8792(3) 0.6637(5)
H2_4 H 0.5475 0.9047 0.6358
C6_4 C 0.5637(4) 0.8064(3) 0.7566(5)
H3_4 H 0.5980 0.7829 0.7901
C7_4 C 0.4913(4) 0.8034(3) 0.7492(4)
H4_4 H 0.4772 0.7778 0.7773
C8_4 C 0.4042(3) 0.9077(3) 0.5916(4)
C9_4 C 0.2969(3) 0.9066(2) 0.4728(4)
H5_4 H 0.2611 0.8870 0.4344
C10_4 C 0.3488(3) 0.8792(2) 0.5335(4)
H6_4 H 0.3470 0.8415 0.5359
C11_4 C 0.3529(4) 0.9914(3) 0.5246(4)
C13_4 C 0.2417(3) 0.9911(2) 0.4002(4)
H10_4 H 0.2291 0.9671 0.3559
C15_4 C 0.1406(3) 0.9609(2) 0.4393(4)
H11_4 H 0.1730 0.9525 0.4911
H12_4 H 0.0934 0.9702 0.4388
H13_4 H 0.1364 0.9298 0.4069
C17_4 C 0.2977(3) 0.9630(2) 0.4685(4)
C28_4 C 0.1265(4) 0.9744(3) 0.2201(4)
H23_4 H 0.1660 0.9960 0.2232
C29_4 C 0.0297(4) 0.9518(3) 0.2615(4)
H24_4 H 0.0038 0.9583 0.2929
C30_4 C 0.0904(4) 0.9836(2) 0.2701(4)
C32_4 C 0.0453(3) 0.8996(2) 0.1595(4)
C33_4 C 0.0070(4) 0.9105(3) 0.2072(4)
C34_4 C 0.0200(4) 0.8569(3) 0.0989(4)
C35_4 C 0.1037(4) 0.9330(3) 0.1656(4)
H28_4 H 0.1282 0.9275 0.1325
C36_4 C 0.1423(3) 0.8061(2) 0.1461(4)
C37_4 C 0.0678(3) 0.8182(2) 0.0875(4)
C38_4 C 0.0417(4) 0.7845(2) 0.0227(4)
H29_4 H 0.0737 0.7604 0.0134
C42_4 C 0.4062(4) 0.9642(3) 0.5854(4)
H33_4 H 0.4434 0.9839 0.6221
O7_4 O 0.1706(5) 0.9986(4) 0.7402(5)
O8_4 O 0.2401(7) 0.9895(5) 0.8440(7)
O10_4 O 0.1642(2) 0.79225(16) 0.7981(3)
O11_4 O 0.1664(2) 0.88342(16) 0.7996(3)
C44_4 C 0.0601(3) 0.8388(2) 0.8004(4)
C45_4 C 0.1362(3) 0.8380(2) 0.8001(4)
C47_4 C 0.0401(3) 0.8763(3) 0.8457(4)
C50_4 C 0.0087(4) 0.8034(3) 0.7508(4)
H37_4 H 0.0228 0.7778 0.7227
C51_4 C 0.0958(3) 0.9077(3) 0.9084(4)
C53_4 C 0.1512(3) 0.8792(2) 0.9665(4)
H39_4 H 0.1530 0.8415 0.9641
C54_4 C 0.1471(4) 0.9914(3) 0.9754(4)
C85_4 C 0.0938(4) 0.9642(3) 0.9146(4)
H66_4 H 0.0566 0.9839 0.8779
O16_4 O 0.3294(5) 0.9986(4) 0.7598(5)
O17_4 O 0.2599(7) 0.9895(5) 0.6560(7)
H18_4 H 0.9945 0.1690 0.4176
C22_2 C 0.9563(4) 0.1630(2) 0.6012(4)
C23_2 C 0.9411(3) 0.1454(2) 0.5251(3)
C24_4 C 0.8712(3) 0.1568(2) 0.4687(3)
C25_2 C 0.9039(4) 0.1896(2) 0.6213(4)
H20_2 H 0.9144 0.1993 0.6724
C26_2 C 0.8363(3) 0.2014(2) 0.5653(4)
H21_2 H 0.8017 0.2199 0.5782
C27_4 C 0.8203(3) 0.1854(2) 0.4890(4)
H22_4 H 0.7751 0.1939 0.4512
C43_4 C 0.8431(3) 0.1340(2) 0.3883(3)
C22_3 C 0.9563(4) 0.3370(2) 0.1012(4)
C23_3 C 0.9411(3) 0.3546(2) 0.0251(3)
C25_3 C 0.9039(4) 0.3104(2) 0.1213(4)
H20_3 H 0.9144 0.3007 0.1724
C26_3 C 0.8363(3) 0.2986(2) 0.0653(4)
H21_3 H 0.8017 0.2801 0.0782
C46 C 0.9149(4) 0.6560(4) 0.2852(5)
H34 H 0.8663 0.6539 0.2797
C48 C 0.9671(4) 0.6208(3) 0.3363(5)
H35 H 0.9525 0.5953 0.3642
C49 C 0.9363(4) 0.6936(3) 0.2434(5)
H36 H 0.9020 0.7171 0.2099
C39_3 C 0.0303(4) 0.2142(3) 0.0278(5)
H30_3 H 0.0465 0.2370 0.0706
C41_3 C 0.0782(4) 0.1785(3) 0.0142(5)
H32_3 H 0.1272 0.1784 0.0467
H27_3 H 0.0339 0.1101 0.7976
C40_3 C 0.0528(4) 0.1429(3) 0.9521(5)
H31_3 H 0.0851 0.1183 0.9444
C46_2 C 0.0851(4) 0.1560(4) 0.2148(5)
H34_2 H 0.1337 0.1539 0.2203
C48_2 C 0.0329(4) 0.1208(3) 0.1637(5)
H35_2 H 0.0475 0.0953 0.1358
C49_2 C 0.0637(4) 0.1936(3) 0.2566(5)
H36_2 H 0.0980 0.2171 0.2901
H7_3 H 0.6455 0.9709 0.4782
C12_3 C 0.8985(3) 0.9445(2) 0.4608(4)
H8_3 H 0.8723 0.9732 0.4306
H9_3 H 0.7362 0.9766 0.6112
N1_3 N 0.8294(3) 0.99212(19) 0.5902(3)
C14_3 C 0.8784(3) 0.9234(2) 0.5195(4)
C16_3 C 0.8121(3) 0.9450(2) 0.5321(4)
H14_3 H 0.7902 0.9156 0.5503
H15_3 H 0.7764 0.9573 0.4831
C18_3 C 0.9196(4) 0.8804(2) 0.5639(4)
H16_3 H 0.9067 0.8656 0.6026
C19_3 C 0.9995(3) 0.8802(2) 0.4930(4)
C20_3 C 0.9576(3) 0.9227(2) 0.4477(4)
H17_3 H 0.9696 0.9366 0.4079
C21_3 C 0.9789(4) 0.8593(2) 0.5516(4)
H19_3 H 0.9977 0.8433 0.3610
C31_3 C 0.8841(4) 0.9726(2) 0.6691(4)
H25_3 H 0.8617 0.9438 0.6877
H26_3 H 0.9264 0.9574 0.6621
O9_3 O 0.8171(6) 0.9264(4) 0.1749(6)
N2_3 N 0.8071(7) 0.9763(5) 0.1981(7)
H40_3 H 0.8545 0.9709 0.0218
C55_3 C 0.6015(3) 0.9445(2) 0.0392(4)
H41_3 H 0.6277 0.9732 0.0694
H48_3 H 0.7236 0.9573 0.0169
C62_3 C 0.5005(3) 0.8802(2) 0.0070(4)
C63_3 C 0.5424(3) 0.9227(2) 0.0523(4)
H50_3 H 0.5304 0.9366 0.0921
C65_3 C 0.4563(4) 0.8370(2) 0.1012(4)
H52_3 H 0.5023 0.8433 0.1390
C66_3 C 0.4411(3) 0.8546(2) 0.0251(3)
C68_3 C 0.4039(4) 0.8104(2) 0.1213(4)
H53_3 H 0.4144 0.8007 0.1724
C69_3 C 0.3363(3) 0.7986(2) 0.0653(4)
H54_3 H 0.3017 0.7801 0.0782
O18_3 O 0.6829(6) 0.9264(4) 0.3251(6)
N4_3 N 0.6929(7) 0.9763(5) 0.3019(7)
C22_4 C 0.0437(4) 0.6630(2) 0.8988(4)
C23_4 C 0.0589(3) 0.6454(2) 0.9749(3)
C25_4 C 0.0961(4) 0.6896(2) 0.8787(4)
H20_4 H 0.0856 0.6993 0.8276
C26_4 C 0.1637(3) 0.7014(2) 0.9347(4)
H21_4 H 0.1983 0.7199 0.9218
C46_3 C 0.0851(4) 0.3440(4) 0.7148(5)
H34_3 H 0.1337 0.3461 0.7203
C48_3 C 0.0329(4) 0.3792(3) 0.6637(5)
H35_3 H 0.0475 0.4047 0.6358
C49_3 C 0.0637(4) 0.3064(3) 0.7566(5)
H36_3 H 0.0980 0.2829 0.7901
C82_4 C 0.4697(4) 0.2858(3) 0.9722(5)
H63_4 H 0.4535 0.2630 0.9294
C84_4 C 0.4218(4) 0.3215(3) 0.9858(5)
H65_4 H 0.3728 0.3216 0.9533
H7_4 H 0.3545 0.0291 0.5218
C12_4 C 0.1015(3) 0.0555(2) 0.5392(4)
H8_4 H 0.1277 0.0268 0.5694
H9_4 H 0.2638 0.0234 0.3888
N1_4 N 0.1706(3) 0.00788(19) 0.4098(3)
C14_4 C 0.1216(3) 0.0766(2) 0.4805(4)
C16_4 C 0.1879(3) 0.0550(2) 0.4679(4)
H14_4 H 0.2098 0.0844 0.4497
H15_4 H 0.2236 0.0427 0.5169
C18_4 C 0.0804(4) 0.1196(2) 0.4361(4)
H16_4 H 0.0933 0.1344 0.3974
C19_4 C 0.0005(3) 0.1198(2) 0.5070(4)
C20_4 C 0.0424(3) 0.0773(2) 0.5523(4)
H17_4 H 0.0304 0.0634 0.5921
C21_4 C 0.0211(4) 0.1407(2) 0.4484(4)
H19_4 H 0.0023 0.1567 0.6390
C31_4 C 0.1159(4) 0.0274(2) 0.3309(4)
H25_4 H 0.1383 0.0562 0.3123
H26_4 H 0.0736 0.0426 0.3379
O9_4 O 0.1829(6) 0.0736(4) 0.8251(6)
N2_4 N 0.1929(7) 0.0237(5) 0.8019(7)
H40_4 H 0.1455 0.0291 0.9782
C55_4 C 0.3985(3) 0.0555(2) 0.9608(4)
H41_4 H 0.3723 0.0268 0.9306
H48_4 H 0.2764 0.0427 0.9831
C62_4 C 0.4995(3) 0.1198(2) 0.9930(4)
C63_4 C 0.4576(3) 0.0773(2) 0.9477(4)
H50_4 H 0.4696 0.0634 0.9079
C65_4 C 0.5437(4) 0.1630(2) 0.8988(4)
H52_4 H 0.4977 0.1567 0.8610
C66_4 C 0.5589(3) 0.1454(2) 0.9749(3)
C68_4 C 0.5961(4) 0.1896(2) 0.8787(4)
H53_4 H 0.5856 0.1993 0.8276
C69_4 C 0.6637(3) 0.2014(2) 0.9347(4)
H54_4 H 0.6983 0.2199 0.9218
O18_4 O 0.3171(6) 0.0736(4) 0.6749(6)
N4_4 N 0.3071(7) 0.0237(5) 0.6981(7)
H27_4 H 0.9661 0.8899 0.2024
C40_4 C 0.9472(4) 0.8571(3) 0.0479(5)
H31_4 H 0.9149 0.8817 0.0556
C46_4 C 0.9149(4) 0.8440(4) 0.7852(5)
H34_4 H 0.8663 0.8461 0.7797
C48_4 C 0.9671(4) 0.8792(3) 0.8363(5)
H35_4 H 0.9525 0.9047 0.8642
C49_4 C 0.9363(4) 0.8064(3) 0.7434(5)
H36_4 H 0.9020 0.7829 0.7099
C39_4 C 0.9697(4) 0.7858(3) 0.9722(5)
H30_4 H 0.9535 0.7630 0.9294
C41_4 C 0.9218(4) 0.8215(3) 0.9858(5)
H32_4 H 0.8728 0.8216 0.9533
loop_
_geom_bond_atom_site_label_1
_geom_bond_atom_site_label_2
_geom_bond_site_symmetry_1
_geom_bond_site_symmetry_2
H63 C82 1_555 1_555
C84 C82 1_555 1_555
H65 C84 1_555 1_555
Eu1 O2 1_555 1_555
Eu2 O1 1_555 1_555
O1 C2 1_555 1_555
O2 C2 1_555 1_555
C1 C2 1_555 1_555
C3 H1 1_555 1_555
C4 C1 1_555 1_555
C5 C3 1_555 1_555
H2 C5 1_555 1_555
C6 C3 1_555 1_555
H3 C6 1_555 1_555
C7 C1 1_555 1_555
H4 C7 1_555 1_555
C8 C4 1_555 1_555
C10 C8 1_555 1_555
H6 C10 1_555 1_555
C11 H7 1_555 1_555
C12 H8 1_555 1_555
C19 C20 1_555 1_555
C20 C12 1_555 1_555
H17 C20 1_555 1_555
C42 C8 1_555 1_555
H33 C42 1_555 1_555
O7 Eu1 1_555 1_555
O8 Eu1 1_555 1_555
O9 N2 1_555 1_555
N2 O7 1_555 1_555
O10 Eu2 1_555 1_555
O11 Eu1 1_555 1_555
C44 C45 1_555 1_555
C45 O10 1_555 1_555
C47 C44 1_555 1_555
C50 C44 1_555 1_555
H37 C50 1_555 1_555
C51 C47 1_555 1_555
C52 H38 1_555 1_555
C53 C51 1_555 1_555
H39 C53 1_555 1_555
C54 H40 1_555 1_555
C55 H41 1_555 1_555
C56 H42 1_555 1_555
H43 C56 1_555 1_555
N3 C56 1_555 1_555
C57 C55 1_555 1_555
C58 N3 1_555 1_555
H44 C58 1_555 1_555
H45 C58 1_555 1_555
H46 C58 1_555 1_555
C59 N3 1_555 1_555
H47 C59 1_555 1_555
H48 C59 1_555 1_555
C60 C52 1_555 1_555
C61 C57 1_555 1_555
H49 C61 1_555 1_555
C62 C63 1_555 1_555
C63 C55 1_555 1_555
H50 C63 1_555 1_555
C64 C61 1_555 1_555
H51 C64 1_555 1_555
C65 H52 1_555 1_555
C66 C62 1_555 1_555
C67 C66 1_555 1_555
C68 C65 1_555 1_555
H53 C68 1_555 1_555
C69 C68 1_555 1_555
H54 C69 1_555 1_555
C70 C67 1_555 1_555
H55 C70 1_555 1_555
C71 H56 1_555 1_555
C72 H57 1_555 1_555
C73 C71 1_555 1_555
C74 N3 1_555 1_555
H58 C74 1_555 1_555
H59 C74 1_555 1_555
C75 C76 1_555 1_555
C76 C72 1_555 1_555
H60 C76 1_555 1_555
C77 C75 1_555 1_555
C78 C71 1_555 1_555
H61 C78 1_555 1_555
C79 C80 1_555 1_555
C80 C77 1_555 1_555
C81 C80 1_555 1_555
H62 C81 1_555 1_555
C83 C77 1_555 1_555
H64 C83 1_555 1_555
O12 C79 1_555 1_555
O13 C79 1_555 1_555
C85 C51 1_555 1_555
H66 C85 1_555 1_555
O14 C86 1_555 1_555
O15 C86 1_555 1_555
C86 C67 1_555 1_555
O16 Eu1 1_555 1_555
O17 Eu1 1_555 1_555
O18 N4 1_555 1_555
N4 O16 1_555 1_555
Eu4 O14 1_555 1_555
Eu6 O14 1_555 1_555
Eu8 O12 1_555 1_555
O19 Eu2 1_555 1_555
O20 Eu2 1_555 1_555
O21 Eu2 1_555 1_555
O22 Eu2 1_555 1_555
O23 Eu1 1_555 1_555
O24 Eu1 1_555 1_555
O25 Eu1 1_555 1_555
O26 Eu1 1_555 1_555
Eu2 O23 1_555 1_555
Eu2 O24 1_555 1_555
C4 C5 1_555 1_555
C6 C7 1_555 1_555
C11 C42 1_555 1_555
O8 N2 1_555 1_555
O11 C45 1_555 1_555
C52 C53 1_555 1_555
C54 C60 1_555 1_555
C54 C85 1_555 1_555
C56 C60 1_555 1_555
C57 C59 1_555 1_555
C62 C64 1_555 1_555
C65 C66 1_555 1_555
C69 C70 1_555 1_555
C72 C73 1_555 1_555
C73 C74 1_555 1_555
C75 C78 1_555 1_555
O13 Eu8 1_555 1_555
O15 Eu4 1_555 1_555
O17 N4 1_555 1_555
C9 H5 1_555 1_555
C13 H9 1_555 1_555
H10 C13 1_555 1_555
N1 C13 1_555 1_555
C15 N1 1_555 1_555
H11 C15 1_555 1_555
H12 C15 1_555 1_555
H13 C15 1_555 1_555
C16 N1 1_555 1_555
H14 C16 1_555 1_555
C17 C9 1_555 1_555
C18 C14 1_555 1_555
H16 C18 1_555 1_555
C21 C18 1_555 1_555
C28 H23 1_555 1_555
C29 H24 1_555 1_555
C30 C28 1_555 1_555
C31 N1 1_555 1_555
H25 C31 1_555 1_555
H26 C31 1_555 1_555
C32 C33 1_555 1_555
C33 C29 1_555 1_555
C34 C32 1_555 1_555
C35 C28 1_555 1_555
H28 C35 1_555 1_555
C36 C37 1_555 1_555
C37 C34 1_555 1_555
C38 C37 1_555 1_555
H29 C38 1_555 1_555
O3 C36 1_555 1_555
O4 C36 1_555 1_555
Eu8 O3 1_555 1_555
C13 C17 1_555 1_555
C14 C16 1_555 1_555
C29 C30 1_555 1_555
C30 C31 1_555 1_555
C32 C35 1_555 1_555
O4 Eu8 1_555 1_555
C27 C24 1_555 1_555
H22 C27 1_555 1_555
H30 C39 1_555 1_555
H31 C40 1_555 1_555
C41 C39 1_555 1_555
H32 C41 1_555 1_555
O5 C43 1_555 1_555
O6 C43 1_555 1_555
C43 C24 1_555 1_555
Eu4 O5 1_555 1_555
Eu6 O5 1_555 1_555
C40 C41 1_555 1_555
O6 Eu4 1_555 1_555
C24_2 C23 1_555 1_555
C25 C22 1_555 1_555
H20 C25 1_555 1_555
C26 C25 1_555 1_555
H21 C26 1_555 1_555
C27_2 C24_2 1_555 1_555
H22_2 C27_2 1_555 1_555
O5_2 C43_2 1_555 1_555
O6_2 C43_2 1_555 1_555
C43_2 C24_2 1_555 1_555
Eu3 O5_2 1_555 1_555
Eu8 O5_2 1_555 1_555
C22 C23 1_555 1_555
C26 C27_2 1_555 1_555
O6_2 Eu3 1_555 1_555
Eu1_2 O2_2 1_555 1_555
Eu2_2 O1_2 1_555 1_555
O1_2 C2_2 1_555 1_555
O2_2 C2_2 1_555 1_555
C1_2 C2_2 1_555 1_555
C3_2 H1_2 1_555 1_555
C4_2 C1_2 1_555 1_555
C5_2 C3_2 1_555 1_555
H2_2 C5_2 1_555 1_555
C6_2 C3_2 1_555 1_555
H3_2 C6_2 1_555 1_555
C7_2 C1_2 1_555 1_555
H4_2 C7_2 1_555 1_555
C8_2 C4_2 1_555 1_555
C9_2 H5_2 1_555 1_555
C10_2 C8_2 1_555 1_555
H6_2 C10_2 1_555 1_555
H10_2 C13_2 1_555 1_555
H11_2 C15_2 1_555 1_555
H12_2 C15_2 1_555 1_555
H13_2 C15_2 1_555 1_555
C17_2 C9_2 1_555 1_555
C28_2 H23_2 1_555 1_555
C29_2 H24_2 1_555 1_555
C30_2 C28_2 1_555 1_555
C32_2 C33_2 1_555 1_555
C33_2 C29_2 1_555 1_555
C34_2 C32_2 1_555 1_555
C35_2 C28_2 1_555 1_555
H28_2 C35_2 1_555 1_555
C36_2 C37_2 1_555 1_555
C37_2 C34_2 1_555 1_555
C38_2 C37_2 1_555 1_555
H29_2 C38_2 1_555 1_555
O3_2 C36_2 1_555 1_555
O4_2 C36_2 1_555 1_555
C42_2 C8_2 1_555 1_555
H33_2 C42_2 1_555 1_555
O7_2 Eu1_2 1_555 1_555
O8_2 Eu1_2 1_555 1_555
O10_2 Eu2_2 1_555 1_555
O11_2 Eu1_2 1_555 1_555
C44_2 C45_2 1_555 1_555
C45_2 O10_2 1_555 1_555
C47_2 C44_2 1_555 1_555
C50_2 C44_2 1_555 1_555
H37_2 C50_2 1_555 1_555
C51_2 C47_2 1_555 1_555
C53_2 C51_2 1_555 1_555
H39_2 C53_2 1_555 1_555
C85_2 C51_2 1_555 1_555
H66_2 C85_2 1_555 1_555
O16_2 Eu1_2 1_555 1_555
O17_2 Eu1_2 1_555 1_555
Eu6 O3_2 1_555 1_555
O19_2 Eu2_2 1_555 1_555
O20_2 Eu2_2 1_555 1_555
O21_2 Eu2_2 1_555 1_555
O22_2 Eu2_2 1_555 1_555
O23_2 Eu1_2 1_555 1_555
O24_2 Eu1_2 1_555 1_555
O25_2 Eu1_2 1_555 1_555
O26_2 Eu1_2 1_555 1_555
Eu2_2 O23_2 1_555 1_555
Eu2_2 O24_2 1_555 1_555
C4_2 C5_2 1_555 1_555
C6_2 C7_2 1_555 1_555
C9_2 C10_2 1_555 1_555
C11_2 C17_2 1_555 1_555
C11_2 C42_2 1_555 1_555
C13_2 C17_2 1_555 1_555
C29_2 C30_2 1_555 1_555
C32_2 C35_2 1_555 1_555
O4_2 Eu6 1_555 1_555
O11_2 C45_2 1_555 1_555
C54_2 C85_2 1_555 1_555
C52_2 H38_2 1_555 1_555
H43_2 C56_2 1_555 1_555
H44_2 C58_2 1_555 1_555
H45_2 C58_2 1_555 1_555
H46_2 C58_2 1_555 1_555
C60_2 C52_2 1_555 1_555
C71_2 H56_2 1_555 1_555
C72_2 H57_2 1_555 1_555
C73_2 C71_2 1_555 1_555
C75_2 C76_2 1_555 1_555
C76_2 C72_2 1_555 1_555
H60_2 C76_2 1_555 1_555
C77_2 C75_2 1_555 1_555
C78_2 C71_2 1_555 1_555
H61_2 C78_2 1_555 1_555
C79_2 C80_2 1_555 1_555
C80_2 C77_2 1_555 1_555
C81_2 C80_2 1_555 1_555
H62_2 C81_2 1_555 1_555
C82_2 C81_2 1_555 1_555
H63_2 C82_2 1_555 1_555
C83_2 C77_2 1_555 1_555
H64_2 C83_2 1_555 1_555
C84_2 C82_2 1_555 1_555
H65_2 C84_2 1_555 1_555
O12_2 C79_2 1_555 1_555
O13_2 C79_2 1_555 1_555
Eu6 O12_2 1_555 1_555
C56_2 C60_2 1_555 1_555
C72_2 C73_2 1_555 1_555
C75_2 C78_2 1_555 1_555
C83_2 C84_2 1_555 1_555
O13_2 Eu6 1_555 1_555
C59_2 N3_2 1_555 1_555
H47_2 C59_2 1_555 1_555
C61_2 C57_2 1_555 1_555
H49_2 C61_2 1_555 1_555
C64_2 C61_2 1_555 1_555
H51_2 C64_2 1_555 1_555
C70_2 C67_2 1_555 1_555
H55_2 C70_2 1_555 1_555
C74_2 N3_2 1_555 1_555
H58_2 C74_2 1_555 1_555
H59_2 C74_2 1_555 1_555
O14_2 C86_2 1_555 1_555
O15_2 C86_2 1_555 1_555
C86_2 C67_2 1_555 1_555
Eu3 O14_2 1_555 1_555
Eu8 O14_2 1_555 1_555
C57_2 C59_2 1_555 1_555
O15_2 Eu3 1_555 1_555
C27_3 C24_3 1_555 1_555
H22_3 C27_3 1_555 1_555
H30_2 C39_2 1_555 1_555
H31_2 C40_2 1_555 1_555
C41_2 C39_2 1_555 1_555
H32_2 C41_2 1_555 1_555
O23 C43_3 1_555 1_555
O25 C43_3 1_555 1_555
C43_3 C24_3 1_555 1_555
C40_2 C41_2 1_555 1_555
C9_3 H5_3 1_555 1_555
C13_3 H9_2 1_555 1_555
H10_3 C13_3 1_555 1_555
N1_2 C13_3 1_555 1_555
C15_3 N1_2 1_555 1_555
H11_3 C15_3 1_555 1_555
H12_3 C15_3 1_555 1_555
H13_3 C15_3 1_555 1_555
C16_2 N1_2 1_555 1_555
H14_2 C16_2 1_555 1_555
C17_3 C9_3 1_555 1_555
C18_2 C14_2 1_555 1_555
H16_2 C18_2 1_555 1_555
C21_2 C18_2 1_555 1_555
C28_3 H23_3 1_555 1_555
C29_3 H24_3 1_555 1_555
C30_3 C28_3 1_555 1_555
C31_2 N1_2 1_555 1_555
H25_2 C31_2 1_555 1_555
H26_2 C31_2 1_555 1_555
C32_3 C33_3 1_555 1_555
C33_3 C29_3 1_555 1_555
C34_3 C32_3 1_555 1_555
C35_3 C28_3 1_555 1_555
H28_3 C35_3 1_555 1_555
C36_3 C37_3 1_555 1_555
C37_3 C34_3 1_555 1_555
C38_3 C37_3 1_555 1_555
H29_3 C38_3 1_555 1_555
O19_2 C36_3 1_555 1_555
O21_2 C36_3 1_555 1_555
C13_3 C17_3 1_555 1_555
C14_2 C16_2 1_555 1_555
C29_3 C30_3 1_555 1_555
C30_3 C31_2 1_555 1_555
C32_3 C35_3 1_555 1_555
Eu4 O2_3 1_555 1_555
Eu6 O1_3 1_555 1_555
O1_3 C2_3 1_555 1_555
O2_3 C2_3 1_555 1_555
C1_3 C2_3 1_555 1_555
C3_3 H1_3 1_555 1_555
C4_3 C1_3 1_555 1_555
C5_3 C3_3 1_555 1_555
H2_3 C5_3 1_555 1_555
C6_3 C3_3 1_555 1_555
H3_3 C6_3 1_555 1_555
C7_3 C1_3 1_555 1_555
H4_3 C7_3 1_555 1_555
C8_3 C4_3 1_555 1_555
C10_3 C8_3 1_555 1_555
H6_3 C10_3 1_555 1_555
C11_3 H7_2 1_555 1_555
C12_2 H8_2 1_555 1_555
C19_2 C20_2 1_555 1_555
C20_2 C12_2 1_555 1_555
H17_2 C20_2 1_555 1_555
C42_3 C8_3 1_555 1_555
H33_3 C42_3 1_555 1_555
O7_3 Eu4 1_555 1_555
O8_3 Eu4 1_555 1_555
O9_2 N2_2 1_555 1_555
N2_2 O7_3 1_555 1_555
O10_3 Eu6 1_555 1_555
O11_3 Eu4 1_555 1_555
C44_3 C45_3 1_555 1_555
C45_3 O10_3 1_555 1_555
C47_3 C44_3 1_555 1_555
C50_3 C44_3 1_555 1_555
H37_3 C50_3 1_555 1_555
C51_3 C47_3 1_555 1_555
C52_3 H38_3 1_555 1_555
C53_3 C51_3 1_555 1_555
H39_3 C53_3 1_555 1_555
C54_3 H40_2 1_555 1_555
C55_2 H41_2 1_555 1_555
C56_3 H42_3 1_555 1_555
H43_3 C56_3 1_555 1_555
N3_3 C56_3 1_555 1_555
C57_3 C55_2 1_555 1_555
C58_3 N3_3 1_555 1_555
H44_3 C58_3 1_555 1_555
H45_3 C58_3 1_555 1_555
H46_3 C58_3 1_555 1_555
C59_3 N3_3 1_555 1_555
H47_3 C59_3 1_555 1_555
H48_2 C59_3 1_555 1_555
C60_3 C52_3 1_555 1_555
C61_3 C57_3 1_555 1_555
H49_3 C61_3 1_555 1_555
C62_2 C63_2 1_555 1_555
C63_2 C55_2 1_555 1_555
H50_2 C63_2 1_555 1_555
C64_3 C61_3 1_555 1_555
H51_3 C64_3 1_555 1_555
C65_2 H52_2 1_555 1_555
C66_2 C62_2 1_555 1_555
C67_3 C66_2 1_555 1_555
C68_2 C65_2 1_555 1_555
H53_2 C68_2 1_555 1_555
C69_2 C68_2 1_555 1_555
H54_2 C69_2 1_555 1_555
C70_3 C67_3 1_555 1_555
H55_3 C70_3 1_555 1_555
C71_3 H56_3 1_555 1_555
C72_3 H57_3 1_555 1_555
C73_3 C71_3 1_555 1_555
C74_3 N3_3 1_555 1_555
H58_3 C74_3 1_555 1_555
H59_3 C74_3 1_555 1_555
C75_3 C76_3 1_555 1_555
C76_3 C72_3 1_555 1_555
H60_3 C76_3 1_555 1_555
C77_3 C75_3 1_555 1_555
C78_3 C71_3 1_555 1_555
H61_3 C78_3 1_555 1_555
C79_3 C80_3 1_555 1_555
C80_3 C77_3 1_555 1_555
C81_3 C80_3 1_555 1_555
H62_3 C81_3 1_555 1_555
C83_3 C77_3 1_555 1_555
H64_3 C83_3 1_555 1_555
O20_2 C79_3 1_555 1_555
O22_2 C79_3 1_555 1_555
C85_3 C51_3 1_555 1_555
H66_3 C85_3 1_555 1_555
O24 C86_3 1_555 1_555
O26 C86_3 1_555 1_555
C86_3 C67_3 1_555 1_555
O16_3 Eu4 1_555 1_555
O17_3 Eu4 1_555 1_555
O18_2 N4_2 1_555 1_555
N4_2 O16_3 1_555 1_555
C4_3 C5_3 1_555 1_555
C6_3 C7_3 1_555 1_555
C11_3 C42_3 1_555 1_555
O8_3 N2_2 1_555 1_555
O11_3 C45_3 1_555 1_555
C52_3 C53_3 1_555 1_555
C54_3 C60_3 1_555 1_555
C54_3 C85_3 1_555 1_555
C56_3 C60_3 1_555 1_555
C57_3 C59_3 1_555 1_555
C62_2 C64_3 1_555 1_555
C65_2 C66_2 1_555 1_555
C69_2 C70_3 1_555 1_555
C72_3 C73_3 1_555 1_555
C73_3 C74_3 1_555 1_555
C75_3 C78_3 1_555 1_555
O17_3 N4_2 1_555 1_555
C59_4 N3_4 1_555 1_555
H47_4 C59_4 1_555 1_555
C61_4 C57_4 1_555 1_555
H49_4 C61_4 1_555 1_555
C64_4 C61_4 1_555 1_555
H51_4 C64_4 1_555 1_555
C70_4 C67_4 1_555 1_555
H55_4 C70_4 1_555 1_555
C74_4 N3_4 1_555 1_555
H58_4 C74_4 1_555 1_555
H59_4 C74_4 1_555 1_555
O24_2 C86_4 1_555 1_555
O26_2 C86_4 1_555 1_555
C86_4 C67_4 1_555 1_555
C57_4 C59_4 1_555 1_555
C52_4 H38_4 1_555 1_555
H43_4 C56_4 1_555 1_555
H44_4 C58_4 1_555 1_555
H45_4 C58_4 1_555 1_555
H46_4 C58_4 1_555 1_555
C60_4 C52_4 1_555 1_555
C71_4 H56_4 1_555 1_555
C72_4 H57_4 1_555 1_555
C73_4 C71_4 1_555 1_555
C75_4 C76_4 1_555 1_555
C76_4 C72_4 1_555 1_555
H60_4 C76_4 1_555 1_555
C77_4 C75_4 1_555 1_555
C78_4 C71_4 1_555 1_555
H61_4 C78_4 1_555 1_555
C79_4 C80_4 1_555 1_555
C80_4 C77_4 1_555 1_555
C81_4 C80_4 1_555 1_555
H62_4 C81_4 1_555 1_555
C82_3 C81_4 1_555 1_555
H63_3 C82_3 1_555 1_555
C83_4 C77_4 1_555 1_555
H64_4 C83_4 1_555 1_555
C84_3 C82_3 1_555 1_555
H65_3 C84_3 1_555 1_555
O20 C79_4 1_555 1_555
O22 C79_4 1_555 1_555
C56_4 C60_4 1_555 1_555
C72_4 C73_4 1_555 1_555
C75_4 C78_4 1_555 1_555
C83_4 C84_3 1_555 1_555
Eu3 O2_4 1_555 1_555
Eu8 O1_4 1_555 1_555
O1_4 C2_4 1_555 1_555
O2_4 C2_4 1_555 1_555
C1_4 C2_4 1_555 1_555
C3_4 H1_4 1_555 1_555
C4_4 C1_4 1_555 1_555
C5_4 C3_4 1_555 1_555
H2_4 C5_4 1_555 1_555
C6_4 C3_4 1_555 1_555
H3_4 C6_4 1_555 1_555
C7_4 C1_4 1_555 1_555
H4_4 C7_4 1_555 1_555
C8_4 C4_4 1_555 1_555
C9_4 H5_4 1_555 1_555
C10_4 C8_4 1_555 1_555
H6_4 C10_4 1_555 1_555
H10_4 C13_4 1_555 1_555
H11_4 C15_4 1_555 1_555
H12_4 C15_4 1_555 1_555
H13_4 C15_4 1_555 1_555
C17_4 C9_4 1_555 1_555
C28_4 H23_4 1_555 1_555
C29_4 H24_4 1_555 1_555
C30_4 C28_4 1_555 1_555
C32_4 C33_4 1_555 1_555
C33_4 C29_4 1_555 1_555
C34_4 C32_4 1_555 1_555
C35_4 C28_4 1_555 1_555
H28_4 C35_4 1_555 1_555
C36_4 C37_4 1_555 1_555
C37_4 C34_4 1_555 1_555
C38_4 C37_4 1_555 1_555
H29_4 C38_4 1_555 1_555
O19 C36_4 1_555 1_555
O21 C36_4 1_555 1_555
C42_4 C8_4 1_555 1_555
H33_4 C42_4 1_555 1_555
O7_4 Eu3 1_555 1_555
O8_4 Eu3 1_555 1_555
O10_4 Eu8 1_555 1_555
O11_4 Eu3 1_555 1_555
C44_4 C45_4 1_555 1_555
C45_4 O10_4 1_555 1_555
C47_4 C44_4 1_555 1_555
C50_4 C44_4 1_555 1_555
H37_4 C50_4 1_555 1_555
C51_4 C47_4 1_555 1_555
C53_4 C51_4 1_555 1_555
H39_4 C53_4 1_555 1_555
C85_4 C51_4 1_555 1_555
H66_4 C85_4 1_555 1_555
O16_4 Eu3 1_555 1_555
O17_4 Eu3 1_555 1_555
C4_4 C5_4 1_555 1_555
C6_4 C7_4 1_555 1_555
C9_4 C10_4 1_555 1_555
C11_4 C17_4 1_555 1_555
C11_4 C42_4 1_555 1_555
C13_4 C17_4 1_555 1_555
C29_4 C30_4 1_555 1_555
C32_4 C35_4 1_555 1_555
O11_4 C45_4 1_555 1_555
C54_4 C85_4 1_555 1_555
C24_4 C23_2 1_555 1_555
C25_2 C22_2 1_555 1_555
H20_2 C25_2 1_555 1_555
C26_2 C25_2 1_555 1_555
H21_2 C26_2 1_555 1_555
C27_4 C24_4 1_555 1_555
H22_4 C27_4 1_555 1_555
O23_2 C43_4 1_555 1_555
O25_2 C43_4 1_555 1_555
C43_4 C24_4 1_555 1_555
C22_2 C23_2 1_555 1_555
C26_2 C27_4 1_555 1_555
C25_3 C22_3 1_555 1_555
H20_3 C25_3 1_555 1_555
C26_3 C25_3 1_555 1_555
H21_3 C26_3 1_555 1_555
C46 H34 1_555 1_555
C48 C46 1_555 1_555
H35 C48 1_555 1_555
C49 C46 1_555 1_555
H36 C49 1_555 1_555
C22_3 C23_3 1_555 1_555
H30_3 C39_3 1_555 1_555
C41_3 C39_3 1_555 1_555
H32_3 C41_3 1_555 1_555
H31_3 C40_3 1_555 1_555
C46_2 H34_2 1_555 1_555
C48_2 C46_2 1_555 1_555
H35_2 C48_2 1_555 1_555
C49_2 C46_2 1_555 1_555
H36_2 C49_2 1_555 1_555
C12_3 H8_3 1_555 1_555
C14_3 C12_3 1_555 1_555
C16_3 N1_3 1_555 1_555
H14_3 C16_3 1_555 1_555
H15_3 C16_3 1_555 1_555
C18_3 C14_3 1_555 1_555
H16_3 C18_3 1_555 1_555
C19_3 C20_3 1_555 1_555
C20_3 C12_3 1_555 1_555
H17_3 C20_3 1_555 1_555
C21_3 C18_3 1_555 1_555
C31_3 N1_3 1_555 1_555
H25_3 C31_3 1_555 1_555
H26_3 C31_3 1_555 1_555
O9_3 N2_3 1_555 1_555
C55_3 H41_3 1_555 1_555
C62_3 C63_3 1_555 1_555
C63_3 C55_3 1_555 1_555
H50_3 C63_3 1_555 1_555
C65_3 H52_3 1_555 1_555
C66_3 C62_3 1_555 1_555
C68_3 C65_3 1_555 1_555
H53_3 C68_3 1_555 1_555
C69_3 C68_3 1_555 1_555
H54_3 C69_3 1_555 1_555
O18_3 N4_3 1_555 1_555
C14_3 C16_3 1_555 1_555
C19_3 C21_3 1_555 1_555
C65_3 C66_3 1_555 1_555
C25_4 C22_4 1_555 1_555
H20_4 C25_4 1_555 1_555
C26_4 C25_4 1_555 1_555
H21_4 C26_4 1_555 1_555
C46_3 H34_3 1_555 1_555
C48_3 C46_3 1_555 1_555
H35_3 C48_3 1_555 1_555
C49_3 C46_3 1_555 1_555
H36_3 C49_3 1_555 1_555
C22_4 C23_4 1_555 1_555
H63_4 C82_4 1_555 1_555
C84_4 C82_4 1_555 1_555
H65_4 C84_4 1_555 1_555
C12_4 H8_4 1_555 1_555
C14_4 C12_4 1_555 1_555
C16_4 N1_4 1_555 1_555
H14_4 C16_4 1_555 1_555
H15_4 C16_4 1_555 1_555
C18_4 C14_4 1_555 1_555
H16_4 C18_4 1_555 1_555
C19_4 C20_4 1_555 1_555
C20_4 C12_4 1_555 1_555
H17_4 C20_4 1_555 1_555
C21_4 C18_4 1_555 1_555
C31_4 N1_4 1_555 1_555
H25_4 C31_4 1_555 1_555
H26_4 C31_4 1_555 1_555
O9_4 N2_4 1_555 1_555
C55_4 H41_4 1_555 1_555
C62_4 C63_4 1_555 1_555
C63_4 C55_4 1_555 1_555
H50_4 C63_4 1_555 1_555
C65_4 H52_4 1_555 1_555
C66_4 C62_4 1_555 1_555
C68_4 C65_4 1_555 1_555
H53_4 C68_4 1_555 1_555
C69_4 C68_4 1_555 1_555
H54_4 C69_4 1_555 1_555
O18_4 N4_4 1_555 1_555
C14_4 C16_4 1_555 1_555
C19_4 C21_4 1_555 1_555
C65_4 C66_4 1_555 1_555
H31_4 C40_4 1_555 1_555
C46_4 H34_4 1_555 1_555
C48_4 C46_4 1_555 1_555
H35_4 C48_4 1_555 1_555
C49_4 C46_4 1_555 1_555
H36_4 C49_4 1_555 1_555
H30_4 C39_4 1_555 1_555
C41_4 C39_4 1_555 1_555
H32_4 C41_4 1_555 1_555

#END
