
###############################################################################
#
# This file contains modified crystal structure data generated from the
# MOF subset of the Cambridge Structural Database (CSD) v543 
# hosted by the Cambridge Crystallographic Data Centre (CCDC).
#
# This work is licensed under the Creative Commons
# Attribution-NonCommercial-ShareAlike 4.0 International License.
# To view a copy of this license, visit
# http://creativecommons.org/licenses/by-nc-sa/4.0/
# or send a letter to
# Creative Commons, PO Box 1866, Mountain View, CA 94042, USA.
#
# CIF created using the CSD Python API on 29 September 2022
# The structure has been converted into the P1 space group
# The structure has a 3D framework
# The original CSD entry YAPXOG is in the monoclinic crystal system
# The framework has been calculated to contain at least 10.0% void space
# The void calculation uses a probe of radius 1.32A, grid spacing 0.4
#
###############################################################################

data_YAPXOG
_chemical_formula_moiety         '(C344 H264 N16 O72 Tb12)n'
_symmetry_cell_setting           triclinic
_symmetry_space_group_name_H-M   'P 1'
_symmetry_Int_Tables_number      1
_space_group_name_Hall           'P 1'
loop_
_symmetry_equiv_pos_site_id
_symmetry_equiv_pos_as_xyz
1 x,y,z
_cell_length_a                   19.9214(9)
_cell_length_b                   24.5891(8)
_cell_length_c                   18.7858(7)
_cell_angle_alpha                90
_cell_angle_beta                 112.813(5)
_cell_angle_gamma                90
_cell_volume                     8482.37
loop_
_atom_site_label
_atom_site_type_symbol
_atom_site_fract_x
_atom_site_fract_y
_atom_site_fract_z
C7 C 0.3252(5) 0.0743(5) 0.0174(6)
H5 H 0.3740 0.0750 0.0509
C8 C 0.2785(5) 0.0380(4) 0.0286(5)
H6 H 0.2948 0.0154 0.0716
Tb1 Tb -0.0000 0.16988(2) 0.2500
Tb2 Tb -0.0000 0.00820(2) 0.2500
O2 O 0.4387(2) 0.41448(17) 0.6680(2)
O3 O 0.4034(3) 0.33402(19) 0.6209(3)
O4 O 0.0962(3) 0.0601(2) 0.7823(3)
O6 O 0.0594(3) 0.03645(19) 0.8736(2)
N1 N 0.0806(3) 0.2582(2) 0.5898(3)
C4 C 0.4066(3) 0.3834(3) 0.6113(3)
C9 C 0.1071(4) 0.0558(3) 0.8530(4)
C10 C 0.3790(3) 0.4066(2) 0.5308(3)
C11 C 0.1313(4) 0.3265(3) 0.5207(4)
C14 C 0.3088(4) 0.3953(3) 0.4754(3)
C15 C 0.2940(4) 0.4128(3) 0.4000(4)
H8 H 0.2482 0.4062 0.3619
C16 C 0.4284(4) 0.4350(3) 0.5105(4)
H9 H 0.4736 0.4436 0.5483
C18 C 0.2073(4) 0.3281(3) 0.4474(4)
H10 H 0.2179 0.3145 0.4067
C20 C 0.4124(4) 0.4510(3) 0.4353(4)
H12 H 0.4468 0.4694 0.4222
C21 C 0.1586(4) 0.2335(3) 0.7293(4)
C23 C 0.1453(4) 0.1839(3) 0.8338(4)
H13 H 0.1207 0.1789 0.8664
C24 C 0.2500(4) 0.3693(3) 0.4927(3)
C25 C 0.0102(4) 0.2419(3) 0.5991(4)
H14 H 0.0226 0.2180 0.6435
C26 C 0.2315(4) 0.3895(3) 0.5532(4)
H16 H 0.2588 0.4173 0.5848
C27 C 0.2074(4) 0.0346(3) 0.9768(4)
H17 H 0.1761 0.0095 0.9848
C28 C 0.1233(4) 0.2246(3) 0.7791(4)
H18 H 0.0841 0.2466 0.7755
C30 C 0.2408(4) 0.1604(3) 0.7937(4)
H20 H 0.2813 0.1395 0.7989
C31 C 0.1820(4) 0.0685(3) 0.9125(4)
C32 C 0.0652(4) 0.3056(3) 0.5330(4)
H21 H 0.0291 0.2941 0.4836
H22 H 0.0444 0.3352 0.5517
C33 C 0.1737(4) 0.3680(3) 0.5650(4)
H23 H 0.1622 0.3821 0.6049
C34 C 0.3454(4) 0.4395(3) 0.3804(4)
H24 H 0.3341 0.4497 0.3294
C35 C 0.2030(4) 0.1505(3) 0.8410(4)
C37 C 0.2281(4) 0.1079(3) 0.9022(4)
C39 C 0.1495(4) 0.3066(3) 0.4609(4)
H26 H 0.1223 0.2785 0.4299
C40 C 0.1101(4) 0.2114(3) 0.5603(4)
H27 H 0.1145 0.1802 0.5925
H28 H 0.1571 0.2208 0.5609
H29 H 0.0776 0.2032 0.5083
C41 C 0.2182(4) 0.2011(4) 0.7393(4)
H30 H 0.2440 0.2071 0.7081
C42 C 0.2996(5) 0.1100(4) 0.9561(5)
H31 H 0.3310 0.1362 0.9506
C43 C 0.1347(4) 0.2773(3) 0.6695(4)
H32 H 0.1774 0.2923 0.6638
H33 H 0.1122 0.3062 0.6876
O7 O 0.0109(6) 0.2417(5) 0.1642(6)
O8 O 0.0829(6) 0.2465(4) 0.2655(6)
O9 O 0.0720(7) 0.3214(5) 0.1857(7)
N2 N 0.0621(6) 0.2697(5) 0.2048(7)
O10 O 0.0814(2) 0.13412(18) 0.1997(3)
O14 O 0.0842(3) 0.04304(18) 0.2008(3)
C44 C 0.2386(4) 0.0544(4) 0.2496(4)
H34 H 0.2248 0.0289 0.2779
C45 C 0.1112(4) 0.0884(3) 0.1992(3)
C46 C 0.2803(4) 0.1296(4) 0.1666(5)
H35 H 0.2955 0.1553 0.1398
C48 C 0.3302(5) 0.0946(5) 0.2171(6)
H36 H 0.3789 0.0965 0.2236
C49 C 0.3088(5) 0.0571(5) 0.2577(5)
H37 H 0.3429 0.0333 0.2911
C55 C 0.1867(4) 0.0892(3) 0.1996(4)
C56 C 0.0980(4) 0.1304(3) 0.0331(4)
H40 H 0.0970 0.0926 0.0343
C60 C 0.1515(4) 0.1584(3) 0.0922(4)
C72 C 0.1532(4) 0.2139(3) 0.0879(5)
H52 H 0.1901 0.2331 0.1259
C79 C 0.2071(4) 0.1266(3) 0.1558(4)
C81 C 0.1005(4) 0.2423(3) 0.0275(5)
H58 H 0.1023 0.2800 0.0259
Tb4 Tb 0.5000 0.33012(2) 0.7500
Tb8 Tb 0.5000 0.49180(2) 0.7500
O19 O 0.0613(2) 0.08552(17) 0.3320(2)
O21 O 0.0966(3) 0.16598(19) 0.3791(3)
Tb6 Tb -0.0000 0.99180(2) 0.7500
O24 O 0.0962(3) 0.9399(2) 0.2823(3)
O26 O 0.0594(3) 0.96355(19) 0.3736(2)
Tb1_2 Tb 1.0000 0.16988(2) 0.2500
Tb2_2 Tb 1.0000 0.00820(2) 0.2500
O1 O 0.9186(2) 0.13412(18) 0.3003(3)
O5 O 0.9158(3) 0.04304(18) 0.2992(3)
C1 C 0.7614(4) 0.0544(4) 0.2504(4)
H1 H 0.7752 0.0289 0.2221
C2 C 0.8888(4) 0.0884(3) 0.3008(3)
C3 C 0.7197(4) 0.1296(4) 0.3334(5)
H2 H 0.7045 0.1553 0.3602
C5 C 0.6698(5) 0.0946(5) 0.2829(6)
H3 H 0.6211 0.0965 0.2764
C6 C 0.6912(5) 0.0571(5) 0.2423(5)
H4 H 0.6571 0.0333 0.2089
C12 C 0.8133(4) 0.0892(3) 0.3004(4)
C13 C 0.9020(4) 0.1304(3) 0.4669(4)
H7 H 0.9030 0.0926 0.4657
C17 C 0.8485(4) 0.1584(3) 0.4078(4)
C19 C 0.9540(4) 0.1579(3) 0.5274(4)
H11 H 0.9890 0.1382 0.5666
C22 C 0.9549(4) 0.2140(3) 0.5308(4)
H15 H 0.9883 0.2743 0.6101
C29 C 0.8468(4) 0.2139(3) 0.4121(5)
H19 H 0.8099 0.2331 0.3741
C36 C 0.7929(4) 0.1266(3) 0.3442(4)
C38 C 0.8995(4) 0.2423(3) 0.4725(5)
H25 H 0.8977 0.2800 0.4741
C57 C 0.6912(4) 0.3953(3) 0.0246(3)
C58 C 0.7060(4) 0.4128(3) 0.1000(4)
H41 H 0.7518 0.4062 0.1381
C61 C 0.7927(4) 0.3281(3) 0.0526(4)
H43 H 0.7821 0.3145 0.0933
C63 C 0.5876(4) 0.4510(3) 0.0647(4)
H45 H 0.5532 0.4694 0.0778
C67 C 0.7500(4) 0.3693(3) 0.0073(3)
H54 H 0.9709 0.2941 0.0164
C77 C 0.6546(4) 0.4395(3) 0.1196(4)
H57 H 0.6659 0.4497 0.1706
C82 C 0.8505(4) 0.3066(3) 0.0391(4)
H59 H 0.8777 0.2785 0.0701
O16 O 0.9891(6) 0.2417(5) 0.3358(6)
O17 O 0.9171(6) 0.2465(4) 0.2345(6)
O18 O 0.9280(7) 0.3214(5) 0.3143(7)
N4 N 0.9379(6) 0.2697(5) 0.2952(7)
O20 O 0.9387(2) 0.08552(17) 0.1680(2)
O22 O 0.9034(3) 0.16598(19) 0.1209(3)
O11 O 0.5613(2) 0.41448(17) 0.8320(2)
O12 O 0.5966(3) 0.33402(19) 0.8791(3)
O13 O 0.9038(3) 0.0601(2) 0.7177(3)
O15 O 0.9406(3) 0.03645(19) 0.6264(2)
N3 N 0.9194(3) 0.2582(2) 0.9102(3)
C47 C 0.5934(3) 0.3834(3) 0.8887(3)
C50 C 0.6748(5) 0.0743(5) 0.4826(6)
H38 H 0.6260 0.0750 0.4491
C51 C 0.7215(5) 0.0380(4) 0.4714(5)
H39 H 0.7052 0.0154 0.4284
C52 C 0.8929(4) 0.0558(3) 0.6470(4)
C53 C 0.6210(3) 0.4066(2) 0.9692(3)
C54 C 0.8687(4) 0.3265(3) 0.9793(4)
C59 C 0.5716(4) 0.4350(3) 0.9895(4)
H42 H 0.5264 0.4436 0.9517
C64 C 0.8414(4) 0.2335(3) 0.7707(4)
C66 C 0.8547(4) 0.1839(3) 0.6662(4)
H46 H 0.8793 0.1789 0.6336
C68 C 0.9898(4) 0.2419(3) 0.9009(4)
H47 H 0.9774 0.2180 0.8565
C69 C 0.7685(4) 0.3895(3) 0.9468(4)
H49 H 0.7412 0.4173 0.9152
C70 C 0.7926(4) 0.0346(3) 0.5232(4)
H50 H 0.8239 0.0095 0.5152
C71 C 0.8767(4) 0.2246(3) 0.7209(4)
H51 H 0.9159 0.2466 0.7245
C73 C 0.7592(4) 0.1604(3) 0.7063(4)
H53 H 0.7187 0.1395 0.7011
C74 C 0.8180(4) 0.0685(3) 0.5875(4)
C75 C 0.9348(4) 0.3056(3) 0.9670(4)
H55 H 0.9556 0.3352 0.9483
C76 C 0.8263(4) 0.3680(3) 0.9350(4)
H56 H 0.8378 0.3821 0.8951
C78 C 0.7970(4) 0.1505(3) 0.6590(4)
C80 C 0.7719(4) 0.1079(3) 0.5978(4)
C83 C 0.8899(4) 0.2114(3) 0.9397(4)
H60 H 0.8855 0.1802 0.9075
H61 H 0.8429 0.2208 0.9391
H62 H 0.9224 0.2032 0.9917
C84 C 0.7818(4) 0.2011(4) 0.7607(4)
H63 H 0.7560 0.2071 0.7919
C85 C 0.7004(5) 0.1100(4) 0.5439(5)
H64 H 0.6690 0.1362 0.5494
C86 C 0.8653(4) 0.2773(3) 0.8305(4)
H65 H 0.8226 0.2923 0.8362
H66 H 0.8878 0.3062 0.8124
Tb6_2 Tb 1.0000 0.99180(2) 0.7500
O23 O 0.9038(3) 0.9399(2) 0.2177(3)
O25 O 0.9406(3) 0.96355(19) 0.1264(2)
Tb4_2 Tb -0.0000 0.83012(2) 0.7500
Tb1_3 Tb 0.5000 0.66988(2) 0.2500
Tb2_3 Tb 0.5000 0.50820(2) 0.2500
O1_2 O 0.4186(2) 0.63412(18) 0.3003(3)
O2_2 O 0.9387(2) 0.91448(17) 0.6680(2)
O3_2 O 0.9034(3) 0.83402(19) 0.6209(3)
O4_2 O 0.5962(3) 0.5601(2) 0.7823(3)
O5_2 O 0.4158(3) 0.54304(18) 0.2992(3)
O6_2 O 0.5594(3) 0.53645(19) 0.8736(2)
N1_2 N 0.5806(3) 0.7582(2) 0.5898(3)
C1_2 C 0.2614(4) 0.5544(4) 0.2504(4)
H1_2 H 0.2752 0.5289 0.2221
C2_2 C 0.3888(4) 0.5884(3) 0.3008(3)
C3_2 C 0.2197(4) 0.6296(4) 0.3334(5)
H2_2 H 0.2045 0.6553 0.3602
C4_2 C 0.9066(3) 0.8834(3) 0.6113(3)
C5_2 C 0.1698(5) 0.5946(5) 0.2829(6)
H3_2 H 0.1211 0.5965 0.2764
C6_2 C 0.1912(5) 0.5571(5) 0.2423(5)
H4_2 H 0.1571 0.5333 0.2089
C9_2 C 0.6071(4) 0.5558(3) 0.8530(4)
C10_2 C 0.8790(3) 0.9066(2) 0.5308(3)
C11_2 C 0.6313(4) 0.8265(3) 0.5207(4)
C12_2 C 0.3133(4) 0.5892(3) 0.3004(4)
C13_2 C 0.4020(4) 0.6304(3) 0.4669(4)
H7_2 H 0.4030 0.5926 0.4657
C14_2 C 0.8088(4) 0.8953(3) 0.4754(3)
C15_2 C 0.7940(4) 0.9128(3) 0.4000(4)
H8_2 H 0.7482 0.9062 0.3619
C16_2 C 0.9284(4) 0.9350(3) 0.5105(4)
H9_2 H 0.9736 0.9436 0.5483
C17_2 C 0.3485(4) 0.6584(3) 0.4078(4)
C18_2 C 0.7073(4) 0.8281(3) 0.4474(4)
H10_2 H 0.7179 0.8145 0.4067
C19_2 C 0.4540(4) 0.6579(3) 0.5274(4)
H11_2 H 0.4890 0.6382 0.5666
C20_2 C 0.9124(4) 0.9510(3) 0.4353(4)
H12_2 H 0.9468 0.9694 0.4222
C21_2 C 0.6586(4) 0.7335(3) 0.7293(4)
C22_2 C 0.4549(4) 0.7140(3) 0.5308(4)
C23_2 C 0.6453(4) 0.6839(3) 0.8338(4)
H13_2 H 0.6207 0.6789 0.8664
C24_2 C 0.7500(4) 0.8693(3) 0.4927(3)
C25_2 C 0.5102(4) 0.7419(3) 0.5991(4)
H14_2 H 0.5226 0.7180 0.6435
H15_2 H 0.4883 0.7743 0.6101
C26_2 C 0.7315(4) 0.8895(3) 0.5532(4)
H16_2 H 0.7588 0.9173 0.5848
C27_2 C 0.7074(4) 0.5346(3) 0.9768(4)
H17_2 H 0.6761 0.5095 0.9848
C28_2 C 0.6233(4) 0.7246(3) 0.7791(4)
H18_2 H 0.5841 0.7466 0.7755
C29_2 C 0.3468(4) 0.7139(3) 0.4121(5)
H19_2 H 0.3099 0.7331 0.3741
C30_2 C 0.7408(4) 0.6604(3) 0.7937(4)
H20_2 H 0.7813 0.6395 0.7989
C31_2 C 0.6820(4) 0.5685(3) 0.9125(4)
C32_2 C 0.5652(4) 0.8056(3) 0.5330(4)
H21_2 H 0.5291 0.7941 0.4836
H22_2 H 0.5444 0.8352 0.5517
C33_2 C 0.6737(4) 0.8680(3) 0.5650(4)
H23_2 H 0.6622 0.8821 0.6049
C34_2 C 0.8454(4) 0.9395(3) 0.3804(4)
H24_2 H 0.8341 0.9497 0.3294
C35_2 C 0.7030(4) 0.6505(3) 0.8410(4)
C36_2 C 0.2929(4) 0.6266(3) 0.3442(4)
C37_2 C 0.7281(4) 0.6079(3) 0.9022(4)
C38_2 C 0.3995(4) 0.7423(3) 0.4725(5)
H25_2 H 0.3977 0.7800 0.4741
C39_2 C 0.6495(4) 0.8066(3) 0.4609(4)
H26_2 H 0.6223 0.7785 0.4299
C40_2 C 0.6101(4) 0.7114(3) 0.5603(4)
H27_2 H 0.6145 0.6802 0.5925
H28_2 H 0.6571 0.7208 0.5609
H29_2 H 0.5776 0.7032 0.5083
C41_2 C 0.7182(4) 0.7011(4) 0.7393(4)
H30_2 H 0.7440 0.7071 0.7081
C42_2 C 0.7996(5) 0.6100(4) 0.9561(5)
H31_2 H 0.8310 0.6362 0.9506
C43_2 C 0.6347(4) 0.7773(3) 0.6695(4)
H32_2 H 0.6774 0.7923 0.6638
H33_2 H 0.6122 0.8062 0.6876
O7_2 O 0.5109(6) 0.7417(5) 0.1642(6)
O8_2 O 0.5829(6) 0.7465(4) 0.2655(6)
O9_2 O 0.5720(7) 0.8214(5) 0.1857(7)
N2_2 N 0.5621(6) 0.7697(5) 0.2048(7)
O10_2 O 0.5814(2) 0.63412(18) 0.1997(3)
O14_2 O 0.5842(3) 0.54304(18) 0.2008(3)
C44_2 C 0.7386(4) 0.5544(4) 0.2496(4)
H34_2 H 0.7248 0.5289 0.2779
C45_2 C 0.6112(4) 0.5884(3) 0.1992(3)
C46_2 C 0.7803(4) 0.6296(4) 0.1666(5)
H35_2 H 0.7955 0.6553 0.1398
C48_2 C 0.8302(5) 0.5946(5) 0.2171(6)
H36_2 H 0.8789 0.5965 0.2236
C49_2 C 0.8088(5) 0.5571(5) 0.2577(5)
H37_2 H 0.8429 0.5333 0.2911
C55_2 C 0.6867(4) 0.5892(3) 0.1996(4)
C56_2 C 0.5980(4) 0.6304(3) 0.0331(4)
H40_2 H 0.5970 0.5926 0.0343
C57_2 C 0.1912(4) 0.8953(3) 0.0246(3)
C58_2 C 0.2060(4) 0.9128(3) 0.1000(4)
H41_2 H 0.2518 0.9062 0.1381
C60_2 C 0.6515(4) 0.6584(3) 0.0922(4)
C61_2 C 0.2927(4) 0.8281(3) 0.0526(4)
H43_2 H 0.2821 0.8145 0.0933
C63_2 C 0.0876(4) 0.9510(3) 0.0647(4)
H45_2 H 0.0532 0.9694 0.0778
C67_2 C 0.2500(4) 0.8693(3) 0.0073(3)
C72_2 C 0.6532(4) 0.7139(3) 0.0879(5)
H52_2 H 0.6901 0.7331 0.1259
H54_2 H 0.4709 0.7941 0.0164
C77_2 C 0.1546(4) 0.9395(3) 0.1196(4)
H57_2 H 0.1659 0.9497 0.1706
C79_2 C 0.7071(4) 0.6266(3) 0.1558(4)
C81_2 C 0.6005(4) 0.7423(3) 0.0275(5)
H58_2 H 0.6023 0.7800 0.0259
C82_2 C 0.3505(4) 0.8066(3) 0.0391(4)
H59_2 H 0.3777 0.7785 0.0701
O16_2 O 0.4891(6) 0.7417(5) 0.3358(6)
O17_2 O 0.4171(6) 0.7465(4) 0.2345(6)
O18_2 O 0.4280(7) 0.8214(5) 0.3143(7)
N4_2 N 0.4379(6) 0.7697(5) 0.2952(7)
Tb4_3 Tb 1.0000 0.83012(2) 0.7500
O19_2 O 0.5613(2) 0.58552(17) 0.3320(2)
O20_2 O 0.4387(2) 0.58552(17) 0.1680(2)
O21_2 O 0.5966(3) 0.66598(19) 0.3791(3)
O22_2 O 0.4034(3) 0.66598(19) 0.1209(3)
O23_2 O 0.4038(3) 0.4399(2) 0.2177(3)
O24_2 O 0.5962(3) 0.4399(2) 0.2823(3)
O25_2 O 0.4406(3) 0.46355(19) 0.1264(2)
O26_2 O 0.5594(3) 0.46355(19) 0.3736(2)
O11_2 O 0.0613(2) 0.91448(17) 0.8320(2)
O12_2 O 0.0966(3) 0.83402(19) 0.8791(3)
O13_2 O 0.4038(3) 0.5601(2) 0.7177(3)
O15_2 O 0.4406(3) 0.53645(19) 0.6264(2)
N3_2 N 0.4194(3) 0.7582(2) 0.9102(3)
C47_2 C 0.0934(3) 0.8834(3) 0.8887(3)
C50_2 C 0.1748(5) 0.5743(5) 0.4826(6)
H38_2 H 0.1260 0.5750 0.4491
C51_2 C 0.2215(5) 0.5380(4) 0.4714(5)
H39_2 H 0.2052 0.5154 0.4284
C52_2 C 0.3929(4) 0.5558(3) 0.6470(4)
C53_2 C 0.1210(3) 0.9066(2) 0.9692(3)
C54_2 C 0.3687(4) 0.8265(3) 0.9793(4)
C59_2 C 0.0716(4) 0.9350(3) 0.9895(4)
H42_2 H 0.0264 0.9436 0.9517
C62 C 0.5460(4) 0.6579(3) 0.9726(4)
H44 H 0.5110 0.6382 0.9334
C64_2 C 0.3414(4) 0.7335(3) 0.7707(4)
C65 C 0.5451(4) 0.7140(3) 0.9692(4)
C66_2 C 0.3547(4) 0.6839(3) 0.6662(4)
H46_2 H 0.3793 0.6789 0.6336
C68_2 C 0.4898(4) 0.7419(3) 0.9009(4)
H47_2 H 0.4774 0.7180 0.8565
H48 H 0.5117 0.7743 0.8899
C69_2 C 0.2685(4) 0.8895(3) 0.9468(4)
H49_2 H 0.2412 0.9173 0.9152
C70_2 C 0.2926(4) 0.5346(3) 0.5232(4)
H50_2 H 0.3239 0.5095 0.5152
C71_2 C 0.3767(4) 0.7246(3) 0.7209(4)
H51_2 H 0.4159 0.7466 0.7245
C73_2 C 0.2592(4) 0.6604(3) 0.7063(4)
H53_2 H 0.2187 0.6395 0.7011
C74_2 C 0.3180(4) 0.5685(3) 0.5875(4)
C75_2 C 0.4348(4) 0.8056(3) 0.9670(4)
H55_2 H 0.4556 0.8352 0.9483
C76_2 C 0.3263(4) 0.8680(3) 0.9350(4)
H56_2 H 0.3378 0.8821 0.8951
C78_2 C 0.2970(4) 0.6505(3) 0.6590(4)
C80_2 C 0.2719(4) 0.6079(3) 0.5978(4)
C83_2 C 0.3899(4) 0.7114(3) 0.9397(4)
H60_2 H 0.3855 0.6802 0.9075
H61_2 H 0.3429 0.7208 0.9391
H62_2 H 0.4224 0.7032 0.9917
C84_2 C 0.2818(4) 0.7011(4) 0.7607(4)
H63_2 H 0.2560 0.7071 0.7919
C85_2 C 0.2004(5) 0.6100(4) 0.5439(5)
H64_2 H 0.1690 0.6362 0.5494
C86_2 C 0.3653(4) 0.7773(3) 0.8305(4)
H65_2 H 0.3226 0.7923 0.8362
H66_2 H 0.3878 0.8062 0.8124
N3_3 N 0.0806(3) 0.7418(2) 0.0898(3)
C47_3 C 0.4066(3) 0.6166(3) 0.1113(3)
C50_3 C 0.3252(5) 0.9257(5) 0.5174(6)
H38_3 H 0.3740 0.9250 0.5509
C51_3 C 0.2785(5) 0.9620(4) 0.5286(5)
H39_3 H 0.2948 0.9846 0.5716
C52_3 C 0.1071(4) 0.9442(3) 0.3530(4)
C53_3 C 0.3790(3) 0.5934(2) 0.0308(3)
C54_3 C 0.1313(4) 0.6735(3) 0.0207(4)
C59_3 C 0.4284(4) 0.5650(3) 0.0105(4)
H42_3 H 0.4736 0.5564 0.0483
C64_3 C 0.1586(4) 0.7665(3) 0.2293(4)
C66_3 C 0.1453(4) 0.8161(3) 0.3338(4)
H46_3 H 0.1207 0.8211 0.3664
C68_3 C 0.0102(4) 0.7581(3) 0.0991(4)
H47_3 H 0.0226 0.7820 0.1435
C69_3 C 0.2315(4) 0.6105(3) 0.0532(4)
H49_3 H 0.2588 0.5827 0.0848
C70_3 C 0.2074(4) 0.9654(3) 0.4768(4)
H50_3 H 0.1761 0.9905 0.4848
C71_3 C 0.1233(4) 0.7754(3) 0.2791(4)
H51_3 H 0.0841 0.7534 0.2755
C73_3 C 0.2408(4) 0.8396(3) 0.2937(4)
H53_3 H 0.2813 0.8605 0.2989
C74_3 C 0.1820(4) 0.9315(3) 0.4125(4)
C75_3 C 0.0652(4) 0.6944(3) 0.0330(4)
H55_3 H 0.0444 0.6648 0.0517
C76_3 C 0.1737(4) 0.6320(3) 0.0650(4)
H56_3 H 0.1622 0.6179 0.1049
C78_3 C 0.2030(4) 0.8495(3) 0.3410(4)
C80_3 C 0.2281(4) 0.8921(3) 0.4022(4)
C83_3 C 0.1101(4) 0.7886(3) 0.0603(4)
H60_3 H 0.1145 0.8198 0.0925
H61_3 H 0.1571 0.7792 0.0609
H62_3 H 0.0776 0.7968 0.0083
C84_3 C 0.2182(4) 0.7989(4) 0.2393(4)
H63_3 H 0.2440 0.7929 0.2081
C85_3 C 0.2996(5) 0.8900(4) 0.4561(5)
H64_3 H 0.3310 0.8638 0.4506
C86_3 C 0.1347(4) 0.7227(3) 0.1695(4)
H65_3 H 0.1774 0.7077 0.1638
H66_3 H 0.1122 0.6938 0.1876
O1_3 O 0.0814(2) 0.86588(18) 0.6997(3)
O5_3 O 0.0842(3) 0.95696(18) 0.7008(3)
C1_3 C 0.2386(4) 0.9456(4) 0.7496(4)
H1_3 H 0.2248 0.9711 0.7779
C2_3 C 0.1112(4) 0.9116(3) 0.6992(3)
C3_3 C 0.2803(4) 0.8704(4) 0.6666(5)
H2_3 H 0.2955 0.8447 0.6398
C5_3 C 0.3302(5) 0.9054(5) 0.7171(6)
H3_3 H 0.3789 0.9035 0.7236
C6_3 C 0.3088(5) 0.9429(5) 0.7577(5)
H4_3 H 0.3429 0.9667 0.7911
C12_3 C 0.1867(4) 0.9108(3) 0.6996(4)
C13_3 C 0.0980(4) 0.8696(3) 0.5331(4)
H7_3 H 0.0970 0.9074 0.5343
C17_3 C 0.1515(4) 0.8416(3) 0.5922(4)
C19_3 C 0.0460(4) 0.8421(3) 0.4726(4)
H11_3 H 0.0110 0.8618 0.4334
C22_3 C 0.0451(4) 0.7860(3) 0.4692(4)
H15_3 H 0.0117 0.7257 0.3899
C29_3 C 0.1532(4) 0.7861(3) 0.5879(5)
H19_3 H 0.1901 0.7669 0.6259
C36_3 C 0.2071(4) 0.8734(3) 0.6558(4)
C38_3 C 0.1005(4) 0.7577(3) 0.5275(5)
H25_3 H 0.1023 0.7200 0.5259
C57_3 C 0.3088(4) 0.6047(3) 0.9754(3)
C58_3 C 0.2940(4) 0.5872(3) 0.9000(4)
H41_3 H 0.2482 0.5938 0.8619
C61_3 C 0.2073(4) 0.6719(3) 0.9474(4)
H43_3 H 0.2179 0.6855 0.9067
C63_3 C 0.4124(4) 0.5490(3) 0.9353(4)
H45_3 H 0.4468 0.5306 0.9222
C67_3 C 0.2500(4) 0.6307(3) 0.9927(3)
H54_3 H 0.0291 0.7059 0.9836
C77_3 C 0.3454(4) 0.5605(3) 0.8804(4)
H57_3 H 0.3341 0.5503 0.8294
C82_3 C 0.1495(4) 0.6934(3) 0.9609(4)
H59_3 H 0.1223 0.7215 0.9299
O16_3 O 0.0109(6) 0.7583(5) 0.6642(6)
O17_3 O 0.0829(6) 0.7535(4) 0.7655(6)
O18_3 O 0.0720(7) 0.6786(5) 0.6857(7)
N4_3 N 0.0621(6) 0.7303(5) 0.7048(7)
N1_3 N 0.9194(3) 0.7418(2) 0.4102(3)
C4_3 C 0.5934(3) 0.6166(3) 0.3887(3)
C9_3 C 0.8929(4) 0.9442(3) 0.1470(4)
C10_3 C 0.6210(3) 0.5934(2) 0.4692(3)
C11_3 C 0.8687(4) 0.6735(3) 0.4793(4)
C14_3 C 0.6912(4) 0.6047(3) 0.5246(3)
C15_3 C 0.7060(4) 0.5872(3) 0.6000(4)
H8_3 H 0.7518 0.5938 0.6381
C16_3 C 0.5716(4) 0.5650(3) 0.4895(4)
H9_3 H 0.5264 0.5564 0.4517
C18_3 C 0.7927(4) 0.6719(3) 0.5526(4)
H10_3 H 0.7821 0.6855 0.5933
C20_3 C 0.5876(4) 0.5490(3) 0.5647(4)
H12_3 H 0.5532 0.5306 0.5778
C21_3 C 0.8414(4) 0.7665(3) 0.2707(4)
C23_3 C 0.8547(4) 0.8161(3) 0.1662(4)
H13_3 H 0.8793 0.8211 0.1336
C24_3 C 0.7500(4) 0.6307(3) 0.5073(3)
C25_3 C 0.9898(4) 0.7581(3) 0.4009(4)
H14_3 H 0.9774 0.7820 0.3565
C26_3 C 0.7685(4) 0.6105(3) 0.4468(4)
H16_3 H 0.7412 0.5827 0.4152
C27_3 C 0.7926(4) 0.9654(3) 0.0232(4)
H17_3 H 0.8239 0.9905 0.0152
C28_3 C 0.8767(4) 0.7754(3) 0.2209(4)
H18_3 H 0.9159 0.7534 0.2245
C30_3 C 0.7592(4) 0.8396(3) 0.2063(4)
H20_3 H 0.7187 0.8605 0.2011
C31_3 C 0.8180(4) 0.9315(3) 0.0875(4)
C32_3 C 0.9348(4) 0.6944(3) 0.4670(4)
H21_3 H 0.9709 0.7059 0.5164
H22_3 H 0.9556 0.6648 0.4483
C33_3 C 0.8263(4) 0.6320(3) 0.4350(4)
H23_3 H 0.8378 0.6179 0.3951
C34_3 C 0.6546(4) 0.5605(3) 0.6196(4)
H24_3 H 0.6659 0.5503 0.6706
C35_3 C 0.7970(4) 0.8495(3) 0.1590(4)
C37_3 C 0.7719(4) 0.8921(3) 0.0978(4)
C39_3 C 0.8505(4) 0.6934(3) 0.5391(4)
H26_3 H 0.8777 0.7215 0.5701
C40_3 C 0.8899(4) 0.7886(3) 0.4397(4)
H27_3 H 0.8855 0.8198 0.4075
H28_3 H 0.8429 0.7792 0.4391
H29_3 H 0.9224 0.7968 0.4917
C41_3 C 0.7818(4) 0.7989(4) 0.2607(4)
H30_3 H 0.7560 0.7929 0.2919
C42_3 C 0.7004(5) 0.8900(4) 0.0439(5)
H31_3 H 0.6690 0.8638 0.0494
C43_3 C 0.8653(4) 0.7227(3) 0.3305(4)
H32_3 H 0.8226 0.7077 0.3362
H33_3 H 0.8878 0.6938 0.3124
O7_3 O 0.9891(6) 0.7583(5) 0.8358(6)
O8_3 O 0.9171(6) 0.7535(4) 0.7345(6)
O9_3 O 0.9280(7) 0.6786(5) 0.8143(7)
N2_3 N 0.9379(6) 0.7303(5) 0.7952(7)
O10_3 O 0.9186(2) 0.86588(18) 0.8003(3)
O14_3 O 0.9158(3) 0.95696(18) 0.7992(3)
C44_3 C 0.7614(4) 0.9456(4) 0.7504(4)
H34_3 H 0.7752 0.9711 0.7221
C45_3 C 0.8888(4) 0.9116(3) 0.8008(3)
C46_3 C 0.7197(4) 0.8704(4) 0.8334(5)
H35_3 H 0.7045 0.8447 0.8602
C48_3 C 0.6698(5) 0.9054(5) 0.7829(6)
H36_3 H 0.6211 0.9035 0.7764
C49_3 C 0.6912(5) 0.9429(5) 0.7423(5)
H37_3 H 0.6571 0.9667 0.7089
C55_3 C 0.8133(4) 0.9108(3) 0.8004(4)
C56_3 C 0.9020(4) 0.8696(3) 0.9669(4)
H40_3 H 0.9030 0.9074 0.9657
C60_3 C 0.8485(4) 0.8416(3) 0.9078(4)
C72_3 C 0.8468(4) 0.7861(3) 0.9121(5)
H52_3 H 0.8099 0.7669 0.8741
C79_3 C 0.7929(4) 0.8734(3) 0.8442(4)
C81_3 C 0.8995(4) 0.7577(3) 0.9725(5)
H58_3 H 0.8977 0.7200 0.9741
N3_4 N 0.5806(3) 0.2418(2) 0.0898(3)
C47_4 C 0.9066(3) 0.1166(3) 0.1113(3)
C50_4 C 0.8252(5) 0.4257(5) 0.5174(6)
H38_4 H 0.8740 0.4250 0.5509
C51_4 C 0.7785(5) 0.4620(4) 0.5286(5)
H39_4 H 0.7948 0.4846 0.5716
C52_4 C 0.6071(4) 0.4442(3) 0.3530(4)
C53_4 C 0.8790(3) 0.0934(2) 0.0308(3)
C54_4 C 0.6313(4) 0.1735(3) 0.0207(4)
C59_4 C 0.9284(4) 0.0650(3) 0.0105(4)
H42_4 H 0.9736 0.0564 0.0483
C62_2 C 0.4540(4) 0.3421(3) 0.0274(4)
H44_2 H 0.4890 0.3618 0.0666
C64_4 C 0.6586(4) 0.2665(3) 0.2293(4)
C65_2 C 0.4549(4) 0.2860(3) 0.0308(4)
C66_4 C 0.6453(4) 0.3161(3) 0.3338(4)
H46_4 H 0.6207 0.3211 0.3664
C68_4 C 0.5102(4) 0.2581(3) 0.0991(4)
H47_4 H 0.5226 0.2820 0.1435
H48_2 H 0.4883 0.2257 0.1101
C69_4 C 0.7315(4) 0.1105(3) 0.0532(4)
H49_4 H 0.7588 0.0827 0.0848
C70_4 C 0.7074(4) 0.4654(3) 0.4768(4)
H50_4 H 0.6761 0.4905 0.4848
C71_4 C 0.6233(4) 0.2754(3) 0.2791(4)
H51_4 H 0.5841 0.2534 0.2755
C73_4 C 0.7408(4) 0.3396(3) 0.2937(4)
H53_4 H 0.7813 0.3605 0.2989
C74_4 C 0.6820(4) 0.4315(3) 0.4125(4)
C75_4 C 0.5652(4) 0.1944(3) 0.0330(4)
H55_4 H 0.5444 0.1648 0.0517
C76_4 C 0.6737(4) 0.1320(3) 0.0650(4)
H56_4 H 0.6622 0.1179 0.1049
C78_4 C 0.7030(4) 0.3495(3) 0.3410(4)
C80_4 C 0.7281(4) 0.3921(3) 0.4022(4)
C83_4 C 0.6101(4) 0.2886(3) 0.0603(4)
H60_4 H 0.6145 0.3198 0.0925
H61_4 H 0.6571 0.2792 0.0609
H62_4 H 0.5776 0.2968 0.0083
C84_4 C 0.7182(4) 0.2989(4) 0.2393(4)
H63_4 H 0.7440 0.2929 0.2081
C85_4 C 0.7996(5) 0.3900(4) 0.4561(5)
H64_4 H 0.8310 0.3638 0.4506
C86_4 C 0.6347(4) 0.2227(3) 0.1695(4)
H65_4 H 0.6774 0.2077 0.1638
H66_4 H 0.6122 0.1938 0.1876
O1_4 O 0.5814(2) 0.36588(18) 0.6997(3)
O5_4 O 0.5842(3) 0.45696(18) 0.7008(3)
N1_4 N 0.4194(3) 0.2418(2) 0.4102(3)
C1_4 C 0.7386(4) 0.4456(4) 0.7496(4)
H1_4 H 0.7248 0.4711 0.7779
C2_4 C 0.6112(4) 0.4116(3) 0.6992(3)
C3_4 C 0.7803(4) 0.3704(4) 0.6666(5)
H2_4 H 0.7955 0.3447 0.6398
C4_4 C 0.0934(3) 0.1166(3) 0.3887(3)
C5_4 C 0.8302(5) 0.4054(5) 0.7171(6)
H3_4 H 0.8789 0.4035 0.7236
C6_4 C 0.8088(5) 0.4429(5) 0.7577(5)
H4_4 H 0.8429 0.4667 0.7911
C9_4 C 0.3929(4) 0.4442(3) 0.1470(4)
C10_4 C 0.1210(3) 0.0934(2) 0.4692(3)
C11_4 C 0.3687(4) 0.1735(3) 0.4793(4)
C12_4 C 0.6867(4) 0.4108(3) 0.6996(4)
C13_4 C 0.5980(4) 0.3696(3) 0.5331(4)
H7_4 H 0.5970 0.4074 0.5343
C14_4 C 0.1912(4) 0.1047(3) 0.5246(3)
C15_4 C 0.2060(4) 0.0872(3) 0.6000(4)
H8_4 H 0.2518 0.0938 0.6381
C16_4 C 0.0716(4) 0.0650(3) 0.4895(4)
H9_4 H 0.0264 0.0564 0.4517
C17_4 C 0.6515(4) 0.3416(3) 0.5922(4)
C18_4 C 0.2927(4) 0.1719(3) 0.5526(4)
H10_4 H 0.2821 0.1855 0.5933
C19_4 C 0.5460(4) 0.3421(3) 0.4726(4)
H11_4 H 0.5110 0.3618 0.4334
C20_4 C 0.0876(4) 0.0490(3) 0.5647(4)
H12_4 H 0.0532 0.0306 0.5778
C21_4 C 0.3414(4) 0.2665(3) 0.2707(4)
C22_4 C 0.5451(4) 0.2860(3) 0.4692(4)
C23_4 C 0.3547(4) 0.3161(3) 0.1662(4)
H13_4 H 0.3793 0.3211 0.1336
C24_4 C 0.2500(4) 0.1307(3) 0.5073(3)
C25_4 C 0.4898(4) 0.2581(3) 0.4009(4)
H14_4 H 0.4774 0.2820 0.3565
H15_4 H 0.5117 0.2257 0.3899
C26_4 C 0.2685(4) 0.1105(3) 0.4468(4)
H16_4 H 0.2412 0.0827 0.4152
C27_4 C 0.2926(4) 0.4654(3) 0.0232(4)
H17_4 H 0.3239 0.4905 0.0152
C28_4 C 0.3767(4) 0.2754(3) 0.2209(4)
H18_4 H 0.4159 0.2534 0.2245
C29_4 C 0.6532(4) 0.2861(3) 0.5879(5)
H19_4 H 0.6901 0.2669 0.6259
C30_4 C 0.2592(4) 0.3396(3) 0.2063(4)
H20_4 H 0.2187 0.3605 0.2011
C31_4 C 0.3180(4) 0.4315(3) 0.0875(4)
C32_4 C 0.4348(4) 0.1944(3) 0.4670(4)
H21_4 H 0.4709 0.2059 0.5164
H22_4 H 0.4556 0.1648 0.4483
C33_4 C 0.3263(4) 0.1320(3) 0.4350(4)
H23_4 H 0.3378 0.1179 0.3951
C34_4 C 0.1546(4) 0.0605(3) 0.6196(4)
H24_4 H 0.1659 0.0503 0.6706
C35_4 C 0.2970(4) 0.3495(3) 0.1590(4)
C36_4 C 0.7071(4) 0.3734(3) 0.6558(4)
C37_4 C 0.2719(4) 0.3921(3) 0.0978(4)
C38_4 C 0.6005(4) 0.2577(3) 0.5275(5)
H25_4 H 0.6023 0.2200 0.5259
C39_4 C 0.3505(4) 0.1934(3) 0.5391(4)
H26_4 H 0.3777 0.2215 0.5701
C40_4 C 0.3899(4) 0.2886(3) 0.4397(4)
H27_4 H 0.3855 0.3198 0.4075
H28_4 H 0.3429 0.2792 0.4391
H29_4 H 0.4224 0.2968 0.4917
C41_4 C 0.2818(4) 0.2989(4) 0.2607(4)
H30_4 H 0.2560 0.2929 0.2919
C42_4 C 0.2004(5) 0.3900(4) 0.0439(5)
H31_4 H 0.1690 0.3638 0.0494
C43_4 C 0.3653(4) 0.2227(3) 0.3305(4)
H32_4 H 0.3226 0.2077 0.3362
H33_4 H 0.3878 0.1938 0.3124
O7_4 O 0.4891(6) 0.2583(5) 0.8358(6)
O8_4 O 0.4171(6) 0.2535(4) 0.7345(6)
O9_4 O 0.4280(7) 0.1786(5) 0.8143(7)
N2_4 N 0.4379(6) 0.2303(5) 0.7952(7)
O10_4 O 0.4186(2) 0.36588(18) 0.8003(3)
O14_4 O 0.4158(3) 0.45696(18) 0.7992(3)
C44_4 C 0.2614(4) 0.4456(4) 0.7504(4)
H34_4 H 0.2752 0.4711 0.7221
C45_4 C 0.3888(4) 0.4116(3) 0.8008(3)
C46_4 C 0.2197(4) 0.3704(4) 0.8334(5)
H35_4 H 0.2045 0.3447 0.8602
C48_4 C 0.1698(5) 0.4054(5) 0.7829(6)
H36_4 H 0.1211 0.4035 0.7764
C49_4 C 0.1912(5) 0.4429(5) 0.7423(5)
H37_4 H 0.1571 0.4667 0.7089
C55_4 C 0.3133(4) 0.4108(3) 0.8004(4)
C56_4 C 0.4020(4) 0.3696(3) 0.9669(4)
H40_4 H 0.4030 0.4074 0.9657
C57_4 C 0.8088(4) 0.1047(3) 0.9754(3)
C58_4 C 0.7940(4) 0.0872(3) 0.9000(4)
H41_4 H 0.7482 0.0938 0.8619
C60_4 C 0.3485(4) 0.3416(3) 0.9078(4)
C61_4 C 0.7073(4) 0.1719(3) 0.9474(4)
H43_4 H 0.7179 0.1855 0.9067
C63_4 C 0.9124(4) 0.0490(3) 0.9353(4)
H45_4 H 0.9468 0.0306 0.9222
C67_4 C 0.7500(4) 0.1307(3) 0.9927(3)
C72_4 C 0.3468(4) 0.2861(3) 0.9121(5)
H52_4 H 0.3099 0.2669 0.8741
H54_4 H 0.5291 0.2059 0.9836
C77_4 C 0.8454(4) 0.0605(3) 0.8804(4)
H57_4 H 0.8341 0.0503 0.8294
C79_4 C 0.2929(4) 0.3734(3) 0.8442(4)
C81_4 C 0.3995(4) 0.2577(3) 0.9725(5)
H58_4 H 0.3977 0.2200 0.9741
C82_4 C 0.6495(4) 0.1934(3) 0.9609(4)
H59_4 H 0.6223 0.2215 0.9299
O16_4 O 0.5109(6) 0.2583(5) 0.6642(6)
O17_4 O 0.5829(6) 0.2535(4) 0.7655(6)
O18_4 O 0.5720(7) 0.1786(5) 0.6857(7)
N4_4 N 0.5621(6) 0.2303(5) 0.7048(7)
C62_3 C 0.0460(4) 0.1579(3) 0.9726(4)
H44_3 H 0.0110 0.1382 0.9334
C65_3 C 0.0451(4) 0.2140(3) 0.9692(4)
H48_3 H 0.0117 0.2743 0.8899
C7_2 C 0.8252(5) 0.5743(5) 0.0174(6)
H5_2 H 0.8740 0.5750 0.0509
C8_2 C 0.7785(5) 0.5380(4) 0.0286(5)
H6_2 H 0.7948 0.5154 0.0716
C62_4 C 0.9540(4) 0.8421(3) 0.0274(4)
H44_4 H 0.9890 0.8618 0.0666
C65_4 C 0.9549(4) 0.7860(3) 0.0308(4)
H48_4 H 0.9883 0.7257 0.1101
C7_3 C 0.6748(5) 0.9257(5) 0.9826(6)
H5_3 H 0.6260 0.9250 0.9491
C8_3 C 0.7215(5) 0.9620(4) 0.9714(5)
H6_3 H 0.7052 0.9846 0.9284
C7_4 C 0.1748(5) 0.4257(5) 0.9826(6)
H5_4 H 0.1260 0.4250 0.9491
C8_4 C 0.2215(5) 0.4620(4) 0.9714(5)
H6_4 H 0.2052 0.4846 0.9284
loop_
_geom_bond_atom_site_label_1
_geom_bond_atom_site_label_2
_geom_bond_site_symmetry_1
_geom_bond_site_symmetry_2
C7 H5 1_555 1_555
C8 C7 1_555 1_555
H6 C8 1_555 1_555
O2 C4 1_555 1_555
O3 C4 1_555 1_555
O4 C9 1_555 1_555
O6 C9 1_555 1_555
N1 C25 1_555 1_555
C4 C10 1_555 1_555
C9 C31 1_555 1_555
C10 C14 1_555 1_555
C11 C32 1_555 1_555
C14 C15 1_555 1_555
C15 H8 1_555 1_555
C16 C10 1_555 1_555
H9 C16 1_555 1_555
C18 H10 1_555 1_555
C20 C16 1_555 1_555
H12 C20 1_555 1_555
C21 C28 1_555 1_555
C23 H13 1_555 1_555
C24 C14 1_555 1_555
H14 C25 1_555 1_555
C26 C24 1_555 1_555
H16 C26 1_555 1_555
H17 C27 1_555 1_555
C28 C23 1_555 1_555
H18 C28 1_555 1_555
C30 H20 1_555 1_555
C31 C27 1_555 1_555
C32 N1 1_555 1_555
H21 C32 1_555 1_555
H22 C32 1_555 1_555
C33 C11 1_555 1_555
H23 C33 1_555 1_555
C34 C15 1_555 1_555
H24 C34 1_555 1_555
C35 C23 1_555 1_555
C37 C31 1_555 1_555
C39 C11 1_555 1_555
H26 C39 1_555 1_555
C40 N1 1_555 1_555
H27 C40 1_555 1_555
H28 C40 1_555 1_555
H29 C40 1_555 1_555
C41 C21 1_555 1_555
H30 C41 1_555 1_555
H31 C42 1_555 1_555
C43 N1 1_555 1_555
H32 C43 1_555 1_555
H33 C43 1_555 1_555
O7 Tb1 1_555 1_555
O8 Tb1 1_555 1_555
O9 N2 1_555 1_555
N2 O7 1_555 1_555
O10 Tb1 1_555 1_555
O14 Tb2 1_555 1_555
C44 H34 1_555 1_555
C45 O10 1_555 1_555
C46 H35 1_555 1_555
C48 C46 1_555 1_555
H36 C48 1_555 1_555
C49 C44 1_555 1_555
H37 C49 1_555 1_555
C55 C44 1_555 1_555
C56 H40 1_555 1_555
C60 C56 1_555 1_555
C72 C60 1_555 1_555
H52 C72 1_555 1_555
C79 C46 1_555 1_555
H58 C81 1_555 1_555
Tb4 O2 1_555 1_555
Tb8 O2 1_555 1_555
O19 Tb1 1_555 1_555
O21 Tb1 1_555 1_555
Tb2 O19 1_555 1_555
O3 Tb4 1_555 1_555
C18 C24 1_555 1_555
C18 C39 1_555 1_555
C20 C34 1_555 1_555
C21 C43 1_555 1_555
C26 C33 1_555 1_555
C30 C35 1_555 1_555
C30 C41 1_555 1_555
C35 C37 1_555 1_555
C37 C42 1_555 1_555
O8 N2 1_555 1_555
O14 C45 1_555 1_555
C45 C55 1_555 1_555
C48 C49 1_555 1_555
C55 C79 1_555 1_555
C60 C79 1_555 1_555
C72 C81 1_555 1_555
Tb1_2 O1 1_555 1_555
Tb2_2 O5 1_555 1_555
O1 C2 1_555 1_555
O5 C2 1_555 1_555
C1 H1 1_555 1_555
C2 C12 1_555 1_555
C3 H2 1_555 1_555
C5 C3 1_555 1_555
H3 C5 1_555 1_555
C6 C1 1_555 1_555
H4 C6 1_555 1_555
C12 C1 1_555 1_555
C13 H7 1_555 1_555
C17 C13 1_555 1_555
C19 C13 1_555 1_555
H11 C19 1_555 1_555
C22 C19 1_555 1_555
C29 C17 1_555 1_555
H19 C29 1_555 1_555
C36 C3 1_555 1_555
C38 C22 1_555 1_555
H25 C38 1_555 1_555
C57 C58 1_555 1_555
C58 H41 1_555 1_555
C61 H43 1_555 1_555
H45 C63 1_555 1_555
C67 C57 1_555 1_555
C77 C58 1_555 1_555
H57 C77 1_555 1_555
H59 C82 1_555 1_555
O16 Tb1_2 1_555 1_555
O17 Tb1_2 1_555 1_555
O18 N4 1_555 1_555
N4 O16 1_555 1_555
O20 Tb1_2 1_555 1_555
O22 Tb1_2 1_555 1_555
Tb2_2 O20 1_555 1_555
C5 C6 1_555 1_555
C12 C36 1_555 1_555
C17 C36 1_555 1_555
C29 C38 1_555 1_555
C61 C67 1_555 1_555
C61 C82 1_555 1_555
C63 C77 1_555 1_555
O17 N4 1_555 1_555
O11 C47 1_555 1_555
O12 C47 1_555 1_555
O13 C52 1_555 1_555
O15 C52 1_555 1_555
N3 C68 1_555 1_555
C47 C53 1_555 1_555
C50 H38 1_555 1_555
C51 C50 1_555 1_555
H39 C51 1_555 1_555
C52 C74 1_555 1_555
C54 C75 1_555 1_555
C59 C53 1_555 1_555
H42 C59 1_555 1_555
C64 C71 1_555 1_555
C66 H46 1_555 1_555
H47 C68 1_555 1_555
H49 C69 1_555 1_555
C70 C51 1_555 1_555
H50 C70 1_555 1_555
C71 C66 1_555 1_555
H51 C71 1_555 1_555
C73 H53 1_555 1_555
C74 C70 1_555 1_555
C75 N3 1_555 1_555
H55 C75 1_555 1_555
C76 C54 1_555 1_555
H56 C76 1_555 1_555
C78 C66 1_555 1_555
C80 C74 1_555 1_555
C83 N3 1_555 1_555
H60 C83 1_555 1_555
H61 C83 1_555 1_555
H62 C83 1_555 1_555
C84 C64 1_555 1_555
H63 C84 1_555 1_555
C85 C50 1_555 1_555
H64 C85 1_555 1_555
C86 N3 1_555 1_555
H65 C86 1_555 1_555
H66 C86 1_555 1_555
Tb4 O11 1_555 1_555
Tb8 O11 1_555 1_555
O12 Tb4 1_555 1_555
C64 C86 1_555 1_555
C69 C76 1_555 1_555
C73 C78 1_555 1_555
C73 C84 1_555 1_555
C78 C80 1_555 1_555
C80 C85 1_555 1_555
Tb1_3 O1_2 1_555 1_555
Tb2_3 O5_2 1_555 1_555
O1_2 C2_2 1_555 1_555
O2_2 C4_2 1_555 1_555
O3_2 C4_2 1_555 1_555
O4_2 C9_2 1_555 1_555
O5_2 C2_2 1_555 1_555
O6_2 C9_2 1_555 1_555
N1_2 C25_2 1_555 1_555
C1_2 H1_2 1_555 1_555
C2_2 C12_2 1_555 1_555
C3_2 H2_2 1_555 1_555
C4_2 C10_2 1_555 1_555
C5_2 C3_2 1_555 1_555
H3_2 C5_2 1_555 1_555
C6_2 C1_2 1_555 1_555
H4_2 C6_2 1_555 1_555
C9_2 C31_2 1_555 1_555
C10_2 C14_2 1_555 1_555
C11_2 C32_2 1_555 1_555
C12_2 C1_2 1_555 1_555
C13_2 H7_2 1_555 1_555
C14_2 C15_2 1_555 1_555
C15_2 H8_2 1_555 1_555
C16_2 C10_2 1_555 1_555
H9_2 C16_2 1_555 1_555
C17_2 C13_2 1_555 1_555
C18_2 H10_2 1_555 1_555
C19_2 C13_2 1_555 1_555
H11_2 C19_2 1_555 1_555
C20_2 C16_2 1_555 1_555
H12_2 C20_2 1_555 1_555
C21_2 C28_2 1_555 1_555
C22_2 C19_2 1_555 1_555
C23_2 H13_2 1_555 1_555
C24_2 C14_2 1_555 1_555
C25_2 C22_2 1_555 1_555
H14_2 C25_2 1_555 1_555
H15_2 C25_2 1_555 1_555
C26_2 C24_2 1_555 1_555
H16_2 C26_2 1_555 1_555
H17_2 C27_2 1_555 1_555
C28_2 C23_2 1_555 1_555
H18_2 C28_2 1_555 1_555
C29_2 C17_2 1_555 1_555
H19_2 C29_2 1_555 1_555
C30_2 H20_2 1_555 1_555
C31_2 C27_2 1_555 1_555
C32_2 N1_2 1_555 1_555
H21_2 C32_2 1_555 1_555
H22_2 C32_2 1_555 1_555
C33_2 C11_2 1_555 1_555
H23_2 C33_2 1_555 1_555
C34_2 C15_2 1_555 1_555
H24_2 C34_2 1_555 1_555
C35_2 C23_2 1_555 1_555
C36_2 C3_2 1_555 1_555
C37_2 C31_2 1_555 1_555
C38_2 C22_2 1_555 1_555
H25_2 C38_2 1_555 1_555
C39_2 C11_2 1_555 1_555
H26_2 C39_2 1_555 1_555
C40_2 N1_2 1_555 1_555
H27_2 C40_2 1_555 1_555
H28_2 C40_2 1_555 1_555
H29_2 C40_2 1_555 1_555
C41_2 C21_2 1_555 1_555
H30_2 C41_2 1_555 1_555
H31_2 C42_2 1_555 1_555
C43_2 N1_2 1_555 1_555
H32_2 C43_2 1_555 1_555
H33_2 C43_2 1_555 1_555
O7_2 Tb1_3 1_555 1_555
O8_2 Tb1_3 1_555 1_555
O9_2 N2_2 1_555 1_555
N2_2 O7_2 1_555 1_555
O10_2 Tb1_3 1_555 1_555
O14_2 Tb2_3 1_555 1_555
C44_2 H34_2 1_555 1_555
C45_2 O10_2 1_555 1_555
C46_2 H35_2 1_555 1_555
C48_2 C46_2 1_555 1_555
H36_2 C48_2 1_555 1_555
C49_2 C44_2 1_555 1_555
H37_2 C49_2 1_555 1_555
C55_2 C44_2 1_555 1_555
C56_2 H40_2 1_555 1_555
C57_2 C58_2 1_555 1_555
C58_2 H41_2 1_555 1_555
C60_2 C56_2 1_555 1_555
C61_2 H43_2 1_555 1_555
H45_2 C63_2 1_555 1_555
C67_2 C57_2 1_555 1_555
C72_2 C60_2 1_555 1_555
H52_2 C72_2 1_555 1_555
C77_2 C58_2 1_555 1_555
H57_2 C77_2 1_555 1_555
C79_2 C46_2 1_555 1_555
H58_2 C81_2 1_555 1_555
H59_2 C82_2 1_555 1_555
O16_2 Tb1_3 1_555 1_555
O17_2 Tb1_3 1_555 1_555
O18_2 N4_2 1_555 1_555
N4_2 O16_2 1_555 1_555
Tb4_3 O2_2 1_555 1_555
Tb8 O4_2 1_555 1_555
Tb6_2 O2_2 1_555 1_555
O19_2 Tb1_3 1_555 1_555
O20_2 Tb1_3 1_555 1_555
O21_2 Tb1_3 1_555 1_555
O22_2 Tb1_3 1_555 1_555
O23_2 Tb2_3 1_555 1_555
O24_2 Tb2_3 1_555 1_555
O25_2 Tb2_3 1_555 1_555
O26_2 Tb2_3 1_555 1_555
Tb2_3 O19_2 1_555 1_555
Tb2_3 O20_2 1_555 1_555
O3_2 Tb4_3 1_555 1_555
O6_2 Tb8 1_555 1_555
C5_2 C6_2 1_555 1_555
C12_2 C36_2 1_555 1_555
C17_2 C36_2 1_555 1_555
C18_2 C24_2 1_555 1_555
C18_2 C39_2 1_555 1_555
C20_2 C34_2 1_555 1_555
C21_2 C43_2 1_555 1_555
C26_2 C33_2 1_555 1_555
C29_2 C38_2 1_555 1_555
C30_2 C35_2 1_555 1_555
C30_2 C41_2 1_555 1_555
C35_2 C37_2 1_555 1_555
C37_2 C42_2 1_555 1_555
O8_2 N2_2 1_555 1_555
O14_2 C45_2 1_555 1_555
C45_2 C55_2 1_555 1_555
C48_2 C49_2 1_555 1_555
C55_2 C79_2 1_555 1_555
C60_2 C79_2 1_555 1_555
C61_2 C67_2 1_555 1_555
C61_2 C82_2 1_555 1_555
C63_2 C77_2 1_555 1_555
C72_2 C81_2 1_555 1_555
O17_2 N4_2 1_555 1_555
O11_2 C47_2 1_555 1_555
O12_2 C47_2 1_555 1_555
O13_2 C52_2 1_555 1_555
O15_2 C52_2 1_555 1_555
N3_2 C68_2 1_555 1_555
C47_2 C53_2 1_555 1_555
C50_2 H38_2 1_555 1_555
C51_2 C50_2 1_555 1_555
H39_2 C51_2 1_555 1_555
C52_2 C74_2 1_555 1_555
C54_2 C75_2 1_555 1_555
C59_2 C53_2 1_555 1_555
H42_2 C59_2 1_555 1_555
H44 C62 1_555 1_555
C64_2 C71_2 1_555 1_555
C65 C62 1_555 1_555
C66_2 H46_2 1_555 1_555
C68_2 C65 1_555 1_555
H47_2 C68_2 1_555 1_555
H48 C68_2 1_555 1_555
H49_2 C69_2 1_555 1_555
C70_2 C51_2 1_555 1_555
H50_2 C70_2 1_555 1_555
C71_2 C66_2 1_555 1_555
H51_2 C71_2 1_555 1_555
C73_2 H53_2 1_555 1_555
C74_2 C70_2 1_555 1_555
C75_2 N3_2 1_555 1_555
H55_2 C75_2 1_555 1_555
C76_2 C54_2 1_555 1_555
H56_2 C76_2 1_555 1_555
C78_2 C66_2 1_555 1_555
C80_2 C74_2 1_555 1_555
C83_2 N3_2 1_555 1_555
H60_2 C83_2 1_555 1_555
H61_2 C83_2 1_555 1_555
H62_2 C83_2 1_555 1_555
C84_2 C64_2 1_555 1_555
H63_2 C84_2 1_555 1_555
C85_2 C50_2 1_555 1_555
H64_2 C85_2 1_555 1_555
C86_2 N3_2 1_555 1_555
H65_2 C86_2 1_555 1_555
H66_2 C86_2 1_555 1_555
Tb4_2 O11_2 1_555 1_555
Tb8 O13_2 1_555 1_555
Tb6 O11_2 1_555 1_555
O12_2 Tb4_2 1_555 1_555
O15_2 Tb8 1_555 1_555
C64_2 C86_2 1_555 1_555
C69_2 C76_2 1_555 1_555
C73_2 C78_2 1_555 1_555
C73_2 C84_2 1_555 1_555
C78_2 C80_2 1_555 1_555
C80_2 C85_2 1_555 1_555
O20_2 C47_3 1_555 1_555
O22_2 C47_3 1_555 1_555
O24 C52_3 1_555 1_555
O26 C52_3 1_555 1_555
N3_3 C68_3 1_555 1_555
C47_3 C53_3 1_555 1_555
C50_3 H38_3 1_555 1_555
C51_3 C50_3 1_555 1_555
H39_3 C51_3 1_555 1_555
C52_3 C74_3 1_555 1_555
C54_3 C75_3 1_555 1_555
C59_3 C53_3 1_555 1_555
H42_3 C59_3 1_555 1_555
C64_3 C71_3 1_555 1_555
C66_3 H46_3 1_555 1_555
H47_3 C68_3 1_555 1_555
H49_3 C69_3 1_555 1_555
C70_3 C51_3 1_555 1_555
H50_3 C70_3 1_555 1_555
C71_3 C66_3 1_555 1_555
H51_3 C71_3 1_555 1_555
C73_3 H53_3 1_555 1_555
C74_3 C70_3 1_555 1_555
C75_3 N3_3 1_555 1_555
H55_3 C75_3 1_555 1_555
C76_3 C54_3 1_555 1_555
H56_3 C76_3 1_555 1_555
C78_3 C66_3 1_555 1_555
C80_3 C74_3 1_555 1_555
C83_3 N3_3 1_555 1_555
H60_3 C83_3 1_555 1_555
H61_3 C83_3 1_555 1_555
H62_3 C83_3 1_555 1_555
C84_3 C64_3 1_555 1_555
H63_3 C84_3 1_555 1_555
C85_3 C50_3 1_555 1_555
H64_3 C85_3 1_555 1_555
C86_3 N3_3 1_555 1_555
H65_3 C86_3 1_555 1_555
H66_3 C86_3 1_555 1_555
C64_3 C86_3 1_555 1_555
C69_3 C76_3 1_555 1_555
C73_3 C78_3 1_555 1_555
C73_3 C84_3 1_555 1_555
C78_3 C80_3 1_555 1_555
C80_3 C85_3 1_555 1_555
Tb4_2 O1_3 1_555 1_555
Tb6 O5_3 1_555 1_555
O1_3 C2_3 1_555 1_555
O5_3 C2_3 1_555 1_555
C1_3 H1_3 1_555 1_555
C2_3 C12_3 1_555 1_555
C3_3 H2_3 1_555 1_555
C5_3 C3_3 1_555 1_555
H3_3 C5_3 1_555 1_555
C6_3 C1_3 1_555 1_555
H4_3 C6_3 1_555 1_555
C12_3 C1_3 1_555 1_555
C13_3 H7_3 1_555 1_555
C17_3 C13_3 1_555 1_555
C19_3 C13_3 1_555 1_555
H11_3 C19_3 1_555 1_555
C22_3 C19_3 1_555 1_555
C29_3 C17_3 1_555 1_555
H19_3 C29_3 1_555 1_555
C36_3 C3_3 1_555 1_555
C38_3 C22_3 1_555 1_555
H25_3 C38_3 1_555 1_555
C57_3 C58_3 1_555 1_555
C58_3 H41_3 1_555 1_555
C61_3 H43_3 1_555 1_555
H45_3 C63_3 1_555 1_555
C67_3 C57_3 1_555 1_555
C77_3 C58_3 1_555 1_555
H57_3 C77_3 1_555 1_555
H59_3 C82_3 1_555 1_555
O16_3 Tb4_2 1_555 1_555
O17_3 Tb4_2 1_555 1_555
O18_3 N4_3 1_555 1_555
N4_3 O16_3 1_555 1_555
C5_3 C6_3 1_555 1_555
C12_3 C36_3 1_555 1_555
C17_3 C36_3 1_555 1_555
C29_3 C38_3 1_555 1_555
C61_3 C67_3 1_555 1_555
C61_3 C82_3 1_555 1_555
C63_3 C77_3 1_555 1_555
O17_3 N4_3 1_555 1_555
O19_2 C4_3 1_555 1_555
O21_2 C4_3 1_555 1_555
O23 C9_3 1_555 1_555
O25 C9_3 1_555 1_555
N1_3 C25_3 1_555 1_555
C4_3 C10_3 1_555 1_555
C9_3 C31_3 1_555 1_555
C10_3 C14_3 1_555 1_555
C11_3 C32_3 1_555 1_555
C14_3 C15_3 1_555 1_555
C15_3 H8_3 1_555 1_555
C16_3 C10_3 1_555 1_555
H9_3 C16_3 1_555 1_555
C18_3 H10_3 1_555 1_555
C20_3 C16_3 1_555 1_555
H12_3 C20_3 1_555 1_555
C21_3 C28_3 1_555 1_555
C23_3 H13_3 1_555 1_555
C24_3 C14_3 1_555 1_555
H14_3 C25_3 1_555 1_555
C26_3 C24_3 1_555 1_555
H16_3 C26_3 1_555 1_555
H17_3 C27_3 1_555 1_555
C28_3 C23_3 1_555 1_555
H18_3 C28_3 1_555 1_555
C30_3 H20_3 1_555 1_555
C31_3 C27_3 1_555 1_555
C32_3 N1_3 1_555 1_555
H21_3 C32_3 1_555 1_555
H22_3 C32_3 1_555 1_555
C33_3 C11_3 1_555 1_555
H23_3 C33_3 1_555 1_555
C34_3 C15_3 1_555 1_555
H24_3 C34_3 1_555 1_555
C35_3 C23_3 1_555 1_555
C37_3 C31_3 1_555 1_555
C39_3 C11_3 1_555 1_555
H26_3 C39_3 1_555 1_555
C40_3 N1_3 1_555 1_555
H27_3 C40_3 1_555 1_555
H28_3 C40_3 1_555 1_555
H29_3 C40_3 1_555 1_555
C41_3 C21_3 1_555 1_555
H30_3 C41_3 1_555 1_555
H31_3 C42_3 1_555 1_555
C43_3 N1_3 1_555 1_555
H32_3 C43_3 1_555 1_555
H33_3 C43_3 1_555 1_555
O7_3 Tb4_3 1_555 1_555
O8_3 Tb4_3 1_555 1_555
O9_3 N2_3 1_555 1_555
N2_3 O7_3 1_555 1_555
O10_3 Tb4_3 1_555 1_555
O14_3 Tb6_2 1_555 1_555
C44_3 H34_3 1_555 1_555
C45_3 O10_3 1_555 1_555
C46_3 H35_3 1_555 1_555
C48_3 C46_3 1_555 1_555
H36_3 C48_3 1_555 1_555
C49_3 C44_3 1_555 1_555
H37_3 C49_3 1_555 1_555
C55_3 C44_3 1_555 1_555
C56_3 H40_3 1_555 1_555
C60_3 C56_3 1_555 1_555
C72_3 C60_3 1_555 1_555
H52_3 C72_3 1_555 1_555
C79_3 C46_3 1_555 1_555
H58_3 C81_3 1_555 1_555
C18_3 C24_3 1_555 1_555
C18_3 C39_3 1_555 1_555
C20_3 C34_3 1_555 1_555
C21_3 C43_3 1_555 1_555
C26_3 C33_3 1_555 1_555
C30_3 C35_3 1_555 1_555
C30_3 C41_3 1_555 1_555
C35_3 C37_3 1_555 1_555
C37_3 C42_3 1_555 1_555
O8_3 N2_3 1_555 1_555
O14_3 C45_3 1_555 1_555
C45_3 C55_3 1_555 1_555
C48_3 C49_3 1_555 1_555
C55_3 C79_3 1_555 1_555
C60_3 C79_3 1_555 1_555
C72_3 C81_3 1_555 1_555
O20 C47_4 1_555 1_555
O22 C47_4 1_555 1_555
O24_2 C52_4 1_555 1_555
O26_2 C52_4 1_555 1_555
N3_4 C68_4 1_555 1_555
C47_4 C53_4 1_555 1_555
C50_4 H38_4 1_555 1_555
C51_4 C50_4 1_555 1_555
H39_4 C51_4 1_555 1_555
C52_4 C74_4 1_555 1_555
C54_4 C75_4 1_555 1_555
C59_4 C53_4 1_555 1_555
H42_4 C59_4 1_555 1_555
H44_2 C62_2 1_555 1_555
C64_4 C71_4 1_555 1_555
C65_2 C62_2 1_555 1_555
C66_4 H46_4 1_555 1_555
C68_4 C65_2 1_555 1_555
H47_4 C68_4 1_555 1_555
H48_2 C68_4 1_555 1_555
H49_4 C69_4 1_555 1_555
C70_4 C51_4 1_555 1_555
H50_4 C70_4 1_555 1_555
C71_4 C66_4 1_555 1_555
H51_4 C71_4 1_555 1_555
C73_4 H53_4 1_555 1_555
C74_4 C70_4 1_555 1_555
C75_4 N3_4 1_555 1_555
H55_4 C75_4 1_555 1_555
C76_4 C54_4 1_555 1_555
H56_4 C76_4 1_555 1_555
C78_4 C66_4 1_555 1_555
C80_4 C74_4 1_555 1_555
C83_4 N3_4 1_555 1_555
H60_4 C83_4 1_555 1_555
H61_4 C83_4 1_555 1_555
H62_4 C83_4 1_555 1_555
C84_4 C64_4 1_555 1_555
H63_4 C84_4 1_555 1_555
C85_4 C50_4 1_555 1_555
H64_4 C85_4 1_555 1_555
C86_4 N3_4 1_555 1_555
H65_4 C86_4 1_555 1_555
H66_4 C86_4 1_555 1_555
C64_4 C86_4 1_555 1_555
C69_4 C76_4 1_555 1_555
C73_4 C78_4 1_555 1_555
C73_4 C84_4 1_555 1_555
C78_4 C80_4 1_555 1_555
C80_4 C85_4 1_555 1_555
Tb4 O1_4 1_555 1_555
Tb8 O5_4 1_555 1_555
O1_4 C2_4 1_555 1_555
O19 C4_4 1_555 1_555
O21 C4_4 1_555 1_555
O23_2 C9_4 1_555 1_555
O5_4 C2_4 1_555 1_555
O25_2 C9_4 1_555 1_555
N1_4 C25_4 1_555 1_555
C1_4 H1_4 1_555 1_555
C2_4 C12_4 1_555 1_555
C3_4 H2_4 1_555 1_555
C4_4 C10_4 1_555 1_555
C5_4 C3_4 1_555 1_555
H3_4 C5_4 1_555 1_555
C6_4 C1_4 1_555 1_555
H4_4 C6_4 1_555 1_555
C9_4 C31_4 1_555 1_555
C10_4 C14_4 1_555 1_555
C11_4 C32_4 1_555 1_555
C12_4 C1_4 1_555 1_555
C13_4 H7_4 1_555 1_555
C14_4 C15_4 1_555 1_555
C15_4 H8_4 1_555 1_555
C16_4 C10_4 1_555 1_555
H9_4 C16_4 1_555 1_555
C17_4 C13_4 1_555 1_555
C18_4 H10_4 1_555 1_555
C19_4 C13_4 1_555 1_555
H11_4 C19_4 1_555 1_555
C20_4 C16_4 1_555 1_555
H12_4 C20_4 1_555 1_555
C21_4 C28_4 1_555 1_555
C22_4 C19_4 1_555 1_555
C23_4 H13_4 1_555 1_555
C24_4 C14_4 1_555 1_555
C25_4 C22_4 1_555 1_555
H14_4 C25_4 1_555 1_555
H15_4 C25_4 1_555 1_555
C26_4 C24_4 1_555 1_555
H16_4 C26_4 1_555 1_555
H17_4 C27_4 1_555 1_555
C28_4 C23_4 1_555 1_555
H18_4 C28_4 1_555 1_555
C29_4 C17_4 1_555 1_555
H19_4 C29_4 1_555 1_555
C30_4 H20_4 1_555 1_555
C31_4 C27_4 1_555 1_555
C32_4 N1_4 1_555 1_555
H21_4 C32_4 1_555 1_555
H22_4 C32_4 1_555 1_555
C33_4 C11_4 1_555 1_555
H23_4 C33_4 1_555 1_555
C34_4 C15_4 1_555 1_555
H24_4 C34_4 1_555 1_555
C35_4 C23_4 1_555 1_555
C36_4 C3_4 1_555 1_555
C37_4 C31_4 1_555 1_555
C38_4 C22_4 1_555 1_555
H25_4 C38_4 1_555 1_555
C39_4 C11_4 1_555 1_555
H26_4 C39_4 1_555 1_555
C40_4 N1_4 1_555 1_555
H27_4 C40_4 1_555 1_555
H28_4 C40_4 1_555 1_555
H29_4 C40_4 1_555 1_555
C41_4 C21_4 1_555 1_555
H30_4 C41_4 1_555 1_555
H31_4 C42_4 1_555 1_555
C43_4 N1_4 1_555 1_555
H32_4 C43_4 1_555 1_555
H33_4 C43_4 1_555 1_555
O7_4 Tb4 1_555 1_555
O8_4 Tb4 1_555 1_555
O9_4 N2_4 1_555 1_555
N2_4 O7_4 1_555 1_555
O10_4 Tb4 1_555 1_555
O14_4 Tb8 1_555 1_555
C44_4 H34_4 1_555 1_555
C45_4 O10_4 1_555 1_555
C46_4 H35_4 1_555 1_555
C48_4 C46_4 1_555 1_555
H36_4 C48_4 1_555 1_555
C49_4 C44_4 1_555 1_555
H37_4 C49_4 1_555 1_555
C55_4 C44_4 1_555 1_555
C56_4 H40_4 1_555 1_555
C57_4 C58_4 1_555 1_555
C58_4 H41_4 1_555 1_555
C60_4 C56_4 1_555 1_555
C61_4 H43_4 1_555 1_555
H45_4 C63_4 1_555 1_555
C67_4 C57_4 1_555 1_555
C72_4 C60_4 1_555 1_555
H52_4 C72_4 1_555 1_555
C77_4 C58_4 1_555 1_555
H57_4 C77_4 1_555 1_555
C79_4 C46_4 1_555 1_555
H58_4 C81_4 1_555 1_555
H59_4 C82_4 1_555 1_555
O16_4 Tb4 1_555 1_555
O17_4 Tb4 1_555 1_555
O18_4 N4_4 1_555 1_555
N4_4 O16_4 1_555 1_555
C5_4 C6_4 1_555 1_555
C12_4 C36_4 1_555 1_555
C17_4 C36_4 1_555 1_555
C18_4 C24_4 1_555 1_555
C18_4 C39_4 1_555 1_555
C20_4 C34_4 1_555 1_555
C21_4 C43_4 1_555 1_555
C26_4 C33_4 1_555 1_555
C29_4 C38_4 1_555 1_555
C30_4 C35_4 1_555 1_555
C30_4 C41_4 1_555 1_555
C35_4 C37_4 1_555 1_555
C37_4 C42_4 1_555 1_555
O8_4 N2_4 1_555 1_555
O14_4 C45_4 1_555 1_555
C45_4 C55_4 1_555 1_555
C48_4 C49_4 1_555 1_555
C55_4 C79_4 1_555 1_555
C60_4 C79_4 1_555 1_555
C61_4 C67_4 1_555 1_555
C61_4 C82_4 1_555 1_555
C63_4 C77_4 1_555 1_555
C72_4 C81_4 1_555 1_555
O17_4 N4_4 1_555 1_555
H44_3 C62_3 1_555 1_555
C65_3 C62_3 1_555 1_555
C7_2 H5_2 1_555 1_555
C8_2 C7_2 1_555 1_555
H6_2 C8_2 1_555 1_555
H44_4 C62_4 1_555 1_555
C65_4 C62_4 1_555 1_555
C7_3 H5_3 1_555 1_555
C8_3 C7_3 1_555 1_555
H6_3 C8_3 1_555 1_555
C7_4 H5_4 1_555 1_555
C8_4 C7_4 1_555 1_555
H6_4 C8_4 1_555 1_555

#END
