
###############################################################################
#
# This file contains modified crystal structure data generated from the
# MOF subset of the Cambridge Structural Database (CSD) v543 
# hosted by the Cambridge Crystallographic Data Centre (CCDC).
#
# This work is licensed under the Creative Commons
# Attribution-NonCommercial-ShareAlike 4.0 International License.
# To view a copy of this license, visit
# http://creativecommons.org/licenses/by-nc-sa/4.0/
# or send a letter to
# Creative Commons, PO Box 1866, Mountain View, CA 94042, USA.
#
# CIF created using the CSD Python API on 29 September 2022
# The structure has been converted into the P1 space group
# The structure has a 3D framework
# The original CSD entry YAQBEB is in the tetragonal crystal system
# The framework has been calculated to contain at least 10.0% void space
# The void calculation uses a probe of radius 1.32A, grid spacing 0.4
# The framework is charged, counterions have been retained in the structure
#
###############################################################################

data_YAQBEB
_chemical_formula_moiety         '(C140 H98 N12 O110 Y27 8-)n'
_symmetry_cell_setting           triclinic
_symmetry_space_group_name_H-M   'P 1'
_symmetry_Int_Tables_number      1
_space_group_name_Hall           'P 1'
loop_
_symmetry_equiv_pos_site_id
_symmetry_equiv_pos_as_xyz
1 x,y,z
_cell_length_a                   20.9961(10)
_cell_length_b                   20.9961(10)
_cell_length_c                   16.1552(11)
_cell_angle_alpha                90
_cell_angle_beta                 90
_cell_angle_gamma                90
_cell_volume                     7121.8
loop_
_atom_site_label
_atom_site_type_symbol
_atom_site_fract_x
_atom_site_fract_y
_atom_site_fract_z
Y1 Y 0.500000 0.500000 0.33627(8)
Y2 Y 0.47401(6) 0.36980(6) 0.500000
Y3 Y 0.500000 0.000000 0.250000
O1 O 0.3678(6) 0.3380(6) 0.500000
O2 O 0.4264(8) 0.2514(8) 0.500000
O3 O 0.4687(4) 0.3294(3) 0.3666(4)
O4 O 0.4779(4) 0.4065(3) 0.2699(4)
O5 O 0.4800(5) 0.1064(4) 0.2797(4)
O6 O 0.4858(4) 0.0803(4) 0.1474(4)
O7 O 0.5591(7) 0.2983(6) 0.500000
H1 H 0.554751 0.262398 0.461489
O8 O 0.5480(3) 0.4279(3) 0.4243(3)
H2 H 0.570065 0.401053 0.394985
N1 N 0.4764(9) 0.2994(8) 0.000000
H3 H 0.480592 0.341065 0.000000
C1 C 0.3719(13) 0.2783(10) 0.500000
H4 H 0.334500 0.252802 0.500000
C2 C 0.4724(5) 0.3493(5) 0.2930(5)
C3 C 0.4712(6) 0.3001(5) 0.2256(6)
C4 C 0.4730(7) 0.3182(5) 0.1436(6)
H5 H 0.473714 0.362282 0.130371
C5 C 0.4739(7) 0.2743(6) 0.0802(6)
C6 C 0.4757(7) 0.2111(5) 0.1000(6)
H6 H 0.481807 0.175491 0.064545
C7 C 0.4752(6) 0.1918(5) 0.1817(6)
C8 C 0.4734(6) 0.2359(5) 0.2456(5)
H7 H 0.473599 0.222398 0.301730
C9 C 0.4797(6) 0.1221(5) 0.2026(6)
H11 H 0.554751 0.262398 0.538511
O25 O 0.5721(3) 0.5480(3) 0.4243(3)
H23 H 0.598947 0.570065 0.394985
O26 O 0.4279(3) 0.4520(3) 0.4243(3)
H24 H 0.401053 0.429935 0.394985
Y10 Y 0.52599(6) 0.63020(6) 0.500000
Y11 Y 0.63020(6) 0.47401(6) 0.500000
Y13 Y 0.36980(6) 0.52599(6) 0.500000
O28 O 0.4687(4) 0.3294(3) 0.6334(4)
O29 O 0.5221(4) 0.5935(3) 0.2699(4)
O30 O 0.5935(3) 0.4779(4) 0.2699(4)
O31 O 0.4065(3) 0.5221(4) 0.2699(4)
O32 O 0.6064(4) 0.0200(5) 0.2203(4)
O34 O 0.5803(4) 0.0142(4) 0.3526(4)
O36 O 0.4520(3) 0.5721(3) 0.4243(3)
O39 O 0.5480(3) 0.4279(3) 0.5757(3)
O40 O 0.4279(3) 0.4520(3) 0.5757(3)
N1_2 N 0.4764(9) 0.2994(8) 1.000000
H3_2 H 0.480592 0.341065 1.000000
O10 O 0.4779(4) 0.4065(3) 0.7301(4)
O11 O 0.4800(5) 0.1064(4) 0.7203(4)
O12 O 0.4858(4) 0.0803(4) 0.8526(4)
C10 C 0.4724(5) 0.3493(5) 0.7070(5)
C11 C 0.4712(6) 0.3001(5) 0.7744(6)
C12 C 0.4730(7) 0.3182(5) 0.8564(6)
H8 H 0.473714 0.362282 0.869629
C13 C 0.4739(7) 0.2743(6) 0.9198(6)
C14 C 0.4757(7) 0.2111(5) 0.9000(6)
H9 H 0.481807 0.175491 0.935455
C15 C 0.4752(6) 0.1918(5) 0.8183(6)
C16 C 0.4734(6) 0.2359(5) 0.7544(5)
H10 H 0.473599 0.222398 0.698270
C17 C 0.4797(6) 0.1221(5) 0.7974(6)
Y7 Y 0.500000 0.500000 0.66373(8)
Y14 Y 0.500000 0.000000 0.750000
Y3_2 Y 0.500000 1.000000 0.250000
O13 O 0.6322(6) 0.6620(6) 0.500000
O14 O 0.5736(8) 0.7486(8) 0.500000
O15 O 0.5313(4) 0.6706(3) 0.3666(4)
O17 O 0.5200(5) 0.8936(4) 0.2797(4)
O18 O 0.5142(4) 0.9197(4) 0.1474(4)
O19 O 0.4409(7) 0.7017(6) 0.500000
H12 H 0.445249 0.737602 0.461489
H13 H 0.429935 0.598947 0.394985
N2 N 0.5236(9) 0.7006(8) 0.000000
H14 H 0.519408 0.658935 0.000000
C18 C 0.6281(13) 0.7217(10) 0.500000
H15 H 0.665500 0.747198 0.500000
C19 C 0.5276(5) 0.6507(5) 0.2930(5)
C20 C 0.5288(6) 0.6999(5) 0.2256(6)
C21 C 0.5270(7) 0.6818(5) 0.1436(6)
H16 H 0.526286 0.637718 0.130371
C22 C 0.5261(7) 0.7257(6) 0.0802(6)
C23 C 0.5243(7) 0.7889(5) 0.1000(6)
H17 H 0.518193 0.824509 0.064545
C24 C 0.5248(6) 0.8082(5) 0.1817(6)
C25 C 0.5266(6) 0.7641(5) 0.2456(5)
H18 H 0.526401 0.777602 0.301730
C26 C 0.5203(6) 0.8779(5) 0.2026(6)
H22 H 0.445249 0.737602 0.538511
O27 O 0.5313(4) 0.6706(3) 0.6334(4)
O33 O 0.3936(4) 0.9800(5) 0.2203(4)
O35 O 0.4197(4) 0.9858(4) 0.3526(4)
O38 O 0.4520(3) 0.5721(3) 0.5757(3)
O41 O 0.5721(3) 0.5480(3) 0.5757(3)
N2_2 N 0.5236(9) 0.7006(8) 1.000000
H14_2 H 0.519408 0.658935 1.000000
O22 O 0.5221(4) 0.5935(3) 0.7301(4)
O23 O 0.5200(5) 0.8936(4) 0.7203(4)
O24 O 0.5142(4) 0.9197(4) 0.8526(4)
C27 C 0.5276(5) 0.6507(5) 0.7070(5)
C28 C 0.5288(6) 0.6999(5) 0.7744(6)
C29 C 0.5270(7) 0.6818(5) 0.8564(6)
H19 H 0.526286 0.637718 0.869629
C30 C 0.5261(7) 0.7257(6) 0.9198(6)
C31 C 0.5243(7) 0.7889(5) 0.9000(6)
H20 H 0.518193 0.824509 0.935455
C32 C 0.5248(6) 0.8082(5) 0.8183(6)
C33 C 0.5266(6) 0.7641(5) 0.7544(5)
H21 H 0.526401 0.777602 0.698270
C34 C 0.5203(6) 0.8779(5) 0.7974(6)
Y14_2 Y 0.500000 1.000000 0.750000
Y3_3 Y -0.000000 0.500000 0.250000
O13_2 O 0.3380(6) 0.6322(6) 0.500000
O14_2 O 0.2514(8) 0.5736(8) 0.500000
O15_2 O 0.3294(3) 0.5313(4) 0.3666(4)
O17_2 O 0.1064(4) 0.5200(5) 0.2797(4)
O18_2 O 0.0803(4) 0.5142(4) 0.1474(4)
O19_2 O 0.2983(6) 0.4409(7) 0.500000
H12_2 H 0.262398 0.445249 0.461489
N2_3 N 0.2994(8) 0.5236(9) 0.000000
H14_3 H 0.341065 0.519408 0.000000
C18_2 C 0.2783(10) 0.6281(13) 0.500000
H15_2 H 0.252802 0.665500 0.500000
C19_2 C 0.3493(5) 0.5276(5) 0.2930(5)
C20_2 C 0.3001(5) 0.5288(6) 0.2256(6)
C21_2 C 0.3182(5) 0.5270(7) 0.1436(6)
H16_2 H 0.362282 0.526286 0.130371
C22_2 C 0.2743(6) 0.5261(7) 0.0802(6)
C23_2 C 0.2111(5) 0.5243(7) 0.1000(6)
H17_2 H 0.175491 0.518193 0.064545
C24_2 C 0.1918(5) 0.5248(6) 0.1817(6)
C25_2 C 0.2359(5) 0.5266(6) 0.2456(5)
H18_2 H 0.222398 0.526401 0.301730
C26_2 C 0.1221(5) 0.5203(6) 0.2026(6)
H22_2 H 0.262398 0.445249 0.538511
O27_2 O 0.3294(3) 0.5313(4) 0.6334(4)
O33_2 O 0.0200(5) 0.3936(4) 0.2203(4)
O35_2 O 0.0142(4) 0.4197(4) 0.3526(4)
N2_4 N 0.2994(8) 0.5236(9) 1.000000
H14_4 H 0.341065 0.519408 1.000000
O22_2 O 0.4065(3) 0.5221(4) 0.7301(4)
O23_2 O 0.1064(4) 0.5200(5) 0.7203(4)
O24_2 O 0.0803(4) 0.5142(4) 0.8526(4)
C27_2 C 0.3493(5) 0.5276(5) 0.7070(5)
C28_2 C 0.3001(5) 0.5288(6) 0.7744(6)
C29_2 C 0.3182(5) 0.5270(7) 0.8564(6)
H19_2 H 0.362282 0.526286 0.869629
C30_2 C 0.2743(6) 0.5261(7) 0.9198(6)
C31_2 C 0.2111(5) 0.5243(7) 0.9000(6)
H20_2 H 0.175491 0.518193 0.935455
C32_2 C 0.1918(5) 0.5248(6) 0.8183(6)
C33_2 C 0.2359(5) 0.5266(6) 0.7544(5)
H21_2 H 0.222398 0.526401 0.698270
C34_2 C 0.1221(5) 0.5203(6) 0.7974(6)
Y14_3 Y -0.000000 0.500000 0.750000
Y3_4 Y 1.000000 0.500000 0.250000
O1_2 O 0.6620(6) 0.3678(6) 0.500000
O2_2 O 0.7486(8) 0.4264(8) 0.500000
O3_2 O 0.6706(3) 0.4687(4) 0.3666(4)
O5_2 O 0.8936(4) 0.4800(5) 0.2797(4)
O6_2 O 0.9197(4) 0.4858(4) 0.1474(4)
O7_2 O 0.7017(6) 0.5591(7) 0.500000
H1_2 H 0.737602 0.554751 0.461489
N1_3 N 0.7006(8) 0.4764(9) 0.000000
H3_3 H 0.658935 0.480592 0.000000
C1_2 C 0.7217(10) 0.3719(13) 0.500000
H4_2 H 0.747198 0.334500 0.500000
C2_2 C 0.6507(5) 0.4724(5) 0.2930(5)
C3_2 C 0.6999(5) 0.4712(6) 0.2256(6)
C4_2 C 0.6818(5) 0.4730(7) 0.1436(6)
H5_2 H 0.637718 0.473714 0.130371
C5_2 C 0.7257(6) 0.4739(7) 0.0802(6)
C6_2 C 0.7889(5) 0.4757(7) 0.1000(6)
H6_2 H 0.824509 0.481807 0.064545
C7_2 C 0.8082(5) 0.4752(6) 0.1817(6)
C8_2 C 0.7641(5) 0.4734(6) 0.2456(5)
H7_2 H 0.777602 0.473599 0.301730
C9_2 C 0.8779(5) 0.4797(6) 0.2026(6)
H11_2 H 0.737602 0.554751 0.538511
O28_2 O 0.6706(3) 0.4687(4) 0.6334(4)
O32_2 O 0.9800(5) 0.6064(4) 0.2203(4)
O34_2 O 0.9858(4) 0.5803(4) 0.3526(4)
N1_4 N 0.7006(8) 0.4764(9) 1.000000
H3_4 H 0.658935 0.480592 1.000000
O10_2 O 0.5935(3) 0.4779(4) 0.7301(4)
O11_2 O 0.8936(4) 0.4800(5) 0.7203(4)
O12_2 O 0.9197(4) 0.4858(4) 0.8526(4)
C10_2 C 0.6507(5) 0.4724(5) 0.7070(5)
C11_2 C 0.6999(5) 0.4712(6) 0.7744(6)
C12_2 C 0.6818(5) 0.4730(7) 0.8564(6)
H8_2 H 0.637718 0.473714 0.869629
C13_2 C 0.7257(6) 0.4739(7) 0.9198(6)
C14_2 C 0.7889(5) 0.4757(7) 0.9000(6)
H9_2 H 0.824509 0.481807 0.935455
C15_2 C 0.8082(5) 0.4752(6) 0.8183(6)
C16_2 C 0.7641(5) 0.4734(6) 0.7544(5)
H10_2 H 0.777602 0.473599 0.698270
C17_2 C 0.8779(5) 0.4797(6) 0.7974(6)
Y14_4 Y 1.000000 0.500000 0.750000
Y10_2 Y 0.02599(6) 0.13020(6) 0.000000
Y1_2 Y -0.000000 0.000000 0.83627(8)
O25_2 O 0.0721(3) 0.0480(3) 0.9243(3)
H23_2 H 0.098947 0.070065 0.894985
Y7_2 Y -0.000000 0.000000 0.16373(8)
Y10_3 Y 0.02599(6) 0.13020(6) 1.000000
O29_2 O 0.0221(4) 0.0935(3) 0.7699(4)
O7_3 O 0.0591(7) 0.7983(6) 0.000000
H11_3 H 0.054751 0.762398 0.038511
O13_3 O 0.1322(6) 0.1620(6) 0.000000
O14_3 O 0.0736(8) 0.2486(8) 0.000000
C18_3 C 0.1281(13) 0.2217(10) 0.000000
H15_3 H 0.165500 0.247198 0.000000
Y11_2 Y 0.13020(6) 0.97401(6) 0.000000
O27_3 O 0.0313(4) 0.1706(3) 0.1334(4)
O39_2 O 0.0480(3) 0.9279(3) 0.0757(3)
O41_2 O 0.0721(3) 0.0480(3) 0.0757(3)
Y1_3 Y -0.000000 1.000000 0.83627(8)
O7_4 O 0.0591(7) 0.7983(6) 1.000000
H1_3 H 0.054751 0.762398 0.961489
O8_2 O 0.0480(3) 0.9279(3) 0.9243(3)
H2_2 H 0.070065 0.901053 0.894985
O13_4 O 0.1322(6) 0.1620(6) 1.000000
O14_4 O 0.0736(8) 0.2486(8) 1.000000
O15_3 O 0.0313(4) 0.1706(3) 0.8666(4)
O17_3 O 0.0200(5) 0.3936(4) 0.7797(4)
O18_3 O 0.0142(4) 0.4197(4) 0.6474(4)
N2_5 N 0.0236(9) 0.2006(8) 0.500000
H14_5 H 0.019408 0.158935 0.500000
C18_4 C 0.1281(13) 0.2217(10) 1.000000
H15_4 H 0.165500 0.247198 1.000000
C19_3 C 0.0276(5) 0.1507(5) 0.7930(5)
C20_3 C 0.0288(6) 0.1999(5) 0.7256(6)
C21_3 C 0.0270(7) 0.1818(5) 0.6436(6)
H16_3 H 0.026286 0.137718 0.630371
C22_3 C 0.0261(7) 0.2257(6) 0.5802(6)
C23_3 C 0.0243(7) 0.2889(5) 0.6000(6)
H17_3 H 0.018193 0.324509 0.564545
C24_3 C 0.0248(6) 0.3082(5) 0.6817(6)
C25_3 C 0.0266(6) 0.2641(5) 0.7456(5)
H18_3 H 0.026401 0.277602 0.801730
C26_3 C 0.0203(6) 0.3779(5) 0.7026(6)
O22_3 O 0.0221(4) 0.0935(3) 0.2301(4)
C27_3 C 0.0276(5) 0.1507(5) 0.2070(5)
C28_3 C 0.0288(6) 0.1999(5) 0.2744(6)
C29_3 C 0.0270(7) 0.1818(5) 0.3564(6)
H19_3 H 0.026286 0.137718 0.369629
C30_3 C 0.0261(7) 0.2257(6) 0.4198(6)
C31_3 C 0.0243(7) 0.2889(5) 0.4000(6)
H20_3 H 0.018193 0.324509 0.435455
C32_3 C 0.0248(6) 0.3082(5) 0.3183(6)
C33_3 C 0.0266(6) 0.2641(5) 0.2544(5)
H21_3 H 0.026401 0.277602 0.198270
C34_3 C 0.0203(6) 0.3779(5) 0.2974(6)
Y7_3 Y -0.000000 1.000000 0.16373(8)
Y11_3 Y 0.13020(6) 0.97401(6) 1.000000
O30_2 O 0.0935(3) 0.9779(4) 0.7699(4)
Y13_2 Y 0.86980(6) 0.02599(6) 0.000000
Y1_4 Y 1.000000 0.000000 0.83627(8)
Y7_4 Y 1.000000 0.000000 0.16373(8)
Y13_3 Y 0.86980(6) 0.02599(6) 1.000000
O31_2 O 0.9065(3) 0.0221(4) 0.7699(4)
O36_2 O 0.9520(3) 0.0721(3) 0.9243(3)
Y2_2 Y 0.97401(6) 0.86980(6) 0.000000
O1_3 O 0.8678(6) 0.8380(6) 0.000000
O2_3 O 0.9264(8) 0.7514(8) 0.000000
C1_3 C 0.8719(13) 0.7783(10) 0.000000
H4_3 H 0.834500 0.752802 0.000000
O19_3 O 0.9409(7) 0.2017(6) 0.000000
H22_3 H 0.945249 0.237602 0.038511
O28_3 O 0.9687(4) 0.8294(3) 0.1334(4)
O38_2 O 0.9520(3) 0.0721(3) 0.0757(3)
O40_2 O 0.9279(3) 0.9520(3) 0.0757(3)
Y1_5 Y 1.000000 1.000000 0.83627(8)
Y2_3 Y 0.97401(6) 0.86980(6) 1.000000
O1_4 O 0.8678(6) 0.8380(6) 1.000000
O2_4 O 0.9264(8) 0.7514(8) 1.000000
O3_3 O 0.9687(4) 0.8294(3) 0.8666(4)
O4_2 O 0.9779(4) 0.9065(3) 0.7699(4)
O5_3 O 0.9800(5) 0.6064(4) 0.7797(4)
O6_3 O 0.9858(4) 0.5803(4) 0.6474(4)
N1_5 N 0.9764(9) 0.7994(8) 0.500000
H3_5 H 0.980592 0.841065 0.500000
C1_4 C 0.8719(13) 0.7783(10) 1.000000
H4_4 H 0.834500 0.752802 1.000000
C2_3 C 0.9724(5) 0.8493(5) 0.7930(5)
C3_3 C 0.9712(6) 0.8001(5) 0.7256(6)
C4_3 C 0.9730(7) 0.8182(5) 0.6436(6)
H5_3 H 0.973714 0.862282 0.630371
C5_3 C 0.9739(7) 0.7743(6) 0.5802(6)
C6_3 C 0.9757(7) 0.7111(5) 0.6000(6)
H6_3 H 0.981807 0.675491 0.564545
C7_3 C 0.9752(6) 0.6918(5) 0.6817(6)
C8_3 C 0.9734(6) 0.7359(5) 0.7456(5)
H7_3 H 0.973599 0.722398 0.801730
C9_3 C 0.9797(6) 0.6221(5) 0.7026(6)
O10_3 O 0.9779(4) 0.9065(3) 0.2301(4)
C10_3 C 0.9724(5) 0.8493(5) 0.2070(5)
C11_3 C 0.9712(6) 0.8001(5) 0.2744(6)
C12_3 C 0.9730(7) 0.8182(5) 0.3564(6)
H8_3 H 0.973714 0.862282 0.369629
C13_3 C 0.9739(7) 0.7743(6) 0.4198(6)
C14_3 C 0.9757(7) 0.7111(5) 0.4000(6)
H9_3 H 0.981807 0.675491 0.435455
C15_3 C 0.9752(6) 0.6918(5) 0.3183(6)
C16_3 C 0.9734(6) 0.7359(5) 0.2544(5)
H10_3 H 0.973599 0.722398 0.198270
C17_3 C 0.9797(6) 0.6221(5) 0.2974(6)
O19_4 O 0.9409(7) 0.2017(6) 1.000000
H12_3 H 0.945249 0.237602 0.961489
H13_2 H 0.929935 0.098947 0.894985
O26_2 O 0.9279(3) 0.9520(3) 0.9243(3)
H24_2 H 0.901053 0.929935 0.894985
Y7_5 Y 1.000000 1.000000 0.16373(8)
O7_5 O 0.2017(6) 0.0591(7) 0.000000
H11_4 H 0.237602 0.054751 0.038511
O13_5 O 0.8380(6) 0.1322(6) 0.000000
O14_5 O 0.7514(8) 0.0736(8) 0.000000
C18_5 C 0.7783(10) 0.1281(13) 0.000000
H15_5 H 0.752802 0.165500 0.000000
O27_4 O 0.8294(3) 0.0313(4) 0.1334(4)
O7_6 O 0.2017(6) 0.0591(7) 1.000000
H1_4 H 0.237602 0.054751 0.961489
O13_6 O 0.8380(6) 0.1322(6) 1.000000
O14_6 O 0.7514(8) 0.0736(8) 1.000000
O15_4 O 0.8294(3) 0.0313(4) 0.8666(4)
O17_4 O 0.6064(4) 0.0200(5) 0.7797(4)
O18_4 O 0.5803(4) 0.0142(4) 0.6474(4)
N2_6 N 0.7994(8) 0.0236(9) 0.500000
H14_6 H 0.841065 0.019408 0.500000
C18_6 C 0.7783(10) 0.1281(13) 1.000000
H15_6 H 0.752802 0.165500 1.000000
C19_4 C 0.8493(5) 0.0276(5) 0.7930(5)
C20_4 C 0.8001(5) 0.0288(6) 0.7256(6)
C21_4 C 0.8182(5) 0.0270(7) 0.6436(6)
H16_4 H 0.862282 0.026286 0.630371
C22_4 C 0.7743(6) 0.0261(7) 0.5802(6)
C23_4 C 0.7111(5) 0.0243(7) 0.6000(6)
H17_4 H 0.675491 0.018193 0.564545
C24_4 C 0.6918(5) 0.0248(6) 0.6817(6)
C25_4 C 0.7359(5) 0.0266(6) 0.7456(5)
H18_4 H 0.722398 0.026401 0.801730
C26_4 C 0.6221(5) 0.0203(6) 0.7026(6)
O22_4 O 0.9065(3) 0.0221(4) 0.2301(4)
C27_4 C 0.8493(5) 0.0276(5) 0.2070(5)
C28_4 C 0.8001(5) 0.0288(6) 0.2744(6)
C29_4 C 0.8182(5) 0.0270(7) 0.3564(6)
H19_4 H 0.862282 0.026286 0.369629
C30_4 C 0.7743(6) 0.0261(7) 0.4198(6)
C31_4 C 0.7111(5) 0.0243(7) 0.4000(6)
H20_4 H 0.675491 0.018193 0.435455
C32_4 C 0.6918(5) 0.0248(6) 0.3183(6)
C33_4 C 0.7359(5) 0.0266(6) 0.2544(5)
H21_4 H 0.722398 0.026401 0.198270
C34_4 C 0.6221(5) 0.0203(6) 0.2974(6)
O1_5 O 0.1620(6) 0.8678(6) 0.000000
O2_5 O 0.2486(8) 0.9264(8) 0.000000
C1_5 C 0.2217(10) 0.8719(13) 0.000000
H4_5 H 0.247198 0.834500 0.000000
O19_5 O 0.7983(6) 0.9409(7) 0.000000
H22_4 H 0.762398 0.945249 0.038511
O28_4 O 0.1706(3) 0.9687(4) 0.1334(4)
O1_6 O 0.1620(6) 0.8678(6) 1.000000
O2_6 O 0.2486(8) 0.9264(8) 1.000000
O3_4 O 0.1706(3) 0.9687(4) 0.8666(4)
O5_4 O 0.3936(4) 0.9800(5) 0.7797(4)
O6_4 O 0.4197(4) 0.9858(4) 0.6474(4)
N1_6 N 0.2006(8) 0.9764(9) 0.500000
H3_6 H 0.158935 0.980592 0.500000
C1_6 C 0.2217(10) 0.8719(13) 1.000000
H4_6 H 0.247198 0.834500 1.000000
C2_4 C 0.1507(5) 0.9724(5) 0.7930(5)
C3_4 C 0.1999(5) 0.9712(6) 0.7256(6)
C4_4 C 0.1818(5) 0.9730(7) 0.6436(6)
H5_4 H 0.137718 0.973714 0.630371
C5_4 C 0.2257(6) 0.9739(7) 0.5802(6)
C6_4 C 0.2889(5) 0.9757(7) 0.6000(6)
H6_4 H 0.324509 0.981807 0.564545
C7_4 C 0.3082(5) 0.9752(6) 0.6817(6)
C8_4 C 0.2641(5) 0.9734(6) 0.7456(5)
H7_4 H 0.277602 0.973599 0.801730
C9_4 C 0.3779(5) 0.9797(6) 0.7026(6)
O10_4 O 0.0935(3) 0.9779(4) 0.2301(4)
C10_4 C 0.1507(5) 0.9724(5) 0.2070(5)
C11_4 C 0.1999(5) 0.9712(6) 0.2744(6)
C12_4 C 0.1818(5) 0.9730(7) 0.3564(6)
H8_4 H 0.137718 0.973714 0.369629
C13_4 C 0.2257(6) 0.9739(7) 0.4198(6)
C14_4 C 0.2889(5) 0.9757(7) 0.4000(6)
H9_4 H 0.324509 0.981807 0.435455
C15_4 C 0.3082(5) 0.9752(6) 0.3183(6)
C16_4 C 0.2641(5) 0.9734(6) 0.2544(5)
H10_4 H 0.277602 0.973599 0.198270
C17_4 C 0.3779(5) 0.9797(6) 0.2974(6)
O19_6 O 0.7983(6) 0.9409(7) 1.000000
H12_4 H 0.762398 0.945249 0.961489
H13_3 H 0.570065 0.401053 0.605015
H2_3 H 0.429935 0.598947 0.605015
H23_3 H 0.401053 0.429935 0.605015
H24_3 H 0.598947 0.570065 0.605015
H13_4 H 0.070065 0.901053 0.105015
H24_4 H 0.098947 0.070065 0.105015
H2_4 H 0.929935 0.098947 0.105015
H23_4 H 0.901053 0.929935 0.105015
loop_
_geom_bond_atom_site_label_1
_geom_bond_atom_site_label_2
_geom_bond_site_symmetry_1
_geom_bond_site_symmetry_2
Y1 O4 1_555 1_555
Y2 O1 1_555 1_555
Y3 O5 1_555 1_555
O1 C1 1_555 1_555
O2 Y2 1_555 1_555
O3 Y2 1_555 1_555
O4 C2 1_555 1_555
O5 C9 1_555 1_555
O6 Y3 1_555 1_555
O7 Y2 1_555 1_555
H1 O7 1_555 1_555
O8 Y1 1_555 1_555
H2 O8 1_555 1_555
N1 H3 1_555 1_555
C1 O2 1_555 1_555
H4 C1 1_555 1_555
C2 O3 1_555 1_555
C3 C2 1_555 1_555
C4 C3 1_555 1_555
H5 C4 1_555 1_555
C5 N1 1_555 1_555
C6 C5 1_555 1_555
H6 C6 1_555 1_555
C7 C6 1_555 1_555
C8 C3 1_555 1_555
H7 C8 1_555 1_555
C9 O6 1_555 1_555
H11 O7 1_555 1_555
O25 Y1 1_555 1_555
H23 O25 1_555 1_555
O26 Y1 1_555 1_555
H24 O26 1_555 1_555
Y10 O25 1_555 1_555
Y11 O8 1_555 1_555
Y13 O26 1_555 1_555
O28 Y2 1_555 1_555
O29 Y1 1_555 1_555
O30 Y1 1_555 1_555
O31 Y1 1_555 1_555
O32 Y3 1_555 1_555
O34 Y3 1_555 1_555
O36 Y1 1_555 1_555
O39 Y2 1_555 1_555
O40 Y2 1_555 1_555
Y2 O8 1_555 1_555
Y2 O26 1_555 1_555
C4 C5 1_555 1_555
C7 C8 1_555 1_555
C7 C9 1_555 1_555
O25 Y11 1_555 1_555
Y10 O36 1_555 1_555
Y11 O39 1_555 1_555
Y13 O36 1_555 1_555
Y13 O40 1_555 1_555
N1_2 H3_2 1_555 1_555
O28 C10 1_555 1_555
O10 C10 1_555 1_555
O11 C17 1_555 1_555
O12 C17 1_555 1_555
C10 C11 1_555 1_555
C11 C12 1_555 1_555
C12 H8 1_555 1_555
C13 N1_2 1_555 1_555
C14 C13 1_555 1_555
H9 C14 1_555 1_555
C15 C14 1_555 1_555
C16 C11 1_555 1_555
H10 C16 1_555 1_555
C17 C15 1_555 1_555
Y7 O10 1_555 1_555
Y14 O11 1_555 1_555
O12 Y14 1_555 1_555
C12 C13 1_555 1_555
C15 C16 1_555 1_555
Y10 O13 1_555 1_555
O13 C18 1_555 1_555
O14 Y10 1_555 1_555
O15 Y10 1_555 1_555
O29 C19 1_555 1_555
O17 Y3_2 1_555 1_555
O18 Y3_2 1_555 1_555
O19 Y10 1_555 1_555
H12 O19 1_555 1_555
H13 O36 1_555 1_555
N2 H14 1_555 1_555
C18 O14 1_555 1_555
H15 C18 1_555 1_555
C19 O15 1_555 1_555
C20 C19 1_555 1_555
C21 C20 1_555 1_555
H16 C21 1_555 1_555
C22 N2 1_555 1_555
C23 C22 1_555 1_555
H17 C23 1_555 1_555
C24 C23 1_555 1_555
C25 C20 1_555 1_555
H18 C25 1_555 1_555
C26 O17 1_555 1_555
H22 O19 1_555 1_555
O27 Y10 1_555 1_555
O33 Y3_2 1_555 1_555
O35 Y3_2 1_555 1_555
O38 Y10 1_555 1_555
O41 Y10 1_555 1_555
O18 C26 1_555 1_555
C21 C22 1_555 1_555
C24 C25 1_555 1_555
C24 C26 1_555 1_555
Y13 O38 1_555 1_555
N2_2 H14_2 1_555 1_555
O27 C27 1_555 1_555
O22 C27 1_555 1_555
O23 C34 1_555 1_555
O24 C34 1_555 1_555
C27 C28 1_555 1_555
C28 C29 1_555 1_555
C29 H19 1_555 1_555
C30 N2_2 1_555 1_555
C31 C30 1_555 1_555
H20 C31 1_555 1_555
C32 C31 1_555 1_555
C33 C28 1_555 1_555
H21 C33 1_555 1_555
C34 C32 1_555 1_555
Y7 O22 1_555 1_555
O23 Y14_2 1_555 1_555
O24 Y14_2 1_555 1_555
C29 C30 1_555 1_555
C32 C33 1_555 1_555
Y11 O41 1_555 1_555
Y13 O13_2 1_555 1_555
O13_2 C18_2 1_555 1_555
O14_2 Y13 1_555 1_555
O15_2 Y13 1_555 1_555
O31 C19_2 1_555 1_555
O17_2 Y3_3 1_555 1_555
O18_2 Y3_3 1_555 1_555
O19_2 Y13 1_555 1_555
H12_2 O19_2 1_555 1_555
N2_3 H14_3 1_555 1_555
C18_2 O14_2 1_555 1_555
H15_2 C18_2 1_555 1_555
C19_2 O15_2 1_555 1_555
C20_2 C19_2 1_555 1_555
C21_2 C20_2 1_555 1_555
H16_2 C21_2 1_555 1_555
C22_2 N2_3 1_555 1_555
C23_2 C22_2 1_555 1_555
H17_2 C23_2 1_555 1_555
C24_2 C23_2 1_555 1_555
C25_2 C20_2 1_555 1_555
H18_2 C25_2 1_555 1_555
C26_2 O17_2 1_555 1_555
H22_2 O19_2 1_555 1_555
O27_2 Y13 1_555 1_555
O33_2 Y3_3 1_555 1_555
O35_2 Y3_3 1_555 1_555
O18_2 C26_2 1_555 1_555
C21_2 C22_2 1_555 1_555
C24_2 C25_2 1_555 1_555
C24_2 C26_2 1_555 1_555
N2_4 H14_4 1_555 1_555
O27_2 C27_2 1_555 1_555
O22_2 C27_2 1_555 1_555
O23_2 C34_2 1_555 1_555
O24_2 C34_2 1_555 1_555
C27_2 C28_2 1_555 1_555
C28_2 C29_2 1_555 1_555
C29_2 H19_2 1_555 1_555
C30_2 N2_4 1_555 1_555
C31_2 C30_2 1_555 1_555
H20_2 C31_2 1_555 1_555
C32_2 C31_2 1_555 1_555
C33_2 C28_2 1_555 1_555
H21_2 C33_2 1_555 1_555
C34_2 C32_2 1_555 1_555
Y7 O22_2 1_555 1_555
O23_2 Y14_3 1_555 1_555
O24_2 Y14_3 1_555 1_555
C29_2 C30_2 1_555 1_555
C32_2 C33_2 1_555 1_555
Y11 O1_2 1_555 1_555
Y3_4 O5_2 1_555 1_555
O1_2 C1_2 1_555 1_555
O2_2 Y11 1_555 1_555
O3_2 Y11 1_555 1_555
O30 C2_2 1_555 1_555
O5_2 C9_2 1_555 1_555
O6_2 Y3_4 1_555 1_555
O7_2 Y11 1_555 1_555
H1_2 O7_2 1_555 1_555
N1_3 H3_3 1_555 1_555
C1_2 O2_2 1_555 1_555
H4_2 C1_2 1_555 1_555
C2_2 O3_2 1_555 1_555
C3_2 C2_2 1_555 1_555
C4_2 C3_2 1_555 1_555
H5_2 C4_2 1_555 1_555
C5_2 N1_3 1_555 1_555
C6_2 C5_2 1_555 1_555
H6_2 C6_2 1_555 1_555
C7_2 C6_2 1_555 1_555
C8_2 C3_2 1_555 1_555
H7_2 C8_2 1_555 1_555
C9_2 O6_2 1_555 1_555
H11_2 O7_2 1_555 1_555
O28_2 Y11 1_555 1_555
O32_2 Y3_4 1_555 1_555
O34_2 Y3_4 1_555 1_555
C4_2 C5_2 1_555 1_555
C7_2 C8_2 1_555 1_555
C7_2 C9_2 1_555 1_555
N1_4 H3_4 1_555 1_555
O28_2 C10_2 1_555 1_555
O10_2 C10_2 1_555 1_555
O11_2 C17_2 1_555 1_555
O12_2 C17_2 1_555 1_555
C10_2 C11_2 1_555 1_555
C11_2 C12_2 1_555 1_555
C12_2 H8_2 1_555 1_555
C13_2 N1_4 1_555 1_555
C14_2 C13_2 1_555 1_555
H9_2 C14_2 1_555 1_555
C15_2 C14_2 1_555 1_555
C16_2 C11_2 1_555 1_555
H10_2 C16_2 1_555 1_555
C17_2 C15_2 1_555 1_555
Y7 O10_2 1_555 1_555
Y14_4 O11_2 1_555 1_555
O12_2 Y14_4 1_555 1_555
C12_2 C13_2 1_555 1_555
C15_2 C16_2 1_555 1_555
O25_2 Y1_2 1_555 1_555
H23_2 O25_2 1_555 1_555
Y10_3 O25_2 1_555 1_555
O29_2 Y1_2 1_555 1_555
H11_3 O7_3 1_555 1_555
Y10_2 O13_3 1_555 1_555
O13_3 C18_3 1_555 1_555
O14_3 Y10_2 1_555 1_555
C18_3 O14_3 1_555 1_555
H15_3 C18_3 1_555 1_555
O27_3 Y10_2 1_555 1_555
O41_2 Y10_2 1_555 1_555
Y11_2 O39_2 1_555 1_555
H1_3 O7_4 1_555 1_555
O8_2 Y1_3 1_555 1_555
H2_2 O8_2 1_555 1_555
Y10_3 O13_4 1_555 1_555
O13_4 C18_4 1_555 1_555
O14_4 Y10_3 1_555 1_555
O15_3 Y10_3 1_555 1_555
O29_2 C19_3 1_555 1_555
O17_3 Y14_3 1_555 1_555
O18_3 Y14_3 1_555 1_555
N2_5 H14_5 1_555 1_555
C18_4 O14_4 1_555 1_555
H15_4 C18_4 1_555 1_555
C19_3 O15_3 1_555 1_555
C20_3 C19_3 1_555 1_555
C21_3 C20_3 1_555 1_555
H16_3 C21_3 1_555 1_555
C22_3 N2_5 1_555 1_555
C23_3 C22_3 1_555 1_555
H17_3 C23_3 1_555 1_555
C24_3 C23_3 1_555 1_555
C25_3 C20_3 1_555 1_555
H18_3 C25_3 1_555 1_555
C26_3 O17_3 1_555 1_555
O27_3 C27_3 1_555 1_555
O22_3 C27_3 1_555 1_555
O33_2 C34_3 1_555 1_555
O35_2 C34_3 1_555 1_555
C27_3 C28_3 1_555 1_555
C28_3 C29_3 1_555 1_555
C29_3 H19_3 1_555 1_555
C30_3 N2_5 1_555 1_555
C31_3 C30_3 1_555 1_555
H20_3 C31_3 1_555 1_555
C32_3 C31_3 1_555 1_555
C33_3 C28_3 1_555 1_555
H21_3 C33_3 1_555 1_555
C34_3 C32_3 1_555 1_555
Y7_2 O22_3 1_555 1_555
Y11_3 O8_2 1_555 1_555
O30_2 Y1_3 1_555 1_555
O18_3 C26_3 1_555 1_555
C21_3 C22_3 1_555 1_555
C24_3 C25_3 1_555 1_555
C24_3 C26_3 1_555 1_555
C29_3 C30_3 1_555 1_555
C32_3 C33_3 1_555 1_555
O31_2 Y1_4 1_555 1_555
O36_2 Y1_4 1_555 1_555
Y13_3 O36_2 1_555 1_555
Y2_2 O1_3 1_555 1_555
O1_3 C1_3 1_555 1_555
O2_3 Y2_2 1_555 1_555
C1_3 O2_3 1_555 1_555
H4_3 C1_3 1_555 1_555
H22_3 O19_3 1_555 1_555
O28_3 Y2_2 1_555 1_555
O40_2 Y2_2 1_555 1_555
Y13_2 O38_2 1_555 1_555
Y1_5 O4_2 1_555 1_555
Y2_3 O1_4 1_555 1_555
Y14_4 O5_3 1_555 1_555
O1_4 C1_4 1_555 1_555
O2_4 Y2_3 1_555 1_555
O3_3 Y2_3 1_555 1_555
O4_2 C2_3 1_555 1_555
O5_3 C9_3 1_555 1_555
O6_3 Y14_4 1_555 1_555
N1_5 H3_5 1_555 1_555
C1_4 O2_4 1_555 1_555
H4_4 C1_4 1_555 1_555
C2_3 O3_3 1_555 1_555
C3_3 C2_3 1_555 1_555
C4_3 C3_3 1_555 1_555
H5_3 C4_3 1_555 1_555
C5_3 N1_5 1_555 1_555
C6_3 C5_3 1_555 1_555
H6_3 C6_3 1_555 1_555
C7_3 C6_3 1_555 1_555
C8_3 C3_3 1_555 1_555
H7_3 C8_3 1_555 1_555
C9_3 O6_3 1_555 1_555
O28_3 C10_3 1_555 1_555
O10_3 C10_3 1_555 1_555
O32_2 C17_3 1_555 1_555
O34_2 C17_3 1_555 1_555
C10_3 C11_3 1_555 1_555
C11_3 C12_3 1_555 1_555
C12_3 H8_3 1_555 1_555
C13_3 N1_5 1_555 1_555
C14_3 C13_3 1_555 1_555
H9_3 C14_3 1_555 1_555
C15_3 C14_3 1_555 1_555
C16_3 C11_3 1_555 1_555
H10_3 C16_3 1_555 1_555
C17_3 C15_3 1_555 1_555
H12_3 O19_4 1_555 1_555
H13_2 O36_2 1_555 1_555
O26_2 Y1_5 1_555 1_555
H24_2 O26_2 1_555 1_555
Y7_5 O10_3 1_555 1_555
Y2_3 O26_2 1_555 1_555
C4_3 C5_3 1_555 1_555
C7_3 C8_3 1_555 1_555
C7_3 C9_3 1_555 1_555
C12_3 C13_3 1_555 1_555
C15_3 C16_3 1_555 1_555
H11_4 O7_5 1_555 1_555
Y13_2 O13_5 1_555 1_555
O13_5 C18_5 1_555 1_555
O14_5 Y13_2 1_555 1_555
C18_5 O14_5 1_555 1_555
H15_5 C18_5 1_555 1_555
O27_4 Y13_2 1_555 1_555
H1_4 O7_6 1_555 1_555
Y13_3 O13_6 1_555 1_555
O13_6 C18_6 1_555 1_555
O14_6 Y13_3 1_555 1_555
O15_4 Y13_3 1_555 1_555
O31_2 C19_4 1_555 1_555
O17_4 Y14 1_555 1_555
O18_4 Y14 1_555 1_555
N2_6 H14_6 1_555 1_555
C18_6 O14_6 1_555 1_555
H15_6 C18_6 1_555 1_555
C19_4 O15_4 1_555 1_555
C20_4 C19_4 1_555 1_555
C21_4 C20_4 1_555 1_555
H16_4 C21_4 1_555 1_555
C22_4 N2_6 1_555 1_555
C23_4 C22_4 1_555 1_555
H17_4 C23_4 1_555 1_555
C24_4 C23_4 1_555 1_555
C25_4 C20_4 1_555 1_555
H18_4 C25_4 1_555 1_555
C26_4 O17_4 1_555 1_555
O27_4 C27_4 1_555 1_555
O22_4 C27_4 1_555 1_555
O32 C34_4 1_555 1_555
O34 C34_4 1_555 1_555
C27_4 C28_4 1_555 1_555
C28_4 C29_4 1_555 1_555
C29_4 H19_4 1_555 1_555
C30_4 N2_6 1_555 1_555
C31_4 C30_4 1_555 1_555
H20_4 C31_4 1_555 1_555
C32_4 C31_4 1_555 1_555
C33_4 C28_4 1_555 1_555
H21_4 C33_4 1_555 1_555
C34_4 C32_4 1_555 1_555
Y7_4 O22_4 1_555 1_555
O18_4 C26_4 1_555 1_555
C21_4 C22_4 1_555 1_555
C24_4 C25_4 1_555 1_555
C24_4 C26_4 1_555 1_555
C29_4 C30_4 1_555 1_555
C32_4 C33_4 1_555 1_555
Y11_2 O1_5 1_555 1_555
O1_5 C1_5 1_555 1_555
O2_5 Y11_2 1_555 1_555
C1_5 O2_5 1_555 1_555
H4_5 C1_5 1_555 1_555
H22_4 O19_5 1_555 1_555
O28_4 Y11_2 1_555 1_555
Y11_3 O1_6 1_555 1_555
Y14_2 O5_4 1_555 1_555
O1_6 C1_6 1_555 1_555
O2_6 Y11_3 1_555 1_555
O3_4 Y11_3 1_555 1_555
O30_2 C2_4 1_555 1_555
O5_4 C9_4 1_555 1_555
O6_4 Y14_2 1_555 1_555
N1_6 H3_6 1_555 1_555
C1_6 O2_6 1_555 1_555
H4_6 C1_6 1_555 1_555
C2_4 O3_4 1_555 1_555
C3_4 C2_4 1_555 1_555
C4_4 C3_4 1_555 1_555
H5_4 C4_4 1_555 1_555
C5_4 N1_6 1_555 1_555
C6_4 C5_4 1_555 1_555
H6_4 C6_4 1_555 1_555
C7_4 C6_4 1_555 1_555
C8_4 C3_4 1_555 1_555
H7_4 C8_4 1_555 1_555
C9_4 O6_4 1_555 1_555
O28_4 C10_4 1_555 1_555
O10_4 C10_4 1_555 1_555
O33 C17_4 1_555 1_555
O35 C17_4 1_555 1_555
C10_4 C11_4 1_555 1_555
C11_4 C12_4 1_555 1_555
C12_4 H8_4 1_555 1_555
C13_4 N1_6 1_555 1_555
C14_4 C13_4 1_555 1_555
H9_4 C14_4 1_555 1_555
C15_4 C14_4 1_555 1_555
C16_4 C11_4 1_555 1_555
H10_4 C16_4 1_555 1_555
C17_4 C15_4 1_555 1_555
H12_4 O19_6 1_555 1_555
Y7_3 O10_4 1_555 1_555
C4_4 C5_4 1_555 1_555
C7_4 C8_4 1_555 1_555
C7_4 C9_4 1_555 1_555
C12_4 C13_4 1_555 1_555
C15_4 C16_4 1_555 1_555
H13_3 O39 1_555 1_555
O39 Y7 1_555 1_555
Y7 O40 1_555 1_555
O38 Y7 1_555 1_555
H2_3 O38 1_555 1_555
H23_3 O40 1_555 1_555
O41 Y7 1_555 1_555
H24_3 O41 1_555 1_555
H13_4 O39_2 1_555 1_555
O41_2 Y7_2 1_555 1_555
H24_4 O41_2 1_555 1_555
O39_2 Y7_3 1_555 1_555
O38_2 Y7_4 1_555 1_555
H2_4 O38_2 1_555 1_555
Y7_5 O40_2 1_555 1_555
H23_4 O40_2 1_555 1_555

#END
