
###############################################################################
#
# This file contains modified crystal structure data generated from the
# MOF subset of the Cambridge Structural Database (CSD) v543 
# hosted by the Cambridge Crystallographic Data Centre (CCDC).
#
# This work is licensed under the Creative Commons
# Attribution-NonCommercial-ShareAlike 4.0 International License.
# To view a copy of this license, visit
# http://creativecommons.org/licenses/by-nc-sa/4.0/
# or send a letter to
# Creative Commons, PO Box 1866, Mountain View, CA 94042, USA.
#
# CIF created using the CSD Python API on 29 September 2022
# The structure has been converted into the P1 space group
# The structure has a 3D framework
# The original CSD entry YAQBAX is in the tetragonal crystal system
# The framework has been calculated to contain at least 10.0% void space
# The void calculation uses a probe of radius 1.32A, grid spacing 0.4
# The framework is charged, counterions have been retained in the structure
# H atom positions have been added when not included in the experimental data
# Generated hydrogen atom positions removed from atoms on special positions
#
###############################################################################

data_YAQBAX
_chemical_formula_moiety         '(C140 H104 N12 O106 Y22 4-)n'
_symmetry_cell_setting           triclinic
_symmetry_space_group_name_H-M   'P 1'
_symmetry_Int_Tables_number      1
_space_group_name_Hall           'P 1'
loop_
_symmetry_equiv_pos_site_id
_symmetry_equiv_pos_as_xyz
1 x,y,z
_cell_length_a                   21.0021(13)
_cell_length_b                   21.0021(13)
_cell_length_c                   16.1054(16)
_cell_angle_alpha                90
_cell_angle_beta                 90
_cell_angle_gamma                90
_cell_volume                     7103.9
loop_
_atom_site_label
_atom_site_type_symbol
_atom_site_fract_x
_atom_site_fract_y
_atom_site_fract_z
C1 C 0.3737(19) 0.277(2) 0.500000
H1 H 0.336766 0.250528 0.500000
O1 O 0.5485(3) 0.4278(3) 0.5768(3)
Y1 Y 0.500000 0.500000 0.33487(12)
Y2 Y 0.47425(9) 0.37052(8) 0.500000
O2 O 0.5587(9) 0.2991(7) 0.500000
Y3 Y 0.500000 -0.000000 0.250000
O3 O 0.3689(9) 0.3415(11) 0.500000
O4 O 0.4352(12) 0.2495(12) 0.500000
O5 O 0.4779(4) 0.4061(4) 0.2703(5)
N1 N 0.4735(12) 0.2997(10) 0.000000
H2 H 0.471176 0.341533 0.000002
C2 C 0.4720(7) 0.3493(6) 0.2920(8)
O6 O 0.4680(4) 0.3302(4) 0.3663(5)
C3 C 0.4730(7) 0.2353(6) 0.2456(8)
H3 H 0.473288 0.221325 0.301651
O7 O 0.4799(5) 0.1067(5) 0.2800(5)
C4 C 0.4753(8) 0.1928(7) 0.1800(8)
O8 O 0.4870(5) 0.0817(5) 0.1468(5)
C5 C 0.4751(8) 0.2100(7) 0.1002(8)
H4 H 0.475140 0.178577 0.057822
C6 C 0.4750(10) 0.2721(8) 0.0804(9)
C7 C 0.4734(9) 0.3178(7) 0.1430(9)
H5 H 0.474534 0.361749 0.129170
C8 C 0.4791(8) 0.1236(7) 0.2031(8)
C9 C 0.4701(8) 0.2993(6) 0.2252(8)
O25 O 0.4278(3) 0.4515(3) 0.5768(3)
O26 O 0.4278(3) 0.4515(3) 0.4232(3)
O29 O 0.4515(3) 0.5722(3) 0.4232(3)
O30 O 0.5485(3) 0.4278(3) 0.4232(3)
O32 O 0.5722(3) 0.5485(3) 0.4232(3)
Y9 Y 0.500000 0.500000 0.66513(12)
Y12 Y 0.62948(8) 0.47425(9) 0.500000
Y14 Y 0.37052(8) 0.52575(9) 0.500000
O33 O 0.5221(4) 0.5939(4) 0.2703(5)
O34 O 0.5939(4) 0.4779(4) 0.2703(5)
O35 O 0.4061(4) 0.5221(4) 0.2703(5)
O37 O 0.4680(4) 0.3302(4) 0.6337(5)
O38 O 0.6067(5) 0.0201(5) 0.2200(5)
O40 O 0.5817(5) 0.0130(5) 0.3532(5)
N1_2 N 0.4735(12) 0.2997(10) 1.000000
H2_2 H 0.471176 0.341533 1.000002
O9 O 0.4779(4) 0.4061(4) 0.7297(5)
C10 C 0.4720(7) 0.3493(6) 0.7080(8)
C11 C 0.4730(7) 0.2353(6) 0.7544(8)
H6 H 0.473288 0.221325 0.698349
O11 O 0.4799(5) 0.1067(5) 0.7200(5)
C12 C 0.4753(8) 0.1928(7) 0.8200(8)
O12 O 0.4870(5) 0.0817(5) 0.8532(5)
C13 C 0.4751(8) 0.2100(7) 0.8998(8)
H7 H 0.475140 0.178577 0.942178
C14 C 0.4750(10) 0.2721(8) 0.9196(9)
C15 C 0.4734(9) 0.3178(7) 0.8570(9)
H8 H 0.474534 0.361749 0.870830
C16 C 0.4791(8) 0.1236(7) 0.7969(8)
C17 C 0.4701(8) 0.2993(6) 0.7748(8)
Y15 Y 0.500000 0.000000 0.750000
Y3_2 Y 0.500000 1.000000 0.250000
C18 C 0.6263(19) 0.723(2) 0.500000
H9 H 0.663234 0.749472 0.500000
O13 O 0.4515(3) 0.5722(3) 0.5768(3)
Y4 Y 0.52575(9) 0.62948(8) 0.500000
O14 O 0.4413(9) 0.7009(7) 0.500000
O15 O 0.6311(9) 0.6585(11) 0.500000
O16 O 0.5648(12) 0.7505(12) 0.500000
N2 N 0.5265(12) 0.7003(10) 0.000000
H10 H 0.528824 0.658467 0.000002
C19 C 0.5280(7) 0.6507(6) 0.2920(8)
O18 O 0.5320(4) 0.6698(4) 0.3663(5)
C20 C 0.5270(7) 0.7647(6) 0.2456(8)
H11 H 0.526712 0.778675 0.301651
O19 O 0.5201(5) 0.8933(5) 0.2800(5)
C21 C 0.5247(8) 0.8072(7) 0.1800(8)
O20 O 0.5130(5) 0.9183(5) 0.1468(5)
C22 C 0.5249(8) 0.7900(7) 0.1002(8)
H12 H 0.524860 0.821423 0.057822
C23 C 0.5250(10) 0.7279(8) 0.0804(9)
C24 C 0.5266(9) 0.6822(7) 0.1430(9)
H13 H 0.525466 0.638251 0.129170
C25 C 0.5209(8) 0.8764(7) 0.2031(8)
C26 C 0.5299(8) 0.7007(6) 0.2252(8)
O27 O 0.5722(3) 0.5485(3) 0.5768(3)
O36 O 0.5320(4) 0.6698(4) 0.6337(5)
O39 O 0.3933(5) 0.9799(5) 0.2200(5)
O41 O 0.4183(5) 0.9870(5) 0.3532(5)
N2_2 N 0.5265(12) 0.7003(10) 1.000000
H10_2 H 0.528824 0.658467 1.000002
O21 O 0.5221(4) 0.5939(4) 0.7297(5)
C27 C 0.5280(7) 0.6507(6) 0.7080(8)
C28 C 0.5270(7) 0.7647(6) 0.7544(8)
H14 H 0.526712 0.778675 0.698349
O23 O 0.5201(5) 0.8933(5) 0.7200(5)
C29 C 0.5247(8) 0.8072(7) 0.8200(8)
O24 O 0.5130(5) 0.9183(5) 0.8532(5)
C30 C 0.5249(8) 0.7900(7) 0.8998(8)
H15 H 0.524860 0.821423 0.942178
C31 C 0.5250(10) 0.7279(8) 0.9196(9)
C32 C 0.5266(9) 0.6822(7) 0.8570(9)
H16 H 0.525466 0.638251 0.870830
C33 C 0.5209(8) 0.8764(7) 0.7969(8)
C34 C 0.5299(8) 0.7007(6) 0.7748(8)
Y15_2 Y 0.500000 1.000000 0.750000
Y3_3 Y -0.000000 0.500000 0.250000
C18_2 C 0.277(2) 0.6263(19) 0.500000
H9_2 H 0.250528 0.663234 0.500000
O14_2 O 0.2991(7) 0.4413(9) 0.500000
O15_2 O 0.3415(11) 0.6311(9) 0.500000
O16_2 O 0.2495(12) 0.5648(12) 0.500000
N2_3 N 0.2997(10) 0.5265(12) 0.000000
H10_3 H 0.341533 0.528824 0.000002
C19_2 C 0.3493(6) 0.5280(7) 0.2920(8)
O18_2 O 0.3302(4) 0.5320(4) 0.3663(5)
C20_2 C 0.2353(6) 0.5270(7) 0.2456(8)
H11_2 H 0.221325 0.526712 0.301651
O19_2 O 0.1067(5) 0.5201(5) 0.2800(5)
C21_2 C 0.1928(7) 0.5247(8) 0.1800(8)
O20_2 O 0.0817(5) 0.5130(5) 0.1468(5)
C22_2 C 0.2100(7) 0.5249(8) 0.1002(8)
H12_2 H 0.178577 0.524860 0.057822
C23_2 C 0.2721(8) 0.5250(10) 0.0804(9)
C24_2 C 0.3178(7) 0.5266(9) 0.1430(9)
H13_2 H 0.361749 0.525466 0.129170
C25_2 C 0.1236(7) 0.5209(8) 0.2031(8)
C26_2 C 0.2993(6) 0.5299(8) 0.2252(8)
O36_2 O 0.3302(4) 0.5320(4) 0.6337(5)
O39_2 O 0.0201(5) 0.3933(5) 0.2200(5)
O41_2 O 0.0130(5) 0.4183(5) 0.3532(5)
N2_4 N 0.2997(10) 0.5265(12) 1.000000
H10_4 H 0.341533 0.528824 1.000002
O21_2 O 0.4061(4) 0.5221(4) 0.7297(5)
C27_2 C 0.3493(6) 0.5280(7) 0.7080(8)
C28_2 C 0.2353(6) 0.5270(7) 0.7544(8)
H14_2 H 0.221325 0.526712 0.698349
O23_2 O 0.1067(5) 0.5201(5) 0.7200(5)
C29_2 C 0.1928(7) 0.5247(8) 0.8200(8)
O24_2 O 0.0817(5) 0.5130(5) 0.8532(5)
C30_2 C 0.2100(7) 0.5249(8) 0.8998(8)
H15_2 H 0.178577 0.524860 0.942178
C31_2 C 0.2721(8) 0.5250(10) 0.9196(9)
C32_2 C 0.3178(7) 0.5266(9) 0.8570(9)
H16_2 H 0.361749 0.525466 0.870830
C33_2 C 0.1236(7) 0.5209(8) 0.7969(8)
C34_2 C 0.2993(6) 0.5299(8) 0.7748(8)
Y15_3 Y -0.000000 0.500000 0.750000
C1_2 C 0.723(2) 0.3737(19) 0.500000
H1_2 H 0.749472 0.336766 0.500000
O2_2 O 0.7009(7) 0.5587(9) 0.500000
Y3_4 Y 1.000000 0.500000 0.250000
O3_2 O 0.6585(11) 0.3689(9) 0.500000
O4_2 O 0.7505(12) 0.4352(12) 0.500000
N1_3 N 0.7003(10) 0.4735(12) 0.000000
H2_3 H 0.658467 0.471176 0.000002
C2_2 C 0.6507(6) 0.4720(7) 0.2920(8)
O6_2 O 0.6698(4) 0.4680(4) 0.3663(5)
C3_2 C 0.7647(6) 0.4730(7) 0.2456(8)
H3_2 H 0.778675 0.473288 0.301651
O7_2 O 0.8933(5) 0.4799(5) 0.2800(5)
C4_2 C 0.8072(7) 0.4753(8) 0.1800(8)
O8_2 O 0.9183(5) 0.4870(5) 0.1468(5)
C5_2 C 0.7900(7) 0.4751(8) 0.1002(8)
H4_2 H 0.821423 0.475140 0.057822
C6_2 C 0.7279(8) 0.4750(10) 0.0804(9)
C7_2 C 0.6822(7) 0.4734(9) 0.1430(9)
H5_2 H 0.638251 0.474534 0.129170
C8_2 C 0.8764(7) 0.4791(8) 0.2031(8)
C9_2 C 0.7007(6) 0.4701(8) 0.2252(8)
O37_2 O 0.6698(4) 0.4680(4) 0.6337(5)
O38_2 O 0.9799(5) 0.6067(5) 0.2200(5)
O40_2 O 0.9870(5) 0.5817(5) 0.3532(5)
N1_4 N 0.7003(10) 0.4735(12) 1.000000
H2_4 H 0.658467 0.471176 1.000002
O9_2 O 0.5939(4) 0.4779(4) 0.7297(5)
C10_2 C 0.6507(6) 0.4720(7) 0.7080(8)
C11_2 C 0.7647(6) 0.4730(7) 0.7544(8)
H6_2 H 0.778675 0.473288 0.698349
O11_2 O 0.8933(5) 0.4799(5) 0.7200(5)
C12_2 C 0.8072(7) 0.4753(8) 0.8200(8)
O12_2 O 0.9183(5) 0.4870(5) 0.8532(5)
C13_2 C 0.7900(7) 0.4751(8) 0.8998(8)
H7_2 H 0.821423 0.475140 0.942178
C14_2 C 0.7279(8) 0.4750(10) 0.9196(9)
C15_2 C 0.6822(7) 0.4734(9) 0.8570(9)
H8_2 H 0.638251 0.474534 0.870830
C16_2 C 0.8764(7) 0.4791(8) 0.7969(8)
C17_2 C 0.7007(6) 0.4701(8) 0.7748(8)
Y15_4 Y 1.000000 0.500000 0.750000
Y9_2 Y -0.000000 -0.000000 0.16513(12)
Y1_2 Y -0.000000 -0.000000 0.83487(12)
O32_2 O 0.0722(3) 0.0485(3) 0.9232(3)
O33_2 O 0.0221(4) 0.0939(4) 0.7703(5)
O1_2 O 0.0485(3) 0.9278(3) 0.0768(3)
O2_3 O 0.0587(9) 0.7991(7) 0.000000
C18_3 C 0.1263(19) 0.223(2) 0.000000
H9_3 H 0.163234 0.249472 0.000000
Y4_2 Y 0.02575(9) 0.12948(8) 0.000000
O15_3 O 0.1311(9) 0.1585(11) 0.000000
O16_3 O 0.0648(12) 0.2505(12) 0.000000
O27_2 O 0.0722(3) 0.0485(3) 0.0768(3)
Y9_3 Y -0.000000 1.000000 0.16513(12)
Y12_2 Y 0.12948(8) 0.97425(9) 0.000000
O36_3 O 0.0320(4) 0.1698(4) 0.1337(5)
H17 H 0.0693702 0.78731 0.0580649
Y1_3 Y -0.000000 1.000000 0.83487(12)
O2_4 O 0.0587(9) 0.7991(7) 1.000000
C18_4 C 0.1263(19) 0.223(2) 1.000000
H9_4 H 0.163234 0.249472 1.000000
Y4_3 Y 0.02575(9) 0.12948(8) 1.000000
O15_4 O 0.1311(9) 0.1585(11) 1.000000
O16_4 O 0.0648(12) 0.2505(12) 1.000000
N2_5 N 0.0265(12) 0.2003(10) 0.500000
H10_5 H 0.028824 0.158467 0.500002
C19_3 C 0.0280(7) 0.1507(6) 0.7920(8)
O18_3 O 0.0320(4) 0.1698(4) 0.8663(5)
C20_3 C 0.0270(7) 0.2647(6) 0.7456(8)
H11_3 H 0.026712 0.278675 0.801651
O19_3 O 0.0201(5) 0.3933(5) 0.7800(5)
C21_3 C 0.0247(8) 0.3072(7) 0.6800(8)
O20_3 O 0.0130(5) 0.4183(5) 0.6468(5)
C22_3 C 0.0249(8) 0.2900(7) 0.6002(8)
H12_3 H 0.024860 0.321423 0.557822
C23_3 C 0.0250(10) 0.2279(8) 0.5804(9)
C24_3 C 0.0266(9) 0.1822(7) 0.6430(9)
H13_3 H 0.025466 0.138251 0.629170
C25_3 C 0.0209(8) 0.3764(7) 0.7031(8)
C26_3 C 0.0299(8) 0.2007(6) 0.7252(8)
O21_3 O 0.0221(4) 0.0939(4) 0.2297(5)
C27_3 C 0.0280(7) 0.1507(6) 0.2080(8)
C28_3 C 0.0270(7) 0.2647(6) 0.2544(8)
H14_3 H 0.026712 0.278675 0.198349
C29_3 C 0.0247(8) 0.3072(7) 0.3200(8)
C30_3 C 0.0249(8) 0.2900(7) 0.3998(8)
H15_3 H 0.024860 0.321423 0.442178
C31_3 C 0.0250(10) 0.2279(8) 0.4196(9)
C32_3 C 0.0266(9) 0.1822(7) 0.3570(9)
H16_3 H 0.025466 0.138251 0.370830
C33_3 C 0.0209(8) 0.3764(7) 0.2969(8)
C34_3 C 0.0299(8) 0.2007(6) 0.2748(8)
O30_2 O 0.0485(3) 0.9278(3) 0.9232(3)
Y12_3 Y 0.12948(8) 0.97425(9) 1.000000
O34_2 O 0.0939(4) 0.9779(4) 0.7703(5)
H18 H 0.0465149 0.760285 0.968583
Y9_4 Y 1.000000 -0.000000 0.16513(12)
Y14_2 Y 0.87052(8) 0.02575(9) 0.000000
Y1_4 Y 1.000000 -0.000000 0.83487(12)
O29_2 O 0.9515(3) 0.0722(3) 0.9232(3)
Y14_3 Y 0.87052(8) 0.02575(9) 1.000000
O35_2 O 0.9061(4) 0.0221(4) 0.7703(5)
C1_3 C 0.8737(19) 0.777(2) 0.000000
H1_3 H 0.836766 0.750528 0.000000
Y2_2 Y 0.97425(9) 0.87052(8) 0.000000
O3_3 O 0.8689(9) 0.8415(11) 0.000000
O4_3 O 0.9352(12) 0.7495(12) 0.000000
O13_2 O 0.9515(3) 0.0722(3) 0.0768(3)
O14_3 O 0.9413(9) 0.2009(7) 0.000000
O25_2 O 0.9278(3) 0.9515(3) 0.0768(3)
Y9_5 Y 1.000000 1.000000 0.16513(12)
O37_3 O 0.9680(4) 0.8302(4) 0.1337(5)
H19 H 0.93063 0.21269 0.0580649
C1_4 C 0.8737(19) 0.777(2) 1.000000
H1_4 H 0.836766 0.750528 1.000000
Y1_5 Y 1.000000 1.000000 0.83487(12)
Y2_3 Y 0.97425(9) 0.87052(8) 1.000000
O3_4 O 0.8689(9) 0.8415(11) 1.000000
O4_4 O 0.9352(12) 0.7495(12) 1.000000
O5_2 O 0.9779(4) 0.9061(4) 0.7703(5)
N1_5 N 0.9735(12) 0.7997(10) 0.500000
H2_5 H 0.971176 0.841533 0.500002
C2_3 C 0.9720(7) 0.8493(6) 0.7920(8)
O6_3 O 0.9680(4) 0.8302(4) 0.8663(5)
C3_3 C 0.9730(7) 0.7353(6) 0.7456(8)
H3_3 H 0.973288 0.721325 0.801651
O7_3 O 0.9799(5) 0.6067(5) 0.7800(5)
C4_3 C 0.9753(8) 0.6928(7) 0.6800(8)
O8_3 O 0.9870(5) 0.5817(5) 0.6468(5)
C5_3 C 0.9751(8) 0.7100(7) 0.6002(8)
H4_3 H 0.975140 0.678577 0.557822
C6_3 C 0.9750(10) 0.7721(8) 0.5804(9)
C7_3 C 0.9734(9) 0.8178(7) 0.6430(9)
H5_3 H 0.974534 0.861749 0.629170
C8_3 C 0.9791(8) 0.6236(7) 0.7031(8)
C9_3 C 0.9701(8) 0.7993(6) 0.7252(8)
O9_3 O 0.9779(4) 0.9061(4) 0.2297(5)
C10_3 C 0.9720(7) 0.8493(6) 0.2080(8)
C11_3 C 0.9730(7) 0.7353(6) 0.2544(8)
H6_3 H 0.973288 0.721325 0.198349
C12_3 C 0.9753(8) 0.6928(7) 0.3200(8)
C13_3 C 0.9751(8) 0.7100(7) 0.3998(8)
H7_3 H 0.975140 0.678577 0.442178
C14_3 C 0.9750(10) 0.7721(8) 0.4196(9)
C15_3 C 0.9734(9) 0.8178(7) 0.3570(9)
H8_3 H 0.974534 0.861749 0.370830
C16_3 C 0.9791(8) 0.6236(7) 0.2969(8)
C17_3 C 0.9701(8) 0.7993(6) 0.2748(8)
O14_4 O 0.9413(9) 0.2009(7) 1.000000
O26_2 O 0.9278(3) 0.9515(3) 0.9232(3)
H20 H 0.953485 0.239715 0.968583
O2_5 O 0.2009(7) 0.0587(9) 0.000000
C18_5 C 0.777(2) 0.1263(19) 0.000000
H9_5 H 0.750528 0.163234 0.000000
O15_5 O 0.8415(11) 0.1311(9) 0.000000
O16_5 O 0.7495(12) 0.0648(12) 0.000000
O36_4 O 0.8302(4) 0.0320(4) 0.1337(5)
H17_2 H 0.21269 0.0693702 0.0580649
O2_6 O 0.2009(7) 0.0587(9) 1.000000
C18_6 C 0.777(2) 0.1263(19) 1.000000
H9_6 H 0.750528 0.163234 1.000000
O15_6 O 0.8415(11) 0.1311(9) 1.000000
O16_6 O 0.7495(12) 0.0648(12) 1.000000
N2_6 N 0.7997(10) 0.0265(12) 0.500000
H10_6 H 0.841533 0.028824 0.500002
C19_4 C 0.8493(6) 0.0280(7) 0.7920(8)
O18_4 O 0.8302(4) 0.0320(4) 0.8663(5)
C20_4 C 0.7353(6) 0.0270(7) 0.7456(8)
H11_4 H 0.721325 0.026712 0.801651
O19_4 O 0.6067(5) 0.0201(5) 0.7800(5)
C21_4 C 0.6928(7) 0.0247(8) 0.6800(8)
O20_4 O 0.5817(5) 0.0130(5) 0.6468(5)
C22_4 C 0.7100(7) 0.0249(8) 0.6002(8)
H12_4 H 0.678577 0.024860 0.557822
C23_4 C 0.7721(8) 0.0250(10) 0.5804(9)
C24_4 C 0.8178(7) 0.0266(9) 0.6430(9)
H13_4 H 0.861749 0.025466 0.629170
C25_4 C 0.6236(7) 0.0209(8) 0.7031(8)
C26_4 C 0.7993(6) 0.0299(8) 0.7252(8)
O21_4 O 0.9061(4) 0.0221(4) 0.2297(5)
C27_4 C 0.8493(6) 0.0280(7) 0.2080(8)
C28_4 C 0.7353(6) 0.0270(7) 0.2544(8)
H14_4 H 0.721325 0.026712 0.198349
C29_4 C 0.6928(7) 0.0247(8) 0.3200(8)
C30_4 C 0.7100(7) 0.0249(8) 0.3998(8)
H15_4 H 0.678577 0.024860 0.442178
C31_4 C 0.7721(8) 0.0250(10) 0.4196(9)
C32_4 C 0.8178(7) 0.0266(9) 0.3570(9)
H16_4 H 0.861749 0.025466 0.370830
C33_4 C 0.6236(7) 0.0209(8) 0.2969(8)
C34_4 C 0.7993(6) 0.0299(8) 0.2748(8)
H18_2 H 0.239715 0.0465149 0.968583
C1_5 C 0.223(2) 0.8737(19) 0.000000
H1_5 H 0.249472 0.836766 0.000000
O3_5 O 0.1585(11) 0.8689(9) 0.000000
O4_5 O 0.2505(12) 0.9352(12) 0.000000
O14_5 O 0.7991(7) 0.9413(9) 0.000000
O37_4 O 0.1698(4) 0.9680(4) 0.1337(5)
H19_2 H 0.78731 0.93063 0.0580649
C1_6 C 0.223(2) 0.8737(19) 1.000000
H1_6 H 0.249472 0.836766 1.000000
O3_6 O 0.1585(11) 0.8689(9) 1.000000
O4_6 O 0.2505(12) 0.9352(12) 1.000000
N1_6 N 0.2003(10) 0.9735(12) 0.500000
H2_6 H 0.158467 0.971176 0.500002
C2_4 C 0.1507(6) 0.9720(7) 0.7920(8)
O6_4 O 0.1698(4) 0.9680(4) 0.8663(5)
C3_4 C 0.2647(6) 0.9730(7) 0.7456(8)
H3_4 H 0.278675 0.973288 0.801651
O7_4 O 0.3933(5) 0.9799(5) 0.7800(5)
C4_4 C 0.3072(7) 0.9753(8) 0.6800(8)
O8_4 O 0.4183(5) 0.9870(5) 0.6468(5)
C5_4 C 0.2900(7) 0.9751(8) 0.6002(8)
H4_4 H 0.321423 0.975140 0.557822
C6_4 C 0.2279(8) 0.9750(10) 0.5804(9)
C7_4 C 0.1822(7) 0.9734(9) 0.6430(9)
H5_4 H 0.138251 0.974534 0.629170
C8_4 C 0.3764(7) 0.9791(8) 0.7031(8)
C9_4 C 0.2007(6) 0.9701(8) 0.7252(8)
O9_4 O 0.0939(4) 0.9779(4) 0.2297(5)
C10_4 C 0.1507(6) 0.9720(7) 0.2080(8)
C11_4 C 0.2647(6) 0.9730(7) 0.2544(8)
H6_4 H 0.278675 0.973288 0.198349
C12_4 C 0.3072(7) 0.9753(8) 0.3200(8)
C13_4 C 0.2900(7) 0.9751(8) 0.3998(8)
H7_4 H 0.321423 0.975140 0.442178
C14_4 C 0.2279(8) 0.9750(10) 0.4196(9)
C15_4 C 0.1822(7) 0.9734(9) 0.3570(9)
H8_4 H 0.138251 0.974534 0.370830
C16_4 C 0.3764(7) 0.9791(8) 0.2969(8)
C17_4 C 0.2007(6) 0.9701(8) 0.2748(8)
O14_6 O 0.7991(7) 0.9413(9) 1.000000
H20_2 H 0.760285 0.953485 0.968583
H20_3 H 0.0465149 0.760285 0.0314173
H19_3 H 0.0693702 0.78731 0.941935
H18_3 H 0.953485 0.239715 0.0314173
H17_3 H 0.93063 0.21269 0.941935
H20_4 H 0.239715 0.0465149 0.0314173
H19_4 H 0.21269 0.0693702 0.941935
H18_4 H 0.760285 0.953485 0.0314173
H17_4 H 0.78731 0.93063 0.941935
loop_
_geom_bond_atom_site_label_1
_geom_bond_atom_site_label_2
_geom_bond_site_symmetry_1
_geom_bond_site_symmetry_2
C1 H1 1_555 1_555
O1 Y2 1_555 1_555
Y1 O5 1_555 1_555
Y2 O2 1_555 1_555
Y3 O7 1_555 1_555
O3 C1 1_555 1_555
O4 C1 1_555 1_555
O5 C2 1_555 1_555
N1 H2 1_555 1_555
C2 O6 1_555 1_555
O6 Y2 1_555 1_555
C3 H3 1_555 1_555
O7 C8 1_555 1_555
C4 C3 1_555 1_555
O8 Y3 1_555 1_555
C5 C4 1_555 1_555
H4 C5 1_555 1_555
C6 N1 1_555 1_555
C7 C6 1_555 1_555
H5 C7 1_555 1_555
C8 C4 1_555 1_555
C9 C2 1_555 1_555
O25 Y2 1_555 1_555
O26 Y1 1_555 1_555
O29 Y1 1_555 1_555
O30 Y1 1_555 1_555
O32 Y1 1_555 1_555
Y9 O1 1_555 1_555
Y12 O1 1_555 1_555
Y14 O25 1_555 1_555
O33 Y1 1_555 1_555
O34 Y1 1_555 1_555
O35 Y1 1_555 1_555
O37 Y2 1_555 1_555
O38 Y3 1_555 1_555
O40 Y3 1_555 1_555
Y2 O3 1_555 1_555
Y2 O4 1_555 1_555
Y2 O26 1_555 1_555
Y2 O30 1_555 1_555
C3 C9 1_555 1_555
O8 C8 1_555 1_555
C5 C6 1_555 1_555
C7 C9 1_555 1_555
O25 Y9 1_555 1_555
O26 Y14 1_555 1_555
O29 Y14 1_555 1_555
O30 Y12 1_555 1_555
O32 Y12 1_555 1_555
N1_2 H2_2 1_555 1_555
O9 C10 1_555 1_555
C10 O37 1_555 1_555
C11 H6 1_555 1_555
O11 C16 1_555 1_555
C12 C11 1_555 1_555
O12 C16 1_555 1_555
C13 C12 1_555 1_555
H7 C13 1_555 1_555
C14 N1_2 1_555 1_555
C15 C14 1_555 1_555
H8 C15 1_555 1_555
C16 C12 1_555 1_555
C17 C10 1_555 1_555
Y9 O9 1_555 1_555
Y15 O11 1_555 1_555
C11 C17 1_555 1_555
O12 Y15 1_555 1_555
C13 C14 1_555 1_555
C15 C17 1_555 1_555
C18 H9 1_555 1_555
O13 Y4 1_555 1_555
Y4 O14 1_555 1_555
O15 C18 1_555 1_555
O16 C18 1_555 1_555
O33 C19 1_555 1_555
N2 H10 1_555 1_555
C19 O18 1_555 1_555
O18 Y4 1_555 1_555
C20 H11 1_555 1_555
O19 Y3_2 1_555 1_555
C21 C20 1_555 1_555
O20 Y3_2 1_555 1_555
C22 C21 1_555 1_555
H12 C22 1_555 1_555
C23 N2 1_555 1_555
C24 C23 1_555 1_555
H13 C24 1_555 1_555
C25 O19 1_555 1_555
C26 C19 1_555 1_555
O27 Y4 1_555 1_555
O29 Y4 1_555 1_555
O32 Y4 1_555 1_555
Y9 O13 1_555 1_555
Y14 O13 1_555 1_555
O36 Y4 1_555 1_555
O39 Y3_2 1_555 1_555
O41 Y3_2 1_555 1_555
Y4 O15 1_555 1_555
Y4 O16 1_555 1_555
C20 C26 1_555 1_555
C21 C25 1_555 1_555
O20 C25 1_555 1_555
C22 C23 1_555 1_555
C24 C26 1_555 1_555
O27 Y9 1_555 1_555
N2_2 H10_2 1_555 1_555
O21 C27 1_555 1_555
C27 O36 1_555 1_555
C28 H14 1_555 1_555
O23 C33 1_555 1_555
C29 C28 1_555 1_555
O24 C33 1_555 1_555
C30 C29 1_555 1_555
H15 C30 1_555 1_555
C31 N2_2 1_555 1_555
C32 C31 1_555 1_555
H16 C32 1_555 1_555
C33 C29 1_555 1_555
C34 C27 1_555 1_555
Y9 O21 1_555 1_555
C28 C34 1_555 1_555
O23 Y15_2 1_555 1_555
O24 Y15_2 1_555 1_555
C30 C31 1_555 1_555
C32 C34 1_555 1_555
Y12 O27 1_555 1_555
C18_2 H9_2 1_555 1_555
Y14 O14_2 1_555 1_555
O15_2 C18_2 1_555 1_555
O16_2 C18_2 1_555 1_555
O35 C19_2 1_555 1_555
N2_3 H10_3 1_555 1_555
C19_2 O18_2 1_555 1_555
O18_2 Y14 1_555 1_555
C20_2 H11_2 1_555 1_555
O19_2 Y3_3 1_555 1_555
C21_2 C20_2 1_555 1_555
O20_2 Y3_3 1_555 1_555
C22_2 C21_2 1_555 1_555
H12_2 C22_2 1_555 1_555
C23_2 N2_3 1_555 1_555
C24_2 C23_2 1_555 1_555
H13_2 C24_2 1_555 1_555
C25_2 O19_2 1_555 1_555
C26_2 C19_2 1_555 1_555
O36_2 Y14 1_555 1_555
O39_2 Y3_3 1_555 1_555
O41_2 Y3_3 1_555 1_555
Y14 O15_2 1_555 1_555
Y14 O16_2 1_555 1_555
C20_2 C26_2 1_555 1_555
C21_2 C25_2 1_555 1_555
O20_2 C25_2 1_555 1_555
C22_2 C23_2 1_555 1_555
C24_2 C26_2 1_555 1_555
N2_4 H10_4 1_555 1_555
O21_2 C27_2 1_555 1_555
C27_2 O36_2 1_555 1_555
C28_2 H14_2 1_555 1_555
O23_2 C33_2 1_555 1_555
C29_2 C28_2 1_555 1_555
O24_2 C33_2 1_555 1_555
C30_2 C29_2 1_555 1_555
H15_2 C30_2 1_555 1_555
C31_2 N2_4 1_555 1_555
C32_2 C31_2 1_555 1_555
H16_2 C32_2 1_555 1_555
C33_2 C29_2 1_555 1_555
C34_2 C27_2 1_555 1_555
Y9 O21_2 1_555 1_555
C28_2 C34_2 1_555 1_555
O23_2 Y15_3 1_555 1_555
O24_2 Y15_3 1_555 1_555
C30_2 C31_2 1_555 1_555
C32_2 C34_2 1_555 1_555
C1_2 H1_2 1_555 1_555
Y12 O2_2 1_555 1_555
Y3_4 O7_2 1_555 1_555
O3_2 C1_2 1_555 1_555
O4_2 C1_2 1_555 1_555
O34 C2_2 1_555 1_555
N1_3 H2_3 1_555 1_555
C2_2 O6_2 1_555 1_555
O6_2 Y12 1_555 1_555
C3_2 H3_2 1_555 1_555
O7_2 C8_2 1_555 1_555
C4_2 C3_2 1_555 1_555
O8_2 Y3_4 1_555 1_555
C5_2 C4_2 1_555 1_555
H4_2 C5_2 1_555 1_555
C6_2 N1_3 1_555 1_555
C7_2 C6_2 1_555 1_555
H5_2 C7_2 1_555 1_555
C8_2 C4_2 1_555 1_555
C9_2 C2_2 1_555 1_555
O37_2 Y12 1_555 1_555
O38_2 Y3_4 1_555 1_555
O40_2 Y3_4 1_555 1_555
Y12 O3_2 1_555 1_555
Y12 O4_2 1_555 1_555
C3_2 C9_2 1_555 1_555
O8_2 C8_2 1_555 1_555
C5_2 C6_2 1_555 1_555
C7_2 C9_2 1_555 1_555
N1_4 H2_4 1_555 1_555
O9_2 C10_2 1_555 1_555
C10_2 O37_2 1_555 1_555
C11_2 H6_2 1_555 1_555
O11_2 C16_2 1_555 1_555
C12_2 C11_2 1_555 1_555
O12_2 C16_2 1_555 1_555
C13_2 C12_2 1_555 1_555
H7_2 C13_2 1_555 1_555
C14_2 N1_4 1_555 1_555
C15_2 C14_2 1_555 1_555
H8_2 C15_2 1_555 1_555
C16_2 C12_2 1_555 1_555
C17_2 C10_2 1_555 1_555
Y9 O9_2 1_555 1_555
Y15_4 O11_2 1_555 1_555
C11_2 C17_2 1_555 1_555
O12_2 Y15_4 1_555 1_555
C13_2 C14_2 1_555 1_555
C15_2 C17_2 1_555 1_555
O32_2 Y1_2 1_555 1_555
O33_2 Y1_2 1_555 1_555
C18_3 H9_3 1_555 1_555
O15_3 C18_3 1_555 1_555
O16_3 C18_3 1_555 1_555
O27_2 Y4_2 1_555 1_555
Y9_3 O1_2 1_555 1_555
Y12_2 O1_2 1_555 1_555
O36_3 Y4_2 1_555 1_555
Y4_2 O15_3 1_555 1_555
Y4_2 O16_3 1_555 1_555
O27_2 Y9_2 1_555 1_555
O2_3 H17 1_555 1_555
C18_4 H9_4 1_555 1_555
O15_4 C18_4 1_555 1_555
O16_4 C18_4 1_555 1_555
O33_2 C19_3 1_555 1_555
N2_5 H10_5 1_555 1_555
C19_3 O18_3 1_555 1_555
O18_3 Y4_3 1_555 1_555
C20_3 H11_3 1_555 1_555
O19_3 Y15_3 1_555 1_555
C21_3 C20_3 1_555 1_555
O20_3 Y15_3 1_555 1_555
C22_3 C21_3 1_555 1_555
H12_3 C22_3 1_555 1_555
C23_3 N2_5 1_555 1_555
C24_3 C23_3 1_555 1_555
H13_3 C24_3 1_555 1_555
C25_3 O19_3 1_555 1_555
C26_3 C19_3 1_555 1_555
O21_3 C27_3 1_555 1_555
C27_3 O36_3 1_555 1_555
C28_3 H14_3 1_555 1_555
O39_2 C33_3 1_555 1_555
C29_3 C28_3 1_555 1_555
O41_2 C33_3 1_555 1_555
C30_3 C29_3 1_555 1_555
H15_3 C30_3 1_555 1_555
C31_3 N2_5 1_555 1_555
C32_3 C31_3 1_555 1_555
H16_3 C32_3 1_555 1_555
C33_3 C29_3 1_555 1_555
C34_3 C27_3 1_555 1_555
O30_2 Y1_3 1_555 1_555
O32_2 Y4_3 1_555 1_555
Y9_2 O21_3 1_555 1_555
O34_2 Y1_3 1_555 1_555
Y4_3 O15_4 1_555 1_555
Y4_3 O16_4 1_555 1_555
C20_3 C26_3 1_555 1_555
C21_3 C25_3 1_555 1_555
O20_3 C25_3 1_555 1_555
C22_3 C23_3 1_555 1_555
C24_3 C26_3 1_555 1_555
C28_3 C34_3 1_555 1_555
C30_3 C31_3 1_555 1_555
C32_3 C34_3 1_555 1_555
O30_2 Y12_3 1_555 1_555
O2_4 H18 1_555 1_555
O29_2 Y1_4 1_555 1_555
O35_2 Y1_4 1_555 1_555
O29_2 Y14_3 1_555 1_555
C1_3 H1_3 1_555 1_555
O3_3 C1_3 1_555 1_555
O4_3 C1_3 1_555 1_555
O25_2 Y2_2 1_555 1_555
Y9_4 O13_2 1_555 1_555
Y14_2 O13_2 1_555 1_555
O37_3 Y2_2 1_555 1_555
Y2_2 O3_3 1_555 1_555
Y2_2 O4_3 1_555 1_555
O25_2 Y9_5 1_555 1_555
O14_3 H19 1_555 1_555
C1_4 H1_4 1_555 1_555
Y1_5 O5_2 1_555 1_555
Y15_4 O7_3 1_555 1_555
O3_4 C1_4 1_555 1_555
O4_4 C1_4 1_555 1_555
O5_2 C2_3 1_555 1_555
N1_5 H2_5 1_555 1_555
C2_3 O6_3 1_555 1_555
O6_3 Y2_3 1_555 1_555
C3_3 H3_3 1_555 1_555
O7_3 C8_3 1_555 1_555
C4_3 C3_3 1_555 1_555
O8_3 Y15_4 1_555 1_555
C5_3 C4_3 1_555 1_555
H4_3 C5_3 1_555 1_555
C6_3 N1_5 1_555 1_555
C7_3 C6_3 1_555 1_555
H5_3 C7_3 1_555 1_555
C8_3 C4_3 1_555 1_555
C9_3 C2_3 1_555 1_555
O9_3 C10_3 1_555 1_555
C10_3 O37_3 1_555 1_555
C11_3 H6_3 1_555 1_555
O38_2 C16_3 1_555 1_555
C12_3 C11_3 1_555 1_555
O40_2 C16_3 1_555 1_555
C13_3 C12_3 1_555 1_555
H7_3 C13_3 1_555 1_555
C14_3 N1_5 1_555 1_555
C15_3 C14_3 1_555 1_555
H8_3 C15_3 1_555 1_555
C16_3 C12_3 1_555 1_555
C17_3 C10_3 1_555 1_555
O26_2 Y1_5 1_555 1_555
Y9_5 O9_3 1_555 1_555
Y2_3 O3_4 1_555 1_555
Y2_3 O4_4 1_555 1_555
Y2_3 O26_2 1_555 1_555
C3_3 C9_3 1_555 1_555
O8_3 C8_3 1_555 1_555
C5_3 C6_3 1_555 1_555
C7_3 C9_3 1_555 1_555
C11_3 C17_3 1_555 1_555
C13_3 C14_3 1_555 1_555
C15_3 C17_3 1_555 1_555
O14_4 H20 1_555 1_555
C18_5 H9_5 1_555 1_555
O15_5 C18_5 1_555 1_555
O16_5 C18_5 1_555 1_555
O36_4 Y14_2 1_555 1_555
Y14_2 O15_5 1_555 1_555
Y14_2 O16_5 1_555 1_555
O2_5 H17_2 1_555 1_555
C18_6 H9_6 1_555 1_555
O15_6 C18_6 1_555 1_555
O16_6 C18_6 1_555 1_555
O35_2 C19_4 1_555 1_555
N2_6 H10_6 1_555 1_555
C19_4 O18_4 1_555 1_555
O18_4 Y14_3 1_555 1_555
C20_4 H11_4 1_555 1_555
O19_4 Y15 1_555 1_555
C21_4 C20_4 1_555 1_555
O20_4 Y15 1_555 1_555
C22_4 C21_4 1_555 1_555
H12_4 C22_4 1_555 1_555
C23_4 N2_6 1_555 1_555
C24_4 C23_4 1_555 1_555
H13_4 C24_4 1_555 1_555
C25_4 O19_4 1_555 1_555
C26_4 C19_4 1_555 1_555
O21_4 C27_4 1_555 1_555
C27_4 O36_4 1_555 1_555
C28_4 H14_4 1_555 1_555
O38 C33_4 1_555 1_555
C29_4 C28_4 1_555 1_555
O40 C33_4 1_555 1_555
C30_4 C29_4 1_555 1_555
H15_4 C30_4 1_555 1_555
C31_4 N2_6 1_555 1_555
C32_4 C31_4 1_555 1_555
H16_4 C32_4 1_555 1_555
C33_4 C29_4 1_555 1_555
C34_4 C27_4 1_555 1_555
Y9_4 O21_4 1_555 1_555
Y14_3 O15_6 1_555 1_555
Y14_3 O16_6 1_555 1_555
C20_4 C26_4 1_555 1_555
C21_4 C25_4 1_555 1_555
O20_4 C25_4 1_555 1_555
C22_4 C23_4 1_555 1_555
C24_4 C26_4 1_555 1_555
C28_4 C34_4 1_555 1_555
C30_4 C31_4 1_555 1_555
C32_4 C34_4 1_555 1_555
O2_6 H18_2 1_555 1_555
C1_5 H1_5 1_555 1_555
O3_5 C1_5 1_555 1_555
O4_5 C1_5 1_555 1_555
O37_4 Y12_2 1_555 1_555
Y12_2 O3_5 1_555 1_555
Y12_2 O4_5 1_555 1_555
O14_5 H19_2 1_555 1_555
C1_6 H1_6 1_555 1_555
Y15_2 O7_4 1_555 1_555
O3_6 C1_6 1_555 1_555
O4_6 C1_6 1_555 1_555
O34_2 C2_4 1_555 1_555
N1_6 H2_6 1_555 1_555
C2_4 O6_4 1_555 1_555
O6_4 Y12_3 1_555 1_555
C3_4 H3_4 1_555 1_555
O7_4 C8_4 1_555 1_555
C4_4 C3_4 1_555 1_555
O8_4 Y15_2 1_555 1_555
C5_4 C4_4 1_555 1_555
H4_4 C5_4 1_555 1_555
C6_4 N1_6 1_555 1_555
C7_4 C6_4 1_555 1_555
H5_4 C7_4 1_555 1_555
C8_4 C4_4 1_555 1_555
C9_4 C2_4 1_555 1_555
O9_4 C10_4 1_555 1_555
C10_4 O37_4 1_555 1_555
C11_4 H6_4 1_555 1_555
O39 C16_4 1_555 1_555
C12_4 C11_4 1_555 1_555
O41 C16_4 1_555 1_555
C13_4 C12_4 1_555 1_555
H7_4 C13_4 1_555 1_555
C14_4 N1_6 1_555 1_555
C15_4 C14_4 1_555 1_555
H8_4 C15_4 1_555 1_555
C16_4 C12_4 1_555 1_555
C17_4 C10_4 1_555 1_555
Y9_3 O9_4 1_555 1_555
Y12_3 O3_6 1_555 1_555
Y12_3 O4_6 1_555 1_555
C3_4 C9_4 1_555 1_555
O8_4 C8_4 1_555 1_555
C5_4 C6_4 1_555 1_555
C7_4 C9_4 1_555 1_555
C11_4 C17_4 1_555 1_555
C13_4 C14_4 1_555 1_555
C15_4 C17_4 1_555 1_555
O14_6 H20_2 1_555 1_555
O2_3 H20_3 1_555 1_555
O2_4 H19_3 1_555 1_555
O14_3 H18_3 1_555 1_555
O14_4 H17_3 1_555 1_555
O2_5 H20_4 1_555 1_555
O2_6 H19_4 1_555 1_555
O14_5 H18_4 1_555 1_555
O14_6 H17_4 1_555 1_555

#END
