
###############################################################################
#
# This file contains modified crystal structure data generated from the
# MOF subset of the Cambridge Structural Database (CSD) v543 
# hosted by the Cambridge Crystallographic Data Centre (CCDC).
#
# This work is licensed under the Creative Commons
# Attribution-NonCommercial-ShareAlike 4.0 International License.
# To view a copy of this license, visit
# http://creativecommons.org/licenses/by-nc-sa/4.0/
# or send a letter to
# Creative Commons, PO Box 1866, Mountain View, CA 94042, USA.
#
# CIF created using the CSD Python API on 29 September 2022
# The structure has been converted into the P1 space group
# The structure has a 3D framework
# The original CSD entry YAQDIF is in the tetragonal crystal system
# The framework has been calculated to contain at least 10.0% void space
# The void calculation uses a probe of radius 1.32A, grid spacing 0.4
#
###############################################################################

data_YAQDIF
_chemical_formula_moiety         '(C256 H128 Cd12 O60)n'
_symmetry_cell_setting           triclinic
_symmetry_space_group_name_H-M   'P 1'
_symmetry_Int_Tables_number      1
_space_group_name_Hall           'P 1'
loop_
_symmetry_equiv_pos_site_id
_symmetry_equiv_pos_as_xyz
1 x,y,z
_cell_length_a                   21.122(3)
_cell_length_b                   21.122(3)
_cell_length_c                   16.7824(19)
_cell_angle_alpha                90
_cell_angle_beta                 90
_cell_angle_gamma                90
_cell_volume                     7487.28
loop_
_atom_site_label
_atom_site_type_symbol
_atom_site_fract_x
_atom_site_fract_y
_atom_site_fract_z
Cd1 Cd 0.0000 0.7500 0.1250
O1 O 0.11550(13) 0.75433(14) 0.11035(18)
O2 O 0.07617(11) 0.74857(13) 0.23035(18)
C1 C 0.12193(14) 0.75165(14) 0.1832(3)
C2 C 0.18837(13) 0.75012(15) 0.2180(2)
C3 C 0.21392(14) 0.80572(14) 0.2479(2)
C4 C 0.18003(17) 0.86384(17) 0.2487(3)
H1 H 0.1394 0.8657 0.2276
C5 C 0.2068(2) 0.9169(2) 0.2803(4)
H2 H 0.1832 0.9540 0.2826
C6 C 0.2686(2) 0.91695(18) 0.3092(4)
H3 H 0.2861 0.9544 0.3281
C7 C 0.30315(17) 0.86356(16) 0.3099(3)
H4 H 0.3442 0.8642 0.3300
C8 C 0.22282(13) 0.69379(13) 0.2198(2)
Cd2 Cd 0.5000 0.7500 0.3750
O3 O 0.38450(13) 0.74567(14) 0.38965(18)
O7 O 0.00433(14) 0.63450(13) 0.13965(18)
O8 O 0.42383(11) 0.75143(13) 0.26965(18)
O11 O 0.00143(13) 0.82617(11) 0.01965(18)
C9 C 0.37807(14) 0.74835(14) 0.3168(3)
C12 C 0.31163(13) 0.74988(15) 0.2820(2)
C15 C 0.28608(14) 0.69428(14) 0.2521(2)
C18 C 0.31997(17) 0.63616(17) 0.2513(3)
H5 H 0.3606 0.6343 0.2724
C21 C 0.2932(2) 0.5831(2) 0.2197(4)
H8 H 0.3168 0.5460 0.2174
C24 C 0.2314(2) 0.58305(18) 0.1908(4)
H11 H 0.2139 0.5456 0.1719
C27 C 0.19685(17) 0.63644(16) 0.1901(3)
H14 H 0.1558 0.6358 0.1700
C30 C 0.27718(13) 0.80621(13) 0.2802(2)
Cd1_2 Cd 1.0000 0.7500 0.1250
O4 O 0.88450(13) 0.74567(14) 0.11035(18)
O5 O 0.61550(13) 0.75433(14) 0.38965(18)
O6 O 0.99567(14) 0.86550(13) 0.13965(18)
O9 O 0.92383(11) 0.75143(13) 0.23035(18)
O10 O 0.57617(11) 0.74857(13) 0.26965(18)
O12 O 0.99857(13) 0.67383(11) 0.01965(18)
C10 C 0.87807(14) 0.74835(14) 0.1832(3)
C11 C 0.62193(14) 0.75165(14) 0.3168(3)
C13 C 0.81163(13) 0.74988(15) 0.2180(2)
C14 C 0.68837(13) 0.75012(15) 0.2820(2)
C16 C 0.78608(14) 0.69428(14) 0.2479(2)
C17 C 0.71392(14) 0.80572(14) 0.2521(2)
C19 C 0.81997(17) 0.63616(17) 0.2487(3)
C20 C 0.68003(17) 0.86384(17) 0.2513(3)
H6 H 0.8606 0.6343 0.2276
H7 H 0.6394 0.8657 0.2724
C22 C 0.7932(2) 0.5831(2) 0.2803(4)
C23 C 0.7068(2) 0.9169(2) 0.2197(4)
H9 H 0.8168 0.5460 0.2826
H10 H 0.6832 0.9540 0.2174
C25 C 0.7314(2) 0.58305(18) 0.3092(4)
C26 C 0.7686(2) 0.91695(18) 0.1908(4)
H12 H 0.7139 0.5456 0.3281
H13 H 0.7861 0.9544 0.1719
C28 C 0.69685(17) 0.63644(16) 0.3099(3)
C29 C 0.80315(17) 0.86356(16) 0.1901(3)
H15 H 0.6558 0.6358 0.3300
H16 H 0.8442 0.8642 0.1700
C31 C 0.77718(13) 0.80621(13) 0.2198(2)
C32 C 0.72282(13) 0.69379(13) 0.2802(2)
Cd3 Cd -0.0000 0.2500 0.8750
Cd1_3 Cd 0.5000 0.2500 0.6250
O1_2 O 0.38450(13) 0.24567(14) 0.61035(18)
O2_2 O 0.42383(11) 0.25143(13) 0.73035(18)
C1_2 C 0.37807(14) 0.24835(14) 0.6832(3)
C2_2 C 0.31163(13) 0.24988(15) 0.7180(2)
C3_2 C 0.28608(14) 0.19428(14) 0.7479(2)
C4_2 C 0.31997(17) 0.13616(17) 0.7487(3)
H1_2 H 0.3606 0.1343 0.7276
C5_2 C 0.2932(2) 0.0831(2) 0.7803(4)
H2_2 H 0.3168 0.0460 0.7826
C6_2 C 0.2314(2) 0.08305(18) 0.8092(4)
H3_2 H 0.2139 0.0456 0.8281
C7_2 C 0.19685(17) 0.13644(16) 0.8099(3)
H4_2 H 0.1558 0.1358 0.8300
C8_2 C 0.27718(13) 0.30621(13) 0.7198(2)
Cd3_2 Cd 1.0000 0.2500 0.8750
O3_2 O 0.11550(13) 0.25433(14) 0.88965(18)
O4_2 O 0.61550(13) 0.25433(14) 0.61035(18)
O5_2 O 0.88450(13) 0.24567(14) 0.88965(18)
O6_2 O 0.50433(14) 0.13450(13) 0.63965(18)
O7_2 O 0.49567(14) 0.36550(13) 0.63965(18)
O8_2 O 0.07617(11) 0.24857(13) 0.76965(18)
O9_2 O 0.57617(11) 0.24857(13) 0.73035(18)
O10_2 O 0.92383(11) 0.25143(13) 0.76965(18)
O11_2 O 0.49857(13) 0.17383(11) 0.51965(18)
O12_2 O 0.50143(13) 0.32617(11) 0.51965(18)
C9_2 C 0.12193(14) 0.25165(14) 0.8168(3)
C10_2 C 0.62193(14) 0.25165(14) 0.6832(3)
C11_2 C 0.87807(14) 0.24835(14) 0.8168(3)
C12_2 C 0.18837(13) 0.25012(15) 0.7820(2)
C13_2 C 0.68837(13) 0.25012(15) 0.7180(2)
C14_2 C 0.81163(13) 0.24988(15) 0.7820(2)
C15_2 C 0.21392(14) 0.30572(14) 0.7521(2)
C16_2 C 0.71392(14) 0.30572(14) 0.7479(2)
C17_2 C 0.78608(14) 0.19428(14) 0.7521(2)
C18_2 C 0.18003(17) 0.36384(17) 0.7513(3)
C19_2 C 0.68003(17) 0.36384(17) 0.7487(3)
C20_2 C 0.81997(17) 0.13616(17) 0.7513(3)
H5_2 H 0.1394 0.3657 0.7724
H6_2 H 0.6394 0.3657 0.7276
H7_2 H 0.8606 0.1343 0.7724
C21_2 C 0.2068(2) 0.4169(2) 0.7197(4)
C22_2 C 0.7068(2) 0.4169(2) 0.7803(4)
C23_2 C 0.7932(2) 0.0831(2) 0.7197(4)
H8_2 H 0.1832 0.4540 0.7174
H9_2 H 0.6832 0.4540 0.7826
H10_2 H 0.8168 0.0460 0.7174
C24_2 C 0.2686(2) 0.41695(18) 0.6908(4)
C25_2 C 0.7686(2) 0.41695(18) 0.8092(4)
C26_2 C 0.7314(2) 0.08305(18) 0.6908(4)
H11_2 H 0.2861 0.4544 0.6719
H12_2 H 0.7861 0.4544 0.8281
H13_2 H 0.7139 0.0456 0.6719
C27_2 C 0.30315(17) 0.36356(16) 0.6901(3)
C28_2 C 0.80315(17) 0.36356(16) 0.8099(3)
C29_2 C 0.69685(17) 0.13644(16) 0.6901(3)
H14_2 H 0.3442 0.3642 0.6700
H15_2 H 0.8442 0.3642 0.8300
H16_2 H 0.6558 0.1358 0.6700
C30_2 C 0.22282(13) 0.19379(13) 0.7802(2)
C31_2 C 0.72282(13) 0.19379(13) 0.7198(2)
C32_2 C 0.77718(13) 0.30621(13) 0.7802(2)
C6_3 C 0.33305(18) 0.0186(2) 0.5592(4)
H3_3 H 0.2956 0.0361 0.5781
C7_3 C 0.38644(16) 0.05315(17) 0.5599(3)
H4_3 H 0.3858 0.0942 0.5800
C9_3 C 0.50165(14) 0.12807(14) 0.5668(3)
C12_3 C 0.50012(15) 0.06163(13) 0.5320(2)
C15_3 C 0.55572(14) 0.03608(14) 0.5021(2)
C18_3 C 0.61384(17) 0.06997(17) 0.5013(3)
H5_3 H 0.6157 0.1106 0.5224
C21_3 C 0.6669(2) 0.0432(2) 0.4697(4)
H8_3 H 0.7040 0.0668 0.4674
C30_3 C 0.44379(13) 0.02718(13) 0.5302(2)
O1_3 O 0.49567(14) 0.86550(13) 0.36035(18)
O2_3 O 0.50143(13) 0.82617(11) 0.48035(18)
C1_3 C 0.49835(14) 0.87193(14) 0.4332(3)
C2_3 C 0.49988(15) 0.93837(13) 0.4680(2)
C3_3 C 0.44428(14) 0.96392(14) 0.4979(2)
C4_3 C 0.38616(17) 0.93003(17) 0.4987(3)
H1_3 H 0.3843 0.8894 0.4776
C5_3 C 0.3331(2) 0.9568(2) 0.5303(4)
H2_3 H 0.2960 0.9332 0.5326
C8_3 C 0.55621(13) 0.97282(13) 0.4698(2)
O4_3 O 0.50433(14) 0.63450(13) 0.36035(18)
O9_3 O 0.49857(13) 0.67383(11) 0.48035(18)
C10_3 C 0.50165(14) 0.62807(14) 0.4332(3)
C11_3 C 0.49835(14) 0.37193(14) 0.5668(3)
C13_3 C 0.50012(15) 0.56163(13) 0.4680(2)
C14_3 C 0.49988(15) 0.43837(13) 0.5320(2)
C16_3 C 0.55572(14) 0.53608(14) 0.4979(2)
C17_3 C 0.44428(14) 0.46392(14) 0.5021(2)
C19_3 C 0.61384(17) 0.56997(17) 0.4987(3)
C20_3 C 0.38616(17) 0.43003(17) 0.5013(3)
H6_3 H 0.6157 0.6106 0.4776
H7_3 H 0.3843 0.3894 0.5224
C22_3 C 0.6669(2) 0.5432(2) 0.5303(4)
C23_3 C 0.3331(2) 0.4568(2) 0.4697(4)
H9_3 H 0.7040 0.5668 0.5326
H10_3 H 0.2960 0.4332 0.4674
C24_3 C 0.66695(18) 0.9814(2) 0.4408(4)
C25_3 C 0.66695(18) 0.4814(2) 0.5592(4)
C26_3 C 0.33305(18) 0.5186(2) 0.4408(4)
H11_3 H 0.7044 0.9639 0.4219
H12_3 H 0.7044 0.4639 0.5781
H13_3 H 0.2956 0.5361 0.4219
C27_3 C 0.61356(16) 0.94685(17) 0.4401(3)
C28_3 C 0.61356(16) 0.44685(17) 0.5599(3)
C29_3 C 0.38644(16) 0.55315(17) 0.4401(3)
H14_3 H 0.6142 0.9058 0.4200
H15_3 H 0.6142 0.4058 0.5800
H16_3 H 0.3858 0.5942 0.4200
C31_3 C 0.44379(13) 0.52718(13) 0.4698(2)
C32_3 C 0.55621(13) 0.47282(13) 0.5302(2)
C5_4 C 0.1669(2) 0.0432(2) 0.0303(4)
H2_4 H 0.2040 0.0668 0.0326
C11_4 C 0.00165(14) 0.62807(14) 0.0668(3)
C14_4 C 0.00012(15) 0.56163(13) 0.0320(2)
C17_4 C 0.05572(14) 0.53608(14) 0.0021(2)
C20_4 C 0.11384(17) 0.56997(17) 0.0013(3)
H7_4 H 0.1157 0.6106 0.0224
O1_4 O 0.00433(14) 0.13450(13) 0.86035(18)
C1_4 C 0.00165(14) 0.12807(14) 0.9332(3)
C2_4 C 0.00012(15) 0.06163(13) 0.9680(2)
C3_4 C 0.05572(14) 0.03608(14) 0.9979(2)
C4_4 C 0.11384(17) 0.06997(17) 0.9987(3)
H1_4 H 0.1157 0.1106 0.9776
O9_4 O 0.00143(13) 0.32617(11) 0.98035(18)
C23_4 C 0.1669(2) 0.5432(2) 0.9697(4)
H10_4 H 0.2040 0.5668 0.9674
C26_4 C 0.16695(18) 0.4814(2) 0.9408(4)
H13_4 H 0.2044 0.4639 0.9219
C29_4 C 0.11356(16) 0.44685(17) 0.9401(3)
H16_4 H 0.1142 0.4058 0.9200
C31_4 C 0.05621(13) 0.47282(13) 0.9698(2)
C6_4 C 0.16695(18) 0.9814(2) 0.0592(4)
H3_4 H 0.2044 0.9639 0.0781
C7_4 C 0.11356(16) 0.94685(17) 0.0599(3)
H4_4 H 0.1142 0.9058 0.0800
C30_4 C 0.05621(13) 0.97282(13) 0.0302(2)
C22_4 C 0.8331(2) 0.4568(2) 0.0303(4)
H9_4 H 0.7960 0.4332 0.0326
C25_4 C 0.83305(18) 0.5186(2) 0.0592(4)
H12_4 H 0.7956 0.5361 0.0781
C28_4 C 0.88644(16) 0.55315(17) 0.0599(3)
H15_4 H 0.8858 0.5942 0.0800
C32_4 C 0.94379(13) 0.52718(13) 0.0302(2)
O2_4 O 0.99857(13) 0.17383(11) 0.98035(18)
C8_4 C 0.94379(13) 0.02718(13) 0.9698(2)
O4_4 O 0.99567(14) 0.36550(13) 0.86035(18)
C10_4 C 0.99835(14) 0.37193(14) 0.9332(3)
C13_4 C 0.99988(15) 0.43837(13) 0.9680(2)
C16_4 C 0.94428(14) 0.46392(14) 0.9979(2)
C19_4 C 0.88616(17) 0.43003(17) 0.9987(3)
H6_4 H 0.8843 0.3894 0.9776
C24_4 C 0.83305(18) 0.0186(2) 0.9408(4)
H11_4 H 0.7956 0.0361 0.9219
C27_4 C 0.88644(16) 0.05315(17) 0.9401(3)
H14_4 H 0.8858 0.0942 0.9200
C9_4 C 0.99835(14) 0.87193(14) 0.0668(3)
C12_4 C 0.99988(15) 0.93837(13) 0.0320(2)
C15_4 C 0.94428(14) 0.96392(14) 0.0021(2)
C18_4 C 0.88616(17) 0.93003(17) 0.0013(3)
H5_4 H 0.8843 0.8894 0.0224
C21_4 C 0.8331(2) 0.9568(2) 0.9697(4)
H8_4 H 0.7960 0.9332 0.9674
Cd3_3 Cd -0.0000 0.7500 0.6250
Cd1_4 Cd 0.5000 0.7500 0.8750
O1_5 O 0.38450(13) 0.75433(14) 0.88965(18)
O2_5 O 0.42383(11) 0.74857(13) 0.76965(18)
C1_5 C 0.37807(14) 0.75165(14) 0.8168(3)
C2_5 C 0.31163(13) 0.75012(15) 0.7820(2)
C3_5 C 0.28608(14) 0.80572(14) 0.7521(2)
C4_5 C 0.31997(17) 0.86384(17) 0.7513(3)
H1_5 H 0.3606 0.8657 0.7724
C5_5 C 0.2932(2) 0.9169(2) 0.7197(4)
H2_5 H 0.3168 0.9540 0.7174
C6_5 C 0.2314(2) 0.91695(18) 0.6908(4)
H3_5 H 0.2139 0.9544 0.6719
C7_5 C 0.19685(17) 0.86356(16) 0.6901(3)
H4_5 H 0.1558 0.8642 0.6700
C8_5 C 0.27718(13) 0.69379(13) 0.7802(2)
Cd3_4 Cd 1.0000 0.7500 0.6250
O3_3 O 0.11550(13) 0.74567(14) 0.61035(18)
O4_5 O 0.61550(13) 0.74567(14) 0.88965(18)
O5_3 O 0.88450(13) 0.75433(14) 0.61035(18)
O6_3 O 0.50433(14) 0.86550(13) 0.86035(18)
O7_3 O 0.49567(14) 0.63450(13) 0.86035(18)
O8_3 O 0.07617(11) 0.75143(13) 0.73035(18)
O9_5 O 0.57617(11) 0.75143(13) 0.76965(18)
O10_3 O 0.92383(11) 0.74857(13) 0.73035(18)
O11_3 O 0.49857(13) 0.82617(11) 0.98035(18)
O12_3 O 0.50143(13) 0.67383(11) 0.98035(18)
C9_5 C 0.12193(14) 0.74835(14) 0.6832(3)
C10_5 C 0.62193(14) 0.74835(14) 0.8168(3)
C11_5 C 0.87807(14) 0.75165(14) 0.6832(3)
C12_5 C 0.18837(13) 0.74988(15) 0.7180(2)
C13_5 C 0.68837(13) 0.74988(15) 0.7820(2)
C14_5 C 0.81163(13) 0.75012(15) 0.7180(2)
C15_5 C 0.21392(14) 0.69428(14) 0.7479(2)
C16_5 C 0.71392(14) 0.69428(14) 0.7521(2)
C17_5 C 0.78608(14) 0.80572(14) 0.7479(2)
C18_5 C 0.18003(17) 0.63616(17) 0.7487(3)
C19_5 C 0.68003(17) 0.63616(17) 0.7513(3)
C20_5 C 0.81997(17) 0.86384(17) 0.7487(3)
H5_5 H 0.1394 0.6343 0.7276
H6_5 H 0.6394 0.6343 0.7724
H7_5 H 0.8606 0.8657 0.7276
C21_5 C 0.2068(2) 0.5831(2) 0.7803(4)
C22_5 C 0.7068(2) 0.5831(2) 0.7197(4)
C23_5 C 0.7932(2) 0.9169(2) 0.7803(4)
H8_5 H 0.1832 0.5460 0.7826
H9_5 H 0.6832 0.5460 0.7174
H10_5 H 0.8168 0.9540 0.7826
C24_5 C 0.2686(2) 0.58305(18) 0.8092(4)
C25_5 C 0.7686(2) 0.58305(18) 0.6908(4)
C26_5 C 0.7314(2) 0.91695(18) 0.8092(4)
H11_5 H 0.2861 0.5456 0.8281
H12_5 H 0.7861 0.5456 0.6719
H13_5 H 0.7139 0.9544 0.8281
C27_5 C 0.30315(17) 0.63644(16) 0.8099(3)
C28_5 C 0.80315(17) 0.63644(16) 0.6901(3)
C29_5 C 0.69685(17) 0.86356(16) 0.8099(3)
H14_5 H 0.3442 0.6358 0.8300
H15_5 H 0.8442 0.6358 0.6700
H16_5 H 0.6558 0.8642 0.8300
C30_5 C 0.22282(13) 0.80621(13) 0.7198(2)
C31_5 C 0.72282(13) 0.80621(13) 0.7802(2)
C32_5 C 0.77718(13) 0.69379(13) 0.7198(2)
Cd1_5 Cd -0.0000 0.2500 0.3750
O1_6 O 0.11550(13) 0.24567(14) 0.38965(18)
O2_6 O 0.07617(11) 0.25143(13) 0.26965(18)
C1_6 C 0.12193(14) 0.24835(14) 0.3168(3)
C2_6 C 0.18837(13) 0.24988(15) 0.2820(2)
C3_6 C 0.21392(14) 0.19428(14) 0.2521(2)
C4_6 C 0.18003(17) 0.13616(17) 0.2513(3)
H1_6 H 0.1394 0.1343 0.2724
C5_6 C 0.2068(2) 0.0831(2) 0.2197(4)
H2_6 H 0.1832 0.0460 0.2174
C6_6 C 0.2686(2) 0.08305(18) 0.1908(4)
H3_6 H 0.2861 0.0456 0.1719
C7_6 C 0.30315(17) 0.13644(16) 0.1901(3)
H4_6 H 0.3442 0.1358 0.1700
C8_6 C 0.22282(13) 0.30621(13) 0.2802(2)
Cd2_2 Cd 0.5000 0.2500 0.1250
O3_4 O 0.38450(13) 0.25433(14) 0.11035(18)
O7_4 O 0.00433(14) 0.36550(13) 0.36035(18)
O8_4 O 0.42383(11) 0.24857(13) 0.23035(18)
O11_4 O 0.00143(13) 0.17383(11) 0.48035(18)
C9_6 C 0.37807(14) 0.25165(14) 0.1832(3)
C12_6 C 0.31163(13) 0.25012(15) 0.2180(2)
C15_6 C 0.28608(14) 0.30572(14) 0.2479(2)
C18_6 C 0.31997(17) 0.36384(17) 0.2487(3)
H5_6 H 0.3606 0.3657 0.2276
C21_6 C 0.2932(2) 0.4169(2) 0.2803(4)
H8_6 H 0.3168 0.4540 0.2826
C24_6 C 0.2314(2) 0.41695(18) 0.3092(4)
H11_6 H 0.2139 0.4544 0.3281
C27_6 C 0.19685(17) 0.36356(16) 0.3099(3)
H14_6 H 0.1558 0.3642 0.3300
C30_6 C 0.27718(13) 0.19379(13) 0.2198(2)
Cd1_6 Cd 1.0000 0.2500 0.3750
O4_6 O 0.88450(13) 0.25433(14) 0.38965(18)
O5_4 O 0.61550(13) 0.24567(14) 0.11035(18)
O6_4 O 0.99567(14) 0.13450(13) 0.36035(18)
O9_6 O 0.92383(11) 0.24857(13) 0.26965(18)
O10_4 O 0.57617(11) 0.25143(13) 0.23035(18)
O12_4 O 0.99857(13) 0.32617(11) 0.48035(18)
C10_6 C 0.87807(14) 0.25165(14) 0.3168(3)
C11_6 C 0.62193(14) 0.24835(14) 0.1832(3)
C13_6 C 0.81163(13) 0.25012(15) 0.2820(2)
C14_6 C 0.68837(13) 0.24988(15) 0.2180(2)
C16_6 C 0.78608(14) 0.30572(14) 0.2521(2)
C17_6 C 0.71392(14) 0.19428(14) 0.2479(2)
C19_6 C 0.81997(17) 0.36384(17) 0.2513(3)
C20_6 C 0.68003(17) 0.13616(17) 0.2487(3)
H6_6 H 0.8606 0.3657 0.2724
H7_6 H 0.6394 0.1343 0.2276
C22_6 C 0.7932(2) 0.4169(2) 0.2197(4)
C23_6 C 0.7068(2) 0.0831(2) 0.2803(4)
H9_6 H 0.8168 0.4540 0.2174
H10_6 H 0.6832 0.0460 0.2826
C25_6 C 0.7314(2) 0.41695(18) 0.1908(4)
C26_6 C 0.7686(2) 0.08305(18) 0.3092(4)
H12_6 H 0.7139 0.4544 0.1719
H13_6 H 0.7861 0.0456 0.3281
C28_6 C 0.69685(17) 0.36356(16) 0.1901(3)
C29_6 C 0.80315(17) 0.13644(16) 0.3099(3)
H15_6 H 0.6558 0.3642 0.1700
H16_6 H 0.8442 0.1358 0.3300
C31_6 C 0.77718(13) 0.19379(13) 0.2802(2)
C32_6 C 0.72282(13) 0.30621(13) 0.2198(2)
C6_7 C 0.16695(18) 0.0186(2) 0.4408(4)
H3_7 H 0.2044 0.0361 0.4219
C7_7 C 0.11356(16) 0.05315(17) 0.4401(3)
H4_7 H 0.1142 0.0942 0.4200
C30_7 C 0.05621(13) 0.02718(13) 0.4698(2)
O1_7 O 0.00433(14) 0.86550(13) 0.63965(18)
C1_7 C 0.00165(14) 0.87193(14) 0.5668(3)
C2_7 C 0.00012(15) 0.93837(13) 0.5320(2)
C3_7 C 0.05572(14) 0.96392(14) 0.5021(2)
C4_7 C 0.11384(17) 0.93003(17) 0.5013(3)
H1_7 H 0.1157 0.8894 0.5224
C5_7 C 0.1669(2) 0.9568(2) 0.4697(4)
H2_7 H 0.2040 0.9332 0.4674
O9_7 O 0.00143(13) 0.67383(11) 0.51965(18)
C11_7 C 0.00165(14) 0.37193(14) 0.4332(3)
C14_7 C 0.00012(15) 0.43837(13) 0.4680(2)
C17_7 C 0.05572(14) 0.46392(14) 0.4979(2)
C20_7 C 0.11384(17) 0.43003(17) 0.4987(3)
H7_7 H 0.1157 0.3894 0.4776
C23_7 C 0.1669(2) 0.4568(2) 0.5303(4)
H10_7 H 0.2040 0.4332 0.5326
C26_7 C 0.16695(18) 0.5186(2) 0.5592(4)
H13_7 H 0.2044 0.5361 0.5781
C29_7 C 0.11356(16) 0.55315(17) 0.5599(3)
H16_7 H 0.1142 0.5942 0.5800
C31_7 C 0.05621(13) 0.52718(13) 0.5302(2)
C9_7 C 0.99835(14) 0.12807(14) 0.4332(3)
C12_7 C 0.99988(15) 0.06163(13) 0.4680(2)
C15_7 C 0.94428(14) 0.03608(14) 0.4979(2)
C18_7 C 0.88616(17) 0.06997(17) 0.4987(3)
H5_7 H 0.8843 0.1106 0.4776
C21_7 C 0.8331(2) 0.0432(2) 0.5303(4)
H8_7 H 0.7960 0.0668 0.5326
O2_7 O 0.99857(13) 0.82617(11) 0.51965(18)
C8_7 C 0.94379(13) 0.97282(13) 0.5302(2)
O4_7 O 0.99567(14) 0.63450(13) 0.63965(18)
C10_7 C 0.99835(14) 0.62807(14) 0.5668(3)
C13_7 C 0.99988(15) 0.56163(13) 0.5320(2)
C16_7 C 0.94428(14) 0.53608(14) 0.5021(2)
C19_7 C 0.88616(17) 0.56997(17) 0.5013(3)
H6_7 H 0.8843 0.6106 0.5224
C22_7 C 0.8331(2) 0.5432(2) 0.4697(4)
H9_7 H 0.7960 0.5668 0.4674
C24_7 C 0.83305(18) 0.9814(2) 0.5592(4)
C25_7 C 0.83305(18) 0.4814(2) 0.4408(4)
H11_7 H 0.7956 0.9639 0.5781
H12_7 H 0.7956 0.4639 0.4219
C27_7 C 0.88644(16) 0.94685(17) 0.5599(3)
C28_7 C 0.88644(16) 0.44685(17) 0.4401(3)
H14_7 H 0.8858 0.9058 0.5800
H15_7 H 0.8858 0.4058 0.4200
C32_7 C 0.94379(13) 0.47282(13) 0.4698(2)
O1_8 O 0.49567(14) 0.13450(13) 0.13965(18)
O2_8 O 0.50143(13) 0.17383(11) 0.01965(18)
C1_8 C 0.49835(14) 0.12807(14) 0.0668(3)
C2_8 C 0.49988(15) 0.06163(13) 0.0320(2)
C3_8 C 0.44428(14) 0.03608(14) 0.0021(2)
C4_8 C 0.38616(17) 0.06997(17) 0.0013(3)
H1_8 H 0.3843 0.1106 0.0224
C8_8 C 0.55621(13) 0.02718(13) 0.0302(2)
O4_8 O 0.50433(14) 0.36550(13) 0.13965(18)
O9_8 O 0.49857(13) 0.32617(11) 0.01965(18)
C10_8 C 0.50165(14) 0.37193(14) 0.0668(3)
C13_8 C 0.50012(15) 0.43837(13) 0.0320(2)
C16_8 C 0.55572(14) 0.46392(14) 0.0021(2)
C19_8 C 0.61384(17) 0.43003(17) 0.0013(3)
H6_8 H 0.6157 0.3894 0.0224
C23_8 C 0.3331(2) 0.5432(2) 0.0303(4)
H10_8 H 0.2960 0.5668 0.0326
C24_8 C 0.66695(18) 0.0186(2) 0.0592(4)
C26_8 C 0.33305(18) 0.4814(2) 0.0592(4)
H11_8 H 0.7044 0.0361 0.0781
H13_8 H 0.2956 0.4639 0.0781
C27_8 C 0.61356(16) 0.05315(17) 0.0599(3)
C29_8 C 0.38644(16) 0.44685(17) 0.0599(3)
H14_8 H 0.6142 0.0942 0.0800
H16_8 H 0.3858 0.4058 0.0800
C31_8 C 0.44379(13) 0.47282(13) 0.0302(2)
C5_8 C 0.3331(2) 0.0432(2) 0.9697(4)
H2_8 H 0.2960 0.0668 0.9674
C11_8 C 0.49835(14) 0.62807(14) 0.9332(3)
C14_8 C 0.49988(15) 0.56163(13) 0.9680(2)
C17_8 C 0.44428(14) 0.53608(14) 0.9979(2)
C20_8 C 0.38616(17) 0.56997(17) 0.9987(3)
H7_8 H 0.3843 0.6106 0.9776
C22_8 C 0.6669(2) 0.4568(2) 0.9697(4)
H9_8 H 0.7040 0.4332 0.9674
C25_8 C 0.66695(18) 0.5186(2) 0.9408(4)
H12_8 H 0.7044 0.5361 0.9219
C28_8 C 0.61356(16) 0.55315(17) 0.9401(3)
H15_8 H 0.6142 0.5942 0.9200
C32_8 C 0.55621(13) 0.52718(13) 0.9698(2)
C21_8 C 0.6669(2) 0.9568(2) 0.0303(4)
H8_8 H 0.7040 0.9332 0.0326
C6_8 C 0.33305(18) 0.9814(2) 0.9408(4)
H3_8 H 0.2956 0.9639 0.9219
C7_8 C 0.38644(16) 0.94685(17) 0.9401(3)
H4_8 H 0.3858 0.9058 0.9200
C9_8 C 0.50165(14) 0.87193(14) 0.9332(3)
C12_8 C 0.50012(15) 0.93837(13) 0.9680(2)
C15_8 C 0.55572(14) 0.96392(14) 0.9979(2)
C18_8 C 0.61384(17) 0.93003(17) 0.9987(3)
H5_8 H 0.6157 0.8894 0.9776
C30_8 C 0.44379(13) 0.97282(13) 0.9698(2)
loop_
_geom_bond_atom_site_label_1
_geom_bond_atom_site_label_2
_geom_bond_site_symmetry_1
_geom_bond_site_symmetry_2
Cd1 O1 1_555 1_555
O1 C1 1_555 1_555
O2 Cd1 1_555 1_555
C1 O2 1_555 1_555
C2 C1 1_555 1_555
C3 C2 1_555 1_555
C4 C3 1_555 1_555
H1 C4 1_555 1_555
C5 C4 1_555 1_555
H2 C5 1_555 1_555
C6 C5 1_555 1_555
H3 C6 1_555 1_555
C7 C6 1_555 1_555
H4 C7 1_555 1_555
C8 C2 1_555 1_555
Cd2 O3 1_555 1_555
O3 C9 1_555 1_555
O7 Cd1 1_555 1_555
O8 Cd2 1_555 1_555
O11 Cd1 1_555 1_555
C9 O8 1_555 1_555
C12 C9 1_555 1_555
C15 C8 1_555 1_555
C18 C15 1_555 1_555
H5 C18 1_555 1_555
C21 C18 1_555 1_555
H8 C21 1_555 1_555
C24 C21 1_555 1_555
H11 C24 1_555 1_555
C27 C8 1_555 1_555
H14 C27 1_555 1_555
C30 C3 1_555 1_555
C7 C30 1_555 1_555
C12 C15 1_555 1_555
C12 C30 1_555 1_555
C24 C27 1_555 1_555
Cd2 O5 1_555 1_555
O4 Cd1_2 1_555 1_555
O5 C11 1_555 1_555
O6 Cd1_2 1_555 1_555
O9 Cd1_2 1_555 1_555
O10 Cd2 1_555 1_555
O12 Cd1_2 1_555 1_555
C10 O4 1_555 1_555
C11 O10 1_555 1_555
C13 C10 1_555 1_555
C14 C11 1_555 1_555
C16 C13 1_555 1_555
C17 C14 1_555 1_555
C19 C16 1_555 1_555
C20 C17 1_555 1_555
H6 C19 1_555 1_555
H7 C20 1_555 1_555
C22 C19 1_555 1_555
C23 C20 1_555 1_555
H9 C22 1_555 1_555
H10 C23 1_555 1_555
C25 C22 1_555 1_555
C26 C23 1_555 1_555
H12 C25 1_555 1_555
H13 C26 1_555 1_555
C28 C25 1_555 1_555
C29 C26 1_555 1_555
H15 C28 1_555 1_555
H16 C29 1_555 1_555
C31 C13 1_555 1_555
C32 C14 1_555 1_555
O9 C10 1_555 1_555
C16 C32 1_555 1_555
C17 C31 1_555 1_555
C28 C32 1_555 1_555
C29 C31 1_555 1_555
Cd1_3 O1_2 1_555 1_555
O1_2 C1_2 1_555 1_555
O2_2 Cd1_3 1_555 1_555
C1_2 O2_2 1_555 1_555
C2_2 C1_2 1_555 1_555
C3_2 C2_2 1_555 1_555
C4_2 C3_2 1_555 1_555
H1_2 C4_2 1_555 1_555
C5_2 C4_2 1_555 1_555
H2_2 C5_2 1_555 1_555
C6_2 C5_2 1_555 1_555
H3_2 C6_2 1_555 1_555
C7_2 C6_2 1_555 1_555
H4_2 C7_2 1_555 1_555
C8_2 C2_2 1_555 1_555
Cd3 O3_2 1_555 1_555
Cd3_2 O5_2 1_555 1_555
O3_2 C9_2 1_555 1_555
O4_2 Cd1_3 1_555 1_555
O5_2 C11_2 1_555 1_555
O6_2 Cd1_3 1_555 1_555
O7_2 Cd1_3 1_555 1_555
O8_2 Cd3 1_555 1_555
O9_2 Cd1_3 1_555 1_555
O10_2 Cd3_2 1_555 1_555
O11_2 Cd1_3 1_555 1_555
O12_2 Cd1_3 1_555 1_555
C9_2 O8_2 1_555 1_555
C10_2 O4_2 1_555 1_555
C11_2 O10_2 1_555 1_555
C12_2 C9_2 1_555 1_555
C13_2 C10_2 1_555 1_555
C14_2 C11_2 1_555 1_555
C15_2 C8_2 1_555 1_555
C16_2 C13_2 1_555 1_555
C17_2 C14_2 1_555 1_555
C18_2 C15_2 1_555 1_555
C19_2 C16_2 1_555 1_555
C20_2 C17_2 1_555 1_555
H5_2 C18_2 1_555 1_555
H6_2 C19_2 1_555 1_555
H7_2 C20_2 1_555 1_555
C21_2 C18_2 1_555 1_555
C22_2 C19_2 1_555 1_555
C23_2 C20_2 1_555 1_555
H8_2 C21_2 1_555 1_555
H9_2 C22_2 1_555 1_555
H10_2 C23_2 1_555 1_555
C24_2 C21_2 1_555 1_555
C25_2 C22_2 1_555 1_555
C26_2 C23_2 1_555 1_555
H11_2 C24_2 1_555 1_555
H12_2 C25_2 1_555 1_555
H13_2 C26_2 1_555 1_555
C27_2 C8_2 1_555 1_555
C28_2 C25_2 1_555 1_555
C29_2 C26_2 1_555 1_555
H14_2 C27_2 1_555 1_555
H15_2 C28_2 1_555 1_555
H16_2 C29_2 1_555 1_555
C30_2 C3_2 1_555 1_555
C31_2 C13_2 1_555 1_555
C32_2 C14_2 1_555 1_555
C7_2 C30_2 1_555 1_555
O9_2 C10_2 1_555 1_555
C12_2 C15_2 1_555 1_555
C12_2 C30_2 1_555 1_555
C16_2 C32_2 1_555 1_555
C17_2 C31_2 1_555 1_555
C24_2 C27_2 1_555 1_555
C28_2 C32_2 1_555 1_555
C29_2 C31_2 1_555 1_555
H3_3 C6_3 1_555 1_555
C7_3 C6_3 1_555 1_555
H4_3 C7_3 1_555 1_555
O6_2 C9_3 1_555 1_555
C9_3 O11_2 1_555 1_555
C12_3 C9_3 1_555 1_555
C18_3 C15_3 1_555 1_555
H5_3 C18_3 1_555 1_555
C21_3 C18_3 1_555 1_555
H8_3 C21_3 1_555 1_555
C7_3 C30_3 1_555 1_555
C12_3 C15_3 1_555 1_555
C12_3 C30_3 1_555 1_555
Cd2 O1_3 1_555 1_555
O1_3 C1_3 1_555 1_555
O2_3 Cd2 1_555 1_555
C1_3 O2_3 1_555 1_555
C2_3 C1_3 1_555 1_555
C3_3 C2_3 1_555 1_555
C4_3 C3_3 1_555 1_555
H1_3 C4_3 1_555 1_555
C5_3 C4_3 1_555 1_555
H2_3 C5_3 1_555 1_555
C8_3 C2_3 1_555 1_555
O4_3 Cd2 1_555 1_555
O7_2 C11_3 1_555 1_555
O9_3 Cd2 1_555 1_555
C10_3 O4_3 1_555 1_555
C11_3 O12_2 1_555 1_555
C13_3 C10_3 1_555 1_555
C14_3 C11_3 1_555 1_555
C16_3 C13_3 1_555 1_555
C17_3 C14_3 1_555 1_555
C19_3 C16_3 1_555 1_555
C20_3 C17_3 1_555 1_555
H6_3 C19_3 1_555 1_555
H7_3 C20_3 1_555 1_555
C22_3 C19_3 1_555 1_555
C23_3 C20_3 1_555 1_555
H9_3 C22_3 1_555 1_555
H10_3 C23_3 1_555 1_555
C25_3 C22_3 1_555 1_555
C26_3 C23_3 1_555 1_555
H11_3 C24_3 1_555 1_555
H12_3 C25_3 1_555 1_555
H13_3 C26_3 1_555 1_555
C27_3 C8_3 1_555 1_555
C28_3 C25_3 1_555 1_555
C29_3 C26_3 1_555 1_555
H14_3 C27_3 1_555 1_555
H15_3 C28_3 1_555 1_555
H16_3 C29_3 1_555 1_555
C31_3 C13_3 1_555 1_555
C32_3 C14_3 1_555 1_555
O9_3 C10_3 1_555 1_555
C16_3 C32_3 1_555 1_555
C17_3 C31_3 1_555 1_555
C24_3 C27_3 1_555 1_555
C28_3 C32_3 1_555 1_555
C29_3 C31_3 1_555 1_555
H2_4 C5_4 1_555 1_555
O7 C11_4 1_555 1_555
C14_4 C11_4 1_555 1_555
C17_4 C14_4 1_555 1_555
C20_4 C17_4 1_555 1_555
H7_4 C20_4 1_555 1_555
Cd3 O1_4 1_555 1_555
O1_4 C1_4 1_555 1_555
C2_4 C1_4 1_555 1_555
C3_4 C2_4 1_555 1_555
C4_4 C3_4 1_555 1_555
H1_4 C4_4 1_555 1_555
O9_4 Cd3 1_555 1_555
H10_4 C23_4 1_555 1_555
C26_4 C23_4 1_555 1_555
H13_4 C26_4 1_555 1_555
C29_4 C26_4 1_555 1_555
H16_4 C29_4 1_555 1_555
C29_4 C31_4 1_555 1_555
H3_4 C6_4 1_555 1_555
C7_4 C6_4 1_555 1_555
H4_4 C7_4 1_555 1_555
C7_4 C30_4 1_555 1_555
H9_4 C22_4 1_555 1_555
C25_4 C22_4 1_555 1_555
H12_4 C25_4 1_555 1_555
C28_4 C25_4 1_555 1_555
H15_4 C28_4 1_555 1_555
C28_4 C32_4 1_555 1_555
O2_4 Cd3_2 1_555 1_555
O4_4 Cd3_2 1_555 1_555
C10_4 O4_4 1_555 1_555
C13_4 C10_4 1_555 1_555
C16_4 C13_4 1_555 1_555
C19_4 C16_4 1_555 1_555
H6_4 C19_4 1_555 1_555
H11_4 C24_4 1_555 1_555
C27_4 C8_4 1_555 1_555
H14_4 C27_4 1_555 1_555
C24_4 C27_4 1_555 1_555
O6 C9_4 1_555 1_555
C12_4 C9_4 1_555 1_555
C18_4 C15_4 1_555 1_555
H5_4 C18_4 1_555 1_555
C12_4 C15_4 1_555 1_555
H8_4 C21_4 1_555 1_555
Cd1_4 O1_5 1_555 1_555
O1_5 C1_5 1_555 1_555
O2_5 Cd1_4 1_555 1_555
C1_5 O2_5 1_555 1_555
C2_5 C1_5 1_555 1_555
C3_5 C2_5 1_555 1_555
C4_5 C3_5 1_555 1_555
H1_5 C4_5 1_555 1_555
C5_5 C4_5 1_555 1_555
H2_5 C5_5 1_555 1_555
C6_5 C5_5 1_555 1_555
H3_5 C6_5 1_555 1_555
C7_5 C6_5 1_555 1_555
H4_5 C7_5 1_555 1_555
C8_5 C2_5 1_555 1_555
Cd3_3 O3_3 1_555 1_555
Cd3_4 O5_3 1_555 1_555
O3_3 C9_5 1_555 1_555
O4_5 Cd1_4 1_555 1_555
O5_3 C11_5 1_555 1_555
O6_3 Cd1_4 1_555 1_555
O7_3 Cd1_4 1_555 1_555
O8_3 Cd3_3 1_555 1_555
O9_5 Cd1_4 1_555 1_555
O10_3 Cd3_4 1_555 1_555
O11_3 Cd1_4 1_555 1_555
O12_3 Cd1_4 1_555 1_555
C9_5 O8_3 1_555 1_555
C10_5 O4_5 1_555 1_555
C11_5 O10_3 1_555 1_555
C12_5 C9_5 1_555 1_555
C13_5 C10_5 1_555 1_555
C14_5 C11_5 1_555 1_555
C15_5 C8_5 1_555 1_555
C16_5 C13_5 1_555 1_555
C17_5 C14_5 1_555 1_555
C18_5 C15_5 1_555 1_555
C19_5 C16_5 1_555 1_555
C20_5 C17_5 1_555 1_555
H5_5 C18_5 1_555 1_555
H6_5 C19_5 1_555 1_555
H7_5 C20_5 1_555 1_555
C21_5 C18_5 1_555 1_555
C22_5 C19_5 1_555 1_555
C23_5 C20_5 1_555 1_555
H8_5 C21_5 1_555 1_555
H9_5 C22_5 1_555 1_555
H10_5 C23_5 1_555 1_555
C24_5 C21_5 1_555 1_555
C25_5 C22_5 1_555 1_555
C26_5 C23_5 1_555 1_555
H11_5 C24_5 1_555 1_555
H12_5 C25_5 1_555 1_555
H13_5 C26_5 1_555 1_555
C27_5 C8_5 1_555 1_555
C28_5 C25_5 1_555 1_555
C29_5 C26_5 1_555 1_555
H14_5 C27_5 1_555 1_555
H15_5 C28_5 1_555 1_555
H16_5 C29_5 1_555 1_555
C30_5 C3_5 1_555 1_555
C31_5 C13_5 1_555 1_555
C32_5 C14_5 1_555 1_555
C7_5 C30_5 1_555 1_555
O9_5 C10_5 1_555 1_555
C12_5 C15_5 1_555 1_555
C12_5 C30_5 1_555 1_555
C16_5 C32_5 1_555 1_555
C17_5 C31_5 1_555 1_555
C24_5 C27_5 1_555 1_555
C28_5 C32_5 1_555 1_555
C29_5 C31_5 1_555 1_555
Cd1_5 O1_6 1_555 1_555
O1_6 C1_6 1_555 1_555
O2_6 Cd1_5 1_555 1_555
C1_6 O2_6 1_555 1_555
C2_6 C1_6 1_555 1_555
C3_6 C2_6 1_555 1_555
C4_6 C3_6 1_555 1_555
H1_6 C4_6 1_555 1_555
C5_6 C4_6 1_555 1_555
H2_6 C5_6 1_555 1_555
C6_6 C5_6 1_555 1_555
H3_6 C6_6 1_555 1_555
C7_6 C6_6 1_555 1_555
H4_6 C7_6 1_555 1_555
C8_6 C2_6 1_555 1_555
Cd2_2 O3_4 1_555 1_555
O3_4 C9_6 1_555 1_555
O7_4 Cd1_5 1_555 1_555
O8_4 Cd2_2 1_555 1_555
O11_4 Cd1_5 1_555 1_555
C9_6 O8_4 1_555 1_555
C12_6 C9_6 1_555 1_555
C15_6 C8_6 1_555 1_555
C18_6 C15_6 1_555 1_555
H5_6 C18_6 1_555 1_555
C21_6 C18_6 1_555 1_555
H8_6 C21_6 1_555 1_555
C24_6 C21_6 1_555 1_555
H11_6 C24_6 1_555 1_555
C27_6 C8_6 1_555 1_555
H14_6 C27_6 1_555 1_555
C30_6 C3_6 1_555 1_555
C7_6 C30_6 1_555 1_555
C12_6 C15_6 1_555 1_555
C12_6 C30_6 1_555 1_555
C24_6 C27_6 1_555 1_555
Cd2_2 O5_4 1_555 1_555
O4_6 Cd1_6 1_555 1_555
O5_4 C11_6 1_555 1_555
O6_4 Cd1_6 1_555 1_555
O9_6 Cd1_6 1_555 1_555
O10_4 Cd2_2 1_555 1_555
O12_4 Cd1_6 1_555 1_555
C10_6 O4_6 1_555 1_555
C11_6 O10_4 1_555 1_555
C13_6 C10_6 1_555 1_555
C14_6 C11_6 1_555 1_555
C16_6 C13_6 1_555 1_555
C17_6 C14_6 1_555 1_555
C19_6 C16_6 1_555 1_555
C20_6 C17_6 1_555 1_555
H6_6 C19_6 1_555 1_555
H7_6 C20_6 1_555 1_555
C22_6 C19_6 1_555 1_555
C23_6 C20_6 1_555 1_555
H9_6 C22_6 1_555 1_555
H10_6 C23_6 1_555 1_555
C25_6 C22_6 1_555 1_555
C26_6 C23_6 1_555 1_555
H12_6 C25_6 1_555 1_555
H13_6 C26_6 1_555 1_555
C28_6 C25_6 1_555 1_555
C29_6 C26_6 1_555 1_555
H15_6 C28_6 1_555 1_555
H16_6 C29_6 1_555 1_555
C31_6 C13_6 1_555 1_555
C32_6 C14_6 1_555 1_555
O9_6 C10_6 1_555 1_555
C16_6 C32_6 1_555 1_555
C17_6 C31_6 1_555 1_555
C28_6 C32_6 1_555 1_555
C29_6 C31_6 1_555 1_555
H3_7 C6_7 1_555 1_555
C7_7 C6_7 1_555 1_555
H4_7 C7_7 1_555 1_555
C7_7 C30_7 1_555 1_555
Cd3_3 O1_7 1_555 1_555
O1_7 C1_7 1_555 1_555
C2_7 C1_7 1_555 1_555
C3_7 C2_7 1_555 1_555
C4_7 C3_7 1_555 1_555
H1_7 C4_7 1_555 1_555
C5_7 C4_7 1_555 1_555
H2_7 C5_7 1_555 1_555
O7_4 C11_7 1_555 1_555
O9_7 Cd3_3 1_555 1_555
C14_7 C11_7 1_555 1_555
C17_7 C14_7 1_555 1_555
C20_7 C17_7 1_555 1_555
H7_7 C20_7 1_555 1_555
C23_7 C20_7 1_555 1_555
H10_7 C23_7 1_555 1_555
C26_7 C23_7 1_555 1_555
H13_7 C26_7 1_555 1_555
C29_7 C26_7 1_555 1_555
H16_7 C29_7 1_555 1_555
C17_7 C31_7 1_555 1_555
C29_7 C31_7 1_555 1_555
O6_4 C9_7 1_555 1_555
C12_7 C9_7 1_555 1_555
C18_7 C15_7 1_555 1_555
H5_7 C18_7 1_555 1_555
C21_7 C18_7 1_555 1_555
H8_7 C21_7 1_555 1_555
C12_7 C15_7 1_555 1_555
O2_7 Cd3_4 1_555 1_555
O4_7 Cd3_4 1_555 1_555
C10_7 O4_7 1_555 1_555
C13_7 C10_7 1_555 1_555
C16_7 C13_7 1_555 1_555
C19_7 C16_7 1_555 1_555
H6_7 C19_7 1_555 1_555
C22_7 C19_7 1_555 1_555
H9_7 C22_7 1_555 1_555
C25_7 C22_7 1_555 1_555
H11_7 C24_7 1_555 1_555
H12_7 C25_7 1_555 1_555
C27_7 C8_7 1_555 1_555
C28_7 C25_7 1_555 1_555
H14_7 C27_7 1_555 1_555
H15_7 C28_7 1_555 1_555
C16_7 C32_7 1_555 1_555
C24_7 C27_7 1_555 1_555
C28_7 C32_7 1_555 1_555
Cd2_2 O1_8 1_555 1_555
O1_8 C1_8 1_555 1_555
O2_8 Cd2_2 1_555 1_555
C1_8 O2_8 1_555 1_555
C2_8 C1_8 1_555 1_555
C3_8 C2_8 1_555 1_555
C4_8 C3_8 1_555 1_555
H1_8 C4_8 1_555 1_555
C8_8 C2_8 1_555 1_555
O4_8 Cd2_2 1_555 1_555
O9_8 Cd2_2 1_555 1_555
C10_8 O4_8 1_555 1_555
C13_8 C10_8 1_555 1_555
C16_8 C13_8 1_555 1_555
C19_8 C16_8 1_555 1_555
H6_8 C19_8 1_555 1_555
H10_8 C23_8 1_555 1_555
C26_8 C23_8 1_555 1_555
H11_8 C24_8 1_555 1_555
H13_8 C26_8 1_555 1_555
C27_8 C8_8 1_555 1_555
C29_8 C26_8 1_555 1_555
H14_8 C27_8 1_555 1_555
H16_8 C29_8 1_555 1_555
C31_8 C13_8 1_555 1_555
O9_8 C10_8 1_555 1_555
C24_8 C27_8 1_555 1_555
C29_8 C31_8 1_555 1_555
H2_8 C5_8 1_555 1_555
O7_3 C11_8 1_555 1_555
C11_8 O12_3 1_555 1_555
C14_8 C11_8 1_555 1_555
C17_8 C14_8 1_555 1_555
C20_8 C17_8 1_555 1_555
H7_8 C20_8 1_555 1_555
H9_8 C22_8 1_555 1_555
C25_8 C22_8 1_555 1_555
H12_8 C25_8 1_555 1_555
C28_8 C25_8 1_555 1_555
H15_8 C28_8 1_555 1_555
C32_8 C14_8 1_555 1_555
C28_8 C32_8 1_555 1_555
H8_8 C21_8 1_555 1_555
H3_8 C6_8 1_555 1_555
C7_8 C6_8 1_555 1_555
H4_8 C7_8 1_555 1_555
O6_3 C9_8 1_555 1_555
C9_8 O11_3 1_555 1_555
C12_8 C9_8 1_555 1_555
C18_8 C15_8 1_555 1_555
H5_8 C18_8 1_555 1_555
C7_8 C30_8 1_555 1_555
C12_8 C15_8 1_555 1_555
C12_8 C30_8 1_555 1_555

#END
