
###############################################################################
#
# This file contains modified crystal structure data generated from the
# MOF subset of the Cambridge Structural Database (CSD) v543 
# hosted by the Cambridge Crystallographic Data Centre (CCDC).
#
# This work is licensed under the Creative Commons
# Attribution-NonCommercial-ShareAlike 4.0 International License.
# To view a copy of this license, visit
# http://creativecommons.org/licenses/by-nc-sa/4.0/
# or send a letter to
# Creative Commons, PO Box 1866, Mountain View, CA 94042, USA.
#
# CIF created using the CSD Python API on 29 September 2022
# The structure has been converted into the P1 space group
# The structure has a 3D framework
# The original CSD entry YAQZAT is in the monoclinic crystal system
# The framework has been calculated to contain at least 10.0% void space
# The void calculation uses a probe of radius 1.32A, grid spacing 0.4
# The framework is charged, counterions have been retained in the structure
# H atom positions have been added when not included in the experimental data
#
###############################################################################

data_YAQZAT
_chemical_formula_moiety         '(C40 H32 N4 O49 U8 1+)n'
_symmetry_cell_setting           triclinic
_symmetry_space_group_name_H-M   'P 1'
_symmetry_Int_Tables_number      1
_space_group_name_Hall           'P 1'
loop_
_symmetry_equiv_pos_site_id
_symmetry_equiv_pos_as_xyz
1 x,y,z
_cell_length_a                   9.1844(2)
_cell_length_b                   21.6150(5)
_cell_length_c                   11.5401(2)
_cell_angle_alpha                90
_cell_angle_beta                 112.7010(10)
_cell_angle_gamma                90
_cell_volume                     2113.47
loop_
_atom_site_label
_atom_site_type_symbol
_atom_site_fract_x
_atom_site_fract_y
_atom_site_fract_z
U1 U 0.29255(4) 0.246273(14) 0.27919(3)
O2 O 0.1163(7) 0.3360(3) 0.2285(6)
O4 O 0.1270(8) 0.1970(3) 0.2294(6)
O5 O 0.4572(8) 0.2964(3) 0.3283(6)
O15 O 0.4809(7) 0.1611(3) 0.3339(6)
O16 O 0.2466(9) 0.2930(3) 0.4601(6)
O18 O 0.2359(8) 0.2943(3) 0.0685(6)
O19 O 0.3387(9) 0.2019(3) 0.0966(6)
O20 O 0.3491(8) 0.2006(3) 0.4921(6)
O1 O 0.6900(14) 0.0008(3) 0.2002(10)
O7 O 0.6812(8) 0.0996(3) 0.3514(7)
O8 O 0.9187(9) 0.3996(3) 0.2081(7)
O9 O 0.7359(8) 0.2057(3) 0.5685(6)
O11 O 0.8387(9) 0.2981(3) 0.5966(6)
O12 O 0.3941(9) 0.0153(3) 0.2532(7)
C1 C 0.7872(11) 0.2502(4) 0.5268(8)
C2 C 0.8003(11) 0.2530(4) 0.0297(8)
C3 C 0.9795(11) 0.3469(4) 0.2239(8)
C4 C 0.6153(11) 0.1525(4) 0.3353(8)
C5 C 0.7899(11) 0.2497(4) 0.3984(9)
C6 C 0.8012(11) 0.2512(4) 0.1613(9)
C7 C 0.7097(11) 0.2039(4) 0.3100(8)
C8 C 0.8833(10) 0.2961(4) 0.2498(8)
C9 C 0.8755(10) 0.2948(4) 0.3662(8)
H1 H 0.9289 0.3248 0.4249
C10 C 0.7162(11) 0.2059(4) 0.1920(8)
H2 H 0.6625 0.1762 0.1325
U5 U 0.79255(4) 0.253727(14) 0.77919(3)
U6 U 0.91692(4) 0.499500(14) 0.13045(3)
U7 U 0.41692(4) 0.000500(14) 0.63045(3)
O21 O 0.5326(9) 0.0595(3) 0.5188(6)
H3 H 0.845895 0.0178546 0.484695
O6 O 0.7466(9) 0.2070(3) 0.9601(6)
O13 O 0.8491(8) 0.2994(3) 0.9921(6)
U2 U 0.58308(4) 0.999500(14) 0.36955(3)
O10 O 0.7729(9) 0.9838(3) 0.4838(7)
O14 O 0.4674(9) 0.9405(3) 0.4812(6)
O17 O 0.5813(9) 0.8996(3) 0.2919(7)
H4 H 0.767142 0.980482 0.56775
O3 O 0.0191(7) 0.6611(3) 0.1661(6)
O12_2 O 0.1059(9) 0.5153(3) 0.2468(7)
O14_2 O 0.0326(9) 0.4405(3) 0.0188(6)
U3 U 0.20745(4) 0.746273(14) 0.22081(3)
U7_2 U 0.08308(4) 0.500500(14) 0.86955(3)
O1_2 O 0.8100(14) 0.5008(3) 0.2998(10)
O2_2 O 0.3837(7) 0.8360(3) 0.2715(6)
O4_2 O 0.3730(8) 0.6970(3) 0.2706(6)
O5_2 O 0.0428(8) 0.7964(3) 0.1717(6)
O6_2 O 0.7534(9) 0.7070(3) 0.5399(6)
O7_2 O 0.8188(8) 0.5996(3) 0.1486(7)
O10_2 O 0.7271(9) 0.4838(3) 0.0162(7)
O13_2 O 0.6509(8) 0.7994(3) 0.5079(6)
C2_2 C 0.6997(11) 0.7530(4) 0.4703(8)
C3_2 C 0.5205(11) 0.8469(4) 0.2761(8)
C4_2 C 0.8847(11) 0.6525(4) 0.1647(8)
C5_2 C 0.7101(11) 0.7497(4) 0.1016(9)
C6_2 C 0.6988(11) 0.7512(4) 0.3387(9)
C7_2 C 0.7903(11) 0.7039(4) 0.1900(8)
C8_2 C 0.6167(10) 0.7961(4) 0.2502(8)
C9_2 C 0.6245(10) 0.7948(4) 0.1338(8)
H1_2 H 0.5711 0.8248 0.0751
C10_2 C 0.7838(11) 0.7059(4) 0.3080(8)
H2_2 H 0.8375 0.6762 0.3675
U4 U 0.70745(4) 0.753727(14) 0.72081(3)
O16_2 O 0.2534(9) 0.7930(3) 0.0399(6)
O18_2 O 0.2641(8) 0.7943(3) 0.4315(6)
O19_2 O 0.1613(9) 0.7019(3) 0.4034(6)
O20_2 O 0.1509(8) 0.7006(3) 0.0079(6)
H3_2 H 0.654105 0.517855 0.015305
O9_2 O 0.7641(8) 0.7057(3) 0.9315(6)
O11_2 O 0.6613(9) 0.7981(3) 0.9034(6)
C1_2 C 0.7128(11) 0.7502(4) 0.9732(8)
O21_2 O 0.9674(9) 0.5595(3) 0.9812(6)
H4_2 H 0.732858 0.480482 0.93225
O10_3 O 0.2271(9) 0.0162(3) 0.5162(7)
O17_2 O 0.4187(9) 0.1004(3) 0.7081(7)
H4_3 H 0.232858 0.0195178 0.43225
O1_3 O 0.3100(14) 0.9992(3) 0.7998(10)
O3_2 O 0.5191(7) 0.8389(3) 0.6661(6)
O7_3 O 0.3188(8) 0.9004(3) 0.6486(7)
O8_2 O 0.0813(9) 0.6004(3) 0.7919(7)
O12_3 O 0.6059(9) 0.9847(3) 0.7468(7)
C1_3 C 0.2128(11) 0.7498(4) 0.4732(8)
C2_3 C 0.1997(11) 0.7470(4) 0.9703(8)
C3_3 C 0.0205(11) 0.6531(4) 0.7761(8)
C4_3 C 0.3847(11) 0.8475(4) 0.6647(8)
C5_3 C 0.2101(11) 0.7503(4) 0.6016(9)
C6_3 C 0.1988(11) 0.7488(4) 0.8387(9)
C7_3 C 0.2903(11) 0.7961(4) 0.6900(8)
C8_3 C 0.1167(10) 0.7039(4) 0.7502(8)
C9_3 C 0.1245(10) 0.7052(4) 0.6338(8)
H1_3 H 0.0711 0.6752 0.5751
C10_3 C 0.2838(11) 0.7941(4) 0.8080(8)
H2_3 H 0.3375 0.8238 0.8675
H3_3 H 0.154105 0.982145 0.515305
O2_3 O 0.8837(7) 0.6640(3) 0.7715(6)
O4_3 O 0.8730(8) 0.8030(3) 0.7706(6)
O5_3 O 0.5428(8) 0.7036(3) 0.6717(6)
C1_4 C 0.2872(11) 0.2498(4) 0.0268(8)
H4_4 H 0.267142 0.519518 0.0677503
O1_4 O 0.1900(14) 0.4992(3) 0.7002(10)
O2_4 O 0.6163(7) 0.1640(3) 0.7285(6)
O4_4 O 0.6270(8) 0.3030(3) 0.7294(6)
O5_4 O 0.9572(8) 0.2036(3) 0.8283(6)
O7_4 O 0.1812(8) 0.4004(3) 0.8514(7)
O10_4 O 0.2729(9) 0.5162(3) 0.9838(7)
C2_4 C 0.3003(11) 0.2470(4) 0.5297(8)
C3_4 C 0.4795(11) 0.1531(4) 0.7239(8)
C4_4 C 0.1153(11) 0.3475(4) 0.8353(8)
C5_4 C 0.2899(11) 0.2503(4) 0.8984(9)
C6_4 C 0.3012(11) 0.2488(4) 0.6613(9)
C7_4 C 0.2097(11) 0.2961(4) 0.8100(8)
C8_4 C 0.3833(10) 0.2039(4) 0.7498(8)
C9_4 C 0.3755(10) 0.2052(4) 0.8662(8)
H1_4 H 0.4289 0.1752 0.9249
C10_4 C 0.2162(11) 0.2941(4) 0.6920(8)
H2_4 H 0.1625 0.3238 0.6325
O15_2 O 0.9809(7) 0.3389(3) 0.8339(6)
H3_4 H 0.345895 0.482145 0.984695
O12_4 O 0.8941(9) 0.4847(3) 0.7532(7)
N1 N 0.3681(16) 0.4247(6) 0.2052(13)
H5 H 0.478613 0.4247 0.2052
H6 H 0.309469 0.463041 0.160256
H7 H 0.309469 0.386359 0.160256
H8 H 0.374849 0.4247 0.295087
N1_2 N 0.1319(16) 0.9247(6) 0.2948(13)
H5_2 H 0.0213865 0.9247 0.2948
H6_2 H 0.190531 0.963041 0.339744
H7_2 H 0.190531 0.886359 0.339744
H8_2 H 0.125151 0.9247 0.204913
N1_3 N 0.6319(16) 0.5753(6) 0.7948(13)
H5_3 H 0.521387 0.5753 0.7948
H6_3 H 0.690531 0.536959 0.839744
H7_3 H 0.690531 0.613641 0.839744
H8_3 H 0.625151 0.5753 0.704913
N1_4 N 0.8681(16) 0.0753(6) 0.7052(13)
H5_4 H 0.978613 0.0753 0.7052
H6_4 H 0.809469 0.0369588 0.660256
H7_4 H 0.809469 0.113641 0.660256
H8_4 H 0.874849 0.0753 0.795087
loop_
_geom_bond_atom_site_label_1
_geom_bond_atom_site_label_2
_geom_bond_site_symmetry_1
_geom_bond_site_symmetry_2
U1 O2 1_555 1_555
O4 U1 1_555 1_555
O5 U1 1_555 1_555
O15 U1 1_555 1_555
O16 U1 1_555 1_555
O18 U1 1_555 1_555
O19 U1 1_555 1_555
O20 U1 1_555 1_555
O15 C4 1_555 1_555
O8 C3 1_555 1_555
O9 C1 1_555 1_555
O11 C1 1_555 1_555
C1 C5 1_555 1_555
C2 C6 1_555 1_555
C3 C8 1_555 1_555
C4 O7 1_555 1_555
C5 C7 1_555 1_555
C6 C8 1_555 1_555
C7 C4 1_555 1_555
C8 C9 1_555 1_555
C9 C5 1_555 1_555
H1 C9 1_555 1_555
C10 C6 1_555 1_555
H2 C10 1_555 1_555
U5 O9 1_555 1_555
U6 O8 1_555 1_555
O11 U5 1_555 1_555
C7 C10 1_555 1_555
U7 O21 1_555 1_555
U5 O6 1_555 1_555
O13 U5 1_555 1_555
O10 U2 1_555 1_555
O14 U2 1_555 1_555
O17 U2 1_555 1_555
O10 H4 1_555 1_555
U3 O3 1_555 1_555
U3 O2_2 1_555 1_555
U6 O1_2 1_555 1_555
O2_2 C3_2 1_555 1_555
O4_2 U3 1_555 1_555
O5_2 U3 1_555 1_555
O6_2 C2_2 1_555 1_555
O7_2 U6 1_555 1_555
O17 C3_2 1_555 1_555
O10_2 U6 1_555 1_555
O13_2 C2_2 1_555 1_555
C2_2 C6_2 1_555 1_555
C3_2 C8_2 1_555 1_555
C4_2 O7_2 1_555 1_555
C5_2 C7_2 1_555 1_555
C6_2 C8_2 1_555 1_555
C7_2 C4_2 1_555 1_555
C8_2 C9_2 1_555 1_555
C9_2 C5_2 1_555 1_555
H1_2 C9_2 1_555 1_555
C10_2 C6_2 1_555 1_555
H2_2 C10_2 1_555 1_555
U4 O6_2 1_555 1_555
O16_2 U3 1_555 1_555
O18_2 U3 1_555 1_555
O19_2 U3 1_555 1_555
O20_2 U3 1_555 1_555
O13_2 U4 1_555 1_555
C7_2 C10_2 1_555 1_555
O10_2 H3_2 1_555 1_555
O9_2 C1_2 1_555 1_555
O11_2 C1_2 1_555 1_555
U4 O9_2 1_555 1_555
O11_2 U4 1_555 1_555
O10_3 U7 1_555 1_555
O17_2 U7 1_555 1_555
O10_3 H4_3 1_555 1_555
O3_2 C4_3 1_555 1_555
O8_2 C3_3 1_555 1_555
O18_2 C1_3 1_555 1_555
O19_2 C1_3 1_555 1_555
C1_3 C5_3 1_555 1_555
C2_3 C6_3 1_555 1_555
C3_3 C8_3 1_555 1_555
C4_3 O7_3 1_555 1_555
C5_3 C7_3 1_555 1_555
C6_3 C8_3 1_555 1_555
C7_3 C4_3 1_555 1_555
C8_3 C9_3 1_555 1_555
C9_3 C5_3 1_555 1_555
H1_3 C9_3 1_555 1_555
C10_3 C6_3 1_555 1_555
H2_3 C10_3 1_555 1_555
U4 O3_2 1_555 1_555
U7_2 O8_2 1_555 1_555
C7_3 C10_3 1_555 1_555
U4 O2_3 1_555 1_555
O4_3 U4 1_555 1_555
O5_3 U4 1_555 1_555
O18 C1_4 1_555 1_555
O19 C1_4 1_555 1_555
U5 O2_4 1_555 1_555
U7_2 O1_4 1_555 1_555
O2_4 C3_4 1_555 1_555
O4_4 U5 1_555 1_555
O5_4 U5 1_555 1_555
O16 C2_4 1_555 1_555
O7_4 U7_2 1_555 1_555
O17_2 C3_4 1_555 1_555
O10_4 U7_2 1_555 1_555
O20 C2_4 1_555 1_555
C2_4 C6_4 1_555 1_555
C3_4 C8_4 1_555 1_555
C4_4 O7_4 1_555 1_555
C5_4 C7_4 1_555 1_555
C6_4 C8_4 1_555 1_555
C7_4 C4_4 1_555 1_555
C8_4 C9_4 1_555 1_555
C9_4 C5_4 1_555 1_555
H1_4 C9_4 1_555 1_555
C10_4 C6_4 1_555 1_555
H2_4 C10_4 1_555 1_555
O15_2 U5 1_555 1_555
C7_4 C10_4 1_555 1_555
O10_4 H3_4 1_555 1_555
N1 H5 1_555 1_555
N1 H6 1_555 1_555
N1 H7 1_555 1_555
N1 H8 1_555 1_555
N1_2 H5_2 1_555 1_555
N1_2 H6_2 1_555 1_555
N1_2 H7_2 1_555 1_555
N1_2 H8_2 1_555 1_555
N1_3 H5_3 1_555 1_555
N1_3 H6_3 1_555 1_555
N1_3 H7_3 1_555 1_555
N1_3 H8_3 1_555 1_555
N1_4 H5_4 1_555 1_555
N1_4 H6_4 1_555 1_555
N1_4 H7_4 1_555 1_555
N1_4 H8_4 1_555 1_555

#END
