
###############################################################################
#
# This file contains modified crystal structure data generated from the
# MOF subset of the Cambridge Structural Database (CSD) v543 
# hosted by the Cambridge Crystallographic Data Centre (CCDC).
#
# This work is licensed under the Creative Commons
# Attribution-NonCommercial-ShareAlike 4.0 International License.
# To view a copy of this license, visit
# http://creativecommons.org/licenses/by-nc-sa/4.0/
# or send a letter to
# Creative Commons, PO Box 1866, Mountain View, CA 94042, USA.
#
# CIF created using the CSD Python API on 29 September 2022
# The structure has been converted into the P1 space group
# The structure has a 3D framework
# The original CSD entry YAQZEX is in the orthorhombic crystal system
# The framework has been calculated to contain at least 10.0% void space
# The void calculation uses a probe of radius 1.32A, grid spacing 0.4
# The framework is charged, counterions have been retained in the structure
# H atom positions have been added when not included in the experimental data
#
###############################################################################

data_YAQZEX
_chemical_formula_moiety         '(C66 H50 N8 O111 U24 3-)n'
_symmetry_cell_setting           triclinic
_symmetry_space_group_name_H-M   'P 1'
_symmetry_Int_Tables_number      1
_space_group_name_Hall           'P 1'
loop_
_symmetry_equiv_pos_site_id
_symmetry_equiv_pos_as_xyz
1 x,y,z
_cell_length_a                   13.198(2)
_cell_length_b                   14.852(2)
_cell_length_c                   23.407(4)
_cell_angle_alpha                90
_cell_angle_beta                 90
_cell_angle_gamma                90
_cell_volume                     4588.16
loop_
_atom_site_label
_atom_site_type_symbol
_atom_site_fract_x
_atom_site_fract_y
_atom_site_fract_z
_atom_site_U_iso_or_equiv
_atom_site_thermal_displace_type
U1 U 0.35240(3) 0.20052(2) 0.191580(13) 0.0147 Uiso
U2 U 0.01202(3) 0.19351(2) 0.192903(14) 0.0152 Uiso
U3 U 0.16852(3) 0.314568(19) 0.304326(13) 0.0140 Uiso
O1 O 0.1801(4) 0.1935(3) 0.2346(2) 0.0158 Uiso
O3 O 0.5698(5) 0.0772(3) 0.1426(2) 0.0188 Uiso
O4 O 0.1081(5) 0.0866(4) 0.1391(3) 0.0234 Uiso
O6 O 0.5119(4) 0.2209(4) 0.2263(3) 0.0175 Uiso
O7 O 0.3428(5) 0.3136(4) 0.1694(3) 0.0222 Uiso
O8 O 0.3594(5) 0.0877(4) 0.2125(3) 0.0225 Uiso
O9 O 0.0483(5) 0.2882(4) 0.1524(3) 0.0249 Uiso
O10 O 0.1798(5) 0.3907(4) 0.2463(2) 0.0209 Uiso
O12 O 0.2459(5) 0.1628(4) 0.1123(3) 0.0215 Uiso
O13 O 0.4532(5) 0.1712(4) 0.1084(3) 0.0213 Uiso
O14 O 0.3429(4) 0.2493(4) 0.2909(2) 0.0165 Uiso
O15 O 0.1615(5) 0.2388(4) 0.3629(3) 0.0230 Uiso
C1 C 0.1808(7) 0.0996(5) 0.1057(4) 0.0172 Uiso
C2 C 0.1968(9) 0.0925(7) 0.00000 0.0150 Uiso
C3 C 0.5081(7) 0.0998(5) 0.1056(4) 0.0168 Uiso
C4 C 0.4990(6) 0.0480(5) 0.0519(4) 0.0147 Uiso
C5 C 0.1843(6) 0.0463(5) 0.0514(3) 0.0153 Uiso
C9 C 0.4998(8) 0.0949(7) 0.00000 0.0140 Uiso
H1 H 0.213717 0.155347 0.000 0.0178 Uiso
H3 H 0.501011 0.15948 0.000 0.0170 Uiso
U13 U 0.51202(3) 0.30649(2) 0.307097(14) 0.0152 Uiso
U18 U 0.66852(3) 0.185432(19) 0.195674(13) 0.0140 Uiso
O21 O 0.6801(4) 0.3065(3) 0.2654(2) 0.0158 Uiso
O30 O 0.0698(5) 0.4228(3) 0.3574(2) 0.0188 Uiso
O37 O 0.2791(5) 0.4100(3) 0.3563(2) 0.0205 Uiso
O38 O 0.7791(5) 0.0900(3) 0.1437(2) 0.0205 Uiso
O39 O 0.0119(4) 0.2791(4) 0.2737(3) 0.0175 Uiso
O55 O 0.6798(5) 0.1093(4) 0.2537(2) 0.0209 Uiso
O76 O 0.8429(4) 0.2507(4) 0.2091(2) 0.0165 Uiso
O77 O 0.6615(5) 0.2612(4) 0.1371(3) 0.0230 Uiso
C2_2 C 0.1968(9) 0.0925(7) 1.00000 0.0150 Uiso
C9_2 C 0.4998(8) 0.0949(7) 1.00000 0.0140 Uiso
H1_2 H 0.213717 0.155347 1.000 0.0178 Uiso
H3_2 H 0.501011 0.15948 1.000 0.0170 Uiso
U4 U 0.35240(3) 0.20052(2) 0.808420(13) 0.0147 Uiso
U12 U 0.01202(3) 0.19351(2) 0.807097(14) 0.0152 Uiso
U14 U 0.51202(3) 0.30649(2) 0.692903(14) 0.0152 Uiso
U21 U 0.66852(3) 0.185432(19) 0.804326(13) 0.0140 Uiso
U24 U 0.16852(3) 0.314568(19) 0.695674(13) 0.0140 Uiso
O16 O 0.1801(4) 0.1935(3) 0.7654(2) 0.0158 Uiso
O29 O 0.5698(5) 0.0772(3) 0.8574(2) 0.0188 Uiso
O31 O 0.1081(5) 0.0866(4) 0.8609(3) 0.0234 Uiso
O40 O 0.5119(4) 0.2209(4) 0.7737(3) 0.0175 Uiso
O45 O 0.0119(4) 0.2791(4) 0.7263(3) 0.0175 Uiso
O46 O 0.3428(5) 0.3136(4) 0.8306(3) 0.0222 Uiso
O49 O 0.3594(5) 0.0877(4) 0.7875(3) 0.0225 Uiso
O54 O 0.0483(5) 0.2882(4) 0.8476(3) 0.0249 Uiso
O61 O 0.2459(5) 0.1628(4) 0.8877(3) 0.0215 Uiso
O68 O 0.4532(5) 0.1712(4) 0.8916(3) 0.0213 Uiso
O70 O 0.3429(4) 0.2493(4) 0.7091(2) 0.0165 Uiso
C10 C 0.1808(7) 0.0996(5) 0.8943(4) 0.0172 Uiso
C16 C 0.5081(7) 0.0998(5) 0.8944(4) 0.0168 Uiso
C19 C 0.4990(6) 0.0480(5) 0.9481(4) 0.0147 Uiso
C20 C 0.1843(6) 0.0463(5) 0.9486(3) 0.0153 Uiso
O2 O 0.0812(5) 0.8454(4) 0.1081(2) 0.0191 Uiso
O5 O 0.2209(5) 0.9100(3) 0.1437(2) 0.0205 Uiso
C6 C 0.1532(8) 0.9087(7) 0.00000 0.0130 Uiso
C7 C 0.1630(6) 0.9546(5) 0.0517(3) 0.0162 Uiso
C8 C 0.1527(7) 0.9025(5) 0.1053(4) 0.0163 Uiso
H2 H 0.13969 0.845194 0.000 0.0157 Uiso
U5 U 0.64760(3) 0.79948(2) 0.191580(13) 0.0147 Uiso
U15 U 0.98798(3) 0.80649(2) 0.192903(14) 0.0152 Uiso
U16 U 0.48798(3) 0.69351(2) 0.307097(14) 0.0152 Uiso
U19 U 0.33148(3) 0.814568(19) 0.195674(13) 0.0140 Uiso
U25 U 0.83148(3) 0.685432(19) 0.304326(13) 0.0140 Uiso
O17 O 0.8199(4) 0.8065(3) 0.2346(2) 0.0158 Uiso
O22 O 0.3199(4) 0.6935(3) 0.2654(2) 0.0158 Uiso
O27 O 0.4302(5) 0.9228(3) 0.1426(2) 0.0188 Uiso
O41 O 0.4881(4) 0.7791(4) 0.2263(3) 0.0175 Uiso
O47 O 0.6572(5) 0.6864(4) 0.1694(3) 0.0222 Uiso
O50 O 0.6406(5) 0.9123(4) 0.2125(3) 0.0225 Uiso
O56 O 0.3202(5) 0.8907(4) 0.2537(2) 0.0209 Uiso
O58 O 0.0263(5) 0.9017(4) 0.2336(3) 0.0229 Uiso
O64 O 0.7541(5) 0.8372(4) 0.1123(3) 0.0215 Uiso
O66 O 0.5468(5) 0.8288(4) 0.1084(3) 0.0213 Uiso
O71 O 0.6571(4) 0.7507(4) 0.2909(2) 0.0165 Uiso
O73 O 0.1571(4) 0.7493(4) 0.2091(2) 0.0165 Uiso
O78 O 0.3385(5) 0.7388(4) 0.1371(3) 0.0230 Uiso
C14 C 0.4919(7) 0.9002(5) 0.1056(4) 0.0168 Uiso
C17 C 0.5010(6) 0.9520(5) 0.0519(4) 0.0147 Uiso
C30 C 0.5002(8) 0.9051(7) 0.00000 0.0140 Uiso
H6 H 0.498989 0.84052 0.000 0.0170 Uiso
C6_2 C 0.1532(8) 0.9087(7) 1.00000 0.0130 Uiso
H2_2 H 0.13969 0.845194 1.000 0.0157 Uiso
U6 U 0.64760(3) 0.79948(2) 0.808420(13) 0.0147 Uiso
U17 U 0.98798(3) 0.80649(2) 0.807097(14) 0.0152 Uiso
U20 U 0.33148(3) 0.814568(19) 0.804326(13) 0.0140 Uiso
U26 U 0.83148(3) 0.685432(19) 0.695674(13) 0.0140 Uiso
O18 O 0.8199(4) 0.8065(3) 0.7654(2) 0.0158 Uiso
O23 O 0.3199(4) 0.6935(3) 0.7346(2) 0.0158 Uiso
O24 O 0.0812(5) 0.8454(4) 0.8919(2) 0.0191 Uiso
O28 O 0.4302(5) 0.9228(3) 0.8574(2) 0.0188 Uiso
O34 O 0.2209(5) 0.9100(3) 0.8563(2) 0.0205 Uiso
O42 O 0.4881(4) 0.7791(4) 0.7737(3) 0.0175 Uiso
O48 O 0.6572(5) 0.6864(4) 0.8306(3) 0.0222 Uiso
O51 O 0.6406(5) 0.9123(4) 0.7875(3) 0.0225 Uiso
O57 O 0.3202(5) 0.8907(4) 0.7463(2) 0.0209 Uiso
O59 O 0.0263(5) 0.9017(4) 0.7664(3) 0.0229 Uiso
O65 O 0.7541(5) 0.8372(4) 0.8877(3) 0.0215 Uiso
O67 O 0.5468(5) 0.8288(4) 0.8916(3) 0.0213 Uiso
O72 O 0.6571(4) 0.7507(4) 0.7091(2) 0.0165 Uiso
O74 O 0.1571(4) 0.7493(4) 0.7909(2) 0.0165 Uiso
O79 O 0.3385(5) 0.7388(4) 0.8629(3) 0.0230 Uiso
C15 C 0.4919(7) 0.9002(5) 0.8944(4) 0.0168 Uiso
C18 C 0.5010(6) 0.9520(5) 0.9481(4) 0.0147 Uiso
C24 C 0.1630(6) 0.9546(5) 0.9483(3) 0.0162 Uiso
C27 C 0.1527(7) 0.9025(5) 0.8947(4) 0.0163 Uiso
C30_2 C 0.5002(8) 0.9051(7) 1.00000 0.0140 Uiso
H6_2 H 0.498989 0.84052 1.000 0.0170 Uiso
O11 O 0.9737(5) 0.0983(4) 0.2336(3) 0.0229 Uiso
U9 U 0.85240(3) 0.29948(2) 0.308420(13) 0.0147 Uiso
O25 O 0.9188(5) 0.1546(4) 0.1081(2) 0.0191 Uiso
C23 C 0.8468(8) 0.0913(7) 0.00000 0.0130 Uiso
C25 C 0.8370(6) 0.0454(5) 0.0517(3) 0.0162 Uiso
C28 C 0.8473(7) 0.0975(5) 0.1053(4) 0.0163 Uiso
H5 H 0.86031 0.154806 0.000 0.0157 Uiso
O26 O 0.9188(5) 0.1546(4) 0.8919(2) 0.0191 Uiso
O36 O 0.7791(5) 0.0900(3) 0.8563(2) 0.0205 Uiso
O60 O 0.9737(5) 0.0983(4) 0.7664(3) 0.0229 Uiso
O75 O 0.8429(4) 0.2507(4) 0.7909(2) 0.0165 Uiso
C23_2 C 0.8468(8) 0.0913(7) 1.00000 0.0130 Uiso
C26 C 0.8370(6) 0.0454(5) 0.9483(3) 0.0162 Uiso
C29 C 0.8473(7) 0.0975(5) 0.8947(4) 0.0163 Uiso
H5_2 H 0.86031 0.154806 1.000 0.0157 Uiso
O32 O 0.8919(5) 0.9134(4) 0.1391(3) 0.0234 Uiso
O43 O 0.9881(4) 0.7209(4) 0.2737(3) 0.0175 Uiso
O52 O 0.9517(5) 0.7118(4) 0.1524(3) 0.0249 Uiso
C11 C 0.8192(7) 0.9004(5) 0.1057(4) 0.0172 Uiso
C13 C 0.8032(9) 0.9075(7) 0.00000 0.0150 Uiso
C21 C 0.8157(6) 0.9537(5) 0.0514(3) 0.0153 Uiso
H4 H 0.786283 0.844653 0.000 0.0178 Uiso
O33 O 0.8919(5) 0.9134(4) 0.8609(3) 0.0234 Uiso
O44 O 0.9881(4) 0.7209(4) 0.7263(3) 0.0175 Uiso
O53 O 0.9517(5) 0.7118(4) 0.8476(3) 0.0249 Uiso
C12 C 0.8192(7) 0.9004(5) 0.8943(4) 0.0172 Uiso
C13_2 C 0.8032(9) 0.9075(7) 1.00000 0.0150 Uiso
C22 C 0.8157(6) 0.9537(5) 0.9486(3) 0.0153 Uiso
H4_2 H 0.786283 0.844653 1.000 0.0178 Uiso
U9_2 U 0.14760(3) 0.70052(2) 0.308420(13) 0.0147 Uiso
O23_2 O 0.6801(4) 0.3065(3) 0.7346(2) 0.0158 Uiso
O57_2 O 0.6798(5) 0.1093(4) 0.7463(2) 0.0209 Uiso
O79_2 O 0.6615(5) 0.2612(4) 0.8629(3) 0.0230 Uiso
O10_2 O 0.8202(5) 0.6093(4) 0.2463(2) 0.0209 Uiso
O15_2 O 0.8385(5) 0.7612(4) 0.3629(3) 0.0230 Uiso
O30_2 O 0.9302(5) 0.5772(3) 0.3574(2) 0.0188 Uiso
O37_2 O 0.7209(5) 0.5900(3) 0.3563(2) 0.0205 Uiso
U14_2 U 0.48798(3) 0.69351(2) 0.692903(14) 0.0152 Uiso
O2_2 O 0.4188(5) 0.3454(4) 0.3919(2) 0.0191 Uiso
O4_2 O 0.3919(5) 0.5866(4) 0.3609(3) 0.0234 Uiso
O7_2 O 0.1572(5) 0.8136(4) 0.3306(3) 0.0222 Uiso
O8_2 O 0.1406(5) 0.5877(4) 0.2875(3) 0.0225 Uiso
O9_2 O 0.4517(5) 0.7882(4) 0.3476(3) 0.0249 Uiso
O11_2 O 0.5263(5) 0.5983(4) 0.2664(3) 0.0229 Uiso
O12_2 O 0.2541(5) 0.6628(4) 0.3877(3) 0.0215 Uiso
O13_2 O 0.0468(5) 0.6712(4) 0.3916(3) 0.0213 Uiso
C1_2 C 0.3192(7) 0.5996(5) 0.3943(4) 0.0172 Uiso
C2_3 C 0.3032(9) 0.5925(7) 0.50000 0.0150 Uiso
C4_2 C 0.0010(6) 0.5480(5) 0.4481(4) 0.0147 Uiso
C5_2 C 0.3157(6) 0.5463(5) 0.4486(3) 0.0153 Uiso
C6_3 C 0.3468(8) 0.4087(7) 0.50000 0.0130 Uiso
C7_2 C 0.3370(6) 0.4546(5) 0.4483(3) 0.0162 Uiso
C8_2 C 0.3473(7) 0.4025(5) 0.3947(4) 0.0163 Uiso
C9_3 C 0.0002(8) 0.5949(7) 0.50000 0.0140 Uiso
H1_3 H 0.286283 0.655347 0.500 0.0178 Uiso
H2_3 H 0.36031 0.345194 0.500 0.0157 Uiso
U4_2 U 0.14760(3) 0.70052(2) 0.691580(13) 0.0147 Uiso
U8 U 0.85240(3) 0.29948(2) 0.691580(13) 0.0147 Uiso
O24_2 O 0.4188(5) 0.3454(4) 0.6081(2) 0.0191 Uiso
O25_2 O 0.5812(5) 0.6546(4) 0.3919(2) 0.0191 Uiso
O26_2 O 0.5812(5) 0.6546(4) 0.6081(2) 0.0191 Uiso
O28_2 O 0.0698(5) 0.4228(3) 0.6426(2) 0.0188 Uiso
O31_2 O 0.3919(5) 0.5866(4) 0.6391(3) 0.0234 Uiso
O32_2 O 0.6081(5) 0.4134(4) 0.3609(3) 0.0234 Uiso
O33_2 O 0.6081(5) 0.4134(4) 0.6391(3) 0.0234 Uiso
O34_2 O 0.2791(5) 0.4100(3) 0.6437(2) 0.0205 Uiso
O36_2 O 0.7209(5) 0.5900(3) 0.6437(2) 0.0205 Uiso
O46_2 O 0.1572(5) 0.8136(4) 0.6694(3) 0.0222 Uiso
O49_2 O 0.1406(5) 0.5877(4) 0.7125(3) 0.0225 Uiso
O52_2 O 0.5483(5) 0.2118(4) 0.3476(3) 0.0249 Uiso
O53_2 O 0.5483(5) 0.2118(4) 0.6524(3) 0.0249 Uiso
O54_2 O 0.4517(5) 0.7882(4) 0.6524(3) 0.0249 Uiso
O57_3 O 0.1798(5) 0.3907(4) 0.7537(2) 0.0209 Uiso
O58_2 O 0.4737(5) 0.4017(4) 0.2664(3) 0.0229 Uiso
O59_2 O 0.4737(5) 0.4017(4) 0.7336(3) 0.0229 Uiso
O60_2 O 0.5263(5) 0.5983(4) 0.7336(3) 0.0229 Uiso
O61_2 O 0.2541(5) 0.6628(4) 0.6123(3) 0.0215 Uiso
O62 O 0.7459(5) 0.3372(4) 0.3877(3) 0.0215 Uiso
O63 O 0.7459(5) 0.3372(4) 0.6123(3) 0.0215 Uiso
O68_2 O 0.0468(5) 0.6712(4) 0.6084(3) 0.0213 Uiso
O79_3 O 0.1615(5) 0.2388(4) 0.6371(3) 0.0230 Uiso
C10_2 C 0.3192(7) 0.5996(5) 0.6057(4) 0.0172 Uiso
C11_2 C 0.6808(7) 0.4004(5) 0.3943(4) 0.0172 Uiso
C12_2 C 0.6808(7) 0.4004(5) 0.6057(4) 0.0172 Uiso
C13_3 C 0.6968(9) 0.4075(7) 0.50000 0.0150 Uiso
C14_2 C 0.0081(7) 0.4002(5) 0.3944(4) 0.0168 Uiso
C15_2 C 0.0081(7) 0.4002(5) 0.6056(4) 0.0168 Uiso
C19_2 C 0.0010(6) 0.5480(5) 0.5519(4) 0.0147 Uiso
C20_2 C 0.3157(6) 0.5463(5) 0.5514(3) 0.0153 Uiso
C21_2 C 0.6843(6) 0.4537(5) 0.4486(3) 0.0153 Uiso
C22_2 C 0.6843(6) 0.4537(5) 0.5514(3) 0.0153 Uiso
C23_3 C 0.6532(8) 0.5913(7) 0.50000 0.0130 Uiso
C24_2 C 0.3370(6) 0.4546(5) 0.5517(3) 0.0162 Uiso
C25_2 C 0.6630(6) 0.5454(5) 0.4483(3) 0.0162 Uiso
C26_2 C 0.6630(6) 0.5454(5) 0.5517(3) 0.0162 Uiso
C27_2 C 0.3473(7) 0.4025(5) 0.6053(4) 0.0163 Uiso
C28_2 C 0.6527(7) 0.5975(5) 0.3947(4) 0.0163 Uiso
C29_2 C 0.6527(7) 0.5975(5) 0.6053(4) 0.0163 Uiso
H4_3 H 0.713717 0.344653 0.500 0.0178 Uiso
H5_3 H 0.63969 0.654806 0.500 0.0157 Uiso
H6_3 H 0.001011 0.34052 0.500 0.0170 Uiso
C3_2 C 0.9919(7) 0.5998(5) 0.3944(4) 0.0168 Uiso
H3_3 H 0.998989 0.65948 0.500 0.0170 Uiso
O29_2 O 0.9302(5) 0.5772(3) 0.6426(2) 0.0188 Uiso
O47_2 O 0.8428(5) 0.1864(4) 0.3306(3) 0.0222 Uiso
O48_2 O 0.8428(5) 0.1864(4) 0.6694(3) 0.0222 Uiso
O50_2 O 0.8594(5) 0.4123(4) 0.2875(3) 0.0225 Uiso
O51_2 O 0.8594(5) 0.4123(4) 0.7125(3) 0.0225 Uiso
O66_2 O 0.9532(5) 0.3288(4) 0.3916(3) 0.0213 Uiso
O67_2 O 0.9532(5) 0.3288(4) 0.6084(3) 0.0213 Uiso
C16_2 C 0.9919(7) 0.5998(5) 0.6056(4) 0.0168 Uiso
C17_2 C 0.9990(6) 0.4520(5) 0.4481(4) 0.0147 Uiso
C18_2 C 0.9990(6) 0.4520(5) 0.5519(4) 0.0147 Uiso
C30_3 C 0.9998(8) 0.4051(7) 0.50000 0.0140 Uiso
O57_4 O 0.8202(5) 0.6093(4) 0.7537(2) 0.0209 Uiso
O79_4 O 0.8385(5) 0.7612(4) 0.6371(3) 0.0230 Uiso
N1 N 0.3479(8) 0.0986(6) 0.3582(4) 0.0480 Uiso
H7 H 0.424806 0.0986 0.3582 . .
H8 H 0.322265 0.1544 0.337758 . .
H9 H 0.322265 0.0427998 0.337758 . .
H10 H 0.322265 0.0986 0.399083 . .
N1_2 N 0.6521(8) 0.9014(6) 0.3582(4) 0.0480 Uiso
H7_2 H 0.575194 0.9014 0.3582 . .
H8_2 H 0.677735 0.8456 0.337758 . .
H9_2 H 0.677735 0.9572 0.337758 . .
H10_2 H 0.677735 0.9014 0.399083 . .
N1_3 N 0.1521(8) 0.5986(6) 0.1418(4) 0.0480 Uiso
H7_3 H 0.0751944 0.5986 0.1418 . .
H8_3 H 0.177735 0.6544 0.162242 . .
H9_3 H 0.177735 0.5428 0.162242 . .
H10_3 H 0.177735 0.5986 0.100917 . .
N1_4 N 0.8479(8) 0.4014(6) 0.1418(4) 0.0480 Uiso
H7_4 H 0.924806 0.4014 0.1418 . .
H8_4 H 0.822265 0.3456 0.162242 . .
H9_4 H 0.822265 0.4572 0.162242 . .
H10_4 H 0.822265 0.4014 0.100917 . .
N1_5 N 0.6521(8) 0.9014(6) 0.6418(4) 0.0480 Uiso
H7_5 H 0.575194 0.9014 0.6418 . .
H8_5 H 0.677735 0.8456 0.662242 . .
H9_5 H 0.677735 0.9572 0.662242 . .
H10_5 H 0.677735 0.9014 0.600917 . .
N1_6 N 0.3479(8) 0.0986(6) 0.6418(4) 0.0480 Uiso
H7_6 H 0.424806 0.0986 0.6418 . .
H8_6 H 0.322265 0.1544 0.662242 . .
H9_6 H 0.322265 0.0427998 0.662242 . .
H10_6 H 0.322265 0.0986 0.600917 . .
N1_7 N 0.8479(8) 0.4014(6) 0.8582(4) 0.0480 Uiso
H7_7 H 0.924806 0.4014 0.8582 . .
H8_7 H 0.822265 0.3456 0.837758 . .
H9_7 H 0.822265 0.4572 0.837758 . .
H10_7 H 0.822265 0.4014 0.899083 . .
N1_8 N 0.1521(8) 0.5986(6) 0.8582(4) 0.0480 Uiso
H7_8 H 0.0751944 0.5986 0.8582 . .
H8_8 H 0.177735 0.6544 0.837758 . .
H9_8 H 0.177735 0.5428 0.837758 . .
H10_8 H 0.177735 0.5986 0.899083 . .
loop_
_geom_bond_atom_site_label_1
_geom_bond_atom_site_label_2
_geom_bond_site_symmetry_1
_geom_bond_site_symmetry_2
U1 O1 1_555 1_555
U2 O1 1_555 1_555
U3 O1 1_555 1_555
O3 C3 1_555 1_555
O4 U2 1_555 1_555
O6 U1 1_555 1_555
O7 U1 1_555 1_555
O8 U1 1_555 1_555
O9 U2 1_555 1_555
O10 U3 1_555 1_555
O12 U1 1_555 1_555
O13 U1 1_555 1_555
O14 U1 1_555 1_555
O15 U3 1_555 1_555
C1 O4 1_555 1_555
C2 C5 1_555 1_555
C3 O13 1_555 1_555
C4 C3 1_555 1_555
C5 C1 1_555 1_555
C9 C4 1_555 1_555
H1 C2 1_555 1_555
H3 C9 1_555 1_555
U13 O6 1_555 1_555
U18 O3 1_555 1_555
O21 U13 1_555 1_555
O30 U3 1_555 1_555
O37 U3 1_555 1_555
O38 U18 1_555 1_555
O39 U2 1_555 1_555
O55 U18 1_555 1_555
O76 U18 1_555 1_555
O77 U18 1_555 1_555
U3 O14 1_555 1_555
U3 O39 1_555 1_555
O6 U18 1_555 1_555
O12 C1 1_555 1_555
O14 U13 1_555 1_555
U18 O21 1_555 1_555
H1_2 C2_2 1_555 1_555
H3_2 C9_2 1_555 1_555
U4 O16 1_555 1_555
U12 O16 1_555 1_555
U14 O40 1_555 1_555
U21 O29 1_555 1_555
U24 O16 1_555 1_555
O29 C16 1_555 1_555
O31 U12 1_555 1_555
O40 U4 1_555 1_555
O45 U12 1_555 1_555
O46 U4 1_555 1_555
O49 U4 1_555 1_555
O54 U12 1_555 1_555
O61 U4 1_555 1_555
O68 U4 1_555 1_555
O70 U4 1_555 1_555
C10 O31 1_555 1_555
C16 O68 1_555 1_555
C19 C9_2 1_555 1_555
C20 C2_2 1_555 1_555
U14 O70 1_555 1_555
U21 O40 1_555 1_555
U24 O45 1_555 1_555
U24 O70 1_555 1_555
O61 C10 1_555 1_555
C10 C20 1_555 1_555
C16 C19 1_555 1_555
O2 C8 1_555 1_555
O5 C8 1_555 1_555
C6 C7 1_555 1_555
C8 C7 1_555 1_555
H2 C6 1_555 1_555
U5 O17 1_555 1_555
U15 O17 1_555 1_555
U16 O22 1_555 1_555
U19 O5 1_555 1_555
U25 O17 1_555 1_555
O22 U19 1_555 1_555
O27 U19 1_555 1_555
O41 U5 1_555 1_555
O47 U5 1_555 1_555
O50 U5 1_555 1_555
O56 U19 1_555 1_555
O64 U5 1_555 1_555
O66 U5 1_555 1_555
O71 U5 1_555 1_555
O78 U19 1_555 1_555
C14 O27 1_555 1_555
C30 C17 1_555 1_555
H6 C30 1_555 1_555
U16 O41 1_555 1_555
U16 O71 1_555 1_555
U19 O41 1_555 1_555
U19 O73 1_555 1_555
U25 O71 1_555 1_555
O66 C14 1_555 1_555
C14 C17 1_555 1_555
H2_2 C6_2 1_555 1_555
U6 O18 1_555 1_555
U17 O18 1_555 1_555
U20 O23 1_555 1_555
U26 O18 1_555 1_555
O28 U20 1_555 1_555
O34 U20 1_555 1_555
O42 U6 1_555 1_555
O48 U6 1_555 1_555
O51 U6 1_555 1_555
O57 U20 1_555 1_555
O65 U6 1_555 1_555
O67 U6 1_555 1_555
O72 U6 1_555 1_555
O79 U20 1_555 1_555
C15 O28 1_555 1_555
C18 C15 1_555 1_555
C24 C6_2 1_555 1_555
C27 O24 1_555 1_555
H6_2 C30_2 1_555 1_555
U20 O42 1_555 1_555
U20 O74 1_555 1_555
U26 O72 1_555 1_555
O34 C27 1_555 1_555
O67 C15 1_555 1_555
C18 C30_2 1_555 1_555
C24 C27 1_555 1_555
O38 C28 1_555 1_555
C23 C25 1_555 1_555
C28 O25 1_555 1_555
H5 C23 1_555 1_555
U9 O76 1_555 1_555
C25 C28 1_555 1_555
U21 O36 1_555 1_555
O36 C29 1_555 1_555
C29 O26 1_555 1_555
H5_2 C23_2 1_555 1_555
U21 O75 1_555 1_555
C23_2 C26 1_555 1_555
C26 C29 1_555 1_555
O32 U15 1_555 1_555
O43 U15 1_555 1_555
O52 U15 1_555 1_555
C11 O32 1_555 1_555
C13 C21 1_555 1_555
C21 C11 1_555 1_555
H4 C13 1_555 1_555
O64 C11 1_555 1_555
O33 U17 1_555 1_555
O44 U17 1_555 1_555
O53 U17 1_555 1_555
C12 O33 1_555 1_555
C22 C12 1_555 1_555
H4_2 C13_2 1_555 1_555
O65 C12 1_555 1_555
C13_2 C22 1_555 1_555
U9_2 O73 1_555 1_555
U21 O23_2 1_555 1_555
O57_2 U21 1_555 1_555
O79_2 U21 1_555 1_555
O10_2 U25 1_555 1_555
O15_2 U25 1_555 1_555
O30_2 U25 1_555 1_555
O37_2 U25 1_555 1_555
U25 O43 1_555 1_555
U14_2 O42 1_555 1_555
U14_2 O72 1_555 1_555
U26 O44 1_555 1_555
U9_2 O22 1_555 1_555
O2_2 C8_2 1_555 1_555
O4_2 U16 1_555 1_555
O37 C8_2 1_555 1_555
O7_2 U9_2 1_555 1_555
O8_2 U9_2 1_555 1_555
O9_2 U16 1_555 1_555
O11_2 U16 1_555 1_555
O12_2 U9_2 1_555 1_555
O13_2 U9_2 1_555 1_555
C1_2 O4_2 1_555 1_555
C2_3 C5_2 1_555 1_555
C5_2 C1_2 1_555 1_555
C6_3 C7_2 1_555 1_555
C7_2 C5_2 1_555 1_555
C8_2 C7_2 1_555 1_555
C9_3 C4_2 1_555 1_555
H1_3 C2_3 1_555 1_555
H2_3 C6_3 1_555 1_555
U4_2 O23 1_555 1_555
U9 O21 1_555 1_555
U8 O23_2 1_555 1_555
U13 O2_2 1_555 1_555
U14 O23_2 1_555 1_555
U14_2 O23 1_555 1_555
U26 O36_2 1_555 1_555
O24_2 U14 1_555 1_555
O25_2 U16 1_555 1_555
O26_2 U14_2 1_555 1_555
O28_2 U24 1_555 1_555
O31_2 U14_2 1_555 1_555
O32_2 U13 1_555 1_555
O33_2 U14 1_555 1_555
O34_2 U24 1_555 1_555
O37_2 C28_2 1_555 1_555
O36_2 C29_2 1_555 1_555
O46_2 U4_2 1_555 1_555
O49_2 U4_2 1_555 1_555
O52_2 U13 1_555 1_555
O53_2 U14 1_555 1_555
O54_2 U14_2 1_555 1_555
O57_3 U24 1_555 1_555
O58_2 U13 1_555 1_555
O59_2 U14 1_555 1_555
O60_2 U14_2 1_555 1_555
O61_2 U4_2 1_555 1_555
O62 U9 1_555 1_555
O63 U8 1_555 1_555
O68_2 U4_2 1_555 1_555
O74 U4_2 1_555 1_555
O79_3 U24 1_555 1_555
C10_2 O31_2 1_555 1_555
C11_2 O32_2 1_555 1_555
C12_2 O33_2 1_555 1_555
C13_3 C21_2 1_555 1_555
C14_2 O30 1_555 1_555
C15_2 O28_2 1_555 1_555
C19_2 C9_3 1_555 1_555
C20_2 C2_3 1_555 1_555
C21_2 C11_2 1_555 1_555
C22_2 C12_2 1_555 1_555
C23_3 C25_2 1_555 1_555
C24_2 C6_3 1_555 1_555
C25_2 C21_2 1_555 1_555
C26_2 C22_2 1_555 1_555
C27_2 O24_2 1_555 1_555
C28_2 O25_2 1_555 1_555
C29_2 O26_2 1_555 1_555
H4_3 C13_3 1_555 1_555
H5_3 C23_3 1_555 1_555
O12_2 C1_2 1_555 1_555
O34_2 C27_2 1_555 1_555
O61_2 C10_2 1_555 1_555
O62 C11_2 1_555 1_555
O63 C12_2 1_555 1_555
C10_2 C20_2 1_555 1_555
C13_3 C22_2 1_555 1_555
C20_2 C24_2 1_555 1_555
C23_3 C26_2 1_555 1_555
C24_2 C27_2 1_555 1_555
C25_2 C28_2 1_555 1_555
C26_2 C29_2 1_555 1_555
O30_2 C3_2 1_555 1_555
U26 O29_2 1_555 1_555
O29_2 C16_2 1_555 1_555
O47_2 U9 1_555 1_555
O48_2 U8 1_555 1_555
O50_2 U9 1_555 1_555
O51_2 U8 1_555 1_555
O66_2 U9 1_555 1_555
O67_2 U8 1_555 1_555
O75 U8 1_555 1_555
C30_3 C17_2 1_555 1_555
C18_2 C30_3 1_555 1_555
O57_4 U26 1_555 1_555
O79_4 U26 1_555 1_555
N1 H7 1_555 1_555
N1 H8 1_555 1_555
N1 H9 1_555 1_555
N1 H10 1_555 1_555
N1_2 H7_2 1_555 1_555
N1_2 H8_2 1_555 1_555
N1_2 H9_2 1_555 1_555
N1_2 H10_2 1_555 1_555
N1_3 H7_3 1_555 1_555
N1_3 H8_3 1_555 1_555
N1_3 H9_3 1_555 1_555
N1_3 H10_3 1_555 1_555
N1_4 H7_4 1_555 1_555
N1_4 H8_4 1_555 1_555
N1_4 H9_4 1_555 1_555
N1_4 H10_4 1_555 1_555
N1_5 H7_5 1_555 1_555
N1_5 H8_5 1_555 1_555
N1_5 H9_5 1_555 1_555
N1_5 H10_5 1_555 1_555
N1_6 H7_6 1_555 1_555
N1_6 H8_6 1_555 1_555
N1_6 H9_6 1_555 1_555
N1_6 H10_6 1_555 1_555
N1_7 H7_7 1_555 1_555
N1_7 H8_7 1_555 1_555
N1_7 H9_7 1_555 1_555
N1_7 H10_7 1_555 1_555
N1_8 H7_8 1_555 1_555
N1_8 H8_8 1_555 1_555
N1_8 H9_8 1_555 1_555
N1_8 H10_8 1_555 1_555

#END
