
###############################################################################
#
# This file contains modified crystal structure data generated from the
# MOF subset of the Cambridge Structural Database (CSD) v543 
# hosted by the Cambridge Crystallographic Data Centre (CCDC).
#
# This work is licensed under the Creative Commons
# Attribution-NonCommercial-ShareAlike 4.0 International License.
# To view a copy of this license, visit
# http://creativecommons.org/licenses/by-nc-sa/4.0/
# or send a letter to
# Creative Commons, PO Box 1866, Mountain View, CA 94042, USA.
#
# CIF created using the CSD Python API on 29 September 2022
# The structure has been converted into the P1 space group
# The structure has a 3D framework
# The original CSD entry YARBEA is in the monoclinic crystal system
# The framework has been calculated to contain at least 10.0% void space
# The void calculation uses a probe of radius 1.32A, grid spacing 0.4
#
###############################################################################

data_YARBEA
_chemical_formula_moiety         '(C140 H104 N8 O24 Zn4)n'
_symmetry_cell_setting           triclinic
_symmetry_space_group_name_H-M   'P 1'
_symmetry_Int_Tables_number      1
_space_group_name_Hall           'P 1'
loop_
_symmetry_equiv_pos_site_id
_symmetry_equiv_pos_as_xyz
1 x,y,z
_cell_length_a                   13.6310(12)
_cell_length_b                   17.3491(16)
_cell_length_c                   20.2809(18)
_cell_angle_alpha                90
_cell_angle_beta                 119.844(2)
_cell_angle_gamma                90
_cell_volume                     4160.09
loop_
_atom_site_label
_atom_site_type_symbol
_atom_site_fract_x
_atom_site_fract_y
_atom_site_fract_z
O7 O 0.1387(3) 0.0416(2) 0.7251(3)
Zn1 Zn 0.98611(5) 0.99838(4) 0.68102(4)
N1 N 0.9826(4) 0.9401(3) 0.5930(3)
N2 N 0.9609(4) 0.5794(3) 0.2456(3)
C26 C 0.9879(6) 0.8491(4) 0.4810(4)
C27 C 0.8904(6) 0.8599(4) 0.4839(4)
H17 H 0.8236 0.8365 0.4479
C28 C 0.8909(6) 0.9050(4) 0.5397(4)
H18 H 0.8234 0.9112 0.5400
C29 C 0.9935(7) 0.7973(5) 0.4229(5)
H19 H 0.9888 0.8297 0.3825
C30 C 0.9077(7) 0.7368(4) 0.3882(4)
H21 H 0.8344 0.7610 0.3579
H22 H 0.9055 0.7078 0.4283
C31 C 0.9506(6) 0.6546(4) 0.2321(4)
H23 H 0.9534 0.6727 0.1899
C32 C 0.9362(6) 0.7066(4) 0.2770(4)
H24 H 0.9327 0.7589 0.2661
C33 C 0.9268(6) 0.6821(4) 0.3389(4)
C34 C 0.9391(7) 0.6056(4) 0.3530(4)
H25 H 0.9375 0.5859 0.3951
C35 C 0.9541(7) 0.5560(4) 0.3047(4)
H26 H 0.9597 0.5035 0.3149
Zn3 Zn 0.98611(5) 0.50162(4) 0.18102(4)
N3 N 0.9609(4) 0.9206(3) 0.7456(3)
N1_2 N 0.9826(4) 0.5599(3) 0.0930(3)
O1 O 0.8942(4) 0.4108(2) 0.1641(3)
O2 O 0.7516(4) 0.4825(3) 0.0827(3)
H1 H 0.6076 0.4538 0.0152
C1 C 0.7915(6) 0.4203(4) 0.1161(4)
C2 C 0.5298(5) 0.2923(3) 0.0228(3)
C3 C 0.5995(5) 0.3552(3) 0.0405(3)
C4 C 0.7143(5) 0.3523(3) 0.1003(3)
C5 C 0.7527(5) 0.2879(3) 0.1428(3)
H3 H 0.8277 0.2862 0.1815
C6 C 0.6836(5) 0.2232(4) 0.1307(4)
C7 C 0.5701(5) 0.2257(3) 0.0694(3)
C8 C 0.5013(6) 0.1606(4) 0.0593(4)
H4 H 0.4267 0.1606 0.0198
C9 C 0.5411(7) 0.0986(4) 0.1058(4)
H5 H 0.4939 0.0566 0.0977
C10 C 0.6520(7) 0.0971(4) 0.1657(5)
H6 H 0.6782 0.0542 0.1973
C11 C 0.7221(6) 0.1575(4) 0.1783(4)
H7 H 0.7960 0.1558 0.2185
C28_2 C 0.8909(6) 0.5950(4) 0.0397(4)
H18_2 H 0.8234 0.5888 0.0400
O3 O 0.5579(4) 0.4208(2) 0.9993(2)
O5 O 0.1135(4) 0.0835(3) 0.8194(3)
O6 O 0.2361(4) 0.1909(3) 0.9060(3)
H2 H 0.1868 0.1576 0.8886
C12 C 0.4101(5) 0.2968(4) 0.9550(3)
H8 H 0.3971 0.3489 0.9351
H9 H 0.3571 0.2873 0.9729
C13 C 0.1658(5) 0.0834(4) 0.7836(4)
C14 C 0.3836(5) 0.2413(3) 0.8902(3)
C15 C 0.2959(5) 0.1890(3) 0.8689(4)
C16 C 0.2644(5) 0.1363(3) 0.8075(3)
C17 C 0.3230(5) 0.1371(4) 0.7697(4)
H10 H 0.3041 0.1022 0.7303
C18 C 0.4119(5) 0.1895(4) 0.7889(4)
C19 C 0.4409(5) 0.2423(4) 0.8489(4)
C20 C 0.5295(6) 0.2951(4) 0.8640(4)
H11 H 0.5511 0.3307 0.9031
C21 C 0.5837(7) 0.2952(5) 0.8229(5)
H12 H 0.6405 0.3310 0.8339
C22 C 0.5548(7) 0.2420(5) 0.7645(5)
H13 H 0.5936 0.2415 0.7376
C23 C 0.4692(6) 0.1906(4) 0.7470(4)
H14 H 0.4486 0.1560 0.7072
C26_2 C 0.9879(6) 0.6509(4) 0.9810(4)
C27_2 C 0.8904(6) 0.6401(4) 0.9839(4)
H17_2 H 0.8236 0.6635 0.9479
C29_2 C 0.9935(7) 0.7027(5) 0.9229(5)
H19_2 H 0.9888 0.6703 0.8825
C30_2 C 0.9077(7) 0.7632(4) 0.8882(4)
H21_2 H 0.8344 0.7390 0.8579
H22_2 H 0.9055 0.7922 0.9283
C31_2 C 0.9506(6) 0.8454(4) 0.7321(4)
H23_2 H 0.9534 0.8273 0.6899
C32_2 C 0.9362(6) 0.7934(4) 0.7770(4)
H24_2 H 0.9327 0.7411 0.7661
C33_2 C 0.9268(6) 0.8179(4) 0.8389(4)
C34_2 C 0.9391(7) 0.8944(4) 0.8530(4)
H25_2 H 0.9375 0.9141 0.8951
C35_2 C 0.9541(7) 0.9440(4) 0.8047(4)
H26_2 H 0.9597 0.9965 0.8149
C24 C 0.0767(6) 0.9308(4) 0.5891(4)
H15 H 0.1426 0.9551 0.6251
C25 C 0.0802(6) 0.8871(4) 0.5343(4)
H16 H 0.1478 0.8833 0.5336
H20 H 0.0672 0.7728 0.4471
O1_2 O 0.8942(4) 0.0892(2) 0.6641(3)
O2_2 O 0.7516(4) 0.0175(3) 0.5827(3)
O3_2 O 0.5579(4) 0.0792(2) 0.4993(2)
H1_2 H 0.6076 0.0462 0.5152
O4 O 0.1387(3) 0.4584(2) 0.2251(3)
O5_2 O 0.1135(4) 0.4165(3) 0.3194(3)
O6_2 O 0.2361(4) 0.3091(3) 0.4060(3)
H2_2 H 0.1868 0.3424 0.3886
C1_2 C 0.7915(6) 0.0797(4) 0.6161(4)
C2_2 C 0.5298(5) 0.2077(3) 0.5228(3)
C3_2 C 0.5995(5) 0.1448(3) 0.5405(3)
C4_2 C 0.7143(5) 0.1477(3) 0.6003(3)
C5_2 C 0.7527(5) 0.2121(3) 0.6428(3)
H3_2 H 0.8277 0.2138 0.6815
C6_2 C 0.6836(5) 0.2768(4) 0.6307(4)
C7_2 C 0.5701(5) 0.2743(3) 0.5694(3)
C8_2 C 0.5013(6) 0.3394(4) 0.5593(4)
H4_2 H 0.4267 0.3394 0.5198
C9_2 C 0.5411(7) 0.4014(4) 0.6058(4)
H5_2 H 0.4939 0.4434 0.5977
C10_2 C 0.6520(7) 0.4029(4) 0.6657(5)
H6_2 H 0.6782 0.4458 0.6973
C11_2 C 0.7221(6) 0.3425(4) 0.6783(4)
H7_2 H 0.7960 0.3442 0.7185
C12_2 C 0.4101(5) 0.2032(4) 0.4550(3)
H8_2 H 0.3971 0.1511 0.4351
H9_2 H 0.3571 0.2127 0.4729
C13_2 C 0.1658(5) 0.4166(4) 0.2836(4)
C14_2 C 0.3836(5) 0.2587(3) 0.3902(3)
C15_2 C 0.2959(5) 0.3110(3) 0.3689(4)
C16_2 C 0.2644(5) 0.3637(3) 0.3075(3)
C17_2 C 0.3230(5) 0.3629(4) 0.2697(4)
H10_2 H 0.3041 0.3978 0.2303
C18_2 C 0.4119(5) 0.3105(4) 0.2889(4)
C19_2 C 0.4409(5) 0.2577(4) 0.3489(4)
C20_2 C 0.5295(6) 0.2049(4) 0.3640(4)
H11_2 H 0.5511 0.1693 0.4031
C21_2 C 0.5837(7) 0.2048(5) 0.3229(5)
H12_2 H 0.6405 0.1690 0.3339
C22_2 C 0.5548(7) 0.2580(5) 0.2645(5)
H13_2 H 0.5936 0.2585 0.2376
C23_2 C 0.4692(6) 0.3094(4) 0.2470(4)
H14_2 H 0.4486 0.3440 0.2072
C24_2 C 0.0767(6) 0.5692(4) 0.0891(4)
H15_2 H 0.1426 0.5449 0.1251
C25_2 C 0.0802(6) 0.6129(4) 0.0343(4)
H16_2 H 0.1478 0.6167 0.0336
Zn2 Zn 0.01389(5) 0.00162(4) 0.31898(4)
N2_2 N 0.0391(4) 0.0794(3) 0.2544(3)
O3_3 O 0.4421(4) 0.5792(2) 0.0007(2)
O4_2 O 0.8613(3) 0.9584(2) 0.2749(3)
O5_3 O 0.8865(4) 0.9165(3) 0.1806(3)
O6_3 O 0.7639(4) 0.8091(3) 0.0940(3)
H2_3 H 0.8132 0.8424 0.1114
C12_3 C 0.5899(5) 0.7032(4) 0.0450(3)
H8_3 H 0.6029 0.6511 0.0649
H9_3 H 0.6429 0.7127 0.0271
C13_3 C 0.8342(5) 0.9166(4) 0.2164(4)
C14_3 C 0.6164(5) 0.7587(3) 0.1098(3)
C15_3 C 0.7041(5) 0.8110(3) 0.1311(4)
C16_3 C 0.7356(5) 0.8637(3) 0.1925(3)
C17_3 C 0.6770(5) 0.8629(4) 0.2303(4)
H10_3 H 0.6959 0.8978 0.2697
C18_3 C 0.5881(5) 0.8105(4) 0.2111(4)
C19_3 C 0.5591(5) 0.7577(4) 0.1511(4)
C20_3 C 0.4705(6) 0.7049(4) 0.1360(4)
H11_3 H 0.4489 0.6693 0.0969
C21_3 C 0.4163(7) 0.7048(5) 0.1771(5)
H12_3 H 0.3595 0.6690 0.1661
C22_3 C 0.4452(7) 0.7580(5) 0.2355(5)
H13_3 H 0.4064 0.7585 0.2624
C23_3 C 0.5308(6) 0.8094(4) 0.2530(4)
H14_3 H 0.5514 0.8440 0.2928
C26_3 C 0.0121(6) 0.3491(4) 0.0190(4)
C27_3 C 0.1096(6) 0.3599(4) 0.0161(4)
H17_3 H 0.1764 0.3365 0.0521
C29_3 C 0.0065(7) 0.2973(5) 0.0771(5)
H19_3 H 0.0112 0.3297 0.1175
C30_3 C 0.0923(7) 0.2368(4) 0.1118(4)
H21_3 H 0.1656 0.2610 0.1421
H22_3 H 0.0945 0.2078 0.0717
C31_3 C 0.0494(6) 0.1546(4) 0.2679(4)
H23_3 H 0.0466 0.1727 0.3101
C32_3 C 0.0638(6) 0.2066(4) 0.2230(4)
H24_3 H 0.0673 0.2589 0.2339
C33_3 C 0.0732(6) 0.1821(4) 0.1611(4)
C34_3 C 0.0609(7) 0.1056(4) 0.1470(4)
H25_3 H 0.0625 0.0859 0.1049
C35_3 C 0.0459(7) 0.0560(4) 0.1953(4)
H26_3 H 0.0403 0.0035 0.1851
Zn1_2 Zn 0.01389(5) 0.49838(4) 0.81898(4)
N1_3 N 0.0174(4) 0.4401(3) 0.9070(3)
O1_3 O 0.1058(4) 0.5892(2) 0.8359(3)
O2_3 O 0.2484(4) 0.5175(3) 0.9173(3)
H1_3 H 0.3924 0.5462 0.9848
C1_3 C 0.2085(6) 0.5797(4) 0.8839(4)
C2_3 C 0.4702(5) 0.7077(3) 0.9772(3)
C3_3 C 0.4005(5) 0.6448(3) 0.9595(3)
C4_3 C 0.2857(5) 0.6477(3) 0.8997(3)
C5_3 C 0.2473(5) 0.7121(3) 0.8572(3)
H3_3 H 0.1723 0.7138 0.8185
C6_3 C 0.3164(5) 0.7768(4) 0.8693(4)
C7_3 C 0.4299(5) 0.7743(3) 0.9306(3)
C8_3 C 0.4987(6) 0.8394(4) 0.9407(4)
H4_3 H 0.5733 0.8394 0.9802
C9_3 C 0.4589(7) 0.9014(4) 0.8942(4)
H5_3 H 0.5061 0.9434 0.9023
C10_3 C 0.3480(7) 0.9029(4) 0.8343(5)
H6_3 H 0.3218 0.9458 0.8027
C11_3 C 0.2779(6) 0.8425(4) 0.8217(4)
H7_3 H 0.2040 0.8442 0.7815
C28_3 C 0.1091(6) 0.4050(4) 0.9603(4)
H18_3 H 0.1766 0.4112 0.9600
N3_2 N 0.0391(4) 0.4206(3) 0.7544(3)
N1_4 N 0.0174(4) 0.0599(3) 0.4070(3)
C26_4 C 0.0121(6) 0.1509(4) 0.5190(4)
C27_4 C 0.1096(6) 0.1401(4) 0.5161(4)
H17_4 H 0.1764 0.1635 0.5521
C28_4 C 0.1091(6) 0.0950(4) 0.4603(4)
H18_4 H 0.1766 0.0888 0.4600
C29_4 C 0.0065(7) 0.2027(5) 0.5771(5)
H19_4 H 0.0112 0.1703 0.6175
C30_4 C 0.0923(7) 0.2632(4) 0.6118(4)
H21_4 H 0.1656 0.2390 0.6421
H22_4 H 0.0945 0.2922 0.5717
C31_4 C 0.0494(6) 0.3454(4) 0.7679(4)
H23_4 H 0.0466 0.3273 0.8101
C32_4 C 0.0638(6) 0.2934(4) 0.7230(4)
H24_4 H 0.0673 0.2411 0.7339
C33_4 C 0.0732(6) 0.3179(4) 0.6611(4)
C34_4 C 0.0609(7) 0.3944(4) 0.6470(4)
H25_4 H 0.0625 0.4141 0.6049
C35_4 C 0.0459(7) 0.4440(4) 0.6953(4)
H26_4 H 0.0403 0.4965 0.6851
H20_2 H 0.9328 0.2728 0.0529
C24_3 C 0.9233(6) 0.4308(4) 0.9109(4)
H15_3 H 0.8574 0.4551 0.8749
C25_3 C 0.9198(6) 0.3871(4) 0.9657(4)
H16_3 H 0.8522 0.3833 0.9664
O7_2 O 0.8613(3) 0.5416(2) 0.7749(3)
O1_4 O 0.1058(4) 0.9108(2) 0.3359(3)
O2_4 O 0.2484(4) 0.9825(3) 0.4173(3)
O3_4 O 0.4421(4) 0.9208(2) 0.5007(2)
H1_4 H 0.3924 0.9538 0.4848
O5_4 O 0.8865(4) 0.5835(3) 0.6806(3)
O6_4 O 0.7639(4) 0.6909(3) 0.5940(3)
H2_4 H 0.8132 0.6576 0.6114
C1_4 C 0.2085(6) 0.9203(4) 0.3839(4)
C2_4 C 0.4702(5) 0.7923(3) 0.4772(3)
C3_4 C 0.4005(5) 0.8552(3) 0.4595(3)
C4_4 C 0.2857(5) 0.8523(3) 0.3997(3)
C5_4 C 0.2473(5) 0.7879(3) 0.3572(3)
H3_4 H 0.1723 0.7862 0.3185
C6_4 C 0.3164(5) 0.7232(4) 0.3693(4)
C7_4 C 0.4299(5) 0.7257(3) 0.4306(3)
C8_4 C 0.4987(6) 0.6606(4) 0.4407(4)
H4_4 H 0.5733 0.6606 0.4802
C9_4 C 0.4589(7) 0.5986(4) 0.3942(4)
H5_4 H 0.5061 0.5566 0.4023
C10_4 C 0.3480(7) 0.5971(4) 0.3343(5)
H6_4 H 0.3218 0.5542 0.3027
C11_4 C 0.2779(6) 0.6575(4) 0.3217(4)
H7_4 H 0.2040 0.6558 0.2815
C12_4 C 0.5899(5) 0.7968(4) 0.5450(3)
H8_4 H 0.6029 0.8489 0.5649
H9_4 H 0.6429 0.7873 0.5271
C13_4 C 0.8342(5) 0.5834(4) 0.7164(4)
C14_4 C 0.6164(5) 0.7413(3) 0.6098(3)
C15_4 C 0.7041(5) 0.6890(3) 0.6311(4)
C16_4 C 0.7356(5) 0.6363(3) 0.6925(3)
C17_4 C 0.6770(5) 0.6371(4) 0.7303(4)
H10_4 H 0.6959 0.6022 0.7697
C18_4 C 0.5881(5) 0.6895(4) 0.7111(4)
C19_4 C 0.5591(5) 0.7423(4) 0.6511(4)
C20_4 C 0.4705(6) 0.7951(4) 0.6360(4)
H11_4 H 0.4489 0.8307 0.5969
C21_4 C 0.4163(7) 0.7952(5) 0.6771(5)
H12_4 H 0.3595 0.8310 0.6661
C22_4 C 0.4452(7) 0.7420(5) 0.7355(5)
H13_4 H 0.4064 0.7415 0.7624
C23_4 C 0.5308(6) 0.6906(4) 0.7530(4)
H14_4 H 0.5514 0.6560 0.7928
C24_4 C 0.9233(6) 0.0692(4) 0.4109(4)
H15_4 H 0.8574 0.0449 0.3749
C25_4 C 0.9198(6) 0.1129(4) 0.4657(4)
H16_4 H 0.8522 0.1167 0.4664
H20_3 H 0.9328 0.2272 0.5529
H20_4 H 0.0672 0.7272 0.9471
loop_
_geom_bond_atom_site_label_1
_geom_bond_atom_site_label_2
_geom_bond_site_symmetry_1
_geom_bond_site_symmetry_2
Zn1 N1 1_555 1_555
N2 C31 1_555 1_555
C27 C26 1_555 1_555
H17 C27 1_555 1_555
C28 N1 1_555 1_555
H18 C28 1_555 1_555
C29 C26 1_555 1_555
H19 C29 1_555 1_555
C30 C29 1_555 1_555
H21 C30 1_555 1_555
H22 C30 1_555 1_555
C31 H23 1_555 1_555
C32 C31 1_555 1_555
H24 C32 1_555 1_555
C33 C30 1_555 1_555
C34 C33 1_555 1_555
H25 C34 1_555 1_555
C35 N2 1_555 1_555
H26 C35 1_555 1_555
Zn3 N2 1_555 1_555
N3 Zn1 1_555 1_555
C27 C28 1_555 1_555
C32 C33 1_555 1_555
C34 C35 1_555 1_555
Zn3 N1_2 1_555 1_555
O1 Zn3 1_555 1_555
O2 C1 1_555 1_555
C1 O1 1_555 1_555
C2 C3 1_555 1_555
C4 C1 1_555 1_555
C5 C4 1_555 1_555
H3 C5 1_555 1_555
C6 C5 1_555 1_555
C7 C2 1_555 1_555
C8 C7 1_555 1_555
H4 C8 1_555 1_555
C9 C8 1_555 1_555
H5 C9 1_555 1_555
C10 C9 1_555 1_555
H6 C10 1_555 1_555
C11 C6 1_555 1_555
H7 C11 1_555 1_555
C28_2 N1_2 1_555 1_555
H18_2 C28_2 1_555 1_555
C3 C4 1_555 1_555
C6 C7 1_555 1_555
C10 C11 1_555 1_555
N3 C31_2 1_555 1_555
O7 C13 1_555 1_555
O5 C13 1_555 1_555
O6 H2 1_555 1_555
H8 C12 1_555 1_555
H9 C12 1_555 1_555
C13 C16 1_555 1_555
C14 C12 1_555 1_555
C15 O6 1_555 1_555
C16 C15 1_555 1_555
C17 C16 1_555 1_555
H10 C17 1_555 1_555
C18 C17 1_555 1_555
C19 C14 1_555 1_555
C20 C19 1_555 1_555
H11 C20 1_555 1_555
C21 C20 1_555 1_555
H12 C21 1_555 1_555
C22 C21 1_555 1_555
H13 C22 1_555 1_555
C23 C18 1_555 1_555
H14 C23 1_555 1_555
C27_2 C26_2 1_555 1_555
H17_2 C27_2 1_555 1_555
C29_2 C26_2 1_555 1_555
H19_2 C29_2 1_555 1_555
C30_2 C29_2 1_555 1_555
H21_2 C30_2 1_555 1_555
H22_2 C30_2 1_555 1_555
C31_2 H23_2 1_555 1_555
C32_2 C31_2 1_555 1_555
H24_2 C32_2 1_555 1_555
C33_2 C30_2 1_555 1_555
C34_2 C33_2 1_555 1_555
H25_2 C34_2 1_555 1_555
C35_2 N3 1_555 1_555
H26_2 C35_2 1_555 1_555
C14 C15 1_555 1_555
C18 C19 1_555 1_555
C22 C23 1_555 1_555
C32_2 C33_2 1_555 1_555
C34_2 C35_2 1_555 1_555
C24 H15 1_555 1_555
C25 C24 1_555 1_555
H16 C25 1_555 1_555
O2_2 C1_2 1_555 1_555
O3_2 H1_2 1_555 1_555
O4 C13_2 1_555 1_555
O5_2 C13_2 1_555 1_555
O6_2 H2_2 1_555 1_555
C1_2 O1_2 1_555 1_555
C2_2 C3_2 1_555 1_555
C3_2 O3_2 1_555 1_555
C4_2 C1_2 1_555 1_555
C5_2 C4_2 1_555 1_555
H3_2 C5_2 1_555 1_555
C6_2 C5_2 1_555 1_555
C7_2 C2_2 1_555 1_555
C8_2 C7_2 1_555 1_555
H4_2 C8_2 1_555 1_555
C9_2 C8_2 1_555 1_555
H5_2 C9_2 1_555 1_555
C10_2 C9_2 1_555 1_555
H6_2 C10_2 1_555 1_555
C11_2 C6_2 1_555 1_555
H7_2 C11_2 1_555 1_555
C12_2 C2_2 1_555 1_555
H8_2 C12_2 1_555 1_555
H9_2 C12_2 1_555 1_555
C13_2 C16_2 1_555 1_555
C14_2 C12_2 1_555 1_555
C15_2 O6_2 1_555 1_555
C16_2 C15_2 1_555 1_555
C17_2 C16_2 1_555 1_555
H10_2 C17_2 1_555 1_555
C18_2 C17_2 1_555 1_555
C19_2 C14_2 1_555 1_555
C20_2 C19_2 1_555 1_555
H11_2 C20_2 1_555 1_555
C21_2 C20_2 1_555 1_555
H12_2 C21_2 1_555 1_555
C22_2 C21_2 1_555 1_555
H13_2 C22_2 1_555 1_555
C23_2 C18_2 1_555 1_555
H14_2 C23_2 1_555 1_555
C3_2 C4_2 1_555 1_555
C6_2 C7_2 1_555 1_555
C10_2 C11_2 1_555 1_555
C14_2 C15_2 1_555 1_555
C18_2 C19_2 1_555 1_555
C22_2 C23_2 1_555 1_555
C24_2 H15_2 1_555 1_555
C25_2 C24_2 1_555 1_555
H16_2 C25_2 1_555 1_555
N2_2 C31_3 1_555 1_555
O4_2 C13_3 1_555 1_555
O5_3 C13_3 1_555 1_555
O6_3 H2_3 1_555 1_555
H8_3 C12_3 1_555 1_555
H9_3 C12_3 1_555 1_555
C13_3 C16_3 1_555 1_555
C14_3 C12_3 1_555 1_555
C15_3 O6_3 1_555 1_555
C16_3 C15_3 1_555 1_555
C17_3 C16_3 1_555 1_555
H10_3 C17_3 1_555 1_555
C18_3 C17_3 1_555 1_555
C19_3 C14_3 1_555 1_555
C20_3 C19_3 1_555 1_555
H11_3 C20_3 1_555 1_555
C21_3 C20_3 1_555 1_555
H12_3 C21_3 1_555 1_555
C22_3 C21_3 1_555 1_555
H13_3 C22_3 1_555 1_555
C23_3 C18_3 1_555 1_555
H14_3 C23_3 1_555 1_555
C27_3 C26_3 1_555 1_555
H17_3 C27_3 1_555 1_555
C29_3 C26_3 1_555 1_555
H19_3 C29_3 1_555 1_555
C30_3 C29_3 1_555 1_555
H21_3 C30_3 1_555 1_555
H22_3 C30_3 1_555 1_555
C31_3 H23_3 1_555 1_555
C32_3 C31_3 1_555 1_555
H24_3 C32_3 1_555 1_555
C33_3 C30_3 1_555 1_555
C34_3 C33_3 1_555 1_555
H25_3 C34_3 1_555 1_555
C35_3 N2_2 1_555 1_555
H26_3 C35_3 1_555 1_555
Zn2 N2_2 1_555 1_555
C14_3 C15_3 1_555 1_555
C18_3 C19_3 1_555 1_555
C22_3 C23_3 1_555 1_555
C32_3 C33_3 1_555 1_555
C34_3 C35_3 1_555 1_555
Zn1_2 N1_3 1_555 1_555
O1_3 Zn1_2 1_555 1_555
O2_3 C1_3 1_555 1_555
C1_3 O1_3 1_555 1_555
C2_3 C3_3 1_555 1_555
C4_3 C1_3 1_555 1_555
C5_3 C4_3 1_555 1_555
H3_3 C5_3 1_555 1_555
C6_3 C5_3 1_555 1_555
C7_3 C2_3 1_555 1_555
C8_3 C7_3 1_555 1_555
H4_3 C8_3 1_555 1_555
C9_3 C8_3 1_555 1_555
H5_3 C9_3 1_555 1_555
C10_3 C9_3 1_555 1_555
H6_3 C10_3 1_555 1_555
C11_3 C6_3 1_555 1_555
H7_3 C11_3 1_555 1_555
C28_3 N1_3 1_555 1_555
H18_3 C28_3 1_555 1_555
N3_2 Zn1_2 1_555 1_555
C3_3 C4_3 1_555 1_555
C6_3 C7_3 1_555 1_555
C10_3 C11_3 1_555 1_555
Zn2 N1_4 1_555 1_555
N3_2 C31_4 1_555 1_555
C27_4 C26_4 1_555 1_555
H17_4 C27_4 1_555 1_555
C28_4 N1_4 1_555 1_555
H18_4 C28_4 1_555 1_555
C29_4 C26_4 1_555 1_555
H19_4 C29_4 1_555 1_555
C30_4 C29_4 1_555 1_555
H21_4 C30_4 1_555 1_555
H22_4 C30_4 1_555 1_555
C31_4 H23_4 1_555 1_555
C32_4 C31_4 1_555 1_555
H24_4 C32_4 1_555 1_555
C33_4 C30_4 1_555 1_555
C34_4 C33_4 1_555 1_555
H25_4 C34_4 1_555 1_555
C35_4 N3_2 1_555 1_555
H26_4 C35_4 1_555 1_555
C27_4 C28_4 1_555 1_555
C32_4 C33_4 1_555 1_555
C34_4 C35_4 1_555 1_555
C24_3 H15_3 1_555 1_555
C25_3 C24_3 1_555 1_555
H16_3 C25_3 1_555 1_555
O2_4 C1_4 1_555 1_555
O3_4 H1_4 1_555 1_555
O7_2 C13_4 1_555 1_555
O5_4 C13_4 1_555 1_555
O6_4 H2_4 1_555 1_555
C1_4 O1_4 1_555 1_555
C2_4 C3_4 1_555 1_555
C3_4 O3_4 1_555 1_555
C4_4 C1_4 1_555 1_555
C5_4 C4_4 1_555 1_555
H3_4 C5_4 1_555 1_555
C6_4 C5_4 1_555 1_555
C7_4 C2_4 1_555 1_555
C8_4 C7_4 1_555 1_555
H4_4 C8_4 1_555 1_555
C9_4 C8_4 1_555 1_555
H5_4 C9_4 1_555 1_555
C10_4 C9_4 1_555 1_555
H6_4 C10_4 1_555 1_555
C11_4 C6_4 1_555 1_555
H7_4 C11_4 1_555 1_555
C12_4 C2_4 1_555 1_555
H8_4 C12_4 1_555 1_555
H9_4 C12_4 1_555 1_555
C13_4 C16_4 1_555 1_555
C14_4 C12_4 1_555 1_555
C15_4 O6_4 1_555 1_555
C16_4 C15_4 1_555 1_555
C17_4 C16_4 1_555 1_555
H10_4 C17_4 1_555 1_555
C18_4 C17_4 1_555 1_555
C19_4 C14_4 1_555 1_555
C20_4 C19_4 1_555 1_555
H11_4 C20_4 1_555 1_555
C21_4 C20_4 1_555 1_555
H12_4 C21_4 1_555 1_555
C22_4 C21_4 1_555 1_555
H13_4 C22_4 1_555 1_555
C23_4 C18_4 1_555 1_555
H14_4 C23_4 1_555 1_555
C3_4 C4_4 1_555 1_555
C6_4 C7_4 1_555 1_555
C10_4 C11_4 1_555 1_555
C14_4 C15_4 1_555 1_555
C18_4 C19_4 1_555 1_555
C22_4 C23_4 1_555 1_555
C24_4 H15_4 1_555 1_555
C25_4 C24_4 1_555 1_555
H16_4 C25_4 1_555 1_555

#END
