
###############################################################################
#
# This file contains modified crystal structure data generated from the
# MOF subset of the Cambridge Structural Database (CSD) v543 
# hosted by the Cambridge Crystallographic Data Centre (CCDC).
#
# This work is licensed under the Creative Commons
# Attribution-NonCommercial-ShareAlike 4.0 International License.
# To view a copy of this license, visit
# http://creativecommons.org/licenses/by-nc-sa/4.0/
# or send a letter to
# Creative Commons, PO Box 1866, Mountain View, CA 94042, USA.
#
# CIF created using the CSD Python API on 29 September 2022
# The structure has been converted into the P1 space group
# The structure has a 3D framework
# The original CSD entry YARBUQ is in the orthorhombic crystal system
# The framework has been calculated to contain at least 10.0% void space
# The void calculation uses a probe of radius 1.32A, grid spacing 0.4
#
###############################################################################

data_YARBUQ
_chemical_formula_moiety         '(C576 H496 N32 Ni16 O120)n'
_symmetry_cell_setting           triclinic
_symmetry_space_group_name_H-M   'P 1'
_symmetry_Int_Tables_number      1
_space_group_name_Hall           'P 1'
loop_
_symmetry_equiv_pos_site_id
_symmetry_equiv_pos_as_xyz
1 x,y,z
_cell_length_a                   13.9830(12)
_cell_length_b                   29.496(3)
_cell_length_c                   34.577(3)
_cell_angle_alpha                90
_cell_angle_beta                 90
_cell_angle_gamma                90
_cell_volume                     14261
loop_
_atom_site_label
_atom_site_type_symbol
_atom_site_fract_x
_atom_site_fract_y
_atom_site_fract_z
Ni1 Ni 0.63145(18) 0.20084(6) 0.44422(12)
Ni2 Ni 0.0015(2) 0.12682(7) 0.19480(13)
N1 N 0.5245(19) 0.2097(8) 0.4079(8)
N2 N 0.0532(17) 0.1776(7) 0.2326(7)
O1 O 0.6681(11) 0.2656(4) 0.4470(8)
O2 O 0.7701(16) 0.2850(5) 0.4108(6)
O3 O 0.8847(15) 0.6301(5) 0.4515(7)
O4 O 0.7872(13) 0.6565(5) 0.4068(6)
O5 O 0.8519(16) 0.3680(6) 0.4120(7)
H1 H 0.8529 0.3408 0.4068
O6 O 0.8989(14) 0.5432(5) 0.4594(6)
H2 H 0.9053 0.5701 0.4645
O13 O 0.7521(13) 0.1980(5) 0.4858(5)
H5 H 0.8040 0.1860 0.4781
H6 H 0.7452 0.2233 0.4743
O14 O 0.0501(12) 0.0746(5) 0.2347(5)
H8 H 0.0498 0.0627 0.2123
H10 H 0.0212 0.0742 0.1476
C1 C 0.7244(17) 0.2947(6) 0.4400(11)
C2 C 0.831(2) 0.6269(8) 0.4287(10)
C3 C 0.6690(19) 0.3530(7) 0.4876(8)
H11 H 0.6246 0.3324 0.4972
C4 C 0.7250(17) 0.3412(6) 0.4555(8)
C5 C 0.7852(15) 0.3760(6) 0.4419(10)
C6 C 0.7853(17) 0.4205(7) 0.4555(8)
C7 C 0.7364(19) 0.4303(8) 0.4904(9)
C8 C 0.6788(19) 0.3951(7) 0.5053(9)
C9 C 0.625(2) 0.4031(8) 0.5387(9)
H12 H 0.5906 0.3796 0.5498
C10 C 0.624(2) 0.4461(8) 0.5555(9)
H13 H 0.5816 0.4529 0.5754
C11 C 0.687(2) 0.4785(9) 0.5415(9)
H14 H 0.6912 0.5060 0.5546
C12 C 0.7449(19) 0.4725(8) 0.5091(9)
H15 H 0.7865 0.4949 0.5003
C13 C 0.8533(15) 0.4555(6) 0.4398(10)
H16 H 0.8972 0.4407 0.4222
H17 H 0.8906 0.4676 0.4611
C14 C 0.7232(11) 0.5719(3) 0.3856(4)
H18 H 0.6955 0.5975 0.3746
C15 C 0.7891(11) 0.5765(3) 0.4154(4)
C16 C 0.8305(10) 0.5382(4) 0.4318(4)
C17 C 0.8059(9) 0.4953(3) 0.4185(4)
C18 C 0.7399(7) 0.4907(3) 0.3886(3)
C19 C 0.6986(8) 0.5290(3) 0.3722(3)
C20 C 0.6326(10) 0.5244(4) 0.3424(4)
H19 H 0.6049 0.5500 0.3314
C21 C 0.6080(10) 0.4815(5) 0.3290(4)
H20 H 0.5638 0.4784 0.3091
C22 C 0.6493(11) 0.4432(4) 0.3455(4)
H21 H 0.6329 0.4146 0.3365
C23 C 0.7153(10) 0.4478(3) 0.3753(4)
H22 H 0.7430 0.4222 0.3863
C47 C 0.383(2) 0.2429(10) 0.6002(9)
H35 H 0.3482 0.2159 0.6081
H36 H 0.4295 0.2497 0.6201
N3 N 0.5376(13) 0.2162(5) 0.4947(5)
C48 C 0.5100(14) 0.1804(4) 0.5184(6)
H37 H 0.5258 0.1508 0.5116
C49 C 0.4588(13) 0.1889(5) 0.5521(5)
H38 H 0.4403 0.1649 0.5679
C50 C 0.4352(13) 0.2331(6) 0.5621(5)
C51 C 0.4629(14) 0.2689(4) 0.5385(6)
H39 H 0.4471 0.2985 0.5452
C52 C 0.5141(14) 0.2605(4) 0.5048(5)
H40 H 0.5326 0.2844 0.4890
C53 C 0.313(2) 0.2823(9) 0.5971(9)
H41 H 0.3382 0.3045 0.5790
H42 H 0.3070 0.2968 0.6221
C54 C 0.213(2) 0.2669(11) 0.5833(10)
H43 H 0.2209 0.2529 0.5581
H44 H 0.1745 0.2938 0.5796
N4 N 0.0540(10) 0.1753(5) 0.6566(5)
C55 C 0.0679(13) 0.1645(5) 0.6178(5)
H45 H 0.0430 0.1378 0.6078
C56 C 0.1190(14) 0.1938(6) 0.5941(4)
H46 H 0.1283 0.1866 0.5682
C57 C 0.1563(13) 0.2338(6) 0.6090(5)
C58 C 0.1424(13) 0.2446(5) 0.6477(5)
H47 H 0.1674 0.2714 0.6577
C59 C 0.0913(12) 0.2153(6) 0.6715(4)
H48 H 0.0820 0.2225 0.6974
C60 C 0.479(2) 0.2515(9) 0.4086(10)
H49 H 0.5048 0.2750 0.4231
C61 C 0.396(2) 0.2588(9) 0.3880(10)
H50 H 0.3677 0.2872 0.3890
C62 C 0.354(2) 0.2253(9) 0.3659(10)
C63 C 0.400(3) 0.1837(9) 0.3654(10)
H51 H 0.3738 0.1603 0.3508
C64 C 0.483(3) 0.1761(10) 0.3858(11)
H52 H 0.5117 0.1477 0.3845
C65 C 0.263(3) 0.2341(10) 0.3438(10)
H53 H 0.2133 0.2398 0.3629
H54 H 0.2458 0.2058 0.3311
C66 C 0.254(3) 0.2710(10) 0.3135(11)
H55 H 0.2809 0.2600 0.2894
H56 H 0.2918 0.2968 0.3217
C67 C 0.152(3) 0.2869(10) 0.3059(11)
H57 H 0.1144 0.2886 0.3296
H58 H 0.1500 0.3160 0.2929
C68 C 0.115(2) 0.2106(8) 0.2184(9)
H59 H 0.1349 0.2094 0.1928
C69 C 0.146(2) 0.2451(8) 0.2420(9)
H60 H 0.1873 0.2666 0.2317
C70 C 0.118(2) 0.2494(9) 0.2802(10)
C71 C 0.055(2) 0.2166(9) 0.2937(9)
H61 H 0.0227 0.2211 0.3168
C72 C 0.041(3) 0.1771(10) 0.2725(11)
H62 H 0.0242 0.1504 0.2850
Ni3 Ni 0.86855(18) 0.70084(6) 0.44422(12)
O16 O 0.6153(15) 0.1301(5) 0.4515(7)
O17 O 0.7128(13) 0.1565(5) 0.4068(6)
O18 O 0.1357(11) 0.1253(5) 0.1736(5)
O7 O 0.8618(12) 0.1286(6) 0.2192(6)
O8 O 0.8728(14) 0.0883(7) 0.2715(7)
O10 O 0.1287(11) 0.0780(5) 0.1236(5)
O11 O 0.7032(11) 0.1553(5) 0.1940(5)
H3 H 0.7614 0.1530 0.1964
O12 O 0.3009(10) 0.1552(5) 0.1988(6)
H4 H 0.2426 0.1521 0.1984
H7 H 0.9943 0.0731 0.2444
O15 O 0.9662(11) 0.0776(5) 0.1576(5)
H9 H 0.9496 0.0528 0.1683
C24 C 0.8236(19) 0.1075(8) 0.2476(9)
C25 C 0.1771(19) 0.1037(9) 0.1456(8)
C26 C 0.6776(7) 0.0867(4) 0.2801(4)
H23 H 0.7166 0.0721 0.2980
C27 C 0.7179(7) 0.1084(4) 0.2484(4)
C28 C 0.6595(9) 0.1302(4) 0.2217(3)
C29 C 0.5609(9) 0.1303(4) 0.2267(3)
C30 C 0.5206(7) 0.1085(3) 0.2584(3)
C31 C 0.5790(7) 0.0867(3) 0.2851(3)
C32 C 0.5387(10) 0.0650(4) 0.3168(3)
H24 H 0.5777 0.0504 0.3347
C33 C 0.4401(10) 0.0650(5) 0.3219(4)
H25 H 0.4131 0.0504 0.3431
C34 C 0.3817(8) 0.0868(5) 0.2951(5)
H26 H 0.3157 0.0868 0.2985
C35 C 0.4220(7) 0.1085(4) 0.2634(4)
H27 H 0.3829 0.1231 0.2455
C36 C 0.5039(17) 0.1568(6) 0.1967(9)
H28 H 0.4599 0.1764 0.2104
H29 H 0.5482 0.1762 0.1828
C37 C 0.3274(8) 0.0829(4) 0.1110(4)
H30 H 0.2891 0.0679 0.0932
C38 C 0.2860(8) 0.1048(4) 0.1425(4)
C39 C 0.3432(9) 0.1272(4) 0.1692(4)
C40 C 0.4419(9) 0.1277(4) 0.1645(3)
C41 C 0.4834(7) 0.1059(3) 0.1331(3)
C42 C 0.4261(8) 0.0835(3) 0.1063(3)
C43 C 0.4676(11) 0.0617(4) 0.0749(3)
H31 H 0.4293 0.0467 0.0570
C44 C 0.5663(11) 0.0622(5) 0.0702(4)
H32 H 0.5940 0.0476 0.0492
C45 C 0.6236(8) 0.0846(5) 0.0969(5)
H33 H 0.6896 0.0850 0.0938
C46 C 0.5821(7) 0.1065(5) 0.1283(4)
H34 H 0.6204 0.1215 0.1462
Ni5 Ni 0.9985(2) 0.12682(7) 0.69480(13)
N5 N 0.9460(10) 0.1753(5) 0.1566(5)
O6_2 O 0.6011(14) 0.0432(5) 0.4594(6)
H2_2 H 0.5947 0.0701 0.4645
C2_2 C 0.669(2) 0.1269(8) 0.4287(10)
H14_2 H 0.8088 0.0060 0.5546
C14_2 C 0.7768(11) 0.0719(3) 0.3856(4)
H18_2 H 0.8045 0.0975 0.3746
C15_2 C 0.7109(11) 0.0765(3) 0.4154(4)
C16_2 C 0.6695(10) 0.0382(4) 0.4318(4)
C19_2 C 0.8014(8) 0.0290(3) 0.3722(3)
C20_2 C 0.8674(10) 0.0244(4) 0.3424(4)
H19_2 H 0.8951 0.0500 0.3314
N1_2 N 0.9755(19) 0.7097(8) 0.4079(8)
O1_2 O 0.8319(11) 0.7656(4) 0.4470(8)
O2_2 O 0.7299(16) 0.7850(5) 0.4108(6)
O5_2 O 0.6481(16) 0.8680(6) 0.4120(7)
H1_2 H 0.6471 0.8408 0.4068
O13_2 O 0.7479(13) 0.6980(5) 0.4858(5)
H5_2 H 0.6960 0.6860 0.4781
H6_2 H 0.7548 0.7233 0.4743
C1_2 C 0.7756(17) 0.7947(6) 0.4400(11)
C3_2 C 0.8310(19) 0.8530(7) 0.4876(8)
H11_2 H 0.8754 0.8324 0.4972
C4_2 C 0.7750(17) 0.8412(6) 0.4555(8)
C5_2 C 0.7148(15) 0.8760(6) 0.4419(10)
C6_2 C 0.7147(17) 0.9205(7) 0.4555(8)
C7_2 C 0.7636(19) 0.9303(8) 0.4904(9)
C8_2 C 0.8212(19) 0.8951(7) 0.5053(9)
C9_2 C 0.875(2) 0.9031(8) 0.5387(9)
H12_2 H 0.9094 0.8796 0.5498
C10_2 C 0.876(2) 0.9461(8) 0.5555(9)
H13_2 H 0.9184 0.9529 0.5754
C11_2 C 0.813(2) 0.9785(9) 0.5415(9)
C12_2 C 0.7551(19) 0.9725(8) 0.5091(9)
H15_2 H 0.7135 0.9949 0.5003
C13_2 C 0.6467(15) 0.9555(6) 0.4398(10)
H16_2 H 0.6028 0.9407 0.4222
H17_2 H 0.6094 0.9676 0.4611
C17_2 C 0.6941(9) 0.9953(3) 0.4185(4)
C18_2 C 0.7601(7) 0.9907(3) 0.3886(3)
C21_2 C 0.8920(10) 0.9815(5) 0.3290(4)
H20_2 H 0.9362 0.9784 0.3091
C22_2 C 0.8507(11) 0.9432(4) 0.3455(4)
H21_2 H 0.8671 0.9146 0.3365
C23_2 C 0.7847(10) 0.9478(3) 0.3753(4)
H22_2 H 0.7570 0.9222 0.3863
N3_2 N 0.9624(13) 0.7162(5) 0.4947(5)
C48_2 C 0.9900(14) 0.6804(4) 0.5184(6)
H37_2 H 0.9742 0.6508 0.5116
C52_2 C 0.9859(14) 0.7605(4) 0.5048(5)
H40_2 H 0.9674 0.7844 0.4890
H49_2 H 0.9952 0.7750 0.4231
H52_2 H 0.9883 0.6477 0.3845
O3_2 O 0.3847(15) 0.1301(5) 0.9515(7)
O4_2 O 0.2872(13) 0.1565(5) 0.9068(6)
O6_3 O 0.3989(14) 0.0432(5) 0.9594(6)
H2_3 H 0.4053 0.0701 0.9645
C2_3 C 0.331(2) 0.1269(8) 0.9287(10)
C14_3 C 0.2232(11) 0.0719(3) 0.8856(4)
H18_3 H 0.1955 0.0975 0.8746
C15_3 C 0.2891(11) 0.0765(3) 0.9154(4)
C16_3 C 0.3305(10) 0.0382(4) 0.9318(4)
C19_3 C 0.1986(8) 0.0290(3) 0.8722(3)
C20_3 C 0.1326(10) 0.0244(4) 0.8424(4)
H19_3 H 0.1049 0.0500 0.8314
Ni3_2 Ni 0.36855(18) 0.20084(6) 0.94422(12)
Ni1_2 Ni 0.13145(18) 0.70084(6) 0.94422(12)
N1_3 N 0.0245(19) 0.7097(8) 0.9079(8)
O1_3 O 0.1681(11) 0.7656(4) 0.9470(8)
O2_3 O 0.2701(16) 0.7850(5) 0.9108(6)
O5_3 O 0.3519(16) 0.8680(6) 0.9120(7)
H1_3 H 0.3529 0.8408 0.9068
O13_3 O 0.2521(13) 0.6980(5) 0.9858(5)
H5_3 H 0.3040 0.6860 0.9781
H6_3 H 0.2452 0.7233 0.9743
C1_3 C 0.2244(17) 0.7947(6) 0.9400(11)
C3_3 C 0.1690(19) 0.8530(7) 0.9876(8)
H11_3 H 0.1246 0.8324 0.9972
C4_3 C 0.2250(17) 0.8412(6) 0.9555(8)
C5_3 C 0.2852(15) 0.8760(6) 0.9419(10)
C6_3 C 0.2853(17) 0.9205(7) 0.9555(8)
C7_3 C 0.2364(19) 0.9303(8) 0.9904(9)
C13_3 C 0.3533(15) 0.9555(6) 0.9398(10)
H16_3 H 0.3972 0.9407 0.9222
H17_3 H 0.3906 0.9676 0.9611
C17_3 C 0.3059(9) 0.9953(3) 0.9185(4)
C18_3 C 0.2399(7) 0.9907(3) 0.8886(3)
C21_3 C 0.1080(10) 0.9815(5) 0.8290(4)
H20_3 H 0.0638 0.9784 0.8091
C22_3 C 0.1493(11) 0.9432(4) 0.8455(4)
H21_3 H 0.1329 0.9146 0.8365
C23_3 C 0.2153(10) 0.9478(3) 0.8753(4)
H22_3 H 0.2430 0.9222 0.8863
N3_3 N 0.0376(13) 0.7162(5) 0.9947(5)
H40_3 H 0.0326 0.7844 0.9890
H49_3 H 0.0048 0.7750 0.9231
H52_3 H 0.0117 0.6477 0.8845
O16_2 O 0.1153(15) 0.6301(5) 0.9515(7)
O17_2 O 0.2128(13) 0.6565(5) 0.9068(6)
O7_2 O 0.1382(12) 0.1286(6) 0.7192(6)
O8_2 O 0.1272(14) 0.0883(7) 0.7715(7)
O9 O 0.8643(11) 0.1253(5) 0.6736(5)
O10_2 O 0.8713(11) 0.0780(5) 0.6236(5)
O11_2 O 0.2968(11) 0.1553(5) 0.6940(5)
H3_2 H 0.2386 0.1530 0.6964
O12_2 O 0.6991(10) 0.1552(5) 0.6988(6)
H4_2 H 0.7574 0.1521 0.6984
H7_2 H 0.0057 0.0731 0.7444
O15_2 O 0.0338(11) 0.0776(5) 0.6576(5)
H9_2 H 0.0504 0.0528 0.6683
C24_2 C 0.1764(19) 0.1075(8) 0.7476(9)
C25_2 C 0.8229(19) 0.1037(9) 0.6456(8)
C26_2 C 0.3224(7) 0.0867(4) 0.7801(4)
H23_2 H 0.2834 0.0721 0.7980
C27_2 C 0.2821(7) 0.1084(4) 0.7484(4)
C28_2 C 0.3405(9) 0.1302(4) 0.7217(3)
C29_2 C 0.4391(9) 0.1303(4) 0.7267(3)
C30_2 C 0.4794(7) 0.1085(3) 0.7584(3)
C31_2 C 0.4210(7) 0.0867(3) 0.7851(3)
C32_2 C 0.4613(10) 0.0650(4) 0.8168(3)
H24_2 H 0.4223 0.0504 0.8347
C33_2 C 0.5599(10) 0.0650(5) 0.8219(4)
H25_2 H 0.5869 0.0504 0.8431
C34_2 C 0.6183(8) 0.0868(5) 0.7951(5)
H26_2 H 0.6843 0.0868 0.7985
C35_2 C 0.5780(7) 0.1085(4) 0.7634(4)
H27_2 H 0.6171 0.1231 0.7455
C36_2 C 0.4961(17) 0.1568(6) 0.6967(9)
H28_2 H 0.5401 0.1764 0.7104
H29_2 H 0.4518 0.1762 0.6828
C37_2 C 0.6726(8) 0.0829(4) 0.6110(4)
H30_2 H 0.7109 0.0679 0.5932
C38_2 C 0.7140(8) 0.1048(4) 0.6425(4)
C39_2 C 0.6568(9) 0.1272(4) 0.6692(4)
C40_2 C 0.5581(9) 0.1277(4) 0.6645(3)
C41_2 C 0.5166(7) 0.1059(3) 0.6331(3)
C42_2 C 0.5739(8) 0.0835(3) 0.6063(3)
C43_2 C 0.5324(11) 0.0617(4) 0.5749(3)
H31_2 H 0.5707 0.0467 0.5570
C44_2 C 0.4337(11) 0.0622(5) 0.5702(4)
H32_2 H 0.4060 0.0476 0.5492
C45_2 C 0.3764(8) 0.0846(5) 0.5969(5)
H33_2 H 0.3104 0.0850 0.5938
C46_2 C 0.4179(7) 0.1065(5) 0.6283(4)
H34_2 H 0.3796 0.1215 0.6462
C8_3 C 0.3212(19) 0.3951(7) 0.0053(9)
C9_3 C 0.375(2) 0.4031(8) 0.0387(9)
H12_3 H 0.4094 0.3796 0.0498
C10_3 C 0.376(2) 0.4461(8) 0.0555(9)
H13_3 H 0.4184 0.4529 0.0754
C11_3 C 0.313(2) 0.4785(9) 0.0415(9)
H14_3 H 0.3088 0.5060 0.0546
C12_3 C 0.2551(19) 0.4725(8) 0.0091(9)
H15_3 H 0.2135 0.4949 0.0003
C47_2 C 0.617(2) 0.2429(10) 0.1002(9)
H35_2 H 0.6518 0.2159 0.1081
H36_2 H 0.5705 0.2497 0.1201
C48_3 C 0.4900(14) 0.1804(4) 0.0184(6)
H37_3 H 0.4742 0.1508 0.0116
C49_2 C 0.5412(13) 0.1889(5) 0.0521(5)
H38_2 H 0.5597 0.1649 0.0679
C50_2 C 0.5648(13) 0.2331(6) 0.0621(5)
C51_2 C 0.5371(14) 0.2689(4) 0.0385(6)
H39_2 H 0.5529 0.2985 0.0452
C52_3 C 0.4859(14) 0.2605(4) 0.0048(5)
C53_2 C 0.687(2) 0.2823(9) 0.0971(9)
H41_2 H 0.6618 0.3045 0.0790
H42_2 H 0.6930 0.2968 0.1221
C54_2 C 0.787(2) 0.2669(11) 0.0833(10)
H43_2 H 0.7791 0.2529 0.0581
H44_2 H 0.8255 0.2938 0.0796
C55_2 C 0.9321(13) 0.1645(5) 0.1178(5)
H45_2 H 0.9570 0.1378 0.1078
C56_2 C 0.8810(14) 0.1938(6) 0.0941(4)
H46_2 H 0.8717 0.1866 0.0682
C57_2 C 0.8437(13) 0.2338(6) 0.1090(5)
C58_2 C 0.8576(13) 0.2446(5) 0.1477(5)
H47_2 H 0.8326 0.2714 0.1577
C59_2 C 0.9087(12) 0.2153(6) 0.1715(4)
H48_2 H 0.9180 0.2225 0.1974
N1_4 N 0.4755(19) 0.2097(8) 0.9079(8)
N2_2 N 0.9468(17) 0.1776(7) 0.7326(7)
O1_4 O 0.3319(11) 0.2656(4) 0.9470(8)
O2_4 O 0.2299(16) 0.2850(5) 0.9108(6)
O5_4 O 0.1481(16) 0.3680(6) 0.9120(7)
H1_4 H 0.1471 0.3408 0.9068
O6_4 O 0.1011(14) 0.5432(5) 0.9594(6)
H2_4 H 0.0947 0.5701 0.9645
O13_4 O 0.2479(13) 0.1980(5) 0.9858(5)
H5_4 H 0.1960 0.1860 0.9781
H6_4 H 0.2548 0.2233 0.9743
O14_2 O 0.9499(12) 0.0746(5) 0.7347(5)
H8_2 H 0.9502 0.0627 0.7123
H10_2 H 0.9788 0.0742 0.6476
C1_4 C 0.2756(17) 0.2947(6) 0.9400(11)
C2_4 C 0.169(2) 0.6269(8) 0.9287(10)
C3_4 C 0.3310(19) 0.3530(7) 0.9876(8)
H11_4 H 0.3754 0.3324 0.9972
C4_4 C 0.2750(17) 0.3412(6) 0.9555(8)
C5_4 C 0.2148(15) 0.3760(6) 0.9419(10)
C6_4 C 0.2147(17) 0.4205(7) 0.9555(8)
C7_4 C 0.2636(19) 0.4303(8) 0.9904(9)
C13_4 C 0.1467(15) 0.4555(6) 0.9398(10)
H16_4 H 0.1028 0.4407 0.9222
H17_4 H 0.1094 0.4676 0.9611
C14_4 C 0.2768(11) 0.5719(3) 0.8856(4)
H18_4 H 0.3045 0.5975 0.8746
C15_4 C 0.2109(11) 0.5765(3) 0.9154(4)
C16_4 C 0.1695(10) 0.5382(4) 0.9318(4)
C17_4 C 0.1941(9) 0.4953(3) 0.9185(4)
C18_4 C 0.2601(7) 0.4907(3) 0.8886(3)
C19_4 C 0.3014(8) 0.5290(3) 0.8722(3)
C20_4 C 0.3674(10) 0.5244(4) 0.8424(4)
H19_4 H 0.3951 0.5500 0.8314
C21_4 C 0.3920(10) 0.4815(5) 0.8290(4)
H20_4 H 0.4362 0.4784 0.8091
C22_4 C 0.3507(11) 0.4432(4) 0.8455(4)
H21_4 H 0.3671 0.4146 0.8365
C23_4 C 0.2847(10) 0.4478(3) 0.8753(4)
H22_4 H 0.2570 0.4222 0.8863
N3_4 N 0.4624(13) 0.2162(5) 0.9947(5)
H40_4 H 0.4674 0.2844 0.9890
C60_2 C 0.521(2) 0.2515(9) 0.9086(10)
H49_4 H 0.4952 0.2750 0.9231
C61_2 C 0.604(2) 0.2588(9) 0.8880(10)
H50_2 H 0.6323 0.2872 0.8890
C62_2 C 0.646(2) 0.2253(9) 0.8659(10)
C63_2 C 0.600(3) 0.1837(9) 0.8654(10)
H51_2 H 0.6262 0.1603 0.8508
C64_2 C 0.517(3) 0.1761(10) 0.8858(11)
H52_4 H 0.4883 0.1477 0.8845
C65_2 C 0.737(3) 0.2341(10) 0.8438(10)
H53_2 H 0.7867 0.2398 0.8629
H54_2 H 0.7542 0.2058 0.8311
C66_2 C 0.746(3) 0.2710(10) 0.8135(11)
H55_2 H 0.7191 0.2600 0.7894
H56_2 H 0.7082 0.2968 0.8217
C67_2 C 0.848(3) 0.2869(10) 0.8059(11)
H57_2 H 0.8856 0.2886 0.8296
H58_2 H 0.8500 0.3160 0.7929
C68_2 C 0.885(2) 0.2106(8) 0.7184(9)
H59_2 H 0.8651 0.2094 0.6928
C69_2 C 0.854(2) 0.2451(8) 0.7420(9)
H60_2 H 0.8127 0.2666 0.7317
C70_2 C 0.882(2) 0.2494(9) 0.7802(10)
C71_2 C 0.945(2) 0.2166(9) 0.7937(9)
H61_2 H 0.9773 0.2211 0.8168
C72_2 C 0.959(3) 0.1771(10) 0.7725(11)
H62_2 H 0.9758 0.1504 0.7850
O7_3 O 0.1382(12) 0.8714(6) 0.2192(6)
O8_3 O 0.1272(14) 0.9117(7) 0.2715(7)
O9_2 O 0.8643(11) 0.8747(5) 0.1736(5)
O10_3 O 0.8713(11) 0.9220(5) 0.1236(5)
O11_3 O 0.2968(11) 0.8447(5) 0.1940(5)
H3_3 H 0.2386 0.8470 0.1964
O12_3 O 0.6991(10) 0.8448(5) 0.1988(6)
H4_3 H 0.7574 0.8479 0.1984
H7_3 H 0.0057 0.9269 0.2444
O15_3 O 0.0338(11) 0.9224(5) 0.1576(5)
H9_3 H 0.0504 0.9472 0.1683
C24_3 C 0.1764(19) 0.8925(8) 0.2476(9)
C25_3 C 0.8229(19) 0.8963(9) 0.1456(8)
C26_3 C 0.3224(7) 0.9133(4) 0.2801(4)
H23_3 H 0.2834 0.9279 0.2980
C27_3 C 0.2821(7) 0.8916(4) 0.2484(4)
C28_3 C 0.3405(9) 0.8698(4) 0.2217(3)
C29_3 C 0.4391(9) 0.8697(4) 0.2267(3)
C30_3 C 0.4794(7) 0.8915(3) 0.2584(3)
C31_3 C 0.4210(7) 0.9133(3) 0.2851(3)
C32_3 C 0.4613(10) 0.9350(4) 0.3168(3)
H24_3 H 0.4223 0.9496 0.3347
C33_3 C 0.5599(10) 0.9350(5) 0.3219(4)
H25_3 H 0.5869 0.9496 0.3431
C34_3 C 0.6183(8) 0.9132(5) 0.2951(5)
H26_3 H 0.6843 0.9132 0.2985
C35_3 C 0.5780(7) 0.8915(4) 0.2634(4)
H27_3 H 0.6171 0.8769 0.2455
C36_3 C 0.4961(17) 0.8432(6) 0.1967(9)
H28_3 H 0.5401 0.8236 0.2104
H29_3 H 0.4518 0.8238 0.1828
C37_3 C 0.6726(8) 0.9171(4) 0.1110(4)
H30_3 H 0.7109 0.9321 0.0932
C38_3 C 0.7140(8) 0.8952(4) 0.1425(4)
C39_3 C 0.6568(9) 0.8728(4) 0.1692(4)
C40_3 C 0.5581(9) 0.8723(4) 0.1645(3)
C41_3 C 0.5166(7) 0.8941(3) 0.1331(3)
C42_3 C 0.5739(8) 0.9165(3) 0.1063(3)
C43_3 C 0.5324(11) 0.9383(4) 0.0749(3)
H31_3 H 0.5707 0.9533 0.0570
C44_3 C 0.4337(11) 0.9378(5) 0.0702(4)
H32_3 H 0.4060 0.9524 0.0492
C45_3 C 0.3764(8) 0.9154(5) 0.0969(5)
H33_3 H 0.3104 0.9150 0.0938
C46_3 C 0.4179(7) 0.8935(5) 0.1283(4)
H34_3 H 0.3796 0.8785 0.1462
Ni4 Ni 0.9985(2) 0.87318(7) 0.19480(13)
Ni5_2 Ni 0.0015(2) 0.87318(7) 0.69480(13)
N5_2 N 0.0540(10) 0.8247(5) 0.1566(5)
Ni1_3 Ni 0.36855(18) 0.79916(6) 0.44422(12)
N1_5 N 0.4755(19) 0.7903(8) 0.4079(8)
N2_3 N 0.9468(17) 0.8224(7) 0.2326(7)
O1_5 O 0.3319(11) 0.7344(4) 0.4470(8)
O2_5 O 0.2299(16) 0.7150(5) 0.4108(6)
O3_3 O 0.1153(15) 0.3699(5) 0.4515(7)
O4_3 O 0.2128(13) 0.3435(5) 0.4068(6)
O5_5 O 0.1481(16) 0.6320(6) 0.4120(7)
H1_5 H 0.1471 0.6592 0.4068
O6_5 O 0.1011(14) 0.4568(5) 0.4594(6)
H2_5 H 0.0947 0.4299 0.4645
O13_5 O 0.2479(13) 0.8020(5) 0.4858(5)
H5_5 H 0.1960 0.8140 0.4781
H6_5 H 0.2548 0.7767 0.4743
O14_3 O 0.9499(12) 0.9254(5) 0.2347(5)
H8_3 H 0.9502 0.9373 0.2123
H10_3 H 0.9788 0.9258 0.1476
C1_5 C 0.2756(17) 0.7053(6) 0.4400(11)
C2_5 C 0.169(2) 0.3731(8) 0.4287(10)
C3_5 C 0.3310(19) 0.6470(7) 0.4876(8)
H11_5 H 0.3754 0.6676 0.4972
C4_5 C 0.2750(17) 0.6588(6) 0.4555(8)
C5_5 C 0.2148(15) 0.6240(6) 0.4419(10)
C6_5 C 0.2147(17) 0.5795(7) 0.4555(8)
C7_5 C 0.2636(19) 0.5697(8) 0.4904(9)
C8_4 C 0.3212(19) 0.6049(7) 0.5053(9)
C9_4 C 0.375(2) 0.5969(8) 0.5387(9)
H12_4 H 0.4094 0.6204 0.5498
C10_4 C 0.376(2) 0.5539(8) 0.5555(9)
H13_4 H 0.4184 0.5471 0.5754
C11_4 C 0.313(2) 0.5215(9) 0.5415(9)
H14_4 H 0.3088 0.4940 0.5546
C12_4 C 0.2551(19) 0.5275(8) 0.5091(9)
H15_4 H 0.2135 0.5051 0.5003
C13_5 C 0.1467(15) 0.5445(6) 0.4398(10)
H16_5 H 0.1028 0.5593 0.4222
H17_5 H 0.1094 0.5324 0.4611
C14_5 C 0.2768(11) 0.4281(3) 0.3856(4)
H18_5 H 0.3045 0.4025 0.3746
C15_5 C 0.2109(11) 0.4235(3) 0.4154(4)
C16_5 C 0.1695(10) 0.4618(4) 0.4318(4)
C17_5 C 0.1941(9) 0.5047(3) 0.4185(4)
C18_5 C 0.2601(7) 0.5093(3) 0.3886(3)
C19_5 C 0.3014(8) 0.4710(3) 0.3722(3)
C20_5 C 0.3674(10) 0.4756(4) 0.3424(4)
H19_5 H 0.3951 0.4500 0.3314
C21_5 C 0.3920(10) 0.5185(5) 0.3290(4)
H20_5 H 0.4362 0.5216 0.3091
C22_5 C 0.3507(11) 0.5568(4) 0.3455(4)
H21_5 H 0.3671 0.5854 0.3365
C23_5 C 0.2847(10) 0.5522(3) 0.3753(4)
H22_5 H 0.2570 0.5778 0.3863
C47_3 C 0.617(2) 0.7571(10) 0.6002(9)
H35_3 H 0.6518 0.7841 0.6081
H36_3 H 0.5705 0.7503 0.6201
N3_5 N 0.4624(13) 0.7838(5) 0.4947(5)
C48_4 C 0.4900(14) 0.8196(4) 0.5184(6)
H37_4 H 0.4742 0.8492 0.5116
C49_3 C 0.5412(13) 0.8111(5) 0.5521(5)
H38_3 H 0.5597 0.8351 0.5679
C50_3 C 0.5648(13) 0.7669(6) 0.5621(5)
C51_3 C 0.5371(14) 0.7311(4) 0.5385(6)
H39_3 H 0.5529 0.7015 0.5452
C52_4 C 0.4859(14) 0.7395(4) 0.5048(5)
H40_5 H 0.4674 0.7156 0.4890
C53_3 C 0.687(2) 0.7177(9) 0.5971(9)
H41_3 H 0.6618 0.6955 0.5790
H42_3 H 0.6930 0.7032 0.6221
C54_3 C 0.787(2) 0.7331(11) 0.5833(10)
H43_3 H 0.7791 0.7471 0.5581
H44_3 H 0.8255 0.7062 0.5796
N4_2 N 0.9460(10) 0.8247(5) 0.6566(5)
C55_3 C 0.9321(13) 0.8355(5) 0.6178(5)
H45_3 H 0.9570 0.8622 0.6078
C56_3 C 0.8810(14) 0.8062(6) 0.5941(4)
H46_3 H 0.8717 0.8134 0.5682
C57_3 C 0.8437(13) 0.7662(6) 0.6090(5)
C58_3 C 0.8576(13) 0.7554(5) 0.6477(5)
H47_3 H 0.8326 0.7286 0.6577
C59_3 C 0.9087(12) 0.7847(6) 0.6715(4)
H48_3 H 0.9180 0.7775 0.6974
C60_3 C 0.521(2) 0.7485(9) 0.4086(10)
H49_5 H 0.4952 0.7250 0.4231
C61_3 C 0.604(2) 0.7412(9) 0.3880(10)
H50_3 H 0.6323 0.7128 0.3890
C62_3 C 0.646(2) 0.7747(9) 0.3659(10)
C63_3 C 0.600(3) 0.8163(9) 0.3654(10)
H51_3 H 0.6262 0.8397 0.3508
C64_3 C 0.517(3) 0.8239(10) 0.3858(11)
H52_5 H 0.4883 0.8523 0.3845
C65_3 C 0.737(3) 0.7659(10) 0.3438(10)
H53_3 H 0.7867 0.7602 0.3629
H54_3 H 0.7542 0.7942 0.3311
C66_3 C 0.746(3) 0.7290(10) 0.3135(11)
H55_3 H 0.7191 0.7400 0.2894
H56_3 H 0.7082 0.7032 0.3217
C67_3 C 0.848(3) 0.7131(10) 0.3059(11)
H57_3 H 0.8856 0.7114 0.3296
H58_3 H 0.8500 0.6840 0.2929
C68_3 C 0.885(2) 0.7894(8) 0.2184(9)
H59_3 H 0.8651 0.7906 0.1928
C69_3 C 0.854(2) 0.7549(8) 0.2420(9)
H60_3 H 0.8127 0.7334 0.2317
C70_3 C 0.882(2) 0.7506(9) 0.2802(10)
C71_3 C 0.945(2) 0.7834(9) 0.2937(9)
H61_3 H 0.9773 0.7789 0.3168
C72_3 C 0.959(3) 0.8229(10) 0.2725(11)
H62_3 H 0.9758 0.8496 0.2850
Ni3_3 Ni 0.13145(18) 0.29916(6) 0.44422(12)
O16_3 O 0.3847(15) 0.8699(5) 0.4515(7)
O17_3 O 0.2872(13) 0.8435(5) 0.4068(6)
N1_6 N 0.0245(19) 0.2903(8) 0.4079(8)
O1_6 O 0.1681(11) 0.2344(4) 0.4470(8)
O2_6 O 0.2701(16) 0.2150(5) 0.4108(6)
O5_6 O 0.3519(16) 0.1320(6) 0.4120(7)
H1_6 H 0.3529 0.1592 0.4068
O13_6 O 0.2521(13) 0.3020(5) 0.4858(5)
H5_6 H 0.3040 0.3140 0.4781
H6_6 H 0.2452 0.2767 0.4743
C1_6 C 0.2244(17) 0.2053(6) 0.4400(11)
C3_6 C 0.1690(19) 0.1470(7) 0.4876(8)
H11_6 H 0.1246 0.1676 0.4972
C4_6 C 0.2250(17) 0.1588(6) 0.4555(8)
C5_6 C 0.2852(15) 0.1240(6) 0.4419(10)
C6_6 C 0.2853(17) 0.0795(7) 0.4555(8)
C7_6 C 0.2364(19) 0.0697(8) 0.4904(9)
C8_5 C 0.1788(19) 0.1049(7) 0.5053(9)
C9_5 C 0.125(2) 0.0969(8) 0.5387(9)
H12_5 H 0.0906 0.1204 0.5498
C10_5 C 0.124(2) 0.0539(8) 0.5555(9)
H13_5 H 0.0816 0.0471 0.5754
C11_5 C 0.187(2) 0.0215(9) 0.5415(9)
C12_5 C 0.2449(19) 0.0275(8) 0.5091(9)
H15_5 H 0.2865 0.0051 0.5003
C13_6 C 0.3533(15) 0.0445(6) 0.4398(10)
H16_6 H 0.3972 0.0593 0.4222
H17_6 H 0.3906 0.0324 0.4611
C17_6 C 0.3059(9) 0.0047(3) 0.4185(4)
C18_6 C 0.2399(7) 0.0093(3) 0.3886(3)
C21_6 C 0.1080(10) 0.0185(5) 0.3290(4)
H20_6 H 0.0638 0.0216 0.3091
C22_6 C 0.1493(11) 0.0568(4) 0.3455(4)
H21_6 H 0.1329 0.0854 0.3365
C23_6 C 0.2153(10) 0.0522(3) 0.3753(4)
H22_6 H 0.2430 0.0778 0.3863
N3_6 N 0.0376(13) 0.2838(5) 0.4947(5)
C48_5 C 0.0100(14) 0.3196(4) 0.5184(6)
H37_5 H 0.0258 0.3492 0.5116
C52_5 C 0.0141(14) 0.2395(4) 0.5048(5)
H40_6 H 0.0326 0.2156 0.4890
H49_6 H 0.0048 0.2250 0.4231
H52_6 H 0.0117 0.3523 0.3845
O6_6 O 0.3989(14) 0.9568(5) 0.4594(6)
H2_6 H 0.4053 0.9299 0.4645
C2_6 C 0.331(2) 0.8731(8) 0.4287(10)
H14_5 H 0.1912 0.9940 0.5546
C14_6 C 0.2232(11) 0.9281(3) 0.3856(4)
H18_6 H 0.1955 0.9025 0.3746
C15_6 C 0.2891(11) 0.9235(3) 0.4154(4)
C16_6 C 0.3305(10) 0.9618(4) 0.4318(4)
C19_6 C 0.1986(8) 0.9710(3) 0.3722(3)
C20_6 C 0.1326(10) 0.9756(4) 0.3424(4)
H19_6 H 0.1049 0.9500 0.3314
Ni1_4 Ni 0.86855(18) 0.29916(6) 0.94422(12)
N1_7 N 0.9755(19) 0.2903(8) 0.9079(8)
O1_7 O 0.8319(11) 0.2344(4) 0.9470(8)
O2_7 O 0.7299(16) 0.2150(5) 0.9108(6)
O5_7 O 0.6481(16) 0.1320(6) 0.9120(7)
H1_7 H 0.6471 0.1592 0.9068
O13_7 O 0.7479(13) 0.3020(5) 0.9858(5)
H5_7 H 0.6960 0.3140 0.9781
H6_7 H 0.7548 0.2767 0.9743
C1_7 C 0.7756(17) 0.2053(6) 0.9400(11)
C3_7 C 0.8310(19) 0.1470(7) 0.9876(8)
H11_7 H 0.8754 0.1676 0.9972
C4_7 C 0.7750(17) 0.1588(6) 0.9555(8)
C5_7 C 0.7148(15) 0.1240(6) 0.9419(10)
C6_7 C 0.7147(17) 0.0795(7) 0.9555(8)
C7_7 C 0.7636(19) 0.0697(8) 0.9904(9)
C13_7 C 0.6467(15) 0.0445(6) 0.9398(10)
H16_7 H 0.6028 0.0593 0.9222
H17_7 H 0.6094 0.0324 0.9611
C17_7 C 0.6941(9) 0.0047(3) 0.9185(4)
C18_7 C 0.7601(7) 0.0093(3) 0.8886(3)
C21_7 C 0.8920(10) 0.0185(5) 0.8290(4)
H20_7 H 0.9362 0.0216 0.8091
C22_7 C 0.8507(11) 0.0568(4) 0.8455(4)
H21_7 H 0.8671 0.0854 0.8365
C23_7 C 0.7847(10) 0.0522(3) 0.8753(4)
H22_7 H 0.7570 0.0778 0.8863
N3_7 N 0.9624(13) 0.2838(5) 0.9947(5)
H40_7 H 0.9674 0.2156 0.9890
H49_7 H 0.9952 0.2250 0.9231
H52_7 H 0.9883 0.3523 0.8845
O16_4 O 0.8847(15) 0.3699(5) 0.9515(7)
O17_4 O 0.7872(13) 0.3435(5) 0.9068(6)
O3_4 O 0.6153(15) 0.8699(5) 0.9515(7)
O4_4 O 0.7128(13) 0.8435(5) 0.9068(6)
O6_7 O 0.6011(14) 0.9568(5) 0.9594(6)
H2_7 H 0.5947 0.9299 0.9645
C2_7 C 0.669(2) 0.8731(8) 0.9287(10)
C14_7 C 0.7768(11) 0.9281(3) 0.8856(4)
H18_7 H 0.8045 0.9025 0.8746
C15_7 C 0.7109(11) 0.9235(3) 0.9154(4)
C16_7 C 0.6695(10) 0.9618(4) 0.9318(4)
C19_7 C 0.8014(8) 0.9710(3) 0.8722(3)
C20_7 C 0.8674(10) 0.9756(4) 0.8424(4)
H19_7 H 0.8951 0.9500 0.8314
Ni3_4 Ni 0.63145(18) 0.79916(6) 0.94422(12)
C8_6 C 0.6788(19) 0.6049(7) 0.0053(9)
C9_6 C 0.625(2) 0.5969(8) 0.0387(9)
H12_6 H 0.5906 0.6204 0.0498
C10_6 C 0.624(2) 0.5539(8) 0.0555(9)
H13_6 H 0.5816 0.5471 0.0754
C11_6 C 0.687(2) 0.5215(9) 0.0415(9)
H14_6 H 0.6912 0.4940 0.0546
C12_6 C 0.7449(19) 0.5275(8) 0.0091(9)
H15_6 H 0.7865 0.5051 0.0003
C47_4 C 0.383(2) 0.7571(10) 0.1002(9)
H35_4 H 0.3482 0.7841 0.1081
H36_4 H 0.4295 0.7503 0.1201
C48_6 C 0.5100(14) 0.8196(4) 0.0184(6)
H37_6 H 0.5258 0.8492 0.0116
C49_4 C 0.4588(13) 0.8111(5) 0.0521(5)
H38_4 H 0.4403 0.8351 0.0679
C50_4 C 0.4352(13) 0.7669(6) 0.0621(5)
C51_4 C 0.4629(14) 0.7311(4) 0.0385(6)
H39_4 H 0.4471 0.7015 0.0452
C52_6 C 0.5141(14) 0.7395(4) 0.0048(5)
C53_4 C 0.313(2) 0.7177(9) 0.0971(9)
H41_4 H 0.3382 0.6955 0.0790
H42_4 H 0.3070 0.7032 0.1221
C54_4 C 0.213(2) 0.7331(11) 0.0833(10)
H43_4 H 0.2209 0.7471 0.0581
H44_4 H 0.1745 0.7062 0.0796
C55_4 C 0.0679(13) 0.8355(5) 0.1178(5)
H45_4 H 0.0430 0.8622 0.1078
C56_4 C 0.1190(14) 0.8062(6) 0.0941(4)
H46_4 H 0.1283 0.8134 0.0682
C57_4 C 0.1563(13) 0.7662(6) 0.1090(5)
C58_4 C 0.1424(13) 0.7554(5) 0.1477(5)
H47_4 H 0.1674 0.7286 0.1577
C59_4 C 0.0913(12) 0.7847(6) 0.1715(4)
H48_4 H 0.0820 0.7775 0.1974
N1_8 N 0.5245(19) 0.7903(8) 0.9079(8)
N2_4 N 0.0532(17) 0.8224(7) 0.7326(7)
O1_8 O 0.6681(11) 0.7344(4) 0.9470(8)
O2_8 O 0.7701(16) 0.7150(5) 0.9108(6)
O5_8 O 0.8519(16) 0.6320(6) 0.9120(7)
H1_8 H 0.8529 0.6592 0.9068
O6_8 O 0.8989(14) 0.4568(5) 0.9594(6)
H2_8 H 0.9053 0.4299 0.9645
O13_8 O 0.7521(13) 0.8020(5) 0.9858(5)
H5_8 H 0.8040 0.8140 0.9781
H6_8 H 0.7452 0.7767 0.9743
O14_4 O 0.0501(12) 0.9254(5) 0.7347(5)
H8_4 H 0.0498 0.9373 0.7123
H10_4 H 0.0212 0.9258 0.6476
C1_8 C 0.7244(17) 0.7053(6) 0.9400(11)
C2_8 C 0.831(2) 0.3731(8) 0.9287(10)
C3_8 C 0.6690(19) 0.6470(7) 0.9876(8)
H11_8 H 0.6246 0.6676 0.9972
C4_8 C 0.7250(17) 0.6588(6) 0.9555(8)
C5_8 C 0.7852(15) 0.6240(6) 0.9419(10)
C6_8 C 0.7853(17) 0.5795(7) 0.9555(8)
C7_8 C 0.7364(19) 0.5697(8) 0.9904(9)
C13_8 C 0.8533(15) 0.5445(6) 0.9398(10)
H16_8 H 0.8972 0.5593 0.9222
H17_8 H 0.8906 0.5324 0.9611
C14_8 C 0.7232(11) 0.4281(3) 0.8856(4)
H18_8 H 0.6955 0.4025 0.8746
C15_8 C 0.7891(11) 0.4235(3) 0.9154(4)
C16_8 C 0.8305(10) 0.4618(4) 0.9318(4)
C17_8 C 0.8059(9) 0.5047(3) 0.9185(4)
C18_8 C 0.7399(7) 0.5093(3) 0.8886(3)
C19_8 C 0.6986(8) 0.4710(3) 0.8722(3)
C20_8 C 0.6326(10) 0.4756(4) 0.8424(4)
H19_8 H 0.6049 0.4500 0.8314
C21_8 C 0.6080(10) 0.5185(5) 0.8290(4)
H20_8 H 0.5638 0.5216 0.8091
C22_8 C 0.6493(11) 0.5568(4) 0.8455(4)
H21_8 H 0.6329 0.5854 0.8365
C23_8 C 0.7153(10) 0.5522(3) 0.8753(4)
H22_8 H 0.7430 0.5778 0.8863
N3_8 N 0.5376(13) 0.7838(5) 0.9947(5)
H40_8 H 0.5326 0.7156 0.9890
C60_4 C 0.479(2) 0.7485(9) 0.9086(10)
H49_8 H 0.5048 0.7250 0.9231
C61_4 C 0.396(2) 0.7412(9) 0.8880(10)
H50_4 H 0.3677 0.7128 0.8890
C62_4 C 0.354(2) 0.7747(9) 0.8659(10)
C63_4 C 0.400(3) 0.8163(9) 0.8654(10)
H51_4 H 0.3738 0.8397 0.8508
C64_4 C 0.483(3) 0.8239(10) 0.8858(11)
H52_8 H 0.5117 0.8523 0.8845
C65_4 C 0.263(3) 0.7659(10) 0.8438(10)
H53_4 H 0.2133 0.7602 0.8629
H54_4 H 0.2458 0.7942 0.8311
C66_4 C 0.254(3) 0.7290(10) 0.8135(11)
H55_4 H 0.2809 0.7400 0.7894
H56_4 H 0.2918 0.7032 0.8217
C67_4 C 0.152(3) 0.7131(10) 0.8059(11)
H57_4 H 0.1144 0.7114 0.8296
H58_4 H 0.1500 0.6840 0.7929
C68_4 C 0.115(2) 0.7894(8) 0.7184(9)
H59_4 H 0.1349 0.7906 0.6928
C69_4 C 0.146(2) 0.7549(8) 0.7420(9)
H60_4 H 0.1873 0.7334 0.7317
C70_4 C 0.118(2) 0.7506(9) 0.7802(10)
C71_4 C 0.055(2) 0.7834(9) 0.7937(9)
H61_4 H 0.0227 0.7789 0.8168
C72_4 C 0.041(3) 0.8229(10) 0.7725(11)
H62_4 H 0.0242 0.8496 0.7850
O18_2 O 0.1357(11) 0.8747(5) 0.6736(5)
O7_4 O 0.8618(12) 0.8714(6) 0.7192(6)
O8_4 O 0.8728(14) 0.9117(7) 0.7715(7)
O10_4 O 0.1287(11) 0.9220(5) 0.6236(5)
O11_4 O 0.7032(11) 0.8447(5) 0.6940(5)
H3_4 H 0.7614 0.8470 0.6964
O12_4 O 0.3009(10) 0.8448(5) 0.6988(6)
H4_4 H 0.2426 0.8479 0.6984
H7_4 H 0.9943 0.9269 0.7444
O15_4 O 0.9662(11) 0.9224(5) 0.6576(5)
H9_4 H 0.9496 0.9472 0.6683
C24_4 C 0.8236(19) 0.8925(8) 0.7476(9)
C25_4 C 0.1771(19) 0.8963(9) 0.6456(8)
C26_4 C 0.6776(7) 0.9133(4) 0.7801(4)
H23_4 H 0.7166 0.9279 0.7980
C27_4 C 0.7179(7) 0.8916(4) 0.7484(4)
C28_4 C 0.6595(9) 0.8698(4) 0.7217(3)
C29_4 C 0.5609(9) 0.8697(4) 0.7267(3)
C30_4 C 0.5206(7) 0.8915(3) 0.7584(3)
C31_4 C 0.5790(7) 0.9133(3) 0.7851(3)
C32_4 C 0.5387(10) 0.9350(4) 0.8168(3)
H24_4 H 0.5777 0.9496 0.8347
C33_4 C 0.4401(10) 0.9350(5) 0.8219(4)
H25_4 H 0.4131 0.9496 0.8431
C34_4 C 0.3817(8) 0.9132(5) 0.7951(5)
H26_4 H 0.3157 0.9132 0.7985
C35_4 C 0.4220(7) 0.8915(4) 0.7634(4)
H27_4 H 0.3829 0.8769 0.7455
C36_4 C 0.5039(17) 0.8432(6) 0.6967(9)
H28_4 H 0.4599 0.8236 0.7104
H29_4 H 0.5482 0.8238 0.6828
C37_4 C 0.3274(8) 0.9171(4) 0.6110(4)
H30_4 H 0.2891 0.9321 0.5932
C38_4 C 0.2860(8) 0.8952(4) 0.6425(4)
C39_4 C 0.3432(9) 0.8728(4) 0.6692(4)
C40_4 C 0.4419(9) 0.8723(4) 0.6645(3)
C41_4 C 0.4834(7) 0.8941(3) 0.6331(3)
C42_4 C 0.4261(8) 0.9165(3) 0.6063(3)
C43_4 C 0.4676(11) 0.9383(4) 0.5749(3)
H31_4 H 0.4293 0.9533 0.5570
C44_4 C 0.5663(11) 0.9378(5) 0.5702(4)
H32_4 H 0.5940 0.9524 0.5492
C45_4 C 0.6236(8) 0.9154(5) 0.5969(5)
H33_4 H 0.6896 0.9150 0.5938
C46_4 C 0.5821(7) 0.8935(5) 0.6283(4)
H34_4 H 0.6204 0.8785 0.6462
Ni2_2 Ni 0.5015(2) 0.37318(7) 0.19480(13)
N2_5 N 0.5532(17) 0.3224(7) 0.2326(7)
O7_5 O 0.3618(12) 0.3714(6) 0.2192(6)
O8_5 O 0.3728(14) 0.4117(7) 0.2715(7)
O11_5 O 0.2032(11) 0.3447(5) 0.1940(5)
H3_5 H 0.2614 0.3470 0.1964
O14_5 O 0.5501(12) 0.4254(5) 0.2347(5)
H7_5 H 0.4943 0.4269 0.2444
H8_5 H 0.5498 0.4373 0.2123
O15_5 O 0.4662(11) 0.4224(5) 0.1576(5)
H9_5 H 0.4496 0.4472 0.1683
H10_5 H 0.5212 0.4258 0.1476
C24_5 C 0.3236(19) 0.3925(8) 0.2476(9)
C26_5 C 0.1776(7) 0.4133(4) 0.2801(4)
H23_5 H 0.2166 0.4279 0.2980
C27_5 C 0.2179(7) 0.3916(4) 0.2484(4)
C28_5 C 0.1595(9) 0.3698(4) 0.2217(3)
C29_5 C 0.0609(9) 0.3697(4) 0.2267(3)
C30_5 C 0.0206(7) 0.3915(3) 0.2584(3)
C31_5 C 0.0790(7) 0.4133(3) 0.2851(3)
C32_5 C 0.0387(10) 0.4350(4) 0.3168(3)
H24_5 H 0.0777 0.4496 0.3347
C36_5 C 0.0039(17) 0.3432(6) 0.1967(9)
H29_5 H 0.0482 0.3238 0.1828
C44_5 C 0.0663(11) 0.4378(5) 0.0702(4)
H32_5 H 0.0940 0.4524 0.0492
C45_5 C 0.1236(8) 0.4154(5) 0.0969(5)
H33_5 H 0.1896 0.4150 0.0938
C46_5 C 0.0821(7) 0.3935(5) 0.1283(4)
H34_5 H 0.1204 0.3785 0.1462
C47_5 C 0.883(2) 0.2571(10) 0.6002(9)
H35_5 H 0.8482 0.2841 0.6081
H36_5 H 0.9295 0.2503 0.6201
C49_5 C 0.9588(13) 0.3111(5) 0.5521(5)
H38_5 H 0.9403 0.3351 0.5679
C50_5 C 0.9352(13) 0.2669(6) 0.5621(5)
C51_5 C 0.9629(14) 0.2311(4) 0.5385(6)
H39_5 H 0.9471 0.2015 0.5452
C53_5 C 0.813(2) 0.2177(9) 0.5971(9)
H41_5 H 0.8382 0.1955 0.5790
H42_5 H 0.8070 0.2032 0.6221
C54_5 C 0.713(2) 0.2331(11) 0.5833(10)
H43_5 H 0.7209 0.2471 0.5581
H44_5 H 0.6745 0.2062 0.5796
N4_3 N 0.5540(10) 0.3247(5) 0.6566(5)
C55_5 C 0.5679(13) 0.3355(5) 0.6178(5)
H45_5 H 0.5430 0.3622 0.6078
C56_5 C 0.6190(14) 0.3062(6) 0.5941(4)
H46_5 H 0.6283 0.3134 0.5682
C57_5 C 0.6563(13) 0.2662(6) 0.6090(5)
C58_5 C 0.6424(13) 0.2554(5) 0.6477(5)
H47_5 H 0.6674 0.2286 0.6577
C59_5 C 0.5913(12) 0.2847(6) 0.6715(4)
H48_5 H 0.5820 0.2775 0.6974
C60_5 C 0.979(2) 0.2485(9) 0.4086(10)
C61_5 C 0.896(2) 0.2412(9) 0.3880(10)
H50_5 H 0.8677 0.2128 0.3890
C62_5 C 0.854(2) 0.2747(9) 0.3659(10)
C63_5 C 0.900(3) 0.3163(9) 0.3654(10)
H51_5 H 0.8738 0.3397 0.3508
C64_5 C 0.983(3) 0.3239(10) 0.3858(11)
C65_5 C 0.763(3) 0.2659(10) 0.3438(10)
H53_5 H 0.7133 0.2602 0.3629
H54_5 H 0.7458 0.2942 0.3311
C66_5 C 0.754(3) 0.2290(10) 0.3135(11)
H55_5 H 0.7809 0.2400 0.2894
H56_5 H 0.7918 0.2032 0.3217
C67_5 C 0.652(3) 0.2131(10) 0.3059(11)
H57_5 H 0.6144 0.2114 0.3296
H58_5 H 0.6500 0.1840 0.2929
C68_5 C 0.615(2) 0.2894(8) 0.2184(9)
H59_5 H 0.6349 0.2906 0.1928
C69_5 C 0.646(2) 0.2549(8) 0.2420(9)
H60_5 H 0.6873 0.2334 0.2317
C70_5 C 0.618(2) 0.2506(9) 0.2802(10)
C71_5 C 0.555(2) 0.2834(9) 0.2937(9)
H61_5 H 0.5227 0.2789 0.3168
C72_5 C 0.541(3) 0.3229(10) 0.2725(11)
H62_5 H 0.5242 0.3496 0.2850
Ni5_3 Ni 0.4985(2) 0.37318(7) 0.69480(13)
O18_3 O 0.6357(11) 0.3747(5) 0.1736(5)
N5_3 N 0.4460(10) 0.3247(5) 0.1566(5)
O10_5 O 0.6287(11) 0.4220(5) 0.1236(5)
O12_5 O 0.8009(10) 0.3448(5) 0.1988(6)
H4_5 H 0.7426 0.3479 0.1984
C25_5 C 0.6771(19) 0.3963(9) 0.1456(8)
C33_5 C 0.9401(10) 0.4350(5) 0.3219(4)
H25_5 H 0.9131 0.4496 0.3431
C34_5 C 0.8817(8) 0.4132(5) 0.2951(5)
H26_5 H 0.8157 0.4132 0.2985
C35_5 C 0.9220(7) 0.3915(4) 0.2634(4)
H27_5 H 0.8829 0.3769 0.2455
H28_5 H 0.9599 0.3236 0.2104
C37_5 C 0.8274(8) 0.4171(4) 0.1110(4)
H30_5 H 0.7891 0.4321 0.0932
C38_5 C 0.7860(8) 0.3952(4) 0.1425(4)
C39_5 C 0.8432(9) 0.3728(4) 0.1692(4)
C40_5 C 0.9419(9) 0.3723(4) 0.1645(3)
C41_5 C 0.9834(7) 0.3941(3) 0.1331(3)
C42_5 C 0.9261(8) 0.4165(3) 0.1063(3)
C43_5 C 0.9676(11) 0.4383(4) 0.0749(3)
H31_5 H 0.9293 0.4533 0.0570
O9_3 O 0.3643(11) 0.3747(5) 0.6736(5)
O10_6 O 0.3713(11) 0.4220(5) 0.6236(5)
O12_6 O 0.1991(10) 0.3448(5) 0.6988(6)
H4_6 H 0.2574 0.3479 0.6984
C25_6 C 0.3229(19) 0.3963(9) 0.6456(8)
C33_6 C 0.0599(10) 0.4350(5) 0.8219(4)
H25_6 H 0.0869 0.4496 0.8431
C34_6 C 0.1183(8) 0.4132(5) 0.7951(5)
H26_6 H 0.1843 0.4132 0.7985
C35_6 C 0.0780(7) 0.3915(4) 0.7634(4)
H27_6 H 0.1171 0.3769 0.7455
H28_6 H 0.0401 0.3236 0.7104
C37_6 C 0.1726(8) 0.4171(4) 0.6110(4)
H30_6 H 0.2109 0.4321 0.5932
C38_6 C 0.2140(8) 0.3952(4) 0.6425(4)
C39_6 C 0.1568(9) 0.3728(4) 0.6692(4)
C40_6 C 0.0581(9) 0.3723(4) 0.6645(3)
C41_6 C 0.0166(7) 0.3941(3) 0.6331(3)
C42_6 C 0.0739(8) 0.4165(3) 0.6063(3)
C43_6 C 0.0324(11) 0.4383(4) 0.5749(3)
H31_6 H 0.0707 0.4533 0.5570
C47_6 C 0.117(2) 0.2571(10) 0.1002(9)
H35_6 H 0.1518 0.2841 0.1081
H36_6 H 0.0705 0.2503 0.1201
C49_6 C 0.0412(13) 0.3111(5) 0.0521(5)
H38_6 H 0.0597 0.3351 0.0679
C50_6 C 0.0648(13) 0.2669(6) 0.0621(5)
C51_6 C 0.0371(14) 0.2311(4) 0.0385(6)
H39_6 H 0.0529 0.2015 0.0452
C53_6 C 0.187(2) 0.2177(9) 0.0971(9)
H41_6 H 0.1618 0.1955 0.0790
H42_6 H 0.1930 0.2032 0.1221
C54_6 C 0.287(2) 0.2331(11) 0.0833(10)
H43_6 H 0.2791 0.2471 0.0581
H44_6 H 0.3255 0.2062 0.0796
C55_6 C 0.4321(13) 0.3355(5) 0.1178(5)
H45_6 H 0.4570 0.3622 0.1078
C56_6 C 0.3810(14) 0.3062(6) 0.0941(4)
H46_6 H 0.3717 0.3134 0.0682
C57_6 C 0.3437(13) 0.2662(6) 0.1090(5)
C58_6 C 0.3576(13) 0.2554(5) 0.1477(5)
H47_6 H 0.3326 0.2286 0.1577
C59_6 C 0.4087(12) 0.2847(6) 0.1715(4)
H48_6 H 0.4180 0.2775 0.1974
N2_6 N 0.4468(17) 0.3224(7) 0.7326(7)
O7_6 O 0.6382(12) 0.3714(6) 0.7192(6)
O8_6 O 0.6272(14) 0.4117(7) 0.7715(7)
O11_6 O 0.7968(11) 0.3447(5) 0.6940(5)
H3_6 H 0.7386 0.3470 0.6964
O14_6 O 0.4499(12) 0.4254(5) 0.7347(5)
H7_6 H 0.5057 0.4269 0.7444
H8_6 H 0.4502 0.4373 0.7123
O15_6 O 0.5338(11) 0.4224(5) 0.6576(5)
H9_6 H 0.5504 0.4472 0.6683
H10_6 H 0.4788 0.4258 0.6476
C24_6 C 0.6764(19) 0.3925(8) 0.7476(9)
C26_6 C 0.8224(7) 0.4133(4) 0.7801(4)
H23_6 H 0.7834 0.4279 0.7980
C27_6 C 0.7821(7) 0.3916(4) 0.7484(4)
C28_6 C 0.8405(9) 0.3698(4) 0.7217(3)
C29_6 C 0.9391(9) 0.3697(4) 0.7267(3)
C30_6 C 0.9794(7) 0.3915(3) 0.7584(3)
C31_6 C 0.9210(7) 0.4133(3) 0.7851(3)
C32_6 C 0.9613(10) 0.4350(4) 0.8168(3)
H24_6 H 0.9223 0.4496 0.8347
C36_6 C 0.9961(17) 0.3432(6) 0.6967(9)
H29_6 H 0.9518 0.3238 0.6828
C44_6 C 0.9337(11) 0.4378(5) 0.5702(4)
H32_6 H 0.9060 0.4524 0.5492
C45_6 C 0.8764(8) 0.4154(5) 0.5969(5)
H33_6 H 0.8104 0.4150 0.5938
C46_6 C 0.9179(7) 0.3935(5) 0.6283(4)
H34_6 H 0.8796 0.3785 0.6462
C60_6 C 0.021(2) 0.2485(9) 0.9086(10)
C61_6 C 0.104(2) 0.2412(9) 0.8880(10)
H50_6 H 0.1323 0.2128 0.8890
C62_6 C 0.146(2) 0.2747(9) 0.8659(10)
C63_6 C 0.100(3) 0.3163(9) 0.8654(10)
H51_6 H 0.1262 0.3397 0.8508
C64_6 C 0.017(3) 0.3239(10) 0.8858(11)
C65_6 C 0.237(3) 0.2659(10) 0.8438(10)
H53_6 H 0.2867 0.2602 0.8629
H54_6 H 0.2542 0.2942 0.8311
C66_6 C 0.246(3) 0.2290(10) 0.8135(11)
H55_6 H 0.2191 0.2400 0.7894
H56_6 H 0.2082 0.2032 0.8217
C67_6 C 0.348(3) 0.2131(10) 0.8059(11)
H57_6 H 0.3856 0.2114 0.8296
H58_6 H 0.3500 0.1840 0.7929
C68_6 C 0.385(2) 0.2894(8) 0.7184(9)
H59_6 H 0.3651 0.2906 0.6928
C69_6 C 0.354(2) 0.2549(8) 0.7420(9)
H60_6 H 0.3127 0.2334 0.7317
C70_6 C 0.382(2) 0.2506(9) 0.7802(10)
C71_6 C 0.445(2) 0.2834(9) 0.7937(9)
H61_6 H 0.4773 0.2789 0.8168
C72_6 C 0.459(3) 0.3229(10) 0.7725(11)
H62_6 H 0.4758 0.3496 0.7850
O9_4 O 0.3643(11) 0.6253(5) 0.1736(5)
O10_7 O 0.3713(11) 0.5780(5) 0.1236(5)
O12_7 O 0.1991(10) 0.6552(5) 0.1988(6)
H4_7 H 0.2574 0.6521 0.1984
C25_7 C 0.3229(19) 0.6037(9) 0.1456(8)
C33_7 C 0.0599(10) 0.5650(5) 0.3219(4)
H25_7 H 0.0869 0.5504 0.3431
C34_7 C 0.1183(8) 0.5868(5) 0.2951(5)
H26_7 H 0.1843 0.5868 0.2985
C35_7 C 0.0780(7) 0.6085(4) 0.2634(4)
H27_7 H 0.1171 0.6231 0.2455
H28_7 H 0.0401 0.6764 0.2104
C37_7 C 0.1726(8) 0.5829(4) 0.1110(4)
H30_7 H 0.2109 0.5679 0.0932
C38_7 C 0.2140(8) 0.6048(4) 0.1425(4)
C39_7 C 0.1568(9) 0.6272(4) 0.1692(4)
C40_7 C 0.0581(9) 0.6277(4) 0.1645(3)
C41_7 C 0.0166(7) 0.6059(3) 0.1331(3)
C42_7 C 0.0739(8) 0.5835(3) 0.1063(3)
C43_7 C 0.0324(11) 0.5617(4) 0.0749(3)
H31_7 H 0.0707 0.5467 0.0570
Ni4_2 Ni 0.4985(2) 0.62682(7) 0.19480(13)
N2_7 N 0.4468(17) 0.6776(7) 0.2326(7)
O7_7 O 0.6382(12) 0.6286(6) 0.2192(6)
O8_7 O 0.6272(14) 0.5883(7) 0.2715(7)
O11_7 O 0.7968(11) 0.6553(5) 0.1940(5)
H3_7 H 0.7386 0.6530 0.1964
O14_7 O 0.4499(12) 0.5746(5) 0.2347(5)
H7_7 H 0.5057 0.5731 0.2444
H8_7 H 0.4502 0.5627 0.2123
O15_7 O 0.5338(11) 0.5776(5) 0.1576(5)
H9_7 H 0.5504 0.5528 0.1683
H10_7 H 0.4788 0.5742 0.1476
C24_7 C 0.6764(19) 0.6075(8) 0.2476(9)
C26_7 C 0.8224(7) 0.5867(4) 0.2801(4)
H23_7 H 0.7834 0.5721 0.2980
C27_7 C 0.7821(7) 0.6084(4) 0.2484(4)
C28_7 C 0.8405(9) 0.6302(4) 0.2217(3)
C29_7 C 0.9391(9) 0.6303(4) 0.2267(3)
C30_7 C 0.9794(7) 0.6085(3) 0.2584(3)
C31_7 C 0.9210(7) 0.5867(3) 0.2851(3)
C32_7 C 0.9613(10) 0.5650(4) 0.3168(3)
H24_7 H 0.9223 0.5504 0.3347
C36_7 C 0.9961(17) 0.6568(6) 0.1967(9)
H29_7 H 0.9518 0.6762 0.1828
C44_7 C 0.9337(11) 0.5622(5) 0.0702(4)
H32_7 H 0.9060 0.5476 0.0492
C45_7 C 0.8764(8) 0.5846(5) 0.0969(5)
H33_7 H 0.8104 0.5850 0.0938
C46_7 C 0.9179(7) 0.6065(5) 0.1283(4)
H34_7 H 0.8796 0.6215 0.1462
C47_7 C 0.117(2) 0.7429(10) 0.6002(9)
H35_7 H 0.1518 0.7159 0.6081
H36_7 H 0.0705 0.7497 0.6201
C49_7 C 0.0412(13) 0.6889(5) 0.5521(5)
H38_7 H 0.0597 0.6649 0.5679
C50_7 C 0.0648(13) 0.7331(6) 0.5621(5)
C51_7 C 0.0371(14) 0.7689(4) 0.5385(6)
H39_7 H 0.0529 0.7985 0.5452
C53_7 C 0.187(2) 0.7823(9) 0.5971(9)
H41_7 H 0.1618 0.8045 0.5790
H42_7 H 0.1930 0.7968 0.6221
C54_7 C 0.287(2) 0.7669(11) 0.5833(10)
H43_7 H 0.2791 0.7529 0.5581
H44_7 H 0.3255 0.7938 0.5796
N4_4 N 0.4460(10) 0.6753(5) 0.6566(5)
C55_7 C 0.4321(13) 0.6645(5) 0.6178(5)
H45_7 H 0.4570 0.6378 0.6078
C56_7 C 0.3810(14) 0.6938(6) 0.5941(4)
H46_7 H 0.3717 0.6866 0.5682
C57_7 C 0.3437(13) 0.7338(6) 0.6090(5)
C58_7 C 0.3576(13) 0.7446(5) 0.6477(5)
H47_7 H 0.3326 0.7714 0.6577
C59_7 C 0.4087(12) 0.7153(6) 0.6715(4)
H48_7 H 0.4180 0.7225 0.6974
C60_7 C 0.021(2) 0.7515(9) 0.4086(10)
C61_7 C 0.104(2) 0.7588(9) 0.3880(10)
H50_7 H 0.1323 0.7872 0.3890
C62_7 C 0.146(2) 0.7253(9) 0.3659(10)
C63_7 C 0.100(3) 0.6837(9) 0.3654(10)
H51_7 H 0.1262 0.6603 0.3508
C64_7 C 0.017(3) 0.6761(10) 0.3858(11)
C65_7 C 0.237(3) 0.7341(10) 0.3438(10)
H53_7 H 0.2867 0.7398 0.3629
H54_7 H 0.2542 0.7058 0.3311
C66_7 C 0.246(3) 0.7710(10) 0.3135(11)
H55_7 H 0.2191 0.7600 0.2894
H56_7 H 0.2082 0.7968 0.3217
C67_7 C 0.348(3) 0.7869(10) 0.3059(11)
H57_7 H 0.3856 0.7886 0.3296
H58_7 H 0.3500 0.8160 0.2929
C68_7 C 0.385(2) 0.7106(8) 0.2184(9)
H59_7 H 0.3651 0.7094 0.1928
C69_7 C 0.354(2) 0.7451(8) 0.2420(9)
H60_7 H 0.3127 0.7666 0.2317
C70_7 C 0.382(2) 0.7494(9) 0.2802(10)
C71_7 C 0.445(2) 0.7166(9) 0.2937(9)
H61_7 H 0.4773 0.7211 0.3168
C72_7 C 0.459(3) 0.6771(10) 0.2725(11)
H62_7 H 0.4758 0.6504 0.2850
Ni5_4 Ni 0.5015(2) 0.62682(7) 0.69480(13)
N5_4 N 0.5540(10) 0.6753(5) 0.1566(5)
C47_8 C 0.883(2) 0.7429(10) 0.1002(9)
H35_8 H 0.8482 0.7159 0.1081
H36_8 H 0.9295 0.7497 0.1201
C49_8 C 0.9588(13) 0.6889(5) 0.0521(5)
H38_8 H 0.9403 0.6649 0.0679
C50_8 C 0.9352(13) 0.7331(6) 0.0621(5)
C51_8 C 0.9629(14) 0.7689(4) 0.0385(6)
H39_8 H 0.9471 0.7985 0.0452
C53_8 C 0.813(2) 0.7823(9) 0.0971(9)
H41_8 H 0.8382 0.8045 0.0790
H42_8 H 0.8070 0.7968 0.1221
C54_8 C 0.713(2) 0.7669(11) 0.0833(10)
H43_8 H 0.7209 0.7529 0.0581
H44_8 H 0.6745 0.7938 0.0796
C55_8 C 0.5679(13) 0.6645(5) 0.1178(5)
H45_8 H 0.5430 0.6378 0.1078
C56_8 C 0.6190(14) 0.6938(6) 0.0941(4)
H46_8 H 0.6283 0.6866 0.0682
C57_8 C 0.6563(13) 0.7338(6) 0.1090(5)
C58_8 C 0.6424(13) 0.7446(5) 0.1477(5)
H47_8 H 0.6674 0.7714 0.1577
C59_8 C 0.5913(12) 0.7153(6) 0.1715(4)
H48_8 H 0.5820 0.7225 0.1974
N2_8 N 0.5532(17) 0.6776(7) 0.7326(7)
O7_8 O 0.3618(12) 0.6286(6) 0.7192(6)
O8_8 O 0.3728(14) 0.5883(7) 0.7715(7)
O11_8 O 0.2032(11) 0.6553(5) 0.6940(5)
H3_8 H 0.2614 0.6530 0.6964
O14_8 O 0.5501(12) 0.5746(5) 0.7347(5)
H7_8 H 0.4943 0.5731 0.7444
H8_8 H 0.5498 0.5627 0.7123
O15_8 O 0.4662(11) 0.5776(5) 0.6576(5)
H9_8 H 0.4496 0.5528 0.6683
H10_8 H 0.5212 0.5742 0.6476
C24_8 C 0.3236(19) 0.6075(8) 0.7476(9)
C26_8 C 0.1776(7) 0.5867(4) 0.7801(4)
H23_8 H 0.2166 0.5721 0.7980
C27_8 C 0.2179(7) 0.6084(4) 0.7484(4)
C28_8 C 0.1595(9) 0.6302(4) 0.7217(3)
C29_8 C 0.0609(9) 0.6303(4) 0.7267(3)
C30_8 C 0.0206(7) 0.6085(3) 0.7584(3)
C31_8 C 0.0790(7) 0.5867(3) 0.7851(3)
C32_8 C 0.0387(10) 0.5650(4) 0.8168(3)
H24_8 H 0.0777 0.5504 0.8347
C36_8 C 0.0039(17) 0.6568(6) 0.6967(9)
H29_8 H 0.0482 0.6762 0.6828
C44_8 C 0.0663(11) 0.5622(5) 0.5702(4)
H32_8 H 0.0940 0.5476 0.5492
C45_8 C 0.1236(8) 0.5846(5) 0.5969(5)
H33_8 H 0.1896 0.5850 0.5938
C46_8 C 0.0821(7) 0.6065(5) 0.6283(4)
H34_8 H 0.1204 0.6215 0.6462
C60_8 C 0.979(2) 0.7515(9) 0.9086(10)
C61_8 C 0.896(2) 0.7588(9) 0.8880(10)
H50_8 H 0.8677 0.7872 0.8890
C62_8 C 0.854(2) 0.7253(9) 0.8659(10)
C63_8 C 0.900(3) 0.6837(9) 0.8654(10)
H51_8 H 0.8738 0.6603 0.8508
C64_8 C 0.983(3) 0.6761(10) 0.8858(11)
C65_8 C 0.763(3) 0.7341(10) 0.8438(10)
H53_8 H 0.7133 0.7398 0.8629
H54_8 H 0.7458 0.7058 0.8311
C66_8 C 0.754(3) 0.7710(10) 0.8135(11)
H55_8 H 0.7809 0.7600 0.7894
H56_8 H 0.7918 0.7968 0.8217
C67_8 C 0.652(3) 0.7869(10) 0.8059(11)
H57_8 H 0.6144 0.7886 0.8296
H58_8 H 0.6500 0.8160 0.7929
C68_8 C 0.615(2) 0.7106(8) 0.7184(9)
H59_8 H 0.6349 0.7094 0.6928
C69_8 C 0.646(2) 0.7451(8) 0.7420(9)
H60_8 H 0.6873 0.7666 0.7317
C70_8 C 0.618(2) 0.7494(9) 0.7802(10)
C71_8 C 0.555(2) 0.7166(9) 0.7937(9)
H61_8 H 0.5227 0.7211 0.8168
C72_8 C 0.541(3) 0.6771(10) 0.7725(11)
H62_8 H 0.5242 0.6504 0.7850
O18_4 O 0.6357(11) 0.6253(5) 0.6736(5)
O10_8 O 0.6287(11) 0.5780(5) 0.6236(5)
O12_8 O 0.8009(10) 0.6552(5) 0.6988(6)
H4_8 H 0.7426 0.6521 0.6984
C25_8 C 0.6771(19) 0.6037(9) 0.6456(8)
C33_8 C 0.9401(10) 0.5650(5) 0.8219(4)
H25_8 H 0.9131 0.5504 0.8431
C34_8 C 0.8817(8) 0.5868(5) 0.7951(5)
H26_8 H 0.8157 0.5868 0.7985
C35_8 C 0.9220(7) 0.6085(4) 0.7634(4)
H27_8 H 0.8829 0.6231 0.7455
H28_8 H 0.9599 0.6764 0.7104
C37_8 C 0.8274(8) 0.5829(4) 0.6110(4)
H30_8 H 0.7891 0.5679 0.5932
C38_8 C 0.7860(8) 0.6048(4) 0.6425(4)
C39_8 C 0.8432(9) 0.6272(4) 0.6692(4)
C40_8 C 0.9419(9) 0.6277(4) 0.6645(3)
C41_8 C 0.9834(7) 0.6059(3) 0.6331(3)
C42_8 C 0.9261(8) 0.5835(3) 0.6063(3)
C43_8 C 0.9676(11) 0.5617(4) 0.5749(3)
H31_8 H 0.9293 0.5467 0.5570
H14_7 H 0.1912 0.0060 0.0546
C8_7 C 0.1788(19) 0.8951(7) 0.0053(9)
C9_7 C 0.125(2) 0.9031(8) 0.0387(9)
H12_7 H 0.0906 0.8796 0.0498
C10_7 C 0.124(2) 0.9461(8) 0.0555(9)
H13_7 H 0.0816 0.9529 0.0754
C11_7 C 0.187(2) 0.9785(9) 0.0415(9)
C12_7 C 0.2449(19) 0.9725(8) 0.0091(9)
H15_7 H 0.2865 0.9949 0.0003
C48_7 C 0.0100(14) 0.6804(4) 0.0184(6)
H37_7 H 0.0258 0.6508 0.0116
C52_7 C 0.0141(14) 0.7605(4) 0.0048(5)
C8_8 C 0.8212(19) 0.1049(7) 0.0053(9)
C9_8 C 0.875(2) 0.0969(8) 0.0387(9)
H12_8 H 0.9094 0.1204 0.0498
C10_8 C 0.876(2) 0.0539(8) 0.0555(9)
H13_8 H 0.9184 0.0471 0.0754
C11_8 C 0.813(2) 0.0215(9) 0.0415(9)
C12_8 C 0.7551(19) 0.0275(8) 0.0091(9)
H15_8 H 0.7135 0.0051 0.0003
C48_8 C 0.9900(14) 0.3196(4) 0.0184(6)
H37_8 H 0.9742 0.3492 0.0116
C52_8 C 0.9859(14) 0.2395(4) 0.0048(5)
H14_8 H 0.8088 0.9940 0.0546
loop_
_geom_bond_atom_site_label_1
_geom_bond_atom_site_label_2
_geom_bond_site_symmetry_1
_geom_bond_site_symmetry_2
Ni1 N1 1_555 1_555
Ni2 N2 1_555 1_555
N1 C60 1_555 1_555
N2 C68 1_555 1_555
O1 Ni1 1_555 1_555
O2 C1 1_555 1_555
O3 C2 1_555 1_555
O4 C2 1_555 1_555
O5 H1 1_555 1_555
O6 H2 1_555 1_555
O13 Ni1 1_555 1_555
H5 O13 1_555 1_555
H6 O13 1_555 1_555
O14 Ni2 1_555 1_555
H8 O14 1_555 1_555
C1 O1 1_555 1_555
C2 C15 1_555 1_555
C3 H11 1_555 1_555
C4 C1 1_555 1_555
C5 O5 1_555 1_555
C6 C5 1_555 1_555
C7 C6 1_555 1_555
C8 C3 1_555 1_555
C9 C8 1_555 1_555
H12 C9 1_555 1_555
C10 C9 1_555 1_555
H13 C10 1_555 1_555
C11 C10 1_555 1_555
H14 C11 1_555 1_555
C12 C7 1_555 1_555
H15 C12 1_555 1_555
C13 C6 1_555 1_555
H16 C13 1_555 1_555
H17 C13 1_555 1_555
C14 H18 1_555 1_555
C15 C14 1_555 1_555
C16 O6 1_555 1_555
C17 C13 1_555 1_555
C18 C17 1_555 1_555
C19 C14 1_555 1_555
C20 C19 1_555 1_555
H19 C20 1_555 1_555
C21 C20 1_555 1_555
H20 C21 1_555 1_555
C22 C21 1_555 1_555
H21 C22 1_555 1_555
C23 C18 1_555 1_555
H22 C23 1_555 1_555
C47 H35 1_555 1_555
H36 C47 1_555 1_555
N3 Ni1 1_555 1_555
C48 N3 1_555 1_555
H37 C48 1_555 1_555
C49 C48 1_555 1_555
H38 C49 1_555 1_555
C50 C47 1_555 1_555
C51 C50 1_555 1_555
H39 C51 1_555 1_555
C52 N3 1_555 1_555
H40 C52 1_555 1_555
C53 C47 1_555 1_555
H41 C53 1_555 1_555
H42 C53 1_555 1_555
C54 C53 1_555 1_555
H43 C54 1_555 1_555
H44 C54 1_555 1_555
N4 C55 1_555 1_555
C55 H45 1_555 1_555
C56 C55 1_555 1_555
H46 C56 1_555 1_555
C57 C54 1_555 1_555
C58 C57 1_555 1_555
H47 C58 1_555 1_555
C59 N4 1_555 1_555
H48 C59 1_555 1_555
C60 H49 1_555 1_555
C61 C60 1_555 1_555
H50 C61 1_555 1_555
C62 C61 1_555 1_555
C63 C62 1_555 1_555
H51 C63 1_555 1_555
C64 N1 1_555 1_555
H52 C64 1_555 1_555
C65 C62 1_555 1_555
H53 C65 1_555 1_555
H54 C65 1_555 1_555
C66 C65 1_555 1_555
H55 C66 1_555 1_555
H56 C66 1_555 1_555
C67 C66 1_555 1_555
H57 C67 1_555 1_555
H58 C67 1_555 1_555
C68 H59 1_555 1_555
C69 C68 1_555 1_555
H60 C69 1_555 1_555
C70 C67 1_555 1_555
C71 C70 1_555 1_555
H61 C71 1_555 1_555
C72 N2 1_555 1_555
H62 C72 1_555 1_555
Ni3 O3 1_555 1_555
O16 Ni1 1_555 1_555
O17 Ni1 1_555 1_555
O18 Ni2 1_555 1_555
O4 Ni3 1_555 1_555
C3 C4 1_555 1_555
C4 C5 1_555 1_555
C7 C8 1_555 1_555
C11 C12 1_555 1_555
C15 C16 1_555 1_555
C16 C17 1_555 1_555
C18 C19 1_555 1_555
C22 C23 1_555 1_555
C49 C50 1_555 1_555
C51 C52 1_555 1_555
C56 C57 1_555 1_555
C58 C59 1_555 1_555
C63 C64 1_555 1_555
C69 C70 1_555 1_555
C71 C72 1_555 1_555
O8 C24 1_555 1_555
O18 C25 1_555 1_555
O10 C25 1_555 1_555
O11 H3 1_555 1_555
O12 H4 1_555 1_555
H9 O15 1_555 1_555
C24 O7 1_555 1_555
C25 C38 1_555 1_555
C26 H23 1_555 1_555
C27 C24 1_555 1_555
C28 O11 1_555 1_555
C29 C28 1_555 1_555
C30 C29 1_555 1_555
C31 C26 1_555 1_555
C32 C31 1_555 1_555
H24 C32 1_555 1_555
C33 C32 1_555 1_555
H25 C33 1_555 1_555
C34 C33 1_555 1_555
H26 C34 1_555 1_555
C35 C30 1_555 1_555
H27 C35 1_555 1_555
C36 C29 1_555 1_555
H28 C36 1_555 1_555
H29 C36 1_555 1_555
C37 H30 1_555 1_555
C38 C37 1_555 1_555
C39 O12 1_555 1_555
C40 C36 1_555 1_555
C41 C40 1_555 1_555
C42 C37 1_555 1_555
C43 C42 1_555 1_555
H31 C43 1_555 1_555
C44 C43 1_555 1_555
H32 C44 1_555 1_555
C45 C44 1_555 1_555
H33 C45 1_555 1_555
C46 C41 1_555 1_555
H34 C46 1_555 1_555
C26 C27 1_555 1_555
C27 C28 1_555 1_555
C30 C31 1_555 1_555
C34 C35 1_555 1_555
C38 C39 1_555 1_555
C39 C40 1_555 1_555
C41 C42 1_555 1_555
C45 C46 1_555 1_555
O16 C2_2 1_555 1_555
O17 C2_2 1_555 1_555
O6_2 H2_2 1_555 1_555
C2_2 C15_2 1_555 1_555
C14_2 H18_2 1_555 1_555
C15_2 C14_2 1_555 1_555
C16_2 O6_2 1_555 1_555
C19_2 C14_2 1_555 1_555
C20_2 C19_2 1_555 1_555
H19_2 C20_2 1_555 1_555
C15_2 C16_2 1_555 1_555
Ni3 N1_2 1_555 1_555
O1_2 Ni3 1_555 1_555
O2_2 C1_2 1_555 1_555
O5_2 H1_2 1_555 1_555
O13_2 Ni3 1_555 1_555
H5_2 O13_2 1_555 1_555
H6_2 O13_2 1_555 1_555
C1_2 O1_2 1_555 1_555
C3_2 H11_2 1_555 1_555
C4_2 C1_2 1_555 1_555
C5_2 O5_2 1_555 1_555
C6_2 C5_2 1_555 1_555
C7_2 C6_2 1_555 1_555
C8_2 C3_2 1_555 1_555
C9_2 C8_2 1_555 1_555
H12_2 C9_2 1_555 1_555
C10_2 C9_2 1_555 1_555
H13_2 C10_2 1_555 1_555
C11_2 C10_2 1_555 1_555
C12_2 C7_2 1_555 1_555
H15_2 C12_2 1_555 1_555
C13_2 C6_2 1_555 1_555
H16_2 C13_2 1_555 1_555
H17_2 C13_2 1_555 1_555
C17_2 C13_2 1_555 1_555
C18_2 C17_2 1_555 1_555
H20_2 C21_2 1_555 1_555
C22_2 C21_2 1_555 1_555
H21_2 C22_2 1_555 1_555
C23_2 C18_2 1_555 1_555
H22_2 C23_2 1_555 1_555
N3_2 Ni3 1_555 1_555
C48_2 N3_2 1_555 1_555
H37_2 C48_2 1_555 1_555
C52_2 N3_2 1_555 1_555
H40_2 C52_2 1_555 1_555
C3_2 C4_2 1_555 1_555
C4_2 C5_2 1_555 1_555
C7_2 C8_2 1_555 1_555
C11_2 C12_2 1_555 1_555
C22_2 C23_2 1_555 1_555
O3_2 C2_3 1_555 1_555
O4_2 C2_3 1_555 1_555
O6_3 H2_3 1_555 1_555
C2_3 C15_3 1_555 1_555
C14_3 H18_3 1_555 1_555
C15_3 C14_3 1_555 1_555
C16_3 O6_3 1_555 1_555
C19_3 C14_3 1_555 1_555
C20_3 C19_3 1_555 1_555
H19_3 C20_3 1_555 1_555
Ni3_2 O3_2 1_555 1_555
O4_2 Ni3_2 1_555 1_555
C15_3 C16_3 1_555 1_555
Ni1_2 N1_3 1_555 1_555
O1_3 Ni1_2 1_555 1_555
O2_3 C1_3 1_555 1_555
O5_3 H1_3 1_555 1_555
O13_3 Ni1_2 1_555 1_555
H5_3 O13_3 1_555 1_555
H6_3 O13_3 1_555 1_555
C1_3 O1_3 1_555 1_555
C3_3 H11_3 1_555 1_555
C4_3 C1_3 1_555 1_555
C5_3 O5_3 1_555 1_555
C6_3 C5_3 1_555 1_555
C7_3 C6_3 1_555 1_555
C13_3 C6_3 1_555 1_555
H16_3 C13_3 1_555 1_555
H17_3 C13_3 1_555 1_555
C17_3 C13_3 1_555 1_555
C18_3 C17_3 1_555 1_555
H20_3 C21_3 1_555 1_555
C22_3 C21_3 1_555 1_555
H21_3 C22_3 1_555 1_555
C23_3 C18_3 1_555 1_555
H22_3 C23_3 1_555 1_555
N3_3 Ni1_2 1_555 1_555
O16_2 Ni1_2 1_555 1_555
O17_2 Ni1_2 1_555 1_555
C3_3 C4_3 1_555 1_555
C4_3 C5_3 1_555 1_555
C22_3 C23_3 1_555 1_555
O8_2 C24_2 1_555 1_555
O9 C25_2 1_555 1_555
O10_2 C25_2 1_555 1_555
O11_2 H3_2 1_555 1_555
O12_2 H4_2 1_555 1_555
H9_2 O15_2 1_555 1_555
C24_2 O7_2 1_555 1_555
C25_2 C38_2 1_555 1_555
C26_2 H23_2 1_555 1_555
C27_2 C24_2 1_555 1_555
C28_2 O11_2 1_555 1_555
C29_2 C28_2 1_555 1_555
C30_2 C29_2 1_555 1_555
C31_2 C26_2 1_555 1_555
C32_2 C31_2 1_555 1_555
H24_2 C32_2 1_555 1_555
C33_2 C32_2 1_555 1_555
H25_2 C33_2 1_555 1_555
C34_2 C33_2 1_555 1_555
H26_2 C34_2 1_555 1_555
C35_2 C30_2 1_555 1_555
H27_2 C35_2 1_555 1_555
C36_2 C29_2 1_555 1_555
H28_2 C36_2 1_555 1_555
H29_2 C36_2 1_555 1_555
C37_2 H30_2 1_555 1_555
C38_2 C37_2 1_555 1_555
C39_2 O12_2 1_555 1_555
C40_2 C36_2 1_555 1_555
C41_2 C40_2 1_555 1_555
C42_2 C37_2 1_555 1_555
C43_2 C42_2 1_555 1_555
H31_2 C43_2 1_555 1_555
C44_2 C43_2 1_555 1_555
H32_2 C44_2 1_555 1_555
C45_2 C44_2 1_555 1_555
H33_2 C45_2 1_555 1_555
C46_2 C41_2 1_555 1_555
H34_2 C46_2 1_555 1_555
Ni5 O9 1_555 1_555
C26_2 C27_2 1_555 1_555
C27_2 C28_2 1_555 1_555
C30_2 C31_2 1_555 1_555
C34_2 C35_2 1_555 1_555
C38_2 C39_2 1_555 1_555
C39_2 C40_2 1_555 1_555
C41_2 C42_2 1_555 1_555
C45_2 C46_2 1_555 1_555
C9_3 C8_3 1_555 1_555
H12_3 C9_3 1_555 1_555
C10_3 C9_3 1_555 1_555
H13_3 C10_3 1_555 1_555
C11_3 C10_3 1_555 1_555
H14_3 C11_3 1_555 1_555
H15_3 C12_3 1_555 1_555
C47_2 H35_2 1_555 1_555
H36_2 C47_2 1_555 1_555
H37_3 C48_3 1_555 1_555
C49_2 C48_3 1_555 1_555
H38_2 C49_2 1_555 1_555
C50_2 C47_2 1_555 1_555
C51_2 C50_2 1_555 1_555
H39_2 C51_2 1_555 1_555
C53_2 C47_2 1_555 1_555
H41_2 C53_2 1_555 1_555
H42_2 C53_2 1_555 1_555
C54_2 C53_2 1_555 1_555
H43_2 C54_2 1_555 1_555
H44_2 C54_2 1_555 1_555
N5 C55_2 1_555 1_555
C55_2 H45_2 1_555 1_555
C56_2 C55_2 1_555 1_555
H46_2 C56_2 1_555 1_555
C57_2 C54_2 1_555 1_555
C58_2 C57_2 1_555 1_555
H47_2 C58_2 1_555 1_555
C59_2 N5 1_555 1_555
H48_2 C59_2 1_555 1_555
C11_3 C12_3 1_555 1_555
C49_2 C50_2 1_555 1_555
C51_2 C52_3 1_555 1_555
C56_2 C57_2 1_555 1_555
C58_2 C59_2 1_555 1_555
Ni3_2 N1_4 1_555 1_555
Ni5 N2_2 1_555 1_555
N1_4 C60_2 1_555 1_555
N2_2 C68_2 1_555 1_555
O1_4 Ni3_2 1_555 1_555
O2_4 C1_4 1_555 1_555
O16_2 C2_4 1_555 1_555
O17_2 C2_4 1_555 1_555
O5_4 H1_4 1_555 1_555
O6_4 H2_4 1_555 1_555
O13_4 Ni3_2 1_555 1_555
H5_4 O13_4 1_555 1_555
H6_4 O13_4 1_555 1_555
O14_2 Ni5 1_555 1_555
H8_2 O14_2 1_555 1_555
C1_4 O1_4 1_555 1_555
C2_4 C15_4 1_555 1_555
C3_4 H11_4 1_555 1_555
C4_4 C1_4 1_555 1_555
C5_4 O5_4 1_555 1_555
C6_4 C5_4 1_555 1_555
C7_4 C6_4 1_555 1_555
C13_4 C6_4 1_555 1_555
H16_4 C13_4 1_555 1_555
H17_4 C13_4 1_555 1_555
C14_4 H18_4 1_555 1_555
C15_4 C14_4 1_555 1_555
C16_4 O6_4 1_555 1_555
C17_4 C13_4 1_555 1_555
C18_4 C17_4 1_555 1_555
C19_4 C14_4 1_555 1_555
C20_4 C19_4 1_555 1_555
H19_4 C20_4 1_555 1_555
C21_4 C20_4 1_555 1_555
H20_4 C21_4 1_555 1_555
C22_4 C21_4 1_555 1_555
H21_4 C22_4 1_555 1_555
C23_4 C18_4 1_555 1_555
H22_4 C23_4 1_555 1_555
N3_4 Ni3_2 1_555 1_555
C60_2 H49_4 1_555 1_555
C61_2 C60_2 1_555 1_555
H50_2 C61_2 1_555 1_555
C62_2 C61_2 1_555 1_555
C63_2 C62_2 1_555 1_555
H51_2 C63_2 1_555 1_555
C64_2 N1_4 1_555 1_555
H52_4 C64_2 1_555 1_555
C65_2 C62_2 1_555 1_555
H53_2 C65_2 1_555 1_555
H54_2 C65_2 1_555 1_555
C66_2 C65_2 1_555 1_555
H55_2 C66_2 1_555 1_555
H56_2 C66_2 1_555 1_555
C67_2 C66_2 1_555 1_555
H57_2 C67_2 1_555 1_555
H58_2 C67_2 1_555 1_555
C68_2 H59_2 1_555 1_555
C69_2 C68_2 1_555 1_555
H60_2 C69_2 1_555 1_555
C70_2 C67_2 1_555 1_555
C71_2 C70_2 1_555 1_555
H61_2 C71_2 1_555 1_555
C72_2 N2_2 1_555 1_555
H62_2 C72_2 1_555 1_555
C3_4 C4_4 1_555 1_555
C4_4 C5_4 1_555 1_555
C15_4 C16_4 1_555 1_555
C16_4 C17_4 1_555 1_555
C18_4 C19_4 1_555 1_555
C22_4 C23_4 1_555 1_555
C63_2 C64_2 1_555 1_555
C69_2 C70_2 1_555 1_555
C71_2 C72_2 1_555 1_555
O8_3 C24_3 1_555 1_555
O9_2 C25_3 1_555 1_555
O10_3 C25_3 1_555 1_555
O11_3 H3_3 1_555 1_555
O12_3 H4_3 1_555 1_555
H9_3 O15_3 1_555 1_555
C24_3 O7_3 1_555 1_555
C25_3 C38_3 1_555 1_555
C26_3 H23_3 1_555 1_555
C27_3 C24_3 1_555 1_555
C28_3 O11_3 1_555 1_555
C29_3 C28_3 1_555 1_555
C30_3 C29_3 1_555 1_555
C31_3 C26_3 1_555 1_555
C32_3 C31_3 1_555 1_555
H24_3 C32_3 1_555 1_555
C33_3 C32_3 1_555 1_555
H25_3 C33_3 1_555 1_555
C34_3 C33_3 1_555 1_555
H26_3 C34_3 1_555 1_555
C35_3 C30_3 1_555 1_555
H27_3 C35_3 1_555 1_555
C36_3 C29_3 1_555 1_555
H28_3 C36_3 1_555 1_555
H29_3 C36_3 1_555 1_555
C37_3 H30_3 1_555 1_555
C38_3 C37_3 1_555 1_555
C39_3 O12_3 1_555 1_555
C40_3 C36_3 1_555 1_555
C41_3 C40_3 1_555 1_555
C42_3 C37_3 1_555 1_555
C43_3 C42_3 1_555 1_555
H31_3 C43_3 1_555 1_555
C44_3 C43_3 1_555 1_555
H32_3 C44_3 1_555 1_555
C45_3 C44_3 1_555 1_555
H33_3 C45_3 1_555 1_555
C46_3 C41_3 1_555 1_555
H34_3 C46_3 1_555 1_555
Ni4 O9_2 1_555 1_555
C26_3 C27_3 1_555 1_555
C27_3 C28_3 1_555 1_555
C30_3 C31_3 1_555 1_555
C34_3 C35_3 1_555 1_555
C38_3 C39_3 1_555 1_555
C39_3 C40_3 1_555 1_555
C41_3 C42_3 1_555 1_555
C45_3 C46_3 1_555 1_555
Ni1_3 N1_5 1_555 1_555
Ni4 N2_3 1_555 1_555
N1_5 C60_3 1_555 1_555
N2_3 C68_3 1_555 1_555
O1_5 Ni1_3 1_555 1_555
O2_5 C1_5 1_555 1_555
O3_3 C2_5 1_555 1_555
O4_3 C2_5 1_555 1_555
O5_5 H1_5 1_555 1_555
O6_5 H2_5 1_555 1_555
O13_5 Ni1_3 1_555 1_555
H5_5 O13_5 1_555 1_555
H6_5 O13_5 1_555 1_555
O14_3 Ni4 1_555 1_555
H8_3 O14_3 1_555 1_555
C1_5 O1_5 1_555 1_555
C2_5 C15_5 1_555 1_555
C3_5 H11_5 1_555 1_555
C4_5 C1_5 1_555 1_555
C5_5 O5_5 1_555 1_555
C6_5 C5_5 1_555 1_555
C7_5 C6_5 1_555 1_555
C8_4 C3_5 1_555 1_555
C9_4 C8_4 1_555 1_555
H12_4 C9_4 1_555 1_555
C10_4 C9_4 1_555 1_555
H13_4 C10_4 1_555 1_555
C11_4 C10_4 1_555 1_555
H14_4 C11_4 1_555 1_555
C12_4 C7_5 1_555 1_555
H15_4 C12_4 1_555 1_555
C13_5 C6_5 1_555 1_555
H16_5 C13_5 1_555 1_555
H17_5 C13_5 1_555 1_555
C14_5 H18_5 1_555 1_555
C15_5 C14_5 1_555 1_555
C16_5 O6_5 1_555 1_555
C17_5 C13_5 1_555 1_555
C18_5 C17_5 1_555 1_555
C19_5 C14_5 1_555 1_555
C20_5 C19_5 1_555 1_555
H19_5 C20_5 1_555 1_555
C21_5 C20_5 1_555 1_555
H20_5 C21_5 1_555 1_555
C22_5 C21_5 1_555 1_555
H21_5 C22_5 1_555 1_555
C23_5 C18_5 1_555 1_555
H22_5 C23_5 1_555 1_555
C47_3 H35_3 1_555 1_555
H36_3 C47_3 1_555 1_555
N3_5 Ni1_3 1_555 1_555
C48_4 N3_5 1_555 1_555
H37_4 C48_4 1_555 1_555
C49_3 C48_4 1_555 1_555
H38_3 C49_3 1_555 1_555
C50_3 C47_3 1_555 1_555
C51_3 C50_3 1_555 1_555
H39_3 C51_3 1_555 1_555
C52_4 N3_5 1_555 1_555
H40_5 C52_4 1_555 1_555
C53_3 C47_3 1_555 1_555
H41_3 C53_3 1_555 1_555
H42_3 C53_3 1_555 1_555
C54_3 C53_3 1_555 1_555
H43_3 C54_3 1_555 1_555
H44_3 C54_3 1_555 1_555
N4_2 C55_3 1_555 1_555
C55_3 H45_3 1_555 1_555
C56_3 C55_3 1_555 1_555
H46_3 C56_3 1_555 1_555
C57_3 C54_3 1_555 1_555
C58_3 C57_3 1_555 1_555
H47_3 C58_3 1_555 1_555
C59_3 N4_2 1_555 1_555
H48_3 C59_3 1_555 1_555
C60_3 H49_5 1_555 1_555
C61_3 C60_3 1_555 1_555
H50_3 C61_3 1_555 1_555
C62_3 C61_3 1_555 1_555
C63_3 C62_3 1_555 1_555
H51_3 C63_3 1_555 1_555
C64_3 N1_5 1_555 1_555
H52_5 C64_3 1_555 1_555
C65_3 C62_3 1_555 1_555
H53_3 C65_3 1_555 1_555
H54_3 C65_3 1_555 1_555
C66_3 C65_3 1_555 1_555
H55_3 C66_3 1_555 1_555
H56_3 C66_3 1_555 1_555
C67_3 C66_3 1_555 1_555
H57_3 C67_3 1_555 1_555
H58_3 C67_3 1_555 1_555
C68_3 H59_3 1_555 1_555
C69_3 C68_3 1_555 1_555
H60_3 C69_3 1_555 1_555
C70_3 C67_3 1_555 1_555
C71_3 C70_3 1_555 1_555
H61_3 C71_3 1_555 1_555
C72_3 N2_3 1_555 1_555
H62_3 C72_3 1_555 1_555
Ni3_3 O3_3 1_555 1_555
O16_3 Ni1_3 1_555 1_555
O17_3 Ni1_3 1_555 1_555
O4_3 Ni3_3 1_555 1_555
C3_5 C4_5 1_555 1_555
C4_5 C5_5 1_555 1_555
C7_5 C8_4 1_555 1_555
C11_4 C12_4 1_555 1_555
C15_5 C16_5 1_555 1_555
C16_5 C17_5 1_555 1_555
C18_5 C19_5 1_555 1_555
C22_5 C23_5 1_555 1_555
C49_3 C50_3 1_555 1_555
C51_3 C52_4 1_555 1_555
C56_3 C57_3 1_555 1_555
C58_3 C59_3 1_555 1_555
C63_3 C64_3 1_555 1_555
C69_3 C70_3 1_555 1_555
C71_3 C72_3 1_555 1_555
Ni3_3 N1_6 1_555 1_555
O1_6 Ni3_3 1_555 1_555
O2_6 C1_6 1_555 1_555
O5_6 H1_6 1_555 1_555
O13_6 Ni3_3 1_555 1_555
H5_6 O13_6 1_555 1_555
H6_6 O13_6 1_555 1_555
C1_6 O1_6 1_555 1_555
C3_6 H11_6 1_555 1_555
C4_6 C1_6 1_555 1_555
C5_6 O5_6 1_555 1_555
C6_6 C5_6 1_555 1_555
C7_6 C6_6 1_555 1_555
C8_5 C3_6 1_555 1_555
C9_5 C8_5 1_555 1_555
H12_5 C9_5 1_555 1_555
C10_5 C9_5 1_555 1_555
H13_5 C10_5 1_555 1_555
C11_5 C10_5 1_555 1_555
C12_5 C7_6 1_555 1_555
H15_5 C12_5 1_555 1_555
C13_6 C6_6 1_555 1_555
H16_6 C13_6 1_555 1_555
H17_6 C13_6 1_555 1_555
C17_6 C13_6 1_555 1_555
C18_6 C17_6 1_555 1_555
H20_6 C21_6 1_555 1_555
C22_6 C21_6 1_555 1_555
H21_6 C22_6 1_555 1_555
C23_6 C18_6 1_555 1_555
H22_6 C23_6 1_555 1_555
N3_6 Ni3_3 1_555 1_555
C48_5 N3_6 1_555 1_555
H37_5 C48_5 1_555 1_555
C52_5 N3_6 1_555 1_555
H40_6 C52_5 1_555 1_555
C3_6 C4_6 1_555 1_555
C4_6 C5_6 1_555 1_555
C7_6 C8_5 1_555 1_555
C11_5 C12_5 1_555 1_555
C22_6 C23_6 1_555 1_555
O16_3 C2_6 1_555 1_555
O17_3 C2_6 1_555 1_555
O6_6 H2_6 1_555 1_555
C2_6 C15_6 1_555 1_555
C14_6 H18_6 1_555 1_555
C15_6 C14_6 1_555 1_555
C16_6 O6_6 1_555 1_555
C19_6 C14_6 1_555 1_555
C20_6 C19_6 1_555 1_555
H19_6 C20_6 1_555 1_555
C15_6 C16_6 1_555 1_555
Ni1_4 N1_7 1_555 1_555
O1_7 Ni1_4 1_555 1_555
O2_7 C1_7 1_555 1_555
O5_7 H1_7 1_555 1_555
O13_7 Ni1_4 1_555 1_555
H5_7 O13_7 1_555 1_555
H6_7 O13_7 1_555 1_555
C1_7 O1_7 1_555 1_555
C3_7 H11_7 1_555 1_555
C4_7 C1_7 1_555 1_555
C5_7 O5_7 1_555 1_555
C6_7 C5_7 1_555 1_555
C7_7 C6_7 1_555 1_555
C13_7 C6_7 1_555 1_555
H16_7 C13_7 1_555 1_555
H17_7 C13_7 1_555 1_555
C17_7 C13_7 1_555 1_555
C18_7 C17_7 1_555 1_555
H20_7 C21_7 1_555 1_555
C22_7 C21_7 1_555 1_555
H21_7 C22_7 1_555 1_555
C23_7 C18_7 1_555 1_555
H22_7 C23_7 1_555 1_555
N3_7 Ni1_4 1_555 1_555
O16_4 Ni1_4 1_555 1_555
O17_4 Ni1_4 1_555 1_555
C3_7 C4_7 1_555 1_555
C4_7 C5_7 1_555 1_555
C22_7 C23_7 1_555 1_555
O3_4 C2_7 1_555 1_555
O4_4 C2_7 1_555 1_555
O6_7 H2_7 1_555 1_555
C2_7 C15_7 1_555 1_555
C14_7 H18_7 1_555 1_555
C15_7 C14_7 1_555 1_555
C16_7 O6_7 1_555 1_555
C19_7 C14_7 1_555 1_555
C20_7 C19_7 1_555 1_555
H19_7 C20_7 1_555 1_555
Ni3_4 O3_4 1_555 1_555
O4_4 Ni3_4 1_555 1_555
C15_7 C16_7 1_555 1_555
C9_6 C8_6 1_555 1_555
H12_6 C9_6 1_555 1_555
C10_6 C9_6 1_555 1_555
H13_6 C10_6 1_555 1_555
C11_6 C10_6 1_555 1_555
H14_6 C11_6 1_555 1_555
H15_6 C12_6 1_555 1_555
C47_4 H35_4 1_555 1_555
H36_4 C47_4 1_555 1_555
H37_6 C48_6 1_555 1_555
C49_4 C48_6 1_555 1_555
H38_4 C49_4 1_555 1_555
C50_4 C47_4 1_555 1_555
C51_4 C50_4 1_555 1_555
H39_4 C51_4 1_555 1_555
C53_4 C47_4 1_555 1_555
H41_4 C53_4 1_555 1_555
H42_4 C53_4 1_555 1_555
C54_4 C53_4 1_555 1_555
H43_4 C54_4 1_555 1_555
H44_4 C54_4 1_555 1_555
N5_2 C55_4 1_555 1_555
C55_4 H45_4 1_555 1_555
C56_4 C55_4 1_555 1_555
H46_4 C56_4 1_555 1_555
C57_4 C54_4 1_555 1_555
C58_4 C57_4 1_555 1_555
H47_4 C58_4 1_555 1_555
C59_4 N5_2 1_555 1_555
H48_4 C59_4 1_555 1_555
C11_6 C12_6 1_555 1_555
C49_4 C50_4 1_555 1_555
C51_4 C52_6 1_555 1_555
C56_4 C57_4 1_555 1_555
C58_4 C59_4 1_555 1_555
Ni3_4 N1_8 1_555 1_555
Ni5_2 N2_4 1_555 1_555
N1_8 C60_4 1_555 1_555
N2_4 C68_4 1_555 1_555
O1_8 Ni3_4 1_555 1_555
O2_8 C1_8 1_555 1_555
O16_4 C2_8 1_555 1_555
O17_4 C2_8 1_555 1_555
O5_8 H1_8 1_555 1_555
O6_8 H2_8 1_555 1_555
O13_8 Ni3_4 1_555 1_555
H5_8 O13_8 1_555 1_555
H6_8 O13_8 1_555 1_555
O14_4 Ni5_2 1_555 1_555
H8_4 O14_4 1_555 1_555
C1_8 O1_8 1_555 1_555
C2_8 C15_8 1_555 1_555
C3_8 H11_8 1_555 1_555
C4_8 C1_8 1_555 1_555
C5_8 O5_8 1_555 1_555
C6_8 C5_8 1_555 1_555
C7_8 C6_8 1_555 1_555
C13_8 C6_8 1_555 1_555
H16_8 C13_8 1_555 1_555
H17_8 C13_8 1_555 1_555
C14_8 H18_8 1_555 1_555
C15_8 C14_8 1_555 1_555
C16_8 O6_8 1_555 1_555
C17_8 C13_8 1_555 1_555
C18_8 C17_8 1_555 1_555
C19_8 C14_8 1_555 1_555
C20_8 C19_8 1_555 1_555
H19_8 C20_8 1_555 1_555
C21_8 C20_8 1_555 1_555
H20_8 C21_8 1_555 1_555
C22_8 C21_8 1_555 1_555
H21_8 C22_8 1_555 1_555
C23_8 C18_8 1_555 1_555
H22_8 C23_8 1_555 1_555
N3_8 Ni3_4 1_555 1_555
C60_4 H49_8 1_555 1_555
C61_4 C60_4 1_555 1_555
H50_4 C61_4 1_555 1_555
C62_4 C61_4 1_555 1_555
C63_4 C62_4 1_555 1_555
H51_4 C63_4 1_555 1_555
C64_4 N1_8 1_555 1_555
H52_8 C64_4 1_555 1_555
C65_4 C62_4 1_555 1_555
H53_4 C65_4 1_555 1_555
H54_4 C65_4 1_555 1_555
C66_4 C65_4 1_555 1_555
H55_4 C66_4 1_555 1_555
H56_4 C66_4 1_555 1_555
C67_4 C66_4 1_555 1_555
H57_4 C67_4 1_555 1_555
H58_4 C67_4 1_555 1_555
C68_4 H59_4 1_555 1_555
C69_4 C68_4 1_555 1_555
H60_4 C69_4 1_555 1_555
C70_4 C67_4 1_555 1_555
C71_4 C70_4 1_555 1_555
H61_4 C71_4 1_555 1_555
C72_4 N2_4 1_555 1_555
H62_4 C72_4 1_555 1_555
O18_2 Ni5_2 1_555 1_555
C3_8 C4_8 1_555 1_555
C4_8 C5_8 1_555 1_555
C15_8 C16_8 1_555 1_555
C16_8 C17_8 1_555 1_555
C18_8 C19_8 1_555 1_555
C22_8 C23_8 1_555 1_555
C63_4 C64_4 1_555 1_555
C69_4 C70_4 1_555 1_555
C71_4 C72_4 1_555 1_555
O8_4 C24_4 1_555 1_555
O18_2 C25_4 1_555 1_555
O10_4 C25_4 1_555 1_555
O11_4 H3_4 1_555 1_555
O12_4 H4_4 1_555 1_555
H9_4 O15_4 1_555 1_555
C24_4 O7_4 1_555 1_555
C25_4 C38_4 1_555 1_555
C26_4 H23_4 1_555 1_555
C27_4 C24_4 1_555 1_555
C28_4 O11_4 1_555 1_555
C29_4 C28_4 1_555 1_555
C30_4 C29_4 1_555 1_555
C31_4 C26_4 1_555 1_555
C32_4 C31_4 1_555 1_555
H24_4 C32_4 1_555 1_555
C33_4 C32_4 1_555 1_555
H25_4 C33_4 1_555 1_555
C34_4 C33_4 1_555 1_555
H26_4 C34_4 1_555 1_555
C35_4 C30_4 1_555 1_555
H27_4 C35_4 1_555 1_555
C36_4 C29_4 1_555 1_555
H28_4 C36_4 1_555 1_555
H29_4 C36_4 1_555 1_555
C37_4 H30_4 1_555 1_555
C38_4 C37_4 1_555 1_555
C39_4 O12_4 1_555 1_555
C40_4 C36_4 1_555 1_555
C41_4 C40_4 1_555 1_555
C42_4 C37_4 1_555 1_555
C43_4 C42_4 1_555 1_555
H31_4 C43_4 1_555 1_555
C44_4 C43_4 1_555 1_555
H32_4 C44_4 1_555 1_555
C45_4 C44_4 1_555 1_555
H33_4 C45_4 1_555 1_555
C46_4 C41_4 1_555 1_555
H34_4 C46_4 1_555 1_555
C26_4 C27_4 1_555 1_555
C27_4 C28_4 1_555 1_555
C30_4 C31_4 1_555 1_555
C34_4 C35_4 1_555 1_555
C38_4 C39_4 1_555 1_555
C39_4 C40_4 1_555 1_555
C41_4 C42_4 1_555 1_555
C45_4 C46_4 1_555 1_555
Ni2_2 N2_5 1_555 1_555
N2_5 C68_5 1_555 1_555
O7_5 Ni2_2 1_555 1_555
O8_5 C24_5 1_555 1_555
O11_5 H3_5 1_555 1_555
O14_5 Ni2_2 1_555 1_555
H7_5 O14_5 1_555 1_555
H8_5 O14_5 1_555 1_555
O15_5 Ni2_2 1_555 1_555
H9_5 O15_5 1_555 1_555
H10_5 O15_5 1_555 1_555
C24_5 O7_5 1_555 1_555
C26_5 H23_5 1_555 1_555
C27_5 C24_5 1_555 1_555
C28_5 O11_5 1_555 1_555
C29_5 C28_5 1_555 1_555
C30_5 C29_5 1_555 1_555
C31_5 C26_5 1_555 1_555
C32_5 C31_5 1_555 1_555
H24_5 C32_5 1_555 1_555
C36_5 C29_5 1_555 1_555
H29_5 C36_5 1_555 1_555
H32_5 C44_5 1_555 1_555
C45_5 C44_5 1_555 1_555
H33_5 C45_5 1_555 1_555
H34_5 C46_5 1_555 1_555
C47_5 H35_5 1_555 1_555
H36_5 C47_5 1_555 1_555
H38_5 C49_5 1_555 1_555
C50_5 C47_5 1_555 1_555
C51_5 C50_5 1_555 1_555
H39_5 C51_5 1_555 1_555
C53_5 C47_5 1_555 1_555
H41_5 C53_5 1_555 1_555
H42_5 C53_5 1_555 1_555
C54_5 C53_5 1_555 1_555
H43_5 C54_5 1_555 1_555
H44_5 C54_5 1_555 1_555
N4_3 C55_5 1_555 1_555
C55_5 H45_5 1_555 1_555
C56_5 C55_5 1_555 1_555
H46_5 C56_5 1_555 1_555
C57_5 C54_5 1_555 1_555
C58_5 C57_5 1_555 1_555
H47_5 C58_5 1_555 1_555
C59_5 N4_3 1_555 1_555
H48_5 C59_5 1_555 1_555
C61_5 C60_5 1_555 1_555
H50_5 C61_5 1_555 1_555
C62_5 C61_5 1_555 1_555
C63_5 C62_5 1_555 1_555
H51_5 C63_5 1_555 1_555
C65_5 C62_5 1_555 1_555
H53_5 C65_5 1_555 1_555
H54_5 C65_5 1_555 1_555
C66_5 C65_5 1_555 1_555
H55_5 C66_5 1_555 1_555
H56_5 C66_5 1_555 1_555
C67_5 C66_5 1_555 1_555
H57_5 C67_5 1_555 1_555
H58_5 C67_5 1_555 1_555
C68_5 H59_5 1_555 1_555
C69_5 C68_5 1_555 1_555
H60_5 C69_5 1_555 1_555
C70_5 C67_5 1_555 1_555
C71_5 C70_5 1_555 1_555
H61_5 C71_5 1_555 1_555
C72_5 N2_5 1_555 1_555
H62_5 C72_5 1_555 1_555
Ni5_3 N4_3 1_555 1_555
O18_3 Ni2_2 1_555 1_555
N5_3 Ni2_2 1_555 1_555
C26_5 C27_5 1_555 1_555
C27_5 C28_5 1_555 1_555
C30_5 C31_5 1_555 1_555
C45_5 C46_5 1_555 1_555
C49_5 C50_5 1_555 1_555
C56_5 C57_5 1_555 1_555
C58_5 C59_5 1_555 1_555
C63_5 C64_5 1_555 1_555
C69_5 C70_5 1_555 1_555
C71_5 C72_5 1_555 1_555
O18_3 C25_5 1_555 1_555
O10_5 C25_5 1_555 1_555
O12_5 H4_5 1_555 1_555
C25_5 C38_5 1_555 1_555
H25_5 C33_5 1_555 1_555
C34_5 C33_5 1_555 1_555
H26_5 C34_5 1_555 1_555
H27_5 C35_5 1_555 1_555
C37_5 H30_5 1_555 1_555
C38_5 C37_5 1_555 1_555
C39_5 O12_5 1_555 1_555
C41_5 C40_5 1_555 1_555
C42_5 C37_5 1_555 1_555
C43_5 C42_5 1_555 1_555
H31_5 C43_5 1_555 1_555
C34_5 C35_5 1_555 1_555
C38_5 C39_5 1_555 1_555
C39_5 C40_5 1_555 1_555
C41_5 C42_5 1_555 1_555
O9_3 C25_6 1_555 1_555
O10_6 C25_6 1_555 1_555
O12_6 H4_6 1_555 1_555
C25_6 C38_6 1_555 1_555
H25_6 C33_6 1_555 1_555
C34_6 C33_6 1_555 1_555
H26_6 C34_6 1_555 1_555
H27_6 C35_6 1_555 1_555
C37_6 H30_6 1_555 1_555
C38_6 C37_6 1_555 1_555
C39_6 O12_6 1_555 1_555
C41_6 C40_6 1_555 1_555
C42_6 C37_6 1_555 1_555
C43_6 C42_6 1_555 1_555
H31_6 C43_6 1_555 1_555
Ni5_3 O9_3 1_555 1_555
C34_6 C35_6 1_555 1_555
C38_6 C39_6 1_555 1_555
C39_6 C40_6 1_555 1_555
C41_6 C42_6 1_555 1_555
C47_6 H35_6 1_555 1_555
H36_6 C47_6 1_555 1_555
H38_6 C49_6 1_555 1_555
C50_6 C47_6 1_555 1_555
C51_6 C50_6 1_555 1_555
H39_6 C51_6 1_555 1_555
C53_6 C47_6 1_555 1_555
H41_6 C53_6 1_555 1_555
H42_6 C53_6 1_555 1_555
C54_6 C53_6 1_555 1_555
H43_6 C54_6 1_555 1_555
H44_6 C54_6 1_555 1_555
N5_3 C55_6 1_555 1_555
C55_6 H45_6 1_555 1_555
C56_6 C55_6 1_555 1_555
H46_6 C56_6 1_555 1_555
C57_6 C54_6 1_555 1_555
C58_6 C57_6 1_555 1_555
H47_6 C58_6 1_555 1_555
C59_6 N5_3 1_555 1_555
H48_6 C59_6 1_555 1_555
C49_6 C50_6 1_555 1_555
C56_6 C57_6 1_555 1_555
C58_6 C59_6 1_555 1_555
Ni5_3 N2_6 1_555 1_555
N2_6 C68_6 1_555 1_555
O7_6 Ni5_3 1_555 1_555
O8_6 C24_6 1_555 1_555
O11_6 H3_6 1_555 1_555
O14_6 Ni5_3 1_555 1_555
H7_6 O14_6 1_555 1_555
H8_6 O14_6 1_555 1_555
O15_6 Ni5_3 1_555 1_555
H9_6 O15_6 1_555 1_555
H10_6 O15_6 1_555 1_555
C24_6 O7_6 1_555 1_555
C26_6 H23_6 1_555 1_555
C27_6 C24_6 1_555 1_555
C28_6 O11_6 1_555 1_555
C29_6 C28_6 1_555 1_555
C30_6 C29_6 1_555 1_555
C31_6 C26_6 1_555 1_555
C32_6 C31_6 1_555 1_555
H24_6 C32_6 1_555 1_555
C36_6 C29_6 1_555 1_555
H29_6 C36_6 1_555 1_555
H32_6 C44_6 1_555 1_555
C45_6 C44_6 1_555 1_555
H33_6 C45_6 1_555 1_555
H34_6 C46_6 1_555 1_555
C61_6 C60_6 1_555 1_555
H50_6 C61_6 1_555 1_555
C62_6 C61_6 1_555 1_555
C63_6 C62_6 1_555 1_555
H51_6 C63_6 1_555 1_555
C65_6 C62_6 1_555 1_555
H53_6 C65_6 1_555 1_555
H54_6 C65_6 1_555 1_555
C66_6 C65_6 1_555 1_555
H55_6 C66_6 1_555 1_555
H56_6 C66_6 1_555 1_555
C67_6 C66_6 1_555 1_555
H57_6 C67_6 1_555 1_555
H58_6 C67_6 1_555 1_555
C68_6 H59_6 1_555 1_555
C69_6 C68_6 1_555 1_555
H60_6 C69_6 1_555 1_555
C70_6 C67_6 1_555 1_555
C71_6 C70_6 1_555 1_555
H61_6 C71_6 1_555 1_555
C72_6 N2_6 1_555 1_555
H62_6 C72_6 1_555 1_555
C26_6 C27_6 1_555 1_555
C27_6 C28_6 1_555 1_555
C30_6 C31_6 1_555 1_555
C45_6 C46_6 1_555 1_555
C63_6 C64_6 1_555 1_555
C69_6 C70_6 1_555 1_555
C71_6 C72_6 1_555 1_555
O9_4 C25_7 1_555 1_555
O10_7 C25_7 1_555 1_555
O12_7 H4_7 1_555 1_555
C25_7 C38_7 1_555 1_555
H25_7 C33_7 1_555 1_555
C34_7 C33_7 1_555 1_555
H26_7 C34_7 1_555 1_555
H27_7 C35_7 1_555 1_555
C37_7 H30_7 1_555 1_555
C38_7 C37_7 1_555 1_555
C39_7 O12_7 1_555 1_555
C41_7 C40_7 1_555 1_555
C42_7 C37_7 1_555 1_555
C43_7 C42_7 1_555 1_555
H31_7 C43_7 1_555 1_555
Ni4_2 O9_4 1_555 1_555
C34_7 C35_7 1_555 1_555
C38_7 C39_7 1_555 1_555
C39_7 C40_7 1_555 1_555
C41_7 C42_7 1_555 1_555
Ni4_2 N2_7 1_555 1_555
N2_7 C68_7 1_555 1_555
O7_7 Ni4_2 1_555 1_555
O8_7 C24_7 1_555 1_555
O11_7 H3_7 1_555 1_555
O14_7 Ni4_2 1_555 1_555
H7_7 O14_7 1_555 1_555
H8_7 O14_7 1_555 1_555
O15_7 Ni4_2 1_555 1_555
H9_7 O15_7 1_555 1_555
H10_7 O15_7 1_555 1_555
C24_7 O7_7 1_555 1_555
C26_7 H23_7 1_555 1_555
C27_7 C24_7 1_555 1_555
C28_7 O11_7 1_555 1_555
C29_7 C28_7 1_555 1_555
C30_7 C29_7 1_555 1_555
C31_7 C26_7 1_555 1_555
C32_7 C31_7 1_555 1_555
H24_7 C32_7 1_555 1_555
C36_7 C29_7 1_555 1_555
H29_7 C36_7 1_555 1_555
H32_7 C44_7 1_555 1_555
C45_7 C44_7 1_555 1_555
H33_7 C45_7 1_555 1_555
H34_7 C46_7 1_555 1_555
C47_7 H35_7 1_555 1_555
H36_7 C47_7 1_555 1_555
H38_7 C49_7 1_555 1_555
C50_7 C47_7 1_555 1_555
C51_7 C50_7 1_555 1_555
H39_7 C51_7 1_555 1_555
C53_7 C47_7 1_555 1_555
H41_7 C53_7 1_555 1_555
H42_7 C53_7 1_555 1_555
C54_7 C53_7 1_555 1_555
H43_7 C54_7 1_555 1_555
H44_7 C54_7 1_555 1_555
N4_4 C55_7 1_555 1_555
C55_7 H45_7 1_555 1_555
C56_7 C55_7 1_555 1_555
H46_7 C56_7 1_555 1_555
C57_7 C54_7 1_555 1_555
C58_7 C57_7 1_555 1_555
H47_7 C58_7 1_555 1_555
C59_7 N4_4 1_555 1_555
H48_7 C59_7 1_555 1_555
C61_7 C60_7 1_555 1_555
H50_7 C61_7 1_555 1_555
C62_7 C61_7 1_555 1_555
C63_7 C62_7 1_555 1_555
H51_7 C63_7 1_555 1_555
C65_7 C62_7 1_555 1_555
H53_7 C65_7 1_555 1_555
H54_7 C65_7 1_555 1_555
C66_7 C65_7 1_555 1_555
H55_7 C66_7 1_555 1_555
H56_7 C66_7 1_555 1_555
C67_7 C66_7 1_555 1_555
H57_7 C67_7 1_555 1_555
H58_7 C67_7 1_555 1_555
C68_7 H59_7 1_555 1_555
C69_7 C68_7 1_555 1_555
H60_7 C69_7 1_555 1_555
C70_7 C67_7 1_555 1_555
C71_7 C70_7 1_555 1_555
H61_7 C71_7 1_555 1_555
C72_7 N2_7 1_555 1_555
H62_7 C72_7 1_555 1_555
Ni5_4 N4_4 1_555 1_555
N5_4 Ni4_2 1_555 1_555
C26_7 C27_7 1_555 1_555
C27_7 C28_7 1_555 1_555
C30_7 C31_7 1_555 1_555
C45_7 C46_7 1_555 1_555
C49_7 C50_7 1_555 1_555
C56_7 C57_7 1_555 1_555
C58_7 C59_7 1_555 1_555
C63_7 C64_7 1_555 1_555
C69_7 C70_7 1_555 1_555
C71_7 C72_7 1_555 1_555
C47_8 H35_8 1_555 1_555
H36_8 C47_8 1_555 1_555
H38_8 C49_8 1_555 1_555
C50_8 C47_8 1_555 1_555
C51_8 C50_8 1_555 1_555
H39_8 C51_8 1_555 1_555
C53_8 C47_8 1_555 1_555
H41_8 C53_8 1_555 1_555
H42_8 C53_8 1_555 1_555
C54_8 C53_8 1_555 1_555
H43_8 C54_8 1_555 1_555
H44_8 C54_8 1_555 1_555
N5_4 C55_8 1_555 1_555
C55_8 H45_8 1_555 1_555
C56_8 C55_8 1_555 1_555
H46_8 C56_8 1_555 1_555
C57_8 C54_8 1_555 1_555
C58_8 C57_8 1_555 1_555
H47_8 C58_8 1_555 1_555
C59_8 N5_4 1_555 1_555
H48_8 C59_8 1_555 1_555
C49_8 C50_8 1_555 1_555
C56_8 C57_8 1_555 1_555
C58_8 C59_8 1_555 1_555
Ni5_4 N2_8 1_555 1_555
N2_8 C68_8 1_555 1_555
O7_8 Ni5_4 1_555 1_555
O8_8 C24_8 1_555 1_555
O11_8 H3_8 1_555 1_555
O14_8 Ni5_4 1_555 1_555
H7_8 O14_8 1_555 1_555
H8_8 O14_8 1_555 1_555
O15_8 Ni5_4 1_555 1_555
H9_8 O15_8 1_555 1_555
H10_8 O15_8 1_555 1_555
C24_8 O7_8 1_555 1_555
C26_8 H23_8 1_555 1_555
C27_8 C24_8 1_555 1_555
C28_8 O11_8 1_555 1_555
C29_8 C28_8 1_555 1_555
C30_8 C29_8 1_555 1_555
C31_8 C26_8 1_555 1_555
C32_8 C31_8 1_555 1_555
H24_8 C32_8 1_555 1_555
C36_8 C29_8 1_555 1_555
H29_8 C36_8 1_555 1_555
H32_8 C44_8 1_555 1_555
C45_8 C44_8 1_555 1_555
H33_8 C45_8 1_555 1_555
H34_8 C46_8 1_555 1_555
C61_8 C60_8 1_555 1_555
H50_8 C61_8 1_555 1_555
C62_8 C61_8 1_555 1_555
C63_8 C62_8 1_555 1_555
H51_8 C63_8 1_555 1_555
C65_8 C62_8 1_555 1_555
H53_8 C65_8 1_555 1_555
H54_8 C65_8 1_555 1_555
C66_8 C65_8 1_555 1_555
H55_8 C66_8 1_555 1_555
H56_8 C66_8 1_555 1_555
C67_8 C66_8 1_555 1_555
H57_8 C67_8 1_555 1_555
H58_8 C67_8 1_555 1_555
C68_8 H59_8 1_555 1_555
C69_8 C68_8 1_555 1_555
H60_8 C69_8 1_555 1_555
C70_8 C67_8 1_555 1_555
C71_8 C70_8 1_555 1_555
H61_8 C71_8 1_555 1_555
C72_8 N2_8 1_555 1_555
H62_8 C72_8 1_555 1_555
O18_4 Ni5_4 1_555 1_555
C26_8 C27_8 1_555 1_555
C27_8 C28_8 1_555 1_555
C30_8 C31_8 1_555 1_555
C45_8 C46_8 1_555 1_555
C63_8 C64_8 1_555 1_555
C69_8 C70_8 1_555 1_555
C71_8 C72_8 1_555 1_555
O18_4 C25_8 1_555 1_555
O10_8 C25_8 1_555 1_555
O12_8 H4_8 1_555 1_555
C25_8 C38_8 1_555 1_555
H25_8 C33_8 1_555 1_555
C34_8 C33_8 1_555 1_555
H26_8 C34_8 1_555 1_555
H27_8 C35_8 1_555 1_555
C37_8 H30_8 1_555 1_555
C38_8 C37_8 1_555 1_555
C39_8 O12_8 1_555 1_555
C41_8 C40_8 1_555 1_555
C42_8 C37_8 1_555 1_555
C43_8 C42_8 1_555 1_555
H31_8 C43_8 1_555 1_555
C34_8 C35_8 1_555 1_555
C38_8 C39_8 1_555 1_555
C39_8 C40_8 1_555 1_555
C41_8 C42_8 1_555 1_555
C9_7 C8_7 1_555 1_555
H12_7 C9_7 1_555 1_555
C10_7 C9_7 1_555 1_555
H13_7 C10_7 1_555 1_555
C11_7 C10_7 1_555 1_555
H15_7 C12_7 1_555 1_555
H37_7 C48_7 1_555 1_555
C11_7 C12_7 1_555 1_555
C9_8 C8_8 1_555 1_555
H12_8 C9_8 1_555 1_555
C10_8 C9_8 1_555 1_555
H13_8 C10_8 1_555 1_555
C11_8 C10_8 1_555 1_555
H15_8 C12_8 1_555 1_555
H37_8 C48_8 1_555 1_555
C11_8 C12_8 1_555 1_555

#END
