
###############################################################################
#
# This file contains modified crystal structure data generated from the
# MOF subset of the Cambridge Structural Database (CSD) v543 
# hosted by the Cambridge Crystallographic Data Centre (CCDC).
#
# This work is licensed under the Creative Commons
# Attribution-NonCommercial-ShareAlike 4.0 International License.
# To view a copy of this license, visit
# http://creativecommons.org/licenses/by-nc-sa/4.0/
# or send a letter to
# Creative Commons, PO Box 1866, Mountain View, CA 94042, USA.
#
# CIF created using the CSD Python API on 29 September 2022
# The structure has been converted into the P1 space group
# The structure has a 3D framework
# The original CSD entry YARDEC is in the monoclinic crystal system
# The framework has been calculated to contain at least 10.0% void space
# The void calculation uses a probe of radius 1.32A, grid spacing 0.4
#
###############################################################################

data_YARDEC
_chemical_formula_moiety         '(C88 H72 N16 O16 Zn2)n'
_symmetry_cell_setting           triclinic
_symmetry_space_group_name_H-M   'P 1'
_symmetry_Int_Tables_number      1
_space_group_name_Hall           'P 1'
loop_
_symmetry_equiv_pos_site_id
_symmetry_equiv_pos_as_xyz
1 x,y,z
_cell_length_a                   20.5754(14)
_cell_length_b                   11.5480(8)
_cell_length_c                   14.0617(10)
_cell_angle_alpha                90
_cell_angle_beta                 116.5300(10)
_cell_angle_gamma                90
_cell_volume                     2989.31
loop_
_atom_site_label
_atom_site_type_symbol
_atom_site_fract_x
_atom_site_fract_y
_atom_site_fract_z
Zn1 Zn 0.0000 0.01175(3) 0.2500
O4 O 0.07835(8) 0.12580(13) 0.31389(12)
C11 C 0.74129(12) 0.13452(19) 0.97034(18)
H9 H 0.7352 0.0570 0.9502
C19 C 0.63921(12) 0.4178(2) 0.87899(18)
C20 C 0.69723(12) 0.33123(18) 0.94018(17)
C21 C 0.68895(13) 0.21465(19) 0.91077(18)
H17 H 0.6480 0.1907 0.8507
O3 O 0.57835(8) 0.37420(13) 0.81389(12)
O5 O 0.65164(9) 0.52272(13) 0.89464(13)
Zn3 Zn 0.5000 0.48825(3) 0.7500
C8 C 0.13921(12) 0.0822(2) 0.37899(18)
C9 C 0.19723(12) 0.16877(18) 0.44018(17)
C10 C 0.18895(13) 0.28535(19) 0.41077(18)
H8 H 0.1480 0.3093 0.3507
C11_2 C 0.25871(12) 0.13452(19) 0.52966(18)
H9_2 H 0.2648 0.0570 0.5498
C19_2 C 0.36079(12) 0.4178(2) 0.62101(18)
C20_2 C 0.30277(12) 0.33123(18) 0.55982(17)
C21_2 C 0.31105(13) 0.21465(19) 0.58923(18)
H17_2 H 0.3520 0.1907 0.6493
C22 C 0.24129(12) 0.36548(19) 0.47034(18)
H18 H 0.2352 0.4430 0.4502
O3_2 O 0.42165(8) 0.37420(13) 0.68611(12)
O5_2 O 0.34836(9) 0.52272(13) 0.60536(13)
C12 C 0.53087(13) 0.63362(17) 0.94375(18)
H10 H 0.5807 0.6357 0.9654
C13 C 0.41620(14) 0.5976(2) 0.85552(19)
H11 H 0.3721 0.5693 0.8042
C14 C 0.42462(14) 0.6636(2) 0.9395(2)
H12 H 0.3882 0.6892 0.9564
N3 N 0.48296(10) 0.57846(14) 0.85749(15)
N5 N 0.49752(11) 0.68541(16) 0.99471(15)
C12_2 C 0.46913(13) 0.63362(17) 0.55625(18)
H10_2 H 0.4193 0.6357 0.5346
C13_2 C 0.58380(14) 0.5976(2) 0.64448(19)
H11_2 H 0.6279 0.5693 0.6958
C14_2 C 0.57538(14) 0.6636(2) 0.5605(2)
H12_2 H 0.6118 0.6892 0.5436
C15 C 0.46848(15) 0.76562(19) 0.41480(19)
H13 H 0.4882 0.7526 0.3646
H14 H 0.4165 0.7521 0.3785
C16 C 0.48335(14) 0.88931(19) 0.45525(18)
C17 C 0.44003(14) 0.9411(2) 0.4955(2)
H15 H 0.3997 0.9022 0.4930
C18 C 0.54312(15) 0.9489(2) 0.4604(2)
H16 H 0.5726 0.9147 0.4338
N3_2 N 0.51704(10) 0.57846(14) 0.64251(15)
N5_2 N 0.50248(11) 0.68541(16) 0.50529(15)
C2 C 0.08380(14) 0.9024(2) 0.14448(19)
H2 H 0.1279 0.9307 0.1958
C3 C 0.07538(14) 0.8364(2) 0.0605(2)
H3 H 0.1118 0.8108 0.0436
N1 N 0.01704(10) 0.92154(14) 0.14251(15)
N2 N 0.00248(11) 0.81459(16) 0.00529(15)
C15_2 C 0.03152(15) 0.26562(19) 0.08520(19)
H13_2 H 0.0118 0.2526 0.1354
H14_2 H 0.0835 0.2521 0.1215
C16_2 C 0.01665(14) 0.38931(19) 0.04475(18)
C17_2 C 0.05997(14) 0.4411(2) 0.0045(2)
H15_2 H 0.1003 0.4022 0.0070
C7 C 0.04312(15) 0.5511(2) 0.9604(2)
H7 H 0.0726 0.5853 0.9338
C12_3 C 0.03087(13) 0.13362(17) 0.94375(18)
H10_3 H 0.0807 0.1357 0.9654
C1 C 0.03087(13) 0.86638(17) 0.44375(18)
H1 H 0.0807 0.8643 0.4654
C4 C 0.03152(15) 0.73438(19) 0.58520(19)
H4 H 0.0118 0.7474 0.6354
H5 H 0.0835 0.7479 0.6215
C5 C 0.01665(14) 0.61069(19) 0.54475(18)
C6 C 0.05997(14) 0.5589(2) 0.5045(2)
H6 H 0.1003 0.5978 0.5070
O2 O 0.15164(9) 0.97728(13) 0.39464(13)
C13_3 C 0.08380(14) 0.0976(2) 0.64448(19)
H11_3 H 0.1279 0.0693 0.6958
C14_3 C 0.07538(14) 0.1636(2) 0.5605(2)
H12_3 H 0.1118 0.1892 0.5436
C18_2 C 0.04312(15) 0.4489(2) 0.4604(2)
H16_2 H 0.0726 0.4147 0.4338
N3_3 N 0.01704(10) 0.07846(14) 0.64251(15)
N5_3 N 0.00248(11) 0.18541(16) 0.50529(15)
O5_3 O 0.15164(9) 0.02272(13) 0.89464(13)
Zn2 Zn 0.0000 0.98825(3) 0.7500
C4_2 C 0.46848(15) 0.23438(19) 0.91480(19)
H4_2 H 0.4882 0.2474 0.8646
H5_2 H 0.4165 0.2479 0.8785
C5_2 C 0.48335(14) 0.11069(19) 0.95525(18)
C6_2 C 0.44003(14) 0.0589(2) 0.9955(2)
H6_2 H 0.3997 0.0978 0.9930
C7_2 C 0.54312(15) 0.0511(2) 0.9604(2)
H7_2 H 0.5726 0.0853 0.9338
C11_3 C 0.24129(12) 0.63452(19) 0.97034(18)
H9_3 H 0.2352 0.5570 0.9502
C19_3 C 0.13921(12) 0.9178(2) 0.87899(18)
C20_3 C 0.19723(12) 0.83123(18) 0.94018(17)
C21_3 C 0.18895(13) 0.71465(19) 0.91077(18)
H17_3 H 0.1480 0.6907 0.8507
O3_3 O 0.07835(8) 0.87420(13) 0.81389(12)
C8_2 C 0.86079(12) 0.0822(2) 0.12101(18)
C9_2 C 0.80277(12) 0.16877(18) 0.05982(17)
C10_2 C 0.81105(13) 0.28535(19) 0.08923(18)
H8_2 H 0.8520 0.3093 0.1493
O1 O 0.92165(8) 0.12580(13) 0.18611(12)
Zn1_2 Zn 1.0000 0.01175(3) 0.2500
C22_2 C 0.75871(12) 0.36548(19) 0.02966(18)
H18_2 H 0.7648 0.4430 0.0498
C15_3 C 0.53152(15) 0.76562(19) 0.08520(19)
H13_3 H 0.5118 0.7526 0.1354
H14_3 H 0.5835 0.7521 0.1215
C16_3 C 0.51665(14) 0.88931(19) 0.04475(18)
C17_3 C 0.55997(14) 0.9411(2) 0.0045(2)
H15_3 H 0.6003 0.9022 0.0070
C18_3 C 0.45688(15) 0.9489(2) 0.0396(2)
H16_3 H 0.4274 0.9147 0.0662
C1_2 C 0.96913(13) 0.86638(17) 0.05625(18)
H1_2 H 0.9193 0.8643 0.0346
O2_2 O 0.84836(9) 0.97728(13) 0.10536(13)
C18_4 C 0.95688(15) 0.4489(2) 0.0396(2)
H16_4 H 0.9274 0.4147 0.0662
N4 N 0.98296(10) 0.92154(14) 0.35749(15)
C4_3 C 0.96848(15) 0.73438(19) 0.91480(19)
H4_3 H 0.9882 0.7474 0.8646
H5_3 H 0.9165 0.7479 0.8785
C5_3 C 0.98335(14) 0.61069(19) 0.95525(18)
C6_3 C 0.94003(14) 0.5589(2) 0.9955(2)
H6_3 H 0.8997 0.5978 0.9930
C13_4 C 0.91620(14) 0.0976(2) 0.85552(19)
H11_4 H 0.8721 0.0693 0.8042
C14_4 C 0.92462(14) 0.1636(2) 0.9395(2)
H12_4 H 0.8882 0.1892 0.9564
N3_4 N 0.98296(10) 0.07846(14) 0.85749(15)
N5_4 N 0.99752(11) 0.18541(16) 0.99471(15)
C2_2 C 0.91620(14) 0.9024(2) 0.35552(19)
H2_2 H 0.8721 0.9307 0.3042
C3_2 C 0.92462(14) 0.8364(2) 0.4395(2)
H3_2 H 0.8882 0.8108 0.4564
C7_3 C 0.95688(15) 0.5511(2) 0.5396(2)
H7_3 H 0.9274 0.5853 0.5662
N2_2 N 0.99752(11) 0.81459(16) 0.49471(15)
C12_4 C 0.96913(13) 0.13362(17) 0.55625(18)
H10_4 H 0.9193 0.1357 0.5346
C15_4 C 0.96848(15) 0.26562(19) 0.41480(19)
H13_4 H 0.9882 0.2526 0.3646
H14_4 H 0.9165 0.2521 0.3785
C16_4 C 0.98335(14) 0.38931(19) 0.45525(18)
C17_4 C 0.94003(14) 0.4411(2) 0.4955(2)
H15_4 H 0.8997 0.4022 0.4930
O5_4 O 0.84836(9) 0.02272(13) 0.60536(13)
Zn2_2 Zn 1.0000 0.98825(3) 0.7500
C1_3 C 0.46913(13) 0.36638(17) 0.05625(18)
H1_3 H 0.4193 0.3643 0.0346
C2_3 C 0.58380(14) 0.4024(2) 0.14448(19)
H2_3 H 0.6279 0.4307 0.1958
C3_3 C 0.57538(14) 0.3364(2) 0.0605(2)
H3_3 H 0.6118 0.3108 0.0436
C8_3 C 0.36079(12) 0.5822(2) 0.12101(18)
C9_3 C 0.30277(12) 0.66877(18) 0.05982(17)
C10_3 C 0.31105(13) 0.78535(19) 0.08923(18)
H8_3 H 0.3520 0.8093 0.1493
N1_2 N 0.51704(10) 0.42154(14) 0.14251(15)
N2_3 N 0.50248(11) 0.31459(16) 0.00529(15)
O1_2 O 0.42165(8) 0.62580(13) 0.18611(12)
O2_3 O 0.34836(9) 0.47728(13) 0.10536(13)
Zn1_3 Zn 0.5000 0.51175(3) 0.2500
C22_3 C 0.25871(12) 0.86548(19) 0.02966(18)
H18_3 H 0.2648 0.9430 0.0498
N4_2 N 0.48296(10) 0.42154(14) 0.35749(15)
O4_2 O 0.57835(8) 0.62580(13) 0.31389(12)
C1_4 C 0.53087(13) 0.36638(17) 0.44375(18)
H1_4 H 0.5807 0.3643 0.4654
C2_4 C 0.41620(14) 0.4024(2) 0.35552(19)
H2_4 H 0.3721 0.4307 0.3042
C3_4 C 0.42462(14) 0.3364(2) 0.4395(2)
H3_4 H 0.3882 0.3108 0.4564
C4_4 C 0.53152(15) 0.23438(19) 0.58520(19)
H4_4 H 0.5118 0.2474 0.6354
H5_4 H 0.5835 0.2479 0.6215
C5_4 C 0.51665(14) 0.11069(19) 0.54475(18)
C6_4 C 0.55997(14) 0.0589(2) 0.5045(2)
H6_4 H 0.6003 0.0978 0.5070
C7_4 C 0.45688(15) 0.0511(2) 0.5396(2)
H7_4 H 0.4274 0.0853 0.5662
C8_4 C 0.63921(12) 0.5822(2) 0.37899(18)
C9_4 C 0.69723(12) 0.66877(18) 0.44018(17)
C10_4 C 0.68895(13) 0.78535(19) 0.41077(18)
H8_4 H 0.6480 0.8093 0.3507
C11_4 C 0.75871(12) 0.63452(19) 0.52966(18)
H9_4 H 0.7648 0.5570 0.5498
N2_4 N 0.49752(11) 0.31459(16) 0.49471(15)
O2_4 O 0.65164(9) 0.47728(13) 0.39464(13)
C19_4 C 0.86079(12) 0.9178(2) 0.62101(18)
C20_4 C 0.80277(12) 0.83123(18) 0.55982(17)
C21_4 C 0.81105(13) 0.71465(19) 0.58923(18)
H17_4 H 0.8520 0.6907 0.6493
C22_4 C 0.74129(12) 0.86548(19) 0.47034(18)
H18_4 H 0.7352 0.9430 0.4502
O3_4 O 0.92165(8) 0.87420(13) 0.68611(12)
loop_
_geom_bond_atom_site_label_1
_geom_bond_atom_site_label_2
_geom_bond_site_symmetry_1
_geom_bond_site_symmetry_2
O4 Zn1 1_555 1_555
H9 C11 1_555 1_555
C19 C20 1_555 1_555
C20 C21 1_555 1_555
C21 C11 1_555 1_555
H17 C21 1_555 1_555
O3 C19 1_555 1_555
O5 C19 1_555 1_555
Zn3 O3 1_555 1_555
C8 C9 1_555 1_555
C9 C10 1_555 1_555
C10 H8 1_555 1_555
C11_2 C9 1_555 1_555
H9_2 C11_2 1_555 1_555
O4 C8 1_555 1_555
C19_2 C20_2 1_555 1_555
C20_2 C21_2 1_555 1_555
C21_2 C11_2 1_555 1_555
H17_2 C21_2 1_555 1_555
C22 C10 1_555 1_555
H18 C22 1_555 1_555
O3_2 C19_2 1_555 1_555
O5_2 C19_2 1_555 1_555
Zn3 O3_2 1_555 1_555
C20_2 C22 1_555 1_555
C12 H10 1_555 1_555
C13 H11 1_555 1_555
C14 C13 1_555 1_555
H12 C14 1_555 1_555
N3 C12 1_555 1_555
N5 C12 1_555 1_555
Zn3 N3 1_555 1_555
C13 N3 1_555 1_555
C14 N5 1_555 1_555
C12_2 H10_2 1_555 1_555
C13_2 H11_2 1_555 1_555
C14_2 C13_2 1_555 1_555
H12_2 C14_2 1_555 1_555
C15 H13 1_555 1_555
H14 C15 1_555 1_555
C16 C15 1_555 1_555
H15 C17 1_555 1_555
H16 C18 1_555 1_555
N3_2 C12_2 1_555 1_555
N5_2 C12_2 1_555 1_555
Zn3 N3_2 1_555 1_555
C13_2 N3_2 1_555 1_555
C14_2 N5_2 1_555 1_555
C15 N5_2 1_555 1_555
C16 C17 1_555 1_555
C16 C18 1_555 1_555
C2 H2 1_555 1_555
C3 C2 1_555 1_555
H3 C3 1_555 1_555
C15_2 H13_2 1_555 1_555
H14_2 C15_2 1_555 1_555
C16_2 C15_2 1_555 1_555
H15_2 C17_2 1_555 1_555
C2 N1 1_555 1_555
C3 N2 1_555 1_555
C16_2 C17_2 1_555 1_555
H7 C7 1_555 1_555
C12_3 H10_3 1_555 1_555
C1 H1 1_555 1_555
C4 H4 1_555 1_555
H5 C4 1_555 1_555
C5 C4 1_555 1_555
C6 C5 1_555 1_555
H6 C6 1_555 1_555
C13_3 H11_3 1_555 1_555
C14_3 C13_3 1_555 1_555
H12_3 C14_3 1_555 1_555
C18_2 C6 1_555 1_555
H16_2 C18_2 1_555 1_555
C13_3 N3_3 1_555 1_555
C14_3 N5_3 1_555 1_555
C4_2 H4_2 1_555 1_555
H5_2 C4_2 1_555 1_555
C5_2 C4_2 1_555 1_555
C6_2 C5_2 1_555 1_555
H6_2 C6_2 1_555 1_555
C7_2 C5_2 1_555 1_555
H7_2 C7_2 1_555 1_555
H9_3 C11_3 1_555 1_555
C19_3 C20_3 1_555 1_555
C20_3 C21_3 1_555 1_555
C21_3 C11_3 1_555 1_555
H17_3 C21_3 1_555 1_555
O3_3 C19_3 1_555 1_555
Zn2 O3_3 1_555 1_555
C8_2 C9_2 1_555 1_555
C9_2 C10_2 1_555 1_555
C10_2 H8_2 1_555 1_555
O1 C8_2 1_555 1_555
C22_2 C10_2 1_555 1_555
H18_2 C22_2 1_555 1_555
O1 Zn1_2 1_555 1_555
C15_3 H13_3 1_555 1_555
H14_3 C15_3 1_555 1_555
C16_3 C15_3 1_555 1_555
H15_3 C17_3 1_555 1_555
H16_3 C18_3 1_555 1_555
C16_3 C17_3 1_555 1_555
C16_3 C18_3 1_555 1_555
C1_2 H1_2 1_555 1_555
H16_4 C18_4 1_555 1_555
C4_3 H4_3 1_555 1_555
H5_3 C4_3 1_555 1_555
C5_3 C4_3 1_555 1_555
C6_3 C5_3 1_555 1_555
H6_3 C6_3 1_555 1_555
C13_4 H11_4 1_555 1_555
C14_4 C13_4 1_555 1_555
H12_4 C14_4 1_555 1_555
C13_4 N3_4 1_555 1_555
C14_4 N5_4 1_555 1_555
C2_2 H2_2 1_555 1_555
C3_2 C2_2 1_555 1_555
H3_2 C3_2 1_555 1_555
H7_3 C7_3 1_555 1_555
C12_4 H10_4 1_555 1_555
C15_4 H13_4 1_555 1_555
H14_4 C15_4 1_555 1_555
C16_4 C15_4 1_555 1_555
C17_4 C7_3 1_555 1_555
H15_4 C17_4 1_555 1_555
C2_2 N4 1_555 1_555
C3_2 N2_2 1_555 1_555
C16_4 C17_4 1_555 1_555
C1_3 H1_3 1_555 1_555
C2_3 H2_3 1_555 1_555
C3_3 C2_3 1_555 1_555
H3_3 C3_3 1_555 1_555
C8_3 C9_3 1_555 1_555
C9_3 C10_3 1_555 1_555
C10_3 H8_3 1_555 1_555
N1_2 C1_3 1_555 1_555
N2_3 C1_3 1_555 1_555
O1_2 C8_3 1_555 1_555
O2_3 C8_3 1_555 1_555
Zn1_3 N1_2 1_555 1_555
C22_3 C10_3 1_555 1_555
H18_3 C22_3 1_555 1_555
N4_2 Zn1_3 1_555 1_555
O4_2 Zn1_3 1_555 1_555
C2_3 N1_2 1_555 1_555
C3_3 N2_3 1_555 1_555
O1_2 Zn1_3 1_555 1_555
C1_4 H1_4 1_555 1_555
C2_4 H2_4 1_555 1_555
C3_4 C2_4 1_555 1_555
H3_4 C3_4 1_555 1_555
C4_4 H4_4 1_555 1_555
H5_4 C4_4 1_555 1_555
C5_4 C4_4 1_555 1_555
C6_4 C5_4 1_555 1_555
H6_4 C6_4 1_555 1_555
C7_4 C5_4 1_555 1_555
H7_4 C7_4 1_555 1_555
C8_4 C9_4 1_555 1_555
C9_4 C10_4 1_555 1_555
C10_4 H8_4 1_555 1_555
C11_4 C9_4 1_555 1_555
H9_4 C11_4 1_555 1_555
N4_2 C1_4 1_555 1_555
N2_4 C1_4 1_555 1_555
O4_2 C8_4 1_555 1_555
O2_4 C8_4 1_555 1_555
C19_4 C20_4 1_555 1_555
C20_4 C21_4 1_555 1_555
C21_4 C11_4 1_555 1_555
H17_4 C21_4 1_555 1_555
C22_4 C10_4 1_555 1_555
H18_4 C22_4 1_555 1_555
O3_4 C19_4 1_555 1_555
Zn2_2 O3_4 1_555 1_555
C2_4 N4_2 1_555 1_555
C3_4 N2_4 1_555 1_555
C4_4 N2_4 1_555 1_555
C20_4 C22_4 1_555 1_555

#END
