
###############################################################################
#
# This file contains modified crystal structure data generated from the
# MOF subset of the Cambridge Structural Database (CSD) v543 
# hosted by the Cambridge Crystallographic Data Centre (CCDC).
#
# This work is licensed under the Creative Commons
# Attribution-NonCommercial-ShareAlike 4.0 International License.
# To view a copy of this license, visit
# http://creativecommons.org/licenses/by-nc-sa/4.0/
# or send a letter to
# Creative Commons, PO Box 1866, Mountain View, CA 94042, USA.
#
# CIF created using the CSD Python API on 29 September 2022
# The structure has been converted into the P1 space group
# The structure has a 3D framework
# The original CSD entry YARDAY is in the tetragonal crystal system
# The framework has been calculated to contain at least 10.0% void space
# The void calculation uses a probe of radius 1.32A, grid spacing 0.4
#
###############################################################################

data_YARDAY
_chemical_formula_moiety         '(C832 H704 N128 O128 Zn30)n'
_symmetry_cell_setting           triclinic
_symmetry_space_group_name_H-M   'P 1'
_symmetry_Int_Tables_number      1
_space_group_name_Hall           'P 1'
loop_
_symmetry_equiv_pos_site_id
_symmetry_equiv_pos_as_xyz
1 x,y,z
_cell_length_a                   24.73040(10)
_cell_length_b                   24.73040(10)
_cell_length_c                   35.5900(3)
_cell_angle_alpha                90
_cell_angle_beta                 90
_cell_angle_gamma                90
_cell_volume                     21766.6
loop_
_atom_site_label
_atom_site_type_symbol
_atom_site_fract_x
_atom_site_fract_y
_atom_site_fract_z
Zn1 Zn 0.000183(18) 0.499216(19) 0.119511(12)
C21 C 0.13017(17) 0.59815(16) 0.01245(11)
C22 C 0.17229(17) 0.63492(17) 0.01190(11)
H18 H 0.1929 0.6419 0.0339
C24 C 0.15278(15) 0.55464(15) 0.07481(10)
H20 H 0.1909 0.5593 0.0752
C25 C 0.12211(15) 0.53068(15) 0.10146(10)
H21 H 0.1355 0.5155 0.1242
C26 C 0.06729(16) 0.55591(16) 0.05807(11)
H22 H 0.0353 0.5622 0.0440
N3 N 0.06882(13) 0.53147(13) 0.09086(9)
N4 N 0.11761(13) 0.57089(13) 0.04703(9)
O7 O 0.00733(11) 0.42674(10) 0.08860(7)
O8 O 0.04963(10) 0.46654(10) 0.16016(7)
C14 C 0.0857(2) 0.72240(17) 0.82383(13)
H12 H 0.0680 0.7575 0.8274
H13 H 0.0603 0.6933 0.8299
H14 H 0.0974 0.7189 0.7976
C15 C 0.13442(16) 0.71863(17) 0.84938(11)
C16 C 0.12908(18) 0.68945(18) 0.88332(11)
H15 H 0.0950 0.6730 0.8879
C17 C 0.16846(15) 0.68228(16) 0.91078(11)
C18 C 0.15375(16) 0.65237(17) 0.94593(11)
C19 C 0.11095(18) 0.61514(17) 0.94748(12)
H16 H 0.0897 0.6085 0.9257
C20 C 0.09954(18) 0.58807(17) 0.98072(11)
H17 H 0.0708 0.5627 0.9817
C23 C 0.18367(17) 0.66148(17) 0.97833(11)
H19 H 0.2127 0.6866 0.9776
O3 O 0.17674(10) 0.74267(11) 0.83860(7)
O4 O 0.21654(10) 0.70037(10) 0.91016(7)
Zn3 Zn 0.249216(19) 0.749817(18) 0.869511(12)
C1 C 0.9132(2) 0.2769(2) 0.41488(14)
H1 H 0.9036 0.2889 0.4403
H2 H 0.9420 0.3001 0.4049
H3 H 0.9259 0.2394 0.4158
C2 C 0.86392(17) 0.28061(18) 0.38958(12)
C3 C 0.86943(19) 0.31013(18) 0.35547(12)
H4 H 0.9036 0.3264 0.3509
C4 C 0.83009(15) 0.31748(16) 0.32833(11)
C5 C 0.84468(16) 0.34816(16) 0.29341(10)
C6 C 0.88618(18) 0.38612(18) 0.29251(11)
H5 H 0.9063 0.3935 0.3147
C7 C 0.89847(19) 0.41329(19) 0.25943(12)
H6 H 0.9271 0.4389 0.2589
C8 C 0.86891(16) 0.40287(17) 0.22719(10)
C9 C 0.82735(16) 0.36483(16) 0.22734(11)
H7 H 0.8076 0.3573 0.2050
C10 C 0.81525(16) 0.33805(16) 0.26062(11)
H8 H 0.7866 0.3125 0.2611
C11 C 0.84713(16) 0.44716(17) 0.16539(11)
H9 H 0.8089 0.4434 0.1652
C12 C 0.87821(16) 0.47045(17) 0.13874(11)
H10 H 0.8649 0.4863 0.1162
C13 C 0.93269(16) 0.44336(16) 0.18155(11)
H11 H 0.9647 0.4360 0.1954
N1 N 0.93154(13) 0.46798(13) 0.14874(9)
N2 N 0.88220(13) 0.43004(13) 0.19290(9)
O1 O 0.82179(11) 0.25722(11) 0.40039(7)
O2 O 0.78198(10) 0.29945(10) 0.32897(7)
Zn2 Zn 0.749216(19) 0.249817(18) 0.369511(12)
O5 O 0.99278(11) 0.57179(11) 0.15039(7)
O6 O 0.95055(10) 0.53198(10) 0.07897(7)
Zn1_2 Zn 0.499817(18) 0.500784(19) 0.619511(12)
C1_2 C 0.5868(2) 0.7231(2) 0.91488(14)
H1_2 H 0.5964 0.7111 0.9403
H2_2 H 0.5580 0.6999 0.9049
H3_2 H 0.5741 0.7606 0.9158
C2_2 C 0.63608(17) 0.71939(18) 0.88958(12)
C3_2 C 0.63057(19) 0.68987(18) 0.85547(12)
H4_2 H 0.5964 0.6736 0.8509
C4_2 C 0.66991(15) 0.68252(16) 0.82833(11)
C5_2 C 0.65532(16) 0.65184(16) 0.79341(10)
C6_2 C 0.61382(18) 0.61388(18) 0.79251(11)
H5_2 H 0.5937 0.6065 0.8147
C7_2 C 0.60153(19) 0.58671(19) 0.75943(12)
H6_2 H 0.5729 0.5611 0.7589
C8_2 C 0.63109(16) 0.59713(17) 0.72719(10)
C9_2 C 0.67265(16) 0.63517(16) 0.72734(11)
H7_2 H 0.6924 0.6427 0.7050
C10_2 C 0.68475(16) 0.66195(16) 0.76062(11)
H8_2 H 0.7134 0.6875 0.7611
C11_2 C 0.65287(16) 0.55284(17) 0.66539(11)
H9_2 H 0.6911 0.5566 0.6652
C12_2 C 0.62179(16) 0.52955(17) 0.63874(11)
H10_2 H 0.6351 0.5137 0.6162
C13_2 C 0.56731(16) 0.55664(16) 0.68155(11)
H11_2 H 0.5353 0.5640 0.6954
C14_2 C 0.4143(2) 0.27760(17) 0.32383(13)
H12_2 H 0.4320 0.2425 0.3274
H13_2 H 0.4397 0.3067 0.3299
H14_2 H 0.4026 0.2811 0.2976
C15_2 C 0.36558(16) 0.28137(17) 0.34938(11)
C16_2 C 0.37092(18) 0.31055(18) 0.38332(11)
H15_2 H 0.4050 0.3270 0.3879
C17_2 C 0.33154(15) 0.31772(16) 0.41078(11)
C18_2 C 0.34625(16) 0.34763(17) 0.44593(11)
C19_2 C 0.38905(18) 0.38486(17) 0.44748(12)
H16_2 H 0.4103 0.3915 0.4257
C20_2 C 0.40046(18) 0.41193(17) 0.48072(11)
H17_2 H 0.4292 0.4373 0.4817
C21_2 C 0.36983(17) 0.40185(16) 0.51245(11)
C22_2 C 0.32771(17) 0.36508(17) 0.51190(11)
H18_2 H 0.3071 0.3581 0.5339
C23_2 C 0.31633(17) 0.33852(17) 0.47833(11)
H19_2 H 0.2873 0.3134 0.4776
C24_2 C 0.34722(15) 0.44536(15) 0.57481(10)
H20_2 H 0.3091 0.4407 0.5752
C25_2 C 0.37789(15) 0.46932(15) 0.60146(10)
H21_2 H 0.3645 0.4845 0.6242
C26_2 C 0.43271(16) 0.44409(16) 0.55807(11)
H22_2 H 0.4647 0.4378 0.5440
N1_2 N 0.56846(13) 0.53202(13) 0.64874(9)
N2_2 N 0.61780(13) 0.56996(13) 0.69290(9)
N3_2 N 0.43118(13) 0.46853(13) 0.59086(9)
N4_2 N 0.38239(13) 0.42911(13) 0.54703(9)
O1_2 O 0.67821(11) 0.74278(11) 0.90039(7)
O2_2 O 0.71802(10) 0.70055(10) 0.82897(7)
O3_2 O 0.32326(10) 0.25733(11) 0.33860(7)
O4_2 O 0.28346(10) 0.29963(10) 0.41016(7)
Zn2_2 Zn 0.750784(19) 0.750183(18) 0.869511(12)
Zn3_2 Zn 0.250784(19) 0.250183(18) 0.369511(12)
O5_2 O 0.50722(11) 0.42821(11) 0.65039(7)
O6_2 O 0.54945(10) 0.46802(10) 0.57897(7)
O7_2 O 0.49267(11) 0.57326(10) 0.58860(7)
O8_2 O 0.45037(10) 0.53346(10) 0.66016(7)
C1_3 C 0.4731(2) 0.1632(2) 0.66488(14)
H1_3 H 0.4611 0.1536 0.6903
H2_3 H 0.4499 0.1920 0.6549
H3_3 H 0.5106 0.1759 0.6658
C2_3 C 0.46939(18) 0.11392(17) 0.63958(12)
C3_3 C 0.43987(18) 0.11943(19) 0.60547(12)
H4_3 H 0.4236 0.1536 0.6009
C4_3 C 0.43252(16) 0.08009(15) 0.57833(11)
C5_3 C 0.40184(16) 0.09468(16) 0.54341(10)
C6_3 C 0.36388(18) 0.13618(18) 0.54251(11)
H5_3 H 0.3565 0.1563 0.5647
C7_3 C 0.33671(19) 0.14847(19) 0.50943(12)
H6_3 H 0.3111 0.1771 0.5089
C8_3 C 0.34713(17) 0.11891(16) 0.47719(10)
C9_3 C 0.38517(16) 0.07735(16) 0.47734(11)
H7_3 H 0.3927 0.0576 0.4550
C10_3 C 0.41195(16) 0.06525(16) 0.51062(11)
H8_3 H 0.4375 0.0366 0.5111
C11_3 C 0.30284(17) 0.09713(16) 0.41539(11)
H9_3 H 0.3066 0.0589 0.4152
C12_3 C 0.27955(17) 0.12821(16) 0.38874(11)
H10_3 H 0.2637 0.1149 0.3662
C13_3 C 0.30664(16) 0.18269(16) 0.43155(11)
H11_3 H 0.3140 0.2147 0.4454
C14_3 C 0.02760(17) 0.3357(2) 0.07383(13)
H13_3 H 0.0567 0.3103 0.0799
H14_3 H 0.0311 0.3474 0.0476
C15_3 C 0.03137(17) 0.38442(16) 0.09938(11)
C16_3 C 0.06055(18) 0.37908(18) 0.13332(11)
H15_3 H 0.0770 0.3450 0.1379
C17_3 C 0.06772(16) 0.41846(15) 0.16078(11)
C18_3 C 0.09763(17) 0.40375(16) 0.19593(11)
C19_3 C 0.13486(17) 0.36095(18) 0.19748(12)
H16_3 H 0.1415 0.3397 0.1757
C20_3 C 0.16193(17) 0.34954(18) 0.23072(11)
H17_3 H 0.1873 0.3208 0.2317
C21_3 C 0.15185(16) 0.38017(17) 0.26245(11)
C22_3 C 0.11508(17) 0.42229(17) 0.26190(11)
H18_3 H 0.1081 0.4429 0.2839
C23_3 C 0.08852(17) 0.43367(17) 0.22833(11)
H19_3 H 0.0634 0.4627 0.2276
C24_3 C 0.19536(15) 0.40278(15) 0.32481(10)
H20_3 H 0.1907 0.4409 0.3252
C25_3 C 0.21932(15) 0.37211(15) 0.35146(10)
H21_3 H 0.2345 0.3855 0.3742
C26_3 C 0.19409(16) 0.31729(16) 0.30807(11)
H22_3 H 0.1878 0.2853 0.2940
N1_3 N 0.28202(13) 0.18154(13) 0.39874(9)
N2_3 N 0.31996(13) 0.13220(13) 0.44290(9)
N3_3 N 0.21853(13) 0.31882(13) 0.34086(9)
N4_3 N 0.17911(13) 0.36761(13) 0.29703(9)
O1_3 O 0.49278(11) 0.07179(11) 0.65039(7)
O2_3 O 0.45055(10) 0.03198(10) 0.57897(7)
O5_3 O 0.17821(11) 0.24278(11) 0.40039(7)
O6_3 O 0.21802(10) 0.20055(10) 0.32897(7)
Zn2_3 Zn 0.500183(18) 0.999216(19) 0.619511(12)
C8_4 C 0.15287(17) 0.88109(16) 0.97719(10)
C9_4 C 0.11483(16) 0.92265(16) 0.97734(11)
H7_4 H 0.1073 0.9424 0.9550
C11_4 C 0.19716(17) 0.90287(16) 0.91539(11)
H9_4 H 0.1934 0.9411 0.9152
C12_4 C 0.22045(17) 0.87179(16) 0.88874(11)
H10_4 H 0.2363 0.8851 0.8662
C13_4 C 0.19336(16) 0.81731(16) 0.93155(11)
H11_4 H 0.1860 0.7853 0.9454
C14_4 C 0.47240(17) 0.6643(2) 0.57383(13)
H12_3 H 0.5075 0.6820 0.5774
H13_4 H 0.4433 0.6897 0.5799
H14_4 H 0.4689 0.6526 0.5476
C15_4 C 0.46863(17) 0.61558(16) 0.59938(11)
C16_4 C 0.43945(18) 0.62092(18) 0.63332(11)
H15_4 H 0.4230 0.6550 0.6379
C17_4 C 0.43228(16) 0.58154(15) 0.66078(11)
C18_4 C 0.40237(17) 0.59625(16) 0.69593(11)
C19_4 C 0.36514(17) 0.63905(18) 0.69748(12)
H16_4 H 0.3585 0.6603 0.6757
C20_4 C 0.33807(17) 0.65046(18) 0.73072(11)
H17_4 H 0.3127 0.6792 0.7317
C21_4 C 0.34815(16) 0.61983(17) 0.76245(11)
C22_4 C 0.38492(17) 0.57771(17) 0.76190(11)
H18_4 H 0.3919 0.5571 0.7839
C23_4 C 0.41148(17) 0.56633(17) 0.72833(11)
H19_4 H 0.4366 0.5373 0.7276
C24_4 C 0.30464(15) 0.59722(15) 0.82481(10)
H20_4 H 0.3093 0.5591 0.8252
C25_4 C 0.28068(15) 0.62789(15) 0.85146(10)
H21_4 H 0.2655 0.6145 0.8742
C26_4 C 0.30591(16) 0.68271(16) 0.80807(11)
H22_4 H 0.3122 0.7147 0.7940
N1_4 N 0.21798(13) 0.81846(13) 0.89874(9)
N2_4 N 0.18004(13) 0.86780(13) 0.94290(9)
N3_4 N 0.28147(13) 0.68118(13) 0.84086(9)
N4_4 N 0.32089(13) 0.63239(13) 0.79703(9)
O5_4 O 0.32179(11) 0.75722(11) 0.90039(7)
O6_4 O 0.28198(10) 0.79945(10) 0.82897(7)
Zn2_4 Zn 0.999817(18) 0.000784(19) 0.119511(12)
C14_5 C 0.5857(2) 0.22240(17) 0.32383(13)
H12_4 H 0.5680 0.2575 0.3274
H13_5 H 0.5603 0.1933 0.3299
H14_5 H 0.5974 0.2189 0.2976
C15_5 C 0.63442(16) 0.21863(17) 0.34938(11)
C16_5 C 0.62908(18) 0.18945(18) 0.38332(11)
H15_5 H 0.5950 0.1730 0.3879
C17_5 C 0.66846(15) 0.18228(16) 0.41078(11)
C18_5 C 0.65375(16) 0.15237(17) 0.44593(11)
C19_5 C 0.61095(18) 0.11514(17) 0.44748(12)
H16_5 H 0.5897 0.1085 0.4257
C20_5 C 0.59954(18) 0.08807(17) 0.48072(11)
H17_5 H 0.5708 0.0627 0.4817
C21_5 C 0.63017(17) 0.09815(16) 0.51245(11)
C22_5 C 0.67229(17) 0.13492(17) 0.51190(11)
H18_5 H 0.6929 0.1419 0.5339
C23_5 C 0.68367(17) 0.16148(17) 0.47833(11)
H19_5 H 0.7127 0.1866 0.4776
C24_5 C 0.65278(15) 0.05464(15) 0.57481(10)
H20_5 H 0.6909 0.0593 0.5752
C25_5 C 0.62211(15) 0.03068(15) 0.60146(10)
H21_5 H 0.6355 0.0155 0.6242
C26_5 C 0.56729(16) 0.05591(16) 0.55807(11)
H22_5 H 0.5353 0.0622 0.5440
N3_5 N 0.56882(13) 0.03147(13) 0.59086(9)
N4_5 N 0.61761(13) 0.07089(13) 0.54703(9)
O3_3 O 0.67674(10) 0.24267(11) 0.33860(7)
O4_3 O 0.71654(10) 0.20037(10) 0.41016(7)
C1_4 C 0.4132(2) 0.7769(2) 0.91488(14)
H1_4 H 0.4036 0.7889 0.9403
H2_4 H 0.4420 0.8001 0.9049
H3_4 H 0.4259 0.7394 0.9158
C2_4 C 0.36392(17) 0.78061(18) 0.88958(12)
C3_4 C 0.36943(19) 0.81013(18) 0.85547(12)
H4_4 H 0.4036 0.8264 0.8509
C4_4 C 0.33009(15) 0.81748(16) 0.82833(11)
C5_4 C 0.34468(16) 0.84816(16) 0.79341(10)
C6_4 C 0.38618(18) 0.88612(18) 0.79251(11)
H5_4 H 0.4063 0.8935 0.8147
C7_4 C 0.39847(19) 0.91329(19) 0.75943(12)
H6_4 H 0.4271 0.9389 0.7589
C8_5 C 0.36891(16) 0.90287(17) 0.72719(10)
C9_5 C 0.32735(16) 0.86483(16) 0.72734(11)
H7_5 H 0.3076 0.8573 0.7050
C10_4 C 0.31525(16) 0.83805(16) 0.76062(11)
H8_4 H 0.2866 0.8125 0.7611
C11_5 C 0.34713(16) 0.94716(17) 0.66539(11)
H9_5 H 0.3089 0.9434 0.6652
C12_5 C 0.37821(16) 0.97045(17) 0.63874(11)
H10_5 H 0.3649 0.9863 0.6162
C13_5 C 0.43269(16) 0.94336(16) 0.68155(11)
H11_5 H 0.4647 0.9360 0.6954
N1_5 N 0.43154(13) 0.96798(13) 0.64874(9)
N2_5 N 0.38220(13) 0.93004(13) 0.69290(9)
O7_3 O 0.50733(11) 0.92674(10) 0.58860(7)
O8_3 O 0.54963(10) 0.96654(10) 0.66016(7)
C1_5 C 0.0868(2) 0.2231(2) 0.41488(14)
H1_5 H 0.0964 0.2111 0.4403
H2_5 H 0.0580 0.1999 0.4049
H3_5 H 0.0741 0.2606 0.4158
C2_5 C 0.13608(17) 0.21939(18) 0.38958(12)
C3_5 C 0.13057(19) 0.18987(18) 0.35547(12)
H4_5 H 0.0964 0.1736 0.3509
C4_5 C 0.16991(15) 0.18252(16) 0.32833(11)
C5_5 C 0.15532(16) 0.15184(16) 0.29341(10)
C6_5 C 0.11382(18) 0.11388(18) 0.29251(11)
H5_5 H 0.0937 0.1065 0.3147
C7_5 C 0.10153(19) 0.08671(19) 0.25943(12)
H6_5 H 0.0729 0.0611 0.2589
C8_6 C 0.13109(16) 0.09713(17) 0.22719(10)
C9_6 C 0.17265(16) 0.13517(16) 0.22734(11)
H7_6 H 0.1924 0.1427 0.2050
C10_5 C 0.18475(16) 0.16195(16) 0.26062(11)
H8_5 H 0.2134 0.1875 0.2611
C11_6 C 0.15287(16) 0.05284(17) 0.16539(11)
H9_6 H 0.1911 0.0566 0.1652
C12_6 C 0.12179(16) 0.02955(17) 0.13874(11)
H10_6 H 0.1351 0.0137 0.1162
C13_6 C 0.06731(16) 0.05664(16) 0.18155(11)
H11_6 H 0.0353 0.0640 0.1954
N1_6 N 0.06846(13) 0.03202(13) 0.14874(9)
N2_6 N 0.11780(13) 0.06996(13) 0.19290(9)
O7_4 O 0.99267(11) 0.07326(10) 0.08860(7)
O8_4 O 0.95037(10) 0.03346(10) 0.16016(7)
C14_6 C 0.9143(2) 0.77760(17) 0.82383(13)
H12_5 H 0.9320 0.7425 0.8274
H13_6 H 0.9397 0.8067 0.8299
H14_6 H 0.9026 0.7811 0.7976
C15_6 C 0.86558(16) 0.78137(17) 0.84938(11)
C16_6 C 0.87092(18) 0.81055(18) 0.88332(11)
H15_6 H 0.9050 0.8270 0.8879
C17_6 C 0.83154(15) 0.81772(16) 0.91078(11)
C18_6 C 0.84625(16) 0.84763(17) 0.94593(11)
C19_6 C 0.88905(18) 0.88486(17) 0.94748(12)
H16_6 H 0.9103 0.8915 0.9257
C20_6 C 0.90046(18) 0.91193(17) 0.98072(11)
H17_6 H 0.9292 0.9373 0.9817
C23_6 C 0.81633(17) 0.83852(17) 0.97833(11)
H19_6 H 0.7873 0.8134 0.9776
O3_4 O 0.82326(10) 0.75733(11) 0.83860(7)
O4_4 O 0.78346(10) 0.79963(10) 0.91016(7)
H3_6 H 0.0106 0.6759 0.1658
C1_6 C 0.9731(2) 0.6632(2) 0.16488(14)
H1_6 H 0.9611 0.6536 0.1903
H2_6 H 0.9499 0.6920 0.1549
C2_6 C 0.96939(18) 0.61392(17) 0.13958(12)
C3_6 C 0.93987(18) 0.61943(19) 0.10547(12)
H4_6 H 0.9236 0.6536 0.1009
C4_6 C 0.93252(16) 0.58009(15) 0.07833(11)
C5_6 C 0.90184(16) 0.59468(16) 0.04341(10)
C6_6 C 0.86388(18) 0.63618(18) 0.04251(11)
H5_6 H 0.8565 0.6563 0.0647
C7_6 C 0.83671(19) 0.64847(19) 0.00943(12)
H6_6 H 0.8111 0.6771 0.0089
C10_6 C 0.91195(16) 0.56525(16) 0.01062(11)
H8_6 H 0.9375 0.5366 0.0111
C8_7 C 0.84713(17) 0.61891(16) 0.97719(10)
C9_7 C 0.88517(16) 0.57735(16) 0.97734(11)
H7_7 H 0.8927 0.5576 0.9550
C11_7 C 0.80284(17) 0.59713(16) 0.91539(11)
H9_7 H 0.8066 0.5589 0.9152
C12_7 C 0.77955(17) 0.62821(16) 0.88874(11)
H10_7 H 0.7637 0.6149 0.8662
C13_7 C 0.80664(16) 0.68269(16) 0.93155(11)
H11_7 H 0.8140 0.7147 0.9454
C14_7 C 0.52760(17) 0.8357(2) 0.57383(13)
H12_6 H 0.4925 0.8180 0.5774
H13_7 H 0.5567 0.8103 0.5799
H14_7 H 0.5311 0.8474 0.5476
C15_7 C 0.53137(17) 0.88442(16) 0.59938(11)
C16_7 C 0.56055(18) 0.87908(18) 0.63332(11)
H15_7 H 0.5770 0.8450 0.6379
C17_7 C 0.56772(16) 0.91846(15) 0.66078(11)
C18_7 C 0.59763(17) 0.90375(16) 0.69593(11)
C19_7 C 0.63486(17) 0.86095(18) 0.69748(12)
H16_7 H 0.6415 0.8397 0.6757
C20_7 C 0.66193(17) 0.84954(18) 0.73072(11)
H17_7 H 0.6873 0.8208 0.7317
C21_6 C 0.65185(16) 0.88017(17) 0.76245(11)
C22_6 C 0.61508(17) 0.92229(17) 0.76190(11)
H18_6 H 0.6081 0.9429 0.7839
C23_7 C 0.58852(17) 0.93367(17) 0.72833(11)
H19_7 H 0.5634 0.9627 0.7276
C24_6 C 0.69536(15) 0.90278(15) 0.82481(10)
H20_6 H 0.6907 0.9409 0.8252
C25_6 C 0.71932(15) 0.87211(15) 0.85146(10)
H21_6 H 0.7345 0.8855 0.8742
C26_6 C 0.69409(16) 0.81729(16) 0.80807(11)
H22_6 H 0.6878 0.7853 0.7940
N1_7 N 0.78202(13) 0.68154(13) 0.89874(9)
N2_7 N 0.81996(13) 0.63220(13) 0.94290(9)
N3_6 N 0.71853(13) 0.81882(13) 0.84086(9)
N4_6 N 0.67911(13) 0.86761(13) 0.79703(9)
C1_7 C 0.5269(2) 0.3368(2) 0.66488(14)
H1_7 H 0.5389 0.3464 0.6903
H2_7 H 0.5501 0.3080 0.6549
H3_7 H 0.4894 0.3241 0.6658
C2_7 C 0.53061(18) 0.38608(17) 0.63958(12)
C3_7 C 0.56013(18) 0.38057(19) 0.60547(12)
H4_7 H 0.5764 0.3464 0.6009
C4_7 C 0.56748(16) 0.41991(15) 0.57833(11)
C5_7 C 0.59816(16) 0.40532(16) 0.54341(10)
C6_7 C 0.63612(18) 0.36382(18) 0.54251(11)
H5_7 H 0.6435 0.3437 0.5647
C7_7 C 0.66329(19) 0.35153(19) 0.50943(12)
H6_7 H 0.6889 0.3229 0.5089
C8_8 C 0.65287(17) 0.38109(16) 0.47719(10)
C9_8 C 0.61483(16) 0.42265(16) 0.47734(11)
H7_8 H 0.6073 0.4424 0.4550
C10_7 C 0.58805(16) 0.43475(16) 0.51062(11)
H8_7 H 0.5625 0.4634 0.5111
C11_8 C 0.69716(17) 0.40287(16) 0.41539(11)
H9_8 H 0.6934 0.4411 0.4152
C12_8 C 0.72045(17) 0.37179(16) 0.38874(11)
H10_8 H 0.7363 0.3851 0.3662
C13_8 C 0.69336(16) 0.31731(16) 0.43155(11)
H11_8 H 0.6860 0.2853 0.4454
C14_8 C 0.97240(17) 0.1643(2) 0.07383(13)
H13_8 H 0.9433 0.1897 0.0799
H14_8 H 0.9689 0.1526 0.0476
C15_8 C 0.96863(17) 0.11558(16) 0.09938(11)
C16_8 C 0.93945(18) 0.12092(18) 0.13332(11)
H15_8 H 0.9230 0.1550 0.1379
C17_8 C 0.93228(16) 0.08154(15) 0.16078(11)
C18_8 C 0.90237(17) 0.09625(16) 0.19593(11)
C19_8 C 0.86514(17) 0.13905(18) 0.19748(12)
H16_8 H 0.8585 0.1603 0.1757
C20_8 C 0.83807(17) 0.15046(18) 0.23072(11)
H17_8 H 0.8127 0.1792 0.2317
C21_7 C 0.84815(16) 0.11983(17) 0.26245(11)
C22_7 C 0.88492(17) 0.07771(17) 0.26190(11)
H18_7 H 0.8919 0.0571 0.2839
C23_8 C 0.91148(17) 0.06633(17) 0.22833(11)
H19_8 H 0.9366 0.0373 0.2276
C24_7 C 0.80464(15) 0.09722(15) 0.32481(10)
H20_7 H 0.8093 0.0591 0.3252
C25_7 C 0.78068(15) 0.12789(15) 0.35146(10)
H21_7 H 0.7655 0.1145 0.3742
C26_7 C 0.80591(16) 0.18271(16) 0.30807(11)
H22_7 H 0.8122 0.2147 0.2940
N1_8 N 0.71798(13) 0.31846(13) 0.39874(9)
N2_8 N 0.68004(13) 0.36780(13) 0.44290(9)
N3_7 N 0.78147(13) 0.18118(13) 0.34086(9)
N4_7 N 0.82089(13) 0.13239(13) 0.29703(9)
H12_7 H 0.9925 0.3180 0.0774
C1_8 C 0.0269(2) 0.8368(2) 0.16488(14)
H1_8 H 0.0389 0.8464 0.1903
H2_8 H 0.0501 0.8080 0.1549
C2_8 C 0.03061(18) 0.88608(17) 0.13958(12)
C3_8 C 0.06013(18) 0.88057(19) 0.10547(12)
H4_8 H 0.0764 0.8464 0.1009
C4_8 C 0.06748(16) 0.91991(15) 0.07833(11)
C5_8 C 0.09816(16) 0.90532(16) 0.04341(10)
C6_8 C 0.13612(18) 0.86382(18) 0.04251(11)
H5_8 H 0.1435 0.8437 0.0647
C7_8 C 0.16329(19) 0.85153(19) 0.00943(12)
H6_8 H 0.1889 0.8229 0.0089
C10_8 C 0.08805(16) 0.93475(16) 0.01062(11)
H8_8 H 0.0625 0.9634 0.0111
O1_4 O 0.00722(11) 0.92821(11) 0.15039(7)
O2_4 O 0.04945(10) 0.96802(10) 0.07897(7)
H3_8 H 0.9894 0.8241 0.1658
C21_8 C 0.86983(17) 0.90185(16) 0.01245(11)
C22_8 C 0.82771(17) 0.86508(17) 0.01190(11)
H18_8 H 0.8071 0.8581 0.0339
C24_8 C 0.84722(15) 0.94536(15) 0.07481(10)
H20_8 H 0.8091 0.9407 0.0752
C25_8 C 0.87789(15) 0.96932(15) 0.10146(10)
H21_8 H 0.8645 0.9845 0.1242
C26_8 C 0.93271(16) 0.94409(16) 0.05807(11)
H22_8 H 0.9647 0.9378 0.0440
N3_8 N 0.93118(13) 0.96853(13) 0.09086(9)
N4_8 N 0.88239(13) 0.92911(13) 0.04703(9)
H12_8 H 0.0075 0.1820 0.0774
C1_9 C 0.0868(2) 0.7231(2) 0.58512(14)
H1_9 H 0.0964 0.7111 0.5597
H2_9 H 0.0580 0.6999 0.5951
H3_9 H 0.0741 0.7606 0.5842
C2_9 C 0.13608(17) 0.71939(18) 0.61042(12)
C3_9 C 0.13057(19) 0.68987(18) 0.64453(12)
H4_9 H 0.0964 0.6736 0.6491
C4_9 C 0.16991(15) 0.68252(16) 0.67167(11)
C5_9 C 0.15532(16) 0.65184(16) 0.70659(10)
C6_9 C 0.11382(18) 0.61388(18) 0.70749(11)
H5_9 H 0.0937 0.6065 0.6853
C7_9 C 0.10153(19) 0.58671(19) 0.74057(12)
H6_9 H 0.0729 0.5611 0.7411
C8_9 C 0.13109(16) 0.59713(17) 0.77281(10)
C9_9 C 0.17265(16) 0.63517(16) 0.77266(11)
H7_9 H 0.1924 0.6427 0.7950
C10_9 C 0.18475(16) 0.66195(16) 0.73938(11)
H8_9 H 0.2134 0.6875 0.7389
C11_9 C 0.15287(16) 0.55284(17) 0.83461(11)
H9_9 H 0.1911 0.5566 0.8348
C12_9 C 0.12179(16) 0.52955(17) 0.86126(11)
H10_9 H 0.1351 0.5137 0.8838
C13_9 C 0.06731(16) 0.55664(16) 0.81845(11)
H11_9 H 0.0353 0.5640 0.8046
N1_9 N 0.06846(13) 0.53202(13) 0.85126(9)
N2_9 N 0.11780(13) 0.56996(13) 0.80710(9)
O1_5 O 0.17821(11) 0.74278(11) 0.59961(7)
O2_5 O 0.21802(10) 0.70055(10) 0.67103(7)
Zn2_5 Zn 0.250784(19) 0.750183(18) 0.630489(12)
O5_5 O 0.00722(11) 0.42821(11) 0.84961(7)
O6_5 O 0.04945(10) 0.46802(10) 0.92103(7)
C14_9 C 0.9143(2) 0.27760(17) 0.17617(13)
H12_9 H 0.9320 0.2425 0.1726
H13_9 H 0.9397 0.3067 0.1701
H14_9 H 0.9026 0.2811 0.2024
C15_9 C 0.86558(16) 0.28137(17) 0.15062(11)
C16_9 C 0.87092(18) 0.31055(18) 0.11668(11)
H15_9 H 0.9050 0.3270 0.1121
C17_9 C 0.83154(15) 0.31772(16) 0.08922(11)
C18_9 C 0.84625(16) 0.34763(17) 0.05407(11)
C19_9 C 0.88905(18) 0.38486(17) 0.05252(12)
H16_9 H 0.9103 0.3915 0.0743
C20_9 C 0.90046(18) 0.41193(17) 0.01928(11)
H17_9 H 0.9292 0.4373 0.0183
C23_9 C 0.81633(17) 0.33852(17) 0.02167(11)
H19_9 H 0.7873 0.3134 0.0224
O3_5 O 0.82326(10) 0.25733(11) 0.16140(7)
O4_5 O 0.78346(10) 0.29963(10) 0.08984(7)
Zn3_3 Zn 0.750784(19) 0.250183(18) 0.130489(12)
Zn1_3 Zn 0.999817(18) 0.500784(19) 0.880489(12)
C21_9 C 0.86983(17) 0.40185(16) 0.98755(11)
C22_9 C 0.82771(17) 0.36508(17) 0.98810(11)
H18_9 H 0.8071 0.3581 0.9661
C24_9 C 0.84722(15) 0.44536(15) 0.92519(10)
H20_9 H 0.8091 0.4407 0.9248
C25_9 C 0.87789(15) 0.46932(15) 0.89854(10)
H21_9 H 0.8645 0.4845 0.8758
C26_9 C 0.93271(16) 0.44409(16) 0.94193(11)
H22_9 H 0.9647 0.4378 0.9560
N3_9 N 0.93118(13) 0.46853(13) 0.90914(9)
N4_9 N 0.88239(13) 0.42911(13) 0.95297(9)
O7_5 O 0.99267(11) 0.57326(10) 0.91140(7)
O8_5 O 0.95037(10) 0.53346(10) 0.83984(7)
Zn1_4 Zn 0.500183(18) 0.499216(19) 0.380489(12)
C1_10 C 0.4132(2) 0.2769(2) 0.08512(14)
H1_10 H 0.4036 0.2889 0.0597
H2_10 H 0.4420 0.3001 0.0951
H3_10 H 0.4259 0.2394 0.0842
C2_10 C 0.36392(17) 0.28061(18) 0.11042(12)
C3_10 C 0.36943(19) 0.31013(18) 0.14453(12)
H4_10 H 0.4036 0.3264 0.1491
C4_10 C 0.33009(15) 0.31748(16) 0.17167(11)
C5_10 C 0.34468(16) 0.34816(16) 0.20659(10)
C6_10 C 0.38618(18) 0.38612(18) 0.20749(11)
H5_10 H 0.4063 0.3935 0.1853
C7_10 C 0.39847(19) 0.41329(19) 0.24057(12)
H6_10 H 0.4271 0.4389 0.2411
C8_10 C 0.36891(16) 0.40287(17) 0.27281(10)
C9_10 C 0.32735(16) 0.36483(16) 0.27266(11)
H7_10 H 0.3076 0.3573 0.2950
C10_10 C 0.31525(16) 0.33805(16) 0.23938(11)
H8_10 H 0.2866 0.3125 0.2389
C11_10 C 0.34713(16) 0.44716(17) 0.33461(11)
H9_10 H 0.3089 0.4434 0.3348
C12_10 C 0.37821(16) 0.47045(17) 0.36126(11)
H10_10 H 0.3649 0.4863 0.3838
C13_10 C 0.43269(16) 0.44336(16) 0.31845(11)
H11_10 H 0.4647 0.4360 0.3046
C14_10 C 0.5857(2) 0.72240(17) 0.67617(13)
H12_10 H 0.5680 0.7575 0.6726
H13_10 H 0.5603 0.6933 0.6701
H14_10 H 0.5974 0.7189 0.7024
C15_10 C 0.63442(16) 0.71863(17) 0.65062(11)
C16_10 C 0.62908(18) 0.68945(18) 0.61668(11)
H15_10 H 0.5950 0.6730 0.6121
C17_10 C 0.66846(15) 0.68228(16) 0.58922(11)
C18_10 C 0.65375(16) 0.65237(17) 0.55407(11)
C19_10 C 0.61095(18) 0.61514(17) 0.55252(12)
H16_10 H 0.5897 0.6085 0.5743
C20_10 C 0.59954(18) 0.58807(17) 0.51928(11)
H17_10 H 0.5708 0.5627 0.5183
C21_10 C 0.63017(17) 0.59815(16) 0.48755(11)
C22_10 C 0.67229(17) 0.63492(17) 0.48810(11)
H18_10 H 0.6929 0.6419 0.4661
C23_10 C 0.68367(17) 0.66148(17) 0.52167(11)
H19_10 H 0.7127 0.6866 0.5224
C24_10 C 0.65278(15) 0.55464(15) 0.42519(10)
H20_10 H 0.6909 0.5593 0.4248
C25_10 C 0.62211(15) 0.53068(15) 0.39854(10)
H21_10 H 0.6355 0.5155 0.3758
C26_10 C 0.56729(16) 0.55591(16) 0.44193(11)
H22_10 H 0.5353 0.5622 0.4560
N1_10 N 0.43154(13) 0.46798(13) 0.35126(9)
N2_10 N 0.38220(13) 0.43004(13) 0.30710(9)
N3_10 N 0.56882(13) 0.53147(13) 0.40914(9)
N4_10 N 0.61761(13) 0.57089(13) 0.45297(9)
O1_6 O 0.32179(11) 0.25722(11) 0.09961(7)
O2_6 O 0.28198(10) 0.29945(10) 0.17103(7)
O3_6 O 0.67674(10) 0.74267(11) 0.66140(7)
O4_6 O 0.71654(10) 0.70037(10) 0.58984(7)
Zn2_6 Zn 0.249216(19) 0.249817(18) 0.130489(12)
Zn3_4 Zn 0.749216(19) 0.749817(18) 0.630489(12)
O5_6 O 0.49278(11) 0.57179(11) 0.34961(7)
O6_6 O 0.45055(10) 0.53198(10) 0.42103(7)
O7_6 O 0.50733(11) 0.42674(10) 0.41140(7)
O8_6 O 0.54963(10) 0.46654(10) 0.33984(7)
Zn2_7 Zn 0.499817(18) 0.000784(19) 0.380489(12)
C1_11 C 0.5269(2) 0.8368(2) 0.33512(14)
H1_11 H 0.5389 0.8464 0.3097
H2_11 H 0.5501 0.8080 0.3451
H3_11 H 0.4894 0.8241 0.3342
C2_11 C 0.53061(18) 0.88608(17) 0.36042(12)
C3_11 C 0.56013(18) 0.88057(19) 0.39453(12)
H4_11 H 0.5764 0.8464 0.3991
C4_11 C 0.56748(16) 0.91991(15) 0.42167(11)
C5_11 C 0.59816(16) 0.90532(16) 0.45659(10)
C6_11 C 0.63612(18) 0.86382(18) 0.45749(11)
H5_11 H 0.6435 0.8437 0.4353
C7_11 C 0.66329(19) 0.85153(19) 0.49057(12)
H6_11 H 0.6889 0.8229 0.4911
C8_11 C 0.65287(17) 0.88109(16) 0.52281(10)
C9_11 C 0.61483(16) 0.92265(16) 0.52266(11)
H7_11 H 0.6073 0.9424 0.5450
C10_11 C 0.58805(16) 0.93475(16) 0.48938(11)
H8_11 H 0.5625 0.9634 0.4889
C11_11 C 0.69716(17) 0.90287(16) 0.58461(11)
H9_11 H 0.6934 0.9411 0.5848
C12_11 C 0.72045(17) 0.87179(16) 0.61126(11)
H10_11 H 0.7363 0.8851 0.6338
C13_11 C 0.69336(16) 0.81731(16) 0.56845(11)
H11_11 H 0.6860 0.7853 0.5546
C14_11 C 0.97240(17) 0.6643(2) 0.92617(13)
H13_11 H 0.9433 0.6897 0.9201
H14_11 H 0.9689 0.6526 0.9524
C15_11 C 0.96863(17) 0.61558(16) 0.90062(11)
C16_11 C 0.93945(18) 0.62092(18) 0.86668(11)
H15_11 H 0.9230 0.6550 0.8621
C17_11 C 0.93228(16) 0.58154(15) 0.83922(11)
C18_11 C 0.90237(17) 0.59625(16) 0.80407(11)
C19_11 C 0.86514(17) 0.63905(18) 0.80252(12)
H16_11 H 0.8585 0.6603 0.8243
C20_11 C 0.83807(17) 0.65046(18) 0.76928(11)
H17_11 H 0.8127 0.6792 0.7683
C21_11 C 0.84815(16) 0.61983(17) 0.73755(11)
C22_11 C 0.88492(17) 0.57771(17) 0.73810(11)
H18_11 H 0.8919 0.5571 0.7161
C23_11 C 0.91148(17) 0.56633(17) 0.77167(11)
H19_11 H 0.9366 0.5373 0.7724
C24_11 C 0.80464(15) 0.59722(15) 0.67519(10)
H20_11 H 0.8093 0.5591 0.6748
C25_11 C 0.78068(15) 0.62789(15) 0.64854(10)
H21_11 H 0.7655 0.6145 0.6258
C26_11 C 0.80591(16) 0.68271(16) 0.69193(11)
H22_11 H 0.8122 0.7147 0.7060
N1_11 N 0.71798(13) 0.81846(13) 0.60126(9)
N2_11 N 0.68004(13) 0.86780(13) 0.55710(9)
N3_11 N 0.78147(13) 0.68118(13) 0.65914(9)
N4_11 N 0.82089(13) 0.63239(13) 0.70297(9)
O1_7 O 0.50722(11) 0.92821(11) 0.34961(7)
O2_7 O 0.54945(10) 0.96802(10) 0.42103(7)
O5_7 O 0.82179(11) 0.75722(11) 0.59961(7)
O6_7 O 0.78198(10) 0.79945(10) 0.67103(7)
Zn2_8 Zn 0.000183(18) 0.999216(19) 0.880489(12)
C8_12 C 0.84713(17) 0.11891(16) 0.02281(10)
C9_12 C 0.88517(16) 0.07735(16) 0.02266(11)
H7_12 H 0.8927 0.0576 0.0450
C11_12 C 0.80284(17) 0.09713(16) 0.08461(11)
H9_12 H 0.8066 0.0589 0.0848
C12_12 C 0.77955(17) 0.12821(16) 0.11126(11)
H10_12 H 0.7637 0.1149 0.1338
C13_12 C 0.80664(16) 0.18269(16) 0.06845(11)
H11_12 H 0.8140 0.2147 0.0546
C14_12 C 0.52760(17) 0.3357(2) 0.42617(13)
H12_11 H 0.4925 0.3180 0.4226
H13_12 H 0.5567 0.3103 0.4201
H14_12 H 0.5311 0.3474 0.4524
C15_12 C 0.53137(17) 0.38442(16) 0.40062(11)
C16_12 C 0.56055(18) 0.37908(18) 0.36668(11)
H15_12 H 0.5770 0.3450 0.3621
C17_12 C 0.56772(16) 0.41846(15) 0.33922(11)
C18_12 C 0.59763(17) 0.40375(16) 0.30407(11)
C19_12 C 0.63486(17) 0.36095(18) 0.30252(12)
H16_12 H 0.6415 0.3397 0.3243
C20_12 C 0.66193(17) 0.34954(18) 0.26928(11)
H17_12 H 0.6873 0.3208 0.2683
C21_12 C 0.65185(16) 0.38017(17) 0.23755(11)
C22_12 C 0.61508(17) 0.42229(17) 0.23810(11)
H18_12 H 0.6081 0.4429 0.2161
C23_12 C 0.58852(17) 0.43367(17) 0.27167(11)
H19_12 H 0.5634 0.4627 0.2724
C24_12 C 0.69536(15) 0.40278(15) 0.17519(10)
H20_12 H 0.6907 0.4409 0.1748
C25_12 C 0.71932(15) 0.37211(15) 0.14854(10)
H21_12 H 0.7345 0.3855 0.1258
C26_12 C 0.69409(16) 0.31729(16) 0.19193(11)
H22_12 H 0.6878 0.2853 0.2060
N1_12 N 0.78202(13) 0.18154(13) 0.10126(9)
N2_12 N 0.81996(13) 0.13220(13) 0.05710(9)
N3_12 N 0.71853(13) 0.31882(13) 0.15914(9)
N4_12 N 0.67911(13) 0.36761(13) 0.20297(9)
O5_8 O 0.67821(11) 0.24278(11) 0.09961(7)
O6_8 O 0.71802(10) 0.20055(10) 0.17103(7)
C1_12 C 0.5868(2) 0.2231(2) 0.08512(14)
H1_12 H 0.5964 0.2111 0.0597
H2_12 H 0.5580 0.1999 0.0951
H3_12 H 0.5741 0.2606 0.0842
C2_12 C 0.63608(17) 0.21939(18) 0.11042(12)
C3_12 C 0.63057(19) 0.18987(18) 0.14453(12)
H4_12 H 0.5964 0.1736 0.1491
C4_12 C 0.66991(15) 0.18252(16) 0.17167(11)
C5_12 C 0.65532(16) 0.15184(16) 0.20659(10)
C6_12 C 0.61382(18) 0.11388(18) 0.20749(11)
H5_12 H 0.5937 0.1065 0.1853
C7_12 C 0.60153(19) 0.08671(19) 0.24057(12)
H6_12 H 0.5729 0.0611 0.2411
C8_13 C 0.63109(16) 0.09713(17) 0.27281(10)
C9_13 C 0.67265(16) 0.13517(16) 0.27266(11)
H7_13 H 0.6924 0.1427 0.2950
C10_12 C 0.68475(16) 0.16195(16) 0.23938(11)
H8_12 H 0.7134 0.1875 0.2389
C11_13 C 0.65287(16) 0.05284(17) 0.33461(11)
H9_13 H 0.6911 0.0566 0.3348
C12_13 C 0.62179(16) 0.02955(17) 0.36126(11)
H10_13 H 0.6351 0.0137 0.3838
C13_13 C 0.56731(16) 0.05664(16) 0.31845(11)
H11_13 H 0.5353 0.0640 0.3046
N1_13 N 0.56846(13) 0.03202(13) 0.35126(9)
N2_13 N 0.61780(13) 0.06996(13) 0.30710(9)
O7_7 O 0.49267(11) 0.07326(10) 0.41140(7)
O8_7 O 0.45037(10) 0.03346(10) 0.33984(7)
C14_13 C 0.4143(2) 0.77760(17) 0.67617(13)
H12_12 H 0.4320 0.7425 0.6726
H13_13 H 0.4397 0.8067 0.6701
H14_13 H 0.4026 0.7811 0.7024
C15_13 C 0.36558(16) 0.78137(17) 0.65062(11)
C16_13 C 0.37092(18) 0.81055(18) 0.61668(11)
H15_13 H 0.4050 0.8270 0.6121
C17_13 C 0.33154(15) 0.81772(16) 0.58922(11)
C18_13 C 0.34625(16) 0.84763(17) 0.55407(11)
C19_13 C 0.38905(18) 0.88486(17) 0.55252(12)
H16_13 H 0.4103 0.8915 0.5743
C20_13 C 0.40046(18) 0.91193(17) 0.51928(11)
H17_13 H 0.4292 0.9373 0.5183
C21_13 C 0.36983(17) 0.90185(16) 0.48755(11)
C22_13 C 0.32771(17) 0.86508(17) 0.48810(11)
H18_13 H 0.3071 0.8581 0.4661
C23_13 C 0.31633(17) 0.83852(17) 0.52167(11)
H19_13 H 0.2873 0.8134 0.5224
C24_13 C 0.34722(15) 0.94536(15) 0.42519(10)
H20_13 H 0.3091 0.9407 0.4248
C25_13 C 0.37789(15) 0.96932(15) 0.39854(10)
H21_13 H 0.3645 0.9845 0.3758
C26_13 C 0.43271(16) 0.94409(16) 0.44193(11)
H22_13 H 0.4647 0.9378 0.4560
N3_13 N 0.43118(13) 0.96853(13) 0.40914(9)
N4_13 N 0.38239(13) 0.92911(13) 0.45297(9)
O3_7 O 0.32326(10) 0.75733(11) 0.66140(7)
O4_7 O 0.28346(10) 0.79963(10) 0.58984(7)
C14_14 C 0.0857(2) 0.22240(17) 0.17617(13)
H12_13 H 0.0680 0.2575 0.1726
H13_14 H 0.0603 0.1933 0.1701
H14_14 H 0.0974 0.2189 0.2024
C15_14 C 0.13442(16) 0.21863(17) 0.15062(11)
C16_14 C 0.12908(18) 0.18945(18) 0.11668(11)
H15_14 H 0.0950 0.1730 0.1121
C17_14 C 0.16846(15) 0.18228(16) 0.08922(11)
C18_14 C 0.15375(16) 0.15237(17) 0.05407(11)
C19_14 C 0.11095(18) 0.11514(17) 0.05252(12)
H16_14 H 0.0897 0.1085 0.0743
C20_14 C 0.09954(18) 0.08807(17) 0.01928(11)
H17_14 H 0.0708 0.0627 0.0183
C23_14 C 0.18367(17) 0.16148(17) 0.02167(11)
H19_14 H 0.2127 0.1866 0.0224
O3_8 O 0.17674(10) 0.24267(11) 0.16140(7)
O4_8 O 0.21654(10) 0.20037(10) 0.08984(7)
O7_8 O 0.00733(11) 0.92674(10) 0.91140(7)
O8_8 O 0.04963(10) 0.96654(10) 0.83984(7)
C1_13 C 0.9132(2) 0.7769(2) 0.58512(14)
H1_13 H 0.9036 0.7889 0.5597
H2_13 H 0.9420 0.8001 0.5951
H3_13 H 0.9259 0.7394 0.5842
C2_13 C 0.86392(17) 0.78061(18) 0.61042(12)
C3_13 C 0.86943(19) 0.81013(18) 0.64453(12)
H4_13 H 0.9036 0.8264 0.6491
C4_13 C 0.83009(15) 0.81748(16) 0.67167(11)
C5_13 C 0.84468(16) 0.84816(16) 0.70659(10)
C6_13 C 0.88618(18) 0.88612(18) 0.70749(11)
H5_13 H 0.9063 0.8935 0.6853
C7_13 C 0.89847(19) 0.91329(19) 0.74057(12)
H6_13 H 0.9271 0.9389 0.7411
C8_14 C 0.86891(16) 0.90287(17) 0.77281(10)
C9_14 C 0.82735(16) 0.86483(16) 0.77266(11)
H7_14 H 0.8076 0.8573 0.7950
C10_13 C 0.81525(16) 0.83805(16) 0.73938(11)
H8_13 H 0.7866 0.8125 0.7389
C11_14 C 0.84713(16) 0.94716(17) 0.83461(11)
H9_14 H 0.8089 0.9434 0.8348
C12_14 C 0.87821(16) 0.97045(17) 0.86126(11)
H10_14 H 0.8649 0.9863 0.8838
C13_14 C 0.93269(16) 0.94336(16) 0.81845(11)
H11_14 H 0.9647 0.9360 0.8046
N1_14 N 0.93154(13) 0.96798(13) 0.85126(9)
N2_14 N 0.88220(13) 0.93004(13) 0.80710(9)
C8_15 C 0.15287(17) 0.38109(16) 0.02281(10)
C9_15 C 0.11483(16) 0.42265(16) 0.02266(11)
H7_15 H 0.1073 0.4424 0.0450
C11_15 C 0.19716(17) 0.40287(16) 0.08461(11)
H9_15 H 0.1934 0.4411 0.0848
C12_15 C 0.22045(17) 0.37179(16) 0.11126(11)
H10_15 H 0.2363 0.3851 0.1338
C13_15 C 0.19336(16) 0.31731(16) 0.06845(11)
H11_15 H 0.1860 0.2853 0.0546
C14_15 C 0.47240(17) 0.1643(2) 0.42617(13)
H12_14 H 0.5075 0.1820 0.4226
H13_15 H 0.4433 0.1897 0.4201
H14_15 H 0.4689 0.1526 0.4524
C15_15 C 0.46863(17) 0.11558(16) 0.40062(11)
C16_15 C 0.43945(18) 0.12092(18) 0.36668(11)
H15_15 H 0.4230 0.1550 0.3621
C17_15 C 0.43228(16) 0.08154(15) 0.33922(11)
C18_15 C 0.40237(17) 0.09625(16) 0.30407(11)
C19_15 C 0.36514(17) 0.13905(18) 0.30252(12)
H16_15 H 0.3585 0.1603 0.3243
C20_15 C 0.33807(17) 0.15046(18) 0.26928(11)
H17_15 H 0.3127 0.1792 0.2683
C21_14 C 0.34815(16) 0.11983(17) 0.23755(11)
C22_14 C 0.38492(17) 0.07771(17) 0.23810(11)
H18_14 H 0.3919 0.0571 0.2161
C23_15 C 0.41148(17) 0.06633(17) 0.27167(11)
H19_15 H 0.4366 0.0373 0.2724
C24_14 C 0.30464(15) 0.09722(15) 0.17519(10)
H20_14 H 0.3093 0.0591 0.1748
C25_14 C 0.28068(15) 0.12789(15) 0.14854(10)
H21_14 H 0.2655 0.1145 0.1258
C26_14 C 0.30591(16) 0.18271(16) 0.19193(11)
H22_14 H 0.3122 0.2147 0.2060
N1_15 N 0.21798(13) 0.31846(13) 0.10126(9)
N2_15 N 0.18004(13) 0.36780(13) 0.05710(9)
N3_14 N 0.28147(13) 0.18118(13) 0.15914(9)
N4_14 N 0.32089(13) 0.13239(13) 0.20297(9)
C1_14 C 0.0269(2) 0.3368(2) 0.83512(14)
H1_14 H 0.0389 0.3464 0.8097
H2_14 H 0.0501 0.3080 0.8451
C2_14 C 0.03061(18) 0.38608(17) 0.86042(12)
C3_14 C 0.06013(18) 0.38057(19) 0.89453(12)
H4_14 H 0.0764 0.3464 0.8991
C4_14 C 0.06748(16) 0.41991(15) 0.92167(11)
C5_14 C 0.09816(16) 0.40532(16) 0.95659(10)
C6_14 C 0.13612(18) 0.36382(18) 0.95749(11)
H5_14 H 0.1435 0.3437 0.9353
C7_14 C 0.16329(19) 0.35153(19) 0.99057(12)
H6_14 H 0.1889 0.3229 0.9911
C10_14 C 0.08805(16) 0.43475(16) 0.98938(11)
H8_14 H 0.0625 0.4634 0.9889
H3_14 H 0.9894 0.3241 0.8342
C1_15 C 0.4731(2) 0.6632(2) 0.33512(14)
H1_15 H 0.4611 0.6536 0.3097
H2_15 H 0.4499 0.6920 0.3451
H3_15 H 0.5106 0.6759 0.3342
C2_15 C 0.46939(18) 0.61392(17) 0.36042(12)
C3_15 C 0.43987(18) 0.61943(19) 0.39453(12)
H4_15 H 0.4236 0.6536 0.3991
C4_15 C 0.43252(16) 0.58009(15) 0.42167(11)
C5_15 C 0.40184(16) 0.59468(16) 0.45659(10)
C6_15 C 0.36388(18) 0.63618(18) 0.45749(11)
H5_15 H 0.3565 0.6563 0.4353
C7_15 C 0.33671(19) 0.64847(19) 0.49057(12)
H6_15 H 0.3111 0.6771 0.4911
C8_16 C 0.34713(17) 0.61891(16) 0.52281(10)
C9_16 C 0.38517(16) 0.57735(16) 0.52266(11)
H7_16 H 0.3927 0.5576 0.5450
C10_15 C 0.41195(16) 0.56525(16) 0.48938(11)
H8_15 H 0.4375 0.5366 0.4889
C11_16 C 0.30284(17) 0.59713(16) 0.58461(11)
H9_16 H 0.3066 0.5589 0.5848
C12_16 C 0.27955(17) 0.62821(16) 0.61126(11)
H10_16 H 0.2637 0.6149 0.6338
C13_16 C 0.30664(16) 0.68269(16) 0.56845(11)
H11_16 H 0.3140 0.7147 0.5546
C14_16 C 0.02760(17) 0.8357(2) 0.92617(13)
H13_16 H 0.0567 0.8103 0.9201
H14_16 H 0.0311 0.8474 0.9524
C15_16 C 0.03137(17) 0.88442(16) 0.90062(11)
C16_16 C 0.06055(18) 0.87908(18) 0.86668(11)
H15_16 H 0.0770 0.8450 0.8621
C17_16 C 0.06772(16) 0.91846(15) 0.83922(11)
C18_16 C 0.09763(17) 0.90375(16) 0.80407(11)
C19_16 C 0.13486(17) 0.86095(18) 0.80252(12)
H16_16 H 0.1415 0.8397 0.8243
C20_16 C 0.16193(17) 0.84954(18) 0.76928(11)
H17_16 H 0.1873 0.8208 0.7683
C21_15 C 0.15185(16) 0.88017(17) 0.73755(11)
C22_15 C 0.11508(17) 0.92229(17) 0.73810(11)
H18_15 H 0.1081 0.9429 0.7161
C23_16 C 0.08852(17) 0.93367(17) 0.77167(11)
H19_16 H 0.0634 0.9627 0.7724
C24_15 C 0.19536(15) 0.90278(15) 0.67519(10)
H20_15 H 0.1907 0.9409 0.6748
C25_15 C 0.21932(15) 0.87211(15) 0.64854(10)
H21_15 H 0.2345 0.8855 0.6258
C26_15 C 0.19409(16) 0.81729(16) 0.69193(11)
H22_15 H 0.1878 0.7853 0.7060
N1_16 N 0.28202(13) 0.68154(13) 0.60126(9)
N2_16 N 0.31996(13) 0.63220(13) 0.55710(9)
N3_15 N 0.21853(13) 0.81882(13) 0.65914(9)
N4_15 N 0.17911(13) 0.86761(13) 0.70297(9)
H12_15 H 0.0075 0.6820 0.9226
H3_16 H 0.0106 0.1759 0.8342
C1_16 C 0.9731(2) 0.1632(2) 0.83512(14)
H1_16 H 0.9611 0.1536 0.8097
H2_16 H 0.9499 0.1920 0.8451
C2_16 C 0.96939(18) 0.11392(17) 0.86042(12)
C3_16 C 0.93987(18) 0.11943(19) 0.89453(12)
H4_16 H 0.9236 0.1536 0.8991
C4_16 C 0.93252(16) 0.08009(15) 0.92167(11)
C5_16 C 0.90184(16) 0.09468(16) 0.95659(10)
C6_16 C 0.86388(18) 0.13618(18) 0.95749(11)
H5_16 H 0.8565 0.1563 0.9353
C7_16 C 0.83671(19) 0.14847(19) 0.99057(12)
H6_16 H 0.8111 0.1771 0.9911
C10_16 C 0.91195(16) 0.06525(16) 0.98938(11)
H8_16 H 0.9375 0.0366 0.9889
O1_8 O 0.99278(11) 0.07179(11) 0.84961(7)
O2_8 O 0.95055(10) 0.03198(10) 0.92103(7)
C21_16 C 0.13017(17) 0.09815(16) 0.98755(11)
C22_16 C 0.17229(17) 0.13492(17) 0.98810(11)
H18_16 H 0.1929 0.1419 0.9661
C24_16 C 0.15278(15) 0.05464(15) 0.92519(10)
H20_16 H 0.1909 0.0593 0.9248
C25_16 C 0.12211(15) 0.03068(15) 0.89854(10)
H21_16 H 0.1355 0.0155 0.8758
C26_16 C 0.06729(16) 0.05591(16) 0.94193(11)
H22_16 H 0.0353 0.0622 0.9560
N3_16 N 0.06882(13) 0.03147(13) 0.90914(9)
N4_16 N 0.11761(13) 0.07089(13) 0.95297(9)
H12_16 H 0.9925 0.8180 0.9226
Zn5 Zn 0.00070(2) 0.00146(2) 0.356265(16)
Zn4 Zn 0.24854(2) 0.75070(2) 0.106265(16)
C27 C 0.0449(3) 0.8455(3) 0.40861(15)
H23 H 0.0717 0.8191 0.4001
H24 H 0.0096 0.8279 0.4111
H25 H 0.0559 0.8602 0.4330
C28 C 0.0409(2) 0.8908(2) 0.38042(13)
C29 C 0.0711(2) 0.8850(2) 0.34676(13)
H26 H 0.0920 0.8530 0.3441
C30 C 0.0726(2) 0.9218(2) 0.31750(13)
C31 C 0.1034(3) 0.9067(2) 0.28239(14)
C32 C 0.1427(4) 0.8657(3) 0.28122(16)
H27 H 0.1510 0.8458 0.3033
C33 C 0.1695(3) 0.8539(3) 0.24781(16)
H28 H 0.1967 0.8269 0.2472
C34 C 0.1562(2) 0.8817(2) 0.21565(13)
C35 C 0.11775(19) 0.92263(19) 0.21592(13)
H29 H 0.1095 0.9420 0.1936
C36 C 0.0915(2) 0.9347(2) 0.24958(13)
H30 H 0.0651 0.9625 0.2501
C37 C 0.20456(19) 0.90416(19) 0.15531(13)
H31 H 0.2044 0.9425 0.1565
C38 C 0.2262(2) 0.87280(19) 0.12785(13)
H32 H 0.2447 0.8860 0.1063
C39 C 0.1919(2) 0.8184(2) 0.16799(14)
H33 H 0.1813 0.7862 0.1805
H39 H 0.3992 0.5636 0.0211
C50 C 0.3130(2) 0.6007(2) 0.06357(13)
H42 H 0.3211 0.5632 0.0650
C51 C 0.2885(2) 0.63100(18) 0.08995(12)
H43 H 0.2759 0.6181 0.1135
C52 C 0.30659(19) 0.68472(19) 0.04413(12)
H44 H 0.3098 0.7163 0.0291
N5 N 0.21735(18) 0.81981(15) 0.13563(11)
N6 N 0.18286(17) 0.86852(17) 0.18107(10)
N7 N 0.28446(15) 0.68338(14) 0.07766(9)
N8 N 0.32422(19) 0.63512(17) 0.03397(11)
O9 O 0.01120(14) 0.93008(13) 0.38854(9)
O10 O 0.05043(13) 0.96787(12) 0.31600(8)
O13 O 0.31992(13) 0.76120(14) 0.13854(9)
O14 O 0.28213(12) 0.80043(13) 0.06600(8)
O15 O 0.17711(12) 0.74273(13) 0.07511(9)
O16 O 0.21655(12) 0.70007(12) 0.14616(8)
C40 C 0.4735(2) 0.6643(2) 0.81018(14)
H34 H 0.5084 0.6821 0.8142
H35 H 0.4442 0.6897 0.8159
H36 H 0.4707 0.6526 0.7839
C41 C 0.46908(19) 0.61554(18) 0.83578(12)
C42 C 0.4394(2) 0.6210(2) 0.86917(12)
H37 H 0.4225 0.6550 0.8734
C43 C 0.4322(2) 0.58170(17) 0.89687(12)
C44 C 0.4025(2) 0.5961(2) 0.93214(13)
C45 C 0.4138(3) 0.5677(3) 0.96487(14)
H38 H 0.4386 0.5384 0.9642
C46 C 0.3893(3) 0.5816(3) 0.99858(15)
C47 C 0.3504(3) 0.6217(2) 0.99916(13)
C48 C 0.3377(2) 0.6502(2) 0.96681(13)
H40 H 0.3110 0.6778 0.9674
C49 C 0.3638(2) 0.63800(19) 0.93373(12)
H41 H 0.3557 0.6581 0.9117
O11 O 0.49273(13) 0.57289(12) 0.82511(9)
O12 O 0.45007(12) 0.53345(12) 0.89616(8)
Zn6 Zn 0.50070(2) 0.50146(2) 0.856265(16)
Zn4_2 Zn 0.25146(2) 0.24930(2) 0.606265(16)
C27_2 C 0.4551(3) 0.1545(3) 0.90861(15)
H23_2 H 0.4283 0.1809 0.9001
H24_2 H 0.4904 0.1721 0.9111
H25_2 H 0.4441 0.1398 0.9330
C28_2 C 0.4591(2) 0.1092(2) 0.88042(13)
C29_2 C 0.4289(2) 0.1150(2) 0.84676(13)
H26_2 H 0.4080 0.1470 0.8441
C30_2 C 0.4274(2) 0.0782(2) 0.81750(13)
C31_2 C 0.3966(3) 0.0933(2) 0.78239(14)
C32_2 C 0.3573(4) 0.1343(3) 0.78122(16)
H27_2 H 0.3490 0.1542 0.8033
C33_2 C 0.3305(3) 0.1461(3) 0.74781(16)
H28_2 H 0.3033 0.1731 0.7472
C34_2 C 0.3438(2) 0.1183(2) 0.71565(13)
C35_2 C 0.38225(19) 0.07737(19) 0.71592(13)
H29_2 H 0.3905 0.0580 0.6936
C36_2 C 0.4085(2) 0.0653(2) 0.74958(13)
H30_2 H 0.4349 0.0375 0.7501
C37_2 C 0.29544(19) 0.09584(19) 0.65531(13)
H31_2 H 0.2956 0.0575 0.6565
C38_2 C 0.2738(2) 0.12720(19) 0.62785(13)
H32_2 H 0.2553 0.1140 0.6063
C39_2 C 0.3081(2) 0.1816(2) 0.66799(14)
H33_2 H 0.3187 0.2138 0.6805
C40_2 C 0.0265(2) 0.3357(2) 0.31018(14)
H35_2 H 0.0558 0.3103 0.3159
H36_2 H 0.0293 0.3474 0.2839
C41_2 C 0.03092(19) 0.38446(18) 0.33578(12)
C42_2 C 0.0606(2) 0.3790(2) 0.36917(12)
H37_2 H 0.0775 0.3450 0.3734
C43_2 C 0.0678(2) 0.41830(17) 0.39687(12)
C44_2 C 0.0975(2) 0.4039(2) 0.43214(13)
C45_2 C 0.0862(3) 0.4323(3) 0.46487(14)
H38_2 H 0.0614 0.4616 0.4642
C46_2 C 0.1107(3) 0.4184(3) 0.49858(15)
H39_2 H 0.1008 0.4364 0.5211
C47_2 C 0.1496(3) 0.3783(2) 0.49916(13)
C48_2 C 0.1623(2) 0.3498(2) 0.46681(13)
H40_2 H 0.1890 0.3222 0.4674
C49_2 C 0.1362(2) 0.36200(19) 0.43373(12)
H41_2 H 0.1443 0.3419 0.4117
C50_2 C 0.1870(2) 0.3993(2) 0.56357(13)
H42_2 H 0.1789 0.4368 0.5650
C51_2 C 0.2115(2) 0.36900(18) 0.58995(12)
H43_2 H 0.2241 0.3819 0.6135
C52_2 C 0.19341(19) 0.31528(19) 0.54413(12)
H44_2 H 0.1902 0.2837 0.5291
N5_2 N 0.28265(18) 0.18019(15) 0.63563(11)
N6_2 N 0.31714(17) 0.13148(17) 0.68107(10)
N7_2 N 0.21554(15) 0.31662(14) 0.57766(9)
N8_2 N 0.17578(19) 0.36488(17) 0.53397(11)
O9_2 O 0.48880(14) 0.06992(13) 0.88854(9)
O10_2 O 0.44957(13) 0.03213(12) 0.81600(8)
O11_2 O 0.00727(13) 0.42711(12) 0.32511(9)
O12_2 O 0.04993(12) 0.46655(12) 0.39616(8)
O13_2 O 0.18008(13) 0.23880(14) 0.63854(9)
O14_2 O 0.21787(12) 0.19957(13) 0.56600(8)
O15_2 O 0.32289(12) 0.25727(13) 0.57511(9)
O16_2 O 0.28345(12) 0.29993(12) 0.64616(8)
H34_2 H 0.9916 0.3179 0.3142
Zn6_2 Zn 0.99930(2) 0.49854(2) 0.356265(16)
C40_3 C 0.0857(2) 0.7235(2) 0.06018(14)
H34_3 H 0.0679 0.7584 0.0642
H35_3 H 0.0603 0.6942 0.0659
H36_3 H 0.0974 0.7207 0.0339
C41_3 C 0.13446(18) 0.71908(19) 0.08578(12)
C42_3 C 0.1290(2) 0.6894(2) 0.11917(12)
H37_3 H 0.0950 0.6725 0.1234
C43_3 C 0.16830(17) 0.6822(2) 0.14687(12)
C44_3 C 0.1539(2) 0.6525(2) 0.18214(13)
C45_3 C 0.1823(3) 0.6638(3) 0.21487(14)
H38_3 H 0.2116 0.6886 0.2142
C46_3 C 0.1684(3) 0.6393(3) 0.24858(15)
H39_3 H 0.1864 0.6492 0.2711
C47_3 C 0.1283(2) 0.6004(3) 0.24916(13)
C48_3 C 0.0998(2) 0.5877(2) 0.21681(13)
H40_3 H 0.0722 0.5610 0.2174
C49_3 C 0.11200(19) 0.6138(2) 0.18373(12)
H41_3 H 0.0919 0.6057 0.1617
C50_3 C 0.1493(2) 0.5630(2) 0.31357(13)
H42_3 H 0.1868 0.5711 0.3150
C51_3 C 0.11900(18) 0.5385(2) 0.33995(12)
H43_3 H 0.1319 0.5259 0.3635
C52_3 C 0.06528(19) 0.55659(19) 0.29413(12)
H44_3 H 0.0337 0.5598 0.2791
N7_3 N 0.06662(14) 0.53446(15) 0.32766(9)
N8_3 N 0.11488(17) 0.57422(19) 0.28397(11)
C27_3 C 0.9045(3) 0.2949(3) 0.65861(15)
H23_3 H 0.9309 0.3217 0.6501
H24_3 H 0.9221 0.2596 0.6611
H25_3 H 0.8898 0.3059 0.6830
C28_3 C 0.8592(2) 0.2909(2) 0.63042(13)
C29_3 C 0.8650(2) 0.3211(2) 0.59676(13)
H26_3 H 0.8970 0.3420 0.5941
C30_3 C 0.8282(2) 0.3226(2) 0.56750(13)
C31_3 C 0.8433(2) 0.3534(3) 0.53239(14)
C32_3 C 0.8843(3) 0.3927(4) 0.53122(16)
H27_3 H 0.9042 0.4010 0.5533
C33_3 C 0.8961(3) 0.4195(3) 0.49781(16)
H28_3 H 0.9231 0.4467 0.4972
C34_3 C 0.8683(2) 0.4062(2) 0.46565(13)
C35_3 C 0.82737(19) 0.36775(19) 0.46592(13)
H29_3 H 0.8080 0.3595 0.4436
C36_3 C 0.8153(2) 0.3415(2) 0.49958(13)
H30_3 H 0.7875 0.3151 0.5001
C37_3 C 0.84584(19) 0.45456(19) 0.40531(13)
H31_3 H 0.8075 0.4544 0.4065
C38_3 C 0.87720(19) 0.4762(2) 0.37785(13)
H32_3 H 0.8640 0.4947 0.3563
C39_3 C 0.9316(2) 0.4419(2) 0.41799(14)
H33_3 H 0.9638 0.4313 0.4305
N5_3 N 0.93019(15) 0.46735(18) 0.38563(11)
N6_3 N 0.88148(17) 0.43286(17) 0.43107(10)
O9_3 O 0.81992(13) 0.26120(14) 0.63854(9)
O10_3 O 0.78213(12) 0.30043(13) 0.56600(8)
Zn5_2 Zn 0.74854(2) 0.25070(2) 0.606265(16)
O13_3 O 0.98880(14) 0.56992(13) 0.38854(9)
O14_3 O 0.94957(13) 0.53213(12) 0.31600(8)
C27_4 C 0.5955(3) 0.7051(3) 0.15861(15)
H23_4 H 0.5691 0.6783 0.1501
H24_4 H 0.5779 0.7404 0.1611
H25_4 H 0.6102 0.6941 0.1830
C28_4 C 0.6408(2) 0.7091(2) 0.13042(13)
C29_4 C 0.6350(2) 0.6789(2) 0.09676(13)
H26_4 H 0.6030 0.6580 0.0941
C30_4 C 0.6718(2) 0.6774(2) 0.06750(13)
C31_4 C 0.6567(2) 0.6466(3) 0.03239(14)
C32_4 C 0.6157(3) 0.6073(4) 0.03122(16)
H27_4 H 0.5958 0.5990 0.0533
H30_4 H 0.7125 0.6849 0.0001
O9_4 O 0.68008(13) 0.73880(14) 0.13854(9)
O10_4 O 0.71787(12) 0.69957(13) 0.06600(8)
Zn5_3 Zn 0.75146(2) 0.74930(2) 0.106265(16)
C33_4 C 0.6039(3) 0.5805(3) 0.99781(16)
H28_4 H 0.5769 0.5533 0.9972
C34_4 C 0.6317(2) 0.5938(2) 0.96565(13)
C35_4 C 0.67263(19) 0.63225(19) 0.96592(13)
H29_4 H 0.6920 0.6405 0.9436
C36_4 C 0.6847(2) 0.6585(2) 0.99958(13)
C37_4 C 0.65416(19) 0.54544(19) 0.90531(13)
H31_4 H 0.6925 0.5456 0.9065
C38_4 C 0.62280(19) 0.5238(2) 0.87785(13)
H32_4 H 0.6360 0.5053 0.8563
C39_4 C 0.5684(2) 0.5581(2) 0.91799(14)
H33_4 H 0.5362 0.5687 0.9305
C40_4 C 0.4143(2) 0.2765(2) 0.56018(14)
H34_4 H 0.4321 0.2416 0.5642
H35_4 H 0.4397 0.3058 0.5659
H36_4 H 0.4026 0.2793 0.5339
C41_4 C 0.36554(18) 0.28092(19) 0.58578(12)
C42_4 C 0.3710(2) 0.3106(2) 0.61917(12)
H37_4 H 0.4050 0.3275 0.6234
C43_4 C 0.33170(17) 0.3178(2) 0.64687(12)
C44_4 C 0.3461(2) 0.3475(2) 0.68214(13)
C45_4 C 0.3177(3) 0.3362(3) 0.71487(14)
H38_4 H 0.2884 0.3114 0.7142
C46_4 C 0.3316(3) 0.3607(3) 0.74858(15)
H39_4 H 0.3136 0.3508 0.7711
C47_4 C 0.3717(2) 0.3996(3) 0.74916(13)
C48_4 C 0.4002(2) 0.4123(2) 0.71681(13)
H40_4 H 0.4278 0.4390 0.7174
C49_4 C 0.38800(19) 0.3862(2) 0.68373(12)
H41_4 H 0.4081 0.3943 0.6617
C50_4 C 0.3507(2) 0.4370(2) 0.81357(13)
H42_4 H 0.3132 0.4289 0.8150
C51_4 C 0.38100(18) 0.4615(2) 0.83995(12)
H43_4 H 0.3681 0.4741 0.8635
C52_4 C 0.43472(19) 0.44341(19) 0.79413(12)
H44_4 H 0.4663 0.4402 0.7791
N5_4 N 0.56981(15) 0.53265(18) 0.88563(11)
N6_4 N 0.61852(17) 0.56714(17) 0.93107(10)
N7_4 N 0.43338(14) 0.46554(15) 0.82766(9)
N8_4 N 0.38512(17) 0.42578(19) 0.78397(11)
O13_4 O 0.51120(14) 0.43008(13) 0.88854(9)
O14_4 O 0.55043(13) 0.46787(12) 0.81600(8)
H34_5 H 0.0084 0.1821 0.3142
C27_5 C 0.5449(3) 0.3455(3) 0.90861(15)
H23_5 H 0.5717 0.3191 0.9001
H24_5 H 0.5096 0.3279 0.9111
H25_5 H 0.5559 0.3602 0.9330
C28_5 C 0.5409(2) 0.3908(2) 0.88042(13)
C29_5 C 0.5711(2) 0.3850(2) 0.84676(13)
H26_5 H 0.5920 0.3530 0.8441
C30_5 C 0.5726(2) 0.4218(2) 0.81750(13)
C31_5 C 0.6034(3) 0.4067(2) 0.78239(14)
C32_5 C 0.6427(4) 0.3657(3) 0.78122(16)
H27_5 H 0.6510 0.3458 0.8033
C33_5 C 0.6695(3) 0.3539(3) 0.74781(16)
H28_5 H 0.6967 0.3269 0.7472
C34_5 C 0.6562(2) 0.3817(2) 0.71565(13)
C35_5 C 0.61775(19) 0.42263(19) 0.71592(13)
H29_5 H 0.6095 0.4420 0.6936
C36_5 C 0.5915(2) 0.4347(2) 0.74958(13)
H30_5 H 0.5651 0.4625 0.7501
C37_5 C 0.70456(19) 0.40416(19) 0.65531(13)
H31_5 H 0.7044 0.4425 0.6565
C38_5 C 0.7262(2) 0.37280(19) 0.62785(13)
H32_5 H 0.7447 0.3860 0.6063
C39_5 C 0.6919(2) 0.3184(2) 0.66799(14)
H33_5 H 0.6813 0.2862 0.6805
C40_5 C 0.9735(2) 0.1643(2) 0.31018(14)
H35_5 H 0.9442 0.1897 0.3159
H36_5 H 0.9707 0.1526 0.2839
C41_5 C 0.96908(19) 0.11554(18) 0.33578(12)
C42_5 C 0.9394(2) 0.1210(2) 0.36917(12)
H37_5 H 0.9225 0.1550 0.3734
C43_5 C 0.9322(2) 0.08170(17) 0.39687(12)
C44_5 C 0.9025(2) 0.0961(2) 0.43214(13)
C45_5 C 0.9138(3) 0.0677(3) 0.46487(14)
H38_5 H 0.9386 0.0384 0.4642
C46_5 C 0.8893(3) 0.0816(3) 0.49858(15)
H39_5 H 0.8992 0.0636 0.5211
C47_5 C 0.8504(3) 0.1217(2) 0.49916(13)
C48_5 C 0.8377(2) 0.1502(2) 0.46681(13)
H40_5 H 0.8110 0.1778 0.4674
C49_5 C 0.8638(2) 0.13800(19) 0.43373(12)
H41_5 H 0.8557 0.1581 0.4117
C50_5 C 0.8130(2) 0.1007(2) 0.56357(13)
H42_5 H 0.8211 0.0632 0.5650
C51_5 C 0.7885(2) 0.13100(18) 0.58995(12)
H43_5 H 0.7759 0.1181 0.6135
C52_5 C 0.80659(19) 0.18472(19) 0.54413(12)
H44_5 H 0.8098 0.2163 0.5291
N5_5 N 0.71735(18) 0.31981(15) 0.63563(11)
N6_5 N 0.68286(17) 0.36852(17) 0.68107(10)
N7_5 N 0.78446(15) 0.18338(14) 0.57766(9)
N8_5 N 0.82422(19) 0.13512(17) 0.53397(11)
O11_3 O 0.99273(13) 0.07289(12) 0.32511(9)
O12_3 O 0.95007(12) 0.03345(12) 0.39616(8)
O15_3 O 0.67711(12) 0.24273(13) 0.57511(9)
O16_3 O 0.71655(12) 0.20007(12) 0.64616(8)
C27_6 C 0.9551(3) 0.6545(3) 0.40861(15)
H23_6 H 0.9283 0.6809 0.4001
H24_6 H 0.9904 0.6721 0.4111
H25_6 H 0.9441 0.6398 0.4330
C28_6 C 0.9591(2) 0.6092(2) 0.38042(13)
C29_6 C 0.9289(2) 0.6150(2) 0.34676(13)
H26_6 H 0.9080 0.6470 0.3441
C30_6 C 0.9274(2) 0.5782(2) 0.31750(13)
C31_6 C 0.8966(3) 0.5933(2) 0.28239(14)
C32_6 C 0.8573(4) 0.6343(3) 0.28122(16)
H27_6 H 0.8490 0.6542 0.3033
C33_6 C 0.8305(3) 0.6461(3) 0.24781(16)
H28_6 H 0.8033 0.6731 0.2472
C34_6 C 0.8438(2) 0.6183(2) 0.21565(13)
C35_6 C 0.88225(19) 0.57737(19) 0.21592(13)
H29_6 H 0.8905 0.5580 0.1936
C36_6 C 0.9085(2) 0.5653(2) 0.24958(13)
H30_6 H 0.9349 0.5375 0.2501
C37_6 C 0.79544(19) 0.59584(19) 0.15531(13)
H31_6 H 0.7956 0.5575 0.1565
C38_6 C 0.7738(2) 0.62720(19) 0.12785(13)
H32_6 H 0.7553 0.6140 0.1063
C39_6 C 0.8081(2) 0.6816(2) 0.16799(14)
H33_6 H 0.8187 0.7138 0.1805
H39_6 H 0.6008 0.9364 0.0211
C50_6 C 0.6870(2) 0.8993(2) 0.06357(13)
H42_6 H 0.6789 0.9368 0.0650
C51_6 C 0.7115(2) 0.86900(18) 0.08995(12)
H43_6 H 0.7241 0.8819 0.1135
C52_6 C 0.69341(19) 0.81528(19) 0.04413(12)
H44_6 H 0.6902 0.7837 0.0291
N5_6 N 0.78265(18) 0.68019(15) 0.13563(11)
N6_6 N 0.81714(17) 0.63148(17) 0.18107(10)
N7_6 N 0.71554(15) 0.81662(14) 0.07766(9)
N8_6 N 0.67578(19) 0.86488(17) 0.03397(11)
O15_4 O 0.82289(12) 0.75727(13) 0.07511(9)
O16_4 O 0.78345(12) 0.79993(12) 0.14616(8)
C40_6 C 0.5857(2) 0.2235(2) 0.56018(14)
H34_6 H 0.5679 0.2584 0.5642
H35_6 H 0.5603 0.1942 0.5659
H36_6 H 0.5974 0.2207 0.5339
C41_6 C 0.63446(18) 0.21908(19) 0.58578(12)
C42_6 C 0.6290(2) 0.1894(2) 0.61917(12)
H37_6 H 0.5950 0.1725 0.6234
C43_6 C 0.66830(17) 0.1822(2) 0.64687(12)
C44_6 C 0.6539(2) 0.1525(2) 0.68214(13)
C45_6 C 0.6823(3) 0.1638(3) 0.71487(14)
H38_6 H 0.7116 0.1886 0.7142
C46_6 C 0.6684(3) 0.1393(3) 0.74858(15)
H39_7 H 0.6864 0.1492 0.7711
C47_6 C 0.6283(2) 0.1004(3) 0.74916(13)
C48_6 C 0.5998(2) 0.0877(2) 0.71681(13)
H40_6 H 0.5722 0.0610 0.7174
C49_6 C 0.61200(19) 0.1138(2) 0.68373(12)
H41_6 H 0.5919 0.1057 0.6617
C50_7 C 0.6493(2) 0.0630(2) 0.81357(13)
H42_7 H 0.6868 0.0711 0.8150
C51_7 C 0.61900(18) 0.0385(2) 0.83995(12)
H43_7 H 0.6319 0.0259 0.8635
C52_7 C 0.56528(19) 0.05659(19) 0.79413(12)
H44_7 H 0.5337 0.0598 0.7791
N7_7 N 0.56662(14) 0.03446(15) 0.82766(9)
N8_7 N 0.61488(17) 0.07422(19) 0.78397(11)
C27_7 C 0.4045(3) 0.7949(3) 0.15861(15)
H23_7 H 0.4309 0.8217 0.1501
H24_7 H 0.4221 0.7596 0.1611
H25_7 H 0.3898 0.8059 0.1830
C28_7 C 0.3592(2) 0.7909(2) 0.13042(13)
C29_7 C 0.3650(2) 0.8211(2) 0.09676(13)
H26_7 H 0.3970 0.8420 0.0941
C30_7 C 0.3282(2) 0.8226(2) 0.06750(13)
C31_7 C 0.3433(2) 0.8534(3) 0.03239(14)
C32_7 C 0.3843(3) 0.8927(4) 0.03122(16)
H27_7 H 0.4042 0.9010 0.0533
H30_7 H 0.2875 0.8151 0.0001
C27_8 C 0.0955(3) 0.2051(3) 0.65861(15)
H23_8 H 0.0691 0.1783 0.6501
H24_8 H 0.0779 0.2404 0.6611
H25_8 H 0.1102 0.1941 0.6830
C28_8 C 0.1408(2) 0.2091(2) 0.63042(13)
C29_8 C 0.1350(2) 0.1789(2) 0.59676(13)
H26_8 H 0.1030 0.1580 0.5941
C30_8 C 0.1718(2) 0.1774(2) 0.56750(13)
C31_8 C 0.1567(2) 0.1466(3) 0.53239(14)
C32_8 C 0.1157(3) 0.1073(4) 0.53122(16)
H27_8 H 0.0958 0.0990 0.5533
C33_7 C 0.1039(3) 0.0805(3) 0.49781(16)
H28_7 H 0.0769 0.0533 0.4972
C34_7 C 0.1317(2) 0.0938(2) 0.46565(13)
C35_7 C 0.17263(19) 0.13225(19) 0.46592(13)
H29_7 H 0.1920 0.1405 0.4436
C36_7 C 0.1847(2) 0.1585(2) 0.49958(13)
H30_8 H 0.2125 0.1849 0.5001
C37_7 C 0.15416(19) 0.04544(19) 0.40531(13)
H31_7 H 0.1925 0.0456 0.4065
C38_7 C 0.12280(19) 0.0238(2) 0.37785(13)
H32_7 H 0.1360 0.0053 0.3563
C39_7 C 0.0684(2) 0.0581(2) 0.41799(14)
H33_7 H 0.0362 0.0687 0.4305
N5_7 N 0.06981(15) 0.03265(18) 0.38563(11)
N6_7 N 0.11852(17) 0.06714(17) 0.43107(10)
C40_7 C 0.9143(2) 0.7765(2) 0.06018(14)
H34_7 H 0.9321 0.7416 0.0642
H35_7 H 0.9397 0.8058 0.0659
H36_7 H 0.9026 0.7793 0.0339
C41_7 C 0.86554(18) 0.78092(19) 0.08578(12)
C42_7 C 0.8710(2) 0.8106(2) 0.11917(12)
H37_7 H 0.9050 0.8275 0.1234
C43_7 C 0.83170(17) 0.8178(2) 0.14687(12)
C44_7 C 0.8461(2) 0.8475(2) 0.18214(13)
C45_7 C 0.8177(3) 0.8362(3) 0.21487(14)
H38_7 H 0.7884 0.8114 0.2142
C46_7 C 0.8316(3) 0.8607(3) 0.24858(15)
H39_8 H 0.8136 0.8508 0.2711
C47_7 C 0.8717(2) 0.8996(3) 0.24916(13)
C48_7 C 0.9002(2) 0.9123(2) 0.21681(13)
H40_7 H 0.9278 0.9390 0.2174
C49_7 C 0.88800(19) 0.8862(2) 0.18373(12)
H41_7 H 0.9081 0.8943 0.1617
C50_8 C 0.8507(2) 0.9370(2) 0.31357(13)
H42_8 H 0.8132 0.9289 0.3150
C51_8 C 0.88100(18) 0.9615(2) 0.33995(12)
H43_8 H 0.8681 0.9741 0.3635
C52_8 C 0.93472(19) 0.94341(19) 0.29413(12)
H44_8 H 0.9663 0.9402 0.2791
N7_8 N 0.93338(14) 0.96554(15) 0.32766(9)
N8_8 N 0.88512(17) 0.92578(19) 0.28397(11)
Zn5_4 Zn 0.49930(2) 0.99854(2) 0.856265(16)
C40_8 C 0.5265(2) 0.8357(2) 0.81018(14)
H34_8 H 0.4916 0.8179 0.8142
H35_8 H 0.5558 0.8103 0.8159
H36_8 H 0.5293 0.8474 0.7839
C41_8 C 0.53092(19) 0.88446(18) 0.83578(12)
C42_8 C 0.5606(2) 0.8790(2) 0.86917(12)
H37_8 H 0.5775 0.8450 0.8734
C43_8 C 0.5678(2) 0.91830(17) 0.89687(12)
C44_8 C 0.5975(2) 0.9039(2) 0.93214(13)
C45_8 C 0.5862(3) 0.9323(3) 0.96487(14)
H38_8 H 0.5614 0.9616 0.9642
C46_8 C 0.6107(3) 0.9184(3) 0.99858(15)
C47_8 C 0.6496(3) 0.8783(2) 0.99916(13)
C48_8 C 0.6623(2) 0.8498(2) 0.96681(13)
H40_8 H 0.6890 0.8222 0.9674
C49_8 C 0.6362(2) 0.86200(19) 0.93373(12)
H41_8 H 0.6443 0.8419 0.9117
O11_4 O 0.50727(13) 0.92711(12) 0.82511(9)
O12_4 O 0.54993(12) 0.96655(12) 0.89616(8)
C33_8 C 0.3961(3) 0.9195(3) 0.99781(16)
H28_8 H 0.4231 0.9467 0.9972
C34_8 C 0.3683(2) 0.9062(2) 0.96565(13)
C35_8 C 0.32737(19) 0.86775(19) 0.96592(13)
H29_8 H 0.3080 0.8595 0.9436
C36_8 C 0.3153(2) 0.8415(2) 0.99958(13)
C37_8 C 0.34584(19) 0.95456(19) 0.90531(13)
H31_8 H 0.3075 0.9544 0.9065
C38_8 C 0.37720(19) 0.9762(2) 0.87785(13)
H32_8 H 0.3640 0.9947 0.8563
C39_8 C 0.4316(2) 0.9419(2) 0.91799(14)
H33_8 H 0.4638 0.9313 0.9305
N5_8 N 0.43019(15) 0.96735(18) 0.88563(11)
N6_8 N 0.38148(17) 0.93286(17) 0.93107(10)
C40_9 C 0.5265(2) 0.3357(2) 0.18982(14)
H34_9 H 0.4916 0.3179 0.1858
H35_9 H 0.5558 0.3103 0.1841
H36_9 H 0.5293 0.3474 0.2161
C41_9 C 0.53092(19) 0.38446(18) 0.16422(12)
C42_9 C 0.5606(2) 0.3790(2) 0.13083(12)
H37_9 H 0.5775 0.3450 0.1266
C43_9 C 0.5678(2) 0.41830(17) 0.10313(12)
C44_9 C 0.5975(2) 0.4039(2) 0.06786(13)
C45_9 C 0.5862(3) 0.4323(3) 0.03513(14)
H38_9 H 0.5614 0.4616 0.0358
C46_9 C 0.6107(3) 0.4184(3) 0.00142(15)
C47_9 C 0.6496(3) 0.3783(2) 0.00084(13)
C48_9 C 0.6623(2) 0.3498(2) 0.03319(13)
H40_9 H 0.6890 0.3222 0.0326
C49_9 C 0.6362(2) 0.36200(19) 0.06627(12)
H41_9 H 0.6443 0.3419 0.0883
O11_5 O 0.50727(13) 0.42711(12) 0.17489(9)
O12_5 O 0.54993(12) 0.46655(12) 0.10384(8)
Zn6_3 Zn 0.49930(2) 0.49854(2) 0.143735(16)
Zn4_3 Zn 0.75146(2) 0.24930(2) 0.893735(16)
C27_9 C 0.9551(3) 0.1545(3) 0.59139(15)
H23_9 H 0.9283 0.1809 0.5999
H24_9 H 0.9904 0.1721 0.5889
H25_9 H 0.9441 0.1398 0.5670
C28_9 C 0.9591(2) 0.1092(2) 0.61958(13)
C29_9 C 0.9289(2) 0.1150(2) 0.65324(13)
H26_9 H 0.9080 0.1470 0.6559
C30_9 C 0.9274(2) 0.0782(2) 0.68250(13)
C31_9 C 0.8966(3) 0.0933(2) 0.71761(14)
C32_9 C 0.8573(4) 0.1343(3) 0.71878(16)
H27_9 H 0.8490 0.1542 0.6967
C33_9 C 0.8305(3) 0.1461(3) 0.75219(16)
H28_9 H 0.8033 0.1731 0.7528
C34_9 C 0.8438(2) 0.1183(2) 0.78435(13)
C35_9 C 0.88225(19) 0.07737(19) 0.78408(13)
H29_9 H 0.8905 0.0580 0.8064
C36_9 C 0.9085(2) 0.0653(2) 0.75042(13)
H30_9 H 0.9349 0.0375 0.7499
C37_9 C 0.79544(19) 0.09584(19) 0.84469(13)
H31_9 H 0.7956 0.0575 0.8435
C38_9 C 0.7738(2) 0.12720(19) 0.87215(13)
H32_9 H 0.7553 0.1140 0.8937
C39_9 C 0.8081(2) 0.1816(2) 0.83201(14)
H33_9 H 0.8187 0.2138 0.8195
H39_9 H 0.6008 0.4364 0.9789
C50_9 C 0.6870(2) 0.3993(2) 0.93643(13)
H42_9 H 0.6789 0.4368 0.9350
C51_9 C 0.7115(2) 0.36900(18) 0.91005(12)
H43_9 H 0.7241 0.3819 0.8865
C52_9 C 0.69341(19) 0.31528(19) 0.95587(12)
H44_9 H 0.6902 0.2837 0.9709
N5_9 N 0.78265(18) 0.18019(15) 0.86437(11)
N6_9 N 0.81714(17) 0.13148(17) 0.81893(10)
N7_9 N 0.71554(15) 0.31662(14) 0.92234(9)
N8_9 N 0.67578(19) 0.36488(17) 0.96603(11)
O9_5 O 0.98880(14) 0.06992(13) 0.61146(9)
O10_5 O 0.94957(13) 0.03213(12) 0.68400(8)
O13_5 O 0.68008(13) 0.23880(14) 0.86146(9)
O14_5 O 0.71787(12) 0.19957(13) 0.93400(8)
O15_5 O 0.82289(12) 0.25727(13) 0.92489(9)
O16_5 O 0.78345(12) 0.29993(12) 0.85384(8)
Zn5_5 Zn 0.99930(2) 0.99854(2) 0.643735(16)
H34_10 H 0.0084 0.6821 0.6858
Zn6_4 Zn 0.00070(2) 0.50146(2) 0.643735(16)
Zn4_4 Zn 0.74854(2) 0.75070(2) 0.393735(16)
C27_10 C 0.5449(3) 0.8455(3) 0.09139(15)
H23_10 H 0.5717 0.8191 0.0999
H24_10 H 0.5096 0.8279 0.0889
H25_10 H 0.5559 0.8602 0.0670
C28_10 C 0.5409(2) 0.8908(2) 0.11958(13)
C29_10 C 0.5711(2) 0.8850(2) 0.15324(13)
H26_10 H 0.5920 0.8530 0.1559
C30_10 C 0.5726(2) 0.9218(2) 0.18250(13)
C31_10 C 0.6034(3) 0.9067(2) 0.21761(14)
C32_10 C 0.6427(4) 0.8657(3) 0.21878(16)
H27_10 H 0.6510 0.8458 0.1967
C33_10 C 0.6695(3) 0.8539(3) 0.25219(16)
H28_10 H 0.6967 0.8269 0.2528
C34_10 C 0.6562(2) 0.8817(2) 0.28435(13)
C35_10 C 0.61775(19) 0.92263(19) 0.28408(13)
H29_10 H 0.6095 0.9420 0.3064
C36_10 C 0.5915(2) 0.9347(2) 0.25042(13)
H30_10 H 0.5651 0.9625 0.2499
C37_10 C 0.70456(19) 0.90416(19) 0.34469(13)
H31_10 H 0.7044 0.9425 0.3435
C38_10 C 0.7262(2) 0.87280(19) 0.37215(13)
H32_10 H 0.7447 0.8860 0.3937
C39_10 C 0.6919(2) 0.8184(2) 0.33201(14)
H33_10 H 0.6813 0.7862 0.3195
C40_10 C 0.9735(2) 0.6643(2) 0.68982(14)
H35_10 H 0.9442 0.6897 0.6841
H36_10 H 0.9707 0.6526 0.7161
C41_10 C 0.96908(19) 0.61554(18) 0.66422(12)
C42_10 C 0.9394(2) 0.6210(2) 0.63083(12)
H37_10 H 0.9225 0.6550 0.6266
C43_10 C 0.9322(2) 0.58170(17) 0.60313(12)
C44_10 C 0.9025(2) 0.5961(2) 0.56786(13)
C45_10 C 0.9138(3) 0.5677(3) 0.53513(14)
H38_10 H 0.9386 0.5384 0.5358
C46_10 C 0.8893(3) 0.5816(3) 0.50142(15)
H39_10 H 0.8992 0.5636 0.4789
C47_10 C 0.8504(3) 0.6217(2) 0.50084(13)
C48_10 C 0.8377(2) 0.6502(2) 0.53319(13)
H40_10 H 0.8110 0.6778 0.5326
C49_10 C 0.8638(2) 0.63800(19) 0.56627(12)
H41_10 H 0.8557 0.6581 0.5883
C50_10 C 0.8130(2) 0.6007(2) 0.43643(13)
H42_10 H 0.8211 0.5632 0.4350
C51_10 C 0.7885(2) 0.63100(18) 0.41005(12)
H43_10 H 0.7759 0.6181 0.3865
C52_10 C 0.80659(19) 0.68472(19) 0.45587(12)
H44_10 H 0.8098 0.7163 0.4709
N5_10 N 0.71735(18) 0.81981(15) 0.36437(11)
N6_10 N 0.68286(17) 0.86852(17) 0.31893(10)
N7_10 N 0.78446(15) 0.68338(14) 0.42234(9)
N8_10 N 0.82422(19) 0.63512(17) 0.46603(11)
O9_6 O 0.51120(14) 0.93008(13) 0.11146(9)
O10_6 O 0.55043(13) 0.96787(12) 0.18400(8)
O11_6 O 0.99273(13) 0.57289(12) 0.67489(9)
O12_6 O 0.95007(12) 0.53345(12) 0.60384(8)
O13_6 O 0.81992(13) 0.76120(14) 0.36146(9)
O14_6 O 0.78213(12) 0.80043(13) 0.43400(8)
O15_6 O 0.67711(12) 0.74273(13) 0.42489(9)
O16_6 O 0.71655(12) 0.70007(12) 0.35384(8)
C27_11 C 0.0955(3) 0.7051(3) 0.34139(15)
H23_11 H 0.0691 0.6783 0.3499
H24_11 H 0.0779 0.7404 0.3389
H25_11 H 0.1102 0.6941 0.3170
C28_11 C 0.1408(2) 0.7091(2) 0.36958(13)
C29_11 C 0.1350(2) 0.6789(2) 0.40324(13)
H26_11 H 0.1030 0.6580 0.4059
C30_11 C 0.1718(2) 0.6774(2) 0.43250(13)
C31_11 C 0.1567(2) 0.6466(3) 0.46761(14)
C32_11 C 0.1157(3) 0.6073(4) 0.46878(16)
H27_11 H 0.0958 0.5990 0.4467
C33_11 C 0.1039(3) 0.5805(3) 0.50219(16)
H28_11 H 0.0769 0.5533 0.5028
C34_11 C 0.1317(2) 0.5938(2) 0.53435(13)
C35_11 C 0.17263(19) 0.63225(19) 0.53408(13)
H29_11 H 0.1920 0.6405 0.5564
C36_11 C 0.1847(2) 0.6585(2) 0.50042(13)
H30_11 H 0.2125 0.6849 0.4999
C37_11 C 0.15416(19) 0.54544(19) 0.59469(13)
H31_11 H 0.1925 0.5456 0.5935
C38_11 C 0.12280(19) 0.5238(2) 0.62215(13)
H32_11 H 0.1360 0.5053 0.6437
C39_11 C 0.0684(2) 0.5581(2) 0.58201(14)
H33_11 H 0.0362 0.5687 0.5695
N5_11 N 0.06981(15) 0.53265(18) 0.61437(11)
N6_11 N 0.11852(17) 0.56714(17) 0.56893(10)
O9_7 O 0.18008(13) 0.73880(14) 0.36146(9)
O10_7 O 0.21787(12) 0.69957(13) 0.43400(8)
Zn5_6 Zn 0.25146(2) 0.74930(2) 0.393735(16)
O13_7 O 0.01120(14) 0.43008(13) 0.61146(9)
O14_7 O 0.05043(13) 0.46787(12) 0.68400(8)
C40_11 C 0.9143(2) 0.2765(2) 0.93982(14)
H34_11 H 0.9321 0.2416 0.9358
H35_11 H 0.9397 0.3058 0.9341
H36_11 H 0.9026 0.2793 0.9661
C41_11 C 0.86554(18) 0.28092(19) 0.91422(12)
C42_11 C 0.8710(2) 0.3106(2) 0.88083(12)
H37_11 H 0.9050 0.3275 0.8766
C43_11 C 0.83170(17) 0.3178(2) 0.85313(12)
C44_11 C 0.8461(2) 0.3475(2) 0.81786(13)
C45_11 C 0.8177(3) 0.3362(3) 0.78513(14)
H38_11 H 0.7884 0.3114 0.7858
C46_11 C 0.8316(3) 0.3607(3) 0.75142(15)
H39_11 H 0.8136 0.3508 0.7289
C47_11 C 0.8717(2) 0.3996(3) 0.75084(13)
C48_11 C 0.9002(2) 0.4123(2) 0.78319(13)
H40_11 H 0.9278 0.4390 0.7826
C49_11 C 0.88800(19) 0.3862(2) 0.81627(12)
H41_11 H 0.9081 0.3943 0.8383
C50_11 C 0.8507(2) 0.4370(2) 0.68643(13)
H42_11 H 0.8132 0.4289 0.6850
C51_11 C 0.88100(18) 0.4615(2) 0.66005(12)
H43_11 H 0.8681 0.4741 0.6365
C52_11 C 0.93472(19) 0.44341(19) 0.70587(12)
H44_11 H 0.9663 0.4402 0.7209
N7_11 N 0.93338(14) 0.46554(15) 0.67234(9)
N8_11 N 0.88512(17) 0.42578(19) 0.71603(11)
C33_12 C 0.3961(3) 0.4195(3) 0.00219(16)
H28_12 H 0.4231 0.4467 0.0028
C34_12 C 0.3683(2) 0.4062(2) 0.03435(13)
C35_12 C 0.32737(19) 0.36775(19) 0.03408(13)
H29_12 H 0.3080 0.3595 0.0564
C36_12 C 0.3153(2) 0.3415(2) 0.00042(13)
C37_12 C 0.34584(19) 0.45456(19) 0.09469(13)
H31_12 H 0.3075 0.4544 0.0935
C38_12 C 0.37720(19) 0.4762(2) 0.12215(13)
H32_12 H 0.3640 0.4947 0.1437
C39_12 C 0.4316(2) 0.4419(2) 0.08201(14)
H33_12 H 0.4638 0.4313 0.0695
C40_12 C 0.5857(2) 0.7235(2) 0.43982(14)
H34_12 H 0.5679 0.7584 0.4358
H35_12 H 0.5603 0.6942 0.4341
H36_12 H 0.5974 0.7207 0.4661
C41_12 C 0.63446(18) 0.71908(19) 0.41422(12)
C42_12 C 0.6290(2) 0.6894(2) 0.38083(12)
H37_12 H 0.5950 0.6725 0.3766
C43_12 C 0.66830(17) 0.6822(2) 0.35313(12)
C44_12 C 0.6539(2) 0.6525(2) 0.31786(13)
C45_12 C 0.6823(3) 0.6638(3) 0.28513(14)
H38_12 H 0.7116 0.6886 0.2858
C46_12 C 0.6684(3) 0.6393(3) 0.25142(15)
H39_12 H 0.6864 0.6492 0.2289
C47_12 C 0.6283(2) 0.6004(3) 0.25084(13)
C48_12 C 0.5998(2) 0.5877(2) 0.28319(13)
H40_12 H 0.5722 0.5610 0.2826
C49_12 C 0.61200(19) 0.6138(2) 0.31627(12)
H41_12 H 0.5919 0.6057 0.3383
C50_12 C 0.6493(2) 0.5630(2) 0.18643(13)
H42_12 H 0.6868 0.5711 0.1850
C51_12 C 0.61900(18) 0.5385(2) 0.16005(12)
H43_12 H 0.6319 0.5259 0.1365
C52_12 C 0.56528(19) 0.55659(19) 0.20587(12)
H44_12 H 0.5337 0.5598 0.2209
N5_12 N 0.43019(15) 0.46735(18) 0.11437(11)
N6_12 N 0.38148(17) 0.43286(17) 0.06893(10)
N7_12 N 0.56662(14) 0.53446(15) 0.17234(9)
N8_12 N 0.61488(17) 0.57422(19) 0.21603(11)
O13_8 O 0.48880(14) 0.56992(13) 0.11146(9)
O14_8 O 0.44957(13) 0.53213(12) 0.18400(8)
C27_12 C 0.4045(3) 0.2949(3) 0.84139(15)
H23_12 H 0.4309 0.3217 0.8499
H24_12 H 0.4221 0.2596 0.8389
H25_12 H 0.3898 0.3059 0.8170
C28_12 C 0.3592(2) 0.2909(2) 0.86958(13)
C29_12 C 0.3650(2) 0.3211(2) 0.90324(13)
H26_12 H 0.3970 0.3420 0.9059
C30_12 C 0.3282(2) 0.3226(2) 0.93250(13)
C31_12 C 0.3433(2) 0.3534(3) 0.96761(14)
C32_12 C 0.3843(3) 0.3927(4) 0.96878(16)
H27_12 H 0.4042 0.4010 0.9467
H30_12 H 0.2875 0.3151 0.9999
O9_8 O 0.31992(13) 0.26120(14) 0.86146(9)
O10_8 O 0.28213(12) 0.30043(13) 0.93400(8)
Zn5_7 Zn 0.24854(2) 0.25070(2) 0.893735(16)
C27_13 C 0.4551(3) 0.6545(3) 0.09139(15)
H23_13 H 0.4283 0.6809 0.0999
H24_13 H 0.4904 0.6721 0.0889
H25_13 H 0.4441 0.6398 0.0670
C28_13 C 0.4591(2) 0.6092(2) 0.11958(13)
C29_13 C 0.4289(2) 0.6150(2) 0.15324(13)
H26_13 H 0.4080 0.6470 0.1559
C30_13 C 0.4274(2) 0.5782(2) 0.18250(13)
C31_13 C 0.3966(3) 0.5933(2) 0.21761(14)
C32_13 C 0.3573(4) 0.6343(3) 0.21878(16)
H27_13 H 0.3490 0.6542 0.1967
C33_13 C 0.3305(3) 0.6461(3) 0.25219(16)
H28_13 H 0.3033 0.6731 0.2528
C34_13 C 0.3438(2) 0.6183(2) 0.28435(13)
C35_13 C 0.38225(19) 0.57737(19) 0.28408(13)
H29_13 H 0.3905 0.5580 0.3064
C36_13 C 0.4085(2) 0.5653(2) 0.25042(13)
H30_13 H 0.4349 0.5375 0.2499
C37_13 C 0.29544(19) 0.59584(19) 0.34469(13)
H31_13 H 0.2956 0.5575 0.3435
C38_13 C 0.2738(2) 0.62720(19) 0.37215(13)
H32_13 H 0.2553 0.6140 0.3937
C39_13 C 0.3081(2) 0.6816(2) 0.33201(14)
H33_13 H 0.3187 0.7138 0.3195
C40_13 C 0.0265(2) 0.8357(2) 0.68982(14)
H35_13 H 0.0558 0.8103 0.6841
H36_13 H 0.0293 0.8474 0.7161
C41_13 C 0.03092(19) 0.88446(18) 0.66422(12)
C42_13 C 0.0606(2) 0.8790(2) 0.63083(12)
H37_13 H 0.0775 0.8450 0.6266
C43_13 C 0.0678(2) 0.91830(17) 0.60313(12)
C44_13 C 0.0975(2) 0.9039(2) 0.56786(13)
C45_13 C 0.0862(3) 0.9323(3) 0.53513(14)
H38_13 H 0.0614 0.9616 0.5358
C46_13 C 0.1107(3) 0.9184(3) 0.50142(15)
H39_13 H 0.1008 0.9364 0.4789
C47_13 C 0.1496(3) 0.8783(2) 0.50084(13)
C48_13 C 0.1623(2) 0.8498(2) 0.53319(13)
H40_13 H 0.1890 0.8222 0.5326
C49_13 C 0.1362(2) 0.86200(19) 0.56627(12)
H41_13 H 0.1443 0.8419 0.5883
C50_13 C 0.1870(2) 0.8993(2) 0.43643(13)
H42_13 H 0.1789 0.9368 0.4350
C51_13 C 0.2115(2) 0.86900(18) 0.41005(12)
H43_13 H 0.2241 0.8819 0.3865
C52_13 C 0.19341(19) 0.81528(19) 0.45587(12)
H44_13 H 0.1902 0.7837 0.4709
N5_13 N 0.28265(18) 0.68019(15) 0.36437(11)
N6_13 N 0.31714(17) 0.63148(17) 0.31893(10)
N7_13 N 0.21554(15) 0.81662(14) 0.42234(9)
N8_13 N 0.17578(19) 0.86488(17) 0.46603(11)
O11_7 O 0.00727(13) 0.92711(12) 0.67489(9)
O12_7 O 0.04993(12) 0.96655(12) 0.60384(8)
O15_7 O 0.32289(12) 0.75727(13) 0.42489(9)
O16_7 O 0.28345(12) 0.79993(12) 0.35384(8)
H34_13 H 0.9916 0.8179 0.6858
C27_14 C 0.0449(3) 0.3455(3) 0.59139(15)
H23_14 H 0.0717 0.3191 0.5999
H24_14 H 0.0096 0.3279 0.5889
H25_14 H 0.0559 0.3602 0.5670
C28_14 C 0.0409(2) 0.3908(2) 0.61958(13)
C29_14 C 0.0711(2) 0.3850(2) 0.65324(13)
H26_14 H 0.0920 0.3530 0.6559
C30_14 C 0.0726(2) 0.4218(2) 0.68250(13)
C31_14 C 0.1034(3) 0.4067(2) 0.71761(14)
C32_14 C 0.1427(4) 0.3657(3) 0.71878(16)
H27_14 H 0.1510 0.3458 0.6967
C33_14 C 0.1695(3) 0.3539(3) 0.75219(16)
H28_14 H 0.1967 0.3269 0.7528
C34_14 C 0.1562(2) 0.3817(2) 0.78435(13)
C35_14 C 0.11775(19) 0.42263(19) 0.78408(13)
H29_14 H 0.1095 0.4420 0.8064
C36_14 C 0.0915(2) 0.4347(2) 0.75042(13)
H30_14 H 0.0651 0.4625 0.7499
C37_14 C 0.20456(19) 0.40416(19) 0.84469(13)
H31_14 H 0.2044 0.4425 0.8435
C38_14 C 0.2262(2) 0.37280(19) 0.87215(13)
H32_14 H 0.2447 0.3860 0.8937
C39_14 C 0.1919(2) 0.3184(2) 0.83201(14)
H33_14 H 0.1813 0.2862 0.8195
H39_14 H 0.3992 0.0636 0.9789
C50_14 C 0.3130(2) 0.1007(2) 0.93643(13)
H42_14 H 0.3211 0.0632 0.9350
C51_14 C 0.2885(2) 0.13100(18) 0.91005(12)
H43_14 H 0.2759 0.1181 0.8865
C52_14 C 0.30659(19) 0.18472(19) 0.95587(12)
H44_14 H 0.3098 0.2163 0.9709
N5_14 N 0.21735(18) 0.31981(15) 0.86437(11)
N6_14 N 0.18286(17) 0.36852(17) 0.81893(10)
N7_14 N 0.28446(15) 0.18338(14) 0.92234(9)
N8_14 N 0.32422(19) 0.13512(17) 0.96603(11)
O15_8 O 0.17711(12) 0.24273(13) 0.92489(9)
O16_8 O 0.21655(12) 0.20007(12) 0.85384(8)
C27_15 C 0.5955(3) 0.2051(3) 0.84139(15)
H23_15 H 0.5691 0.1783 0.8499
H24_15 H 0.5779 0.2404 0.8389
H25_15 H 0.6102 0.1941 0.8170
C28_15 C 0.6408(2) 0.2091(2) 0.86958(13)
C29_15 C 0.6350(2) 0.1789(2) 0.90324(13)
H26_15 H 0.6030 0.1580 0.9059
C30_15 C 0.6718(2) 0.1774(2) 0.93250(13)
C31_15 C 0.6567(2) 0.1466(3) 0.96761(14)
C32_15 C 0.6157(3) 0.1073(4) 0.96878(16)
H27_15 H 0.5958 0.0990 0.9467
H30_15 H 0.7125 0.1849 0.9999
C40_14 C 0.4143(2) 0.7765(2) 0.43982(14)
H34_14 H 0.4321 0.7416 0.4358
H35_14 H 0.4397 0.8058 0.4341
H36_14 H 0.4026 0.7793 0.4661
C41_14 C 0.36554(18) 0.78092(19) 0.41422(12)
C42_14 C 0.3710(2) 0.8106(2) 0.38083(12)
H37_14 H 0.4050 0.8275 0.3766
C43_14 C 0.33170(17) 0.8178(2) 0.35313(12)
C44_14 C 0.3461(2) 0.8475(2) 0.31786(13)
C45_14 C 0.3177(3) 0.8362(3) 0.28513(14)
H38_14 H 0.2884 0.8114 0.2858
C46_14 C 0.3316(3) 0.8607(3) 0.25142(15)
H39_15 H 0.3136 0.8508 0.2289
C47_14 C 0.3717(2) 0.8996(3) 0.25084(13)
C48_14 C 0.4002(2) 0.9123(2) 0.28319(13)
H40_14 H 0.4278 0.9390 0.2826
C49_14 C 0.38800(19) 0.8862(2) 0.31627(12)
H41_14 H 0.4081 0.8943 0.3383
C50_15 C 0.3507(2) 0.9370(2) 0.18643(13)
H42_15 H 0.3132 0.9289 0.1850
C51_15 C 0.38100(18) 0.9615(2) 0.16005(12)
H43_15 H 0.3681 0.9741 0.1365
C52_15 C 0.43472(19) 0.94341(19) 0.20587(12)
H44_15 H 0.4663 0.9402 0.2209
N7_15 N 0.43338(14) 0.96554(15) 0.17234(9)
N8_15 N 0.38512(17) 0.92578(19) 0.21603(11)
C40_15 C 0.0857(2) 0.2235(2) 0.93982(14)
H34_15 H 0.0679 0.2584 0.9358
H35_15 H 0.0603 0.1942 0.9341
H36_15 H 0.0974 0.2207 0.9661
C41_15 C 0.13446(18) 0.21908(19) 0.91422(12)
C42_15 C 0.1290(2) 0.1894(2) 0.88083(12)
H37_15 H 0.0950 0.1725 0.8766
C43_15 C 0.16830(17) 0.1822(2) 0.85313(12)
C44_15 C 0.1539(2) 0.1525(2) 0.81786(13)
C45_15 C 0.1823(3) 0.1638(3) 0.78513(14)
H38_15 H 0.2116 0.1886 0.7858
C46_15 C 0.1684(3) 0.1393(3) 0.75142(15)
H39_16 H 0.1864 0.1492 0.7289
C47_15 C 0.1283(2) 0.1004(3) 0.75084(13)
C48_15 C 0.0998(2) 0.0877(2) 0.78319(13)
H40_15 H 0.0722 0.0610 0.7826
C49_15 C 0.11200(19) 0.1138(2) 0.81627(12)
H41_15 H 0.0919 0.1057 0.8383
C50_16 C 0.1493(2) 0.0630(2) 0.68643(13)
H42_16 H 0.1868 0.0711 0.6850
C51_16 C 0.11900(18) 0.0385(2) 0.66005(12)
H43_16 H 0.1319 0.0259 0.6365
C52_16 C 0.06528(19) 0.05659(19) 0.70587(12)
H44_16 H 0.0337 0.0598 0.7209
N7_16 N 0.06662(14) 0.03446(15) 0.67234(9)
N8_16 N 0.11488(17) 0.07422(19) 0.71603(11)
C27_16 C 0.9045(3) 0.7949(3) 0.34139(15)
H23_16 H 0.9309 0.8217 0.3499
H24_16 H 0.9221 0.7596 0.3389
H25_16 H 0.8898 0.8059 0.3170
C28_16 C 0.8592(2) 0.7909(2) 0.36958(13)
C29_16 C 0.8650(2) 0.8211(2) 0.40324(13)
H26_16 H 0.8970 0.8420 0.4059
C30_16 C 0.8282(2) 0.8226(2) 0.43250(13)
C31_16 C 0.8433(2) 0.8534(3) 0.46761(14)
C32_16 C 0.8843(3) 0.8927(4) 0.46878(16)
H27_16 H 0.9042 0.9010 0.4467
C33_15 C 0.8961(3) 0.9195(3) 0.50219(16)
H28_15 H 0.9231 0.9467 0.5028
C34_15 C 0.8683(2) 0.9062(2) 0.53435(13)
C35_15 C 0.82737(19) 0.86775(19) 0.53408(13)
H29_15 H 0.8080 0.8595 0.5564
C36_15 C 0.8153(2) 0.8415(2) 0.50042(13)
H30_16 H 0.7875 0.8151 0.4999
C37_15 C 0.84584(19) 0.95456(19) 0.59469(13)
H31_15 H 0.8075 0.9544 0.5935
C38_15 C 0.87720(19) 0.9762(2) 0.62215(13)
H32_15 H 0.8640 0.9947 0.6437
C39_15 C 0.9316(2) 0.9419(2) 0.58201(14)
H33_15 H 0.9638 0.9313 0.5695
N5_15 N 0.93019(15) 0.96735(18) 0.61437(11)
N6_15 N 0.88148(17) 0.93286(17) 0.56893(10)
Zn5_8 Zn 0.50070(2) 0.00146(2) 0.143735(16)
C40_16 C 0.4735(2) 0.1643(2) 0.18982(14)
H34_16 H 0.5084 0.1821 0.1858
H35_16 H 0.4442 0.1897 0.1841
H36_16 H 0.4707 0.1526 0.2161
C41_16 C 0.46908(19) 0.11554(18) 0.16422(12)
C42_16 C 0.4394(2) 0.1210(2) 0.13083(12)
H37_16 H 0.4225 0.1550 0.1266
C43_16 C 0.4322(2) 0.08170(17) 0.10313(12)
C44_16 C 0.4025(2) 0.0961(2) 0.06786(13)
C45_16 C 0.4138(3) 0.0677(3) 0.03513(14)
H38_16 H 0.4386 0.0384 0.0358
C46_16 C 0.3893(3) 0.0816(3) 0.00142(15)
C47_16 C 0.3504(3) 0.1217(2) 0.00084(13)
C48_16 C 0.3377(2) 0.1502(2) 0.03319(13)
H40_16 H 0.3110 0.1778 0.0326
C49_16 C 0.3638(2) 0.13800(19) 0.06627(12)
H41_16 H 0.3557 0.1581 0.0883
O11_8 O 0.49273(13) 0.07289(12) 0.17489(9)
O12_8 O 0.45007(12) 0.03345(12) 0.10384(8)
C33_16 C 0.6039(3) 0.0805(3) 0.00219(16)
H28_16 H 0.5769 0.0533 0.0028
C34_16 C 0.6317(2) 0.0938(2) 0.03435(13)
C35_16 C 0.67263(19) 0.13225(19) 0.03408(13)
H29_16 H 0.6920 0.1405 0.0564
C36_16 C 0.6847(2) 0.1585(2) 0.00042(13)
C37_16 C 0.65416(19) 0.04544(19) 0.09469(13)
H31_16 H 0.6925 0.0456 0.0935
C38_16 C 0.62280(19) 0.0238(2) 0.12215(13)
H32_16 H 0.6360 0.0053 0.1437
C39_16 C 0.5684(2) 0.0581(2) 0.08201(14)
H33_16 H 0.5362 0.0687 0.0695
N5_16 N 0.56981(15) 0.03265(18) 0.11437(11)
N6_16 N 0.61852(17) 0.06714(17) 0.06893(10)
loop_
_geom_bond_atom_site_label_1
_geom_bond_atom_site_label_2
_geom_bond_site_symmetry_1
_geom_bond_site_symmetry_2
C22 C21 1_555 1_555
H18 C22 1_555 1_555
C24 H20 1_555 1_555
C25 C24 1_555 1_555
H21 C25 1_555 1_555
C26 H22 1_555 1_555
N3 Zn1 1_555 1_555
N4 C21 1_555 1_555
O7 Zn1 1_555 1_555
O8 Zn1 1_555 1_555
C24 N4 1_555 1_555
C25 N3 1_555 1_555
C26 N3 1_555 1_555
C26 N4 1_555 1_555
C14 H12 1_555 1_555
H13 C14 1_555 1_555
H14 C14 1_555 1_555
C15 C14 1_555 1_555
C16 C15 1_555 1_555
H15 C16 1_555 1_555
C17 C16 1_555 1_555
C18 C17 1_555 1_555
C19 C18 1_555 1_555
H16 C19 1_555 1_555
C20 C19 1_555 1_555
H17 C20 1_555 1_555
C23 C18 1_555 1_555
H19 C23 1_555 1_555
O3 C15 1_555 1_555
O4 C17 1_555 1_555
Zn3 O3 1_555 1_555
O4 Zn3 1_555 1_555
C1 H1 1_555 1_555
H2 C1 1_555 1_555
H3 C1 1_555 1_555
C2 C1 1_555 1_555
C3 C2 1_555 1_555
H4 C3 1_555 1_555
C4 C3 1_555 1_555
C5 C4 1_555 1_555
C6 C5 1_555 1_555
H5 C6 1_555 1_555
C7 C6 1_555 1_555
H6 C7 1_555 1_555
C8 C7 1_555 1_555
C9 C8 1_555 1_555
H7 C9 1_555 1_555
C10 C5 1_555 1_555
H8 C10 1_555 1_555
C11 H9 1_555 1_555
C12 C11 1_555 1_555
H10 C12 1_555 1_555
C13 H11 1_555 1_555
N1 C12 1_555 1_555
N2 C8 1_555 1_555
O1 C2 1_555 1_555
O2 C4 1_555 1_555
Zn2 O1 1_555 1_555
C9 C10 1_555 1_555
C11 N2 1_555 1_555
C13 N1 1_555 1_555
C13 N2 1_555 1_555
O2 Zn2 1_555 1_555
Zn1_2 N1_2 1_555 1_555
C1_2 H1_2 1_555 1_555
H2_2 C1_2 1_555 1_555
H3_2 C1_2 1_555 1_555
C2_2 C1_2 1_555 1_555
C3_2 C2_2 1_555 1_555
H4_2 C3_2 1_555 1_555
C4_2 C3_2 1_555 1_555
C5_2 C4_2 1_555 1_555
C6_2 C5_2 1_555 1_555
H5_2 C6_2 1_555 1_555
C7_2 C6_2 1_555 1_555
H6_2 C7_2 1_555 1_555
C8_2 C7_2 1_555 1_555
C9_2 C8_2 1_555 1_555
H7_2 C9_2 1_555 1_555
C10_2 C5_2 1_555 1_555
H8_2 C10_2 1_555 1_555
C11_2 H9_2 1_555 1_555
C12_2 C11_2 1_555 1_555
H10_2 C12_2 1_555 1_555
C13_2 H11_2 1_555 1_555
C14_2 H12_2 1_555 1_555
H13_2 C14_2 1_555 1_555
H14_2 C14_2 1_555 1_555
C15_2 C14_2 1_555 1_555
C16_2 C15_2 1_555 1_555
H15_2 C16_2 1_555 1_555
C17_2 C16_2 1_555 1_555
C18_2 C17_2 1_555 1_555
C19_2 C18_2 1_555 1_555
H16_2 C19_2 1_555 1_555
C20_2 C19_2 1_555 1_555
H17_2 C20_2 1_555 1_555
C21_2 C20_2 1_555 1_555
C22_2 C21_2 1_555 1_555
H18_2 C22_2 1_555 1_555
C23_2 C18_2 1_555 1_555
H19_2 C23_2 1_555 1_555
C24_2 H20_2 1_555 1_555
C25_2 C24_2 1_555 1_555
H21_2 C25_2 1_555 1_555
C26_2 H22_2 1_555 1_555
N1_2 C12_2 1_555 1_555
N2_2 C8_2 1_555 1_555
N3_2 Zn1_2 1_555 1_555
N4_2 C21_2 1_555 1_555
O1_2 C2_2 1_555 1_555
O2_2 C4_2 1_555 1_555
O3_2 C15_2 1_555 1_555
O4_2 C17_2 1_555 1_555
Zn2_2 O1_2 1_555 1_555
Zn3_2 O3_2 1_555 1_555
O5_2 Zn1_2 1_555 1_555
O6_2 Zn1_2 1_555 1_555
O7_2 Zn1_2 1_555 1_555
O8_2 Zn1_2 1_555 1_555
C9_2 C10_2 1_555 1_555
C11_2 N2_2 1_555 1_555
C13_2 N1_2 1_555 1_555
C13_2 N2_2 1_555 1_555
C22_2 C23_2 1_555 1_555
C24_2 N4_2 1_555 1_555
C25_2 N3_2 1_555 1_555
C26_2 N3_2 1_555 1_555
C26_2 N4_2 1_555 1_555
O2_2 Zn2_2 1_555 1_555
O4_2 Zn3_2 1_555 1_555
Zn3_2 N1_3 1_555 1_555
C1_3 H1_3 1_555 1_555
H2_3 C1_3 1_555 1_555
H3_3 C1_3 1_555 1_555
C2_3 C1_3 1_555 1_555
C3_3 C2_3 1_555 1_555
H4_3 C3_3 1_555 1_555
C4_3 C3_3 1_555 1_555
C5_3 C4_3 1_555 1_555
C6_3 C5_3 1_555 1_555
H5_3 C6_3 1_555 1_555
C7_3 C6_3 1_555 1_555
H6_3 C7_3 1_555 1_555
C8_3 C7_3 1_555 1_555
C9_3 C8_3 1_555 1_555
H7_3 C9_3 1_555 1_555
C10_3 C5_3 1_555 1_555
H8_3 C10_3 1_555 1_555
C11_3 H9_3 1_555 1_555
C12_3 C11_3 1_555 1_555
H10_3 C12_3 1_555 1_555
C13_3 H11_3 1_555 1_555
H13_3 C14_3 1_555 1_555
H14_3 C14_3 1_555 1_555
C15_3 C14_3 1_555 1_555
C16_3 C15_3 1_555 1_555
H15_3 C16_3 1_555 1_555
C17_3 C16_3 1_555 1_555
C18_3 C17_3 1_555 1_555
C19_3 C18_3 1_555 1_555
H16_3 C19_3 1_555 1_555
C20_3 C19_3 1_555 1_555
H17_3 C20_3 1_555 1_555
C21_3 C20_3 1_555 1_555
C22_3 C21_3 1_555 1_555
H18_3 C22_3 1_555 1_555
C23_3 C18_3 1_555 1_555
H19_3 C23_3 1_555 1_555
C24_3 H20_3 1_555 1_555
C25_3 C24_3 1_555 1_555
H21_3 C25_3 1_555 1_555
C26_3 H22_3 1_555 1_555
N1_3 C12_3 1_555 1_555
N2_3 C8_3 1_555 1_555
N3_3 Zn3_2 1_555 1_555
N4_3 C21_3 1_555 1_555
O1_3 C2_3 1_555 1_555
O2_3 C4_3 1_555 1_555
O7 C15_3 1_555 1_555
O8 C17_3 1_555 1_555
O5_3 Zn3_2 1_555 1_555
O6_3 Zn3_2 1_555 1_555
C9_3 C10_3 1_555 1_555
C11_3 N2_3 1_555 1_555
C13_3 N1_3 1_555 1_555
C13_3 N2_3 1_555 1_555
C22_3 C23_3 1_555 1_555
C24_3 N4_3 1_555 1_555
C25_3 N3_3 1_555 1_555
C26_3 N3_3 1_555 1_555
C26_3 N4_3 1_555 1_555
Zn3 N1_4 1_555 1_555
C9_4 C8_4 1_555 1_555
H7_4 C9_4 1_555 1_555
C11_4 H9_4 1_555 1_555
C12_4 C11_4 1_555 1_555
H10_4 C12_4 1_555 1_555
C13_4 H11_4 1_555 1_555
C14_4 H12_3 1_555 1_555
H13_4 C14_4 1_555 1_555
H14_4 C14_4 1_555 1_555
C15_4 C14_4 1_555 1_555
C16_4 C15_4 1_555 1_555
H15_4 C16_4 1_555 1_555
C17_4 C16_4 1_555 1_555
C18_4 C17_4 1_555 1_555
C19_4 C18_4 1_555 1_555
H16_4 C19_4 1_555 1_555
C20_4 C19_4 1_555 1_555
H17_4 C20_4 1_555 1_555
C21_4 C20_4 1_555 1_555
C22_4 C21_4 1_555 1_555
H18_4 C22_4 1_555 1_555
C23_4 C18_4 1_555 1_555
H19_4 C23_4 1_555 1_555
C24_4 H20_4 1_555 1_555
C25_4 C24_4 1_555 1_555
H21_4 C25_4 1_555 1_555
C26_4 H22_4 1_555 1_555
N1_4 C12_4 1_555 1_555
N2_4 C8_4 1_555 1_555
N3_4 Zn3 1_555 1_555
N4_4 C21_4 1_555 1_555
O7_2 C15_4 1_555 1_555
O8_2 C17_4 1_555 1_555
O5_4 Zn3 1_555 1_555
O6_4 Zn3 1_555 1_555
C11_4 N2_4 1_555 1_555
C13_4 N1_4 1_555 1_555
C13_4 N2_4 1_555 1_555
C22_4 C23_4 1_555 1_555
C24_4 N4_4 1_555 1_555
C25_4 N3_4 1_555 1_555
C26_4 N3_4 1_555 1_555
C26_4 N4_4 1_555 1_555
C14_5 H12_4 1_555 1_555
H13_5 C14_5 1_555 1_555
H14_5 C14_5 1_555 1_555
C15_5 C14_5 1_555 1_555
C16_5 C15_5 1_555 1_555
H15_5 C16_5 1_555 1_555
C17_5 C16_5 1_555 1_555
C18_5 C17_5 1_555 1_555
C19_5 C18_5 1_555 1_555
H16_5 C19_5 1_555 1_555
C20_5 C19_5 1_555 1_555
H17_5 C20_5 1_555 1_555
C21_5 C20_5 1_555 1_555
C22_5 C21_5 1_555 1_555
H18_5 C22_5 1_555 1_555
C23_5 C18_5 1_555 1_555
H19_5 C23_5 1_555 1_555
C24_5 H20_5 1_555 1_555
C25_5 C24_5 1_555 1_555
H21_5 C25_5 1_555 1_555
C26_5 H22_5 1_555 1_555
N4_5 C21_5 1_555 1_555
O3_3 C15_5 1_555 1_555
O4_3 C17_5 1_555 1_555
Zn2 O3_3 1_555 1_555
C22_5 C23_5 1_555 1_555
C24_5 N4_5 1_555 1_555
C25_5 N3_5 1_555 1_555
C26_5 N3_5 1_555 1_555
C26_5 N4_5 1_555 1_555
O4_3 Zn2 1_555 1_555
Zn2_3 N1_5 1_555 1_555
C1_4 H1_4 1_555 1_555
H2_4 C1_4 1_555 1_555
H3_4 C1_4 1_555 1_555
C2_4 C1_4 1_555 1_555
C3_4 C2_4 1_555 1_555
H4_4 C3_4 1_555 1_555
C4_4 C3_4 1_555 1_555
C5_4 C4_4 1_555 1_555
C6_4 C5_4 1_555 1_555
H5_4 C6_4 1_555 1_555
C7_4 C6_4 1_555 1_555
H6_4 C7_4 1_555 1_555
C8_5 C7_4 1_555 1_555
C9_5 C8_5 1_555 1_555
H7_5 C9_5 1_555 1_555
C10_4 C5_4 1_555 1_555
H8_4 C10_4 1_555 1_555
C11_5 H9_5 1_555 1_555
C12_5 C11_5 1_555 1_555
H10_5 C12_5 1_555 1_555
C13_5 H11_5 1_555 1_555
N1_5 C12_5 1_555 1_555
N2_5 C8_5 1_555 1_555
O5_4 C2_4 1_555 1_555
O6_4 C4_4 1_555 1_555
O7_3 Zn2_3 1_555 1_555
O8_3 Zn2_3 1_555 1_555
C9_5 C10_4 1_555 1_555
C11_5 N2_5 1_555 1_555
C13_5 N1_5 1_555 1_555
C13_5 N2_5 1_555 1_555
C1_5 H1_5 1_555 1_555
H2_5 C1_5 1_555 1_555
H3_5 C1_5 1_555 1_555
C2_5 C1_5 1_555 1_555
C3_5 C2_5 1_555 1_555
H4_5 C3_5 1_555 1_555
C4_5 C3_5 1_555 1_555
C5_5 C4_5 1_555 1_555
C6_5 C5_5 1_555 1_555
H5_5 C6_5 1_555 1_555
C7_5 C6_5 1_555 1_555
H6_5 C7_5 1_555 1_555
C8_6 C7_5 1_555 1_555
C9_6 C8_6 1_555 1_555
H7_6 C9_6 1_555 1_555
C10_5 C5_5 1_555 1_555
H8_5 C10_5 1_555 1_555
C11_6 H9_6 1_555 1_555
C12_6 C11_6 1_555 1_555
H10_6 C12_6 1_555 1_555
C13_6 H11_6 1_555 1_555
N1_6 C12_6 1_555 1_555
N2_6 C8_6 1_555 1_555
O5_3 C2_5 1_555 1_555
O6_3 C4_5 1_555 1_555
C9_6 C10_5 1_555 1_555
C11_6 N2_6 1_555 1_555
C13_6 N1_6 1_555 1_555
C13_6 N2_6 1_555 1_555
O7_4 Zn2_4 1_555 1_555
O8_4 Zn2_4 1_555 1_555
C14_6 H12_5 1_555 1_555
H13_6 C14_6 1_555 1_555
H14_6 C14_6 1_555 1_555
C15_6 C14_6 1_555 1_555
C16_6 C15_6 1_555 1_555
H15_6 C16_6 1_555 1_555
C17_6 C16_6 1_555 1_555
C18_6 C17_6 1_555 1_555
C19_6 C18_6 1_555 1_555
H16_6 C19_6 1_555 1_555
C20_6 C19_6 1_555 1_555
H17_6 C20_6 1_555 1_555
C23_6 C18_6 1_555 1_555
H19_6 C23_6 1_555 1_555
O3_4 C15_6 1_555 1_555
O4_4 C17_6 1_555 1_555
Zn2_2 O3_4 1_555 1_555
O4_4 Zn2_2 1_555 1_555
C1_6 H1_6 1_555 1_555
H2_6 C1_6 1_555 1_555
C2_6 C1_6 1_555 1_555
C3_6 C2_6 1_555 1_555
H4_6 C3_6 1_555 1_555
C4_6 C3_6 1_555 1_555
C5_6 C4_6 1_555 1_555
C6_6 C5_6 1_555 1_555
H5_6 C6_6 1_555 1_555
C7_6 C6_6 1_555 1_555
H6_6 C7_6 1_555 1_555
C10_6 C5_6 1_555 1_555
H8_6 C10_6 1_555 1_555
O5 C2_6 1_555 1_555
O6 C4_6 1_555 1_555
Zn2_2 N1_7 1_555 1_555
C9_7 C8_7 1_555 1_555
H7_7 C9_7 1_555 1_555
C11_7 H9_7 1_555 1_555
C12_7 C11_7 1_555 1_555
H10_7 C12_7 1_555 1_555
C13_7 H11_7 1_555 1_555
C14_7 H12_6 1_555 1_555
H13_7 C14_7 1_555 1_555
H14_7 C14_7 1_555 1_555
C15_7 C14_7 1_555 1_555
C16_7 C15_7 1_555 1_555
H15_7 C16_7 1_555 1_555
C17_7 C16_7 1_555 1_555
C18_7 C17_7 1_555 1_555
C19_7 C18_7 1_555 1_555
H16_7 C19_7 1_555 1_555
C20_7 C19_7 1_555 1_555
H17_7 C20_7 1_555 1_555
C21_6 C20_7 1_555 1_555
C22_6 C21_6 1_555 1_555
H18_6 C22_6 1_555 1_555
C23_7 C18_7 1_555 1_555
H19_7 C23_7 1_555 1_555
C24_6 H20_6 1_555 1_555
C25_6 C24_6 1_555 1_555
H21_6 C25_6 1_555 1_555
C26_6 H22_6 1_555 1_555
N1_7 C12_7 1_555 1_555
N2_7 C8_7 1_555 1_555
N3_6 Zn2_2 1_555 1_555
N4_6 C21_6 1_555 1_555
O7_3 C15_7 1_555 1_555
O8_3 C17_7 1_555 1_555
C11_7 N2_7 1_555 1_555
C13_7 N1_7 1_555 1_555
C13_7 N2_7 1_555 1_555
C22_6 C23_7 1_555 1_555
C24_6 N4_6 1_555 1_555
C25_6 N3_6 1_555 1_555
C26_6 N3_6 1_555 1_555
C26_6 N4_6 1_555 1_555
Zn2 N1_8 1_555 1_555
C1_7 H1_7 1_555 1_555
H2_7 C1_7 1_555 1_555
H3_7 C1_7 1_555 1_555
C2_7 C1_7 1_555 1_555
C3_7 C2_7 1_555 1_555
H4_7 C3_7 1_555 1_555
C4_7 C3_7 1_555 1_555
C5_7 C4_7 1_555 1_555
C6_7 C5_7 1_555 1_555
H5_7 C6_7 1_555 1_555
C7_7 C6_7 1_555 1_555
H6_7 C7_7 1_555 1_555
C8_8 C7_7 1_555 1_555
C9_8 C8_8 1_555 1_555
H7_8 C9_8 1_555 1_555
C10_7 C5_7 1_555 1_555
H8_7 C10_7 1_555 1_555
C11_8 H9_8 1_555 1_555
C12_8 C11_8 1_555 1_555
H10_8 C12_8 1_555 1_555
C13_8 H11_8 1_555 1_555
H13_8 C14_8 1_555 1_555
H14_8 C14_8 1_555 1_555
C15_8 C14_8 1_555 1_555
C16_8 C15_8 1_555 1_555
H15_8 C16_8 1_555 1_555
C17_8 C16_8 1_555 1_555
C18_8 C17_8 1_555 1_555
C19_8 C18_8 1_555 1_555
H16_8 C19_8 1_555 1_555
C20_8 C19_8 1_555 1_555
H17_8 C20_8 1_555 1_555
C21_7 C20_8 1_555 1_555
C22_7 C21_7 1_555 1_555
H18_7 C22_7 1_555 1_555
C23_8 C18_8 1_555 1_555
H19_8 C23_8 1_555 1_555
C24_7 H20_7 1_555 1_555
C25_7 C24_7 1_555 1_555
H21_7 C25_7 1_555 1_555
C26_7 H22_7 1_555 1_555
N1_8 C12_8 1_555 1_555
N2_8 C8_8 1_555 1_555
N3_7 Zn2 1_555 1_555
N4_7 C21_7 1_555 1_555
O5_2 C2_7 1_555 1_555
O6_2 C4_7 1_555 1_555
O7_4 C15_8 1_555 1_555
O8_4 C17_8 1_555 1_555
C9_8 C10_7 1_555 1_555
C11_8 N2_8 1_555 1_555
C13_8 N1_8 1_555 1_555
C13_8 N2_8 1_555 1_555
C22_7 C23_8 1_555 1_555
C24_7 N4_7 1_555 1_555
C25_7 N3_7 1_555 1_555
C26_7 N3_7 1_555 1_555
C26_7 N4_7 1_555 1_555
C1_8 H1_8 1_555 1_555
H2_8 C1_8 1_555 1_555
C2_8 C1_8 1_555 1_555
C3_8 C2_8 1_555 1_555
H4_8 C3_8 1_555 1_555
C4_8 C3_8 1_555 1_555
C5_8 C4_8 1_555 1_555
C6_8 C5_8 1_555 1_555
H5_8 C6_8 1_555 1_555
C7_8 C6_8 1_555 1_555
H6_8 C7_8 1_555 1_555
C10_8 C5_8 1_555 1_555
H8_8 C10_8 1_555 1_555
O1_4 C2_8 1_555 1_555
O2_4 C4_8 1_555 1_555
C22_8 C21_8 1_555 1_555
H18_8 C22_8 1_555 1_555
C24_8 H20_8 1_555 1_555
C25_8 C24_8 1_555 1_555
H21_8 C25_8 1_555 1_555
C26_8 H22_8 1_555 1_555
N4_8 C21_8 1_555 1_555
C24_8 N4_8 1_555 1_555
C25_8 N3_8 1_555 1_555
C26_8 N3_8 1_555 1_555
C26_8 N4_8 1_555 1_555
C1_9 H1_9 1_555 1_555
H2_9 C1_9 1_555 1_555
H3_9 C1_9 1_555 1_555
C2_9 C1_9 1_555 1_555
C3_9 C2_9 1_555 1_555
H4_9 C3_9 1_555 1_555
C4_9 C3_9 1_555 1_555
C5_9 C4_9 1_555 1_555
C6_9 C5_9 1_555 1_555
H5_9 C6_9 1_555 1_555
C7_9 C6_9 1_555 1_555
H6_9 C7_9 1_555 1_555
C8_9 C7_9 1_555 1_555
C9_9 C8_9 1_555 1_555
H7_9 C9_9 1_555 1_555
C10_9 C5_9 1_555 1_555
H8_9 C10_9 1_555 1_555
C11_9 H9_9 1_555 1_555
C12_9 C11_9 1_555 1_555
H10_9 C12_9 1_555 1_555
C13_9 H11_9 1_555 1_555
N1_9 C12_9 1_555 1_555
N2_9 C8_9 1_555 1_555
O1_5 C2_9 1_555 1_555
O2_5 C4_9 1_555 1_555
Zn2_5 O1_5 1_555 1_555
C9_9 C10_9 1_555 1_555
C11_9 N2_9 1_555 1_555
C13_9 N1_9 1_555 1_555
C13_9 N2_9 1_555 1_555
O2_5 Zn2_5 1_555 1_555
C14_9 H12_9 1_555 1_555
H13_9 C14_9 1_555 1_555
H14_9 C14_9 1_555 1_555
C15_9 C14_9 1_555 1_555
C16_9 C15_9 1_555 1_555
H15_9 C16_9 1_555 1_555
C17_9 C16_9 1_555 1_555
C18_9 C17_9 1_555 1_555
C19_9 C18_9 1_555 1_555
H16_9 C19_9 1_555 1_555
C20_9 C19_9 1_555 1_555
H17_9 C20_9 1_555 1_555
C23_9 C18_9 1_555 1_555
H19_9 C23_9 1_555 1_555
O3_5 C15_9 1_555 1_555
O4_5 C17_9 1_555 1_555
Zn3_3 O3_5 1_555 1_555
O4_5 Zn3_3 1_555 1_555
C22_9 C21_9 1_555 1_555
H18_9 C22_9 1_555 1_555
C24_9 H20_9 1_555 1_555
C25_9 C24_9 1_555 1_555
H21_9 C25_9 1_555 1_555
C26_9 H22_9 1_555 1_555
N3_9 Zn1_3 1_555 1_555
N4_9 C21_9 1_555 1_555
O7_5 Zn1_3 1_555 1_555
O8_5 Zn1_3 1_555 1_555
C24_9 N4_9 1_555 1_555
C25_9 N3_9 1_555 1_555
C26_9 N3_9 1_555 1_555
C26_9 N4_9 1_555 1_555
Zn1_4 N1_10 1_555 1_555
C1_10 H1_10 1_555 1_555
H2_10 C1_10 1_555 1_555
H3_10 C1_10 1_555 1_555
C2_10 C1_10 1_555 1_555
C3_10 C2_10 1_555 1_555
H4_10 C3_10 1_555 1_555
C4_10 C3_10 1_555 1_555
C5_10 C4_10 1_555 1_555
C6_10 C5_10 1_555 1_555
H5_10 C6_10 1_555 1_555
C7_10 C6_10 1_555 1_555
H6_10 C7_10 1_555 1_555
C8_10 C7_10 1_555 1_555
C9_10 C8_10 1_555 1_555
H7_10 C9_10 1_555 1_555
C10_10 C5_10 1_555 1_555
H8_10 C10_10 1_555 1_555
C11_10 H9_10 1_555 1_555
C12_10 C11_10 1_555 1_555
H10_10 C12_10 1_555 1_555
C13_10 H11_10 1_555 1_555
C14_10 H12_10 1_555 1_555
H13_10 C14_10 1_555 1_555
H14_10 C14_10 1_555 1_555
C15_10 C14_10 1_555 1_555
C16_10 C15_10 1_555 1_555
H15_10 C16_10 1_555 1_555
C17_10 C16_10 1_555 1_555
C18_10 C17_10 1_555 1_555
C19_10 C18_10 1_555 1_555
H16_10 C19_10 1_555 1_555
C20_10 C19_10 1_555 1_555
H17_10 C20_10 1_555 1_555
C21_10 C20_10 1_555 1_555
C22_10 C21_10 1_555 1_555
H18_10 C22_10 1_555 1_555
C23_10 C18_10 1_555 1_555
H19_10 C23_10 1_555 1_555
C24_10 H20_10 1_555 1_555
C25_10 C24_10 1_555 1_555
H21_10 C25_10 1_555 1_555
C26_10 H22_10 1_555 1_555
N1_10 C12_10 1_555 1_555
N2_10 C8_10 1_555 1_555
N3_10 Zn1_4 1_555 1_555
N4_10 C21_10 1_555 1_555
O1_6 C2_10 1_555 1_555
O2_6 C4_10 1_555 1_555
O3_6 C15_10 1_555 1_555
O4_6 C17_10 1_555 1_555
Zn2_6 O1_6 1_555 1_555
Zn3_4 O3_6 1_555 1_555
O5_6 Zn1_4 1_555 1_555
O6_6 Zn1_4 1_555 1_555
O7_6 Zn1_4 1_555 1_555
O8_6 Zn1_4 1_555 1_555
C9_10 C10_10 1_555 1_555
C11_10 N2_10 1_555 1_555
C13_10 N1_10 1_555 1_555
C13_10 N2_10 1_555 1_555
C22_10 C23_10 1_555 1_555
C24_10 N4_10 1_555 1_555
C25_10 N3_10 1_555 1_555
C26_10 N3_10 1_555 1_555
C26_10 N4_10 1_555 1_555
O2_6 Zn2_6 1_555 1_555
O4_6 Zn3_4 1_555 1_555
Zn3_4 N1_11 1_555 1_555
C1_11 H1_11 1_555 1_555
H2_11 C1_11 1_555 1_555
H3_11 C1_11 1_555 1_555
C2_11 C1_11 1_555 1_555
C3_11 C2_11 1_555 1_555
H4_11 C3_11 1_555 1_555
C4_11 C3_11 1_555 1_555
C5_11 C4_11 1_555 1_555
C6_11 C5_11 1_555 1_555
H5_11 C6_11 1_555 1_555
C7_11 C6_11 1_555 1_555
H6_11 C7_11 1_555 1_555
C8_11 C7_11 1_555 1_555
C9_11 C8_11 1_555 1_555
H7_11 C9_11 1_555 1_555
C10_11 C5_11 1_555 1_555
H8_11 C10_11 1_555 1_555
C11_11 H9_11 1_555 1_555
C12_11 C11_11 1_555 1_555
H10_11 C12_11 1_555 1_555
C13_11 H11_11 1_555 1_555
H13_11 C14_11 1_555 1_555
H14_11 C14_11 1_555 1_555
C15_11 C14_11 1_555 1_555
C16_11 C15_11 1_555 1_555
H15_11 C16_11 1_555 1_555
C17_11 C16_11 1_555 1_555
C18_11 C17_11 1_555 1_555
C19_11 C18_11 1_555 1_555
H16_11 C19_11 1_555 1_555
C20_11 C19_11 1_555 1_555
H17_11 C20_11 1_555 1_555
C21_11 C20_11 1_555 1_555
C22_11 C21_11 1_555 1_555
H18_11 C22_11 1_555 1_555
C23_11 C18_11 1_555 1_555
H19_11 C23_11 1_555 1_555
C24_11 H20_11 1_555 1_555
C25_11 C24_11 1_555 1_555
H21_11 C25_11 1_555 1_555
C26_11 H22_11 1_555 1_555
N1_11 C12_11 1_555 1_555
N2_11 C8_11 1_555 1_555
N3_11 Zn3_4 1_555 1_555
N4_11 C21_11 1_555 1_555
O1_7 C2_11 1_555 1_555
O2_7 C4_11 1_555 1_555
O7_5 C15_11 1_555 1_555
O8_5 C17_11 1_555 1_555
O5_7 Zn3_4 1_555 1_555
O6_7 Zn3_4 1_555 1_555
C9_11 C10_11 1_555 1_555
C11_11 N2_11 1_555 1_555
C13_11 N1_11 1_555 1_555
C13_11 N2_11 1_555 1_555
C22_11 C23_11 1_555 1_555
C24_11 N4_11 1_555 1_555
C25_11 N3_11 1_555 1_555
C26_11 N3_11 1_555 1_555
C26_11 N4_11 1_555 1_555
Zn3_3 N1_12 1_555 1_555
C9_12 C8_12 1_555 1_555
H7_12 C9_12 1_555 1_555
C11_12 H9_12 1_555 1_555
C12_12 C11_12 1_555 1_555
H10_12 C12_12 1_555 1_555
C13_12 H11_12 1_555 1_555
C14_12 H12_11 1_555 1_555
H13_12 C14_12 1_555 1_555
H14_12 C14_12 1_555 1_555
C15_12 C14_12 1_555 1_555
C16_12 C15_12 1_555 1_555
H15_12 C16_12 1_555 1_555
C17_12 C16_12 1_555 1_555
C18_12 C17_12 1_555 1_555
C19_12 C18_12 1_555 1_555
H16_12 C19_12 1_555 1_555
C20_12 C19_12 1_555 1_555
H17_12 C20_12 1_555 1_555
C21_12 C20_12 1_555 1_555
C22_12 C21_12 1_555 1_555
H18_12 C22_12 1_555 1_555
C23_12 C18_12 1_555 1_555
H19_12 C23_12 1_555 1_555
C24_12 H20_12 1_555 1_555
C25_12 C24_12 1_555 1_555
H21_12 C25_12 1_555 1_555
C26_12 H22_12 1_555 1_555
N1_12 C12_12 1_555 1_555
N2_12 C8_12 1_555 1_555
N3_12 Zn3_3 1_555 1_555
N4_12 C21_12 1_555 1_555
O7_6 C15_12 1_555 1_555
O8_6 C17_12 1_555 1_555
O5_8 Zn3_3 1_555 1_555
O6_8 Zn3_3 1_555 1_555
C11_12 N2_12 1_555 1_555
C13_12 N1_12 1_555 1_555
C13_12 N2_12 1_555 1_555
C22_12 C23_12 1_555 1_555
C24_12 N4_12 1_555 1_555
C25_12 N3_12 1_555 1_555
C26_12 N3_12 1_555 1_555
C26_12 N4_12 1_555 1_555
Zn2_7 N1_13 1_555 1_555
C1_12 H1_12 1_555 1_555
H2_12 C1_12 1_555 1_555
H3_12 C1_12 1_555 1_555
C2_12 C1_12 1_555 1_555
C3_12 C2_12 1_555 1_555
H4_12 C3_12 1_555 1_555
C4_12 C3_12 1_555 1_555
C5_12 C4_12 1_555 1_555
C6_12 C5_12 1_555 1_555
H5_12 C6_12 1_555 1_555
C7_12 C6_12 1_555 1_555
H6_12 C7_12 1_555 1_555
C8_13 C7_12 1_555 1_555
C9_13 C8_13 1_555 1_555
H7_13 C9_13 1_555 1_555
C10_12 C5_12 1_555 1_555
H8_12 C10_12 1_555 1_555
C11_13 H9_13 1_555 1_555
C12_13 C11_13 1_555 1_555
H10_13 C12_13 1_555 1_555
C13_13 H11_13 1_555 1_555
N1_13 C12_13 1_555 1_555
N2_13 C8_13 1_555 1_555
O5_8 C2_12 1_555 1_555
O6_8 C4_12 1_555 1_555
O7_7 Zn2_7 1_555 1_555
O8_7 Zn2_7 1_555 1_555
C9_13 C10_12 1_555 1_555
C11_13 N2_13 1_555 1_555
C13_13 N1_13 1_555 1_555
C13_13 N2_13 1_555 1_555
C14_13 H12_12 1_555 1_555
H13_13 C14_13 1_555 1_555
H14_13 C14_13 1_555 1_555
C15_13 C14_13 1_555 1_555
C16_13 C15_13 1_555 1_555
H15_13 C16_13 1_555 1_555
C17_13 C16_13 1_555 1_555
C18_13 C17_13 1_555 1_555
C19_13 C18_13 1_555 1_555
H16_13 C19_13 1_555 1_555
C20_13 C19_13 1_555 1_555
H17_13 C20_13 1_555 1_555
C21_13 C20_13 1_555 1_555
C22_13 C21_13 1_555 1_555
H18_13 C22_13 1_555 1_555
C23_13 C18_13 1_555 1_555
H19_13 C23_13 1_555 1_555
C24_13 H20_13 1_555 1_555
C25_13 C24_13 1_555 1_555
H21_13 C25_13 1_555 1_555
C26_13 H22_13 1_555 1_555
N4_13 C21_13 1_555 1_555
O3_7 C15_13 1_555 1_555
O4_7 C17_13 1_555 1_555
Zn2_5 O3_7 1_555 1_555
C22_13 C23_13 1_555 1_555
C24_13 N4_13 1_555 1_555
C25_13 N3_13 1_555 1_555
C26_13 N3_13 1_555 1_555
C26_13 N4_13 1_555 1_555
O4_7 Zn2_5 1_555 1_555
C14_14 H12_13 1_555 1_555
H13_14 C14_14 1_555 1_555
H14_14 C14_14 1_555 1_555
C15_14 C14_14 1_555 1_555
C16_14 C15_14 1_555 1_555
H15_14 C16_14 1_555 1_555
C17_14 C16_14 1_555 1_555
C18_14 C17_14 1_555 1_555
C19_14 C18_14 1_555 1_555
H16_14 C19_14 1_555 1_555
C20_14 C19_14 1_555 1_555
H17_14 C20_14 1_555 1_555
C23_14 C18_14 1_555 1_555
H19_14 C23_14 1_555 1_555
O3_8 C15_14 1_555 1_555
O4_8 C17_14 1_555 1_555
Zn2_6 O3_8 1_555 1_555
O4_8 Zn2_6 1_555 1_555
O7_8 Zn2_8 1_555 1_555
O8_8 Zn2_8 1_555 1_555
C1_13 H1_13 1_555 1_555
H2_13 C1_13 1_555 1_555
H3_13 C1_13 1_555 1_555
C2_13 C1_13 1_555 1_555
C3_13 C2_13 1_555 1_555
H4_13 C3_13 1_555 1_555
C4_13 C3_13 1_555 1_555
C5_13 C4_13 1_555 1_555
C6_13 C5_13 1_555 1_555
H5_13 C6_13 1_555 1_555
C7_13 C6_13 1_555 1_555
H6_13 C7_13 1_555 1_555
C8_14 C7_13 1_555 1_555
C9_14 C8_14 1_555 1_555
H7_14 C9_14 1_555 1_555
C10_13 C5_13 1_555 1_555
H8_13 C10_13 1_555 1_555
C11_14 H9_14 1_555 1_555
C12_14 C11_14 1_555 1_555
H10_14 C12_14 1_555 1_555
C13_14 H11_14 1_555 1_555
N1_14 C12_14 1_555 1_555
N2_14 C8_14 1_555 1_555
O5_7 C2_13 1_555 1_555
O6_7 C4_13 1_555 1_555
C9_14 C10_13 1_555 1_555
C11_14 N2_14 1_555 1_555
C13_14 N1_14 1_555 1_555
C13_14 N2_14 1_555 1_555
Zn2_6 N1_15 1_555 1_555
C9_15 C8_15 1_555 1_555
H7_15 C9_15 1_555 1_555
C11_15 H9_15 1_555 1_555
C12_15 C11_15 1_555 1_555
H10_15 C12_15 1_555 1_555
C13_15 H11_15 1_555 1_555
C14_15 H12_14 1_555 1_555
H13_15 C14_15 1_555 1_555
H14_15 C14_15 1_555 1_555
C15_15 C14_15 1_555 1_555
C16_15 C15_15 1_555 1_555
H15_15 C16_15 1_555 1_555
C17_15 C16_15 1_555 1_555
C18_15 C17_15 1_555 1_555
C19_15 C18_15 1_555 1_555
H16_15 C19_15 1_555 1_555
C20_15 C19_15 1_555 1_555
H17_15 C20_15 1_555 1_555
C21_14 C20_15 1_555 1_555
C22_14 C21_14 1_555 1_555
H18_14 C22_14 1_555 1_555
C23_15 C18_15 1_555 1_555
H19_15 C23_15 1_555 1_555
C24_14 H20_14 1_555 1_555
C25_14 C24_14 1_555 1_555
H21_14 C25_14 1_555 1_555
C26_14 H22_14 1_555 1_555
N1_15 C12_15 1_555 1_555
N2_15 C8_15 1_555 1_555
N3_14 Zn2_6 1_555 1_555
N4_14 C21_14 1_555 1_555
O7_7 C15_15 1_555 1_555
O8_7 C17_15 1_555 1_555
C11_15 N2_15 1_555 1_555
C13_15 N1_15 1_555 1_555
C13_15 N2_15 1_555 1_555
C22_14 C23_15 1_555 1_555
C24_14 N4_14 1_555 1_555
C25_14 N3_14 1_555 1_555
C26_14 N3_14 1_555 1_555
C26_14 N4_14 1_555 1_555
C1_14 H1_14 1_555 1_555
H2_14 C1_14 1_555 1_555
C2_14 C1_14 1_555 1_555
C3_14 C2_14 1_555 1_555
H4_14 C3_14 1_555 1_555
C4_14 C3_14 1_555 1_555
C5_14 C4_14 1_555 1_555
C6_14 C5_14 1_555 1_555
H5_14 C6_14 1_555 1_555
C7_14 C6_14 1_555 1_555
H6_14 C7_14 1_555 1_555
C10_14 C5_14 1_555 1_555
H8_14 C10_14 1_555 1_555
O5_5 C2_14 1_555 1_555
O6_5 C4_14 1_555 1_555
Zn2_5 N1_16 1_555 1_555
C1_15 H1_15 1_555 1_555
H2_15 C1_15 1_555 1_555
H3_15 C1_15 1_555 1_555
C2_15 C1_15 1_555 1_555
C3_15 C2_15 1_555 1_555
H4_15 C3_15 1_555 1_555
C4_15 C3_15 1_555 1_555
C5_15 C4_15 1_555 1_555
C6_15 C5_15 1_555 1_555
H5_15 C6_15 1_555 1_555
C7_15 C6_15 1_555 1_555
H6_15 C7_15 1_555 1_555
C8_16 C7_15 1_555 1_555
C9_16 C8_16 1_555 1_555
H7_16 C9_16 1_555 1_555
C10_15 C5_15 1_555 1_555
H8_15 C10_15 1_555 1_555
C11_16 H9_16 1_555 1_555
C12_16 C11_16 1_555 1_555
H10_16 C12_16 1_555 1_555
C13_16 H11_16 1_555 1_555
H13_16 C14_16 1_555 1_555
H14_16 C14_16 1_555 1_555
C15_16 C14_16 1_555 1_555
C16_16 C15_16 1_555 1_555
H15_16 C16_16 1_555 1_555
C17_16 C16_16 1_555 1_555
C18_16 C17_16 1_555 1_555
C19_16 C18_16 1_555 1_555
H16_16 C19_16 1_555 1_555
C20_16 C19_16 1_555 1_555
H17_16 C20_16 1_555 1_555
C21_15 C20_16 1_555 1_555
C22_15 C21_15 1_555 1_555
H18_15 C22_15 1_555 1_555
C23_16 C18_16 1_555 1_555
H19_16 C23_16 1_555 1_555
C24_15 H20_15 1_555 1_555
C25_15 C24_15 1_555 1_555
H21_15 C25_15 1_555 1_555
C26_15 H22_15 1_555 1_555
N1_16 C12_16 1_555 1_555
N2_16 C8_16 1_555 1_555
N3_15 Zn2_5 1_555 1_555
N4_15 C21_15 1_555 1_555
O5_6 C2_15 1_555 1_555
O6_6 C4_15 1_555 1_555
O7_8 C15_16 1_555 1_555
O8_8 C17_16 1_555 1_555
C9_16 C10_15 1_555 1_555
C11_16 N2_16 1_555 1_555
C13_16 N1_16 1_555 1_555
C13_16 N2_16 1_555 1_555
C22_15 C23_16 1_555 1_555
C24_15 N4_15 1_555 1_555
C25_15 N3_15 1_555 1_555
C26_15 N3_15 1_555 1_555
C26_15 N4_15 1_555 1_555
C1_16 H1_16 1_555 1_555
H2_16 C1_16 1_555 1_555
C2_16 C1_16 1_555 1_555
C3_16 C2_16 1_555 1_555
H4_16 C3_16 1_555 1_555
C4_16 C3_16 1_555 1_555
C5_16 C4_16 1_555 1_555
C6_16 C5_16 1_555 1_555
H5_16 C6_16 1_555 1_555
C7_16 C6_16 1_555 1_555
H6_16 C7_16 1_555 1_555
C10_16 C5_16 1_555 1_555
H8_16 C10_16 1_555 1_555
O1_8 C2_16 1_555 1_555
O2_8 C4_16 1_555 1_555
C22_16 C21_16 1_555 1_555
H18_16 C22_16 1_555 1_555
C24_16 H20_16 1_555 1_555
C25_16 C24_16 1_555 1_555
H21_16 C25_16 1_555 1_555
C26_16 H22_16 1_555 1_555
N4_16 C21_16 1_555 1_555
C24_16 N4_16 1_555 1_555
C25_16 N3_16 1_555 1_555
C26_16 N3_16 1_555 1_555
C26_16 N4_16 1_555 1_555
Zn4 N5 1_555 1_555
C27 H23 1_555 1_555
H24 C27 1_555 1_555
H25 C27 1_555 1_555
C28 C27 1_555 1_555
C29 C28 1_555 1_555
H26 C29 1_555 1_555
C30 C29 1_555 1_555
C31 C30 1_555 1_555
C32 C31 1_555 1_555
H27 C32 1_555 1_555
C33 C32 1_555 1_555
H28 C33 1_555 1_555
C34 C33 1_555 1_555
C35 C34 1_555 1_555
H29 C35 1_555 1_555
C36 C31 1_555 1_555
H30 C36 1_555 1_555
C37 H31 1_555 1_555
C38 C37 1_555 1_555
H32 C38 1_555 1_555
C39 H33 1_555 1_555
C50 H42 1_555 1_555
C51 C50 1_555 1_555
H43 C51 1_555 1_555
C52 H44 1_555 1_555
N5 C38 1_555 1_555
N6 C34 1_555 1_555
N7 Zn4 1_555 1_555
O9 C28 1_555 1_555
O10 C30 1_555 1_555
O13 Zn4 1_555 1_555
O14 Zn4 1_555 1_555
O15 Zn4 1_555 1_555
O16 Zn4 1_555 1_555
C35 C36 1_555 1_555
C37 N6 1_555 1_555
C39 N5 1_555 1_555
C39 N6 1_555 1_555
C50 N8 1_555 1_555
C51 N7 1_555 1_555
C52 N7 1_555 1_555
C52 N8 1_555 1_555
C40 H34 1_555 1_555
H35 C40 1_555 1_555
H36 C40 1_555 1_555
C41 C40 1_555 1_555
C42 C41 1_555 1_555
H37 C42 1_555 1_555
C43 C42 1_555 1_555
C44 C43 1_555 1_555
C45 C44 1_555 1_555
H38 C45 1_555 1_555
C46 C45 1_555 1_555
C47 C46 1_555 1_555
C48 C47 1_555 1_555
H40 C48 1_555 1_555
C49 C44 1_555 1_555
H41 C49 1_555 1_555
O11 C41 1_555 1_555
O12 C43 1_555 1_555
Zn6 O11 1_555 1_555
C48 C49 1_555 1_555
O12 Zn6 1_555 1_555
Zn4_2 N5_2 1_555 1_555
C27_2 H23_2 1_555 1_555
H24_2 C27_2 1_555 1_555
H25_2 C27_2 1_555 1_555
C28_2 C27_2 1_555 1_555
C29_2 C28_2 1_555 1_555
H26_2 C29_2 1_555 1_555
C30_2 C29_2 1_555 1_555
C31_2 C30_2 1_555 1_555
C32_2 C31_2 1_555 1_555
H27_2 C32_2 1_555 1_555
C33_2 C32_2 1_555 1_555
H28_2 C33_2 1_555 1_555
C34_2 C33_2 1_555 1_555
C35_2 C34_2 1_555 1_555
H29_2 C35_2 1_555 1_555
C36_2 C31_2 1_555 1_555
H30_2 C36_2 1_555 1_555
C37_2 H31_2 1_555 1_555
C38_2 C37_2 1_555 1_555
H32_2 C38_2 1_555 1_555
C39_2 H33_2 1_555 1_555
H35_2 C40_2 1_555 1_555
H36_2 C40_2 1_555 1_555
C41_2 C40_2 1_555 1_555
C42_2 C41_2 1_555 1_555
H37_2 C42_2 1_555 1_555
C43_2 C42_2 1_555 1_555
C44_2 C43_2 1_555 1_555
C45_2 C44_2 1_555 1_555
H38_2 C45_2 1_555 1_555
C46_2 C45_2 1_555 1_555
H39_2 C46_2 1_555 1_555
C47_2 C46_2 1_555 1_555
C48_2 C47_2 1_555 1_555
H40_2 C48_2 1_555 1_555
C49_2 C44_2 1_555 1_555
H41_2 C49_2 1_555 1_555
C50_2 H42_2 1_555 1_555
C51_2 C50_2 1_555 1_555
H43_2 C51_2 1_555 1_555
C52_2 H44_2 1_555 1_555
N5_2 C38_2 1_555 1_555
N6_2 C34_2 1_555 1_555
N7_2 Zn4_2 1_555 1_555
N8_2 C47_2 1_555 1_555
O9_2 C28_2 1_555 1_555
O10_2 C30_2 1_555 1_555
O11_2 C41_2 1_555 1_555
O12_2 C43_2 1_555 1_555
O13_2 Zn4_2 1_555 1_555
O14_2 Zn4_2 1_555 1_555
O15_2 Zn4_2 1_555 1_555
O16_2 Zn4_2 1_555 1_555
C35_2 C36_2 1_555 1_555
C37_2 N6_2 1_555 1_555
C39_2 N5_2 1_555 1_555
C39_2 N6_2 1_555 1_555
C48_2 C49_2 1_555 1_555
C50_2 N8_2 1_555 1_555
C51_2 N7_2 1_555 1_555
C52_2 N7_2 1_555 1_555
C52_2 N8_2 1_555 1_555
C40_3 H34_3 1_555 1_555
H35_3 C40_3 1_555 1_555
H36_3 C40_3 1_555 1_555
C41_3 C40_3 1_555 1_555
C42_3 C41_3 1_555 1_555
H37_3 C42_3 1_555 1_555
C43_3 C42_3 1_555 1_555
C44_3 C43_3 1_555 1_555
C45_3 C44_3 1_555 1_555
H38_3 C45_3 1_555 1_555
C46_3 C45_3 1_555 1_555
H39_3 C46_3 1_555 1_555
C47_3 C46_3 1_555 1_555
C48_3 C47_3 1_555 1_555
H40_3 C48_3 1_555 1_555
C49_3 C44_3 1_555 1_555
H41_3 C49_3 1_555 1_555
C50_3 H42_3 1_555 1_555
C51_3 C50_3 1_555 1_555
H43_3 C51_3 1_555 1_555
C52_3 H44_3 1_555 1_555
N8_3 C47_3 1_555 1_555
O15 C41_3 1_555 1_555
O16 C43_3 1_555 1_555
C48_3 C49_3 1_555 1_555
C50_3 N8_3 1_555 1_555
C51_3 N7_3 1_555 1_555
C52_3 N7_3 1_555 1_555
C52_3 N8_3 1_555 1_555
Zn6_2 N5_3 1_555 1_555
C27_3 H23_3 1_555 1_555
H24_3 C27_3 1_555 1_555
H25_3 C27_3 1_555 1_555
C28_3 C27_3 1_555 1_555
C29_3 C28_3 1_555 1_555
H26_3 C29_3 1_555 1_555
C30_3 C29_3 1_555 1_555
C31_3 C30_3 1_555 1_555
C32_3 C31_3 1_555 1_555
H27_3 C32_3 1_555 1_555
C33_3 C32_3 1_555 1_555
H28_3 C33_3 1_555 1_555
C34_3 C33_3 1_555 1_555
C35_3 C34_3 1_555 1_555
H29_3 C35_3 1_555 1_555
C36_3 C31_3 1_555 1_555
H30_3 C36_3 1_555 1_555
C37_3 H31_3 1_555 1_555
C38_3 C37_3 1_555 1_555
H32_3 C38_3 1_555 1_555
C39_3 H33_3 1_555 1_555
N5_3 C38_3 1_555 1_555
N6_3 C34_3 1_555 1_555
O9_3 C28_3 1_555 1_555
O10_3 C30_3 1_555 1_555
Zn5_2 O9_3 1_555 1_555
O13_3 Zn6_2 1_555 1_555
O14_3 Zn6_2 1_555 1_555
C35_3 C36_3 1_555 1_555
C37_3 N6_3 1_555 1_555
C39_3 N5_3 1_555 1_555
C39_3 N6_3 1_555 1_555
O10_3 Zn5_2 1_555 1_555
C27_4 H23_4 1_555 1_555
H24_4 C27_4 1_555 1_555
H25_4 C27_4 1_555 1_555
C28_4 C27_4 1_555 1_555
C29_4 C28_4 1_555 1_555
H26_4 C29_4 1_555 1_555
C30_4 C29_4 1_555 1_555
C31_4 C30_4 1_555 1_555
C32_4 C31_4 1_555 1_555
H27_4 C32_4 1_555 1_555
O9_4 C28_4 1_555 1_555
O10_4 C30_4 1_555 1_555
Zn5_3 O9_4 1_555 1_555
O10_4 Zn5_3 1_555 1_555
Zn6 N5_4 1_555 1_555
H28_4 C33_4 1_555 1_555
C34_4 C33_4 1_555 1_555
C35_4 C34_4 1_555 1_555
H29_4 C35_4 1_555 1_555
C37_4 H31_4 1_555 1_555
C38_4 C37_4 1_555 1_555
H32_4 C38_4 1_555 1_555
C39_4 H33_4 1_555 1_555
C40_4 H34_4 1_555 1_555
H35_4 C40_4 1_555 1_555
H36_4 C40_4 1_555 1_555
C41_4 C40_4 1_555 1_555
C42_4 C41_4 1_555 1_555
H37_4 C42_4 1_555 1_555
C43_4 C42_4 1_555 1_555
C44_4 C43_4 1_555 1_555
C45_4 C44_4 1_555 1_555
H38_4 C45_4 1_555 1_555
C46_4 C45_4 1_555 1_555
H39_4 C46_4 1_555 1_555
C47_4 C46_4 1_555 1_555
C48_4 C47_4 1_555 1_555
H40_4 C48_4 1_555 1_555
C49_4 C44_4 1_555 1_555
H41_4 C49_4 1_555 1_555
C50_4 H42_4 1_555 1_555
C51_4 C50_4 1_555 1_555
H43_4 C51_4 1_555 1_555
C52_4 H44_4 1_555 1_555
N5_4 C38_4 1_555 1_555
N6_4 C34_4 1_555 1_555
N7_4 Zn6 1_555 1_555
N8_4 C47_4 1_555 1_555
O15_2 C41_4 1_555 1_555
O16_2 C43_4 1_555 1_555
O13_4 Zn6 1_555 1_555
O14_4 Zn6 1_555 1_555
C35_4 C36_4 1_555 1_555
C37_4 N6_4 1_555 1_555
C39_4 N5_4 1_555 1_555
C39_4 N6_4 1_555 1_555
C48_4 C49_4 1_555 1_555
C50_4 N8_4 1_555 1_555
C51_4 N7_4 1_555 1_555
C52_4 N7_4 1_555 1_555
C52_4 N8_4 1_555 1_555
Zn5_2 N5_5 1_555 1_555
C27_5 H23_5 1_555 1_555
H24_5 C27_5 1_555 1_555
H25_5 C27_5 1_555 1_555
C28_5 C27_5 1_555 1_555
C29_5 C28_5 1_555 1_555
H26_5 C29_5 1_555 1_555
C30_5 C29_5 1_555 1_555
C31_5 C30_5 1_555 1_555
C32_5 C31_5 1_555 1_555
H27_5 C32_5 1_555 1_555
C33_5 C32_5 1_555 1_555
H28_5 C33_5 1_555 1_555
C34_5 C33_5 1_555 1_555
C35_5 C34_5 1_555 1_555
H29_5 C35_5 1_555 1_555
C36_5 C31_5 1_555 1_555
H30_5 C36_5 1_555 1_555
C37_5 H31_5 1_555 1_555
C38_5 C37_5 1_555 1_555
H32_5 C38_5 1_555 1_555
C39_5 H33_5 1_555 1_555
H35_5 C40_5 1_555 1_555
H36_5 C40_5 1_555 1_555
C41_5 C40_5 1_555 1_555
C42_5 C41_5 1_555 1_555
H37_5 C42_5 1_555 1_555
C43_5 C42_5 1_555 1_555
C44_5 C43_5 1_555 1_555
C45_5 C44_5 1_555 1_555
H38_5 C45_5 1_555 1_555
C46_5 C45_5 1_555 1_555
H39_5 C46_5 1_555 1_555
C47_5 C46_5 1_555 1_555
C48_5 C47_5 1_555 1_555
H40_5 C48_5 1_555 1_555
C49_5 C44_5 1_555 1_555
H41_5 C49_5 1_555 1_555
C50_5 H42_5 1_555 1_555
C51_5 C50_5 1_555 1_555
H43_5 C51_5 1_555 1_555
C52_5 H44_5 1_555 1_555
N5_5 C38_5 1_555 1_555
N6_5 C34_5 1_555 1_555
N7_5 Zn5_2 1_555 1_555
N8_5 C47_5 1_555 1_555
O13_4 C28_5 1_555 1_555
O14_4 C30_5 1_555 1_555
O11_3 C41_5 1_555 1_555
O12_3 C43_5 1_555 1_555
O15_3 Zn5_2 1_555 1_555
O16_3 Zn5_2 1_555 1_555
C35_5 C36_5 1_555 1_555
C37_5 N6_5 1_555 1_555
C39_5 N5_5 1_555 1_555
C39_5 N6_5 1_555 1_555
C48_5 C49_5 1_555 1_555
C50_5 N8_5 1_555 1_555
C51_5 N7_5 1_555 1_555
C52_5 N7_5 1_555 1_555
C52_5 N8_5 1_555 1_555
Zn5_3 N5_6 1_555 1_555
C27_6 H23_6 1_555 1_555
H24_6 C27_6 1_555 1_555
H25_6 C27_6 1_555 1_555
C28_6 C27_6 1_555 1_555
C29_6 C28_6 1_555 1_555
H26_6 C29_6 1_555 1_555
C30_6 C29_6 1_555 1_555
C31_6 C30_6 1_555 1_555
C32_6 C31_6 1_555 1_555
H27_6 C32_6 1_555 1_555
C33_6 C32_6 1_555 1_555
H28_6 C33_6 1_555 1_555
C34_6 C33_6 1_555 1_555
C35_6 C34_6 1_555 1_555
H29_6 C35_6 1_555 1_555
C36_6 C31_6 1_555 1_555
H30_6 C36_6 1_555 1_555
C37_6 H31_6 1_555 1_555
C38_6 C37_6 1_555 1_555
H32_6 C38_6 1_555 1_555
C39_6 H33_6 1_555 1_555
C50_6 H42_6 1_555 1_555
C51_6 C50_6 1_555 1_555
H43_6 C51_6 1_555 1_555
C52_6 H44_6 1_555 1_555
N5_6 C38_6 1_555 1_555
N6_6 C34_6 1_555 1_555
N7_6 Zn5_3 1_555 1_555
O13_3 C28_6 1_555 1_555
O14_3 C30_6 1_555 1_555
O15_4 Zn5_3 1_555 1_555
O16_4 Zn5_3 1_555 1_555
C35_6 C36_6 1_555 1_555
C37_6 N6_6 1_555 1_555
C39_6 N5_6 1_555 1_555
C39_6 N6_6 1_555 1_555
C50_6 N8_6 1_555 1_555
C51_6 N7_6 1_555 1_555
C52_6 N7_6 1_555 1_555
C52_6 N8_6 1_555 1_555
C40_6 H34_6 1_555 1_555
H35_6 C40_6 1_555 1_555
H36_6 C40_6 1_555 1_555
C41_6 C40_6 1_555 1_555
C42_6 C41_6 1_555 1_555
H37_6 C42_6 1_555 1_555
C43_6 C42_6 1_555 1_555
C44_6 C43_6 1_555 1_555
C45_6 C44_6 1_555 1_555
H38_6 C45_6 1_555 1_555
C46_6 C45_6 1_555 1_555
H39_7 C46_6 1_555 1_555
C47_6 C46_6 1_555 1_555
C48_6 C47_6 1_555 1_555
H40_6 C48_6 1_555 1_555
C49_6 C44_6 1_555 1_555
H41_6 C49_6 1_555 1_555
C50_7 H42_7 1_555 1_555
C51_7 C50_7 1_555 1_555
H43_7 C51_7 1_555 1_555
C52_7 H44_7 1_555 1_555
N8_7 C47_6 1_555 1_555
O15_3 C41_6 1_555 1_555
O16_3 C43_6 1_555 1_555
C48_6 C49_6 1_555 1_555
C50_7 N8_7 1_555 1_555
C51_7 N7_7 1_555 1_555
C52_7 N7_7 1_555 1_555
C52_7 N8_7 1_555 1_555
C27_7 H23_7 1_555 1_555
H24_7 C27_7 1_555 1_555
H25_7 C27_7 1_555 1_555
C28_7 C27_7 1_555 1_555
C29_7 C28_7 1_555 1_555
H26_7 C29_7 1_555 1_555
C30_7 C29_7 1_555 1_555
C31_7 C30_7 1_555 1_555
C32_7 C31_7 1_555 1_555
H27_7 C32_7 1_555 1_555
O13 C28_7 1_555 1_555
O14 C30_7 1_555 1_555
Zn5 N5_7 1_555 1_555
C27_8 H23_8 1_555 1_555
H24_8 C27_8 1_555 1_555
H25_8 C27_8 1_555 1_555
C28_8 C27_8 1_555 1_555
C29_8 C28_8 1_555 1_555
H26_8 C29_8 1_555 1_555
C30_8 C29_8 1_555 1_555
C31_8 C30_8 1_555 1_555
C32_8 C31_8 1_555 1_555
H27_8 C32_8 1_555 1_555
C33_7 C32_8 1_555 1_555
H28_7 C33_7 1_555 1_555
C34_7 C33_7 1_555 1_555
C35_7 C34_7 1_555 1_555
H29_7 C35_7 1_555 1_555
C36_7 C31_8 1_555 1_555
H30_8 C36_7 1_555 1_555
C37_7 H31_7 1_555 1_555
C38_7 C37_7 1_555 1_555
H32_7 C38_7 1_555 1_555
C39_7 H33_7 1_555 1_555
N5_7 C38_7 1_555 1_555
N6_7 C34_7 1_555 1_555
O13_2 C28_8 1_555 1_555
O14_2 C30_8 1_555 1_555
C35_7 C36_7 1_555 1_555
C37_7 N6_7 1_555 1_555
C39_7 N5_7 1_555 1_555
C39_7 N6_7 1_555 1_555
C40_7 H34_7 1_555 1_555
H35_7 C40_7 1_555 1_555
H36_7 C40_7 1_555 1_555
C41_7 C40_7 1_555 1_555
C42_7 C41_7 1_555 1_555
H37_7 C42_7 1_555 1_555
C43_7 C42_7 1_555 1_555
C44_7 C43_7 1_555 1_555
C45_7 C44_7 1_555 1_555
H38_7 C45_7 1_555 1_555
C46_7 C45_7 1_555 1_555
H39_8 C46_7 1_555 1_555
C47_7 C46_7 1_555 1_555
C48_7 C47_7 1_555 1_555
H40_7 C48_7 1_555 1_555
C49_7 C44_7 1_555 1_555
H41_7 C49_7 1_555 1_555
C50_8 H42_8 1_555 1_555
C51_8 C50_8 1_555 1_555
H43_8 C51_8 1_555 1_555
C52_8 H44_8 1_555 1_555
N8_8 C47_7 1_555 1_555
O15_4 C41_7 1_555 1_555
O16_4 C43_7 1_555 1_555
C48_7 C49_7 1_555 1_555
C50_8 N8_8 1_555 1_555
C51_8 N7_8 1_555 1_555
C52_8 N7_8 1_555 1_555
C52_8 N8_8 1_555 1_555
C40_8 H34_8 1_555 1_555
H35_8 C40_8 1_555 1_555
H36_8 C40_8 1_555 1_555
C41_8 C40_8 1_555 1_555
C42_8 C41_8 1_555 1_555
H37_8 C42_8 1_555 1_555
C43_8 C42_8 1_555 1_555
C44_8 C43_8 1_555 1_555
C45_8 C44_8 1_555 1_555
H38_8 C45_8 1_555 1_555
C46_8 C45_8 1_555 1_555
C47_8 C46_8 1_555 1_555
C48_8 C47_8 1_555 1_555
H40_8 C48_8 1_555 1_555
C49_8 C44_8 1_555 1_555
H41_8 C49_8 1_555 1_555
O11_4 C41_8 1_555 1_555
O12_4 C43_8 1_555 1_555
Zn5_4 O11_4 1_555 1_555
C48_8 C49_8 1_555 1_555
O12_4 Zn5_4 1_555 1_555
Zn5_4 N5_8 1_555 1_555
H28_8 C33_8 1_555 1_555
C34_8 C33_8 1_555 1_555
C35_8 C34_8 1_555 1_555
H29_8 C35_8 1_555 1_555
C37_8 H31_8 1_555 1_555
C38_8 C37_8 1_555 1_555
H32_8 C38_8 1_555 1_555
C39_8 H33_8 1_555 1_555
N5_8 C38_8 1_555 1_555
N6_8 C34_8 1_555 1_555
C35_8 C36_8 1_555 1_555
C37_8 N6_8 1_555 1_555
C39_8 N5_8 1_555 1_555
C39_8 N6_8 1_555 1_555
C40_9 H34_9 1_555 1_555
H35_9 C40_9 1_555 1_555
H36_9 C40_9 1_555 1_555
C41_9 C40_9 1_555 1_555
C42_9 C41_9 1_555 1_555
H37_9 C42_9 1_555 1_555
C43_9 C42_9 1_555 1_555
C44_9 C43_9 1_555 1_555
C45_9 C44_9 1_555 1_555
H38_9 C45_9 1_555 1_555
C46_9 C45_9 1_555 1_555
C47_9 C46_9 1_555 1_555
C48_9 C47_9 1_555 1_555
H40_9 C48_9 1_555 1_555
C49_9 C44_9 1_555 1_555
H41_9 C49_9 1_555 1_555
O11_5 C41_9 1_555 1_555
O12_5 C43_9 1_555 1_555
Zn6_3 O11_5 1_555 1_555
C48_9 C49_9 1_555 1_555
O12_5 Zn6_3 1_555 1_555
Zn4_3 N5_9 1_555 1_555
C27_9 H23_9 1_555 1_555
H24_9 C27_9 1_555 1_555
H25_9 C27_9 1_555 1_555
C28_9 C27_9 1_555 1_555
C29_9 C28_9 1_555 1_555
H26_9 C29_9 1_555 1_555
C30_9 C29_9 1_555 1_555
C31_9 C30_9 1_555 1_555
C32_9 C31_9 1_555 1_555
H27_9 C32_9 1_555 1_555
C33_9 C32_9 1_555 1_555
H28_9 C33_9 1_555 1_555
C34_9 C33_9 1_555 1_555
C35_9 C34_9 1_555 1_555
H29_9 C35_9 1_555 1_555
C36_9 C31_9 1_555 1_555
H30_9 C36_9 1_555 1_555
C37_9 H31_9 1_555 1_555
C38_9 C37_9 1_555 1_555
H32_9 C38_9 1_555 1_555
C39_9 H33_9 1_555 1_555
C50_9 H42_9 1_555 1_555
C51_9 C50_9 1_555 1_555
H43_9 C51_9 1_555 1_555
C52_9 H44_9 1_555 1_555
N5_9 C38_9 1_555 1_555
N6_9 C34_9 1_555 1_555
N7_9 Zn4_3 1_555 1_555
O9_5 C28_9 1_555 1_555
O10_5 C30_9 1_555 1_555
O13_5 Zn4_3 1_555 1_555
O14_5 Zn4_3 1_555 1_555
O15_5 Zn4_3 1_555 1_555
O16_5 Zn4_3 1_555 1_555
C35_9 C36_9 1_555 1_555
C37_9 N6_9 1_555 1_555
C39_9 N5_9 1_555 1_555
C39_9 N6_9 1_555 1_555
C50_9 N8_9 1_555 1_555
C51_9 N7_9 1_555 1_555
C52_9 N7_9 1_555 1_555
C52_9 N8_9 1_555 1_555
Zn4_4 N5_10 1_555 1_555
C27_10 H23_10 1_555 1_555
H24_10 C27_10 1_555 1_555
H25_10 C27_10 1_555 1_555
C28_10 C27_10 1_555 1_555
C29_10 C28_10 1_555 1_555
H26_10 C29_10 1_555 1_555
C30_10 C29_10 1_555 1_555
C31_10 C30_10 1_555 1_555
C32_10 C31_10 1_555 1_555
H27_10 C32_10 1_555 1_555
C33_10 C32_10 1_555 1_555
H28_10 C33_10 1_555 1_555
C34_10 C33_10 1_555 1_555
C35_10 C34_10 1_555 1_555
H29_10 C35_10 1_555 1_555
C36_10 C31_10 1_555 1_555
H30_10 C36_10 1_555 1_555
C37_10 H31_10 1_555 1_555
C38_10 C37_10 1_555 1_555
H32_10 C38_10 1_555 1_555
C39_10 H33_10 1_555 1_555
H35_10 C40_10 1_555 1_555
H36_10 C40_10 1_555 1_555
C41_10 C40_10 1_555 1_555
C42_10 C41_10 1_555 1_555
H37_10 C42_10 1_555 1_555
C43_10 C42_10 1_555 1_555
C44_10 C43_10 1_555 1_555
C45_10 C44_10 1_555 1_555
H38_10 C45_10 1_555 1_555
C46_10 C45_10 1_555 1_555
H39_10 C46_10 1_555 1_555
C47_10 C46_10 1_555 1_555
C48_10 C47_10 1_555 1_555
H40_10 C48_10 1_555 1_555
C49_10 C44_10 1_555 1_555
H41_10 C49_10 1_555 1_555
C50_10 H42_10 1_555 1_555
C51_10 C50_10 1_555 1_555
H43_10 C51_10 1_555 1_555
C52_10 H44_10 1_555 1_555
N5_10 C38_10 1_555 1_555
N6_10 C34_10 1_555 1_555
N7_10 Zn4_4 1_555 1_555
N8_10 C47_10 1_555 1_555
O9_6 C28_10 1_555 1_555
O10_6 C30_10 1_555 1_555
O11_6 C41_10 1_555 1_555
O12_6 C43_10 1_555 1_555
O13_6 Zn4_4 1_555 1_555
O14_6 Zn4_4 1_555 1_555
O15_6 Zn4_4 1_555 1_555
O16_6 Zn4_4 1_555 1_555
C35_10 C36_10 1_555 1_555
C37_10 N6_10 1_555 1_555
C39_10 N5_10 1_555 1_555
C39_10 N6_10 1_555 1_555
C48_10 C49_10 1_555 1_555
C50_10 N8_10 1_555 1_555
C51_10 N7_10 1_555 1_555
C52_10 N7_10 1_555 1_555
C52_10 N8_10 1_555 1_555
Zn6_4 N5_11 1_555 1_555
C27_11 H23_11 1_555 1_555
H24_11 C27_11 1_555 1_555
H25_11 C27_11 1_555 1_555
C28_11 C27_11 1_555 1_555
C29_11 C28_11 1_555 1_555
H26_11 C29_11 1_555 1_555
C30_11 C29_11 1_555 1_555
C31_11 C30_11 1_555 1_555
C32_11 C31_11 1_555 1_555
H27_11 C32_11 1_555 1_555
C33_11 C32_11 1_555 1_555
H28_11 C33_11 1_555 1_555
C34_11 C33_11 1_555 1_555
C35_11 C34_11 1_555 1_555
H29_11 C35_11 1_555 1_555
C36_11 C31_11 1_555 1_555
H30_11 C36_11 1_555 1_555
C37_11 H31_11 1_555 1_555
C38_11 C37_11 1_555 1_555
H32_11 C38_11 1_555 1_555
C39_11 H33_11 1_555 1_555
N5_11 C38_11 1_555 1_555
N6_11 C34_11 1_555 1_555
O9_7 C28_11 1_555 1_555
O10_7 C30_11 1_555 1_555
Zn5_6 O9_7 1_555 1_555
O13_7 Zn6_4 1_555 1_555
O14_7 Zn6_4 1_555 1_555
C35_11 C36_11 1_555 1_555
C37_11 N6_11 1_555 1_555
C39_11 N5_11 1_555 1_555
C39_11 N6_11 1_555 1_555
O10_7 Zn5_6 1_555 1_555
C40_11 H34_11 1_555 1_555
H35_11 C40_11 1_555 1_555
H36_11 C40_11 1_555 1_555
C41_11 C40_11 1_555 1_555
C42_11 C41_11 1_555 1_555
H37_11 C42_11 1_555 1_555
C43_11 C42_11 1_555 1_555
C44_11 C43_11 1_555 1_555
C45_11 C44_11 1_555 1_555
H38_11 C45_11 1_555 1_555
C46_11 C45_11 1_555 1_555
H39_11 C46_11 1_555 1_555
C47_11 C46_11 1_555 1_555
C48_11 C47_11 1_555 1_555
H40_11 C48_11 1_555 1_555
C49_11 C44_11 1_555 1_555
H41_11 C49_11 1_555 1_555
C50_11 H42_11 1_555 1_555
C51_11 C50_11 1_555 1_555
H43_11 C51_11 1_555 1_555
C52_11 H44_11 1_555 1_555
N8_11 C47_11 1_555 1_555
O15_5 C41_11 1_555 1_555
O16_5 C43_11 1_555 1_555
C48_11 C49_11 1_555 1_555
C50_11 N8_11 1_555 1_555
C51_11 N7_11 1_555 1_555
C52_11 N7_11 1_555 1_555
C52_11 N8_11 1_555 1_555
Zn6_3 N5_12 1_555 1_555
H28_12 C33_12 1_555 1_555
C34_12 C33_12 1_555 1_555
C35_12 C34_12 1_555 1_555
H29_12 C35_12 1_555 1_555
C37_12 H31_12 1_555 1_555
C38_12 C37_12 1_555 1_555
H32_12 C38_12 1_555 1_555
C39_12 H33_12 1_555 1_555
C40_12 H34_12 1_555 1_555
H35_12 C40_12 1_555 1_555
H36_12 C40_12 1_555 1_555
C41_12 C40_12 1_555 1_555
C42_12 C41_12 1_555 1_555
H37_12 C42_12 1_555 1_555
C43_12 C42_12 1_555 1_555
C44_12 C43_12 1_555 1_555
C45_12 C44_12 1_555 1_555
H38_12 C45_12 1_555 1_555
C46_12 C45_12 1_555 1_555
H39_12 C46_12 1_555 1_555
C47_12 C46_12 1_555 1_555
C48_12 C47_12 1_555 1_555
H40_12 C48_12 1_555 1_555
C49_12 C44_12 1_555 1_555
H41_12 C49_12 1_555 1_555
C50_12 H42_12 1_555 1_555
C51_12 C50_12 1_555 1_555
H43_12 C51_12 1_555 1_555
C52_12 H44_12 1_555 1_555
N5_12 C38_12 1_555 1_555
N6_12 C34_12 1_555 1_555
N7_12 Zn6_3 1_555 1_555
N8_12 C47_12 1_555 1_555
O15_6 C41_12 1_555 1_555
O16_6 C43_12 1_555 1_555
O13_8 Zn6_3 1_555 1_555
O14_8 Zn6_3 1_555 1_555
C35_12 C36_12 1_555 1_555
C37_12 N6_12 1_555 1_555
C39_12 N5_12 1_555 1_555
C39_12 N6_12 1_555 1_555
C48_12 C49_12 1_555 1_555
C50_12 N8_12 1_555 1_555
C51_12 N7_12 1_555 1_555
C52_12 N7_12 1_555 1_555
C52_12 N8_12 1_555 1_555
C27_12 H23_12 1_555 1_555
H24_12 C27_12 1_555 1_555
H25_12 C27_12 1_555 1_555
C28_12 C27_12 1_555 1_555
C29_12 C28_12 1_555 1_555
H26_12 C29_12 1_555 1_555
C30_12 C29_12 1_555 1_555
C31_12 C30_12 1_555 1_555
C32_12 C31_12 1_555 1_555
H27_12 C32_12 1_555 1_555
O9_8 C28_12 1_555 1_555
O10_8 C30_12 1_555 1_555
Zn5_7 O9_8 1_555 1_555
O10_8 Zn5_7 1_555 1_555
Zn5_6 N5_13 1_555 1_555
C27_13 H23_13 1_555 1_555
H24_13 C27_13 1_555 1_555
H25_13 C27_13 1_555 1_555
C28_13 C27_13 1_555 1_555
C29_13 C28_13 1_555 1_555
H26_13 C29_13 1_555 1_555
C30_13 C29_13 1_555 1_555
C31_13 C30_13 1_555 1_555
C32_13 C31_13 1_555 1_555
H27_13 C32_13 1_555 1_555
C33_13 C32_13 1_555 1_555
H28_13 C33_13 1_555 1_555
C34_13 C33_13 1_555 1_555
C35_13 C34_13 1_555 1_555
H29_13 C35_13 1_555 1_555
C36_13 C31_13 1_555 1_555
H30_13 C36_13 1_555 1_555
C37_13 H31_13 1_555 1_555
C38_13 C37_13 1_555 1_555
H32_13 C38_13 1_555 1_555
C39_13 H33_13 1_555 1_555
H35_13 C40_13 1_555 1_555
H36_13 C40_13 1_555 1_555
C41_13 C40_13 1_555 1_555
C42_13 C41_13 1_555 1_555
H37_13 C42_13 1_555 1_555
C43_13 C42_13 1_555 1_555
C44_13 C43_13 1_555 1_555
C45_13 C44_13 1_555 1_555
H38_13 C45_13 1_555 1_555
C46_13 C45_13 1_555 1_555
H39_13 C46_13 1_555 1_555
C47_13 C46_13 1_555 1_555
C48_13 C47_13 1_555 1_555
H40_13 C48_13 1_555 1_555
C49_13 C44_13 1_555 1_555
H41_13 C49_13 1_555 1_555
C50_13 H42_13 1_555 1_555
C51_13 C50_13 1_555 1_555
H43_13 C51_13 1_555 1_555
C52_13 H44_13 1_555 1_555
N5_13 C38_13 1_555 1_555
N6_13 C34_13 1_555 1_555
N7_13 Zn5_6 1_555 1_555
N8_13 C47_13 1_555 1_555
O13_8 C28_13 1_555 1_555
O14_8 C30_13 1_555 1_555
O11_7 C41_13 1_555 1_555
O12_7 C43_13 1_555 1_555
O15_7 Zn5_6 1_555 1_555
O16_7 Zn5_6 1_555 1_555
C35_13 C36_13 1_555 1_555
C37_13 N6_13 1_555 1_555
C39_13 N5_13 1_555 1_555
C39_13 N6_13 1_555 1_555
C48_13 C49_13 1_555 1_555
C50_13 N8_13 1_555 1_555
C51_13 N7_13 1_555 1_555
C52_13 N7_13 1_555 1_555
C52_13 N8_13 1_555 1_555
Zn5_7 N5_14 1_555 1_555
C27_14 H23_14 1_555 1_555
H24_14 C27_14 1_555 1_555
H25_14 C27_14 1_555 1_555
C28_14 C27_14 1_555 1_555
C29_14 C28_14 1_555 1_555
H26_14 C29_14 1_555 1_555
C30_14 C29_14 1_555 1_555
C31_14 C30_14 1_555 1_555
C32_14 C31_14 1_555 1_555
H27_14 C32_14 1_555 1_555
C33_14 C32_14 1_555 1_555
H28_14 C33_14 1_555 1_555
C34_14 C33_14 1_555 1_555
C35_14 C34_14 1_555 1_555
H29_14 C35_14 1_555 1_555
C36_14 C31_14 1_555 1_555
H30_14 C36_14 1_555 1_555
C37_14 H31_14 1_555 1_555
C38_14 C37_14 1_555 1_555
H32_14 C38_14 1_555 1_555
C39_14 H33_14 1_555 1_555
C50_14 H42_14 1_555 1_555
C51_14 C50_14 1_555 1_555
H43_14 C51_14 1_555 1_555
C52_14 H44_14 1_555 1_555
N5_14 C38_14 1_555 1_555
N6_14 C34_14 1_555 1_555
N7_14 Zn5_7 1_555 1_555
O13_7 C28_14 1_555 1_555
O14_7 C30_14 1_555 1_555
O15_8 Zn5_7 1_555 1_555
O16_8 Zn5_7 1_555 1_555
C35_14 C36_14 1_555 1_555
C37_14 N6_14 1_555 1_555
C39_14 N5_14 1_555 1_555
C39_14 N6_14 1_555 1_555
C50_14 N8_14 1_555 1_555
C51_14 N7_14 1_555 1_555
C52_14 N7_14 1_555 1_555
C52_14 N8_14 1_555 1_555
C27_15 H23_15 1_555 1_555
H24_15 C27_15 1_555 1_555
H25_15 C27_15 1_555 1_555
C28_15 C27_15 1_555 1_555
C29_15 C28_15 1_555 1_555
H26_15 C29_15 1_555 1_555
C30_15 C29_15 1_555 1_555
C31_15 C30_15 1_555 1_555
C32_15 C31_15 1_555 1_555
H27_15 C32_15 1_555 1_555
O13_5 C28_15 1_555 1_555
O14_5 C30_15 1_555 1_555
C40_14 H34_14 1_555 1_555
H35_14 C40_14 1_555 1_555
H36_14 C40_14 1_555 1_555
C41_14 C40_14 1_555 1_555
C42_14 C41_14 1_555 1_555
H37_14 C42_14 1_555 1_555
C43_14 C42_14 1_555 1_555
C44_14 C43_14 1_555 1_555
C45_14 C44_14 1_555 1_555
H38_14 C45_14 1_555 1_555
C46_14 C45_14 1_555 1_555
H39_15 C46_14 1_555 1_555
C47_14 C46_14 1_555 1_555
C48_14 C47_14 1_555 1_555
H40_14 C48_14 1_555 1_555
C49_14 C44_14 1_555 1_555
H41_14 C49_14 1_555 1_555
C50_15 H42_15 1_555 1_555
C51_15 C50_15 1_555 1_555
H43_15 C51_15 1_555 1_555
C52_15 H44_15 1_555 1_555
N8_15 C47_14 1_555 1_555
O15_7 C41_14 1_555 1_555
O16_7 C43_14 1_555 1_555
C48_14 C49_14 1_555 1_555
C50_15 N8_15 1_555 1_555
C51_15 N7_15 1_555 1_555
C52_15 N7_15 1_555 1_555
C52_15 N8_15 1_555 1_555
C40_15 H34_15 1_555 1_555
H35_15 C40_15 1_555 1_555
H36_15 C40_15 1_555 1_555
C41_15 C40_15 1_555 1_555
C42_15 C41_15 1_555 1_555
H37_15 C42_15 1_555 1_555
C43_15 C42_15 1_555 1_555
C44_15 C43_15 1_555 1_555
C45_15 C44_15 1_555 1_555
H38_15 C45_15 1_555 1_555
C46_15 C45_15 1_555 1_555
H39_16 C46_15 1_555 1_555
C47_15 C46_15 1_555 1_555
C48_15 C47_15 1_555 1_555
H40_15 C48_15 1_555 1_555
C49_15 C44_15 1_555 1_555
H41_15 C49_15 1_555 1_555
C50_16 H42_16 1_555 1_555
C51_16 C50_16 1_555 1_555
H43_16 C51_16 1_555 1_555
C52_16 H44_16 1_555 1_555
N8_16 C47_15 1_555 1_555
O15_8 C41_15 1_555 1_555
O16_8 C43_15 1_555 1_555
C48_15 C49_15 1_555 1_555
C50_16 N8_16 1_555 1_555
C51_16 N7_16 1_555 1_555
C52_16 N7_16 1_555 1_555
C52_16 N8_16 1_555 1_555
Zn5_5 N5_15 1_555 1_555
C27_16 H23_16 1_555 1_555
H24_16 C27_16 1_555 1_555
H25_16 C27_16 1_555 1_555
C28_16 C27_16 1_555 1_555
C29_16 C28_16 1_555 1_555
H26_16 C29_16 1_555 1_555
C30_16 C29_16 1_555 1_555
C31_16 C30_16 1_555 1_555
C32_16 C31_16 1_555 1_555
H27_16 C32_16 1_555 1_555
C33_15 C32_16 1_555 1_555
H28_15 C33_15 1_555 1_555
C34_15 C33_15 1_555 1_555
C35_15 C34_15 1_555 1_555
H29_15 C35_15 1_555 1_555
C36_15 C31_16 1_555 1_555
H30_16 C36_15 1_555 1_555
C37_15 H31_15 1_555 1_555
C38_15 C37_15 1_555 1_555
H32_15 C38_15 1_555 1_555
C39_15 H33_15 1_555 1_555
N5_15 C38_15 1_555 1_555
N6_15 C34_15 1_555 1_555
O13_6 C28_16 1_555 1_555
O14_6 C30_16 1_555 1_555
C35_15 C36_15 1_555 1_555
C37_15 N6_15 1_555 1_555
C39_15 N5_15 1_555 1_555
C39_15 N6_15 1_555 1_555
C40_16 H34_16 1_555 1_555
H35_16 C40_16 1_555 1_555
H36_16 C40_16 1_555 1_555
C41_16 C40_16 1_555 1_555
C42_16 C41_16 1_555 1_555
H37_16 C42_16 1_555 1_555
C43_16 C42_16 1_555 1_555
C44_16 C43_16 1_555 1_555
C45_16 C44_16 1_555 1_555
H38_16 C45_16 1_555 1_555
C46_16 C45_16 1_555 1_555
C47_16 C46_16 1_555 1_555
C48_16 C47_16 1_555 1_555
H40_16 C48_16 1_555 1_555
C49_16 C44_16 1_555 1_555
H41_16 C49_16 1_555 1_555
O11_8 C41_16 1_555 1_555
O12_8 C43_16 1_555 1_555
Zn5_8 O11_8 1_555 1_555
C48_16 C49_16 1_555 1_555
O12_8 Zn5_8 1_555 1_555
Zn5_8 N5_16 1_555 1_555
H28_16 C33_16 1_555 1_555
C34_16 C33_16 1_555 1_555
C35_16 C34_16 1_555 1_555
H29_16 C35_16 1_555 1_555
C37_16 H31_16 1_555 1_555
C38_16 C37_16 1_555 1_555
H32_16 C38_16 1_555 1_555
C39_16 H33_16 1_555 1_555
N5_16 C38_16 1_555 1_555
N6_16 C34_16 1_555 1_555
C35_16 C36_16 1_555 1_555
C37_16 N6_16 1_555 1_555
C39_16 N5_16 1_555 1_555
C39_16 N6_16 1_555 1_555

#END
