
###############################################################################
#
# This file contains modified crystal structure data generated from the
# MOF subset of the Cambridge Structural Database (CSD) v543 
# hosted by the Cambridge Crystallographic Data Centre (CCDC).
#
# This work is licensed under the Creative Commons
# Attribution-NonCommercial-ShareAlike 4.0 International License.
# To view a copy of this license, visit
# http://creativecommons.org/licenses/by-nc-sa/4.0/
# or send a letter to
# Creative Commons, PO Box 1866, Mountain View, CA 94042, USA.
#
# CIF created using the CSD Python API on 29 September 2022
# The structure has been converted into the P1 space group
# The structure has a 3D framework
# The original CSD entry YARFII is in the orthorhombic crystal system
# The framework has been calculated to contain at least 10.0% void space
# The void calculation uses a probe of radius 1.32A, grid spacing 0.4
#
###############################################################################

data_YARFII
_chemical_formula_moiety         '(C88 H72 N16 O16 Zn4)n'
_symmetry_cell_setting           triclinic
_symmetry_space_group_name_H-M   'P 1'
_symmetry_Int_Tables_number      1
_space_group_name_Hall           'P 1'
loop_
_symmetry_equiv_pos_site_id
_symmetry_equiv_pos_as_xyz
1 x,y,z
_cell_length_a                   18.7116(9)
_cell_length_b                   10.8977(5)
_cell_length_c                   14.6613(7)
_cell_angle_alpha                90
_cell_angle_beta                 90
_cell_angle_gamma                90
_cell_volume                     2989.64
loop_
_atom_site_label
_atom_site_type_symbol
_atom_site_fract_x
_atom_site_fract_y
_atom_site_fract_z
C13 C 0.02238(17) 0.3715(3) 0.1105(2)
H10 H 0.0710 0.3891 0.1106
C16 C 0.0240(2) 0.2377(3) 0.2488(2)
H14 H 0.0679 0.2798 0.2649
C17 C 0.04081(16) 0.1055(3) 0.2248(3)
C18 C 0.06931(19) 0.0326(3) 0.2920(3)
H15 H 0.0753 0.0649 0.3503
C22 C 0.03090(19) 0.0555(3) 0.1391(3)
H18 H 0.0115 0.1037 0.0930
O5 O 0.10044(10) 0.54814(19) 0.97952(16)
C1 C 0.64109(15) 0.8730(3) 0.9428(3)
O1 O 0.85856(11) 0.5819(2) 0.93509(18)
O2 O 0.60044(10) 0.95186(19) 0.97952(16)
O3 O 0.62281(13) 0.7963(3) 0.8878(2)
C6 C 0.88337(14) 0.6807(3) 0.9670(2)
C7 C 0.83486(15) 0.7858(3) 0.9866(2)
C8 C 0.76461(13) 0.7824(2) 0.9580(3)
H6 H 0.7479 0.7135 0.9272
C9 C 0.71823(14) 0.8798(3) 0.9742(2)
O4 O 0.95029(10) 0.69619(18) 0.98297(15)
Zn1 Zn 0.998573(16) 0.54085(3) 0.95376(5)
N5 N 0.99032(14) 0.4667(2) 0.8306(2)
Zn3 Zn 0.498573(16) 0.95915(3) 0.95376(5)
C2 C 0.90340(19) 0.2691(3) 0.6690(3)
H1 H 0.9083 0.2855 0.6043
H2 H 0.8541 0.2843 0.6860
C3 C 0.93409(17) 0.4132(3) 0.7961(2)
H3 H 0.8886 0.4179 0.8214
N2 N 0.94981(14) 0.3504(2) 0.71974(19)
C19 C 0.91070(18) 0.0874(3) 0.7754(3)
H16 H 0.8903 0.1346 0.8213
C20 C 0.92170(18) 0.1370(3) 0.6878(2)
C21 C 0.95089(17) 0.0641(3) 0.6207(3)
H17 H 0.9583 0.0961 0.5627
C1_2 C 0.14109(15) 0.6270(3) 0.9428(3)
O1_2 O 0.35856(11) 0.9181(2) 0.93509(18)
O3_2 O 0.12281(13) 0.7037(3) 0.8878(2)
C6_2 C 0.38337(14) 0.8193(3) 0.9670(2)
C7_2 C 0.33486(15) 0.7142(3) 0.9866(2)
C8_2 C 0.26461(13) 0.7176(2) 0.9580(3)
H6_2 H 0.2479 0.7865 0.9272
C9_2 C 0.21823(14) 0.6202(3) 0.9742(2)
O4_2 O 0.45029(10) 0.80381(18) 0.98297(15)
C2_2 C 0.09660(19) 0.7309(3) 0.1690(3)
H1_2 H 0.0917 0.7145 0.1043
H2_2 H 0.1459 0.7157 0.1860
C3_2 C 0.06591(17) 0.5868(3) 0.2961(2)
H3_2 H 0.1114 0.5821 0.3214
N1 N 0.00968(14) 0.5333(2) 0.3306(2)
N2_2 N 0.05019(14) 0.6496(2) 0.21974(19)
C19_2 C 0.08930(18) 0.9126(3) 0.2754(3)
H16_2 H 0.1097 0.8654 0.3213
C20_2 C 0.07830(18) 0.8630(3) 0.1878(2)
C21_2 C 0.04911(17) 0.9359(3) 0.1207(3)
H17_2 H 0.0417 0.9039 0.0627
Zn2 Zn 0.001427(16) 0.45915(3) 0.45376(5)
C1_3 C 0.35891(15) 0.1270(3) 0.4428(3)
O1_3 O 0.14144(11) 0.4181(2) 0.43509(18)
O2_2 O 0.39956(10) 0.04814(19) 0.47952(16)
O3_3 O 0.37719(13) 0.2037(3) 0.3878(2)
C6_3 C 0.11663(14) 0.3193(3) 0.4670(2)
C7_3 C 0.16514(15) 0.2142(3) 0.4866(2)
C8_3 C 0.23539(13) 0.2176(2) 0.4580(3)
H6_3 H 0.2521 0.2865 0.4272
C9_3 C 0.28177(14) 0.1202(3) 0.4742(2)
C10 C 0.25622(18) 0.0178(3) 0.5180(3)
C11 C 0.18432(18) 0.0096(3) 0.5457(3)
C12 C 0.13917(17) 0.1097(3) 0.5282(3)
H9 H 0.0913 0.1056 0.5448
C14 C 0.08157(18) 0.7028(3) 0.6492(3)
H11 H 0.1173 0.7445 0.6805
C15 C 0.08932(17) 0.6356(3) 0.5721(3)
H12 H 0.1319 0.6237 0.5407
H13 H 0.0073 0.7605 0.8016
N3 N 0.02481(14) 0.5881(2) 0.5480(2)
N4 N 0.01101(14) 0.6971(2) 0.6719(2)
O4_3 O 0.04971(10) 0.30381(18) 0.48297(15)
Zn3_2 Zn 0.501427(16) 0.04085(3) 0.45376(5)
C13_2 C 0.97762(17) 0.6285(3) 0.6105(2)
H10_2 H 0.9290 0.6109 0.6106
C16_2 C 0.9760(2) 0.7623(3) 0.7488(2)
H14_2 H 0.9321 0.7202 0.7649
C17_2 C 0.95919(16) 0.8945(3) 0.7248(3)
C18_2 C 0.93069(19) 0.9674(3) 0.7920(3)
H15_2 H 0.9247 0.9351 0.8503
C22_2 C 0.96910(19) 0.9445(3) 0.6391(3)
H18_2 H 0.9885 0.8963 0.5930
O5_2 O 0.89956(10) 0.45186(19) 0.47952(16)
C1_4 C 0.85891(15) 0.3730(3) 0.4428(3)
O1_4 O 0.64144(11) 0.0819(2) 0.43509(18)
O3_4 O 0.87719(13) 0.2963(3) 0.3878(2)
C6_4 C 0.61663(14) 0.1807(3) 0.4670(2)
C7_4 C 0.66514(15) 0.2858(3) 0.4866(2)
C8_4 C 0.73539(13) 0.2824(2) 0.4580(3)
H6_4 H 0.7521 0.2135 0.4272
C9_4 C 0.78177(14) 0.3798(3) 0.4742(2)
C10_2 C 0.75622(18) 0.4822(3) 0.5180(3)
H7 H 0.7870 0.5474 0.5295
C11_2 C 0.68432(18) 0.4904(3) 0.5457(3)
H8 H 0.6672 0.5602 0.5749
C12_2 C 0.63917(17) 0.3903(3) 0.5282(3)
H9_2 H 0.5913 0.3944 0.5448
O4_4 O 0.54971(10) 0.19619(18) 0.48297(15)
H7_2 H 0.7130 0.0474 0.0295
H8_2 H 0.8328 0.0602 0.0749
C10_3 C 0.74378(18) 0.9822(3) 0.0180(3)
C11_3 C 0.81568(18) 0.9904(3) 0.0457(3)
C12_3 C 0.86083(17) 0.8903(3) 0.0282(3)
H9_3 H 0.9087 0.8944 0.0448
C14_2 C 0.91843(18) 0.2972(3) 0.1492(3)
H11_2 H 0.8827 0.2555 0.1805
C15_2 C 0.91068(17) 0.3644(3) 0.0721(3)
H12_2 H 0.8681 0.3763 0.0407
H13_2 H 0.9927 0.2395 0.3016
N3_2 N 0.97519(14) 0.4119(2) 0.0480(2)
N4_2 N 0.98899(14) 0.3029(2) 0.1719(2)
C4 C 0.95338(19) 0.5629(3) 0.2744(3)
H4 H 0.9063 0.5380 0.2823
C5 C 0.97817(19) 0.6349(3) 0.2050(3)
H5 H 0.9516 0.6676 0.1573
C4_2 C 0.04662(19) 0.4371(3) 0.7744(3)
H4_2 H 0.0937 0.4620 0.7823
C5_2 C 0.02183(19) 0.3651(3) 0.7050(3)
H5_2 H 0.0484 0.3324 0.6573
H7_3 H 0.2870 0.9526 0.5295
H8_3 H 0.1672 0.9398 0.5749
C2_3 C 0.59660(19) 0.7691(3) 0.1690(3)
H1_3 H 0.5917 0.7855 0.1043
H2_3 H 0.6459 0.7843 0.1860
C3_3 C 0.56591(17) 0.9132(3) 0.2961(2)
H3_3 H 0.6114 0.9179 0.3214
C4_3 C 0.45338(19) 0.9371(3) 0.2744(3)
H4_3 H 0.4063 0.9620 0.2823
C5_3 C 0.47817(19) 0.8651(3) 0.2050(3)
H5_3 H 0.4516 0.8324 0.1573
N1_2 N 0.50968(14) 0.9667(2) 0.3306(2)
N2_3 N 0.55019(14) 0.8504(2) 0.21974(19)
C13_3 C 0.52238(17) 0.1285(3) 0.1105(2)
H10_3 H 0.5710 0.1109 0.1106
C14_3 C 0.41843(18) 0.2028(3) 0.1492(3)
H11_3 H 0.3827 0.2445 0.1805
C15_3 C 0.41068(17) 0.1356(3) 0.0721(3)
H12_3 H 0.3681 0.1237 0.0407
C16_3 C 0.5240(2) 0.2623(3) 0.2488(2)
H13_3 H 0.4927 0.2605 0.3016
H14_3 H 0.5679 0.2202 0.2649
C17_3 C 0.54081(16) 0.3945(3) 0.2248(3)
C18_3 C 0.56931(19) 0.4674(3) 0.2920(3)
H15_3 H 0.5753 0.4351 0.3503
C19_3 C 0.58930(18) 0.5874(3) 0.2754(3)
H16_3 H 0.6097 0.6346 0.3213
C20_3 C 0.57830(18) 0.6370(3) 0.1878(2)
C21_3 C 0.54911(17) 0.5641(3) 0.1207(3)
H17_3 H 0.5417 0.5961 0.0627
C22_3 C 0.53090(19) 0.4445(3) 0.1391(3)
H18_3 H 0.5115 0.3963 0.0930
N3_3 N 0.47519(14) 0.0881(2) 0.0480(2)
N4_3 N 0.48899(14) 0.1971(2) 0.1719(2)
N5_2 N 0.49032(14) 0.0333(2) 0.8306(2)
C2_4 C 0.40340(19) 0.2309(3) 0.6690(3)
H1_4 H 0.4083 0.2145 0.6043
H2_4 H 0.3541 0.2157 0.6860
C3_4 C 0.43409(17) 0.0868(3) 0.7961(2)
H3_4 H 0.3886 0.0821 0.8214
C4_4 C 0.54662(19) 0.0629(3) 0.7744(3)
H4_4 H 0.5937 0.0380 0.7823
C5_4 C 0.52183(19) 0.1349(3) 0.7050(3)
H5_4 H 0.5484 0.1676 0.6573
N2_4 N 0.44981(14) 0.1496(2) 0.71974(19)
C13_4 C 0.47762(17) 0.8715(3) 0.6105(2)
H10_4 H 0.4290 0.8891 0.6106
C14_4 C 0.58157(18) 0.7972(3) 0.6492(3)
H11_4 H 0.6173 0.7555 0.6805
C15_4 C 0.58932(17) 0.8644(3) 0.5721(3)
H12_4 H 0.6319 0.8763 0.5407
C16_4 C 0.4760(2) 0.7377(3) 0.7488(2)
H13_4 H 0.5073 0.7395 0.8016
H14_4 H 0.4321 0.7798 0.7649
C17_4 C 0.45919(16) 0.6055(3) 0.7248(3)
C18_4 C 0.43069(19) 0.5326(3) 0.7920(3)
H15_4 H 0.4247 0.5649 0.8503
C19_4 C 0.41070(18) 0.4126(3) 0.7754(3)
H16_4 H 0.3903 0.3654 0.8213
C20_4 C 0.42170(18) 0.3630(3) 0.6878(2)
C21_4 C 0.45089(17) 0.4359(3) 0.6207(3)
H17_4 H 0.4583 0.4039 0.5627
C22_4 C 0.46910(19) 0.5555(3) 0.6391(3)
H18_4 H 0.4885 0.6037 0.5930
N3_4 N 0.52481(14) 0.9119(2) 0.5480(2)
N4_4 N 0.51101(14) 0.8029(2) 0.6719(2)
C10_4 C 0.24378(18) 0.5178(3) 0.0180(3)
H7_4 H 0.2130 0.4526 0.0295
C11_4 C 0.31568(18) 0.5096(3) 0.0457(3)
H8_4 H 0.3328 0.4398 0.0749
C12_4 C 0.36083(17) 0.6097(3) 0.0282(3)
H9_4 H 0.4087 0.6056 0.0448
loop_
_geom_bond_atom_site_label_1
_geom_bond_atom_site_label_2
_geom_bond_site_symmetry_1
_geom_bond_site_symmetry_2
C13 H10 1_555 1_555
H14 C16 1_555 1_555
C17 C16 1_555 1_555
C18 C17 1_555 1_555
H15 C18 1_555 1_555
C22 C17 1_555 1_555
H18 C22 1_555 1_555
C1 O2 1_555 1_555
O1 C6 1_555 1_555
O2 Zn3 1_555 1_555
O3 C1 1_555 1_555
C6 C7 1_555 1_555
C7 C8 1_555 1_555
C8 H6 1_555 1_555
C9 C1 1_555 1_555
O4 C6 1_555 1_555
N5 Zn1 1_555 1_555
C8 C9 1_555 1_555
O4 Zn1 1_555 1_555
C2 H1 1_555 1_555
H2 C2 1_555 1_555
C3 H3 1_555 1_555
N5 C3 1_555 1_555
N2 C2 1_555 1_555
H16 C19 1_555 1_555
C20 C2 1_555 1_555
C21 C20 1_555 1_555
H17 C21 1_555 1_555
C3 N2 1_555 1_555
C19 C20 1_555 1_555
C1_2 O5 1_555 1_555
O1_2 C6_2 1_555 1_555
O3_2 C1_2 1_555 1_555
C6_2 C7_2 1_555 1_555
C7_2 C8_2 1_555 1_555
C8_2 H6_2 1_555 1_555
C9_2 C1_2 1_555 1_555
O4_2 C6_2 1_555 1_555
C8_2 C9_2 1_555 1_555
O4_2 Zn3 1_555 1_555
C2_2 H1_2 1_555 1_555
H2_2 C2_2 1_555 1_555
C3_2 H3_2 1_555 1_555
N1 C3_2 1_555 1_555
N2_2 C2_2 1_555 1_555
H16_2 C19_2 1_555 1_555
C20_2 C2_2 1_555 1_555
C21_2 C20_2 1_555 1_555
H17_2 C21_2 1_555 1_555
Zn2 N1 1_555 1_555
C3_2 N2_2 1_555 1_555
C19_2 C20_2 1_555 1_555
C1_3 O2_2 1_555 1_555
O1_3 C6_3 1_555 1_555
O2_2 Zn3_2 1_555 1_555
O3_3 C1_3 1_555 1_555
C6_3 C7_3 1_555 1_555
C7_3 C8_3 1_555 1_555
C8_3 H6_3 1_555 1_555
C9_3 C1_3 1_555 1_555
C10 C9_3 1_555 1_555
C11 C10 1_555 1_555
C12 C7_3 1_555 1_555
H9 C12 1_555 1_555
C14 H11 1_555 1_555
C15 C14 1_555 1_555
H12 C15 1_555 1_555
O4_3 C6_3 1_555 1_555
Zn2 N3 1_555 1_555
C8_3 C9_3 1_555 1_555
C11 C12 1_555 1_555
C14 N4 1_555 1_555
C15 N3 1_555 1_555
O4_3 Zn2 1_555 1_555
C13_2 H10_2 1_555 1_555
H14_2 C16_2 1_555 1_555
C17_2 C16_2 1_555 1_555
C18_2 C17_2 1_555 1_555
H15_2 C18_2 1_555 1_555
C22_2 C17_2 1_555 1_555
H18_2 C22_2 1_555 1_555
C1_4 O5_2 1_555 1_555
O1_4 C6_4 1_555 1_555
O3_4 C1_4 1_555 1_555
C6_4 C7_4 1_555 1_555
C7_4 C8_4 1_555 1_555
C8_4 H6_4 1_555 1_555
C9_4 C1_4 1_555 1_555
C10_2 C9_4 1_555 1_555
H7 C10_2 1_555 1_555
C11_2 C10_2 1_555 1_555
H8 C11_2 1_555 1_555
C12_2 C7_4 1_555 1_555
H9_2 C12_2 1_555 1_555
O4_4 C6_4 1_555 1_555
C8_4 C9_4 1_555 1_555
C11_2 C12_2 1_555 1_555
O4_4 Zn3_2 1_555 1_555
C11_3 C10_3 1_555 1_555
H9_3 C12_3 1_555 1_555
C14_2 H11_2 1_555 1_555
C15_2 C14_2 1_555 1_555
H12_2 C15_2 1_555 1_555
C11_3 C12_3 1_555 1_555
C14_2 N4_2 1_555 1_555
C15_2 N3_2 1_555 1_555
C4 H4 1_555 1_555
C5 C4 1_555 1_555
H5 C5 1_555 1_555
C4_2 H4_2 1_555 1_555
C5_2 C4_2 1_555 1_555
H5_2 C5_2 1_555 1_555
C2_3 H1_3 1_555 1_555
H2_3 C2_3 1_555 1_555
C3_3 H3_3 1_555 1_555
C4_3 H4_3 1_555 1_555
C5_3 C4_3 1_555 1_555
H5_3 C5_3 1_555 1_555
N1_2 C3_3 1_555 1_555
N2_3 C2_3 1_555 1_555
C13_3 H10_3 1_555 1_555
C14_3 H11_3 1_555 1_555
C15_3 C14_3 1_555 1_555
H12_3 C15_3 1_555 1_555
C16_3 H13_3 1_555 1_555
H14_3 C16_3 1_555 1_555
C17_3 C16_3 1_555 1_555
C18_3 C17_3 1_555 1_555
H15_3 C18_3 1_555 1_555
C19_3 C18_3 1_555 1_555
H16_3 C19_3 1_555 1_555
C20_3 C2_3 1_555 1_555
C21_3 C20_3 1_555 1_555
H17_3 C21_3 1_555 1_555
C22_3 C17_3 1_555 1_555
H18_3 C22_3 1_555 1_555
N3_3 C13_3 1_555 1_555
N4_3 C13_3 1_555 1_555
C3_3 N2_3 1_555 1_555
C4_3 N1_2 1_555 1_555
C5_3 N2_3 1_555 1_555
C14_3 N4_3 1_555 1_555
C15_3 N3_3 1_555 1_555
C16_3 N4_3 1_555 1_555
C19_3 C20_3 1_555 1_555
C21_3 C22_3 1_555 1_555
C2_4 H1_4 1_555 1_555
H2_4 C2_4 1_555 1_555
C3_4 H3_4 1_555 1_555
C4_4 H4_4 1_555 1_555
C5_4 C4_4 1_555 1_555
H5_4 C5_4 1_555 1_555
N5_2 C3_4 1_555 1_555
N2_4 C2_4 1_555 1_555
C13_4 H10_4 1_555 1_555
C14_4 H11_4 1_555 1_555
C15_4 C14_4 1_555 1_555
H12_4 C15_4 1_555 1_555
C16_4 H13_4 1_555 1_555
H14_4 C16_4 1_555 1_555
C17_4 C16_4 1_555 1_555
C18_4 C17_4 1_555 1_555
H15_4 C18_4 1_555 1_555
C19_4 C18_4 1_555 1_555
H16_4 C19_4 1_555 1_555
C20_4 C2_4 1_555 1_555
C21_4 C20_4 1_555 1_555
H17_4 C21_4 1_555 1_555
C22_4 C17_4 1_555 1_555
H18_4 C22_4 1_555 1_555
N3_4 C13_4 1_555 1_555
N4_4 C13_4 1_555 1_555
C3_4 N2_4 1_555 1_555
C4_4 N5_2 1_555 1_555
C5_4 N2_4 1_555 1_555
C14_4 N4_4 1_555 1_555
C15_4 N3_4 1_555 1_555
C16_4 N4_4 1_555 1_555
C19_4 C20_4 1_555 1_555
C21_4 C22_4 1_555 1_555
H7_4 C10_4 1_555 1_555
C11_4 C10_4 1_555 1_555
H8_4 C11_4 1_555 1_555
H9_4 C12_4 1_555 1_555
C11_4 C12_4 1_555 1_555

#END
