
###############################################################################
#
# This file contains modified crystal structure data generated from the
# MOF subset of the Cambridge Structural Database (CSD) v543 
# hosted by the Cambridge Crystallographic Data Centre (CCDC).
#
# This work is licensed under the Creative Commons
# Attribution-NonCommercial-ShareAlike 4.0 International License.
# To view a copy of this license, visit
# http://creativecommons.org/licenses/by-nc-sa/4.0/
# or send a letter to
# Creative Commons, PO Box 1866, Mountain View, CA 94042, USA.
#
# CIF created using the CSD Python API on 29 September 2022
# The structure has been converted into the P1 space group
# The structure has a 3D framework
# The original CSD entry YARFEG is in the tetragonal crystal system
# The framework has been calculated to contain at least 10.0% void space
# The void calculation uses a probe of radius 1.32A, grid spacing 0.4
#
###############################################################################

data_YARFEG
_chemical_formula_moiety         '(C192 H176 Cu14 N32 O30)n'
_symmetry_cell_setting           triclinic
_symmetry_space_group_name_H-M   'P 1'
_symmetry_Int_Tables_number      1
_space_group_name_Hall           'P 1'
loop_
_symmetry_equiv_pos_site_id
_symmetry_equiv_pos_as_xyz
1 x,y,z
_cell_length_a                   23.2432(12)
_cell_length_b                   23.2432(12)
_cell_length_c                   11.9130(7)
_cell_angle_alpha                90
_cell_angle_beta                 90
_cell_angle_gamma                90
_cell_volume                     6435.95
loop_
_atom_site_label
_atom_site_type_symbol
_atom_site_fract_x
_atom_site_fract_y
_atom_site_fract_z
Cu3 Cu 0.0000 0.0000 0.0000
Cu2 Cu 0.0000 0.5000 0.0000
Cu3_2 Cu 0.0000 1.0000 0.0000
N3 N 0.89204(8) 0.02382(8) 0.10791(15)
H12 H 0.8913 0.0558 0.0683
C19 C 0.85300(9) 0.01041(9) 0.18664(17)
C20 C 0.80448(11) 0.04976(10) 0.2124(2)
H16 H 0.7848 0.0366 0.2806
H17 H 0.8193 0.0888 0.2242
H18 H 0.7773 0.0499 0.1496
Cu3_3 Cu 1.0000 0.0000 0.0000
Cu1 Cu 0.7500 0.7500 0.7500
N1 N 0.72618(8) 0.64204(8) 0.64209(15)
H1 H 0.6942 0.6413 0.6817
O1 O 0.94876(6) 0.54219(6) 0.09897(12)
O2 O 0.94372(7) 0.45738(7) 0.18279(14)
N2 N 0.76753(8) 0.68263(8) 0.65336(14)
C1 C 0.80904(9) 0.66847(9) 0.58055(17)
C2 C 0.79300(9) 0.61858(9) 0.52098(17)
C3 C 0.82652(9) 0.58926(10) 0.43237(18)
C4 C 0.83558(11) 0.52985(10) 0.43270(19)
H2 H 0.8190 0.5069 0.4903
C5 C 0.86864(11) 0.50388(10) 0.3496(2)
H3 H 0.8748 0.4635 0.3512
C6 C 0.85042(10) 0.62153(10) 0.34535(18)
H4 H 0.8440 0.6619 0.3430
C7 C 0.73959(9) 0.60300(9) 0.56336(17)
C8 C 0.70024(10) 0.55448(11) 0.5376(2)
H5 H 0.7134 0.5348 0.4694
H6 H 0.6612 0.5693 0.5258
H7 H 0.7001 0.5273 0.6004
C9 C 0.86461(10) 0.70032(11) 0.5755(2)
H8 H 0.8959 0.6733 0.5591
H9 H 0.8718 0.7191 0.6478
H10 H 0.8627 0.7295 0.5162
C10 C 0.93062(9) 0.50932(9) 0.17693(17)
C11 C 0.89286(9) 0.53686(9) 0.26401(17)
C12 C 0.88327(10) 0.59596(10) 0.26234(18)
H11 H 0.8993 0.6188 0.2041
O3 O 0.79219(6) 0.80124(6) 0.65103(12)
O4 O 0.70738(7) 0.80628(7) 0.56721(14)
N4 N 0.93263(8) 0.98247(8) 0.09664(14)
C13 C 0.91847(9) 0.94096(9) 0.16945(17)
C14 C 0.86858(9) 0.95700(9) 0.22902(17)
C15 C 0.83926(10) 0.92348(9) 0.31763(18)
C16 C 0.77985(10) 0.91442(11) 0.31730(19)
H13 H 0.7569 0.9310 0.2597
C17 C 0.75388(10) 0.88136(11) 0.4004(2)
H14 H 0.7135 0.8752 0.3988
C18 C 0.87153(10) 0.89958(10) 0.40465(18)
H15 H 0.9119 0.9060 0.4070
C21 C 0.95032(11) 0.88539(10) 0.1745(2)
H19 H 0.9233 0.8541 0.1909
H20 H 0.9691 0.8782 0.1022
H21 H 0.9795 0.8873 0.2338
C22 C 0.75932(9) 0.81938(9) 0.57307(17)
C23 C 0.78686(9) 0.85714(9) 0.48599(17)
C24 C 0.84596(10) 0.86673(10) 0.48766(18)
H22 H 0.8688 0.8507 0.5459
Cu2_2 Cu 1.0000 0.5000 0.0000
Cu3_4 Cu 1.0000 1.0000 0.0000
O5 O 0.70781(6) 0.69876(6) 0.84897(12)
O6 O 0.79262(7) 0.69372(7) 0.93279(14)
N5 N 0.73247(8) 0.81737(8) 0.84664(14)
C10_2 C 0.74068(9) 0.68062(9) 0.92693(17)
H11_2 H 0.6312 0.6493 0.9541
N3_2 N 0.22618(8) 0.64204(8) 0.85791(15)
H12_2 H 0.1942 0.6413 0.8183
N4_2 N 0.26753(8) 0.68263(8) 0.84664(14)
C13_2 C 0.30904(9) 0.66847(9) 0.91945(17)
C14_2 C 0.29300(9) 0.61858(9) 0.97902(17)
C19_2 C 0.23959(9) 0.60300(9) 0.93664(17)
C20_2 C 0.20024(10) 0.55448(11) 0.9624(2)
H17_2 H 0.1612 0.5693 0.9742
H18_2 H 0.2001 0.5273 0.8996
C21_2 C 0.36461(10) 0.70032(11) 0.9245(2)
H19_2 H 0.3959 0.6733 0.9409
H20_2 H 0.3718 0.7191 0.8522
H21_2 H 0.3627 0.7295 0.9838
Cu3_5 Cu 0.2500 0.7500 0.7500
N5_2 N 0.06737(8) 0.51753(8) 0.09664(14)
O2_2 O 0.05628(7) 0.04262(7) 0.18279(14)
H3_2 H 0.1252 0.0365 0.3512
N1_2 N 0.27382(8) 0.85796(8) 0.64209(15)
H1_2 H 0.3058 0.8587 0.6817
O1_2 O 0.05124(6) 0.95781(6) 0.09897(12)
N2_2 N 0.23247(8) 0.81737(8) 0.65336(14)
C1_2 C 0.19096(9) 0.83153(9) 0.58055(17)
C2_2 C 0.20700(9) 0.88142(9) 0.52098(17)
C3_2 C 0.17348(9) 0.91074(10) 0.43237(18)
C4_2 C 0.16442(11) 0.97015(10) 0.43270(19)
H2_2 H 0.1810 0.9931 0.4903
C5_2 C 0.13136(11) 0.99612(10) 0.3496(2)
C6_2 C 0.14958(10) 0.87847(10) 0.34535(18)
H4_2 H 0.1560 0.8381 0.3430
C7_2 C 0.26041(9) 0.89700(9) 0.56336(17)
C8_2 C 0.29976(10) 0.94552(11) 0.5376(2)
H5_2 H 0.2866 0.9652 0.4694
H6_2 H 0.3388 0.9307 0.5258
H7_2 H 0.2999 0.9727 0.6004
C9_2 C 0.13539(10) 0.79968(11) 0.5755(2)
H8_2 H 0.1041 0.8267 0.5591
H9_2 H 0.1282 0.7809 0.6478
H10_2 H 0.1373 0.7705 0.5162
C10_3 C 0.06938(9) 0.99068(9) 0.17693(17)
C11_2 C 0.10714(9) 0.96314(9) 0.26401(17)
C12_2 C 0.11673(10) 0.90404(10) 0.26234(18)
H11_3 H 0.1007 0.8812 0.2041
N3_3 N 0.10796(8) 0.47618(8) 0.10791(15)
H12_3 H 0.1087 0.4442 0.0683
O3_2 O 0.20781(6) 0.69876(6) 0.65103(12)
O4_2 O 0.29262(7) 0.69372(7) 0.56721(14)
C13_3 C 0.08153(9) 0.55904(9) 0.16945(17)
C14_3 C 0.13142(9) 0.54300(9) 0.22902(17)
C15_2 C 0.16074(10) 0.57652(9) 0.31763(18)
C16_2 C 0.22015(10) 0.58558(11) 0.31730(19)
H13_2 H 0.2431 0.5690 0.2597
C17_2 C 0.24612(10) 0.61864(11) 0.4004(2)
H14_2 H 0.2865 0.6248 0.3988
C18_2 C 0.12847(10) 0.60042(10) 0.40465(18)
H15_2 H 0.0881 0.5940 0.4070
C19_3 C 0.14700(9) 0.48959(9) 0.18664(17)
C20_3 C 0.19552(11) 0.45024(10) 0.2124(2)
H16_2 H 0.2152 0.4634 0.2806
H17_3 H 0.1807 0.4112 0.2242
H18_3 H 0.2227 0.4501 0.1496
C21_3 C 0.04968(11) 0.61461(10) 0.1745(2)
H19_3 H 0.0767 0.6459 0.1909
H20_3 H 0.0309 0.6218 0.1022
H21_3 H 0.0205 0.6127 0.2338
C22_2 C 0.24068(9) 0.68062(9) 0.57307(17)
C23_2 C 0.21314(9) 0.64286(9) 0.48599(17)
C24_2 C 0.15404(10) 0.63327(10) 0.48766(18)
H22_2 H 0.1312 0.6493 0.5459
O5_2 O 0.29219(6) 0.80124(6) 0.84897(12)
O6_2 O 0.20738(7) 0.80628(7) 0.93279(14)
C10_4 C 0.25932(9) 0.81938(9) 0.92693(17)
H11_4 H 0.3688 0.8507 0.9541
N3_4 N 0.77382(8) 0.85796(8) 0.85791(15)
H12_4 H 0.8058 0.8587 0.8183
C13_4 C 0.69096(9) 0.83153(9) 0.91945(17)
C14_4 C 0.70700(9) 0.88142(9) 0.97902(17)
C19_4 C 0.76041(9) 0.89700(9) 0.93664(17)
C20_4 C 0.79976(10) 0.94552(11) 0.9624(2)
H17_4 H 0.8388 0.9307 0.9742
H18_4 H 0.7999 0.9727 0.8996
C21_4 C 0.63539(10) 0.79968(11) 0.9245(2)
H19_4 H 0.6041 0.8267 0.9409
H20_4 H 0.6282 0.7809 0.8522
H21_4 H 0.6373 0.7705 0.9838
Cu3_6 Cu 0.0000 0.0000 1.0000
Cu2_3 Cu 0.0000 0.5000 1.0000
Cu3_7 Cu 0.0000 1.0000 1.0000
Cu3_8 Cu 1.0000 0.0000 1.0000
Cu2_4 Cu 1.0000 0.5000 1.0000
Cu3_9 Cu 1.0000 1.0000 1.0000
N3_5 N 0.27382(8) 0.35796(8) 0.35791(15)
H12_5 H 0.3058 0.3587 0.3183
O3_3 O 0.05124(6) 0.45781(6) 0.90103(12)
O4_3 O 0.05628(7) 0.54262(7) 0.81721(14)
N4_3 N 0.23247(8) 0.31737(8) 0.34664(14)
C13_5 C 0.19096(9) 0.33153(9) 0.41945(17)
C14_5 C 0.20700(9) 0.38142(9) 0.47902(17)
C15_3 C 0.17348(9) 0.41074(10) 0.56763(18)
C16_3 C 0.16442(11) 0.47015(10) 0.56730(19)
H13_3 H 0.1810 0.4931 0.5097
C17_3 C 0.13136(11) 0.49612(10) 0.6504(2)
H14_3 H 0.1252 0.5365 0.6488
C18_3 C 0.14958(10) 0.37847(10) 0.65465(18)
H15_3 H 0.1560 0.3381 0.6570
C19_5 C 0.26041(9) 0.39700(9) 0.43664(17)
C20_5 C 0.29976(10) 0.44552(11) 0.4624(2)
H16_3 H 0.2866 0.4652 0.5306
H17_5 H 0.3388 0.4307 0.4742
H18_5 H 0.2999 0.4727 0.3996
C21_5 C 0.13539(10) 0.29968(11) 0.4245(2)
H19_5 H 0.1041 0.3267 0.4409
H20_5 H 0.1282 0.2809 0.3522
H21_5 H 0.1373 0.2705 0.4838
C22_3 C 0.06938(9) 0.49068(9) 0.82307(17)
C23_3 C 0.10714(9) 0.46314(9) 0.73599(17)
C24_3 C 0.11673(10) 0.40404(10) 0.73766(18)
H22_3 H 0.1007 0.3812 0.7959
Cu3_10 Cu 0.2500 0.2500 0.2500
N1_3 N 0.89204(8) 0.52382(8) 0.89209(15)
H1_3 H 0.8913 0.5558 0.9317
O1_3 O 0.79219(6) 0.30124(6) 0.34897(12)
O2_3 O 0.70738(7) 0.30628(7) 0.43279(14)
N2_3 N 0.93263(8) 0.48247(8) 0.90336(14)
C1_3 C 0.91847(9) 0.44096(9) 0.83055(17)
C2_3 C 0.86858(9) 0.45700(9) 0.77098(17)
C3_3 C 0.83926(10) 0.42348(9) 0.68237(18)
C4_3 C 0.77985(10) 0.41442(11) 0.68270(19)
H2_3 H 0.7569 0.4310 0.7403
C5_3 C 0.75388(10) 0.38136(11) 0.5996(2)
H3_3 H 0.7135 0.3752 0.6012
C6_3 C 0.87153(10) 0.39958(10) 0.59535(18)
H4_3 H 0.9119 0.4060 0.5930
C7_3 C 0.85300(9) 0.51041(9) 0.81336(17)
C8_3 C 0.80448(11) 0.54976(10) 0.7876(2)
H5_3 H 0.7848 0.5366 0.7194
H6_3 H 0.8193 0.5888 0.7758
H7_3 H 0.7773 0.5499 0.8504
C9_3 C 0.95032(11) 0.38539(10) 0.8255(2)
H8_3 H 0.9233 0.3541 0.8091
H9_3 H 0.9691 0.3782 0.8978
H10_3 H 0.9795 0.3873 0.7662
C10_5 C 0.75932(9) 0.31938(9) 0.42693(17)
C11_3 C 0.78686(9) 0.35714(9) 0.51401(17)
C12_3 C 0.84596(10) 0.36673(10) 0.51234(18)
H11_5 H 0.8688 0.3507 0.4541
Cu2_5 Cu 0.7500 0.2500 0.2500
N1_4 N 0.22618(8) 0.14204(8) 0.14209(15)
H1_4 H 0.1942 0.1413 0.1817
N2_4 N 0.26753(8) 0.18263(8) 0.15336(14)
C1_4 C 0.30904(9) 0.16847(9) 0.08055(17)
C2_4 C 0.29300(9) 0.11858(9) 0.02098(17)
C7_4 C 0.23959(9) 0.10300(9) 0.06336(17)
C8_4 C 0.20024(10) 0.05448(11) 0.0376(2)
H6_4 H 0.1612 0.0693 0.0258
H7_4 H 0.2001 0.0273 0.1004
C9_4 C 0.36461(10) 0.20032(11) 0.0755(2)
H8_4 H 0.3959 0.1733 0.0591
H9_4 H 0.3718 0.2191 0.1478
H10_4 H 0.3627 0.2295 0.0162
O3_4 O 0.29219(6) 0.30124(6) 0.15103(12)
O4_4 O 0.20738(7) 0.30628(7) 0.06721(14)
C22_4 C 0.25932(9) 0.31938(9) 0.07307(17)
H22_4 H 0.3688 0.3507 0.0459
O5_3 O 0.20781(6) 0.19876(6) 0.34897(12)
O6_3 O 0.29262(7) 0.19372(7) 0.43279(14)
N2_5 N 0.06737(8) 0.01753(8) 0.90336(14)
C1_5 C 0.08153(9) 0.05904(9) 0.83055(17)
C2_5 C 0.13142(9) 0.04300(9) 0.77098(17)
C3_4 C 0.16074(10) 0.07652(9) 0.68237(18)
C4_4 C 0.22015(10) 0.08558(11) 0.68270(19)
H2_4 H 0.2431 0.0690 0.7403
C5_4 C 0.24612(10) 0.11864(11) 0.5996(2)
H3_4 H 0.2865 0.1248 0.6012
C6_4 C 0.12847(10) 0.10042(10) 0.59535(18)
H4_4 H 0.0881 0.0940 0.5930
C9_5 C 0.04968(11) 0.11461(10) 0.8255(2)
H8_5 H 0.0767 0.1459 0.8091
H9_5 H 0.0309 0.1218 0.8978
H10_5 H 0.0205 0.1127 0.7662
C10_6 C 0.24068(9) 0.18062(9) 0.42693(17)
C11_4 C 0.21314(9) 0.14286(9) 0.51401(17)
C12_4 C 0.15404(10) 0.13327(10) 0.51234(18)
H11_6 H 0.1312 0.1493 0.4541
N1_5 N 0.10796(8) 0.97618(8) 0.89209(15)
H1_5 H 0.1087 0.9442 0.9317
C7_5 C 0.14700(9) 0.98959(9) 0.81336(17)
C8_5 C 0.19552(11) 0.95024(10) 0.7876(2)
H5_4 H 0.2152 0.9634 0.7194
H6_5 H 0.1807 0.9112 0.7758
H7_5 H 0.2227 0.9501 0.8504
N3_6 N 0.72618(8) 0.14204(8) 0.35791(15)
H12_6 H 0.6942 0.1413 0.3183
O3_5 O 0.94876(6) 0.04219(6) 0.90103(12)
N4_4 N 0.76753(8) 0.18263(8) 0.34664(14)
C13_6 C 0.80904(9) 0.16847(9) 0.41945(17)
C14_6 C 0.79300(9) 0.11858(9) 0.47902(17)
C15_4 C 0.82652(9) 0.08926(10) 0.56763(18)
C16_4 C 0.83558(11) 0.02985(10) 0.56730(19)
H13_4 H 0.8190 0.0069 0.5097
C17_4 C 0.86864(11) 0.00388(10) 0.6504(2)
C18_4 C 0.85042(10) 0.12153(10) 0.65465(18)
H15_4 H 0.8440 0.1619 0.6570
C19_6 C 0.73959(9) 0.10300(9) 0.43664(17)
C20_6 C 0.70024(10) 0.05448(11) 0.4624(2)
H16_4 H 0.7134 0.0348 0.5306
H17_6 H 0.6612 0.0693 0.4742
H18_6 H 0.7001 0.0273 0.3996
C21_6 C 0.86461(10) 0.20032(11) 0.4245(2)
H19_6 H 0.8959 0.1733 0.4409
H20_6 H 0.8718 0.2191 0.3522
H21_6 H 0.8627 0.2295 0.4838
C22_5 C 0.93062(9) 0.00932(9) 0.82307(17)
C23_4 C 0.89286(9) 0.03686(9) 0.73599(17)
C24_4 C 0.88327(10) 0.09596(10) 0.73766(18)
H22_5 H 0.8993 0.1188 0.7959
O4_5 O 0.94372(7) 0.95738(7) 0.81721(14)
H14_4 H 0.8748 0.9635 0.6488
N1_6 N 0.77382(8) 0.35796(8) 0.14209(15)
H1_6 H 0.8058 0.3587 0.1817
N2_6 N 0.73247(8) 0.31737(8) 0.15336(14)
C1_6 C 0.69096(9) 0.33153(9) 0.08055(17)
C2_6 C 0.70700(9) 0.38142(9) 0.02098(17)
C7_6 C 0.76041(9) 0.39700(9) 0.06336(17)
C8_6 C 0.79976(10) 0.44552(11) 0.0376(2)
H6_6 H 0.8388 0.4307 0.0258
H7_6 H 0.7999 0.4727 0.1004
C9_6 C 0.63539(10) 0.29968(11) 0.0755(2)
H8_6 H 0.6041 0.3267 0.0591
H9_6 H 0.6282 0.2809 0.1478
H10_6 H 0.6373 0.2705 0.0162
O3_6 O 0.70781(6) 0.19876(6) 0.15103(12)
O4_6 O 0.79262(7) 0.19372(7) 0.06721(14)
C22_6 C 0.74068(9) 0.18062(9) 0.07307(17)
H22_6 H 0.6312 0.1493 0.0459
Cu1_2 Cu 0.5000 0.5000 0.5000
N1_7 N 0.60796(8) 0.47618(8) 0.39209(15)
H1_7 H 0.6087 0.4442 0.4317
N2_7 N 0.56737(8) 0.51753(8) 0.40336(14)
C1_7 C 0.58153(9) 0.55904(9) 0.33055(17)
C2_7 C 0.63142(9) 0.54300(9) 0.27098(17)
C3_5 C 0.66074(10) 0.57652(9) 0.18237(18)
C4_5 C 0.72015(10) 0.58558(11) 0.18270(19)
H2_5 H 0.7431 0.5690 0.2403
C5_5 C 0.74612(10) 0.61864(11) 0.0996(2)
H3_5 H 0.7865 0.6248 0.1012
C6_5 C 0.62847(10) 0.60042(10) 0.09535(18)
H4_5 H 0.5881 0.5940 0.0930
C7_7 C 0.64700(9) 0.48959(9) 0.31336(17)
C8_7 C 0.69552(11) 0.45024(10) 0.2876(2)
H5_5 H 0.7152 0.4634 0.2194
H6_7 H 0.6807 0.4112 0.2758
H7_7 H 0.7227 0.4501 0.3504
C9_7 C 0.54968(11) 0.61461(10) 0.3255(2)
H8_7 H 0.5767 0.6459 0.3091
H9_7 H 0.5309 0.6218 0.3978
H10_7 H 0.5205 0.6127 0.2662
C11_5 C 0.71314(9) 0.64286(9) 0.01401(17)
C12_5 C 0.65404(10) 0.63327(10) 0.01234(18)
O3_7 O 0.44876(6) 0.54219(6) 0.40103(12)
O4_7 O 0.44372(7) 0.45738(7) 0.31721(14)
C15_5 C 0.32652(9) 0.58926(10) 0.06763(18)
C16_5 C 0.33558(11) 0.52985(10) 0.06730(19)
H13_5 H 0.3190 0.5069 0.0097
C17_5 C 0.36864(11) 0.50388(10) 0.1504(2)
H14_5 H 0.3748 0.4635 0.1488
C18_5 C 0.35042(10) 0.62153(10) 0.15465(18)
H15_5 H 0.3440 0.6619 0.1570
H16_5 H 0.2134 0.5348 0.0306
C22_7 C 0.43062(9) 0.50932(9) 0.32307(17)
C23_5 C 0.39286(9) 0.53686(9) 0.23599(17)
C24_5 C 0.38327(10) 0.59596(10) 0.23766(18)
H22_7 H 0.3993 0.6188 0.2959
O5_4 O 0.55124(6) 0.45781(6) 0.59897(12)
O6_4 O 0.55628(7) 0.54262(7) 0.68279(14)
N5_3 N 0.43263(8) 0.48247(8) 0.59664(14)
O1_4 O 0.44876(6) 0.04219(6) 0.59897(12)
C3_6 C 0.32652(9) 0.08926(10) 0.93237(18)
C4_6 C 0.33558(11) 0.02985(10) 0.93270(19)
H2_6 H 0.3190 0.0069 0.9903
C5_6 C 0.36864(11) 0.00388(10) 0.8496(2)
C6_6 C 0.35042(10) 0.12153(10) 0.84535(18)
H4_6 H 0.3440 0.1619 0.8430
H5_6 H 0.2134 0.0348 0.9694
C10_7 C 0.43062(9) 0.00932(9) 0.67693(17)
C11_6 C 0.39286(9) 0.03686(9) 0.76401(17)
C12_6 C 0.38327(10) 0.09596(10) 0.76234(18)
H11_7 H 0.3993 0.1188 0.7041
N3_7 N 0.39204(8) 0.52382(8) 0.60791(15)
H12_7 H 0.3913 0.5558 0.5683
C13_7 C 0.41847(9) 0.44096(9) 0.66945(17)
C14_7 C 0.36858(9) 0.45700(9) 0.72902(17)
C15_6 C 0.33926(10) 0.42348(9) 0.81763(18)
C16_6 C 0.27985(10) 0.41442(11) 0.81730(19)
H13_6 H 0.2569 0.4310 0.7597
C17_6 C 0.25388(10) 0.38136(11) 0.9004(2)
H14_6 H 0.2135 0.3752 0.8988
C18_6 C 0.37153(10) 0.39958(10) 0.90465(18)
H15_6 H 0.4119 0.4060 0.9070
C19_7 C 0.35300(9) 0.51041(9) 0.68664(17)
C20_7 C 0.30448(11) 0.54976(10) 0.7124(2)
H16_6 H 0.2848 0.5366 0.7806
H17_7 H 0.3193 0.5888 0.7242
H18_7 H 0.2773 0.5499 0.6496
C21_7 C 0.45032(11) 0.38539(10) 0.6745(2)
H19_7 H 0.4233 0.3541 0.6909
H20_7 H 0.4691 0.3782 0.6022
H21_7 H 0.4795 0.3873 0.7338
C23_6 C 0.28686(9) 0.35714(9) 0.98599(17)
C24_6 C 0.34596(10) 0.36673(10) 0.98766(18)
Cu2_6 Cu 0.5000 0.0000 0.5000
O2_4 O 0.44372(7) 0.95738(7) 0.68279(14)
H3_6 H 0.3748 0.9635 0.8512
Cu2_7 Cu 0.5000 1.0000 0.5000
N1_8 N 0.39204(8) 0.02382(8) 0.39209(15)
H1_8 H 0.3913 0.0558 0.4317
C7_8 C 0.35300(9) 0.01041(9) 0.31336(17)
C8_8 C 0.30448(11) 0.04976(10) 0.2876(2)
H5_7 H 0.2848 0.0366 0.2194
H6_8 H 0.3193 0.0888 0.2758
H7_8 H 0.2773 0.0499 0.3504
O4_8 O 0.55628(7) 0.04262(7) 0.31721(14)
H14_7 H 0.6252 0.0365 0.1488
N5_4 N 0.56737(8) 0.01753(8) 0.59664(14)
N2_8 N 0.43263(8) 0.98247(8) 0.40336(14)
C1_8 C 0.41847(9) 0.94096(9) 0.33055(17)
C2_8 C 0.36858(9) 0.95700(9) 0.27098(17)
C3_7 C 0.33926(10) 0.92348(9) 0.18237(18)
C4_7 C 0.27985(10) 0.91442(11) 0.18270(19)
H2_7 H 0.2569 0.9310 0.2403
C5_7 C 0.25388(10) 0.88136(11) 0.0996(2)
H3_7 H 0.2135 0.8752 0.1012
C6_7 C 0.37153(10) 0.89958(10) 0.09535(18)
H4_7 H 0.4119 0.9060 0.0930
C9_8 C 0.45032(11) 0.88539(10) 0.3255(2)
H8_8 H 0.4233 0.8541 0.3091
H9_8 H 0.4691 0.8782 0.3978
H10_8 H 0.4795 0.8873 0.2662
C11_7 C 0.28686(9) 0.85714(9) 0.01401(17)
C12_7 C 0.34596(10) 0.86673(10) 0.01234(18)
O3_8 O 0.55124(6) 0.95781(6) 0.40103(12)
C15_7 C 0.67348(9) 0.91074(10) 0.06763(18)
C16_7 C 0.66442(11) 0.97015(10) 0.06730(19)
H13_7 H 0.6810 0.9931 0.0097
C17_7 C 0.63136(11) 0.99612(10) 0.1504(2)
C18_7 C 0.64958(10) 0.87847(10) 0.15465(18)
H15_7 H 0.6560 0.8381 0.1570
H16_7 H 0.7866 0.9652 0.0306
C22_8 C 0.56938(9) 0.99068(9) 0.32307(17)
C23_7 C 0.60714(9) 0.96314(9) 0.23599(17)
C24_7 C 0.61673(10) 0.90404(10) 0.23766(18)
H22_8 H 0.6007 0.8812 0.2959
C3_8 C 0.67348(9) 0.41074(10) 0.93237(18)
C4_8 C 0.66442(11) 0.47015(10) 0.93270(19)
H2_8 H 0.6810 0.4931 0.9903
C5_8 C 0.63136(11) 0.49612(10) 0.8496(2)
H3_8 H 0.6252 0.5365 0.8512
C6_8 C 0.64958(10) 0.37847(10) 0.84535(18)
H4_8 H 0.6560 0.3381 0.8430
H5_8 H 0.7866 0.4652 0.9694
C10_8 C 0.56938(9) 0.49068(9) 0.67693(17)
C11_8 C 0.60714(9) 0.46314(9) 0.76401(17)
C12_8 C 0.61673(10) 0.40404(10) 0.76234(18)
H11_8 H 0.6007 0.3812 0.7041
C13_8 C 0.58153(9) 0.05904(9) 0.66945(17)
C14_8 C 0.63142(9) 0.04300(9) 0.72902(17)
C15_8 C 0.66074(10) 0.07652(9) 0.81763(18)
C16_8 C 0.72015(10) 0.08558(11) 0.81730(19)
H13_8 H 0.7431 0.0690 0.7597
C17_8 C 0.74612(10) 0.11864(11) 0.9004(2)
H14_8 H 0.7865 0.1248 0.8988
C18_8 C 0.62847(10) 0.10042(10) 0.90465(18)
H15_8 H 0.5881 0.0940 0.9070
C21_8 C 0.54968(11) 0.11461(10) 0.6745(2)
H19_8 H 0.5767 0.1459 0.6909
H20_8 H 0.5309 0.1218 0.6022
H21_8 H 0.5205 0.1127 0.7338
C23_8 C 0.71314(9) 0.14286(9) 0.98599(17)
C24_8 C 0.65404(10) 0.13327(10) 0.98766(18)
N3_8 N 0.60796(8) 0.97618(8) 0.60791(15)
H12_8 H 0.6087 0.9442 0.5683
C19_8 C 0.64700(9) 0.98959(9) 0.68664(17)
C20_8 C 0.69552(11) 0.95024(10) 0.7124(2)
H16_8 H 0.7152 0.9634 0.7806
H17_8 H 0.6807 0.9112 0.7242
H18_8 H 0.7227 0.9501 0.6496
loop_
_geom_bond_atom_site_label_1
_geom_bond_atom_site_label_2
_geom_bond_site_symmetry_1
_geom_bond_site_symmetry_2
N3 H12 1_555 1_555
C19 N3 1_555 1_555
C20 C19 1_555 1_555
H16 C20 1_555 1_555
H17 C20 1_555 1_555
H18 C20 1_555 1_555
Cu1 N2 1_555 1_555
N1 H1 1_555 1_555
O1 C10 1_555 1_555
O2 C10 1_555 1_555
N2 N1 1_555 1_555
C1 N2 1_555 1_555
C2 C1 1_555 1_555
C3 C2 1_555 1_555
C4 C3 1_555 1_555
H2 C4 1_555 1_555
C5 C4 1_555 1_555
H3 C5 1_555 1_555
C6 C3 1_555 1_555
H4 C6 1_555 1_555
C7 N1 1_555 1_555
C8 C7 1_555 1_555
H5 C8 1_555 1_555
H6 C8 1_555 1_555
H7 C8 1_555 1_555
C9 C1 1_555 1_555
H8 C9 1_555 1_555
H9 C9 1_555 1_555
H10 C9 1_555 1_555
C10 C11 1_555 1_555
C11 C5 1_555 1_555
C12 C6 1_555 1_555
H11 C12 1_555 1_555
O3 Cu1 1_555 1_555
O4 Cu1 1_555 1_555
C13 N4 1_555 1_555
C14 C13 1_555 1_555
C15 C14 1_555 1_555
C16 C15 1_555 1_555
H13 C16 1_555 1_555
C17 C16 1_555 1_555
H14 C17 1_555 1_555
C18 C15 1_555 1_555
H15 C18 1_555 1_555
C21 C13 1_555 1_555
H19 C21 1_555 1_555
H20 C21 1_555 1_555
H21 C21 1_555 1_555
C22 O3 1_555 1_555
C23 C17 1_555 1_555
C24 C18 1_555 1_555
H22 C24 1_555 1_555
Cu2_2 O1 1_555 1_555
Cu3_4 N4 1_555 1_555
O5 Cu1 1_555 1_555
O6 Cu1 1_555 1_555
N5 Cu1 1_555 1_555
O2 Cu2_2 1_555 1_555
C2 C7 1_555 1_555
C11 C12 1_555 1_555
O4 C22 1_555 1_555
C22 C23 1_555 1_555
C23 C24 1_555 1_555
O5 C10_2 1_555 1_555
O6 C10_2 1_555 1_555
N3_2 H12_2 1_555 1_555
N4_2 N3_2 1_555 1_555
C13_2 N4_2 1_555 1_555
C14_2 C13_2 1_555 1_555
C19_2 N3_2 1_555 1_555
C20_2 C19_2 1_555 1_555
H17_2 C20_2 1_555 1_555
H18_2 C20_2 1_555 1_555
C21_2 C13_2 1_555 1_555
H19_2 C21_2 1_555 1_555
H20_2 C21_2 1_555 1_555
H21_2 C21_2 1_555 1_555
Cu3_5 N4_2 1_555 1_555
C14_2 C19_2 1_555 1_555
N5_2 Cu2 1_555 1_555
O2_2 Cu3 1_555 1_555
Cu3_5 N2_2 1_555 1_555
N1_2 H1_2 1_555 1_555
O1_2 C10_3 1_555 1_555
N2_2 N1_2 1_555 1_555
C1_2 N2_2 1_555 1_555
C2_2 C1_2 1_555 1_555
C3_2 C2_2 1_555 1_555
C4_2 C3_2 1_555 1_555
H2_2 C4_2 1_555 1_555
C5_2 C4_2 1_555 1_555
C6_2 C3_2 1_555 1_555
H4_2 C6_2 1_555 1_555
C7_2 N1_2 1_555 1_555
C8_2 C7_2 1_555 1_555
H5_2 C8_2 1_555 1_555
H6_2 C8_2 1_555 1_555
H7_2 C8_2 1_555 1_555
C9_2 C1_2 1_555 1_555
H8_2 C9_2 1_555 1_555
H9_2 C9_2 1_555 1_555
H10_2 C9_2 1_555 1_555
C10_3 C11_2 1_555 1_555
C11_2 C5_2 1_555 1_555
C12_2 C6_2 1_555 1_555
H11_3 C12_2 1_555 1_555
N3_3 H12_3 1_555 1_555
O3_2 Cu3_5 1_555 1_555
O4_2 Cu3_5 1_555 1_555
N5_2 N3_3 1_555 1_555
C13_3 N5_2 1_555 1_555
C14_3 C13_3 1_555 1_555
C15_2 C14_3 1_555 1_555
C16_2 C15_2 1_555 1_555
H13_2 C16_2 1_555 1_555
C17_2 C16_2 1_555 1_555
H14_2 C17_2 1_555 1_555
C18_2 C15_2 1_555 1_555
H15_2 C18_2 1_555 1_555
C19_3 N3_3 1_555 1_555
C20_3 C19_3 1_555 1_555
H16_2 C20_3 1_555 1_555
H17_3 C20_3 1_555 1_555
H18_3 C20_3 1_555 1_555
C21_3 C13_3 1_555 1_555
H19_3 C21_3 1_555 1_555
H20_3 C21_3 1_555 1_555
H21_3 C21_3 1_555 1_555
C22_2 O3_2 1_555 1_555
C23_2 C17_2 1_555 1_555
C24_2 C18_2 1_555 1_555
H22_2 C24_2 1_555 1_555
Cu3_2 O1_2 1_555 1_555
O5_2 Cu3_5 1_555 1_555
O6_2 Cu3_5 1_555 1_555
C2_2 C7_2 1_555 1_555
C11_2 C12_2 1_555 1_555
O4_2 C22_2 1_555 1_555
C14_3 C19_3 1_555 1_555
C22_2 C23_2 1_555 1_555
C23_2 C24_2 1_555 1_555
O5_2 C10_4 1_555 1_555
O6_2 C10_4 1_555 1_555
N3_4 H12_4 1_555 1_555
N5 N3_4 1_555 1_555
C13_4 N5 1_555 1_555
C14_4 C13_4 1_555 1_555
C19_4 N3_4 1_555 1_555
C20_4 C19_4 1_555 1_555
H17_4 C20_4 1_555 1_555
H18_4 C20_4 1_555 1_555
C21_4 C13_4 1_555 1_555
H19_4 C21_4 1_555 1_555
H20_4 C21_4 1_555 1_555
H21_4 C21_4 1_555 1_555
C14_4 C19_4 1_555 1_555
N3_5 H12_5 1_555 1_555
O3_3 Cu2_3 1_555 1_555
O4_3 Cu2_3 1_555 1_555
N4_3 N3_5 1_555 1_555
C13_5 N4_3 1_555 1_555
C14_5 C13_5 1_555 1_555
C15_3 C14_5 1_555 1_555
C16_3 C15_3 1_555 1_555
H13_3 C16_3 1_555 1_555
C17_3 C16_3 1_555 1_555
H14_3 C17_3 1_555 1_555
C18_3 C15_3 1_555 1_555
H15_3 C18_3 1_555 1_555
C19_5 N3_5 1_555 1_555
C20_5 C19_5 1_555 1_555
H16_3 C20_5 1_555 1_555
H17_5 C20_5 1_555 1_555
H18_5 C20_5 1_555 1_555
C21_5 C13_5 1_555 1_555
H19_5 C21_5 1_555 1_555
H20_5 C21_5 1_555 1_555
H21_5 C21_5 1_555 1_555
C22_3 O3_3 1_555 1_555
C23_3 C17_3 1_555 1_555
C24_3 C18_3 1_555 1_555
H22_3 C24_3 1_555 1_555
Cu3_10 N4_3 1_555 1_555
O4_3 C22_3 1_555 1_555
C14_5 C19_5 1_555 1_555
C22_3 C23_3 1_555 1_555
C23_3 C24_3 1_555 1_555
Cu2_4 N2_3 1_555 1_555
N1_3 H1_3 1_555 1_555
O1_3 C10_5 1_555 1_555
O2_3 C10_5 1_555 1_555
N2_3 N1_3 1_555 1_555
C1_3 N2_3 1_555 1_555
C2_3 C1_3 1_555 1_555
C3_3 C2_3 1_555 1_555
C4_3 C3_3 1_555 1_555
H2_3 C4_3 1_555 1_555
C5_3 C4_3 1_555 1_555
H3_3 C5_3 1_555 1_555
C6_3 C3_3 1_555 1_555
H4_3 C6_3 1_555 1_555
C7_3 N1_3 1_555 1_555
C8_3 C7_3 1_555 1_555
H5_3 C8_3 1_555 1_555
H6_3 C8_3 1_555 1_555
H7_3 C8_3 1_555 1_555
C9_3 C1_3 1_555 1_555
H8_3 C9_3 1_555 1_555
H9_3 C9_3 1_555 1_555
H10_3 C9_3 1_555 1_555
C10_5 C11_3 1_555 1_555
C11_3 C5_3 1_555 1_555
C12_3 C6_3 1_555 1_555
H11_5 C12_3 1_555 1_555
Cu2_5 O1_3 1_555 1_555
O2_3 Cu2_5 1_555 1_555
C2_3 C7_3 1_555 1_555
C11_3 C12_3 1_555 1_555
Cu3_10 N2_4 1_555 1_555
N1_4 H1_4 1_555 1_555
N2_4 N1_4 1_555 1_555
C1_4 N2_4 1_555 1_555
C2_4 C1_4 1_555 1_555
C7_4 N1_4 1_555 1_555
C8_4 C7_4 1_555 1_555
H6_4 C8_4 1_555 1_555
H7_4 C8_4 1_555 1_555
C9_4 C1_4 1_555 1_555
H8_4 C9_4 1_555 1_555
H9_4 C9_4 1_555 1_555
H10_4 C9_4 1_555 1_555
O3_4 Cu3_10 1_555 1_555
O4_4 Cu3_10 1_555 1_555
C22_4 O3_4 1_555 1_555
O5_3 Cu3_10 1_555 1_555
O6_3 Cu3_10 1_555 1_555
C2_4 C7_4 1_555 1_555
O4_4 C22_4 1_555 1_555
Cu3_6 N2_5 1_555 1_555
O5_3 C10_6 1_555 1_555
O6_3 C10_6 1_555 1_555
C1_5 N2_5 1_555 1_555
C2_5 C1_5 1_555 1_555
C3_4 C2_5 1_555 1_555
C4_4 C3_4 1_555 1_555
H2_4 C4_4 1_555 1_555
C5_4 C4_4 1_555 1_555
H3_4 C5_4 1_555 1_555
C6_4 C3_4 1_555 1_555
H4_4 C6_4 1_555 1_555
C9_5 C1_5 1_555 1_555
H8_5 C9_5 1_555 1_555
H9_5 C9_5 1_555 1_555
H10_5 C9_5 1_555 1_555
C10_6 C11_4 1_555 1_555
C11_4 C5_4 1_555 1_555
C12_4 C6_4 1_555 1_555
H11_6 C12_4 1_555 1_555
C11_4 C12_4 1_555 1_555
N1_5 H1_5 1_555 1_555
C7_5 N1_5 1_555 1_555
C8_5 C7_5 1_555 1_555
H5_4 C8_5 1_555 1_555
H6_5 C8_5 1_555 1_555
H7_5 C8_5 1_555 1_555
N3_6 H12_6 1_555 1_555
O3_5 Cu3_8 1_555 1_555
N4_4 N3_6 1_555 1_555
C13_6 N4_4 1_555 1_555
C14_6 C13_6 1_555 1_555
C15_4 C14_6 1_555 1_555
C16_4 C15_4 1_555 1_555
H13_4 C16_4 1_555 1_555
C17_4 C16_4 1_555 1_555
C18_4 C15_4 1_555 1_555
H15_4 C18_4 1_555 1_555
C19_6 N3_6 1_555 1_555
C20_6 C19_6 1_555 1_555
H16_4 C20_6 1_555 1_555
H17_6 C20_6 1_555 1_555
H18_6 C20_6 1_555 1_555
C21_6 C13_6 1_555 1_555
H19_6 C21_6 1_555 1_555
H20_6 C21_6 1_555 1_555
H21_6 C21_6 1_555 1_555
C22_5 O3_5 1_555 1_555
C23_4 C17_4 1_555 1_555
C24_4 C18_4 1_555 1_555
H22_5 C24_4 1_555 1_555
Cu2_5 N4_4 1_555 1_555
C14_6 C19_6 1_555 1_555
C22_5 C23_4 1_555 1_555
C23_4 C24_4 1_555 1_555
O4_5 Cu3_9 1_555 1_555
Cu2_5 N2_6 1_555 1_555
N1_6 H1_6 1_555 1_555
N2_6 N1_6 1_555 1_555
C1_6 N2_6 1_555 1_555
C2_6 C1_6 1_555 1_555
C7_6 N1_6 1_555 1_555
C8_6 C7_6 1_555 1_555
H6_6 C8_6 1_555 1_555
H7_6 C8_6 1_555 1_555
C9_6 C1_6 1_555 1_555
H8_6 C9_6 1_555 1_555
H9_6 C9_6 1_555 1_555
H10_6 C9_6 1_555 1_555
O3_6 Cu2_5 1_555 1_555
O4_6 Cu2_5 1_555 1_555
C22_6 O3_6 1_555 1_555
C2_6 C7_6 1_555 1_555
O4_6 C22_6 1_555 1_555
Cu1_2 N2_7 1_555 1_555
N1_7 H1_7 1_555 1_555
N2_7 N1_7 1_555 1_555
C1_7 N2_7 1_555 1_555
C2_7 C1_7 1_555 1_555
C3_5 C2_7 1_555 1_555
C4_5 C3_5 1_555 1_555
H2_5 C4_5 1_555 1_555
C5_5 C4_5 1_555 1_555
H3_5 C5_5 1_555 1_555
C6_5 C3_5 1_555 1_555
H4_5 C6_5 1_555 1_555
C7_7 N1_7 1_555 1_555
C8_7 C7_7 1_555 1_555
H5_5 C8_7 1_555 1_555
H6_7 C8_7 1_555 1_555
H7_7 C8_7 1_555 1_555
C9_7 C1_7 1_555 1_555
H8_7 C9_7 1_555 1_555
H9_7 C9_7 1_555 1_555
H10_7 C9_7 1_555 1_555
C11_5 C5_5 1_555 1_555
C12_5 C6_5 1_555 1_555
O3_7 Cu1_2 1_555 1_555
O4_7 Cu1_2 1_555 1_555
C16_5 C15_5 1_555 1_555
H13_5 C16_5 1_555 1_555
C17_5 C16_5 1_555 1_555
H14_5 C17_5 1_555 1_555
C18_5 C15_5 1_555 1_555
H15_5 C18_5 1_555 1_555
C22_7 O3_7 1_555 1_555
C23_5 C17_5 1_555 1_555
C24_5 C18_5 1_555 1_555
H22_7 C24_5 1_555 1_555
O5_4 Cu1_2 1_555 1_555
O6_4 Cu1_2 1_555 1_555
N5_3 Cu1_2 1_555 1_555
C2_7 C7_7 1_555 1_555
C11_5 C12_5 1_555 1_555
O4_7 C22_7 1_555 1_555
C22_7 C23_5 1_555 1_555
C23_5 C24_5 1_555 1_555
O1_4 C10_7 1_555 1_555
C4_6 C3_6 1_555 1_555
H2_6 C4_6 1_555 1_555
C5_6 C4_6 1_555 1_555
C6_6 C3_6 1_555 1_555
H4_6 C6_6 1_555 1_555
C10_7 C11_6 1_555 1_555
C11_6 C5_6 1_555 1_555
C12_6 C6_6 1_555 1_555
H11_7 C12_6 1_555 1_555
N3_7 H12_7 1_555 1_555
N5_3 N3_7 1_555 1_555
C13_7 N5_3 1_555 1_555
C14_7 C13_7 1_555 1_555
C15_6 C14_7 1_555 1_555
C16_6 C15_6 1_555 1_555
H13_6 C16_6 1_555 1_555
C17_6 C16_6 1_555 1_555
H14_6 C17_6 1_555 1_555
C18_6 C15_6 1_555 1_555
H15_6 C18_6 1_555 1_555
C19_7 N3_7 1_555 1_555
C20_7 C19_7 1_555 1_555
H16_6 C20_7 1_555 1_555
H17_7 C20_7 1_555 1_555
H18_7 C20_7 1_555 1_555
C21_7 C13_7 1_555 1_555
H19_7 C21_7 1_555 1_555
H20_7 C21_7 1_555 1_555
H21_7 C21_7 1_555 1_555
C23_6 C17_6 1_555 1_555
C24_6 C18_6 1_555 1_555
Cu2_6 O1_4 1_555 1_555
C11_6 C12_6 1_555 1_555
C14_7 C19_7 1_555 1_555
C23_6 C24_6 1_555 1_555
O2_4 Cu2_7 1_555 1_555
N1_8 H1_8 1_555 1_555
C7_8 N1_8 1_555 1_555
C8_8 C7_8 1_555 1_555
H5_7 C8_8 1_555 1_555
H6_8 C8_8 1_555 1_555
H7_8 C8_8 1_555 1_555
O4_8 Cu2_6 1_555 1_555
N5_4 Cu2_6 1_555 1_555
Cu2_7 N2_8 1_555 1_555
C1_8 N2_8 1_555 1_555
C2_8 C1_8 1_555 1_555
C3_7 C2_8 1_555 1_555
C4_7 C3_7 1_555 1_555
H2_7 C4_7 1_555 1_555
C5_7 C4_7 1_555 1_555
H3_7 C5_7 1_555 1_555
C6_7 C3_7 1_555 1_555
H4_7 C6_7 1_555 1_555
C9_8 C1_8 1_555 1_555
H8_8 C9_8 1_555 1_555
H9_8 C9_8 1_555 1_555
H10_8 C9_8 1_555 1_555
C11_7 C5_7 1_555 1_555
C12_7 C6_7 1_555 1_555
O3_8 Cu2_7 1_555 1_555
C16_7 C15_7 1_555 1_555
H13_7 C16_7 1_555 1_555
C17_7 C16_7 1_555 1_555
C18_7 C15_7 1_555 1_555
H15_7 C18_7 1_555 1_555
C22_8 O3_8 1_555 1_555
C23_7 C17_7 1_555 1_555
C24_7 C18_7 1_555 1_555
H22_8 C24_7 1_555 1_555
C11_7 C12_7 1_555 1_555
C22_8 C23_7 1_555 1_555
C23_7 C24_7 1_555 1_555
O5_4 C10_8 1_555 1_555
O6_4 C10_8 1_555 1_555
C4_8 C3_8 1_555 1_555
H2_8 C4_8 1_555 1_555
C5_8 C4_8 1_555 1_555
H3_8 C5_8 1_555 1_555
C6_8 C3_8 1_555 1_555
H4_8 C6_8 1_555 1_555
C10_8 C11_8 1_555 1_555
C11_8 C5_8 1_555 1_555
C12_8 C6_8 1_555 1_555
H11_8 C12_8 1_555 1_555
C13_8 N5_4 1_555 1_555
C14_8 C13_8 1_555 1_555
C15_8 C14_8 1_555 1_555
C16_8 C15_8 1_555 1_555
H13_8 C16_8 1_555 1_555
C17_8 C16_8 1_555 1_555
H14_8 C17_8 1_555 1_555
C18_8 C15_8 1_555 1_555
H15_8 C18_8 1_555 1_555
C21_8 C13_8 1_555 1_555
H19_8 C21_8 1_555 1_555
H20_8 C21_8 1_555 1_555
H21_8 C21_8 1_555 1_555
C23_8 C17_8 1_555 1_555
C24_8 C18_8 1_555 1_555
C11_8 C12_8 1_555 1_555
C23_8 C24_8 1_555 1_555
N3_8 H12_8 1_555 1_555
C19_8 N3_8 1_555 1_555
C20_8 C19_8 1_555 1_555
H16_8 C20_8 1_555 1_555
H17_8 C20_8 1_555 1_555
H18_8 C20_8 1_555 1_555

#END
