
###############################################################################
#
# This file contains modified crystal structure data generated from the
# MOF subset of the Cambridge Structural Database (CSD) v543 
# hosted by the Cambridge Crystallographic Data Centre (CCDC).
#
# This work is licensed under the Creative Commons
# Attribution-NonCommercial-ShareAlike 4.0 International License.
# To view a copy of this license, visit
# http://creativecommons.org/licenses/by-nc-sa/4.0/
# or send a letter to
# Creative Commons, PO Box 1866, Mountain View, CA 94042, USA.
#
# CIF created using the CSD Python API on 29 September 2022
# The structure has been converted into the P1 space group
# The structure has a 3D framework
# The original CSD entry YARGAB is in the trigonal crystal system
# The framework has been calculated to contain at least 10.0% void space
# The void calculation uses a probe of radius 1.32A, grid spacing 0.4
# The framework is charged, counterions have been retained in the structure
#
###############################################################################

data_YARGAB
_chemical_formula_moiety         '(C96 H60 O32 Zn6 5-)n'
_symmetry_cell_setting           triclinic
_symmetry_space_group_name_H-M   'P 1'
_symmetry_Int_Tables_number      1
_space_group_name_Hall           'P 1'
loop_
_symmetry_equiv_pos_site_id
_symmetry_equiv_pos_as_xyz
1 x,y,z
_cell_length_a                   15.578(3)
_cell_length_b                   15.578(3)
_cell_length_c                   16.521(3)
_cell_angle_alpha                90
_cell_angle_beta                 90
_cell_angle_gamma                120
_cell_volume                     3472.09
loop_
_atom_site_label
_atom_site_type_symbol
_atom_site_fract_x
_atom_site_fract_y
_atom_site_fract_z
Zn5 Zn 0.259080(16) 0.740920(16) 0.7500
Zn7 Zn 0.259080(16) 0.518160(23) 0.7500
O7 O 0.14752(14) 0.50769(21) 0.67465(12)
O15 O 0.18307(15) 0.66442(22) 0.64734(12)
C11 C 0.1392(2) 0.5727(3) 0.63462(16)
C16 C 0.0679(2) 0.5348(3) 0.56469(16)
C20 C 0.0274(2) 0.4783(3) 0.42453(17)
C25 C 0.0965(2) 0.5141(3) 0.49056(17)
C30 C 0.1925(2) 0.5255(3) 0.47817(19)
H12 H 0.2381 0.5461 0.5220
C35 C 0.2197(3) 0.5077(4) 0.4052(2)
H17 H 0.2848 0.5184 0.3976
C40 C 0.1505(3) 0.4726(4) 0.3393(2)
H22 H 0.1695 0.4589 0.2885
C45 C 0.0583(2) 0.4588(4) 0.3493(2)
H27 H 0.0133 0.4357 0.3050
Zn1 Zn 0.740920(16) 0.259080(16) 0.2500
O1 O 0.63983(15) 0.14752(14) 0.32535(12)
O2 O 0.6667 0.3333 0.2500
O3 O 0.51865(16) 0.18307(15) 0.35266(12)
O4 O 0.81912(13) 0.18088(13) 0.2500
H1 H 0.8059 0.1289 0.2768
C1 C 0.5665(2) 0.1392(2) 0.36538(16)
C2 C 0.5331(2) 0.0679(2) 0.43531(16)
Zn2 Zn 0.740920(16) 0.481840(23) 0.2500
Zn3 Zn 0.518160(23) 0.259080(16) 0.2500
Zn9 Zn 0.481840(23) 0.740920(16) 0.7500
O6 O 0.85248(14) 0.49231(21) 0.32535(12)
O8 O 0.50769(21) 0.36017(15) 0.32535(12)
O9 O 0.49231(21) 0.63983(15) 0.67465(12)
O10 O 0.85248(14) 0.36017(15) 0.17465(12)
O11 O 0.50769(21) 0.14752(14) 0.17465(12)
O12 O 0.63983(15) 0.49231(21) 0.17465(12)
O14 O 0.81693(15) 0.33558(22) 0.35266(12)
O16 O 0.66442(22) 0.48135(16) 0.35266(12)
O17 O 0.33558(22) 0.51865(16) 0.64734(12)
O18 O 0.81693(15) 0.48135(16) 0.14734(12)
O19 O 0.66442(22) 0.18307(15) 0.14734(12)
O20 O 0.51865(16) 0.33558(22) 0.14734(12)
O21 O 0.81912(13) 0.63824(18) 0.2500
O22 O 0.36176(18) 0.18088(13) 0.2500
H6 H 0.8711 0.1941 0.2232
H7 H 0.8711 0.6770 0.2768
H8 H 0.8059 0.6770 0.2232
H9 H 0.3230 0.1941 0.2768
H10 H 0.3230 0.1289 0.2232
C10 C 0.8608(2) 0.4273(3) 0.36538(16)
C12 C 0.5727(3) 0.4335(2) 0.36538(16)
C13 C 0.4273(3) 0.5665(2) 0.63462(16)
C15 C 0.9321(2) 0.4652(3) 0.43531(16)
C17 C 0.5348(3) 0.4669(2) 0.43531(16)
C18 C 0.4652(3) 0.5331(2) 0.56469(16)
C19 C 0.5491(2) 0.0274(2) 0.57547(17)
C21 C 0.9726(2) 0.5217(3) 0.57547(17)
C22 C 0.5217(3) 0.5491(2) 0.42453(17)
C23 C 0.4783(3) 0.4509(2) 0.57547(17)
C24 C 0.5824(2) 0.0965(2) 0.50944(17)
C26 C 0.9035(2) 0.4859(3) 0.50944(17)
C27 C 0.4859(3) 0.5824(2) 0.49056(17)
C28 C 0.5141(3) 0.4176(2) 0.50944(17)
C29 C 0.6670(2) 0.1925(2) 0.52183(19)
C31 C 0.8075(2) 0.4745(3) 0.52183(19)
C32 C 0.4745(3) 0.6670(2) 0.47817(19)
C33 C 0.5255(3) 0.3330(2) 0.52183(19)
H11 H 0.6920 0.2381 0.4780
H13 H 0.7619 0.4539 0.4780
H14 H 0.4539 0.6920 0.5220
H15 H 0.5461 0.3080 0.4780
C34 C 0.7120(3) 0.2197(3) 0.5948(2)
C36 C 0.7803(3) 0.4923(4) 0.5948(2)
C37 C 0.4923(4) 0.7120(3) 0.4052(2)
C38 C 0.5077(4) 0.2880(3) 0.5948(2)
H16 H 0.7664 0.2848 0.6024
H18 H 0.7152 0.4816 0.6024
H19 H 0.4816 0.7664 0.3976
H20 H 0.5184 0.2336 0.6024
C39 C 0.6779(3) 0.1505(3) 0.6607(2)
C41 C 0.8495(3) 0.5274(4) 0.6607(2)
C42 C 0.5274(4) 0.6779(3) 0.3393(2)
C43 C 0.4726(4) 0.3221(3) 0.6607(2)
H21 H 0.7106 0.1695 0.7115
H23 H 0.8305 0.5411 0.7115
H24 H 0.5411 0.7106 0.2885
H25 H 0.4589 0.2894 0.7115
C44 C 0.5995(3) 0.0583(2) 0.6507(2)
C46 C 0.9417(2) 0.5412(4) 0.6507(2)
C47 C 0.5412(4) 0.5995(3) 0.3493(2)
C48 C 0.4588(4) 0.4005(3) 0.6507(2)
H26 H 0.5776 0.0133 0.6950
H28 H 0.9867 0.5643 0.6950
H29 H 0.5643 0.5776 0.3050
H30 H 0.4357 0.4224 0.6950
C3 C 0.4509(2) 0.9726(2) 0.42453(17)
C4 C 0.4176(2) 0.9035(2) 0.49056(17)
C5 C 0.3330(2) 0.8075(2) 0.47817(19)
H2 H 0.3080 0.7619 0.5220
C6 C 0.2880(3) 0.7803(3) 0.4052(2)
H3 H 0.2336 0.7152 0.3976
C7 C 0.3221(3) 0.8495(3) 0.3393(2)
H4 H 0.2894 0.8305 0.2885
C8 C 0.4005(3) 0.9417(2) 0.3493(2)
H5 H 0.4224 0.9867 0.3050
O5 O 0.36017(15) 0.85248(14) 0.67465(12)
O13 O 0.48135(16) 0.81693(15) 0.64734(12)
C9 C 0.4335(2) 0.8608(2) 0.63462(16)
C14 C 0.4669(2) 0.9321(2) 0.56469(16)
C3_2 C 0.0274(2) 0.5491(2) 0.07547(17)
C4_2 C 0.0965(2) 0.5824(2) 0.00944(17)
C5_2 C 0.1925(2) 0.6670(2) 0.02183(19)
C6_2 C 0.2197(3) 0.7120(3) 0.0948(2)
H3_2 H 0.2848 0.7664 0.1024
C7_2 C 0.1505(3) 0.6779(3) 0.1607(2)
H4_2 H 0.1695 0.7106 0.2115
C8_2 C 0.0583(2) 0.5995(3) 0.1507(2)
H5_2 H 0.0133 0.5776 0.1950
H2_2 H 0.2381 0.6920 0.9780
O5_2 O 0.14752(14) 0.63983(15) 0.82535(12)
O13_2 O 0.18307(15) 0.51865(16) 0.85266(12)
C9_2 C 0.1392(2) 0.5665(2) 0.86538(16)
C14_2 C 0.0679(2) 0.5331(2) 0.93531(16)
C1_2 C 0.8608(2) 0.4335(2) 0.13462(16)
C2_2 C 0.9321(2) 0.4669(2) 0.06469(16)
C10_2 C 0.5727(3) 0.1392(2) 0.13462(16)
C12_2 C 0.5665(2) 0.4273(3) 0.13462(16)
C15_2 C 0.5348(3) 0.0679(2) 0.06469(16)
C17_2 C 0.5331(2) 0.4652(3) 0.06469(16)
C22_2 C 0.4509(2) 0.4783(3) 0.07547(17)
C27_2 C 0.4176(2) 0.5141(3) 0.00944(17)
C32_2 C 0.3330(2) 0.5255(3) 0.02183(19)
H11_2 H 0.7619 0.3080 0.0220
H13_2 H 0.5461 0.2381 0.0220
H15_2 H 0.6920 0.4539 0.0220
C37_2 C 0.2880(3) 0.5077(4) 0.0948(2)
H19_2 H 0.2336 0.5184 0.1024
C42_2 C 0.3221(3) 0.4726(4) 0.1607(2)
H24_2 H 0.2894 0.4589 0.2115
C47_2 C 0.4005(3) 0.4588(4) 0.1507(2)
H29_2 H 0.4224 0.4357 0.1950
O9_2 O 0.36017(15) 0.50769(21) 0.82535(12)
O17_2 O 0.48135(16) 0.66442(22) 0.85266(12)
C13_2 C 0.4335(2) 0.5727(3) 0.86538(16)
C18_2 C 0.4669(2) 0.5348(3) 0.93531(16)
C19_2 C 0.9726(2) 0.4509(2) 0.92453(17)
C21_2 C 0.4783(3) 0.0274(2) 0.92453(17)
C23_2 C 0.5491(2) 0.5217(3) 0.92453(17)
C24_2 C 0.9035(2) 0.4176(2) 0.99056(17)
C26_2 C 0.5141(3) 0.0965(2) 0.99056(17)
C28_2 C 0.5824(2) 0.4859(3) 0.99056(17)
C29_2 C 0.8075(2) 0.3330(2) 0.97817(19)
C31_2 C 0.5255(3) 0.1925(2) 0.97817(19)
C33_2 C 0.6670(2) 0.4745(3) 0.97817(19)
H14_2 H 0.3080 0.5461 0.9780
C34_2 C 0.7803(3) 0.2880(3) 0.9052(2)
C36_2 C 0.5077(4) 0.2197(3) 0.9052(2)
C38_2 C 0.7120(3) 0.4923(4) 0.9052(2)
H16_2 H 0.7152 0.2336 0.8976
H18_2 H 0.5184 0.2848 0.8976
H20_2 H 0.7664 0.4816 0.8976
C39_2 C 0.8495(3) 0.3221(3) 0.8393(2)
C41_2 C 0.4726(4) 0.1505(3) 0.8393(2)
C43_2 C 0.6779(3) 0.5274(4) 0.8393(2)
H21_2 H 0.8305 0.2894 0.7885
H23_2 H 0.4589 0.1695 0.7885
H25_2 H 0.7106 0.5411 0.7885
C44_2 C 0.9417(2) 0.4005(3) 0.8493(2)
C46_2 C 0.4588(4) 0.0583(2) 0.8493(2)
C48_2 C 0.5995(3) 0.5412(4) 0.8493(2)
H26_2 H 0.9867 0.4224 0.8050
H28_2 H 0.4357 0.0133 0.8050
H30_2 H 0.5776 0.5643 0.8050
C20_2 C 0.5217(3) 0.9726(2) 0.07547(17)
C25_2 C 0.4859(3) 0.9035(2) 0.00944(17)
C30_2 C 0.4745(3) 0.8075(2) 0.02183(19)
C35_2 C 0.4923(4) 0.7803(3) 0.0948(2)
H17_2 H 0.4816 0.7152 0.1024
C40_2 C 0.5274(4) 0.8495(3) 0.1607(2)
H22_2 H 0.5411 0.8305 0.2115
C45_2 C 0.5412(4) 0.9417(2) 0.1507(2)
H27_2 H 0.5643 0.9867 0.1950
O7_2 O 0.49231(21) 0.85248(14) 0.82535(12)
O15_2 O 0.33558(22) 0.81693(15) 0.85266(12)
C11_2 C 0.4273(3) 0.8608(2) 0.86538(16)
C16_2 C 0.4652(3) 0.9321(2) 0.93531(16)
H12_2 H 0.4539 0.7619 0.9780
O2_2 O 0.3333 0.6667 0.7500
O4_2 O 0.18088(13) 0.81912(13) 0.7500
H1_2 H 0.1941 0.8711 0.7232
O21_2 O 0.18088(13) 0.36176(18) 0.7500
O22_2 O 0.63824(18) 0.81912(13) 0.7500
H6_2 H 0.1289 0.8059 0.7768
H7_2 H 0.1289 0.3230 0.7232
H8_2 H 0.1941 0.3230 0.7768
H9_2 H 0.6770 0.8059 0.7232
H10_2 H 0.6770 0.8711 0.7768
loop_
_geom_bond_atom_site_label_1
_geom_bond_atom_site_label_2
_geom_bond_site_symmetry_1
_geom_bond_site_symmetry_2
Zn5 O15 1_555 1_555
Zn7 O7 1_555 1_555
O7 C11 1_555 1_555
O15 C11 1_555 1_555
C11 C16 1_555 1_555
C25 C16 1_555 1_555
C30 C25 1_555 1_555
H12 C30 1_555 1_555
C35 C30 1_555 1_555
H17 C35 1_555 1_555
C40 C35 1_555 1_555
H22 C40 1_555 1_555
C45 C20 1_555 1_555
H27 C45 1_555 1_555
C20 C25 1_555 1_555
C40 C45 1_555 1_555
Zn1 O1 1_555 1_555
O1 C1 1_555 1_555
O2 Zn1 1_555 1_555
O3 C1 1_555 1_555
O4 Zn1 1_555 1_555
H1 O4 1_555 1_555
C1 C2 1_555 1_555
Zn2 O2 1_555 1_555
Zn3 O2 1_555 1_555
Zn7 O17 1_555 1_555
Zn9 O9 1_555 1_555
O6 Zn2 1_555 1_555
O8 Zn3 1_555 1_555
O9 C13 1_555 1_555
O10 Zn1 1_555 1_555
O11 Zn3 1_555 1_555
O12 Zn2 1_555 1_555
O14 Zn1 1_555 1_555
O16 Zn2 1_555 1_555
O17 C13 1_555 1_555
O18 Zn2 1_555 1_555
O19 Zn1 1_555 1_555
O20 Zn3 1_555 1_555
O21 Zn2 1_555 1_555
O22 Zn3 1_555 1_555
H6 O4 1_555 1_555
H7 O21 1_555 1_555
H8 O21 1_555 1_555
H9 O22 1_555 1_555
H10 O22 1_555 1_555
C10 O6 1_555 1_555
C12 O8 1_555 1_555
C13 C18 1_555 1_555
C15 C10 1_555 1_555
C17 C12 1_555 1_555
C18 C23 1_555 1_555
C21 C26 1_555 1_555
C22 C17 1_555 1_555
C23 C28 1_555 1_555
C24 C2 1_555 1_555
C26 C15 1_555 1_555
C27 C18 1_555 1_555
C28 C17 1_555 1_555
C29 C24 1_555 1_555
C31 C26 1_555 1_555
C32 C27 1_555 1_555
C33 C28 1_555 1_555
H11 C29 1_555 1_555
H13 C31 1_555 1_555
H14 C32 1_555 1_555
H15 C33 1_555 1_555
C34 C29 1_555 1_555
C36 C31 1_555 1_555
C37 C32 1_555 1_555
C38 C33 1_555 1_555
H16 C34 1_555 1_555
H18 C36 1_555 1_555
H19 C37 1_555 1_555
H20 C38 1_555 1_555
C39 C34 1_555 1_555
C41 C36 1_555 1_555
C42 C37 1_555 1_555
C43 C38 1_555 1_555
H21 C39 1_555 1_555
H23 C41 1_555 1_555
H24 C42 1_555 1_555
H25 C43 1_555 1_555
C44 C19 1_555 1_555
C46 C21 1_555 1_555
C47 C22 1_555 1_555
C48 C23 1_555 1_555
H26 C44 1_555 1_555
H28 C46 1_555 1_555
H29 C47 1_555 1_555
H30 C48 1_555 1_555
O3 Zn3 1_555 1_555
O14 C10 1_555 1_555
O16 C12 1_555 1_555
C19 C24 1_555 1_555
C22 C27 1_555 1_555
C39 C44 1_555 1_555
C41 C46 1_555 1_555
C42 C47 1_555 1_555
C43 C48 1_555 1_555
C3 C4 1_555 1_555
C4 C5 1_555 1_555
C5 H2 1_555 1_555
C6 C5 1_555 1_555
H3 C6 1_555 1_555
C7 C6 1_555 1_555
H4 C7 1_555 1_555
C8 C3 1_555 1_555
H5 C8 1_555 1_555
Zn5 O5 1_555 1_555
Zn9 O13 1_555 1_555
O5 C9 1_555 1_555
O13 C9 1_555 1_555
C9 C14 1_555 1_555
C14 C4 1_555 1_555
C7 C8 1_555 1_555
C3_2 C4_2 1_555 1_555
C4_2 C5_2 1_555 1_555
C6_2 C5_2 1_555 1_555
H3_2 C6_2 1_555 1_555
C7_2 C6_2 1_555 1_555
H4_2 C7_2 1_555 1_555
C8_2 C3_2 1_555 1_555
H5_2 C8_2 1_555 1_555
C7_2 C8_2 1_555 1_555
Zn5 O5_2 1_555 1_555
Zn7 O13_2 1_555 1_555
O5_2 C9_2 1_555 1_555
O13_2 C9_2 1_555 1_555
C9_2 C14_2 1_555 1_555
O10 C1_2 1_555 1_555
O18 C1_2 1_555 1_555
C1_2 C2_2 1_555 1_555
C10_2 O11 1_555 1_555
C12_2 O12 1_555 1_555
C15_2 C10_2 1_555 1_555
C17_2 C12_2 1_555 1_555
C22_2 C17_2 1_555 1_555
C32_2 C27_2 1_555 1_555
C37_2 C32_2 1_555 1_555
H19_2 C37_2 1_555 1_555
C42_2 C37_2 1_555 1_555
H24_2 C42_2 1_555 1_555
C47_2 C22_2 1_555 1_555
H29_2 C47_2 1_555 1_555
O19 C10_2 1_555 1_555
O20 C12_2 1_555 1_555
C22_2 C27_2 1_555 1_555
C42_2 C47_2 1_555 1_555
Zn9 O17_2 1_555 1_555
Zn7 O9_2 1_555 1_555
O9_2 C13_2 1_555 1_555
O17_2 C13_2 1_555 1_555
C13_2 C18_2 1_555 1_555
C18_2 C23_2 1_555 1_555
C21_2 C26_2 1_555 1_555
C23_2 C28_2 1_555 1_555
C29_2 C24_2 1_555 1_555
C31_2 C26_2 1_555 1_555
C33_2 C28_2 1_555 1_555
C34_2 C29_2 1_555 1_555
C36_2 C31_2 1_555 1_555
C38_2 C33_2 1_555 1_555
H16_2 C34_2 1_555 1_555
H18_2 C36_2 1_555 1_555
H20_2 C38_2 1_555 1_555
C39_2 C34_2 1_555 1_555
C41_2 C36_2 1_555 1_555
C43_2 C38_2 1_555 1_555
H21_2 C39_2 1_555 1_555
H23_2 C41_2 1_555 1_555
H25_2 C43_2 1_555 1_555
C44_2 C19_2 1_555 1_555
C46_2 C21_2 1_555 1_555
C48_2 C23_2 1_555 1_555
H26_2 C44_2 1_555 1_555
H28_2 C46_2 1_555 1_555
H30_2 C48_2 1_555 1_555
C19_2 C24_2 1_555 1_555
C39_2 C44_2 1_555 1_555
C41_2 C46_2 1_555 1_555
C43_2 C48_2 1_555 1_555
C30_2 C25_2 1_555 1_555
C35_2 C30_2 1_555 1_555
H17_2 C35_2 1_555 1_555
C40_2 C35_2 1_555 1_555
H22_2 C40_2 1_555 1_555
C45_2 C20_2 1_555 1_555
H27_2 C45_2 1_555 1_555
C20_2 C25_2 1_555 1_555
C40_2 C45_2 1_555 1_555
Zn5 O15_2 1_555 1_555
Zn9 O7_2 1_555 1_555
O7_2 C11_2 1_555 1_555
O15_2 C11_2 1_555 1_555
C11_2 C16_2 1_555 1_555
O2_2 Zn5 1_555 1_555
O4_2 Zn5 1_555 1_555
H1_2 O4_2 1_555 1_555
Zn7 O2_2 1_555 1_555
Zn9 O2_2 1_555 1_555
O21_2 Zn7 1_555 1_555
O22_2 Zn9 1_555 1_555
H6_2 O4_2 1_555 1_555
H7_2 O21_2 1_555 1_555
H8_2 O21_2 1_555 1_555
H9_2 O22_2 1_555 1_555
H10_2 O22_2 1_555 1_555

#END
