
###############################################################################
#
# This file contains modified crystal structure data generated from the
# MOF subset of the Cambridge Structural Database (CSD) v543 
# hosted by the Cambridge Crystallographic Data Centre (CCDC).
#
# This work is licensed under the Creative Commons
# Attribution-NonCommercial-ShareAlike 4.0 International License.
# To view a copy of this license, visit
# http://creativecommons.org/licenses/by-nc-sa/4.0/
# or send a letter to
# Creative Commons, PO Box 1866, Mountain View, CA 94042, USA.
#
# CIF created using the CSD Python API on 29 September 2022
# The structure has been converted into the P1 space group
# The structure has a 3D framework
# The original CSD entry YARGIJ is in the monoclinic crystal system
# The framework has been calculated to contain at least 10.0% void space
# The void calculation uses a probe of radius 1.32A, grid spacing 0.4
# The framework is charged, counterions have been retained in the structure
#
###############################################################################

data_YARGIJ
_chemical_formula_moiety         '(C260 H220 N20 O51 Zn12 1+)n'
_symmetry_cell_setting           triclinic
_symmetry_space_group_name_H-M   'P 1'
_symmetry_Int_Tables_number      1
_space_group_name_Hall           'P 1'
loop_
_symmetry_equiv_pos_site_id
_symmetry_equiv_pos_as_xyz
1 x,y,z
_cell_length_a                   15.810(3)
_cell_length_b                   26.422(6)
_cell_length_c                   16.435(4)
_cell_angle_alpha                90
_cell_angle_beta                 90.00
_cell_angle_gamma                90
_cell_volume                     6865.42
loop_
_atom_site_label
_atom_site_type_symbol
_atom_site_fract_x
_atom_site_fract_y
_atom_site_fract_z
Zn2 Zn 0.07725(4) 0.36058(2) 0.25357(4)
O3 O 0.1308(2) 0.30650(15) 0.1789(2)
O4 O 0.0317(3) 0.24740(14) 0.1486(2)
O14 O 0.2081(3) 0.3831(2) 0.2723(3)
N3 N 0.3105(5) 0.3834(4) 0.3750(5)
C3 C 0.2691(4) 0.1999(2) 0.0150(4)
C4 C 0.3305(4) 0.1605(2) 0.0286(4)
C5 C 0.3380(5) 0.1403(3) 0.1044(4)
H2 H 0.3797 0.1151 0.1138
C6 C 0.2862(5) 0.1558(3) 0.1692(4)
H3 H 0.2933 0.1409 0.2214
C7 C 0.2254(5) 0.1921(2) 0.1576(4)
H4 H 0.1903 0.2018 0.2018
C8 C 0.2143(4) 0.2153(2) 0.0804(3)
C9 C 0.1558(4) 0.2537(2) 0.0679(3)
H5 H 0.0585 0.3318 0.0227
C16 C 0.1006(4) 0.2701(2) 0.1373(3)
C36 C 0.5262(4) 0.0513(2) 0.0093(3)
C37 C 0.5549(5) 0.1024(2) 0.0240(4)
C38 C 0.5884(6) 0.1153(2) 0.0964(5)
H18 H 0.6073 0.1490 0.1047
C39 C 0.5961(7) 0.0795(3) 0.1609(5)
H19 H 0.6195 0.0899 0.2115
C59 C 0.2276(6) 0.3839(4) 0.3482(6)
H33 H 0.1834 0.3849 0.3874
C60 C 0.3801(7) 0.3828(6) 0.3144(9)
H34 H 0.3602 0.3669 0.2640
H35 H 0.3981 0.4176 0.3030
H36 H 0.4280 0.3635 0.3361
C61 C 0.3300(9) 0.3812(6) 0.4584(7)
H37 H 0.2775 0.3796 0.4901
H38 H 0.3641 0.3510 0.4694
H39 H 0.3620 0.4115 0.4739
Zn6 Zn 0.36104(4) 0.12509(2) 0.75076(4)
Zn17 Zn 0.45162(4) 0.24522(2) 0.74948(4)
O22 O 0.0882(3) 0.31839(16) 0.3593(2)
O23 O 0.0525(3) 0.23894(15) 0.3277(2)
O25 O 0.3433(2) 0.23963(15) 0.6752(2)
O27 O 0.3064(3) 0.15886(14) 0.6497(2)
O31 O 0.0513(3) 0.42147(15) 0.3264(2)
O36 O 0.0621(3) 0.40511(15) 0.1500(2)
C78 C 0.0897(4) 0.2716(2) 0.3692(4)
C79 C 0.1442(4) 0.2541(2) 0.4387(3)
C80 C 0.1088(4) 0.2438(2) 0.5150(3)
C81 C 0.0192(4) 0.2500(2) 0.5307(4)
C83 C 0.0390(5) 0.2268(4) 0.6706(5)
H50 H 0.0146 0.2214 0.7227
C84 C 0.1242(4) 0.2193(3) 0.6589(4)
H51 H 0.1584 0.2080 0.7028
C85 C 0.1622(4) 0.2287(2) 0.5801(4)
C86 C 0.2489(4) 0.2226(2) 0.5681(3)
C87 C 0.2863(4) 0.2346(2) 0.4925(4)
C88 C 0.3745(4) 0.2325(2) 0.4794(4)
H52 H 0.4110 0.2239 0.5232
C89 C 0.4083(4) 0.2428(3) 0.4033(4)
H53 H 0.4678 0.2417 0.3952
C90 C 0.3540(5) 0.2550(3) 0.3377(4)
H54 H 0.3772 0.2608 0.2852
C91 C 0.2692(4) 0.2584(3) 0.3486(4)
H55 H 0.2341 0.2669 0.3038
C92 C 0.2319(4) 0.2497(2) 0.4262(3)
C93 C 0.3043(4) 0.2056(2) 0.6371(3)
C96 C 0.5346(4) 0.0148(2) 0.0761(4)
C101 C 0.5705(5) 0.0305(3) 0.1510(4)
H59 H 0.5766 0.0070 0.1944
O1 O 0.3799(3) 0.23384(15) 0.8552(2)
O2 O 0.2916(2) 0.16924(14) 0.8293(2)
O9 O 0.4144(3) 0.09268(15) 0.8564(2)
O10 O 0.5513(3) 0.07853(15) 0.8264(2)
O11 O 0.4274(3) 0.07267(15) 0.6753(2)
O12 O 0.5621(3) 0.09489(15) 0.6500(2)
O13 O 0.46226(19) 0.16972(12) 0.73785(18)
N1 N 0.2674(3) 0.06653(19) 0.7526(3)
C1 C 0.3163(3) 0.2075(2) 0.8690(3)
C2 C 0.2609(4) 0.2235(2) 0.9384(3)
H1 H 0.3651 0.1487 0.9853
C10 C 0.1488(3) 0.2782(2) 0.9918(3)
C11 C 0.0922(4) 0.3198(2) 0.9790(4)
C12 C 0.0867(4) 0.3419(3) 0.9052(4)
H6 H 0.0484 0.3692 0.8976
C13 C 0.1362(5) 0.3256(3) 0.8399(4)
H7 H 0.1297 0.3411 0.7882
C14 C 0.1936(4) 0.2874(2) 0.8495(4)
H8 H 0.2285 0.2776 0.8052
C15 C 0.2015(4) 0.2621(2) 0.9270(3)
C33 C 0.4835(4) 0.0720(2) 0.8674(3)
C34 C 0.4917(4) 0.0353(2) 0.9367(3)
H17 H 0.5500 0.1271 0.9823
C41 C 0.2428(6) 0.0444(3) 0.8197(5)
H21 H 0.2549 0.0610 0.8696
C45 C 0.2437(6) 0.0443(3) 0.6850(4)
H24 H 0.2569 0.0605 0.6350
C51 C 0.4947(4) 0.0703(2) 0.6361(3)
C52 C 0.4970(4) 0.0341(2) 0.5652(3)
C58 C 0.4533(4) 0.0456(2) 0.4939(4)
Zn8 Zn 0.86104(4) 0.37491(2) 0.25076(4)
Zn9 Zn 0.13896(4) 0.62509(2) 0.74924(4)
Zn11 Zn 0.57725(4) 0.13942(2) 0.75357(4)
Zn18 Zn 0.95162(4) 0.25478(2) 0.24948(4)
O15 O 0.8799(3) 0.26616(15) 0.3552(2)
O17 O 0.7916(2) 0.33076(14) 0.3293(2)
O19 O 0.6308(2) 0.19350(15) 0.6789(2)
O21 O 0.5317(3) 0.25260(14) 0.6486(2)
O24 O 0.5525(3) 0.26106(15) 0.8277(2)
N4 N 0.2326(3) 0.56653(19) 0.7474(3)
N6 N 0.4218(3) 0.32412(18) 0.7499(3)
C62 C 0.8163(3) 0.2925(2) 0.3690(3)
C63 C 0.7609(4) 0.2765(2) 0.4384(3)
C64 C 0.7691(4) 0.3001(2) 0.5150(4)
C65 C 0.8305(4) 0.3395(2) 0.5286(4)
H40 H 0.8651 0.3513 0.4853
C66 C 0.8380(5) 0.3597(3) 0.6044(4)
H41 H 0.8797 0.3849 0.6138
C67 C 0.7862(5) 0.3442(3) 0.6692(4)
H42 H 0.7933 0.3591 0.7214
C68 C 0.7254(5) 0.3079(2) 0.6576(4)
H43 H 0.6903 0.2982 0.7018
C69 C 0.7143(4) 0.2847(2) 0.5804(3)
C70 C 0.6558(4) 0.2463(2) 0.5679(3)
C71 C 0.6488(3) 0.2218(2) 0.4918(3)
C72 C 0.5922(4) 0.1802(2) 0.4790(4)
H44 H 0.5585 0.1682 0.5227
C73 C 0.5867(4) 0.1581(3) 0.4052(4)
H45 H 0.5484 0.1308 0.3976
C74 C 0.6362(5) 0.1744(3) 0.3399(4)
H46 H 0.6297 0.1589 0.2882
C75 C 0.6936(4) 0.2126(2) 0.3495(4)
H47 H 0.7285 0.2224 0.3052
C76 C 0.7015(4) 0.2379(2) 0.4270(3)
C77 C 0.6006(4) 0.2299(2) 0.6373(3)
C102 C 0.2572(6) 0.5444(3) 0.6803(5)
H60 H 0.2451 0.5610 0.6304
C103 C 0.2995(6) 0.4987(3) 0.6761(5)
H61 H 0.3147 0.4845 0.6250
C104 C 0.3193(4) 0.4740(2) 0.7487(4)
C105 C 0.2983(7) 0.4997(3) 0.8179(5)
H62 H 0.3136 0.4860 0.8693
C106 C 0.2563(6) 0.5443(3) 0.8150(4)
H63 H 0.2431 0.5605 0.8650
C107 C 0.4149(10) 0.3504(3) 0.6836(5)
H64 H 0.4328 0.3356 0.6339
C108 C 0.3823(11) 0.3996(3) 0.6819(5)
H65 H 0.3773 0.4166 0.6312
C109 C 0.3587(4) 0.4225(2) 0.7481(4)
C110 C 0.3719(9) 0.3970(3) 0.8174(5)
H66 H 0.3580 0.4122 0.8681
C111 C 0.4062(8) 0.3479(3) 0.8155(5)
H67 H 0.4184 0.3317 0.8657
C114 C 0.4554(4) 0.0107(2) 0.4265(3)
C115 C 0.4149(5) 0.0236(3) 0.3533(4)
H68 H 0.4194 0.0018 0.3076
C116 C 0.3686(5) 0.0677(3) 0.3472(5)
H69 H 0.3402 0.0757 0.2979
C117 C 0.3633(5) 0.1014(2) 0.4155(4)
H70 H 0.3313 0.1317 0.4105
C118 C 0.4025(4) 0.0912(2) 0.4864(4)
H71 H 0.3971 0.1137 0.5312
Zn4 Zn 0.63896(4) 0.87491(2) 0.24924(4)
Zn12 Zn 0.42275(4) 0.86058(2) 0.24643(4)
O18 O 0.7084(2) 0.83076(14) 0.1707(2)
O28 O 0.6936(3) 0.84114(14) 0.3503(2)
O29 O 0.5856(3) 0.90732(15) 0.1436(2)
O30 O 0.4487(3) 0.92147(15) 0.1736(2)
O34 O 0.5726(3) 0.92733(15) 0.3247(2)
O39 O 0.53774(19) 0.83028(12) 0.26215(18)
N5 N 0.7326(3) 0.93347(19) 0.2474(3)
C94 C 0.5165(4) 0.9280(2) 0.1326(3)
C95 C 0.5083(4) 0.9647(2) 0.0633(3)
H56 H 0.4500 0.8729 0.0177
N2 N 0.0782(3) 0.82412(18) 0.7501(3)
C35 C 0.4654(4) 0.9852(2) 0.9239(4)
C40 C 0.4295(5) 0.9695(3) 0.8490(4)
H20 H 0.4234 0.9930 0.8056
C42 C 0.2005(6) 0.9987(3) 0.8239(5)
H22 H 0.1853 0.9845 0.8750
C43 C 0.1807(4) 0.9740(2) 0.7513(4)
C44 C 0.2017(7) 0.9997(3) 0.6821(5)
H23 H 0.1864 0.9860 0.6307
C46 C 0.0851(10) 0.8504(3) 0.8164(5)
H25 H 0.0672 0.8356 0.8661
C47 C 0.1177(11) 0.8996(3) 0.8181(5)
H26 H 0.1227 0.9166 0.8688
C48 C 0.1413(4) 0.9225(2) 0.7519(4)
C49 C 0.1281(9) 0.8970(3) 0.6826(5)
H27 H 0.1420 0.9122 0.6319
C50 C 0.0938(8) 0.8479(3) 0.6845(5)
H28 H 0.0816 0.8317 0.6343
C53 C 0.5446(4) 0.9893(2) 0.5735(3)
C54 C 0.5851(5) 0.9764(3) 0.6467(4)
H29 H 0.5806 0.9982 0.6924
C55 C 0.6314(5) 0.9323(3) 0.6528(5)
H30 H 0.6598 0.9243 0.7021
C56 C 0.6367(5) 0.8986(2) 0.5845(4)
H31 H 0.6687 0.8683 0.5895
C57 C 0.5975(4) 0.9088(2) 0.5136(4)
H32 H 0.6029 0.8863 0.4688
Zn16 Zn 0.04838(4) 0.74522(2) 0.75052(4)
O35 O 0.4379(3) 0.90511(15) 0.3500(2)
C97 C 0.4738(4) 0.9487(2) 0.9907(3)
C98 C 0.4451(5) 0.8976(2) 0.9760(4)
C99 C 0.4116(6) 0.8847(2) 0.9036(5)
H57 H 0.3927 0.8510 0.8953
C100 C 0.4039(7) 0.9205(3) 0.8391(5)
H58 H 0.3805 0.9101 0.7885
C112 C 0.5053(4) 0.9297(2) 0.3639(3)
C113 C 0.5030(4) 0.9659(2) 0.4348(3)
C119 C 0.5467(4) 0.9544(2) 0.5061(4)
O26 O 0.8433(2) 0.26037(15) 0.1752(2)
O38 O 0.96226(19) 0.33028(12) 0.23785(18)
N7 N 0.9218(3) 0.17588(18) 0.2499(3)
H48 H 0.9825 0.2595 0.4875
C82 C 0.9878(5) 0.2424(3) 0.6045(4)
H49 H 0.9291 0.2477 0.6134
O5 O 0.4118(3) 0.81839(16) 0.1407(2)
O6 O 0.4475(3) 0.73894(15) 0.1723(2)
C17 C 0.4103(4) 0.7716(2) 0.1308(4)
C18 C 0.3558(4) 0.7541(2) 0.0613(3)
H9 H 0.5175 0.7595 0.0125
C26 C 0.2137(4) 0.7346(2) 0.0075(4)
C27 C 0.1255(4) 0.7325(2) 0.0206(4)
C28 C 0.0917(4) 0.7428(3) 0.0967(4)
H14 H 0.0322 0.7417 0.1048
C29 C 0.1460(5) 0.7550(3) 0.1623(4)
H15 H 0.1228 0.7608 0.2148
C30 C 0.2308(4) 0.7584(3) 0.1514(4)
H16 H 0.2659 0.7669 0.1962
C31 C 0.2681(4) 0.7497(2) 0.0738(3)
C58_2 C 0.0467(4) 0.5456(2) 0.0061(4)
Zn15 Zn 0.54838(4) 0.75478(2) 0.25052(4)
O20 O 0.3692(2) 0.80650(15) 0.3211(2)
O41 O 0.2919(3) 0.8831(2) 0.2277(3)
N8 N 0.1895(5) 0.8834(4) 0.1250(5)
C114_2 C 0.0446(4) 0.5107(2) 0.0735(3)
C115_2 C 0.0851(5) 0.5236(3) 0.1467(4)
H68_2 H 0.0806 0.5018 0.1924
C116_2 C 0.1314(5) 0.5677(3) 0.1528(5)
H69_2 H 0.1598 0.5757 0.2021
C117_2 C 0.1367(5) 0.6014(2) 0.0845(4)
H70_2 H 0.1687 0.6317 0.0895
C118_2 C 0.0975(4) 0.5912(2) 0.0136(4)
C120 C 0.2724(6) 0.8839(4) 0.1518(6)
H72 H 0.3166 0.8849 0.1126
C121 C 0.1199(7) 0.8828(6) 0.1856(9)
H73 H 0.1398 0.8669 0.2360
H74 H 0.1019 0.9176 0.1970
H75 H 0.0720 0.8635 0.1639
C122 C 0.1700(9) 0.8812(6) 0.0416(7)
H76 H 0.2225 0.8796 0.0099
H77 H 0.1359 0.8510 0.0306
H78 H 0.1380 0.9115 0.0261
O1_2 O 0.1201(3) 0.73384(15) 0.6448(2)
O2_2 O 0.2084(2) 0.66924(14) 0.6707(2)
O4_2 O 0.4683(3) 0.74740(14) 0.3514(2)
O7 O 0.1567(2) 0.73963(15) 0.8248(2)
O8 O 0.1936(3) 0.65886(14) 0.8503(2)
O9_2 O 0.0856(3) 0.59268(15) 0.6436(2)
O11_2 O 0.0726(3) 0.57267(15) 0.8247(2)
O13_2 O 0.03774(19) 0.66972(12) 0.76215(18)
C1_2 C 0.1837(3) 0.7075(2) 0.6310(3)
C2_2 C 0.2391(4) 0.7235(2) 0.5616(3)
C3_2 C 0.2309(4) 0.6999(2) 0.4850(4)
C4_2 C 0.1695(4) 0.6605(2) 0.4714(4)
H1_2 H 0.1349 0.6487 0.5147
C5_2 C 0.1620(5) 0.6403(3) 0.3956(4)
H2_2 H 0.1203 0.6151 0.3862
C6_2 C 0.2138(5) 0.6558(3) 0.3308(4)
H3_2 H 0.2067 0.6409 0.2786
C7_2 C 0.2746(5) 0.6921(2) 0.3424(4)
H4_2 H 0.3097 0.7018 0.2982
C8_2 C 0.2857(4) 0.7153(2) 0.4196(3)
C9_2 C 0.3442(4) 0.7537(2) 0.4321(3)
C10_2 C 0.3512(3) 0.7782(2) 0.5082(3)
C11_2 C 0.4078(4) 0.8198(2) 0.5210(4)
H5_2 H 0.4415 0.8318 0.4773
C12_2 C 0.4133(4) 0.8419(3) 0.5948(4)
H6_2 H 0.4516 0.8692 0.6024
C13_2 C 0.3638(5) 0.8256(3) 0.6601(4)
H7_2 H 0.3703 0.8411 0.7118
C14_2 C 0.3064(4) 0.7874(2) 0.6505(4)
H8_2 H 0.2715 0.7776 0.6948
C15_2 C 0.2985(4) 0.7621(2) 0.5730(3)
C16_2 C 0.3994(4) 0.7701(2) 0.3627(3)
C19 C 0.3912(4) 0.7438(2) 0.9850(3)
C20 C 0.4808(4) 0.7500(2) 0.9693(4)
C21 C 0.5122(5) 0.7424(3) 0.8955(4)
H10 H 0.5709 0.7477 0.8866
C22 C 0.4610(5) 0.7268(4) 0.8294(5)
H11 H 0.4854 0.7214 0.7773
C23 C 0.3758(4) 0.7193(3) 0.8411(4)
H12 H 0.3416 0.7080 0.7972
C24 C 0.3378(4) 0.7287(2) 0.9199(4)
C25 C 0.2511(4) 0.7226(2) 0.9319(3)
H13 H 0.0890 0.7239 0.9768
C32 C 0.1957(4) 0.7056(2) 0.8629(3)
C33_2 C 0.0165(4) 0.5720(2) 0.6326(3)
C34_2 C 0.0083(4) 0.5353(2) 0.5633(3)
C35_2 C 0.0346(4) 0.4852(2) 0.5761(4)
C40_2 C 0.0705(5) 0.4695(3) 0.6510(4)
H20_2 H 0.0766 0.4930 0.6944
C51_2 C 0.0053(4) 0.5703(2) 0.8639(3)
C52_2 C 0.0030(4) 0.5341(2) 0.9348(3)
O16 O 0.6201(3) 0.76616(15) 0.1448(2)
O26_2 O 0.6567(2) 0.76037(15) 0.3248(2)
N7_2 N 0.5782(3) 0.67588(18) 0.2501(3)
C97_2 C 0.0262(4) 0.4487(2) 0.5093(3)
C98_2 C 0.0549(5) 0.3976(2) 0.5240(4)
H56_2 H 0.0500 0.3729 0.4823
C99_2 C 0.0884(6) 0.3847(2) 0.5964(5)
H57_2 H 0.1073 0.3510 0.6047
C100_2 C 0.0961(7) 0.4205(3) 0.6609(5)
H58_2 H 0.1195 0.4101 0.7115
H71_2 H 0.1029 0.6137 0.9688
H32_2 H 0.8971 0.3863 0.0312
O33 O 0.9274(3) 0.42733(15) 0.1753(2)
C62_2 C 0.6837(3) 0.7925(2) 0.1310(3)
C63_2 C 0.7391(4) 0.7765(2) 0.0616(3)
H40_2 H 0.6349 0.8513 0.0147
C71_2 C 0.8512(3) 0.7218(2) 0.0082(3)
C72_2 C 0.9078(4) 0.6802(2) 0.0210(4)
C73_2 C 0.9133(4) 0.6581(3) 0.0948(4)
H45_2 H 0.9516 0.6308 0.1024
C74_2 C 0.8638(5) 0.6744(3) 0.1601(4)
H46_2 H 0.8703 0.6589 0.2118
C75_2 C 0.8064(4) 0.7126(2) 0.1505(4)
H47_2 H 0.7715 0.7224 0.1948
C76_2 C 0.7985(4) 0.7379(2) 0.0730(3)
C112_2 C 0.9947(4) 0.4297(2) 0.1361(3)
C113_2 C 0.9970(4) 0.4659(2) 0.0652(3)
O10_2 O 0.9487(3) 0.57853(15) 0.6736(2)
O12_2 O 0.9379(3) 0.59489(15) 0.8500(2)
C36_2 C 0.9738(4) 0.5513(2) 0.4907(3)
C37_2 C 0.9451(5) 0.6024(2) 0.4760(4)
H17_2 H 0.9500 0.6271 0.5177
C38_2 C 0.9116(6) 0.6153(2) 0.4036(5)
H18_2 H 0.8927 0.6490 0.3953
C39_2 C 0.9039(7) 0.5795(3) 0.3391(5)
H19_2 H 0.8805 0.5899 0.2885
C53_2 C 0.9554(4) 0.4893(2) 0.9265(3)
C54_2 C 0.9149(5) 0.4764(3) 0.8533(4)
H29_2 H 0.9194 0.4982 0.8076
C55_2 C 0.8686(5) 0.4323(3) 0.8472(5)
H30_2 H 0.8402 0.4243 0.7979
C56_2 C 0.8633(5) 0.3986(2) 0.9155(4)
H31_2 H 0.8313 0.3683 0.9105
C57_2 C 0.9025(4) 0.4088(2) 0.9864(4)
Zn11_2 Zn 0.92275(4) 0.63942(2) 0.74643(4)
O19_2 O 0.8692(2) 0.69350(15) 0.8211(2)
O21_2 O 0.9683(3) 0.75260(14) 0.8514(2)
O24_2 O 0.9475(3) 0.76106(15) 0.6723(2)
O28_2 O 0.8064(3) 0.34114(14) 0.1497(2)
O29_2 O 0.9144(3) 0.40732(15) 0.3564(2)
N5_2 N 0.7674(3) 0.43347(19) 0.2526(3)
C64_2 C 0.7309(4) 0.8001(2) 0.9850(4)
C65_2 C 0.6695(4) 0.8395(2) 0.9714(4)
C66_2 C 0.6620(5) 0.8597(3) 0.8956(4)
H41_2 H 0.6203 0.8849 0.8862
C67_2 C 0.7138(5) 0.8442(3) 0.8308(4)
H42_2 H 0.7067 0.8591 0.7786
C68_2 C 0.7746(5) 0.8079(2) 0.8424(4)
H43_2 H 0.8097 0.7982 0.7982
C69_2 C 0.7857(4) 0.7847(2) 0.9196(3)
C70_2 C 0.8442(4) 0.7463(2) 0.9321(3)
H44_2 H 0.9415 0.6682 0.9773
C77_2 C 0.8994(4) 0.7299(2) 0.8627(3)
C94_2 C 0.9835(4) 0.4280(2) 0.3674(3)
C95_2 C 0.9917(4) 0.4647(2) 0.4367(3)
C96_2 C 0.9654(4) 0.5148(2) 0.4239(4)
C101_2 C 0.9295(5) 0.5305(3) 0.3490(4)
H59_2 H 0.9234 0.5070 0.3056
C119_2 C 0.9533(4) 0.4544(2) 0.9939(4)
H9_2 H 0.0175 0.7405 0.5125
C21_2 C 0.0122(5) 0.7576(3) 0.3955(4)
H10_2 H 0.0709 0.7523 0.3866
C42_2 C 0.7995(6) 0.0013(3) 0.1761(5)
H22_2 H 0.8147 0.0155 0.1250
C43_2 C 0.8193(4) 0.0260(2) 0.2487(4)
C44_2 C 0.7983(7) 0.0003(3) 0.3179(5)
H23_2 H 0.8136 0.0140 0.3693
C46_2 C 0.9149(10) 0.1496(3) 0.1836(5)
H25_2 H 0.9328 0.1644 0.1339
C47_2 C 0.8823(11) 0.1004(3) 0.1819(5)
H26_2 H 0.8773 0.0834 0.1312
C48_2 C 0.8587(4) 0.0775(2) 0.2481(4)
C49_2 C 0.8719(9) 0.1030(3) 0.3174(5)
H27_2 H 0.8580 0.0878 0.3681
C50_2 C 0.9062(8) 0.1521(3) 0.3155(5)
H28_2 H 0.9184 0.1683 0.3657
O5_2 O 0.9118(3) 0.68161(16) 0.6407(2)
C17_2 C 0.9103(4) 0.7284(2) 0.6308(4)
C18_2 C 0.8558(4) 0.7459(2) 0.5613(3)
C19_2 C 0.8912(4) 0.7562(2) 0.4850(3)
C20_2 C 0.9808(4) 0.7500(2) 0.4693(4)
C22_2 C 0.9610(5) 0.7732(4) 0.3294(5)
H11_2 H 0.9854 0.7786 0.2773
C23_2 C 0.8758(4) 0.7807(3) 0.3411(4)
H12_2 H 0.8416 0.7920 0.2972
C24_2 C 0.8378(4) 0.7713(2) 0.4199(4)
C25_2 C 0.7511(4) 0.7774(2) 0.4319(3)
C26_2 C 0.7137(4) 0.7654(2) 0.5075(4)
C27_2 C 0.6255(4) 0.7675(2) 0.5206(4)
H13_2 H 0.5890 0.7761 0.4768
C28_2 C 0.5917(4) 0.7572(3) 0.5967(4)
H14_2 H 0.5322 0.7583 0.6048
C29_2 C 0.6460(5) 0.7450(3) 0.6623(4)
H15_2 H 0.6228 0.7392 0.7148
C30_2 C 0.7308(4) 0.7416(3) 0.6514(4)
H16_2 H 0.7659 0.7331 0.6962
C31_2 C 0.7681(4) 0.7503(2) 0.5738(3)
C32_2 C 0.6957(4) 0.7944(2) 0.3629(3)
C41_2 C 0.7572(6) 0.9556(3) 0.1803(5)
H21_2 H 0.7451 0.9390 0.1304
C45_2 C 0.7563(6) 0.9557(3) 0.3150(4)
H24_2 H 0.7431 0.9395 0.3650
O41_2 O 0.7919(3) 0.6169(2) 0.7277(3)
N8_2 N 0.6895(5) 0.6166(4) 0.6250(5)
C102_2 C 0.7428(6) 0.4556(3) 0.3197(5)
H60_2 H 0.7549 0.4390 0.3696
C103_2 C 0.7005(6) 0.5013(3) 0.3239(5)
H61_2 H 0.6853 0.5155 0.3750
C104_2 C 0.6807(4) 0.5260(2) 0.2513(4)
C105_2 C 0.7017(7) 0.5003(3) 0.1821(5)
H62_2 H 0.6864 0.5140 0.1307
C106_2 C 0.7437(6) 0.4557(3) 0.1850(4)
H63_2 H 0.7569 0.4395 0.1350
C107_2 C 0.5851(10) 0.6496(3) 0.3164(5)
H64_2 H 0.5672 0.6644 0.3661
C108_2 C 0.6177(11) 0.6004(3) 0.3181(5)
H65_2 H 0.6227 0.5834 0.3688
C109_2 C 0.6413(4) 0.5775(2) 0.2519(4)
C110_2 C 0.6281(9) 0.6030(3) 0.1826(5)
H66_2 H 0.6420 0.5878 0.1319
C111_2 C 0.5938(8) 0.6521(3) 0.1845(5)
H67_2 H 0.5816 0.6683 0.1343
C120_2 C 0.7724(6) 0.6161(4) 0.6518(6)
H72_2 H 0.8166 0.6151 0.6126
C121_2 C 0.6199(7) 0.6172(6) 0.6856(9)
H73_2 H 0.6398 0.6331 0.7360
H74_2 H 0.6019 0.5824 0.6970
H75_2 H 0.5720 0.6365 0.6639
C122_2 C 0.6700(9) 0.6188(6) 0.5416(7)
H76_2 H 0.7225 0.6204 0.5099
H77_2 H 0.6359 0.6490 0.5306
H78_2 H 0.6380 0.5885 0.5261
C80_2 C 0.6088(4) 0.2562(2) 0.0150(3)
C81_2 C 0.5192(4) 0.2500(2) 0.0307(4)
C82_2 C 0.4878(5) 0.2576(3) 0.1045(4)
H49_2 H 0.4291 0.2523 0.1134
C83_2 C 0.5390(5) 0.2732(4) 0.1706(5)
H50_2 H 0.5146 0.2786 0.2227
C84_2 C 0.6242(4) 0.2807(3) 0.1589(4)
H51_2 H 0.6584 0.2920 0.2028
C85_2 C 0.6622(4) 0.2713(2) 0.0801(4)
C86_2 C 0.7489(4) 0.2774(2) 0.0681(3)
H52_2 H 0.9110 0.2761 0.0232
C93_2 C 0.8043(4) 0.2944(2) 0.1371(3)
O14_2 O 0.7081(3) 0.1169(2) 0.7723(3)
N3_2 N 0.8105(5) 0.1166(4) 0.8750(5)
C59_2 C 0.7276(6) 0.1161(4) 0.8482(6)
H33_2 H 0.6834 0.1151 0.8874
C60_2 C 0.8801(7) 0.1172(6) 0.8144(9)
H34_2 H 0.8602 0.1331 0.7640
H35_2 H 0.8981 0.0824 0.8030
H36_2 H 0.9280 0.1365 0.8361
C61_2 C 0.8300(9) 0.1188(6) 0.9584(7)
H37_2 H 0.7775 0.1204 0.9901
H38_2 H 0.8641 0.1490 0.9694
H39_2 H 0.8620 0.0885 0.9739
O22_2 O 0.5882(3) 0.18161(16) 0.8593(2)
C78_2 C 0.5897(4) 0.2284(2) 0.8692(4)
C79_2 C 0.6442(4) 0.2459(2) 0.9387(3)
H48_2 H 0.4825 0.2405 0.9875
C87_2 C 0.7863(4) 0.2654(2) 0.9925(4)
C88_2 C 0.8745(4) 0.2675(2) 0.9794(4)
C89_2 C 0.9083(4) 0.2572(3) 0.9033(4)
H53_2 H 0.9678 0.2583 0.8952
C90_2 C 0.8540(5) 0.2450(3) 0.8377(4)
H54_2 H 0.8772 0.2392 0.7852
C91_2 C 0.7692(4) 0.2416(3) 0.8486(4)
H55_2 H 0.7341 0.2331 0.8038
C92_2 C 0.7319(4) 0.2503(2) 0.9262(3)
N9 N 0.7299(10) 0.0818(5) 0.5986(9)
H79 H 0.6766 0.0854 0.6203
H80 H 0.7596 0.0594 0.6306
C123 C 0.7699(8) 0.1276(4) 0.5979(7)
H81 H 0.8301 0.1227 0.6098
H82 H 0.7447 0.1497 0.6391
H83 H 0.7637 0.1431 0.5441
C124 C 0.7233(18) 0.0608(8) 0.5115(12)
H84 H 0.7003 0.0870 0.4755
H85 H 0.6858 0.0313 0.5111
H86 H 0.7796 0.0508 0.4924
H84_2 H 0.7997 0.5870 0.0245
H86_2 H 0.7204 0.5508 0.0076
N9_2 N 0.7701(10) 0.5818(5) 0.9014(9)
H79_2 H 0.8234 0.5854 0.8797
H80_2 H 0.7404 0.5594 0.8694
C123_2 C 0.7301(8) 0.6276(4) 0.9021(7)
H81_2 H 0.6699 0.6227 0.8902
H82_2 H 0.7553 0.6497 0.8609
H83_2 H 0.7363 0.6431 0.9559
C124_2 C 0.7767(18) 0.5608(8) 0.9885(12)
H85_2 H 0.8142 0.5313 0.9889
N9_3 N 0.2701(10) 0.9182(5) 0.4014(9)
H79_3 H 0.3234 0.9146 0.3797
H80_3 H 0.2404 0.9406 0.3694
C123_3 C 0.2301(8) 0.8724(4) 0.4021(7)
H81_3 H 0.1699 0.8773 0.3902
H82_3 H 0.2553 0.8503 0.3609
H83_3 H 0.2363 0.8569 0.4559
C124_3 C 0.2767(18) 0.9392(8) 0.4885(12)
H84_3 H 0.2997 0.9130 0.5245
H85_3 H 0.3142 0.9687 0.4889
H86_3 H 0.2204 0.9492 0.5076
N9_4 N 0.2299(10) 0.4182(5) 0.0986(9)
H79_4 H 0.1766 0.4146 0.1203
H80_4 H 0.2596 0.4406 0.1306
C123_4 C 0.2699(8) 0.3724(4) 0.0979(7)
H81_4 H 0.3301 0.3773 0.1098
H82_4 H 0.2447 0.3503 0.1391
H83_4 H 0.2637 0.3569 0.0441
C124_4 C 0.2233(18) 0.4392(8) 0.0115(12)
H85_4 H 0.1858 0.4687 0.0111
H84_4 H 0.2003 0.4130 0.9755
H86_4 H 0.2796 0.4492 0.9924
N10 N 0.7391(10) 0.0048(6) 0.7924(9)
H87 H 0.7189 0.0363 0.8068
C125 C 0.7869(7) 0.0126(4) 0.7209(6)
H89 H 0.8473 0.0118 0.7341
H90 H 0.7726 0.0456 0.6974
H94 H 0.7646 0.0076 0.9094
H88 H 0.6927 0.9863 0.7765
H91 H 0.7739 0.9859 0.6815
C126 C 0.7666(9) 0.9825(5) 0.8656(8)
H92 H 0.8247 0.9703 0.8591
H93 H 0.7295 0.9540 0.8793
N10_2 N 0.7609(10) 0.5048(6) 0.7076(9)
H87_2 H 0.7811 0.5363 0.6932
H88_2 H 0.8073 0.4863 0.7235
C125_2 C 0.7131(7) 0.5126(4) 0.7791(6)
H89_2 H 0.6527 0.5118 0.7659
H90_2 H 0.7274 0.5456 0.8026
H91_2 H 0.7261 0.4859 0.8185
C126_2 C 0.7334(9) 0.4825(5) 0.6344(8)
H92_2 H 0.6753 0.4703 0.6409
H93_2 H 0.7705 0.4540 0.6207
H94_2 H 0.7354 0.5076 0.5906
H88_3 H 0.3073 0.0137 0.2235
H91_3 H 0.2261 0.0141 0.3185
C126_3 C 0.2334(9) 0.0175(5) 0.1344(8)
H92_3 H 0.1753 0.0297 0.1409
H93_3 H 0.2705 0.0460 0.1207
N10_3 N 0.2609(10) 0.9952(6) 0.2076(9)
H87_3 H 0.2811 0.9637 0.1932
C125_3 C 0.2131(7) 0.9874(4) 0.2791(6)
H89_3 H 0.1527 0.9882 0.2659
H90_3 H 0.2274 0.9544 0.3026
H94_3 H 0.2354 0.9924 0.0906
N10_4 N 0.2391(10) 0.4952(6) 0.2924(9)
H87_4 H 0.2189 0.4637 0.3068
H88_4 H 0.1927 0.5137 0.2765
C125_4 C 0.2869(7) 0.4874(4) 0.2209(6)
H89_4 H 0.3473 0.4882 0.2341
H90_4 H 0.2726 0.4544 0.1974
H91_4 H 0.2739 0.5141 0.1815
C126_4 C 0.2666(9) 0.5175(5) 0.3656(8)
H92_4 H 0.3247 0.5297 0.3591
H93_4 H 0.2295 0.5460 0.3793
H94_4 H 0.2646 0.4924 0.4094
loop_
_geom_bond_atom_site_label_1
_geom_bond_atom_site_label_2
_geom_bond_site_symmetry_1
_geom_bond_site_symmetry_2
Zn2 O3 1_555 1_555
O3 C16 1_555 1_555
O4 C16 1_555 1_555
O14 Zn2 1_555 1_555
N3 C59 1_555 1_555
C3 C4 1_555 1_555
C5 C4 1_555 1_555
H2 C5 1_555 1_555
C6 C5 1_555 1_555
H3 C6 1_555 1_555
C7 C6 1_555 1_555
H4 C7 1_555 1_555
C8 C3 1_555 1_555
C9 C8 1_555 1_555
C16 C9 1_555 1_555
C37 C36 1_555 1_555
C38 C37 1_555 1_555
H18 C38 1_555 1_555
C39 C38 1_555 1_555
H19 C39 1_555 1_555
C59 O14 1_555 1_555
H33 C59 1_555 1_555
C60 N3 1_555 1_555
H34 C60 1_555 1_555
H35 C60 1_555 1_555
H36 C60 1_555 1_555
C61 N3 1_555 1_555
H37 C61 1_555 1_555
H38 C61 1_555 1_555
H39 C61 1_555 1_555
Zn6 O27 1_555 1_555
Zn17 O25 1_555 1_555
O22 Zn2 1_555 1_555
O25 C93 1_555 1_555
O27 C93 1_555 1_555
O31 Zn2 1_555 1_555
O36 Zn2 1_555 1_555
C78 O22 1_555 1_555
C79 C78 1_555 1_555
C80 C79 1_555 1_555
C81 C80 1_555 1_555
H50 C83 1_555 1_555
C84 C83 1_555 1_555
H51 C84 1_555 1_555
C85 C80 1_555 1_555
C86 C85 1_555 1_555
C87 C86 1_555 1_555
C88 C87 1_555 1_555
H52 C88 1_555 1_555
C89 C88 1_555 1_555
H53 C89 1_555 1_555
C90 C89 1_555 1_555
H54 C90 1_555 1_555
C91 C90 1_555 1_555
H55 C91 1_555 1_555
C92 C79 1_555 1_555
C93 C86 1_555 1_555
C96 C36 1_555 1_555
C101 C39 1_555 1_555
H59 C101 1_555 1_555
C7 C8 1_555 1_555
O23 C78 1_555 1_555
C84 C85 1_555 1_555
C87 C92 1_555 1_555
C91 C92 1_555 1_555
C96 C101 1_555 1_555
Zn6 O2 1_555 1_555
Zn17 O1 1_555 1_555
O1 C1 1_555 1_555
O2 C1 1_555 1_555
O9 Zn6 1_555 1_555
O10 C33 1_555 1_555
O11 Zn6 1_555 1_555
O12 C51 1_555 1_555
O13 Zn6 1_555 1_555
N1 Zn6 1_555 1_555
C1 C2 1_555 1_555
C11 C10 1_555 1_555
C12 C11 1_555 1_555
H6 C12 1_555 1_555
C13 C12 1_555 1_555
H7 C13 1_555 1_555
C14 C13 1_555 1_555
H8 C14 1_555 1_555
C15 C2 1_555 1_555
C33 O9 1_555 1_555
C34 C33 1_555 1_555
C41 N1 1_555 1_555
H21 C41 1_555 1_555
C45 N1 1_555 1_555
H24 C45 1_555 1_555
C51 O11 1_555 1_555
C52 C51 1_555 1_555
C58 C52 1_555 1_555
Zn8 O17 1_555 1_555
Zn9 N4 1_555 1_555
Zn11 O10 1_555 1_555
Zn18 O15 1_555 1_555
O15 C62 1_555 1_555
O17 C62 1_555 1_555
O19 Zn11 1_555 1_555
O21 Zn17 1_555 1_555
O24 Zn17 1_555 1_555
N4 C102 1_555 1_555
N6 Zn17 1_555 1_555
C62 C63 1_555 1_555
C63 C64 1_555 1_555
C64 C65 1_555 1_555
C65 H40 1_555 1_555
C66 C65 1_555 1_555
H41 C66 1_555 1_555
C67 C66 1_555 1_555
H42 C67 1_555 1_555
C68 C67 1_555 1_555
H43 C68 1_555 1_555
C69 C64 1_555 1_555
C70 C69 1_555 1_555
C71 C70 1_555 1_555
C72 C71 1_555 1_555
H44 C72 1_555 1_555
C73 C72 1_555 1_555
H45 C73 1_555 1_555
C74 C73 1_555 1_555
H46 C74 1_555 1_555
C75 C74 1_555 1_555
H47 C75 1_555 1_555
C76 C63 1_555 1_555
C77 O19 1_555 1_555
C102 H60 1_555 1_555
C103 C102 1_555 1_555
H61 C103 1_555 1_555
C104 C103 1_555 1_555
C105 C104 1_555 1_555
H62 C105 1_555 1_555
C106 N4 1_555 1_555
H63 C106 1_555 1_555
C107 N6 1_555 1_555
H64 C107 1_555 1_555
C108 C107 1_555 1_555
H65 C108 1_555 1_555
C109 C104 1_555 1_555
C110 C109 1_555 1_555
H66 C110 1_555 1_555
C111 N6 1_555 1_555
H67 C111 1_555 1_555
C114 C58 1_555 1_555
C115 C114 1_555 1_555
H68 C115 1_555 1_555
C116 C115 1_555 1_555
H69 C116 1_555 1_555
C117 C116 1_555 1_555
H70 C117 1_555 1_555
C118 C58 1_555 1_555
H71 C118 1_555 1_555
Zn17 O13 1_555 1_555
O12 Zn11 1_555 1_555
O13 Zn11 1_555 1_555
C10 C15 1_555 1_555
C14 C15 1_555 1_555
O21 C77 1_555 1_555
C68 C69 1_555 1_555
C70 C77 1_555 1_555
C71 C76 1_555 1_555
C75 C76 1_555 1_555
C105 C106 1_555 1_555
C108 C109 1_555 1_555
C110 C111 1_555 1_555
C117 C118 1_555 1_555
Zn4 O18 1_555 1_555
Zn12 O30 1_555 1_555
O28 Zn4 1_555 1_555
O29 Zn4 1_555 1_555
O30 C94 1_555 1_555
O34 Zn4 1_555 1_555
O39 Zn4 1_555 1_555
N5 Zn4 1_555 1_555
C94 O29 1_555 1_555
C95 C94 1_555 1_555
Zn12 O39 1_555 1_555
N2 C46 1_555 1_555
C40 C35 1_555 1_555
H20 C40 1_555 1_555
H22 C42 1_555 1_555
C43 C42 1_555 1_555
C44 C43 1_555 1_555
H23 C44 1_555 1_555
C46 H25 1_555 1_555
C47 C46 1_555 1_555
H26 C47 1_555 1_555
C48 C43 1_555 1_555
C49 C48 1_555 1_555
H27 C49 1_555 1_555
C50 N2 1_555 1_555
H28 C50 1_555 1_555
C54 C53 1_555 1_555
H29 C54 1_555 1_555
C55 C54 1_555 1_555
H30 C55 1_555 1_555
C56 C55 1_555 1_555
H31 C56 1_555 1_555
C57 C56 1_555 1_555
H32 C57 1_555 1_555
Zn12 O35 1_555 1_555
Zn16 N2 1_555 1_555
O34 C112 1_555 1_555
O35 C112 1_555 1_555
C97 C35 1_555 1_555
C98 C97 1_555 1_555
C99 C98 1_555 1_555
H57 C99 1_555 1_555
C100 C40 1_555 1_555
H58 C100 1_555 1_555
C112 C113 1_555 1_555
C119 C53 1_555 1_555
C47 C48 1_555 1_555
C49 C50 1_555 1_555
C57 C119 1_555 1_555
C99 C100 1_555 1_555
C113 C119 1_555 1_555
Zn8 O38 1_555 1_555
O26 Zn18 1_555 1_555
N7 Zn18 1_555 1_555
H49 C82 1_555 1_555
Zn18 O38 1_555 1_555
O5 C17 1_555 1_555
O6 C17 1_555 1_555
C17 C18 1_555 1_555
C27 C26 1_555 1_555
C28 C27 1_555 1_555
H14 C28 1_555 1_555
C29 C28 1_555 1_555
H15 C29 1_555 1_555
C30 C29 1_555 1_555
H16 C30 1_555 1_555
C31 C18 1_555 1_555
Zn12 O5 1_555 1_555
Zn15 O6 1_555 1_555
O20 Zn12 1_555 1_555
O41 Zn12 1_555 1_555
N8 C120 1_555 1_555
C114_2 C58_2 1_555 1_555
C115_2 C114_2 1_555 1_555
H68_2 C115_2 1_555 1_555
C116_2 C115_2 1_555 1_555
H69_2 C116_2 1_555 1_555
C117_2 C116_2 1_555 1_555
H70_2 C117_2 1_555 1_555
C118_2 C58_2 1_555 1_555
C120 O41 1_555 1_555
H72 C120 1_555 1_555
C121 N8 1_555 1_555
H73 C121 1_555 1_555
H74 C121 1_555 1_555
H75 C121 1_555 1_555
C122 N8 1_555 1_555
H76 C122 1_555 1_555
H77 C122 1_555 1_555
H78 C122 1_555 1_555
C26 C31 1_555 1_555
C30 C31 1_555 1_555
Zn15 O39 1_555 1_555
C117_2 C118_2 1_555 1_555
Zn9 O2_2 1_555 1_555
Zn16 O1_2 1_555 1_555
O1_2 C1_2 1_555 1_555
O2_2 C1_2 1_555 1_555
O20 C16_2 1_555 1_555
O4_2 C16_2 1_555 1_555
O7 Zn16 1_555 1_555
O8 Zn9 1_555 1_555
O9_2 Zn9 1_555 1_555
O11_2 Zn9 1_555 1_555
O13_2 Zn9 1_555 1_555
C1_2 C2_2 1_555 1_555
C2_2 C3_2 1_555 1_555
C3_2 C4_2 1_555 1_555
C4_2 H1_2 1_555 1_555
C5_2 C4_2 1_555 1_555
H2_2 C5_2 1_555 1_555
C6_2 C5_2 1_555 1_555
H3_2 C6_2 1_555 1_555
C7_2 C6_2 1_555 1_555
H4_2 C7_2 1_555 1_555
C8_2 C3_2 1_555 1_555
C9_2 C8_2 1_555 1_555
C10_2 C9_2 1_555 1_555
C11_2 C10_2 1_555 1_555
H5_2 C11_2 1_555 1_555
C12_2 C11_2 1_555 1_555
H6_2 C12_2 1_555 1_555
C13_2 C12_2 1_555 1_555
H7_2 C13_2 1_555 1_555
C14_2 C13_2 1_555 1_555
H8_2 C14_2 1_555 1_555
C15_2 C2_2 1_555 1_555
C16_2 C9_2 1_555 1_555
C19 C20 1_555 1_555
C21 C20 1_555 1_555
H10 C21 1_555 1_555
C22 C21 1_555 1_555
H11 C22 1_555 1_555
C23 C22 1_555 1_555
H12 C23 1_555 1_555
C24 C19 1_555 1_555
C25 C24 1_555 1_555
C32 O7 1_555 1_555
C33_2 O9_2 1_555 1_555
C34_2 C33_2 1_555 1_555
C35_2 C34_2 1_555 1_555
C40_2 C35_2 1_555 1_555
H20_2 C40_2 1_555 1_555
C51_2 O11_2 1_555 1_555
C52_2 C51_2 1_555 1_555
Zn15 O4_2 1_555 1_555
O16 Zn15 1_555 1_555
O26_2 Zn15 1_555 1_555
N7_2 Zn15 1_555 1_555
C97_2 C35_2 1_555 1_555
C98_2 C97_2 1_555 1_555
H56_2 C98_2 1_555 1_555
C99_2 C98_2 1_555 1_555
H57_2 C99_2 1_555 1_555
C100_2 C40_2 1_555 1_555
H58_2 C100_2 1_555 1_555
Zn16 O13_2 1_555 1_555
O8 C32 1_555 1_555
C7_2 C8_2 1_555 1_555
C10_2 C15_2 1_555 1_555
C14_2 C15_2 1_555 1_555
C23 C24 1_555 1_555
C25 C32 1_555 1_555
C99_2 C100_2 1_555 1_555
Zn8 O33 1_555 1_555
O16 C62_2 1_555 1_555
O18 C62_2 1_555 1_555
O33 C112_2 1_555 1_555
C62_2 C63_2 1_555 1_555
C72_2 C71_2 1_555 1_555
C73_2 C72_2 1_555 1_555
H45_2 C73_2 1_555 1_555
C74_2 C73_2 1_555 1_555
H46_2 C74_2 1_555 1_555
C75_2 C74_2 1_555 1_555
H47_2 C75_2 1_555 1_555
C76_2 C63_2 1_555 1_555
C112_2 C113_2 1_555 1_555
C71_2 C76_2 1_555 1_555
C75_2 C76_2 1_555 1_555
C37_2 C36_2 1_555 1_555
H17_2 C37_2 1_555 1_555
C38_2 C37_2 1_555 1_555
H18_2 C38_2 1_555 1_555
C39_2 C38_2 1_555 1_555
H19_2 C39_2 1_555 1_555
C54_2 C53_2 1_555 1_555
H29_2 C54_2 1_555 1_555
C55_2 C54_2 1_555 1_555
H30_2 C55_2 1_555 1_555
C56_2 C55_2 1_555 1_555
H31_2 C56_2 1_555 1_555
C57_2 C56_2 1_555 1_555
Zn11_2 O10_2 1_555 1_555
O19_2 Zn11_2 1_555 1_555
O28_2 Zn8 1_555 1_555
O29_2 Zn8 1_555 1_555
N5_2 Zn8 1_555 1_555
C64_2 C65_2 1_555 1_555
C66_2 C65_2 1_555 1_555
H41_2 C66_2 1_555 1_555
C67_2 C66_2 1_555 1_555
H42_2 C67_2 1_555 1_555
C68_2 C67_2 1_555 1_555
H43_2 C68_2 1_555 1_555
C69_2 C64_2 1_555 1_555
C70_2 C69_2 1_555 1_555
C77_2 O19_2 1_555 1_555
C94_2 O29_2 1_555 1_555
C95_2 C94_2 1_555 1_555
C96_2 C36_2 1_555 1_555
C101_2 C39_2 1_555 1_555
H59_2 C101_2 1_555 1_555
C119_2 C53_2 1_555 1_555
O12_2 Zn11_2 1_555 1_555
C57_2 C119_2 1_555 1_555
O21_2 C77_2 1_555 1_555
C68_2 C69_2 1_555 1_555
C70_2 C77_2 1_555 1_555
C95_2 C96_2 1_555 1_555
C96_2 C101_2 1_555 1_555
H10_2 C21_2 1_555 1_555
N7 C46_2 1_555 1_555
H22_2 C42_2 1_555 1_555
C43_2 C42_2 1_555 1_555
C44_2 C43_2 1_555 1_555
H23_2 C44_2 1_555 1_555
C46_2 H25_2 1_555 1_555
C47_2 C46_2 1_555 1_555
H26_2 C47_2 1_555 1_555
C48_2 C43_2 1_555 1_555
C49_2 C48_2 1_555 1_555
H27_2 C49_2 1_555 1_555
C50_2 N7 1_555 1_555
H28_2 C50_2 1_555 1_555
C47_2 C48_2 1_555 1_555
C49_2 C50_2 1_555 1_555
O5_2 C17_2 1_555 1_555
O24_2 C17_2 1_555 1_555
C17_2 C18_2 1_555 1_555
C18_2 C19_2 1_555 1_555
C19_2 C20_2 1_555 1_555
H11_2 C22_2 1_555 1_555
C23_2 C22_2 1_555 1_555
H12_2 C23_2 1_555 1_555
C24_2 C19_2 1_555 1_555
C25_2 C24_2 1_555 1_555
C26_2 C25_2 1_555 1_555
C27_2 C26_2 1_555 1_555
H13_2 C27_2 1_555 1_555
C28_2 C27_2 1_555 1_555
H14_2 C28_2 1_555 1_555
C29_2 C28_2 1_555 1_555
H15_2 C29_2 1_555 1_555
C30_2 C29_2 1_555 1_555
H16_2 C30_2 1_555 1_555
C31_2 C18_2 1_555 1_555
C32_2 O26_2 1_555 1_555
C41_2 N5 1_555 1_555
H21_2 C41_2 1_555 1_555
C45_2 N5 1_555 1_555
H24_2 C45_2 1_555 1_555
Zn11_2 O5_2 1_555 1_555
O41_2 Zn11_2 1_555 1_555
N5_2 C102_2 1_555 1_555
N8_2 C120_2 1_555 1_555
C102_2 H60_2 1_555 1_555
C103_2 C102_2 1_555 1_555
H61_2 C103_2 1_555 1_555
C104_2 C103_2 1_555 1_555
C105_2 C104_2 1_555 1_555
H62_2 C105_2 1_555 1_555
C106_2 N5_2 1_555 1_555
H63_2 C106_2 1_555 1_555
C107_2 N7_2 1_555 1_555
H64_2 C107_2 1_555 1_555
C108_2 C107_2 1_555 1_555
H65_2 C108_2 1_555 1_555
C109_2 C104_2 1_555 1_555
C110_2 C109_2 1_555 1_555
H66_2 C110_2 1_555 1_555
C111_2 N7_2 1_555 1_555
H67_2 C111_2 1_555 1_555
C120_2 O41_2 1_555 1_555
H72_2 C120_2 1_555 1_555
C121_2 N8_2 1_555 1_555
H73_2 C121_2 1_555 1_555
H74_2 C121_2 1_555 1_555
H75_2 C121_2 1_555 1_555
C122_2 N8_2 1_555 1_555
H76_2 C122_2 1_555 1_555
H77_2 C122_2 1_555 1_555
H78_2 C122_2 1_555 1_555
O28 C32_2 1_555 1_555
C23_2 C24_2 1_555 1_555
C25_2 C32_2 1_555 1_555
C26_2 C31_2 1_555 1_555
C30_2 C31_2 1_555 1_555
C105_2 C106_2 1_555 1_555
C108_2 C109_2 1_555 1_555
C110_2 C111_2 1_555 1_555
O26 C93_2 1_555 1_555
O28_2 C93_2 1_555 1_555
C81_2 C80_2 1_555 1_555
C82_2 C81_2 1_555 1_555
H49_2 C82_2 1_555 1_555
C83_2 C82_2 1_555 1_555
H50_2 C83_2 1_555 1_555
C84_2 C83_2 1_555 1_555
H51_2 C84_2 1_555 1_555
C85_2 C80_2 1_555 1_555
C86_2 C85_2 1_555 1_555
C93_2 C86_2 1_555 1_555
C84_2 C85_2 1_555 1_555
O14_2 Zn11 1_555 1_555
N3_2 C59_2 1_555 1_555
C59_2 O14_2 1_555 1_555
H33_2 C59_2 1_555 1_555
C60_2 N3_2 1_555 1_555
H34_2 C60_2 1_555 1_555
H35_2 C60_2 1_555 1_555
H36_2 C60_2 1_555 1_555
C61_2 N3_2 1_555 1_555
H37_2 C61_2 1_555 1_555
H38_2 C61_2 1_555 1_555
H39_2 C61_2 1_555 1_555
O22_2 Zn11 1_555 1_555
C78_2 O22_2 1_555 1_555
C79_2 C78_2 1_555 1_555
C88_2 C87_2 1_555 1_555
C89_2 C88_2 1_555 1_555
H53_2 C89_2 1_555 1_555
C90_2 C89_2 1_555 1_555
H54_2 C90_2 1_555 1_555
C91_2 C90_2 1_555 1_555
H55_2 C91_2 1_555 1_555
C92_2 C79_2 1_555 1_555
O24 C78_2 1_555 1_555
C87_2 C92_2 1_555 1_555
C91_2 C92_2 1_555 1_555
N9 H79 1_555 1_555
H80 N9 1_555 1_555
C123 N9 1_555 1_555
H81 C123 1_555 1_555
H82 C123 1_555 1_555
H83 C123 1_555 1_555
C124 N9 1_555 1_555
H84 C124 1_555 1_555
H85 C124 1_555 1_555
H86 C124 1_555 1_555
N9_2 H79_2 1_555 1_555
H80_2 N9_2 1_555 1_555
C123_2 N9_2 1_555 1_555
H81_2 C123_2 1_555 1_555
H82_2 C123_2 1_555 1_555
H83_2 C123_2 1_555 1_555
C124_2 N9_2 1_555 1_555
H85_2 C124_2 1_555 1_555
N9_3 H79_3 1_555 1_555
H80_3 N9_3 1_555 1_555
C123_3 N9_3 1_555 1_555
H81_3 C123_3 1_555 1_555
H82_3 C123_3 1_555 1_555
H83_3 C123_3 1_555 1_555
C124_3 N9_3 1_555 1_555
H84_3 C124_3 1_555 1_555
H85_3 C124_3 1_555 1_555
H86_3 C124_3 1_555 1_555
N9_4 H79_4 1_555 1_555
H80_4 N9_4 1_555 1_555
C123_4 N9_4 1_555 1_555
H81_4 C123_4 1_555 1_555
H82_4 C123_4 1_555 1_555
H83_4 C123_4 1_555 1_555
C124_4 N9_4 1_555 1_555
H85_4 C124_4 1_555 1_555
N10 H87 1_555 1_555
C125 N10 1_555 1_555
H89 C125 1_555 1_555
H90 C125 1_555 1_555
H92 C126 1_555 1_555
H93 C126 1_555 1_555
N10_2 H87_2 1_555 1_555
H88_2 N10_2 1_555 1_555
C125_2 N10_2 1_555 1_555
H89_2 C125_2 1_555 1_555
H90_2 C125_2 1_555 1_555
H91_2 C125_2 1_555 1_555
C126_2 N10_2 1_555 1_555
H92_2 C126_2 1_555 1_555
H93_2 C126_2 1_555 1_555
H94_2 C126_2 1_555 1_555
H92_3 C126_3 1_555 1_555
H93_3 C126_3 1_555 1_555
N10_3 H87_3 1_555 1_555
C125_3 N10_3 1_555 1_555
H89_3 C125_3 1_555 1_555
H90_3 C125_3 1_555 1_555
N10_4 H87_4 1_555 1_555
H88_4 N10_4 1_555 1_555
C125_4 N10_4 1_555 1_555
H89_4 C125_4 1_555 1_555
H90_4 C125_4 1_555 1_555
H91_4 C125_4 1_555 1_555
C126_4 N10_4 1_555 1_555
H92_4 C126_4 1_555 1_555
H93_4 C126_4 1_555 1_555
H94_4 C126_4 1_555 1_555

#END
