
###############################################################################
#
# This file contains modified crystal structure data generated from the
# MOF subset of the Cambridge Structural Database (CSD) v543 
# hosted by the Cambridge Crystallographic Data Centre (CCDC).
#
# This work is licensed under the Creative Commons
# Attribution-NonCommercial-ShareAlike 4.0 International License.
# To view a copy of this license, visit
# http://creativecommons.org/licenses/by-nc-sa/4.0/
# or send a letter to
# Creative Commons, PO Box 1866, Mountain View, CA 94042, USA.
#
# CIF created using the CSD Python API on 29 September 2022
# The structure has been converted into the P1 space group
# The structure has a 3D framework
# The original CSD entry YARKEJ is in the monoclinic crystal system
# The framework has been calculated to contain at least 10.0% void space
# The void calculation uses a probe of radius 1.32A, grid spacing 0.4
#
###############################################################################

data_YARKEJ
_chemical_formula_moiety         '(C160 H120 N16 O38 Zn7)n'
_symmetry_cell_setting           triclinic
_symmetry_space_group_name_H-M   'P 1'
_symmetry_Int_Tables_number      1
_space_group_name_Hall           'P 1'
loop_
_symmetry_equiv_pos_site_id
_symmetry_equiv_pos_as_xyz
1 x,y,z
_cell_length_a                   21.0705(5)
_cell_length_b                   18.4633(5)
_cell_length_c                   12.0995(3)
_cell_angle_alpha                90
_cell_angle_beta                 103.461(3)
_cell_angle_gamma                90
_cell_volume                     4577.77
loop_
_atom_site_label
_atom_site_type_symbol
_atom_site_fract_x
_atom_site_fract_y
_atom_site_fract_z
O1 O 0.14517(13) 0.05017(16) 0.3218(3)
C1 C 0.12084(17) 0.1479(2) 0.1922(3)
O2 O 0.22443(13) 0.09441(18) 0.2518(2)
C2 C 0.1256(2) 0.1706(2) 0.0854(4)
O3 O 0.15903(13) 0.06572(16) 0.0041(3)
C3 C 0.0885(3) 0.2292(3) 0.0349(4)
C4 C 0.0458(2) 0.2632(3) 0.0898(5)
H2 H 0.0210 0.3023 0.0557
O5 O 0.0000 0.2781(2) 0.2500
C5 C 0.04007(18) 0.2391(2) 0.1940(4)
C6 C 0.07768(18) 0.1823(2) 0.2465(4)
H3 H 0.0742 0.1668 0.3181
C7 C 0.16763(18) 0.0941(2) 0.2582(3)
C8 C 0.1678(2) 0.1331(3) 0.0184(4)
C9 C 0.3168(2) 0.0287(3) 0.0946(4)
H4 H 0.2875 0.0570 0.1225
C10 C 0.3793(2) 0.0221(3) 0.1581(5)
H5 H 0.3918 0.0472 0.2263
H9 H 0.5182 0.0127 0.1658
Zn3 Zn 0.792973(19) 0.02312(2) 0.60065(4)
C29 C 0.6832(2) 0.0287(3) 0.4054(4)
H19 H 0.7125 0.0570 0.3775
C30 C 0.6207(2) 0.0221(3) 0.3419(5)
H20 H 0.6082 0.0472 0.2737
H24 H 0.4818 0.0127 0.3342
Zn1 Zn 0.207027(19) 0.02312(2) 0.89935(4)
N2 N 0.22698(16) 0.08432(18) 0.7736(3)
H1 H 0.0924 0.2457 0.9642
O4 O 0.2090(2) 0.1669(2) 0.9835(4)
C15 C 0.1864(2) 0.0865(2) 0.6709(4)
H10 H 0.1486 0.0587 0.6580
C16 C 0.1980(3) 0.1279(3) 0.5834(4)
H11 H 0.1677 0.1288 0.5139
C17 C 0.2550(3) 0.1683(2) 0.5989(4)
C18 C 0.2957(3) 0.1662(3) 0.7038(5)
H12 H 0.3340 0.1932 0.7184
C19 C 0.2810(2) 0.1246(3) 0.7885(4)
H13 H 0.3100 0.1245 0.8594
C20 C 0.2685(3) 0.2158(3) 0.5047(5)
H14 H 0.3148 0.2263 0.5198
H15 H 0.2565 0.1898 0.4331
Zn6 Zn 0.292973(19) 0.47688(2) 0.10065(4)
N5 N 0.27302(16) 0.41568(18) 0.2264(3)
C35 C 0.3136(2) 0.4135(2) 0.3291(4)
H25 H 0.3514 0.4413 0.3420
C36 C 0.3020(3) 0.3721(3) 0.4166(4)
H26 H 0.3323 0.3712 0.4861
C37 C 0.2450(3) 0.3317(2) 0.4011(4)
C38 C 0.2043(3) 0.3338(3) 0.2962(5)
H27 H 0.1660 0.3068 0.2816
C39 C 0.2190(2) 0.3754(3) 0.2115(4)
H28 H 0.1900 0.3755 0.1406
C40 C 0.2315(3) 0.2842(3) 0.4953(5)
H29 H 0.1852 0.2737 0.4802
H30 H 0.2435 0.3102 0.5669
C11 C 0.4240(2) 0.9788(3) 0.1228(4)
C12 C 0.4031(2) 0.9438(3) 0.0230(4)
C14 C 0.4940(2) 0.9728(3) 0.1882(5)
H8 H 0.5119 0.9284 0.1650
Zn5 Zn 0.207027(19) 0.97688(2) 0.39935(4)
N3 N 0.70368(15) 0.9966(2) 0.5048(3)
C31 C 0.5760(2) 0.9788(3) 0.3772(4)
C32 C 0.5969(2) 0.9438(3) 0.4770(4)
H21 H 0.5688 0.9132 0.5040
C33 C 0.66096(19) 0.9538(2) 0.5396(4)
H22 H 0.6745 0.9295 0.6084
C34 C 0.5060(2) 0.9728(3) 0.3118(5)
H23 H 0.4881 0.9284 0.3350
N1 N 0.29632(15) 0.9966(2) 0.9952(3)
H6 H 0.4312 0.9132 0.9960
C13 C 0.33904(19) 0.9538(2) 0.9604(4)
H7 H 0.3255 0.9295 0.8916
O8 O 0.14517(13) 0.94983(16) 0.8218(3)
O5_2 O 1.0000 0.2781(2) 0.2500
O6 O 0.85483(13) 0.05017(16) 0.1782(3)
C21 C 0.87916(17) 0.1479(2) 0.3078(3)
O9 O 0.77557(13) 0.09441(18) 0.2482(2)
N6 N 0.77302(16) 0.08432(18) 0.7264(3)
C22 C 0.8744(2) 0.1706(2) 0.4146(4)
O10 O 0.84097(13) 0.06572(16) 0.4959(3)
C23 C 0.9115(3) 0.2292(3) 0.4651(4)
H16 H 0.9076 0.2457 0.5358
C24 C 0.9542(2) 0.2632(3) 0.4102(5)
H17 H 0.9790 0.3023 0.4443
O11 O 0.7910(2) 0.1669(2) 0.5165(4)
C25 C 0.95993(18) 0.2391(2) 0.3060(4)
C26 C 0.92232(18) 0.1823(2) 0.2535(4)
H18 H 0.9258 0.1668 0.1819
C27 C 0.83237(18) 0.0941(2) 0.2418(3)
C28 C 0.8322(2) 0.1331(3) 0.4816(4)
Zn4 Zn 0.792973(19) 0.97688(2) 0.10065(4)
O7 O 0.85483(13) 0.94983(16) 0.6782(3)
H15_2 H 0.7435 0.1898 0.0669
Zn6_2 Zn 0.707027(19) 0.47688(2) 0.39935(4)
N5_2 N 0.72698(16) 0.41568(18) 0.2736(3)
C35_2 C 0.6864(2) 0.4135(2) 0.1709(4)
H25_2 H 0.6486 0.4413 0.1580
C36_2 C 0.6980(3) 0.3721(3) 0.0834(4)
H26_2 H 0.6677 0.3712 0.0139
C37_2 C 0.7550(3) 0.3317(2) 0.0989(4)
C38_2 C 0.7957(3) 0.3338(3) 0.2038(5)
H27_2 H 0.8340 0.3068 0.2184
C39_2 C 0.7810(2) 0.3754(3) 0.2885(4)
H28_2 H 0.8100 0.3755 0.3594
C40_2 C 0.7685(3) 0.2842(3) 0.0047(5)
H29_2 H 0.8148 0.2737 0.0198
C15_2 C 0.8136(2) 0.0865(2) 0.8291(4)
H10_2 H 0.8514 0.0587 0.8420
C16_2 C 0.8020(3) 0.1279(3) 0.9166(4)
H11_2 H 0.8323 0.1288 0.9861
C17_2 C 0.7450(3) 0.1683(2) 0.9011(4)
C18_2 C 0.7043(3) 0.1662(3) 0.7962(5)
H12_2 H 0.6660 0.1932 0.7816
C19_2 C 0.7190(2) 0.1246(3) 0.7115(4)
H13_2 H 0.6900 0.1245 0.6406
C20_2 C 0.7315(3) 0.2158(3) 0.9953(5)
H14_2 H 0.6852 0.2263 0.9802
H30_2 H 0.7565 0.3102 0.9331
H8_2 H 0.0119 0.4284 0.1650
H9_2 H 0.0182 0.5127 0.1658
Zn3_2 Zn 0.292973(19) 0.52312(2) 0.60065(4)
N3_2 N 0.20368(15) 0.4966(2) 0.5048(3)
C29_2 C 0.1832(2) 0.5287(3) 0.4054(4)
H19_2 H 0.2125 0.5570 0.3775
C30_2 C 0.1207(2) 0.5221(3) 0.3419(5)
H20_2 H 0.1082 0.5472 0.2737
C31_2 C 0.0760(2) 0.4788(3) 0.3772(4)
C32_2 C 0.0969(2) 0.4438(3) 0.4770(4)
H21_2 H 0.0688 0.4132 0.5040
C33_2 C 0.16096(19) 0.4538(2) 0.5396(4)
H22_2 H 0.1745 0.4295 0.6084
C34_2 C 0.0060(2) 0.4728(3) 0.3118(5)
O1_2 O 0.64517(13) 0.55017(16) 0.3218(3)
C1_2 C 0.62084(17) 0.6479(2) 0.1922(3)
O2_2 O 0.72443(13) 0.59441(18) 0.2518(2)
C2_2 C 0.6256(2) 0.6706(2) 0.0854(4)
O3_2 O 0.65903(13) 0.56572(16) 0.0041(3)
C3_2 C 0.5885(3) 0.7292(3) 0.0349(4)
C4_2 C 0.5458(2) 0.7632(3) 0.0898(5)
H2_2 H 0.5210 0.8023 0.0557
O5_3 O 0.5000 0.7781(2) 0.2500
C5_2 C 0.54007(18) 0.7391(2) 0.1940(4)
C6_2 C 0.57768(18) 0.6823(2) 0.2465(4)
H3_2 H 0.5742 0.6668 0.3181
C7_2 C 0.66763(18) 0.5941(2) 0.2582(3)
C8_2 C 0.6678(2) 0.6331(3) 0.0184(4)
C9_2 C 0.8168(2) 0.5287(3) 0.0946(4)
H4_2 H 0.7875 0.5570 0.1225
C10_2 C 0.8793(2) 0.5221(3) 0.1581(5)
H5_2 H 0.8918 0.5472 0.2263
C11_2 C 0.9240(2) 0.4788(3) 0.1228(4)
C12_2 C 0.9031(2) 0.4438(3) 0.0230(4)
C14_2 C 0.9940(2) 0.4728(3) 0.1882(5)
O6_2 O 0.35483(13) 0.55017(16) 0.1782(3)
O7_2 O 0.35483(13) 0.44983(16) 0.6782(3)
C21_2 C 0.37916(17) 0.6479(2) 0.3078(3)
O9_2 O 0.27557(13) 0.59441(18) 0.2482(2)
N6_2 N 0.27302(16) 0.58432(18) 0.7264(3)
C22_2 C 0.3744(2) 0.6706(2) 0.4146(4)
O10_2 O 0.34097(13) 0.56572(16) 0.4959(3)
C23_2 C 0.4115(3) 0.7292(3) 0.4651(4)
H16_2 H 0.4076 0.7457 0.5358
C24_2 C 0.4542(2) 0.7632(3) 0.4102(5)
H17_2 H 0.4790 0.8023 0.4443
O11_2 O 0.2910(2) 0.6669(2) 0.5165(4)
C25_2 C 0.45993(18) 0.7391(2) 0.3060(4)
C26_2 C 0.42232(18) 0.6823(2) 0.2535(4)
H18_2 H 0.4258 0.6668 0.1819
C27_2 C 0.33237(18) 0.5941(2) 0.2418(3)
C28_2 C 0.3322(2) 0.6331(3) 0.4816(4)
H23_2 H 0.9881 0.4284 0.3350
H24_2 H 0.9818 0.5127 0.3342
Zn1_2 Zn 0.707027(19) 0.52312(2) 0.89935(4)
N1_2 N 0.79632(15) 0.4966(2) 0.9952(3)
N2_2 N 0.72698(16) 0.58432(18) 0.7736(3)
H1_2 H 0.5924 0.7457 0.9642
O4_2 O 0.7090(2) 0.6669(2) 0.9835(4)
H6_2 H 0.9312 0.4132 0.9960
C13_2 C 0.83904(19) 0.4538(2) 0.9604(4)
H7_2 H 0.8255 0.4295 0.8916
C15_3 C 0.6864(2) 0.5865(2) 0.6709(4)
H10_3 H 0.6486 0.5587 0.6580
C16_3 C 0.6980(3) 0.6279(3) 0.5834(4)
H11_3 H 0.6677 0.6288 0.5139
C17_3 C 0.7550(3) 0.6683(2) 0.5989(4)
C18_3 C 0.7957(3) 0.6662(3) 0.7038(5)
H12_3 H 0.8340 0.6932 0.7184
C19_3 C 0.7810(2) 0.6246(3) 0.7885(4)
H13_3 H 0.8100 0.6245 0.8594
C20_3 C 0.7685(3) 0.7158(3) 0.5047(5)
H14_3 H 0.8148 0.7263 0.5198
H15_3 H 0.7565 0.6898 0.4331
O8_2 O 0.64517(13) 0.44983(16) 0.8218(3)
N5_3 N 0.77302(16) 0.91568(18) 0.2264(3)
C35_3 C 0.8136(2) 0.9135(2) 0.3291(4)
H25_3 H 0.8514 0.9413 0.3420
C36_3 C 0.8020(3) 0.8721(3) 0.4166(4)
H26_3 H 0.8323 0.8712 0.4861
C37_3 C 0.7450(3) 0.8317(2) 0.4011(4)
C38_3 C 0.7043(3) 0.8338(3) 0.2962(5)
H27_3 H 0.6660 0.8068 0.2816
C39_3 C 0.7190(2) 0.8754(3) 0.2115(4)
H28_3 H 0.6900 0.8755 0.1406
C40_3 C 0.7315(3) 0.7842(3) 0.4953(5)
H29_3 H 0.6852 0.7737 0.4802
H30_3 H 0.7435 0.8102 0.5669
H15_4 H 0.2435 0.6898 0.0669
N5_4 N 0.22698(16) 0.91568(18) 0.2736(3)
C35_4 C 0.1864(2) 0.9135(2) 0.1709(4)
H25_4 H 0.1486 0.9413 0.1580
C36_4 C 0.1980(3) 0.8721(3) 0.0834(4)
H26_4 H 0.1677 0.8712 0.0139
C37_4 C 0.2550(3) 0.8317(2) 0.0989(4)
C38_4 C 0.2957(3) 0.8338(3) 0.2038(5)
H27_4 H 0.3340 0.8068 0.2184
C39_4 C 0.2810(2) 0.8754(3) 0.2885(4)
H28_4 H 0.3100 0.8755 0.3594
C40_4 C 0.2685(3) 0.7842(3) 0.0047(5)
H29_4 H 0.3148 0.7737 0.0198
C15_4 C 0.3136(2) 0.5865(2) 0.8291(4)
H10_4 H 0.3514 0.5587 0.8420
C16_4 C 0.3020(3) 0.6279(3) 0.9166(4)
H11_4 H 0.3323 0.6288 0.9861
C17_4 C 0.2450(3) 0.6683(2) 0.9011(4)
C18_4 C 0.2043(3) 0.6662(3) 0.7962(5)
H12_4 H 0.1660 0.6932 0.7816
C19_4 C 0.2190(2) 0.6246(3) 0.7115(4)
H13_4 H 0.1900 0.6245 0.6406
C20_4 C 0.2315(3) 0.7158(3) 0.9953(5)
H14_4 H 0.1852 0.7263 0.9802
H30_4 H 0.2565 0.8102 0.9331
N4 N 0.29632(15) 0.0034(2) 0.4952(3)
O5_4 O -0.0000 0.7219(2) 0.7500
C21_3 C 0.12084(17) 0.8521(2) 0.6922(3)
O9_3 O 0.22443(13) 0.90559(18) 0.7518(2)
C22_3 C 0.1256(2) 0.8294(2) 0.5854(4)
O10_3 O 0.15903(13) 0.93428(16) 0.5041(3)
C23_3 C 0.0885(3) 0.7708(3) 0.5349(4)
H16_3 H 0.0924 0.7543 0.4642
C24_3 C 0.0458(2) 0.7368(3) 0.5898(5)
H17_3 H 0.0210 0.6977 0.5557
O11_3 O 0.2090(2) 0.8331(2) 0.4835(4)
C25_3 C 0.04007(18) 0.7609(2) 0.6940(4)
C26_3 C 0.07768(18) 0.8177(2) 0.7465(4)
H18_3 H 0.0742 0.8332 0.8181
C27_3 C 0.16763(18) 0.9059(2) 0.7582(3)
C28_3 C 0.1678(2) 0.8669(3) 0.5184(4)
N1_3 N 0.70368(15) 0.0034(2) 0.0048(3)
H6_3 H 0.5688 0.0868 0.0040
C13_3 C 0.66096(19) 0.0462(2) 0.0396(4)
H7_3 H 0.6745 0.0705 0.1084
C11_3 C 0.5760(2) 0.0212(3) 0.8772(4)
C12_3 C 0.5969(2) 0.0562(3) 0.9770(4)
C14_3 C 0.5060(2) 0.0272(3) 0.8118(5)
H8_3 H 0.4881 0.0716 0.8350
C31_3 C 0.4240(2) 0.0212(3) 0.6228(4)
C32_3 C 0.4031(2) 0.0562(3) 0.5230(4)
H21_3 H 0.4312 0.0868 0.4960
C33_3 C 0.33904(19) 0.0462(2) 0.4604(4)
H22_3 H 0.3255 0.0705 0.3916
C34_3 C 0.4940(2) 0.0272(3) 0.6882(5)
H23_3 H 0.5119 0.0716 0.6650
H1_3 H 0.9076 0.7543 0.0358
O4_3 O 0.7910(2) 0.8331(2) 0.0165(4)
C1_3 C 0.87916(17) 0.8521(2) 0.8078(3)
O2_3 O 0.77557(13) 0.90559(18) 0.7482(2)
C2_3 C 0.8744(2) 0.8294(2) 0.9146(4)
O3_3 O 0.84097(13) 0.93428(16) 0.9959(3)
C3_3 C 0.9115(3) 0.7708(3) 0.9651(4)
C4_3 C 0.9542(2) 0.7368(3) 0.9102(5)
H2_3 H 0.9790 0.6977 0.9443
O5_5 O 1.0000 0.7219(2) 0.7500
C5_3 C 0.95993(18) 0.7609(2) 0.8060(4)
C6_3 C 0.92232(18) 0.8177(2) 0.7535(4)
H3_3 H 0.9258 0.8332 0.6819
C7_3 C 0.83237(18) 0.9059(2) 0.7418(3)
C8_3 C 0.8322(2) 0.8669(3) 0.9816(4)
C9_3 C 0.6832(2) 0.9713(3) 0.9054(4)
H4_3 H 0.7125 0.9430 0.8775
C10_3 C 0.6207(2) 0.9779(3) 0.8419(5)
H5_3 H 0.6082 0.9528 0.7737
H9_3 H 0.4818 0.9873 0.8342
C29_3 C 0.3168(2) 0.9713(3) 0.5946(4)
H19_3 H 0.2875 0.9430 0.6225
C30_3 C 0.3793(2) 0.9779(3) 0.6581(5)
H20_3 H 0.3918 0.9528 0.7263
H24_3 H 0.5182 0.9873 0.6658
N1_4 N 0.20368(15) 0.5034(2) 0.0048(3)
H1_4 H 0.4076 0.2543 0.0358
O4_4 O 0.2910(2) 0.3331(2) 0.0165(4)
H6_4 H 0.0688 0.5868 0.0040
C13_4 C 0.16096(19) 0.5462(2) 0.0396(4)
H7_4 H 0.1745 0.5705 0.1084
C1_4 C 0.37916(17) 0.3521(2) 0.8078(3)
O2_4 O 0.27557(13) 0.40559(18) 0.7482(2)
C2_4 C 0.3744(2) 0.3294(2) 0.9146(4)
O3_4 O 0.34097(13) 0.43428(16) 0.9959(3)
C3_4 C 0.4115(3) 0.2708(3) 0.9651(4)
C4_4 C 0.4542(2) 0.2368(3) 0.9102(5)
H2_4 H 0.4790 0.1977 0.9443
O5_6 O 0.5000 0.2219(2) 0.7500
C5_4 C 0.45993(18) 0.2609(2) 0.8060(4)
C6_4 C 0.42232(18) 0.3177(2) 0.7535(4)
H3_4 H 0.4258 0.3332 0.6819
C7_4 C 0.33237(18) 0.4059(2) 0.7418(3)
C8_4 C 0.3322(2) 0.3669(3) 0.9816(4)
C9_4 C 0.1832(2) 0.4713(3) 0.9054(4)
H4_4 H 0.2125 0.4430 0.8775
C10_4 C 0.1207(2) 0.4779(3) 0.8419(5)
H5_4 H 0.1082 0.4528 0.7737
C11_4 C 0.0760(2) 0.5212(3) 0.8772(4)
C12_4 C 0.0969(2) 0.5562(3) 0.9770(4)
C14_4 C 0.0060(2) 0.5272(3) 0.8118(5)
N4_2 N 0.79632(15) 0.5034(2) 0.4952(3)
C21_4 C 0.62084(17) 0.3521(2) 0.6922(3)
O9_4 O 0.72443(13) 0.40559(18) 0.7518(2)
C22_4 C 0.6256(2) 0.3294(2) 0.5854(4)
O10_4 O 0.65903(13) 0.43428(16) 0.5041(3)
C23_4 C 0.5885(3) 0.2708(3) 0.5349(4)
H16_4 H 0.5924 0.2543 0.4642
C24_4 C 0.5458(2) 0.2368(3) 0.5898(5)
H17_4 H 0.5210 0.1977 0.5557
O11_4 O 0.7090(2) 0.3331(2) 0.4835(4)
C25_4 C 0.54007(18) 0.2609(2) 0.6940(4)
C26_4 C 0.57768(18) 0.3177(2) 0.7465(4)
H18_4 H 0.5742 0.3332 0.8181
C27_4 C 0.66763(18) 0.4059(2) 0.7582(3)
C28_4 C 0.6678(2) 0.3669(3) 0.5184(4)
H23_4 H 0.0119 0.5716 0.6650
H24_4 H 0.0182 0.4873 0.6658
H8_4 H 0.9881 0.5716 0.8350
H9_4 H 0.9818 0.4873 0.8342
C29_4 C 0.8168(2) 0.4713(3) 0.5946(4)
H19_4 H 0.7875 0.4430 0.6225
C30_4 C 0.8793(2) 0.4779(3) 0.6581(5)
H20_4 H 0.8918 0.4528 0.7263
C31_4 C 0.9240(2) 0.5212(3) 0.6228(4)
C32_4 C 0.9031(2) 0.5562(3) 0.5230(4)
H21_4 H 0.9312 0.5868 0.4960
C33_4 C 0.83904(19) 0.5462(2) 0.4604(4)
H22_4 H 0.8255 0.5705 0.3916
C34_4 C 0.9940(2) 0.5272(3) 0.6882(5)
loop_
_geom_bond_atom_site_label_1
_geom_bond_atom_site_label_2
_geom_bond_site_symmetry_1
_geom_bond_site_symmetry_2
O1 C7 1_555 1_555
C1 C2 1_555 1_555
O2 C7 1_555 1_555
C2 C3 1_555 1_555
C4 C3 1_555 1_555
H2 C4 1_555 1_555
O5 C5 1_555 1_555
C5 C4 1_555 1_555
C6 C1 1_555 1_555
H3 C6 1_555 1_555
C7 C1 1_555 1_555
C8 C2 1_555 1_555
C9 H4 1_555 1_555
C10 C9 1_555 1_555
H5 C10 1_555 1_555
C29 H19 1_555 1_555
C30 C29 1_555 1_555
H20 C30 1_555 1_555
O3 C8 1_555 1_555
C5 C6 1_555 1_555
N2 Zn1 1_555 1_555
C15 N2 1_555 1_555
H10 C15 1_555 1_555
C16 C15 1_555 1_555
H11 C16 1_555 1_555
C17 C16 1_555 1_555
C18 C17 1_555 1_555
H12 C18 1_555 1_555
C19 N2 1_555 1_555
H13 C19 1_555 1_555
C20 C17 1_555 1_555
H14 C20 1_555 1_555
H15 C20 1_555 1_555
Zn6 N5 1_555 1_555
N5 C35 1_555 1_555
C35 H25 1_555 1_555
C36 C35 1_555 1_555
H26 C36 1_555 1_555
C37 C36 1_555 1_555
C38 C37 1_555 1_555
H27 C38 1_555 1_555
C39 N5 1_555 1_555
H28 C39 1_555 1_555
C40 C20 1_555 1_555
H29 C40 1_555 1_555
H30 C40 1_555 1_555
C18 C19 1_555 1_555
C37 C40 1_555 1_555
C38 C39 1_555 1_555
C12 C11 1_555 1_555
C14 C11 1_555 1_555
H8 C14 1_555 1_555
C32 C31 1_555 1_555
H21 C32 1_555 1_555
C33 N3 1_555 1_555
H22 C33 1_555 1_555
C34 C14 1_555 1_555
H23 C34 1_555 1_555
C31 C34 1_555 1_555
C32 C33 1_555 1_555
C13 N1 1_555 1_555
H7 C13 1_555 1_555
O6 C27 1_555 1_555
C21 C22 1_555 1_555
O9 C27 1_555 1_555
N6 Zn3 1_555 1_555
C22 C23 1_555 1_555
O10 Zn3 1_555 1_555
C23 H16 1_555 1_555
C24 C23 1_555 1_555
H17 C24 1_555 1_555
O11 C28 1_555 1_555
C25 O5_2 1_555 1_555
C26 C21 1_555 1_555
H18 C26 1_555 1_555
C27 C21 1_555 1_555
C28 C22 1_555 1_555
O10 C28 1_555 1_555
C24 C25 1_555 1_555
C25 C26 1_555 1_555
Zn6_2 N5_2 1_555 1_555
N5_2 C35_2 1_555 1_555
C35_2 H25_2 1_555 1_555
C36_2 C35_2 1_555 1_555
H26_2 C36_2 1_555 1_555
C37_2 C36_2 1_555 1_555
C38_2 C37_2 1_555 1_555
H27_2 C38_2 1_555 1_555
C39_2 N5_2 1_555 1_555
H28_2 C39_2 1_555 1_555
H29_2 C40_2 1_555 1_555
C37_2 C40_2 1_555 1_555
C38_2 C39_2 1_555 1_555
C15_2 N6 1_555 1_555
H10_2 C15_2 1_555 1_555
C16_2 C15_2 1_555 1_555
H11_2 C16_2 1_555 1_555
C17_2 C16_2 1_555 1_555
C18_2 C17_2 1_555 1_555
H12_2 C18_2 1_555 1_555
C19_2 N6 1_555 1_555
H13_2 C19_2 1_555 1_555
C20_2 C17_2 1_555 1_555
H14_2 C20_2 1_555 1_555
C18_2 C19_2 1_555 1_555
Zn3_2 N3_2 1_555 1_555
N3_2 C29_2 1_555 1_555
C29_2 H19_2 1_555 1_555
C30_2 C29_2 1_555 1_555
H20_2 C30_2 1_555 1_555
C31_2 C30_2 1_555 1_555
C32_2 C31_2 1_555 1_555
H21_2 C32_2 1_555 1_555
C33_2 N3_2 1_555 1_555
H22_2 C33_2 1_555 1_555
C31_2 C34_2 1_555 1_555
C32_2 C33_2 1_555 1_555
O1_2 C7_2 1_555 1_555
C1_2 C2_2 1_555 1_555
O2_2 C7_2 1_555 1_555
C2_2 C3_2 1_555 1_555
C4_2 C3_2 1_555 1_555
H2_2 C4_2 1_555 1_555
O5_3 C5_2 1_555 1_555
C5_2 C4_2 1_555 1_555
C6_2 C1_2 1_555 1_555
H3_2 C6_2 1_555 1_555
C7_2 C1_2 1_555 1_555
C8_2 C2_2 1_555 1_555
C9_2 H4_2 1_555 1_555
C10_2 C9_2 1_555 1_555
H5_2 C10_2 1_555 1_555
C11_2 C10_2 1_555 1_555
C12_2 C11_2 1_555 1_555
C14_2 C11_2 1_555 1_555
Zn3_2 O7_2 1_555 1_555
Zn6 O6_2 1_555 1_555
Zn6_2 O1_2 1_555 1_555
O6_2 C27_2 1_555 1_555
C21_2 C22_2 1_555 1_555
O9_2 C27_2 1_555 1_555
N6_2 Zn3_2 1_555 1_555
C22_2 C23_2 1_555 1_555
O10_2 Zn3_2 1_555 1_555
C23_2 H16_2 1_555 1_555
C24_2 C23_2 1_555 1_555
H17_2 C24_2 1_555 1_555
O11_2 C28_2 1_555 1_555
C25_2 O5_3 1_555 1_555
C26_2 C21_2 1_555 1_555
H18_2 C26_2 1_555 1_555
C27_2 C21_2 1_555 1_555
C28_2 C22_2 1_555 1_555
O3_2 C8_2 1_555 1_555
C5_2 C6_2 1_555 1_555
O10_2 C28_2 1_555 1_555
C24_2 C25_2 1_555 1_555
C25_2 C26_2 1_555 1_555
Zn1_2 N1_2 1_555 1_555
N2_2 Zn1_2 1_555 1_555
C13_2 N1_2 1_555 1_555
H7_2 C13_2 1_555 1_555
C15_3 N2_2 1_555 1_555
H10_3 C15_3 1_555 1_555
C16_3 C15_3 1_555 1_555
H11_3 C16_3 1_555 1_555
C17_3 C16_3 1_555 1_555
C18_3 C17_3 1_555 1_555
H12_3 C18_3 1_555 1_555
C19_3 N2_2 1_555 1_555
H13_3 C19_3 1_555 1_555
C20_3 C17_3 1_555 1_555
H14_3 C20_3 1_555 1_555
H15_3 C20_3 1_555 1_555
Zn4 N5_3 1_555 1_555
O8_2 Zn1_2 1_555 1_555
N5_3 C35_3 1_555 1_555
C35_3 H25_3 1_555 1_555
C36_3 C35_3 1_555 1_555
H26_3 C36_3 1_555 1_555
C37_3 C36_3 1_555 1_555
C38_3 C37_3 1_555 1_555
H27_3 C38_3 1_555 1_555
C39_3 N5_3 1_555 1_555
H28_3 C39_3 1_555 1_555
C40_3 C20_3 1_555 1_555
H29_3 C40_3 1_555 1_555
H30_3 C40_3 1_555 1_555
C18_3 C19_3 1_555 1_555
C37_3 C40_3 1_555 1_555
C38_3 C39_3 1_555 1_555
Zn5 N5_4 1_555 1_555
N5_4 C35_4 1_555 1_555
C35_4 H25_4 1_555 1_555
C36_4 C35_4 1_555 1_555
H26_4 C36_4 1_555 1_555
C37_4 C36_4 1_555 1_555
C38_4 C37_4 1_555 1_555
H27_4 C38_4 1_555 1_555
C39_4 N5_4 1_555 1_555
H28_4 C39_4 1_555 1_555
H29_4 C40_4 1_555 1_555
C37_4 C40_4 1_555 1_555
C38_4 C39_4 1_555 1_555
C15_4 N6_2 1_555 1_555
H10_4 C15_4 1_555 1_555
C16_4 C15_4 1_555 1_555
H11_4 C16_4 1_555 1_555
C17_4 C16_4 1_555 1_555
C18_4 C17_4 1_555 1_555
H12_4 C18_4 1_555 1_555
C19_4 N6_2 1_555 1_555
H13_4 C19_4 1_555 1_555
C20_4 C17_4 1_555 1_555
H14_4 C20_4 1_555 1_555
C18_4 C19_4 1_555 1_555
O8 C27_3 1_555 1_555
C21_3 C22_3 1_555 1_555
O9_3 C27_3 1_555 1_555
C22_3 C23_3 1_555 1_555
O10_3 Zn5 1_555 1_555
C23_3 H16_3 1_555 1_555
C24_3 C23_3 1_555 1_555
H17_3 C24_3 1_555 1_555
O11_3 C28_3 1_555 1_555
C25_3 O5_4 1_555 1_555
C26_3 C21_3 1_555 1_555
H18_3 C26_3 1_555 1_555
C27_3 C21_3 1_555 1_555
C28_3 C22_3 1_555 1_555
O10_3 C28_3 1_555 1_555
C24_3 C25_3 1_555 1_555
C25_3 C26_3 1_555 1_555
C13_3 N1_3 1_555 1_555
H7_3 C13_3 1_555 1_555
C12_3 C11_3 1_555 1_555
C14_3 C11_3 1_555 1_555
H8_3 C14_3 1_555 1_555
C32_3 C31_3 1_555 1_555
H21_3 C32_3 1_555 1_555
C33_3 N4 1_555 1_555
H22_3 C33_3 1_555 1_555
C34_3 C14_3 1_555 1_555
H23_3 C34_3 1_555 1_555
C31_3 C34_3 1_555 1_555
C32_3 C33_3 1_555 1_555
O7 C7_3 1_555 1_555
C1_3 C2_3 1_555 1_555
O2_3 C7_3 1_555 1_555
C2_3 C3_3 1_555 1_555
C4_3 C3_3 1_555 1_555
H2_3 C4_3 1_555 1_555
O5_5 C5_3 1_555 1_555
C5_3 C4_3 1_555 1_555
C6_3 C1_3 1_555 1_555
H3_3 C6_3 1_555 1_555
C7_3 C1_3 1_555 1_555
C8_3 C2_3 1_555 1_555
C9_3 H4_3 1_555 1_555
C10_3 C9_3 1_555 1_555
H5_3 C10_3 1_555 1_555
C29_3 H19_3 1_555 1_555
C30_3 C29_3 1_555 1_555
H20_3 C30_3 1_555 1_555
O3_3 C8_3 1_555 1_555
C5_3 C6_3 1_555 1_555
Zn6 N1_4 1_555 1_555
C13_4 N1_4 1_555 1_555
H7_4 C13_4 1_555 1_555
O7_2 C7_4 1_555 1_555
C1_4 C2_4 1_555 1_555
O2_4 C7_4 1_555 1_555
C2_4 C3_4 1_555 1_555
C4_4 C3_4 1_555 1_555
H2_4 C4_4 1_555 1_555
O5_6 C5_4 1_555 1_555
C5_4 C4_4 1_555 1_555
C6_4 C1_4 1_555 1_555
H3_4 C6_4 1_555 1_555
C7_4 C1_4 1_555 1_555
C8_4 C2_4 1_555 1_555
C9_4 H4_4 1_555 1_555
C10_4 C9_4 1_555 1_555
H5_4 C10_4 1_555 1_555
C11_4 C10_4 1_555 1_555
C12_4 C11_4 1_555 1_555
C14_4 C11_4 1_555 1_555
O8_2 C27_4 1_555 1_555
N4_2 Zn6_2 1_555 1_555
C21_4 C22_4 1_555 1_555
O9_4 C27_4 1_555 1_555
C22_4 C23_4 1_555 1_555
O10_4 Zn6_2 1_555 1_555
C23_4 H16_4 1_555 1_555
C24_4 C23_4 1_555 1_555
H17_4 C24_4 1_555 1_555
O11_4 C28_4 1_555 1_555
C25_4 O5_6 1_555 1_555
C26_4 C21_4 1_555 1_555
H18_4 C26_4 1_555 1_555
C27_4 C21_4 1_555 1_555
C28_4 C22_4 1_555 1_555
O3_4 C8_4 1_555 1_555
C5_4 C6_4 1_555 1_555
O10_4 C28_4 1_555 1_555
C24_4 C25_4 1_555 1_555
C25_4 C26_4 1_555 1_555
N4_2 C29_4 1_555 1_555
C29_4 H19_4 1_555 1_555
C30_4 C29_4 1_555 1_555
H20_4 C30_4 1_555 1_555
C31_4 C30_4 1_555 1_555
C32_4 C31_4 1_555 1_555
H21_4 C32_4 1_555 1_555
C33_4 N4_2 1_555 1_555
H22_4 C33_4 1_555 1_555
C31_4 C34_4 1_555 1_555
C32_4 C33_4 1_555 1_555

#END
