
###############################################################################
#
# This file contains modified crystal structure data generated from the
# MOF subset of the Cambridge Structural Database (CSD) v543 
# hosted by the Cambridge Crystallographic Data Centre (CCDC).
#
# This work is licensed under the Creative Commons
# Attribution-NonCommercial-ShareAlike 4.0 International License.
# To view a copy of this license, visit
# http://creativecommons.org/licenses/by-nc-sa/4.0/
# or send a letter to
# Creative Commons, PO Box 1866, Mountain View, CA 94042, USA.
#
# CIF created using the CSD Python API on 29 September 2022
# The structure has been converted into the P1 space group
# The structure has a 3D framework
# The original CSD entry YARKAF is in the triclinic crystal system
# The framework has been calculated to contain at least 10.0% void space
# The void calculation uses a probe of radius 1.32A, grid spacing 0.4
#
###############################################################################

data_YARKAF
_chemical_formula_moiety         '(C136 H104 N12 O37 Zn8)n'
_symmetry_cell_setting           triclinic
_symmetry_space_group_name_H-M   'P 1'
_symmetry_Int_Tables_number      1
_space_group_name_Hall           'P 1'
loop_
_symmetry_equiv_pos_site_id
_symmetry_equiv_pos_as_xyz
1 x,y,z
_cell_length_a                   13.8606(4)
_cell_length_b                   16.9142(5)
_cell_length_c                   18.1588(5)
_cell_angle_alpha                112.895(3)
_cell_angle_beta                 96.840(2)
_cell_angle_gamma                101.840(2)
_cell_volume                     3743.76
loop_
_atom_site_label
_atom_site_type_symbol
_atom_site_fract_x
_atom_site_fract_y
_atom_site_fract_z
_atom_site_U_iso_or_equiv
_atom_site_thermal_displace_type
H95 H 0.0183 0.1110 0.6798 0.0700 Uiso
H96 H 0.0155 0.1090 0.5534 0.0560 Uiso
Zn9 Zn 0.82146(5) 0.14901(4) 0.15318(4) 0.0265 Uani
C125 C 0.8157(6) 0.2173(5) 0.0254(4) 0.0513 Uani
H89 H 0.7841 0.2553 0.0599 0.0610 Uiso
C129 C 0.8977(5) 0.1095(5) 0.0001(4) 0.0472 Uani
H92 H 0.9226 0.0701 0.0157 0.0560 Uiso
N12 N 0.8508(4) 0.1617(3) 0.0494(3) 0.0335 Uani
Zn3 Zn 0.85881(5) 0.07231(5) 0.40150(4) 0.0344 Uani
O2 O 0.8213(4) 0.1874(3) 0.4235(3) 0.0483 Uani
H49 H 0.8632 0.2299 0.4648 0.0720 Uiso
H50 H 0.8070 0.2121 0.3924 0.0720 Uiso
C126 C 0.8237(7) 0.2215(5) 0.9528(5) 0.0584 Uani
H90 H 0.7969 0.2610 0.9384 0.0700 Uiso
C127 C 0.8718(6) 0.1666(4) 0.9002(4) 0.0442 Uani
C128 C 0.9110(6) 0.1113(5) 0.9258(4) 0.0555 Uani
H91 H 0.9463 0.0752 0.8939 0.0660 Uiso
C130 C 0.7817(6) 0.0667(6) 0.5406(5) 0.0629 Uani
H93 H 0.7215 0.0571 0.5056 0.0760 Uiso
C131 C 0.7802(7) 0.0683(6) 0.6166(5) 0.0725 Uani
H94 H 0.7189 0.0595 0.6323 0.0870 Uiso
C132 C 0.8676(8) 0.0827(5) 0.6698(5) 0.0649 Uani
C133 C 0.9569(7) 0.0989(5) 0.6450(4) 0.0587 Uani
C134 C 0.9546(6) 0.0970(5) 0.5689(4) 0.0471 Uani
C135 C 0.8803(8) 0.1671(5) 0.8186(4) 0.0723 Uani
H97 H 0.8296 0.1929 0.8029 0.0870 Uiso
H98 H 0.9461 0.2055 0.8247 0.0870 Uiso
C136 C 0.8682(9) 0.0803(6) 0.7530(5) 0.0858 Uani
H99 H 0.8052 0.0401 0.7498 0.1030 Uiso
H100 H 0.9228 0.0567 0.7658 0.1030 Uiso
N14 N 0.8695(4) 0.0788(4) 0.5161(3) 0.0424 Uani
O41 O 0.9540(3) 0.0712(3) 0.3306(2) 0.0402 Uani
C1 C 0.1182(4) 0.6429(4) 0.3297(3) 0.0286 Uani
C2 C 0.1057(4) 0.6268(4) 0.2472(3) 0.0257 Uani
C3 C 0.1892(4) 0.6261(4) 0.2103(4) 0.0322 Uani
H1 H 0.1809 0.6145 0.1551 0.0390 Uiso
C4 C 0.2828(4) 0.6426(4) 0.2563(4) 0.0400 Uani
C5 C 0.2979(5) 0.6598(5) 0.3375(4) 0.0567 Uani
H2 H 0.3625 0.6721 0.3678 0.0680 Uiso
C6 C 0.2159(5) 0.6586(5) 0.3737(4) 0.0502 Uani
H3 H 0.2255 0.6685 0.4285 0.0600 Uiso
C7 C 0.0324(4) 0.6353(4) 0.3707(3) 0.0295 Uani
C8 C 0.0063(4) 0.6138(4) 0.1944(4) 0.0296 Uani
C9 C 0.6291(4) 0.8395(4) 0.2998(4) 0.0363 Uani
C10 C 0.6267(4) 0.7519(4) 0.2586(3) 0.0276 Uani
C11 C 0.5371(4) 0.6849(4) 0.2329(3) 0.0328 Uani
H4 H 0.5368 0.6257 0.2049 0.0390 Uiso
C12 C 0.4488(4) 0.7056(4) 0.2484(4) 0.0390 Uani
C13 C 0.4488(5) 0.7934(5) 0.2907(5) 0.0538 Uani
H5 H 0.3891 0.8076 0.3015 0.0650 Uiso
C14 C 0.5380(5) 0.8596(4) 0.3165(4) 0.0489 Uani
H6 H 0.5384 0.9187 0.3455 0.0580 Uiso
C15 C 0.7264(5) 0.9124(4) 0.3315(4) 0.0417 Uani
C16 C 0.7183(4) 0.7223(4) 0.2348(3) 0.0301 Uani
O4 O 0.0447(3) 0.6787(3) 0.4449(3) 0.0522 Uani
O7 O 0.7213(3) 0.9916(3) 0.3438(3) 0.0453 Uani
O8 O 0.8068(3) 0.8959(3) 0.3447(3) 0.0658 Uani
O9 O 0.7580(3) 0.6822(3) 0.2689(3) 0.0452 Uani
O10 O 0.7447(3) 0.7309(3) 0.1734(3) 0.0386 Uani
O11 O 0.3618(3) 0.6360(3) 0.2158(3) 0.0598 Uani
Zn6 Zn 0.83887(5) 0.65338(4) 0.14821(4) 0.0269 Uani
H19 H 0.0294 0.6024 0.6621 0.0980 Uiso
H20 H 0.0147 0.6004 0.5345 0.0930 Uiso
C33 C 0.8253(6) 0.7211(5) 0.0182(4) 0.0493 Uani
H13 H 0.7915 0.7575 0.0517 0.0590 Uiso
H16 H 0.9448 0.5817 0.0126 0.0520 Uiso
C45 C 0.7404(7) 0.4768(5) 0.1377(5) 0.0760 Uani
H25 H 0.7858 0.4986 0.1876 0.0910 Uiso
C46 C 0.6752(7) 0.3924(6) 0.1078(5) 0.0795 Uani
H26 H 0.6764 0.3599 0.1389 0.0950 Uiso
C47 C 0.6112(8) 0.3566(6) 0.0360(6) 0.0842 Uani
C49 C 0.6793(7) 0.4946(6) 0.0268(5) 0.0804 Uani
H31 H 0.4442 0.1148 0.0482 0.1000 Uiso
H34 H 0.5846 0.2180 0.0150 0.1040 Uiso
H36 H 0.4533 0.2756 0.0558 0.1040 Uiso
N1 N 0.8663(4) 0.6678(3) 0.0440(3) 0.0332 Uani
N3 N 0.7411(6) 0.5282(4) 0.0984(4) 0.0749 Uani
O1 O 0.9484(3) 0.5801(3) 0.3266(2) 0.0348 Uani
O5 O 0.9653(3) 0.6765(3) 0.2205(2) 0.0327 Uani
O6 O 0.9739(3) 0.5474(3) 0.1290(3) 0.0528 Uani
Zn14 Zn 0.85004(5) 0.58633(5) 0.39635(4) 0.0325 Uani
N9 N 0.8714(6) 0.5885(5) 0.5096(4) 0.0710 Uani
O24 O 0.8119(3) 0.7013(3) 0.4224(3) 0.0414 Uani
H103 H 0.7921 0.7057 0.3783 0.0620 Uiso
H104 H 0.8520 0.7480 0.4612 0.0620 Uiso
O36 O 0.7108(3) 0.5090(3) 0.3410(3) 0.0448 Uani
C34 C 0.8320(7) 0.7232(5) 0.9444(4) 0.0572 Uani
H14 H 0.8023 0.7603 0.9285 0.0690 Uiso
C35 C 0.8826(5) 0.6709(4) 0.8934(4) 0.0422 Uani
C36 C 0.9245(5) 0.6183(5) 0.9206(4) 0.0457 Uani
H15 H 0.9597 0.5822 0.8884 0.0550 Uiso
C37 C 0.9153(5) 0.6182(5) 0.9956(4) 0.0435 Uani
C38 C 0.7947(8) 0.5852(7) 0.5446(5) 0.0829 Uani
H17 H 0.7326 0.5822 0.5162 0.0990 Uiso
C39 C 0.8006(8) 0.5861(7) 0.6226(5) 0.0857 Uani
H18 H 0.7430 0.5835 0.6441 0.1030 Uiso
C40 C 0.8857(8) 0.5906(7) 0.6654(5) 0.0826 Uani
C41 C 0.9666(8) 0.5971(6) 0.6330(5) 0.0815 Uani
C42 C 0.9568(7) 0.5958(6) 0.5555(5) 0.0776 Uani
C43 C 0.8922(8) 0.6717(6) 0.8122(5) 0.0742 Uani
H21 H 0.8388 0.6938 0.7947 0.0890 Uiso
H22 H 0.9560 0.7137 0.8199 0.0890 Uiso
C44 C 0.8877(8) 0.5869(6) 0.7472(5) 0.0820 Uani
H23 H 0.8275 0.5428 0.7428 0.0980 Uiso
H24 H 0.9459 0.5678 0.7610 0.0980 Uiso
C48 C 0.6154(7) 0.4105(6) 0.9917(6) 0.0844 Uani
H27 H 0.5749 0.3884 0.9395 0.1010 Uiso
H28 H 0.6790 0.5299 0.9982 0.0960 Uiso
C50 C 0.2728(7) 0.0254(5) 0.8519(5) 0.0749 Uani
H29 H 0.2243 0.0033 0.8035 0.0900 Uiso
C51 C 0.3344(7) 0.1112(6) 0.8808(5) 0.0787 Uani
H30 H 0.3293 0.1442 0.8505 0.0940 Uiso
C52 C 0.4012(7) 0.1469(6) 0.9520(6) 0.0834 Uani
C53 C 0.4026(7) 0.0921(6) 0.9964(6) 0.0833 Uani
C54 C 0.3426(7) 0.0076(6) 0.9613(5) 0.0786 Uani
C55 C 0.5566(7) 0.2512(6) 0.9890(6) 0.0869 Uani
H33 H 0.5603 0.2273 0.9317 0.1040 Uiso
C56 C 0.4568(7) 0.2516(5) 0.9985(6) 0.0866 Uani
H35 H 0.4290 0.2849 0.9726 0.1040 Uiso
C85 C 0.6136(4) 0.3575(4) 0.2811(4) 0.0330 Uani
C86 C 0.6094(4) 0.2692(4) 0.2531(3) 0.0272 Uani
C87 C 0.5165(4) 0.2043(4) 0.2256(4) 0.0357 Uani
H59 H 0.5145 0.1443 0.2064 0.0430 Uiso
C88 C 0.4288(4) 0.2290(5) 0.2270(4) 0.0450 Uani
C89 C 0.4311(5) 0.3180(5) 0.2547(5) 0.0552 Uani
H60 H 0.3712 0.3348 0.2553 0.0670 Uiso
C90 C 0.5227(5) 0.3817(4) 0.2814(4) 0.0481 Uani
H61 H 0.5243 0.4416 0.3000 0.0580 Uiso
C91 C 0.7113(5) 0.4283(4) 0.3191(4) 0.0452 Uani
C92 C 0.7013(4) 0.2340(4) 0.2431(4) 0.0316 Uani
C93 C 0.1175(4) 0.1417(4) 0.3275(3) 0.0302 Uani
C94 C 0.0929(4) 0.1262(4) 0.2452(3) 0.0264 Uani
C95 C 0.1691(4) 0.1343(4) 0.2024(4) 0.0303 Uani
H62 H 0.1521 0.1219 0.1472 0.0370 Uiso
C96 C 0.2693(4) 0.1605(4) 0.2419(4) 0.0397 Uani
C97 C 0.2959(4) 0.1786(5) 0.3233(4) 0.0504 Uani
H63 H 0.3637 0.1979 0.3500 0.0600 Uiso
C98 C 0.2205(4) 0.1676(5) 0.3652(4) 0.0445 Uani
H64 H 0.2386 0.1778 0.4198 0.0530 Uiso
C99 C 0.0396(4) 0.1247(4) 0.3734(4) 0.0317 Uani
H84 H 0.6539 0.0283 0.0111 0.0950 Uiso
N11 N 0.7211(5) 0.0265(4) 0.1109(4) 0.0736 Uani
O37 O 0.7909(3) 0.4082(3) 0.3302(3) 0.0584 Uani
O38 O 0.7364(3) 0.2313(3) 0.1819(3) 0.0390 Uani
O39 O 0.7280(4) 0.1986(4) 0.2871(3) 0.0614 Uani
O43 O 0.0586(4) 0.1600(3) 0.4482(3) 0.0561 Uani
O45 O 0.9449(3) 0.1692(3) 0.2265(3) 0.0359 Uani
O47 O 0.3381(3) 0.1628(3) 0.1933(3) 0.0635 Uani
C100 C 0.9882(4) 0.1074(4) 0.1982(4) 0.0304 Uani
O46 O 0.9537(3) 0.0396(3) 0.1344(3) 0.0478 Uani
C32 C 0.0118(4) 0.8926(4) 0.8018(4) 0.0304 Uani
O16 O 0.0460(3) 0.9288(3) 0.6694(2) 0.0402 Uani
O18 O 0.0551(3) 0.8308(3) 0.7735(3) 0.0359 Uani
O19 O 0.0463(3) 0.9604(3) 0.8656(3) 0.0478 Uani
Zn8 Zn 0.17854(5) 0.85099(4) 0.84682(4) 0.0265 Uani
Zn12 Zn 0.14119(5) 0.92769(5) 0.59850(4) 0.0344 Uani
C58 C 0.1763(7) 0.7785(5) 0.0472(5) 0.0584 Uani
H38 H 0.2031 0.7390 0.0616 0.0700 Uiso
C59 C 0.1282(6) 0.8334(4) 0.0998(4) 0.0442 Uani
C60 C 0.0890(6) 0.8887(5) 0.0742(4) 0.0555 Uani
H39 H 0.0537 0.9248 0.1061 0.0660 Uiso
C62 C 0.2183(6) 0.9333(6) 0.4594(5) 0.0629 Uani
H41 H 0.2785 0.9429 0.4944 0.0760 Uiso
C63 C 0.2198(7) 0.9317(6) 0.3834(5) 0.0725 Uani
H42 H 0.2811 0.9405 0.3677 0.0870 Uiso
C64 C 0.1324(8) 0.9173(5) 0.3302(5) 0.0649 Uani
C65 C 0.0431(7) 0.9011(5) 0.3550(4) 0.0587 Uani
C66 C 0.0454(6) 0.9030(5) 0.4311(4) 0.0471 Uani
C67 C 0.1197(8) 0.8329(5) 0.1814(4) 0.0723 Uani
H45 H 0.1704 0.8071 0.1971 0.0870 Uiso
H46 H 0.0539 0.7945 0.1753 0.0870 Uiso
C68 C 0.1318(9) 0.9197(6) 0.2470(5) 0.0858 Uani
H47 H 0.1948 0.9599 0.2502 0.1030 Uiso
H48 H 0.0772 0.9433 0.2342 0.1030 Uiso
N6 N 0.1305(4) 0.9212(4) 0.4839(3) 0.0424 Uani
C17 C 0.3864(4) 0.6425(4) 0.7189(4) 0.0330 Uani
C18 C 0.3906(4) 0.7308(4) 0.7469(3) 0.0272 Uani
C19 C 0.4835(4) 0.7957(4) 0.7744(4) 0.0357 Uani
H7 H 0.4855 0.8557 0.7936 0.0430 Uiso
C20 C 0.5712(4) 0.7710(5) 0.7730(4) 0.0450 Uani
C21 C 0.5689(5) 0.6820(5) 0.7453(5) 0.0552 Uani
H8 H 0.6288 0.6652 0.7447 0.0670 Uiso
C22 C 0.4773(5) 0.6183(4) 0.7186(4) 0.0481 Uani
H9 H 0.4757 0.5584 0.7000 0.0580 Uiso
C23 C 0.2887(5) 0.5717(4) 0.6809(4) 0.0452 Uani
C24 C 0.2987(4) 0.7660(4) 0.7569(4) 0.0316 Uani
C25 C 0.8825(4) 0.8583(4) 0.6725(3) 0.0302 Uani
C26 C 0.9071(4) 0.8738(4) 0.7548(3) 0.0264 Uani
C27 C 0.8309(4) 0.8657(4) 0.7976(4) 0.0303 Uani
H10 H 0.8479 0.8781 0.8528 0.0370 Uiso
C28 C 0.7307(4) 0.8395(4) 0.7581(4) 0.0397 Uani
C29 C 0.7041(4) 0.8214(5) 0.6767(4) 0.0504 Uani
H11 H 0.6363 0.8021 0.6500 0.0600 Uiso
C30 C 0.7795(4) 0.8324(5) 0.6348(4) 0.0445 Uani
H12 H 0.7614 0.8222 0.5802 0.0530 Uiso
C31 C 0.9604(4) 0.8753(4) 0.6266(4) 0.0317 Uani
H32 H 0.3461 0.9717 0.9889 0.0950 Uiso
C57 C 0.1843(6) 0.7827(5) 0.9746(4) 0.0513 Uani
H37 H 0.2159 0.7447 0.9401 0.0610 Uiso
C61 C 0.1023(5) 0.8905(5) 0.9999(4) 0.0472 Uani
H40 H 0.0774 0.9299 0.9843 0.0560 Uiso
N4 N 0.2789(5) 0.9735(4) 0.8891(4) 0.0736 Uani
N5 N 0.1492(4) 0.8383(3) 0.9506(3) 0.0335 Uani
O12 O 0.2892(3) 0.4910(3) 0.6590(3) 0.0448 Uani
O13 O 0.2091(3) 0.5918(3) 0.6698(3) 0.0584 Uani
O14 O 0.2636(3) 0.7687(3) 0.8181(3) 0.0390 Uani
O15 O 0.2720(4) 0.8014(4) 0.7129(3) 0.0614 Uani
O17 O 0.9414(4) 0.8400(3) 0.5518(3) 0.0561 Uani
O20 O 0.6619(3) 0.8372(3) 0.8067(3) 0.0635 Uani
Zn15 Zn 0.14996(5) 0.41367(5) 0.60365(4) 0.0325 Uani
C102 C 0.1680(7) 0.2768(5) 0.0556(4) 0.0572 Uani
H66 H 0.1977 0.2397 0.0715 0.0690 Uiso
C103 C 0.1174(5) 0.3291(4) 0.1066(4) 0.0422 Uani
C104 C 0.0755(5) 0.3817(5) 0.0794(4) 0.0457 Uani
H67 H 0.0403 0.4178 0.1116 0.0550 Uiso
C105 C 0.0847(5) 0.3818(5) 0.0044(4) 0.0435 Uani
C106 C 0.2053(8) 0.4148(7) 0.4554(5) 0.0829 Uani
H69 H 0.2674 0.4178 0.4838 0.0990 Uiso
C107 C 0.1994(8) 0.4139(7) 0.3774(5) 0.0857 Uani
H70 H 0.2570 0.4165 0.3559 0.1030 Uiso
C108 C 0.1143(8) 0.4094(7) 0.3346(5) 0.0826 Uani
C109 C 0.0334(8) 0.4029(6) 0.3670(5) 0.0815 Uani
C110 C 0.0432(7) 0.4042(6) 0.4445(5) 0.0776 Uani
C111 C 0.1078(8) 0.3283(6) 0.1878(5) 0.0742 Uani
H73 H 0.1612 0.3062 0.2053 0.0890 Uiso
H74 H 0.0440 0.2863 0.1801 0.0890 Uiso
C112 C 0.1123(8) 0.4131(6) 0.2528(5) 0.0820 Uani
H75 H 0.1725 0.4572 0.2572 0.0980 Uiso
H76 H 0.0541 0.4322 0.2390 0.0980 Uiso
C116 C 0.3846(7) 0.5895(6) 0.0083(6) 0.0844 Uani
H79 H 0.4251 0.6116 0.0605 0.1010 Uiso
H80 H 0.3210 0.4701 0.0018 0.0960 Uiso
C118 C 0.7272(7) 0.9746(5) 0.1481(5) 0.0749 Uani
H81 H 0.7757 0.9967 0.1965 0.0900 Uiso
C119 C 0.6656(7) 0.8888(6) 0.1192(5) 0.0787 Uani
H82 H 0.6707 0.8558 0.1495 0.0940 Uiso
C120 C 0.5988(7) 0.8531(6) 0.0480(6) 0.0834 Uani
C121 C 0.5974(7) 0.9079(6) 0.0036(6) 0.0833 Uani
C122 C 0.6574(7) 0.9924(6) 0.0387(5) 0.0786 Uani
C123 C 0.4434(7) 0.7488(6) 0.0110(6) 0.0869 Uani
H85 H 0.4397 0.7727 0.0683 0.1040 Uiso
C124 C 0.5432(7) 0.7484(5) 0.0015(6) 0.0866 Uani
H87 H 0.5710 0.7151 0.0274 0.1040 Uiso
N8 N 0.1286(6) 0.4115(5) 0.4904(4) 0.0710 Uani
Zn5 Zn 0.16113(5) 0.34662(4) 0.85179(4) 0.0269 Uani
C101 C 0.1747(6) 0.2789(5) 0.9818(4) 0.0493 Uani
H65 H 0.2085 0.2425 0.9483 0.0590 Uiso
H68 H 0.0552 0.4183 0.9874 0.0520 Uiso
C113 C 0.2596(7) 0.5232(5) 0.8623(5) 0.0760 Uani
H77 H 0.2142 0.5014 0.8124 0.0910 Uiso
C114 C 0.3248(7) 0.6076(6) 0.8922(5) 0.0795 Uani
H78 H 0.3236 0.6401 0.8611 0.0950 Uiso
C115 C 0.3888(8) 0.6434(6) 0.9640(6) 0.0842 Uani
C117 C 0.3207(7) 0.5054(6) 0.9732(5) 0.0804 Uani
H83 H 0.5558 0.8852 0.9518 0.1000 Uiso
H86 H 0.4154 0.7820 0.9850 0.1040 Uiso
H88 H 0.5467 0.7244 0.9442 0.1040 Uiso
N7 N 0.1337(4) 0.3322(3) 0.9560(3) 0.0332 Uani
N10 N 0.2589(6) 0.4718(4) 0.9016(4) 0.0749 Uani
O21 O 0.0516(3) 0.4199(3) 0.6734(2) 0.0348 Uani
O26 O 0.0347(3) 0.3235(3) 0.7795(2) 0.0327 Uani
O27 O 0.0261(3) 0.4526(3) 0.8710(3) 0.0528 Uani
O32 O 0.2553(3) 0.2691(3) 0.8266(3) 0.0386 Uani
O3 O 0.1881(3) 0.2987(3) 0.5776(3) 0.0414 Uani
H51 H 0.2079 0.2943 0.6217 0.0620 Uiso
H52 H 0.1480 0.2520 0.5388 0.0620 Uiso
H71 H 0.9706 0.3976 0.3379 0.0980 Uiso
H72 H 0.9853 0.3996 0.4655 0.0930 Uiso
C69 C 0.8818(4) 0.3571(4) 0.6703(3) 0.0286 Uani
C70 C 0.8943(4) 0.3732(4) 0.7528(3) 0.0257 Uani
C71 C 0.8108(4) 0.3739(4) 0.7897(4) 0.0322 Uani
H53 H 0.8191 0.3855 0.8449 0.0390 Uiso
C72 C 0.7172(4) 0.3574(4) 0.7437(4) 0.0400 Uani
C73 C 0.7021(5) 0.3402(5) 0.6625(4) 0.0567 Uani
H54 H 0.6375 0.3279 0.6322 0.0680 Uiso
C74 C 0.7841(5) 0.3414(5) 0.6263(4) 0.0502 Uani
H55 H 0.7745 0.3315 0.5715 0.0600 Uiso
C75 C 0.9676(4) 0.3647(4) 0.6293(3) 0.0295 Uani
C76 C 0.9937(4) 0.3862(4) 0.8056(4) 0.0296 Uani
C77 C 0.3709(4) 0.1605(4) 0.7002(4) 0.0363 Uani
C78 C 0.3733(4) 0.2481(4) 0.7414(3) 0.0276 Uani
C79 C 0.4629(4) 0.3151(4) 0.7671(3) 0.0328 Uani
H56 H 0.4632 0.3743 0.7951 0.0390 Uiso
C80 C 0.5512(4) 0.2944(4) 0.7516(4) 0.0390 Uani
C81 C 0.5512(5) 0.2066(5) 0.7093(5) 0.0538 Uani
H57 H 0.6109 0.1924 0.6985 0.0650 Uiso
C82 C 0.4620(5) 0.1404(4) 0.6835(4) 0.0489 Uani
H58 H 0.4616 0.0813 0.6545 0.0580 Uiso
C83 C 0.2736(5) 0.0876(4) 0.6685(4) 0.0417 Uani
C84 C 0.2817(4) 0.2777(4) 0.7652(3) 0.0301 Uani
O25 O 0.9553(3) 0.3213(3) 0.5551(3) 0.0522 Uani
O28 O 0.2787(3) 0.0084(3) 0.6562(3) 0.0453 Uani
O29 O 0.1932(3) 0.1041(3) 0.6553(3) 0.0658 Uani
O30 O 0.2420(3) 0.3178(3) 0.7311(3) 0.0452 Uani
O33 O 0.6382(3) 0.3640(3) 0.7842(3) 0.0598 Uani
O23 O 0.1787(4) 0.8126(3) 0.5765(3) 0.0483 Uani
H101 H 0.1368 0.7701 0.5352 0.0720 Uiso
H102 H 0.1930 0.7879 0.6076 0.0720 Uiso
H43 H 0.9817 0.8890 0.3202 0.0700 Uiso
H44 H 0.9845 0.8910 0.4466 0.0560 Uiso
loop_
_atom_site_aniso_label
_atom_site_aniso_U_11
_atom_site_aniso_U_22
_atom_site_aniso_U_33
_atom_site_aniso_U_23
_atom_site_aniso_U_13
_atom_site_aniso_U_12
Zn9 0.0215 0.0305 0.0286 0.0128 0.0079 0.0073
C125 0.07 0.058 0.045 0.026 0.03 0.039
C129 0.067 0.058 0.032 0.024 0.022 0.033
N12 0.04 0.036 0.028 0.015 0.012 0.012
Zn3 0.0324 0.0407 0.0254 0.0142 0.0086 -0.0012
O2 0.056 0.042 0.037 0.016 -0.004 0.003
C126 0.092 0.056 0.05 0.034 0.03 0.036
C127 0.066 0.031 0.031 0.015 0.011 0
C128 0.077 0.06 0.034 0.015 0.027 0.03
C130 0.059 0.089 0.042 0.03 0.025 0.011
C131 0.087 0.088 0.049 0.032 0.039 0.018
C132 0.112 0.048 0.032 0.017 0.022 0.013
C133 0.085 0.061 0.033 0.023 0.01 0.022
C134 0.051 0.054 0.035 0.022 0.005 0.008
C135 0.128 0.053 0.04 0.025 0.03 0.016
C136 0.168 0.061 0.038 0.025 0.043 0.032
N14 0.052 0.045 0.029 0.017 0.011 0.007
O41 0.034 0.047 0.033 0.016 0.014 -0.004
C1 0.019 0.033 0.028 0.01 0.005 0.001
C2 0.018 0.028 0.035 0.018 0.009 0.003
C3 0.028 0.031 0.036 0.013 0.015 0.003
C4 0.017 0.044 0.048 0.01 0.012 0.002
C5 0.013 0.087 0.045 0.011 -0.005 0.003
C6 0.023 0.083 0.033 0.019 -0.001 0.006
C7 0.024 0.033 0.029 0.013 0.008 0.002
C8 0.026 0.039 0.032 0.023 0.011 0.007
C9 0.031 0.036 0.045 0.019 0.019 0.006
C10 0.019 0.037 0.029 0.016 0.009 0.006
C11 0.024 0.031 0.032 0.005 0.008 0
C12 0.018 0.044 0.04 0.007 0.011 -0.003
C13 0.025 0.057 0.076 0.02 0.023 0.014
C14 0.036 0.036 0.065 0.008 0.025 0.009
C15 0.042 0.04 0.029 0.004 0.018 -0.002
C16 0.021 0.032 0.032 0.011 0.007 0.001
O4 0.045 0.066 0.024 0.005 0.01 -0.002
O7 0.047 0.032 0.047 0.015 0.005 -0.003
O8 0.021 0.056 0.091 0.007 0.01 0
O9 0.039 0.064 0.044 0.029 0.01 0.025
O10 0.039 0.047 0.045 0.027 0.025 0.019
O11 0.023 0.061 0.059 -0.005 0.02 -0.008
Zn6 0.0236 0.0304 0.0283 0.0137 0.0084 0.0068
C33 0.072 0.057 0.048 0.033 0.036 0.043
C45 0.088 0.0599 0.065 0.0376 -0.0079 -0.0191
C46 0.09 0.0611 0.0686 0.0362 -0.0077 -0.0207
C47 0.092 0.065 0.0721 0.0345 -0.0113 -0.0208
C49 0.09 0.0653 0.066 0.0361 -0.0139 -0.0182
N1 0.038 0.037 0.03 0.018 0.013 0.011
N3 0.086 0.0609 0.063 0.0375 -0.01 -0.0178
O1 0.025 0.045 0.029 0.014 0.0109 -0.0008
O5 0.024 0.032 0.043 0.015 0.0073 0.0114
O6 0.046 0.056 0.039 0.004 -0.01 0.022
Zn14 0.0278 0.0408 0.027 0.0146 0.0109 0.0026
N9 0.082 0.108 0.051 0.053 0.029 0.037
O24 0.042 0.044 0.031 0.013 0.003 0.006
O36 0.0337 0.0324 0.059 0.0141 0.0084 0.0015
C34 0.093 0.062 0.054 0.042 0.036 0.052
C35 0.065 0.032 0.034 0.017 0.017 0.013
C36 0.062 0.053 0.031 0.018 0.022 0.027
C37 0.055 0.055 0.04 0.03 0.02 0.03
C38 0.089 0.123 0.054 0.048 0.031 0.035
C39 0.097 0.123 0.053 0.047 0.032 0.035
C40 0.104 0.11 0.052 0.046 0.029 0.037
C41 0.097 0.113 0.053 0.049 0.022 0.036
C42 0.088 0.112 0.054 0.051 0.024 0.035
C43 0.11 0.09 0.051 0.048 0.033 0.041
C44 0.112 0.1 0.053 0.043 0.031 0.04
C48 0.092 0.0673 0.0699 0.0346 -0.0145 -0.0197
C50 0.082 0.06 0.067 0.0373 -0.0118 -0.0173
C51 0.086 0.0611 0.07 0.0362 -0.0119 -0.0192
C52 0.089 0.0645 0.0728 0.034 -0.0147 -0.0194
C53 0.088 0.0664 0.071 0.0336 -0.0172 -0.0179
C54 0.084 0.0649 0.067 0.0355 -0.0167 -0.0164
C55 0.092 0.0662 0.0757 0.0325 -0.0115 -0.0208
C56 0.091 0.066 0.0758 0.0321 -0.0132 -0.0201
C85 0.023 0.039 0.038 0.016 0.013 0.008
C86 0.02 0.031 0.029 0.012 0.009 0.003
C87 0.029 0.034 0.034 0.007 0.012 0
C88 0.021 0.054 0.04 0.005 0.012 -0.004
C89 0.021 0.063 0.073 0.015 0.017 0.018
C90 0.029 0.04 0.067 0.013 0.012 0.011
C91 0.0316 0.0337 0.06 0.013 0.0093 0.0022
C92 0.024 0.03 0.039 0.015 0.004 0.005
C93 0.023 0.031 0.032 0.013 0.004 0
C94 0.019 0.028 0.035 0.016 0.009 0.005
C95 0.024 0.032 0.033 0.013 0.011 0.003
C96 0.018 0.041 0.046 0.006 0.014 0
C97 0.015 0.065 0.048 0.01 -0.003 -0.003
C98 0.023 0.063 0.033 0.013 -0.001 0.001
C99 0.03 0.026 0.031 0.009 0.007 -0.003
N11 0.08 0.0607 0.065 0.0369 -0.0131 -0.0158
O37 0.0297 0.043 0.076 0.003 0.0049 0.004
O38 0.036 0.044 0.05 0.025 0.025 0.019
O39 0.052 0.085 0.068 0.05 0.009 0.029
O43 0.06 0.06 0.025 0.008 0.009 -0.011
O45 0.024 0.04 0.045 0.018 0.0056 0.0127
O47 0.023 0.071 0.049 -0.01 0.016 -0.018
C100 0.02 0.044 0.035 0.025 0.01 0.006
O46 0.031 0.055 0.039 0.004 -0.004 0.013
C32 0.02 0.044 0.035 0.025 0.01 0.006
O16 0.034 0.047 0.033 0.016 0.014 -0.004
O18 0.024 0.04 0.045 0.018 0.0056 0.0127
O19 0.031 0.055 0.039 0.004 -0.004 0.013
Zn8 0.0215 0.0305 0.0286 0.0128 0.0079 0.0073
Zn12 0.0324 0.0407 0.0254 0.0142 0.0086 -0.0012
C58 0.092 0.056 0.05 0.034 0.03 0.036
C59 0.066 0.031 0.031 0.015 0.011 0
C60 0.077 0.06 0.034 0.015 0.027 0.03
C62 0.059 0.089 0.042 0.03 0.025 0.011
C63 0.087 0.088 0.049 0.032 0.039 0.018
C64 0.112 0.048 0.032 0.017 0.022 0.013
C65 0.085 0.061 0.033 0.023 0.01 0.022
C66 0.051 0.054 0.035 0.022 0.005 0.008
C67 0.128 0.053 0.04 0.025 0.03 0.016
C68 0.168 0.061 0.038 0.025 0.043 0.032
N6 0.052 0.045 0.029 0.017 0.011 0.007
C17 0.023 0.039 0.038 0.016 0.013 0.008
C18 0.02 0.031 0.029 0.012 0.009 0.003
C19 0.029 0.034 0.034 0.007 0.012 0
C20 0.021 0.054 0.04 0.005 0.012 -0.004
C21 0.021 0.063 0.073 0.015 0.017 0.018
C22 0.029 0.04 0.067 0.013 0.012 0.011
C23 0.0316 0.0337 0.06 0.013 0.0093 0.0022
C24 0.024 0.03 0.039 0.015 0.004 0.005
C25 0.023 0.031 0.032 0.013 0.004 0
C26 0.019 0.028 0.035 0.016 0.009 0.005
C27 0.024 0.032 0.033 0.013 0.011 0.003
C28 0.018 0.041 0.046 0.006 0.014 0
C29 0.015 0.065 0.048 0.01 -0.003 -0.003
C30 0.023 0.063 0.033 0.013 -0.001 0.001
C31 0.03 0.026 0.031 0.009 0.007 -0.003
C57 0.07 0.058 0.045 0.026 0.03 0.039
C61 0.067 0.058 0.032 0.024 0.022 0.033
N4 0.08 0.0607 0.065 0.0369 -0.0131 -0.0158
N5 0.04 0.036 0.028 0.015 0.012 0.012
O12 0.0337 0.0324 0.059 0.0141 0.0084 0.0015
O13 0.0297 0.043 0.076 0.003 0.0049 0.004
O14 0.036 0.044 0.05 0.025 0.025 0.019
O15 0.052 0.085 0.068 0.05 0.009 0.029
O17 0.06 0.06 0.025 0.008 0.009 -0.011
O20 0.023 0.071 0.049 -0.01 0.016 -0.018
Zn15 0.0278 0.0408 0.027 0.0146 0.0109 0.0026
C102 0.093 0.062 0.054 0.042 0.036 0.052
C103 0.065 0.032 0.034 0.017 0.017 0.013
C104 0.062 0.053 0.031 0.018 0.022 0.027
C105 0.055 0.055 0.04 0.03 0.02 0.03
C106 0.089 0.123 0.054 0.048 0.031 0.035
C107 0.097 0.123 0.053 0.047 0.032 0.035
C108 0.104 0.11 0.052 0.046 0.029 0.037
C109 0.097 0.113 0.053 0.049 0.022 0.036
C110 0.088 0.112 0.054 0.051 0.024 0.035
C111 0.11 0.09 0.051 0.048 0.033 0.041
C112 0.112 0.1 0.053 0.043 0.031 0.04
C116 0.092 0.0673 0.0699 0.0346 -0.0145 -0.0197
C118 0.082 0.06 0.067 0.0373 -0.0118 -0.0173
C119 0.086 0.0611 0.07 0.0362 -0.0119 -0.0192
C120 0.089 0.0645 0.0728 0.034 -0.0147 -0.0194
C121 0.088 0.0664 0.071 0.0336 -0.0172 -0.0179
C122 0.084 0.0649 0.067 0.0355 -0.0167 -0.0164
C123 0.092 0.0662 0.0757 0.0325 -0.0115 -0.0208
C124 0.091 0.066 0.0758 0.0321 -0.0132 -0.0201
N8 0.082 0.108 0.051 0.053 0.029 0.037
Zn5 0.0236 0.0304 0.0283 0.0137 0.0084 0.0068
C101 0.072 0.057 0.048 0.033 0.036 0.043
C113 0.088 0.0599 0.065 0.0376 -0.0079 -0.0191
C114 0.09 0.0611 0.0686 0.0362 -0.0077 -0.0207
C115 0.092 0.065 0.0721 0.0345 -0.0113 -0.0208
C117 0.09 0.0653 0.066 0.0361 -0.0139 -0.0182
N7 0.038 0.037 0.03 0.018 0.013 0.011
N10 0.086 0.0609 0.063 0.0375 -0.01 -0.0178
O21 0.025 0.045 0.029 0.014 0.0109 -0.0008
O26 0.024 0.032 0.043 0.015 0.0073 0.0114
O27 0.046 0.056 0.039 0.004 -0.01 0.022
O32 0.039 0.047 0.045 0.027 0.025 0.019
O3 0.042 0.044 0.031 0.013 0.003 0.006
C69 0.019 0.033 0.028 0.01 0.005 0.001
C70 0.018 0.028 0.035 0.018 0.009 0.003
C71 0.028 0.031 0.036 0.013 0.015 0.003
C72 0.017 0.044 0.048 0.01 0.012 0.002
C73 0.013 0.087 0.045 0.011 -0.005 0.003
C74 0.023 0.083 0.033 0.019 -0.001 0.006
C75 0.024 0.033 0.029 0.013 0.008 0.002
C76 0.026 0.039 0.032 0.023 0.011 0.007
C77 0.031 0.036 0.045 0.019 0.019 0.006
C78 0.019 0.037 0.029 0.016 0.009 0.006
C79 0.024 0.031 0.032 0.005 0.008 0
C80 0.018 0.044 0.04 0.007 0.011 -0.003
C81 0.025 0.057 0.076 0.02 0.023 0.014
C82 0.036 0.036 0.065 0.008 0.025 0.009
C83 0.042 0.04 0.029 0.004 0.018 -0.002
C84 0.021 0.032 0.032 0.011 0.007 0.001
O25 0.045 0.066 0.024 0.005 0.01 -0.002
O28 0.047 0.032 0.047 0.015 0.005 -0.003
O29 0.021 0.056 0.091 0.007 0.01 0
O30 0.039 0.064 0.044 0.029 0.01 0.025
O33 0.023 0.061 0.059 -0.005 0.02 -0.008
O23 0.056 0.042 0.037 0.016 -0.004 0.003
loop_
_geom_bond_atom_site_label_1
_geom_bond_atom_site_label_2
_geom_bond_site_symmetry_1
_geom_bond_site_symmetry_2
Zn9 N12 1_555 1_555
C125 H89 1_555 1_555
H92 C129 1_555 1_555
N12 C125 1_555 1_555
C129 N12 1_555 1_555
Zn3 O2 1_555 1_555
O2 H49 1_555 1_555
H50 O2 1_555 1_555
H90 C126 1_555 1_555
C127 C126 1_555 1_555
C128 C127 1_555 1_555
H91 C128 1_555 1_555
C130 H93 1_555 1_555
C131 C130 1_555 1_555
H94 C131 1_555 1_555
C132 C131 1_555 1_555
C133 C132 1_555 1_555
C134 C133 1_555 1_555
C135 C127 1_555 1_555
H97 C135 1_555 1_555
H98 C135 1_555 1_555
C136 C132 1_555 1_555
H99 C136 1_555 1_555
H100 C136 1_555 1_555
N14 Zn3 1_555 1_555
O41 Zn3 1_555 1_555
C130 N14 1_555 1_555
C134 N14 1_555 1_555
C135 C136 1_555 1_555
C1 C2 1_555 1_555
C2 C3 1_555 1_555
C3 H1 1_555 1_555
C4 C3 1_555 1_555
C5 C4 1_555 1_555
H2 C5 1_555 1_555
C6 C1 1_555 1_555
H3 C6 1_555 1_555
C7 C1 1_555 1_555
C8 C2 1_555 1_555
C9 C10 1_555 1_555
C10 C11 1_555 1_555
C11 H4 1_555 1_555
C12 C11 1_555 1_555
C13 C12 1_555 1_555
H5 C13 1_555 1_555
C14 C9 1_555 1_555
H6 C14 1_555 1_555
C15 C9 1_555 1_555
C16 C10 1_555 1_555
O4 C7 1_555 1_555
O8 C15 1_555 1_555
O9 C16 1_555 1_555
O10 C16 1_555 1_555
O11 C4 1_555 1_555
Zn6 O10 1_555 1_555
C5 C6 1_555 1_555
C12 O11 1_555 1_555
C13 C14 1_555 1_555
C15 O7 1_555 1_555
Zn6 N1 1_555 1_555
C33 H13 1_555 1_555
C45 H25 1_555 1_555
C46 C45 1_555 1_555
H26 C46 1_555 1_555
C47 C46 1_555 1_555
N1 C33 1_555 1_555
N3 Zn6 1_555 1_555
O5 Zn6 1_555 1_555
Zn14 O1 1_555 1_555
N9 Zn14 1_555 1_555
O24 Zn14 1_555 1_555
H103 O24 1_555 1_555
H104 O24 1_555 1_555
O36 Zn14 1_555 1_555
C45 N3 1_555 1_555
C49 N3 1_555 1_555
H14 C34 1_555 1_555
C35 C34 1_555 1_555
C36 C35 1_555 1_555
H15 C36 1_555 1_555
C37 C36 1_555 1_555
C38 H17 1_555 1_555
C39 C38 1_555 1_555
H18 C39 1_555 1_555
C40 C39 1_555 1_555
C41 C40 1_555 1_555
C42 C41 1_555 1_555
C43 C35 1_555 1_555
H21 C43 1_555 1_555
H22 C43 1_555 1_555
C44 C40 1_555 1_555
H23 C44 1_555 1_555
H24 C44 1_555 1_555
H27 C48 1_555 1_555
C50 H29 1_555 1_555
C51 C50 1_555 1_555
H30 C51 1_555 1_555
C52 C51 1_555 1_555
C53 C52 1_555 1_555
C54 C53 1_555 1_555
H33 C55 1_555 1_555
C56 C52 1_555 1_555
H35 C56 1_555 1_555
N9 C38 1_555 1_555
C42 N9 1_555 1_555
C43 C44 1_555 1_555
C55 C56 1_555 1_555
Zn9 N11 1_555 1_555
C85 C86 1_555 1_555
C86 C87 1_555 1_555
C87 H59 1_555 1_555
C88 C87 1_555 1_555
C89 C88 1_555 1_555
H60 C89 1_555 1_555
C90 C85 1_555 1_555
H61 C90 1_555 1_555
C91 C85 1_555 1_555
C92 C86 1_555 1_555
C93 C94 1_555 1_555
C94 C95 1_555 1_555
C95 H62 1_555 1_555
C96 C95 1_555 1_555
C97 C96 1_555 1_555
H63 C97 1_555 1_555
C98 C93 1_555 1_555
H64 C98 1_555 1_555
C99 C93 1_555 1_555
O36 C91 1_555 1_555
O37 C91 1_555 1_555
O38 Zn9 1_555 1_555
O39 C92 1_555 1_555
O43 C99 1_555 1_555
O45 Zn9 1_555 1_555
O47 C88 1_555 1_555
C89 C90 1_555 1_555
C92 O38 1_555 1_555
C96 O47 1_555 1_555
C97 C98 1_555 1_555
O46 C100 1_555 1_555
C100 O45 1_555 1_555
O18 C32 1_555 1_555
O19 C32 1_555 1_555
Zn8 O18 1_555 1_555
Zn12 O16 1_555 1_555
H38 C58 1_555 1_555
C59 C58 1_555 1_555
C60 C59 1_555 1_555
H39 C60 1_555 1_555
C62 H41 1_555 1_555
C63 C62 1_555 1_555
H42 C63 1_555 1_555
C64 C63 1_555 1_555
C65 C64 1_555 1_555
C66 C65 1_555 1_555
C67 C59 1_555 1_555
H45 C67 1_555 1_555
H46 C67 1_555 1_555
C68 C64 1_555 1_555
H47 C68 1_555 1_555
H48 C68 1_555 1_555
N6 C62 1_555 1_555
Zn12 N6 1_555 1_555
C66 N6 1_555 1_555
C67 C68 1_555 1_555
Zn8 N4 1_555 1_555
C17 C18 1_555 1_555
C18 C19 1_555 1_555
C19 H7 1_555 1_555
C20 C19 1_555 1_555
C21 C20 1_555 1_555
H8 C21 1_555 1_555
C22 C17 1_555 1_555
H9 C22 1_555 1_555
C23 C17 1_555 1_555
C24 C18 1_555 1_555
C25 C26 1_555 1_555
C26 C27 1_555 1_555
C27 H10 1_555 1_555
C28 C27 1_555 1_555
C29 C28 1_555 1_555
H11 C29 1_555 1_555
C30 C25 1_555 1_555
H12 C30 1_555 1_555
C31 C25 1_555 1_555
C57 H37 1_555 1_555
H40 C61 1_555 1_555
N5 Zn8 1_555 1_555
O12 C23 1_555 1_555
O13 C23 1_555 1_555
O14 Zn8 1_555 1_555
O15 C24 1_555 1_555
O17 C31 1_555 1_555
O20 C20 1_555 1_555
Zn15 O12 1_555 1_555
C21 C22 1_555 1_555
C24 O14 1_555 1_555
C28 O20 1_555 1_555
C29 C30 1_555 1_555
C57 N5 1_555 1_555
C61 N5 1_555 1_555
Zn15 N8 1_555 1_555
H66 C102 1_555 1_555
C103 C102 1_555 1_555
C104 C103 1_555 1_555
H67 C104 1_555 1_555
C105 C104 1_555 1_555
C106 H69 1_555 1_555
C107 C106 1_555 1_555
H70 C107 1_555 1_555
C108 C107 1_555 1_555
C109 C108 1_555 1_555
C110 C109 1_555 1_555
C111 C103 1_555 1_555
H73 C111 1_555 1_555
H74 C111 1_555 1_555
C112 C108 1_555 1_555
H75 C112 1_555 1_555
H76 C112 1_555 1_555
H79 C116 1_555 1_555
C118 H81 1_555 1_555
C119 C118 1_555 1_555
H82 C119 1_555 1_555
C120 C119 1_555 1_555
C121 C120 1_555 1_555
C122 C121 1_555 1_555
H85 C123 1_555 1_555
C124 C120 1_555 1_555
H87 C124 1_555 1_555
N8 C106 1_555 1_555
C110 N8 1_555 1_555
C111 C112 1_555 1_555
C123 C124 1_555 1_555
Zn5 N7 1_555 1_555
Zn15 O21 1_555 1_555
C101 H65 1_555 1_555
C113 H77 1_555 1_555
C114 C113 1_555 1_555
H78 C114 1_555 1_555
C115 C114 1_555 1_555
N7 C101 1_555 1_555
N10 Zn5 1_555 1_555
O26 Zn5 1_555 1_555
O32 Zn5 1_555 1_555
C113 N10 1_555 1_555
C117 N10 1_555 1_555
O3 Zn15 1_555 1_555
H51 O3 1_555 1_555
H52 O3 1_555 1_555
C69 C70 1_555 1_555
C70 C71 1_555 1_555
C71 H53 1_555 1_555
C72 C71 1_555 1_555
C73 C72 1_555 1_555
H54 C73 1_555 1_555
C74 C69 1_555 1_555
H55 C74 1_555 1_555
C75 C69 1_555 1_555
C76 C70 1_555 1_555
C77 C78 1_555 1_555
C78 C79 1_555 1_555
C79 H56 1_555 1_555
C80 C79 1_555 1_555
C81 C80 1_555 1_555
H57 C81 1_555 1_555
C82 C77 1_555 1_555
H58 C82 1_555 1_555
C83 C77 1_555 1_555
C84 C78 1_555 1_555
O25 C75 1_555 1_555
O29 C83 1_555 1_555
O30 C84 1_555 1_555
O33 C72 1_555 1_555
C73 C74 1_555 1_555
C80 O33 1_555 1_555
C81 C82 1_555 1_555
C83 O28 1_555 1_555
C84 O32 1_555 1_555
O23 Zn12 1_555 1_555
H101 O23 1_555 1_555
H102 O23 1_555 1_555

#END
