
###############################################################################
#
# This file contains modified crystal structure data generated from the
# MOF subset of the Cambridge Structural Database (CSD) v543 
# hosted by the Cambridge Crystallographic Data Centre (CCDC).
#
# This work is licensed under the Creative Commons
# Attribution-NonCommercial-ShareAlike 4.0 International License.
# To view a copy of this license, visit
# http://creativecommons.org/licenses/by-nc-sa/4.0/
# or send a letter to
# Creative Commons, PO Box 1866, Mountain View, CA 94042, USA.
#
# CIF created using the CSD Python API on 29 September 2022
# The structure has been converted into the P1 space group
# The structure has a 3D framework
# The original CSD entry YARVOG is in the orthorhombic crystal system
# The framework has been calculated to contain at least 10.0% void space
# The void calculation uses a probe of radius 1.32A, grid spacing 0.4
# The framework is charged, counterions have been retained in the structure
#
###############################################################################

data_YARVOG
_chemical_formula_moiety         '(C552 H448 N96 O68 Zn20 4+)n'
_symmetry_cell_setting           triclinic
_symmetry_space_group_name_H-M   'P 1'
_symmetry_Int_Tables_number      1
_space_group_name_Hall           'P 1'
loop_
_symmetry_equiv_pos_site_id
_symmetry_equiv_pos_as_xyz
1 x,y,z
_cell_length_a                   9.9878(11)
_cell_length_b                   42.445(5)
_cell_length_c                   42.607(4)
_cell_angle_alpha                90
_cell_angle_beta                 90
_cell_angle_gamma                90
_cell_volume                     18062.5
loop_
_atom_site_label
_atom_site_type_symbol
_atom_site_fract_x
_atom_site_fract_y
_atom_site_fract_z
H44 H 0.010164 0.341903 0.091444
Zn7 Zn 0.000000 0.250000 0.13051(2)
H19 H 0.027883 0.849369 0.664299
H20 H 0.003680 0.819582 0.645141
H70 H 0.038373 0.422846 0.924338
C118 C 0.0782(2) 0.39398(4) 0.86834(4)
H73 H 0.139623 0.406644 0.879767
C119 C 0.1243(2) 0.37162(4) 0.84782(4)
H74 H 0.218291 0.369195 0.845463
C120 C 0.0419(2) 0.35265(4) 0.83061(4)
C123 C 0.1007(2) 0.32941(4) 0.80777(4)
O16 O 0.22452(15) 0.32807(3) 0.80472(3)
O17 O 0.02188(13) 0.31167(3) 0.79334(3)
H79 H 0.027883 0.650631 0.835701
H80 H 0.003680 0.680418 0.854859
Zn9 Zn -0.000000 0.750000 0.63051(2)
Zn12 Zn 0.000000 0.750000 0.86949(2)
Zn13 Zn 0.12460(2) 0.28017(2) 0.77018(2)
C65 C 0.8505(2) 0.29249(5) 0.09482(4)
C66 C 0.8279(2) 0.32408(4) 0.08080(4)
C67 C 0.7107(2) 0.33120(4) 0.06653(5)
H41 H 0.638519 0.316634 0.066990
C68 C 0.6963(2) 0.36002(4) 0.05112(4)
H42 H 0.616043 0.364306 0.039931
C69 C 0.7984(2) 0.38282(4) 0.05186(4)
C70 C 0.9068(2) 0.37652(4) 0.06857(5)
H43 H 0.972069 0.392506 0.071692
C71 C 0.9270(2) 0.34666(4) 0.08173(4)
C72 C 0.7786(2) 0.41367(4) 0.03461(4)
C73 C 0.6977(2) 0.41589(4) 0.00840(4)
H45 H 0.649655 0.397821 0.001596
C75 C 0.7621(2) 0.47038(4) 0.00114(4)
C76 C 0.83875(18) 0.46802(4) 0.02856(4)
H47 H 0.883530 0.486063 0.036560
C77 C 0.8492(2) 0.44006(4) 0.04373(4)
H48 H 0.907304 0.438580 0.061312
O10 O 0.95503(14) 0.28881(2) 0.11033(3)
O11 O 0.76416(15) 0.27310(3) 0.09299(3)
C98 C 0.6495(2) 0.70751(5) 0.09482(4)
C99 C 0.6721(2) 0.67592(4) 0.08080(4)
C100 C 0.7893(2) 0.66880(4) 0.06653(5)
H61 H 0.861481 0.683366 0.066990
C101 C 0.8037(2) 0.63998(4) 0.05112(4)
H62 H 0.883957 0.635694 0.039931
C102 C 0.7016(2) 0.61718(4) 0.05186(4)
C103 C 0.5932(2) 0.62348(4) 0.06857(5)
H63 H 0.527931 0.607494 0.071692
C104 C 0.5730(2) 0.65334(4) 0.08173(4)
H64 H 0.489836 0.658097 0.091444
C105 C 0.7214(2) 0.58633(4) 0.03461(4)
C106 C 0.8023(2) 0.58411(4) 0.00840(4)
H65 H 0.850345 0.602179 0.001596
C108 C 0.7379(2) 0.52962(4) 0.00114(4)
C109 C 0.66125(18) 0.53198(4) 0.02856(4)
H67 H 0.616470 0.513937 0.036560
C110 C 0.6508(2) 0.55994(4) 0.04373(4)
H68 H 0.592696 0.561420 0.061312
O14 O 0.54497(14) 0.71119(2) 0.11033(3)
O15 O 0.73584(15) 0.72690(3) 0.09299(3)
Zn7_2 Zn 1.000000 0.250000 0.13051(2)
Zn8 Zn 0.500000 0.750000 0.13051(2)
C1 C 0.1495(2) 0.29249(5) 0.40518(4)
C2 C 0.1721(2) 0.32408(4) 0.41920(4)
C3 C 0.2893(2) 0.33120(4) 0.43347(5)
H1 H 0.361481 0.316634 0.433010
C4 C 0.3037(2) 0.36002(4) 0.44888(4)
H2 H 0.383957 0.364306 0.460069
C5 C 0.2016(2) 0.38282(4) 0.44814(4)
C6 C 0.0932(2) 0.37652(4) 0.43143(5)
H3 H 0.027931 0.392506 0.428308
C7 C 0.0730(2) 0.34666(4) 0.41827(4)
C8 C 0.2214(2) 0.41367(4) 0.46539(4)
C9 C 0.3023(2) 0.41589(4) 0.49160(4)
H5 H 0.350345 0.397821 0.498404
C10 C 0.31519(19) 0.44378(4) 0.50820(4)
H6 H 0.374661 0.445149 0.525552
C11 C 0.2379(2) 0.47038(4) 0.49886(4)
C12 C 0.16125(18) 0.46802(4) 0.47144(4)
H7 H 0.116470 0.486063 0.463440
C13 C 0.1508(2) 0.44006(4) 0.45627(4)
H8 H 0.092696 0.438580 0.438688
C14 C 0.250000 0.500000 0.51694(5)
C15 C 0.250000 0.500000 0.54856(6)
C16 C 0.2917(2) 0.52760(4) 0.56850(4)
C17 C 0.4147(2) 0.54364(4) 0.56167(4)
H9 H 0.466645 0.537713 0.543953
C18 C 0.4559(2) 0.56715(4) 0.58055(4)
H10 H 0.538373 0.577154 0.575662
C19 C 0.3870(2) 0.57767(4) 0.60632(4)
C20 C 0.2648(2) 0.56209(4) 0.61193(4)
H11 H 0.213129 0.568669 0.629461
C21 C 0.2153(2) 0.53806(4) 0.59380(4)
H12 H 0.130945 0.528785 0.598382
C22 C 0.4384(2) 0.60184(4) 0.62753(4)
C23 C 0.5782(2) 0.60602(4) 0.63166(4)
H13 H 0.639623 0.593356 0.620233
C24 C 0.6243(2) 0.62838(4) 0.65218(4)
H14 H 0.718291 0.630805 0.654537
C25 C 0.5419(2) 0.64735(4) 0.66939(4)
C26 C 0.4039(2) 0.64357(4) 0.66573(4)
H15 H 0.345167 0.656374 0.677778
C27 C 0.3500(2) 0.62191(4) 0.64525(4)
H16 H 0.255736 0.620229 0.642841
C28 C 0.6007(2) 0.67059(4) 0.69223(4)
C29 C 0.78289(19) 0.74180(4) 0.67417(4)
H17 H 0.763219 0.722828 0.663281
C30 C 0.8575(2) 0.78741(4) 0.68482(4)
C31 C 0.91805(19) 0.81819(4) 0.68663(4)
C32 C 0.8178(2) 0.82223(4) 0.73497(4)
H18 H 0.803032 0.835123 0.752867
C33 C 0.77725(19) 0.77751(4) 0.70917(4)
N1 N 0.73217(15) 0.74771(3) 0.70280(3)
N2 N 0.86041(15) 0.76334(3) 0.66206(3)
N3 N 0.89883(16) 0.83456(3) 0.71346(3)
N4 N 0.75379(15) 0.79458(3) 0.73541(3)
N5 N 0.99203(15) 0.83052(3) 0.66247(3)
O1 O 0.04497(14) 0.28881(2) 0.38967(3)
O2 O 0.23584(15) 0.27310(3) 0.40701(3)
O3 O 0.72452(15) 0.67193(3) 0.69528(3)
O4 O 0.52188(13) 0.68833(3) 0.70666(3)
O5 O 0.500000 0.750000 0.750000
Zn1 Zn -0.000000 0.250000 0.36949(2)
Zn2 Zn 0.62460(2) 0.71983(2) 0.72982(2)
C34 C 0.3505(2) 0.70751(5) 0.40518(4)
C35 C 0.3279(2) 0.67592(4) 0.41920(4)
C36 C 0.2107(2) 0.66880(4) 0.43347(5)
H21 H 0.138519 0.683366 0.433010
C37 C 0.1963(2) 0.63998(4) 0.44888(4)
H22 H 0.116043 0.635694 0.460069
C38 C 0.2984(2) 0.61718(4) 0.44814(4)
C39 C 0.4068(2) 0.62348(4) 0.43143(5)
H23 H 0.472069 0.607494 0.428308
C40 C 0.4270(2) 0.65334(4) 0.41827(4)
H24 H 0.510164 0.658097 0.408556
C41 C 0.2786(2) 0.58633(4) 0.46539(4)
C42 C 0.1977(2) 0.58411(4) 0.49160(4)
H25 H 0.149655 0.602179 0.498404
C43 C 0.18481(19) 0.55622(4) 0.50820(4)
H26 H 0.125339 0.554851 0.525552
C44 C 0.2621(2) 0.52962(4) 0.49886(4)
C45 C 0.33875(18) 0.53198(4) 0.47144(4)
H27 H 0.383530 0.513937 0.463440
C46 C 0.3492(2) 0.55994(4) 0.45627(4)
H28 H 0.407304 0.561420 0.438688
C47 C 0.2083(2) 0.47240(4) 0.56850(4)
C48 C 0.0853(2) 0.45636(4) 0.56167(4)
H29 H 0.033355 0.462287 0.543953
C49 C 0.0441(2) 0.43285(4) 0.58055(4)
C50 C 0.1130(2) 0.42233(4) 0.60632(4)
C51 C 0.2352(2) 0.43791(4) 0.61193(4)
H31 H 0.286871 0.431331 0.629461
C52 C 0.2847(2) 0.46194(4) 0.59380(4)
H32 H 0.369055 0.471215 0.598382
C53 C 0.0616(2) 0.39816(4) 0.62753(4)
C57 C 0.0961(2) 0.35643(4) 0.66573(4)
H35 H 0.154833 0.343626 0.677778
C58 C 0.1500(2) 0.37809(4) 0.64525(4)
H36 H 0.244264 0.379771 0.642841
O6 O 0.45503(14) 0.71119(2) 0.38967(3)
O7 O 0.26416(15) 0.72690(3) 0.40701(3)
Zn3 Zn 0.500000 0.750000 0.36949(2)
C74 C 0.68481(19) 0.44378(4) 0.99180(4)
H46 H 0.625339 0.445149 0.974448
C78 C 0.750000 0.500000 0.98306(5)
C79 C 0.750000 0.500000 0.95144(6)
C80 C 0.7083(2) 0.52760(4) 0.93150(4)
C81 C 0.5853(2) 0.54364(4) 0.93833(4)
H49 H 0.533355 0.537713 0.956047
C82 C 0.5441(2) 0.56715(4) 0.91945(4)
H50 H 0.461627 0.577154 0.924338
C83 C 0.6130(2) 0.57767(4) 0.89368(4)
C84 C 0.7352(2) 0.56209(4) 0.88807(4)
H51 H 0.786871 0.568669 0.870539
C85 C 0.7847(2) 0.53806(4) 0.90620(4)
H52 H 0.869055 0.528785 0.901618
C86 C 0.5616(2) 0.60184(4) 0.87247(4)
C87 C 0.4218(2) 0.60602(4) 0.86834(4)
H53 H 0.360377 0.593356 0.879767
C88 C 0.3757(2) 0.62838(4) 0.84782(4)
H54 H 0.281709 0.630805 0.845463
C89 C 0.4581(2) 0.64735(4) 0.83061(4)
C90 C 0.5961(2) 0.64357(4) 0.83427(4)
H55 H 0.654833 0.656374 0.822222
C91 C 0.6500(2) 0.62191(4) 0.85475(4)
H56 H 0.744264 0.620229 0.857159
C92 C 0.3993(2) 0.67059(4) 0.80777(4)
C93 C 0.21711(19) 0.74180(4) 0.82583(4)
H57 H 0.236781 0.722828 0.836719
C94 C 0.1425(2) 0.78741(4) 0.81518(4)
C95 C 0.08195(19) 0.81819(4) 0.81337(4)
C96 C 0.1822(2) 0.82223(4) 0.76503(4)
H58 H 0.196968 0.835123 0.747133
C97 C 0.22275(19) 0.77751(4) 0.79083(4)
N11 N 0.26783(15) 0.74771(3) 0.79720(3)
N12 N 0.13959(15) 0.76334(3) 0.83794(3)
N13 N 0.10117(16) 0.83456(3) 0.78654(3)
N14 N 0.24621(15) 0.79458(3) 0.76459(3)
N15 N 0.00797(15) 0.83052(3) 0.83753(3)
O12 O 0.27548(15) 0.67193(3) 0.80472(3)
O13 O 0.47812(13) 0.68833(3) 0.79334(3)
Zn5 Zn 0.37540(2) 0.71983(2) 0.77018(2)
C107 C 0.81519(19) 0.55622(4) 0.99180(4)
H66 H 0.874661 0.554851 0.974448
C111 C 0.7917(2) 0.47240(4) 0.93150(4)
C112 C 0.9147(2) 0.45636(4) 0.93833(4)
H69 H 0.966645 0.462287 0.956047
C113 C 0.9559(2) 0.43285(4) 0.91945(4)
C114 C 0.8870(2) 0.42233(4) 0.89368(4)
C115 C 0.7648(2) 0.43791(4) 0.88807(4)
H71 H 0.713129 0.431331 0.870539
C116 C 0.7153(2) 0.46194(4) 0.90620(4)
H72 H 0.630945 0.471215 0.901618
C117 C 0.9384(2) 0.39816(4) 0.87247(4)
C121 C 0.9039(2) 0.35643(4) 0.83427(4)
H75 H 0.845167 0.343626 0.822222
C122 C 0.8500(2) 0.37809(4) 0.85475(4)
H76 H 0.755736 0.379771 0.857159
C124 C 0.78289(19) 0.75820(4) 0.82583(4)
H77 H 0.763219 0.777172 0.836719
C125 C 0.8575(2) 0.71259(4) 0.81518(4)
C126 C 0.91805(19) 0.68181(4) 0.81337(4)
C127 C 0.8178(2) 0.67777(4) 0.76503(4)
H78 H 0.803032 0.664877 0.747133
C128 C 0.77725(19) 0.72249(4) 0.79083(4)
N16 N 0.73217(15) 0.75229(3) 0.79720(3)
N17 N 0.86041(15) 0.73666(3) 0.83794(3)
N18 N 0.89883(16) 0.66544(3) 0.78654(3)
N19 N 0.75379(15) 0.70542(3) 0.76459(3)
N20 N 0.99203(15) 0.66948(3) 0.83753(3)
Zn6 Zn 0.62460(2) 0.78017(2) 0.77018(2)
N21 N 0.13959(15) 0.23666(3) 0.33794(3)
N22 N 0.36041(15) 0.76334(3) 0.33794(3)
N23 N 0.63959(15) 0.73666(3) 0.33794(3)
N25 N 0.24621(15) 0.70542(3) 0.73541(3)
O18 O 0.54497(14) 0.78881(2) 0.38967(3)
O20 O 0.52188(13) 0.81167(3) 0.79334(3)
O21 O 0.000000 0.250000 0.750000
Zn9_2 Zn 1.000000 0.750000 0.63051(2)
Zn12_2 Zn 1.000000 0.750000 0.86949(2)
Zn14 Zn 0.37540(2) 0.78017(2) 0.72982(2)
H4 H 0.989836 0.341903 0.408556
Zn1_2 Zn 1.000000 0.250000 0.36949(2)
H30 H 0.961627 0.422846 0.575662
C54 C 0.9218(2) 0.39398(4) 0.63166(4)
H33 H 0.860377 0.406644 0.620233
C55 C 0.8757(2) 0.37162(4) 0.65218(4)
H34 H 0.781709 0.369195 0.654537
C56 C 0.9581(2) 0.35265(4) 0.66939(4)
C59 C 0.8993(2) 0.32941(4) 0.69223(4)
O8 O 0.77548(15) 0.32807(3) 0.69528(3)
O9 O 0.97812(13) 0.31167(3) 0.70666(3)
C60 C 0.71711(19) 0.25820(4) 0.67417(4)
H37 H 0.736781 0.277172 0.663281
C61 C 0.6425(2) 0.21259(4) 0.68482(4)
C62 C 0.58195(19) 0.18181(4) 0.68663(4)
C63 C 0.6822(2) 0.17777(4) 0.73497(4)
H38 H 0.696968 0.164877 0.752867
C64 C 0.72275(19) 0.22249(4) 0.70917(4)
N6 N 0.76783(15) 0.25229(3) 0.70280(3)
N7 N 0.63959(15) 0.23666(3) 0.66206(3)
N8 N 0.60117(16) 0.16544(3) 0.71346(3)
N9 N 0.74621(15) 0.20542(3) 0.73541(3)
N10 N 0.50797(15) 0.16948(3) 0.66247(3)
H39 H 0.472117 0.150631 0.664299
H40 H 0.496320 0.180418 0.645141
Zn4 Zn 0.87540(2) 0.28017(2) 0.72982(2)
H59 H 0.972117 0.849369 0.835701
H60 H 0.996320 0.819582 0.854859
N24 N 0.86041(15) 0.26334(3) 0.33794(3)
N26 N 0.74621(15) 0.29458(3) 0.76459(3)
O19 O 0.95503(14) 0.21119(2) 0.38967(3)
O21_2 O 1.000000 0.250000 0.750000
Zn10 Zn 0.500000 0.250000 0.63051(2)
Zn15 Zn 0.87540(2) 0.21983(2) 0.77018(2)
C93_2 C 0.28289(19) 0.25820(4) 0.82583(4)
H57_2 H 0.263219 0.277172 0.836719
C94_2 C 0.3575(2) 0.21259(4) 0.81518(4)
C95_2 C 0.41805(19) 0.18181(4) 0.81337(4)
C96_2 C 0.3178(2) 0.17777(4) 0.76503(4)
H58_2 H 0.303032 0.164877 0.747133
C97_2 C 0.27725(19) 0.22249(4) 0.79083(4)
N11_2 N 0.23217(15) 0.25229(3) 0.79720(3)
N12_2 N 0.36041(15) 0.23666(3) 0.83794(3)
N13_2 N 0.39883(16) 0.16544(3) 0.78654(3)
N14_2 N 0.25379(15) 0.20542(3) 0.76459(3)
N15_2 N 0.49203(15) 0.16948(3) 0.83753(3)
H59_2 H 0.527883 0.150631 0.835701
H60_2 H 0.503680 0.180418 0.854859
N25_2 N 0.25379(15) 0.29458(3) 0.73541(3)
Zn11 Zn 0.500000 0.250000 0.86949(2)
Zn14_2 Zn 0.12460(2) 0.21983(2) 0.72982(2)
C124_2 C 0.71711(19) 0.24180(4) 0.82583(4)
H77_2 H 0.736781 0.222828 0.836719
C125_2 C 0.6425(2) 0.28741(4) 0.81518(4)
C126_2 C 0.58195(19) 0.31819(4) 0.81337(4)
C127_2 C 0.6822(2) 0.32223(4) 0.76503(4)
H78_2 H 0.696968 0.335123 0.747133
C128_2 C 0.72275(19) 0.27751(4) 0.79083(4)
N16_2 N 0.76783(15) 0.24771(3) 0.79720(3)
N17_2 N 0.63959(15) 0.26334(3) 0.83794(3)
N18_2 N 0.60117(16) 0.33456(3) 0.78654(3)
N20_2 N 0.50797(15) 0.33052(3) 0.83753(3)
H79_2 H 0.472117 0.349369 0.835701
H80_2 H 0.496320 0.319582 0.854859
O20_2 O 0.97812(13) 0.18833(3) 0.79334(3)
N24_2 N 0.13959(15) 0.26334(3) 0.16206(3)
O19_2 O 0.04497(14) 0.21119(2) 0.11033(3)
N21_2 N 0.86041(15) 0.23666(3) 0.16206(3)
N22_2 N 0.63959(15) 0.76334(3) 0.16206(3)
N23_2 N 0.36041(15) 0.73666(3) 0.16206(3)
O18_2 O 0.45503(14) 0.78881(2) 0.11033(3)
C124_3 C 0.21711(19) 0.75820(4) 0.67417(4)
H77_3 H 0.236781 0.777172 0.663281
C125_3 C 0.1425(2) 0.71259(4) 0.68482(4)
C126_3 C 0.08195(19) 0.68181(4) 0.68663(4)
C127_3 C 0.1822(2) 0.67777(4) 0.73497(4)
H78_3 H 0.196968 0.664877 0.752867
C128_3 C 0.22275(19) 0.72249(4) 0.70917(4)
N16_3 N 0.26783(15) 0.75229(3) 0.70280(3)
N17_3 N 0.13959(15) 0.73666(3) 0.66206(3)
N18_3 N 0.10117(16) 0.66544(3) 0.71346(3)
N20_3 N 0.00797(15) 0.66948(3) 0.66247(3)
O20_3 O 0.47812(13) 0.81167(3) 0.70666(3)
H79_3 H 0.972117 0.650631 0.664299
H80_3 H 0.996320 0.680418 0.645141
C124_4 C 0.28289(19) 0.24180(4) 0.67417(4)
H77_4 H 0.263219 0.222828 0.663281
C125_4 C 0.3575(2) 0.28741(4) 0.68482(4)
C126_4 C 0.41805(19) 0.31819(4) 0.68663(4)
C127_4 C 0.3178(2) 0.32223(4) 0.73497(4)
H78_4 H 0.303032 0.335123 0.752867
C128_4 C 0.27725(19) 0.27751(4) 0.70917(4)
N16_4 N 0.23217(15) 0.24771(3) 0.70280(3)
N17_4 N 0.36041(15) 0.26334(3) 0.66206(3)
N18_4 N 0.39883(16) 0.33456(3) 0.71346(3)
N20_4 N 0.49203(15) 0.33052(3) 0.66247(3)
H79_4 H 0.527883 0.349369 0.664299
H80_4 H 0.503680 0.319582 0.645141
O20_4 O 0.02188(13) 0.18833(3) 0.70666(3)
C98_2 C 0.1495(2) 0.20751(5) 0.09482(4)
C99_2 C 0.1721(2) 0.17592(4) 0.08080(4)
C100_2 C 0.2893(2) 0.16880(4) 0.06653(5)
H61_2 H 0.361481 0.183366 0.066990
C101_2 C 0.3037(2) 0.13998(4) 0.05112(4)
H62_2 H 0.383957 0.135694 0.039931
C102_2 C 0.2016(2) 0.11718(4) 0.05186(4)
C103_2 C 0.0932(2) 0.12348(4) 0.06857(5)
H63_2 H 0.027931 0.107494 0.071692
C104_2 C 0.0730(2) 0.15334(4) 0.08173(4)
C105_2 C 0.2214(2) 0.08633(4) 0.03461(4)
C106_2 C 0.3023(2) 0.08411(4) 0.00840(4)
H65_2 H 0.350345 0.102179 0.001596
C108_2 C 0.2379(2) 0.02962(4) 0.00114(4)
C109_2 C 0.16125(18) 0.03198(4) 0.02856(4)
H67_2 H 0.116470 0.013937 0.036560
C110_2 C 0.1508(2) 0.05994(4) 0.04373(4)
H68_2 H 0.092696 0.061420 0.061312
O15_2 O 0.23584(15) 0.22690(3) 0.09299(3)
H10_2 H 0.038373 0.077154 0.575662
C23_2 C 0.0782(2) 0.10602(4) 0.63166(4)
H13_2 H 0.139623 0.093356 0.620233
C24_2 C 0.1243(2) 0.12838(4) 0.65218(4)
H14_2 H 0.218291 0.130805 0.654537
C25_2 C 0.0419(2) 0.14735(4) 0.66939(4)
C28_2 C 0.1007(2) 0.17059(4) 0.69223(4)
O3_2 O 0.22452(15) 0.17193(3) 0.69528(3)
H24_2 H 0.010164 0.158097 0.408556
C78_2 C 0.250000 0.000000 0.98306(5)
C79_2 C 0.250000 0.000000 0.95144(6)
C80_2 C 0.2083(2) 0.02760(4) 0.93150(4)
C81_2 C 0.0853(2) 0.04364(4) 0.93833(4)
H49_2 H 0.033355 0.037713 0.956047
C82_2 C 0.0441(2) 0.06715(4) 0.91945(4)
C83_2 C 0.1130(2) 0.07767(4) 0.89368(4)
C84_2 C 0.2352(2) 0.06209(4) 0.88807(4)
H51_2 H 0.286871 0.068669 0.870539
C85_2 C 0.2847(2) 0.03806(4) 0.90620(4)
H52_2 H 0.369055 0.028785 0.901618
C86_2 C 0.0616(2) 0.10184(4) 0.87247(4)
C90_2 C 0.0961(2) 0.14357(4) 0.83427(4)
H55_2 H 0.154833 0.156374 0.822222
C91_2 C 0.1500(2) 0.12191(4) 0.85475(4)
H56_2 H 0.244264 0.120229 0.857159
C107_2 C 0.31519(19) 0.05622(4) 0.99180(4)
H66_2 H 0.374661 0.054851 0.974448
C65_2 C 0.3505(2) 0.79249(5) 0.09482(4)
C66_2 C 0.3279(2) 0.82408(4) 0.08080(4)
C67_2 C 0.2107(2) 0.83120(4) 0.06653(5)
H41_2 H 0.138519 0.816634 0.066990
C68_2 C 0.1963(2) 0.86002(4) 0.05112(4)
H42_2 H 0.116043 0.864306 0.039931
C69_2 C 0.2984(2) 0.88282(4) 0.05186(4)
C70_2 C 0.4068(2) 0.87652(4) 0.06857(5)
H43_2 H 0.472069 0.892506 0.071692
C71_2 C 0.4270(2) 0.84666(4) 0.08173(4)
H44_2 H 0.510164 0.841903 0.091444
C72_2 C 0.2786(2) 0.91367(4) 0.03461(4)
C73_2 C 0.1977(2) 0.91589(4) 0.00840(4)
H45_2 H 0.149655 0.897821 0.001596
C75_2 C 0.2621(2) 0.97038(4) 0.00114(4)
C76_2 C 0.33875(18) 0.96802(4) 0.02856(4)
H47_2 H 0.383530 0.986063 0.036560
C77_2 C 0.3492(2) 0.94006(4) 0.04373(4)
H48_2 H 0.407304 0.938580 0.061312
O11_2 O 0.26416(15) 0.77310(3) 0.09299(3)
C74_2 C 0.18481(19) 0.94378(4) 0.99180(4)
H46_2 H 0.125339 0.945149 0.974448
C78_3 C 0.250000 1.000000 0.98306(5)
C79_3 C 0.250000 1.000000 0.95144(6)
C111_2 C 0.2917(2) 0.97240(4) 0.93150(4)
C112_2 C 0.4147(2) 0.95636(4) 0.93833(4)
H69_2 H 0.466645 0.962287 0.956047
C113_2 C 0.4559(2) 0.93285(4) 0.91945(4)
H70_2 H 0.538373 0.922846 0.924338
C114_2 C 0.3870(2) 0.92233(4) 0.89368(4)
C115_2 C 0.2648(2) 0.93791(4) 0.88807(4)
H71_2 H 0.213129 0.931331 0.870539
C116_2 C 0.2153(2) 0.96194(4) 0.90620(4)
H72_2 H 0.130945 0.971215 0.901618
C117_2 C 0.4384(2) 0.89816(4) 0.87247(4)
C118_2 C 0.5782(2) 0.89398(4) 0.86834(4)
H73_2 H 0.639623 0.906644 0.879767
C119_2 C 0.6243(2) 0.87162(4) 0.84782(4)
H74_2 H 0.718291 0.869195 0.845463
C120_2 C 0.5419(2) 0.85265(4) 0.83061(4)
C121_2 C 0.4039(2) 0.85643(4) 0.83427(4)
H75_2 H 0.345167 0.843626 0.822222
C122_2 C 0.3500(2) 0.87809(4) 0.85475(4)
H76_2 H 0.255736 0.879771 0.857159
C123_2 C 0.6007(2) 0.82941(4) 0.80777(4)
O16_2 O 0.72452(15) 0.82807(3) 0.80472(3)
H64_2 H 0.989836 0.158097 0.091444
C14_2 C 0.750000 -0.000000 0.51694(5)
C15_2 C 0.750000 -0.000000 0.54856(6)
C16_2 C 0.7917(2) 0.02760(4) 0.56850(4)
C17_2 C 0.9147(2) 0.04364(4) 0.56167(4)
H9_2 H 0.966645 0.037713 0.543953
C18_2 C 0.9559(2) 0.06715(4) 0.58055(4)
C19_2 C 0.8870(2) 0.07767(4) 0.60632(4)
C20_2 C 0.7648(2) 0.06209(4) 0.61193(4)
H11_2 H 0.713129 0.068669 0.629461
C21_2 C 0.7153(2) 0.03806(4) 0.59380(4)
H12_2 H 0.630945 0.028785 0.598382
C22_2 C 0.9384(2) 0.10184(4) 0.62753(4)
C26_2 C 0.9039(2) 0.14357(4) 0.66573(4)
H15_2 H 0.845167 0.156374 0.677778
C27_2 C 0.8500(2) 0.12191(4) 0.64525(4)
H16_2 H 0.755736 0.120229 0.642841
C34_2 C 0.8505(2) 0.20751(5) 0.40518(4)
C35_2 C 0.8279(2) 0.17592(4) 0.41920(4)
C36_2 C 0.7107(2) 0.16880(4) 0.43347(5)
H21_2 H 0.638519 0.183366 0.433010
C37_2 C 0.6963(2) 0.13998(4) 0.44888(4)
H22_2 H 0.616043 0.135694 0.460069
C38_2 C 0.7984(2) 0.11718(4) 0.44814(4)
C39_2 C 0.9068(2) 0.12348(4) 0.43143(5)
H23_2 H 0.972069 0.107494 0.428308
C40_2 C 0.9270(2) 0.15334(4) 0.41827(4)
C41_2 C 0.7786(2) 0.08633(4) 0.46539(4)
C42_2 C 0.6977(2) 0.08411(4) 0.49160(4)
H25_2 H 0.649655 0.102179 0.498404
C43_2 C 0.68481(19) 0.05622(4) 0.50820(4)
H26_2 H 0.625339 0.054851 0.525552
C44_2 C 0.7621(2) 0.02962(4) 0.49886(4)
C45_2 C 0.83875(18) 0.03198(4) 0.47144(4)
H27_2 H 0.883530 0.013937 0.463440
C46_2 C 0.8492(2) 0.05994(4) 0.45627(4)
H28_2 H 0.907304 0.061420 0.438688
O7_2 O 0.76416(15) 0.22690(3) 0.40701(3)
H50_2 H 0.961627 0.077154 0.924338
C87_2 C 0.9218(2) 0.10602(4) 0.86834(4)
H53_2 H 0.860377 0.093356 0.879767
C88_2 C 0.8757(2) 0.12838(4) 0.84782(4)
H54_2 H 0.781709 0.130805 0.845463
C89_2 C 0.9581(2) 0.14735(4) 0.83061(4)
C92_2 C 0.8993(2) 0.17059(4) 0.80777(4)
O12_2 O 0.77548(15) 0.17193(3) 0.80472(3)
C1_2 C 0.6495(2) 0.79249(5) 0.40518(4)
C2_2 C 0.6721(2) 0.82408(4) 0.41920(4)
C3_2 C 0.7893(2) 0.83120(4) 0.43347(5)
H1_2 H 0.861481 0.816634 0.433010
C4_2 C 0.8037(2) 0.86002(4) 0.44888(4)
H2_2 H 0.883957 0.864306 0.460069
C5_2 C 0.7016(2) 0.88282(4) 0.44814(4)
C6_2 C 0.5932(2) 0.87652(4) 0.43143(5)
H3_2 H 0.527931 0.892506 0.428308
C7_2 C 0.5730(2) 0.84666(4) 0.41827(4)
H4_2 H 0.489836 0.841903 0.408556
C8_2 C 0.7214(2) 0.91367(4) 0.46539(4)
C9_2 C 0.8023(2) 0.91589(4) 0.49160(4)
H5_2 H 0.850345 0.897821 0.498404
C10_2 C 0.81519(19) 0.94378(4) 0.50820(4)
H6_2 H 0.874661 0.945149 0.525552
C11_2 C 0.7379(2) 0.97038(4) 0.49886(4)
C12_2 C 0.66125(18) 0.96802(4) 0.47144(4)
H7_2 H 0.616470 0.986063 0.463440
C13_2 C 0.6508(2) 0.94006(4) 0.45627(4)
H8_2 H 0.592696 0.938580 0.438688
C14_3 C 0.750000 1.000000 0.51694(5)
C15_3 C 0.750000 1.000000 0.54856(6)
O2_2 O 0.73584(15) 0.77310(3) 0.40701(3)
C47_2 C 0.7083(2) 0.97240(4) 0.56850(4)
C48_2 C 0.5853(2) 0.95636(4) 0.56167(4)
H29_2 H 0.533355 0.962287 0.543953
C49_2 C 0.5441(2) 0.93285(4) 0.58055(4)
H30_2 H 0.461627 0.922846 0.575662
C50_2 C 0.6130(2) 0.92233(4) 0.60632(4)
C51_2 C 0.7352(2) 0.93791(4) 0.61193(4)
H31_2 H 0.786871 0.931331 0.629461
C52_2 C 0.7847(2) 0.96194(4) 0.59380(4)
H32_2 H 0.869055 0.971215 0.598382
C53_2 C 0.5616(2) 0.89816(4) 0.62753(4)
C54_2 C 0.4218(2) 0.89398(4) 0.63166(4)
H33_2 H 0.360377 0.906644 0.620233
C55_2 C 0.3757(2) 0.87162(4) 0.65218(4)
H34_2 H 0.281709 0.869195 0.654537
C56_2 C 0.4581(2) 0.85265(4) 0.66939(4)
C57_2 C 0.5961(2) 0.85643(4) 0.66573(4)
H35_2 H 0.654833 0.843626 0.677778
C58_2 C 0.6500(2) 0.87809(4) 0.64525(4)
H36_2 H 0.744264 0.879771 0.642841
C59_2 C 0.3993(2) 0.82941(4) 0.69223(4)
O8_2 O 0.27548(15) 0.82807(3) 0.69528(3)
H4_3 H 0.010164 0.658097 0.591444
H30_3 H 0.038373 0.577154 0.424338
C54_3 C 0.0782(2) 0.60602(4) 0.36834(4)
H33_3 H 0.139623 0.593356 0.379767
C55_3 C 0.1243(2) 0.62838(4) 0.34782(4)
H34_3 H 0.218291 0.630805 0.345463
C56_3 C 0.0419(2) 0.64735(4) 0.33061(4)
C59_3 C 0.1007(2) 0.67059(4) 0.30777(4)
O8_3 O 0.22452(15) 0.67193(3) 0.30472(3)
O9_2 O 0.02188(13) 0.68833(3) 0.29334(3)
C60_2 C 0.28289(19) 0.74180(4) 0.32583(4)
H37_2 H 0.263219 0.722828 0.336719
C61_2 C 0.3575(2) 0.78741(4) 0.31518(4)
C62_2 C 0.41805(19) 0.81819(4) 0.31337(4)
C63_2 C 0.3178(2) 0.82223(4) 0.26503(4)
H38_2 H 0.303032 0.835123 0.247133
C64_2 C 0.27725(19) 0.77751(4) 0.29083(4)
N6_2 N 0.23217(15) 0.74771(3) 0.29720(3)
N8_2 N 0.39883(16) 0.83456(3) 0.28654(3)
N9_2 N 0.25379(15) 0.79458(3) 0.26459(3)
N10_2 N 0.49203(15) 0.83052(3) 0.33753(3)
H39_2 H 0.527883 0.849369 0.335701
H40_2 H 0.503680 0.819582 0.354859
Zn4_2 Zn 0.12460(2) 0.71983(2) 0.27018(2)
H59_3 H 0.027883 0.150631 0.164299
H60_3 H 0.003680 0.180418 0.145141
N26_2 N 0.25379(15) 0.70542(3) 0.23541(3)
O19_3 O 0.04497(14) 0.78881(2) 0.61033(3)
O21_3 O -0.000000 0.750000 0.250000
Zn15_2 Zn 0.12460(2) 0.78017(2) 0.22982(2)
C1_3 C 0.8505(2) 0.70751(5) 0.59482(4)
C2_3 C 0.8279(2) 0.67592(4) 0.58080(4)
C3_3 C 0.7107(2) 0.66880(4) 0.56653(5)
H1_3 H 0.638519 0.683366 0.566990
C4_3 C 0.6963(2) 0.63998(4) 0.55112(4)
H2_3 H 0.616043 0.635694 0.539931
C5_3 C 0.7984(2) 0.61718(4) 0.55186(4)
C6_3 C 0.9068(2) 0.62348(4) 0.56857(5)
H3_3 H 0.972069 0.607494 0.571692
C7_3 C 0.9270(2) 0.65334(4) 0.58173(4)
C8_3 C 0.7786(2) 0.58633(4) 0.53461(4)
C9_3 C 0.6977(2) 0.58411(4) 0.50840(4)
H5_3 H 0.649655 0.602179 0.501596
C10_3 C 0.68481(19) 0.55622(4) 0.49180(4)
H6_3 H 0.625339 0.554851 0.474448
C11_3 C 0.7621(2) 0.52962(4) 0.50114(4)
C12_3 C 0.83875(18) 0.53198(4) 0.52856(4)
H7_3 H 0.883530 0.513937 0.536560
C13_3 C 0.8492(2) 0.55994(4) 0.54373(4)
H8_3 H 0.907304 0.561420 0.561312
C14_4 C 0.750000 0.500000 0.48306(5)
C15_4 C 0.750000 0.500000 0.45144(6)
C16_3 C 0.7083(2) 0.47240(4) 0.43150(4)
C17_3 C 0.5853(2) 0.45636(4) 0.43833(4)
H9_3 H 0.533355 0.462287 0.456047
C18_3 C 0.5441(2) 0.43285(4) 0.41945(4)
H10_3 H 0.461627 0.422846 0.424338
C19_3 C 0.6130(2) 0.42233(4) 0.39368(4)
C20_3 C 0.7352(2) 0.43791(4) 0.38807(4)
H11_3 H 0.786871 0.431331 0.370539
C21_3 C 0.7847(2) 0.46194(4) 0.40620(4)
H12_3 H 0.869055 0.471215 0.401618
C22_3 C 0.5616(2) 0.39816(4) 0.37247(4)
C23_3 C 0.4218(2) 0.39398(4) 0.36834(4)
H13_3 H 0.360377 0.406644 0.379767
C24_3 C 0.3757(2) 0.37162(4) 0.34782(4)
H14_3 H 0.281709 0.369195 0.345463
C25_3 C 0.4581(2) 0.35265(4) 0.33061(4)
C26_3 C 0.5961(2) 0.35643(4) 0.33427(4)
H15_3 H 0.654833 0.343626 0.322222
C27_3 C 0.6500(2) 0.37809(4) 0.35475(4)
H16_3 H 0.744264 0.379771 0.357159
C28_3 C 0.3993(2) 0.32941(4) 0.30777(4)
C29_2 C 0.21711(19) 0.25820(4) 0.32583(4)
H17_2 H 0.236781 0.277172 0.336719
C30_2 C 0.1425(2) 0.21259(4) 0.31518(4)
C31_2 C 0.08195(19) 0.18181(4) 0.31337(4)
C32_2 C 0.1822(2) 0.17777(4) 0.26503(4)
H18_2 H 0.196968 0.164877 0.247133
C33_2 C 0.22275(19) 0.22249(4) 0.29083(4)
N1_2 N 0.26783(15) 0.25229(3) 0.29720(3)
N3_2 N 0.10117(16) 0.16544(3) 0.28654(3)
N4_2 N 0.24621(15) 0.20542(3) 0.26459(3)
N5_2 N 0.00797(15) 0.16948(3) 0.33753(3)
O1_2 O 0.95503(14) 0.71119(2) 0.61033(3)
O2_3 O 0.76416(15) 0.72690(3) 0.59299(3)
O3_3 O 0.27548(15) 0.32807(3) 0.30472(3)
O4_2 O 0.47812(13) 0.31167(3) 0.29334(3)
O5_2 O 0.500000 0.250000 0.250000
Zn2_2 Zn 0.37540(2) 0.28017(2) 0.27018(2)
C34_3 C 0.6495(2) 0.29249(5) 0.59482(4)
C35_3 C 0.6721(2) 0.32408(4) 0.58080(4)
C36_3 C 0.7893(2) 0.33120(4) 0.56653(5)
H21_3 H 0.861481 0.316634 0.566990
C37_3 C 0.8037(2) 0.36002(4) 0.55112(4)
H22_3 H 0.883957 0.364306 0.539931
C38_3 C 0.7016(2) 0.38282(4) 0.55186(4)
C39_3 C 0.5932(2) 0.37652(4) 0.56857(5)
H23_3 H 0.527931 0.392506 0.571692
C40_3 C 0.5730(2) 0.34666(4) 0.58173(4)
H24_3 H 0.489836 0.341903 0.591444
C41_3 C 0.7214(2) 0.41367(4) 0.53461(4)
C42_3 C 0.8023(2) 0.41589(4) 0.50840(4)
H25_3 H 0.850345 0.397821 0.501596
C43_3 C 0.81519(19) 0.44378(4) 0.49180(4)
H26_3 H 0.874661 0.445149 0.474448
C44_3 C 0.7379(2) 0.47038(4) 0.50114(4)
C45_3 C 0.66125(18) 0.46802(4) 0.52856(4)
H27_3 H 0.616470 0.486063 0.536560
C46_3 C 0.6508(2) 0.44006(4) 0.54373(4)
H28_3 H 0.592696 0.438580 0.561312
C47_3 C 0.7917(2) 0.52760(4) 0.43150(4)
C48_3 C 0.9147(2) 0.54364(4) 0.43833(4)
H29_3 H 0.966645 0.537713 0.456047
C49_3 C 0.9559(2) 0.56715(4) 0.41945(4)
C50_3 C 0.8870(2) 0.57767(4) 0.39368(4)
C51_3 C 0.7648(2) 0.56209(4) 0.38807(4)
H31_3 H 0.713129 0.568669 0.370539
C52_3 C 0.7153(2) 0.53806(4) 0.40620(4)
H32_3 H 0.630945 0.528785 0.401618
C53_3 C 0.9384(2) 0.60184(4) 0.37247(4)
C57_3 C 0.9039(2) 0.64357(4) 0.33427(4)
H35_3 H 0.845167 0.656374 0.322222
C58_3 C 0.8500(2) 0.62191(4) 0.35475(4)
H36_3 H 0.755736 0.620229 0.357159
O6_2 O 0.54497(14) 0.28881(2) 0.61033(3)
O7_3 O 0.73584(15) 0.27310(3) 0.59299(3)
C74_3 C 0.31519(19) 0.55622(4) 0.00820(4)
H46_3 H 0.374661 0.554851 0.025552
C78_4 C 0.250000 0.500000 0.01694(5)
C79_4 C 0.250000 0.500000 0.04856(6)
C80_3 C 0.2917(2) 0.47240(4) 0.06850(4)
C81_3 C 0.4147(2) 0.45636(4) 0.06167(4)
H49_3 H 0.466645 0.462287 0.043953
C82_3 C 0.4559(2) 0.43285(4) 0.08055(4)
H50_3 H 0.538373 0.422846 0.075662
C83_3 C 0.3870(2) 0.42233(4) 0.10632(4)
C84_3 C 0.2648(2) 0.43791(4) 0.11193(4)
H51_3 H 0.213129 0.431331 0.129461
C85_3 C 0.2153(2) 0.46194(4) 0.09380(4)
H52_3 H 0.130945 0.471215 0.098382
C86_3 C 0.4384(2) 0.39816(4) 0.12753(4)
C87_3 C 0.5782(2) 0.39398(4) 0.13166(4)
H53_3 H 0.639623 0.406644 0.120233
C88_3 C 0.6243(2) 0.37162(4) 0.15218(4)
H54_3 H 0.718291 0.369195 0.154537
C89_3 C 0.5419(2) 0.35265(4) 0.16939(4)
C90_3 C 0.4039(2) 0.35643(4) 0.16573(4)
H55_3 H 0.345167 0.343626 0.177778
C91_3 C 0.3500(2) 0.37809(4) 0.14525(4)
H56_3 H 0.255736 0.379771 0.142841
C92_3 C 0.6007(2) 0.32941(4) 0.19223(4)
C93_3 C 0.78289(19) 0.25820(4) 0.17417(4)
H57_3 H 0.763219 0.277172 0.163281
C94_3 C 0.8575(2) 0.21259(4) 0.18482(4)
C95_3 C 0.91805(19) 0.18181(4) 0.18663(4)
C96_3 C 0.8178(2) 0.17777(4) 0.23497(4)
H58_3 H 0.803032 0.164877 0.252867
C97_3 C 0.77725(19) 0.22249(4) 0.20917(4)
N11_3 N 0.73217(15) 0.25229(3) 0.20280(3)
N13_3 N 0.89883(16) 0.16544(3) 0.21346(3)
N14_3 N 0.75379(15) 0.20542(3) 0.23541(3)
N15_3 N 0.99203(15) 0.16948(3) 0.16247(3)
O12_3 O 0.72452(15) 0.32807(3) 0.19528(3)
O13_2 O 0.52188(13) 0.31167(3) 0.20666(3)
Zn5_2 Zn 0.62460(2) 0.28017(2) 0.22982(2)
C107_3 C 0.18481(19) 0.44378(4) 0.00820(4)
H66_3 H 0.125339 0.445149 0.025552
C111_3 C 0.2083(2) 0.52760(4) 0.06850(4)
C112_3 C 0.0853(2) 0.54364(4) 0.06167(4)
H69_3 H 0.033355 0.537713 0.043953
C113_3 C 0.0441(2) 0.56715(4) 0.08055(4)
C114_3 C 0.1130(2) 0.57767(4) 0.10632(4)
C115_3 C 0.2352(2) 0.56209(4) 0.11193(4)
H71_3 H 0.286871 0.568669 0.129461
C116_3 C 0.2847(2) 0.53806(4) 0.09380(4)
H72_3 H 0.369055 0.528785 0.098382
C117_3 C 0.0616(2) 0.60184(4) 0.12753(4)
C121_3 C 0.0961(2) 0.64357(4) 0.16573(4)
H75_3 H 0.154833 0.656374 0.177778
C122_3 C 0.1500(2) 0.62191(4) 0.14525(4)
H76_3 H 0.244264 0.620229 0.142841
C124_5 C 0.21711(19) 0.24180(4) 0.17417(4)
H77_5 H 0.236781 0.222828 0.163281
C125_5 C 0.1425(2) 0.28741(4) 0.18482(4)
C126_5 C 0.08195(19) 0.31819(4) 0.18663(4)
C127_5 C 0.1822(2) 0.32223(4) 0.23497(4)
H78_5 H 0.196968 0.335123 0.252867
C128_5 C 0.22275(19) 0.27751(4) 0.20917(4)
N16_5 N 0.26783(15) 0.24771(3) 0.20280(3)
N18_5 N 0.10117(16) 0.33456(3) 0.21346(3)
N19_2 N 0.24621(15) 0.29458(3) 0.23541(3)
N20_5 N 0.00797(15) 0.33052(3) 0.16247(3)
Zn6_2 Zn 0.37540(2) 0.21983(2) 0.22982(2)
N25_3 N 0.75379(15) 0.29458(3) 0.26459(3)
O18_3 O 0.45503(14) 0.21119(2) 0.61033(3)
O20_5 O 0.47812(13) 0.18833(3) 0.20666(3)
O21_4 O 1.000000 0.750000 0.250000
Zn14_3 Zn 0.62460(2) 0.21983(2) 0.27018(2)
C65_3 C 0.1495(2) 0.70751(5) 0.90518(4)
C66_3 C 0.1721(2) 0.67592(4) 0.91920(4)
C67_3 C 0.2893(2) 0.66880(4) 0.93347(5)
H41_3 H 0.361481 0.683366 0.933010
C68_3 C 0.3037(2) 0.63998(4) 0.94888(4)
H42_3 H 0.383957 0.635694 0.960069
C69_3 C 0.2016(2) 0.61718(4) 0.94814(4)
C70_3 C 0.0932(2) 0.62348(4) 0.93143(5)
H43_3 H 0.027931 0.607494 0.928308
C71_3 C 0.0730(2) 0.65334(4) 0.91827(4)
C72_3 C 0.2214(2) 0.58633(4) 0.96539(4)
C73_3 C 0.3023(2) 0.58411(4) 0.99160(4)
H45_3 H 0.350345 0.602179 0.998404
C75_3 C 0.2379(2) 0.52962(4) 0.99886(4)
C76_3 C 0.16125(18) 0.53198(4) 0.97144(4)
H47_3 H 0.116470 0.513937 0.963440
C77_3 C 0.1508(2) 0.55994(4) 0.95627(4)
H48_3 H 0.092696 0.561420 0.938688
O10_2 O 0.04497(14) 0.71119(2) 0.88967(3)
O11_3 O 0.23584(15) 0.72690(3) 0.90701(3)
C98_3 C 0.3505(2) 0.29249(5) 0.90518(4)
C99_3 C 0.3279(2) 0.32408(4) 0.91920(4)
C100_3 C 0.2107(2) 0.33120(4) 0.93347(5)
H61_3 H 0.138519 0.316634 0.933010
C101_3 C 0.1963(2) 0.36002(4) 0.94888(4)
H62_3 H 0.116043 0.364306 0.960069
C102_3 C 0.2984(2) 0.38282(4) 0.94814(4)
C103_3 C 0.4068(2) 0.37652(4) 0.93143(5)
H63_3 H 0.472069 0.392506 0.928308
C104_3 C 0.4270(2) 0.34666(4) 0.91827(4)
H64_3 H 0.510164 0.341903 0.908556
C105_3 C 0.2786(2) 0.41367(4) 0.96539(4)
C106_3 C 0.1977(2) 0.41589(4) 0.99160(4)
H65_3 H 0.149655 0.397821 0.998404
C108_3 C 0.2621(2) 0.47038(4) 0.99886(4)
C109_3 C 0.33875(18) 0.46802(4) 0.97144(4)
H67_3 H 0.383530 0.486063 0.963440
C110_3 C 0.3492(2) 0.44006(4) 0.95627(4)
H68_3 H 0.407304 0.438580 0.938688
O14_2 O 0.45503(14) 0.28881(2) 0.88967(3)
O15_3 O 0.26416(15) 0.27310(3) 0.90701(3)
H19_2 H 0.972117 0.150631 0.335701
H20_2 H 0.996320 0.180418 0.354859
H70_3 H 0.961627 0.577154 0.075662
C118_3 C 0.9218(2) 0.60602(4) 0.13166(4)
H73_3 H 0.860377 0.593356 0.120233
C119_3 C 0.8757(2) 0.62838(4) 0.15218(4)
H74_3 H 0.781709 0.630805 0.154537
C120_3 C 0.9581(2) 0.64735(4) 0.16939(4)
C123_3 C 0.8993(2) 0.67059(4) 0.19223(4)
O16_3 O 0.77548(15) 0.67193(3) 0.19528(3)
O17_2 O 0.97812(13) 0.68833(3) 0.20666(3)
H79_5 H 0.972117 0.349369 0.164299
H80_5 H 0.996320 0.319582 0.145141
Zn13_2 Zn 0.87540(2) 0.71983(2) 0.22982(2)
H44_3 H 0.989836 0.658097 0.908556
C124_6 C 0.28289(19) 0.75820(4) 0.17417(4)
H77_6 H 0.263219 0.777172 0.163281
C125_6 C 0.3575(2) 0.71259(4) 0.18482(4)
C126_6 C 0.41805(19) 0.68181(4) 0.18663(4)
C127_6 C 0.3178(2) 0.67777(4) 0.23497(4)
H78_6 H 0.303032 0.664877 0.252867
C128_6 C 0.27725(19) 0.72249(4) 0.20917(4)
N16_6 N 0.23217(15) 0.75229(3) 0.20280(3)
N18_6 N 0.39883(16) 0.66544(3) 0.21346(3)
N20_6 N 0.49203(15) 0.66948(3) 0.16247(3)
H79_6 H 0.527883 0.650631 0.164299
H80_6 H 0.503680 0.680418 0.145141
O20_6 O 0.02188(13) 0.81167(3) 0.20666(3)
C93_4 C 0.71711(19) 0.74180(4) 0.17417(4)
H57_4 H 0.736781 0.722828 0.163281
C94_4 C 0.6425(2) 0.78741(4) 0.18482(4)
C95_4 C 0.58195(19) 0.81819(4) 0.18663(4)
C96_4 C 0.6822(2) 0.82223(4) 0.23497(4)
H58_4 H 0.696968 0.835123 0.252867
C97_4 C 0.72275(19) 0.77751(4) 0.20917(4)
N11_4 N 0.76783(15) 0.74771(3) 0.20280(3)
N13_4 N 0.60117(16) 0.83456(3) 0.21346(3)
N14_4 N 0.74621(15) 0.79458(3) 0.23541(3)
N15_4 N 0.50797(15) 0.83052(3) 0.16247(3)
H59_4 H 0.472117 0.849369 0.164299
H60_4 H 0.496320 0.819582 0.145141
N25_4 N 0.74621(15) 0.70542(3) 0.26459(3)
Zn14_4 Zn 0.87540(2) 0.78017(2) 0.27018(2)
H79_7 H 0.027883 0.349369 0.335701
H80_7 H 0.003680 0.319582 0.354859
C124_7 C 0.78289(19) 0.24180(4) 0.32583(4)
H77_7 H 0.763219 0.222828 0.336719
C125_7 C 0.8575(2) 0.28741(4) 0.31518(4)
C126_7 C 0.91805(19) 0.31819(4) 0.31337(4)
C127_7 C 0.8178(2) 0.32223(4) 0.26503(4)
H78_7 H 0.803032 0.335123 0.247133
C128_7 C 0.77725(19) 0.27751(4) 0.29083(4)
N16_7 N 0.73217(15) 0.24771(3) 0.29720(3)
N18_7 N 0.89883(16) 0.33456(3) 0.28654(3)
N20_7 N 0.99203(15) 0.33052(3) 0.33753(3)
O20_7 O 0.52188(13) 0.18833(3) 0.29334(3)
O18_4 O 0.54497(14) 0.21119(2) 0.88967(3)
O19_4 O 0.95503(14) 0.78881(2) 0.88967(3)
C124_8 C 0.71711(19) 0.75820(4) 0.32583(4)
H77_8 H 0.736781 0.777172 0.336719
C125_8 C 0.6425(2) 0.71259(4) 0.31518(4)
C126_8 C 0.58195(19) 0.68181(4) 0.31337(4)
C127_8 C 0.6822(2) 0.67777(4) 0.26503(4)
H78_8 H 0.696968 0.664877 0.247133
C128_8 C 0.72275(19) 0.72249(4) 0.29083(4)
N16_8 N 0.76783(15) 0.75229(3) 0.29720(3)
N18_8 N 0.60117(16) 0.66544(3) 0.28654(3)
N20_8 N 0.50797(15) 0.66948(3) 0.33753(3)
H79_8 H 0.472117 0.650631 0.335701
H80_8 H 0.496320 0.680418 0.354859
O20_8 O 0.97812(13) 0.81167(3) 0.29334(3)
C1_4 C 0.3505(2) 0.20751(5) 0.59482(4)
C2_4 C 0.3279(2) 0.17592(4) 0.58080(4)
C3_4 C 0.2107(2) 0.16880(4) 0.56653(5)
H1_4 H 0.138519 0.183366 0.566990
C4_4 C 0.1963(2) 0.13998(4) 0.55112(4)
H2_4 H 0.116043 0.135694 0.539931
C5_4 C 0.2984(2) 0.11718(4) 0.55186(4)
C6_4 C 0.4068(2) 0.12348(4) 0.56857(5)
H3_4 H 0.472069 0.107494 0.571692
C7_4 C 0.4270(2) 0.15334(4) 0.58173(4)
H4_4 H 0.510164 0.158097 0.591444
C8_4 C 0.2786(2) 0.08633(4) 0.53461(4)
C9_4 C 0.1977(2) 0.08411(4) 0.50840(4)
H5_4 H 0.149655 0.102179 0.501596
C10_4 C 0.18481(19) 0.05622(4) 0.49180(4)
H6_4 H 0.125339 0.054851 0.474448
C11_4 C 0.2621(2) 0.02962(4) 0.50114(4)
C12_4 C 0.33875(18) 0.03198(4) 0.52856(4)
H7_4 H 0.383530 0.013937 0.536560
C13_4 C 0.3492(2) 0.05994(4) 0.54373(4)
H8_4 H 0.407304 0.061420 0.561312
C14_5 C 0.250000 0.000000 0.48306(5)
C15_5 C 0.250000 0.000000 0.45144(6)
O2_4 O 0.26416(15) 0.22690(3) 0.59299(3)
C47_4 C 0.2917(2) 0.02760(4) 0.43150(4)
C48_4 C 0.4147(2) 0.04364(4) 0.43833(4)
H29_4 H 0.466645 0.037713 0.456047
C49_4 C 0.4559(2) 0.06715(4) 0.41945(4)
H30_4 H 0.538373 0.077154 0.424338
C50_4 C 0.3870(2) 0.07767(4) 0.39368(4)
C51_4 C 0.2648(2) 0.06209(4) 0.38807(4)
H31_4 H 0.213129 0.068669 0.370539
C52_4 C 0.2153(2) 0.03806(4) 0.40620(4)
H32_4 H 0.130945 0.028785 0.401618
C53_4 C 0.4384(2) 0.10184(4) 0.37247(4)
C54_4 C 0.5782(2) 0.10602(4) 0.36834(4)
H33_4 H 0.639623 0.093356 0.379767
C55_4 C 0.6243(2) 0.12838(4) 0.34782(4)
H34_4 H 0.718291 0.130805 0.345463
C56_4 C 0.5419(2) 0.14735(4) 0.33061(4)
C57_4 C 0.4039(2) 0.14357(4) 0.33427(4)
H35_4 H 0.345167 0.156374 0.322222
C58_4 C 0.3500(2) 0.12191(4) 0.35475(4)
H36_4 H 0.255736 0.120229 0.357159
C59_4 C 0.6007(2) 0.17059(4) 0.30777(4)
O8_4 O 0.72452(15) 0.17193(3) 0.30472(3)
C14_6 C 0.250000 1.000000 0.48306(5)
C15_6 C 0.250000 1.000000 0.45144(6)
C16_4 C 0.2083(2) 0.97240(4) 0.43150(4)
C17_4 C 0.0853(2) 0.95636(4) 0.43833(4)
H9_4 H 0.033355 0.962287 0.456047
C18_4 C 0.0441(2) 0.93285(4) 0.41945(4)
C19_4 C 0.1130(2) 0.92233(4) 0.39368(4)
C20_4 C 0.2352(2) 0.93791(4) 0.38807(4)
H11_4 H 0.286871 0.931331 0.370539
C21_4 C 0.2847(2) 0.96194(4) 0.40620(4)
H12_4 H 0.369055 0.971215 0.401618
C22_4 C 0.0616(2) 0.89816(4) 0.37247(4)
C26_4 C 0.0961(2) 0.85643(4) 0.33427(4)
H15_4 H 0.154833 0.843626 0.322222
C27_4 C 0.1500(2) 0.87809(4) 0.35475(4)
H16_4 H 0.244264 0.879771 0.357159
C34_4 C 0.1495(2) 0.79249(5) 0.59482(4)
C35_4 C 0.1721(2) 0.82408(4) 0.58080(4)
C36_4 C 0.2893(2) 0.83120(4) 0.56653(5)
H21_4 H 0.361481 0.816634 0.566990
C37_4 C 0.3037(2) 0.86002(4) 0.55112(4)
H22_4 H 0.383957 0.864306 0.539931
C38_4 C 0.2016(2) 0.88282(4) 0.55186(4)
C39_4 C 0.0932(2) 0.87652(4) 0.56857(5)
H23_4 H 0.027931 0.892506 0.571692
C40_4 C 0.0730(2) 0.84666(4) 0.58173(4)
C41_4 C 0.2214(2) 0.91367(4) 0.53461(4)
C42_4 C 0.3023(2) 0.91589(4) 0.50840(4)
H25_4 H 0.350345 0.897821 0.501596
C43_4 C 0.31519(19) 0.94378(4) 0.49180(4)
H26_4 H 0.374661 0.945149 0.474448
C44_4 C 0.2379(2) 0.97038(4) 0.50114(4)
C45_4 C 0.16125(18) 0.96802(4) 0.52856(4)
H27_4 H 0.116470 0.986063 0.536560
C46_4 C 0.1508(2) 0.94006(4) 0.54373(4)
H28_4 H 0.092696 0.938580 0.561312
O7_4 O 0.23584(15) 0.77310(3) 0.59299(3)
H50_4 H 0.038373 0.922846 0.075662
C87_4 C 0.0782(2) 0.89398(4) 0.13166(4)
H53_4 H 0.139623 0.906644 0.120233
C88_4 C 0.1243(2) 0.87162(4) 0.15218(4)
H54_4 H 0.218291 0.869195 0.154537
C89_4 C 0.0419(2) 0.85265(4) 0.16939(4)
C92_4 C 0.1007(2) 0.82941(4) 0.19223(4)
O12_4 O 0.22452(15) 0.82807(3) 0.19528(3)
H64_4 H 0.010164 0.841903 0.908556
C74_4 C 0.81519(19) 0.05622(4) 0.00820(4)
H46_4 H 0.874661 0.054851 0.025552
C78_5 C 0.750000 -0.000000 0.01694(5)
C79_5 C 0.750000 -0.000000 0.04856(6)
C111_4 C 0.7083(2) 0.02760(4) 0.06850(4)
C112_4 C 0.5853(2) 0.04364(4) 0.06167(4)
H69_4 H 0.533355 0.037713 0.043953
C113_4 C 0.5441(2) 0.06715(4) 0.08055(4)
H70_4 H 0.461627 0.077154 0.075662
C114_4 C 0.6130(2) 0.07767(4) 0.10632(4)
C115_4 C 0.7352(2) 0.06209(4) 0.11193(4)
H71_4 H 0.786871 0.068669 0.129461
C116_4 C 0.7847(2) 0.03806(4) 0.09380(4)
H72_4 H 0.869055 0.028785 0.098382
C117_4 C 0.5616(2) 0.10184(4) 0.12753(4)
C118_4 C 0.4218(2) 0.10602(4) 0.13166(4)
H73_4 H 0.360377 0.093356 0.120233
C119_4 C 0.3757(2) 0.12838(4) 0.15218(4)
H74_4 H 0.281709 0.130805 0.154537
C120_4 C 0.4581(2) 0.14735(4) 0.16939(4)
C121_4 C 0.5961(2) 0.14357(4) 0.16573(4)
H75_4 H 0.654833 0.156374 0.177778
C122_4 C 0.6500(2) 0.12191(4) 0.14525(4)
H76_4 H 0.744264 0.120229 0.142841
C123_4 C 0.3993(2) 0.17059(4) 0.19223(4)
O16_4 O 0.27548(15) 0.17193(3) 0.19528(3)
C65_4 C 0.6495(2) 0.20751(5) 0.90518(4)
C66_4 C 0.6721(2) 0.17592(4) 0.91920(4)
C67_4 C 0.7893(2) 0.16880(4) 0.93347(5)
H41_4 H 0.861481 0.183366 0.933010
C68_4 C 0.8037(2) 0.13998(4) 0.94888(4)
H42_4 H 0.883957 0.135694 0.960069
C69_4 C 0.7016(2) 0.11718(4) 0.94814(4)
C70_4 C 0.5932(2) 0.12348(4) 0.93143(5)
H43_4 H 0.527931 0.107494 0.928308
C71_4 C 0.5730(2) 0.15334(4) 0.91827(4)
H44_4 H 0.489836 0.158097 0.908556
C72_4 C 0.7214(2) 0.08633(4) 0.96539(4)
C73_4 C 0.8023(2) 0.08411(4) 0.99160(4)
H45_4 H 0.850345 0.102179 0.998404
C75_4 C 0.7379(2) 0.02962(4) 0.99886(4)
C76_4 C 0.66125(18) 0.03198(4) 0.97144(4)
H47_4 H 0.616470 0.013937 0.963440
C77_4 C 0.6508(2) 0.05994(4) 0.95627(4)
H48_4 H 0.592696 0.061420 0.938688
O11_4 O 0.73584(15) 0.22690(3) 0.90701(3)
H10_4 H 0.961627 0.922846 0.424338
C23_4 C 0.9218(2) 0.89398(4) 0.36834(4)
H13_4 H 0.860377 0.906644 0.379767
C24_4 C 0.8757(2) 0.87162(4) 0.34782(4)
H14_4 H 0.781709 0.869195 0.345463
C25_4 C 0.9581(2) 0.85265(4) 0.33061(4)
C28_4 C 0.8993(2) 0.82941(4) 0.30777(4)
O3_4 O 0.77548(15) 0.82807(3) 0.30472(3)
H24_4 H 0.989836 0.841903 0.591444
C78_6 C 0.750000 1.000000 0.01694(5)
C79_6 C 0.750000 1.000000 0.04856(6)
C80_4 C 0.7917(2) 0.97240(4) 0.06850(4)
C81_4 C 0.9147(2) 0.95636(4) 0.06167(4)
H49_4 H 0.966645 0.962287 0.043953
C82_4 C 0.9559(2) 0.93285(4) 0.08055(4)
C83_4 C 0.8870(2) 0.92233(4) 0.10632(4)
C84_4 C 0.7648(2) 0.93791(4) 0.11193(4)
H51_4 H 0.713129 0.931331 0.129461
C85_4 C 0.7153(2) 0.96194(4) 0.09380(4)
H52_4 H 0.630945 0.971215 0.098382
C86_4 C 0.9384(2) 0.89816(4) 0.12753(4)
C90_4 C 0.9039(2) 0.85643(4) 0.16573(4)
H55_4 H 0.845167 0.843626 0.177778
C91_4 C 0.8500(2) 0.87809(4) 0.14525(4)
H56_4 H 0.755736 0.879771 0.142841
C107_4 C 0.68481(19) 0.94378(4) 0.00820(4)
H66_4 H 0.625339 0.945149 0.025552
C98_4 C 0.8505(2) 0.79249(5) 0.90518(4)
C99_4 C 0.8279(2) 0.82408(4) 0.91920(4)
C100_4 C 0.7107(2) 0.83120(4) 0.93347(5)
H61_4 H 0.638519 0.816634 0.933010
C101_4 C 0.6963(2) 0.86002(4) 0.94888(4)
H62_4 H 0.616043 0.864306 0.960069
C102_4 C 0.7984(2) 0.88282(4) 0.94814(4)
C103_4 C 0.9068(2) 0.87652(4) 0.93143(5)
H63_4 H 0.972069 0.892506 0.928308
C104_4 C 0.9270(2) 0.84666(4) 0.91827(4)
C105_4 C 0.7786(2) 0.91367(4) 0.96539(4)
C106_4 C 0.6977(2) 0.91589(4) 0.99160(4)
H65_4 H 0.649655 0.897821 0.998404
C108_4 C 0.7621(2) 0.97038(4) 0.99886(4)
C109_4 C 0.83875(18) 0.96802(4) 0.97144(4)
H67_4 H 0.883530 0.986063 0.963440
C110_4 C 0.8492(2) 0.94006(4) 0.95627(4)
H68_4 H 0.907304 0.938580 0.938688
O15_4 O 0.76416(15) 0.77310(3) 0.90701(3)
H84 H 0.048642 0.605033 0.648622
H85 H 0.025860 0.596151 0.684732
C129 C 0.8940(4) 0.56272(10) 0.62651(12)
H81 H 0.878247 0.580817 0.612705
H82 H 0.813015 0.549720 0.627445
H83 H 0.968369 0.550145 0.618259
C130 C 0.9818(4) 0.59904(8) 0.66438(11)
H86 H 0.914234 0.615688 0.666098
N27 N 0.9253(4) 0.57323(8) 0.65612(8)
H87 H 0.846662 0.572784 0.666881
H88 H 0.976882 0.557736 0.664604
C129_2 C 0.6060(4) 0.43728(10) 0.62651(12)
H81_2 H 0.621753 0.419183 0.612705
H82_2 H 0.686985 0.450280 0.627445
H83_2 H 0.531631 0.449855 0.618259
C130_2 C 0.5182(4) 0.40096(8) 0.66438(11)
H84_2 H 0.451358 0.394967 0.648622
H85_2 H 0.474140 0.403849 0.684732
H86_2 H 0.585766 0.384312 0.666098
N27_2 N 0.5747(4) 0.42677(8) 0.65612(8)
H87_2 H 0.653338 0.427216 0.666881
H88_2 H 0.523118 0.442264 0.664604
C129_3 C 0.1060(4) 0.56272(10) 0.87349(12)
H81_3 H 0.121753 0.580817 0.887295
H82_3 H 0.186985 0.549720 0.872555
H83_3 H 0.031631 0.550145 0.881741
C130_3 C 0.0182(4) 0.59904(8) 0.83562(11)
H86_3 H 0.085766 0.615688 0.833902
N27_3 N 0.0747(4) 0.57323(8) 0.84388(8)
H87_3 H 0.153338 0.572784 0.833119
H88_3 H 0.023118 0.557736 0.835396
H84_3 H 0.951358 0.605033 0.851378
H85_3 H 0.974140 0.596151 0.815268
C129_4 C 0.3940(4) 0.43728(10) 0.87349(12)
H81_4 H 0.378247 0.419183 0.887295
H82_4 H 0.313015 0.450280 0.872555
H83_4 H 0.468369 0.449855 0.881741
C130_4 C 0.4818(4) 0.40096(8) 0.83562(11)
H84_4 H 0.548642 0.394967 0.851378
H85_4 H 0.525860 0.403849 0.815268
H86_4 H 0.414234 0.384312 0.833902
N27_4 N 0.4253(4) 0.42677(8) 0.84388(8)
H87_4 H 0.346662 0.427216 0.833119
H88_4 H 0.476882 0.442264 0.835396
C129_5 C 0.3940(4) 0.06272(10) 0.62651(12)
H81_5 H 0.378247 0.080817 0.612705
H82_5 H 0.313015 0.049720 0.627445
H83_5 H 0.468369 0.050145 0.618259
C130_5 C 0.4818(4) 0.09904(8) 0.66438(11)
H84_5 H 0.548642 0.105033 0.648622
H85_5 H 0.525860 0.096151 0.684732
H86_5 H 0.414234 0.115688 0.666098
N27_5 N 0.4253(4) 0.07323(8) 0.65612(8)
H87_5 H 0.346662 0.072784 0.666881
H88_5 H 0.476882 0.057736 0.664604
C129_6 C 0.1060(4) 0.93728(10) 0.62651(12)
H81_6 H 0.121753 0.919183 0.612705
H82_6 H 0.186985 0.950280 0.627445
H83_6 H 0.031631 0.949855 0.618259
C130_6 C 0.0182(4) 0.90096(8) 0.66438(11)
H86_6 H 0.085766 0.884312 0.666098
N27_6 N 0.0747(4) 0.92677(8) 0.65612(8)
H87_6 H 0.153338 0.927216 0.666881
H88_6 H 0.023118 0.942264 0.664604
H84_6 H 0.951358 0.894967 0.648622
H85_6 H 0.974140 0.903849 0.684732
C129_7 C 0.6060(4) 0.06272(10) 0.87349(12)
H81_7 H 0.621753 0.080817 0.887295
H82_7 H 0.686985 0.049720 0.872555
H83_7 H 0.531631 0.050145 0.881741
C130_7 C 0.5182(4) 0.09904(8) 0.83562(11)
H84_7 H 0.451358 0.105033 0.851378
H85_7 H 0.474140 0.096151 0.815268
H86_7 H 0.585766 0.115688 0.833902
N27_7 N 0.5747(4) 0.07323(8) 0.84388(8)
H87_7 H 0.653338 0.072784 0.833119
H88_7 H 0.523118 0.057736 0.835396
H84_8 H 0.048642 0.894967 0.851378
H85_8 H 0.025860 0.903849 0.815268
C129_8 C 0.8940(4) 0.93728(10) 0.87349(12)
H81_8 H 0.878247 0.919183 0.887295
H82_8 H 0.813015 0.950280 0.872555
H83_8 H 0.968369 0.949855 0.881741
C130_8 C 0.9818(4) 0.90096(8) 0.83562(11)
H86_8 H 0.914234 0.884312 0.833902
N27_8 N 0.9253(4) 0.92677(8) 0.84388(8)
H87_8 H 0.846662 0.927216 0.833119
H88_8 H 0.976882 0.942264 0.835396
C129_9 C 0.1060(4) 0.43728(10) 0.37349(12)
H81_9 H 0.121753 0.419183 0.387295
H82_9 H 0.186985 0.450280 0.372555
H83_9 H 0.031631 0.449855 0.381741
C130_9 C 0.0182(4) 0.40096(8) 0.33562(11)
H86_9 H 0.085766 0.384312 0.333902
N27_9 N 0.0747(4) 0.42677(8) 0.34388(8)
H87_9 H 0.153338 0.427216 0.333119
H88_9 H 0.023118 0.442264 0.335396
H84_9 H 0.951358 0.394967 0.351378
H85_9 H 0.974140 0.403849 0.315268
C129_10 C 0.3940(4) 0.56272(10) 0.37349(12)
H81_10 H 0.378247 0.580817 0.387295
H82_10 H 0.313015 0.549720 0.372555
H83_10 H 0.468369 0.550145 0.381741
C130_10 C 0.4818(4) 0.59904(8) 0.33562(11)
H84_10 H 0.548642 0.605033 0.351378
H85_10 H 0.525860 0.596151 0.315268
H86_10 H 0.414234 0.615688 0.333902
N27_10 N 0.4253(4) 0.57323(8) 0.34388(8)
H87_10 H 0.346662 0.572784 0.333119
H88_10 H 0.476882 0.557736 0.335396
H84_11 H 0.048642 0.394967 0.148622
H85_11 H 0.025860 0.403849 0.184732
C129_11 C 0.8940(4) 0.43728(10) 0.12651(12)
H81_11 H 0.878247 0.419183 0.112705
H82_11 H 0.813015 0.450280 0.127445
H83_11 H 0.968369 0.449855 0.118259
C130_11 C 0.9818(4) 0.40096(8) 0.16438(11)
H86_11 H 0.914234 0.384312 0.166098
N27_11 N 0.9253(4) 0.42677(8) 0.15612(8)
H87_11 H 0.846662 0.427216 0.166881
H88_11 H 0.976882 0.442264 0.164604
C129_12 C 0.6060(4) 0.56272(10) 0.12651(12)
H81_12 H 0.621753 0.580817 0.112705
H82_12 H 0.686985 0.549720 0.127445
H83_12 H 0.531631 0.550145 0.118259
C130_12 C 0.5182(4) 0.59904(8) 0.16438(11)
H84_12 H 0.451358 0.605033 0.148622
H85_12 H 0.474140 0.596151 0.184732
H86_12 H 0.585766 0.615688 0.166098
N27_12 N 0.5747(4) 0.57323(8) 0.15612(8)
H87_12 H 0.653338 0.572784 0.166881
H88_12 H 0.523118 0.557736 0.164604
C129_13 C 0.6060(4) 0.93728(10) 0.37349(12)
H81_13 H 0.621753 0.919183 0.387295
H82_13 H 0.686985 0.950280 0.372555
H83_13 H 0.531631 0.949855 0.381741
C130_13 C 0.5182(4) 0.90096(8) 0.33562(11)
H84_13 H 0.451358 0.894967 0.351378
H85_13 H 0.474140 0.903849 0.315268
H86_13 H 0.585766 0.884312 0.333902
N27_13 N 0.5747(4) 0.92677(8) 0.34388(8)
H87_13 H 0.653338 0.927216 0.333119
H88_13 H 0.523118 0.942264 0.335396
H84_14 H 0.048642 0.105033 0.351378
H85_14 H 0.025860 0.096151 0.315268
C129_14 C 0.8940(4) 0.06272(10) 0.37349(12)
H81_14 H 0.878247 0.080817 0.387295
H82_14 H 0.813015 0.049720 0.372555
H83_14 H 0.968369 0.050145 0.381741
C130_14 C 0.9818(4) 0.09904(8) 0.33562(11)
H86_14 H 0.914234 0.115688 0.333902
N27_14 N 0.9253(4) 0.07323(8) 0.34388(8)
H87_14 H 0.846662 0.072784 0.333119
H88_14 H 0.976882 0.057736 0.335396
C129_15 C 0.3940(4) 0.93728(10) 0.12651(12)
H81_15 H 0.378247 0.919183 0.112705
H82_15 H 0.313015 0.950280 0.127445
H83_15 H 0.468369 0.949855 0.118259
C130_15 C 0.4818(4) 0.90096(8) 0.16438(11)
H84_15 H 0.548642 0.894967 0.148622
H85_15 H 0.525860 0.903849 0.184732
H86_15 H 0.414234 0.884312 0.166098
N27_15 N 0.4253(4) 0.92677(8) 0.15612(8)
H87_15 H 0.346662 0.927216 0.166881
H88_15 H 0.476882 0.942264 0.164604
C129_16 C 0.1060(4) 0.06272(10) 0.12651(12)
H81_16 H 0.121753 0.080817 0.112705
H82_16 H 0.186985 0.049720 0.127445
H83_16 H 0.031631 0.050145 0.118259
C130_16 C 0.0182(4) 0.09904(8) 0.16438(11)
H86_16 H 0.085766 0.115688 0.166098
N27_16 N 0.0747(4) 0.07323(8) 0.15612(8)
H87_16 H 0.153338 0.072784 0.166881
H88_16 H 0.023118 0.057736 0.164604
H84_16 H 0.951358 0.105033 0.148622
H85_16 H 0.974140 0.096151 0.184732
loop_
_geom_bond_atom_site_label_1
_geom_bond_atom_site_label_2
_geom_bond_site_symmetry_1
_geom_bond_site_symmetry_2
H73 C118 1_555 1_555
C119 C118 1_555 1_555
H74 C119 1_555 1_555
C120 C119 1_555 1_555
C123 C120 1_555 1_555
O16 C123 1_555 1_555
O17 C123 1_555 1_555
Zn13 O17 1_555 1_555
C65 C66 1_555 1_555
C66 C67 1_555 1_555
C67 H41 1_555 1_555
C68 C67 1_555 1_555
H42 C68 1_555 1_555
C69 C68 1_555 1_555
C70 C69 1_555 1_555
H43 C70 1_555 1_555
C71 C66 1_555 1_555
C72 C69 1_555 1_555
C73 C72 1_555 1_555
H45 C73 1_555 1_555
C76 C75 1_555 1_555
H47 C76 1_555 1_555
C77 C72 1_555 1_555
H48 C77 1_555 1_555
O10 C65 1_555 1_555
O11 C65 1_555 1_555
C98 C99 1_555 1_555
C99 C100 1_555 1_555
C100 H61 1_555 1_555
C101 C100 1_555 1_555
H62 C101 1_555 1_555
C102 C101 1_555 1_555
C103 C102 1_555 1_555
H63 C103 1_555 1_555
C104 C99 1_555 1_555
H64 C104 1_555 1_555
C105 C102 1_555 1_555
C106 C105 1_555 1_555
H65 C106 1_555 1_555
C109 C108 1_555 1_555
H67 C109 1_555 1_555
C110 C105 1_555 1_555
H68 C110 1_555 1_555
O14 C98 1_555 1_555
O15 C98 1_555 1_555
Zn7_2 O10 1_555 1_555
Zn8 O14 1_555 1_555
C70 C71 1_555 1_555
C76 C77 1_555 1_555
C103 C104 1_555 1_555
C109 C110 1_555 1_555
C1 C2 1_555 1_555
C2 C3 1_555 1_555
C3 H1 1_555 1_555
C4 C3 1_555 1_555
H2 C4 1_555 1_555
C5 C4 1_555 1_555
C6 C5 1_555 1_555
H3 C6 1_555 1_555
C7 C2 1_555 1_555
C8 C5 1_555 1_555
C9 C8 1_555 1_555
H5 C9 1_555 1_555
C10 C9 1_555 1_555
H6 C10 1_555 1_555
C11 C10 1_555 1_555
C12 C11 1_555 1_555
H7 C12 1_555 1_555
C13 C8 1_555 1_555
H8 C13 1_555 1_555
C14 C11 1_555 1_555
C15 C14 1_555 1_555
C16 C15 1_555 1_555
C17 C16 1_555 1_555
H9 C17 1_555 1_555
C18 C17 1_555 1_555
H10 C18 1_555 1_555
C19 C18 1_555 1_555
C20 C19 1_555 1_555
H11 C20 1_555 1_555
C21 C16 1_555 1_555
H12 C21 1_555 1_555
C22 C19 1_555 1_555
C23 C22 1_555 1_555
H13 C23 1_555 1_555
C24 C23 1_555 1_555
H14 C24 1_555 1_555
C25 C24 1_555 1_555
C26 C25 1_555 1_555
H15 C26 1_555 1_555
C27 C22 1_555 1_555
H16 C27 1_555 1_555
C28 C25 1_555 1_555
C29 H17 1_555 1_555
C30 C31 1_555 1_555
C31 N3 1_555 1_555
C32 H18 1_555 1_555
C33 C30 1_555 1_555
N1 C29 1_555 1_555
N2 C29 1_555 1_555
N3 C32 1_555 1_555
N4 C32 1_555 1_555
N5 C31 1_555 1_555
O1 C1 1_555 1_555
O2 C1 1_555 1_555
O3 C28 1_555 1_555
O4 C28 1_555 1_555
O5 Zn2 1_555 1_555
Zn1 O1 1_555 1_555
Zn2 N1 1_555 1_555
C34 C35 1_555 1_555
C35 C36 1_555 1_555
C36 H21 1_555 1_555
C37 C36 1_555 1_555
H22 C37 1_555 1_555
C38 C37 1_555 1_555
C39 C38 1_555 1_555
H23 C39 1_555 1_555
C40 C35 1_555 1_555
H24 C40 1_555 1_555
C41 C38 1_555 1_555
C42 C41 1_555 1_555
H25 C42 1_555 1_555
C43 C42 1_555 1_555
H26 C43 1_555 1_555
C44 C14 1_555 1_555
C45 C44 1_555 1_555
H27 C45 1_555 1_555
C46 C41 1_555 1_555
H28 C46 1_555 1_555
C47 C15 1_555 1_555
C48 C47 1_555 1_555
H29 C48 1_555 1_555
C49 C48 1_555 1_555
C50 C49 1_555 1_555
C51 C50 1_555 1_555
H31 C51 1_555 1_555
C52 C47 1_555 1_555
H32 C52 1_555 1_555
C53 C50 1_555 1_555
H35 C57 1_555 1_555
C58 C53 1_555 1_555
H36 C58 1_555 1_555
O6 C34 1_555 1_555
O7 C34 1_555 1_555
Zn3 O6 1_555 1_555
H46 C74 1_555 1_555
C79 C78 1_555 1_555
C80 C79 1_555 1_555
C81 C80 1_555 1_555
H49 C81 1_555 1_555
C82 C81 1_555 1_555
H50 C82 1_555 1_555
C83 C82 1_555 1_555
C84 C83 1_555 1_555
H51 C84 1_555 1_555
C85 C80 1_555 1_555
H52 C85 1_555 1_555
C86 C83 1_555 1_555
C87 C86 1_555 1_555
H53 C87 1_555 1_555
C88 C87 1_555 1_555
H54 C88 1_555 1_555
C89 C88 1_555 1_555
C90 C89 1_555 1_555
H55 C90 1_555 1_555
C91 C86 1_555 1_555
H56 C91 1_555 1_555
C92 C89 1_555 1_555
C93 H57 1_555 1_555
C94 C95 1_555 1_555
C95 N13 1_555 1_555
C96 H58 1_555 1_555
C97 C94 1_555 1_555
N11 C93 1_555 1_555
N12 C93 1_555 1_555
N13 C96 1_555 1_555
N14 C96 1_555 1_555
N15 C95 1_555 1_555
O12 C92 1_555 1_555
O13 C92 1_555 1_555
Zn5 O5 1_555 1_555
H66 C107 1_555 1_555
C111 C79 1_555 1_555
C112 C111 1_555 1_555
H69 C112 1_555 1_555
C113 C112 1_555 1_555
C114 C113 1_555 1_555
C115 C114 1_555 1_555
H71 C115 1_555 1_555
C116 C111 1_555 1_555
H72 C116 1_555 1_555
C117 C114 1_555 1_555
H75 C121 1_555 1_555
C122 C117 1_555 1_555
H76 C122 1_555 1_555
C124 H77 1_555 1_555
C125 C126 1_555 1_555
C126 N18 1_555 1_555
C127 H78 1_555 1_555
C128 C125 1_555 1_555
N16 C124 1_555 1_555
N17 C124 1_555 1_555
N18 C127 1_555 1_555
N19 Zn2 1_555 1_555
N20 C126 1_555 1_555
Zn6 N4 1_555 1_555
N21 Zn1 1_555 1_555
N22 Zn3 1_555 1_555
N23 Zn3 1_555 1_555
N25 Zn5 1_555 1_555
O18 Zn3 1_555 1_555
O20 Zn6 1_555 1_555
Zn9_2 N2 1_555 1_555
Zn12 N12 1_555 1_555
Zn12_2 N17 1_555 1_555
Zn14 O5 1_555 1_555
C6 C7 1_555 1_555
C12 C13 1_555 1_555
C20 C21 1_555 1_555
C26 C27 1_555 1_555
C30 N2 1_555 1_555
C33 N1 1_555 1_555
C33 N4 1_555 1_555
O4 Zn2 1_555 1_555
O5 Zn6 1_555 1_555
C39 C40 1_555 1_555
C43 C44 1_555 1_555
C45 C46 1_555 1_555
C51 C52 1_555 1_555
C57 C58 1_555 1_555
C84 C85 1_555 1_555
C90 C91 1_555 1_555
C94 N12 1_555 1_555
C97 N11 1_555 1_555
C97 N14 1_555 1_555
N11 Zn5 1_555 1_555
N14 Zn14 1_555 1_555
O13 Zn5 1_555 1_555
C115 C116 1_555 1_555
C121 C122 1_555 1_555
C125 N17 1_555 1_555
C127 N19 1_555 1_555
C128 N16 1_555 1_555
C128 N19 1_555 1_555
N16 Zn6 1_555 1_555
H33 C54 1_555 1_555
C55 C54 1_555 1_555
H34 C55 1_555 1_555
C56 C55 1_555 1_555
C59 C56 1_555 1_555
O8 C59 1_555 1_555
O9 C59 1_555 1_555
C60 H37 1_555 1_555
C61 C62 1_555 1_555
C62 N8 1_555 1_555
C63 H38 1_555 1_555
C64 C61 1_555 1_555
N6 C60 1_555 1_555
N7 C60 1_555 1_555
N8 C63 1_555 1_555
N9 C63 1_555 1_555
N10 C62 1_555 1_555
H39 N10 1_555 1_555
H40 N10 1_555 1_555
Zn4 O9 1_555 1_555
N24 Zn1_2 1_555 1_555
N26 Zn4 1_555 1_555
O19 Zn1_2 1_555 1_555
O21_2 Zn4 1_555 1_555
Zn10 N7 1_555 1_555
Zn15 N9 1_555 1_555
C61 N7 1_555 1_555
C64 N6 1_555 1_555
C64 N9 1_555 1_555
N6 Zn4 1_555 1_555
O21_2 Zn15 1_555 1_555
C93_2 H57_2 1_555 1_555
C94_2 C95_2 1_555 1_555
C95_2 N13_2 1_555 1_555
C96_2 H58_2 1_555 1_555
C97_2 C94_2 1_555 1_555
N11_2 C93_2 1_555 1_555
N12_2 C93_2 1_555 1_555
N13_2 C96_2 1_555 1_555
N14_2 C96_2 1_555 1_555
N15_2 C95_2 1_555 1_555
H59_2 N15_2 1_555 1_555
H60_2 N15_2 1_555 1_555
Zn13 O21 1_555 1_555
N25_2 Zn13 1_555 1_555
Zn11 N12_2 1_555 1_555
Zn14_2 O21 1_555 1_555
C94_2 N12_2 1_555 1_555
C97_2 N11_2 1_555 1_555
C97_2 N14_2 1_555 1_555
N11_2 Zn13 1_555 1_555
N14_2 Zn14_2 1_555 1_555
C124_2 H77_2 1_555 1_555
C125_2 C126_2 1_555 1_555
C126_2 N18_2 1_555 1_555
C127_2 H78_2 1_555 1_555
C128_2 C125_2 1_555 1_555
N16_2 C124_2 1_555 1_555
N17_2 C124_2 1_555 1_555
N18_2 C127_2 1_555 1_555
N20_2 C126_2 1_555 1_555
H79_2 N20_2 1_555 1_555
H80_2 N20_2 1_555 1_555
O20_2 Zn15 1_555 1_555
Zn11 N17_2 1_555 1_555
C125_2 N17_2 1_555 1_555
C127_2 N26 1_555 1_555
C128_2 N16_2 1_555 1_555
C128_2 N26 1_555 1_555
N16_2 Zn15 1_555 1_555
N24_2 Zn7 1_555 1_555
O19_2 Zn7 1_555 1_555
N21_2 Zn7_2 1_555 1_555
N22_2 Zn8 1_555 1_555
N23_2 Zn8 1_555 1_555
O18_2 Zn8 1_555 1_555
C124_3 H77_3 1_555 1_555
C125_3 C126_3 1_555 1_555
C126_3 N18_3 1_555 1_555
C127_3 H78_3 1_555 1_555
C128_3 C125_3 1_555 1_555
N16_3 C124_3 1_555 1_555
N17_3 C124_3 1_555 1_555
N18_3 C127_3 1_555 1_555
N20_3 C126_3 1_555 1_555
O20_3 Zn14 1_555 1_555
Zn9 N17_3 1_555 1_555
C125_3 N17_3 1_555 1_555
C127_3 N25 1_555 1_555
C128_3 N16_3 1_555 1_555
C128_3 N25 1_555 1_555
N16_3 Zn14 1_555 1_555
C124_4 H77_4 1_555 1_555
C125_4 C126_4 1_555 1_555
C126_4 N18_4 1_555 1_555
C127_4 H78_4 1_555 1_555
C128_4 C125_4 1_555 1_555
N16_4 C124_4 1_555 1_555
N17_4 C124_4 1_555 1_555
N18_4 C127_4 1_555 1_555
N20_4 C126_4 1_555 1_555
H79_4 N20_4 1_555 1_555
H80_4 N20_4 1_555 1_555
O20_4 Zn14_2 1_555 1_555
Zn10 N17_4 1_555 1_555
C125_4 N17_4 1_555 1_555
C127_4 N25_2 1_555 1_555
C128_4 N16_4 1_555 1_555
C128_4 N25_2 1_555 1_555
N16_4 Zn14_2 1_555 1_555
C98_2 C99_2 1_555 1_555
C99_2 C100_2 1_555 1_555
C100_2 H61_2 1_555 1_555
C101_2 C100_2 1_555 1_555
H62_2 C101_2 1_555 1_555
C102_2 C101_2 1_555 1_555
C103_2 C102_2 1_555 1_555
H63_2 C103_2 1_555 1_555
C104_2 C99_2 1_555 1_555
C105_2 C102_2 1_555 1_555
C106_2 C105_2 1_555 1_555
H65_2 C106_2 1_555 1_555
C109_2 C108_2 1_555 1_555
H67_2 C109_2 1_555 1_555
C110_2 C105_2 1_555 1_555
H68_2 C110_2 1_555 1_555
O19_2 C98_2 1_555 1_555
O15_2 C98_2 1_555 1_555
C103_2 C104_2 1_555 1_555
C109_2 C110_2 1_555 1_555
H13_2 C23_2 1_555 1_555
C24_2 C23_2 1_555 1_555
H14_2 C24_2 1_555 1_555
C25_2 C24_2 1_555 1_555
C28_2 C25_2 1_555 1_555
O3_2 C28_2 1_555 1_555
O20_4 C28_2 1_555 1_555
C79_2 C78_2 1_555 1_555
C80_2 C79_2 1_555 1_555
C81_2 C80_2 1_555 1_555
H49_2 C81_2 1_555 1_555
C82_2 C81_2 1_555 1_555
C83_2 C82_2 1_555 1_555
C84_2 C83_2 1_555 1_555
H51_2 C84_2 1_555 1_555
C85_2 C80_2 1_555 1_555
H52_2 C85_2 1_555 1_555
C86_2 C83_2 1_555 1_555
H55_2 C90_2 1_555 1_555
C91_2 C86_2 1_555 1_555
H56_2 C91_2 1_555 1_555
H66_2 C107_2 1_555 1_555
C84_2 C85_2 1_555 1_555
C90_2 C91_2 1_555 1_555
C65_2 C66_2 1_555 1_555
C66_2 C67_2 1_555 1_555
C67_2 H41_2 1_555 1_555
C68_2 C67_2 1_555 1_555
H42_2 C68_2 1_555 1_555
C69_2 C68_2 1_555 1_555
C70_2 C69_2 1_555 1_555
H43_2 C70_2 1_555 1_555
C71_2 C66_2 1_555 1_555
H44_2 C71_2 1_555 1_555
C72_2 C69_2 1_555 1_555
C73_2 C72_2 1_555 1_555
H45_2 C73_2 1_555 1_555
C76_2 C75_2 1_555 1_555
H47_2 C76_2 1_555 1_555
C77_2 C72_2 1_555 1_555
H48_2 C77_2 1_555 1_555
O18_2 C65_2 1_555 1_555
O11_2 C65_2 1_555 1_555
C70_2 C71_2 1_555 1_555
C76_2 C77_2 1_555 1_555
H46_2 C74_2 1_555 1_555
C79_3 C78_3 1_555 1_555
C111_2 C79_3 1_555 1_555
C112_2 C111_2 1_555 1_555
H69_2 C112_2 1_555 1_555
C113_2 C112_2 1_555 1_555
H70_2 C113_2 1_555 1_555
C114_2 C113_2 1_555 1_555
C115_2 C114_2 1_555 1_555
H71_2 C115_2 1_555 1_555
C116_2 C111_2 1_555 1_555
H72_2 C116_2 1_555 1_555
C117_2 C114_2 1_555 1_555
C118_2 C117_2 1_555 1_555
H73_2 C118_2 1_555 1_555
C119_2 C118_2 1_555 1_555
H74_2 C119_2 1_555 1_555
C120_2 C119_2 1_555 1_555
C121_2 C120_2 1_555 1_555
H75_2 C121_2 1_555 1_555
C122_2 C117_2 1_555 1_555
H76_2 C122_2 1_555 1_555
C123_2 C120_2 1_555 1_555
O16_2 C123_2 1_555 1_555
O20 C123_2 1_555 1_555
C115_2 C116_2 1_555 1_555
C121_2 C122_2 1_555 1_555
C15_2 C14_2 1_555 1_555
C16_2 C15_2 1_555 1_555
C17_2 C16_2 1_555 1_555
H9_2 C17_2 1_555 1_555
C18_2 C17_2 1_555 1_555
C19_2 C18_2 1_555 1_555
C20_2 C19_2 1_555 1_555
H11_2 C20_2 1_555 1_555
C21_2 C16_2 1_555 1_555
H12_2 C21_2 1_555 1_555
C22_2 C19_2 1_555 1_555
H15_2 C26_2 1_555 1_555
C27_2 C22_2 1_555 1_555
H16_2 C27_2 1_555 1_555
C34_2 C35_2 1_555 1_555
C35_2 C36_2 1_555 1_555
C36_2 H21_2 1_555 1_555
C37_2 C36_2 1_555 1_555
H22_2 C37_2 1_555 1_555
C38_2 C37_2 1_555 1_555
C39_2 C38_2 1_555 1_555
H23_2 C39_2 1_555 1_555
C40_2 C35_2 1_555 1_555
C41_2 C38_2 1_555 1_555
C42_2 C41_2 1_555 1_555
H25_2 C42_2 1_555 1_555
C43_2 C42_2 1_555 1_555
H26_2 C43_2 1_555 1_555
C44_2 C14_2 1_555 1_555
C45_2 C44_2 1_555 1_555
H27_2 C45_2 1_555 1_555
C46_2 C41_2 1_555 1_555
H28_2 C46_2 1_555 1_555
O19 C34_2 1_555 1_555
O7_2 C34_2 1_555 1_555
H53_2 C87_2 1_555 1_555
C88_2 C87_2 1_555 1_555
H54_2 C88_2 1_555 1_555
C89_2 C88_2 1_555 1_555
C92_2 C89_2 1_555 1_555
O12_2 C92_2 1_555 1_555
O20_2 C92_2 1_555 1_555
C20_2 C21_2 1_555 1_555
C26_2 C27_2 1_555 1_555
C39_2 C40_2 1_555 1_555
C43_2 C44_2 1_555 1_555
C45_2 C46_2 1_555 1_555
C1_2 C2_2 1_555 1_555
C2_2 C3_2 1_555 1_555
C3_2 H1_2 1_555 1_555
C4_2 C3_2 1_555 1_555
H2_2 C4_2 1_555 1_555
C5_2 C4_2 1_555 1_555
C6_2 C5_2 1_555 1_555
H3_2 C6_2 1_555 1_555
C7_2 C2_2 1_555 1_555
H4_2 C7_2 1_555 1_555
C8_2 C5_2 1_555 1_555
C9_2 C8_2 1_555 1_555
H5_2 C9_2 1_555 1_555
C10_2 C9_2 1_555 1_555
H6_2 C10_2 1_555 1_555
C11_2 C10_2 1_555 1_555
C12_2 C11_2 1_555 1_555
H7_2 C12_2 1_555 1_555
C13_2 C8_2 1_555 1_555
H8_2 C13_2 1_555 1_555
C14_3 C11_2 1_555 1_555
C15_3 C14_3 1_555 1_555
O18 C1_2 1_555 1_555
O2_2 C1_2 1_555 1_555
C47_2 C15_3 1_555 1_555
C48_2 C47_2 1_555 1_555
H29_2 C48_2 1_555 1_555
C49_2 C48_2 1_555 1_555
H30_2 C49_2 1_555 1_555
C50_2 C49_2 1_555 1_555
C51_2 C50_2 1_555 1_555
H31_2 C51_2 1_555 1_555
C52_2 C47_2 1_555 1_555
H32_2 C52_2 1_555 1_555
C53_2 C50_2 1_555 1_555
C54_2 C53_2 1_555 1_555
H33_2 C54_2 1_555 1_555
C55_2 C54_2 1_555 1_555
H34_2 C55_2 1_555 1_555
C56_2 C55_2 1_555 1_555
C57_2 C56_2 1_555 1_555
H35_2 C57_2 1_555 1_555
C58_2 C53_2 1_555 1_555
H36_2 C58_2 1_555 1_555
C59_2 C56_2 1_555 1_555
O8_2 C59_2 1_555 1_555
O20_3 C59_2 1_555 1_555
C6_2 C7_2 1_555 1_555
C12_2 C13_2 1_555 1_555
C51_2 C52_2 1_555 1_555
C57_2 C58_2 1_555 1_555
H33_3 C54_3 1_555 1_555
C55_3 C54_3 1_555 1_555
H34_3 C55_3 1_555 1_555
C56_3 C55_3 1_555 1_555
C59_3 C56_3 1_555 1_555
O8_3 C59_3 1_555 1_555
O9_2 C59_3 1_555 1_555
C60_2 H37_2 1_555 1_555
C61_2 C62_2 1_555 1_555
C62_2 N8_2 1_555 1_555
C63_2 H38_2 1_555 1_555
C64_2 C61_2 1_555 1_555
N6_2 C60_2 1_555 1_555
N22 C60_2 1_555 1_555
N8_2 C63_2 1_555 1_555
N9_2 C63_2 1_555 1_555
N10_2 C62_2 1_555 1_555
H39_2 N10_2 1_555 1_555
H40_2 N10_2 1_555 1_555
Zn4_2 O9_2 1_555 1_555
N26_2 Zn4_2 1_555 1_555
O19_3 Zn9 1_555 1_555
O21_3 Zn4_2 1_555 1_555
Zn15_2 N9_2 1_555 1_555
C61_2 N22 1_555 1_555
C64_2 N6_2 1_555 1_555
C64_2 N9_2 1_555 1_555
N6_2 Zn4_2 1_555 1_555
O21_3 Zn15_2 1_555 1_555
C1_3 C2_3 1_555 1_555
C2_3 C3_3 1_555 1_555
C3_3 H1_3 1_555 1_555
C4_3 C3_3 1_555 1_555
H2_3 C4_3 1_555 1_555
C5_3 C4_3 1_555 1_555
C6_3 C5_3 1_555 1_555
H3_3 C6_3 1_555 1_555
C7_3 C2_3 1_555 1_555
C8_3 C5_3 1_555 1_555
C9_3 C8_3 1_555 1_555
H5_3 C9_3 1_555 1_555
C10_3 C9_3 1_555 1_555
H6_3 C10_3 1_555 1_555
C11_3 C10_3 1_555 1_555
C12_3 C11_3 1_555 1_555
H7_3 C12_3 1_555 1_555
C13_3 C8_3 1_555 1_555
H8_3 C13_3 1_555 1_555
C14_4 C11_3 1_555 1_555
C15_4 C14_4 1_555 1_555
C16_3 C15_4 1_555 1_555
C17_3 C16_3 1_555 1_555
H9_3 C17_3 1_555 1_555
C18_3 C17_3 1_555 1_555
H10_3 C18_3 1_555 1_555
C19_3 C18_3 1_555 1_555
C20_3 C19_3 1_555 1_555
H11_3 C20_3 1_555 1_555
C21_3 C16_3 1_555 1_555
H12_3 C21_3 1_555 1_555
C22_3 C19_3 1_555 1_555
C23_3 C22_3 1_555 1_555
H13_3 C23_3 1_555 1_555
C24_3 C23_3 1_555 1_555
H14_3 C24_3 1_555 1_555
C25_3 C24_3 1_555 1_555
C26_3 C25_3 1_555 1_555
H15_3 C26_3 1_555 1_555
C27_3 C22_3 1_555 1_555
H16_3 C27_3 1_555 1_555
C28_3 C25_3 1_555 1_555
C29_2 H17_2 1_555 1_555
C30_2 C31_2 1_555 1_555
C31_2 N3_2 1_555 1_555
C32_2 H18_2 1_555 1_555
C33_2 C30_2 1_555 1_555
N1_2 C29_2 1_555 1_555
N21 C29_2 1_555 1_555
N3_2 C32_2 1_555 1_555
N4_2 C32_2 1_555 1_555
N5_2 C31_2 1_555 1_555
O1_2 C1_3 1_555 1_555
O2_3 C1_3 1_555 1_555
O3_3 C28_3 1_555 1_555
O4_2 C28_3 1_555 1_555
O5_2 Zn2_2 1_555 1_555
Zn9_2 O1_2 1_555 1_555
Zn2_2 N1_2 1_555 1_555
C34_3 C35_3 1_555 1_555
C35_3 C36_3 1_555 1_555
C36_3 H21_3 1_555 1_555
C37_3 C36_3 1_555 1_555
H22_3 C37_3 1_555 1_555
C38_3 C37_3 1_555 1_555
C39_3 C38_3 1_555 1_555
H23_3 C39_3 1_555 1_555
C40_3 C35_3 1_555 1_555
H24_3 C40_3 1_555 1_555
C41_3 C38_3 1_555 1_555
C42_3 C41_3 1_555 1_555
H25_3 C42_3 1_555 1_555
C43_3 C42_3 1_555 1_555
H26_3 C43_3 1_555 1_555
C44_3 C14_4 1_555 1_555
C45_3 C44_3 1_555 1_555
H27_3 C45_3 1_555 1_555
C46_3 C41_3 1_555 1_555
H28_3 C46_3 1_555 1_555
C47_3 C15_4 1_555 1_555
C48_3 C47_3 1_555 1_555
H29_3 C48_3 1_555 1_555
C49_3 C48_3 1_555 1_555
C50_3 C49_3 1_555 1_555
C51_3 C50_3 1_555 1_555
H31_3 C51_3 1_555 1_555
C52_3 C47_3 1_555 1_555
H32_3 C52_3 1_555 1_555
C53_3 C50_3 1_555 1_555
H35_3 C57_3 1_555 1_555
C58_3 C53_3 1_555 1_555
H36_3 C58_3 1_555 1_555
O6_2 C34_3 1_555 1_555
O7_3 C34_3 1_555 1_555
Zn10 O6_2 1_555 1_555
H46_3 C74_3 1_555 1_555
C79_4 C78_4 1_555 1_555
C80_3 C79_4 1_555 1_555
C81_3 C80_3 1_555 1_555
H49_3 C81_3 1_555 1_555
C82_3 C81_3 1_555 1_555
H50_3 C82_3 1_555 1_555
C83_3 C82_3 1_555 1_555
C84_3 C83_3 1_555 1_555
H51_3 C84_3 1_555 1_555
C85_3 C80_3 1_555 1_555
H52_3 C85_3 1_555 1_555
C86_3 C83_3 1_555 1_555
C87_3 C86_3 1_555 1_555
H53_3 C87_3 1_555 1_555
C88_3 C87_3 1_555 1_555
H54_3 C88_3 1_555 1_555
C89_3 C88_3 1_555 1_555
C90_3 C89_3 1_555 1_555
H55_3 C90_3 1_555 1_555
C91_3 C86_3 1_555 1_555
H56_3 C91_3 1_555 1_555
C92_3 C89_3 1_555 1_555
C93_3 H57_3 1_555 1_555
C94_3 C95_3 1_555 1_555
C95_3 N13_3 1_555 1_555
C96_3 H58_3 1_555 1_555
C97_3 C94_3 1_555 1_555
N11_3 C93_3 1_555 1_555
N21_2 C93_3 1_555 1_555
N13_3 C96_3 1_555 1_555
N14_3 C96_3 1_555 1_555
N15_3 C95_3 1_555 1_555
O12_3 C92_3 1_555 1_555
O13_2 C92_3 1_555 1_555
Zn5_2 O5_2 1_555 1_555
H66_3 C107_3 1_555 1_555
C111_3 C79_4 1_555 1_555
C112_3 C111_3 1_555 1_555
H69_3 C112_3 1_555 1_555
C113_3 C112_3 1_555 1_555
C114_3 C113_3 1_555 1_555
C115_3 C114_3 1_555 1_555
H71_3 C115_3 1_555 1_555
C116_3 C111_3 1_555 1_555
H72_3 C116_3 1_555 1_555
C117_3 C114_3 1_555 1_555
H75_3 C121_3 1_555 1_555
C122_3 C117_3 1_555 1_555
H76_3 C122_3 1_555 1_555
C124_5 H77_5 1_555 1_555
C125_5 C126_5 1_555 1_555
C126_5 N18_5 1_555 1_555
C127_5 H78_5 1_555 1_555
C128_5 C125_5 1_555 1_555
N16_5 C124_5 1_555 1_555
N24_2 C124_5 1_555 1_555
N18_5 C127_5 1_555 1_555
N19_2 Zn2_2 1_555 1_555
N20_5 C126_5 1_555 1_555
Zn6_2 N4_2 1_555 1_555
N25_3 Zn5_2 1_555 1_555
O18_3 Zn10 1_555 1_555
O20_5 Zn6_2 1_555 1_555
Zn14_3 O5_2 1_555 1_555
C6_3 C7_3 1_555 1_555
C12_3 C13_3 1_555 1_555
C20_3 C21_3 1_555 1_555
C26_3 C27_3 1_555 1_555
C30_2 N21 1_555 1_555
C33_2 N1_2 1_555 1_555
C33_2 N4_2 1_555 1_555
O4_2 Zn2_2 1_555 1_555
O5_2 Zn6_2 1_555 1_555
C39_3 C40_3 1_555 1_555
C43_3 C44_3 1_555 1_555
C45_3 C46_3 1_555 1_555
C51_3 C52_3 1_555 1_555
C57_3 C58_3 1_555 1_555
C84_3 C85_3 1_555 1_555
C90_3 C91_3 1_555 1_555
C94_3 N21_2 1_555 1_555
C97_3 N11_3 1_555 1_555
C97_3 N14_3 1_555 1_555
N11_3 Zn5_2 1_555 1_555
N14_3 Zn14_3 1_555 1_555
O13_2 Zn5_2 1_555 1_555
C115_3 C116_3 1_555 1_555
C121_3 C122_3 1_555 1_555
C125_5 N24_2 1_555 1_555
C127_5 N19_2 1_555 1_555
C128_5 N16_5 1_555 1_555
C128_5 N19_2 1_555 1_555
N16_5 Zn6_2 1_555 1_555
C65_3 C66_3 1_555 1_555
C66_3 C67_3 1_555 1_555
C67_3 H41_3 1_555 1_555
C68_3 C67_3 1_555 1_555
H42_3 C68_3 1_555 1_555
C69_3 C68_3 1_555 1_555
C70_3 C69_3 1_555 1_555
H43_3 C70_3 1_555 1_555
C71_3 C66_3 1_555 1_555
C72_3 C69_3 1_555 1_555
C73_3 C72_3 1_555 1_555
H45_3 C73_3 1_555 1_555
C76_3 C75_3 1_555 1_555
H47_3 C76_3 1_555 1_555
C77_3 C72_3 1_555 1_555
H48_3 C77_3 1_555 1_555
O10_2 C65_3 1_555 1_555
O11_3 C65_3 1_555 1_555
C98_3 C99_3 1_555 1_555
C99_3 C100_3 1_555 1_555
C100_3 H61_3 1_555 1_555
C101_3 C100_3 1_555 1_555
H62_3 C101_3 1_555 1_555
C102_3 C101_3 1_555 1_555
C103_3 C102_3 1_555 1_555
H63_3 C103_3 1_555 1_555
C104_3 C99_3 1_555 1_555
H64_3 C104_3 1_555 1_555
C105_3 C102_3 1_555 1_555
C106_3 C105_3 1_555 1_555
H65_3 C106_3 1_555 1_555
C109_3 C108_3 1_555 1_555
H67_3 C109_3 1_555 1_555
C110_3 C105_3 1_555 1_555
H68_3 C110_3 1_555 1_555
O14_2 C98_3 1_555 1_555
O15_3 C98_3 1_555 1_555
Zn12 O10_2 1_555 1_555
Zn11 O14_2 1_555 1_555
C70_3 C71_3 1_555 1_555
C76_3 C77_3 1_555 1_555
C103_3 C104_3 1_555 1_555
C109_3 C110_3 1_555 1_555
H73_3 C118_3 1_555 1_555
C119_3 C118_3 1_555 1_555
H74_3 C119_3 1_555 1_555
C120_3 C119_3 1_555 1_555
C123_3 C120_3 1_555 1_555
O16_3 C123_3 1_555 1_555
O17_2 C123_3 1_555 1_555
Zn13_2 O17_2 1_555 1_555
C124_6 H77_6 1_555 1_555
C125_6 C126_6 1_555 1_555
C126_6 N18_6 1_555 1_555
C127_6 H78_6 1_555 1_555
C128_6 C125_6 1_555 1_555
N16_6 C124_6 1_555 1_555
N23_2 C124_6 1_555 1_555
N18_6 C127_6 1_555 1_555
N20_6 C126_6 1_555 1_555
H79_6 N20_6 1_555 1_555
H80_6 N20_6 1_555 1_555
O20_6 Zn15_2 1_555 1_555
C125_6 N23_2 1_555 1_555
C127_6 N26_2 1_555 1_555
C128_6 N16_6 1_555 1_555
C128_6 N26_2 1_555 1_555
N16_6 Zn15_2 1_555 1_555
C93_4 H57_4 1_555 1_555
C94_4 C95_4 1_555 1_555
C95_4 N13_4 1_555 1_555
C96_4 H58_4 1_555 1_555
C97_4 C94_4 1_555 1_555
N11_4 C93_4 1_555 1_555
N22_2 C93_4 1_555 1_555
N13_4 C96_4 1_555 1_555
N14_4 C96_4 1_555 1_555
N15_4 C95_4 1_555 1_555
H59_4 N15_4 1_555 1_555
H60_4 N15_4 1_555 1_555
Zn13_2 O21_4 1_555 1_555
N25_4 Zn13_2 1_555 1_555
Zn14_4 O21_4 1_555 1_555
C94_4 N22_2 1_555 1_555
C97_4 N11_4 1_555 1_555
C97_4 N14_4 1_555 1_555
N11_4 Zn13_2 1_555 1_555
N14_4 Zn14_4 1_555 1_555
C124_7 H77_7 1_555 1_555
C125_7 C126_7 1_555 1_555
C126_7 N18_7 1_555 1_555
C127_7 H78_7 1_555 1_555
C128_7 C125_7 1_555 1_555
N16_7 C124_7 1_555 1_555
N24 C124_7 1_555 1_555
N18_7 C127_7 1_555 1_555
N20_7 C126_7 1_555 1_555
O20_7 Zn14_3 1_555 1_555
C125_7 N24 1_555 1_555
C127_7 N25_3 1_555 1_555
C128_7 N16_7 1_555 1_555
C128_7 N25_3 1_555 1_555
N16_7 Zn14_3 1_555 1_555
O18_4 Zn11 1_555 1_555
O19_4 Zn12_2 1_555 1_555
C124_8 H77_8 1_555 1_555
C125_8 C126_8 1_555 1_555
C126_8 N18_8 1_555 1_555
C127_8 H78_8 1_555 1_555
C128_8 C125_8 1_555 1_555
N16_8 C124_8 1_555 1_555
N23 C124_8 1_555 1_555
N18_8 C127_8 1_555 1_555
N20_8 C126_8 1_555 1_555
H79_8 N20_8 1_555 1_555
H80_8 N20_8 1_555 1_555
O20_8 Zn14_4 1_555 1_555
C125_8 N23 1_555 1_555
C127_8 N25_4 1_555 1_555
C128_8 N16_8 1_555 1_555
C128_8 N25_4 1_555 1_555
N16_8 Zn14_4 1_555 1_555
C1_4 C2_4 1_555 1_555
C2_4 C3_4 1_555 1_555
C3_4 H1_4 1_555 1_555
C4_4 C3_4 1_555 1_555
H2_4 C4_4 1_555 1_555
C5_4 C4_4 1_555 1_555
C6_4 C5_4 1_555 1_555
H3_4 C6_4 1_555 1_555
C7_4 C2_4 1_555 1_555
H4_4 C7_4 1_555 1_555
C8_4 C5_4 1_555 1_555
C9_4 C8_4 1_555 1_555
H5_4 C9_4 1_555 1_555
C10_4 C9_4 1_555 1_555
H6_4 C10_4 1_555 1_555
C11_4 C10_4 1_555 1_555
C12_4 C11_4 1_555 1_555
H7_4 C12_4 1_555 1_555
C13_4 C8_4 1_555 1_555
H8_4 C13_4 1_555 1_555
C14_5 C11_4 1_555 1_555
C15_5 C14_5 1_555 1_555
O18_3 C1_4 1_555 1_555
O2_4 C1_4 1_555 1_555
C47_4 C15_5 1_555 1_555
C48_4 C47_4 1_555 1_555
H29_4 C48_4 1_555 1_555
C49_4 C48_4 1_555 1_555
H30_4 C49_4 1_555 1_555
C50_4 C49_4 1_555 1_555
C51_4 C50_4 1_555 1_555
H31_4 C51_4 1_555 1_555
C52_4 C47_4 1_555 1_555
H32_4 C52_4 1_555 1_555
C53_4 C50_4 1_555 1_555
C54_4 C53_4 1_555 1_555
H33_4 C54_4 1_555 1_555
C55_4 C54_4 1_555 1_555
H34_4 C55_4 1_555 1_555
C56_4 C55_4 1_555 1_555
C57_4 C56_4 1_555 1_555
H35_4 C57_4 1_555 1_555
C58_4 C53_4 1_555 1_555
H36_4 C58_4 1_555 1_555
C59_4 C56_4 1_555 1_555
O8_4 C59_4 1_555 1_555
O20_7 C59_4 1_555 1_555
C6_4 C7_4 1_555 1_555
C12_4 C13_4 1_555 1_555
C51_4 C52_4 1_555 1_555
C57_4 C58_4 1_555 1_555
C15_6 C14_6 1_555 1_555
C16_4 C15_6 1_555 1_555
C17_4 C16_4 1_555 1_555
H9_4 C17_4 1_555 1_555
C18_4 C17_4 1_555 1_555
C19_4 C18_4 1_555 1_555
C20_4 C19_4 1_555 1_555
H11_4 C20_4 1_555 1_555
C21_4 C16_4 1_555 1_555
H12_4 C21_4 1_555 1_555
C22_4 C19_4 1_555 1_555
H15_4 C26_4 1_555 1_555
C27_4 C22_4 1_555 1_555
H16_4 C27_4 1_555 1_555
C34_4 C35_4 1_555 1_555
C35_4 C36_4 1_555 1_555
C36_4 H21_4 1_555 1_555
C37_4 C36_4 1_555 1_555
H22_4 C37_4 1_555 1_555
C38_4 C37_4 1_555 1_555
C39_4 C38_4 1_555 1_555
H23_4 C39_4 1_555 1_555
C40_4 C35_4 1_555 1_555
C41_4 C38_4 1_555 1_555
C42_4 C41_4 1_555 1_555
H25_4 C42_4 1_555 1_555
C43_4 C42_4 1_555 1_555
H26_4 C43_4 1_555 1_555
C44_4 C14_6 1_555 1_555
C45_4 C44_4 1_555 1_555
H27_4 C45_4 1_555 1_555
C46_4 C41_4 1_555 1_555
H28_4 C46_4 1_555 1_555
O19_3 C34_4 1_555 1_555
O7_4 C34_4 1_555 1_555
H53_4 C87_4 1_555 1_555
C88_4 C87_4 1_555 1_555
H54_4 C88_4 1_555 1_555
C89_4 C88_4 1_555 1_555
C92_4 C89_4 1_555 1_555
O12_4 C92_4 1_555 1_555
O20_6 C92_4 1_555 1_555
C20_4 C21_4 1_555 1_555
C26_4 C27_4 1_555 1_555
C39_4 C40_4 1_555 1_555
C43_4 C44_4 1_555 1_555
C45_4 C46_4 1_555 1_555
H46_4 C74_4 1_555 1_555
C79_5 C78_5 1_555 1_555
C111_4 C79_5 1_555 1_555
C112_4 C111_4 1_555 1_555
H69_4 C112_4 1_555 1_555
C113_4 C112_4 1_555 1_555
H70_4 C113_4 1_555 1_555
C114_4 C113_4 1_555 1_555
C115_4 C114_4 1_555 1_555
H71_4 C115_4 1_555 1_555
C116_4 C111_4 1_555 1_555
H72_4 C116_4 1_555 1_555
C117_4 C114_4 1_555 1_555
C118_4 C117_4 1_555 1_555
H73_4 C118_4 1_555 1_555
C119_4 C118_4 1_555 1_555
H74_4 C119_4 1_555 1_555
C120_4 C119_4 1_555 1_555
C121_4 C120_4 1_555 1_555
H75_4 C121_4 1_555 1_555
C122_4 C117_4 1_555 1_555
H76_4 C122_4 1_555 1_555
C123_4 C120_4 1_555 1_555
O16_4 C123_4 1_555 1_555
O20_5 C123_4 1_555 1_555
C115_4 C116_4 1_555 1_555
C121_4 C122_4 1_555 1_555
C65_4 C66_4 1_555 1_555
C66_4 C67_4 1_555 1_555
C67_4 H41_4 1_555 1_555
C68_4 C67_4 1_555 1_555
H42_4 C68_4 1_555 1_555
C69_4 C68_4 1_555 1_555
C70_4 C69_4 1_555 1_555
H43_4 C70_4 1_555 1_555
C71_4 C66_4 1_555 1_555
H44_4 C71_4 1_555 1_555
C72_4 C69_4 1_555 1_555
C73_4 C72_4 1_555 1_555
H45_4 C73_4 1_555 1_555
C76_4 C75_4 1_555 1_555
H47_4 C76_4 1_555 1_555
C77_4 C72_4 1_555 1_555
H48_4 C77_4 1_555 1_555
O18_4 C65_4 1_555 1_555
O11_4 C65_4 1_555 1_555
C70_4 C71_4 1_555 1_555
C76_4 C77_4 1_555 1_555
H13_4 C23_4 1_555 1_555
C24_4 C23_4 1_555 1_555
H14_4 C24_4 1_555 1_555
C25_4 C24_4 1_555 1_555
C28_4 C25_4 1_555 1_555
O3_4 C28_4 1_555 1_555
O20_8 C28_4 1_555 1_555
C79_6 C78_6 1_555 1_555
C80_4 C79_6 1_555 1_555
C81_4 C80_4 1_555 1_555
H49_4 C81_4 1_555 1_555
C82_4 C81_4 1_555 1_555
C83_4 C82_4 1_555 1_555
C84_4 C83_4 1_555 1_555
H51_4 C84_4 1_555 1_555
C85_4 C80_4 1_555 1_555
H52_4 C85_4 1_555 1_555
C86_4 C83_4 1_555 1_555
H55_4 C90_4 1_555 1_555
C91_4 C86_4 1_555 1_555
H56_4 C91_4 1_555 1_555
H66_4 C107_4 1_555 1_555
C84_4 C85_4 1_555 1_555
C90_4 C91_4 1_555 1_555
C98_4 C99_4 1_555 1_555
C99_4 C100_4 1_555 1_555
C100_4 H61_4 1_555 1_555
C101_4 C100_4 1_555 1_555
H62_4 C101_4 1_555 1_555
C102_4 C101_4 1_555 1_555
C103_4 C102_4 1_555 1_555
H63_4 C103_4 1_555 1_555
C104_4 C99_4 1_555 1_555
C105_4 C102_4 1_555 1_555
C106_4 C105_4 1_555 1_555
H65_4 C106_4 1_555 1_555
C109_4 C108_4 1_555 1_555
H67_4 C109_4 1_555 1_555
C110_4 C105_4 1_555 1_555
H68_4 C110_4 1_555 1_555
O19_4 C98_4 1_555 1_555
O15_4 C98_4 1_555 1_555
C103_4 C104_4 1_555 1_555
C109_4 C110_4 1_555 1_555
C129 H81 1_555 1_555
H82 C129 1_555 1_555
H83 C129 1_555 1_555
H86 C130 1_555 1_555
N27 C129 1_555 1_555
H87 N27 1_555 1_555
H88 N27 1_555 1_555
C130 N27 1_555 1_555
C129_2 H81_2 1_555 1_555
H82_2 C129_2 1_555 1_555
H83_2 C129_2 1_555 1_555
C130_2 H84_2 1_555 1_555
H85_2 C130_2 1_555 1_555
H86_2 C130_2 1_555 1_555
N27_2 C129_2 1_555 1_555
H87_2 N27_2 1_555 1_555
H88_2 N27_2 1_555 1_555
C130_2 N27_2 1_555 1_555
C129_3 H81_3 1_555 1_555
H82_3 C129_3 1_555 1_555
H83_3 C129_3 1_555 1_555
H86_3 C130_3 1_555 1_555
N27_3 C129_3 1_555 1_555
H87_3 N27_3 1_555 1_555
H88_3 N27_3 1_555 1_555
C130_3 N27_3 1_555 1_555
C129_4 H81_4 1_555 1_555
H82_4 C129_4 1_555 1_555
H83_4 C129_4 1_555 1_555
C130_4 H84_4 1_555 1_555
H85_4 C130_4 1_555 1_555
H86_4 C130_4 1_555 1_555
N27_4 C129_4 1_555 1_555
H87_4 N27_4 1_555 1_555
H88_4 N27_4 1_555 1_555
C130_4 N27_4 1_555 1_555
C129_5 H81_5 1_555 1_555
H82_5 C129_5 1_555 1_555
H83_5 C129_5 1_555 1_555
C130_5 H84_5 1_555 1_555
H85_5 C130_5 1_555 1_555
H86_5 C130_5 1_555 1_555
N27_5 C129_5 1_555 1_555
H87_5 N27_5 1_555 1_555
H88_5 N27_5 1_555 1_555
C130_5 N27_5 1_555 1_555
C129_6 H81_6 1_555 1_555
H82_6 C129_6 1_555 1_555
H83_6 C129_6 1_555 1_555
H86_6 C130_6 1_555 1_555
N27_6 C129_6 1_555 1_555
H87_6 N27_6 1_555 1_555
H88_6 N27_6 1_555 1_555
C130_6 N27_6 1_555 1_555
C129_7 H81_7 1_555 1_555
H82_7 C129_7 1_555 1_555
H83_7 C129_7 1_555 1_555
C130_7 H84_7 1_555 1_555
H85_7 C130_7 1_555 1_555
H86_7 C130_7 1_555 1_555
N27_7 C129_7 1_555 1_555
H87_7 N27_7 1_555 1_555
H88_7 N27_7 1_555 1_555
C130_7 N27_7 1_555 1_555
C129_8 H81_8 1_555 1_555
H82_8 C129_8 1_555 1_555
H83_8 C129_8 1_555 1_555
H86_8 C130_8 1_555 1_555
N27_8 C129_8 1_555 1_555
H87_8 N27_8 1_555 1_555
H88_8 N27_8 1_555 1_555
C130_8 N27_8 1_555 1_555
C129_9 H81_9 1_555 1_555
H82_9 C129_9 1_555 1_555
H83_9 C129_9 1_555 1_555
H86_9 C130_9 1_555 1_555
N27_9 C129_9 1_555 1_555
H87_9 N27_9 1_555 1_555
H88_9 N27_9 1_555 1_555
C130_9 N27_9 1_555 1_555
C129_10 H81_10 1_555 1_555
H82_10 C129_10 1_555 1_555
H83_10 C129_10 1_555 1_555
C130_10 H84_10 1_555 1_555
H85_10 C130_10 1_555 1_555
H86_10 C130_10 1_555 1_555
N27_10 C129_10 1_555 1_555
H87_10 N27_10 1_555 1_555
H88_10 N27_10 1_555 1_555
C130_10 N27_10 1_555 1_555
C129_11 H81_11 1_555 1_555
H82_11 C129_11 1_555 1_555
H83_11 C129_11 1_555 1_555
H86_11 C130_11 1_555 1_555
N27_11 C129_11 1_555 1_555
H87_11 N27_11 1_555 1_555
H88_11 N27_11 1_555 1_555
C130_11 N27_11 1_555 1_555
C129_12 H81_12 1_555 1_555
H82_12 C129_12 1_555 1_555
H83_12 C129_12 1_555 1_555
C130_12 H84_12 1_555 1_555
H85_12 C130_12 1_555 1_555
H86_12 C130_12 1_555 1_555
N27_12 C129_12 1_555 1_555
H87_12 N27_12 1_555 1_555
H88_12 N27_12 1_555 1_555
C130_12 N27_12 1_555 1_555
C129_13 H81_13 1_555 1_555
H82_13 C129_13 1_555 1_555
H83_13 C129_13 1_555 1_555
C130_13 H84_13 1_555 1_555
H85_13 C130_13 1_555 1_555
H86_13 C130_13 1_555 1_555
N27_13 C129_13 1_555 1_555
H87_13 N27_13 1_555 1_555
H88_13 N27_13 1_555 1_555
C130_13 N27_13 1_555 1_555
C129_14 H81_14 1_555 1_555
H82_14 C129_14 1_555 1_555
H83_14 C129_14 1_555 1_555
H86_14 C130_14 1_555 1_555
N27_14 C129_14 1_555 1_555
H87_14 N27_14 1_555 1_555
H88_14 N27_14 1_555 1_555
C130_14 N27_14 1_555 1_555
C129_15 H81_15 1_555 1_555
H82_15 C129_15 1_555 1_555
H83_15 C129_15 1_555 1_555
C130_15 H84_15 1_555 1_555
H85_15 C130_15 1_555 1_555
H86_15 C130_15 1_555 1_555
N27_15 C129_15 1_555 1_555
H87_15 N27_15 1_555 1_555
H88_15 N27_15 1_555 1_555
C130_15 N27_15 1_555 1_555
C129_16 H81_16 1_555 1_555
H82_16 C129_16 1_555 1_555
H83_16 C129_16 1_555 1_555
H86_16 C130_16 1_555 1_555
N27_16 C129_16 1_555 1_555
H87_16 N27_16 1_555 1_555
H88_16 N27_16 1_555 1_555
C130_16 N27_16 1_555 1_555

#END
