
###############################################################################
#
# This file contains modified crystal structure data generated from the
# MOF subset of the Cambridge Structural Database (CSD) v543 
# hosted by the Cambridge Crystallographic Data Centre (CCDC).
#
# This work is licensed under the Creative Commons
# Attribution-NonCommercial-ShareAlike 4.0 International License.
# To view a copy of this license, visit
# http://creativecommons.org/licenses/by-nc-sa/4.0/
# or send a letter to
# Creative Commons, PO Box 1866, Mountain View, CA 94042, USA.
#
# CIF created using the CSD Python API on 29 September 2022
# The structure has been converted into the P1 space group
# The structure has a 3D framework
# The original CSD entry YARYOF is in the monoclinic crystal system
# The framework has been calculated to contain at least 10.0% void space
# The void calculation uses a probe of radius 1.32A, grid spacing 0.4
# H atom positions have been added when not included in the experimental data
#
###############################################################################

data_YARYOF
_chemical_formula_moiety         '(C24 H32 Cd10 N22)n'
_symmetry_cell_setting           triclinic
_symmetry_space_group_name_H-M   'P 1'
_symmetry_Int_Tables_number      1
_space_group_name_Hall           'P 1'
loop_
_symmetry_equiv_pos_site_id
_symmetry_equiv_pos_as_xyz
1 x,y,z
_cell_length_a                   11.027(1)
_cell_length_b                   12.0767(9)
_cell_length_c                   15.837(1)
_cell_angle_alpha                90
_cell_angle_beta                 92.059(9)
_cell_angle_gamma                90
_cell_volume                     2107.65
loop_
_atom_site_label
_atom_site_type_symbol
_atom_site_fract_x
_atom_site_fract_y
_atom_site_fract_z
Cd2 Cd 0.25000 0.25367(8) 0.00000
N1 N 0.1543(9) 0.3387(8) 0.1093(6)
N3 N 0.1587(9) 0.6303(7) 0.3988(6)
C1 C 0.1050(9) 0.3917(9) 0.1618(8)
C3 C 0.1057(8) 0.5868(7) 0.3469(7)
C6 C 0.0502(12) 0.0373(10) 0.0183(9)
H5 H 0.02914 0.07158 0.07972
N8 N 0.3347(9) 0.1309(8) 0.1036(6)
Cd3 Cd 0.25000 0.74633(8) 0.50000
N9 N 0.4164(9) 0.3697(8) 0.0372(6)
H9 H 0.49219 0.31170 0.04042
H10 H 0.39558 0.39635 0.10079
Cd2_2 Cd 0.25000 0.25367(8) 1.00000
N2 N 0.3547(9) 0.1667(8) 0.8889(7)
N6 N 0.0838(11) 0.1299(8) 0.9718(9)
C2 C 0.3954(10) 0.1248(9) 0.8358(7)
H7 H 0.10447 0.10460 0.90784
H8 H 0.00950 0.18943 0.96930
N7 N 0.1587(9) 0.3697(7) 0.8988(6)
Cd5 Cd 0.4966(1) 0.01071(3) 0.75044(7)
H11 H 0.427908 0.433214 0.996285
Cd1 Cd 0.9966(1) 0.48929(3) 0.25044(7)
N4 N 0.8347(9) 0.6309(8) 0.1036(6)
C4 C 0.8853(11) 0.5841(7) 0.1570(7)
C7 C 0.8954(10) 0.3752(9) 0.3358(7)
Cd4 Cd 0.75000 0.75367(8) 0.00000
H3 H 0.86500 0.01282 0.98160
Cd4_2 Cd 0.75000 0.75367(8) 1.00000
N5 N 0.9164(9) 0.8697(8) 0.0372(6)
H1 H 0.99219 0.81170 0.04042
H2 H 0.89558 0.89635 0.10079
C5 C 0.9483(9) 0.9645(9) 0.9875(7)
H4 H 0.96934 0.93020 0.92601
N3_2 N 0.6587(9) 0.1303(7) 0.3988(6)
C3_2 C 0.6057(8) 0.0868(7) 0.3469(7)
C4_2 C 0.3853(11) 0.0841(7) 0.1570(7)
Cd3_2 Cd 0.75000 0.24633(8) 0.50000
Cd1_2 Cd 0.4966(1) 0.98929(3) 0.25044(7)
N1_2 N 0.6543(9) 0.8387(8) 0.1093(6)
C1_2 C 0.6050(9) 0.8917(9) 0.1618(8)
C6_2 C 0.5502(12) 0.5373(10) 0.0183(9)
H5_2 H 0.52914 0.57158 0.07972
H6 H 0.63350 0.48891 0.02419
C7_2 C 0.3954(10) 0.8752(9) 0.3358(7)
N2_2 N 0.8547(9) 0.6667(8) 0.8889(7)
N6_2 N 0.5838(11) 0.6299(8) 0.9718(9)
C2_2 C 0.8954(10) 0.6248(9) 0.8358(7)
C5_2 C 0.4483(9) 0.4645(9) 0.9875(7)
H3_2 H 0.36500 0.51282 0.98160
H4_2 H 0.46934 0.43020 0.92601
H7_2 H 0.60447 0.60460 0.90784
H8_2 H 0.50950 0.68943 0.96930
N7_2 N 0.6587(9) 0.8697(7) 0.8988(6)
Cd5_2 Cd 0.9966(1) 0.51071(3) 0.75044(7)
H11_2 H 0.927908 0.933214 0.996285
N1_3 N 0.1543(9) 0.6613(8) 0.6093(6)
N2_3 N 0.3547(9) 0.8333(8) 0.3889(7)
N6_3 N 0.0838(11) 0.8701(8) 0.4718(9)
C1_3 C 0.1050(9) 0.6083(9) 0.6618(8)
C3_3 C 0.1057(8) 0.4132(7) 0.8469(7)
C6_3 C 0.0502(12) 0.9627(10) 0.5183(9)
H5_3 H 0.02914 0.92842 0.57972
H7_3 H 0.10447 0.89540 0.40784
H8_3 H 0.00950 0.81057 0.46930
N8_2 N 0.3347(9) 0.8691(8) 0.6036(6)
N9_2 N 0.4164(9) 0.6303(8) 0.5372(6)
H9_2 H 0.49219 0.68830 0.54042
H10_2 H 0.39558 0.60365 0.60079
H11_3 H 0.427908 0.566786 0.496285
N5_2 N 0.9164(9) 0.1303(8) 0.5372(6)
C5_3 C 0.9483(9) 0.0355(9) 0.4875(7)
H1_2 H 0.99219 0.18830 0.54042
H2_2 H 0.89558 0.10365 0.60079
H4_3 H 0.96934 0.06980 0.42601
N4_2 N 0.8347(9) 0.3691(8) 0.6036(6)
C4_3 C 0.8853(11) 0.4159(7) 0.6570(7)
H3_3 H 0.86500 0.98718 0.48160
N1_4 N 0.6543(9) 0.1613(8) 0.6093(6)
N2_4 N 0.8547(9) 0.3333(8) 0.3889(7)
N6_4 N 0.5838(11) 0.3701(8) 0.4718(9)
C1_4 C 0.6050(9) 0.1083(9) 0.6618(8)
C5_4 C 0.4483(9) 0.5355(9) 0.4875(7)
C6_4 C 0.5502(12) 0.4627(10) 0.5183(9)
H3_4 H 0.36500 0.48718 0.48160
H4_4 H 0.46934 0.56980 0.42601
H5_4 H 0.52914 0.42842 0.57972
H6_2 H 0.63350 0.51109 0.52419
H7_4 H 0.60447 0.39540 0.40784
H8_4 H 0.50950 0.31057 0.46930
H11_4 H 0.927908 0.0667859 0.496285
C3_4 C 0.6057(8) 0.9132(7) 0.8469(7)
C4_4 C 0.3853(11) 0.9159(7) 0.6570(7)
H6_3 H 0.13350 0.98891 0.02419
H6_4 H 0.13350 0.01109 0.52419
loop_
_geom_bond_atom_site_label_1
_geom_bond_atom_site_label_2
_geom_bond_site_symmetry_1
_geom_bond_site_symmetry_2
Cd2 N1 1_555 1_555
N1 C1 1_555 1_555
N3 C3 1_555 1_555
H5 C6 1_555 1_555
N8 Cd2 1_555 1_555
Cd3 N3 1_555 1_555
N9 Cd2 1_555 1_555
H9 N9 1_555 1_555
H10 N9 1_555 1_555
N2 Cd2_2 1_555 1_555
N6 Cd2_2 1_555 1_555
C2 N2 1_555 1_555
H7 N6 1_555 1_555
H8 N6 1_555 1_555
N7 Cd2_2 1_555 1_555
Cd5 C2 1_555 1_555
N4 C4 1_555 1_555
C4 Cd1 1_555 1_555
C7 Cd1 1_555 1_555
Cd4 N4 1_555 1_555
H1 N5 1_555 1_555
H2 N5 1_555 1_555
Cd4 N5 1_555 1_555
H4 C5 1_555 1_555
N3_2 C3_2 1_555 1_555
N8 C4_2 1_555 1_555
Cd3_2 N3_2 1_555 1_555
Cd1_2 C1_2 1_555 1_555
Cd4 N1_2 1_555 1_555
N1_2 C1_2 1_555 1_555
H5_2 C6_2 1_555 1_555
H6 C6_2 1_555 1_555
C7_2 Cd1_2 1_555 1_555
N2_2 Cd4_2 1_555 1_555
N6_2 Cd4_2 1_555 1_555
C2_2 N2_2 1_555 1_555
H3_2 C5_2 1_555 1_555
H4_2 C5_2 1_555 1_555
H7_2 N6_2 1_555 1_555
H8_2 N6_2 1_555 1_555
N7_2 Cd4_2 1_555 1_555
Cd5_2 C2_2 1_555 1_555
Cd3 N1_3 1_555 1_555
N1_3 C1_3 1_555 1_555
N2_3 Cd3 1_555 1_555
N7 C3_3 1_555 1_555
N6_3 Cd3 1_555 1_555
C7_2 N2_3 1_555 1_555
C6_3 N6_3 1_555 1_555
H5_3 C6_3 1_555 1_555
H7_3 N6_3 1_555 1_555
H8_3 N6_3 1_555 1_555
N8_2 Cd3 1_555 1_555
N9_2 Cd3 1_555 1_555
H9_2 N9_2 1_555 1_555
H10_2 N9_2 1_555 1_555
N9_2 H11_3 1_555 1_555
N5_2 C5_3 1_555 1_555
H1_2 N5_2 1_555 1_555
H2_2 N5_2 1_555 1_555
H4_3 C5_3 1_555 1_555
Cd3_2 N5_2 1_555 1_555
N4_2 C4_3 1_555 1_555
C4_3 Cd5_2 1_555 1_555
Cd3_2 N4_2 1_555 1_555
Cd5 C1_4 1_555 1_555
Cd3_2 N1_4 1_555 1_555
N1_4 C1_4 1_555 1_555
N2_4 Cd3_2 1_555 1_555
N9_2 C5_4 1_555 1_555
N6_4 Cd3_2 1_555 1_555
C7 N2_4 1_555 1_555
C5_4 C6_4 1_555 1_555
C6_4 N6_4 1_555 1_555
H3_4 C5_4 1_555 1_555
H4_4 C5_4 1_555 1_555
H5_4 C6_4 1_555 1_555
H6_2 C6_4 1_555 1_555
H7_4 N6_4 1_555 1_555
H8_4 N6_4 1_555 1_555
N5_2 H11_4 1_555 1_555
N7_2 C3_4 1_555 1_555
N8_2 C4_4 1_555 1_555

#END
