
###############################################################################
#
# This file contains modified crystal structure data generated from the
# MOF subset of the Cambridge Structural Database (CSD) v543 
# hosted by the Cambridge Crystallographic Data Centre (CCDC).
#
# This work is licensed under the Creative Commons
# Attribution-NonCommercial-ShareAlike 4.0 International License.
# To view a copy of this license, visit
# http://creativecommons.org/licenses/by-nc-sa/4.0/
# or send a letter to
# Creative Commons, PO Box 1866, Mountain View, CA 94042, USA.
#
# CIF created using the CSD Python API on 29 September 2022
# The structure has been converted into the P1 space group
# The structure has a 3D framework
# The original CSD entry YARZEZ03 is in the orthorhombic crystal system
# The framework has been calculated to contain at least 10.0% void space
# The void calculation uses a probe of radius 1.32A, grid spacing 0.4
# The framework is charged, counterions have been retained in the structure
#
###############################################################################

data_YARZEZ03
_chemical_formula_moiety         '(C64 Cd12 N96 8-)n'
_symmetry_cell_setting           triclinic
_symmetry_space_group_name_H-M   'P 1'
_symmetry_Int_Tables_number      1
_space_group_name_Hall           'P 1'
loop_
_symmetry_equiv_pos_site_id
_symmetry_equiv_pos_as_xyz
1 x,y,z
_cell_length_a                   17.25(4)
_cell_length_b                   17.57(4)
_cell_length_c                   16.79(3)
_cell_angle_alpha                90
_cell_angle_beta                 90
_cell_angle_gamma                90
_cell_volume                     5088.76
loop_
_atom_site_label
_atom_site_type_symbol
_atom_site_fract_x
_atom_site_fract_y
_atom_site_fract_z
N1 N 0.4764(4) 0.2953(5) 0.5000
C1 C 0.4007(3) 0.3056(8) 0.5000
N2 N 0.3374(3) 0.2872(6) 0.5000
N3 N 0.1932(5) 0.2951(5) 0.3658(3)
Cd1 Cd 0.20374(9) 0.28802(10) 0.5000
N4 N 0.2006(6) 0.1573(3) 0.5000
C2 C 0.2010(10) 0.0942(3) 0.5000
N5 N 0.1992(5) 0.0199(4) 0.5000
C4 C 0.2087(5) 0.2784(7) 0.2997(4)
N7 N 0.2500 0.2500 0.2500
C5 C 0.5096(4) 0.2268(6) 0.5000
N8 N 0.5681(4) 0.1929(7) 0.5000
N9 N 0.3068(5) 0.2049(5) 0.1342(3)
C6 C 0.2913(5) 0.2216(7) 0.2003(4)
N10 N 0.1932(5) 0.2951(5) 0.6342(3)
Cd3 Cd 0.70374(9) 0.21198(10) 0.5000
Cd4 Cd 0.29626(9) 0.21198(10) 0.0000
N11 N 0.2010(6) 0.4228(4) 0.5000
N12 N 0.0681(4) 0.3071(7) 0.5000
Cd4_2 Cd 0.29626(9) 0.21198(10) 1.0000
N6 N 0.2990(6) 0.9228(4) 0.5000
C3 C 0.2616(6) 0.9765(4) 0.5000
Cd2 Cd 0.29626(9) 0.78802(10) 0.5000
N6_2 N 0.7010(6) 0.0772(4) 0.5000
C3_2 C 0.7384(6) 0.0235(4) 0.5000
N1_2 N 0.5236(4) 0.7047(5) 0.5000
C1_2 C 0.5993(3) 0.6944(8) 0.5000
N2_2 N 0.6626(3) 0.7128(6) 0.5000
N3_2 N 0.8068(5) 0.7049(5) 0.3658(3)
Cd1_2 Cd 0.79626(9) 0.71198(10) 0.5000
N4_2 N 0.7994(6) 0.8427(3) 0.5000
C2_2 C 0.7990(10) 0.9058(3) 0.5000
N5_2 N 0.8008(5) 0.9801(4) 0.5000
C4_2 C 0.7913(5) 0.7216(7) 0.2997(4)
N7_2 N 0.7500 0.7500 0.2500
C5_2 C 0.4904(4) 0.7732(6) 0.5000
N8_2 N 0.4319(4) 0.8071(7) 0.5000
N9_2 N 0.6932(5) 0.7951(5) 0.1342(3)
C6_2 C 0.7087(5) 0.7784(7) 0.2003(4)
N10_2 N 0.8068(5) 0.7049(5) 0.6342(3)
Cd4_3 Cd 0.70374(9) 0.78802(10) 0.0000
N11_2 N 0.7990(6) 0.5772(4) 0.5000
N12_2 N 0.9319(4) 0.6929(7) 0.5000
Cd4_4 Cd 0.70374(9) 0.78802(10) 1.0000
Cd4_5 Cd 0.20374(9) 0.71198(10) 0.0000
N1_3 N 0.0236(4) 0.7953(5) 0.5000
C1_3 C 0.0993(3) 0.8056(8) 0.5000
N2_3 N 0.1626(3) 0.7872(6) 0.5000
N3_3 N 0.3068(5) 0.7951(5) 0.6342(3)
N4_3 N 0.2994(6) 0.6573(3) 0.5000
C2_3 C 0.2990(10) 0.5942(3) 0.5000
N5_3 N 0.3008(5) 0.5199(4) 0.5000
C3_3 C 0.2384(6) 0.4765(4) 0.5000
C4_3 C 0.2913(5) 0.7784(7) 0.7003(4)
N7_3 N 0.2500 0.7500 0.7500
N9_3 N 0.1932(5) 0.7049(5) 0.8658(3)
C6_3 C 0.2087(5) 0.7216(7) 0.7997(4)
N10_3 N 0.3068(5) 0.7951(5) 0.3658(3)
Cd4_6 Cd 0.20374(9) 0.71198(10) 1.0000
C5_3 C 0.9904(4) 0.7268(6) 0.5000
C5_4 C 0.0096(4) 0.2732(6) 0.5000
Cd4_7 Cd 0.79626(9) 0.28802(10) 0.0000
N1_4 N 0.9764(4) 0.2047(5) 0.5000
C1_4 C 0.9007(3) 0.1944(8) 0.5000
N2_4 N 0.8374(3) 0.2128(6) 0.5000
N3_4 N 0.6932(5) 0.2049(5) 0.6342(3)
N4_4 N 0.7006(6) 0.3427(3) 0.5000
C2_4 C 0.7010(10) 0.4058(3) 0.5000
N5_4 N 0.6992(5) 0.4801(4) 0.5000
C3_4 C 0.7616(6) 0.5235(4) 0.5000
C4_4 C 0.7087(5) 0.2216(7) 0.7003(4)
N7_4 N 0.7500 0.2500 0.7500
N9_4 N 0.8068(5) 0.2951(5) 0.8658(3)
C6_4 C 0.7913(5) 0.2784(7) 0.7997(4)
N10_4 N 0.6932(5) 0.2049(5) 0.3658(3)
Cd4_8 Cd 0.79626(9) 0.28802(10) 1.0000
C5_5 C 0.0096(4) 0.7268(6) 0.0000
N8_3 N 0.0681(4) 0.6929(7) 0.0000
C5_6 C 0.0096(4) 0.7268(6) 1.0000
N8_4 N 0.0681(4) 0.6929(7) 1.0000
N1_5 N 0.9764(4) 0.7953(5) 0.0000
C1_5 C 0.9007(3) 0.8056(8) 0.0000
N2_5 N 0.8374(3) 0.7872(6) 0.0000
N4_5 N 0.7006(6) 0.6573(3) 0.0000
C2_5 C 0.7010(10) 0.5942(3) 0.0000
N5_5 N 0.6992(5) 0.5199(4) 0.0000
N6_3 N 0.7990(6) 0.4228(4) 0.0000
C3_5 C 0.7616(6) 0.4765(4) 0.0000
N11_3 N 0.7010(6) 0.9228(4) 0.0000
N12_3 N 0.5681(4) 0.8071(7) 0.0000
N1_6 N 0.9764(4) 0.7953(5) 1.0000
C1_6 C 0.9007(3) 0.8056(8) 1.0000
N2_6 N 0.8374(3) 0.7872(6) 1.0000
N3_5 N 0.6932(5) 0.7951(5) 0.8658(3)
N4_6 N 0.7006(6) 0.6573(3) 1.0000
C2_6 C 0.7010(10) 0.5942(3) 1.0000
N5_6 N 0.6992(5) 0.5199(4) 1.0000
N6_4 N 0.7990(6) 0.4228(4) 1.0000
C3_6 C 0.7616(6) 0.4765(4) 1.0000
C4_5 C 0.7087(5) 0.7784(7) 0.7997(4)
N7_5 N 0.7500 0.7500 0.7500
C6_5 C 0.7913(5) 0.7216(7) 0.7003(4)
N11_4 N 0.7010(6) 0.9228(4) 1.0000
N12_4 N 0.5681(4) 0.8071(7) 1.0000
N1_7 N 0.0236(4) 0.2047(5) 0.0000
C1_7 C 0.0993(3) 0.1944(8) 0.0000
N2_7 N 0.1626(3) 0.2128(6) 0.0000
N4_7 N 0.2994(6) 0.3427(3) 0.0000
C2_7 C 0.2990(10) 0.4058(3) 0.0000
N5_7 N 0.3008(5) 0.4801(4) 0.0000
N6_5 N 0.2010(6) 0.5772(4) 0.0000
C3_7 C 0.2384(6) 0.5235(4) 0.0000
N11_5 N 0.2990(6) 0.0772(4) 0.0000
N12_5 N 0.4319(4) 0.1929(7) 0.0000
N1_8 N 0.0236(4) 0.2047(5) 1.0000
C1_8 C 0.0993(3) 0.1944(8) 1.0000
N2_8 N 0.1626(3) 0.2128(6) 1.0000
N3_6 N 0.3068(5) 0.2049(5) 0.8658(3)
N4_8 N 0.2994(6) 0.3427(3) 1.0000
C2_8 C 0.2990(10) 0.4058(3) 1.0000
N5_8 N 0.3008(5) 0.4801(4) 1.0000
N6_6 N 0.2010(6) 0.5772(4) 1.0000
C3_8 C 0.2384(6) 0.5235(4) 1.0000
C4_6 C 0.2913(5) 0.2216(7) 0.7997(4)
N7_6 N 0.2500 0.2500 0.7500
C6_6 C 0.2087(5) 0.2784(7) 0.7003(4)
N11_6 N 0.2990(6) 0.0772(4) 1.0000
N12_6 N 0.4319(4) 0.1929(7) 1.0000
C5_7 C 0.9904(4) 0.2732(6) 0.0000
N8_5 N 0.9319(4) 0.3071(7) 0.0000
C5_8 C 0.9904(4) 0.2732(6) 1.0000
N8_6 N 0.9319(4) 0.3071(7) 1.0000
N1_9 N 0.5236(4) 0.2953(5) 0.0000
C1_9 C 0.5993(3) 0.3056(8) 0.0000
N2_9 N 0.6626(3) 0.2872(6) 0.0000
N3_7 N 0.8068(5) 0.2951(5) 0.1342(3)
N4_9 N 0.7994(6) 0.1573(3) 0.0000
C2_9 C 0.7990(10) 0.0942(3) 0.0000
N5_9 N 0.8008(5) 0.0199(4) 0.0000
C4_7 C 0.7913(5) 0.2784(7) 0.2003(4)
N7_7 N 0.7500 0.2500 0.2500
C5_9 C 0.4904(4) 0.2268(6) 0.0000
C6_7 C 0.7087(5) 0.2216(7) 0.2997(4)
N1_10 N 0.5236(4) 0.2953(5) 1.0000
C1_10 C 0.5993(3) 0.3056(8) 1.0000
N2_10 N 0.6626(3) 0.2872(6) 1.0000
N4_10 N 0.7994(6) 0.1573(3) 1.0000
C2_10 C 0.7990(10) 0.0942(3) 1.0000
N5_10 N 0.8008(5) 0.0199(4) 1.0000
C5_10 C 0.4904(4) 0.2268(6) 1.0000
C3_9 C 0.7384(6) 0.9765(4) 0.0000
C3_10 C 0.7384(6) 0.9765(4) 1.0000
C3_11 C 0.2616(6) 0.0235(4) 0.0000
C3_12 C 0.2616(6) 0.0235(4) 1.0000
N1_11 N 0.4764(4) 0.7047(5) 0.0000
C1_11 C 0.4007(3) 0.6944(8) 0.0000
N2_11 N 0.3374(3) 0.7128(6) 0.0000
N3_8 N 0.1932(5) 0.7049(5) 0.1342(3)
N4_11 N 0.2006(6) 0.8427(3) 0.0000
C2_11 C 0.2010(10) 0.9058(3) 0.0000
N5_11 N 0.1992(5) 0.9801(4) 0.0000
C4_8 C 0.2087(5) 0.7216(7) 0.2003(4)
N7_8 N 0.2500 0.7500 0.2500
C5_11 C 0.5096(4) 0.7732(6) 0.0000
C6_8 C 0.2913(5) 0.7784(7) 0.2997(4)
N1_12 N 0.4764(4) 0.7047(5) 1.0000
C1_12 C 0.4007(3) 0.6944(8) 1.0000
N2_12 N 0.3374(3) 0.7128(6) 1.0000
N4_12 N 0.2006(6) 0.8427(3) 1.0000
C2_12 C 0.2010(10) 0.9058(3) 1.0000
N5_12 N 0.1992(5) 0.9801(4) 1.0000
C5_12 C 0.5096(4) 0.7732(6) 1.0000
loop_
_geom_bond_atom_site_label_1
_geom_bond_atom_site_label_2
_geom_bond_site_symmetry_1
_geom_bond_site_symmetry_2
N1 C1 1_555 1_555
C1 N2 1_555 1_555
N2 Cd1 1_555 1_555
N3 Cd1 1_555 1_555
Cd1 N4 1_555 1_555
N4 C2 1_555 1_555
C2 N5 1_555 1_555
C4 N3 1_555 1_555
N7 C4 1_555 1_555
C5 N1 1_555 1_555
N8 C5 1_555 1_555
N9 C6 1_555 1_555
C6 N7 1_555 1_555
N10 Cd1 1_555 1_555
Cd3 N8 1_555 1_555
Cd4 N9 1_555 1_555
N11 Cd1 1_555 1_555
N12 Cd1 1_555 1_555
N6 C3 1_555 1_555
Cd2 N6 1_555 1_555
N6_2 C3_2 1_555 1_555
Cd3 N6_2 1_555 1_555
N1_2 C1_2 1_555 1_555
C1_2 N2_2 1_555 1_555
N2_2 Cd1_2 1_555 1_555
N3_2 Cd1_2 1_555 1_555
Cd1_2 N4_2 1_555 1_555
N4_2 C2_2 1_555 1_555
C2_2 N5_2 1_555 1_555
C4_2 N3_2 1_555 1_555
N7_2 C4_2 1_555 1_555
C5_2 N1_2 1_555 1_555
N8_2 C5_2 1_555 1_555
N9_2 C6_2 1_555 1_555
C6_2 N7_2 1_555 1_555
N10_2 Cd1_2 1_555 1_555
Cd2 N8_2 1_555 1_555
Cd4_3 N9_2 1_555 1_555
N11_2 Cd1_2 1_555 1_555
N12_2 Cd1_2 1_555 1_555
N1_3 C1_3 1_555 1_555
C1_3 N2_3 1_555 1_555
N2_3 Cd2 1_555 1_555
N3_3 Cd2 1_555 1_555
Cd2 N4_3 1_555 1_555
N4_3 C2_3 1_555 1_555
C2_3 N5_3 1_555 1_555
N5_3 C3_3 1_555 1_555
N11 C3_3 1_555 1_555
C4_3 N3_3 1_555 1_555
N7_3 C4_3 1_555 1_555
N9_3 C6_3 1_555 1_555
C6_3 N7_3 1_555 1_555
N10_3 Cd2 1_555 1_555
Cd4_6 N9_3 1_555 1_555
N12_2 C5_3 1_555 1_555
N12 C5_4 1_555 1_555
N1_4 C1_4 1_555 1_555
C1_4 N2_4 1_555 1_555
N2_4 Cd3 1_555 1_555
N3_4 Cd3 1_555 1_555
Cd3 N4_4 1_555 1_555
N4_4 C2_4 1_555 1_555
C2_4 N5_4 1_555 1_555
N5_4 C3_4 1_555 1_555
N11_2 C3_4 1_555 1_555
C4_4 N3_4 1_555 1_555
N7_4 C4_4 1_555 1_555
N9_4 C6_4 1_555 1_555
C6_4 N7_4 1_555 1_555
N10_4 Cd3 1_555 1_555
Cd4_8 N9_4 1_555 1_555
N8_3 C5_5 1_555 1_555
Cd4_5 N8_3 1_555 1_555
N8_4 C5_6 1_555 1_555
Cd4_6 N8_4 1_555 1_555
N1_5 C1_5 1_555 1_555
C1_5 N2_5 1_555 1_555
N2_5 Cd4_3 1_555 1_555
Cd4_3 N4_5 1_555 1_555
N4_5 C2_5 1_555 1_555
C2_5 N5_5 1_555 1_555
N5_5 C3_5 1_555 1_555
N6_3 C3_5 1_555 1_555
Cd4_7 N6_3 1_555 1_555
N11_3 Cd4_3 1_555 1_555
N12_3 Cd4_3 1_555 1_555
N1_6 C1_6 1_555 1_555
C1_6 N2_6 1_555 1_555
N2_6 Cd4_4 1_555 1_555
N3_5 Cd4_4 1_555 1_555
Cd4_4 N4_6 1_555 1_555
N4_6 C2_6 1_555 1_555
C2_6 N5_6 1_555 1_555
N5_6 C3_6 1_555 1_555
N6_4 C3_6 1_555 1_555
C4_5 N3_5 1_555 1_555
N7_5 C4_5 1_555 1_555
N10_2 C6_5 1_555 1_555
C6_5 N7_5 1_555 1_555
Cd4_8 N6_4 1_555 1_555
N11_4 Cd4_4 1_555 1_555
N12_4 Cd4_4 1_555 1_555
N1_7 C1_7 1_555 1_555
C1_7 N2_7 1_555 1_555
N2_7 Cd4 1_555 1_555
Cd4 N4_7 1_555 1_555
N4_7 C2_7 1_555 1_555
C2_7 N5_7 1_555 1_555
N5_7 C3_7 1_555 1_555
N6_5 C3_7 1_555 1_555
Cd4_5 N6_5 1_555 1_555
N11_5 Cd4 1_555 1_555
N12_5 Cd4 1_555 1_555
N1_8 C1_8 1_555 1_555
C1_8 N2_8 1_555 1_555
N2_8 Cd4_2 1_555 1_555
N3_6 Cd4_2 1_555 1_555
Cd4_2 N4_8 1_555 1_555
N4_8 C2_8 1_555 1_555
C2_8 N5_8 1_555 1_555
N5_8 C3_8 1_555 1_555
N6_6 C3_8 1_555 1_555
C4_6 N3_6 1_555 1_555
N7_6 C4_6 1_555 1_555
N10 C6_6 1_555 1_555
C6_6 N7_6 1_555 1_555
Cd4_6 N6_6 1_555 1_555
N11_6 Cd4_2 1_555 1_555
N12_6 Cd4_2 1_555 1_555
N8_5 C5_7 1_555 1_555
Cd4_7 N8_5 1_555 1_555
N8_6 C5_8 1_555 1_555
Cd4_8 N8_6 1_555 1_555
N1_9 C1_9 1_555 1_555
C1_9 N2_9 1_555 1_555
N2_9 Cd4_7 1_555 1_555
N3_7 Cd4_7 1_555 1_555
Cd4_7 N4_9 1_555 1_555
N4_9 C2_9 1_555 1_555
C2_9 N5_9 1_555 1_555
C4_7 N3_7 1_555 1_555
N7_7 C4_7 1_555 1_555
C5_9 N1_9 1_555 1_555
N12_5 C5_9 1_555 1_555
N10_4 C6_7 1_555 1_555
C6_7 N7_7 1_555 1_555
N1_10 C1_10 1_555 1_555
C1_10 N2_10 1_555 1_555
N2_10 Cd4_8 1_555 1_555
Cd4_8 N4_10 1_555 1_555
N4_10 C2_10 1_555 1_555
C2_10 N5_10 1_555 1_555
C5_10 N1_10 1_555 1_555
N12_6 C5_10 1_555 1_555
N11_3 C3_9 1_555 1_555
N11_4 C3_10 1_555 1_555
N11_5 C3_11 1_555 1_555
N11_6 C3_12 1_555 1_555
N1_11 C1_11 1_555 1_555
C1_11 N2_11 1_555 1_555
N2_11 Cd4_5 1_555 1_555
N3_8 Cd4_5 1_555 1_555
Cd4_5 N4_11 1_555 1_555
N4_11 C2_11 1_555 1_555
C2_11 N5_11 1_555 1_555
C4_8 N3_8 1_555 1_555
N7_8 C4_8 1_555 1_555
C5_11 N1_11 1_555 1_555
N12_3 C5_11 1_555 1_555
N10_3 C6_8 1_555 1_555
C6_8 N7_8 1_555 1_555
N1_12 C1_12 1_555 1_555
C1_12 N2_12 1_555 1_555
N2_12 Cd4_6 1_555 1_555
Cd4_6 N4_12 1_555 1_555
N4_12 C2_12 1_555 1_555
C2_12 N5_12 1_555 1_555
C5_12 N1_12 1_555 1_555
N12_4 C5_12 1_555 1_555

#END
