
###############################################################################
#
# This file contains modified crystal structure data generated from the
# MOF subset of the Cambridge Structural Database (CSD) v543 
# hosted by the Cambridge Crystallographic Data Centre (CCDC).
#
# This work is licensed under the Creative Commons
# Attribution-NonCommercial-ShareAlike 4.0 International License.
# To view a copy of this license, visit
# http://creativecommons.org/licenses/by-nc-sa/4.0/
# or send a letter to
# Creative Commons, PO Box 1866, Mountain View, CA 94042, USA.
#
# CIF created using the CSD Python API on 29 September 2022
# The structure has been converted into the P1 space group
# The structure has a 3D framework
# The original CSD entry YARZEZ02 is in the orthorhombic crystal system
# The framework has been calculated to contain at least 10.0% void space
# The void calculation uses a probe of radius 1.32A, grid spacing 0.4
# The framework is charged, counterions have been retained in the structure
#
###############################################################################

data_YARZEZ02
_chemical_formula_moiety         '(C64 Cd11 N115 29-)n'
_symmetry_cell_setting           triclinic
_symmetry_space_group_name_H-M   'P 1'
_symmetry_Int_Tables_number      1
_space_group_name_Hall           'P 1'
loop_
_symmetry_equiv_pos_site_id
_symmetry_equiv_pos_as_xyz
1 x,y,z
_cell_length_a                   17.056(4)
_cell_length_b                   16.624(4)
_cell_length_c                   17.063(4)
_cell_angle_alpha                90
_cell_angle_beta                 90
_cell_angle_gamma                90
_cell_volume                     4838.03
loop_
_atom_site_label
_atom_site_type_symbol
_atom_site_fract_x
_atom_site_fract_y
_atom_site_fract_z
N1 N 0.0000 0.5000 0.5000
N2 N 0.2500 0.2500 0.5000
N3 N 0.0000 0.3277(7) 0.2838(4)
Cd1 Cd 0.0000 0.25298(13) 0.55016(16)
N4 N 0.0000 0.1354(3) 0.4742(7)
C1 C 0.1978(4) 0.2469(12) 0.5561(8)
C2 C 0.0000 0.3131(15) 0.3592(3)
C3 C -0.0000 0.0662(3) 0.4717(6)
N5 N 0.0000 0.0000 0.5000
N6 N 0.0000 0.3209(6) 0.4254(3)
C4 C 0.0000 0.2769(8) 0.2259(5)
N7 N 0.1300(3) 0.2532(5) 0.5612(6)
N8 N -0.0000 0.3929(4) 0.5993(5)
N9 N 0.0000 0.2401(9) 0.1700(7)
C5 C 0.0000 0.4552(5) 0.5656(6)
N10 N 0.0000 0.6071(4) 0.4007(5)
C6 C 0.0000 0.5448(5) 0.4344(6)
C7 C 0.3022(4) 0.2531(12) 0.4439(8)
N11 N 0.3700(3) 0.2468(5) 0.4388(6)
Cd3 Cd 0.0000 0.24702(13) 0.05016(16)
Cd5 Cd -0.0000 0.74702(13) 0.44984(16)
Cd7 Cd 0.5000 0.24702(13) 0.44984(16)
N22 N 0.0000 0.2599(9) 0.6700(7)
N5_2 N 0.0000 1.0000 0.5000
N12 N 0.0000 0.8646(3) 0.5258(7)
C8 C 0.0000 0.9338(3) 0.5283(6)
N13 N 0.2500 0.7500 0.5000
N14 N 0.0000 0.6723(7) 0.7162(4)
C9 C 0.1978(4) 0.7531(12) 0.4439(8)
C10 C 0.0000 0.6869(15) 0.6408(3)
N15 N 0.0000 0.6791(6) 0.5746(3)
C11 C 0.0000 0.7231(8) 0.7741(5)
N16 N 0.1300(3) 0.7468(5) 0.4388(6)
N17 N 0.0000 0.7599(9) 0.8300(7)
C12 C 0.3022(4) 0.7469(12) 0.5561(8)
N18 N 0.3700(3) 0.7532(5) 0.5612(6)
Cd4 Cd 0.0000 0.75298(13) 0.94984(16)
Cd6 Cd 0.5000 0.75298(13) 0.55016(16)
N23 N 0.0000 0.7401(9) 0.3300(7)
N1_2 N 1.0000 0.5000 0.5000
N3_2 N 1.0000 0.3277(7) 0.2838(4)
Cd1_2 Cd 1.0000 0.25298(13) 0.55016(16)
N4_2 N 1.0000 0.1354(3) 0.4742(7)
C2_2 C 1.0000 0.3131(15) 0.3592(3)
C3_2 C 1.0000 0.0662(3) 0.4717(6)
N5_3 N 1.0000 0.0000 0.5000
N6_2 N 1.0000 0.3209(6) 0.4254(3)
C4_2 C 1.0000 0.2769(8) 0.2259(5)
N8_2 N 1.0000 0.3929(4) 0.5993(5)
N9_2 N 1.0000 0.2401(9) 0.1700(7)
C5_2 C 1.0000 0.4552(5) 0.5656(6)
N10_2 N 1.0000 0.6071(4) 0.4007(5)
C6_2 C 1.0000 0.5448(5) 0.4344(6)
Cd3_2 Cd 1.0000 0.24702(13) 0.05016(16)
Cd5_2 Cd 1.0000 0.74702(13) 0.44984(16)
N20 N 0.8700(3) 0.2532(5) 0.5612(6)
N22_2 N 1.0000 0.2599(9) 0.6700(7)
N5_4 N 1.0000 1.0000 0.5000
N12_2 N 1.0000 0.8646(3) 0.5258(7)
C8_2 C 1.0000 0.9338(3) 0.5283(6)
N14_2 N 1.0000 0.6723(7) 0.7162(4)
C10_2 C 1.0000 0.6869(15) 0.6408(3)
N15_2 N 1.0000 0.6791(6) 0.5746(3)
C11_2 C 1.0000 0.7231(8) 0.7741(5)
N17_2 N 1.0000 0.7599(9) 0.8300(7)
Cd4_2 Cd 1.0000 0.75298(13) 0.94984(16)
N19 N 0.8700(3) 0.7468(5) 0.4388(6)
N23_2 N 1.0000 0.7401(9) 0.3300(7)
N1_3 N -0.0000 0.0000 0.0000
N5_5 N 0.0000 0.5000 0.0000
N8_3 N 0.0000 0.1071(4) 0.0993(5)
C5_3 C -0.0000 0.0448(5) 0.0656(6)
N12_3 N -0.0000 0.6354(3) 0.0258(7)
C8_3 C 0.0000 0.5662(3) 0.0283(6)
N14_3 N 0.0000 0.8277(7) 0.2162(4)
C10_3 C 0.0000 0.8131(15) 0.1408(3)
N15_3 N -0.0000 0.8209(6) 0.0746(3)
C11_3 C 0.0000 0.7769(8) 0.2741(5)
N20_2 N 0.1300(3) 0.2468(5) 0.0612(6)
N1_4 N 0.0000 0.0000 1.0000
N3_3 N 0.0000 0.1723(7) 0.7838(4)
N4_3 N 0.0000 0.3646(3) 0.9742(7)
C2_3 C -0.0000 0.1869(15) 0.8592(3)
C3_3 C 0.0000 0.4338(3) 0.9717(6)
N5_6 N 0.0000 0.5000 1.0000
N6_3 N 0.0000 0.1791(6) 0.9254(3)
C4_3 C -0.0000 0.2231(8) 0.7259(5)
N19_2 N 0.1300(3) 0.7532(5) 0.9388(6)
N21 N -0.0000 0.8929(4) 0.9007(5)
N1_5 N 0.0000 1.0000 0.0000
N1_6 N -0.0000 1.0000 1.0000
C6_3 C 0.0000 0.9552(5) 0.9344(6)
N1_7 N 1.0000 0.0000 0.0000
N2_2 N 0.7500 0.2500 0.0000
C1_2 C 0.8022(4) 0.2531(12) 0.0561(8)
N5_7 N 1.0000 0.5000 0.0000
N7_2 N 0.8700(3) 0.2468(5) 0.0612(6)
N8_4 N 1.0000 0.1071(4) 0.0993(5)
C5_4 C 1.0000 0.0448(5) 0.0656(6)
N12_4 N 1.0000 0.6354(3) 0.0258(7)
C8_4 C 1.0000 0.5662(3) 0.0283(6)
N13_2 N 0.7500 0.7500 0.0000
N14_4 N 1.0000 0.8277(7) 0.2162(4)
C10_4 C 1.0000 0.8131(15) 0.1408(3)
N15_4 N 1.0000 0.8209(6) 0.0746(3)
C11_4 C 1.0000 0.7769(8) 0.2741(5)
C12_2 C 0.6978(4) 0.7531(12) 0.0561(8)
N18_2 N 0.6300(3) 0.7468(5) 0.0612(6)
Cd6_2 Cd 0.5000 0.74702(13) 0.05016(16)
N1_8 N 1.0000 0.0000 1.0000
N2_3 N 0.7500 0.2500 1.0000
N3_4 N 1.0000 0.1723(7) 0.7838(4)
N4_4 N 1.0000 0.3646(3) 0.9742(7)
C2_4 C 1.0000 0.1869(15) 0.8592(3)
C3_4 C 1.0000 0.4338(3) 0.9717(6)
N5_8 N 1.0000 0.5000 1.0000
N6_4 N 1.0000 0.1791(6) 0.9254(3)
C4_4 C 1.0000 0.2231(8) 0.7259(5)
C7_2 C 0.6978(4) 0.2469(12) 0.9439(8)
N11_2 N 0.6300(3) 0.2532(5) 0.9388(6)
N13_3 N 0.7500 0.7500 1.0000
C9_2 C 0.8022(4) 0.7469(12) 0.9439(8)
N16_2 N 0.8700(3) 0.7532(5) 0.9388(6)
Cd7_2 Cd 0.5000 0.25298(13) 0.94984(16)
N21_2 N 1.0000 0.8929(4) 0.9007(5)
N1_9 N 1.0000 1.0000 0.0000
N1_10 N 1.0000 1.0000 1.0000
C6_4 C 1.0000 0.9552(5) 0.9344(6)
N1_11 N 0.5000 -0.0000 0.5000
N10_3 N 0.5000 0.1071(4) 0.4007(5)
C6_5 C 0.5000 0.0448(5) 0.4344(6)
N1_12 N 0.5000 1.0000 0.5000
N2_4 N 0.7500 0.7500 0.5000
N3_5 N 0.5000 0.8277(7) 0.2838(4)
N4_5 N 0.5000 0.6354(3) 0.4742(7)
C1_3 C 0.6978(4) 0.7469(12) 0.5561(8)
C2_5 C 0.5000 0.8131(15) 0.3592(3)
C3_5 C 0.5000 0.5662(3) 0.4717(6)
N5_9 N 0.5000 0.5000 0.5000
N6_5 N 0.5000 0.8209(6) 0.4254(3)
C4_5 C 0.5000 0.7769(8) 0.2259(5)
N7_3 N 0.6300(3) 0.7532(5) 0.5612(6)
N8_5 N 0.5000 0.8929(4) 0.5993(5)
N9_3 N 0.5000 0.7401(9) 0.1700(7)
C5_5 C 0.5000 0.9552(5) 0.5656(6)
C7_3 C 0.8022(4) 0.7531(12) 0.4439(8)
N12_5 N 0.5000 0.3646(3) 0.5258(7)
C8_5 C 0.5000 0.4338(3) 0.5283(6)
N13_4 N 0.7500 0.2500 0.5000
N14_5 N 0.5000 0.1723(7) 0.7162(4)
C9_3 C 0.6978(4) 0.2531(12) 0.4439(8)
C10_5 C 0.5000 0.1869(15) 0.6408(3)
N15_5 N 0.5000 0.1791(6) 0.5746(3)
C11_5 C 0.5000 0.2231(8) 0.7741(5)
N16_3 N 0.6300(3) 0.2468(5) 0.4388(6)
N17_3 N 0.5000 0.2599(9) 0.8300(7)
C12_3 C 0.8022(4) 0.2469(12) 0.5561(8)
N22_3 N 0.5000 0.7599(9) 0.6700(7)
N23_3 N 0.5000 0.2401(9) 0.3300(7)
N5_10 N 0.5000 -0.0000 0.0000
N12_6 N 0.5000 0.1354(3) 0.0258(7)
C8_6 C 0.5000 0.0662(3) 0.0283(6)
N13_5 N 0.2500 0.2500 0.0000
N14_6 N 0.5000 0.3277(7) 0.2162(4)
C10_6 C 0.5000 0.3131(15) 0.1408(3)
N15_6 N 0.5000 0.3209(6) 0.0746(3)
C11_6 C 0.5000 0.2769(8) 0.2741(5)
C12_4 C 0.1978(4) 0.2531(12) 0.0561(8)
N5_11 N 0.5000 0.0000 1.0000
N13_6 N 0.2500 0.2500 1.0000
C9_4 C 0.3022(4) 0.2469(12) 0.9439(8)
N16_4 N 0.3700(3) 0.2532(5) 0.9388(6)
N21_3 N 0.5000 0.3929(4) 0.9007(5)
N1_13 N 0.5000 0.5000 0.0000
N2_5 N 0.2500 0.7500 0.0000
C1_4 C 0.3022(4) 0.7531(12) 0.0561(8)
N5_12 N 0.5000 1.0000 0.0000
N7_4 N 0.3700(3) 0.7468(5) 0.0612(6)
N8_6 N 0.5000 0.6071(4) 0.0993(5)
C5_6 C 0.5000 0.5448(5) 0.0656(6)
N1_14 N 0.5000 0.5000 1.0000
N2_6 N 0.2500 0.7500 1.0000
N3_6 N 0.5000 0.6723(7) 0.7838(4)
N4_6 N 0.5000 0.8646(3) 0.9742(7)
C2_6 C 0.5000 0.6869(15) 0.8592(3)
C3_6 C 0.5000 0.9338(3) 0.9717(6)
N5_13 N 0.5000 1.0000 1.0000
N6_6 N 0.5000 0.6791(6) 0.9254(3)
C4_6 C 0.5000 0.7231(8) 0.7259(5)
C6_6 C 0.5000 0.4552(5) 0.9344(6)
C7_4 C 0.1978(4) 0.7469(12) 0.9439(8)
loop_
_geom_bond_atom_site_label_1
_geom_bond_atom_site_label_2
_geom_bond_site_symmetry_1
_geom_bond_site_symmetry_2
N1 C5 1_555 1_555
N2 C1 1_555 1_555
N3 C2 1_555 1_555
Cd1 N4 1_555 1_555
N4 C3 1_555 1_555
C1 N7 1_555 1_555
C2 N6 1_555 1_555
C3 N5 1_555 1_555
N6 Cd1 1_555 1_555
C4 N3 1_555 1_555
N7 Cd1 1_555 1_555
N8 Cd1 1_555 1_555
N9 C4 1_555 1_555
C5 N8 1_555 1_555
N10 C6 1_555 1_555
C6 N1 1_555 1_555
C7 N2 1_555 1_555
N11 C7 1_555 1_555
Cd3 N9 1_555 1_555
Cd5 N10 1_555 1_555
Cd7 N11 1_555 1_555
N22 Cd1 1_555 1_555
N5_2 C8 1_555 1_555
N12 C8 1_555 1_555
N13 C9 1_555 1_555
N14 C10 1_555 1_555
Cd5 N12 1_555 1_555
C9 N16 1_555 1_555
C10 N15 1_555 1_555
N15 Cd5 1_555 1_555
C11 N14 1_555 1_555
N16 Cd5 1_555 1_555
N17 C11 1_555 1_555
C12 N13 1_555 1_555
N18 C12 1_555 1_555
Cd4 N17 1_555 1_555
Cd6 N18 1_555 1_555
N23 Cd5 1_555 1_555
N1_2 C5_2 1_555 1_555
N3_2 C2_2 1_555 1_555
Cd1_2 N4_2 1_555 1_555
N4_2 C3_2 1_555 1_555
C2_2 N6_2 1_555 1_555
C3_2 N5_3 1_555 1_555
N6_2 Cd1_2 1_555 1_555
C4_2 N3_2 1_555 1_555
N8_2 Cd1_2 1_555 1_555
N9_2 C4_2 1_555 1_555
C5_2 N8_2 1_555 1_555
N10_2 C6_2 1_555 1_555
C6_2 N1_2 1_555 1_555
Cd3_2 N9_2 1_555 1_555
Cd5_2 N10_2 1_555 1_555
N20 Cd1_2 1_555 1_555
N22_2 Cd1_2 1_555 1_555
N5_4 C8_2 1_555 1_555
N12_2 C8_2 1_555 1_555
N14_2 C10_2 1_555 1_555
Cd5_2 N12_2 1_555 1_555
C10_2 N15_2 1_555 1_555
N15_2 Cd5_2 1_555 1_555
C11_2 N14_2 1_555 1_555
N17_2 C11_2 1_555 1_555
Cd4_2 N17_2 1_555 1_555
N19 Cd5_2 1_555 1_555
N23_2 Cd5_2 1_555 1_555
N1_3 C5_3 1_555 1_555
N5_5 C8_3 1_555 1_555
N8_3 Cd3 1_555 1_555
C5_3 N8_3 1_555 1_555
N12_3 C8_3 1_555 1_555
N14_3 C10_3 1_555 1_555
C10_3 N15_3 1_555 1_555
C11_3 N14_3 1_555 1_555
N23 C11_3 1_555 1_555
N20_2 Cd3 1_555 1_555
N3_3 C2_3 1_555 1_555
N4_3 C3_3 1_555 1_555
C2_3 N6_3 1_555 1_555
C3_3 N5_6 1_555 1_555
C4_3 N3_3 1_555 1_555
N22 C4_3 1_555 1_555
N19_2 Cd4 1_555 1_555
N21 Cd4 1_555 1_555
N21 C6_3 1_555 1_555
C6_3 N1_6 1_555 1_555
N1_7 C5_4 1_555 1_555
N2_2 C1_2 1_555 1_555
C1_2 N7_2 1_555 1_555
N5_7 C8_4 1_555 1_555
N7_2 Cd3_2 1_555 1_555
N8_4 Cd3_2 1_555 1_555
C5_4 N8_4 1_555 1_555
N12_4 C8_4 1_555 1_555
N14_4 C10_4 1_555 1_555
C10_4 N15_4 1_555 1_555
C11_4 N14_4 1_555 1_555
N23_2 C11_4 1_555 1_555
C12_2 N13_2 1_555 1_555
N18_2 C12_2 1_555 1_555
Cd6_2 N18_2 1_555 1_555
N3_4 C2_4 1_555 1_555
N4_4 C3_4 1_555 1_555
C2_4 N6_4 1_555 1_555
C3_4 N5_8 1_555 1_555
C4_4 N3_4 1_555 1_555
N22_2 C4_4 1_555 1_555
C7_2 N2_3 1_555 1_555
N11_2 C7_2 1_555 1_555
N13_3 C9_2 1_555 1_555
C9_2 N16_2 1_555 1_555
N16_2 Cd4_2 1_555 1_555
Cd7_2 N11_2 1_555 1_555
N21_2 Cd4_2 1_555 1_555
N21_2 C6_4 1_555 1_555
C6_4 N1_10 1_555 1_555
N10_3 C6_5 1_555 1_555
C6_5 N1_11 1_555 1_555
Cd7 N10_3 1_555 1_555
N1_12 C5_5 1_555 1_555
N2_4 C1_3 1_555 1_555
N3_5 C2_5 1_555 1_555
Cd6 N4_5 1_555 1_555
N4_5 C3_5 1_555 1_555
C1_3 N7_3 1_555 1_555
C2_5 N6_5 1_555 1_555
C3_5 N5_9 1_555 1_555
N5_9 C8_5 1_555 1_555
N6_5 Cd6 1_555 1_555
C4_5 N3_5 1_555 1_555
N7_3 Cd6 1_555 1_555
N8_5 Cd6 1_555 1_555
N9_3 C4_5 1_555 1_555
C5_5 N8_5 1_555 1_555
C7_3 N2_4 1_555 1_555
N19 C7_3 1_555 1_555
N12_5 C8_5 1_555 1_555
N13_4 C9_3 1_555 1_555
N14_5 C10_5 1_555 1_555
Cd7 N12_5 1_555 1_555
C9_3 N16_3 1_555 1_555
C10_5 N15_5 1_555 1_555
N15_5 Cd7 1_555 1_555
C11_5 N14_5 1_555 1_555
N16_3 Cd7 1_555 1_555
N17_3 C11_5 1_555 1_555
C12_3 N13_4 1_555 1_555
N20 C12_3 1_555 1_555
Cd6_2 N9_3 1_555 1_555
Cd7_2 N17_3 1_555 1_555
N22_3 Cd6 1_555 1_555
N23_3 Cd7 1_555 1_555
N5_10 C8_6 1_555 1_555
N12_6 C8_6 1_555 1_555
N14_6 C10_6 1_555 1_555
C10_6 N15_6 1_555 1_555
C11_6 N14_6 1_555 1_555
N23_3 C11_6 1_555 1_555
C12_4 N13_5 1_555 1_555
N20_2 C12_4 1_555 1_555
N13_6 C9_4 1_555 1_555
C9_4 N16_4 1_555 1_555
N16_4 Cd7_2 1_555 1_555
N21_3 Cd7_2 1_555 1_555
N1_13 C5_6 1_555 1_555
N2_5 C1_4 1_555 1_555
C1_4 N7_4 1_555 1_555
N7_4 Cd6_2 1_555 1_555
N8_6 Cd6_2 1_555 1_555
C5_6 N8_6 1_555 1_555
N3_6 C2_6 1_555 1_555
N4_6 C3_6 1_555 1_555
C2_6 N6_6 1_555 1_555
C3_6 N5_13 1_555 1_555
C4_6 N3_6 1_555 1_555
N22_3 C4_6 1_555 1_555
N21_3 C6_6 1_555 1_555
C6_6 N1_14 1_555 1_555
C7_4 N2_6 1_555 1_555
N19_2 C7_4 1_555 1_555

#END
