
###############################################################################
#
# This file contains modified crystal structure data generated from the
# MOF subset of the Cambridge Structural Database (CSD) v543 
# hosted by the Cambridge Crystallographic Data Centre (CCDC).
#
# This work is licensed under the Creative Commons
# Attribution-NonCommercial-ShareAlike 4.0 International License.
# To view a copy of this license, visit
# http://creativecommons.org/licenses/by-nc-sa/4.0/
# or send a letter to
# Creative Commons, PO Box 1866, Mountain View, CA 94042, USA.
#
# CIF created using the CSD Python API on 29 September 2022
# The structure has been converted into the P1 space group
# The structure has a 3D framework
# The original CSD entry YASLOW is in the cubic crystal system
# The original CSD entry YASLOW is in a Sohncke space group
# The framework has been calculated to contain at least 10.0% void space
# The void calculation uses a probe of radius 1.32A, grid spacing 0.4
# The framework is charged, counterions have been retained in the structure
# H atom positions have been added when not included in the experimental data
# Generated hydrogen atom positions removed from atoms on special positions
#
###############################################################################

data_YASLOW
_chemical_formula_moiety         '(C366 H480 N32 O256 Zn32 8+)n'
_symmetry_cell_setting           triclinic
_symmetry_space_group_name_H-M   'P 1'
_symmetry_Int_Tables_number      1
_space_group_name_Hall           'P 1'
loop_
_symmetry_equiv_pos_site_id
_symmetry_equiv_pos_as_xyz
1 x,y,z
_cell_length_a                   27.7205(9)
_cell_length_b                   27.7205(9)
_cell_length_c                   27.7205(9)
_cell_angle_alpha                90
_cell_angle_beta                 90
_cell_angle_gamma                90
_cell_volume                     21301.2
loop_
_atom_site_label
_atom_site_type_symbol
_atom_site_fract_x
_atom_site_fract_y
_atom_site_fract_z
O1 O 0.6250 0.3750 0.8750
O1_2 O 0.3750 0.1250 0.3750
O1_3 O 0.8750 0.8750 0.1250
O1_4 O 0.1250 0.6250 0.6250
O1_5 O 0.8750 0.6250 0.3750
O1_6 O 0.3750 0.3750 0.1250
O1_7 O 0.1250 0.8750 0.8750
O1_8 O 0.6250 0.1250 0.6250
O1_9 O 0.3750 0.8750 0.6250
O1_10 O 0.1250 0.3750 0.3750
O1_11 O 0.8750 0.1250 0.8750
O1_12 O 0.6250 0.6250 0.1250
O1_13 O 0.6250 0.8750 0.3750
O1_14 O 0.3750 0.6250 0.8750
O1_15 O 0.8750 0.3750 0.6250
O1_16 O 0.1250 0.1250 0.1250
N2 N 0.46876(8) 0.53124(8) 0.03124(8)
C8 C 0.43804(13) 0.5000 0.0000
C9 C 0.5000 0.56196(13) 0.0000
N4 N 0.53124(8) 0.46876(8) 0.03124(8)
C10 C 0.56196(13) 0.5000 0.0000
C11 C 0.5000 0.43804(13) 0.0000
C12 C 0.5000 0.5000 0.06196(13)
H9 H 0.4796 0.4796 0.0829
H10 H 0.4171 0.4796 0.0204
H11 H 0.4796 0.4171 0.0204
H12 H 0.5204 0.5204 0.0829
H13 H 0.5829 0.5204 0.0204
H14 H 0.5204 0.5829 0.0204
Zn2 Zn 0.42520(2) 0.57480(2) 0.07480(2)
O7 O 0.35791(10) 0.55449(9) 0.08105(10)
O8 O 0.38770(9) 0.48300(8) 0.10287(10)
O9 O 0.29898(8) 0.45102(8) 0.1250
C13 C 0.35423(13) 0.51211(12) 0.09714(13)
C14 C 0.30474(13) 0.49822(13) 0.11166(15)
C15 C 0.26248(16) 0.52184(15) 0.1152(2)
H15 H 0.2563 0.5544 0.1066
O10 O 0.19551(9) 0.39209(10) 0.16895(10)
O11 O 0.26700(8) 0.36230(9) 0.14713(10)
C16 C 0.23789(12) 0.39577(13) 0.15286(13)
C17 C 0.25178(13) 0.44526(13) 0.13834(15)
C18 C 0.22816(15) 0.48752(16) 0.1348(2)
H16 H 0.1956 0.4937 0.1434
O13 O 0.60287(10) 0.61230(9) 0.01700(8)
O14 O 0.6250 0.70102(8) 0.04898(8)
C20 C 0.61166(15) 0.69526(13) 0.00178(13)
O15 O 0.66895(10) 0.80449(9) 0.10791(10)
O16 O 0.64713(10) 0.73300(8) 0.13770(9)
C22 C 0.65286(13) 0.76211(12) 0.10423(13)
C23 C 0.63834(15) 0.74822(13) 0.05474(13)
C24 C 0.6348(2) 0.77184(15) 0.01248(16)
H18 H 0.6434 0.8044 0.0063
Zn4 Zn 0.57480(2) 0.42520(2) 0.07480(2)
O22 O 0.58105(10) 0.35791(10) 0.05449(9)
C31 C 0.59714(13) 0.35423(13) 0.01211(12)
C33 C 0.6152(2) 0.26248(16) 0.02184(15)
H21 H 0.6066 0.2563 0.0544
Zn8 Zn 0.67520(2) 0.82480(2) 0.17520(2)
Zn9 Zn 0.17520(2) 0.32480(2) 0.17520(2)
O32 O 0.64209(10) 0.44551(9) 0.08105(10)
O34 O 0.44551(9) 0.58105(10) 0.14209(10)
O36 O 0.55449(9) 0.41895(10) 0.14209(10)
O37 O 0.41895(10) 0.64209(10) 0.05449(9)
Zn1 Zn 0.42520(2) 0.42520(2) 0.92520(2)
O2 O 0.44551(9) 0.41895(10) 0.85791(10)
O3 O 0.51700(8) 0.39713(10) 0.88770(9)
O4 O 0.54898(8) 0.3750 0.79898(8)
C1 C 0.48789(12) 0.40286(13) 0.85423(13)
C2 C 0.50178(13) 0.38834(15) 0.80474(13)
C3 C 0.47816(15) 0.3848(2) 0.76248(16)
H1 H 0.4456 0.3934 0.7563
N1 N 0.46876(8) 0.46876(8) 0.96876(8)
C4 C 0.5000 0.5000 0.93804(13)
H2 H 0.4796 0.5204 0.9171
O5 O 0.60791(10) 0.33105(10) 0.69551(9)
O6 O 0.63770(9) 0.35287(10) 0.76700(8)
C5 C 0.60423(13) 0.34714(13) 0.73789(12)
C6 C 0.55474(13) 0.36166(15) 0.75178(13)
C7 C 0.51248(16) 0.3652(2) 0.72816(15)
H3 H 0.5063 0.3566 0.6956
C8_2 C 0.43804(13) 0.5000 1.0000
H4 H 0.4171 0.5204 0.9796
N3 N 0.53124(8) 0.53124(8) 0.96876(8)
C9_2 C 0.5000 0.56196(13) 1.0000
H5 H 0.4796 0.5829 0.9796
H6 H 0.5204 0.4796 0.9171
C10_2 C 0.56196(13) 0.5000 1.0000
H7 H 0.5829 0.4796 0.9796
C11_2 C 0.5000 0.43804(13) 1.0000
H8 H 0.5204 0.4171 0.9796
Zn3 Zn 0.57480(2) 0.57480(2) 0.92520(2)
O12 O 0.58105(10) 0.64209(10) 0.94551(9)
C19 C 0.59714(13) 0.64577(13) 0.98789(12)
C21 C 0.6152(2) 0.73752(16) 0.97816(15)
H17 H 0.6066 0.7437 0.9456
O17 O 0.55449(9) 0.58105(10) 0.85791(10)
O18 O 0.48300(8) 0.60287(10) 0.88770(9)
O19 O 0.45102(8) 0.6250 0.79898(8)
C25 C 0.51211(12) 0.59714(13) 0.85423(13)
C26 C 0.49822(13) 0.61166(15) 0.80474(13)
C27 C 0.52184(15) 0.6152(2) 0.76248(16)
H19 H 0.5544 0.6066 0.7563
O20 O 0.39209(10) 0.66895(10) 0.69551(9)
O21 O 0.36230(9) 0.64713(10) 0.76700(8)
C28 C 0.39577(13) 0.65286(13) 0.73789(12)
C29 C 0.44526(13) 0.63834(15) 0.75178(13)
C30 C 0.48752(16) 0.6348(2) 0.72816(15)
H20 H 0.4937 0.6434 0.6956
O23 O 0.60287(10) 0.38770(9) 0.98300(8)
O24 O 0.6250 0.29898(8) 0.95102(8)
C32 C 0.61166(15) 0.30474(13) 0.99822(13)
O25 O 0.66895(10) 0.19551(9) 0.89209(10)
O26 O 0.64713(10) 0.26700(8) 0.86230(9)
C34 C 0.65286(13) 0.23789(12) 0.89577(13)
C35 C 0.63834(15) 0.25178(13) 0.94526(13)
C36 C 0.6348(2) 0.22816(15) 0.98752(16)
H22 H 0.6434 0.1956 0.9937
O27 O 0.64209(10) 0.55449(9) 0.91895(10)
O28 O 0.61230(9) 0.48300(8) 0.89713(10)
O29 O 0.70102(8) 0.45102(8) 0.8750
C37 C 0.64577(13) 0.51211(12) 0.90286(13)
C38 C 0.69526(13) 0.49822(13) 0.88834(15)
C39 C 0.73752(16) 0.52184(15) 0.8848(2)
H23 H 0.7437 0.5544 0.8934
O30 O 0.80449(9) 0.39209(10) 0.83105(10)
O31 O 0.73300(8) 0.36230(9) 0.85287(10)
C40 C 0.76211(12) 0.39577(13) 0.84714(13)
C41 C 0.74822(13) 0.44526(13) 0.86166(15)
C42 C 0.77184(15) 0.48752(16) 0.8652(2)
H24 H 0.8044 0.4937 0.8566
Zn5 Zn 0.67520(2) 0.32480(2) 0.67520(2)
Zn6 Zn 0.32480(2) 0.67520(2) 0.67520(2)
Zn7 Zn 0.82480(2) 0.32480(2) 0.82480(2)
Zn10 Zn 0.67520(2) 0.17520(2) 0.82480(2)
O33 O 0.41895(10) 0.35791(10) 0.94551(9)
O35 O 0.35791(10) 0.44551(9) 0.91895(10)
Zn1_2 Zn 0.57480(2) 0.07480(2) 0.42520(2)
O2_2 O 0.55449(9) 0.08105(10) 0.35791(10)
O3_2 O 0.48300(8) 0.10287(10) 0.38770(9)
O4_2 O 0.45102(8) 0.1250 0.29898(8)
C1_2 C 0.51211(12) 0.09714(13) 0.35423(13)
C2_2 C 0.49822(13) 0.11166(15) 0.30474(13)
C3_2 C 0.52184(15) 0.1152(2) 0.26248(16)
H1_2 H 0.5544 0.1066 0.2563
N1_2 N 0.53124(8) 0.03124(8) 0.46876(8)
C4_2 C 0.5000 0.0000 0.43804(13)
O5_2 O 0.39209(10) 0.16895(10) 0.19551(9)
O6_2 O 0.36230(9) 0.14713(10) 0.26700(8)
C5_2 C 0.39577(13) 0.15286(13) 0.23789(12)
C6_2 C 0.44526(13) 0.13834(15) 0.25178(13)
C7_2 C 0.48752(16) 0.1348(2) 0.22816(15)
H3_2 H 0.4937 0.1434 0.1956
C8_3 C 0.56196(13) -0.0000 0.5000
H6_2 H 0.4796 0.0204 0.4171
N4_2 N 0.46876(8) 0.03124(8) 0.53124(8)
C10_3 C 0.43804(13) -0.0000 0.5000
H7_2 H 0.4171 0.0204 0.4796
C11_3 C 0.5000 0.06196(13) 0.5000
H8_2 H 0.4796 0.0829 0.4796
C12_2 C 0.5000 0.0000 0.56196(13)
H9_2 H 0.5204 0.0204 0.5829
H10_2 H 0.5829 0.0204 0.5204
H11_2 H 0.5204 0.0829 0.5204
O8_2 O 0.61230(9) 0.01700(8) 0.60287(10)
O9_2 O 0.70102(8) 0.04898(8) 0.6250
C14_2 C 0.69526(13) 0.00178(13) 0.61166(15)
O10_2 O 0.80449(9) 0.10791(10) 0.66895(10)
O11_2 O 0.73300(8) 0.13770(9) 0.64713(10)
C16_2 C 0.76211(12) 0.10423(13) 0.65286(13)
C17_2 C 0.74822(13) 0.05474(13) 0.63834(15)
C18_2 C 0.77184(15) 0.01248(16) 0.6348(2)
H16_2 H 0.8044 0.0063 0.6434
Zn4_2 Zn 0.42520(2) 0.07480(2) 0.57480(2)
O22_2 O 0.41895(10) 0.14209(10) 0.55449(9)
O23_2 O 0.39713(10) 0.11230(9) 0.48300(8)
O24_2 O 0.3750 0.20102(8) 0.45102(8)
C31_2 C 0.40286(13) 0.14577(13) 0.51211(12)
C32_2 C 0.38834(15) 0.19526(13) 0.49822(13)
C33_2 C 0.3848(2) 0.23752(16) 0.52184(15)
H21_2 H 0.3934 0.2437 0.5544
O25_2 O 0.33105(10) 0.30449(9) 0.39209(10)
O26_2 O 0.35287(10) 0.23300(8) 0.36230(9)
C34_2 C 0.34714(13) 0.26211(12) 0.39577(13)
C35_2 C 0.36166(15) 0.24822(13) 0.44526(13)
C36_2 C 0.3652(2) 0.27184(15) 0.48752(16)
H22_2 H 0.3566 0.3044 0.4937
O28_2 O 0.38770(9) 0.01700(8) 0.39713(10)
O29_2 O 0.29898(8) 0.04898(8) 0.3750
C38_2 C 0.30474(13) 0.00178(13) 0.38834(15)
O30_2 O 0.19551(9) 0.10791(10) 0.33105(10)
O31_2 O 0.26700(8) 0.13770(9) 0.35287(10)
C40_2 C 0.23789(12) 0.10423(13) 0.34714(13)
C41_2 C 0.25178(13) 0.05474(13) 0.36166(15)
C42_2 C 0.22816(15) 0.01248(16) 0.3652(2)
H24_2 H 0.1956 0.0063 0.3566
Zn5_2 Zn 0.32480(2) 0.17520(2) 0.17520(2)
Zn7_2 Zn 0.17520(2) 0.17520(2) 0.32480(2)
Zn9_2 Zn 0.82480(2) 0.17520(2) 0.67520(2)
Zn10_2 Zn 0.32480(2) 0.32480(2) 0.32480(2)
O32_2 O 0.35791(10) 0.05449(9) 0.58105(10)
O33_2 O 0.58105(10) 0.14209(10) 0.44551(9)
O35_2 O 0.64209(10) 0.05449(9) 0.41895(10)
O36_2 O 0.44551(9) 0.08105(10) 0.64209(10)
C4_3 C 0.5000 1.0000 0.43804(13)
H2_2 H 0.5204 0.9796 0.4171
N2_2 N 0.53124(8) 0.96876(8) 0.53124(8)
C8_4 C 0.56196(13) 1.0000 0.5000
H4_2 H 0.5829 0.9796 0.4796
N3_2 N 0.46876(8) 0.96876(8) 0.46876(8)
C9_3 C 0.5000 0.93804(13) 0.5000
H5_2 H 0.5204 0.9171 0.4796
C10_4 C 0.43804(13) 1.0000 0.5000
C12_3 C 0.5000 1.0000 0.56196(13)
H12_2 H 0.4796 0.9796 0.5829
H13_2 H 0.4171 0.9796 0.5204
H14_2 H 0.4796 0.9171 0.5204
Zn2_2 Zn 0.57480(2) 0.92520(2) 0.57480(2)
O7_2 O 0.64209(10) 0.94551(9) 0.58105(10)
C13_2 C 0.64577(13) 0.98789(12) 0.59714(13)
C15_2 C 0.73752(16) 0.97816(15) 0.6152(2)
H15_2 H 0.7437 0.9456 0.6066
Zn3_2 Zn 0.42520(2) 0.92520(2) 0.42520(2)
O12_2 O 0.41895(10) 0.85791(10) 0.44551(9)
O13_2 O 0.39713(10) 0.88770(9) 0.51700(8)
O14_2 O 0.3750 0.79898(8) 0.54898(8)
C19_2 C 0.40286(13) 0.85423(13) 0.48789(12)
C20_2 C 0.38834(15) 0.80474(13) 0.50178(13)
C21_2 C 0.3848(2) 0.76248(16) 0.47816(15)
H17_2 H 0.3934 0.7563 0.4456
O15_2 O 0.33105(10) 0.69551(9) 0.60791(10)
O16_2 O 0.35287(10) 0.76700(8) 0.63770(9)
C22_2 C 0.34714(13) 0.73789(12) 0.60423(13)
C23_2 C 0.36166(15) 0.75178(13) 0.55474(13)
C24_2 C 0.3652(2) 0.72816(15) 0.51248(16)
H18_2 H 0.3566 0.6956 0.5063
O17_2 O 0.44551(9) 0.91895(10) 0.35791(10)
O18_2 O 0.51700(8) 0.89713(10) 0.38770(9)
O19_2 O 0.54898(8) 0.8750 0.29898(8)
C25_2 C 0.48789(12) 0.90286(13) 0.35423(13)
C26_2 C 0.50178(13) 0.88834(15) 0.30474(13)
C27_2 C 0.47816(15) 0.8848(2) 0.26248(16)
H19_2 H 0.4456 0.8934 0.2563
O20_2 O 0.60791(10) 0.83105(10) 0.19551(9)
O21_2 O 0.63770(9) 0.85287(10) 0.26700(8)
C28_2 C 0.60423(13) 0.84714(13) 0.23789(12)
C29_2 C 0.55474(13) 0.86166(15) 0.25178(13)
C30_2 C 0.51248(16) 0.8652(2) 0.22816(15)
H20_2 H 0.5063 0.8566 0.1956
O27_2 O 0.35791(10) 0.94551(9) 0.41895(10)
C37_2 C 0.35423(13) 0.98789(12) 0.40286(13)
C39_2 C 0.26248(16) 0.97816(15) 0.3848(2)
H23_2 H 0.2563 0.9456 0.3934
O34_2 O 0.55449(9) 0.91895(10) 0.64209(10)
O37_2 O 0.58105(10) 0.85791(10) 0.55449(9)
C4_4 C 0.0000 0.0000 0.06196(13)
H2_3 H 0.0204 0.0204 0.0829
C8_5 C 0.06196(13) 0.0000 0.0000
H4_3 H 0.0829 0.0204 0.0204
C9_4 C 0.0000 0.06196(13) 0.0000
H5_3 H 0.0204 0.0829 0.0204
O18_3 O 0.01700(8) 0.10287(10) 0.11230(9)
O19_3 O 0.04898(8) 0.1250 0.20102(8)
C26_3 C 0.00178(13) 0.11166(15) 0.19526(13)
O20_3 O 0.10791(10) 0.16895(10) 0.30449(9)
O21_3 O 0.13770(9) 0.14713(10) 0.23300(8)
C28_3 C 0.10423(13) 0.15286(13) 0.26211(12)
C29_3 C 0.05474(13) 0.13834(15) 0.24822(13)
C30_3 C 0.01248(16) 0.1348(2) 0.27184(15)
H20_3 H 0.0063 0.1434 0.3044
N2_3 N 0.03124(8) 0.03124(8) 0.96876(8)
C8_6 C 0.06196(13) -0.0000 1.0000
C9_5 C -0.0000 0.06196(13) 1.0000
C12_4 C 0.0000 0.0000 0.93804(13)
Zn2_3 Zn 0.07480(2) 0.07480(2) 0.92520(2)
O7_3 O 0.14209(10) 0.05449(9) 0.91895(10)
C13_3 C 0.14577(13) 0.01211(12) 0.90286(13)
C15_3 C 0.23752(16) 0.02184(15) 0.8848(2)
H15_3 H 0.2437 0.0544 0.8934
O34_3 O 0.05449(9) 0.08105(10) 0.85791(10)
O37_3 O 0.08105(10) 0.14209(10) 0.94551(9)
Zn1_3 Zn 0.07480(2) 0.92520(2) 0.07480(2)
O2_3 O 0.05449(9) 0.91895(10) 0.14209(10)
C1_3 C 0.01211(12) 0.90286(13) 0.14577(13)
C3_3 C 0.02184(15) 0.8848(2) 0.23752(16)
H1_3 H 0.0544 0.8934 0.2437
N1_3 N 0.03124(8) 0.96876(8) 0.03124(8)
C4_5 C -0.0000 1.0000 0.06196(13)
C8_7 C 0.06196(13) 1.0000 0.0000
C11_4 C 0.0000 0.93804(13) 0.0000
O33_3 O 0.08105(10) 0.85791(10) 0.05449(9)
O35_3 O 0.14209(10) 0.94551(9) 0.08105(10)
C8_8 C 0.06196(13) 1.0000 1.0000
C11_5 C -0.0000 0.93804(13) 1.0000
C12_5 C -0.0000 1.0000 0.93804(13)
H9_3 H 0.0204 0.9796 0.9171
H10_3 H 0.0829 0.9796 0.9796
H11_3 H 0.0204 0.9171 0.9796
O8_3 O 0.11230(9) 0.98300(8) 0.89713(10)
O9_3 O 0.20102(8) 0.95102(8) 0.8750
C14_3 C 0.19526(13) 0.99822(13) 0.88834(15)
O10_3 O 0.30449(9) 0.89209(10) 0.83105(10)
O11_3 O 0.23300(8) 0.86230(9) 0.85287(10)
C16_3 C 0.26211(12) 0.89577(13) 0.84714(13)
C17_3 C 0.24822(13) 0.94526(13) 0.86166(15)
C18_3 C 0.27184(15) 0.98752(16) 0.8652(2)
H16_3 H 0.3044 0.9937 0.8566
Zn9_3 Zn 0.32480(2) 0.82480(2) 0.82480(2)
C4_6 C 1.0000 0.0000 0.06196(13)
N3_3 N 0.96876(8) 0.03124(8) 0.03124(8)
C9_6 C 1.0000 0.06196(13) 0.0000
C10_5 C 0.93804(13) 0.0000 0.0000
Zn3_3 Zn 0.92520(2) 0.07480(2) 0.07480(2)
O12_3 O 0.91895(10) 0.14209(10) 0.05449(9)
C19_3 C 0.90286(13) 0.14577(13) 0.01211(12)
C21_3 C 0.8848(2) 0.23752(16) 0.02184(15)
H17_3 H 0.8934 0.2437 0.0544
O17_3 O 0.94551(9) 0.08105(10) 0.14209(10)
C25_3 C 0.98789(12) 0.09714(13) 0.14577(13)
C27_3 C 0.97816(15) 0.1152(2) 0.23752(16)
H19_3 H 0.9456 0.1066 0.2437
O27_3 O 0.85791(10) 0.05449(9) 0.08105(10)
C37_3 C 0.85423(13) 0.01211(12) 0.09714(13)
C39_3 C 0.76248(16) 0.02184(15) 0.1152(2)
H23_3 H 0.7563 0.0544 0.1066
C9_7 C 1.0000 0.06196(13) 1.0000
C10_6 C 0.93804(13) -0.0000 1.0000
C12_6 C 1.0000 0.0000 0.93804(13)
H12_3 H 0.9796 0.0204 0.9171
H13_3 H 0.9171 0.0204 0.9796
H14_3 H 0.9796 0.0829 0.9796
O13_3 O 0.89713(10) 0.11230(9) 0.98300(8)
O14_3 O 0.8750 0.20102(8) 0.95102(8)
C20_3 C 0.88834(15) 0.19526(13) 0.99822(13)
O15_3 O 0.83105(10) 0.30449(9) 0.89209(10)
O16_3 O 0.85287(10) 0.23300(8) 0.86230(9)
C22_3 C 0.84714(13) 0.26211(12) 0.89577(13)
C23_3 C 0.86166(15) 0.24822(13) 0.94526(13)
C24_3 C 0.8652(2) 0.27184(15) 0.98752(16)
H18_3 H 0.8566 0.3044 0.9937
O3_3 O 0.98300(8) 0.89713(10) 0.11230(9)
O4_3 O 0.95102(8) 0.8750 0.20102(8)
C2_3 C 0.99822(13) 0.88834(15) 0.19526(13)
C4_7 C 1.0000 1.0000 0.06196(13)
O5_3 O 0.89209(10) 0.83105(10) 0.30449(9)
O6_3 O 0.86230(9) 0.85287(10) 0.23300(8)
C5_3 C 0.89577(13) 0.84714(13) 0.26211(12)
C6_3 C 0.94526(13) 0.86166(15) 0.24822(13)
C7_3 C 0.98752(16) 0.8652(2) 0.27184(15)
H3_3 H 0.9937 0.8566 0.3044
H6_3 H 0.9796 0.9796 0.0829
C10_7 C 0.93804(13) 1.0000 0.0000
H7_3 H 0.9171 0.9796 0.0204
C11_6 C 1.0000 0.93804(13) 0.0000
H8_3 H 0.9796 0.9171 0.0204
O23_3 O 0.89713(10) 0.88770(9) 0.01700(8)
O24_3 O 0.8750 0.79898(8) 0.04898(8)
C32_3 C 0.88834(15) 0.80474(13) 0.00178(13)
O25_3 O 0.83105(10) 0.69551(9) 0.10791(10)
O26_3 O 0.85287(10) 0.76700(8) 0.13770(9)
C34_3 C 0.84714(13) 0.73789(12) 0.10423(13)
C35_3 C 0.86166(15) 0.75178(13) 0.05474(13)
C36_3 C 0.8652(2) 0.72816(15) 0.01248(16)
H22_3 H 0.8566 0.6956 0.0063
O28_3 O 0.88770(9) 0.98300(8) 0.10287(10)
O29_3 O 0.79898(8) 0.95102(8) 0.1250
C38_3 C 0.80474(13) 0.99822(13) 0.11166(15)
O30_3 O 0.69551(9) 0.89209(10) 0.16895(10)
O31_3 O 0.76700(8) 0.86230(9) 0.14713(10)
C40_3 C 0.73789(12) 0.89577(13) 0.15286(13)
C41_3 C 0.75178(13) 0.94526(13) 0.13834(15)
C42_3 C 0.72816(15) 0.98752(16) 0.1348(2)
H24_3 H 0.6956 0.9937 0.1434
Zn5_3 Zn 0.82480(2) 0.82480(2) 0.32480(2)
Zn10_3 Zn 0.82480(2) 0.67520(2) 0.17520(2)
N4_3 N 0.96876(8) 0.96876(8) 0.96876(8)
C10_8 C 0.93804(13) 1.0000 1.0000
C11_7 C 1.0000 0.93804(13) 1.0000
C12_7 C 1.0000 1.0000 0.93804(13)
Zn4_3 Zn 0.92520(2) 0.92520(2) 0.92520(2)
O22_3 O 0.91895(10) 0.85791(10) 0.94551(9)
C31_3 C 0.90286(13) 0.85423(13) 0.98789(12)
C33_3 C 0.8848(2) 0.76248(16) 0.97816(15)
H21_3 H 0.8934 0.7563 0.9456
O32_3 O 0.85791(10) 0.94551(9) 0.91895(10)
O36_3 O 0.94551(9) 0.91895(10) 0.85791(10)
O3_4 O 0.01700(8) 0.60287(10) 0.61230(9)
O4_4 O 0.04898(8) 0.6250 0.70102(8)
C2_4 C 0.00178(13) 0.61166(15) 0.69526(13)
C4_8 C 0.0000 0.5000 0.56196(13)
O5_4 O 0.10791(10) 0.66895(10) 0.80449(9)
O6_4 O 0.13770(9) 0.64713(10) 0.73300(8)
C5_4 C 0.10423(13) 0.65286(13) 0.76211(12)
C6_4 C 0.05474(13) 0.63834(15) 0.74822(13)
C7_4 C 0.01248(16) 0.6348(2) 0.77184(15)
H3_4 H 0.0063 0.6434 0.8044
N3_4 N 0.03124(8) 0.46876(8) 0.53124(8)
C9_8 C 0.0000 0.43804(13) 0.5000
H6_4 H 0.0204 0.5204 0.5829
N4_4 N 0.03124(8) 0.53124(8) 0.46876(8)
C10_9 C 0.06196(13) 0.5000 0.5000
H7_4 H 0.0829 0.5204 0.5204
C11_8 C 0.0000 0.56196(13) 0.5000
H8_4 H 0.0204 0.5829 0.5204
C12_8 C 0.0000 0.5000 0.43804(13)
H12_4 H 0.0204 0.4796 0.4171
H13_4 H 0.0829 0.4796 0.4796
H14_4 H 0.0204 0.4171 0.4796
Zn3_4 Zn 0.07480(2) 0.42520(2) 0.57480(2)
O12_4 O 0.08105(10) 0.35791(10) 0.55449(9)
O13_4 O 0.10287(10) 0.38770(9) 0.48300(8)
O14_4 O 0.1250 0.29898(8) 0.45102(8)
C19_4 C 0.09714(13) 0.35423(13) 0.51211(12)
C20_4 C 0.11166(15) 0.30474(13) 0.49822(13)
C21_4 C 0.1152(2) 0.26248(16) 0.52184(15)
H17_4 H 0.1066 0.2563 0.5544
O15_4 O 0.16895(10) 0.19551(9) 0.39209(10)
O16_4 O 0.14713(10) 0.26700(8) 0.36230(9)
C22_4 C 0.15286(13) 0.23789(12) 0.39577(13)
C23_4 C 0.13834(15) 0.25178(13) 0.44526(13)
C24_4 C 0.1348(2) 0.22816(15) 0.48752(16)
H18_4 H 0.1434 0.1956 0.4937
O17_4 O 0.05449(9) 0.41895(10) 0.64209(10)
C25_4 C 0.01211(12) 0.40286(13) 0.64577(13)
C27_4 C 0.02184(15) 0.3848(2) 0.73752(16)
H19_4 H 0.0544 0.3934 0.7437
Zn4_4 Zn 0.07480(2) 0.57480(2) 0.42520(2)
O22_4 O 0.08105(10) 0.64209(10) 0.44551(9)
O23_4 O 0.10287(10) 0.61230(9) 0.51700(8)
O24_4 O 0.1250 0.70102(8) 0.54898(8)
C31_4 C 0.09714(13) 0.64577(13) 0.48789(12)
C32_4 C 0.11166(15) 0.69526(13) 0.50178(13)
C33_4 C 0.1152(2) 0.73752(16) 0.47816(15)
H21_4 H 0.1066 0.7437 0.4456
O25_4 O 0.16895(10) 0.80449(9) 0.60791(10)
O26_4 O 0.14713(10) 0.73300(8) 0.63770(9)
C34_4 C 0.15286(13) 0.76211(12) 0.60423(13)
C35_4 C 0.13834(15) 0.74822(13) 0.55474(13)
C36_4 C 0.1348(2) 0.77184(15) 0.51248(16)
H22_4 H 0.1434 0.8044 0.5063
O27_4 O 0.14209(10) 0.44551(9) 0.58105(10)
O28_4 O 0.11230(9) 0.51700(8) 0.60287(10)
O29_4 O 0.20102(8) 0.54898(8) 0.6250
C37_4 C 0.14577(13) 0.48789(12) 0.59714(13)
C38_4 C 0.19526(13) 0.50178(13) 0.61166(15)
C39_4 C 0.23752(16) 0.47816(15) 0.6152(2)
H23_4 H 0.2437 0.4456 0.6066
O30_4 O 0.30449(9) 0.60791(10) 0.66895(10)
O31_4 O 0.23300(8) 0.63770(9) 0.64713(10)
C40_4 C 0.26211(12) 0.60423(13) 0.65286(13)
C41_4 C 0.24822(13) 0.55474(13) 0.63834(15)
C42_4 C 0.27184(15) 0.51248(16) 0.6348(2)
H24_4 H 0.3044 0.5063 0.6434
Zn5_4 Zn 0.17520(2) 0.67520(2) 0.82480(2)
Zn10_4 Zn 0.17520(2) 0.82480(2) 0.67520(2)
O32_4 O 0.14209(10) 0.55449(9) 0.41895(10)
O36_4 O 0.05449(9) 0.58105(10) 0.35791(10)
Zn1_4 Zn 0.92520(2) 0.57480(2) 0.57480(2)
O2_4 O 0.94551(9) 0.58105(10) 0.64209(10)
C1_4 C 0.98789(12) 0.59714(13) 0.64577(13)
C3_4 C 0.97816(15) 0.6152(2) 0.73752(16)
H1_4 H 0.9456 0.6066 0.7437
N1_4 N 0.96876(8) 0.53124(8) 0.53124(8)
C4_9 C 1.0000 0.5000 0.56196(13)
H2_4 H 0.9796 0.4796 0.5829
N2_4 N 0.96876(8) 0.46876(8) 0.46876(8)
C8_9 C 0.93804(13) 0.5000 0.5000
H4_4 H 0.9171 0.4796 0.5204
C9_9 C 1.0000 0.43804(13) 0.5000
H5_4 H 0.9796 0.4171 0.5204
C11_9 C 1.0000 0.56196(13) 0.5000
C12_9 C 1.0000 0.5000 0.43804(13)
H9_4 H 0.9796 0.5204 0.4171
H10_4 H 0.9171 0.5204 0.4796
H11_4 H 0.9796 0.5829 0.4796
Zn2_4 Zn 0.92520(2) 0.42520(2) 0.42520(2)
O7_4 O 0.85791(10) 0.44551(9) 0.41895(10)
O8_4 O 0.88770(9) 0.51700(8) 0.39713(10)
O9_4 O 0.79898(8) 0.54898(8) 0.3750
C13_4 C 0.85423(13) 0.48789(12) 0.40286(13)
C14_4 C 0.80474(13) 0.50178(13) 0.38834(15)
C15_4 C 0.76248(16) 0.47816(15) 0.3848(2)
H15_4 H 0.7563 0.4456 0.3934
O10_4 O 0.69551(9) 0.60791(10) 0.33105(10)
O11_4 O 0.76700(8) 0.63770(9) 0.35287(10)
C16_4 C 0.73789(12) 0.60423(13) 0.34714(13)
C17_4 C 0.75178(13) 0.55474(13) 0.36166(15)
C18_4 C 0.72816(15) 0.51248(16) 0.3652(2)
H16_4 H 0.6956 0.5063 0.3566
O18_4 O 0.98300(8) 0.39713(10) 0.61230(9)
O19_4 O 0.95102(8) 0.3750 0.70102(8)
C26_4 C 0.99822(13) 0.38834(15) 0.69526(13)
O20_4 O 0.89209(10) 0.33105(10) 0.80449(9)
O21_4 O 0.86230(9) 0.35287(10) 0.73300(8)
C28_4 C 0.89577(13) 0.34714(13) 0.76211(12)
C29_4 C 0.94526(13) 0.36166(15) 0.74822(13)
C30_4 C 0.98752(16) 0.3652(2) 0.77184(15)
H20_4 H 0.9937 0.3566 0.8044
Zn9_4 Zn 0.67520(2) 0.67520(2) 0.32480(2)
O33_4 O 0.91895(10) 0.64209(10) 0.55449(9)
O34_4 O 0.94551(9) 0.41895(10) 0.35791(10)
O35_4 O 0.85791(10) 0.55449(9) 0.58105(10)
O37_4 O 0.91895(10) 0.35791(10) 0.44551(9)
C31_5 C 0.01211(12) 0.59714(13) 0.35423(13)
C33_5 C 0.02184(15) 0.6152(2) 0.26248(16)
H21_5 H 0.0544 0.6066 0.2563
O18_5 O 0.88770(9) 0.48300(8) 0.60287(10)
O19_5 O 0.79898(8) 0.45102(8) 0.6250
C25_5 C 0.85423(13) 0.51211(12) 0.59714(13)
C26_5 C 0.80474(13) 0.49822(13) 0.61166(15)
C27_5 C 0.76248(16) 0.52184(15) 0.6152(2)
H19_5 H 0.7563 0.5544 0.6066
O20_5 O 0.69551(9) 0.39209(10) 0.66895(10)
O21_5 O 0.76700(8) 0.36230(9) 0.64713(10)
C28_5 C 0.73789(12) 0.39577(13) 0.65286(13)
C29_5 C 0.75178(13) 0.44526(13) 0.63834(15)
C30_5 C 0.72816(15) 0.48752(16) 0.6348(2)
H20_5 H 0.6956 0.4937 0.6434
O23_5 O 0.98300(8) 0.60287(10) 0.38770(9)
O24_5 O 0.95102(8) 0.6250 0.29898(8)
C32_5 C 0.99822(13) 0.61166(15) 0.30474(13)
O25_5 O 0.89209(10) 0.66895(10) 0.19551(9)
O26_5 O 0.86230(9) 0.64713(10) 0.26700(8)
C34_5 C 0.89577(13) 0.65286(13) 0.23789(12)
C35_5 C 0.94526(13) 0.63834(15) 0.25178(13)
C36_5 C 0.98752(16) 0.6348(2) 0.22816(15)
H22_5 H 0.9937 0.6434 0.1956
O28_5 O 0.89713(10) 0.61230(9) 0.48300(8)
O29_5 O 0.8750 0.70102(8) 0.45102(8)
C37_5 C 0.90286(13) 0.64577(13) 0.51211(12)
C38_5 C 0.88834(15) 0.69526(13) 0.49822(13)
C39_5 C 0.8848(2) 0.73752(16) 0.52184(15)
H23_5 H 0.8934 0.7437 0.5544
O30_5 O 0.83105(10) 0.80449(9) 0.39209(10)
O31_5 O 0.85287(10) 0.73300(8) 0.36230(9)
C40_5 C 0.84714(13) 0.76211(12) 0.39577(13)
C41_5 C 0.86166(15) 0.74822(13) 0.44526(13)
C42_5 C 0.8652(2) 0.77184(15) 0.48752(16)
H24_5 H 0.8566 0.8044 0.4937
O23_6 O 0.48300(8) 0.39713(10) 0.11230(9)
O24_6 O 0.45102(8) 0.3750 0.20102(8)
C31_6 C 0.51211(12) 0.40286(13) 0.14577(13)
C32_6 C 0.49822(13) 0.38834(15) 0.19526(13)
C33_6 C 0.52184(15) 0.3848(2) 0.23752(16)
H21_6 H 0.5544 0.3934 0.2437
O25_6 O 0.39209(10) 0.33105(10) 0.30449(9)
O26_6 O 0.36230(9) 0.35287(10) 0.23300(8)
C34_6 C 0.39577(13) 0.34714(13) 0.26211(12)
C35_6 C 0.44526(13) 0.36166(15) 0.24822(13)
C36_6 C 0.48752(16) 0.3652(2) 0.27184(15)
H22_6 H 0.4937 0.3566 0.3044
O28_6 O 0.39713(10) 0.38770(9) 0.01700(8)
O29_6 O 0.3750 0.29898(8) 0.04898(8)
C38_6 C 0.38834(15) 0.30474(13) 0.00178(13)
O30_6 O 0.33105(10) 0.19551(9) 0.10791(10)
O31_6 O 0.35287(10) 0.26700(8) 0.13770(9)
C40_6 C 0.34714(13) 0.23789(12) 0.10423(13)
C41_6 C 0.36166(15) 0.25178(13) 0.05474(13)
C42_6 C 0.3652(2) 0.22816(15) 0.01248(16)
H24_6 H 0.3566 0.1956 0.0063
O18_6 O 0.38770(9) 0.51700(8) 0.89713(10)
O19_6 O 0.29898(8) 0.54898(8) 0.8750
C25_6 C 0.35423(13) 0.48789(12) 0.90286(13)
C26_6 C 0.30474(13) 0.50178(13) 0.88834(15)
C27_6 C 0.26248(16) 0.47816(15) 0.8848(2)
H19_6 H 0.2563 0.4456 0.8934
O20_6 O 0.19551(9) 0.60791(10) 0.83105(10)
O21_6 O 0.26700(8) 0.63770(9) 0.85287(10)
C28_6 C 0.23789(12) 0.60423(13) 0.84714(13)
C29_6 C 0.25178(13) 0.55474(13) 0.86166(15)
C30_6 C 0.22816(15) 0.51248(16) 0.8652(2)
H20_6 H 0.1956 0.5063 0.8566
C37_6 C 0.40286(13) 0.35423(13) 0.98789(12)
C39_6 C 0.3848(2) 0.26248(16) 0.97816(15)
H23_6 H 0.3934 0.2563 0.9456
O18_7 O 0.11230(9) 0.01700(8) 0.10287(10)
O19_7 O 0.20102(8) 0.04898(8) 0.1250
C26_7 C 0.19526(13) 0.00178(13) 0.11166(15)
O20_7 O 0.30449(9) 0.10791(10) 0.16895(10)
O21_7 O 0.23300(8) 0.13770(9) 0.14713(10)
C28_7 C 0.26211(12) 0.10423(13) 0.15286(13)
C29_7 C 0.24822(13) 0.05474(13) 0.13834(15)
C30_7 C 0.27184(15) 0.01248(16) 0.1348(2)
H20_7 H 0.3044 0.0063 0.1434
C25_7 C 0.14577(13) 0.98789(12) 0.09714(13)
C27_7 C 0.23752(16) 0.97816(15) 0.1152(2)
H19_7 H 0.2437 0.9456 0.1066
C37_7 C 0.09714(13) 0.85423(13) 0.01211(12)
C39_7 C 0.1152(2) 0.76248(16) 0.02184(15)
H23_7 H 0.1066 0.7563 0.0544
O23_7 O 0.01700(8) 0.89713(10) 0.88770(9)
O24_7 O 0.04898(8) 0.8750 0.79898(8)
C32_7 C 0.00178(13) 0.88834(15) 0.80474(13)
O25_7 O 0.10791(10) 0.83105(10) 0.69551(9)
O26_7 O 0.13770(9) 0.85287(10) 0.76700(8)
C34_7 C 0.10423(13) 0.84714(13) 0.73789(12)
C35_7 C 0.05474(13) 0.86166(15) 0.75178(13)
C36_7 C 0.01248(16) 0.8652(2) 0.72816(15)
H22_7 H 0.0063 0.8566 0.6956
O28_7 O 0.10287(10) 0.88770(9) 0.98300(8)
O29_7 O 0.1250 0.79898(8) 0.95102(8)
C38_7 C 0.11166(15) 0.80474(13) 0.99822(13)
O30_7 O 0.16895(10) 0.69551(9) 0.89209(10)
O31_7 O 0.14713(10) 0.76700(8) 0.86230(9)
C40_7 C 0.15286(13) 0.73789(12) 0.89577(13)
C41_7 C 0.13834(15) 0.75178(13) 0.94526(13)
C42_7 C 0.1348(2) 0.72816(15) 0.98752(16)
H24_7 H 0.1434 0.6956 0.9937
C31_7 C 0.98789(12) 0.90286(13) 0.85423(13)
C33_7 C 0.97816(15) 0.8848(2) 0.76248(16)
H21_7 H 0.9456 0.8934 0.7563
C25_8 C 0.64577(13) 0.01211(12) 0.40286(13)
C27_8 C 0.73752(16) 0.02184(15) 0.3848(2)
H19_8 H 0.7437 0.0544 0.3934
O23_8 O 0.51700(8) 0.10287(10) 0.61230(9)
O24_8 O 0.54898(8) 0.1250 0.70102(8)
C31_8 C 0.48789(12) 0.09714(13) 0.64577(13)
C32_8 C 0.50178(13) 0.11166(15) 0.69526(13)
C33_8 C 0.47816(15) 0.1152(2) 0.73752(16)
H21_8 H 0.4456 0.1066 0.7437
O25_8 O 0.60791(10) 0.16895(10) 0.80449(9)
O26_8 O 0.63770(9) 0.14713(10) 0.73300(8)
C34_8 C 0.60423(13) 0.15286(13) 0.76211(12)
C35_8 C 0.55474(13) 0.13834(15) 0.74822(13)
C36_8 C 0.51248(16) 0.1348(2) 0.77184(15)
H22_8 H 0.5063 0.1434 0.8044
O28_8 O 0.60287(10) 0.11230(9) 0.51700(8)
O29_8 O 0.6250 0.20102(8) 0.54898(8)
C37_8 C 0.59714(13) 0.14577(13) 0.48789(12)
C38_8 C 0.61166(15) 0.19526(13) 0.50178(13)
C39_8 C 0.6152(2) 0.23752(16) 0.47816(15)
H23_8 H 0.6066 0.2437 0.4456
O30_8 O 0.66895(10) 0.30449(9) 0.60791(10)
O31_8 O 0.64713(10) 0.23300(8) 0.63770(9)
C40_8 C 0.65286(13) 0.26211(12) 0.60423(13)
C41_8 C 0.63834(15) 0.24822(13) 0.55474(13)
C42_8 C 0.6348(2) 0.27184(15) 0.51248(16)
H24_8 H 0.6434 0.3044 0.5063
O18_8 O 0.61230(9) 0.98300(8) 0.39713(10)
O19_8 O 0.70102(8) 0.95102(8) 0.3750
C26_8 C 0.69526(13) 0.99822(13) 0.38834(15)
O20_8 O 0.80449(9) 0.89209(10) 0.33105(10)
O21_8 O 0.73300(8) 0.86230(9) 0.35287(10)
C28_8 C 0.76211(12) 0.89577(13) 0.34714(13)
C29_8 C 0.74822(13) 0.94526(13) 0.36166(15)
C30_8 C 0.77184(15) 0.98752(16) 0.3652(2)
H20_8 H 0.8044 0.9937 0.3566
C31_9 C 0.35423(13) 0.01211(12) 0.59714(13)
C33_9 C 0.26248(16) 0.02184(15) 0.6152(2)
H21_9 H 0.2563 0.0544 0.6066
O18_9 O 0.60287(10) 0.88770(9) 0.48300(8)
O19_9 O 0.6250 0.79898(8) 0.45102(8)
C25_9 C 0.59714(13) 0.85423(13) 0.51211(12)
C26_9 C 0.61166(15) 0.80474(13) 0.49822(13)
C27_9 C 0.6152(2) 0.76248(16) 0.52184(15)
H19_9 H 0.6066 0.7563 0.5544
O20_9 O 0.66895(10) 0.69551(9) 0.39209(10)
O21_9 O 0.64713(10) 0.76700(8) 0.36230(9)
C28_9 C 0.65286(13) 0.73789(12) 0.39577(13)
C29_9 C 0.63834(15) 0.75178(13) 0.44526(13)
C30_9 C 0.6348(2) 0.72816(15) 0.48752(16)
H20_9 H 0.6434 0.6956 0.4937
O23_9 O 0.38770(9) 0.98300(8) 0.60287(10)
O24_9 O 0.29898(8) 0.95102(8) 0.6250
C32_9 C 0.30474(13) 0.99822(13) 0.61166(15)
O25_9 O 0.19551(9) 0.89209(10) 0.66895(10)
O26_9 O 0.26700(8) 0.86230(9) 0.64713(10)
C34_9 C 0.23789(12) 0.89577(13) 0.65286(13)
C35_9 C 0.25178(13) 0.94526(13) 0.63834(15)
C36_9 C 0.22816(15) 0.98752(16) 0.6348(2)
H22_9 H 0.1956 0.9937 0.6434
O28_9 O 0.48300(8) 0.89713(10) 0.61230(9)
O29_9 O 0.45102(8) 0.8750 0.70102(8)
C37_9 C 0.51211(12) 0.90286(13) 0.64577(13)
C38_9 C 0.49822(13) 0.88834(15) 0.69526(13)
C39_9 C 0.52184(15) 0.8848(2) 0.73752(16)
H23_9 H 0.5544 0.8934 0.7437
O30_9 O 0.39209(10) 0.83105(10) 0.80449(9)
O31_9 O 0.36230(9) 0.85287(10) 0.73300(8)
C40_9 C 0.39577(13) 0.84714(13) 0.76211(12)
C41_9 C 0.44526(13) 0.86166(15) 0.74822(13)
C42_9 C 0.48752(16) 0.8652(2) 0.77184(15)
H24_9 H 0.4937 0.8566 0.8044
O23_10 O 0.11230(9) 0.48300(8) 0.39713(10)
O24_10 O 0.20102(8) 0.45102(8) 0.3750
C31_10 C 0.14577(13) 0.51211(12) 0.40286(13)
C32_10 C 0.19526(13) 0.49822(13) 0.38834(15)
C33_10 C 0.23752(16) 0.52184(15) 0.3848(2)
H21_10 H 0.2437 0.5544 0.3934
O25_10 O 0.30449(9) 0.39209(10) 0.33105(10)
O26_10 O 0.23300(8) 0.36230(9) 0.35287(10)
C34_10 C 0.26211(12) 0.39577(13) 0.34714(13)
C35_10 C 0.24822(13) 0.44526(13) 0.36166(15)
C36_10 C 0.27184(15) 0.48752(16) 0.3652(2)
H22_10 H 0.3044 0.4937 0.3566
O28_10 O 0.01700(8) 0.39713(10) 0.38770(9)
O29_10 O 0.04898(8) 0.3750 0.29898(8)
C38_10 C 0.00178(13) 0.38834(15) 0.30474(13)
O30_10 O 0.10791(10) 0.33105(10) 0.19551(9)
O31_10 O 0.13770(9) 0.35287(10) 0.26700(8)
C40_10 C 0.10423(13) 0.34714(13) 0.23789(12)
C41_10 C 0.05474(13) 0.36166(15) 0.25178(13)
C42_10 C 0.01248(16) 0.3652(2) 0.22816(15)
H24_10 H 0.0063 0.3566 0.1956
O18_10 O 0.89713(10) 0.38770(9) 0.51700(8)
O19_10 O 0.8750 0.29898(8) 0.54898(8)
C25_10 C 0.90286(13) 0.35423(13) 0.48789(12)
C26_10 C 0.88834(15) 0.30474(13) 0.50178(13)
C27_10 C 0.8848(2) 0.26248(16) 0.47816(15)
H19_10 H 0.8934 0.2563 0.4456
O20_10 O 0.83105(10) 0.19551(9) 0.60791(10)
O21_10 O 0.85287(10) 0.26700(8) 0.63770(9)
C28_10 C 0.84714(13) 0.23789(12) 0.60423(13)
C29_10 C 0.86166(15) 0.25178(13) 0.55474(13)
C30_10 C 0.8652(2) 0.22816(15) 0.51248(16)
H20_10 H 0.8566 0.1956 0.5063
C37_10 C 0.98789(12) 0.40286(13) 0.35423(13)
C39_10 C 0.97816(15) 0.3848(2) 0.26248(16)
H23_10 H 0.9456 0.3934 0.2563
O18_11 O 0.10287(10) 0.11230(9) 0.01700(8)
O19_11 O 0.1250 0.20102(8) 0.04898(8)
C26_11 C 0.11166(15) 0.19526(13) 0.00178(13)
O20_11 O 0.16895(10) 0.30449(9) 0.10791(10)
O21_11 O 0.14713(10) 0.23300(8) 0.13770(9)
C28_11 C 0.15286(13) 0.26211(12) 0.10423(13)
C29_11 C 0.13834(15) 0.24822(13) 0.05474(13)
C30_11 C 0.1348(2) 0.27184(15) 0.01248(16)
H20_11 H 0.1434 0.3044 0.0063
C25_11 C 0.09714(13) 0.14577(13) 0.98789(12)
C27_11 C 0.1152(2) 0.23752(16) 0.97816(15)
H19_11 H 0.1066 0.2437 0.9456
C37_11 C 0.01211(12) 0.09714(13) 0.85423(13)
C39_11 C 0.02184(15) 0.1152(2) 0.76248(16)
H23_11 H 0.0544 0.1066 0.7563
O23_11 O 0.88770(9) 0.01700(8) 0.89713(10)
O24_11 O 0.79898(8) 0.04898(8) 0.8750
C32_11 C 0.80474(13) 0.00178(13) 0.88834(15)
O25_11 O 0.69551(9) 0.10791(10) 0.83105(10)
O26_11 O 0.76700(8) 0.13770(9) 0.85287(10)
C34_11 C 0.73789(12) 0.10423(13) 0.84714(13)
C35_11 C 0.75178(13) 0.05474(13) 0.86166(15)
C36_11 C 0.72816(15) 0.01248(16) 0.8652(2)
H22_11 H 0.6956 0.0063 0.8566
O28_11 O 0.98300(8) 0.10287(10) 0.88770(9)
O29_11 O 0.95102(8) 0.1250 0.79898(8)
C38_11 C 0.99822(13) 0.11166(15) 0.80474(13)
O30_11 O 0.89209(10) 0.16895(10) 0.69551(9)
O31_11 O 0.86230(9) 0.14713(10) 0.76700(8)
C40_11 C 0.89577(13) 0.15286(13) 0.73789(12)
C41_11 C 0.94526(13) 0.13834(15) 0.75178(13)
C42_11 C 0.98752(16) 0.1348(2) 0.72816(15)
H24_11 H 0.9937 0.1434 0.6956
C31_11 C 0.85423(13) 0.98789(12) 0.90286(13)
C33_11 C 0.76248(16) 0.97816(15) 0.8848(2)
H21_11 H 0.7563 0.9456 0.8934
C25_12 C 0.40286(13) 0.64577(13) 0.01211(12)
C27_12 C 0.3848(2) 0.73752(16) 0.02184(15)
H19_12 H 0.3934 0.7437 0.0544
O23_12 O 0.61230(9) 0.51700(8) 0.10287(10)
O24_12 O 0.70102(8) 0.54898(8) 0.1250
C31_12 C 0.64577(13) 0.48789(12) 0.09714(13)
C32_12 C 0.69526(13) 0.50178(13) 0.11166(15)
C33_12 C 0.73752(16) 0.47816(15) 0.1152(2)
H21_12 H 0.7437 0.4456 0.1066
O25_12 O 0.80449(9) 0.60791(10) 0.16895(10)
O26_12 O 0.73300(8) 0.63770(9) 0.14713(10)
C34_12 C 0.76211(12) 0.60423(13) 0.15286(13)
C35_12 C 0.74822(13) 0.55474(13) 0.13834(15)
C36_12 C 0.77184(15) 0.51248(16) 0.1348(2)
H22_12 H 0.8044 0.5063 0.1434
O28_12 O 0.51700(8) 0.60287(10) 0.11230(9)
O29_12 O 0.54898(8) 0.6250 0.20102(8)
C37_12 C 0.48789(12) 0.59714(13) 0.14577(13)
C38_12 C 0.50178(13) 0.61166(15) 0.19526(13)
C39_12 C 0.47816(15) 0.6152(2) 0.23752(16)
H23_12 H 0.4456 0.6066 0.2437
O30_12 O 0.60791(10) 0.66895(10) 0.30449(9)
O31_12 O 0.63770(9) 0.64713(10) 0.23300(8)
C40_12 C 0.60423(13) 0.65286(13) 0.26211(12)
C41_12 C 0.55474(13) 0.63834(15) 0.24822(13)
C42_12 C 0.51248(16) 0.6348(2) 0.27184(15)
H24_12 H 0.5063 0.6434 0.3044
O18_12 O 0.39713(10) 0.61230(9) 0.98300(8)
O19_12 O 0.3750 0.70102(8) 0.95102(8)
C26_12 C 0.38834(15) 0.69526(13) 0.99822(13)
O20_12 O 0.33105(10) 0.80449(9) 0.89209(10)
O21_12 O 0.35287(10) 0.73300(8) 0.86230(9)
C28_12 C 0.34714(13) 0.76211(12) 0.89577(13)
C29_12 C 0.36166(15) 0.74822(13) 0.94526(13)
C30_12 C 0.3652(2) 0.77184(15) 0.98752(16)
H20_12 H 0.3566 0.8044 0.9937
N1_5 N 0.21876(8) 0.71876(8) 0.78124(8)
C4_10 C 0.2500 0.7500 0.81196(13)
H2_5 H 0.2704 0.7296 0.8329
N2_5 N 0.28124(8) 0.71876(8) 0.71876(8)
C8_10 C 0.2500 0.68804(13) 0.7500
H4_5 H 0.2704 0.6671 0.7704
N3_5 N 0.28124(8) 0.78124(8) 0.78124(8)
C9_10 C 0.31196(13) 0.7500 0.7500
H5_5 H 0.3329 0.7296 0.7704
H6_5 H 0.2296 0.7704 0.8329
N4_5 N 0.21876(8) 0.78124(8) 0.71876(8)
C10_10 C 0.2500 0.81196(13) 0.7500
H7_5 H 0.2296 0.8329 0.7704
C11_10 C 0.18804(13) 0.7500 0.7500
H8_5 H 0.1671 0.7704 0.7704
C12_10 C 0.2500 0.7500 0.68804(13)
H9_5 H 0.2296 0.7296 0.6671
H10_5 H 0.2296 0.6671 0.7296
H11_5 H 0.1671 0.7296 0.7296
H12_5 H 0.2704 0.7704 0.6671
H13_5 H 0.2704 0.8329 0.7296
H14_5 H 0.3329 0.7704 0.7296
N1_6 N 0.78124(8) 0.78124(8) 0.28124(8)
C4_11 C 0.7500 0.7500 0.31196(13)
H2_6 H 0.7296 0.7704 0.3329
N2_6 N 0.71876(8) 0.78124(8) 0.21876(8)
C8_11 C 0.7500 0.81196(13) 0.2500
H4_6 H 0.7296 0.8329 0.2704
N3_6 N 0.71876(8) 0.71876(8) 0.28124(8)
C9_11 C 0.68804(13) 0.7500 0.2500
H5_6 H 0.6671 0.7704 0.2704
H6_6 H 0.7704 0.7296 0.3329
N4_6 N 0.78124(8) 0.71876(8) 0.21876(8)
C10_11 C 0.7500 0.68804(13) 0.2500
H7_6 H 0.7704 0.6671 0.2704
C11_11 C 0.81196(13) 0.7500 0.2500
H8_6 H 0.8329 0.7296 0.2704
C12_11 C 0.7500 0.7500 0.18804(13)
H9_6 H 0.7704 0.7704 0.1671
H10_6 H 0.7704 0.8329 0.2296
H11_6 H 0.8329 0.7704 0.2296
H12_6 H 0.7296 0.7296 0.1671
H13_6 H 0.7296 0.6671 0.2296
H14_6 H 0.6671 0.7296 0.2296
N1_7 N 0.71876(8) 0.28124(8) 0.71876(8)
C4_12 C 0.7500 0.2500 0.68804(13)
H2_7 H 0.7704 0.2704 0.6671
N2_7 N 0.78124(8) 0.28124(8) 0.78124(8)
C8_12 C 0.7500 0.31196(13) 0.7500
H4_7 H 0.7704 0.3329 0.7296
N3_7 N 0.78124(8) 0.21876(8) 0.71876(8)
C9_12 C 0.81196(13) 0.2500 0.7500
H5_7 H 0.8329 0.2704 0.7296
H6_7 H 0.7296 0.2296 0.6671
N4_7 N 0.71876(8) 0.21876(8) 0.78124(8)
C10_12 C 0.7500 0.18804(13) 0.7500
H7_7 H 0.7296 0.1671 0.7296
C11_12 C 0.68804(13) 0.2500 0.7500
H8_7 H 0.6671 0.2296 0.7296
C12_12 C 0.7500 0.2500 0.81196(13)
H9_7 H 0.7296 0.2704 0.8329
H10_7 H 0.7296 0.3329 0.7704
H11_7 H 0.6671 0.2704 0.7704
H12_7 H 0.7704 0.2296 0.8329
H13_7 H 0.7704 0.1671 0.7704
H14_7 H 0.8329 0.2296 0.7704
N1_8 N 0.28124(8) 0.21876(8) 0.21876(8)
C4_13 C 0.2500 0.2500 0.18804(13)
H2_8 H 0.2296 0.2296 0.1671
N2_8 N 0.21876(8) 0.21876(8) 0.28124(8)
C8_13 C 0.2500 0.18804(13) 0.2500
H4_8 H 0.2296 0.1671 0.2296
N3_8 N 0.21876(8) 0.28124(8) 0.21876(8)
C9_13 C 0.18804(13) 0.2500 0.2500
H5_8 H 0.1671 0.2296 0.2296
H6_8 H 0.2704 0.2704 0.1671
N4_8 N 0.28124(8) 0.28124(8) 0.28124(8)
C10_13 C 0.2500 0.31196(13) 0.2500
H7_8 H 0.2704 0.3329 0.2296
C11_13 C 0.31196(13) 0.2500 0.2500
H8_8 H 0.3329 0.2704 0.2296
C12_13 C 0.2500 0.2500 0.31196(13)
H9_8 H 0.2704 0.2296 0.3329
H10_8 H 0.2704 0.1671 0.2704
H11_8 H 0.3329 0.2296 0.2704
H12_8 H 0.2296 0.2704 0.3329
H13_8 H 0.2296 0.3329 0.2704
H14_8 H 0.1671 0.2704 0.2704
loop_
_geom_bond_atom_site_label_1
_geom_bond_atom_site_label_2
_geom_bond_site_symmetry_1
_geom_bond_site_symmetry_2
N2 C8 1_555 1_555
C9 N2 1_555 1_555
N4 C10 1_555 1_555
C12 N2 1_555 1_555
H9 C12 1_555 1_555
H10 C8 1_555 1_555
H11 C11 1_555 1_555
H12 C12 1_555 1_555
H13 C10 1_555 1_555
H14 C9 1_555 1_555
Zn2 N2 1_555 1_555
O7 Zn2 1_555 1_555
O8 C13 1_555 1_555
O9 C14 1_555 1_555
C13 O7 1_555 1_555
C14 C13 1_555 1_555
C15 C14 1_555 1_555
H15 C15 1_555 1_555
O10 C16 1_555 1_555
O11 C16 1_555 1_555
C16 C17 1_555 1_555
C17 O9 1_555 1_555
C18 C15 1_555 1_555
H16 C18 1_555 1_555
O14 C20 1_555 1_555
O15 C22 1_555 1_555
O16 C22 1_555 1_555
C22 C23 1_555 1_555
C23 O14 1_555 1_555
H18 C24 1_555 1_555
Zn4 N4 1_555 1_555
O22 Zn4 1_555 1_555
C31 O22 1_555 1_555
H21 C33 1_555 1_555
Zn8 O15 1_555 1_555
Zn9 O10 1_555 1_555
O32 Zn4 1_555 1_555
O34 Zn2 1_555 1_555
O36 Zn4 1_555 1_555
O37 Zn2 1_555 1_555
N4 C11 1_555 1_555
N4 C12 1_555 1_555
C17 C18 1_555 1_555
C23 C24 1_555 1_555
Zn1 O2 1_555 1_555
O2 C1 1_555 1_555
O3 C1 1_555 1_555
O4 C2 1_555 1_555
C1 C2 1_555 1_555
C2 C3 1_555 1_555
C3 H1 1_555 1_555
N1 Zn1 1_555 1_555
C4 N1 1_555 1_555
H2 C4 1_555 1_555
O5 C5 1_555 1_555
O6 C5 1_555 1_555
C5 C6 1_555 1_555
C6 O4 1_555 1_555
C7 C3 1_555 1_555
H3 C7 1_555 1_555
C8_2 N1 1_555 1_555
H4 C8_2 1_555 1_555
N3 C4 1_555 1_555
H5 C9_2 1_555 1_555
H6 C4 1_555 1_555
C10_2 N3 1_555 1_555
H7 C10_2 1_555 1_555
C11_2 N1 1_555 1_555
H8 C11_2 1_555 1_555
Zn3 N3 1_555 1_555
O12 Zn3 1_555 1_555
C19 O12 1_555 1_555
H17 C21 1_555 1_555
O17 Zn3 1_555 1_555
O18 C25 1_555 1_555
O19 C26 1_555 1_555
C25 O17 1_555 1_555
C26 C25 1_555 1_555
C27 C26 1_555 1_555
H19 C27 1_555 1_555
O20 C28 1_555 1_555
O21 C28 1_555 1_555
C28 C29 1_555 1_555
C29 O19 1_555 1_555
C30 C27 1_555 1_555
H20 C30 1_555 1_555
O24 C32 1_555 1_555
O25 C34 1_555 1_555
O26 C34 1_555 1_555
C34 C35 1_555 1_555
C35 O24 1_555 1_555
H22 C36 1_555 1_555
O27 Zn3 1_555 1_555
O28 C37 1_555 1_555
O29 C38 1_555 1_555
C37 O27 1_555 1_555
C38 C37 1_555 1_555
C39 C38 1_555 1_555
H23 C39 1_555 1_555
O30 C40 1_555 1_555
O31 C40 1_555 1_555
C40 C41 1_555 1_555
C41 O29 1_555 1_555
C42 C39 1_555 1_555
H24 C42 1_555 1_555
Zn5 O5 1_555 1_555
Zn6 O20 1_555 1_555
Zn7 O30 1_555 1_555
Zn10 O25 1_555 1_555
O33 Zn1 1_555 1_555
O35 Zn1 1_555 1_555
C6 C7 1_555 1_555
N3 C9_2 1_555 1_555
C29 C30 1_555 1_555
C35 C36 1_555 1_555
C41 C42 1_555 1_555
Zn1_2 O2_2 1_555 1_555
O2_2 C1_2 1_555 1_555
O3_2 C1_2 1_555 1_555
O4_2 C2_2 1_555 1_555
C1_2 C2_2 1_555 1_555
C2_2 C3_2 1_555 1_555
C3_2 H1_2 1_555 1_555
N1_2 Zn1_2 1_555 1_555
C4_2 N1_2 1_555 1_555
O5_2 C5_2 1_555 1_555
O6_2 C5_2 1_555 1_555
C5_2 C6_2 1_555 1_555
C6_2 O4_2 1_555 1_555
C7_2 C3_2 1_555 1_555
H3_2 C7_2 1_555 1_555
C8_3 N1_2 1_555 1_555
H6_2 C4_2 1_555 1_555
N4_2 C10_3 1_555 1_555
H7_2 C10_3 1_555 1_555
C11_3 N1_2 1_555 1_555
H8_2 C11_3 1_555 1_555
H9_2 C12_2 1_555 1_555
H10_2 C8_3 1_555 1_555
H11_2 C11_3 1_555 1_555
O9_2 C14_2 1_555 1_555
O10_2 C16_2 1_555 1_555
O11_2 C16_2 1_555 1_555
C16_2 C17_2 1_555 1_555
C17_2 O9_2 1_555 1_555
H16_2 C18_2 1_555 1_555
Zn4_2 N4_2 1_555 1_555
O22_2 Zn4_2 1_555 1_555
O23_2 C31_2 1_555 1_555
O24_2 C32_2 1_555 1_555
C31_2 O22_2 1_555 1_555
C32_2 C31_2 1_555 1_555
C33_2 C32_2 1_555 1_555
H21_2 C33_2 1_555 1_555
O25_2 C34_2 1_555 1_555
O26_2 C34_2 1_555 1_555
C34_2 C35_2 1_555 1_555
C35_2 O24_2 1_555 1_555
C36_2 C33_2 1_555 1_555
H22_2 C36_2 1_555 1_555
O29_2 C38_2 1_555 1_555
O30_2 C40_2 1_555 1_555
O31_2 C40_2 1_555 1_555
C40_2 C41_2 1_555 1_555
C41_2 O29_2 1_555 1_555
H24_2 C42_2 1_555 1_555
Zn5_2 O5_2 1_555 1_555
Zn7_2 O30_2 1_555 1_555
Zn9_2 O10_2 1_555 1_555
Zn10_2 O25_2 1_555 1_555
O32_2 Zn4_2 1_555 1_555
O33_2 Zn1_2 1_555 1_555
O35_2 Zn1_2 1_555 1_555
O36_2 Zn4_2 1_555 1_555
C6_2 C7_2 1_555 1_555
N4_2 C11_3 1_555 1_555
N4_2 C12_2 1_555 1_555
C17_2 C18_2 1_555 1_555
C35_2 C36_2 1_555 1_555
C41_2 C42_2 1_555 1_555
H2_2 C4_3 1_555 1_555
N2_2 C8_4 1_555 1_555
H4_2 C8_4 1_555 1_555
N3_2 C4_3 1_555 1_555
C9_3 N2_2 1_555 1_555
H5_2 C9_3 1_555 1_555
C10_4 N3_2 1_555 1_555
C12_3 N2_2 1_555 1_555
H12_2 C12_3 1_555 1_555
H13_2 C10_4 1_555 1_555
H14_2 C9_3 1_555 1_555
Zn2_2 N2_2 1_555 1_555
O7_2 Zn2_2 1_555 1_555
C13_2 O7_2 1_555 1_555
H15_2 C15_2 1_555 1_555
Zn3_2 N3_2 1_555 1_555
O12_2 Zn3_2 1_555 1_555
O13_2 C19_2 1_555 1_555
O14_2 C20_2 1_555 1_555
C19_2 O12_2 1_555 1_555
C20_2 C19_2 1_555 1_555
C21_2 C20_2 1_555 1_555
H17_2 C21_2 1_555 1_555
O15_2 C22_2 1_555 1_555
O16_2 C22_2 1_555 1_555
C22_2 C23_2 1_555 1_555
C23_2 O14_2 1_555 1_555
C24_2 C21_2 1_555 1_555
H18_2 C24_2 1_555 1_555
O17_2 Zn3_2 1_555 1_555
O18_2 C25_2 1_555 1_555
O19_2 C26_2 1_555 1_555
C25_2 O17_2 1_555 1_555
C26_2 C25_2 1_555 1_555
C27_2 C26_2 1_555 1_555
H19_2 C27_2 1_555 1_555
O20_2 C28_2 1_555 1_555
O21_2 C28_2 1_555 1_555
C28_2 C29_2 1_555 1_555
C29_2 O19_2 1_555 1_555
C30_2 C27_2 1_555 1_555
H20_2 C30_2 1_555 1_555
O27_2 Zn3_2 1_555 1_555
C37_2 O27_2 1_555 1_555
H23_2 C39_2 1_555 1_555
Zn8 O20_2 1_555 1_555
Zn6 O15_2 1_555 1_555
O34_2 Zn2_2 1_555 1_555
O37_2 Zn2_2 1_555 1_555
N3_2 C9_3 1_555 1_555
C23_2 C24_2 1_555 1_555
C29_2 C30_2 1_555 1_555
H2_3 C4_4 1_555 1_555
H4_3 C8_5 1_555 1_555
H5_3 C9_4 1_555 1_555
O19_3 C26_3 1_555 1_555
O20_3 C28_3 1_555 1_555
O21_3 C28_3 1_555 1_555
C28_3 C29_3 1_555 1_555
C29_3 O19_3 1_555 1_555
H20_3 C30_3 1_555 1_555
Zn7_2 O20_3 1_555 1_555
C29_3 C30_3 1_555 1_555
N2_3 C8_6 1_555 1_555
C9_5 N2_3 1_555 1_555
C12_4 N2_3 1_555 1_555
Zn2_3 N2_3 1_555 1_555
O7_3 Zn2_3 1_555 1_555
C13_3 O7_3 1_555 1_555
H15_3 C15_3 1_555 1_555
O34_3 Zn2_3 1_555 1_555
O37_3 Zn2_3 1_555 1_555
Zn1_3 O2_3 1_555 1_555
O2_3 C1_3 1_555 1_555
C3_3 H1_3 1_555 1_555
N1_3 Zn1_3 1_555 1_555
C4_5 N1_3 1_555 1_555
C8_7 N1_3 1_555 1_555
C11_4 N1_3 1_555 1_555
O33_3 Zn1_3 1_555 1_555
O35_3 Zn1_3 1_555 1_555
H9_3 C12_5 1_555 1_555
H10_3 C8_8 1_555 1_555
H11_3 C11_5 1_555 1_555
O9_3 C14_3 1_555 1_555
O10_3 C16_3 1_555 1_555
O11_3 C16_3 1_555 1_555
C16_3 C17_3 1_555 1_555
C17_3 O9_3 1_555 1_555
H16_3 C18_3 1_555 1_555
Zn9_3 O10_3 1_555 1_555
C17_3 C18_3 1_555 1_555
N3_3 C4_6 1_555 1_555
C10_5 N3_3 1_555 1_555
Zn3_3 N3_3 1_555 1_555
O12_3 Zn3_3 1_555 1_555
C19_3 O12_3 1_555 1_555
H17_3 C21_3 1_555 1_555
O17_3 Zn3_3 1_555 1_555
C25_3 O17_3 1_555 1_555
H19_3 C27_3 1_555 1_555
O27_3 Zn3_3 1_555 1_555
C37_3 O27_3 1_555 1_555
H23_3 C39_3 1_555 1_555
N3_3 C9_6 1_555 1_555
H12_3 C12_6 1_555 1_555
H13_3 C10_6 1_555 1_555
H14_3 C9_7 1_555 1_555
O14_3 C20_3 1_555 1_555
O15_3 C22_3 1_555 1_555
O16_3 C22_3 1_555 1_555
C22_3 C23_3 1_555 1_555
C23_3 O14_3 1_555 1_555
H18_3 C24_3 1_555 1_555
Zn7 O15_3 1_555 1_555
C23_3 C24_3 1_555 1_555
O4_3 C2_3 1_555 1_555
O5_3 C5_3 1_555 1_555
O6_3 C5_3 1_555 1_555
C5_3 C6_3 1_555 1_555
C6_3 O4_3 1_555 1_555
H3_3 C7_3 1_555 1_555
H6_3 C4_7 1_555 1_555
H7_3 C10_7 1_555 1_555
H8_3 C11_6 1_555 1_555
O24_3 C32_3 1_555 1_555
O25_3 C34_3 1_555 1_555
O26_3 C34_3 1_555 1_555
C34_3 C35_3 1_555 1_555
C35_3 O24_3 1_555 1_555
H22_3 C36_3 1_555 1_555
O29_3 C38_3 1_555 1_555
O30_3 C40_3 1_555 1_555
O31_3 C40_3 1_555 1_555
C40_3 C41_3 1_555 1_555
C41_3 O29_3 1_555 1_555
H24_3 C42_3 1_555 1_555
Zn5_3 O5_3 1_555 1_555
Zn8 O30_3 1_555 1_555
Zn10_3 O25_3 1_555 1_555
C6_3 C7_3 1_555 1_555
C35_3 C36_3 1_555 1_555
C41_3 C42_3 1_555 1_555
N4_3 C10_8 1_555 1_555
Zn4_3 N4_3 1_555 1_555
O22_3 Zn4_3 1_555 1_555
C31_3 O22_3 1_555 1_555
H21_3 C33_3 1_555 1_555
O32_3 Zn4_3 1_555 1_555
O36_3 Zn4_3 1_555 1_555
N4_3 C11_7 1_555 1_555
N4_3 C12_7 1_555 1_555
O4_4 C2_4 1_555 1_555
O5_4 C5_4 1_555 1_555
O6_4 C5_4 1_555 1_555
C5_4 C6_4 1_555 1_555
C6_4 O4_4 1_555 1_555
H3_4 C7_4 1_555 1_555
N3_4 C4_8 1_555 1_555
H6_4 C4_8 1_555 1_555
N4_4 C10_9 1_555 1_555
C10_9 N3_4 1_555 1_555
H7_4 C10_9 1_555 1_555
H8_4 C11_8 1_555 1_555
H12_4 C12_8 1_555 1_555
H13_4 C10_9 1_555 1_555
H14_4 C9_8 1_555 1_555
Zn3_4 N3_4 1_555 1_555
O12_4 Zn3_4 1_555 1_555
O13_4 C19_4 1_555 1_555
O14_4 C20_4 1_555 1_555
C19_4 O12_4 1_555 1_555
C20_4 C19_4 1_555 1_555
C21_4 C20_4 1_555 1_555
H17_4 C21_4 1_555 1_555
O15_4 C22_4 1_555 1_555
O16_4 C22_4 1_555 1_555
C22_4 C23_4 1_555 1_555
C23_4 O14_4 1_555 1_555
C24_4 C21_4 1_555 1_555
H18_4 C24_4 1_555 1_555
O17_4 Zn3_4 1_555 1_555
C25_4 O17_4 1_555 1_555
H19_4 C27_4 1_555 1_555
Zn4_4 N4_4 1_555 1_555
O22_4 Zn4_4 1_555 1_555
O23_4 C31_4 1_555 1_555
O24_4 C32_4 1_555 1_555
C31_4 O22_4 1_555 1_555
C32_4 C31_4 1_555 1_555
C33_4 C32_4 1_555 1_555
H21_4 C33_4 1_555 1_555
O25_4 C34_4 1_555 1_555
O26_4 C34_4 1_555 1_555
C34_4 C35_4 1_555 1_555
C35_4 O24_4 1_555 1_555
C36_4 C33_4 1_555 1_555
H22_4 C36_4 1_555 1_555
O27_4 Zn3_4 1_555 1_555
O28_4 C37_4 1_555 1_555
O29_4 C38_4 1_555 1_555
C37_4 O27_4 1_555 1_555
C38_4 C37_4 1_555 1_555
C39_4 C38_4 1_555 1_555
H23_4 C39_4 1_555 1_555
O30_4 C40_4 1_555 1_555
O31_4 C40_4 1_555 1_555
C40_4 C41_4 1_555 1_555
C41_4 O29_4 1_555 1_555
C42_4 C39_4 1_555 1_555
H24_4 C42_4 1_555 1_555
Zn5_4 O5_4 1_555 1_555
Zn6 O30_4 1_555 1_555
Zn7_2 O15_4 1_555 1_555
Zn10_4 O25_4 1_555 1_555
O32_4 Zn4_4 1_555 1_555
O36_4 Zn4_4 1_555 1_555
C6_4 C7_4 1_555 1_555
N3_4 C9_8 1_555 1_555
N4_4 C11_8 1_555 1_555
N4_4 C12_8 1_555 1_555
C23_4 C24_4 1_555 1_555
C35_4 C36_4 1_555 1_555
C41_4 C42_4 1_555 1_555
Zn1_4 O2_4 1_555 1_555
O2_4 C1_4 1_555 1_555
C3_4 H1_4 1_555 1_555
N1_4 Zn1_4 1_555 1_555
C4_9 N1_4 1_555 1_555
H2_4 C4_9 1_555 1_555
N2_4 C8_9 1_555 1_555
C8_9 N1_4 1_555 1_555
H4_4 C8_9 1_555 1_555
C9_9 N2_4 1_555 1_555
H5_4 C9_9 1_555 1_555
C11_9 N1_4 1_555 1_555
C12_9 N2_4 1_555 1_555
H9_4 C12_9 1_555 1_555
H10_4 C8_9 1_555 1_555
H11_4 C11_9 1_555 1_555
Zn2_4 N2_4 1_555 1_555
O7_4 Zn2_4 1_555 1_555
O8_4 C13_4 1_555 1_555
O9_4 C14_4 1_555 1_555
C13_4 O7_4 1_555 1_555
C14_4 C13_4 1_555 1_555
C15_4 C14_4 1_555 1_555
H15_4 C15_4 1_555 1_555
O10_4 C16_4 1_555 1_555
O11_4 C16_4 1_555 1_555
C16_4 C17_4 1_555 1_555
C17_4 O9_4 1_555 1_555
C18_4 C15_4 1_555 1_555
H16_4 C18_4 1_555 1_555
O19_4 C26_4 1_555 1_555
O20_4 C28_4 1_555 1_555
O21_4 C28_4 1_555 1_555
C28_4 C29_4 1_555 1_555
C29_4 O19_4 1_555 1_555
H20_4 C30_4 1_555 1_555
Zn7 O20_4 1_555 1_555
Zn9_4 O10_4 1_555 1_555
O33_4 Zn1_4 1_555 1_555
O34_4 Zn2_4 1_555 1_555
O35_4 Zn1_4 1_555 1_555
O37_4 Zn2_4 1_555 1_555
C17_4 C18_4 1_555 1_555
C29_4 C30_4 1_555 1_555
C31_5 O36_4 1_555 1_555
H21_5 C33_5 1_555 1_555
O18_5 C25_5 1_555 1_555
O19_5 C26_5 1_555 1_555
C25_5 O35_4 1_555 1_555
C26_5 C25_5 1_555 1_555
C27_5 C26_5 1_555 1_555
H19_5 C27_5 1_555 1_555
O20_5 C28_5 1_555 1_555
O21_5 C28_5 1_555 1_555
C28_5 C29_5 1_555 1_555
C29_5 O19_5 1_555 1_555
C30_5 C27_5 1_555 1_555
H20_5 C30_5 1_555 1_555
O24_5 C32_5 1_555 1_555
O25_5 C34_5 1_555 1_555
O26_5 C34_5 1_555 1_555
C34_5 C35_5 1_555 1_555
C35_5 O24_5 1_555 1_555
H22_5 C36_5 1_555 1_555
O28_5 C37_5 1_555 1_555
O29_5 C38_5 1_555 1_555
C37_5 O33_4 1_555 1_555
C38_5 C37_5 1_555 1_555
C39_5 C38_5 1_555 1_555
H23_5 C39_5 1_555 1_555
O30_5 C40_5 1_555 1_555
O31_5 C40_5 1_555 1_555
C40_5 C41_5 1_555 1_555
C41_5 O29_5 1_555 1_555
C42_5 C39_5 1_555 1_555
H24_5 C42_5 1_555 1_555
Zn5 O20_5 1_555 1_555
Zn5_3 O30_5 1_555 1_555
Zn10_3 O25_5 1_555 1_555
C29_5 C30_5 1_555 1_555
C35_5 C36_5 1_555 1_555
C41_5 C42_5 1_555 1_555
O23_6 C31_6 1_555 1_555
O24_6 C32_6 1_555 1_555
C31_6 O36 1_555 1_555
C32_6 C31_6 1_555 1_555
C33_6 C32_6 1_555 1_555
H21_6 C33_6 1_555 1_555
O25_6 C34_6 1_555 1_555
O26_6 C34_6 1_555 1_555
C34_6 C35_6 1_555 1_555
C35_6 O24_6 1_555 1_555
C36_6 C33_6 1_555 1_555
H22_6 C36_6 1_555 1_555
O29_6 C38_6 1_555 1_555
O30_6 C40_6 1_555 1_555
O31_6 C40_6 1_555 1_555
C40_6 C41_6 1_555 1_555
C41_6 O29_6 1_555 1_555
H24_6 C42_6 1_555 1_555
Zn5_2 O30_6 1_555 1_555
Zn10_2 O25_6 1_555 1_555
C35_6 C36_6 1_555 1_555
C41_6 C42_6 1_555 1_555
O18_6 C25_6 1_555 1_555
O19_6 C26_6 1_555 1_555
C25_6 O35 1_555 1_555
C26_6 C25_6 1_555 1_555
C27_6 C26_6 1_555 1_555
H19_6 C27_6 1_555 1_555
O20_6 C28_6 1_555 1_555
O21_6 C28_6 1_555 1_555
C28_6 C29_6 1_555 1_555
C29_6 O19_6 1_555 1_555
C30_6 C27_6 1_555 1_555
H20_6 C30_6 1_555 1_555
C37_6 O33 1_555 1_555
H23_6 C39_6 1_555 1_555
Zn5_4 O20_6 1_555 1_555
C29_6 C30_6 1_555 1_555
O19_7 C26_7 1_555 1_555
O20_7 C28_7 1_555 1_555
O21_7 C28_7 1_555 1_555
C28_7 C29_7 1_555 1_555
C29_7 O19_7 1_555 1_555
H20_7 C30_7 1_555 1_555
Zn5_2 O20_7 1_555 1_555
C29_7 C30_7 1_555 1_555
C25_7 O35_3 1_555 1_555
H19_7 C27_7 1_555 1_555
C37_7 O33_3 1_555 1_555
H23_7 C39_7 1_555 1_555
O24_7 C32_7 1_555 1_555
O25_7 C34_7 1_555 1_555
O26_7 C34_7 1_555 1_555
C34_7 C35_7 1_555 1_555
C35_7 O24_7 1_555 1_555
H22_7 C36_7 1_555 1_555
O29_7 C38_7 1_555 1_555
O30_7 C40_7 1_555 1_555
O31_7 C40_7 1_555 1_555
C40_7 C41_7 1_555 1_555
C41_7 O29_7 1_555 1_555
H24_7 C42_7 1_555 1_555
Zn5_4 O30_7 1_555 1_555
Zn10_4 O25_7 1_555 1_555
C35_7 C36_7 1_555 1_555
C41_7 C42_7 1_555 1_555
C31_7 O36_3 1_555 1_555
H21_7 C33_7 1_555 1_555
C25_8 O35_2 1_555 1_555
H19_8 C27_8 1_555 1_555
O23_8 C31_8 1_555 1_555
O24_8 C32_8 1_555 1_555
C31_8 O36_2 1_555 1_555
C32_8 C31_8 1_555 1_555
C33_8 C32_8 1_555 1_555
H21_8 C33_8 1_555 1_555
O25_8 C34_8 1_555 1_555
O26_8 C34_8 1_555 1_555
C34_8 C35_8 1_555 1_555
C35_8 O24_8 1_555 1_555
C36_8 C33_8 1_555 1_555
H22_8 C36_8 1_555 1_555
O28_8 C37_8 1_555 1_555
O29_8 C38_8 1_555 1_555
C37_8 O33_2 1_555 1_555
C38_8 C37_8 1_555 1_555
C39_8 C38_8 1_555 1_555
H23_8 C39_8 1_555 1_555
O30_8 C40_8 1_555 1_555
O31_8 C40_8 1_555 1_555
C40_8 C41_8 1_555 1_555
C41_8 O29_8 1_555 1_555
C42_8 C39_8 1_555 1_555
H24_8 C42_8 1_555 1_555
Zn5 O30_8 1_555 1_555
Zn10 O25_8 1_555 1_555
C35_8 C36_8 1_555 1_555
C41_8 C42_8 1_555 1_555
O19_8 C26_8 1_555 1_555
O20_8 C28_8 1_555 1_555
O21_8 C28_8 1_555 1_555
C28_8 C29_8 1_555 1_555
C29_8 O19_8 1_555 1_555
H20_8 C30_8 1_555 1_555
Zn5_3 O20_8 1_555 1_555
C29_8 C30_8 1_555 1_555
C31_9 O32_2 1_555 1_555
H21_9 C33_9 1_555 1_555
O18_9 C25_9 1_555 1_555
O19_9 C26_9 1_555 1_555
C25_9 O37_2 1_555 1_555
C26_9 C25_9 1_555 1_555
C27_9 C26_9 1_555 1_555
H19_9 C27_9 1_555 1_555
O20_9 C28_9 1_555 1_555
O21_9 C28_9 1_555 1_555
C28_9 C29_9 1_555 1_555
C29_9 O19_9 1_555 1_555
C30_9 C27_9 1_555 1_555
H20_9 C30_9 1_555 1_555
O24_9 C32_9 1_555 1_555
O25_9 C34_9 1_555 1_555
O26_9 C34_9 1_555 1_555
C34_9 C35_9 1_555 1_555
C35_9 O24_9 1_555 1_555
H22_9 C36_9 1_555 1_555
O28_9 C37_9 1_555 1_555
O29_9 C38_9 1_555 1_555
C37_9 O34_2 1_555 1_555
C38_9 C37_9 1_555 1_555
C39_9 C38_9 1_555 1_555
H23_9 C39_9 1_555 1_555
O30_9 C40_9 1_555 1_555
O31_9 C40_9 1_555 1_555
C40_9 C41_9 1_555 1_555
C41_9 O29_9 1_555 1_555
C42_9 C39_9 1_555 1_555
H24_9 C42_9 1_555 1_555
Zn9_4 O20_9 1_555 1_555
Zn9_3 O30_9 1_555 1_555
Zn10_4 O25_9 1_555 1_555
C29_9 C30_9 1_555 1_555
C35_9 C36_9 1_555 1_555
C41_9 C42_9 1_555 1_555
O23_10 C31_10 1_555 1_555
O24_10 C32_10 1_555 1_555
C31_10 O32_4 1_555 1_555
C32_10 C31_10 1_555 1_555
C33_10 C32_10 1_555 1_555
H21_10 C33_10 1_555 1_555
O25_10 C34_10 1_555 1_555
O26_10 C34_10 1_555 1_555
C34_10 C35_10 1_555 1_555
C35_10 O24_10 1_555 1_555
C36_10 C33_10 1_555 1_555
H22_10 C36_10 1_555 1_555
O29_10 C38_10 1_555 1_555
O30_10 C40_10 1_555 1_555
O31_10 C40_10 1_555 1_555
C40_10 C41_10 1_555 1_555
C41_10 O29_10 1_555 1_555
H24_10 C42_10 1_555 1_555
Zn9 O30_10 1_555 1_555
Zn10_2 O25_10 1_555 1_555
C35_10 C36_10 1_555 1_555
C41_10 C42_10 1_555 1_555
O18_10 C25_10 1_555 1_555
O19_10 C26_10 1_555 1_555
C25_10 O37_4 1_555 1_555
C26_10 C25_10 1_555 1_555
C27_10 C26_10 1_555 1_555
H19_10 C27_10 1_555 1_555
O20_10 C28_10 1_555 1_555
O21_10 C28_10 1_555 1_555
C28_10 C29_10 1_555 1_555
C29_10 O19_10 1_555 1_555
C30_10 C27_10 1_555 1_555
H20_10 C30_10 1_555 1_555
C37_10 O34_4 1_555 1_555
H23_10 C39_10 1_555 1_555
Zn9_2 O20_10 1_555 1_555
C29_10 C30_10 1_555 1_555
O19_11 C26_11 1_555 1_555
O20_11 C28_11 1_555 1_555
O21_11 C28_11 1_555 1_555
C28_11 C29_11 1_555 1_555
C29_11 O19_11 1_555 1_555
H20_11 C30_11 1_555 1_555
Zn9 O20_11 1_555 1_555
C29_11 C30_11 1_555 1_555
C25_11 O37_3 1_555 1_555
H19_11 C27_11 1_555 1_555
C37_11 O34_3 1_555 1_555
H23_11 C39_11 1_555 1_555
O24_11 C32_11 1_555 1_555
O25_11 C34_11 1_555 1_555
O26_11 C34_11 1_555 1_555
C34_11 C35_11 1_555 1_555
C35_11 O24_11 1_555 1_555
H22_11 C36_11 1_555 1_555
O29_11 C38_11 1_555 1_555
O30_11 C40_11 1_555 1_555
O31_11 C40_11 1_555 1_555
C40_11 C41_11 1_555 1_555
C41_11 O29_11 1_555 1_555
H24_11 C42_11 1_555 1_555
Zn9_2 O30_11 1_555 1_555
Zn10 O25_11 1_555 1_555
C35_11 C36_11 1_555 1_555
C41_11 C42_11 1_555 1_555
C31_11 O32_3 1_555 1_555
H21_11 C33_11 1_555 1_555
C25_12 O37 1_555 1_555
H19_12 C27_12 1_555 1_555
O23_12 C31_12 1_555 1_555
O24_12 C32_12 1_555 1_555
C31_12 O32 1_555 1_555
C32_12 C31_12 1_555 1_555
C33_12 C32_12 1_555 1_555
H21_12 C33_12 1_555 1_555
O25_12 C34_12 1_555 1_555
O26_12 C34_12 1_555 1_555
C34_12 C35_12 1_555 1_555
C35_12 O24_12 1_555 1_555
C36_12 C33_12 1_555 1_555
H22_12 C36_12 1_555 1_555
O28_12 C37_12 1_555 1_555
O29_12 C38_12 1_555 1_555
C37_12 O34 1_555 1_555
C38_12 C37_12 1_555 1_555
C39_12 C38_12 1_555 1_555
H23_12 C39_12 1_555 1_555
O30_12 C40_12 1_555 1_555
O31_12 C40_12 1_555 1_555
C40_12 C41_12 1_555 1_555
C41_12 O29_12 1_555 1_555
C42_12 C39_12 1_555 1_555
H24_12 C42_12 1_555 1_555
Zn9_4 O30_12 1_555 1_555
Zn10_3 O25_12 1_555 1_555
C35_12 C36_12 1_555 1_555
C41_12 C42_12 1_555 1_555
O19_12 C26_12 1_555 1_555
O20_12 C28_12 1_555 1_555
O21_12 C28_12 1_555 1_555
C28_12 C29_12 1_555 1_555
C29_12 O19_12 1_555 1_555
H20_12 C30_12 1_555 1_555
Zn9_3 O20_12 1_555 1_555
C29_12 C30_12 1_555 1_555
N1_5 Zn5_4 1_555 1_555
C4_10 N1_5 1_555 1_555
H2_5 C4_10 1_555 1_555
N2_5 C8_10 1_555 1_555
C8_10 N1_5 1_555 1_555
H4_5 C8_10 1_555 1_555
N3_5 C4_10 1_555 1_555
C9_10 N2_5 1_555 1_555
H5_5 C9_10 1_555 1_555
H6_5 C4_10 1_555 1_555
N4_5 C10_10 1_555 1_555
C10_10 N3_5 1_555 1_555
H7_5 C10_10 1_555 1_555
C11_10 N1_5 1_555 1_555
H8_5 C11_10 1_555 1_555
C12_10 N2_5 1_555 1_555
H9_5 C12_10 1_555 1_555
H10_5 C8_10 1_555 1_555
H11_5 C11_10 1_555 1_555
H12_5 C12_10 1_555 1_555
H13_5 C10_10 1_555 1_555
H14_5 C9_10 1_555 1_555
Zn6 N2_5 1_555 1_555
Zn9_3 N3_5 1_555 1_555
Zn10_4 N4_5 1_555 1_555
N3_5 C9_10 1_555 1_555
N4_5 C11_10 1_555 1_555
N4_5 C12_10 1_555 1_555
N1_6 Zn5_3 1_555 1_555
C4_11 N1_6 1_555 1_555
H2_6 C4_11 1_555 1_555
N2_6 C8_11 1_555 1_555
C8_11 N1_6 1_555 1_555
H4_6 C8_11 1_555 1_555
N3_6 C4_11 1_555 1_555
C9_11 N2_6 1_555 1_555
H5_6 C9_11 1_555 1_555
H6_6 C4_11 1_555 1_555
N4_6 C10_11 1_555 1_555
C10_11 N3_6 1_555 1_555
H7_6 C10_11 1_555 1_555
C11_11 N1_6 1_555 1_555
H8_6 C11_11 1_555 1_555
C12_11 N2_6 1_555 1_555
H9_6 C12_11 1_555 1_555
H10_6 C8_11 1_555 1_555
H11_6 C11_11 1_555 1_555
H12_6 C12_11 1_555 1_555
H13_6 C10_11 1_555 1_555
H14_6 C9_11 1_555 1_555
Zn8 N2_6 1_555 1_555
Zn9_4 N3_6 1_555 1_555
Zn10_3 N4_6 1_555 1_555
N3_6 C9_11 1_555 1_555
N4_6 C11_11 1_555 1_555
N4_6 C12_11 1_555 1_555
N1_7 Zn5 1_555 1_555
C4_12 N1_7 1_555 1_555
H2_7 C4_12 1_555 1_555
N2_7 C8_12 1_555 1_555
C8_12 N1_7 1_555 1_555
H4_7 C8_12 1_555 1_555
N3_7 C4_12 1_555 1_555
C9_12 N2_7 1_555 1_555
H5_7 C9_12 1_555 1_555
H6_7 C4_12 1_555 1_555
N4_7 C10_12 1_555 1_555
C10_12 N3_7 1_555 1_555
H7_7 C10_12 1_555 1_555
C11_12 N1_7 1_555 1_555
H8_7 C11_12 1_555 1_555
C12_12 N2_7 1_555 1_555
H9_7 C12_12 1_555 1_555
H10_7 C8_12 1_555 1_555
H11_7 C11_12 1_555 1_555
H12_7 C12_12 1_555 1_555
H13_7 C10_12 1_555 1_555
H14_7 C9_12 1_555 1_555
Zn7 N2_7 1_555 1_555
Zn9_2 N3_7 1_555 1_555
Zn10 N4_7 1_555 1_555
N3_7 C9_12 1_555 1_555
N4_7 C11_12 1_555 1_555
N4_7 C12_12 1_555 1_555
N1_8 Zn5_2 1_555 1_555
C4_13 N1_8 1_555 1_555
H2_8 C4_13 1_555 1_555
N2_8 C8_13 1_555 1_555
C8_13 N1_8 1_555 1_555
H4_8 C8_13 1_555 1_555
N3_8 C4_13 1_555 1_555
C9_13 N2_8 1_555 1_555
H5_8 C9_13 1_555 1_555
H6_8 C4_13 1_555 1_555
N4_8 C10_13 1_555 1_555
C10_13 N3_8 1_555 1_555
H7_8 C10_13 1_555 1_555
C11_13 N1_8 1_555 1_555
H8_8 C11_13 1_555 1_555
C12_13 N2_8 1_555 1_555
H9_8 C12_13 1_555 1_555
H10_8 C8_13 1_555 1_555
H11_8 C11_13 1_555 1_555
H12_8 C12_13 1_555 1_555
H13_8 C10_13 1_555 1_555
H14_8 C9_13 1_555 1_555
Zn7_2 N2_8 1_555 1_555
Zn9 N3_8 1_555 1_555
Zn10_2 N4_8 1_555 1_555
N3_8 C9_13 1_555 1_555
N4_8 C11_13 1_555 1_555
N4_8 C12_13 1_555 1_555

#END
