
###############################################################################
#
# This file contains modified crystal structure data generated from the
# MOF subset of the Cambridge Structural Database (CSD) v543 
# hosted by the Cambridge Crystallographic Data Centre (CCDC).
#
# This work is licensed under the Creative Commons
# Attribution-NonCommercial-ShareAlike 4.0 International License.
# To view a copy of this license, visit
# http://creativecommons.org/licenses/by-nc-sa/4.0/
# or send a letter to
# Creative Commons, PO Box 1866, Mountain View, CA 94042, USA.
#
# CIF created using the CSD Python API on 29 September 2022
# The structure has been converted into the P1 space group
# The structure has a 3D framework
# The original CSD entry YASNAJ is in the monoclinic crystal system
# The framework has been calculated to contain at least 10.0% void space
# The void calculation uses a probe of radius 1.32A, grid spacing 0.4
#
###############################################################################

data_YASNAJ
_chemical_formula_moiety         '(C240 H160 Co8 N16 O44 S8)n'
_symmetry_cell_setting           triclinic
_symmetry_space_group_name_H-M   'P 1'
_symmetry_Int_Tables_number      1
_space_group_name_Hall           'P 1'
loop_
_symmetry_equiv_pos_site_id
_symmetry_equiv_pos_as_xyz
1 x,y,z
_cell_length_a                   15.639(2)
_cell_length_b                   27.036(2)
_cell_length_c                   16.7178(18)
_cell_angle_alpha                90
_cell_angle_beta                 112.050(3)
_cell_angle_gamma                90
_cell_volume                     6551.54
loop_
_atom_site_label
_atom_site_type_symbol
_atom_site_fract_x
_atom_site_fract_y
_atom_site_fract_z
C1 C 0.0500(2) 0.64995(11) 0.3614(2)
H1 H 0.0164 0.6792 0.3461
C2 C 0.0032(2) 0.60709(11) 0.3589(2)
C3 C 0.0497(2) 0.56252(10) 0.3805(2)
C4 C 0.1438(2) 0.56469(11) 0.4050(3)
H3 H 0.1787 0.5359 0.4202
C5 C 0.1867(2) 0.60960(12) 0.4070(3)
H4 H 0.2507 0.6100 0.4248
C6 C 0.0019(2) 0.51509(11) 0.3775(2)
H7 H 0.0233 0.3976 0.3539
C11 C 0.0389(2) 0.47158(12) 0.3630(3)
H8 H 0.0937 0.4723 0.3532
C17 C 0.1147(2) 0.78915(10) 0.4474(2)
C18 C 0.0283(2) 0.81652(10) 0.44041(19)
C19 C 0.0327(3) 0.85546(13) 0.4957(3)
H13 H 0.0893 0.8649 0.5369
Co1 Co 0.21314(3) 0.718090(12) 0.37919(2)
N1 N 0.14144(16) 0.65225(8) 0.38475(16)
O1 O 0.18725(14) 0.80111(8) 0.50752(13)
O2 O 0.10737(13) 0.75686(7) 0.39141(14)
Co3 Co 0.28686(3) 0.781910(12) 0.62081(2)
N3 N 0.28175(18) 0.78538(8) 0.37160(17)
O7 O 0.31275(14) 0.69889(8) 0.49248(13)
O8 O 0.28873(15) 0.67581(8) 0.31367(14)
O9 O 0.15911(17) 0.71170(8) 0.23837(15)
H2 H 0.0605 0.6078 0.1576
C7 C 0.0812(2) 0.51281(12) 0.1103(3)
H5 H 0.1081 0.5418 0.1011
C8 C 0.1240(3) 0.46835(13) 0.1117(3)
H6 H 0.1796 0.4677 0.1035
C9 C 0.0859(2) 0.42452(11) 0.1251(2)
C10 C 0.0038(2) 0.42667(12) 0.1374(3)
C12 C 0.1319(2) 0.37670(11) 0.1261(2)
C13 C 0.2264(2) 0.37211(11) 0.1571(2)
H9 H 0.2634 0.3998 0.1778
C14 C 0.2663(2) 0.32688(12) 0.1576(2)
H10 H 0.3303 0.3250 0.1795
C15 C 0.1272(2) 0.28979(12) 0.0998(3)
H11 H 0.0919 0.2614 0.0805
C16 C 0.0822(2) 0.33353(12) 0.0970(3)
H12 H 0.0181 0.3343 0.0755
C20 C 0.0455(3) 0.88005(16) 0.0100(3)
C21 C 0.1293(2) 0.86450(14) 0.0697(3)
C22 C 0.1354(2) 0.82590(15) 0.1231(2)
H15 H 0.1926 0.8157 0.1621
C23 C 0.0561(2) 0.80182(13) 0.1191(2)
H16 H 0.0595 0.7757 0.1564
H20 H 0.3271 0.8153 0.0406
N2 N 0.21825(18) 0.28538(8) 0.12840(17)
O3 O 0.2134(3) 0.94717(13) 0.0650(3)
O4 O 0.3060(2) 0.87890(17) 0.1502(2)
S1 S 0.23177(8) 0.89575(5) 0.07537(8)
Co2 Co 0.28686(3) 0.218090(12) 0.12081(2)
H14 H 0.0425 0.9069 0.9741
C24 C 0.2498(3) 0.87384(16) 0.9835(2)
C25 C 0.2100(4) 0.89892(17) 0.9055(3)
H17 H 0.1781 0.9283 0.9025
C26 C 0.2185(3) 0.87948(15) 0.8333(3)
H18 H 0.1910 0.8956 0.7807
C27 C 0.2670(2) 0.83663(13) 0.8372(2)
C28 C 0.3085(3) 0.81321(16) 0.9160(2)
H19 H 0.3429 0.7847 0.9196
C29 C 0.2995(3) 0.83154(17) 0.9881(2)
C30 C 0.2734(2) 0.81511(12) 0.7566(2)
O5 O 0.21127(15) 0.82419(8) 0.68633(14)
O6 O 0.34089(17) 0.78830(8) 0.76163(15)
C1_2 C 0.9500(2) 0.64995(11) 0.1386(2)
H1_2 H 0.9836 0.6792 0.1539
C2_2 C 0.9968(2) 0.60709(11) 0.1411(2)
C3_2 C 0.9503(2) 0.56252(10) 0.1195(2)
C4_2 C 0.8562(2) 0.56469(11) 0.0950(3)
H3_2 H 0.8213 0.5359 0.0798
C5_2 C 0.8133(2) 0.60960(12) 0.0930(3)
H4_2 H 0.7493 0.6100 0.0752
C6_2 C 0.9981(2) 0.51509(11) 0.1225(2)
H7_2 H 0.9767 0.3976 0.1461
C11_2 C 0.9611(2) 0.47158(12) 0.1370(3)
H8_2 H 0.9063 0.4723 0.1468
C17_2 C 0.8853(2) 0.78915(10) 0.0526(2)
C18_2 C 0.9717(2) 0.81652(10) 0.05959(19)
C19_2 C 0.9673(3) 0.85546(13) 0.0043(3)
Co1_2 Co 0.78686(3) 0.718090(12) 0.12081(2)
N1_2 N 0.85856(16) 0.65225(8) 0.11525(16)
O2_2 O 0.89263(13) 0.75686(7) 0.10859(14)
N3_2 N 0.71825(18) 0.78538(8) 0.12840(17)
O7_2 O 0.68725(14) 0.69889(8) 0.00752(13)
O8_2 O 0.71127(15) 0.67581(8) 0.18633(14)
O9_2 O 0.84089(17) 0.71170(8) 0.26163(15)
C8_2 C 0.3760(3) 0.96835(13) 0.3883(3)
H6_2 H 0.3204 0.9677 0.3965
C9_2 C 0.4141(2) 0.92452(11) 0.3749(2)
C10_2 C 0.4962(2) 0.92667(12) 0.3626(3)
H7_3 H 0.5233 0.8976 0.3539
C11_3 C 0.5389(2) 0.97158(12) 0.3630(3)
H8_3 H 0.5937 0.9723 0.3532
C12_2 C 0.3681(2) 0.87670(11) 0.3739(2)
C13_2 C 0.2736(2) 0.87211(11) 0.3429(2)
H9_2 H 0.2366 0.8998 0.3222
C14_2 C 0.2337(2) 0.82688(12) 0.3424(2)
H10_2 H 0.1697 0.8250 0.3205
C15_2 C 0.3728(2) 0.78979(12) 0.4002(3)
H11_2 H 0.4081 0.7614 0.4195
C16_2 C 0.4178(2) 0.83353(12) 0.4030(3)
H12_2 H 0.4819 0.8343 0.4245
C1_3 C 0.4500(2) 0.14995(11) 0.1386(2)
H1_3 H 0.4836 0.1792 0.1539
C2_3 C 0.4968(2) 0.10709(11) 0.1411(2)
H2_2 H 0.5605 0.1078 0.1576
C3_3 C 0.4503(2) 0.06252(10) 0.1195(2)
C4_3 C 0.3562(2) 0.06469(11) 0.0950(3)
H3_3 H 0.3213 0.0359 0.0798
C5_3 C 0.3133(2) 0.10960(12) 0.0930(3)
H4_3 H 0.2493 0.1100 0.0752
C6_3 C 0.4981(2) 0.01509(11) 0.1225(2)
C7_2 C 0.5812(2) 0.01281(12) 0.1103(3)
H5_2 H 0.6081 0.0418 0.1011
C17_3 C 0.3853(2) 0.28915(10) 0.0526(2)
C18_3 C 0.4717(2) 0.31652(10) 0.05959(19)
C19_3 C 0.4673(3) 0.35546(13) 0.0043(3)
C20_2 C 0.5455(3) 0.38005(16) 0.0100(3)
C21_2 C 0.6293(2) 0.36450(14) 0.0697(3)
C22_2 C 0.6354(2) 0.32590(15) 0.1231(2)
H15_2 H 0.6926 0.3157 0.1621
C23_2 C 0.5561(2) 0.30182(13) 0.1191(2)
H16_2 H 0.5595 0.2757 0.1564
H20_2 H 0.8271 0.3153 0.0406
N1_3 N 0.35856(16) 0.15225(8) 0.11525(16)
O2_3 O 0.39263(13) 0.25686(7) 0.10859(14)
O3_2 O 0.7134(3) 0.44717(13) 0.0650(3)
O4_2 O 0.8060(2) 0.37890(17) 0.1502(2)
S1_2 S 0.73177(8) 0.39575(5) 0.07537(8)
O7_3 O 0.18725(14) 0.19889(8) 0.00752(13)
O8_3 O 0.21127(15) 0.17581(8) 0.18633(14)
O9_3 O 0.34089(17) 0.21170(8) 0.26163(15)
C8_3 C 0.6240(3) 0.96835(13) 0.1117(3)
H6_3 H 0.6796 0.9677 0.1035
C9_3 C 0.5859(2) 0.92452(11) 0.1251(2)
C10_3 C 0.5038(2) 0.92667(12) 0.1374(3)
H7_4 H 0.4767 0.8976 0.1461
C11_4 C 0.4611(2) 0.97158(12) 0.1370(3)
H8_4 H 0.4063 0.9723 0.1468
C12_3 C 0.6319(2) 0.87670(11) 0.1261(2)
C13_3 C 0.7264(2) 0.87211(11) 0.1571(2)
H9_3 H 0.7634 0.8998 0.1778
C14_3 C 0.7663(2) 0.82688(12) 0.1576(2)
H10_3 H 0.8303 0.8250 0.1795
C15_3 C 0.6272(2) 0.78979(12) 0.0998(3)
H11_3 H 0.5919 0.7614 0.0805
C16_3 C 0.5822(2) 0.83353(12) 0.0970(3)
H12_3 H 0.5181 0.8343 0.0755
H2_3 H 0.0605 0.3922 0.6576
C7_3 C 0.0812(2) 0.48719(12) 0.6103(3)
H5_3 H 0.1081 0.4582 0.6011
C8_4 C 0.1240(3) 0.53165(13) 0.6117(3)
H6_4 H 0.1796 0.5323 0.6035
C9_4 C 0.0859(2) 0.57548(11) 0.6251(2)
C10_4 C 0.0038(2) 0.57333(12) 0.6374(3)
C12_4 C 0.1319(2) 0.62330(11) 0.6261(2)
C13_4 C 0.2264(2) 0.62789(11) 0.6571(2)
H9_4 H 0.2634 0.6002 0.6778
C14_4 C 0.2663(2) 0.67312(12) 0.6576(2)
H10_4 H 0.3303 0.6750 0.6795
C15_4 C 0.1272(2) 0.71021(12) 0.5998(3)
H11_4 H 0.0919 0.7386 0.5805
C16_4 C 0.0822(2) 0.66647(12) 0.5970(3)
H12_4 H 0.0181 0.6657 0.5755
C20_3 C 0.0455(3) 0.11995(16) 0.5100(3)
H14_2 H 0.0425 0.0931 0.4741
C21_3 C 0.1293(2) 0.13550(14) 0.5697(3)
C22_3 C 0.1354(2) 0.17410(15) 0.6231(2)
H15_3 H 0.1926 0.1843 0.6621
C23_3 C 0.0561(2) 0.19818(13) 0.6191(2)
H16_3 H 0.0595 0.2243 0.6564
C24_2 C 0.2498(3) 0.12616(16) 0.4835(2)
C25_2 C 0.2100(4) 0.10108(17) 0.4055(3)
H17_2 H 0.1781 0.0717 0.4025
C26_2 C 0.2185(3) 0.12052(15) 0.3333(3)
H18_2 H 0.1910 0.1044 0.2807
C27_2 C 0.2670(2) 0.16337(13) 0.3372(2)
C28_2 C 0.3085(3) 0.18679(16) 0.4160(2)
H19_2 H 0.3429 0.2153 0.4196
C29_2 C 0.2995(3) 0.16846(17) 0.4881(2)
H20_3 H 0.3271 0.1847 0.5406
C30_2 C 0.2734(2) 0.18489(12) 0.2566(2)
N2_2 N 0.21825(18) 0.71462(8) 0.62840(17)
O3_3 O 0.2134(3) 0.05283(13) 0.5650(3)
O4_3 O 0.3060(2) 0.12110(17) 0.6502(2)
S1_3 S 0.23177(8) 0.10425(5) 0.57537(8)
H13_2 H 0.0893 0.1351 0.0369
C1_4 C 0.4500(2) 0.85005(11) 0.6386(2)
H1_4 H 0.4836 0.8208 0.6539
C2_4 C 0.4968(2) 0.89291(11) 0.6411(2)
H2_4 H 0.5605 0.8922 0.6576
C3_4 C 0.4503(2) 0.93748(10) 0.6195(2)
C4_4 C 0.3562(2) 0.93531(11) 0.5950(3)
H3_4 H 0.3213 0.9641 0.5798
C5_4 C 0.3133(2) 0.89040(12) 0.5930(3)
H4_4 H 0.2493 0.8900 0.5752
C6_4 C 0.4981(2) 0.98491(11) 0.6225(2)
C7_4 C 0.5812(2) 0.98719(12) 0.6103(3)
H5_4 H 0.6081 0.9582 0.6011
C17_4 C 0.3853(2) 0.71085(10) 0.5526(2)
C18_4 C 0.4717(2) 0.68348(10) 0.55959(19)
C19_4 C 0.4673(3) 0.64454(13) 0.5043(3)
H13_3 H 0.4107 0.6351 0.4631
C20_4 C 0.5455(3) 0.61995(16) 0.5100(3)
H14_3 H 0.5425 0.5931 0.4741
C21_4 C 0.6293(2) 0.63550(14) 0.5697(3)
C22_4 C 0.6354(2) 0.67410(15) 0.6231(2)
H15_4 H 0.6926 0.6843 0.6621
C23_4 C 0.5561(2) 0.69818(13) 0.6191(2)
H16_4 H 0.5595 0.7243 0.6564
C24_3 C 0.7498(3) 0.62616(16) 0.4835(2)
C25_3 C 0.7100(4) 0.60108(17) 0.4055(3)
H17_3 H 0.6781 0.5717 0.4025
C26_3 C 0.7185(3) 0.62052(15) 0.3333(3)
H18_3 H 0.6910 0.6044 0.2807
C27_3 C 0.7670(2) 0.66337(13) 0.3372(2)
C28_3 C 0.8085(3) 0.68679(16) 0.4160(2)
H19_3 H 0.8429 0.7153 0.4196
C29_3 C 0.7995(3) 0.66846(17) 0.4881(2)
H20_4 H 0.8271 0.6847 0.5406
C30_3 C 0.7734(2) 0.68489(12) 0.2566(2)
N1_4 N 0.35856(16) 0.84775(8) 0.61525(16)
O2_4 O 0.39263(13) 0.74314(7) 0.60859(14)
O3_4 O 0.7134(3) 0.55283(13) 0.5650(3)
O4_4 O 0.8060(2) 0.62110(17) 0.6502(2)
S1_4 S 0.73177(8) 0.60425(5) 0.57537(8)
H13_4 H 0.5893 0.6351 0.0369
H14_4 H 0.4575 0.5931 0.0259
C24_4 C 0.2502(3) 0.62616(16) 0.0165(2)
C25_4 C 0.2900(4) 0.60108(17) 0.0945(3)
H17_4 H 0.3219 0.5717 0.0975
C26_4 C 0.2815(3) 0.62052(15) 0.1667(3)
H18_4 H 0.3090 0.6044 0.2193
C27_4 C 0.2330(2) 0.66337(13) 0.1628(2)
C28_4 C 0.1915(3) 0.68679(16) 0.0840(2)
H19_4 H 0.1571 0.7153 0.0804
C29_4 C 0.2005(3) 0.66846(17) 0.0119(2)
C30_4 C 0.2266(2) 0.68489(12) 0.2434(2)
H2_5 H 0.9395 0.6078 0.3424
C7_5 C 0.9188(2) 0.51281(12) 0.3897(3)
H5_5 H 0.8919 0.5418 0.3989
C8_5 C 0.8760(3) 0.46835(13) 0.3883(3)
H6_5 H 0.8204 0.4677 0.3965
C9_5 C 0.9141(2) 0.42452(11) 0.3749(2)
C10_5 C 0.9962(2) 0.42667(12) 0.3626(3)
C12_5 C 0.8681(2) 0.37670(11) 0.3739(2)
C13_5 C 0.7736(2) 0.37211(11) 0.3429(2)
H9_5 H 0.7366 0.3998 0.3222
C14_5 C 0.7337(2) 0.32688(12) 0.3424(2)
H10_5 H 0.6697 0.3250 0.3205
C15_5 C 0.8728(2) 0.28979(12) 0.4002(3)
H11_5 H 0.9081 0.2614 0.4195
C16_5 C 0.9178(2) 0.33353(12) 0.4030(3)
H12_5 H 0.9819 0.3343 0.4245
C20_5 C 0.9545(3) 0.88005(16) 0.4900(3)
H14_5 H 0.9575 0.9069 0.5259
C21_5 C 0.8707(2) 0.86450(14) 0.4303(3)
C22_5 C 0.8646(2) 0.82590(15) 0.3769(2)
H15_5 H 0.8074 0.8157 0.3379
C23_5 C 0.9439(2) 0.80182(13) 0.3809(2)
H16_5 H 0.9405 0.7757 0.3436
C24_5 C 0.7502(3) 0.87384(16) 0.5165(2)
C25_5 C 0.7900(4) 0.89892(17) 0.5945(3)
H17_5 H 0.8219 0.9283 0.5975
C26_5 C 0.7815(3) 0.87948(15) 0.6667(3)
H18_5 H 0.8090 0.8956 0.7193
C27_5 C 0.7330(2) 0.83663(13) 0.6628(2)
C28_5 C 0.6915(3) 0.81321(16) 0.5840(2)
H19_5 H 0.6571 0.7847 0.5804
C29_5 C 0.7005(3) 0.83154(17) 0.5119(2)
H20_5 H 0.6729 0.8153 0.4594
C30_5 C 0.7266(2) 0.81511(12) 0.7434(2)
N2_3 N 0.78175(18) 0.28538(8) 0.37160(17)
O3_5 O 0.7866(3) 0.94717(13) 0.4350(3)
O4_5 O 0.6940(2) 0.87890(17) 0.3498(2)
O5_2 O 0.78873(15) 0.82419(8) 0.81367(14)
O6_2 O 0.65911(17) 0.78830(8) 0.73837(15)
S1_5 S 0.76823(8) 0.89575(5) 0.42463(8)
Co2_2 Co 0.71314(3) 0.218090(12) 0.37919(2)
Co4 Co 0.71314(3) 0.781910(12) 0.87919(2)
H13_5 H 0.9107 0.8649 0.9631
O1_2 O 0.81275(14) 0.80111(8) 0.99248(13)
C1_5 C 0.5500(2) 0.14995(11) 0.3614(2)
H1_5 H 0.5164 0.1792 0.3461
C2_5 C 0.5032(2) 0.10709(11) 0.3589(2)
H2_6 H 0.4395 0.1078 0.3424
C3_5 C 0.5497(2) 0.06252(10) 0.3805(2)
C4_5 C 0.6438(2) 0.06469(11) 0.4050(3)
H3_5 H 0.6787 0.0359 0.4202
C5_5 C 0.6867(2) 0.10960(12) 0.4070(3)
H4_5 H 0.7507 0.1100 0.4248
C6_5 C 0.5019(2) 0.01509(11) 0.3775(2)
C7_6 C 0.4188(2) 0.01281(12) 0.3897(3)
H5_6 H 0.3919 0.0418 0.3989
C17_5 C 0.6147(2) 0.28915(10) 0.4474(2)
C18_5 C 0.5283(2) 0.31652(10) 0.44041(19)
C19_5 C 0.5327(3) 0.35546(13) 0.4957(3)
H13_6 H 0.5893 0.3649 0.5369
C20_6 C 0.4545(3) 0.38005(16) 0.4900(3)
H14_6 H 0.4575 0.4069 0.5259
C21_6 C 0.3707(2) 0.36450(14) 0.4303(3)
C22_6 C 0.3646(2) 0.32590(15) 0.3769(2)
H15_6 H 0.3074 0.3157 0.3379
C23_6 C 0.4439(2) 0.30182(13) 0.3809(2)
H16_6 H 0.4405 0.2757 0.3436
C24_6 C 0.2502(3) 0.37384(16) 0.5165(2)
C25_6 C 0.2900(4) 0.39892(17) 0.5945(3)
H17_6 H 0.3219 0.4283 0.5975
C26_6 C 0.2815(3) 0.37948(15) 0.6667(3)
H18_6 H 0.3090 0.3956 0.7193
C27_6 C 0.2330(2) 0.33663(13) 0.6628(2)
C28_6 C 0.1915(3) 0.31321(16) 0.5840(2)
H19_6 H 0.1571 0.2847 0.5804
C29_6 C 0.2005(3) 0.33154(17) 0.5119(2)
H20_6 H 0.1729 0.3153 0.4594
C30_6 C 0.2266(2) 0.31511(12) 0.7434(2)
N1_5 N 0.64144(16) 0.15225(8) 0.38475(16)
O1_3 O 0.68725(14) 0.30111(8) 0.50752(13)
O2_5 O 0.60737(13) 0.25686(7) 0.39141(14)
O3_6 O 0.2866(3) 0.44717(13) 0.4350(3)
O4_6 O 0.1940(2) 0.37890(17) 0.3498(2)
O5_3 O 0.28873(15) 0.32419(8) 0.81367(14)
O6_3 O 0.15911(17) 0.28830(8) 0.73837(15)
S1_6 S 0.26823(8) 0.39575(5) 0.42463(8)
Co3_2 Co 0.78686(3) 0.281910(12) 0.62081(2)
Co4_2 Co 0.21314(3) 0.281910(12) 0.87919(2)
O7_4 O 0.81275(14) 0.19889(8) 0.49248(13)
O8_4 O 0.78873(15) 0.17581(8) 0.31367(14)
O9_4 O 0.65911(17) 0.21170(8) 0.23837(15)
H13_7 H 0.4107 0.3649 0.9631
H14_7 H 0.5425 0.4069 0.9741
C24_7 C 0.7498(3) 0.37384(16) 0.9835(2)
C25_7 C 0.7100(4) 0.39892(17) 0.9055(3)
H17_7 H 0.6781 0.4283 0.9025
C26_7 C 0.7185(3) 0.37948(15) 0.8333(3)
H18_7 H 0.6910 0.3956 0.7807
C27_7 C 0.7670(2) 0.33663(13) 0.8372(2)
C28_7 C 0.8085(3) 0.31321(16) 0.9160(2)
H19_7 H 0.8429 0.2847 0.9196
C29_7 C 0.7995(3) 0.33154(17) 0.9881(2)
C30_7 C 0.7734(2) 0.31511(12) 0.7566(2)
O1_4 O 0.31275(14) 0.30111(8) 0.99248(13)
O5_4 O 0.71127(15) 0.32419(8) 0.68633(14)
O6_4 O 0.84089(17) 0.28830(8) 0.76163(15)
C1_6 C 0.9500(2) 0.35005(11) 0.6386(2)
H1_6 H 0.9836 0.3208 0.6539
C2_6 C 0.9968(2) 0.39291(11) 0.6411(2)
C3_6 C 0.9503(2) 0.43748(10) 0.6195(2)
C4_6 C 0.8562(2) 0.43531(11) 0.5950(3)
H3_6 H 0.8213 0.4641 0.5798
C5_6 C 0.8133(2) 0.39040(12) 0.5930(3)
H4_6 H 0.7493 0.3900 0.5752
C6_6 C 0.9981(2) 0.48491(11) 0.6225(2)
H7_5 H 0.9767 0.6024 0.6461
C11_5 C 0.9611(2) 0.52842(12) 0.6370(3)
H8_5 H 0.9063 0.5277 0.6468
C17_6 C 0.8853(2) 0.21085(10) 0.5526(2)
C18_6 C 0.9717(2) 0.18348(10) 0.55959(19)
C19_6 C 0.9673(3) 0.14454(13) 0.5043(3)
H13_8 H 0.9107 0.1351 0.4631
N1_6 N 0.85856(16) 0.34775(8) 0.61525(16)
O2_6 O 0.89263(13) 0.24314(7) 0.60859(14)
N3_3 N 0.71825(18) 0.21462(8) 0.62840(17)
C1_7 C 0.0500(2) 0.35005(11) 0.8614(2)
H1_7 H 0.0164 0.3208 0.8461
C2_7 C 0.0032(2) 0.39291(11) 0.8589(2)
C3_7 C 0.0497(2) 0.43748(10) 0.8805(2)
C4_7 C 0.1438(2) 0.43531(11) 0.9050(3)
H3_7 H 0.1787 0.4641 0.9202
C5_7 C 0.1867(2) 0.39040(12) 0.9070(3)
H4_7 H 0.2507 0.3900 0.9248
C6_7 C 0.0019(2) 0.48491(11) 0.8775(2)
H7_6 H 0.0233 0.6024 0.8539
C11_6 C 0.0389(2) 0.52842(12) 0.8630(3)
H8_6 H 0.0937 0.5277 0.8532
C17_7 C 0.1147(2) 0.21085(10) 0.9474(2)
C18_7 C 0.0283(2) 0.18348(10) 0.94041(19)
C19_7 C 0.0327(3) 0.14454(13) 0.9957(3)
N1_7 N 0.14144(16) 0.34775(8) 0.88475(16)
O2_7 O 0.10737(13) 0.24314(7) 0.89141(14)
N3_4 N 0.28175(18) 0.21462(8) 0.87160(17)
H14_8 H 0.9575 0.0931 0.0259
C24_8 C 0.7502(3) 0.12616(16) 0.0165(2)
C25_8 C 0.7900(4) 0.10108(17) 0.0945(3)
H17_8 H 0.8219 0.0717 0.0975
C26_8 C 0.7815(3) 0.12052(15) 0.1667(3)
H18_8 H 0.8090 0.1044 0.2193
C27_8 C 0.7330(2) 0.16337(13) 0.1628(2)
C28_8 C 0.6915(3) 0.18679(16) 0.0840(2)
H19_8 H 0.6571 0.2153 0.0804
C29_8 C 0.7005(3) 0.16846(17) 0.0119(2)
C30_8 C 0.7266(2) 0.18489(12) 0.2434(2)
H2_7 H 0.9395 0.3922 0.8424
C7_7 C 0.9188(2) 0.48719(12) 0.8897(3)
H5_7 H 0.8919 0.4582 0.8989
C8_6 C 0.8760(3) 0.53165(13) 0.8883(3)
H6_6 H 0.8204 0.5323 0.8965
C9_6 C 0.9141(2) 0.57548(11) 0.8749(2)
C10_6 C 0.9962(2) 0.57333(12) 0.8626(3)
C12_6 C 0.8681(2) 0.62330(11) 0.8739(2)
C13_6 C 0.7736(2) 0.62789(11) 0.8429(2)
H9_6 H 0.7366 0.6002 0.8222
C14_6 C 0.7337(2) 0.67312(12) 0.8424(2)
H10_6 H 0.6697 0.6750 0.8205
C15_6 C 0.8728(2) 0.71021(12) 0.9002(3)
H11_6 H 0.9081 0.7386 0.9195
C16_6 C 0.9178(2) 0.66647(12) 0.9030(3)
H12_6 H 0.9819 0.6657 0.9245
C20_7 C 0.9545(3) 0.11995(16) 0.9900(3)
C21_7 C 0.8707(2) 0.13550(14) 0.9303(3)
C22_7 C 0.8646(2) 0.17410(15) 0.8769(2)
H15_7 H 0.8074 0.1843 0.8379
C23_7 C 0.9439(2) 0.19818(13) 0.8809(2)
H16_7 H 0.9405 0.2243 0.8436
H20_7 H 0.6729 0.1847 0.9594
N2_4 N 0.78175(18) 0.71462(8) 0.87160(17)
O3_7 O 0.7866(3) 0.05283(13) 0.9350(3)
O4_7 O 0.6940(2) 0.12110(17) 0.8498(2)
S1_7 S 0.76823(8) 0.10425(5) 0.92463(8)
C8_7 C 0.6240(3) 0.03165(13) 0.6117(3)
H6_7 H 0.6796 0.0323 0.6035
C9_7 C 0.5859(2) 0.07548(11) 0.6251(2)
C10_7 C 0.5038(2) 0.07333(12) 0.6374(3)
H7_7 H 0.4767 0.1024 0.6461
C11_7 C 0.4611(2) 0.02842(12) 0.6370(3)
H8_7 H 0.4063 0.0277 0.6468
C12_7 C 0.6319(2) 0.12330(11) 0.6261(2)
C13_7 C 0.7264(2) 0.12789(11) 0.6571(2)
H9_7 H 0.7634 0.1002 0.6778
C14_7 C 0.7663(2) 0.17312(12) 0.6576(2)
H10_7 H 0.8303 0.1750 0.6795
C15_7 C 0.6272(2) 0.21021(12) 0.5998(3)
H11_7 H 0.5919 0.2386 0.5805
C16_7 C 0.5822(2) 0.16647(12) 0.5970(3)
H12_7 H 0.5181 0.1657 0.5755
C8_8 C 0.3760(3) 0.03165(13) 0.8883(3)
H6_8 H 0.3204 0.0323 0.8965
C9_8 C 0.4141(2) 0.07548(11) 0.8749(2)
C10_8 C 0.4962(2) 0.07333(12) 0.8626(3)
H7_8 H 0.5233 0.1024 0.8539
C11_8 C 0.5389(2) 0.02842(12) 0.8630(3)
H8_8 H 0.5937 0.0277 0.8532
C12_8 C 0.3681(2) 0.12330(11) 0.8739(2)
C13_8 C 0.2736(2) 0.12789(11) 0.8429(2)
H9_8 H 0.2366 0.1002 0.8222
C14_8 C 0.2337(2) 0.17312(12) 0.8424(2)
H10_8 H 0.1697 0.1750 0.8205
C15_8 C 0.3728(2) 0.21021(12) 0.9002(3)
H11_8 H 0.4081 0.2386 0.9195
C16_8 C 0.4178(2) 0.16647(12) 0.9030(3)
H12_8 H 0.4819 0.1657 0.9245
C1_8 C 0.5500(2) 0.85005(11) 0.8614(2)
H1_8 H 0.5164 0.8208 0.8461
C2_8 C 0.5032(2) 0.89291(11) 0.8589(2)
H2_8 H 0.4395 0.8922 0.8424
C3_8 C 0.5497(2) 0.93748(10) 0.8805(2)
C4_8 C 0.6438(2) 0.93531(11) 0.9050(3)
H3_8 H 0.6787 0.9641 0.9202
C5_8 C 0.6867(2) 0.89040(12) 0.9070(3)
H4_8 H 0.7507 0.8900 0.9248
C6_8 C 0.5019(2) 0.98491(11) 0.8775(2)
C7_8 C 0.4188(2) 0.98719(12) 0.8897(3)
H5_8 H 0.3919 0.9582 0.8989
C17_8 C 0.6147(2) 0.71085(10) 0.9474(2)
C18_8 C 0.5283(2) 0.68348(10) 0.94041(19)
C19_8 C 0.5327(3) 0.64454(13) 0.9957(3)
C20_8 C 0.4545(3) 0.61995(16) 0.9900(3)
C21_8 C 0.3707(2) 0.63550(14) 0.9303(3)
C22_8 C 0.3646(2) 0.67410(15) 0.8769(2)
H15_8 H 0.3074 0.6843 0.8379
C23_8 C 0.4439(2) 0.69818(13) 0.8809(2)
H16_8 H 0.4405 0.7243 0.8436
H20_8 H 0.1729 0.6847 0.9594
N1_8 N 0.64144(16) 0.84775(8) 0.88475(16)
O2_8 O 0.60737(13) 0.74314(7) 0.89141(14)
O3_8 O 0.2866(3) 0.55283(13) 0.9350(3)
O4_8 O 0.1940(2) 0.62110(17) 0.8498(2)
S1_8 S 0.26823(8) 0.60425(5) 0.92463(8)
loop_
_geom_bond_atom_site_label_1
_geom_bond_atom_site_label_2
_geom_bond_site_symmetry_1
_geom_bond_site_symmetry_2
C1 H1 1_555 1_555
C2 C1 1_555 1_555
C3 C2 1_555 1_555
C4 C3 1_555 1_555
H3 C4 1_555 1_555
C5 C4 1_555 1_555
H4 C5 1_555 1_555
C6 C3 1_555 1_555
C11 C6 1_555 1_555
H8 C11 1_555 1_555
C17 C18 1_555 1_555
C18 C19 1_555 1_555
C19 H13 1_555 1_555
Co1 N1 1_555 1_555
N1 C1 1_555 1_555
O1 C17 1_555 1_555
O2 C17 1_555 1_555
Co3 O1 1_555 1_555
N3 Co1 1_555 1_555
O7 Co1 1_555 1_555
O8 Co1 1_555 1_555
O9 Co1 1_555 1_555
C5 N1 1_555 1_555
Co1 O2 1_555 1_555
H5 C7 1_555 1_555
C8 C7 1_555 1_555
H6 C8 1_555 1_555
C9 C8 1_555 1_555
C10 C9 1_555 1_555
C12 C9 1_555 1_555
C13 C12 1_555 1_555
H9 C13 1_555 1_555
C14 C13 1_555 1_555
H10 C14 1_555 1_555
C15 H11 1_555 1_555
C16 C12 1_555 1_555
H12 C16 1_555 1_555
C21 C20 1_555 1_555
C22 C21 1_555 1_555
H15 C22 1_555 1_555
H16 C23 1_555 1_555
N2 C14 1_555 1_555
O3 S1 1_555 1_555
O4 S1 1_555 1_555
S1 C21 1_555 1_555
Co2 N2 1_555 1_555
C15 C16 1_555 1_555
C15 N2 1_555 1_555
C22 C23 1_555 1_555
C24 C25 1_555 1_555
C25 H17 1_555 1_555
C26 C25 1_555 1_555
H18 C26 1_555 1_555
C27 C26 1_555 1_555
C28 C27 1_555 1_555
H19 C28 1_555 1_555
C29 C24 1_555 1_555
C30 C27 1_555 1_555
O5 C30 1_555 1_555
O6 C30 1_555 1_555
Co3 O5 1_555 1_555
C28 C29 1_555 1_555
O6 Co3 1_555 1_555
C1_2 H1_2 1_555 1_555
C2_2 C1_2 1_555 1_555
C3_2 C2_2 1_555 1_555
C4_2 C3_2 1_555 1_555
H3_2 C4_2 1_555 1_555
C5_2 C4_2 1_555 1_555
H4_2 C5_2 1_555 1_555
C6_2 C3_2 1_555 1_555
C11_2 C6_2 1_555 1_555
H8_2 C11_2 1_555 1_555
C17_2 C18_2 1_555 1_555
C18_2 C19_2 1_555 1_555
Co1_2 N1_2 1_555 1_555
N1_2 C1_2 1_555 1_555
O2_2 C17_2 1_555 1_555
N3_2 Co1_2 1_555 1_555
O7_2 Co1_2 1_555 1_555
O8_2 Co1_2 1_555 1_555
O9_2 Co1_2 1_555 1_555
C5_2 N1_2 1_555 1_555
Co1_2 O2_2 1_555 1_555
H6_2 C8_2 1_555 1_555
C9_2 C8_2 1_555 1_555
C10_2 C9_2 1_555 1_555
H7_3 C10_2 1_555 1_555
H8_3 C11_3 1_555 1_555
C12_2 C9_2 1_555 1_555
C13_2 C12_2 1_555 1_555
H9_2 C13_2 1_555 1_555
C14_2 C13_2 1_555 1_555
H10_2 C14_2 1_555 1_555
C15_2 H11_2 1_555 1_555
C16_2 C12_2 1_555 1_555
H12_2 C16_2 1_555 1_555
N3 C14_2 1_555 1_555
C10_2 C11_3 1_555 1_555
C15_2 C16_2 1_555 1_555
C15_2 N3 1_555 1_555
C1_3 H1_3 1_555 1_555
C2_3 C1_3 1_555 1_555
H2_2 C2_3 1_555 1_555
C3_3 C2_3 1_555 1_555
C4_3 C3_3 1_555 1_555
H3_3 C4_3 1_555 1_555
C5_3 C4_3 1_555 1_555
H4_3 C5_3 1_555 1_555
C6_3 C3_3 1_555 1_555
C7_2 C6_3 1_555 1_555
H5_2 C7_2 1_555 1_555
C17_3 C18_3 1_555 1_555
C18_3 C19_3 1_555 1_555
C20_2 C19_3 1_555 1_555
C21_2 C20_2 1_555 1_555
C22_2 C21_2 1_555 1_555
H15_2 C22_2 1_555 1_555
C23_2 C18_3 1_555 1_555
H16_2 C23_2 1_555 1_555
Co2 N1_3 1_555 1_555
N1_3 C1_3 1_555 1_555
O2_3 C17_3 1_555 1_555
O3_2 S1_2 1_555 1_555
O4_2 S1_2 1_555 1_555
S1_2 C21_2 1_555 1_555
O7_3 Co2 1_555 1_555
O8_3 Co2 1_555 1_555
O9_3 Co2 1_555 1_555
C5_3 N1_3 1_555 1_555
C22_2 C23_2 1_555 1_555
Co2 O2_3 1_555 1_555
H6_3 C8_3 1_555 1_555
C9_3 C8_3 1_555 1_555
C10_3 C9_3 1_555 1_555
H7_4 C10_3 1_555 1_555
H8_4 C11_4 1_555 1_555
C12_3 C9_3 1_555 1_555
C13_3 C12_3 1_555 1_555
H9_3 C13_3 1_555 1_555
C14_3 C13_3 1_555 1_555
H10_3 C14_3 1_555 1_555
C15_3 H11_3 1_555 1_555
C16_3 C12_3 1_555 1_555
H12_3 C16_3 1_555 1_555
N3_2 C14_3 1_555 1_555
C10_3 C11_4 1_555 1_555
C15_3 C16_3 1_555 1_555
C15_3 N3_2 1_555 1_555
H5_3 C7_3 1_555 1_555
C8_4 C7_3 1_555 1_555
H6_4 C8_4 1_555 1_555
C9_4 C8_4 1_555 1_555
C10_4 C9_4 1_555 1_555
C12_4 C9_4 1_555 1_555
C13_4 C12_4 1_555 1_555
H9_4 C13_4 1_555 1_555
C14_4 C13_4 1_555 1_555
H10_4 C14_4 1_555 1_555
C15_4 H11_4 1_555 1_555
C16_4 C12_4 1_555 1_555
H12_4 C16_4 1_555 1_555
H14_2 C20_3 1_555 1_555
C21_3 C20_3 1_555 1_555
C22_3 C21_3 1_555 1_555
H15_3 C22_3 1_555 1_555
H16_3 C23_3 1_555 1_555
C24_2 C25_2 1_555 1_555
C25_2 H17_2 1_555 1_555
C26_2 C25_2 1_555 1_555
H18_2 C26_2 1_555 1_555
C27_2 C26_2 1_555 1_555
C28_2 C27_2 1_555 1_555
H19_2 C28_2 1_555 1_555
C29_2 C24_2 1_555 1_555
H20_3 C29_2 1_555 1_555
C30_2 C27_2 1_555 1_555
N2_2 C14_4 1_555 1_555
O3_3 S1_3 1_555 1_555
O4_3 S1_3 1_555 1_555
O8_3 C30_2 1_555 1_555
O9_3 C30_2 1_555 1_555
S1_3 C21_3 1_555 1_555
Co3 N2_2 1_555 1_555
C15_4 C16_4 1_555 1_555
C15_4 N2_2 1_555 1_555
C22_3 C23_3 1_555 1_555
C24_2 S1_3 1_555 1_555
C28_2 C29_2 1_555 1_555
C1_4 H1_4 1_555 1_555
C2_4 C1_4 1_555 1_555
H2_4 C2_4 1_555 1_555
C3_4 C2_4 1_555 1_555
C4_4 C3_4 1_555 1_555
H3_4 C4_4 1_555 1_555
C5_4 C4_4 1_555 1_555
H4_4 C5_4 1_555 1_555
C6_4 C3_4 1_555 1_555
C7_4 C6_4 1_555 1_555
H5_4 C7_4 1_555 1_555
C17_4 C18_4 1_555 1_555
C18_4 C19_4 1_555 1_555
C19_4 H13_3 1_555 1_555
C20_4 C19_4 1_555 1_555
H14_3 C20_4 1_555 1_555
C21_4 C20_4 1_555 1_555
C22_4 C21_4 1_555 1_555
H15_4 C22_4 1_555 1_555
C23_4 C18_4 1_555 1_555
H16_4 C23_4 1_555 1_555
C24_3 C25_3 1_555 1_555
C25_3 H17_3 1_555 1_555
C26_3 C25_3 1_555 1_555
H18_3 C26_3 1_555 1_555
C27_3 C26_3 1_555 1_555
C28_3 C27_3 1_555 1_555
H19_3 C28_3 1_555 1_555
C29_3 C24_3 1_555 1_555
H20_4 C29_3 1_555 1_555
C30_3 C27_3 1_555 1_555
Co3 N1_4 1_555 1_555
N1_4 C1_4 1_555 1_555
O7 C17_4 1_555 1_555
O2_4 C17_4 1_555 1_555
O3_4 S1_4 1_555 1_555
O4_4 S1_4 1_555 1_555
O8_2 C30_3 1_555 1_555
O9_2 C30_3 1_555 1_555
S1_4 C21_4 1_555 1_555
C5_4 N1_4 1_555 1_555
C22_4 C23_4 1_555 1_555
C24_3 S1_4 1_555 1_555
C28_3 C29_3 1_555 1_555
Co3 O2_4 1_555 1_555
C24_4 C25_4 1_555 1_555
C25_4 H17_4 1_555 1_555
C26_4 C25_4 1_555 1_555
H18_4 C26_4 1_555 1_555
C27_4 C26_4 1_555 1_555
C28_4 C27_4 1_555 1_555
H19_4 C28_4 1_555 1_555
C29_4 C24_4 1_555 1_555
C30_4 C27_4 1_555 1_555
O8 C30_4 1_555 1_555
O9 C30_4 1_555 1_555
C28_4 C29_4 1_555 1_555
H5_5 C7_5 1_555 1_555
C8_5 C7_5 1_555 1_555
H6_5 C8_5 1_555 1_555
C9_5 C8_5 1_555 1_555
C10_5 C9_5 1_555 1_555
C12_5 C9_5 1_555 1_555
C13_5 C12_5 1_555 1_555
H9_5 C13_5 1_555 1_555
C14_5 C13_5 1_555 1_555
H10_5 C14_5 1_555 1_555
C15_5 H11_5 1_555 1_555
C16_5 C12_5 1_555 1_555
H12_5 C16_5 1_555 1_555
H14_5 C20_5 1_555 1_555
C21_5 C20_5 1_555 1_555
C22_5 C21_5 1_555 1_555
H15_5 C22_5 1_555 1_555
H16_5 C23_5 1_555 1_555
C24_5 C25_5 1_555 1_555
C25_5 H17_5 1_555 1_555
C26_5 C25_5 1_555 1_555
H18_5 C26_5 1_555 1_555
C27_5 C26_5 1_555 1_555
C28_5 C27_5 1_555 1_555
H19_5 C28_5 1_555 1_555
C29_5 C24_5 1_555 1_555
H20_5 C29_5 1_555 1_555
C30_5 C27_5 1_555 1_555
N2_3 C14_5 1_555 1_555
O3_5 S1_5 1_555 1_555
O4_5 S1_5 1_555 1_555
O5_2 C30_5 1_555 1_555
O6_2 C30_5 1_555 1_555
S1_5 C21_5 1_555 1_555
Co2_2 N2_3 1_555 1_555
Co4 O5_2 1_555 1_555
C15_5 C16_5 1_555 1_555
C15_5 N2_3 1_555 1_555
C22_5 C23_5 1_555 1_555
C24_5 S1_5 1_555 1_555
C28_5 C29_5 1_555 1_555
O6_2 Co4 1_555 1_555
Co4 O1_2 1_555 1_555
C1_5 H1_5 1_555 1_555
C2_5 C1_5 1_555 1_555
H2_6 C2_5 1_555 1_555
C3_5 C2_5 1_555 1_555
C4_5 C3_5 1_555 1_555
H3_5 C4_5 1_555 1_555
C5_5 C4_5 1_555 1_555
H4_5 C5_5 1_555 1_555
C6_5 C3_5 1_555 1_555
C7_6 C6_5 1_555 1_555
H5_6 C7_6 1_555 1_555
C17_5 C18_5 1_555 1_555
C18_5 C19_5 1_555 1_555
C19_5 H13_6 1_555 1_555
C20_6 C19_5 1_555 1_555
H14_6 C20_6 1_555 1_555
C21_6 C20_6 1_555 1_555
C22_6 C21_6 1_555 1_555
H15_6 C22_6 1_555 1_555
C23_6 C18_5 1_555 1_555
H16_6 C23_6 1_555 1_555
C24_6 C25_6 1_555 1_555
C25_6 H17_6 1_555 1_555
C26_6 C25_6 1_555 1_555
H18_6 C26_6 1_555 1_555
C27_6 C26_6 1_555 1_555
C28_6 C27_6 1_555 1_555
H19_6 C28_6 1_555 1_555
C29_6 C24_6 1_555 1_555
H20_6 C29_6 1_555 1_555
C30_6 C27_6 1_555 1_555
Co2_2 N1_5 1_555 1_555
N1_5 C1_5 1_555 1_555
O1_3 C17_5 1_555 1_555
O2_5 C17_5 1_555 1_555
O3_6 S1_6 1_555 1_555
O4_6 S1_6 1_555 1_555
O5_3 C30_6 1_555 1_555
O6_3 C30_6 1_555 1_555
S1_6 C21_6 1_555 1_555
Co3_2 O1_3 1_555 1_555
Co4_2 O5_3 1_555 1_555
O7_4 Co2_2 1_555 1_555
O8_4 Co2_2 1_555 1_555
O9_4 Co2_2 1_555 1_555
C5_5 N1_5 1_555 1_555
C22_6 C23_6 1_555 1_555
C24_6 S1_6 1_555 1_555
C28_6 C29_6 1_555 1_555
Co2_2 O2_5 1_555 1_555
O6_3 Co4_2 1_555 1_555
C24_7 C25_7 1_555 1_555
C25_7 H17_7 1_555 1_555
C26_7 C25_7 1_555 1_555
H18_7 C26_7 1_555 1_555
C27_7 C26_7 1_555 1_555
C28_7 C27_7 1_555 1_555
H19_7 C28_7 1_555 1_555
C29_7 C24_7 1_555 1_555
C30_7 C27_7 1_555 1_555
O5_4 C30_7 1_555 1_555
O6_4 C30_7 1_555 1_555
Co4_2 O1_4 1_555 1_555
Co3_2 O5_4 1_555 1_555
C28_7 C29_7 1_555 1_555
O6_4 Co3_2 1_555 1_555
C1_6 H1_6 1_555 1_555
C2_6 C1_6 1_555 1_555
C3_6 C2_6 1_555 1_555
C4_6 C3_6 1_555 1_555
H3_6 C4_6 1_555 1_555
C5_6 C4_6 1_555 1_555
H4_6 C5_6 1_555 1_555
C6_6 C3_6 1_555 1_555
C11_5 C6_6 1_555 1_555
H8_5 C11_5 1_555 1_555
C17_6 C18_6 1_555 1_555
C18_6 C19_6 1_555 1_555
C19_6 H13_8 1_555 1_555
Co3_2 N1_6 1_555 1_555
N1_6 C1_6 1_555 1_555
O7_4 C17_6 1_555 1_555
O2_6 C17_6 1_555 1_555
N3_3 Co3_2 1_555 1_555
C5_6 N1_6 1_555 1_555
Co3_2 O2_6 1_555 1_555
C1_7 H1_7 1_555 1_555
C2_7 C1_7 1_555 1_555
C3_7 C2_7 1_555 1_555
C4_7 C3_7 1_555 1_555
H3_7 C4_7 1_555 1_555
C5_7 C4_7 1_555 1_555
H4_7 C5_7 1_555 1_555
C6_7 C3_7 1_555 1_555
C11_6 C6_7 1_555 1_555
H8_6 C11_6 1_555 1_555
C17_7 C18_7 1_555 1_555
C18_7 C19_7 1_555 1_555
Co4_2 N1_7 1_555 1_555
N1_7 C1_7 1_555 1_555
O2_7 C17_7 1_555 1_555
N3_4 Co4_2 1_555 1_555
C5_7 N1_7 1_555 1_555
Co4_2 O2_7 1_555 1_555
C24_8 C25_8 1_555 1_555
C25_8 H17_8 1_555 1_555
C26_8 C25_8 1_555 1_555
H18_8 C26_8 1_555 1_555
C27_8 C26_8 1_555 1_555
C28_8 C27_8 1_555 1_555
H19_8 C28_8 1_555 1_555
C29_8 C24_8 1_555 1_555
C30_8 C27_8 1_555 1_555
O8_4 C30_8 1_555 1_555
O9_4 C30_8 1_555 1_555
C28_8 C29_8 1_555 1_555
H5_7 C7_7 1_555 1_555
C8_6 C7_7 1_555 1_555
H6_6 C8_6 1_555 1_555
C9_6 C8_6 1_555 1_555
C10_6 C9_6 1_555 1_555
C12_6 C9_6 1_555 1_555
C13_6 C12_6 1_555 1_555
H9_6 C13_6 1_555 1_555
C14_6 C13_6 1_555 1_555
H10_6 C14_6 1_555 1_555
C15_6 H11_6 1_555 1_555
C16_6 C12_6 1_555 1_555
H12_6 C16_6 1_555 1_555
C21_7 C20_7 1_555 1_555
C22_7 C21_7 1_555 1_555
H15_7 C22_7 1_555 1_555
H16_7 C23_7 1_555 1_555
N2_4 C14_6 1_555 1_555
O3_7 S1_7 1_555 1_555
O4_7 S1_7 1_555 1_555
S1_7 C21_7 1_555 1_555
Co4 N2_4 1_555 1_555
C15_6 C16_6 1_555 1_555
C15_6 N2_4 1_555 1_555
C22_7 C23_7 1_555 1_555
H6_7 C8_7 1_555 1_555
C9_7 C8_7 1_555 1_555
C10_7 C9_7 1_555 1_555
H7_7 C10_7 1_555 1_555
H8_7 C11_7 1_555 1_555
C12_7 C9_7 1_555 1_555
C13_7 C12_7 1_555 1_555
H9_7 C13_7 1_555 1_555
C14_7 C13_7 1_555 1_555
H10_7 C14_7 1_555 1_555
C15_7 H11_7 1_555 1_555
C16_7 C12_7 1_555 1_555
H12_7 C16_7 1_555 1_555
N3_3 C14_7 1_555 1_555
C10_7 C11_7 1_555 1_555
C15_7 C16_7 1_555 1_555
C15_7 N3_3 1_555 1_555
H6_8 C8_8 1_555 1_555
C9_8 C8_8 1_555 1_555
C10_8 C9_8 1_555 1_555
H7_8 C10_8 1_555 1_555
H8_8 C11_8 1_555 1_555
C12_8 C9_8 1_555 1_555
C13_8 C12_8 1_555 1_555
H9_8 C13_8 1_555 1_555
C14_8 C13_8 1_555 1_555
H10_8 C14_8 1_555 1_555
C15_8 H11_8 1_555 1_555
C16_8 C12_8 1_555 1_555
H12_8 C16_8 1_555 1_555
N3_4 C14_8 1_555 1_555
C10_8 C11_8 1_555 1_555
C15_8 C16_8 1_555 1_555
C15_8 N3_4 1_555 1_555
C1_8 H1_8 1_555 1_555
C2_8 C1_8 1_555 1_555
H2_8 C2_8 1_555 1_555
C3_8 C2_8 1_555 1_555
C4_8 C3_8 1_555 1_555
H3_8 C4_8 1_555 1_555
C5_8 C4_8 1_555 1_555
H4_8 C5_8 1_555 1_555
C6_8 C3_8 1_555 1_555
C7_8 C6_8 1_555 1_555
H5_8 C7_8 1_555 1_555
C17_8 C18_8 1_555 1_555
C18_8 C19_8 1_555 1_555
C20_8 C19_8 1_555 1_555
C21_8 C20_8 1_555 1_555
C22_8 C21_8 1_555 1_555
H15_8 C22_8 1_555 1_555
C23_8 C18_8 1_555 1_555
H16_8 C23_8 1_555 1_555
Co4 N1_8 1_555 1_555
N1_8 C1_8 1_555 1_555
O2_8 C17_8 1_555 1_555
O3_8 S1_8 1_555 1_555
O4_8 S1_8 1_555 1_555
S1_8 C21_8 1_555 1_555
C5_8 N1_8 1_555 1_555
C22_8 C23_8 1_555 1_555
Co4 O2_8 1_555 1_555

#END
