
###############################################################################
#
# This file contains modified crystal structure data generated from the
# MOF subset of the Cambridge Structural Database (CSD) v543 
# hosted by the Cambridge Crystallographic Data Centre (CCDC).
#
# This work is licensed under the Creative Commons
# Attribution-NonCommercial-ShareAlike 4.0 International License.
# To view a copy of this license, visit
# http://creativecommons.org/licenses/by-nc-sa/4.0/
# or send a letter to
# Creative Commons, PO Box 1866, Mountain View, CA 94042, USA.
#
# CIF created using the CSD Python API on 29 September 2022
# The structure has been converted into the P1 space group
# The structure has a 3D framework
# The original CSD entry YASPEP is in the monoclinic crystal system
# The framework has been calculated to contain at least 10.0% void space
# The void calculation uses a probe of radius 1.32A, grid spacing 0.4
#
###############################################################################

data_YASPEP
_chemical_formula_moiety         '(C88 H80 N8 O16 Zn4)n'
_symmetry_cell_setting           triclinic
_symmetry_space_group_name_H-M   'P 1'
_symmetry_Int_Tables_number      1
_space_group_name_Hall           'P 1'
loop_
_symmetry_equiv_pos_site_id
_symmetry_equiv_pos_as_xyz
1 x,y,z
_cell_length_a                   6.277(2)
_cell_length_b                   17.702(7)
_cell_length_c                   20.486(8)
_cell_angle_alpha                90
_cell_angle_beta                 97.565(5)
_cell_angle_gamma                90
_cell_volume                     2256.5
loop_
_atom_site_label
_atom_site_type_symbol
_atom_site_fract_x
_atom_site_fract_y
_atom_site_fract_z
Zn5 Zn 0.31040(10) 0.01275(3) 0.72362(3)
Zn4 Zn 0.18960(10) 0.51275(3) 0.77638(3)
C37 C 0.0430(9) 0.5580(3) 0.6383(3)
H32 H 0.1789 0.5797 0.6418
O5 O 0.4122(8) 0.5837(2) 0.7552(2)
O6 O 0.3013(12) 0.6429(3) 0.8343(4)
O7 O 0.1886(7) 0.9135(2) 0.7072(2)
O9 O 0.3114(7) 0.4135(2) 0.7928(2)
O10 O 0.1569(8) 0.8806(3) 0.8093(2)
C23 C 0.4226(9) 0.7289(3) 0.6926(3)
C24 C 0.2200(9) 0.7609(3) 0.6736(3)
C25 C 0.1522(12) 0.7703(3) 0.6070(3)
H21 H 0.0174 0.7910 0.5934
C26 C 0.2816(15) 0.7496(4) 0.5603(3)
H22 H 0.2335 0.7569 0.5159
C27 C 0.4779(14) 0.7187(4) 0.5788(3)
H23 H 0.5641 0.7047 0.5472
C28 C 0.5484(11) 0.7083(3) 0.6447(3)
H24 H 0.6830 0.6870 0.6573
C29 C 0.5020(9) 0.7132(3) 0.7641(3)
H25 H 0.6569 0.7070 0.7697
H26 H 0.4687 0.7559 0.7907
C30 C 0.3984(9) 0.6424(3) 0.7874(3)
C31 C 0.0815(9) 0.7889(3) 0.7237(3)
H27 H 0.0909 0.7535 0.7600
C32 C 0.1466(8) 0.8660(3) 0.7499(3)
H35 H 0.0175 0.3969 0.8629
O5_2 O 0.0878(8) 0.0837(2) 0.7448(2)
O6_2 O 0.1987(12) 0.1429(3) 0.6657(4)
O10_2 O 0.3431(8) 0.3806(3) 0.6907(2)
N4 N 0.5189(7) 0.0249(2) 0.8083(2)
N5 N 0.5090(8) 0.0069(3) 0.6514(2)
C23_2 C 0.0774(9) 0.2289(3) 0.8074(3)
C24_2 C 0.2800(9) 0.2609(3) 0.8264(3)
C25_2 C 0.3478(12) 0.2703(3) 0.8930(3)
H21_2 H 0.4826 0.2910 0.9066
C26_2 C 0.2184(15) 0.2496(4) 0.9397(3)
H22_2 H 0.2665 0.2569 0.9841
C27_2 C 0.0221(14) 0.2187(4) 0.9212(3)
H26_2 H 0.0313 0.2559 0.7093
C30_2 C 0.1016(9) 0.1424(3) 0.7126(3)
C31_2 C 0.4185(9) 0.2889(3) 0.7763(3)
H27_2 H 0.4091 0.2535 0.7400
H28 H 0.5671 0.2906 0.7966
C32_2 C 0.3534(8) 0.3660(3) 0.7501(3)
H33 H 0.8469 0.0399 0.0265
C42 C 0.7320(11) 0.0649(5) 0.5811(3)
H37 H 0.7996 0.1084 0.5687
C43 C 0.6037(10) 0.0690(4) 0.6302(3)
H38 H 0.5815 0.1155 0.6493
H39 H 0.8391 0.0289 0.4606
C35 C 0.7905(10) 0.0301(3) 0.9277(3)
C36 C 0.5856(9) 0.0610(3) 0.9211(3)
H31 H 0.5355 0.0838 0.9570
C37_2 C 0.4570(9) 0.0580(3) 0.8617(3)
H32_2 H 0.3211 0.0797 0.8582
C38 C 0.9352(14) 0.0318(4) 0.9916(3)
H14 H 0.9712 0.9247 0.0088
C39 C 0.5444(10) 0.9404(4) 0.6225(3)
H35_2 H 0.4825 0.8969 0.6371
C40 C 0.6672(11) 0.9346(5) 0.5728(4)
H36 H 0.6870 0.8877 0.5541
C41 C 0.7628(12) 0.9977(5) 0.5498(4)
C44 C 0.8992(15) 0.9936(8) 0.4943(5)
H40 H 0.8810 0.9434 0.4753
C33 C 0.7174(10) 0.9967(3) 0.8138(3)
H29 H 0.7645 0.9753 0.7768
C34 C 0.8544(10) 0.9977(4) 0.8710(3)
H30 H 0.9910 0.9769 0.8725
N1 N 0.0189(7) 0.4751(2) 0.3083(2)
N2 N 0.0090(8) 0.4931(3) 0.1514(2)
H8 H 0.0671 0.2094 0.2966
C11 C 0.2174(10) 0.5033(3) 0.3138(3)
H9 H 0.2645 0.5247 0.2768
C12 C 0.3544(10) 0.5023(4) 0.3710(3)
H10 H 0.4910 0.5231 0.3725
C13 C 0.2905(10) 0.4699(3) 0.4277(3)
C14 C 0.0856(9) 0.4390(3) 0.4211(3)
H11 H 0.0355 0.4162 0.4570
C16 C 0.4352(14) 0.4682(4) 0.4916(3)
H13 H 0.3469 0.4601 0.5265
H14_2 H 0.5288 0.4247 0.4912
C17 C 0.0444(10) 0.5596(4) 0.1225(3)
C18 C 0.1672(11) 0.5654(5) 0.0728(4)
H16 H 0.1870 0.6123 0.0541
C19 C 0.2628(12) 0.5023(5) 0.0498(4)
C20 C 0.2320(11) 0.4351(5) 0.0811(3)
H17 H 0.2996 0.3916 0.0687
C21 C 0.1037(10) 0.4310(4) 0.1302(3)
H18 H 0.0815 0.3845 0.1493
N3 N 0.9811(7) 0.5249(2) 0.6917(2)
C33_2 C 0.7826(10) 0.4967(3) 0.6862(3)
H29_2 H 0.7355 0.4753 0.7232
C34_2 C 0.6456(10) 0.4977(4) 0.6290(3)
H30_2 H 0.5090 0.4769 0.6275
C35_2 C 0.7095(10) 0.5301(3) 0.5723(3)
C36_2 C 0.9144(9) 0.5610(3) 0.5789(3)
H31_2 H 0.9645 0.5838 0.5430
C38_2 C 0.5648(14) 0.5318(4) 0.5084(3)
H33_2 H 0.6531 0.5399 0.4735
H34 H 0.4712 0.5753 0.5088
C44_2 C 0.6008(15) 0.4936(8) 0.0057(5)
H39_2 H 0.6609 0.5289 0.0394
H40_2 H 0.6190 0.4434 0.0247
C22 C 0.3992(15) 0.5064(8) 0.9943(5)
H19 H 0.3391 0.4711 0.9606
H20 H 0.3810 0.5566 0.9753
N5_2 N 0.9910(8) 0.5069(3) 0.8486(2)
H28_2 H 0.9329 0.7906 0.7034
C39_2 C 0.9556(10) 0.4404(4) 0.8775(3)
C40_2 C 0.8328(11) 0.4346(5) 0.9272(4)
H36_2 H 0.8130 0.3877 0.9459
C41_2 C 0.7372(12) 0.4977(5) 0.9502(4)
C42_2 C 0.7680(11) 0.5649(5) 0.9189(3)
H37_2 H 0.7004 0.6084 0.9313
C43_2 C 0.8963(10) 0.5690(4) 0.8698(3)
H38_2 H 0.9185 0.6155 0.8507
Zn1 Zn 0.81040(10) 0.48725(3) 0.22362(3)
O1 O 0.5878(8) 0.4163(2) 0.2448(2)
O2 O 0.6987(12) 0.3571(3) 0.1657(4)
O3 O 0.8114(7) 0.0865(2) 0.2928(2)
O4 O 0.8431(8) 0.1194(3) 0.1907(2)
C1 C 0.5774(9) 0.2711(3) 0.3074(3)
C2 C 0.7800(9) 0.2391(3) 0.3264(3)
C3 C 0.8478(12) 0.2297(3) 0.3930(3)
H1 H 0.9826 0.2090 0.4066
C4 C 0.7184(15) 0.2504(4) 0.4397(3)
H2 H 0.7665 0.2431 0.4841
C5 C 0.5221(14) 0.2813(4) 0.4212(3)
H3 H 0.4359 0.2953 0.4528
C6 C 0.4516(11) 0.2917(3) 0.3553(3)
H4 H 0.3170 0.3130 0.3427
C7 C 0.4980(9) 0.2868(3) 0.2359(3)
H5 H 0.3431 0.2930 0.2303
H6 H 0.5313 0.2441 0.2093
C8 C 0.6016(9) 0.3576(3) 0.2126(3)
C9 C 0.9185(9) 0.2111(3) 0.2763(3)
H7 H 0.9091 0.2465 0.2400
C10 C 0.8534(8) 0.1340(3) 0.2501(3)
C15 C 0.9570(9) 0.4420(3) 0.3617(3)
H12 H 0.8211 0.4203 0.3582
H15 H 0.9825 0.6031 0.1371
O8 O 0.6886(7) 0.5865(2) 0.2072(2)
Zn3 Zn 0.68960(10) 0.98725(3) 0.27638(3)
C11_2 C 0.2826(10) 0.0033(3) 0.1862(3)
H9_2 H 0.2355 0.0247 0.2232
C12_2 C 0.1456(10) 0.0023(4) 0.1290(3)
H10_2 H 0.0090 0.0231 0.1275
C17_2 C 0.4556(10) 0.0596(4) 0.3775(3)
H15_2 H 0.5175 0.1031 0.3629
C18_2 C 0.3328(11) 0.0654(5) 0.4272(4)
H16_2 H 0.3130 0.1123 0.4459
C19_2 C 0.2372(12) 0.0023(5) 0.4502(4)
C22_2 C 0.1008(15) 0.0064(8) 0.5057(5)
H20_2 H 0.1190 0.0566 0.5247
H34_2 H 0.0288 0.0753 0.9912
O1_2 O 0.9122(8) 0.9163(2) 0.2552(2)
O2_2 O 0.8013(12) 0.8571(3) 0.3343(4)
O4_2 O 0.6569(8) 0.6194(3) 0.3093(2)
N1_2 N 0.4811(7) 0.9751(2) 0.1917(2)
N2_2 N 0.4910(8) 0.9931(3) 0.3486(2)
C1_2 C 0.9226(9) 0.7711(3) 0.1926(3)
C2_2 C 0.7200(9) 0.7391(3) 0.1736(3)
C3_2 C 0.6522(12) 0.7297(3) 0.1070(3)
H1_2 H 0.5174 0.7090 0.0934
C4_2 C 0.7816(15) 0.7504(4) 0.0603(3)
H2_2 H 0.7335 0.7431 0.0159
C5_2 C 0.9779(14) 0.7813(4) 0.0788(3)
H6_2 H 0.9687 0.7441 0.2907
C8_2 C 0.8984(9) 0.8576(3) 0.2874(3)
C9_2 C 0.5815(9) 0.7111(3) 0.2237(3)
H7_2 H 0.5909 0.7465 0.2600
H8_2 H 0.4329 0.7094 0.2034
C10_2 C 0.6466(8) 0.6340(3) 0.2499(3)
C13_2 C 0.2095(10) 0.9699(3) 0.0723(3)
C14_2 C 0.4144(9) 0.9390(3) 0.0789(3)
H11_2 H 0.4645 0.9162 0.0430
C15_2 C 0.5430(9) 0.9420(3) 0.1383(3)
H12_2 H 0.6789 0.9203 0.1418
C16_2 C 0.0648(14) 0.9682(4) 0.0084(3)
C20_2 C 0.2680(11) 0.9351(5) 0.4189(3)
H17_2 H 0.2004 0.8916 0.4313
C21_2 C 0.3963(10) 0.9310(4) 0.3698(3)
H18_2 H 0.4185 0.8845 0.3507
H19_2 H 0.1609 0.9711 0.5394
H13_2 H 0.1531 0.9601 0.9735
H3_2 H 0.0641 0.7953 0.0472
C6_2 C 0.0484(11) 0.7917(3) 0.1447(3)
H4_2 H 0.1830 0.8130 0.1573
C7_2 C 0.0020(9) 0.7868(3) 0.2641(3)
H5_2 H 0.1569 0.7930 0.2697
H23_2 H 0.9359 0.2047 0.9528
C28_2 C 0.9516(11) 0.2083(3) 0.8553(3)
H24_2 H 0.8170 0.1870 0.8427
C29_2 C 0.9980(9) 0.2132(3) 0.7359(3)
H25_2 H 0.8431 0.2070 0.7303
loop_
_geom_bond_atom_site_label_1
_geom_bond_atom_site_label_2
_geom_bond_site_symmetry_1
_geom_bond_site_symmetry_2
H32 C37 1_555 1_555
Zn4 O5 1_555 1_555
O5 C30 1_555 1_555
O6 C30 1_555 1_555
O7 C32 1_555 1_555
O9 Zn4 1_555 1_555
O10 C32 1_555 1_555
C23 C24 1_555 1_555
C24 C25 1_555 1_555
C25 H21 1_555 1_555
C26 C25 1_555 1_555
H22 C26 1_555 1_555
C27 C26 1_555 1_555
H23 C27 1_555 1_555
C28 C23 1_555 1_555
H24 C28 1_555 1_555
C29 C23 1_555 1_555
H25 C29 1_555 1_555
H26 C29 1_555 1_555
C30 C29 1_555 1_555
C31 C24 1_555 1_555
H27 C31 1_555 1_555
C32 C31 1_555 1_555
C27 C28 1_555 1_555
Zn5 O5_2 1_555 1_555
O5_2 C30_2 1_555 1_555
O6_2 C30_2 1_555 1_555
O9 C32_2 1_555 1_555
O10_2 C32_2 1_555 1_555
N4 Zn5 1_555 1_555
N5 Zn5 1_555 1_555
C23_2 C24_2 1_555 1_555
C24_2 C25_2 1_555 1_555
C25_2 H21_2 1_555 1_555
C26_2 C25_2 1_555 1_555
H22_2 C26_2 1_555 1_555
C27_2 C26_2 1_555 1_555
C31_2 C24_2 1_555 1_555
H27_2 C31_2 1_555 1_555
H28 C31_2 1_555 1_555
C32_2 C31_2 1_555 1_555
H37 C42 1_555 1_555
C43 N5 1_555 1_555
H38 C43 1_555 1_555
C42 C43 1_555 1_555
C36 C35 1_555 1_555
H31 C36 1_555 1_555
C37_2 N4 1_555 1_555
H32_2 C37_2 1_555 1_555
C35 C38 1_555 1_555
C36 C37_2 1_555 1_555
H35_2 C39 1_555 1_555
C40 C39 1_555 1_555
H36 C40 1_555 1_555
C41 C40 1_555 1_555
H40 C44 1_555 1_555
C41 C44 1_555 1_555
C33 H29 1_555 1_555
C34 C33 1_555 1_555
H30 C34 1_555 1_555
C11 N1 1_555 1_555
H9 C11 1_555 1_555
C12 C11 1_555 1_555
H10 C12 1_555 1_555
C13 C12 1_555 1_555
C14 C13 1_555 1_555
H11 C14 1_555 1_555
C16 C13 1_555 1_555
H13 C16 1_555 1_555
H14_2 C16 1_555 1_555
C17 N2 1_555 1_555
C18 C17 1_555 1_555
H16 C18 1_555 1_555
C19 C18 1_555 1_555
C20 C19 1_555 1_555
H17 C20 1_555 1_555
C21 N2 1_555 1_555
H18 C21 1_555 1_555
N3 C33_2 1_555 1_555
C33_2 H29_2 1_555 1_555
C34_2 C33_2 1_555 1_555
H30_2 C34_2 1_555 1_555
C35_2 C34_2 1_555 1_555
C36_2 C35_2 1_555 1_555
H31_2 C36_2 1_555 1_555
C38_2 C16 1_555 1_555
H33_2 C38_2 1_555 1_555
H34 C38_2 1_555 1_555
H39_2 C44_2 1_555 1_555
H40_2 C44_2 1_555 1_555
C20 C21 1_555 1_555
C35_2 C38_2 1_555 1_555
H19 C22 1_555 1_555
H20 C22 1_555 1_555
C39_2 N5_2 1_555 1_555
C40_2 C39_2 1_555 1_555
H36_2 C40_2 1_555 1_555
C41_2 C40_2 1_555 1_555
C42_2 C41_2 1_555 1_555
H37_2 C42_2 1_555 1_555
C43_2 N5_2 1_555 1_555
H38_2 C43_2 1_555 1_555
C42_2 C43_2 1_555 1_555
Zn1 O1 1_555 1_555
O1 C8 1_555 1_555
O2 C8 1_555 1_555
O3 C10 1_555 1_555
O4 C10 1_555 1_555
C1 C2 1_555 1_555
C2 C3 1_555 1_555
C3 H1 1_555 1_555
C4 C3 1_555 1_555
H2 C4 1_555 1_555
C5 C4 1_555 1_555
H3 C5 1_555 1_555
C6 C1 1_555 1_555
H4 C6 1_555 1_555
C7 C1 1_555 1_555
H5 C7 1_555 1_555
H6 C7 1_555 1_555
C8 C7 1_555 1_555
C9 C2 1_555 1_555
H7 C9 1_555 1_555
C10 C9 1_555 1_555
H12 C15 1_555 1_555
O8 Zn1 1_555 1_555
C5 C6 1_555 1_555
H9_2 C11_2 1_555 1_555
C12_2 C11_2 1_555 1_555
H10_2 C12_2 1_555 1_555
H15_2 C17_2 1_555 1_555
C18_2 C17_2 1_555 1_555
H16_2 C18_2 1_555 1_555
C19_2 C18_2 1_555 1_555
C22_2 C19_2 1_555 1_555
H20_2 C22_2 1_555 1_555
Zn3 O1_2 1_555 1_555
O1_2 C8_2 1_555 1_555
O2_2 C8_2 1_555 1_555
O8 C10_2 1_555 1_555
O4_2 C10_2 1_555 1_555
N1_2 Zn3 1_555 1_555
N2_2 Zn3 1_555 1_555
C1_2 C2_2 1_555 1_555
C2_2 C3_2 1_555 1_555
C3_2 H1_2 1_555 1_555
C4_2 C3_2 1_555 1_555
H2_2 C4_2 1_555 1_555
C5_2 C4_2 1_555 1_555
C9_2 C2_2 1_555 1_555
H7_2 C9_2 1_555 1_555
H8_2 C9_2 1_555 1_555
C10_2 C9_2 1_555 1_555
C14_2 C13_2 1_555 1_555
H11_2 C14_2 1_555 1_555
C15_2 N1_2 1_555 1_555
H12_2 C15_2 1_555 1_555
C16_2 C13_2 1_555 1_555
H17_2 C20_2 1_555 1_555
C21_2 N2_2 1_555 1_555
H18_2 C21_2 1_555 1_555
C14_2 C15_2 1_555 1_555
C20_2 C21_2 1_555 1_555
H4_2 C6_2 1_555 1_555
H5_2 C7_2 1_555 1_555
H24_2 C28_2 1_555 1_555
H25_2 C29_2 1_555 1_555

#END
