
###############################################################################
#
# This file contains modified crystal structure data generated from the
# MOF subset of the Cambridge Structural Database (CSD) v543 
# hosted by the Cambridge Crystallographic Data Centre (CCDC).
#
# This work is licensed under the Creative Commons
# Attribution-NonCommercial-ShareAlike 4.0 International License.
# To view a copy of this license, visit
# http://creativecommons.org/licenses/by-nc-sa/4.0/
# or send a letter to
# Creative Commons, PO Box 1866, Mountain View, CA 94042, USA.
#
# CIF created using the CSD Python API on 29 September 2022
# The structure has been converted into the P1 space group
# The structure has a 3D framework
# The original CSD entry YASTIZ is in the tetragonal crystal system
# The original CSD entry YASTIZ is in a Sohncke space group
# The framework has been calculated to contain at least 10.0% void space
# The void calculation uses a probe of radius 1.32A, grid spacing 0.4
#
###############################################################################

data_YASTIZ
_chemical_formula_moiety         '(C184 H184 Co8 N16 O45)n'
_symmetry_cell_setting           triclinic
_symmetry_space_group_name_H-M   'P 1'
_symmetry_Int_Tables_number      1
_space_group_name_Hall           'P 1'
loop_
_symmetry_equiv_pos_site_id
_symmetry_equiv_pos_as_xyz
1 x,y,z
_cell_length_a                   15.1406(6)
_cell_length_b                   15.1406(6)
_cell_length_c                   22.3217(17)
_cell_angle_alpha                90
_cell_angle_beta                 90
_cell_angle_gamma                90
_cell_volume                     5116.98
loop_
_atom_site_label
_atom_site_type_symbol
_atom_site_fract_x
_atom_site_fract_y
_atom_site_fract_z
H10 H 0.039961 0.898349 0.156810
H17 H 0.014017 0.752896 0.135049
Co4 Co 0.06038(2) 0.92415(2) 0.66867(2)
Co6 Co 0.07585(2) 0.93962(2) 0.83133(2)
H34 H 0.898349 0.039961 0.843190
H41 H 0.752896 0.014017 0.864951
Co3 Co 0.93962(2) 0.07585(2) 0.16867(2)
Co5 Co 0.92415(2) 0.06038(2) 0.33133(2)
Co1 Co 0.57585(2) 0.56038(2) 0.41867(2)
O1 O 0.51491(11) 0.51491(11) 0.500000
O2 O 0.69246(12) 0.56345(14) 0.55692(8)
O3 O 0.87512(12) 0.53695(12) 0.45778(9)
O4 O 0.91463(12) 0.92761(11) 0.35963(8)
O5 O 0.69961(12) 0.54760(14) 0.45742(8)
O6 O 0.96467(18) 0.85155(13) 0.28170(10)
N1 N 0.63529(14) 0.60076(14) 0.33739(10)
N2 N 0.92978(15) 0.94755(14) 0.12566(10)
C1 C 0.73157(15) 0.55038(16) 0.50859(11)
C2 C 0.88383(17) 0.61671(17) 0.42997(12)
C3 C 0.92935(18) 0.69042(16) 0.34020(12)
H1 H 0.949919 0.687681 0.300984
C4 C 0.91371(16) 0.77190(16) 0.36644(11)
C5 C 0.91478(18) 0.61370(17) 0.37150(13)
H2 H 0.925711 0.559459 0.353411
C6 C 0.83068(18) 0.53365(19) 0.51508(13)
H3 H 0.856524 0.577403 0.542279
C7 C 0.88132(18) 0.77413(17) 0.42428(12)
H4 H 0.869792 0.828423 0.442126
C8 C 0.93181(17) 0.85637(15) 0.33295(11)
C9 C 0.6472(2) 0.5844(2) 0.23117(13)
H5 H 0.631746 0.553120 0.196879
C10 C 0.8560(2) 0.9244(2) 0.09641(13)
H6 H 0.816502 0.968291 0.084926
C11 C 0.68727(19) 0.6716(2) 0.33311(13)
H7 H 0.701045 0.702227 0.367997
C12 C 0.8365(2) 0.8375(2) 0.08273(14)
H8 H 0.784652 0.823983 0.062324
C13 C 0.6166(2) 0.5580(2) 0.28650(12)
H9 H 0.581024 0.508030 0.288553
C14 C 0.8938(3) 0.7704(2) 0.09926(15)
C15 C 0.9870(2) 0.8832(2) 0.13841(14)
C16 C 0.7215(2) 0.7018(2) 0.27999(14)
H11 H 0.757992 0.751186 0.279345
C17 C 0.86569(18) 0.69758(18) 0.45618(12)
H12 H 0.843194 0.700316 0.494909
C18 C 0.7011(2) 0.6577(2) 0.22718(14)
C19 C 0.8267(3) 0.6452(2) 0.15585(19)
H13 H 0.819345 0.581574 0.155654
H14 H 0.867186 0.659978 0.188029
C20 C 0.8679(3) 0.6743(2) 0.0955(2)
H15 H 0.919474 0.638549 0.086853
H16 H 0.825446 0.665903 0.063442
C21 C 0.9716(2) 0.7952(2) 0.12569(17)
C22 C 0.7389(3) 0.6878(3) 0.16806(16)
H18 H 0.698081 0.673065 0.136113
H19 H 0.745980 0.751509 0.168619
C23 C 0.8481(2) 0.4403(3) 0.5390(2)
H20 H 0.826985 0.397618 0.510603
H21 H 0.817742 0.432562 0.576416
H22 H 0.910339 0.432298 0.544991
H23 H 0.528(2) 0.4611(9) 0.5013(15)
H24 H 0.4611(9) 0.528(2) 0.4987(15)
Co2 Co 0.56038(2) 0.57585(2) 0.58133(2)
O7 O 0.56345(14) 0.69246(12) 0.44308(8)
O8 O 0.53695(12) 0.87512(12) 0.54222(9)
O9 O 0.92761(11) 0.91463(12) 0.64037(8)
O10 O 0.54760(14) 0.69961(12) 0.54258(8)
O11 O 0.85155(13) 0.96467(18) 0.71830(10)
N3 N 0.60076(14) 0.63529(14) 0.66261(10)
N4 N 0.94755(14) 0.92978(15) 0.87434(10)
C24 C 0.55038(16) 0.73157(15) 0.49141(11)
C25 C 0.61671(17) 0.88383(17) 0.57003(12)
C26 C 0.69042(16) 0.92935(18) 0.65980(12)
H25 H 0.687681 0.949919 0.699016
C27 C 0.77190(16) 0.91371(16) 0.63356(11)
C28 C 0.61370(17) 0.91478(18) 0.62850(13)
H26 H 0.559459 0.925711 0.646589
C29 C 0.53365(19) 0.83068(18) 0.48492(13)
H27 H 0.577403 0.856524 0.457721
C30 C 0.77413(17) 0.88132(18) 0.57572(12)
H28 H 0.828423 0.869792 0.557874
C31 C 0.85637(15) 0.93181(17) 0.66705(11)
C32 C 0.5844(2) 0.6472(2) 0.76883(13)
H29 H 0.553120 0.631746 0.803121
C33 C 0.9244(2) 0.8560(2) 0.90359(13)
H30 H 0.968291 0.816502 0.915074
C34 C 0.6716(2) 0.68727(19) 0.66689(13)
H31 H 0.702227 0.701045 0.632003
C35 C 0.8375(2) 0.8365(2) 0.91727(14)
H32 H 0.823983 0.784652 0.937676
C36 C 0.5580(2) 0.6166(2) 0.71350(12)
H33 H 0.508030 0.581024 0.711447
C37 C 0.7704(2) 0.8938(3) 0.90074(15)
C38 C 0.8832(2) 0.9870(2) 0.86159(14)
C39 C 0.7018(2) 0.7215(2) 0.72001(14)
H35 H 0.751186 0.757992 0.720655
C40 C 0.69758(18) 0.86569(18) 0.54382(12)
H36 H 0.700316 0.843194 0.505091
C41 C 0.6577(2) 0.7011(2) 0.77282(14)
C42 C 0.6452(2) 0.8267(3) 0.84415(19)
H37 H 0.581574 0.819345 0.844346
H38 H 0.659978 0.867186 0.811971
C43 C 0.6743(2) 0.8679(3) 0.9045(2)
H39 H 0.638549 0.919474 0.913147
H40 H 0.665903 0.825446 0.936558
C44 C 0.7952(2) 0.9716(2) 0.87431(17)
C45 C 0.6878(3) 0.7389(3) 0.83194(16)
H42 H 0.673065 0.698081 0.863887
H43 H 0.751509 0.745980 0.831381
C46 C 0.4403(3) 0.8481(2) 0.4610(2)
H44 H 0.397618 0.826985 0.489397
H45 H 0.432562 0.817742 0.423584
H46 H 0.432298 0.910339 0.455009
O12 O 0.42761(11) 0.58537(12) 0.60963(8)
O13 O 0.58537(12) 0.42761(11) 0.39037(8)
N5 N 0.44755(14) 0.57022(15) 0.37566(10)
N6 N 0.57022(15) 0.44755(14) 0.62434(10)
O1_2 O 0.48509(11) 0.48509(11) -0.000000
O2_2 O 0.30754(12) 0.43655(14) 0.05692(8)
C1_2 C 0.26843(15) 0.44962(16) 0.00859(11)
C6_2 C 0.16932(18) 0.46635(19) 0.01508(13)
H3_2 H 0.143476 0.422597 0.042279
C23_2 C 0.1519(2) 0.5597(3) 0.0390(2)
H20_2 H 0.173015 0.602382 0.010603
H21_2 H 0.182258 0.567438 0.076416
H22_2 H 0.089661 0.567702 0.044991
H23_2 H 0.472(2) 0.5389(9) 0.0013(15)
Co2_2 Co 0.43962(2) 0.42415(2) 0.08133(2)
O8_2 O 0.46305(12) 0.12488(12) 0.04222(9)
O9_2 O 0.07239(11) 0.08537(12) 0.14037(8)
O10_2 O 0.45240(14) 0.30039(12) 0.04258(8)
O11_2 O 0.14845(13) 0.03533(18) 0.21830(10)
N3_2 N 0.39924(14) 0.36471(14) 0.16261(10)
N4_2 N 0.05245(14) 0.07022(15) 0.37434(10)
C25_2 C 0.38329(17) 0.11617(17) 0.07003(12)
C26_2 C 0.30958(16) 0.07065(18) 0.15980(12)
H25_2 H 0.312319 0.050081 0.199016
C27_2 C 0.22810(16) 0.08629(16) 0.13356(11)
C28_2 C 0.38630(17) 0.08522(18) 0.12850(13)
H26_2 H 0.440541 0.074289 0.146589
C30_2 C 0.22587(17) 0.11868(18) 0.07572(12)
H28_2 H 0.171577 0.130208 0.057874
C31_2 C 0.14363(15) 0.06819(17) 0.16705(11)
C32_2 C 0.4156(2) 0.3528(2) 0.26883(13)
H29_2 H 0.446880 0.368254 0.303121
C33_2 C 0.0756(2) 0.1440(2) 0.40359(13)
H30_2 H 0.031709 0.183498 0.415074
C34_2 C 0.3284(2) 0.31273(19) 0.16689(13)
H31_2 H 0.297773 0.298955 0.132003
C35_2 C 0.1625(2) 0.1635(2) 0.41727(14)
H32_2 H 0.176017 0.215348 0.437676
C36_2 C 0.4420(2) 0.3834(2) 0.21350(12)
H33_2 H 0.491970 0.418976 0.211447
C37_2 C 0.2296(2) 0.1062(3) 0.40074(15)
C38_2 C 0.1168(2) 0.0130(2) 0.36159(14)
C39_2 C 0.2982(2) 0.2785(2) 0.22001(14)
H35_2 H 0.248814 0.242008 0.220655
C40_2 C 0.30242(18) 0.13431(18) 0.04382(12)
H36_2 H 0.299684 0.156806 0.005091
C41_2 C 0.3423(2) 0.2989(2) 0.27282(14)
C42_2 C 0.3548(2) 0.1733(3) 0.34415(19)
H37_2 H 0.418426 0.180655 0.344346
H38_2 H 0.340022 0.132814 0.311971
C43_2 C 0.3257(2) 0.1321(3) 0.4045(2)
H39_2 H 0.361451 0.080526 0.413147
H40_2 H 0.334097 0.174554 0.436558
C44_2 C 0.2048(2) 0.0284(2) 0.37431(17)
C45_2 C 0.3122(3) 0.2611(3) 0.33194(16)
H42_2 H 0.326935 0.301919 0.363887
H43_2 H 0.248491 0.254020 0.331381
O12_2 O 0.57239(11) 0.41463(12) 0.10963(8)
N6_2 N 0.42978(15) 0.55245(14) 0.12434(10)
Co1_2 Co 0.42415(2) 0.43962(2) 0.91867(2)
O1_3 O 0.48509(11) 0.48509(11) 1.000000
O3_2 O 0.12488(12) 0.46305(12) 0.95778(9)
O4_2 O 0.08537(12) 0.07239(11) 0.85963(8)
O5_2 O 0.30039(12) 0.45240(14) 0.95742(8)
O6_2 O 0.03533(18) 0.14845(13) 0.78170(10)
N1_2 N 0.36471(14) 0.39924(14) 0.83739(10)
N2_2 N 0.07022(15) 0.05245(14) 0.62566(10)
C2_2 C 0.11617(17) 0.38329(17) 0.92997(12)
C3_2 C 0.07065(18) 0.30958(16) 0.84020(12)
H1_2 H 0.050081 0.312319 0.800984
C4_2 C 0.08629(16) 0.22810(16) 0.86644(11)
C5_2 C 0.08522(18) 0.38630(17) 0.87150(13)
H2_2 H 0.074289 0.440541 0.853411
C7_2 C 0.11868(18) 0.22587(17) 0.92428(12)
H4_2 H 0.130208 0.171577 0.942126
C8_2 C 0.06819(17) 0.14363(15) 0.83295(11)
C9_2 C 0.3528(2) 0.4156(2) 0.73117(13)
H5_2 H 0.368254 0.446880 0.696879
C10_2 C 0.1440(2) 0.0756(2) 0.59641(13)
H6_2 H 0.183498 0.031709 0.584926
C11_2 C 0.31273(19) 0.3284(2) 0.83311(13)
H7_2 H 0.298955 0.297773 0.867997
C12_2 C 0.1635(2) 0.1625(2) 0.58273(14)
H8_2 H 0.215348 0.176017 0.562324
C13_2 C 0.3834(2) 0.4420(2) 0.78650(12)
H9_2 H 0.418976 0.491970 0.788553
C14_2 C 0.1062(3) 0.2296(2) 0.59926(15)
C15_2 C 0.0130(2) 0.1168(2) 0.63841(14)
C16_2 C 0.2785(2) 0.2982(2) 0.77999(14)
H11_2 H 0.242008 0.248814 0.779345
C17_2 C 0.13431(18) 0.30242(18) 0.95618(12)
H12_2 H 0.156806 0.299684 0.994909
C18_2 C 0.2989(2) 0.3423(2) 0.72718(14)
C19_2 C 0.1733(3) 0.3548(2) 0.65585(19)
H13_2 H 0.180655 0.418426 0.655654
H14_2 H 0.132814 0.340022 0.688029
C20_2 C 0.1321(3) 0.3257(2) 0.5955(2)
H15_2 H 0.080526 0.361451 0.586853
H16_2 H 0.174554 0.334097 0.563442
C21_2 C 0.0284(2) 0.2048(2) 0.62569(17)
C22_2 C 0.2611(3) 0.3122(3) 0.66806(16)
H18_2 H 0.301919 0.326935 0.636113
H19_2 H 0.254020 0.248491 0.668619
H24_2 H 0.5389(9) 0.472(2) 0.9987(15)
O7_2 O 0.43655(14) 0.30754(12) 0.94308(8)
C24_2 C 0.44962(16) 0.26843(15) 0.99141(11)
C29_2 C 0.46635(19) 0.16932(18) 0.98492(13)
H27_2 H 0.422597 0.143476 0.957721
C46_2 C 0.5597(3) 0.1519(2) 0.9610(2)
H44_2 H 0.602382 0.173015 0.989397
H45_2 H 0.567438 0.182258 0.923584
H46_2 H 0.567702 0.089661 0.955009
O13_2 O 0.41463(12) 0.57239(11) 0.89037(8)
N5_2 N 0.55245(14) 0.42978(15) 0.87566(10)
C23_3 C 0.0597(3) 0.3481(2) 0.2890(2)
H20_3 H 0.102382 0.326985 0.260603
H21_3 H 0.067438 0.317742 0.326416
H22_3 H 0.067702 0.410339 0.294991
H23_3 H 0.0389(9) 0.028(2) 0.2513(15)
O1_4 O 0.98509(11) 0.01491(11) 0.250000
O2_3 O 0.93655(14) 0.19246(12) 0.30692(8)
O3_3 O 0.96305(12) 0.37512(12) 0.20778(9)
O5_3 O 0.95240(14) 0.19961(12) 0.20742(8)
O6_3 O 0.64845(13) 0.46467(18) 0.03170(10)
N1_3 N 0.89924(14) 0.13529(14) 0.08739(10)
C1_3 C 0.94962(16) 0.23157(15) 0.25859(11)
C2_3 C 0.88329(17) 0.38383(17) 0.17997(12)
C3_3 C 0.80958(16) 0.42935(18) 0.09020(12)
H1_3 H 0.812319 0.449919 0.050984
C4_3 C 0.72810(16) 0.41371(16) 0.11644(11)
C5_3 C 0.88630(17) 0.41478(18) 0.12150(13)
H2_3 H 0.940541 0.425711 0.103411
C6_3 C 0.96635(19) 0.33068(18) 0.26508(13)
H3_3 H 0.922597 0.356524 0.292279
C7_3 C 0.72587(17) 0.38132(18) 0.17428(12)
H4_3 H 0.671577 0.369792 0.192126
C8_3 C 0.64363(15) 0.43181(17) 0.08295(11)
C11_3 C 0.8284(2) 0.18727(19) 0.08311(13)
H7_3 H 0.797773 0.201045 0.117997
C13_3 C 0.9420(2) 0.1166(2) 0.03650(12)
H9_3 H 0.991970 0.081024 0.038553
C16_3 C 0.7982(2) 0.2215(2) 0.02999(14)
H11_3 H 0.748814 0.257992 0.029345
C17_3 C 0.80242(18) 0.36569(18) 0.20618(12)
H12_3 H 0.799684 0.343194 0.244909
O7_3 O 0.80754(12) 0.06345(14) 0.19308(8)
O8_3 O 0.62488(12) 0.03695(12) 0.29222(9)
O10_3 O 0.80039(12) 0.04760(14) 0.29258(8)
O11_3 O 0.53533(18) 0.35155(13) 0.46830(10)
N3_3 N 0.86471(14) 0.10076(14) 0.41261(10)
C24_3 C 0.76843(15) 0.05038(16) 0.24141(11)
C25_3 C 0.61617(17) 0.11671(17) 0.32003(12)
C26_3 C 0.57065(18) 0.19042(16) 0.40980(12)
H25_3 H 0.550081 0.187681 0.449016
C27_3 C 0.58629(16) 0.27190(16) 0.38356(11)
C28_3 C 0.58522(18) 0.11370(17) 0.37850(13)
H26_3 H 0.574289 0.059459 0.396589
C29_3 C 0.66932(18) 0.03365(19) 0.23492(13)
H27_3 H 0.643476 0.077403 0.207721
C30_3 C 0.61868(18) 0.27413(17) 0.32572(12)
H28_3 H 0.630208 0.328423 0.307874
C31_3 C 0.56819(17) 0.35637(15) 0.41705(11)
C32_3 C 0.8528(2) 0.0844(2) 0.51883(13)
H29_3 H 0.868254 0.053120 0.553121
C33_3 C 0.6440(2) 0.4244(2) 0.65359(13)
H30_3 H 0.683498 0.468291 0.665074
C34_3 C 0.81273(19) 0.1716(2) 0.41689(13)
H31_3 H 0.798955 0.202227 0.382003
C35_3 C 0.6635(2) 0.3375(2) 0.66727(14)
H32_3 H 0.715348 0.323983 0.687676
C36_3 C 0.8834(2) 0.0580(2) 0.46350(12)
H33_3 H 0.918976 0.008030 0.461447
C37_3 C 0.6062(3) 0.2704(2) 0.65074(15)
C38_3 C 0.5130(2) 0.3832(2) 0.61159(14)
H34_2 H 0.460039 0.398349 0.593190
C39_3 C 0.7785(2) 0.2018(2) 0.47001(14)
H35_3 H 0.742008 0.251186 0.470655
C40_3 C 0.63431(18) 0.19758(18) 0.29382(12)
H36_3 H 0.656806 0.200316 0.255091
C41_3 C 0.7989(2) 0.1577(2) 0.52282(14)
C42_3 C 0.6733(3) 0.1452(2) 0.59415(19)
H37_3 H 0.680655 0.081574 0.594346
H38_3 H 0.632814 0.159978 0.561971
C43_3 C 0.6321(3) 0.1743(2) 0.6545(2)
H39_3 H 0.580526 0.138549 0.663147
H40_3 H 0.674554 0.165903 0.686558
C44_3 C 0.5284(2) 0.2952(2) 0.62431(17)
H41_2 H 0.485983 0.252896 0.614951
C45_3 C 0.7611(3) 0.1878(3) 0.58194(16)
H42_3 H 0.801919 0.173065 0.613887
H43_3 H 0.754020 0.251509 0.581381
C9_3 C 0.9156(2) 0.1472(2) 0.98117(13)
H5_3 H 0.946880 0.131746 0.946879
C10_3 C 0.5756(2) 0.3560(2) 0.84641(13)
H6_3 H 0.531709 0.316502 0.834926
C12_3 C 0.6625(2) 0.3365(2) 0.83273(14)
H8_3 H 0.676017 0.284652 0.812324
C14_3 C 0.7296(2) 0.3938(3) 0.84926(15)
C15_3 C 0.6168(2) 0.4870(2) 0.88841(14)
H10_2 H 0.601651 0.539961 0.906810
C18_3 C 0.8423(2) 0.2011(2) 0.97718(14)
C19_3 C 0.8548(2) 0.3267(3) 0.90585(19)
H13_3 H 0.918426 0.319345 0.905654
H14_3 H 0.840022 0.367186 0.938029
C20_3 C 0.8257(2) 0.3679(3) 0.8455(2)
H15_3 H 0.861451 0.419474 0.836853
H16_3 H 0.834097 0.325446 0.813442
C21_3 C 0.7048(2) 0.4716(2) 0.87569(17)
H17_2 H 0.747104 0.514017 0.885049
C22_3 C 0.8122(3) 0.2389(3) 0.91806(16)
H18_3 H 0.826935 0.198081 0.886113
H19_3 H 0.748491 0.245980 0.918619
H24_3 H 0.972(2) 0.9611(9) 0.2487(15)
C46_3 C 0.6519(2) 0.9403(3) 0.2110(2)
H44_3 H 0.673015 0.897618 0.239397
H45_3 H 0.682258 0.932562 0.173584
H46_3 H 0.589661 0.932298 0.205009
H24_4 H 0.028(2) 0.0389(9) 0.7487(15)
C46_4 C 0.3481(2) 0.0597(3) 0.7110(2)
H44_4 H 0.326985 0.102382 0.739397
H45_4 H 0.317742 0.067438 0.673584
H46_4 H 0.410339 0.067702 0.705009
C32_4 C 0.1472(2) 0.9156(2) 0.01883(13)
H29_4 H 0.131746 0.946880 0.053121
C33_4 C 0.3560(2) 0.5756(2) 0.15359(13)
H30_4 H 0.316502 0.531709 0.165074
C35_4 C 0.3365(2) 0.6625(2) 0.16727(14)
H32_4 H 0.284652 0.676017 0.187676
C37_4 C 0.3938(3) 0.7296(2) 0.15074(15)
C38_4 C 0.4870(2) 0.6168(2) 0.11159(14)
H34_3 H 0.539961 0.601651 0.093190
C41_4 C 0.2011(2) 0.8423(2) 0.02282(14)
C42_4 C 0.3267(3) 0.8548(2) 0.09415(19)
H37_4 H 0.319345 0.918426 0.094346
H38_4 H 0.367186 0.840022 0.061971
C43_4 C 0.3679(3) 0.8257(2) 0.1545(2)
H39_4 H 0.419474 0.861451 0.163147
H40_4 H 0.325446 0.834097 0.186558
C44_4 C 0.4716(2) 0.7048(2) 0.12431(17)
H41_3 H 0.514017 0.747104 0.114951
C45_4 C 0.2389(3) 0.8122(3) 0.08194(16)
H42_4 H 0.198081 0.826935 0.113887
H43_4 H 0.245980 0.748491 0.081381
O1_5 O 0.01491(11) 0.98509(11) 0.750000
O2_4 O 0.06345(14) 0.80754(12) 0.80692(8)
O3_4 O 0.03695(12) 0.62488(12) 0.70778(9)
O5_4 O 0.04760(14) 0.80039(12) 0.70742(8)
O6_4 O 0.35155(13) 0.53533(18) 0.53170(10)
N1_4 N 0.10076(14) 0.86471(14) 0.58739(10)
C1_4 C 0.05038(16) 0.76843(15) 0.75859(11)
C2_4 C 0.11671(17) 0.61617(17) 0.67997(12)
C3_4 C 0.19042(16) 0.57065(18) 0.59020(12)
H1_4 H 0.187681 0.550081 0.550984
C4_4 C 0.27190(16) 0.58629(16) 0.61644(11)
C5_4 C 0.11370(17) 0.58522(18) 0.62150(13)
H2_4 H 0.059459 0.574289 0.603411
C6_4 C 0.03365(19) 0.66932(18) 0.76508(13)
H3_4 H 0.077403 0.643476 0.792279
C7_4 C 0.27413(17) 0.61868(18) 0.67428(12)
H4_4 H 0.328423 0.630208 0.692126
C8_4 C 0.35637(15) 0.56819(17) 0.58295(11)
C9_4 C 0.0844(2) 0.8528(2) 0.48117(13)
H5_4 H 0.053120 0.868254 0.446879
C10_4 C 0.4244(2) 0.6440(2) 0.34641(13)
H6_4 H 0.468291 0.683498 0.334926
C11_4 C 0.1716(2) 0.81273(19) 0.58311(13)
H7_4 H 0.202227 0.798955 0.617997
C12_4 C 0.3375(2) 0.6635(2) 0.33273(14)
H8_4 H 0.323983 0.715348 0.312324
C13_4 C 0.0580(2) 0.8834(2) 0.53650(12)
H9_4 H 0.008030 0.918976 0.538553
C14_4 C 0.2704(2) 0.6062(3) 0.34926(15)
C15_4 C 0.3832(2) 0.5130(2) 0.38841(14)
H10_3 H 0.398349 0.460039 0.406810
C16_4 C 0.2018(2) 0.7785(2) 0.52999(14)
H11_4 H 0.251186 0.742008 0.529345
C17_4 C 0.19758(18) 0.63431(18) 0.70618(12)
H12_4 H 0.200316 0.656806 0.744909
C18_4 C 0.1577(2) 0.7989(2) 0.47718(14)
C19_4 C 0.1452(2) 0.6733(3) 0.40585(19)
H13_4 H 0.081574 0.680655 0.405654
H14_4 H 0.159978 0.632814 0.438029
C20_4 C 0.1743(2) 0.6321(3) 0.3455(2)
H15_4 H 0.138549 0.580526 0.336853
H16_4 H 0.165903 0.674554 0.313442
C21_4 C 0.2952(2) 0.5284(2) 0.37569(17)
H17_3 H 0.252896 0.485983 0.385049
C22_4 C 0.1878(3) 0.7611(3) 0.41806(16)
H18_4 H 0.173065 0.801919 0.386113
H19_4 H 0.251509 0.754020 0.418619
O7_4 O 0.19246(12) 0.93655(14) 0.69308(8)
O8_4 O 0.37512(12) 0.96305(12) 0.79222(9)
O10_4 O 0.19961(12) 0.95240(14) 0.79258(8)
O11_4 O 0.46467(18) 0.64845(13) 0.96830(10)
N3_4 N 0.13529(14) 0.89924(14) 0.91261(10)
C24_4 C 0.23157(15) 0.94962(16) 0.74141(11)
C25_4 C 0.38383(17) 0.88329(17) 0.82003(12)
C26_4 C 0.42935(18) 0.80958(16) 0.90980(12)
H25_4 H 0.449919 0.812319 0.949016
C27_4 C 0.41371(16) 0.72810(16) 0.88356(11)
C28_4 C 0.41478(18) 0.88630(17) 0.87850(13)
H26_4 H 0.425711 0.940541 0.896589
C29_4 C 0.33068(18) 0.96635(19) 0.73492(13)
H27_4 H 0.356524 0.922597 0.707721
C30_4 C 0.38132(18) 0.72587(17) 0.82572(12)
H28_4 H 0.369792 0.671577 0.807874
C31_4 C 0.43181(17) 0.64363(15) 0.91705(11)
C34_4 C 0.18727(19) 0.8284(2) 0.91689(13)
H31_4 H 0.201045 0.797773 0.882003
C36_4 C 0.1166(2) 0.9420(2) 0.96350(12)
H33_4 H 0.081024 0.991970 0.961447
C39_4 C 0.2215(2) 0.7982(2) 0.97001(14)
H35_4 H 0.257992 0.748814 0.970655
C40_4 C 0.36569(18) 0.80242(18) 0.79382(12)
H36_4 H 0.343194 0.799684 0.755091
C23_4 C 0.9403(3) 0.6519(2) 0.7890(2)
H20_4 H 0.897618 0.673015 0.760603
H21_4 H 0.932562 0.682258 0.826416
H22_4 H 0.932298 0.589661 0.794991
H23_4 H 0.9611(9) 0.972(2) 0.7513(15)
H34_4 H 0.101651 0.960039 0.343190
H41_4 H 0.247104 0.985983 0.364951
H10_4 H 0.960039 0.101651 0.656810
H17_4 H 0.985983 0.247104 0.635049
loop_
_geom_bond_atom_site_label_1
_geom_bond_atom_site_label_2
_geom_bond_site_symmetry_1
_geom_bond_site_symmetry_2
Co1 O1 1_555 1_555
O1 H23 1_555 1_555
O2 C1 1_555 1_555
O3 C2 1_555 1_555
O4 C8 1_555 1_555
O5 Co1 1_555 1_555
O6 C8 1_555 1_555
N1 Co1 1_555 1_555
N2 C10 1_555 1_555
C1 O5 1_555 1_555
C2 C5 1_555 1_555
C3 H1 1_555 1_555
C4 C3 1_555 1_555
C5 C3 1_555 1_555
H2 C5 1_555 1_555
C6 O3 1_555 1_555
H3 C6 1_555 1_555
C7 C4 1_555 1_555
H4 C7 1_555 1_555
C8 C4 1_555 1_555
C9 H5 1_555 1_555
C10 H6 1_555 1_555
C11 N1 1_555 1_555
H7 C11 1_555 1_555
C12 C10 1_555 1_555
H8 C12 1_555 1_555
C13 N1 1_555 1_555
H9 C13 1_555 1_555
C14 C12 1_555 1_555
C15 N2 1_555 1_555
C16 C11 1_555 1_555
H11 C16 1_555 1_555
C17 C2 1_555 1_555
H12 C17 1_555 1_555
C18 C9 1_555 1_555
C19 H13 1_555 1_555
H14 C19 1_555 1_555
C20 C14 1_555 1_555
H15 C20 1_555 1_555
H16 C20 1_555 1_555
C21 C14 1_555 1_555
C22 C18 1_555 1_555
H18 C22 1_555 1_555
H19 C22 1_555 1_555
C23 C6 1_555 1_555
H20 C23 1_555 1_555
H21 C23 1_555 1_555
H22 C23 1_555 1_555
H24 O1 1_555 1_555
Co2 O1 1_555 1_555
O7 Co1 1_555 1_555
O8 C25 1_555 1_555
O9 C31 1_555 1_555
O10 Co2 1_555 1_555
O11 C31 1_555 1_555
N3 Co2 1_555 1_555
N4 C33 1_555 1_555
C24 O7 1_555 1_555
C25 C28 1_555 1_555
C26 H25 1_555 1_555
C27 C26 1_555 1_555
C28 C26 1_555 1_555
H26 C28 1_555 1_555
C29 O8 1_555 1_555
H27 C29 1_555 1_555
C30 C27 1_555 1_555
H28 C30 1_555 1_555
C31 C27 1_555 1_555
C32 H29 1_555 1_555
C33 H30 1_555 1_555
C34 N3 1_555 1_555
H31 C34 1_555 1_555
C35 C33 1_555 1_555
H32 C35 1_555 1_555
C36 N3 1_555 1_555
H33 C36 1_555 1_555
C37 C35 1_555 1_555
C38 N4 1_555 1_555
C39 C34 1_555 1_555
H35 C39 1_555 1_555
C40 C25 1_555 1_555
H36 C40 1_555 1_555
C41 C32 1_555 1_555
C42 H37 1_555 1_555
H38 C42 1_555 1_555
C43 C37 1_555 1_555
H39 C43 1_555 1_555
H40 C43 1_555 1_555
C44 C37 1_555 1_555
C45 C41 1_555 1_555
H42 C45 1_555 1_555
H43 C45 1_555 1_555
C46 C29 1_555 1_555
H44 C46 1_555 1_555
H45 C46 1_555 1_555
H46 C46 1_555 1_555
O12 Co2 1_555 1_555
O13 Co1 1_555 1_555
N5 Co1 1_555 1_555
N6 Co2 1_555 1_555
O2 Co2 1_555 1_555
C1 C6 1_555 1_555
C7 C17 1_555 1_555
C9 C13 1_555 1_555
C15 C21 1_555 1_555
C16 C18 1_555 1_555
C19 C20 1_555 1_555
C19 C22 1_555 1_555
O10 C24 1_555 1_555
C24 C29 1_555 1_555
C30 C40 1_555 1_555
C32 C36 1_555 1_555
C38 C44 1_555 1_555
C39 C41 1_555 1_555
C42 C43 1_555 1_555
C42 C45 1_555 1_555
O1_2 H23_2 1_555 1_555
O2_2 C1_2 1_555 1_555
H3_2 C6_2 1_555 1_555
C23_2 C6_2 1_555 1_555
H20_2 C23_2 1_555 1_555
H21_2 C23_2 1_555 1_555
H22_2 C23_2 1_555 1_555
Co2_2 O1_2 1_555 1_555
O8_2 C25_2 1_555 1_555
O9_2 C31_2 1_555 1_555
O10_2 Co2_2 1_555 1_555
O11_2 C31_2 1_555 1_555
N3_2 Co2_2 1_555 1_555
N4_2 C33_2 1_555 1_555
C25_2 C28_2 1_555 1_555
C26_2 H25_2 1_555 1_555
C27_2 C26_2 1_555 1_555
C28_2 C26_2 1_555 1_555
H26_2 C28_2 1_555 1_555
C30_2 C27_2 1_555 1_555
H28_2 C30_2 1_555 1_555
C31_2 C27_2 1_555 1_555
C32_2 H29_2 1_555 1_555
C33_2 H30_2 1_555 1_555
C34_2 N3_2 1_555 1_555
H31_2 C34_2 1_555 1_555
C35_2 C33_2 1_555 1_555
H32_2 C35_2 1_555 1_555
C36_2 N3_2 1_555 1_555
H33_2 C36_2 1_555 1_555
C37_2 C35_2 1_555 1_555
C38_2 N4_2 1_555 1_555
C39_2 C34_2 1_555 1_555
H35_2 C39_2 1_555 1_555
C40_2 C25_2 1_555 1_555
H36_2 C40_2 1_555 1_555
C41_2 C32_2 1_555 1_555
C42_2 H37_2 1_555 1_555
H38_2 C42_2 1_555 1_555
C43_2 C37_2 1_555 1_555
H39_2 C43_2 1_555 1_555
H40_2 C43_2 1_555 1_555
C44_2 C37_2 1_555 1_555
C45_2 C41_2 1_555 1_555
H42_2 C45_2 1_555 1_555
H43_2 C45_2 1_555 1_555
O12_2 Co2_2 1_555 1_555
N6_2 Co2_2 1_555 1_555
O2_2 Co2_2 1_555 1_555
C1_2 C6_2 1_555 1_555
C30_2 C40_2 1_555 1_555
C32_2 C36_2 1_555 1_555
C38_2 C44_2 1_555 1_555
C39_2 C41_2 1_555 1_555
C42_2 C43_2 1_555 1_555
C42_2 C45_2 1_555 1_555
Co1_2 O1_3 1_555 1_555
O3_2 C2_2 1_555 1_555
O4_2 C8_2 1_555 1_555
O5_2 Co1_2 1_555 1_555
O6_2 C8_2 1_555 1_555
N1_2 Co1_2 1_555 1_555
N2_2 C10_2 1_555 1_555
C2_2 C5_2 1_555 1_555
C3_2 H1_2 1_555 1_555
C4_2 C3_2 1_555 1_555
C5_2 C3_2 1_555 1_555
H2_2 C5_2 1_555 1_555
C7_2 C4_2 1_555 1_555
H4_2 C7_2 1_555 1_555
C8_2 C4_2 1_555 1_555
C9_2 H5_2 1_555 1_555
C10_2 H6_2 1_555 1_555
C11_2 N1_2 1_555 1_555
H7_2 C11_2 1_555 1_555
C12_2 C10_2 1_555 1_555
H8_2 C12_2 1_555 1_555
C13_2 N1_2 1_555 1_555
H9_2 C13_2 1_555 1_555
C14_2 C12_2 1_555 1_555
C15_2 N2_2 1_555 1_555
C16_2 C11_2 1_555 1_555
H11_2 C16_2 1_555 1_555
C17_2 C2_2 1_555 1_555
H12_2 C17_2 1_555 1_555
C18_2 C9_2 1_555 1_555
C19_2 H13_2 1_555 1_555
H14_2 C19_2 1_555 1_555
C20_2 C14_2 1_555 1_555
H15_2 C20_2 1_555 1_555
H16_2 C20_2 1_555 1_555
C21_2 C14_2 1_555 1_555
C22_2 C18_2 1_555 1_555
H18_2 C22_2 1_555 1_555
H19_2 C22_2 1_555 1_555
H24_2 O1_3 1_555 1_555
O7_2 Co1_2 1_555 1_555
C24_2 O7_2 1_555 1_555
H27_2 C29_2 1_555 1_555
C46_2 C29_2 1_555 1_555
H44_2 C46_2 1_555 1_555
H45_2 C46_2 1_555 1_555
H46_2 C46_2 1_555 1_555
O13_2 Co1_2 1_555 1_555
N5_2 Co1_2 1_555 1_555
C7_2 C17_2 1_555 1_555
C9_2 C13_2 1_555 1_555
C15_2 C21_2 1_555 1_555
C16_2 C18_2 1_555 1_555
C19_2 C20_2 1_555 1_555
C19_2 C22_2 1_555 1_555
C24_2 C29_2 1_555 1_555
H20_3 C23_3 1_555 1_555
H21_3 C23_3 1_555 1_555
H22_3 C23_3 1_555 1_555
Co3 O1_4 1_555 1_555
O2_3 C1_3 1_555 1_555
O3_3 C2_3 1_555 1_555
O12_2 C8_3 1_555 1_555
O5_3 Co3 1_555 1_555
O6_3 C8_3 1_555 1_555
N1_3 Co3 1_555 1_555
C1_3 O5_3 1_555 1_555
C2_3 C5_3 1_555 1_555
C3_3 H1_3 1_555 1_555
C4_3 C3_3 1_555 1_555
C5_3 C3_3 1_555 1_555
H2_3 C5_3 1_555 1_555
C6_3 O3_3 1_555 1_555
H3_3 C6_3 1_555 1_555
C7_3 C4_3 1_555 1_555
H4_3 C7_3 1_555 1_555
C8_3 C4_3 1_555 1_555
C11_3 N1_3 1_555 1_555
H7_3 C11_3 1_555 1_555
C13_3 N1_3 1_555 1_555
H9_3 C13_3 1_555 1_555
C16_3 C11_3 1_555 1_555
H11_3 C16_3 1_555 1_555
C17_3 C2_3 1_555 1_555
H12_3 C17_3 1_555 1_555
Co5 O1_4 1_555 1_555
O7_3 Co3 1_555 1_555
O8_3 C25_3 1_555 1_555
O13 C31_3 1_555 1_555
O10_3 Co5 1_555 1_555
O11_3 C31_3 1_555 1_555
N3_3 Co5 1_555 1_555
N6 C33_3 1_555 1_555
C24_3 O7_3 1_555 1_555
C25_3 C28_3 1_555 1_555
C26_3 H25_3 1_555 1_555
C27_3 C26_3 1_555 1_555
C28_3 C26_3 1_555 1_555
H26_3 C28_3 1_555 1_555
C29_3 O8_3 1_555 1_555
H27_3 C29_3 1_555 1_555
C30_3 C27_3 1_555 1_555
H28_3 C30_3 1_555 1_555
C31_3 C27_3 1_555 1_555
C32_3 H29_3 1_555 1_555
C33_3 H30_3 1_555 1_555
C34_3 N3_3 1_555 1_555
H31_3 C34_3 1_555 1_555
C35_3 C33_3 1_555 1_555
H32_3 C35_3 1_555 1_555
C36_3 N3_3 1_555 1_555
H33_3 C36_3 1_555 1_555
C37_3 C35_3 1_555 1_555
C38_3 N6 1_555 1_555
H34_2 C38_3 1_555 1_555
C39_3 C34_3 1_555 1_555
H35_3 C39_3 1_555 1_555
C40_3 C25_3 1_555 1_555
H36_3 C40_3 1_555 1_555
C41_3 C32_3 1_555 1_555
C42_3 H37_3 1_555 1_555
H38_3 C42_3 1_555 1_555
C43_3 C37_3 1_555 1_555
H39_3 C43_3 1_555 1_555
H40_3 C43_3 1_555 1_555
C44_3 C37_3 1_555 1_555
H41_2 C44_3 1_555 1_555
C45_3 C41_3 1_555 1_555
H42_3 C45_3 1_555 1_555
H43_3 C45_3 1_555 1_555
O2_3 Co5 1_555 1_555
C1_3 C6_3 1_555 1_555
C7_3 C17_3 1_555 1_555
O10_3 C24_3 1_555 1_555
C24_3 C29_3 1_555 1_555
C30_3 C40_3 1_555 1_555
C32_3 C36_3 1_555 1_555
C38_3 C44_3 1_555 1_555
C39_3 C41_3 1_555 1_555
C42_3 C43_3 1_555 1_555
C42_3 C45_3 1_555 1_555
N5_2 C10_3 1_555 1_555
C9_3 H5_3 1_555 1_555
C10_3 H6_3 1_555 1_555
C12_3 C10_3 1_555 1_555
H8_3 C12_3 1_555 1_555
C14_3 C12_3 1_555 1_555
C15_3 N5_2 1_555 1_555
H10_2 C15_3 1_555 1_555
C18_3 C9_3 1_555 1_555
C19_3 H13_3 1_555 1_555
H14_3 C19_3 1_555 1_555
C20_3 C14_3 1_555 1_555
H15_3 C20_3 1_555 1_555
H16_3 C20_3 1_555 1_555
C21_3 C14_3 1_555 1_555
H17_2 C21_3 1_555 1_555
C22_3 C18_3 1_555 1_555
H18_3 C22_3 1_555 1_555
H19_3 C22_3 1_555 1_555
C15_3 C21_3 1_555 1_555
C19_3 C20_3 1_555 1_555
C19_3 C22_3 1_555 1_555
H44_3 C46_3 1_555 1_555
H45_3 C46_3 1_555 1_555
H46_3 C46_3 1_555 1_555
H44_4 C46_4 1_555 1_555
H45_4 C46_4 1_555 1_555
H46_4 C46_4 1_555 1_555
N6_2 C33_4 1_555 1_555
C32_4 H29_4 1_555 1_555
C33_4 H30_4 1_555 1_555
C35_4 C33_4 1_555 1_555
H32_4 C35_4 1_555 1_555
C37_4 C35_4 1_555 1_555
C38_4 N6_2 1_555 1_555
H34_3 C38_4 1_555 1_555
C41_4 C32_4 1_555 1_555
C42_4 H37_4 1_555 1_555
H38_4 C42_4 1_555 1_555
C43_4 C37_4 1_555 1_555
H39_4 C43_4 1_555 1_555
H40_4 C43_4 1_555 1_555
C44_4 C37_4 1_555 1_555
H41_3 C44_4 1_555 1_555
C45_4 C41_4 1_555 1_555
H42_4 C45_4 1_555 1_555
H43_4 C45_4 1_555 1_555
C38_4 C44_4 1_555 1_555
C42_4 C43_4 1_555 1_555
C42_4 C45_4 1_555 1_555
Co4 O1_5 1_555 1_555
O2_4 C1_4 1_555 1_555
O3_4 C2_4 1_555 1_555
O12 C8_4 1_555 1_555
O5_4 Co4 1_555 1_555
O6_4 C8_4 1_555 1_555
N1_4 Co4 1_555 1_555
N5 C10_4 1_555 1_555
C1_4 O5_4 1_555 1_555
C2_4 C5_4 1_555 1_555
C3_4 H1_4 1_555 1_555
C4_4 C3_4 1_555 1_555
C5_4 C3_4 1_555 1_555
H2_4 C5_4 1_555 1_555
C6_4 O3_4 1_555 1_555
H3_4 C6_4 1_555 1_555
C7_4 C4_4 1_555 1_555
H4_4 C7_4 1_555 1_555
C8_4 C4_4 1_555 1_555
C9_4 H5_4 1_555 1_555
C10_4 H6_4 1_555 1_555
C11_4 N1_4 1_555 1_555
H7_4 C11_4 1_555 1_555
C12_4 C10_4 1_555 1_555
H8_4 C12_4 1_555 1_555
C13_4 N1_4 1_555 1_555
H9_4 C13_4 1_555 1_555
C14_4 C12_4 1_555 1_555
C15_4 N5 1_555 1_555
H10_3 C15_4 1_555 1_555
C16_4 C11_4 1_555 1_555
H11_4 C16_4 1_555 1_555
C17_4 C2_4 1_555 1_555
H12_4 C17_4 1_555 1_555
C18_4 C9_4 1_555 1_555
C19_4 H13_4 1_555 1_555
H14_4 C19_4 1_555 1_555
C20_4 C14_4 1_555 1_555
H15_4 C20_4 1_555 1_555
H16_4 C20_4 1_555 1_555
C21_4 C14_4 1_555 1_555
H17_3 C21_4 1_555 1_555
C22_4 C18_4 1_555 1_555
H18_4 C22_4 1_555 1_555
H19_4 C22_4 1_555 1_555
Co6 O1_5 1_555 1_555
O7_4 Co4 1_555 1_555
O8_4 C25_4 1_555 1_555
O13_2 C31_4 1_555 1_555
O10_4 Co6 1_555 1_555
O11_4 C31_4 1_555 1_555
N3_4 Co6 1_555 1_555
C24_4 O7_4 1_555 1_555
C25_4 C28_4 1_555 1_555
C26_4 H25_4 1_555 1_555
C27_4 C26_4 1_555 1_555
C28_4 C26_4 1_555 1_555
H26_4 C28_4 1_555 1_555
C29_4 O8_4 1_555 1_555
H27_4 C29_4 1_555 1_555
C30_4 C27_4 1_555 1_555
H28_4 C30_4 1_555 1_555
C31_4 C27_4 1_555 1_555
C34_4 N3_4 1_555 1_555
H31_4 C34_4 1_555 1_555
C36_4 N3_4 1_555 1_555
H33_4 C36_4 1_555 1_555
C39_4 C34_4 1_555 1_555
H35_4 C39_4 1_555 1_555
C40_4 C25_4 1_555 1_555
H36_4 C40_4 1_555 1_555
O2_4 Co6 1_555 1_555
C1_4 C6_4 1_555 1_555
C7_4 C17_4 1_555 1_555
C9_4 C13_4 1_555 1_555
C15_4 C21_4 1_555 1_555
C16_4 C18_4 1_555 1_555
C19_4 C20_4 1_555 1_555
C19_4 C22_4 1_555 1_555
O10_4 C24_4 1_555 1_555
C24_4 C29_4 1_555 1_555
C30_4 C40_4 1_555 1_555
H20_4 C23_4 1_555 1_555
H21_4 C23_4 1_555 1_555
H22_4 C23_4 1_555 1_555

#END
