
###############################################################################
#
# This file contains modified crystal structure data generated from the
# MOF subset of the Cambridge Structural Database (CSD) v543 
# hosted by the Cambridge Crystallographic Data Centre (CCDC).
#
# This work is licensed under the Creative Commons
# Attribution-NonCommercial-ShareAlike 4.0 International License.
# To view a copy of this license, visit
# http://creativecommons.org/licenses/by-nc-sa/4.0/
# or send a letter to
# Creative Commons, PO Box 1866, Mountain View, CA 94042, USA.
#
# CIF created using the CSD Python API on 29 September 2022
# The structure has been converted into the P1 space group
# The structure has a 3D framework
# The original CSD entry YASTOF is in the tetragonal crystal system
# The original CSD entry YASTOF is in a Sohncke space group
# The framework has been calculated to contain at least 10.0% void space
# The void calculation uses a probe of radius 1.32A, grid spacing 0.4
#
###############################################################################

data_YASTOF
_chemical_formula_moiety         '(C184 H184 Co8 N16 O45)n'
_symmetry_cell_setting           triclinic
_symmetry_space_group_name_H-M   'P 1'
_symmetry_Int_Tables_number      1
_space_group_name_Hall           'P 1'
loop_
_symmetry_equiv_pos_site_id
_symmetry_equiv_pos_as_xyz
1 x,y,z
_cell_length_a                   15.1354(5)
_cell_length_b                   15.1354(5)
_cell_length_c                   22.3862(11)
_cell_angle_alpha                90
_cell_angle_beta                 90
_cell_angle_gamma                90
_cell_volume                     5128.24
loop_
_atom_site_label
_atom_site_type_symbol
_atom_site_fract_x
_atom_site_fract_y
_atom_site_fract_z
H8 H 0.039953 0.898679 0.842556
H15 H 0.014408 0.752864 0.864448
Co4 Co 0.06051(2) 0.92416(2) 0.33126(2)
Co6 Co 0.07584(2) 0.93949(2) 0.16874(2)
H32 H 0.898679 0.039953 0.157444
H39 H 0.752864 0.014408 0.135552
Co3 Co 0.93949(2) 0.07584(2) 0.83126(2)
Co5 Co 0.92416(2) 0.06051(2) 0.66874(2)
Co1 Co 0.57584(2) 0.56051(2) 0.58126(2)
O1 O 0.51482(10) 0.51482(10) 0.500000
O2 O 0.91449(11) 0.92770(10) 0.64037(7)
O3 O 0.69287(11) 0.56358(13) 0.44318(7)
O4 O 0.69981(10) 0.54802(12) 0.54256(7)
O5 O 0.87520(11) 0.53662(11) 0.54211(8)
O6 O 0.96447(16) 0.85132(12) 0.71822(9)
N1 N 0.63550(13) 0.60060(13) 0.66265(8)
N2 N 0.92994(14) 0.94721(13) 0.87405(9)
C1 C 0.91348(14) 0.77199(14) 0.63363(9)
C2 C 0.93194(15) 0.85655(14) 0.66679(10)
C3 C 0.92932(15) 0.69023(15) 0.65998(10)
H1 H 0.949836 0.687575 0.699101
C4 C 0.68809(17) 0.67088(17) 0.66662(11)
H2 H 0.702623 0.701197 0.631843
C5 C 0.88414(14) 0.61636(15) 0.56977(11)
C6 C 0.83145(15) 0.53318(18) 0.48517(12)
H3 H 0.857647 0.576502 0.457877
C7 C 0.73163(13) 0.55030(14) 0.49154(9)
C8 C 0.85601(19) 0.9239(2) 0.90336(12)
H4 H 0.816546 0.967881 0.914824
C9 C 0.64642(19) 0.58421(19) 0.76875(11)
H5 H 0.630732 0.552847 0.802861
C10 C 0.88152(16) 0.77405(15) 0.57547(10)
H6 H 0.869915 0.828255 0.557550
C11 C 0.72184(18) 0.70048(19) 0.72010(12)
H7 H 0.759030 0.749378 0.720844
C12 C 0.70051(18) 0.65759(19) 0.77278(12)
C13 C 0.98714(18) 0.88331(17) 0.86107(13)
C14 C 0.61612(18) 0.55828(17) 0.71344(10)
H9 H 0.580175 0.508546 0.711296
C15 C 0.8365(2) 0.8371(2) 0.91708(12)
H10 H 0.784956 0.823597 0.937726
C16 C 0.91482(16) 0.61275(16) 0.62852(11)
H11 H 0.925514 0.558413 0.646516
C17 C 0.8934(2) 0.7706(2) 0.90020(13)
C18 C 0.86654(17) 0.69691(16) 0.54357(11)
H12 H 0.844779 0.699509 0.504760
C19 C 0.8276(3) 0.64473(19) 0.84379(16)
H13 H 0.867684 0.659476 0.811495
H14 H 0.820254 0.581061 0.844101
C20 C 0.9720(2) 0.79518(19) 0.87371(15)
C21 C 0.7386(2) 0.6877(2) 0.83192(13)
H16 H 0.698027 0.672672 0.863860
H17 H 0.745556 0.751441 0.831500
C22 C 0.8690(3) 0.6740(2) 0.90347(17)
H18 H 0.827232 0.664559 0.935715
H19 H 0.921332 0.638966 0.911593
C23 C 0.8476(2) 0.4394(2) 0.46177(18)
H20 H 0.909901 0.429976 0.456869
H21 H 0.818486 0.432189 0.423979
H22 H 0.824522 0.397302 0.489790
H23 H 0.4594(10) 0.521(3) 0.498(2)
H24 H 0.521(3) 0.4594(10) 0.502(2)
Co2 Co 0.56051(2) 0.57584(2) 0.41874(2)
O7 O 0.92770(10) 0.91449(11) 0.35963(7)
O8 O 0.56358(13) 0.69287(11) 0.55682(7)
O9 O 0.54802(12) 0.69981(10) 0.45744(7)
O10 O 0.53662(11) 0.87520(11) 0.45789(8)
O11 O 0.85132(12) 0.96447(16) 0.28178(9)
N3 N 0.60060(13) 0.63550(13) 0.33735(8)
N4 N 0.94721(13) 0.92994(14) 0.12595(9)
C24 C 0.77199(14) 0.91348(14) 0.36637(9)
C25 C 0.85655(14) 0.93194(15) 0.33321(10)
C26 C 0.69023(15) 0.92932(15) 0.34002(10)
H25 H 0.687575 0.949836 0.300899
C27 C 0.67088(17) 0.68809(17) 0.33338(11)
H26 H 0.701197 0.702623 0.368157
C28 C 0.61636(15) 0.88414(14) 0.43023(11)
C29 C 0.53318(18) 0.83145(15) 0.51483(12)
H27 H 0.576502 0.857647 0.542123
C30 C 0.55030(14) 0.73163(13) 0.50846(9)
C31 C 0.9239(2) 0.85601(19) 0.09664(12)
H28 H 0.967881 0.816546 0.085176
C32 C 0.58421(19) 0.64642(19) 0.23125(11)
H29 H 0.552847 0.630732 0.197139
C33 C 0.77405(15) 0.88152(16) 0.42453(10)
H30 H 0.828255 0.869915 0.442450
C34 C 0.70048(19) 0.72184(18) 0.27990(12)
H31 H 0.749378 0.759030 0.279156
C35 C 0.65759(19) 0.70051(18) 0.22722(12)
C36 C 0.88331(17) 0.98714(18) 0.13893(13)
C37 C 0.55828(17) 0.61612(18) 0.28656(10)
H33 H 0.508546 0.580175 0.288704
C38 C 0.8371(2) 0.8365(2) 0.08292(12)
H34 H 0.823597 0.784956 0.062274
C39 C 0.61275(16) 0.91482(16) 0.37148(11)
H35 H 0.558413 0.925514 0.353484
C40 C 0.7706(2) 0.8934(2) 0.09980(13)
C41 C 0.69691(16) 0.86654(17) 0.45643(11)
H36 H 0.699509 0.844779 0.495240
C42 C 0.64473(19) 0.8276(3) 0.15621(16)
H37 H 0.659476 0.867684 0.188505
H38 H 0.581061 0.820254 0.155899
C43 C 0.79518(19) 0.9720(2) 0.12629(15)
C44 C 0.6877(2) 0.7386(2) 0.16808(13)
H40 H 0.672672 0.698027 0.136140
H41 H 0.751441 0.745556 0.168500
C45 C 0.6740(2) 0.8690(3) 0.09653(17)
H42 H 0.664559 0.827232 0.064285
H43 H 0.638966 0.921332 0.088407
C46 C 0.4394(2) 0.8476(2) 0.53823(18)
H44 H 0.429976 0.909901 0.543131
H45 H 0.432189 0.818486 0.576021
H46 H 0.397302 0.824522 0.510210
O12 O 0.42770(10) 0.58551(11) 0.39037(7)
O13 O 0.58551(11) 0.42770(10) 0.60963(7)
N5 N 0.44721(13) 0.57006(14) 0.62405(9)
N6 N 0.57006(14) 0.44721(13) 0.37595(9)
Co1_2 Co 0.42416(2) 0.43949(2) 0.08126(2)
O1_2 O 0.48518(10) 0.48518(10) -0.000000
O2_2 O 0.08551(11) 0.07230(10) 0.14037(7)
O4_2 O 0.30019(10) 0.45198(12) 0.04256(7)
O5_2 O 0.12480(11) 0.46338(11) 0.04211(8)
O6_2 O 0.03553(16) 0.14868(12) 0.21822(9)
N1_2 N 0.36450(13) 0.39940(13) 0.16265(8)
N2_2 N 0.07006(14) 0.05279(13) 0.37405(9)
C1_2 C 0.08652(14) 0.22801(14) 0.13363(9)
C2_2 C 0.06806(15) 0.14345(14) 0.16679(10)
C3_2 C 0.07068(15) 0.30977(15) 0.15998(10)
H1_2 H 0.050164 0.312425 0.199101
C4_2 C 0.31191(17) 0.32912(17) 0.16662(11)
H2_2 H 0.297377 0.298803 0.131843
C5_2 C 0.11586(14) 0.38364(15) 0.06977(11)
C8_2 C 0.14399(19) 0.0761(2) 0.40336(12)
H4_2 H 0.183454 0.032119 0.414824
C9_2 C 0.35358(19) 0.41579(19) 0.26875(11)
H5_2 H 0.369268 0.447153 0.302861
C10_2 C 0.11848(16) 0.22595(15) 0.07547(10)
H6_2 H 0.130085 0.171745 0.057550
C11_2 C 0.27816(18) 0.29952(19) 0.22010(12)
H7_2 H 0.240970 0.250622 0.220844
C12_2 C 0.29949(18) 0.34241(19) 0.27278(12)
C13_2 C 0.01286(18) 0.11669(17) 0.36107(13)
C14_2 C 0.38388(18) 0.44172(17) 0.21344(10)
H9_2 H 0.419825 0.491454 0.211296
C15_2 C 0.1635(2) 0.1629(2) 0.41708(12)
H10_2 H 0.215044 0.176403 0.437726
C16_2 C 0.08518(16) 0.38725(16) 0.12852(11)
H11_2 H 0.074486 0.441587 0.146516
C17_2 C 0.1066(2) 0.2294(2) 0.40020(13)
C18_2 C 0.13346(17) 0.30309(16) 0.04357(11)
H12_2 H 0.155221 0.300491 0.004760
C19_2 C 0.1724(3) 0.35527(19) 0.34379(16)
H13_2 H 0.132316 0.340524 0.311495
H14_2 H 0.179746 0.418939 0.344101
C20_2 C 0.0280(2) 0.20482(19) 0.37371(15)
C21_2 C 0.2614(2) 0.3123(2) 0.33192(13)
H16_2 H 0.301973 0.327328 0.363860
H17_2 H 0.254444 0.248559 0.331500
C22_2 C 0.1310(3) 0.3260(2) 0.40347(17)
H18_2 H 0.172768 0.335441 0.435715
H19_2 H 0.078668 0.361034 0.411593
H24_2 H 0.479(3) 0.5406(10) 0.002(2)
O8_2 O 0.43642(13) 0.30713(11) 0.05682(7)
C29_2 C 0.46682(18) 0.16855(15) 0.01483(12)
H27_2 H 0.423498 0.142353 0.042123
C30_2 C 0.44970(14) 0.26837(13) 0.00846(9)
C46_2 C 0.5606(2) 0.1524(2) 0.03823(18)
H44_2 H 0.570024 0.090099 0.043131
H45_2 H 0.567811 0.181514 0.076021
H46_2 H 0.602698 0.175478 0.010210
O13_2 O 0.41449(11) 0.57230(10) 0.10963(7)
N5_2 N 0.55279(13) 0.42994(14) 0.12405(9)
O1_3 O 0.48518(10) 0.48518(10) 1.000000
O3_2 O 0.30713(11) 0.43642(13) 0.94318(7)
C6_2 C 0.16855(15) 0.46682(18) 0.98517(12)
H3_2 H 0.142353 0.423498 0.957877
C7_2 C 0.26837(13) 0.44970(14) 0.99154(9)
C23_2 C 0.1524(2) 0.5606(2) 0.96177(18)
H20_2 H 0.090099 0.570024 0.956869
H21_2 H 0.181514 0.567811 0.923979
H22_2 H 0.175478 0.602698 0.989790
H23_2 H 0.5406(10) 0.479(3) 0.998(2)
Co2_2 Co 0.43949(2) 0.42416(2) 0.91874(2)
O7_2 O 0.07230(10) 0.08551(11) 0.85963(7)
O9_2 O 0.45198(12) 0.30019(10) 0.95744(7)
O10_2 O 0.46338(11) 0.12480(11) 0.95789(8)
O11_2 O 0.14868(12) 0.03553(16) 0.78178(9)
N3_2 N 0.39940(13) 0.36450(13) 0.83735(8)
N4_2 N 0.05279(13) 0.07006(14) 0.62595(9)
C24_2 C 0.22801(14) 0.08652(14) 0.86637(9)
C25_2 C 0.14345(14) 0.06806(15) 0.83321(10)
C26_2 C 0.30977(15) 0.07068(15) 0.84002(10)
H25_2 H 0.312425 0.050164 0.800899
C27_2 C 0.32912(17) 0.31191(17) 0.83338(11)
H26_2 H 0.298803 0.297377 0.868157
C28_2 C 0.38364(15) 0.11586(14) 0.93023(11)
C31_2 C 0.0761(2) 0.14399(19) 0.59664(12)
H28_2 H 0.032119 0.183454 0.585176
C32_2 C 0.41579(19) 0.35358(19) 0.73125(11)
H29_2 H 0.447153 0.369268 0.697139
C33_2 C 0.22595(15) 0.11848(16) 0.92453(10)
H30_2 H 0.171745 0.130085 0.942450
C34_2 C 0.29952(19) 0.27816(18) 0.77990(12)
H31_2 H 0.250622 0.240970 0.779156
C35_2 C 0.34241(19) 0.29949(18) 0.72722(12)
C36_2 C 0.11669(17) 0.01286(18) 0.63893(13)
C37_2 C 0.44172(17) 0.38388(18) 0.78656(10)
H33_2 H 0.491454 0.419825 0.788704
C38_2 C 0.1629(2) 0.1635(2) 0.58292(12)
H34_2 H 0.176403 0.215044 0.562274
C39_2 C 0.38725(16) 0.08518(16) 0.87148(11)
H35_2 H 0.441587 0.074486 0.853484
C40_2 C 0.2294(2) 0.1066(2) 0.59980(13)
C41_2 C 0.30309(16) 0.13346(17) 0.95643(11)
H36_2 H 0.300491 0.155221 0.995240
C42_2 C 0.35527(19) 0.1724(3) 0.65621(16)
H37_2 H 0.340524 0.132316 0.688505
H38_2 H 0.418939 0.179746 0.655899
C43_2 C 0.20482(19) 0.0280(2) 0.62629(15)
C44_2 C 0.3123(2) 0.2614(2) 0.66808(13)
H40_2 H 0.327328 0.301973 0.636140
H41_2 H 0.248559 0.254444 0.668500
C45_2 C 0.3260(2) 0.1310(3) 0.59653(17)
H42_2 H 0.335441 0.172768 0.564285
H43_2 H 0.361034 0.078668 0.588407
O12_2 O 0.57230(10) 0.41449(11) 0.89037(7)
N6_2 N 0.42994(14) 0.55279(13) 0.87595(9)
C23_3 C 0.0606(2) 0.3476(2) 0.71177(18)
H20_3 H 0.070024 0.409901 0.706869
H21_3 H 0.067811 0.318486 0.673979
H22_3 H 0.102698 0.324522 0.739790
H24_3 H 0.0406(10) 0.021(3) 0.752(2)
C8_3 C 0.5761(2) 0.35601(19) 0.15336(12)
H4_3 H 0.532119 0.316546 0.164824
C9_3 C 0.91579(19) 0.14642(19) 0.01875(11)
H5_3 H 0.947153 0.130732 0.052861
C12_3 C 0.84241(19) 0.20051(18) 0.02278(12)
C13_3 C 0.61669(17) 0.48714(18) 0.11107(13)
H8_2 H 0.601321 0.539953 0.092556
C15_3 C 0.6629(2) 0.3365(2) 0.16708(12)
H10_3 H 0.676403 0.284956 0.187726
C17_3 C 0.7294(2) 0.3934(2) 0.15020(13)
C19_3 C 0.85527(19) 0.3276(3) 0.09379(16)
H13_3 H 0.840524 0.367684 0.061495
H14_3 H 0.918939 0.320254 0.094101
C20_3 C 0.70482(19) 0.4720(2) 0.12371(15)
H15_2 H 0.747136 0.514408 0.114448
C21_3 C 0.8123(2) 0.2386(2) 0.08192(13)
H16_3 H 0.827328 0.198027 0.113860
H17_3 H 0.748559 0.245556 0.081500
C22_3 C 0.8260(2) 0.3690(3) 0.15347(17)
H18_3 H 0.835441 0.327232 0.185715
H19_3 H 0.861034 0.421332 0.161593
O1_4 O 0.98518(10) 0.01482(10) 0.750000
O3_3 O 0.93642(13) 0.19287(11) 0.69318(7)
O4_3 O 0.95198(12) 0.19981(10) 0.79256(7)
O5_3 O 0.96338(11) 0.37520(11) 0.79211(8)
O6_3 O 0.64868(12) 0.46447(16) 0.96822(9)
N1_3 N 0.89940(13) 0.13550(13) 0.91265(8)
C1_3 C 0.72801(14) 0.41348(14) 0.88363(9)
C2_3 C 0.64345(14) 0.43194(15) 0.91679(10)
C3_3 C 0.80977(15) 0.42932(15) 0.90998(10)
H1_3 H 0.812425 0.449836 0.949101
C4_3 C 0.82912(17) 0.18809(17) 0.91662(11)
H2_3 H 0.798803 0.202623 0.881843
C5_3 C 0.88364(15) 0.38414(14) 0.81977(11)
C6_3 C 0.96682(18) 0.33145(15) 0.73517(12)
H3_3 H 0.923498 0.357647 0.707877
C7_3 C 0.94970(14) 0.23163(13) 0.74154(9)
C10_3 C 0.72595(15) 0.38152(16) 0.82547(10)
H6_3 H 0.671745 0.369915 0.807550
C11_3 C 0.79952(19) 0.22184(18) 0.97010(12)
H7_3 H 0.750622 0.259030 0.970844
C14_3 C 0.94172(17) 0.11612(18) 0.96344(10)
H9_3 H 0.991454 0.080175 0.961296
C16_3 C 0.88725(16) 0.41482(16) 0.87852(11)
H11_3 H 0.941587 0.425514 0.896516
C18_3 C 0.80309(16) 0.36654(17) 0.79357(11)
H12_3 H 0.800491 0.344779 0.754760
O8_3 O 0.80713(11) 0.06358(13) 0.80682(7)
O9_3 O 0.80019(10) 0.04802(12) 0.70744(7)
O10_3 O 0.62480(11) 0.03662(11) 0.70789(8)
O11_3 O 0.53553(16) 0.35132(12) 0.53178(9)
N3_3 N 0.86450(13) 0.10060(13) 0.58735(8)
C24_3 C 0.58652(14) 0.27199(14) 0.61637(9)
C25_3 C 0.56806(15) 0.35655(14) 0.58321(10)
C26_3 C 0.57068(15) 0.19023(15) 0.59002(10)
H25_3 H 0.550164 0.187575 0.550899
C27_3 C 0.81191(17) 0.17088(17) 0.58338(11)
H26_3 H 0.797377 0.201197 0.618157
C28_3 C 0.61586(14) 0.11636(15) 0.68023(11)
C29_3 C 0.66855(15) 0.03318(18) 0.76483(12)
H27_3 H 0.642353 0.076502 0.792123
C30_3 C 0.76837(13) 0.05030(14) 0.75846(9)
C31_3 C 0.64399(19) 0.4239(2) 0.34664(12)
H28_3 H 0.683454 0.467881 0.335176
C32_3 C 0.85358(19) 0.08421(19) 0.48125(11)
H29_3 H 0.869268 0.052847 0.447139
C33_3 C 0.61848(16) 0.27405(15) 0.67453(10)
H30_3 H 0.630085 0.328255 0.692450
C34_3 C 0.77816(18) 0.20048(19) 0.52990(12)
H31_3 H 0.740970 0.249378 0.529156
C35_3 C 0.79949(18) 0.15759(19) 0.47722(12)
C36_3 C 0.51286(18) 0.38331(17) 0.38893(13)
H32_2 H 0.460047 0.398679 0.407444
C37_3 C 0.88388(18) 0.05828(17) 0.53656(10)
H33_3 H 0.919825 0.008546 0.538704
C38_3 C 0.6635(2) 0.3371(2) 0.33292(12)
H34_3 H 0.715044 0.323597 0.312274
C39_3 C 0.58518(16) 0.11275(16) 0.62148(11)
H35_3 H 0.574486 0.058413 0.603484
C40_3 C 0.6066(2) 0.2706(2) 0.34980(13)
C41_3 C 0.63346(17) 0.19691(16) 0.70643(11)
H36_3 H 0.655221 0.199509 0.745240
C42_3 C 0.6724(3) 0.14473(19) 0.40621(16)
H37_3 H 0.632316 0.159476 0.438505
H38_3 H 0.679746 0.081061 0.405899
C43_3 C 0.5280(2) 0.29518(19) 0.37629(15)
H39_2 H 0.485592 0.252864 0.385552
C44_3 C 0.7614(2) 0.1877(2) 0.41808(13)
H40_3 H 0.801973 0.172672 0.386140
H41_3 H 0.754444 0.251441 0.418500
C45_3 C 0.6310(3) 0.1740(2) 0.34653(17)
H42_3 H 0.672768 0.164559 0.314285
H43_3 H 0.578668 0.138966 0.338407
H23_3 H 0.979(3) 0.9594(10) 0.748(2)
C46_3 C 0.6524(2) 0.9394(2) 0.78823(18)
H44_3 H 0.590099 0.929976 0.793131
H45_3 H 0.681514 0.932189 0.826021
H46_3 H 0.675478 0.897302 0.760210
H23_4 H 0.021(3) 0.0406(10) 0.248(2)
C46_4 C 0.3476(2) 0.0606(2) 0.28823(18)
H44_4 H 0.409901 0.070024 0.293131
H45_4 H 0.318486 0.067811 0.326021
H46_4 H 0.324522 0.102698 0.260210
O1_5 O 0.01482(10) 0.98518(10) 0.250000
O3_4 O 0.06358(13) 0.80713(11) 0.19318(7)
O4_4 O 0.04802(12) 0.80019(10) 0.29256(7)
O5_4 O 0.03662(11) 0.62480(11) 0.29211(8)
O6_4 O 0.35132(12) 0.53553(16) 0.46822(9)
N1_4 N 0.10060(13) 0.86450(13) 0.41265(8)
C1_4 C 0.27199(14) 0.58652(14) 0.38363(9)
C2_4 C 0.35655(14) 0.56806(15) 0.41679(10)
C3_4 C 0.19023(15) 0.57068(15) 0.40998(10)
H1_4 H 0.187575 0.550164 0.449101
C4_4 C 0.17088(17) 0.81191(17) 0.41662(11)
H2_4 H 0.201197 0.797377 0.381843
C5_4 C 0.11636(15) 0.61586(14) 0.31977(11)
C6_4 C 0.03318(18) 0.66855(15) 0.23517(12)
H3_4 H 0.076502 0.642353 0.207877
C7_4 C 0.05030(14) 0.76837(13) 0.24154(9)
C8_4 C 0.4239(2) 0.64399(19) 0.65336(12)
H4_4 H 0.467881 0.683454 0.664824
C9_4 C 0.08421(19) 0.85358(19) 0.51875(11)
H5_4 H 0.052847 0.869268 0.552861
C10_4 C 0.27405(15) 0.61848(16) 0.32547(10)
H6_4 H 0.328255 0.630085 0.307550
C11_4 C 0.20048(19) 0.77816(18) 0.47010(12)
H7_4 H 0.249378 0.740970 0.470844
C12_4 C 0.15759(19) 0.79949(18) 0.52278(12)
C13_4 C 0.38331(17) 0.51286(18) 0.61107(13)
H8_3 H 0.398679 0.460047 0.592556
C14_4 C 0.05828(17) 0.88388(18) 0.46344(10)
H9_4 H 0.008546 0.919825 0.461296
C15_4 C 0.3371(2) 0.6635(2) 0.66708(12)
H10_4 H 0.323597 0.715044 0.687726
C16_4 C 0.11275(16) 0.58518(16) 0.37852(11)
H11_4 H 0.058413 0.574486 0.396516
C17_4 C 0.2706(2) 0.6066(2) 0.65020(13)
C18_4 C 0.19691(16) 0.63346(17) 0.29357(11)
H12_4 H 0.199509 0.655221 0.254760
C19_4 C 0.14473(19) 0.6724(3) 0.59379(16)
H13_4 H 0.159476 0.632316 0.561495
H14_4 H 0.081061 0.679746 0.594101
C20_4 C 0.29518(19) 0.5280(2) 0.62371(15)
H15_3 H 0.252864 0.485592 0.614448
C21_4 C 0.1877(2) 0.7614(2) 0.58192(13)
H16_4 H 0.172672 0.801973 0.613860
H17_4 H 0.251441 0.754444 0.581500
C22_4 C 0.1740(2) 0.6310(3) 0.65347(17)
H18_4 H 0.164559 0.672768 0.685715
H19_4 H 0.138966 0.578668 0.661593
O8_4 O 0.19287(11) 0.93642(13) 0.30682(7)
O9_4 O 0.19981(10) 0.95198(12) 0.20744(7)
O10_4 O 0.37520(11) 0.96338(11) 0.20789(8)
O11_4 O 0.46447(16) 0.64868(12) 0.03178(9)
N3_4 N 0.13550(13) 0.89940(13) 0.08735(8)
C24_4 C 0.41348(14) 0.72801(14) 0.11637(9)
C25_4 C 0.43194(15) 0.64345(14) 0.08321(10)
C26_4 C 0.42932(15) 0.80977(15) 0.09002(10)
H25_4 H 0.449836 0.812425 0.050899
C27_4 C 0.18809(17) 0.82912(17) 0.08338(11)
H26_4 H 0.202623 0.798803 0.118157
C28_4 C 0.38414(14) 0.88364(15) 0.18023(11)
C29_4 C 0.33145(15) 0.96682(18) 0.26483(12)
H27_4 H 0.357647 0.923498 0.292123
C30_4 C 0.23163(13) 0.94970(14) 0.25846(9)
C33_4 C 0.38152(16) 0.72595(15) 0.17453(10)
H30_4 H 0.369915 0.671745 0.192450
C34_4 C 0.22184(18) 0.79952(19) 0.02990(12)
H31_4 H 0.259030 0.750622 0.029156
C37_4 C 0.11612(18) 0.94172(17) 0.03656(10)
H33_4 H 0.080175 0.991454 0.038704
C39_4 C 0.41482(16) 0.88725(16) 0.12148(11)
H35_4 H 0.425514 0.941587 0.103484
C41_4 C 0.36654(17) 0.80309(16) 0.20643(11)
H36_4 H 0.344779 0.800491 0.245240
C31_4 C 0.35601(19) 0.5761(2) 0.84664(12)
H28_4 H 0.316546 0.532119 0.835176
C32_4 C 0.14642(19) 0.91579(19) 0.98125(11)
H29_4 H 0.130732 0.947153 0.947139
C35_4 C 0.20051(18) 0.84241(19) 0.97722(12)
C36_4 C 0.48714(18) 0.61669(17) 0.88893(13)
H32_3 H 0.539953 0.601321 0.907444
C38_4 C 0.3365(2) 0.6629(2) 0.83292(12)
H34_4 H 0.284956 0.676403 0.812274
C40_4 C 0.3934(2) 0.7294(2) 0.84980(13)
C42_4 C 0.3276(3) 0.85527(19) 0.90621(16)
H37_4 H 0.367684 0.840524 0.938505
H38_4 H 0.320254 0.918939 0.905899
C43_4 C 0.4720(2) 0.70482(19) 0.87629(15)
H39_3 H 0.514408 0.747136 0.885552
C44_4 C 0.2386(2) 0.8123(2) 0.91808(13)
H40_4 H 0.198027 0.827328 0.886140
H41_4 H 0.245556 0.748559 0.918500
C45_4 C 0.3690(3) 0.8260(2) 0.84653(17)
H42_4 H 0.327232 0.835441 0.814285
H43_4 H 0.421332 0.861034 0.838407
C23_4 C 0.9394(2) 0.6524(2) 0.21177(18)
H20_4 H 0.929976 0.590099 0.206869
H21_4 H 0.932189 0.681514 0.173979
H22_4 H 0.897302 0.675478 0.239790
H24_4 H 0.9594(10) 0.979(3) 0.252(2)
H32_4 H 0.101321 0.960047 0.657444
H39_4 H 0.247136 0.985592 0.635552
H8_4 H 0.960047 0.101321 0.342556
H15_4 H 0.985592 0.247136 0.364448
loop_
_geom_bond_atom_site_label_1
_geom_bond_atom_site_label_2
_geom_bond_site_symmetry_1
_geom_bond_site_symmetry_2
Co1 O1 1_555 1_555
O1 H23 1_555 1_555
O2 C2 1_555 1_555
O3 C7 1_555 1_555
O4 Co1 1_555 1_555
O5 C5 1_555 1_555
O6 C2 1_555 1_555
N1 Co1 1_555 1_555
N2 C8 1_555 1_555
C1 C2 1_555 1_555
C3 C1 1_555 1_555
H1 C3 1_555 1_555
C4 N1 1_555 1_555
H2 C4 1_555 1_555
C5 C16 1_555 1_555
C6 O5 1_555 1_555
H3 C6 1_555 1_555
C7 O4 1_555 1_555
C8 H4 1_555 1_555
C9 H5 1_555 1_555
C10 C1 1_555 1_555
H6 C10 1_555 1_555
C11 C4 1_555 1_555
H7 C11 1_555 1_555
C12 C9 1_555 1_555
C13 N2 1_555 1_555
C14 N1 1_555 1_555
H9 C14 1_555 1_555
C15 C8 1_555 1_555
H10 C15 1_555 1_555
C16 C3 1_555 1_555
H11 C16 1_555 1_555
C17 C15 1_555 1_555
C18 C5 1_555 1_555
H12 C18 1_555 1_555
C19 H13 1_555 1_555
H14 C19 1_555 1_555
C20 C13 1_555 1_555
C21 C12 1_555 1_555
H16 C21 1_555 1_555
H17 C21 1_555 1_555
C22 C17 1_555 1_555
H18 C22 1_555 1_555
H19 C22 1_555 1_555
C23 C6 1_555 1_555
H20 C23 1_555 1_555
H21 C23 1_555 1_555
H22 C23 1_555 1_555
H24 O1 1_555 1_555
Co2 O1 1_555 1_555
O7 C25 1_555 1_555
O8 Co1 1_555 1_555
O9 Co2 1_555 1_555
O10 C28 1_555 1_555
O11 C25 1_555 1_555
N3 Co2 1_555 1_555
N4 C31 1_555 1_555
C24 C25 1_555 1_555
C26 C24 1_555 1_555
H25 C26 1_555 1_555
C27 N3 1_555 1_555
H26 C27 1_555 1_555
C28 C39 1_555 1_555
C29 O10 1_555 1_555
H27 C29 1_555 1_555
C30 O8 1_555 1_555
C31 H28 1_555 1_555
C32 H29 1_555 1_555
C33 C24 1_555 1_555
H30 C33 1_555 1_555
C34 C27 1_555 1_555
H31 C34 1_555 1_555
C35 C32 1_555 1_555
C36 N4 1_555 1_555
C37 N3 1_555 1_555
H33 C37 1_555 1_555
C38 C31 1_555 1_555
H34 C38 1_555 1_555
C39 C26 1_555 1_555
H35 C39 1_555 1_555
C40 C38 1_555 1_555
C41 C28 1_555 1_555
H36 C41 1_555 1_555
C42 H37 1_555 1_555
H38 C42 1_555 1_555
C43 C36 1_555 1_555
C44 C35 1_555 1_555
H40 C44 1_555 1_555
H41 C44 1_555 1_555
C45 C40 1_555 1_555
H42 C45 1_555 1_555
H43 C45 1_555 1_555
C46 C29 1_555 1_555
H44 C46 1_555 1_555
H45 C46 1_555 1_555
H46 C46 1_555 1_555
O12 Co2 1_555 1_555
O13 Co1 1_555 1_555
N5 Co1 1_555 1_555
N6 Co2 1_555 1_555
O3 Co2 1_555 1_555
C6 C7 1_555 1_555
C9 C14 1_555 1_555
C10 C18 1_555 1_555
C11 C12 1_555 1_555
C17 C20 1_555 1_555
C19 C21 1_555 1_555
C19 C22 1_555 1_555
O9 C30 1_555 1_555
C29 C30 1_555 1_555
C32 C37 1_555 1_555
C33 C41 1_555 1_555
C34 C35 1_555 1_555
C40 C43 1_555 1_555
C42 C44 1_555 1_555
C42 C45 1_555 1_555
Co1_2 O1_2 1_555 1_555
O2_2 C2_2 1_555 1_555
O4_2 Co1_2 1_555 1_555
O5_2 C5_2 1_555 1_555
O6_2 C2_2 1_555 1_555
N1_2 Co1_2 1_555 1_555
N2_2 C8_2 1_555 1_555
C1_2 C2_2 1_555 1_555
C3_2 C1_2 1_555 1_555
H1_2 C3_2 1_555 1_555
C4_2 N1_2 1_555 1_555
H2_2 C4_2 1_555 1_555
C5_2 C16_2 1_555 1_555
C8_2 H4_2 1_555 1_555
C9_2 H5_2 1_555 1_555
C10_2 C1_2 1_555 1_555
H6_2 C10_2 1_555 1_555
C11_2 C4_2 1_555 1_555
H7_2 C11_2 1_555 1_555
C12_2 C9_2 1_555 1_555
C13_2 N2_2 1_555 1_555
C14_2 N1_2 1_555 1_555
H9_2 C14_2 1_555 1_555
C15_2 C8_2 1_555 1_555
H10_2 C15_2 1_555 1_555
C16_2 C3_2 1_555 1_555
H11_2 C16_2 1_555 1_555
C17_2 C15_2 1_555 1_555
C18_2 C5_2 1_555 1_555
H12_2 C18_2 1_555 1_555
C19_2 H13_2 1_555 1_555
H14_2 C19_2 1_555 1_555
C20_2 C13_2 1_555 1_555
C21_2 C12_2 1_555 1_555
H16_2 C21_2 1_555 1_555
H17_2 C21_2 1_555 1_555
C22_2 C17_2 1_555 1_555
H18_2 C22_2 1_555 1_555
H19_2 C22_2 1_555 1_555
H24_2 O1_2 1_555 1_555
O8_2 Co1_2 1_555 1_555
H27_2 C29_2 1_555 1_555
C30_2 O8_2 1_555 1_555
C46_2 C29_2 1_555 1_555
H44_2 C46_2 1_555 1_555
H45_2 C46_2 1_555 1_555
H46_2 C46_2 1_555 1_555
O13_2 Co1_2 1_555 1_555
N5_2 Co1_2 1_555 1_555
C9_2 C14_2 1_555 1_555
C10_2 C18_2 1_555 1_555
C11_2 C12_2 1_555 1_555
C17_2 C20_2 1_555 1_555
C19_2 C21_2 1_555 1_555
C19_2 C22_2 1_555 1_555
C29_2 C30_2 1_555 1_555
O1_3 H23_2 1_555 1_555
O3_2 C7_2 1_555 1_555
H3_2 C6_2 1_555 1_555
C23_2 C6_2 1_555 1_555
H20_2 C23_2 1_555 1_555
H21_2 C23_2 1_555 1_555
H22_2 C23_2 1_555 1_555
Co2_2 O1_3 1_555 1_555
O7_2 C25_2 1_555 1_555
O9_2 Co2_2 1_555 1_555
O10_2 C28_2 1_555 1_555
O11_2 C25_2 1_555 1_555
N3_2 Co2_2 1_555 1_555
N4_2 C31_2 1_555 1_555
C24_2 C25_2 1_555 1_555
C26_2 C24_2 1_555 1_555
H25_2 C26_2 1_555 1_555
C27_2 N3_2 1_555 1_555
H26_2 C27_2 1_555 1_555
C28_2 C39_2 1_555 1_555
C31_2 H28_2 1_555 1_555
C32_2 H29_2 1_555 1_555
C33_2 C24_2 1_555 1_555
H30_2 C33_2 1_555 1_555
C34_2 C27_2 1_555 1_555
H31_2 C34_2 1_555 1_555
C35_2 C32_2 1_555 1_555
C36_2 N4_2 1_555 1_555
C37_2 N3_2 1_555 1_555
H33_2 C37_2 1_555 1_555
C38_2 C31_2 1_555 1_555
H34_2 C38_2 1_555 1_555
C39_2 C26_2 1_555 1_555
H35_2 C39_2 1_555 1_555
C40_2 C38_2 1_555 1_555
C41_2 C28_2 1_555 1_555
H36_2 C41_2 1_555 1_555
C42_2 H37_2 1_555 1_555
H38_2 C42_2 1_555 1_555
C43_2 C36_2 1_555 1_555
C44_2 C35_2 1_555 1_555
H40_2 C44_2 1_555 1_555
H41_2 C44_2 1_555 1_555
C45_2 C40_2 1_555 1_555
H42_2 C45_2 1_555 1_555
H43_2 C45_2 1_555 1_555
O12_2 Co2_2 1_555 1_555
N6_2 Co2_2 1_555 1_555
O3_2 Co2_2 1_555 1_555
C6_2 C7_2 1_555 1_555
C32_2 C37_2 1_555 1_555
C33_2 C41_2 1_555 1_555
C34_2 C35_2 1_555 1_555
C40_2 C43_2 1_555 1_555
C42_2 C44_2 1_555 1_555
C42_2 C45_2 1_555 1_555
H20_3 C23_3 1_555 1_555
H21_3 C23_3 1_555 1_555
H22_3 C23_3 1_555 1_555
N5_2 C8_3 1_555 1_555
C8_3 H4_3 1_555 1_555
C9_3 H5_3 1_555 1_555
C12_3 C9_3 1_555 1_555
C13_3 N5_2 1_555 1_555
H8_2 C13_3 1_555 1_555
C15_3 C8_3 1_555 1_555
H10_3 C15_3 1_555 1_555
C17_3 C15_3 1_555 1_555
C19_3 H13_3 1_555 1_555
H14_3 C19_3 1_555 1_555
C20_3 C13_3 1_555 1_555
H15_2 C20_3 1_555 1_555
C21_3 C12_3 1_555 1_555
H16_3 C21_3 1_555 1_555
H17_3 C21_3 1_555 1_555
C22_3 C17_3 1_555 1_555
H18_3 C22_3 1_555 1_555
H19_3 C22_3 1_555 1_555
C17_3 C20_3 1_555 1_555
C19_3 C21_3 1_555 1_555
C19_3 C22_3 1_555 1_555
Co3 O1_4 1_555 1_555
O12_2 C2_3 1_555 1_555
O3_3 C7_3 1_555 1_555
O4_3 Co3 1_555 1_555
O5_3 C5_3 1_555 1_555
O6_3 C2_3 1_555 1_555
N1_3 Co3 1_555 1_555
C1_3 C2_3 1_555 1_555
C3_3 C1_3 1_555 1_555
H1_3 C3_3 1_555 1_555
C4_3 N1_3 1_555 1_555
H2_3 C4_3 1_555 1_555
C5_3 C16_3 1_555 1_555
C6_3 O5_3 1_555 1_555
H3_3 C6_3 1_555 1_555
C7_3 O4_3 1_555 1_555
C10_3 C1_3 1_555 1_555
H6_3 C10_3 1_555 1_555
C11_3 C4_3 1_555 1_555
H7_3 C11_3 1_555 1_555
C14_3 N1_3 1_555 1_555
H9_3 C14_3 1_555 1_555
C16_3 C3_3 1_555 1_555
H11_3 C16_3 1_555 1_555
C18_3 C5_3 1_555 1_555
H12_3 C18_3 1_555 1_555
Co5 O1_4 1_555 1_555
O13 C25_3 1_555 1_555
O8_3 Co3 1_555 1_555
O9_3 Co5 1_555 1_555
O10_3 C28_3 1_555 1_555
O11_3 C25_3 1_555 1_555
N3_3 Co5 1_555 1_555
N6 C31_3 1_555 1_555
C24_3 C25_3 1_555 1_555
C26_3 C24_3 1_555 1_555
H25_3 C26_3 1_555 1_555
C27_3 N3_3 1_555 1_555
H26_3 C27_3 1_555 1_555
C28_3 C39_3 1_555 1_555
C29_3 O10_3 1_555 1_555
H27_3 C29_3 1_555 1_555
C30_3 O8_3 1_555 1_555
C31_3 H28_3 1_555 1_555
C32_3 H29_3 1_555 1_555
C33_3 C24_3 1_555 1_555
H30_3 C33_3 1_555 1_555
C34_3 C27_3 1_555 1_555
H31_3 C34_3 1_555 1_555
C35_3 C32_3 1_555 1_555
C36_3 N6 1_555 1_555
H32_2 C36_3 1_555 1_555
C37_3 N3_3 1_555 1_555
H33_3 C37_3 1_555 1_555
C38_3 C31_3 1_555 1_555
H34_3 C38_3 1_555 1_555
C39_3 C26_3 1_555 1_555
H35_3 C39_3 1_555 1_555
C40_3 C38_3 1_555 1_555
C41_3 C28_3 1_555 1_555
H36_3 C41_3 1_555 1_555
C42_3 H37_3 1_555 1_555
H38_3 C42_3 1_555 1_555
C43_3 C36_3 1_555 1_555
H39_2 C43_3 1_555 1_555
C44_3 C35_3 1_555 1_555
H40_3 C44_3 1_555 1_555
H41_3 C44_3 1_555 1_555
C45_3 C40_3 1_555 1_555
H42_3 C45_3 1_555 1_555
H43_3 C45_3 1_555 1_555
O3_3 Co5 1_555 1_555
C6_3 C7_3 1_555 1_555
C10_3 C18_3 1_555 1_555
O9_3 C30_3 1_555 1_555
C29_3 C30_3 1_555 1_555
C32_3 C37_3 1_555 1_555
C33_3 C41_3 1_555 1_555
C34_3 C35_3 1_555 1_555
C40_3 C43_3 1_555 1_555
C42_3 C44_3 1_555 1_555
C42_3 C45_3 1_555 1_555
H44_3 C46_3 1_555 1_555
H45_3 C46_3 1_555 1_555
H46_3 C46_3 1_555 1_555
H44_4 C46_4 1_555 1_555
H45_4 C46_4 1_555 1_555
H46_4 C46_4 1_555 1_555
Co4 O1_5 1_555 1_555
O12 C2_4 1_555 1_555
O3_4 C7_4 1_555 1_555
O4_4 Co4 1_555 1_555
O5_4 C5_4 1_555 1_555
O6_4 C2_4 1_555 1_555
N1_4 Co4 1_555 1_555
N5 C8_4 1_555 1_555
C1_4 C2_4 1_555 1_555
C3_4 C1_4 1_555 1_555
H1_4 C3_4 1_555 1_555
C4_4 N1_4 1_555 1_555
H2_4 C4_4 1_555 1_555
C5_4 C16_4 1_555 1_555
C6_4 O5_4 1_555 1_555
H3_4 C6_4 1_555 1_555
C7_4 O4_4 1_555 1_555
C8_4 H4_4 1_555 1_555
C9_4 H5_4 1_555 1_555
C10_4 C1_4 1_555 1_555
H6_4 C10_4 1_555 1_555
C11_4 C4_4 1_555 1_555
H7_4 C11_4 1_555 1_555
C12_4 C9_4 1_555 1_555
C13_4 N5 1_555 1_555
H8_3 C13_4 1_555 1_555
C14_4 N1_4 1_555 1_555
H9_4 C14_4 1_555 1_555
C15_4 C8_4 1_555 1_555
H10_4 C15_4 1_555 1_555
C16_4 C3_4 1_555 1_555
H11_4 C16_4 1_555 1_555
C17_4 C15_4 1_555 1_555
C18_4 C5_4 1_555 1_555
H12_4 C18_4 1_555 1_555
C19_4 H13_4 1_555 1_555
H14_4 C19_4 1_555 1_555
C20_4 C13_4 1_555 1_555
H15_3 C20_4 1_555 1_555
C21_4 C12_4 1_555 1_555
H16_4 C21_4 1_555 1_555
H17_4 C21_4 1_555 1_555
C22_4 C17_4 1_555 1_555
H18_4 C22_4 1_555 1_555
H19_4 C22_4 1_555 1_555
Co6 O1_5 1_555 1_555
O13_2 C25_4 1_555 1_555
O8_4 Co4 1_555 1_555
O9_4 Co6 1_555 1_555
O10_4 C28_4 1_555 1_555
O11_4 C25_4 1_555 1_555
N3_4 Co6 1_555 1_555
C24_4 C25_4 1_555 1_555
C26_4 C24_4 1_555 1_555
H25_4 C26_4 1_555 1_555
C27_4 N3_4 1_555 1_555
H26_4 C27_4 1_555 1_555
C28_4 C39_4 1_555 1_555
C29_4 O10_4 1_555 1_555
H27_4 C29_4 1_555 1_555
C30_4 O8_4 1_555 1_555
C33_4 C24_4 1_555 1_555
H30_4 C33_4 1_555 1_555
C34_4 C27_4 1_555 1_555
H31_4 C34_4 1_555 1_555
C37_4 N3_4 1_555 1_555
H33_4 C37_4 1_555 1_555
C39_4 C26_4 1_555 1_555
H35_4 C39_4 1_555 1_555
C41_4 C28_4 1_555 1_555
H36_4 C41_4 1_555 1_555
O3_4 Co6 1_555 1_555
C6_4 C7_4 1_555 1_555
C9_4 C14_4 1_555 1_555
C10_4 C18_4 1_555 1_555
C11_4 C12_4 1_555 1_555
C17_4 C20_4 1_555 1_555
C19_4 C21_4 1_555 1_555
C19_4 C22_4 1_555 1_555
O9_4 C30_4 1_555 1_555
C29_4 C30_4 1_555 1_555
C33_4 C41_4 1_555 1_555
N6_2 C31_4 1_555 1_555
C31_4 H28_4 1_555 1_555
C32_4 H29_4 1_555 1_555
C35_4 C32_4 1_555 1_555
C36_4 N6_2 1_555 1_555
H32_3 C36_4 1_555 1_555
C38_4 C31_4 1_555 1_555
H34_4 C38_4 1_555 1_555
C40_4 C38_4 1_555 1_555
C42_4 H37_4 1_555 1_555
H38_4 C42_4 1_555 1_555
C43_4 C36_4 1_555 1_555
H39_3 C43_4 1_555 1_555
C44_4 C35_4 1_555 1_555
H40_4 C44_4 1_555 1_555
H41_4 C44_4 1_555 1_555
C45_4 C40_4 1_555 1_555
H42_4 C45_4 1_555 1_555
H43_4 C45_4 1_555 1_555
C40_4 C43_4 1_555 1_555
C42_4 C44_4 1_555 1_555
C42_4 C45_4 1_555 1_555
H20_4 C23_4 1_555 1_555
H21_4 C23_4 1_555 1_555
H22_4 C23_4 1_555 1_555

#END
