
###############################################################################
#
# This file contains modified crystal structure data generated from the
# MOF subset of the Cambridge Structural Database (CSD) v543 
# hosted by the Cambridge Crystallographic Data Centre (CCDC).
#
# This work is licensed under the Creative Commons
# Attribution-NonCommercial-ShareAlike 4.0 International License.
# To view a copy of this license, visit
# http://creativecommons.org/licenses/by-nc-sa/4.0/
# or send a letter to
# Creative Commons, PO Box 1866, Mountain View, CA 94042, USA.
#
# CIF created using the CSD Python API on 29 September 2022
# The structure has been converted into the P1 space group
# The structure has a 3D framework
# The original CSD entry YATDUV is in the cubic crystal system
# The framework has been calculated to contain at least 10.0% void space
# The void calculation uses a probe of radius 1.32A, grid spacing 0.4
# H atom positions have been added when not included in the experimental data
#
###############################################################################

data_YATDUV
_chemical_formula_moiety         '(C96 H144 N56 O56 Zn24)n'
_symmetry_cell_setting           triclinic
_symmetry_space_group_name_H-M   'P 1'
_symmetry_Int_Tables_number      1
_space_group_name_Hall           'P 1'
loop_
_symmetry_equiv_pos_site_id
_symmetry_equiv_pos_as_xyz
1 x,y,z
_cell_length_a                   20.07875(17)
_cell_length_b                   20.07875(17)
_cell_length_c                   20.07875(17)
_cell_angle_alpha                90
_cell_angle_beta                 90
_cell_angle_gamma                90
_cell_volume                     8094.87
loop_
_atom_site_label
_atom_site_type_symbol
_atom_site_fract_x
_atom_site_fract_y
_atom_site_fract_z
Zn1 Zn 0.25119(2) 0.27053(2) 0.14570(2)
O1 O 0.20120(11) 0.20120(11) 0.20120(11)
N1 N 0.34264(16) 0.24318(16) 0.17105(18)
C1 C 0.4021(2) 0.2689(2) 0.1594(2)
H1 H 0.4105 0.3036 0.1299
C2 C 0.45015(19) 0.2367(2) 0.1973(2)
N2 N 0.35026(15) 0.19397(18) 0.21748(17)
O2 O 0.54899(16) 0.29235(19) 0.1648(2)
C3 C 0.5218(2) 0.2503(2) 0.2007(3)
C4 C 0.4147(2) 0.1897(2) 0.2328(2)
H2 H 0.4330 0.1596 0.2629
O3 O 0.55496(15) 0.21668(18) 0.24317(18)
Zn2 Zn 0.14570(2) 0.25119(2) 0.27053(2)
N3 N 0.17105(18) 0.34264(16) 0.24318(16)
C5 C 0.1594(2) 0.4021(2) 0.2689(2)
H3 H 0.1299 0.4105 0.3036
C6 C 0.1973(2) 0.45015(19) 0.2367(2)
N4 N 0.21748(17) 0.35026(15) 0.19397(18)
O4 O 0.1648(2) 0.54899(16) 0.29235(19)
C7 C 0.2007(3) 0.5218(2) 0.2503(2)
C8 C 0.2328(2) 0.4147(2) 0.1897(2)
H4 H 0.2629 0.4330 0.1596
O5 O 0.24317(18) 0.55496(15) 0.21668(18)
Zn3 Zn 0.27053(2) 0.14570(2) 0.25119(2)
N5 N 0.24318(16) 0.17105(18) 0.34264(16)
C9 C 0.2689(2) 0.1594(2) 0.4021(2)
H5 H 0.3036 0.1299 0.4105
C10 C 0.2367(2) 0.1973(2) 0.45015(19)
N6 N 0.19397(18) 0.21748(17) 0.35026(15)
O6 O 0.29235(19) 0.1648(2) 0.54899(16)
C11 C 0.2503(2) 0.2007(3) 0.5218(2)
C12 C 0.1897(2) 0.2328(2) 0.4147(2)
H6 H 0.1596 0.2629 0.4330
O7 O 0.21668(18) 0.24317(18) 0.55496(15)
Zn4 Zn 0.64570(2) 0.25119(2) 0.22947(2)
Zn5 Zn 0.22947(2) 0.64570(2) 0.25119(2)
Zn6 Zn 0.25119(2) 0.22947(2) 0.64570(2)
O8 O 0.3352(2) 0.04899(16) 0.29235(19)
O9 O 0.29235(19) 0.3352(2) 0.04899(16)
O10 O 0.04899(16) 0.29235(19) 0.3352(2)
O11 O 0.25683(18) 0.05496(15) 0.21668(18)
O12 O 0.21668(18) 0.25683(18) 0.05496(15)
O13 O 0.05496(15) 0.21668(18) 0.25683(18)
O2_2 O 0.20765(19) 0.8352(2) 0.04899(16)
C3_2 C 0.2497(2) 0.7993(3) 0.0218(2)
O3_2 O 0.28332(18) 0.75683(18) 0.05496(15)
Zn4_2 Zn 0.24881(2) 0.77053(2) 0.14570(2)
Zn1_2 Zn 0.22947(2) 0.85430(2) 0.75119(2)
O1_2 O 0.29880(11) 0.79880(11) 0.70120(11)
N1_2 N 0.25682(16) 0.82895(18) 0.84264(16)
C1_2 C 0.2311(2) 0.8406(2) 0.9021(2)
H1_2 H 0.1964 0.8701 0.9105
C2_2 C 0.2633(2) 0.8027(2) 0.95015(19)
N2_2 N 0.30603(18) 0.78252(17) 0.85026(15)
C4_2 C 0.3103(2) 0.7672(2) 0.9147(2)
H2_2 H 0.3404 0.7371 0.9330
Zn2_2 Zn 0.24881(2) 0.72947(2) 0.64570(2)
N3_2 N 0.15736(16) 0.75682(16) 0.67105(18)
C5_2 C 0.0979(2) 0.7311(2) 0.6594(2)
H3_2 H 0.0895 0.6964 0.6299
C6_2 C 0.04985(19) 0.7633(2) 0.6973(2)
N4_2 N 0.14974(15) 0.80603(18) 0.71748(17)
C8_2 C 0.0853(2) 0.8103(2) 0.7328(2)
H4_2 H 0.0670 0.8404 0.7629
Zn3_2 Zn 0.35430(2) 0.74881(2) 0.77053(2)
N5_2 N 0.32895(18) 0.65736(16) 0.74318(16)
C9_2 C 0.3406(2) 0.5979(2) 0.7689(2)
H5_2 H 0.3701 0.5895 0.8036
C10_2 C 0.3027(2) 0.54985(19) 0.7367(2)
N6_2 N 0.28252(17) 0.64974(15) 0.69397(18)
O6_2 O 0.3352(2) 0.45101(16) 0.79235(19)
C11_2 C 0.2993(3) 0.4782(2) 0.7503(2)
C12_2 C 0.2672(2) 0.5853(2) 0.6897(2)
H6_2 H 0.2371 0.5670 0.6596
O7_2 O 0.25683(18) 0.44504(15) 0.71668(18)
Zn6_2 Zn 0.27053(2) 0.35430(2) 0.75119(2)
O8_2 O 0.45101(16) 0.70765(19) 0.8352(2)
O9_2 O 0.1648(2) 0.95101(16) 0.79235(19)
O10_2 O 0.20765(19) 0.6648(2) 0.54899(16)
O11_2 O 0.44504(15) 0.78332(18) 0.75683(18)
O12_2 O 0.24317(18) 0.94504(15) 0.71668(18)
O13_2 O 0.28332(18) 0.74317(18) 0.55496(15)
O4_2 O 0.95101(16) 0.70765(19) 0.6648(2)
C7_2 C 0.9782(2) 0.7497(2) 0.7007(3)
O5_2 O 0.94504(15) 0.78332(18) 0.74317(18)
Zn5_2 Zn 0.85430(2) 0.74881(2) 0.72947(2)
O6_3 O 0.04899(16) 0.20765(19) 0.8352(2)
C11_3 C 0.0218(2) 0.2497(2) 0.7993(3)
O7_3 O 0.05496(15) 0.28332(18) 0.75683(18)
Zn6_3 Zn 0.14570(2) 0.24881(2) 0.77053(2)
Zn1_3 Zn 0.64570(2) 0.24881(2) 0.72947(2)
O1_3 O 0.70120(11) 0.29880(11) 0.79880(11)
N1_3 N 0.67105(18) 0.15736(16) 0.75682(16)
C1_3 C 0.6594(2) 0.0979(2) 0.7311(2)
H1_3 H 0.6299 0.0895 0.6964
C2_3 C 0.6973(2) 0.04985(19) 0.7633(2)
N2_3 N 0.71748(17) 0.14974(15) 0.80603(18)
C4_3 C 0.7328(2) 0.0853(2) 0.8103(2)
H2_3 H 0.7629 0.0670 0.8404
Zn2_3 Zn 0.77053(2) 0.35430(2) 0.74881(2)
N3_3 N 0.74318(16) 0.32895(18) 0.65736(16)
C5_3 C 0.7689(2) 0.3406(2) 0.5979(2)
H3_3 H 0.8036 0.3701 0.5895
C6_3 C 0.7367(2) 0.3027(2) 0.54985(19)
N4_3 N 0.69397(18) 0.28252(17) 0.64974(15)
O4_3 O 0.79235(19) 0.3352(2) 0.45101(16)
C7_3 C 0.7503(2) 0.2993(3) 0.4782(2)
C8_3 C 0.6897(2) 0.2672(2) 0.5853(2)
H4_3 H 0.6596 0.2371 0.5670
O5_3 O 0.71668(18) 0.25683(18) 0.44504(15)
Zn3_3 Zn 0.75119(2) 0.22947(2) 0.85430(2)
N5_3 N 0.84264(16) 0.25682(16) 0.82895(18)
C9_3 C 0.9021(2) 0.2311(2) 0.8406(2)
H5_3 H 0.9105 0.1964 0.8701
C10_3 C 0.95015(19) 0.2633(2) 0.8027(2)
N6_3 N 0.85026(15) 0.30603(18) 0.78252(17)
C12_3 C 0.9147(2) 0.3103(2) 0.7672(2)
H6_3 H 0.9330 0.3404 0.7371
Zn5_3 Zn 0.75119(2) 0.27053(2) 0.35430(2)
O8_3 O 0.79235(19) 0.1648(2) 0.95101(16)
O9_3 O 0.54899(16) 0.20765(19) 0.6648(2)
O10_3 O 0.8352(2) 0.45101(16) 0.70765(19)
O11_3 O 0.71668(18) 0.24317(18) 0.94504(15)
O12_3 O 0.55496(15) 0.28332(18) 0.74317(18)
O13_3 O 0.75683(18) 0.44504(15) 0.78332(18)
O2_3 O 0.6648(2) 0.95101(16) 0.70765(19)
C3_3 C 0.7007(3) 0.9782(2) 0.7497(2)
O3_3 O 0.74317(18) 0.94504(15) 0.78332(18)
Zn4_3 Zn 0.72947(2) 0.85430(2) 0.74881(2)
O6_4 O 0.8352(2) 0.04899(16) 0.20765(19)
C11_4 C 0.7993(3) 0.0218(2) 0.2497(2)
O7_4 O 0.75683(18) 0.05496(15) 0.28332(18)
Zn6_4 Zn 0.77053(2) 0.14570(2) 0.24881(2)
Zn1_4 Zn 0.72947(2) 0.64570(2) 0.24881(2)
O1_4 O 0.79880(11) 0.70120(11) 0.29880(11)
N1_4 N 0.75682(16) 0.67105(18) 0.15736(16)
C1_4 C 0.7311(2) 0.6594(2) 0.0979(2)
H1_4 H 0.6964 0.6299 0.0895
C2_4 C 0.7633(2) 0.6973(2) 0.04985(19)
N2_4 N 0.80603(18) 0.71748(17) 0.14974(15)
C4_4 C 0.8103(2) 0.7328(2) 0.0853(2)
H2_4 H 0.8404 0.7629 0.0670
Zn2_4 Zn 0.74881(2) 0.77053(2) 0.35430(2)
N3_4 N 0.65736(16) 0.74318(16) 0.32895(18)
C5_4 C 0.5979(2) 0.7689(2) 0.3406(2)
H3_4 H 0.5895 0.8036 0.3701
C6_4 C 0.54985(19) 0.7367(2) 0.3027(2)
N4_4 N 0.64974(15) 0.69397(18) 0.28252(17)
O4_4 O 0.45101(16) 0.79235(19) 0.3352(2)
C7_4 C 0.4782(2) 0.7503(2) 0.2993(3)
C8_4 C 0.5853(2) 0.6897(2) 0.2672(2)
H4_4 H 0.5670 0.6596 0.2371
O5_4 O 0.44504(15) 0.71668(18) 0.25683(18)
Zn3_4 Zn 0.85430(2) 0.75119(2) 0.22947(2)
N5_4 N 0.82895(18) 0.84264(16) 0.25682(16)
C9_4 C 0.8406(2) 0.9021(2) 0.2311(2)
H5_4 H 0.8701 0.9105 0.1964
C10_4 C 0.8027(2) 0.95015(19) 0.2633(2)
N6_4 N 0.78252(17) 0.85026(15) 0.30603(18)
C12_4 C 0.7672(2) 0.9147(2) 0.3103(2)
H6_4 H 0.7371 0.9330 0.3404
Zn5_4 Zn 0.35430(2) 0.75119(2) 0.27053(2)
O8_4 O 0.95101(16) 0.79235(19) 0.1648(2)
O9_4 O 0.6648(2) 0.54899(16) 0.20765(19)
O10_4 O 0.70765(19) 0.8352(2) 0.45101(16)
O11_4 O 0.94504(15) 0.71668(18) 0.24317(18)
O12_4 O 0.74317(18) 0.55496(15) 0.28332(18)
O13_4 O 0.78332(18) 0.75683(18) 0.44504(15)
O2_4 O 0.70765(19) 0.6648(2) 0.95101(16)
C3_4 C 0.7497(2) 0.7007(3) 0.9782(2)
O3_4 O 0.78332(18) 0.74317(18) 0.94504(15)
Zn4_4 Zn 0.74881(2) 0.72947(2) 0.85430(2)
O1_5 O 0.79880(11) 0.79880(11) 0.79880(11)
N1_5 N 0.65736(16) 0.75682(16) 0.82895(18)
C1_5 C 0.5979(2) 0.7311(2) 0.8406(2)
H1_5 H 0.5895 0.6964 0.8701
C2_5 C 0.54985(19) 0.7633(2) 0.8027(2)
N2_5 N 0.64974(15) 0.80603(18) 0.78252(17)
C3_5 C 0.4782(2) 0.7497(2) 0.7993(3)
C4_5 C 0.5853(2) 0.8103(2) 0.7672(2)
H2_5 H 0.5670 0.8404 0.7371
N3_5 N 0.82895(18) 0.65736(16) 0.75682(16)
C5_5 C 0.8406(2) 0.5979(2) 0.7311(2)
H3_5 H 0.8701 0.5895 0.6964
C6_5 C 0.8027(2) 0.54985(19) 0.7633(2)
N4_5 N 0.78252(17) 0.64974(15) 0.80603(18)
C7_5 C 0.7993(3) 0.4782(2) 0.7497(2)
C8_5 C 0.7672(2) 0.5853(2) 0.8103(2)
H4_5 H 0.7371 0.5670 0.8404
N5_5 N 0.75682(16) 0.82895(18) 0.65736(16)
C9_5 C 0.7311(2) 0.8406(2) 0.5979(2)
H5_5 H 0.6964 0.8701 0.5895
C10_5 C 0.7633(2) 0.8027(2) 0.54985(19)
N6_5 N 0.80603(18) 0.78252(17) 0.64974(15)
C11_5 C 0.7497(2) 0.7993(3) 0.4782(2)
C12_5 C 0.8103(2) 0.7672(2) 0.5853(2)
H6_5 H 0.8404 0.7371 0.5670
C7_6 C 0.0218(2) 0.2503(2) 0.2993(3)
O1_6 O 0.70120(11) 0.20120(11) 0.29880(11)
N1_6 N 0.74318(16) 0.17105(18) 0.15736(16)
C1_6 C 0.7689(2) 0.1594(2) 0.0979(2)
H1_6 H 0.8036 0.1299 0.0895
C2_6 C 0.7367(2) 0.1973(2) 0.04985(19)
N2_6 N 0.69397(18) 0.21748(17) 0.14974(15)
C4_6 C 0.6897(2) 0.2328(2) 0.0853(2)
H2_6 H 0.6596 0.2629 0.0670
N3_6 N 0.84264(16) 0.24318(16) 0.32895(18)
C5_6 C 0.9021(2) 0.2689(2) 0.3406(2)
H3_6 H 0.9105 0.3036 0.3701
C6_6 C 0.95015(19) 0.2367(2) 0.3027(2)
N4_6 N 0.85026(15) 0.19397(18) 0.28252(17)
C8_6 C 0.9147(2) 0.1897(2) 0.2672(2)
H4_6 H 0.9330 0.1596 0.2371
N5_6 N 0.67105(18) 0.34264(16) 0.25682(16)
C9_6 C 0.6594(2) 0.4021(2) 0.2311(2)
H5_6 H 0.6299 0.4105 0.1964
C10_6 C 0.6973(2) 0.45015(19) 0.2633(2)
N6_6 N 0.71748(17) 0.35026(15) 0.30603(18)
C11_6 C 0.7007(3) 0.5218(2) 0.2497(2)
C12_6 C 0.7328(2) 0.4147(2) 0.3103(2)
H6_6 H 0.7629 0.4330 0.3404
C3_6 C 0.7503(2) 0.2007(3) 0.9782(2)
C3_7 C 0.2993(3) 0.0218(2) 0.2503(2)
O1_7 O 0.29880(11) 0.70120(11) 0.20120(11)
N1_7 N 0.32895(18) 0.84264(16) 0.24318(16)
C1_7 C 0.3406(2) 0.9021(2) 0.2689(2)
H1_7 H 0.3701 0.9105 0.3036
C2_7 C 0.3027(2) 0.95015(19) 0.2367(2)
N2_7 N 0.28252(17) 0.85026(15) 0.19397(18)
C4_7 C 0.2672(2) 0.9147(2) 0.1897(2)
H2_7 H 0.2371 0.9330 0.1596
N3_7 N 0.25682(16) 0.67105(18) 0.34264(16)
C5_7 C 0.2311(2) 0.6594(2) 0.4021(2)
H3_7 H 0.1964 0.6299 0.4105
C6_7 C 0.2633(2) 0.6973(2) 0.45015(19)
N4_7 N 0.30603(18) 0.71748(17) 0.35026(15)
C7_7 C 0.2497(2) 0.7007(3) 0.5218(2)
C8_7 C 0.3103(2) 0.7328(2) 0.4147(2)
H4_7 H 0.3404 0.7629 0.4330
N5_7 N 0.15736(16) 0.74318(16) 0.17105(18)
C9_7 C 0.0979(2) 0.7689(2) 0.1594(2)
H5_7 H 0.0895 0.8036 0.1299
C10_7 C 0.04985(19) 0.7367(2) 0.1973(2)
N6_7 N 0.14974(15) 0.69397(18) 0.21748(17)
C12_7 C 0.0853(2) 0.6897(2) 0.2328(2)
H6_7 H 0.0670 0.6596 0.2629
C11_7 C 0.9782(2) 0.7503(2) 0.2007(3)
C3_8 C 0.2503(2) 0.2993(3) 0.0218(2)
O1_8 O 0.20120(11) 0.29880(11) 0.70120(11)
N1_8 N 0.24318(16) 0.32895(18) 0.84264(16)
C1_8 C 0.2689(2) 0.3406(2) 0.9021(2)
H1_8 H 0.3036 0.3701 0.9105
C2_8 C 0.2367(2) 0.3027(2) 0.95015(19)
N2_8 N 0.19397(18) 0.28252(17) 0.85026(15)
C4_8 C 0.1897(2) 0.2672(2) 0.9147(2)
H2_8 H 0.1596 0.2371 0.9330
N3_8 N 0.34264(16) 0.25682(16) 0.67105(18)
C5_8 C 0.4021(2) 0.2311(2) 0.6594(2)
H3_8 H 0.4105 0.1964 0.6299
C6_8 C 0.45015(19) 0.2633(2) 0.6973(2)
N4_8 N 0.35026(15) 0.30603(18) 0.71748(17)
C7_8 C 0.5218(2) 0.2497(2) 0.7007(3)
C8_8 C 0.4147(2) 0.3103(2) 0.7328(2)
H4_8 H 0.4330 0.3404 0.7629
N5_8 N 0.17105(18) 0.15736(16) 0.74318(16)
C9_8 C 0.1594(2) 0.0979(2) 0.7689(2)
H5_8 H 0.1299 0.0895 0.8036
C10_8 C 0.1973(2) 0.04985(19) 0.7367(2)
N6_8 N 0.21748(17) 0.14974(15) 0.69397(18)
C12_8 C 0.2328(2) 0.0853(2) 0.6897(2)
H6_8 H 0.2629 0.0670 0.6596
C11_8 C 0.2007(3) 0.9782(2) 0.7503(2)
N7 N 0.1223(5) 0.1223(5) 0.1223(5)
H7 H 0.172851 0.1223 0.1223
H8 H 0.10545 0.163575 0.0984701
H9 H 0.10545 0.0810253 0.0984701
H10 H 0.10545 0.1223 0.16996
H7_2 H 0.1223 0.172851 0.1223
H8_2 H 0.0984701 0.10545 0.163575
H9_2 H 0.0984701 0.10545 0.0810253
H10_2 H 0.16996 0.10545 0.1223
H7_3 H 0.1223 0.1223 0.172851
H8_3 H 0.163575 0.0984701 0.10545
H9_3 H 0.0810253 0.0984701 0.10545
H10_3 H 0.1223 0.16996 0.10545
N7_2 N 0.3777(5) 0.8777(5) 0.6223(5)
H7_4 H 0.3777 0.8777 0.672851
H8_4 H 0.336425 0.90153 0.60545
H9_4 H 0.418975 0.90153 0.60545
H10_4 H 0.3777 0.83004 0.60545
H7_5 H 0.3777 0.827149 0.6223
H8_5 H 0.40153 0.89455 0.663575
H9_5 H 0.40153 0.89455 0.581025
H10_5 H 0.33004 0.89455 0.6223
H7_6 H 0.327149 0.8777 0.6223
H8_6 H 0.39455 0.836425 0.59847
H9_6 H 0.39455 0.918975 0.59847
H10_6 H 0.39455 0.8777 0.66996
N7_3 N 0.6223(5) 0.3777(5) 0.8777(5)
H7_7 H 0.6223 0.327149 0.8777
H8_7 H 0.59847 0.39455 0.836425
H9_7 H 0.59847 0.39455 0.918975
H10_7 H 0.66996 0.39455 0.8777
H7_8 H 0.6223 0.3777 0.827149
H8_8 H 0.663575 0.40153 0.89455
H9_8 H 0.581025 0.40153 0.89455
H10_8 H 0.6223 0.33004 0.89455
H7_9 H 0.672851 0.3777 0.8777
H8_9 H 0.60545 0.336425 0.90153
H9_9 H 0.60545 0.418975 0.90153
H10_9 H 0.60545 0.3777 0.83004
N7_4 N 0.8777(5) 0.6223(5) 0.3777(5)
H7_10 H 0.8777 0.6223 0.327149
H8_10 H 0.836425 0.59847 0.39455
H9_10 H 0.918975 0.59847 0.39455
H10_10 H 0.8777 0.66996 0.39455
H7_11 H 0.8777 0.672851 0.3777
H8_11 H 0.90153 0.60545 0.336425
H9_11 H 0.90153 0.60545 0.418975
H10_11 H 0.83004 0.60545 0.3777
H7_12 H 0.827149 0.6223 0.3777
H8_12 H 0.89455 0.663575 0.40153
H9_12 H 0.89455 0.581025 0.40153
H10_12 H 0.89455 0.6223 0.33004
N7_5 N 0.8777(5) 0.8777(5) 0.8777(5)
H7_13 H 0.827149 0.8777 0.8777
H8_13 H 0.89455 0.836425 0.90153
H9_13 H 0.89455 0.918975 0.90153
H10_13 H 0.89455 0.8777 0.83004
H7_14 H 0.8777 0.827149 0.8777
H8_14 H 0.90153 0.89455 0.836425
H9_14 H 0.90153 0.89455 0.918975
H10_14 H 0.83004 0.89455 0.8777
H7_15 H 0.8777 0.8777 0.827149
H8_15 H 0.836425 0.90153 0.89455
H9_15 H 0.918975 0.90153 0.89455
H10_15 H 0.8777 0.83004 0.89455
N7_6 N 0.6223(5) 0.1223(5) 0.3777(5)
H7_16 H 0.6223 0.1223 0.327149
H8_16 H 0.663575 0.0984701 0.39455
H9_16 H 0.581025 0.0984701 0.39455
H10_16 H 0.6223 0.16996 0.39455
H7_17 H 0.6223 0.172851 0.3777
H8_17 H 0.59847 0.10545 0.336425
H9_17 H 0.59847 0.10545 0.418975
H10_17 H 0.66996 0.10545 0.3777
H7_18 H 0.672851 0.1223 0.3777
H8_18 H 0.60545 0.163575 0.40153
H9_18 H 0.60545 0.0810253 0.40153
H10_18 H 0.60545 0.1223 0.33004
N7_7 N 0.3777(5) 0.6223(5) 0.1223(5)
H7_19 H 0.3777 0.672851 0.1223
H8_19 H 0.40153 0.60545 0.163575
H9_19 H 0.40153 0.60545 0.0810253
H10_19 H 0.33004 0.60545 0.1223
H7_20 H 0.3777 0.6223 0.172851
H8_20 H 0.336425 0.59847 0.10545
H9_20 H 0.418975 0.59847 0.10545
H10_20 H 0.3777 0.66996 0.10545
H7_21 H 0.327149 0.6223 0.1223
H8_21 H 0.39455 0.663575 0.0984701
H9_21 H 0.39455 0.581025 0.0984701
H10_21 H 0.39455 0.6223 0.16996
N7_8 N 0.1223(5) 0.3777(5) 0.6223(5)
H7_22 H 0.1223 0.3777 0.672851
H8_22 H 0.163575 0.40153 0.60545
H9_22 H 0.0810253 0.40153 0.60545
H10_22 H 0.1223 0.33004 0.60545
H7_23 H 0.1223 0.327149 0.6223
H8_23 H 0.0984701 0.39455 0.663575
H9_23 H 0.0984701 0.39455 0.581025
H10_23 H 0.16996 0.39455 0.6223
H7_24 H 0.172851 0.3777 0.6223
H8_24 H 0.10545 0.336425 0.59847
H9_24 H 0.10545 0.418975 0.59847
H10_24 H 0.10545 0.3777 0.66996
loop_
_geom_bond_atom_site_label_1
_geom_bond_atom_site_label_2
_geom_bond_site_symmetry_1
_geom_bond_site_symmetry_2
Zn1 O1 1_555 1_555
O1 Zn2 1_555 1_555
N1 Zn1 1_555 1_555
C1 N1 1_555 1_555
H1 C1 1_555 1_555
C2 C1 1_555 1_555
N2 N1 1_555 1_555
O2 C3 1_555 1_555
C3 C2 1_555 1_555
C4 C2 1_555 1_555
H2 C4 1_555 1_555
O3 C3 1_555 1_555
Zn2 N3 1_555 1_555
N3 C5 1_555 1_555
C5 H3 1_555 1_555
C6 C5 1_555 1_555
N4 Zn1 1_555 1_555
O4 C7 1_555 1_555
C7 C6 1_555 1_555
C8 C6 1_555 1_555
H4 C8 1_555 1_555
O5 C7 1_555 1_555
Zn3 O1 1_555 1_555
N5 Zn3 1_555 1_555
C9 N5 1_555 1_555
H5 C9 1_555 1_555
C10 C9 1_555 1_555
N6 Zn2 1_555 1_555
O6 C11 1_555 1_555
C11 C10 1_555 1_555
C12 C10 1_555 1_555
H6 C12 1_555 1_555
O7 C11 1_555 1_555
Zn4 O2 1_555 1_555
Zn5 O4 1_555 1_555
Zn6 O6 1_555 1_555
O8 Zn3 1_555 1_555
O9 Zn1 1_555 1_555
O10 Zn2 1_555 1_555
O11 Zn3 1_555 1_555
O12 Zn1 1_555 1_555
O13 Zn2 1_555 1_555
N2 C4 1_555 1_555
N2 Zn3 1_555 1_555
O3 Zn4 1_555 1_555
N3 N4 1_555 1_555
N4 C8 1_555 1_555
O5 Zn5 1_555 1_555
N5 N6 1_555 1_555
N6 C12 1_555 1_555
O7 Zn6 1_555 1_555
O2_2 C3_2 1_555 1_555
O3_2 C3_2 1_555 1_555
Zn4_2 O2_2 1_555 1_555
O3_2 Zn4_2 1_555 1_555
Zn1_2 O1_2 1_555 1_555
O1_2 Zn2_2 1_555 1_555
N1_2 Zn1_2 1_555 1_555
C1_2 N1_2 1_555 1_555
H1_2 C1_2 1_555 1_555
C2_2 C1_2 1_555 1_555
N2_2 N1_2 1_555 1_555
C4_2 C2_2 1_555 1_555
H2_2 C4_2 1_555 1_555
Zn2_2 N3_2 1_555 1_555
N3_2 C5_2 1_555 1_555
C5_2 H3_2 1_555 1_555
C6_2 C5_2 1_555 1_555
N4_2 Zn1_2 1_555 1_555
C8_2 C6_2 1_555 1_555
H4_2 C8_2 1_555 1_555
Zn3_2 O1_2 1_555 1_555
N5_2 Zn3_2 1_555 1_555
C9_2 N5_2 1_555 1_555
H5_2 C9_2 1_555 1_555
C10_2 C9_2 1_555 1_555
N6_2 Zn2_2 1_555 1_555
O6_2 C11_2 1_555 1_555
C11_2 C10_2 1_555 1_555
C12_2 C10_2 1_555 1_555
H6_2 C12_2 1_555 1_555
O7_2 C11_2 1_555 1_555
Zn6_2 O6_2 1_555 1_555
O8_2 Zn3_2 1_555 1_555
O9_2 Zn1_2 1_555 1_555
O10_2 Zn2_2 1_555 1_555
O11_2 Zn3_2 1_555 1_555
O12_2 Zn1_2 1_555 1_555
O13_2 Zn2_2 1_555 1_555
N2_2 C4_2 1_555 1_555
N2_2 Zn3_2 1_555 1_555
N3_2 N4_2 1_555 1_555
N4_2 C8_2 1_555 1_555
N5_2 N6_2 1_555 1_555
N6_2 C12_2 1_555 1_555
O7_2 Zn6_2 1_555 1_555
O4_2 C7_2 1_555 1_555
O5_2 C7_2 1_555 1_555
Zn5_2 O4_2 1_555 1_555
O5_2 Zn5_2 1_555 1_555
O6_3 C11_3 1_555 1_555
O7_3 C11_3 1_555 1_555
Zn6_3 O6_3 1_555 1_555
O7_3 Zn6_3 1_555 1_555
Zn1_3 O1_3 1_555 1_555
O1_3 Zn2_3 1_555 1_555
N1_3 Zn1_3 1_555 1_555
C1_3 N1_3 1_555 1_555
H1_3 C1_3 1_555 1_555
C2_3 C1_3 1_555 1_555
N2_3 N1_3 1_555 1_555
C4_3 C2_3 1_555 1_555
H2_3 C4_3 1_555 1_555
Zn2_3 N3_3 1_555 1_555
N3_3 C5_3 1_555 1_555
C5_3 H3_3 1_555 1_555
C6_3 C5_3 1_555 1_555
N4_3 Zn1_3 1_555 1_555
O4_3 C7_3 1_555 1_555
C7_3 C6_3 1_555 1_555
C8_3 C6_3 1_555 1_555
H4_3 C8_3 1_555 1_555
O5_3 C7_3 1_555 1_555
Zn3_3 O1_3 1_555 1_555
N5_3 Zn3_3 1_555 1_555
C9_3 N5_3 1_555 1_555
H5_3 C9_3 1_555 1_555
C10_3 C9_3 1_555 1_555
N6_3 Zn2_3 1_555 1_555
C12_3 C10_3 1_555 1_555
H6_3 C12_3 1_555 1_555
Zn5_3 O4_3 1_555 1_555
O8_3 Zn3_3 1_555 1_555
O9_3 Zn1_3 1_555 1_555
O10_3 Zn2_3 1_555 1_555
O11_3 Zn3_3 1_555 1_555
O12_3 Zn1_3 1_555 1_555
O13_3 Zn2_3 1_555 1_555
N2_3 C4_3 1_555 1_555
N2_3 Zn3_3 1_555 1_555
N3_3 N4_3 1_555 1_555
N4_3 C8_3 1_555 1_555
O5_3 Zn5_3 1_555 1_555
N5_3 N6_3 1_555 1_555
N6_3 C12_3 1_555 1_555
O2_3 C3_3 1_555 1_555
O3_3 C3_3 1_555 1_555
Zn4_3 O2_3 1_555 1_555
O3_3 Zn4_3 1_555 1_555
O6_4 C11_4 1_555 1_555
O7_4 C11_4 1_555 1_555
Zn6_4 O6_4 1_555 1_555
O7_4 Zn6_4 1_555 1_555
Zn1_4 O1_4 1_555 1_555
O1_4 Zn2_4 1_555 1_555
N1_4 Zn1_4 1_555 1_555
C1_4 N1_4 1_555 1_555
H1_4 C1_4 1_555 1_555
C2_4 C1_4 1_555 1_555
N2_4 N1_4 1_555 1_555
C4_4 C2_4 1_555 1_555
H2_4 C4_4 1_555 1_555
Zn2_4 N3_4 1_555 1_555
N3_4 C5_4 1_555 1_555
C5_4 H3_4 1_555 1_555
C6_4 C5_4 1_555 1_555
N4_4 Zn1_4 1_555 1_555
O4_4 C7_4 1_555 1_555
C7_4 C6_4 1_555 1_555
C8_4 C6_4 1_555 1_555
H4_4 C8_4 1_555 1_555
O5_4 C7_4 1_555 1_555
Zn3_4 O1_4 1_555 1_555
N5_4 Zn3_4 1_555 1_555
C9_4 N5_4 1_555 1_555
H5_4 C9_4 1_555 1_555
C10_4 C9_4 1_555 1_555
N6_4 Zn2_4 1_555 1_555
C12_4 C10_4 1_555 1_555
H6_4 C12_4 1_555 1_555
Zn5_4 O4_4 1_555 1_555
O8_4 Zn3_4 1_555 1_555
O9_4 Zn1_4 1_555 1_555
O10_4 Zn2_4 1_555 1_555
O11_4 Zn3_4 1_555 1_555
O12_4 Zn1_4 1_555 1_555
O13_4 Zn2_4 1_555 1_555
N2_4 C4_4 1_555 1_555
N2_4 Zn3_4 1_555 1_555
N3_4 N4_4 1_555 1_555
N4_4 C8_4 1_555 1_555
O5_4 Zn5_4 1_555 1_555
N5_4 N6_4 1_555 1_555
N6_4 C12_4 1_555 1_555
O2_4 C3_4 1_555 1_555
O3_4 C3_4 1_555 1_555
Zn4_4 O2_4 1_555 1_555
O3_4 Zn4_4 1_555 1_555
Zn4_4 O1_5 1_555 1_555
O1_5 Zn5_2 1_555 1_555
N1_5 Zn4_4 1_555 1_555
C1_5 N1_5 1_555 1_555
H1_5 C1_5 1_555 1_555
C2_5 C1_5 1_555 1_555
N2_5 N1_5 1_555 1_555
O8_2 C3_5 1_555 1_555
C3_5 C2_5 1_555 1_555
C4_5 C2_5 1_555 1_555
H2_5 C4_5 1_555 1_555
O11_2 C3_5 1_555 1_555
Zn5_2 N3_5 1_555 1_555
N3_5 C5_5 1_555 1_555
C5_5 H3_5 1_555 1_555
C6_5 C5_5 1_555 1_555
N4_5 Zn4_4 1_555 1_555
O10_3 C7_5 1_555 1_555
C7_5 C6_5 1_555 1_555
C8_5 C6_5 1_555 1_555
H4_5 C8_5 1_555 1_555
O13_3 C7_5 1_555 1_555
Zn4_3 O1_5 1_555 1_555
N5_5 Zn4_3 1_555 1_555
C9_5 N5_5 1_555 1_555
H5_5 C9_5 1_555 1_555
C10_5 C9_5 1_555 1_555
N6_5 Zn5_2 1_555 1_555
O10_4 C11_5 1_555 1_555
C11_5 C10_5 1_555 1_555
C12_5 C10_5 1_555 1_555
H6_5 C12_5 1_555 1_555
O13_4 C11_5 1_555 1_555
N2_5 C4_5 1_555 1_555
N2_5 Zn4_3 1_555 1_555
N3_5 N4_5 1_555 1_555
N4_5 C8_5 1_555 1_555
N5_5 N6_5 1_555 1_555
N6_5 C12_5 1_555 1_555
O10 C7_6 1_555 1_555
O13 C7_6 1_555 1_555
Zn6_4 O1_6 1_555 1_555
O1_6 Zn5_3 1_555 1_555
N1_6 Zn6_4 1_555 1_555
C1_6 N1_6 1_555 1_555
H1_6 C1_6 1_555 1_555
C2_6 C1_6 1_555 1_555
N2_6 N1_6 1_555 1_555
C4_6 C2_6 1_555 1_555
H2_6 C4_6 1_555 1_555
Zn5_3 N3_6 1_555 1_555
N3_6 C5_6 1_555 1_555
C5_6 H3_6 1_555 1_555
C6_6 C5_6 1_555 1_555
N4_6 Zn6_4 1_555 1_555
C8_6 C6_6 1_555 1_555
H4_6 C8_6 1_555 1_555
Zn4 O1_6 1_555 1_555
N5_6 Zn4 1_555 1_555
C9_6 N5_6 1_555 1_555
H5_6 C9_6 1_555 1_555
C10_6 C9_6 1_555 1_555
N6_6 Zn5_3 1_555 1_555
O9_4 C11_6 1_555 1_555
C11_6 C10_6 1_555 1_555
C12_6 C10_6 1_555 1_555
H6_6 C12_6 1_555 1_555
O12_4 C11_6 1_555 1_555
N2_6 C4_6 1_555 1_555
N2_6 Zn4 1_555 1_555
N3_6 N4_6 1_555 1_555
N4_6 C8_6 1_555 1_555
N5_6 N6_6 1_555 1_555
N6_6 C12_6 1_555 1_555
O8_3 C3_6 1_555 1_555
O11_3 C3_6 1_555 1_555
O8 C3_7 1_555 1_555
O11 C3_7 1_555 1_555
Zn5_4 O1_7 1_555 1_555
O1_7 Zn5 1_555 1_555
N1_7 Zn5_4 1_555 1_555
C1_7 N1_7 1_555 1_555
H1_7 C1_7 1_555 1_555
C2_7 C1_7 1_555 1_555
N2_7 N1_7 1_555 1_555
C4_7 C2_7 1_555 1_555
H2_7 C4_7 1_555 1_555
Zn5 N3_7 1_555 1_555
N3_7 C5_7 1_555 1_555
C5_7 H3_7 1_555 1_555
C6_7 C5_7 1_555 1_555
N4_7 Zn5_4 1_555 1_555
O10_2 C7_7 1_555 1_555
C7_7 C6_7 1_555 1_555
C8_7 C6_7 1_555 1_555
H4_7 C8_7 1_555 1_555
O13_2 C7_7 1_555 1_555
Zn4_2 O1_7 1_555 1_555
N5_7 Zn4_2 1_555 1_555
C9_7 N5_7 1_555 1_555
H5_7 C9_7 1_555 1_555
C10_7 C9_7 1_555 1_555
N6_7 Zn5 1_555 1_555
C12_7 C10_7 1_555 1_555
H6_7 C12_7 1_555 1_555
N2_7 C4_7 1_555 1_555
N2_7 Zn4_2 1_555 1_555
N3_7 N4_7 1_555 1_555
N4_7 C8_7 1_555 1_555
N5_7 N6_7 1_555 1_555
N6_7 C12_7 1_555 1_555
O8_4 C11_7 1_555 1_555
O11_4 C11_7 1_555 1_555
O9 C3_8 1_555 1_555
O12 C3_8 1_555 1_555
Zn6_2 O1_8 1_555 1_555
O1_8 Zn6 1_555 1_555
N1_8 Zn6_2 1_555 1_555
C1_8 N1_8 1_555 1_555
H1_8 C1_8 1_555 1_555
C2_8 C1_8 1_555 1_555
N2_8 N1_8 1_555 1_555
C4_8 C2_8 1_555 1_555
H2_8 C4_8 1_555 1_555
Zn6 N3_8 1_555 1_555
N3_8 C5_8 1_555 1_555
C5_8 H3_8 1_555 1_555
C6_8 C5_8 1_555 1_555
N4_8 Zn6_2 1_555 1_555
O9_3 C7_8 1_555 1_555
C7_8 C6_8 1_555 1_555
C8_8 C6_8 1_555 1_555
H4_8 C8_8 1_555 1_555
O12_3 C7_8 1_555 1_555
Zn6_3 O1_8 1_555 1_555
N5_8 Zn6_3 1_555 1_555
C9_8 N5_8 1_555 1_555
H5_8 C9_8 1_555 1_555
C10_8 C9_8 1_555 1_555
N6_8 Zn6 1_555 1_555
C12_8 C10_8 1_555 1_555
H6_8 C12_8 1_555 1_555
N2_8 C4_8 1_555 1_555
N2_8 Zn6_3 1_555 1_555
N3_8 N4_8 1_555 1_555
N4_8 C8_8 1_555 1_555
N5_8 N6_8 1_555 1_555
N6_8 C12_8 1_555 1_555
O9_2 C11_8 1_555 1_555
O12_2 C11_8 1_555 1_555
N7 H7 1_555 1_555
N7 H8 1_555 1_555
N7 H9 1_555 1_555
N7 H10 1_555 1_555
N7 H7_2 1_555 1_555
N7 H8_2 1_555 1_555
N7 H9_2 1_555 1_555
N7 H10_2 1_555 1_555
N7 H7_3 1_555 1_555
N7 H8_3 1_555 1_555
N7 H9_3 1_555 1_555
N7 H10_3 1_555 1_555
N7_2 H7_4 1_555 1_555
N7_2 H8_4 1_555 1_555
N7_2 H9_4 1_555 1_555
N7_2 H10_4 1_555 1_555
N7_2 H7_5 1_555 1_555
N7_2 H8_5 1_555 1_555
N7_2 H9_5 1_555 1_555
N7_2 H10_5 1_555 1_555
N7_2 H7_6 1_555 1_555
N7_2 H8_6 1_555 1_555
N7_2 H9_6 1_555 1_555
N7_2 H10_6 1_555 1_555
N7_3 H7_7 1_555 1_555
N7_3 H8_7 1_555 1_555
N7_3 H9_7 1_555 1_555
N7_3 H10_7 1_555 1_555
N7_3 H7_8 1_555 1_555
N7_3 H8_8 1_555 1_555
N7_3 H9_8 1_555 1_555
N7_3 H10_8 1_555 1_555
N7_3 H7_9 1_555 1_555
N7_3 H8_9 1_555 1_555
N7_3 H9_9 1_555 1_555
N7_3 H10_9 1_555 1_555
N7_4 H7_10 1_555 1_555
N7_4 H8_10 1_555 1_555
N7_4 H9_10 1_555 1_555
N7_4 H10_10 1_555 1_555
N7_4 H7_11 1_555 1_555
N7_4 H8_11 1_555 1_555
N7_4 H9_11 1_555 1_555
N7_4 H10_11 1_555 1_555
N7_4 H7_12 1_555 1_555
N7_4 H8_12 1_555 1_555
N7_4 H9_12 1_555 1_555
N7_4 H10_12 1_555 1_555
N7_5 H7_13 1_555 1_555
N7_5 H8_13 1_555 1_555
N7_5 H9_13 1_555 1_555
N7_5 H10_13 1_555 1_555
N7_5 H7_14 1_555 1_555
N7_5 H8_14 1_555 1_555
N7_5 H9_14 1_555 1_555
N7_5 H10_14 1_555 1_555
N7_5 H7_15 1_555 1_555
N7_5 H8_15 1_555 1_555
N7_5 H9_15 1_555 1_555
N7_5 H10_15 1_555 1_555
N7_6 H7_16 1_555 1_555
N7_6 H8_16 1_555 1_555
N7_6 H9_16 1_555 1_555
N7_6 H10_16 1_555 1_555
N7_6 H7_17 1_555 1_555
N7_6 H8_17 1_555 1_555
N7_6 H9_17 1_555 1_555
N7_6 H10_17 1_555 1_555
N7_6 H7_18 1_555 1_555
N7_6 H8_18 1_555 1_555
N7_6 H9_18 1_555 1_555
N7_6 H10_18 1_555 1_555
N7_7 H7_19 1_555 1_555
N7_7 H8_19 1_555 1_555
N7_7 H9_19 1_555 1_555
N7_7 H10_19 1_555 1_555
N7_7 H7_20 1_555 1_555
N7_7 H8_20 1_555 1_555
N7_7 H9_20 1_555 1_555
N7_7 H10_20 1_555 1_555
N7_7 H7_21 1_555 1_555
N7_7 H8_21 1_555 1_555
N7_7 H9_21 1_555 1_555
N7_7 H10_21 1_555 1_555
N7_8 H7_22 1_555 1_555
N7_8 H8_22 1_555 1_555
N7_8 H9_22 1_555 1_555
N7_8 H10_22 1_555 1_555
N7_8 H7_23 1_555 1_555
N7_8 H8_23 1_555 1_555
N7_8 H9_23 1_555 1_555
N7_8 H10_23 1_555 1_555
N7_8 H7_24 1_555 1_555
N7_8 H8_24 1_555 1_555
N7_8 H9_24 1_555 1_555
N7_8 H10_24 1_555 1_555

#END
