
###############################################################################
#
# This file contains modified crystal structure data generated from the
# MOF subset of the Cambridge Structural Database (CSD) v543 
# hosted by the Cambridge Crystallographic Data Centre (CCDC).
#
# This work is licensed under the Creative Commons
# Attribution-NonCommercial-ShareAlike 4.0 International License.
# To view a copy of this license, visit
# http://creativecommons.org/licenses/by-nc-sa/4.0/
# or send a letter to
# Creative Commons, PO Box 1866, Mountain View, CA 94042, USA.
#
# CIF created using the CSD Python API on 29 September 2022
# The structure has been converted into the P1 space group
# The structure has a 3D framework
# The original CSD entry YATVUN is in the orthorhombic crystal system
# The framework has been calculated to contain at least 10.0% void space
# The void calculation uses a probe of radius 1.32A, grid spacing 0.4
# The framework is charged, counterions have been retained in the structure
#
###############################################################################

data_YATVUN
_chemical_formula_moiety         '(C200 H136 Co8 F24 N40 O20 Si4 1-)n'
_symmetry_cell_setting           triclinic
_symmetry_space_group_name_H-M   'P 1'
_symmetry_Int_Tables_number      1
_space_group_name_Hall           'P 1'
loop_
_symmetry_equiv_pos_site_id
_symmetry_equiv_pos_as_xyz
1 x,y,z
_cell_length_a                   21.879(2)
_cell_length_b                   23.701(3)
_cell_length_c                   19.687(2)
_cell_angle_alpha                90
_cell_angle_beta                 90
_cell_angle_gamma                90
_cell_volume                     10208.8
loop_
_atom_site_label
_atom_site_type_symbol
_atom_site_fract_x
_atom_site_fract_y
_atom_site_fract_z
Si1 Si 0.4382(3) 0.7500 0.6765(4)
F1 F 0.4876(5) 0.7500 0.6111(6)
F2 F 0.3806(4) 0.7500 0.6196(5)
F3 F 0.4378(4) 0.6801(3) 0.6747(4)
F4 F 0.3879(3) 0.7500 0.7390(4)
F5 F 0.4956(4) 0.7500 0.7291(5)
F6 F 0.4378(4) 0.8199(3) 0.6747(4)
Si1_2 Si 0.0618(3) 0.2500 0.1765(4)
F1_2 F 0.0124(5) 0.2500 0.1111(6)
F2_2 F 0.1194(4) 0.2500 0.1196(5)
F3_2 F 0.0622(4) 0.3199(3) 0.1747(4)
F4_2 F 0.1121(3) 0.2500 0.2390(4)
F5_2 F 0.0044(4) 0.2500 0.2291(5)
F6_2 F 0.0622(4) 0.1801(3) 0.1747(4)
Si1_3 Si 0.5618(3) 0.2500 0.3235(4)
F1_3 F 0.5124(5) 0.2500 0.3889(6)
F2_3 F 0.6194(4) 0.2500 0.3804(5)
F3_3 F 0.5622(4) 0.1801(3) 0.3253(4)
F4_3 F 0.6121(3) 0.2500 0.2610(4)
F5_3 F 0.5044(4) 0.2500 0.2709(5)
F6_3 F 0.5622(4) 0.3199(3) 0.3253(4)
Si1_4 Si 0.9382(3) 0.7500 0.8235(4)
F1_4 F 0.9876(5) 0.7500 0.8889(6)
F2_4 F 0.8806(4) 0.7500 0.8804(5)
F3_4 F 0.9378(4) 0.8199(3) 0.8253(4)
F4_4 F 0.8879(3) 0.7500 0.7610(4)
F5_4 F 0.9956(4) 0.7500 0.7709(5)
F6_4 F 0.9378(4) 0.6801(3) 0.8253(4)
Co8 Co 0.37450(3) 0.17709(3) 0.01616(3)
C46 C 0.3552(2) 0.0027(2) 0.8784(3)
C47 C 0.4121(5) 0.0277(5) 0.8913(6)
H30 H 0.4477 0.0118 0.8740
C48 C 0.3047(5) 0.0294(5) 0.9097(8)
H31 H 0.2659 0.0140 0.9050
C49 C 0.4148(5) 0.0763(5) 0.9301(6)
H32 H 0.4525 0.0938 0.9352
C50 C 0.3124(5) 0.0773(5) 0.9468(6)
H33 H 0.2781 0.0957 0.9636
N10 N 0.36761(19) 0.0988(2) 0.9597(2)
Co3 Co 0.37450(3) 0.32291(3) 0.01616(3)
Co1 Co 0.12550(3) 0.67709(3) 0.51616(3)
C1 C 0.2402(8) 0.6673(7) 0.6014(9)
H1 H 0.2524 0.6937 0.5692
C2 C 0.1713(8) 0.6054(7) 0.6410(9)
H2 H 0.1340 0.5870 0.6361
C3 C 0.2820(5) 0.6534(5) 0.6537(6)
H3 H 0.3201 0.6708 0.6559
C4 C 0.2084(6) 0.5906(6) 0.6936(7)
H4 H 0.1950 0.5642 0.7252
C5 C 0.2656(3) 0.6144(3) 0.7005(3)
C6 C 0.3065(3) 0.5970(3) 0.7561(4)
C7 C 0.3819(2) 0.5965(3) 0.8298(3)
C8 C 0.3484(3) 0.5467(3) 0.8356(3)
C9 C 0.4373(3) 0.6143(2) 0.8632(3)
C10 C 0.4530(8) 0.6699(8) 0.8746(13)
H5 H 0.4277 0.6984 0.8583
C11 C 0.4825(5) 0.5754(5) 0.8832(6)
H6 H 0.4762 0.5373 0.8744
C12 C 0.5042(7) 0.6837(6) 0.9086(11)
H7 H 0.5110 0.7217 0.9176
C13 C 0.5349(6) 0.5912(5) 0.9147(6)
H8 H 0.5641 0.5643 0.9261
C14 C 0.3552(2) 0.4973(2) 0.8784(3)
C15 C 0.4121(5) 0.4723(5) 0.8913(6)
H9 H 0.4477 0.4882 0.8740
C16 C 0.3047(5) 0.4706(5) 0.9097(8)
H10 H 0.2659 0.4860 0.9050
C17 C 0.4148(5) 0.4237(5) 0.9301(6)
H11 H 0.4525 0.4062 0.9352
C18 C 0.3124(5) 0.4227(5) 0.9468(6)
H12 H 0.2781 0.4043 0.9636
C19 C 0.2199(3) 0.7500 0.4424(4)
C20 C 0.2701(3) 0.7500 0.3889(4)
C21 C 0.2848(6) 0.7003(5) 0.3527(6)
H13 H 0.2634 0.6672 0.3619
C22 C 0.3298(5) 0.6999(4) 0.3046(6)
H14 H 0.3392 0.6668 0.2816
C23 C 0.3617(4) 0.7500 0.2901(5)
C24 C 0.4102(5) 0.7500 0.2349(5)
C25 C 0.4402(10) 0.7014(4) 0.2169(13)
H15 H 0.4297 0.6678 0.2385
C26 C 0.4847(11) 0.7004(6) 0.1683(13)
H16 H 0.5034 0.6665 0.1567
C27 C 0.5021(4) 0.7500 0.1364(5)
C28 C 0.5500(3) 0.7500 0.0812(4)
N1 N 0.18706(19) 0.64600(19) 0.5955(2)
N2 N 0.3539(2) 0.6272(2) 0.7801(3)
H17 H 0.3647 0.6602 0.7664
N3 N 0.3003(3) 0.5495(2) 0.7895(3)
N4 N 0.54479(19) 0.6481(2) 0.9299(2)
N5 N 0.36761(19) 0.4012(2) 0.9597(2)
O1 O 0.20197(16) 0.70315(16) 0.4618(2)
O2 O 0.12079(17) 0.7500 0.5686(2)
O3 O 0.56734(18) 0.79663(16) 0.0596(2)
C29 C 0.2848(6) 0.7997(5) 0.3527(6)
H18 H 0.2634 0.8328 0.3619
C30 C 0.3298(5) 0.8001(4) 0.3046(6)
H19 H 0.3392 0.8332 0.2816
C31 C 0.4402(10) 0.7986(4) 0.2169(13)
H20 H 0.4297 0.8322 0.2385
C32 C 0.4847(11) 0.7996(6) 0.1683(13)
H21 H 0.5034 0.8335 0.1567
O4 O 0.20197(16) 0.79685(16) 0.4618(2)
O5 O 0.56734(18) 0.70337(16) 0.0596(2)
Co2 Co 0.12550(3) 0.82291(3) 0.51616(3)
C33 C 0.2402(8) 0.8327(7) 0.6014(9)
H22 H 0.2524 0.8063 0.5692
C34 C 0.1713(8) 0.8946(7) 0.6410(9)
H23 H 0.1340 0.9130 0.6361
C35 C 0.2820(5) 0.8466(5) 0.6537(6)
H24 H 0.3201 0.8292 0.6559
C36 C 0.2084(6) 0.9094(6) 0.6936(7)
H25 H 0.1950 0.9358 0.7252
C37 C 0.2656(3) 0.8856(3) 0.7005(3)
C38 C 0.3065(3) 0.9030(3) 0.7561(4)
C39 C 0.3819(2) 0.9035(3) 0.8298(3)
C40 C 0.3484(3) 0.9533(3) 0.8356(3)
C41 C 0.4373(3) 0.8857(2) 0.8632(3)
C42 C 0.4530(8) 0.8301(8) 0.8746(13)
H26 H 0.4277 0.8016 0.8583
C43 C 0.4825(5) 0.9246(5) 0.8832(6)
H27 H 0.4762 0.9627 0.8744
C44 C 0.5042(7) 0.8163(6) 0.9086(11)
H28 H 0.5110 0.7783 0.9176
C45 C 0.5349(6) 0.9088(5) 0.9147(6)
H29 H 0.5641 0.9357 0.9261
N6 N 0.18706(19) 0.85400(19) 0.5955(2)
N7 N 0.3539(2) 0.8728(2) 0.7801(3)
H34 H 0.3647 0.8398 0.7664
N8 N 0.3003(3) 0.9505(2) 0.7895(3)
N9 N 0.54479(19) 0.8519(2) 0.9299(2)
Co5 Co 0.62550(3) 0.82291(3) 0.98384(3)
Co7 Co 0.62550(3) 0.67709(3) 0.98384(3)
N11 N 0.04479(19) 0.8519(2) 0.5701(2)
N12 N 0.04479(19) 0.6481(2) 0.5701(2)
N13 N 0.13239(19) 0.5988(2) 0.4597(2)
N14 N 0.13239(19) 0.9012(2) 0.4597(2)
O6 O 0.06734(18) 0.70337(16) 0.4404(2)
O7 O 0.06734(18) 0.79663(16) 0.4404(2)
C1_2 C 0.2598(8) 0.3327(7) 0.1014(9)
H1_2 H 0.2476 0.3063 0.0692
C2_2 C 0.3287(8) 0.3946(7) 0.1410(9)
H2_2 H 0.3660 0.4130 0.1361
C3_2 C 0.2180(5) 0.3466(5) 0.1537(6)
H3_2 H 0.1799 0.3292 0.1559
C4_2 C 0.2916(6) 0.4094(6) 0.1936(7)
H4_2 H 0.3050 0.4358 0.2252
C5_2 C 0.2344(3) 0.3856(3) 0.2005(3)
C6_2 C 0.1935(3) 0.4030(3) 0.2561(4)
C7_2 C 0.1181(2) 0.4035(3) 0.3298(3)
C8_2 C 0.1516(3) 0.4533(3) 0.3356(3)
C9_2 C 0.0627(3) 0.3857(2) 0.3632(3)
C10_2 C 0.0470(8) 0.3301(8) 0.3746(13)
H5_2 H 0.0723 0.3016 0.3583
C11_2 C 0.0175(5) 0.4246(5) 0.3832(6)
H6_2 H 0.0238 0.4627 0.3744
C14_2 C 0.1448(2) 0.5027(2) 0.3784(3)
C15_2 C 0.0879(5) 0.5277(5) 0.3913(6)
H9_2 H 0.0523 0.5118 0.3740
C16_2 C 0.1953(5) 0.5294(5) 0.4097(8)
H10_2 H 0.2341 0.5140 0.4050
C17_2 C 0.0852(5) 0.5763(5) 0.4301(6)
H11_2 H 0.0475 0.5938 0.4352
C18_2 C 0.1876(5) 0.5773(5) 0.4468(6)
H12_2 H 0.2219 0.5957 0.4636
N1_2 N 0.31294(19) 0.35400(19) 0.0955(2)
N2_2 N 0.1461(2) 0.3728(2) 0.2801(3)
H17_2 H 0.1353 0.3398 0.2664
N3_2 N 0.1997(3) 0.4505(2) 0.2895(3)
O2_2 O 0.37921(17) 0.2500 0.0686(2)
C33_2 C 0.2598(8) 0.1673(7) 0.1014(9)
H22_2 H 0.2476 0.1937 0.0692
C34_2 C 0.3287(8) 0.1054(7) 0.1410(9)
H23_2 H 0.3660 0.0870 0.1361
C35_2 C 0.2180(5) 0.1534(5) 0.1537(6)
H24_2 H 0.1799 0.1708 0.1559
C36_2 C 0.2916(6) 0.0906(6) 0.1936(7)
H25_2 H 0.3050 0.0642 0.2252
C37_2 C 0.2344(3) 0.1144(3) 0.2005(3)
C38_2 C 0.1935(3) 0.0970(3) 0.2561(4)
C39_2 C 0.1181(2) 0.0965(3) 0.3298(3)
C40_2 C 0.1516(3) 0.0467(3) 0.3356(3)
C41_2 C 0.0627(3) 0.1143(2) 0.3632(3)
C42_2 C 0.0470(8) 0.1699(8) 0.3746(13)
H26_2 H 0.0723 0.1984 0.3583
C43_2 C 0.0175(5) 0.0754(5) 0.3832(6)
H27_2 H 0.0238 0.0373 0.3744
N6_2 N 0.31294(19) 0.14600(19) 0.0955(2)
N7_2 N 0.1461(2) 0.1272(2) 0.2801(3)
H34_2 H 0.1353 0.1602 0.2664
N8_2 N 0.1997(3) 0.0495(2) 0.2895(3)
N11_2 N 0.45521(19) 0.1481(2) 0.0701(2)
N12_2 N 0.45521(19) 0.3519(2) 0.0701(2)
C19_2 C 0.2801(3) 0.2500 0.9424(4)
C20_2 C 0.2299(3) 0.2500 0.8889(4)
C21_2 C 0.2152(6) 0.2997(5) 0.8527(6)
H13_2 H 0.2366 0.3328 0.8619
C22_2 C 0.1702(5) 0.3001(4) 0.8046(6)
H14_2 H 0.1608 0.3332 0.7816
C23_2 C 0.1383(4) 0.2500 0.7901(5)
C24_2 C 0.0898(5) 0.2500 0.7349(5)
C25_2 C 0.0598(10) 0.2986(4) 0.7169(13)
H15_2 H 0.0703 0.3322 0.7385
C26_2 C 0.0153(11) 0.2996(6) 0.6683(13)
O1_2 O 0.29803(16) 0.29685(16) 0.9618(2)
C29_2 C 0.2152(6) 0.2003(5) 0.8527(6)
H18_2 H 0.2366 0.1672 0.8619
C30_2 C 0.1702(5) 0.1999(4) 0.8046(6)
H19_2 H 0.1608 0.1668 0.7816
C31_2 C 0.0598(10) 0.2014(4) 0.7169(13)
H20_2 H 0.0703 0.1678 0.7385
C32_2 C 0.0153(11) 0.2004(6) 0.6683(13)
O4_2 O 0.29803(16) 0.20315(16) 0.9618(2)
O6_2 O 0.43266(18) 0.29663(16) 0.9404(2)
O7_2 O 0.43266(18) 0.20337(16) 0.9404(2)
C46_2 C 0.1448(2) 0.9973(2) 0.3784(3)
C47_2 C 0.0879(5) 0.9723(5) 0.3913(6)
H30_2 H 0.0523 0.9882 0.3740
C48_2 C 0.1953(5) 0.9706(5) 0.4097(8)
H31_2 H 0.2341 0.9860 0.4050
C49_2 C 0.0852(5) 0.9237(5) 0.4301(6)
H32_2 H 0.0475 0.9062 0.4352
C50_2 C 0.1876(5) 0.9227(5) 0.4468(6)
H33_2 H 0.2219 0.9043 0.4636
C12_2 C 0.9958(7) 0.3163(6) 0.4086(11)
H7_2 H 0.9890 0.2783 0.4176
C13_2 C 0.9651(6) 0.4088(5) 0.4147(6)
H8_2 H 0.9359 0.4357 0.4261
N4_2 N 0.95521(19) 0.3519(2) 0.4299(2)
C44_2 C 0.9958(7) 0.1837(6) 0.4086(11)
H28_2 H 0.9890 0.2217 0.4176
C45_2 C 0.9651(6) 0.0912(5) 0.4147(6)
H29_2 H 0.9359 0.0643 0.4261
N9_2 N 0.95521(19) 0.1481(2) 0.4299(2)
Co5_2 Co 0.87450(3) 0.17709(3) 0.48384(3)
Co7_2 Co 0.87450(3) 0.32291(3) 0.48384(3)
H16_2 H 0.9966 0.3335 0.6567
C27_2 C 0.9979(4) 0.2500 0.6364(5)
C28_2 C 0.9500(3) 0.2500 0.5812(4)
O3_2 O 0.93266(18) 0.20337(16) 0.5596(2)
H21_2 H 0.9966 0.1665 0.6567
O5_2 O 0.93266(18) 0.29663(16) 0.5596(2)
C1_3 C 0.7598(8) 0.1673(7) 0.3986(9)
H1_3 H 0.7476 0.1937 0.4308
C2_3 C 0.8287(8) 0.1054(7) 0.3590(9)
H2_3 H 0.8660 0.0870 0.3639
C3_3 C 0.7180(5) 0.1534(5) 0.3463(6)
H3_3 H 0.6799 0.1708 0.3441
C4_3 C 0.7916(6) 0.0906(6) 0.3064(7)
H4_3 H 0.8050 0.0642 0.2748
C5_3 C 0.7344(3) 0.1144(3) 0.2995(3)
C6_3 C 0.6935(3) 0.0970(3) 0.2439(4)
C7_3 C 0.6181(2) 0.0965(3) 0.1702(3)
C8_3 C 0.6516(3) 0.0467(3) 0.1644(3)
C9_3 C 0.5627(3) 0.1143(2) 0.1368(3)
C10_3 C 0.5470(8) 0.1699(8) 0.1254(13)
H5_3 H 0.5723 0.1984 0.1417
C11_3 C 0.5175(5) 0.0754(5) 0.1168(6)
H6_3 H 0.5238 0.0373 0.1256
C12_3 C 0.4958(7) 0.1837(6) 0.0914(11)
H7_3 H 0.4890 0.2217 0.0824
C13_3 C 0.4651(6) 0.0912(5) 0.0853(6)
H8_3 H 0.4359 0.0643 0.0739
C19_3 C 0.7801(3) 0.2500 0.5576(4)
C20_3 C 0.7299(3) 0.2500 0.6111(4)
C21_3 C 0.7152(6) 0.2003(5) 0.6473(6)
H13_3 H 0.7366 0.1672 0.6381
C22_3 C 0.6702(5) 0.1999(4) 0.6954(6)
H14_3 H 0.6608 0.1668 0.7184
C23_3 C 0.6383(4) 0.2500 0.7099(5)
C24_3 C 0.5898(5) 0.2500 0.7651(5)
C25_3 C 0.5598(10) 0.2014(4) 0.7831(13)
H15_3 H 0.5703 0.1678 0.7615
C26_3 C 0.5153(11) 0.2004(6) 0.8317(13)
H16_3 H 0.4966 0.1665 0.8433
C27_3 C 0.4979(4) 0.2500 0.8636(5)
C28_3 C 0.4500(3) 0.2500 0.9188(4)
N1_3 N 0.81294(19) 0.14600(19) 0.4045(2)
N2_3 N 0.6461(2) 0.1272(2) 0.2199(3)
H17_3 H 0.6353 0.1602 0.2336
N3_3 N 0.6997(3) 0.0495(2) 0.2105(3)
O1_3 O 0.79803(16) 0.20315(16) 0.5382(2)
O2_3 O 0.87921(17) 0.2500 0.4314(2)
C29_3 C 0.7152(6) 0.2997(5) 0.6473(6)
H18_3 H 0.7366 0.3328 0.6381
C30_3 C 0.6702(5) 0.3001(4) 0.6954(6)
H19_3 H 0.6608 0.3332 0.7184
C31_3 C 0.5598(10) 0.2986(4) 0.7831(13)
H20_3 H 0.5703 0.3322 0.7615
C32_3 C 0.5153(11) 0.2996(6) 0.8317(13)
H21_3 H 0.4966 0.3335 0.8433
O4_3 O 0.79803(16) 0.29685(16) 0.5382(2)
C33_3 C 0.7598(8) 0.3327(7) 0.3986(9)
H22_3 H 0.7476 0.3063 0.4308
C34_3 C 0.8287(8) 0.3946(7) 0.3590(9)
H23_3 H 0.8660 0.4130 0.3639
C35_3 C 0.7180(5) 0.3466(5) 0.3463(6)
H24_3 H 0.6799 0.3292 0.3441
C36_3 C 0.7916(6) 0.4094(6) 0.3064(7)
H25_3 H 0.8050 0.4358 0.2748
C37_3 C 0.7344(3) 0.3856(3) 0.2995(3)
C38_3 C 0.6935(3) 0.4030(3) 0.2439(4)
C39_3 C 0.6181(2) 0.4035(3) 0.1702(3)
C40_3 C 0.6516(3) 0.4533(3) 0.1644(3)
C41_3 C 0.5627(3) 0.3857(2) 0.1368(3)
C42_3 C 0.5470(8) 0.3301(8) 0.1254(13)
H26_3 H 0.5723 0.3016 0.1417
C43_3 C 0.5175(5) 0.4246(5) 0.1168(6)
H27_3 H 0.5238 0.4627 0.1256
C44_3 C 0.4958(7) 0.3163(6) 0.0914(11)
H28_3 H 0.4890 0.2783 0.0824
C45_3 C 0.4651(6) 0.4088(5) 0.0853(6)
H29_3 H 0.4359 0.4357 0.0739
C46_3 C 0.6448(2) 0.5027(2) 0.1216(3)
C47_3 C 0.5879(5) 0.5277(5) 0.1087(6)
H30_3 H 0.5523 0.5118 0.1260
C48_3 C 0.6953(5) 0.5294(5) 0.0903(8)
H31_3 H 0.7341 0.5140 0.0950
C49_3 C 0.5852(5) 0.5763(5) 0.0699(6)
H32_3 H 0.5475 0.5938 0.0648
C50_3 C 0.6876(5) 0.5773(5) 0.0532(6)
H33_3 H 0.7219 0.5957 0.0364
N6_3 N 0.81294(19) 0.35400(19) 0.4045(2)
N7_3 N 0.6461(2) 0.3728(2) 0.2199(3)
H34_3 H 0.6353 0.3398 0.2336
N8_3 N 0.6997(3) 0.4505(2) 0.2105(3)
N10_2 N 0.63239(19) 0.5988(2) 0.0403(2)
N13_2 N 0.86761(19) 0.0988(2) 0.5403(2)
N14_2 N 0.86761(19) 0.4012(2) 0.5403(2)
C14_3 C 0.6448(2) 0.9973(2) 0.1216(3)
C15_3 C 0.5879(5) 0.9723(5) 0.1087(6)
H9_3 H 0.5523 0.9882 0.1260
C16_3 C 0.6953(5) 0.9706(5) 0.0903(8)
H10_3 H 0.7341 0.9860 0.0950
C17_3 C 0.5852(5) 0.9237(5) 0.0699(6)
H11_3 H 0.5475 0.9062 0.0648
C18_3 C 0.6876(5) 0.9227(5) 0.0532(6)
H12_3 H 0.7219 0.9043 0.0364
N5_2 N 0.63239(19) 0.9012(2) 0.0403(2)
H16_4 H 0.0034 0.8335 0.3433
C27_4 C 0.0021(4) 0.7500 0.3636(5)
C28_4 C 0.0500(3) 0.7500 0.4188(4)
H21_4 H 0.0034 0.6665 0.3433
C12_4 C 0.0042(7) 0.8163(6) 0.5914(11)
H7_4 H 0.0110 0.7783 0.5824
C13_4 C 0.0349(6) 0.9088(5) 0.5853(6)
H8_4 H 0.0641 0.9357 0.5739
C44_4 C 0.0042(7) 0.6837(6) 0.5914(11)
H28_4 H 0.0110 0.7217 0.5824
C45_4 C 0.0349(6) 0.5912(5) 0.5853(6)
H29_4 H 0.0641 0.5643 0.5739
C14_4 C 0.8552(2) 0.0027(2) 0.6216(3)
C15_4 C 0.9121(5) 0.0277(5) 0.6087(6)
H9_4 H 0.9477 0.0118 0.6260
C16_4 C 0.8047(5) 0.0294(5) 0.5903(8)
H10_4 H 0.7659 0.0140 0.5950
C17_4 C 0.9148(5) 0.0763(5) 0.5699(6)
H11_4 H 0.9525 0.0938 0.5648
C18_4 C 0.8124(5) 0.0773(5) 0.5532(6)
H12_4 H 0.7781 0.0957 0.5364
C19_4 C 0.7199(3) 0.7500 0.0576(4)
C20_4 C 0.7701(3) 0.7500 0.1111(4)
C21_4 C 0.7848(6) 0.7997(5) 0.1473(6)
H13_4 H 0.7634 0.8328 0.1381
C22_4 C 0.8298(5) 0.8001(4) 0.1954(6)
H14_4 H 0.8392 0.8332 0.2184
C23_4 C 0.8617(4) 0.7500 0.2099(5)
C24_4 C 0.9102(5) 0.7500 0.2651(5)
C25_4 C 0.9402(10) 0.7986(4) 0.2831(13)
H15_4 H 0.9297 0.8322 0.2615
C26_4 C 0.9847(11) 0.7996(6) 0.3317(13)
O1_4 O 0.70197(16) 0.79685(16) 0.0382(2)
C29_4 C 0.7848(6) 0.7003(5) 0.1473(6)
H18_4 H 0.7634 0.6672 0.1381
C30_4 C 0.8298(5) 0.6999(4) 0.1954(6)
H19_4 H 0.8392 0.6668 0.2184
C31_4 C 0.9402(10) 0.7014(4) 0.2831(13)
H20_4 H 0.9297 0.6678 0.2615
C32_4 C 0.9847(11) 0.7004(6) 0.3317(13)
O4_4 O 0.70197(16) 0.70315(16) 0.0382(2)
C1_4 C 0.7402(8) 0.8327(7) 0.8986(9)
H1_4 H 0.7524 0.8063 0.9308
C2_4 C 0.6713(8) 0.8946(7) 0.8590(9)
H2_4 H 0.6340 0.9130 0.8639
C3_4 C 0.7820(5) 0.8466(5) 0.8463(6)
H3_4 H 0.8201 0.8292 0.8441
C4_4 C 0.7084(6) 0.9094(6) 0.8064(7)
H4_4 H 0.6950 0.9358 0.7748
C5_4 C 0.7656(3) 0.8856(3) 0.7995(3)
C6_4 C 0.8065(3) 0.9030(3) 0.7439(4)
C7_4 C 0.8819(2) 0.9035(3) 0.6702(3)
C8_4 C 0.8484(3) 0.9533(3) 0.6644(3)
C9_4 C 0.9373(3) 0.8857(2) 0.6368(3)
C10_4 C 0.9530(8) 0.8301(8) 0.6254(13)
H5_4 H 0.9277 0.8016 0.6417
C11_4 C 0.9825(5) 0.9246(5) 0.6168(6)
H6_4 H 0.9762 0.9627 0.6256
N1_4 N 0.68706(19) 0.85400(19) 0.9045(2)
N2_4 N 0.8539(2) 0.8728(2) 0.7199(3)
H17_4 H 0.8647 0.8398 0.7336
N3_4 N 0.8003(3) 0.9505(2) 0.7105(3)
O2_4 O 0.62079(17) 0.7500 0.9314(2)
C33_4 C 0.7402(8) 0.6673(7) 0.8986(9)
H22_4 H 0.7524 0.6937 0.9308
C34_4 C 0.6713(8) 0.6054(7) 0.8590(9)
H23_4 H 0.6340 0.5870 0.8639
C35_4 C 0.7820(5) 0.6534(5) 0.8463(6)
H24_4 H 0.8201 0.6708 0.8441
C36_4 C 0.7084(6) 0.5906(6) 0.8064(7)
H25_4 H 0.6950 0.5642 0.7748
C37_4 C 0.7656(3) 0.6144(3) 0.7995(3)
C38_4 C 0.8065(3) 0.5970(3) 0.7439(4)
C39_4 C 0.8819(2) 0.5965(3) 0.6702(3)
C40_4 C 0.8484(3) 0.5467(3) 0.6644(3)
C41_4 C 0.9373(3) 0.6143(2) 0.6368(3)
C42_4 C 0.9530(8) 0.6699(8) 0.6254(13)
H26_4 H 0.9277 0.6984 0.6417
C43_4 C 0.9825(5) 0.5754(5) 0.6168(6)
H27_4 H 0.9762 0.5373 0.6256
C46_4 C 0.8552(2) 0.4973(2) 0.6216(3)
C47_4 C 0.9121(5) 0.4723(5) 0.6087(6)
H30_4 H 0.9477 0.4882 0.6260
C48_4 C 0.8047(5) 0.4706(5) 0.5903(8)
H31_4 H 0.7659 0.4860 0.5950
C49_4 C 0.9148(5) 0.4237(5) 0.5699(6)
H32_4 H 0.9525 0.4062 0.5648
C50_4 C 0.8124(5) 0.4227(5) 0.5532(6)
H33_4 H 0.7781 0.4043 0.5364
N6_4 N 0.68706(19) 0.64600(19) 0.9045(2)
N7_4 N 0.8539(2) 0.6272(2) 0.7199(3)
H34_4 H 0.8647 0.6602 0.7336
N8_4 N 0.8003(3) 0.5495(2) 0.7105(3)
loop_
_geom_bond_atom_site_label_1
_geom_bond_atom_site_label_2
_geom_bond_site_symmetry_1
_geom_bond_site_symmetry_2
Si1 F1 1_555 1_555
F2 Si1 1_555 1_555
F3 Si1 1_555 1_555
F4 Si1 1_555 1_555
F5 Si1 1_555 1_555
F6 Si1 1_555 1_555
Si1_2 F1_2 1_555 1_555
F2_2 Si1_2 1_555 1_555
F3_2 Si1_2 1_555 1_555
F4_2 Si1_2 1_555 1_555
F5_2 Si1_2 1_555 1_555
F6_2 Si1_2 1_555 1_555
Si1_3 F1_3 1_555 1_555
F2_3 Si1_3 1_555 1_555
F3_3 Si1_3 1_555 1_555
F4_3 Si1_3 1_555 1_555
F5_3 Si1_3 1_555 1_555
F6_3 Si1_3 1_555 1_555
Si1_4 F1_4 1_555 1_555
F2_4 Si1_4 1_555 1_555
F3_4 Si1_4 1_555 1_555
F4_4 Si1_4 1_555 1_555
F5_4 Si1_4 1_555 1_555
F6_4 Si1_4 1_555 1_555
C46 C47 1_555 1_555
C47 H30 1_555 1_555
C48 C46 1_555 1_555
H31 C48 1_555 1_555
C49 C47 1_555 1_555
H32 C49 1_555 1_555
C50 C48 1_555 1_555
H33 C50 1_555 1_555
N10 C49 1_555 1_555
C50 N10 1_555 1_555
Co1 N1 1_555 1_555
C1 H1 1_555 1_555
C2 H2 1_555 1_555
C3 C1 1_555 1_555
H3 C3 1_555 1_555
C4 C2 1_555 1_555
H4 C4 1_555 1_555
C5 C3 1_555 1_555
C6 C5 1_555 1_555
C7 C8 1_555 1_555
C8 C14 1_555 1_555
C9 C7 1_555 1_555
C10 C9 1_555 1_555
H5 C10 1_555 1_555
C11 C9 1_555 1_555
H6 C11 1_555 1_555
C12 C10 1_555 1_555
H7 C12 1_555 1_555
C13 C11 1_555 1_555
H8 C13 1_555 1_555
C14 C15 1_555 1_555
C15 H9 1_555 1_555
C16 C14 1_555 1_555
H10 C16 1_555 1_555
C17 C15 1_555 1_555
H11 C17 1_555 1_555
C18 C16 1_555 1_555
H12 C18 1_555 1_555
C19 C20 1_555 1_555
C20 C21 1_555 1_555
C21 H13 1_555 1_555
C22 C21 1_555 1_555
H14 C22 1_555 1_555
C23 C22 1_555 1_555
C24 C23 1_555 1_555
C25 C24 1_555 1_555
H15 C25 1_555 1_555
C26 C25 1_555 1_555
H16 C26 1_555 1_555
C27 C26 1_555 1_555
C28 C27 1_555 1_555
N1 C1 1_555 1_555
N2 C6 1_555 1_555
H17 N2 1_555 1_555
N3 C6 1_555 1_555
N4 C12 1_555 1_555
N5 C17 1_555 1_555
O1 Co1 1_555 1_555
O2 Co1 1_555 1_555
O3 C28 1_555 1_555
C29 C20 1_555 1_555
H18 C29 1_555 1_555
C30 C23 1_555 1_555
H19 C30 1_555 1_555
C31 C24 1_555 1_555
H20 C31 1_555 1_555
C32 C27 1_555 1_555
H21 C32 1_555 1_555
O4 C19 1_555 1_555
O5 C28 1_555 1_555
Co2 O2 1_555 1_555
C33 H22 1_555 1_555
C34 H23 1_555 1_555
C35 C33 1_555 1_555
H24 C35 1_555 1_555
C36 C34 1_555 1_555
H25 C36 1_555 1_555
C37 C35 1_555 1_555
C38 C37 1_555 1_555
C39 C40 1_555 1_555
C41 C39 1_555 1_555
C42 C41 1_555 1_555
H26 C42 1_555 1_555
C43 C41 1_555 1_555
H27 C43 1_555 1_555
C44 C42 1_555 1_555
H28 C44 1_555 1_555
C45 C43 1_555 1_555
H29 C45 1_555 1_555
N6 Co2 1_555 1_555
N7 C38 1_555 1_555
H34 N7 1_555 1_555
N8 C38 1_555 1_555
N9 C44 1_555 1_555
Co5 N9 1_555 1_555
Co7 N4 1_555 1_555
N11 Co2 1_555 1_555
N12 Co1 1_555 1_555
N13 Co1 1_555 1_555
N14 Co2 1_555 1_555
O6 Co1 1_555 1_555
O7 Co2 1_555 1_555
C2 N1 1_555 1_555
C4 C5 1_555 1_555
C7 N2 1_555 1_555
C8 N3 1_555 1_555
C13 N4 1_555 1_555
C18 N5 1_555 1_555
C19 O1 1_555 1_555
C29 C30 1_555 1_555
C31 C32 1_555 1_555
O4 Co2 1_555 1_555
C33 N6 1_555 1_555
C34 N6 1_555 1_555
C36 C37 1_555 1_555
C39 N7 1_555 1_555
C40 N8 1_555 1_555
C45 N9 1_555 1_555
Co3 N1_2 1_555 1_555
C1_2 H1_2 1_555 1_555
C2_2 H2_2 1_555 1_555
C3_2 C1_2 1_555 1_555
H3_2 C3_2 1_555 1_555
C4_2 C2_2 1_555 1_555
H4_2 C4_2 1_555 1_555
C5_2 C3_2 1_555 1_555
C6_2 C5_2 1_555 1_555
C7_2 C8_2 1_555 1_555
C8_2 C14_2 1_555 1_555
C9_2 C7_2 1_555 1_555
C10_2 C9_2 1_555 1_555
H5_2 C10_2 1_555 1_555
C11_2 C9_2 1_555 1_555
H6_2 C11_2 1_555 1_555
C14_2 C15_2 1_555 1_555
C15_2 H9_2 1_555 1_555
C16_2 C14_2 1_555 1_555
H10_2 C16_2 1_555 1_555
C17_2 C15_2 1_555 1_555
H11_2 C17_2 1_555 1_555
C18_2 C16_2 1_555 1_555
H12_2 C18_2 1_555 1_555
N1_2 C1_2 1_555 1_555
N2_2 C6_2 1_555 1_555
H17_2 N2_2 1_555 1_555
N3_2 C6_2 1_555 1_555
N13 C17_2 1_555 1_555
O2_2 Co3 1_555 1_555
Co8 O2_2 1_555 1_555
C33_2 H22_2 1_555 1_555
C34_2 H23_2 1_555 1_555
C35_2 C33_2 1_555 1_555
H24_2 C35_2 1_555 1_555
C36_2 C34_2 1_555 1_555
H25_2 C36_2 1_555 1_555
C37_2 C35_2 1_555 1_555
C38_2 C37_2 1_555 1_555
C39_2 C40_2 1_555 1_555
C41_2 C39_2 1_555 1_555
C42_2 C41_2 1_555 1_555
H26_2 C42_2 1_555 1_555
C43_2 C41_2 1_555 1_555
H27_2 C43_2 1_555 1_555
N6_2 Co8 1_555 1_555
N7_2 C38_2 1_555 1_555
H34_2 N7_2 1_555 1_555
N8_2 C38_2 1_555 1_555
N11_2 Co8 1_555 1_555
N12_2 Co3 1_555 1_555
C2_2 N1_2 1_555 1_555
C4_2 C5_2 1_555 1_555
C7_2 N2_2 1_555 1_555
C8_2 N3_2 1_555 1_555
C18_2 N13 1_555 1_555
C33_2 N6_2 1_555 1_555
C34_2 N6_2 1_555 1_555
C36_2 C37_2 1_555 1_555
C39_2 N7_2 1_555 1_555
C40_2 N8_2 1_555 1_555
C19_2 C20_2 1_555 1_555
C20_2 C21_2 1_555 1_555
C21_2 H13_2 1_555 1_555
C22_2 C21_2 1_555 1_555
H14_2 C22_2 1_555 1_555
C23_2 C22_2 1_555 1_555
C24_2 C23_2 1_555 1_555
C25_2 C24_2 1_555 1_555
H15_2 C25_2 1_555 1_555
C26_2 C25_2 1_555 1_555
C29_2 C20_2 1_555 1_555
H18_2 C29_2 1_555 1_555
C30_2 C23_2 1_555 1_555
H19_2 C30_2 1_555 1_555
C31_2 C24_2 1_555 1_555
H20_2 C31_2 1_555 1_555
O4_2 C19_2 1_555 1_555
C19_2 O1_2 1_555 1_555
C29_2 C30_2 1_555 1_555
C31_2 C32_2 1_555 1_555
C46_2 C47_2 1_555 1_555
C47_2 H30_2 1_555 1_555
C48_2 C46_2 1_555 1_555
H31_2 C48_2 1_555 1_555
C49_2 C47_2 1_555 1_555
H32_2 C49_2 1_555 1_555
C50_2 C48_2 1_555 1_555
H33_2 C50_2 1_555 1_555
N14 C49_2 1_555 1_555
C50_2 N14 1_555 1_555
H7_2 C12_2 1_555 1_555
H8_2 C13_2 1_555 1_555
N4_2 C12_2 1_555 1_555
H28_2 C44_2 1_555 1_555
H29_2 C45_2 1_555 1_555
N9_2 C44_2 1_555 1_555
Co5_2 N9_2 1_555 1_555
Co7_2 N4_2 1_555 1_555
C13_2 N4_2 1_555 1_555
C45_2 N9_2 1_555 1_555
C28_2 C27_2 1_555 1_555
O3_2 C28_2 1_555 1_555
O5_2 C28_2 1_555 1_555
Co5_2 O3_2 1_555 1_555
Co7_2 O5_2 1_555 1_555
Co5_2 N1_3 1_555 1_555
C1_3 H1_3 1_555 1_555
C2_3 H2_3 1_555 1_555
C3_3 C1_3 1_555 1_555
H3_3 C3_3 1_555 1_555
C4_3 C2_3 1_555 1_555
H4_3 C4_3 1_555 1_555
C5_3 C3_3 1_555 1_555
C6_3 C5_3 1_555 1_555
C7_3 C8_3 1_555 1_555
C9_3 C7_3 1_555 1_555
C10_3 C9_3 1_555 1_555
H5_3 C10_3 1_555 1_555
C11_3 C9_3 1_555 1_555
H6_3 C11_3 1_555 1_555
C12_3 C10_3 1_555 1_555
H7_3 C12_3 1_555 1_555
C13_3 C11_3 1_555 1_555
H8_3 C13_3 1_555 1_555
C19_3 C20_3 1_555 1_555
C20_3 C21_3 1_555 1_555
C21_3 H13_3 1_555 1_555
C22_3 C21_3 1_555 1_555
H14_3 C22_3 1_555 1_555
C23_3 C22_3 1_555 1_555
C24_3 C23_3 1_555 1_555
C25_3 C24_3 1_555 1_555
H15_3 C25_3 1_555 1_555
C26_3 C25_3 1_555 1_555
H16_3 C26_3 1_555 1_555
C27_3 C26_3 1_555 1_555
C28_3 C27_3 1_555 1_555
N1_3 C1_3 1_555 1_555
N2_3 C6_3 1_555 1_555
H17_3 N2_3 1_555 1_555
N3_3 C6_3 1_555 1_555
N11_2 C12_3 1_555 1_555
O1_3 Co5_2 1_555 1_555
O2_3 Co5_2 1_555 1_555
O6_2 C28_3 1_555 1_555
C29_3 C20_3 1_555 1_555
H18_3 C29_3 1_555 1_555
C30_3 C23_3 1_555 1_555
H19_3 C30_3 1_555 1_555
C31_3 C24_3 1_555 1_555
H20_3 C31_3 1_555 1_555
C32_3 C27_3 1_555 1_555
H21_3 C32_3 1_555 1_555
O4_3 C19_3 1_555 1_555
O7_2 C28_3 1_555 1_555
Co7_2 O2_3 1_555 1_555
C33_3 H22_3 1_555 1_555
C34_3 H23_3 1_555 1_555
C35_3 C33_3 1_555 1_555
H24_3 C35_3 1_555 1_555
C36_3 C34_3 1_555 1_555
H25_3 C36_3 1_555 1_555
C37_3 C35_3 1_555 1_555
C38_3 C37_3 1_555 1_555
C39_3 C40_3 1_555 1_555
C40_3 C46_3 1_555 1_555
C41_3 C39_3 1_555 1_555
C42_3 C41_3 1_555 1_555
H26_3 C42_3 1_555 1_555
C43_3 C41_3 1_555 1_555
H27_3 C43_3 1_555 1_555
C44_3 C42_3 1_555 1_555
H28_3 C44_3 1_555 1_555
C45_3 C43_3 1_555 1_555
H29_3 C45_3 1_555 1_555
C46_3 C47_3 1_555 1_555
C47_3 H30_3 1_555 1_555
C48_3 C46_3 1_555 1_555
H31_3 C48_3 1_555 1_555
C49_3 C47_3 1_555 1_555
H32_3 C49_3 1_555 1_555
C50_3 C48_3 1_555 1_555
H33_3 C50_3 1_555 1_555
N6_3 Co7_2 1_555 1_555
N7_3 C38_3 1_555 1_555
H34_3 N7_3 1_555 1_555
N8_3 C38_3 1_555 1_555
N12_2 C44_3 1_555 1_555
N10_2 C49_3 1_555 1_555
N13_2 Co5_2 1_555 1_555
N14_2 Co7_2 1_555 1_555
C2_3 N1_3 1_555 1_555
C4_3 C5_3 1_555 1_555
C7_3 N2_3 1_555 1_555
C8_3 N3_3 1_555 1_555
C13_3 N11_2 1_555 1_555
C19_3 O1_3 1_555 1_555
C29_3 C30_3 1_555 1_555
C31_3 C32_3 1_555 1_555
O4_3 Co7_2 1_555 1_555
C33_3 N6_3 1_555 1_555
C34_3 N6_3 1_555 1_555
C36_3 C37_3 1_555 1_555
C39_3 N7_3 1_555 1_555
C40_3 N8_3 1_555 1_555
C45_3 N12_2 1_555 1_555
C50_3 N10_2 1_555 1_555
C14_3 C15_3 1_555 1_555
C15_3 H9_3 1_555 1_555
C16_3 C14_3 1_555 1_555
H10_3 C16_3 1_555 1_555
C17_3 C15_3 1_555 1_555
H11_3 C17_3 1_555 1_555
C18_3 C16_3 1_555 1_555
H12_3 C18_3 1_555 1_555
N5_2 C17_3 1_555 1_555
C18_3 N5_2 1_555 1_555
C28_4 C27_4 1_555 1_555
O6 C28_4 1_555 1_555
O7 C28_4 1_555 1_555
H7_4 C12_4 1_555 1_555
H8_4 C13_4 1_555 1_555
N11 C12_4 1_555 1_555
H28_4 C44_4 1_555 1_555
H29_4 C45_4 1_555 1_555
N12 C44_4 1_555 1_555
C13_4 N11 1_555 1_555
C45_4 N12 1_555 1_555
C14_4 C15_4 1_555 1_555
C15_4 H9_4 1_555 1_555
C16_4 C14_4 1_555 1_555
H10_4 C16_4 1_555 1_555
C17_4 C15_4 1_555 1_555
H11_4 C17_4 1_555 1_555
C18_4 C16_4 1_555 1_555
H12_4 C18_4 1_555 1_555
N13_2 C17_4 1_555 1_555
C18_4 N13_2 1_555 1_555
C19_4 C20_4 1_555 1_555
C20_4 C21_4 1_555 1_555
C21_4 H13_4 1_555 1_555
C22_4 C21_4 1_555 1_555
H14_4 C22_4 1_555 1_555
C23_4 C22_4 1_555 1_555
C24_4 C23_4 1_555 1_555
C25_4 C24_4 1_555 1_555
H15_4 C25_4 1_555 1_555
C26_4 C25_4 1_555 1_555
C29_4 C20_4 1_555 1_555
H18_4 C29_4 1_555 1_555
C30_4 C23_4 1_555 1_555
H19_4 C30_4 1_555 1_555
C31_4 C24_4 1_555 1_555
H20_4 C31_4 1_555 1_555
O4_4 C19_4 1_555 1_555
C19_4 O1_4 1_555 1_555
C29_4 C30_4 1_555 1_555
C31_4 C32_4 1_555 1_555
Co5 N1_4 1_555 1_555
C1_4 H1_4 1_555 1_555
C2_4 H2_4 1_555 1_555
C3_4 C1_4 1_555 1_555
H3_4 C3_4 1_555 1_555
C4_4 C2_4 1_555 1_555
H4_4 C4_4 1_555 1_555
C5_4 C3_4 1_555 1_555
C6_4 C5_4 1_555 1_555
C7_4 C8_4 1_555 1_555
C9_4 C7_4 1_555 1_555
C10_4 C9_4 1_555 1_555
H5_4 C10_4 1_555 1_555
C11_4 C9_4 1_555 1_555
H6_4 C11_4 1_555 1_555
N1_4 C1_4 1_555 1_555
N2_4 C6_4 1_555 1_555
H17_4 N2_4 1_555 1_555
N3_4 C6_4 1_555 1_555
O2_4 Co5 1_555 1_555
Co7 O2_4 1_555 1_555
C33_4 H22_4 1_555 1_555
C34_4 H23_4 1_555 1_555
C35_4 C33_4 1_555 1_555
H24_4 C35_4 1_555 1_555
C36_4 C34_4 1_555 1_555
H25_4 C36_4 1_555 1_555
C37_4 C35_4 1_555 1_555
C38_4 C37_4 1_555 1_555
C39_4 C40_4 1_555 1_555
C40_4 C46_4 1_555 1_555
C41_4 C39_4 1_555 1_555
C42_4 C41_4 1_555 1_555
H26_4 C42_4 1_555 1_555
C43_4 C41_4 1_555 1_555
H27_4 C43_4 1_555 1_555
C46_4 C47_4 1_555 1_555
C47_4 H30_4 1_555 1_555
C48_4 C46_4 1_555 1_555
H31_4 C48_4 1_555 1_555
C49_4 C47_4 1_555 1_555
H32_4 C49_4 1_555 1_555
C50_4 C48_4 1_555 1_555
H33_4 C50_4 1_555 1_555
N6_4 Co7 1_555 1_555
N7_4 C38_4 1_555 1_555
H34_4 N7_4 1_555 1_555
N8_4 C38_4 1_555 1_555
N14_2 C49_4 1_555 1_555
C2_4 N1_4 1_555 1_555
C4_4 C5_4 1_555 1_555
C7_4 N2_4 1_555 1_555
C8_4 N3_4 1_555 1_555
C33_4 N6_4 1_555 1_555
C34_4 N6_4 1_555 1_555
C36_4 C37_4 1_555 1_555
C39_4 N7_4 1_555 1_555
C40_4 N8_4 1_555 1_555
C50_4 N14_2 1_555 1_555

#END
