
###############################################################################
#
# This file contains modified crystal structure data generated from the
# MOF subset of the Cambridge Structural Database (CSD) v543 
# hosted by the Cambridge Crystallographic Data Centre (CCDC).
#
# This work is licensed under the Creative Commons
# Attribution-NonCommercial-ShareAlike 4.0 International License.
# To view a copy of this license, visit
# http://creativecommons.org/licenses/by-nc-sa/4.0/
# or send a letter to
# Creative Commons, PO Box 1866, Mountain View, CA 94042, USA.
#
# CIF created using the CSD Python API on 29 September 2022
# The structure has been converted into the P1 space group
# The structure has a 3D framework
# The original CSD entry YATWAU is in the orthorhombic crystal system
# The framework has been calculated to contain at least 10.0% void space
# The void calculation uses a probe of radius 1.32A, grid spacing 0.4
# The framework is charged, counterions have been retained in the structure
#
###############################################################################

data_YATWAU
_chemical_formula_moiety         '(C200 H136 F24 N40 Ni8 O20 Si4 1-)n'
_symmetry_cell_setting           triclinic
_symmetry_space_group_name_H-M   'P 1'
_symmetry_Int_Tables_number      1
_space_group_name_Hall           'P 1'
loop_
_symmetry_equiv_pos_site_id
_symmetry_equiv_pos_as_xyz
1 x,y,z
_cell_length_a                   21.4817(9)
_cell_length_b                   23.3867(10)
_cell_length_c                   19.8758(8)
_cell_angle_alpha                90
_cell_angle_beta                 90
_cell_angle_gamma                90
_cell_volume                     9985.33
loop_
_atom_site_label
_atom_site_type_symbol
_atom_site_fract_x
_atom_site_fract_y
_atom_site_fract_z
F1 F 0.3875(3) 0.2500 0.2426(3)
F2 F 0.4386(5) 0.3201(4) 0.1777(5)
F3 F 0.3819(6) 0.2500 0.1197(9)
F4 F 0.4969(5) 0.2500 0.2332(6)
F5 F 0.4911(6) 0.2500 0.1160(7)
Si1 Si 0.4383(5) 0.2500 0.1807(5)
F6 F 0.4386(5) 0.1799(4) 0.1777(5)
F1_2 F 0.1125(3) 0.7500 0.7426(3)
F2_2 F 0.0614(5) 0.6799(4) 0.6777(5)
F3_2 F 0.1181(6) 0.7500 0.6197(9)
F4_2 F 0.0031(5) 0.7500 0.7332(6)
F5_2 F 0.0089(6) 0.7500 0.6160(7)
Si1_2 Si 0.0617(5) 0.7500 0.6807(5)
F6_2 F 0.0614(5) 0.8201(4) 0.6777(5)
F1_3 F 0.6125(3) 0.7500 0.7574(3)
F2_3 F 0.5614(5) 0.8201(4) 0.8223(5)
F3_3 F 0.6181(6) 0.7500 0.8803(9)
F4_3 F 0.5031(5) 0.7500 0.7668(6)
F5_3 F 0.5089(6) 0.7500 0.8840(7)
Si1_3 Si 0.5617(5) 0.7500 0.8193(5)
F6_3 F 0.5614(5) 0.6799(4) 0.8223(5)
F1_4 F 0.8875(3) 0.2500 0.2574(3)
F2_4 F 0.9386(5) 0.1799(4) 0.3223(5)
F3_4 F 0.8819(6) 0.2500 0.3803(9)
F4_4 F 0.9969(5) 0.2500 0.2668(6)
F5_4 F 0.9911(6) 0.2500 0.3840(7)
Si1_4 Si 0.9383(5) 0.2500 0.3193(5)
F6_4 F 0.9386(5) 0.3201(4) 0.3223(5)
Ni1 Ni 0.12714(2) 0.32374(2) 0.01604(2)
C1 C 0.4490(4) 0.3994(4) 0.4318(4)
H1 H 0.4203 0.4222 0.4542
C2 C 0.5005(3) 0.3813(3) 0.4645(4)
H2 H 0.5045 0.3888 0.5102
C3 C 0.5361(4) 0.3351(4) 0.3691(4)
H3 H 0.5650 0.3120 0.3473
C4 C 0.4827(4) 0.3509(4) 0.3349(4)
H4 H 0.4769 0.3385 0.2909
C5 C 0.3012(4) 0.5295(4) 0.4081(5)
H5 H 0.2614 0.5147 0.4021
C6 C 0.3115(3) 0.5780(3) 0.4466(4)
H6 H 0.2770 0.5969 0.4641
C7 C 0.4144(3) 0.5773(3) 0.4322(4)
H7 H 0.4525 0.5952 0.4393
C8 C 0.4134(4) 0.5286(3) 0.3921(4)
H8 H 0.4501 0.5133 0.3750
C9 C 0.2291(7) 0.3191(5) 0.1166(9)
H9 H 0.2361 0.2848 0.0940
C10 C 0.2635(9) 0.3315(6) 0.1761(10)
H10 H 0.2840 0.3022 0.1988
C11 C 0.1883(6) 0.4044(4) 0.1201(7)
H11 H 0.1592 0.4307 0.1045
C12 C 0.2280(7) 0.4218(5) 0.1696(8)
H12 H 0.2283 0.4599 0.1828
C17 C 0.38234(18) 0.4034(2) 0.3284(2)
C18 C 0.3484(2) 0.45277(18) 0.3345(2)
C19 C 0.30768(19) 0.40263(17) 0.2545(2)
C24 C 0.26664(19) 0.38458(18) 0.1994(2)
C27 C 0.35501(18) 0.50285(18) 0.3777(2)
C28 C 0.43847(19) 0.38417(18) 0.3643(2)
N1 N 0.35554(16) 0.37182(16) 0.2780(2)
H17 H 0.3672 0.3387 0.2642
N2 N 0.30107(17) 0.45099(16) 0.2872(2)
N3 N 0.18802(14) 0.35482(13) 0.09353(14)
N4 N 0.36631(13) 0.59877(13) 0.45997(15)
N5 N 0.54761(13) 0.35162(13) 0.43147(15)
O1 O 0.12202(12) 0.2500 0.06613(14)
Ni2 Ni 0.12714(2) 0.17626(2) 0.01604(2)
C33 C 0.4490(4) 0.1006(4) 0.4318(4)
H22 H 0.4203 0.0778 0.4542
C34 C 0.5005(3) 0.1187(3) 0.4645(4)
H23 H 0.5045 0.1112 0.5102
C35 C 0.5361(4) 0.1649(4) 0.3691(4)
H24 H 0.5650 0.1880 0.3473
C36 C 0.4827(4) 0.1491(4) 0.3349(4)
H25 H 0.4769 0.1615 0.2909
C41 C 0.2291(7) 0.1809(5) 0.1166(9)
H30 H 0.2361 0.2152 0.0940
C42 C 0.2635(9) 0.1685(6) 0.1761(10)
H31 H 0.2840 0.1978 0.1988
C43 C 0.1883(6) 0.0956(4) 0.1201(7)
H32 H 0.1592 0.0693 0.1045
C44 C 0.2280(7) 0.0782(5) 0.1696(8)
H33 H 0.2283 0.0401 0.1828
C45 C 0.38234(18) 0.0966(2) 0.3284(2)
C46 C 0.3484(2) 0.04723(18) 0.3345(2)
C47 C 0.30768(19) 0.09737(17) 0.2545(2)
C48 C 0.26664(19) 0.11542(18) 0.1994(2)
C50 C 0.43847(19) 0.11583(18) 0.3643(2)
N6 N 0.35554(16) 0.12818(16) 0.2780(2)
H34 H 0.3672 0.1613 0.2642
N7 N 0.30107(17) 0.04901(16) 0.2872(2)
N8 N 0.18802(14) 0.14518(13) 0.09353(14)
N10 N 0.54761(13) 0.14838(13) 0.43147(15)
Ni3 Ni 0.37286(2) 0.67626(2) 0.51604(2)
Ni5 Ni 0.62714(2) 0.17626(2) 0.48396(2)
Ni7 Ni 0.62714(2) 0.32374(2) 0.48396(2)
N13 N 0.04761(13) 0.14838(13) 0.06853(15)
N14 N 0.04761(13) 0.35162(13) 0.06853(15)
C13 C 0.3028(11) 0.2999(6) 0.8720(10)
H13 H 0.2914 0.3340 0.8926
C14 C 0.3478(11) 0.3004(6) 0.8240(12)
H14 H 0.3667 0.3347 0.8121
C15 C 0.4915(11) 0.2022(7) 0.6725(11)
H15 H 0.5142 0.1692 0.6636
C16 C 0.4474(11) 0.2009(7) 0.7219(12)
H16 H 0.4399 0.1671 0.7452
C20 C 0.2228(2) 0.2500 0.9437(2)
C21 C 0.5507(2) 0.2500 0.5796(3)
C22 C 0.2740(3) 0.2500 0.8907(3)
C23 C 0.5037(3) 0.2500 0.6356(3)
C25 C 0.3658(3) 0.2500 0.7922(4)
C26 C 0.4135(3) 0.2500 0.7373(4)
O2 O 0.20382(12) 0.29756(12) 0.96274(14)
O3 O 0.56859(13) 0.20270(11) 0.55845(14)
C29 C 0.3028(11) 0.2001(6) 0.8720(10)
H18 H 0.2914 0.1660 0.8926
C30 C 0.3478(11) 0.1996(6) 0.8240(12)
H19 H 0.3667 0.1653 0.8121
C31 C 0.4915(11) 0.2978(7) 0.6725(11)
H20 H 0.5142 0.3308 0.6636
C32 C 0.4474(11) 0.2991(7) 0.7219(12)
H21 H 0.4399 0.3329 0.7452
O4 O 0.20382(12) 0.20244(12) 0.96274(14)
O5 O 0.56859(13) 0.29730(11) 0.55845(14)
N11 N 0.13369(13) 0.40123(13) 0.95997(15)
N12 N 0.13369(13) 0.09877(13) 0.95997(15)
O6 O 0.06859(13) 0.29730(11) 0.94155(14)
O7 O 0.06859(13) 0.20270(11) 0.94155(14)
C37 C 0.3012(4) 0.9705(4) 0.4081(5)
H26 H 0.2614 0.9853 0.4021
C38 C 0.3115(3) 0.9220(3) 0.4466(4)
H27 H 0.2770 0.9031 0.4641
C39 C 0.4144(3) 0.9227(3) 0.4322(4)
H28 H 0.4525 0.9048 0.4393
C40 C 0.4134(4) 0.9714(3) 0.3921(4)
H29 H 0.4501 0.9867 0.3750
C49 C 0.35501(18) 0.99715(18) 0.3777(2)
N9 N 0.36631(13) 0.90123(13) 0.45997(15)
Ni8 Ni 0.37286(2) 0.82374(2) 0.51604(2)
C37_2 C 0.1988(4) 0.0295(4) 0.9081(5)
H26_2 H 0.2386 0.0147 0.9021
C38_2 C 0.1885(3) 0.0780(3) 0.9466(4)
H27_2 H 0.2230 0.0969 0.9641
C39_2 C 0.0856(3) 0.0773(3) 0.9322(4)
H28_2 H 0.0475 0.0952 0.9393
C40_2 C 0.0866(4) 0.0286(3) 0.8921(4)
H29_2 H 0.0499 0.0133 0.8750
C49_2 C 0.14499(18) 0.00285(18) 0.8777(2)
C1_2 C 0.0510(4) 0.6006(4) 0.9318(4)
H1_2 H 0.0797 0.5778 0.9542
C4_2 C 0.0173(4) 0.6491(4) 0.8349(4)
H4_2 H 0.0231 0.6615 0.7909
C5_2 C 0.1988(4) 0.4705(4) 0.9081(5)
H5_2 H 0.2386 0.4853 0.9021
C6_2 C 0.1885(3) 0.4220(3) 0.9466(4)
H6_2 H 0.2230 0.4031 0.9641
C7_2 C 0.0856(3) 0.4227(3) 0.9322(4)
H7_2 H 0.0475 0.4048 0.9393
C8_2 C 0.0866(4) 0.4714(3) 0.8921(4)
H8_2 H 0.0499 0.4867 0.8750
C9_2 C 0.2709(7) 0.6809(5) 0.6166(9)
H9_2 H 0.2639 0.7152 0.5940
C10_2 C 0.2365(9) 0.6685(6) 0.6761(10)
H10_2 H 0.2160 0.6978 0.6988
C11_2 C 0.3117(6) 0.5956(4) 0.6201(7)
H11_2 H 0.3408 0.5693 0.6045
C12_2 C 0.2720(7) 0.5782(5) 0.6696(8)
H12_2 H 0.2717 0.5401 0.6828
C13_2 C 0.1972(11) 0.7001(6) 0.3720(10)
H13_2 H 0.2086 0.6660 0.3926
C14_2 C 0.1522(11) 0.6996(6) 0.3240(12)
H14_2 H 0.1333 0.6653 0.3121
C15_2 C 0.0085(11) 0.7978(7) 0.1725(11)
C16_2 C 0.0526(11) 0.7991(7) 0.2219(12)
H16_2 H 0.0601 0.8329 0.2452
C17_2 C 0.11766(18) 0.5966(2) 0.8284(2)
C18_2 C 0.1516(2) 0.54723(18) 0.8345(2)
C19_2 C 0.19232(19) 0.59737(17) 0.7545(2)
C20_2 C 0.2772(2) 0.7500 0.4437(2)
C22_2 C 0.2260(3) 0.7500 0.3907(3)
C24_2 C 0.23336(19) 0.61542(18) 0.6994(2)
C25_2 C 0.1342(3) 0.7500 0.2922(4)
C26_2 C 0.0865(3) 0.7500 0.2373(4)
C27_2 C 0.14499(18) 0.49715(18) 0.8777(2)
C28_2 C 0.06153(19) 0.61583(18) 0.8643(2)
N1_2 N 0.14446(16) 0.62818(16) 0.7780(2)
H17_2 H 0.1328 0.6613 0.7642
N2_2 N 0.19893(17) 0.54901(16) 0.7872(2)
N3_2 N 0.31198(14) 0.64518(13) 0.59353(14)
O1_2 O 0.37798(12) 0.7500 0.56613(14)
O2_2 O 0.29618(12) 0.70244(12) 0.46274(14)
C29_2 C 0.1972(11) 0.7999(6) 0.3720(10)
H18_2 H 0.2086 0.8340 0.3926
C30_2 C 0.1522(11) 0.8004(6) 0.3240(12)
H19_2 H 0.1333 0.8347 0.3121
C31_2 C 0.0085(11) 0.7022(7) 0.1725(11)
C32_2 C 0.0526(11) 0.7009(7) 0.2219(12)
H21_2 H 0.0601 0.6671 0.2452
O4_2 O 0.29618(12) 0.79756(12) 0.46274(14)
C33_2 C 0.0510(4) 0.8994(4) 0.9318(4)
H22_2 H 0.0797 0.9222 0.9542
C36_2 C 0.0173(4) 0.8509(4) 0.8349(4)
H25_2 H 0.0231 0.8385 0.7909
C41_2 C 0.2709(7) 0.8191(5) 0.6166(9)
H30_2 H 0.2639 0.7848 0.5940
C42_2 C 0.2365(9) 0.8315(6) 0.6761(10)
H31_2 H 0.2160 0.8022 0.6988
C43_2 C 0.3117(6) 0.9044(4) 0.6201(7)
H32_2 H 0.3408 0.9307 0.6045
C44_2 C 0.2720(7) 0.9218(5) 0.6696(8)
H33_2 H 0.2717 0.9599 0.6828
C45_2 C 0.11766(18) 0.9034(2) 0.8284(2)
C46_2 C 0.1516(2) 0.95277(18) 0.8345(2)
C47_2 C 0.19232(19) 0.90263(17) 0.7545(2)
C48_2 C 0.23336(19) 0.88458(18) 0.6994(2)
C50_2 C 0.06153(19) 0.88417(18) 0.8643(2)
N6_2 N 0.14446(16) 0.87182(16) 0.7780(2)
H34_2 H 0.1328 0.8387 0.7642
N7_2 N 0.19893(17) 0.95099(16) 0.7872(2)
N8_2 N 0.31198(14) 0.85482(13) 0.59353(14)
N13_2 N 0.45239(13) 0.85162(13) 0.56853(15)
N14_2 N 0.45239(13) 0.64838(13) 0.56853(15)
O6_2 O 0.43141(13) 0.70270(11) 0.44155(14)
O7_2 O 0.43141(13) 0.79730(11) 0.44155(14)
C2_2 C 0.9995(3) 0.6187(3) 0.9645(4)
C3_2 C 0.9639(4) 0.6649(4) 0.8691(4)
H3_2 H 0.9350 0.6880 0.8473
H15_2 H 0.9858 0.8308 0.1636
C21_2 C 0.9493(2) 0.7500 0.0796(3)
C23_2 C 0.9963(3) 0.7500 0.1356(3)
N5_2 N 0.95239(13) 0.64838(13) 0.93147(15)
O3_2 O 0.93141(13) 0.79730(11) 0.05845(14)
H20_2 H 0.9858 0.6692 0.1636
O5_2 O 0.93141(13) 0.70270(11) 0.05845(14)
C34_2 C 0.9995(3) 0.8813(3) 0.9645(4)
C35_2 C 0.9639(4) 0.8351(4) 0.8691(4)
H24_2 H 0.9350 0.8120 0.8473
N10_2 N 0.95239(13) 0.85162(13) 0.93147(15)
Ni5_2 Ni 0.87286(2) 0.82374(2) 0.98396(2)
Ni7_2 Ni 0.87286(2) 0.67626(2) 0.98396(2)
C5_3 C 0.6988(4) 0.0295(4) 0.5919(5)
H5_3 H 0.7386 0.0147 0.5979
C6_3 C 0.6885(3) 0.0780(3) 0.5534(4)
H6_3 H 0.7230 0.0969 0.5359
C7_3 C 0.5856(3) 0.0773(3) 0.5678(4)
H7_3 H 0.5475 0.0952 0.5607
C8_3 C 0.5866(4) 0.0286(3) 0.6079(4)
H8_3 H 0.5499 0.0133 0.6250
C27_3 C 0.64499(18) 0.00285(18) 0.6223(2)
N4_2 N 0.63369(13) 0.09877(13) 0.54003(15)
C13_3 C 0.6972(11) 0.7999(6) 0.1280(10)
H13_3 H 0.7086 0.8340 0.1074
C14_3 C 0.6522(11) 0.8004(6) 0.1760(12)
H14_3 H 0.6333 0.8347 0.1879
C15_3 C 0.5085(11) 0.7022(7) 0.3275(11)
H15_3 H 0.4858 0.6692 0.3364
C16_3 C 0.5526(11) 0.7009(7) 0.2781(12)
H16_3 H 0.5601 0.6671 0.2548
C20_3 C 0.7772(2) 0.7500 0.0563(2)
C21_3 C 0.4493(2) 0.7500 0.4204(3)
C22_3 C 0.7260(3) 0.7500 0.1093(3)
C23_3 C 0.4963(3) 0.7500 0.3644(3)
C25_3 C 0.6342(3) 0.7500 0.2078(4)
C26_3 C 0.5865(3) 0.7500 0.2627(4)
O2_3 O 0.79618(12) 0.79756(12) 0.03726(14)
C29_3 C 0.6972(11) 0.7001(6) 0.1280(10)
H18_3 H 0.7086 0.6660 0.1074
C30_3 C 0.6522(11) 0.6996(6) 0.1760(12)
H19_3 H 0.6333 0.6653 0.1879
C31_3 C 0.5085(11) 0.7978(7) 0.3275(11)
H20_3 H 0.4858 0.8308 0.3364
C32_3 C 0.5526(11) 0.7991(7) 0.2781(12)
H21_3 H 0.5601 0.8329 0.2548
O4_3 O 0.79618(12) 0.70244(12) 0.03726(14)
N11_2 N 0.86631(13) 0.90123(13) 0.04003(15)
N12_2 N 0.86631(13) 0.59877(13) 0.04003(15)
C1_3 C 0.5510(4) 0.8994(4) 0.5682(4)
H1_3 H 0.5797 0.9222 0.5458
C2_3 C 0.4995(3) 0.8813(3) 0.5355(4)
H2_2 H 0.4955 0.8888 0.4898
C3_3 C 0.4639(4) 0.8351(4) 0.6309(4)
H3_3 H 0.4350 0.8120 0.6527
C4_3 C 0.5173(4) 0.8509(4) 0.6651(4)
H4_3 H 0.5231 0.8385 0.7091
C9_3 C 0.7709(7) 0.8191(5) 0.8834(9)
H9_3 H 0.7639 0.7848 0.9060
C10_3 C 0.7365(9) 0.8315(6) 0.8239(10)
H10_3 H 0.7160 0.8022 0.8012
C11_3 C 0.8117(6) 0.9044(4) 0.8799(7)
H11_3 H 0.8408 0.9307 0.8955
C12_3 C 0.7720(7) 0.9218(5) 0.8304(8)
H12_3 H 0.7717 0.9599 0.8172
C17_3 C 0.61766(18) 0.9034(2) 0.6716(2)
C18_3 C 0.6516(2) 0.95277(18) 0.6655(2)
C19_3 C 0.69232(19) 0.90263(17) 0.7455(2)
C24_3 C 0.73336(19) 0.88458(18) 0.8006(2)
C28_3 C 0.56153(19) 0.88417(18) 0.6357(2)
N1_3 N 0.64446(16) 0.87182(16) 0.7220(2)
H17_3 H 0.6328 0.8387 0.7358
N2_3 N 0.69893(17) 0.95099(16) 0.7128(2)
N3_3 N 0.81198(14) 0.85482(13) 0.90647(14)
O1_3 O 0.87798(12) 0.7500 0.93387(14)
C33_3 C 0.5510(4) 0.6006(4) 0.5682(4)
H22_3 H 0.5797 0.5778 0.5458
C34_3 C 0.4995(3) 0.6187(3) 0.5355(4)
H23_2 H 0.4955 0.6112 0.4898
C35_3 C 0.4639(4) 0.6649(4) 0.6309(4)
H24_3 H 0.4350 0.6880 0.6527
C36_3 C 0.5173(4) 0.6491(4) 0.6651(4)
H25_3 H 0.5231 0.6615 0.7091
C37_3 C 0.6988(4) 0.4705(4) 0.5919(5)
H26_3 H 0.7386 0.4853 0.5979
C38_3 C 0.6885(3) 0.4220(3) 0.5534(4)
H27_3 H 0.7230 0.4031 0.5359
C39_3 C 0.5856(3) 0.4227(3) 0.5678(4)
H28_3 H 0.5475 0.4048 0.5607
C40_3 C 0.5866(4) 0.4714(3) 0.6079(4)
H29_3 H 0.5499 0.4867 0.6250
C41_3 C 0.7709(7) 0.6809(5) 0.8834(9)
H30_3 H 0.7639 0.7152 0.9060
C42_3 C 0.7365(9) 0.6685(6) 0.8239(10)
H31_3 H 0.7160 0.6978 0.8012
C43_3 C 0.8117(6) 0.5956(4) 0.8799(7)
H32_3 H 0.8408 0.5693 0.8955
C44_3 C 0.7720(7) 0.5782(5) 0.8304(8)
H33_3 H 0.7717 0.5401 0.8172
C45_3 C 0.61766(18) 0.5966(2) 0.6716(2)
C46_3 C 0.6516(2) 0.54723(18) 0.6655(2)
C47_3 C 0.69232(19) 0.59737(17) 0.7455(2)
C48_3 C 0.73336(19) 0.61542(18) 0.8006(2)
C49_3 C 0.64499(18) 0.49715(18) 0.6223(2)
C50_3 C 0.56153(19) 0.61583(18) 0.6357(2)
N6_3 N 0.64446(16) 0.62818(16) 0.7220(2)
H34_3 H 0.6328 0.6613 0.7358
N7_3 N 0.69893(17) 0.54901(16) 0.7128(2)
N8_3 N 0.81198(14) 0.64518(13) 0.90647(14)
N9_2 N 0.63369(13) 0.40123(13) 0.54003(15)
C2_4 C 0.0005(3) 0.1187(3) 0.0355(4)
C3_4 C 0.0361(4) 0.1649(4) 0.1309(4)
H3_4 H 0.0650 0.1880 0.1527
H15_4 H 0.0142 0.3308 0.8364
C21_4 C 0.0507(2) 0.2500 0.9204(3)
C23_4 C 0.0037(3) 0.2500 0.8644(3)
H20_4 H 0.0142 0.1692 0.8364
C34_4 C 0.0005(3) 0.3813(3) 0.0355(4)
C35_4 C 0.0361(4) 0.3351(4) 0.1309(4)
H24_4 H 0.0650 0.3120 0.1527
C1_4 C 0.9490(4) 0.1006(4) 0.0682(4)
H1_4 H 0.9203 0.0778 0.0458
C4_4 C 0.9827(4) 0.1491(4) 0.1651(4)
H4_4 H 0.9769 0.1615 0.2091
C9_4 C 0.7291(7) 0.1809(5) 0.3834(9)
H9_4 H 0.7361 0.2152 0.4060
C10_4 C 0.7635(9) 0.1685(6) 0.3239(10)
H10_4 H 0.7840 0.1978 0.3012
C11_4 C 0.6883(6) 0.0956(4) 0.3799(7)
H11_4 H 0.6592 0.0693 0.3955
C12_4 C 0.7280(7) 0.0782(5) 0.3304(8)
H12_4 H 0.7283 0.0401 0.3172
C13_4 C 0.8028(11) 0.2001(6) 0.6280(10)
H13_4 H 0.7914 0.1660 0.6074
C14_4 C 0.8478(11) 0.1996(6) 0.6760(12)
H14_4 H 0.8667 0.1653 0.6879
C15_4 C 0.9915(11) 0.2978(7) 0.8275(11)
C16_4 C 0.9474(11) 0.2991(7) 0.7781(12)
H16_4 H 0.9399 0.3329 0.7548
C17_4 C 0.88234(18) 0.0966(2) 0.1716(2)
C18_4 C 0.8484(2) 0.04723(18) 0.1655(2)
C19_4 C 0.80768(19) 0.09737(17) 0.2455(2)
C20_4 C 0.7228(2) 0.2500 0.5563(2)
C22_4 C 0.7740(3) 0.2500 0.6093(3)
C24_4 C 0.76664(19) 0.11542(18) 0.3006(2)
C25_4 C 0.8658(3) 0.2500 0.7078(4)
C26_4 C 0.9135(3) 0.2500 0.7627(4)
C28_4 C 0.93847(19) 0.11583(18) 0.1357(2)
N1_4 N 0.85554(16) 0.12818(16) 0.2220(2)
H17_4 H 0.8672 0.1613 0.2358
N2_4 N 0.80107(17) 0.04901(16) 0.2128(2)
N3_4 N 0.68802(14) 0.14518(13) 0.40647(14)
O1_4 O 0.62202(12) 0.2500 0.43387(14)
O2_4 O 0.70382(12) 0.20244(12) 0.53726(14)
C29_4 C 0.8028(11) 0.2999(6) 0.6280(10)
H18_4 H 0.7914 0.3340 0.6074
C30_4 C 0.8478(11) 0.3004(6) 0.6760(12)
H19_4 H 0.8667 0.3347 0.6879
C31_4 C 0.9915(11) 0.2022(7) 0.8275(11)
C32_4 C 0.9474(11) 0.2009(7) 0.7781(12)
H21_4 H 0.9399 0.1671 0.7548
O4_4 O 0.70382(12) 0.29756(12) 0.53726(14)
C33_4 C 0.9490(4) 0.3994(4) 0.0682(4)
H22_4 H 0.9203 0.4222 0.0458
C36_4 C 0.9827(4) 0.3509(4) 0.1651(4)
H25_4 H 0.9769 0.3385 0.2091
C37_4 C 0.8012(4) 0.5295(4) 0.0919(5)
H26_4 H 0.7614 0.5147 0.0979
C38_4 C 0.8115(3) 0.5780(3) 0.0534(4)
H27_4 H 0.7770 0.5969 0.0359
C39_4 C 0.9144(3) 0.5773(3) 0.0678(4)
H28_4 H 0.9525 0.5952 0.0607
C40_4 C 0.9134(4) 0.5286(3) 0.1079(4)
H29_4 H 0.9501 0.5133 0.1250
C41_4 C 0.7291(7) 0.3191(5) 0.3834(9)
H30_4 H 0.7361 0.2848 0.4060
C42_4 C 0.7635(9) 0.3315(6) 0.3239(10)
H31_4 H 0.7840 0.3022 0.3012
C43_4 C 0.6883(6) 0.4044(4) 0.3799(7)
H32_4 H 0.6592 0.4307 0.3955
C44_4 C 0.7280(7) 0.4218(5) 0.3304(8)
H33_4 H 0.7283 0.4599 0.3172
C45_4 C 0.88234(18) 0.4034(2) 0.1716(2)
C46_4 C 0.8484(2) 0.45277(18) 0.1655(2)
C47_4 C 0.80768(19) 0.40263(17) 0.2455(2)
C48_4 C 0.76664(19) 0.38458(18) 0.3006(2)
C49_4 C 0.85501(18) 0.50285(18) 0.1223(2)
C50_4 C 0.93847(19) 0.38417(18) 0.1357(2)
N6_4 N 0.85554(16) 0.37182(16) 0.2220(2)
H34_4 H 0.8672 0.3387 0.2358
N7_4 N 0.80107(17) 0.45099(16) 0.2128(2)
N8_4 N 0.68802(14) 0.35482(13) 0.40647(14)
C5_4 C 0.8012(4) 0.9705(4) 0.0919(5)
H5_4 H 0.7614 0.9853 0.0979
C6_4 C 0.8115(3) 0.9220(3) 0.0534(4)
H6_4 H 0.7770 0.9031 0.0359
C7_4 C 0.9144(3) 0.9227(3) 0.0678(4)
H7_4 H 0.9525 0.9048 0.0607
C8_4 C 0.9134(4) 0.9714(3) 0.1079(4)
H8_4 H 0.9501 0.9867 0.1250
C27_4 C 0.85501(18) 0.99715(18) 0.1223(2)
H2_3 H 0.9955 0.6112 0.0102
H23_3 H 0.9955 0.8888 0.0102
H2_4 H 0.0045 0.1112 0.9898
H23_4 H 0.0045 0.3888 0.9898
loop_
_geom_bond_atom_site_label_1
_geom_bond_atom_site_label_2
_geom_bond_site_symmetry_1
_geom_bond_site_symmetry_2
F1 Si1 1_555 1_555
F2 Si1 1_555 1_555
F3 Si1 1_555 1_555
F4 Si1 1_555 1_555
F5 Si1 1_555 1_555
Si1 F6 1_555 1_555
F1_2 Si1_2 1_555 1_555
F2_2 Si1_2 1_555 1_555
F3_2 Si1_2 1_555 1_555
F4_2 Si1_2 1_555 1_555
F5_2 Si1_2 1_555 1_555
Si1_2 F6_2 1_555 1_555
F1_3 Si1_3 1_555 1_555
F2_3 Si1_3 1_555 1_555
F3_3 Si1_3 1_555 1_555
F4_3 Si1_3 1_555 1_555
F5_3 Si1_3 1_555 1_555
Si1_3 F6_3 1_555 1_555
F1_4 Si1_4 1_555 1_555
F2_4 Si1_4 1_555 1_555
F3_4 Si1_4 1_555 1_555
F4_4 Si1_4 1_555 1_555
F5_4 Si1_4 1_555 1_555
Si1_4 F6_4 1_555 1_555
Ni1 N3 1_555 1_555
C1 H1 1_555 1_555
C2 C1 1_555 1_555
H2 C2 1_555 1_555
C3 H3 1_555 1_555
C4 C3 1_555 1_555
H4 C4 1_555 1_555
C5 H5 1_555 1_555
C6 C5 1_555 1_555
H6 C6 1_555 1_555
C7 H7 1_555 1_555
C8 C7 1_555 1_555
H8 C8 1_555 1_555
C9 H9 1_555 1_555
C10 C9 1_555 1_555
H10 C10 1_555 1_555
C11 H11 1_555 1_555
C12 C11 1_555 1_555
H12 C12 1_555 1_555
C17 C18 1_555 1_555
C18 C27 1_555 1_555
C19 C24 1_555 1_555
C24 C10 1_555 1_555
C27 C5 1_555 1_555
C28 C1 1_555 1_555
N1 C17 1_555 1_555
H17 N1 1_555 1_555
N2 C18 1_555 1_555
N3 C9 1_555 1_555
N4 C6 1_555 1_555
N5 C2 1_555 1_555
O1 Ni1 1_555 1_555
Ni2 O1 1_555 1_555
C33 H22 1_555 1_555
C34 C33 1_555 1_555
H23 C34 1_555 1_555
C35 H24 1_555 1_555
C36 C35 1_555 1_555
H25 C36 1_555 1_555
C41 H30 1_555 1_555
C42 C41 1_555 1_555
H31 C42 1_555 1_555
C43 H32 1_555 1_555
C44 C43 1_555 1_555
H33 C44 1_555 1_555
C45 C46 1_555 1_555
C47 C48 1_555 1_555
C48 C42 1_555 1_555
C50 C33 1_555 1_555
N6 C45 1_555 1_555
H34 N6 1_555 1_555
N7 C46 1_555 1_555
N8 Ni2 1_555 1_555
N10 C34 1_555 1_555
Ni3 N4 1_555 1_555
Ni5 N10 1_555 1_555
Ni7 N5 1_555 1_555
N13 Ni2 1_555 1_555
N14 Ni1 1_555 1_555
C3 N5 1_555 1_555
C4 C28 1_555 1_555
C7 N4 1_555 1_555
C8 C27 1_555 1_555
C11 N3 1_555 1_555
C12 C24 1_555 1_555
C17 C28 1_555 1_555
C19 N1 1_555 1_555
C19 N2 1_555 1_555
C35 N10 1_555 1_555
C36 C50 1_555 1_555
C41 N8 1_555 1_555
C43 N8 1_555 1_555
C44 C48 1_555 1_555
C45 C50 1_555 1_555
C47 N6 1_555 1_555
C47 N7 1_555 1_555
C13 H13 1_555 1_555
C14 C13 1_555 1_555
H14 C14 1_555 1_555
C15 H15 1_555 1_555
C16 C15 1_555 1_555
H16 C16 1_555 1_555
C20 C22 1_555 1_555
C21 C23 1_555 1_555
C22 C13 1_555 1_555
C23 C15 1_555 1_555
C25 C14 1_555 1_555
C26 C16 1_555 1_555
O3 C21 1_555 1_555
C29 C22 1_555 1_555
H18 C29 1_555 1_555
C30 C25 1_555 1_555
H19 C30 1_555 1_555
C31 C23 1_555 1_555
H20 C31 1_555 1_555
C32 C26 1_555 1_555
H21 C32 1_555 1_555
O4 C20 1_555 1_555
O5 C21 1_555 1_555
Ni5 O3 1_555 1_555
Ni7 O5 1_555 1_555
C20 O2 1_555 1_555
C25 C26 1_555 1_555
C29 C30 1_555 1_555
C31 C32 1_555 1_555
C37 H26 1_555 1_555
C38 C37 1_555 1_555
H27 C38 1_555 1_555
C39 H28 1_555 1_555
C40 C39 1_555 1_555
H29 C40 1_555 1_555
C49 C37 1_555 1_555
N9 C38 1_555 1_555
Ni8 N9 1_555 1_555
C39 N9 1_555 1_555
C40 C49 1_555 1_555
C37_2 H26_2 1_555 1_555
C38_2 C37_2 1_555 1_555
H27_2 C38_2 1_555 1_555
C39_2 H28_2 1_555 1_555
C40_2 C39_2 1_555 1_555
H29_2 C40_2 1_555 1_555
C49_2 C37_2 1_555 1_555
N12 C38_2 1_555 1_555
C39_2 N12 1_555 1_555
C40_2 C49_2 1_555 1_555
Ni3 N3_2 1_555 1_555
C1_2 H1_2 1_555 1_555
H4_2 C4_2 1_555 1_555
C5_2 H5_2 1_555 1_555
C6_2 C5_2 1_555 1_555
H6_2 C6_2 1_555 1_555
C7_2 H7_2 1_555 1_555
C8_2 C7_2 1_555 1_555
H8_2 C8_2 1_555 1_555
C9_2 H9_2 1_555 1_555
C10_2 C9_2 1_555 1_555
H10_2 C10_2 1_555 1_555
C11_2 H11_2 1_555 1_555
C12_2 C11_2 1_555 1_555
H12_2 C12_2 1_555 1_555
C13_2 H13_2 1_555 1_555
C14_2 C13_2 1_555 1_555
H14_2 C14_2 1_555 1_555
C16_2 C15_2 1_555 1_555
H16_2 C16_2 1_555 1_555
C17_2 C18_2 1_555 1_555
C18_2 C27_2 1_555 1_555
C19_2 C24_2 1_555 1_555
C20_2 C22_2 1_555 1_555
C22_2 C13_2 1_555 1_555
C24_2 C10_2 1_555 1_555
C25_2 C14_2 1_555 1_555
C26_2 C16_2 1_555 1_555
C27_2 C5_2 1_555 1_555
C28_2 C1_2 1_555 1_555
N1_2 C17_2 1_555 1_555
H17_2 N1_2 1_555 1_555
N2_2 C18_2 1_555 1_555
N3_2 C9_2 1_555 1_555
N11 C6_2 1_555 1_555
O1_2 Ni3 1_555 1_555
O2_2 Ni3 1_555 1_555
C29_2 C22_2 1_555 1_555
H18_2 C29_2 1_555 1_555
C30_2 C25_2 1_555 1_555
H19_2 C30_2 1_555 1_555
C32_2 C26_2 1_555 1_555
H21_2 C32_2 1_555 1_555
O4_2 C20_2 1_555 1_555
Ni8 O1_2 1_555 1_555
C33_2 H22_2 1_555 1_555
H25_2 C36_2 1_555 1_555
C41_2 H30_2 1_555 1_555
C42_2 C41_2 1_555 1_555
H31_2 C42_2 1_555 1_555
C43_2 H32_2 1_555 1_555
C44_2 C43_2 1_555 1_555
H33_2 C44_2 1_555 1_555
C45_2 C46_2 1_555 1_555
C47_2 C48_2 1_555 1_555
C48_2 C42_2 1_555 1_555
C50_2 C33_2 1_555 1_555
N6_2 C45_2 1_555 1_555
H34_2 N6_2 1_555 1_555
N7_2 C46_2 1_555 1_555
N8_2 Ni8 1_555 1_555
N13_2 Ni8 1_555 1_555
N14_2 Ni3 1_555 1_555
O6_2 Ni3 1_555 1_555
O7_2 Ni8 1_555 1_555
C4_2 C28_2 1_555 1_555
C7_2 N11 1_555 1_555
C8_2 C27_2 1_555 1_555
C11_2 N3_2 1_555 1_555
C12_2 C24_2 1_555 1_555
C17_2 C28_2 1_555 1_555
C19_2 N1_2 1_555 1_555
C19_2 N2_2 1_555 1_555
C20_2 O2_2 1_555 1_555
C25_2 C26_2 1_555 1_555
C29_2 C30_2 1_555 1_555
C31_2 C32_2 1_555 1_555
O4_2 Ni8 1_555 1_555
C36_2 C50_2 1_555 1_555
C41_2 N8_2 1_555 1_555
C43_2 N8_2 1_555 1_555
C44_2 C48_2 1_555 1_555
C45_2 C50_2 1_555 1_555
C47_2 N6_2 1_555 1_555
C47_2 N7_2 1_555 1_555
C3_2 H3_2 1_555 1_555
C21_2 C23_2 1_555 1_555
N5_2 C2_2 1_555 1_555
O3_2 C21_2 1_555 1_555
O5_2 C21_2 1_555 1_555
C35_2 H24_2 1_555 1_555
N10_2 C34_2 1_555 1_555
Ni5_2 N10_2 1_555 1_555
Ni7_2 N5_2 1_555 1_555
C3_2 N5_2 1_555 1_555
C35_2 N10_2 1_555 1_555
C5_3 H5_3 1_555 1_555
C6_3 C5_3 1_555 1_555
H6_3 C6_3 1_555 1_555
C7_3 H7_3 1_555 1_555
C8_3 C7_3 1_555 1_555
H8_3 C8_3 1_555 1_555
C27_3 C5_3 1_555 1_555
N4_2 C6_3 1_555 1_555
Ni5 N4_2 1_555 1_555
C7_3 N4_2 1_555 1_555
C8_3 C27_3 1_555 1_555
C13_3 H13_3 1_555 1_555
C14_3 C13_3 1_555 1_555
H14_3 C14_3 1_555 1_555
C15_3 H15_3 1_555 1_555
C16_3 C15_3 1_555 1_555
H16_3 C16_3 1_555 1_555
C20_3 C22_3 1_555 1_555
C21_3 C23_3 1_555 1_555
C22_3 C13_3 1_555 1_555
C23_3 C15_3 1_555 1_555
C25_3 C14_3 1_555 1_555
C26_3 C16_3 1_555 1_555
O6_2 C21_3 1_555 1_555
C29_3 C22_3 1_555 1_555
H18_3 C29_3 1_555 1_555
C30_3 C25_3 1_555 1_555
H19_3 C30_3 1_555 1_555
C31_3 C23_3 1_555 1_555
H20_3 C31_3 1_555 1_555
C32_3 C26_3 1_555 1_555
H21_3 C32_3 1_555 1_555
O4_3 C20_3 1_555 1_555
O7_2 C21_3 1_555 1_555
C20_3 O2_3 1_555 1_555
C25_3 C26_3 1_555 1_555
C29_3 C30_3 1_555 1_555
C31_3 C32_3 1_555 1_555
Ni5_2 N3_3 1_555 1_555
C1_3 H1_3 1_555 1_555
C2_3 C1_3 1_555 1_555
H2_2 C2_3 1_555 1_555
C3_3 H3_3 1_555 1_555
C4_3 C3_3 1_555 1_555
H4_3 C4_3 1_555 1_555
C9_3 H9_3 1_555 1_555
C10_3 C9_3 1_555 1_555
H10_3 C10_3 1_555 1_555
C11_3 H11_3 1_555 1_555
C12_3 C11_3 1_555 1_555
H12_3 C12_3 1_555 1_555
C17_3 C18_3 1_555 1_555
C19_3 C24_3 1_555 1_555
C24_3 C10_3 1_555 1_555
C28_3 C1_3 1_555 1_555
N1_3 C17_3 1_555 1_555
H17_3 N1_3 1_555 1_555
N2_3 C18_3 1_555 1_555
N3_3 C9_3 1_555 1_555
N13_2 C2_3 1_555 1_555
O1_3 Ni5_2 1_555 1_555
Ni7_2 O1_3 1_555 1_555
C33_3 H22_3 1_555 1_555
C34_3 C33_3 1_555 1_555
H23_2 C34_3 1_555 1_555
C35_3 H24_3 1_555 1_555
C36_3 C35_3 1_555 1_555
H25_3 C36_3 1_555 1_555
C37_3 H26_3 1_555 1_555
C38_3 C37_3 1_555 1_555
H27_3 C38_3 1_555 1_555
C39_3 H28_3 1_555 1_555
C40_3 C39_3 1_555 1_555
H29_3 C40_3 1_555 1_555
C41_3 H30_3 1_555 1_555
C42_3 C41_3 1_555 1_555
H31_3 C42_3 1_555 1_555
C43_3 H32_3 1_555 1_555
C44_3 C43_3 1_555 1_555
H33_3 C44_3 1_555 1_555
C45_3 C46_3 1_555 1_555
C46_3 C49_3 1_555 1_555
C47_3 C48_3 1_555 1_555
C48_3 C42_3 1_555 1_555
C49_3 C37_3 1_555 1_555
C50_3 C33_3 1_555 1_555
N6_3 C45_3 1_555 1_555
H34_3 N6_3 1_555 1_555
N7_3 C46_3 1_555 1_555
N8_3 Ni7_2 1_555 1_555
N9_2 C38_3 1_555 1_555
N14_2 C34_3 1_555 1_555
Ni7 N9_2 1_555 1_555
C3_3 N13_2 1_555 1_555
C4_3 C28_3 1_555 1_555
C11_3 N3_3 1_555 1_555
C12_3 C24_3 1_555 1_555
C17_3 C28_3 1_555 1_555
C19_3 N1_3 1_555 1_555
C19_3 N2_3 1_555 1_555
C35_3 N14_2 1_555 1_555
C36_3 C50_3 1_555 1_555
C39_3 N9_2 1_555 1_555
C40_3 C49_3 1_555 1_555
C41_3 N8_3 1_555 1_555
C43_3 N8_3 1_555 1_555
C44_3 C48_3 1_555 1_555
C45_3 C50_3 1_555 1_555
C47_3 N6_3 1_555 1_555
C47_3 N7_3 1_555 1_555
C3_4 H3_4 1_555 1_555
C21_4 C23_4 1_555 1_555
N13 C2_4 1_555 1_555
O6 C21_4 1_555 1_555
O7 C21_4 1_555 1_555
C35_4 H24_4 1_555 1_555
N14 C34_4 1_555 1_555
C3_4 N13 1_555 1_555
C35_4 N14 1_555 1_555
Ni5 N3_4 1_555 1_555
C1_4 H1_4 1_555 1_555
H4_4 C4_4 1_555 1_555
C9_4 H9_4 1_555 1_555
C10_4 C9_4 1_555 1_555
H10_4 C10_4 1_555 1_555
C11_4 H11_4 1_555 1_555
C12_4 C11_4 1_555 1_555
H12_4 C12_4 1_555 1_555
C13_4 H13_4 1_555 1_555
C14_4 C13_4 1_555 1_555
H14_4 C14_4 1_555 1_555
C16_4 C15_4 1_555 1_555
H16_4 C16_4 1_555 1_555
C17_4 C18_4 1_555 1_555
C19_4 C24_4 1_555 1_555
C20_4 C22_4 1_555 1_555
C22_4 C13_4 1_555 1_555
C24_4 C10_4 1_555 1_555
C25_4 C14_4 1_555 1_555
C26_4 C16_4 1_555 1_555
C28_4 C1_4 1_555 1_555
N1_4 C17_4 1_555 1_555
H17_4 N1_4 1_555 1_555
N2_4 C18_4 1_555 1_555
N3_4 C9_4 1_555 1_555
O1_4 Ni5 1_555 1_555
O2_4 Ni5 1_555 1_555
C29_4 C22_4 1_555 1_555
H18_4 C29_4 1_555 1_555
C30_4 C25_4 1_555 1_555
H19_4 C30_4 1_555 1_555
C32_4 C26_4 1_555 1_555
H21_4 C32_4 1_555 1_555
O4_4 C20_4 1_555 1_555
Ni7 O1_4 1_555 1_555
C33_4 H22_4 1_555 1_555
H25_4 C36_4 1_555 1_555
C37_4 H26_4 1_555 1_555
C38_4 C37_4 1_555 1_555
H27_4 C38_4 1_555 1_555
C39_4 H28_4 1_555 1_555
C40_4 C39_4 1_555 1_555
H29_4 C40_4 1_555 1_555
C41_4 H30_4 1_555 1_555
C42_4 C41_4 1_555 1_555
H31_4 C42_4 1_555 1_555
C43_4 H32_4 1_555 1_555
C44_4 C43_4 1_555 1_555
H33_4 C44_4 1_555 1_555
C45_4 C46_4 1_555 1_555
C46_4 C49_4 1_555 1_555
C47_4 C48_4 1_555 1_555
C48_4 C42_4 1_555 1_555
C49_4 C37_4 1_555 1_555
C50_4 C33_4 1_555 1_555
N6_4 C45_4 1_555 1_555
H34_4 N6_4 1_555 1_555
N7_4 C46_4 1_555 1_555
N8_4 Ni7 1_555 1_555
N12_2 C38_4 1_555 1_555
C4_4 C28_4 1_555 1_555
C11_4 N3_4 1_555 1_555
C12_4 C24_4 1_555 1_555
C17_4 C28_4 1_555 1_555
C19_4 N1_4 1_555 1_555
C19_4 N2_4 1_555 1_555
C20_4 O2_4 1_555 1_555
C25_4 C26_4 1_555 1_555
C29_4 C30_4 1_555 1_555
C31_4 C32_4 1_555 1_555
O4_4 Ni7 1_555 1_555
C36_4 C50_4 1_555 1_555
C39_4 N12_2 1_555 1_555
C40_4 C49_4 1_555 1_555
C41_4 N8_4 1_555 1_555
C43_4 N8_4 1_555 1_555
C44_4 C48_4 1_555 1_555
C45_4 C50_4 1_555 1_555
C47_4 N6_4 1_555 1_555
C47_4 N7_4 1_555 1_555
C5_4 H5_4 1_555 1_555
C6_4 C5_4 1_555 1_555
H6_4 C6_4 1_555 1_555
C7_4 H7_4 1_555 1_555
C8_4 C7_4 1_555 1_555
H8_4 C8_4 1_555 1_555
C27_4 C5_4 1_555 1_555
N11_2 C6_4 1_555 1_555
C7_4 N11_2 1_555 1_555
C8_4 C27_4 1_555 1_555

#END
