
###############################################################################
#
# This file contains modified crystal structure data generated from the
# MOF subset of the Cambridge Structural Database (CSD) v543 
# hosted by the Cambridge Crystallographic Data Centre (CCDC).
#
# This work is licensed under the Creative Commons
# Attribution-NonCommercial-ShareAlike 4.0 International License.
# To view a copy of this license, visit
# http://creativecommons.org/licenses/by-nc-sa/4.0/
# or send a letter to
# Creative Commons, PO Box 1866, Mountain View, CA 94042, USA.
#
# CIF created using the CSD Python API on 29 September 2022
# The structure has been converted into the P1 space group
# The structure has a 3D framework
# The original CSD entry YAVWAW is in the monoclinic crystal system
# The framework has been calculated to contain at least 10.0% void space
# The void calculation uses a probe of radius 1.32A, grid spacing 0.4
#
###############################################################################

data_YAVWAW
_chemical_formula_moiety         '(C68 H64 Ho4 N12 O32)n'
_symmetry_cell_setting           triclinic
_symmetry_space_group_name_H-M   'P 1'
_symmetry_Int_Tables_number      1
_space_group_name_Hall           'P 1'
loop_
_symmetry_equiv_pos_site_id
_symmetry_equiv_pos_as_xyz
1 x,y,z
_cell_length_a                   8.8304(17)
_cell_length_b                   8.8257(17)
_cell_length_c                   27.644(5)
_cell_angle_alpha                90
_cell_angle_beta                 102.142(9)
_cell_angle_gamma                90
_cell_volume                     2106.22
loop_
_atom_site_label
_atom_site_type_symbol
_atom_site_fract_x
_atom_site_fract_y
_atom_site_fract_z
H5 H 0.0623 0.0349 0.3389
H8 H 0.7237 0.0018 0.0416
C11 C 0.3410(8) 0.1879(8) 0.1743(2)
C12 C 0.2550(8) 0.0665(8) 0.1436(2)
C17 C 0.1876(8) 0.1005(8) 0.0944(2)
H13 H 0.1991 0.1978 0.0828
H15 H 0.761(8) 0.166(3) 0.280(3)
H16 H 0.823(6) 0.070(8) 0.257(3)
N2 N 0.0374(8) 0.0480(7) 0.0141(2)
O3 O 0.3338(7) 0.3205(6) 0.15876(18)
O4 O 0.7452(6) 0.0755(6) 0.2698(2)
O6 O 0.7033(10) 0.0169(8) 0.1310(2)
O8 O 0.4248(6) 0.1595(5) 0.21738(16)
Ho4 Ho 0.49621(4) 0.43907(4) 0.232944(11)
O17 O 0.5017(7) 0.1345(6) 0.32486(17)
C1 C 0.3054(9) 0.8466(9) 0.3553(3)
H1 H 0.3947 0.8103 0.3762
C2 C 0.1855(14) 0.8359(15) 0.4261(4)
H2 H 0.1122 0.7568 0.4278
H3 H 0.1577 0.9251 0.4421
H4 H 0.2872 0.8033 0.4424
C3 C 0.0469(17) 0.930(2) 0.3456(6)
H7 H 0.0203 0.8751 0.3150
C4 C 0.5593(9) 0.7531(9) 0.1644(3)
C5 C 0.5841(9) 0.7736(8) 0.1130(2)
C6 C 0.6547(12) 0.9033(9) 0.0990(3)
C7 C 0.6767(14) 0.9155(12) 0.0510(3)
C8 C 0.6308(13) 0.8036(12) 0.0174(3)
C9 C 0.5624(10) 0.6722(10) 0.0306(3)
C10 C 0.5373(9) 0.6595(9) 0.0786(3)
H10 H 0.4887 0.5736 0.0875
C13 C 0.2354(8) 0.9183(8) 0.1621(2)
C14 C 0.1543(11) 0.8125(9) 0.1275(3)
H11 H 0.1440 0.7135 0.1380
C15 C 0.0909(11) 0.8495(9) 0.0798(3)
H12 H 0.0375 0.7765 0.0585
C16 C 0.1055(9) 0.9964(9) 0.0625(2)
H14 H 0.673(10) 0.991(10) 0.1569(19)
Ho1 Ho 0.50379(4) 0.93907(4) 0.267056(11)
N3 N 0.1847(9) 0.8698(9) 0.3747(3)
O1 O 0.3104(7) 0.8686(8) 0.3122(2)
O2 O 0.4983(7) 0.6345(6) 0.17514(17)
O5 O 0.6001(6) 0.8633(6) 0.19481(18)
O7 O 0.2821(6) 0.8787(5) 0.20872(17)
H18 H 0.3547 0.1850 0.0148
N4 N 0.4758(9) 0.4401(8) 0.0068(2)
O19 O 0.6662(7) 0.8205(6) 0.34124(18)
O22 O 0.5752(6) 0.6595(5) 0.28262(16)
H9 H 0.6453 0.8150 0.9852
N1 N 0.5242(9) 0.5599(8) 0.9932(2)
C18 C 0.4407(9) 0.2469(9) 0.8356(3)
C19 C 0.4159(9) 0.2264(8) 0.8870(2)
C20 C 0.3453(12) 0.0967(9) 0.9010(3)
C21 C 0.3233(14) 0.0845(12) 0.9490(3)
C22 C 0.3692(13) 0.1964(12) 0.9826(3)
C23 C 0.4376(10) 0.3278(10) 0.9694(3)
C24 C 0.4627(9) 0.3405(9) 0.9214(3)
H19 H 0.5113 0.4264 0.9125
H20 H 0.327(10) 0.009(10) 0.8431(19)
O9 O 0.5017(7) 0.3655(6) 0.82486(17)
O10 O 0.3999(6) 0.1367(6) 0.80519(18)
Ho5 Ho 0.49621(4) 0.06093(4) 0.732944(11)
Ho7 Ho 0.50379(4) 0.56093(4) 0.767056(11)
H17 H 0.2763 0.9982 0.9584
O11 O 0.2967(10) 0.9831(8) 0.8690(2)
C27 C 0.7646(8) 0.0817(8) 0.8379(2)
C28 C 0.8457(11) 0.1875(9) 0.8725(3)
H21 H 0.8560 0.2865 0.8620
C29 C 0.9091(11) 0.1505(9) 0.9202(3)
H22 H 0.9625 0.2235 0.9415
C30 C 0.8945(9) 0.0036(9) 0.9375(2)
O13 O 0.7179(6) 0.1213(5) 0.79128(17)
C32 C 0.6946(9) 0.1534(9) 0.6447(3)
H24 H 0.6053 0.1897 0.6238
C33 C 0.8145(14) 0.1641(15) 0.5739(4)
H25 H 0.8878 0.2432 0.5722
H26 H 0.8423 0.0749 0.5579
H27 H 0.7128 0.1967 0.5576
C34 C 0.9531(17) 0.070(2) 0.6544(6)
H30 H 0.9797 0.1249 0.6850
N6 N 0.8153(9) 0.1302(9) 0.6253(3)
O15 O 0.6896(7) 0.1314(8) 0.6878(2)
O20 O 0.3338(7) 0.1795(6) 0.65876(18)
O23 O 0.4248(6) 0.3405(5) 0.71738(16)
C25 C 0.6590(8) 0.8121(8) 0.8257(2)
C26 C 0.7450(8) 0.9335(8) 0.8564(2)
C31 C 0.8124(8) 0.8995(8) 0.9056(2)
H23 H 0.8009 0.8022 0.9172
N5 N 0.9626(8) 0.9520(7) 0.9859(2)
O12 O 0.6662(7) 0.6795(6) 0.84124(18)
O14 O 0.5752(6) 0.8405(5) 0.78262(16)
H28 H 0.9377 0.9651 0.6611
H31 H 0.239(8) 0.834(3) 0.720(3)
H32 H 0.177(6) 0.930(8) 0.743(3)
O16 O 0.2548(6) 0.9245(6) 0.7302(2)
O18 O 0.4983(7) 0.8655(6) 0.67514(17)
H6 H 0.0354 0.4208 0.1368
C25_2 C 0.3410(8) 0.3121(8) 0.6743(2)
C26_2 C 0.2550(8) 0.4335(8) 0.6436(2)
C27_2 C 0.2354(8) 0.5817(8) 0.6621(2)
C28_2 C 0.1543(11) 0.6875(9) 0.6275(3)
H21_2 H 0.1440 0.7865 0.6380
C29_2 C 0.0909(11) 0.6505(9) 0.5798(3)
H22_2 H 0.0375 0.7235 0.5585
C30_2 C 0.1055(9) 0.5036(9) 0.5625(2)
C31_2 C 0.1876(8) 0.3995(8) 0.5944(2)
H23_2 H 0.1991 0.3022 0.5828
N5_2 N 0.0374(8) 0.4520(7) 0.5141(2)
O13_2 O 0.2821(6) 0.6213(5) 0.70872(17)
C32_2 C 0.3054(9) 0.6534(9) 0.8553(3)
H24_2 H 0.3947 0.6897 0.8762
C33_2 C 0.1855(14) 0.6641(15) 0.9261(4)
H25_2 H 0.1122 0.7432 0.9278
H26_2 H 0.1577 0.5749 0.9421
H27_2 H 0.2872 0.6967 0.9424
C34_2 C 0.0469(17) 0.570(2) 0.8456(6)
H28_2 H 0.0623 0.4651 0.8389
H30_2 H 0.0203 0.6249 0.8150
H31_2 H 0.761(8) 0.334(3) 0.780(3)
H32_2 H 0.823(6) 0.430(8) 0.757(3)
N6_2 N 0.1847(9) 0.6302(9) 0.8747(3)
O15_2 O 0.3104(7) 0.6314(8) 0.8122(2)
O16_2 O 0.7452(6) 0.4245(6) 0.7698(2)
O21 O 0.6001(6) 0.6367(6) 0.69481(18)
C1_2 C 0.6946(9) 0.3466(9) 0.1447(3)
H1_2 H 0.6053 0.3103 0.1238
C2_2 C 0.8145(14) 0.3359(15) 0.0739(4)
H2_2 H 0.8878 0.2568 0.0722
H3_2 H 0.8423 0.4251 0.0579
H4_2 H 0.7128 0.3033 0.0576
C3_2 C 0.9531(17) 0.430(2) 0.1544(6)
H5_2 H 0.9377 0.5349 0.1611
H7_2 H 0.9797 0.3751 0.1850
C4_2 C 0.4407(9) 0.2531(9) 0.3356(3)
C5_2 C 0.4159(9) 0.2736(8) 0.3870(2)
C6_2 C 0.3453(12) 0.4033(9) 0.4010(3)
C7_2 C 0.3233(14) 0.4155(12) 0.4490(3)
H8_2 H 0.2763 0.5018 0.4584
C8_2 C 0.3692(13) 0.3036(12) 0.4826(3)
H9_2 H 0.3547 0.3150 0.5148
C9_2 C 0.4376(10) 0.1722(10) 0.4694(3)
C10_2 C 0.4627(9) 0.1595(9) 0.4214(3)
H10_2 H 0.5113 0.0736 0.4125
C11_2 C 0.6590(8) 0.6879(8) 0.3257(2)
C12_2 C 0.7450(8) 0.5665(8) 0.3564(2)
C13_2 C 0.7646(8) 0.4183(8) 0.3379(2)
C14_2 C 0.8457(11) 0.3125(9) 0.3725(3)
H11_2 H 0.8560 0.2135 0.3620
C15_2 C 0.9091(11) 0.3495(9) 0.4202(3)
H12_2 H 0.9625 0.2765 0.4415
C16_2 C 0.8945(9) 0.4964(9) 0.4375(2)
C17_2 C 0.8124(8) 0.6005(8) 0.4056(2)
H13_2 H 0.8009 0.6978 0.4172
H14_2 H 0.327(10) 0.491(10) 0.3431(19)
H15_2 H 0.239(8) 0.666(3) 0.220(3)
H16_2 H 0.177(6) 0.570(8) 0.243(3)
N1_2 N 0.4758(9) 0.0599(8) 0.5068(2)
N2_2 N 0.9626(8) 0.5480(7) 0.4859(2)
N3_2 N 0.8153(9) 0.3698(9) 0.1253(3)
O1_2 O 0.6896(7) 0.3686(8) 0.1878(2)
O4_2 O 0.2548(6) 0.5755(6) 0.2302(2)
O5_2 O 0.3999(6) 0.3633(6) 0.30519(18)
O6_2 O 0.2967(10) 0.5169(8) 0.3690(2)
O7_2 O 0.7179(6) 0.3787(5) 0.29128(17)
H29 H 0.9646 0.5792 0.8632
C18_2 C 0.5593(9) 0.7469(9) 0.6644(3)
C19_2 C 0.5841(9) 0.7264(8) 0.6130(2)
C20_2 C 0.6547(12) 0.5967(9) 0.5990(3)
C21_2 C 0.6767(14) 0.5845(12) 0.5510(3)
H17_2 H 0.7237 0.4982 0.5416
C22_2 C 0.6308(13) 0.6964(12) 0.5174(3)
H18_2 H 0.6453 0.6850 0.4852
C23_2 C 0.5624(10) 0.8278(10) 0.5306(3)
C24_2 C 0.5373(9) 0.8405(9) 0.5786(3)
H19_2 H 0.4887 0.9264 0.5875
H20_2 H 0.673(10) 0.509(10) 0.6569(19)
N4_2 N 0.5242(9) 0.9401(8) 0.4932(2)
O11_2 O 0.7033(10) 0.4831(8) 0.6310(2)
H29_2 H 0.0354 0.0792 0.6368
H6_2 H 0.9646 0.9208 0.3632
loop_
_geom_bond_atom_site_label_1
_geom_bond_atom_site_label_2
_geom_bond_site_symmetry_1
_geom_bond_site_symmetry_2
C11 C12 1_555 1_555
C17 C12 1_555 1_555
H13 C17 1_555 1_555
H15 O4 1_555 1_555
H16 O4 1_555 1_555
O3 C11 1_555 1_555
O8 C11 1_555 1_555
Ho4 O3 1_555 1_555
O8 Ho4 1_555 1_555
C1 H1 1_555 1_555
C2 H2 1_555 1_555
H3 C2 1_555 1_555
H4 C2 1_555 1_555
H7 C3 1_555 1_555
C4 C5 1_555 1_555
C5 C6 1_555 1_555
C6 C7 1_555 1_555
C8 C7 1_555 1_555
C9 C8 1_555 1_555
C10 C5 1_555 1_555
H10 C10 1_555 1_555
C13 C14 1_555 1_555
C14 H11 1_555 1_555
C15 C14 1_555 1_555
H12 C15 1_555 1_555
C16 C15 1_555 1_555
Ho1 O1 1_555 1_555
N3 C1 1_555 1_555
O1 C1 1_555 1_555
O2 C4 1_555 1_555
O5 C4 1_555 1_555
O7 C13 1_555 1_555
Ho4 O2 1_555 1_555
O19 Ho1 1_555 1_555
O22 Ho1 1_555 1_555
C2 N3 1_555 1_555
C3 N3 1_555 1_555
C9 C10 1_555 1_555
Ho1 O5 1_555 1_555
Ho1 O7 1_555 1_555
Ho4 O22 1_555 1_555
C18 C19 1_555 1_555
C19 C20 1_555 1_555
C20 C21 1_555 1_555
C22 C21 1_555 1_555
C23 C22 1_555 1_555
C24 C19 1_555 1_555
H19 C24 1_555 1_555
O9 C18 1_555 1_555
O10 C18 1_555 1_555
Ho5 O10 1_555 1_555
Ho7 O9 1_555 1_555
C23 C24 1_555 1_555
C27 C28 1_555 1_555
C28 H21 1_555 1_555
C29 C28 1_555 1_555
H22 C29 1_555 1_555
C30 C29 1_555 1_555
O13 C27 1_555 1_555
C32 H24 1_555 1_555
C33 H25 1_555 1_555
H26 C33 1_555 1_555
H27 C33 1_555 1_555
H30 C34 1_555 1_555
Ho5 O13 1_555 1_555
N6 C32 1_555 1_555
O15 C32 1_555 1_555
O20 Ho5 1_555 1_555
O23 Ho5 1_555 1_555
C33 N6 1_555 1_555
C34 N6 1_555 1_555
Ho5 O15 1_555 1_555
C25 C26 1_555 1_555
C31 C26 1_555 1_555
H23 C31 1_555 1_555
O12 C25 1_555 1_555
O14 C25 1_555 1_555
H31 O16 1_555 1_555
H32 O16 1_555 1_555
Ho7 O12 1_555 1_555
O14 Ho7 1_555 1_555
C25_2 C26_2 1_555 1_555
C26_2 C27_2 1_555 1_555
C27_2 C28_2 1_555 1_555
C28_2 H21_2 1_555 1_555
C29_2 C28_2 1_555 1_555
H22_2 C29_2 1_555 1_555
C30_2 C29_2 1_555 1_555
C31_2 C26_2 1_555 1_555
H23_2 C31_2 1_555 1_555
O20 C25_2 1_555 1_555
O13_2 C27_2 1_555 1_555
O23 C25_2 1_555 1_555
C32_2 H24_2 1_555 1_555
C33_2 H25_2 1_555 1_555
H26_2 C33_2 1_555 1_555
H27_2 C33_2 1_555 1_555
C34_2 H28_2 1_555 1_555
H30_2 C34_2 1_555 1_555
H31_2 O16_2 1_555 1_555
H32_2 O16_2 1_555 1_555
Ho7 O13_2 1_555 1_555
N6_2 C32_2 1_555 1_555
O15_2 C32_2 1_555 1_555
O16_2 Ho7 1_555 1_555
O21 Ho7 1_555 1_555
C30_2 C31_2 1_555 1_555
C30_2 N5_2 1_555 1_555
O23 Ho7 1_555 1_555
C33_2 N6_2 1_555 1_555
C34_2 N6_2 1_555 1_555
Ho7 O15_2 1_555 1_555
C1_2 H1_2 1_555 1_555
C2_2 H2_2 1_555 1_555
H3_2 C2_2 1_555 1_555
H4_2 C2_2 1_555 1_555
C3_2 H5_2 1_555 1_555
H7_2 C3_2 1_555 1_555
C4_2 C5_2 1_555 1_555
C5_2 C6_2 1_555 1_555
C6_2 C7_2 1_555 1_555
C7_2 H8_2 1_555 1_555
C8_2 C7_2 1_555 1_555
H9_2 C8_2 1_555 1_555
C9_2 C8_2 1_555 1_555
C10_2 C5_2 1_555 1_555
H10_2 C10_2 1_555 1_555
C11_2 C12_2 1_555 1_555
C12_2 C13_2 1_555 1_555
C13_2 C14_2 1_555 1_555
C14_2 H11_2 1_555 1_555
C15_2 C14_2 1_555 1_555
H12_2 C15_2 1_555 1_555
C16_2 C15_2 1_555 1_555
C17_2 C12_2 1_555 1_555
H13_2 C17_2 1_555 1_555
H14_2 O6_2 1_555 1_555
H15_2 O4_2 1_555 1_555
H16_2 O4_2 1_555 1_555
Ho4 O1_2 1_555 1_555
N1_2 C9_2 1_555 1_555
N2_2 C16_2 1_555 1_555
N3_2 C1_2 1_555 1_555
O1_2 C1_2 1_555 1_555
O17 C4_2 1_555 1_555
O19 C11_2 1_555 1_555
O4_2 Ho4 1_555 1_555
O5_2 C4_2 1_555 1_555
O6_2 C6_2 1_555 1_555
O7_2 C13_2 1_555 1_555
O22 C11_2 1_555 1_555
C2_2 N3_2 1_555 1_555
C3_2 N3_2 1_555 1_555
C9_2 C10_2 1_555 1_555
C16_2 C17_2 1_555 1_555
Ho4 O5_2 1_555 1_555
Ho4 O7_2 1_555 1_555
C18_2 C19_2 1_555 1_555
C19_2 C20_2 1_555 1_555
C20_2 C21_2 1_555 1_555
C21_2 H17_2 1_555 1_555
C22_2 C21_2 1_555 1_555
H18_2 C22_2 1_555 1_555
C23_2 C22_2 1_555 1_555
C24_2 C19_2 1_555 1_555
H19_2 C24_2 1_555 1_555
H20_2 O11_2 1_555 1_555
O18 C18_2 1_555 1_555
O21 C18_2 1_555 1_555
O11_2 C20_2 1_555 1_555
C23_2 C24_2 1_555 1_555
C23_2 N4_2 1_555 1_555

#END
