
###############################################################################
#
# This file contains modified crystal structure data generated from the
# MOF subset of the Cambridge Structural Database (CSD) v543 
# hosted by the Cambridge Crystallographic Data Centre (CCDC).
#
# This work is licensed under the Creative Commons
# Attribution-NonCommercial-ShareAlike 4.0 International License.
# To view a copy of this license, visit
# http://creativecommons.org/licenses/by-nc-sa/4.0/
# or send a letter to
# Creative Commons, PO Box 1866, Mountain View, CA 94042, USA.
#
# CIF created using the CSD Python API on 29 September 2022
# The structure has been converted into the P1 space group
# The structure has a 3D framework
# The original CSD entry YAVWUQ is in the tetragonal crystal system
# The framework has been calculated to contain at least 10.0% void space
# The void calculation uses a probe of radius 1.32A, grid spacing 0.4
# The framework is charged, counterions have been retained in the structure
#
###############################################################################

data_YAVWUQ
_chemical_formula_moiety         '(C440 H248 Cu56 N80 O248 8-)n'
_symmetry_cell_setting           triclinic
_symmetry_space_group_name_H-M   'P 1'
_symmetry_Int_Tables_number      1
_space_group_name_Hall           'P 1'
loop_
_symmetry_equiv_pos_site_id
_symmetry_equiv_pos_as_xyz
1 x,y,z
_cell_length_a                   26.9768(15)
_cell_length_b                   26.9768(15)
_cell_length_c                   39.206(3)
_cell_angle_alpha                90
_cell_angle_beta                 90
_cell_angle_gamma                90
_cell_volume                     28532.1
loop_
_atom_site_label
_atom_site_type_symbol
_atom_site_fract_x
_atom_site_fract_y
_atom_site_fract_z
Cu1 Cu 0.126502(15) 0.247486(15) 0.302124(11)
Cu2 Cu 0.093322(15) 0.184066(15) 0.349255(11)
O1 O 0.15024(10) 0.18552(9) 0.28192(7)
O2 O 0.12634(10) 0.13275(9) 0.32270(6)
O5 O 0.33932(11) 0.15500(10) 0.03562(7)
O6 O 0.36412(10) 0.23370(10) 0.03596(6)
O7 O 0.30528(10) 0.34418(9) 0.12699(6)
O8 O 0.25408(10) 0.31516(9) 0.16705(7)
O9 O 0.06595(11) 0.24426(9) 0.36913(7)
O10 O 0.09383(10) 0.29808(9) 0.33050(7)
O13 O 0.15405(11) 0.30083(10) 0.26708(7)
O14 O 0.05317(16) 0.14002(12) 0.38670(8)
H1 H 0.0438 0.1585 0.4031
H2 H 0.0276 0.1271 0.3776
N1 N 0.24022(15) 0.13246(12) 0.18195(9)
H5 H 0.2338 0.1592 0.1930
N2 N 0.2476(2) 0.05491(15) 0.16841(12)
N3 N 0.2637(2) 0.08202(15) 0.14134(12)
N4 N -0.0000 0.5000 0.38541(12)
H6 H -0.0000 0.5000 0.4073
N5 N 0.0041(2) 0.47471(13) 0.33285(9)
C1 C 0.17200(14) 0.10209(13) 0.27623(10)
C2 C 0.17558(15) 0.05541(14) 0.29058(10)
H7 H 0.1615 0.0492 0.3118
C3 C 0.20049(15) 0.01748(13) 0.27314(10)
C4 C 0.21537(18) 0.07353(14) 0.22646(10)
C5 C 0.19232(17) 0.11043(15) 0.24435(11)
H8 H 0.1903 0.1419 0.2348
C6 C 0.22013(17) 0.02635(15) 0.24136(10)
H9 H 0.2365 0.0012 0.2297
C7 C 0.2340(2) 0.08637(15) 0.19265(12)
C8 C 0.2583(2) 0.12907(16) 0.15075(12)
C9 C 0.31181(15) 0.20639(15) 0.07987(10)
C10 C 0.30659(14) 0.25359(14) 0.09344(9)
H10 H 0.3186 0.2809 0.0815
C11 C 0.28330(15) 0.26018(13) 0.12500(9)
C12 C 0.26675(17) 0.21878(14) 0.14286(10)
H11 H 0.2513 0.2231 0.1639
C13 C 0.27282(19) 0.17157(15) 0.13008(11)
C14 C 0.29476(18) 0.16513(16) 0.09807(11)
H12 H 0.2980 0.1335 0.0889
C15 C 0.14714(14) 0.14310(14) 0.29538(10)
C17 C 0.34058(15) 0.19794(14) 0.04762(9)
C18 C 0.28031(14) 0.31039(13) 0.14096(10)
C19 C 0.04130(14) 0.32673(13) 0.37456(10)
C20 C 0.01666(14) 0.31556(14) 0.40464(10)
H13 H 0.0186 0.2837 0.4136
C23 C 0.01052(16) 0.41000(14) 0.37789(11)
C24 C 0.03807(15) 0.37447(14) 0.36088(10)
H15 H 0.0542 0.3823 0.3406
C25 C 0.00581(17) 0.46130(15) 0.36492(10)
C26 C 0.06946(14) 0.28683(14) 0.35636(10)
C28 C 0.18927(16) 0.31073(16) 0.2500
H16 H 0.2136 0.2864 0.2500
O19 O 0.03946(10) 0.70374(10) 0.46388(7)
O20 O 0.06528(11) 0.62479(10) 0.46488(7)
C31 C 0.01109(15) 0.64833(15) 0.42174(10)
C32 C 0.01290(16) 0.60080(15) 0.40812(10)
H18 H 0.0302 0.5760 0.4196
C37 C 0.04032(15) 0.66055(15) 0.45278(10)
O21 O 0.19917(10) 0.34595(11) 0.23292(7)
O24 O 0.03740(9) 0.18193(11) 0.31755(7)
O25 O 0.06240(9) 0.23647(10) 0.27835(7)
C53 C 0.03169(13) 0.20709(15) 0.29096(10)
Cu10 Cu 0.252514(15) 0.373498(15) 0.197876(11)
Cu14 Cu 0.315934(15) 0.406678(15) 0.150745(11)
Cu15 Cu 0.08516(2) 0.72658(2) 0.5000
Cu16 Cu 0.41484(2) 0.22658(2) 0.0000
Cu18 Cu 0.11560(2) 0.63265(2) 0.5000
Cu19 Cu 0.38440(2) 0.13265(2) 0.0000
O38 O 0.15582(9) 0.19472(10) 0.37301(6)
O40 O 0.18484(9) 0.24592(10) 0.33295(7)
Cu16_2 Cu 0.41484(2) 0.22658(2) 1.0000
Cu19_2 Cu 0.38440(2) 0.13265(2) 1.0000
O3 O 0.18193(11) 0.96260(9) 0.31755(7)
O4 O 0.23647(10) 0.93760(9) 0.27835(7)
C16 C 0.20709(15) 0.96831(13) 0.29096(10)
Cu8 Cu 0.247486(15) 0.873498(15) 0.302124(11)
Cu12 Cu 0.184066(15) 0.906678(15) 0.349255(11)
Cu3 Cu 0.91484(2) 0.27342(2) 0.5000
Cu4 Cu 0.88440(2) 0.36735(2) 0.5000
O11 O 0.96054(10) 0.29626(10) 0.46388(7)
O12 O 0.93472(11) 0.37521(10) 0.46488(7)
O15 O 0.9375(2) 0.19652(16) 0.5000
H3 H 0.9539 0.1910 0.5181
O16 O 0.8608(2) 0.44277(18) 0.5000
H4 H 0.8671 0.4576 0.5186
N4_2 N 1.0000 0.5000 0.38541(12)
H6_2 H 1.0000 0.5000 0.4073
C21 C 0.98891(15) 0.35167(15) 0.42174(10)
C22 C 0.98710(16) 0.39920(15) 0.40812(10)
H14 H 0.9698 0.4240 0.4196
C27 C 0.95968(15) 0.33945(15) 0.45278(10)
O17 O 0.93405(11) 0.75574(9) 0.36913(7)
O18 O 0.90617(10) 0.70192(9) 0.33050(7)
N6 N 0.9959(2) 0.52529(13) 0.33285(9)
C29 C 0.95870(14) 0.67327(13) 0.37456(10)
C30 C 0.98334(14) 0.68444(14) 0.40464(10)
H17 H 0.9814 0.7163 0.4136
C33 C 0.98948(16) 0.59000(14) 0.37789(11)
C34 C 0.96193(15) 0.62553(14) 0.36088(10)
H19 H 0.9458 0.6177 0.3406
C35 C 0.99419(17) 0.53870(15) 0.36492(10)
C36 C 0.93054(14) 0.71317(14) 0.35636(10)
H20 H 0.9539 0.1910 0.4819
H21 H 0.8671 0.4576 0.4814
Cu5 Cu 0.752514(15) 0.126502(15) 0.302124(11)
Cu6 Cu 0.815934(15) 0.093322(15) 0.349255(11)
O22 O 0.81448(9) 0.15024(10) 0.28192(7)
O23 O 0.86725(9) 0.12634(10) 0.32270(6)
O26 O 0.84500(10) 0.33932(11) 0.03562(7)
O27 O 0.76630(10) 0.36412(10) 0.03596(6)
O28 O 0.65582(9) 0.30528(10) 0.12699(6)
O29 O 0.68484(9) 0.25408(10) 0.16705(7)
O30 O 0.85998(12) 0.05317(16) 0.38670(8)
H22 H 0.8415 0.0438 0.4031
H23 H 0.8729 0.0276 0.3776
N7 N 0.86754(12) 0.24022(15) 0.18195(9)
H24 H 0.8408 0.2338 0.1930
N8 N 0.94509(15) 0.2476(2) 0.16841(12)
N9 N 0.91798(15) 0.2637(2) 0.14134(12)
C38 C 0.89791(13) 0.17200(14) 0.27623(10)
C39 C 0.94459(14) 0.17558(15) 0.29058(10)
H25 H 0.9508 0.1615 0.3118
C40 C 0.98252(13) 0.20049(15) 0.27314(10)
C41 C 0.92647(14) 0.21537(18) 0.22646(10)
C42 C 0.88957(15) 0.19232(17) 0.24435(11)
H26 H 0.8581 0.1903 0.2348
C43 C 0.97365(15) 0.22013(17) 0.24136(10)
H27 H 0.9988 0.2365 0.2297
C44 C 0.91363(15) 0.2340(2) 0.19265(12)
C45 C 0.87093(16) 0.2583(2) 0.15075(12)
C46 C 0.79361(15) 0.31181(15) 0.07987(10)
C47 C 0.74641(14) 0.30659(14) 0.09344(9)
H28 H 0.7191 0.3186 0.0815
C48 C 0.73982(13) 0.28330(15) 0.12500(9)
C49 C 0.78122(14) 0.26675(17) 0.14286(10)
H29 H 0.7769 0.2513 0.1639
C50 C 0.82843(15) 0.27282(19) 0.13008(11)
C51 C 0.83487(16) 0.29476(18) 0.09807(11)
H30 H 0.8665 0.2980 0.0889
C52 C 0.85690(14) 0.14714(14) 0.29538(10)
C54 C 0.80206(14) 0.34058(15) 0.04762(9)
C55 C 0.68961(13) 0.28031(14) 0.14096(10)
Cu7 Cu 0.873498(15) 0.752514(15) 0.302124(11)
Cu9 Cu 0.626502(15) 0.252514(15) 0.197876(11)
Cu11 Cu 0.906678(15) 0.815934(15) 0.349255(11)
Cu13 Cu 0.593322(15) 0.315934(15) 0.150745(11)
Cu17 Cu 0.77342(2) 0.41484(2) 0.0000
Cu20 Cu 0.86735(2) 0.38440(2) 0.0000
O31 O 0.81807(11) 0.03740(9) 0.31755(7)
O32 O 0.76353(10) 0.06240(9) 0.27835(7)
O33 O 0.83932(11) 0.34500(10) 0.46438(7)
O34 O 0.83932(11) 0.34500(10) 0.53562(7)
O35 O 0.86412(10) 0.26630(10) 0.46404(6)
O36 O 0.86412(10) 0.26630(10) 0.53596(6)
O37 O 0.80528(10) 0.15582(9) 0.37301(6)
O39 O 0.75408(10) 0.18484(9) 0.33295(7)
O41 O 0.75574(9) 0.06595(11) 0.36913(7)
O42 O 0.70192(9) 0.09383(10) 0.33050(7)
O43 O 0.96054(10) 0.29626(10) 0.53612(7)
O44 O 0.93472(11) 0.37521(10) 0.53512(7)
O45 O 0.69917(10) 0.15405(11) 0.26708(7)
Cu17_2 Cu 0.77342(2) 0.41484(2) 1.0000
Cu20_2 Cu 0.86735(2) 0.38440(2) 1.0000
N4_3 N 0.5000 -0.0000 0.38541(12)
H6_3 H 0.5000 0.0000 0.4073
N5_2 N 0.52529(13) 0.0041(2) 0.33285(9)
C19_2 C 0.67327(13) 0.04130(14) 0.37456(10)
C20_2 C 0.68444(14) 0.01666(14) 0.40464(10)
H13_2 H 0.7163 0.0186 0.4136
C23_2 C 0.59000(14) 0.01052(16) 0.37789(11)
C24_2 C 0.62553(14) 0.03807(15) 0.36088(10)
H15_2 H 0.6177 0.0542 0.3406
C25_2 C 0.53870(15) 0.00581(17) 0.36492(10)
C26_2 C 0.71317(14) 0.06946(14) 0.35636(10)
C28_2 C 0.68927(16) 0.18927(16) 0.2500
H16_2 H 0.7136 0.2136 0.2500
O19_2 O 0.29626(10) 0.03946(10) 0.46388(7)
O20_2 O 0.37521(10) 0.06528(11) 0.46488(7)
C31_2 C 0.35167(15) 0.01109(15) 0.42174(10)
C32_2 C 0.39920(15) 0.01290(16) 0.40812(10)
H18_2 H 0.4240 0.0302 0.4196
C37_2 C 0.33945(15) 0.04032(15) 0.45278(10)
O21_2 O 0.65405(11) 0.19917(10) 0.23292(7)
C53_2 C 0.79291(15) 0.03169(13) 0.29096(10)
Cu15_2 Cu 0.27342(2) 0.08516(2) 0.5000
Cu18_2 Cu 0.36735(2) 0.11560(2) 0.5000
Cu3_2 Cu 0.72658(2) 0.91484(2) 0.5000
Cu4_2 Cu 0.63265(2) 0.88440(2) 0.5000
O11_2 O 0.70374(10) 0.96054(10) 0.46388(7)
O12_2 O 0.62479(10) 0.93472(11) 0.46488(7)
O15_2 O 0.80348(16) 0.9375(2) 0.5000
H3_2 H 0.8090 0.9539 0.5181
O16_2 O 0.55723(18) 0.8608(2) 0.5000
H4_2 H 0.5424 0.8671 0.5186
N4_4 N 0.5000 1.0000 0.38541(12)
H6_4 H 0.5000 1.0000 0.4073
C21_2 C 0.64833(15) 0.98891(15) 0.42174(10)
C22_2 C 0.60080(15) 0.98710(16) 0.40812(10)
H14_2 H 0.5760 0.9698 0.4196
C27_2 C 0.66055(15) 0.95968(15) 0.45278(10)
O17_2 O 0.24426(9) 0.93405(11) 0.36913(7)
O18_2 O 0.29808(9) 0.90617(10) 0.33050(7)
N6_2 N 0.47471(13) 0.9959(2) 0.33285(9)
C29_2 C 0.32673(13) 0.95870(14) 0.37456(10)
C30_2 C 0.31556(14) 0.98334(14) 0.40464(10)
H17_2 H 0.2837 0.9814 0.4136
C33_2 C 0.41000(14) 0.98948(16) 0.37789(11)
C34_2 C 0.37447(14) 0.96193(15) 0.36088(10)
H19_2 H 0.3823 0.9458 0.3406
C35_2 C 0.46130(15) 0.99419(17) 0.36492(10)
C36_2 C 0.28683(14) 0.93054(14) 0.35636(10)
H20_2 H 0.8090 0.9539 0.4819
H21_2 H 0.5424 0.8671 0.4814
O22_2 O 0.84976(10) 0.81448(9) 0.28192(7)
O23_2 O 0.87366(10) 0.86725(9) 0.32270(6)
O26_2 O 0.66068(11) 0.84500(10) 0.03562(7)
O27_2 O 0.63588(10) 0.76630(10) 0.03596(6)
O28_2 O 0.69472(10) 0.65582(9) 0.12699(6)
O29_2 O 0.74592(10) 0.68484(9) 0.16705(7)
O30_2 O 0.94683(16) 0.85998(12) 0.38670(8)
H22_2 H 0.9562 0.8415 0.4031
H23_2 H 0.9724 0.8729 0.3776
N7_2 N 0.75978(15) 0.86754(12) 0.18195(9)
H24_2 H 0.7662 0.8408 0.1930
N8_2 N 0.7524(2) 0.94509(15) 0.16841(12)
N9_2 N 0.7363(2) 0.91798(15) 0.14134(12)
C38_2 C 0.82800(14) 0.89791(13) 0.27623(10)
C39_2 C 0.82442(15) 0.94459(14) 0.29058(10)
H25_2 H 0.8385 0.9508 0.3118
C40_2 C 0.79951(15) 0.98252(13) 0.27314(10)
C41_2 C 0.78463(18) 0.92647(14) 0.22646(10)
C42_2 C 0.80768(17) 0.88957(15) 0.24435(11)
H26_2 H 0.8097 0.8581 0.2348
C43_2 C 0.77987(17) 0.97365(15) 0.24136(10)
H27_2 H 0.7635 0.9988 0.2297
C44_2 C 0.7660(2) 0.91363(15) 0.19265(12)
C45_2 C 0.7417(2) 0.87093(16) 0.15075(12)
C46_2 C 0.68819(15) 0.79361(15) 0.07987(10)
C47_2 C 0.69341(14) 0.74641(14) 0.09344(9)
H28_2 H 0.6814 0.7191 0.0815
C48_2 C 0.71670(15) 0.73982(13) 0.12500(9)
C49_2 C 0.73325(17) 0.78122(14) 0.14286(10)
H29_2 H 0.7487 0.7769 0.1639
C50_2 C 0.72718(19) 0.82843(15) 0.13008(11)
C51_2 C 0.70524(18) 0.83487(16) 0.09807(11)
H30_2 H 0.7020 0.8665 0.0889
C52_2 C 0.85286(14) 0.85690(14) 0.29538(10)
C54_2 C 0.65942(15) 0.80206(14) 0.04762(9)
C55_2 C 0.71969(14) 0.68961(13) 0.14096(10)
Cu9_2 Cu 0.747486(15) 0.626502(15) 0.197876(11)
Cu13_2 Cu 0.684066(15) 0.593322(15) 0.150745(11)
Cu17_3 Cu 0.58516(2) 0.77342(2) 0.0000
Cu20_3 Cu 0.61560(2) 0.86735(2) 0.0000
O31_2 O 0.96260(9) 0.81807(11) 0.31755(7)
O32_2 O 0.93760(9) 0.76353(10) 0.27835(7)
O33_2 O 0.65500(10) 0.83932(11) 0.46438(7)
O34_2 O 0.65500(10) 0.83932(11) 0.53562(7)
O35_2 O 0.73370(10) 0.86412(10) 0.46404(6)
O36_2 O 0.73370(10) 0.86412(10) 0.53596(6)
O37_2 O 0.84418(9) 0.80528(10) 0.37301(6)
O39_2 O 0.81516(9) 0.75408(10) 0.33295(7)
O43_2 O 0.70374(10) 0.96054(10) 0.53612(7)
O44_2 O 0.62479(10) 0.93472(11) 0.53512(7)
O45_2 O 0.84595(11) 0.69917(10) 0.26708(7)
Cu17_4 Cu 0.58516(2) 0.77342(2) 1.0000
Cu20_4 Cu 0.61560(2) 0.86735(2) 1.0000
O15_3 O 0.0625(2) 0.80348(16) 0.5000
H3_3 H 0.0461 0.8090 0.5181
O16_3 O 0.1392(2) 0.55723(18) 0.5000
H4_3 H 0.1329 0.5424 0.5186
H20_3 H 0.0461 0.8090 0.4819
H21_3 H 0.1329 0.5424 0.4814
O22_3 O 0.18552(9) 0.84976(10) 0.28192(7)
O23_3 O 0.13275(9) 0.87366(10) 0.32270(6)
O26_3 O 0.15500(10) 0.66068(11) 0.03562(7)
O27_3 O 0.23370(10) 0.63588(10) 0.03596(6)
O28_3 O 0.34418(9) 0.69472(10) 0.12699(6)
O29_3 O 0.31516(9) 0.74592(10) 0.16705(7)
O30_3 O 0.14002(12) 0.94683(16) 0.38670(8)
H22_3 H 0.1585 0.9562 0.4031
H23_3 H 0.1271 0.9724 0.3776
N7_3 N 0.13246(12) 0.75978(15) 0.18195(9)
H24_3 H 0.1592 0.7662 0.1930
N8_3 N 0.05491(15) 0.7524(2) 0.16841(12)
N9_3 N 0.08202(15) 0.7363(2) 0.14134(12)
C38_3 C 0.10209(13) 0.82800(14) 0.27623(10)
C39_3 C 0.05541(14) 0.82442(15) 0.29058(10)
H25_3 H 0.0492 0.8385 0.3118
C40_3 C 0.01748(13) 0.79951(15) 0.27314(10)
C41_3 C 0.07353(14) 0.78463(18) 0.22646(10)
C42_3 C 0.11043(15) 0.80768(17) 0.24435(11)
H26_3 H 0.1419 0.8097 0.2348
C43_3 C 0.02635(15) 0.77987(17) 0.24136(10)
H27_3 H 0.0012 0.7635 0.2297
C44_3 C 0.08637(15) 0.7660(2) 0.19265(12)
C45_3 C 0.12907(16) 0.7417(2) 0.15075(12)
C46_3 C 0.20639(15) 0.68819(15) 0.07987(10)
C47_3 C 0.25359(14) 0.69341(14) 0.09344(9)
H28_3 H 0.2809 0.6814 0.0815
C48_3 C 0.26018(13) 0.71670(15) 0.12500(9)
C49_3 C 0.21878(14) 0.73325(17) 0.14286(10)
H29_3 H 0.2231 0.7487 0.1639
C50_3 C 0.17157(15) 0.72718(19) 0.13008(11)
C51_3 C 0.16513(16) 0.70524(18) 0.09807(11)
H30_3 H 0.1335 0.7020 0.0889
C52_3 C 0.14310(14) 0.85286(14) 0.29538(10)
C54_3 C 0.19794(14) 0.65942(15) 0.04762(9)
C55_3 C 0.31039(13) 0.71969(14) 0.14096(10)
Cu9_3 Cu 0.373498(15) 0.747486(15) 0.197876(11)
Cu13_3 Cu 0.406678(15) 0.684066(15) 0.150745(11)
Cu17_5 Cu 0.22658(2) 0.58516(2) 0.0000
Cu20_5 Cu 0.13265(2) 0.61560(2) 0.0000
O33_3 O 0.16068(11) 0.65500(10) 0.46438(7)
O34_3 O 0.16068(11) 0.65500(10) 0.53562(7)
O35_3 O 0.13588(10) 0.73370(10) 0.46404(6)
O36_3 O 0.13588(10) 0.73370(10) 0.53596(6)
O37_3 O 0.19472(10) 0.84418(9) 0.37301(6)
O39_3 O 0.24592(10) 0.81516(9) 0.33295(7)
O43_3 O 0.03946(10) 0.70374(10) 0.53612(7)
O44_3 O 0.06528(11) 0.62479(10) 0.53512(7)
O45_3 O 0.30083(10) 0.84595(11) 0.26708(7)
Cu17_6 Cu 0.22658(2) 0.58516(2) 1.0000
Cu20_6 Cu 0.13265(2) 0.61560(2) 1.0000
C28_3 C 0.81073(16) 0.68927(16) 0.2500
H16_3 H 0.7864 0.7136 0.2500
O21_3 O 0.80083(10) 0.65405(11) 0.23292(7)
C53_3 C 0.96831(13) 0.79291(15) 0.29096(10)
O15_4 O 0.19652(16) 0.0625(2) 0.5000
H3_4 H 0.1910 0.0461 0.5181
O16_4 O 0.44277(18) 0.1392(2) 0.5000
H4_4 H 0.4576 0.1329 0.5186
H20_4 H 0.1910 0.0461 0.4819
H21_4 H 0.4576 0.1329 0.4814
O33_4 O 0.34500(10) 0.16068(11) 0.46438(7)
O34_4 O 0.34500(10) 0.16068(11) 0.53562(7)
O35_4 O 0.26630(10) 0.13588(10) 0.46404(6)
O36_4 O 0.26630(10) 0.13588(10) 0.53596(6)
O43_4 O 0.29626(10) 0.03946(10) 0.53612(7)
O44_4 O 0.37521(10) 0.06528(11) 0.53512(7)
C28_4 C 0.31073(16) 0.81073(16) 0.2500
H16_4 H 0.2864 0.7864 0.2500
O21_4 O 0.34595(11) 0.80083(10) 0.23292(7)
O1_2 O 0.65024(10) 0.31448(9) 0.21808(7)
O2_2 O 0.62634(10) 0.36725(9) 0.17730(6)
O3_2 O 0.68193(11) 0.53740(9) 0.18245(7)
O4_2 O 0.73647(10) 0.56240(9) 0.22165(7)
O9_2 O 0.56595(11) 0.25574(9) 0.13087(7)
O10_2 O 0.59383(10) 0.20192(9) 0.16950(7)
O11_3 O 0.46054(10) 0.20374(10) 0.03612(7)
O12_3 O 0.43472(11) 0.12479(10) 0.03512(7)
O14_2 O 0.55317(16) 0.35998(12) 0.11330(8)
H1_2 H 0.5438 0.3415 0.0969
H2_2 H 0.5276 0.3729 0.1224
O15_5 O 0.4375(2) 0.30348(16) 0.0000
O16_5 O 0.3608(2) 0.05723(18) 0.0000
N1_2 N 0.74022(15) 0.36754(12) 0.31805(9)
H5_2 H 0.7338 0.3408 0.3070
N2_2 N 0.7476(2) 0.44509(15) 0.33159(12)
N3_2 N 0.7637(2) 0.41798(15) 0.35866(12)
N4_5 N 0.5000 -0.0000 0.11459(12)
H6_5 H 0.5000 -0.0000 0.0927
N5_3 N 0.5041(2) 0.02529(13) 0.16715(9)
C1_2 C 0.67200(14) 0.39791(13) 0.22377(10)
C2_2 C 0.67558(15) 0.44459(14) 0.20942(10)
H7_2 H 0.6615 0.4508 0.1882
C3_2 C 0.70049(15) 0.48252(13) 0.22686(10)
C4_2 C 0.71537(18) 0.42647(14) 0.27354(10)
C5_2 C 0.69232(17) 0.38957(15) 0.25565(11)
H8_2 H 0.6903 0.3581 0.2652
C6_2 C 0.72013(17) 0.47365(15) 0.25864(10)
H9_2 H 0.7365 0.4988 0.2703
C7_2 C 0.7340(2) 0.41363(15) 0.30735(12)
C8_2 C 0.7583(2) 0.37093(16) 0.34925(12)
C9_2 C 0.81181(15) 0.29361(15) 0.42013(10)
C10_2 C 0.80659(14) 0.24641(14) 0.40656(9)
H10_2 H 0.8186 0.2191 0.4185
C11_2 C 0.78330(15) 0.23982(13) 0.37500(9)
C12_2 C 0.76675(17) 0.28122(14) 0.35714(10)
H11_2 H 0.7513 0.2769 0.3361
C13_2 C 0.77282(19) 0.32843(15) 0.36992(11)
C14_2 C 0.79476(18) 0.33487(16) 0.40193(11)
H12_2 H 0.7980 0.3665 0.4111
C15_2 C 0.64714(14) 0.35690(14) 0.20462(10)
C16_2 C 0.70709(15) 0.53169(13) 0.20904(10)
C17_2 C 0.84058(15) 0.30206(14) 0.45238(9)
C18_2 C 0.78031(14) 0.18961(13) 0.35904(10)
C19_3 C 0.54130(14) 0.17327(13) 0.12544(10)
C20_3 C 0.51666(14) 0.18444(14) 0.09536(10)
H13_3 H 0.5186 0.2163 0.0864
C21_3 C 0.48891(15) 0.14833(15) 0.07826(10)
C22_3 C 0.48710(16) 0.10080(15) 0.09188(10)
H14_3 H 0.4698 0.0760 0.0804
C23_3 C 0.51052(16) 0.09000(14) 0.12211(11)
C24_3 C 0.53807(15) 0.12553(14) 0.13912(10)
H15_3 H 0.5542 0.1177 0.1594
C25_3 C 0.50581(17) 0.03870(15) 0.13508(10)
C26_3 C 0.56946(14) 0.21317(14) 0.14364(10)
C27_3 C 0.45968(15) 0.16055(15) 0.04722(10)
H20_5 H 0.4539 0.3090 0.0181
H21_5 H 0.3671 0.0424 0.0186
O22_4 O 0.31448(9) 0.34976(10) 0.21808(7)
O23_4 O 0.36725(9) 0.37366(10) 0.17730(6)
O24_2 O 0.53740(9) 0.31807(11) 0.18245(7)
O25_2 O 0.56240(9) 0.26353(10) 0.22165(7)
O30_4 O 0.35998(12) 0.44683(16) 0.11330(8)
H22_4 H 0.3415 0.4562 0.0969
H23_4 H 0.3729 0.4724 0.1224
N7_4 N 0.36754(12) 0.25978(15) 0.31805(9)
H24_4 H 0.3408 0.2662 0.3070
N8_4 N 0.44509(15) 0.2524(2) 0.33159(12)
N9_4 N 0.41798(15) 0.2363(2) 0.35866(12)
C38_4 C 0.39791(13) 0.32800(14) 0.22377(10)
C39_4 C 0.44459(14) 0.32442(15) 0.20942(10)
H25_4 H 0.4508 0.3385 0.1882
C40_4 C 0.48252(13) 0.29951(15) 0.22686(10)
C41_4 C 0.42647(14) 0.28463(18) 0.27354(10)
C42_4 C 0.38957(15) 0.30768(17) 0.25565(11)
H26_4 H 0.3581 0.3097 0.2652
C43_4 C 0.47365(15) 0.27987(17) 0.25864(10)
H27_4 H 0.4988 0.2635 0.2703
C44_4 C 0.41363(15) 0.2660(2) 0.30735(12)
C45_4 C 0.37093(16) 0.2417(2) 0.34925(12)
C46_4 C 0.29361(15) 0.18819(15) 0.42013(10)
C47_4 C 0.24641(14) 0.19341(14) 0.40656(9)
H28_4 H 0.2191 0.1814 0.4185
C48_4 C 0.23982(13) 0.21670(15) 0.37500(9)
C49_4 C 0.28122(14) 0.23325(17) 0.35714(10)
H29_4 H 0.2769 0.2487 0.3361
C50_4 C 0.32843(15) 0.22718(19) 0.36992(11)
C51_4 C 0.33487(16) 0.20524(18) 0.40193(11)
H30_4 H 0.3665 0.2020 0.4111
C52_4 C 0.35690(14) 0.35286(14) 0.20462(10)
C53_4 C 0.53169(13) 0.29291(15) 0.20904(10)
C54_4 C 0.30206(14) 0.15942(15) 0.45238(9)
C55_4 C 0.18961(13) 0.21969(14) 0.35904(10)
O31_3 O 0.31807(11) 0.46260(9) 0.18245(7)
O32_3 O 0.26353(10) 0.43760(9) 0.22165(7)
O41_2 O 0.25574(9) 0.43405(11) 0.13087(7)
O42_2 O 0.20192(9) 0.40617(10) 0.16950(7)
O15_6 O 0.4375(2) 0.30348(16) 1.0000
H3_5 H 0.4539 0.3090 0.9819
O16_6 O 0.3608(2) 0.05723(18) 1.0000
H4_5 H 0.3671 0.0424 0.9814
O34_5 O 0.33932(11) 0.15500(10) 0.96438(7)
O36_5 O 0.36412(10) 0.23370(10) 0.96404(6)
O43_5 O 0.46054(10) 0.20374(10) 0.96388(7)
O44_5 O 0.43472(11) 0.12479(10) 0.96488(7)
N4_6 N 0.5000 1.0000 0.11459(12)
H6_6 H 0.5000 1.0000 0.0927
O17_3 O 0.43405(11) 0.74426(9) 0.13087(7)
O18_3 O 0.40617(10) 0.79808(9) 0.16950(7)
O19_3 O 0.53946(10) 0.79626(10) 0.03612(7)
O20_3 O 0.56528(11) 0.87521(10) 0.03512(7)
N6_3 N 0.4959(2) 0.97471(13) 0.16715(9)
C29_3 C 0.45870(14) 0.82673(13) 0.12544(10)
C30_3 C 0.48334(14) 0.81556(14) 0.09536(10)
H17_3 H 0.4814 0.7837 0.0864
C31_3 C 0.51109(15) 0.85167(15) 0.07826(10)
C32_3 C 0.51290(16) 0.89920(15) 0.09188(10)
H18_3 H 0.5302 0.9240 0.0804
C33_3 C 0.48948(16) 0.91000(14) 0.12211(11)
C34_3 C 0.46193(15) 0.87447(14) 0.13912(10)
H19_3 H 0.4458 0.8823 0.1594
C35_3 C 0.49419(17) 0.96130(15) 0.13508(10)
C36_3 C 0.43054(14) 0.78683(14) 0.14364(10)
C37_3 C 0.54032(15) 0.83945(15) 0.04722(10)
N4_7 N 0.0000 0.5000 0.11459(12)
H6_7 H 0.0000 0.5000 0.0927
O19_4 O 0.20374(10) 0.53946(10) 0.03612(7)
O20_4 O 0.12479(10) 0.56528(11) 0.03512(7)
N6_4 N 0.02529(13) 0.4959(2) 0.16715(9)
C29_4 C 0.17327(13) 0.45870(14) 0.12544(10)
C30_4 C 0.18444(14) 0.48334(14) 0.09536(10)
H17_4 H 0.2163 0.4814 0.0864
C31_4 C 0.14833(15) 0.51109(15) 0.07826(10)
C32_4 C 0.10080(15) 0.51290(16) 0.09188(10)
H18_4 H 0.0760 0.5302 0.0804
C33_4 C 0.09000(14) 0.48948(16) 0.12211(11)
C34_4 C 0.12553(14) 0.46193(15) 0.13912(10)
H19_4 H 0.1177 0.4458 0.1594
C35_4 C 0.03870(15) 0.49419(17) 0.13508(10)
C36_4 C 0.21317(14) 0.43054(14) 0.14364(10)
C37_4 C 0.16055(15) 0.54032(15) 0.04722(10)
O1_3 O 0.68552(9) 0.65024(10) 0.21808(7)
O2_3 O 0.63275(9) 0.62634(10) 0.17730(6)
O3_3 O 0.46260(9) 0.68193(11) 0.18245(7)
O4_3 O 0.43760(9) 0.73647(10) 0.22165(7)
O9_3 O 0.74426(9) 0.56595(11) 0.13087(7)
O10_3 O 0.79808(9) 0.59383(10) 0.16950(7)
O11_4 O 0.79626(10) 0.46054(10) 0.03612(7)
O12_4 O 0.87521(10) 0.43472(11) 0.03512(7)
O14_3 O 0.64002(12) 0.55317(16) 0.11330(8)
H1_3 H 0.6585 0.5438 0.0969
H2_3 H 0.6271 0.5276 0.1224
O15_7 O 0.69652(16) 0.4375(2) 0.0000
O16_7 O 0.94277(18) 0.3608(2) 0.0000
N1_3 N 0.63246(12) 0.74022(15) 0.31805(9)
H5_3 H 0.6592 0.7338 0.3070
N2_3 N 0.55491(15) 0.7476(2) 0.33159(12)
N3_3 N 0.58202(15) 0.7637(2) 0.35866(12)
N4_8 N 1.0000 0.5000 0.11459(12)
H6_8 H 1.0000 0.5000 0.0927
N5_4 N 0.97471(13) 0.5041(2) 0.16715(9)
C1_3 C 0.60209(13) 0.67200(14) 0.22377(10)
C2_3 C 0.55541(14) 0.67558(15) 0.20942(10)
H7_3 H 0.5492 0.6615 0.1882
C3_3 C 0.51748(13) 0.70049(15) 0.22686(10)
C4_3 C 0.57353(14) 0.71537(18) 0.27354(10)
C5_3 C 0.61043(15) 0.69232(17) 0.25565(11)
H8_3 H 0.6419 0.6903 0.2652
C6_3 C 0.52635(15) 0.72013(17) 0.25864(10)
H9_3 H 0.5012 0.7365 0.2703
C7_3 C 0.58637(15) 0.7340(2) 0.30735(12)
C8_3 C 0.62907(16) 0.7583(2) 0.34925(12)
C9_3 C 0.70639(15) 0.81181(15) 0.42013(10)
C10_3 C 0.75359(14) 0.80659(14) 0.40656(9)
H10_3 H 0.7809 0.8186 0.4185
C11_3 C 0.76018(13) 0.78330(15) 0.37500(9)
C12_3 C 0.71878(14) 0.76675(17) 0.35714(10)
H11_3 H 0.7231 0.7513 0.3361
C13_3 C 0.67157(15) 0.77282(19) 0.36992(11)
C14_3 C 0.66513(16) 0.79476(18) 0.40193(11)
H12_3 H 0.6335 0.7980 0.4111
C15_3 C 0.64310(14) 0.64714(14) 0.20462(10)
C16_3 C 0.46831(13) 0.70709(15) 0.20904(10)
C17_3 C 0.69794(14) 0.84058(15) 0.45238(9)
C18_3 C 0.81039(13) 0.78031(14) 0.35904(10)
C19_4 C 0.82673(13) 0.54130(14) 0.12544(10)
C20_4 C 0.81556(14) 0.51666(14) 0.09536(10)
H13_4 H 0.7837 0.5186 0.0864
C21_4 C 0.85167(15) 0.48891(15) 0.07826(10)
C22_4 C 0.89920(15) 0.48710(16) 0.09188(10)
H14_4 H 0.9240 0.4698 0.0804
C23_4 C 0.91000(14) 0.51052(16) 0.12211(11)
C24_4 C 0.87447(14) 0.53807(15) 0.13912(10)
H15_4 H 0.8823 0.5542 0.1594
C25_4 C 0.96130(15) 0.50581(17) 0.13508(10)
C26_4 C 0.78683(14) 0.56946(14) 0.14364(10)
C27_4 C 0.83945(15) 0.45968(15) 0.04722(10)
H20_6 H 0.6910 0.4539 0.0181
H21_6 H 0.9576 0.3671 0.0186
O15_8 O 0.69652(16) 0.4375(2) 1.0000
H3_6 H 0.6910 0.4539 0.9819
O16_8 O 0.94277(18) 0.3608(2) 1.0000
H4_6 H 0.9576 0.3671 0.9814
O34_6 O 0.84500(10) 0.33932(11) 0.96438(7)
O36_6 O 0.76630(10) 0.36412(10) 0.96404(6)
O43_6 O 0.79626(10) 0.46054(10) 0.96388(7)
O44_6 O 0.87521(10) 0.43472(11) 0.96488(7)
O1_4 O 0.34976(10) 0.68552(9) 0.21808(7)
O2_4 O 0.37366(10) 0.63275(9) 0.17730(6)
O14_4 O 0.44683(16) 0.64002(12) 0.11330(8)
H1_4 H 0.4562 0.6585 0.0969
H2_4 H 0.4724 0.6271 0.1224
O15_9 O 0.5625(2) 0.69652(16) 0.0000
O16_9 O 0.6392(2) 0.94277(18) 0.0000
N1_4 N 0.25978(15) 0.63246(12) 0.31805(9)
H5_4 H 0.2662 0.6592 0.3070
N2_4 N 0.2524(2) 0.55491(15) 0.33159(12)
N3_4 N 0.2363(2) 0.58202(15) 0.35866(12)
C1_4 C 0.32800(14) 0.60209(13) 0.22377(10)
C2_4 C 0.32442(15) 0.55541(14) 0.20942(10)
H7_4 H 0.3385 0.5492 0.1882
C3_4 C 0.29951(15) 0.51748(13) 0.22686(10)
C4_4 C 0.28463(18) 0.57353(14) 0.27354(10)
C5_4 C 0.30768(17) 0.61043(15) 0.25565(11)
H8_4 H 0.3097 0.6419 0.2652
C6_4 C 0.27987(17) 0.52635(15) 0.25864(10)
H9_4 H 0.2635 0.5012 0.2703
C7_4 C 0.2660(2) 0.58637(15) 0.30735(12)
C8_4 C 0.2417(2) 0.62907(16) 0.34925(12)
C9_4 C 0.18819(15) 0.70639(15) 0.42013(10)
C10_4 C 0.19341(14) 0.75359(14) 0.40656(9)
H10_4 H 0.1814 0.7809 0.4185
C11_4 C 0.21670(15) 0.76018(13) 0.37500(9)
C12_4 C 0.23325(17) 0.71878(14) 0.35714(10)
H11_4 H 0.2487 0.7231 0.3361
C13_4 C 0.22718(19) 0.67157(15) 0.36992(11)
C14_4 C 0.20524(18) 0.66513(16) 0.40193(11)
H12_4 H 0.2020 0.6335 0.4111
C15_4 C 0.35286(14) 0.64310(14) 0.20462(10)
C16_4 C 0.29291(15) 0.46831(13) 0.20904(10)
C17_4 C 0.15942(15) 0.69794(14) 0.45238(9)
C18_4 C 0.21969(14) 0.81039(13) 0.35904(10)
H20_7 H 0.5461 0.6910 0.0181
H21_7 H 0.6329 0.9576 0.0186
O15_10 O 0.5625(2) 0.69652(16) 1.0000
H3_7 H 0.5461 0.6910 0.9819
O16_10 O 0.6392(2) 0.94277(18) 1.0000
H4_7 H 0.6329 0.9576 0.9814
O34_7 O 0.66068(11) 0.84500(10) 0.96438(7)
O36_7 O 0.63588(10) 0.76630(10) 0.96404(6)
O43_7 O 0.53946(10) 0.79626(10) 0.96388(7)
O44_7 O 0.56528(11) 0.87521(10) 0.96488(7)
O15_11 O 0.30348(16) 0.5625(2) 0.0000
O16_11 O 0.05723(18) 0.6392(2) 0.0000
H20_8 H 0.3090 0.5461 0.0181
H21_8 H 0.0424 0.6329 0.0186
O15_12 O 0.30348(16) 0.5625(2) 1.0000
H3_8 H 0.3090 0.5461 0.9819
O16_12 O 0.05723(18) 0.6392(2) 1.0000
H4_8 H 0.0424 0.6329 0.9814
O34_8 O 0.15500(10) 0.66068(11) 0.96438(7)
O36_8 O 0.23370(10) 0.63588(10) 0.96404(6)
O43_8 O 0.20374(10) 0.53946(10) 0.96388(7)
O44_8 O 0.12479(10) 0.56528(11) 0.96488(7)
N4_9 N -0.0000 0.5000 0.61459(12)
H6_9 H -0.0000 0.5000 0.5927
C21_5 C 0.01109(15) 0.64833(15) 0.57826(10)
C22_5 C 0.01290(16) 0.60080(15) 0.59188(10)
H14_5 H 0.0302 0.5760 0.5804
C27_5 C 0.04032(15) 0.66055(15) 0.54722(10)
O17_4 O 0.06595(11) 0.24426(9) 0.63087(7)
O18_4 O 0.09383(10) 0.29808(9) 0.66950(7)
N6_5 N 0.0041(2) 0.47471(13) 0.66715(9)
C29_5 C 0.04130(14) 0.32673(13) 0.62544(10)
C30_5 C 0.01666(14) 0.31556(14) 0.59536(10)
H17_5 H 0.0186 0.2837 0.5864
C33_5 C 0.01052(16) 0.41000(14) 0.62211(11)
C34_5 C 0.03807(15) 0.37447(14) 0.63912(10)
H19_5 H 0.0542 0.3823 0.6594
C35_5 C 0.00581(17) 0.46130(15) 0.63508(10)
C36_5 C 0.06946(14) 0.28683(14) 0.64364(10)
Cu5_2 Cu 0.247486(15) 0.873498(15) 0.697876(11)
Cu6_2 Cu 0.184066(15) 0.906678(15) 0.650745(11)
O22_5 O 0.18552(9) 0.84976(10) 0.71808(7)
O23_5 O 0.13275(9) 0.87366(10) 0.67730(6)
O28_4 O 0.34418(9) 0.69472(10) 0.87301(6)
O29_4 O 0.31516(9) 0.74592(10) 0.83295(7)
O30_5 O 0.14002(12) 0.94683(16) 0.61330(8)
H22_5 H 0.1585 0.9562 0.5969
H23_5 H 0.1271 0.9724 0.6224
N7_5 N 0.13246(12) 0.75978(15) 0.81805(9)
H24_5 H 0.1592 0.7662 0.8070
N8_5 N 0.05491(15) 0.7524(2) 0.83159(12)
N9_5 N 0.08202(15) 0.7363(2) 0.85866(12)
C38_5 C 0.10209(13) 0.82800(14) 0.72377(10)
C39_5 C 0.05541(14) 0.82442(15) 0.70942(10)
H25_5 H 0.0492 0.8385 0.6882
C40_5 C 0.01748(13) 0.79951(15) 0.72686(10)
C41_5 C 0.07353(14) 0.78463(18) 0.77354(10)
C42_5 C 0.11043(15) 0.80768(17) 0.75565(11)
H26_5 H 0.1419 0.8097 0.7652
C43_5 C 0.02635(15) 0.77987(17) 0.75864(10)
H27_5 H 0.0012 0.7635 0.7703
C44_5 C 0.08637(15) 0.7660(2) 0.80735(12)
C45_5 C 0.12907(16) 0.7417(2) 0.84925(12)
C46_5 C 0.20639(15) 0.68819(15) 0.92013(10)
C47_5 C 0.25359(14) 0.69341(14) 0.90656(9)
H28_5 H 0.2809 0.6814 0.9185
C48_5 C 0.26018(13) 0.71670(15) 0.87500(9)
C49_5 C 0.21878(14) 0.73325(17) 0.85714(10)
H29_5 H 0.2231 0.7487 0.8361
C50_5 C 0.17157(15) 0.72718(19) 0.86992(11)
C51_5 C 0.16513(16) 0.70524(18) 0.90193(11)
H30_5 H 0.1335 0.7020 0.9111
C52_5 C 0.14310(14) 0.85286(14) 0.70462(10)
C54_5 C 0.19794(14) 0.65942(15) 0.95238(9)
C55_5 C 0.31039(13) 0.71969(14) 0.85904(10)
Cu7_2 Cu 0.126502(15) 0.247486(15) 0.697876(11)
Cu9_4 Cu 0.373498(15) 0.747486(15) 0.802124(11)
Cu11_2 Cu 0.093322(15) 0.184066(15) 0.650745(11)
Cu13_4 Cu 0.406678(15) 0.684066(15) 0.849255(11)
O31_4 O 0.18193(11) 0.96260(9) 0.68245(7)
O32_4 O 0.23647(10) 0.93760(9) 0.72165(7)
O37_4 O 0.19472(10) 0.84418(9) 0.62699(6)
O39_4 O 0.24592(10) 0.81516(9) 0.66705(7)
O41_3 O 0.24426(9) 0.93405(11) 0.63087(7)
O42_3 O 0.29808(9) 0.90617(10) 0.66950(7)
O45_4 O 0.30083(10) 0.84595(11) 0.73292(7)
O3_4 O 0.81807(11) 0.03740(9) 0.68245(7)
O4_4 O 0.76353(10) 0.06240(9) 0.72165(7)
C16_5 C 0.79291(15) 0.03169(13) 0.70904(10)
Cu8_2 Cu 0.752514(15) 0.126502(15) 0.697876(11)
Cu12_2 Cu 0.815934(15) 0.093322(15) 0.650745(11)
Cu1_2 Cu 0.873498(15) 0.752514(15) 0.697876(11)
Cu2_2 Cu 0.906678(15) 0.815934(15) 0.650745(11)
O1_5 O 0.84976(10) 0.81448(9) 0.71808(7)
O2_5 O 0.87366(10) 0.86725(9) 0.67730(6)
O7_2 O 0.69472(10) 0.65582(9) 0.87301(6)
O8_2 O 0.74592(10) 0.68484(9) 0.83295(7)
O9_4 O 0.93405(11) 0.75574(9) 0.63087(7)
O10_4 O 0.90617(10) 0.70192(9) 0.66950(7)
O13_2 O 0.84595(11) 0.69917(10) 0.73292(7)
O14_5 O 0.94683(16) 0.85998(12) 0.61330(8)
H1_5 H 0.9562 0.8415 0.5969
H2_5 H 0.9724 0.8729 0.6224
N1_5 N 0.75978(15) 0.86754(12) 0.81805(9)
H5_5 H 0.7662 0.8408 0.8070
N2_5 N 0.7524(2) 0.94509(15) 0.83159(12)
N3_5 N 0.7363(2) 0.91798(15) 0.85866(12)
N4_10 N 1.0000 0.5000 0.61459(12)
H6_10 H 1.0000 0.5000 0.5927
N5_5 N 0.9959(2) 0.52529(13) 0.66715(9)
C1_5 C 0.82800(14) 0.89791(13) 0.72377(10)
C2_5 C 0.82442(15) 0.94459(14) 0.70942(10)
H7_5 H 0.8385 0.9508 0.6882
C3_5 C 0.79951(15) 0.98252(13) 0.72686(10)
C4_5 C 0.78463(18) 0.92647(14) 0.77354(10)
C5_5 C 0.80768(17) 0.88957(15) 0.75565(11)
H8_5 H 0.8097 0.8581 0.7652
C6_5 C 0.77987(17) 0.97365(15) 0.75864(10)
H9_5 H 0.7635 0.9988 0.7703
C7_5 C 0.7660(2) 0.91363(15) 0.80735(12)
C8_5 C 0.7417(2) 0.87093(16) 0.84925(12)
C9_5 C 0.68819(15) 0.79361(15) 0.92013(10)
C10_5 C 0.69341(14) 0.74641(14) 0.90656(9)
H10_5 H 0.6814 0.7191 0.9185
C11_5 C 0.71670(15) 0.73982(13) 0.87500(9)
C12_5 C 0.73325(17) 0.78122(14) 0.85714(10)
H11_5 H 0.7487 0.7769 0.8361
C13_5 C 0.72718(19) 0.82843(15) 0.86992(11)
C14_5 C 0.70524(18) 0.83487(16) 0.90193(11)
H12_5 H 0.7020 0.8665 0.9111
C15_5 C 0.85286(14) 0.85690(14) 0.70462(10)
C17_5 C 0.65942(15) 0.80206(14) 0.95238(9)
C18_5 C 0.71969(14) 0.68961(13) 0.85904(10)
C19_5 C 0.95870(14) 0.67327(13) 0.62544(10)
C20_5 C 0.98334(14) 0.68444(14) 0.59536(10)
H13_5 H 0.9814 0.7163 0.5864
C23_5 C 0.98948(16) 0.59000(14) 0.62211(11)
C24_5 C 0.96193(15) 0.62553(14) 0.63912(10)
H15_5 H 0.9458 0.6177 0.6594
C25_5 C 0.99419(17) 0.53870(15) 0.63508(10)
C26_5 C 0.93054(14) 0.71317(14) 0.64364(10)
C28_5 C 0.81073(16) 0.68927(16) 0.7500
H16_5 H 0.7864 0.7136 0.7500
C31_5 C 0.98891(15) 0.35167(15) 0.57826(10)
C32_5 C 0.98710(16) 0.39920(15) 0.59188(10)
H18_5 H 0.9698 0.4240 0.5804
C37_5 C 0.95968(15) 0.33945(15) 0.54722(10)
O21_5 O 0.80083(10) 0.65405(11) 0.76708(7)
O24_3 O 0.96260(9) 0.81807(11) 0.68245(7)
O25_3 O 0.93760(9) 0.76353(10) 0.72165(7)
C53_5 C 0.96831(13) 0.79291(15) 0.70904(10)
Cu10_2 Cu 0.747486(15) 0.626502(15) 0.802124(11)
Cu14_2 Cu 0.684066(15) 0.593322(15) 0.849255(11)
O38_2 O 0.84418(9) 0.80528(10) 0.62699(6)
O40_2 O 0.81516(9) 0.75408(10) 0.66705(7)
N4_11 N 0.5000 0.0000 0.61459(12)
H6_11 H 0.5000 -0.0000 0.5927
C21_6 C 0.35167(15) 0.01109(15) 0.57826(10)
C22_6 C 0.39920(15) 0.01290(16) 0.59188(10)
H14_6 H 0.4240 0.0302 0.5804
C27_6 C 0.33945(15) 0.04032(15) 0.54722(10)
O17_5 O 0.75574(9) 0.06595(11) 0.63087(7)
O18_5 O 0.70192(9) 0.09383(10) 0.66950(7)
N6_6 N 0.52529(13) 0.0041(2) 0.66715(9)
C29_6 C 0.67327(13) 0.04130(14) 0.62544(10)
C30_6 C 0.68444(14) 0.01666(14) 0.59536(10)
H17_6 H 0.7163 0.0186 0.5864
C33_6 C 0.59000(14) 0.01052(16) 0.62211(11)
C34_6 C 0.62553(14) 0.03807(15) 0.63912(10)
H19_6 H 0.6177 0.0542 0.6594
C35_6 C 0.53870(15) 0.00581(17) 0.63508(10)
C36_6 C 0.71317(14) 0.06946(14) 0.64364(10)
O22_6 O 0.15024(10) 0.18552(9) 0.71808(7)
O23_6 O 0.12634(10) 0.13275(9) 0.67730(6)
O28_5 O 0.30528(10) 0.34418(9) 0.87301(6)
O29_5 O 0.25408(10) 0.31516(9) 0.83295(7)
O30_6 O 0.05317(16) 0.14002(12) 0.61330(8)
H22_6 H 0.0438 0.1585 0.5969
H23_6 H 0.0276 0.1271 0.6224
N7_6 N 0.24022(15) 0.13246(12) 0.81805(9)
H24_6 H 0.2338 0.1592 0.8070
N8_6 N 0.2476(2) 0.05491(15) 0.83159(12)
N9_6 N 0.2637(2) 0.08202(15) 0.85866(12)
C38_6 C 0.17200(14) 0.10209(13) 0.72377(10)
C39_6 C 0.17558(15) 0.05541(14) 0.70942(10)
H25_6 H 0.1615 0.0492 0.6882
C40_6 C 0.20049(15) 0.01748(13) 0.72686(10)
C41_6 C 0.21537(18) 0.07353(14) 0.77354(10)
C42_6 C 0.19232(17) 0.11043(15) 0.75565(11)
H26_6 H 0.1903 0.1419 0.7652
C43_6 C 0.22013(17) 0.02635(15) 0.75864(10)
H27_6 H 0.2365 0.0012 0.7703
C44_6 C 0.2340(2) 0.08637(15) 0.80735(12)
C45_6 C 0.2583(2) 0.12907(16) 0.84925(12)
C46_6 C 0.31181(15) 0.20639(15) 0.92013(10)
C47_6 C 0.30659(14) 0.25359(14) 0.90656(9)
H28_6 H 0.3186 0.2809 0.9185
C48_6 C 0.28330(15) 0.26018(13) 0.87500(9)
C49_6 C 0.26675(17) 0.21878(14) 0.85714(10)
H29_6 H 0.2513 0.2231 0.8361
C50_6 C 0.27282(19) 0.17157(15) 0.86992(11)
C51_6 C 0.29476(18) 0.16513(16) 0.90193(11)
H30_6 H 0.2980 0.1335 0.9111
C52_6 C 0.14714(14) 0.14310(14) 0.70462(10)
C54_6 C 0.34058(15) 0.19794(14) 0.95238(9)
C55_6 C 0.28031(14) 0.31039(13) 0.85904(10)
Cu9_5 Cu 0.252514(15) 0.373498(15) 0.802124(11)
Cu13_5 Cu 0.315934(15) 0.406678(15) 0.849255(11)
O31_5 O 0.03740(9) 0.18193(11) 0.68245(7)
O32_5 O 0.06240(9) 0.23647(10) 0.72165(7)
O37_5 O 0.15582(9) 0.19472(10) 0.62699(6)
O39_5 O 0.18484(9) 0.24592(10) 0.66705(7)
O45_5 O 0.15405(11) 0.30083(10) 0.73292(7)
N4_12 N 0.5000 1.0000 0.61459(12)
H6_12 H 0.5000 1.0000 0.5927
N5_6 N 0.47471(13) 0.9959(2) 0.66715(9)
C19_6 C 0.32673(13) 0.95870(14) 0.62544(10)
C20_6 C 0.31556(14) 0.98334(14) 0.59536(10)
H13_6 H 0.2837 0.9814 0.5864
C23_6 C 0.41000(14) 0.98948(16) 0.62211(11)
C24_6 C 0.37447(14) 0.96193(15) 0.63912(10)
H15_6 H 0.3823 0.9458 0.6594
C25_6 C 0.46130(15) 0.99419(17) 0.63508(10)
C26_6 C 0.28683(14) 0.93054(14) 0.64364(10)
C28_6 C 0.31073(16) 0.81073(16) 0.7500
H16_6 H 0.2864 0.7864 0.7500
C31_6 C 0.64833(15) 0.98891(15) 0.57826(10)
C32_6 C 0.60080(15) 0.98710(16) 0.59188(10)
H18_6 H 0.5760 0.9698 0.5804
C37_6 C 0.66055(15) 0.95968(15) 0.54722(10)
O21_6 O 0.34595(11) 0.80083(10) 0.76708(7)
C53_6 C 0.20709(15) 0.96831(13) 0.70904(10)
C28_7 C 0.18927(16) 0.31073(16) 0.7500
H16_7 H 0.2136 0.2864 0.7500
O21_7 O 0.19917(10) 0.34595(11) 0.76708(7)
C53_7 C 0.03169(13) 0.20709(15) 0.70904(10)
O22_7 O 0.81448(9) 0.15024(10) 0.71808(7)
O23_7 O 0.86725(9) 0.12634(10) 0.67730(6)
O28_6 O 0.65582(9) 0.30528(10) 0.87301(6)
O29_6 O 0.68484(9) 0.25408(10) 0.83295(7)
O30_7 O 0.85998(12) 0.05317(16) 0.61330(8)
H22_7 H 0.8415 0.0438 0.5969
H23_7 H 0.8729 0.0276 0.6224
N7_7 N 0.86754(12) 0.24022(15) 0.81805(9)
H24_7 H 0.8408 0.2338 0.8070
N8_7 N 0.94509(15) 0.2476(2) 0.83159(12)
N9_7 N 0.91798(15) 0.2637(2) 0.85866(12)
C38_7 C 0.89791(13) 0.17200(14) 0.72377(10)
C39_7 C 0.94459(14) 0.17558(15) 0.70942(10)
H25_7 H 0.9508 0.1615 0.6882
C40_7 C 0.98252(13) 0.20049(15) 0.72686(10)
C41_7 C 0.92647(14) 0.21537(18) 0.77354(10)
C42_7 C 0.88957(15) 0.19232(17) 0.75565(11)
H26_7 H 0.8581 0.1903 0.7652
C43_7 C 0.97365(15) 0.22013(17) 0.75864(10)
H27_7 H 0.9988 0.2365 0.7703
C44_7 C 0.91363(15) 0.2340(2) 0.80735(12)
C45_7 C 0.87093(16) 0.2583(2) 0.84925(12)
C46_7 C 0.79361(15) 0.31181(15) 0.92013(10)
C47_7 C 0.74641(14) 0.30659(14) 0.90656(9)
H28_7 H 0.7191 0.3186 0.9185
C48_7 C 0.73982(13) 0.28330(15) 0.87500(9)
C49_7 C 0.78122(14) 0.26675(17) 0.85714(10)
H29_7 H 0.7769 0.2513 0.8361
C50_7 C 0.82843(15) 0.27282(19) 0.86992(11)
C51_7 C 0.83487(16) 0.29476(18) 0.90193(11)
H30_7 H 0.8665 0.2980 0.9111
C52_7 C 0.85690(14) 0.14714(14) 0.70462(10)
C54_7 C 0.80206(14) 0.34058(15) 0.95238(9)
C55_7 C 0.68961(13) 0.28031(14) 0.85904(10)
Cu9_6 Cu 0.626502(15) 0.252514(15) 0.802124(11)
Cu13_6 Cu 0.593322(15) 0.315934(15) 0.849255(11)
O37_6 O 0.80528(10) 0.15582(9) 0.62699(6)
O39_6 O 0.75408(10) 0.18484(9) 0.66705(7)
O45_6 O 0.69917(10) 0.15405(11) 0.73292(7)
C28_8 C 0.68927(16) 0.18927(16) 0.7500
H16_8 H 0.7136 0.2136 0.7500
O21_8 O 0.65405(11) 0.19917(10) 0.76708(7)
N4_13 N 0.5000 0.0000 0.88541(12)
H6_13 H 0.5000 0.0000 0.9073
O17_6 O 0.56595(11) 0.25574(9) 0.86913(7)
O18_6 O 0.59383(10) 0.20192(9) 0.83050(7)
N6_7 N 0.5041(2) 0.02529(13) 0.83285(9)
C29_7 C 0.54130(14) 0.17327(13) 0.87456(10)
C30_7 C 0.51666(14) 0.18444(14) 0.90464(10)
H17_7 H 0.5186 0.2163 0.9136
C31_7 C 0.48891(15) 0.14833(15) 0.92174(10)
C32_7 C 0.48710(16) 0.10080(15) 0.90812(10)
H18_7 H 0.4698 0.0760 0.9196
C33_7 C 0.51052(16) 0.09000(14) 0.87789(11)
C34_7 C 0.53807(15) 0.12553(14) 0.86088(10)
H19_7 H 0.5542 0.1177 0.8406
C35_7 C 0.50581(17) 0.03870(15) 0.86492(10)
C36_7 C 0.56946(14) 0.21317(14) 0.85636(10)
C37_7 C 0.45968(15) 0.16055(15) 0.95278(10)
O1_6 O 0.34976(10) 0.68552(9) 0.78192(7)
O2_6 O 0.37366(10) 0.63275(9) 0.82270(6)
O3_5 O 0.31807(11) 0.46260(9) 0.81755(7)
O4_5 O 0.26353(10) 0.43760(9) 0.77835(7)
O9_5 O 0.43405(11) 0.74426(9) 0.86913(7)
O10_5 O 0.40617(10) 0.79808(9) 0.83050(7)
O14_6 O 0.44683(16) 0.64002(12) 0.88670(8)
H1_6 H 0.4562 0.6585 0.9031
H2_6 H 0.4724 0.6271 0.8776
N1_6 N 0.25978(15) 0.63246(12) 0.68195(9)
H5_6 H 0.2662 0.6592 0.6930
N2_6 N 0.2524(2) 0.55491(15) 0.66841(12)
N3_6 N 0.2363(2) 0.58202(15) 0.64134(12)
N4_14 N 0.5000 1.0000 0.88541(12)
H6_14 H 0.5000 1.0000 0.9073
N5_7 N 0.4959(2) 0.97471(13) 0.83285(9)
C1_6 C 0.32800(14) 0.60209(13) 0.77623(10)
C2_6 C 0.32442(15) 0.55541(14) 0.79058(10)
H7_6 H 0.3385 0.5492 0.8118
C3_6 C 0.29951(15) 0.51748(13) 0.77314(10)
C4_6 C 0.28463(18) 0.57353(14) 0.72646(10)
C5_6 C 0.30768(17) 0.61043(15) 0.74435(11)
H8_6 H 0.3097 0.6419 0.7348
C6_6 C 0.27987(17) 0.52635(15) 0.74136(10)
H9_6 H 0.2635 0.5012 0.7297
C7_6 C 0.2660(2) 0.58637(15) 0.69265(12)
C8_6 C 0.2417(2) 0.62907(16) 0.65075(12)
C9_6 C 0.18819(15) 0.70639(15) 0.57987(10)
C10_6 C 0.19341(14) 0.75359(14) 0.59344(9)
H10_6 H 0.1814 0.7809 0.5815
C11_6 C 0.21670(15) 0.76018(13) 0.62500(9)
C12_6 C 0.23325(17) 0.71878(14) 0.64286(10)
H11_6 H 0.2487 0.7231 0.6639
C13_6 C 0.22718(19) 0.67157(15) 0.63008(11)
C14_6 C 0.20524(18) 0.66513(16) 0.59807(11)
H12_6 H 0.2020 0.6335 0.5889
C15_6 C 0.35286(14) 0.64310(14) 0.79538(10)
C16_6 C 0.29291(15) 0.46831(13) 0.79096(10)
C17_6 C 0.15942(15) 0.69794(14) 0.54762(9)
C18_6 C 0.21969(14) 0.81039(13) 0.64096(10)
C19_7 C 0.45870(14) 0.82673(13) 0.87456(10)
C20_7 C 0.48334(14) 0.81556(14) 0.90464(10)
H13_7 H 0.4814 0.7837 0.9136
C21_7 C 0.51109(15) 0.85167(15) 0.92174(10)
C22_7 C 0.51290(16) 0.89920(15) 0.90812(10)
H14_7 H 0.5302 0.9240 0.9196
C23_7 C 0.48948(16) 0.91000(14) 0.87789(11)
C24_7 C 0.46193(15) 0.87447(14) 0.86088(10)
H15_7 H 0.4458 0.8823 0.8406
C25_7 C 0.49419(17) 0.96130(15) 0.86492(10)
C26_7 C 0.43054(14) 0.78683(14) 0.85636(10)
C27_7 C 0.54032(15) 0.83945(15) 0.95278(10)
O22_8 O 0.68552(9) 0.65024(10) 0.78192(7)
O23_8 O 0.63275(9) 0.62634(10) 0.82270(6)
O24_4 O 0.46260(9) 0.68193(11) 0.81755(7)
O25_4 O 0.43760(9) 0.73647(10) 0.77835(7)
O30_8 O 0.64002(12) 0.55317(16) 0.88670(8)
H22_8 H 0.6585 0.5438 0.9031
H23_8 H 0.6271 0.5276 0.8776
N7_8 N 0.63246(12) 0.74022(15) 0.68195(9)
H24_8 H 0.6592 0.7338 0.6930
N8_8 N 0.55491(15) 0.7476(2) 0.66841(12)
N9_8 N 0.58202(15) 0.7637(2) 0.64134(12)
C38_8 C 0.60209(13) 0.67200(14) 0.77623(10)
C39_8 C 0.55541(14) 0.67558(15) 0.79058(10)
H25_8 H 0.5492 0.6615 0.8118
C40_8 C 0.51748(13) 0.70049(15) 0.77314(10)
C41_8 C 0.57353(14) 0.71537(18) 0.72646(10)
C42_8 C 0.61043(15) 0.69232(17) 0.74435(11)
H26_8 H 0.6419 0.6903 0.7348
C43_8 C 0.52635(15) 0.72013(17) 0.74136(10)
H27_8 H 0.5012 0.7365 0.7297
C44_8 C 0.58637(15) 0.7340(2) 0.69265(12)
C45_8 C 0.62907(16) 0.7583(2) 0.65075(12)
C46_8 C 0.70639(15) 0.81181(15) 0.57987(10)
C47_8 C 0.75359(14) 0.80659(14) 0.59344(9)
H28_8 H 0.7809 0.8186 0.5815
C48_8 C 0.76018(13) 0.78330(15) 0.62500(9)
C49_8 C 0.71878(14) 0.76675(17) 0.64286(10)
H29_8 H 0.7231 0.7513 0.6639
C50_8 C 0.67157(15) 0.77282(19) 0.63008(11)
C51_8 C 0.66513(16) 0.79476(18) 0.59807(11)
H30_8 H 0.6335 0.7980 0.5889
C52_8 C 0.64310(14) 0.64714(14) 0.79538(10)
C53_8 C 0.46831(13) 0.70709(15) 0.79096(10)
C54_8 C 0.69794(14) 0.84058(15) 0.54762(9)
C55_8 C 0.81039(13) 0.78031(14) 0.64096(10)
O31_6 O 0.68193(11) 0.53740(9) 0.81755(7)
O32_6 O 0.73647(10) 0.56240(9) 0.77835(7)
O41_4 O 0.74426(9) 0.56595(11) 0.86913(7)
O42_4 O 0.79808(9) 0.59383(10) 0.83050(7)
O1_7 O 0.31448(9) 0.34976(10) 0.78192(7)
O2_7 O 0.36725(9) 0.37366(10) 0.82270(6)
O3_6 O 0.53740(9) 0.31807(11) 0.81755(7)
O4_6 O 0.56240(9) 0.26353(10) 0.77835(7)
O9_6 O 0.25574(9) 0.43405(11) 0.86913(7)
O10_6 O 0.20192(9) 0.40617(10) 0.83050(7)
O14_7 O 0.35998(12) 0.44683(16) 0.88670(8)
H1_7 H 0.3415 0.4562 0.9031
H2_7 H 0.3729 0.4724 0.8776
N1_7 N 0.36754(12) 0.25978(15) 0.68195(9)
H5_7 H 0.3408 0.2662 0.6930
N2_7 N 0.44509(15) 0.2524(2) 0.66841(12)
N3_7 N 0.41798(15) 0.2363(2) 0.64134(12)
N4_15 N -0.0000 0.5000 0.88541(12)
H6_15 H -0.0000 0.5000 0.9073
N5_8 N 0.02529(13) 0.4959(2) 0.83285(9)
C1_7 C 0.39791(13) 0.32800(14) 0.77623(10)
C2_7 C 0.44459(14) 0.32442(15) 0.79058(10)
H7_7 H 0.4508 0.3385 0.8118
C3_7 C 0.48252(13) 0.29951(15) 0.77314(10)
C4_7 C 0.42647(14) 0.28463(18) 0.72646(10)
C5_7 C 0.38957(15) 0.30768(17) 0.74435(11)
H8_7 H 0.3581 0.3097 0.7348
C6_7 C 0.47365(15) 0.27987(17) 0.74136(10)
H9_7 H 0.4988 0.2635 0.7297
C7_7 C 0.41363(15) 0.2660(2) 0.69265(12)
C8_7 C 0.37093(16) 0.2417(2) 0.65075(12)
C9_7 C 0.29361(15) 0.18819(15) 0.57987(10)
C10_7 C 0.24641(14) 0.19341(14) 0.59344(9)
H10_7 H 0.2191 0.1814 0.5815
C11_7 C 0.23982(13) 0.21670(15) 0.62500(9)
C12_7 C 0.28122(14) 0.23325(17) 0.64286(10)
H11_7 H 0.2769 0.2487 0.6639
C13_7 C 0.32843(15) 0.22718(19) 0.63008(11)
C14_7 C 0.33487(16) 0.20524(18) 0.59807(11)
H12_7 H 0.3665 0.2020 0.5889
C15_7 C 0.35690(14) 0.35286(14) 0.79538(10)
C16_7 C 0.53169(13) 0.29291(15) 0.79096(10)
C17_7 C 0.30206(14) 0.15942(15) 0.54762(9)
C18_7 C 0.18961(13) 0.21969(14) 0.64096(10)
C19_8 C 0.17327(13) 0.45870(14) 0.87456(10)
C20_8 C 0.18444(14) 0.48334(14) 0.90464(10)
H13_8 H 0.2163 0.4814 0.9136
C21_8 C 0.14833(15) 0.51109(15) 0.92174(10)
C22_8 C 0.10080(15) 0.51290(16) 0.90812(10)
H14_8 H 0.0760 0.5302 0.9196
C23_8 C 0.09000(14) 0.48948(16) 0.87789(11)
C24_8 C 0.12553(14) 0.46193(15) 0.86088(10)
H15_8 H 0.1177 0.4458 0.8406
C25_8 C 0.03870(15) 0.49419(17) 0.86492(10)
C26_8 C 0.21317(14) 0.43054(14) 0.85636(10)
C27_8 C 0.16055(15) 0.54032(15) 0.95278(10)
N4_16 N 1.0000 0.5000 0.88541(12)
H6_16 H 1.0000 0.5000 0.9073
N6_8 N 0.97471(13) 0.5041(2) 0.83285(9)
C29_8 C 0.82673(13) 0.54130(14) 0.87456(10)
C30_8 C 0.81556(14) 0.51666(14) 0.90464(10)
H17_8 H 0.7837 0.5186 0.9136
C31_8 C 0.85167(15) 0.48891(15) 0.92174(10)
C32_8 C 0.89920(15) 0.48710(16) 0.90812(10)
H18_8 H 0.9240 0.4698 0.9196
C33_8 C 0.91000(14) 0.51052(16) 0.87789(11)
C34_8 C 0.87447(14) 0.53807(15) 0.86088(10)
H19_8 H 0.8823 0.5542 0.8406
C35_8 C 0.96130(15) 0.50581(17) 0.86492(10)
C36_8 C 0.78683(14) 0.56946(14) 0.85636(10)
C37_8 C 0.83945(15) 0.45968(15) 0.95278(10)
O1_8 O 0.65024(10) 0.31448(9) 0.78192(7)
O2_8 O 0.62634(10) 0.36725(9) 0.82270(6)
O14_8 O 0.55317(16) 0.35998(12) 0.88670(8)
H1_8 H 0.5438 0.3415 0.9031
H2_8 H 0.5276 0.3729 0.8776
N1_8 N 0.74022(15) 0.36754(12) 0.68195(9)
H5_8 H 0.7338 0.3408 0.6930
N2_8 N 0.7476(2) 0.44509(15) 0.66841(12)
N3_8 N 0.7637(2) 0.41798(15) 0.64134(12)
C1_8 C 0.67200(14) 0.39791(13) 0.77623(10)
C2_8 C 0.67558(15) 0.44459(14) 0.79058(10)
H7_8 H 0.6615 0.4508 0.8118
C3_8 C 0.70049(15) 0.48252(13) 0.77314(10)
C4_8 C 0.71537(18) 0.42647(14) 0.72646(10)
C5_8 C 0.69232(17) 0.38957(15) 0.74435(11)
H8_8 H 0.6903 0.3581 0.7348
C6_8 C 0.72013(17) 0.47365(15) 0.74136(10)
H9_8 H 0.7365 0.4988 0.7297
C7_8 C 0.7340(2) 0.41363(15) 0.69265(12)
C8_8 C 0.7583(2) 0.37093(16) 0.65075(12)
C9_8 C 0.81181(15) 0.29361(15) 0.57987(10)
C10_8 C 0.80659(14) 0.24641(14) 0.59344(9)
H10_8 H 0.8186 0.2191 0.5815
C11_8 C 0.78330(15) 0.23982(13) 0.62500(9)
C12_8 C 0.76675(17) 0.28122(14) 0.64286(10)
H11_8 H 0.7513 0.2769 0.6639
C13_8 C 0.77282(19) 0.32843(15) 0.63008(11)
C14_8 C 0.79476(18) 0.33487(16) 0.59807(11)
H12_8 H 0.7980 0.3665 0.5889
C15_8 C 0.64714(14) 0.35690(14) 0.79538(10)
C16_8 C 0.70709(15) 0.53169(13) 0.79096(10)
C17_8 C 0.84058(15) 0.30206(14) 0.54762(9)
C18_8 C 0.78031(14) 0.18961(13) 0.64096(10)
loop_
_geom_bond_atom_site_label_1
_geom_bond_atom_site_label_2
_geom_bond_site_symmetry_1
_geom_bond_site_symmetry_2
Cu1 O1 1_555 1_555
Cu2 O2 1_555 1_555
O1 C15 1_555 1_555
O2 C15 1_555 1_555
O5 C17 1_555 1_555
O6 C17 1_555 1_555
O7 C18 1_555 1_555
O8 C18 1_555 1_555
O9 Cu2 1_555 1_555
O10 Cu1 1_555 1_555
O13 Cu1 1_555 1_555
O14 Cu2 1_555 1_555
H1 O14 1_555 1_555
H2 O14 1_555 1_555
N1 H5 1_555 1_555
N2 N3 1_555 1_555
N3 C8 1_555 1_555
N4 H6 1_555 1_555
N5 C25 1_555 1_555
C1 C2 1_555 1_555
C2 H7 1_555 1_555
C3 C2 1_555 1_555
C4 C5 1_555 1_555
C5 C1 1_555 1_555
H8 C5 1_555 1_555
C6 C3 1_555 1_555
H9 C6 1_555 1_555
C7 N1 1_555 1_555
C8 N1 1_555 1_555
C9 C10 1_555 1_555
C10 H10 1_555 1_555
C11 C10 1_555 1_555
C12 C11 1_555 1_555
H11 C12 1_555 1_555
C13 C8 1_555 1_555
C14 C9 1_555 1_555
H12 C14 1_555 1_555
C15 C1 1_555 1_555
C17 C9 1_555 1_555
C18 C11 1_555 1_555
C19 C20 1_555 1_555
C20 H13 1_555 1_555
C24 C19 1_555 1_555
H15 C24 1_555 1_555
C25 N4 1_555 1_555
C26 O9 1_555 1_555
C28 O13 1_555 1_555
H16 C28 1_555 1_555
O19 C37 1_555 1_555
O20 C37 1_555 1_555
C32 C31 1_555 1_555
H18 C32 1_555 1_555
C37 C31 1_555 1_555
O21 C28 1_555 1_555
O24 Cu2 1_555 1_555
O25 Cu1 1_555 1_555
C53 O24 1_555 1_555
Cu10 O8 1_555 1_555
Cu14 O7 1_555 1_555
Cu15 O19 1_555 1_555
Cu16 O6 1_555 1_555
Cu18 O20 1_555 1_555
Cu19 O5 1_555 1_555
O38 Cu2 1_555 1_555
O40 Cu1 1_555 1_555
O10 C26 1_555 1_555
N2 C7 1_555 1_555
C4 C6 1_555 1_555
C4 C7 1_555 1_555
C12 C13 1_555 1_555
C13 C14 1_555 1_555
C19 C26 1_555 1_555
C23 C24 1_555 1_555
C23 C25 1_555 1_555
O21 Cu10 1_555 1_555
O25 C53 1_555 1_555
O3 C16 1_555 1_555
O4 C16 1_555 1_555
Cu8 O4 1_555 1_555
Cu12 O3 1_555 1_555
Cu3 O11 1_555 1_555
Cu4 O12 1_555 1_555
O11 C27 1_555 1_555
O12 C27 1_555 1_555
O15 Cu3 1_555 1_555
H3 O15 1_555 1_555
O16 Cu4 1_555 1_555
H4 O16 1_555 1_555
N4_2 H6_2 1_555 1_555
C22 C21 1_555 1_555
H14 C22 1_555 1_555
C27 C21 1_555 1_555
O17 C36 1_555 1_555
O18 C36 1_555 1_555
C29 C30 1_555 1_555
C30 H17 1_555 1_555
C34 C29 1_555 1_555
H19 C34 1_555 1_555
C35 N4_2 1_555 1_555
C36 C29 1_555 1_555
H20 O15 1_555 1_555
H21 O16 1_555 1_555
Cu5 O22 1_555 1_555
Cu6 O23 1_555 1_555
O22 C52 1_555 1_555
O23 C52 1_555 1_555
O26 C54 1_555 1_555
O27 C54 1_555 1_555
O28 C55 1_555 1_555
O29 C55 1_555 1_555
O30 Cu6 1_555 1_555
H22 O30 1_555 1_555
H23 O30 1_555 1_555
N7 H24 1_555 1_555
N8 N9 1_555 1_555
N9 C45 1_555 1_555
C38 C39 1_555 1_555
C39 H25 1_555 1_555
C40 C39 1_555 1_555
C41 C42 1_555 1_555
C42 C38 1_555 1_555
H26 C42 1_555 1_555
C43 C40 1_555 1_555
H27 C43 1_555 1_555
C44 N7 1_555 1_555
C45 N7 1_555 1_555
C46 C47 1_555 1_555
C47 H28 1_555 1_555
C48 C47 1_555 1_555
C49 C48 1_555 1_555
H29 C49 1_555 1_555
C50 C45 1_555 1_555
C51 C46 1_555 1_555
H30 C51 1_555 1_555
C52 C38 1_555 1_555
C54 C46 1_555 1_555
C55 C48 1_555 1_555
Cu7 O18 1_555 1_555
Cu9 O29 1_555 1_555
Cu11 O17 1_555 1_555
Cu13 O28 1_555 1_555
Cu17 O27 1_555 1_555
Cu20 O26 1_555 1_555
O31 Cu6 1_555 1_555
O32 Cu5 1_555 1_555
O33 Cu4 1_555 1_555
O34 Cu4 1_555 1_555
O35 Cu3 1_555 1_555
O36 Cu3 1_555 1_555
O37 Cu6 1_555 1_555
O39 Cu5 1_555 1_555
O41 Cu6 1_555 1_555
O42 Cu5 1_555 1_555
O43 Cu3 1_555 1_555
O44 Cu4 1_555 1_555
O45 Cu5 1_555 1_555
N6 C35 1_555 1_555
C33 C34 1_555 1_555
C33 C35 1_555 1_555
N8 C44 1_555 1_555
C41 C43 1_555 1_555
C41 C44 1_555 1_555
C49 C50 1_555 1_555
C50 C51 1_555 1_555
N4_3 H6_3 1_555 1_555
N5_2 C25_2 1_555 1_555
C19_2 C20_2 1_555 1_555
C20_2 H13_2 1_555 1_555
C24_2 C19_2 1_555 1_555
H15_2 C24_2 1_555 1_555
C25_2 N4_3 1_555 1_555
C26_2 O41 1_555 1_555
C28_2 O45 1_555 1_555
H16_2 C28_2 1_555 1_555
O19_2 C37_2 1_555 1_555
O20_2 C37_2 1_555 1_555
C32_2 C31_2 1_555 1_555
H18_2 C32_2 1_555 1_555
C37_2 C31_2 1_555 1_555
O21_2 C28_2 1_555 1_555
C53_2 O31 1_555 1_555
Cu15_2 O19_2 1_555 1_555
Cu18_2 O20_2 1_555 1_555
O42 C26_2 1_555 1_555
C19_2 C26_2 1_555 1_555
C23_2 C24_2 1_555 1_555
C23_2 C25_2 1_555 1_555
O21_2 Cu9 1_555 1_555
O32 C53_2 1_555 1_555
Cu3_2 O11_2 1_555 1_555
Cu4_2 O12_2 1_555 1_555
O11_2 C27_2 1_555 1_555
O12_2 C27_2 1_555 1_555
O15_2 Cu3_2 1_555 1_555
H3_2 O15_2 1_555 1_555
O16_2 Cu4_2 1_555 1_555
H4_2 O16_2 1_555 1_555
N4_4 H6_4 1_555 1_555
C22_2 C21_2 1_555 1_555
H14_2 C22_2 1_555 1_555
C27_2 C21_2 1_555 1_555
O17_2 C36_2 1_555 1_555
O18_2 C36_2 1_555 1_555
C29_2 C30_2 1_555 1_555
C30_2 H17_2 1_555 1_555
C34_2 C29_2 1_555 1_555
H19_2 C34_2 1_555 1_555
C35_2 N4_4 1_555 1_555
C36_2 C29_2 1_555 1_555
H20_2 O15_2 1_555 1_555
H21_2 O16_2 1_555 1_555
Cu7 O22_2 1_555 1_555
Cu11 O23_2 1_555 1_555
O22_2 C52_2 1_555 1_555
O23_2 C52_2 1_555 1_555
O26_2 C54_2 1_555 1_555
O27_2 C54_2 1_555 1_555
O28_2 C55_2 1_555 1_555
O29_2 C55_2 1_555 1_555
O30_2 Cu11 1_555 1_555
H22_2 O30_2 1_555 1_555
H23_2 O30_2 1_555 1_555
N7_2 H24_2 1_555 1_555
N8_2 N9_2 1_555 1_555
N9_2 C45_2 1_555 1_555
C38_2 C39_2 1_555 1_555
C39_2 H25_2 1_555 1_555
C40_2 C39_2 1_555 1_555
C41_2 C42_2 1_555 1_555
C42_2 C38_2 1_555 1_555
H26_2 C42_2 1_555 1_555
C43_2 C40_2 1_555 1_555
H27_2 C43_2 1_555 1_555
C44_2 N7_2 1_555 1_555
C45_2 N7_2 1_555 1_555
C46_2 C47_2 1_555 1_555
C47_2 H28_2 1_555 1_555
C48_2 C47_2 1_555 1_555
C49_2 C48_2 1_555 1_555
H29_2 C49_2 1_555 1_555
C50_2 C45_2 1_555 1_555
C51_2 C46_2 1_555 1_555
H30_2 C51_2 1_555 1_555
C52_2 C38_2 1_555 1_555
C54_2 C46_2 1_555 1_555
C55_2 C48_2 1_555 1_555
Cu8 O18_2 1_555 1_555
Cu9_2 O29_2 1_555 1_555
Cu12 O17_2 1_555 1_555
Cu13_2 O28_2 1_555 1_555
Cu17_3 O27_2 1_555 1_555
Cu20_3 O26_2 1_555 1_555
O31_2 Cu11 1_555 1_555
O32_2 Cu7 1_555 1_555
O33_2 Cu4_2 1_555 1_555
O34_2 Cu4_2 1_555 1_555
O35_2 Cu3_2 1_555 1_555
O36_2 Cu3_2 1_555 1_555
O37_2 Cu11 1_555 1_555
O39_2 Cu7 1_555 1_555
O43_2 Cu3_2 1_555 1_555
O44_2 Cu4_2 1_555 1_555
O45_2 Cu7 1_555 1_555
N6_2 C35_2 1_555 1_555
C33_2 C34_2 1_555 1_555
C33_2 C35_2 1_555 1_555
N8_2 C44_2 1_555 1_555
C41_2 C43_2 1_555 1_555
C41_2 C44_2 1_555 1_555
C49_2 C50_2 1_555 1_555
C50_2 C51_2 1_555 1_555
O15_3 Cu15 1_555 1_555
H3_3 O15_3 1_555 1_555
O16_3 Cu18 1_555 1_555
H4_3 O16_3 1_555 1_555
H20_3 O15_3 1_555 1_555
H21_3 O16_3 1_555 1_555
Cu8 O22_3 1_555 1_555
Cu12 O23_3 1_555 1_555
O22_3 C52_3 1_555 1_555
O23_3 C52_3 1_555 1_555
O26_3 C54_3 1_555 1_555
O27_3 C54_3 1_555 1_555
O28_3 C55_3 1_555 1_555
O29_3 C55_3 1_555 1_555
O30_3 Cu12 1_555 1_555
H22_3 O30_3 1_555 1_555
H23_3 O30_3 1_555 1_555
N7_3 H24_3 1_555 1_555
N8_3 N9_3 1_555 1_555
N9_3 C45_3 1_555 1_555
C38_3 C39_3 1_555 1_555
C39_3 H25_3 1_555 1_555
C40_3 C39_3 1_555 1_555
C41_3 C42_3 1_555 1_555
C42_3 C38_3 1_555 1_555
H26_3 C42_3 1_555 1_555
C43_3 C40_3 1_555 1_555
H27_3 C43_3 1_555 1_555
C44_3 N7_3 1_555 1_555
C45_3 N7_3 1_555 1_555
C46_3 C47_3 1_555 1_555
C47_3 H28_3 1_555 1_555
C48_3 C47_3 1_555 1_555
C49_3 C48_3 1_555 1_555
H29_3 C49_3 1_555 1_555
C50_3 C45_3 1_555 1_555
C51_3 C46_3 1_555 1_555
H30_3 C51_3 1_555 1_555
C52_3 C38_3 1_555 1_555
C54_3 C46_3 1_555 1_555
C55_3 C48_3 1_555 1_555
Cu9_3 O29_3 1_555 1_555
Cu13_3 O28_3 1_555 1_555
Cu17_5 O27_3 1_555 1_555
Cu20_5 O26_3 1_555 1_555
O33_3 Cu18 1_555 1_555
O34_3 Cu18 1_555 1_555
O35_3 Cu15 1_555 1_555
O36_3 Cu15 1_555 1_555
O37_3 Cu12 1_555 1_555
O39_3 Cu8 1_555 1_555
O43_3 Cu15 1_555 1_555
O44_3 Cu18 1_555 1_555
O45_3 Cu8 1_555 1_555
N8_3 C44_3 1_555 1_555
C41_3 C43_3 1_555 1_555
C41_3 C44_3 1_555 1_555
C49_3 C50_3 1_555 1_555
C50_3 C51_3 1_555 1_555
C28_3 O45_2 1_555 1_555
H16_3 C28_3 1_555 1_555
O21_3 C28_3 1_555 1_555
C53_3 O31_2 1_555 1_555
O21_3 Cu9_2 1_555 1_555
O32_2 C53_3 1_555 1_555
O15_4 Cu15_2 1_555 1_555
H3_4 O15_4 1_555 1_555
O16_4 Cu18_2 1_555 1_555
H4_4 O16_4 1_555 1_555
H20_4 O15_4 1_555 1_555
H21_4 O16_4 1_555 1_555
O33_4 Cu18_2 1_555 1_555
O34_4 Cu18_2 1_555 1_555
O35_4 Cu15_2 1_555 1_555
O36_4 Cu15_2 1_555 1_555
O43_4 Cu15_2 1_555 1_555
O44_4 Cu18_2 1_555 1_555
C28_4 O45_3 1_555 1_555
H16_4 C28_4 1_555 1_555
O21_4 C28_4 1_555 1_555
O21_4 Cu9_3 1_555 1_555
Cu9 O1_2 1_555 1_555
Cu13 O2_2 1_555 1_555
Cu16 O11_3 1_555 1_555
Cu19 O12_3 1_555 1_555
O1_2 C15_2 1_555 1_555
O2_2 C15_2 1_555 1_555
O3_2 C16_2 1_555 1_555
O4_2 C16_2 1_555 1_555
O33 C17_2 1_555 1_555
O35 C17_2 1_555 1_555
O37 C18_2 1_555 1_555
O39 C18_2 1_555 1_555
O9_2 Cu13 1_555 1_555
O10_2 Cu9 1_555 1_555
O11_3 C27_3 1_555 1_555
O12_3 C27_3 1_555 1_555
O14_2 Cu13 1_555 1_555
H1_2 O14_2 1_555 1_555
H2_2 O14_2 1_555 1_555
O15_5 Cu16 1_555 1_555
O16_5 Cu19 1_555 1_555
N1_2 H5_2 1_555 1_555
N2_2 N3_2 1_555 1_555
N3_2 C8_2 1_555 1_555
N4_5 H6_5 1_555 1_555
N5_3 C25_3 1_555 1_555
C1_2 C2_2 1_555 1_555
C2_2 H7_2 1_555 1_555
C3_2 C2_2 1_555 1_555
C4_2 C5_2 1_555 1_555
C5_2 C1_2 1_555 1_555
H8_2 C5_2 1_555 1_555
C6_2 C3_2 1_555 1_555
H9_2 C6_2 1_555 1_555
C7_2 N1_2 1_555 1_555
C8_2 N1_2 1_555 1_555
C9_2 C10_2 1_555 1_555
C10_2 H10_2 1_555 1_555
C11_2 C10_2 1_555 1_555
C12_2 C11_2 1_555 1_555
H11_2 C12_2 1_555 1_555
C13_2 C8_2 1_555 1_555
C14_2 C9_2 1_555 1_555
H12_2 C14_2 1_555 1_555
C15_2 C1_2 1_555 1_555
C16_2 C3_2 1_555 1_555
C17_2 C9_2 1_555 1_555
C18_2 C11_2 1_555 1_555
C19_3 C20_3 1_555 1_555
C20_3 H13_3 1_555 1_555
C21_3 C20_3 1_555 1_555
C22_3 C21_3 1_555 1_555
H14_3 C22_3 1_555 1_555
C23_3 C22_3 1_555 1_555
C24_3 C19_3 1_555 1_555
H15_3 C24_3 1_555 1_555
C25_3 N4_5 1_555 1_555
C26_3 O9_2 1_555 1_555
C27_3 C21_3 1_555 1_555
H20_5 O15_5 1_555 1_555
H21_5 O16_5 1_555 1_555
Cu10 O22_4 1_555 1_555
Cu14 O23_4 1_555 1_555
O22_4 C52_4 1_555 1_555
O23_4 C52_4 1_555 1_555
O24_2 Cu13 1_555 1_555
O25_2 Cu9 1_555 1_555
O33_4 C54_4 1_555 1_555
O35_4 C54_4 1_555 1_555
O38 C55_4 1_555 1_555
O40 C55_4 1_555 1_555
O30_4 Cu14 1_555 1_555
H22_4 O30_4 1_555 1_555
H23_4 O30_4 1_555 1_555
N7_4 H24_4 1_555 1_555
N8_4 N9_4 1_555 1_555
N9_4 C45_4 1_555 1_555
C38_4 C39_4 1_555 1_555
C39_4 H25_4 1_555 1_555
C40_4 C39_4 1_555 1_555
C41_4 C42_4 1_555 1_555
C42_4 C38_4 1_555 1_555
H26_4 C42_4 1_555 1_555
C43_4 C40_4 1_555 1_555
H27_4 C43_4 1_555 1_555
C44_4 N7_4 1_555 1_555
C45_4 N7_4 1_555 1_555
C46_4 C47_4 1_555 1_555
C47_4 H28_4 1_555 1_555
C48_4 C47_4 1_555 1_555
C49_4 C48_4 1_555 1_555
H29_4 C49_4 1_555 1_555
C50_4 C45_4 1_555 1_555
C51_4 C46_4 1_555 1_555
H30_4 C51_4 1_555 1_555
C52_4 C38_4 1_555 1_555
C53_4 O24_2 1_555 1_555
C54_4 C46_4 1_555 1_555
C55_4 C48_4 1_555 1_555
Cu9_2 O4_2 1_555 1_555
Cu13_2 O3_2 1_555 1_555
O31_3 Cu14 1_555 1_555
O32_3 Cu10 1_555 1_555
O41_2 Cu14 1_555 1_555
O42_2 Cu10 1_555 1_555
O10_2 C26_3 1_555 1_555
N2_2 C7_2 1_555 1_555
C4_2 C6_2 1_555 1_555
C4_2 C7_2 1_555 1_555
C12_2 C13_2 1_555 1_555
C13_2 C14_2 1_555 1_555
C19_3 C26_3 1_555 1_555
C23_3 C24_3 1_555 1_555
C23_3 C25_3 1_555 1_555
O25_2 C53_4 1_555 1_555
N8_4 C44_4 1_555 1_555
C40_4 C53_4 1_555 1_555
C41_4 C43_4 1_555 1_555
C41_4 C44_4 1_555 1_555
C49_4 C50_4 1_555 1_555
C50_4 C51_4 1_555 1_555
O15_6 Cu16_2 1_555 1_555
H3_5 O15_6 1_555 1_555
O16_6 Cu19_2 1_555 1_555
H4_5 O16_6 1_555 1_555
O34_5 Cu19_2 1_555 1_555
O36_5 Cu16_2 1_555 1_555
O43_5 Cu16_2 1_555 1_555
O44_5 Cu19_2 1_555 1_555
N4_6 H6_6 1_555 1_555
O17_3 C36_3 1_555 1_555
O18_3 C36_3 1_555 1_555
O19_3 C37_3 1_555 1_555
O20_3 C37_3 1_555 1_555
C29_3 C30_3 1_555 1_555
C30_3 H17_3 1_555 1_555
C31_3 C30_3 1_555 1_555
C32_3 C31_3 1_555 1_555
H18_3 C32_3 1_555 1_555
C33_3 C32_3 1_555 1_555
C34_3 C29_3 1_555 1_555
H19_3 C34_3 1_555 1_555
C35_3 N4_6 1_555 1_555
C36_3 C29_3 1_555 1_555
C37_3 C31_3 1_555 1_555
Cu9_3 O18_3 1_555 1_555
Cu13_3 O17_3 1_555 1_555
Cu17_3 O19_3 1_555 1_555
Cu20_3 O20_3 1_555 1_555
N6_3 C35_3 1_555 1_555
C33_3 C34_3 1_555 1_555
C33_3 C35_3 1_555 1_555
N4_7 H6_7 1_555 1_555
O41_2 C36_4 1_555 1_555
O42_2 C36_4 1_555 1_555
O19_4 C37_4 1_555 1_555
O20_4 C37_4 1_555 1_555
C29_4 C30_4 1_555 1_555
C30_4 H17_4 1_555 1_555
C31_4 C30_4 1_555 1_555
C32_4 C31_4 1_555 1_555
H18_4 C32_4 1_555 1_555
C33_4 C32_4 1_555 1_555
C34_4 C29_4 1_555 1_555
H19_4 C34_4 1_555 1_555
C35_4 N4_7 1_555 1_555
C36_4 C29_4 1_555 1_555
C37_4 C31_4 1_555 1_555
Cu17_5 O19_4 1_555 1_555
Cu20_5 O20_4 1_555 1_555
N6_4 C35_4 1_555 1_555
C33_4 C34_4 1_555 1_555
C33_4 C35_4 1_555 1_555
Cu9_2 O1_3 1_555 1_555
Cu13_2 O2_3 1_555 1_555
Cu17 O11_4 1_555 1_555
Cu20 O12_4 1_555 1_555
O1_3 C15_3 1_555 1_555
O2_3 C15_3 1_555 1_555
O3_3 C16_3 1_555 1_555
O4_3 C16_3 1_555 1_555
O33_2 C17_3 1_555 1_555
O35_2 C17_3 1_555 1_555
O37_2 C18_3 1_555 1_555
O39_2 C18_3 1_555 1_555
O9_3 Cu13_2 1_555 1_555
O10_3 Cu9_2 1_555 1_555
O11_4 C27_4 1_555 1_555
O12_4 C27_4 1_555 1_555
O14_3 Cu13_2 1_555 1_555
H1_3 O14_3 1_555 1_555
H2_3 O14_3 1_555 1_555
O15_7 Cu17 1_555 1_555
O16_7 Cu20 1_555 1_555
N1_3 H5_3 1_555 1_555
N2_3 N3_3 1_555 1_555
N3_3 C8_3 1_555 1_555
N4_8 H6_8 1_555 1_555
N5_4 C25_4 1_555 1_555
C1_3 C2_3 1_555 1_555
C2_3 H7_3 1_555 1_555
C3_3 C2_3 1_555 1_555
C4_3 C5_3 1_555 1_555
C5_3 C1_3 1_555 1_555
H8_3 C5_3 1_555 1_555
C6_3 C3_3 1_555 1_555
H9_3 C6_3 1_555 1_555
C7_3 N1_3 1_555 1_555
C8_3 N1_3 1_555 1_555
C9_3 C10_3 1_555 1_555
C10_3 H10_3 1_555 1_555
C11_3 C10_3 1_555 1_555
C12_3 C11_3 1_555 1_555
H11_3 C12_3 1_555 1_555
C13_3 C8_3 1_555 1_555
C14_3 C9_3 1_555 1_555
H12_3 C14_3 1_555 1_555
C15_3 C1_3 1_555 1_555
C16_3 C3_3 1_555 1_555
C17_3 C9_3 1_555 1_555
C18_3 C11_3 1_555 1_555
C19_4 C20_4 1_555 1_555
C20_4 H13_4 1_555 1_555
C21_4 C20_4 1_555 1_555
C22_4 C21_4 1_555 1_555
H14_4 C22_4 1_555 1_555
C23_4 C22_4 1_555 1_555
C24_4 C19_4 1_555 1_555
H15_4 C24_4 1_555 1_555
C25_4 N4_8 1_555 1_555
C26_4 O9_3 1_555 1_555
C27_4 C21_4 1_555 1_555
H20_6 O15_7 1_555 1_555
H21_6 O16_7 1_555 1_555
Cu9_3 O4_3 1_555 1_555
Cu13_3 O3_3 1_555 1_555
O10_3 C26_4 1_555 1_555
N2_3 C7_3 1_555 1_555
C4_3 C6_3 1_555 1_555
C4_3 C7_3 1_555 1_555
C12_3 C13_3 1_555 1_555
C13_3 C14_3 1_555 1_555
C19_4 C26_4 1_555 1_555
C23_4 C24_4 1_555 1_555
C23_4 C25_4 1_555 1_555
O15_8 Cu17_2 1_555 1_555
H3_6 O15_8 1_555 1_555
O16_8 Cu20_2 1_555 1_555
H4_6 O16_8 1_555 1_555
O34_6 Cu20_2 1_555 1_555
O36_6 Cu17_2 1_555 1_555
O43_6 Cu17_2 1_555 1_555
O44_6 Cu20_2 1_555 1_555
Cu9_3 O1_4 1_555 1_555
Cu13_3 O2_4 1_555 1_555
O1_4 C15_4 1_555 1_555
O2_4 C15_4 1_555 1_555
O31_3 C16_4 1_555 1_555
O32_3 C16_4 1_555 1_555
O33_3 C17_4 1_555 1_555
O35_3 C17_4 1_555 1_555
O37_3 C18_4 1_555 1_555
O39_3 C18_4 1_555 1_555
O14_4 Cu13_3 1_555 1_555
H1_4 O14_4 1_555 1_555
H2_4 O14_4 1_555 1_555
O15_9 Cu17_3 1_555 1_555
O16_9 Cu20_3 1_555 1_555
N1_4 H5_4 1_555 1_555
N2_4 N3_4 1_555 1_555
N3_4 C8_4 1_555 1_555
C1_4 C2_4 1_555 1_555
C2_4 H7_4 1_555 1_555
C3_4 C2_4 1_555 1_555
C4_4 C5_4 1_555 1_555
C5_4 C1_4 1_555 1_555
H8_4 C5_4 1_555 1_555
C6_4 C3_4 1_555 1_555
H9_4 C6_4 1_555 1_555
C7_4 N1_4 1_555 1_555
C8_4 N1_4 1_555 1_555
C9_4 C10_4 1_555 1_555
C10_4 H10_4 1_555 1_555
C11_4 C10_4 1_555 1_555
C12_4 C11_4 1_555 1_555
H11_4 C12_4 1_555 1_555
C13_4 C8_4 1_555 1_555
C14_4 C9_4 1_555 1_555
H12_4 C14_4 1_555 1_555
C15_4 C1_4 1_555 1_555
C16_4 C3_4 1_555 1_555
C17_4 C9_4 1_555 1_555
C18_4 C11_4 1_555 1_555
H20_7 O15_9 1_555 1_555
H21_7 O16_9 1_555 1_555
N2_4 C7_4 1_555 1_555
C4_4 C6_4 1_555 1_555
C4_4 C7_4 1_555 1_555
C12_4 C13_4 1_555 1_555
C13_4 C14_4 1_555 1_555
O15_10 Cu17_4 1_555 1_555
H3_7 O15_10 1_555 1_555
O16_10 Cu20_4 1_555 1_555
H4_7 O16_10 1_555 1_555
O34_7 Cu20_4 1_555 1_555
O36_7 Cu17_4 1_555 1_555
O43_7 Cu17_4 1_555 1_555
O44_7 Cu20_4 1_555 1_555
O15_11 Cu17_5 1_555 1_555
O16_11 Cu20_5 1_555 1_555
H20_8 O15_11 1_555 1_555
H21_8 O16_11 1_555 1_555
O15_12 Cu17_6 1_555 1_555
H3_8 O15_12 1_555 1_555
O16_12 Cu20_6 1_555 1_555
H4_8 O16_12 1_555 1_555
O34_8 Cu20_6 1_555 1_555
O36_8 Cu17_6 1_555 1_555
O43_8 Cu17_6 1_555 1_555
O44_8 Cu20_6 1_555 1_555
O43_3 C27_5 1_555 1_555
O44_3 C27_5 1_555 1_555
N4_9 H6_9 1_555 1_555
C22_5 C21_5 1_555 1_555
H14_5 C22_5 1_555 1_555
C27_5 C21_5 1_555 1_555
O17_4 C36_5 1_555 1_555
O18_4 C36_5 1_555 1_555
C29_5 C30_5 1_555 1_555
C30_5 H17_5 1_555 1_555
C34_5 C29_5 1_555 1_555
H19_5 C34_5 1_555 1_555
C35_5 N4_9 1_555 1_555
C36_5 C29_5 1_555 1_555
Cu5_2 O22_5 1_555 1_555
Cu6_2 O23_5 1_555 1_555
O22_5 C52_5 1_555 1_555
O23_5 C52_5 1_555 1_555
O34_8 C54_5 1_555 1_555
O36_8 C54_5 1_555 1_555
O28_4 C55_5 1_555 1_555
O29_4 C55_5 1_555 1_555
O30_5 Cu6_2 1_555 1_555
H22_5 O30_5 1_555 1_555
H23_5 O30_5 1_555 1_555
N7_5 H24_5 1_555 1_555
N8_5 N9_5 1_555 1_555
N9_5 C45_5 1_555 1_555
C38_5 C39_5 1_555 1_555
C39_5 H25_5 1_555 1_555
C40_5 C39_5 1_555 1_555
C41_5 C42_5 1_555 1_555
C42_5 C38_5 1_555 1_555
H26_5 C42_5 1_555 1_555
C43_5 C40_5 1_555 1_555
H27_5 C43_5 1_555 1_555
C44_5 N7_5 1_555 1_555
C45_5 N7_5 1_555 1_555
C46_5 C47_5 1_555 1_555
C47_5 H28_5 1_555 1_555
C48_5 C47_5 1_555 1_555
C49_5 C48_5 1_555 1_555
H29_5 C49_5 1_555 1_555
C50_5 C45_5 1_555 1_555
C51_5 C46_5 1_555 1_555
H30_5 C51_5 1_555 1_555
C52_5 C38_5 1_555 1_555
C54_5 C46_5 1_555 1_555
C55_5 C48_5 1_555 1_555
Cu7_2 O18_4 1_555 1_555
Cu9_4 O29_4 1_555 1_555
Cu11_2 O17_4 1_555 1_555
Cu13_4 O28_4 1_555 1_555
O31_4 Cu6_2 1_555 1_555
O32_4 Cu5_2 1_555 1_555
O37_4 Cu6_2 1_555 1_555
O39_4 Cu5_2 1_555 1_555
O41_3 Cu6_2 1_555 1_555
O42_3 Cu5_2 1_555 1_555
O45_4 Cu5_2 1_555 1_555
N6_5 C35_5 1_555 1_555
C33_5 C34_5 1_555 1_555
C33_5 C35_5 1_555 1_555
N8_5 C44_5 1_555 1_555
C41_5 C43_5 1_555 1_555
C41_5 C44_5 1_555 1_555
C49_5 C50_5 1_555 1_555
C50_5 C51_5 1_555 1_555
O3_4 C16_5 1_555 1_555
O4_4 C16_5 1_555 1_555
Cu8_2 O4_4 1_555 1_555
Cu12_2 O3_4 1_555 1_555
Cu1_2 O1_5 1_555 1_555
Cu2_2 O2_5 1_555 1_555
O1_5 C15_5 1_555 1_555
O2_5 C15_5 1_555 1_555
O34_7 C17_5 1_555 1_555
O36_7 C17_5 1_555 1_555
O7_2 C18_5 1_555 1_555
O8_2 C18_5 1_555 1_555
O9_4 Cu2_2 1_555 1_555
O10_4 Cu1_2 1_555 1_555
O13_2 Cu1_2 1_555 1_555
O14_5 Cu2_2 1_555 1_555
H1_5 O14_5 1_555 1_555
H2_5 O14_5 1_555 1_555
N1_5 H5_5 1_555 1_555
N2_5 N3_5 1_555 1_555
N3_5 C8_5 1_555 1_555
N4_10 H6_10 1_555 1_555
N5_5 C25_5 1_555 1_555
C1_5 C2_5 1_555 1_555
C2_5 H7_5 1_555 1_555
C3_5 C2_5 1_555 1_555
C4_5 C5_5 1_555 1_555
C5_5 C1_5 1_555 1_555
H8_5 C5_5 1_555 1_555
C6_5 C3_5 1_555 1_555
H9_5 C6_5 1_555 1_555
C7_5 N1_5 1_555 1_555
C8_5 N1_5 1_555 1_555
C9_5 C10_5 1_555 1_555
C10_5 H10_5 1_555 1_555
C11_5 C10_5 1_555 1_555
C12_5 C11_5 1_555 1_555
H11_5 C12_5 1_555 1_555
C13_5 C8_5 1_555 1_555
C14_5 C9_5 1_555 1_555
H12_5 C14_5 1_555 1_555
C15_5 C1_5 1_555 1_555
C17_5 C9_5 1_555 1_555
C18_5 C11_5 1_555 1_555
C19_5 C20_5 1_555 1_555
C20_5 H13_5 1_555 1_555
C24_5 C19_5 1_555 1_555
H15_5 C24_5 1_555 1_555
C25_5 N4_10 1_555 1_555
C26_5 O9_4 1_555 1_555
C28_5 O13_2 1_555 1_555
H16_5 C28_5 1_555 1_555
O43 C37_5 1_555 1_555
O44 C37_5 1_555 1_555
C32_5 C31_5 1_555 1_555
H18_5 C32_5 1_555 1_555
C37_5 C31_5 1_555 1_555
O21_5 C28_5 1_555 1_555
O24_3 Cu2_2 1_555 1_555
O25_3 Cu1_2 1_555 1_555
C53_5 O24_3 1_555 1_555
Cu10_2 O8_2 1_555 1_555
Cu14_2 O7_2 1_555 1_555
O38_2 Cu2_2 1_555 1_555
O40_2 Cu1_2 1_555 1_555
O10_4 C26_5 1_555 1_555
N2_5 C7_5 1_555 1_555
C4_5 C6_5 1_555 1_555
C4_5 C7_5 1_555 1_555
C12_5 C13_5 1_555 1_555
C13_5 C14_5 1_555 1_555
C19_5 C26_5 1_555 1_555
C23_5 C24_5 1_555 1_555
C23_5 C25_5 1_555 1_555
O21_5 Cu10_2 1_555 1_555
O25_3 C53_5 1_555 1_555
O43_4 C27_6 1_555 1_555
O44_4 C27_6 1_555 1_555
N4_11 H6_11 1_555 1_555
C22_6 C21_6 1_555 1_555
H14_6 C22_6 1_555 1_555
C27_6 C21_6 1_555 1_555
O17_5 C36_6 1_555 1_555
O18_5 C36_6 1_555 1_555
C29_6 C30_6 1_555 1_555
C30_6 H17_6 1_555 1_555
C34_6 C29_6 1_555 1_555
H19_6 C34_6 1_555 1_555
C35_6 N4_11 1_555 1_555
C36_6 C29_6 1_555 1_555
Cu7_2 O22_6 1_555 1_555
Cu11_2 O23_6 1_555 1_555
O22_6 C52_6 1_555 1_555
O23_6 C52_6 1_555 1_555
O34_5 C54_6 1_555 1_555
O36_5 C54_6 1_555 1_555
O28_5 C55_6 1_555 1_555
O29_5 C55_6 1_555 1_555
O30_6 Cu11_2 1_555 1_555
H22_6 O30_6 1_555 1_555
H23_6 O30_6 1_555 1_555
N7_6 H24_6 1_555 1_555
N8_6 N9_6 1_555 1_555
N9_6 C45_6 1_555 1_555
C38_6 C39_6 1_555 1_555
C39_6 H25_6 1_555 1_555
C40_6 C39_6 1_555 1_555
C41_6 C42_6 1_555 1_555
C42_6 C38_6 1_555 1_555
H26_6 C42_6 1_555 1_555
C43_6 C40_6 1_555 1_555
H27_6 C43_6 1_555 1_555
C44_6 N7_6 1_555 1_555
C45_6 N7_6 1_555 1_555
C46_6 C47_6 1_555 1_555
C47_6 H28_6 1_555 1_555
C48_6 C47_6 1_555 1_555
C49_6 C48_6 1_555 1_555
H29_6 C49_6 1_555 1_555
C50_6 C45_6 1_555 1_555
C51_6 C46_6 1_555 1_555
H30_6 C51_6 1_555 1_555
C52_6 C38_6 1_555 1_555
C54_6 C46_6 1_555 1_555
C55_6 C48_6 1_555 1_555
Cu8_2 O18_5 1_555 1_555
Cu9_5 O29_5 1_555 1_555
Cu12_2 O17_5 1_555 1_555
Cu13_5 O28_5 1_555 1_555
O31_5 Cu11_2 1_555 1_555
O32_5 Cu7_2 1_555 1_555
O37_5 Cu11_2 1_555 1_555
O39_5 Cu7_2 1_555 1_555
O45_5 Cu7_2 1_555 1_555
N6_6 C35_6 1_555 1_555
C33_6 C34_6 1_555 1_555
C33_6 C35_6 1_555 1_555
N8_6 C44_6 1_555 1_555
C41_6 C43_6 1_555 1_555
C41_6 C44_6 1_555 1_555
C49_6 C50_6 1_555 1_555
C50_6 C51_6 1_555 1_555
N4_12 H6_12 1_555 1_555
N5_6 C25_6 1_555 1_555
C19_6 C20_6 1_555 1_555
C20_6 H13_6 1_555 1_555
C24_6 C19_6 1_555 1_555
H15_6 C24_6 1_555 1_555
C25_6 N4_12 1_555 1_555
C26_6 O41_3 1_555 1_555
C28_6 O45_4 1_555 1_555
H16_6 C28_6 1_555 1_555
O43_2 C37_6 1_555 1_555
O44_2 C37_6 1_555 1_555
C32_6 C31_6 1_555 1_555
H18_6 C32_6 1_555 1_555
C37_6 C31_6 1_555 1_555
O21_6 C28_6 1_555 1_555
C53_6 O31_4 1_555 1_555
O42_3 C26_6 1_555 1_555
C19_6 C26_6 1_555 1_555
C23_6 C24_6 1_555 1_555
C23_6 C25_6 1_555 1_555
O21_6 Cu9_4 1_555 1_555
O32_4 C53_6 1_555 1_555
C28_7 O45_5 1_555 1_555
H16_7 C28_7 1_555 1_555
O21_7 C28_7 1_555 1_555
C53_7 O31_5 1_555 1_555
O21_7 Cu9_5 1_555 1_555
O32_5 C53_7 1_555 1_555
Cu8_2 O22_7 1_555 1_555
Cu12_2 O23_7 1_555 1_555
O22_7 C52_7 1_555 1_555
O23_7 C52_7 1_555 1_555
O34_6 C54_7 1_555 1_555
O36_6 C54_7 1_555 1_555
O28_6 C55_7 1_555 1_555
O29_6 C55_7 1_555 1_555
O30_7 Cu12_2 1_555 1_555
H22_7 O30_7 1_555 1_555
H23_7 O30_7 1_555 1_555
N7_7 H24_7 1_555 1_555
N8_7 N9_7 1_555 1_555
N9_7 C45_7 1_555 1_555
C38_7 C39_7 1_555 1_555
C39_7 H25_7 1_555 1_555
C40_7 C39_7 1_555 1_555
C41_7 C42_7 1_555 1_555
C42_7 C38_7 1_555 1_555
H26_7 C42_7 1_555 1_555
C43_7 C40_7 1_555 1_555
H27_7 C43_7 1_555 1_555
C44_7 N7_7 1_555 1_555
C45_7 N7_7 1_555 1_555
C46_7 C47_7 1_555 1_555
C47_7 H28_7 1_555 1_555
C48_7 C47_7 1_555 1_555
C49_7 C48_7 1_555 1_555
H29_7 C49_7 1_555 1_555
C50_7 C45_7 1_555 1_555
C51_7 C46_7 1_555 1_555
H30_7 C51_7 1_555 1_555
C52_7 C38_7 1_555 1_555
C54_7 C46_7 1_555 1_555
C55_7 C48_7 1_555 1_555
Cu9_6 O29_6 1_555 1_555
Cu13_6 O28_6 1_555 1_555
O37_6 Cu12_2 1_555 1_555
O39_6 Cu8_2 1_555 1_555
O45_6 Cu8_2 1_555 1_555
N8_7 C44_7 1_555 1_555
C41_7 C43_7 1_555 1_555
C41_7 C44_7 1_555 1_555
C49_7 C50_7 1_555 1_555
C50_7 C51_7 1_555 1_555
C28_8 O45_6 1_555 1_555
H16_8 C28_8 1_555 1_555
O21_8 C28_8 1_555 1_555
O21_8 Cu9_6 1_555 1_555
N4_13 H6_13 1_555 1_555
O17_6 C36_7 1_555 1_555
O18_6 C36_7 1_555 1_555
O43_5 C37_7 1_555 1_555
O44_5 C37_7 1_555 1_555
C29_7 C30_7 1_555 1_555
C30_7 H17_7 1_555 1_555
C31_7 C30_7 1_555 1_555
C32_7 C31_7 1_555 1_555
H18_7 C32_7 1_555 1_555
C33_7 C32_7 1_555 1_555
C34_7 C29_7 1_555 1_555
H19_7 C34_7 1_555 1_555
C35_7 N4_13 1_555 1_555
C36_7 C29_7 1_555 1_555
C37_7 C31_7 1_555 1_555
Cu9_6 O18_6 1_555 1_555
Cu13_6 O17_6 1_555 1_555
N6_7 C35_7 1_555 1_555
C33_7 C34_7 1_555 1_555
C33_7 C35_7 1_555 1_555
Cu9_4 O1_6 1_555 1_555
Cu13_4 O2_6 1_555 1_555
O1_6 C15_6 1_555 1_555
O2_6 C15_6 1_555 1_555
O3_5 C16_6 1_555 1_555
O4_5 C16_6 1_555 1_555
O34_3 C17_6 1_555 1_555
O36_3 C17_6 1_555 1_555
O37_4 C18_6 1_555 1_555
O39_4 C18_6 1_555 1_555
O9_5 Cu13_4 1_555 1_555
O10_5 Cu9_4 1_555 1_555
O43_7 C27_7 1_555 1_555
O44_7 C27_7 1_555 1_555
O14_6 Cu13_4 1_555 1_555
H1_6 O14_6 1_555 1_555
H2_6 O14_6 1_555 1_555
N1_6 H5_6 1_555 1_555
N2_6 N3_6 1_555 1_555
N3_6 C8_6 1_555 1_555
N4_14 H6_14 1_555 1_555
N5_7 C25_7 1_555 1_555
C1_6 C2_6 1_555 1_555
C2_6 H7_6 1_555 1_555
C3_6 C2_6 1_555 1_555
C4_6 C5_6 1_555 1_555
C5_6 C1_6 1_555 1_555
H8_6 C5_6 1_555 1_555
C6_6 C3_6 1_555 1_555
H9_6 C6_6 1_555 1_555
C7_6 N1_6 1_555 1_555
C8_6 N1_6 1_555 1_555
C9_6 C10_6 1_555 1_555
C10_6 H10_6 1_555 1_555
C11_6 C10_6 1_555 1_555
C12_6 C11_6 1_555 1_555
H11_6 C12_6 1_555 1_555
C13_6 C8_6 1_555 1_555
C14_6 C9_6 1_555 1_555
H12_6 C14_6 1_555 1_555
C15_6 C1_6 1_555 1_555
C16_6 C3_6 1_555 1_555
C17_6 C9_6 1_555 1_555
C18_6 C11_6 1_555 1_555
C19_7 C20_7 1_555 1_555
C20_7 H13_7 1_555 1_555
C21_7 C20_7 1_555 1_555
C22_7 C21_7 1_555 1_555
H14_7 C22_7 1_555 1_555
C23_7 C22_7 1_555 1_555
C24_7 C19_7 1_555 1_555
H15_7 C24_7 1_555 1_555
C25_7 N4_14 1_555 1_555
C26_7 O9_5 1_555 1_555
C27_7 C21_7 1_555 1_555
Cu10_2 O22_8 1_555 1_555
Cu14_2 O23_8 1_555 1_555
O22_8 C52_8 1_555 1_555
O23_8 C52_8 1_555 1_555
O24_4 Cu13_4 1_555 1_555
O25_4 Cu9_4 1_555 1_555
O34_2 C54_8 1_555 1_555
O36_2 C54_8 1_555 1_555
O38_2 C55_8 1_555 1_555
O40_2 C55_8 1_555 1_555
O30_8 Cu14_2 1_555 1_555
H22_8 O30_8 1_555 1_555
H23_8 O30_8 1_555 1_555
N7_8 H24_8 1_555 1_555
N8_8 N9_8 1_555 1_555
N9_8 C45_8 1_555 1_555
C38_8 C39_8 1_555 1_555
C39_8 H25_8 1_555 1_555
C40_8 C39_8 1_555 1_555
C41_8 C42_8 1_555 1_555
C42_8 C38_8 1_555 1_555
H26_8 C42_8 1_555 1_555
C43_8 C40_8 1_555 1_555
H27_8 C43_8 1_555 1_555
C44_8 N7_8 1_555 1_555
C45_8 N7_8 1_555 1_555
C46_8 C47_8 1_555 1_555
C47_8 H28_8 1_555 1_555
C48_8 C47_8 1_555 1_555
C49_8 C48_8 1_555 1_555
H29_8 C49_8 1_555 1_555
C50_8 C45_8 1_555 1_555
C51_8 C46_8 1_555 1_555
H30_8 C51_8 1_555 1_555
C52_8 C38_8 1_555 1_555
C53_8 O24_4 1_555 1_555
C54_8 C46_8 1_555 1_555
C55_8 C48_8 1_555 1_555
Cu9_5 O4_5 1_555 1_555
Cu13_5 O3_5 1_555 1_555
O31_6 Cu14_2 1_555 1_555
O32_6 Cu10_2 1_555 1_555
O41_4 Cu14_2 1_555 1_555
O42_4 Cu10_2 1_555 1_555
O10_5 C26_7 1_555 1_555
N2_6 C7_6 1_555 1_555
C4_6 C6_6 1_555 1_555
C4_6 C7_6 1_555 1_555
C12_6 C13_6 1_555 1_555
C13_6 C14_6 1_555 1_555
C19_7 C26_7 1_555 1_555
C23_7 C24_7 1_555 1_555
C23_7 C25_7 1_555 1_555
O25_4 C53_8 1_555 1_555
N8_8 C44_8 1_555 1_555
C40_8 C53_8 1_555 1_555
C41_8 C43_8 1_555 1_555
C41_8 C44_8 1_555 1_555
C49_8 C50_8 1_555 1_555
C50_8 C51_8 1_555 1_555
Cu9_5 O1_7 1_555 1_555
Cu13_5 O2_7 1_555 1_555
O1_7 C15_7 1_555 1_555
O2_7 C15_7 1_555 1_555
O3_6 C16_7 1_555 1_555
O4_6 C16_7 1_555 1_555
O34_4 C17_7 1_555 1_555
O36_4 C17_7 1_555 1_555
O37_5 C18_7 1_555 1_555
O39_5 C18_7 1_555 1_555
O9_6 Cu13_5 1_555 1_555
O10_6 Cu9_5 1_555 1_555
O43_8 C27_8 1_555 1_555
O44_8 C27_8 1_555 1_555
O14_7 Cu13_5 1_555 1_555
H1_7 O14_7 1_555 1_555
H2_7 O14_7 1_555 1_555
N1_7 H5_7 1_555 1_555
N2_7 N3_7 1_555 1_555
N3_7 C8_7 1_555 1_555
N4_15 H6_15 1_555 1_555
N5_8 C25_8 1_555 1_555
C1_7 C2_7 1_555 1_555
C2_7 H7_7 1_555 1_555
C3_7 C2_7 1_555 1_555
C4_7 C5_7 1_555 1_555
C5_7 C1_7 1_555 1_555
H8_7 C5_7 1_555 1_555
C6_7 C3_7 1_555 1_555
H9_7 C6_7 1_555 1_555
C7_7 N1_7 1_555 1_555
C8_7 N1_7 1_555 1_555
C9_7 C10_7 1_555 1_555
C10_7 H10_7 1_555 1_555
C11_7 C10_7 1_555 1_555
C12_7 C11_7 1_555 1_555
H11_7 C12_7 1_555 1_555
C13_7 C8_7 1_555 1_555
C14_7 C9_7 1_555 1_555
H12_7 C14_7 1_555 1_555
C15_7 C1_7 1_555 1_555
C16_7 C3_7 1_555 1_555
C17_7 C9_7 1_555 1_555
C18_7 C11_7 1_555 1_555
C19_8 C20_8 1_555 1_555
C20_8 H13_8 1_555 1_555
C21_8 C20_8 1_555 1_555
C22_8 C21_8 1_555 1_555
H14_8 C22_8 1_555 1_555
C23_8 C22_8 1_555 1_555
C24_8 C19_8 1_555 1_555
H15_8 C24_8 1_555 1_555
C25_8 N4_15 1_555 1_555
C26_8 O9_6 1_555 1_555
C27_8 C21_8 1_555 1_555
Cu9_6 O4_6 1_555 1_555
Cu13_6 O3_6 1_555 1_555
O10_6 C26_8 1_555 1_555
N2_7 C7_7 1_555 1_555
C4_7 C6_7 1_555 1_555
C4_7 C7_7 1_555 1_555
C12_7 C13_7 1_555 1_555
C13_7 C14_7 1_555 1_555
C19_8 C26_8 1_555 1_555
C23_8 C24_8 1_555 1_555
C23_8 C25_8 1_555 1_555
N4_16 H6_16 1_555 1_555
O41_4 C36_8 1_555 1_555
O42_4 C36_8 1_555 1_555
O43_6 C37_8 1_555 1_555
O44_6 C37_8 1_555 1_555
C29_8 C30_8 1_555 1_555
C30_8 H17_8 1_555 1_555
C31_8 C30_8 1_555 1_555
C32_8 C31_8 1_555 1_555
H18_8 C32_8 1_555 1_555
C33_8 C32_8 1_555 1_555
C34_8 C29_8 1_555 1_555
H19_8 C34_8 1_555 1_555
C35_8 N4_16 1_555 1_555
C36_8 C29_8 1_555 1_555
C37_8 C31_8 1_555 1_555
N6_8 C35_8 1_555 1_555
C33_8 C34_8 1_555 1_555
C33_8 C35_8 1_555 1_555
Cu9_6 O1_8 1_555 1_555
Cu13_6 O2_8 1_555 1_555
O1_8 C15_8 1_555 1_555
O2_8 C15_8 1_555 1_555
O31_6 C16_8 1_555 1_555
O32_6 C16_8 1_555 1_555
O34 C17_8 1_555 1_555
O36 C17_8 1_555 1_555
O37_6 C18_8 1_555 1_555
O39_6 C18_8 1_555 1_555
O14_8 Cu13_6 1_555 1_555
H1_8 O14_8 1_555 1_555
H2_8 O14_8 1_555 1_555
N1_8 H5_8 1_555 1_555
N2_8 N3_8 1_555 1_555
N3_8 C8_8 1_555 1_555
C1_8 C2_8 1_555 1_555
C2_8 H7_8 1_555 1_555
C3_8 C2_8 1_555 1_555
C4_8 C5_8 1_555 1_555
C5_8 C1_8 1_555 1_555
H8_8 C5_8 1_555 1_555
C6_8 C3_8 1_555 1_555
H9_8 C6_8 1_555 1_555
C7_8 N1_8 1_555 1_555
C8_8 N1_8 1_555 1_555
C9_8 C10_8 1_555 1_555
C10_8 H10_8 1_555 1_555
C11_8 C10_8 1_555 1_555
C12_8 C11_8 1_555 1_555
H11_8 C12_8 1_555 1_555
C13_8 C8_8 1_555 1_555
C14_8 C9_8 1_555 1_555
H12_8 C14_8 1_555 1_555
C15_8 C1_8 1_555 1_555
C16_8 C3_8 1_555 1_555
C17_8 C9_8 1_555 1_555
C18_8 C11_8 1_555 1_555
N2_8 C7_8 1_555 1_555
C4_8 C6_8 1_555 1_555
C4_8 C7_8 1_555 1_555
C12_8 C13_8 1_555 1_555
C13_8 C14_8 1_555 1_555

#END
