
###############################################################################
#
# This file contains modified crystal structure data generated from the
# MOF subset of the Cambridge Structural Database (CSD) v543 
# hosted by the Cambridge Crystallographic Data Centre (CCDC).
#
# This work is licensed under the Creative Commons
# Attribution-NonCommercial-ShareAlike 4.0 International License.
# To view a copy of this license, visit
# http://creativecommons.org/licenses/by-nc-sa/4.0/
# or send a letter to
# Creative Commons, PO Box 1866, Mountain View, CA 94042, USA.
#
# CIF created using the CSD Python API on 29 September 2022
# The structure has been converted into the P1 space group
# The structure has a 3D framework
# The original CSD entry YAVZUT is in the rhombohedral crystal system
# The original CSD entry YAVZUT is in a Sohncke space group
# The framework has been calculated to contain at least 10.0% void space
# The void calculation uses a probe of radius 1.32A, grid spacing 0.4
# H atom positions have been added when not included in the experimental data
#
###############################################################################

data_YAVZUT
_chemical_formula_moiety         '(C270 H270 O108 Zn15)n'
_symmetry_cell_setting           triclinic
_symmetry_space_group_name_H-M   'P 1'
_symmetry_Int_Tables_number      1
_space_group_name_Hall           'P 1'
loop_
_symmetry_equiv_pos_site_id
_symmetry_equiv_pos_as_xyz
1 x,y,z
_cell_length_a                   18.9586(7)
_cell_length_b                   18.9586(7)
_cell_length_c                   38.0589(13)
_cell_angle_alpha                90
_cell_angle_beta                 90
_cell_angle_gamma                120
_cell_volume                     11846.8
loop_
_atom_site_label
_atom_site_type_symbol
_atom_site_fract_x
_atom_site_fract_y
_atom_site_fract_z
O4 O 0.2991(5) 0.0740(8) 0.0083(2)
C19 C 0.2596(8) 0.0606(7) 0.1352(3)
H15 H 0.3106 0.0706 0.1473
C20 C 0.2679(8) 0.1279(8) 0.1097(4)
H16 H 0.2969 0.1825 0.1207
H17 H 0.2960 0.1283 0.0877
C21 C 0.1797(8) 0.1001(9) 0.1035(4)
H18 H 0.1694 0.0982 0.0782
H19 H 0.1660 0.1383 0.1147
H20 H 0.1460 0.0457 0.1136
C22 C 0.1831(8) 0.0278(8) 0.1581(4)
H22 H 0.1667 0.0691 0.1600
H23 H 0.1948 0.0148 0.1815
Zn7 Zn 0.52475(8) 0.05001(6) 0.26793(2)
C8 C 0.2406(10) 0.0261(14) 0.9935(4)
O3 O 0.2261(5) 0.0346(8) 0.9620(2)
Zn3 Zn 0.38354(6) 0.19160(10) 0.99994(2)
Zn6 Zn 0.28332(6) 0.14140(10) 0.93460(2)
C2 C 0.0527(4) 0.8220(4) 0.01146(19)
C4 C 0.1784(5) 0.9503(4) 0.0112(2)
C5 C 0.1945(4) 0.9357(5) 0.04524(19)
H2 H 0.2429 0.9746 0.0568
C6 C 0.1397(4) 0.8643(5) 0.06240(16)
C7 C 0.0688(4) 0.8074(4) 0.0455(2)
H3 H 0.0313 0.7586 0.0572
C9 C 0.1643(6) 0.8430(5) 0.0987(2)
C10 C 0.1871(5) 0.9025(4) 0.1244(2)
C11 C 0.1978(5) 0.8856(4) 0.1589(2)
H4 H 0.2134 0.9262 0.1765
C12 C 0.1857(6) 0.8091(5) 0.1677(2)
C13 C 0.1629(6) 0.7496(4) 0.1420(2)
C14 C 0.1522(6) 0.7665(4) 0.1075(2)
H5 H 0.1367 0.7258 0.0899
O5 O 0.1627(6) 0.6819(5) 0.1518(3)
C15 C 0.1365(8) 0.6160(5) 0.1730(3)
H6 H 0.1114 0.6153 0.1962
C16 C 0.0911(8) 0.5355(6) 0.1472(3)
H7 H 0.1115 0.4973 0.1515
H8 H 0.0313 0.5064 0.1504
C17 C 0.1161(9) 0.5751(9) 0.1094(3)
H9 H 0.0931 0.6107 0.1055
H10 H 0.0950 0.5320 0.0916
H11 H 0.1756 0.6071 0.1077
C18 C 0.2193(8) 0.6144(9) 0.1721(4)
H12 H 0.2462 0.6352 0.1494
H13 H 0.2079 0.5584 0.1752
H14 H 0.2550 0.6487 0.1910
O6 O 0.2192(6) 0.9860(5) 0.1110(3)
H21 H 0.1390 0.9785 0.1473
C23 C 0.0977(6) 0.6384(11) 0.2756(4)
O7 O 0.0339(6) 0.5912(9) 0.2551(3)
O8 O 0.1177(5) 0.6291(8) 0.3065(2)
O9 O 0.3695(6) 0.8866(6) 0.3052(3)
O10 O 0.4084(5) 0.9662(4) 0.25736(19)
C24 C 0.3564(12) 0.9011(12) 0.2722(4)
C25 C 0.1982(6) 0.8037(5) 0.20638(18)
C26 C 0.2694(6) 0.8594(5) 0.2234(2)
H24 H 0.3094 0.9061 0.2112
C27 C 0.2821(4) 0.8468(5) 0.2582(2)
C28 C 0.2236(5) 0.7784(5) 0.27608(16)
H25 H 0.2322 0.7698 0.2999
C29 C 0.1524(4) 0.7227(4) 0.2590(2)
C30 C 0.1397(5) 0.7353(5) 0.2242(2)
H26 H 0.0910 0.6972 0.2125
Zn4 Zn 0.47473(8) 0.94979(6) 0.33327(2)
Zn5 Zn 0.05021(6) 0.52493(10) 0.33327(2)
O2 O 0.9252(5) 0.7026(7) 0.0101(3)
O12 O 0.7793(7) 0.5655(6) 0.0473(2)
Zn8 Zn 0.94999(6) 0.47473(10) 0.26793(2)
O14 O 0.7749(9) 0.7009(5) 0.0083(2)
H27 H 0.785867 0.606939 0.0649482
H28 H 0.721884 0.520331 0.0472493
Zn1 Zn 0.80806(8) 0.61646(6) 0.99994(2)
Zn2 Zn 0.85808(8) 0.71668(6) 0.93460(2)
O1 O 0.9621(5) 0.7786(4) 0.9620(2)
C1 C 0.9719(6) 0.7628(5) 0.9912(3)
O11 O 0.8879(7) 0.7818(7) 0.8917(3)
O13 O 0.8085(9) 0.7739(5) 0.9620(2)
O15 O 0.8906(11) 0.6328(6) 0.9218(3)
O16 O 0.8447(9) 0.5490(5) 0.9732(2)
O17 O 0.7028(6) 0.5533(6) 0.9719(3)
O18 O 0.7417(5) 0.6329(4) 0.92403(19)
H29 H 0.935445 0.782052 0.88062
H30 H 0.841196 0.757986 0.875125
O2_2 O 0.2974(7) 0.2226(9) 0.0101(3)
C2_2 C 0.1780(4) 0.2307(6) 0.01146(19)
C4_2 C 0.0497(4) 0.2281(6) 0.0112(2)
C5_2 C 0.0643(5) 0.2588(6) 0.04524(19)
H2_2 H 0.0254 0.2683 0.0568
C6_2 C 0.1357(5) 0.2754(6) 0.06240(16)
C7_2 C 0.1926(4) 0.2614(6) 0.0455(2)
H3_2 H 0.2414 0.2727 0.0572
C9_2 C 0.1570(5) 0.3213(8) 0.0987(2)
C10_2 C 0.0975(4) 0.2846(6) 0.1244(2)
C11_2 C 0.1144(4) 0.3122(6) 0.1589(2)
H4_2 H 0.0738 0.2872 0.1765
C12_2 C 0.1909(5) 0.3766(8) 0.1677(2)
C13_2 C 0.2504(4) 0.4133(7) 0.1420(2)
C14_2 C 0.2335(4) 0.3857(7) 0.1075(2)
H5_2 H 0.2742 0.4109 0.0899
O5_2 O 0.3181(5) 0.4808(8) 0.1518(3)
C15_2 C 0.3840(5) 0.5205(9) 0.1730(3)
H6_2 H 0.3847 0.4961 0.1962
C16_2 C 0.4645(6) 0.5556(10) 0.1472(3)
H7_2 H 0.5027 0.6142 0.1515
H8_2 H 0.4936 0.5249 0.1504
C17_2 C 0.4249(9) 0.5410(13) 0.1094(3)
H9_2 H 0.3893 0.4824 0.1055
H10_2 H 0.4680 0.5630 0.0916
H11_2 H 0.3929 0.5685 0.1077
C18_2 C 0.3856(9) 0.6049(12) 0.1721(4)
H12_2 H 0.3648 0.6110 0.1494
H13_2 H 0.4416 0.6495 0.1752
H14_2 H 0.3513 0.6063 0.1910
O6_2 O 0.0140(5) 0.2332(8) 0.1110(3)
H21_2 H 0.0215 0.1605 0.1473
C23_2 C 0.3616(11) 0.4593(13) 0.2756(4)
O7_2 O 0.4088(9) 0.4427(11) 0.2551(3)
O8_2 O 0.3709(8) 0.4886(9) 0.3065(2)
O9_2 O 0.1134(6) 0.4829(8) 0.3052(3)
O10_2 O 0.0338(4) 0.4422(6) 0.25736(19)
C24_2 C 0.0989(12) 0.4553(17) 0.2722(4)
C25_2 C 0.1963(5) 0.3945(8) 0.20638(18)
C26_2 C 0.1406(5) 0.4100(8) 0.2234(2)
H24_2 H 0.0939 0.4033 0.2112
C27_2 C 0.1532(5) 0.4353(6) 0.2582(2)
C28_2 C 0.2216(5) 0.4452(7) 0.27608(16)
H25_2 H 0.2302 0.4624 0.2999
C29_2 C 0.2773(4) 0.4297(6) 0.2590(2)
C30_2 C 0.2647(5) 0.4044(7) 0.2242(2)
H26_2 H 0.3028 0.3938 0.2125
O12_2 O 0.4345(6) 0.2138(9) 0.0473(2)
Zn5_2 Zn 0.47507(10) 0.52527(12) 0.33327(2)
Zn8_2 Zn 0.52527(10) 0.47525(12) 0.26793(2)
H27_2 H 0.393061 0.178928 0.0649482
H28_2 H 0.479669 0.201553 0.0472493
O1_2 O 0.2214(4) 0.1835(6) 0.9620(2)
C1_2 C 0.2372(5) 0.2091(8) 0.9912(3)
C3 C 0.1066(5) 0.2141(7) 0.99431(17)
H1 H 0.0966 0.1931 0.9710
O11_2 O 0.2182(7) 0.1061(10) 0.8917(3)
O15_2 O 0.3672(6) 0.2579(13) 0.9218(3)
O16_2 O 0.4510(5) 0.2958(10) 0.9732(2)
O17_2 O 0.4467(6) 0.1496(8) 0.9719(3)
O18_2 O 0.3671(4) 0.1089(6) 0.92403(19)
H29_2 H 0.217948 0.153393 0.88062
H30_2 H 0.242014 0.0832095 0.875125
O4_2 O 0.9260(8) 0.2251(9) 0.0083(2)
C19_2 C 0.9394(7) 0.1990(11) 0.1352(3)
H15_2 H 0.9294 0.2400 0.1473
C20_2 C 0.8721(8) 0.1400(11) 0.1097(4)
H16_2 H 0.8175 0.1144 0.1207
H17_2 H 0.8717 0.1677 0.0877
C21_2 C 0.8999(9) 0.0796(12) 0.1035(4)
H18_2 H 0.9018 0.0712 0.0782
H19_2 H 0.8617 0.0277 0.1147
H20_2 H 0.9543 0.1003 0.1136
C22_2 C 0.9722(8) 0.1553(11) 0.1581(4)
H22_2 H 0.9309 0.0976 0.1600
H23_2 H 0.9852 0.1800 0.1815
C8_2 C 0.9739(14) 0.2145(17) 0.9935(4)
O3_2 O 0.9654(8) 0.1915(9) 0.9620(2)
Zn3_2 Zn 0.80840(10) 0.19194(12) 0.99994(2)
Zn6_2 Zn 0.85860(10) 0.14192(12) 0.93460(2)
O2_3 O 0.7774(9) 0.0748(5) 0.0101(3)
O12_3 O 0.7862(9) 0.2207(7) 0.0473(2)
H27_3 H 0.821072 0.214133 0.0649482
H28_3 H 0.798447 0.278116 0.0472493
O1_3 O 0.8165(6) 0.0379(5) 0.9620(2)
C1_3 C 0.7909(8) 0.0281(6) 0.9912(3)
O11_3 O 0.8939(10) 0.1121(7) 0.8917(3)
O15_3 O 0.7421(13) 0.1094(11) 0.9218(3)
O16_3 O 0.7042(10) 0.1553(9) 0.9732(2)
O17_3 O 0.8504(8) 0.2972(6) 0.9719(3)
O18_3 O 0.8911(6) 0.2583(5) 0.92403(19)
H29_3 H 0.846607 0.0645545 0.88062
H30_3 H 0.916791 0.158804 0.875125
C2_3 C 0.7693(6) 0.9473(4) 0.01146(19)
C4_3 C 0.7719(6) 0.8216(5) 0.0112(2)
C5_3 C 0.7412(6) 0.8055(4) 0.04524(19)
H2_3 H 0.7317 0.7571 0.0568
C6_3 C 0.7246(6) 0.8603(4) 0.06240(16)
C7_3 C 0.7386(6) 0.9312(4) 0.0455(2)
H3_3 H 0.7273 0.9687 0.0572
C9_3 C 0.6787(8) 0.8357(6) 0.0987(2)
C10_3 C 0.7154(6) 0.8129(5) 0.1244(2)
C11_3 C 0.6878(6) 0.8022(5) 0.1589(2)
H4_3 H 0.7128 0.7866 0.1765
C12_3 C 0.6234(8) 0.8143(6) 0.1677(2)
C13_3 C 0.5867(7) 0.8371(6) 0.1420(2)
C14_3 C 0.6143(7) 0.8478(6) 0.1075(2)
H5_3 H 0.5891 0.8633 0.0899
O5_3 O 0.5192(8) 0.8373(6) 0.1518(3)
C15_3 C 0.4795(9) 0.8635(8) 0.1730(3)
H6_3 H 0.5039 0.8886 0.1962
C16_3 C 0.4444(10) 0.9089(8) 0.1472(3)
H7_3 H 0.3858 0.8885 0.1515
H8_3 H 0.4751 0.9687 0.1504
C17_3 C 0.4590(13) 0.8839(9) 0.1094(3)
H9_3 H 0.5176 0.9069 0.1055
H10_3 H 0.4370 0.9050 0.0916
H11_3 H 0.4315 0.8244 0.1077
C18_3 C 0.3951(12) 0.7807(8) 0.1721(4)
H12_3 H 0.3890 0.7538 0.1494
H13_3 H 0.3505 0.7921 0.1752
H14_3 H 0.3937 0.7450 0.1910
O6_3 O 0.7668(8) 0.7808(6) 0.1110(3)
C19_3 C 0.8010(11) 0.7404(8) 0.1352(3)
H15_3 H 0.7600 0.6894 0.1473
C20_3 C 0.8600(11) 0.7321(8) 0.1097(4)
H16_3 H 0.8856 0.7031 0.1207
H17_3 H 0.8323 0.7040 0.0877
C21_3 C 0.9204(12) 0.8203(8) 0.1035(4)
H18_3 H 0.9288 0.8306 0.0782
H19_3 H 0.9723 0.8340 0.1147
H20_3 H 0.8997 0.8540 0.1136
C22_3 C 0.8447(11) 0.8169(8) 0.1581(4)
H21_3 H 0.8395 0.8610 0.1473
H22_3 H 0.9024 0.8333 0.1600
H23_3 H 0.8200 0.8052 0.1815
C23_3 C 0.5407(13) 0.9023(6) 0.2756(4)
O7_3 O 0.5573(11) 0.9661(6) 0.2551(3)
O8_3 O 0.5114(9) 0.8823(5) 0.3065(2)
O9_3 O 0.5171(8) 0.6305(6) 0.3052(3)
O10_3 O 0.5578(6) 0.5916(5) 0.25736(19)
C24_3 C 0.5447(17) 0.6436(12) 0.2722(4)
C25_3 C 0.6055(8) 0.8018(6) 0.20638(18)
C26_3 C 0.5900(8) 0.7306(6) 0.2234(2)
H24_3 H 0.5967 0.6906 0.2112
C27_3 C 0.5647(6) 0.7179(4) 0.2582(2)
C28_3 C 0.5548(7) 0.7764(5) 0.27608(16)
H25_3 H 0.5376 0.7678 0.2999
C29_3 C 0.5703(6) 0.8476(4) 0.2590(2)
C30_3 C 0.5956(7) 0.8603(5) 0.2242(2)
H26_3 H 0.6062 0.9090 0.2125
C3_2 C 0.7859(7) 0.8925(5) 0.99431(17)
H1_2 H 0.8069 0.9035 0.9710
C8_3 C 0.7855(17) 0.7594(10) 0.9935(4)
O9_4 O 0.0362(6) 0.2199(6) 0.6385(3)
O10_4 O 0.0751(5) 0.2995(4) 0.59069(19)
C24_4 C 0.0231(12) 0.2344(12) 0.6055(4)
Zn4_2 Zn 0.14139(8) 0.28313(6) 0.66661(2)
Zn7_2 Zn 0.19141(8) 0.38335(6) 0.60127(2)
O1_4 O 0.6288(5) 0.1119(4) 0.2953(2)
O2_4 O 0.5919(5) 0.0359(7) 0.3434(3)
C1_4 C 0.6386(6) 0.0961(5) 0.3245(3)
C2_4 C 0.7194(4) 0.1553(4) 0.34479(19)
C3_3 C 0.7742(5) 0.2267(5) 0.32764(17)
H1_3 H 0.7632 0.2367 0.3043
C4_4 C 0.8451(5) 0.2836(4) 0.3445(2)
C5_4 C 0.8612(4) 0.2690(5) 0.37857(19)
H2_4 H 0.9096 0.3079 0.3901
C6_4 C 0.8064(4) 0.1976(5) 0.39573(16)
C7_4 C 0.7355(4) 0.1407(4) 0.3788(2)
H3_4 H 0.6980 0.0919 0.3905
C8_4 C 0.9073(10) 0.3594(14) 0.3268(4)
O3_3 O 0.8928(5) 0.3679(8) 0.2953(2)
O4_3 O 0.9658(5) 0.4073(8) 0.3416(2)
C9_4 C 0.8310(6) 0.1763(5) 0.4320(2)
C10_4 C 0.8538(5) 0.2358(4) 0.4577(2)
C11_4 C 0.8645(5) 0.2189(4) 0.4922(2)
H4_4 H 0.8801 0.2595 0.5098
C12_4 C 0.8524(6) 0.1424(5) 0.5010(2)
C13_4 C 0.8296(6) 0.0829(4) 0.4753(2)
C14_4 C 0.8189(6) 0.0998(4) 0.4408(2)
H5_4 H 0.8034 0.0591 0.4232
O5_4 O 0.8294(6) 0.0152(5) 0.4851(3)
O6_4 O 0.8859(6) 0.3193(5) 0.4443(3)
C19_4 C 0.9263(8) 0.3939(7) 0.4685(3)
H15_4 H 0.9773 0.4039 0.4806
C20_4 C 0.9346(8) 0.4612(8) 0.4430(4)
H16_4 H 0.9636 0.5158 0.4540
H17_4 H 0.9627 0.4616 0.4210
C21_4 C 0.8464(8) 0.4334(9) 0.4368(4)
H18_4 H 0.8361 0.4315 0.4115
H19_4 H 0.8327 0.4716 0.4480
H20_4 H 0.8127 0.3790 0.4469
C22_4 C 0.8498(8) 0.3611(8) 0.4914(4)
H21_4 H 0.8057 0.3118 0.4806
H22_4 H 0.8334 0.4024 0.4933
H23_4 H 0.8615 0.3481 0.5148
C25_4 C 0.8649(6) 0.1370(5) 0.53971(18)
C26_4 C 0.9361(6) 0.1927(5) 0.5567(2)
H24_4 H 0.9761 0.2394 0.5445
C27_4 C 0.9488(4) 0.1801(5) 0.5915(2)
C28_4 C 0.8903(5) 0.1117(5) 0.60941(16)
H25_4 H 0.8989 0.1031 0.6332
C29_4 C 0.8191(4) 0.0560(4) 0.5923(2)
C30_4 C 0.8064(5) 0.0686(5) 0.5575(2)
H26_4 H 0.7577 0.0305 0.5458
O11_4 O 0.5546(7) 0.1151(7) 0.2250(3)
O13_2 O 0.4752(9) 0.1072(5) 0.2953(2)
O14_2 O 0.4416(9) 0.0342(5) 0.3416(2)
H29_4 H 0.602112 0.115385 0.213953
H30_4 H 0.507862 0.0913197 0.208458
C15_4 C 0.8032(8) 0.9493(5) 0.5063(3)
H6_4 H 0.7781 0.9486 0.5295
C16_4 C 0.7578(8) 0.8688(6) 0.4805(3)
H7_4 H 0.7782 0.8306 0.4848
H8_4 H 0.6980 0.8397 0.4837
C17_4 C 0.7828(9) 0.9084(9) 0.4427(3)
H9_4 H 0.7598 0.9440 0.4388
H10_4 H 0.7617 0.8653 0.4249
H11_4 H 0.8423 0.9404 0.4410
C18_4 C 0.8860(8) 0.9477(9) 0.5054(4)
H12_4 H 0.9129 0.9685 0.4827
H13_4 H 0.8746 0.8917 0.5085
H14_4 H 0.9217 0.9820 0.5243
C23_4 C 0.7644(6) 0.9717(11) 0.6089(4)
O7_4 O 0.7006(6) 0.9245(9) 0.5884(3)
O8_4 O 0.7844(5) 0.9624(8) 0.6398(2)
O12_4 O 0.4460(7) 0.8988(6) 0.3806(2)
Zn5_3 Zn 0.71687(6) 0.85827(10) 0.66661(2)
Zn8_3 Zn 0.61665(6) 0.80807(10) 0.60127(2)
H27_4 H 0.452534 0.940273 0.398282
H28_4 H 0.388551 0.853665 0.380583
C15_5 C 0.0507(5) 0.8538(9) 0.5063(3)
H6_5 H 0.0514 0.8294 0.5295
C16_5 C 0.1312(6) 0.8889(10) 0.4805(3)
H7_5 H 0.1694 0.9475 0.4848
H8_5 H 0.1603 0.8582 0.4837
C17_5 C 0.0916(9) 0.8743(13) 0.4427(3)
H9_5 H 0.0560 0.8157 0.4388
H10_5 H 0.1347 0.8963 0.4249
H11_5 H 0.0596 0.9018 0.4410
C18_5 C 0.0523(9) 0.9382(12) 0.5054(4)
H12_5 H 0.0315 0.9443 0.4827
H13_5 H 0.1083 0.9828 0.5085
H14_5 H 0.0180 0.9396 0.5243
C23_5 C 0.0283(11) 0.7926(13) 0.6089(4)
O7_5 O 0.0755(9) 0.7760(11) 0.5884(3)
O8_5 O 0.0376(8) 0.8219(9) 0.6398(2)
O12_5 O 0.1012(6) 0.5471(9) 0.3806(2)
Zn5_4 Zn 0.14173(10) 0.85861(12) 0.66661(2)
Zn8_4 Zn 0.19193(10) 0.80859(12) 0.60127(2)
H27_5 H 0.0597273 0.512261 0.398282
H28_5 H 0.146335 0.534886 0.380583
O1_5 O 0.8881(4) 0.5168(6) 0.2953(2)
O2_5 O 0.9641(7) 0.5559(9) 0.3434(3)
C1_5 C 0.9039(5) 0.5424(8) 0.3245(3)
C2_5 C 0.8447(4) 0.5640(6) 0.34479(19)
C3_4 C 0.7733(5) 0.5474(7) 0.32764(17)
H1_4 H 0.7633 0.5264 0.3043
C4_5 C 0.7164(4) 0.5614(6) 0.3445(2)
C5_5 C 0.7310(5) 0.5921(6) 0.37857(19)
H2_5 H 0.6921 0.6016 0.3901
C6_5 C 0.8024(5) 0.6087(6) 0.39573(16)
C7_5 C 0.8593(4) 0.5947(6) 0.3788(2)
H3_5 H 0.9081 0.6060 0.3905
C8_5 C 0.6406(14) 0.5478(17) 0.3268(4)
O3_4 O 0.6321(8) 0.5248(9) 0.2953(2)
O4_4 O 0.5927(8) 0.5584(9) 0.3416(2)
C9_5 C 0.8237(5) 0.6546(8) 0.4320(2)
C10_5 C 0.7642(4) 0.6179(6) 0.4577(2)
C11_5 C 0.7811(4) 0.6455(6) 0.4922(2)
H4_5 H 0.7405 0.6205 0.5098
C12_5 C 0.8576(5) 0.7099(8) 0.5010(2)
C13_5 C 0.9171(4) 0.7466(7) 0.4753(2)
C14_5 C 0.9002(4) 0.7190(7) 0.4408(2)
H5_5 H 0.9409 0.7442 0.4232
O5_5 O 0.9848(5) 0.8141(8) 0.4851(3)
O6_5 O 0.6807(5) 0.5665(8) 0.4443(3)
C19_5 C 0.6061(7) 0.5323(11) 0.4685(3)
H15_5 H 0.5961 0.5733 0.4806
C20_5 C 0.5388(8) 0.4733(11) 0.4430(4)
H16_5 H 0.4842 0.4477 0.4540
H17_5 H 0.5384 0.5010 0.4210
C21_5 C 0.5666(9) 0.4129(12) 0.4368(4)
H18_5 H 0.5685 0.4045 0.4115
H19_5 H 0.5284 0.3610 0.4480
H20_5 H 0.6210 0.4336 0.4469
C22_5 C 0.6389(8) 0.4886(11) 0.4914(4)
H21_5 H 0.6882 0.4938 0.4806
H22_5 H 0.5976 0.4309 0.4933
H23_5 H 0.6519 0.5133 0.5148
O9_5 O 0.7801(6) 0.8162(8) 0.6385(3)
O10_5 O 0.7005(4) 0.7755(6) 0.59069(19)
C24_5 C 0.7656(12) 0.7886(17) 0.6055(4)
C25_5 C 0.8630(5) 0.7278(8) 0.53971(18)
C26_5 C 0.8073(5) 0.7433(8) 0.5567(2)
H24_5 H 0.7606 0.7366 0.5445
C27_5 C 0.8199(5) 0.7686(6) 0.5915(2)
C28_5 C 0.8883(5) 0.7785(7) 0.60941(16)
H25_5 H 0.8969 0.7957 0.6332
C29_5 C 0.9440(4) 0.7630(6) 0.5923(2)
C30_5 C 0.9314(5) 0.7377(7) 0.5575(2)
H26_5 H 0.9695 0.7271 0.5458
O11_5 O 0.8849(7) 0.4394(10) 0.2250(3)
H29_5 H 0.884615 0.486727 0.213953
H30_5 H 0.90868 0.416543 0.208458
O1_6 O 0.4832(6) 0.3712(5) 0.2953(2)
O2_6 O 0.4441(9) 0.4081(5) 0.3434(3)
C1_6 C 0.4576(8) 0.3614(6) 0.3245(3)
C2_6 C 0.4360(6) 0.2806(4) 0.34479(19)
C3_5 C 0.4526(7) 0.2258(5) 0.32764(17)
H1_5 H 0.4736 0.2368 0.3043
C4_6 C 0.4386(6) 0.1549(5) 0.3445(2)
C5_6 C 0.4079(6) 0.1388(4) 0.37857(19)
H2_6 H 0.3984 0.0904 0.3901
C6_6 C 0.3913(6) 0.1936(4) 0.39573(16)
C7_6 C 0.4053(6) 0.2645(4) 0.3788(2)
H3_6 H 0.3940 0.3020 0.3905
C8_6 C 0.4522(17) 0.0927(10) 0.3268(4)
C9_6 C 0.3454(8) 0.1690(6) 0.4320(2)
C10_6 C 0.3821(6) 0.1462(5) 0.4577(2)
C11_6 C 0.3545(6) 0.1355(5) 0.4922(2)
H4_6 H 0.3795 0.1199 0.5098
C12_6 C 0.2901(8) 0.1476(6) 0.5010(2)
C13_6 C 0.2534(7) 0.1704(6) 0.4753(2)
C14_6 C 0.2810(7) 0.1811(6) 0.4408(2)
H5_6 H 0.2558 0.1966 0.4232
O5_6 O 0.1859(8) 0.1706(6) 0.4851(3)
C15_6 C 0.1462(9) 0.1968(8) 0.5063(3)
H6_6 H 0.1706 0.2219 0.5295
C16_6 C 0.1111(10) 0.2422(8) 0.4805(3)
H7_6 H 0.0525 0.2218 0.4848
H8_6 H 0.1418 0.3020 0.4837
C17_6 C 0.1257(13) 0.2172(9) 0.4427(3)
H9_6 H 0.1843 0.2402 0.4388
H10_6 H 0.1037 0.2383 0.4249
H11_6 H 0.0982 0.1577 0.4410
C18_6 C 0.0618(12) 0.1140(8) 0.5054(4)
H12_6 H 0.0557 0.0871 0.4827
H13_6 H 0.0172 0.1254 0.5085
H14_6 H 0.0604 0.0783 0.5243
O6_6 O 0.4335(8) 0.1141(6) 0.4443(3)
C19_6 C 0.4677(11) 0.0737(8) 0.4685(3)
H15_6 H 0.4267 0.0227 0.4806
C20_6 C 0.5267(11) 0.0654(8) 0.4430(4)
H16_6 H 0.5523 0.0364 0.4540
H17_6 H 0.4990 0.0373 0.4210
C21_6 C 0.5871(12) 0.1536(8) 0.4368(4)
H18_6 H 0.5955 0.1639 0.4115
H19_6 H 0.6390 0.1673 0.4480
H20_6 H 0.5664 0.1873 0.4469
C22_6 C 0.5114(11) 0.1502(8) 0.4914(4)
H21_6 H 0.5062 0.1943 0.4806
H22_6 H 0.5691 0.1666 0.4933
H23_6 H 0.4867 0.1385 0.5148
C23_6 C 0.2074(13) 0.2356(6) 0.6089(4)
O7_6 O 0.2240(11) 0.2994(6) 0.5884(3)
O8_6 O 0.1781(9) 0.2156(5) 0.6398(2)
C25_6 C 0.2722(8) 0.1351(6) 0.53971(18)
C26_6 C 0.2567(8) 0.0639(6) 0.5567(2)
H24_6 H 0.2634 0.0239 0.5445
C27_6 C 0.2314(6) 0.0512(4) 0.5915(2)
C28_6 C 0.2215(7) 0.1097(5) 0.60941(16)
H25_6 H 0.2043 0.1011 0.6332
C29_6 C 0.2370(6) 0.1809(4) 0.5923(2)
C30_6 C 0.2623(7) 0.1936(5) 0.5575(2)
H26_6 H 0.2729 0.2423 0.5458
O11_6 O 0.5606(10) 0.4454(7) 0.2250(3)
O12_6 O 0.4529(9) 0.5540(7) 0.3806(2)
H27_6 H 0.487739 0.547466 0.398282
H28_6 H 0.465114 0.611449 0.380583
H29_6 H 0.513273 0.397888 0.213953
H30_6 H 0.583457 0.492138 0.208458
O9_6 O 0.1838(8) 0.9638(6) 0.6385(3)
O10_6 O 0.2245(6) 0.9249(5) 0.59069(19)
C24_6 C 0.2114(17) 0.9769(12) 0.6055(4)
O1_7 O 0.2954(5) 0.4453(4) 0.6287(2)
O2_7 O 0.2585(5) 0.3693(7) 0.6768(3)
C1_7 C 0.3052(6) 0.4295(5) 0.6579(3)
C2_7 C 0.3860(4) 0.4887(4) 0.67813(19)
C3_6 C 0.4408(5) 0.5601(5) 0.66098(17)
H1_6 H 0.4298 0.5701 0.6377
C4_7 C 0.5117(5) 0.6170(4) 0.6779(2)
C5_7 C 0.5278(4) 0.6024(5) 0.71191(19)
H2_7 H 0.5762 0.6413 0.7235
C6_7 C 0.4730(4) 0.5310(5) 0.72907(16)
C7_7 C 0.4021(4) 0.4741(4) 0.7122(2)
H3_7 H 0.3646 0.4253 0.7239
C8_7 C 0.5739(10) 0.6928(14) 0.6602(4)
O3_5 O 0.5594(5) 0.7013(8) 0.6287(2)
O4_5 O 0.6324(5) 0.7407(8) 0.6750(2)
C9_7 C 0.4976(6) 0.5097(5) 0.7654(2)
C10_7 C 0.5204(5) 0.5692(4) 0.7911(2)
C11_7 C 0.5311(5) 0.5523(4) 0.8256(2)
H4_7 H 0.5467 0.5929 0.8432
C12_7 C 0.5190(6) 0.4758(5) 0.8344(2)
C13_7 C 0.4962(6) 0.4163(4) 0.8087(2)
C14_7 C 0.4855(6) 0.4332(4) 0.7742(2)
H5_7 H 0.4700 0.3925 0.7566
O5_7 O 0.4960(6) 0.3486(5) 0.8185(3)
C15_7 C 0.4698(8) 0.2827(5) 0.8397(3)
H6_7 H 0.4447 0.2820 0.8629
C16_7 C 0.4244(8) 0.2022(6) 0.8139(3)
H7_7 H 0.4448 0.1640 0.8182
H8_7 H 0.3646 0.1731 0.8171
C17_7 C 0.4494(9) 0.2418(9) 0.7761(3)
H9_7 H 0.4264 0.2774 0.7722
H10_7 H 0.4283 0.1987 0.7583
H11_7 H 0.5089 0.2738 0.7744
C18_7 C 0.5526(8) 0.2811(9) 0.8388(4)
H12_7 H 0.5795 0.3019 0.8161
H13_7 H 0.5412 0.2251 0.8419
H14_7 H 0.5883 0.3154 0.8577
O6_7 O 0.5525(6) 0.6527(5) 0.7777(3)
C19_7 C 0.5929(8) 0.7273(7) 0.8019(3)
H15_7 H 0.6439 0.7373 0.8140
C20_7 C 0.6012(8) 0.7946(8) 0.7764(4)
H16_7 H 0.6302 0.8492 0.7874
H17_7 H 0.6293 0.7950 0.7544
C21_7 C 0.5130(8) 0.7668(9) 0.7702(4)
H18_7 H 0.5027 0.7649 0.7449
H19_7 H 0.4993 0.8050 0.7814
H20_7 H 0.4793 0.7124 0.7803
C22_7 C 0.5164(8) 0.6945(8) 0.8248(4)
H21_7 H 0.4723 0.6452 0.8140
H22_7 H 0.5000 0.7358 0.8267
H23_7 H 0.5281 0.6815 0.8482
C23_7 C 0.4310(6) 0.3051(11) 0.9423(4)
C24_7 C 0.6897(12) 0.5678(12) 0.9389(4)
C25_7 C 0.5315(6) 0.4704(5) 0.87305(18)
C26_7 C 0.6027(6) 0.5261(5) 0.8901(2)
H24_7 H 0.6427 0.5728 0.8779
C27_7 C 0.6154(4) 0.5135(5) 0.9249(2)
C28_7 C 0.5569(5) 0.4451(5) 0.94275(16)
H25_7 H 0.5655 0.4365 0.9666
C29_7 C 0.4857(4) 0.3894(4) 0.9257(2)
C30_7 C 0.4730(5) 0.4020(5) 0.8909(2)
H26_7 H 0.4243 0.3639 0.8792
O11_7 O 0.2212(7) 0.4485(7) 0.5584(3)
O12_7 O 0.1126(7) 0.2322(6) 0.7140(2)
O13_3 O 0.1418(9) 0.4406(5) 0.6287(2)
O14_3 O 0.1082(9) 0.3676(5) 0.6750(2)
H27_7 H 0.1192 0.273606 0.731615
H28_7 H 0.0552177 0.186998 0.713916
H29_7 H 0.268779 0.448719 0.547287
H30_7 H 0.174529 0.424653 0.541791
C12_8 C 0.5242(5) 0.0433(8) 0.8344(2)
C13_8 C 0.5837(4) 0.0800(7) 0.8087(2)
C14_8 C 0.5668(4) 0.0524(7) 0.7742(2)
H5_8 H 0.6075 0.0776 0.7566
O5_8 O 0.6514(5) 0.1475(8) 0.8185(3)
C15_8 C 0.7173(5) 0.1872(9) 0.8397(3)
H6_8 H 0.7180 0.1628 0.8629
C16_8 C 0.7978(6) 0.2223(10) 0.8139(3)
H7_8 H 0.8360 0.2809 0.8182
H8_8 H 0.8269 0.1916 0.8171
C17_8 C 0.7582(9) 0.2077(13) 0.7761(3)
H9_8 H 0.7226 0.1491 0.7722
H10_8 H 0.8013 0.2297 0.7583
H11_8 H 0.7262 0.2352 0.7744
C18_8 C 0.7189(9) 0.2716(12) 0.8388(4)
H12_8 H 0.6981 0.2777 0.8161
H13_8 H 0.7749 0.3162 0.8419
H14_8 H 0.6846 0.2730 0.8577
C23_8 C 0.6949(11) 0.1260(13) 0.9423(4)
C24_8 C 0.4322(12) 0.1220(17) 0.9389(4)
C25_8 C 0.5296(5) 0.0612(8) 0.87305(18)
C26_8 C 0.4739(5) 0.0767(8) 0.8901(2)
H24_8 H 0.4272 0.0700 0.8779
C27_8 C 0.4865(5) 0.1020(6) 0.9249(2)
C28_8 C 0.5549(5) 0.1119(7) 0.94275(16)
H25_8 H 0.5635 0.1291 0.9666
C29_8 C 0.6106(4) 0.0964(6) 0.9257(2)
C30_8 C 0.5980(5) 0.0711(7) 0.8909(2)
H26_8 H 0.6361 0.0605 0.8792
O1_8 O 0.5547(4) 0.8502(6) 0.6287(2)
O2_8 O 0.6307(7) 0.8893(9) 0.6768(3)
C1_8 C 0.5705(5) 0.8758(8) 0.6579(3)
C2_8 C 0.5113(4) 0.8974(6) 0.67813(19)
C3_7 C 0.4399(5) 0.8808(7) 0.66098(17)
H1_7 H 0.4299 0.8598 0.6377
C4_8 C 0.3830(4) 0.8948(6) 0.6779(2)
C5_8 C 0.3976(5) 0.9255(6) 0.71191(19)
H2_8 H 0.3587 0.9350 0.7235
C6_8 C 0.4690(5) 0.9421(6) 0.72907(16)
C7_8 C 0.5259(4) 0.9281(6) 0.7122(2)
H3_8 H 0.5747 0.9394 0.7239
C8_8 C 0.3072(14) 0.8812(17) 0.6602(4)
O3_6 O 0.2987(8) 0.8582(9) 0.6287(2)
O4_6 O 0.2593(8) 0.8918(9) 0.6750(2)
C9_8 C 0.4903(5) 0.9880(8) 0.7654(2)
C10_8 C 0.4308(4) 0.9513(6) 0.7911(2)
C11_8 C 0.4477(4) 0.9789(6) 0.8256(2)
H4_8 H 0.4071 0.9539 0.8432
O6_8 O 0.3473(5) 0.8999(8) 0.7777(3)
C19_8 C 0.2727(7) 0.8657(11) 0.8019(3)
H15_8 H 0.2627 0.9067 0.8140
C20_8 C 0.2054(8) 0.8067(11) 0.7764(4)
H16_8 H 0.1508 0.7811 0.7874
H17_8 H 0.2050 0.8344 0.7544
C21_8 C 0.2332(9) 0.7463(12) 0.7702(4)
H18_8 H 0.2351 0.7379 0.7449
H19_8 H 0.1950 0.6944 0.7814
H20_8 H 0.2876 0.7670 0.7803
C22_8 C 0.3055(8) 0.8220(11) 0.8248(4)
H21_8 H 0.3548 0.8272 0.8140
H22_8 H 0.2642 0.7643 0.8267
H23_8 H 0.3185 0.8467 0.8482
O11_8 O 0.5515(7) 0.7728(10) 0.5584(3)
O12_8 O 0.7678(6) 0.8805(9) 0.7140(2)
H27_8 H 0.726394 0.845594 0.731615
H28_8 H 0.813002 0.86822 0.713916
H29_8 H 0.551281 0.82006 0.547287
H30_8 H 0.575347 0.749876 0.541791
O1_9 O 0.1498(6) 0.7046(5) 0.6287(2)
O2_9 O 0.1107(9) 0.7415(5) 0.6768(3)
C1_9 C 0.1242(8) 0.6948(6) 0.6579(3)
C2_9 C 0.1026(6) 0.6140(4) 0.67813(19)
C3_8 C 0.1192(7) 0.5592(5) 0.66098(17)
H1_8 H 0.1402 0.5702 0.6377
C4_9 C 0.1052(6) 0.4883(5) 0.6779(2)
C5_9 C 0.0745(6) 0.4722(4) 0.71191(19)
H2_9 H 0.0650 0.4238 0.7235
C6_9 C 0.0579(6) 0.5270(4) 0.72907(16)
C7_9 C 0.0719(6) 0.5979(4) 0.7122(2)
H3_9 H 0.0606 0.6354 0.7239
C8_9 C 0.1188(17) 0.4261(10) 0.6602(4)
C9_9 C 0.0120(8) 0.5024(6) 0.7654(2)
C10_9 C 0.0487(6) 0.4796(5) 0.7911(2)
C11_9 C 0.0211(6) 0.4689(5) 0.8256(2)
H4_9 H 0.0461 0.4533 0.8432
O6_9 O 0.1001(8) 0.4475(6) 0.7777(3)
C19_9 C 0.1343(11) 0.4071(8) 0.8019(3)
H15_9 H 0.0933 0.3561 0.8140
C20_9 C 0.1933(11) 0.3988(8) 0.7764(4)
H16_9 H 0.2189 0.3698 0.7874
H17_9 H 0.1656 0.3707 0.7544
C21_9 C 0.2537(12) 0.4870(8) 0.7702(4)
H18_9 H 0.2621 0.4973 0.7449
H19_9 H 0.3056 0.5007 0.7814
H20_9 H 0.2330 0.5207 0.7803
C22_9 C 0.1780(11) 0.4836(8) 0.8248(4)
H21_9 H 0.1728 0.5277 0.8140
H22_9 H 0.2357 0.5000 0.8267
H23_9 H 0.1533 0.4719 0.8482
O11_9 O 0.2272(10) 0.7788(7) 0.5584(3)
O12_9 O 0.1195(9) 0.8874(7) 0.7140(2)
H27_9 H 0.154406 0.8808 0.731615
H28_9 H 0.13178 0.944782 0.713916
H29_9 H 0.17994 0.731221 0.547287
H30_9 H 0.250124 0.825471 0.541791
C12_9 C 0.9567(8) 0.4810(6) 0.8344(2)
C13_9 C 0.9200(7) 0.5038(6) 0.8087(2)
C14_9 C 0.9476(7) 0.5145(6) 0.7742(2)
H5_9 H 0.9224 0.5300 0.7566
O5_9 O 0.8525(8) 0.5040(6) 0.8185(3)
C15_9 C 0.8128(9) 0.5302(8) 0.8397(3)
H6_9 H 0.8372 0.5553 0.8629
C16_9 C 0.7777(10) 0.5756(8) 0.8139(3)
H7_9 H 0.7191 0.5552 0.8182
H8_9 H 0.8084 0.6354 0.8171
C17_9 C 0.7923(13) 0.5506(9) 0.7761(3)
H9_9 H 0.8509 0.5736 0.7722
H10_9 H 0.7703 0.5717 0.7583
H11_9 H 0.7648 0.4911 0.7744
C18_9 C 0.7284(12) 0.4474(8) 0.8388(4)
H12_9 H 0.7223 0.4205 0.8161
H13_9 H 0.6838 0.4588 0.8419
H14_9 H 0.7270 0.4117 0.8577
C23_9 C 0.8740(13) 0.5690(6) 0.9423(4)
C24_9 C 0.8780(17) 0.3103(12) 0.9389(4)
C25_9 C 0.9388(8) 0.4685(6) 0.87305(18)
C26_9 C 0.9233(8) 0.3973(6) 0.8901(2)
H24_9 H 0.9300 0.3573 0.8779
C27_9 C 0.8980(6) 0.3846(4) 0.9249(2)
C28_9 C 0.8881(7) 0.4431(5) 0.94275(16)
H25_9 H 0.8709 0.4345 0.9666
C29_9 C 0.9036(6) 0.5143(4) 0.9257(2)
C30_9 C 0.9289(7) 0.5270(5) 0.8909(2)
H26_9 H 0.9395 0.5757 0.8792
C3_9 C 0.1075(5) 0.8934(5) 0.99431(17)
H1_9 H 0.0965 0.9034 0.9710
loop_
_geom_bond_atom_site_label_1
_geom_bond_atom_site_label_2
_geom_bond_site_symmetry_1
_geom_bond_site_symmetry_2
H15 C19 1_555 1_555
C20 C19 1_555 1_555
H16 C20 1_555 1_555
H17 C20 1_555 1_555
C21 C20 1_555 1_555
H18 C21 1_555 1_555
H19 C21 1_555 1_555
H20 C21 1_555 1_555
C22 C19 1_555 1_555
H22 C22 1_555 1_555
H23 C22 1_555 1_555
O3 C8 1_555 1_555
Zn6 O3 1_555 1_555
C5 C4 1_555 1_555
H2 C5 1_555 1_555
C6 C5 1_555 1_555
C7 C2 1_555 1_555
H3 C7 1_555 1_555
C9 C6 1_555 1_555
C10 C9 1_555 1_555
C11 C10 1_555 1_555
H4 C11 1_555 1_555
C12 C11 1_555 1_555
C13 C12 1_555 1_555
C14 C9 1_555 1_555
H5 C14 1_555 1_555
O5 C13 1_555 1_555
C15 O5 1_555 1_555
H6 C15 1_555 1_555
C16 C15 1_555 1_555
H7 C16 1_555 1_555
H8 C16 1_555 1_555
C17 C16 1_555 1_555
H9 C17 1_555 1_555
H10 C17 1_555 1_555
H11 C17 1_555 1_555
C18 C15 1_555 1_555
H12 C18 1_555 1_555
H13 C18 1_555 1_555
H14 C18 1_555 1_555
O6 C10 1_555 1_555
C23 O7 1_555 1_555
O8 C23 1_555 1_555
O9 C24 1_555 1_555
O10 C24 1_555 1_555
C24 C27 1_555 1_555
C25 C12 1_555 1_555
C26 C25 1_555 1_555
H24 C26 1_555 1_555
C27 C26 1_555 1_555
C28 C27 1_555 1_555
H25 C28 1_555 1_555
C29 C23 1_555 1_555
C30 C25 1_555 1_555
H26 C30 1_555 1_555
Zn4 O9 1_555 1_555
Zn5 O8 1_555 1_555
C6 C7 1_555 1_555
C13 C14 1_555 1_555
C28 C29 1_555 1_555
C29 C30 1_555 1_555
O12 H27 1_555 1_555
O12 H28 1_555 1_555
Zn2 O1 1_555 1_555
O1 C1 1_555 1_555
O11 Zn2 1_555 1_555
O13 Zn2 1_555 1_555
O15 Zn2 1_555 1_555
O16 Zn1 1_555 1_555
O17 Zn1 1_555 1_555
O18 Zn2 1_555 1_555
O11 H29 1_555 1_555
O11 H30 1_555 1_555
C5_2 C4_2 1_555 1_555
H2_2 C5_2 1_555 1_555
C6_2 C5_2 1_555 1_555
C7_2 C2_2 1_555 1_555
H3_2 C7_2 1_555 1_555
C9_2 C6_2 1_555 1_555
C10_2 C9_2 1_555 1_555
C11_2 C10_2 1_555 1_555
H4_2 C11_2 1_555 1_555
C12_2 C11_2 1_555 1_555
C13_2 C12_2 1_555 1_555
C14_2 C9_2 1_555 1_555
H5_2 C14_2 1_555 1_555
O5_2 C13_2 1_555 1_555
C15_2 O5_2 1_555 1_555
H6_2 C15_2 1_555 1_555
C16_2 C15_2 1_555 1_555
H7_2 C16_2 1_555 1_555
H8_2 C16_2 1_555 1_555
C17_2 C16_2 1_555 1_555
H9_2 C17_2 1_555 1_555
H10_2 C17_2 1_555 1_555
H11_2 C17_2 1_555 1_555
C18_2 C15_2 1_555 1_555
H12_2 C18_2 1_555 1_555
H13_2 C18_2 1_555 1_555
H14_2 C18_2 1_555 1_555
O6_2 C10_2 1_555 1_555
C23_2 O7_2 1_555 1_555
O7_2 Zn8_2 1_555 1_555
O8_2 C23_2 1_555 1_555
O9_2 C24_2 1_555 1_555
O10_2 C24_2 1_555 1_555
C24_2 C27_2 1_555 1_555
C25_2 C12_2 1_555 1_555
C26_2 C25_2 1_555 1_555
H24_2 C26_2 1_555 1_555
C27_2 C26_2 1_555 1_555
C28_2 C27_2 1_555 1_555
H25_2 C28_2 1_555 1_555
C29_2 C23_2 1_555 1_555
C30_2 C25_2 1_555 1_555
H26_2 C30_2 1_555 1_555
Zn5 O9_2 1_555 1_555
Zn5_2 O8_2 1_555 1_555
C6_2 C7_2 1_555 1_555
C13_2 C14_2 1_555 1_555
C28_2 C29_2 1_555 1_555
C29_2 C30_2 1_555 1_555
O12_2 H27_2 1_555 1_555
O12_2 H28_2 1_555 1_555
Zn6 O1_2 1_555 1_555
O1_2 C1_2 1_555 1_555
C3 H1 1_555 1_555
O11_2 Zn6 1_555 1_555
O15_2 Zn6 1_555 1_555
O16_2 Zn3 1_555 1_555
O17_2 Zn3 1_555 1_555
O18_2 Zn6 1_555 1_555
O11_2 H29_2 1_555 1_555
O11_2 H30_2 1_555 1_555
H15_2 C19_2 1_555 1_555
C20_2 C19_2 1_555 1_555
H16_2 C20_2 1_555 1_555
H17_2 C20_2 1_555 1_555
C21_2 C20_2 1_555 1_555
H18_2 C21_2 1_555 1_555
H19_2 C21_2 1_555 1_555
H20_2 C21_2 1_555 1_555
C22_2 C19_2 1_555 1_555
H22_2 C22_2 1_555 1_555
H23_2 C22_2 1_555 1_555
O3_2 C8_2 1_555 1_555
Zn6_2 O3_2 1_555 1_555
O12_3 H27_3 1_555 1_555
O12_3 H28_3 1_555 1_555
Zn6_2 O1_3 1_555 1_555
O1_3 C1_3 1_555 1_555
O11_3 Zn6_2 1_555 1_555
O15_3 Zn6_2 1_555 1_555
O16_3 Zn3_2 1_555 1_555
O17_3 Zn3_2 1_555 1_555
O18_3 Zn6_2 1_555 1_555
O11_3 H29_3 1_555 1_555
O11_3 H30_3 1_555 1_555
C5_3 C4_3 1_555 1_555
H2_3 C5_3 1_555 1_555
C6_3 C5_3 1_555 1_555
C7_3 C2_3 1_555 1_555
H3_3 C7_3 1_555 1_555
C9_3 C6_3 1_555 1_555
C10_3 C9_3 1_555 1_555
C11_3 C10_3 1_555 1_555
H4_3 C11_3 1_555 1_555
C12_3 C11_3 1_555 1_555
C13_3 C12_3 1_555 1_555
C14_3 C9_3 1_555 1_555
H5_3 C14_3 1_555 1_555
O5_3 C13_3 1_555 1_555
C15_3 O5_3 1_555 1_555
H6_3 C15_3 1_555 1_555
C16_3 C15_3 1_555 1_555
H7_3 C16_3 1_555 1_555
H8_3 C16_3 1_555 1_555
C17_3 C16_3 1_555 1_555
H9_3 C17_3 1_555 1_555
H10_3 C17_3 1_555 1_555
H11_3 C17_3 1_555 1_555
C18_3 C15_3 1_555 1_555
H12_3 C18_3 1_555 1_555
H13_3 C18_3 1_555 1_555
H14_3 C18_3 1_555 1_555
O6_3 C10_3 1_555 1_555
C19_3 O6_3 1_555 1_555
H15_3 C19_3 1_555 1_555
C20_3 C19_3 1_555 1_555
H16_3 C20_3 1_555 1_555
H17_3 C20_3 1_555 1_555
C21_3 C20_3 1_555 1_555
H18_3 C21_3 1_555 1_555
H19_3 C21_3 1_555 1_555
H20_3 C21_3 1_555 1_555
C22_3 C19_3 1_555 1_555
H21_3 C22_3 1_555 1_555
H22_3 C22_3 1_555 1_555
H23_3 C22_3 1_555 1_555
C23_3 O7_3 1_555 1_555
O8_3 C23_3 1_555 1_555
O9_3 C24_3 1_555 1_555
O10_3 C24_3 1_555 1_555
C24_3 C27_3 1_555 1_555
C25_3 C12_3 1_555 1_555
C26_3 C25_3 1_555 1_555
H24_3 C26_3 1_555 1_555
C27_3 C26_3 1_555 1_555
C28_3 C27_3 1_555 1_555
H25_3 C28_3 1_555 1_555
C29_3 C23_3 1_555 1_555
C30_3 C25_3 1_555 1_555
H26_3 C30_3 1_555 1_555
Zn5_2 O9_3 1_555 1_555
Zn4 O8_3 1_555 1_555
Zn8_2 O10_3 1_555 1_555
C6_3 C7_3 1_555 1_555
C13_3 C14_3 1_555 1_555
C28_3 C29_3 1_555 1_555
C29_3 C30_3 1_555 1_555
C3_2 H1_2 1_555 1_555
O13 C8_3 1_555 1_555
O9_4 C24_4 1_555 1_555
O10_4 C24_4 1_555 1_555
Zn4_2 O9_4 1_555 1_555
Zn7_2 O10_4 1_555 1_555
Zn7 O1_4 1_555 1_555
O1_4 C1_4 1_555 1_555
O2_4 C1_4 1_555 1_555
C1_4 C2_4 1_555 1_555
C2_4 C3_3 1_555 1_555
C3_3 H1_3 1_555 1_555
C4_4 C3_3 1_555 1_555
C5_4 C4_4 1_555 1_555
H2_4 C5_4 1_555 1_555
C6_4 C5_4 1_555 1_555
C7_4 C2_4 1_555 1_555
H3_4 C7_4 1_555 1_555
C8_4 C4_4 1_555 1_555
O3_3 C8_4 1_555 1_555
O4_3 C8_4 1_555 1_555
C9_4 C6_4 1_555 1_555
C10_4 C9_4 1_555 1_555
C11_4 C10_4 1_555 1_555
H4_4 C11_4 1_555 1_555
C12_4 C11_4 1_555 1_555
C13_4 C12_4 1_555 1_555
C14_4 C9_4 1_555 1_555
H5_4 C14_4 1_555 1_555
O5_4 C13_4 1_555 1_555
O6_4 C10_4 1_555 1_555
C19_4 O6_4 1_555 1_555
H15_4 C19_4 1_555 1_555
C20_4 C19_4 1_555 1_555
H16_4 C20_4 1_555 1_555
H17_4 C20_4 1_555 1_555
C21_4 C20_4 1_555 1_555
H18_4 C21_4 1_555 1_555
H19_4 C21_4 1_555 1_555
H20_4 C21_4 1_555 1_555
C22_4 C19_4 1_555 1_555
H21_4 C22_4 1_555 1_555
H22_4 C22_4 1_555 1_555
H23_4 C22_4 1_555 1_555
C25_4 C12_4 1_555 1_555
C26_4 C25_4 1_555 1_555
H24_4 C26_4 1_555 1_555
C27_4 C26_4 1_555 1_555
C28_4 C27_4 1_555 1_555
H25_4 C28_4 1_555 1_555
C30_4 C25_4 1_555 1_555
H26_4 C30_4 1_555 1_555
O11_4 Zn7 1_555 1_555
Zn8 O3_3 1_555 1_555
O13_2 Zn7 1_555 1_555
C6_4 C7_4 1_555 1_555
C13_4 C14_4 1_555 1_555
C28_4 C29_4 1_555 1_555
C29_4 C30_4 1_555 1_555
O11_4 H29_4 1_555 1_555
O11_4 H30_4 1_555 1_555
H6_4 C15_4 1_555 1_555
C16_4 C15_4 1_555 1_555
H7_4 C16_4 1_555 1_555
H8_4 C16_4 1_555 1_555
C17_4 C16_4 1_555 1_555
H9_4 C17_4 1_555 1_555
H10_4 C17_4 1_555 1_555
H11_4 C17_4 1_555 1_555
C18_4 C15_4 1_555 1_555
H12_4 C18_4 1_555 1_555
H13_4 C18_4 1_555 1_555
H14_4 C18_4 1_555 1_555
C23_4 O7_4 1_555 1_555
O7_4 Zn8_3 1_555 1_555
O8_4 C23_4 1_555 1_555
O12_4 Zn4 1_555 1_555
Zn5_3 O8_4 1_555 1_555
O12_4 H27_4 1_555 1_555
O12_4 H28_4 1_555 1_555
H6_5 C15_5 1_555 1_555
C16_5 C15_5 1_555 1_555
H7_5 C16_5 1_555 1_555
H8_5 C16_5 1_555 1_555
C17_5 C16_5 1_555 1_555
H9_5 C17_5 1_555 1_555
H10_5 C17_5 1_555 1_555
H11_5 C17_5 1_555 1_555
C18_5 C15_5 1_555 1_555
H12_5 C18_5 1_555 1_555
H13_5 C18_5 1_555 1_555
H14_5 C18_5 1_555 1_555
C23_5 O7_5 1_555 1_555
O7_5 Zn8_4 1_555 1_555
O8_5 C23_5 1_555 1_555
O12_5 Zn5 1_555 1_555
Zn5_4 O8_5 1_555 1_555
O12_5 H27_5 1_555 1_555
O12_5 H28_5 1_555 1_555
Zn8 O1_5 1_555 1_555
O1_5 C1_5 1_555 1_555
O2_5 C1_5 1_555 1_555
C1_5 C2_5 1_555 1_555
C2_5 C3_4 1_555 1_555
C3_4 H1_4 1_555 1_555
C4_5 C3_4 1_555 1_555
C5_5 C4_5 1_555 1_555
H2_5 C5_5 1_555 1_555
C6_5 C5_5 1_555 1_555
C7_5 C2_5 1_555 1_555
H3_5 C7_5 1_555 1_555
C8_5 C4_5 1_555 1_555
O3_4 C8_5 1_555 1_555
O4_4 C8_5 1_555 1_555
C9_5 C6_5 1_555 1_555
C10_5 C9_5 1_555 1_555
C11_5 C10_5 1_555 1_555
H4_5 C11_5 1_555 1_555
C12_5 C11_5 1_555 1_555
C13_5 C12_5 1_555 1_555
C14_5 C9_5 1_555 1_555
H5_5 C14_5 1_555 1_555
O5_5 C13_5 1_555 1_555
O6_5 C10_5 1_555 1_555
C19_5 O6_5 1_555 1_555
H15_5 C19_5 1_555 1_555
C20_5 C19_5 1_555 1_555
H16_5 C20_5 1_555 1_555
H17_5 C20_5 1_555 1_555
C21_5 C20_5 1_555 1_555
H18_5 C21_5 1_555 1_555
H19_5 C21_5 1_555 1_555
H20_5 C21_5 1_555 1_555
C22_5 C19_5 1_555 1_555
H21_5 C22_5 1_555 1_555
H22_5 C22_5 1_555 1_555
H23_5 C22_5 1_555 1_555
O9_5 C24_5 1_555 1_555
O10_5 C24_5 1_555 1_555
C24_5 C27_5 1_555 1_555
C25_5 C12_5 1_555 1_555
C26_5 C25_5 1_555 1_555
H24_5 C26_5 1_555 1_555
C27_5 C26_5 1_555 1_555
C28_5 C27_5 1_555 1_555
H25_5 C28_5 1_555 1_555
C30_5 C25_5 1_555 1_555
H26_5 C30_5 1_555 1_555
O11_5 Zn8 1_555 1_555
Zn5_2 O4_4 1_555 1_555
Zn5_3 O9_5 1_555 1_555
Zn8_2 O3_4 1_555 1_555
Zn8_3 O10_5 1_555 1_555
C6_5 C7_5 1_555 1_555
C13_5 C14_5 1_555 1_555
C28_5 C29_5 1_555 1_555
C29_5 C30_5 1_555 1_555
O11_5 H29_5 1_555 1_555
O11_5 H30_5 1_555 1_555
Zn5_2 O2_6 1_555 1_555
Zn8_2 O1_6 1_555 1_555
O1_6 C1_6 1_555 1_555
O2_6 C1_6 1_555 1_555
C1_6 C2_6 1_555 1_555
C2_6 C3_5 1_555 1_555
C3_5 H1_5 1_555 1_555
C4_6 C3_5 1_555 1_555
C5_6 C4_6 1_555 1_555
H2_6 C5_6 1_555 1_555
C6_6 C5_6 1_555 1_555
C7_6 C2_6 1_555 1_555
H3_6 C7_6 1_555 1_555
C8_6 C4_6 1_555 1_555
O13_2 C8_6 1_555 1_555
O14_2 C8_6 1_555 1_555
C9_6 C6_6 1_555 1_555
C10_6 C9_6 1_555 1_555
C11_6 C10_6 1_555 1_555
H4_6 C11_6 1_555 1_555
C12_6 C11_6 1_555 1_555
C13_6 C12_6 1_555 1_555
C14_6 C9_6 1_555 1_555
H5_6 C14_6 1_555 1_555
O5_6 C13_6 1_555 1_555
C15_6 O5_6 1_555 1_555
H6_6 C15_6 1_555 1_555
C16_6 C15_6 1_555 1_555
H7_6 C16_6 1_555 1_555
H8_6 C16_6 1_555 1_555
C17_6 C16_6 1_555 1_555
H9_6 C17_6 1_555 1_555
H10_6 C17_6 1_555 1_555
H11_6 C17_6 1_555 1_555
C18_6 C15_6 1_555 1_555
H12_6 C18_6 1_555 1_555
H13_6 C18_6 1_555 1_555
H14_6 C18_6 1_555 1_555
O6_6 C10_6 1_555 1_555
C19_6 O6_6 1_555 1_555
H15_6 C19_6 1_555 1_555
C20_6 C19_6 1_555 1_555
H16_6 C20_6 1_555 1_555
H17_6 C20_6 1_555 1_555
C21_6 C20_6 1_555 1_555
H18_6 C21_6 1_555 1_555
H19_6 C21_6 1_555 1_555
H20_6 C21_6 1_555 1_555
C22_6 C19_6 1_555 1_555
H21_6 C22_6 1_555 1_555
H22_6 C22_6 1_555 1_555
H23_6 C22_6 1_555 1_555
C23_6 O7_6 1_555 1_555
O7_6 Zn7_2 1_555 1_555
O8_6 C23_6 1_555 1_555
C25_6 C12_6 1_555 1_555
C26_6 C25_6 1_555 1_555
H24_6 C26_6 1_555 1_555
C27_6 C26_6 1_555 1_555
C28_6 C27_6 1_555 1_555
H25_6 C28_6 1_555 1_555
C29_6 C23_6 1_555 1_555
C30_6 C25_6 1_555 1_555
H26_6 C30_6 1_555 1_555
O11_6 Zn8_2 1_555 1_555
O12_6 Zn5_2 1_555 1_555
Zn4_2 O8_6 1_555 1_555
C6_6 C7_6 1_555 1_555
C13_6 C14_6 1_555 1_555
C28_6 C29_6 1_555 1_555
C29_6 C30_6 1_555 1_555
O12_6 H27_6 1_555 1_555
O12_6 H28_6 1_555 1_555
O11_6 H29_6 1_555 1_555
O11_6 H30_6 1_555 1_555
O9_6 C24_6 1_555 1_555
O10_6 C24_6 1_555 1_555
Zn5_4 O9_6 1_555 1_555
Zn8_4 O10_6 1_555 1_555
Zn4_2 O2_7 1_555 1_555
Zn7_2 O1_7 1_555 1_555
O1_7 C1_7 1_555 1_555
O2_7 C1_7 1_555 1_555
C1_7 C2_7 1_555 1_555
C2_7 C3_6 1_555 1_555
C3_6 H1_6 1_555 1_555
C4_7 C3_6 1_555 1_555
C5_7 C4_7 1_555 1_555
H2_7 C5_7 1_555 1_555
C6_7 C5_7 1_555 1_555
C7_7 C2_7 1_555 1_555
H3_7 C7_7 1_555 1_555
C8_7 C4_7 1_555 1_555
O3_5 C8_7 1_555 1_555
O4_5 C8_7 1_555 1_555
C9_7 C6_7 1_555 1_555
C10_7 C9_7 1_555 1_555
C11_7 C10_7 1_555 1_555
H4_7 C11_7 1_555 1_555
C12_7 C11_7 1_555 1_555
C13_7 C12_7 1_555 1_555
C14_7 C9_7 1_555 1_555
H5_7 C14_7 1_555 1_555
O5_7 C13_7 1_555 1_555
C15_7 O5_7 1_555 1_555
H6_7 C15_7 1_555 1_555
C16_7 C15_7 1_555 1_555
H7_7 C16_7 1_555 1_555
H8_7 C16_7 1_555 1_555
C17_7 C16_7 1_555 1_555
H9_7 C17_7 1_555 1_555
H10_7 C17_7 1_555 1_555
H11_7 C17_7 1_555 1_555
C18_7 C15_7 1_555 1_555
H12_7 C18_7 1_555 1_555
H13_7 C18_7 1_555 1_555
H14_7 C18_7 1_555 1_555
O6_7 C10_7 1_555 1_555
C19_7 O6_7 1_555 1_555
H15_7 C19_7 1_555 1_555
C20_7 C19_7 1_555 1_555
H16_7 C20_7 1_555 1_555
H17_7 C20_7 1_555 1_555
C21_7 C20_7 1_555 1_555
H18_7 C21_7 1_555 1_555
H19_7 C21_7 1_555 1_555
H20_7 C21_7 1_555 1_555
C22_7 C19_7 1_555 1_555
H21_7 C22_7 1_555 1_555
H22_7 C22_7 1_555 1_555
H23_7 C22_7 1_555 1_555
C23_7 O15_2 1_555 1_555
O16_2 C23_7 1_555 1_555
O17 C24_7 1_555 1_555
O18 C24_7 1_555 1_555
C24_7 C27_7 1_555 1_555
C25_7 C12_7 1_555 1_555
C26_7 C25_7 1_555 1_555
H24_7 C26_7 1_555 1_555
C27_7 C26_7 1_555 1_555
C28_7 C27_7 1_555 1_555
H25_7 C28_7 1_555 1_555
C29_7 C23_7 1_555 1_555
C30_7 C25_7 1_555 1_555
H26_7 C30_7 1_555 1_555
O11_7 Zn7_2 1_555 1_555
O12_7 Zn4_2 1_555 1_555
Zn5_3 O4_5 1_555 1_555
Zn8_3 O3_5 1_555 1_555
O13_3 Zn7_2 1_555 1_555
O14_3 Zn4_2 1_555 1_555
C6_7 C7_7 1_555 1_555
C13_7 C14_7 1_555 1_555
C28_7 C29_7 1_555 1_555
C29_7 C30_7 1_555 1_555
O12_7 H27_7 1_555 1_555
O12_7 H28_7 1_555 1_555
O11_7 H29_7 1_555 1_555
O11_7 H30_7 1_555 1_555
C13_8 C12_8 1_555 1_555
H5_8 C14_8 1_555 1_555
O5_8 C13_8 1_555 1_555
C15_8 O5_8 1_555 1_555
H6_8 C15_8 1_555 1_555
C16_8 C15_8 1_555 1_555
H7_8 C16_8 1_555 1_555
H8_8 C16_8 1_555 1_555
C17_8 C16_8 1_555 1_555
H9_8 C17_8 1_555 1_555
H10_8 C17_8 1_555 1_555
H11_8 C17_8 1_555 1_555
C18_8 C15_8 1_555 1_555
H12_8 C18_8 1_555 1_555
H13_8 C18_8 1_555 1_555
H14_8 C18_8 1_555 1_555
C23_8 O15_3 1_555 1_555
O16_3 C23_8 1_555 1_555
O17_2 C24_8 1_555 1_555
O18_2 C24_8 1_555 1_555
C24_8 C27_8 1_555 1_555
C25_8 C12_8 1_555 1_555
C26_8 C25_8 1_555 1_555
H24_8 C26_8 1_555 1_555
C27_8 C26_8 1_555 1_555
C28_8 C27_8 1_555 1_555
H25_8 C28_8 1_555 1_555
C29_8 C23_8 1_555 1_555
C30_8 C25_8 1_555 1_555
H26_8 C30_8 1_555 1_555
C13_8 C14_8 1_555 1_555
C28_8 C29_8 1_555 1_555
C29_8 C30_8 1_555 1_555
Zn5_3 O2_8 1_555 1_555
Zn8_3 O1_8 1_555 1_555
O1_8 C1_8 1_555 1_555
O2_8 C1_8 1_555 1_555
C1_8 C2_8 1_555 1_555
C2_8 C3_7 1_555 1_555
C3_7 H1_7 1_555 1_555
C4_8 C3_7 1_555 1_555
C5_8 C4_8 1_555 1_555
H2_8 C5_8 1_555 1_555
C6_8 C5_8 1_555 1_555
C7_8 C2_8 1_555 1_555
H3_8 C7_8 1_555 1_555
C8_8 C4_8 1_555 1_555
O3_6 C8_8 1_555 1_555
O4_6 C8_8 1_555 1_555
C9_8 C6_8 1_555 1_555
C10_8 C9_8 1_555 1_555
C11_8 C10_8 1_555 1_555
H4_8 C11_8 1_555 1_555
O6_8 C10_8 1_555 1_555
C19_8 O6_8 1_555 1_555
H15_8 C19_8 1_555 1_555
C20_8 C19_8 1_555 1_555
H16_8 C20_8 1_555 1_555
H17_8 C20_8 1_555 1_555
C21_8 C20_8 1_555 1_555
H18_8 C21_8 1_555 1_555
H19_8 C21_8 1_555 1_555
H20_8 C21_8 1_555 1_555
C22_8 C19_8 1_555 1_555
H21_8 C22_8 1_555 1_555
H22_8 C22_8 1_555 1_555
H23_8 C22_8 1_555 1_555
O11_8 Zn8_3 1_555 1_555
O12_8 Zn5_3 1_555 1_555
Zn5_4 O4_6 1_555 1_555
Zn8_4 O3_6 1_555 1_555
C6_8 C7_8 1_555 1_555
O12_8 H27_8 1_555 1_555
O12_8 H28_8 1_555 1_555
O11_8 H29_8 1_555 1_555
O11_8 H30_8 1_555 1_555
Zn5_4 O2_9 1_555 1_555
Zn8_4 O1_9 1_555 1_555
O1_9 C1_9 1_555 1_555
O2_9 C1_9 1_555 1_555
C1_9 C2_9 1_555 1_555
C2_9 C3_8 1_555 1_555
C3_8 H1_8 1_555 1_555
C4_9 C3_8 1_555 1_555
C5_9 C4_9 1_555 1_555
H2_9 C5_9 1_555 1_555
C6_9 C5_9 1_555 1_555
C7_9 C2_9 1_555 1_555
H3_9 C7_9 1_555 1_555
C8_9 C4_9 1_555 1_555
O13_3 C8_9 1_555 1_555
O14_3 C8_9 1_555 1_555
C9_9 C6_9 1_555 1_555
C10_9 C9_9 1_555 1_555
C11_9 C10_9 1_555 1_555
H4_9 C11_9 1_555 1_555
O6_9 C10_9 1_555 1_555
C19_9 O6_9 1_555 1_555
H15_9 C19_9 1_555 1_555
C20_9 C19_9 1_555 1_555
H16_9 C20_9 1_555 1_555
H17_9 C20_9 1_555 1_555
C21_9 C20_9 1_555 1_555
H18_9 C21_9 1_555 1_555
H19_9 C21_9 1_555 1_555
H20_9 C21_9 1_555 1_555
C22_9 C19_9 1_555 1_555
H21_9 C22_9 1_555 1_555
H22_9 C22_9 1_555 1_555
H23_9 C22_9 1_555 1_555
O11_9 Zn8_4 1_555 1_555
O12_9 Zn5_4 1_555 1_555
C6_9 C7_9 1_555 1_555
O12_9 H27_9 1_555 1_555
O12_9 H28_9 1_555 1_555
O11_9 H29_9 1_555 1_555
O11_9 H30_9 1_555 1_555
C13_9 C12_9 1_555 1_555
H5_9 C14_9 1_555 1_555
O5_9 C13_9 1_555 1_555
C15_9 O5_9 1_555 1_555
H6_9 C15_9 1_555 1_555
C16_9 C15_9 1_555 1_555
H7_9 C16_9 1_555 1_555
H8_9 C16_9 1_555 1_555
C17_9 C16_9 1_555 1_555
H9_9 C17_9 1_555 1_555
H10_9 C17_9 1_555 1_555
H11_9 C17_9 1_555 1_555
C18_9 C15_9 1_555 1_555
H12_9 C18_9 1_555 1_555
H13_9 C18_9 1_555 1_555
H14_9 C18_9 1_555 1_555
C23_9 O15 1_555 1_555
O16 C23_9 1_555 1_555
O17_3 C24_9 1_555 1_555
O18_3 C24_9 1_555 1_555
C24_9 C27_9 1_555 1_555
C25_9 C12_9 1_555 1_555
C26_9 C25_9 1_555 1_555
H24_9 C26_9 1_555 1_555
C27_9 C26_9 1_555 1_555
C28_9 C27_9 1_555 1_555
H25_9 C28_9 1_555 1_555
C29_9 C23_9 1_555 1_555
C30_9 C25_9 1_555 1_555
H26_9 C30_9 1_555 1_555
C13_9 C14_9 1_555 1_555
C28_9 C29_9 1_555 1_555
C29_9 C30_9 1_555 1_555
C3_9 H1_9 1_555 1_555

#END
