
###############################################################################
#
# This file contains modified crystal structure data generated from the
# MOF subset of the Cambridge Structural Database (CSD) v543 
# hosted by the Cambridge Crystallographic Data Centre (CCDC).
#
# This work is licensed under the Creative Commons
# Attribution-NonCommercial-ShareAlike 4.0 International License.
# To view a copy of this license, visit
# http://creativecommons.org/licenses/by-nc-sa/4.0/
# or send a letter to
# Creative Commons, PO Box 1866, Mountain View, CA 94042, USA.
#
# CIF created using the CSD Python API on 29 September 2022
# The structure has been converted into the P1 space group
# The structure has a 3D framework
# The original CSD entry YAWBAC is in the rhombohedral crystal system
# The original CSD entry YAWBAC is in a Sohncke space group
# The framework has been calculated to contain at least 10.0% void space
# The void calculation uses a probe of radius 1.32A, grid spacing 0.4
# H atom positions have been added when not included in the experimental data
#
###############################################################################

data_YAWBAC
_chemical_formula_moiety         '(C288 H306 O108 Zn15)n'
_symmetry_cell_setting           triclinic
_symmetry_space_group_name_H-M   'P 1'
_symmetry_Int_Tables_number      1
_space_group_name_Hall           'P 1'
loop_
_symmetry_equiv_pos_site_id
_symmetry_equiv_pos_as_xyz
1 x,y,z
_cell_length_a                   18.8323(7)
_cell_length_b                   18.8323(7)
_cell_length_c                   38.4958(15)
_cell_angle_alpha                90
_cell_angle_beta                 90
_cell_angle_gamma                120
_cell_volume                     11823.6
loop_
_atom_site_label
_atom_site_type_symbol
_atom_site_fract_x
_atom_site_fract_y
_atom_site_fract_z
O4 O 0.3109(9) 0.0814(13) 0.0123(4)
C20 C 0.2340(11) 0.0465(9) 0.1455(4)
H9 H 0.2874 0.0663 0.1573
H10 H 0.1895 0.0167 0.1626
C21 C 0.2286(10) 0.1172(8) 0.1299(4)
H11 H 0.1762 0.0940 0.1166
C22 C 0.2337(10) 0.1851(10) 0.1535(4)
C23 C 0.2986(10) 0.1553(9) 0.1042(4)
C24 C 0.3219(9) 0.2700(8) 0.1383(4)
Zn7 Zn 0.52583(10) 0.05163(8) 0.26864(2)
H23 H 0.314261 0.279469 0.110959
H24 H 0.333141 0.323917 0.153111
H25 H 0.373734 0.259976 0.141277
H26 H 0.290597 0.11001 0.0846862
H27 H 0.299254 0.207402 0.0916048
H28 H 0.356373 0.175932 0.117797
H31 H 0.239773 0.173026 0.180685
H32 H 0.1803 0.19252 0.150367
C8 C 0.2434(12) 0.0331(16) 0.9974(4)
O3 O 0.2215(6) 0.0395(8) 0.9626(2)
Zn3 Zn 0.38468(9) 0.19218(13) 0.99940(2)
Zn6 Zn 0.28170(8) 0.14086(13) 0.93531(2)
C2 C 0.0504(5) 0.8209(5) 0.01265(18)
C4 C 0.1767(5) 0.9502(5) 0.0130(2)
C5 C 0.1932(4) 0.9342(5) 0.0463(2)
H2 H 0.2420 0.9729 0.0579
C6 C 0.1383(5) 0.8615(5) 0.06286(17)
C7 C 0.0669(5) 0.8048(5) 0.04602(19)
H3 H 0.0294 0.7551 0.0573
C9 C 0.1672(6) 0.8429(6) 0.0967(2)
C10 C 0.1864(6) 0.9028(5) 0.1219(3)
C11 C 0.1958(6) 0.8869(6) 0.1563(2)
H4 H 0.2090 0.9278 0.1735
C12 C 0.1860(6) 0.8111(6) 0.1656(2)
C13 C 0.1667(6) 0.7513(5) 0.1404(3)
C14 C 0.1573(6) 0.7671(6) 0.1060(2)
H5 H 0.1442 0.7262 0.0888
O5 O 0.1501(7) 0.6708(6) 0.1507(3)
C15 C 0.1796(9) 0.6153(8) 0.1648(4)
H6 H 0.2038 0.5984 0.1460
H7 H 0.2219 0.6441 0.1829
C16 C 0.1078(10) 0.5432(8) 0.1797(4)
H8 H 0.0665 0.5580 0.1878
C17 C 0.0690(9) 0.4727(9) 0.1527(4)
C18 C 0.1349(10) 0.5079(9) 0.2105(3)
C19 C 0.1449(10) 0.4525(10) 0.1495(4)
O6 O 0.2254(6) 0.9931(6) 0.1160(3)
O7 O 0.0340(4) 0.5914(6) 0.25761(18)
O8 O 0.1117(6) 0.6337(9) 0.3030(2)
C25 C 0.0966(7) 0.6456(11) 0.2759(3)
O9 O 0.3690(6) 0.8865(6) 0.3049(2)
O10 O 0.4103(6) 0.9651(6) 0.2567(2)
C26 C 0.3582(9) 0.9009(8) 0.2746(4)
C27 C 0.1970(6) 0.8053(5) 0.20607(16)
C28 C 0.2682(5) 0.8613(4) 0.22321(19)
H12 H 0.3083 0.9089 0.2114
C29 C 0.2807(4) 0.8476(4) 0.2575(2)
C30 C 0.2220(5) 0.7780(5) 0.27480(15)
H13 H 0.2305 0.7687 0.2983
C31 C 0.1507(5) 0.7221(4) 0.2576(2)
C32 C 0.1382(5) 0.7357(5) 0.2233(2)
H14 H 0.0895 0.6975 0.2116
Zn4 Zn 0.47417(10) 0.94865(9) 0.33273(2)
Zn5 Zn 0.05135(9) 0.52551(13) 0.33273(2)
H15 H 0.164029 0.554575 0.23053
H16 H 0.0813547 0.45461 0.221333
H17 H 0.178181 0.489943 0.201077
H18 H 0.0566407 0.492924 0.128083
H19 H 0.0128691 0.420309 0.16235
H20 H 0.156323 0.4344 0.174821
H21 H 0.128154 0.402811 0.131023
H22 H 0.200095 0.507015 0.140554
O2 O 0.9257(7) 0.6952(7) 0.0107(3)
O12 O 0.7778(7) 0.5554(6) 0.0436(3)
Zn8 Zn 0.94837(8) 0.47419(13) 0.26864(2)
O14 O 0.7705(16) 0.6891(9) 0.0123(4)
H29 H 0.786416 0.593893 0.0628971
H30 H 0.71927 0.511675 0.0429277
Zn1 Zn 0.80750(10) 0.61532(9) 0.99940(2)
Zn2 Zn 0.85916(10) 0.71830(8) 0.93531(2)
O1 O 0.9663(7) 0.7759(6) 0.9649(3)
C1 C 0.9737(8) 0.7593(9) 0.9955(4)
O11 O 0.9004(9) 0.8048(11) 0.8977(4)
O13 O 0.8180(10) 0.7785(6) 0.9626(2)
O15 O 0.8907(7) 0.6327(4) 0.92428(18)
O16 O 0.8553(11) 0.5550(6) 0.9697(2)
O17 O 0.7023(6) 0.5532(6) 0.9716(2)
O18 O 0.7436(6) 0.6318(6) 0.9234(2)
H33 H 0.950156 0.808986 0.886811
H34 H 0.857174 0.789401 0.87979
O2_2 O 0.3048(7) 0.2305(10) 0.0107(3)
C2_2 C 0.1791(5) 0.2295(7) 0.01265(18)
C4_2 C 0.0498(5) 0.2265(7) 0.0130(2)
C5_2 C 0.0658(5) 0.2590(6) 0.0463(2)
H2_2 H 0.0271 0.2691 0.0579
C6_2 C 0.1385(5) 0.2768(7) 0.06286(17)
C7_2 C 0.1952(5) 0.2621(7) 0.04602(19)
H3_2 H 0.2449 0.2743 0.0573
C9_2 C 0.1571(6) 0.3243(8) 0.0967(2)
C10_2 C 0.0972(5) 0.2836(8) 0.1219(3)
C11_2 C 0.1131(6) 0.3089(8) 0.1563(2)
H4_2 H 0.0722 0.2812 0.1735
C12_2 C 0.1889(6) 0.3749(8) 0.1656(2)
C13_2 C 0.2487(5) 0.4154(8) 0.1404(3)
C14_2 C 0.2329(6) 0.3902(8) 0.1060(2)
H5_2 H 0.2738 0.4180 0.0888
O5_2 O 0.3292(6) 0.4793(9) 0.1507(3)
C15_2 C 0.3847(8) 0.5643(12) 0.1648(4)
H6_2 H 0.4016 0.6054 0.1460
H7_2 H 0.3559 0.5778 0.1829
C16_2 C 0.4568(8) 0.5646(13) 0.1797(4)
H8_2 H 0.4420 0.5085 0.1878
C17_2 C 0.5273(9) 0.5963(13) 0.1527(4)
C18_2 C 0.4921(9) 0.6270(13) 0.2105(3)
C19_2 C 0.5475(10) 0.6924(14) 0.1495(4)
O6_2 O 0.0069(6) 0.2323(8) 0.1160(3)
O7_2 O 0.4086(6) 0.4426(7) 0.25761(18)
O8_2 O 0.3663(9) 0.4780(11) 0.3030(2)
C25_2 C 0.3544(11) 0.4510(13) 0.2759(3)
O9_2 O 0.1135(6) 0.4825(8) 0.3049(2)
O10_2 O 0.0349(6) 0.4452(8) 0.2567(2)
C26_2 C 0.0991(8) 0.4573(12) 0.2746(4)
C27_2 C 0.1947(5) 0.3917(8) 0.20607(16)
C28_2 C 0.1387(4) 0.4069(6) 0.22321(19)
H12_2 H 0.0911 0.3994 0.2114
C29_2 C 0.1524(4) 0.4331(6) 0.2575(2)
C30_2 C 0.2220(5) 0.4440(7) 0.27480(15)
H13_2 H 0.2313 0.4618 0.2983
C31_2 C 0.2779(4) 0.4286(6) 0.2576(2)
C32_2 C 0.2643(5) 0.4025(7) 0.2233(2)
H14_2 H 0.3025 0.3920 0.2116
O12_2 O 0.4446(6) 0.2224(9) 0.0436(3)
Zn5_2 Zn 0.47449(13) 0.52583(16) 0.33273(2)
Zn8_2 Zn 0.52581(13) 0.47417(15) 0.26864(2)
H15_2 H 0.445425 0.609454 0.23053
H16_2 H 0.54539 0.626745 0.221333
H17_2 H 0.510057 0.688237 0.201077
H18_2 H 0.507076 0.563717 0.128083
H19_2 H 0.579691 0.59256 0.16235
H20_2 H 0.5656 0.721923 0.174821
H21_2 H 0.597189 0.725343 0.131023
H22_2 H 0.492985 0.69308 0.140554
H29_2 H 0.406107 0.192523 0.0628971
H30_2 H 0.488325 0.207595 0.0429277
O1_2 O 0.2241(6) 0.1904(9) 0.9649(3)
C1_2 C 0.2407(9) 0.2144(12) 0.9955(4)
C3 C 0.1064(6) 0.2117(8) 0.99613(16)
H1 H 0.0954 0.1894 0.9733
O11_2 O 0.1952(11) 0.0956(14) 0.8977(4)
O15_2 O 0.3673(4) 0.2581(8) 0.92428(18)
O16_2 O 0.4450(6) 0.3004(13) 0.9697(2)
O17_2 O 0.4468(6) 0.1492(8) 0.9716(2)
O18_2 O 0.3682(6) 0.1119(8) 0.9234(2)
H33_2 H 0.191014 0.14117 0.886811
H34_2 H 0.210599 0.067773 0.87979
O4_2 O 0.9186(13) 0.2295(16) 0.0123(4)
C20_2 C 0.9535(9) 0.1875(14) 0.1455(4)
H9_2 H 0.9337 0.2211 0.1573
H10_2 H 0.9833 0.1728 0.1626
C21_2 C 0.8828(8) 0.1114(13) 0.1299(4)
H11_2 H 0.9060 0.0822 0.1166
C22_2 C 0.8149(10) 0.0486(14) 0.1535(4)
C23_2 C 0.8447(9) 0.1433(13) 0.1042(4)
C24_2 C 0.7300(8) 0.0519(12) 0.1383(4)
H23_2 H 0.720531 0.034792 0.110959
H24_2 H 0.676083 0.00922402 0.153111
H25_2 H 0.740024 0.113758 0.141277
H26_2 H 0.88999 0.180586 0.0846862
H27_2 H 0.792598 0.0918515 0.0916048
H28_2 H 0.824068 0.180441 0.117797
H31_2 H 0.826974 0.0667462 0.180685
C8_2 C 0.9669(16) 0.2103(20) 0.9974(4)
O3_2 O 0.9605(8) 0.1820(10) 0.9626(2)
Zn3_2 Zn 0.80782(13) 0.19250(16) 0.99940(2)
Zn6_2 Zn 0.85914(13) 0.14084(15) 0.93531(2)
O2_3 O 0.7695(10) 0.0743(7) 0.0107(3)
O12_3 O 0.7776(9) 0.2222(7) 0.0436(3)
H29_3 H 0.807477 0.213584 0.0628971
H30_3 H 0.792405 0.28073 0.0429277
O1_3 O 0.8096(9) 0.0337(7) 0.9649(3)
C1_3 C 0.7856(12) 0.0263(8) 0.9955(4)
O11_3 O 0.9044(14) 0.0996(9) 0.8977(4)
O15_3 O 0.7419(8) 0.1093(7) 0.92428(18)
O16_3 O 0.6996(13) 0.1447(11) 0.9697(2)
O17_3 O 0.8508(8) 0.2977(6) 0.9716(2)
O18_3 O 0.8881(8) 0.2564(6) 0.9234(2)
H33_3 H 0.85883 0.0498441 0.886811
H34_3 H 0.932227 0.142826 0.87979
C2_3 C 0.7705(7) 0.9496(5) 0.01265(18)
C4_3 C 0.7735(7) 0.8233(5) 0.0130(2)
C5_3 C 0.7410(6) 0.8068(4) 0.0463(2)
H2_3 H 0.7309 0.7580 0.0579
C6_3 C 0.7232(7) 0.8617(5) 0.06286(17)
C7_3 C 0.7379(7) 0.9331(5) 0.04602(19)
H3_3 H 0.7257 0.9706 0.0573
C9_3 C 0.6757(8) 0.8328(6) 0.0967(2)
C10_3 C 0.7164(8) 0.8136(6) 0.1219(3)
C11_3 C 0.6911(8) 0.8042(6) 0.1563(2)
H4_3 H 0.7188 0.7910 0.1735
C12_3 C 0.6251(8) 0.8140(6) 0.1656(2)
C13_3 C 0.5846(8) 0.8333(6) 0.1404(3)
C14_3 C 0.6098(8) 0.8427(6) 0.1060(2)
H5_3 H 0.5820 0.8558 0.0888
O5_3 O 0.5207(9) 0.8499(7) 0.1507(3)
C15_3 C 0.4357(12) 0.8204(9) 0.1648(4)
H6_3 H 0.3946 0.7962 0.1460
H7_3 H 0.4222 0.7781 0.1829
C16_3 C 0.4354(13) 0.8922(10) 0.1797(4)
H8_3 H 0.4915 0.9335 0.1878
C17_3 C 0.4037(13) 0.9310(9) 0.1527(4)
C18_3 C 0.3730(13) 0.8651(10) 0.2105(3)
C19_3 C 0.3076(14) 0.8551(10) 0.1495(4)
O6_3 O 0.7677(8) 0.7746(6) 0.1160(3)
C20_3 C 0.8125(14) 0.7660(11) 0.1455(4)
H9_3 H 0.7789 0.7126 0.1573
H10_3 H 0.8272 0.8105 0.1626
C21_3 C 0.8886(13) 0.7714(10) 0.1299(4)
H11_3 H 0.9178 0.8238 0.1166
C22_3 C 0.9514(14) 0.7663(10) 0.1535(4)
C23_3 C 0.8567(13) 0.7014(10) 0.1042(4)
C24_3 C 0.9481(12) 0.6781(9) 0.1383(4)
O7_3 O 0.5574(7) 0.9660(4) 0.25761(18)
O8_3 O 0.5220(11) 0.8883(6) 0.3030(2)
C25_3 C 0.5490(13) 0.9034(7) 0.2759(3)
O9_3 O 0.5175(8) 0.6310(6) 0.3049(2)
O10_3 O 0.5548(8) 0.5897(6) 0.2567(2)
C26_3 C 0.5427(12) 0.6418(9) 0.2746(4)
C27_3 C 0.6083(8) 0.8030(6) 0.20607(16)
C28_3 C 0.5931(6) 0.7318(5) 0.22321(19)
H12_3 H 0.6006 0.6917 0.2114
C29_3 C 0.5669(6) 0.7193(4) 0.2575(2)
C30_3 C 0.5560(7) 0.7780(5) 0.27480(15)
H13_3 H 0.5382 0.7695 0.2983
C31_3 C 0.5714(6) 0.8493(5) 0.2576(2)
C32_3 C 0.5975(7) 0.8618(5) 0.2233(2)
H14_3 H 0.6080 0.9105 0.2116
H15_3 H 0.390546 0.835971 0.23053
H16_3 H 0.373255 0.918645 0.221333
H17_3 H 0.311763 0.821819 0.201077
H18_3 H 0.436283 0.943359 0.128083
H19_3 H 0.40744 0.987131 0.16235
H20_3 H 0.278077 0.843677 0.174821
H21_3 H 0.274657 0.871846 0.131023
H22_3 H 0.30692 0.799905 0.140554
H23_3 H 0.965208 0.685739 0.110959
H24_3 H 0.990776 0.666859 0.153111
H25_3 H 0.886242 0.626266 0.141277
H26_3 H 0.819414 0.709403 0.0846862
H27_3 H 0.908148 0.700746 0.0916048
H28_3 H 0.819559 0.643627 0.117797
H31_3 H 0.933254 0.760227 0.180685
C3_2 C 0.7883(8) 0.8947(6) 0.99613(16)
H1_2 H 0.8106 0.9060 0.9733
C8_3 C 0.7897(20) 0.7566(12) 0.9974(4)
O9_4 O 0.0357(6) 0.2198(6) 0.6382(2)
O10_4 O 0.0770(6) 0.2984(6) 0.5900(2)
C26_4 C 0.0249(9) 0.2342(8) 0.6079(4)
Zn4_2 Zn 0.14083(10) 0.28199(9) 0.66607(2)
Zn7_2 Zn 0.19249(10) 0.38497(8) 0.60198(2)
H25_4 H 0.0404009 0.593309 0.47461
H28_4 H 0.0230394 0.509266 0.45113
O1_4 O 0.6330(7) 0.1092(6) 0.2982(3)
O2_4 O 0.5924(7) 0.0285(7) 0.3440(3)
C1_4 C 0.6404(8) 0.0926(9) 0.3288(4)
C2_4 C 0.7171(5) 0.1542(5) 0.34598(18)
C3_3 C 0.7720(6) 0.2269(6) 0.32946(16)
H1_3 H 0.7607 0.2379 0.3066
C4_4 C 0.8434(5) 0.2835(5) 0.3463(2)
C5_4 C 0.8599(4) 0.2675(5) 0.3796(2)
H2_4 H 0.9087 0.3062 0.3912
C6_4 C 0.8050(5) 0.1948(5) 0.39619(17)
C7_4 C 0.7336(5) 0.1381(5) 0.37935(19)
H3_4 H 0.6961 0.0884 0.3906
C8_4 C 0.9101(12) 0.3664(16) 0.3307(4)
O3_3 O 0.8882(6) 0.3728(8) 0.2959(2)
O4_3 O 0.9776(9) 0.4147(13) 0.3456(4)
C9_4 C 0.8339(6) 0.1762(6) 0.4300(2)
C10_4 C 0.8531(6) 0.2361(5) 0.4552(3)
C11_4 C 0.8625(6) 0.2202(6) 0.4896(2)
H4_4 H 0.8757 0.2611 0.5068
C12_4 C 0.8527(6) 0.1444(6) 0.4989(2)
C13_4 C 0.8334(6) 0.0846(5) 0.4737(3)
C14_4 C 0.8240(6) 0.1004(6) 0.4393(2)
H5_4 H 0.8109 0.0595 0.4221
O5_4 O 0.8168(7) 0.0041(6) 0.4840(3)
O6_4 O 0.8921(6) 0.3264(6) 0.4493(3)
C20_4 C 0.9007(11) 0.3798(9) 0.4788(4)
H9_4 H 0.9541 0.3996 0.4906
H10_4 H 0.8562 0.3500 0.4959
C21_4 C 0.8953(10) 0.4505(8) 0.4632(4)
H11_4 H 0.8429 0.4273 0.4499
C22_4 C 0.9004(10) 0.5184(10) 0.4868(4)
C23_4 C 0.9653(10) 0.4886(9) 0.4375(4)
C24_4 C 0.9886(9) 0.6033(8) 0.4716(4)
C27_4 C 0.8637(6) 0.1386(5) 0.53940(16)
C28_4 C 0.9349(5) 0.1946(4) 0.55654(19)
H12_4 H 0.9750 0.2422 0.5447
C29_4 C 0.9474(4) 0.1809(4) 0.5908(2)
C30_4 C 0.8887(5) 0.1113(5) 0.60813(15)
H13_4 H 0.8972 0.1020 0.6316
C31_4 C 0.8174(5) 0.0554(4) 0.5909(2)
C32_4 C 0.8049(5) 0.0690(5) 0.5566(2)
H14_4 H 0.7562 0.0308 0.5449
O11_4 O 0.5671(9) 0.1381(11) 0.2310(4)
O13_2 O 0.4847(10) 0.1118(6) 0.2959(2)
O14_2 O 0.4372(16) 0.0224(9) 0.3456(4)
H23_4 H 0.980928 0.612803 0.444292
H24_4 H 0.999807 0.65725 0.486444
H26_4 H 0.957263 0.443344 0.418019
H27_4 H 0.96592 0.540735 0.424938
H31_4 H 0.906439 0.50636 0.514018
H32_2 H 0.846966 0.525853 0.4837
H33_4 H 0.616823 0.14232 0.220145
H34_4 H 0.523841 0.122734 0.213123
C15_4 C 0.8463(9) 0.9486(8) 0.4981(4)
H6_4 H 0.8705 0.9317 0.4793
H7_4 H 0.8886 0.9774 0.5162
C16_4 C 0.7745(10) 0.8765(8) 0.5130(4)
H8_4 H 0.7332 0.8913 0.5211
C17_4 C 0.7357(9) 0.8060(9) 0.4860(4)
C18_4 C 0.8016(10) 0.8412(9) 0.5438(3)
C19_4 C 0.8116(10) 0.7858(10) 0.4828(4)
O7_4 O 0.7007(4) 0.9247(6) 0.59094(18)
O8_4 O 0.7784(6) 0.9670(9) 0.6363(2)
C25_4 C 0.7633(7) 0.9789(11) 0.6092(3)
O12_4 O 0.4445(7) 0.8887(6) 0.3769(3)
Zn5_3 Zn 0.71801(9) 0.85885(13) 0.66607(2)
Zn8_3 Zn 0.61503(8) 0.80753(13) 0.60198(2)
H15_4 H 0.830695 0.887908 0.563863
H16_4 H 0.748021 0.787943 0.554666
H17_4 H 0.844847 0.823277 0.53441
H18_4 H 0.723307 0.826257 0.461416
H19_4 H 0.679536 0.753642 0.495684
H20_4 H 0.82299 0.767734 0.508154
H21_4 H 0.794821 0.736145 0.464356
H22_4 H 0.866762 0.840349 0.473887
H29_4 H 0.453083 0.927227 0.39623
H30_4 H 0.385937 0.845008 0.376261
C15_5 C 0.0514(8) 0.8976(12) 0.4981(4)
H6_5 H 0.0683 0.9387 0.4793
H7_5 H 0.0226 0.9111 0.5162
C16_5 C 0.1235(8) 0.8979(13) 0.5130(4)
H8_5 H 0.1087 0.8418 0.5211
C17_5 C 0.1940(9) 0.9296(13) 0.4860(4)
C18_5 C 0.1588(9) 0.9603(13) 0.5438(3)
O7_5 O 0.0753(6) 0.7759(7) 0.59094(18)
O8_5 O 0.0330(9) 0.8113(11) 0.6363(2)
C25_5 C 0.0211(11) 0.7843(13) 0.6092(3)
O12_5 O 0.1113(6) 0.5557(9) 0.3769(3)
Zn5_4 Zn 0.14115(13) 0.85917(16) 0.66607(2)
Zn8_4 Zn 0.19247(13) 0.80751(15) 0.60198(2)
H15_5 H 0.112092 0.942787 0.563863
H16_5 H 0.212057 0.960078 0.554666
H18_5 H 0.173743 0.89705 0.461416
H19_5 H 0.246358 0.925893 0.495684
H29_5 H 0.0727732 0.525856 0.39623
H30_5 H 0.154992 0.540929 0.376261
O1_5 O 0.8908(6) 0.5237(9) 0.2982(3)
O2_5 O 0.9715(7) 0.5638(10) 0.3440(3)
C1_5 C 0.9074(9) 0.5477(12) 0.3288(4)
C2_5 C 0.8458(5) 0.5628(7) 0.34598(18)
C3_4 C 0.7731(6) 0.5450(8) 0.32946(16)
H1_4 H 0.7621 0.5227 0.3066
C4_5 C 0.7165(5) 0.5598(7) 0.3463(2)
C5_5 C 0.7325(5) 0.5923(6) 0.3796(2)
H2_5 H 0.6938 0.6024 0.3912
C6_5 C 0.8052(5) 0.6101(7) 0.39619(17)
C7_5 C 0.8619(5) 0.5954(7) 0.37935(19)
H3_5 H 0.9116 0.6076 0.3906
C8_5 C 0.6336(16) 0.5436(20) 0.3307(4)
O3_4 O 0.6272(8) 0.5153(10) 0.2959(2)
O4_4 O 0.5853(13) 0.5628(16) 0.3456(4)
C9_5 C 0.8238(6) 0.6576(8) 0.4300(2)
C10_5 C 0.7639(5) 0.6169(8) 0.4552(3)
C11_5 C 0.7798(6) 0.6422(8) 0.4896(2)
H4_5 H 0.7389 0.6145 0.5068
C12_5 C 0.8556(6) 0.7082(8) 0.4989(2)
C13_5 C 0.9154(5) 0.7487(8) 0.4737(3)
C14_5 C 0.8996(6) 0.7235(8) 0.4393(2)
H5_5 H 0.9405 0.7513 0.4221
O5_5 O 0.9959(6) 0.8126(9) 0.4840(3)
O6_5 O 0.6736(6) 0.5656(8) 0.4493(3)
C20_5 C 0.6202(9) 0.5208(14) 0.4788(4)
H9_5 H 0.6004 0.5544 0.4906
H10_5 H 0.6500 0.5061 0.4959
C21_5 C 0.5495(8) 0.4447(13) 0.4632(4)
H11_5 H 0.5727 0.4155 0.4499
C22_5 C 0.4816(10) 0.3819(14) 0.4868(4)
C23_5 C 0.5114(9) 0.4766(13) 0.4375(4)
C24_5 C 0.3967(8) 0.3852(12) 0.4716(4)
O9_5 O 0.7802(6) 0.8158(8) 0.6382(2)
O10_5 O 0.7016(6) 0.7785(8) 0.5900(2)
C26_5 C 0.7658(8) 0.7906(12) 0.6079(4)
C27_5 C 0.8614(5) 0.7250(8) 0.53940(16)
C28_5 C 0.8054(4) 0.7402(6) 0.55654(19)
H12_5 H 0.7578 0.7327 0.5447
C29_5 C 0.8191(4) 0.7664(6) 0.5908(2)
C30_5 C 0.8887(5) 0.7773(7) 0.60813(15)
H13_5 H 0.8980 0.7951 0.6316
C31_5 C 0.9446(4) 0.7619(6) 0.5909(2)
C32_5 C 0.9310(5) 0.7358(7) 0.5566(2)
H14_5 H 0.9692 0.7253 0.5449
O11_5 O 0.8619(11) 0.4289(14) 0.2310(4)
H23_5 H 0.387197 0.368125 0.444292
H24_5 H 0.34275 0.342557 0.486444
H25_5 H 0.406691 0.447091 0.47461
H26_5 H 0.556656 0.51392 0.418019
H27_5 H 0.459265 0.425185 0.424938
H28_5 H 0.490734 0.513774 0.45113
H31_5 H 0.49364 0.40008 0.514018
H32_3 H 0.474147 0.321113 0.4837
H33_5 H 0.85768 0.474503 0.220145
H34_5 H 0.877266 0.401106 0.213123
O1_6 O 0.4763(9) 0.3670(7) 0.2982(3)
O2_6 O 0.4362(10) 0.4076(7) 0.3440(3)
C1_6 C 0.4523(12) 0.3596(8) 0.3288(4)
C2_6 C 0.4372(7) 0.2829(5) 0.34598(18)
C3_5 C 0.4550(8) 0.2280(6) 0.32946(16)
H1_5 H 0.4773 0.2393 0.3066
C4_6 C 0.4402(7) 0.1566(5) 0.3463(2)
C5_6 C 0.4077(6) 0.1401(4) 0.3796(2)
H2_6 H 0.3976 0.0913 0.3912
C6_6 C 0.3899(7) 0.1950(5) 0.39619(17)
C7_6 C 0.4046(7) 0.2664(5) 0.37935(19)
H3_6 H 0.3924 0.3039 0.3906
C8_6 C 0.4564(20) 0.0899(12) 0.3307(4)
C9_6 C 0.3424(8) 0.1661(6) 0.4300(2)
C10_6 C 0.3831(8) 0.1469(6) 0.4552(3)
C11_6 C 0.3578(8) 0.1375(6) 0.4896(2)
H4_6 H 0.3855 0.1243 0.5068
C12_6 C 0.2918(8) 0.1473(6) 0.4989(2)
C13_6 C 0.2513(8) 0.1666(6) 0.4737(3)
C14_6 C 0.2765(8) 0.1760(6) 0.4393(2)
H5_6 H 0.2487 0.1891 0.4221
O5_6 O 0.1874(9) 0.1832(7) 0.4840(3)
C15_6 C 0.1024(12) 0.1537(9) 0.4981(4)
H6_6 H 0.0613 0.1295 0.4793
H7_6 H 0.0889 0.1114 0.5162
C16_6 C 0.1021(13) 0.2255(10) 0.5130(4)
H8_6 H 0.1582 0.2668 0.5211
C17_6 C 0.0704(13) 0.2643(9) 0.4860(4)
C18_6 C 0.0397(13) 0.1984(10) 0.5438(3)
O6_6 O 0.4344(8) 0.1079(6) 0.4493(3)
C20_6 C 0.4792(14) 0.0993(11) 0.4788(4)
H9_6 H 0.4456 0.0459 0.4906
H10_6 H 0.4939 0.1438 0.4959
C21_6 C 0.5553(13) 0.1047(10) 0.4632(4)
H11_6 H 0.5845 0.1571 0.4499
C22_6 C 0.6181(14) 0.0996(10) 0.4868(4)
C23_6 C 0.5234(13) 0.0347(10) 0.4375(4)
C24_6 C 0.6148(12) 0.0114(9) 0.4716(4)
O7_6 O 0.2241(7) 0.2993(4) 0.59094(18)
O8_6 O 0.1887(11) 0.2216(6) 0.6363(2)
C25_6 C 0.2157(13) 0.2367(7) 0.6092(3)
C27_6 C 0.2750(8) 0.1363(6) 0.53940(16)
C28_6 C 0.2598(6) 0.0651(5) 0.55654(19)
H12_6 H 0.2673 0.0250 0.5447
C29_6 C 0.2336(6) 0.0526(4) 0.5908(2)
C30_6 C 0.2227(7) 0.1113(5) 0.60813(15)
H13_6 H 0.2049 0.1028 0.6316
C31_6 C 0.2381(6) 0.1826(5) 0.5909(2)
C32_6 C 0.2642(7) 0.1951(5) 0.5566(2)
H14_6 H 0.2747 0.2438 0.5449
O11_6 O 0.5711(14) 0.4329(9) 0.2310(4)
O12_6 O 0.4443(9) 0.5555(7) 0.3769(3)
H15_6 H 0.0572128 0.169305 0.563863
H16_6 H 0.0399216 0.251979 0.554666
H18_6 H 0.10295 0.276693 0.461416
H19_6 H 0.0741067 0.320464 0.495684
H23_6 H 0.631875 0.019072 0.444292
H24_6 H 0.657443 0.000192724 0.486444
H26_6 H 0.48608 0.0427365 0.418019
H27_6 H 0.574815 0.0340798 0.424938
H29_6 H 0.474144 0.546917 0.39623
H30_6 H 0.459071 0.614063 0.376261
H31_6 H 0.59992 0.0935608 0.514018
H32_4 H 0.678887 0.153034 0.4837
H33_6 H 0.525497 0.383177 0.220145
H34_6 H 0.598894 0.476159 0.213123
O9_6 O 0.1842(8) 0.9643(6) 0.6382(2)
O10_6 O 0.2215(8) 0.9230(6) 0.5900(2)
C26_6 C 0.2094(12) 0.9751(9) 0.6079(4)
H25_6 H 0.552909 0.959599 0.47461
H28_6 H 0.486226 0.976961 0.45113
O1_7 O 0.2996(7) 0.4426(6) 0.6316(3)
O2_7 O 0.2590(7) 0.3619(7) 0.6774(3)
C1_7 C 0.3070(8) 0.4260(9) 0.6622(4)
C2_7 C 0.3837(5) 0.4876(5) 0.67932(18)
C3_6 C 0.4386(6) 0.5603(6) 0.66280(16)
H1_6 H 0.4273 0.5713 0.6400
C4_7 C 0.5100(5) 0.6169(5) 0.6797(2)
C5_7 C 0.5265(4) 0.6009(5) 0.7130(2)
H2_7 H 0.5753 0.6396 0.7246
C6_7 C 0.4716(5) 0.5282(5) 0.72953(17)
C7_7 C 0.4002(5) 0.4715(5) 0.71269(19)
H3_7 H 0.3627 0.4218 0.7240
C8_7 C 0.5767(12) 0.6998(16) 0.6641(4)
O3_5 O 0.5548(6) 0.7062(8) 0.6293(2)
O4_5 O 0.6442(9) 0.7481(13) 0.6790(4)
C9_7 C 0.5005(6) 0.5096(6) 0.7634(2)
C10_7 C 0.5197(6) 0.5695(5) 0.7886(3)
C11_7 C 0.5291(6) 0.5536(6) 0.8230(2)
H4_7 H 0.5423 0.5945 0.8402
C12_7 C 0.5193(6) 0.4778(6) 0.8323(2)
C13_7 C 0.5000(6) 0.4180(5) 0.8071(3)
C14_7 C 0.4906(6) 0.4338(6) 0.7727(2)
H5_7 H 0.4775 0.3929 0.7555
O5_7 O 0.4834(7) 0.3375(6) 0.8174(3)
C15_7 C 0.5129(9) 0.2820(8) 0.8315(4)
H6_7 H 0.5371 0.2651 0.8127
H7_7 H 0.5552 0.3108 0.8496
C16_7 C 0.4411(10) 0.2099(8) 0.8464(4)
H8_7 H 0.3998 0.2247 0.8545
C17_7 C 0.4023(9) 0.1394(9) 0.8194(4)
C18_7 C 0.4682(10) 0.1746(9) 0.8772(3)
C19_5 C 0.4782(10) 0.1192(10) 0.8162(4)
O6_7 O 0.5587(6) 0.6598(6) 0.7827(3)
C20_7 C 0.5673(11) 0.7132(9) 0.8122(4)
H9_7 H 0.6207 0.7330 0.8240
H10_7 H 0.5228 0.6834 0.8293
C21_7 C 0.5619(10) 0.7839(8) 0.7966(4)
H11_7 H 0.5095 0.7607 0.7833
C22_7 C 0.5670(10) 0.8518(10) 0.8202(4)
C23_7 C 0.6319(10) 0.8220(9) 0.7709(4)
C24_7 C 0.6552(9) 0.9367(8) 0.8050(4)
C25_7 C 0.4299(7) 0.3123(11) 0.9426(3)
C26_7 C 0.6915(9) 0.5676(8) 0.9413(4)
C27_7 C 0.5303(6) 0.4720(5) 0.87274(16)
C28_7 C 0.6015(5) 0.5280(4) 0.88988(19)
H12_7 H 0.6416 0.5756 0.8781
C29_7 C 0.6140(4) 0.5143(4) 0.9242(2)
C30_7 C 0.5553(5) 0.4447(5) 0.94147(15)
H13_7 H 0.5638 0.4354 0.9650
C31_7 C 0.4840(5) 0.3888(4) 0.9243(2)
C32_7 C 0.4715(5) 0.4024(5) 0.8900(2)
H14_7 H 0.4228 0.3642 0.8783
O11_7 O 0.2337(9) 0.4715(11) 0.5644(4)
O12_7 O 0.1111(7) 0.2221(6) 0.7103(3)
O13_3 O 0.1513(10) 0.4452(6) 0.6293(2)
O14_3 O 0.1038(16) 0.3558(9) 0.6790(4)
H15_7 H 0.497362 0.221242 0.897197
H16_7 H 0.414688 0.121276 0.888
H17_5 H 0.511514 0.15661 0.867743
H18_7 H 0.389974 0.159591 0.79475
H19_7 H 0.346202 0.0869758 0.829017
H20_5 H 0.489657 0.101067 0.841488
H21_5 H 0.461488 0.069478 0.79769
H22_5 H 0.533428 0.173682 0.80722
H23_7 H 0.647595 0.946136 0.777626
H24_7 H 0.666474 0.990583 0.819777
H25_7 H 0.707068 0.926643 0.807943
H26_7 H 0.62393 0.776677 0.751353
H27_7 H 0.632587 0.874069 0.758271
H28_7 H 0.689706 0.842599 0.784463
H29_7 H 0.119749 0.26056 0.729564
H30_7 H 0.0526035 0.178341 0.709594
H31_7 H 0.573106 0.839693 0.847351
H32_5 H 0.513633 0.859186 0.817034
H33_7 H 0.283489 0.475653 0.553478
H34_7 H 0.190507 0.456068 0.546457
C12_8 C 0.5222(6) 0.0416(8) 0.8323(2)
C13_8 C 0.5820(5) 0.0821(8) 0.8071(3)
C14_8 C 0.5662(6) 0.0569(8) 0.7727(2)
H5_8 H 0.6071 0.0847 0.7555
O5_8 O 0.6625(6) 0.1460(9) 0.8174(3)
C15_8 C 0.7180(8) 0.2310(12) 0.8315(4)
H6_8 H 0.7349 0.2721 0.8127
H7_8 H 0.6892 0.2445 0.8496
C16_8 C 0.7901(8) 0.2313(13) 0.8464(4)
H8_8 H 0.7753 0.1752 0.8545
C17_8 C 0.8606(9) 0.2630(13) 0.8194(4)
C18_8 C 0.8254(9) 0.2937(13) 0.8772(3)
C19_6 C 0.8808(10) 0.3591(14) 0.8162(4)
C25_8 C 0.6877(11) 0.1177(13) 0.9426(3)
C26_8 C 0.4324(8) 0.1240(12) 0.9413(4)
C27_8 C 0.5280(5) 0.0584(8) 0.87274(16)
C28_8 C 0.4720(4) 0.0736(6) 0.88988(19)
H12_8 H 0.4244 0.0661 0.8781
C29_8 C 0.4857(4) 0.0998(6) 0.9242(2)
C30_8 C 0.5553(5) 0.1107(7) 0.94147(15)
H13_8 H 0.5646 0.1285 0.9650
C31_8 C 0.6112(4) 0.0953(6) 0.9243(2)
C32_8 C 0.5976(5) 0.0692(7) 0.8900(2)
H14_8 H 0.6358 0.0587 0.8783
H15_8 H 0.778758 0.27612 0.897197
H16_8 H 0.878724 0.293412 0.888
H17_6 H 0.84339 0.354904 0.867743
H18_8 H 0.840409 0.230383 0.79475
H19_8 H 0.913024 0.259227 0.829017
H20_6 H 0.898933 0.38859 0.841488
H21_6 H 0.930522 0.39201 0.79769
H22_6 H 0.826318 0.359746 0.80722
O1_8 O 0.5574(6) 0.8571(9) 0.6316(3)
O2_8 O 0.6381(7) 0.8972(10) 0.6774(3)
C1_8 C 0.5740(9) 0.8811(12) 0.6622(4)
C2_8 C 0.5124(5) 0.8962(7) 0.67932(18)
C3_7 C 0.4397(6) 0.8784(8) 0.66280(16)
H1_7 H 0.4287 0.8561 0.6400
C4_8 C 0.3831(5) 0.8932(7) 0.6797(2)
C5_8 C 0.3991(5) 0.9257(6) 0.7130(2)
H2_8 H 0.3604 0.9358 0.7246
C6_8 C 0.4718(5) 0.9435(7) 0.72953(17)
C7_8 C 0.5285(5) 0.9288(7) 0.71269(19)
H3_8 H 0.5782 0.9410 0.7240
C8_8 C 0.3002(16) 0.8770(20) 0.6641(4)
O3_6 O 0.2938(8) 0.8487(10) 0.6293(2)
O4_6 O 0.2519(13) 0.8962(16) 0.6790(4)
C9_8 C 0.4904(6) 0.9910(8) 0.7634(2)
C10_8 C 0.4305(5) 0.9503(8) 0.7886(3)
C11_8 C 0.4464(6) 0.9756(8) 0.8230(2)
H4_8 H 0.4055 0.9479 0.8402
O6_8 O 0.3402(6) 0.8990(8) 0.7827(3)
C20_8 C 0.2868(9) 0.8542(14) 0.8122(4)
H9_8 H 0.2670 0.8878 0.8240
H10_8 H 0.3166 0.8395 0.8293
C21_8 C 0.2161(8) 0.7781(13) 0.7966(4)
H11_8 H 0.2393 0.7489 0.7833
C22_8 C 0.1482(10) 0.7153(14) 0.8202(4)
C23_8 C 0.1780(9) 0.8100(13) 0.7709(4)
C24_8 C 0.0633(8) 0.7186(12) 0.8050(4)
O11_8 O 0.5285(11) 0.7623(14) 0.5644(4)
O12_8 O 0.7779(6) 0.8891(9) 0.7103(3)
H23_8 H 0.053864 0.701459 0.777626
H24_8 H 0.00941674 0.675891 0.819777
H25_8 H 0.0733573 0.780425 0.807943
H26_8 H 0.223323 0.847253 0.751353
H27_8 H 0.125931 0.758518 0.758271
H28_8 H 0.157401 0.847107 0.784463
H29_8 H 0.73944 0.859189 0.729564
H30_8 H 0.821659 0.874262 0.709594
H31_8 H 0.160307 0.733413 0.847351
H32_6 H 0.140814 0.654447 0.817034
H33_8 H 0.524347 0.807836 0.553478
H34_8 H 0.543932 0.73444 0.546457
O1_9 O 0.1429(9) 0.7004(7) 0.6316(3)
O2_9 O 0.1028(10) 0.7410(7) 0.6774(3)
C1_9 C 0.1189(12) 0.6930(8) 0.6622(4)
C2_9 C 0.1038(7) 0.6163(5) 0.67932(18)
C3_8 C 0.1216(8) 0.5614(6) 0.66280(16)
H1_8 H 0.1439 0.5727 0.6400
C4_9 C 0.1068(7) 0.4900(5) 0.6797(2)
C5_9 C 0.0743(6) 0.4735(4) 0.7130(2)
H2_9 H 0.0642 0.4247 0.7246
C6_9 C 0.0565(7) 0.5284(5) 0.72953(17)
C7_9 C 0.0712(7) 0.5998(5) 0.71269(19)
H3_9 H 0.0590 0.6373 0.7240
C8_9 C 0.1230(20) 0.4233(12) 0.6641(4)
C9_9 C 0.0090(8) 0.4995(6) 0.7634(2)
C10_9 C 0.0497(8) 0.4803(6) 0.7886(3)
C11_9 C 0.0244(8) 0.4709(6) 0.8230(2)
H4_9 H 0.0521 0.4577 0.8402
O6_9 O 0.1010(8) 0.4413(6) 0.7827(3)
C20_9 C 0.1458(14) 0.4327(11) 0.8122(4)
H9_9 H 0.1122 0.3793 0.8240
H10_9 H 0.1605 0.4772 0.8293
C21_9 C 0.2219(13) 0.4381(10) 0.7966(4)
H11_9 H 0.2511 0.4905 0.7833
C22_9 C 0.2847(14) 0.4330(10) 0.8202(4)
C23_9 C 0.1900(13) 0.3681(10) 0.7709(4)
C24_9 C 0.2814(12) 0.3448(9) 0.8050(4)
O11_9 O 0.2377(14) 0.7663(9) 0.5644(4)
O12_9 O 0.1109(9) 0.8889(7) 0.7103(3)
H23_9 H 0.298541 0.352405 0.777626
H24_9 H 0.324109 0.333526 0.819777
H25_9 H 0.219575 0.292932 0.807943
H26_9 H 0.152747 0.37607 0.751353
H27_9 H 0.241482 0.367413 0.758271
H28_9 H 0.152893 0.310294 0.784463
H29_9 H 0.140811 0.880251 0.729564
H30_9 H 0.125738 0.947397 0.709594
H31_9 H 0.266587 0.426894 0.847351
H32_7 H 0.345553 0.486367 0.817034
H33_9 H 0.192164 0.716511 0.553478
H34_9 H 0.26556 0.809493 0.546457
C12_9 C 0.9584(8) 0.4807(6) 0.8323(2)
C13_9 C 0.9179(8) 0.5000(6) 0.8071(3)
C14_9 C 0.9431(8) 0.5094(6) 0.7727(2)
H5_9 H 0.9153 0.5225 0.7555
O5_9 O 0.8540(9) 0.5166(7) 0.8174(3)
C15_9 C 0.7690(12) 0.4871(9) 0.8315(4)
H6_9 H 0.7279 0.4629 0.8127
H7_9 H 0.7555 0.4448 0.8496
C16_9 C 0.7687(13) 0.5589(10) 0.8464(4)
H8_9 H 0.8248 0.6002 0.8545
C17_9 C 0.7370(13) 0.5977(9) 0.8194(4)
C18_9 C 0.7063(13) 0.5318(10) 0.8772(3)
C19_7 C 0.6409(14) 0.5218(10) 0.8162(4)
C25_9 C 0.8823(13) 0.5701(7) 0.9426(3)
C26_9 C 0.8760(12) 0.3085(9) 0.9413(4)
C27_9 C 0.9416(8) 0.4697(6) 0.87274(16)
C28_9 C 0.9264(6) 0.3985(5) 0.88988(19)
H12_9 H 0.9339 0.3584 0.8781
C29_9 C 0.9002(6) 0.3860(4) 0.9242(2)
C30_9 C 0.8893(7) 0.4447(5) 0.94147(15)
H13_9 H 0.8715 0.4362 0.9650
C31_9 C 0.9047(6) 0.5160(5) 0.9243(2)
C32_9 C 0.9308(7) 0.5285(5) 0.8900(2)
H14_9 H 0.9413 0.5772 0.8783
H15_9 H 0.72388 0.502638 0.897197
H16_9 H 0.706588 0.585312 0.888
H17_7 H 0.645096 0.488486 0.867743
H18_9 H 0.769617 0.610026 0.79475
H19_9 H 0.740773 0.653798 0.829017
H20_7 H 0.61141 0.510343 0.841488
H21_7 H 0.60799 0.538512 0.79769
H22_7 H 0.640254 0.466572 0.80722
C3_9 C 0.1053(6) 0.8936(6) 0.99613(16)
H1_9 H 0.0940 0.9046 0.9733
H32_8 H 0.80748 0.98778 0.150367
H32_9 H 0.0122199 0.8197 0.150367
C19_8 C 0.2142(10) 0.0257(14) 0.4828(4)
H17_8 H 0.176723 0.0215707 0.53441
H20_8 H 0.232266 0.0552562 0.508154
H21_8 H 0.263855 0.0586763 0.464356
H22_8 H 0.159651 0.026413 0.473887
C19_9 C 0.9743(14) 0.1884(10) 0.4828(4)
H17_9 H 0.978429 0.155153 0.53441
H20_9 H 0.944744 0.17701 0.508154
H21_9 H 0.941324 0.205179 0.464356
H22_9 H 0.973587 0.133238 0.473887
loop_
_geom_bond_atom_site_label_1
_geom_bond_atom_site_label_2
_geom_bond_site_symmetry_1
_geom_bond_site_symmetry_2
H9 C20 1_555 1_555
H10 C20 1_555 1_555
C21 C20 1_555 1_555
H11 C21 1_555 1_555
C22 C21 1_555 1_555
C23 C21 1_555 1_555
C24 C22 1_555 1_555
C24 H23 1_555 1_555
C24 H24 1_555 1_555
C24 H25 1_555 1_555
C23 H26 1_555 1_555
C23 H27 1_555 1_555
C23 H28 1_555 1_555
C22 H31 1_555 1_555
C22 H32 1_555 1_555
O3 C8 1_555 1_555
Zn6 O3 1_555 1_555
C5 C4 1_555 1_555
H2 C5 1_555 1_555
C6 C5 1_555 1_555
C7 C2 1_555 1_555
H3 C7 1_555 1_555
C9 C6 1_555 1_555
C10 C9 1_555 1_555
C11 C10 1_555 1_555
H4 C11 1_555 1_555
C12 C11 1_555 1_555
C13 C12 1_555 1_555
C14 C9 1_555 1_555
H5 C14 1_555 1_555
O5 C13 1_555 1_555
C15 O5 1_555 1_555
H6 C15 1_555 1_555
H7 C15 1_555 1_555
C16 C15 1_555 1_555
H8 C16 1_555 1_555
C17 C16 1_555 1_555
C18 C16 1_555 1_555
C19 C17 1_555 1_555
O6 C10 1_555 1_555
O7 C25 1_555 1_555
O8 C25 1_555 1_555
C25 C31 1_555 1_555
O9 C26 1_555 1_555
O10 C26 1_555 1_555
C26 C29 1_555 1_555
C27 C12 1_555 1_555
C28 C27 1_555 1_555
H12 C28 1_555 1_555
C29 C28 1_555 1_555
C30 C29 1_555 1_555
H13 C30 1_555 1_555
C31 C30 1_555 1_555
C32 C27 1_555 1_555
H14 C32 1_555 1_555
Zn4 O9 1_555 1_555
Zn5 O8 1_555 1_555
C6 C7 1_555 1_555
C13 C14 1_555 1_555
C31 C32 1_555 1_555
C18 H15 1_555 1_555
C18 H16 1_555 1_555
C18 H17 1_555 1_555
C17 H18 1_555 1_555
C17 H19 1_555 1_555
C19 H20 1_555 1_555
C19 H21 1_555 1_555
C19 H22 1_555 1_555
O12 H29 1_555 1_555
O12 H30 1_555 1_555
Zn2 O1 1_555 1_555
O1 C1 1_555 1_555
O11 Zn2 1_555 1_555
O13 Zn2 1_555 1_555
O15 Zn2 1_555 1_555
O16 Zn1 1_555 1_555
O17 Zn1 1_555 1_555
O18 Zn2 1_555 1_555
O11 H33 1_555 1_555
O11 H34 1_555 1_555
C5_2 C4_2 1_555 1_555
H2_2 C5_2 1_555 1_555
C6_2 C5_2 1_555 1_555
C7_2 C2_2 1_555 1_555
H3_2 C7_2 1_555 1_555
C9_2 C6_2 1_555 1_555
C10_2 C9_2 1_555 1_555
C11_2 C10_2 1_555 1_555
H4_2 C11_2 1_555 1_555
C12_2 C11_2 1_555 1_555
C13_2 C12_2 1_555 1_555
C14_2 C9_2 1_555 1_555
H5_2 C14_2 1_555 1_555
O5_2 C13_2 1_555 1_555
C15_2 O5_2 1_555 1_555
H6_2 C15_2 1_555 1_555
H7_2 C15_2 1_555 1_555
C16_2 C15_2 1_555 1_555
H8_2 C16_2 1_555 1_555
C17_2 C16_2 1_555 1_555
C18_2 C16_2 1_555 1_555
C19_2 C17_2 1_555 1_555
O6_2 C10_2 1_555 1_555
O7_2 C25_2 1_555 1_555
O8_2 C25_2 1_555 1_555
C25_2 C31_2 1_555 1_555
O9_2 C26_2 1_555 1_555
O10_2 C26_2 1_555 1_555
C26_2 C29_2 1_555 1_555
C27_2 C12_2 1_555 1_555
C28_2 C27_2 1_555 1_555
H12_2 C28_2 1_555 1_555
C29_2 C28_2 1_555 1_555
C30_2 C29_2 1_555 1_555
H13_2 C30_2 1_555 1_555
C31_2 C30_2 1_555 1_555
C32_2 C27_2 1_555 1_555
H14_2 C32_2 1_555 1_555
Zn5 O9_2 1_555 1_555
Zn5_2 O8_2 1_555 1_555
Zn8_2 O7_2 1_555 1_555
C6_2 C7_2 1_555 1_555
C13_2 C14_2 1_555 1_555
C31_2 C32_2 1_555 1_555
C18_2 H15_2 1_555 1_555
C18_2 H16_2 1_555 1_555
C18_2 H17_2 1_555 1_555
C17_2 H18_2 1_555 1_555
C17_2 H19_2 1_555 1_555
C19_2 H20_2 1_555 1_555
C19_2 H21_2 1_555 1_555
C19_2 H22_2 1_555 1_555
O12_2 H29_2 1_555 1_555
O12_2 H30_2 1_555 1_555
Zn6 O1_2 1_555 1_555
O1_2 C1_2 1_555 1_555
C3 H1 1_555 1_555
O11_2 Zn6 1_555 1_555
O15_2 Zn6 1_555 1_555
O16_2 Zn3 1_555 1_555
O17_2 Zn3 1_555 1_555
O18_2 Zn6 1_555 1_555
O11_2 H33_2 1_555 1_555
O11_2 H34_2 1_555 1_555
H9_2 C20_2 1_555 1_555
H10_2 C20_2 1_555 1_555
C21_2 C20_2 1_555 1_555
H11_2 C21_2 1_555 1_555
C22_2 C21_2 1_555 1_555
C23_2 C21_2 1_555 1_555
C24_2 C22_2 1_555 1_555
C24_2 H23_2 1_555 1_555
C24_2 H24_2 1_555 1_555
C24_2 H25_2 1_555 1_555
C23_2 H26_2 1_555 1_555
C23_2 H27_2 1_555 1_555
C23_2 H28_2 1_555 1_555
C22_2 H31_2 1_555 1_555
O3_2 C8_2 1_555 1_555
Zn6_2 O3_2 1_555 1_555
O12_3 H29_3 1_555 1_555
O12_3 H30_3 1_555 1_555
Zn6_2 O1_3 1_555 1_555
O1_3 C1_3 1_555 1_555
O11_3 Zn6_2 1_555 1_555
O15_3 Zn6_2 1_555 1_555
O16_3 Zn3_2 1_555 1_555
O17_3 Zn3_2 1_555 1_555
O18_3 Zn6_2 1_555 1_555
O11_3 H33_3 1_555 1_555
O11_3 H34_3 1_555 1_555
C5_3 C4_3 1_555 1_555
H2_3 C5_3 1_555 1_555
C6_3 C5_3 1_555 1_555
C7_3 C2_3 1_555 1_555
H3_3 C7_3 1_555 1_555
C9_3 C6_3 1_555 1_555
C10_3 C9_3 1_555 1_555
C11_3 C10_3 1_555 1_555
H4_3 C11_3 1_555 1_555
C12_3 C11_3 1_555 1_555
C13_3 C12_3 1_555 1_555
C14_3 C9_3 1_555 1_555
H5_3 C14_3 1_555 1_555
O5_3 C13_3 1_555 1_555
C15_3 O5_3 1_555 1_555
H6_3 C15_3 1_555 1_555
H7_3 C15_3 1_555 1_555
C16_3 C15_3 1_555 1_555
H8_3 C16_3 1_555 1_555
C17_3 C16_3 1_555 1_555
C18_3 C16_3 1_555 1_555
C19_3 C17_3 1_555 1_555
O6_3 C10_3 1_555 1_555
C20_3 O6_3 1_555 1_555
H9_3 C20_3 1_555 1_555
H10_3 C20_3 1_555 1_555
C21_3 C20_3 1_555 1_555
H11_3 C21_3 1_555 1_555
C22_3 C21_3 1_555 1_555
C23_3 C21_3 1_555 1_555
C24_3 C22_3 1_555 1_555
O7_3 C25_3 1_555 1_555
O8_3 C25_3 1_555 1_555
C25_3 C31_3 1_555 1_555
O9_3 C26_3 1_555 1_555
O10_3 C26_3 1_555 1_555
C26_3 C29_3 1_555 1_555
C27_3 C12_3 1_555 1_555
C28_3 C27_3 1_555 1_555
H12_3 C28_3 1_555 1_555
C29_3 C28_3 1_555 1_555
C30_3 C29_3 1_555 1_555
H13_3 C30_3 1_555 1_555
C31_3 C30_3 1_555 1_555
C32_3 C27_3 1_555 1_555
H14_3 C32_3 1_555 1_555
Zn5_2 O9_3 1_555 1_555
Zn4 O8_3 1_555 1_555
Zn8_2 O10_3 1_555 1_555
C6_3 C7_3 1_555 1_555
C13_3 C14_3 1_555 1_555
C31_3 C32_3 1_555 1_555
C18_3 H15_3 1_555 1_555
C18_3 H16_3 1_555 1_555
C18_3 H17_3 1_555 1_555
C17_3 H18_3 1_555 1_555
C17_3 H19_3 1_555 1_555
C19_3 H20_3 1_555 1_555
C19_3 H21_3 1_555 1_555
C19_3 H22_3 1_555 1_555
C24_3 H23_3 1_555 1_555
C24_3 H24_3 1_555 1_555
C24_3 H25_3 1_555 1_555
C23_3 H26_3 1_555 1_555
C23_3 H27_3 1_555 1_555
C23_3 H28_3 1_555 1_555
C22_3 H31_3 1_555 1_555
C3_2 H1_2 1_555 1_555
O13 C8_3 1_555 1_555
O9_4 C26_4 1_555 1_555
O10_4 C26_4 1_555 1_555
Zn4_2 O9_4 1_555 1_555
Zn7_2 O10_4 1_555 1_555
Zn7 O1_4 1_555 1_555
O1_4 C1_4 1_555 1_555
O2_4 C1_4 1_555 1_555
C1_4 C2_4 1_555 1_555
C2_4 C3_3 1_555 1_555
C3_3 H1_3 1_555 1_555
C4_4 C3_3 1_555 1_555
C5_4 C4_4 1_555 1_555
H2_4 C5_4 1_555 1_555
C6_4 C5_4 1_555 1_555
C7_4 C2_4 1_555 1_555
H3_4 C7_4 1_555 1_555
C8_4 C4_4 1_555 1_555
O3_3 C8_4 1_555 1_555
O4_3 C8_4 1_555 1_555
C9_4 C6_4 1_555 1_555
C10_4 C9_4 1_555 1_555
C11_4 C10_4 1_555 1_555
H4_4 C11_4 1_555 1_555
C12_4 C11_4 1_555 1_555
C13_4 C12_4 1_555 1_555
C14_4 C9_4 1_555 1_555
H5_4 C14_4 1_555 1_555
O5_4 C13_4 1_555 1_555
O6_4 C10_4 1_555 1_555
C20_4 O6_4 1_555 1_555
H9_4 C20_4 1_555 1_555
H10_4 C20_4 1_555 1_555
C21_4 C20_4 1_555 1_555
H11_4 C21_4 1_555 1_555
C22_4 C21_4 1_555 1_555
C23_4 C21_4 1_555 1_555
C24_4 C22_4 1_555 1_555
C27_4 C12_4 1_555 1_555
C28_4 C27_4 1_555 1_555
H12_4 C28_4 1_555 1_555
C29_4 C28_4 1_555 1_555
C30_4 C29_4 1_555 1_555
H13_4 C30_4 1_555 1_555
C31_4 C30_4 1_555 1_555
C32_4 C27_4 1_555 1_555
H14_4 C32_4 1_555 1_555
O11_4 Zn7 1_555 1_555
Zn8 O3_3 1_555 1_555
O13_2 Zn7 1_555 1_555
C6_4 C7_4 1_555 1_555
C13_4 C14_4 1_555 1_555
C31_4 C32_4 1_555 1_555
C24_4 H23_4 1_555 1_555
C24_4 H24_4 1_555 1_555
C23_4 H26_4 1_555 1_555
C23_4 H27_4 1_555 1_555
C22_4 H31_4 1_555 1_555
C22_4 H32_2 1_555 1_555
O11_4 H33_4 1_555 1_555
O11_4 H34_4 1_555 1_555
H6_4 C15_4 1_555 1_555
H7_4 C15_4 1_555 1_555
C16_4 C15_4 1_555 1_555
H8_4 C16_4 1_555 1_555
C17_4 C16_4 1_555 1_555
C18_4 C16_4 1_555 1_555
C19_4 C17_4 1_555 1_555
O7_4 C25_4 1_555 1_555
O8_4 C25_4 1_555 1_555
O12_4 Zn4 1_555 1_555
Zn5_3 O8_4 1_555 1_555
Zn8_3 O7_4 1_555 1_555
C18_4 H15_4 1_555 1_555
C18_4 H16_4 1_555 1_555
C18_4 H17_4 1_555 1_555
C17_4 H18_4 1_555 1_555
C17_4 H19_4 1_555 1_555
C19_4 H20_4 1_555 1_555
C19_4 H21_4 1_555 1_555
C19_4 H22_4 1_555 1_555
O12_4 H29_4 1_555 1_555
O12_4 H30_4 1_555 1_555
H6_5 C15_5 1_555 1_555
H7_5 C15_5 1_555 1_555
C16_5 C15_5 1_555 1_555
H8_5 C16_5 1_555 1_555
C17_5 C16_5 1_555 1_555
C18_5 C16_5 1_555 1_555
O7_5 C25_5 1_555 1_555
O8_5 C25_5 1_555 1_555
O12_5 Zn5 1_555 1_555
Zn5_4 O8_5 1_555 1_555
Zn8_4 O7_5 1_555 1_555
C18_5 H15_5 1_555 1_555
C18_5 H16_5 1_555 1_555
C17_5 H18_5 1_555 1_555
C17_5 H19_5 1_555 1_555
O12_5 H29_5 1_555 1_555
O12_5 H30_5 1_555 1_555
Zn8 O1_5 1_555 1_555
O1_5 C1_5 1_555 1_555
O2_5 C1_5 1_555 1_555
C1_5 C2_5 1_555 1_555
C2_5 C3_4 1_555 1_555
C3_4 H1_4 1_555 1_555
C4_5 C3_4 1_555 1_555
C5_5 C4_5 1_555 1_555
H2_5 C5_5 1_555 1_555
C6_5 C5_5 1_555 1_555
C7_5 C2_5 1_555 1_555
H3_5 C7_5 1_555 1_555
C8_5 C4_5 1_555 1_555
O3_4 C8_5 1_555 1_555
O4_4 C8_5 1_555 1_555
C9_5 C6_5 1_555 1_555
C10_5 C9_5 1_555 1_555
C11_5 C10_5 1_555 1_555
H4_5 C11_5 1_555 1_555
C12_5 C11_5 1_555 1_555
C13_5 C12_5 1_555 1_555
C14_5 C9_5 1_555 1_555
H5_5 C14_5 1_555 1_555
O5_5 C13_5 1_555 1_555
O6_5 C10_5 1_555 1_555
C20_5 O6_5 1_555 1_555
H9_5 C20_5 1_555 1_555
H10_5 C20_5 1_555 1_555
C21_5 C20_5 1_555 1_555
H11_5 C21_5 1_555 1_555
C22_5 C21_5 1_555 1_555
C23_5 C21_5 1_555 1_555
C24_5 C22_5 1_555 1_555
O9_5 C26_5 1_555 1_555
O10_5 C26_5 1_555 1_555
C26_5 C29_5 1_555 1_555
C27_5 C12_5 1_555 1_555
C28_5 C27_5 1_555 1_555
H12_5 C28_5 1_555 1_555
C29_5 C28_5 1_555 1_555
C30_5 C29_5 1_555 1_555
H13_5 C30_5 1_555 1_555
C31_5 C30_5 1_555 1_555
C32_5 C27_5 1_555 1_555
H14_5 C32_5 1_555 1_555
O11_5 Zn8 1_555 1_555
Zn5_2 O4_4 1_555 1_555
Zn5_3 O9_5 1_555 1_555
Zn8_2 O3_4 1_555 1_555
Zn8_3 O10_5 1_555 1_555
C6_5 C7_5 1_555 1_555
C13_5 C14_5 1_555 1_555
C31_5 C32_5 1_555 1_555
C24_5 H23_5 1_555 1_555
C24_5 H24_5 1_555 1_555
C24_5 H25_5 1_555 1_555
C23_5 H26_5 1_555 1_555
C23_5 H27_5 1_555 1_555
C23_5 H28_5 1_555 1_555
C22_5 H31_5 1_555 1_555
C22_5 H32_3 1_555 1_555
O11_5 H33_5 1_555 1_555
O11_5 H34_5 1_555 1_555
Zn5_2 O2_6 1_555 1_555
Zn8_2 O1_6 1_555 1_555
O1_6 C1_6 1_555 1_555
O2_6 C1_6 1_555 1_555
C1_6 C2_6 1_555 1_555
C2_6 C3_5 1_555 1_555
C3_5 H1_5 1_555 1_555
C4_6 C3_5 1_555 1_555
C5_6 C4_6 1_555 1_555
H2_6 C5_6 1_555 1_555
C6_6 C5_6 1_555 1_555
C7_6 C2_6 1_555 1_555
H3_6 C7_6 1_555 1_555
C8_6 C4_6 1_555 1_555
O13_2 C8_6 1_555 1_555
O14_2 C8_6 1_555 1_555
C9_6 C6_6 1_555 1_555
C10_6 C9_6 1_555 1_555
C11_6 C10_6 1_555 1_555
H4_6 C11_6 1_555 1_555
C12_6 C11_6 1_555 1_555
C13_6 C12_6 1_555 1_555
C14_6 C9_6 1_555 1_555
H5_6 C14_6 1_555 1_555
O5_6 C13_6 1_555 1_555
C15_6 O5_6 1_555 1_555
H6_6 C15_6 1_555 1_555
H7_6 C15_6 1_555 1_555
C16_6 C15_6 1_555 1_555
H8_6 C16_6 1_555 1_555
C17_6 C16_6 1_555 1_555
C18_6 C16_6 1_555 1_555
O6_6 C10_6 1_555 1_555
C20_6 O6_6 1_555 1_555
H9_6 C20_6 1_555 1_555
H10_6 C20_6 1_555 1_555
C21_6 C20_6 1_555 1_555
H11_6 C21_6 1_555 1_555
C22_6 C21_6 1_555 1_555
C23_6 C21_6 1_555 1_555
C24_6 C22_6 1_555 1_555
O7_6 C25_6 1_555 1_555
O8_6 C25_6 1_555 1_555
C25_6 C31_6 1_555 1_555
C27_6 C12_6 1_555 1_555
C28_6 C27_6 1_555 1_555
H12_6 C28_6 1_555 1_555
C29_6 C28_6 1_555 1_555
C30_6 C29_6 1_555 1_555
H13_6 C30_6 1_555 1_555
C31_6 C30_6 1_555 1_555
C32_6 C27_6 1_555 1_555
H14_6 C32_6 1_555 1_555
O11_6 Zn8_2 1_555 1_555
O12_6 Zn5_2 1_555 1_555
Zn4_2 O8_6 1_555 1_555
Zn7_2 O7_6 1_555 1_555
C6_6 C7_6 1_555 1_555
C13_6 C14_6 1_555 1_555
C31_6 C32_6 1_555 1_555
C18_6 H15_6 1_555 1_555
C18_6 H16_6 1_555 1_555
C17_6 H18_6 1_555 1_555
C17_6 H19_6 1_555 1_555
C24_6 H23_6 1_555 1_555
C24_6 H24_6 1_555 1_555
C23_6 H26_6 1_555 1_555
C23_6 H27_6 1_555 1_555
O12_6 H29_6 1_555 1_555
O12_6 H30_6 1_555 1_555
C22_6 H31_6 1_555 1_555
C22_6 H32_4 1_555 1_555
O11_6 H33_6 1_555 1_555
O11_6 H34_6 1_555 1_555
O9_6 C26_6 1_555 1_555
O10_6 C26_6 1_555 1_555
Zn5_4 O9_6 1_555 1_555
Zn8_4 O10_6 1_555 1_555
Zn4_2 O2_7 1_555 1_555
Zn7_2 O1_7 1_555 1_555
O1_7 C1_7 1_555 1_555
O2_7 C1_7 1_555 1_555
C1_7 C2_7 1_555 1_555
C2_7 C3_6 1_555 1_555
C3_6 H1_6 1_555 1_555
C4_7 C3_6 1_555 1_555
C5_7 C4_7 1_555 1_555
H2_7 C5_7 1_555 1_555
C6_7 C5_7 1_555 1_555
C7_7 C2_7 1_555 1_555
H3_7 C7_7 1_555 1_555
C8_7 C4_7 1_555 1_555
O3_5 C8_7 1_555 1_555
O4_5 C8_7 1_555 1_555
C9_7 C6_7 1_555 1_555
C10_7 C9_7 1_555 1_555
C11_7 C10_7 1_555 1_555
H4_7 C11_7 1_555 1_555
C12_7 C11_7 1_555 1_555
C13_7 C12_7 1_555 1_555
C14_7 C9_7 1_555 1_555
H5_7 C14_7 1_555 1_555
O5_7 C13_7 1_555 1_555
C15_7 O5_7 1_555 1_555
H6_7 C15_7 1_555 1_555
H7_7 C15_7 1_555 1_555
C16_7 C15_7 1_555 1_555
H8_7 C16_7 1_555 1_555
C17_7 C16_7 1_555 1_555
C18_7 C16_7 1_555 1_555
C19_5 C17_7 1_555 1_555
O6_7 C10_7 1_555 1_555
C20_7 O6_7 1_555 1_555
H9_7 C20_7 1_555 1_555
H10_7 C20_7 1_555 1_555
C21_7 C20_7 1_555 1_555
H11_7 C21_7 1_555 1_555
C22_7 C21_7 1_555 1_555
C23_7 C21_7 1_555 1_555
C24_7 C22_7 1_555 1_555
O15_2 C25_7 1_555 1_555
O16_2 C25_7 1_555 1_555
C25_7 C31_7 1_555 1_555
O17 C26_7 1_555 1_555
O18 C26_7 1_555 1_555
C26_7 C29_7 1_555 1_555
C27_7 C12_7 1_555 1_555
C28_7 C27_7 1_555 1_555
H12_7 C28_7 1_555 1_555
C29_7 C28_7 1_555 1_555
C30_7 C29_7 1_555 1_555
H13_7 C30_7 1_555 1_555
C31_7 C30_7 1_555 1_555
C32_7 C27_7 1_555 1_555
H14_7 C32_7 1_555 1_555
O11_7 Zn7_2 1_555 1_555
O12_7 Zn4_2 1_555 1_555
Zn5_3 O4_5 1_555 1_555
Zn8_3 O3_5 1_555 1_555
O13_3 Zn7_2 1_555 1_555
O14_3 Zn4_2 1_555 1_555
C6_7 C7_7 1_555 1_555
C13_7 C14_7 1_555 1_555
C31_7 C32_7 1_555 1_555
C18_7 H15_7 1_555 1_555
C18_7 H16_7 1_555 1_555
C18_7 H17_5 1_555 1_555
C17_7 H18_7 1_555 1_555
C17_7 H19_7 1_555 1_555
C19_5 H20_5 1_555 1_555
C19_5 H21_5 1_555 1_555
C19_5 H22_5 1_555 1_555
C24_7 H23_7 1_555 1_555
C24_7 H24_7 1_555 1_555
C24_7 H25_7 1_555 1_555
C23_7 H26_7 1_555 1_555
C23_7 H27_7 1_555 1_555
C23_7 H28_7 1_555 1_555
O12_7 H29_7 1_555 1_555
O12_7 H30_7 1_555 1_555
C22_7 H31_7 1_555 1_555
C22_7 H32_5 1_555 1_555
O11_7 H33_7 1_555 1_555
O11_7 H34_7 1_555 1_555
C13_8 C12_8 1_555 1_555
H5_8 C14_8 1_555 1_555
O5_8 C13_8 1_555 1_555
C15_8 O5_8 1_555 1_555
H6_8 C15_8 1_555 1_555
H7_8 C15_8 1_555 1_555
C16_8 C15_8 1_555 1_555
H8_8 C16_8 1_555 1_555
C17_8 C16_8 1_555 1_555
C18_8 C16_8 1_555 1_555
C19_6 C17_8 1_555 1_555
O15_3 C25_8 1_555 1_555
O16_3 C25_8 1_555 1_555
C25_8 C31_8 1_555 1_555
O17_2 C26_8 1_555 1_555
O18_2 C26_8 1_555 1_555
C26_8 C29_8 1_555 1_555
C27_8 C12_8 1_555 1_555
C28_8 C27_8 1_555 1_555
H12_8 C28_8 1_555 1_555
C29_8 C28_8 1_555 1_555
C30_8 C29_8 1_555 1_555
H13_8 C30_8 1_555 1_555
C31_8 C30_8 1_555 1_555
C32_8 C27_8 1_555 1_555
H14_8 C32_8 1_555 1_555
C13_8 C14_8 1_555 1_555
C31_8 C32_8 1_555 1_555
C18_8 H15_8 1_555 1_555
C18_8 H16_8 1_555 1_555
C18_8 H17_6 1_555 1_555
C17_8 H18_8 1_555 1_555
C17_8 H19_8 1_555 1_555
C19_6 H20_6 1_555 1_555
C19_6 H21_6 1_555 1_555
C19_6 H22_6 1_555 1_555
Zn5_3 O2_8 1_555 1_555
Zn8_3 O1_8 1_555 1_555
O1_8 C1_8 1_555 1_555
O2_8 C1_8 1_555 1_555
C1_8 C2_8 1_555 1_555
C2_8 C3_7 1_555 1_555
C3_7 H1_7 1_555 1_555
C4_8 C3_7 1_555 1_555
C5_8 C4_8 1_555 1_555
H2_8 C5_8 1_555 1_555
C6_8 C5_8 1_555 1_555
C7_8 C2_8 1_555 1_555
H3_8 C7_8 1_555 1_555
C8_8 C4_8 1_555 1_555
O3_6 C8_8 1_555 1_555
O4_6 C8_8 1_555 1_555
C9_8 C6_8 1_555 1_555
C10_8 C9_8 1_555 1_555
C11_8 C10_8 1_555 1_555
H4_8 C11_8 1_555 1_555
O6_8 C10_8 1_555 1_555
C20_8 O6_8 1_555 1_555
H9_8 C20_8 1_555 1_555
H10_8 C20_8 1_555 1_555
C21_8 C20_8 1_555 1_555
H11_8 C21_8 1_555 1_555
C22_8 C21_8 1_555 1_555
C23_8 C21_8 1_555 1_555
C24_8 C22_8 1_555 1_555
O11_8 Zn8_3 1_555 1_555
O12_8 Zn5_3 1_555 1_555
Zn5_4 O4_6 1_555 1_555
Zn8_4 O3_6 1_555 1_555
C6_8 C7_8 1_555 1_555
C24_8 H23_8 1_555 1_555
C24_8 H24_8 1_555 1_555
C24_8 H25_8 1_555 1_555
C23_8 H26_8 1_555 1_555
C23_8 H27_8 1_555 1_555
C23_8 H28_8 1_555 1_555
O12_8 H29_8 1_555 1_555
O12_8 H30_8 1_555 1_555
C22_8 H31_8 1_555 1_555
C22_8 H32_6 1_555 1_555
O11_8 H33_8 1_555 1_555
O11_8 H34_8 1_555 1_555
Zn5_4 O2_9 1_555 1_555
Zn8_4 O1_9 1_555 1_555
O1_9 C1_9 1_555 1_555
O2_9 C1_9 1_555 1_555
C1_9 C2_9 1_555 1_555
C2_9 C3_8 1_555 1_555
C3_8 H1_8 1_555 1_555
C4_9 C3_8 1_555 1_555
C5_9 C4_9 1_555 1_555
H2_9 C5_9 1_555 1_555
C6_9 C5_9 1_555 1_555
C7_9 C2_9 1_555 1_555
H3_9 C7_9 1_555 1_555
C8_9 C4_9 1_555 1_555
O13_3 C8_9 1_555 1_555
O14_3 C8_9 1_555 1_555
C9_9 C6_9 1_555 1_555
C10_9 C9_9 1_555 1_555
C11_9 C10_9 1_555 1_555
H4_9 C11_9 1_555 1_555
O6_9 C10_9 1_555 1_555
C20_9 O6_9 1_555 1_555
H9_9 C20_9 1_555 1_555
H10_9 C20_9 1_555 1_555
C21_9 C20_9 1_555 1_555
H11_9 C21_9 1_555 1_555
C22_9 C21_9 1_555 1_555
C23_9 C21_9 1_555 1_555
C24_9 C22_9 1_555 1_555
O11_9 Zn8_4 1_555 1_555
O12_9 Zn5_4 1_555 1_555
C6_9 C7_9 1_555 1_555
C24_9 H23_9 1_555 1_555
C24_9 H24_9 1_555 1_555
C24_9 H25_9 1_555 1_555
C23_9 H26_9 1_555 1_555
C23_9 H27_9 1_555 1_555
C23_9 H28_9 1_555 1_555
O12_9 H29_9 1_555 1_555
O12_9 H30_9 1_555 1_555
C22_9 H31_9 1_555 1_555
C22_9 H32_7 1_555 1_555
O11_9 H33_9 1_555 1_555
O11_9 H34_9 1_555 1_555
C13_9 C12_9 1_555 1_555
H5_9 C14_9 1_555 1_555
O5_9 C13_9 1_555 1_555
C15_9 O5_9 1_555 1_555
H6_9 C15_9 1_555 1_555
H7_9 C15_9 1_555 1_555
C16_9 C15_9 1_555 1_555
H8_9 C16_9 1_555 1_555
C17_9 C16_9 1_555 1_555
C18_9 C16_9 1_555 1_555
C19_7 C17_9 1_555 1_555
O15 C25_9 1_555 1_555
O16 C25_9 1_555 1_555
C25_9 C31_9 1_555 1_555
O17_3 C26_9 1_555 1_555
O18_3 C26_9 1_555 1_555
C26_9 C29_9 1_555 1_555
C27_9 C12_9 1_555 1_555
C28_9 C27_9 1_555 1_555
H12_9 C28_9 1_555 1_555
C29_9 C28_9 1_555 1_555
C30_9 C29_9 1_555 1_555
H13_9 C30_9 1_555 1_555
C31_9 C30_9 1_555 1_555
C32_9 C27_9 1_555 1_555
H14_9 C32_9 1_555 1_555
C13_9 C14_9 1_555 1_555
C31_9 C32_9 1_555 1_555
C18_9 H15_9 1_555 1_555
C18_9 H16_9 1_555 1_555
C18_9 H17_7 1_555 1_555
C17_9 H18_9 1_555 1_555
C17_9 H19_9 1_555 1_555
C19_7 H20_7 1_555 1_555
C19_7 H21_7 1_555 1_555
C19_7 H22_7 1_555 1_555
C3_9 H1_9 1_555 1_555
C19_8 H20_8 1_555 1_555
C19_8 H21_8 1_555 1_555
C19_8 H22_8 1_555 1_555
C19_9 H20_9 1_555 1_555
C19_9 H21_9 1_555 1_555
C19_9 H22_9 1_555 1_555

#END
