
###############################################################################
#
# This file contains modified crystal structure data generated from the
# MOF subset of the Cambridge Structural Database (CSD) v543 
# hosted by the Cambridge Crystallographic Data Centre (CCDC).
#
# This work is licensed under the Creative Commons
# Attribution-NonCommercial-ShareAlike 4.0 International License.
# To view a copy of this license, visit
# http://creativecommons.org/licenses/by-nc-sa/4.0/
# or send a letter to
# Creative Commons, PO Box 1866, Mountain View, CA 94042, USA.
#
# CIF created using the CSD Python API on 29 September 2022
# The structure has been converted into the P1 space group
# The structure has a 3D framework
# The original CSD entry YAWFOS is in the monoclinic crystal system
# The framework has been calculated to contain at least 10.0% void space
# The void calculation uses a probe of radius 1.32A, grid spacing 0.4
#
###############################################################################

data_YAWFOS
_chemical_formula_moiety         '(C122 H84 Cd20 N68)n'
_symmetry_cell_setting           triclinic
_symmetry_space_group_name_H-M   'P 1'
_symmetry_Int_Tables_number      1
_space_group_name_Hall           'P 1'
loop_
_symmetry_equiv_pos_site_id
_symmetry_equiv_pos_as_xyz
1 x,y,z
_cell_length_a                   8.8965(10)
_cell_length_b                   11.7193(14)
_cell_length_c                   52.414(6)
_cell_angle_alpha                90
_cell_angle_beta                 97.734(5)
_cell_angle_gamma                90
_cell_volume                     5415.01
loop_
_atom_site_label
_atom_site_type_symbol
_atom_site_fract_x
_atom_site_fract_y
_atom_site_fract_z
C23 C 0.0524(19) 0.3277(12) 0.0684(3)
Cd1 Cd 0.32424(10) 0.11561(8) 0.069171(18)
Cd2 Cd 0.36123(11) 0.15717(8) 0.179368(18)
Cd4 Cd 0.83484(11) 0.41036(8) 0.072676(19)
C1 C 0.3469(14) 0.1238(10) 0.1356(2)
N1 N 0.3402(15) 0.1160(10) 0.1140(3)
C2 C 0.6408(17) 0.2926(12) 0.0686(3)
N2 N 0.5361(12) 0.2323(9) 0.0698(2)
C4 C 0.2705(15) 0.1312(12) 0.0031(3)
N4 N 0.2958(14) 0.1265(11) 0.0253(2)
N6 N 0.1599(13) 0.2769(10) 0.0676(2)
C7 C 0.1052(17) 0.3740(12) 0.1746(3)
N7 N 0.2131(14) 0.3245(10) 0.1710(2)
C8 C 0.0436(17) 0.0015(12) 0.1912(3)
N8 N 0.1406(14) 0.0538(10) 0.1844(2)
N9 N 0.5283(14) 0.0130(10) 0.1940(2)
C10 C 0.6878(16) 0.3317(12) 0.1803(3)
N10 N 0.5783(14) 0.2716(11) 0.1783(2)
C11 C 0.8358(15) 0.4530(11) 0.1145(3)
N11 N 0.8253(13) 0.4664(10) 0.1361(2)
C13 C 0.0269(16) 0.3977(13) 0.2489(3)
C14 C 0.8144(15) 0.5811(11) 0.0543(3)
N14 N 0.8099(13) 0.6779(10) 0.0488(2)
N15 N 0.3541(15) 0.2295(12) 0.2225(3)
H1 H 0.2642 0.2030 0.2182
H2 H 0.3867 0.2846 0.2139
C15 C 0.4507(17) 0.1814(14) 0.2444(3)
C16 C 0.398(2) 0.0937(15) 0.2580(3)
H3 H 0.2991 0.0673 0.2541
C17 C 0.500(3) 0.0436(17) 0.2786(4)
C18 C 0.651(3) 0.0796(18) 0.2831(4)
H5 H 0.7186 0.0454 0.2958
C19 C 0.695(3) 0.164(2) 0.2686(4)
H6 H 0.7950 0.1902 0.2721
C20 C 0.600(2) 0.2146(16) 0.2491(4)
H7 H 0.6363 0.2709 0.2390
Cd7 Cd 0.88661(11) 0.44135(8) 0.183230(19)
Cd11 Cd 0.12490(11) 0.40377(8) 0.289410(19)
Cd14 Cd 0.78286(11) 0.86560(8) 0.038950(18)
Cd12 Cd 0.21714(11) 0.13440(8) 0.961050(18)
N3 N 0.1044(14) 0.9978(10) 0.0629(2)
C5 C 0.5904(16) 0.9215(12) 0.0590(3)
N5 N 0.4881(14) 0.9587(10) 0.0675(2)
C9 C 0.6412(18) 0.9714(12) 0.2013(3)
H4 H 0.4650 0.9873 0.2888
Cd9 Cd 0.87510(11) 0.90377(8) 0.210590(19)
C12 C 0.8737(17) 0.6267(11) 0.1910(3)
N12 N 0.8723(15) 0.7218(12) 0.1963(2)
N13 N 0.9628(16) 0.4036(12) 0.2280(3)
C3 C 0.9952(16) 0.9523(12) 0.0548(3)
C26 C 0.9731(16) 0.8977(13) 0.2511(3)
C21 C 0.7295(15) 0.8688(12) 0.9969(3)
C12_2 C 0.1263(17) 0.1267(11) 0.3090(3)
N12_2 N 0.1277(15) 0.2218(12) 0.3037(2)
Cd3 Cd 0.11339(11) 0.94135(8) 0.316770(19)
Cd6 Cd 0.21714(11) 0.36560(8) 0.461050(18)
C3_2 C 0.0048(16) 0.4523(12) 0.4452(3)
N13_2 N 0.0372(16) 0.9036(12) 0.2720(3)
Cd8 Cd 0.16516(11) 0.91036(8) 0.427324(19)
C21_2 C 0.2705(15) 0.3688(12) 0.5031(3)
C22 C 0.4096(16) 0.4215(12) 0.4410(3)
C24 C 0.3588(18) 0.4714(12) 0.2987(3)
C25 C 0.3122(16) 0.8317(12) 0.3197(3)
N16 N 0.1747(13) 0.9664(10) 0.3639(2)
N18 N 0.1901(13) 0.1779(10) 0.4512(2)
C14_2 C 0.1856(15) 0.0811(11) 0.4457(3)
Cd1_2 Cd 0.67576(10) 0.61561(8) 0.430829(18)
Cd2_2 Cd 0.63877(11) 0.65717(8) 0.320632(18)
C1_2 C 0.6531(14) 0.6238(10) 0.3644(2)
N1_2 N 0.6598(15) 0.6160(10) 0.3860(3)
C2_2 C 0.3592(17) 0.7926(12) 0.4314(3)
N2_2 N 0.4639(12) 0.7323(9) 0.4302(2)
N3_2 N 0.8956(14) 0.4978(10) 0.4371(2)
C4_2 C 0.7295(15) 0.6312(12) 0.4969(3)
N4_2 N 0.7042(14) 0.6265(11) 0.4747(2)
N5_2 N 0.5119(14) 0.4587(10) 0.4325(2)
C6 C 0.9476(19) 0.8277(12) 0.4316(3)
N6_2 N 0.8401(13) 0.7769(10) 0.4324(2)
C7_2 C 0.8948(17) 0.8740(12) 0.3254(3)
N7_2 N 0.7869(14) 0.8245(10) 0.3290(2)
C8_2 C 0.9564(17) 0.5015(12) 0.3088(3)
N8_2 N 0.8594(14) 0.5538(10) 0.3156(2)
N9_2 N 0.4717(14) 0.5130(10) 0.3060(2)
N10_2 N 0.4217(14) 0.7716(11) 0.3217(2)
C11_2 C 0.1642(15) 0.9530(11) 0.3855(3)
N15_2 N 0.6459(15) 0.7295(12) 0.2775(3)
H1_2 H 0.7358 0.7030 0.2818
H2_2 H 0.6133 0.7846 0.2861
C15_2 C 0.5493(17) 0.6814(14) 0.2556(3)
C16_2 C 0.602(2) 0.5937(15) 0.2420(3)
H3_2 H 0.7009 0.5673 0.2459
C17_2 C 0.500(3) 0.5436(17) 0.2214(4)
H4_2 H 0.5350 0.4873 0.2112
C18_2 C 0.349(3) 0.5796(18) 0.2169(4)
H5_2 H 0.2814 0.5454 0.2042
C19_2 C 0.305(3) 0.664(2) 0.2314(4)
H6_2 H 0.2050 0.6902 0.2279
C20_2 C 0.400(2) 0.7146(16) 0.2509(4)
H7_2 H 0.3637 0.7709 0.2610
Cd12_2 Cd 0.78286(11) 0.63440(8) 0.538950(18)
Cd5 Cd 0.12490(11) 0.09623(8) 0.789410(19)
C3_3 C 0.0048(16) 0.0477(12) 0.9452(3)
C22_2 C 0.4096(16) 0.0785(12) 0.9410(3)
C24_2 C 0.3588(18) 0.0286(12) 0.7987(3)
N17 N 0.1277(15) 0.2782(12) 0.8037(2)
C26_2 C 0.0269(16) 0.1023(13) 0.7489(3)
N18_2 N 0.1901(13) 0.3221(10) 0.9512(2)
Cd3_2 Cd 0.11339(11) 0.55865(8) 0.816770(19)
C12_3 C 0.1263(17) 0.3733(11) 0.8090(3)
N13_3 N 0.0372(16) 0.5964(12) 0.7720(3)
Cd8_2 Cd 0.16516(11) 0.58964(8) 0.927324(19)
C25_2 C 0.3122(16) 0.6683(12) 0.8197(3)
N16_2 N 0.1747(13) 0.5336(10) 0.8639(2)
N3_3 N 0.8956(14) 0.0022(10) 0.9371(2)
N5_3 N 0.5119(14) 0.0413(10) 0.9325(2)
H4_3 H 0.5350 0.0127 0.7112
Cd1_3 Cd 0.67576(10) 0.88439(8) 0.930829(18)
Cd2_3 Cd 0.63877(11) 0.84283(8) 0.820632(18)
C1_3 C 0.6531(14) 0.8762(10) 0.8644(2)
N1_3 N 0.6598(15) 0.8840(10) 0.8860(3)
C2_3 C 0.3592(17) 0.7074(12) 0.9314(3)
N2_3 N 0.4639(12) 0.7677(9) 0.9302(2)
N4_3 N 0.7042(14) 0.8735(11) 0.9747(2)
C6_2 C 0.9476(19) 0.6723(12) 0.9316(3)
N6_3 N 0.8401(13) 0.7231(10) 0.9324(2)
C7_3 C 0.8948(17) 0.6260(12) 0.8254(3)
N7_3 N 0.7869(14) 0.6755(10) 0.8290(2)
C8_3 C 0.9564(17) 0.9985(12) 0.8088(3)
N8_3 N 0.8594(14) 0.9462(10) 0.8156(2)
N9_3 N 0.4717(14) 0.9870(10) 0.8060(2)
N10_3 N 0.4217(14) 0.7284(11) 0.8217(2)
C11_3 C 0.1642(15) 0.5470(11) 0.8855(3)
C13_2 C 0.9731(16) 0.6023(13) 0.7511(3)
C14_3 C 0.1856(15) 0.4189(11) 0.9457(3)
N15_3 N 0.6459(15) 0.7705(12) 0.7775(3)
H1_3 H 0.7358 0.7970 0.7818
H2_3 H 0.6133 0.7154 0.7861
C15_3 C 0.5493(17) 0.8186(14) 0.7556(3)
C16_3 C 0.602(2) 0.9063(15) 0.7420(3)
H3_3 H 0.7009 0.9327 0.7459
C17_3 C 0.500(3) 0.9564(17) 0.7214(4)
C18_3 C 0.349(3) 0.9204(18) 0.7169(4)
H5_3 H 0.2814 0.9546 0.7042
C19_3 C 0.305(3) 0.836(2) 0.7314(4)
H6_3 H 0.2050 0.8098 0.7279
C20_3 C 0.400(2) 0.7854(16) 0.7509(4)
H7_3 H 0.3637 0.7291 0.7610
Cd11_2 Cd 0.87510(11) 0.59623(8) 0.710590(19)
C23_2 C 0.0524(19) 0.1723(12) 0.5684(3)
Cd1_4 Cd 0.32424(10) 0.38439(8) 0.569171(18)
Cd2_4 Cd 0.36123(11) 0.34283(8) 0.679368(18)
Cd4_2 Cd 0.83484(11) 0.08964(8) 0.572676(19)
C1_4 C 0.3469(14) 0.3762(10) 0.6356(2)
N1_4 N 0.3402(15) 0.3840(10) 0.6140(3)
C2_4 C 0.6408(17) 0.2074(12) 0.5686(3)
N2_4 N 0.5361(12) 0.2677(9) 0.5698(2)
N3_4 N 0.1044(14) 0.5022(10) 0.5629(2)
N4_4 N 0.2958(14) 0.3735(11) 0.5253(2)
C5_2 C 0.5904(16) 0.5785(12) 0.5590(3)
N5_4 N 0.4881(14) 0.5413(10) 0.5675(2)
N6_4 N 0.1599(13) 0.2231(10) 0.5676(2)
C7_4 C 0.1052(17) 0.1260(12) 0.6746(3)
N7_4 N 0.2131(14) 0.1755(10) 0.6710(2)
C8_4 C 0.0436(17) 0.4985(12) 0.6912(3)
N8_4 N 0.1406(14) 0.4462(10) 0.6844(2)
C9_2 C 0.6412(18) 0.5286(12) 0.7013(3)
N9_4 N 0.5283(14) 0.4870(10) 0.6940(2)
C10_2 C 0.6878(16) 0.1683(12) 0.6803(3)
N10_4 N 0.5783(14) 0.2284(11) 0.6783(2)
C11_4 C 0.8358(15) 0.0470(11) 0.6145(3)
N11_2 N 0.8253(13) 0.0336(10) 0.6361(2)
N15_4 N 0.3541(15) 0.2705(12) 0.7225(3)
H1_4 H 0.2642 0.2970 0.7182
H2_4 H 0.3867 0.2154 0.7139
C15_4 C 0.4507(17) 0.3186(14) 0.7444(3)
C16_4 C 0.398(2) 0.4063(15) 0.7580(3)
H3_4 H 0.2991 0.4327 0.7541
C17_4 C 0.500(3) 0.4564(17) 0.7786(4)
H4_4 H 0.4650 0.5127 0.7888
C18_4 C 0.651(3) 0.4204(18) 0.7831(4)
H5_4 H 0.7186 0.4546 0.7958
C19_4 C 0.695(3) 0.336(2) 0.7686(4)
H6_4 H 0.7950 0.3098 0.7721
C20_4 C 0.600(2) 0.2854(16) 0.7491(4)
H7_4 H 0.6363 0.2291 0.7390
Cd7_2 Cd 0.88661(11) 0.05865(8) 0.683230(19)
C14_4 C 0.8144(15) 0.9189(11) 0.5543(3)
N14_2 N 0.8099(13) 0.8221(10) 0.5488(2)
C3_4 C 0.9952(16) 0.5477(12) 0.5548(3)
N13_4 N 0.9628(16) 0.0964(12) 0.7280(3)
N17_2 N 0.8723(15) 0.7782(12) 0.6963(2)
C12_4 C 0.8737(17) 0.8733(11) 0.6910(3)
H21 H 0.0128 0.1592 0.1406
N20 N 0.8465(12) 0.0456(9) 0.1276(2)
C32 C 0.7216(16) 0.0339(12) 0.1390(3)
H12 H 0.6859 0.0956 0.1476
C38 C 0.9237(18) 0.1601(13) 0.1280(3)
H19 H 0.8555 0.2181 0.1324
H20 H 0.9520 0.1759 0.1114
N19 N 0.4667(14) 0.5210(9) 0.1195(2)
C27 C 0.4955(15) 0.5732(12) 0.1427(3)
H8 H 0.4667 0.5378 0.1572
C28 C 0.5669(16) 0.6781(12) 0.1453(3)
H9 H 0.5795 0.7161 0.1610
C29 C 0.6199(15) 0.7260(11) 0.1238(3)
C30 C 0.5863(15) 0.6707(11) 0.1003(3)
H10 H 0.6144 0.7033 0.0854
C31 C 0.5112(14) 0.5672(11) 0.0989(2)
H11 H 0.4917 0.5297 0.0832
C33 C 0.6457(15) 0.9314(11) 0.1381(3)
H13 H 0.5575 0.9239 0.1457
C34 C 0.7028(15) 0.8389(12) 0.1257(3)
C35 C 0.8313(16) 0.8508(12) 0.1141(3)
H14 H 0.8676 0.7900 0.1053
C36 C 0.9083(16) 0.9582(12) 0.1158(3)
H15 H 0.9985 0.9677 0.1089
C37 C 0.3928(17) 0.4074(12) 0.1183(3)
H16 H 0.3414 0.3945 0.1013
H17 H 0.3209 0.4047 0.1304
H18 H 0.4683 0.3494 0.1225
N19_2 N 0.5333(14) 0.0210(9) 0.3805(2)
C27_2 C 0.5045(15) 0.0732(12) 0.3573(3)
H8_2 H 0.5333 0.0378 0.3428
C28_2 C 0.4331(16) 0.1781(12) 0.3547(3)
H9_2 H 0.4205 0.2161 0.3390
C29_2 C 0.3801(15) 0.2260(11) 0.3762(3)
C30_2 C 0.4137(15) 0.1707(11) 0.3997(3)
H10_2 H 0.3856 0.2033 0.4146
C31_2 C 0.4888(14) 0.0672(11) 0.4011(2)
H11_2 H 0.5083 0.0297 0.4168
N20_2 N 0.1535(12) 0.5456(9) 0.3724(2)
C32_2 C 0.2784(16) 0.5339(12) 0.3610(3)
H12_2 H 0.3141 0.5956 0.3524
C33_2 C 0.3543(15) 0.4314(11) 0.3619(3)
H13_2 H 0.4425 0.4239 0.3543
C34_2 C 0.2972(15) 0.3389(12) 0.3743(3)
C35_2 C 0.1687(16) 0.3508(12) 0.3859(3)
H14_2 H 0.1324 0.2900 0.3947
C36_2 C 0.0917(16) 0.4582(12) 0.3842(3)
H15_2 H 0.0015 0.4677 0.3911
C38_2 C 0.0763(18) 0.6601(13) 0.3720(3)
H19_2 H 0.1445 0.7181 0.3676
H20_2 H 0.0480 0.6759 0.3886
C37_2 C 0.6072(17) 0.9074(12) 0.3817(3)
H16_2 H 0.6586 0.8945 0.3987
H17_2 H 0.6791 0.9047 0.3696
H18_2 H 0.5317 0.8494 0.3775
H21_2 H 0.9872 0.6592 0.3594
N19_3 N 0.5333(14) 0.4790(9) 0.8805(2)
C27_3 C 0.5045(15) 0.4268(12) 0.8573(3)
H8_3 H 0.5333 0.4622 0.8428
C28_3 C 0.4331(16) 0.3219(12) 0.8547(3)
H9_3 H 0.4205 0.2839 0.8390
C29_3 C 0.3801(15) 0.2740(11) 0.8762(3)
C30_3 C 0.4137(15) 0.3293(11) 0.8997(3)
H10_3 H 0.3856 0.2967 0.9146
C31_3 C 0.4888(14) 0.4328(11) 0.9011(2)
H11_3 H 0.5083 0.4703 0.9168
C33_3 C 0.3543(15) 0.0686(11) 0.8619(3)
H13_3 H 0.4425 0.0761 0.8543
C34_3 C 0.2972(15) 0.1611(12) 0.8743(3)
C35_3 C 0.1687(16) 0.1492(12) 0.8859(3)
H14_3 H 0.1324 0.2100 0.8947
C36_3 C 0.0917(16) 0.0418(12) 0.8842(3)
H15_3 H 0.0015 0.0323 0.8911
C37_3 C 0.6072(17) 0.5926(12) 0.8817(3)
H16_3 H 0.6586 0.6055 0.8987
H17_3 H 0.6791 0.5953 0.8696
H18_3 H 0.5317 0.6506 0.8775
N20_3 N 0.1535(12) 0.9544(9) 0.8724(2)
C32_3 C 0.2784(16) 0.9661(12) 0.8610(3)
H12_3 H 0.3141 0.9044 0.8524
C38_3 C 0.0763(18) 0.8399(13) 0.8720(3)
H19_3 H 0.1445 0.7819 0.8676
H20_3 H 0.0480 0.8241 0.8886
H21_3 H 0.9872 0.8408 0.8594
H21_4 H 0.0128 0.3408 0.6406
C37_4 C 0.3928(17) 0.0926(12) 0.6183(3)
H16_4 H 0.3414 0.1055 0.6013
H17_4 H 0.3209 0.0953 0.6304
H18_4 H 0.4683 0.1506 0.6225
N19_4 N 0.4667(14) 0.9790(9) 0.6195(2)
C27_4 C 0.4955(15) 0.9268(12) 0.6427(3)
H8_4 H 0.4667 0.9622 0.6572
C28_4 C 0.5669(16) 0.8219(12) 0.6453(3)
H9_4 H 0.5795 0.7839 0.6610
C29_4 C 0.6199(15) 0.7740(11) 0.6238(3)
C30_4 C 0.5863(15) 0.8293(11) 0.6003(3)
H10_4 H 0.6144 0.7967 0.5854
C31_4 C 0.5112(14) 0.9328(11) 0.5989(2)
H11_4 H 0.4917 0.9703 0.5832
N20_4 N 0.8465(12) 0.4544(9) 0.6276(2)
C32_4 C 0.7216(16) 0.4661(12) 0.6390(3)
H12_4 H 0.6859 0.4044 0.6476
C33_4 C 0.6457(15) 0.5686(11) 0.6381(3)
H13_4 H 0.5575 0.5761 0.6457
C34_4 C 0.7028(15) 0.6611(12) 0.6257(3)
C35_4 C 0.8313(16) 0.6492(12) 0.6141(3)
H14_4 H 0.8676 0.7100 0.6053
C36_4 C 0.9083(16) 0.5418(12) 0.6158(3)
H15_4 H 0.9985 0.5323 0.6089
C38_4 C 0.9237(18) 0.3399(13) 0.6280(3)
H19_4 H 0.8555 0.2819 0.6324
H20_4 H 0.9520 0.3241 0.6114
loop_
_geom_bond_atom_site_label_1
_geom_bond_atom_site_label_2
_geom_bond_site_symmetry_1
_geom_bond_site_symmetry_2
Cd1 N1 1_555 1_555
Cd2 C1 1_555 1_555
Cd4 C2 1_555 1_555
C1 N1 1_555 1_555
C2 N2 1_555 1_555
N2 Cd1 1_555 1_555
C4 N4 1_555 1_555
N4 Cd1 1_555 1_555
C23 N6 1_555 1_555
N6 Cd1 1_555 1_555
C7 N7 1_555 1_555
N7 Cd2 1_555 1_555
C8 N8 1_555 1_555
N8 Cd2 1_555 1_555
N9 Cd2 1_555 1_555
C10 N10 1_555 1_555
N10 Cd2 1_555 1_555
C11 Cd4 1_555 1_555
N11 C11 1_555 1_555
C14 Cd4 1_555 1_555
N14 C14 1_555 1_555
N15 Cd2 1_555 1_555
H1 N15 1_555 1_555
H2 N15 1_555 1_555
C15 N15 1_555 1_555
C16 C15 1_555 1_555
H3 C16 1_555 1_555
C17 C16 1_555 1_555
C18 C17 1_555 1_555
H5 C18 1_555 1_555
C19 C18 1_555 1_555
H6 C19 1_555 1_555
C20 C15 1_555 1_555
H7 C20 1_555 1_555
Cd7 C10 1_555 1_555
Cd11 C13 1_555 1_555
Cd14 N14 1_555 1_555
N11 Cd7 1_555 1_555
C19 C20 1_555 1_555
C5 N5 1_555 1_555
Cd9 C9 1_555 1_555
Cd14 C5 1_555 1_555
C12 Cd7 1_555 1_555
N12 C12 1_555 1_555
N13 Cd7 1_555 1_555
Cd9 N12 1_555 1_555
Cd14 C3 1_555 1_555
C26 Cd9 1_555 1_555
N12_2 C12_2 1_555 1_555
Cd11 N12_2 1_555 1_555
Cd6 C3_2 1_555 1_555
N13_2 Cd3 1_555 1_555
C21_2 Cd6 1_555 1_555
C22 Cd6 1_555 1_555
C24 Cd11 1_555 1_555
C25 Cd3 1_555 1_555
N16 Cd3 1_555 1_555
N18 Cd6 1_555 1_555
N18 C14_2 1_555 1_555
Cd1_2 N1_2 1_555 1_555
Cd2_2 C1_2 1_555 1_555
Cd8 C2_2 1_555 1_555
C1_2 N1_2 1_555 1_555
C2_2 N2_2 1_555 1_555
N2_2 Cd1_2 1_555 1_555
N3_2 Cd1_2 1_555 1_555
C4_2 N4_2 1_555 1_555
N4_2 Cd1_2 1_555 1_555
C22 N5_2 1_555 1_555
N5_2 Cd1_2 1_555 1_555
C6 N6_2 1_555 1_555
N6_2 Cd1_2 1_555 1_555
C7_2 N7_2 1_555 1_555
N7_2 Cd2_2 1_555 1_555
C8_2 N8_2 1_555 1_555
N8_2 Cd2_2 1_555 1_555
C24 N9_2 1_555 1_555
N9_2 Cd2_2 1_555 1_555
C25 N10_2 1_555 1_555
N10_2 Cd2_2 1_555 1_555
C11_2 Cd8 1_555 1_555
N16 C11_2 1_555 1_555
N15_2 Cd2_2 1_555 1_555
H1_2 N15_2 1_555 1_555
H2_2 N15_2 1_555 1_555
C15_2 N15_2 1_555 1_555
C16_2 C15_2 1_555 1_555
H3_2 C16_2 1_555 1_555
C17_2 C16_2 1_555 1_555
H4_2 C17_2 1_555 1_555
C18_2 C17_2 1_555 1_555
H5_2 C18_2 1_555 1_555
C19_2 C18_2 1_555 1_555
H6_2 C19_2 1_555 1_555
C20_2 C15_2 1_555 1_555
H7_2 C20_2 1_555 1_555
Cd12_2 C4_2 1_555 1_555
C19_2 C20_2 1_555 1_555
Cd12 C3_3 1_555 1_555
C22_2 Cd12 1_555 1_555
C24_2 Cd5 1_555 1_555
N17 Cd5 1_555 1_555
C26_2 Cd5 1_555 1_555
N18_2 Cd12 1_555 1_555
C12_3 Cd3_2 1_555 1_555
N17 C12_3 1_555 1_555
N13_3 Cd3_2 1_555 1_555
C25_2 Cd3_2 1_555 1_555
N16_2 Cd3_2 1_555 1_555
C22_2 N5_3 1_555 1_555
Cd1_3 N1_3 1_555 1_555
Cd2_3 C1_3 1_555 1_555
Cd8_2 C2_3 1_555 1_555
C1_3 N1_3 1_555 1_555
C2_3 N2_3 1_555 1_555
N2_3 Cd1_3 1_555 1_555
C21 N4_3 1_555 1_555
N4_3 Cd1_3 1_555 1_555
C6_2 N6_3 1_555 1_555
N6_3 Cd1_3 1_555 1_555
C7_3 N7_3 1_555 1_555
N7_3 Cd2_3 1_555 1_555
C8_3 N8_3 1_555 1_555
N8_3 Cd2_3 1_555 1_555
N9_3 Cd2_3 1_555 1_555
C25_2 N10_3 1_555 1_555
N10_3 Cd2_3 1_555 1_555
C11_3 Cd8_2 1_555 1_555
N16_2 C11_3 1_555 1_555
C14_3 Cd8_2 1_555 1_555
N18_2 C14_3 1_555 1_555
N15_3 Cd2_3 1_555 1_555
H1_3 N15_3 1_555 1_555
H2_3 N15_3 1_555 1_555
C15_3 N15_3 1_555 1_555
C16_3 C15_3 1_555 1_555
H3_3 C16_3 1_555 1_555
C17_3 C16_3 1_555 1_555
C18_3 C17_3 1_555 1_555
H5_3 C18_3 1_555 1_555
C19_3 C18_3 1_555 1_555
H6_3 C19_3 1_555 1_555
C20_3 C15_3 1_555 1_555
H7_3 C20_3 1_555 1_555
Cd11_2 C13_2 1_555 1_555
C19_3 C20_3 1_555 1_555
Cd1_4 N1_4 1_555 1_555
Cd2_4 C1_4 1_555 1_555
Cd4_2 C2_4 1_555 1_555
C1_4 N1_4 1_555 1_555
C2_4 N2_4 1_555 1_555
N2_4 Cd1_4 1_555 1_555
N3_4 Cd1_4 1_555 1_555
C21_2 N4_4 1_555 1_555
N4_4 Cd1_4 1_555 1_555
C5_2 N5_4 1_555 1_555
N5_4 Cd1_4 1_555 1_555
C23_2 N6_4 1_555 1_555
N6_4 Cd1_4 1_555 1_555
C7_4 N7_4 1_555 1_555
N7_4 Cd2_4 1_555 1_555
C8_4 N8_4 1_555 1_555
N8_4 Cd2_4 1_555 1_555
C9_2 N9_4 1_555 1_555
N9_4 Cd2_4 1_555 1_555
C10_2 N10_4 1_555 1_555
N10_4 Cd2_4 1_555 1_555
C11_4 Cd4_2 1_555 1_555
N11_2 C11_4 1_555 1_555
N15_4 Cd2_4 1_555 1_555
H1_4 N15_4 1_555 1_555
H2_4 N15_4 1_555 1_555
C15_4 N15_4 1_555 1_555
C16_4 C15_4 1_555 1_555
H3_4 C16_4 1_555 1_555
C17_4 C16_4 1_555 1_555
H4_4 C17_4 1_555 1_555
C18_4 C17_4 1_555 1_555
H5_4 C18_4 1_555 1_555
C19_4 C18_4 1_555 1_555
H6_4 C19_4 1_555 1_555
C20_4 C15_4 1_555 1_555
H7_4 C20_4 1_555 1_555
Cd7_2 C10_2 1_555 1_555
Cd11_2 C9_2 1_555 1_555
Cd12_2 C5_2 1_555 1_555
N11_2 Cd7_2 1_555 1_555
C19_4 C20_4 1_555 1_555
N14_2 C14_4 1_555 1_555
Cd12_2 N14_2 1_555 1_555
Cd12_2 C3_4 1_555 1_555
N13_4 Cd7_2 1_555 1_555
N17_2 Cd11_2 1_555 1_555
N17_2 C12_4 1_555 1_555
N20 C32 1_555 1_555
C32 H12 1_555 1_555
C38 N20 1_555 1_555
H19 C38 1_555 1_555
H20 C38 1_555 1_555
N19 C27 1_555 1_555
C27 H8 1_555 1_555
C28 C27 1_555 1_555
H9 C28 1_555 1_555
C29 C28 1_555 1_555
C30 C29 1_555 1_555
H10 C30 1_555 1_555
C31 N19 1_555 1_555
H11 C31 1_555 1_555
H13 C33 1_555 1_555
C34 C29 1_555 1_555
C35 C34 1_555 1_555
H14 C35 1_555 1_555
H15 C36 1_555 1_555
C37 N19 1_555 1_555
H16 C37 1_555 1_555
H17 C37 1_555 1_555
H18 C37 1_555 1_555
C30 C31 1_555 1_555
C33 C34 1_555 1_555
C35 C36 1_555 1_555
N19_2 C27_2 1_555 1_555
C27_2 H8_2 1_555 1_555
C28_2 C27_2 1_555 1_555
H9_2 C28_2 1_555 1_555
C29_2 C28_2 1_555 1_555
C30_2 C29_2 1_555 1_555
H10_2 C30_2 1_555 1_555
C31_2 N19_2 1_555 1_555
H11_2 C31_2 1_555 1_555
N20_2 C32_2 1_555 1_555
C32_2 H12_2 1_555 1_555
C33_2 C32_2 1_555 1_555
H13_2 C33_2 1_555 1_555
C34_2 C29_2 1_555 1_555
C35_2 C34_2 1_555 1_555
H14_2 C35_2 1_555 1_555
C36_2 N20_2 1_555 1_555
H15_2 C36_2 1_555 1_555
C38_2 N20_2 1_555 1_555
H19_2 C38_2 1_555 1_555
H20_2 C38_2 1_555 1_555
C30_2 C31_2 1_555 1_555
C33_2 C34_2 1_555 1_555
C35_2 C36_2 1_555 1_555
H16_2 C37_2 1_555 1_555
H17_2 C37_2 1_555 1_555
H18_2 C37_2 1_555 1_555
N19_3 C27_3 1_555 1_555
C27_3 H8_3 1_555 1_555
C28_3 C27_3 1_555 1_555
H9_3 C28_3 1_555 1_555
C29_3 C28_3 1_555 1_555
C30_3 C29_3 1_555 1_555
H10_3 C30_3 1_555 1_555
C31_3 N19_3 1_555 1_555
H11_3 C31_3 1_555 1_555
H13_3 C33_3 1_555 1_555
C34_3 C29_3 1_555 1_555
C35_3 C34_3 1_555 1_555
H14_3 C35_3 1_555 1_555
H15_3 C36_3 1_555 1_555
C37_3 N19_3 1_555 1_555
H16_3 C37_3 1_555 1_555
H17_3 C37_3 1_555 1_555
H18_3 C37_3 1_555 1_555
C30_3 C31_3 1_555 1_555
C33_3 C34_3 1_555 1_555
C35_3 C36_3 1_555 1_555
N20_3 C32_3 1_555 1_555
C32_3 H12_3 1_555 1_555
C38_3 N20_3 1_555 1_555
H19_3 C38_3 1_555 1_555
H20_3 C38_3 1_555 1_555
H16_4 C37_4 1_555 1_555
H17_4 C37_4 1_555 1_555
H18_4 C37_4 1_555 1_555
N19_4 C27_4 1_555 1_555
C27_4 H8_4 1_555 1_555
C28_4 C27_4 1_555 1_555
H9_4 C28_4 1_555 1_555
C29_4 C28_4 1_555 1_555
C30_4 C29_4 1_555 1_555
H10_4 C30_4 1_555 1_555
C31_4 N19_4 1_555 1_555
H11_4 C31_4 1_555 1_555
N20_4 C32_4 1_555 1_555
C32_4 H12_4 1_555 1_555
C33_4 C32_4 1_555 1_555
H13_4 C33_4 1_555 1_555
C34_4 C29_4 1_555 1_555
C35_4 C34_4 1_555 1_555
H14_4 C35_4 1_555 1_555
C36_4 N20_4 1_555 1_555
H15_4 C36_4 1_555 1_555
C38_4 N20_4 1_555 1_555
H19_4 C38_4 1_555 1_555
H20_4 C38_4 1_555 1_555
C30_4 C31_4 1_555 1_555
C33_4 C34_4 1_555 1_555
C35_4 C36_4 1_555 1_555

#END
