
###############################################################################
#
# This file contains modified crystal structure data generated from the
# MOF subset of the Cambridge Structural Database (CSD) v543 
# hosted by the Cambridge Crystallographic Data Centre (CCDC).
#
# This work is licensed under the Creative Commons
# Attribution-NonCommercial-ShareAlike 4.0 International License.
# To view a copy of this license, visit
# http://creativecommons.org/licenses/by-nc-sa/4.0/
# or send a letter to
# Creative Commons, PO Box 1866, Mountain View, CA 94042, USA.
#
# CIF created using the CSD Python API on 29 September 2022
# The structure has been converted into the P1 space group
# The structure has a 3D framework
# The original CSD entry YAWWOM is in the hexagonal crystal system
# The original CSD entry YAWWOM is in a Sohncke space group
# The framework has been calculated to contain at least 10.0% void space
# The void calculation uses a probe of radius 1.32A, grid spacing 0.4
#
###############################################################################

data_YAWWOM
_chemical_formula_moiety         '(C168 H120 Cl10 N12 Ni5 O24)n'
_symmetry_cell_setting           triclinic
_symmetry_space_group_name_H-M   'P 1'
_symmetry_Int_Tables_number      1
_space_group_name_Hall           'P 1'
loop_
_symmetry_equiv_pos_site_id
_symmetry_equiv_pos_as_xyz
1 x,y,z
_cell_length_a                   21.5232(7)
_cell_length_b                   21.5232(7)
_cell_length_c                   15.8169(5)
_cell_angle_alpha                90
_cell_angle_beta                 90
_cell_angle_gamma                120
_cell_volume                     6345.5
loop_
_atom_site_label
_atom_site_type_symbol
_atom_site_fract_x
_atom_site_fract_y
_atom_site_fract_z
Ni3 Ni -0.000000 0.500000 0.833333
Ni1 Ni 0.500000 -0.000000 0.500000
Cl1 Cl 0.500000 -0.000000 0.65154(8)
O5 O 0.4670(3) 0.3052(2) 0.5233(2)
O6 O 0.3739(2) 0.2459(2) 0.4407(2)
N3 N 0.4702(2) 0.0793(2) 0.4997(2)
C29 C 0.4233(3) 0.2506(3) 0.4798(3)
C30 C 0.5010(3) 0.1358(3) 0.5503(3)
H21 H 0.534341 0.138097 0.591408
C31 C 0.4868(3) 0.1918(3) 0.5459(3)
H22 H 0.510205 0.230986 0.584013
C32 C 0.4220(3) 0.0769(3) 0.4411(3)
H23 H 0.398069 0.036300 0.405171
C33 C 0.4394(3) 0.1921(3) 0.4876(3)
C34 C 0.5015(4) 0.4130(4) 0.5987(3)
C35 C 0.4074(3) 0.1333(3) 0.4332(3)
H24 H 0.375438 0.131403 0.390530
C36 C 0.5960(5) 0.5015(5) 0.4965(4)
H25 H 0.568844 0.476842 0.447918
C37 C 0.5654(5) 0.4754(4) 0.5826(3)
C38 C 0.6112(4) 0.5197(4) 0.6514(4)
C39 C 0.6765(4) 0.5807(5) 0.6325(4)
H26 H 0.705758 0.609917 0.677480
C40 C 0.4577(4) 0.3694(4) 0.5271(3)
H27 H 0.474125 0.397116 0.473770
H28 H 0.406574 0.354666 0.535947
C41 C 0.6996(5) 0.5994(5) 0.5517(4)
H29 H 0.743880 0.641915 0.540810
C42 C 0.6600(6) 0.5581(5) 0.4873(5)
H30 H 0.679276 0.570479 0.431800
O7 O 0.6948(2) 0.5330(3) 0.8100(2)
O8 O 0.7541(2) 0.6261(2) 0.8926(2)
N4 N 0.9207(2) 0.5298(2) 0.8336(2)
C43 C 0.7494(3) 0.5767(3) 0.8535(3)
C44 C 0.8642(3) 0.4990(3) 0.7830(3)
H31 H 0.861903 0.465659 0.741925
C45 C 0.8082(3) 0.5132(3) 0.7874(3)
H32 H 0.769014 0.489795 0.749320
C46 C 0.9231(3) 0.5780(3) 0.8922(3)
H33 H 0.963700 0.601931 0.928162
C47 C 0.8079(3) 0.5606(3) 0.8457(3)
C48 C 0.5870(4) 0.4985(4) 0.7346(3)
C49 C 0.8667(3) 0.5926(3) 0.9001(3)
H34 H 0.868597 0.624562 0.942803
C50 C 0.4985(5) 0.4040(5) 0.8368(4)
H35 H 0.523158 0.431156 0.885415
C51 C 0.5246(4) 0.4346(5) 0.7507(3)
C52 C 0.4803(4) 0.3888(4) 0.6819(4)
C53 C 0.4193(5) 0.3235(4) 0.7008(4)
H36 H 0.390083 0.294242 0.655853
C54 C 0.6306(4) 0.5423(4) 0.8062(3)
H37 H 0.602884 0.525875 0.859563
H38 H 0.645334 0.593426 0.797386
C55 C 0.4006(5) 0.3004(5) 0.7816(4)
H39 H 0.358085 0.256120 0.792523
C56 C 0.4419(5) 0.3400(6) 0.8460(5)
H40 H 0.429521 0.320724 0.901533
Cl2 Cl 0.500000 -0.000000 0.34846(8)
Ni3_2 Ni 1.000000 0.500000 0.833333
N5 N 0.6091(3) 0.0793(2) 0.5003(2)
Ni1_2 Ni 0.500000 1.000000 0.500000
Cl1_2 Cl 0.500000 1.000000 0.65154(8)
O1 O 0.5330(3) 0.6948(2) 0.5233(2)
O2 O 0.6261(2) 0.7541(2) 0.4407(2)
N1 N 0.5298(2) 0.9207(2) 0.4997(2)
C1 C 0.5767(3) 0.7494(3) 0.4798(3)
C2 C 0.4990(3) 0.8642(3) 0.5503(3)
H1 H 0.465659 0.861903 0.591408
C3 C 0.5132(3) 0.8082(3) 0.5459(3)
H2 H 0.489795 0.769014 0.584013
C4 C 0.5780(3) 0.9231(3) 0.4411(3)
H3 H 0.601931 0.963700 0.405171
C5 C 0.5606(3) 0.8079(3) 0.4876(3)
C6 C 0.4985(4) 0.5870(4) 0.5987(3)
C7 C 0.5926(3) 0.8667(3) 0.4332(3)
H4 H 0.624562 0.868597 0.390530
C8 C 0.4040(5) 0.4985(5) 0.4965(4)
H5 H 0.431156 0.523158 0.447918
C9 C 0.4346(5) 0.5246(4) 0.5826(3)
C10 C 0.3888(4) 0.4803(4) 0.6514(4)
C11 C 0.3235(4) 0.4193(5) 0.6325(4)
H6 H 0.294242 0.390083 0.677480
C12 C 0.5423(4) 0.6306(4) 0.5271(3)
H7 H 0.525875 0.602884 0.473770
H8 H 0.593426 0.645334 0.535947
C13 C 0.3004(5) 0.4006(5) 0.5517(4)
H9 H 0.256120 0.358085 0.540810
C14 C 0.3400(6) 0.4419(5) 0.4873(5)
H10 H 0.320724 0.429521 0.431800
O3 O 0.3052(2) 0.4670(3) 0.8100(2)
O4 O 0.2459(2) 0.3739(2) 0.8926(2)
N2 N 0.0793(2) 0.4702(2) 0.8336(2)
C15 C 0.2506(3) 0.4233(3) 0.8535(3)
C16 C 0.1358(3) 0.5010(3) 0.7830(3)
H11 H 0.138097 0.534341 0.741925
C17 C 0.1918(3) 0.4868(3) 0.7874(3)
H12 H 0.230986 0.510205 0.749320
C18 C 0.0769(3) 0.4220(3) 0.8922(3)
H13 H 0.036300 0.398069 0.928162
C19 C 0.1921(3) 0.4394(3) 0.8457(3)
C20 C 0.4130(4) 0.5015(4) 0.7346(3)
C21 C 0.1333(3) 0.4074(3) 0.9001(3)
H14 H 0.131403 0.375438 0.942803
C22 C 0.5015(5) 0.5960(5) 0.8368(4)
H15 H 0.476842 0.568844 0.885415
C23 C 0.4754(4) 0.5654(5) 0.7507(3)
C24 C 0.5197(4) 0.6112(4) 0.6819(4)
C25 C 0.5807(5) 0.6765(4) 0.7008(4)
H16 H 0.609917 0.705758 0.655853
C26 C 0.3694(4) 0.4577(4) 0.8062(3)
H17 H 0.397116 0.474125 0.859563
H18 H 0.354666 0.406574 0.797386
C27 C 0.5994(5) 0.6996(5) 0.7816(4)
H19 H 0.641915 0.743880 0.792523
C28 C 0.5581(5) 0.6600(6) 0.8460(5)
H20 H 0.570479 0.679276 0.901533
Cl2_2 Cl 0.500000 1.000000 0.34846(8)
N6 N 0.3909(3) 0.9207(2) 0.5003(2)
H6_2 H 0.609917 0.904159 0.010813
O3_2 O 0.5330(3) 0.8382(4) 0.1434(2)
O4_2 O 0.6261(2) 0.8720(3) 0.2260(2)
N2_2 N 0.5298(2) 0.6091(3) 0.1670(2)
C15_2 C 0.5767(3) 0.8273(4) 0.1869(3)
C16_2 C 0.4990(3) 0.6348(4) 0.1164(3)
H11_2 H 0.465659 0.603756 0.075259
C17_2 C 0.5132(3) 0.7050(4) 0.1208(3)
H12_2 H 0.489795 0.720781 0.082654
C18_2 C 0.5780(3) 0.6549(4) 0.2256(3)
H13_2 H 0.601931 0.638231 0.261496
C19_2 C 0.5606(3) 0.7527(4) 0.1791(3)
C20_2 C 0.4985(4) 0.9115(6) 0.0680(3)
C21_2 C 0.5926(3) 0.7259(4) 0.2335(3)
H14_2 H 0.624562 0.755965 0.276137
C22_2 C 0.4040(5) 0.9055(7) 0.1702(4)
H15_2 H 0.431156 0.907998 0.218749
C23_2 C 0.4346(5) 0.9100(6) 0.0841(3)
C24_2 C 0.3888(4) 0.9085(6) 0.0153(4)
C25_2 C 0.3235(4) 0.9042(6) 0.0342(4)
C26_2 C 0.5423(4) 0.9117(6) 0.1396(3)
H17_2 H 0.525875 0.922991 0.192897
H18_2 H 0.593426 0.948092 0.130720
C27_2 C 0.3004(5) 0.8998(7) 0.1150(4)
H19_2 H 0.256120 0.898035 0.125857
C28_2 C 0.3400(6) 0.8981(8) 0.1794(5)
H20_2 H 0.320724 0.891203 0.234867
Ni2 Ni 0.500000 0.500000 0.166667
Cl1_3 Cl 0.000000 0.500000 0.98487(8)
O1_2 O 0.3052(2) 0.8382(4) 0.8566(2)
O2_2 O 0.2459(2) 0.8720(3) 0.7740(2)
N1_2 N 0.0793(2) 0.6091(3) 0.8330(2)
C1_2 C 0.2506(3) 0.8273(4) 0.8131(3)
C2_2 C 0.1358(3) 0.6348(4) 0.8836(3)
H1_2 H 0.138097 0.603756 0.924741
C3_2 C 0.1918(3) 0.7050(4) 0.8792(3)
H2_2 H 0.230986 0.720781 0.917346
C4_2 C 0.0769(3) 0.6549(4) 0.7744(3)
H3_2 H 0.036300 0.638231 0.738504
C5_2 C 0.1921(3) 0.7527(4) 0.8209(3)
C6_2 C 0.4130(4) 0.9115(6) 0.9320(3)
C7_2 C 0.1333(3) 0.7259(4) 0.7665(3)
H4_2 H 0.131403 0.755965 0.723863
C8_2 C 0.5015(5) 0.9055(7) 0.8298(4)
H5_2 H 0.476842 0.907998 0.781251
C9_2 C 0.4754(4) 0.9100(6) 0.9159(3)
C10_2 C 0.5197(4) 0.9085(6) 0.9847(4)
C11_2 C 0.5807(5) 0.9042(6) 0.9658(4)
C12_2 C 0.3694(4) 0.9117(6) 0.8604(3)
H7_2 H 0.397116 0.922991 0.807103
H8_2 H 0.354666 0.948092 0.869280
C13_2 C 0.5994(5) 0.8998(7) 0.8850(4)
H9_2 H 0.641915 0.898035 0.874143
C14_2 C 0.5581(5) 0.8981(8) 0.8206(5)
H10_2 H 0.570479 0.891203 0.765133
H16_2 H 0.294242 0.904159 0.989187
Cl2_3 Cl 0.000000 0.500000 0.68179(8)
H26_2 H 0.390083 0.095841 0.010813
O7_2 O 0.4670(3) 0.1618(4) 0.1434(2)
O8_2 O 0.3739(2) 0.1280(3) 0.2260(2)
N4_2 N 0.4702(2) 0.3909(3) 0.1670(2)
C43_2 C 0.4233(3) 0.1727(4) 0.1869(3)
C44_2 C 0.5010(3) 0.3652(4) 0.1164(3)
H31_2 H 0.534341 0.396244 0.075259
C45_2 C 0.4868(3) 0.2950(4) 0.1208(3)
H32_2 H 0.510205 0.279219 0.082654
C46_2 C 0.4220(3) 0.3451(4) 0.2256(3)
H33_2 H 0.398069 0.361769 0.261496
C47_2 C 0.4394(3) 0.2473(4) 0.1791(3)
C48_2 C 0.5015(4) 0.0885(6) 0.0680(3)
C49_2 C 0.4074(3) 0.2741(4) 0.2335(3)
H34_2 H 0.375438 0.244035 0.276137
C50_2 C 0.5960(5) 0.0945(7) 0.1702(4)
H35_2 H 0.568844 0.092002 0.218749
C51_2 C 0.5654(5) 0.0900(6) 0.0841(3)
C52_2 C 0.6112(4) 0.0915(6) 0.0153(4)
C53_2 C 0.6765(4) 0.0958(6) 0.0342(4)
C54_2 C 0.4577(4) 0.0883(6) 0.1396(3)
H37_2 H 0.474125 0.077009 0.192897
H38_2 H 0.406574 0.051908 0.130720
C55_2 C 0.6996(5) 0.1002(7) 0.1150(4)
H39_2 H 0.743880 0.101965 0.125857
C56_2 C 0.6600(6) 0.1019(8) 0.1794(5)
H40_2 H 0.679276 0.108797 0.234867
Cl1_4 Cl 1.000000 0.500000 0.98487(8)
O5_2 O 0.6948(2) 0.1618(4) 0.8566(2)
O6_2 O 0.7541(2) 0.1280(3) 0.7740(2)
N3_2 N 0.9207(2) 0.3909(3) 0.8330(2)
C29_2 C 0.7494(3) 0.1727(4) 0.8131(3)
C30_2 C 0.8642(3) 0.3652(4) 0.8836(3)
H21_2 H 0.861903 0.396244 0.924741
C31_2 C 0.8082(3) 0.2950(4) 0.8792(3)
H22_2 H 0.769014 0.279219 0.917346
C32_2 C 0.9231(3) 0.3451(4) 0.7744(3)
H23_2 H 0.963700 0.361769 0.738504
C33_2 C 0.8079(3) 0.2473(4) 0.8209(3)
C34_2 C 0.5870(4) 0.0885(6) 0.9320(3)
C35_2 C 0.8667(3) 0.2741(4) 0.7665(3)
H24_2 H 0.868597 0.244035 0.723863
C36_2 C 0.4985(5) 0.0945(7) 0.8298(4)
H25_2 H 0.523158 0.092002 0.781251
C37_2 C 0.5246(4) 0.0900(6) 0.9159(3)
C38_2 C 0.4803(4) 0.0915(6) 0.9847(4)
C39_2 C 0.4193(5) 0.0958(6) 0.9658(4)
C40_2 C 0.6306(4) 0.0883(6) 0.8604(3)
H27_2 H 0.602884 0.077009 0.807103
H28_2 H 0.645334 0.051908 0.869280
C41_2 C 0.4006(5) 0.1002(7) 0.8850(4)
H29_2 H 0.358085 0.101965 0.874143
C42_2 C 0.4419(5) 0.1019(8) 0.8206(5)
H30_2 H 0.429521 0.108797 0.765133
H36_2 H 0.705758 0.095841 0.989187
Cl2_4 Cl 1.000000 0.500000 0.68179(8)
Cl1_5 Cl 0.500000 0.500000 0.31821(8)
O1_3 O 0.1618(4) 0.4670(3) 0.1900(2)
O2_3 O 0.1280(3) 0.3739(2) 0.1074(2)
N1_3 N 0.3909(3) 0.4702(2) 0.1664(2)
C1_3 C 0.1727(4) 0.4233(3) 0.1465(3)
C2_3 C 0.3652(4) 0.5010(3) 0.2170(3)
H1_3 H 0.396244 0.534341 0.258075
C3_3 C 0.2950(4) 0.4868(3) 0.2126(3)
H2_3 H 0.279219 0.510205 0.250680
C4_3 C 0.3451(4) 0.4220(3) 0.1078(3)
H3_3 H 0.361769 0.398069 0.071838
C5_3 C 0.2473(4) 0.4394(3) 0.1543(3)
C6_3 C 0.0885(6) 0.5015(4) 0.2654(3)
C7_3 C 0.2741(4) 0.4074(3) 0.0999(3)
H4_3 H 0.244035 0.375438 0.057197
C8_3 C 0.0945(7) 0.5960(5) 0.1632(4)
H5_3 H 0.092002 0.568844 0.114585
C9_3 C 0.0900(6) 0.5654(5) 0.2493(3)
C10_3 C 0.0915(6) 0.6112(4) 0.3181(4)
C11_3 C 0.0958(6) 0.6765(4) 0.2992(4)
H6_3 H 0.095841 0.705758 0.344147
C12_3 C 0.0883(6) 0.4577(4) 0.1938(3)
H7_3 H 0.077009 0.474125 0.140437
H8_3 H 0.051908 0.406574 0.202614
C13_3 C 0.1002(7) 0.6996(5) 0.2184(4)
H9_3 H 0.101965 0.743880 0.207477
C14_3 C 0.1019(8) 0.6600(6) 0.1540(5)
H10_3 H 0.108797 0.679276 0.098467
O3_3 O 0.1618(4) 0.6948(2) 0.4767(2)
O4_3 O 0.1280(3) 0.7541(2) 0.5593(2)
C15_3 C 0.1727(4) 0.7494(3) 0.5202(3)
C16_3 C 0.3652(4) 0.8642(3) 0.4497(3)
H11_3 H 0.396244 0.861903 0.408592
C17_3 C 0.2950(4) 0.8082(3) 0.4541(3)
H12_3 H 0.279219 0.769014 0.415987
C18_3 C 0.3451(4) 0.9231(3) 0.5589(3)
H13_3 H 0.361769 0.963700 0.594829
C19_3 C 0.2473(4) 0.8079(3) 0.5124(3)
C20_3 C 0.0885(6) 0.5870(4) 0.4013(3)
C21_3 C 0.2741(4) 0.8667(3) 0.5668(3)
H14_3 H 0.244035 0.868597 0.609470
C22_3 C 0.0945(7) 0.4985(5) 0.5035(4)
H15_3 H 0.092002 0.523158 0.552082
C23_3 C 0.0900(6) 0.5246(4) 0.4174(3)
C24_3 C 0.0915(6) 0.4803(4) 0.3486(4)
C25_3 C 0.0958(6) 0.4193(5) 0.3675(4)
H16_3 H 0.095841 0.390083 0.322520
C26_3 C 0.0883(6) 0.6306(4) 0.4729(3)
H17_3 H 0.077009 0.602884 0.526230
H18_3 H 0.051908 0.645334 0.464053
C27_3 C 0.1002(7) 0.4006(5) 0.4483(4)
H19_3 H 0.101965 0.358085 0.459190
C28_3 C 0.1019(8) 0.4419(5) 0.5127(5)
H20_3 H 0.108797 0.429521 0.568200
O5_3 O 0.8382(4) 0.5330(3) 0.1900(2)
O6_3 O 0.8720(3) 0.6261(2) 0.1074(2)
N3_3 N 0.6091(3) 0.5298(2) 0.1664(2)
C29_3 C 0.8273(4) 0.5767(3) 0.1465(3)
C30_3 C 0.6348(4) 0.4990(3) 0.2170(3)
H21_3 H 0.603756 0.465659 0.258075
C31_3 C 0.7050(4) 0.5132(3) 0.2126(3)
H22_3 H 0.720781 0.489795 0.250680
C32_3 C 0.6549(4) 0.5780(3) 0.1078(3)
H23_3 H 0.638231 0.601931 0.071838
C33_3 C 0.7527(4) 0.5606(3) 0.1543(3)
C34_3 C 0.9115(6) 0.4985(4) 0.2654(3)
C35_3 C 0.7259(4) 0.5926(3) 0.0999(3)
H24_3 H 0.755965 0.624562 0.057197
C36_3 C 0.9055(7) 0.4040(5) 0.1632(4)
H25_3 H 0.907998 0.431156 0.114585
C37_3 C 0.9100(6) 0.4346(5) 0.2493(3)
C38_3 C 0.9085(6) 0.3888(4) 0.3181(4)
C39_3 C 0.9042(6) 0.3235(4) 0.2992(4)
H26_3 H 0.904159 0.294242 0.344147
C40_3 C 0.9117(6) 0.5423(4) 0.1938(3)
H27_3 H 0.922991 0.525875 0.140437
H28_3 H 0.948092 0.593426 0.202614
C41_3 C 0.8998(7) 0.3004(5) 0.2184(4)
H29_3 H 0.898035 0.256120 0.207477
C42_3 C 0.8981(8) 0.3400(6) 0.1540(5)
H30_3 H 0.891203 0.320724 0.098467
O7_3 O 0.8382(4) 0.3052(2) 0.4767(2)
O8_3 O 0.8720(3) 0.2459(2) 0.5593(2)
C43_3 C 0.8273(4) 0.2506(3) 0.5202(3)
C44_3 C 0.6348(4) 0.1358(3) 0.4497(3)
H31_3 H 0.603756 0.138097 0.408592
C45_3 C 0.7050(4) 0.1918(3) 0.4541(3)
H32_3 H 0.720781 0.230986 0.415987
C46_3 C 0.6549(4) 0.0769(3) 0.5589(3)
H33_3 H 0.638231 0.036300 0.594829
C47_3 C 0.7527(4) 0.1921(3) 0.5124(3)
C48_3 C 0.9115(6) 0.4130(4) 0.4013(3)
C49_3 C 0.7259(4) 0.1333(3) 0.5668(3)
H34_3 H 0.755965 0.131403 0.609470
C50_3 C 0.9055(7) 0.5015(5) 0.5035(4)
H35_3 H 0.907998 0.476842 0.552082
C51_3 C 0.9100(6) 0.4754(4) 0.4174(3)
C52_3 C 0.9085(6) 0.5197(4) 0.3486(4)
C53_3 C 0.9042(6) 0.5807(5) 0.3675(4)
H36_3 H 0.904159 0.609917 0.322520
C54_3 C 0.9117(6) 0.3694(4) 0.4729(3)
H37_3 H 0.922991 0.397116 0.526230
H38_3 H 0.948092 0.354666 0.464053
C55_3 C 0.8998(7) 0.5994(5) 0.4483(4)
H39_3 H 0.898035 0.641915 0.459190
C56_3 C 0.8981(8) 0.5581(5) 0.5127(5)
H40_3 H 0.891203 0.570479 0.568200
Cl2_5 Cl 0.500000 0.500000 0.01513(8)
loop_
_geom_bond_atom_site_label_1
_geom_bond_atom_site_label_2
_geom_bond_site_symmetry_1
_geom_bond_site_symmetry_2
Ni1 Cl1 1_555 1_555
O5 C29 1_555 1_555
O6 C29 1_555 1_555
N3 Ni1 1_555 1_555
C29 C33 1_555 1_555
C30 N3 1_555 1_555
H21 C30 1_555 1_555
C31 C30 1_555 1_555
H22 C31 1_555 1_555
C32 N3 1_555 1_555
H23 C32 1_555 1_555
C33 C31 1_555 1_555
C34 C37 1_555 1_555
C35 C32 1_555 1_555
H24 C35 1_555 1_555
C36 H25 1_555 1_555
C37 C36 1_555 1_555
C38 C37 1_555 1_555
C39 C38 1_555 1_555
H26 C39 1_555 1_555
C40 O5 1_555 1_555
H27 C40 1_555 1_555
H28 C40 1_555 1_555
C41 C39 1_555 1_555
H29 C41 1_555 1_555
C42 C36 1_555 1_555
H30 C42 1_555 1_555
O7 C43 1_555 1_555
O8 C43 1_555 1_555
N4 C44 1_555 1_555
C43 C47 1_555 1_555
C44 H31 1_555 1_555
C45 C44 1_555 1_555
H32 C45 1_555 1_555
C46 N4 1_555 1_555
H33 C46 1_555 1_555
C47 C45 1_555 1_555
C48 C38 1_555 1_555
C49 C46 1_555 1_555
H34 C49 1_555 1_555
C50 H35 1_555 1_555
C51 C48 1_555 1_555
C52 C34 1_555 1_555
C53 C52 1_555 1_555
H36 C53 1_555 1_555
C54 O7 1_555 1_555
H37 C54 1_555 1_555
H38 C54 1_555 1_555
C55 C53 1_555 1_555
H39 C55 1_555 1_555
C56 C50 1_555 1_555
H40 C56 1_555 1_555
Cl2 Ni1 1_555 1_555
Ni3_2 N4 1_555 1_555
N5 Ni1 1_555 1_555
C33 C35 1_555 1_555
C34 C40 1_555 1_555
C41 C42 1_555 1_555
C47 C49 1_555 1_555
C48 C54 1_555 1_555
C50 C51 1_555 1_555
C51 C52 1_555 1_555
C55 C56 1_555 1_555
Ni1_2 Cl1_2 1_555 1_555
O1 C1 1_555 1_555
O2 C1 1_555 1_555
N1 Ni1_2 1_555 1_555
C1 C5 1_555 1_555
C2 N1 1_555 1_555
H1 C2 1_555 1_555
C3 C2 1_555 1_555
H2 C3 1_555 1_555
C4 N1 1_555 1_555
H3 C4 1_555 1_555
C5 C3 1_555 1_555
C6 C9 1_555 1_555
C7 C4 1_555 1_555
H4 C7 1_555 1_555
C8 H5 1_555 1_555
C9 C8 1_555 1_555
C10 C9 1_555 1_555
C11 C10 1_555 1_555
H6 C11 1_555 1_555
C12 O1 1_555 1_555
H7 C12 1_555 1_555
H8 C12 1_555 1_555
C13 C11 1_555 1_555
H9 C13 1_555 1_555
C14 C8 1_555 1_555
H10 C14 1_555 1_555
O3 C15 1_555 1_555
O4 C15 1_555 1_555
N2 C16 1_555 1_555
C15 C19 1_555 1_555
C16 H11 1_555 1_555
C17 C16 1_555 1_555
H12 C17 1_555 1_555
C18 N2 1_555 1_555
H13 C18 1_555 1_555
C19 C17 1_555 1_555
C20 C10 1_555 1_555
C21 C18 1_555 1_555
H14 C21 1_555 1_555
C22 H15 1_555 1_555
C23 C20 1_555 1_555
C24 C6 1_555 1_555
C25 C24 1_555 1_555
H16 C25 1_555 1_555
C26 O3 1_555 1_555
H17 C26 1_555 1_555
H18 C26 1_555 1_555
C27 C25 1_555 1_555
H19 C27 1_555 1_555
C28 C22 1_555 1_555
H20 C28 1_555 1_555
Cl2_2 Ni1_2 1_555 1_555
Ni3 N2 1_555 1_555
N6 Ni1_2 1_555 1_555
C5 C7 1_555 1_555
C6 C12 1_555 1_555
C13 C14 1_555 1_555
C19 C21 1_555 1_555
C20 C26 1_555 1_555
C22 C23 1_555 1_555
C23 C24 1_555 1_555
C27 C28 1_555 1_555
O3_2 C15_2 1_555 1_555
O4_2 C15_2 1_555 1_555
N2_2 C16_2 1_555 1_555
C15_2 C19_2 1_555 1_555
C16_2 H11_2 1_555 1_555
C17_2 C16_2 1_555 1_555
H12_2 C17_2 1_555 1_555
C18_2 N2_2 1_555 1_555
H13_2 C18_2 1_555 1_555
C19_2 C17_2 1_555 1_555
C21_2 C18_2 1_555 1_555
H14_2 C21_2 1_555 1_555
C22_2 H15_2 1_555 1_555
C23_2 C20_2 1_555 1_555
C25_2 C24_2 1_555 1_555
C26_2 O3_2 1_555 1_555
H17_2 C26_2 1_555 1_555
H18_2 C26_2 1_555 1_555
C27_2 C25_2 1_555 1_555
H19_2 C27_2 1_555 1_555
C28_2 C22_2 1_555 1_555
H20_2 C28_2 1_555 1_555
Ni2 N2_2 1_555 1_555
C19_2 C21_2 1_555 1_555
C20_2 C26_2 1_555 1_555
C22_2 C23_2 1_555 1_555
C23_2 C24_2 1_555 1_555
C27_2 C28_2 1_555 1_555
Ni3 Cl1_3 1_555 1_555
O1_2 C1_2 1_555 1_555
O2_2 C1_2 1_555 1_555
N1_2 Ni3 1_555 1_555
C1_2 C5_2 1_555 1_555
C2_2 N1_2 1_555 1_555
H1_2 C2_2 1_555 1_555
C3_2 C2_2 1_555 1_555
H2_2 C3_2 1_555 1_555
C4_2 N1_2 1_555 1_555
H3_2 C4_2 1_555 1_555
C5_2 C3_2 1_555 1_555
C6_2 C9_2 1_555 1_555
C7_2 C4_2 1_555 1_555
H4_2 C7_2 1_555 1_555
C8_2 H5_2 1_555 1_555
C9_2 C8_2 1_555 1_555
C10_2 C9_2 1_555 1_555
C11_2 C10_2 1_555 1_555
C12_2 O1_2 1_555 1_555
H7_2 C12_2 1_555 1_555
H8_2 C12_2 1_555 1_555
C13_2 C11_2 1_555 1_555
H9_2 C13_2 1_555 1_555
C14_2 C8_2 1_555 1_555
H10_2 C14_2 1_555 1_555
Cl2_3 Ni3 1_555 1_555
C5_2 C7_2 1_555 1_555
C6_2 C12_2 1_555 1_555
C13_2 C14_2 1_555 1_555
O7_2 C43_2 1_555 1_555
O8_2 C43_2 1_555 1_555
N4_2 C44_2 1_555 1_555
C43_2 C47_2 1_555 1_555
C44_2 H31_2 1_555 1_555
C45_2 C44_2 1_555 1_555
H32_2 C45_2 1_555 1_555
C46_2 N4_2 1_555 1_555
H33_2 C46_2 1_555 1_555
C47_2 C45_2 1_555 1_555
C49_2 C46_2 1_555 1_555
H34_2 C49_2 1_555 1_555
C50_2 H35_2 1_555 1_555
C51_2 C48_2 1_555 1_555
C53_2 C52_2 1_555 1_555
C54_2 O7_2 1_555 1_555
H37_2 C54_2 1_555 1_555
H38_2 C54_2 1_555 1_555
C55_2 C53_2 1_555 1_555
H39_2 C55_2 1_555 1_555
C56_2 C50_2 1_555 1_555
H40_2 C56_2 1_555 1_555
Ni2 N4_2 1_555 1_555
C47_2 C49_2 1_555 1_555
C48_2 C54_2 1_555 1_555
C50_2 C51_2 1_555 1_555
C51_2 C52_2 1_555 1_555
C55_2 C56_2 1_555 1_555
Ni3_2 Cl1_4 1_555 1_555
O5_2 C29_2 1_555 1_555
O6_2 C29_2 1_555 1_555
N3_2 Ni3_2 1_555 1_555
C29_2 C33_2 1_555 1_555
C30_2 N3_2 1_555 1_555
H21_2 C30_2 1_555 1_555
C31_2 C30_2 1_555 1_555
H22_2 C31_2 1_555 1_555
C32_2 N3_2 1_555 1_555
H23_2 C32_2 1_555 1_555
C33_2 C31_2 1_555 1_555
C34_2 C37_2 1_555 1_555
C35_2 C32_2 1_555 1_555
H24_2 C35_2 1_555 1_555
C36_2 H25_2 1_555 1_555
C37_2 C36_2 1_555 1_555
C38_2 C37_2 1_555 1_555
C39_2 C38_2 1_555 1_555
C40_2 O5_2 1_555 1_555
H27_2 C40_2 1_555 1_555
H28_2 C40_2 1_555 1_555
C41_2 C39_2 1_555 1_555
H29_2 C41_2 1_555 1_555
C42_2 C36_2 1_555 1_555
H30_2 C42_2 1_555 1_555
Cl2_4 Ni3_2 1_555 1_555
C33_2 C35_2 1_555 1_555
C34_2 C40_2 1_555 1_555
C41_2 C42_2 1_555 1_555
Ni2 Cl1_5 1_555 1_555
O1_3 C1_3 1_555 1_555
O2_3 C1_3 1_555 1_555
N1_3 Ni2 1_555 1_555
C1_3 C5_3 1_555 1_555
C2_3 N1_3 1_555 1_555
H1_3 C2_3 1_555 1_555
C3_3 C2_3 1_555 1_555
H2_3 C3_3 1_555 1_555
C4_3 N1_3 1_555 1_555
H3_3 C4_3 1_555 1_555
C5_3 C3_3 1_555 1_555
C6_3 C9_3 1_555 1_555
C7_3 C4_3 1_555 1_555
H4_3 C7_3 1_555 1_555
C8_3 H5_3 1_555 1_555
C9_3 C8_3 1_555 1_555
C10_3 C9_3 1_555 1_555
C11_3 C10_3 1_555 1_555
H6_3 C11_3 1_555 1_555
C12_3 O1_3 1_555 1_555
H7_3 C12_3 1_555 1_555
H8_3 C12_3 1_555 1_555
C13_3 C11_3 1_555 1_555
H9_3 C13_3 1_555 1_555
C14_3 C8_3 1_555 1_555
H10_3 C14_3 1_555 1_555
O3_3 C15_3 1_555 1_555
O4_3 C15_3 1_555 1_555
N6 C16_3 1_555 1_555
C15_3 C19_3 1_555 1_555
C16_3 H11_3 1_555 1_555
C17_3 C16_3 1_555 1_555
H12_3 C17_3 1_555 1_555
C18_3 N6 1_555 1_555
H13_3 C18_3 1_555 1_555
C19_3 C17_3 1_555 1_555
C20_3 C10_3 1_555 1_555
C21_3 C18_3 1_555 1_555
H14_3 C21_3 1_555 1_555
C22_3 H15_3 1_555 1_555
C23_3 C20_3 1_555 1_555
C24_3 C6_3 1_555 1_555
C25_3 C24_3 1_555 1_555
H16_3 C25_3 1_555 1_555
C26_3 O3_3 1_555 1_555
H17_3 C26_3 1_555 1_555
H18_3 C26_3 1_555 1_555
C27_3 C25_3 1_555 1_555
H19_3 C27_3 1_555 1_555
C28_3 C22_3 1_555 1_555
H20_3 C28_3 1_555 1_555
O5_3 C29_3 1_555 1_555
O6_3 C29_3 1_555 1_555
N3_3 Ni2 1_555 1_555
C29_3 C33_3 1_555 1_555
C30_3 N3_3 1_555 1_555
H21_3 C30_3 1_555 1_555
C31_3 C30_3 1_555 1_555
H22_3 C31_3 1_555 1_555
C32_3 N3_3 1_555 1_555
H23_3 C32_3 1_555 1_555
C33_3 C31_3 1_555 1_555
C34_3 C37_3 1_555 1_555
C35_3 C32_3 1_555 1_555
H24_3 C35_3 1_555 1_555
C36_3 H25_3 1_555 1_555
C37_3 C36_3 1_555 1_555
C38_3 C37_3 1_555 1_555
C39_3 C38_3 1_555 1_555
H26_3 C39_3 1_555 1_555
C40_3 O5_3 1_555 1_555
H27_3 C40_3 1_555 1_555
H28_3 C40_3 1_555 1_555
C41_3 C39_3 1_555 1_555
H29_3 C41_3 1_555 1_555
C42_3 C36_3 1_555 1_555
H30_3 C42_3 1_555 1_555
O7_3 C43_3 1_555 1_555
O8_3 C43_3 1_555 1_555
N5 C44_3 1_555 1_555
C43_3 C47_3 1_555 1_555
C44_3 H31_3 1_555 1_555
C45_3 C44_3 1_555 1_555
H32_3 C45_3 1_555 1_555
C46_3 N5 1_555 1_555
H33_3 C46_3 1_555 1_555
C47_3 C45_3 1_555 1_555
C48_3 C38_3 1_555 1_555
C49_3 C46_3 1_555 1_555
H34_3 C49_3 1_555 1_555
C50_3 H35_3 1_555 1_555
C51_3 C48_3 1_555 1_555
C52_3 C34_3 1_555 1_555
C53_3 C52_3 1_555 1_555
H36_3 C53_3 1_555 1_555
C54_3 O7_3 1_555 1_555
H37_3 C54_3 1_555 1_555
H38_3 C54_3 1_555 1_555
C55_3 C53_3 1_555 1_555
H39_3 C55_3 1_555 1_555
C56_3 C50_3 1_555 1_555
H40_3 C56_3 1_555 1_555
Cl2_5 Ni2 1_555 1_555
C5_3 C7_3 1_555 1_555
C6_3 C12_3 1_555 1_555
C13_3 C14_3 1_555 1_555
C19_3 C21_3 1_555 1_555
C20_3 C26_3 1_555 1_555
C22_3 C23_3 1_555 1_555
C23_3 C24_3 1_555 1_555
C27_3 C28_3 1_555 1_555
C33_3 C35_3 1_555 1_555
C34_3 C40_3 1_555 1_555
C41_3 C42_3 1_555 1_555
C47_3 C49_3 1_555 1_555
C48_3 C54_3 1_555 1_555
C50_3 C51_3 1_555 1_555
C51_3 C52_3 1_555 1_555
C55_3 C56_3 1_555 1_555

#END
