
###############################################################################
#
# This file contains modified crystal structure data generated from the
# MOF subset of the Cambridge Structural Database (CSD) v543 
# hosted by the Cambridge Crystallographic Data Centre (CCDC).
#
# This work is licensed under the Creative Commons
# Attribution-NonCommercial-ShareAlike 4.0 International License.
# To view a copy of this license, visit
# http://creativecommons.org/licenses/by-nc-sa/4.0/
# or send a letter to
# Creative Commons, PO Box 1866, Mountain View, CA 94042, USA.
#
# CIF created using the CSD Python API on 29 September 2022
# The structure has been converted into the P1 space group
# The structure has a 3D framework
# The original CSD entry YAWWEC is in the hexagonal crystal system
# The original CSD entry YAWWEC is in a Sohncke space group
# The framework has been calculated to contain at least 10.0% void space
# The void calculation uses a probe of radius 1.32A, grid spacing 0.4
#
###############################################################################

data_YAWWEC
_chemical_formula_moiety         '(C168 H120 Cl10 N12 Ni5 O24)n'
_symmetry_cell_setting           triclinic
_symmetry_space_group_name_H-M   'P 1'
_symmetry_Int_Tables_number      1
_space_group_name_Hall           'P 1'
loop_
_symmetry_equiv_pos_site_id
_symmetry_equiv_pos_as_xyz
1 x,y,z
_cell_length_a                   21.5831(14)
_cell_length_b                   21.5831(14)
_cell_length_c                   15.9237(8)
_cell_angle_alpha                90
_cell_angle_beta                 90
_cell_angle_gamma                120
_cell_volume                     6423.95
loop_
_atom_site_label
_atom_site_type_symbol
_atom_site_fract_x
_atom_site_fract_y
_atom_site_fract_z
Ni1 Ni 0.500000 -0.000000 0.500000
Cl1 Cl 0.500000 -0.000000 0.65115(8)
O5 O 0.8371(2) 0.3061(3) 0.4737(3)
O6 O 0.8711(3) 0.2471(2) 0.5592(3)
N3 N 0.6094(2) 0.0799(2) 0.5013(3)
C29 C 0.8260(4) 0.2494(4) 0.5189(4)
C30 C 0.6343(3) 0.1351(3) 0.4494(3)
H21 H 0.603428 0.136028 0.408467
C31 C 0.7047(3) 0.1920(3) 0.4528(3)
H22 H 0.720194 0.230523 0.415158
C32 C 0.9107(3) 0.4135(4) 0.4010(4)
C33 C 0.6554(3) 0.0788(3) 0.5582(3)
H23 H 0.639020 0.039041 0.593957
C34 C 0.7517(3) 0.1916(4) 0.5120(3)
C35 C 0.7254(3) 0.1338(3) 0.5660(3)
H24 H 0.755019 0.131766 0.607909
C36 C 0.9088(2) 0.4766(2) 0.4177(3)
C37 C 0.9048(2) 0.4961(3) 0.4999(2)
H25 H 0.905205 0.468104 0.544818
C38 C 0.9003(2) 0.5571(3) 0.5156(3)
H26 H 0.897666 0.570328 0.571126
C39 C 0.8998(2) 0.5986(3) 0.4491(4)
H27 H 0.896729 0.639838 0.459714
C40 C 0.9037(2) 0.5791(3) 0.3669(3)
H28 H 0.903333 0.607124 0.321993
C41 C 0.9082(2) 0.5181(3) 0.35124(18)
C42 C 0.9100(3) 0.3685(4) 0.4714(4)
H29 H 0.945313 0.353284 0.461962
H30 H 0.921288 0.395033 0.524410
O7 O 0.8371(2) 0.5310(4) 0.1930(3)
O8 O 0.8711(3) 0.6240(4) 0.1075(3)
N4 N 0.6094(2) 0.5295(3) 0.1654(3)
C43 C 0.8260(4) 0.5766(6) 0.1478(4)
C44 C 0.6343(3) 0.4992(4) 0.2173(3)
H31 H 0.603428 0.467400 0.258200
C45 C 0.7047(3) 0.5127(4) 0.2139(3)
H32 H 0.720194 0.489671 0.251509
C46 C 0.9107(3) 0.4972(5) 0.2657(4)
C47 C 0.6554(3) 0.5766(4) 0.1085(3)
H33 H 0.639020 0.599979 0.072710
C48 C 0.7517(3) 0.5601(5) 0.1547(3)
C49 C 0.7254(3) 0.5916(4) 0.1007(3)
H34 H 0.755019 0.623253 0.058758
C50 C 0.9088(2) 0.4322(3) 0.2490(3)
C51 C 0.9048(2) 0.4087(4) 0.1668(2)
H35 H 0.905205 0.437101 0.121849
C52 C 0.9003(2) 0.3432(4) 0.1511(3)
H36 H 0.897666 0.327338 0.095541
C53 C 0.8998(2) 0.3012(4) 0.2176(4)
H37 H 0.896729 0.256891 0.206953
C54 C 0.9037(2) 0.3246(4) 0.2998(3)
H38 H 0.903333 0.296209 0.344674
C55 C 0.9082(2) 0.3901(4) 0.31543(18)
C56 C 0.9100(3) 0.5415(5) 0.1953(4)
H39 H 0.945313 0.592029 0.204705
H40 H 0.921288 0.526255 0.142257
Cl2 Cl 0.500000 -0.000000 0.34885(8)
Ni3 Ni 0.500000 0.500000 0.166667
N5 N 0.4705(3) 0.0799(2) 0.4987(3)
Ni1_2 Ni 0.500000 1.000000 0.500000
Cl1_2 Cl 0.500000 1.000000 0.65115(8)
O1 O 0.1629(2) 0.6939(3) 0.4737(3)
O2 O 0.1289(3) 0.7529(2) 0.5592(3)
N1 N 0.3906(2) 0.9201(2) 0.5013(3)
C1 C 0.1740(4) 0.7506(4) 0.5189(4)
C2 C 0.3657(3) 0.8649(3) 0.4494(3)
H1 H 0.396572 0.863972 0.408467
C3 C 0.2953(3) 0.8080(3) 0.4528(3)
H2 H 0.279806 0.769477 0.415158
C4 C 0.0893(3) 0.5865(4) 0.4010(4)
C5 C 0.3446(3) 0.9212(3) 0.5582(3)
H3 H 0.360980 0.960959 0.593957
C6 C 0.2483(3) 0.8084(4) 0.5120(3)
C7 C 0.2746(3) 0.8662(3) 0.5660(3)
H4 H 0.244981 0.868234 0.607909
C8 C 0.0912(2) 0.5234(2) 0.4177(3)
C9 C 0.0952(2) 0.5039(3) 0.4999(2)
H5 H 0.094795 0.531896 0.544818
C10 C 0.0997(2) 0.4429(3) 0.5156(3)
H6 H 0.102334 0.429672 0.571126
C11 C 0.1002(2) 0.4014(3) 0.4491(4)
H7 H 0.103271 0.360162 0.459714
C12 C 0.0963(2) 0.4209(3) 0.3669(3)
H8 H 0.096667 0.392876 0.321993
C13 C 0.0918(2) 0.4819(3) 0.35124(18)
C14 C 0.0900(3) 0.6315(4) 0.4714(4)
H9 H 0.054687 0.646716 0.461962
H10 H 0.078712 0.604967 0.524410
O3 O 0.1629(2) 0.4690(4) 0.1930(3)
O4 O 0.1289(3) 0.3760(4) 0.1075(3)
N2 N 0.3906(2) 0.4705(3) 0.1654(3)
C15 C 0.1740(4) 0.4234(6) 0.1478(4)
C16 C 0.3657(3) 0.5008(4) 0.2173(3)
H11 H 0.396572 0.532600 0.258200
C17 C 0.2953(3) 0.4873(4) 0.2139(3)
H12 H 0.279806 0.510329 0.251509
C18 C 0.0893(3) 0.5028(5) 0.2657(4)
C19 C 0.3446(3) 0.4234(4) 0.1085(3)
H13 H 0.360980 0.400021 0.072710
C20 C 0.2483(3) 0.4399(5) 0.1547(3)
C21 C 0.2746(3) 0.4084(4) 0.1007(3)
H14 H 0.244981 0.376747 0.058758
C22 C 0.0912(2) 0.5678(3) 0.2490(3)
C23 C 0.0952(2) 0.5913(4) 0.1668(2)
H15 H 0.094795 0.562899 0.121849
C24 C 0.0997(2) 0.6568(4) 0.1511(3)
H16 H 0.102334 0.672662 0.095541
C25 C 0.1002(2) 0.6988(4) 0.2176(4)
H17 H 0.103271 0.743109 0.206953
C26 C 0.0963(2) 0.6754(4) 0.2998(3)
H18 H 0.096667 0.703791 0.344674
C27 C 0.0918(2) 0.6099(4) 0.31543(18)
C28 C 0.0900(3) 0.4585(5) 0.1953(4)
H19 H 0.054687 0.407971 0.204705
H20 H 0.078712 0.473745 0.142257
Cl2_2 Cl 0.500000 1.000000 0.34885(8)
N6 N 0.5295(3) 0.9201(2) 0.4987(3)
Ni1_3 Ni 0.000000 0.500000 0.833333
Cl1_3 Cl 0.000000 0.500000 0.98448(8)
O1_2 O 0.3061(3) 0.4690(4) 0.8070(3)
O2_2 O 0.2471(2) 0.3760(4) 0.8925(3)
N1_2 N 0.0799(2) 0.4705(3) 0.8346(3)
C1_2 C 0.2494(4) 0.4234(6) 0.8522(4)
C2_2 C 0.1351(3) 0.5008(4) 0.7827(3)
H1_2 H 0.136028 0.532600 0.741800
C3_2 C 0.1920(3) 0.4873(4) 0.7861(3)
H2_2 H 0.230523 0.510329 0.748491
C4_2 C 0.4135(4) 0.5028(5) 0.7343(4)
C5_2 C 0.0788(3) 0.4234(4) 0.8915(3)
H3_2 H 0.039041 0.400021 0.927290
C6_2 C 0.1916(4) 0.4399(5) 0.8453(3)
C7_2 C 0.1338(3) 0.4084(4) 0.8993(3)
H4_2 H 0.131766 0.376747 0.941242
C8_2 C 0.4766(2) 0.5678(3) 0.7510(3)
C9_2 C 0.4961(3) 0.5913(4) 0.8332(2)
H5_2 H 0.468104 0.562899 0.878151
C10_2 C 0.5571(3) 0.6568(4) 0.8489(3)
H6_2 H 0.570328 0.672662 0.904459
C11_2 C 0.5986(3) 0.6988(4) 0.7824(4)
H7_2 H 0.639838 0.743109 0.793047
C12_2 C 0.5791(3) 0.6754(4) 0.7002(3)
H8_2 H 0.607124 0.703791 0.655326
C13_2 C 0.5181(3) 0.6099(4) 0.68457(18)
C14_2 C 0.3685(4) 0.4585(5) 0.8047(4)
H9_2 H 0.353284 0.407971 0.795295
H10_2 H 0.395033 0.473745 0.857743
O3_2 O 0.5310(4) 0.6939(4) 0.5263(3)
O4_2 O 0.6240(4) 0.7529(5) 0.4408(3)
C15_2 C 0.5766(6) 0.7506(7) 0.4811(4)
C16_2 C 0.4992(4) 0.8649(5) 0.5506(3)
H11_2 H 0.467400 0.863972 0.591533
C17_2 C 0.5127(4) 0.8080(5) 0.5472(3)
H12_2 H 0.489671 0.769477 0.584842
C18_2 C 0.4972(5) 0.5865(6) 0.5990(4)
C19_2 C 0.5766(4) 0.9212(5) 0.4418(3)
H13_2 H 0.599979 0.960959 0.406043
C20_2 C 0.5601(5) 0.8084(6) 0.4880(3)
C21_2 C 0.5916(4) 0.8662(5) 0.4340(3)
H14_2 H 0.623253 0.868234 0.392091
C22_2 C 0.4322(3) 0.5234(4) 0.5823(3)
C23_2 C 0.4087(4) 0.5039(4) 0.5001(2)
H15_2 H 0.437101 0.531896 0.455182
C24_2 C 0.3432(4) 0.4429(4) 0.4844(3)
H16_2 H 0.327338 0.429672 0.428874
C25_2 C 0.3012(4) 0.4014(4) 0.5509(4)
H17_2 H 0.256891 0.360162 0.540286
C26_2 C 0.3246(4) 0.4209(4) 0.6331(3)
H18_2 H 0.296209 0.392876 0.678007
C27_2 C 0.3901(4) 0.4819(4) 0.64876(18)
C28_2 C 0.5415(5) 0.6315(6) 0.5286(4)
H19_2 H 0.592029 0.646716 0.538038
H20_2 H 0.526255 0.604967 0.475590
Cl2_3 Cl 0.000000 0.500000 0.68218(8)
N6_2 N 0.0799(2) 0.6094(4) 0.8320(3)
Ni1_4 Ni 1.000000 0.500000 0.833333
Cl1_4 Cl 1.000000 0.500000 0.98448(8)
O5_2 O 0.6939(3) 0.5310(4) 0.8070(3)
O6_2 O 0.7529(2) 0.6240(4) 0.8925(3)
N3_2 N 0.9201(2) 0.5295(3) 0.8346(3)
C29_2 C 0.7506(4) 0.5766(6) 0.8522(4)
C30_2 C 0.8649(3) 0.4992(4) 0.7827(3)
H21_2 H 0.863972 0.467400 0.741800
C31_2 C 0.8080(3) 0.5127(4) 0.7861(3)
H22_2 H 0.769477 0.489671 0.748491
C32_2 C 0.5865(4) 0.4972(5) 0.7343(4)
C33_2 C 0.9212(3) 0.5766(4) 0.8915(3)
H23_2 H 0.960959 0.599979 0.927290
C34_2 C 0.8084(4) 0.5601(5) 0.8453(3)
C35_2 C 0.8662(3) 0.5916(4) 0.8993(3)
H24_2 H 0.868234 0.623253 0.941242
C36_2 C 0.5234(2) 0.4322(3) 0.7510(3)
C37_2 C 0.5039(3) 0.4087(4) 0.8332(2)
H25_2 H 0.531896 0.437101 0.878151
C38_2 C 0.4429(3) 0.3432(4) 0.8489(3)
H26_2 H 0.429672 0.327338 0.904459
C39_2 C 0.4014(3) 0.3012(4) 0.7824(4)
H27_2 H 0.360162 0.256891 0.793047
C40_2 C 0.4209(3) 0.3246(4) 0.7002(3)
H28_2 H 0.392876 0.296209 0.655326
C41_2 C 0.4819(3) 0.3901(4) 0.68457(18)
C42_2 C 0.6315(4) 0.5415(5) 0.8047(4)
H29_2 H 0.646716 0.592029 0.795295
H30_2 H 0.604967 0.526255 0.857743
O7_2 O 0.4690(4) 0.3061(4) 0.5263(3)
O8_2 O 0.3760(4) 0.2471(5) 0.4408(3)
C43_2 C 0.4234(6) 0.2494(7) 0.4811(4)
C44_2 C 0.5008(4) 0.1351(5) 0.5506(3)
H31_2 H 0.532600 0.136028 0.591533
C45_2 C 0.4873(4) 0.1920(5) 0.5472(3)
H32_2 H 0.510329 0.230523 0.584842
C46_2 C 0.5028(5) 0.4135(6) 0.5990(4)
C47_2 C 0.4234(4) 0.0788(5) 0.4418(3)
H33_2 H 0.400021 0.039041 0.406043
C48_2 C 0.4399(5) 0.1916(6) 0.4880(3)
C49_2 C 0.4084(4) 0.1338(5) 0.4340(3)
H34_2 H 0.376747 0.131766 0.392091
C50_2 C 0.5678(3) 0.4766(4) 0.5823(3)
C51_2 C 0.5913(4) 0.4961(4) 0.5001(2)
H35_2 H 0.562899 0.468104 0.455182
C52_2 C 0.6568(4) 0.5571(4) 0.4844(3)
H36_2 H 0.672662 0.570328 0.428874
C53_2 C 0.6988(4) 0.5986(4) 0.5509(4)
H37_2 H 0.743109 0.639838 0.540286
C54_2 C 0.6754(4) 0.5791(4) 0.6331(3)
H38_2 H 0.703791 0.607124 0.678007
C55_2 C 0.6099(4) 0.5181(4) 0.64876(18)
C56_2 C 0.4585(5) 0.3685(6) 0.5286(4)
H39_2 H 0.407971 0.353284 0.538038
H40_2 H 0.473745 0.395033 0.475590
Cl2_4 Cl 1.000000 0.500000 0.68218(8)
N5_2 N 0.9201(2) 0.3906(4) 0.8320(3)
Cl1_5 Cl 0.500000 0.500000 0.31782(8)
O1_3 O 0.5310(4) 0.8371(2) 0.1404(3)
O2_3 O 0.6240(4) 0.8711(3) 0.2259(3)
N1_3 N 0.5295(3) 0.6094(2) 0.1680(3)
C1_3 C 0.5766(6) 0.8260(4) 0.1856(4)
C2_3 C 0.4992(4) 0.6343(3) 0.1161(3)
H1_3 H 0.467400 0.603428 0.075134
C3_3 C 0.5127(4) 0.7047(3) 0.1195(3)
H2_3 H 0.489671 0.720194 0.081825
C4_3 C 0.4972(5) 0.9107(3) 0.0677(4)
C5_3 C 0.5766(4) 0.6554(3) 0.2249(3)
H3_3 H 0.599979 0.639020 0.260624
C6_3 C 0.5601(5) 0.7517(3) 0.1787(3)
C7_3 C 0.5916(4) 0.7254(3) 0.2327(3)
H4_3 H 0.623253 0.755019 0.274576
C8_3 C 0.4322(3) 0.9088(2) 0.0844(3)
C9_3 C 0.4087(4) 0.9048(2) 0.1666(2)
H5_3 H 0.437101 0.905205 0.211485
C10_3 C 0.3432(4) 0.9003(2) 0.1823(3)
H6_3 H 0.327338 0.897666 0.237793
C11_3 C 0.3012(4) 0.8998(2) 0.1158(4)
H7_3 H 0.256891 0.896729 0.126381
C12_3 C 0.3246(4) 0.9037(2) 0.0336(3)
C13_3 C 0.3901(4) 0.9082(2) 0.01791(18)
C14_3 C 0.5415(5) 0.9100(3) 0.1381(4)
H9_3 H 0.592029 0.945313 0.128629
H10_3 H 0.526255 0.921288 0.191077
H18_3 H 0.607124 0.903333 0.011340
O5_3 O 0.4690(4) 0.1629(2) 0.1404(3)
O6_3 O 0.3760(4) 0.1289(3) 0.2259(3)
N3_3 N 0.4705(3) 0.3906(2) 0.1680(3)
C29_3 C 0.4234(6) 0.1740(4) 0.1856(4)
C30_3 C 0.5008(4) 0.3657(3) 0.1161(3)
H21_3 H 0.532600 0.396572 0.075134
C31_3 C 0.4873(4) 0.2953(3) 0.1195(3)
H22_3 H 0.510329 0.279806 0.081825
C32_3 C 0.5028(5) 0.0893(3) 0.0677(4)
C33_3 C 0.4234(4) 0.3446(3) 0.2249(3)
H23_3 H 0.400021 0.360980 0.260624
C34_3 C 0.4399(5) 0.2483(3) 0.1787(3)
C35_3 C 0.4084(4) 0.2746(3) 0.2327(3)
H24_3 H 0.376747 0.244981 0.274576
C36_3 C 0.5678(3) 0.0912(2) 0.0844(3)
C37_3 C 0.5913(4) 0.0952(2) 0.1666(2)
H25_3 H 0.562899 0.094795 0.211485
C38_3 C 0.6568(4) 0.0997(2) 0.1823(3)
H26_3 H 0.672662 0.102334 0.237793
C39_3 C 0.6988(4) 0.1002(2) 0.1158(4)
H27_3 H 0.743109 0.103271 0.126381
C40_3 C 0.6754(4) 0.0963(2) 0.0336(3)
C41_3 C 0.6099(4) 0.0918(2) 0.01791(18)
C42_3 C 0.4585(5) 0.0900(3) 0.1381(4)
H29_3 H 0.407971 0.054687 0.128629
H30_3 H 0.473745 0.078712 0.191077
H38_3 H 0.392876 0.096667 0.011340
Cl2_5 Cl 0.500000 0.500000 0.01552(8)
H8_3 H 0.296209 0.903333 0.988660
O3_3 O 0.3061(4) 0.8371(2) 0.8596(3)
O4_3 O 0.2471(5) 0.8711(3) 0.7741(3)
C15_3 C 0.2494(7) 0.8260(4) 0.8144(4)
C16_3 C 0.1351(5) 0.6343(3) 0.8839(3)
H11_3 H 0.136028 0.603428 0.924866
C17_3 C 0.1920(5) 0.7047(3) 0.8805(3)
H12_3 H 0.230523 0.720194 0.918175
C18_3 C 0.4135(6) 0.9107(3) 0.9323(4)
C19_3 C 0.0788(5) 0.6554(3) 0.7751(3)
H13_3 H 0.039041 0.639020 0.739376
C20_3 C 0.1916(6) 0.7517(3) 0.8213(3)
C21_3 C 0.1338(5) 0.7254(3) 0.7673(3)
H14_3 H 0.131766 0.755019 0.725424
C22_3 C 0.4766(4) 0.9088(2) 0.9156(3)
C23_3 C 0.4961(4) 0.9048(2) 0.8334(2)
H15_3 H 0.468104 0.905205 0.788515
C24_3 C 0.5571(4) 0.9003(2) 0.8177(3)
H16_3 H 0.570328 0.897666 0.762207
C25_3 C 0.5986(4) 0.8998(2) 0.8842(4)
H17_3 H 0.639838 0.896729 0.873619
C26_3 C 0.5791(4) 0.9037(2) 0.9664(3)
C27_3 C 0.5181(4) 0.9082(2) 0.98209(18)
C28_3 C 0.3685(6) 0.9100(3) 0.8619(4)
H19_3 H 0.353284 0.945313 0.871371
H20_3 H 0.395033 0.921288 0.808923
H28_3 H 0.703791 0.096667 0.988660
O7_3 O 0.6939(4) 0.1629(2) 0.8596(3)
O8_3 O 0.7529(5) 0.1289(3) 0.7741(3)
C43_3 C 0.7506(7) 0.1740(4) 0.8144(4)
C44_3 C 0.8649(5) 0.3657(3) 0.8839(3)
H31_3 H 0.863972 0.396572 0.924866
C45_3 C 0.8080(5) 0.2953(3) 0.8805(3)
H32_3 H 0.769477 0.279806 0.918175
C46_3 C 0.5865(6) 0.0893(3) 0.9323(4)
C47_3 C 0.9212(5) 0.3446(3) 0.7751(3)
H33_3 H 0.960959 0.360980 0.739376
C48_3 C 0.8084(6) 0.2483(3) 0.8213(3)
C49_3 C 0.8662(5) 0.2746(3) 0.7673(3)
H34_3 H 0.868234 0.244981 0.725424
C50_3 C 0.5234(4) 0.0912(2) 0.9156(3)
C51_3 C 0.5039(4) 0.0952(2) 0.8334(2)
H35_3 H 0.531896 0.094795 0.788515
C52_3 C 0.4429(4) 0.0997(2) 0.8177(3)
H36_3 H 0.429672 0.102334 0.762207
C53_3 C 0.4014(4) 0.1002(2) 0.8842(4)
H37_3 H 0.360162 0.103271 0.873619
C54_3 C 0.4209(4) 0.0963(2) 0.9664(3)
C55_3 C 0.4819(4) 0.0918(2) 0.98209(18)
C56_3 C 0.6315(6) 0.0900(3) 0.8619(4)
H39_3 H 0.646716 0.054687 0.871371
H40_3 H 0.604967 0.078712 0.808923
loop_
_geom_bond_atom_site_label_1
_geom_bond_atom_site_label_2
_geom_bond_site_symmetry_1
_geom_bond_site_symmetry_2
Ni1 Cl1 1_555 1_555
O5 C29 1_555 1_555
O6 C29 1_555 1_555
N3 Ni1 1_555 1_555
C29 C34 1_555 1_555
C30 N3 1_555 1_555
H21 C30 1_555 1_555
C31 C30 1_555 1_555
H22 C31 1_555 1_555
C32 C36 1_555 1_555
C33 N3 1_555 1_555
H23 C33 1_555 1_555
C34 C31 1_555 1_555
C35 C33 1_555 1_555
H24 C35 1_555 1_555
C36 C37 1_555 1_555
C37 H25 1_555 1_555
C38 C37 1_555 1_555
H26 C38 1_555 1_555
C39 C38 1_555 1_555
H27 C39 1_555 1_555
C40 C39 1_555 1_555
H28 C40 1_555 1_555
C41 C36 1_555 1_555
C42 O5 1_555 1_555
H29 C42 1_555 1_555
H30 C42 1_555 1_555
O7 C43 1_555 1_555
O8 C43 1_555 1_555
N4 C44 1_555 1_555
C43 C48 1_555 1_555
C44 H31 1_555 1_555
C45 C44 1_555 1_555
H32 C45 1_555 1_555
C46 C41 1_555 1_555
C47 N4 1_555 1_555
H33 C47 1_555 1_555
C48 C45 1_555 1_555
C49 C47 1_555 1_555
H34 C49 1_555 1_555
C50 C46 1_555 1_555
C51 C50 1_555 1_555
H35 C51 1_555 1_555
C52 C51 1_555 1_555
H36 C52 1_555 1_555
C53 C52 1_555 1_555
H37 C53 1_555 1_555
C54 C53 1_555 1_555
H38 C54 1_555 1_555
C55 C32 1_555 1_555
C56 O7 1_555 1_555
H39 C56 1_555 1_555
H40 C56 1_555 1_555
Cl2 Ni1 1_555 1_555
Ni3 N4 1_555 1_555
N5 Ni1 1_555 1_555
C32 C42 1_555 1_555
C34 C35 1_555 1_555
C40 C41 1_555 1_555
C46 C56 1_555 1_555
C48 C49 1_555 1_555
C50 C55 1_555 1_555
C54 C55 1_555 1_555
Ni1_2 Cl1_2 1_555 1_555
O1 C1 1_555 1_555
O2 C1 1_555 1_555
N1 Ni1_2 1_555 1_555
C1 C6 1_555 1_555
C2 N1 1_555 1_555
H1 C2 1_555 1_555
C3 C2 1_555 1_555
H2 C3 1_555 1_555
C4 C8 1_555 1_555
C5 N1 1_555 1_555
H3 C5 1_555 1_555
C6 C3 1_555 1_555
C7 C5 1_555 1_555
H4 C7 1_555 1_555
C8 C9 1_555 1_555
C9 H5 1_555 1_555
C10 C9 1_555 1_555
H6 C10 1_555 1_555
C11 C10 1_555 1_555
H7 C11 1_555 1_555
C12 C11 1_555 1_555
H8 C12 1_555 1_555
C13 C8 1_555 1_555
C14 O1 1_555 1_555
H9 C14 1_555 1_555
H10 C14 1_555 1_555
O3 C15 1_555 1_555
O4 C15 1_555 1_555
N2 C16 1_555 1_555
C15 C20 1_555 1_555
C16 H11 1_555 1_555
C17 C16 1_555 1_555
H12 C17 1_555 1_555
C18 C13 1_555 1_555
C19 N2 1_555 1_555
H13 C19 1_555 1_555
C20 C17 1_555 1_555
C21 C19 1_555 1_555
H14 C21 1_555 1_555
C22 C18 1_555 1_555
C23 C22 1_555 1_555
H15 C23 1_555 1_555
C24 C23 1_555 1_555
H16 C24 1_555 1_555
C25 C24 1_555 1_555
H17 C25 1_555 1_555
C26 C25 1_555 1_555
H18 C26 1_555 1_555
C27 C4 1_555 1_555
C28 O3 1_555 1_555
H19 C28 1_555 1_555
H20 C28 1_555 1_555
Cl2_2 Ni1_2 1_555 1_555
Ni3 N2 1_555 1_555
N6 Ni1_2 1_555 1_555
C4 C14 1_555 1_555
C6 C7 1_555 1_555
C12 C13 1_555 1_555
C18 C28 1_555 1_555
C20 C21 1_555 1_555
C22 C27 1_555 1_555
C26 C27 1_555 1_555
Ni1_3 Cl1_3 1_555 1_555
O1_2 C1_2 1_555 1_555
O2_2 C1_2 1_555 1_555
N1_2 Ni1_3 1_555 1_555
C1_2 C6_2 1_555 1_555
C2_2 N1_2 1_555 1_555
H1_2 C2_2 1_555 1_555
C3_2 C2_2 1_555 1_555
H2_2 C3_2 1_555 1_555
C4_2 C8_2 1_555 1_555
C5_2 N1_2 1_555 1_555
H3_2 C5_2 1_555 1_555
C6_2 C3_2 1_555 1_555
C7_2 C5_2 1_555 1_555
H4_2 C7_2 1_555 1_555
C8_2 C9_2 1_555 1_555
C9_2 H5_2 1_555 1_555
C10_2 C9_2 1_555 1_555
H6_2 C10_2 1_555 1_555
C11_2 C10_2 1_555 1_555
H7_2 C11_2 1_555 1_555
C12_2 C11_2 1_555 1_555
H8_2 C12_2 1_555 1_555
C13_2 C8_2 1_555 1_555
C14_2 O1_2 1_555 1_555
H9_2 C14_2 1_555 1_555
H10_2 C14_2 1_555 1_555
O3_2 C15_2 1_555 1_555
O4_2 C15_2 1_555 1_555
N6 C16_2 1_555 1_555
C15_2 C20_2 1_555 1_555
C16_2 H11_2 1_555 1_555
C17_2 C16_2 1_555 1_555
H12_2 C17_2 1_555 1_555
C18_2 C13_2 1_555 1_555
C19_2 N6 1_555 1_555
H13_2 C19_2 1_555 1_555
C20_2 C17_2 1_555 1_555
C21_2 C19_2 1_555 1_555
H14_2 C21_2 1_555 1_555
C22_2 C18_2 1_555 1_555
C23_2 C22_2 1_555 1_555
H15_2 C23_2 1_555 1_555
C24_2 C23_2 1_555 1_555
H16_2 C24_2 1_555 1_555
C25_2 C24_2 1_555 1_555
H17_2 C25_2 1_555 1_555
C26_2 C25_2 1_555 1_555
H18_2 C26_2 1_555 1_555
C27_2 C4_2 1_555 1_555
C28_2 O3_2 1_555 1_555
H19_2 C28_2 1_555 1_555
H20_2 C28_2 1_555 1_555
Cl2_3 Ni1_3 1_555 1_555
N6_2 Ni1_3 1_555 1_555
C4_2 C14_2 1_555 1_555
C6_2 C7_2 1_555 1_555
C12_2 C13_2 1_555 1_555
C18_2 C28_2 1_555 1_555
C20_2 C21_2 1_555 1_555
C22_2 C27_2 1_555 1_555
C26_2 C27_2 1_555 1_555
Ni1_4 Cl1_4 1_555 1_555
O5_2 C29_2 1_555 1_555
O6_2 C29_2 1_555 1_555
N3_2 Ni1_4 1_555 1_555
C29_2 C34_2 1_555 1_555
C30_2 N3_2 1_555 1_555
H21_2 C30_2 1_555 1_555
C31_2 C30_2 1_555 1_555
H22_2 C31_2 1_555 1_555
C32_2 C36_2 1_555 1_555
C33_2 N3_2 1_555 1_555
H23_2 C33_2 1_555 1_555
C34_2 C31_2 1_555 1_555
C35_2 C33_2 1_555 1_555
H24_2 C35_2 1_555 1_555
C36_2 C37_2 1_555 1_555
C37_2 H25_2 1_555 1_555
C38_2 C37_2 1_555 1_555
H26_2 C38_2 1_555 1_555
C39_2 C38_2 1_555 1_555
H27_2 C39_2 1_555 1_555
C40_2 C39_2 1_555 1_555
H28_2 C40_2 1_555 1_555
C41_2 C36_2 1_555 1_555
C42_2 O5_2 1_555 1_555
H29_2 C42_2 1_555 1_555
H30_2 C42_2 1_555 1_555
O7_2 C43_2 1_555 1_555
O8_2 C43_2 1_555 1_555
N5 C44_2 1_555 1_555
C43_2 C48_2 1_555 1_555
C44_2 H31_2 1_555 1_555
C45_2 C44_2 1_555 1_555
H32_2 C45_2 1_555 1_555
C46_2 C41_2 1_555 1_555
C47_2 N5 1_555 1_555
H33_2 C47_2 1_555 1_555
C48_2 C45_2 1_555 1_555
C49_2 C47_2 1_555 1_555
H34_2 C49_2 1_555 1_555
C50_2 C46_2 1_555 1_555
C51_2 C50_2 1_555 1_555
H35_2 C51_2 1_555 1_555
C52_2 C51_2 1_555 1_555
H36_2 C52_2 1_555 1_555
C53_2 C52_2 1_555 1_555
H37_2 C53_2 1_555 1_555
C54_2 C53_2 1_555 1_555
H38_2 C54_2 1_555 1_555
C55_2 C32_2 1_555 1_555
C56_2 O7_2 1_555 1_555
H39_2 C56_2 1_555 1_555
H40_2 C56_2 1_555 1_555
Cl2_4 Ni1_4 1_555 1_555
N5_2 Ni1_4 1_555 1_555
C32_2 C42_2 1_555 1_555
C34_2 C35_2 1_555 1_555
C40_2 C41_2 1_555 1_555
C46_2 C56_2 1_555 1_555
C48_2 C49_2 1_555 1_555
C50_2 C55_2 1_555 1_555
C54_2 C55_2 1_555 1_555
Ni3 Cl1_5 1_555 1_555
O1_3 C1_3 1_555 1_555
O2_3 C1_3 1_555 1_555
N1_3 Ni3 1_555 1_555
C1_3 C6_3 1_555 1_555
C2_3 N1_3 1_555 1_555
H1_3 C2_3 1_555 1_555
C3_3 C2_3 1_555 1_555
H2_3 C3_3 1_555 1_555
C4_3 C8_3 1_555 1_555
C5_3 N1_3 1_555 1_555
H3_3 C5_3 1_555 1_555
C6_3 C3_3 1_555 1_555
C7_3 C5_3 1_555 1_555
H4_3 C7_3 1_555 1_555
C8_3 C9_3 1_555 1_555
C9_3 H5_3 1_555 1_555
C10_3 C9_3 1_555 1_555
H6_3 C10_3 1_555 1_555
C11_3 C10_3 1_555 1_555
H7_3 C11_3 1_555 1_555
C12_3 C11_3 1_555 1_555
C13_3 C8_3 1_555 1_555
C14_3 O1_3 1_555 1_555
H9_3 C14_3 1_555 1_555
H10_3 C14_3 1_555 1_555
O5_3 C29_3 1_555 1_555
O6_3 C29_3 1_555 1_555
N3_3 Ni3 1_555 1_555
C29_3 C34_3 1_555 1_555
C30_3 N3_3 1_555 1_555
H21_3 C30_3 1_555 1_555
C31_3 C30_3 1_555 1_555
H22_3 C31_3 1_555 1_555
C32_3 C36_3 1_555 1_555
C33_3 N3_3 1_555 1_555
H23_3 C33_3 1_555 1_555
C34_3 C31_3 1_555 1_555
C35_3 C33_3 1_555 1_555
H24_3 C35_3 1_555 1_555
C36_3 C37_3 1_555 1_555
C37_3 H25_3 1_555 1_555
C38_3 C37_3 1_555 1_555
H26_3 C38_3 1_555 1_555
C39_3 C38_3 1_555 1_555
H27_3 C39_3 1_555 1_555
C40_3 C39_3 1_555 1_555
C41_3 C36_3 1_555 1_555
C42_3 O5_3 1_555 1_555
H29_3 C42_3 1_555 1_555
H30_3 C42_3 1_555 1_555
Cl2_5 Ni3 1_555 1_555
C4_3 C14_3 1_555 1_555
C6_3 C7_3 1_555 1_555
C12_3 C13_3 1_555 1_555
C32_3 C42_3 1_555 1_555
C34_3 C35_3 1_555 1_555
C40_3 C41_3 1_555 1_555
O3_3 C15_3 1_555 1_555
O4_3 C15_3 1_555 1_555
N6_2 C16_3 1_555 1_555
C15_3 C20_3 1_555 1_555
C16_3 H11_3 1_555 1_555
C17_3 C16_3 1_555 1_555
H12_3 C17_3 1_555 1_555
C19_3 N6_2 1_555 1_555
H13_3 C19_3 1_555 1_555
C20_3 C17_3 1_555 1_555
C21_3 C19_3 1_555 1_555
H14_3 C21_3 1_555 1_555
C22_3 C18_3 1_555 1_555
C23_3 C22_3 1_555 1_555
H15_3 C23_3 1_555 1_555
C24_3 C23_3 1_555 1_555
H16_3 C24_3 1_555 1_555
C25_3 C24_3 1_555 1_555
H17_3 C25_3 1_555 1_555
C26_3 C25_3 1_555 1_555
C28_3 O3_3 1_555 1_555
H19_3 C28_3 1_555 1_555
H20_3 C28_3 1_555 1_555
O7_3 C43_3 1_555 1_555
O8_3 C43_3 1_555 1_555
N5_2 C44_3 1_555 1_555
C43_3 C48_3 1_555 1_555
C44_3 H31_3 1_555 1_555
C45_3 C44_3 1_555 1_555
H32_3 C45_3 1_555 1_555
C47_3 N5_2 1_555 1_555
H33_3 C47_3 1_555 1_555
C48_3 C45_3 1_555 1_555
C49_3 C47_3 1_555 1_555
H34_3 C49_3 1_555 1_555
C50_3 C46_3 1_555 1_555
C51_3 C50_3 1_555 1_555
H35_3 C51_3 1_555 1_555
C52_3 C51_3 1_555 1_555
H36_3 C52_3 1_555 1_555
C53_3 C52_3 1_555 1_555
H37_3 C53_3 1_555 1_555
C54_3 C53_3 1_555 1_555
C56_3 O7_3 1_555 1_555
H39_3 C56_3 1_555 1_555
H40_3 C56_3 1_555 1_555
C18_3 C28_3 1_555 1_555
C20_3 C21_3 1_555 1_555
C22_3 C27_3 1_555 1_555
C26_3 C27_3 1_555 1_555
C46_3 C56_3 1_555 1_555
C48_3 C49_3 1_555 1_555
C50_3 C55_3 1_555 1_555
C54_3 C55_3 1_555 1_555

#END
