
###############################################################################
#
# This file contains modified crystal structure data generated from the
# MOF subset of the Cambridge Structural Database (CSD) v543 
# hosted by the Cambridge Crystallographic Data Centre (CCDC).
#
# This work is licensed under the Creative Commons
# Attribution-NonCommercial-ShareAlike 4.0 International License.
# To view a copy of this license, visit
# http://creativecommons.org/licenses/by-nc-sa/4.0/
# or send a letter to
# Creative Commons, PO Box 1866, Mountain View, CA 94042, USA.
#
# CIF created using the CSD Python API on 29 September 2022
# The structure has been converted into the P1 space group
# The structure has a 3D framework
# The original CSD entry YAWWIG is in the hexagonal crystal system
# The original CSD entry YAWWIG is in a Sohncke space group
# The framework has been calculated to contain at least 10.0% void space
# The void calculation uses a probe of radius 1.32A, grid spacing 0.4
#
###############################################################################

data_YAWWIG
_chemical_formula_moiety         '(C168 H120 Cl10 N12 Ni5 O24)n'
_symmetry_cell_setting           triclinic
_symmetry_space_group_name_H-M   'P 1'
_symmetry_Int_Tables_number      1
_space_group_name_Hall           'P 1'
loop_
_symmetry_equiv_pos_site_id
_symmetry_equiv_pos_as_xyz
1 x,y,z
_cell_length_a                   21.6042(16)
_cell_length_b                   21.6042(16)
_cell_length_c                   15.9301(10)
_cell_angle_alpha                90
_cell_angle_beta                 90
_cell_angle_gamma                120
_cell_volume                     6439.11
loop_
_atom_site_label
_atom_site_type_symbol
_atom_site_fract_x
_atom_site_fract_y
_atom_site_fract_z
Ni3 Ni -0.000000 0.500000 0.833333
Ni1 Ni 0.500000 -0.000000 0.500000
Cl1 Cl 0.500000 0.000000 0.65108(9)
O1 O 0.4671(3) 0.3049(3) 0.5277(3)
N1 N 0.4716(3) 0.0806(3) 0.4971(3)
O2 O 0.3791(4) 0.2484(3) 0.4395(3)
C1 C 0.4152(6) 0.3220(5) 0.7012(4)
H1 H 0.382848 0.294186 0.658053
C2 C 0.4994(4) 0.1343(4) 0.5521(4)
H2 H 0.528871 0.133784 0.596034
C3 C 0.4862(4) 0.1911(5) 0.5470(4)
H3 H 0.509547 0.230235 0.584655
C4 C 0.4456(5) 0.3448(6) 0.8440(6)
H4 H 0.433150 0.326314 0.899330
C5 C 0.5060(5) 0.4151(4) 0.5993(4)
C6 C 0.4231(4) 0.0771(4) 0.4405(3)
H5 H 0.398540 0.035775 0.406305
C7 C 0.5244(6) 0.4338(6) 0.7509(5)
C8 C 0.4395(4) 0.1911(5) 0.4876(4)
C9 C 0.5011(5) 0.4057(6) 0.8368(5)
H6 H 0.526760 0.432345 0.884711
C10 C 0.4835(5) 0.3898(6) 0.6806(5)
C11 C 0.4084(4) 0.1319(4) 0.4314(4)
H7 H 0.377561 0.130242 0.387808
C12 C 0.4011(6) 0.3021(5) 0.7805(5)
H8 H 0.359894 0.257906 0.794080
C13 C 0.4586(5) 0.3681(5) 0.5280(4)
H9 H 0.408035 0.354323 0.537976
H10 H 0.473985 0.393693 0.473665
C14 C 0.4239(5) 0.2509(5) 0.4827(4)
O3 O 0.6951(3) 0.5329(3) 0.8056(3)
N2 N 0.9194(3) 0.5284(3) 0.8362(3)
O4 O 0.7516(3) 0.6209(4) 0.8938(3)
C15 C 0.6780(5) 0.5848(6) 0.6321(4)
H11 H 0.705814 0.617152 0.675280
C16 C 0.8657(4) 0.5006(4) 0.7812(4)
H12 H 0.866216 0.471129 0.737299
C17 C 0.8089(5) 0.5138(4) 0.7863(4)
H13 H 0.769765 0.490453 0.748678
C18 C 0.6552(6) 0.5544(5) 0.4893(6)
H14 H 0.673686 0.566850 0.434003
C19 C 0.5849(4) 0.4940(5) 0.7340(4)
C20 C 0.9229(4) 0.5769(4) 0.8928(3)
H15 H 0.964225 0.601460 0.927028
C21 C 0.5662(6) 0.4756(6) 0.5824(5)
C22 C 0.8089(5) 0.5605(4) 0.8457(4)
C23 C 0.5943(6) 0.4989(5) 0.4965(5)
H16 H 0.567655 0.473240 0.448622
C24 C 0.6102(6) 0.5165(5) 0.6527(5)
C25 C 0.8681(4) 0.5916(4) 0.9019(4)
H17 H 0.869758 0.622439 0.945525
C26 C 0.6979(5) 0.5989(6) 0.5528(5)
H18 H 0.742094 0.640106 0.539253
C27 C 0.6319(5) 0.5414(5) 0.8053(4)
H19 H 0.645677 0.591965 0.795357
H20 H 0.606307 0.526015 0.859668
C28 C 0.7491(5) 0.5761(5) 0.8506(4)
Cl2 Cl 0.500000 -0.000000 0.34892(9)
Ni3_2 Ni 1.000000 0.500000 0.833333
N6 N 0.6090(4) 0.0806(3) 0.5029(3)
Ni1_2 Ni 0.500000 1.000000 0.500000
Cl1_2 Cl 0.500000 1.000000 0.65108(9)
O5 O 0.5329(3) 0.6951(3) 0.5277(3)
N3 N 0.5284(3) 0.9194(3) 0.4971(3)
O6 O 0.6209(4) 0.7516(3) 0.4395(3)
C29 C 0.5848(6) 0.6780(5) 0.7012(4)
H21 H 0.617152 0.705814 0.658053
C30 C 0.5006(4) 0.8657(4) 0.5521(4)
H22 H 0.471129 0.866216 0.596034
C31 C 0.5138(4) 0.8089(5) 0.5470(4)
H23 H 0.490453 0.769765 0.584655
C32 C 0.5544(5) 0.6552(6) 0.8440(6)
H24 H 0.566850 0.673686 0.899330
C33 C 0.4940(5) 0.5849(4) 0.5993(4)
C34 C 0.5769(4) 0.9229(4) 0.4405(3)
H25 H 0.601460 0.964225 0.406305
C35 C 0.4756(6) 0.5662(6) 0.7509(5)
C36 C 0.5605(4) 0.8089(5) 0.4876(4)
C37 C 0.4989(5) 0.5943(6) 0.8368(5)
H26 H 0.473240 0.567655 0.884711
C38 C 0.5165(5) 0.6102(6) 0.6806(5)
C39 C 0.5916(4) 0.8681(4) 0.4314(4)
H27 H 0.622439 0.869758 0.387808
C40 C 0.5989(6) 0.6979(5) 0.7805(5)
H28 H 0.640106 0.742094 0.794080
C41 C 0.5414(5) 0.6319(5) 0.5280(4)
H29 H 0.591965 0.645677 0.537976
H30 H 0.526015 0.606307 0.473665
C42 C 0.5761(5) 0.7491(5) 0.4827(4)
O7 O 0.3049(3) 0.4671(3) 0.8056(3)
N4 N 0.0806(3) 0.4716(3) 0.8362(3)
O8 O 0.2484(3) 0.3791(4) 0.8938(3)
C43 C 0.3220(5) 0.4152(6) 0.6321(4)
H31 H 0.294186 0.382848 0.675280
C44 C 0.1343(4) 0.4994(4) 0.7812(4)
H32 H 0.133784 0.528871 0.737299
C45 C 0.1911(5) 0.4862(4) 0.7863(4)
H33 H 0.230235 0.509547 0.748678
C46 C 0.3448(6) 0.4456(5) 0.4893(6)
H34 H 0.326314 0.433150 0.434003
C47 C 0.4151(4) 0.5060(5) 0.7340(4)
C48 C 0.0771(4) 0.4231(4) 0.8928(3)
H35 H 0.035775 0.398540 0.927028
C49 C 0.4338(6) 0.5244(6) 0.5824(5)
C50 C 0.1911(5) 0.4395(4) 0.8457(4)
C51 C 0.4057(6) 0.5011(5) 0.4965(5)
H36 H 0.432345 0.526760 0.448622
C52 C 0.3898(6) 0.4835(5) 0.6527(5)
C53 C 0.1319(4) 0.4084(4) 0.9019(4)
H37 H 0.130242 0.377561 0.945525
C54 C 0.3021(5) 0.4011(6) 0.5528(5)
H38 H 0.257906 0.359894 0.539253
C55 C 0.3681(5) 0.4586(5) 0.8053(4)
H39 H 0.354323 0.408035 0.795357
H40 H 0.393693 0.473985 0.859668
C56 C 0.2509(5) 0.4239(5) 0.8506(4)
Cl2_2 Cl 0.500000 1.000000 0.34892(9)
N5 N 0.3910(4) 0.9194(3) 0.5029(3)
Ni1_3 Ni 0.500000 0.500000 0.166667
Cl1_3 Cl 0.500000 0.500000 0.31775(9)
O1_2 O 0.1622(4) 0.4671(3) 0.1944(3)
N1_2 N 0.3910(4) 0.4716(3) 0.1638(3)
O2_2 O 0.1307(5) 0.3791(4) 0.1062(3)
C1_2 C 0.0932(8) 0.4152(6) 0.3679(4)
H1_2 H 0.088662 0.382848 0.324720
C2_2 C 0.3651(6) 0.4994(4) 0.2188(4)
H2_2 H 0.395087 0.528871 0.262701
C3_2 C 0.2951(6) 0.4862(4) 0.2137(4)
H3_2 H 0.279312 0.509547 0.251322
C4_2 C 0.1008(8) 0.4456(5) 0.5107(6)
H4_2 H 0.106836 0.433150 0.565997
C5_2 C 0.0909(6) 0.5060(5) 0.2660(4)
C6_2 C 0.3460(6) 0.4231(4) 0.1072(3)
H5_2 H 0.362765 0.398540 0.072972
C7_2 C 0.0906(8) 0.5244(6) 0.4176(5)
C8_2 C 0.2484(6) 0.4395(4) 0.1543(4)
C9_2 C 0.0954(8) 0.5011(5) 0.5035(5)
H6_2 H 0.094415 0.526760 0.551378
C10_2 C 0.0937(8) 0.4835(5) 0.3473(5)
C11_2 C 0.2765(6) 0.4084(4) 0.0981(4)
H7_2 H 0.247319 0.377561 0.054475
C12_2 C 0.0990(8) 0.4011(6) 0.4472(5)
H8_2 H 0.101988 0.359894 0.460747
C13_2 C 0.0905(7) 0.4586(5) 0.1947(4)
H9_2 H 0.053712 0.408035 0.204643
H10_2 H 0.080292 0.473985 0.140332
C14_2 C 0.1730(7) 0.4239(5) 0.1494(4)
O3_2 O 0.1622(4) 0.6951(3) 0.4723(3)
O4_2 O 0.1307(5) 0.7516(3) 0.5605(3)
C15_2 C 0.0932(8) 0.6780(5) 0.2988(4)
H11_2 H 0.088662 0.705814 0.341947
C16_2 C 0.3651(6) 0.8657(4) 0.4479(4)
H12_2 H 0.395087 0.866216 0.403966
C17_2 C 0.2951(6) 0.8089(5) 0.4530(4)
H13_2 H 0.279312 0.769765 0.415345
C18_2 C 0.1008(8) 0.6552(6) 0.1560(6)
H14_2 H 0.106836 0.673686 0.100670
C19_2 C 0.0909(6) 0.5849(4) 0.4007(4)
C20_2 C 0.3460(6) 0.9229(4) 0.5595(3)
H15_2 H 0.362765 0.964225 0.593695
C21_2 C 0.0906(8) 0.5662(6) 0.2491(5)
C22_2 C 0.2484(6) 0.8089(5) 0.5124(4)
C23_2 C 0.0954(8) 0.5943(6) 0.1632(5)
H16_2 H 0.094415 0.567655 0.115289
C24_2 C 0.0937(8) 0.6102(6) 0.3194(5)
C25_2 C 0.2765(6) 0.8681(4) 0.5686(4)
H17_2 H 0.247319 0.869758 0.612192
C26_2 C 0.0990(8) 0.6979(5) 0.2195(5)
H18_2 H 0.101988 0.742094 0.205920
C27_2 C 0.0905(7) 0.6319(5) 0.4720(4)
H19_2 H 0.053712 0.645677 0.462024
H20_2 H 0.080292 0.606307 0.526335
C28_2 C 0.1730(7) 0.7491(5) 0.5173(4)
O5_2 O 0.8378(4) 0.5329(3) 0.1944(3)
N3_2 N 0.6090(4) 0.5284(3) 0.1638(3)
O6_2 O 0.8693(5) 0.6209(4) 0.1062(3)
C29_2 C 0.9068(8) 0.5848(6) 0.3679(4)
H21_2 H 0.911338 0.617152 0.324720
C30_2 C 0.6349(6) 0.5006(4) 0.2188(4)
H22_2 H 0.604913 0.471129 0.262701
C31_2 C 0.7049(6) 0.5138(4) 0.2137(4)
H23_2 H 0.720688 0.490453 0.251322
C32_2 C 0.8992(8) 0.5544(5) 0.5107(6)
H24_2 H 0.893164 0.566850 0.565997
C33_2 C 0.9091(6) 0.4940(5) 0.2660(4)
C34_2 C 0.6540(6) 0.5769(4) 0.1072(3)
H25_2 H 0.637235 0.601460 0.072972
C35_2 C 0.9094(8) 0.4756(6) 0.4176(5)
C36_2 C 0.7516(6) 0.5605(4) 0.1543(4)
C37_2 C 0.9046(8) 0.4989(5) 0.5035(5)
H26_2 H 0.905585 0.473240 0.551378
C38_2 C 0.9063(8) 0.5165(5) 0.3473(5)
C39_2 C 0.7235(6) 0.5916(4) 0.0981(4)
H27_2 H 0.752681 0.622439 0.054475
C40_2 C 0.9010(8) 0.5989(6) 0.4472(5)
H28_2 H 0.898012 0.640106 0.460747
C41_2 C 0.9095(7) 0.5414(5) 0.1947(4)
H29_2 H 0.946288 0.591965 0.204643
H30_2 H 0.919708 0.526015 0.140332
C42_2 C 0.8270(7) 0.5761(5) 0.1494(4)
O7_2 O 0.8378(4) 0.3049(3) 0.4723(3)
O8_2 O 0.8693(5) 0.2484(3) 0.5605(3)
C43_2 C 0.9068(8) 0.3220(5) 0.2988(4)
H31_2 H 0.911338 0.294186 0.341947
C44_2 C 0.6349(6) 0.1343(4) 0.4479(4)
H32_2 H 0.604913 0.133784 0.403966
C45_2 C 0.7049(6) 0.1911(5) 0.4530(4)
H33_2 H 0.720688 0.230235 0.415345
C46_2 C 0.8992(8) 0.3448(6) 0.1560(6)
H34_2 H 0.893164 0.326314 0.100670
C47_2 C 0.9091(6) 0.4151(4) 0.4007(4)
C48_2 C 0.6540(6) 0.0771(4) 0.5595(3)
H35_2 H 0.637235 0.035775 0.593695
C49_2 C 0.9094(8) 0.4338(6) 0.2491(5)
C50_2 C 0.7516(6) 0.1911(5) 0.5124(4)
C51_2 C 0.9046(8) 0.4057(6) 0.1632(5)
H36_2 H 0.905585 0.432345 0.115289
C52_2 C 0.9063(8) 0.3898(6) 0.3194(5)
C53_2 C 0.7235(6) 0.1319(4) 0.5686(4)
H37_2 H 0.752681 0.130242 0.612192
C54_2 C 0.9010(8) 0.3021(5) 0.2195(5)
H38_2 H 0.898012 0.257906 0.205920
C55_2 C 0.9095(7) 0.3681(5) 0.4720(4)
H39_2 H 0.946288 0.354323 0.462024
H40_2 H 0.919708 0.393693 0.526335
C56_2 C 0.8270(7) 0.2509(5) 0.5173(4)
Cl2_3 Cl 0.500000 0.500000 0.01559(9)
N5_2 N 0.4716(5) 0.3910(4) 0.1696(3)
N6_2 N 0.5284(5) 0.6090(4) 0.1696(3)
C29_3 C 0.3220(5) 0.9068(8) 0.0345(4)
C32_3 C 0.3448(6) 0.8992(8) 0.1773(6)
H24_3 H 0.326314 0.893164 0.232663
C35_3 C 0.4338(6) 0.9094(8) 0.0842(5)
C37_3 C 0.4057(6) 0.9046(8) 0.1701(5)
H26_3 H 0.432345 0.905585 0.218044
C38_3 C 0.3898(6) 0.9063(8) 0.0139(5)
C40_3 C 0.3021(5) 0.9010(8) 0.1138(5)
H28_3 H 0.257906 0.898012 0.127413
O7_3 O 0.5329(3) 0.8378(4) 0.1390(3)
O8_3 O 0.6209(4) 0.8693(5) 0.2272(3)
H31_3 H 0.617152 0.911338 0.008614
C44_3 C 0.5006(4) 0.6349(6) 0.1146(4)
H32_3 H 0.471129 0.604913 0.070633
C45_3 C 0.5138(4) 0.7049(6) 0.1197(4)
H33_3 H 0.490453 0.720688 0.082012
C47_3 C 0.4940(5) 0.9091(6) 0.0674(4)
C48_3 C 0.5769(4) 0.6540(6) 0.2262(3)
H35_3 H 0.601460 0.637235 0.260362
C50_3 C 0.5605(4) 0.7516(6) 0.1791(4)
C53_3 C 0.5916(4) 0.7235(6) 0.2353(4)
H37_3 H 0.622439 0.752681 0.278859
C55_3 C 0.5414(5) 0.9095(7) 0.1387(4)
H39_3 H 0.591965 0.946288 0.128691
H40_3 H 0.526015 0.919708 0.193002
C56_3 C 0.5761(5) 0.8270(7) 0.1840(4)
Cl1_4 Cl -0.000000 0.500000 0.98441(9)
O5_3 O 0.3049(3) 0.8378(4) 0.8610(3)
N3_3 N 0.0806(3) 0.6090(4) 0.8304(3)
O6_3 O 0.2484(3) 0.8693(5) 0.7728(3)
H21_3 H 0.294186 0.911338 0.991386
C30_3 C 0.1343(4) 0.6349(6) 0.8854(4)
H22_3 H 0.133784 0.604913 0.929367
C31_3 C 0.1911(5) 0.7049(6) 0.8803(4)
H23_3 H 0.230235 0.720688 0.917988
C33_3 C 0.4151(4) 0.9091(6) 0.9326(4)
C34_3 C 0.0771(4) 0.6540(6) 0.7738(3)
H25_3 H 0.035775 0.637235 0.739638
C36_3 C 0.1911(5) 0.7516(6) 0.8209(4)
C39_3 C 0.1319(4) 0.7235(6) 0.7647(4)
H27_3 H 0.130242 0.752681 0.721141
C41_3 C 0.3681(5) 0.9095(7) 0.8613(4)
H29_3 H 0.354323 0.946288 0.871309
H30_3 H 0.393693 0.919708 0.806998
C42_3 C 0.2509(5) 0.8270(7) 0.8160(4)
C43_3 C 0.5848(6) 0.9068(8) 0.9655(4)
C46_3 C 0.5544(5) 0.8992(8) 0.8227(6)
H34_3 H 0.566850 0.893164 0.767337
C49_3 C 0.4756(6) 0.9094(8) 0.9158(5)
C51_3 C 0.4989(5) 0.9046(8) 0.8299(5)
H36_3 H 0.473240 0.905585 0.781956
C52_3 C 0.5165(5) 0.9063(8) 0.9861(5)
C54_3 C 0.5989(6) 0.9010(8) 0.8862(5)
H38_3 H 0.640106 0.898012 0.872587
Cl2_4 Cl 0.000000 0.500000 0.68225(9)
C1_3 C 0.6780(5) 0.0932(8) 0.0345(4)
C4_3 C 0.6552(6) 0.1008(8) 0.1773(6)
H4_3 H 0.673686 0.106836 0.232663
C7_3 C 0.5662(6) 0.0906(8) 0.0842(5)
C9_3 C 0.5943(6) 0.0954(8) 0.1701(5)
H6_3 H 0.567655 0.094415 0.218044
C10_3 C 0.6102(6) 0.0937(8) 0.0139(5)
C12_3 C 0.6979(5) 0.0990(8) 0.1138(5)
H8_3 H 0.742094 0.101988 0.127413
O3_3 O 0.4671(3) 0.1622(4) 0.1390(3)
O4_3 O 0.3791(4) 0.1307(5) 0.2272(3)
H11_3 H 0.382848 0.088662 0.008614
C16_3 C 0.4994(4) 0.3651(6) 0.1146(4)
H12_3 H 0.528871 0.395087 0.070633
C17_3 C 0.4862(4) 0.2951(6) 0.1197(4)
H13_3 H 0.509547 0.279312 0.082012
C19_3 C 0.5060(5) 0.0909(6) 0.0674(4)
C20_3 C 0.4231(4) 0.3460(6) 0.2262(3)
H15_3 H 0.398540 0.362765 0.260362
C22_3 C 0.4395(4) 0.2484(6) 0.1791(4)
C25_3 C 0.4084(4) 0.2765(6) 0.2353(4)
H17_3 H 0.377561 0.247319 0.278859
C27_3 C 0.4586(5) 0.0905(7) 0.1387(4)
H19_3 H 0.408035 0.053712 0.128691
H20_3 H 0.473985 0.080292 0.193002
C28_3 C 0.4239(5) 0.1730(7) 0.1840(4)
Cl1_5 Cl 1.000000 0.500000 0.98441(9)
O1_3 O 0.6951(3) 0.1622(4) 0.8610(3)
N1_3 N 0.9194(3) 0.3910(4) 0.8304(3)
O2_3 O 0.7516(3) 0.1307(5) 0.7728(3)
H1_3 H 0.705814 0.088662 0.991386
C2_3 C 0.8657(4) 0.3651(6) 0.8854(4)
H2_3 H 0.866216 0.395087 0.929367
C3_3 C 0.8089(5) 0.2951(6) 0.8803(4)
H3_3 H 0.769765 0.279312 0.917988
C5_3 C 0.5849(4) 0.0909(6) 0.9326(4)
C6_3 C 0.9229(4) 0.3460(6) 0.7738(3)
H5_3 H 0.964225 0.362765 0.739638
C8_3 C 0.8089(5) 0.2484(6) 0.8209(4)
C11_3 C 0.8681(4) 0.2765(6) 0.7647(4)
H7_3 H 0.869758 0.247319 0.721141
C13_3 C 0.6319(5) 0.0905(7) 0.8613(4)
H9_3 H 0.645677 0.053712 0.871309
H10_3 H 0.606307 0.080292 0.806998
C14_3 C 0.7491(5) 0.1730(7) 0.8160(4)
C15_3 C 0.4152(6) 0.0932(8) 0.9655(4)
C18_3 C 0.4456(5) 0.1008(8) 0.8227(6)
H14_3 H 0.433150 0.106836 0.767337
C21_3 C 0.5244(6) 0.0906(8) 0.9158(5)
C23_3 C 0.5011(5) 0.0954(8) 0.8299(5)
H16_3 H 0.526760 0.094415 0.781956
C24_3 C 0.4835(5) 0.0937(8) 0.9861(5)
C26_3 C 0.4011(6) 0.0990(8) 0.8862(5)
H18_3 H 0.359894 0.101988 0.872587
Cl2_5 Cl 1.000000 0.500000 0.68225(9)
loop_
_geom_bond_atom_site_label_1
_geom_bond_atom_site_label_2
_geom_bond_site_symmetry_1
_geom_bond_site_symmetry_2
Ni1 Cl1 1_555 1_555
O1 C13 1_555 1_555
N1 Ni1 1_555 1_555
O2 C14 1_555 1_555
C1 H1 1_555 1_555
C2 N1 1_555 1_555
H2 C2 1_555 1_555
C3 C2 1_555 1_555
H3 C3 1_555 1_555
C4 H4 1_555 1_555
C5 C10 1_555 1_555
C6 N1 1_555 1_555
H5 C6 1_555 1_555
C7 C9 1_555 1_555
C8 C3 1_555 1_555
C9 C4 1_555 1_555
H6 C9 1_555 1_555
C10 C1 1_555 1_555
C11 C6 1_555 1_555
H7 C11 1_555 1_555
C12 C1 1_555 1_555
H8 C12 1_555 1_555
C13 C5 1_555 1_555
H9 C13 1_555 1_555
H10 C13 1_555 1_555
C14 O1 1_555 1_555
O3 C27 1_555 1_555
N2 C16 1_555 1_555
O4 C28 1_555 1_555
C15 H11 1_555 1_555
C16 H12 1_555 1_555
C17 C16 1_555 1_555
H13 C17 1_555 1_555
C18 H14 1_555 1_555
C19 C7 1_555 1_555
C20 N2 1_555 1_555
H15 C20 1_555 1_555
C21 C5 1_555 1_555
C22 C17 1_555 1_555
C23 C18 1_555 1_555
H16 C23 1_555 1_555
C24 C15 1_555 1_555
C25 C20 1_555 1_555
H17 C25 1_555 1_555
C26 C15 1_555 1_555
H18 C26 1_555 1_555
C27 C19 1_555 1_555
H19 C27 1_555 1_555
H20 C27 1_555 1_555
C28 O3 1_555 1_555
Cl2 Ni1 1_555 1_555
Ni3_2 N2 1_555 1_555
N6 Ni1 1_555 1_555
C4 C12 1_555 1_555
C7 C10 1_555 1_555
C8 C11 1_555 1_555
C8 C14 1_555 1_555
C18 C26 1_555 1_555
C19 C24 1_555 1_555
C21 C23 1_555 1_555
C21 C24 1_555 1_555
C22 C25 1_555 1_555
C22 C28 1_555 1_555
Ni1_2 Cl1_2 1_555 1_555
O5 C41 1_555 1_555
N3 Ni1_2 1_555 1_555
O6 C42 1_555 1_555
C29 H21 1_555 1_555
C30 N3 1_555 1_555
H22 C30 1_555 1_555
C31 C30 1_555 1_555
H23 C31 1_555 1_555
C32 H24 1_555 1_555
C33 C38 1_555 1_555
C34 N3 1_555 1_555
H25 C34 1_555 1_555
C35 C37 1_555 1_555
C36 C31 1_555 1_555
C37 C32 1_555 1_555
H26 C37 1_555 1_555
C38 C29 1_555 1_555
C39 C34 1_555 1_555
H27 C39 1_555 1_555
C40 C29 1_555 1_555
H28 C40 1_555 1_555
C41 C33 1_555 1_555
H29 C41 1_555 1_555
H30 C41 1_555 1_555
C42 O5 1_555 1_555
O7 C55 1_555 1_555
N4 C44 1_555 1_555
O8 C56 1_555 1_555
C43 H31 1_555 1_555
C44 H32 1_555 1_555
C45 C44 1_555 1_555
H33 C45 1_555 1_555
C46 H34 1_555 1_555
C47 C35 1_555 1_555
C48 N4 1_555 1_555
H35 C48 1_555 1_555
C49 C33 1_555 1_555
C50 C45 1_555 1_555
C51 C46 1_555 1_555
H36 C51 1_555 1_555
C52 C43 1_555 1_555
C53 C48 1_555 1_555
H37 C53 1_555 1_555
C54 C43 1_555 1_555
H38 C54 1_555 1_555
C55 C47 1_555 1_555
H39 C55 1_555 1_555
H40 C55 1_555 1_555
C56 O7 1_555 1_555
Cl2_2 Ni1_2 1_555 1_555
Ni3 N4 1_555 1_555
N5 Ni1_2 1_555 1_555
C32 C40 1_555 1_555
C35 C38 1_555 1_555
C36 C39 1_555 1_555
C36 C42 1_555 1_555
C46 C54 1_555 1_555
C47 C52 1_555 1_555
C49 C51 1_555 1_555
C49 C52 1_555 1_555
C50 C53 1_555 1_555
C50 C56 1_555 1_555
Ni1_3 Cl1_3 1_555 1_555
O1_2 C13_2 1_555 1_555
N1_2 Ni1_3 1_555 1_555
O2_2 C14_2 1_555 1_555
C1_2 H1_2 1_555 1_555
C2_2 N1_2 1_555 1_555
H2_2 C2_2 1_555 1_555
C3_2 C2_2 1_555 1_555
H3_2 C3_2 1_555 1_555
C4_2 H4_2 1_555 1_555
C5_2 C10_2 1_555 1_555
C6_2 N1_2 1_555 1_555
H5_2 C6_2 1_555 1_555
C7_2 C9_2 1_555 1_555
C8_2 C3_2 1_555 1_555
C9_2 C4_2 1_555 1_555
H6_2 C9_2 1_555 1_555
C10_2 C1_2 1_555 1_555
C11_2 C6_2 1_555 1_555
H7_2 C11_2 1_555 1_555
C12_2 C1_2 1_555 1_555
H8_2 C12_2 1_555 1_555
C13_2 C5_2 1_555 1_555
H9_2 C13_2 1_555 1_555
H10_2 C13_2 1_555 1_555
C14_2 O1_2 1_555 1_555
O3_2 C27_2 1_555 1_555
N5 C16_2 1_555 1_555
O4_2 C28_2 1_555 1_555
C15_2 H11_2 1_555 1_555
C16_2 H12_2 1_555 1_555
C17_2 C16_2 1_555 1_555
H13_2 C17_2 1_555 1_555
C18_2 H14_2 1_555 1_555
C19_2 C7_2 1_555 1_555
C20_2 N5 1_555 1_555
H15_2 C20_2 1_555 1_555
C21_2 C5_2 1_555 1_555
C22_2 C17_2 1_555 1_555
C23_2 C18_2 1_555 1_555
H16_2 C23_2 1_555 1_555
C24_2 C15_2 1_555 1_555
C25_2 C20_2 1_555 1_555
H17_2 C25_2 1_555 1_555
C26_2 C15_2 1_555 1_555
H18_2 C26_2 1_555 1_555
C27_2 C19_2 1_555 1_555
H19_2 C27_2 1_555 1_555
H20_2 C27_2 1_555 1_555
C28_2 O3_2 1_555 1_555
O5_2 C41_2 1_555 1_555
N3_2 Ni1_3 1_555 1_555
O6_2 C42_2 1_555 1_555
C29_2 H21_2 1_555 1_555
C30_2 N3_2 1_555 1_555
H22_2 C30_2 1_555 1_555
C31_2 C30_2 1_555 1_555
H23_2 C31_2 1_555 1_555
C32_2 H24_2 1_555 1_555
C33_2 C38_2 1_555 1_555
C34_2 N3_2 1_555 1_555
H25_2 C34_2 1_555 1_555
C35_2 C37_2 1_555 1_555
C36_2 C31_2 1_555 1_555
C37_2 C32_2 1_555 1_555
H26_2 C37_2 1_555 1_555
C38_2 C29_2 1_555 1_555
C39_2 C34_2 1_555 1_555
H27_2 C39_2 1_555 1_555
C40_2 C29_2 1_555 1_555
H28_2 C40_2 1_555 1_555
C41_2 C33_2 1_555 1_555
H29_2 C41_2 1_555 1_555
H30_2 C41_2 1_555 1_555
C42_2 O5_2 1_555 1_555
O7_2 C55_2 1_555 1_555
N6 C44_2 1_555 1_555
O8_2 C56_2 1_555 1_555
C43_2 H31_2 1_555 1_555
C44_2 H32_2 1_555 1_555
C45_2 C44_2 1_555 1_555
H33_2 C45_2 1_555 1_555
C46_2 H34_2 1_555 1_555
C47_2 C35_2 1_555 1_555
C48_2 N6 1_555 1_555
H35_2 C48_2 1_555 1_555
C49_2 C33_2 1_555 1_555
C50_2 C45_2 1_555 1_555
C51_2 C46_2 1_555 1_555
H36_2 C51_2 1_555 1_555
C52_2 C43_2 1_555 1_555
C53_2 C48_2 1_555 1_555
H37_2 C53_2 1_555 1_555
C54_2 C43_2 1_555 1_555
H38_2 C54_2 1_555 1_555
C55_2 C47_2 1_555 1_555
H39_2 C55_2 1_555 1_555
H40_2 C55_2 1_555 1_555
C56_2 O7_2 1_555 1_555
Cl2_3 Ni1_3 1_555 1_555
N5_2 Ni1_3 1_555 1_555
N6_2 Ni1_3 1_555 1_555
C4_2 C12_2 1_555 1_555
C7_2 C10_2 1_555 1_555
C8_2 C11_2 1_555 1_555
C8_2 C14_2 1_555 1_555
C18_2 C26_2 1_555 1_555
C19_2 C24_2 1_555 1_555
C21_2 C23_2 1_555 1_555
C21_2 C24_2 1_555 1_555
C22_2 C25_2 1_555 1_555
C22_2 C28_2 1_555 1_555
C32_2 C40_2 1_555 1_555
C35_2 C38_2 1_555 1_555
C36_2 C39_2 1_555 1_555
C36_2 C42_2 1_555 1_555
C46_2 C54_2 1_555 1_555
C47_2 C52_2 1_555 1_555
C49_2 C51_2 1_555 1_555
C49_2 C52_2 1_555 1_555
C50_2 C53_2 1_555 1_555
C50_2 C56_2 1_555 1_555
C32_3 H24_3 1_555 1_555
C35_3 C37_3 1_555 1_555
C37_3 C32_3 1_555 1_555
H26_3 C37_3 1_555 1_555
C38_3 C29_3 1_555 1_555
C40_3 C29_3 1_555 1_555
H28_3 C40_3 1_555 1_555
O7_3 C55_3 1_555 1_555
N6_2 C44_3 1_555 1_555
O8_3 C56_3 1_555 1_555
C44_3 H32_3 1_555 1_555
C45_3 C44_3 1_555 1_555
H33_3 C45_3 1_555 1_555
C47_3 C35_3 1_555 1_555
C48_3 N6_2 1_555 1_555
H35_3 C48_3 1_555 1_555
C50_3 C45_3 1_555 1_555
C53_3 C48_3 1_555 1_555
H37_3 C53_3 1_555 1_555
C55_3 C47_3 1_555 1_555
H39_3 C55_3 1_555 1_555
H40_3 C55_3 1_555 1_555
C56_3 O7_3 1_555 1_555
C32_3 C40_3 1_555 1_555
C35_3 C38_3 1_555 1_555
C50_3 C53_3 1_555 1_555
C50_3 C56_3 1_555 1_555
Ni3 Cl1_4 1_555 1_555
O5_3 C41_3 1_555 1_555
N3_3 Ni3 1_555 1_555
O6_3 C42_3 1_555 1_555
C30_3 N3_3 1_555 1_555
H22_3 C30_3 1_555 1_555
C31_3 C30_3 1_555 1_555
H23_3 C31_3 1_555 1_555
C34_3 N3_3 1_555 1_555
H25_3 C34_3 1_555 1_555
C36_3 C31_3 1_555 1_555
C39_3 C34_3 1_555 1_555
H27_3 C39_3 1_555 1_555
C41_3 C33_3 1_555 1_555
H29_3 C41_3 1_555 1_555
H30_3 C41_3 1_555 1_555
C42_3 O5_3 1_555 1_555
C46_3 H34_3 1_555 1_555
C49_3 C33_3 1_555 1_555
C51_3 C46_3 1_555 1_555
H36_3 C51_3 1_555 1_555
C52_3 C43_3 1_555 1_555
C54_3 C43_3 1_555 1_555
H38_3 C54_3 1_555 1_555
Cl2_4 Ni3 1_555 1_555
C36_3 C39_3 1_555 1_555
C36_3 C42_3 1_555 1_555
C46_3 C54_3 1_555 1_555
C49_3 C51_3 1_555 1_555
C49_3 C52_3 1_555 1_555
C4_3 H4_3 1_555 1_555
C7_3 C9_3 1_555 1_555
C9_3 C4_3 1_555 1_555
H6_3 C9_3 1_555 1_555
C10_3 C1_3 1_555 1_555
C12_3 C1_3 1_555 1_555
H8_3 C12_3 1_555 1_555
O3_3 C27_3 1_555 1_555
N5_2 C16_3 1_555 1_555
O4_3 C28_3 1_555 1_555
C16_3 H12_3 1_555 1_555
C17_3 C16_3 1_555 1_555
H13_3 C17_3 1_555 1_555
C19_3 C7_3 1_555 1_555
C20_3 N5_2 1_555 1_555
H15_3 C20_3 1_555 1_555
C22_3 C17_3 1_555 1_555
C25_3 C20_3 1_555 1_555
H17_3 C25_3 1_555 1_555
C27_3 C19_3 1_555 1_555
H19_3 C27_3 1_555 1_555
H20_3 C27_3 1_555 1_555
C28_3 O3_3 1_555 1_555
C4_3 C12_3 1_555 1_555
C7_3 C10_3 1_555 1_555
C22_3 C25_3 1_555 1_555
C22_3 C28_3 1_555 1_555
Ni3_2 Cl1_5 1_555 1_555
O1_3 C13_3 1_555 1_555
N1_3 Ni3_2 1_555 1_555
O2_3 C14_3 1_555 1_555
C2_3 N1_3 1_555 1_555
H2_3 C2_3 1_555 1_555
C3_3 C2_3 1_555 1_555
H3_3 C3_3 1_555 1_555
C6_3 N1_3 1_555 1_555
H5_3 C6_3 1_555 1_555
C8_3 C3_3 1_555 1_555
C11_3 C6_3 1_555 1_555
H7_3 C11_3 1_555 1_555
C13_3 C5_3 1_555 1_555
H9_3 C13_3 1_555 1_555
H10_3 C13_3 1_555 1_555
C14_3 O1_3 1_555 1_555
C18_3 H14_3 1_555 1_555
C21_3 C5_3 1_555 1_555
C23_3 C18_3 1_555 1_555
H16_3 C23_3 1_555 1_555
C24_3 C15_3 1_555 1_555
C26_3 C15_3 1_555 1_555
H18_3 C26_3 1_555 1_555
Cl2_5 Ni3_2 1_555 1_555
C8_3 C11_3 1_555 1_555
C8_3 C14_3 1_555 1_555
C18_3 C26_3 1_555 1_555
C21_3 C23_3 1_555 1_555
C21_3 C24_3 1_555 1_555

#END
