
###############################################################################
#
# This file contains modified crystal structure data generated from the
# MOF subset of the Cambridge Structural Database (CSD) v543 
# hosted by the Cambridge Crystallographic Data Centre (CCDC).
#
# This work is licensed under the Creative Commons
# Attribution-NonCommercial-ShareAlike 4.0 International License.
# To view a copy of this license, visit
# http://creativecommons.org/licenses/by-nc-sa/4.0/
# or send a letter to
# Creative Commons, PO Box 1866, Mountain View, CA 94042, USA.
#
# CIF created using the CSD Python API on 29 September 2022
# The structure has been converted into the P1 space group
# The structure has a 3D framework
# The original CSD entry YAXBOP is in the monoclinic crystal system
# The framework has been calculated to contain at least 10.0% void space
# The void calculation uses a probe of radius 1.32A, grid spacing 0.4
#
###############################################################################

data_YAXBOP
_chemical_formula_moiety         '(C32 H16 Fe6 O19)n'
_symmetry_cell_setting           triclinic
_symmetry_space_group_name_H-M   'P 1'
_symmetry_Int_Tables_number      1
_space_group_name_Hall           'P 1'
loop_
_symmetry_equiv_pos_site_id
_symmetry_equiv_pos_as_xyz
1 x,y,z
_cell_length_a                   6.889(2)
_cell_length_b                   11.073(3)
_cell_length_c                   18.280(6)
_cell_angle_alpha                90.00
_cell_angle_beta                 92.655(6)
_cell_angle_gamma                90.00
_cell_volume                     1392.94
loop_
_atom_site_label
_atom_site_type_symbol
_atom_site_fract_x
_atom_site_fract_y
_atom_site_fract_z
Fe1 Fe 0.0000 0.0000 0.0000
O2 O 0.1103(7) 0.1260(5) 0.0712(3)
O3 O 0.4325(7) 0.1006(5) 0.0888(3)
C1 C 0.2596(11) 0.1946(8) 0.1815(4)
C2 C 0.4262(11) 0.2157(9) 0.2252(5)
H1 H 0.5462 0.1919 0.2088
C3 C 0.2650(12) 0.1340(7) 0.1085(4)
C4 C 0.0825(11) 0.2295(9) 0.2085(5)
Fe3 Fe 0.5000 0.0000 0.0000
Fe4 Fe 0.5000 0.5000 0.5000
Fe5 Fe 0.0000 0.5000 0.5000
O5 O 0.3897(7) 0.3740(5) 0.4288(3)
O7 O 0.0675(7) 0.3994(5) 0.4112(3)
C5 C 0.2404(11) 0.3054(8) 0.3185(4)
C6 C 0.0738(11) 0.2843(9) 0.2748(5)
C7 C 0.2350(12) 0.3660(7) 0.3915(4)
C8 C 0.4175(11) 0.2705(9) 0.2915(5)
H4 H 0.5317 0.2849 0.3193
Fe1_2 Fe 0.0000 0.0000 1.0000
Fe3_2 Fe 0.5000 0.0000 1.0000
O9 O 0.0675(7) 0.1006(5) 0.9112(3)
Fe1_3 Fe 0.0000 1.0000 0.0000
Fe3_3 Fe 0.5000 1.0000 0.0000
O4 O 0.2500 0.9182(7) 0.0000
Fe1_4 Fe 0.0000 1.0000 1.0000
Fe3_4 Fe 0.5000 1.0000 1.0000
O4_2 O 0.2500 0.9182(7) 1.0000
Fe1_5 Fe 1.0000 0.0000 0.0000
O1 O 0.7500 0.0818(7) 0.0000
H2 H 0.9683 0.2151 0.1807
Fe5_2 Fe 1.0000 0.5000 0.5000
H3 H 0.9538 0.3081 0.2912
Fe1_6 Fe 1.0000 0.0000 1.0000
O1_2 O 0.7500 0.0818(7) 1.0000
Fe1_7 Fe 1.0000 1.0000 0.0000
O8 O 0.9325(7) 0.8994(5) 0.0888(3)
Fe1_8 Fe 1.0000 1.0000 1.0000
O6 O 0.8897(7) 0.8740(5) 0.9288(3)
H1_2 H 0.0462 0.6919 0.7088
H4_2 H 0.0317 0.7849 0.8193
O1_3 O 0.2500 0.5818(7) 0.5000
O2_2 O 0.6103(7) 0.6260(5) 0.5712(3)
O3_2 O 0.9325(7) 0.6006(5) 0.5888(3)
C1_2 C 0.7596(11) 0.6946(8) 0.6815(4)
C2_2 C 0.9262(11) 0.7157(9) 0.7252(5)
C3_2 C 0.7650(12) 0.6340(7) 0.6085(4)
C4_2 C 0.5825(11) 0.7295(9) 0.7085(5)
H2_2 H 0.4683 0.7151 0.6807
O4_3 O 0.7500 0.4182(7) 0.5000
O7_2 O 0.5675(7) 0.8994(5) 0.9112(3)
O8_2 O 0.4325(7) 0.3994(5) 0.5888(3)
O9_2 O 0.5675(7) 0.6006(5) 0.4112(3)
C5_2 C 0.7404(11) 0.8054(8) 0.8185(4)
C6_2 C 0.5738(11) 0.7843(9) 0.7748(5)
H3_2 H 0.4538 0.8081 0.7912
C7_2 C 0.7350(12) 0.8660(7) 0.8915(4)
C8_2 C 0.9175(11) 0.7705(9) 0.7915(5)
O2_3 O 0.3897(7) 0.1260(5) 0.9288(3)
C1_3 C 0.2404(11) 0.1946(8) 0.8185(4)
C2_3 C 0.0738(11) 0.2157(9) 0.7748(5)
C3_3 C 0.2350(12) 0.1340(7) 0.8915(4)
C4_3 C 0.4175(11) 0.2295(9) 0.7915(5)
H2_3 H 0.5317 0.2151 0.8193
O5_2 O 0.1103(7) 0.3740(5) 0.5712(3)
C5_3 C 0.2596(11) 0.3054(8) 0.6815(4)
C6_3 C 0.4262(11) 0.2843(9) 0.7252(5)
H3_3 H 0.5462 0.3081 0.7088
C7_3 C 0.2650(12) 0.3660(7) 0.6085(4)
C8_3 C 0.0825(11) 0.2705(9) 0.7085(5)
O6_2 O 0.6103(7) 0.8740(5) 0.0712(3)
H1_3 H 0.9538 0.1919 0.7912
H4_3 H 0.9683 0.2849 0.6807
H2_4 H 0.0317 0.7151 0.3193
H3_4 H 0.0462 0.8081 0.2088
O2_4 O 0.8897(7) 0.6260(5) 0.4288(3)
C1_4 C 0.7404(11) 0.6946(8) 0.3185(4)
C2_4 C 0.5738(11) 0.7157(9) 0.2748(5)
H1_4 H 0.4538 0.6919 0.2912
C3_4 C 0.7350(12) 0.6340(7) 0.3915(4)
C4_4 C 0.9175(11) 0.7295(9) 0.2915(5)
C5_4 C 0.7596(11) 0.8054(8) 0.1815(4)
C6_4 C 0.9262(11) 0.7843(9) 0.2252(5)
C7_4 C 0.7650(12) 0.8660(7) 0.1085(4)
C8_4 C 0.5825(11) 0.7705(9) 0.2085(5)
H4_4 H 0.4683 0.7849 0.1807
loop_
_geom_bond_atom_site_label_1
_geom_bond_atom_site_label_2
_geom_bond_site_symmetry_1
_geom_bond_site_symmetry_2
O2 Fe1 1_555 1_555
O3 C3 1_555 1_555
C1 C2 1_555 1_555
C2 H1 1_555 1_555
C3 O2 1_555 1_555
C4 C1 1_555 1_555
Fe3 O3 1_555 1_555
Fe4 O5 1_555 1_555
Fe5 O7 1_555 1_555
O5 C7 1_555 1_555
O7 C7 1_555 1_555
C5 C6 1_555 1_555
C6 C4 1_555 1_555
C7 C5 1_555 1_555
C8 C2 1_555 1_555
H4 C8 1_555 1_555
C1 C3 1_555 1_555
C5 C8 1_555 1_555
O9 Fe1_2 1_555 1_555
O4 Fe1_3 1_555 1_555
Fe3_3 O4 1_555 1_555
O4_2 Fe1_4 1_555 1_555
Fe3_4 O4_2 1_555 1_555
Fe1_5 O1 1_555 1_555
O1 Fe3 1_555 1_555
Fe1_6 O1_2 1_555 1_555
O1_2 Fe3_2 1_555 1_555
O8 Fe1_7 1_555 1_555
O6 Fe1_8 1_555 1_555
Fe4 O1_3 1_555 1_555
O1_3 Fe5 1_555 1_555
O2_2 Fe4 1_555 1_555
O3_2 C3_2 1_555 1_555
C1_2 C2_2 1_555 1_555
C3_2 O2_2 1_555 1_555
C4_2 C1_2 1_555 1_555
H2_2 C4_2 1_555 1_555
Fe5_2 O3_2 1_555 1_555
Fe3_4 O7_2 1_555 1_555
O4_3 Fe4 1_555 1_555
O6 C7_2 1_555 1_555
O7_2 C7_2 1_555 1_555
O8_2 Fe4 1_555 1_555
O9_2 Fe4 1_555 1_555
C5_2 C6_2 1_555 1_555
C6_2 C4_2 1_555 1_555
H3_2 C6_2 1_555 1_555
C7_2 C5_2 1_555 1_555
C8_2 C2_2 1_555 1_555
C1_2 C3_2 1_555 1_555
Fe5_2 O4_3 1_555 1_555
C5_2 C8_2 1_555 1_555
O2_3 Fe3_2 1_555 1_555
O9 C3_3 1_555 1_555
C1_3 C2_3 1_555 1_555
C3_3 O2_3 1_555 1_555
C4_3 C1_3 1_555 1_555
H2_3 C4_3 1_555 1_555
Fe5 O5_2 1_555 1_555
O5_2 C7_3 1_555 1_555
O8_2 C7_3 1_555 1_555
C5_3 C6_3 1_555 1_555
C6_3 C4_3 1_555 1_555
H3_3 C6_3 1_555 1_555
C7_3 C5_3 1_555 1_555
C8_3 C2_3 1_555 1_555
C1_3 C3_3 1_555 1_555
C5_3 C8_3 1_555 1_555
O6_2 Fe3_3 1_555 1_555
O2_4 Fe5_2 1_555 1_555
O9_2 C3_4 1_555 1_555
C1_4 C2_4 1_555 1_555
C2_4 H1_4 1_555 1_555
C3_4 O2_4 1_555 1_555
C4_4 C1_4 1_555 1_555
O6_2 C7_4 1_555 1_555
O8 C7_4 1_555 1_555
C5_4 C6_4 1_555 1_555
C6_4 C4_4 1_555 1_555
C7_4 C5_4 1_555 1_555
C8_4 C2_4 1_555 1_555
H4_4 C8_4 1_555 1_555
C1_4 C3_4 1_555 1_555
C5_4 C8_4 1_555 1_555

#END
