
###############################################################################
#
# This file contains modified crystal structure data generated from the
# MOF subset of the Cambridge Structural Database (CSD) v543 
# hosted by the Cambridge Crystallographic Data Centre (CCDC).
#
# This work is licensed under the Creative Commons
# Attribution-NonCommercial-ShareAlike 4.0 International License.
# To view a copy of this license, visit
# http://creativecommons.org/licenses/by-nc-sa/4.0/
# or send a letter to
# Creative Commons, PO Box 1866, Mountain View, CA 94042, USA.
#
# CIF created using the CSD Python API on 29 September 2022
# The structure has been converted into the P1 space group
# The structure has a 3D framework
# The original CSD entry YAXHOY is in the monoclinic crystal system
# The framework has been calculated to contain at least 10.0% void space
# The void calculation uses a probe of radius 1.32A, grid spacing 0.4
#
###############################################################################

data_YAXHOY
_chemical_formula_moiety         '(C576 H320 Cd16 N32 O62)n'
_symmetry_cell_setting           triclinic
_symmetry_space_group_name_H-M   'P 1'
_symmetry_Int_Tables_number      1
_space_group_name_Hall           'P 1'
loop_
_symmetry_equiv_pos_site_id
_symmetry_equiv_pos_as_xyz
1 x,y,z
_cell_length_a                   29.2947(6)
_cell_length_b                   30.1724(7)
_cell_length_c                   15.0543(3)
_cell_angle_alpha                90
_cell_angle_beta                 111.1600(10)
_cell_angle_gamma                90
_cell_volume                     12409.2
loop_
_atom_site_label
_atom_site_type_symbol
_atom_site_fract_x
_atom_site_fract_y
_atom_site_fract_z
C68 C 0.00386(19) 0.50409(19) 0.0935(4)
H38 H 0.006605 0.507223 0.156692
O10 O 0.08847(15) 0.41272(14) 0.0082(3)
C75 C 0.0330(2) 0.47481(19) 0.0698(4)
H41 H 0.055170 0.457423 0.116783
Cd3 Cd 0.13774(2) 0.37250(2) 0.13641(3)
N5 N 0.19273(17) 0.43027(16) 0.1514(3)
N6 N 0.57031(17) 0.82458(16) 0.1100(3)
C81 C 0.1775(2) 0.4717(2) 0.1496(5)
H45 H 0.145670 0.476676 0.146733
C82 C 0.2065(2) 0.5077(2) 0.1517(5)
H46 H 0.194713 0.536384 0.151095
C83 C 0.2537(2) 0.5005(2) 0.1546(4)
C84 C 0.2690(2) 0.4575(2) 0.1550(5)
H47 H 0.300368 0.451493 0.156098
C85 C 0.2376(2) 0.4232(2) 0.1536(5)
H48 H 0.248427 0.394224 0.154248
C86 C 0.2852(3) 0.5369(2) 0.1572(5)
C87 C 0.3122(3) 0.5662(3) 0.1586(5)
C88 C 0.3452(2) 0.6018(2) 0.1587(5)
C89 C 0.3330(2) 0.6458(2) 0.1725(4)
C90 C 0.2902(3) 0.6567(3) 0.1925(5)
H49 H 0.269022 0.634181 0.194918
C91 C 0.2801(3) 0.6986(3) 0.2078(6)
H50 H 0.251972 0.704679 0.220641
C92 C 0.3112(3) 0.7337(3) 0.2049(6)
H51 H 0.304077 0.762540 0.217297
C93 C 0.3517(3) 0.7250(2) 0.1837(5)
H52 H 0.371416 0.748365 0.179182
C94 C 0.3642(2) 0.6814(2) 0.1684(4)
C95 C 0.4080(2) 0.6712(2) 0.1496(4)
C96 C 0.4201(2) 0.6275(2) 0.1386(5)
C97 C 0.4633(3) 0.6163(2) 0.1212(5)
H53 H 0.484251 0.638849 0.117987
C98 C 0.4746(3) 0.5746(3) 0.1093(6)
H54 H 0.503265 0.568505 0.098508
C99 C 0.4434(3) 0.5395(3) 0.1129(6)
H55 H 0.451642 0.510405 0.104721
C100 C 0.4019(3) 0.5479(2) 0.1282(5)
H56 H 0.381373 0.524656 0.129563
C101 C 0.3891(2) 0.5916(2) 0.1421(4)
C102 C 0.4380(2) 0.7066(2) 0.1409(5)
C103 C 0.4640(2) 0.7346(2) 0.1312(4)
C104 C 0.4992(2) 0.7663(2) 0.1225(4)
C105 C 0.4914(2) 0.8112(2) 0.1166(5)
H57 H 0.461891 0.822787 0.116497
C106 C 0.5273(2) 0.8390(2) 0.1111(5)
H58 H 0.521485 0.869377 0.107896
C107 C 0.5436(2) 0.7520(2) 0.1208(5)
H59 H 0.550379 0.721803 0.123608
C108 C 0.5779(2) 0.7815(2) 0.1151(4)
H60 H 0.607612 0.770707 0.114825
Cd9 Cd 0.63774(2) 0.87250(2) 0.13641(3)
O18 O 0.11014(16) 0.40758(14) 0.2507(3)
O20 O 0.18449(17) 0.31753(14) 0.1160(3)
O22 O 0.16054(16) 0.35190(16) 0.2968(3)
N10 N 0.07031(17) 0.32458(16) 0.1100(3)
O9 O 0.06168(16) 0.44073(15) 0.8663(3)
C73 C 0.0624(2) 0.4385(2) 0.9503(5)
C74 C 0.02986(19) 0.47085(17) 0.9769(4)
Cd4 Cd 0.11422(2) 0.38743(2) 0.85975(3)
O13 O 0.14258(17) 0.35263(15) 0.7413(3)
O14 O 0.08524(19) 0.40316(19) 0.6971(3)
N7 N 0.56320(17) 0.82875(17) 0.8637(3)
N8 N 0.17652(17) 0.43952(16) 0.8890(3)
C109 C 0.2214(2) 0.4275(2) 0.8966(5)
H61 H 0.228395 0.397422 0.898231
C110 C 0.2577(2) 0.4567(2) 0.9023(5)
H62 H 0.288350 0.446403 0.906325
C111 C 0.2488(2) 0.5017(2) 0.9020(4)
C112 C 0.2027(3) 0.5145(2) 0.8957(5)
H63 H 0.194927 0.544341 0.896125
C113 C 0.1679(2) 0.4821(2) 0.8887(5)
H64 H 0.136711 0.491234 0.883537
C114 C 0.2846(3) 0.5339(3) 0.9030(5)
C115 C 0.3116(3) 0.5620(2) 0.8976(5)
C116 C 0.3445(2) 0.5958(2) 0.8915(5)
C117 C 0.3871(3) 0.5838(2) 0.8739(5)
C118 C 0.3980(3) 0.5396(2) 0.8596(6)
H65 H 0.376603 0.517103 0.860985
C119 C 0.4394(4) 0.5295(3) 0.8438(7)
H66 H 0.446150 0.500218 0.833515
C120 C 0.4728(4) 0.5639(3) 0.8428(7)
H67 H 0.501534 0.556667 0.833168
C121 C 0.4635(3) 0.6064(3) 0.8557(6)
H68 H 0.485708 0.628266 0.854424
C122 C 0.4207(2) 0.6183(2) 0.8709(5)
C123 C 0.4098(2) 0.6624(2) 0.8830(4)
C124 C 0.3659(2) 0.6744(2) 0.8982(5)
C125 C 0.3545(3) 0.7188(2) 0.9128(5)
H69 H 0.375629 0.741440 0.910333
C126 C 0.3135(3) 0.7290(3) 0.9301(6)
H70 H 0.307013 0.758350 0.940580
C127 C 0.2807(3) 0.6955(3) 0.9324(7)
H71 H 0.252391 0.702719 0.943578
C128 C 0.2902(2) 0.6534(3) 0.9187(6)
H72 H 0.268006 0.631600 0.919915
C129 C 0.3331(2) 0.6410(2) 0.9023(5)
C130 C 0.4430(2) 0.6975(2) 0.8794(5)
C131 C 0.4705(3) 0.7241(2) 0.8773(5)
C132 C 0.5026(2) 0.7601(2) 0.8731(4)
C133 C 0.5489(2) 0.7517(2) 0.8694(5)
H73 H 0.560096 0.722865 0.869796
C134 C 0.5773(2) 0.7873(2) 0.8653(4)
H74 H 0.608165 0.781757 0.863518
C135 C 0.4884(2) 0.8039(2) 0.8720(4)
H75 H 0.458110 0.810952 0.874875
C136 C 0.5192(2) 0.8363(2) 0.8666(4)
H76 H 0.508918 0.865585 0.864752
C137 C 0.1169(3) 0.3767(2) 0.6829(4)
C138 C 0.1202(2) 0.3789(2) 0.5863(4)
C139 C 0.1508(2) 0.3506(2) 0.5659(5)
H77 H 0.169144 0.330527 0.611847
C140 C 0.1551(3) 0.3511(3) 0.4756(5)
H78 H 0.176077 0.331302 0.462216
C141 C 0.1284(2) 0.38107(19) 0.4068(4)
C142 C 0.0970(2) 0.4100(2) 0.4265(4)
H79 H 0.078519 0.429925 0.380277
C143 C 0.0927(2) 0.4095(2) 0.5179(5)
H80 H 0.071941 0.429329 0.532006
C144 C 0.1335(2) 0.3802(2) 0.3129(4)
Cd12 Cd 0.61422(2) 0.88743(2) 0.85975(3)
O19 O 0.17416(15) 0.34849(14) 0.9789(3)
N12 N 0.06320(17) 0.32875(17) 0.8637(3)
Cd2 Cd 0.88578(2) 0.61257(2) 0.14025(3)
O1 O 0.85742(17) 0.64737(15) 0.2587(3)
O2 O 0.91476(19) 0.59684(19) 0.3029(3)
O3 O 0.88986(16) 0.59242(14) 0.7493(3)
O4 O 0.93832(16) 0.55927(15) 0.1337(3)
O6 O 0.82584(15) 0.65151(14) 0.0211(3)
O8 O 0.83946(16) 0.64810(16) 0.7032(3)
N3 N 0.43680(17) 0.17125(17) 0.1363(3)
N4 N 0.82348(17) 0.56048(16) 0.1110(3)
C29 C 0.7786(2) 0.5725(2) 0.1034(5)
H17 H 0.771605 0.602578 0.101769
C30 C 0.7423(2) 0.5433(2) 0.0977(5)
H18 H 0.711650 0.553597 0.093675
C31 C 0.7512(2) 0.4983(2) 0.0980(4)
C32 C 0.7973(3) 0.4855(2) 0.1043(5)
H19 H 0.805073 0.455659 0.103875
C33 C 0.8321(2) 0.5179(2) 0.1113(5)
H20 H 0.863289 0.508766 0.116463
C34 C 0.7154(3) 0.4661(3) 0.0970(5)
C35 C 0.6884(3) 0.4380(2) 0.1024(5)
C36 C 0.6555(2) 0.4042(2) 0.1085(5)
C37 C 0.6129(3) 0.4162(2) 0.1261(5)
C38 C 0.6020(3) 0.4604(2) 0.1404(6)
H21 H 0.623397 0.482897 0.139015
C39 C 0.5606(4) 0.4705(3) 0.1562(7)
H22 H 0.553850 0.499782 0.166485
C40 C 0.5272(4) 0.4361(3) 0.1572(7)
H23 H 0.498466 0.443333 0.166832
C41 C 0.5365(3) 0.3936(3) 0.1443(6)
H24 H 0.514292 0.371734 0.145576
C42 C 0.5793(2) 0.3817(2) 0.1291(5)
C43 C 0.5902(2) 0.3376(2) 0.1170(4)
C44 C 0.6341(2) 0.3256(2) 0.1018(5)
C45 C 0.6455(3) 0.2812(2) 0.0872(5)
H25 H 0.624371 0.258560 0.089667
C46 C 0.6865(3) 0.2710(3) 0.0699(6)
H26 H 0.692987 0.241650 0.059420
C47 C 0.7193(3) 0.3045(3) 0.0676(7)
H27 H 0.747609 0.297281 0.056422
C48 C 0.7098(2) 0.3466(3) 0.0813(6)
H28 H 0.731994 0.368400 0.080085
C49 C 0.6669(2) 0.3590(2) 0.0977(5)
C50 C 0.5570(2) 0.3025(2) 0.1206(5)
C51 C 0.5295(3) 0.2759(2) 0.1227(5)
C52 C 0.4974(2) 0.2399(2) 0.1269(4)
C53 C 0.4511(2) 0.2483(2) 0.1306(5)
H29 H 0.439904 0.277135 0.130204
C54 C 0.4227(2) 0.2127(2) 0.1347(4)
H30 H 0.391835 0.218243 0.136482
C55 C 0.5116(2) 0.1961(2) 0.1280(4)
H31 H 0.541890 0.189048 0.125125
C56 C 0.4808(2) 0.1637(2) 0.1334(4)
H32 H 0.491082 0.134415 0.135248
C57 C 0.8831(3) 0.6233(2) 0.3171(4)
C58 C 0.8798(2) 0.6211(2) 0.4137(4)
C59 C 0.8492(2) 0.6494(2) 0.4341(5)
H33 H 0.830856 0.669473 0.388153
C60 C 0.8449(3) 0.6489(3) 0.5244(5)
H34 H 0.823923 0.668698 0.537784
C61 C 0.8716(2) 0.61893(19) 0.5932(4)
C62 C 0.9030(2) 0.5900(2) 0.5735(4)
H35 H 0.921481 0.570075 0.619723
C63 C 0.9073(2) 0.5905(2) 0.4821(5)
H36 H 0.928059 0.570671 0.467994
C64 C 0.8665(2) 0.6198(2) 0.6871(4)
C65 C 0.9376(2) 0.5615(2) 0.0497(5)
C66 C 0.97014(19) 0.52915(17) 0.0231(4)
C71 C 0.7777(2) 0.72254(19) 0.0724(4)
H39 H 0.796019 0.703965 0.121711
C72 C 0.7498(2) 0.75573(19) 0.0902(4)
H40 H 0.750140 0.759644 0.151729
O12 O 0.68449(17) 0.81753(14) 0.1160(3)
C77 C 0.6910(2) 0.81938(19) 0.0388(5)
C78 C 0.72130(19) 0.78344(17) 0.0177(4)
Cd5 Cd 0.86226(2) 0.62750(2) 0.86359(3)
Cd10 Cd 0.38578(2) 0.11257(2) 0.14025(3)
N11 N 0.93680(17) 0.67125(17) 0.1363(3)
O5 O 0.91153(15) 0.58728(14) 0.9918(3)
O7 O 0.81551(17) 0.68247(14) 0.8840(3)
N1 N 0.80727(17) 0.56973(16) 0.8486(3)
N2 N 0.42969(17) 0.17542(16) 0.8900(3)
C1 C 0.8225(2) 0.5283(2) 0.8504(5)
H1 H 0.854330 0.523324 0.853267
C2 C 0.7935(2) 0.4923(2) 0.8483(5)
H2 H 0.805287 0.463616 0.848905
C3 C 0.7463(2) 0.4995(2) 0.8454(4)
C4 C 0.7310(2) 0.5425(2) 0.8450(5)
H3 H 0.699632 0.548507 0.843902
C5 C 0.7624(2) 0.5768(2) 0.8464(5)
H4 H 0.751573 0.605776 0.845752
C6 C 0.7148(3) 0.4631(2) 0.8428(5)
C7 C 0.6878(3) 0.4338(3) 0.8414(5)
C8 C 0.6548(2) 0.3982(2) 0.8413(5)
C9 C 0.6670(2) 0.3542(2) 0.8275(4)
C10 C 0.7098(3) 0.3433(3) 0.8075(5)
H5 H 0.730978 0.365819 0.805082
C11 C 0.7199(3) 0.3014(3) 0.7922(6)
H6 H 0.748028 0.295321 0.779359
C12 C 0.6888(3) 0.2663(3) 0.7951(6)
H7 H 0.695923 0.237460 0.782703
C13 C 0.6483(3) 0.2750(2) 0.8163(5)
H8 H 0.628584 0.251635 0.820818
C14 C 0.6358(2) 0.3186(2) 0.8316(4)
C15 C 0.5920(2) 0.3288(2) 0.8504(4)
C16 C 0.5799(2) 0.3725(2) 0.8614(5)
C17 C 0.5367(3) 0.3837(2) 0.8788(5)
H9 H 0.515749 0.361151 0.882013
C18 C 0.5254(3) 0.4254(3) 0.8907(6)
H10 H 0.496735 0.431495 0.901492
C19 C 0.5566(3) 0.4605(3) 0.8871(6)
H11 H 0.548358 0.489595 0.895279
C20 C 0.5981(3) 0.4521(2) 0.8718(5)
H12 H 0.618627 0.475344 0.870437
C21 C 0.6109(2) 0.4084(2) 0.8579(4)
C22 C 0.5620(2) 0.2934(2) 0.8591(5)
C23 C 0.5360(2) 0.2654(2) 0.8688(4)
C24 C 0.5008(2) 0.2337(2) 0.8775(4)
C25 C 0.5086(2) 0.1888(2) 0.8834(5)
H13 H 0.538109 0.177213 0.883503
C26 C 0.4727(2) 0.1610(2) 0.8889(5)
H14 H 0.478515 0.130623 0.892104
C27 C 0.4564(2) 0.2480(2) 0.8792(5)
H15 H 0.449621 0.278197 0.876392
C28 C 0.4221(2) 0.2185(2) 0.8849(4)
H16 H 0.392388 0.229293 0.885175
C67 C 0.9670(2) 0.52519(19) 0.9302(4)
H37 H 0.944830 0.542577 0.883217
C69 C 0.8090(2) 0.68062(19) 0.9612(5)
C70 C 0.77870(19) 0.71656(17) 0.9823(4)
C76 C 0.99614(19) 0.49591(19) 0.9065(4)
H42 H 0.993395 0.492777 0.843308
O11 O 0.67416(15) 0.84849(14) 0.9789(3)
C79 C 0.7223(2) 0.77746(19) 0.9276(4)
H43 H 0.703981 0.796035 0.878289
C80 C 0.7502(2) 0.74427(19) 0.9098(4)
H44 H 0.749860 0.740356 0.848271
Cd6 Cd 0.36226(2) 0.12750(2) 0.86359(3)
N9 N 0.92969(17) 0.67542(16) 0.8900(3)
H54_2 H 0.003265 0.068505 0.098508
C106_2 C 0.0273(2) 0.3390(2) 0.1111(5)
H58_2 H 0.021485 0.369377 0.107896
C107_2 C 0.0436(2) 0.2520(2) 0.1208(5)
H59_2 H 0.050379 0.221803 0.123608
C108_2 C 0.0779(2) 0.2815(2) 0.1151(4)
H60_2 H 0.107612 0.270707 0.114825
H67_2 H 0.001534 0.056667 0.833168
C132_2 C 0.0026(2) 0.2601(2) 0.8731(4)
C133_2 C 0.0489(2) 0.2517(2) 0.8694(5)
H73_2 H 0.060096 0.222865 0.869796
C134_2 C 0.0773(2) 0.2873(2) 0.8653(4)
H74_2 H 0.108165 0.281757 0.863518
C136_2 C 0.0192(2) 0.3363(2) 0.8666(4)
H76_2 H 0.008918 0.365585 0.864752
O1_2 O 0.35742(17) 0.14737(15) 0.2587(3)
O2_2 O 0.41476(19) 0.09684(19) 0.3029(3)
O3_2 O 0.38986(16) 0.09242(14) 0.7493(3)
O4_2 O 0.43832(16) 0.05927(15) 0.1337(3)
O6_2 O 0.32584(15) 0.15151(14) 0.0211(3)
O8_2 O 0.33946(16) 0.14810(16) 0.7032(3)
N4_2 N 0.32348(17) 0.06048(16) 0.1110(3)
C29_2 C 0.2786(2) 0.0725(2) 0.1034(5)
H17_2 H 0.271605 0.102578 0.101769
C30_2 C 0.2423(2) 0.0433(2) 0.0977(5)
H18_2 H 0.211650 0.053597 0.093675
C33_2 C 0.3321(2) 0.0179(2) 0.1113(5)
H20_2 H 0.363289 0.008766 0.116463
C57_2 C 0.3831(3) 0.1233(2) 0.3171(4)
C58_2 C 0.3798(2) 0.1211(2) 0.4137(4)
C59_2 C 0.3492(2) 0.1494(2) 0.4341(5)
H33_2 H 0.330856 0.169473 0.388153
C60_2 C 0.3449(3) 0.1489(3) 0.5244(5)
H34_2 H 0.323923 0.168698 0.537784
C61_2 C 0.3716(2) 0.11893(19) 0.5932(4)
C62_2 C 0.4030(2) 0.0900(2) 0.5735(4)
H35_2 H 0.421481 0.070075 0.619723
C63_2 C 0.4073(2) 0.0905(2) 0.4821(5)
H36_2 H 0.428059 0.070671 0.467994
C64_2 C 0.3665(2) 0.1198(2) 0.6871(4)
C65_2 C 0.4376(2) 0.0615(2) 0.0497(5)
C66_2 C 0.47014(19) 0.02915(17) 0.0231(4)
C68_2 C 0.50386(19) 0.00409(19) 0.0935(4)
H38_2 H 0.506605 0.007223 0.156692
C71_2 C 0.2777(2) 0.22254(19) 0.0724(4)
H39_2 H 0.296019 0.203965 0.121711
C72_2 C 0.2498(2) 0.25573(19) 0.0902(4)
H40_2 H 0.250140 0.259644 0.151729
C77_2 C 0.1910(2) 0.31938(19) 0.0388(5)
C78_2 C 0.22130(19) 0.28344(17) 0.0177(4)
C82_2 C 0.7065(2) 0.0077(2) 0.1517(5)
H46_2 H 0.694713 0.036384 0.151095
C83_2 C 0.7537(2) 0.0005(2) 0.1546(4)
C86_2 C 0.7852(3) 0.0369(2) 0.1572(5)
C87_2 C 0.8122(3) 0.0662(3) 0.1586(5)
C88_2 C 0.8452(2) 0.1018(2) 0.1587(5)
C89_2 C 0.8330(2) 0.1458(2) 0.1725(4)
C90_2 C 0.7902(3) 0.1567(3) 0.1925(5)
H49_2 H 0.769022 0.134181 0.194918
C91_2 C 0.7801(3) 0.1986(3) 0.2078(6)
H50_2 H 0.751972 0.204679 0.220641
C92_2 C 0.8112(3) 0.2337(3) 0.2049(6)
H51_2 H 0.804077 0.262540 0.217297
C93_2 C 0.8517(3) 0.2250(2) 0.1837(5)
H52_2 H 0.871416 0.248365 0.179182
C94_2 C 0.8642(2) 0.1814(2) 0.1684(4)
C95_2 C 0.9080(2) 0.1712(2) 0.1496(4)
C96_2 C 0.9201(2) 0.1275(2) 0.1386(5)
C97_2 C 0.9633(3) 0.1163(2) 0.1212(5)
H53_2 H 0.984251 0.138849 0.117987
C98_2 C 0.9746(3) 0.0746(3) 0.1093(6)
C99_2 C 0.9434(3) 0.0395(3) 0.1129(6)
H55_2 H 0.951642 0.010405 0.104721
C100_2 C 0.9019(3) 0.0479(2) 0.1282(5)
H56_2 H 0.881373 0.024656 0.129563
C101_2 C 0.8891(2) 0.0916(2) 0.1421(4)
C102_2 C 0.9380(2) 0.2066(2) 0.1409(5)
C103_2 C 0.9640(2) 0.2346(2) 0.1312(4)
C104_2 C 0.9992(2) 0.2663(2) 0.1225(4)
C105_2 C 0.9914(2) 0.3112(2) 0.1166(5)
H57_2 H 0.961891 0.322787 0.116497
O5_2 O 0.41153(15) 0.08728(14) 0.9918(3)
O7_2 O 0.31551(17) 0.18247(14) 0.8840(3)
N1_2 N 0.30727(17) 0.06973(16) 0.8486(3)
C1_2 C 0.3225(2) 0.0283(2) 0.8504(5)
H1_2 H 0.354330 0.023324 0.853267
C4_2 C 0.2310(2) 0.0425(2) 0.8450(5)
H3_2 H 0.199632 0.048507 0.843902
C5_2 C 0.2624(2) 0.0768(2) 0.8464(5)
H4_2 H 0.251573 0.105776 0.845752
C67_2 C 0.4670(2) 0.02519(19) 0.9302(4)
H37_2 H 0.444830 0.042577 0.883217
C69_2 C 0.3090(2) 0.18062(19) 0.9612(5)
C70_2 C 0.27870(19) 0.21656(17) 0.9823(4)
C79_2 C 0.2223(2) 0.27746(19) 0.9276(4)
H43_2 H 0.203981 0.296035 0.878289
C80_2 C 0.2502(2) 0.24427(19) 0.9098(4)
H44_2 H 0.249860 0.240356 0.848271
C111_2 C 0.7488(2) 0.0017(2) 0.9020(4)
C112_2 C 0.7027(3) 0.0145(2) 0.8957(5)
H63_2 H 0.694927 0.044341 0.896125
C114_2 C 0.7846(3) 0.0339(3) 0.9030(5)
C115_2 C 0.8116(3) 0.0620(2) 0.8976(5)
C116_2 C 0.8445(2) 0.0958(2) 0.8915(5)
C117_2 C 0.8871(3) 0.0838(2) 0.8739(5)
C118_2 C 0.8980(3) 0.0396(2) 0.8596(6)
H65_2 H 0.876603 0.017103 0.860985
C119_2 C 0.9394(4) 0.0295(3) 0.8438(7)
H66_2 H 0.946150 0.000218 0.833515
C120_2 C 0.9728(4) 0.0639(3) 0.8428(7)
C121_2 C 0.9635(3) 0.1064(3) 0.8557(6)
H68_2 H 0.985708 0.128266 0.854424
C122_2 C 0.9207(2) 0.1183(2) 0.8709(5)
C123_2 C 0.9098(2) 0.1624(2) 0.8830(4)
C124_2 C 0.8659(2) 0.1744(2) 0.8982(5)
C125_2 C 0.8545(3) 0.2188(2) 0.9128(5)
H69_2 H 0.875629 0.241440 0.910333
C126_2 C 0.8135(3) 0.2290(3) 0.9301(6)
H70_2 H 0.807013 0.258350 0.940580
C127_2 C 0.7807(3) 0.1955(3) 0.9324(7)
H71_2 H 0.752391 0.202719 0.943578
C128_2 C 0.7902(2) 0.1534(3) 0.9187(6)
H72_2 H 0.768006 0.131600 0.919915
C129_2 C 0.8331(2) 0.1410(2) 0.9023(5)
C130_2 C 0.9430(2) 0.1975(2) 0.8794(5)
C131_2 C 0.9705(3) 0.2241(2) 0.8773(5)
C135_2 C 0.9884(2) 0.3039(2) 0.8720(4)
H75_2 H 0.958110 0.310952 0.874875
C31_2 C 0.2512(2) 0.9983(2) 0.0980(4)
C32_2 C 0.2973(3) 0.9855(2) 0.1043(5)
H19_2 H 0.305073 0.955659 0.103875
C34_2 C 0.2154(3) 0.9661(3) 0.0970(5)
C35_2 C 0.1884(3) 0.9380(2) 0.1024(5)
C36_2 C 0.1555(2) 0.9042(2) 0.1085(5)
C37_2 C 0.1129(3) 0.9162(2) 0.1261(5)
C38_2 C 0.1020(3) 0.9604(2) 0.1404(6)
H21_2 H 0.123397 0.982897 0.139015
C39_2 C 0.0606(4) 0.9705(3) 0.1562(7)
H22_2 H 0.053850 0.999782 0.166485
C40_2 C 0.0272(4) 0.9361(3) 0.1572(7)
C41_2 C 0.0365(3) 0.8936(3) 0.1443(6)
H24_2 H 0.014292 0.871734 0.145576
C42_2 C 0.0793(2) 0.8817(2) 0.1291(5)
C43_2 C 0.0902(2) 0.8376(2) 0.1170(4)
C44_2 C 0.1341(2) 0.8256(2) 0.1018(5)
C45_2 C 0.1455(3) 0.7812(2) 0.0872(5)
H25_2 H 0.124371 0.758560 0.089667
C46_2 C 0.1865(3) 0.7710(3) 0.0699(6)
H26_2 H 0.192987 0.741650 0.059420
C47_2 C 0.2193(3) 0.8045(3) 0.0676(7)
H27_2 H 0.247609 0.797281 0.056422
C48_2 C 0.2098(2) 0.8466(3) 0.0813(6)
H28_2 H 0.231994 0.868400 0.080085
C49_2 C 0.1669(2) 0.8590(2) 0.0977(5)
C50_2 C 0.0570(2) 0.8025(2) 0.1206(5)
C51_2 C 0.0295(3) 0.7759(2) 0.1227(5)
C55_2 C 0.0116(2) 0.6961(2) 0.1280(4)
H31_2 H 0.041890 0.689048 0.125125
O10_2 O 0.58847(15) 0.91272(14) 0.0082(3)
C75_2 C 0.5330(2) 0.97481(19) 0.0698(4)
H41_2 H 0.555170 0.957423 0.116783
N5_2 N 0.69273(17) 0.93027(16) 0.1514(3)
C81_2 C 0.6775(2) 0.9717(2) 0.1496(5)
H45_2 H 0.645670 0.976676 0.146733
C84_2 C 0.7690(2) 0.9575(2) 0.1550(5)
H47_2 H 0.800368 0.951493 0.156098
C85_2 C 0.7376(2) 0.9232(2) 0.1536(5)
H48_2 H 0.748427 0.894224 0.154248
O18_2 O 0.61014(16) 0.90758(14) 0.2507(3)
O22_2 O 0.66054(16) 0.85190(16) 0.2968(3)
C2_2 C 0.2935(2) 0.9923(2) 0.8483(5)
H2_2 H 0.305287 0.963616 0.848905
C3_2 C 0.2463(2) 0.9995(2) 0.8454(4)
C6_2 C 0.2148(3) 0.9631(2) 0.8428(5)
C7_2 C 0.1878(3) 0.9338(3) 0.8414(5)
C8_2 C 0.1548(2) 0.8982(2) 0.8413(5)
C9_2 C 0.1670(2) 0.8542(2) 0.8275(4)
C10_2 C 0.2098(3) 0.8433(3) 0.8075(5)
H5_2 H 0.230978 0.865819 0.805082
C11_2 C 0.2199(3) 0.8014(3) 0.7922(6)
H6_2 H 0.248028 0.795321 0.779359
C12_2 C 0.1888(3) 0.7663(3) 0.7951(6)
H7_2 H 0.195923 0.737460 0.782703
C13_2 C 0.1483(3) 0.7750(2) 0.8163(5)
H8_2 H 0.128584 0.751635 0.820818
C14_2 C 0.1358(2) 0.8186(2) 0.8316(4)
C15_2 C 0.0920(2) 0.8288(2) 0.8504(4)
C16_2 C 0.0799(2) 0.8725(2) 0.8614(5)
C17_2 C 0.0367(3) 0.8837(2) 0.8788(5)
H9_2 H 0.015749 0.861151 0.882013
C18_2 C 0.0254(3) 0.9254(3) 0.8907(6)
C19_2 C 0.0566(3) 0.9605(3) 0.8871(6)
H11_2 H 0.048358 0.989595 0.895279
C20_2 C 0.0981(3) 0.9521(2) 0.8718(5)
H12_2 H 0.118627 0.975344 0.870437
C21_2 C 0.1109(2) 0.9084(2) 0.8579(4)
C22_2 C 0.0620(2) 0.7934(2) 0.8591(5)
C23_2 C 0.0360(2) 0.7654(2) 0.8688(4)
C24_2 C 0.0008(2) 0.7337(2) 0.8775(4)
C25_2 C 0.0086(2) 0.6888(2) 0.8834(5)
H13_2 H 0.038109 0.677213 0.883503
O9_2 O 0.56168(16) 0.94073(15) 0.8663(3)
C73_2 C 0.5624(2) 0.9385(2) 0.9503(5)
C74_2 C 0.52986(19) 0.97085(17) 0.9769(4)
C76_2 C 0.49614(19) 0.99591(19) 0.9065(4)
H42_2 H 0.493395 0.992777 0.843308
O13_2 O 0.64258(17) 0.85263(15) 0.7413(3)
O14_2 O 0.58524(19) 0.90316(19) 0.6971(3)
N8_2 N 0.67652(17) 0.93952(16) 0.8890(3)
C109_2 C 0.7214(2) 0.9275(2) 0.8966(5)
H61_2 H 0.728395 0.897422 0.898231
C110_2 C 0.7577(2) 0.9567(2) 0.9023(5)
H62_2 H 0.788350 0.946403 0.906325
C113_2 C 0.6679(2) 0.9821(2) 0.8887(5)
H64_2 H 0.636711 0.991234 0.883537
C137_2 C 0.6169(3) 0.8767(2) 0.6829(4)
C138_2 C 0.6202(2) 0.8789(2) 0.5863(4)
C139_2 C 0.6508(2) 0.8506(2) 0.5659(5)
H77_2 H 0.669144 0.830527 0.611847
C140_2 C 0.6551(3) 0.8511(3) 0.4756(5)
H78_2 H 0.676077 0.831302 0.462216
C141_2 C 0.6284(2) 0.88107(19) 0.4068(4)
C142_2 C 0.5970(2) 0.9100(2) 0.4265(4)
H79_2 H 0.578519 0.929925 0.380277
C143_2 C 0.5927(2) 0.9095(2) 0.5179(5)
H80_2 H 0.571941 0.929329 0.532006
C144_2 C 0.6335(2) 0.8802(2) 0.3129(4)
H23_2 H 0.998466 0.943333 0.166832
C52_2 C 0.9974(2) 0.7399(2) 0.1269(4)
C53_2 C 0.9511(2) 0.7483(2) 0.1306(5)
H29_2 H 0.939904 0.777135 0.130204
C54_2 C 0.9227(2) 0.7127(2) 0.1347(4)
H30_2 H 0.891835 0.718243 0.136482
C56_2 C 0.9808(2) 0.6637(2) 0.1334(4)
H32_2 H 0.991082 0.634415 0.135248
H10_2 H 0.996735 0.931495 0.901492
C26_2 C 0.9727(2) 0.6610(2) 0.8889(5)
H14_2 H 0.978515 0.630623 0.892104
C27_2 C 0.9564(2) 0.7480(2) 0.8792(5)
H15_2 H 0.949621 0.778197 0.876392
C28_2 C 0.9221(2) 0.7185(2) 0.8849(4)
H16_2 H 0.892388 0.729293 0.885175
Cd1 Cd 0.13774(2) 0.62750(2) 0.63641(3)
Cd2_2 Cd 0.11422(2) 0.61257(2) 0.35975(3)
O1_3 O 0.14258(17) 0.64737(15) 0.2413(3)
O2_3 O 0.08524(19) 0.59684(19) 0.1971(3)
O4_3 O 0.06168(16) 0.55927(15) 0.3663(3)
O5_3 O 0.08847(15) 0.58728(14) 0.5082(3)
O6_3 O 0.17416(15) 0.65151(14) 0.4789(3)
O7_3 O 0.18449(17) 0.68247(14) 0.6160(3)
N1_3 N 0.19273(17) 0.56973(16) 0.6514(3)
N2_2 N 0.57031(17) 0.17542(16) 0.6100(3)
N3_2 N 0.56320(17) 0.17125(17) 0.3637(3)
N4_3 N 0.17652(17) 0.56048(16) 0.3890(3)
C1_3 C 0.1775(2) 0.5283(2) 0.6496(5)
H1_3 H 0.145670 0.523324 0.646733
C2_3 C 0.2065(2) 0.4923(2) 0.6517(5)
H2_3 H 0.194713 0.463616 0.651095
C3_3 C 0.2537(2) 0.4995(2) 0.6546(4)
C4_3 C 0.2690(2) 0.5425(2) 0.6550(5)
H3_3 H 0.300368 0.548507 0.656098
C5_3 C 0.2376(2) 0.5768(2) 0.6536(5)
H4_3 H 0.248427 0.605776 0.654248
C6_3 C 0.2852(3) 0.4631(2) 0.6572(5)
C7_3 C 0.3122(3) 0.4338(3) 0.6586(5)
C8_3 C 0.3452(2) 0.3982(2) 0.6587(5)
C9_3 C 0.3330(2) 0.3542(2) 0.6725(4)
C10_3 C 0.2902(3) 0.3433(3) 0.6925(5)
H5_3 H 0.269022 0.365819 0.694918
C11_3 C 0.2801(3) 0.3014(3) 0.7078(6)
H6_3 H 0.251972 0.295321 0.720641
C12_3 C 0.3112(3) 0.2663(3) 0.7049(6)
H7_3 H 0.304077 0.237460 0.717297
C13_3 C 0.3517(3) 0.2750(2) 0.6837(5)
H8_3 H 0.371416 0.251635 0.679182
C14_3 C 0.3642(2) 0.3186(2) 0.6684(4)
C15_3 C 0.4080(2) 0.3288(2) 0.6496(4)
C16_3 C 0.4201(2) 0.3725(2) 0.6386(5)
C17_3 C 0.4633(3) 0.3837(2) 0.6212(5)
H9_3 H 0.484251 0.361151 0.617987
C18_3 C 0.4746(3) 0.4254(3) 0.6093(6)
H10_3 H 0.503265 0.431495 0.598508
C19_3 C 0.4434(3) 0.4605(3) 0.6129(6)
H11_3 H 0.451642 0.489595 0.604721
C20_3 C 0.4019(3) 0.4521(2) 0.6282(5)
H12_3 H 0.381373 0.475344 0.629563
C21_3 C 0.3891(2) 0.4084(2) 0.6421(4)
C22_3 C 0.4380(2) 0.2934(2) 0.6409(5)
C23_3 C 0.4640(2) 0.2654(2) 0.6312(4)
C24_3 C 0.4992(2) 0.2337(2) 0.6225(4)
C25_3 C 0.4914(2) 0.1888(2) 0.6166(5)
H13_3 H 0.461891 0.177213 0.616497
C26_3 C 0.5273(2) 0.1610(2) 0.6111(5)
H14_3 H 0.521485 0.130623 0.607896
C27_3 C 0.5436(2) 0.2480(2) 0.6208(5)
H15_3 H 0.550379 0.278197 0.623608
C28_3 C 0.5779(2) 0.2185(2) 0.6151(4)
H16_3 H 0.607612 0.229293 0.614825
C29_3 C 0.2214(2) 0.5725(2) 0.3966(5)
H17_3 H 0.228395 0.602578 0.398231
C30_3 C 0.2577(2) 0.5433(2) 0.4023(5)
H18_3 H 0.288350 0.553597 0.406325
C31_3 C 0.2488(2) 0.4983(2) 0.4020(4)
C32_3 C 0.2027(3) 0.4855(2) 0.3957(5)
H19_3 H 0.194927 0.455659 0.396125
C33_3 C 0.1679(2) 0.5179(2) 0.3887(5)
H20_3 H 0.136711 0.508766 0.383537
C34_3 C 0.2846(3) 0.4661(3) 0.4030(5)
C35_3 C 0.3116(3) 0.4380(2) 0.3976(5)
C36_3 C 0.3445(2) 0.4042(2) 0.3915(5)
C37_3 C 0.3871(3) 0.4162(2) 0.3739(5)
C38_3 C 0.3980(3) 0.4604(2) 0.3596(6)
H21_3 H 0.376603 0.482897 0.360985
C39_3 C 0.4394(4) 0.4705(3) 0.3438(7)
H22_3 H 0.446150 0.499782 0.333515
C40_3 C 0.4728(4) 0.4361(3) 0.3428(7)
H23_3 H 0.501534 0.443333 0.333168
C41_3 C 0.4635(3) 0.3936(3) 0.3557(6)
H24_3 H 0.485708 0.371734 0.354424
C42_3 C 0.4207(2) 0.3817(2) 0.3709(5)
C43_3 C 0.4098(2) 0.3376(2) 0.3830(4)
C44_3 C 0.3659(2) 0.3256(2) 0.3982(5)
C45_3 C 0.3545(3) 0.2812(2) 0.4128(5)
H25_3 H 0.375629 0.258560 0.410333
C46_3 C 0.3135(3) 0.2710(3) 0.4301(6)
H26_3 H 0.307013 0.241650 0.440580
C47_3 C 0.2807(3) 0.3045(3) 0.4324(7)
H27_3 H 0.252391 0.297281 0.443578
C48_3 C 0.2902(2) 0.3466(3) 0.4187(6)
H28_3 H 0.268006 0.368400 0.419915
C49_3 C 0.3331(2) 0.3590(2) 0.4023(5)
C50_3 C 0.4430(2) 0.3025(2) 0.3794(5)
C51_3 C 0.4705(3) 0.2759(2) 0.3773(5)
C52_3 C 0.5026(2) 0.2399(2) 0.3731(4)
C53_3 C 0.5489(2) 0.2483(2) 0.3694(5)
H29_3 H 0.560096 0.277135 0.369796
C54_3 C 0.5773(2) 0.2127(2) 0.3653(4)
H30_3 H 0.608165 0.218243 0.363518
C55_3 C 0.4884(2) 0.1961(2) 0.3720(4)
H31_3 H 0.458110 0.189048 0.374875
C56_3 C 0.5192(2) 0.1637(2) 0.3666(4)
H32_3 H 0.508918 0.134415 0.364752
C57_3 C 0.1169(3) 0.6233(2) 0.1829(4)
C58_3 C 0.1202(2) 0.6211(2) 0.0863(4)
C59_3 C 0.1508(2) 0.6494(2) 0.0659(5)
H33_3 H 0.169144 0.669473 0.111847
C63_3 C 0.0927(2) 0.5905(2) 0.0179(5)
H36_3 H 0.071941 0.570671 0.032006
C65_3 C 0.0624(2) 0.5615(2) 0.4503(5)
C66_3 C 0.02986(19) 0.52915(17) 0.4769(4)
C67_3 C 0.0330(2) 0.52519(19) 0.5698(4)
H37_3 H 0.055170 0.542577 0.616783
C69_3 C 0.1910(2) 0.68062(19) 0.5388(5)
C70_3 C 0.22130(19) 0.71656(17) 0.5177(4)
C71_3 C 0.2223(2) 0.72254(19) 0.4276(4)
H39_3 H 0.203981 0.703965 0.378289
C72_3 C 0.2502(2) 0.75573(19) 0.4098(4)
H40_3 H 0.249860 0.759644 0.348271
C76_3 C 0.00386(19) 0.49591(19) 0.5935(4)
H42_3 H 0.006605 0.492777 0.656692
O11_2 O 0.32584(15) 0.84849(14) 0.5211(3)
O12_2 O 0.31551(17) 0.81753(14) 0.3840(3)
C77_3 C 0.3090(2) 0.81938(19) 0.4612(5)
C78_3 C 0.27870(19) 0.78344(17) 0.4823(4)
C79_3 C 0.2777(2) 0.77746(19) 0.5724(4)
H43_3 H 0.296019 0.796035 0.621711
C80_3 C 0.2498(2) 0.74427(19) 0.5902(4)
H44_3 H 0.250140 0.740356 0.651729
Cd6_2 Cd 0.63774(2) 0.12750(2) 0.63641(3)
Cd8 Cd 0.36226(2) 0.87250(2) 0.36359(3)
Cd10_2 Cd 0.61422(2) 0.11257(2) 0.35975(3)
Cd11 Cd 0.38578(2) 0.88743(2) 0.64025(3)
O17 O 0.11014(16) 0.59242(14) 0.7507(3)
O21 O 0.16054(16) 0.64810(16) 0.7968(3)
N9_2 N 0.07031(17) 0.67542(16) 0.6100(3)
N11_2 N 0.06320(17) 0.67125(17) 0.3637(3)
C60_3 C 0.1551(3) 0.6489(3) 0.9756(5)
H34_3 H 0.176077 0.668698 0.962216
C61_3 C 0.1284(2) 0.61893(19) 0.9068(4)
C62_3 C 0.0970(2) 0.5900(2) 0.9265(4)
H35_3 H 0.078519 0.570075 0.880277
C64_3 C 0.1335(2) 0.6198(2) 0.8129(4)
O15 O 0.88986(16) 0.40758(14) 0.2493(3)
O16 O 0.83946(16) 0.35190(16) 0.2032(3)
C140_3 C 0.8449(3) 0.3511(3) 0.0244(5)
H78_3 H 0.823923 0.331302 0.037784
C141_3 C 0.8716(2) 0.38107(19) 0.0932(4)
C142_3 C 0.9030(2) 0.4100(2) 0.0735(4)
H79_3 H 0.921481 0.429925 0.119723
C144_3 C 0.8665(2) 0.3802(2) 0.1871(4)
Cd7 Cd 0.86226(2) 0.37250(2) 0.36359(3)
C68_3 C 0.99614(19) 0.50409(19) 0.4065(4)
H38_3 H 0.993395 0.507223 0.343308
O9_3 O 0.93832(16) 0.44073(15) 0.6337(3)
O10_3 O 0.91153(15) 0.41272(14) 0.4918(3)
C73_3 C 0.9376(2) 0.4385(2) 0.5497(5)
C74_3 C 0.97014(19) 0.47085(17) 0.5231(4)
C75_3 C 0.9670(2) 0.47481(19) 0.4302(4)
H41_3 H 0.944830 0.457423 0.383217
Cd4_2 Cd 0.88578(2) 0.38743(2) 0.64025(3)
O13_3 O 0.85742(17) 0.35263(15) 0.7587(3)
O14_3 O 0.91476(19) 0.40316(19) 0.8029(3)
N5_3 N 0.80727(17) 0.43027(16) 0.3486(3)
N6_2 N 0.42969(17) 0.82458(16) 0.3900(3)
N7_2 N 0.43680(17) 0.82875(17) 0.6363(3)
N8_3 N 0.82348(17) 0.43952(16) 0.6110(3)
C81_3 C 0.8225(2) 0.4717(2) 0.3504(5)
H45_3 H 0.854330 0.476676 0.353267
C82_3 C 0.7935(2) 0.5077(2) 0.3483(5)
H46_3 H 0.805287 0.536384 0.348905
C83_3 C 0.7463(2) 0.5005(2) 0.3454(4)
C84_3 C 0.7310(2) 0.4575(2) 0.3450(5)
H47_3 H 0.699632 0.451493 0.343902
C85_3 C 0.7624(2) 0.4232(2) 0.3464(5)
H48_3 H 0.751573 0.394224 0.345752
C86_3 C 0.7148(3) 0.5369(2) 0.3428(5)
C87_3 C 0.6878(3) 0.5662(3) 0.3414(5)
C88_3 C 0.6548(2) 0.6018(2) 0.3413(5)
C89_3 C 0.6670(2) 0.6458(2) 0.3275(4)
C90_3 C 0.7098(3) 0.6567(3) 0.3075(5)
H49_3 H 0.730978 0.634181 0.305082
C91_3 C 0.7199(3) 0.6986(3) 0.2922(6)
H50_3 H 0.748028 0.704679 0.279359
C92_3 C 0.6888(3) 0.7337(3) 0.2951(6)
H51_3 H 0.695923 0.762540 0.282703
C93_3 C 0.6483(3) 0.7250(2) 0.3163(5)
H52_3 H 0.628584 0.748365 0.320818
C94_3 C 0.6358(2) 0.6814(2) 0.3316(4)
C95_3 C 0.5920(2) 0.6712(2) 0.3504(4)
C96_3 C 0.5799(2) 0.6275(2) 0.3614(5)
C97_3 C 0.5367(3) 0.6163(2) 0.3788(5)
H53_3 H 0.515749 0.638849 0.382013
C98_3 C 0.5254(3) 0.5746(3) 0.3907(6)
H54_3 H 0.496735 0.568505 0.401492
C99_3 C 0.5566(3) 0.5395(3) 0.3871(6)
H55_3 H 0.548358 0.510405 0.395279
C100_3 C 0.5981(3) 0.5479(2) 0.3718(5)
H56_3 H 0.618627 0.524656 0.370437
C101_3 C 0.6109(2) 0.5916(2) 0.3579(4)
C102_3 C 0.5620(2) 0.7066(2) 0.3591(5)
C103_3 C 0.5360(2) 0.7346(2) 0.3688(4)
C104_3 C 0.5008(2) 0.7663(2) 0.3775(4)
C105_3 C 0.5086(2) 0.8112(2) 0.3834(5)
H57_3 H 0.538109 0.822787 0.383503
C106_3 C 0.4727(2) 0.8390(2) 0.3889(5)
H58_3 H 0.478515 0.869377 0.392104
C107_3 C 0.4564(2) 0.7520(2) 0.3792(5)
H59_3 H 0.449621 0.721803 0.376392
C108_3 C 0.4221(2) 0.7815(2) 0.3849(4)
H60_3 H 0.392388 0.770707 0.385175
C109_3 C 0.7786(2) 0.4275(2) 0.6034(5)
H61_3 H 0.771605 0.397422 0.601769
C110_3 C 0.7423(2) 0.4567(2) 0.5977(5)
H62_3 H 0.711650 0.446403 0.593675
C111_3 C 0.7512(2) 0.5017(2) 0.5980(4)
C112_3 C 0.7973(3) 0.5145(2) 0.6043(5)
H63_3 H 0.805073 0.544341 0.603875
C113_3 C 0.8321(2) 0.4821(2) 0.6113(5)
H64_3 H 0.863289 0.491234 0.616463
C114_3 C 0.7154(3) 0.5339(3) 0.5970(5)
C115_3 C 0.6884(3) 0.5620(2) 0.6024(5)
C116_3 C 0.6555(2) 0.5958(2) 0.6085(5)
C117_3 C 0.6129(3) 0.5838(2) 0.6261(5)
C118_3 C 0.6020(3) 0.5396(2) 0.6404(6)
H65_3 H 0.623397 0.517103 0.639015
C119_3 C 0.5606(4) 0.5295(3) 0.6562(7)
H66_3 H 0.553850 0.500218 0.666485
C120_3 C 0.5272(4) 0.5639(3) 0.6572(7)
H67_3 H 0.498466 0.556667 0.666832
C121_3 C 0.5365(3) 0.6064(3) 0.6443(6)
H68_3 H 0.514292 0.628266 0.645576
C122_3 C 0.5793(2) 0.6183(2) 0.6291(5)
C123_3 C 0.5902(2) 0.6624(2) 0.6170(4)
C124_3 C 0.6341(2) 0.6744(2) 0.6018(5)
C125_3 C 0.6455(3) 0.7188(2) 0.5872(5)
H69_3 H 0.624371 0.741440 0.589667
C126_3 C 0.6865(3) 0.7290(3) 0.5699(6)
H70_3 H 0.692987 0.758350 0.559420
C127_3 C 0.7193(3) 0.6955(3) 0.5676(7)
H71_3 H 0.747609 0.702719 0.556422
C128_3 C 0.7098(2) 0.6534(3) 0.5813(6)
H72_3 H 0.731994 0.631600 0.580085
C129_3 C 0.6669(2) 0.6410(2) 0.5977(5)
C130_3 C 0.5570(2) 0.6975(2) 0.6206(5)
C131_3 C 0.5295(3) 0.7241(2) 0.6227(5)
C132_3 C 0.4974(2) 0.7601(2) 0.6269(4)
C133_3 C 0.4511(2) 0.7517(2) 0.6306(5)
H73_3 H 0.439904 0.722865 0.630204
C134_3 C 0.4227(2) 0.7873(2) 0.6347(4)
H74_3 H 0.391835 0.781757 0.636482
C135_3 C 0.5116(2) 0.8039(2) 0.6280(4)
H75_3 H 0.541890 0.810952 0.625125
C136_3 C 0.4808(2) 0.8363(2) 0.6334(4)
H76_3 H 0.491082 0.865585 0.635248
C137_3 C 0.8831(3) 0.3767(2) 0.8171(4)
C138_3 C 0.8798(2) 0.3789(2) 0.9137(4)
C139_3 C 0.8492(2) 0.3506(2) 0.9341(5)
H77_3 H 0.830856 0.330527 0.888153
C143_3 C 0.9073(2) 0.4095(2) 0.9821(5)
H80_3 H 0.928059 0.429329 0.967994
O19_2 O 0.82584(15) 0.34849(14) 0.5211(3)
O20_2 O 0.81551(17) 0.31753(14) 0.3840(3)
N10_2 N 0.92969(17) 0.32458(16) 0.3900(3)
N12_2 N 0.93680(17) 0.32875(17) 0.6363(3)
H10_4 H 0.003265 0.931495 0.598508
C26_4 C 0.0273(2) 0.6610(2) 0.6111(5)
H14_4 H 0.021485 0.630623 0.607896
C27_4 C 0.0436(2) 0.7480(2) 0.6208(5)
H15_4 H 0.050379 0.778197 0.623608
C28_4 C 0.0779(2) 0.7185(2) 0.6151(4)
H16_4 H 0.107612 0.729293 0.614825
H23_4 H 0.001534 0.943333 0.333168
C52_4 C 0.0026(2) 0.7399(2) 0.3731(4)
C53_4 C 0.0489(2) 0.7483(2) 0.3694(5)
H29_4 H 0.060096 0.777135 0.369796
C54_4 C 0.0773(2) 0.7127(2) 0.3653(4)
H30_4 H 0.108165 0.718243 0.363518
C56_4 C 0.0192(2) 0.6637(2) 0.3666(4)
H32_4 H 0.008918 0.634415 0.364752
O1_4 O 0.64258(17) 0.14737(15) 0.2413(3)
O2_4 O 0.58524(19) 0.09684(19) 0.1971(3)
O4_4 O 0.56168(16) 0.05927(15) 0.3663(3)
O5_4 O 0.58847(15) 0.08728(14) 0.5082(3)
O6_4 O 0.67416(15) 0.15151(14) 0.4789(3)
O7_4 O 0.68449(17) 0.18247(14) 0.6160(3)
N1_4 N 0.69273(17) 0.06973(16) 0.6514(3)
N4_4 N 0.67652(17) 0.06048(16) 0.3890(3)
C1_4 C 0.6775(2) 0.0283(2) 0.6496(5)
H1_4 H 0.645670 0.023324 0.646733
C4_4 C 0.7690(2) 0.0425(2) 0.6550(5)
H3_4 H 0.800368 0.048507 0.656098
C5_4 C 0.7376(2) 0.0768(2) 0.6536(5)
H4_4 H 0.748427 0.105776 0.654248
C29_4 C 0.7214(2) 0.0725(2) 0.3966(5)
H17_4 H 0.728395 0.102578 0.398231
C30_4 C 0.7577(2) 0.0433(2) 0.4023(5)
H18_4 H 0.788350 0.053597 0.406325
C33_4 C 0.6679(2) 0.0179(2) 0.3887(5)
H20_4 H 0.636711 0.008766 0.383537
C57_4 C 0.6169(3) 0.1233(2) 0.1829(4)
C58_4 C 0.6202(2) 0.1211(2) 0.0863(4)
C59_4 C 0.6508(2) 0.1494(2) 0.0659(5)
H33_4 H 0.669144 0.169473 0.111847
C63_4 C 0.5927(2) 0.0905(2) 0.0179(5)
H36_4 H 0.571941 0.070671 0.032006
C65_4 C 0.5624(2) 0.0615(2) 0.4503(5)
C66_4 C 0.52986(19) 0.02915(17) 0.4769(4)
C67_4 C 0.5330(2) 0.02519(19) 0.5698(4)
H37_4 H 0.555170 0.042577 0.616783
C68_4 C 0.49614(19) 0.00409(19) 0.4065(4)
H38_4 H 0.493395 0.007223 0.343308
C69_4 C 0.6910(2) 0.18062(19) 0.5388(5)
C70_4 C 0.72130(19) 0.21656(17) 0.5177(4)
C71_4 C 0.7223(2) 0.22254(19) 0.4276(4)
H39_4 H 0.703981 0.203965 0.378289
C72_4 C 0.7502(2) 0.25573(19) 0.4098(4)
H40_4 H 0.749860 0.259644 0.348271
C77_4 C 0.8090(2) 0.31938(19) 0.4612(5)
C78_4 C 0.77870(19) 0.28344(17) 0.4823(4)
C79_4 C 0.7777(2) 0.27746(19) 0.5724(4)
H43_4 H 0.796019 0.296035 0.621711
C80_4 C 0.7498(2) 0.24427(19) 0.5902(4)
H44_4 H 0.750140 0.240356 0.651729
C82_4 C 0.2935(2) 0.0077(2) 0.3483(5)
H46_4 H 0.305287 0.036384 0.348905
C83_4 C 0.2463(2) 0.0005(2) 0.3454(4)
C86_4 C 0.2148(3) 0.0369(2) 0.3428(5)
C87_4 C 0.1878(3) 0.0662(3) 0.3414(5)
C88_4 C 0.1548(2) 0.1018(2) 0.3413(5)
C89_4 C 0.1670(2) 0.1458(2) 0.3275(4)
C90_4 C 0.2098(3) 0.1567(3) 0.3075(5)
H49_4 H 0.230978 0.134181 0.305082
C91_4 C 0.2199(3) 0.1986(3) 0.2922(6)
H50_4 H 0.248028 0.204679 0.279359
C92_4 C 0.1888(3) 0.2337(3) 0.2951(6)
H51_4 H 0.195923 0.262540 0.282703
C93_4 C 0.1483(3) 0.2250(2) 0.3163(5)
H52_4 H 0.128584 0.248365 0.320818
C94_4 C 0.1358(2) 0.1814(2) 0.3316(4)
C95_4 C 0.0920(2) 0.1712(2) 0.3504(4)
C96_4 C 0.0799(2) 0.1275(2) 0.3614(5)
C97_4 C 0.0367(3) 0.1163(2) 0.3788(5)
H53_4 H 0.015749 0.138849 0.382013
C98_4 C 0.0254(3) 0.0746(3) 0.3907(6)
C99_4 C 0.0566(3) 0.0395(3) 0.3871(6)
H55_4 H 0.048358 0.010405 0.395279
C100_4 C 0.0981(3) 0.0479(2) 0.3718(5)
H56_4 H 0.118627 0.024656 0.370437
C101_4 C 0.1109(2) 0.0916(2) 0.3579(4)
C102_4 C 0.0620(2) 0.2066(2) 0.3591(5)
C103_4 C 0.0360(2) 0.2346(2) 0.3688(4)
C104_4 C 0.0008(2) 0.2663(2) 0.3775(4)
C105_4 C 0.0086(2) 0.3112(2) 0.3834(5)
H57_4 H 0.038109 0.322787 0.383503
C111_4 C 0.2512(2) 0.0017(2) 0.5980(4)
C112_4 C 0.2973(3) 0.0145(2) 0.6043(5)
H63_4 H 0.305073 0.044341 0.603875
C114_4 C 0.2154(3) 0.0339(3) 0.5970(5)
C115_4 C 0.1884(3) 0.0620(2) 0.6024(5)
C116_4 C 0.1555(2) 0.0958(2) 0.6085(5)
C117_4 C 0.1129(3) 0.0838(2) 0.6261(5)
C118_4 C 0.1020(3) 0.0396(2) 0.6404(6)
H65_4 H 0.123397 0.017103 0.639015
C119_4 C 0.0606(4) 0.0295(3) 0.6562(7)
H66_4 H 0.053850 0.000218 0.666485
C120_4 C 0.0272(4) 0.0639(3) 0.6572(7)
C121_4 C 0.0365(3) 0.1064(3) 0.6443(6)
H68_4 H 0.014292 0.128266 0.645576
C122_4 C 0.0793(2) 0.1183(2) 0.6291(5)
C123_4 C 0.0902(2) 0.1624(2) 0.6170(4)
C124_4 C 0.1341(2) 0.1744(2) 0.6018(5)
C125_4 C 0.1455(3) 0.2188(2) 0.5872(5)
H69_4 H 0.124371 0.241440 0.589667
C126_4 C 0.1865(3) 0.2290(3) 0.5699(6)
H70_4 H 0.192987 0.258350 0.559420
C127_4 C 0.2193(3) 0.1955(3) 0.5676(7)
H71_4 H 0.247609 0.202719 0.556422
C128_4 C 0.2098(2) 0.1534(3) 0.5813(6)
H72_4 H 0.231994 0.131600 0.580085
C129_4 C 0.1669(2) 0.1410(2) 0.5977(5)
C130_4 C 0.0570(2) 0.1975(2) 0.6206(5)
C131_4 C 0.0295(3) 0.2241(2) 0.6227(5)
C135_4 C 0.0116(2) 0.3039(2) 0.6280(4)
H75_4 H 0.041890 0.310952 0.625125
O17_2 O 0.61014(16) 0.09242(14) 0.7507(3)
O21_2 O 0.66054(16) 0.14810(16) 0.7968(3)
C60_4 C 0.6551(3) 0.1489(3) 0.9756(5)
H34_4 H 0.676077 0.168698 0.962216
C61_4 C 0.6284(2) 0.11893(19) 0.9068(4)
C62_4 C 0.5970(2) 0.0900(2) 0.9265(4)
H35_4 H 0.578519 0.070075 0.880277
C64_4 C 0.6335(2) 0.1198(2) 0.8129(4)
O15_2 O 0.38986(16) 0.90758(14) 0.2493(3)
O16_2 O 0.33946(16) 0.85190(16) 0.2032(3)
C140_4 C 0.3449(3) 0.8511(3) 0.0244(5)
H78_4 H 0.323923 0.831302 0.037784
C141_4 C 0.3716(2) 0.88107(19) 0.0932(4)
C142_4 C 0.4030(2) 0.9100(2) 0.0735(4)
H79_4 H 0.421481 0.929925 0.119723
C144_4 C 0.3665(2) 0.8802(2) 0.1871(4)
C2_4 C 0.7065(2) 0.9923(2) 0.6517(5)
H2_4 H 0.694713 0.963616 0.651095
C3_4 C 0.7537(2) 0.9995(2) 0.6546(4)
C6_4 C 0.7852(3) 0.9631(2) 0.6572(5)
C7_4 C 0.8122(3) 0.9338(3) 0.6586(5)
C8_4 C 0.8452(2) 0.8982(2) 0.6587(5)
C9_4 C 0.8330(2) 0.8542(2) 0.6725(4)
C10_4 C 0.7902(3) 0.8433(3) 0.6925(5)
H5_4 H 0.769022 0.865819 0.694918
C11_4 C 0.7801(3) 0.8014(3) 0.7078(6)
H6_4 H 0.751972 0.795321 0.720641
C12_4 C 0.8112(3) 0.7663(3) 0.7049(6)
H7_4 H 0.804077 0.737460 0.717297
C13_4 C 0.8517(3) 0.7750(2) 0.6837(5)
H8_4 H 0.871416 0.751635 0.679182
C14_4 C 0.8642(2) 0.8186(2) 0.6684(4)
C15_4 C 0.9080(2) 0.8288(2) 0.6496(4)
C16_4 C 0.9201(2) 0.8725(2) 0.6386(5)
C17_4 C 0.9633(3) 0.8837(2) 0.6212(5)
H9_4 H 0.984251 0.861151 0.617987
C18_4 C 0.9746(3) 0.9254(3) 0.6093(6)
C19_4 C 0.9434(3) 0.9605(3) 0.6129(6)
H11_4 H 0.951642 0.989595 0.604721
C20_4 C 0.9019(3) 0.9521(2) 0.6282(5)
H12_4 H 0.881373 0.975344 0.629563
C21_4 C 0.8891(2) 0.9084(2) 0.6421(4)
C22_4 C 0.9380(2) 0.7934(2) 0.6409(5)
C23_4 C 0.9640(2) 0.7654(2) 0.6312(4)
C24_4 C 0.9992(2) 0.7337(2) 0.6225(4)
C25_4 C 0.9914(2) 0.6888(2) 0.6166(5)
H13_4 H 0.961891 0.677213 0.616497
C31_4 C 0.7488(2) 0.9983(2) 0.4020(4)
C32_4 C 0.7027(3) 0.9855(2) 0.3957(5)
H19_4 H 0.694927 0.955659 0.396125
C34_4 C 0.7846(3) 0.9661(3) 0.4030(5)
C35_4 C 0.8116(3) 0.9380(2) 0.3976(5)
C36_4 C 0.8445(2) 0.9042(2) 0.3915(5)
C37_4 C 0.8871(3) 0.9162(2) 0.3739(5)
C38_4 C 0.8980(3) 0.9604(2) 0.3596(6)
H21_4 H 0.876603 0.982897 0.360985
C39_4 C 0.9394(4) 0.9705(3) 0.3438(7)
H22_4 H 0.946150 0.999782 0.333515
C40_4 C 0.9728(4) 0.9361(3) 0.3428(7)
C41_4 C 0.9635(3) 0.8936(3) 0.3557(6)
H24_4 H 0.985708 0.871734 0.354424
C42_4 C 0.9207(2) 0.8817(2) 0.3709(5)
C43_4 C 0.9098(2) 0.8376(2) 0.3830(4)
C44_4 C 0.8659(2) 0.8256(2) 0.3982(5)
C45_4 C 0.8545(3) 0.7812(2) 0.4128(5)
H25_4 H 0.875629 0.758560 0.410333
C46_4 C 0.8135(3) 0.7710(3) 0.4301(6)
H26_4 H 0.807013 0.741650 0.440580
C47_4 C 0.7807(3) 0.8045(3) 0.4324(7)
H27_4 H 0.752391 0.797281 0.443578
C48_4 C 0.7902(2) 0.8466(3) 0.4187(6)
H28_4 H 0.768006 0.868400 0.419915
C49_4 C 0.8331(2) 0.8590(2) 0.4023(5)
C50_4 C 0.9430(2) 0.8025(2) 0.3794(5)
C51_4 C 0.9705(3) 0.7759(2) 0.3773(5)
C55_4 C 0.9884(2) 0.6961(2) 0.3720(4)
H31_4 H 0.958110 0.689048 0.374875
O9_4 O 0.43832(16) 0.94073(15) 0.6337(3)
O10_4 O 0.41153(15) 0.91272(14) 0.4918(3)
C73_4 C 0.4376(2) 0.9385(2) 0.5497(5)
C74_4 C 0.47014(19) 0.97085(17) 0.5231(4)
C75_4 C 0.4670(2) 0.97481(19) 0.4302(4)
H41_4 H 0.444830 0.957423 0.383217
C76_4 C 0.50386(19) 0.99591(19) 0.5935(4)
H42_4 H 0.506605 0.992777 0.656692
O13_4 O 0.35742(17) 0.85263(15) 0.7587(3)
O14_4 O 0.41476(19) 0.90316(19) 0.8029(3)
N5_4 N 0.30727(17) 0.93027(16) 0.3486(3)
N8_4 N 0.32348(17) 0.93952(16) 0.6110(3)
C81_4 C 0.3225(2) 0.9717(2) 0.3504(5)
H45_4 H 0.354330 0.976676 0.353267
C84_4 C 0.2310(2) 0.9575(2) 0.3450(5)
H47_4 H 0.199632 0.951493 0.343902
C85_4 C 0.2624(2) 0.9232(2) 0.3464(5)
H48_4 H 0.251573 0.894224 0.345752
C109_4 C 0.2786(2) 0.9275(2) 0.6034(5)
H61_4 H 0.271605 0.897422 0.601769
C110_4 C 0.2423(2) 0.9567(2) 0.5977(5)
H62_4 H 0.211650 0.946403 0.593675
C113_4 C 0.3321(2) 0.9821(2) 0.6113(5)
H64_4 H 0.363289 0.991234 0.616463
C137_4 C 0.3831(3) 0.8767(2) 0.8171(4)
C138_4 C 0.3798(2) 0.8789(2) 0.9137(4)
C139_4 C 0.3492(2) 0.8506(2) 0.9341(5)
H77_4 H 0.330856 0.830527 0.888153
C143_4 C 0.4073(2) 0.9095(2) 0.9821(5)
H80_4 H 0.428059 0.929329 0.967994
H54_4 H 0.996735 0.068505 0.401492
C106_4 C 0.9727(2) 0.3390(2) 0.3889(5)
H58_4 H 0.978515 0.369377 0.392104
C107_4 C 0.9564(2) 0.2520(2) 0.3792(5)
H59_4 H 0.949621 0.221803 0.376392
C108_4 C 0.9221(2) 0.2815(2) 0.3849(4)
H60_4 H 0.892388 0.270707 0.385175
H67_4 H 0.998466 0.056667 0.666832
C132_4 C 0.9974(2) 0.2601(2) 0.6269(4)
C133_4 C 0.9511(2) 0.2517(2) 0.6306(5)
H73_4 H 0.939904 0.222865 0.630204
C134_4 C 0.9227(2) 0.2873(2) 0.6347(4)
H74_4 H 0.891835 0.281757 0.636482
C136_4 C 0.9808(2) 0.3363(2) 0.6334(4)
H76_4 H 0.991082 0.365585 0.635248
loop_
_geom_bond_atom_site_label_1
_geom_bond_atom_site_label_2
_geom_bond_site_symmetry_1
_geom_bond_site_symmetry_2
H38 C68 1_555 1_555
C75 C68 1_555 1_555
H41 C75 1_555 1_555
Cd3 O10 1_555 1_555
N5 Cd3 1_555 1_555
N6 C106 1_555 1_555
C81 N5 1_555 1_555
H45 C81 1_555 1_555
C82 C81 1_555 1_555
H46 C82 1_555 1_555
C83 C82 1_555 1_555
C84 C83 1_555 1_555
H47 C84 1_555 1_555
C85 N5 1_555 1_555
H48 C85 1_555 1_555
C86 C83 1_555 1_555
C87 C86 1_555 1_555
C88 C87 1_555 1_555
C89 C88 1_555 1_555
C90 C89 1_555 1_555
H49 C90 1_555 1_555
C91 C90 1_555 1_555
H50 C91 1_555 1_555
C92 C91 1_555 1_555
H51 C92 1_555 1_555
C93 C92 1_555 1_555
H52 C93 1_555 1_555
C94 C89 1_555 1_555
C95 C94 1_555 1_555
C96 C95 1_555 1_555
C97 C96 1_555 1_555
H53 C97 1_555 1_555
C98 C97 1_555 1_555
H54 C98 1_555 1_555
C99 C98 1_555 1_555
H55 C99 1_555 1_555
C100 C99 1_555 1_555
H56 C100 1_555 1_555
C101 C88 1_555 1_555
C102 C95 1_555 1_555
C103 C102 1_555 1_555
C104 C103 1_555 1_555
C105 C104 1_555 1_555
H57 C105 1_555 1_555
C106 C105 1_555 1_555
H58 C106 1_555 1_555
C107 C104 1_555 1_555
H59 C107 1_555 1_555
C108 N6 1_555 1_555
H60 C108 1_555 1_555
Cd9 N6 1_555 1_555
O18 Cd3 1_555 1_555
O20 Cd3 1_555 1_555
O22 Cd3 1_555 1_555
N10 Cd3 1_555 1_555
C84 C85 1_555 1_555
C93 C94 1_555 1_555
C96 C101 1_555 1_555
C100 C101 1_555 1_555
C107 C108 1_555 1_555
O9 C73 1_555 1_555
C73 C74 1_555 1_555
Cd4 O9 1_555 1_555
O13 Cd4 1_555 1_555
O14 Cd4 1_555 1_555
O18 C144 1_555 1_555
O22 C144 1_555 1_555
N7 C134 1_555 1_555
N8 Cd4 1_555 1_555
C109 N8 1_555 1_555
H61 C109 1_555 1_555
C110 C109 1_555 1_555
H62 C110 1_555 1_555
C111 C110 1_555 1_555
C112 C111 1_555 1_555
H63 C112 1_555 1_555
C113 N8 1_555 1_555
H64 C113 1_555 1_555
C114 C111 1_555 1_555
C115 C114 1_555 1_555
C116 C115 1_555 1_555
C117 C116 1_555 1_555
C118 C117 1_555 1_555
H65 C118 1_555 1_555
C119 C118 1_555 1_555
H66 C119 1_555 1_555
C120 C119 1_555 1_555
H67 C120 1_555 1_555
C121 C120 1_555 1_555
H68 C121 1_555 1_555
C122 C117 1_555 1_555
C123 C122 1_555 1_555
C124 C123 1_555 1_555
C125 C124 1_555 1_555
H69 C125 1_555 1_555
C126 C125 1_555 1_555
H70 C126 1_555 1_555
C127 C126 1_555 1_555
H71 C127 1_555 1_555
C128 C127 1_555 1_555
H72 C128 1_555 1_555
C129 C116 1_555 1_555
C130 C123 1_555 1_555
C131 C130 1_555 1_555
C132 C131 1_555 1_555
C133 C132 1_555 1_555
H73 C133 1_555 1_555
C134 C133 1_555 1_555
H74 C134 1_555 1_555
C135 C132 1_555 1_555
H75 C135 1_555 1_555
C136 N7 1_555 1_555
H76 C136 1_555 1_555
C137 O13 1_555 1_555
C138 C137 1_555 1_555
C139 C138 1_555 1_555
H77 C139 1_555 1_555
C140 C139 1_555 1_555
H78 C140 1_555 1_555
C141 C140 1_555 1_555
C142 C141 1_555 1_555
H79 C142 1_555 1_555
C143 C138 1_555 1_555
H80 C143 1_555 1_555
C144 C141 1_555 1_555
Cd12 N7 1_555 1_555
O19 Cd4 1_555 1_555
N12 Cd4 1_555 1_555
O14 C137 1_555 1_555
C112 C113 1_555 1_555
C121 C122 1_555 1_555
C124 C129 1_555 1_555
C128 C129 1_555 1_555
C135 C136 1_555 1_555
C142 C143 1_555 1_555
Cd2 O1 1_555 1_555
O1 C57 1_555 1_555
O2 Cd2 1_555 1_555
O3 C64 1_555 1_555
O4 Cd2 1_555 1_555
O6 Cd2 1_555 1_555
O8 C64 1_555 1_555
N3 C54 1_555 1_555
N4 Cd2 1_555 1_555
C29 N4 1_555 1_555
H17 C29 1_555 1_555
C30 C29 1_555 1_555
H18 C30 1_555 1_555
C31 C30 1_555 1_555
C32 C31 1_555 1_555
H19 C32 1_555 1_555
C33 N4 1_555 1_555
H20 C33 1_555 1_555
C34 C31 1_555 1_555
C35 C34 1_555 1_555
C36 C35 1_555 1_555
C37 C36 1_555 1_555
C38 C37 1_555 1_555
H21 C38 1_555 1_555
C39 C38 1_555 1_555
H22 C39 1_555 1_555
C40 C39 1_555 1_555
H23 C40 1_555 1_555
C41 C40 1_555 1_555
H24 C41 1_555 1_555
C42 C37 1_555 1_555
C43 C42 1_555 1_555
C44 C43 1_555 1_555
C45 C44 1_555 1_555
H25 C45 1_555 1_555
C46 C45 1_555 1_555
H26 C46 1_555 1_555
C47 C46 1_555 1_555
H27 C47 1_555 1_555
C48 C47 1_555 1_555
H28 C48 1_555 1_555
C49 C36 1_555 1_555
C50 C43 1_555 1_555
C51 C50 1_555 1_555
C52 C51 1_555 1_555
C53 C52 1_555 1_555
H29 C53 1_555 1_555
C54 C53 1_555 1_555
H30 C54 1_555 1_555
C55 C52 1_555 1_555
H31 C55 1_555 1_555
C56 N3 1_555 1_555
H32 C56 1_555 1_555
C57 O2 1_555 1_555
C58 C57 1_555 1_555
C59 C58 1_555 1_555
H33 C59 1_555 1_555
C60 C59 1_555 1_555
H34 C60 1_555 1_555
C61 C60 1_555 1_555
C62 C61 1_555 1_555
H35 C62 1_555 1_555
C63 C58 1_555 1_555
H36 C63 1_555 1_555
C64 C61 1_555 1_555
C65 O4 1_555 1_555
C66 C65 1_555 1_555
H39 C71 1_555 1_555
C72 C71 1_555 1_555
H40 C72 1_555 1_555
O12 C77 1_555 1_555
C77 C78 1_555 1_555
C78 C72 1_555 1_555
Cd5 O3 1_555 1_555
Cd9 O12 1_555 1_555
Cd10 N3 1_555 1_555
N11 Cd2 1_555 1_555
O8 Cd5 1_555 1_555
C32 C33 1_555 1_555
C41 C42 1_555 1_555
C44 C49 1_555 1_555
C48 C49 1_555 1_555
C55 C56 1_555 1_555
C62 C63 1_555 1_555
Cd5 O5 1_555 1_555
O7 Cd5 1_555 1_555
N1 Cd5 1_555 1_555
N2 C26 1_555 1_555
C1 N1 1_555 1_555
H1 C1 1_555 1_555
C2 C1 1_555 1_555
H2 C2 1_555 1_555
C3 C2 1_555 1_555
C4 C3 1_555 1_555
H3 C4 1_555 1_555
C5 N1 1_555 1_555
H4 C5 1_555 1_555
C6 C3 1_555 1_555
C7 C6 1_555 1_555
C8 C7 1_555 1_555
C9 C8 1_555 1_555
C10 C9 1_555 1_555
H5 C10 1_555 1_555
C11 C10 1_555 1_555
H6 C11 1_555 1_555
C12 C11 1_555 1_555
H7 C12 1_555 1_555
C13 C12 1_555 1_555
H8 C13 1_555 1_555
C14 C9 1_555 1_555
C15 C14 1_555 1_555
C16 C15 1_555 1_555
C17 C16 1_555 1_555
H9 C17 1_555 1_555
C18 C17 1_555 1_555
H10 C18 1_555 1_555
C19 C18 1_555 1_555
H11 C19 1_555 1_555
C20 C19 1_555 1_555
H12 C20 1_555 1_555
C21 C8 1_555 1_555
C22 C15 1_555 1_555
C23 C22 1_555 1_555
C24 C23 1_555 1_555
C25 C24 1_555 1_555
H13 C25 1_555 1_555
C26 C25 1_555 1_555
H14 C26 1_555 1_555
C27 C24 1_555 1_555
H15 C27 1_555 1_555
C28 N2 1_555 1_555
H16 C28 1_555 1_555
H37 C67 1_555 1_555
C70 C69 1_555 1_555
C76 C67 1_555 1_555
H42 C76 1_555 1_555
H43 C79 1_555 1_555
C80 C70 1_555 1_555
H44 C80 1_555 1_555
Cd6 N2 1_555 1_555
Cd12 O11 1_555 1_555
N9 Cd5 1_555 1_555
O7 C69 1_555 1_555
C4 C5 1_555 1_555
C13 C14 1_555 1_555
C16 C21 1_555 1_555
C20 C21 1_555 1_555
C27 C28 1_555 1_555
C79 C80 1_555 1_555
N10 C106_2 1_555 1_555
H58_2 C106_2 1_555 1_555
H59_2 C107_2 1_555 1_555
C108_2 N10 1_555 1_555
H60_2 C108_2 1_555 1_555
C107_2 C108_2 1_555 1_555
N12 C134_2 1_555 1_555
C133_2 C132_2 1_555 1_555
H73_2 C133_2 1_555 1_555
C134_2 C133_2 1_555 1_555
H74_2 C134_2 1_555 1_555
C136_2 N12 1_555 1_555
H76_2 C136_2 1_555 1_555
Cd10 O1_2 1_555 1_555
O1_2 C57_2 1_555 1_555
O2_2 Cd10 1_555 1_555
O3_2 C64_2 1_555 1_555
O4_2 Cd10 1_555 1_555
O6_2 Cd10 1_555 1_555
O8_2 C64_2 1_555 1_555
N4_2 Cd10 1_555 1_555
C29_2 N4_2 1_555 1_555
H17_2 C29_2 1_555 1_555
C30_2 C29_2 1_555 1_555
H18_2 C30_2 1_555 1_555
C33_2 N4_2 1_555 1_555
H20_2 C33_2 1_555 1_555
C57_2 O2_2 1_555 1_555
C58_2 C57_2 1_555 1_555
C59_2 C58_2 1_555 1_555
H33_2 C59_2 1_555 1_555
C60_2 C59_2 1_555 1_555
H34_2 C60_2 1_555 1_555
C61_2 C60_2 1_555 1_555
C62_2 C61_2 1_555 1_555
H35_2 C62_2 1_555 1_555
C63_2 C58_2 1_555 1_555
H36_2 C63_2 1_555 1_555
C64_2 C61_2 1_555 1_555
C65_2 O4_2 1_555 1_555
C66_2 C65_2 1_555 1_555
C68_2 C66_2 1_555 1_555
H38_2 C68_2 1_555 1_555
H39_2 C71_2 1_555 1_555
C72_2 C71_2 1_555 1_555
H40_2 C72_2 1_555 1_555
O20 C77_2 1_555 1_555
C77_2 C78_2 1_555 1_555
C78_2 C72_2 1_555 1_555
H46_2 C82_2 1_555 1_555
C83_2 C82_2 1_555 1_555
C86_2 C83_2 1_555 1_555
C87_2 C86_2 1_555 1_555
C88_2 C87_2 1_555 1_555
C89_2 C88_2 1_555 1_555
C90_2 C89_2 1_555 1_555
H49_2 C90_2 1_555 1_555
C91_2 C90_2 1_555 1_555
H50_2 C91_2 1_555 1_555
C92_2 C91_2 1_555 1_555
H51_2 C92_2 1_555 1_555
C93_2 C92_2 1_555 1_555
H52_2 C93_2 1_555 1_555
C94_2 C89_2 1_555 1_555
C95_2 C94_2 1_555 1_555
C96_2 C95_2 1_555 1_555
C97_2 C96_2 1_555 1_555
H53_2 C97_2 1_555 1_555
C98_2 C97_2 1_555 1_555
C99_2 C98_2 1_555 1_555
H55_2 C99_2 1_555 1_555
C100_2 C99_2 1_555 1_555
H56_2 C100_2 1_555 1_555
C101_2 C88_2 1_555 1_555
C102_2 C95_2 1_555 1_555
C103_2 C102_2 1_555 1_555
C104_2 C103_2 1_555 1_555
C105_2 C104_2 1_555 1_555
H57_2 C105_2 1_555 1_555
Cd6 O3_2 1_555 1_555
O8_2 Cd6 1_555 1_555
C62_2 C63_2 1_555 1_555
C93_2 C94_2 1_555 1_555
C96_2 C101_2 1_555 1_555
C100_2 C101_2 1_555 1_555
Cd6 O5_2 1_555 1_555
O7_2 Cd6 1_555 1_555
N1_2 Cd6 1_555 1_555
C1_2 N1_2 1_555 1_555
H1_2 C1_2 1_555 1_555
H3_2 C4_2 1_555 1_555
C5_2 N1_2 1_555 1_555
H4_2 C5_2 1_555 1_555
H37_2 C67_2 1_555 1_555
C70_2 C69_2 1_555 1_555
H43_2 C79_2 1_555 1_555
C80_2 C70_2 1_555 1_555
H44_2 C80_2 1_555 1_555
C112_2 C111_2 1_555 1_555
H63_2 C112_2 1_555 1_555
C114_2 C111_2 1_555 1_555
C115_2 C114_2 1_555 1_555
C116_2 C115_2 1_555 1_555
C117_2 C116_2 1_555 1_555
C118_2 C117_2 1_555 1_555
H65_2 C118_2 1_555 1_555
C119_2 C118_2 1_555 1_555
H66_2 C119_2 1_555 1_555
C120_2 C119_2 1_555 1_555
C121_2 C120_2 1_555 1_555
H68_2 C121_2 1_555 1_555
C122_2 C117_2 1_555 1_555
C123_2 C122_2 1_555 1_555
C124_2 C123_2 1_555 1_555
C125_2 C124_2 1_555 1_555
H69_2 C125_2 1_555 1_555
C126_2 C125_2 1_555 1_555
H70_2 C126_2 1_555 1_555
C127_2 C126_2 1_555 1_555
H71_2 C127_2 1_555 1_555
C128_2 C127_2 1_555 1_555
H72_2 C128_2 1_555 1_555
C129_2 C116_2 1_555 1_555
C130_2 C123_2 1_555 1_555
C131_2 C130_2 1_555 1_555
H75_2 C135_2 1_555 1_555
O7_2 C69_2 1_555 1_555
C4_2 C5_2 1_555 1_555
C79_2 C80_2 1_555 1_555
C121_2 C122_2 1_555 1_555
C124_2 C129_2 1_555 1_555
C128_2 C129_2 1_555 1_555
C32_2 C31_2 1_555 1_555
H19_2 C32_2 1_555 1_555
C34_2 C31_2 1_555 1_555
C35_2 C34_2 1_555 1_555
C36_2 C35_2 1_555 1_555
C37_2 C36_2 1_555 1_555
C38_2 C37_2 1_555 1_555
H21_2 C38_2 1_555 1_555
C39_2 C38_2 1_555 1_555
H22_2 C39_2 1_555 1_555
C40_2 C39_2 1_555 1_555
C41_2 C40_2 1_555 1_555
H24_2 C41_2 1_555 1_555
C42_2 C37_2 1_555 1_555
C43_2 C42_2 1_555 1_555
C44_2 C43_2 1_555 1_555
C45_2 C44_2 1_555 1_555
H25_2 C45_2 1_555 1_555
C46_2 C45_2 1_555 1_555
H26_2 C46_2 1_555 1_555
C47_2 C46_2 1_555 1_555
H27_2 C47_2 1_555 1_555
C48_2 C47_2 1_555 1_555
H28_2 C48_2 1_555 1_555
C49_2 C36_2 1_555 1_555
C50_2 C43_2 1_555 1_555
C51_2 C50_2 1_555 1_555
H31_2 C55_2 1_555 1_555
H41_2 C75_2 1_555 1_555
Cd9 O10_2 1_555 1_555
N5_2 Cd9 1_555 1_555
C81_2 N5_2 1_555 1_555
H45_2 C81_2 1_555 1_555
H47_2 C84_2 1_555 1_555
C85_2 N5_2 1_555 1_555
H48_2 C85_2 1_555 1_555
O18_2 Cd9 1_555 1_555
O22_2 Cd9 1_555 1_555
C41_2 C42_2 1_555 1_555
C44_2 C49_2 1_555 1_555
C48_2 C49_2 1_555 1_555
C84_2 C85_2 1_555 1_555
H2_2 C2_2 1_555 1_555
C3_2 C2_2 1_555 1_555
C6_2 C3_2 1_555 1_555
C7_2 C6_2 1_555 1_555
C8_2 C7_2 1_555 1_555
C9_2 C8_2 1_555 1_555
C10_2 C9_2 1_555 1_555
H5_2 C10_2 1_555 1_555
C11_2 C10_2 1_555 1_555
H6_2 C11_2 1_555 1_555
C12_2 C11_2 1_555 1_555
H7_2 C12_2 1_555 1_555
C13_2 C12_2 1_555 1_555
H8_2 C13_2 1_555 1_555
C14_2 C9_2 1_555 1_555
C15_2 C14_2 1_555 1_555
C16_2 C15_2 1_555 1_555
C17_2 C16_2 1_555 1_555
H9_2 C17_2 1_555 1_555
C18_2 C17_2 1_555 1_555
C19_2 C18_2 1_555 1_555
H11_2 C19_2 1_555 1_555
C20_2 C19_2 1_555 1_555
H12_2 C20_2 1_555 1_555
C21_2 C8_2 1_555 1_555
C22_2 C15_2 1_555 1_555
C23_2 C22_2 1_555 1_555
C24_2 C23_2 1_555 1_555
C25_2 C24_2 1_555 1_555
H13_2 C25_2 1_555 1_555
O9_2 C73_2 1_555 1_555
C73_2 C74_2 1_555 1_555
H42_2 C76_2 1_555 1_555
Cd12 O9_2 1_555 1_555
O13_2 Cd12 1_555 1_555
O14_2 Cd12 1_555 1_555
O18_2 C144_2 1_555 1_555
O22_2 C144_2 1_555 1_555
N8_2 Cd12 1_555 1_555
C109_2 N8_2 1_555 1_555
H61_2 C109_2 1_555 1_555
C110_2 C109_2 1_555 1_555
H62_2 C110_2 1_555 1_555
C113_2 N8_2 1_555 1_555
H64_2 C113_2 1_555 1_555
C137_2 O13_2 1_555 1_555
C138_2 C137_2 1_555 1_555
C139_2 C138_2 1_555 1_555
H77_2 C139_2 1_555 1_555
C140_2 C139_2 1_555 1_555
H78_2 C140_2 1_555 1_555
C141_2 C140_2 1_555 1_555
C142_2 C141_2 1_555 1_555
H79_2 C142_2 1_555 1_555
C143_2 C138_2 1_555 1_555
H80_2 C143_2 1_555 1_555
C144_2 C141_2 1_555 1_555
C13_2 C14_2 1_555 1_555
C16_2 C21_2 1_555 1_555
C20_2 C21_2 1_555 1_555
C74_2 C76_2 1_555 1_555
O14_2 C137_2 1_555 1_555
C142_2 C143_2 1_555 1_555
N11 C54_2 1_555 1_555
C53_2 C52_2 1_555 1_555
H29_2 C53_2 1_555 1_555
C54_2 C53_2 1_555 1_555
H30_2 C54_2 1_555 1_555
C56_2 N11 1_555 1_555
H32_2 C56_2 1_555 1_555
N9 C26_2 1_555 1_555
H14_2 C26_2 1_555 1_555
H15_2 C27_2 1_555 1_555
C28_2 N9 1_555 1_555
H16_2 C28_2 1_555 1_555
C27_2 C28_2 1_555 1_555
Cd1 O5_3 1_555 1_555
Cd2_2 O1_3 1_555 1_555
O1_3 C57_3 1_555 1_555
O2_3 Cd2_2 1_555 1_555
O4_3 Cd2_2 1_555 1_555
O5_3 Cd2_2 1_555 1_555
O6_3 Cd2_2 1_555 1_555
O7_3 Cd1 1_555 1_555
N1_3 Cd1 1_555 1_555
N2_2 C26_3 1_555 1_555
N3_2 C54_3 1_555 1_555
N4_3 Cd2_2 1_555 1_555
C1_3 N1_3 1_555 1_555
H1_3 C1_3 1_555 1_555
C2_3 C1_3 1_555 1_555
H2_3 C2_3 1_555 1_555
C3_3 C2_3 1_555 1_555
C4_3 C3_3 1_555 1_555
H3_3 C4_3 1_555 1_555
C5_3 N1_3 1_555 1_555
H4_3 C5_3 1_555 1_555
C6_3 C3_3 1_555 1_555
C7_3 C6_3 1_555 1_555
C8_3 C7_3 1_555 1_555
C9_3 C8_3 1_555 1_555
C10_3 C9_3 1_555 1_555
H5_3 C10_3 1_555 1_555
C11_3 C10_3 1_555 1_555
H6_3 C11_3 1_555 1_555
C12_3 C11_3 1_555 1_555
H7_3 C12_3 1_555 1_555
C13_3 C12_3 1_555 1_555
H8_3 C13_3 1_555 1_555
C14_3 C9_3 1_555 1_555
C15_3 C14_3 1_555 1_555
C16_3 C15_3 1_555 1_555
C17_3 C16_3 1_555 1_555
H9_3 C17_3 1_555 1_555
C18_3 C17_3 1_555 1_555
H10_3 C18_3 1_555 1_555
C19_3 C18_3 1_555 1_555
H11_3 C19_3 1_555 1_555
C20_3 C19_3 1_555 1_555
H12_3 C20_3 1_555 1_555
C21_3 C8_3 1_555 1_555
C22_3 C15_3 1_555 1_555
C23_3 C22_3 1_555 1_555
C24_3 C23_3 1_555 1_555
C25_3 C24_3 1_555 1_555
H13_3 C25_3 1_555 1_555
C26_3 C25_3 1_555 1_555
H14_3 C26_3 1_555 1_555
C27_3 C24_3 1_555 1_555
H15_3 C27_3 1_555 1_555
C28_3 N2_2 1_555 1_555
H16_3 C28_3 1_555 1_555
C29_3 N4_3 1_555 1_555
H17_3 C29_3 1_555 1_555
C30_3 C29_3 1_555 1_555
H18_3 C30_3 1_555 1_555
C31_3 C30_3 1_555 1_555
C32_3 C31_3 1_555 1_555
H19_3 C32_3 1_555 1_555
C33_3 N4_3 1_555 1_555
H20_3 C33_3 1_555 1_555
C34_3 C31_3 1_555 1_555
C35_3 C34_3 1_555 1_555
C36_3 C35_3 1_555 1_555
C37_3 C36_3 1_555 1_555
C38_3 C37_3 1_555 1_555
H21_3 C38_3 1_555 1_555
C39_3 C38_3 1_555 1_555
H22_3 C39_3 1_555 1_555
C40_3 C39_3 1_555 1_555
H23_3 C40_3 1_555 1_555
C41_3 C40_3 1_555 1_555
H24_3 C41_3 1_555 1_555
C42_3 C37_3 1_555 1_555
C43_3 C42_3 1_555 1_555
C44_3 C43_3 1_555 1_555
C45_3 C44_3 1_555 1_555
H25_3 C45_3 1_555 1_555
C46_3 C45_3 1_555 1_555
H26_3 C46_3 1_555 1_555
C47_3 C46_3 1_555 1_555
H27_3 C47_3 1_555 1_555
C48_3 C47_3 1_555 1_555
H28_3 C48_3 1_555 1_555
C49_3 C36_3 1_555 1_555
C50_3 C43_3 1_555 1_555
C51_3 C50_3 1_555 1_555
C52_3 C51_3 1_555 1_555
C53_3 C52_3 1_555 1_555
H29_3 C53_3 1_555 1_555
C54_3 C53_3 1_555 1_555
H30_3 C54_3 1_555 1_555
C55_3 C52_3 1_555 1_555
H31_3 C55_3 1_555 1_555
C56_3 N3_2 1_555 1_555
H32_3 C56_3 1_555 1_555
C57_3 O2_3 1_555 1_555
C58_3 C57_3 1_555 1_555
C59_3 C58_3 1_555 1_555
H33_3 C59_3 1_555 1_555
C63_3 C58_3 1_555 1_555
H36_3 C63_3 1_555 1_555
C65_3 O4_3 1_555 1_555
C66_3 C65_3 1_555 1_555
C67_3 C66_3 1_555 1_555
H37_3 C67_3 1_555 1_555
C69_3 O6_3 1_555 1_555
C70_3 C69_3 1_555 1_555
C71_3 C70_3 1_555 1_555
H39_3 C71_3 1_555 1_555
C72_3 C71_3 1_555 1_555
H40_3 C72_3 1_555 1_555
C76_3 C67_3 1_555 1_555
H42_3 C76_3 1_555 1_555
O11_2 C77_3 1_555 1_555
O12_2 C77_3 1_555 1_555
C77_3 C78_3 1_555 1_555
C78_3 C72_3 1_555 1_555
C79_3 C78_3 1_555 1_555
H43_3 C79_3 1_555 1_555
C80_3 C70_3 1_555 1_555
H44_3 C80_3 1_555 1_555
Cd6_2 N2_2 1_555 1_555
Cd8 O12_2 1_555 1_555
Cd10_2 N3_2 1_555 1_555
Cd11 O11_2 1_555 1_555
O17 Cd1 1_555 1_555
O21 Cd1 1_555 1_555
N9_2 Cd1 1_555 1_555
N11_2 Cd2_2 1_555 1_555
O5_3 C65_3 1_555 1_555
O7_3 C69_3 1_555 1_555
C4_3 C5_3 1_555 1_555
C13_3 C14_3 1_555 1_555
C16_3 C21_3 1_555 1_555
C20_3 C21_3 1_555 1_555
C27_3 C28_3 1_555 1_555
C32_3 C33_3 1_555 1_555
C41_3 C42_3 1_555 1_555
C44_3 C49_3 1_555 1_555
C48_3 C49_3 1_555 1_555
C55_3 C56_3 1_555 1_555
C79_3 C80_3 1_555 1_555
O17 C64_3 1_555 1_555
O21 C64_3 1_555 1_555
H34_3 C60_3 1_555 1_555
C61_3 C60_3 1_555 1_555
C62_3 C61_3 1_555 1_555
H35_3 C62_3 1_555 1_555
C64_3 C61_3 1_555 1_555
O15 C144_3 1_555 1_555
O16 C144_3 1_555 1_555
H78_3 C140_3 1_555 1_555
C141_3 C140_3 1_555 1_555
C142_3 C141_3 1_555 1_555
H79_3 C142_3 1_555 1_555
C144_3 C141_3 1_555 1_555
Cd7 O15 1_555 1_555
O16 Cd7 1_555 1_555
H38_3 C68_3 1_555 1_555
O9_3 C73_3 1_555 1_555
O10_3 C73_3 1_555 1_555
C73_3 C74_3 1_555 1_555
C74_3 C75_3 1_555 1_555
C75_3 C68_3 1_555 1_555
H41_3 C75_3 1_555 1_555
Cd7 O10_3 1_555 1_555
Cd4_2 O9_3 1_555 1_555
O13_3 Cd4_2 1_555 1_555
O14_3 Cd4_2 1_555 1_555
N5_3 Cd7 1_555 1_555
N6_2 C106_3 1_555 1_555
N7_2 C134_3 1_555 1_555
N8_3 Cd4_2 1_555 1_555
C81_3 N5_3 1_555 1_555
H45_3 C81_3 1_555 1_555
C82_3 C81_3 1_555 1_555
H46_3 C82_3 1_555 1_555
C83_3 C82_3 1_555 1_555
C84_3 C83_3 1_555 1_555
H47_3 C84_3 1_555 1_555
C85_3 N5_3 1_555 1_555
H48_3 C85_3 1_555 1_555
C86_3 C83_3 1_555 1_555
C87_3 C86_3 1_555 1_555
C88_3 C87_3 1_555 1_555
C89_3 C88_3 1_555 1_555
C90_3 C89_3 1_555 1_555
H49_3 C90_3 1_555 1_555
C91_3 C90_3 1_555 1_555
H50_3 C91_3 1_555 1_555
C92_3 C91_3 1_555 1_555
H51_3 C92_3 1_555 1_555
C93_3 C92_3 1_555 1_555
H52_3 C93_3 1_555 1_555
C94_3 C89_3 1_555 1_555
C95_3 C94_3 1_555 1_555
C96_3 C95_3 1_555 1_555
C97_3 C96_3 1_555 1_555
H53_3 C97_3 1_555 1_555
C98_3 C97_3 1_555 1_555
H54_3 C98_3 1_555 1_555
C99_3 C98_3 1_555 1_555
H55_3 C99_3 1_555 1_555
C100_3 C99_3 1_555 1_555
H56_3 C100_3 1_555 1_555
C101_3 C88_3 1_555 1_555
C102_3 C95_3 1_555 1_555
C103_3 C102_3 1_555 1_555
C104_3 C103_3 1_555 1_555
C105_3 C104_3 1_555 1_555
H57_3 C105_3 1_555 1_555
C106_3 C105_3 1_555 1_555
H58_3 C106_3 1_555 1_555
C107_3 C104_3 1_555 1_555
H59_3 C107_3 1_555 1_555
C108_3 N6_2 1_555 1_555
H60_3 C108_3 1_555 1_555
C109_3 N8_3 1_555 1_555
H61_3 C109_3 1_555 1_555
C110_3 C109_3 1_555 1_555
H62_3 C110_3 1_555 1_555
C111_3 C110_3 1_555 1_555
C112_3 C111_3 1_555 1_555
H63_3 C112_3 1_555 1_555
C113_3 N8_3 1_555 1_555
H64_3 C113_3 1_555 1_555
C114_3 C111_3 1_555 1_555
C115_3 C114_3 1_555 1_555
C116_3 C115_3 1_555 1_555
C117_3 C116_3 1_555 1_555
C118_3 C117_3 1_555 1_555
H65_3 C118_3 1_555 1_555
C119_3 C118_3 1_555 1_555
H66_3 C119_3 1_555 1_555
C120_3 C119_3 1_555 1_555
H67_3 C120_3 1_555 1_555
C121_3 C120_3 1_555 1_555
H68_3 C121_3 1_555 1_555
C122_3 C117_3 1_555 1_555
C123_3 C122_3 1_555 1_555
C124_3 C123_3 1_555 1_555
C125_3 C124_3 1_555 1_555
H69_3 C125_3 1_555 1_555
C126_3 C125_3 1_555 1_555
H70_3 C126_3 1_555 1_555
C127_3 C126_3 1_555 1_555
H71_3 C127_3 1_555 1_555
C128_3 C127_3 1_555 1_555
H72_3 C128_3 1_555 1_555
C129_3 C116_3 1_555 1_555
C130_3 C123_3 1_555 1_555
C131_3 C130_3 1_555 1_555
C132_3 C131_3 1_555 1_555
C133_3 C132_3 1_555 1_555
H73_3 C133_3 1_555 1_555
C134_3 C133_3 1_555 1_555
H74_3 C134_3 1_555 1_555
C135_3 C132_3 1_555 1_555
H75_3 C135_3 1_555 1_555
C136_3 N7_2 1_555 1_555
H76_3 C136_3 1_555 1_555
C137_3 O13_3 1_555 1_555
C138_3 C137_3 1_555 1_555
C139_3 C138_3 1_555 1_555
H77_3 C139_3 1_555 1_555
C143_3 C138_3 1_555 1_555
H80_3 C143_3 1_555 1_555
Cd8 N6_2 1_555 1_555
Cd11 N7_2 1_555 1_555
O19_2 Cd4_2 1_555 1_555
O20_2 Cd7 1_555 1_555
N10_2 Cd7 1_555 1_555
N12_2 Cd4_2 1_555 1_555
O10_3 Cd4_2 1_555 1_555
O14_3 C137_3 1_555 1_555
C84_3 C85_3 1_555 1_555
C93_3 C94_3 1_555 1_555
C96_3 C101_3 1_555 1_555
C100_3 C101_3 1_555 1_555
C107_3 C108_3 1_555 1_555
C112_3 C113_3 1_555 1_555
C121_3 C122_3 1_555 1_555
C124_3 C129_3 1_555 1_555
C128_3 C129_3 1_555 1_555
C135_3 C136_3 1_555 1_555
N9_2 C26_4 1_555 1_555
N11_2 C54_4 1_555 1_555
H14_4 C26_4 1_555 1_555
H15_4 C27_4 1_555 1_555
C28_4 N9_2 1_555 1_555
H16_4 C28_4 1_555 1_555
C53_4 C52_4 1_555 1_555
H29_4 C53_4 1_555 1_555
C54_4 C53_4 1_555 1_555
H30_4 C54_4 1_555 1_555
C56_4 N11_2 1_555 1_555
H32_4 C56_4 1_555 1_555
C27_4 C28_4 1_555 1_555
Cd6_2 O5_4 1_555 1_555
Cd10_2 O1_4 1_555 1_555
O1_4 C57_4 1_555 1_555
O2_4 Cd10_2 1_555 1_555
O4_4 Cd10_2 1_555 1_555
O5_4 Cd10_2 1_555 1_555
O6_4 Cd10_2 1_555 1_555
O7_4 Cd6_2 1_555 1_555
N1_4 Cd6_2 1_555 1_555
N4_4 Cd10_2 1_555 1_555
C1_4 N1_4 1_555 1_555
H1_4 C1_4 1_555 1_555
H3_4 C4_4 1_555 1_555
C5_4 N1_4 1_555 1_555
H4_4 C5_4 1_555 1_555
C29_4 N4_4 1_555 1_555
H17_4 C29_4 1_555 1_555
C30_4 C29_4 1_555 1_555
H18_4 C30_4 1_555 1_555
C33_4 N4_4 1_555 1_555
H20_4 C33_4 1_555 1_555
C57_4 O2_4 1_555 1_555
C58_4 C57_4 1_555 1_555
C59_4 C58_4 1_555 1_555
H33_4 C59_4 1_555 1_555
C63_4 C58_4 1_555 1_555
H36_4 C63_4 1_555 1_555
C65_4 O4_4 1_555 1_555
C66_4 C65_4 1_555 1_555
C67_4 C66_4 1_555 1_555
H37_4 C67_4 1_555 1_555
C68_4 C66_4 1_555 1_555
H38_4 C68_4 1_555 1_555
C69_4 O6_4 1_555 1_555
C70_4 C69_4 1_555 1_555
C71_4 C70_4 1_555 1_555
H39_4 C71_4 1_555 1_555
C72_4 C71_4 1_555 1_555
H40_4 C72_4 1_555 1_555
O19_2 C77_4 1_555 1_555
O20_2 C77_4 1_555 1_555
C77_4 C78_4 1_555 1_555
C78_4 C72_4 1_555 1_555
C79_4 C78_4 1_555 1_555
H43_4 C79_4 1_555 1_555
C80_4 C70_4 1_555 1_555
H44_4 C80_4 1_555 1_555
H46_4 C82_4 1_555 1_555
C83_4 C82_4 1_555 1_555
C86_4 C83_4 1_555 1_555
C87_4 C86_4 1_555 1_555
C88_4 C87_4 1_555 1_555
C89_4 C88_4 1_555 1_555
C90_4 C89_4 1_555 1_555
H49_4 C90_4 1_555 1_555
C91_4 C90_4 1_555 1_555
H50_4 C91_4 1_555 1_555
C92_4 C91_4 1_555 1_555
H51_4 C92_4 1_555 1_555
C93_4 C92_4 1_555 1_555
H52_4 C93_4 1_555 1_555
C94_4 C89_4 1_555 1_555
C95_4 C94_4 1_555 1_555
C96_4 C95_4 1_555 1_555
C97_4 C96_4 1_555 1_555
H53_4 C97_4 1_555 1_555
C98_4 C97_4 1_555 1_555
C99_4 C98_4 1_555 1_555
H55_4 C99_4 1_555 1_555
C100_4 C99_4 1_555 1_555
H56_4 C100_4 1_555 1_555
C101_4 C88_4 1_555 1_555
C102_4 C95_4 1_555 1_555
C103_4 C102_4 1_555 1_555
C104_4 C103_4 1_555 1_555
C105_4 C104_4 1_555 1_555
H57_4 C105_4 1_555 1_555
C112_4 C111_4 1_555 1_555
H63_4 C112_4 1_555 1_555
C114_4 C111_4 1_555 1_555
C115_4 C114_4 1_555 1_555
C116_4 C115_4 1_555 1_555
C117_4 C116_4 1_555 1_555
C118_4 C117_4 1_555 1_555
H65_4 C118_4 1_555 1_555
C119_4 C118_4 1_555 1_555
H66_4 C119_4 1_555 1_555
C120_4 C119_4 1_555 1_555
C121_4 C120_4 1_555 1_555
H68_4 C121_4 1_555 1_555
C122_4 C117_4 1_555 1_555
C123_4 C122_4 1_555 1_555
C124_4 C123_4 1_555 1_555
C125_4 C124_4 1_555 1_555
H69_4 C125_4 1_555 1_555
C126_4 C125_4 1_555 1_555
H70_4 C126_4 1_555 1_555
C127_4 C126_4 1_555 1_555
H71_4 C127_4 1_555 1_555
C128_4 C127_4 1_555 1_555
H72_4 C128_4 1_555 1_555
C129_4 C116_4 1_555 1_555
C130_4 C123_4 1_555 1_555
C131_4 C130_4 1_555 1_555
H75_4 C135_4 1_555 1_555
O17_2 Cd6_2 1_555 1_555
O21_2 Cd6_2 1_555 1_555
O5_4 C65_4 1_555 1_555
O7_4 C69_4 1_555 1_555
C4_4 C5_4 1_555 1_555
C79_4 C80_4 1_555 1_555
C93_4 C94_4 1_555 1_555
C96_4 C101_4 1_555 1_555
C100_4 C101_4 1_555 1_555
C121_4 C122_4 1_555 1_555
C124_4 C129_4 1_555 1_555
C128_4 C129_4 1_555 1_555
O17_2 C64_4 1_555 1_555
O21_2 C64_4 1_555 1_555
H34_4 C60_4 1_555 1_555
C61_4 C60_4 1_555 1_555
C62_4 C61_4 1_555 1_555
H35_4 C62_4 1_555 1_555
C64_4 C61_4 1_555 1_555
O15_2 C144_4 1_555 1_555
O16_2 C144_4 1_555 1_555
H78_4 C140_4 1_555 1_555
C141_4 C140_4 1_555 1_555
C142_4 C141_4 1_555 1_555
H79_4 C142_4 1_555 1_555
C144_4 C141_4 1_555 1_555
Cd8 O15_2 1_555 1_555
O16_2 Cd8 1_555 1_555
H2_4 C2_4 1_555 1_555
C3_4 C2_4 1_555 1_555
C6_4 C3_4 1_555 1_555
C7_4 C6_4 1_555 1_555
C8_4 C7_4 1_555 1_555
C9_4 C8_4 1_555 1_555
C10_4 C9_4 1_555 1_555
H5_4 C10_4 1_555 1_555
C11_4 C10_4 1_555 1_555
H6_4 C11_4 1_555 1_555
C12_4 C11_4 1_555 1_555
H7_4 C12_4 1_555 1_555
C13_4 C12_4 1_555 1_555
H8_4 C13_4 1_555 1_555
C14_4 C9_4 1_555 1_555
C15_4 C14_4 1_555 1_555
C16_4 C15_4 1_555 1_555
C17_4 C16_4 1_555 1_555
H9_4 C17_4 1_555 1_555
C18_4 C17_4 1_555 1_555
C19_4 C18_4 1_555 1_555
H11_4 C19_4 1_555 1_555
C20_4 C19_4 1_555 1_555
H12_4 C20_4 1_555 1_555
C21_4 C8_4 1_555 1_555
C22_4 C15_4 1_555 1_555
C23_4 C22_4 1_555 1_555
C24_4 C23_4 1_555 1_555
C25_4 C24_4 1_555 1_555
H13_4 C25_4 1_555 1_555
C32_4 C31_4 1_555 1_555
H19_4 C32_4 1_555 1_555
C34_4 C31_4 1_555 1_555
C35_4 C34_4 1_555 1_555
C36_4 C35_4 1_555 1_555
C37_4 C36_4 1_555 1_555
C38_4 C37_4 1_555 1_555
H21_4 C38_4 1_555 1_555
C39_4 C38_4 1_555 1_555
H22_4 C39_4 1_555 1_555
C40_4 C39_4 1_555 1_555
C41_4 C40_4 1_555 1_555
H24_4 C41_4 1_555 1_555
C42_4 C37_4 1_555 1_555
C43_4 C42_4 1_555 1_555
C44_4 C43_4 1_555 1_555
C45_4 C44_4 1_555 1_555
H25_4 C45_4 1_555 1_555
C46_4 C45_4 1_555 1_555
H26_4 C46_4 1_555 1_555
C47_4 C46_4 1_555 1_555
H27_4 C47_4 1_555 1_555
C48_4 C47_4 1_555 1_555
H28_4 C48_4 1_555 1_555
C49_4 C36_4 1_555 1_555
C50_4 C43_4 1_555 1_555
C51_4 C50_4 1_555 1_555
H31_4 C55_4 1_555 1_555
O9_4 C73_4 1_555 1_555
O10_4 C73_4 1_555 1_555
C73_4 C74_4 1_555 1_555
C74_4 C75_4 1_555 1_555
H41_4 C75_4 1_555 1_555
H42_4 C76_4 1_555 1_555
Cd8 O10_4 1_555 1_555
Cd11 O9_4 1_555 1_555
O13_4 Cd11 1_555 1_555
O14_4 Cd11 1_555 1_555
N5_4 Cd8 1_555 1_555
N8_4 Cd11 1_555 1_555
C81_4 N5_4 1_555 1_555
H45_4 C81_4 1_555 1_555
H47_4 C84_4 1_555 1_555
C85_4 N5_4 1_555 1_555
H48_4 C85_4 1_555 1_555
C109_4 N8_4 1_555 1_555
H61_4 C109_4 1_555 1_555
C110_4 C109_4 1_555 1_555
H62_4 C110_4 1_555 1_555
C113_4 N8_4 1_555 1_555
H64_4 C113_4 1_555 1_555
C137_4 O13_4 1_555 1_555
C138_4 C137_4 1_555 1_555
C139_4 C138_4 1_555 1_555
H77_4 C139_4 1_555 1_555
C143_4 C138_4 1_555 1_555
H80_4 C143_4 1_555 1_555
C13_4 C14_4 1_555 1_555
C16_4 C21_4 1_555 1_555
C20_4 C21_4 1_555 1_555
C41_4 C42_4 1_555 1_555
C44_4 C49_4 1_555 1_555
C48_4 C49_4 1_555 1_555
O10_4 Cd11 1_555 1_555
C74_4 C76_4 1_555 1_555
O14_4 C137_4 1_555 1_555
C84_4 C85_4 1_555 1_555
N10_2 C106_4 1_555 1_555
N12_2 C134_4 1_555 1_555
H58_4 C106_4 1_555 1_555
H59_4 C107_4 1_555 1_555
C108_4 N10_2 1_555 1_555
H60_4 C108_4 1_555 1_555
C133_4 C132_4 1_555 1_555
H73_4 C133_4 1_555 1_555
C134_4 C133_4 1_555 1_555
H74_4 C134_4 1_555 1_555
C136_4 N12_2 1_555 1_555
H76_4 C136_4 1_555 1_555
C107_4 C108_4 1_555 1_555

#END
