
###############################################################################
#
# This file contains modified crystal structure data generated from the
# MOF subset of the Cambridge Structural Database (CSD) v543 
# hosted by the Cambridge Crystallographic Data Centre (CCDC).
#
# This work is licensed under the Creative Commons
# Attribution-NonCommercial-ShareAlike 4.0 International License.
# To view a copy of this license, visit
# http://creativecommons.org/licenses/by-nc-sa/4.0/
# or send a letter to
# Creative Commons, PO Box 1866, Mountain View, CA 94042, USA.
#
# CIF created using the CSD Python API on 29 September 2022
# The structure has been converted into the P1 space group
# The structure has a 3D framework
# The original CSD entry YAYQOH is in the monoclinic crystal system
# The framework has been calculated to contain at least 10.0% void space
# The void calculation uses a probe of radius 1.32A, grid spacing 0.4
# H atom positions have been added when not included in the experimental data
#
###############################################################################

data_YAYQOH
_chemical_formula_moiety         '(C296 H296 Cd16 N24 O88)n'
_symmetry_cell_setting           triclinic
_symmetry_space_group_name_H-M   'P 1'
_symmetry_Int_Tables_number      1
_space_group_name_Hall           'P 1'
loop_
_symmetry_equiv_pos_site_id
_symmetry_equiv_pos_as_xyz
1 x,y,z
_cell_length_a                   32.730(3)
_cell_length_b                   9.2717(9)
_cell_length_c                   29.896(3)
_cell_angle_alpha                90
_cell_angle_beta                 113.742(2)
_cell_angle_gamma                90
_cell_volume                     8304.51
loop_
_atom_site_label
_atom_site_type_symbol
_atom_site_fract_x
_atom_site_fract_y
_atom_site_fract_z
Cd3 Cd 0.38736(2) 0.02871(5) 0.83210(2)
Cd2 Cd 0.40895(2) 0.43147(4) 0.85451(2)
O1 O 0.39584(13) 0.2273(5) 0.79060(13)
O2 O 0.36030(16) 0.4355(5) 0.77476(15)
O7 O 0.40044(16) 0.6747(5) 0.85622(19)
O8 O 0.3692(4) 0.8638(6) 0.8748(3)
O9 O 0.31327(18) 0.0568(7) 0.7855(2)
O10 O 0.4619(2) 0.0104(8) 0.8800(3)
N1 N 0.2428(2) 0.1433(7) 0.7564(2)
C1 C 0.26115(17) 0.1215(6) 0.56385(17)
C2 C 0.28327(17) 0.0575(6) 0.53766(19)
H1 H 0.3150 0.0542 0.5516
C4 C 0.21382(17) 0.0071(6) 0.47078(17)
C5 C 0.19066(16) 0.0736(6) 0.49592(16)
C6 C 0.21489(16) 0.1295(6) 0.54258(17)
H3 H 0.1995 0.1736 0.5600
C7 C 0.28793(17) 0.1736(6) 0.61440(18)
C8 C 0.3240(2) 0.0937(7) 0.6450(2)
H4 H 0.3314 0.0063 0.6334
C9 C 0.3498(2) 0.1385(7) 0.6923(2)
H5 H 0.3746 0.0824 0.7125
C10 C 0.33919(18) 0.2652(6) 0.70997(18)
C11 C 0.3033(2) 0.3459(6) 0.6800(2)
H6 H 0.2963 0.4336 0.6917
C12 C 0.27710(19) 0.3004(6) 0.63246(19)
H7 H 0.2519 0.3556 0.6124
C13 C 0.36676(18) 0.3120(7) 0.76145(18)
H8 H 0.3342 0.0783 0.4826
C21 C 0.14107(17) 0.0802(6) 0.47278(18)
C22 C 0.11575(17) 0.0546(6) 0.50014(18)
H12 H 0.1304 0.0376 0.5343
C23 C 0.06952(18) 0.0540(6) 0.47793(19)
H13 H 0.0527 0.0386 0.4970
C24 C 0.04761(17) 0.0757(6) 0.42765(19)
C25 C 0.07259(19) 0.1046(8) 0.4007(2)
H14 H 0.0578 0.1228 0.3667
C26 C 0.11853(19) 0.1073(8) 0.42247(19)
H15 H 0.1351 0.1277 0.4034
C28 C 0.3772(4) 0.7338(8) 0.8756(3)
C29 C 0.2834(3) 0.1219(7) 0.7908(3)
H16 H 0.2896 0.1611 0.8223
C30 C 0.2084(4) 0.2163(11) 0.7673(5)
H17 H 0.1809 0.2220 0.7376
H18 H 0.2028 0.1621 0.7924
H19 H 0.2185 0.3138 0.7793
C31 C 0.2310(4) 0.0897(19) 0.7077(3)
H20 H 0.1999 0.1153 0.6874
H21 H 0.2507 0.1327 0.6939
C34 C 0.5424(5) 0.0553(14) 0.9587(8)
H27 H 0.5699 0.0444 0.9883
H28 H 0.5501 0.0757 0.9308
H29 H 0.5248 0.1352 0.9630
O12 O 0.38917(12) 0.2105(4) 0.88686(13)
O13 O 0.35293(14) 0.4123(4) 0.88413(14)
O14 O 0.47490(13) 0.4412(5) 0.92739(15)
O15 O 0.48005(14) 0.4299(6) 0.85625(15)
H36 H 0.362824 0.664188 0.894822
O3 O 0.38917(12) 0.7895(4) 0.38686(13)
O4 O 0.35293(14) 0.5877(4) 0.38413(14)
O11 O 0.3925(3) 0.8788(6) 0.7752(3)
N2 N 0.5163(3) 0.9215(9) 0.9495(4)
N3 N 0.4079(5) 0.6968(12) 0.7323(4)
C3 C 0.26001(17) 0.9986(6) 0.49163(17)
H2 H 0.1976 0.9676 0.4392
C14 C 0.28457(16) 0.9273(5) 0.46552(17)
C15 C 0.32394(17) 0.9896(6) 0.46598(18)
C16 C 0.34803(18) 0.9241(6) 0.44268(19)
H9 H 0.3743 0.9684 0.4429
C17 C 0.33338(17) 0.7924(5) 0.41878(16)
C18 C 0.29439(17) 0.7288(6) 0.41871(19)
H10 H 0.2849 0.6378 0.4034
C19 C 0.26991(17) 0.7971(6) 0.44059(17)
H11 H 0.2428 0.7554 0.4387
C20 C 0.35986(16) 0.7183(6) 0.39479(16)
H22 H 0.2343 0.9846 0.7087
C32 C 0.4779(3) 0.9086(12) 0.9118(4)
H23 H 0.4614 0.8217 0.9077
C33 C 0.5347(4) 0.8081(12) 0.9854(5)
H26 H 0.5391 0.7210 0.9693
C35 C 0.4111(4) 0.7734(15) 0.7710(4)
C36 C 0.4350(6) 0.5698(17) 0.7352(7)
H30 H 0.4271 0.5305 0.7023
H31 H 0.4666 0.5964 0.7494
H32 H 0.4294 0.4968 0.7558
C37 C 0.3784(10) 0.7056(18) 0.6730(7)
H33 H 0.3866 0.6253 0.6569
H34 H 0.3466 0.6994 0.6663
H35 H 0.3844 0.7972 0.6605
Cd4 Cd 0.38736(2) 0.97129(5) 0.33210(2)
Cd5 Cd 0.40895(2) 0.56853(4) 0.35451(2)
H37 H 0.435437 0.731508 0.805461
O5 O 0.97490(13) 0.0588(5) 0.42739(15)
O6 O 0.98005(14) 0.0701(6) 0.35625(15)
C27 C 0.99734(18) 0.0681(6) 0.40275(19)
Cd6 Cd 0.90895(2) 0.06853(4) 0.35451(2)
O7_2 O 0.90044(16) 0.1747(5) 0.85622(19)
O8_2 O 0.8692(4) 0.3638(6) 0.8748(3)
C28_2 C 0.8772(4) 0.2338(8) 0.8756(3)
Cd3_2 Cd 0.88736(2) 0.52871(5) 0.83210(2)
H36_2 H 0.862824 0.164188 0.894822
Cd2_2 Cd 0.90895(2) 0.93147(4) 0.85451(2)
O1_2 O 0.89584(13) 0.7273(5) 0.79060(13)
O2_2 O 0.86030(16) 0.9355(5) 0.77476(15)
O3_2 O 0.88917(12) 0.2895(4) 0.38686(13)
O4_2 O 0.85293(14) 0.0877(4) 0.38413(14)
O5_2 O 0.47490(13) 0.5588(5) 0.42739(15)
O6_2 O 0.48005(14) 0.5701(6) 0.35625(15)
O9_2 O 0.81327(18) 0.5568(7) 0.7855(2)
O10_2 O 0.9619(2) 0.5104(8) 0.8800(3)
O11_2 O 0.8925(3) 0.3788(6) 0.7752(3)
N1_2 N 0.7428(2) 0.6433(7) 0.7564(2)
N3_2 N 0.9079(5) 0.1968(12) 0.7323(4)
C1_2 C 0.76115(17) 0.6215(6) 0.56385(17)
C2_2 C 0.78327(17) 0.5575(6) 0.53766(19)
H1_2 H 0.8150 0.5542 0.5516
C3_2 C 0.76001(17) 0.4986(6) 0.49163(17)
C4_2 C 0.71382(17) 0.5071(6) 0.47078(17)
H2_2 H 0.6976 0.4676 0.4392
C5_2 C 0.69066(16) 0.5736(6) 0.49592(16)
C6_2 C 0.71489(16) 0.6295(6) 0.54258(17)
H3_2 H 0.6995 0.6736 0.5600
C7_2 C 0.78793(17) 0.6736(6) 0.61440(18)
C8_2 C 0.8240(2) 0.5937(7) 0.6450(2)
H4_2 H 0.8314 0.5063 0.6334
C9_2 C 0.8498(2) 0.6385(7) 0.6923(2)
H5_2 H 0.8746 0.5824 0.7125
C10_2 C 0.83919(18) 0.7652(6) 0.70997(18)
C11_2 C 0.8033(2) 0.8459(6) 0.6800(2)
H6_2 H 0.7963 0.9336 0.6917
C12_2 C 0.77710(19) 0.8004(6) 0.63246(19)
H7_2 H 0.7519 0.8556 0.6124
C13_2 C 0.86676(18) 0.8120(7) 0.76145(18)
C14_2 C 0.78457(16) 0.4273(5) 0.46552(17)
C15_2 C 0.82394(17) 0.4896(6) 0.46598(18)
H8_2 H 0.8342 0.5783 0.4826
C16_2 C 0.84803(18) 0.4241(6) 0.44268(19)
H9_2 H 0.8743 0.4684 0.4429
C17_2 C 0.83338(17) 0.2924(5) 0.41878(16)
C18_2 C 0.79439(17) 0.2288(6) 0.41871(19)
H10_2 H 0.7849 0.1378 0.4034
C19_2 C 0.76991(17) 0.2971(6) 0.44059(17)
H11_2 H 0.7428 0.2554 0.4387
C20_2 C 0.85986(16) 0.2183(6) 0.39479(16)
C21_2 C 0.64107(17) 0.5802(6) 0.47278(18)
C22_2 C 0.61575(17) 0.5546(6) 0.50014(18)
H12_2 H 0.6304 0.5376 0.5343
C23_2 C 0.56952(18) 0.5540(6) 0.47793(19)
H13_2 H 0.5527 0.5386 0.4970
C24_2 C 0.54761(17) 0.5757(6) 0.42765(19)
C25_2 C 0.57259(19) 0.6046(8) 0.4007(2)
H14_2 H 0.5578 0.6228 0.3667
C26_2 C 0.61853(19) 0.6073(8) 0.42247(19)
H15_2 H 0.6351 0.6277 0.4034
C27_2 C 0.49734(18) 0.5681(6) 0.40275(19)
C29_2 C 0.7834(3) 0.6219(7) 0.7908(3)
H16_2 H 0.7896 0.6611 0.8223
C30_2 C 0.7084(4) 0.7163(11) 0.7673(5)
H17_2 H 0.6809 0.7220 0.7376
H18_2 H 0.7028 0.6621 0.7924
H19_2 H 0.7185 0.8138 0.7793
C31_2 C 0.7310(4) 0.5897(19) 0.7077(3)
H20_2 H 0.6999 0.6153 0.6874
H21_2 H 0.7507 0.6327 0.6939
H22_2 H 0.7343 0.4846 0.7087
C32_2 C 0.9779(3) 0.4086(12) 0.9118(4)
H23_2 H 0.9614 0.3217 0.9077
C35_2 C 0.9111(4) 0.2734(15) 0.7710(4)
C36_2 C 0.9350(6) 0.0698(17) 0.7352(7)
H30_2 H 0.9271 0.0305 0.7023
H31_2 H 0.9666 0.0964 0.7494
C37_2 C 0.8784(10) 0.2056(18) 0.6730(7)
H33_2 H 0.8866 0.1253 0.6569
H34_2 H 0.8466 0.1994 0.6663
H35_2 H 0.8844 0.2972 0.6605
Cd4_2 Cd 0.88736(2) 0.47129(5) 0.33210(2)
O12_2 O 0.88917(12) 0.7105(4) 0.88686(13)
O13_2 O 0.85293(14) 0.9123(4) 0.88413(14)
O14_2 O 0.97490(13) 0.9412(5) 0.92739(15)
O15_2 O 0.98005(14) 0.9299(6) 0.85625(15)
H37_2 H 0.935437 0.231508 0.805461
O11_3 O 0.3925(3) 0.1212(6) 0.2752(3)
N2_2 N 0.5163(3) 0.0785(9) 0.4495(4)
N3_3 N 0.4079(5) 0.3032(12) 0.2323(4)
H22_3 H 0.2343 0.0154 0.2087
C32_3 C 0.4779(3) 0.0914(12) 0.4118(4)
H23_3 H 0.4614 0.1783 0.4077
C33_2 C 0.5347(4) 0.1919(12) 0.4854(5)
H24 H 0.5634 0.1605 0.5104
H25 H 0.5140 0.2130 0.5008
H26_2 H 0.5391 0.2790 0.4693
C35_3 C 0.4111(4) 0.2266(15) 0.2710(4)
C36_3 C 0.4350(6) 0.4302(17) 0.2352(7)
H30_3 H 0.4271 0.4695 0.2023
H31_3 H 0.4666 0.4036 0.2494
H32_2 H 0.4294 0.5032 0.2558
C37_3 C 0.3784(10) 0.2944(18) 0.1730(7)
H33_3 H 0.3866 0.3747 0.1569
H34_3 H 0.3466 0.3006 0.1663
H35_3 H 0.3844 0.2028 0.1605
O16 O 0.3692(4) 0.1362(6) 0.3748(3)
H37_3 H 0.435437 0.268492 0.305461
C3_3 C 0.26001(17) 0.0014(6) 0.99163(17)
H2_3 H 0.1976 0.0324 0.9392
C14_3 C 0.28457(16) 0.0727(5) 0.96552(17)
C15_3 C 0.32394(17) 0.0104(6) 0.96598(18)
C16_3 C 0.34803(18) 0.0759(6) 0.94268(19)
H9_3 H 0.3743 0.0316 0.9429
C17_3 C 0.33338(17) 0.2076(5) 0.91878(16)
C18_3 C 0.29439(17) 0.2712(6) 0.91871(19)
H10_3 H 0.2849 0.3622 0.9034
C19_3 C 0.26991(17) 0.2029(6) 0.94059(17)
H11_3 H 0.2428 0.2446 0.9387
C20_3 C 0.35986(16) 0.2817(6) 0.89479(16)
O1_3 O 0.39584(13) 0.7727(5) 0.29060(13)
O2_3 O 0.36030(16) 0.5645(5) 0.27476(15)
O7_3 O 0.40044(16) 0.3253(5) 0.35622(19)
O9_3 O 0.31327(18) 0.9432(7) 0.2855(2)
O10_3 O 0.4619(2) 0.9896(8) 0.3800(3)
N1_3 N 0.2428(2) 0.8567(7) 0.2564(2)
C1_3 C 0.26115(17) 0.8785(6) 0.06385(17)
C2_3 C 0.28327(17) 0.9425(6) 0.03766(19)
H1_3 H 0.3150 0.9458 0.0516
C6_3 C 0.21489(16) 0.8705(6) 0.04258(17)
H3_3 H 0.1995 0.8264 0.0600
C7_3 C 0.28793(17) 0.8264(6) 0.11440(18)
C8_3 C 0.3240(2) 0.9063(7) 0.1450(2)
H4_3 H 0.3314 0.9937 0.1334
C9_3 C 0.3498(2) 0.8615(7) 0.1923(2)
H5_3 H 0.3746 0.9176 0.2125
C10_3 C 0.33919(18) 0.7348(6) 0.20997(18)
C11_3 C 0.3033(2) 0.6541(6) 0.1800(2)
H6_3 H 0.2963 0.5664 0.1917
C12_3 C 0.27710(19) 0.6996(6) 0.13246(19)
H7_3 H 0.2519 0.6444 0.1124
C13_3 C 0.36676(18) 0.6880(7) 0.26145(18)
C22_3 C 0.11575(17) 0.9454(6) 0.00014(18)
H12_3 H 0.1304 0.9624 0.0343
C28_3 C 0.3772(4) 0.2662(8) 0.3756(3)
C29_3 C 0.2834(3) 0.8781(7) 0.2908(3)
H16_3 H 0.2896 0.8389 0.3223
C30_3 C 0.2084(4) 0.7837(11) 0.2673(5)
H17_3 H 0.1809 0.7780 0.2376
H18_3 H 0.2028 0.8379 0.2924
H19_3 H 0.2185 0.6862 0.2793
C31_3 C 0.2310(4) 0.9103(19) 0.2077(3)
H20_3 H 0.1999 0.8847 0.1874
H21_3 H 0.2507 0.8673 0.1939
C34_2 C 0.5424(5) 0.9447(14) 0.4587(8)
H27_2 H 0.5699 0.9556 0.4883
H28_2 H 0.5501 0.9243 0.4308
H29_2 H 0.5248 0.8648 0.4630
H36_3 H 0.362824 0.335812 0.394822
C27_3 C 0.99734(18) 0.9319(6) 0.90275(19)
O1_4 O 0.89584(13) 0.2727(5) 0.29060(13)
O2_4 O 0.86030(16) 0.0645(5) 0.27476(15)
O9_4 O 0.81327(18) 0.4432(7) 0.2855(2)
O10_4 O 0.9619(2) 0.4896(8) 0.3800(3)
O11_4 O 0.8925(3) 0.6212(6) 0.2752(3)
N1_4 N 0.7428(2) 0.3567(7) 0.2564(2)
N3_4 N 0.9079(5) 0.8032(12) 0.2323(4)
C1_4 C 0.76115(17) 0.3785(6) 0.06385(17)
C2_4 C 0.78327(17) 0.4425(6) 0.03766(19)
H1_4 H 0.8150 0.4458 0.0516
C6_4 C 0.71489(16) 0.3705(6) 0.04258(17)
H3_4 H 0.6995 0.3264 0.0600
C7_4 C 0.78793(17) 0.3264(6) 0.11440(18)
C8_4 C 0.8240(2) 0.4063(7) 0.1450(2)
H4_4 H 0.8314 0.4937 0.1334
C9_4 C 0.8498(2) 0.3615(7) 0.1923(2)
H5_4 H 0.8746 0.4176 0.2125
C10_4 C 0.83919(18) 0.2348(6) 0.20997(18)
C11_4 C 0.8033(2) 0.1541(6) 0.1800(2)
H6_4 H 0.7963 0.0664 0.1917
C12_4 C 0.77710(19) 0.1996(6) 0.13246(19)
H7_4 H 0.7519 0.1444 0.1124
C13_4 C 0.86676(18) 0.1880(7) 0.26145(18)
C22_4 C 0.61575(17) 0.4454(6) 0.00014(18)
H12_4 H 0.6304 0.4624 0.0343
C29_4 C 0.7834(3) 0.3781(7) 0.2908(3)
H16_4 H 0.7896 0.3389 0.3223
C30_4 C 0.7084(4) 0.2837(11) 0.2673(5)
H17_4 H 0.6809 0.2780 0.2376
H18_4 H 0.7028 0.3379 0.2924
H19_4 H 0.7185 0.1862 0.2793
C31_4 C 0.7310(4) 0.4103(19) 0.2077(3)
H20_4 H 0.6999 0.3847 0.1874
H21_4 H 0.7507 0.3673 0.1939
H22_4 H 0.7343 0.5154 0.2087
C32_4 C 0.9779(3) 0.5914(12) 0.4118(4)
H23_4 H 0.9614 0.6783 0.4077
C35_4 C 0.9111(4) 0.7266(15) 0.2710(4)
C36_4 C 0.9350(6) 0.9302(17) 0.2352(7)
H30_4 H 0.9271 0.9695 0.2023
H31_4 H 0.9666 0.9036 0.2494
C37_4 C 0.8784(10) 0.7944(18) 0.1730(7)
H33_4 H 0.8866 0.8747 0.1569
H34_4 H 0.8466 0.8006 0.1663
H35_4 H 0.8844 0.7028 0.1605
O16_2 O 0.8692(4) 0.6362(6) 0.3748(3)
H37_4 H 0.935437 0.768492 0.305461
C3_4 C 0.76001(17) 0.5014(6) 0.99163(17)
C4_3 C 0.71382(17) 0.4929(6) 0.97078(17)
H2_4 H 0.6976 0.5324 0.9392
C5_3 C 0.69066(16) 0.4264(6) 0.99592(16)
C14_4 C 0.78457(16) 0.5727(5) 0.96552(17)
C15_4 C 0.82394(17) 0.5104(6) 0.96598(18)
H8_3 H 0.8342 0.4217 0.9826
C16_4 C 0.84803(18) 0.5759(6) 0.94268(19)
H9_4 H 0.8743 0.5316 0.9429
C17_4 C 0.83338(17) 0.7076(5) 0.91878(16)
C18_4 C 0.79439(17) 0.7712(6) 0.91871(19)
H10_4 H 0.7849 0.8622 0.9034
C19_4 C 0.76991(17) 0.7029(6) 0.94059(17)
H11_4 H 0.7428 0.7446 0.9387
C20_4 C 0.85986(16) 0.7817(6) 0.89479(16)
C21_3 C 0.64107(17) 0.4198(6) 0.97278(18)
C23_3 C 0.56952(18) 0.4460(6) 0.97793(19)
H13_3 H 0.5527 0.4614 0.9970
C24_3 C 0.54761(17) 0.4243(6) 0.92765(19)
C25_3 C 0.57259(19) 0.3954(8) 0.9007(2)
H14_3 H 0.5578 0.3772 0.8667
C26_3 C 0.61853(19) 0.3927(8) 0.92247(19)
H15_3 H 0.6351 0.3723 0.9034
C27_4 C 0.49734(18) 0.4319(6) 0.90275(19)
O7_4 O 0.90044(16) 0.8253(5) 0.35622(19)
C28_4 C 0.8772(4) 0.7662(8) 0.3756(3)
H36_4 H 0.862824 0.835812 0.394822
H24_2 H 0.5634 0.8395 0.0104
H25_2 H 0.5140 0.7870 0.0008
O5_3 O 0.02510(13) 0.0588(5) 0.07261(15)
O6_3 O 0.01995(14) 0.0701(6) 0.14375(15)
C27_5 C 0.00266(18) 0.0681(6) 0.09725(19)
Cd6_2 Cd 0.09105(2) 0.06853(4) 0.14549(2)
Cd3_3 Cd 0.61264(2) 0.02871(5) 0.66790(2)
Cd2_3 Cd 0.59105(2) 0.43147(4) 0.64549(2)
O1_5 O 0.60416(13) 0.2273(5) 0.70940(13)
O2_5 O 0.63970(16) 0.4355(5) 0.72524(15)
O7_5 O 0.59956(16) 0.6747(5) 0.64378(19)
O8_3 O 0.6308(4) 0.8638(6) 0.6252(3)
O9_5 O 0.68673(18) 0.0568(7) 0.7145(2)
O10_5 O 0.5381(2) 0.0104(8) 0.6200(3)
N1_5 N 0.7572(2) 0.1433(7) 0.7436(2)
C1_5 C 0.73885(17) 0.1215(6) 0.93615(17)
C2_5 C 0.71673(17) 0.0575(6) 0.96234(19)
H1_5 H 0.6850 0.0542 0.9484
C6_5 C 0.78511(16) 0.1295(6) 0.95742(17)
H3_5 H 0.8005 0.1736 0.9400
C7_5 C 0.71207(17) 0.1736(6) 0.88560(18)
C8_5 C 0.6760(2) 0.0937(7) 0.8550(2)
H4_5 H 0.6686 0.0063 0.8666
C9_5 C 0.6502(2) 0.1385(7) 0.8077(2)
H5_5 H 0.6254 0.0824 0.7875
C10_5 C 0.66081(18) 0.2652(6) 0.79003(18)
C11_5 C 0.6967(2) 0.3459(6) 0.8200(2)
H6_5 H 0.7037 0.4336 0.8083
C12_5 C 0.72290(19) 0.3004(6) 0.86754(19)
H7_5 H 0.7481 0.3556 0.8876
C13_5 C 0.63324(18) 0.3120(7) 0.73855(18)
C22_5 C 0.88425(17) 0.0546(6) 0.99986(18)
H12_5 H 0.8696 0.0376 0.9657
C28_5 C 0.6228(4) 0.7338(8) 0.6244(3)
C29_5 C 0.7166(3) 0.1219(7) 0.7092(3)
H16_5 H 0.7104 0.1611 0.6777
C30_5 C 0.7916(4) 0.2163(11) 0.7327(5)
H17_5 H 0.8191 0.2220 0.7624
H18_5 H 0.7972 0.1621 0.7076
H19_5 H 0.7815 0.3138 0.7207
C31_5 C 0.7690(4) 0.0897(19) 0.7923(3)
H20_5 H 0.8001 0.1153 0.8126
H21_5 H 0.7493 0.1327 0.8061
C34_3 C 0.4576(5) 0.0553(14) 0.5413(8)
H27_3 H 0.4301 0.0444 0.5117
H28_3 H 0.4499 0.0757 0.5692
H29_3 H 0.4752 0.1352 0.5370
O12_3 O 0.61083(12) 0.2105(4) 0.61314(13)
O13_3 O 0.64707(14) 0.4123(4) 0.61587(14)
O14_3 O 0.52510(13) 0.4412(5) 0.57261(15)
O15_3 O 0.51995(14) 0.4299(6) 0.64375(15)
H36_5 H 0.637176 0.664188 0.605178
O3_3 O 0.61083(12) 0.7895(4) 0.11314(13)
O4_3 O 0.64707(14) 0.5877(4) 0.11587(14)
C3_5 C 0.73999(17) 0.9986(6) 0.00837(17)
H2_5 H 0.8024 0.9676 0.0608
C14_5 C 0.71543(16) 0.9273(5) 0.03448(17)
C15_5 C 0.67606(17) 0.9896(6) 0.03402(18)
C16_5 C 0.65197(18) 0.9241(6) 0.05732(19)
H9_5 H 0.6257 0.9684 0.0571
C17_5 C 0.66662(17) 0.7924(5) 0.08122(16)
C18_5 C 0.70561(17) 0.7288(6) 0.08129(19)
H10_5 H 0.7151 0.6378 0.0966
C19_5 C 0.73009(17) 0.7971(6) 0.05941(17)
H11_5 H 0.7572 0.7554 0.0613
C20_5 C 0.64014(16) 0.7183(6) 0.10521(16)
Cd4_3 Cd 0.61264(2) 0.97129(5) 0.16790(2)
Cd5_2 Cd 0.59105(2) 0.56853(4) 0.14549(2)
O11_5 O 0.6075(3) 0.8788(6) 0.7248(3)
N2_3 N 0.4837(3) 0.9215(9) 0.5505(4)
N3_5 N 0.5921(5) 0.6968(12) 0.7677(4)
H22_5 H 0.7657 0.9846 0.7913
C32_5 C 0.5221(3) 0.9086(12) 0.5882(4)
H23_5 H 0.5386 0.8217 0.5923
C33_3 C 0.4653(4) 0.8081(12) 0.5146(5)
H24_3 H 0.4366 0.8395 0.4896
H25_3 H 0.4860 0.7870 0.4992
H26_3 H 0.4609 0.7210 0.5307
C35_5 C 0.5889(4) 0.7734(15) 0.7290(4)
C36_5 C 0.5650(6) 0.5698(17) 0.7648(7)
H30_5 H 0.5729 0.5305 0.7977
H31_5 H 0.5334 0.5964 0.7506
H32_3 H 0.5706 0.4968 0.7442
C37_5 C 0.6216(10) 0.7056(18) 0.8270(7)
H33_5 H 0.6134 0.6253 0.8431
H34_5 H 0.6534 0.6994 0.8337
H35_5 H 0.6156 0.7972 0.8395
H37_5 H 0.564563 0.731508 0.694539
O7_6 O 0.09956(16) 0.1747(5) 0.64378(19)
O8_4 O 0.1308(4) 0.3638(6) 0.6252(3)
C28_6 C 0.1228(4) 0.2338(8) 0.6244(3)
Cd3_4 Cd 0.11264(2) 0.52871(5) 0.66790(2)
H36_6 H 0.137176 0.164188 0.605178
O3_4 O 0.11083(12) 0.2895(4) 0.11314(13)
O4_4 O 0.14707(14) 0.0877(4) 0.11587(14)
O5_4 O 0.52510(13) 0.5588(5) 0.07261(15)
O6_4 O 0.51995(14) 0.5701(6) 0.14375(15)
C3_6 C 0.23999(17) 0.4986(6) 0.00837(17)
C4_4 C 0.28618(17) 0.5071(6) 0.02922(17)
H2_6 H 0.3024 0.4676 0.0608
C5_4 C 0.30934(16) 0.5736(6) 0.00408(16)
C14_6 C 0.21543(16) 0.4273(5) 0.03448(17)
C15_6 C 0.17606(17) 0.4896(6) 0.03402(18)
H8_4 H 0.1658 0.5783 0.0174
C16_6 C 0.15197(18) 0.4241(6) 0.05732(19)
H9_6 H 0.1257 0.4684 0.0571
C17_6 C 0.16662(17) 0.2924(5) 0.08122(16)
C18_6 C 0.20561(17) 0.2288(6) 0.08129(19)
H10_6 H 0.2151 0.1378 0.0966
C19_6 C 0.23009(17) 0.2971(6) 0.05941(17)
H11_6 H 0.2572 0.2554 0.0613
C20_6 C 0.14014(16) 0.2183(6) 0.10521(16)
C21_4 C 0.35893(17) 0.5802(6) 0.02722(18)
C23_4 C 0.43048(18) 0.5540(6) 0.02207(19)
H13_4 H 0.4473 0.5386 0.0030
C24_4 C 0.45239(17) 0.5757(6) 0.07235(19)
C25_4 C 0.42741(19) 0.6046(8) 0.0993(2)
H14_4 H 0.4422 0.6228 0.1333
C26_4 C 0.38147(19) 0.6073(8) 0.07753(19)
H15_4 H 0.3649 0.6277 0.0966
C27_6 C 0.50266(18) 0.5681(6) 0.09725(19)
Cd4_4 Cd 0.11264(2) 0.47129(5) 0.16790(2)
Cd2_4 Cd 0.09105(2) 0.93147(4) 0.64549(2)
O1_6 O 0.10416(13) 0.7273(5) 0.70940(13)
O2_6 O 0.13970(16) 0.9355(5) 0.72524(15)
O9_6 O 0.18673(18) 0.5568(7) 0.7145(2)
O10_6 O 0.0381(2) 0.5104(8) 0.6200(3)
O11_6 O 0.1075(3) 0.3788(6) 0.7248(3)
N1_6 N 0.2572(2) 0.6433(7) 0.7436(2)
N3_6 N 0.0921(5) 0.1968(12) 0.7677(4)
C1_6 C 0.23885(17) 0.6215(6) 0.93615(17)
C2_6 C 0.21673(17) 0.5575(6) 0.96234(19)
H1_6 H 0.1850 0.5542 0.9484
C6_6 C 0.28511(16) 0.6295(6) 0.95742(17)
H3_6 H 0.3005 0.6736 0.9400
C7_6 C 0.21207(17) 0.6736(6) 0.88560(18)
C8_6 C 0.1760(2) 0.5937(7) 0.8550(2)
H4_6 H 0.1686 0.5063 0.8666
C9_6 C 0.1502(2) 0.6385(7) 0.8077(2)
H5_6 H 0.1254 0.5824 0.7875
C10_6 C 0.16081(18) 0.7652(6) 0.79003(18)
C11_6 C 0.1967(2) 0.8459(6) 0.8200(2)
H6_6 H 0.2037 0.9336 0.8083
C12_6 C 0.22290(19) 0.8004(6) 0.86754(19)
H7_6 H 0.2481 0.8556 0.8876
C13_6 C 0.13324(18) 0.8120(7) 0.73855(18)
C22_6 C 0.38425(17) 0.5546(6) 0.99986(18)
H12_6 H 0.3696 0.5376 0.9657
C29_6 C 0.2166(3) 0.6219(7) 0.7092(3)
H16_6 H 0.2104 0.6611 0.6777
C30_6 C 0.2916(4) 0.7163(11) 0.7327(5)
H17_6 H 0.3191 0.7220 0.7624
H18_6 H 0.2972 0.6621 0.7076
H19_6 H 0.2815 0.8138 0.7207
C31_6 C 0.2690(4) 0.5897(19) 0.7923(3)
H20_6 H 0.3001 0.6153 0.8126
H21_6 H 0.2493 0.6327 0.8061
H22_6 H 0.2657 0.4846 0.7913
C32_6 C 0.0221(3) 0.4086(12) 0.5882(4)
H23_6 H 0.0386 0.3217 0.5923
C35_6 C 0.0889(4) 0.2734(15) 0.7290(4)
C36_6 C 0.0650(6) 0.0698(17) 0.7648(7)
H30_6 H 0.0729 0.0305 0.7977
H31_6 H 0.0334 0.0964 0.7506
C37_6 C 0.1216(10) 0.2056(18) 0.8270(7)
H33_6 H 0.1134 0.1253 0.8431
H34_6 H 0.1534 0.1994 0.8337
H35_6 H 0.1156 0.2972 0.8395
O12_4 O 0.11083(12) 0.7105(4) 0.61314(13)
O13_4 O 0.14707(14) 0.9123(4) 0.61587(14)
O14_4 O 0.02510(13) 0.9412(5) 0.57261(15)
O15_4 O 0.01995(14) 0.9299(6) 0.64375(15)
H37_6 H 0.0645635 0.231508 0.694539
C27_7 C 0.00266(18) 0.9319(6) 0.59725(19)
O11_7 O 0.6075(3) 0.1212(6) 0.2248(3)
N2_4 N 0.4837(3) 0.0785(9) 0.0505(4)
N3_7 N 0.5921(5) 0.3032(12) 0.2677(4)
C3_7 C 0.73999(17) 0.0014(6) 0.50837(17)
H2_7 H 0.8024 0.0324 0.5608
C14_7 C 0.71543(16) 0.0727(5) 0.53448(17)
C15_7 C 0.67606(17) 0.0104(6) 0.53402(18)
C16_7 C 0.65197(18) 0.0759(6) 0.55732(19)
H9_7 H 0.6257 0.0316 0.5571
C17_7 C 0.66662(17) 0.2076(5) 0.58122(16)
C18_7 C 0.70561(17) 0.2712(6) 0.58129(19)
H10_7 H 0.7151 0.3622 0.5966
C19_7 C 0.73009(17) 0.2029(6) 0.55941(17)
H11_7 H 0.7572 0.2446 0.5613
C20_7 C 0.64014(16) 0.2817(6) 0.60521(16)
H22_7 H 0.7657 0.0154 0.2913
C32_7 C 0.5221(3) 0.0914(12) 0.0882(4)
H23_7 H 0.5386 0.1783 0.0923
C33_4 C 0.4653(4) 0.1919(12) 0.0146(5)
H26_4 H 0.4609 0.2790 0.0307
C35_7 C 0.5889(4) 0.2266(15) 0.2290(4)
C36_7 C 0.5650(6) 0.4302(17) 0.2648(7)
H30_7 H 0.5729 0.4695 0.2977
H31_7 H 0.5334 0.4036 0.2506
H32_4 H 0.5706 0.5032 0.2442
C37_7 C 0.6216(10) 0.2944(18) 0.3270(7)
H33_7 H 0.6134 0.3747 0.3431
H34_7 H 0.6534 0.3006 0.3337
H35_7 H 0.6156 0.2028 0.3395
O16_3 O 0.6308(4) 0.1362(6) 0.1252(3)
H37_7 H 0.564563 0.268492 0.194539
O1_7 O 0.60416(13) 0.7727(5) 0.20940(13)
O2_7 O 0.63970(16) 0.5645(5) 0.22524(15)
O7_7 O 0.59956(16) 0.3253(5) 0.14378(19)
O9_7 O 0.68673(18) 0.9432(7) 0.2145(2)
O10_7 O 0.5381(2) 0.9896(8) 0.1200(3)
N1_7 N 0.7572(2) 0.8567(7) 0.2436(2)
C1_7 C 0.73885(17) 0.8785(6) 0.43615(17)
C2_7 C 0.71673(17) 0.9425(6) 0.46234(19)
H1_7 H 0.6850 0.9458 0.4484
C4_5 C 0.78618(17) 0.9929(6) 0.52922(17)
C5_5 C 0.80934(16) 0.9264(6) 0.50408(16)
C6_7 C 0.78511(16) 0.8705(6) 0.45742(17)
H3_7 H 0.8005 0.8264 0.4400
C7_7 C 0.71207(17) 0.8264(6) 0.38560(18)
C8_7 C 0.6760(2) 0.9063(7) 0.3550(2)
H4_7 H 0.6686 0.9937 0.3666
C9_7 C 0.6502(2) 0.8615(7) 0.3077(2)
H5_7 H 0.6254 0.9176 0.2875
C10_7 C 0.66081(18) 0.7348(6) 0.29003(18)
C11_7 C 0.6967(2) 0.6541(6) 0.3200(2)
H6_7 H 0.7037 0.5664 0.3083
C12_7 C 0.72290(19) 0.6996(6) 0.36754(19)
H7_7 H 0.7481 0.6444 0.3876
C13_7 C 0.63324(18) 0.6880(7) 0.23855(18)
H8_5 H 0.6658 0.9217 0.5174
C21_5 C 0.85893(17) 0.9198(6) 0.52722(18)
C22_7 C 0.88425(17) 0.9454(6) 0.49986(18)
H12_7 H 0.8696 0.9624 0.4657
C23_5 C 0.93048(18) 0.9460(6) 0.52207(19)
H13_5 H 0.9473 0.9614 0.5030
C24_5 C 0.95239(17) 0.9243(6) 0.57235(19)
C25_5 C 0.92741(19) 0.8954(8) 0.5993(2)
H14_5 H 0.9422 0.8772 0.6333
C26_5 C 0.88147(19) 0.8927(8) 0.57753(19)
H15_5 H 0.8649 0.8723 0.5966
C28_7 C 0.6228(4) 0.2662(8) 0.1244(3)
C29_7 C 0.7166(3) 0.8781(7) 0.2092(3)
H16_7 H 0.7104 0.8389 0.1777
C30_7 C 0.7916(4) 0.7837(11) 0.2327(5)
H17_7 H 0.8191 0.7780 0.2624
H18_7 H 0.7972 0.8379 0.2076
H19_7 H 0.7815 0.6862 0.2207
C31_7 C 0.7690(4) 0.9103(19) 0.2923(3)
H20_7 H 0.8001 0.8847 0.3126
H21_7 H 0.7493 0.8673 0.3061
C34_4 C 0.4576(5) 0.9447(14) 0.0413(8)
H27_4 H 0.4301 0.9556 0.0117
H28_4 H 0.4499 0.9243 0.0692
H29_4 H 0.4752 0.8648 0.0370
H36_7 H 0.637176 0.335812 0.105178
O1_8 O 0.10416(13) 0.2727(5) 0.20940(13)
O2_8 O 0.13970(16) 0.0645(5) 0.22524(15)
O9_8 O 0.18673(18) 0.4432(7) 0.2145(2)
O10_8 O 0.0381(2) 0.4896(8) 0.1200(3)
O11_8 O 0.1075(3) 0.6212(6) 0.2248(3)
N1_8 N 0.2572(2) 0.3567(7) 0.2436(2)
N3_8 N 0.0921(5) 0.8032(12) 0.2677(4)
C1_8 C 0.23885(17) 0.3785(6) 0.43615(17)
C2_8 C 0.21673(17) 0.4425(6) 0.46234(19)
H1_8 H 0.1850 0.4458 0.4484
C3_8 C 0.23999(17) 0.5014(6) 0.50837(17)
C4_6 C 0.28618(17) 0.4929(6) 0.52922(17)
H2_8 H 0.3024 0.5324 0.5608
C5_6 C 0.30934(16) 0.4264(6) 0.50408(16)
C6_8 C 0.28511(16) 0.3705(6) 0.45742(17)
H3_8 H 0.3005 0.3264 0.4400
C7_8 C 0.21207(17) 0.3264(6) 0.38560(18)
C8_8 C 0.1760(2) 0.4063(7) 0.3550(2)
H4_8 H 0.1686 0.4937 0.3666
C9_8 C 0.1502(2) 0.3615(7) 0.3077(2)
H5_8 H 0.1254 0.4176 0.2875
C10_8 C 0.16081(18) 0.2348(6) 0.29003(18)
C11_8 C 0.1967(2) 0.1541(6) 0.3200(2)
H6_8 H 0.2037 0.0664 0.3083
C12_8 C 0.22290(19) 0.1996(6) 0.36754(19)
H7_8 H 0.2481 0.1444 0.3876
C13_8 C 0.13324(18) 0.1880(7) 0.23855(18)
C14_8 C 0.21543(16) 0.5727(5) 0.53448(17)
C15_8 C 0.17606(17) 0.5104(6) 0.53402(18)
H8_6 H 0.1658 0.4217 0.5174
C16_8 C 0.15197(18) 0.5759(6) 0.55732(19)
H9_8 H 0.1257 0.5316 0.5571
C17_8 C 0.16662(17) 0.7076(5) 0.58122(16)
C18_8 C 0.20561(17) 0.7712(6) 0.58129(19)
H10_8 H 0.2151 0.8622 0.5966
C19_8 C 0.23009(17) 0.7029(6) 0.55941(17)
H11_8 H 0.2572 0.7446 0.5613
C20_8 C 0.14014(16) 0.7817(6) 0.60521(16)
C21_6 C 0.35893(17) 0.4198(6) 0.52722(18)
C22_8 C 0.38425(17) 0.4454(6) 0.49986(18)
H12_8 H 0.3696 0.4624 0.4657
C23_6 C 0.43048(18) 0.4460(6) 0.52207(19)
H13_6 H 0.4473 0.4614 0.5030
C24_6 C 0.45239(17) 0.4243(6) 0.57235(19)
C25_6 C 0.42741(19) 0.3954(8) 0.5993(2)
H14_6 H 0.4422 0.3772 0.6333
C26_6 C 0.38147(19) 0.3927(8) 0.57753(19)
H15_6 H 0.3649 0.3723 0.5966
C27_8 C 0.50266(18) 0.4319(6) 0.59725(19)
C29_8 C 0.2166(3) 0.3781(7) 0.2092(3)
H16_8 H 0.2104 0.3389 0.1777
C30_8 C 0.2916(4) 0.2837(11) 0.2327(5)
H17_8 H 0.3191 0.2780 0.2624
H18_8 H 0.2972 0.3379 0.2076
H19_8 H 0.2815 0.1862 0.2207
C31_8 C 0.2690(4) 0.4103(19) 0.2923(3)
H20_8 H 0.3001 0.3847 0.3126
H21_8 H 0.2493 0.3673 0.3061
H22_8 H 0.2657 0.5154 0.2913
C32_8 C 0.0221(3) 0.5914(12) 0.0882(4)
H23_8 H 0.0386 0.6783 0.0923
C35_8 C 0.0889(4) 0.7266(15) 0.2290(4)
C36_8 C 0.0650(6) 0.9302(17) 0.2648(7)
H30_8 H 0.0729 0.9695 0.2977
H31_8 H 0.0334 0.9036 0.2506
C37_8 C 0.1216(10) 0.7944(18) 0.3270(7)
H33_8 H 0.1134 0.8747 0.3431
H34_8 H 0.1534 0.8006 0.3337
H35_8 H 0.1156 0.7028 0.3395
O16_4 O 0.1308(4) 0.6362(6) 0.1252(3)
H37_8 H 0.0645635 0.768492 0.194539
O7_8 O 0.09956(16) 0.8253(5) 0.14378(19)
C28_8 C 0.1228(4) 0.7662(8) 0.1244(3)
H36_8 H 0.137176 0.835812 0.105178
C4_7 C 0.78618(17) 0.0071(6) 0.02922(17)
C5_7 C 0.80934(16) 0.0736(6) 0.00408(16)
H8_7 H 0.6658 0.0783 0.0174
C21_7 C 0.85893(17) 0.0802(6) 0.02722(18)
C23_7 C 0.93048(18) 0.0540(6) 0.02207(19)
H13_7 H 0.9473 0.0386 0.0030
C24_7 C 0.95239(17) 0.0757(6) 0.07235(19)
C25_7 C 0.92741(19) 0.1046(8) 0.0993(2)
H14_7 H 0.9422 0.1228 0.1333
C26_7 C 0.88147(19) 0.1073(8) 0.07753(19)
H15_7 H 0.8649 0.1277 0.0966
H24_4 H 0.0634 0.3395 0.0104
H25_4 H 0.0140 0.2870 0.0008
N2_5 N 0.0163(3) 0.4215(9) 0.9495(4)
C33_5 C 0.0347(4) 0.3081(12) 0.9854(5)
H26_5 H 0.0391 0.2210 0.9693
C34_5 C 0.0424(5) 0.5553(14) 0.9587(8)
H27_5 H 0.0699 0.5444 0.9883
H28_5 H 0.0501 0.5757 0.9308
H29_5 H 0.0248 0.6352 0.9630
H32_5 H 0.9294 0.9968 0.7558
H32_6 H 0.0706 0.9968 0.7442
N2_6 N 0.9837(3) 0.4215(9) 0.5505(4)
C33_6 C 0.9653(4) 0.3081(12) 0.5146(5)
H24_5 H 0.9366 0.3395 0.4896
H25_5 H 0.9860 0.2870 0.4992
H26_6 H 0.9609 0.2210 0.5307
C34_6 C 0.9576(5) 0.5553(14) 0.5413(8)
H27_6 H 0.9301 0.5444 0.5117
H28_6 H 0.9499 0.5757 0.5692
H29_6 H 0.9752 0.6352 0.5370
H24_6 H 0.4366 0.1605 0.9896
H25_6 H 0.4860 0.2130 0.9992
C4_8 C 0.21382(17) 0.9929(6) 0.97078(17)
C5_8 C 0.19066(16) 0.9264(6) 0.99592(16)
H8_8 H 0.3342 0.9217 0.9826
C21_8 C 0.14107(17) 0.9198(6) 0.97278(18)
C23_8 C 0.06952(18) 0.9460(6) 0.97793(19)
H13_8 H 0.0527 0.9614 0.9970
C24_8 C 0.04761(17) 0.9243(6) 0.92765(19)
C25_8 C 0.07259(19) 0.8954(8) 0.9007(2)
H14_8 H 0.0578 0.8772 0.8667
C26_8 C 0.11853(19) 0.8927(8) 0.92247(19)
H15_8 H 0.1351 0.8723 0.9034
H32_7 H 0.0706 0.0032 0.2442
N2_7 N 0.9837(3) 0.5785(9) 0.0505(4)
C33_7 C 0.9653(4) 0.6919(12) 0.0146(5)
H26_7 H 0.9609 0.7790 0.0307
C34_7 C 0.9576(5) 0.4447(14) 0.0413(8)
H27_7 H 0.9301 0.4556 0.0117
H28_7 H 0.9499 0.4243 0.0692
H29_7 H 0.9752 0.3648 0.0370
H24_7 H 0.9366 0.6605 0.9896
H25_7 H 0.9860 0.7130 0.9992
N2_8 N 0.0163(3) 0.5785(9) 0.4495(4)
C33_8 C 0.0347(4) 0.6919(12) 0.4854(5)
H24_8 H 0.0634 0.6605 0.5104
H25_8 H 0.0140 0.7130 0.5008
H26_8 H 0.0391 0.7790 0.4693
C34_8 C 0.0424(5) 0.4447(14) 0.4587(8)
H27_8 H 0.0699 0.4556 0.4883
H28_8 H 0.0501 0.4243 0.4308
H29_8 H 0.0248 0.3648 0.4630
H32_8 H 0.9294 0.0032 0.2558
loop_
_geom_bond_atom_site_label_1
_geom_bond_atom_site_label_2
_geom_bond_site_symmetry_1
_geom_bond_site_symmetry_2
Cd3 O1 1_555 1_555
Cd2 O1 1_555 1_555
O1 C13 1_555 1_555
O2 Cd2 1_555 1_555
O7 Cd2 1_555 1_555
O8 C28 1_555 1_555
O9 Cd3 1_555 1_555
O10 Cd3 1_555 1_555
N1 C29 1_555 1_555
C1 C2 1_555 1_555
C2 H1 1_555 1_555
C5 C4 1_555 1_555
C6 C1 1_555 1_555
H3 C6 1_555 1_555
C7 C1 1_555 1_555
C8 C7 1_555 1_555
H4 C8 1_555 1_555
C9 C8 1_555 1_555
H5 C9 1_555 1_555
C10 C9 1_555 1_555
C11 C10 1_555 1_555
H6 C11 1_555 1_555
C12 C7 1_555 1_555
H7 C12 1_555 1_555
C13 O2 1_555 1_555
C21 C5 1_555 1_555
C22 C21 1_555 1_555
H12 C22 1_555 1_555
C23 C22 1_555 1_555
H13 C23 1_555 1_555
C24 C23 1_555 1_555
C25 C24 1_555 1_555
H14 C25 1_555 1_555
C26 C21 1_555 1_555
H15 C26 1_555 1_555
C28 O7 1_555 1_555
C29 O9 1_555 1_555
H16 C29 1_555 1_555
C30 N1 1_555 1_555
H17 C30 1_555 1_555
H18 C30 1_555 1_555
H19 C30 1_555 1_555
C31 N1 1_555 1_555
H20 C31 1_555 1_555
H21 C31 1_555 1_555
H27 C34 1_555 1_555
H28 C34 1_555 1_555
H29 C34 1_555 1_555
O12 Cd3 1_555 1_555
O13 Cd2 1_555 1_555
O14 Cd2 1_555 1_555
O15 Cd2 1_555 1_555
Cd2 O12 1_555 1_555
C5 C6 1_555 1_555
C10 C13 1_555 1_555
C11 C12 1_555 1_555
C25 C26 1_555 1_555
C28 H36 1_555 1_555
O3 C20 1_555 1_555
O4 C20 1_555 1_555
N2 C32 1_555 1_555
N3 C35 1_555 1_555
C14 C3 1_555 1_555
C15 C14 1_555 1_555
C16 C15 1_555 1_555
H9 C16 1_555 1_555
C17 C16 1_555 1_555
C18 C17 1_555 1_555
H10 C18 1_555 1_555
C19 C14 1_555 1_555
H11 C19 1_555 1_555
C20 C17 1_555 1_555
H23 C32 1_555 1_555
C33 N2 1_555 1_555
H26 C33 1_555 1_555
C35 O11 1_555 1_555
C36 N3 1_555 1_555
H30 C36 1_555 1_555
H31 C36 1_555 1_555
H32 C36 1_555 1_555
C37 N3 1_555 1_555
H33 C37 1_555 1_555
H34 C37 1_555 1_555
H35 C37 1_555 1_555
Cd4 O3 1_555 1_555
Cd5 O3 1_555 1_555
O4 Cd5 1_555 1_555
C18 C19 1_555 1_555
C35 H37 1_555 1_555
O5 C27 1_555 1_555
O6 C27 1_555 1_555
Cd6 O5 1_555 1_555
O6 Cd6 1_555 1_555
O8_2 C28_2 1_555 1_555
C28_2 O7_2 1_555 1_555
Cd3_2 O8_2 1_555 1_555
C28_2 H36_2 1_555 1_555
Cd3_2 O1_2 1_555 1_555
Cd2_2 O1_2 1_555 1_555
O1_2 C13_2 1_555 1_555
O2_2 Cd2_2 1_555 1_555
O3_2 C20_2 1_555 1_555
O4_2 C20_2 1_555 1_555
O5_2 C27_2 1_555 1_555
O6_2 C27_2 1_555 1_555
O9_2 Cd3_2 1_555 1_555
O10_2 Cd3_2 1_555 1_555
O11_2 Cd3_2 1_555 1_555
N1_2 C29_2 1_555 1_555
N3_2 C35_2 1_555 1_555
C1_2 C2_2 1_555 1_555
C2_2 H1_2 1_555 1_555
C3_2 C2_2 1_555 1_555
C4_2 C3_2 1_555 1_555
H2_2 C4_2 1_555 1_555
C5_2 C4_2 1_555 1_555
C6_2 C1_2 1_555 1_555
H3_2 C6_2 1_555 1_555
C7_2 C1_2 1_555 1_555
C8_2 C7_2 1_555 1_555
H4_2 C8_2 1_555 1_555
C9_2 C8_2 1_555 1_555
H5_2 C9_2 1_555 1_555
C10_2 C9_2 1_555 1_555
C11_2 C10_2 1_555 1_555
H6_2 C11_2 1_555 1_555
C12_2 C7_2 1_555 1_555
H7_2 C12_2 1_555 1_555
C13_2 O2_2 1_555 1_555
C14_2 C3_2 1_555 1_555
C15_2 C14_2 1_555 1_555
H8_2 C15_2 1_555 1_555
C16_2 C15_2 1_555 1_555
H9_2 C16_2 1_555 1_555
C17_2 C16_2 1_555 1_555
C18_2 C17_2 1_555 1_555
H10_2 C18_2 1_555 1_555
C19_2 C14_2 1_555 1_555
H11_2 C19_2 1_555 1_555
C20_2 C17_2 1_555 1_555
C21_2 C5_2 1_555 1_555
C22_2 C21_2 1_555 1_555
H12_2 C22_2 1_555 1_555
C23_2 C22_2 1_555 1_555
H13_2 C23_2 1_555 1_555
C24_2 C23_2 1_555 1_555
C25_2 C24_2 1_555 1_555
H14_2 C25_2 1_555 1_555
C26_2 C21_2 1_555 1_555
H15_2 C26_2 1_555 1_555
C27_2 C24_2 1_555 1_555
C29_2 O9_2 1_555 1_555
H16_2 C29_2 1_555 1_555
C30_2 N1_2 1_555 1_555
H17_2 C30_2 1_555 1_555
H18_2 C30_2 1_555 1_555
H19_2 C30_2 1_555 1_555
C31_2 N1_2 1_555 1_555
H20_2 C31_2 1_555 1_555
H21_2 C31_2 1_555 1_555
H22_2 C31_2 1_555 1_555
C32_2 O10_2 1_555 1_555
H23_2 C32_2 1_555 1_555
C35_2 O11_2 1_555 1_555
C36_2 N3_2 1_555 1_555
H30_2 C36_2 1_555 1_555
H31_2 C36_2 1_555 1_555
C37_2 N3_2 1_555 1_555
H33_2 C37_2 1_555 1_555
H34_2 C37_2 1_555 1_555
H35_2 C37_2 1_555 1_555
Cd4_2 O3_2 1_555 1_555
Cd6 O3_2 1_555 1_555
Cd5 O5_2 1_555 1_555
O12_2 Cd3_2 1_555 1_555
O13_2 Cd2_2 1_555 1_555
O14_2 Cd2_2 1_555 1_555
O15_2 Cd2_2 1_555 1_555
Cd2_2 O12_2 1_555 1_555
O4_2 Cd6 1_555 1_555
O6_2 Cd5 1_555 1_555
C5_2 C6_2 1_555 1_555
C10_2 C13_2 1_555 1_555
C11_2 C12_2 1_555 1_555
C18_2 C19_2 1_555 1_555
C25_2 C26_2 1_555 1_555
C35_2 H37_2 1_555 1_555
N2_2 C32_3 1_555 1_555
N3_3 C35_3 1_555 1_555
H23_3 C32_3 1_555 1_555
C33_2 N2_2 1_555 1_555
H24 C33_2 1_555 1_555
H25 C33_2 1_555 1_555
H26_2 C33_2 1_555 1_555
C35_3 O11_3 1_555 1_555
C36_3 N3_3 1_555 1_555
H30_3 C36_3 1_555 1_555
H31_3 C36_3 1_555 1_555
H32_2 C36_3 1_555 1_555
C37_3 N3_3 1_555 1_555
H33_3 C37_3 1_555 1_555
H34_3 C37_3 1_555 1_555
H35_3 C37_3 1_555 1_555
C35_3 H37_3 1_555 1_555
O12 C20_3 1_555 1_555
O13 C20_3 1_555 1_555
C14_3 C3_3 1_555 1_555
C15_3 C14_3 1_555 1_555
C16_3 C15_3 1_555 1_555
H9_3 C16_3 1_555 1_555
C17_3 C16_3 1_555 1_555
C18_3 C17_3 1_555 1_555
H10_3 C18_3 1_555 1_555
C19_3 C14_3 1_555 1_555
H11_3 C19_3 1_555 1_555
C20_3 C17_3 1_555 1_555
C18_3 C19_3 1_555 1_555
Cd4 O1_3 1_555 1_555
Cd5 O1_3 1_555 1_555
O1_3 C13_3 1_555 1_555
O2_3 Cd5 1_555 1_555
O7_3 Cd5 1_555 1_555
O16 C28_3 1_555 1_555
O9_3 Cd4 1_555 1_555
O10_3 Cd4 1_555 1_555
N1_3 C29_3 1_555 1_555
C1_3 C2_3 1_555 1_555
C2_3 H1_3 1_555 1_555
C6_3 C1_3 1_555 1_555
H3_3 C6_3 1_555 1_555
C7_3 C1_3 1_555 1_555
C8_3 C7_3 1_555 1_555
H4_3 C8_3 1_555 1_555
C9_3 C8_3 1_555 1_555
H5_3 C9_3 1_555 1_555
C10_3 C9_3 1_555 1_555
C11_3 C10_3 1_555 1_555
H6_3 C11_3 1_555 1_555
C12_3 C7_3 1_555 1_555
H7_3 C12_3 1_555 1_555
C13_3 O2_3 1_555 1_555
H12_3 C22_3 1_555 1_555
C28_3 O7_3 1_555 1_555
C29_3 O9_3 1_555 1_555
H16_3 C29_3 1_555 1_555
C30_3 N1_3 1_555 1_555
H17_3 C30_3 1_555 1_555
H18_3 C30_3 1_555 1_555
H19_3 C30_3 1_555 1_555
C31_3 N1_3 1_555 1_555
H20_3 C31_3 1_555 1_555
H21_3 C31_3 1_555 1_555
H27_2 C34_2 1_555 1_555
H28_2 C34_2 1_555 1_555
H29_2 C34_2 1_555 1_555
C10_3 C13_3 1_555 1_555
C11_3 C12_3 1_555 1_555
C28_3 H36_3 1_555 1_555
O14_2 C27_3 1_555 1_555
O15_2 C27_3 1_555 1_555
Cd4_2 O1_4 1_555 1_555
Cd6 O1_4 1_555 1_555
O1_4 C13_4 1_555 1_555
O2_4 Cd6 1_555 1_555
O9_4 Cd4_2 1_555 1_555
O10_4 Cd4_2 1_555 1_555
O11_4 Cd4_2 1_555 1_555
N1_4 C29_4 1_555 1_555
N3_4 C35_4 1_555 1_555
C1_4 C2_4 1_555 1_555
C2_4 H1_4 1_555 1_555
C6_4 C1_4 1_555 1_555
H3_4 C6_4 1_555 1_555
C7_4 C1_4 1_555 1_555
C8_4 C7_4 1_555 1_555
H4_4 C8_4 1_555 1_555
C9_4 C8_4 1_555 1_555
H5_4 C9_4 1_555 1_555
C10_4 C9_4 1_555 1_555
C11_4 C10_4 1_555 1_555
H6_4 C11_4 1_555 1_555
C12_4 C7_4 1_555 1_555
H7_4 C12_4 1_555 1_555
C13_4 O2_4 1_555 1_555
H12_4 C22_4 1_555 1_555
C29_4 O9_4 1_555 1_555
H16_4 C29_4 1_555 1_555
C30_4 N1_4 1_555 1_555
H17_4 C30_4 1_555 1_555
H18_4 C30_4 1_555 1_555
H19_4 C30_4 1_555 1_555
C31_4 N1_4 1_555 1_555
H20_4 C31_4 1_555 1_555
H21_4 C31_4 1_555 1_555
H22_4 C31_4 1_555 1_555
C32_4 O10_4 1_555 1_555
H23_4 C32_4 1_555 1_555
C35_4 O11_4 1_555 1_555
C36_4 N3_4 1_555 1_555
H30_4 C36_4 1_555 1_555
H31_4 C36_4 1_555 1_555
C37_4 N3_4 1_555 1_555
H33_4 C37_4 1_555 1_555
H34_4 C37_4 1_555 1_555
H35_4 C37_4 1_555 1_555
O16_2 Cd4_2 1_555 1_555
C10_4 C13_4 1_555 1_555
C11_4 C12_4 1_555 1_555
C35_4 H37_4 1_555 1_555
O12_2 C20_4 1_555 1_555
O13_2 C20_4 1_555 1_555
O14 C27_4 1_555 1_555
O15 C27_4 1_555 1_555
C4_3 C3_4 1_555 1_555
H2_4 C4_3 1_555 1_555
C5_3 C4_3 1_555 1_555
C14_4 C3_4 1_555 1_555
C15_4 C14_4 1_555 1_555
H8_3 C15_4 1_555 1_555
C16_4 C15_4 1_555 1_555
H9_4 C16_4 1_555 1_555
C17_4 C16_4 1_555 1_555
C18_4 C17_4 1_555 1_555
H10_4 C18_4 1_555 1_555
C19_4 C14_4 1_555 1_555
H11_4 C19_4 1_555 1_555
C20_4 C17_4 1_555 1_555
C21_3 C5_3 1_555 1_555
H13_3 C23_3 1_555 1_555
C24_3 C23_3 1_555 1_555
C25_3 C24_3 1_555 1_555
H14_3 C25_3 1_555 1_555
C26_3 C21_3 1_555 1_555
H15_3 C26_3 1_555 1_555
C27_4 C24_3 1_555 1_555
C18_4 C19_4 1_555 1_555
C25_3 C26_3 1_555 1_555
O16_2 C28_4 1_555 1_555
C28_4 O7_4 1_555 1_555
C28_4 H36_4 1_555 1_555
O5_3 C27_5 1_555 1_555
O6_3 C27_5 1_555 1_555
Cd6_2 O5_3 1_555 1_555
O6_3 Cd6_2 1_555 1_555
Cd3_3 O1_5 1_555 1_555
Cd2_3 O1_5 1_555 1_555
O1_5 C13_5 1_555 1_555
O2_5 Cd2_3 1_555 1_555
O7_5 Cd2_3 1_555 1_555
O8_3 C28_5 1_555 1_555
O9_5 Cd3_3 1_555 1_555
O10_5 Cd3_3 1_555 1_555
N1_5 C29_5 1_555 1_555
C1_5 C2_5 1_555 1_555
C2_5 H1_5 1_555 1_555
C6_5 C1_5 1_555 1_555
H3_5 C6_5 1_555 1_555
C7_5 C1_5 1_555 1_555
C8_5 C7_5 1_555 1_555
H4_5 C8_5 1_555 1_555
C9_5 C8_5 1_555 1_555
H5_5 C9_5 1_555 1_555
C10_5 C9_5 1_555 1_555
C11_5 C10_5 1_555 1_555
H6_5 C11_5 1_555 1_555
C12_5 C7_5 1_555 1_555
H7_5 C12_5 1_555 1_555
C13_5 O2_5 1_555 1_555
H12_5 C22_5 1_555 1_555
C28_5 O7_5 1_555 1_555
C29_5 O9_5 1_555 1_555
H16_5 C29_5 1_555 1_555
C30_5 N1_5 1_555 1_555
H17_5 C30_5 1_555 1_555
H18_5 C30_5 1_555 1_555
H19_5 C30_5 1_555 1_555
C31_5 N1_5 1_555 1_555
H20_5 C31_5 1_555 1_555
H21_5 C31_5 1_555 1_555
H27_3 C34_3 1_555 1_555
H28_3 C34_3 1_555 1_555
H29_3 C34_3 1_555 1_555
O12_3 Cd3_3 1_555 1_555
O13_3 Cd2_3 1_555 1_555
O14_3 Cd2_3 1_555 1_555
O15_3 Cd2_3 1_555 1_555
Cd2_3 O12_3 1_555 1_555
C10_5 C13_5 1_555 1_555
C11_5 C12_5 1_555 1_555
C28_5 H36_5 1_555 1_555
O3_3 C20_5 1_555 1_555
O4_3 C20_5 1_555 1_555
C14_5 C3_5 1_555 1_555
C15_5 C14_5 1_555 1_555
C16_5 C15_5 1_555 1_555
H9_5 C16_5 1_555 1_555
C17_5 C16_5 1_555 1_555
C18_5 C17_5 1_555 1_555
H10_5 C18_5 1_555 1_555
C19_5 C14_5 1_555 1_555
H11_5 C19_5 1_555 1_555
C20_5 C17_5 1_555 1_555
Cd4_3 O3_3 1_555 1_555
Cd5_2 O3_3 1_555 1_555
O4_3 Cd5_2 1_555 1_555
C18_5 C19_5 1_555 1_555
N2_3 C32_5 1_555 1_555
N3_5 C35_5 1_555 1_555
H23_5 C32_5 1_555 1_555
C33_3 N2_3 1_555 1_555
H24_3 C33_3 1_555 1_555
H25_3 C33_3 1_555 1_555
H26_3 C33_3 1_555 1_555
C35_5 O11_5 1_555 1_555
C36_5 N3_5 1_555 1_555
H30_5 C36_5 1_555 1_555
H31_5 C36_5 1_555 1_555
H32_3 C36_5 1_555 1_555
C37_5 N3_5 1_555 1_555
H33_5 C37_5 1_555 1_555
H34_5 C37_5 1_555 1_555
H35_5 C37_5 1_555 1_555
C35_5 H37_5 1_555 1_555
O8_4 C28_6 1_555 1_555
C28_6 O7_6 1_555 1_555
Cd3_4 O8_4 1_555 1_555
C28_6 H36_6 1_555 1_555
O3_4 C20_6 1_555 1_555
O4_4 C20_6 1_555 1_555
O5_4 C27_6 1_555 1_555
O6_4 C27_6 1_555 1_555
C4_4 C3_6 1_555 1_555
H2_6 C4_4 1_555 1_555
C5_4 C4_4 1_555 1_555
C14_6 C3_6 1_555 1_555
C15_6 C14_6 1_555 1_555
H8_4 C15_6 1_555 1_555
C16_6 C15_6 1_555 1_555
H9_6 C16_6 1_555 1_555
C17_6 C16_6 1_555 1_555
C18_6 C17_6 1_555 1_555
H10_6 C18_6 1_555 1_555
C19_6 C14_6 1_555 1_555
H11_6 C19_6 1_555 1_555
C20_6 C17_6 1_555 1_555
C21_4 C5_4 1_555 1_555
H13_4 C23_4 1_555 1_555
C24_4 C23_4 1_555 1_555
C25_4 C24_4 1_555 1_555
H14_4 C25_4 1_555 1_555
C26_4 C21_4 1_555 1_555
H15_4 C26_4 1_555 1_555
C27_6 C24_4 1_555 1_555
Cd4_4 O3_4 1_555 1_555
Cd6_2 O3_4 1_555 1_555
Cd5_2 O5_4 1_555 1_555
O4_4 Cd6_2 1_555 1_555
O6_4 Cd5_2 1_555 1_555
C18_6 C19_6 1_555 1_555
C25_4 C26_4 1_555 1_555
Cd3_4 O1_6 1_555 1_555
Cd2_4 O1_6 1_555 1_555
O1_6 C13_6 1_555 1_555
O2_6 Cd2_4 1_555 1_555
O9_6 Cd3_4 1_555 1_555
O10_6 Cd3_4 1_555 1_555
O11_6 Cd3_4 1_555 1_555
N1_6 C29_6 1_555 1_555
N3_6 C35_6 1_555 1_555
C1_6 C2_6 1_555 1_555
C2_6 H1_6 1_555 1_555
C6_6 C1_6 1_555 1_555
H3_6 C6_6 1_555 1_555
C7_6 C1_6 1_555 1_555
C8_6 C7_6 1_555 1_555
H4_6 C8_6 1_555 1_555
C9_6 C8_6 1_555 1_555
H5_6 C9_6 1_555 1_555
C10_6 C9_6 1_555 1_555
C11_6 C10_6 1_555 1_555
H6_6 C11_6 1_555 1_555
C12_6 C7_6 1_555 1_555
H7_6 C12_6 1_555 1_555
C13_6 O2_6 1_555 1_555
H12_6 C22_6 1_555 1_555
C29_6 O9_6 1_555 1_555
H16_6 C29_6 1_555 1_555
C30_6 N1_6 1_555 1_555
H17_6 C30_6 1_555 1_555
H18_6 C30_6 1_555 1_555
H19_6 C30_6 1_555 1_555
C31_6 N1_6 1_555 1_555
H20_6 C31_6 1_555 1_555
H21_6 C31_6 1_555 1_555
H22_6 C31_6 1_555 1_555
C32_6 O10_6 1_555 1_555
H23_6 C32_6 1_555 1_555
C35_6 O11_6 1_555 1_555
C36_6 N3_6 1_555 1_555
H30_6 C36_6 1_555 1_555
H31_6 C36_6 1_555 1_555
C37_6 N3_6 1_555 1_555
H33_6 C37_6 1_555 1_555
H34_6 C37_6 1_555 1_555
H35_6 C37_6 1_555 1_555
O12_4 Cd3_4 1_555 1_555
O13_4 Cd2_4 1_555 1_555
O14_4 Cd2_4 1_555 1_555
O15_4 Cd2_4 1_555 1_555
Cd2_4 O12_4 1_555 1_555
C10_6 C13_6 1_555 1_555
C11_6 C12_6 1_555 1_555
C35_6 H37_6 1_555 1_555
O14_4 C27_7 1_555 1_555
O15_4 C27_7 1_555 1_555
O12_3 C20_7 1_555 1_555
O13_3 C20_7 1_555 1_555
N2_4 C32_7 1_555 1_555
N3_7 C35_7 1_555 1_555
C14_7 C3_7 1_555 1_555
C15_7 C14_7 1_555 1_555
C16_7 C15_7 1_555 1_555
H9_7 C16_7 1_555 1_555
C17_7 C16_7 1_555 1_555
C18_7 C17_7 1_555 1_555
H10_7 C18_7 1_555 1_555
C19_7 C14_7 1_555 1_555
H11_7 C19_7 1_555 1_555
C20_7 C17_7 1_555 1_555
H23_7 C32_7 1_555 1_555
C33_4 N2_4 1_555 1_555
H26_4 C33_4 1_555 1_555
C35_7 O11_7 1_555 1_555
C36_7 N3_7 1_555 1_555
H30_7 C36_7 1_555 1_555
H31_7 C36_7 1_555 1_555
H32_4 C36_7 1_555 1_555
C37_7 N3_7 1_555 1_555
H33_7 C37_7 1_555 1_555
H34_7 C37_7 1_555 1_555
H35_7 C37_7 1_555 1_555
C18_7 C19_7 1_555 1_555
C35_7 H37_7 1_555 1_555
Cd4_3 O1_7 1_555 1_555
Cd5_2 O1_7 1_555 1_555
O1_7 C13_7 1_555 1_555
O2_7 Cd5_2 1_555 1_555
O7_7 Cd5_2 1_555 1_555
O16_3 C28_7 1_555 1_555
O9_7 Cd4_3 1_555 1_555
O10_7 Cd4_3 1_555 1_555
N1_7 C29_7 1_555 1_555
C1_7 C2_7 1_555 1_555
C2_7 H1_7 1_555 1_555
C5_5 C4_5 1_555 1_555
C6_7 C1_7 1_555 1_555
H3_7 C6_7 1_555 1_555
C7_7 C1_7 1_555 1_555
C8_7 C7_7 1_555 1_555
H4_7 C8_7 1_555 1_555
C9_7 C8_7 1_555 1_555
H5_7 C9_7 1_555 1_555
C10_7 C9_7 1_555 1_555
C11_7 C10_7 1_555 1_555
H6_7 C11_7 1_555 1_555
C12_7 C7_7 1_555 1_555
H7_7 C12_7 1_555 1_555
C13_7 O2_7 1_555 1_555
C21_5 C5_5 1_555 1_555
C22_7 C21_5 1_555 1_555
H12_7 C22_7 1_555 1_555
C23_5 C22_7 1_555 1_555
H13_5 C23_5 1_555 1_555
C24_5 C23_5 1_555 1_555
C25_5 C24_5 1_555 1_555
H14_5 C25_5 1_555 1_555
C26_5 C21_5 1_555 1_555
H15_5 C26_5 1_555 1_555
C28_7 O7_7 1_555 1_555
C29_7 O9_7 1_555 1_555
H16_7 C29_7 1_555 1_555
C30_7 N1_7 1_555 1_555
H17_7 C30_7 1_555 1_555
H18_7 C30_7 1_555 1_555
H19_7 C30_7 1_555 1_555
C31_7 N1_7 1_555 1_555
H20_7 C31_7 1_555 1_555
H21_7 C31_7 1_555 1_555
H27_4 C34_4 1_555 1_555
H28_4 C34_4 1_555 1_555
H29_4 C34_4 1_555 1_555
C5_5 C6_7 1_555 1_555
C10_7 C13_7 1_555 1_555
C11_7 C12_7 1_555 1_555
C25_5 C26_5 1_555 1_555
C28_7 H36_7 1_555 1_555
Cd4_4 O1_8 1_555 1_555
Cd6_2 O1_8 1_555 1_555
O1_8 C13_8 1_555 1_555
O2_8 Cd6_2 1_555 1_555
O12_4 C20_8 1_555 1_555
O13_4 C20_8 1_555 1_555
O14_3 C27_8 1_555 1_555
O15_3 C27_8 1_555 1_555
O9_8 Cd4_4 1_555 1_555
O10_8 Cd4_4 1_555 1_555
O11_8 Cd4_4 1_555 1_555
N1_8 C29_8 1_555 1_555
N3_8 C35_8 1_555 1_555
C1_8 C2_8 1_555 1_555
C2_8 H1_8 1_555 1_555
C3_8 C2_8 1_555 1_555
C4_6 C3_8 1_555 1_555
H2_8 C4_6 1_555 1_555
C5_6 C4_6 1_555 1_555
C6_8 C1_8 1_555 1_555
H3_8 C6_8 1_555 1_555
C7_8 C1_8 1_555 1_555
C8_8 C7_8 1_555 1_555
H4_8 C8_8 1_555 1_555
C9_8 C8_8 1_555 1_555
H5_8 C9_8 1_555 1_555
C10_8 C9_8 1_555 1_555
C11_8 C10_8 1_555 1_555
H6_8 C11_8 1_555 1_555
C12_8 C7_8 1_555 1_555
H7_8 C12_8 1_555 1_555
C13_8 O2_8 1_555 1_555
C14_8 C3_8 1_555 1_555
C15_8 C14_8 1_555 1_555
H8_6 C15_8 1_555 1_555
C16_8 C15_8 1_555 1_555
H9_8 C16_8 1_555 1_555
C17_8 C16_8 1_555 1_555
C18_8 C17_8 1_555 1_555
H10_8 C18_8 1_555 1_555
C19_8 C14_8 1_555 1_555
H11_8 C19_8 1_555 1_555
C20_8 C17_8 1_555 1_555
C21_6 C5_6 1_555 1_555
C22_8 C21_6 1_555 1_555
H12_8 C22_8 1_555 1_555
C23_6 C22_8 1_555 1_555
H13_6 C23_6 1_555 1_555
C24_6 C23_6 1_555 1_555
C25_6 C24_6 1_555 1_555
H14_6 C25_6 1_555 1_555
C26_6 C21_6 1_555 1_555
H15_6 C26_6 1_555 1_555
C27_8 C24_6 1_555 1_555
C29_8 O9_8 1_555 1_555
H16_8 C29_8 1_555 1_555
C30_8 N1_8 1_555 1_555
H17_8 C30_8 1_555 1_555
H18_8 C30_8 1_555 1_555
H19_8 C30_8 1_555 1_555
C31_8 N1_8 1_555 1_555
H20_8 C31_8 1_555 1_555
H21_8 C31_8 1_555 1_555
H22_8 C31_8 1_555 1_555
C32_8 O10_8 1_555 1_555
H23_8 C32_8 1_555 1_555
C35_8 O11_8 1_555 1_555
C36_8 N3_8 1_555 1_555
H30_8 C36_8 1_555 1_555
H31_8 C36_8 1_555 1_555
C37_8 N3_8 1_555 1_555
H33_8 C37_8 1_555 1_555
H34_8 C37_8 1_555 1_555
H35_8 C37_8 1_555 1_555
O16_4 Cd4_4 1_555 1_555
C5_6 C6_8 1_555 1_555
C10_8 C13_8 1_555 1_555
C11_8 C12_8 1_555 1_555
C18_8 C19_8 1_555 1_555
C25_6 C26_6 1_555 1_555
C35_8 H37_8 1_555 1_555
O16_4 C28_8 1_555 1_555
C28_8 O7_8 1_555 1_555
C28_8 H36_8 1_555 1_555
C5_7 C4_7 1_555 1_555
C21_7 C5_7 1_555 1_555
H13_7 C23_7 1_555 1_555
C24_7 C23_7 1_555 1_555
C25_7 C24_7 1_555 1_555
H14_7 C25_7 1_555 1_555
C26_7 C21_7 1_555 1_555
H15_7 C26_7 1_555 1_555
C25_7 C26_7 1_555 1_555
C33_5 N2_5 1_555 1_555
H26_5 C33_5 1_555 1_555
C34_5 N2_5 1_555 1_555
H27_5 C34_5 1_555 1_555
H28_5 C34_5 1_555 1_555
H29_5 C34_5 1_555 1_555
C33_6 N2_6 1_555 1_555
H24_5 C33_6 1_555 1_555
H25_5 C33_6 1_555 1_555
H26_6 C33_6 1_555 1_555
C34_6 N2_6 1_555 1_555
H27_6 C34_6 1_555 1_555
H28_6 C34_6 1_555 1_555
H29_6 C34_6 1_555 1_555
C5_8 C4_8 1_555 1_555
C21_8 C5_8 1_555 1_555
H13_8 C23_8 1_555 1_555
C24_8 C23_8 1_555 1_555
C25_8 C24_8 1_555 1_555
H14_8 C25_8 1_555 1_555
C26_8 C21_8 1_555 1_555
H15_8 C26_8 1_555 1_555
C25_8 C26_8 1_555 1_555
C33_7 N2_7 1_555 1_555
H26_7 C33_7 1_555 1_555
C34_7 N2_7 1_555 1_555
H27_7 C34_7 1_555 1_555
H28_7 C34_7 1_555 1_555
H29_7 C34_7 1_555 1_555
C33_8 N2_8 1_555 1_555
H24_8 C33_8 1_555 1_555
H25_8 C33_8 1_555 1_555
H26_8 C33_8 1_555 1_555
C34_8 N2_8 1_555 1_555
H27_8 C34_8 1_555 1_555
H28_8 C34_8 1_555 1_555
H29_8 C34_8 1_555 1_555

#END
