
###############################################################################
#
# This file contains modified crystal structure data generated from the
# MOF subset of the Cambridge Structural Database (CSD) v543 
# hosted by the Cambridge Crystallographic Data Centre (CCDC).
#
# This work is licensed under the Creative Commons
# Attribution-NonCommercial-ShareAlike 4.0 International License.
# To view a copy of this license, visit
# http://creativecommons.org/licenses/by-nc-sa/4.0/
# or send a letter to
# Creative Commons, PO Box 1866, Mountain View, CA 94042, USA.
#
# CIF created using the CSD Python API on 29 September 2022
# The structure has been converted into the P1 space group
# The structure has a 3D framework
# The original CSD entry YAYSOJ is in the triclinic crystal system
# The framework has been calculated to contain at least 10.0% void space
# The void calculation uses a probe of radius 1.32A, grid spacing 0.4
#
###############################################################################

data_YAYSOJ
_chemical_formula_moiety         '(C132 H92 N12 O40 Zn8)n'
_symmetry_cell_setting           triclinic
_symmetry_space_group_name_H-M   'P 1'
_symmetry_Int_Tables_number      1
_space_group_name_Hall           'P 1'
loop_
_symmetry_equiv_pos_site_id
_symmetry_equiv_pos_as_xyz
1 x,y,z
_cell_length_a                   11.2432(15)
_cell_length_b                   21.829(3)
_cell_length_c                   25.837(4)
_cell_angle_alpha                98.929(2)
_cell_angle_beta                 92.438(2)
_cell_angle_gamma                94.814(2)
_cell_volume                     6232.22
loop_
_atom_site_label
_atom_site_type_symbol
_atom_site_fract_x
_atom_site_fract_y
_atom_site_fract_z
_atom_site_U_iso_or_equiv
_atom_site_thermal_displace_type
C88 C 0.0933(7) 0.4994(4) 0.0368(3) 0.0431 Uani
H59 H 0.1568 0.4985 0.0608 0.0520 Uiso
O27 O 0.3241(5) 0.5219(3) 0.0092(3) 0.0817 Uani
C78 C 0.7200(7) 0.6461(4) 0.8704(4) 0.0492 Uani
C79 C 0.6016(7) 0.6240(4) 0.8882(3) 0.0451 Uani
C80 C 0.5020(7) 0.6547(4) 0.8809(3) 0.0510 Uani
H54 H 0.5070 0.6891 0.8637 0.0610 Uiso
C81 C 0.3929(7) 0.6341(4) 0.8994(3) 0.0460 Uani
H55 H 0.3269 0.6559 0.8943 0.0550 Uiso
C82 C 0.3791(7) 0.5856(4) 0.9237(3) 0.0445 Uani
C83 C 0.4775(7) 0.5534(4) 0.9304(4) 0.0568 Uani
H56 H 0.4705 0.5184 0.9468 0.0680 Uiso
C84 C 0.5889(7) 0.5733(4) 0.9125(4) 0.0565 Uani
H57 H 0.6547 0.5513 0.9174 0.0680 Uiso
C85 C 0.2441(7) 0.5343(4) 0.9799(3) 0.0430 Uani
C86 C 0.1173(6) 0.5160(4) 0.9889(3) 0.0353 Uani
C87 C 0.0245(6) 0.5177(4) 0.9529(3) 0.0418 Uani
H58 H 0.0415 0.5291 0.9206 0.0500 Uiso
N8 N 0.2663(5) 0.5662(3) 0.9401(3) 0.0403 Uani
H60 H 0.2109 0.5934 0.9287 0.0480 Uiso
O25 O 0.7281(5) 0.6913(3) 0.8474(2) 0.0544 Uani
O26 O 0.8058(5) 0.6149(3) 0.8818(2) 0.0540 Uani
Zn17 Zn 0.83584(8) 0.70888(4) 0.77921(4) 0.0352 Uani
Zn18 Zn 0.96256(7) 0.64523(4) 0.86302(3) 0.0315 Uani
C106 C 0.8409(8) 0.9683(4) 0.8431(4) 0.0594 Uani
H70 H 0.8921 0.9687 0.8724 0.0710 Uiso
C107 C 0.8038(8) 0.9128(4) 0.8092(4) 0.0528 Uani
C108 C 0.7305(9) 0.9153(5) 0.7689(4) 0.0762 Uani
H71 H 0.7041 0.8778 0.7476 0.0910 Uiso
C109 C 0.6887(10) 0.9694(5) 0.7550(5) 0.0897 Uani
H72 H 0.6407 0.9687 0.7246 0.1070 Uiso
C110 C 0.8448(7) 0.8526(4) 0.8212(4) 0.0399 Uani
O33 O 0.9059(4) 0.8553(2) 0.8646(2) 0.0419 Uani
O34 O 0.8198(5) 0.8054(3) 0.7887(2) 0.0441 Uani
C116 C 0.9997(9) 0.7775(5) 0.1119(4) 0.0715 Uani
H75 H 0.9943 0.8141 0.1351 0.0860 Uiso
C117 C 0.9964(9) 0.7771(5) 0.0594(4) 0.0654 Uani
H76 H 0.9837 0.8142 0.0473 0.0780 Uiso
C122 C 0.9731(12) 0.7017(6) 0.3741(5) 0.0937 Uani
C123 C 0.8953(11) 0.7206(6) 0.3407(5) 0.0963 Uani
H79 H 0.8261 0.7371 0.3527 0.1150 Uiso
C124 C 0.9178(11) 0.7156(6) 0.2888(5) 0.0940 Uani
H80 H 0.8655 0.7312 0.2663 0.1130 Uiso
C125 C 0.9391(13) 0.7118(7) 0.4319(5) 0.1076 Uani
C127 C 0.9103(11) 0.7122(6) 0.5454(4) 0.0951 Uani
H81 H 0.8399 0.7158 0.5263 0.1140 Uiso
C128 C 0.9127(10) 0.7119(6) 0.5997(4) 0.0890 Uani
H82 H 0.8409 0.7120 0.6163 0.1070 Uiso
H87 H 0.9848 0.7625 0.2008 0.0890 Uiso
O35 O 0.9183(5) 0.7149(3) 0.7081(2) 0.0649 Uani
O42 O 0.8361(10) 0.7189(6) 0.4428(4) 0.1642 Uani
O28 O 0.9843(4) 0.7154(2) 0.82579(18) 0.0283 Uani
O32 O 0.9793(5) 0.7758(3) 0.9499(2) 0.0482 Uani
O37 O 0.8492(7) 0.6036(3) 0.7662(3) 0.1021 Uani
H89 H 0.9234 0.5985 0.7666 0.1230 Uiso
H90 H 0.8165 0.5865 0.7380 0.1540 Uiso
O38 O 0.6672(6) 0.6946(3) 0.7351(3) 0.1065 Uani
H91 H 0.6161 0.6779 0.7532 0.1280 Uiso
H92 H 0.6448 0.7273 0.7281 0.1600 Uiso
C56 C 0.2800(7) 0.3539(4) 0.1296(4) 0.0492 Uani
C57 C 0.3984(7) 0.3760(4) 0.1118(3) 0.0451 Uani
C58 C 0.4980(7) 0.3453(4) 0.1191(3) 0.0510 Uani
H31 H 0.4930 0.3109 0.1363 0.0610 Uiso
C59 C 0.6071(7) 0.3659(4) 0.1006(3) 0.0460 Uani
H32 H 0.6731 0.3441 0.1057 0.0550 Uiso
C60 C 0.6209(7) 0.4144(4) 0.0763(3) 0.0445 Uani
C61 C 0.5225(7) 0.4466(4) 0.0696(4) 0.0568 Uani
H33 H 0.5295 0.4816 0.0532 0.0680 Uiso
C62 C 0.4111(7) 0.4267(4) 0.0875(4) 0.0565 Uani
H34 H 0.3453 0.4487 0.0826 0.0680 Uiso
C63 C 0.7559(7) 0.4657(4) 0.0201(3) 0.0430 Uani
C64 C 0.8827(6) 0.4840(4) 0.0111(3) 0.0353 Uani
C65 C 0.9755(6) 0.4823(4) 0.0471(3) 0.0418 Uani
H35 H 0.9585 0.4709 0.0794 0.0500 Uiso
N5 N 0.7337(5) 0.4338(3) 0.0599(3) 0.0403 Uani
H41 H 0.7891 0.4066 0.0713 0.0480 Uiso
O1 O 0.0157(4) 0.2846(2) 0.17421(18) 0.0283 Uani
O7 O 0.0207(5) 0.2242(3) 0.0501(2) 0.0482 Uani
O12 O 0.1508(7) 0.3964(3) 0.2338(3) 0.1021 Uani
H43 H 0.0766 0.4015 0.2334 0.1230 Uiso
H44 H 0.1835 0.4135 0.2620 0.1540 Uiso
O13 O 0.3328(6) 0.3054(3) 0.2649(3) 0.1065 Uani
H45 H 0.3839 0.3221 0.2468 0.1280 Uiso
H46 H 0.3552 0.2727 0.2719 0.1600 Uiso
O14 O 0.2719(5) 0.3087(3) 0.1526(2) 0.0544 Uani
O16 O 0.1942(5) 0.3851(3) 0.1182(2) 0.0540 Uani
Zn3 Zn 0.16416(8) 0.29112(4) 0.22079(4) 0.0352 Uani
Zn4 Zn 0.03744(7) 0.35477(4) 0.13698(3) 0.0315 Uani
O43 O 0.0941(4) 0.1447(2) 0.1354(2) 0.0419 Uani
O45 O 0.1802(5) 0.1946(3) 0.2113(2) 0.0441 Uani
O47 O 0.0817(5) 0.2851(3) 0.2919(2) 0.0649 Uani
C28 C 0.0003(9) 0.2225(5) 0.8881(4) 0.0715 Uani
H15 H 0.0057 0.1859 0.8649 0.0860 Uiso
C29 C 0.0036(9) 0.2229(5) 0.9406(4) 0.0654 Uani
H16 H 0.0163 0.1858 0.9527 0.0780 Uiso
C34 C 0.0269(12) 0.2983(6) 0.6259(5) 0.0937 Uani
C35 C 0.1047(11) 0.2794(6) 0.6593(5) 0.0963 Uani
H19 H 0.1739 0.2629 0.6473 0.1150 Uiso
C36 C 0.0822(11) 0.2844(6) 0.7112(5) 0.0940 Uani
H20 H 0.1345 0.2688 0.7337 0.1130 Uiso
C37 C 0.0609(13) 0.2882(7) 0.5681(5) 0.1076 Uani
C39 C 0.0897(11) 0.2878(6) 0.4546(4) 0.0951 Uani
H21 H 0.1601 0.2842 0.4737 0.1140 Uiso
C40 C 0.0873(10) 0.2881(6) 0.4003(4) 0.0890 Uani
H22 H 0.1591 0.2880 0.3837 0.1070 Uiso
C66 C 0.9067(7) 0.5006(4) 0.9632(3) 0.0431 Uani
H36 H 0.8432 0.5015 0.9392 0.0520 Uiso
H39 H 0.0152 0.2375 0.7992 0.0890 Uiso
O18 O 0.6759(5) 0.4781(3) 0.9908(3) 0.0817 Uani
O20 O 0.1639(10) 0.2811(6) 0.5572(4) 0.1642 Uani
C18 C 0.1591(8) 0.0317(4) 0.1569(4) 0.0594 Uani
H10 H 0.1079 0.0313 0.1276 0.0710 Uiso
C19 C 0.1962(8) 0.0872(4) 0.1908(4) 0.0528 Uani
C20 C 0.2695(9) 0.0847(5) 0.2311(4) 0.0762 Uani
H11 H 0.2959 0.1222 0.2524 0.0910 Uiso
C21 C 0.3113(10) 0.0306(5) 0.2450(5) 0.0897 Uani
H12 H 0.3593 0.0313 0.2754 0.1070 Uiso
C22 C 0.1552(7) 0.1474(4) 0.1788(4) 0.0399 Uani
C1 C 0.8480(7) 0.4201(4) 0.1884(3) 0.0435 Uani
C2 C 0.7827(7) 0.4782(4) 0.1981(3) 0.0460 Uani
C3 C 0.6793(8) 0.4782(5) 0.2228(4) 0.0683 Uani
H1 H 0.6481 0.4423 0.2344 0.0820 Uiso
C4 C 0.6200(9) 0.5311(5) 0.2308(4) 0.0792 Uani
H2 H 0.5485 0.5306 0.2476 0.0950 Uiso
C5 C 0.6645(9) 0.5838(5) 0.2145(4) 0.0696 Uani
C6 C 0.7653(8) 0.5831(4) 0.1884(4) 0.0618 Uani
H3 H 0.7965 0.6191 0.1768 0.0740 Uiso
C7 C 0.8216(8) 0.5308(4) 0.1790(4) 0.0555 Uani
H4 H 0.8885 0.5305 0.1590 0.0660 Uiso
C8 C 0.5118(12) 0.6559(7) 0.2449(6) 0.1071 Uani
C9 C 0.4753(13) 0.7181(7) 0.2483(6) 0.1115 Uani
C10 C 0.3641(14) 0.7289(7) 0.2415(6) 0.1437 Uani
H5 H 0.3070 0.6954 0.2311 0.1730 Uiso
C11 C 0.3255(16) 0.7924(8) 0.2497(7) 0.1576 Uani
H6 H 0.2447 0.7989 0.2489 0.1890 Uiso
C12 C 0.4088(16) 0.8399(8) 0.2583(7) 0.1360 Uani
C13 C 0.5099(15) 0.8237(8) 0.2534(7) 0.1492 Uani
H7 H 0.5699 0.8560 0.2546 0.1790 Uiso
C14 C 0.5500(14) 0.7622(7) 0.2462(6) 0.1323 Uani
H8 H 0.6294 0.7559 0.2401 0.1590 Uiso
C15 C 0.3643(15) 0.9034(7) 0.2529(7) 0.1335 Uani
C16 C 0.2771(10) 0.9755(5) 0.2107(5) 0.0794 Uani
C17 C 0.2023(9) 0.9761(5) 0.1689(4) 0.0718 Uani
H9 H 0.1780 0.9387 0.1471 0.0860 Uiso
C23 C 0.9889(7) 0.2743(4) 0.0342(3) 0.0444 Uani
C45 C 0.7426(7) 0.1966(4) 0.1398(3) 0.0395 Uani
C46 C 0.6226(7) 0.1661(4) 0.1172(3) 0.0405 Uani
C47 C 0.6118(7) 0.1211(4) 0.0743(4) 0.0514 Uani
H25 H 0.6799 0.1090 0.0578 0.0620 Uiso
C48 C 0.5009(7) 0.0928(4) 0.0548(3) 0.0535 Uani
H26 H 0.4954 0.0585 0.0282 0.0640 Uiso
C49 C 0.3997(7) 0.1151(4) 0.0744(3) 0.0440 Uani
C50 C 0.4075(7) 0.1631(4) 0.1151(3) 0.0462 Uani
H27 H 0.3384 0.1789 0.1281 0.0550 Uiso
C51 C 0.5199(7) 0.1886(4) 0.1376(3) 0.0457 Uani
H28 H 0.5256 0.2205 0.1663 0.0550 Uiso
C52 C 0.2536(7) 0.0357(5) 0.0266(4) 0.0563 Uani
C53 C 0.1167(7) 0.0182(4) 0.0115(3) 0.0476 Uani
C55 C 0.0409(7) 0.0634(4) 0.0133(3) 0.0505 Uani
H30 H 0.0678 0.1053 0.0225 0.0600 Uiso
N1 N 0.6044(8) 0.6410(4) 0.2208(4) 0.0815 Uani
H37 H 0.6320 0.6676 0.1957 0.0970 Uiso
N2 N 0.3132(8) 0.9178(4) 0.2162(4) 0.0927 Uani
H38 H 0.3004 0.8872 0.1846 0.1110 Uiso
N6 N 0.2834(5) 0.0912(3) 0.0559(3) 0.0486 Uani
H42 H 0.2227 0.1196 0.0648 0.0580 Uiso
O2 O 0.8184(4) 0.3773(3) 0.2146(2) 0.0458 Uani
O3 O 0.9246(4) 0.4178(2) 0.1549(2) 0.0392 Uani
O4 O 0.7436(4) 0.2397(3) 0.1786(2) 0.0467 Uani
O5 O 0.8308(4) 0.1756(3) 0.1185(2) 0.0482 Uani
O6 O 0.9643(5) 0.3206(3) 0.0634(2) 0.0453 Uani
O15 O 0.4431(9) 0.6143(5) 0.2638(4) 0.1548 Uani
O17 O 0.3949(14) 0.9391(6) 0.2990(6) 0.2227 Uani
Zn1 Zn 0.99781(7) 0.21098(4) 0.12272(3) 0.0294 Uani
Zn2 Zn 0.87735(7) 0.29510(4) 0.21390(3) 0.0284 Uani
O49 O 0.8864(5) 0.2869(3) 0.2870(2) 0.0570 Uani
C24 C 0.9896(7) 0.2735(4) 0.9770(3) 0.0456 Uani
C25 C 0.9858(8) 0.3282(4) 0.9572(3) 0.0550 Uani
H13 H 0.9869 0.3652 0.9807 0.0660 Uiso
C26 C 0.9804(9) 0.3307(5) 0.9041(3) 0.0623 Uani
H14 H 0.9711 0.3682 0.8921 0.0750 Uiso
C27 C 0.9887(9) 0.2783(5) 0.8700(4) 0.0632 Uani
C30 C 0.9594(11) 0.3207(6) 0.7875(4) 0.0782 Uani
C31 C 0.9884(11) 0.3107(6) 0.7307(4) 0.0851 Uani
C32 C 0.9101(11) 0.3321(6) 0.6919(5) 0.0940 Uani
H17 H 0.8424 0.3512 0.7027 0.1130 Uiso
C33 C 0.9335(11) 0.3248(6) 0.6421(4) 0.0907 Uani
H18 H 0.8824 0.3389 0.6182 0.1090 Uiso
C38 C 0.9841(11) 0.2930(6) 0.4779(4) 0.0938 Uani
C41 C 0.9812(9) 0.2887(5) 0.3702(4) 0.0690 Uani
C42 C 0.8784(10) 0.2891(6) 0.3943(4) 0.0887 Uani
H23 H 0.8065 0.2869 0.3746 0.1070 Uiso
C43 C 0.8779(11) 0.2929(6) 0.4506(4) 0.0962 Uani
H24 H 0.8070 0.2952 0.4678 0.1160 Uiso
C44 C 0.9833(9) 0.2867(5) 0.3112(4) 0.0562 Uani
N3 N 0.9925(7) 0.2772(4) 0.8144(3) 0.0739 Uani
N4 N 0.9750(9) 0.2935(5) 0.5321(4) 0.1010 Uani
H40 H 0.8903 0.2909 0.5396 0.1210 Uiso
O19 O 0.9102(7) 0.3653(4) 0.8054(3) 0.0923 Uani
O21 O 0.3230(5) 0.9980(3) 0.0097(3) 0.0956 Uani
C54 C 0.0782(7) 0.9559(4) 0.9991(4) 0.0515 Uani
H29 H 0.1333 0.9264 0.9990 0.0610 Uiso
Zn10 Zn 0.00219(7) 0.78902(4) 0.87728(3) 0.0294 Uani
C112 C 0.0104(7) 0.7265(4) 0.0230(3) 0.0456 Uani
C113 C 0.0142(8) 0.6718(4) 0.0428(3) 0.0550 Uani
H73 H 0.0131 0.6348 0.0193 0.0660 Uiso
C114 C 0.0196(9) 0.6693(5) 0.0959(3) 0.0623 Uani
H74 H 0.0289 0.6318 0.1079 0.0750 Uiso
C115 C 0.0113(9) 0.7217(5) 0.1300(4) 0.0632 Uani
C118 C 0.0406(11) 0.6793(6) 0.2125(4) 0.0782 Uani
C119 C 0.0116(11) 0.6893(6) 0.2693(4) 0.0851 Uani
C120 C 0.0899(11) 0.6679(6) 0.3081(5) 0.0940 Uani
H77 H 0.1576 0.6488 0.2973 0.1130 Uiso
C121 C 0.0665(11) 0.6752(6) 0.3579(4) 0.0907 Uani
H78 H 0.1176 0.6611 0.3818 0.1090 Uiso
C126 C 0.0159(11) 0.7070(6) 0.5221(4) 0.0938 Uani
C129 C 0.0188(9) 0.7113(5) 0.6298(4) 0.0690 Uani
C130 C 0.1216(10) 0.7109(6) 0.6057(4) 0.0887 Uani
H83 H 0.1935 0.7131 0.6254 0.1070 Uiso
C131 C 0.1221(11) 0.7071(6) 0.5494(4) 0.0962 Uani
H84 H 0.1930 0.7048 0.5322 0.1160 Uiso
C132 C 0.0167(9) 0.7133(5) 0.6888(4) 0.0562 Uani
N11 N 0.0075(7) 0.7228(4) 0.1856(3) 0.0739 Uani
N12 N 0.0250(9) 0.7065(5) 0.4679(4) 0.1010 Uani
H88 H 0.1097 0.7091 0.4604 0.1210 Uiso
O36 O 0.1136(5) 0.7131(3) 0.7130(2) 0.0570 Uani
O41 O 0.0898(7) 0.6347(4) 0.1946(3) 0.0923 Uani
Zn12 Zn 0.12265(7) 0.70490(4) 0.78610(3) 0.0284 Uani
C67 C 0.2574(7) 0.8034(4) 0.8602(3) 0.0395 Uani
C68 C 0.3774(7) 0.8339(4) 0.8828(3) 0.0405 Uani
C69 C 0.3882(7) 0.8789(4) 0.9257(4) 0.0514 Uani
H47 H 0.3201 0.8910 0.9422 0.0620 Uiso
C70 C 0.4991(7) 0.9072(4) 0.9452(3) 0.0535 Uani
H48 H 0.5046 0.9415 0.9718 0.0640 Uiso
C71 C 0.6003(7) 0.8849(4) 0.9256(3) 0.0440 Uani
C72 C 0.5925(7) 0.8369(4) 0.8849(3) 0.0462 Uani
H49 H 0.6616 0.8211 0.8719 0.0550 Uiso
C73 C 0.4801(7) 0.8114(4) 0.8624(3) 0.0457 Uani
H50 H 0.4744 0.7795 0.8337 0.0550 Uiso
C74 C 0.7464(7) 0.9643(5) 0.9734(4) 0.0563 Uani
C75 C 0.8833(7) 0.9818(4) 0.9885(3) 0.0476 Uani
C77 C 0.9591(7) 0.9366(4) 0.9867(3) 0.0505 Uani
H52 H 0.9322 0.8947 0.9775 0.0600 Uiso
N7 N 0.7166(5) 0.9088(3) 0.9441(3) 0.0486 Uani
H53 H 0.7773 0.8804 0.9352 0.0580 Uiso
O22 O 0.2564(4) 0.7603(3) 0.8214(2) 0.0467 Uani
O23 O 0.1692(4) 0.8244(3) 0.8815(2) 0.0482 Uani
C89 C 0.1520(7) 0.5799(4) 0.8116(3) 0.0435 Uani
C90 C 0.2173(7) 0.5218(4) 0.8019(3) 0.0460 Uani
C91 C 0.3207(8) 0.5218(5) 0.7772(4) 0.0683 Uani
H61 H 0.3519 0.5577 0.7656 0.0820 Uiso
C92 C 0.3800(9) 0.4689(5) 0.7692(4) 0.0792 Uani
H62 H 0.4515 0.4694 0.7524 0.0950 Uiso
C93 C 0.3355(9) 0.4162(5) 0.7855(4) 0.0696 Uani
C94 C 0.2347(8) 0.4169(4) 0.8116(4) 0.0618 Uani
H63 H 0.2035 0.3809 0.8232 0.0740 Uiso
C95 C 0.1784(8) 0.4692(4) 0.8210(4) 0.0555 Uani
H64 H 0.1115 0.4695 0.8410 0.0660 Uiso
C96 C 0.4882(12) 0.3441(7) 0.7551(6) 0.1071 Uani
C97 C 0.5247(13) 0.2819(7) 0.7517(6) 0.1115 Uani
C98 C 0.6359(14) 0.2711(7) 0.7585(6) 0.1437 Uani
H65 H 0.6930 0.3046 0.7689 0.1730 Uiso
C99 C 0.6745(16) 0.2076(8) 0.7503(7) 0.1576 Uani
H66 H 0.7553 0.2011 0.7511 0.1890 Uiso
C100 C 0.5912(16) 0.1601(8) 0.7417(7) 0.1360 Uani
C101 C 0.4901(15) 0.1763(8) 0.7466(7) 0.1492 Uani
H67 H 0.4301 0.1440 0.7454 0.1790 Uiso
C102 C 0.4500(14) 0.2378(7) 0.7538(6) 0.1323 Uani
H68 H 0.3706 0.2441 0.7599 0.1590 Uiso
C103 C 0.6357(15) 0.0966(7) 0.7471(7) 0.1335 Uani
C104 C 0.7229(10) 0.0245(5) 0.7893(5) 0.0794 Uani
C105 C 0.7977(9) 0.0239(5) 0.8311(4) 0.0718 Uani
H69 H 0.8220 0.0613 0.8529 0.0860 Uiso
C111 C 0.0111(7) 0.7257(4) 0.9658(3) 0.0444 Uani
N9 N 0.3956(8) 0.3590(4) 0.7792(4) 0.0815 Uani
H85 H 0.3680 0.3324 0.8043 0.0970 Uiso
N10 N 0.6868(8) 0.0822(4) 0.7838(4) 0.0927 Uani
H86 H 0.6996 0.1128 0.8154 0.1110 Uiso
O29 O 0.1816(4) 0.6227(3) 0.7854(2) 0.0458 Uani
O30 O 0.0754(4) 0.5822(2) 0.8451(2) 0.0392 Uani
O31 O 0.0357(5) 0.6794(3) 0.9366(2) 0.0453 Uani
O39 O 0.5569(9) 0.3857(5) 0.7362(4) 0.1548 Uani
O40 O 0.6051(14) 0.0609(6) 0.7010(6) 0.2227 Uani
C76 C 0.9218(7) 0.0441(4) 0.0009(4) 0.0515 Uani
H51 H 0.8667 0.0736 0.0010 0.0610 Uiso
O24 O 0.6770(5) 0.0020(3) 0.9903(3) 0.0956 Uani
loop_
_atom_site_aniso_label
_atom_site_aniso_U_11
_atom_site_aniso_U_22
_atom_site_aniso_U_33
_atom_site_aniso_U_23
_atom_site_aniso_U_13
_atom_site_aniso_U_12
C88 0.03 0.056 0.046 0.021 0.004 -0.006
O27 0.034 0.136 0.092 0.074 0.005 0.002
C78 0.035 0.057 0.061 0.025 0.014 0.001
C79 0.032 0.057 0.053 0.029 0.012 0.001
C80 0.04 0.061 0.06 0.034 0.007 0.003
C81 0.035 0.056 0.055 0.031 0.003 0.009
C82 0.029 0.055 0.056 0.027 0.01 0.004
C83 0.039 0.069 0.073 0.042 0.012 0.005
C84 0.037 0.07 0.073 0.039 0.009 0.011
C85 0.026 0.061 0.049 0.031 0.001 0.004
C86 0.026 0.046 0.038 0.021 0.002 0.001
C87 0.03 0.057 0.044 0.025 0.006 0.003
N8 0.026 0.052 0.049 0.025 0.01 0.004
O25 0.038 0.056 0.076 0.031 0.022 -0.004
O26 0.032 0.066 0.07 0.027 0.019 0.001
Zn17 0.0298 0.0434 0.0343 0.0137 -0.0031 0.0026
Zn18 0.0269 0.0382 0.0335 0.0166 0.0064 0.0038
C106 0.067 0.057 0.057 0.014 -0.002 0.016
C107 0.059 0.05 0.052 0.014 -0.003 0.012
C108 0.088 0.065 0.076 0.01 -0.022 0.025
C109 0.108 0.076 0.088 0.015 -0.027 0.038
C110 0.036 0.043 0.042 0.009 0.005 0.006
O33 0.036 0.048 0.043 0.008 0 0.012
O34 0.049 0.04 0.044 0.009 -0.009 0.01
C116 0.099 0.071 0.046 0.012 0.007 0.01
C117 0.091 0.061 0.048 0.018 0.009 0.01
C122 0.102 0.124 0.062 0.03 -0.001 0.026
C123 0.108 0.124 0.063 0.023 0.005 0.031
C124 0.104 0.114 0.069 0.022 0.007 0.024
C125 0.108 0.151 0.071 0.035 -0.001 0.024
C127 0.08 0.153 0.052 0.019 0 0.005
C128 0.073 0.144 0.054 0.03 0.003 0.007
O35 0.063 0.1 0.036 0.02 0.004 0.014
O42 0.14 0.282 0.086 0.05 0.012 0.067
O28 0.024 0.04 0.026 0.016 0.006 0.01
O32 0.057 0.057 0.035 0.018 0.006 0.009
O37 0.125 0.14 0.071 0.054 0.026 0.105
O38 0.108 0.098 0.094 0.001 -0.001 -0.075
C56 0.035 0.057 0.061 0.025 0.014 0.001
C57 0.032 0.057 0.053 0.029 0.012 0.001
C58 0.04 0.061 0.06 0.034 0.007 0.003
C59 0.035 0.056 0.055 0.031 0.003 0.009
C60 0.029 0.055 0.056 0.027 0.01 0.004
C61 0.039 0.069 0.073 0.042 0.012 0.005
C62 0.037 0.07 0.073 0.039 0.009 0.011
C63 0.026 0.061 0.049 0.031 0.001 0.004
C64 0.026 0.046 0.038 0.021 0.002 0.001
C65 0.03 0.057 0.044 0.025 0.006 0.003
N5 0.026 0.052 0.049 0.025 0.01 0.004
O1 0.024 0.04 0.026 0.016 0.006 0.01
O7 0.057 0.057 0.035 0.018 0.006 0.009
O12 0.125 0.14 0.071 0.054 0.026 0.105
O13 0.108 0.098 0.094 0.001 -0.001 -0.075
O14 0.038 0.056 0.076 0.031 0.022 -0.004
O16 0.032 0.066 0.07 0.027 0.019 0.001
Zn3 0.0298 0.0434 0.0343 0.0137 -0.0031 0.0026
Zn4 0.0269 0.0382 0.0335 0.0166 0.0064 0.0038
O43 0.036 0.048 0.043 0.008 0 0.012
O45 0.049 0.04 0.044 0.009 -0.009 0.01
O47 0.063 0.1 0.036 0.02 0.004 0.014
C28 0.099 0.071 0.046 0.012 0.007 0.01
C29 0.091 0.061 0.048 0.018 0.009 0.01
C34 0.102 0.124 0.062 0.03 -0.001 0.026
C35 0.108 0.124 0.063 0.023 0.005 0.031
C36 0.104 0.114 0.069 0.022 0.007 0.024
C37 0.108 0.151 0.071 0.035 -0.001 0.024
C39 0.08 0.153 0.052 0.019 0 0.005
C40 0.073 0.144 0.054 0.03 0.003 0.007
C66 0.03 0.056 0.046 0.021 0.004 -0.006
O18 0.034 0.136 0.092 0.074 0.005 0.002
O20 0.14 0.282 0.086 0.05 0.012 0.067
C18 0.067 0.057 0.057 0.014 -0.002 0.016
C19 0.059 0.05 0.052 0.014 -0.003 0.012
C20 0.088 0.065 0.076 0.01 -0.022 0.025
C21 0.108 0.076 0.088 0.015 -0.027 0.038
C22 0.036 0.043 0.042 0.009 0.005 0.006
C1 0.044 0.041 0.049 0.014 0.011 0.008
C2 0.047 0.04 0.057 0.02 0.016 0.009
C3 0.068 0.06 0.089 0.032 0.037 0.023
C4 0.079 0.072 0.101 0.036 0.041 0.031
C5 0.074 0.061 0.087 0.034 0.028 0.03
C6 0.065 0.053 0.077 0.028 0.019 0.021
C7 0.056 0.052 0.064 0.019 0.022 0.01
C8 0.11 0.092 0.133 0.032 0.046 0.043
C9 0.105 0.093 0.148 0.031 0.028 0.044
C10 0.133 0.117 0.187 0.024 0.022 0.04
C11 0.146 0.129 0.203 0.025 0.014 0.043
C12 0.136 0.11 0.169 0.029 -0.001 0.044
C13 0.145 0.119 0.187 0.023 0.019 0.029
C14 0.126 0.107 0.169 0.019 0.026 0.037
C15 0.158 0.109 0.138 0.021 -0.015 0.047
C16 0.095 0.069 0.078 0.012 -0.011 0.038
C17 0.083 0.066 0.069 0.009 0 0.027
C23 0.049 0.05 0.038 0.016 0.003 0.01
C45 0.034 0.04 0.045 0.009 0.003 0.002
C46 0.029 0.045 0.046 0.004 0.001 0.001
C47 0.031 0.058 0.059 -0.01 0.009 0.001
C48 0.034 0.062 0.054 -0.021 0 0.001
C49 0.026 0.05 0.05 -0.009 -0.001 0.001
C50 0.031 0.05 0.053 -0.006 0.004 0.003
C51 0.037 0.047 0.05 -0.002 0.002 0.004
C52 0.031 0.063 0.069 -0.009 0.004 0.005
C53 0.033 0.05 0.056 0 -0.006 0.001
C55 0.033 0.053 0.062 0.002 -0.011 0.003
N1 0.091 0.069 0.099 0.035 0.037 0.035
N2 0.117 0.074 0.095 0.022 -0.014 0.049
N6 0.03 0.05 0.058 -0.015 0.004 0.002
O2 0.044 0.044 0.056 0.02 0.018 0.012
O3 0.037 0.04 0.046 0.016 0.019 0.009
O4 0.034 0.055 0.047 0.001 -0.002 -0.004
O5 0.027 0.052 0.059 -0.007 0.001 -0.004
O6 0.052 0.056 0.03 0.013 -0.003 0.008
O15 0.164 0.11 0.222 0.067 0.103 0.074
O17 0.335 0.151 0.183 0.019 -0.085 0.092
Zn1 0.0246 0.0372 0.0281 0.0101 0.0013 0.0045
Zn2 0.0243 0.0389 0.0243 0.0118 0.0026 0.0031
O49 0.044 0.089 0.043 0.026 0.002 0.007
C24 0.055 0.047 0.038 0.012 0.003 0.014
C25 0.075 0.056 0.036 0.011 -0.001 0.013
C26 0.092 0.062 0.037 0.018 -0.001 0.014
C27 0.088 0.065 0.039 0.013 0.004 0.012
C30 0.099 0.088 0.052 0.019 0.004 0.02
C31 0.095 0.106 0.059 0.025 0.001 0.016
C32 0.094 0.125 0.067 0.027 -0.003 0.015
C33 0.097 0.124 0.055 0.025 -0.005 0.017
C38 0.088 0.145 0.05 0.021 0.008 0.007
C41 0.062 0.107 0.043 0.028 0.006 0.005
C42 0.074 0.141 0.055 0.024 0.014 0.012
C43 0.084 0.151 0.056 0.022 0.015 0.009
C44 0.052 0.083 0.036 0.016 0.002 0.009
N3 0.102 0.079 0.046 0.02 0.006 0.019
N4 0.096 0.152 0.06 0.033 0.001 0.012
O19 0.114 0.12 0.054 0.03 0.003 0.047
O21 0.028 0.089 0.144 -0.058 -0.003 0.002
C54 0.03 0.051 0.069 -0.003 -0.01 0.008
Zn10 0.0246 0.0372 0.0281 0.0101 0.0013 0.0045
C112 0.055 0.047 0.038 0.012 0.003 0.014
C113 0.075 0.056 0.036 0.011 -0.001 0.013
C114 0.092 0.062 0.037 0.018 -0.001 0.014
C115 0.088 0.065 0.039 0.013 0.004 0.012
C118 0.099 0.088 0.052 0.019 0.004 0.02
C119 0.095 0.106 0.059 0.025 0.001 0.016
C120 0.094 0.125 0.067 0.027 -0.003 0.015
C121 0.097 0.124 0.055 0.025 -0.005 0.017
C126 0.088 0.145 0.05 0.021 0.008 0.007
C129 0.062 0.107 0.043 0.028 0.006 0.005
C130 0.074 0.141 0.055 0.024 0.014 0.012
C131 0.084 0.151 0.056 0.022 0.015 0.009
C132 0.052 0.083 0.036 0.016 0.002 0.009
N11 0.102 0.079 0.046 0.02 0.006 0.019
N12 0.096 0.152 0.06 0.033 0.001 0.012
O36 0.044 0.089 0.043 0.026 0.002 0.007
O41 0.114 0.12 0.054 0.03 0.003 0.047
Zn12 0.0243 0.0389 0.0243 0.0118 0.0026 0.0031
C67 0.034 0.04 0.045 0.009 0.003 0.002
C68 0.029 0.045 0.046 0.004 0.001 0.001
C69 0.031 0.058 0.059 -0.01 0.009 0.001
C70 0.034 0.062 0.054 -0.021 0 0.001
C71 0.026 0.05 0.05 -0.009 -0.001 0.001
C72 0.031 0.05 0.053 -0.006 0.004 0.003
C73 0.037 0.047 0.05 -0.002 0.002 0.004
C74 0.031 0.063 0.069 -0.009 0.004 0.005
C75 0.033 0.05 0.056 0 -0.006 0.001
C77 0.033 0.053 0.062 0.002 -0.011 0.003
N7 0.03 0.05 0.058 -0.015 0.004 0.002
O22 0.034 0.055 0.047 0.001 -0.002 -0.004
O23 0.027 0.052 0.059 -0.007 0.001 -0.004
C89 0.044 0.041 0.049 0.014 0.011 0.008
C90 0.047 0.04 0.057 0.02 0.016 0.009
C91 0.068 0.06 0.089 0.032 0.037 0.023
C92 0.079 0.072 0.101 0.036 0.041 0.031
C93 0.074 0.061 0.087 0.034 0.028 0.03
C94 0.065 0.053 0.077 0.028 0.019 0.021
C95 0.056 0.052 0.064 0.019 0.022 0.01
C96 0.11 0.092 0.133 0.032 0.046 0.043
C97 0.105 0.093 0.148 0.031 0.028 0.044
C98 0.133 0.117 0.187 0.024 0.022 0.04
C99 0.146 0.129 0.203 0.025 0.014 0.043
C100 0.136 0.11 0.169 0.029 -0.001 0.044
C101 0.145 0.119 0.187 0.023 0.019 0.029
C102 0.126 0.107 0.169 0.019 0.026 0.037
C103 0.158 0.109 0.138 0.021 -0.015 0.047
C104 0.095 0.069 0.078 0.012 -0.011 0.038
C105 0.083 0.066 0.069 0.009 0 0.027
C111 0.049 0.05 0.038 0.016 0.003 0.01
N9 0.091 0.069 0.099 0.035 0.037 0.035
N10 0.117 0.074 0.095 0.022 -0.014 0.049
O29 0.044 0.044 0.056 0.02 0.018 0.012
O30 0.037 0.04 0.046 0.016 0.019 0.009
O31 0.052 0.056 0.03 0.013 -0.003 0.008
O39 0.164 0.11 0.222 0.067 0.103 0.074
O40 0.335 0.151 0.183 0.019 -0.085 0.092
C76 0.03 0.051 0.069 -0.003 -0.01 0.008
O24 0.028 0.089 0.144 -0.058 -0.003 0.002
loop_
_geom_bond_atom_site_label_1
_geom_bond_atom_site_label_2
_geom_bond_site_symmetry_1
_geom_bond_site_symmetry_2
H59 C88 1_555 1_555
C78 C79 1_555 1_555
C79 C80 1_555 1_555
C80 H54 1_555 1_555
C81 C80 1_555 1_555
H55 C81 1_555 1_555
C82 C81 1_555 1_555
C83 C82 1_555 1_555
H56 C83 1_555 1_555
C84 C79 1_555 1_555
H57 C84 1_555 1_555
C85 C86 1_555 1_555
C86 C87 1_555 1_555
H58 C87 1_555 1_555
N8 C82 1_555 1_555
H60 N8 1_555 1_555
O25 C78 1_555 1_555
O26 C78 1_555 1_555
Zn17 O25 1_555 1_555
Zn18 O26 1_555 1_555
C83 C84 1_555 1_555
C85 N8 1_555 1_555
H70 C106 1_555 1_555
C107 C106 1_555 1_555
C108 C107 1_555 1_555
H71 C108 1_555 1_555
H72 C109 1_555 1_555
C110 C107 1_555 1_555
O33 C110 1_555 1_555
O34 C110 1_555 1_555
Zn17 O34 1_555 1_555
C108 C109 1_555 1_555
H75 C116 1_555 1_555
H76 C117 1_555 1_555
C123 C122 1_555 1_555
H79 C123 1_555 1_555
H80 C124 1_555 1_555
C125 C122 1_555 1_555
C127 H81 1_555 1_555
C128 C127 1_555 1_555
H82 C128 1_555 1_555
O42 C125 1_555 1_555
Zn17 O35 1_555 1_555
C116 C117 1_555 1_555
C123 C124 1_555 1_555
O37 H89 1_555 1_555
H90 O37 1_555 1_555
O38 H91 1_555 1_555
H92 O38 1_555 1_555
Zn17 O28 1_555 1_555
Zn18 O28 1_555 1_555
O37 Zn17 1_555 1_555
O38 Zn17 1_555 1_555
C56 C57 1_555 1_555
C57 C58 1_555 1_555
C58 H31 1_555 1_555
C59 C58 1_555 1_555
H32 C59 1_555 1_555
C60 C59 1_555 1_555
C61 C60 1_555 1_555
H33 C61 1_555 1_555
C62 C57 1_555 1_555
H34 C62 1_555 1_555
C63 C64 1_555 1_555
C64 C65 1_555 1_555
C65 H35 1_555 1_555
N5 C60 1_555 1_555
H41 N5 1_555 1_555
O12 H43 1_555 1_555
H44 O12 1_555 1_555
O13 H45 1_555 1_555
H46 O13 1_555 1_555
O14 C56 1_555 1_555
O16 C56 1_555 1_555
Zn3 O1 1_555 1_555
Zn4 O1 1_555 1_555
O45 Zn3 1_555 1_555
O47 Zn3 1_555 1_555
C61 C62 1_555 1_555
C63 N5 1_555 1_555
O12 Zn3 1_555 1_555
O13 Zn3 1_555 1_555
O14 Zn3 1_555 1_555
O16 Zn4 1_555 1_555
H15 C28 1_555 1_555
H16 C29 1_555 1_555
C35 C34 1_555 1_555
H19 C35 1_555 1_555
H20 C36 1_555 1_555
C37 C34 1_555 1_555
C39 H21 1_555 1_555
C40 C39 1_555 1_555
H22 C40 1_555 1_555
H36 C66 1_555 1_555
O20 C37 1_555 1_555
C28 C29 1_555 1_555
C35 C36 1_555 1_555
H10 C18 1_555 1_555
C19 C18 1_555 1_555
C20 C19 1_555 1_555
H11 C20 1_555 1_555
H12 C21 1_555 1_555
C22 C19 1_555 1_555
O43 C22 1_555 1_555
O45 C22 1_555 1_555
C20 C21 1_555 1_555
C1 C2 1_555 1_555
C2 C3 1_555 1_555
C3 H1 1_555 1_555
C4 C3 1_555 1_555
H2 C4 1_555 1_555
C5 C4 1_555 1_555
C6 C5 1_555 1_555
H3 C6 1_555 1_555
C7 C2 1_555 1_555
H4 C7 1_555 1_555
C8 C9 1_555 1_555
C9 C10 1_555 1_555
C10 H5 1_555 1_555
C11 C10 1_555 1_555
H6 C11 1_555 1_555
C12 C11 1_555 1_555
C13 C12 1_555 1_555
H7 C13 1_555 1_555
C14 C9 1_555 1_555
H8 C14 1_555 1_555
C15 C12 1_555 1_555
C16 C17 1_555 1_555
C17 H9 1_555 1_555
C45 C46 1_555 1_555
C46 C47 1_555 1_555
C47 H25 1_555 1_555
C48 C47 1_555 1_555
H26 C48 1_555 1_555
C49 C48 1_555 1_555
C50 C49 1_555 1_555
H27 C50 1_555 1_555
C51 C46 1_555 1_555
H28 C51 1_555 1_555
C52 C53 1_555 1_555
C55 C53 1_555 1_555
H30 C55 1_555 1_555
N1 C5 1_555 1_555
H37 N1 1_555 1_555
N2 C15 1_555 1_555
H38 N2 1_555 1_555
N6 C49 1_555 1_555
H42 N6 1_555 1_555
O2 C1 1_555 1_555
O3 C1 1_555 1_555
O4 C45 1_555 1_555
O5 C45 1_555 1_555
O6 C23 1_555 1_555
O15 C8 1_555 1_555
O17 C15 1_555 1_555
Zn1 O5 1_555 1_555
O49 Zn2 1_555 1_555
C6 C7 1_555 1_555
C8 N1 1_555 1_555
C13 C14 1_555 1_555
C16 N2 1_555 1_555
C50 C51 1_555 1_555
C52 N6 1_555 1_555
O2 Zn2 1_555 1_555
O4 Zn2 1_555 1_555
C24 C25 1_555 1_555
C25 H13 1_555 1_555
C26 C25 1_555 1_555
H14 C26 1_555 1_555
C27 C26 1_555 1_555
C30 C31 1_555 1_555
C31 C32 1_555 1_555
C32 H17 1_555 1_555
C33 C32 1_555 1_555
H18 C33 1_555 1_555
C42 C41 1_555 1_555
H23 C42 1_555 1_555
C43 C38 1_555 1_555
H24 C43 1_555 1_555
C44 C41 1_555 1_555
N3 C27 1_555 1_555
H40 N4 1_555 1_555
O49 C44 1_555 1_555
O19 C30 1_555 1_555
C30 N3 1_555 1_555
C38 N4 1_555 1_555
C42 C43 1_555 1_555
C54 H29 1_555 1_555
C112 C113 1_555 1_555
C113 H73 1_555 1_555
C114 C113 1_555 1_555
H74 C114 1_555 1_555
C115 C114 1_555 1_555
C118 C119 1_555 1_555
C119 C120 1_555 1_555
C120 H77 1_555 1_555
C121 C120 1_555 1_555
H78 C121 1_555 1_555
C130 C129 1_555 1_555
H83 C130 1_555 1_555
C131 C126 1_555 1_555
H84 C131 1_555 1_555
C132 C129 1_555 1_555
N11 C115 1_555 1_555
H88 N12 1_555 1_555
O36 C132 1_555 1_555
O41 C118 1_555 1_555
Zn12 O36 1_555 1_555
C118 N11 1_555 1_555
C126 N12 1_555 1_555
C130 C131 1_555 1_555
C67 C68 1_555 1_555
C68 C69 1_555 1_555
C69 H47 1_555 1_555
C70 C69 1_555 1_555
H48 C70 1_555 1_555
C71 C70 1_555 1_555
C72 C71 1_555 1_555
H49 C72 1_555 1_555
C73 C68 1_555 1_555
H50 C73 1_555 1_555
C74 C75 1_555 1_555
H52 C77 1_555 1_555
N7 C71 1_555 1_555
H53 N7 1_555 1_555
O22 C67 1_555 1_555
O23 C67 1_555 1_555
C89 C90 1_555 1_555
C90 C91 1_555 1_555
C91 H61 1_555 1_555
C92 C91 1_555 1_555
H62 C92 1_555 1_555
C93 C92 1_555 1_555
C94 C93 1_555 1_555
H63 C94 1_555 1_555
C95 C90 1_555 1_555
H64 C95 1_555 1_555
C96 C97 1_555 1_555
C97 C98 1_555 1_555
C98 H65 1_555 1_555
C99 C98 1_555 1_555
H66 C99 1_555 1_555
C100 C99 1_555 1_555
C101 C100 1_555 1_555
H67 C101 1_555 1_555
C102 C97 1_555 1_555
H68 C102 1_555 1_555
C103 C100 1_555 1_555
C104 C105 1_555 1_555
C105 H69 1_555 1_555
N9 C93 1_555 1_555
H85 N9 1_555 1_555
N10 C103 1_555 1_555
H86 N10 1_555 1_555
O29 C89 1_555 1_555
O30 C89 1_555 1_555
O31 C111 1_555 1_555
O39 C96 1_555 1_555
O40 C103 1_555 1_555
Zn10 O23 1_555 1_555
Zn12 O22 1_555 1_555
C72 C73 1_555 1_555
C74 N7 1_555 1_555
C75 C77 1_555 1_555
C94 C95 1_555 1_555
C96 N9 1_555 1_555
C101 C102 1_555 1_555
C104 N10 1_555 1_555
O29 Zn12 1_555 1_555
H51 C76 1_555 1_555

#END
