
###############################################################################
#
# This file contains modified crystal structure data generated from the
# MOF subset of the Cambridge Structural Database (CSD) v543 
# hosted by the Cambridge Crystallographic Data Centre (CCDC).
#
# This work is licensed under the Creative Commons
# Attribution-NonCommercial-ShareAlike 4.0 International License.
# To view a copy of this license, visit
# http://creativecommons.org/licenses/by-nc-sa/4.0/
# or send a letter to
# Creative Commons, PO Box 1866, Mountain View, CA 94042, USA.
#
# CIF created using the CSD Python API on 29 September 2022
# The structure has been converted into the P1 space group
# The structure has a 3D framework
# The original CSD entry YAZFOW is in the tetragonal crystal system
# The original CSD entry YAZFOW is in a Sohncke space group
# The framework has been calculated to contain at least 10.0% void space
# The void calculation uses a probe of radius 1.32A, grid spacing 0.4
#
###############################################################################

data_YAZFOW
_chemical_formula_moiety         '(C84 H42 In5 O37)n'
_symmetry_cell_setting           triclinic
_symmetry_space_group_name_H-M   'P 1'
_symmetry_Int_Tables_number      1
_space_group_name_Hall           'P 1'
loop_
_symmetry_equiv_pos_site_id
_symmetry_equiv_pos_as_xyz
1 x,y,z
_cell_length_a                   15.5665(6)
_cell_length_b                   15.5665(6)
_cell_length_c                   12.3201(14)
_cell_angle_alpha                90
_cell_angle_beta                 90
_cell_angle_gamma                90
_cell_volume                     2985.36
loop_
_atom_site_label
_atom_site_type_symbol
_atom_site_fract_x
_atom_site_fract_y
_atom_site_fract_z
In1 In 0.312034(9) 0.312034(9) 0.0000
O1 O 0.20853(10) 0.40768(11) 0.00497(17)
O3 O 0.2490(2) 0.2500 0.1250
H1 H 0.1926 0.2500 0.1250
C1 C 0.0000 0.5000 0.1887(3)
C2 C 0.06782(17) 0.46332(16) 0.1311(2)
H2 H 0.1140 0.4398 0.1687
C3 C 0.06750(16) 0.46143(15) 0.0185(2)
In2 In 0.187966(9) 0.187966(9) 0.5000
In4 In 0.312034(9) 0.187966(9) 0.2500
In5 In 0.187966(9) 0.312034(9) 0.7500
O4 O 0.09232(11) 0.29147(10) 0.49503(17)
O8 O 0.29147(10) 0.09232(11) 0.50497(17)
O9 O 0.11105(14) 0.38292(13) 0.63584(13)
O12 O 0.38895(14) 0.38292(13) 0.11416(13)
O14 O 0.11708(13) 0.11105(14) 0.38584(13)
O15 O 0.11105(14) 0.11708(13) 0.61416(13)
O17 O 0.2500 0.2510(2) 0.3750
O18 O 0.2510(2) 0.2500 0.6250
H5 H 0.2500 0.3074 0.3750
H6 H 0.3074 0.2500 0.6250
C6 C 0.0000 0.5000 0.3113(3)
C8 C 0.03668(16) 0.43218(17) 0.3689(2)
H8 H 0.0602 0.3860 0.3313
C11 C 0.03857(15) 0.43250(16) 0.4815(2)
C13 C 0.0000 0.5000 0.5386(2)
H10 H 0.0000 0.5000 0.6141
C14 C 0.08402(15) 0.36281(16) 0.54126(19)
In1_2 In 0.312034(9) 0.312034(9) 1.0000
O2 O 0.11708(13) 0.38895(14) 0.86416(13)
C4 C 0.0000 0.5000 0.9614(2)
H3 H 0.0000 0.5000 0.8859
C5 C 0.13719(16) 0.41598(15) 0.95874(19)
O7 O 0.40768(11) 0.20853(10) 0.99503(17)
O13 O 0.38292(13) 0.38895(14) 0.88584(13)
O16 O 0.2500 0.2490(2) 0.8750
H4 H 0.2500 0.1926 0.8750
C1_2 C 1.0000 0.5000 0.1887(3)
In6 In 0.812034(9) 0.812034(9) 0.5000
In7 In 0.812034(9) 0.687966(9) 0.7500
In8 In 0.687966(9) 0.687966(9) 0.0000
O5 O 0.90768(11) 0.70853(10) 0.49503(17)
O6 O 0.79147(10) 0.59232(11) 0.00497(17)
O10 O 0.88895(14) 0.61708(13) 0.63584(13)
C6_2 C 1.0000 0.5000 0.3113(3)
C7 C 0.96332(16) 0.56782(17) 0.3689(2)
C9 C 0.93218(17) 0.53668(16) 0.1311(2)
H7 H 0.9398 0.6140 0.3313
H9 H 0.8860 0.5602 0.1687
C10 C 0.96143(15) 0.56750(16) 0.4815(2)
C12 C 0.93250(16) 0.53857(15) 0.0185(2)
C13_2 C 1.0000 0.5000 0.5386(2)
H10_2 H 1.0000 0.5000 0.6141
C15 C 0.91598(15) 0.63719(16) 0.54126(19)
C4_2 C 1.0000 0.5000 0.9614(2)
H3_2 H 1.0000 0.5000 0.8859
In8_2 In 0.687966(9) 0.687966(9) 1.0000
O11 O 0.88292(13) 0.61105(14) 0.86416(13)
C16 C 0.86281(16) 0.58402(15) 0.95874(19)
In1_3 In 0.687966(9) 0.812034(9) 0.2500
O1_2 O 0.59232(11) 0.70853(10) 0.25497(17)
O2_2 O 0.61105(14) 0.61708(13) 0.11416(13)
O3_2 O 0.7500 0.7490(2) 0.3750
H1_2 H 0.7500 0.6926 0.3750
C1_3 C 0.5000 0.5000 0.4387(3)
C2_2 C 0.53668(16) 0.56782(17) 0.3811(2)
H2_2 H 0.5602 0.6140 0.4187
C3_2 C 0.53857(15) 0.56750(16) 0.2685(2)
C4_3 C 0.5000 0.5000 0.2114(2)
H3_3 H 0.5000 0.5000 0.1359
C5_2 C 0.58402(15) 0.63719(16) 0.20874(19)
O4_2 O 0.70853(10) 0.59232(11) 0.74503(17)
O5_2 O 0.29147(10) 0.40768(11) 0.74503(17)
O6_2 O 0.40768(11) 0.29147(10) 0.25497(17)
O7_2 O 0.79147(10) 0.90768(11) 0.24503(17)
O8_2 O 0.90768(11) 0.79147(10) 0.75497(17)
O9_2 O 0.61708(13) 0.61105(14) 0.88584(13)
O12_2 O 0.61708(13) 0.88895(14) 0.36416(13)
O13_2 O 0.61105(14) 0.88292(13) 0.13584(13)
O16_2 O 0.7510(2) 0.7500 0.1250
O17_2 O 0.7490(2) 0.7500 0.6250
O18_2 O 0.7500 0.7510(2) 0.8750
H4_2 H 0.8074 0.7500 0.1250
H5_2 H 0.6926 0.7500 0.6250
H6_2 H 0.7500 0.8074 0.8750
C6_3 C 0.5000 0.5000 0.5613(3)
C7_2 C 0.43218(17) 0.46332(16) 0.6189(2)
C8_2 C 0.56782(17) 0.53668(16) 0.6189(2)
C9_2 C 0.46332(16) 0.43218(17) 0.3811(2)
H7_2 H 0.3860 0.4398 0.5813
H8_2 H 0.6140 0.5602 0.5813
H9_2 H 0.4398 0.3860 0.4187
C10_2 C 0.43250(16) 0.46143(15) 0.7315(2)
C11_2 C 0.56750(16) 0.53857(15) 0.7315(2)
C12_2 C 0.46143(15) 0.43250(16) 0.2685(2)
C13_3 C 0.5000 0.5000 0.7886(2)
H10_3 H 0.5000 0.5000 0.8641
C14_2 C 0.63719(16) 0.58402(15) 0.79126(19)
C15_2 C 0.36281(16) 0.41598(15) 0.79126(19)
C16_2 C 0.41598(15) 0.36281(16) 0.20874(19)
O8_3 O 0.70853(10) 0.90768(11) 0.50497(17)
O14_2 O 0.88292(13) 0.88895(14) 0.38584(13)
O15_2 O 0.88895(14) 0.88292(13) 0.61416(13)
O7_3 O 0.59232(11) 0.79147(10) 0.99503(17)
O7_4 O 0.20853(10) 0.09232(11) 0.24503(17)
O8_4 O 0.09232(11) 0.20853(10) 0.75497(17)
O12_3 O 0.38292(13) 0.11105(14) 0.36416(13)
O13_3 O 0.38895(14) 0.11708(13) 0.13584(13)
C1_4 C 0.0000 0.0000 0.0613(3)
C2_3 C 0.06782(17) 0.03668(16) 0.1189(2)
H2_3 H 0.1140 0.0602 0.0813
C3_3 C 0.06750(16) 0.03857(15) 0.2315(2)
C4_4 C 0.0000 0.0000 0.2886(2)
H3_4 H 0.0000 0.0000 0.3641
C5_3 C 0.13719(16) 0.08402(15) 0.29126(19)
C6_4 C 0.0000 0.0000 0.9387(3)
C8_3 C 0.03668(16) 0.06782(17) 0.8811(2)
H8_3 H 0.0602 0.1140 0.9187
C11_3 C 0.03857(15) 0.06750(16) 0.7685(2)
C13_4 C 0.0000 0.0000 0.7114(2)
H10_4 H 0.0000 -0.0000 0.6359
C14_3 C 0.08402(15) 0.13719(16) 0.70874(19)
C1_5 C 1.0000 1.0000 0.0613(3)
C4_5 C 1.0000 1.0000 0.2886(2)
H3_5 H 1.0000 1.0000 0.3641
C9_3 C 0.93218(17) 0.96332(16) 0.1189(2)
H9_3 H 0.8860 0.9398 0.0813
C12_3 C 0.93250(16) 0.96143(15) 0.2315(2)
C16_3 C 0.86281(16) 0.91598(15) 0.29126(19)
C6_5 C 1.0000 1.0000 0.9387(3)
C7_3 C 0.96332(16) 0.93218(17) 0.8811(2)
H7_3 H 0.9398 0.8860 0.9187
C10_3 C 0.96143(15) 0.93250(16) 0.7685(2)
C13_5 C 1.0000 1.0000 0.7114(2)
H10_5 H 1.0000 1.0000 0.6359
C15_3 C 0.91598(15) 0.86281(16) 0.70874(19)
C4_6 C 0.5000 0.0000 0.0386(2)
H3_6 H 0.5000 0.0000 0.1141
C5_4 C 0.41598(15) 0.13719(16) 0.04126(19)
C1_6 C 0.5000 0.0000 0.8113(3)
C2_4 C 0.46332(16) 0.06782(17) 0.8689(2)
H2_4 H 0.4398 0.1140 0.8313
C3_4 C 0.46143(15) 0.06750(16) 0.9815(2)
C6_6 C 0.5000 0.0000 0.6887(3)
C8_4 C 0.43218(17) 0.03668(16) 0.6311(2)
H8_4 H 0.3860 0.0602 0.6687
C11_4 C 0.43250(16) 0.03857(15) 0.5185(2)
C13_6 C 0.5000 0.0000 0.4614(2)
H10_6 H 0.5000 0.0000 0.3859
C14_4 C 0.36281(16) 0.08402(15) 0.45874(19)
C4_7 C 0.5000 1.0000 0.0386(2)
H3_7 H 0.5000 1.0000 0.1141
C16_4 C 0.58402(15) 0.86281(16) 0.04126(19)
C1_7 C 0.5000 1.0000 0.8113(3)
C6_7 C 0.5000 1.0000 0.6887(3)
C7_4 C 0.56782(17) 0.96332(16) 0.6311(2)
C9_4 C 0.53668(16) 0.93218(17) 0.8689(2)
H7_4 H 0.6140 0.9398 0.6687
H9_4 H 0.5602 0.8860 0.8313
C10_4 C 0.56750(16) 0.96143(15) 0.5185(2)
C12_4 C 0.53857(15) 0.93250(16) 0.9815(2)
C13_7 C 0.5000 1.0000 0.4614(2)
H10_7 H 0.5000 1.0000 0.3859
C15_4 C 0.63719(16) 0.91598(15) 0.45874(19)
C1_8 C 0.0000 1.0000 0.0613(3)
C4_8 C 0.0000 1.0000 0.2886(2)
H3_8 H 0.0000 1.0000 0.3641
C6_8 C 0.0000 1.0000 0.9387(3)
C13_8 C 0.0000 1.0000 0.7114(2)
H10_8 H -0.0000 1.0000 0.6359
C1_9 C 1.0000 0.0000 0.0613(3)
C4_9 C 1.0000 0.0000 0.2886(2)
H3_9 H 1.0000 0.0000 0.3641
C6_9 C 1.0000 0.0000 0.9387(3)
C13_9 C 1.0000 0.0000 0.7114(2)
H10_9 H 1.0000 -0.0000 0.6359
loop_
_geom_bond_atom_site_label_1
_geom_bond_atom_site_label_2
_geom_bond_site_symmetry_1
_geom_bond_site_symmetry_2
In1 O1 1_555 1_555
O3 In1 1_555 1_555
H1 O3 1_555 1_555
C1 C2 1_555 1_555
C2 H2 1_555 1_555
C3 C2 1_555 1_555
In2 O4 1_555 1_555
In4 O3 1_555 1_555
In5 O9 1_555 1_555
O4 C14 1_555 1_555
O8 In2 1_555 1_555
O9 C14 1_555 1_555
O12 In1 1_555 1_555
O14 In2 1_555 1_555
O15 In2 1_555 1_555
O17 In2 1_555 1_555
O18 In2 1_555 1_555
H5 O17 1_555 1_555
H6 O18 1_555 1_555
C6 C1 1_555 1_555
C8 C6 1_555 1_555
H8 C8 1_555 1_555
C11 C8 1_555 1_555
H10 C13 1_555 1_555
C14 C11 1_555 1_555
In4 O17 1_555 1_555
In5 O18 1_555 1_555
C11 C13 1_555 1_555
O2 C5 1_555 1_555
H3 C4 1_555 1_555
In5 O2 1_555 1_555
O7 In1_2 1_555 1_555
O13 In1_2 1_555 1_555
O16 In1_2 1_555 1_555
H4 O16 1_555 1_555
In5 O16 1_555 1_555
In6 O5 1_555 1_555
In7 O10 1_555 1_555
In8 O6 1_555 1_555
O5 C15 1_555 1_555
O10 C15 1_555 1_555
C6_2 C1_2 1_555 1_555
C7 C6_2 1_555 1_555
C9 C1_2 1_555 1_555
H7 C7 1_555 1_555
H9 C9 1_555 1_555
C10 C7 1_555 1_555
C13_2 C10 1_555 1_555
H10_2 C13_2 1_555 1_555
C15 C10 1_555 1_555
C9 C12 1_555 1_555
H3_2 C4_2 1_555 1_555
In7 O11 1_555 1_555
O11 C16 1_555 1_555
In1_3 O1_2 1_555 1_555
O1_2 C5_2 1_555 1_555
O2_2 C5_2 1_555 1_555
O3_2 In1_3 1_555 1_555
H1_2 O3_2 1_555 1_555
C1_3 C2_2 1_555 1_555
C2_2 H2_2 1_555 1_555
C3_2 C2_2 1_555 1_555
C4_3 C3_2 1_555 1_555
H3_3 C4_3 1_555 1_555
C5_2 C3_2 1_555 1_555
In7 O4_2 1_555 1_555
In8 O2_2 1_555 1_555
In6 O3_2 1_555 1_555
In8_2 O9_2 1_555 1_555
In5 O5_2 1_555 1_555
In4 O6_2 1_555 1_555
O4_2 C14_2 1_555 1_555
O5_2 C15_2 1_555 1_555
O6_2 C16_2 1_555 1_555
O7_2 In1_3 1_555 1_555
O8_2 In7 1_555 1_555
O9_2 C14_2 1_555 1_555
O13 C15_2 1_555 1_555
O12 C16_2 1_555 1_555
O12_2 In1_3 1_555 1_555
O13_2 In1_3 1_555 1_555
O16_2 In1_3 1_555 1_555
O17_2 In7 1_555 1_555
O18_2 In7 1_555 1_555
H4_2 O16_2 1_555 1_555
H5_2 O17_2 1_555 1_555
H6_2 O18_2 1_555 1_555
C6_3 C1_3 1_555 1_555
C7_2 C6_3 1_555 1_555
C8_2 C6_3 1_555 1_555
C9_2 C1_3 1_555 1_555
H7_2 C7_2 1_555 1_555
H8_2 C8_2 1_555 1_555
H9_2 C9_2 1_555 1_555
C10_2 C7_2 1_555 1_555
C11_2 C8_2 1_555 1_555
C12_2 C4_3 1_555 1_555
C13_3 C10_2 1_555 1_555
H10_3 C13_3 1_555 1_555
C14_2 C11_2 1_555 1_555
C15_2 C10_2 1_555 1_555
C16_2 C12_2 1_555 1_555
In8 O16_2 1_555 1_555
In6 O17_2 1_555 1_555
In8_2 O18_2 1_555 1_555
C9_2 C12_2 1_555 1_555
C11_2 C13_3 1_555 1_555
O8_3 In6 1_555 1_555
O14_2 In6 1_555 1_555
O15_2 In6 1_555 1_555
O7_3 In8_2 1_555 1_555
O7_4 In4 1_555 1_555
O8_4 In5 1_555 1_555
O12_3 In4 1_555 1_555
O13_3 In4 1_555 1_555
O7_4 C5_3 1_555 1_555
O14 C5_3 1_555 1_555
C1_4 C2_3 1_555 1_555
C2_3 H2_3 1_555 1_555
C3_3 C2_3 1_555 1_555
C4_4 C3_3 1_555 1_555
H3_4 C4_4 1_555 1_555
C5_3 C3_3 1_555 1_555
O8_4 C14_3 1_555 1_555
O15 C14_3 1_555 1_555
C8_3 C6_4 1_555 1_555
H8_3 C8_3 1_555 1_555
C11_3 C8_3 1_555 1_555
H10_4 C13_4 1_555 1_555
C14_3 C11_3 1_555 1_555
C11_3 C13_4 1_555 1_555
H3_5 C4_5 1_555 1_555
O7_2 C16_3 1_555 1_555
O14_2 C16_3 1_555 1_555
C9_3 C1_5 1_555 1_555
H9_3 C9_3 1_555 1_555
C12_3 C4_5 1_555 1_555
C16_3 C12_3 1_555 1_555
C9_3 C12_3 1_555 1_555
O8_2 C15_3 1_555 1_555
O15_2 C15_3 1_555 1_555
C7_3 C6_5 1_555 1_555
H7_3 C7_3 1_555 1_555
C10_3 C7_3 1_555 1_555
C13_5 C10_3 1_555 1_555
H10_5 C13_5 1_555 1_555
C15_3 C10_3 1_555 1_555
O13_3 C5_4 1_555 1_555
H3_6 C4_6 1_555 1_555
C1_6 C2_4 1_555 1_555
C2_4 H2_4 1_555 1_555
C3_4 C2_4 1_555 1_555
O8 C14_4 1_555 1_555
O12_3 C14_4 1_555 1_555
C6_6 C1_6 1_555 1_555
C8_4 C6_6 1_555 1_555
H8_4 C8_4 1_555 1_555
C11_4 C8_4 1_555 1_555
H10_6 C13_6 1_555 1_555
C14_4 C11_4 1_555 1_555
C11_4 C13_6 1_555 1_555
H3_7 C4_7 1_555 1_555
O13_2 C16_4 1_555 1_555
O8_3 C15_4 1_555 1_555
O12_2 C15_4 1_555 1_555
C6_7 C1_7 1_555 1_555
C7_4 C6_7 1_555 1_555
C9_4 C1_7 1_555 1_555
H7_4 C7_4 1_555 1_555
H9_4 C9_4 1_555 1_555
C10_4 C7_4 1_555 1_555
C13_7 C10_4 1_555 1_555
H10_7 C13_7 1_555 1_555
C15_4 C10_4 1_555 1_555
C9_4 C12_4 1_555 1_555
H3_8 C4_8 1_555 1_555
H10_8 C13_8 1_555 1_555
H3_9 C4_9 1_555 1_555
H10_9 C13_9 1_555 1_555

#END
