
###############################################################################
#
# This file contains modified crystal structure data generated from the
# MOF subset of the Cambridge Structural Database (CSD) v543 
# hosted by the Cambridge Crystallographic Data Centre (CCDC).
#
# This work is licensed under the Creative Commons
# Attribution-NonCommercial-ShareAlike 4.0 International License.
# To view a copy of this license, visit
# http://creativecommons.org/licenses/by-nc-sa/4.0/
# or send a letter to
# Creative Commons, PO Box 1866, Mountain View, CA 94042, USA.
#
# CIF created using the CSD Python API on 29 September 2022
# The structure has been converted into the P1 space group
# The structure has a 3D framework
# The original CSD entry YAZWOM is in the hexagonal crystal system
# The original CSD entry YAZWOM is in a Sohncke space group
# The framework has been calculated to contain at least 10.0% void space
# The void calculation uses a probe of radius 1.32A, grid spacing 0.4
# H atom positions have been added when not included in the experimental data
#
###############################################################################

data_YAZWOM
_chemical_formula_moiety         '(C42 H84 Cl6 Cu6 N12 O18)n'
_symmetry_cell_setting           triclinic
_symmetry_space_group_name_H-M   'P 1'
_symmetry_Int_Tables_number      1
_space_group_name_Hall           'P 1'
loop_
_symmetry_equiv_pos_site_id
_symmetry_equiv_pos_as_xyz
1 x,y,z
_cell_length_a                   15.915(1)
_cell_length_b                   15.915(1)
_cell_length_c                   8.6777(8)
_cell_angle_alpha                90
_cell_angle_beta                 90
_cell_angle_gamma                120
_cell_volume                     1903.48
loop_
_atom_site_label
_atom_site_type_symbol
_atom_site_fract_x
_atom_site_fract_y
_atom_site_fract_z
Cu1 Cu 0.61859(5) 0.20954(5) 0.11000(7)
Cl1 Cl 0.58493(10) 0.33156(9) 0.15540(15)
O1 O 0.6411(3) 0.5133(3) 0.3710(4)
O2 O 0.5464(3) 0.6463(3) 0.4334(5)
N1 N 0.5237(3) 0.2506(3) 0.5379(6)
C1 C 0.6687(4) 0.5753(4) 0.4823(6)
O3 O 0.6541(3) 0.5545(3) 0.6202(5)
C2 C 0.7283(4) 0.6802(4) 0.4310(8)
N2 N 0.6974(3) 0.7406(3) 0.5157(5)
C3 C 0.1642(5) 0.2831(5) 0.4608(10)
H1 H 0.1258 0.2213 0.4116
H2 H 0.1472 0.3287 0.4197
H3 H 0.1520 0.2763 0.5697
C4 C 0.6055(4) 0.7169(4) 0.5114(6)
C5 C 0.4296(4) 0.2292(4) 0.6114(6)
C6 C 0.4533(7) 0.2788(5) 0.7701(8)
H4 H 0.4814 0.2504 0.8347
H5 H 0.3948 0.2702 0.8167
H6 H 0.4984 0.3468 0.7579
C7 C 0.3589(5) 0.1195(5) 0.6191(10)
H7 H 0.3850 0.0898 0.6852
H8 H 0.3496 0.0923 0.5176
H9 H 0.2978 0.1078 0.6594
H10 H 0.267(6) 0.198(5) 0.582(9)
H11 H 0.281(4) 0.321(4) 0.330(8)
H12 H 0.5567 0.2348 0.5986
H13 H 0.4931 0.2237 0.4410
Cu2 Cu 0.59095(7) 0.38141(5) 0.44333(7)
Cu3 Cu 0.79046(5) 0.40905(7) 0.77667(7)
Cu4 Cu 0.40905(7) 0.61859(5) 0.44333(7)
Cl2 Cl 0.74663(13) 0.41507(10) 0.48873(15)
O4 O 0.3589(3) 0.4867(3) 0.3710(4)
O5 O 0.4867(3) 0.1278(4) 0.0377(4)
O6 O 0.6463(3) 0.0999(4) 0.1001(5)
O7 O 0.4536(3) 0.3537(3) 0.4334(5)
N3 N 0.4763(3) 0.7494(3) 0.5379(6)
N4 N 0.7494(3) 0.2731(4) 0.2046(6)
C8 C 0.3313(4) 0.4247(4) 0.4823(6)
O8 O 0.3459(3) 0.4455(3) 0.6202(5)
C9 C 0.2717(4) 0.3198(4) 0.4310(8)
N5 N 0.3026(3) 0.2594(3) 0.5157(5)
C10 C 0.8358(5) 0.7169(5) 0.4608(10)
H14 H 0.8742 0.7787 0.4116
H15 H 0.8528 0.6713 0.4197
H16 H 0.8480 0.7237 0.5697
C11 C 0.3945(4) 0.2831(4) 0.5114(6)
C12 C 0.5704(4) 0.7708(4) 0.6114(6)
C13 C 0.5467(7) 0.7212(5) 0.7701(8)
H17 H 0.5186 0.7496 0.8347
H18 H 0.6052 0.7298 0.8167
H19 H 0.5016 0.6532 0.7579
C14 C 0.6411(5) 0.8805(5) 0.6191(10)
H20 H 0.6150 0.9102 0.6852
H21 H 0.6504 0.9077 0.5176
H22 H 0.7022 0.8922 0.6594
H23 H 0.733(6) 0.802(5) 0.582(9)
H24 H 0.719(4) 0.679(4) 0.330(8)
H25 H 0.4433 0.7652 0.5986
H26 H 0.7652 0.3219 0.2653
H27 H 0.5069 0.7763 0.4410
H28 H 0.7763 0.2694 0.1077
H29 H 0.750532 0.221415 0.27161
Cl3 Cl 0.66844(9) 0.25337(13) 0.82207(15)
C1_2 C 0.4247(4) 0.0934(6) 0.1490(6)
O3_2 O 0.4455(3) 0.0996(4) 0.2869(5)
C2_2 C 0.3198(4) 0.0481(6) 0.0977(8)
C5_2 C 0.7708(4) 0.2004(6) 0.2781(6)
C6_2 C 0.7212(5) 0.1745(9) 0.4368(8)
H4_2 H 0.7496 0.2310 0.5014
H5_2 H 0.7298 0.1246 0.4834
H6_2 H 0.6532 0.1516 0.4246
C7_2 C 0.8805(5) 0.2394(7) 0.2858(10)
H7_2 H 0.9102 0.2952 0.3519
H8_2 H 0.9077 0.2573 0.1843
H9_2 H 0.8922 0.1900 0.3261
H10_2 H 0.802(5) 0.069(8) 0.249(9)
N5_2 N 0.7406(3) 0.0432(4) 0.1824(5)
C10_2 C 0.2831(5) 0.1189(7) 0.1275(10)
H14_2 H 0.2213 0.0955 0.0783
H15_2 H 0.3287 0.1815 0.0864
H16_2 H 0.2763 0.1243 0.2364
C11_2 C 0.7169(4) 0.1114(6) 0.1781(6)
O5_2 O 0.8722(4) 0.3589(5) 0.7043(4)
O6_2 O 0.9001(4) 0.5464(5) 0.7667(5)
N4_2 N 0.7269(4) 0.4763(5) 0.8712(6)
H24_2 H 0.321(4) 0.040(6) 0.997(8)
H26_2 H 0.6781 0.4433 0.9319
H28_2 H 0.7306 0.5069 0.7743
H29_2 H 0.778585 0.529117 0.938277
O2_2 O 0.3537(3) 0.9001(4) 0.1001(5)
N2_2 N 0.2594(3) 0.9568(4) 0.1824(5)
C3_2 C 0.7169(5) 0.8811(7) 0.1275(10)
H1_2 H 0.7787 0.9045 0.0783
H2_2 H 0.6713 0.8185 0.0864
H3_2 H 0.7237 0.8757 0.2364
C4_2 C 0.2831(4) 0.8886(6) 0.1781(6)
Cu4_2 Cu 0.38141(5) 0.79046(9) 0.11000(7)
O4_2 O 0.5133(3) 0.8722(4) 0.0377(4)
N3_2 N 0.2506(3) 0.7269(4) 0.2046(6)
C8_2 C 0.5753(4) 0.9066(6) 0.1490(6)
O8_2 O 0.5545(3) 0.9004(4) 0.2869(5)
C9_2 C 0.6802(4) 0.9519(6) 0.0977(8)
C12_2 C 0.2292(4) 0.7996(6) 0.2781(6)
C13_2 C 0.2788(5) 0.8255(9) 0.4368(8)
H17_2 H 0.2504 0.7690 0.5014
H18_2 H 0.2702 0.8754 0.4834
H19_2 H 0.3468 0.8484 0.4246
C14_2 C 0.1195(5) 0.7606(7) 0.2858(10)
H20_2 H 0.0898 0.7048 0.3519
H21_2 H 0.0923 0.7427 0.1843
H22_2 H 0.1078 0.8100 0.3261
H23_2 H 0.198(5) 0.931(8) 0.249(9)
H25_2 H 0.2348 0.6781 0.2653
H27_2 H 0.2237 0.7306 0.1077
H11_2 H 0.679(4) 0.960(6) 0.997(8)
C13_3 C 0.1745(9) 0.4533(7) 0.1034(8)
H17_3 H 0.2310 0.4814 0.1680
H18_3 H 0.1246 0.3948 0.1500
H19_3 H 0.1516 0.4984 0.0912
H20_3 H 0.2952 0.3850 0.0185
O2_3 O 0.0999(4) 0.4536(3) 0.7667(5)
N2_3 N 0.0432(4) 0.3026(3) 0.8490(5)
C3_3 C 0.1189(7) 0.8358(5) 0.7941(10)
H1_3 H 0.0955 0.8742 0.7449
H2_3 H 0.1815 0.8528 0.7530
H3_3 H 0.1243 0.8480 0.9030
C4_3 C 0.1114(6) 0.3945(4) 0.8447(6)
H11_3 H 0.040(6) 0.719(4) 0.663(8)
Cu4_3 Cu 0.20954(9) 0.59095(7) 0.77667(7)
O4_3 O 0.1278(4) 0.6411(3) 0.7043(4)
N3_3 N 0.2731(4) 0.5237(3) 0.8712(6)
C8_3 C 0.0934(6) 0.6687(4) 0.8156(6)
O8_3 O 0.0996(4) 0.6541(3) 0.9535(5)
C9_3 C 0.0481(6) 0.7283(4) 0.7643(8)
C12_3 C 0.2004(6) 0.4296(4) 0.9447(6)
C14_3 C 0.2394(7) 0.3589(5) 0.9524(10)
H21_3 H 0.2573 0.3496 0.8509
H22_3 H 0.1900 0.2978 0.9927
H23_3 H 0.069(8) 0.267(6) 0.915(9)
H25_3 H 0.3219 0.5567 0.9319
H27_3 H 0.2694 0.4931 0.7743
C6_3 C 0.8255(9) 0.5467(7) 0.1034(8)
H4_3 H 0.7690 0.5186 0.1680
H5_3 H 0.8754 0.6052 0.1500
H6_3 H 0.8484 0.5016 0.0912
H7_3 H 0.7048 0.6150 0.0185
C1_3 C 0.9066(6) 0.3313(4) 0.8156(6)
O3_3 O 0.9004(4) 0.3459(3) 0.9535(5)
C2_3 C 0.9519(6) 0.2717(4) 0.7643(8)
C5_3 C 0.7996(6) 0.5704(4) 0.9447(6)
C7_3 C 0.7606(7) 0.6411(5) 0.9524(10)
H8_3 H 0.7427 0.6504 0.8509
H9_3 H 0.8100 0.7022 0.9927
H10_3 H 0.931(8) 0.733(6) 0.915(9)
N5_3 N 0.9568(4) 0.6974(3) 0.8490(5)
C10_3 C 0.8811(7) 0.1642(5) 0.7941(10)
H14_3 H 0.9045 0.1258 0.7449
H15_3 H 0.8185 0.1472 0.7530
H16_3 H 0.8757 0.1520 0.9030
C11_3 C 0.8886(6) 0.6055(4) 0.8447(6)
H24_3 H 0.960(6) 0.281(4) 0.663(8)
H29_3 H 0.470883 0.249468 0.604943
Cl1_2 Cl 0.41507(10) 0.66844(9) 0.15540(15)
Cl2_2 Cl 0.25337(13) 0.58493(10) 0.48873(15)
H29_4 H 0.249468 0.778585 0.27161
Cl3_2 Cl 0.33156(9) 0.74663(13) 0.82207(15)
H29_5 H 0.221415 0.470883 0.938277
H29_6 H 0.529117 0.750532 0.604943
loop_
_geom_bond_atom_site_label_1
_geom_bond_atom_site_label_2
_geom_bond_site_symmetry_1
_geom_bond_site_symmetry_2
Cu1 Cl1 1_555 1_555
Cl1 Cu2 1_555 1_555
O1 C1 1_555 1_555
O2 C4 1_555 1_555
N1 C5 1_555 1_555
C1 O3 1_555 1_555
C2 C1 1_555 1_555
N2 C2 1_555 1_555
C3 H1 1_555 1_555
H2 C3 1_555 1_555
H3 C3 1_555 1_555
C4 N2 1_555 1_555
C5 C6 1_555 1_555
C6 H4 1_555 1_555
H5 C6 1_555 1_555
H6 C6 1_555 1_555
C7 C5 1_555 1_555
H7 C7 1_555 1_555
H8 C7 1_555 1_555
H9 C7 1_555 1_555
H10 N5 1_555 1_555
H11 C9 1_555 1_555
H12 N1 1_555 1_555
H13 N1 1_555 1_555
Cu2 O1 1_555 1_555
Cu3 Cl2 1_555 1_555
Cu4 O2 1_555 1_555
Cl2 Cu2 1_555 1_555
O4 Cu4 1_555 1_555
O5 Cu1 1_555 1_555
O6 Cu1 1_555 1_555
O7 Cu2 1_555 1_555
N3 Cu4 1_555 1_555
N4 Cu1 1_555 1_555
C8 O4 1_555 1_555
O8 C8 1_555 1_555
C9 C3 1_555 1_555
N5 C9 1_555 1_555
C10 C2 1_555 1_555
H14 C10 1_555 1_555
H15 C10 1_555 1_555
H16 C10 1_555 1_555
C11 C5 1_555 1_555
C12 C4 1_555 1_555
C13 C12 1_555 1_555
H17 C13 1_555 1_555
H18 C13 1_555 1_555
H19 C13 1_555 1_555
C14 C12 1_555 1_555
H20 C14 1_555 1_555
H21 C14 1_555 1_555
H22 C14 1_555 1_555
H23 N2 1_555 1_555
H24 C2 1_555 1_555
H25 N3 1_555 1_555
H26 N4 1_555 1_555
H27 N3 1_555 1_555
H28 N4 1_555 1_555
N1 Cu2 1_555 1_555
O7 C11 1_555 1_555
N3 C12 1_555 1_555
C8 C9 1_555 1_555
N5 C11 1_555 1_555
N4 H29 1_555 1_555
O5 C1_2 1_555 1_555
N4 C5_2 1_555 1_555
C1_2 O3_2 1_555 1_555
C2_2 C1_2 1_555 1_555
C5_2 C6_2 1_555 1_555
C6_2 H4_2 1_555 1_555
H5_2 C6_2 1_555 1_555
H6_2 C6_2 1_555 1_555
C7_2 C5_2 1_555 1_555
H7_2 C7_2 1_555 1_555
H8_2 C7_2 1_555 1_555
H9_2 C7_2 1_555 1_555
H10_2 N5_2 1_555 1_555
C10_2 C2_2 1_555 1_555
H14_2 C10_2 1_555 1_555
H15_2 C10_2 1_555 1_555
H16_2 C10_2 1_555 1_555
C11_2 C5_2 1_555 1_555
O6 C11_2 1_555 1_555
N5_2 C11_2 1_555 1_555
Cu3 Cl3 1_555 1_555
O5_2 Cu3 1_555 1_555
O6_2 Cu3 1_555 1_555
N4_2 Cu3 1_555 1_555
H26_2 N4_2 1_555 1_555
H28_2 N4_2 1_555 1_555
N4_2 H29_2 1_555 1_555
O2_2 C4_2 1_555 1_555
C3_2 H1_2 1_555 1_555
H2_2 C3_2 1_555 1_555
H3_2 C3_2 1_555 1_555
C4_2 N2_2 1_555 1_555
Cu4_2 O2_2 1_555 1_555
O4_2 Cu4_2 1_555 1_555
N3_2 Cu4_2 1_555 1_555
C8_2 O4_2 1_555 1_555
O8_2 C8_2 1_555 1_555
C9_2 C3_2 1_555 1_555
C12_2 C4_2 1_555 1_555
C13_2 C12_2 1_555 1_555
H17_2 C13_2 1_555 1_555
H18_2 C13_2 1_555 1_555
H19_2 C13_2 1_555 1_555
C14_2 C12_2 1_555 1_555
H20_2 C14_2 1_555 1_555
H21_2 C14_2 1_555 1_555
H22_2 C14_2 1_555 1_555
H23_2 N2_2 1_555 1_555
H25_2 N3_2 1_555 1_555
H27_2 N3_2 1_555 1_555
N3_2 C12_2 1_555 1_555
C8_2 C9_2 1_555 1_555
H17_3 C13_3 1_555 1_555
H18_3 C13_3 1_555 1_555
H19_3 C13_3 1_555 1_555
O2_3 C4_3 1_555 1_555
C3_3 H1_3 1_555 1_555
H2_3 C3_3 1_555 1_555
H3_3 C3_3 1_555 1_555
C4_3 N2_3 1_555 1_555
H11_3 C9_3 1_555 1_555
Cu4_3 O2_3 1_555 1_555
O4_3 Cu4_3 1_555 1_555
N3_3 Cu4_3 1_555 1_555
C8_3 O4_3 1_555 1_555
O8_3 C8_3 1_555 1_555
C9_3 C3_3 1_555 1_555
C12_3 C4_3 1_555 1_555
C14_3 C12_3 1_555 1_555
H21_3 C14_3 1_555 1_555
H22_3 C14_3 1_555 1_555
H23_3 N2_3 1_555 1_555
H25_3 N3_3 1_555 1_555
H27_3 N3_3 1_555 1_555
N3_3 C12_3 1_555 1_555
C8_3 C9_3 1_555 1_555
C6_3 H4_3 1_555 1_555
H5_3 C6_3 1_555 1_555
H6_3 C6_3 1_555 1_555
O5_2 C1_3 1_555 1_555
N4_2 C5_3 1_555 1_555
C1_3 O3_3 1_555 1_555
C2_3 C1_3 1_555 1_555
C7_3 C5_3 1_555 1_555
H8_3 C7_3 1_555 1_555
H9_3 C7_3 1_555 1_555
H10_3 N5_3 1_555 1_555
C10_3 C2_3 1_555 1_555
H14_3 C10_3 1_555 1_555
H15_3 C10_3 1_555 1_555
H16_3 C10_3 1_555 1_555
C11_3 C5_3 1_555 1_555
H24_3 C2_3 1_555 1_555
O6_2 C11_3 1_555 1_555
N5_3 C11_3 1_555 1_555
N1 H29_3 1_555 1_555
Cu4_2 Cl1_2 1_555 1_555
Cl1_2 Cu4 1_555 1_555
Cu4_3 Cl2_2 1_555 1_555
Cl2_2 Cu4 1_555 1_555
N3_2 H29_4 1_555 1_555
Cu4_3 Cl3_2 1_555 1_555
N3_3 H29_5 1_555 1_555
N3 H29_6 1_555 1_555

#END
