
###############################################################################
#
# This file contains modified crystal structure data generated from the
# MOF subset of the Cambridge Structural Database (CSD) v543 
# hosted by the Cambridge Crystallographic Data Centre (CCDC).
#
# This work is licensed under the Creative Commons
# Attribution-NonCommercial-ShareAlike 4.0 International License.
# To view a copy of this license, visit
# http://creativecommons.org/licenses/by-nc-sa/4.0/
# or send a letter to
# Creative Commons, PO Box 1866, Mountain View, CA 94042, USA.
#
# CIF created using the CSD Python API on 29 September 2022
# The structure has been converted into the P1 space group
# The structure has a 3D framework
# The original CSD entry YAZZAC is in the triclinic crystal system
# The framework has been calculated to contain at least 10.0% void space
# The void calculation uses a probe of radius 1.32A, grid spacing 0.4
#
###############################################################################

data_YAZZAC
_chemical_formula_moiety         '(C40 H30 Gd4 O36)n'
_symmetry_cell_setting           triclinic
_symmetry_space_group_name_H-M   'P 1'
_symmetry_Int_Tables_number      1
_space_group_name_Hall           'P 1'
loop_
_symmetry_equiv_pos_site_id
_symmetry_equiv_pos_as_xyz
1 x,y,z
_cell_length_a                   7.3991(9)
_cell_length_b                   11.4730(14)
_cell_length_c                   16.2335(19)
_cell_angle_alpha                79.038(2)
_cell_angle_beta                 82.588(2)
_cell_angle_gamma                79.972(2)
_cell_volume                     1325.68
loop_
_atom_site_label
_atom_site_type_symbol
_atom_site_fract_x
_atom_site_fract_y
_atom_site_fract_z
_atom_site_U_iso_or_equiv
_atom_site_thermal_displace_type
Gd7 Gd 0.05583(4) 0.93622(3) 0.227338(19) 0.0134 Uani
O34 O 0.1920(7) 0.0027(4) 0.3376(3) 0.0276 Uani
O47 O 0.1113(7) 0.1426(4) 0.1727(3) 0.0345 Uani
H22 H 0.2011 0.1740 0.1756 0.0520 Uiso
H23 H 0.0710 0.1926 0.1335 0.0520 Uiso
O8 O 0.1972(7) 0.3134(5) 0.6836(3) 0.0348 Uani
O13 O 0.2716(6) 0.1042(4) 0.8010(3) 0.0174 Uani
O15 O 0.6342(6) 0.0895(4) 0.8352(3) 0.0158 Uani
C10 C 0.0342(9) 0.4060(6) 0.5665(4) 0.0173 Uani
C11 C 0.1343(9) 0.5010(6) 0.5523(4) 0.0215 Uani
H13 H 0.2238 0.5021 0.5874 0.0260 Uiso
C12 C 0.0741(9) 0.3053(6) 0.6404(4) 0.0182 Uani
C18 C 0.5676(9) 0.0453(5) 0.9146(4) 0.0152 Uani
C19 C 0.3881(8) 0.0159(6) 0.9351(4) 0.0154 Uani
C20 C 0.2546(9) 0.0329(6) 0.8725(4) 0.0167 Uani
Gd4 Gd 0.94417(4) 0.06378(3) 0.772662(19) 0.0134 Uani
Gd10 Gd 0.44670(4) 0.26273(3) 0.763546(19) 0.0153 Uani
O20 O 0.0713(6) 0.7813(4) 0.1456(3) 0.0238 Uani
O26 O 0.0187(6) 0.7798(4) 0.3455(3) 0.0219 Uani
O30 O 0.2054(7) 0.6845(4) 0.4725(3) 0.0297 Uani
H18 H 0.1581 0.7424 0.4402 0.0450 Uiso
O44 O 0.3658(6) 0.9105(4) 0.1648(3) 0.0158 Uani
C29 C 0.0995(10) 0.5946(6) 0.4853(4) 0.0211 Uani
C37 C 0.6760(9) 0.0267(5) 0.9822(4) 0.0162 Uani
H30 H 0.7961 0.0436 0.9711 0.0190 Uiso
C17 C 0.3240(9) 0.9733(5) 0.0178(4) 0.0162 Uani
H15 H 0.2039 0.9564 0.0289 0.0190 Uiso
Gd13 Gd 0.55330(4) 0.73727(3) 0.236454(19) 0.0153 Uani
O36 O 0.7284(6) 0.8958(4) 0.1990(3) 0.0174 Uani
C38 C 0.4324(9) 0.9547(5) 0.0854(4) 0.0152 Uani
C39 C 0.6119(8) 0.9841(6) 0.0649(4) 0.0154 Uani
C40 C 0.7454(9) 0.9671(6) 0.1275(4) 0.0167 Uani
O3 O 0.7374(7) 0.5615(5) 0.1812(3) 0.0334 Uani
O4 O 0.6208(7) 0.7154(4) 0.0905(3) 0.0268 Uani
O5 O 0.9845(8) 0.2436(5) 0.0065(3) 0.0390 Uani
C3 C 0.8354(10) 0.4191(6) 0.0525(4) 0.0238 Uani
H11 H 0.8771 0.3879 0.1050 0.0290 Uiso
C4 C 0.7381(9) 0.5337(6) 0.0378(4) 0.0217 Uani
C8 C 0.7009(9) 0.6064(6) 0.1069(4) 0.0227 Uani
O21 O 0.2954(6) 0.6585(4) 0.2101(3) 0.0242 Uani
H16 H 0.0023 0.7914 0.0339 0.0580 Uiso
O25 O 0.4240(9) 0.3055(5) 0.0606(4) 0.0470 Uani
H17 H 0.4341 0.2712 0.0199 0.0710 Uiso
O29 O 0.8028(7) 0.6866(5) 0.3164(3) 0.0348 Uani
O32 O 0.3983(7) 0.8386(4) 0.3421(3) 0.0227 Uani
O48 O 0.4781(7) 0.5760(5) 0.3525(3) 0.0323 Uani
H24 H 0.4381 0.5177 0.3436 0.0490 Uiso
H25 H 0.4314 0.6030 0.3950 0.0490 Uiso
C21 C 0.2040(9) 0.6077(6) 0.0877(4) 0.0192 Uani
C22 C 0.1288(10) 0.6498(6) 0.0109(4) 0.0216 Uani
C25 C 0.3265(10) 0.4197(6) 0.0411(4) 0.0212 Uani
C26 C 0.3020(9) 0.4910(6) 0.1024(4) 0.0233 Uani
H27 H 0.3508 0.4615 0.1537 0.0280 Uiso
C27 C 0.1890(9) 0.6867(6) 0.1519(4) 0.0215 Uani
O1 O 0.9287(6) 0.2187(4) 0.8544(3) 0.0238 Uani
O2 O 0.7046(6) 0.3415(4) 0.7899(3) 0.0242 Uani
H1 H 0.9977 0.2086 0.9661 0.0580 Uiso
O6 O 0.5760(9) 0.6945(5) 0.9394(4) 0.0470 Uani
H2 H 0.5659 0.7288 0.9801 0.0710 Uiso
O7 O 0.9813(6) 0.2202(4) 0.6545(3) 0.0219 Uani
O9 O 0.7946(7) 0.3155(4) 0.5275(3) 0.0297 Uani
H3 H 0.8419 0.2576 0.5598 0.0450 Uiso
O10 O 0.6017(7) 0.1614(4) 0.6579(3) 0.0227 Uani
O18 O 0.5219(7) 0.4240(5) 0.6475(3) 0.0323 Uani
H9 H 0.5619 0.4823 0.6564 0.0490 Uiso
H10 H 0.5686 0.3970 0.6050 0.0490 Uiso
C1 C 0.7960(9) 0.3923(6) 0.9123(4) 0.0192 Uani
C2 C 0.8712(10) 0.3502(6) 0.9891(4) 0.0216 Uani
C5 C 0.6735(10) 0.5803(6) 0.9589(4) 0.0212 Uani
C6 C 0.6980(9) 0.5090(6) 0.8976(4) 0.0233 Uani
H12 H 0.6492 0.5385 0.8463 0.0280 Uiso
C7 C 0.8110(9) 0.3133(6) 0.8481(4) 0.0215 Uani
C9 C 0.9005(10) 0.4054(6) 0.5147(4) 0.0211 Uani
C14 C 0.4359(10) 0.1068(6) 0.5290(4) 0.0236 Uani
H14 H 0.3934 0.1789 0.5482 0.0280 Uiso
C15 C 0.5852(10) 0.0299(6) 0.5639(4) 0.0223 Uani
C16 C 0.6693(10) 0.0652(6) 0.6330(4) 0.0199 Uani
O22 O 0.2626(7) 0.4385(5) 0.8188(3) 0.0334 Uani
O23 O 0.3792(7) 0.2846(4) 0.9095(3) 0.0268 Uani
O24 O 0.0155(8) 0.7564(5) 0.9935(3) 0.0390 Uani
O35 O 0.2059(7) 0.1587(5) 0.4356(3) 0.0381 Uani
H19 H 0.1532 0.1277 0.4060 0.0570 Uiso
C23 C 0.1646(10) 0.5809(6) 0.9475(4) 0.0238 Uani
H26 H 0.1229 0.6121 0.8950 0.0290 Uiso
C24 C 0.2619(9) 0.4663(6) 0.9622(4) 0.0217 Uani
C28 C 0.2991(9) 0.3936(6) 0.8931(4) 0.0227 Uani
C30 C 0.9658(9) 0.5940(6) 0.4335(4) 0.0173 Uani
C31 C 0.8657(9) 0.4990(6) 0.4477(4) 0.0215 Uani
H28 H 0.7762 0.4979 0.4126 0.0260 Uiso
C32 C 0.9259(9) 0.6947(6) 0.3596(4) 0.0182 Uani
C33 C 0.3502(9) 0.0782(6) 0.4666(4) 0.0219 Uani
O11 O 0.8080(7) 0.9973(4) 0.6624(3) 0.0276 Uani
O12 O 0.7941(7) 0.8413(5) 0.5644(3) 0.0381 Uani
H4 H 0.8468 0.8723 0.5940 0.0570 Uiso
O17 O 0.8887(7) 0.8574(4) 0.8273(3) 0.0345 Uani
H7 H 0.7989 0.8260 0.8244 0.0520 Uiso
H8 H 0.9290 0.8074 0.8665 0.0520 Uiso
C13 C 0.6498(9) 0.9218(6) 0.5334(4) 0.0219 Uani
C34 C 0.5641(10) 0.8932(6) 0.4710(4) 0.0236 Uani
H29 H 0.6066 0.8211 0.4518 0.0280 Uiso
C35 C 0.4148(10) 0.9701(6) 0.4361(4) 0.0223 Uani
C36 C 0.3307(10) 0.9348(6) 0.3670(4) 0.0199 Uani
O40 O 0.8840(6) 0.0211(4) 0.1113(3) 0.0225 Uani
O46 O 0.8073(7) 0.0492(5) 0.3005(3) 0.0356 Uani
H20 H 0.7076 0.0698 0.2809 0.0530 Uiso
H21 H 0.7956 0.1072 0.3244 0.0530 Uiso
O14 O 0.1160(6) 0.9789(4) 0.8887(3) 0.0225 Uani
O16 O 0.1927(7) 0.9508(5) 0.6995(3) 0.0356 Uani
H5 H 0.2924 0.9302 0.7191 0.0530 Uiso
H6 H 0.2044 0.8928 0.6756 0.0530 Uiso
loop_
_atom_site_aniso_label
_atom_site_aniso_U_11
_atom_site_aniso_U_22
_atom_site_aniso_U_33
_atom_site_aniso_U_23
_atom_site_aniso_U_13
_atom_site_aniso_U_12
Gd7 0.01392 0.01588 0.0116 -0.00104 -0.00501 -0.00385
O34 0.029 0.032 0.027 -0.008 -0.016 -0.006
O47 0.043 0.027 0.036 -0.002 -0.009 -0.012
O8 0.03 0.036 0.038 0.017 -0.022 -0.016
O13 0.015 0.024 0.014 0.0006 -0.0076 -0.0052
O15 0.015 0.02 0.011 0.0015 -0.0021 -0.0025
C10 0.02 0.018 0.015 0 -0.004 -0.007
C11 0.02 0.026 0.021 0.002 -0.013 -0.009
C12 0.016 0.024 0.016 0.001 -0.007 -0.008
C18 0.017 0.017 0.013 -0.002 -0.002 -0.007
C19 0.01 0.021 0.014 0.001 -0.002 -0.003
C20 0.012 0.021 0.018 -0.003 -0.01 0.001
Gd4 0.01392 0.01588 0.0116 -0.00104 -0.00501 -0.00385
Gd10 0.01621 0.0173 0.01317 -0.00171 -0.00514 -0.00313
O20 0.02 0.027 0.028 -0.014 -0.006 -0.001
O26 0.026 0.022 0.019 0.002 -0.005 -0.011
O30 0.038 0.026 0.029 0.009 -0.019 -0.019
O44 0.015 0.02 0.011 0.0015 -0.0021 -0.0025
C29 0.026 0.016 0.019 0.007 -0.004 -0.007
C37 0.015 0.014 0.021 0.001 -0.009 -0.005
C17 0.015 0.014 0.021 0.001 -0.009 -0.005
Gd13 0.01621 0.0173 0.01317 -0.00171 -0.00514 -0.00313
O36 0.015 0.024 0.014 0.0006 -0.0076 -0.0052
C38 0.017 0.017 0.013 -0.002 -0.002 -0.007
C39 0.01 0.021 0.014 0.001 -0.002 -0.003
C40 0.012 0.021 0.018 -0.003 -0.01 0.001
O3 0.041 0.036 0.023 -0.011 -0.012 0.008
O4 0.041 0.021 0.019 -0.009 -0.002 -0.001
O5 0.048 0.034 0.035 -0.009 -0.014 0.004
C3 0.023 0.036 0.014 -0.006 -0.005 -0.005
C4 0.014 0.023 0.029 -0.003 -0.003 -0.006
C8 0.015 0.029 0.027 -0.007 0.001 -0.011
O21 0.024 0.032 0.021 -0.004 -0.009 -0.012
O25 0.072 0.032 0.035 -0.011 -0.012 0.008
O29 0.03 0.036 0.038 0.017 -0.022 -0.016
O32 0.032 0.025 0.014 -0.006 0.001 -0.012
O48 0.034 0.032 0.03 0.006 -0.007 -0.012
C21 0.019 0.018 0.022 -0.005 0.001 -0.007
C22 0.024 0.015 0.025 -0.004 -0.005 0.002
C25 0.025 0.017 0.023 -0.003 -0.006 -0.005
C26 0.019 0.033 0.021 -0.008 -0.004 -0.007
C27 0.02 0.026 0.024 -0.008 -0.001 -0.015
O1 0.02 0.027 0.028 -0.014 -0.006 -0.001
O2 0.024 0.032 0.021 -0.004 -0.009 -0.012
O6 0.072 0.032 0.035 -0.011 -0.012 0.008
O7 0.026 0.022 0.019 0.002 -0.005 -0.011
O9 0.038 0.026 0.029 0.009 -0.019 -0.019
O10 0.032 0.025 0.014 -0.006 0.001 -0.012
O18 0.034 0.032 0.03 0.006 -0.007 -0.012
C1 0.019 0.018 0.022 -0.005 0.001 -0.007
C2 0.024 0.015 0.025 -0.004 -0.005 0.002
C5 0.025 0.017 0.023 -0.003 -0.006 -0.005
C6 0.019 0.033 0.021 -0.008 -0.004 -0.007
C7 0.02 0.026 0.024 -0.008 -0.001 -0.015
C9 0.026 0.016 0.019 0.007 -0.004 -0.007
C14 0.03 0.017 0.026 -0.007 -0.01 -0.001
C15 0.028 0.028 0.013 -0.005 -0.005 -0.006
C16 0.025 0.025 0.012 -0.004 0.002 -0.012
O22 0.041 0.036 0.023 -0.011 -0.012 0.008
O23 0.041 0.021 0.019 -0.009 -0.002 -0.001
O24 0.048 0.034 0.035 -0.009 -0.014 0.004
O35 0.039 0.035 0.047 -0.019 -0.029 0.007
C23 0.023 0.036 0.014 -0.006 -0.005 -0.005
C24 0.014 0.023 0.029 -0.003 -0.003 -0.006
C28 0.015 0.029 0.027 -0.007 0.001 -0.011
C30 0.02 0.018 0.015 0 -0.004 -0.007
C31 0.02 0.026 0.021 0.002 -0.013 -0.009
C32 0.016 0.024 0.016 0.001 -0.007 -0.008
C33 0.02 0.025 0.022 -0.002 -0.011 -0.003
O11 0.029 0.032 0.027 -0.008 -0.016 -0.006
O12 0.039 0.035 0.047 -0.019 -0.029 0.007
O17 0.043 0.027 0.036 -0.002 -0.009 -0.012
C13 0.02 0.025 0.022 -0.002 -0.011 -0.003
C34 0.03 0.017 0.026 -0.007 -0.01 -0.001
C35 0.028 0.028 0.013 -0.005 -0.005 -0.006
C36 0.025 0.025 0.012 -0.004 0.002 -0.012
O40 0.02 0.03 0.02 0.009 -0.014 -0.016
O46 0.027 0.046 0.038 -0.024 -0.004 0.002
O14 0.02 0.03 0.02 0.009 -0.014 -0.016
O16 0.027 0.046 0.038 -0.024 -0.004 0.002
loop_
_geom_bond_atom_site_label_1
_geom_bond_atom_site_label_2
_geom_bond_site_symmetry_1
_geom_bond_site_symmetry_2
H22 O47 1_555 1_555
H23 O47 1_555 1_555
O8 C12 1_555 1_555
O15 C18 1_555 1_555
C11 C10 1_555 1_555
H13 C11 1_555 1_555
C18 C19 1_555 1_555
C20 O13 1_555 1_555
Gd7 O20 1_555 1_555
Gd4 O15 1_555 1_555
Gd10 O8 1_555 1_555
O26 Gd7 1_555 1_555
O30 H18 1_555 1_555
O44 Gd7 1_555 1_555
C29 C11 1_555 1_555
C37 C18 1_555 1_555
H30 C37 1_555 1_555
O13 Gd10 1_555 1_555
O15 Gd10 1_555 1_555
C10 C12 1_555 1_555
C19 C20 1_555 1_555
O30 C29 1_555 1_555
C17 H15 1_555 1_555
Gd13 O36 1_555 1_555
O36 C40 1_555 1_555
O44 Gd13 1_555 1_555
C38 C17 1_555 1_555
O44 C38 1_555 1_555
C38 C39 1_555 1_555
C39 C40 1_555 1_555
O3 C8 1_555 1_555
O4 C8 1_555 1_555
H11 C3 1_555 1_555
C4 C3 1_555 1_555
C8 C4 1_555 1_555
Gd13 O3 1_555 1_555
O20 C27 1_555 1_555
O21 Gd13 1_555 1_555
O25 H17 1_555 1_555
O29 Gd13 1_555 1_555
O32 Gd13 1_555 1_555
O48 Gd13 1_555 1_555
H24 O48 1_555 1_555
H25 O48 1_555 1_555
C21 C22 1_555 1_555
C25 O25 1_555 1_555
C26 C21 1_555 1_555
H27 C26 1_555 1_555
C27 O21 1_555 1_555
O4 Gd13 1_555 1_555
C21 C27 1_555 1_555
C25 C26 1_555 1_555
Gd4 O1 1_555 1_555
Gd10 O2 1_555 1_555
O1 C7 1_555 1_555
O2 C7 1_555 1_555
O6 H2 1_555 1_555
O7 Gd4 1_555 1_555
O9 H3 1_555 1_555
O10 Gd10 1_555 1_555
O18 Gd10 1_555 1_555
H9 O18 1_555 1_555
H10 O18 1_555 1_555
C1 C2 1_555 1_555
C5 O6 1_555 1_555
C6 C1 1_555 1_555
H12 C6 1_555 1_555
C7 C1 1_555 1_555
C9 O9 1_555 1_555
C14 H14 1_555 1_555
C16 O10 1_555 1_555
O22 Gd10 1_555 1_555
O23 Gd10 1_555 1_555
O29 C32 1_555 1_555
O35 H19 1_555 1_555
H26 C23 1_555 1_555
C24 C23 1_555 1_555
C28 O22 1_555 1_555
C31 C9 1_555 1_555
H28 C31 1_555 1_555
C33 C14 1_555 1_555
C5 C6 1_555 1_555
C14 C15 1_555 1_555
C15 C16 1_555 1_555
O23 C28 1_555 1_555
O35 C33 1_555 1_555
C24 C28 1_555 1_555
C30 C31 1_555 1_555
C30 C32 1_555 1_555
O12 H4 1_555 1_555
H7 O17 1_555 1_555
H8 O17 1_555 1_555
C13 O12 1_555 1_555
O32 C36 1_555 1_555
C34 C13 1_555 1_555
H29 C34 1_555 1_555
C36 C35 1_555 1_555
C34 C35 1_555 1_555
H20 O46 1_555 1_555
H21 O46 1_555 1_555
H5 O16 1_555 1_555
H6 O16 1_555 1_555

#END
