
###############################################################################
#
# This file contains modified crystal structure data generated from the
# MOF subset of the Cambridge Structural Database (CSD) v543 
# hosted by the Cambridge Crystallographic Data Centre (CCDC).
#
# This work is licensed under the Creative Commons
# Attribution-NonCommercial-ShareAlike 4.0 International License.
# To view a copy of this license, visit
# http://creativecommons.org/licenses/by-nc-sa/4.0/
# or send a letter to
# Creative Commons, PO Box 1866, Mountain View, CA 94042, USA.
#
# CIF created using the CSD Python API on 29 September 2022
# The structure has been converted into the P1 space group
# The structure has a 3D framework
# The original CSD entry YEBKUM is in the orthorhombic crystal system
# The framework has been calculated to contain at least 10.0% void space
# The void calculation uses a probe of radius 1.32A, grid spacing 0.4
# The framework is charged, counterions have been retained in the structure
#
###############################################################################

data_YEBKUM
_chemical_formula_moiety         '(C64 O126 Yb16 20-)n'
_symmetry_cell_setting           triclinic
_symmetry_space_group_name_H-M   'P 1'
_symmetry_Int_Tables_number      1
_space_group_name_Hall           'P 1'
loop_
_symmetry_equiv_pos_site_id
_symmetry_equiv_pos_as_xyz
1 x,y,z
_cell_length_a                   8.7970(4)
_cell_length_b                   16.1550(8)
_cell_length_c                   32.170(2)
_cell_angle_alpha                90
_cell_angle_beta                 90
_cell_angle_gamma                90
_cell_volume                     4571.86
loop_
_atom_site_label
_atom_site_type_symbol
_atom_site_fract_x
_atom_site_fract_y
_atom_site_fract_z
O1 O 0.0608(5) 0.1669(3) 0.02173(16)
O4 O 0.0545(5) 0.3298(3) 0.03274(16)
O7 O 0.0691(5) 0.2502(3) 0.11683(15)
O8 O 0.1709(4) 0.3463(3) 0.15965(13)
C2 C 0.1457(11) 0.3037(4) 0.00601(18)
C4 C 0.0715(7) 0.3200(4) 0.13491(19)
Yb4 Yb 0.13979(8) 0.481597(16) 0.185933(7)
O2 O 0.2215(6) 0.1833(3) 0.96921(17)
O3 O 0.2384(5) 0.3438(3) 0.98423(15)
C1 C 0.1421(12) 0.2103(4) 0.99823(19)
Yb3 Yb 0.38979(8) 0.268403(16) 0.935933(7)
Yb1 Yb 0.88979(8) 0.231597(16) 0.064067(7)
O5 O 0.8396(4) 0.3527(3) 0.10199(14)
O6 O 0.9411(5) 0.4477(3) 0.14352(15)
C3 C 0.9386(6) 0.3797(4) 0.12594(19)
O10 O 0.7215(6) 0.3167(3) 0.03079(17)
O12 O 0.7384(5) 0.1562(3) 0.01577(15)
O15 O 0.5896(4) 0.1027(3) 0.14801(14)
O17 O 0.6911(5) 0.1977(3) 0.10648(15)
O19 O 0.8191(5) 0.0002(3) 0.13317(15)
O21 O 0.9209(4) 0.0963(3) 0.09035(13)
C5 C 0.6421(12) 0.2897(4) 0.00177(19)
C7 C 0.6886(6) 0.1297(4) 0.12406(19)
C8 C 0.8215(7) 0.0700(4) 0.11509(19)
O9 O 0.5608(5) 0.3331(3) 0.97827(16)
O14 O 0.5545(5) 0.1702(3) 0.96726(16)
O16 O 0.3396(4) 0.1473(3) 0.89801(14)
O18 O 0.1911(5) 0.3023(3) 0.89352(15)
O20 O 0.5691(5) 0.2498(3) 0.88317(15)
O22 O 0.4209(4) 0.4037(3) 0.90965(13)
C6 C 0.6457(11) 0.1963(4) 0.99399(18)
Yb5 Yb 0.63979(8) 0.981597(16) 0.185933(7)
O2_2 O 0.2215(6) 0.8167(3) 0.03079(17)
O3_2 O 0.2384(5) 0.6562(3) 0.01577(15)
C1_2 C 0.1421(12) 0.7897(4) 0.00177(19)
Yb3_2 Yb 0.38979(8) 0.731597(16) 0.064067(7)
O1_2 O 0.0608(5) 0.8331(3) 0.97827(16)
O4_2 O 0.0545(5) 0.6702(3) 0.96726(16)
O7_2 O 0.0691(5) 0.7498(3) 0.88317(15)
O8_2 O 0.1709(4) 0.6537(3) 0.84035(13)
C2_2 C 0.1457(11) 0.6963(4) 0.99399(18)
C4_2 C 0.0715(7) 0.6800(4) 0.86509(19)
Yb4_2 Yb 0.13979(8) 0.518403(16) 0.814067(7)
Yb5_2 Yb 0.63979(8) 0.018403(16) 0.814067(7)
O9_2 O 0.5608(5) 0.6669(3) 0.02173(16)
O14_2 O 0.5545(5) 0.8298(3) 0.03274(16)
O16_2 O 0.3396(4) 0.8527(3) 0.10199(14)
O18_2 O 0.1911(5) 0.6977(3) 0.10648(15)
O20_2 O 0.5691(5) 0.7502(3) 0.11683(15)
O22_2 O 0.4209(4) 0.5963(3) 0.09035(13)
C6_2 C 0.6457(11) 0.8037(4) 0.00601(18)
Yb1_2 Yb 0.88979(8) 0.768403(16) 0.935933(7)
O5_2 O 0.8396(4) 0.6473(3) 0.89801(14)
O6_2 O 0.9411(5) 0.5523(3) 0.85648(15)
C3_2 C 0.9386(6) 0.6203(4) 0.87406(19)
O10_2 O 0.7215(6) 0.6833(3) 0.96921(17)
O12_2 O 0.7384(5) 0.8438(3) 0.98423(15)
O15_2 O 0.5896(4) 0.8973(3) 0.85199(14)
O17_2 O 0.6911(5) 0.8023(3) 0.89352(15)
O19_2 O 0.8191(5) 0.9998(3) 0.86683(15)
O21_2 O 0.9209(4) 0.9037(3) 0.90965(13)
C5_2 C 0.6421(12) 0.7103(4) 0.99823(19)
C7_2 C 0.6886(6) 0.8703(4) 0.87594(19)
C8_2 C 0.8215(7) 0.9300(4) 0.88491(19)
Yb1_3 Yb 0.13979(8) 0.018403(16) 0.314067(7)
O1_3 O 0.3108(5) 0.0831(3) 0.27173(16)
O2_3 O 0.4715(6) 0.0667(3) 0.21921(17)
C1_3 C 0.3921(12) 0.0397(4) 0.24823(19)
O19_3 O 0.0691(5) 0.2498(3) 0.38317(15)
O21_3 O 0.1709(4) 0.1537(3) 0.34035(13)
C8_3 C 0.0715(7) 0.1800(4) 0.36509(19)
O3_3 O 0.4884(5) 0.9062(3) 0.23423(15)
O4_3 O 0.3045(5) 0.9202(3) 0.28274(16)
O5_3 O 0.0896(4) 0.8973(3) 0.35199(14)
O6_3 O 0.1911(5) 0.8023(3) 0.39352(15)
O7_3 O 0.3191(5) 0.9998(3) 0.36683(15)
O8_3 O 0.4209(4) 0.9037(3) 0.40965(13)
C2_3 C 0.3957(11) 0.9463(4) 0.25601(18)
C3_3 C 0.1886(6) 0.8703(4) 0.37594(19)
C4_3 C 0.3215(7) 0.9300(4) 0.38491(19)
Yb4_3 Yb 0.38979(8) 0.768403(16) 0.435933(7)
Yb5_3 Yb 0.88979(8) 0.268403(16) 0.435933(7)
O12_3 O 0.9884(5) 0.0938(3) 0.26577(15)
O14_3 O 0.8045(5) 0.0798(3) 0.21726(16)
O15_3 O 0.8396(4) 0.1473(3) 0.39801(14)
O17_3 O 0.9411(5) 0.0523(3) 0.35648(15)
C6_3 C 0.8957(11) 0.0537(4) 0.24399(18)
C7_3 C 0.9386(6) 0.1203(4) 0.37406(19)
O9_3 O 0.8108(5) 0.9169(3) 0.22827(16)
O10_3 O 0.9715(6) 0.9333(3) 0.28079(17)
O18_3 O 0.4411(5) 0.9477(3) 0.14352(15)
O22_3 O 0.6709(4) 0.8463(3) 0.15965(13)
C5_3 C 0.8921(12) 0.9603(4) 0.25177(19)
O1_4 O 0.3108(5) 0.4169(3) 0.22827(16)
O2_4 O 0.4715(6) 0.4333(3) 0.28079(17)
O3_4 O 0.4884(5) 0.5938(3) 0.26577(15)
O4_4 O 0.3045(5) 0.5798(3) 0.21726(16)
O5_4 O 0.0896(4) 0.6027(3) 0.14801(14)
O7_4 O 0.3191(5) 0.5002(3) 0.13317(15)
C1_4 C 0.3921(12) 0.4603(4) 0.25177(19)
C2_4 C 0.3957(11) 0.5537(4) 0.24399(18)
C3_4 C 0.1886(6) 0.6297(4) 0.12406(19)
C4_4 C 0.3215(7) 0.5700(4) 0.11509(19)
Yb3_3 Yb 0.63979(8) 0.518403(16) 0.314067(7)
O9_4 O 0.8108(5) 0.5831(3) 0.27173(16)
O10_4 O 0.9715(6) 0.5667(3) 0.21921(17)
O12_4 O 0.9884(5) 0.4062(3) 0.23423(15)
O14_4 O 0.8045(5) 0.4202(3) 0.28274(16)
O16_3 O 0.5896(4) 0.3973(3) 0.35199(14)
O18_4 O 0.4411(5) 0.5523(3) 0.35648(15)
O20_3 O 0.8191(5) 0.4998(3) 0.36683(15)
O22_4 O 0.6709(4) 0.6537(3) 0.34035(13)
C5_4 C 0.8921(12) 0.5397(4) 0.24823(19)
C6_4 C 0.8957(11) 0.4463(4) 0.25601(18)
O1_5 O 0.0608(5) 0.6669(3) 0.52173(16)
O2_5 O 0.2215(6) 0.6833(3) 0.46921(17)
O3_5 O 0.2384(5) 0.8438(3) 0.48423(15)
O4_5 O 0.0545(5) 0.8298(3) 0.53274(16)
O7_5 O 0.0691(5) 0.7502(3) 0.61683(15)
O8_4 O 0.1709(4) 0.8463(3) 0.65965(13)
C1_5 C 0.1421(12) 0.7103(4) 0.49823(19)
C2_5 C 0.1457(11) 0.8037(4) 0.50601(18)
C4_5 C 0.0715(7) 0.8200(4) 0.63491(19)
Yb4_4 Yb 0.13979(8) 0.981597(16) 0.685933(7)
Yb1_4 Yb 0.88979(8) 0.731597(16) 0.564067(7)
O5_5 O 0.8396(4) 0.8527(3) 0.60199(14)
O6_4 O 0.9411(5) 0.9477(3) 0.64352(15)
C3_5 C 0.9386(6) 0.8797(4) 0.62594(19)
Yb5_4 Yb 0.63979(8) 0.481597(16) 0.685933(7)
O9_5 O 0.5608(5) 0.8331(3) 0.47827(16)
O10_5 O 0.7215(6) 0.8167(3) 0.53079(17)
O12_5 O 0.7384(5) 0.6562(3) 0.51577(15)
O14_5 O 0.5545(5) 0.6702(3) 0.46726(16)
O15_4 O 0.5896(4) 0.6027(3) 0.64801(14)
O16_4 O 0.3396(4) 0.6473(3) 0.39801(14)
O17_4 O 0.6911(5) 0.6977(3) 0.60648(15)
O19_4 O 0.8191(5) 0.5002(3) 0.63317(15)
O20_4 O 0.5691(5) 0.7498(3) 0.38317(15)
O21_4 O 0.9209(4) 0.5963(3) 0.59035(13)
C5_5 C 0.6421(12) 0.7897(4) 0.50177(19)
C6_5 C 0.6457(11) 0.6963(4) 0.49399(18)
C7_4 C 0.6886(6) 0.6297(4) 0.62406(19)
C8_4 C 0.8215(7) 0.5700(4) 0.61509(19)
O1_6 O 0.0608(5) 0.3331(3) 0.47827(16)
O2_6 O 0.2215(6) 0.3167(3) 0.53079(17)
O3_6 O 0.2384(5) 0.1562(3) 0.51577(15)
O4_6 O 0.0545(5) 0.1702(3) 0.46726(16)
C1_6 C 0.1421(12) 0.2897(4) 0.50177(19)
C2_6 C 0.1457(11) 0.1963(4) 0.49399(18)
Yb3_4 Yb 0.38979(8) 0.231597(16) 0.564067(7)
O9_6 O 0.5608(5) 0.1669(3) 0.52173(16)
O10_6 O 0.7215(6) 0.1833(3) 0.46921(17)
O12_6 O 0.7384(5) 0.3438(3) 0.48423(15)
O14_6 O 0.5545(5) 0.3298(3) 0.53274(16)
O16_5 O 0.3396(4) 0.3527(3) 0.60199(14)
O17_5 O 0.6911(5) 0.3023(3) 0.39352(15)
O18_5 O 0.1911(5) 0.1977(3) 0.60648(15)
O20_5 O 0.5691(5) 0.2502(3) 0.61683(15)
O21_5 O 0.9209(4) 0.4037(3) 0.40965(13)
O22_5 O 0.4209(4) 0.0963(3) 0.59035(13)
C5_6 C 0.6421(12) 0.2103(4) 0.49823(19)
C6_6 C 0.6457(11) 0.3037(4) 0.50601(18)
C7_5 C 0.6886(6) 0.3703(4) 0.37594(19)
C8_5 C 0.8215(7) 0.4300(4) 0.38491(19)
O1_7 O 0.3108(5) 0.5831(3) 0.77173(16)
O2_7 O 0.4715(6) 0.5667(3) 0.71921(17)
O3_7 O 0.4884(5) 0.4062(3) 0.73423(15)
O4_7 O 0.3045(5) 0.4202(3) 0.78274(16)
O5_6 O 0.0896(4) 0.3973(3) 0.85199(14)
O7_6 O 0.3191(5) 0.4998(3) 0.86683(15)
C1_7 C 0.3921(12) 0.5397(4) 0.74823(19)
C2_7 C 0.3957(11) 0.4463(4) 0.75601(18)
C3_6 C 0.1886(6) 0.3703(4) 0.87594(19)
C4_6 C 0.3215(7) 0.4300(4) 0.88491(19)
O9_7 O 0.8108(5) 0.4169(3) 0.72827(16)
O10_7 O 0.9715(6) 0.4333(3) 0.78079(17)
O12_7 O 0.9884(5) 0.5938(3) 0.76577(15)
O14_7 O 0.8045(5) 0.5798(3) 0.71726(16)
O18_6 O 0.4411(5) 0.4477(3) 0.64352(15)
O22_6 O 0.6709(4) 0.3463(3) 0.65965(13)
C5_7 C 0.8921(12) 0.4603(4) 0.75177(19)
C6_7 C 0.8957(11) 0.5537(4) 0.74399(18)
O3_8 O 0.4884(5) 0.0938(3) 0.76577(15)
O4_8 O 0.3045(5) 0.0798(3) 0.71726(16)
O5_7 O 0.0896(4) 0.1027(3) 0.64801(14)
O7_7 O 0.3191(5) 0.0002(3) 0.63317(15)
C2_8 C 0.3957(11) 0.0537(4) 0.74399(18)
C3_7 C 0.1886(6) 0.1297(4) 0.62406(19)
C4_7 C 0.3215(7) 0.0700(4) 0.61509(19)
O1_8 O 0.3108(5) 0.9169(3) 0.72827(16)
O2_8 O 0.4715(6) 0.9333(3) 0.78079(17)
C1_8 C 0.3921(12) 0.9603(4) 0.75177(19)
O9_8 O 0.8108(5) 0.0831(3) 0.77173(16)
O10_8 O 0.9715(6) 0.0667(3) 0.71921(17)
O18_7 O 0.4411(5) 0.0523(3) 0.85648(15)
O22_7 O 0.6709(4) 0.1537(3) 0.84035(13)
C5_8 C 0.8921(12) 0.0397(4) 0.74823(19)
O12_8 O 0.9884(5) 0.9062(3) 0.73423(15)
O14_8 O 0.8045(5) 0.9202(3) 0.78274(16)
C6_8 C 0.8957(11) 0.9463(4) 0.75601(18)
C3_8 C 0.4386(6) 0.3797(4) 0.62594(19)
C4_8 C 0.5715(7) 0.3200(4) 0.63491(19)
C3_9 C 0.4386(6) 0.6203(4) 0.37406(19)
C4_9 C 0.5715(7) 0.6800(4) 0.36509(19)
C7_6 C 0.4386(6) 0.1203(4) 0.87406(19)
C8_6 C 0.5715(7) 0.1800(4) 0.86509(19)
C3_10 C 0.4386(6) 0.8797(4) 0.12594(19)
C4_10 C 0.5715(7) 0.8200(4) 0.13491(19)
loop_
_geom_bond_atom_site_label_1
_geom_bond_atom_site_label_2
_geom_bond_site_symmetry_1
_geom_bond_site_symmetry_2
O8 C4 1_555 1_555
C2 O4 1_555 1_555
C4 O7 1_555 1_555
O8 Yb4 1_555 1_555
O2 C1 1_555 1_555
Yb3 O2 1_555 1_555
O3 Yb3 1_555 1_555
O5 Yb1 1_555 1_555
O6 C3 1_555 1_555
C3 O5 1_555 1_555
O10 Yb1 1_555 1_555
O12 Yb1 1_555 1_555
O15 C7 1_555 1_555
O17 Yb1 1_555 1_555
O21 Yb1 1_555 1_555
C5 O10 1_555 1_555
C7 O17 1_555 1_555
C8 O19 1_555 1_555
O21 C8 1_555 1_555
C7 C8 1_555 1_555
Yb3 O9 1_555 1_555
O14 Yb3 1_555 1_555
O16 Yb3 1_555 1_555
O18 Yb3 1_555 1_555
O20 Yb3 1_555 1_555
O22 Yb3 1_555 1_555
O14 C6 1_555 1_555
O2_2 C1_2 1_555 1_555
Yb3_2 O2_2 1_555 1_555
O3_2 Yb3_2 1_555 1_555
O8_2 C4_2 1_555 1_555
C2_2 O4_2 1_555 1_555
C4_2 O7_2 1_555 1_555
O8_2 Yb4_2 1_555 1_555
Yb3_2 O9_2 1_555 1_555
O14_2 Yb3_2 1_555 1_555
O16_2 Yb3_2 1_555 1_555
O18_2 Yb3_2 1_555 1_555
O20_2 Yb3_2 1_555 1_555
O22_2 Yb3_2 1_555 1_555
O14_2 C6_2 1_555 1_555
O5_2 Yb1_2 1_555 1_555
O6_2 C3_2 1_555 1_555
C3_2 O5_2 1_555 1_555
O10_2 Yb1_2 1_555 1_555
O12_2 Yb1_2 1_555 1_555
O15_2 C7_2 1_555 1_555
O17_2 Yb1_2 1_555 1_555
O21_2 Yb1_2 1_555 1_555
C5_2 O10_2 1_555 1_555
C7_2 O17_2 1_555 1_555
C8_2 O19_2 1_555 1_555
O21_2 C8_2 1_555 1_555
C7_2 C8_2 1_555 1_555
Yb1_3 O1_3 1_555 1_555
O1_3 C1_3 1_555 1_555
O2_3 C1_3 1_555 1_555
O21_3 Yb1_3 1_555 1_555
C8_3 O19_3 1_555 1_555
O21_3 C8_3 1_555 1_555
O3_3 C2_3 1_555 1_555
O6_3 C3_3 1_555 1_555
O8_3 C4_3 1_555 1_555
C2_3 O4_3 1_555 1_555
C3_3 O5_3 1_555 1_555
C4_3 O7_3 1_555 1_555
Yb4_3 O6_3 1_555 1_555
O3_3 Yb5 1_555 1_555
O8_3 Yb4_3 1_555 1_555
C3_3 C4_3 1_555 1_555
Yb5_3 O15_3 1_555 1_555
O15_3 C7_3 1_555 1_555
C6_3 O12_3 1_555 1_555
C7_3 O17_3 1_555 1_555
O14_3 C6_3 1_555 1_555
Yb5 O9_3 1_555 1_555
O9_3 C5_3 1_555 1_555
O18_3 Yb5 1_555 1_555
O22_3 Yb5 1_555 1_555
C5_3 O10_3 1_555 1_555
Yb4 O1_4 1_555 1_555
O1_4 C1_4 1_555 1_555
O2_4 C1_4 1_555 1_555
O3_4 C2_4 1_555 1_555
O4_4 Yb4 1_555 1_555
O5_4 Yb4 1_555 1_555
O18_2 C3_4 1_555 1_555
O7_4 Yb4 1_555 1_555
O22_2 C4_4 1_555 1_555
C1_4 C2_4 1_555 1_555
C2_4 O4_4 1_555 1_555
C3_4 O5_4 1_555 1_555
C4_4 O7_4 1_555 1_555
Yb3_3 O2_4 1_555 1_555
O3_4 Yb3_3 1_555 1_555
C3_4 C4_4 1_555 1_555
Yb3_3 O9_4 1_555 1_555
O9_4 C5_4 1_555 1_555
O14_4 Yb3_3 1_555 1_555
O16_3 Yb3_3 1_555 1_555
O18_4 Yb3_3 1_555 1_555
O20_3 Yb3_3 1_555 1_555
O22_4 Yb3_3 1_555 1_555
C5_4 O10_4 1_555 1_555
C6_4 O12_4 1_555 1_555
O14_4 C6_4 1_555 1_555
C5_4 C6_4 1_555 1_555
O1_5 C1_5 1_555 1_555
O2_5 C1_5 1_555 1_555
O3_5 C2_5 1_555 1_555
O8_4 C4_5 1_555 1_555
C1_5 C2_5 1_555 1_555
C2_5 O4_5 1_555 1_555
C4_5 O7_5 1_555 1_555
Yb4_3 O2_5 1_555 1_555
O3_5 Yb4_3 1_555 1_555
O8_4 Yb4_4 1_555 1_555
O5_5 Yb1_4 1_555 1_555
O6_4 C3_5 1_555 1_555
C3_5 O5_5 1_555 1_555
Yb4_3 O9_5 1_555 1_555
Yb5_4 O15_4 1_555 1_555
O9_5 C5_5 1_555 1_555
O10_5 Yb1_4 1_555 1_555
O12_5 Yb1_4 1_555 1_555
O14_5 Yb4_3 1_555 1_555
O15_4 C7_4 1_555 1_555
O16_4 Yb4_3 1_555 1_555
O17_4 Yb1_4 1_555 1_555
O19_4 Yb5_4 1_555 1_555
O20_4 Yb4_3 1_555 1_555
O21_4 Yb1_4 1_555 1_555
C5_5 O10_5 1_555 1_555
C6_5 O12_5 1_555 1_555
C7_4 O17_4 1_555 1_555
C8_4 O19_4 1_555 1_555
O14_5 C6_5 1_555 1_555
O21_4 C8_4 1_555 1_555
C5_5 C6_5 1_555 1_555
C7_4 C8_4 1_555 1_555
O1_6 C1_6 1_555 1_555
O2_6 C1_6 1_555 1_555
O3_6 C2_6 1_555 1_555
C1_6 C2_6 1_555 1_555
C2_6 O4_6 1_555 1_555
Yb3_4 O2_6 1_555 1_555
O3_6 Yb3_4 1_555 1_555
Yb3_4 O9_6 1_555 1_555
O9_6 C5_6 1_555 1_555
O10_6 Yb5_3 1_555 1_555
O12_6 Yb5_3 1_555 1_555
O14_6 Yb3_4 1_555 1_555
O16_3 C7_5 1_555 1_555
O16_5 Yb3_4 1_555 1_555
O17_5 Yb5_3 1_555 1_555
O18_5 Yb3_4 1_555 1_555
O20_5 Yb3_4 1_555 1_555
O21_5 Yb5_3 1_555 1_555
O22_5 Yb3_4 1_555 1_555
C5_6 O10_6 1_555 1_555
C6_6 O12_6 1_555 1_555
C7_5 O17_5 1_555 1_555
C8_5 O20_3 1_555 1_555
O14_6 C6_6 1_555 1_555
O21_5 C8_5 1_555 1_555
C5_6 C6_6 1_555 1_555
C7_5 C8_5 1_555 1_555
Yb4_2 O1_7 1_555 1_555
O1_7 C1_7 1_555 1_555
O2_7 C1_7 1_555 1_555
O3_7 C2_7 1_555 1_555
O4_7 Yb4_2 1_555 1_555
O5_6 Yb4_2 1_555 1_555
O18 C3_6 1_555 1_555
O7_6 Yb4_2 1_555 1_555
O22 C4_6 1_555 1_555
C1_7 C2_7 1_555 1_555
C2_7 O4_7 1_555 1_555
C3_6 O5_6 1_555 1_555
C4_6 O7_6 1_555 1_555
Yb5_4 O2_7 1_555 1_555
O3_7 Yb5_4 1_555 1_555
C3_6 C4_6 1_555 1_555
Yb5_4 O9_7 1_555 1_555
O9_7 C5_7 1_555 1_555
O14_7 Yb5_4 1_555 1_555
O18_6 Yb5_4 1_555 1_555
O22_6 Yb5_4 1_555 1_555
C5_7 O10_7 1_555 1_555
C6_7 O12_7 1_555 1_555
O14_7 C6_7 1_555 1_555
C5_7 C6_7 1_555 1_555
O3_8 C2_8 1_555 1_555
O18_5 C3_7 1_555 1_555
O22_5 C4_7 1_555 1_555
C2_8 O4_8 1_555 1_555
C3_7 O5_7 1_555 1_555
C4_7 O7_7 1_555 1_555
O3_8 Yb5_2 1_555 1_555
C3_7 C4_7 1_555 1_555
Yb4_4 O1_8 1_555 1_555
O1_8 C1_8 1_555 1_555
O2_8 C1_8 1_555 1_555
Yb5_2 O9_8 1_555 1_555
O9_8 C5_8 1_555 1_555
O18_7 Yb5_2 1_555 1_555
O22_7 Yb5_2 1_555 1_555
C5_8 O10_8 1_555 1_555
C6_8 O12_8 1_555 1_555
O14_8 C6_8 1_555 1_555
O18_6 C3_8 1_555 1_555
O22_6 C4_8 1_555 1_555
C3_8 O16_5 1_555 1_555
C4_8 O20_5 1_555 1_555
C3_8 C4_8 1_555 1_555
O18_4 C3_9 1_555 1_555
O22_4 C4_9 1_555 1_555
C3_9 O16_4 1_555 1_555
C4_9 O20_4 1_555 1_555
C3_9 C4_9 1_555 1_555
O16 C7_6 1_555 1_555
C7_6 O18_7 1_555 1_555
C8_6 O20 1_555 1_555
O22_7 C8_6 1_555 1_555
C7_6 C8_6 1_555 1_555
O18_3 C3_10 1_555 1_555
O22_3 C4_10 1_555 1_555
C3_10 O16_2 1_555 1_555
C4_10 O20_2 1_555 1_555
C3_10 C4_10 1_555 1_555

#END
