
###############################################################################
#
# This file contains modified crystal structure data generated from the
# MOF subset of the Cambridge Structural Database (CSD) v543 
# hosted by the Cambridge Crystallographic Data Centre (CCDC).
#
# This work is licensed under the Creative Commons
# Attribution-NonCommercial-ShareAlike 4.0 International License.
# To view a copy of this license, visit
# http://creativecommons.org/licenses/by-nc-sa/4.0/
# or send a letter to
# Creative Commons, PO Box 1866, Mountain View, CA 94042, USA.
#
# CIF created using the CSD Python API on 29 September 2022
# The structure has been converted into the P1 space group
# The structure has a 3D framework
# The original CSD entry YECBAN is in the rhombohedral crystal system
# The original CSD entry YECBAN is in a Sohncke space group
# The framework has been calculated to contain at least 10.0% void space
# The void calculation uses a probe of radius 1.32A, grid spacing 0.4
#
###############################################################################

data_YECBAN
_chemical_formula_moiety         '(C252 H144 O78 S36 Zn18)n'
_symmetry_cell_setting           triclinic
_symmetry_space_group_name_H-M   'P 1'
_symmetry_Int_Tables_number      1
_space_group_name_Hall           'P 1'
loop_
_symmetry_equiv_pos_site_id
_symmetry_equiv_pos_as_xyz
1 x,y,z
_cell_length_a                   18.6528(10)
_cell_length_b                   18.6528(10)
_cell_length_c                   31.9660(15)
_cell_angle_alpha                90
_cell_angle_beta                 90
_cell_angle_gamma                120
_cell_volume                     9631.79
loop_
_atom_site_label
_atom_site_type_symbol
_atom_site_fract_x
_atom_site_fract_y
_atom_site_fract_z
O11 O 0.5507(3) 0.0040(2) 0.44619(9)
Zn4 Zn 0.65840(3) 0.08382(3) 0.48007(2)
Zn8 Zn 0.67493(3) 0.09209(4) 0.18660(2)
Zn11 Zn 0.75875(4) 0.00827(3) 0.14674(2)
Zn1 Zn 0.08382(3) 0.65840(3) 0.51993(2)
S1 S 0.01110(7) 0.56632(8) 0.36228(3)
S2 S 0.41391(7) 0.43652(7) 0.29913(3)
O1 O 0.1120(2) 0.5895(2) 0.48314(9)
O3 O 0.3708(2) 0.3831(2) 0.22006(9)
O4 O 0.2397(2) 0.3026(2) 0.19873(8)
O5 O 0.1955(2) 0.7211(3) 0.54566(12)
H1 H 0.235072 0.701411 0.554072
H2 H 0.228109 0.781482 0.553951
C1 C 0.0676(3) 0.5590(3) 0.45164(13)
C2 C 0.1039(3) 0.5314(3) 0.41727(12)
C3 C 0.1615(3) 0.5079(4) 0.42662(13)
H3 H 0.177330 0.509749 0.454359
C4 C 0.1966(4) 0.4817(4) 0.39652(14)
H4 H 0.236301 0.467621 0.403836
C5 C 0.1715(3) 0.4767(3) 0.35500(13)
C6 C 0.1152(3) 0.5022(3) 0.34543(13)
H5 H 0.100016 0.500752 0.317606
C7 C 0.0802(3) 0.5298(3) 0.37535(11)
C8 C 0.2044(3) 0.4464(3) 0.32153(12)
C9 C 0.2822(3) 0.4545(3) 0.32444(12)
H6 H 0.314626 0.480452 0.347802
C10 C 0.3133(3) 0.4251(3) 0.29355(11)
C11 C 0.2656(3) 0.3882(3) 0.25786(12)
C12 C 0.1881(4) 0.3817(3) 0.25408(14)
H7 H 0.156698 0.358377 0.230095
C13 C 0.1576(3) 0.4093(4) 0.28541(14)
H8 H 0.105253 0.403291 0.282675
C14 C 0.2943(3) 0.3559(3) 0.22259(12)
S3 S 0.43368(8) 0.44478(11) 0.36228(3)
S4 S 0.56348(7) 0.97739(10) 0.29913(3)
O6 O 0.4105(2) 0.5225(3) 0.48314(9)
O7 O 0.4533(2) 0.4493(3) 0.44619(9)
O8 O 0.6169(2) 0.9877(3) 0.22006(9)
O9 O 0.6974(2) 0.9371(3) 0.19873(8)
C15 C 0.4410(3) 0.5086(4) 0.45164(13)
C16 C 0.4686(3) 0.5725(4) 0.41727(12)
C17 C 0.4921(4) 0.6536(5) 0.42662(13)
H9 H 0.490251 0.667581 0.454359
C18 C 0.5183(4) 0.7149(6) 0.39652(14)
H10 H 0.532379 0.768680 0.403836
C19 C 0.5233(3) 0.6948(4) 0.35500(13)
C20 C 0.4978(3) 0.6130(4) 0.34543(13)
H11 H 0.499248 0.599264 0.317606
C21 C 0.4702(3) 0.5504(4) 0.37535(11)
C22 C 0.5536(3) 0.7580(4) 0.32153(12)
C23 C 0.5455(3) 0.8277(4) 0.32444(12)
H12 H 0.519548 0.834174 0.347802
C24 C 0.5749(3) 0.8882(4) 0.29355(11)
C25 C 0.6118(3) 0.8774(4) 0.25786(12)
C26 C 0.6183(3) 0.8064(5) 0.25408(14)
H13 H 0.641623 0.798321 0.230095
C27 C 0.5907(4) 0.7483(5) 0.28541(14)
H14 H 0.596709 0.701962 0.282675
C28 C 0.6441(3) 0.9384(4) 0.22259(12)
S5 S 0.55522(11) 0.98890(7) 0.36228(3)
S6 S 0.02261(10) 0.58609(7) 0.29913(3)
O10 O 0.4775(3) 0.8880(2) 0.48314(9)
O12 O 0.0123(3) 0.6292(2) 0.22006(9)
O13 O 0.0629(3) 0.7603(2) 0.19873(8)
C29 C 0.4914(4) 0.9324(3) 0.45164(13)
C30 C 0.4275(4) 0.8961(3) 0.41727(12)
C31 C 0.3464(5) 0.8385(3) 0.42662(13)
H15 H 0.332419 0.822670 0.454359
C32 C 0.2851(6) 0.8034(4) 0.39652(14)
H16 H 0.231320 0.763699 0.403836
C33 C 0.3052(4) 0.8285(3) 0.35500(13)
C34 C 0.3870(4) 0.8848(3) 0.34543(13)
H17 H 0.400736 0.899984 0.317606
C35 C 0.4496(4) 0.9198(3) 0.37535(11)
C36 C 0.2420(4) 0.7956(3) 0.32153(12)
C37 C 0.1723(4) 0.7178(3) 0.32444(12)
H18 H 0.165826 0.685374 0.347802
C38 C 0.1118(4) 0.6867(3) 0.29355(11)
C39 C 0.1226(4) 0.7344(3) 0.25786(12)
C40 C 0.1936(5) 0.8119(4) 0.25408(14)
H19 H 0.201679 0.843302 0.230095
C41 C 0.2517(5) 0.8424(3) 0.28541(14)
H20 H 0.298038 0.894747 0.282675
C42 C 0.0616(4) 0.7057(3) 0.22259(12)
Zn2 Zn 0.34160(3) 0.42542(4) 0.51993(2)
O14 O 0.2789(3) 0.4744(4) 0.54566(12)
H21 H 0.298589 0.533661 0.554072
H22 H 0.218518 0.446627 0.553951
Zn3 Zn 0.57458(4) 0.91618(3) 0.51993(2)
O15 O 0.5256(4) 0.8045(2) 0.54566(12)
H23 H 0.466339 0.764928 0.554072
H24 H 0.553373 0.771891 0.553951
Zn5 Zn 0.42542(4) 0.34160(3) 0.48007(2)
Zn7 Zn 0.41715(3) 0.32507(3) 0.18660(2)
Zn12 Zn 0.24951(3) 0.24125(4) 0.14674(2)
O16 O 0.5467(2) 0.9960(2) 0.55381(9)
O17 O 0.4493(3) 0.4533(2) 0.55381(9)
O18 O 0.0040(2) 0.5507(3) 0.55381(9)
O19 O 0.0375(2) 0.7164(2) 0.55339(9)
O20 O 0.2836(2) 0.3210(3) 0.55339(9)
O21 O 0.6790(3) 0.9625(2) 0.55339(9)
O22 O 0.6359(2) 0.9064(2) 0.46794(8)
O23 O 0.2704(3) 0.3641(2) 0.46794(8)
O24 O 0.0936(2) 0.7296(3) 0.46794(8)
O2 O 0.9960(2) 0.5467(2) 0.44619(9)
Zn6 Zn 0.91618(3) 0.57458(4) 0.48007(2)
Zn9 Zn 0.90791(4) 0.58285(3) 0.18660(2)
Zn10 Zn 0.99173(3) 0.75049(3) 0.14674(2)
Zn8_2 Zn 0.09209(4) 0.67493(3) 0.81340(2)
Zn11_2 Zn 0.00827(3) 0.75875(4) 0.85326(2)
S1_2 S 0.56632(8) 0.01110(7) 0.63772(3)
S2_2 S 0.43652(7) 0.41391(7) 0.70087(3)
O1_2 O 0.5895(2) 0.1120(2) 0.51686(9)
O3_2 O 0.3831(2) 0.3708(2) 0.77994(9)
O4_2 O 0.3026(2) 0.2397(2) 0.80127(8)
O5_2 O 0.7211(3) 0.1955(2) 0.45434(12)
H1_2 H 0.701411 0.235072 0.445928
H2_2 H 0.781482 0.228109 0.446049
C1_2 C 0.5590(3) 0.0676(3) 0.54836(13)
C2_2 C 0.5314(3) 0.1039(3) 0.58273(12)
C3_2 C 0.5079(4) 0.1615(3) 0.57338(13)
H3_2 H 0.509749 0.177330 0.545641
C4_2 C 0.4817(4) 0.1966(4) 0.60348(14)
H4_2 H 0.467621 0.236301 0.596164
C5_2 C 0.4767(3) 0.1715(3) 0.64500(13)
C6_2 C 0.5022(3) 0.1152(3) 0.65457(13)
H5_2 H 0.500752 0.100016 0.682394
C7_2 C 0.5298(3) 0.0802(3) 0.62465(11)
C8_2 C 0.4464(3) 0.2044(3) 0.67847(12)
C9_2 C 0.4545(3) 0.2822(3) 0.67556(12)
H6_2 H 0.480452 0.314626 0.652198
C10_2 C 0.4251(3) 0.3133(3) 0.70645(11)
C11_2 C 0.3882(3) 0.2656(3) 0.74214(12)
C12_2 C 0.3817(3) 0.1881(4) 0.74592(14)
H7_2 H 0.358377 0.156698 0.769905
C13_2 C 0.4093(4) 0.1576(3) 0.71459(14)
H8_2 H 0.403291 0.105253 0.717325
C14_2 C 0.3559(3) 0.2943(3) 0.77741(12)
S3_2 S 0.44478(11) 0.43368(8) 0.63772(3)
S4_2 S 0.97739(10) 0.56348(7) 0.70087(3)
O6_2 O 0.5225(3) 0.4105(2) 0.51686(9)
O8_2 O 0.9877(3) 0.6169(2) 0.77994(9)
O9_2 O 0.9371(3) 0.6974(2) 0.80127(8)
C15_2 C 0.5086(4) 0.4410(3) 0.54836(13)
C16_2 C 0.5725(4) 0.4686(3) 0.58273(12)
C17_2 C 0.6536(5) 0.4921(4) 0.57338(13)
H9_2 H 0.667581 0.490251 0.545641
C18_2 C 0.7149(6) 0.5183(4) 0.60348(14)
H10_2 H 0.768680 0.532379 0.596164
C19_2 C 0.6948(4) 0.5233(3) 0.64500(13)
C20_2 C 0.6130(4) 0.4978(3) 0.65457(13)
H11_2 H 0.599264 0.499248 0.682394
C21_2 C 0.5504(4) 0.4702(3) 0.62465(11)
C22_2 C 0.7580(4) 0.5536(3) 0.67847(12)
C23_2 C 0.8277(4) 0.5455(3) 0.67556(12)
H12_2 H 0.834174 0.519548 0.652198
C24_2 C 0.8882(4) 0.5749(3) 0.70645(11)
C25_2 C 0.8774(4) 0.6118(3) 0.74214(12)
C26_2 C 0.8064(5) 0.6183(3) 0.74592(14)
H13_2 H 0.798321 0.641623 0.769905
C27_2 C 0.7483(5) 0.5907(4) 0.71459(14)
H14_2 H 0.701962 0.596709 0.717325
C28_2 C 0.9384(4) 0.6441(3) 0.77741(12)
S5_2 S 0.98890(7) 0.55522(11) 0.63772(3)
S6_2 S 0.58609(7) 0.02261(10) 0.70087(3)
O10_2 O 0.8880(2) 0.4775(3) 0.51686(9)
O12_2 O 0.6292(2) 0.0123(3) 0.77994(9)
O13_2 O 0.7603(2) 0.0629(3) 0.80127(8)
C29_2 C 0.9324(3) 0.4914(4) 0.54836(13)
C30_2 C 0.8961(3) 0.4275(4) 0.58273(12)
C31_2 C 0.8385(3) 0.3464(5) 0.57338(13)
H15_2 H 0.822670 0.332419 0.545641
C32_2 C 0.8034(4) 0.2851(6) 0.60348(14)
H16_2 H 0.763699 0.231320 0.596164
C33_2 C 0.8285(3) 0.3052(4) 0.64500(13)
C34_2 C 0.8848(3) 0.3870(4) 0.65457(13)
H17_2 H 0.899984 0.400736 0.682394
C35_2 C 0.9198(3) 0.4496(4) 0.62465(11)
C36_2 C 0.7956(3) 0.2420(4) 0.67847(12)
C37_2 C 0.7178(3) 0.1723(4) 0.67556(12)
H18_2 H 0.685374 0.165826 0.652198
C38_2 C 0.6867(3) 0.1118(4) 0.70645(11)
C39_2 C 0.7344(3) 0.1226(4) 0.74214(12)
C40_2 C 0.8119(4) 0.1936(5) 0.74592(14)
H19_2 H 0.843302 0.201679 0.769905
C41_2 C 0.8424(3) 0.2517(5) 0.71459(14)
H20_2 H 0.894747 0.298038 0.717325
C42_2 C 0.7057(3) 0.0616(4) 0.77741(12)
O14_2 O 0.4744(4) 0.2789(3) 0.45434(12)
H21_2 H 0.533661 0.298589 0.445928
H22_2 H 0.446627 0.218518 0.446049
O15_2 O 0.8045(2) 0.5256(4) 0.45434(12)
H23_2 H 0.764928 0.466339 0.445928
H24_2 H 0.771891 0.553373 0.446049
Zn7_2 Zn 0.32507(3) 0.41715(3) 0.81340(2)
Zn12_2 Zn 0.24125(4) 0.24951(3) 0.85326(2)
O19_2 O 0.7164(2) 0.0375(2) 0.44661(9)
O20_2 O 0.3210(3) 0.2836(2) 0.44661(9)
O21_2 O 0.9625(2) 0.6790(3) 0.44661(9)
O22_2 O 0.9064(2) 0.6359(2) 0.53206(8)
O23_2 O 0.3641(2) 0.2704(3) 0.53206(8)
O24_2 O 0.7296(3) 0.0936(2) 0.53206(8)
Zn9_2 Zn 0.58285(3) 0.90791(4) 0.81340(2)
Zn10_2 Zn 0.75049(3) 0.99173(3) 0.85326(2)
S4_3 S 0.23015(7) 0.31072(10) 0.63246(3)
H9_3 H 0.156918 0.000914 0.787692
C18_3 C 0.1850(4) 0.0482(6) 0.72985(14)
H10_3 H 0.199046 0.102013 0.737169
C19_3 C 0.1900(3) 0.0281(4) 0.68833(13)
C22_3 C 0.2203(3) 0.0913(4) 0.65486(12)
C23_3 C 0.2122(3) 0.1610(4) 0.65777(12)
H12_3 H 0.186215 0.167507 0.681135
C24_3 C 0.2416(3) 0.2215(4) 0.62688(11)
C25_3 C 0.2785(3) 0.2107(4) 0.59119(12)
C26_3 C 0.2850(3) 0.1397(5) 0.58741(14)
H13_3 H 0.308290 0.131654 0.563428
C27_3 C 0.2574(4) 0.0816(5) 0.61874(14)
H14_3 H 0.263376 0.035295 0.616008
C28_3 C 0.3108(3) 0.2717(4) 0.55592(12)
S5_3 S 0.22189(11) 0.32223(7) 0.69561(3)
O10_3 O 0.1442(3) 0.2213(2) 0.81647(9)
O11_2 O 0.2174(3) 0.3373(2) 0.77952(9)
C29_3 C 0.1581(4) 0.2657(3) 0.78497(13)
C30_3 C 0.0942(4) 0.2294(3) 0.75060(12)
C31_3 C 0.0131(5) 0.1718(3) 0.75995(13)
C34_3 C 0.0537(4) 0.2181(3) 0.67876(13)
H17_3 H 0.067403 0.233317 0.650939
C35_3 C 0.1163(4) 0.2531(3) 0.70868(11)
O15_3 O 0.1923(4) 0.1378(2) 0.87899(12)
H23_3 H 0.133006 0.098261 0.887405
H24_3 H 0.220040 0.105224 0.887284
O16_2 O 0.2134(2) 0.3293(2) 0.88714(9)
O21_3 O 0.3456(3) 0.2959(2) 0.88673(9)
S2_3 S 0.08058(7) 0.76985(7) 0.63246(3)
S3_3 S 0.10035(8) 0.77811(11) 0.69561(3)
O6_3 O 0.0772(2) 0.8558(3) 0.81647(9)
O7_2 O 0.1200(2) 0.7826(3) 0.77952(9)
C15_3 C 0.1077(3) 0.8419(4) 0.78497(13)
C16_3 C 0.1353(3) 0.9058(4) 0.75060(12)
C17_3 C 0.1588(4) 0.9869(5) 0.75995(13)
C20_3 C 0.1645(3) 0.9463(4) 0.67876(13)
H11_3 H 0.165915 0.932597 0.650939
C21_3 C 0.1369(3) 0.8837(4) 0.70868(11)
O17_2 O 0.1160(3) 0.7866(2) 0.88714(9)
O5_3 O 0.8622(2) 0.0544(3) 0.87899(12)
H1_3 H 0.901739 0.034744 0.887405
H2_3 H 0.894776 0.114815 0.887284
H15_3 H 0.999086 0.156003 0.787692
C32_3 C 0.9518(6) 0.1367(4) 0.72985(14)
H16_3 H 0.897987 0.097032 0.737169
C33_3 C 0.9719(4) 0.1618(3) 0.68833(13)
C36_3 C 0.9087(4) 0.1289(3) 0.65486(12)
C37_3 C 0.8390(4) 0.0511(3) 0.65777(12)
H18_3 H 0.832493 0.018707 0.681135
C38_3 C 0.7785(4) 0.0200(3) 0.62688(11)
C39_3 C 0.7893(4) 0.0677(3) 0.59119(12)
C40_3 C 0.8603(5) 0.1452(4) 0.58741(14)
H19_3 H 0.868346 0.176635 0.563428
C41_3 C 0.9184(5) 0.1757(3) 0.61874(14)
H20_3 H 0.964705 0.228080 0.616008
C42_3 C 0.7283(4) 0.0390(3) 0.55592(12)
O19_3 O 0.7041(2) 0.0498(2) 0.88673(9)
S1_3 S 0.67777(7) 0.89965(8) 0.69561(3)
O1_3 O 0.7787(2) 0.9228(2) 0.81647(9)
O2_2 O 0.6627(2) 0.8800(2) 0.77952(9)
C1_3 C 0.7343(3) 0.8923(3) 0.78497(13)
C2_3 C 0.7706(3) 0.8647(3) 0.75060(12)
C3_3 C 0.8282(3) 0.8412(4) 0.75995(13)
H3_3 H 0.843997 0.843082 0.787692
C4_3 C 0.8633(4) 0.8150(4) 0.72985(14)
H4_3 H 0.902968 0.800954 0.737169
C5_3 C 0.8382(3) 0.8100(3) 0.68833(13)
C6_3 C 0.7819(3) 0.8355(3) 0.67876(13)
H5_3 H 0.766683 0.834085 0.650939
C7_3 C 0.7469(3) 0.8631(3) 0.70868(11)
C8_3 C 0.8711(3) 0.7797(3) 0.65486(12)
C9_3 C 0.9489(3) 0.7878(3) 0.65777(12)
H6_3 H 0.981293 0.813785 0.681135
C10_3 C 0.9800(3) 0.7584(3) 0.62688(11)
C11_3 C 0.9323(3) 0.7215(3) 0.59119(12)
C12_3 C 0.8548(4) 0.7150(3) 0.58741(14)
H7_3 H 0.823365 0.691710 0.563428
C13_3 C 0.8243(3) 0.7426(4) 0.61874(14)
H8_3 H 0.771920 0.736624 0.616008
C14_3 C 0.9610(3) 0.6892(3) 0.55592(12)
S6_3 S 0.68928(10) 0.91942(7) 0.63246(3)
O14_3 O 0.9456(3) 0.8077(4) 0.87899(12)
H21_3 H 0.965256 0.866994 0.887405
H22_3 H 0.885185 0.779960 0.887284
O18_2 O 0.6707(2) 0.8840(3) 0.88714(9)
O20_3 O 0.9502(2) 0.6544(3) 0.88673(9)
O9_3 O 0.6038(3) 0.0307(2) 0.13460(8)
S2_4 S 0.10319(7) 0.74724(7) 0.03420(3)
O3_3 O 0.0498(2) 0.7041(2) 0.11327(9)
H5_4 H 0.167419 0.433349 0.015727
C8_4 C 0.1131(3) 0.5377(3) 0.01180(12)
C9_4 C 0.1212(3) 0.6155(3) 0.00889(12)
C10_4 C 0.0918(3) 0.6466(3) 0.03978(11)
C11_4 C 0.0549(3) 0.5989(3) 0.07547(12)
C12_4 C 0.0484(3) 0.5214(4) 0.07925(14)
H7_4 H 0.025044 0.490031 0.103238
C13_4 C 0.0760(4) 0.4909(3) 0.04792(14)
H8_4 H 0.069958 0.438586 0.050658
C14_4 C 0.0226(3) 0.6276(3) 0.11074(12)
S4_4 S 0.64406(10) 0.89681(7) 0.03420(3)
O8_3 O 0.6544(3) 0.9502(2) 0.11327(9)
H11_4 H 0.265931 0.832581 0.015727
C22_4 C 0.4247(4) 0.8869(3) 0.01180(12)
C23_4 C 0.4944(4) 0.8788(3) 0.00889(12)
C24_4 C 0.5549(4) 0.9082(3) 0.03978(11)
C25_4 C 0.5441(4) 0.9451(3) 0.07547(12)
C26_4 C 0.4731(5) 0.9516(3) 0.07925(14)
H13_4 H 0.464988 0.974956 0.103238
C27_4 C 0.4150(5) 0.9240(4) 0.04792(14)
H14_4 H 0.368629 0.930042 0.050658
C28_4 C 0.6051(4) 0.9774(3) 0.11074(12)
S6_4 S 0.25276(7) 0.35594(10) 0.03420(3)
O12_3 O 0.2959(2) 0.3456(3) 0.11327(9)
O13_3 O 0.4270(2) 0.3962(3) 0.13460(8)
H17_4 H 0.566651 0.734069 0.015727
C36_4 C 0.4623(3) 0.5753(4) 0.01180(12)
C37_4 C 0.3845(3) 0.5056(4) 0.00889(12)
C38_4 C 0.3534(3) 0.4451(4) 0.03978(11)
C39_4 C 0.4011(3) 0.4559(4) 0.07547(12)
C40_4 C 0.4786(4) 0.5269(5) 0.07925(14)
H19_4 H 0.509969 0.535012 0.103238
C41_4 C 0.5091(3) 0.5850(5) 0.04792(14)
H20_4 H 0.561414 0.631371 0.050658
C42_4 C 0.3724(3) 0.3949(4) 0.11074(12)
S1_4 S 0.23299(8) 0.34443(7) 0.97105(3)
O1_4 O 0.2562(2) 0.4453(2) 0.85019(9)
O5_4 O 0.3878(3) 0.5288(2) 0.78767(12)
H1_4 H 0.368078 0.568405 0.779261
H2_4 H 0.448149 0.561442 0.779382
C1_4 C 0.2257(3) 0.4009(3) 0.88169(13)
C2_4 C 0.1981(3) 0.4372(3) 0.91606(12)
C3_4 C 0.1746(4) 0.4948(3) 0.90671(13)
H3_4 H 0.176416 0.510663 0.878974
C4_4 C 0.1484(4) 0.5299(4) 0.93681(14)
H4_4 H 0.134288 0.569634 0.929497
C5_4 C 0.1434(3) 0.5048(3) 0.97833(13)
C6_4 C 0.1689(3) 0.4485(3) 0.98790(13)
C7_4 C 0.1965(3) 0.4135(3) 0.95798(11)
H6_4 H 0.147119 0.647959 0.985531
S3_4 S 0.11145(11) 0.76701(8) 0.97105(3)
O6_4 O 0.1892(3) 0.7438(2) 0.85019(9)
C15_4 C 0.1753(4) 0.7743(3) 0.88169(13)
C16_4 C 0.2392(4) 0.8019(3) 0.91606(12)
C17_4 C 0.3203(5) 0.8254(4) 0.90671(13)
H9_4 H 0.334248 0.823584 0.878974
C18_4 C 0.3816(6) 0.8516(4) 0.93681(14)
H10_4 H 0.435347 0.865712 0.929497
C19_4 C 0.3615(4) 0.8566(3) 0.97833(13)
C20_4 C 0.2797(4) 0.8311(3) 0.98790(13)
C21_4 C 0.2171(4) 0.8035(3) 0.95798(11)
H12_4 H 0.500841 0.852881 0.985531
S5_4 S 0.65557(7) 0.88855(11) 0.97105(3)
O10_4 O 0.5547(2) 0.8108(3) 0.85019(9)
C29_4 C 0.5991(3) 0.8247(4) 0.88169(13)
C30_4 C 0.5628(3) 0.7608(4) 0.91606(12)
C31_4 C 0.5052(3) 0.6797(5) 0.90671(13)
H15_4 H 0.489337 0.665752 0.878974
C32_4 C 0.4701(4) 0.6184(6) 0.93681(14)
H16_4 H 0.430366 0.564653 0.929497
C33_4 C 0.4952(3) 0.6385(4) 0.97833(13)
C34_4 C 0.5515(3) 0.7203(4) 0.98790(13)
C35_4 C 0.5865(3) 0.7829(4) 0.95798(11)
H18_4 H 0.352041 0.499159 0.985531
O14_4 O 0.1411(4) 0.6122(3) 0.78767(12)
H21_4 H 0.200328 0.631922 0.779261
H22_4 H 0.113294 0.551851 0.779382
O15_4 O 0.4712(2) 0.8589(4) 0.78767(12)
H23_4 H 0.431595 0.799672 0.779261
H24_4 H 0.438558 0.886706 0.779382
O22_3 O 0.5730(2) 0.9693(2) 0.86540(8)
O23_3 O 0.0307(2) 0.6038(3) 0.86540(8)
O24_3 O 0.3962(3) 0.4270(2) 0.86540(8)
O4_3 O 0.9693(2) 0.5730(2) 0.13460(8)
S1_5 S 0.34443(7) 0.23299(8) 0.02895(3)
O1_5 O 0.4453(2) 0.2562(2) 0.14981(9)
O2_3 O 0.3293(2) 0.2134(2) 0.11286(9)
O5_5 O 0.5288(2) 0.3878(3) 0.21233(12)
H1_5 H 0.568405 0.368078 0.220739
H2_5 H 0.561442 0.448149 0.220618
C1_5 C 0.4009(3) 0.2257(3) 0.11831(13)
C2_5 C 0.4372(3) 0.1981(3) 0.08394(12)
C3_5 C 0.4948(3) 0.1746(4) 0.09329(13)
H3_5 H 0.510663 0.176416 0.121026
C4_5 C 0.5299(4) 0.1484(4) 0.06319(14)
H4_5 H 0.569634 0.134288 0.070503
C5_5 C 0.5048(3) 0.1434(3) 0.02167(13)
C6_5 C 0.4485(3) 0.1689(3) 0.01210(13)
C7_5 C 0.4135(3) 0.1965(3) 0.04202(11)
H6_5 H 0.647959 0.147119 0.014469
S3_5 S 0.76701(8) 0.11145(11) 0.02895(3)
O6_5 O 0.7438(2) 0.1892(3) 0.14981(9)
O7_3 O 0.7866(2) 0.1160(3) 0.11286(9)
C15_5 C 0.7743(3) 0.1753(4) 0.11831(13)
C16_5 C 0.8019(3) 0.2392(4) 0.08394(12)
C17_5 C 0.8254(4) 0.3203(5) 0.09329(13)
H9_5 H 0.823584 0.334248 0.121026
C18_5 C 0.8516(4) 0.3816(6) 0.06319(14)
H10_5 H 0.865712 0.435347 0.070503
C19_5 C 0.8566(3) 0.3615(4) 0.02167(13)
C20_5 C 0.8311(3) 0.2797(4) 0.01210(13)
C21_5 C 0.8035(3) 0.2171(4) 0.04202(11)
H12_5 H 0.852881 0.500841 0.014469
S5_5 S 0.88855(11) 0.65557(7) 0.02895(3)
O10_5 O 0.8108(3) 0.5547(2) 0.14981(9)
O11_3 O 0.8840(3) 0.6707(2) 0.11286(9)
C29_5 C 0.8247(4) 0.5991(3) 0.11831(13)
C30_5 C 0.7608(4) 0.5628(3) 0.08394(12)
C31_5 C 0.6797(5) 0.5052(3) 0.09329(13)
H15_5 H 0.665752 0.489337 0.121026
C32_5 C 0.6184(6) 0.4701(4) 0.06319(14)
H16_5 H 0.564653 0.430366 0.070503
C33_5 C 0.6385(4) 0.4952(3) 0.02167(13)
C34_5 C 0.7203(4) 0.5515(3) 0.01210(13)
C35_5 C 0.7829(4) 0.5865(3) 0.04202(11)
H18_5 H 0.499159 0.352041 0.014469
O14_5 O 0.6122(3) 0.1411(4) 0.21233(12)
H21_5 H 0.631922 0.200328 0.220739
H22_5 H 0.551851 0.113294 0.220618
O15_5 O 0.8589(4) 0.4712(2) 0.21233(12)
H23_5 H 0.799672 0.431595 0.220739
H24_5 H 0.886706 0.438558 0.220618
O16_3 O 0.8800(2) 0.6627(2) 0.22048(9)
O17_3 O 0.7826(3) 0.1200(2) 0.22048(9)
O18_3 O 0.3373(2) 0.2174(3) 0.22048(9)
S2_5 S 0.74724(7) 0.10319(7) 0.96580(3)
H5_5 H 0.433349 0.167419 0.984273
C8_5 C 0.5377(3) 0.1131(3) 0.98820(12)
C9_5 C 0.6155(3) 0.1212(3) 0.99111(12)
C10_5 C 0.6466(3) 0.0918(3) 0.96022(11)
C11_5 C 0.5989(3) 0.0549(3) 0.92453(12)
C12_5 C 0.5214(4) 0.0484(3) 0.92075(14)
H7_5 H 0.490031 0.025044 0.896762
C13_5 C 0.4909(3) 0.0760(4) 0.95208(14)
H8_5 H 0.438586 0.069958 0.949342
C14_5 C 0.6276(3) 0.0226(3) 0.88926(12)
S4_5 S 0.89681(7) 0.64406(10) 0.96580(3)
H11_5 H 0.832581 0.265931 0.984273
C22_5 C 0.8869(3) 0.4247(4) 0.98820(12)
C23_5 C 0.8788(3) 0.4944(4) 0.99111(12)
C24_5 C 0.9082(3) 0.5549(4) 0.96022(11)
C25_5 C 0.9451(3) 0.5441(4) 0.92453(12)
C26_5 C 0.9516(3) 0.4731(5) 0.92075(14)
H13_5 H 0.974956 0.464988 0.896762
C27_5 C 0.9240(4) 0.4150(5) 0.95208(14)
H14_5 H 0.930042 0.368629 0.949342
C28_5 C 0.9774(3) 0.6051(4) 0.88926(12)
S6_5 S 0.35594(10) 0.25276(7) 0.96580(3)
H17_5 H 0.734069 0.566651 0.984273
C36_5 C 0.5753(4) 0.4623(3) 0.98820(12)
C37_5 C 0.5056(4) 0.3845(3) 0.99111(12)
C38_5 C 0.4451(4) 0.3534(3) 0.96022(11)
C39_5 C 0.4559(4) 0.4011(3) 0.92453(12)
C40_5 C 0.5269(5) 0.4786(4) 0.92075(14)
H19_5 H 0.535012 0.509969 0.896762
C41_5 C 0.5850(5) 0.5091(3) 0.95208(14)
H20_5 H 0.631371 0.561414 0.949342
C42_5 C 0.3949(4) 0.3724(3) 0.88926(12)
S4_6 S 0.31072(10) 0.23015(7) 0.36754(3)
H9_6 H 0.000914 0.156918 0.212308
C18_6 C 0.0482(6) 0.1850(4) 0.27015(14)
H10_6 H 0.102013 0.199046 0.262831
C19_6 C 0.0281(4) 0.1900(3) 0.31167(13)
C22_6 C 0.0913(4) 0.2203(3) 0.34514(12)
C23_6 C 0.1610(4) 0.2122(3) 0.34223(12)
H12_6 H 0.167507 0.186215 0.318865
C24_6 C 0.2215(4) 0.2416(3) 0.37312(11)
C25_6 C 0.2107(4) 0.2785(3) 0.40881(12)
C26_6 C 0.1397(5) 0.2850(3) 0.41259(14)
H13_6 H 0.131654 0.308290 0.436572
C27_6 C 0.0816(5) 0.2574(4) 0.38126(14)
H14_6 H 0.035295 0.263376 0.383992
C28_6 C 0.2717(4) 0.3108(3) 0.44408(12)
S5_6 S 0.32223(7) 0.22189(11) 0.30439(3)
O10_6 O 0.2213(2) 0.1442(3) 0.18353(9)
C29_6 C 0.2657(3) 0.1581(4) 0.21503(13)
C30_6 C 0.2294(3) 0.0942(4) 0.24940(12)
C31_6 C 0.1718(3) 0.0131(5) 0.24005(13)
C34_6 C 0.2181(3) 0.0537(4) 0.32124(13)
H17_6 H 0.233317 0.067403 0.349061
C35_6 C 0.2531(3) 0.1163(4) 0.29132(11)
O15_6 O 0.1378(2) 0.1923(4) 0.12101(12)
H23_6 H 0.098261 0.133006 0.112595
H24_6 H 0.105224 0.220040 0.112716
O5_6 O 0.0544(3) 0.8622(2) 0.12101(12)
H1_6 H 0.034744 0.901739 0.112595
H2_6 H 0.114815 0.894776 0.112716
H15_6 H 0.156003 0.999086 0.212308
C32_6 C 0.1367(4) 0.9518(6) 0.27015(14)
H16_6 H 0.097032 0.897987 0.262831
C33_6 C 0.1618(3) 0.9719(4) 0.31167(13)
C36_6 C 0.1289(3) 0.9087(4) 0.34514(12)
C37_6 C 0.0511(3) 0.8390(4) 0.34223(12)
H18_6 H 0.018707 0.832493 0.318865
C38_6 C 0.0200(3) 0.7785(4) 0.37312(11)
C39_6 C 0.0677(3) 0.7893(4) 0.40881(12)
C40_6 C 0.1452(4) 0.8603(5) 0.41259(14)
H19_6 H 0.176635 0.868346 0.436572
C41_6 C 0.1757(3) 0.9184(5) 0.38126(14)
H20_6 H 0.228080 0.964705 0.383992
C42_6 C 0.0390(3) 0.7283(4) 0.44408(12)
S2_6 S 0.76985(7) 0.08058(7) 0.36754(3)
S3_6 S 0.77811(11) 0.10035(8) 0.30439(3)
O6_6 O 0.8558(3) 0.0772(2) 0.18353(9)
C15_6 C 0.8419(4) 0.1077(3) 0.21503(13)
C16_6 C 0.9058(4) 0.1353(3) 0.24940(12)
C17_6 C 0.9869(5) 0.1588(4) 0.24005(13)
C20_6 C 0.9463(4) 0.1645(3) 0.32124(13)
H11_6 H 0.932597 0.165915 0.349061
C21_6 C 0.8837(4) 0.1369(3) 0.29132(11)
S1_6 S 0.89965(8) 0.67777(7) 0.30439(3)
O1_6 O 0.9228(2) 0.7787(2) 0.18353(9)
C1_6 C 0.8923(3) 0.7343(3) 0.21503(13)
C2_6 C 0.8647(3) 0.7706(3) 0.24940(12)
C3_6 C 0.8412(4) 0.8282(3) 0.24005(13)
H3_6 H 0.843082 0.843997 0.212308
C4_6 C 0.8150(4) 0.8633(4) 0.27015(14)
H4_6 H 0.800954 0.902968 0.262831
C5_6 C 0.8100(3) 0.8382(3) 0.31167(13)
C6_6 C 0.8355(3) 0.7819(3) 0.32124(13)
H5_6 H 0.834085 0.766683 0.349061
C7_6 C 0.8631(3) 0.7469(3) 0.29132(11)
C8_6 C 0.7797(3) 0.8711(3) 0.34514(12)
C9_6 C 0.7878(3) 0.9489(3) 0.34223(12)
H6_6 H 0.813785 0.981293 0.318865
C10_6 C 0.7584(3) 0.9800(3) 0.37312(11)
C11_6 C 0.7215(3) 0.9323(3) 0.40881(12)
C12_6 C 0.7150(3) 0.8548(4) 0.41259(14)
H7_6 H 0.691710 0.823365 0.436572
C13_6 C 0.7426(4) 0.8243(3) 0.38126(14)
H8_6 H 0.736624 0.771920 0.383992
C14_6 C 0.6892(3) 0.9610(3) 0.44408(12)
S6_6 S 0.91942(7) 0.68928(10) 0.36754(3)
O14_6 O 0.8077(4) 0.9456(3) 0.12101(12)
H21_6 H 0.866994 0.965256 0.112595
H22_6 H 0.779960 0.885185 0.112716
loop_
_geom_bond_atom_site_label_1
_geom_bond_atom_site_label_2
_geom_bond_site_symmetry_1
_geom_bond_site_symmetry_2
Zn4 O11 1_555 1_555
Zn1 O1 1_555 1_555
S1 C7 1_555 1_555
S2 C10 1_555 1_555
O1 C1 1_555 1_555
O3 C14 1_555 1_555
O4 C14 1_555 1_555
O5 Zn1 1_555 1_555
H1 O5 1_555 1_555
H2 O5 1_555 1_555
C1 C2 1_555 1_555
C2 C3 1_555 1_555
C3 H3 1_555 1_555
C4 C3 1_555 1_555
H4 C4 1_555 1_555
C5 C4 1_555 1_555
C6 C5 1_555 1_555
H5 C6 1_555 1_555
C7 C2 1_555 1_555
C8 C5 1_555 1_555
C9 C8 1_555 1_555
H6 C9 1_555 1_555
C10 C9 1_555 1_555
C11 C10 1_555 1_555
C12 C11 1_555 1_555
H7 C12 1_555 1_555
C13 C8 1_555 1_555
H8 C13 1_555 1_555
C14 C11 1_555 1_555
S3 S2 1_555 1_555
S4 C24 1_555 1_555
O6 C15 1_555 1_555
O7 C15 1_555 1_555
O8 C28 1_555 1_555
O9 C28 1_555 1_555
C15 C16 1_555 1_555
C16 C17 1_555 1_555
C17 H9 1_555 1_555
C18 C17 1_555 1_555
H10 C18 1_555 1_555
C19 C18 1_555 1_555
C20 C19 1_555 1_555
H11 C20 1_555 1_555
C21 S3 1_555 1_555
C22 C19 1_555 1_555
C23 C22 1_555 1_555
H12 C23 1_555 1_555
C24 C23 1_555 1_555
C25 C24 1_555 1_555
C26 C25 1_555 1_555
H13 C26 1_555 1_555
C27 C22 1_555 1_555
H14 C27 1_555 1_555
C28 C25 1_555 1_555
S5 S4 1_555 1_555
S6 S1 1_555 1_555
O10 C29 1_555 1_555
O12 C42 1_555 1_555
O13 C42 1_555 1_555
C29 C30 1_555 1_555
C30 C31 1_555 1_555
C31 H15 1_555 1_555
C32 C31 1_555 1_555
H16 C32 1_555 1_555
C33 C32 1_555 1_555
C34 C33 1_555 1_555
H17 C34 1_555 1_555
C35 S5 1_555 1_555
C36 C33 1_555 1_555
C37 C36 1_555 1_555
H18 C37 1_555 1_555
C38 S6 1_555 1_555
C39 C38 1_555 1_555
C40 C39 1_555 1_555
H19 C40 1_555 1_555
C41 C36 1_555 1_555
H20 C41 1_555 1_555
C42 C39 1_555 1_555
Zn2 O6 1_555 1_555
O14 Zn2 1_555 1_555
H21 O14 1_555 1_555
H22 O14 1_555 1_555
Zn3 O10 1_555 1_555
O15 Zn3 1_555 1_555
H23 O15 1_555 1_555
H24 O15 1_555 1_555
Zn5 O7 1_555 1_555
Zn7 O3 1_555 1_555
Zn12 O4 1_555 1_555
O16 Zn3 1_555 1_555
O17 Zn2 1_555 1_555
O18 Zn1 1_555 1_555
O19 Zn1 1_555 1_555
O20 Zn2 1_555 1_555
O21 Zn3 1_555 1_555
O22 Zn3 1_555 1_555
O23 Zn2 1_555 1_555
O24 Zn1 1_555 1_555
C6 C7 1_555 1_555
C12 C13 1_555 1_555
C16 C21 1_555 1_555
C20 C21 1_555 1_555
C26 C27 1_555 1_555
C30 C35 1_555 1_555
C34 C35 1_555 1_555
C37 C38 1_555 1_555
C40 C41 1_555 1_555
Zn6 O2 1_555 1_555
Zn4 O1_2 1_555 1_555
S1_2 C7_2 1_555 1_555
S2_2 C10_2 1_555 1_555
O1_2 C1_2 1_555 1_555
O3_2 C14_2 1_555 1_555
O4_2 C14_2 1_555 1_555
O5_2 Zn4 1_555 1_555
H1_2 O5_2 1_555 1_555
H2_2 O5_2 1_555 1_555
C1_2 C2_2 1_555 1_555
C2_2 C3_2 1_555 1_555
C3_2 H3_2 1_555 1_555
C4_2 C3_2 1_555 1_555
H4_2 C4_2 1_555 1_555
C5_2 C4_2 1_555 1_555
C6_2 C5_2 1_555 1_555
H5_2 C6_2 1_555 1_555
C7_2 C2_2 1_555 1_555
C8_2 C5_2 1_555 1_555
C9_2 C8_2 1_555 1_555
H6_2 C9_2 1_555 1_555
C10_2 C9_2 1_555 1_555
C11_2 C10_2 1_555 1_555
C12_2 C11_2 1_555 1_555
H7_2 C12_2 1_555 1_555
C13_2 C8_2 1_555 1_555
H8_2 C13_2 1_555 1_555
C14_2 C11_2 1_555 1_555
S3_2 S2_2 1_555 1_555
S4_2 C24_2 1_555 1_555
O6_2 C15_2 1_555 1_555
O17 C15_2 1_555 1_555
O8_2 C28_2 1_555 1_555
O9_2 C28_2 1_555 1_555
C15_2 C16_2 1_555 1_555
C16_2 C17_2 1_555 1_555
C17_2 H9_2 1_555 1_555
C18_2 C17_2 1_555 1_555
H10_2 C18_2 1_555 1_555
C19_2 C18_2 1_555 1_555
C20_2 C19_2 1_555 1_555
H11_2 C20_2 1_555 1_555
C21_2 S3_2 1_555 1_555
C22_2 C19_2 1_555 1_555
C23_2 C22_2 1_555 1_555
H12_2 C23_2 1_555 1_555
C24_2 C23_2 1_555 1_555
C25_2 C24_2 1_555 1_555
C26_2 C25_2 1_555 1_555
H13_2 C26_2 1_555 1_555
C27_2 C22_2 1_555 1_555
H14_2 C27_2 1_555 1_555
C28_2 C25_2 1_555 1_555
S5_2 S4_2 1_555 1_555
S6_2 S1_2 1_555 1_555
O10_2 C29_2 1_555 1_555
O12_2 C42_2 1_555 1_555
O13_2 C42_2 1_555 1_555
C29_2 C30_2 1_555 1_555
C30_2 C31_2 1_555 1_555
C31_2 H15_2 1_555 1_555
C32_2 C31_2 1_555 1_555
H16_2 C32_2 1_555 1_555
C33_2 C32_2 1_555 1_555
C34_2 C33_2 1_555 1_555
H17_2 C34_2 1_555 1_555
C35_2 S5_2 1_555 1_555
C36_2 C33_2 1_555 1_555
C37_2 C36_2 1_555 1_555
H18_2 C37_2 1_555 1_555
C38_2 S6_2 1_555 1_555
C39_2 C38_2 1_555 1_555
C40_2 C39_2 1_555 1_555
H19_2 C40_2 1_555 1_555
C41_2 C36_2 1_555 1_555
H20_2 C41_2 1_555 1_555
C42_2 C39_2 1_555 1_555
Zn5 O6_2 1_555 1_555
O14_2 Zn5 1_555 1_555
H21_2 O14_2 1_555 1_555
H22_2 O14_2 1_555 1_555
Zn6 O10_2 1_555 1_555
O15_2 Zn6 1_555 1_555
H23_2 O15_2 1_555 1_555
H24_2 O15_2 1_555 1_555
Zn7_2 O3_2 1_555 1_555
Zn12_2 O4_2 1_555 1_555
O19_2 Zn4 1_555 1_555
O20_2 Zn5 1_555 1_555
O21_2 Zn6 1_555 1_555
O22_2 Zn6 1_555 1_555
O23_2 Zn5 1_555 1_555
O24_2 Zn4 1_555 1_555
C6_2 C7_2 1_555 1_555
C12_2 C13_2 1_555 1_555
C16_2 C21_2 1_555 1_555
C20_2 C21_2 1_555 1_555
C26_2 C27_2 1_555 1_555
C30_2 C35_2 1_555 1_555
C34_2 C35_2 1_555 1_555
C37_2 C38_2 1_555 1_555
C40_2 C41_2 1_555 1_555
S4_3 C24_3 1_555 1_555
O20 C28_3 1_555 1_555
O23_2 C28_3 1_555 1_555
H10_3 C18_3 1_555 1_555
C19_3 C18_3 1_555 1_555
C22_3 C19_3 1_555 1_555
C23_3 C22_3 1_555 1_555
H12_3 C23_3 1_555 1_555
C24_3 C23_3 1_555 1_555
C25_3 C24_3 1_555 1_555
C26_3 C25_3 1_555 1_555
H13_3 C26_3 1_555 1_555
C27_3 C22_3 1_555 1_555
H14_3 C27_3 1_555 1_555
C28_3 C25_3 1_555 1_555
S5_3 S4_3 1_555 1_555
O10_3 C29_3 1_555 1_555
O11_2 C29_3 1_555 1_555
C29_3 C30_3 1_555 1_555
C30_3 C31_3 1_555 1_555
H17_3 C34_3 1_555 1_555
C35_3 S5_3 1_555 1_555
Zn12_2 O10_3 1_555 1_555
O15_3 Zn12_2 1_555 1_555
H23_3 O15_3 1_555 1_555
H24_3 O15_3 1_555 1_555
Zn7_2 O11_2 1_555 1_555
O16_2 Zn12_2 1_555 1_555
O21_3 Zn12_2 1_555 1_555
C26_3 C27_3 1_555 1_555
C30_3 C35_3 1_555 1_555
C34_3 C35_3 1_555 1_555
S3_3 S2_3 1_555 1_555
O6_3 C15_3 1_555 1_555
O7_2 C15_3 1_555 1_555
C15_3 C16_3 1_555 1_555
C16_3 C17_3 1_555 1_555
H11_3 C20_3 1_555 1_555
C21_3 S3_3 1_555 1_555
Zn11_2 O6_3 1_555 1_555
Zn8_2 O7_2 1_555 1_555
O17_2 Zn11_2 1_555 1_555
C16_3 C21_3 1_555 1_555
C20_3 C21_3 1_555 1_555
H1_3 O5_3 1_555 1_555
H2_3 O5_3 1_555 1_555
O24_2 C42_3 1_555 1_555
H16_3 C32_3 1_555 1_555
C33_3 C32_3 1_555 1_555
C36_3 C33_3 1_555 1_555
C37_3 C36_3 1_555 1_555
H18_3 C37_3 1_555 1_555
C39_3 C38_3 1_555 1_555
C40_3 C39_3 1_555 1_555
H19_3 C40_3 1_555 1_555
C41_3 C36_3 1_555 1_555
H20_3 C41_3 1_555 1_555
C42_3 C39_3 1_555 1_555
C37_3 C38_3 1_555 1_555
C40_3 C41_3 1_555 1_555
Zn10_2 O1_3 1_555 1_555
S1_3 C7_3 1_555 1_555
O1_3 C1_3 1_555 1_555
O2_2 C1_3 1_555 1_555
O22_2 C14_3 1_555 1_555
C1_3 C2_3 1_555 1_555
C2_3 C3_3 1_555 1_555
C3_3 H3_3 1_555 1_555
C4_3 C3_3 1_555 1_555
H4_3 C4_3 1_555 1_555
C5_3 C4_3 1_555 1_555
C6_3 C5_3 1_555 1_555
H5_3 C6_3 1_555 1_555
C7_3 C2_3 1_555 1_555
C8_3 C5_3 1_555 1_555
C9_3 C8_3 1_555 1_555
H6_3 C9_3 1_555 1_555
C10_3 C9_3 1_555 1_555
C11_3 C10_3 1_555 1_555
C12_3 C11_3 1_555 1_555
H7_3 C12_3 1_555 1_555
C13_3 C8_3 1_555 1_555
H8_3 C13_3 1_555 1_555
C14_3 C11_3 1_555 1_555
S6_3 S1_3 1_555 1_555
H21_3 O14_3 1_555 1_555
H22_3 O14_3 1_555 1_555
Zn9_2 O2_2 1_555 1_555
O18_2 Zn10_2 1_555 1_555
C6_3 C7_3 1_555 1_555
C12_3 C13_3 1_555 1_555
Zn8 O9_3 1_555 1_555
S2_4 C10_4 1_555 1_555
O3_3 C14_4 1_555 1_555
C9_4 C8_4 1_555 1_555
C10_4 C9_4 1_555 1_555
C11_4 C10_4 1_555 1_555
C12_4 C11_4 1_555 1_555
H7_4 C12_4 1_555 1_555
C13_4 C8_4 1_555 1_555
H8_4 C13_4 1_555 1_555
C14_4 C11_4 1_555 1_555
S4_4 C24_4 1_555 1_555
O8_3 C28_4 1_555 1_555
C23_4 C22_4 1_555 1_555
C24_4 C23_4 1_555 1_555
C25_4 C24_4 1_555 1_555
C26_4 C25_4 1_555 1_555
H13_4 C26_4 1_555 1_555
C27_4 C22_4 1_555 1_555
H14_4 C27_4 1_555 1_555
C28_4 C25_4 1_555 1_555
O12_3 C42_4 1_555 1_555
O13_3 C42_4 1_555 1_555
C37_4 C36_4 1_555 1_555
C38_4 S6_4 1_555 1_555
C39_4 C38_4 1_555 1_555
C40_4 C39_4 1_555 1_555
H19_4 C40_4 1_555 1_555
C41_4 C36_4 1_555 1_555
H20_4 C41_4 1_555 1_555
C42_4 C39_4 1_555 1_555
Zn12 O12_3 1_555 1_555
Zn7 O13_3 1_555 1_555
C12_4 C13_4 1_555 1_555
C26_4 C27_4 1_555 1_555
C37_4 C38_4 1_555 1_555
C40_4 C41_4 1_555 1_555
Zn7_2 O1_4 1_555 1_555
S1_4 C7_4 1_555 1_555
O1_4 C1_4 1_555 1_555
O16_2 C1_4 1_555 1_555
O5_4 Zn7_2 1_555 1_555
H1_4 O5_4 1_555 1_555
H2_4 O5_4 1_555 1_555
C1_4 C2_4 1_555 1_555
C2_4 C3_4 1_555 1_555
C3_4 H3_4 1_555 1_555
C4_4 C3_4 1_555 1_555
H4_4 C4_4 1_555 1_555
C5_4 C4_4 1_555 1_555
C6_4 C5_4 1_555 1_555
C7_4 C2_4 1_555 1_555
O6_4 C15_4 1_555 1_555
O17_2 C15_4 1_555 1_555
C15_4 C16_4 1_555 1_555
C16_4 C17_4 1_555 1_555
C17_4 H9_4 1_555 1_555
C18_4 C17_4 1_555 1_555
H10_4 C18_4 1_555 1_555
C19_4 C18_4 1_555 1_555
C20_4 C19_4 1_555 1_555
C21_4 S3_4 1_555 1_555
O10_4 C29_4 1_555 1_555
O18_2 C29_4 1_555 1_555
C29_4 C30_4 1_555 1_555
C30_4 C31_4 1_555 1_555
C31_4 H15_4 1_555 1_555
C32_4 C31_4 1_555 1_555
H16_4 C32_4 1_555 1_555
C33_4 C32_4 1_555 1_555
C34_4 C33_4 1_555 1_555
C35_4 S5_4 1_555 1_555
Zn8_2 O6_4 1_555 1_555
O14_4 Zn8_2 1_555 1_555
H21_4 O14_4 1_555 1_555
H22_4 O14_4 1_555 1_555
Zn9_2 O10_4 1_555 1_555
O15_4 Zn9_2 1_555 1_555
H23_4 O15_4 1_555 1_555
H24_4 O15_4 1_555 1_555
O22_3 Zn9_2 1_555 1_555
O23_3 Zn8_2 1_555 1_555
O24_3 Zn7_2 1_555 1_555
C6_4 C7_4 1_555 1_555
C16_4 C21_4 1_555 1_555
C20_4 C21_4 1_555 1_555
C30_4 C35_4 1_555 1_555
C34_4 C35_4 1_555 1_555
Zn9 O4_3 1_555 1_555
Zn7 O1_5 1_555 1_555
S1_5 C7_5 1_555 1_555
O1_5 C1_5 1_555 1_555
O2_3 C1_5 1_555 1_555
O5_5 Zn7 1_555 1_555
H1_5 O5_5 1_555 1_555
H2_5 O5_5 1_555 1_555
C1_5 C2_5 1_555 1_555
C2_5 C3_5 1_555 1_555
C3_5 H3_5 1_555 1_555
C4_5 C3_5 1_555 1_555
H4_5 C4_5 1_555 1_555
C5_5 C4_5 1_555 1_555
C6_5 C5_5 1_555 1_555
C7_5 C2_5 1_555 1_555
O6_5 C15_5 1_555 1_555
O7_3 C15_5 1_555 1_555
C15_5 C16_5 1_555 1_555
C16_5 C17_5 1_555 1_555
C17_5 H9_5 1_555 1_555
C18_5 C17_5 1_555 1_555
H10_5 C18_5 1_555 1_555
C19_5 C18_5 1_555 1_555
C20_5 C19_5 1_555 1_555
C21_5 S3_5 1_555 1_555
O10_5 C29_5 1_555 1_555
O11_3 C29_5 1_555 1_555
C29_5 C30_5 1_555 1_555
C30_5 C31_5 1_555 1_555
C31_5 H15_5 1_555 1_555
C32_5 C31_5 1_555 1_555
H16_5 C32_5 1_555 1_555
C33_5 C32_5 1_555 1_555
C34_5 C33_5 1_555 1_555
C35_5 S5_5 1_555 1_555
Zn8 O6_5 1_555 1_555
O14_5 Zn8 1_555 1_555
H21_5 O14_5 1_555 1_555
H22_5 O14_5 1_555 1_555
Zn9 O10_5 1_555 1_555
O15_5 Zn9 1_555 1_555
H23_5 O15_5 1_555 1_555
H24_5 O15_5 1_555 1_555
Zn10 O11_3 1_555 1_555
Zn11 O7_3 1_555 1_555
Zn12 O2_3 1_555 1_555
O16_3 Zn9 1_555 1_555
O17_3 Zn8 1_555 1_555
O18_3 Zn7 1_555 1_555
C6_5 C7_5 1_555 1_555
C16_5 C21_5 1_555 1_555
C20_5 C21_5 1_555 1_555
C30_5 C35_5 1_555 1_555
C34_5 C35_5 1_555 1_555
S2_5 C10_5 1_555 1_555
O19_3 C14_5 1_555 1_555
C9_5 C8_5 1_555 1_555
C10_5 C9_5 1_555 1_555
C11_5 C10_5 1_555 1_555
C12_5 C11_5 1_555 1_555
H7_5 C12_5 1_555 1_555
C13_5 C8_5 1_555 1_555
H8_5 C13_5 1_555 1_555
C14_5 C11_5 1_555 1_555
S4_5 C24_5 1_555 1_555
O20_3 C28_5 1_555 1_555
C23_5 C22_5 1_555 1_555
C24_5 C23_5 1_555 1_555
C25_5 C24_5 1_555 1_555
C26_5 C25_5 1_555 1_555
H13_5 C26_5 1_555 1_555
C27_5 C22_5 1_555 1_555
H14_5 C27_5 1_555 1_555
C28_5 C25_5 1_555 1_555
O21_3 C42_5 1_555 1_555
O24_3 C42_5 1_555 1_555
C37_5 C36_5 1_555 1_555
C38_5 S6_5 1_555 1_555
C39_5 C38_5 1_555 1_555
C40_5 C39_5 1_555 1_555
H19_5 C40_5 1_555 1_555
C41_5 C36_5 1_555 1_555
H20_5 C41_5 1_555 1_555
C42_5 C39_5 1_555 1_555
C12_5 C13_5 1_555 1_555
C26_5 C27_5 1_555 1_555
C37_5 C38_5 1_555 1_555
C40_5 C41_5 1_555 1_555
S4_6 C24_6 1_555 1_555
O20_2 C28_6 1_555 1_555
O23 C28_6 1_555 1_555
H10_6 C18_6 1_555 1_555
C19_6 C18_6 1_555 1_555
C22_6 C19_6 1_555 1_555
C23_6 C22_6 1_555 1_555
H12_6 C23_6 1_555 1_555
C24_6 C23_6 1_555 1_555
C25_6 C24_6 1_555 1_555
C26_6 C25_6 1_555 1_555
H13_6 C26_6 1_555 1_555
C27_6 C22_6 1_555 1_555
H14_6 C27_6 1_555 1_555
C28_6 C25_6 1_555 1_555
S5_6 S4_6 1_555 1_555
O10_6 C29_6 1_555 1_555
O18_3 C29_6 1_555 1_555
C29_6 C30_6 1_555 1_555
C30_6 C31_6 1_555 1_555
H17_6 C34_6 1_555 1_555
C35_6 S5_6 1_555 1_555
Zn12 O10_6 1_555 1_555
O15_6 Zn12 1_555 1_555
H23_6 O15_6 1_555 1_555
H24_6 O15_6 1_555 1_555
C26_6 C27_6 1_555 1_555
C30_6 C35_6 1_555 1_555
C34_6 C35_6 1_555 1_555
H1_6 O5_6 1_555 1_555
H2_6 O5_6 1_555 1_555
O24 C42_6 1_555 1_555
H16_6 C32_6 1_555 1_555
C33_6 C32_6 1_555 1_555
C36_6 C33_6 1_555 1_555
C37_6 C36_6 1_555 1_555
H18_6 C37_6 1_555 1_555
C39_6 C38_6 1_555 1_555
C40_6 C39_6 1_555 1_555
H19_6 C40_6 1_555 1_555
C41_6 C36_6 1_555 1_555
H20_6 C41_6 1_555 1_555
C42_6 C39_6 1_555 1_555
C37_6 C38_6 1_555 1_555
C40_6 C41_6 1_555 1_555
S3_6 S2_6 1_555 1_555
O6_6 C15_6 1_555 1_555
O17_3 C15_6 1_555 1_555
C15_6 C16_6 1_555 1_555
C16_6 C17_6 1_555 1_555
H11_6 C20_6 1_555 1_555
C21_6 S3_6 1_555 1_555
Zn11 O6_6 1_555 1_555
C16_6 C21_6 1_555 1_555
C20_6 C21_6 1_555 1_555
Zn10 O1_6 1_555 1_555
S1_6 C7_6 1_555 1_555
O1_6 C1_6 1_555 1_555
O16_3 C1_6 1_555 1_555
O22 C14_6 1_555 1_555
C1_6 C2_6 1_555 1_555
C2_6 C3_6 1_555 1_555
C3_6 H3_6 1_555 1_555
C4_6 C3_6 1_555 1_555
H4_6 C4_6 1_555 1_555
C5_6 C4_6 1_555 1_555
C6_6 C5_6 1_555 1_555
H5_6 C6_6 1_555 1_555
C7_6 C2_6 1_555 1_555
C8_6 C5_6 1_555 1_555
C9_6 C8_6 1_555 1_555
H6_6 C9_6 1_555 1_555
C10_6 C9_6 1_555 1_555
C11_6 C10_6 1_555 1_555
C12_6 C11_6 1_555 1_555
H7_6 C12_6 1_555 1_555
C13_6 C8_6 1_555 1_555
H8_6 C13_6 1_555 1_555
C14_6 C11_6 1_555 1_555
S6_6 S1_6 1_555 1_555
H21_6 O14_6 1_555 1_555
H22_6 O14_6 1_555 1_555
C6_6 C7_6 1_555 1_555
C12_6 C13_6 1_555 1_555

#END
