
###############################################################################
#
# This file contains modified crystal structure data generated from the
# MOF subset of the Cambridge Structural Database (CSD) v543 
# hosted by the Cambridge Crystallographic Data Centre (CCDC).
#
# This work is licensed under the Creative Commons
# Attribution-NonCommercial-ShareAlike 4.0 International License.
# To view a copy of this license, visit
# http://creativecommons.org/licenses/by-nc-sa/4.0/
# or send a letter to
# Creative Commons, PO Box 1866, Mountain View, CA 94042, USA.
#
# CIF created using the CSD Python API on 29 September 2022
# The structure has been converted into the P1 space group
# The structure has a 3D framework
# The original CSD entry YECNEB is in the orthorhombic crystal system
# The framework has been calculated to contain at least 10.0% void space
# The void calculation uses a probe of radius 1.32A, grid spacing 0.4
# The framework is charged, counterions have been retained in the structure
#
###############################################################################

data_YECNEB
_chemical_formula_moiety         '(C336 H256 Ag28 N64 O32 16+)n'
_symmetry_cell_setting           triclinic
_symmetry_space_group_name_H-M   'P 1'
_symmetry_Int_Tables_number      1
_space_group_name_Hall           'P 1'
loop_
_symmetry_equiv_pos_site_id
_symmetry_equiv_pos_as_xyz
1 x,y,z
_cell_length_a                   12.580(2)
_cell_length_b                   24.563(5)
_cell_length_c                   33.566(7)
_cell_angle_alpha                90
_cell_angle_beta                 90
_cell_angle_gamma                90
_cell_volume                     10372
loop_
_atom_site_label
_atom_site_type_symbol
_atom_site_fract_x
_atom_site_fract_y
_atom_site_fract_z
Ag8 Ag 0.21854(3) 0.169168(17) 0.513202(14)
N9 N 0.0901(4) 0.22462(18) 0.50891(14)
C26 C 0.0367(5) 0.2418(3) 0.5410(2)
H17 H 0.0626 0.2318 0.5660
C39 C 0.0487(6) 0.2411(4) 0.4745(2)
H29 H 0.0847 0.2323 0.4511
N4 N 0.3606(4) 0.12317(18) 0.50525(14)
C13 C 0.5537(4) 0.0660(2) 0.49930(17)
C16 C 0.6531(4) 0.0357(2) 0.49602(16)
C19 C 0.4057(5) 0.1121(3) 0.47022(18)
H10 H 0.3723 0.1247 0.4473
C22 C 0.4967(5) 0.0839(3) 0.4660(2)
H13 H 0.5221 0.0762 0.4406
C28 C 0.4134(5) 0.1062(3) 0.5368(2)
H19 H 0.3856 0.1139 0.5619
C32 C 0.6988(6) 0.0222(3) 0.4602(2)
H22 H 0.6682 0.0343 0.4366
C35 C 0.5068(6) 0.0779(3) 0.5346(2)
H25 H 0.5392 0.0664 0.5581
C41 C 0.7068(5) 0.0200(3) 0.5286(2)
H31 H 0.6808 0.0290 0.5537
Ag1 Ag 0.03146(3) 0.080832(17) 0.513202(14)
O1 O 0.0511(5) 0.1017(3) 0.58572(17)
C7 C 0.1250 0.1250 0.6021(3)
Ag5 Ag 0.03146(3) 0.169168(17) 0.736798(14)
Ag6 Ag 0.21854(3) 0.080832(17) 0.736798(14)
N7 N 0.1599(4) 0.02538(18) 0.50891(14)
O2 O 0.1989(5) 0.1483(3) 0.58572(17)
O3 O 0.0511(5) 0.1483(3) 0.66428(17)
O4 O 0.1989(5) 0.1017(3) 0.66428(17)
C24 C 0.2133(5) 0.0082(3) 0.5410(2)
H15 H 0.1874 0.0182 0.5660
C30 C 0.1250 0.1250 0.6479(3)
C37 C 0.2013(6) 0.0089(4) 0.4745(2)
H27 H 0.1653 0.0177 0.4511
C39_2 C 0.0487(6) 0.7411(4) 0.9745(2)
H29_2 H 0.0847 0.7323 0.9511
Ag2 Ag 0.96854(3) 0.419168(17) 0.986798(14)
N8 N 0.8401(4) 0.47462(18) 0.99109(14)
C13_2 C 0.5537(4) 0.5660(2) 0.99930(17)
C16_2 C 0.6531(4) 0.5357(2) 0.99602(16)
O5 O 0.9489(5) 0.3983(3) 0.91428(17)
C19_2 C 0.4057(5) 0.6121(3) 0.97022(18)
H10_2 H 0.3723 0.6247 0.9473
C22_2 C 0.4967(5) 0.5839(3) 0.9660(2)
H13_2 H 0.5221 0.5762 0.9406
C25 C 0.7867(5) 0.4918(3) 0.9590(2)
H16 H 0.8126 0.4818 0.9340
C32_2 C 0.6988(6) 0.5222(3) 0.9602(2)
H22_2 H 0.6682 0.5343 0.9366
Ag2_2 Ag 0.78146(3) 0.330832(17) 0.986798(14)
N3 N 0.6394(4) 0.37683(18) 0.99475(14)
N8_2 N 0.9099(4) 0.27538(18) 0.99109(14)
O5_2 O 0.8011(5) 0.3517(3) 0.91428(17)
C25_2 C 0.9633(5) 0.2582(3) 0.9590(2)
H16_2 H 0.9374 0.2682 0.9340
C27 C 0.5866(5) 0.3938(3) 0.9632(2)
H18 H 0.6144 0.3861 0.9381
C34 C 0.4932(6) 0.4221(3) 0.9654(2)
H24 H 0.4608 0.4336 0.9419
C37_2 C 0.2013(6) 0.5089(4) 0.9745(2)
H27_2 H 0.1653 0.5177 0.9511
C40 C 0.2932(5) 0.4800(3) 0.9714(2)
H30 H 0.3192 0.4710 0.9463
Ag2_3 Ag 0.78146(3) 0.419168(17) 0.763202(14)
N3_2 N 0.6394(4) 0.37317(18) 0.75525(14)
N6 N 0.3606(4) 0.12683(18) 0.74475(14)
N7_2 N 0.1599(4) 0.22462(18) 0.74109(14)
N8_3 N 0.9099(4) 0.47462(18) 0.75891(14)
N10 N 0.0901(4) 0.02538(18) 0.74109(14)
C12 C 0.4463(4) 0.3160(2) 0.74930(17)
C15 C 0.3469(4) 0.2857(2) 0.74602(16)
O5_3 O 0.8011(5) 0.3983(3) 0.83572(17)
C18 C 0.5943(5) 0.3621(3) 0.72022(18)
H9 H 0.6277 0.3747 0.6973
C21 C 0.5033(5) 0.3339(3) 0.7160(2)
H12 H 0.4779 0.3262 0.6906
C24_2 C 0.2133(5) 0.2418(3) 0.7090(2)
C25_3 C 0.9633(5) 0.4918(3) 0.7910(2)
H15_2 H 0.1874 0.2318 0.6840
H16_3 H 0.9374 0.4818 0.8160
C27_2 C 0.5866(5) 0.3562(3) 0.7868(2)
H18_2 H 0.6144 0.3639 0.8119
C31 C 0.3012(6) 0.2722(3) 0.7102(2)
H21 H 0.3318 0.2843 0.6866
C34_2 C 0.4932(6) 0.3279(3) 0.7846(2)
H24_2 H 0.4608 0.3164 0.8081
C37_3 C 0.2013(6) 0.2411(4) 0.7755(2)
C38 C 0.9513(6) 0.4911(4) 0.7245(2)
H27_3 H 0.1653 0.2323 0.7989
H28 H 0.9153 0.4823 0.7011
C40_2 C 0.2932(5) 0.2700(3) 0.7786(2)
H30_2 H 0.3192 0.2790 0.8037
C26_2 C 0.0367(5) 0.0082(3) 0.7090(2)
H17_2 H 0.0626 0.0182 0.6840
C39_3 C 0.0487(6) 0.0089(4) 0.7755(2)
H29_3 H 0.0847 0.0177 0.7989
Ag2_4 Ag 0.96854(3) 0.330832(17) 0.763202(14)
N8_4 N 0.8401(4) 0.27538(18) 0.75891(14)
C13_3 C 0.5537(4) 0.1840(2) 0.75070(17)
C16_3 C 0.6531(4) 0.2143(2) 0.75398(16)
O5_4 O 0.9489(5) 0.3517(3) 0.83572(17)
C19_3 C 0.4057(5) 0.1379(3) 0.77978(18)
H10_3 H 0.3723 0.1253 0.8027
C22_3 C 0.4967(5) 0.1661(3) 0.7840(2)
H13_3 H 0.5221 0.1738 0.8094
C25_4 C 0.7867(5) 0.2582(3) 0.7910(2)
H16_4 H 0.8126 0.2682 0.8160
C28_2 C 0.4134(5) 0.1438(3) 0.7132(2)
H19_2 H 0.3856 0.1361 0.6881
C32_3 C 0.6988(6) 0.2278(3) 0.7898(2)
H22_3 H 0.6682 0.2157 0.8134
C35_2 C 0.5068(6) 0.1721(3) 0.7154(2)
H25_2 H 0.5392 0.1836 0.6919
C38_2 C 0.7987(6) 0.2589(4) 0.7245(2)
H28_2 H 0.8347 0.2677 0.7011
C41_2 C 0.7068(5) 0.2300(3) 0.7214(2)
H31_2 H 0.6808 0.2210 0.6963
C7_2 C 0.8750 0.3750 0.8521(3)
C30_2 C 0.8750 0.3750 0.8979(3)
N2 N 0.3401(4) 0.47462(18) 0.49109(14)
C1 C 0.0537(4) 0.5660(2) 0.49930(17)
C2 C 0.1531(4) 0.5357(2) 0.49602(16)
H2 H 0.0221 0.5762 0.4406
C5 C 0.2867(5) 0.4918(3) 0.4590(2)
H3 H 0.3126 0.4818 0.4340
C8 C 0.1988(6) 0.5222(3) 0.4602(2)
H5 H 0.1682 0.5343 0.4366
C9 C 0.0068(6) 0.5779(3) 0.5346(2)
H6 H 0.0392 0.5664 0.5581
C10 C 0.2987(6) 0.4911(4) 0.5255(2)
H7 H 0.3347 0.4823 0.5489
C11 C 0.2068(5) 0.5200(3) 0.5286(2)
H8 H 0.1808 0.5290 0.5537
Ag3 Ag 0.46854(3) 0.419168(17) 0.486798(14)
N5 N 0.6106(4) 0.37317(18) 0.49475(14)
C14 C 0.8037(4) 0.3160(2) 0.50070(17)
C17 C 0.9031(4) 0.2857(2) 0.50398(16)
O6 O 0.4489(5) 0.3983(3) 0.41428(17)
C20 C 0.6557(5) 0.3621(3) 0.52978(18)
H11 H 0.6223 0.3747 0.5527
C23 C 0.7467(5) 0.3339(3) 0.5340(2)
H14 H 0.7721 0.3262 0.5594
C29 C 0.6634(5) 0.3562(3) 0.4632(2)
H20 H 0.6356 0.3639 0.4381
C33 C 0.9488(6) 0.2722(3) 0.5398(2)
H23 H 0.9182 0.2843 0.5634
C36 C 0.7568(6) 0.3279(3) 0.4654(2)
H26 H 0.7892 0.3164 0.4419
C42 C 0.9568(5) 0.2700(3) 0.4714(2)
H32 H 0.9308 0.2790 0.4463
N1 N 0.8894(4) 0.12683(18) 0.50525(14)
N2_2 N 0.4099(4) 0.27538(18) 0.49109(14)
C1_2 C 0.6963(4) 0.1840(2) 0.49930(17)
C2_2 C 0.5969(4) 0.2143(2) 0.49602(16)
C3 C 0.8443(5) 0.1379(3) 0.47022(18)
H1 H 0.8777 0.1253 0.4473
C4 C 0.7533(5) 0.1661(3) 0.4660(2)
H2_2 H 0.7279 0.1738 0.4406
C5_2 C 0.4633(5) 0.2582(3) 0.4590(2)
H3_2 H 0.4374 0.2682 0.4340
C6 C 0.8366(5) 0.1438(3) 0.5368(2)
H4 H 0.8644 0.1361 0.5619
C8_2 C 0.5512(6) 0.2278(3) 0.4602(2)
H5_2 H 0.5818 0.2157 0.4366
C9_2 C 0.7432(6) 0.1721(3) 0.5346(2)
H6_2 H 0.7108 0.1836 0.5581
C10_2 C 0.4513(6) 0.2589(4) 0.5255(2)
H7_2 H 0.4153 0.2677 0.5489
C11_2 C 0.5432(5) 0.2300(3) 0.5286(2)
H8_2 H 0.5692 0.2210 0.5537
Ag3_2 Ag 0.28146(3) 0.330832(17) 0.486798(14)
N5_2 N 0.1394(4) 0.37683(18) 0.49475(14)
O6_2 O 0.3011(5) 0.3517(3) 0.41428(17)
C20_2 C 0.0943(5) 0.3879(3) 0.52978(18)
H11_2 H 0.1277 0.3753 0.5527
C23_2 C 0.0033(5) 0.4161(3) 0.5340(2)
C29_2 C 0.0866(5) 0.3938(3) 0.4632(2)
H20_2 H 0.1144 0.3861 0.4381
N1_2 N 0.8894(4) 0.62317(18) 0.24475(14)
N2_3 N 0.4099(4) 0.47462(18) 0.25891(14)
C1_3 C 0.6963(4) 0.5660(2) 0.25070(17)
C2_3 C 0.5969(4) 0.5357(2) 0.25398(16)
C3_2 C 0.8443(5) 0.6121(3) 0.27978(18)
H1_2 H 0.8777 0.6247 0.3027
C4_2 C 0.7533(5) 0.5839(3) 0.2840(2)
H2_3 H 0.7279 0.5762 0.3094
C5_3 C 0.4633(5) 0.4918(3) 0.2910(2)
H3_3 H 0.4374 0.4818 0.3160
C6_2 C 0.8366(5) 0.6062(3) 0.2132(2)
H4_2 H 0.8644 0.6139 0.1881
C8_3 C 0.5512(6) 0.5222(3) 0.2898(2)
H5_3 H 0.5818 0.5343 0.3134
C9_3 C 0.7432(6) 0.5779(3) 0.2154(2)
H6_3 H 0.7108 0.5664 0.1919
C10_3 C 0.4513(6) 0.4911(4) 0.2245(2)
H7_3 H 0.4153 0.4823 0.2011
C11_3 C 0.5432(5) 0.5200(3) 0.2214(2)
H8_3 H 0.5692 0.5290 0.1963
Ag3_3 Ag 0.28146(3) 0.419168(17) 0.263202(14)
N5_3 N 0.1394(4) 0.37317(18) 0.25525(14)
O6_3 O 0.3011(5) 0.3983(3) 0.33572(17)
C20_3 C 0.0943(5) 0.3621(3) 0.22022(18)
H11_3 H 0.1277 0.3747 0.1973
C23_3 C 0.0033(5) 0.3339(3) 0.2160(2)
C29_3 C 0.0866(5) 0.3562(3) 0.2868(2)
H20_3 H 0.1144 0.3639 0.3119
N2_4 N 0.3401(4) 0.27538(18) 0.25891(14)
C1_4 C 0.0537(4) 0.1840(2) 0.25070(17)
C2_4 C 0.1531(4) 0.2143(2) 0.25398(16)
H2_4 H 0.0221 0.1738 0.3094
C5_4 C 0.2867(5) 0.2582(3) 0.2910(2)
H3_4 H 0.3126 0.2682 0.3160
C8_4 C 0.1988(6) 0.2278(3) 0.2898(2)
H5_4 H 0.1682 0.2157 0.3134
C9_4 C 0.0068(6) 0.1721(3) 0.2154(2)
H6_4 H 0.0392 0.1836 0.1919
C10_4 C 0.2987(6) 0.2589(4) 0.2245(2)
H7_4 H 0.3347 0.2677 0.2011
C11_4 C 0.2068(5) 0.2300(3) 0.2214(2)
H8_4 H 0.1808 0.2210 0.1963
Ag3_4 Ag 0.46854(3) 0.330832(17) 0.263202(14)
N5_4 N 0.6106(4) 0.37683(18) 0.25525(14)
C14_2 C 0.8037(4) 0.4340(2) 0.24930(17)
C17_2 C 0.9031(4) 0.4643(2) 0.24602(16)
O6_4 O 0.4489(5) 0.3517(3) 0.33572(17)
C20_4 C 0.6557(5) 0.3879(3) 0.22022(18)
H11_4 H 0.6223 0.3753 0.1973
C23_4 C 0.7467(5) 0.4161(3) 0.2160(2)
H14_2 H 0.7721 0.4238 0.1906
C29_4 C 0.6634(5) 0.3938(3) 0.2868(2)
H20_4 H 0.6356 0.3861 0.3119
C33_2 C 0.9488(6) 0.4778(3) 0.2102(2)
H23_2 H 0.9182 0.4657 0.1866
C36_2 C 0.7568(6) 0.4221(3) 0.2846(2)
H26_2 H 0.7892 0.4336 0.3081
C42_2 C 0.9568(5) 0.4800(3) 0.2786(2)
H32_2 H 0.9308 0.4710 0.3037
C7_3 C 0.3750 0.3750 0.3979(3)
C30_3 C 0.3750 0.3750 0.3521(3)
Ag1_2 Ag 0.71854(3) 0.669168(17) 0.513202(14)
N1_3 N 0.8606(4) 0.62317(18) 0.50525(14)
O1_2 O 0.6989(5) 0.6483(3) 0.58572(17)
C3_3 C 0.9057(5) 0.6121(3) 0.47022(18)
H1_3 H 0.8723 0.6247 0.4473
C4_3 C 0.9967(5) 0.5839(3) 0.4660(2)
C6_3 C 0.9134(5) 0.6062(3) 0.5368(2)
H4_3 H 0.8856 0.6139 0.5619
C7_4 C 0.6250 0.6250 0.6021(3)
Ag4 Ag 0.53146(3) 0.580832(17) 0.513202(14)
Ag5_2 Ag 0.71854(3) 0.580832(17) 0.736798(14)
Ag6_2 Ag 0.53146(3) 0.669168(17) 0.736798(14)
N3_3 N 0.1106(4) 0.87317(18) 0.49475(14)
N6_2 N 0.3894(4) 0.62683(18) 0.50525(14)
N7_3 N 0.5901(4) 0.72462(18) 0.50891(14)
N10_2 N 0.6599(4) 0.52538(18) 0.50891(14)
C12_2 C 0.3037(4) 0.8160(2) 0.50070(17)
C15_2 C 0.4031(4) 0.7857(2) 0.50398(16)
O2_2 O 0.5511(5) 0.6017(3) 0.58572(17)
O3_2 O 0.6989(5) 0.6017(3) 0.66428(17)
O4_2 O 0.5511(5) 0.6483(3) 0.66428(17)
C18_2 C 0.1557(5) 0.8621(3) 0.52978(18)
H9_2 H 0.1223 0.8747 0.5527
C21_2 C 0.2467(5) 0.8339(3) 0.5340(2)
H12_2 H 0.2721 0.8262 0.5594
C24_3 C 0.5367(5) 0.7418(3) 0.5410(2)
H15_3 H 0.5626 0.7318 0.5660
C27_3 C 0.1634(5) 0.8562(3) 0.4632(2)
H18_3 H 0.1356 0.8639 0.4381
C30_4 C 0.6250 0.6250 0.6479(3)
C31_2 C 0.4488(6) 0.7722(3) 0.5398(2)
H21_2 H 0.4182 0.7843 0.5634
C34_3 C 0.2568(6) 0.8279(3) 0.4654(2)
H24_3 H 0.2892 0.8164 0.4419
C37_4 C 0.5487(6) 0.7411(4) 0.4745(2)
H27_4 H 0.5847 0.7323 0.4511
C40_3 C 0.4568(5) 0.7700(3) 0.4714(2)
H30_3 H 0.4308 0.7790 0.4463
C13_4 C 0.1963(4) 0.6840(2) 0.49930(17)
C16_4 C 0.0969(4) 0.7143(2) 0.49602(16)
C19_4 C 0.3443(5) 0.6379(3) 0.47022(18)
H10_4 H 0.3777 0.6253 0.4473
C22_4 C 0.2533(5) 0.6661(3) 0.4660(2)
H13_4 H 0.2279 0.6738 0.4406
C28_3 C 0.3366(5) 0.6438(3) 0.5368(2)
H19_3 H 0.3644 0.6361 0.5619
C32_4 C 0.0512(6) 0.7278(3) 0.4602(2)
H22_4 H 0.0818 0.7157 0.4366
C35_3 C 0.2432(6) 0.6721(3) 0.5346(2)
H25_3 H 0.2108 0.6836 0.5581
C41_3 C 0.0432(5) 0.7300(3) 0.5286(2)
H31_3 H 0.0692 0.7210 0.5537
C14_3 C 0.9463(4) 0.4340(2) 0.50070(17)
C17_3 C 0.8469(4) 0.4643(2) 0.50398(16)
H14_3 H 0.9779 0.4238 0.5594
C26_3 C 0.7133(5) 0.5082(3) 0.5410(2)
H17_3 H 0.6874 0.5182 0.5660
C33_3 C 0.8012(6) 0.4778(3) 0.5398(2)
H23_3 H 0.8318 0.4657 0.5634
C36_3 C 0.9932(6) 0.4221(3) 0.4654(2)
H26_3 H 0.9608 0.4336 0.4419
C39_4 C 0.7013(6) 0.5089(4) 0.4745(2)
H29_4 H 0.6653 0.5177 0.4511
C42_3 C 0.7932(5) 0.4800(3) 0.4714(2)
H32_3 H 0.8192 0.4710 0.4463
N4_2 N 0.3894(4) 0.62317(18) 0.74475(14)
C13_5 C 0.1963(4) 0.5660(2) 0.75070(17)
C16_5 C 0.0969(4) 0.5357(2) 0.75398(16)
C19_5 C 0.3443(5) 0.6121(3) 0.77978(18)
H10_5 H 0.3777 0.6247 0.8027
C22_5 C 0.2533(5) 0.5839(3) 0.7840(2)
H13_5 H 0.2279 0.5762 0.8094
C28_4 C 0.3366(5) 0.6062(3) 0.7132(2)
H19_4 H 0.3644 0.6139 0.6881
C32_5 C 0.0512(6) 0.5222(3) 0.7898(2)
H22_5 H 0.0818 0.5343 0.8134
C35_4 C 0.2432(6) 0.5779(3) 0.7154(2)
H25_4 H 0.2108 0.5664 0.6919
C41_4 C 0.0432(5) 0.5200(3) 0.7214(2)
H31_4 H 0.0692 0.5290 0.6963
N9_2 N 0.6599(4) 0.72462(18) 0.74109(14)
C14_4 C 0.9463(4) 0.8160(2) 0.74930(17)
C17_4 C 0.8469(4) 0.7857(2) 0.74602(16)
H14_4 H 0.9779 0.8262 0.6906
C26_4 C 0.7133(5) 0.7418(3) 0.7090(2)
H17_4 H 0.6874 0.7318 0.6840
C33_4 C 0.8012(6) 0.7722(3) 0.7102(2)
H23_4 H 0.8318 0.7843 0.6866
C36_4 C 0.9932(6) 0.8279(3) 0.7846(2)
H26_4 H 0.9608 0.8164 0.8081
C39_5 C 0.7013(6) 0.7411(4) 0.7755(2)
H29_5 H 0.6653 0.7323 0.7989
C42_4 C 0.7932(5) 0.7700(3) 0.7786(2)
H32_4 H 0.8192 0.7790 0.8037
N1_4 N 0.8606(4) 0.62683(18) 0.74475(14)
C3_4 C 0.9057(5) 0.6379(3) 0.77978(18)
H1_4 H 0.8723 0.6253 0.8027
C4_4 C 0.9967(5) 0.6661(3) 0.7840(2)
C6_4 C 0.9134(5) 0.6438(3) 0.7132(2)
H4_4 H 0.8856 0.6361 0.6881
N3_4 N 0.1106(4) 0.37683(18) 0.75525(14)
N7_4 N 0.5901(4) 0.52538(18) 0.74109(14)
C12_3 C 0.3037(4) 0.4340(2) 0.74930(17)
C15_3 C 0.4031(4) 0.4643(2) 0.74602(16)
C18_3 C 0.1557(5) 0.3879(3) 0.72022(18)
H9_3 H 0.1223 0.3753 0.6973
C21_3 C 0.2467(5) 0.4161(3) 0.7160(2)
H12_3 H 0.2721 0.4238 0.6906
C24_4 C 0.5367(5) 0.5082(3) 0.7090(2)
H15_4 H 0.5626 0.5182 0.6840
C27_4 C 0.1634(5) 0.3938(3) 0.7868(2)
H18_4 H 0.1356 0.3861 0.8119
C31_3 C 0.4488(6) 0.4778(3) 0.7102(2)
H21_3 H 0.4182 0.4657 0.6866
C34_4 C 0.2568(6) 0.4221(3) 0.7846(2)
H24_4 H 0.2892 0.4336 0.8081
C37_5 C 0.5487(6) 0.5089(4) 0.7755(2)
H27_5 H 0.5847 0.5177 0.7989
C40_4 C 0.4568(5) 0.4800(3) 0.7786(2)
H30_4 H 0.4308 0.4710 0.8037
Ag2_5 Ag 0.96854(3) 0.919168(17) 0.486798(14)
N8_5 N 0.8401(4) 0.97462(18) 0.49109(14)
O5_5 O 0.9489(5) 0.8983(3) 0.41428(17)
C25_5 C 0.7867(5) 0.9918(3) 0.4590(2)
H16_5 H 0.8126 0.9818 0.4340
C38_3 C 0.7987(6) 0.9911(4) 0.5255(2)
H28_3 H 0.8347 0.9823 0.5489
Ag2_6 Ag 0.78146(3) 0.830832(17) 0.486798(14)
N3_5 N 0.6394(4) 0.87683(18) 0.49475(14)
N8_6 N 0.9099(4) 0.77538(18) 0.49109(14)
C12_4 C 0.4463(4) 0.9340(2) 0.50070(17)
C15_4 C 0.3469(4) 0.9643(2) 0.50398(16)
O5_6 O 0.8011(5) 0.8517(3) 0.41428(17)
C18_4 C 0.5943(5) 0.8879(3) 0.52978(18)
H9_4 H 0.6277 0.8753 0.5527
C21_4 C 0.5033(5) 0.9161(3) 0.5340(2)
H12_4 H 0.4779 0.9238 0.5594
C25_6 C 0.9633(5) 0.7582(3) 0.4590(2)
H16_6 H 0.9374 0.7682 0.4340
C27_5 C 0.5866(5) 0.8938(3) 0.4632(2)
H18_5 H 0.6144 0.8861 0.4381
C31_4 C 0.3012(6) 0.9778(3) 0.5398(2)
H21_4 H 0.3318 0.9657 0.5634
C34_5 C 0.4932(6) 0.9221(3) 0.4654(2)
H24_5 H 0.4608 0.9336 0.4419
C38_4 C 0.9513(6) 0.7589(4) 0.5255(2)
H28_4 H 0.9153 0.7677 0.5489
C40_5 C 0.2932(5) 0.9800(3) 0.4714(2)
H30_5 H 0.3192 0.9710 0.4463
Ag1_3 Ag 0.03146(3) 0.669168(17) 0.236798(14)
O1_3 O 0.0511(5) 0.6483(3) 0.16428(17)
C7_5 C 0.1250 0.6250 0.1479(3)
Ag2_7 Ag 0.78146(3) 0.919168(17) 0.263202(14)
Ag4_2 Ag 0.21854(3) 0.580832(17) 0.236798(14)
Ag5_3 Ag 0.03146(3) 0.580832(17) 0.013202(14)
Ag6_3 Ag 0.21854(3) 0.669168(17) 0.013202(14)
N3_6 N 0.6394(4) 0.87317(18) 0.25525(14)
N6_3 N 0.3606(4) 0.62683(18) 0.24475(14)
N7_5 N 0.1599(4) 0.72462(18) 0.24109(14)
N8_7 N 0.9099(4) 0.97462(18) 0.25891(14)
N10_3 N 0.0901(4) 0.52538(18) 0.24109(14)
C12_5 C 0.4463(4) 0.8160(2) 0.24930(17)
C15_5 C 0.3469(4) 0.7857(2) 0.24602(16)
O2_3 O 0.1989(5) 0.6017(3) 0.16428(17)
O3_3 O 0.0511(5) 0.6017(3) 0.08572(17)
O4_3 O 0.1989(5) 0.6483(3) 0.08572(17)
O5_7 O 0.8011(5) 0.8983(3) 0.33572(17)
C18_5 C 0.5943(5) 0.8621(3) 0.22022(18)
H9_5 H 0.6277 0.8747 0.1973
C21_5 C 0.5033(5) 0.8339(3) 0.2160(2)
H12_5 H 0.4779 0.8262 0.1906
C24_5 C 0.2133(5) 0.7418(3) 0.2090(2)
C25_7 C 0.9633(5) 0.9918(3) 0.2910(2)
H15_5 H 0.1874 0.7318 0.1840
H16_7 H 0.9374 0.9818 0.3160
C27_6 C 0.5866(5) 0.8562(3) 0.2868(2)
H18_6 H 0.6144 0.8639 0.3119
C30_5 C 0.1250 0.6250 0.1021(3)
C31_5 C 0.3012(6) 0.7722(3) 0.2102(2)
H21_5 H 0.3318 0.7843 0.1866
C34_6 C 0.4932(6) 0.8279(3) 0.2846(2)
H24_6 H 0.4608 0.8164 0.3081
C37_6 C 0.2013(6) 0.7411(4) 0.2755(2)
C38_5 C 0.9513(6) 0.9911(4) 0.2245(2)
H27_6 H 0.1653 0.7323 0.2989
H28_5 H 0.9153 0.9823 0.2011
C40_6 C 0.2932(5) 0.7700(3) 0.2786(2)
H30_6 H 0.3192 0.7790 0.3037
C26_5 C 0.0367(5) 0.5082(3) 0.2090(2)
H17_5 H 0.0626 0.5182 0.1840
C39_6 C 0.0487(6) 0.5089(4) 0.2755(2)
H29_6 H 0.0847 0.5177 0.2989
Ag2_8 Ag 0.96854(3) 0.830832(17) 0.263202(14)
N8_8 N 0.8401(4) 0.77538(18) 0.25891(14)
C13_6 C 0.5537(4) 0.6840(2) 0.25070(17)
C16_6 C 0.6531(4) 0.7143(2) 0.25398(16)
O5_8 O 0.9489(5) 0.8517(3) 0.33572(17)
C19_6 C 0.4057(5) 0.6379(3) 0.27978(18)
H10_6 H 0.3723 0.6253 0.3027
C22_6 C 0.4967(5) 0.6661(3) 0.2840(2)
H13_6 H 0.5221 0.6738 0.3094
C25_8 C 0.7867(5) 0.7582(3) 0.2910(2)
H16_8 H 0.8126 0.7682 0.3160
C28_5 C 0.4134(5) 0.6438(3) 0.2132(2)
H19_5 H 0.3856 0.6361 0.1881
C32_6 C 0.6988(6) 0.7278(3) 0.2898(2)
H22_6 H 0.6682 0.7157 0.3134
C35_5 C 0.5068(6) 0.6721(3) 0.2154(2)
H25_5 H 0.5392 0.6836 0.1919
C38_6 C 0.7987(6) 0.7589(4) 0.2245(2)
H28_6 H 0.8347 0.7677 0.2011
C41_5 C 0.7068(5) 0.7300(3) 0.2214(2)
H31_5 H 0.6808 0.7210 0.1963
N9_3 N 0.0901(4) 0.72462(18) 0.00891(14)
C26_6 C 0.0367(5) 0.7418(3) 0.0410(2)
H17_6 H 0.0626 0.7318 0.0660
N4_3 N 0.3606(4) 0.62317(18) 0.00525(14)
C28_6 C 0.4134(5) 0.6062(3) 0.0368(2)
H19_6 H 0.3856 0.6139 0.0619
C35_6 C 0.5068(6) 0.5779(3) 0.0346(2)
H25_6 H 0.5392 0.5664 0.0581
C38_7 C 0.7987(6) 0.4911(4) 0.0255(2)
H28_7 H 0.8347 0.4823 0.0489
C41_6 C 0.7068(5) 0.5200(3) 0.0286(2)
H31_6 H 0.6808 0.5290 0.0537
N7_6 N 0.1599(4) 0.52538(18) 0.00891(14)
C12_6 C 0.4463(4) 0.4340(2) 0.00070(17)
C15_6 C 0.3469(4) 0.4643(2) 0.00398(16)
C18_6 C 0.5943(5) 0.3879(3) 0.02978(18)
H9_6 H 0.6277 0.3753 0.0527
C21_6 C 0.5033(5) 0.4161(3) 0.0340(2)
H12_6 H 0.4779 0.4238 0.0594
C24_6 C 0.2133(5) 0.5082(3) 0.0410(2)
H15_6 H 0.1874 0.5182 0.0660
C31_6 C 0.3012(6) 0.4778(3) 0.0398(2)
H21_6 H 0.3318 0.4657 0.0634
C38_8 C 0.9513(6) 0.2589(4) 0.0255(2)
H28_8 H 0.9153 0.2677 0.0489
C7_6 C 0.8750 0.8750 0.3979(3)
C30_6 C 0.8750 0.8750 0.3521(3)
Ag7 Ag 0.53146(3) 0.169168(17) 0.236798(14)
N4_4 N 0.3894(4) 0.12317(18) 0.24475(14)
C13_7 C 0.1963(4) 0.0660(2) 0.25070(17)
C16_7 C 0.0969(4) 0.0357(2) 0.25398(16)
C19_7 C 0.3443(5) 0.1121(3) 0.27978(18)
H10_7 H 0.3777 0.1247 0.3027
C22_7 C 0.2533(5) 0.0839(3) 0.2840(2)
H13_7 H 0.2279 0.0762 0.3094
C28_7 C 0.3366(5) 0.1062(3) 0.2132(2)
H19_7 H 0.3644 0.1139 0.1881
C32_7 C 0.0512(6) 0.0222(3) 0.2898(2)
H22_7 H 0.0818 0.0343 0.3134
C35_7 C 0.2432(6) 0.0779(3) 0.2154(2)
H25_7 H 0.2108 0.0664 0.1919
C41_7 C 0.0432(5) 0.0200(3) 0.2214(2)
H31_7 H 0.0692 0.0290 0.1963
N9_4 N 0.6599(4) 0.22462(18) 0.24109(14)
C14_5 C 0.9463(4) 0.3160(2) 0.24930(17)
C17_5 C 0.8469(4) 0.2857(2) 0.24602(16)
H14_5 H 0.9779 0.3262 0.1906
C26_7 C 0.7133(5) 0.2418(3) 0.2090(2)
H17_7 H 0.6874 0.2318 0.1840
C33_5 C 0.8012(6) 0.2722(3) 0.2102(2)
H23_5 H 0.8318 0.2843 0.1866
C36_5 C 0.9932(6) 0.3279(3) 0.2846(2)
H26_5 H 0.9608 0.3164 0.3081
C39_7 C 0.7013(6) 0.2411(4) 0.2755(2)
H29_7 H 0.6653 0.2323 0.2989
C42_5 C 0.7932(5) 0.2700(3) 0.2786(2)
H32_5 H 0.8192 0.2790 0.3037
Ag1_4 Ag 0.71854(3) 0.080832(17) 0.236798(14)
N1_5 N 0.8606(4) 0.12683(18) 0.24475(14)
O1_4 O 0.6989(5) 0.1017(3) 0.16428(17)
C3_5 C 0.9057(5) 0.1379(3) 0.27978(18)
H1_5 H 0.8723 0.1253 0.3027
C4_5 C 0.9967(5) 0.1661(3) 0.2840(2)
C6_5 C 0.9134(5) 0.1438(3) 0.2132(2)
H4_5 H 0.8856 0.1361 0.1881
C7_7 C 0.6250 0.1250 0.1479(3)
Ag5_4 Ag 0.71854(3) 0.169168(17) 0.013202(14)
Ag6_4 Ag 0.53146(3) 0.080832(17) 0.013202(14)
N7_7 N 0.5901(4) 0.02538(18) 0.24109(14)
O2_4 O 0.5511(5) 0.1483(3) 0.16428(17)
O3_4 O 0.6989(5) 0.1483(3) 0.08572(17)
O4_4 O 0.5511(5) 0.1017(3) 0.08572(17)
C24_7 C 0.5367(5) 0.0082(3) 0.2090(2)
H15_7 H 0.5626 0.0182 0.1840
C30_7 C 0.6250 0.1250 0.1021(3)
C37_7 C 0.5487(6) 0.0089(4) 0.2755(2)
H27_7 H 0.5847 0.0177 0.2989
N1_6 N 0.8606(4) 0.12317(18) 0.00525(14)
C6_6 C 0.9134(5) 0.1062(3) 0.0368(2)
H4_6 H 0.8856 0.1139 0.0619
N6_4 N 0.3894(4) 0.12683(18) 0.00525(14)
N7_8 N 0.5901(4) 0.22462(18) 0.00891(14)
N10_4 N 0.6599(4) 0.02538(18) 0.00891(14)
C12_7 C 0.3037(4) 0.3160(2) 0.00070(17)
C15_7 C 0.4031(4) 0.2857(2) 0.00398(16)
C18_7 C 0.1557(5) 0.3621(3) 0.02978(18)
H9_7 H 0.1223 0.3747 0.0527
C21_7 C 0.2467(5) 0.3339(3) 0.0340(2)
H12_7 H 0.2721 0.3262 0.0594
C24_8 C 0.5367(5) 0.2418(3) 0.0410(2)
H15_8 H 0.5626 0.2318 0.0660
C31_7 C 0.4488(6) 0.2722(3) 0.0398(2)
H21_7 H 0.4182 0.2843 0.0634
C28_8 C 0.3366(5) 0.1438(3) 0.0368(2)
H19_8 H 0.3644 0.1361 0.0619
C35_8 C 0.2432(6) 0.1721(3) 0.0346(2)
H25_8 H 0.2108 0.1836 0.0581
C41_8 C 0.0432(5) 0.2300(3) 0.0286(2)
H31_8 H 0.0692 0.2210 0.0537
C26_8 C 0.7133(5) 0.0082(3) 0.0410(2)
H17_8 H 0.6874 0.0182 0.0660
N3_7 N 0.1106(4) 0.87683(18) 0.25525(14)
C12_8 C 0.3037(4) 0.9340(2) 0.24930(17)
C15_8 C 0.4031(4) 0.9643(2) 0.24602(16)
C18_8 C 0.1557(5) 0.8879(3) 0.22022(18)
H9_8 H 0.1223 0.8753 0.1973
C21_8 C 0.2467(5) 0.9161(3) 0.2160(2)
H12_8 H 0.2721 0.9238 0.1906
C27_7 C 0.1634(5) 0.8938(3) 0.2868(2)
H18_7 H 0.1356 0.8861 0.3119
C31_8 C 0.4488(6) 0.9778(3) 0.2102(2)
H21_8 H 0.4182 0.9657 0.1866
C34_7 C 0.2568(6) 0.9221(3) 0.2846(2)
H24_7 H 0.2892 0.9336 0.3081
C40_7 C 0.4568(5) 0.9800(3) 0.2786(2)
H30_7 H 0.4308 0.9710 0.3037
C9_5 C 0.0068(6) 0.0779(3) 0.0346(2)
H6_5 H 0.0392 0.0664 0.0581
C11_5 C 0.2068(5) 0.0200(3) 0.0286(2)
H8_5 H 0.1808 0.0290 0.0537
C1_5 C 0.0537(4) 0.0660(2) 0.99930(17)
C2_5 C 0.1531(4) 0.0357(2) 0.99602(16)
H2_5 H 0.0221 0.0762 0.9406
C8_5 C 0.1988(6) 0.0222(3) 0.9602(2)
H5_5 H 0.1682 0.0343 0.9366
C10_5 C 0.2987(6) 0.9911(4) 0.0255(2)
H7_5 H 0.3347 0.9823 0.0489
C14_6 C 0.8037(4) 0.8160(2) 0.00070(17)
C17_6 C 0.9031(4) 0.7857(2) 0.00398(16)
C20_5 C 0.6557(5) 0.8621(3) 0.02978(18)
H11_5 H 0.6223 0.8747 0.0527
C23_5 C 0.7467(5) 0.8339(3) 0.0340(2)
H14_6 H 0.7721 0.8262 0.0594
C33_6 C 0.9488(6) 0.7722(3) 0.0398(2)
H23_6 H 0.9182 0.7843 0.0634
N1_7 N 0.8894(4) 0.62683(18) 0.00525(14)
C6_7 C 0.8366(5) 0.6438(3) 0.0368(2)
H4_7 H 0.8644 0.6361 0.0619
C9_6 C 0.7432(6) 0.6721(3) 0.0346(2)
H6_6 H 0.7108 0.6836 0.0581
C10_6 C 0.4513(6) 0.7589(4) 0.0255(2)
H7_6 H 0.4153 0.7677 0.0489
C11_6 C 0.5432(5) 0.7300(3) 0.0286(2)
H8_6 H 0.5692 0.7210 0.0537
C20_6 C 0.0943(5) 0.8879(3) 0.02978(18)
H11_6 H 0.1277 0.8753 0.0527
C23_6 C 0.0033(5) 0.9161(3) 0.0340(2)
N2_5 N 0.3401(4) 0.97462(18) 0.99109(14)
C5_5 C 0.2867(5) 0.9918(3) 0.9590(2)
H3_5 H 0.3126 0.9818 0.9340
Ag3_5 Ag 0.46854(3) 0.919168(17) 0.986798(14)
N5_5 N 0.6106(4) 0.87317(18) 0.99475(14)
O6_5 O 0.4489(5) 0.8983(3) 0.91428(17)
C29_5 C 0.6634(5) 0.8562(3) 0.9632(2)
H20_5 H 0.6356 0.8639 0.9381
C36_6 C 0.7568(6) 0.8279(3) 0.9654(2)
H26_6 H 0.7892 0.8164 0.9419
C42_6 C 0.9568(5) 0.7700(3) 0.9714(2)
H32_6 H 0.9308 0.7790 0.9463
N2_6 N 0.4099(4) 0.77538(18) 0.99109(14)
C1_6 C 0.6963(4) 0.6840(2) 0.99930(17)
C2_6 C 0.5969(4) 0.7143(2) 0.99602(16)
C3_6 C 0.8443(5) 0.6379(3) 0.97022(18)
H1_6 H 0.8777 0.6253 0.9473
C4_6 C 0.7533(5) 0.6661(3) 0.9660(2)
H2_6 H 0.7279 0.6738 0.9406
C5_6 C 0.4633(5) 0.7582(3) 0.9590(2)
H3_6 H 0.4374 0.7682 0.9340
C8_6 C 0.5512(6) 0.7278(3) 0.9602(2)
H5_6 H 0.5818 0.7157 0.9366
Ag3_6 Ag 0.28146(3) 0.830832(17) 0.986798(14)
N5_6 N 0.1394(4) 0.87683(18) 0.99475(14)
O6_6 O 0.3011(5) 0.8517(3) 0.91428(17)
C29_6 C 0.0866(5) 0.8938(3) 0.9632(2)
H20_6 H 0.1144 0.8861 0.9381
N2_7 N 0.4099(4) 0.97462(18) 0.75891(14)
C5_7 C 0.4633(5) 0.9918(3) 0.7910(2)
H3_7 H 0.4374 0.9818 0.8160
C10_7 C 0.4513(6) 0.9911(4) 0.7245(2)
H7_7 H 0.4153 0.9823 0.7011
Ag3_7 Ag 0.28146(3) 0.919168(17) 0.763202(14)
N5_7 N 0.1394(4) 0.87317(18) 0.75525(14)
O6_7 O 0.3011(5) 0.8983(3) 0.83572(17)
C20_7 C 0.0943(5) 0.8621(3) 0.72022(18)
H11_7 H 0.1277 0.8747 0.6973
C23_7 C 0.0033(5) 0.8339(3) 0.7160(2)
C29_7 C 0.0866(5) 0.8562(3) 0.7868(2)
H20_7 H 0.1144 0.8639 0.8119
N2_8 N 0.3401(4) 0.77538(18) 0.75891(14)
C1_7 C 0.0537(4) 0.6840(2) 0.75070(17)
C2_7 C 0.1531(4) 0.7143(2) 0.75398(16)
H2_7 H 0.0221 0.6738 0.8094
C5_8 C 0.2867(5) 0.7582(3) 0.7910(2)
H3_8 H 0.3126 0.7682 0.8160
C8_7 C 0.1988(6) 0.7278(3) 0.7898(2)
H5_7 H 0.1682 0.7157 0.8134
C9_7 C 0.0068(6) 0.6721(3) 0.7154(2)
H6_7 H 0.0392 0.6836 0.6919
C10_8 C 0.2987(6) 0.7589(4) 0.7245(2)
H7_8 H 0.3347 0.7677 0.7011
C11_7 C 0.2068(5) 0.7300(3) 0.7214(2)
H8_7 H 0.1808 0.7210 0.6963
Ag3_8 Ag 0.46854(3) 0.830832(17) 0.763202(14)
N5_8 N 0.6106(4) 0.87683(18) 0.75525(14)
C14_7 C 0.8037(4) 0.9340(2) 0.74930(17)
C17_7 C 0.9031(4) 0.9643(2) 0.74602(16)
O6_8 O 0.4489(5) 0.8517(3) 0.83572(17)
C20_8 C 0.6557(5) 0.8879(3) 0.72022(18)
H11_8 H 0.6223 0.8753 0.6973
C23_8 C 0.7467(5) 0.9161(3) 0.7160(2)
H14_7 H 0.7721 0.9238 0.6906
C29_8 C 0.6634(5) 0.8938(3) 0.7868(2)
H20_8 H 0.6356 0.8861 0.8119
C33_7 C 0.9488(6) 0.9778(3) 0.7102(2)
H23_7 H 0.9182 0.9657 0.6866
C36_7 C 0.7568(6) 0.9221(3) 0.7846(2)
H26_7 H 0.7892 0.9336 0.8081
C42_7 C 0.9568(5) 0.9800(3) 0.7786(2)
H32_7 H 0.9308 0.9710 0.8037
C7_8 C 0.3750 0.8750 0.8521(3)
C30_8 C 0.3750 0.8750 0.8979(3)
C3_7 C 0.9057(5) 0.1121(3) 0.97022(18)
H1_7 H 0.8723 0.1247 0.9473
C4_7 C 0.9967(5) 0.0839(3) 0.9660(2)
N3_8 N 0.1106(4) 0.37317(18) 0.99475(14)
C27_8 C 0.1634(5) 0.3562(3) 0.9632(2)
H18_8 H 0.1356 0.3639 0.9381
C34_8 C 0.2568(6) 0.3279(3) 0.9654(2)
H24_8 H 0.2892 0.3164 0.9419
C37_8 C 0.5487(6) 0.2411(4) 0.9745(2)
H27_8 H 0.5847 0.2323 0.9511
C40_8 C 0.4568(5) 0.2700(3) 0.9714(2)
H30_8 H 0.4308 0.2790 0.9463
C13_8 C 0.1963(4) 0.1840(2) 0.99930(17)
C16_8 C 0.0969(4) 0.2143(2) 0.99602(16)
C19_8 C 0.3443(5) 0.1379(3) 0.97022(18)
H10_8 H 0.3777 0.1253 0.9473
C22_8 C 0.2533(5) 0.1661(3) 0.9660(2)
H13_8 H 0.2279 0.1738 0.9406
C32_8 C 0.0512(6) 0.2278(3) 0.9602(2)
H22_8 H 0.0818 0.2157 0.9366
C39_8 C 0.7013(6) 0.0089(4) 0.9745(2)
H29_8 H 0.6653 0.0177 0.9511
C14_8 C 0.9463(4) 0.9340(2) 0.00070(17)
C17_8 C 0.8469(4) 0.9643(2) 0.00398(16)
H14_8 H 0.9779 0.9238 0.0594
C33_8 C 0.8012(6) 0.9778(3) 0.0398(2)
H23_8 H 0.8318 0.9657 0.0634
C36_8 C 0.9932(6) 0.9221(3) 0.9654(2)
H26_8 H 0.9608 0.9336 0.9419
C42_8 C 0.7932(5) 0.9800(3) 0.9714(2)
H32_8 H 0.8192 0.9710 0.9463
N1_8 N 0.8894(4) 0.12317(18) 0.74475(14)
C1_8 C 0.6963(4) 0.0660(2) 0.75070(17)
C2_8 C 0.5969(4) 0.0357(2) 0.75398(16)
C3_8 C 0.8443(5) 0.1121(3) 0.77978(18)
H1_8 H 0.8777 0.1247 0.8027
C4_8 C 0.7533(5) 0.0839(3) 0.7840(2)
H2_8 H 0.7279 0.0762 0.8094
C6_8 C 0.8366(5) 0.1062(3) 0.7132(2)
H4_8 H 0.8644 0.1139 0.6881
C8_8 C 0.5512(6) 0.0222(3) 0.7898(2)
H5_8 H 0.5818 0.0343 0.8134
C9_8 C 0.7432(6) 0.0779(3) 0.7154(2)
H6_8 H 0.7108 0.0664 0.6919
C11_8 C 0.5432(5) 0.0200(3) 0.7214(2)
H8_8 H 0.5692 0.0290 0.6963
loop_
_geom_bond_atom_site_label_1
_geom_bond_atom_site_label_2
_geom_bond_site_symmetry_1
_geom_bond_site_symmetry_2
Ag8 N9 1_555 1_555
N9 C26 1_555 1_555
C26 H17 1_555 1_555
C39 N9 1_555 1_555
H29 C39 1_555 1_555
Ag8 N4 1_555 1_555
N4 C19 1_555 1_555
C13 C16 1_555 1_555
C16 C32 1_555 1_555
C19 H10 1_555 1_555
C22 C13 1_555 1_555
H13 C22 1_555 1_555
C28 N4 1_555 1_555
H19 C28 1_555 1_555
H22 C32 1_555 1_555
C35 C13 1_555 1_555
H25 C35 1_555 1_555
C41 C16 1_555 1_555
H31 C41 1_555 1_555
C19 C22 1_555 1_555
C28 C35 1_555 1_555
O1 Ag1 1_555 1_555
C7 O1 1_555 1_555
Ag5 O3 1_555 1_555
Ag6 O4 1_555 1_555
N7 Ag1 1_555 1_555
O2 C7 1_555 1_555
O3 C30 1_555 1_555
O4 C30 1_555 1_555
C24 N7 1_555 1_555
H15 C24 1_555 1_555
C30 C7 1_555 1_555
C37 N7 1_555 1_555
H27 C37 1_555 1_555
Ag8 O2 1_555 1_555
H29_2 C39_2 1_555 1_555
N8 Ag2 1_555 1_555
C13_2 C16_2 1_555 1_555
C16_2 C32_2 1_555 1_555
O5 Ag2 1_555 1_555
C19_2 H10_2 1_555 1_555
C22_2 C13_2 1_555 1_555
H13_2 C22_2 1_555 1_555
C25 N8 1_555 1_555
H16 C25 1_555 1_555
C32_2 C25 1_555 1_555
H22_2 C32_2 1_555 1_555
C19_2 C22_2 1_555 1_555
Ag2_2 N3 1_555 1_555
N8_2 Ag2_2 1_555 1_555
O5_2 Ag2_2 1_555 1_555
C25_2 N8_2 1_555 1_555
H16_2 C25_2 1_555 1_555
C27 N3 1_555 1_555
H18 C27 1_555 1_555
H24 C34 1_555 1_555
H27_2 C37_2 1_555 1_555
H30 C40 1_555 1_555
C27 C34 1_555 1_555
C37_2 C40 1_555 1_555
Ag2_3 N3_2 1_555 1_555
Ag6 N6 1_555 1_555
N3_2 C18 1_555 1_555
N7_2 Ag5 1_555 1_555
N8_3 Ag2_3 1_555 1_555
N10 Ag6 1_555 1_555
C12 C15 1_555 1_555
C15 C31 1_555 1_555
O5_3 Ag2_3 1_555 1_555
C18 H9 1_555 1_555
C21 C12 1_555 1_555
H12 C21 1_555 1_555
C24_2 N7_2 1_555 1_555
C25_3 N8_3 1_555 1_555
H15_2 C24_2 1_555 1_555
H16_3 C25_3 1_555 1_555
C27_2 N3_2 1_555 1_555
H18_2 C27_2 1_555 1_555
C31 C24_2 1_555 1_555
H21 C31 1_555 1_555
C34_2 C12 1_555 1_555
H24_2 C34_2 1_555 1_555
C37_3 N7_2 1_555 1_555
C38 N8_3 1_555 1_555
H27_3 C37_3 1_555 1_555
H28 C38 1_555 1_555
C40_2 C15 1_555 1_555
H30_2 C40_2 1_555 1_555
C18 C21 1_555 1_555
C27_2 C34_2 1_555 1_555
C37_3 C40_2 1_555 1_555
N10 C26_2 1_555 1_555
C26_2 H17_2 1_555 1_555
C39_3 N10 1_555 1_555
H29_3 C39_3 1_555 1_555
N6 C19_3 1_555 1_555
N8_4 Ag2_4 1_555 1_555
C13_3 C16_3 1_555 1_555
C16_3 C32_3 1_555 1_555
O5_4 Ag2_4 1_555 1_555
C19_3 H10_3 1_555 1_555
C22_3 C13_3 1_555 1_555
H13_3 C22_3 1_555 1_555
C25_4 N8_4 1_555 1_555
H16_4 C25_4 1_555 1_555
C28_2 N6 1_555 1_555
H19_2 C28_2 1_555 1_555
C32_3 C25_4 1_555 1_555
H22_3 C32_3 1_555 1_555
C35_2 C13_3 1_555 1_555
H25_2 C35_2 1_555 1_555
C38_2 N8_4 1_555 1_555
H28_2 C38_2 1_555 1_555
C41_2 C16_3 1_555 1_555
H31_2 C41_2 1_555 1_555
C19_3 C22_3 1_555 1_555
C28_2 C35_2 1_555 1_555
C38_2 C41_2 1_555 1_555
C7_2 O5_4 1_555 1_555
O5_3 C7_2 1_555 1_555
O5 C30_2 1_555 1_555
O5_2 C30_2 1_555 1_555
C30_2 C7_2 1_555 1_555
N2 C5 1_555 1_555
C1 C2 1_555 1_555
C2 C8 1_555 1_555
C5 H3 1_555 1_555
C8 C5 1_555 1_555
H5 C8 1_555 1_555
C9 C1 1_555 1_555
H6 C9 1_555 1_555
C10 N2 1_555 1_555
H7 C10 1_555 1_555
C11 C2 1_555 1_555
H8 C11 1_555 1_555
Ag3 N2 1_555 1_555
N5 Ag3 1_555 1_555
C14 C17 1_555 1_555
C17 C33 1_555 1_555
O6 Ag3 1_555 1_555
C20 N5 1_555 1_555
H11 C20 1_555 1_555
C23 C14 1_555 1_555
H14 C23 1_555 1_555
C29 N5 1_555 1_555
H20 C29 1_555 1_555
H23 C33 1_555 1_555
C36 C14 1_555 1_555
H26 C36 1_555 1_555
C42 C17 1_555 1_555
H32 C42 1_555 1_555
C10 C11 1_555 1_555
C20 C23 1_555 1_555
C29 C36 1_555 1_555
N1 C3 1_555 1_555
N2_2 C5_2 1_555 1_555
C1_2 C2_2 1_555 1_555
C2_2 C8_2 1_555 1_555
C3 H1 1_555 1_555
C4 C1_2 1_555 1_555
H2_2 C4 1_555 1_555
C5_2 H3_2 1_555 1_555
C6 N1 1_555 1_555
H4 C6 1_555 1_555
C8_2 C5_2 1_555 1_555
H5_2 C8_2 1_555 1_555
C9_2 C1_2 1_555 1_555
H6_2 C9_2 1_555 1_555
C10_2 N2_2 1_555 1_555
H7_2 C10_2 1_555 1_555
C11_2 C2_2 1_555 1_555
H8_2 C11_2 1_555 1_555
Ag3_2 N2_2 1_555 1_555
N5_2 Ag3_2 1_555 1_555
O6_2 Ag3_2 1_555 1_555
C20_2 N5_2 1_555 1_555
H11_2 C20_2 1_555 1_555
C29_2 N5_2 1_555 1_555
H20_2 C29_2 1_555 1_555
C3 C4 1_555 1_555
C6 C9_2 1_555 1_555
C10_2 C11_2 1_555 1_555
C20_2 C23_2 1_555 1_555
N1_2 C3_2 1_555 1_555
N2_3 C5_3 1_555 1_555
C1_3 C2_3 1_555 1_555
C2_3 C8_3 1_555 1_555
C3_2 H1_2 1_555 1_555
C4_2 C1_3 1_555 1_555
H2_3 C4_2 1_555 1_555
C5_3 H3_3 1_555 1_555
C6_2 N1_2 1_555 1_555
H4_2 C6_2 1_555 1_555
C8_3 C5_3 1_555 1_555
H5_3 C8_3 1_555 1_555
C9_3 C1_3 1_555 1_555
H6_3 C9_3 1_555 1_555
C10_3 N2_3 1_555 1_555
H7_3 C10_3 1_555 1_555
C11_3 C2_3 1_555 1_555
H8_3 C11_3 1_555 1_555
Ag3_3 N2_3 1_555 1_555
N5_3 Ag3_3 1_555 1_555
O6_3 Ag3_3 1_555 1_555
C20_3 N5_3 1_555 1_555
H11_3 C20_3 1_555 1_555
C29_3 N5_3 1_555 1_555
H20_3 C29_3 1_555 1_555
C3_2 C4_2 1_555 1_555
C6_2 C9_3 1_555 1_555
C10_3 C11_3 1_555 1_555
C20_3 C23_3 1_555 1_555
N2_4 C5_4 1_555 1_555
C1_4 C2_4 1_555 1_555
C2_4 C8_4 1_555 1_555
C5_4 H3_4 1_555 1_555
C8_4 C5_4 1_555 1_555
H5_4 C8_4 1_555 1_555
C9_4 C1_4 1_555 1_555
H6_4 C9_4 1_555 1_555
C10_4 N2_4 1_555 1_555
H7_4 C10_4 1_555 1_555
C11_4 C2_4 1_555 1_555
H8_4 C11_4 1_555 1_555
Ag3_4 N2_4 1_555 1_555
N5_4 Ag3_4 1_555 1_555
C14_2 C17_2 1_555 1_555
C17_2 C33_2 1_555 1_555
O6_4 Ag3_4 1_555 1_555
C20_4 N5_4 1_555 1_555
H11_4 C20_4 1_555 1_555
C23_4 C14_2 1_555 1_555
H14_2 C23_4 1_555 1_555
C29_4 N5_4 1_555 1_555
H20_4 C29_4 1_555 1_555
H23_2 C33_2 1_555 1_555
C36_2 C14_2 1_555 1_555
H26_2 C36_2 1_555 1_555
C42_2 C17_2 1_555 1_555
H32_2 C42_2 1_555 1_555
C10_4 C11_4 1_555 1_555
C20_4 C23_4 1_555 1_555
C29_4 C36_2 1_555 1_555
C7_3 O6_2 1_555 1_555
O6 C7_3 1_555 1_555
O6_3 C30_3 1_555 1_555
O6_4 C30_3 1_555 1_555
C30_3 C7_3 1_555 1_555
Ag1_2 N1_3 1_555 1_555
N1_3 C3_3 1_555 1_555
O1_2 Ag1_2 1_555 1_555
C3_3 H1_3 1_555 1_555
C6_3 N1_3 1_555 1_555
H4_3 C6_3 1_555 1_555
C7_4 O1_2 1_555 1_555
Ag4 N6_2 1_555 1_555
Ag5_2 O3_2 1_555 1_555
Ag6_2 O4_2 1_555 1_555
N3_3 C18_2 1_555 1_555
N7_3 Ag1_2 1_555 1_555
N10_2 Ag4 1_555 1_555
C12_2 C15_2 1_555 1_555
C15_2 C31_2 1_555 1_555
O2_2 C7_4 1_555 1_555
O3_2 C30_4 1_555 1_555
O4_2 C30_4 1_555 1_555
C18_2 H9_2 1_555 1_555
C21_2 C12_2 1_555 1_555
H12_2 C21_2 1_555 1_555
C24_3 N7_3 1_555 1_555
H15_3 C24_3 1_555 1_555
C27_3 N3_3 1_555 1_555
H18_3 C27_3 1_555 1_555
C30_4 C7_4 1_555 1_555
C31_2 C24_3 1_555 1_555
H21_2 C31_2 1_555 1_555
C34_3 C12_2 1_555 1_555
H24_3 C34_3 1_555 1_555
C37_4 N7_3 1_555 1_555
H27_4 C37_4 1_555 1_555
C40_3 C15_2 1_555 1_555
H30_3 C40_3 1_555 1_555
C3_3 C4_3 1_555 1_555
Ag4 O2_2 1_555 1_555
C18_2 C21_2 1_555 1_555
C27_3 C34_3 1_555 1_555
C37_4 C40_3 1_555 1_555
N6_2 C19_4 1_555 1_555
C13_4 C16_4 1_555 1_555
C16_4 C32_4 1_555 1_555
C19_4 H10_4 1_555 1_555
C22_4 C13_4 1_555 1_555
H13_4 C22_4 1_555 1_555
C28_3 N6_2 1_555 1_555
H19_3 C28_3 1_555 1_555
H22_4 C32_4 1_555 1_555
C35_3 C13_4 1_555 1_555
H25_3 C35_3 1_555 1_555
C41_3 C16_4 1_555 1_555
H31_3 C41_3 1_555 1_555
C19_4 C22_4 1_555 1_555
C28_3 C35_3 1_555 1_555
N10_2 C26_3 1_555 1_555
C14_3 C17_3 1_555 1_555
C17_3 C33_3 1_555 1_555
C26_3 H17_3 1_555 1_555
C33_3 C26_3 1_555 1_555
H23_3 C33_3 1_555 1_555
C36_3 C14_3 1_555 1_555
H26_3 C36_3 1_555 1_555
C39_4 N10_2 1_555 1_555
H29_4 C39_4 1_555 1_555
C42_3 C17_3 1_555 1_555
H32_3 C42_3 1_555 1_555
C39_4 C42_3 1_555 1_555
Ag6_2 N4_2 1_555 1_555
N4_2 C19_5 1_555 1_555
C13_5 C16_5 1_555 1_555
C16_5 C32_5 1_555 1_555
C19_5 H10_5 1_555 1_555
C22_5 C13_5 1_555 1_555
H13_5 C22_5 1_555 1_555
C28_4 N4_2 1_555 1_555
H19_4 C28_4 1_555 1_555
H22_5 C32_5 1_555 1_555
C35_4 C13_5 1_555 1_555
H25_4 C35_4 1_555 1_555
C41_4 C16_5 1_555 1_555
H31_4 C41_4 1_555 1_555
C19_5 C22_5 1_555 1_555
C28_4 C35_4 1_555 1_555
Ag6_2 N9_2 1_555 1_555
N9_2 C26_4 1_555 1_555
C14_4 C17_4 1_555 1_555
C17_4 C33_4 1_555 1_555
C26_4 H17_4 1_555 1_555
C33_4 C26_4 1_555 1_555
H23_4 C33_4 1_555 1_555
C36_4 C14_4 1_555 1_555
H26_4 C36_4 1_555 1_555
C39_5 N9_2 1_555 1_555
H29_5 C39_5 1_555 1_555
C42_4 C17_4 1_555 1_555
H32_4 C42_4 1_555 1_555
C39_5 C42_4 1_555 1_555
Ag5_2 N1_4 1_555 1_555
N1_4 C3_4 1_555 1_555
C3_4 H1_4 1_555 1_555
C6_4 N1_4 1_555 1_555
H4_4 C6_4 1_555 1_555
N3_4 C18_3 1_555 1_555
N7_4 Ag5_2 1_555 1_555
C12_3 C15_3 1_555 1_555
C15_3 C31_3 1_555 1_555
C18_3 H9_3 1_555 1_555
C21_3 C12_3 1_555 1_555
H12_3 C21_3 1_555 1_555
C24_4 N7_4 1_555 1_555
H15_4 C24_4 1_555 1_555
C27_4 N3_4 1_555 1_555
H18_4 C27_4 1_555 1_555
C31_3 C24_4 1_555 1_555
H21_3 C31_3 1_555 1_555
C34_4 C12_3 1_555 1_555
H24_4 C34_4 1_555 1_555
C37_5 N7_4 1_555 1_555
H27_5 C37_5 1_555 1_555
C40_4 C15_3 1_555 1_555
H30_4 C40_4 1_555 1_555
C3_4 C4_4 1_555 1_555
C18_3 C21_3 1_555 1_555
C27_4 C34_4 1_555 1_555
C37_5 C40_4 1_555 1_555
N8_5 Ag2_5 1_555 1_555
O5_5 Ag2_5 1_555 1_555
C25_5 N8_5 1_555 1_555
H16_5 C25_5 1_555 1_555
C38_3 N8_5 1_555 1_555
H28_3 C38_3 1_555 1_555
Ag2_6 N3_5 1_555 1_555
N3_5 C18_4 1_555 1_555
N8_6 Ag2_6 1_555 1_555
C12_4 C15_4 1_555 1_555
C15_4 C31_4 1_555 1_555
O5_6 Ag2_6 1_555 1_555
C18_4 H9_4 1_555 1_555
C21_4 C12_4 1_555 1_555
H12_4 C21_4 1_555 1_555
C25_6 N8_6 1_555 1_555
H16_6 C25_6 1_555 1_555
C27_5 N3_5 1_555 1_555
H18_5 C27_5 1_555 1_555
H21_4 C31_4 1_555 1_555
C34_5 C12_4 1_555 1_555
H24_5 C34_5 1_555 1_555
C38_4 N8_6 1_555 1_555
H28_4 C38_4 1_555 1_555
C40_5 C15_4 1_555 1_555
H30_5 C40_5 1_555 1_555
C18_4 C21_4 1_555 1_555
C27_5 C34_5 1_555 1_555
O1_3 Ag1_3 1_555 1_555
C7_5 O1_3 1_555 1_555
Ag2_7 N3_6 1_555 1_555
Ag4_2 N6_3 1_555 1_555
Ag5_3 O3_3 1_555 1_555
Ag6_3 O4_3 1_555 1_555
N3_6 C18_5 1_555 1_555
N7_5 Ag1_3 1_555 1_555
N8_7 Ag2_7 1_555 1_555
N10_3 Ag4_2 1_555 1_555
C12_5 C15_5 1_555 1_555
C15_5 C31_5 1_555 1_555
O2_3 C7_5 1_555 1_555
O3_3 C30_5 1_555 1_555
O4_3 C30_5 1_555 1_555
O5_7 Ag2_7 1_555 1_555
C18_5 H9_5 1_555 1_555
C21_5 C12_5 1_555 1_555
H12_5 C21_5 1_555 1_555
C24_5 N7_5 1_555 1_555
C25_7 N8_7 1_555 1_555
H15_5 C24_5 1_555 1_555
H16_7 C25_7 1_555 1_555
C27_6 N3_6 1_555 1_555
H18_6 C27_6 1_555 1_555
C30_5 C7_5 1_555 1_555
C31_5 C24_5 1_555 1_555
H21_5 C31_5 1_555 1_555
C34_6 C12_5 1_555 1_555
H24_6 C34_6 1_555 1_555
C37_6 N7_5 1_555 1_555
C38_5 N8_7 1_555 1_555
H27_6 C37_6 1_555 1_555
H28_5 C38_5 1_555 1_555
C40_6 C15_5 1_555 1_555
H30_6 C40_6 1_555 1_555
Ag4_2 O2_3 1_555 1_555
C18_5 C21_5 1_555 1_555
C27_6 C34_6 1_555 1_555
C37_6 C40_6 1_555 1_555
N10_3 C26_5 1_555 1_555
C26_5 H17_5 1_555 1_555
C39_6 N10_3 1_555 1_555
H29_6 C39_6 1_555 1_555
N6_3 C19_6 1_555 1_555
N8_8 Ag2_8 1_555 1_555
C13_6 C16_6 1_555 1_555
C16_6 C32_6 1_555 1_555
O5_8 Ag2_8 1_555 1_555
C19_6 H10_6 1_555 1_555
C22_6 C13_6 1_555 1_555
H13_6 C22_6 1_555 1_555
C25_8 N8_8 1_555 1_555
H16_8 C25_8 1_555 1_555
C28_5 N6_3 1_555 1_555
H19_5 C28_5 1_555 1_555
C32_6 C25_8 1_555 1_555
H22_6 C32_6 1_555 1_555
C35_5 C13_6 1_555 1_555
H25_5 C35_5 1_555 1_555
C38_6 N8_8 1_555 1_555
H28_6 C38_6 1_555 1_555
C41_5 C16_6 1_555 1_555
H31_5 C41_5 1_555 1_555
C19_6 C22_6 1_555 1_555
C28_5 C35_5 1_555 1_555
C38_6 C41_5 1_555 1_555
Ag6_3 N9_3 1_555 1_555
N9_3 C26_6 1_555 1_555
C26_6 H17_6 1_555 1_555
Ag6_3 N4_3 1_555 1_555
C28_6 N4_3 1_555 1_555
H19_6 C28_6 1_555 1_555
H25_6 C35_6 1_555 1_555
H28_7 C38_7 1_555 1_555
H31_6 C41_6 1_555 1_555
C28_6 C35_6 1_555 1_555
C38_7 C41_6 1_555 1_555
N7_6 Ag5_3 1_555 1_555
C12_6 C15_6 1_555 1_555
C15_6 C31_6 1_555 1_555
C18_6 H9_6 1_555 1_555
C21_6 C12_6 1_555 1_555
H12_6 C21_6 1_555 1_555
C24_6 N7_6 1_555 1_555
H15_6 C24_6 1_555 1_555
C31_6 C24_6 1_555 1_555
H21_6 C31_6 1_555 1_555
H28_8 C38_8 1_555 1_555
C18_6 C21_6 1_555 1_555
C7_6 O5_5 1_555 1_555
O5_6 C7_6 1_555 1_555
O5_8 C30_6 1_555 1_555
O5_7 C30_6 1_555 1_555
C30_6 C7_6 1_555 1_555
Ag7 N4_4 1_555 1_555
N4_4 C19_7 1_555 1_555
C13_7 C16_7 1_555 1_555
C16_7 C32_7 1_555 1_555
C19_7 H10_7 1_555 1_555
C22_7 C13_7 1_555 1_555
H13_7 C22_7 1_555 1_555
C28_7 N4_4 1_555 1_555
H19_7 C28_7 1_555 1_555
H22_7 C32_7 1_555 1_555
C35_7 C13_7 1_555 1_555
H25_7 C35_7 1_555 1_555
C41_7 C16_7 1_555 1_555
H31_7 C41_7 1_555 1_555
C19_7 C22_7 1_555 1_555
C28_7 C35_7 1_555 1_555
Ag7 N9_4 1_555 1_555
N9_4 C26_7 1_555 1_555
C14_5 C17_5 1_555 1_555
C17_5 C33_5 1_555 1_555
C26_7 H17_7 1_555 1_555
C33_5 C26_7 1_555 1_555
H23_5 C33_5 1_555 1_555
C36_5 C14_5 1_555 1_555
H26_5 C36_5 1_555 1_555
C39_7 N9_4 1_555 1_555
H29_7 C39_7 1_555 1_555
C42_5 C17_5 1_555 1_555
H32_5 C42_5 1_555 1_555
C39_7 C42_5 1_555 1_555
Ag1_4 N1_5 1_555 1_555
N1_5 C3_5 1_555 1_555
O1_4 Ag1_4 1_555 1_555
C3_5 H1_5 1_555 1_555
C6_5 N1_5 1_555 1_555
H4_5 C6_5 1_555 1_555
C7_7 O1_4 1_555 1_555
Ag5_4 O3_4 1_555 1_555
Ag6_4 O4_4 1_555 1_555
N7_7 Ag1_4 1_555 1_555
O2_4 C7_7 1_555 1_555
O3_4 C30_7 1_555 1_555
O4_4 C30_7 1_555 1_555
C24_7 N7_7 1_555 1_555
H15_7 C24_7 1_555 1_555
C30_7 C7_7 1_555 1_555
C37_7 N7_7 1_555 1_555
H27_7 C37_7 1_555 1_555
C3_5 C4_5 1_555 1_555
Ag7 O2_4 1_555 1_555
Ag5_4 N1_6 1_555 1_555
C6_6 N1_6 1_555 1_555
H4_6 C6_6 1_555 1_555
Ag6_4 N6_4 1_555 1_555
N7_8 Ag5_4 1_555 1_555
N10_4 Ag6_4 1_555 1_555
C12_7 C15_7 1_555 1_555
C15_7 C31_7 1_555 1_555
C18_7 H9_7 1_555 1_555
C21_7 C12_7 1_555 1_555
H12_7 C21_7 1_555 1_555
C24_8 N7_8 1_555 1_555
H15_8 C24_8 1_555 1_555
C31_7 C24_8 1_555 1_555
H21_7 C31_7 1_555 1_555
C18_7 C21_7 1_555 1_555
C28_8 N6_4 1_555 1_555
H19_8 C28_8 1_555 1_555
H25_8 C35_8 1_555 1_555
H31_8 C41_8 1_555 1_555
C28_8 C35_8 1_555 1_555
N10_4 C26_8 1_555 1_555
C26_8 H17_8 1_555 1_555
N3_7 C18_8 1_555 1_555
C12_8 C15_8 1_555 1_555
C15_8 C31_8 1_555 1_555
C18_8 H9_8 1_555 1_555
C21_8 C12_8 1_555 1_555
H12_8 C21_8 1_555 1_555
C27_7 N3_7 1_555 1_555
H18_7 C27_7 1_555 1_555
H21_8 C31_8 1_555 1_555
C34_7 C12_8 1_555 1_555
H24_7 C34_7 1_555 1_555
C40_7 C15_8 1_555 1_555
H30_7 C40_7 1_555 1_555
C18_8 C21_8 1_555 1_555
C27_7 C34_7 1_555 1_555
H6_5 C9_5 1_555 1_555
H8_5 C11_5 1_555 1_555
C1_5 C2_5 1_555 1_555
C2_5 C8_5 1_555 1_555
H5_5 C8_5 1_555 1_555
H7_5 C10_5 1_555 1_555
C14_6 C17_6 1_555 1_555
C17_6 C33_6 1_555 1_555
H11_5 C20_5 1_555 1_555
C23_5 C14_6 1_555 1_555
H14_6 C23_5 1_555 1_555
H23_6 C33_6 1_555 1_555
C20_5 C23_5 1_555 1_555
C6_7 N1_7 1_555 1_555
H4_7 C6_7 1_555 1_555
H6_6 C9_6 1_555 1_555
H7_6 C10_6 1_555 1_555
H8_6 C11_6 1_555 1_555
H11_6 C20_6 1_555 1_555
C6_7 C9_6 1_555 1_555
C10_6 C11_6 1_555 1_555
C20_6 C23_6 1_555 1_555
N2_5 C5_5 1_555 1_555
C5_5 H3_5 1_555 1_555
Ag3_5 N2_5 1_555 1_555
N5_5 Ag3_5 1_555 1_555
O6_5 Ag3_5 1_555 1_555
C29_5 N5_5 1_555 1_555
H20_5 C29_5 1_555 1_555
H26_6 C36_6 1_555 1_555
H32_6 C42_6 1_555 1_555
C29_5 C36_6 1_555 1_555
N2_6 C5_6 1_555 1_555
C1_6 C2_6 1_555 1_555
C2_6 C8_6 1_555 1_555
C3_6 H1_6 1_555 1_555
C4_6 C1_6 1_555 1_555
H2_6 C4_6 1_555 1_555
C5_6 H3_6 1_555 1_555
C8_6 C5_6 1_555 1_555
H5_6 C8_6 1_555 1_555
Ag3_6 N2_6 1_555 1_555
N5_6 Ag3_6 1_555 1_555
O6_6 Ag3_6 1_555 1_555
C29_6 N5_6 1_555 1_555
H20_6 C29_6 1_555 1_555
C3_6 C4_6 1_555 1_555
N2_7 C5_7 1_555 1_555
C5_7 H3_7 1_555 1_555
C10_7 N2_7 1_555 1_555
H7_7 C10_7 1_555 1_555
Ag3_7 N2_7 1_555 1_555
N5_7 Ag3_7 1_555 1_555
O6_7 Ag3_7 1_555 1_555
C20_7 N5_7 1_555 1_555
H11_7 C20_7 1_555 1_555
C29_7 N5_7 1_555 1_555
H20_7 C29_7 1_555 1_555
C20_7 C23_7 1_555 1_555
N2_8 C5_8 1_555 1_555
C1_7 C2_7 1_555 1_555
C2_7 C8_7 1_555 1_555
C5_8 H3_8 1_555 1_555
C8_7 C5_8 1_555 1_555
H5_7 C8_7 1_555 1_555
C9_7 C1_7 1_555 1_555
H6_7 C9_7 1_555 1_555
C10_8 N2_8 1_555 1_555
H7_8 C10_8 1_555 1_555
C11_7 C2_7 1_555 1_555
H8_7 C11_7 1_555 1_555
Ag3_8 N2_8 1_555 1_555
N5_8 Ag3_8 1_555 1_555
C14_7 C17_7 1_555 1_555
C17_7 C33_7 1_555 1_555
O6_8 Ag3_8 1_555 1_555
C20_8 N5_8 1_555 1_555
H11_8 C20_8 1_555 1_555
C23_8 C14_7 1_555 1_555
H14_7 C23_8 1_555 1_555
C29_8 N5_8 1_555 1_555
H20_8 C29_8 1_555 1_555
H23_7 C33_7 1_555 1_555
C36_7 C14_7 1_555 1_555
H26_7 C36_7 1_555 1_555
C42_7 C17_7 1_555 1_555
H32_7 C42_7 1_555 1_555
C10_8 C11_7 1_555 1_555
C20_8 C23_8 1_555 1_555
C29_8 C36_7 1_555 1_555
C7_8 O6_7 1_555 1_555
O6_8 C7_8 1_555 1_555
O6_6 C30_8 1_555 1_555
O6_5 C30_8 1_555 1_555
C30_8 C7_8 1_555 1_555
C3_7 H1_7 1_555 1_555
C27_8 N3_8 1_555 1_555
H18_8 C27_8 1_555 1_555
H24_8 C34_8 1_555 1_555
H27_8 C37_8 1_555 1_555
H30_8 C40_8 1_555 1_555
C3_7 C4_7 1_555 1_555
C27_8 C34_8 1_555 1_555
C37_8 C40_8 1_555 1_555
C13_8 C16_8 1_555 1_555
C16_8 C32_8 1_555 1_555
C19_8 H10_8 1_555 1_555
C22_8 C13_8 1_555 1_555
H13_8 C22_8 1_555 1_555
H22_8 C32_8 1_555 1_555
C19_8 C22_8 1_555 1_555
H29_8 C39_8 1_555 1_555
C14_8 C17_8 1_555 1_555
C17_8 C33_8 1_555 1_555
H23_8 C33_8 1_555 1_555
H26_8 C36_8 1_555 1_555
H32_8 C42_8 1_555 1_555
N1_8 C3_8 1_555 1_555
C1_8 C2_8 1_555 1_555
C2_8 C8_8 1_555 1_555
C3_8 H1_8 1_555 1_555
C4_8 C1_8 1_555 1_555
H2_8 C4_8 1_555 1_555
C6_8 N1_8 1_555 1_555
H4_8 C6_8 1_555 1_555
H5_8 C8_8 1_555 1_555
C9_8 C1_8 1_555 1_555
H6_8 C9_8 1_555 1_555
C11_8 C2_8 1_555 1_555
H8_8 C11_8 1_555 1_555
C3_8 C4_8 1_555 1_555
C6_8 C9_8 1_555 1_555

#END
