
###############################################################################
#
# This file contains modified crystal structure data generated from the
# MOF subset of the Cambridge Structural Database (CSD) v543 
# hosted by the Cambridge Crystallographic Data Centre (CCDC).
#
# This work is licensed under the Creative Commons
# Attribution-NonCommercial-ShareAlike 4.0 International License.
# To view a copy of this license, visit
# http://creativecommons.org/licenses/by-nc-sa/4.0/
# or send a letter to
# Creative Commons, PO Box 1866, Mountain View, CA 94042, USA.
#
# CIF created using the CSD Python API on 29 September 2022
# The structure has been converted into the P1 space group
# The structure has a 3D framework
# The original CSD entry YEFTOV is in the monoclinic crystal system
# The framework has been calculated to contain at least 10.0% void space
# The void calculation uses a probe of radius 1.32A, grid spacing 0.4
# The framework is charged, counterions have been retained in the structure
#
###############################################################################

data_YEFTOV
_chemical_formula_moiety         '(C56 H32 O38 S8 Tb6 4-)n'
_symmetry_cell_setting           triclinic
_symmetry_space_group_name_H-M   'P 1'
_symmetry_Int_Tables_number      1
_space_group_name_Hall           'P 1'
loop_
_symmetry_equiv_pos_site_id
_symmetry_equiv_pos_as_xyz
1 x,y,z
_cell_length_a                   14.116(2)
_cell_length_b                   13.381(2)
_cell_length_c                   9.9030(16)
_cell_angle_alpha                90
_cell_angle_beta                 98.375(2)
_cell_angle_gamma                90
_cell_volume                     1850.59
loop_
_atom_site_label
_atom_site_type_symbol
_atom_site_fract_x
_atom_site_fract_y
_atom_site_fract_z
Tb3 Tb -0.0000 0.568137(13) 0.2500
Tb5 Tb -0.0000 0.431863(13) 0.7500
Tb1 Tb 0.5000 0.068137(13) 0.2500
S1 S 0.48258(5) 0.28406(5) 0.01813(7)
O3 O 0.10353(14) 0.51752(16) 0.1023(2)
O6 O 0.52738(15) 0.21153(15) 0.1204(2)
C1 C 0.15680(19) 0.4677(2) 0.0355(3)
C2 C 0.2570(2) 0.4461(2) 0.1023(3)
C3 C 0.3143(2) 0.3778(2) 0.0450(3)
C4 C 0.40922(19) 0.3638(2) 0.1035(3)
C5 C 0.4484(2) 0.4172(2) 0.2202(3)
C6 C 0.3892(2) 0.4832(2) 0.2768(3)
H3 H 0.4136 0.5186 0.3550
C7 C 0.2947(2) 0.4976(2) 0.2192(3)
H4 H 0.2563 0.5420 0.2593
S2 S 0.51742(5) 0.28406(5) 0.48187(7)
O7 O 0.86801(15) 0.43832(15) 0.5855(2)
O8 O 0.89647(14) 0.51752(16) 0.3977(2)
O9 O 0.44593(16) 0.34708(17) 0.5289(2)
O10 O 0.58175(15) 0.23639(17) 0.5904(2)
O11 O 0.47262(15) 0.21153(15) 0.3796(2)
C8 C 0.84320(19) 0.4677(2) 0.4645(3)
C9 C 0.7430(2) 0.4461(2) 0.3977(3)
C10 C 0.6857(2) 0.3778(2) 0.4550(3)
H5 H 0.7108 0.3417 0.5322
C11 C 0.59078(19) 0.3638(2) 0.3965(3)
C12 C 0.5516(2) 0.4172(2) 0.2798(3)
C13 C 0.6108(2) 0.4832(2) 0.2232(3)
H6 H 0.5864 0.5186 0.1450
C14 C 0.7053(2) 0.4976(2) 0.2808(3)
H7 H 0.7437 0.5420 0.2407
Tb3_2 Tb 1.0000 0.568137(13) 0.2500
Tb5_2 Tb 1.0000 0.431863(13) 0.7500
O12 O 0.36801(15) 0.06168(15) 0.0855(2)
O13 O 0.63199(15) 0.06168(15) 0.4145(2)
O14 O 0.60353(14) 0.01752(16) 0.1023(2)
O15 O 0.39647(14) 0.01752(16) 0.3977(2)
O1 O 0.13199(15) 0.43832(15) 0.9145(2)
O4 O 0.55407(16) 0.34708(17) 0.9711(2)
O5 O 0.41825(15) 0.23639(17) 0.9096(2)
H2 H 0.2892 0.3417 0.9678
H6_2 H 0.0864 0.0186 0.1450
H7_2 H 0.2437 0.0420 0.2407
O2 O -0.0000 0.3927(2) 0.2500
O6_2 O 0.02738(15) 0.71153(15) 0.1204(2)
S2_2 S 0.01742(5) 0.78406(5) 0.48187(7)
O7_2 O 0.36801(15) 0.93832(15) 0.5855(2)
O10_2 O 0.08175(15) 0.73639(17) 0.5904(2)
C8_2 C 0.34320(19) 0.9677(2) 0.4645(3)
C9_2 C 0.2430(2) 0.9461(2) 0.3977(3)
C10_2 C 0.1857(2) 0.8778(2) 0.4550(3)
H5_2 H 0.2108 0.8417 0.5322
C11_2 C 0.09078(19) 0.8638(2) 0.3965(3)
C12_2 C 0.0516(2) 0.9172(2) 0.2798(3)
C13_2 C 0.1108(2) 0.9832(2) 0.2232(3)
C14_2 C 0.2053(2) 0.9976(2) 0.2808(3)
H8 H 0.0228 0.3628 0.1858
Tb5_3 Tb 0.5000 0.931863(13) 0.7500
O13_2 O 0.13199(15) 0.56168(15) 0.4145(2)
H3_2 H 0.9136 0.0186 0.3550
H4_2 H 0.7563 0.0420 0.2593
S1_2 S 0.98258(5) 0.78406(5) 0.01813(7)
O2_2 O 1.0000 0.3927(2) 0.2500
H1 H 0.9772 0.3628 0.3142
C1_2 C 0.65680(19) 0.9677(2) 0.0355(3)
C2_2 C 0.7570(2) 0.9461(2) 0.1023(3)
C3_2 C 0.8143(2) 0.8778(2) 0.0450(3)
C4_2 C 0.90922(19) 0.8638(2) 0.1035(3)
C5_2 C 0.9484(2) 0.9172(2) 0.2202(3)
C6_2 C 0.8892(2) 0.9832(2) 0.2768(3)
C7_2 C 0.7947(2) 0.9976(2) 0.2192(3)
O9_2 O 0.94593(16) 0.84708(17) 0.5289(2)
O11_2 O 0.97262(15) 0.71153(15) 0.3796(2)
O12_2 O 0.86801(15) 0.56168(15) 0.0855(2)
O1_2 O 0.63199(15) 0.93832(15) 0.9145(2)
O5_2 O 0.91825(15) 0.73639(17) 0.9096(2)
H2_2 H 0.7892 0.8417 0.9678
O4_2 O 0.44593(16) 0.65292(17) 0.0289(2)
O5_3 O 0.58175(15) 0.76361(17) 0.0904(2)
H2_3 H 0.7108 0.6583 0.0322
S1_3 S 0.51742(5) 0.71594(5) 0.98187(7)
O3_2 O 0.89647(14) 0.48248(16) 0.8977(2)
O6_3 O 0.47262(15) 0.78847(15) 0.8796(2)
C1_3 C 0.84320(19) 0.5323(2) 0.9645(3)
C2_3 C 0.7430(2) 0.5539(2) 0.8977(3)
C3_3 C 0.6857(2) 0.6222(2) 0.9550(3)
C4_3 C 0.59078(19) 0.6362(2) 0.8965(3)
C5_3 C 0.5516(2) 0.5828(2) 0.7798(3)
C6_3 C 0.6108(2) 0.5168(2) 0.7232(3)
H3_3 H 0.5864 0.4814 0.6450
C7_3 C 0.7053(2) 0.5024(2) 0.7808(3)
H4_3 H 0.7437 0.4580 0.7407
S2_3 S 0.48258(5) 0.71594(5) 0.51813(7)
O8_2 O 0.10353(14) 0.48248(16) 0.6023(2)
O9_3 O 0.55407(16) 0.65292(17) 0.4711(2)
O10_3 O 0.41825(15) 0.76361(17) 0.4096(2)
O11_3 O 0.52738(15) 0.78847(15) 0.6204(2)
C8_3 C 0.15680(19) 0.5323(2) 0.5355(3)
C9_3 C 0.2570(2) 0.5539(2) 0.6023(3)
C10_3 C 0.3143(2) 0.6222(2) 0.5450(3)
H5_3 H 0.2892 0.6583 0.4678
C11_3 C 0.40922(19) 0.6362(2) 0.6035(3)
C12_3 C 0.4484(2) 0.5828(2) 0.7202(3)
C13_3 C 0.3892(2) 0.5168(2) 0.7768(3)
H6_3 H 0.4136 0.4814 0.8550
C14_3 C 0.2947(2) 0.5024(2) 0.7192(3)
H7_3 H 0.2563 0.4580 0.7593
O14_2 O 0.39647(14) 0.98248(16) 0.8977(2)
O15_2 O 0.60353(14) 0.98248(16) 0.6023(2)
O5_4 O 0.08175(15) 0.26361(17) 0.0904(2)
H2_4 H 0.2108 0.1583 0.0322
S1_4 S 0.01742(5) 0.21594(5) 0.98187(7)
O2_3 O -0.0000 0.6073(2) 0.7500
H1_2 H 0.0228 0.6372 0.6858
C1_4 C 0.34320(19) 0.0323(2) 0.9645(3)
C2_4 C 0.2430(2) 0.0539(2) 0.8977(3)
C3_4 C 0.1857(2) 0.1222(2) 0.9550(3)
C4_4 C 0.09078(19) 0.1362(2) 0.8965(3)
C5_4 C 0.0516(2) 0.0828(2) 0.7798(3)
C6_4 C 0.1108(2) 0.0168(2) 0.7232(3)
C7_4 C 0.2053(2) 0.0024(2) 0.7808(3)
O9_4 O 0.05407(16) 0.15292(17) 0.4711(2)
O11_4 O 0.02738(15) 0.28847(15) 0.6204(2)
H3_4 H 0.0864 0.9814 0.6450
H4_4 H 0.2437 0.9580 0.7407
O2_4 O 1.0000 0.6073(2) 0.7500
O6_4 O 0.97262(15) 0.28847(15) 0.8796(2)
S2_4 S 0.98258(5) 0.21594(5) 0.51813(7)
O10_4 O 0.91825(15) 0.26361(17) 0.4096(2)
C8_4 C 0.65680(19) 0.0323(2) 0.5355(3)
C9_4 C 0.7570(2) 0.0539(2) 0.6023(3)
C10_4 C 0.8143(2) 0.1222(2) 0.5450(3)
H5_4 H 0.7892 0.1583 0.4678
C11_4 C 0.90922(19) 0.1362(2) 0.6035(3)
C12_4 C 0.9484(2) 0.0828(2) 0.7202(3)
C13_4 C 0.8892(2) 0.0168(2) 0.7768(3)
C14_4 C 0.7947(2) 0.0024(2) 0.7192(3)
H8_2 H 0.9772 0.6372 0.8142
H6_4 H 0.9136 0.9814 0.8550
H7_4 H 0.7563 0.9580 0.7593
O2_5 O 0.5000 0.8927(2) 0.2500
H1_3 H 0.4772 0.8628 0.3142
H8_3 H 0.5228 0.8628 0.1858
O4_3 O 0.05407(16) 0.84708(17) 0.9711(2)
O2_6 O 0.5000 0.1073(2) 0.7500
H1_4 H 0.5228 0.1372 0.6858
H8_4 H 0.4772 0.1372 0.8142
O4_4 O 0.94593(16) 0.15292(17) 0.0289(2)
loop_
_geom_bond_atom_site_label_1
_geom_bond_atom_site_label_2
_geom_bond_site_symmetry_1
_geom_bond_site_symmetry_2
O3 C1 1_555 1_555
O6 Tb1 1_555 1_555
C1 C2 1_555 1_555
C2 C3 1_555 1_555
C4 S1 1_555 1_555
C5 C4 1_555 1_555
C6 C5 1_555 1_555
H3 C6 1_555 1_555
C7 C2 1_555 1_555
H4 C7 1_555 1_555
S2 O9 1_555 1_555
O7 C8 1_555 1_555
O8 C8 1_555 1_555
O10 S2 1_555 1_555
O11 Tb1 1_555 1_555
C8 C9 1_555 1_555
C9 C10 1_555 1_555
C10 H5 1_555 1_555
C11 S2 1_555 1_555
C12 C5 1_555 1_555
C13 C12 1_555 1_555
H6 C13 1_555 1_555
C14 C9 1_555 1_555
H7 C14 1_555 1_555
Tb3 O3 1_555 1_555
Tb3_2 O8 1_555 1_555
Tb5_2 O7 1_555 1_555
O12 Tb1 1_555 1_555
O13 Tb1 1_555 1_555
O14 Tb1 1_555 1_555
O15 Tb1 1_555 1_555
S1 O6 1_555 1_555
C3 C4 1_555 1_555
C6 C7 1_555 1_555
S2 O11 1_555 1_555
C10 C11 1_555 1_555
C11 C12 1_555 1_555
C13 C14 1_555 1_555
Tb5 O1 1_555 1_555
Tb3 O2 1_555 1_555
O6_2 Tb3 1_555 1_555
O7_2 C8_2 1_555 1_555
O10_2 S2_2 1_555 1_555
C8_2 C9_2 1_555 1_555
C9_2 C10_2 1_555 1_555
C10_2 H5_2 1_555 1_555
C11_2 S2_2 1_555 1_555
C13_2 C12_2 1_555 1_555
C14_2 C9_2 1_555 1_555
H8 O2 1_555 1_555
Tb5_3 O7_2 1_555 1_555
O13_2 Tb3 1_555 1_555
C10_2 C11_2 1_555 1_555
C11_2 C12_2 1_555 1_555
C13_2 C14_2 1_555 1_555
Tb3_2 O2_2 1_555 1_555
O2_2 H1 1_555 1_555
C1_2 C2_2 1_555 1_555
C2_2 C3_2 1_555 1_555
C4_2 S1_2 1_555 1_555
C5_2 C4_2 1_555 1_555
C6_2 C5_2 1_555 1_555
C7_2 C2_2 1_555 1_555
O11_2 Tb3_2 1_555 1_555
O12_2 Tb3_2 1_555 1_555
C3_2 C4_2 1_555 1_555
C6_2 C7_2 1_555 1_555
Tb5_3 O1_2 1_555 1_555
O3_2 C1_3 1_555 1_555
O6_3 Tb5_3 1_555 1_555
C1_3 C2_3 1_555 1_555
C2_3 C3_3 1_555 1_555
C4_3 S1_3 1_555 1_555
C5_3 C4_3 1_555 1_555
C6_3 C5_3 1_555 1_555
H3_3 C6_3 1_555 1_555
C7_3 C2_3 1_555 1_555
H4_3 C7_3 1_555 1_555
S2_3 O9_3 1_555 1_555
O13_2 C8_3 1_555 1_555
O8_2 C8_3 1_555 1_555
O10_3 S2_3 1_555 1_555
O11_3 Tb5_3 1_555 1_555
C8_3 C9_3 1_555 1_555
C9_3 C10_3 1_555 1_555
C10_3 H5_3 1_555 1_555
C11_3 S2_3 1_555 1_555
C12_3 C5_3 1_555 1_555
C13_3 C12_3 1_555 1_555
H6_3 C13_3 1_555 1_555
C14_3 C9_3 1_555 1_555
H7_3 C14_3 1_555 1_555
Tb5_2 O3_2 1_555 1_555
Tb5 O8_2 1_555 1_555
O14_2 Tb5_3 1_555 1_555
O15_2 Tb5_3 1_555 1_555
S1_3 O6_3 1_555 1_555
C3_3 C4_3 1_555 1_555
C6_3 C7_3 1_555 1_555
S2_3 O11_3 1_555 1_555
C10_3 C11_3 1_555 1_555
C11_3 C12_3 1_555 1_555
C13_3 C14_3 1_555 1_555
Tb5 O2_3 1_555 1_555
O2_3 H1_2 1_555 1_555
C1_4 C2_4 1_555 1_555
C2_4 C3_4 1_555 1_555
C4_4 S1_4 1_555 1_555
C5_4 C4_4 1_555 1_555
C6_4 C5_4 1_555 1_555
C7_4 C2_4 1_555 1_555
O11_4 Tb5 1_555 1_555
C3_4 C4_4 1_555 1_555
C6_4 C7_4 1_555 1_555
Tb5_2 O2_4 1_555 1_555
O6_4 Tb5_2 1_555 1_555
O13 C8_4 1_555 1_555
O10_4 S2_4 1_555 1_555
C8_4 C9_4 1_555 1_555
C9_4 C10_4 1_555 1_555
C10_4 H5_4 1_555 1_555
C11_4 S2_4 1_555 1_555
C13_4 C12_4 1_555 1_555
C14_4 C9_4 1_555 1_555
H8_2 O2_4 1_555 1_555
C10_4 C11_4 1_555 1_555
C11_4 C12_4 1_555 1_555
C13_4 C14_4 1_555 1_555
O2_5 H1_3 1_555 1_555
H8_3 O2_5 1_555 1_555
O2_6 H1_4 1_555 1_555
H8_4 O2_6 1_555 1_555

#END
