
###############################################################################
#
# This file contains modified crystal structure data generated from the
# MOF subset of the Cambridge Structural Database (CSD) v543 
# hosted by the Cambridge Crystallographic Data Centre (CCDC).
#
# This work is licensed under the Creative Commons
# Attribution-NonCommercial-ShareAlike 4.0 International License.
# To view a copy of this license, visit
# http://creativecommons.org/licenses/by-nc-sa/4.0/
# or send a letter to
# Creative Commons, PO Box 1866, Mountain View, CA 94042, USA.
#
# CIF created using the CSD Python API on 29 September 2022
# The structure has been converted into the P1 space group
# The structure has a 3D framework
# The original CSD entry YEFTUB is in the monoclinic crystal system
# The framework has been calculated to contain at least 10.0% void space
# The void calculation uses a probe of radius 1.32A, grid spacing 0.4
# The framework is charged, counterions have been retained in the structure
#
###############################################################################

data_YEFTUB
_chemical_formula_moiety         '(C56 H32 Dy6 O38 S8 4-)n'
_symmetry_cell_setting           triclinic
_symmetry_space_group_name_H-M   'P 1'
_symmetry_Int_Tables_number      1
_space_group_name_Hall           'P 1'
loop_
_symmetry_equiv_pos_site_id
_symmetry_equiv_pos_as_xyz
1 x,y,z
_cell_length_a                   14.101(4)
_cell_length_b                   13.366(4)
_cell_length_c                   9.870(3)
_cell_angle_alpha                90
_cell_angle_beta                 98.431(3)
_cell_angle_gamma                90
_cell_volume                     1840.13
loop_
_atom_site_label
_atom_site_type_symbol
_atom_site_fract_x
_atom_site_fract_y
_atom_site_fract_z
Dy3 Dy -0.0000 0.567827(13) 0.2500
Dy5 Dy -0.0000 0.432173(13) 0.7500
Dy1 Dy 0.5000 0.067827(13) 0.2500
S1 S 0.48238(5) 0.28331(5) 0.01813(7)
O3 O 0.10320(14) 0.51765(16) 0.1024(2)
O6 O 0.52739(15) 0.21127(15) 0.1207(2)
C1 C 0.15627(19) 0.4679(2) 0.0355(3)
C2 C 0.2564(2) 0.4465(2) 0.1017(3)
C3 C 0.31430(19) 0.3776(2) 0.0452(3)
C4 C 0.40872(19) 0.3633(2) 0.1034(3)
C5 C 0.4484(2) 0.4173(2) 0.2203(3)
C6 C 0.3893(2) 0.4837(2) 0.2767(3)
H3 H 0.4137 0.5193 0.3550
C7 C 0.2950(2) 0.4980(2) 0.2191(3)
H4 H 0.2569 0.5426 0.2594
S2 S 0.51762(5) 0.28331(5) 0.48187(7)
O7 O 0.86836(14) 0.43845(15) 0.5859(2)
O8 O 0.89680(14) 0.51765(16) 0.3976(2)
O9 O 0.44578(15) 0.34620(17) 0.5289(2)
O10 O 0.58215(15) 0.23606(16) 0.5907(2)
O11 O 0.47261(15) 0.21127(15) 0.3793(2)
C8 C 0.84373(19) 0.4679(2) 0.4645(3)
C9 C 0.7436(2) 0.4465(2) 0.3983(3)
C10 C 0.68570(19) 0.3776(2) 0.4548(3)
H5 H 0.7109 0.3412 0.5321
C11 C 0.59128(19) 0.3633(2) 0.3966(3)
C12 C 0.5516(2) 0.4173(2) 0.2797(3)
C13 C 0.6107(2) 0.4837(2) 0.2233(3)
H6 H 0.5863 0.5193 0.1450
C14 C 0.7050(2) 0.4980(2) 0.2809(3)
H7 H 0.7431 0.5426 0.2406
Dy3_2 Dy 1.0000 0.567827(13) 0.2500
Dy5_2 Dy 1.0000 0.432173(13) 0.7500
O12 O 0.36836(14) 0.06155(15) 0.0859(2)
O13 O 0.63164(14) 0.06155(15) 0.4141(2)
O14 O 0.60320(14) 0.01765(16) 0.1024(2)
O15 O 0.39680(14) 0.01765(16) 0.3976(2)
O1 O 0.13164(14) 0.43845(15) 0.9141(2)
O4 O 0.55422(15) 0.34620(17) 0.9711(2)
O5 O 0.41785(15) 0.23606(16) 0.9093(2)
H2 H 0.2891 0.3412 0.9679
H6_2 H 0.0863 0.0193 0.1450
H7_2 H 0.2431 0.0426 0.2406
O2 O -0.0000 0.3938(2) 0.2500
O6_2 O 0.02739(15) 0.71127(15) 0.1207(2)
S2_2 S 0.01762(5) 0.78331(5) 0.48187(7)
O7_2 O 0.36836(14) 0.93845(15) 0.5859(2)
O10_2 O 0.08215(15) 0.73606(16) 0.5907(2)
C8_2 C 0.34373(19) 0.9679(2) 0.4645(3)
C9_2 C 0.2436(2) 0.9465(2) 0.3983(3)
C10_2 C 0.18570(19) 0.8776(2) 0.4548(3)
H5_2 H 0.2109 0.8412 0.5321
C11_2 C 0.09128(19) 0.8633(2) 0.3966(3)
C12_2 C 0.0516(2) 0.9173(2) 0.2797(3)
C13_2 C 0.1107(2) 0.9837(2) 0.2233(3)
C14_2 C 0.2050(2) 0.9980(2) 0.2809(3)
H8 H 0.0228 0.3639 0.1858
Dy5_3 Dy 0.5000 0.932173(13) 0.7500
O13_2 O 0.13164(14) 0.56155(15) 0.4141(2)
H3_2 H 0.9137 0.0193 0.3550
H4_2 H 0.7569 0.0426 0.2594
S1_2 S 0.98238(5) 0.78331(5) 0.01813(7)
O2_2 O 1.0000 0.3938(2) 0.2500
H1 H 0.9772 0.3639 0.3142
C1_2 C 0.65627(19) 0.9679(2) 0.0355(3)
C2_2 C 0.7564(2) 0.9465(2) 0.1017(3)
C3_2 C 0.81430(19) 0.8776(2) 0.0452(3)
C4_2 C 0.90872(19) 0.8633(2) 0.1034(3)
C5_2 C 0.9484(2) 0.9173(2) 0.2203(3)
C6_2 C 0.8893(2) 0.9837(2) 0.2767(3)
C7_2 C 0.7950(2) 0.9980(2) 0.2191(3)
O9_2 O 0.94578(15) 0.84620(17) 0.5289(2)
O11_2 O 0.97261(15) 0.71127(15) 0.3793(2)
O12_2 O 0.86836(14) 0.56155(15) 0.0859(2)
O1_2 O 0.63164(14) 0.93845(15) 0.9141(2)
O5_2 O 0.91785(15) 0.73606(16) 0.9093(2)
H2_2 H 0.7891 0.8412 0.9679
O4_2 O 0.44578(15) 0.65380(17) 0.0289(2)
O5_3 O 0.58215(15) 0.76394(16) 0.0907(2)
H2_3 H 0.7109 0.6588 0.0321
S1_3 S 0.51762(5) 0.71669(5) 0.98187(7)
O3_2 O 0.89680(14) 0.48235(16) 0.8976(2)
O6_3 O 0.47261(15) 0.78873(15) 0.8793(2)
C1_3 C 0.84373(19) 0.5321(2) 0.9645(3)
C2_3 C 0.7436(2) 0.5535(2) 0.8983(3)
C3_3 C 0.68570(19) 0.6224(2) 0.9548(3)
C4_3 C 0.59128(19) 0.6367(2) 0.8966(3)
C5_3 C 0.5516(2) 0.5827(2) 0.7797(3)
C6_3 C 0.6107(2) 0.5163(2) 0.7233(3)
H3_3 H 0.5863 0.4807 0.6450
C7_3 C 0.7050(2) 0.5020(2) 0.7809(3)
H4_3 H 0.7431 0.4574 0.7406
S2_3 S 0.48238(5) 0.71669(5) 0.51813(7)
O8_2 O 0.10320(14) 0.48235(16) 0.6024(2)
O9_3 O 0.55422(15) 0.65380(17) 0.4711(2)
O10_3 O 0.41785(15) 0.76394(16) 0.4093(2)
O11_3 O 0.52739(15) 0.78873(15) 0.6207(2)
C8_3 C 0.15627(19) 0.5321(2) 0.5355(3)
C9_3 C 0.2564(2) 0.5535(2) 0.6017(3)
C10_3 C 0.31430(19) 0.6224(2) 0.5452(3)
H5_3 H 0.2891 0.6588 0.4679
C11_3 C 0.40872(19) 0.6367(2) 0.6034(3)
C12_3 C 0.4484(2) 0.5827(2) 0.7203(3)
C13_3 C 0.3893(2) 0.5163(2) 0.7767(3)
H6_3 H 0.4137 0.4807 0.8550
C14_3 C 0.2950(2) 0.5020(2) 0.7191(3)
H7_3 H 0.2569 0.4574 0.7594
O14_2 O 0.39680(14) 0.98235(16) 0.8976(2)
O15_2 O 0.60320(14) 0.98235(16) 0.6024(2)
O5_4 O 0.08215(15) 0.26394(16) 0.0907(2)
H2_4 H 0.2109 0.1588 0.0321
S1_4 S 0.01762(5) 0.21669(5) 0.98187(7)
O2_3 O -0.0000 0.6062(2) 0.7500
H1_2 H 0.0228 0.6361 0.6858
C1_4 C 0.34373(19) 0.0321(2) 0.9645(3)
C2_4 C 0.2436(2) 0.0535(2) 0.8983(3)
C3_4 C 0.18570(19) 0.1224(2) 0.9548(3)
C4_4 C 0.09128(19) 0.1367(2) 0.8966(3)
C5_4 C 0.0516(2) 0.0827(2) 0.7797(3)
C6_4 C 0.1107(2) 0.0163(2) 0.7233(3)
C7_4 C 0.2050(2) 0.0020(2) 0.7809(3)
O9_4 O 0.05422(15) 0.15380(17) 0.4711(2)
O11_4 O 0.02739(15) 0.28873(15) 0.6207(2)
H3_4 H 0.0863 0.9807 0.6450
H4_4 H 0.2431 0.9574 0.7406
O2_4 O 1.0000 0.6062(2) 0.7500
O6_4 O 0.97261(15) 0.28873(15) 0.8793(2)
S2_4 S 0.98238(5) 0.21669(5) 0.51813(7)
O10_4 O 0.91785(15) 0.26394(16) 0.4093(2)
C8_4 C 0.65627(19) 0.0321(2) 0.5355(3)
C9_4 C 0.7564(2) 0.0535(2) 0.6017(3)
C10_4 C 0.81430(19) 0.1224(2) 0.5452(3)
H5_4 H 0.7891 0.1588 0.4679
C11_4 C 0.90872(19) 0.1367(2) 0.6034(3)
C12_4 C 0.9484(2) 0.0827(2) 0.7203(3)
C13_4 C 0.8893(2) 0.0163(2) 0.7767(3)
C14_4 C 0.7950(2) 0.0020(2) 0.7191(3)
H8_2 H 0.9772 0.6361 0.8142
H6_4 H 0.9137 0.9807 0.8550
H7_4 H 0.7569 0.9574 0.7594
O2_5 O 0.5000 0.8938(2) 0.2500
H1_3 H 0.4772 0.8639 0.3142
H8_3 H 0.5228 0.8639 0.1858
O4_3 O 0.05422(15) 0.84620(17) 0.9711(2)
O2_6 O 0.5000 0.1062(2) 0.7500
H1_4 H 0.5228 0.1361 0.6858
H8_4 H 0.4772 0.1361 0.8142
O4_4 O 0.94578(15) 0.15380(17) 0.0289(2)
loop_
_geom_bond_atom_site_label_1
_geom_bond_atom_site_label_2
_geom_bond_site_symmetry_1
_geom_bond_site_symmetry_2
O3 C1 1_555 1_555
O6 Dy1 1_555 1_555
C1 C2 1_555 1_555
C2 C3 1_555 1_555
C4 S1 1_555 1_555
C5 C4 1_555 1_555
C6 C5 1_555 1_555
H3 C6 1_555 1_555
C7 C2 1_555 1_555
H4 C7 1_555 1_555
S2 O9 1_555 1_555
O7 C8 1_555 1_555
O8 C8 1_555 1_555
O10 S2 1_555 1_555
O11 Dy1 1_555 1_555
C8 C9 1_555 1_555
C9 C10 1_555 1_555
C10 H5 1_555 1_555
C11 S2 1_555 1_555
C12 C5 1_555 1_555
C13 C12 1_555 1_555
H6 C13 1_555 1_555
C14 C9 1_555 1_555
H7 C14 1_555 1_555
Dy3 O3 1_555 1_555
Dy3_2 O8 1_555 1_555
Dy5_2 O7 1_555 1_555
O12 Dy1 1_555 1_555
O13 Dy1 1_555 1_555
O14 Dy1 1_555 1_555
O15 Dy1 1_555 1_555
S1 O6 1_555 1_555
C3 C4 1_555 1_555
C6 C7 1_555 1_555
S2 O11 1_555 1_555
C10 C11 1_555 1_555
C11 C12 1_555 1_555
C13 C14 1_555 1_555
Dy5 O1 1_555 1_555
Dy3 O2 1_555 1_555
O6_2 Dy3 1_555 1_555
O7_2 C8_2 1_555 1_555
O10_2 S2_2 1_555 1_555
C8_2 C9_2 1_555 1_555
C9_2 C10_2 1_555 1_555
C10_2 H5_2 1_555 1_555
C11_2 S2_2 1_555 1_555
C13_2 C12_2 1_555 1_555
C14_2 C9_2 1_555 1_555
H8 O2 1_555 1_555
Dy5_3 O7_2 1_555 1_555
O13_2 Dy3 1_555 1_555
C10_2 C11_2 1_555 1_555
C11_2 C12_2 1_555 1_555
C13_2 C14_2 1_555 1_555
Dy3_2 O2_2 1_555 1_555
O2_2 H1 1_555 1_555
C1_2 C2_2 1_555 1_555
C2_2 C3_2 1_555 1_555
C4_2 S1_2 1_555 1_555
C5_2 C4_2 1_555 1_555
C6_2 C5_2 1_555 1_555
C7_2 C2_2 1_555 1_555
O11_2 Dy3_2 1_555 1_555
O12_2 Dy3_2 1_555 1_555
C3_2 C4_2 1_555 1_555
C6_2 C7_2 1_555 1_555
Dy5_3 O1_2 1_555 1_555
O3_2 C1_3 1_555 1_555
O6_3 Dy5_3 1_555 1_555
C1_3 C2_3 1_555 1_555
C2_3 C3_3 1_555 1_555
C4_3 S1_3 1_555 1_555
C5_3 C4_3 1_555 1_555
C6_3 C5_3 1_555 1_555
H3_3 C6_3 1_555 1_555
C7_3 C2_3 1_555 1_555
H4_3 C7_3 1_555 1_555
S2_3 O9_3 1_555 1_555
O13_2 C8_3 1_555 1_555
O8_2 C8_3 1_555 1_555
O10_3 S2_3 1_555 1_555
O11_3 Dy5_3 1_555 1_555
C8_3 C9_3 1_555 1_555
C9_3 C10_3 1_555 1_555
C10_3 H5_3 1_555 1_555
C11_3 S2_3 1_555 1_555
C12_3 C5_3 1_555 1_555
C13_3 C12_3 1_555 1_555
H6_3 C13_3 1_555 1_555
C14_3 C9_3 1_555 1_555
H7_3 C14_3 1_555 1_555
Dy5_2 O3_2 1_555 1_555
Dy5 O8_2 1_555 1_555
O14_2 Dy5_3 1_555 1_555
O15_2 Dy5_3 1_555 1_555
S1_3 O6_3 1_555 1_555
C3_3 C4_3 1_555 1_555
C6_3 C7_3 1_555 1_555
S2_3 O11_3 1_555 1_555
C10_3 C11_3 1_555 1_555
C11_3 C12_3 1_555 1_555
C13_3 C14_3 1_555 1_555
Dy5 O2_3 1_555 1_555
O2_3 H1_2 1_555 1_555
C1_4 C2_4 1_555 1_555
C2_4 C3_4 1_555 1_555
C4_4 S1_4 1_555 1_555
C5_4 C4_4 1_555 1_555
C6_4 C5_4 1_555 1_555
C7_4 C2_4 1_555 1_555
O11_4 Dy5 1_555 1_555
C3_4 C4_4 1_555 1_555
C6_4 C7_4 1_555 1_555
Dy5_2 O2_4 1_555 1_555
O6_4 Dy5_2 1_555 1_555
O13 C8_4 1_555 1_555
O10_4 S2_4 1_555 1_555
C8_4 C9_4 1_555 1_555
C9_4 C10_4 1_555 1_555
C10_4 H5_4 1_555 1_555
C11_4 S2_4 1_555 1_555
C13_4 C12_4 1_555 1_555
C14_4 C9_4 1_555 1_555
H8_2 O2_4 1_555 1_555
C10_4 C11_4 1_555 1_555
C11_4 C12_4 1_555 1_555
C13_4 C14_4 1_555 1_555
O2_5 H1_3 1_555 1_555
H8_3 O2_5 1_555 1_555
O2_6 H1_4 1_555 1_555
H8_4 O2_6 1_555 1_555

#END
