
###############################################################################
#
# This file contains modified crystal structure data generated from the
# MOF subset of the Cambridge Structural Database (CSD) v543 
# hosted by the Cambridge Crystallographic Data Centre (CCDC).
#
# This work is licensed under the Creative Commons
# Attribution-NonCommercial-ShareAlike 4.0 International License.
# To view a copy of this license, visit
# http://creativecommons.org/licenses/by-nc-sa/4.0/
# or send a letter to
# Creative Commons, PO Box 1866, Mountain View, CA 94042, USA.
#
# CIF created using the CSD Python API on 29 September 2022
# The structure has been converted into the P1 space group
# The structure has a 3D framework
# The original CSD entry YEFTIP is in the monoclinic crystal system
# The framework has been calculated to contain at least 10.0% void space
# The void calculation uses a probe of radius 1.32A, grid spacing 0.4
# The framework is charged, counterions have been retained in the structure
#
###############################################################################

data_YEFTIP
_chemical_formula_moiety         '(C56 H32 Gd6 O38 S8 4-)n'
_symmetry_cell_setting           triclinic
_symmetry_space_group_name_H-M   'P 1'
_symmetry_Int_Tables_number      1
_space_group_name_Hall           'P 1'
loop_
_symmetry_equiv_pos_site_id
_symmetry_equiv_pos_as_xyz
1 x,y,z
_cell_length_a                   14.151(4)
_cell_length_b                   13.395(3)
_cell_length_c                   9.911(3)
_cell_angle_alpha                90
_cell_angle_beta                 98.331(3)
_cell_angle_gamma                90
_cell_volume                     1858.83
loop_
_atom_site_label
_atom_site_type_symbol
_atom_site_fract_x
_atom_site_fract_y
_atom_site_fract_z
Gd3 Gd -0.0000 0.568042(11) 0.2500
Gd5 Gd -0.0000 0.431958(11) 0.7500
Gd1 Gd 0.5000 0.068042(11) 0.2500
S1 S 0.48286(4) 0.28448(5) 0.01792(6)
O3 O 0.10447(12) 0.51723(14) 0.10239(18)
O6 O 0.52773(12) 0.21209(13) 0.11969(18)
C1 C 0.15747(17) 0.46762(18) 0.0359(2)
C2 C 0.25750(17) 0.44611(18) 0.1023(3)
C3 C 0.31508(17) 0.37806(18) 0.0455(2)
C4 C 0.40955(16) 0.36398(18) 0.1035(2)
C5 C 0.44847(17) 0.41720(18) 0.2202(3)
C6 C 0.38929(18) 0.4832(2) 0.2767(3)
H3 H 0.4136 0.5185 0.3549
C7 C 0.29537(18) 0.4975(2) 0.2196(3)
H4 H 0.2572 0.5418 0.2599
S2 S 0.51714(4) 0.28448(5) 0.48208(6)
O7 O 0.86671(13) 0.43807(13) 0.58485(19)
O8 O 0.89553(12) 0.51723(14) 0.39761(18)
O9 O 0.44584(13) 0.34743(14) 0.5292(2)
O10 O 0.58126(13) 0.23708(14) 0.59031(19)
O11 O 0.47227(12) 0.21209(13) 0.38031(18)
C8 C 0.84253(17) 0.46762(18) 0.4641(2)
C9 C 0.74250(17) 0.44611(18) 0.3977(3)
C10 C 0.68492(17) 0.37806(18) 0.4545(2)
H5 H 0.7099 0.3419 0.5316
C11 C 0.59045(16) 0.36398(18) 0.3965(2)
C12 C 0.55153(17) 0.41720(18) 0.2798(3)
C13 C 0.61071(18) 0.4832(2) 0.2233(3)
H6 H 0.5864 0.5185 0.1451
C14 C 0.70463(18) 0.4975(2) 0.2804(3)
H7 H 0.7428 0.5418 0.2401
Gd3_2 Gd 1.0000 0.568042(11) 0.2500
Gd5_2 Gd 1.0000 0.431958(11) 0.7500
O12 O 0.36671(13) 0.06193(13) 0.08485(19)
O13 O 0.63329(13) 0.06193(13) 0.41515(19)
O14 O 0.60447(12) 0.01723(14) 0.10239(18)
O15 O 0.39553(12) 0.01723(14) 0.39761(18)
O1 O 0.13329(13) 0.43807(13) 0.91515(19)
O4 O 0.55416(13) 0.34743(14) 0.9708(2)
O5 O 0.41874(13) 0.23708(14) 0.90969(19)
H2 H 0.2901 0.3419 0.9684
H6_2 H 0.0864 0.0185 0.1451
H7_2 H 0.2428 0.0418 0.2401
O2 O -0.0000 0.3924(2) 0.2500
O6_2 O 0.02773(12) 0.71209(13) 0.11969(18)
S2_2 S 0.01714(4) 0.78448(5) 0.48208(6)
O7_2 O 0.36671(13) 0.93807(13) 0.58485(19)
O10_2 O 0.08126(13) 0.73708(14) 0.59031(19)
C8_2 C 0.34253(17) 0.96762(18) 0.4641(2)
C9_2 C 0.24250(17) 0.94611(18) 0.3977(3)
C10_2 C 0.18492(17) 0.87806(18) 0.4545(2)
H5_2 H 0.2099 0.8419 0.5316
C11_2 C 0.09045(16) 0.86398(18) 0.3965(2)
C12_2 C 0.05153(17) 0.91720(18) 0.2798(3)
C13_2 C 0.11071(18) 0.9832(2) 0.2233(3)
C14_2 C 0.20463(18) 0.9975(2) 0.2804(3)
H8 H 0.0228 0.3625 0.1858
Gd5_3 Gd 0.5000 0.931958(11) 0.7500
O13_2 O 0.13329(13) 0.56193(13) 0.41515(19)
H3_2 H 0.9136 0.0185 0.3549
H4_2 H 0.7572 0.0418 0.2599
S1_2 S 0.98286(4) 0.78448(5) 0.01792(6)
O2_2 O 1.0000 0.3924(2) 0.2500
H1 H 0.9772 0.3625 0.3142
C1_2 C 0.65747(17) 0.96762(18) 0.0359(2)
C2_2 C 0.75750(17) 0.94611(18) 0.1023(3)
C3_2 C 0.81508(17) 0.87806(18) 0.0455(2)
C4_2 C 0.90955(16) 0.86398(18) 0.1035(2)
C5_2 C 0.94847(17) 0.91720(18) 0.2202(3)
C6_2 C 0.88929(18) 0.9832(2) 0.2767(3)
C7_2 C 0.79537(18) 0.9975(2) 0.2196(3)
O9_2 O 0.94584(13) 0.84743(14) 0.5292(2)
O11_2 O 0.97227(12) 0.71209(13) 0.38031(18)
O12_2 O 0.86671(13) 0.56193(13) 0.08485(19)
O1_2 O 0.63329(13) 0.93807(13) 0.91515(19)
O5_2 O 0.91874(13) 0.73708(14) 0.90969(19)
H2_2 H 0.7901 0.8419 0.9684
O4_2 O 0.44584(13) 0.65257(14) 0.0292(2)
O5_3 O 0.58126(13) 0.76292(14) 0.09031(19)
H2_3 H 0.7099 0.6581 0.0316
S1_3 S 0.51714(4) 0.71552(5) 0.98208(6)
O3_2 O 0.89553(12) 0.48277(14) 0.89761(18)
O6_3 O 0.47227(12) 0.78791(13) 0.88031(18)
C1_3 C 0.84253(17) 0.53238(18) 0.9641(2)
C2_3 C 0.74250(17) 0.55389(18) 0.8977(3)
C3_3 C 0.68492(17) 0.62194(18) 0.9545(2)
C4_3 C 0.59045(16) 0.63602(18) 0.8965(2)
C5_3 C 0.55153(17) 0.58280(18) 0.7798(3)
C6_3 C 0.61071(18) 0.5168(2) 0.7233(3)
H3_3 H 0.5864 0.4815 0.6451
C7_3 C 0.70463(18) 0.5025(2) 0.7804(3)
H4_3 H 0.7428 0.4582 0.7401
S2_3 S 0.48286(4) 0.71552(5) 0.51792(6)
O8_2 O 0.10447(12) 0.48277(14) 0.60239(18)
O9_3 O 0.55416(13) 0.65257(14) 0.4708(2)
O10_3 O 0.41874(13) 0.76292(14) 0.40969(19)
O11_3 O 0.52773(12) 0.78791(13) 0.61969(18)
C8_3 C 0.15747(17) 0.53238(18) 0.5359(2)
C9_3 C 0.25750(17) 0.55389(18) 0.6023(3)
C10_3 C 0.31508(17) 0.62194(18) 0.5455(2)
H5_3 H 0.2901 0.6581 0.4684
C11_3 C 0.40955(16) 0.63602(18) 0.6035(2)
C12_3 C 0.44847(17) 0.58280(18) 0.7202(3)
C13_3 C 0.38929(18) 0.5168(2) 0.7767(3)
H6_3 H 0.4136 0.4815 0.8549
C14_3 C 0.29537(18) 0.5025(2) 0.7196(3)
H7_3 H 0.2572 0.4582 0.7599
O14_2 O 0.39553(12) 0.98277(14) 0.89761(18)
O15_2 O 0.60447(12) 0.98277(14) 0.60239(18)
O5_4 O 0.08126(13) 0.26292(14) 0.09031(19)
H2_4 H 0.2099 0.1581 0.0316
S1_4 S 0.01714(4) 0.21552(5) 0.98208(6)
O2_3 O -0.0000 0.6076(2) 0.7500
H1_2 H 0.0228 0.6375 0.6858
C1_4 C 0.34253(17) 0.03238(18) 0.9641(2)
C2_4 C 0.24250(17) 0.05389(18) 0.8977(3)
C3_4 C 0.18492(17) 0.12194(18) 0.9545(2)
C4_4 C 0.09045(16) 0.13602(18) 0.8965(2)
C5_4 C 0.05153(17) 0.08280(18) 0.7798(3)
C6_4 C 0.11071(18) 0.0168(2) 0.7233(3)
C7_4 C 0.20463(18) 0.0025(2) 0.7804(3)
O9_4 O 0.05416(13) 0.15257(14) 0.4708(2)
O11_4 O 0.02773(12) 0.28791(13) 0.61969(18)
H3_4 H 0.0864 0.9815 0.6451
H4_4 H 0.2428 0.9582 0.7401
O2_4 O 1.0000 0.6076(2) 0.7500
O6_4 O 0.97227(12) 0.28791(13) 0.88031(18)
S2_4 S 0.98286(4) 0.21552(5) 0.51792(6)
O10_4 O 0.91874(13) 0.26292(14) 0.40969(19)
C8_4 C 0.65747(17) 0.03238(18) 0.5359(2)
C9_4 C 0.75750(17) 0.05389(18) 0.6023(3)
C10_4 C 0.81508(17) 0.12194(18) 0.5455(2)
H5_4 H 0.7901 0.1581 0.4684
C11_4 C 0.90955(16) 0.13602(18) 0.6035(2)
C12_4 C 0.94847(17) 0.08280(18) 0.7202(3)
C13_4 C 0.88929(18) 0.0168(2) 0.7767(3)
C14_4 C 0.79537(18) 0.0025(2) 0.7196(3)
H8_2 H 0.9772 0.6375 0.8142
H6_4 H 0.9136 0.9815 0.8549
H7_4 H 0.7572 0.9582 0.7599
O2_5 O 0.5000 0.8924(2) 0.2500
H1_3 H 0.4772 0.8625 0.3142
H8_3 H 0.5228 0.8625 0.1858
O4_3 O 0.05416(13) 0.84743(14) 0.9708(2)
O2_6 O 0.5000 0.1076(2) 0.7500
H1_4 H 0.5228 0.1375 0.6858
H8_4 H 0.4772 0.1375 0.8142
O4_4 O 0.94584(13) 0.15257(14) 0.0292(2)
loop_
_geom_bond_atom_site_label_1
_geom_bond_atom_site_label_2
_geom_bond_site_symmetry_1
_geom_bond_site_symmetry_2
O3 C1 1_555 1_555
O6 Gd1 1_555 1_555
C1 C2 1_555 1_555
C2 C3 1_555 1_555
C4 S1 1_555 1_555
C5 C4 1_555 1_555
C6 C5 1_555 1_555
H3 C6 1_555 1_555
C7 C2 1_555 1_555
H4 C7 1_555 1_555
S2 O9 1_555 1_555
O7 C8 1_555 1_555
O8 C8 1_555 1_555
O10 S2 1_555 1_555
O11 Gd1 1_555 1_555
C8 C9 1_555 1_555
C9 C10 1_555 1_555
C10 H5 1_555 1_555
C11 S2 1_555 1_555
C12 C5 1_555 1_555
C13 C12 1_555 1_555
H6 C13 1_555 1_555
C14 C9 1_555 1_555
H7 C14 1_555 1_555
Gd3 O3 1_555 1_555
Gd3_2 O8 1_555 1_555
Gd5_2 O7 1_555 1_555
O12 Gd1 1_555 1_555
O13 Gd1 1_555 1_555
O14 Gd1 1_555 1_555
O15 Gd1 1_555 1_555
S1 O6 1_555 1_555
C3 C4 1_555 1_555
C6 C7 1_555 1_555
S2 O11 1_555 1_555
C10 C11 1_555 1_555
C11 C12 1_555 1_555
C13 C14 1_555 1_555
Gd5 O1 1_555 1_555
Gd3 O2 1_555 1_555
O6_2 Gd3 1_555 1_555
O7_2 C8_2 1_555 1_555
O10_2 S2_2 1_555 1_555
C8_2 C9_2 1_555 1_555
C9_2 C10_2 1_555 1_555
C10_2 H5_2 1_555 1_555
C11_2 S2_2 1_555 1_555
C13_2 C12_2 1_555 1_555
C14_2 C9_2 1_555 1_555
H8 O2 1_555 1_555
Gd5_3 O7_2 1_555 1_555
O13_2 Gd3 1_555 1_555
C10_2 C11_2 1_555 1_555
C11_2 C12_2 1_555 1_555
C13_2 C14_2 1_555 1_555
Gd3_2 O2_2 1_555 1_555
O2_2 H1 1_555 1_555
C1_2 C2_2 1_555 1_555
C2_2 C3_2 1_555 1_555
C4_2 S1_2 1_555 1_555
C5_2 C4_2 1_555 1_555
C6_2 C5_2 1_555 1_555
C7_2 C2_2 1_555 1_555
O11_2 Gd3_2 1_555 1_555
O12_2 Gd3_2 1_555 1_555
C3_2 C4_2 1_555 1_555
C6_2 C7_2 1_555 1_555
Gd5_3 O1_2 1_555 1_555
O3_2 C1_3 1_555 1_555
O6_3 Gd5_3 1_555 1_555
C1_3 C2_3 1_555 1_555
C2_3 C3_3 1_555 1_555
C4_3 S1_3 1_555 1_555
C5_3 C4_3 1_555 1_555
C6_3 C5_3 1_555 1_555
H3_3 C6_3 1_555 1_555
C7_3 C2_3 1_555 1_555
H4_3 C7_3 1_555 1_555
S2_3 O9_3 1_555 1_555
O13_2 C8_3 1_555 1_555
O8_2 C8_3 1_555 1_555
O10_3 S2_3 1_555 1_555
O11_3 Gd5_3 1_555 1_555
C8_3 C9_3 1_555 1_555
C9_3 C10_3 1_555 1_555
C10_3 H5_3 1_555 1_555
C11_3 S2_3 1_555 1_555
C12_3 C5_3 1_555 1_555
C13_3 C12_3 1_555 1_555
H6_3 C13_3 1_555 1_555
C14_3 C9_3 1_555 1_555
H7_3 C14_3 1_555 1_555
Gd5_2 O3_2 1_555 1_555
Gd5 O8_2 1_555 1_555
O14_2 Gd5_3 1_555 1_555
O15_2 Gd5_3 1_555 1_555
S1_3 O6_3 1_555 1_555
C3_3 C4_3 1_555 1_555
C6_3 C7_3 1_555 1_555
S2_3 O11_3 1_555 1_555
C10_3 C11_3 1_555 1_555
C11_3 C12_3 1_555 1_555
C13_3 C14_3 1_555 1_555
Gd5 O2_3 1_555 1_555
O2_3 H1_2 1_555 1_555
C1_4 C2_4 1_555 1_555
C2_4 C3_4 1_555 1_555
C4_4 S1_4 1_555 1_555
C5_4 C4_4 1_555 1_555
C6_4 C5_4 1_555 1_555
C7_4 C2_4 1_555 1_555
O11_4 Gd5 1_555 1_555
C3_4 C4_4 1_555 1_555
C6_4 C7_4 1_555 1_555
Gd5_2 O2_4 1_555 1_555
O6_4 Gd5_2 1_555 1_555
O13 C8_4 1_555 1_555
O10_4 S2_4 1_555 1_555
C8_4 C9_4 1_555 1_555
C9_4 C10_4 1_555 1_555
C10_4 H5_4 1_555 1_555
C11_4 S2_4 1_555 1_555
C13_4 C12_4 1_555 1_555
C14_4 C9_4 1_555 1_555
H8_2 O2_4 1_555 1_555
C10_4 C11_4 1_555 1_555
C11_4 C12_4 1_555 1_555
C13_4 C14_4 1_555 1_555
O2_5 H1_3 1_555 1_555
H8_3 O2_5 1_555 1_555
O2_6 H1_4 1_555 1_555
H8_4 O2_6 1_555 1_555

#END
