
###############################################################################
#
# This file contains modified crystal structure data generated from the
# MOF subset of the Cambridge Structural Database (CSD) v543 
# hosted by the Cambridge Crystallographic Data Centre (CCDC).
#
# This work is licensed under the Creative Commons
# Attribution-NonCommercial-ShareAlike 4.0 International License.
# To view a copy of this license, visit
# http://creativecommons.org/licenses/by-nc-sa/4.0/
# or send a letter to
# Creative Commons, PO Box 1866, Mountain View, CA 94042, USA.
#
# CIF created using the CSD Python API on 29 September 2022
# The structure has been converted into the P1 space group
# The structure has a 3D framework
# The original CSD entry YEFTAH is in the monoclinic crystal system
# The framework has been calculated to contain at least 10.0% void space
# The void calculation uses a probe of radius 1.32A, grid spacing 0.4
# The framework is charged, counterions have been retained in the structure
#
###############################################################################

data_YEFTAH
_chemical_formula_moiety         '(C56 H32 Eu6 O38 S8 4-)n'
_symmetry_cell_setting           triclinic
_symmetry_space_group_name_H-M   'P 1'
_symmetry_Int_Tables_number      1
_space_group_name_Hall           'P 1'
loop_
_symmetry_equiv_pos_site_id
_symmetry_equiv_pos_as_xyz
1 x,y,z
_cell_length_a                   14.154(3)
_cell_length_b                   13.408(3)
_cell_length_c                   9.920(2)
_cell_angle_alpha                90
_cell_angle_beta                 98.367(3)
_cell_angle_gamma                90
_cell_volume                     1862.55
loop_
_atom_site_label
_atom_site_type_symbol
_atom_site_fract_x
_atom_site_fract_y
_atom_site_fract_z
Eu3 Eu 0.0000 0.568149(11) 0.2500
Eu5 Eu 0.0000 0.431851(11) 0.7500
Eu1 Eu 0.5000 0.068149(11) 0.2500
S1 S 0.48302(4) 0.28500(4) 0.01788(5)
O3 O 0.10493(11) 0.51688(13) 0.10179(17)
O6 O 0.52772(12) 0.21271(12) 0.11941(16)
C1 C 0.15781(16) 0.46708(17) 0.0359(2)
C2 C 0.25765(16) 0.44587(17) 0.1023(2)
C3 C 0.31542(16) 0.37823(17) 0.0454(2)
C4 C 0.40966(16) 0.36400(16) 0.1033(2)
C5 C 0.44833(16) 0.41700(17) 0.2201(2)
C6 C 0.38939(17) 0.48279(18) 0.2770(2)
H3 H 0.4136 0.5181 0.3551
C7 C 0.29530(16) 0.49674(18) 0.2196(2)
H4 H 0.2569 0.5406 0.2600
S2 S 0.51698(4) 0.28500(4) 0.48212(5)
O7 O 0.86635(12) 0.43790(12) 0.58482(17)
O8 O 0.89507(11) 0.51688(13) 0.39821(17)
O9 O 0.44585(12) 0.34813(14) 0.52904(18)
O10 O 0.58110(12) 0.23742(13) 0.59020(17)
O11 O 0.47228(12) 0.21271(12) 0.38059(16)
C8 C 0.84219(16) 0.46708(17) 0.4641(2)
C9 C 0.74235(16) 0.44587(17) 0.3977(2)
C10 C 0.68458(16) 0.37823(17) 0.4546(2)
H5 H 0.7094 0.3424 0.5320
C11 C 0.59034(16) 0.36400(16) 0.3967(2)
C12 C 0.55167(16) 0.41700(17) 0.2799(2)
C13 C 0.61061(17) 0.48279(18) 0.2230(2)
H6 H 0.5864 0.5181 0.1449
C14 C 0.70470(16) 0.49674(18) 0.2804(2)
H7 H 0.7431 0.5406 0.2400
Eu3_2 Eu 1.0000 0.568149(11) 0.2500
Eu5_2 Eu 1.0000 0.431851(11) 0.7500
O12 O 0.36635(12) 0.06210(12) 0.08482(17)
O13 O 0.63365(12) 0.06210(12) 0.41518(17)
O14 O 0.60493(11) 0.01688(13) 0.10179(17)
O15 O 0.39507(11) 0.01688(13) 0.39821(17)
O1 O 0.13365(12) 0.43790(12) 0.91518(17)
O4 O 0.55415(12) 0.34813(14) 0.97096(18)
O5 O 0.41890(12) 0.23742(13) 0.90980(17)
H2 H 0.2906 0.3424 0.9680
H6_2 H 0.0864 0.0181 0.1449
H7_2 H 0.2431 0.0406 0.2400
O2 O 0.0000 0.39131(19) 0.2500
O6_2 O 0.02772(12) 0.71271(12) 0.11941(16)
S2_2 S 0.01698(4) 0.78500(4) 0.48212(5)
O7_2 O 0.36635(12) 0.93790(12) 0.58482(17)
O10_2 O 0.08110(12) 0.73742(13) 0.59020(17)
C8_2 C 0.34219(16) 0.96708(17) 0.4641(2)
C9_2 C 0.24235(16) 0.94587(17) 0.3977(2)
C10_2 C 0.18458(16) 0.87823(17) 0.4546(2)
H5_2 H 0.2094 0.8424 0.5320
C11_2 C 0.09034(16) 0.86400(16) 0.3967(2)
C12_2 C 0.05167(16) 0.91700(17) 0.2799(2)
C13_2 C 0.11061(17) 0.98279(18) 0.2230(2)
C14_2 C 0.20470(16) 0.99674(18) 0.2804(2)
H8 H 0.0228 0.3614 0.1858
Eu5_3 Eu 0.5000 0.931851(11) 0.7500
O13_2 O 0.13365(12) 0.56210(12) 0.41518(17)
H3_2 H 0.9136 0.0181 0.3551
H4_2 H 0.7569 0.0406 0.2600
S1_2 S 0.98302(4) 0.78500(4) 0.01788(5)
O2_2 O 1.0000 0.39131(19) 0.2500
H1 H 0.9772 0.3614 0.3142
C1_2 C 0.65781(16) 0.96708(17) 0.0359(2)
C2_2 C 0.75765(16) 0.94587(17) 0.1023(2)
C3_2 C 0.81542(16) 0.87823(17) 0.0454(2)
C4_2 C 0.90966(16) 0.86400(16) 0.1033(2)
C5_2 C 0.94833(16) 0.91700(17) 0.2201(2)
C6_2 C 0.88939(17) 0.98279(18) 0.2770(2)
C7_2 C 0.79530(16) 0.99674(18) 0.2196(2)
O9_2 O 0.94585(12) 0.84813(14) 0.52904(18)
O11_2 O 0.97228(12) 0.71271(12) 0.38059(16)
O12_2 O 0.86635(12) 0.56210(12) 0.08482(17)
O1_2 O 0.63365(12) 0.93790(12) 0.91518(17)
O5_2 O 0.91890(12) 0.73742(13) 0.90980(17)
H2_2 H 0.7906 0.8424 0.9680
O4_2 O 0.44585(12) 0.65187(14) 0.02904(18)
O5_3 O 0.58110(12) 0.76258(13) 0.09020(17)
H2_3 H 0.7094 0.6576 0.0320
S1_3 S 0.51698(4) 0.71500(4) 0.98212(5)
O3_2 O 0.89507(11) 0.48312(13) 0.89821(17)
O6_3 O 0.47228(12) 0.78729(12) 0.88059(16)
C1_3 C 0.84219(16) 0.53292(17) 0.9641(2)
C2_3 C 0.74235(16) 0.55413(17) 0.8977(2)
C3_3 C 0.68458(16) 0.62177(17) 0.9546(2)
C4_3 C 0.59034(16) 0.63600(16) 0.8967(2)
C5_3 C 0.55167(16) 0.58300(17) 0.7799(2)
C6_3 C 0.61061(17) 0.51721(18) 0.7230(2)
H3_3 H 0.5864 0.4819 0.6449
C7_3 C 0.70470(16) 0.50326(18) 0.7804(2)
H4_3 H 0.7431 0.4594 0.7400
S2_3 S 0.48302(4) 0.71500(4) 0.51788(5)
O8_2 O 0.10493(11) 0.48312(13) 0.60179(17)
O9_3 O 0.55415(12) 0.65187(14) 0.47096(18)
O10_3 O 0.41890(12) 0.76258(13) 0.40980(17)
O11_3 O 0.52772(12) 0.78729(12) 0.61941(16)
C8_3 C 0.15781(16) 0.53292(17) 0.5359(2)
C9_3 C 0.25765(16) 0.55413(17) 0.6023(2)
C10_3 C 0.31542(16) 0.62177(17) 0.5454(2)
H5_3 H 0.2906 0.6576 0.4680
C11_3 C 0.40966(16) 0.63600(16) 0.6033(2)
C12_3 C 0.44833(16) 0.58300(17) 0.7201(2)
C13_3 C 0.38939(17) 0.51721(18) 0.7770(2)
H6_3 H 0.4136 0.4819 0.8551
C14_3 C 0.29530(16) 0.50326(18) 0.7196(2)
H7_3 H 0.2569 0.4594 0.7600
O14_2 O 0.39507(11) 0.98312(13) 0.89821(17)
O15_2 O 0.60493(11) 0.98312(13) 0.60179(17)
O5_4 O 0.08110(12) 0.26258(13) 0.09020(17)
H2_4 H 0.2094 0.1576 0.0320
S1_4 S 0.01698(4) 0.21500(4) 0.98212(5)
O2_3 O -0.0000 0.60869(19) 0.7500
H1_2 H 0.0228 0.6386 0.6858
C1_4 C 0.34219(16) 0.03292(17) 0.9641(2)
C2_4 C 0.24235(16) 0.05413(17) 0.8977(2)
C3_4 C 0.18458(16) 0.12177(17) 0.9546(2)
C4_4 C 0.09034(16) 0.13600(16) 0.8967(2)
C5_4 C 0.05167(16) 0.08300(17) 0.7799(2)
C6_4 C 0.11061(17) 0.01721(18) 0.7230(2)
C7_4 C 0.20470(16) 0.00326(18) 0.7804(2)
O9_4 O 0.05415(12) 0.15187(14) 0.47096(18)
O11_4 O 0.02772(12) 0.28729(12) 0.61941(16)
H3_4 H 0.0864 0.9819 0.6449
H4_4 H 0.2431 0.9594 0.7400
O2_4 O 1.0000 0.60869(19) 0.7500
O6_4 O 0.97228(12) 0.28729(12) 0.88059(16)
S2_4 S 0.98302(4) 0.21500(4) 0.51788(5)
O10_4 O 0.91890(12) 0.26258(13) 0.40980(17)
C8_4 C 0.65781(16) 0.03292(17) 0.5359(2)
C9_4 C 0.75765(16) 0.05413(17) 0.6023(2)
C10_4 C 0.81542(16) 0.12177(17) 0.5454(2)
H5_4 H 0.7906 0.1576 0.4680
C11_4 C 0.90966(16) 0.13600(16) 0.6033(2)
C12_4 C 0.94833(16) 0.08300(17) 0.7201(2)
C13_4 C 0.88939(17) 0.01721(18) 0.7770(2)
C14_4 C 0.79530(16) 0.00326(18) 0.7196(2)
H8_2 H 0.9772 0.6386 0.8142
H6_4 H 0.9136 0.9819 0.8551
H7_4 H 0.7569 0.9594 0.7600
O2_5 O 0.5000 0.89131(19) 0.2500
H1_3 H 0.4772 0.8614 0.3142
H8_3 H 0.5228 0.8614 0.1858
O4_3 O 0.05415(12) 0.84813(14) 0.97096(18)
O2_6 O 0.5000 0.10869(19) 0.7500
H1_4 H 0.5228 0.1386 0.6858
H8_4 H 0.4772 0.1386 0.8142
O4_4 O 0.94585(12) 0.15187(14) 0.02904(18)
loop_
_geom_bond_atom_site_label_1
_geom_bond_atom_site_label_2
_geom_bond_site_symmetry_1
_geom_bond_site_symmetry_2
O3 C1 1_555 1_555
O6 Eu1 1_555 1_555
C1 C2 1_555 1_555
C2 C3 1_555 1_555
C4 S1 1_555 1_555
C5 C4 1_555 1_555
C6 C5 1_555 1_555
H3 C6 1_555 1_555
C7 C2 1_555 1_555
H4 C7 1_555 1_555
S2 O9 1_555 1_555
O7 C8 1_555 1_555
O8 C8 1_555 1_555
O10 S2 1_555 1_555
O11 Eu1 1_555 1_555
C8 C9 1_555 1_555
C9 C10 1_555 1_555
C10 H5 1_555 1_555
C11 S2 1_555 1_555
C12 C5 1_555 1_555
C13 C12 1_555 1_555
H6 C13 1_555 1_555
C14 C9 1_555 1_555
H7 C14 1_555 1_555
Eu3 O3 1_555 1_555
Eu3_2 O8 1_555 1_555
Eu5_2 O7 1_555 1_555
O12 Eu1 1_555 1_555
O13 Eu1 1_555 1_555
O14 Eu1 1_555 1_555
O15 Eu1 1_555 1_555
S1 O6 1_555 1_555
C3 C4 1_555 1_555
C6 C7 1_555 1_555
S2 O11 1_555 1_555
C10 C11 1_555 1_555
C11 C12 1_555 1_555
C13 C14 1_555 1_555
Eu5 O1 1_555 1_555
Eu3 O2 1_555 1_555
O6_2 Eu3 1_555 1_555
O7_2 C8_2 1_555 1_555
O10_2 S2_2 1_555 1_555
C8_2 C9_2 1_555 1_555
C9_2 C10_2 1_555 1_555
C10_2 H5_2 1_555 1_555
C11_2 S2_2 1_555 1_555
C13_2 C12_2 1_555 1_555
C14_2 C9_2 1_555 1_555
H8 O2 1_555 1_555
Eu5_3 O7_2 1_555 1_555
O13_2 Eu3 1_555 1_555
C10_2 C11_2 1_555 1_555
C11_2 C12_2 1_555 1_555
C13_2 C14_2 1_555 1_555
Eu3_2 O2_2 1_555 1_555
O2_2 H1 1_555 1_555
C1_2 C2_2 1_555 1_555
C2_2 C3_2 1_555 1_555
C4_2 S1_2 1_555 1_555
C5_2 C4_2 1_555 1_555
C6_2 C5_2 1_555 1_555
C7_2 C2_2 1_555 1_555
O11_2 Eu3_2 1_555 1_555
O12_2 Eu3_2 1_555 1_555
C3_2 C4_2 1_555 1_555
C6_2 C7_2 1_555 1_555
Eu5_3 O1_2 1_555 1_555
O3_2 C1_3 1_555 1_555
O6_3 Eu5_3 1_555 1_555
C1_3 C2_3 1_555 1_555
C2_3 C3_3 1_555 1_555
C4_3 S1_3 1_555 1_555
C5_3 C4_3 1_555 1_555
C6_3 C5_3 1_555 1_555
H3_3 C6_3 1_555 1_555
C7_3 C2_3 1_555 1_555
H4_3 C7_3 1_555 1_555
S2_3 O9_3 1_555 1_555
O13_2 C8_3 1_555 1_555
O8_2 C8_3 1_555 1_555
O10_3 S2_3 1_555 1_555
O11_3 Eu5_3 1_555 1_555
C8_3 C9_3 1_555 1_555
C9_3 C10_3 1_555 1_555
C10_3 H5_3 1_555 1_555
C11_3 S2_3 1_555 1_555
C12_3 C5_3 1_555 1_555
C13_3 C12_3 1_555 1_555
H6_3 C13_3 1_555 1_555
C14_3 C9_3 1_555 1_555
H7_3 C14_3 1_555 1_555
Eu5_2 O3_2 1_555 1_555
Eu5 O8_2 1_555 1_555
O14_2 Eu5_3 1_555 1_555
O15_2 Eu5_3 1_555 1_555
S1_3 O6_3 1_555 1_555
C3_3 C4_3 1_555 1_555
C6_3 C7_3 1_555 1_555
S2_3 O11_3 1_555 1_555
C10_3 C11_3 1_555 1_555
C11_3 C12_3 1_555 1_555
C13_3 C14_3 1_555 1_555
Eu5 O2_3 1_555 1_555
O2_3 H1_2 1_555 1_555
C1_4 C2_4 1_555 1_555
C2_4 C3_4 1_555 1_555
C4_4 S1_4 1_555 1_555
C5_4 C4_4 1_555 1_555
C6_4 C5_4 1_555 1_555
C7_4 C2_4 1_555 1_555
O11_4 Eu5 1_555 1_555
C3_4 C4_4 1_555 1_555
C6_4 C7_4 1_555 1_555
Eu5_2 O2_4 1_555 1_555
O6_4 Eu5_2 1_555 1_555
O13 C8_4 1_555 1_555
O10_4 S2_4 1_555 1_555
C8_4 C9_4 1_555 1_555
C9_4 C10_4 1_555 1_555
C10_4 H5_4 1_555 1_555
C11_4 S2_4 1_555 1_555
C13_4 C12_4 1_555 1_555
C14_4 C9_4 1_555 1_555
H8_2 O2_4 1_555 1_555
C10_4 C11_4 1_555 1_555
C11_4 C12_4 1_555 1_555
C13_4 C14_4 1_555 1_555
O2_5 H1_3 1_555 1_555
H8_3 O2_5 1_555 1_555
O2_6 H1_4 1_555 1_555
H8_4 O2_6 1_555 1_555

#END
