
###############################################################################
#
# This file contains modified crystal structure data generated from the
# MOF subset of the Cambridge Structural Database (CSD) v543 
# hosted by the Cambridge Crystallographic Data Centre (CCDC).
#
# This work is licensed under the Creative Commons
# Attribution-NonCommercial-ShareAlike 4.0 International License.
# To view a copy of this license, visit
# http://creativecommons.org/licenses/by-nc-sa/4.0/
# or send a letter to
# Creative Commons, PO Box 1866, Mountain View, CA 94042, USA.
#
# CIF created using the CSD Python API on 29 September 2022
# The structure has been converted into the P1 space group
# The structure has a 3D framework
# The original CSD entry YEFZER is in the orthorhombic crystal system
# The framework has been calculated to contain at least 10.0% void space
# The void calculation uses a probe of radius 1.32A, grid spacing 0.4
#
###############################################################################

data_YEFZER
_chemical_formula_moiety         '(C192 H96 Co16 N24 Na12 O86)n'
_symmetry_cell_setting           triclinic
_symmetry_space_group_name_H-M   'P 1'
_symmetry_Int_Tables_number      1
_space_group_name_Hall           'P 1'
loop_
_symmetry_equiv_pos_site_id
_symmetry_equiv_pos_as_xyz
1 x,y,z
_cell_length_a                   9.85990(10)
_cell_length_b                   33.2486(4)
_cell_length_c                   17.9377(3)
_cell_angle_alpha                90
_cell_angle_beta                 90
_cell_angle_gamma                90
_cell_volume                     5880.48
loop_
_atom_site_label
_atom_site_type_symbol
_atom_site_fract_x
_atom_site_fract_y
_atom_site_fract_z
C1 C 0.2953(17) 0.0293(4) 0.3282(9)
H1 H 0.3521 0.0104 0.3500
C2 C 0.3590(16) 0.0663(4) 0.3066(9)
C3 C 0.2878(13) 0.0986(3) 0.2699(9)
C4 C 0.3632(14) 0.1340(4) 0.2529(9)
C20 C 0.5721(19) 0.1025(5) 0.2974(16)
H9 H 0.6649 0.1037 0.3066
C21 C 0.4969(17) 0.0692(5) 0.3159(14)
H10 H 0.5422 0.0472 0.3359
C22 C 0.5024(16) 0.1350(5) 0.2639(11)
H11 H 0.5511 0.1575 0.2489
C24 C 0.2969(16) 0.1714(4) 0.2222(8)
Co1 Co 0.02351(16) 0.14186(4) 0.27922(13)
Co2 Co 0.00894(17) 0.05386(4) 0.27953(14)
N1 N 0.1701(12) 0.0187(3) 0.3213(7)
O1 O 0.1612(11) 0.0953(3) 0.2551(6)
O3 O 0.067(3) 0.2500 0.0919(15)
O5 O 0.0591(19) 0.2500 0.3120(9)
O7 O 0.628(2) 0.2500 0.3078(14)
O9 O 0.3739(12) 0.1991(3) 0.1973(8)
O10 O 0.1697(10) 0.1753(3) 0.2232(6)
Na1 Na 0.1895(9) 0.2500 0.2018(5)
Na2 Na 0.5440(8) 0.2500 0.1791(5)
C42 C 0.023(2) 0.1713(4) 0.4446(9)
O19 O 0.0606(13) 0.1754(3) 0.3747(6)
O20 O 0.0559(15) 0.1985(3) 0.4899(7)
O26 O 0.3739(12) 0.3009(3) 0.1973(8)
O27 O 0.1697(10) 0.3247(3) 0.2232(6)
O29 O 0.7391(12) 0.2064(3) 0.1545(8)
O31 O 0.7391(12) 0.2936(3) 0.1545(8)
Na9 Na 0.8504(9) 0.2500 0.2511(5)
O32 O 0.558(2) 0.2500 0.0426(12)
Na13 Na 0.1944(10) 0.2500 0.5512(5)
C5 C 0.1690(17) 0.9699(4) 0.4132(8)
H2 H 0.2186 0.9892 0.4391
C6 C 0.1400(18) 0.9329(4) 0.4525(9)
C7 C 0.0701(18) 0.8998(4) 0.4247(8)
C8 C 0.1930(19) 0.9306(5) 0.5254(10)
H3 H 0.2424 0.9523 0.5438
C9 C 0.0479(18) 0.8652(4) 0.4693(9)
C11 C 0.174(2) 0.8974(4) 0.5703(9)
H4 H 0.2095 0.8964 0.6184
C23 C 0.1020(19) 0.8662(5) 0.5415(8)
H12 H 0.0876 0.8439 0.5719
N3 N 0.1330(13) 0.9793(3) 0.3450(7)
O2 O 0.0206(14) 0.9016(3) 0.3575(7)
C25 C 0.274(2) 0.8600(5) 0.0656(13)
H13 H 0.3137 0.8360 0.0506
C26 C 0.0953(18) 0.9700(4) 0.1241(10)
H14 H 0.1054 0.9898 0.0878
C27 C 0.160(2) 0.9322(4) 0.1083(9)
C28 C 0.1517(16) 0.8986(4) 0.1582(9)
C29 C 0.2089(15) 0.8616(4) 0.1341(9)
C30 C 0.1982(15) 0.8234(4) 0.1793(10)
C31 C 0.227(2) 0.9280(5) 0.0384(14)
H15 H 0.2316 0.9498 0.0060
C32 C 0.282(3) 0.8927(6) 0.0192(14)
N4 N 0.0246(12) 0.9802(3) 0.1821(7)
O14 O 0.0923(12) 0.9021(2) 0.2221(6)
O15 O 0.1234(12) 0.8212(3) 0.2381(7)
O16 O 0.2609(12) 0.7936(3) 0.1545(8)
Na8 Na 0.4560(8) 0.7500 0.1791(5)
Na10 Na 0.1496(9) 0.7500 0.2511(5)
Na11 Na 0.1944(10) 0.7500 0.0512(5)
H16 H 0.3264 0.8903 0.9737
C12 C 0.726(2) 0.1400(5) 0.0656(13)
H5 H 0.6863 0.1640 0.0506
C13 C 0.9047(18) 0.0300(4) 0.1241(10)
H6 H 0.8946 0.0102 0.0878
C14 C 0.840(2) 0.0678(4) 0.1083(9)
C15 C 0.8483(16) 0.1014(4) 0.1582(9)
C16 C 0.7911(15) 0.1384(4) 0.1341(9)
C17 C 0.8018(15) 0.1766(4) 0.1793(10)
C18 C 0.773(2) 0.0720(5) 0.0384(14)
H7 H 0.7684 0.0502 0.0060
C19 C 0.718(3) 0.1073(6) 0.0192(14)
N2 N 0.9754(12) 0.0198(3) 0.1821(7)
O4 O 0.9077(12) 0.0979(2) 0.2221(6)
O11 O 0.8766(12) 0.1788(3) 0.2381(7)
Na4 Na 0.8056(10) 0.2500 0.0512(5)
C37 C 0.8310(17) 0.0301(4) 0.4132(8)
H18 H 0.7814 0.0108 0.4391
C38 C 0.8600(18) 0.0671(4) 0.4525(9)
C39 C 0.9299(18) 0.1002(4) 0.4247(8)
C40 C 0.8070(19) 0.0694(5) 0.5254(10)
H19 H 0.7576 0.0477 0.5438
C41 C 0.9521(18) 0.1348(4) 0.4693(9)
C43 C 0.826(2) 0.1026(4) 0.5703(9)
H20 H 0.7905 0.1036 0.6184
C47 C 0.8980(19) 0.1338(5) 0.5415(8)
H24 H 0.9124 0.1561 0.5719
N6 N 0.8670(13) 0.0207(3) 0.3450(7)
O18 O 0.9794(14) 0.0984(3) 0.3575(7)
O28 O 0.8766(12) 0.3212(3) 0.2381(7)
H8 H 0.6736 0.1097 0.9737
O24 O 0.9441(15) 0.3015(3) 0.9899(7)
O25 O 0.9441(15) 0.1985(3) 0.9899(7)
C10 C 0.977(2) 0.8287(4) 0.4446(9)
O6 O 0.9394(13) 0.8246(3) 0.3747(6)
O8 O 0.9441(15) 0.8015(3) 0.4899(7)
C33 C 0.7047(17) 0.9707(4) 0.3282(9)
H17 H 0.6479 0.9896 0.3500
C34 C 0.6410(16) 0.9337(4) 0.3066(9)
C35 C 0.7122(13) 0.9014(3) 0.2699(9)
C36 C 0.6368(14) 0.8660(4) 0.2529(9)
C44 C 0.4279(19) 0.8975(5) 0.2974(16)
H21 H 0.3351 0.8963 0.3066
C45 C 0.5031(17) 0.9308(5) 0.3159(14)
H22 H 0.4578 0.9528 0.3359
C46 C 0.4976(16) 0.8650(5) 0.2639(11)
H23 H 0.4489 0.8425 0.2489
C48 C 0.7031(16) 0.8286(4) 0.2222(8)
Co3 Co 0.97649(16) 0.85814(4) 0.27922(13)
Co4 Co 0.99106(17) 0.94614(4) 0.27953(14)
N5 N 0.8299(12) 0.9813(3) 0.3213(7)
O17 O 0.8388(11) 0.9047(3) 0.2551(6)
O21 O 0.6261(12) 0.8009(3) 0.1973(8)
O22 O 0.8303(10) 0.8247(3) 0.2232(6)
Na5 Na 0.8105(9) 0.7500 0.2018(5)
Na12 Na 0.8056(10) 0.7500 0.5512(5)
O13 O 0.442(2) 0.7500 0.0426(12)
O23 O 0.372(2) 0.7500 0.3078(14)
O28_2 O 0.1234(12) 0.6788(3) 0.2381(7)
O30 O 0.2609(12) 0.7064(3) 0.1545(8)
O24_2 O 0.0559(15) 0.6985(3) 0.9899(7)
O25_2 O 0.0559(15) 0.8015(3) 0.9899(7)
O3_2 O 0.933(3) 0.7500 0.0919(15)
O5_2 O 0.9409(19) 0.7500 0.3120(9)
O26_2 O 0.6261(12) 0.6991(3) 0.1973(8)
O27_2 O 0.8303(10) 0.6753(3) 0.2232(6)
C10_2 C 0.023(2) 0.3287(4) 0.4446(9)
C12_2 C 0.274(2) 0.6400(5) 0.0656(13)
H5_2 H 0.3137 0.6640 0.0506
C13_2 C 0.0953(18) 0.5300(4) 0.1241(10)
H6_2 H 0.1054 0.5102 0.0878
C14_2 C 0.160(2) 0.5678(4) 0.1083(9)
C15_2 C 0.1517(16) 0.6014(4) 0.1582(9)
C16_2 C 0.2089(15) 0.6384(4) 0.1341(9)
C17_2 C 0.1982(15) 0.6766(4) 0.1793(10)
C18_2 C 0.227(2) 0.5720(5) 0.0384(14)
H7_2 H 0.2316 0.5502 0.0060
C19_2 C 0.282(3) 0.6073(6) 0.0192(14)
N2_2 N 0.0246(12) 0.5198(3) 0.1821(7)
O4_2 O 0.0923(12) 0.5979(2) 0.2221(6)
O6_2 O 0.0606(13) 0.3246(3) 0.3747(6)
O8_2 O 0.0559(15) 0.3015(3) 0.4899(7)
C33_2 C 0.2953(17) 0.4707(4) 0.3282(9)
H17_2 H 0.3521 0.4896 0.3500
C34_2 C 0.3590(16) 0.4337(4) 0.3066(9)
C35_2 C 0.2878(13) 0.4014(3) 0.2699(9)
C36_2 C 0.3632(14) 0.3660(4) 0.2529(9)
C37_2 C 0.1690(17) 0.5301(4) 0.4132(8)
H18_2 H 0.2186 0.5108 0.4391
C38_2 C 0.1400(18) 0.5671(4) 0.4525(9)
C39_2 C 0.0701(18) 0.6002(4) 0.4247(8)
C40_2 C 0.1930(19) 0.5694(5) 0.5254(10)
H19_2 H 0.2424 0.5477 0.5438
C41_2 C 0.0479(18) 0.6348(4) 0.4693(9)
C43_2 C 0.174(2) 0.6026(4) 0.5703(9)
H20_2 H 0.2095 0.6036 0.6184
C44_2 C 0.5721(19) 0.3975(5) 0.2974(16)
H21_2 H 0.6649 0.3963 0.3066
C45_2 C 0.4969(17) 0.4308(5) 0.3159(14)
H22_2 H 0.5422 0.4528 0.3359
C46_2 C 0.5024(16) 0.3650(5) 0.2639(11)
H23_2 H 0.5511 0.3425 0.2489
C47_2 C 0.1020(19) 0.6338(5) 0.5415(8)
H24_2 H 0.0876 0.6561 0.5719
C48_2 C 0.2969(16) 0.3286(4) 0.2222(8)
Co3_2 Co 0.02351(16) 0.35814(4) 0.27922(13)
Co4_2 Co 0.00894(17) 0.44614(4) 0.27953(14)
N5_2 N 0.1701(12) 0.4813(3) 0.3213(7)
N6_2 N 0.1330(13) 0.5207(3) 0.3450(7)
O17_2 O 0.1612(11) 0.4047(3) 0.2551(6)
O18_2 O 0.0206(14) 0.5984(3) 0.3575(7)
H8_2 H 0.3264 0.6097 0.9737
C1_2 C 0.7047(17) 0.5293(4) 0.3282(9)
H1_2 H 0.6479 0.5104 0.3500
C2_2 C 0.6410(16) 0.5663(4) 0.3066(9)
C3_2 C 0.7122(13) 0.5986(3) 0.2699(9)
C4_2 C 0.6368(14) 0.6340(4) 0.2529(9)
C5_2 C 0.8310(17) 0.4699(4) 0.4132(8)
H2_2 H 0.7814 0.4892 0.4391
C6_2 C 0.8600(18) 0.4329(4) 0.4525(9)
C7_2 C 0.9299(18) 0.3998(4) 0.4247(8)
C8_2 C 0.8070(19) 0.4306(5) 0.5254(10)
H3_2 H 0.7576 0.4523 0.5438
C9_2 C 0.9521(18) 0.3652(4) 0.4693(9)
C11_2 C 0.826(2) 0.3974(4) 0.5703(9)
H4_2 H 0.7905 0.3964 0.6184
C20_2 C 0.4279(19) 0.6025(5) 0.2974(16)
H9_2 H 0.3351 0.6037 0.3066
C21_2 C 0.5031(17) 0.5692(5) 0.3159(14)
H10_2 H 0.4578 0.5472 0.3359
C22_2 C 0.4976(16) 0.6350(5) 0.2639(11)
H11_2 H 0.4489 0.6575 0.2489
C23_2 C 0.8980(19) 0.3662(5) 0.5415(8)
H12_2 H 0.9124 0.3439 0.5719
C24_2 C 0.7031(16) 0.6714(4) 0.2222(8)
Co1_2 Co 0.97649(16) 0.64186(4) 0.27922(13)
Co2_2 Co 0.99106(17) 0.55386(4) 0.27953(14)
N1_2 N 0.8299(12) 0.5187(3) 0.3213(7)
N3_2 N 0.8670(13) 0.4793(3) 0.3450(7)
O1_2 O 0.8388(11) 0.5953(3) 0.2551(6)
O2_2 O 0.9794(14) 0.4016(3) 0.3575(7)
C25_2 C 0.726(2) 0.3600(5) 0.0656(13)
H13_2 H 0.6863 0.3360 0.0506
C26_2 C 0.9047(18) 0.4700(4) 0.1241(10)
H14_2 H 0.8946 0.4898 0.0878
C27_2 C 0.840(2) 0.4322(4) 0.1083(9)
C28_2 C 0.8483(16) 0.3986(4) 0.1582(9)
C29_2 C 0.7911(15) 0.3616(4) 0.1341(9)
C30_2 C 0.8018(15) 0.3234(4) 0.1793(10)
C31_2 C 0.773(2) 0.4280(5) 0.0384(14)
H15_2 H 0.7684 0.4498 0.0060
C32_2 C 0.718(3) 0.3927(6) 0.0192(14)
N4_2 N 0.9754(12) 0.4802(3) 0.1821(7)
O14_2 O 0.9077(12) 0.4021(2) 0.2221(6)
C42_2 C 0.977(2) 0.6713(4) 0.4446(9)
O19_2 O 0.9394(13) 0.6754(3) 0.3747(6)
O20_2 O 0.9441(15) 0.6985(3) 0.4899(7)
H16_2 H 0.6736 0.3903 0.9737
C8_3 C 0.1930(19) 0.4306(5) 0.0254(10)
H3_3 H 0.2424 0.4523 0.0438
C11_3 C 0.174(2) 0.3974(4) 0.0703(9)
H4_3 H 0.2095 0.3964 0.1184
C23_3 C 0.1020(19) 0.3662(5) 0.0415(8)
H12_3 H 0.0876 0.3439 0.0719
C1_3 C 0.2953(17) 0.5293(4) 0.8282(9)
H1_3 H 0.3521 0.5104 0.8500
C2_3 C 0.3590(16) 0.5663(4) 0.8066(9)
C3_3 C 0.2878(13) 0.5986(3) 0.7699(9)
C4_3 C 0.3632(14) 0.6340(4) 0.7529(9)
C5_3 C 0.1690(17) 0.4699(4) 0.9132(8)
H2_3 H 0.2186 0.4892 0.9391
C6_3 C 0.1400(18) 0.4329(4) 0.9525(9)
C7_3 C 0.0701(18) 0.3998(4) 0.9247(8)
C9_3 C 0.0479(18) 0.3652(4) 0.9693(9)
C20_3 C 0.5721(19) 0.6025(5) 0.7974(16)
H9_3 H 0.6649 0.6037 0.8066
C21_3 C 0.4969(17) 0.5692(5) 0.8159(14)
H10_3 H 0.5422 0.5472 0.8359
C22_3 C 0.5024(16) 0.6350(5) 0.7639(11)
H11_3 H 0.5511 0.6575 0.7489
C24_3 C 0.2969(16) 0.6714(4) 0.7222(8)
Co1_3 Co 0.02351(16) 0.64186(4) 0.77922(13)
Co2_3 Co 0.00894(17) 0.55386(4) 0.77953(14)
N1_3 N 0.1701(12) 0.5187(3) 0.8213(7)
N3_3 N 0.1330(13) 0.4793(3) 0.8450(7)
O1_3 O 0.1612(11) 0.5953(3) 0.7551(6)
O2_3 O 0.0206(14) 0.4016(3) 0.8575(7)
O3_3 O 0.067(3) 0.7500 0.5919(15)
O5_3 O 0.0591(19) 0.7500 0.8120(9)
O7_2 O 0.628(2) 0.7500 0.8078(14)
O9_2 O 0.3739(12) 0.6991(3) 0.6973(8)
O10_2 O 0.1697(10) 0.6753(3) 0.7232(6)
Na1_2 Na 0.1895(9) 0.7500 0.7018(5)
Na2_2 Na 0.5440(8) 0.7500 0.6791(5)
C25_3 C 0.274(2) 0.3600(5) 0.5656(13)
H13_3 H 0.3137 0.3360 0.5506
C26_3 C 0.0953(18) 0.4700(4) 0.6241(10)
H14_3 H 0.1054 0.4898 0.5878
C27_3 C 0.160(2) 0.4322(4) 0.6083(9)
C28_3 C 0.1517(16) 0.3986(4) 0.6582(9)
C29_3 C 0.2089(15) 0.3616(4) 0.6341(9)
C30_3 C 0.1982(15) 0.3234(4) 0.6793(10)
C31_3 C 0.227(2) 0.4280(5) 0.5384(14)
H15_3 H 0.2316 0.4498 0.5060
C32_3 C 0.282(3) 0.3927(6) 0.5192(14)
H16_3 H 0.3264 0.3903 0.4737
N4_3 N 0.0246(12) 0.4802(3) 0.6821(7)
O14_3 O 0.0923(12) 0.4021(2) 0.7221(6)
O15_2 O 0.1234(12) 0.3212(3) 0.7381(7)
O16_2 O 0.2609(12) 0.2936(3) 0.6545(8)
C42_3 C 0.023(2) 0.6713(4) 0.9446(9)
O19_3 O 0.0606(13) 0.6754(3) 0.8747(6)
O26_3 O 0.3739(12) 0.8009(3) 0.6973(8)
O27_3 O 0.1697(10) 0.8247(3) 0.7232(6)
O29_2 O 0.7391(12) 0.7064(3) 0.6545(8)
O31_2 O 0.7391(12) 0.7936(3) 0.6545(8)
Na8_2 Na 0.4560(8) 0.2500 0.6791(5)
Na9_2 Na 0.8504(9) 0.7500 0.7511(5)
Na10_2 Na 0.1496(9) 0.2500 0.7511(5)
O32_2 O 0.558(2) 0.7500 0.5426(12)
C40_3 C 0.8070(19) 0.5694(5) 0.0254(10)
H19_3 H 0.7576 0.5477 0.0438
C43_3 C 0.826(2) 0.6026(4) 0.0703(9)
H20_3 H 0.7905 0.6036 0.1184
C47_3 C 0.8980(19) 0.6338(5) 0.0415(8)
H24_3 H 0.9124 0.6561 0.0719
C10_3 C 0.977(2) 0.3287(4) 0.9446(9)
C12_3 C 0.726(2) 0.6400(5) 0.5656(13)
H5_3 H 0.6863 0.6640 0.5506
C13_3 C 0.9047(18) 0.5300(4) 0.6241(10)
H6_3 H 0.8946 0.5102 0.5878
C14_3 C 0.840(2) 0.5678(4) 0.6083(9)
C15_3 C 0.8483(16) 0.6014(4) 0.6582(9)
C16_3 C 0.7911(15) 0.6384(4) 0.6341(9)
C17_3 C 0.8018(15) 0.6766(4) 0.6793(10)
C18_3 C 0.773(2) 0.5720(5) 0.5384(14)
H7_3 H 0.7684 0.5502 0.5060
C19_3 C 0.718(3) 0.6073(6) 0.5192(14)
H8_3 H 0.6736 0.6097 0.4737
N2_3 N 0.9754(12) 0.5198(3) 0.6821(7)
O4_3 O 0.9077(12) 0.5979(2) 0.7221(6)
O6_3 O 0.9394(13) 0.3246(3) 0.8747(6)
O11_2 O 0.8766(12) 0.6788(3) 0.7381(7)
C33_3 C 0.7047(17) 0.4707(4) 0.8282(9)
H17_3 H 0.6479 0.4896 0.8500
C34_3 C 0.6410(16) 0.4337(4) 0.8066(9)
C35_3 C 0.7122(13) 0.4014(3) 0.7699(9)
C36_3 C 0.6368(14) 0.3660(4) 0.7529(9)
C37_3 C 0.8310(17) 0.5301(4) 0.9132(8)
H18_3 H 0.7814 0.5108 0.9391
C38_3 C 0.8600(18) 0.5671(4) 0.9525(9)
C39_3 C 0.9299(18) 0.6002(4) 0.9247(8)
C41_3 C 0.9521(18) 0.6348(4) 0.9693(9)
C44_3 C 0.4279(19) 0.3975(5) 0.7974(16)
H21_3 H 0.3351 0.3963 0.8066
C45_3 C 0.5031(17) 0.4308(5) 0.8159(14)
H22_3 H 0.4578 0.4528 0.8359
C46_3 C 0.4976(16) 0.3650(5) 0.7639(11)
H23_3 H 0.4489 0.3425 0.7489
C48_3 C 0.7031(16) 0.3286(4) 0.7222(8)
Co3_3 Co 0.97649(16) 0.35814(4) 0.77922(13)
Co4_3 Co 0.99106(17) 0.44614(4) 0.77953(14)
N5_3 N 0.8299(12) 0.4813(3) 0.8213(7)
N6_3 N 0.8670(13) 0.5207(3) 0.8450(7)
O17_3 O 0.8388(11) 0.4047(3) 0.7551(6)
O18_3 O 0.9794(14) 0.5984(3) 0.8575(7)
O21_2 O 0.6261(12) 0.3009(3) 0.6973(8)
O22_2 O 0.8303(10) 0.3247(3) 0.7232(6)
O28_3 O 0.8766(12) 0.8212(3) 0.7381(7)
Na5_2 Na 0.8105(9) 0.2500 0.7018(5)
O13_2 O 0.442(2) 0.2500 0.5426(12)
O23_2 O 0.372(2) 0.2500 0.8078(14)
O28_4 O 0.1234(12) 0.1788(3) 0.7381(7)
O30_2 O 0.2609(12) 0.2064(3) 0.6545(8)
O3_4 O 0.933(3) 0.2500 0.5919(15)
O5_4 O 0.9409(19) 0.2500 0.8120(9)
O26_4 O 0.6261(12) 0.1991(3) 0.6973(8)
O27_4 O 0.8303(10) 0.1753(3) 0.7232(6)
C12_4 C 0.274(2) 0.1400(5) 0.5656(13)
H5_4 H 0.3137 0.1640 0.5506
C13_4 C 0.0953(18) 0.0300(4) 0.6241(10)
H6_4 H 0.1054 0.0102 0.5878
C14_4 C 0.160(2) 0.0678(4) 0.6083(9)
C15_4 C 0.1517(16) 0.1014(4) 0.6582(9)
C16_4 C 0.2089(15) 0.1384(4) 0.6341(9)
C17_4 C 0.1982(15) 0.1766(4) 0.6793(10)
C18_4 C 0.227(2) 0.0720(5) 0.5384(14)
H7_4 H 0.2316 0.0502 0.5060
C19_4 C 0.282(3) 0.1073(6) 0.5192(14)
H8_4 H 0.3264 0.1097 0.4737
N2_4 N 0.0246(12) 0.0198(3) 0.6821(7)
O4_4 O 0.0923(12) 0.0979(2) 0.7221(6)
C37_4 C 0.1690(17) 0.0301(4) 0.9132(8)
H18_4 H 0.2186 0.0108 0.9391
C38_4 C 0.1400(18) 0.0671(4) 0.9525(9)
C39_4 C 0.0701(18) 0.1002(4) 0.9247(8)
C41_4 C 0.0479(18) 0.1348(4) 0.9693(9)
N6_4 N 0.1330(13) 0.0207(3) 0.8450(7)
O18_4 O 0.0206(14) 0.0984(3) 0.8575(7)
C10_4 C 0.023(2) 0.8287(4) 0.9446(9)
O6_4 O 0.0606(13) 0.8246(3) 0.8747(6)
C33_4 C 0.2953(17) 0.9707(4) 0.8282(9)
H17_4 H 0.3521 0.9896 0.8500
C34_4 C 0.3590(16) 0.9337(4) 0.8066(9)
C35_4 C 0.2878(13) 0.9014(3) 0.7699(9)
C36_4 C 0.3632(14) 0.8660(4) 0.7529(9)
C44_4 C 0.5721(19) 0.8975(5) 0.7974(16)
H21_4 H 0.6649 0.8963 0.8066
C45_4 C 0.4969(17) 0.9308(5) 0.8159(14)
H22_4 H 0.5422 0.9528 0.8359
C46_4 C 0.5024(16) 0.8650(5) 0.7639(11)
H23_4 H 0.5511 0.8425 0.7489
C48_4 C 0.2969(16) 0.8286(4) 0.7222(8)
Co3_4 Co 0.02351(16) 0.85814(4) 0.77922(13)
Co4_4 Co 0.00894(17) 0.94614(4) 0.77953(14)
N5_4 N 0.1701(12) 0.9813(3) 0.8213(7)
O17_4 O 0.1612(11) 0.9047(3) 0.7551(6)
C1_4 C 0.7047(17) 0.0293(4) 0.8282(9)
H1_4 H 0.6479 0.0104 0.8500
C2_4 C 0.6410(16) 0.0663(4) 0.8066(9)
C3_4 C 0.7122(13) 0.0986(3) 0.7699(9)
C4_4 C 0.6368(14) 0.1340(4) 0.7529(9)
C20_4 C 0.4279(19) 0.1025(5) 0.7974(16)
H9_4 H 0.3351 0.1037 0.8066
C21_4 C 0.5031(17) 0.0692(5) 0.8159(14)
H10_4 H 0.4578 0.0472 0.8359
C22_4 C 0.4976(16) 0.1350(5) 0.7639(11)
H11_4 H 0.4489 0.1575 0.7489
C24_4 C 0.7031(16) 0.1714(4) 0.7222(8)
Co1_4 Co 0.97649(16) 0.14186(4) 0.77922(13)
Co2_4 Co 0.99106(17) 0.05386(4) 0.77953(14)
N1_4 N 0.8299(12) 0.0187(3) 0.8213(7)
O1_4 O 0.8388(11) 0.0953(3) 0.7551(6)
C42_4 C 0.977(2) 0.1713(4) 0.9446(9)
O19_4 O 0.9394(13) 0.1754(3) 0.8747(6)
C5_4 C 0.8310(17) 0.9699(4) 0.9132(8)
H2_4 H 0.7814 0.9892 0.9391
C6_4 C 0.8600(18) 0.9329(4) 0.9525(9)
C7_4 C 0.9299(18) 0.8998(4) 0.9247(8)
C9_4 C 0.9521(18) 0.8652(4) 0.9693(9)
N3_4 N 0.8670(13) 0.9793(3) 0.8450(7)
O2_4 O 0.9794(14) 0.9016(3) 0.8575(7)
C25_4 C 0.726(2) 0.8600(5) 0.5656(13)
H13_4 H 0.6863 0.8360 0.5506
C26_4 C 0.9047(18) 0.9700(4) 0.6241(10)
H14_4 H 0.8946 0.9898 0.5878
C27_4 C 0.840(2) 0.9322(4) 0.6083(9)
C28_4 C 0.8483(16) 0.8986(4) 0.6582(9)
C29_4 C 0.7911(15) 0.8616(4) 0.6341(9)
C30_4 C 0.8018(15) 0.8234(4) 0.6793(10)
C31_4 C 0.773(2) 0.9280(5) 0.5384(14)
H15_4 H 0.7684 0.9498 0.5060
C32_4 C 0.718(3) 0.8927(6) 0.5192(14)
H16_4 H 0.6736 0.8903 0.4737
N4_4 N 0.9754(12) 0.9802(3) 0.6821(7)
O14_4 O 0.9077(12) 0.9021(2) 0.7221(6)
C40_4 C 0.1930(19) 0.0694(5) 0.0254(10)
H19_4 H 0.2424 0.0477 0.0438
C43_4 C 0.174(2) 0.1026(4) 0.0703(9)
H20_4 H 0.2095 0.1036 0.1184
C47_4 C 0.1020(19) 0.1338(5) 0.0415(8)
H24_4 H 0.0876 0.1561 0.0719
C8_4 C 0.8070(19) 0.9306(5) 0.0254(10)
H3_4 H 0.7576 0.9523 0.0438
C11_4 C 0.826(2) 0.8974(4) 0.0703(9)
H4_4 H 0.7905 0.8964 0.1184
C23_4 C 0.8980(19) 0.8662(5) 0.0415(8)
H12_4 H 0.9124 0.8439 0.0719
loop_
_geom_bond_atom_site_label_1
_geom_bond_atom_site_label_2
_geom_bond_site_symmetry_1
_geom_bond_site_symmetry_2
C1 H1 1_555 1_555
C2 C1 1_555 1_555
C3 C2 1_555 1_555
C4 C3 1_555 1_555
C20 H9 1_555 1_555
C21 C2 1_555 1_555
H10 C21 1_555 1_555
C22 C4 1_555 1_555
H11 C22 1_555 1_555
C24 C4 1_555 1_555
Co1 O1 1_555 1_555
Co2 N1 1_555 1_555
N1 C1 1_555 1_555
O1 C3 1_555 1_555
O3 Na1 1_555 1_555
O5 Na1 1_555 1_555
O7 Na2 1_555 1_555
O9 C24 1_555 1_555
O10 C24 1_555 1_555
Na1 O9 1_555 1_555
Na2 O9 1_555 1_555
O19 Co1 1_555 1_555
O20 C42 1_555 1_555
O26 Na1 1_555 1_555
O27 Na1 1_555 1_555
O29 Na2 1_555 1_555
O31 Na2 1_555 1_555
Na9 O7 1_555 1_555
O32 Na2 1_555 1_555
Na13 O20 1_555 1_555
C20 C21 1_555 1_555
C20 C22 1_555 1_555
Co1 O10 1_555 1_555
Co2 O1 1_555 1_555
O10 Na1 1_555 1_555
Na2 O26 1_555 1_555
C42 O19 1_555 1_555
O29 Na9 1_555 1_555
O31 Na9 1_555 1_555
C5 H2 1_555 1_555
C6 C5 1_555 1_555
C7 C6 1_555 1_555
C8 C6 1_555 1_555
H3 C8 1_555 1_555
C9 C7 1_555 1_555
C11 C8 1_555 1_555
H4 C11 1_555 1_555
C23 C9 1_555 1_555
H12 C23 1_555 1_555
N3 C5 1_555 1_555
O2 C7 1_555 1_555
C25 H13 1_555 1_555
C26 H14 1_555 1_555
C27 C26 1_555 1_555
C28 C27 1_555 1_555
C29 C25 1_555 1_555
C30 C29 1_555 1_555
C31 C27 1_555 1_555
H15 C31 1_555 1_555
C32 C25 1_555 1_555
O14 C28 1_555 1_555
O15 C30 1_555 1_555
O16 C30 1_555 1_555
Na8 O16 1_555 1_555
Na10 O15 1_555 1_555
Na11 O16 1_555 1_555
C11 C23 1_555 1_555
C26 N4 1_555 1_555
C28 C29 1_555 1_555
C31 C32 1_555 1_555
O16 Na10 1_555 1_555
C12 H5 1_555 1_555
C13 H6 1_555 1_555
C14 C13 1_555 1_555
C15 C14 1_555 1_555
C16 C12 1_555 1_555
C17 C16 1_555 1_555
C18 C14 1_555 1_555
H7 C18 1_555 1_555
C19 C12 1_555 1_555
N2 C13 1_555 1_555
O4 C15 1_555 1_555
O11 C17 1_555 1_555
O29 C17 1_555 1_555
O32 Na4 1_555 1_555
C37 H18 1_555 1_555
C38 C37 1_555 1_555
C39 C38 1_555 1_555
C40 C38 1_555 1_555
H19 C40 1_555 1_555
C41 C39 1_555 1_555
C43 C40 1_555 1_555
H20 C43 1_555 1_555
C47 C41 1_555 1_555
H24 C47 1_555 1_555
O28 Na9 1_555 1_555
C15 C16 1_555 1_555
C18 C19 1_555 1_555
O11 Na9 1_555 1_555
O29 Na4 1_555 1_555
Na4 O31 1_555 1_555
C37 N6 1_555 1_555
C39 O18 1_555 1_555
C43 C47 1_555 1_555
O6 C10 1_555 1_555
O8 C10 1_555 1_555
C33 H17 1_555 1_555
C34 C33 1_555 1_555
C35 C34 1_555 1_555
C36 C35 1_555 1_555
C44 H21 1_555 1_555
C45 C34 1_555 1_555
H22 C45 1_555 1_555
C46 C36 1_555 1_555
H23 C46 1_555 1_555
C48 C36 1_555 1_555
N5 C33 1_555 1_555
O17 C35 1_555 1_555
O21 C48 1_555 1_555
O22 C48 1_555 1_555
Na5 O21 1_555 1_555
Na8 O21 1_555 1_555
Na12 O8 1_555 1_555
O6 Co3 1_555 1_555
C44 C45 1_555 1_555
C44 C46 1_555 1_555
Co3 O17 1_555 1_555
Co3 O22 1_555 1_555
Co4 N5 1_555 1_555
Co4 O17 1_555 1_555
O22 Na5 1_555 1_555
O13 Na11 1_555 1_555
O23 Na10 1_555 1_555
O28_2 Na10 1_555 1_555
O30 Na10 1_555 1_555
O13 Na8 1_555 1_555
Na11 O30 1_555 1_555
O23 Na8 1_555 1_555
O30 Na8 1_555 1_555
O3_2 Na5 1_555 1_555
O5_2 Na5 1_555 1_555
O26_2 Na5 1_555 1_555
O27_2 Na5 1_555 1_555
Na8 O26_2 1_555 1_555
C12_2 H5_2 1_555 1_555
C13_2 H6_2 1_555 1_555
C14_2 C13_2 1_555 1_555
C15_2 C14_2 1_555 1_555
C16_2 C12_2 1_555 1_555
C17_2 C16_2 1_555 1_555
C18_2 C14_2 1_555 1_555
H7_2 C18_2 1_555 1_555
C19_2 C12_2 1_555 1_555
N2_2 C13_2 1_555 1_555
O4_2 C15_2 1_555 1_555
O6_2 C10_2 1_555 1_555
O8_2 C10_2 1_555 1_555
O28_2 C17_2 1_555 1_555
O30 C17_2 1_555 1_555
C33_2 H17_2 1_555 1_555
C34_2 C33_2 1_555 1_555
C35_2 C34_2 1_555 1_555
C36_2 C35_2 1_555 1_555
C37_2 H18_2 1_555 1_555
C38_2 C37_2 1_555 1_555
C39_2 C38_2 1_555 1_555
C40_2 C38_2 1_555 1_555
H19_2 C40_2 1_555 1_555
C41_2 C39_2 1_555 1_555
C43_2 C40_2 1_555 1_555
H20_2 C43_2 1_555 1_555
C44_2 H21_2 1_555 1_555
C45_2 C34_2 1_555 1_555
H22_2 C45_2 1_555 1_555
C46_2 C36_2 1_555 1_555
H23_2 C46_2 1_555 1_555
C47_2 C41_2 1_555 1_555
H24_2 C47_2 1_555 1_555
C48_2 C36_2 1_555 1_555
N5_2 C33_2 1_555 1_555
O17_2 C35_2 1_555 1_555
O26 C48_2 1_555 1_555
O27 C48_2 1_555 1_555
Na13 O8_2 1_555 1_555
C15_2 C16_2 1_555 1_555
C18_2 C19_2 1_555 1_555
O6_2 Co3_2 1_555 1_555
C37_2 N6_2 1_555 1_555
C39_2 O18_2 1_555 1_555
C43_2 C47_2 1_555 1_555
C44_2 C45_2 1_555 1_555
C44_2 C46_2 1_555 1_555
Co3_2 O17_2 1_555 1_555
Co3_2 O27 1_555 1_555
Co4_2 N5_2 1_555 1_555
Co4_2 O17_2 1_555 1_555
N5_2 N6_2 1_555 1_555
C1_2 H1_2 1_555 1_555
C2_2 C1_2 1_555 1_555
C3_2 C2_2 1_555 1_555
C4_2 C3_2 1_555 1_555
C5_2 H2_2 1_555 1_555
C6_2 C5_2 1_555 1_555
C7_2 C6_2 1_555 1_555
C8_2 C6_2 1_555 1_555
H3_2 C8_2 1_555 1_555
C9_2 C7_2 1_555 1_555
C11_2 C8_2 1_555 1_555
H4_2 C11_2 1_555 1_555
C20_2 H9_2 1_555 1_555
C21_2 C2_2 1_555 1_555
H10_2 C21_2 1_555 1_555
C22_2 C4_2 1_555 1_555
H11_2 C22_2 1_555 1_555
C23_2 C9_2 1_555 1_555
H12_2 C23_2 1_555 1_555
C24_2 C4_2 1_555 1_555
Co1_2 O1_2 1_555 1_555
Co2_2 N1_2 1_555 1_555
N1_2 C1_2 1_555 1_555
N3_2 C5_2 1_555 1_555
O1_2 C3_2 1_555 1_555
O2_2 C7_2 1_555 1_555
O26_2 C24_2 1_555 1_555
O27_2 C24_2 1_555 1_555
C25_2 H13_2 1_555 1_555
C26_2 H14_2 1_555 1_555
C27_2 C26_2 1_555 1_555
C28_2 C27_2 1_555 1_555
C29_2 C25_2 1_555 1_555
C30_2 C29_2 1_555 1_555
C31_2 C27_2 1_555 1_555
H15_2 C31_2 1_555 1_555
C32_2 C25_2 1_555 1_555
O14_2 C28_2 1_555 1_555
O28 C30_2 1_555 1_555
O31 C30_2 1_555 1_555
O19_2 Co1_2 1_555 1_555
O20_2 C42_2 1_555 1_555
Na12 O20_2 1_555 1_555
C11_2 C23_2 1_555 1_555
C20_2 C21_2 1_555 1_555
C20_2 C22_2 1_555 1_555
Co1_2 O27_2 1_555 1_555
Co2_2 O1_2 1_555 1_555
N1_2 N3_2 1_555 1_555
C26_2 N4_2 1_555 1_555
C28_2 C29_2 1_555 1_555
C31_2 C32_2 1_555 1_555
C42_2 O19_2 1_555 1_555
H3_3 C8_3 1_555 1_555
C11_3 C8_3 1_555 1_555
H4_3 C11_3 1_555 1_555
H12_3 C23_3 1_555 1_555
C11_3 C23_3 1_555 1_555
C1_3 H1_3 1_555 1_555
C2_3 C1_3 1_555 1_555
C3_3 C2_3 1_555 1_555
C4_3 C3_3 1_555 1_555
C5_3 H2_3 1_555 1_555
C6_3 C5_3 1_555 1_555
C7_3 C6_3 1_555 1_555
C9_3 C7_3 1_555 1_555
C20_3 H9_3 1_555 1_555
C21_3 C2_3 1_555 1_555
H10_3 C21_3 1_555 1_555
C22_3 C4_3 1_555 1_555
H11_3 C22_3 1_555 1_555
C24_3 C4_3 1_555 1_555
Co1_3 O1_3 1_555 1_555
Co2_3 N1_3 1_555 1_555
N1_3 C1_3 1_555 1_555
N3_3 C5_3 1_555 1_555
O1_3 C3_3 1_555 1_555
O2_3 C7_3 1_555 1_555
O3_3 Na1_2 1_555 1_555
O5_3 Na1_2 1_555 1_555
O7_2 Na2_2 1_555 1_555
O9_2 C24_3 1_555 1_555
O10_2 C24_3 1_555 1_555
Na1_2 O9_2 1_555 1_555
Na2_2 O9_2 1_555 1_555
C25_3 H13_3 1_555 1_555
C26_3 H14_3 1_555 1_555
C27_3 C26_3 1_555 1_555
C28_3 C27_3 1_555 1_555
C29_3 C25_3 1_555 1_555
C30_3 C29_3 1_555 1_555
C31_3 C27_3 1_555 1_555
H15_3 C31_3 1_555 1_555
C32_3 C25_3 1_555 1_555
H16_3 C32_3 1_555 1_555
O14_3 C28_3 1_555 1_555
O15_2 C30_3 1_555 1_555
O16_2 C30_3 1_555 1_555
O19_3 Co1_3 1_555 1_555
O24_2 C42_3 1_555 1_555
O26_3 Na1_2 1_555 1_555
O27_3 Na1_2 1_555 1_555
O29_2 Na2_2 1_555 1_555
O31_2 Na2_2 1_555 1_555
Na8_2 O16_2 1_555 1_555
Na9_2 O7_2 1_555 1_555
Na10_2 O15_2 1_555 1_555
O32_2 Na2_2 1_555 1_555
Na13 O16_2 1_555 1_555
C20_3 C21_3 1_555 1_555
C20_3 C22_3 1_555 1_555
Co1_3 O10_2 1_555 1_555
Co2_3 O1_3 1_555 1_555
N1_3 N3_3 1_555 1_555
O10_2 Na1_2 1_555 1_555
Na2_2 O26_3 1_555 1_555
C26_3 N4_3 1_555 1_555
C28_3 C29_3 1_555 1_555
C31_3 C32_3 1_555 1_555
O16_2 Na10_2 1_555 1_555
C42_3 O19_3 1_555 1_555
O29_2 Na9_2 1_555 1_555
O31_2 Na9_2 1_555 1_555
H19_3 C40_3 1_555 1_555
C43_3 C40_3 1_555 1_555
H20_3 C43_3 1_555 1_555
H24_3 C47_3 1_555 1_555
C43_3 C47_3 1_555 1_555
C12_3 H5_3 1_555 1_555
C13_3 H6_3 1_555 1_555
C14_3 C13_3 1_555 1_555
C15_3 C14_3 1_555 1_555
C16_3 C12_3 1_555 1_555
C17_3 C16_3 1_555 1_555
C18_3 C14_3 1_555 1_555
H7_3 C18_3 1_555 1_555
C19_3 C12_3 1_555 1_555
H8_3 C19_3 1_555 1_555
N2_3 C13_3 1_555 1_555
O4_3 C15_3 1_555 1_555
O6_3 C10_3 1_555 1_555
O24 C10_3 1_555 1_555
O11_2 C17_3 1_555 1_555
O29_2 C17_3 1_555 1_555
O32_2 Na12 1_555 1_555
C33_3 H17_3 1_555 1_555
C34_3 C33_3 1_555 1_555
C35_3 C34_3 1_555 1_555
C36_3 C35_3 1_555 1_555
C37_3 H18_3 1_555 1_555
C38_3 C37_3 1_555 1_555
C39_3 C38_3 1_555 1_555
C41_3 C39_3 1_555 1_555
C44_3 H21_3 1_555 1_555
C45_3 C34_3 1_555 1_555
H22_3 C45_3 1_555 1_555
C46_3 C36_3 1_555 1_555
H23_3 C46_3 1_555 1_555
C48_3 C36_3 1_555 1_555
N5_3 C33_3 1_555 1_555
O17_3 C35_3 1_555 1_555
O21_2 C48_3 1_555 1_555
O22_2 C48_3 1_555 1_555
O28_3 Na9_2 1_555 1_555
Na5_2 O21_2 1_555 1_555
Na8_2 O21_2 1_555 1_555
C15_3 C16_3 1_555 1_555
C18_3 C19_3 1_555 1_555
O6_3 Co3_3 1_555 1_555
O11_2 Na9_2 1_555 1_555
O29_2 Na12 1_555 1_555
Na12 O31_2 1_555 1_555
C37_3 N6_3 1_555 1_555
C39_3 O18_3 1_555 1_555
C44_3 C45_3 1_555 1_555
C44_3 C46_3 1_555 1_555
Co3_3 O17_3 1_555 1_555
Co3_3 O22_2 1_555 1_555
Co4_3 N5_3 1_555 1_555
Co4_3 O17_3 1_555 1_555
N5_3 N6_3 1_555 1_555
O22_2 Na5_2 1_555 1_555
O13_2 Na13 1_555 1_555
O23_2 Na10_2 1_555 1_555
O28_4 Na10_2 1_555 1_555
O30_2 Na10_2 1_555 1_555
O13_2 Na8_2 1_555 1_555
Na13 O30_2 1_555 1_555
O23_2 Na8_2 1_555 1_555
O30_2 Na8_2 1_555 1_555
O3_4 Na5_2 1_555 1_555
O5_4 Na5_2 1_555 1_555
O26_4 Na5_2 1_555 1_555
O27_4 Na5_2 1_555 1_555
Na8_2 O26_4 1_555 1_555
C12_4 H5_4 1_555 1_555
C13_4 H6_4 1_555 1_555
C14_4 C13_4 1_555 1_555
C15_4 C14_4 1_555 1_555
C16_4 C12_4 1_555 1_555
C17_4 C16_4 1_555 1_555
C18_4 C14_4 1_555 1_555
H7_4 C18_4 1_555 1_555
C19_4 C12_4 1_555 1_555
H8_4 C19_4 1_555 1_555
N2_4 C13_4 1_555 1_555
O4_4 C15_4 1_555 1_555
O28_4 C17_4 1_555 1_555
O30_2 C17_4 1_555 1_555
C37_4 H18_4 1_555 1_555
C38_4 C37_4 1_555 1_555
C39_4 C38_4 1_555 1_555
C41_4 C39_4 1_555 1_555
C15_4 C16_4 1_555 1_555
C18_4 C19_4 1_555 1_555
C37_4 N6_4 1_555 1_555
C39_4 O18_4 1_555 1_555
O6_4 C10_4 1_555 1_555
O25_2 C10_4 1_555 1_555
C33_4 H17_4 1_555 1_555
C34_4 C33_4 1_555 1_555
C35_4 C34_4 1_555 1_555
C36_4 C35_4 1_555 1_555
C44_4 H21_4 1_555 1_555
C45_4 C34_4 1_555 1_555
H22_4 C45_4 1_555 1_555
C46_4 C36_4 1_555 1_555
H23_4 C46_4 1_555 1_555
C48_4 C36_4 1_555 1_555
N5_4 C33_4 1_555 1_555
O17_4 C35_4 1_555 1_555
O26_3 C48_4 1_555 1_555
O27_3 C48_4 1_555 1_555
O6_4 Co3_4 1_555 1_555
C44_4 C45_4 1_555 1_555
C44_4 C46_4 1_555 1_555
Co3_4 O17_4 1_555 1_555
Co3_4 O27_3 1_555 1_555
Co4_4 N5_4 1_555 1_555
Co4_4 O17_4 1_555 1_555
C1_4 H1_4 1_555 1_555
C2_4 C1_4 1_555 1_555
C3_4 C2_4 1_555 1_555
C4_4 C3_4 1_555 1_555
C20_4 H9_4 1_555 1_555
C21_4 C2_4 1_555 1_555
H10_4 C21_4 1_555 1_555
C22_4 C4_4 1_555 1_555
H11_4 C22_4 1_555 1_555
C24_4 C4_4 1_555 1_555
Co1_4 O1_4 1_555 1_555
Co2_4 N1_4 1_555 1_555
N1_4 C1_4 1_555 1_555
O1_4 C3_4 1_555 1_555
O26_4 C24_4 1_555 1_555
O27_4 C24_4 1_555 1_555
O19_4 Co1_4 1_555 1_555
O25 C42_4 1_555 1_555
C20_4 C21_4 1_555 1_555
C20_4 C22_4 1_555 1_555
Co1_4 O27_4 1_555 1_555
Co2_4 O1_4 1_555 1_555
C42_4 O19_4 1_555 1_555
C5_4 H2_4 1_555 1_555
C6_4 C5_4 1_555 1_555
C7_4 C6_4 1_555 1_555
C9_4 C7_4 1_555 1_555
N3_4 C5_4 1_555 1_555
O2_4 C7_4 1_555 1_555
C25_4 H13_4 1_555 1_555
C26_4 H14_4 1_555 1_555
C27_4 C26_4 1_555 1_555
C28_4 C27_4 1_555 1_555
C29_4 C25_4 1_555 1_555
C30_4 C29_4 1_555 1_555
C31_4 C27_4 1_555 1_555
H15_4 C31_4 1_555 1_555
C32_4 C25_4 1_555 1_555
H16_4 C32_4 1_555 1_555
O14_4 C28_4 1_555 1_555
O28_3 C30_4 1_555 1_555
O31_2 C30_4 1_555 1_555
C26_4 N4_4 1_555 1_555
C28_4 C29_4 1_555 1_555
C31_4 C32_4 1_555 1_555
H19_4 C40_4 1_555 1_555
C43_4 C40_4 1_555 1_555
H20_4 C43_4 1_555 1_555
H24_4 C47_4 1_555 1_555
C43_4 C47_4 1_555 1_555
H3_4 C8_4 1_555 1_555
C11_4 C8_4 1_555 1_555
H4_4 C11_4 1_555 1_555
H12_4 C23_4 1_555 1_555
C11_4 C23_4 1_555 1_555

#END
