
###############################################################################
#
# This file contains modified crystal structure data generated from the
# MOF subset of the Cambridge Structural Database (CSD) v543 
# hosted by the Cambridge Crystallographic Data Centre (CCDC).
#
# This work is licensed under the Creative Commons
# Attribution-NonCommercial-ShareAlike 4.0 International License.
# To view a copy of this license, visit
# http://creativecommons.org/licenses/by-nc-sa/4.0/
# or send a letter to
# Creative Commons, PO Box 1866, Mountain View, CA 94042, USA.
#
# CIF created using the CSD Python API on 29 September 2022
# The structure has been converted into the P1 space group
# The structure has a 3D framework
# The original CSD entry YEGCUJ is in the cubic crystal system
# The framework has been calculated to contain at least 10.0% void space
# The void calculation uses a probe of radius 1.32A, grid spacing 0.4
# The framework is charged, counterions have been retained in the structure
#
###############################################################################

data_YEGCUJ
_chemical_formula_moiety         '(C96 H72 N48 O24 Pd6 12-)n'
_symmetry_cell_setting           triclinic
_symmetry_space_group_name_H-M   'P 1'
_symmetry_Int_Tables_number      1
_space_group_name_Hall           'P 1'
loop_
_symmetry_equiv_pos_site_id
_symmetry_equiv_pos_as_xyz
1 x,y,z
_cell_length_a                   16.2792(12)
_cell_length_b                   16.2792(12)
_cell_length_c                   16.2792(12)
_cell_angle_alpha                90
_cell_angle_beta                 90
_cell_angle_gamma                90
_cell_volume                     4314.19
loop_
_atom_site_label
_atom_site_type_symbol
_atom_site_fract_x
_atom_site_fract_y
_atom_site_fract_z
Pd2 Pd 0.75000 -0.00000 0.25000
Pd1 Pd 0.50000 0.75000 0.25000
N1 N 0.581910 0.684390 0.305550
C1 C 0.607470 0.709670 0.380890
C2 C 0.620460 0.620660 0.267730
C3 C 0.671200 0.671120 0.418710
O1 O 0.597170 0.597420 0.198350
H1 H 0.580600 0.754300 0.407200
H2 H 0.688860 0.688820 0.471440
N2 N 0.684390 0.581910 0.305550
C4 C 0.709670 0.607470 0.380890
H3 H 0.754300 0.580600 0.407200
N3 N 0.581910 0.815610 0.194450
C5 C 0.607470 0.790330 0.119110
C6 C 0.620460 0.879340 0.232270
C7 C 0.671200 0.828880 0.081290
O2 O 0.597170 0.902580 0.301650
H4 H 0.580600 0.745700 0.092800
H5 H 0.688860 0.811180 0.028560
N4 N 0.684390 0.918090 0.194450
C8 C 0.709670 0.892530 0.119110
H6 H 0.754300 0.919400 0.092800
Pd2_2 Pd 0.75000 1.00000 0.25000
Pd3 Pd 0.75000 0.50000 0.25000
N5 N 0.418090 0.694450 0.315610
N6 N 0.418090 0.805550 0.184390
Pd1_2 Pd 0.00000 0.75000 0.25000
N5_2 N 0.081910 0.694450 0.184390
N6_2 N 0.081910 0.805550 0.315610
Pd1_3 Pd 1.00000 0.75000 0.25000
N1_2 N 0.918090 0.684390 0.194450
C1_2 C 0.892530 0.709670 0.119110
C2_2 C 0.879540 0.620660 0.232270
C3_2 C 0.828800 0.671120 0.081290
O1_2 O 0.902830 0.597420 0.301650
H1_2 H 0.919400 0.754300 0.092800
H2_2 H 0.811140 0.688820 0.028560
N2_2 N 0.815610 0.581910 0.194450
C4_2 C 0.790330 0.607470 0.119110
H3_2 H 0.745700 0.580600 0.092800
N3_2 N 0.918090 0.815610 0.305550
C5_2 C 0.892530 0.790330 0.380890
C6_2 C 0.879540 0.879340 0.267730
C7_2 C 0.828800 0.828880 0.418710
O2_2 O 0.902830 0.902580 0.198350
H4_2 H 0.919400 0.745700 0.407200
H5_2 H 0.811140 0.811180 0.471440
N4_2 N 0.815610 0.918090 0.305550
C8_2 C 0.790330 0.892530 0.380890
H6_2 H 0.745700 0.919400 0.407200
Pd1_4 Pd 0.25000 -0.00000 0.75000
N1_3 N 0.315610 0.081910 0.805550
C1_3 C 0.290330 0.107470 0.880890
C2_3 C 0.379340 0.120460 0.767730
C3_3 C 0.328880 0.171200 0.918710
O1_3 O 0.402580 0.097170 0.698350
H1_3 H 0.245700 0.080600 0.907200
H2_3 H 0.311180 0.188860 0.971440
N2_3 N 0.418090 0.184390 0.805550
C4_3 C 0.392530 0.209670 0.880890
H3_3 H 0.419400 0.254300 0.907200
N3_3 N 0.184390 0.081910 0.694450
C5_3 C 0.209670 0.107470 0.619110
C6_3 C 0.120660 0.120460 0.732270
C7_3 C 0.171120 0.171200 0.581290
O2_3 O 0.097420 0.097170 0.801650
H4_3 H 0.254300 0.080600 0.592800
H5_3 H 0.188820 0.188860 0.528560
N4_3 N 0.081910 0.184390 0.694450
C8_3 C 0.107470 0.209670 0.619110
H6_3 H 0.080600 0.254300 0.592800
Pd2_3 Pd -0.00000 0.25000 0.75000
Pd3_2 Pd 0.50000 0.25000 0.75000
Pd1_5 Pd 0.25000 1.00000 0.75000
N5_3 N 0.305550 0.918090 0.815610
N6_3 N 0.194450 0.918090 0.684390
Pd2_4 Pd 1.00000 0.25000 0.75000
Pd1_6 Pd 0.25000 0.50000 0.75000
N1_4 N 0.184390 0.418090 0.805550
C1_4 C 0.209670 0.392530 0.880890
C2_4 C 0.120660 0.379540 0.767730
C3_4 C 0.171120 0.328800 0.918710
O1_4 O 0.097420 0.402830 0.698350
H1_4 H 0.254300 0.419400 0.907200
H2_4 H 0.188820 0.311140 0.971440
N2_4 N 0.081910 0.315610 0.805550
C4_4 C 0.107470 0.290330 0.880890
H3_4 H 0.080600 0.245700 0.907200
N3_4 N 0.315610 0.418090 0.694450
C5_4 C 0.290330 0.392530 0.619110
C6_4 C 0.379340 0.379540 0.732270
C7_4 C 0.328880 0.328800 0.581290
O2_4 O 0.402580 0.402830 0.801650
H4_4 H 0.245700 0.419400 0.592800
H5_4 H 0.311180 0.311140 0.528560
N4_4 N 0.418090 0.315610 0.694450
C8_4 C 0.392530 0.290330 0.619110
H6_4 H 0.419400 0.245700 0.592800
N5_4 N 0.194450 0.581910 0.815610
N6_4 N 0.305550 0.581910 0.684390
Pd1_7 Pd 0.75000 0.25000 0.50000
N1_5 N 0.805550 0.184390 0.418090
C1_5 C 0.880890 0.209670 0.392530
C2_5 C 0.767730 0.120660 0.379540
C3_5 C 0.918710 0.171120 0.328800
O1_5 O 0.698350 0.097420 0.402830
H1_5 H 0.907200 0.254300 0.419400
H2_5 H 0.971440 0.188820 0.311140
N2_5 N 0.805550 0.081910 0.315610
C4_5 C 0.880890 0.107470 0.290330
H3_5 H 0.907200 0.080600 0.245700
N3_5 N 0.694450 0.315610 0.418090
C5_5 C 0.619110 0.290330 0.392530
C6_5 C 0.732270 0.379340 0.379540
C7_5 C 0.581290 0.328880 0.328800
O2_5 O 0.801650 0.402580 0.402830
H4_5 H 0.592800 0.245700 0.419400
H5_5 H 0.528560 0.311180 0.311140
N4_5 N 0.694450 0.418090 0.315610
C8_5 C 0.619110 0.392530 0.290330
H6_5 H 0.592800 0.419400 0.245700
N5_5 N 0.815610 0.194450 0.581910
N6_5 N 0.684390 0.305550 0.581910
Pd1_8 Pd 0.75000 0.25000 -0.00000
N1_6 N 0.694450 0.184390 0.081910
C1_6 C 0.619110 0.209670 0.107470
C2_6 C 0.732270 0.120660 0.120460
C3_6 C 0.581290 0.171120 0.171200
O1_6 O 0.801650 0.097420 0.097170
H1_6 H 0.592800 0.254300 0.080600
H2_6 H 0.528560 0.188820 0.188860
N2_6 N 0.694450 0.081910 0.184390
C4_6 C 0.619110 0.107470 0.209670
H3_6 H 0.592800 0.080600 0.254300
N3_6 N 0.805550 0.315610 0.081910
C5_6 C 0.880890 0.290330 0.107470
C6_6 C 0.767730 0.379340 0.120460
C7_6 C 0.918710 0.328880 0.171200
O2_6 O 0.698350 0.402580 0.097170
H4_6 H 0.907200 0.245700 0.080600
H5_6 H 0.971440 0.311180 0.188860
N4_6 N 0.805550 0.418090 0.184390
C8_6 C 0.880890 0.392530 0.209670
H6_6 H 0.907200 0.419400 0.254300
Pd1_9 Pd 0.75000 0.25000 1.00000
N5_6 N 0.684390 0.194450 0.918090
N6_6 N 0.815610 0.305550 0.918090
Pd2_5 Pd 0.25000 0.75000 0.00000
C1_7 C 0.380890 0.607470 0.709670
C2_7 C 0.267730 0.620460 0.620660
C3_7 C 0.418710 0.671200 0.671120
O1_7 O 0.198350 0.597170 0.597420
H1_7 H 0.407200 0.580600 0.754300
H2_7 H 0.471440 0.688860 0.688820
N2_7 N 0.305550 0.684390 0.581910
C4_7 C 0.380890 0.709670 0.607470
H3_7 H 0.407200 0.754300 0.580600
C5_7 C 0.119110 0.607470 0.790330
C6_7 C 0.232270 0.620460 0.879340
C7_7 C 0.081290 0.671200 0.828880
O2_7 O 0.301650 0.597170 0.902580
H4_7 H 0.092800 0.580600 0.745700
H5_7 H 0.028560 0.688860 0.811180
N4_7 N 0.194450 0.684390 0.918090
C8_7 C 0.119110 0.709670 0.892530
H6_7 H 0.092800 0.754300 0.919400
Pd2_6 Pd 0.25000 0.75000 1.00000
Pd3_3 Pd 0.25000 0.75000 0.50000
C1_8 C 0.709670 0.380890 0.607470
C2_8 C 0.620660 0.267730 0.620460
C3_8 C 0.671120 0.418710 0.671200
O1_8 O 0.597420 0.198350 0.597170
H1_8 H 0.754300 0.407200 0.580600
H2_8 H 0.688820 0.471440 0.688860
N2_8 N 0.581910 0.305550 0.684390
C4_8 C 0.607470 0.380890 0.709670
H3_8 H 0.580600 0.407200 0.754300
C5_8 C 0.790330 0.119110 0.607470
C6_8 C 0.879340 0.232270 0.620460
C7_8 C 0.828880 0.081290 0.671200
O2_8 O 0.902580 0.301650 0.597170
H4_8 H 0.745700 0.092800 0.580600
H5_8 H 0.811180 0.028560 0.688860
N4_8 N 0.918090 0.194450 0.684390
C8_8 C 0.892530 0.119110 0.709670
H6_8 H 0.919400 0.092800 0.754300
C1_9 C 0.392530 0.619110 0.290330
C2_9 C 0.379540 0.732270 0.379340
C3_9 C 0.328800 0.581290 0.328880
O1_9 O 0.402830 0.801650 0.402580
H1_9 H 0.419400 0.592800 0.245700
H2_9 H 0.311140 0.528560 0.311180
N2_9 N 0.315610 0.694450 0.418090
C4_9 C 0.290330 0.619110 0.392530
H3_9 H 0.245700 0.592800 0.419400
C5_9 C 0.392530 0.880890 0.209670
C6_9 C 0.379540 0.767730 0.120660
C7_9 C 0.328800 0.918710 0.171120
O2_9 O 0.402830 0.698350 0.097420
H4_9 H 0.419400 0.907200 0.254300
H5_9 H 0.311140 0.971440 0.188820
N4_9 N 0.315610 0.805550 0.081910
C8_9 C 0.290330 0.880890 0.107470
H6_9 H 0.245700 0.907200 0.080600
C1_10 C 0.380890 0.892530 0.790330
C2_10 C 0.267730 0.879540 0.879340
C3_10 C 0.418710 0.828800 0.828880
O1_10 O 0.198350 0.902830 0.902580
H1_10 H 0.407200 0.919400 0.745700
H2_10 H 0.471440 0.811140 0.811180
N2_10 N 0.305550 0.815610 0.918090
C4_10 C 0.380890 0.790330 0.892530
H3_10 H 0.407200 0.745700 0.919400
C5_10 C 0.119110 0.892530 0.709670
C6_10 C 0.232270 0.879540 0.620660
C7_10 C 0.081290 0.828800 0.671120
O2_10 O 0.301650 0.902830 0.597420
H4_10 H 0.092800 0.919400 0.754300
H5_10 H 0.028560 0.811140 0.688820
N4_10 N 0.194450 0.815610 0.581910
C8_10 C 0.119110 0.790330 0.607470
H6_10 H 0.092800 0.745700 0.580600
C1_11 C 0.709670 0.119110 0.892530
C2_11 C 0.620660 0.232270 0.879540
C3_11 C 0.671120 0.081290 0.828800
O1_11 O 0.597420 0.301650 0.902830
H1_11 H 0.754300 0.092800 0.919400
H2_11 H 0.688820 0.028560 0.811140
N2_11 N 0.581910 0.194450 0.815610
C4_11 C 0.607470 0.119110 0.790330
H3_11 H 0.580600 0.092800 0.745700
C5_11 C 0.790330 0.380890 0.892530
C6_11 C 0.879340 0.267730 0.879540
C7_11 C 0.828880 0.418710 0.828800
O2_11 O 0.902580 0.198350 0.902830
H4_11 H 0.745700 0.407200 0.919400
H5_11 H 0.811180 0.471440 0.811140
N4_11 N 0.918090 0.305550 0.815610
C8_11 C 0.892530 0.380890 0.790330
H6_11 H 0.919400 0.407200 0.745700
C1_12 C 0.107470 0.619110 0.209670
C2_12 C 0.120460 0.732270 0.120660
C3_12 C 0.171200 0.581290 0.171120
O1_12 O 0.097170 0.801650 0.097420
H1_12 H 0.080600 0.592800 0.254300
H2_12 H 0.188860 0.528560 0.188820
N2_12 N 0.184390 0.694450 0.081910
C4_12 C 0.209670 0.619110 0.107470
H3_12 H 0.254300 0.592800 0.080600
C5_12 C 0.107470 0.880890 0.290330
C6_12 C 0.120460 0.767730 0.379340
C7_12 C 0.171200 0.918710 0.328880
O2_12 O 0.097170 0.698350 0.402580
H4_12 H 0.080600 0.907200 0.245700
H5_12 H 0.188860 0.971440 0.311180
N4_12 N 0.184390 0.805550 0.418090
C8_12 C 0.209670 0.880890 0.392530
H6_12 H 0.254300 0.907200 0.419400
loop_
_geom_bond_atom_site_label_1
_geom_bond_atom_site_label_2
_geom_bond_site_symmetry_1
_geom_bond_site_symmetry_2
Pd1 N1 1_555 1_555
N1 C1 1_555 1_555
C1 C3 1_555 1_555
C2 N1 1_555 1_555
C3 H2 1_555 1_555
O1 C2 1_555 1_555
H1 C1 1_555 1_555
N2 C2 1_555 1_555
C4 C3 1_555 1_555
H3 C4 1_555 1_555
N3 Pd1 1_555 1_555
C5 N3 1_555 1_555
C6 N3 1_555 1_555
C7 C5 1_555 1_555
O2 C6 1_555 1_555
H4 C5 1_555 1_555
H5 C7 1_555 1_555
N4 C6 1_555 1_555
C8 C7 1_555 1_555
H6 C8 1_555 1_555
Pd2_2 N4 1_555 1_555
Pd3 N2 1_555 1_555
N5 Pd1 1_555 1_555
N6 Pd1 1_555 1_555
N2 C4 1_555 1_555
N4 C8 1_555 1_555
N5_2 Pd1_2 1_555 1_555
N6_2 Pd1_2 1_555 1_555
Pd1_3 N1_2 1_555 1_555
N1_2 C1_2 1_555 1_555
C1_2 C3_2 1_555 1_555
C2_2 N1_2 1_555 1_555
C3_2 H2_2 1_555 1_555
O1_2 C2_2 1_555 1_555
H1_2 C1_2 1_555 1_555
N2_2 C2_2 1_555 1_555
C4_2 C3_2 1_555 1_555
H3_2 C4_2 1_555 1_555
N3_2 Pd1_3 1_555 1_555
C5_2 N3_2 1_555 1_555
C6_2 N3_2 1_555 1_555
C7_2 C5_2 1_555 1_555
O2_2 C6_2 1_555 1_555
H4_2 C5_2 1_555 1_555
H5_2 C7_2 1_555 1_555
N4_2 C6_2 1_555 1_555
C8_2 C7_2 1_555 1_555
H6_2 C8_2 1_555 1_555
Pd2_2 N4_2 1_555 1_555
Pd3 N2_2 1_555 1_555
N2_2 C4_2 1_555 1_555
N4_2 C8_2 1_555 1_555
Pd1_4 N1_3 1_555 1_555
N1_3 C1_3 1_555 1_555
C1_3 C3_3 1_555 1_555
C2_3 N1_3 1_555 1_555
C3_3 H2_3 1_555 1_555
O1_3 C2_3 1_555 1_555
H1_3 C1_3 1_555 1_555
N2_3 C2_3 1_555 1_555
C4_3 C3_3 1_555 1_555
H3_3 C4_3 1_555 1_555
N3_3 Pd1_4 1_555 1_555
C5_3 N3_3 1_555 1_555
C6_3 N3_3 1_555 1_555
C7_3 C5_3 1_555 1_555
O2_3 C6_3 1_555 1_555
H4_3 C5_3 1_555 1_555
H5_3 C7_3 1_555 1_555
N4_3 C6_3 1_555 1_555
C8_3 C7_3 1_555 1_555
H6_3 C8_3 1_555 1_555
Pd2_3 N4_3 1_555 1_555
Pd3_2 N2_3 1_555 1_555
N2_3 C4_3 1_555 1_555
N4_3 C8_3 1_555 1_555
N5_3 Pd1_5 1_555 1_555
N6_3 Pd1_5 1_555 1_555
Pd1_6 N1_4 1_555 1_555
N1_4 C1_4 1_555 1_555
C1_4 C3_4 1_555 1_555
C2_4 N1_4 1_555 1_555
C3_4 H2_4 1_555 1_555
O1_4 C2_4 1_555 1_555
H1_4 C1_4 1_555 1_555
N2_4 C2_4 1_555 1_555
C4_4 C3_4 1_555 1_555
H3_4 C4_4 1_555 1_555
N3_4 Pd1_6 1_555 1_555
C5_4 N3_4 1_555 1_555
C6_4 N3_4 1_555 1_555
C7_4 C5_4 1_555 1_555
O2_4 C6_4 1_555 1_555
H4_4 C5_4 1_555 1_555
H5_4 C7_4 1_555 1_555
N4_4 C6_4 1_555 1_555
C8_4 C7_4 1_555 1_555
H6_4 C8_4 1_555 1_555
Pd3_2 N4_4 1_555 1_555
Pd2_3 N2_4 1_555 1_555
N5_4 Pd1_6 1_555 1_555
N6_4 Pd1_6 1_555 1_555
N2_4 C4_4 1_555 1_555
N4_4 C8_4 1_555 1_555
Pd1_7 N1_5 1_555 1_555
N1_5 C1_5 1_555 1_555
C1_5 C3_5 1_555 1_555
C2_5 N1_5 1_555 1_555
C3_5 H2_5 1_555 1_555
O1_5 C2_5 1_555 1_555
H1_5 C1_5 1_555 1_555
N2_5 C2_5 1_555 1_555
C4_5 C3_5 1_555 1_555
H3_5 C4_5 1_555 1_555
N3_5 Pd1_7 1_555 1_555
C5_5 N3_5 1_555 1_555
C6_5 N3_5 1_555 1_555
C7_5 C5_5 1_555 1_555
O2_5 C6_5 1_555 1_555
H4_5 C5_5 1_555 1_555
H5_5 C7_5 1_555 1_555
N4_5 C6_5 1_555 1_555
C8_5 C7_5 1_555 1_555
H6_5 C8_5 1_555 1_555
Pd3 N4_5 1_555 1_555
Pd2 N2_5 1_555 1_555
N5_5 Pd1_7 1_555 1_555
N6_5 Pd1_7 1_555 1_555
N2_5 C4_5 1_555 1_555
N4_5 C8_5 1_555 1_555
Pd1_8 N1_6 1_555 1_555
N1_6 C1_6 1_555 1_555
C1_6 C3_6 1_555 1_555
C2_6 N1_6 1_555 1_555
C3_6 H2_6 1_555 1_555
O1_6 C2_6 1_555 1_555
H1_6 C1_6 1_555 1_555
N2_6 C2_6 1_555 1_555
C4_6 C3_6 1_555 1_555
H3_6 C4_6 1_555 1_555
N3_6 Pd1_8 1_555 1_555
C5_6 N3_6 1_555 1_555
C6_6 N3_6 1_555 1_555
C7_6 C5_6 1_555 1_555
O2_6 C6_6 1_555 1_555
H4_6 C5_6 1_555 1_555
H5_6 C7_6 1_555 1_555
N4_6 C6_6 1_555 1_555
C8_6 C7_6 1_555 1_555
H6_6 C8_6 1_555 1_555
Pd3 N4_6 1_555 1_555
Pd2 N2_6 1_555 1_555
N2_6 C4_6 1_555 1_555
N4_6 C8_6 1_555 1_555
N5_6 Pd1_9 1_555 1_555
N6_6 Pd1_9 1_555 1_555
N6_4 C1_7 1_555 1_555
C1_7 C3_7 1_555 1_555
C2_7 N6_4 1_555 1_555
C3_7 H2_7 1_555 1_555
O1_7 C2_7 1_555 1_555
H1_7 C1_7 1_555 1_555
N2_7 C2_7 1_555 1_555
C4_7 C3_7 1_555 1_555
H3_7 C4_7 1_555 1_555
C5_7 N5_4 1_555 1_555
C6_7 N5_4 1_555 1_555
C7_7 C5_7 1_555 1_555
O2_7 C6_7 1_555 1_555
H4_7 C5_7 1_555 1_555
H5_7 C7_7 1_555 1_555
N4_7 C6_7 1_555 1_555
C8_7 C7_7 1_555 1_555
H6_7 C8_7 1_555 1_555
Pd2_6 N4_7 1_555 1_555
Pd3_3 N2_7 1_555 1_555
N2_7 C4_7 1_555 1_555
N4_7 C8_7 1_555 1_555
N6_5 C1_8 1_555 1_555
C1_8 C3_8 1_555 1_555
C2_8 N6_5 1_555 1_555
C3_8 H2_8 1_555 1_555
O1_8 C2_8 1_555 1_555
H1_8 C1_8 1_555 1_555
N2_8 C2_8 1_555 1_555
C4_8 C3_8 1_555 1_555
H3_8 C4_8 1_555 1_555
C5_8 N5_5 1_555 1_555
C6_8 N5_5 1_555 1_555
C7_8 C5_8 1_555 1_555
O2_8 C6_8 1_555 1_555
H4_8 C5_8 1_555 1_555
H5_8 C7_8 1_555 1_555
N4_8 C6_8 1_555 1_555
C8_8 C7_8 1_555 1_555
H6_8 C8_8 1_555 1_555
Pd2_4 N4_8 1_555 1_555
Pd3_2 N2_8 1_555 1_555
N2_8 C4_8 1_555 1_555
N4_8 C8_8 1_555 1_555
N5 C1_9 1_555 1_555
C1_9 C3_9 1_555 1_555
C2_9 N5 1_555 1_555
C3_9 H2_9 1_555 1_555
O1_9 C2_9 1_555 1_555
H1_9 C1_9 1_555 1_555
N2_9 C2_9 1_555 1_555
C4_9 C3_9 1_555 1_555
H3_9 C4_9 1_555 1_555
C5_9 N6 1_555 1_555
C6_9 N6 1_555 1_555
C7_9 C5_9 1_555 1_555
O2_9 C6_9 1_555 1_555
H4_9 C5_9 1_555 1_555
H5_9 C7_9 1_555 1_555
N4_9 C6_9 1_555 1_555
C8_9 C7_9 1_555 1_555
H6_9 C8_9 1_555 1_555
Pd2_5 N4_9 1_555 1_555
Pd3_3 N2_9 1_555 1_555
N2_9 C4_9 1_555 1_555
N4_9 C8_9 1_555 1_555
N5_3 C1_10 1_555 1_555
C1_10 C3_10 1_555 1_555
C2_10 N5_3 1_555 1_555
C3_10 H2_10 1_555 1_555
O1_10 C2_10 1_555 1_555
H1_10 C1_10 1_555 1_555
N2_10 C2_10 1_555 1_555
C4_10 C3_10 1_555 1_555
H3_10 C4_10 1_555 1_555
C5_10 N6_3 1_555 1_555
C6_10 N6_3 1_555 1_555
C7_10 C5_10 1_555 1_555
O2_10 C6_10 1_555 1_555
H4_10 C5_10 1_555 1_555
H5_10 C7_10 1_555 1_555
N4_10 C6_10 1_555 1_555
C8_10 C7_10 1_555 1_555
H6_10 C8_10 1_555 1_555
Pd3_3 N4_10 1_555 1_555
Pd2_6 N2_10 1_555 1_555
N2_10 C4_10 1_555 1_555
N4_10 C8_10 1_555 1_555
N5_6 C1_11 1_555 1_555
C1_11 C3_11 1_555 1_555
C2_11 N5_6 1_555 1_555
C3_11 H2_11 1_555 1_555
O1_11 C2_11 1_555 1_555
H1_11 C1_11 1_555 1_555
N2_11 C2_11 1_555 1_555
C4_11 C3_11 1_555 1_555
H3_11 C4_11 1_555 1_555
C5_11 N6_6 1_555 1_555
C6_11 N6_6 1_555 1_555
C7_11 C5_11 1_555 1_555
O2_11 C6_11 1_555 1_555
H4_11 C5_11 1_555 1_555
H5_11 C7_11 1_555 1_555
N4_11 C6_11 1_555 1_555
C8_11 C7_11 1_555 1_555
H6_11 C8_11 1_555 1_555
Pd2_4 N4_11 1_555 1_555
Pd3_2 N2_11 1_555 1_555
N2_11 C4_11 1_555 1_555
N4_11 C8_11 1_555 1_555
N5_2 C1_12 1_555 1_555
C1_12 C3_12 1_555 1_555
C2_12 N5_2 1_555 1_555
C3_12 H2_12 1_555 1_555
O1_12 C2_12 1_555 1_555
H1_12 C1_12 1_555 1_555
N2_12 C2_12 1_555 1_555
C4_12 C3_12 1_555 1_555
H3_12 C4_12 1_555 1_555
C5_12 N6_2 1_555 1_555
C6_12 N6_2 1_555 1_555
C7_12 C5_12 1_555 1_555
O2_12 C6_12 1_555 1_555
H4_12 C5_12 1_555 1_555
H5_12 C7_12 1_555 1_555
N4_12 C6_12 1_555 1_555
C8_12 C7_12 1_555 1_555
H6_12 C8_12 1_555 1_555
Pd3_3 N4_12 1_555 1_555
Pd2_5 N2_12 1_555 1_555
N2_12 C4_12 1_555 1_555
N4_12 C8_12 1_555 1_555

#END
