
###############################################################################
#
# This file contains modified crystal structure data generated from the
# MOF subset of the Cambridge Structural Database (CSD) v543 
# hosted by the Cambridge Crystallographic Data Centre (CCDC).
#
# This work is licensed under the Creative Commons
# Attribution-NonCommercial-ShareAlike 4.0 International License.
# To view a copy of this license, visit
# http://creativecommons.org/licenses/by-nc-sa/4.0/
# or send a letter to
# Creative Commons, PO Box 1866, Mountain View, CA 94042, USA.
#
# CIF created using the CSD Python API on 29 September 2022
# The structure has been converted into the P1 space group
# The structure has a 3D framework
# The original CSD entry YEGFIB is in the tetragonal crystal system
# The original CSD entry YEGFIB is in a Sohncke space group
# The framework has been calculated to contain at least 10.0% void space
# The void calculation uses a probe of radius 1.32A, grid spacing 0.4
#
###############################################################################

data_YEGFIB
_chemical_formula_moiety         '(C208 H176 Cd8 N16 O48)n'
_symmetry_cell_setting           triclinic
_symmetry_space_group_name_H-M   'P 1'
_symmetry_Int_Tables_number      1
_space_group_name_Hall           'P 1'
loop_
_symmetry_equiv_pos_site_id
_symmetry_equiv_pos_as_xyz
1 x,y,z
_cell_length_a                   22.5663(14)
_cell_length_b                   22.5663(14)
_cell_length_c                   13.8877(18)
_cell_angle_alpha                90
_cell_angle_beta                 90
_cell_angle_gamma                90
_cell_volume                     7072.14
loop_
_atom_site_label
_atom_site_type_symbol
_atom_site_fract_x
_atom_site_fract_y
_atom_site_fract_z
C13 C 0.55886(19) 0.21545(16) 0.0329(3)
C14 C 0.56542(19) 0.15523(19) 0.0206(3)
H11 H 0.5594 0.1298 0.0742
C16 C 0.54268(18) 0.24144(16) 0.1286(3)
O5 O 0.52785(12) 0.20673(12) 0.1961(2)
O6 O 0.54445(12) 0.29646(12) 0.14148(19)
Cd3 Cd 0.520005(11) 0.284055(12) 0.312572(19)
C1 C 0.49134(17) 0.24328(19) 0.4960(3)
C2 C 0.47248(17) 0.22255(19) 0.5944(3)
C3 C 0.46490(19) 0.2626(2) 0.6699(3)
H1 H 0.4712 0.3037 0.6592
C4 C 0.4481(2) 0.2428(2) 0.7609(3)
H2 H 0.4430 0.2703 0.8120
C5 C 0.43896(18) 0.1834(2) 0.7767(3)
C6 C 0.44613(18) 0.14325(19) 0.7024(3)
H3 H 0.4400 0.1021 0.7135
C7 C 0.46219(18) 0.16321(19) 0.6120(3)
H4 H 0.4662 0.1355 0.5608
C8 C 0.4247(2) 0.1053(2) 0.8899(3)
H5 H 0.4634 0.0881 0.8717
H6 H 0.3933 0.0848 0.8528
C9 C 0.4142(2) 0.0972(2) 0.9961(3)
C17 C 0.3910(2) 0.2396(2) 0.2577(3)
H13 H 0.4130 0.2119 0.2204
C18 C 0.32727(18) 0.31846(19) 0.3627(3)
H14 H 0.3063 0.3472 0.3992
C19 C 0.29850(17) 0.26915(17) 0.3288(3)
C20 C 0.33145(18) 0.2293(2) 0.2731(3)
H15 H 0.3129 0.1954 0.2459
C21 C 0.38703(19) 0.32612(19) 0.3436(3)
H16 H 0.4062 0.3607 0.3671
C22 C 0.23558(17) 0.25660(18) 0.3530(3)
C23 C 0.19558(18) 0.30230(19) 0.3694(3)
H17 H 0.2078 0.3425 0.3645
C24 C 0.13806(18) 0.28832(19) 0.3927(3)
H18 H 0.1111 0.3199 0.4037
C25 C 0.15617(19) 0.18894(19) 0.3850(3)
H19 H 0.1428 0.1492 0.3900
C26 C 0.2149(2) 0.19954(18) 0.3613(3)
H20 H 0.2410 0.1672 0.3508
N1 N 0.41877(14) 0.28667(16) 0.2932(2)
N2 N 0.11781(14) 0.23303(14) 0.4010(2)
O1 O 0.50021(14) 0.29804(13) 0.4817(2)
O2 O 0.49784(12) 0.20616(13) 0.4296(2)
O3 O 0.42388(15) 0.16747(14) 0.8690(2)
O7 O 0.53067(14) 0.38622(13) 0.3133(2)
H21 H 0.4976 0.4025 0.3007
H22 H 0.5477 0.4028 0.3608
Cd2 Cd 0.020005(11) 0.215945(12) 0.437428(19)
N3 N 0.61781(14) 0.26697(14) 0.3490(2)
H7 H 0.0576 0.4283 0.9833
H8 H 0.1276 0.4363 0.9671
C10 C 0.0886(2) 0.33280(18) 0.8958(3)
C11 C 0.08300(18) 0.2717(2) 0.8851(3)
H9 H 0.0896 0.2462 0.9385
C12 C 0.06793(19) 0.24822(18) 0.7966(3)
H10 H 0.0637 0.2065 0.7899
C13_2 C 0.05886(19) 0.28455(16) 0.7171(3)
C14_2 C 0.06542(19) 0.34477(19) 0.7294(3)
H11_2 H 0.0594 0.3702 0.6758
C15 C 0.08064(19) 0.36948(18) 0.8178(3)
H12 H 0.0855 0.4111 0.8242
C16_2 C 0.04268(18) 0.25856(16) 0.6214(3)
O4 O 0.10272(13) 0.35211(13) 0.9862(2)
O5_2 O 0.02785(12) 0.29327(12) 0.5539(2)
O6_2 O 0.04445(12) 0.20354(12) 0.60852(19)
O1_2 O 0.00021(14) 0.20196(13) 0.2683(2)
O7_2 O 0.03067(14) 0.11378(13) 0.4367(2)
H22_2 H 0.0477 0.0972 0.3892
C1_2 C 0.99134(17) 0.25672(19) 0.2540(3)
C2_2 C 0.97248(17) 0.27745(19) 0.1556(3)
C3_2 C 0.96490(19) 0.2374(2) 0.0801(3)
H1_2 H 0.9712 0.1963 0.0908
C6_2 C 0.94613(18) 0.35675(19) 0.0476(3)
H3_2 H 0.9400 0.3979 0.0365
C7_2 C 0.96219(18) 0.33679(19) 0.1380(3)
H4_2 H 0.9662 0.3645 0.1892
C17_2 C 0.8910(2) 0.2604(2) 0.4923(3)
H13_2 H 0.9130 0.2881 0.5296
C18_2 C 0.82727(18) 0.18154(19) 0.3873(3)
H14_2 H 0.8063 0.1528 0.3508
C19_2 C 0.79850(17) 0.23085(17) 0.4212(3)
C20_2 C 0.83145(18) 0.2707(2) 0.4769(3)
H15_2 H 0.8129 0.3046 0.5041
C21_2 C 0.88703(19) 0.17388(19) 0.4064(3)
H16_2 H 0.9062 0.1393 0.3829
C22_2 C 0.73558(17) 0.24340(18) 0.3970(3)
C23_2 C 0.69558(18) 0.19770(19) 0.3806(3)
H17_2 H 0.7078 0.1575 0.3855
C24_2 C 0.63806(18) 0.21168(19) 0.3573(3)
H18_2 H 0.6111 0.1801 0.3463
C25_2 C 0.65617(19) 0.31106(19) 0.3650(3)
H19_2 H 0.6428 0.3508 0.3600
C26_2 C 0.7149(2) 0.30046(18) 0.3887(3)
H20_2 H 0.7410 0.3328 0.3992
N1_2 N 0.91877(14) 0.21333(16) 0.4568(2)
O2_2 O 0.99784(12) 0.29384(13) 0.3204(2)
H21_2 H 0.9976 0.0975 0.4493
C1_3 C 0.74328(19) 0.00866(17) 0.2460(3)
C2_3 C 0.72255(19) 0.02752(17) 0.3444(3)
C3_3 C 0.7626(2) 0.03510(19) 0.4199(3)
H1_3 H 0.8037 0.0288 0.4092
C4_2 C 0.7428(2) 0.0519(2) 0.5109(3)
H2_2 H 0.7703 0.0570 0.5620
C5_2 C 0.6834(2) 0.06104(18) 0.5267(3)
C6_3 C 0.64325(19) 0.05387(18) 0.4524(3)
H3_3 H 0.6021 0.0600 0.4635
C7_3 C 0.66321(19) 0.03781(18) 0.3620(3)
H4_3 H 0.6355 0.0338 0.3108
C8_2 C 0.6053(2) 0.0753(2) 0.6399(3)
H5_2 H 0.5881 0.0366 0.6217
H6_2 H 0.5848 0.1067 0.6028
C9_2 C 0.5972(2) 0.0858(2) 0.7461(3)
H7_2 H 0.5576 0.0717 0.7667
H8_2 H 0.6276 0.0637 0.7829
C10_2 C 0.5886(2) 0.16720(18) 0.8542(3)
C11_2 C 0.58300(18) 0.2283(2) 0.8649(3)
H9_2 H 0.5896 0.2538 0.8115
C12_2 C 0.56793(19) 0.25178(18) 0.9534(3)
H10_2 H 0.5637 0.2935 0.9601
C15_2 C 0.58064(19) 0.13052(18) 0.9322(3)
H12_2 H 0.5855 0.0889 0.9258
C17_3 C 0.7396(2) 0.1090(2) 0.0077(3)
C18_3 C 0.81846(19) 0.17273(18) 0.1127(3)
H14_3 H 0.8472 0.1937 0.1492
C19_3 C 0.76915(17) 0.20150(17) 0.0788(3)
C20_3 C 0.7293(2) 0.16855(18) 0.0231(3)
C21_3 C 0.82612(19) 0.11297(19) 0.0936(3)
H16_3 H 0.8607 0.0938 0.1171
C22_3 C 0.75660(18) 0.26442(17) 0.1030(3)
C23_3 C 0.80230(19) 0.30442(18) 0.1194(3)
H17_3 H 0.8425 0.2922 0.1145
C24_3 C 0.78832(19) 0.36194(18) 0.1427(3)
H18_3 H 0.8199 0.3889 0.1537
C25_3 C 0.68894(19) 0.34383(19) 0.1350(3)
H19_3 H 0.6492 0.3572 0.1400
C26_3 C 0.69954(18) 0.2851(2) 0.1113(3)
H20_3 H 0.6672 0.2590 0.1008
N1_3 N 0.78667(16) 0.08123(14) 0.0432(2)
N2_2 N 0.73303(14) 0.38219(14) 0.1510(2)
O2_3 O 0.70616(13) 0.00216(12) 0.1796(2)
O3_2 O 0.66747(14) 0.07612(15) 0.6190(2)
O4_2 O 0.60272(13) 0.14789(13) 0.7638(2)
H21_3 H 0.9025 0.0024 0.0507
Cd2_2 Cd 0.715945(12) 0.479995(11) 0.187428(19)
Cd1 Cd 0.784055(12) 0.979995(11) 0.062572(19)
O1_3 O 0.79804(13) 0.99979(14) 0.2317(2)
O7_3 O 0.88622(13) 0.96933(14) 0.0633(2)
H22_3 H 0.9028 0.9523 0.1108
N3_2 N 0.76697(14) 0.88219(14) 0.0990(2)
C1_4 C 0.75672(19) 0.50866(17) 0.0040(3)
C17_4 C 0.7604(2) 0.6090(2) 0.2423(3)
H13_3 H 0.7881 0.5870 0.2796
C18_4 C 0.68154(19) 0.67273(18) 0.1373(3)
H14_4 H 0.6528 0.6937 0.1008
C19_4 C 0.73085(17) 0.70150(17) 0.1712(3)
C20_4 C 0.7707(2) 0.66855(18) 0.2269(3)
H15_3 H 0.8046 0.6871 0.2541
C21_4 C 0.67388(19) 0.61297(19) 0.1564(3)
H16_4 H 0.6393 0.5938 0.1329
C22_4 C 0.74340(18) 0.76442(17) 0.1470(3)
C23_4 C 0.69770(19) 0.80442(18) 0.1306(3)
H17_4 H 0.6575 0.7922 0.1355
C24_4 C 0.71168(19) 0.86194(18) 0.1073(3)
H18_4 H 0.6801 0.8889 0.0963
C25_4 C 0.81106(19) 0.84383(19) 0.1150(3)
H19_4 H 0.8508 0.8572 0.1100
C26_4 C 0.80046(18) 0.7851(2) 0.1387(3)
H20_4 H 0.8328 0.7590 0.1492
N1_4 N 0.71333(16) 0.58123(14) 0.2068(2)
O1_4 O 0.70196(13) 0.49979(14) 0.0183(2)
O2_4 O 0.79384(13) 0.50216(12) 0.0704(2)
O7_4 O 0.61378(13) 0.46933(14) 0.1867(2)
H21_4 H 0.5975 0.5024 0.1993
H22_4 H 0.5972 0.4523 0.1392
C27 C 0.75856(16) 0.45732(18) 0.3714(3)
O8 O 0.79327(12) 0.47215(12) 0.3039(2)
O9 O 0.70354(12) 0.45555(12) 0.35852(19)
C4_3 C 0.9481(2) 0.2572(2) 0.9891(3)
H2_3 H 0.9430 0.2297 0.9380
C5_3 C 0.93896(18) 0.3166(2) 0.9733(3)
C8_3 C 0.9247(2) 0.3947(2) 0.8601(3)
H5_3 H 0.9634 0.4119 0.8783
H6_3 H 0.8933 0.4152 0.8972
C9_3 C 0.9142(2) 0.4028(2) 0.7539(3)
H7_3 H 0.9283 0.4424 0.7333
H8_3 H 0.9363 0.3724 0.7171
C10_3 C 0.83280(18) 0.4114(2) 0.6458(3)
C11_3 C 0.7717(2) 0.41700(18) 0.6351(3)
H9_3 H 0.7462 0.4104 0.6885
C12_3 C 0.74822(18) 0.43207(19) 0.5466(3)
H10_3 H 0.7065 0.4363 0.5399
C13_3 C 0.78455(16) 0.44114(19) 0.4671(3)
C14_3 C 0.84477(19) 0.43458(19) 0.4794(3)
H11_3 H 0.8702 0.4406 0.4258
C15_3 C 0.86948(18) 0.41936(19) 0.5678(3)
H12_3 H 0.9111 0.4145 0.5742
O3_3 O 0.92388(15) 0.33253(14) 0.8810(2)
O4_3 O 0.85211(13) 0.39728(13) 0.7362(2)
H13_4 H 0.7119 0.0870 0.9704
H15_4 H 0.6954 0.1871 0.9959
C27_2 C 0.74144(16) 0.95732(18) 0.8786(3)
O8_2 O 0.70673(12) 0.97215(12) 0.9461(2)
O9_2 O 0.79646(12) 0.95555(12) 0.89148(19)
C2_4 C 0.52752(17) 0.77745(19) 0.0944(3)
C3_4 C 0.53510(19) 0.7374(2) 0.1699(3)
H1_4 H 0.5288 0.6963 0.1592
C4_4 C 0.5519(2) 0.7572(2) 0.2609(3)
H2_4 H 0.5570 0.7297 0.3120
C5_4 C 0.56104(18) 0.8166(2) 0.2767(3)
C6_4 C 0.55387(18) 0.85675(19) 0.2024(3)
H3_4 H 0.5600 0.8979 0.2135
C7_4 C 0.53781(18) 0.83679(19) 0.1120(3)
H4_4 H 0.5338 0.8645 0.0608
C8_4 C 0.5753(2) 0.8947(2) 0.3899(3)
H5_4 H 0.5366 0.9119 0.3717
H6_4 H 0.6067 0.9152 0.3528
C9_4 C 0.5858(2) 0.9028(2) 0.4961(3)
H7_4 H 0.5717 0.9424 0.5167
H8_4 H 0.5637 0.8724 0.5329
C10_4 C 0.66720(18) 0.9114(2) 0.6042(3)
C11_4 C 0.7283(2) 0.91700(18) 0.6149(3)
H9_4 H 0.7538 0.9104 0.5615
C12_4 C 0.75178(18) 0.93207(19) 0.7034(3)
H10_4 H 0.7935 0.9363 0.7101
C13_4 C 0.71545(16) 0.94114(19) 0.7829(3)
C14_4 C 0.65523(19) 0.93458(19) 0.7706(3)
H11_4 H 0.6298 0.9406 0.8242
C15_4 C 0.63052(18) 0.91936(19) 0.6822(3)
H12_4 H 0.5889 0.9145 0.6758
O3_4 O 0.57612(15) 0.83253(14) 0.3690(2)
O4_4 O 0.64789(13) 0.89728(13) 0.5138(2)
Cd1_2 Cd 0.215945(12) 0.020005(11) 0.562572(19)
O1_5 O 0.20196(13) 0.00021(14) 0.7317(2)
O7_5 O 0.11378(13) 0.03067(14) 0.5633(2)
H22_5 H 0.0972 0.0477 0.6108
C27_3 C 0.25856(16) 0.04268(18) 0.3786(3)
N3_3 N 0.23303(14) 0.11781(14) 0.5990(2)
O8_3 O 0.29327(12) 0.02785(12) 0.4461(2)
O9_3 O 0.20354(12) 0.04445(12) 0.39148(19)
C1_5 C 0.25672(19) 0.99134(17) 0.7460(3)
C2_5 C 0.27745(19) 0.97248(17) 0.8444(3)
C3_5 C 0.2374(2) 0.96490(19) 0.9199(3)
H1_5 H 0.1963 0.9712 0.9092
C6_5 C 0.35675(19) 0.94613(18) 0.9524(3)
H3_5 H 0.3979 0.9400 0.9635
C7_5 C 0.33679(19) 0.96219(18) 0.8620(3)
H4_5 H 0.3645 0.9662 0.8108
C17_5 C 0.2604(2) 0.8910(2) 0.5077(3)
H13_5 H 0.2881 0.9130 0.4704
C18_5 C 0.18154(19) 0.82727(18) 0.6127(3)
H14_5 H 0.1528 0.8063 0.6492
C19_5 C 0.23085(17) 0.79850(17) 0.5788(3)
C20_5 C 0.2707(2) 0.83145(18) 0.5231(3)
H15_5 H 0.3046 0.8129 0.4959
C21_5 C 0.17388(19) 0.88703(19) 0.5936(3)
H16_5 H 0.1393 0.9062 0.6171
C22_5 C 0.24340(18) 0.73558(17) 0.6030(3)
C23_5 C 0.19770(19) 0.69558(18) 0.6194(3)
H17_5 H 0.1575 0.7078 0.6145
C24_5 C 0.21168(19) 0.63806(18) 0.6427(3)
H18_5 H 0.1801 0.6111 0.6537
C25_5 C 0.31106(19) 0.65617(19) 0.6350(3)
H19_5 H 0.3508 0.6428 0.6400
C26_5 C 0.30046(18) 0.7149(2) 0.6113(3)
H20_5 H 0.3328 0.7410 0.6008
N1_5 N 0.21333(16) 0.91877(14) 0.5432(2)
N2_3 N 0.26697(14) 0.61781(14) 0.6510(2)
O2_5 O 0.29384(13) 0.99784(12) 0.6796(2)
H21_5 H 0.0975 0.9976 0.5507
Cd2_3 Cd 0.284055(12) 0.520005(11) 0.687428(19)
H7_5 H 0.4283 0.0576 0.0167
H8_5 H 0.4363 0.1276 0.0329
C10_5 C 0.33280(18) 0.0886(2) 0.1042(3)
C11_5 C 0.2717(2) 0.08300(18) 0.1149(3)
H9_5 H 0.2462 0.0896 0.0615
C12_5 C 0.24822(18) 0.06793(19) 0.2034(3)
H10_5 H 0.2065 0.0637 0.2101
C13_5 C 0.28455(16) 0.05886(19) 0.2829(3)
C14_5 C 0.34477(19) 0.06542(19) 0.2706(3)
H11_5 H 0.3702 0.0594 0.3242
C15_5 C 0.36948(18) 0.08064(19) 0.1822(3)
H12_5 H 0.4111 0.0855 0.1758
O4_5 O 0.35211(13) 0.10272(13) 0.0138(2)
C1_6 C 0.24328(19) 0.49134(17) 0.5040(3)
C2_6 C 0.22255(19) 0.47248(17) 0.4056(3)
C3_6 C 0.2626(2) 0.46490(19) 0.3301(3)
H1_6 H 0.3037 0.4712 0.3408
C4_5 C 0.2428(2) 0.4481(2) 0.2391(3)
H2_5 H 0.2703 0.4430 0.1880
C5_5 C 0.1834(2) 0.43896(18) 0.2233(3)
C6_6 C 0.14325(19) 0.44613(18) 0.2976(3)
H3_6 H 0.1021 0.4400 0.2865
C7_6 C 0.16321(19) 0.46219(18) 0.3880(3)
H4_6 H 0.1355 0.4662 0.4392
C8_5 C 0.1053(2) 0.4247(2) 0.1101(3)
H5_5 H 0.0881 0.4634 0.1283
H6_5 H 0.0848 0.3933 0.1472
C9_5 C 0.0972(2) 0.4142(2) 0.0039(3)
C17_6 C 0.2396(2) 0.3910(2) 0.7423(3)
H13_6 H 0.2119 0.4130 0.7796
C18_6 C 0.31846(19) 0.32727(18) 0.6373(3)
H14_6 H 0.3472 0.3063 0.6008
C19_6 C 0.26915(17) 0.29850(17) 0.6712(3)
C20_6 C 0.2293(2) 0.33145(18) 0.7269(3)
H15_6 H 0.1954 0.3129 0.7541
C21_6 C 0.32612(19) 0.38703(19) 0.6564(3)
H16_6 H 0.3607 0.4062 0.6329
C22_6 C 0.25660(18) 0.23558(17) 0.6470(3)
C23_6 C 0.30230(19) 0.19558(18) 0.6306(3)
H17_6 H 0.3425 0.2078 0.6355
C24_6 C 0.28832(19) 0.13806(18) 0.6073(3)
H18_6 H 0.3199 0.1111 0.5963
C25_6 C 0.18894(19) 0.15617(19) 0.6150(3)
H19_6 H 0.1492 0.1428 0.6100
C26_6 C 0.19954(18) 0.2149(2) 0.6387(3)
H20_6 H 0.1672 0.2410 0.6492
N1_6 N 0.28667(16) 0.41877(14) 0.7068(2)
O1_6 O 0.29804(13) 0.50021(14) 0.5183(2)
O2_6 O 0.20616(13) 0.49784(12) 0.5704(2)
O3_5 O 0.16747(14) 0.42388(15) 0.1310(2)
O7_6 O 0.38622(13) 0.53067(14) 0.6867(2)
H21_6 H 0.4025 0.4976 0.6993
H22_6 H 0.4028 0.5477 0.6392
C27_4 C 0.24144(16) 0.54268(18) 0.8714(3)
O8_4 O 0.20673(12) 0.52785(12) 0.8039(2)
O9_4 O 0.29646(12) 0.54445(12) 0.85852(19)
C13_6 C 0.21545(16) 0.55886(19) 0.9671(3)
C14_6 C 0.15523(19) 0.56542(19) 0.9794(3)
H11_6 H 0.1298 0.5594 0.9258
C4_6 C 0.2572(2) 0.9481(2) 0.0109(3)
H2_6 H 0.2297 0.9430 0.0620
C5_6 C 0.3166(2) 0.93896(18) 0.0267(3)
C8_6 C 0.3947(2) 0.9247(2) 0.1399(3)
H5_6 H 0.4119 0.9634 0.1217
H6_6 H 0.4152 0.8933 0.1028
C9_6 C 0.4028(2) 0.9142(2) 0.2461(3)
H7_6 H 0.4424 0.9283 0.2667
H8_6 H 0.3724 0.9363 0.2829
C10_6 C 0.4114(2) 0.83280(18) 0.3542(3)
C11_6 C 0.41700(18) 0.7717(2) 0.3649(3)
H9_6 H 0.4104 0.7462 0.3115
C12_6 C 0.43207(19) 0.74822(18) 0.4534(3)
H10_6 H 0.4363 0.7065 0.4601
C13_7 C 0.44114(19) 0.78455(16) 0.5329(3)
C14_7 C 0.43458(19) 0.84477(19) 0.5206(3)
H11_7 H 0.4406 0.8702 0.5742
C15_6 C 0.41936(19) 0.86948(18) 0.4322(3)
H12_6 H 0.4145 0.9111 0.4258
C16_3 C 0.45732(18) 0.75856(16) 0.6286(3)
O3_6 O 0.33253(14) 0.92388(15) 0.1190(2)
O4_6 O 0.39728(13) 0.85211(13) 0.2638(2)
O5_3 O 0.47215(12) 0.79327(12) 0.6961(2)
O6_3 O 0.45555(12) 0.70354(12) 0.64148(19)
Cd3_2 Cd 0.479995(11) 0.715945(12) 0.812572(19)
C1_7 C 0.50866(17) 0.75672(19) 0.9960(3)
C17_7 C 0.6090(2) 0.7604(2) 0.7577(3)
H13_7 H 0.5870 0.7881 0.7204
C18_7 C 0.67273(18) 0.68154(19) 0.8627(3)
H14_7 H 0.6937 0.6528 0.8992
C19_7 C 0.70150(17) 0.73085(17) 0.8288(3)
C20_7 C 0.66855(18) 0.7707(2) 0.7731(3)
H15_7 H 0.6871 0.8046 0.7459
C21_7 C 0.61297(19) 0.67388(19) 0.8436(3)
H16_7 H 0.5938 0.6393 0.8671
C22_7 C 0.76442(17) 0.74340(18) 0.8530(3)
C23_7 C 0.80442(18) 0.69770(19) 0.8694(3)
H17_7 H 0.7922 0.6575 0.8645
C24_7 C 0.86194(18) 0.71168(19) 0.8927(3)
H18_7 H 0.8889 0.6801 0.9037
C25_7 C 0.84383(19) 0.81106(19) 0.8850(3)
H19_7 H 0.8572 0.8508 0.8900
C26_7 C 0.7851(2) 0.80046(18) 0.8613(3)
H20_7 H 0.7590 0.8328 0.8508
N1_7 N 0.58123(14) 0.71333(16) 0.7932(2)
N2_4 N 0.88219(14) 0.76697(14) 0.9010(2)
O1_7 O 0.49979(14) 0.70196(13) 0.9817(2)
O2_7 O 0.50216(12) 0.79384(13) 0.9296(2)
O7_7 O 0.46933(14) 0.61378(13) 0.8133(2)
H21_7 H 0.5024 0.5975 0.8007
H22_7 H 0.4523 0.5972 0.8608
Cd2_4 Cd 0.979995(11) 0.784055(12) 0.937428(19)
N3_4 N 0.38219(14) 0.73303(14) 0.8490(2)
C1_8 C 0.00866(17) 0.74328(19) 0.7540(3)
C2_7 C 0.02752(17) 0.72255(19) 0.6556(3)
C3_7 C 0.03510(19) 0.7626(2) 0.5801(3)
H1_7 H 0.0288 0.8037 0.5908
C4_7 C 0.0519(2) 0.7428(2) 0.4891(3)
H2_7 H 0.0570 0.7703 0.4380
C5_7 C 0.06104(18) 0.6834(2) 0.4733(3)
C6_7 C 0.05387(18) 0.64325(19) 0.5476(3)
H3_7 H 0.0600 0.6021 0.5365
C7_7 C 0.03781(18) 0.66321(19) 0.6380(3)
H4_7 H 0.0338 0.6355 0.6892
C8_7 C 0.0753(2) 0.6053(2) 0.3601(3)
H5_7 H 0.0366 0.5881 0.3783
H6_7 H 0.1067 0.5848 0.3972
C9_7 C 0.0858(2) 0.5972(2) 0.2539(3)
H7_7 H 0.0717 0.5576 0.2333
H8_7 H 0.0637 0.6276 0.2171
C10_7 C 0.16720(18) 0.5886(2) 0.1458(3)
C11_7 C 0.2283(2) 0.58300(18) 0.1351(3)
H9_7 H 0.2538 0.5896 0.1885
C12_7 C 0.25178(18) 0.56793(19) 0.0466(3)
H10_7 H 0.2935 0.5637 0.0399
C15_7 C 0.13052(18) 0.58064(19) 0.0678(3)
H12_7 H 0.0889 0.5855 0.0742
C17_8 C 0.1090(2) 0.7396(2) 0.9923(3)
C18_8 C 0.17273(18) 0.81846(19) 0.8873(3)
H14_8 H 0.1937 0.8472 0.8508
C19_8 C 0.20150(17) 0.76915(17) 0.9212(3)
C20_8 C 0.16855(18) 0.7293(2) 0.9769(3)
C21_8 C 0.11297(19) 0.82612(19) 0.9064(3)
H16_8 H 0.0938 0.8607 0.8829
C22_8 C 0.26442(17) 0.75660(18) 0.8970(3)
C23_8 C 0.30442(18) 0.80230(19) 0.8806(3)
H17_8 H 0.2922 0.8425 0.8855
C24_8 C 0.36194(18) 0.78832(19) 0.8573(3)
H18_8 H 0.3889 0.8199 0.8463
C25_8 C 0.34383(19) 0.68894(19) 0.8650(3)
H19_8 H 0.3572 0.6492 0.8600
C26_8 C 0.2851(2) 0.69954(18) 0.8887(3)
H20_8 H 0.2590 0.6672 0.8992
N1_8 N 0.08123(14) 0.78667(16) 0.9568(2)
O2_8 O 0.00216(12) 0.70616(13) 0.8204(2)
O3_7 O 0.07612(15) 0.66747(14) 0.3810(2)
O4_7 O 0.14789(13) 0.60272(13) 0.2362(2)
H21_8 H 0.0024 0.9025 0.9493
O1_8 O 0.99979(14) 0.79804(13) 0.7683(2)
O7_8 O 0.96933(14) 0.88622(13) 0.9367(2)
H22_8 H 0.9523 0.9028 0.8892
C2_8 C 0.77745(19) 0.52752(17) 0.9056(3)
C3_8 C 0.7374(2) 0.53510(19) 0.8301(3)
H1_8 H 0.6963 0.5288 0.8408
C4_8 C 0.7572(2) 0.5519(2) 0.7391(3)
H2_8 H 0.7297 0.5570 0.6880
C5_8 C 0.8166(2) 0.56104(18) 0.7233(3)
C6_8 C 0.85675(19) 0.55387(18) 0.7976(3)
H3_8 H 0.8979 0.5600 0.7865
C7_8 C 0.83679(19) 0.53781(18) 0.8880(3)
H4_8 H 0.8645 0.5338 0.9392
C8_8 C 0.8947(2) 0.5753(2) 0.6101(3)
H5_8 H 0.9119 0.5366 0.6283
H6_8 H 0.9152 0.6067 0.6472
C9_8 C 0.9028(2) 0.5858(2) 0.5039(3)
H7_8 H 0.9424 0.5717 0.4833
H8_8 H 0.8724 0.5637 0.4671
C10_8 C 0.9114(2) 0.66720(18) 0.3958(3)
C11_8 C 0.91700(18) 0.7283(2) 0.3851(3)
H9_8 H 0.9104 0.7538 0.4385
C12_8 C 0.93207(19) 0.75178(18) 0.2966(3)
H10_8 H 0.9363 0.7935 0.2899
C13_8 C 0.94114(19) 0.71545(16) 0.2171(3)
C14_8 C 0.93458(19) 0.65523(19) 0.2294(3)
H11_8 H 0.9406 0.6298 0.1758
C15_8 C 0.91936(19) 0.63052(18) 0.3178(3)
H12_8 H 0.9145 0.5889 0.3242
C16_4 C 0.95732(18) 0.74144(16) 0.1214(3)
O3_8 O 0.83253(14) 0.57612(15) 0.6310(2)
O4_8 O 0.89728(13) 0.64789(13) 0.4862(2)
O5_4 O 0.97215(12) 0.70673(12) 0.0539(2)
O6_4 O 0.95555(12) 0.79646(12) 0.10852(19)
H13_8 H 0.0870 0.7119 0.0296
H15_8 H 0.1871 0.6954 0.0041
loop_
_geom_bond_atom_site_label_1
_geom_bond_atom_site_label_2
_geom_bond_site_symmetry_1
_geom_bond_site_symmetry_2
C14 C13 1_555 1_555
H11 C14 1_555 1_555
C16 C13 1_555 1_555
O5 C16 1_555 1_555
O6 C16 1_555 1_555
Cd3 O5 1_555 1_555
O6 Cd3 1_555 1_555
C1 C2 1_555 1_555
C2 C3 1_555 1_555
C3 H1 1_555 1_555
C4 C3 1_555 1_555
H2 C4 1_555 1_555
C5 C4 1_555 1_555
C6 C5 1_555 1_555
H3 C6 1_555 1_555
C7 C2 1_555 1_555
H4 C7 1_555 1_555
C8 H5 1_555 1_555
H6 C8 1_555 1_555
C9 C8 1_555 1_555
C17 H13 1_555 1_555
C18 H14 1_555 1_555
C19 C18 1_555 1_555
C20 C17 1_555 1_555
H15 C20 1_555 1_555
C21 C18 1_555 1_555
H16 C21 1_555 1_555
C22 C19 1_555 1_555
C23 C22 1_555 1_555
H17 C23 1_555 1_555
C24 C23 1_555 1_555
H18 C24 1_555 1_555
C25 H19 1_555 1_555
C26 C22 1_555 1_555
H20 C26 1_555 1_555
Cd3 N1 1_555 1_555
N1 C17 1_555 1_555
N2 C24 1_555 1_555
O1 C1 1_555 1_555
O2 C1 1_555 1_555
O3 C5 1_555 1_555
O7 Cd3 1_555 1_555
H21 O7 1_555 1_555
H22 O7 1_555 1_555
Cd2 N2 1_555 1_555
N3 Cd3 1_555 1_555
C6 C7 1_555 1_555
C8 O3 1_555 1_555
C19 C20 1_555 1_555
C21 N1 1_555 1_555
C25 C26 1_555 1_555
C25 N2 1_555 1_555
Cd3 O1 1_555 1_555
Cd3 O2 1_555 1_555
C10 C11 1_555 1_555
C11 H9 1_555 1_555
C12 C11 1_555 1_555
H10 C12 1_555 1_555
C13_2 C12 1_555 1_555
C14_2 C13_2 1_555 1_555
H11_2 C14_2 1_555 1_555
C15 C10 1_555 1_555
H12 C15 1_555 1_555
C16_2 C13_2 1_555 1_555
O5_2 C16_2 1_555 1_555
O6_2 C16_2 1_555 1_555
Cd2 O5_2 1_555 1_555
C10 O4 1_555 1_555
C14_2 C15 1_555 1_555
O6_2 Cd2 1_555 1_555
O7_2 Cd2 1_555 1_555
H22_2 O7_2 1_555 1_555
Cd2 O1_2 1_555 1_555
C1_2 C2_2 1_555 1_555
C2_2 C3_2 1_555 1_555
C3_2 H1_2 1_555 1_555
H3_2 C6_2 1_555 1_555
C7_2 C2_2 1_555 1_555
H4_2 C7_2 1_555 1_555
C17_2 H13_2 1_555 1_555
C18_2 H14_2 1_555 1_555
C19_2 C18_2 1_555 1_555
C20_2 C17_2 1_555 1_555
H15_2 C20_2 1_555 1_555
C21_2 C18_2 1_555 1_555
H16_2 C21_2 1_555 1_555
C22_2 C19_2 1_555 1_555
C23_2 C22_2 1_555 1_555
H17_2 C23_2 1_555 1_555
C24_2 C23_2 1_555 1_555
H18_2 C24_2 1_555 1_555
C25_2 H19_2 1_555 1_555
C26_2 C22_2 1_555 1_555
H20_2 C26_2 1_555 1_555
N1_2 C17_2 1_555 1_555
N3 C24_2 1_555 1_555
O2_2 C1_2 1_555 1_555
C6_2 C7_2 1_555 1_555
C19_2 C20_2 1_555 1_555
C21_2 N1_2 1_555 1_555
C25_2 C26_2 1_555 1_555
C25_2 N3 1_555 1_555
C1_3 C2_3 1_555 1_555
C2_3 C3_3 1_555 1_555
C3_3 H1_3 1_555 1_555
C4_2 C3_3 1_555 1_555
H2_2 C4_2 1_555 1_555
C5_2 C4_2 1_555 1_555
C6_3 C5_2 1_555 1_555
H3_3 C6_3 1_555 1_555
C7_3 C2_3 1_555 1_555
H4_3 C7_3 1_555 1_555
C8_2 H5_2 1_555 1_555
H6_2 C8_2 1_555 1_555
C9_2 C8_2 1_555 1_555
H7_2 C9_2 1_555 1_555
H8_2 C9_2 1_555 1_555
C10_2 C11_2 1_555 1_555
C11_2 H9_2 1_555 1_555
C12_2 C11_2 1_555 1_555
H10_2 C12_2 1_555 1_555
C15_2 C10_2 1_555 1_555
H12_2 C15_2 1_555 1_555
C18_3 H14_3 1_555 1_555
C19_3 C18_3 1_555 1_555
C20_3 C17_3 1_555 1_555
C21_3 C18_3 1_555 1_555
H16_3 C21_3 1_555 1_555
C22_3 C19_3 1_555 1_555
C23_3 C22_3 1_555 1_555
H17_3 C23_3 1_555 1_555
C24_3 C23_3 1_555 1_555
H18_3 C24_3 1_555 1_555
C25_3 H19_3 1_555 1_555
C26_3 C22_3 1_555 1_555
H20_3 C26_3 1_555 1_555
N1_3 C17_3 1_555 1_555
N2_2 C24_3 1_555 1_555
O2_3 C1_3 1_555 1_555
O3_2 C5_2 1_555 1_555
O4_2 C9_2 1_555 1_555
Cd2_2 N2_2 1_555 1_555
C6_3 C7_3 1_555 1_555
C8_2 O3_2 1_555 1_555
C10_2 O4_2 1_555 1_555
C19_3 C20_3 1_555 1_555
C21_3 N1_3 1_555 1_555
C25_3 C26_3 1_555 1_555
C25_3 N2_2 1_555 1_555
O7_3 Cd1 1_555 1_555
H22_3 O7_3 1_555 1_555
N3_2 Cd1 1_555 1_555
Cd1 O1_3 1_555 1_555
C17_4 H13_3 1_555 1_555
C18_4 H14_4 1_555 1_555
C19_4 C18_4 1_555 1_555
C20_4 C17_4 1_555 1_555
H15_3 C20_4 1_555 1_555
C21_4 C18_4 1_555 1_555
H16_4 C21_4 1_555 1_555
C22_4 C19_4 1_555 1_555
C23_4 C22_4 1_555 1_555
H17_4 C23_4 1_555 1_555
C24_4 C23_4 1_555 1_555
H18_4 C24_4 1_555 1_555
C25_4 H19_4 1_555 1_555
C26_4 C22_4 1_555 1_555
H20_4 C26_4 1_555 1_555
Cd2_2 N1_4 1_555 1_555
N1_4 C17_4 1_555 1_555
N3_2 C24_4 1_555 1_555
O1_4 C1_4 1_555 1_555
O2_4 C1_4 1_555 1_555
O7_4 Cd2_2 1_555 1_555
H21_4 O7_4 1_555 1_555
H22_4 O7_4 1_555 1_555
C27 O8 1_555 1_555
O8 Cd2_2 1_555 1_555
O9 Cd2_2 1_555 1_555
C19_4 C20_4 1_555 1_555
C21_4 N1_4 1_555 1_555
C25_4 C26_4 1_555 1_555
C25_4 N3_2 1_555 1_555
Cd2_2 O1_4 1_555 1_555
Cd2_2 O2_4 1_555 1_555
C27 O9 1_555 1_555
H2_3 C4_3 1_555 1_555
C5_3 C4_3 1_555 1_555
C8_3 H5_3 1_555 1_555
H6_3 C8_3 1_555 1_555
C9_3 C8_3 1_555 1_555
H7_3 C9_3 1_555 1_555
H8_3 C9_3 1_555 1_555
C10_3 C11_3 1_555 1_555
C11_3 H9_3 1_555 1_555
C12_3 C11_3 1_555 1_555
H10_3 C12_3 1_555 1_555
C13_3 C12_3 1_555 1_555
C14_3 C13_3 1_555 1_555
H11_3 C14_3 1_555 1_555
C15_3 C10_3 1_555 1_555
H12_3 C15_3 1_555 1_555
C27 C13_3 1_555 1_555
O3_3 C5_3 1_555 1_555
O4_3 C9_3 1_555 1_555
C8_3 O3_3 1_555 1_555
C10_3 O4_3 1_555 1_555
C14_3 C15_3 1_555 1_555
C27_2 O8_2 1_555 1_555
C27_2 O9_2 1_555 1_555
C2_4 C3_4 1_555 1_555
C3_4 H1_4 1_555 1_555
C4_4 C3_4 1_555 1_555
H2_4 C4_4 1_555 1_555
C5_4 C4_4 1_555 1_555
C6_4 C5_4 1_555 1_555
H3_4 C6_4 1_555 1_555
C7_4 C2_4 1_555 1_555
H4_4 C7_4 1_555 1_555
C8_4 H5_4 1_555 1_555
H6_4 C8_4 1_555 1_555
C9_4 C8_4 1_555 1_555
H7_4 C9_4 1_555 1_555
H8_4 C9_4 1_555 1_555
C10_4 C11_4 1_555 1_555
C11_4 H9_4 1_555 1_555
C12_4 C11_4 1_555 1_555
H10_4 C12_4 1_555 1_555
C13_4 C12_4 1_555 1_555
C14_4 C13_4 1_555 1_555
H11_4 C14_4 1_555 1_555
C15_4 C10_4 1_555 1_555
H12_4 C15_4 1_555 1_555
C27_2 C13_4 1_555 1_555
O3_4 C5_4 1_555 1_555
O4_4 C9_4 1_555 1_555
C6_4 C7_4 1_555 1_555
C8_4 O3_4 1_555 1_555
C10_4 O4_4 1_555 1_555
C14_4 C15_4 1_555 1_555
O7_5 Cd1_2 1_555 1_555
H22_5 O7_5 1_555 1_555
C27_3 O8_3 1_555 1_555
N3_3 Cd1_2 1_555 1_555
O8_3 Cd1_2 1_555 1_555
O9_3 Cd1_2 1_555 1_555
Cd1_2 O1_5 1_555 1_555
C27_3 O9_3 1_555 1_555
C1_5 C2_5 1_555 1_555
C2_5 C3_5 1_555 1_555
C3_5 H1_5 1_555 1_555
H3_5 C6_5 1_555 1_555
C7_5 C2_5 1_555 1_555
H4_5 C7_5 1_555 1_555
C17_5 H13_5 1_555 1_555
C18_5 H14_5 1_555 1_555
C19_5 C18_5 1_555 1_555
C20_5 C17_5 1_555 1_555
H15_5 C20_5 1_555 1_555
C21_5 C18_5 1_555 1_555
H16_5 C21_5 1_555 1_555
C22_5 C19_5 1_555 1_555
C23_5 C22_5 1_555 1_555
H17_5 C23_5 1_555 1_555
C24_5 C23_5 1_555 1_555
H18_5 C24_5 1_555 1_555
C25_5 H19_5 1_555 1_555
C26_5 C22_5 1_555 1_555
H20_5 C26_5 1_555 1_555
N1_5 C17_5 1_555 1_555
N2_3 C24_5 1_555 1_555
O2_5 C1_5 1_555 1_555
Cd2_3 N2_3 1_555 1_555
C6_5 C7_5 1_555 1_555
C19_5 C20_5 1_555 1_555
C21_5 N1_5 1_555 1_555
C25_5 C26_5 1_555 1_555
C25_5 N2_3 1_555 1_555
C10_5 C11_5 1_555 1_555
C11_5 H9_5 1_555 1_555
C12_5 C11_5 1_555 1_555
H10_5 C12_5 1_555 1_555
C13_5 C12_5 1_555 1_555
C14_5 C13_5 1_555 1_555
H11_5 C14_5 1_555 1_555
C15_5 C10_5 1_555 1_555
H12_5 C15_5 1_555 1_555
C27_3 C13_5 1_555 1_555
C10_5 O4_5 1_555 1_555
C14_5 C15_5 1_555 1_555
C1_6 C2_6 1_555 1_555
C2_6 C3_6 1_555 1_555
C3_6 H1_6 1_555 1_555
C4_5 C3_6 1_555 1_555
H2_5 C4_5 1_555 1_555
C5_5 C4_5 1_555 1_555
C6_6 C5_5 1_555 1_555
H3_6 C6_6 1_555 1_555
C7_6 C2_6 1_555 1_555
H4_6 C7_6 1_555 1_555
C8_5 H5_5 1_555 1_555
H6_5 C8_5 1_555 1_555
C9_5 C8_5 1_555 1_555
C17_6 H13_6 1_555 1_555
C18_6 H14_6 1_555 1_555
C19_6 C18_6 1_555 1_555
C20_6 C17_6 1_555 1_555
H15_6 C20_6 1_555 1_555
C21_6 C18_6 1_555 1_555
H16_6 C21_6 1_555 1_555
C22_6 C19_6 1_555 1_555
C23_6 C22_6 1_555 1_555
H17_6 C23_6 1_555 1_555
C24_6 C23_6 1_555 1_555
H18_6 C24_6 1_555 1_555
C25_6 H19_6 1_555 1_555
C26_6 C22_6 1_555 1_555
H20_6 C26_6 1_555 1_555
Cd2_3 N1_6 1_555 1_555
N1_6 C17_6 1_555 1_555
N3_3 C24_6 1_555 1_555
O1_6 C1_6 1_555 1_555
O2_6 C1_6 1_555 1_555
O3_5 C5_5 1_555 1_555
O7_6 Cd2_3 1_555 1_555
H21_6 O7_6 1_555 1_555
H22_6 O7_6 1_555 1_555
C27_4 O8_4 1_555 1_555
O8_4 Cd2_3 1_555 1_555
O9_4 Cd2_3 1_555 1_555
C6_6 C7_6 1_555 1_555
C8_5 O3_5 1_555 1_555
C19_6 C20_6 1_555 1_555
C21_6 N1_6 1_555 1_555
C25_6 C26_6 1_555 1_555
C25_6 N3_3 1_555 1_555
Cd2_3 O1_6 1_555 1_555
Cd2_3 O2_6 1_555 1_555
C27_4 O9_4 1_555 1_555
C14_6 C13_6 1_555 1_555
H11_6 C14_6 1_555 1_555
C27_4 C13_6 1_555 1_555
H2_6 C4_6 1_555 1_555
C5_6 C4_6 1_555 1_555
C8_6 H5_6 1_555 1_555
H6_6 C8_6 1_555 1_555
C9_6 C8_6 1_555 1_555
H7_6 C9_6 1_555 1_555
H8_6 C9_6 1_555 1_555
C10_6 C11_6 1_555 1_555
C11_6 H9_6 1_555 1_555
C12_6 C11_6 1_555 1_555
H10_6 C12_6 1_555 1_555
C13_7 C12_6 1_555 1_555
C14_7 C13_7 1_555 1_555
H11_7 C14_7 1_555 1_555
C15_6 C10_6 1_555 1_555
H12_6 C15_6 1_555 1_555
C16_3 C13_7 1_555 1_555
O3_6 C5_6 1_555 1_555
O4_6 C9_6 1_555 1_555
O5_3 C16_3 1_555 1_555
O6_3 C16_3 1_555 1_555
Cd3_2 O5_3 1_555 1_555
C8_6 O3_6 1_555 1_555
C10_6 O4_6 1_555 1_555
C14_7 C15_6 1_555 1_555
O6_3 Cd3_2 1_555 1_555
C17_7 H13_7 1_555 1_555
C18_7 H14_7 1_555 1_555
C19_7 C18_7 1_555 1_555
C20_7 C17_7 1_555 1_555
H15_7 C20_7 1_555 1_555
C21_7 C18_7 1_555 1_555
H16_7 C21_7 1_555 1_555
C22_7 C19_7 1_555 1_555
C23_7 C22_7 1_555 1_555
H17_7 C23_7 1_555 1_555
C24_7 C23_7 1_555 1_555
H18_7 C24_7 1_555 1_555
C25_7 H19_7 1_555 1_555
C26_7 C22_7 1_555 1_555
H20_7 C26_7 1_555 1_555
Cd3_2 N1_7 1_555 1_555
N1_7 C17_7 1_555 1_555
N2_4 C24_7 1_555 1_555
O1_7 C1_7 1_555 1_555
O2_7 C1_7 1_555 1_555
O7_7 Cd3_2 1_555 1_555
H21_7 O7_7 1_555 1_555
H22_7 O7_7 1_555 1_555
Cd2_4 N2_4 1_555 1_555
N3_4 Cd3_2 1_555 1_555
C19_7 C20_7 1_555 1_555
C21_7 N1_7 1_555 1_555
C25_7 C26_7 1_555 1_555
C25_7 N2_4 1_555 1_555
Cd3_2 O1_7 1_555 1_555
Cd3_2 O2_7 1_555 1_555
C1_8 C2_7 1_555 1_555
C2_7 C3_7 1_555 1_555
C3_7 H1_7 1_555 1_555
C4_7 C3_7 1_555 1_555
H2_7 C4_7 1_555 1_555
C5_7 C4_7 1_555 1_555
C6_7 C5_7 1_555 1_555
H3_7 C6_7 1_555 1_555
C7_7 C2_7 1_555 1_555
H4_7 C7_7 1_555 1_555
C8_7 H5_7 1_555 1_555
H6_7 C8_7 1_555 1_555
C9_7 C8_7 1_555 1_555
H7_7 C9_7 1_555 1_555
H8_7 C9_7 1_555 1_555
C10_7 C11_7 1_555 1_555
C11_7 H9_7 1_555 1_555
C12_7 C11_7 1_555 1_555
H10_7 C12_7 1_555 1_555
C15_7 C10_7 1_555 1_555
H12_7 C15_7 1_555 1_555
C18_8 H14_8 1_555 1_555
C19_8 C18_8 1_555 1_555
C20_8 C17_8 1_555 1_555
C21_8 C18_8 1_555 1_555
H16_8 C21_8 1_555 1_555
C22_8 C19_8 1_555 1_555
C23_8 C22_8 1_555 1_555
H17_8 C23_8 1_555 1_555
C24_8 C23_8 1_555 1_555
H18_8 C24_8 1_555 1_555
C25_8 H19_8 1_555 1_555
C26_8 C22_8 1_555 1_555
H20_8 C26_8 1_555 1_555
N1_8 C17_8 1_555 1_555
N3_4 C24_8 1_555 1_555
O2_8 C1_8 1_555 1_555
O3_7 C5_7 1_555 1_555
O4_7 C9_7 1_555 1_555
C6_7 C7_7 1_555 1_555
C8_7 O3_7 1_555 1_555
C10_7 O4_7 1_555 1_555
C19_8 C20_8 1_555 1_555
C21_8 N1_8 1_555 1_555
C25_8 C26_8 1_555 1_555
C25_8 N3_4 1_555 1_555
O7_8 Cd2_4 1_555 1_555
H22_8 O7_8 1_555 1_555
Cd2_4 O1_8 1_555 1_555
C2_8 C3_8 1_555 1_555
C3_8 H1_8 1_555 1_555
C4_8 C3_8 1_555 1_555
H2_8 C4_8 1_555 1_555
C5_8 C4_8 1_555 1_555
C6_8 C5_8 1_555 1_555
H3_8 C6_8 1_555 1_555
C7_8 C2_8 1_555 1_555
H4_8 C7_8 1_555 1_555
C8_8 H5_8 1_555 1_555
H6_8 C8_8 1_555 1_555
C9_8 C8_8 1_555 1_555
H7_8 C9_8 1_555 1_555
H8_8 C9_8 1_555 1_555
C10_8 C11_8 1_555 1_555
C11_8 H9_8 1_555 1_555
C12_8 C11_8 1_555 1_555
H10_8 C12_8 1_555 1_555
C13_8 C12_8 1_555 1_555
C14_8 C13_8 1_555 1_555
H11_8 C14_8 1_555 1_555
C15_8 C10_8 1_555 1_555
H12_8 C15_8 1_555 1_555
C16_4 C13_8 1_555 1_555
O3_8 C5_8 1_555 1_555
O4_8 C9_8 1_555 1_555
O5_4 C16_4 1_555 1_555
O6_4 C16_4 1_555 1_555
C6_8 C7_8 1_555 1_555
C8_8 O3_8 1_555 1_555
C10_8 O4_8 1_555 1_555
C14_8 C15_8 1_555 1_555

#END
