
###############################################################################
#
# This file contains modified crystal structure data generated from the
# MOF subset of the Cambridge Structural Database (CSD) v543 
# hosted by the Cambridge Crystallographic Data Centre (CCDC).
#
# This work is licensed under the Creative Commons
# Attribution-NonCommercial-ShareAlike 4.0 International License.
# To view a copy of this license, visit
# http://creativecommons.org/licenses/by-nc-sa/4.0/
# or send a letter to
# Creative Commons, PO Box 1866, Mountain View, CA 94042, USA.
#
# CIF created using the CSD Python API on 29 September 2022
# The structure has been converted into the P1 space group
# The structure has a 3D framework
# The original CSD entry YEGQUZ is in the monoclinic crystal system
# The framework has been calculated to contain at least 10.0% void space
# The void calculation uses a probe of radius 1.32A, grid spacing 0.4
#
###############################################################################

data_YEGQUZ
_chemical_formula_moiety         '(C240 H192 Mn14 N24 O70)n'
_symmetry_cell_setting           triclinic
_symmetry_space_group_name_H-M   'P 1'
_symmetry_Int_Tables_number      1
_space_group_name_Hall           'P 1'
loop_
_symmetry_equiv_pos_site_id
_symmetry_equiv_pos_as_xyz
1 x,y,z
_cell_length_a                   14.3003(15)
_cell_length_b                   18.084(2)
_cell_length_c                   25.183(3)
_cell_angle_alpha                90
_cell_angle_beta                 93.174(2)
_cell_angle_gamma                90
_cell_volume                     6502.5
loop_
_atom_site_label
_atom_site_type_symbol
_atom_site_fract_x
_atom_site_fract_y
_atom_site_fract_z
Mn1 Mn 0.00350(6) 0.18425(5) 0.49115(3)
Mn2 Mn 0.2500 0.2500 0.5000
O1 O 0.0490(3) 0.1163(2) 0.42604(17)
O2 O 0.1375(3) 0.2150(2) 0.44024(14)
O3 O 0.2494(3) 0.1180(3) 0.20877(17)
O6 O 0.3449(3) 0.1782(2) 0.45969(15)
O7 O 0.4883(3) 0.2251(3) 0.45962(17)
O8 O 0.5000 0.0358(3) 0.2500
C1 C 0.1119(4) 0.1599(3) 0.4110(2)
C2 C 0.1493(4) 0.1488(3) 0.3583(2)
C3 C 0.1237(4) 0.0853(4) 0.3300(2)
H1 H 0.0851 0.0504 0.3448
C4 C 0.1555(5) 0.0742(4) 0.2802(2)
H2 H 0.1382 0.0318 0.2613
C5 C 0.2123(4) 0.1249(4) 0.2584(2)
C6 C 0.2386(4) 0.1884(3) 0.2860(2)
H3 H 0.2772 0.2231 0.2709
C7 C 0.2066(4) 0.1999(3) 0.3365(2)
H4 H 0.2242 0.2422 0.3555
C8 C 0.2222(5) 0.0584(4) 0.1759(2)
C9 C 0.1404(5) 0.0598(4) 0.1464(3)
H5 H 0.0996 0.0995 0.1490
C10 C 0.1185(5) 0.0029(4) 0.1133(3)
H6 H 0.0610 0.0029 0.0942
C13 C 0.2838(5) 0.0015(4) 0.1719(3)
H8 H 0.3397 0.0011 0.1927
C15 C 0.4227(4) 0.1863(3) 0.4407(2)
C16 C 0.4424(4) 0.1456(3) 0.3892(2)
C17 C 0.3875(4) 0.0883(3) 0.3705(2)
H9 H 0.3368 0.0738 0.3896
C18 C 0.4054(5) 0.0509(3) 0.3237(2)
H10 H 0.3696 0.0104 0.3123
C19 C 0.4778(5) 0.0761(4) 0.2951(2)
C20 C 0.5316(5) 0.1362(4) 0.3121(3)
H11 H 0.5786 0.1539 0.2914
C21 C 0.5147(5) 0.1693(4) 0.3598(3)
H12 H 0.5526 0.2080 0.3722
C29 C 0.0096(9) 0.3733(7) 0.3266(5)
H19 H 0.0319 0.4140 0.3484
H21 H 0.0615 0.3502 0.3106
O10 O 0.6551(3) 0.1782(2) 0.04031(15)
O11 O 0.5117(3) 0.2251(3) 0.04038(17)
C37 C 0.5773(4) 0.1863(3) 0.0593(2)
C38 C 0.5576(4) 0.1456(3) 0.1108(2)
C39 C 0.6125(4) 0.0883(3) 0.1295(2)
H30 H 0.6632 0.0738 0.1104
C40 C 0.5946(5) 0.0509(3) 0.1763(2)
H31 H 0.6304 0.0104 0.1877
C41 C 0.5222(5) 0.0761(4) 0.2049(2)
C42 C 0.4684(5) 0.1362(4) 0.1879(3)
H32 H 0.4214 0.1539 0.2086
C43 C 0.4853(5) 0.1693(4) 0.1402(3)
H33 H 0.4474 0.2080 0.1278
O15 O 0.2187(3) 0.1596(2) 0.55415(16)
O16 O 0.0726(3) 0.1171(2) 0.54755(18)
C54 C 0.1803(4) 0.0559(3) 0.6070(2)
C55 C 0.2626(5) 0.0563(4) 0.6364(3)
H40 H 0.3047 0.0949 0.6330
C57 C 0.1552(4) 0.1165(3) 0.5666(2)
Mn6 Mn 0.49650(6) 0.31575(5) 0.50885(3)
Mn8 Mn 0.7500 0.2500 0.0000
O18 O 0.3625(3) 0.2850(2) 0.55976(14)
O19 O 0.2813(3) 0.3404(2) 0.44585(16)
O21 O 0.1551(3) 0.3218(2) 0.54031(15)
O23 O 0.0117(3) 0.2749(3) 0.54038(17)
Mn7 Mn 0.50350(6) 0.31575(5) 0.99115(3)
Mn8_2 Mn 0.7500 0.2500 1.0000
Mn10 Mn 0.2500 0.7500 0.0000
O20 O 0.0726(3) 0.8829(2) 0.04755(18)
O22 O 0.0117(3) 0.7251(3) 0.04038(17)
O4 O 0.2187(3) 0.8404(2) 0.05415(16)
C11 C 0.1803(4) 0.9441(3) 0.1070(2)
C12 C 0.2626(5) 0.9437(4) 0.1364(3)
H7 H 0.3047 0.9051 0.1330
C14 C 0.1552(4) 0.8835(3) 0.0666(2)
Mn3 Mn 0.00350(6) 0.81575(5) 0.99115(3)
O12 O 0.0490(3) 0.8837(2) 0.92604(17)
O13 O 0.1375(3) 0.7850(2) 0.94024(14)
O14 O 0.2494(3) 0.8820(3) 0.70877(17)
C44 C 0.1119(4) 0.8401(3) 0.9110(2)
C45 C 0.1493(4) 0.8512(3) 0.8583(2)
C46 C 0.1237(4) 0.9147(4) 0.8300(2)
H34 H 0.0851 0.9496 0.8448
C47 C 0.1555(5) 0.9258(4) 0.7802(2)
H35 H 0.1382 0.9682 0.7613
C48 C 0.2123(4) 0.8751(4) 0.7584(2)
C49 C 0.2386(4) 0.8116(3) 0.7860(2)
H36 H 0.2772 0.7769 0.7709
C50 C 0.2066(4) 0.8001(3) 0.8365(2)
H37 H 0.2242 0.7578 0.8555
C51 C 0.2222(5) 0.9416(4) 0.6759(2)
C52 C 0.1404(5) 0.9402(4) 0.6464(3)
H38 H 0.0996 0.9005 0.6490
C53 C 0.1185(5) 0.9971(4) 0.6133(3)
H39 H 0.0610 0.9971 0.5942
C56 C 0.2838(5) 0.9985(4) 0.6719(3)
H41 H 0.3397 0.9989 0.6927
C59 C 0.0096(9) 0.6267(7) 0.8266(5)
H43 H 0.0319 0.5860 0.8484
H45 H 0.0615 0.6498 0.8106
Mn10_2 Mn 0.2500 0.7500 1.0000
Mn4 Mn 0.99650(6) 0.81575(5) 0.50885(3)
Mn1_2 Mn 0.99650(6) 0.18425(5) 0.00885(3)
O1_2 O 0.9510(3) 0.1163(2) 0.07396(17)
O2_2 O 0.8625(3) 0.2150(2) 0.05976(14)
O3_2 O 0.7506(3) 0.1180(3) 0.29123(17)
C1_2 C 0.8881(4) 0.1599(3) 0.0890(2)
C2_2 C 0.8507(4) 0.1488(3) 0.1417(2)
C3_2 C 0.8763(4) 0.0853(4) 0.1700(2)
H1_2 H 0.9149 0.0504 0.1552
C4_2 C 0.8445(5) 0.0742(4) 0.2198(2)
H2_2 H 0.8618 0.0318 0.2387
C5_2 C 0.7877(4) 0.1249(4) 0.2416(2)
C6_2 C 0.7614(4) 0.1884(3) 0.2140(2)
H3_2 H 0.7228 0.2231 0.2291
C7_2 C 0.7934(4) 0.1999(3) 0.1635(2)
H4_2 H 0.7758 0.2422 0.1445
C8_2 C 0.7778(5) 0.0584(4) 0.3241(2)
C9_2 C 0.8596(5) 0.0598(4) 0.3536(3)
H5_2 H 0.9004 0.0995 0.3510
C10_2 C 0.8815(5) 0.0029(4) 0.3867(3)
H6_2 H 0.9390 0.0029 0.4058
C13_2 C 0.7162(5) 0.0015(4) 0.3281(3)
H8_2 H 0.6603 0.0011 0.3073
C29_2 C 0.9904(9) 0.3733(7) 0.1734(5)
H19_2 H 0.9681 0.4140 0.1516
H21_2 H 0.9385 0.3502 0.1894
O19_2 O 0.7187(3) 0.3404(2) 0.05415(16)
O15_2 O 0.7813(3) 0.1596(2) 0.94585(16)
O16_2 O 0.9274(3) 0.1171(2) 0.95245(18)
C54_2 C 0.8197(4) 0.0559(3) 0.8930(2)
C55_2 C 0.7374(5) 0.0563(4) 0.8636(3)
H40_2 H 0.6953 0.0949 0.8670
C57_2 C 0.8448(4) 0.1165(3) 0.9334(2)
O18_2 O 0.6375(3) 0.2850(2) 0.94024(14)
O21_2 O 0.8449(3) 0.3218(2) 0.95969(15)
O23_2 O 0.9883(3) 0.2749(3) 0.95962(17)
O4_2 O 0.7813(3) 0.8404(2) 0.44585(16)
O5 O 0.9274(3) 0.8829(2) 0.45245(18)
C11_2 C 0.8197(4) 0.9441(3) 0.3930(2)
C12_2 C 0.7374(5) 0.9437(4) 0.3636(3)
H7_2 H 0.6953 0.9051 0.3670
C14_2 C 0.8448(4) 0.8835(3) 0.4334(2)
Mn9 Mn 0.7500 0.7500 0.5000
O12_2 O 0.9510(3) 0.8837(2) 0.57396(17)
O13_2 O 0.8625(3) 0.7850(2) 0.55976(14)
O14_2 O 0.7506(3) 0.8820(3) 0.79123(17)
C44_2 C 0.8881(4) 0.8401(3) 0.5890(2)
C45_2 C 0.8507(4) 0.8512(3) 0.6417(2)
C46_2 C 0.8763(4) 0.9147(4) 0.6700(2)
H34_2 H 0.9149 0.9496 0.6552
C47_2 C 0.8445(5) 0.9258(4) 0.7198(2)
H35_2 H 0.8618 0.9682 0.7387
C48_2 C 0.7877(4) 0.8751(4) 0.7416(2)
C49_2 C 0.7614(4) 0.8116(3) 0.7140(2)
H36_2 H 0.7228 0.7769 0.7291
C50_2 C 0.7934(4) 0.8001(3) 0.6635(2)
H37_2 H 0.7758 0.7578 0.6445
C51_2 C 0.7778(5) 0.9416(4) 0.8241(2)
C52_2 C 0.8596(5) 0.9402(4) 0.8536(3)
H38_2 H 0.9004 0.9005 0.8510
C53_2 C 0.8815(5) 0.9971(4) 0.8867(3)
H39_2 H 0.9390 0.9971 0.9058
C56_2 C 0.7162(5) 0.9985(4) 0.8281(3)
H41_2 H 0.6603 0.9989 0.8073
C59_2 C 0.9904(9) 0.6267(7) 0.6734(5)
H43_2 H 0.9681 0.5860 0.6516
H45_2 H 0.9385 0.6498 0.6894
O22_2 O 0.9883(3) 0.7251(3) 0.45962(17)
O8_2 O 0.0000 0.5358(3) 0.2500
C20_2 C 0.0316(5) 0.6362(4) 0.3121(3)
H11_2 H 0.0786 0.6539 0.2914
C21_2 C 0.0147(5) 0.6693(4) 0.3598(3)
H12_2 H 0.0526 0.7080 0.3722
O10_2 O 0.1551(3) 0.6782(2) 0.04031(15)
C37_2 C 0.0773(4) 0.6863(3) 0.0593(2)
C38_2 C 0.0576(4) 0.6456(3) 0.1108(2)
C39_2 C 0.1125(4) 0.5883(3) 0.1295(2)
H30_2 H 0.1632 0.5738 0.1104
C40_2 C 0.0946(5) 0.5509(3) 0.1763(2)
H31_2 H 0.1304 0.5104 0.1877
C41_2 C 0.0222(5) 0.5761(4) 0.2049(2)
N7 N 0.3665(3) 0.3752(3) 0.00132(19)
O20_2 O 0.5726(3) 0.3829(2) 0.04755(18)
Mn1_3 Mn 0.50350(6) 0.68425(5) 0.49115(3)
N1 N 0.3665(3) 0.6248(3) 0.50132(19)
N2 N 0.0367(4) 0.5275(3) 0.5003(3)
N3 N 0.4606(8) 0.8164(6) 0.3614(5)
O1_3 O 0.5490(3) 0.6163(2) 0.42604(17)
O2_3 O 0.6375(3) 0.7150(2) 0.44024(14)
O3_3 O 0.7494(3) 0.6180(3) 0.20877(17)
O6_2 O 0.8449(3) 0.6782(2) 0.45969(15)
O8_3 O 1.0000 0.5358(3) 0.2500
O9 O 0.4256(4) 0.7506(3) 0.4293(2)
C1_3 C 0.6119(4) 0.6599(3) 0.4110(2)
C2_3 C 0.6493(4) 0.6488(3) 0.3583(2)
C3_3 C 0.6237(4) 0.5853(4) 0.3300(2)
H1_3 H 0.5851 0.5504 0.3448
C4_3 C 0.6555(5) 0.5742(4) 0.2802(2)
H2_3 H 0.6382 0.5318 0.2613
C5_3 C 0.7123(4) 0.6249(4) 0.2584(2)
C6_3 C 0.7386(4) 0.6884(3) 0.2860(2)
H3_3 H 0.7772 0.7231 0.2709
C7_3 C 0.7066(4) 0.6999(3) 0.3365(2)
H4_3 H 0.7242 0.7422 0.3555
C8_3 C 0.7222(5) 0.5584(4) 0.1759(2)
C9_3 C 0.6404(5) 0.5598(4) 0.1464(3)
H5_3 H 0.5996 0.5995 0.1490
C10_3 C 0.6185(5) 0.5029(4) 0.1133(3)
H6_3 H 0.5610 0.5029 0.0942
C11_3 C 0.6803(4) 0.4441(3) 0.1070(2)
C12_3 C 0.7626(5) 0.4437(4) 0.1364(3)
H7_3 H 0.8047 0.4051 0.1330
C13_3 C 0.7838(5) 0.5015(4) 0.1719(3)
H8_3 H 0.8397 0.5011 0.1927
C14_3 C 0.6552(4) 0.3835(3) 0.0666(2)
C15_2 C 0.9227(4) 0.6863(3) 0.4407(2)
C16_2 C 0.9424(4) 0.6456(3) 0.3892(2)
C17_2 C 0.8875(4) 0.5883(3) 0.3705(2)
H9_2 H 0.8368 0.5738 0.3896
C18_2 C 0.9054(5) 0.5509(3) 0.3237(2)
H10_2 H 0.8696 0.5104 0.3123
C19_2 C 0.9778(5) 0.5761(4) 0.2951(2)
C22 C 0.3657(4) 0.5551(3) 0.5193(2)
H13 H 0.4218 0.5341 0.5322
C23 C 0.2856(4) 0.5136(3) 0.5195(2)
H14 H 0.2884 0.4653 0.5323
C24 C 0.2027(4) 0.5420(3) 0.5015(3)
C25 C 0.2013(4) 0.6149(4) 0.4822(3)
H15 H 0.1460 0.6369 0.4690
C26 C 0.2842(5) 0.6520(4) 0.4838(3)
H16 H 0.2832 0.7005 0.4715
C27 C 0.1177(4) 0.4964(3) 0.5008(3)
H17 H 0.1224 0.4452 0.5008
C28 C 0.4585(10) 0.8049(8) 0.4139(6)
H18 H 0.4832 0.8399 0.4378
C29_3 C 0.5096(9) 0.8733(7) 0.3266(5)
H19_3 H 0.5319 0.9140 0.3484
H20 H 0.4659 0.8912 0.2993
H21_3 H 0.5615 0.8502 0.3106
C30 C 0.4265(9) 0.7586(7) 0.3180(5)
H22 H 0.4522 0.7109 0.3270
H23 H 0.4470 0.7737 0.2840
H24 H 0.3593 0.7559 0.3165
C42_2 C 0.9684(5) 0.6362(4) 0.1879(3)
H32_2 H 0.9214 0.6539 0.2086
C43_2 C 0.9853(5) 0.6693(4) 0.1402(3)
H33_2 H 0.9474 0.7080 0.1278
N6 N 0.4606(8) 0.1836(6) 0.8614(5)
O12_3 O 0.5490(3) 0.3837(2) 0.92604(17)
O14_3 O 0.7494(3) 0.3820(3) 0.70877(17)
O15_3 O 0.7187(3) 0.6596(2) 0.55415(16)
O16_3 O 0.5726(3) 0.6171(2) 0.54755(18)
O17 O 0.4256(4) 0.2494(3) 0.9293(2)
C44_3 C 0.6119(4) 0.3401(3) 0.9110(2)
C45_3 C 0.6493(4) 0.3512(3) 0.8583(2)
C46_3 C 0.6237(4) 0.4147(4) 0.8300(2)
H34_3 H 0.5851 0.4496 0.8448
C47_3 C 0.6555(5) 0.4258(4) 0.7802(2)
H35_3 H 0.6382 0.4682 0.7613
C48_3 C 0.7123(4) 0.3751(4) 0.7584(2)
C49_3 C 0.7386(4) 0.3116(3) 0.7860(2)
H36_3 H 0.7772 0.2769 0.7709
C50_3 C 0.7066(4) 0.3001(3) 0.8365(2)
H37_3 H 0.7242 0.2578 0.8555
C51_3 C 0.7222(5) 0.4416(4) 0.6759(2)
C52_3 C 0.6404(5) 0.4402(4) 0.6464(3)
H38_3 H 0.5996 0.4005 0.6490
C53_3 C 0.6185(5) 0.4971(4) 0.6133(3)
H39_3 H 0.5610 0.4971 0.5942
C54_3 C 0.6803(4) 0.5559(3) 0.6070(2)
C55_3 C 0.7626(5) 0.5563(4) 0.6364(3)
H40_3 H 0.8047 0.5949 0.6330
C56_3 C 0.7838(5) 0.4985(4) 0.6719(3)
H41_3 H 0.8397 0.4989 0.6927
C57_3 C 0.6552(4) 0.6165(3) 0.5666(2)
C58 C 0.4585(10) 0.1951(8) 0.9139(6)
H42 H 0.4832 0.1601 0.9378
C59_3 C 0.5096(9) 0.1267(7) 0.8266(5)
H43_3 H 0.5319 0.0860 0.8484
H44 H 0.4659 0.1088 0.7993
H45_3 H 0.5615 0.1498 0.8106
C60 C 0.4265(9) 0.2414(7) 0.8180(5)
H46 H 0.4522 0.2891 0.8270
H47 H 0.4470 0.2263 0.7840
H48 H 0.3593 0.2441 0.8165
O21_3 O 0.6551(3) 0.8218(2) 0.54031(15)
O23_3 O 0.5117(3) 0.7749(3) 0.54038(17)
N4 N 0.6335(3) 0.3752(3) 0.49868(19)
N5 N 0.9633(4) 0.4725(3) 0.4997(3)
C31 C 0.6343(4) 0.4449(3) 0.4807(2)
H25 H 0.5782 0.4659 0.4678
C32 C 0.7144(4) 0.4864(3) 0.4805(2)
H26 H 0.7116 0.5347 0.4677
C33 C 0.7973(4) 0.4580(3) 0.4985(3)
C34 C 0.7987(4) 0.3851(4) 0.5178(3)
H27 H 0.8540 0.3631 0.5310
C35 C 0.7158(5) 0.3480(4) 0.5162(3)
H28 H 0.7168 0.2995 0.5285
C36 C 0.8823(4) 0.5036(3) 0.4992(3)
H29 H 0.8776 0.5548 0.4992
N5_2 N 0.0367(4) 0.4725(3) 0.0003(3)
C31_2 C 0.3657(4) 0.4449(3) 0.0193(2)
H25_2 H 0.4218 0.4659 0.0322
C32_2 C 0.2856(4) 0.4864(3) 0.0195(2)
H26_2 H 0.2884 0.5347 0.0323
C33_2 C 0.2027(4) 0.4580(3) 0.0015(3)
C36_2 C 0.1177(4) 0.5036(3) 0.0008(3)
H29_2 H 0.1224 0.5548 0.0008
C34_2 C 0.2013(4) 0.3851(4) 0.9822(3)
H27_2 H 0.1460 0.3631 0.9690
C35_2 C 0.2842(5) 0.3480(4) 0.9838(3)
H28_2 H 0.2832 0.2995 0.9715
Mn1_4 Mn 0.49650(6) 0.68425(5) 0.00885(3)
N3_2 N 0.5394(8) 0.8164(6) 0.1386(5)
O1_4 O 0.4510(3) 0.6163(2) 0.07396(17)
O2_4 O 0.3625(3) 0.7150(2) 0.05976(14)
O3_4 O 0.2506(3) 0.6180(3) 0.29123(17)
O5_2 O 0.4274(3) 0.3829(2) 0.45245(18)
O9_2 O 0.5744(4) 0.7506(3) 0.0707(2)
C1_4 C 0.3881(4) 0.6599(3) 0.0890(2)
C2_4 C 0.3507(4) 0.6488(3) 0.1417(2)
C3_4 C 0.3763(4) 0.5853(4) 0.1700(2)
H1_4 H 0.4149 0.5504 0.1552
C4_4 C 0.3445(5) 0.5742(4) 0.2198(2)
H2_4 H 0.3618 0.5318 0.2387
C5_4 C 0.2877(4) 0.6249(4) 0.2416(2)
C6_4 C 0.2614(4) 0.6884(3) 0.2140(2)
H3_4 H 0.2228 0.7231 0.2291
C7_4 C 0.2934(4) 0.6999(3) 0.1635(2)
H4_4 H 0.2758 0.7422 0.1445
C8_4 C 0.2778(5) 0.5584(4) 0.3241(2)
C9_4 C 0.3596(5) 0.5598(4) 0.3536(3)
H5_4 H 0.4004 0.5995 0.3510
C10_4 C 0.3815(5) 0.5029(4) 0.3867(3)
H6_4 H 0.4390 0.5029 0.4058
C11_4 C 0.3197(4) 0.4441(3) 0.3930(2)
C12_4 C 0.2374(5) 0.4437(4) 0.3636(3)
H7_4 H 0.1953 0.4051 0.3670
C13_4 C 0.2162(5) 0.5015(4) 0.3281(3)
H8_4 H 0.1603 0.5011 0.3073
C14_4 C 0.3448(4) 0.3835(3) 0.4334(2)
C25_2 C 0.7987(4) 0.6149(4) 0.0178(3)
H15_2 H 0.8540 0.6369 0.0310
C26_2 C 0.7158(5) 0.6520(4) 0.0162(3)
H16_2 H 0.7168 0.7005 0.0285
C28_2 C 0.5415(10) 0.8049(8) 0.0861(6)
H18_2 H 0.5168 0.8399 0.0622
C29_4 C 0.4904(9) 0.8733(7) 0.1734(5)
H19_4 H 0.4681 0.9140 0.1516
H20_2 H 0.5341 0.8912 0.2007
H21_4 H 0.4385 0.8502 0.1894
C30_2 C 0.5735(9) 0.7586(7) 0.1820(5)
H22_2 H 0.5478 0.7109 0.1730
H23_2 H 0.5530 0.7737 0.2160
H24_2 H 0.6407 0.7559 0.1835
N1_2 N 0.6335(3) 0.6248(3) 0.99868(19)
N2_2 N 0.9633(4) 0.5275(3) 0.9997(3)
C22_2 C 0.6343(4) 0.5551(3) 0.9807(2)
H13_2 H 0.5782 0.5341 0.9678
C23_2 C 0.7144(4) 0.5136(3) 0.9805(2)
H14_2 H 0.7116 0.4653 0.9677
C24_2 C 0.7973(4) 0.5420(3) 0.9985(3)
C27_2 C 0.8823(4) 0.4964(3) 0.9992(3)
H17_2 H 0.8776 0.4452 0.9992
N6_2 N 0.5394(8) 0.1836(6) 0.6386(5)
O12_4 O 0.4510(3) 0.3837(2) 0.57396(17)
O14_4 O 0.2506(3) 0.3820(3) 0.79123(17)
O15_4 O 0.2813(3) 0.6596(2) 0.94585(16)
O16_4 O 0.4274(3) 0.6171(2) 0.95245(18)
O17_2 O 0.5744(4) 0.2494(3) 0.5707(2)
C44_4 C 0.3881(4) 0.3401(3) 0.5890(2)
C45_4 C 0.3507(4) 0.3512(3) 0.6417(2)
C46_4 C 0.3763(4) 0.4147(4) 0.6700(2)
H34_4 H 0.4149 0.4496 0.6552
C47_4 C 0.3445(5) 0.4258(4) 0.7198(2)
H35_4 H 0.3618 0.4682 0.7387
C48_4 C 0.2877(4) 0.3751(4) 0.7416(2)
C49_4 C 0.2614(4) 0.3116(3) 0.7140(2)
H36_4 H 0.2228 0.2769 0.7291
C50_4 C 0.2934(4) 0.3001(3) 0.6635(2)
H37_4 H 0.2758 0.2578 0.6445
C51_4 C 0.2778(5) 0.4416(4) 0.8241(2)
C52_4 C 0.3596(5) 0.4402(4) 0.8536(3)
H38_4 H 0.4004 0.4005 0.8510
C53_4 C 0.3815(5) 0.4971(4) 0.8867(3)
H39_4 H 0.4390 0.4971 0.9058
C54_4 C 0.3197(4) 0.5559(3) 0.8930(2)
C55_4 C 0.2374(5) 0.5563(4) 0.8636(3)
H40_4 H 0.1953 0.5949 0.8670
C56_4 C 0.2162(5) 0.4985(4) 0.8281(3)
H41_4 H 0.1603 0.4989 0.8073
C57_4 C 0.3448(4) 0.6165(3) 0.9334(2)
C58_2 C 0.5415(10) 0.1951(8) 0.5861(6)
H42_2 H 0.5168 0.1601 0.5622
C59_4 C 0.4904(9) 0.1267(7) 0.6734(5)
H43_4 H 0.4681 0.0860 0.6516
H44_2 H 0.5341 0.1088 0.7007
H45_4 H 0.4385 0.1498 0.6894
C60_2 C 0.5735(9) 0.2414(7) 0.6820(5)
H46_2 H 0.5478 0.2891 0.6730
H47_2 H 0.5530 0.2263 0.7160
H48_2 H 0.6407 0.2441 0.6835
O21_4 O 0.3449(3) 0.8218(2) 0.95969(15)
O23_4 O 0.4883(3) 0.7749(3) 0.95962(17)
O8_4 O 0.5000 0.9642(3) 0.7500
C15_3 C 0.5773(4) 0.8137(3) 0.5593(2)
C16_3 C 0.5576(4) 0.8544(3) 0.6108(2)
C17_3 C 0.6125(4) 0.9117(3) 0.6295(2)
H9_3 H 0.6632 0.9262 0.6104
C18_3 C 0.5946(5) 0.9491(3) 0.6763(2)
H10_3 H 0.6304 0.9896 0.6877
C19_3 C 0.5222(5) 0.9239(4) 0.7049(2)
C20_3 C 0.4684(5) 0.8638(4) 0.6879(3)
H11_3 H 0.4214 0.8461 0.7086
C21_3 C 0.4853(5) 0.8307(4) 0.6402(3)
H12_3 H 0.4474 0.7920 0.6278
C37_3 C 0.4227(4) 0.8137(3) 0.9407(2)
C38_3 C 0.4424(4) 0.8544(3) 0.8892(2)
C39_3 C 0.3875(4) 0.9117(3) 0.8705(2)
H30_3 H 0.3368 0.9262 0.8896
C40_3 C 0.4054(5) 0.9491(3) 0.8237(2)
H31_3 H 0.3696 0.9896 0.8123
C41_3 C 0.4778(5) 0.9239(4) 0.7951(2)
C42_3 C 0.5316(5) 0.8638(4) 0.8121(3)
H32_3 H 0.5786 0.8461 0.7914
C43_3 C 0.5147(5) 0.8307(4) 0.8598(3)
H33_3 H 0.5526 0.7920 0.8722
O8_5 O -0.0000 0.4642(3) 0.7500
C15_4 C 0.0773(4) 0.3137(3) 0.5593(2)
C16_4 C 0.0576(4) 0.3544(3) 0.6108(2)
C17_4 C 0.1125(4) 0.4117(3) 0.6295(2)
H9_4 H 0.1632 0.4262 0.6104
C18_4 C 0.0946(5) 0.4491(3) 0.6763(2)
H10_4 H 0.1304 0.4896 0.6877
C19_4 C 0.0222(5) 0.4239(4) 0.7049(2)
C42_4 C 0.0316(5) 0.3638(4) 0.8121(3)
H32_4 H 0.0786 0.3461 0.7914
C43_4 C 0.0147(5) 0.3307(4) 0.8598(3)
H33_4 H 0.0526 0.2920 0.8722
O8_6 O 1.0000 0.4642(3) 0.7500
C20_4 C 0.9684(5) 0.3638(4) 0.6879(3)
H11_4 H 0.9214 0.3461 0.7086
C21_4 C 0.9853(5) 0.3307(4) 0.6402(3)
H12_4 H 0.9474 0.2920 0.6278
C37_4 C 0.9227(4) 0.3137(3) 0.9407(2)
C38_4 C 0.9424(4) 0.3544(3) 0.8892(2)
C39_4 C 0.8875(4) 0.4117(3) 0.8705(2)
H30_4 H 0.8368 0.4262 0.8896
C40_4 C 0.9054(5) 0.4491(3) 0.8237(2)
H31_4 H 0.8696 0.4896 0.8123
C41_4 C 0.9778(5) 0.4239(4) 0.7951(2)
N1_3 N 0.8665(3) 0.1248(3) 0.50132(19)
N2_3 N 0.5367(4) 0.0275(3) 0.5003(3)
N3_3 N 0.9606(8) 0.3164(6) 0.3614(5)
O9_3 O 0.9256(4) 0.2506(3) 0.4293(2)
C22_3 C 0.8657(4) 0.0551(3) 0.5193(2)
H13_3 H 0.9218 0.0341 0.5322
C23_3 C 0.7856(4) 0.0136(3) 0.5195(2)
C24_3 C 0.7027(4) 0.0420(3) 0.5015(3)
C25_3 C 0.7013(4) 0.1149(4) 0.4822(3)
H15_3 H 0.6460 0.1369 0.4690
C26_3 C 0.7842(5) 0.1520(4) 0.4838(3)
H16_3 H 0.7832 0.2005 0.4715
C28_3 C 0.9585(10) 0.3049(8) 0.4139(6)
H18_3 H 0.9832 0.3399 0.4378
H20_3 H 0.9659 0.3912 0.2993
C30_3 C 0.9265(9) 0.2586(7) 0.3180(5)
H22_3 H 0.9522 0.2109 0.3270
H23_3 H 0.9470 0.2737 0.2840
H24_3 H 0.8593 0.2559 0.3165
H26_3 H 0.2116 0.0347 0.4677
C36_3 C 0.3823(4) 0.0036(3) 0.4992(3)
H29_3 H 0.3776 0.0548 0.4992
N3_4 N 0.0394(8) 0.3164(6) 0.1386(5)
O9_4 O 0.0744(4) 0.2506(3) 0.0707(2)
C25_4 C 0.2987(4) 0.1149(4) 0.0178(3)
H15_4 H 0.3540 0.1369 0.0310
C26_4 C 0.2158(5) 0.1520(4) 0.0162(3)
H16_4 H 0.2168 0.2005 0.0285
C28_4 C 0.0415(10) 0.3049(8) 0.0861(6)
H18_4 H 0.0168 0.3399 0.0622
H20_4 H 0.0341 0.3912 0.2007
C30_4 C 0.0735(9) 0.2586(7) 0.1820(5)
H22_4 H 0.0478 0.2109 0.1730
H23_4 H 0.0530 0.2737 0.2160
H24_4 H 0.1407 0.2559 0.1835
H26_4 H 0.7884 0.0347 0.0323
C36_4 C 0.6177(4) 0.0036(3) 0.0008(3)
H29_4 H 0.6224 0.0548 0.0008
N7_2 N 0.8665(3) 0.8752(3) 0.00132(19)
N5_3 N 0.5367(4) 0.9725(3) 0.0003(3)
C31_3 C 0.8657(4) 0.9449(3) 0.0193(2)
H25_3 H 0.9218 0.9659 0.0322
C32_3 C 0.7856(4) 0.9864(3) 0.0195(2)
C33_3 C 0.7027(4) 0.9580(3) 0.0015(3)
H14_3 H 0.7884 0.9653 0.5323
C27_3 C 0.6177(4) 0.9964(3) 0.5008(3)
H17_3 H 0.6224 0.9452 0.5008
N4_2 N 0.1335(3) 0.8752(3) 0.49868(19)
N5_4 N 0.4633(4) 0.9725(3) 0.4997(3)
C31_4 C 0.1343(4) 0.9449(3) 0.4807(2)
H25_4 H 0.0782 0.9659 0.4678
C32_4 C 0.2144(4) 0.9864(3) 0.4805(2)
C33_4 C 0.2973(4) 0.9580(3) 0.4985(3)
C34_3 C 0.2987(4) 0.8851(4) 0.5178(3)
H27_3 H 0.3540 0.8631 0.5310
C35_3 C 0.2158(5) 0.8480(4) 0.5162(3)
H28_3 H 0.2168 0.7995 0.5285
N6_3 N 0.9606(8) 0.6836(6) 0.8614(5)
O17_3 O 0.9256(4) 0.7494(3) 0.9293(2)
C58_3 C 0.9585(10) 0.6951(8) 0.9139(6)
H42_3 H 0.9832 0.6601 0.9378
H44_3 H 0.9659 0.6088 0.7993
C60_3 C 0.9265(9) 0.7414(7) 0.8180(5)
H46_3 H 0.9522 0.7891 0.8270
H47_3 H 0.9470 0.7263 0.7840
H48_3 H 0.8593 0.7441 0.8165
H14_4 H 0.2116 0.9653 0.9677
C27_4 C 0.3823(4) 0.9964(3) 0.9992(3)
H17_4 H 0.3776 0.9452 0.9992
C34_4 C 0.7013(4) 0.8851(4) 0.9822(3)
H27_4 H 0.6460 0.8631 0.9690
C35_4 C 0.7842(5) 0.8480(4) 0.9838(3)
H28_4 H 0.7832 0.7995 0.9715
N6_4 N 0.0394(8) 0.6836(6) 0.6386(5)
O17_4 O 0.0744(4) 0.7494(3) 0.5707(2)
C58_4 C 0.0415(10) 0.6951(8) 0.5861(6)
H42_4 H 0.0168 0.6601 0.5622
H44_4 H 0.0341 0.6088 0.7007
C60_4 C 0.0735(9) 0.7414(7) 0.6820(5)
H46_4 H 0.0478 0.7891 0.6730
H47_4 H 0.0530 0.7263 0.7160
H48_4 H 0.1407 0.7441 0.6835
N1_4 N 0.1335(3) 0.1248(3) 0.99868(19)
N2_4 N 0.4633(4) 0.0275(3) 0.9997(3)
C22_4 C 0.1343(4) 0.0551(3) 0.9807(2)
H13_4 H 0.0782 0.0341 0.9678
C23_4 C 0.2144(4) 0.0136(3) 0.9805(2)
C24_4 C 0.2973(4) 0.0420(3) 0.9985(3)
loop_
_geom_bond_atom_site_label_1
_geom_bond_atom_site_label_2
_geom_bond_site_symmetry_1
_geom_bond_site_symmetry_2
Mn2 O2 1_555 1_555
O1 Mn1 1_555 1_555
O2 Mn1 1_555 1_555
O3 C5 1_555 1_555
O6 Mn2 1_555 1_555
O7 C15 1_555 1_555
O8 C19 1_555 1_555
C1 O1 1_555 1_555
C2 C1 1_555 1_555
C3 C2 1_555 1_555
H1 C3 1_555 1_555
C4 C3 1_555 1_555
H2 C4 1_555 1_555
C5 C4 1_555 1_555
C6 C5 1_555 1_555
H3 C6 1_555 1_555
C7 C2 1_555 1_555
H4 C7 1_555 1_555
C8 O3 1_555 1_555
C9 C8 1_555 1_555
H5 C9 1_555 1_555
C10 C9 1_555 1_555
H6 C10 1_555 1_555
C13 C8 1_555 1_555
H8 C13 1_555 1_555
C15 O6 1_555 1_555
C16 C15 1_555 1_555
C17 C16 1_555 1_555
H9 C17 1_555 1_555
C18 C17 1_555 1_555
H10 C18 1_555 1_555
C19 C18 1_555 1_555
C20 C19 1_555 1_555
H11 C20 1_555 1_555
C21 C16 1_555 1_555
H12 C21 1_555 1_555
H19 C29 1_555 1_555
H21 C29 1_555 1_555
O10 C37 1_555 1_555
O11 C37 1_555 1_555
C37 C38 1_555 1_555
C38 C39 1_555 1_555
C39 H30 1_555 1_555
C40 C39 1_555 1_555
H31 C40 1_555 1_555
C41 O8 1_555 1_555
C42 C41 1_555 1_555
H32 C42 1_555 1_555
C43 C38 1_555 1_555
H33 C43 1_555 1_555
O15 Mn2 1_555 1_555
O16 Mn1 1_555 1_555
C55 C54 1_555 1_555
H40 C55 1_555 1_555
C57 O15 1_555 1_555
Mn6 O7 1_555 1_555
Mn8 O10 1_555 1_555
O18 Mn2 1_555 1_555
O19 Mn2 1_555 1_555
O21 Mn2 1_555 1_555
O23 Mn1 1_555 1_555
O2 C1 1_555 1_555
C6 C7 1_555 1_555
C20 C21 1_555 1_555
C40 C41 1_555 1_555
C42 C43 1_555 1_555
O16 C57 1_555 1_555
C54 C57 1_555 1_555
Mn6 O18 1_555 1_555
O4 C14 1_555 1_555
O20 C14 1_555 1_555
C12 C11 1_555 1_555
H7 C12 1_555 1_555
C14 C11 1_555 1_555
Mn3 O12 1_555 1_555
O12 C44 1_555 1_555
O13 Mn3 1_555 1_555
O14 C48 1_555 1_555
C44 O13 1_555 1_555
C45 C44 1_555 1_555
C46 C45 1_555 1_555
H34 C46 1_555 1_555
C47 C46 1_555 1_555
H35 C47 1_555 1_555
C48 C47 1_555 1_555
C49 C48 1_555 1_555
H36 C49 1_555 1_555
C50 C45 1_555 1_555
H37 C50 1_555 1_555
C51 O14 1_555 1_555
C52 C51 1_555 1_555
H38 C52 1_555 1_555
C53 C52 1_555 1_555
H39 C53 1_555 1_555
C56 C51 1_555 1_555
H41 C56 1_555 1_555
H43 C59 1_555 1_555
H45 C59 1_555 1_555
Mn10 O4 1_555 1_555
Mn10_2 O13 1_555 1_555
C49 C50 1_555 1_555
Mn8 O2_2 1_555 1_555
O1_2 Mn1_2 1_555 1_555
O2_2 Mn1_2 1_555 1_555
O3_2 C5_2 1_555 1_555
C1_2 O1_2 1_555 1_555
C2_2 C1_2 1_555 1_555
C3_2 C2_2 1_555 1_555
H1_2 C3_2 1_555 1_555
C4_2 C3_2 1_555 1_555
H2_2 C4_2 1_555 1_555
C5_2 C4_2 1_555 1_555
C6_2 C5_2 1_555 1_555
H3_2 C6_2 1_555 1_555
C7_2 C2_2 1_555 1_555
H4_2 C7_2 1_555 1_555
C8_2 O3_2 1_555 1_555
C9_2 C8_2 1_555 1_555
H5_2 C9_2 1_555 1_555
C10_2 C9_2 1_555 1_555
H6_2 C10_2 1_555 1_555
C13_2 C8_2 1_555 1_555
H8_2 C13_2 1_555 1_555
H19_2 C29_2 1_555 1_555
H21_2 C29_2 1_555 1_555
O19_2 Mn8 1_555 1_555
O2_2 C1_2 1_555 1_555
C6_2 C7_2 1_555 1_555
O15_2 Mn8_2 1_555 1_555
C55_2 C54_2 1_555 1_555
H40_2 C55_2 1_555 1_555
C57_2 O15_2 1_555 1_555
O18_2 Mn8_2 1_555 1_555
O21_2 Mn8_2 1_555 1_555
O16_2 C57_2 1_555 1_555
C54_2 C57_2 1_555 1_555
Mn7 O18_2 1_555 1_555
O4_2 C14_2 1_555 1_555
O5 C14_2 1_555 1_555
C12_2 C11_2 1_555 1_555
H7_2 C12_2 1_555 1_555
C14_2 C11_2 1_555 1_555
Mn4 O5 1_555 1_555
Mn9 O4_2 1_555 1_555
Mn4 O12_2 1_555 1_555
O12_2 C44_2 1_555 1_555
O13_2 Mn4 1_555 1_555
O14_2 C48_2 1_555 1_555
C44_2 O13_2 1_555 1_555
C45_2 C44_2 1_555 1_555
C46_2 C45_2 1_555 1_555
H34_2 C46_2 1_555 1_555
C47_2 C46_2 1_555 1_555
H35_2 C47_2 1_555 1_555
C48_2 C47_2 1_555 1_555
C49_2 C48_2 1_555 1_555
H36_2 C49_2 1_555 1_555
C50_2 C45_2 1_555 1_555
H37_2 C50_2 1_555 1_555
C51_2 O14_2 1_555 1_555
C52_2 C51_2 1_555 1_555
H38_2 C52_2 1_555 1_555
C53_2 C52_2 1_555 1_555
H39_2 C53_2 1_555 1_555
C56_2 C51_2 1_555 1_555
H41_2 C56_2 1_555 1_555
H43_2 C59_2 1_555 1_555
H45_2 C59_2 1_555 1_555
Mn9 O13_2 1_555 1_555
O22_2 Mn4 1_555 1_555
C49_2 C50_2 1_555 1_555
H11_2 C20_2 1_555 1_555
H12_2 C21_2 1_555 1_555
O10_2 C37_2 1_555 1_555
O22 C37_2 1_555 1_555
C37_2 C38_2 1_555 1_555
C38_2 C39_2 1_555 1_555
C39_2 H30_2 1_555 1_555
C40_2 C39_2 1_555 1_555
H31_2 C40_2 1_555 1_555
C41_2 O8_2 1_555 1_555
Mn10 O10_2 1_555 1_555
C20_2 C21_2 1_555 1_555
C40_2 C41_2 1_555 1_555
Mn1_3 N1 1_555 1_555
Mn9 O2_3 1_555 1_555
N1 C22 1_555 1_555
N2 C27 1_555 1_555
N3 C28 1_555 1_555
O1_3 Mn1_3 1_555 1_555
O2_3 Mn1_3 1_555 1_555
O3_3 C5_3 1_555 1_555
O19_2 C14_3 1_555 1_555
O20_2 C14_3 1_555 1_555
O6_2 Mn9 1_555 1_555
O22_2 C15_2 1_555 1_555
O8_3 C19_2 1_555 1_555
O9 Mn1_3 1_555 1_555
C1_3 O1_3 1_555 1_555
C2_3 C1_3 1_555 1_555
C3_3 C2_3 1_555 1_555
H1_3 C3_3 1_555 1_555
C4_3 C3_3 1_555 1_555
H2_3 C4_3 1_555 1_555
C5_3 C4_3 1_555 1_555
C6_3 C5_3 1_555 1_555
H3_3 C6_3 1_555 1_555
C7_3 C2_3 1_555 1_555
H4_3 C7_3 1_555 1_555
C8_3 O3_3 1_555 1_555
C9_3 C8_3 1_555 1_555
H5_3 C9_3 1_555 1_555
C10_3 C9_3 1_555 1_555
H6_3 C10_3 1_555 1_555
C11_3 C10_3 1_555 1_555
C12_3 C11_3 1_555 1_555
H7_3 C12_3 1_555 1_555
C13_3 C8_3 1_555 1_555
H8_3 C13_3 1_555 1_555
C14_3 C11_3 1_555 1_555
C15_2 O6_2 1_555 1_555
C16_2 C15_2 1_555 1_555
C17_2 C16_2 1_555 1_555
H9_2 C17_2 1_555 1_555
C18_2 C17_2 1_555 1_555
H10_2 C18_2 1_555 1_555
C19_2 C18_2 1_555 1_555
C22 H13 1_555 1_555
C23 C22 1_555 1_555
H14 C23 1_555 1_555
C24 C23 1_555 1_555
C25 C24 1_555 1_555
H15 C25 1_555 1_555
C26 N1 1_555 1_555
H16 C26 1_555 1_555
C27 C24 1_555 1_555
H17 C27 1_555 1_555
C28 O9 1_555 1_555
H18 C28 1_555 1_555
C29_3 N3 1_555 1_555
H19_3 C29_3 1_555 1_555
H20 C29_3 1_555 1_555
H21_3 C29_3 1_555 1_555
C30 N3 1_555 1_555
H22 C30 1_555 1_555
H23 C30 1_555 1_555
H24 C30 1_555 1_555
H32_2 C42_2 1_555 1_555
H33_2 C43_2 1_555 1_555
Mn7 O12_3 1_555 1_555
N6 C58 1_555 1_555
O12_3 C44_3 1_555 1_555
O14_3 C48_3 1_555 1_555
O15_3 Mn9 1_555 1_555
O16_3 Mn1_3 1_555 1_555
O17 Mn7 1_555 1_555
C44_3 O18_2 1_555 1_555
C45_3 C44_3 1_555 1_555
C46_3 C45_3 1_555 1_555
H34_3 C46_3 1_555 1_555
C47_3 C46_3 1_555 1_555
H35_3 C47_3 1_555 1_555
C48_3 C47_3 1_555 1_555
C49_3 C48_3 1_555 1_555
H36_3 C49_3 1_555 1_555
C50_3 C45_3 1_555 1_555
H37_3 C50_3 1_555 1_555
C51_3 O14_3 1_555 1_555
C52_3 C51_3 1_555 1_555
H38_3 C52_3 1_555 1_555
C53_3 C52_3 1_555 1_555
H39_3 C53_3 1_555 1_555
C54_3 C53_3 1_555 1_555
C55_3 C54_3 1_555 1_555
H40_3 C55_3 1_555 1_555
C56_3 C51_3 1_555 1_555
H41_3 C56_3 1_555 1_555
C57_3 O15_3 1_555 1_555
C58 O17 1_555 1_555
H42 C58 1_555 1_555
C59_3 N6 1_555 1_555
H43_3 C59_3 1_555 1_555
H44 C59_3 1_555 1_555
H45_3 C59_3 1_555 1_555
C60 N6 1_555 1_555
H46 C60 1_555 1_555
H47 C60 1_555 1_555
H48 C60 1_555 1_555
O21_3 Mn9 1_555 1_555
O23_3 Mn1_3 1_555 1_555
O2_3 C1_3 1_555 1_555
C6_3 C7_3 1_555 1_555
C12_3 C13_3 1_555 1_555
C25 C26 1_555 1_555
C42_2 C43_2 1_555 1_555
O16_3 C57_3 1_555 1_555
C49_3 C50_3 1_555 1_555
C54_3 C57_3 1_555 1_555
C55_3 C56_3 1_555 1_555
N4 C31 1_555 1_555
C31 H25 1_555 1_555
C32 C31 1_555 1_555
H26 C32 1_555 1_555
C33 C32 1_555 1_555
C34 C33 1_555 1_555
H27 C34 1_555 1_555
C35 N4 1_555 1_555
H28 C35 1_555 1_555
C36 N5 1_555 1_555
H29 C36 1_555 1_555
Mn6 N4 1_555 1_555
C33 C36 1_555 1_555
C34 C35 1_555 1_555
N7 C31_2 1_555 1_555
C31_2 H25_2 1_555 1_555
C32_2 C31_2 1_555 1_555
H26_2 C32_2 1_555 1_555
C33_2 C32_2 1_555 1_555
C36_2 N5_2 1_555 1_555
H29_2 C36_2 1_555 1_555
C33_2 C36_2 1_555 1_555
H27_2 C34_2 1_555 1_555
H28_2 C35_2 1_555 1_555
C34_2 C35_2 1_555 1_555
Mn10 O2_4 1_555 1_555
N3_2 C28_2 1_555 1_555
O1_4 Mn1_4 1_555 1_555
O2_4 Mn1_4 1_555 1_555
O3_4 C5_4 1_555 1_555
O19 C14_4 1_555 1_555
O5_2 C14_4 1_555 1_555
O9_2 Mn1_4 1_555 1_555
C1_4 O1_4 1_555 1_555
C2_4 C1_4 1_555 1_555
C3_4 C2_4 1_555 1_555
H1_4 C3_4 1_555 1_555
C4_4 C3_4 1_555 1_555
H2_4 C4_4 1_555 1_555
C5_4 C4_4 1_555 1_555
C6_4 C5_4 1_555 1_555
H3_4 C6_4 1_555 1_555
C7_4 C2_4 1_555 1_555
H4_4 C7_4 1_555 1_555
C8_4 O3_4 1_555 1_555
C9_4 C8_4 1_555 1_555
H5_4 C9_4 1_555 1_555
C10_4 C9_4 1_555 1_555
H6_4 C10_4 1_555 1_555
C11_4 C10_4 1_555 1_555
C12_4 C11_4 1_555 1_555
H7_4 C12_4 1_555 1_555
C13_4 C8_4 1_555 1_555
H8_4 C13_4 1_555 1_555
C14_4 C11_4 1_555 1_555
H15_2 C25_2 1_555 1_555
H16_2 C26_2 1_555 1_555
C28_2 O9_2 1_555 1_555
H18_2 C28_2 1_555 1_555
C29_4 N3_2 1_555 1_555
H19_4 C29_4 1_555 1_555
H20_2 C29_4 1_555 1_555
H21_4 C29_4 1_555 1_555
C30_2 N3_2 1_555 1_555
H22_2 C30_2 1_555 1_555
H23_2 C30_2 1_555 1_555
H24_2 C30_2 1_555 1_555
Mn6 O5_2 1_555 1_555
O2_4 C1_4 1_555 1_555
C6_4 C7_4 1_555 1_555
C12_4 C13_4 1_555 1_555
C25_2 C26_2 1_555 1_555
N1_2 C22_2 1_555 1_555
N2_2 C27_2 1_555 1_555
C22_2 H13_2 1_555 1_555
C23_2 C22_2 1_555 1_555
H14_2 C23_2 1_555 1_555
C24_2 C23_2 1_555 1_555
C27_2 C24_2 1_555 1_555
H17_2 C27_2 1_555 1_555
Mn6 O12_4 1_555 1_555
N6_2 C58_2 1_555 1_555
O12_4 C44_4 1_555 1_555
O14_4 C48_4 1_555 1_555
O15_4 Mn10_2 1_555 1_555
O17_2 Mn6 1_555 1_555
C44_4 O18 1_555 1_555
C45_4 C44_4 1_555 1_555
C46_4 C45_4 1_555 1_555
H34_4 C46_4 1_555 1_555
C47_4 C46_4 1_555 1_555
H35_4 C47_4 1_555 1_555
C48_4 C47_4 1_555 1_555
C49_4 C48_4 1_555 1_555
H36_4 C49_4 1_555 1_555
C50_4 C45_4 1_555 1_555
H37_4 C50_4 1_555 1_555
C51_4 O14_4 1_555 1_555
C52_4 C51_4 1_555 1_555
H38_4 C52_4 1_555 1_555
C53_4 C52_4 1_555 1_555
H39_4 C53_4 1_555 1_555
C54_4 C53_4 1_555 1_555
C55_4 C54_4 1_555 1_555
H40_4 C55_4 1_555 1_555
C56_4 C51_4 1_555 1_555
H41_4 C56_4 1_555 1_555
C57_4 O15_4 1_555 1_555
C58_2 O17_2 1_555 1_555
H42_2 C58_2 1_555 1_555
C59_4 N6_2 1_555 1_555
H43_4 C59_4 1_555 1_555
H44_2 C59_4 1_555 1_555
H45_4 C59_4 1_555 1_555
C60_2 N6_2 1_555 1_555
H46_2 C60_2 1_555 1_555
H47_2 C60_2 1_555 1_555
H48_2 C60_2 1_555 1_555
O21_4 Mn10_2 1_555 1_555
O16_4 C57_4 1_555 1_555
C49_4 C50_4 1_555 1_555
C54_4 C57_4 1_555 1_555
C55_4 C56_4 1_555 1_555
O23_3 C15_3 1_555 1_555
O8_4 C19_3 1_555 1_555
C15_3 O21_3 1_555 1_555
C16_3 C15_3 1_555 1_555
C17_3 C16_3 1_555 1_555
H9_3 C17_3 1_555 1_555
C18_3 C17_3 1_555 1_555
H10_3 C18_3 1_555 1_555
C19_3 C18_3 1_555 1_555
C20_3 C19_3 1_555 1_555
H11_3 C20_3 1_555 1_555
C21_3 C16_3 1_555 1_555
H12_3 C21_3 1_555 1_555
O21_4 C37_3 1_555 1_555
O23_4 C37_3 1_555 1_555
C37_3 C38_3 1_555 1_555
C38_3 C39_3 1_555 1_555
C39_3 H30_3 1_555 1_555
C40_3 C39_3 1_555 1_555
H31_3 C40_3 1_555 1_555
C41_3 O8_4 1_555 1_555
C42_3 C41_3 1_555 1_555
H32_3 C42_3 1_555 1_555
C43_3 C38_3 1_555 1_555
H33_3 C43_3 1_555 1_555
C20_3 C21_3 1_555 1_555
C40_3 C41_3 1_555 1_555
C42_3 C43_3 1_555 1_555
O23 C15_4 1_555 1_555
O8_5 C19_4 1_555 1_555
C15_4 O21 1_555 1_555
C16_4 C15_4 1_555 1_555
C17_4 C16_4 1_555 1_555
H9_4 C17_4 1_555 1_555
C18_4 C17_4 1_555 1_555
H10_4 C18_4 1_555 1_555
C19_4 C18_4 1_555 1_555
H32_4 C42_4 1_555 1_555
H33_4 C43_4 1_555 1_555
C42_4 C43_4 1_555 1_555
H11_4 C20_4 1_555 1_555
H12_4 C21_4 1_555 1_555
O21_2 C37_4 1_555 1_555
O23_2 C37_4 1_555 1_555
C37_4 C38_4 1_555 1_555
C38_4 C39_4 1_555 1_555
C39_4 H30_4 1_555 1_555
C40_4 C39_4 1_555 1_555
H31_4 C40_4 1_555 1_555
C41_4 O8_6 1_555 1_555
C20_4 C21_4 1_555 1_555
C40_4 C41_4 1_555 1_555
N1_3 C22_3 1_555 1_555
N3_3 C28_3 1_555 1_555
C22_3 H13_3 1_555 1_555
C23_3 C22_3 1_555 1_555
C24_3 C23_3 1_555 1_555
C25_3 C24_3 1_555 1_555
H15_3 C25_3 1_555 1_555
C26_3 N1_3 1_555 1_555
H16_3 C26_3 1_555 1_555
C28_3 O9_3 1_555 1_555
H18_3 C28_3 1_555 1_555
C30_3 N3_3 1_555 1_555
H22_3 C30_3 1_555 1_555
H23_3 C30_3 1_555 1_555
H24_3 C30_3 1_555 1_555
H29_3 C36_3 1_555 1_555
C25_3 C26_3 1_555 1_555
N3_4 C28_4 1_555 1_555
H15_4 C25_4 1_555 1_555
H16_4 C26_4 1_555 1_555
C28_4 O9_4 1_555 1_555
H18_4 C28_4 1_555 1_555
C30_4 N3_4 1_555 1_555
H22_4 C30_4 1_555 1_555
H23_4 C30_4 1_555 1_555
H24_4 C30_4 1_555 1_555
H29_4 C36_4 1_555 1_555
C25_4 C26_4 1_555 1_555
N7_2 C31_3 1_555 1_555
C31_3 H25_3 1_555 1_555
C32_3 C31_3 1_555 1_555
C33_3 C32_3 1_555 1_555
H17_3 C27_3 1_555 1_555
N4_2 C31_4 1_555 1_555
C31_4 H25_4 1_555 1_555
C32_4 C31_4 1_555 1_555
C33_4 C32_4 1_555 1_555
C34_3 C33_4 1_555 1_555
H27_3 C34_3 1_555 1_555
C35_3 N4_2 1_555 1_555
H28_3 C35_3 1_555 1_555
N6_3 C58_3 1_555 1_555
C58_3 O17_3 1_555 1_555
H42_3 C58_3 1_555 1_555
C60_3 N6_3 1_555 1_555
H46_3 C60_3 1_555 1_555
H47_3 C60_3 1_555 1_555
H48_3 C60_3 1_555 1_555
C34_3 C35_3 1_555 1_555
H17_4 C27_4 1_555 1_555
H27_4 C34_4 1_555 1_555
H28_4 C35_4 1_555 1_555
N6_4 C58_4 1_555 1_555
C58_4 O17_4 1_555 1_555
H42_4 C58_4 1_555 1_555
C60_4 N6_4 1_555 1_555
H46_4 C60_4 1_555 1_555
H47_4 C60_4 1_555 1_555
H48_4 C60_4 1_555 1_555
C34_4 C35_4 1_555 1_555
N1_4 C22_4 1_555 1_555
C22_4 H13_4 1_555 1_555
C23_4 C22_4 1_555 1_555
C24_4 C23_4 1_555 1_555

#END
