
###############################################################################
#
# This file contains modified crystal structure data generated from the
# MOF subset of the Cambridge Structural Database (CSD) v543 
# hosted by the Cambridge Crystallographic Data Centre (CCDC).
#
# This work is licensed under the Creative Commons
# Attribution-NonCommercial-ShareAlike 4.0 International License.
# To view a copy of this license, visit
# http://creativecommons.org/licenses/by-nc-sa/4.0/
# or send a letter to
# Creative Commons, PO Box 1866, Mountain View, CA 94042, USA.
#
# CIF created using the CSD Python API on 29 September 2022
# The structure has been converted into the P1 space group
# The structure has a 3D framework
# The original CSD entry YEGTEK is in the monoclinic crystal system
# The framework has been calculated to contain at least 10.0% void space
# The void calculation uses a probe of radius 1.32A, grid spacing 0.4
#
###############################################################################

data_YEGTEK
_chemical_formula_moiety         '(C96 H128 Cd10 O76)n'
_symmetry_cell_setting           triclinic
_symmetry_space_group_name_H-M   'P 1'
_symmetry_Int_Tables_number      1
_space_group_name_Hall           'P 1'
loop_
_symmetry_equiv_pos_site_id
_symmetry_equiv_pos_as_xyz
1 x,y,z
_cell_length_a                   11.344(3)
_cell_length_b                   39.266(6)
_cell_length_c                   8.1324(18)
_cell_angle_alpha                90
_cell_angle_beta                 102.908(18)
_cell_angle_gamma                90
_cell_volume                     3530.9
loop_
_atom_site_label
_atom_site_type_symbol
_atom_site_fract_x
_atom_site_fract_y
_atom_site_fract_z
Cd1 Cd 0.51854(3) 0.052126(7) 0.24072(4)
O1 O 0.3828(3) 0.01312(7) 0.3485(4)
O2 O 0.3465(3) 0.06782(8) 0.3297(4)
O14 O 0.6084(2) 0.05207(7) 0.5324(4)
H3 H 0.6221 0.0324 0.5650
H4 H 0.6682 0.0637 0.5707
O15 O 0.5361(3) 0.11009(8) 0.2372(4)
H5 H 0.4687 0.1186 0.2073
H6 H 0.5609 0.1157 0.1762
C1 C 0.1179(3) 0.01415(10) 0.3761(5)
C6 C 0.0280(3) 0.02844(10) 0.2522(5)
H17 H 0.0315 0.0515 0.2271
C7 C 0.2234(4) 0.03491(12) 0.4722(6)
H18 H 0.1949 0.0574 0.4939
H19 H 0.2556 0.0241 0.5802
C8 C 0.3234(3) 0.03849(11) 0.3778(5)
O20 O 0.6649(3) 0.02236(7) 0.1636(4)
O3 O 0.0406(3) 0.89345(8) 0.1114(4)
O4 O 0.2097(3) 0.90538(7) 0.2923(4)
O9 O 0.2534(3) 0.77411(7) 0.2211(4)
O10 O 0.2232(3) 0.82834(7) 0.1637(4)
O11 O 0.0335(3) 0.62757(8) 0.2508(4)
O12 O 0.1960(3) 0.65637(8) 0.2404(4)
O19 O 0.3950(2) 0.87108(7) 0.0524(4)
H13 H 0.4254 0.8847 0.1262
H14 H 0.4144 0.8502 0.0638
C2 C 0.1118(3) 0.98005(10) 0.4145(5)
H15 H 0.1708 0.9706 0.5004
C3 C 0.0188(3) 0.95967(9) 0.3266(5)
C9 C 0.0214(4) 0.92196(10) 0.3612(6)
H20 H 0.0574 0.9176 0.4791
C10 C 0.0962(4) 0.90528(9) 0.2496(5)
C15 C 0.0126(4) 0.75977(11) 0.0318(5)
C16 C 0.0452(3) 0.72666(10) 0.0012(5)
C22 C 0.1948(3) 0.79778(10) 0.1356(5)
C23 C 0.0224(4) 0.66328(10) 0.0098(5)
C24 C 0.0888(4) 0.64804(9) 0.1756(5)
Cd5 Cd 0.40456(3) 0.799490(8) 0.40496(4)
Cd7 Cd 0.19049(3) 0.622390(7) 0.48874(4)
Cd3 Cd 0.19049(3) 0.877610(7) 0.98874(4)
H25 H 0.1123 0.7230 0.9555
C21 C 0.0876(4) 0.78933(11) 0.9950(6)
H29 H 0.0362 0.8093 0.9714
H30 H 0.1165 0.7842 0.8942
H32 H 0.0756 0.6639 0.9316
O21 O 0.2680(3) 0.92685(7) 0.8797(4)
O23 O 0.0335(3) 0.87243(8) 0.7508(4)
O24 O 0.1960(3) 0.84363(8) 0.7404(4)
O6 O 0.7320(3) 0.07315(7) 0.1203(4)
C5 C 0.9323(3) 0.00874(9) 0.1646(5)
C11 C 0.8320(4) 0.02490(11) 0.0318(5)
C12 C 0.7375(3) 0.04174(9) 0.1096(5)
Cd6 Cd 0.80951(3) 0.122390(7) 0.01126(4)
Cd2 Cd 0.40456(3) 0.700510(8) 0.90496(4)
O16 O 0.3901(3) 0.64310(8) 0.9498(4)
H8 H 0.3302 0.6302 0.8944
O17 O 0.5004(3) 0.68928(8) 0.6811(4)
H9 H 0.4968 0.7063 0.6215
H10 H 0.5643 0.6787 0.7166
H31 H 0.9532 0.6492 0.9610
O22 O 0.2534(3) 0.72589(7) 0.7211(4)
Cd2_2 Cd 0.59544(3) 0.200510(8) 0.59504(4)
O5 O 0.3351(3) 0.52236(7) 0.3364(4)
O6_2 O 0.2680(3) 0.57315(7) 0.3797(4)
O7 O 0.4028(3) 0.20000(8) 0.4354(5)
O8 O 0.4687(3) 0.25215(8) 0.4880(4)
O16_2 O 0.6099(3) 0.14310(8) 0.5502(4)
H7 H 0.6019 0.1395 0.4490
H8_2 H 0.6698 0.1302 0.6056
O17_2 O 0.4996(3) 0.18928(8) 0.8189(4)
H9_2 H 0.5032 0.2063 0.8785
H10_2 H 0.4357 0.1787 0.7834
O18 O 0.6659(3) 0.20732(8) 0.3531(4)
H11 H 0.7063 0.1906 0.3396
H12 H 0.6981 0.2261 0.3419
C4 C 0.0708(3) 0.47439(10) 0.2985(5)
H16 H 0.1335 0.4610 0.3580
C5_2 C 0.0677(3) 0.50874(9) 0.3354(5)
H21 H 0.0602 0.4128 0.1643
C11_2 C 0.1680(4) 0.52490(11) 0.4682(5)
H22 H 0.1332 0.5418 0.5307
H23 H 0.2062 0.5075 0.5471
C12_2 C 0.2625(3) 0.54174(9) 0.3904(5)
C13 C 0.1594(3) 0.23757(10) 0.3723(5)
C14 C 0.0903(4) 0.26466(10) 0.4063(5)
H24 H 0.1137 0.2867 0.3871
C17 C 0.0198(3) 0.19908(10) 0.4630(5)
C18 C 0.1225(4) 0.20490(10) 0.3996(5)
H26 H 0.1670 0.1864 0.3752
C19 C 0.2712(4) 0.24431(12) 0.3052(6)
H27 H 0.2776 0.2686 0.2886
H28 H 0.2611 0.2335 0.1957
C20 C 0.3891(4) 0.23180(12) 0.4177(6)
H31_2 H 0.0468 0.1492 0.5390
Cd4 Cd 0.48146(3) 0.552126(7) 0.25928(4)
O22_2 O 0.7466(3) 0.22589(7) 0.7789(4)
Cd3_2 Cd 0.80951(3) 0.377610(7) 0.51126(4)
O1_2 O 0.6172(3) 0.51312(7) 0.1515(4)
O2_2 O 0.6535(3) 0.56782(8) 0.1703(4)
O3_2 O 0.9594(3) 0.39345(8) 0.3886(4)
O4_2 O 0.7903(3) 0.40538(7) 0.2077(4)
O9_2 O 0.7466(3) 0.27411(7) 0.2789(4)
O10_2 O 0.7768(3) 0.32834(7) 0.3363(4)
O11_2 O 0.9665(3) 0.12757(8) 0.2492(4)
O12_2 O 0.8040(3) 0.15637(8) 0.2596(4)
O13 O 0.5986(3) 0.54304(9) 0.5269(4)
H1 H 0.6099 0.5226 0.5424
H2 H 0.5780 0.5554 0.6119
O15_2 O 0.4639(3) 0.61009(8) 0.2628(4)
H5_2 H 0.5313 0.6186 0.2927
H6_2 H 0.4391 0.6157 0.3238
O19_2 O 0.6050(2) 0.37108(7) 0.4476(4)
H13_2 H 0.5746 0.3847 0.3738
H14_2 H 0.5856 0.3502 0.4362
C1_2 C 0.8821(3) 0.51415(10) 0.1239(5)
C2_2 C 0.8882(3) 0.48005(10) 0.0855(5)
C3_2 C 0.9812(3) 0.45967(9) 0.1734(5)
C6_2 C 0.9720(3) 0.52844(10) 0.2478(5)
H17_2 H 0.9685 0.5515 0.2729
C7_2 C 0.7766(4) 0.53491(12) 0.0278(6)
H18_2 H 0.8051 0.5574 0.0061
C8_2 C 0.6766(3) 0.53849(11) 0.1222(5)
C9_2 C 0.9786(4) 0.42196(10) 0.1388(6)
H20_2 H 0.9426 0.4176 0.0209
C10_2 C 0.9038(4) 0.40528(9) 0.2504(5)
C15_2 C 0.9874(4) 0.25977(11) 0.4682(5)
C16_2 C 0.9548(3) 0.22666(10) 0.4988(5)
H25_2 H 0.8877 0.2230 0.5445
C21_2 C 0.9124(4) 0.28933(11) 0.5050(6)
H29_2 H 0.9638 0.3093 0.5286
H30_2 H 0.8835 0.2842 0.6058
C22_2 C 0.8052(3) 0.29778(10) 0.3644(5)
C23_2 C 0.9776(4) 0.16328(10) 0.4902(5)
H32_2 H 0.9244 0.1639 0.5684
C24_2 C 0.9112(4) 0.14804(9) 0.3244(5)
Cd5_2 Cd 0.59544(3) 0.299490(8) 0.09504(4)
O21_2 O 0.7320(3) 0.42685(7) 0.6203(4)
O23_2 O 0.9665(3) 0.37243(8) 0.7492(4)
O24_2 O 0.8040(3) 0.34363(8) 0.7596(4)
O16_3 O 0.6099(3) 0.35690(8) 0.0502(4)
H8_3 H 0.6698 0.3698 0.1056
O17_3 O 0.4996(3) 0.31072(8) 0.3189(4)
H9_3 H 0.5032 0.2937 0.3785
H10_3 H 0.4357 0.3213 0.2834
H31_3 H 0.0468 0.3508 0.0390
O5_2 O 0.3351(3) 0.97764(7) 0.8364(4)
C5_3 C 0.0677(3) 0.99126(9) 0.8354(5)
C11_3 C 0.1680(4) 0.97510(11) 0.9682(5)
C12_3 C 0.2625(3) 0.95826(9) 0.8904(5)
Cd4_2 Cd 0.48146(3) 0.947874(7) 0.75928(4)
H25_3 H 0.8877 0.2770 0.0445
C21_3 C 0.9124(4) 0.21067(11) 0.0050(6)
H29_3 H 0.9638 0.1907 0.0286
H30_3 H 0.8835 0.2158 0.1058
H32_3 H 0.9244 0.3361 0.0684
O3_3 O 0.9594(3) 0.10655(8) 0.8886(4)
O4_3 O 0.7903(3) 0.09462(7) 0.7077(4)
O10_3 O 0.7768(3) 0.17166(7) 0.8363(4)
O19_3 O 0.6050(2) 0.12892(7) 0.9476(4)
H13_3 H 0.5746 0.1153 0.8738
H14_3 H 0.5856 0.1498 0.9362
C2_3 C 0.8882(3) 0.01995(10) 0.5855(5)
H15_2 H 0.8292 0.0294 0.4996
C3_3 C 0.9812(3) 0.04033(9) 0.6734(5)
C9_3 C 0.9786(4) 0.07804(10) 0.6388(6)
H20_3 H 0.9426 0.0824 0.5209
C10_3 C 0.9038(4) 0.09472(9) 0.7504(5)
C15_3 C 0.9874(4) 0.24023(11) 0.9682(5)
C16_3 C 0.9548(3) 0.27334(10) 0.9988(5)
C22_3 C 0.8052(3) 0.20222(10) 0.8644(5)
C23_3 C 0.9776(4) 0.33672(10) 0.9902(5)
C24_3 C 0.9112(4) 0.35196(9) 0.8244(5)
O1_3 O 0.6172(3) 0.98688(7) 0.6515(4)
O2_3 O 0.6535(3) 0.93218(8) 0.6703(4)
O14_2 O 0.3916(2) 0.94793(7) 0.4676(4)
H3_2 H 0.3779 0.9676 0.4350
H4_2 H 0.3318 0.9363 0.4293
O15_3 O 0.4639(3) 0.88991(8) 0.7628(4)
H5_3 H 0.5313 0.8814 0.7927
H6_3 H 0.4391 0.8843 0.8238
C1_3 C 0.8821(3) 0.98585(10) 0.6239(5)
C6_3 C 0.9720(3) 0.97156(10) 0.7478(5)
H17_3 H 0.9685 0.9485 0.7729
C7_3 C 0.7766(4) 0.96509(12) 0.5278(6)
H18_3 H 0.8051 0.9426 0.5061
H19_2 H 0.7444 0.9759 0.4198
C8_3 C 0.6766(3) 0.96151(11) 0.6222(5)
Cd1_2 Cd 0.51854(3) 0.447874(7) 0.74072(4)
O1_4 O 0.3828(3) 0.48688(7) 0.8485(4)
O2_4 O 0.3465(3) 0.43218(8) 0.8297(4)
O3_4 O 0.0406(3) 0.60655(8) 0.6114(4)
O4_4 O 0.2097(3) 0.59462(7) 0.7923(4)
O10_4 O 0.2232(3) 0.67166(7) 0.6637(4)
O13_2 O 0.4014(3) 0.45696(9) 0.4731(4)
H1_2 H 0.3901 0.4774 0.4576
H2_2 H 0.4220 0.4446 0.3881
O15_4 O 0.5361(3) 0.38991(8) 0.7372(4)
H5_4 H 0.4687 0.3814 0.7073
H6_4 H 0.5609 0.3843 0.6762
O19_4 O 0.3950(2) 0.62892(7) 0.5524(4)
H13_4 H 0.4254 0.6153 0.6262
H14_4 H 0.4144 0.6498 0.5638
C1_4 C 0.1179(3) 0.48585(10) 0.8761(5)
C2_4 C 0.1118(3) 0.51995(10) 0.9145(5)
C3_4 C 0.0188(3) 0.54033(9) 0.8266(5)
C6_4 C 0.0280(3) 0.47156(10) 0.7522(5)
H17_4 H 0.0315 0.4485 0.7271
C7_4 C 0.2234(4) 0.46509(12) 0.9722(6)
H18_4 H 0.1949 0.4426 0.9939
C8_4 C 0.3234(3) 0.46151(11) 0.8778(5)
C9_4 C 0.0214(4) 0.57804(10) 0.8612(6)
H20_4 H 0.0574 0.5824 0.9791
C10_4 C 0.0962(4) 0.59472(9) 0.7496(5)
C15_4 C 0.0126(4) 0.74023(11) 0.5318(5)
C16_4 C 0.0452(3) 0.77334(10) 0.5012(5)
H25_4 H 0.1123 0.7770 0.4555
C21_4 C 0.0876(4) 0.71067(11) 0.4950(6)
H29_4 H 0.0362 0.6907 0.4714
H30_4 H 0.1165 0.7158 0.3942
C22_4 C 0.1948(3) 0.70222(10) 0.6356(5)
C23_4 C 0.0224(4) 0.83672(10) 0.5098(5)
H32_4 H 0.0756 0.8361 0.4316
C24_4 C 0.0888(4) 0.85196(9) 0.6756(5)
O20_2 O 0.6649(3) 0.47764(7) 0.6636(4)
O7_2 O 0.5972(3) 0.80000(8) 0.5646(5)
O8_2 O 0.5313(3) 0.74785(8) 0.5120(4)
O16_4 O 0.3901(3) 0.85690(8) 0.4498(4)
H7_2 H 0.3981 0.8605 0.5510
H8_4 H 0.3302 0.8698 0.3944
O17_4 O 0.5004(3) 0.81072(8) 0.1811(4)
H9_4 H 0.4968 0.7937 0.1215
H10_4 H 0.5643 0.8213 0.2166
O18_2 O 0.3341(3) 0.79268(8) 0.6469(4)
H11_2 H 0.2937 0.8094 0.6604
H12_2 H 0.3019 0.7739 0.6581
C4_2 C 0.9292(3) 0.52561(10) 0.7015(5)
H16_2 H 0.8665 0.5390 0.6420
C5_4 C 0.9323(3) 0.49126(9) 0.6646(5)
H21_2 H 0.9398 0.5872 0.8357
C11_4 C 0.8320(4) 0.47510(11) 0.5318(5)
H22_2 H 0.8668 0.4582 0.4693
H23_2 H 0.7938 0.4925 0.4529
C12_4 C 0.7375(3) 0.45826(9) 0.6096(5)
C13_2 C 0.8406(3) 0.76243(10) 0.6277(5)
C14_2 C 0.9097(4) 0.73534(10) 0.5937(5)
H24_2 H 0.8863 0.7133 0.6129
C17_2 C 0.9802(3) 0.80092(10) 0.5370(5)
C18_2 C 0.8775(4) 0.79510(10) 0.6004(5)
H26_2 H 0.8330 0.8136 0.6248
C19_2 C 0.7288(4) 0.75569(12) 0.6948(6)
H27_2 H 0.7224 0.7314 0.7114
H28_2 H 0.7389 0.7665 0.8043
C20_2 C 0.6109(4) 0.76820(12) 0.5823(6)
H31_4 H 0.9532 0.8508 0.4610
O13_3 O 0.4014(3) 0.04304(9) 0.9731(4)
H1_3 H 0.3901 0.0226 0.9576
H2_3 H 0.4220 0.0554 0.8881
H22_3 H 0.8668 0.0418 0.9693
H23_3 H 0.7938 0.0075 0.9529
O7_3 O 0.5972(3) 0.70000(8) 0.0646(5)
O8_3 O 0.5313(3) 0.75215(8) 0.0120(4)
H7_3 H 0.3981 0.6395 0.0510
O18_3 O 0.3341(3) 0.70732(8) 0.1469(4)
H11_3 H 0.2937 0.6906 0.1604
H12_3 H 0.3019 0.7261 0.1581
C4_3 C 0.9292(3) 0.97439(10) 0.2015(5)
H16_3 H 0.8665 0.9610 0.1420
H21_3 H 0.9398 0.9128 0.3357
C13_3 C 0.8406(3) 0.73757(10) 0.1277(5)
C14_3 C 0.9097(4) 0.76466(10) 0.0937(5)
H24_3 H 0.8863 0.7867 0.1129
C17_3 C 0.9802(3) 0.69908(10) 0.0370(5)
C18_3 C 0.8775(4) 0.70490(10) 0.1004(5)
H26_3 H 0.8330 0.6864 0.1248
C19_3 C 0.7288(4) 0.74431(12) 0.1948(6)
H27_3 H 0.7224 0.7686 0.2114
H28_3 H 0.7389 0.7335 0.3043
C20_3 C 0.6109(4) 0.73180(12) 0.0823(6)
O14_3 O 0.3916(2) 0.55207(7) 0.9676(4)
H3_3 H 0.3779 0.5324 0.9350
H4_3 H 0.3318 0.5637 0.9293
H15_3 H 0.8292 0.4706 0.9996
H19_3 H 0.7444 0.5241 0.9198
O7_4 O 0.4028(3) 0.30000(8) 0.9354(5)
O8_4 O 0.4687(3) 0.24785(8) 0.9880(4)
H7_4 H 0.6019 0.3605 0.9490
O18_4 O 0.6659(3) 0.29268(8) 0.8531(4)
H11_4 H 0.7063 0.3094 0.8396
H12_4 H 0.6981 0.2739 0.8419
C4_4 C 0.0708(3) 0.02561(10) 0.7985(5)
H16_4 H 0.1335 0.0390 0.8580
H21_4 H 0.0602 0.0872 0.6643
C13_4 C 0.1594(3) 0.26243(10) 0.8723(5)
C14_4 C 0.0903(4) 0.23534(10) 0.9063(5)
H24_4 H 0.1137 0.2133 0.8871
C17_4 C 0.0198(3) 0.30092(10) 0.9630(5)
C18_4 C 0.1225(4) 0.29510(10) 0.8996(5)
H26_4 H 0.1670 0.3136 0.8752
C19_4 C 0.2712(4) 0.25569(12) 0.8052(6)
H27_4 H 0.2776 0.2314 0.7886
H28_4 H 0.2611 0.2665 0.6957
C20_4 C 0.3891(4) 0.26820(12) 0.9177(6)
H22_4 H 0.1332 0.9582 0.0307
H23_4 H 0.2062 0.9925 0.0471
O13_4 O 0.5986(3) 0.95696(9) 0.0269(4)
H1_4 H 0.6099 0.9774 0.0424
H2_4 H 0.5780 0.9446 0.1119
O14_4 O 0.6084(2) 0.44793(7) 0.0324(4)
H3_4 H 0.6221 0.4676 0.0650
H4_4 H 0.6682 0.4363 0.0707
H15_4 H 0.1708 0.5294 0.0004
H19_4 H 0.2556 0.4759 0.0802
loop_
_geom_bond_atom_site_label_1
_geom_bond_atom_site_label_2
_geom_bond_site_symmetry_1
_geom_bond_site_symmetry_2
Cd1 O1 1_555 1_555
O1 C8 1_555 1_555
O2 Cd1 1_555 1_555
O14 Cd1 1_555 1_555
H3 O14 1_555 1_555
H4 O14 1_555 1_555
O15 Cd1 1_555 1_555
H5 O15 1_555 1_555
H6 O15 1_555 1_555
C6 C1 1_555 1_555
H17 C6 1_555 1_555
C7 C1 1_555 1_555
H18 C7 1_555 1_555
H19 C7 1_555 1_555
C8 O2 1_555 1_555
O20 Cd1 1_555 1_555
C7 C8 1_555 1_555
O3 C10 1_555 1_555
O9 C22 1_555 1_555
O11 C24 1_555 1_555
O12 C24 1_555 1_555
H13 O19 1_555 1_555
H14 O19 1_555 1_555
C2 H15 1_555 1_555
C3 C2 1_555 1_555
C9 C3 1_555 1_555
H20 C9 1_555 1_555
C10 O4 1_555 1_555
C16 C15 1_555 1_555
C22 O10 1_555 1_555
C24 C23 1_555 1_555
Cd5 O9 1_555 1_555
Cd7 O11 1_555 1_555
O12 Cd7 1_555 1_555
C9 C10 1_555 1_555
H29 C21 1_555 1_555
H30 C21 1_555 1_555
O21 Cd3 1_555 1_555
O23 Cd3 1_555 1_555
O24 Cd3 1_555 1_555
O20 C12 1_555 1_555
O6 C12 1_555 1_555
C11 C5 1_555 1_555
C12 C11 1_555 1_555
Cd6 O6 1_555 1_555
O16 Cd2 1_555 1_555
H8 O16 1_555 1_555
O17 Cd2 1_555 1_555
H9 O17 1_555 1_555
H10 O17 1_555 1_555
O22 Cd2 1_555 1_555
Cd2_2 O7 1_555 1_555
O5 C12_2 1_555 1_555
O6_2 C12_2 1_555 1_555
O7 C20 1_555 1_555
O8 Cd2_2 1_555 1_555
O16_2 Cd2_2 1_555 1_555
H7 O16_2 1_555 1_555
H8_2 O16_2 1_555 1_555
O17_2 Cd2_2 1_555 1_555
H9_2 O17_2 1_555 1_555
H10_2 O17_2 1_555 1_555
O18 Cd2_2 1_555 1_555
H11 O18 1_555 1_555
H12 O18 1_555 1_555
H16 C4 1_555 1_555
C5_2 C4 1_555 1_555
C11_2 C5_2 1_555 1_555
H22 C11_2 1_555 1_555
H23 C11_2 1_555 1_555
C12_2 C11_2 1_555 1_555
C13 C14 1_555 1_555
C14 H24 1_555 1_555
C18 C13 1_555 1_555
H26 C18 1_555 1_555
C19 C13 1_555 1_555
H27 C19 1_555 1_555
H28 C19 1_555 1_555
C20 O8 1_555 1_555
Cd4 O5 1_555 1_555
Cd7 O6_2 1_555 1_555
O22_2 Cd2_2 1_555 1_555
C17 C18 1_555 1_555
C19 C20 1_555 1_555
Cd4 O1_2 1_555 1_555
Cd3_2 O3_2 1_555 1_555
O1_2 C8_2 1_555 1_555
O2_2 Cd4 1_555 1_555
O3_2 C10_2 1_555 1_555
O4_2 Cd3_2 1_555 1_555
O9_2 C22_2 1_555 1_555
O10_2 Cd3_2 1_555 1_555
O11_2 C24_2 1_555 1_555
O12_2 C24_2 1_555 1_555
O13 Cd4 1_555 1_555
H1 O13 1_555 1_555
H2 O13 1_555 1_555
O15_2 Cd4 1_555 1_555
H5_2 O15_2 1_555 1_555
H6_2 O15_2 1_555 1_555
O19_2 Cd3_2 1_555 1_555
H13_2 O19_2 1_555 1_555
H14_2 O19_2 1_555 1_555
C1_2 C2_2 1_555 1_555
C3_2 C2_2 1_555 1_555
C6_2 C1_2 1_555 1_555
H17_2 C6_2 1_555 1_555
C7_2 C1_2 1_555 1_555
H18_2 C7_2 1_555 1_555
C8_2 O2_2 1_555 1_555
C9_2 C3_2 1_555 1_555
H20_2 C9_2 1_555 1_555
C10_2 O4_2 1_555 1_555
C16_2 C15_2 1_555 1_555
H25_2 C16_2 1_555 1_555
C21_2 C15_2 1_555 1_555
H29_2 C21_2 1_555 1_555
H30_2 C21_2 1_555 1_555
C22_2 O10_2 1_555 1_555
H32_2 C23_2 1_555 1_555
C24_2 C23_2 1_555 1_555
Cd5_2 O9_2 1_555 1_555
Cd6 O11_2 1_555 1_555
O21_2 Cd3_2 1_555 1_555
O23_2 Cd3_2 1_555 1_555
O24_2 Cd3_2 1_555 1_555
O12_2 Cd6 1_555 1_555
C7_2 C8_2 1_555 1_555
C9_2 C10_2 1_555 1_555
C21_2 C22_2 1_555 1_555
O16_3 Cd5_2 1_555 1_555
H8_3 O16_3 1_555 1_555
O17_3 Cd5_2 1_555 1_555
H9_3 O17_3 1_555 1_555
H10_3 O17_3 1_555 1_555
O5_2 C12_3 1_555 1_555
O21 C12_3 1_555 1_555
C11_3 C5_3 1_555 1_555
C12_3 C11_3 1_555 1_555
Cd4_2 O5_2 1_555 1_555
H29_3 C21_3 1_555 1_555
H30_3 C21_3 1_555 1_555
O3_3 C10_3 1_555 1_555
O22_2 C22_3 1_555 1_555
O23_2 C24_3 1_555 1_555
O24_2 C24_3 1_555 1_555
H13_3 O19_3 1_555 1_555
H14_3 O19_3 1_555 1_555
C2_3 H15_2 1_555 1_555
C3_3 C2_3 1_555 1_555
C9_3 C3_3 1_555 1_555
H20_3 C9_3 1_555 1_555
C10_3 O4_3 1_555 1_555
C16_3 C15_3 1_555 1_555
C22_3 O10_3 1_555 1_555
C24_3 C23_3 1_555 1_555
C9_3 C10_3 1_555 1_555
Cd4_2 O1_3 1_555 1_555
O1_3 C8_3 1_555 1_555
O2_3 Cd4_2 1_555 1_555
O14_2 Cd4_2 1_555 1_555
H3_2 O14_2 1_555 1_555
H4_2 O14_2 1_555 1_555
O15_3 Cd4_2 1_555 1_555
H5_3 O15_3 1_555 1_555
H6_3 O15_3 1_555 1_555
C6_3 C1_3 1_555 1_555
H17_3 C6_3 1_555 1_555
C7_3 C1_3 1_555 1_555
H18_3 C7_3 1_555 1_555
H19_2 C7_3 1_555 1_555
C8_3 O2_3 1_555 1_555
C7_3 C8_3 1_555 1_555
Cd1_2 O1_4 1_555 1_555
Cd7 O3_4 1_555 1_555
O1_4 C8_4 1_555 1_555
O2_4 Cd1_2 1_555 1_555
O3_4 C10_4 1_555 1_555
O4_4 Cd7 1_555 1_555
O22 C22_4 1_555 1_555
O10_4 Cd7 1_555 1_555
O23 C24_4 1_555 1_555
O24 C24_4 1_555 1_555
O13_2 Cd1_2 1_555 1_555
H1_2 O13_2 1_555 1_555
H2_2 O13_2 1_555 1_555
O15_4 Cd1_2 1_555 1_555
H5_4 O15_4 1_555 1_555
H6_4 O15_4 1_555 1_555
O19_4 Cd7 1_555 1_555
H13_4 O19_4 1_555 1_555
H14_4 O19_4 1_555 1_555
C1_4 C2_4 1_555 1_555
C3_4 C2_4 1_555 1_555
C6_4 C1_4 1_555 1_555
H17_4 C6_4 1_555 1_555
C7_4 C1_4 1_555 1_555
H18_4 C7_4 1_555 1_555
C8_4 O2_4 1_555 1_555
C9_4 C3_4 1_555 1_555
H20_4 C9_4 1_555 1_555
C10_4 O4_4 1_555 1_555
C16_4 C15_4 1_555 1_555
H25_4 C16_4 1_555 1_555
C21_4 C15_4 1_555 1_555
H29_4 C21_4 1_555 1_555
H30_4 C21_4 1_555 1_555
C22_4 O10_4 1_555 1_555
H32_4 C23_4 1_555 1_555
C24_4 C23_4 1_555 1_555
O20_2 Cd1_2 1_555 1_555
C7_4 C8_4 1_555 1_555
C9_4 C10_4 1_555 1_555
C21_4 C22_4 1_555 1_555
Cd5 O7_2 1_555 1_555
O20_2 C12_4 1_555 1_555
O21_2 C12_4 1_555 1_555
O7_2 C20_2 1_555 1_555
O8_2 Cd5 1_555 1_555
O16_4 Cd5 1_555 1_555
H7_2 O16_4 1_555 1_555
H8_4 O16_4 1_555 1_555
O17_4 Cd5 1_555 1_555
H9_4 O17_4 1_555 1_555
H10_4 O17_4 1_555 1_555
O18_2 Cd5 1_555 1_555
H11_2 O18_2 1_555 1_555
H12_2 O18_2 1_555 1_555
H16_2 C4_2 1_555 1_555
C5_4 C4_2 1_555 1_555
C11_4 C5_4 1_555 1_555
H22_2 C11_4 1_555 1_555
H23_2 C11_4 1_555 1_555
C12_4 C11_4 1_555 1_555
C13_2 C14_2 1_555 1_555
C14_2 H24_2 1_555 1_555
C18_2 C13_2 1_555 1_555
H26_2 C18_2 1_555 1_555
C19_2 C13_2 1_555 1_555
H27_2 C19_2 1_555 1_555
H28_2 C19_2 1_555 1_555
C20_2 O8_2 1_555 1_555
C17_2 C18_2 1_555 1_555
C19_2 C20_2 1_555 1_555
H1_3 O13_3 1_555 1_555
H2_3 O13_3 1_555 1_555
O7_3 C20_3 1_555 1_555
H11_3 O18_3 1_555 1_555
H12_3 O18_3 1_555 1_555
H16_3 C4_3 1_555 1_555
C13_3 C14_3 1_555 1_555
C14_3 H24_3 1_555 1_555
C18_3 C13_3 1_555 1_555
H26_3 C18_3 1_555 1_555
C19_3 C13_3 1_555 1_555
H27_3 C19_3 1_555 1_555
H28_3 C19_3 1_555 1_555
C20_3 O8_3 1_555 1_555
C17_3 C18_3 1_555 1_555
C19_3 C20_3 1_555 1_555
H3_3 O14_3 1_555 1_555
H4_3 O14_3 1_555 1_555
O7_4 C20_4 1_555 1_555
H11_4 O18_4 1_555 1_555
H12_4 O18_4 1_555 1_555
H16_4 C4_4 1_555 1_555
C13_4 C14_4 1_555 1_555
C14_4 H24_4 1_555 1_555
C18_4 C13_4 1_555 1_555
H26_4 C18_4 1_555 1_555
C19_4 C13_4 1_555 1_555
H27_4 C19_4 1_555 1_555
H28_4 C19_4 1_555 1_555
C20_4 O8_4 1_555 1_555
C17_4 C18_4 1_555 1_555
C19_4 C20_4 1_555 1_555
H1_4 O13_4 1_555 1_555
H2_4 O13_4 1_555 1_555
H3_4 O14_4 1_555 1_555
H4_4 O14_4 1_555 1_555

#END
