
###############################################################################
#
# This file contains modified crystal structure data generated from the
# MOF subset of the Cambridge Structural Database (CSD) v543 
# hosted by the Cambridge Crystallographic Data Centre (CCDC).
#
# This work is licensed under the Creative Commons
# Attribution-NonCommercial-ShareAlike 4.0 International License.
# To view a copy of this license, visit
# http://creativecommons.org/licenses/by-nc-sa/4.0/
# or send a letter to
# Creative Commons, PO Box 1866, Mountain View, CA 94042, USA.
#
# CIF created using the CSD Python API on 29 September 2022
# The structure has been converted into the P1 space group
# The structure has a 3D framework
# The original CSD entry YEHQAG is in the orthorhombic crystal system
# The original CSD entry YEHQAG is in a Sohncke space group
# The framework has been calculated to contain at least 10.0% void space
# The void calculation uses a probe of radius 1.32A, grid spacing 0.4
#
###############################################################################

data_YEHQAG
_chemical_formula_moiety         '(C336 H224 N64 O62 Zn16)n'
_symmetry_cell_setting           triclinic
_symmetry_space_group_name_H-M   'P 1'
_symmetry_Int_Tables_number      1
_space_group_name_Hall           'P 1'
loop_
_symmetry_equiv_pos_site_id
_symmetry_equiv_pos_as_xyz
1 x,y,z
_cell_length_a                   16.5520(2)
_cell_length_b                   18.8640(2)
_cell_length_c                   29.4330(3)
_cell_angle_alpha                90
_cell_angle_beta                 90
_cell_angle_gamma                90
_cell_volume                     9190.07
loop_
_atom_site_label
_atom_site_type_symbol
_atom_site_fract_x
_atom_site_fract_y
_atom_site_fract_z
H8 H 0.0006 0.8377 0.2444
C17 C 0.0130(3) 0.7309(2) 0.25203(17)
H12 H 0.0704 0.7306 0.2529
C27 C 0.0149(3) 0.5983(3) 0.25984(17)
O11 O 0.0915(2) 0.60420(16) 0.25904(12)
Zn4 Zn 0.15523(3) 0.51662(2) 0.26492(2)
C1 C 0.6592(3) 0.0481(2) 0.23611(14)
O5 O 0.73158(18) 0.05721(16) 0.22802(11)
C5 C 0.6081(3) 0.1116(2) 0.24788(14)
Zn2 Zn 0.84477(3) 0.01662(2) 0.23508(2)
C9 C 0.5253(3) 0.1044(2) 0.25373(16)
C10 C 0.6437(3) 0.1787(2) 0.25266(15)
N3 N 0.8571(2) 0.02071(19) 0.16228(12)
O7 O 0.9085(2) 0.10420(16) 0.24096(12)
N4 N 0.8244(2) 0.0226(2) 0.30894(13)
C14 C 0.4773(3) 0.1635(2) 0.26244(17)
H5 H 0.5012 0.0588 0.2518
H6 H 0.7005 0.1842 0.2495
C15 C 0.5952(3) 0.2371(2) 0.26202(15)
C20 C 0.8194(3) 0.0699(2) 0.13712(16)
C21 C 0.5125(3) 0.2299(2) 0.26607(15)
H9 H 0.4206 0.1582 0.2659
H10 H 0.6193 0.2824 0.2657
C25 C 0.8321(3) 0.0785(2) 0.09113(16)
H14 H 0.7819 0.1005 0.1518
C26 C 0.4590(3) 0.2934(2) 0.27254(15)
C29 C 0.8866(3) 0.0349(2) 0.06861(15)
H17 H 0.8037 0.1142 0.0749
C31 C 0.9009(3) 0.0412(2) 0.02012(16)
O9 O 0.38273(19) 0.28312(16) 0.27139(11)
O10 O 0.4884(2) 0.35376(15) 0.27732(11)
Zn3 Zn 0.34443(3) 0.38690(2) 0.26626(2)
C32 C 0.6726(3) 0.0099(3) 0.88751(17)
C34 C 0.8683(3) 0.0832(2) 0.98622(15)
H19 H 0.6566 0.0434 0.9099
C35 C 0.6573(3) 0.0224(2) 0.84197(15)
N8 N 0.9597(2) 0.0112(2) 0.95376(12)
H22 H 0.8283 0.1189 0.9896
C37 C 0.9060(3) 0.0625(3) 0.94613(15)
H23 H 0.6323 0.0660 0.8339
C38 C 0.8942(3) 0.0845(2) 0.89841(15)
C39 C 0.8377(3) 0.1339(2) 0.88377(15)
C40 C 0.9420(3) 0.0529(3) 0.86480(16)
H25 H 0.8062 0.1592 0.9053
C41 C 0.8275(3) 0.1462(2) 0.83757(16)
C42 C 0.9287(3) 0.0684(3) 0.82004(16)
H26 H 0.9836 0.0207 0.8731
H27 H 0.7880 0.1798 0.8282
H28 H 0.9621 0.0466 0.7978
N10 N 0.8705(2) 0.11309(19) 0.80595(12)
Zn6 Zn 0.84443(3) 0.11310(2) 0.73374(2)
Zn1 Zn 0.65557(3) 0.88690(2) 0.23374(2)
O1 O 0.62216(19) 0.98953(15) 0.23510(12)
O2 O 0.7703(2) 0.86516(18) 0.25040(11)
N1 N 0.6791(2) 0.89548(18) 0.16309(12)
O3 O 0.61727(19) 0.78312(16) 0.22861(11)
O4 O 0.5116(2) 0.85376(15) 0.22268(11)
N2 N 0.6295(2) 0.88691(19) 0.30595(12)
C2 C 0.8440(3) 0.8645(2) 0.24432(13)
C3 C 0.7301(3) 0.8507(2) 0.14257(15)
C4 C 0.6447(3) 0.9454(2) 0.13705(15)
O6 O 0.8864(2) 0.91865(15) 0.23714(12)
C6 C 0.8881(3) 0.7951(2) 0.24737(14)
H1 H 0.7539 0.8140 0.1601
C7 C 0.7496(3) 0.8554(2) 0.09733(16)
C8 C 0.6604(3) 0.9539(2) 0.09162(15)
H2 H 0.6072 0.9767 0.1509
C11 C 0.8449(3) 0.7320(2) 0.25109(15)
C12 C 0.9716(3) 0.7945(2) 0.24748(16)
H3 H 0.7868 0.8229 0.0844
C13 C 0.7146(3) 0.9080(2) 0.07042(14)
H4 H 0.6346 0.9905 0.0748
C16 C 0.8867(3) 0.6688(3) 0.25488(18)
H7 H 0.7875 0.7324 0.2510
C18 C 0.7319(3) 0.9123(2) 0.02175(15)
C19 C 0.9099(3) 0.9789(2) 0.14020(16)
C22 C 0.9698(3) 0.6674(2) 0.25531(16)
H11 H 0.8575 0.6256 0.2572
N5 N 0.7839(2) 0.8649(2) 0.00321(13)
H13 H 0.9373 0.9434 0.1571
C24 C 0.9265(3) 0.9844(3) 0.09485(16)
H16 H 0.9651 0.9538 0.0813
O8 O 0.9777(2) 0.54264(17) 0.26522(17)
H21 H 0.9856 0.9674 0.0124
C23 C 0.6978(3) 0.9556(2) 0.98798(16)
N6 N 0.7806(2) 0.8776(2) 0.95874(13)
H15 H 0.6609 0.9936 0.9921
C28 C 0.7294(3) 0.9312(2) 0.94763(16)
H18 H 0.8088 0.8537 0.9386
C30 C 0.7114(3) 0.9482(2) 0.90003(15)
C33 C 0.7297(3) 0.9004(3) 0.86593(17)
N7 N 0.9558(2) 0.9992(2) 0.99838(13)
C36 C 0.7105(3) 0.9164(2) 0.82168(15)
H20 H 0.7553 0.8567 0.8731
H24 H 0.7227 0.8824 0.7989
N9 N 0.6756(2) 0.9774(2) 0.80894(13)
Zn5 Zn 0.65523(3) 0.98338(2) 0.73508(2)
C14_2 C 0.0227(3) 0.8365(2) 0.76244(17)
H9_2 H 0.0794 0.8418 0.7659
C26_2 C 0.0410(3) 0.7066(2) 0.77254(15)
O9_2 O 0.11727(19) 0.71688(16) 0.77139(11)
O10_2 O 0.0116(2) 0.64624(15) 0.77732(11)
Zn3_2 Zn 0.15557(3) 0.61310(2) 0.76626(2)
O1_2 O 0.87784(19) 0.01047(15) 0.73510(12)
O2_2 O 0.7297(2) 0.13484(18) 0.75040(11)
N1_2 N 0.8209(2) 0.10452(18) 0.66309(12)
O3_2 O 0.88273(19) 0.21688(16) 0.72861(11)
O4_2 O 0.9884(2) 0.14624(15) 0.72268(11)
C2_2 C 0.6560(3) 0.1355(2) 0.74432(13)
C3_2 C 0.7699(3) 0.1493(2) 0.64257(15)
C4_2 C 0.8553(3) 0.0546(2) 0.63705(15)
O6_2 O 0.6136(2) 0.08135(15) 0.73714(12)
C6_2 C 0.6119(3) 0.2049(2) 0.74737(14)
H1_2 H 0.7461 0.1860 0.6601
C7_2 C 0.7504(3) 0.1446(2) 0.59733(16)
C8_2 C 0.8396(3) 0.0461(2) 0.59162(15)
H2_2 H 0.8928 0.0233 0.6509
C11_2 C 0.6551(3) 0.2680(2) 0.75109(15)
C12_2 C 0.5284(3) 0.2055(2) 0.74748(16)
H3_2 H 0.7132 0.1771 0.5844
C13_2 C 0.7854(3) 0.0920(2) 0.57042(14)
H4_2 H 0.8654 0.0095 0.5748
C16_2 C 0.6133(3) 0.3312(3) 0.75488(18)
H7_2 H 0.7125 0.2676 0.7510
H8_2 H 0.4994 0.1623 0.7444
C17_2 C 0.4870(3) 0.2691(2) 0.75203(17)
C18_2 C 0.7681(3) 0.0877(2) 0.52175(15)
C19_2 C 0.5901(3) 0.0211(2) 0.64020(16)
C22_2 C 0.5302(3) 0.3326(2) 0.75531(16)
H11_2 H 0.6425 0.3744 0.7572
H12_2 H 0.4296 0.2694 0.7529
N5_2 N 0.7161(2) 0.1351(2) 0.50321(13)
C23_2 C 0.8022(3) 0.0444(2) 0.48798(16)
H13_2 H 0.5627 0.0566 0.6571
C24_2 C 0.5735(3) 0.0156(3) 0.59485(16)
C27_2 C 0.4851(3) 0.4017(3) 0.75984(17)
N6_2 N 0.7194(2) 0.1224(2) 0.45874(13)
H15_2 H 0.8391 0.0064 0.4921
C28_2 C 0.7706(3) 0.0688(2) 0.44763(16)
H16_2 H 0.5349 0.0462 0.5813
O8_2 O 0.5223(2) 0.45736(17) 0.76522(17)
H18_2 H 0.6912 0.1463 0.4386
C30_2 C 0.7886(3) 0.0518(2) 0.40003(15)
C33_2 C 0.7703(3) 0.0996(3) 0.36593(17)
N7_2 N 0.5442(2) 0.0008(2) 0.49838(13)
C36_2 C 0.7895(3) 0.0836(2) 0.32168(15)
H20_2 H 0.7447 0.1433 0.3731
H21_2 H 0.5144 0.0326 0.5124
H24_2 H 0.7773 0.1176 0.2989
O11_2 O 0.4085(2) 0.39580(16) 0.75904(12)
Zn4_2 Zn 0.34477(3) 0.48338(2) 0.76492(2)
C1_2 C 0.8408(3) 0.9519(2) 0.73611(14)
O5_2 O 0.76842(18) 0.94279(16) 0.72802(11)
C5_2 C 0.8919(3) 0.8884(2) 0.74788(14)
C9_2 C 0.9747(3) 0.8956(2) 0.75373(16)
C10_2 C 0.8563(3) 0.8213(2) 0.75266(15)
N3_2 N 0.6429(2) 0.97929(19) 0.66228(12)
O7_2 O 0.5915(2) 0.89580(16) 0.74096(12)
H5_2 H 0.9988 0.9412 0.7518
H6_2 H 0.7995 0.8158 0.7495
C15_2 C 0.9048(3) 0.7629(2) 0.76202(15)
C20_2 C 0.6806(3) 0.9301(2) 0.63712(16)
C21_2 C 0.9875(3) 0.7701(2) 0.76607(15)
H10_2 H 0.8807 0.7176 0.7657
C25_2 C 0.6679(3) 0.9215(2) 0.59113(16)
H14_2 H 0.7181 0.8995 0.6518
C29_2 C 0.6134(3) 0.9651(2) 0.56861(15)
H17_2 H 0.6963 0.8858 0.5749
C31_2 C 0.5991(3) 0.9588(2) 0.52012(16)
C32_2 C 0.8274(3) 0.9901(3) 0.38751(17)
C34_2 C 0.6317(3) 0.9168(2) 0.48622(15)
H19_2 H 0.8434 0.9566 0.4099
C35_2 C 0.8427(3) 0.9776(2) 0.34197(15)
N8_2 N 0.5403(2) 0.9888(2) 0.45376(12)
H22_2 H 0.6717 0.8811 0.4896
C37_2 C 0.5940(3) 0.9375(3) 0.44613(15)
H23_2 H 0.8677 0.9340 0.3339
C38_2 C 0.6058(3) 0.9155(2) 0.39841(15)
C39_2 C 0.6623(3) 0.8661(2) 0.38377(15)
C40_2 C 0.5580(3) 0.9471(3) 0.36480(16)
H25_2 H 0.6938 0.8408 0.4053
C41_2 C 0.6725(3) 0.8538(2) 0.33757(16)
C42_2 C 0.5713(3) 0.9316(3) 0.32004(16)
H26_2 H 0.5164 0.9793 0.3731
H27_2 H 0.7120 0.8202 0.3282
H28_2 H 0.5379 0.9534 0.2978
C23_3 C 0.1978(3) 0.5444(2) 0.01202(16)
N6_3 N 0.2806(2) 0.6224(2) 0.04126(13)
H15_3 H 0.1609 0.5064 0.0079
C28_3 C 0.2294(3) 0.5688(2) 0.05237(16)
H18_3 H 0.3088 0.6463 0.0614
C30_3 C 0.2114(3) 0.5518(2) 0.09997(15)
C32_3 C 0.1726(3) 0.4901(3) 0.11249(17)
C33_3 C 0.2297(3) 0.5996(3) 0.13407(17)
N7_3 N 0.4558(2) 0.5008(2) 0.00162(13)
C34_3 C 0.3683(3) 0.4168(2) 0.01378(15)
H19_3 H 0.1566 0.4566 0.0901
C35_3 C 0.1573(3) 0.4776(2) 0.15803(15)
C36_3 C 0.2105(3) 0.5836(2) 0.17832(15)
H20_3 H 0.2553 0.6433 0.1269
N8_3 N 0.4597(2) 0.4888(2) 0.04624(12)
H22_3 H 0.3283 0.3811 0.0104
C37_3 C 0.4060(3) 0.4375(3) 0.05387(15)
H23_3 H 0.1323 0.4340 0.1661
H24_3 H 0.2227 0.6176 0.2011
C38_3 C 0.3942(3) 0.4155(2) 0.10159(15)
C39_3 C 0.3377(3) 0.3661(2) 0.11623(15)
C40_3 C 0.4420(3) 0.4471(3) 0.13520(16)
H25_3 H 0.3062 0.3408 0.0947
C41_3 C 0.3275(3) 0.3538(2) 0.16243(16)
C42_3 C 0.4287(3) 0.4316(3) 0.17996(16)
H26_3 H 0.4836 0.4793 0.1269
H27_3 H 0.2880 0.3202 0.1718
H28_3 H 0.4621 0.4534 0.2022
N9_2 N 0.1756(2) 0.5226(2) 0.19106(13)
N10_2 N 0.3705(2) 0.38691(19) 0.19405(12)
O1_3 O 0.12216(19) 0.51047(15) 0.76490(12)
O2_3 O 0.2703(2) 0.63484(18) 0.74960(11)
N1_3 N 0.1791(2) 0.60452(18) 0.83691(12)
N2_2 N 0.1295(2) 0.61309(19) 0.69405(12)
C1_3 C 0.1592(3) 0.4519(2) 0.76389(14)
C2_3 C 0.3440(3) 0.6355(2) 0.75568(13)
C3_3 C 0.2301(3) 0.6493(2) 0.85743(15)
C4_3 C 0.1447(3) 0.5546(2) 0.86295(15)
O5_3 O 0.23158(18) 0.44279(16) 0.77198(11)
C5_3 C 0.1081(3) 0.3884(2) 0.75212(14)
O6_3 O 0.3864(2) 0.58135(15) 0.76286(12)
C6_3 C 0.3881(3) 0.7049(2) 0.75263(14)
H1_3 H 0.2539 0.6860 0.8399
C7_3 C 0.2496(3) 0.6446(2) 0.90267(16)
C8_3 C 0.1604(3) 0.5461(2) 0.90838(15)
H2_3 H 0.1072 0.5233 0.8491
C9_3 C 0.0253(3) 0.3956(2) 0.74627(16)
C10_3 C 0.1437(3) 0.3213(2) 0.74734(15)
C11_3 C 0.3449(3) 0.7680(2) 0.74891(15)
C12_3 C 0.4716(3) 0.7055(2) 0.75252(16)
H3_3 H 0.2868 0.6771 0.9156
C13_3 C 0.2146(3) 0.5920(2) 0.92958(14)
H4_3 H 0.1346 0.5095 0.9252
N3_3 N 0.3571(2) 0.47929(19) 0.83772(12)
N4_2 N 0.3244(2) 0.4774(2) 0.69106(13)
H5_3 H 0.0012 0.4412 0.7482
H6_3 H 0.2005 0.3158 0.7505
C15_3 C 0.0952(3) 0.2629(2) 0.73798(15)
C16_3 C 0.3867(3) 0.8312(3) 0.74512(18)
H7_3 H 0.2875 0.7676 0.7490
H8_3 H 0.5006 0.6623 0.7556
C17_3 C 0.5130(3) 0.7691(2) 0.74797(17)
C18_3 C 0.2319(3) 0.5877(2) 0.97825(15)
C19_3 C 0.4099(3) 0.5211(2) 0.85980(16)
C20_3 C 0.3194(3) 0.4301(2) 0.86288(16)
C21_3 C 0.0125(3) 0.2701(2) 0.73393(15)
H10_3 H 0.1193 0.2176 0.7343
C22_3 C 0.4698(3) 0.8326(2) 0.74469(16)
H11_3 H 0.3575 0.8744 0.7428
H12_3 H 0.5704 0.7694 0.7471
N5_3 N 0.2839(2) 0.6351(2) 0.99679(13)
H13_3 H 0.4373 0.5566 0.8429
C24_3 C 0.4265(3) 0.5156(3) 0.90515(16)
C25_3 C 0.3321(3) 0.4215(2) 0.90887(16)
H14_3 H 0.2819 0.3995 0.8482
C27_3 C 0.5149(3) 0.9017(3) 0.74016(17)
H16_3 H 0.4651 0.5462 0.9187
C29_3 C 0.3866(3) 0.4651(2) 0.93139(15)
H17_3 H 0.3037 0.3858 0.9251
O8_3 O 0.4777(2) 0.95736(17) 0.73478(17)
C31_3 C 0.4009(3) 0.4588(2) 0.97988(16)
H21_3 H 0.4856 0.5326 0.9876
C14_3 C 0.9773(3) 0.3365(2) 0.73756(17)
H9_3 H 0.9206 0.3418 0.7341
C26_3 C 0.9590(3) 0.2066(2) 0.72746(15)
O1_4 O 0.37784(19) 0.48953(15) 0.26490(12)
O2_4 O 0.2297(2) 0.36516(18) 0.24960(11)
N1_4 N 0.3209(2) 0.39548(18) 0.33691(12)
C1_4 C 0.3408(3) 0.5481(2) 0.26389(14)
C2_4 C 0.1560(3) 0.3645(2) 0.25568(13)
C3_4 C 0.2699(3) 0.3507(2) 0.35743(15)
C4_4 C 0.3553(3) 0.4454(2) 0.36295(15)
O5_4 O 0.26842(18) 0.55721(16) 0.27198(11)
C5_4 C 0.3919(3) 0.6116(2) 0.25212(14)
O6_4 O 0.1136(2) 0.41865(15) 0.26286(12)
C6_4 C 0.1119(3) 0.2951(2) 0.25263(14)
H1_4 H 0.2461 0.3140 0.3399
C7_4 C 0.2504(3) 0.3554(2) 0.40267(16)
C8_4 C 0.3396(3) 0.4539(2) 0.40838(15)
H2_4 H 0.3928 0.4767 0.3491
C9_4 C 0.4747(3) 0.6044(2) 0.24627(16)
C10_4 C 0.3563(3) 0.6787(2) 0.24734(15)
C11_4 C 0.1551(3) 0.2320(2) 0.24891(15)
C12_4 C 0.0284(3) 0.2945(2) 0.25252(16)
H3_4 H 0.2132 0.3229 0.4156
C13_4 C 0.2854(3) 0.4080(2) 0.42958(14)
H4_4 H 0.3654 0.4905 0.4252
N3_4 N 0.1429(2) 0.52071(19) 0.33772(12)
C14_4 C 0.5227(3) 0.6635(2) 0.23756(17)
H5_4 H 0.4988 0.5588 0.2482
H6_4 H 0.2995 0.6842 0.2505
C15_4 C 0.4048(3) 0.7371(2) 0.23798(15)
C16_4 C 0.1133(3) 0.1688(3) 0.24512(18)
H7_4 H 0.2125 0.2324 0.2490
C18_4 C 0.2681(3) 0.4123(2) 0.47825(15)
C19_4 C 0.0901(3) 0.4789(2) 0.35980(16)
C20_4 C 0.1806(3) 0.5699(2) 0.36288(16)
C21_4 C 0.4875(3) 0.7299(2) 0.23393(15)
H9_4 H 0.5794 0.6582 0.2341
H10_4 H 0.3807 0.7824 0.2343
C22_4 C 0.0302(3) 0.1674(2) 0.24469(16)
H11_4 H 0.1425 0.1256 0.2428
N5_4 N 0.2161(2) 0.3649(2) 0.49679(13)
C23_4 C 0.3022(3) 0.4556(2) 0.51202(16)
H13_4 H 0.0627 0.4434 0.3429
C24_4 C 0.0735(3) 0.4844(3) 0.40515(16)
C25_4 C 0.1679(3) 0.5785(2) 0.40887(16)
H14_4 H 0.2181 0.6005 0.3482
C26_4 C 0.5410(3) 0.7934(2) 0.22746(15)
N6_4 N 0.2194(2) 0.3776(2) 0.54126(13)
H15_4 H 0.3391 0.4936 0.5079
C28_4 C 0.2706(3) 0.4312(2) 0.55237(16)
H16_4 H 0.0349 0.4538 0.4187
C29_4 C 0.1134(3) 0.5349(2) 0.43139(15)
H17_4 H 0.1963 0.6142 0.4251
O8_4 O 0.0223(2) 0.04264(17) 0.23478(17)
H18_4 H 0.1912 0.3537 0.5614
C30_4 C 0.2886(3) 0.4482(2) 0.59997(15)
C31_4 C 0.0991(3) 0.5412(2) 0.47988(16)
C32_4 C 0.3274(3) 0.5099(3) 0.61249(17)
C33_4 C 0.2703(3) 0.4004(3) 0.63407(17)
N7_4 N 0.0442(2) 0.4992(2) 0.50162(13)
C34_4 C 0.1317(3) 0.5832(2) 0.51378(15)
H19_4 H 0.3434 0.5434 0.5901
C35_4 C 0.3427(3) 0.5224(2) 0.65803(15)
C36_4 C 0.2895(3) 0.4164(2) 0.67832(15)
H20_4 H 0.2447 0.3567 0.6269
H21_4 H 0.0144 0.4674 0.4876
N8_4 N 0.0403(2) 0.5112(2) 0.54624(12)
H22_4 H 0.1717 0.6189 0.5104
C37_4 C 0.0940(3) 0.5625(3) 0.55387(15)
H23_4 H 0.3677 0.5660 0.6661
H24_4 H 0.2773 0.3824 0.7011
C38_4 C 0.1058(3) 0.5845(2) 0.60159(15)
C39_4 C 0.1623(3) 0.6339(2) 0.61623(15)
C40_4 C 0.0580(3) 0.5529(3) 0.63520(16)
H25_4 H 0.1938 0.6592 0.5947
C41_4 C 0.1725(3) 0.6462(2) 0.66243(16)
C42_4 C 0.0713(3) 0.5684(3) 0.67996(16)
H26_4 H 0.0164 0.5207 0.6269
H27_4 H 0.2120 0.6798 0.6718
H28_4 H 0.0379 0.5466 0.7022
H8_4 H 0.9994 0.3377 0.2556
C17_4 C 0.9870(3) 0.2309(2) 0.24797(17)
H12_4 H 0.9296 0.2306 0.2471
C27_4 C 0.9851(3) 0.0983(3) 0.24016(17)
O14 O 0.29289(19) 0.10163(18) 0.01804(12)
O15 O 0.1803(2) 0.03993(15) 0.02966(10)
C45 C 0.1636(3) 0.2887(2) 0.00445(17)
H29 H 0.1898 0.3335 0.0044
C46 C 0.2075(3) 0.2283(2) 0.01307(16)
H30 H 0.2640 0.2315 0.0183
C47 C 0.1694(3) 0.1625(2) 0.01413(15)
C48 C 0.0872(3) 0.1587(2) 0.00647(15)
H31 H 0.0602 0.1143 0.0078
C50 C 0.2183(3) 0.0962(2) 0.02137(14)
H34 H 0.0488 0.0009 0.4176
C73 C 0.3680(2) 0.0140(2) 0.18147(14)
C75 C 0.2565(3) 0.0808(2) 0.41302(16)
H45 H 0.2246 0.1201 0.4224
C77 C 0.3367(3) 0.0742(2) 0.16059(15)
H47 H 0.3052 0.1068 0.1776
C78 C 0.3159(3) 0.0360(2) 0.26376(16)
C80 C 0.2651(3) 0.0688(3) 0.36686(16)
H50 H 0.2400 0.0996 0.3455
C83 C 0.3512(3) 0.0863(2) 0.11532(15)
H51 H 0.3287 0.1276 0.1018
H52 H 0.2868 0.0792 0.2609
C84 C 0.3106(3) 0.0120(2) 0.35196(15)
N16 N 0.3955(2) 0.04315(18) 0.08919(12)
Zn9 Zn 0.40646(3) 0.06340(3) 0.01688(2)
Zn11 Zn 0.28467(3) 0.06203(3) 0.51790(2)
O20 O 0.4611(2) 0.15709(18) 0.02497(11)
N20 N 0.2902(2) 0.04060(18) 0.44520(12)
O13 O 0.0661(3) 0.41037(19) 0.99130(15)
C43 C 0.0333(4) 0.3518(3) 0.98643(18)
C44 C 0.0817(3) 0.2849(2) 0.99590(16)
C49 C 0.0445(3) 0.2195(3) 0.99694(16)
N19 N 0.4020(2) 0.08519(19) 0.94324(12)
Zn8 Zn 0.21533(3) 0.93797(3) 0.01790(2)
C51 C 0.2414(3) 0.8469(2) 0.15423(15)
C52 C 0.1929(2) 0.8881(2) 0.18280(14)
C53 C 0.1537(3) 0.9453(2) 0.16343(14)
C54 C 0.1849(3) 0.8713(2) 0.23130(15)
H33 H 0.2693 0.8069 0.1661
C55 C 0.2488(3) 0.8641(2) 0.10922(16)
C56 C 0.0767(3) 0.9586(2) 0.40983(16)
C57 C 0.0930(3) 0.9459(2) 0.36447(16)
C58 C 0.1338(3) 0.8848(2) 0.35189(15)
H35 H 0.0763 0.9790 0.3420
C59 C 0.1529(3) 0.8372(2) 0.38644(16)
C60 C 0.1343(3) 0.8537(2) 0.43093(16)
H36 H 0.1477 0.8205 0.4540
H37 H 0.1786 0.7936 0.3794
C61 C 0.1439(3) 0.9092(2) 0.26531(14)
C62 C 0.1573(3) 0.8714(2) 0.30465(15)
H38 H 0.1135 0.9516 0.2619
O16 O 0.32880(18) 0.90130(17) 0.01397(11)
O17 O 0.0640(2) 0.90312(16) 0.02730(12)
O18 O 0.1690(2) 0.83894(16) 0.00704(11)
N12 N 0.2107(2) 0.91996(18) 0.09009(11)
N13 N 0.0980(2) 0.91481(19) 0.44324(12)
H39 H 0.2823 0.8354 0.0906
N14 N 0.2216(2) 0.81407(19) 0.24818(12)
N15 N 0.2039(2) 0.81523(19) 0.29257(12)
C63 C 0.1640(3) 0.9589(2) 0.11765(15)
H40 H 0.2208 0.7829 0.3119
H41 H 0.1363 0.9983 0.1050
H42 H 0.1200 0.9749 0.1814
C64 C 0.4017(3) 0.9078(2) 0.00530(14)
H43 H 0.5593 0.8900 0.0029
C72 C 0.4151(3) 0.9693(2) 0.15459(15)
C74 C 0.3543(2) 0.9988(2) 0.22987(15)
C76 C 0.3341(3) 0.9855(2) 0.43018(15)
H46 H 0.3598 0.9561 0.4520
H48 H 0.4386 0.9279 0.1672
C79 C 0.3292(3) 0.9962(2) 0.30375(15)
C81 C 0.4271(3) 0.9859(2) 0.10939(15)
C82 C 0.3439(3) 0.9692(2) 0.38524(14)
H53 H 0.4595 0.9549 0.0916
H55 H 0.3737 0.9282 0.3768
O19 O 0.4401(2) 0.96500(16) 0.00293(11)
N17 N 0.3871(2) 0.9406(2) 0.24993(12)
N18 N 0.3726(2) 0.9379(2) 0.29472(12)
H56 H 0.4149 0.9083 0.2351
Zn10 Zn 0.09354(3) 0.93660(3) 0.51688(2)
N11 N 0.2098(2) 0.95940(18) 0.94520(12)
C65 C 0.4500(3) 0.8415(2) 0.99818(15)
C66 C 0.5338(3) 0.8453(2) 0.99912(17)
C67 C 0.4126(3) 0.7763(2) 0.99223(15)
C68 C 0.5803(3) 0.7853(2) 0.99466(17)
H44 H 0.6375 0.7884 0.9959
C69 C 0.5428(3) 0.7200(2) 0.98828(15)
C70 C 0.4597(3) 0.7159(2) 0.98680(16)
C71 C 0.5951(3) 0.6540(2) 0.98460(15)
H49 H 0.3554 0.7731 0.9919
H54 H 0.4343 0.6713 0.9820
O21 O 0.6690(2) 0.66106(16) 0.99296(11)
Zn12 Zn 0.71533(3) 0.56203(3) 0.98210(2)
O22 O 0.5640(2) 0.59688(16) 0.97270(12)
Zn7 Zn 0.90646(3) 0.43660(3) 0.98312(2)
O12 O 0.9611(2) 0.34291(18) 0.97503(11)
H32 H 0.9882 0.2164 0.9910
C51_2 C 0.2586(3) 0.1531(2) 0.65423(15)
C52_2 C 0.3071(2) 0.1119(2) 0.68280(14)
C53_2 C 0.3463(3) 0.0547(2) 0.66343(14)
C54_2 C 0.3151(3) 0.1287(2) 0.73130(15)
H33_2 H 0.2307 0.1931 0.6661
C55_2 C 0.2512(3) 0.1359(2) 0.60922(16)
C56_2 C 0.4233(3) 0.0414(2) 0.90983(16)
C57_2 C 0.4070(3) 0.0541(2) 0.86447(16)
C58_2 C 0.3662(3) 0.1152(2) 0.85189(15)
H35_2 H 0.4237 0.0210 0.8420
C59_2 C 0.3471(3) 0.1628(2) 0.88644(16)
C60_2 C 0.3657(3) 0.1463(2) 0.93093(16)
H36_2 H 0.3523 0.1795 0.9540
H37_2 H 0.3214 0.2064 0.8794
C61_2 C 0.3561(3) 0.0908(2) 0.76531(14)
C62_2 C 0.3427(3) 0.1286(2) 0.80465(15)
H38_2 H 0.3865 0.0484 0.7619
O16_2 O 0.17120(18) 0.09870(17) 0.51397(11)
O17_2 O 0.4360(2) 0.09688(16) 0.52730(12)
O18_2 O 0.3310(2) 0.16106(16) 0.50704(11)
N12_2 N 0.2893(2) 0.08004(18) 0.59009(11)
H39_2 H 0.2177 0.1646 0.5906
N14_2 N 0.2784(2) 0.18593(19) 0.74818(12)
N15_2 N 0.2961(2) 0.18477(19) 0.79257(12)
C63_2 C 0.3360(3) 0.0411(2) 0.61765(15)
H40_2 H 0.2792 0.2171 0.8119
H41_2 H 0.3637 0.0017 0.6050
H42_2 H 0.3800 0.0251 0.6814
C64_2 C 0.0983(3) 0.0922(2) 0.50530(14)
C65_2 C 0.0500(3) 0.1585(2) 0.49818(15)
C67_2 C 0.0874(3) 0.2237(2) 0.49223(15)
C70_2 C 0.0403(3) 0.2841(2) 0.48680(16)
C72_2 C 0.0849(3) 0.0307(2) 0.65459(15)
C74_2 C 0.1457(2) 0.0012(2) 0.72987(15)
C76_2 C 0.1659(3) 0.0145(2) 0.93018(15)
H46_2 H 0.1402 0.0439 0.9520
H48_2 H 0.0614 0.0721 0.6672
C79_2 C 0.1708(3) 0.0038(2) 0.80375(15)
C81_2 C 0.0729(3) 0.0141(2) 0.60939(15)
H49_2 H 0.1446 0.2269 0.4919
C82_2 C 0.1561(3) 0.0308(2) 0.88524(14)
H53_2 H 0.0405 0.0451 0.5916
H54_2 H 0.0657 0.3287 0.4820
H55_2 H 0.1263 0.0718 0.8768
O19_2 O 0.0599(2) 0.03500(16) 0.50293(11)
N17_2 N 0.1129(2) 0.0594(2) 0.74993(12)
N18_2 N 0.1274(2) 0.0621(2) 0.79472(12)
H56_2 H 0.0851 0.0917 0.7351
Zn7_2 Zn 0.59354(3) 0.56340(3) 0.48312(2)
O12_2 O 0.5389(2) 0.65709(18) 0.47503(11)
O13_2 O 0.4339(3) 0.58963(19) 0.49130(15)
O14_2 O 0.20711(19) 0.89837(18) 0.51804(12)
O15_2 O 0.3197(2) 0.96007(15) 0.52966(10)
C43_2 C 0.4667(4) 0.6482(3) 0.48643(18)
C44_2 C 0.4183(3) 0.7151(2) 0.49590(16)
C45_2 C 0.3364(3) 0.7113(2) 0.50445(17)
H29_2 H 0.3102 0.6665 0.5044
C46_2 C 0.2925(3) 0.7717(2) 0.51307(16)
H30_2 H 0.2360 0.7685 0.5183
C47_2 C 0.3306(3) 0.8375(2) 0.51413(15)
C48_2 C 0.4128(3) 0.8413(2) 0.50647(15)
H31_2 H 0.4398 0.8857 0.5078
C49_2 C 0.4555(3) 0.7805(3) 0.49694(16)
H32_2 H 0.5118 0.7836 0.4910
C50_2 C 0.2817(3) 0.9038(2) 0.52137(14)
H34_2 H 0.4512 0.9991 0.9176
C73_2 C 0.1320(2) 0.9860(2) 0.68147(14)
C75_2 C 0.2435(3) 0.9192(2) 0.91302(16)
H45_2 H 0.2754 0.8799 0.9224
C77_2 C 0.1633(3) 0.9258(2) 0.66059(15)
H47_2 H 0.1948 0.8932 0.6776
C78_2 C 0.1841(3) 0.9640(2) 0.76376(16)
C80_2 C 0.2349(3) 0.9312(3) 0.86686(16)
H50_2 H 0.2600 0.9004 0.8455
C83_2 C 0.1488(3) 0.9137(2) 0.61532(15)
H51_2 H 0.1713 0.8724 0.6018
H52_2 H 0.2132 0.9208 0.7609
C84_2 C 0.1894(3) 0.9880(2) 0.85196(15)
N16_2 N 0.1045(2) 0.95685(18) 0.58919(12)
O20_2 O 0.0389(2) 0.84291(18) 0.52497(11)
C66_2 C 0.9662(3) 0.1547(2) 0.49912(17)
H43_2 H 0.9407 0.1100 0.5029
C68_2 C 0.9197(3) 0.2147(2) 0.49466(17)
H44_2 H 0.8625 0.2116 0.4959
C69_2 C 0.9572(3) 0.2800(2) 0.48828(15)
C71_2 C 0.9049(3) 0.3460(2) 0.48460(15)
O21_2 O 0.8310(2) 0.33894(16) 0.49296(11)
Zn12_2 Zn 0.78467(3) 0.43797(3) 0.48210(2)
O22_2 O 0.9360(2) 0.40312(16) 0.47270(12)
C66_3 C 0.0338(3) 0.6547(2) 0.00088(17)
C68_3 C 0.0803(3) 0.7147(2) 0.00534(17)
H44_3 H 0.1375 0.7116 0.0041
C69_3 C 0.0428(3) 0.7800(2) 0.01172(15)
C71_3 C 0.0951(3) 0.8460(2) 0.01540(15)
O13_3 O 0.5661(3) 0.08963(19) 0.00870(15)
C43_3 C 0.5333(4) 0.1482(3) 0.01357(18)
C44_3 C 0.5817(3) 0.2151(2) 0.00410(16)
C49_3 C 0.5445(3) 0.2805(3) 0.00306(16)
H32_3 H 0.4882 0.2836 0.0090
N11_2 N 0.7098(2) 0.54060(18) 0.05480(12)
C65_3 C 0.9500(3) 0.6585(2) 0.00182(15)
C67_3 C 0.9126(3) 0.7237(2) 0.00777(15)
C70_3 C 0.9597(3) 0.7841(2) 0.01320(16)
H49_3 H 0.8554 0.7269 0.0081
H54_3 H 0.9343 0.8287 0.0180
N19_2 N 0.9020(2) 0.41481(19) 0.05676(12)
O14_3 O 0.79289(19) 0.39837(18) 0.98196(12)
O15_3 O 0.6803(2) 0.46007(15) 0.97034(10)
C45_3 C 0.6636(3) 0.2113(2) 0.99555(17)
H29_3 H 0.6898 0.1665 0.9956
C46_3 C 0.7075(3) 0.2717(2) 0.98693(16)
H30_3 H 0.7640 0.2685 0.9817
C47_3 C 0.6694(3) 0.3375(2) 0.98587(15)
C48_3 C 0.5872(3) 0.3413(2) 0.99353(15)
H31_3 H 0.5602 0.3857 0.9922
C50_3 C 0.7183(3) 0.4038(2) 0.97863(14)
C51_3 C 0.7414(3) 0.6531(2) 0.84577(15)
C52_3 C 0.6929(2) 0.6119(2) 0.81720(14)
C53_3 C 0.6537(3) 0.5547(2) 0.83657(14)
C54_3 C 0.6849(3) 0.6287(2) 0.76870(15)
H33_3 H 0.7693 0.6931 0.8339
C55_3 C 0.7488(3) 0.6359(2) 0.89078(16)
C56_3 C 0.5767(3) 0.5414(2) 0.59017(16)
C57_3 C 0.5930(3) 0.5541(2) 0.63553(16)
H34_3 H 0.5488 0.4991 0.5824
C58_3 C 0.6338(3) 0.6152(2) 0.64811(15)
H35_3 H 0.5763 0.5210 0.6580
C59_3 C 0.6529(3) 0.6628(2) 0.61356(16)
C60_3 C 0.6343(3) 0.6463(2) 0.56907(16)
H36_3 H 0.6477 0.6795 0.5460
H37_3 H 0.6786 0.7064 0.6206
C61_3 C 0.6439(3) 0.5908(2) 0.73469(14)
C62_3 C 0.6573(3) 0.6286(2) 0.69535(15)
H38_3 H 0.6135 0.5484 0.7381
O16_3 O 0.82880(18) 0.59870(17) 0.98603(11)
N12_3 N 0.7107(2) 0.58004(18) 0.90991(11)
N13_2 N 0.5980(2) 0.58519(19) 0.55676(12)
H39_3 H 0.7823 0.6646 0.9094
N14_3 N 0.7216(2) 0.68593(19) 0.75182(12)
N15_3 N 0.7039(2) 0.68477(19) 0.70743(12)
C63_3 C 0.6640(3) 0.5411(2) 0.88235(15)
H40_3 H 0.7208 0.7171 0.6881
H41_3 H 0.6363 0.5017 0.8950
H42_3 H 0.6200 0.5251 0.8186
C64_3 C 0.9017(3) 0.5922(2) 0.99470(14)
C72_3 C 0.9151(3) 0.5307(2) 0.84541(15)
C73_3 C 0.8680(2) 0.4860(2) 0.81853(14)
C74_3 C 0.8543(2) 0.5012(2) 0.77013(15)
C75_3 C 0.7565(3) 0.4192(2) 0.58698(16)
H45_3 H 0.7246 0.3799 0.5776
C76_3 C 0.8341(3) 0.5145(2) 0.56982(15)
H46_3 H 0.8598 0.5439 0.5480
C77_3 C 0.8367(3) 0.4258(2) 0.83941(15)
H47_3 H 0.8052 0.3932 0.8224
H48_3 H 0.9386 0.5721 0.8328
C78_3 C 0.8159(3) 0.4640(2) 0.73624(16)
C79_3 C 0.8292(3) 0.5038(2) 0.69625(15)
C80_3 C 0.7651(3) 0.4312(3) 0.63314(16)
C81_3 C 0.9271(3) 0.5141(2) 0.89061(15)
H50_3 H 0.7400 0.4004 0.6545
C82_3 C 0.8439(3) 0.5308(2) 0.61476(14)
C83_3 C 0.8512(3) 0.4137(2) 0.88468(15)
H51_3 H 0.8287 0.3724 0.8982
H52_3 H 0.7868 0.4208 0.7391
C84_3 C 0.8106(3) 0.4880(2) 0.64804(15)
H53_3 H 0.9595 0.5451 0.9084
H55_3 H 0.8737 0.5718 0.6232
N16_3 N 0.8955(2) 0.45685(18) 0.91081(12)
O19_3 O 0.9401(2) 0.53500(16) 0.99707(11)
N17_3 N 0.8871(2) 0.5594(2) 0.75007(12)
N18_3 N 0.8726(2) 0.5621(2) 0.70528(12)
H56_3 H 0.9149 0.5917 0.7649
N20_2 N 0.7902(2) 0.45940(18) 0.55480(12)
H32_4 H 0.0118 0.7164 0.5090
O13_4 O 0.9339(3) 0.91037(19) 0.50870(15)
O14_4 O 0.70711(19) 0.60163(18) 0.48196(12)
O15_4 O 0.8197(2) 0.53993(15) 0.47034(10)
C43_4 C 0.9667(4) 0.8518(3) 0.51357(18)
C44_4 C 0.9183(3) 0.7849(2) 0.50410(16)
C45_4 C 0.8364(3) 0.7887(2) 0.49555(17)
H29_4 H 0.8102 0.8335 0.4956
C46_4 C 0.7925(3) 0.7283(2) 0.48693(16)
H30_4 H 0.7360 0.7315 0.4817
C47_4 C 0.8306(3) 0.6625(2) 0.48587(15)
C48_4 C 0.9128(3) 0.6587(2) 0.49353(15)
H31_4 H 0.9398 0.6143 0.4922
C49_4 C 0.9555(3) 0.7195(3) 0.50306(16)
C50_4 C 0.7817(3) 0.5962(2) 0.47863(14)
C51_4 C 0.7586(3) 0.3469(2) 0.34577(15)
C52_4 C 0.8071(2) 0.3881(2) 0.31720(14)
C53_4 C 0.8463(3) 0.4453(2) 0.33657(14)
C54_4 C 0.8151(3) 0.3713(2) 0.26870(15)
H33_4 H 0.7307 0.3069 0.3339
C55_4 C 0.7512(3) 0.3641(2) 0.39078(16)
C56_4 C 0.9233(3) 0.4586(2) 0.09017(16)
C57_4 C 0.9070(3) 0.4459(2) 0.13553(16)
H34_4 H 0.9512 0.5009 0.0824
C58_4 C 0.8662(3) 0.3848(2) 0.14811(15)
H35_4 H 0.9237 0.4790 0.1580
C59_4 C 0.8471(3) 0.3372(2) 0.11356(16)
C60_4 C 0.8657(3) 0.3537(2) 0.06907(16)
H36_4 H 0.8523 0.3205 0.0460
H37_4 H 0.8214 0.2936 0.1206
C61_4 C 0.8561(3) 0.4092(2) 0.23469(14)
C62_4 C 0.8427(3) 0.3714(2) 0.19535(15)
H38_4 H 0.8865 0.4516 0.2381
O16_4 O 0.67120(18) 0.40130(17) 0.48603(11)
N12_4 N 0.7893(2) 0.41996(18) 0.40991(11)
H39_4 H 0.7177 0.3354 0.4094
N14_4 N 0.7784(2) 0.31407(19) 0.25182(12)
N15_4 N 0.7961(2) 0.31523(19) 0.20743(12)
C63_4 C 0.8360(3) 0.4589(2) 0.38235(15)
H40_4 H 0.7792 0.2829 0.1881
H41_4 H 0.8637 0.4983 0.3950
H42_4 H 0.8800 0.4749 0.3186
C64_4 C 0.5983(3) 0.4078(2) 0.49470(14)
C65_4 C 0.5500(3) 0.3415(2) 0.50182(15)
C66_4 C 0.4662(3) 0.3453(2) 0.50088(17)
C67_4 C 0.5874(3) 0.2763(2) 0.50777(15)
H43_3 H 0.4407 0.3900 0.4971
C68_4 C 0.4197(3) 0.2853(2) 0.50534(17)
H44_4 H 0.3625 0.2884 0.5041
C69_4 C 0.4572(3) 0.2200(2) 0.51172(15)
C70_4 C 0.5403(3) 0.2159(2) 0.51320(16)
C71_4 C 0.4049(3) 0.1540(2) 0.51540(15)
C72_4 C 0.5849(3) 0.4693(2) 0.34541(15)
C73_4 C 0.6320(2) 0.5140(2) 0.31853(14)
C74_4 C 0.6457(2) 0.4988(2) 0.27013(15)
C75_4 C 0.7435(3) 0.5808(2) 0.08698(16)
H45_4 H 0.7754 0.6201 0.0776
C76_4 C 0.6659(3) 0.4855(2) 0.06982(15)
H46_4 H 0.6402 0.4561 0.0480
C77_4 C 0.6633(3) 0.5742(2) 0.33941(15)
H47_4 H 0.6948 0.6068 0.3224
H48_4 H 0.5614 0.4279 0.3328
C78_4 C 0.6841(3) 0.5360(2) 0.23624(16)
C79_4 C 0.6708(3) 0.4962(2) 0.19625(15)
C80_4 C 0.7349(3) 0.5688(3) 0.13314(16)
C81_4 C 0.5729(3) 0.4859(2) 0.39061(15)
H49_4 H 0.6446 0.2731 0.5081
H50_4 H 0.7600 0.5996 0.1545
C82_4 C 0.6561(3) 0.4692(2) 0.11476(14)
C83_4 C 0.6488(3) 0.5863(2) 0.38468(15)
H51_4 H 0.6713 0.6276 0.3982
H52_4 H 0.7132 0.5792 0.2391
C84_4 C 0.6894(3) 0.5120(2) 0.14804(15)
H53_4 H 0.5405 0.4549 0.4084
H54_4 H 0.5657 0.1713 0.5180
H55_4 H 0.6263 0.4282 0.1232
N16_4 N 0.6045(2) 0.54315(18) 0.41081(12)
O19_4 O 0.5599(2) 0.46500(16) 0.49707(11)
N17_4 N 0.6129(2) 0.4406(2) 0.25007(12)
N18_4 N 0.6274(2) 0.4379(2) 0.20528(12)
H56_4 H 0.5851 0.4083 0.2649
H43_4 H 0.0593 0.6100 0.9971
loop_
_geom_bond_atom_site_label_1
_geom_bond_atom_site_label_2
_geom_bond_site_symmetry_1
_geom_bond_site_symmetry_2
H12 C17 1_555 1_555
O11 C27 1_555 1_555
Zn4 O11 1_555 1_555
C1 O5 1_555 1_555
O5 Zn2 1_555 1_555
C5 C1 1_555 1_555
C9 C5 1_555 1_555
C10 C5 1_555 1_555
N3 Zn2 1_555 1_555
O7 Zn2 1_555 1_555
N4 Zn2 1_555 1_555
C14 C9 1_555 1_555
H5 C9 1_555 1_555
H6 C10 1_555 1_555
C15 C10 1_555 1_555
C20 N3 1_555 1_555
C21 C14 1_555 1_555
H9 C14 1_555 1_555
H10 C15 1_555 1_555
C25 C20 1_555 1_555
H14 C20 1_555 1_555
C26 C21 1_555 1_555
H17 C25 1_555 1_555
C31 C29 1_555 1_555
O9 C26 1_555 1_555
O10 C26 1_555 1_555
Zn3 O9 1_555 1_555
C15 C21 1_555 1_555
C25 C29 1_555 1_555
O10 Zn3 1_555 1_555
H19 C32 1_555 1_555
C35 C32 1_555 1_555
H22 C34 1_555 1_555
C37 C34 1_555 1_555
H23 C35 1_555 1_555
C38 C37 1_555 1_555
C39 C38 1_555 1_555
C40 C38 1_555 1_555
H25 C39 1_555 1_555
C41 C39 1_555 1_555
C42 C40 1_555 1_555
H26 C40 1_555 1_555
H27 C41 1_555 1_555
H28 C42 1_555 1_555
N10 C41 1_555 1_555
Zn6 N10 1_555 1_555
N8 C37 1_555 1_555
C42 N10 1_555 1_555
Zn1 O1 1_555 1_555
O2 Zn1 1_555 1_555
N1 Zn1 1_555 1_555
O3 Zn1 1_555 1_555
O4 Zn1 1_555 1_555
N2 Zn1 1_555 1_555
C2 O2 1_555 1_555
C3 N1 1_555 1_555
C4 N1 1_555 1_555
O6 C2 1_555 1_555
C6 C2 1_555 1_555
H1 C3 1_555 1_555
C7 C3 1_555 1_555
C8 C4 1_555 1_555
H2 C4 1_555 1_555
C11 C6 1_555 1_555
C12 C6 1_555 1_555
H3 C7 1_555 1_555
C13 C7 1_555 1_555
H4 C8 1_555 1_555
C16 C11 1_555 1_555
H7 C11 1_555 1_555
C18 C13 1_555 1_555
C22 C16 1_555 1_555
H11 C16 1_555 1_555
N5 C18 1_555 1_555
H13 C19 1_555 1_555
C24 C19 1_555 1_555
H16 C24 1_555 1_555
C8 C13 1_555 1_555
H15 C23 1_555 1_555
C28 C23 1_555 1_555
H18 N6 1_555 1_555
C30 C28 1_555 1_555
C33 C30 1_555 1_555
C36 C33 1_555 1_555
H20 C33 1_555 1_555
H24 C36 1_555 1_555
Zn5 N9 1_555 1_555
N6 C28 1_555 1_555
C36 N9 1_555 1_555
H9_2 C14_2 1_555 1_555
O9_2 C26_2 1_555 1_555
O10_2 C26_2 1_555 1_555
Zn3_2 O9_2 1_555 1_555
O10_2 Zn3_2 1_555 1_555
Zn6 O1_2 1_555 1_555
O2_2 Zn6 1_555 1_555
N1_2 Zn6 1_555 1_555
O3_2 Zn6 1_555 1_555
O4_2 Zn6 1_555 1_555
C2_2 O2_2 1_555 1_555
C3_2 N1_2 1_555 1_555
C4_2 N1_2 1_555 1_555
O6_2 C2_2 1_555 1_555
C6_2 C2_2 1_555 1_555
H1_2 C3_2 1_555 1_555
C7_2 C3_2 1_555 1_555
C8_2 C4_2 1_555 1_555
H2_2 C4_2 1_555 1_555
C11_2 C6_2 1_555 1_555
C12_2 C6_2 1_555 1_555
H3_2 C7_2 1_555 1_555
C13_2 C7_2 1_555 1_555
H4_2 C8_2 1_555 1_555
C16_2 C11_2 1_555 1_555
H7_2 C11_2 1_555 1_555
H8_2 C12_2 1_555 1_555
C17_2 C12_2 1_555 1_555
C18_2 C13_2 1_555 1_555
C22_2 C16_2 1_555 1_555
H11_2 C16_2 1_555 1_555
H12_2 C17_2 1_555 1_555
N5_2 C18_2 1_555 1_555
C23_2 C18_2 1_555 1_555
H13_2 C19_2 1_555 1_555
C24_2 C19_2 1_555 1_555
C27_2 C22_2 1_555 1_555
N6_2 N5_2 1_555 1_555
H15_2 C23_2 1_555 1_555
C28_2 C23_2 1_555 1_555
H16_2 C24_2 1_555 1_555
O8_2 C27_2 1_555 1_555
H18_2 N6_2 1_555 1_555
C30_2 C28_2 1_555 1_555
C33_2 C30_2 1_555 1_555
C36_2 C33_2 1_555 1_555
H20_2 C33_2 1_555 1_555
H21_2 N7_2 1_555 1_555
H24_2 C36_2 1_555 1_555
O11_2 C27_2 1_555 1_555
Zn4_2 O11_2 1_555 1_555
C8_2 C13_2 1_555 1_555
C17_2 C22_2 1_555 1_555
N6_2 C28_2 1_555 1_555
C36_2 N4 1_555 1_555
C1_2 O5_2 1_555 1_555
O5_2 Zn5 1_555 1_555
C5_2 C1_2 1_555 1_555
C9_2 C5_2 1_555 1_555
C10_2 C5_2 1_555 1_555
N3_2 Zn5 1_555 1_555
O7_2 Zn5 1_555 1_555
H5_2 C9_2 1_555 1_555
H6_2 C10_2 1_555 1_555
C15_2 C10_2 1_555 1_555
C20_2 N3_2 1_555 1_555
H10_2 C15_2 1_555 1_555
C25_2 C20_2 1_555 1_555
H14_2 C20_2 1_555 1_555
H17_2 C25_2 1_555 1_555
C31_2 C29_2 1_555 1_555
C34_2 C31_2 1_555 1_555
H19_2 C32_2 1_555 1_555
C35_2 C32_2 1_555 1_555
H22_2 C34_2 1_555 1_555
C37_2 C34_2 1_555 1_555
H23_2 C35_2 1_555 1_555
C38_2 C37_2 1_555 1_555
C39_2 C38_2 1_555 1_555
C40_2 C38_2 1_555 1_555
H25_2 C39_2 1_555 1_555
C41_2 C39_2 1_555 1_555
C42_2 C40_2 1_555 1_555
H26_2 C40_2 1_555 1_555
H27_2 C41_2 1_555 1_555
H28_2 C42_2 1_555 1_555
N2 C41_2 1_555 1_555
C15_2 C21_2 1_555 1_555
C25_2 C29_2 1_555 1_555
N8_2 C37_2 1_555 1_555
C42_2 N2 1_555 1_555
H15_3 C23_3 1_555 1_555
C28_3 C23_3 1_555 1_555
H18_3 N6_3 1_555 1_555
C30_3 C28_3 1_555 1_555
C32_3 C30_3 1_555 1_555
C33_3 C30_3 1_555 1_555
H19_3 C32_3 1_555 1_555
C35_3 C32_3 1_555 1_555
C36_3 C33_3 1_555 1_555
H20_3 C33_3 1_555 1_555
N8_3 N7_3 1_555 1_555
H22_3 C34_3 1_555 1_555
C37_3 C34_3 1_555 1_555
H23_3 C35_3 1_555 1_555
H24_3 C36_3 1_555 1_555
C38_3 C37_3 1_555 1_555
C39_3 C38_3 1_555 1_555
C40_3 C38_3 1_555 1_555
H25_3 C39_3 1_555 1_555
C41_3 C39_3 1_555 1_555
C42_3 C40_3 1_555 1_555
H26_3 C40_3 1_555 1_555
H27_3 C41_3 1_555 1_555
H28_3 C42_3 1_555 1_555
N9_2 C35_3 1_555 1_555
Zn4 N9_2 1_555 1_555
N10_2 C41_3 1_555 1_555
Zn3 N10_2 1_555 1_555
N6_3 C28_3 1_555 1_555
C36_3 N9_2 1_555 1_555
N8_3 C37_3 1_555 1_555
C42_3 N10_2 1_555 1_555
Zn3_2 O1_3 1_555 1_555
O1_3 C1_3 1_555 1_555
O2_3 Zn3_2 1_555 1_555
N1_3 Zn3_2 1_555 1_555
N2_2 Zn3_2 1_555 1_555
C1_3 O5_3 1_555 1_555
C2_3 O2_3 1_555 1_555
C3_3 N1_3 1_555 1_555
C4_3 N1_3 1_555 1_555
O5_3 Zn4_2 1_555 1_555
C5_3 C1_3 1_555 1_555
O6_3 C2_3 1_555 1_555
C6_3 C2_3 1_555 1_555
H1_3 C3_3 1_555 1_555
C7_3 C3_3 1_555 1_555
C8_3 C4_3 1_555 1_555
H2_3 C4_3 1_555 1_555
Zn4_2 O6_3 1_555 1_555
C9_3 C5_3 1_555 1_555
C10_3 C5_3 1_555 1_555
C11_3 C6_3 1_555 1_555
C12_3 C6_3 1_555 1_555
H3_3 C7_3 1_555 1_555
C13_3 C7_3 1_555 1_555
H4_3 C8_3 1_555 1_555
N3_3 Zn4_2 1_555 1_555
N4_2 Zn4_2 1_555 1_555
H5_3 C9_3 1_555 1_555
H6_3 C10_3 1_555 1_555
C15_3 C10_3 1_555 1_555
C16_3 C11_3 1_555 1_555
H7_3 C11_3 1_555 1_555
H8_3 C12_3 1_555 1_555
C17_3 C12_3 1_555 1_555
C18_3 C13_3 1_555 1_555
C19_3 N3_3 1_555 1_555
C20_3 N3_3 1_555 1_555
H10_3 C15_3 1_555 1_555
C22_3 C16_3 1_555 1_555
H11_3 C16_3 1_555 1_555
H12_3 C17_3 1_555 1_555
N5_3 C18_3 1_555 1_555
H13_3 C19_3 1_555 1_555
C24_3 C19_3 1_555 1_555
C25_3 C20_3 1_555 1_555
H14_3 C20_3 1_555 1_555
C27_3 C22_3 1_555 1_555
H16_3 C24_3 1_555 1_555
C29_3 C24_3 1_555 1_555
H17_3 C25_3 1_555 1_555
O8_3 C27_3 1_555 1_555
C31_3 C29_3 1_555 1_555
O7_2 C27_3 1_555 1_555
C8_3 C13_3 1_555 1_555
C15_3 C21_3 1_555 1_555
C17_3 C22_3 1_555 1_555
C25_3 C29_3 1_555 1_555
H9_3 C14_3 1_555 1_555
O3_2 C26_3 1_555 1_555
O4_2 C26_3 1_555 1_555
Zn3 O1_4 1_555 1_555
O1_4 C1_4 1_555 1_555
O2_4 Zn3 1_555 1_555
N1_4 Zn3 1_555 1_555
C1_4 O5_4 1_555 1_555
C2_4 O2_4 1_555 1_555
C3_4 N1_4 1_555 1_555
C4_4 N1_4 1_555 1_555
O5_4 Zn4 1_555 1_555
C5_4 C1_4 1_555 1_555
O6_4 C2_4 1_555 1_555
C6_4 C2_4 1_555 1_555
H1_4 C3_4 1_555 1_555
C7_4 C3_4 1_555 1_555
C8_4 C4_4 1_555 1_555
H2_4 C4_4 1_555 1_555
Zn4 O6_4 1_555 1_555
C9_4 C5_4 1_555 1_555
C10_4 C5_4 1_555 1_555
C11_4 C6_4 1_555 1_555
C12_4 C6_4 1_555 1_555
H3_4 C7_4 1_555 1_555
C13_4 C7_4 1_555 1_555
H4_4 C8_4 1_555 1_555
N3_4 Zn4 1_555 1_555
C14_4 C9_4 1_555 1_555
H5_4 C9_4 1_555 1_555
H6_4 C10_4 1_555 1_555
C15_4 C10_4 1_555 1_555
C16_4 C11_4 1_555 1_555
H7_4 C11_4 1_555 1_555
C18_4 C13_4 1_555 1_555
C19_4 N3_4 1_555 1_555
C20_4 N3_4 1_555 1_555
C21_4 C14_4 1_555 1_555
H9_4 C14_4 1_555 1_555
H10_4 C15_4 1_555 1_555
C22_4 C16_4 1_555 1_555
H11_4 C16_4 1_555 1_555
N5_4 C18_4 1_555 1_555
C23_4 C18_4 1_555 1_555
H13_4 C19_4 1_555 1_555
C24_4 C19_4 1_555 1_555
C25_4 C20_4 1_555 1_555
H14_4 C20_4 1_555 1_555
C26_4 C21_4 1_555 1_555
N6_4 N5_4 1_555 1_555
H15_4 C23_4 1_555 1_555
C28_4 C23_4 1_555 1_555
H16_4 C24_4 1_555 1_555
C29_4 C24_4 1_555 1_555
H17_4 C25_4 1_555 1_555
H18_4 N6_4 1_555 1_555
C30_4 C28_4 1_555 1_555
C31_4 C29_4 1_555 1_555
C32_4 C30_4 1_555 1_555
C33_4 C30_4 1_555 1_555
N7_4 C31_4 1_555 1_555
C34_4 C31_4 1_555 1_555
H19_4 C32_4 1_555 1_555
C35_4 C32_4 1_555 1_555
C36_4 C33_4 1_555 1_555
H20_4 C33_4 1_555 1_555
H21_4 N7_4 1_555 1_555
N8_4 N7_4 1_555 1_555
H22_4 C34_4 1_555 1_555
C37_4 C34_4 1_555 1_555
H23_4 C35_4 1_555 1_555
H24_4 C36_4 1_555 1_555
C38_4 C37_4 1_555 1_555
C39_4 C38_4 1_555 1_555
C40_4 C38_4 1_555 1_555
H25_4 C39_4 1_555 1_555
C41_4 C39_4 1_555 1_555
C42_4 C40_4 1_555 1_555
H26_4 C40_4 1_555 1_555
H27_4 C41_4 1_555 1_555
H28_4 C42_4 1_555 1_555
O3 C26_4 1_555 1_555
O4 C26_4 1_555 1_555
N4_2 C35_4 1_555 1_555
N2_2 C41_4 1_555 1_555
C8_4 C13_4 1_555 1_555
C15_4 C21_4 1_555 1_555
C25_4 C29_4 1_555 1_555
N6_4 C28_4 1_555 1_555
C36_4 N4_2 1_555 1_555
N8_4 C37_4 1_555 1_555
C42_4 N2_2 1_555 1_555
H12_4 C17_4 1_555 1_555
O7 C27_4 1_555 1_555
O14 C50 1_555 1_555
O15 C50 1_555 1_555
C45 H29 1_555 1_555
C46 C45 1_555 1_555
H30 C46 1_555 1_555
C47 C46 1_555 1_555
C48 C47 1_555 1_555
H31 C48 1_555 1_555
C50 C47 1_555 1_555
C75 H45 1_555 1_555
C77 C73 1_555 1_555
H47 C77 1_555 1_555
C80 C75 1_555 1_555
H50 C80 1_555 1_555
C83 C77 1_555 1_555
H51 C83 1_555 1_555
H52 C78 1_555 1_555
C84 C80 1_555 1_555
Zn9 O14 1_555 1_555
Zn11 N20 1_555 1_555
O20 Zn9 1_555 1_555
N20 C75 1_555 1_555
C83 N16 1_555 1_555
N16 Zn9 1_555 1_555
O13 C43 1_555 1_555
C43 C44 1_555 1_555
C49 C44 1_555 1_555
C51 C52 1_555 1_555
C52 C53 1_555 1_555
C53 C63 1_555 1_555
C54 C52 1_555 1_555
H33 C51 1_555 1_555
C55 C51 1_555 1_555
C56 C57 1_555 1_555
C57 C58 1_555 1_555
C58 C59 1_555 1_555
H35 C57 1_555 1_555
C59 C60 1_555 1_555
C60 H36 1_555 1_555
H37 C59 1_555 1_555
C61 C54 1_555 1_555
C62 C58 1_555 1_555
H38 C61 1_555 1_555
O16 Zn8 1_555 1_555
O17 Zn8 1_555 1_555
O18 Zn8 1_555 1_555
N12 Zn8 1_555 1_555
N13 C56 1_555 1_555
H39 C55 1_555 1_555
N14 C54 1_555 1_555
N15 C62 1_555 1_555
C63 N12 1_555 1_555
H40 N15 1_555 1_555
H41 C63 1_555 1_555
H42 C53 1_555 1_555
C64 O16 1_555 1_555
C76 H46 1_555 1_555
H48 C72 1_555 1_555
C81 C72 1_555 1_555
C82 C76 1_555 1_555
H53 C81 1_555 1_555
H55 C82 1_555 1_555
O19 C64 1_555 1_555
N17 C74 1_555 1_555
N18 C79 1_555 1_555
H56 N17 1_555 1_555
Zn10 N13 1_555 1_555
C55 N12 1_555 1_555
C60 N13 1_555 1_555
C61 C62 1_555 1_555
N14 N15 1_555 1_555
N17 N18 1_555 1_555
C66 C65 1_555 1_555
C67 C65 1_555 1_555
C68 C66 1_555 1_555
H44 C68 1_555 1_555
C69 C68 1_555 1_555
C70 C67 1_555 1_555
C71 C69 1_555 1_555
H49 C67 1_555 1_555
H54 C70 1_555 1_555
O21 C71 1_555 1_555
Zn12 O21 1_555 1_555
O22 C71 1_555 1_555
C69 C70 1_555 1_555
Zn12 O22 1_555 1_555
Zn7 O12 1_555 1_555
C51_2 C52_2 1_555 1_555
C52_2 C53_2 1_555 1_555
C53_2 C63_2 1_555 1_555
C54_2 C52_2 1_555 1_555
H33_2 C51_2 1_555 1_555
C55_2 C51_2 1_555 1_555
C56_2 C57_2 1_555 1_555
C57_2 C58_2 1_555 1_555
C58_2 C59_2 1_555 1_555
H35_2 C57_2 1_555 1_555
C59_2 C60_2 1_555 1_555
C60_2 H36_2 1_555 1_555
H37_2 C59_2 1_555 1_555
C61_2 C54_2 1_555 1_555
C62_2 C58_2 1_555 1_555
H38_2 C61_2 1_555 1_555
O16_2 Zn11 1_555 1_555
O17_2 Zn11 1_555 1_555
O18_2 Zn11 1_555 1_555
N12_2 Zn11 1_555 1_555
N19 C56_2 1_555 1_555
H39_2 C55_2 1_555 1_555
N14_2 C54_2 1_555 1_555
N15_2 C62_2 1_555 1_555
C63_2 N12_2 1_555 1_555
H40_2 N15_2 1_555 1_555
H41_2 C63_2 1_555 1_555
H42_2 C53_2 1_555 1_555
C64_2 O16_2 1_555 1_555
C65_2 C64_2 1_555 1_555
C67_2 C65_2 1_555 1_555
C70_2 C67_2 1_555 1_555
C76_2 H46_2 1_555 1_555
H48_2 C72_2 1_555 1_555
C81_2 C72_2 1_555 1_555
H49_2 C67_2 1_555 1_555
C82_2 C76_2 1_555 1_555
H53_2 C81_2 1_555 1_555
H54_2 C70_2 1_555 1_555
H55_2 C82_2 1_555 1_555
O19_2 C64_2 1_555 1_555
N17_2 C74_2 1_555 1_555
N18_2 C79_2 1_555 1_555
H56_2 N17_2 1_555 1_555
C55_2 N12_2 1_555 1_555
C60_2 N19 1_555 1_555
C61_2 C62_2 1_555 1_555
N14_2 N15_2 1_555 1_555
N17_2 N18_2 1_555 1_555
Zn7_2 O12_2 1_555 1_555
O12_2 C43_2 1_555 1_555
O13_2 C43_2 1_555 1_555
O14_2 C50_2 1_555 1_555
O15_2 C50_2 1_555 1_555
C43_2 C44_2 1_555 1_555
C44_2 C45_2 1_555 1_555
C45_2 H29_2 1_555 1_555
C46_2 C45_2 1_555 1_555
H30_2 C46_2 1_555 1_555
C47_2 C46_2 1_555 1_555
C48_2 C47_2 1_555 1_555
H31_2 C48_2 1_555 1_555
C49_2 C44_2 1_555 1_555
H32_2 C49_2 1_555 1_555
C50_2 C47_2 1_555 1_555
C75_2 H45_2 1_555 1_555
C77_2 C73_2 1_555 1_555
H47_2 C77_2 1_555 1_555
C80_2 C75_2 1_555 1_555
H50_2 C80_2 1_555 1_555
C83_2 C77_2 1_555 1_555
H51_2 C83_2 1_555 1_555
H52_2 C78_2 1_555 1_555
C84_2 C80_2 1_555 1_555
Zn10 O14_2 1_555 1_555
O20_2 Zn10 1_555 1_555
N11 C75_2 1_555 1_555
C48_2 C49_2 1_555 1_555
C83_2 N16_2 1_555 1_555
N16_2 Zn10 1_555 1_555
H43_2 C66_2 1_555 1_555
C68_2 C66_2 1_555 1_555
H44_2 C68_2 1_555 1_555
C69_2 C68_2 1_555 1_555
C71_2 C69_2 1_555 1_555
O21_2 C71_2 1_555 1_555
Zn12_2 O21_2 1_555 1_555
O22_2 C71_2 1_555 1_555
Zn12_2 O22_2 1_555 1_555
C68_3 C66_3 1_555 1_555
H44_3 C68_3 1_555 1_555
C69_3 C68_3 1_555 1_555
C71_3 C69_3 1_555 1_555
O18 C71_3 1_555 1_555
O17 C71_3 1_555 1_555
O20 C43_3 1_555 1_555
O13_3 C43_3 1_555 1_555
C43_3 C44_3 1_555 1_555
C49_3 C44_3 1_555 1_555
H32_3 C49_3 1_555 1_555
C67_3 C65_3 1_555 1_555
C70_3 C67_3 1_555 1_555
H49_3 C67_3 1_555 1_555
H54_3 C70_3 1_555 1_555
O14_3 C50_3 1_555 1_555
O15_3 C50_3 1_555 1_555
C45_3 H29_3 1_555 1_555
C46_3 C45_3 1_555 1_555
H30_3 C46_3 1_555 1_555
C47_3 C46_3 1_555 1_555
C48_3 C47_3 1_555 1_555
H31_3 C48_3 1_555 1_555
C50_3 C47_3 1_555 1_555
Zn12 O15_3 1_555 1_555
C51_3 C52_3 1_555 1_555
C52_3 C53_3 1_555 1_555
C53_3 C63_3 1_555 1_555
C54_3 C52_3 1_555 1_555
H33_3 C51_3 1_555 1_555
C55_3 C51_3 1_555 1_555
C56_3 C57_3 1_555 1_555
C57_3 C58_3 1_555 1_555
H34_3 C56_3 1_555 1_555
C58_3 C59_3 1_555 1_555
H35_3 C57_3 1_555 1_555
C59_3 C60_3 1_555 1_555
C60_3 H36_3 1_555 1_555
H37_3 C59_3 1_555 1_555
C61_3 C54_3 1_555 1_555
C62_3 C58_3 1_555 1_555
H38_3 C61_3 1_555 1_555
O16_3 Zn12 1_555 1_555
N12_3 Zn12 1_555 1_555
N13_2 C56_3 1_555 1_555
H39_3 C55_3 1_555 1_555
N14_3 C54_3 1_555 1_555
N15_3 C62_3 1_555 1_555
C63_3 N12_3 1_555 1_555
H40_3 N15_3 1_555 1_555
H41_3 C63_3 1_555 1_555
H42_3 C53_3 1_555 1_555
C64_3 O16_3 1_555 1_555
C72_3 C73_3 1_555 1_555
C73_3 C74_3 1_555 1_555
C74_3 C78_3 1_555 1_555
C75_3 H45_3 1_555 1_555
C76_3 H46_3 1_555 1_555
C77_3 C73_3 1_555 1_555
H47_3 C77_3 1_555 1_555
H48_3 C72_3 1_555 1_555
C78_3 C79_3 1_555 1_555
C79_3 C84_3 1_555 1_555
C80_3 C75_3 1_555 1_555
C81_3 C72_3 1_555 1_555
H50_3 C80_3 1_555 1_555
C82_3 C76_3 1_555 1_555
C83_3 C77_3 1_555 1_555
H51_3 C83_3 1_555 1_555
H52_3 C78_3 1_555 1_555
C84_3 C80_3 1_555 1_555
H53_3 C81_3 1_555 1_555
H55_3 C82_3 1_555 1_555
N16_3 C81_3 1_555 1_555
O19_3 C64_3 1_555 1_555
N17_3 C74_3 1_555 1_555
N18_3 C79_3 1_555 1_555
H56_3 N17_3 1_555 1_555
Zn7 O14_3 1_555 1_555
Zn7_2 N13_2 1_555 1_555
Zn12_2 N20_2 1_555 1_555
N20_2 C75_3 1_555 1_555
C55_3 N12_3 1_555 1_555
C60_3 N13_2 1_555 1_555
C61_3 C62_3 1_555 1_555
N14_3 N15_3 1_555 1_555
C76_3 N20_2 1_555 1_555
C82_3 C84_3 1_555 1_555
C83_3 N16_3 1_555 1_555
N16_3 Zn7 1_555 1_555
O19_3 Zn7 1_555 1_555
N17_3 N18_3 1_555 1_555
O13_4 C43_4 1_555 1_555
O14_4 C50_4 1_555 1_555
O15_4 C50_4 1_555 1_555
C43_4 C44_4 1_555 1_555
C44_4 C45_4 1_555 1_555
C45_4 H29_4 1_555 1_555
C46_4 C45_4 1_555 1_555
H30_4 C46_4 1_555 1_555
C47_4 C46_4 1_555 1_555
C48_4 C47_4 1_555 1_555
H31_4 C48_4 1_555 1_555
C49_4 C44_4 1_555 1_555
C50_4 C47_4 1_555 1_555
Zn12_2 O15_4 1_555 1_555
C51_4 C52_4 1_555 1_555
C52_4 C53_4 1_555 1_555
C53_4 C63_4 1_555 1_555
C54_4 C52_4 1_555 1_555
H33_4 C51_4 1_555 1_555
C55_4 C51_4 1_555 1_555
C56_4 C57_4 1_555 1_555
C57_4 C58_4 1_555 1_555
H34_4 C56_4 1_555 1_555
C58_4 C59_4 1_555 1_555
H35_4 C57_4 1_555 1_555
C59_4 C60_4 1_555 1_555
C60_4 H36_4 1_555 1_555
H37_4 C59_4 1_555 1_555
C61_4 C54_4 1_555 1_555
C62_4 C58_4 1_555 1_555
H38_4 C61_4 1_555 1_555
O16_4 Zn12_2 1_555 1_555
N12_4 Zn12_2 1_555 1_555
N19_2 C56_4 1_555 1_555
H39_4 C55_4 1_555 1_555
N14_4 C54_4 1_555 1_555
N15_4 C62_4 1_555 1_555
C63_4 N12_4 1_555 1_555
H40_4 N15_4 1_555 1_555
H41_4 C63_4 1_555 1_555
H42_4 C53_4 1_555 1_555
C64_4 O16_4 1_555 1_555
C65_4 C64_4 1_555 1_555
C66_4 C65_4 1_555 1_555
C67_4 C65_4 1_555 1_555
H43_3 C66_4 1_555 1_555
C68_4 C66_4 1_555 1_555
H44_4 C68_4 1_555 1_555
C69_4 C68_4 1_555 1_555
C70_4 C67_4 1_555 1_555
C71_4 C69_4 1_555 1_555
C72_4 C73_4 1_555 1_555
C73_4 C74_4 1_555 1_555
C74_4 C78_4 1_555 1_555
C75_4 H45_4 1_555 1_555
C76_4 H46_4 1_555 1_555
C77_4 C73_4 1_555 1_555
H47_4 C77_4 1_555 1_555
H48_4 C72_4 1_555 1_555
C78_4 C79_4 1_555 1_555
C79_4 C84_4 1_555 1_555
C80_4 C75_4 1_555 1_555
C81_4 C72_4 1_555 1_555
H49_4 C67_4 1_555 1_555
H50_4 C80_4 1_555 1_555
C82_4 C76_4 1_555 1_555
C83_4 C77_4 1_555 1_555
H51_4 C83_4 1_555 1_555
H52_4 C78_4 1_555 1_555
C84_4 C80_4 1_555 1_555
H53_4 C81_4 1_555 1_555
H54_4 C70_4 1_555 1_555
H55_4 C82_4 1_555 1_555
N16_4 C81_4 1_555 1_555
O19_4 C64_4 1_555 1_555
N17_4 C74_4 1_555 1_555
N18_4 C79_4 1_555 1_555
H56_4 N17_4 1_555 1_555
Zn7_2 O14_4 1_555 1_555
N11_2 C75_4 1_555 1_555
O18_2 C71_4 1_555 1_555
O17_2 C71_4 1_555 1_555
C48_4 C49_4 1_555 1_555
C55_4 N12_4 1_555 1_555
C60_4 N19_2 1_555 1_555
C61_4 C62_4 1_555 1_555
N14_4 N15_4 1_555 1_555
C69_4 C70_4 1_555 1_555
C76_4 N11_2 1_555 1_555
C82_4 C84_4 1_555 1_555
C83_4 N16_4 1_555 1_555
N16_4 Zn7_2 1_555 1_555
O19_4 Zn7_2 1_555 1_555
N17_4 N18_4 1_555 1_555

#END
