
###############################################################################
#
# This file contains modified crystal structure data generated from the
# MOF subset of the Cambridge Structural Database (CSD) v543 
# hosted by the Cambridge Crystallographic Data Centre (CCDC).
#
# This work is licensed under the Creative Commons
# Attribution-NonCommercial-ShareAlike 4.0 International License.
# To view a copy of this license, visit
# http://creativecommons.org/licenses/by-nc-sa/4.0/
# or send a letter to
# Creative Commons, PO Box 1866, Mountain View, CA 94042, USA.
#
# CIF created using the CSD Python API on 29 September 2022
# The structure has been converted into the P1 space group
# The structure has a 3D framework
# The original CSD entry YEHQEK is in the triclinic crystal system
# The framework has been calculated to contain at least 10.0% void space
# The void calculation uses a probe of radius 1.32A, grid spacing 0.4
#
###############################################################################

data_YEHQEK
_chemical_formula_moiety         '(C200 H128 N32 O32 Zn8)n'
_symmetry_cell_setting           triclinic
_symmetry_space_group_name_H-M   'P 1'
_symmetry_Int_Tables_number      1
_space_group_name_Hall           'P 1'
loop_
_symmetry_equiv_pos_site_id
_symmetry_equiv_pos_as_xyz
1 x,y,z
_cell_length_a                   18.532(2)
_cell_length_b                   20.3541(15)
_cell_length_c                   20.561(2)
_cell_angle_alpha                116.099(8)
_cell_angle_beta                 112.218(10)
_cell_angle_gamma                97.506(7)
_cell_volume                     6022.3
loop_
_atom_site_label
_atom_site_type_symbol
_atom_site_fract_x
_atom_site_fract_y
_atom_site_fract_z
_atom_site_U_iso_or_equiv
_atom_site_thermal_displace_type
C6 C 0.0084(5) 0.8170(5) 0.3525(5) 0.0480 Uiso
H6 H 0.0659 0.8258 0.3696 0.0580 Uiso
Zn5 Zn 0.03518(14) 0.75875(10) 0.46849(10) 0.0443 Uani
C2 C 0.8135(7) 0.8615(7) 0.0012(7) 0.0850 Uiso
H2 H 0.8669 0.8611 0.0308 0.1020 Uiso
C3 C 0.7499(9) 0.8422(6) 0.0171(6) 0.0480 Uiso
N2 N 0.7431(11) 0.8045(8) 0.1671(8) 0.0630 Uiso
N3 N 0.7051(11) 0.8095(8) 0.0976(8) 0.0610 Uiso
H5 H 0.6519 0.8001 0.0678 0.0730 Uiso
N4 N 0.9723(6) 0.7946(5) 0.3913(4) 0.0450 Uiso
C7 C 0.9603(6) 0.8264(5) 0.2887(5) 0.0340 Uiso
H7 H 0.9850 0.8416 0.2622 0.0410 Uiso
C8 C 0.8762(6) 0.8135(5) 0.2637(5) 0.0460 Uiso
C9 C 0.8401(5) 0.7912(5) 0.3025(5) 0.0500 Uiso
H8 H 0.7826 0.7823 0.2854 0.0600 Uiso
C10 C 0.8881(6) 0.7817(5) 0.3663(5) 0.0360 Uiso
H9 H 0.8635 0.7665 0.3928 0.0430 Uiso
C33 C 0.7676(11) 0.8316(8) 0.0864(8) 0.0330 Uiso
C34 C 0.8437(11) 0.8354(7) 0.1427(7) 0.0350 Uiso
H25 H 0.8971 0.8467 0.1465 0.0420 Uiso
C35 C 0.8193(12) 0.8178(9) 0.1911(9) 0.0470 Uiso
Zn1 Zn 0.70457(13) 0.92924(10) 0.82399(9) 0.0422 Uani
O1 O 0.6856(7) 0.7981(6) 0.6913(6) 0.0690 Uiso
O2 O 0.7905(7) 0.9105(5) 0.7921(6) 0.0590 Uiso
O3 O 0.9489(10) 0.7319(7) 0.5070(9) 0.1200 Uiso
O4 O 0.6080(7) 0.9224(8) 0.7318(7) 0.0890 Uiso
O5 O 0.5627(12) 0.9266(12) 0.8187(7) 0.1560 Uiso
O6 O 0.1689(9) 0.8073(7) 0.4482(6) 0.0720 Uiso
O7 O 0.1598(10) 0.8048(8) 0.5517(7) 0.0910 Uiso
N1 N 0.7205(8) 0.8820(6) 0.8987(5) 0.0570 Uiso
C1 C 0.7987(7) 0.8814(7) 0.9419(7) 0.0840 Uiso
H1 H 0.8421 0.8946 0.9310 0.1010 Uiso
C4 C 0.6717(8) 0.8428(7) 0.9739(7) 0.0710 Uiso
H3 H 0.6283 0.8296 0.9848 0.0860 Uiso
C5 C 0.6570(7) 0.8626(6) 0.9146(6) 0.0710 Uiso
H4 H 0.6035 0.8630 0.8850 0.0850 Uiso
N5 N 0.0131(7) 0.6443(4) 0.3821(5) 0.0410 Uiso
C11 C 0.0558(7) 0.6314(5) 0.3374(6) 0.0740 Uiso
H10 H 0.0980 0.6741 0.3503 0.0890 Uiso
C12 C 0.0366(7) 0.5560(6) 0.2739(6) 0.0610 Uiso
H11 H 0.0658 0.5472 0.2433 0.0730 Uiso
N7 N 0.0036(10) 0.4016(8) 0.1482(7) 0.0530 Uiso
H14 H 0.0492 0.4368 0.1631 0.0640 Uiso
C21 C 0.7606(8) 0.8434(7) 0.7252(7) 0.0560 Uiso
C22 C 0.8112(9) 0.8211(5) 0.6822(6) 0.0430 Uiso
C23 C 0.8731(8) 0.8851(7) 0.7043(8) 0.0850 Uiso
H19 H 0.8854 0.9359 0.7486 0.1020 Uiso
C24 C 0.9169(9) 0.8743(7) 0.6612(8) 0.1130 Uiso
H20 H 0.9540 0.9185 0.6706 0.1360 Uiso
C25 C 0.9068(8) 0.7994(6) 0.6041(8) 0.1250 Uiso
C26 C 0.7275(7) 0.6843(6) 0.5916(7) 0.1000 Uiso
H21 H 0.6961 0.6914 0.6199 0.1200 Uiso
C27 C 0.7898(7) 0.7485(5) 0.6136(6) 0.0790 Uiso
C28 C 0.8358(7) 0.7382(5) 0.5722(6) 0.0560 Uiso
C29 C 0.8194(8) 0.6637(6) 0.5088(6) 0.1000 Uiso
H22 H 0.8509 0.6567 0.4805 0.1200 Uiso
C30 C 0.7572(8) 0.5996(5) 0.4868(7) 0.1000 Uiso
H23 H 0.7460 0.5487 0.4434 0.1200 Uiso
C31 C 0.7112(8) 0.6099(5) 0.5282(8) 0.1000 Uiso
H24 H 0.6687 0.5660 0.5131 0.1200 Uiso
C32 C 0.9569(10) 0.7996(7) 0.5589(9) 0.1500 Uiso
C36 C 0.5486(9) 0.9119(10) 0.7471(7) 0.0640 Uiso
C37 C 0.4620(6) 0.8966(7) 0.6855(6) 0.0590 Uiso
C38 C 0.4042(8) 0.8540(7) 0.6932(6) 0.0720 Uiso
H26 H 0.4228 0.8403 0.7337 0.0860 Uiso
C39 C 0.3193(7) 0.8313(7) 0.6415(7) 0.0980 Uiso
H27 H 0.2798 0.8021 0.6468 0.1180 Uiso
C40 C 0.2922(6) 0.8512(6) 0.5822(6) 0.0320 Uiso
C41 C 0.3500(8) 0.8939(6) 0.5745(6) 0.0580 Uiso
C42 C 0.4349(7) 0.9166(7) 0.6261(7) 0.0720 Uiso
C43 C 0.4902(18) 0.9671(12) 0.6254(13) 0.0880 Uiso
H28 H 0.5462 0.9907 0.6695 0.1060 Uiso
C44 C 0.4727(19) 0.9863(13) 0.5681(14) 0.1010 Uiso
C45 C 0.3916(19) 0.9674(13) 0.5157(14) 0.0990 Uiso
H30 H 0.3767 0.9851 0.4785 0.1190 Uiso
C46 C 0.3295(15) 0.9213(10) 0.5172(11) 0.0680 Uiso
H31 H 0.2725 0.9076 0.4798 0.0820 Uiso
C47 C 0.2034(8) 0.8251(10) 0.5237(7) 0.0750 Uiso
O8 O 0.9999(11) 0.8606(7) 0.5675(8) 0.1200 Uiso
C13 C 0.9748(8) 0.4935(4) 0.2550(5) 0.0440 Uiso
C14 C 0.9321(7) 0.5064(5) 0.2997(7) 0.0910 Uiso
H12 H 0.8898 0.4636 0.2868 0.1090 Uiso
C15 C 0.9512(7) 0.5818(6) 0.3633(6) 0.0660 Uiso
H13 H 0.9220 0.5906 0.3938 0.0790 Uiso
N6 N 0.9689(10) 0.3238(7) 0.0858(7) 0.0510 Uiso
C18 C 0.8529(7) 0.2060(4) 0.0263(5) 0.0450 Uiso
C19 C 0.7843(8) 0.1684(6) 0.0260(6) 0.0560 Uiso
H17 H 0.7680 0.1970 0.0653 0.0670 Uiso
C48 C 0.9519(13) 0.4129(9) 0.1826(9) 0.0510 Uiso
C49 C 0.9056(12) 0.2904(9) 0.0873(9) 0.0470 Uiso
C50 C 0.8887(12) 0.3420(9) 0.1520(9) 0.0480 Uiso
H32 H 0.8490 0.3319 0.1683 0.0580 Uiso
H29 H 0.5160 0.0124 0.5643 0.1210 Uiso
N10 N 0.7638(7) 0.0468(4) 0.9106(5) 0.0520 Uiso
C16 C 0.8323(7) 0.0845(6) 0.9110(6) 0.0640 Uiso
H15 H 0.8487 0.0558 0.8717 0.0770 Uiso
C17 C 0.8768(7) 0.1640(6) 0.9689(7) 0.0700 Uiso
H16 H 0.9237 0.1897 0.9691 0.0840 Uiso
C20 C 0.7398(7) 0.0888(6) 0.9681(7) 0.0730 Uiso
H18 H 0.6930 0.0631 0.9679 0.0880 Uiso
Zn3 Zn 0.29543(13) 0.07076(10) 0.17601(9) 0.0422 Uani
C13_2 C 0.0252(8) 0.5065(4) 0.7450(5) 0.0440 Uiso
C14_2 C 0.0679(7) 0.4936(5) 0.7003(7) 0.0910 Uiso
H12_2 H 0.1102 0.5364 0.7132 0.1090 Uiso
C15_2 C 0.0488(7) 0.4182(6) 0.6367(6) 0.0660 Uiso
H13_2 H 0.0780 0.4094 0.6062 0.0790 Uiso
N6_2 N 0.0311(10) 0.6762(7) 0.9142(7) 0.0510 Uiso
C18_2 C 0.1471(7) 0.7940(4) 0.9737(5) 0.0450 Uiso
C19_2 C 0.2157(8) 0.8316(6) 0.9740(6) 0.0560 Uiso
H17_2 H 0.2320 0.8030 0.9347 0.0670 Uiso
C48_2 C 0.0481(13) 0.5871(9) 0.8174(9) 0.0510 Uiso
C49_2 C 0.0944(12) 0.7096(9) 0.9127(9) 0.0470 Uiso
C50_2 C 0.1113(12) 0.6580(9) 0.8480(9) 0.0480 Uiso
H32_2 H 0.1510 0.6681 0.8317 0.0580 Uiso
O9 O 0.0511(10) 0.2681(7) 0.4930(9) 0.1200 Uiso
N9 N 0.0277(6) 0.2054(5) 0.6087(4) 0.0450 Uiso
O10 O 0.0001(11) 0.1394(7) 0.4325(8) 0.1200 Uiso
Zn2 Zn 0.96482(14) 0.24125(10) 0.53151(10) 0.0443 Uani
O1_2 O 0.3144(7) 0.2019(6) 0.3087(6) 0.0690 Uiso
O2_2 O 0.2095(7) 0.0895(5) 0.2079(6) 0.0590 Uiso
O4_2 O 0.3920(7) 0.0776(8) 0.2682(7) 0.0890 Uiso
O5_2 O 0.4373(12) 0.0734(12) 0.1813(7) 0.1560 Uiso
O6_2 O 0.8311(9) 0.1927(7) 0.5518(6) 0.0720 Uiso
O7_2 O 0.8402(10) 0.1952(8) 0.4483(7) 0.0910 Uiso
N1_2 N 0.2795(8) 0.1180(6) 0.1013(5) 0.0570 Uiso
C1_2 C 0.2013(7) 0.1186(7) 0.0581(7) 0.0840 Uiso
H1_2 H 0.1579 0.1054 0.0690 0.1010 Uiso
C4_2 C 0.3283(8) 0.1572(7) 0.0261(7) 0.0710 Uiso
H3_2 H 0.3717 0.1704 0.0152 0.0860 Uiso
C5_2 C 0.3430(7) 0.1374(6) 0.0854(6) 0.0710 Uiso
H4_2 H 0.3965 0.1370 0.1150 0.0850 Uiso
N5_2 N 0.9869(7) 0.3557(4) 0.6179(5) 0.0410 Uiso
C11_2 C 0.9442(7) 0.3686(5) 0.6626(6) 0.0740 Uiso
H10_2 H 0.9020 0.3259 0.6497 0.0890 Uiso
C12_2 C 0.9634(7) 0.4440(6) 0.7261(6) 0.0610 Uiso
H11_2 H 0.9342 0.4528 0.7567 0.0730 Uiso
N7_2 N 0.9964(10) 0.5984(8) 0.8518(7) 0.0530 Uiso
H14_2 H 0.9508 0.5632 0.8369 0.0640 Uiso
C21_2 C 0.2394(8) 0.1566(7) 0.2748(7) 0.0560 Uiso
C22_2 C 0.1888(9) 0.1789(5) 0.3178(6) 0.0430 Uiso
C23_2 C 0.1269(8) 0.1149(7) 0.2957(8) 0.0850 Uiso
H19_2 H 0.1146 0.0641 0.2514 0.1020 Uiso
C24_2 C 0.0831(9) 0.1257(7) 0.3388(8) 0.1130 Uiso
H20_2 H 0.0460 0.0815 0.3294 0.1360 Uiso
C25_2 C 0.0932(8) 0.2006(6) 0.3959(8) 0.1250 Uiso
C26_2 C 0.2725(7) 0.3157(6) 0.4084(7) 0.1000 Uiso
H21_2 H 0.3039 0.3086 0.3801 0.1200 Uiso
C27_2 C 0.2102(7) 0.2515(5) 0.3864(6) 0.0790 Uiso
C28_2 C 0.1642(7) 0.2618(5) 0.4278(6) 0.0560 Uiso
C29_2 C 0.1806(8) 0.3363(6) 0.4912(6) 0.1000 Uiso
H22_2 H 0.1491 0.3433 0.5195 0.1200 Uiso
C30_2 C 0.2428(8) 0.4004(5) 0.5132(7) 0.1000 Uiso
H23_2 H 0.2540 0.4513 0.5566 0.1200 Uiso
C31_2 C 0.2888(8) 0.3901(5) 0.4718(8) 0.1000 Uiso
H24_2 H 0.3313 0.4340 0.4869 0.1200 Uiso
C32_2 C 0.0431(10) 0.2004(7) 0.4411(9) 0.1500 Uiso
C36_2 C 0.4514(9) 0.0881(10) 0.2529(7) 0.0640 Uiso
C37_2 C 0.5380(6) 0.1034(7) 0.3145(6) 0.0590 Uiso
C38_2 C 0.5958(8) 0.1460(7) 0.3068(6) 0.0720 Uiso
H26_2 H 0.5772 0.1597 0.2663 0.0860 Uiso
C39_2 C 0.6807(7) 0.1687(7) 0.3585(7) 0.0980 Uiso
H27_2 H 0.7202 0.1979 0.3532 0.1180 Uiso
C40_2 C 0.7078(6) 0.1488(6) 0.4178(6) 0.0320 Uiso
C41_2 C 0.6500(8) 0.1061(6) 0.4255(6) 0.0580 Uiso
C42_2 C 0.5651(7) 0.0834(7) 0.3739(7) 0.0720 Uiso
C43_2 C 0.5098(18) 0.0329(12) 0.3746(13) 0.0880 Uiso
H28_2 H 0.4538 0.0093 0.3305 0.1060 Uiso
C44_2 C 0.5273(19) 0.0137(13) 0.4319(14) 0.1010 Uiso
C45_2 C 0.6084(19) 0.0326(13) 0.4843(14) 0.0990 Uiso
H30_2 H 0.6233 0.0149 0.5215 0.1190 Uiso
C46_2 C 0.6705(15) 0.0787(10) 0.4828(11) 0.0680 Uiso
H31_2 H 0.7275 0.0924 0.5202 0.0820 Uiso
C47_2 C 0.7966(8) 0.1749(10) 0.4763(7) 0.0750 Uiso
C2_2 C 0.1865(7) 0.1385(7) 0.9988(7) 0.0850 Uiso
H2_2 H 0.1331 0.1389 0.9692 0.1020 Uiso
C3_2 C 0.2501(9) 0.1578(6) 0.9829(6) 0.0480 Uiso
N2_2 N 0.2569(11) 0.1955(8) 0.8329(8) 0.0630 Uiso
N3_2 N 0.2949(11) 0.1905(8) 0.9024(8) 0.0610 Uiso
H5_2 H 0.3481 0.1999 0.9322 0.0730 Uiso
C7_2 C 0.0397(6) 0.1736(5) 0.7113(5) 0.0340 Uiso
H7_2 H 0.0150 0.1584 0.7378 0.0410 Uiso
C8_2 C 0.1238(6) 0.1865(5) 0.7363(5) 0.0460 Uiso
C9_2 C 0.1599(5) 0.2088(5) 0.6975(5) 0.0500 Uiso
H8_2 H 0.2174 0.2177 0.7146 0.0600 Uiso
C10_2 C 0.1119(6) 0.2183(5) 0.6337(5) 0.0360 Uiso
H9_2 H 0.1365 0.2335 0.6072 0.0430 Uiso
C33_2 C 0.2324(11) 0.1684(8) 0.9136(8) 0.0330 Uiso
C34_2 C 0.1563(11) 0.1646(7) 0.8573(7) 0.0350 Uiso
H25_2 H 0.1029 0.1533 0.8535 0.0420 Uiso
C35_2 C 0.1807(12) 0.1822(9) 0.8089(9) 0.0470 Uiso
C6_2 C 0.9916(5) 0.1830(5) 0.6475(5) 0.0480 Uiso
H6_2 H 0.9341 0.1742 0.6304 0.0580 Uiso
N8 N 0.2362(7) 0.9532(4) 0.0894(5) 0.0520 Uiso
C16_2 C 0.1677(7) 0.9155(6) 0.0890(6) 0.0640 Uiso
H15_2 H 0.1513 0.9442 0.1283 0.0770 Uiso
C17_2 C 0.1232(7) 0.8360(6) 0.0311(7) 0.0700 Uiso
H16_2 H 0.0763 0.8103 0.0309 0.0840 Uiso
C20_2 C 0.2602(7) 0.9112(6) 0.0319(7) 0.0730 Uiso
H18_2 H 0.3070 0.9369 0.0321 0.0880 Uiso
H29_2 H 0.4840 0.9876 0.4357 0.1210 Uiso
C90 C 0.2903(6) 0.0305(4) 0.3596(5) 0.0320 Uiso
H57 H 0.3305 0.0748 0.3725 0.0390 Uiso
C92 C 0.2499(6) 0.0398(4) 0.4062(4) 0.0400 Uiso
C93 C 0.2690(12) 0.1156(9) 0.4755(9) 0.0470 Uiso
N17 N 0.2254(10) 0.1310(7) 0.5212(7) 0.0510 Uiso
C94 C 0.3255(11) 0.1832(8) 0.5120(8) 0.0360 Uiso
H59 H 0.1815 0.0957 0.5089 0.0610 Uiso
N18 N 0.2584(10) 0.2048(7) 0.5845(7) 0.0510 Uiso
C95 C 0.3165(10) 0.2392(8) 0.5781(8) 0.0310 Uiso
H60 H 0.3663 0.1938 0.4971 0.0430 Uiso
C96 C 0.3642(6) 0.3261(3) 0.6364(5) 0.0410 Uiso
C97 C 0.4334(6) 0.3638(5) 0.6377(5) 0.0370 Uiso
C98 C 0.3402(6) 0.3676(5) 0.6940(6) 0.0440 Uiso
C99 C 0.4786(5) 0.4430(5) 0.6966(5) 0.0360 Uiso
H61 H 0.4498 0.3353 0.5983 0.0450 Uiso
C100 C 0.3854(6) 0.4469(5) 0.7530(5) 0.0500 Uiso
H62 H 0.2929 0.3419 0.6931 0.0520 Uiso
H63 H 0.5259 0.4688 0.6975 0.0440 Uiso
H64 H 0.3690 0.4753 0.7924 0.0600 Uiso
N20 N 0.4546(6) 0.4846(3) 0.7543(4) 0.0460 Uiso
Zn10 Zn 0.51541(12) 0.60181(9) 0.83567(9) 0.0365 Uani
C78 C 0.0219(10) 0.6943(11) 0.1253(12) 0.0900 Uiso
O15 O 0.0704(13) 0.7552(9) 0.1392(10) 0.1180 Uiso
O16 O 0.0517(15) 0.6522(9) 0.1515(12) 0.1640 Uiso
Zn7 Zn 0.18900(13) 0.77552(9) 0.19242(9) 0.0368 Uani
N15 N 0.2597(6) 0.7525(5) 0.2803(4) 0.0370 Uiso
N16 N 0.2128(6) 0.8917(3) 0.2751(4) 0.0450 Uiso
C88 C 0.2717(5) 0.9565(5) 0.2941(5) 0.0300 Uiso
C89 C 0.1724(5) 0.9010(4) 0.3217(5) 0.0420 Uiso
H55 H 0.2993 0.9502 0.2622 0.0360 Uiso
C91 C 0.1910(6) 0.9750(5) 0.3872(5) 0.0350 Uiso
H56 H 0.1322 0.8567 0.3087 0.0500 Uiso
H58 H 0.1634 0.9813 0.4190 0.0420 Uiso
O19 O 0.3192(9) 0.8382(6) 0.1943(7) 0.0860 Uiso
O20 O 0.2147(9) 0.7235(7) 0.1004(7) 0.0910 Uiso
C60 C 0.7849(8) 0.6316(7) 0.0380(6) 0.0700 Uiso
C63 C 0.4347(7) 0.7551(5) 0.0388(7) 0.0570 Uiso
C64 C 0.9147(10) 0.6830(10) 0.0120(8) 0.0700 Uiso
C65 C 0.8669(7) 0.6440(6) 0.0890(6) 0.0370 Uiso
C66 C 0.7212(6) 0.6037(8) 0.0496(8) 0.1170 Uiso
C68 C 0.2845(7) 0.6638(6) 0.0050(7) 0.0870 Uiso
C69 C 0.3980(7) 0.7874(5) 0.0870(5) 0.0510 Uiso
C70 C 0.5098(15) 0.7958(11) 0.0539(11) 0.0730 Uiso
H39 H 0.9580 0.7002 0.0027 0.0850 Uiso
C71 C 0.9309(9) 0.6740(9) 0.0788(9) 0.0560 Uiso
C72 C 0.8851(7) 0.6285(7) 0.1517(6) 0.0810 Uiso
C73 C 0.7395(9) 0.5882(8) 0.1123(9) 0.1290 Uiso
H40 H 0.6652 0.5952 0.0147 0.1400 Uiso
C75 C 0.3229(7) 0.7418(6) 0.0701(6) 0.0470 Uiso
C76 C 0.4466(17) 0.8689(12) 0.1508(12) 0.0800 Uiso
C77 C 0.553(2) 0.8700(14) 0.1134(14) 0.1040 Uiso
H42 H 0.5321 0.7692 0.0197 0.0870 Uiso
H43 H 0.9411 0.6370 0.1866 0.0970 Uiso
C79 C 0.8214(10) 0.6006(7) 0.1633(7) 0.0650 Uiso
H44 H 0.6959 0.5691 0.1203 0.1550 Uiso
C81 C 0.2840(9) 0.7725(8) 0.1259(8) 0.0580 Uiso
H47 H 0.4290 0.8948 0.1900 0.0960 Uiso
C82 C 0.507(2) 0.9056(17) 0.1576(15) 0.1120 Uiso
H48 H 0.6069 0.8977 0.1267 0.1240 Uiso
H49 H 0.8338 0.5900 0.2062 0.0780 Uiso
H50 H 0.5277 0.9609 0.1932 0.1350 Uiso
O11 O 0.6211(12) 0.6374(9) 0.9224(9) 0.1330 Uiso
N11 N 0.4971(6) 0.6402(5) 0.7557(4) 0.0290 Uiso
O12 O 0.4477(11) 0.6508(7) 0.8868(7) 0.0900 Uiso
C51 C 0.6776(10) 0.6174(8) 0.9077(9) 0.1020 Uiso
C52 C 0.5648(5) 0.6730(6) 0.7518(5) 0.0640 Uiso
C53 C 0.4167(5) 0.6275(5) 0.7009(6) 0.0600 Uiso
C54 C 0.4479(11) 0.6343(8) 0.9394(9) 0.1110 Uiso
O13 O 0.6660(15) 0.5792(12) 0.8337(11) 0.1740 Uiso
C55 C 0.7657(11) 0.6376(10) 0.9690(8) 0.0710 Uiso
H33 H 0.6198 0.6816 0.7892 0.0770 Uiso
C56 C 0.5521(6) 0.6932(6) 0.6930(6) 0.0550 Uiso
C57 C 0.4040(6) 0.6478(6) 0.6421(5) 0.0590 Uiso
H34 H 0.3705 0.6051 0.7036 0.0720 Uiso
O14 O 0.4575(12) 0.5716(8) 0.9346(9) 0.1200 Uiso
C58 C 0.3964(7) 0.6771(6) 0.9737(6) 0.0990 Uiso
C59 C 0.8315(8) 0.6654(10) 0.9596(11) 0.0730 Uiso
H35 H 0.5983 0.7157 0.6903 0.0660 Uiso
C61 C 0.4717(7) 0.6806(5) 0.6382(5) 0.0380 Uiso
H36 H 0.3490 0.6391 0.6046 0.0710 Uiso
C62 C 0.3213(7) 0.6315(5) 0.9568(6) 0.1140 Uiso
H37 H 0.8186 0.6728 0.9145 0.0870 Uiso
C67 C 0.4581(11) 0.6999(8) 0.5753(8) 0.0320 Uiso
H38 H 0.2951 0.5782 0.9123 0.1360 Uiso
N13 N 0.5233(9) 0.7406(6) 0.5730(6) 0.0360 Uiso
C74 C 0.3838(12) 0.6893(8) 0.5103(8) 0.0430 Uiso
H41 H 0.2332 0.6327 0.9934 0.1050 Uiso
H45 H 0.5764 0.7564 0.6087 0.0430 Uiso
N14 N 0.4953(9) 0.7530(6) 0.5094(6) 0.0340 Uiso
H46 H 0.3276 0.6645 0.4941 0.0520 Uiso
C80 C 0.4129(11) 0.7239(8) 0.4763(8) 0.0340 Uiso
C83 C 0.3581(6) 0.7317(6) 0.4053(5) 0.0400 Uiso
C84 C 0.3948(5) 0.7815(6) 0.3881(6) 0.0570 Uiso
C85 C 0.2723(6) 0.6923(5) 0.3600(6) 0.0450 Uiso
C86 C 0.3456(6) 0.7919(5) 0.3256(6) 0.0620 Uiso
H51 H 0.4535 0.8084 0.4190 0.0690 Uiso
H52 H 0.2472 0.6582 0.3717 0.0540 Uiso
C87 C 0.2231(5) 0.7027(5) 0.2975(5) 0.0520 Uiso
H53 H 0.3707 0.8259 0.3138 0.0750 Uiso
H54 H 0.1644 0.6758 0.2665 0.0620 Uiso
Zn6 Zn 0.48459(12) 0.39819(9) 0.16433(9) 0.0365 Uani
O11_2 O 0.3789(12) 0.3626(9) 0.0776(9) 0.1330 Uiso
N11_2 N 0.5029(6) 0.3598(5) 0.2443(4) 0.0290 Uiso
O12_2 O 0.5523(11) 0.3492(7) 0.1132(7) 0.0900 Uiso
N12 N 0.5454(6) 0.5154(3) 0.2457(4) 0.0460 Uiso
C51_2 C 0.3224(10) 0.3826(8) 0.0923(9) 0.1020 Uiso
C52_2 C 0.4352(5) 0.3270(6) 0.2482(5) 0.0640 Uiso
C53_2 C 0.5833(5) 0.3725(5) 0.2991(6) 0.0600 Uiso
C54_2 C 0.5521(11) 0.3657(8) 0.0606(9) 0.1110 Uiso
O13_2 O 0.3340(15) 0.4208(12) 0.1663(11) 0.1740 Uiso
C55_2 C 0.2343(11) 0.3624(10) 0.0310(8) 0.0710 Uiso
H33_2 H 0.3802 0.3184 0.2108 0.0770 Uiso
C56_2 C 0.4479(6) 0.3068(6) 0.3070(6) 0.0550 Uiso
C57_2 C 0.5960(6) 0.3522(6) 0.3579(5) 0.0590 Uiso
H34_2 H 0.6295 0.3949 0.2964 0.0720 Uiso
O14_2 O 0.5425(12) 0.4284(8) 0.0654(9) 0.1200 Uiso
C58_2 C 0.6036(7) 0.3229(6) 0.0263(6) 0.0990 Uiso
C59_2 C 0.1685(8) 0.3346(10) 0.0404(11) 0.0730 Uiso
H35_2 H 0.4017 0.2843 0.3097 0.0660 Uiso
C61_2 C 0.5283(7) 0.3194(5) 0.3618(5) 0.0380 Uiso
H36_2 H 0.6510 0.3609 0.3954 0.0710 Uiso
C62_2 C 0.6787(7) 0.3685(5) 0.0432(6) 0.1140 Uiso
H37_2 H 0.1814 0.3272 0.0855 0.0870 Uiso
C67_2 C 0.5419(11) 0.3001(8) 0.4247(8) 0.0320 Uiso
H38_2 H 0.7049 0.4218 0.0877 0.1360 Uiso
N13_2 N 0.4767(9) 0.2594(6) 0.4270(6) 0.0360 Uiso
C74_2 C 0.6162(12) 0.3107(8) 0.4897(8) 0.0430 Uiso
H41_2 H 0.7668 0.3673 0.0066 0.1050 Uiso
H45_2 H 0.4236 0.2436 0.3913 0.0430 Uiso
N14_2 N 0.5047(9) 0.2470(6) 0.4906(6) 0.0340 Uiso
H46_2 H 0.6724 0.3355 0.5059 0.0520 Uiso
C80_2 C 0.5871(11) 0.2761(8) 0.5237(8) 0.0340 Uiso
C83_2 C 0.6419(6) 0.2683(6) 0.5947(5) 0.0400 Uiso
C84_2 C 0.6052(5) 0.2185(6) 0.6119(6) 0.0570 Uiso
C85_2 C 0.7277(6) 0.3077(5) 0.6400(6) 0.0450 Uiso
C86_2 C 0.6544(6) 0.2081(5) 0.6744(6) 0.0620 Uiso
H51_2 H 0.5465 0.1916 0.5810 0.0690 Uiso
H52_2 H 0.7528 0.3418 0.6283 0.0540 Uiso
C87_2 C 0.7769(5) 0.2973(5) 0.7025(5) 0.0520 Uiso
H53_2 H 0.6293 0.1741 0.6862 0.0750 Uiso
H54_2 H 0.8356 0.3242 0.7335 0.0620 Uiso
N19 N 0.7403(6) 0.2475(5) 0.7197(4) 0.0370 Uiso
Zn9 Zn 0.81100(13) 0.22448(9) 0.80758(9) 0.0368 Uani
C60_2 C 0.2151(8) 0.3684(7) 0.9620(6) 0.0700 Uiso
C63_2 C 0.5653(7) 0.2449(5) 0.9612(7) 0.0570 Uiso
C64_2 C 0.0853(10) 0.3170(10) 0.9880(8) 0.0700 Uiso
C65_2 C 0.1331(7) 0.3560(6) 0.9110(6) 0.0370 Uiso
C66_2 C 0.2788(6) 0.3963(8) 0.9504(8) 0.1170 Uiso
C68_2 C 0.7155(7) 0.3362(6) 0.9950(7) 0.0870 Uiso
C69_2 C 0.6020(7) 0.2126(5) 0.9130(5) 0.0510 Uiso
C70_2 C 0.4902(15) 0.2042(11) 0.9461(11) 0.0730 Uiso
H39_2 H 0.0420 0.2998 0.9973 0.0850 Uiso
C71_2 C 0.0691(9) 0.3260(9) 0.9212(9) 0.0560 Uiso
C72_2 C 0.1149(7) 0.3715(7) 0.8483(6) 0.0810 Uiso
C73_2 C 0.2605(9) 0.4118(8) 0.8877(9) 0.1290 Uiso
H40_2 H 0.3348 0.4048 0.9853 0.1400 Uiso
C75_2 C 0.6771(7) 0.2582(6) 0.9299(6) 0.0470 Uiso
C76_2 C 0.5534(17) 0.1311(12) 0.8492(12) 0.0800 Uiso
C77_2 C 0.447(2) 0.1300(14) 0.8866(14) 0.1040 Uiso
H42_2 H 0.4679 0.2308 0.9803 0.0870 Uiso
H43_2 H 0.0589 0.3630 0.8134 0.0970 Uiso
C79_2 C 0.1786(10) 0.3994(7) 0.8367(7) 0.0650 Uiso
H44_2 H 0.3041 0.4309 0.8797 0.1550 Uiso
C81_2 C 0.7160(9) 0.2275(8) 0.8741(8) 0.0580 Uiso
H47_2 H 0.5710 0.1052 0.8100 0.0960 Uiso
C82_2 C 0.493(2) 0.0944(17) 0.8424(15) 0.1120 Uiso
H48_2 H 0.3931 0.1023 0.8733 0.1240 Uiso
H49_2 H 0.1662 0.4100 0.7938 0.0780 Uiso
O17 O 0.6808(9) 0.1618(6) 0.8057(7) 0.0860 Uiso
O18 O 0.7853(9) 0.2765(7) 0.8996(7) 0.0910 Uiso
H50_2 H 0.4723 0.0391 0.8068 0.1350 Uiso
C78_2 C 0.9781(10) 0.3057(11) 0.8747(12) 0.0900 Uiso
O15_2 O 0.9296(13) 0.2448(9) 0.8608(10) 0.1180 Uiso
O16_2 O 0.9483(15) 0.3478(9) 0.8485(12) 0.1640 Uiso
N16_2 N 0.7872(6) 0.1083(3) 0.7249(4) 0.0450 Uiso
C88_2 C 0.7283(5) 0.0435(5) 0.7059(5) 0.0300 Uiso
C89_2 C 0.8276(5) 0.0990(4) 0.6783(5) 0.0420 Uiso
H55_2 H 0.7007 0.0498 0.7378 0.0360 Uiso
C91_2 C 0.8090(6) 0.0250(5) 0.6128(5) 0.0350 Uiso
H56_2 H 0.8678 0.1433 0.6913 0.0500 Uiso
H58_2 H 0.8366 0.0187 0.5810 0.0420 Uiso
C90_2 C 0.7097(6) 0.9695(4) 0.6404(5) 0.0320 Uiso
H57_2 H 0.6695 0.9252 0.6275 0.0390 Uiso
C92_2 C 0.7501(6) 0.9602(4) 0.5938(4) 0.0400 Uiso
C93_2 C 0.7310(12) 0.8844(9) 0.5245(9) 0.0470 Uiso
N17_2 N 0.7746(10) 0.8690(7) 0.4788(7) 0.0510 Uiso
C94_2 C 0.6745(11) 0.8168(8) 0.4880(8) 0.0360 Uiso
H59_2 H 0.8185 0.9043 0.4911 0.0610 Uiso
N18_2 N 0.7416(10) 0.7952(7) 0.4155(7) 0.0510 Uiso
C95_2 C 0.6835(10) 0.7608(8) 0.4219(8) 0.0310 Uiso
H60_2 H 0.6337 0.8062 0.5029 0.0430 Uiso
C96_2 C 0.6358(6) 0.6739(3) 0.3636(5) 0.0410 Uiso
C97_2 C 0.5666(6) 0.6362(5) 0.3623(5) 0.0370 Uiso
C98_2 C 0.6598(6) 0.6324(5) 0.3060(6) 0.0440 Uiso
C99_2 C 0.5214(5) 0.5570(5) 0.3034(5) 0.0360 Uiso
H61_2 H 0.5502 0.6647 0.4017 0.0450 Uiso
C100_2 C 0.6146(6) 0.5531(5) 0.2470(5) 0.0500 Uiso
H62_2 H 0.7071 0.6581 0.3069 0.0520 Uiso
H63_2 H 0.4741 0.5312 0.3025 0.0440 Uiso
H64_2 H 0.6310 0.5247 0.2076 0.0600 Uiso
loop_
_atom_site_aniso_label
_atom_site_aniso_U_11
_atom_site_aniso_U_22
_atom_site_aniso_U_33
_atom_site_aniso_U_23
_atom_site_aniso_U_13
_atom_site_aniso_U_12
Zn5 0.0446 0.0487 0.0373 0.0202 0.0211 0.0173
Zn1 0.039 0.0481 0.0331 0.0201 0.0142 0.014
Zn3 0.039 0.0481 0.0331 0.0201 0.0142 0.014
Zn2 0.0446 0.0487 0.0373 0.0202 0.0211 0.0173
Zn10 0.0323 0.0381 0.031 0.0163 0.012 0.0086
Zn7 0.0344 0.0388 0.0282 0.0152 0.012 0.0079
Zn6 0.0323 0.0381 0.031 0.0163 0.012 0.0086
Zn9 0.0344 0.0388 0.0282 0.0152 0.012 0.0079
loop_
_geom_bond_atom_site_label_1
_geom_bond_atom_site_label_2
_geom_bond_site_symmetry_1
_geom_bond_site_symmetry_2
C6 H6 1_555 1_555
H2 C2 1_555 1_555
C3 C2 1_555 1_555
N2 N3 1_555 1_555
N3 H5 1_555 1_555
H7 C7 1_555 1_555
C8 C7 1_555 1_555
C9 C8 1_555 1_555
H8 C9 1_555 1_555
C10 N4 1_555 1_555
H9 C10 1_555 1_555
C33 C3 1_555 1_555
C34 C33 1_555 1_555
H25 C34 1_555 1_555
C35 N2 1_555 1_555
N3 C33 1_555 1_555
C8 C35 1_555 1_555
C9 C10 1_555 1_555
C34 C35 1_555 1_555
Zn1 O2 1_555 1_555
Zn5 O7 1_555 1_555
O1 C21 1_555 1_555
O2 C21 1_555 1_555
O3 C32 1_555 1_555
O4 Zn1 1_555 1_555
O5 C36 1_555 1_555
O6 C47 1_555 1_555
O7 C47 1_555 1_555
N1 Zn1 1_555 1_555
C1 N1 1_555 1_555
H1 C1 1_555 1_555
H3 C4 1_555 1_555
C5 N1 1_555 1_555
H4 C5 1_555 1_555
N5 Zn5 1_555 1_555
C11 N5 1_555 1_555
H10 C11 1_555 1_555
C12 C11 1_555 1_555
H11 C12 1_555 1_555
N7 H14 1_555 1_555
C21 C22 1_555 1_555
C22 C23 1_555 1_555
C23 H19 1_555 1_555
C24 C23 1_555 1_555
H20 C24 1_555 1_555
C25 C24 1_555 1_555
C26 H21 1_555 1_555
C27 C22 1_555 1_555
C28 C25 1_555 1_555
C29 C28 1_555 1_555
H22 C29 1_555 1_555
C30 C29 1_555 1_555
H23 C30 1_555 1_555
C31 C26 1_555 1_555
H24 C31 1_555 1_555
C32 C25 1_555 1_555
C36 O4 1_555 1_555
C37 C36 1_555 1_555
C38 C37 1_555 1_555
H26 C38 1_555 1_555
C39 C38 1_555 1_555
H27 C39 1_555 1_555
C40 C39 1_555 1_555
C41 C40 1_555 1_555
C42 C37 1_555 1_555
C43 C42 1_555 1_555
H28 C43 1_555 1_555
C44 C43 1_555 1_555
C45 C44 1_555 1_555
H30 C45 1_555 1_555
C46 C41 1_555 1_555
H31 C46 1_555 1_555
C47 C40 1_555 1_555
O8 C32 1_555 1_555
C4 C5 1_555 1_555
C26 C27 1_555 1_555
C27 C28 1_555 1_555
C30 C31 1_555 1_555
C41 C42 1_555 1_555
C45 C46 1_555 1_555
C14 C13 1_555 1_555
H12 C14 1_555 1_555
H13 C15 1_555 1_555
C19 C18 1_555 1_555
H17 C19 1_555 1_555
C48 C13 1_555 1_555
C49 N6 1_555 1_555
C50 C48 1_555 1_555
H32 C50 1_555 1_555
C14 C15 1_555 1_555
C18 C49 1_555 1_555
C49 C50 1_555 1_555
N10 C16 1_555 1_555
C16 H15 1_555 1_555
C17 C16 1_555 1_555
H16 C17 1_555 1_555
C20 N10 1_555 1_555
H18 C20 1_555 1_555
C14_2 C13_2 1_555 1_555
H12_2 C14_2 1_555 1_555
H13_2 C15_2 1_555 1_555
C19_2 C18_2 1_555 1_555
H17_2 C19_2 1_555 1_555
C48_2 C13_2 1_555 1_555
C49_2 N6_2 1_555 1_555
C50_2 C48_2 1_555 1_555
H32_2 C50_2 1_555 1_555
C14_2 C15_2 1_555 1_555
C18_2 C49_2 1_555 1_555
C49_2 C50_2 1_555 1_555
Zn3 O2_2 1_555 1_555
Zn2 O7_2 1_555 1_555
O1_2 C21_2 1_555 1_555
O2_2 C21_2 1_555 1_555
O9 C32_2 1_555 1_555
O4_2 Zn3 1_555 1_555
O5_2 C36_2 1_555 1_555
O6_2 C47_2 1_555 1_555
O7_2 C47_2 1_555 1_555
N1_2 Zn3 1_555 1_555
C1_2 N1_2 1_555 1_555
H1_2 C1_2 1_555 1_555
H3_2 C4_2 1_555 1_555
C5_2 N1_2 1_555 1_555
H4_2 C5_2 1_555 1_555
N5_2 Zn2 1_555 1_555
C11_2 N5_2 1_555 1_555
H10_2 C11_2 1_555 1_555
C12_2 C11_2 1_555 1_555
H11_2 C12_2 1_555 1_555
N7_2 H14_2 1_555 1_555
C21_2 C22_2 1_555 1_555
C22_2 C23_2 1_555 1_555
C23_2 H19_2 1_555 1_555
C24_2 C23_2 1_555 1_555
H20_2 C24_2 1_555 1_555
C25_2 C24_2 1_555 1_555
C26_2 H21_2 1_555 1_555
C27_2 C22_2 1_555 1_555
C28_2 C25_2 1_555 1_555
C29_2 C28_2 1_555 1_555
H22_2 C29_2 1_555 1_555
C30_2 C29_2 1_555 1_555
H23_2 C30_2 1_555 1_555
C31_2 C26_2 1_555 1_555
H24_2 C31_2 1_555 1_555
C32_2 C25_2 1_555 1_555
C36_2 O4_2 1_555 1_555
C37_2 C36_2 1_555 1_555
C38_2 C37_2 1_555 1_555
H26_2 C38_2 1_555 1_555
C39_2 C38_2 1_555 1_555
H27_2 C39_2 1_555 1_555
C40_2 C39_2 1_555 1_555
C41_2 C40_2 1_555 1_555
C42_2 C37_2 1_555 1_555
C43_2 C42_2 1_555 1_555
H28_2 C43_2 1_555 1_555
C44_2 C43_2 1_555 1_555
C45_2 C44_2 1_555 1_555
H30_2 C45_2 1_555 1_555
C46_2 C41_2 1_555 1_555
H31_2 C46_2 1_555 1_555
C47_2 C40_2 1_555 1_555
O10 C32_2 1_555 1_555
C4_2 C5_2 1_555 1_555
C26_2 C27_2 1_555 1_555
C27_2 C28_2 1_555 1_555
C30_2 C31_2 1_555 1_555
C41_2 C42_2 1_555 1_555
C45_2 C46_2 1_555 1_555
H2_2 C2_2 1_555 1_555
C3_2 C2_2 1_555 1_555
N2_2 N3_2 1_555 1_555
N3_2 H5_2 1_555 1_555
H7_2 C7_2 1_555 1_555
C8_2 C7_2 1_555 1_555
C9_2 C8_2 1_555 1_555
H8_2 C9_2 1_555 1_555
C10_2 N9 1_555 1_555
H9_2 C10_2 1_555 1_555
C33_2 C3_2 1_555 1_555
C34_2 C33_2 1_555 1_555
H25_2 C34_2 1_555 1_555
C35_2 N2_2 1_555 1_555
N3_2 C33_2 1_555 1_555
C8_2 C35_2 1_555 1_555
C9_2 C10_2 1_555 1_555
C34_2 C35_2 1_555 1_555
C6_2 H6_2 1_555 1_555
N8 C16_2 1_555 1_555
C16_2 H15_2 1_555 1_555
C17_2 C16_2 1_555 1_555
H16_2 C17_2 1_555 1_555
C20_2 N8 1_555 1_555
H18_2 C20_2 1_555 1_555
H57 C90 1_555 1_555
C92 C90 1_555 1_555
C93 C92 1_555 1_555
N17 C93 1_555 1_555
C94 C93 1_555 1_555
H59 N17 1_555 1_555
N18 N17 1_555 1_555
C95 C94 1_555 1_555
H60 C94 1_555 1_555
C96 C95 1_555 1_555
C97 C96 1_555 1_555
C98 C96 1_555 1_555
C99 C97 1_555 1_555
H61 C97 1_555 1_555
C100 C98 1_555 1_555
H62 C98 1_555 1_555
H63 C99 1_555 1_555
H64 C100 1_555 1_555
N20 C99 1_555 1_555
Zn10 N20 1_555 1_555
N18 C95 1_555 1_555
C100 N20 1_555 1_555
O15 C78 1_555 1_555
O16 C78 1_555 1_555
Zn7 O15 1_555 1_555
N15 Zn7 1_555 1_555
N16 Zn7 1_555 1_555
C88 N16 1_555 1_555
C89 N16 1_555 1_555
H55 C88 1_555 1_555
C91 C89 1_555 1_555
H56 C89 1_555 1_555
H58 C91 1_555 1_555
O19 Zn7 1_555 1_555
O20 Zn7 1_555 1_555
C65 C60 1_555 1_555
C66 C60 1_555 1_555
C69 C63 1_555 1_555
C70 C63 1_555 1_555
H39 C64 1_555 1_555
C71 C64 1_555 1_555
C72 C65 1_555 1_555
C73 C66 1_555 1_555
H40 C66 1_555 1_555
C75 C68 1_555 1_555
C76 C69 1_555 1_555
C77 C70 1_555 1_555
H42 C70 1_555 1_555
H43 C72 1_555 1_555
C79 C72 1_555 1_555
H44 C73 1_555 1_555
C81 C75 1_555 1_555
H47 C76 1_555 1_555
C82 C76 1_555 1_555
H48 C77 1_555 1_555
H49 C79 1_555 1_555
O19 C81 1_555 1_555
O20 C81 1_555 1_555
H50 C82 1_555 1_555
C65 C71 1_555 1_555
C69 C75 1_555 1_555
C73 C79 1_555 1_555
C77 C82 1_555 1_555
Zn10 O11 1_555 1_555
O11 C51 1_555 1_555
N11 Zn10 1_555 1_555
O12 Zn10 1_555 1_555
C51 O13 1_555 1_555
C52 N11 1_555 1_555
C53 N11 1_555 1_555
C54 O12 1_555 1_555
C55 C51 1_555 1_555
H33 C52 1_555 1_555
C56 C52 1_555 1_555
C57 C53 1_555 1_555
H34 C53 1_555 1_555
O14 C54 1_555 1_555
C58 C54 1_555 1_555
C59 C55 1_555 1_555
H35 C56 1_555 1_555
C61 C56 1_555 1_555
H36 C57 1_555 1_555
C62 C58 1_555 1_555
H37 C59 1_555 1_555
C67 C61 1_555 1_555
H38 C62 1_555 1_555
N13 C67 1_555 1_555
C74 C67 1_555 1_555
H45 N13 1_555 1_555
N14 N13 1_555 1_555
H46 C74 1_555 1_555
C80 C74 1_555 1_555
C83 C80 1_555 1_555
C84 C83 1_555 1_555
C85 C83 1_555 1_555
C86 C84 1_555 1_555
H51 C84 1_555 1_555
H52 C85 1_555 1_555
C87 C85 1_555 1_555
H53 C86 1_555 1_555
H54 C87 1_555 1_555
N15 C86 1_555 1_555
C57 C61 1_555 1_555
N14 C80 1_555 1_555
C87 N15 1_555 1_555
Zn6 O11_2 1_555 1_555
O11_2 C51_2 1_555 1_555
N11_2 Zn6 1_555 1_555
O12_2 Zn6 1_555 1_555
N12 Zn6 1_555 1_555
C51_2 O13_2 1_555 1_555
C52_2 N11_2 1_555 1_555
C53_2 N11_2 1_555 1_555
C54_2 O12_2 1_555 1_555
C55_2 C51_2 1_555 1_555
H33_2 C52_2 1_555 1_555
C56_2 C52_2 1_555 1_555
C57_2 C53_2 1_555 1_555
H34_2 C53_2 1_555 1_555
O14_2 C54_2 1_555 1_555
C58_2 C54_2 1_555 1_555
C59_2 C55_2 1_555 1_555
H35_2 C56_2 1_555 1_555
C61_2 C56_2 1_555 1_555
H36_2 C57_2 1_555 1_555
C62_2 C58_2 1_555 1_555
H37_2 C59_2 1_555 1_555
C67_2 C61_2 1_555 1_555
H38_2 C62_2 1_555 1_555
N13_2 C67_2 1_555 1_555
C74_2 C67_2 1_555 1_555
H45_2 N13_2 1_555 1_555
N14_2 N13_2 1_555 1_555
H46_2 C74_2 1_555 1_555
C80_2 C74_2 1_555 1_555
C83_2 C80_2 1_555 1_555
C84_2 C83_2 1_555 1_555
C85_2 C83_2 1_555 1_555
C86_2 C84_2 1_555 1_555
H51_2 C84_2 1_555 1_555
H52_2 C85_2 1_555 1_555
C87_2 C85_2 1_555 1_555
H53_2 C86_2 1_555 1_555
H54_2 C87_2 1_555 1_555
N19 C86_2 1_555 1_555
Zn9 N19 1_555 1_555
C57_2 C61_2 1_555 1_555
N14_2 C80_2 1_555 1_555
C87_2 N19 1_555 1_555
C65_2 C60_2 1_555 1_555
C66_2 C60_2 1_555 1_555
C69_2 C63_2 1_555 1_555
C70_2 C63_2 1_555 1_555
H39_2 C64_2 1_555 1_555
C71_2 C64_2 1_555 1_555
C72_2 C65_2 1_555 1_555
C73_2 C66_2 1_555 1_555
H40_2 C66_2 1_555 1_555
C75_2 C68_2 1_555 1_555
C76_2 C69_2 1_555 1_555
C77_2 C70_2 1_555 1_555
H42_2 C70_2 1_555 1_555
H43_2 C72_2 1_555 1_555
C79_2 C72_2 1_555 1_555
H44_2 C73_2 1_555 1_555
C81_2 C75_2 1_555 1_555
H47_2 C76_2 1_555 1_555
C82_2 C76_2 1_555 1_555
H48_2 C77_2 1_555 1_555
H49_2 C79_2 1_555 1_555
O17 C81_2 1_555 1_555
O18 C81_2 1_555 1_555
H50_2 C82_2 1_555 1_555
Zn9 O17 1_555 1_555
C65_2 C71_2 1_555 1_555
C69_2 C75_2 1_555 1_555
C73_2 C79_2 1_555 1_555
C77_2 C82_2 1_555 1_555
O18 Zn9 1_555 1_555
O15_2 C78_2 1_555 1_555
O16_2 C78_2 1_555 1_555
Zn9 O15_2 1_555 1_555
N16_2 Zn9 1_555 1_555
C88_2 N16_2 1_555 1_555
C89_2 N16_2 1_555 1_555
H55_2 C88_2 1_555 1_555
C91_2 C89_2 1_555 1_555
H56_2 C89_2 1_555 1_555
H58_2 C91_2 1_555 1_555
H57_2 C90_2 1_555 1_555
C92_2 C90_2 1_555 1_555
C93_2 C92_2 1_555 1_555
N17_2 C93_2 1_555 1_555
C94_2 C93_2 1_555 1_555
H59_2 N17_2 1_555 1_555
N18_2 N17_2 1_555 1_555
C95_2 C94_2 1_555 1_555
H60_2 C94_2 1_555 1_555
C96_2 C95_2 1_555 1_555
C97_2 C96_2 1_555 1_555
C98_2 C96_2 1_555 1_555
C99_2 C97_2 1_555 1_555
H61_2 C97_2 1_555 1_555
C100_2 C98_2 1_555 1_555
H62_2 C98_2 1_555 1_555
H63_2 C99_2 1_555 1_555
H64_2 C100_2 1_555 1_555
N12 C99_2 1_555 1_555
N18_2 C95_2 1_555 1_555
C100_2 N12 1_555 1_555

#END
