
###############################################################################
#
# This file contains modified crystal structure data generated from the
# MOF subset of the Cambridge Structural Database (CSD) v543 
# hosted by the Cambridge Crystallographic Data Centre (CCDC).
#
# This work is licensed under the Creative Commons
# Attribution-NonCommercial-ShareAlike 4.0 International License.
# To view a copy of this license, visit
# http://creativecommons.org/licenses/by-nc-sa/4.0/
# or send a letter to
# Creative Commons, PO Box 1866, Mountain View, CA 94042, USA.
#
# CIF created using the CSD Python API on 29 September 2022
# The structure has been converted into the P1 space group
# The structure has a 3D framework
# The original CSD entry YEHRUC is in the monoclinic crystal system
# The framework has been calculated to contain at least 10.0% void space
# The void calculation uses a probe of radius 1.32A, grid spacing 0.4
#
###############################################################################

data_YEHRUC
_chemical_formula_moiety         '(C176 H128 N32 Ni8 O80 U8)n'
_symmetry_cell_setting           triclinic
_symmetry_space_group_name_H-M   'P 1'
_symmetry_Int_Tables_number      1
_space_group_name_Hall           'P 1'
loop_
_symmetry_equiv_pos_site_id
_symmetry_equiv_pos_as_xyz
1 x,y,z
_cell_length_a                   9.9829(3)
_cell_length_b                   25.1302(8)
_cell_length_c                   21.9789(7)
_cell_angle_alpha                90
_cell_angle_beta                 97.9405(18)
_cell_angle_gamma                90
_cell_volume                     5461.03
loop_
_atom_site_label
_atom_site_type_symbol
_atom_site_fract_x
_atom_site_fract_y
_atom_site_fract_z
O19 O 0.2403(3) 0.70348(11) 0.07528(14)
O20 O 0.1404(4) 0.69910(13) 0.15947(15)
N8 N 0.0594(3) 0.77503(11) 0.01839(15)
C41 C 0.0426(3) 0.83222(14) 0.00353(19)
H30 H 0.117056 0.851925 0.028172
C43 C 0.0599(4) 0.76394(16) 0.08448(18)
H32 H 0.088980 0.796406 0.108200
C44 C 0.1529(4) 0.71775(16) 0.10847(19)
U4 U 0.16106(2) 0.40662(2) 0.03167(2)
Ni3 Ni 0.250000 0.750000 0.000000
O16 O 0.1464(3) 0.69440(11) 0.94615(14)
C40 C 0.0237(4) 0.69589(14) 0.94799(16)
H29 H 0.052977 0.837120 0.959735
Ni3_2 Ni 0.250000 0.750000 1.000000
O22 O 0.0484(3) 0.55515(11) 0.95695(14)
U1 U 0.16106(2) 0.59338(2) 0.53167(2)
Ni1 Ni 0.500000 0.43495(3) 0.250000
O1 O 0.0898(3) 0.61605(12) 0.45797(12)
O2 O 0.2328(3) 0.57219(10) 0.60572(12)
O3 O 0.1878(3) 0.50811(11) 0.49551(13)
O4 O 0.0484(3) 0.44485(11) 0.45695(14)
O5 O 0.0579(2) 0.66123(9) 0.57733(11)
O7 O 0.1783(2) 0.83103(9) 0.46292(11)
O8 O 0.1095(3) 0.90588(10) 0.49982(13)
N1 N 0.6115(3) 0.49539(12) 0.30075(15)
N2 N 0.4074(3) 0.43895(12) 0.32461(13)
N3 N 0.3547(3) 0.37337(12) 0.23335(13)
C1 C 0.7207(4) 0.52119(17) 0.2882(2)
H1 H 0.757087 0.512123 0.251877
C2 C 0.7840(5) 0.56065(19) 0.3257(2)
H2 H 0.863367 0.577305 0.315489
C3 C 0.7316(4) 0.57570(17) 0.3779(2)
H3 H 0.772821 0.603029 0.403936
C4 C 0.6167(4) 0.54961(15) 0.3912(2)
H4 H 0.577499 0.559050 0.426718
C5 C 0.5597(4) 0.50992(14) 0.35274(18)
C6 C 0.4397(4) 0.47872(14) 0.36414(17)
C7 C 0.3612(4) 0.48949(14) 0.41015(17)
H5 H 0.384317 0.517446 0.438773
C8 C 0.2477(4) 0.45805(14) 0.41296(16)
C9 C 0.2152(4) 0.41644(14) 0.37190(17)
H6 H 0.138190 0.394682 0.374084
C10 C 0.2991(4) 0.40787(14) 0.32772(16)
C11 C 0.2784(4) 0.36663(14) 0.27924(16)
C12 C 0.1912(4) 0.32407(16) 0.28080(18)
H7 H 0.138153 0.320405 0.313280
C13 C 0.1828(4) 0.28679(18) 0.2337(2)
H8 H 0.124065 0.257044 0.233612
C14 C 0.2606(4) 0.29346(18) 0.18739(19)
H9 H 0.256428 0.268421 0.154809
C15 C 0.3449(4) 0.33711(16) 0.18891(17)
H10 H 0.398294 0.341447 0.156685
C16 C 0.1536(4) 0.47127(14) 0.45854(17)
C17 C 0.0398(4) 0.74179(15) 0.52126(19)
H11 H 0.089708 0.764635 0.553435
H12 H 0.106185 0.727301 0.496050
C20 C 0.0898(3) 0.85734(14) 0.48567(16)
H15 H 0.033529 0.755595 0.408251
O11 O 0.9102(3) 0.61605(12) 0.04203(12)
O13 O 0.8122(3) 0.50811(11) 0.00449(13)
O14 O 0.9516(3) 0.44485(11) 0.04305(14)
O17 O 0.8217(2) 0.83103(9) 0.03708(11)
O18 O 0.8905(3) 0.90588(10) 0.00018(13)
N5 N 0.3885(3) 0.49539(12) 0.19925(15)
N6 N 0.5926(3) 0.43895(12) 0.17539(13)
N7 N 0.6453(3) 0.37337(12) 0.26665(13)
C23 C 0.2793(4) 0.52119(17) 0.2118(2)
H17 H 0.242913 0.512123 0.248123
C24 C 0.2160(5) 0.56065(19) 0.1743(2)
H18 H 0.136633 0.577305 0.184511
C25 C 0.2684(4) 0.57570(17) 0.1221(2)
H19 H 0.227179 0.603029 0.096064
C26 C 0.3833(4) 0.54961(15) 0.1088(2)
H20 H 0.422501 0.559050 0.073282
C27 C 0.4403(4) 0.50992(14) 0.14726(18)
C28 C 0.5603(4) 0.47872(14) 0.13586(17)
C29 C 0.6388(4) 0.48949(14) 0.08985(17)
H21 H 0.615683 0.517446 0.061227
C30 C 0.7523(4) 0.45805(14) 0.08704(16)
C31 C 0.7848(4) 0.41644(14) 0.12810(17)
H22 H 0.861810 0.394682 0.125916
C32 C 0.7009(4) 0.40787(14) 0.17228(16)
C33 C 0.7216(4) 0.36663(14) 0.22076(16)
C34 C 0.8088(4) 0.32407(16) 0.21920(18)
H23 H 0.861847 0.320405 0.186720
C35 C 0.8172(4) 0.28679(18) 0.2663(2)
H24 H 0.875935 0.257044 0.266388
C36 C 0.7394(4) 0.29346(18) 0.31261(19)
H25 H 0.743572 0.268421 0.345191
C37 C 0.6551(4) 0.33711(16) 0.31109(17)
H26 H 0.601706 0.341447 0.343315
C38 C 0.8464(4) 0.47127(14) 0.04146(17)
H28 H 0.893815 0.727301 0.003950
C42 C 0.9102(3) 0.85734(14) 0.01433(16)
H31 H 0.966471 0.755595 0.091749
U5 U 0.33894(2) 0.90662(2) 0.46833(2)
U6 U 0.66106(2) 0.90662(2) 0.03167(2)
O24 O 0.3217(2) 0.66897(9) 0.53708(11)
O26 O 0.3905(3) 0.59412(10) 0.50018(13)
U2 U 0.83894(2) 0.59338(2) 0.96833(2)
O12 O 0.7672(3) 0.57219(10) 0.89428(12)
O15 O 0.9421(2) 0.66123(9) 0.92267(11)
C39 C 0.9602(4) 0.74179(15) 0.97874(19)
H27 H 0.910292 0.764635 0.946565
O25 O 0.6783(2) 0.66897(9) 0.96292(11)
O27 O 0.6095(3) 0.59412(10) 0.99982(13)
Ni2 Ni 0.750000 0.750000 0.500000
O6 O 0.8536(3) 0.69440(11) 0.55385(14)
O9 O 0.7597(3) 0.70348(11) 0.42472(14)
O10 O 0.8596(4) 0.69910(13) 0.34053(15)
N4 N 0.9406(3) 0.77503(11) 0.48161(15)
C18 C 0.9763(4) 0.69589(14) 0.55201(16)
C19 C 0.9574(3) 0.83222(14) 0.49647(19)
H13 H 0.947023 0.837120 0.540265
H14 H 0.882944 0.851925 0.471828
C21 C 0.9401(4) 0.76394(16) 0.41552(18)
H16 H 0.911020 0.796406 0.391800
C22 C 0.8471(4) 0.71775(16) 0.39153(19)
U3 U 0.83894(2) 0.40662(2) 0.46833(2)
O21 O 0.9516(3) 0.55515(11) 0.54305(14)
O23 O 0.6464(3) 0.80560(11) 0.44615(14)
O28 O 0.7403(3) 0.79652(11) 0.57528(14)
N9 N 0.5594(3) 0.72497(11) 0.51839(15)
O23_2 O 0.3536(3) 0.80560(11) 0.05385(14)
O28_2 O 0.2597(3) 0.79652(11) 0.92472(14)
N9_2 N 0.4406(3) 0.72497(11) 0.98161(15)
C1_2 C 0.2207(4) 0.02119(17) 0.2882(2)
H1_2 H 0.257087 0.012123 0.251877
C2_2 C 0.2840(5) 0.06065(19) 0.3257(2)
H2_2 H 0.363367 0.077305 0.315489
C3_2 C 0.2316(4) 0.07570(17) 0.3779(2)
H3_2 H 0.272821 0.103029 0.403936
C4_2 C 0.1167(4) 0.04961(15) 0.3912(2)
H4_2 H 0.077499 0.059050 0.426718
C5_2 C 0.0597(4) 0.00992(14) 0.35274(18)
O11_2 O 0.4102(3) 0.11605(12) 0.04203(12)
O13_2 O 0.3122(3) 0.00811(11) 0.00449(13)
O17_2 O 0.3217(2) 0.33103(9) 0.03708(11)
O18_2 O 0.3905(3) 0.40588(10) 0.00018(13)
O19_2 O 0.7403(3) 0.20348(11) 0.07528(14)
O20_2 O 0.6404(4) 0.19910(13) 0.15947(15)
N8_2 N 0.5594(3) 0.27503(11) 0.01839(15)
H21_2 H 0.115683 0.017446 0.061227
H28_2 H 0.393815 0.227301 0.003950
C41_2 C 0.5426(3) 0.33222(14) 0.00353(19)
H30_2 H 0.617056 0.351925 0.028172
C42_2 C 0.4102(3) 0.35734(14) 0.01433(16)
C43_2 C 0.5599(4) 0.26394(16) 0.08448(18)
H31_2 H 0.466471 0.255595 0.091749
H32_2 H 0.588980 0.296406 0.108200
C44_2 C 0.6529(4) 0.21775(16) 0.10847(19)
Ni3_3 Ni 0.750000 0.250000 0.000000
U2_2 U 0.33894(2) 0.09338(2) 0.96833(2)
O12_2 O 0.2672(3) 0.07219(10) 0.89428(12)
O15_2 O 0.4421(2) 0.16123(9) 0.92267(11)
O16_2 O 0.6464(3) 0.19440(11) 0.94615(14)
C39_2 C 0.4602(4) 0.24179(15) 0.97874(19)
H27_2 H 0.410292 0.264635 0.946565
C40_2 C 0.5237(4) 0.19589(14) 0.94799(16)
H29_2 H 0.552977 0.337120 0.959735
Ni3_4 Ni 0.750000 0.250000 1.000000
O22_2 O 0.5484(3) 0.05515(11) 0.95695(14)
O25_2 O 0.1783(2) 0.16897(9) 0.96292(11)
O27_2 O 0.1095(3) 0.09412(10) 0.99982(13)
Ni1_2 Ni 0.000000 0.93495(3) 0.250000
N1_2 N 0.1115(3) 0.99539(12) 0.30075(15)
O14_2 O 0.4516(3) 0.94485(11) 0.04305(14)
N6_2 N 0.0926(3) 0.93895(12) 0.17539(13)
N7_2 N 0.1453(3) 0.87337(12) 0.26665(13)
C28_2 C 0.0603(4) 0.97872(14) 0.13586(17)
C29_2 C 0.1388(4) 0.98949(14) 0.08985(17)
C30_2 C 0.2523(4) 0.95805(14) 0.08704(16)
C31_2 C 0.2848(4) 0.91644(14) 0.12810(17)
H22_2 H 0.361810 0.894682 0.125916
C32_2 C 0.2009(4) 0.90787(14) 0.17228(16)
C33_2 C 0.2216(4) 0.86663(14) 0.22076(16)
C34_2 C 0.3088(4) 0.82407(16) 0.21920(18)
H23_2 H 0.361847 0.820405 0.186720
C35_2 C 0.3172(4) 0.78679(18) 0.2663(2)
H24_2 H 0.375935 0.757044 0.266388
C36_2 C 0.2394(4) 0.79346(18) 0.31261(19)
H25_2 H 0.243572 0.768421 0.345191
C37_2 C 0.1551(4) 0.83711(16) 0.31109(17)
H26_2 H 0.101706 0.841447 0.343315
C38_2 C 0.3464(4) 0.97127(14) 0.04146(17)
U1_2 U 0.66106(2) 0.09338(2) 0.53167(2)
Ni2_2 Ni 0.250000 0.250000 0.500000
O1_2 O 0.5898(3) 0.11605(12) 0.45797(12)
O2_2 O 0.7328(3) 0.07219(10) 0.60572(12)
O3_2 O 0.6878(3) 0.00811(11) 0.49551(13)
O5_2 O 0.5579(2) 0.16123(9) 0.57733(11)
O6_2 O 0.3536(3) 0.19440(11) 0.55385(14)
O7_2 O 0.6783(2) 0.33103(9) 0.46292(11)
O8_2 O 0.6095(3) 0.40588(10) 0.49982(13)
O9_2 O 0.2597(3) 0.20348(11) 0.42472(14)
O10_2 O 0.3596(4) 0.19910(13) 0.34053(15)
N4_2 N 0.4406(3) 0.27503(11) 0.48161(15)
H5_2 H 0.884317 0.017446 0.438773
C17_2 C 0.5398(4) 0.24179(15) 0.52126(19)
H11_2 H 0.589708 0.264635 0.553435
H12_2 H 0.606185 0.227301 0.496050
C18_2 C 0.4763(4) 0.19589(14) 0.55201(16)
C19_2 C 0.4574(3) 0.33222(14) 0.49647(19)
H13_2 H 0.447023 0.337120 0.540265
H14_2 H 0.382944 0.351925 0.471828
C20_2 C 0.5898(3) 0.35734(14) 0.48567(16)
C21_2 C 0.4401(4) 0.26394(16) 0.41552(18)
H15_2 H 0.533529 0.255595 0.408251
H16_2 H 0.411020 0.296406 0.391800
C22_2 C 0.3471(4) 0.21775(16) 0.39153(19)
C23_2 C 0.7793(4) 0.02119(17) 0.2118(2)
H17_2 H 0.742913 0.012123 0.248123
C24_2 C 0.7160(5) 0.06065(19) 0.1743(2)
H18_2 H 0.636633 0.077305 0.184511
C25_2 C 0.7684(4) 0.07570(17) 0.1221(2)
H19_2 H 0.727179 0.103029 0.096064
C26_2 C 0.8833(4) 0.04961(15) 0.1088(2)
H20_2 H 0.922501 0.059050 0.073282
C27_2 C 0.9403(4) 0.00992(14) 0.14726(18)
O21_2 O 0.4516(3) 0.05515(11) 0.54305(14)
O23_3 O 0.1464(3) 0.30560(11) 0.44615(14)
O24_2 O 0.8217(2) 0.16897(9) 0.53708(11)
O26_2 O 0.8905(3) 0.09412(10) 0.50018(13)
O28_3 O 0.2403(3) 0.29652(11) 0.57528(14)
N9_3 N 0.0594(3) 0.22497(11) 0.51839(15)
Ni1_3 Ni 1.000000 0.93495(3) 0.250000
O4_2 O 0.5484(3) 0.94485(11) 0.45695(14)
N2_2 N 0.9074(3) 0.93895(12) 0.32461(13)
N3_2 N 0.8547(3) 0.87337(12) 0.23335(13)
C6_2 C 0.9397(4) 0.97872(14) 0.36414(17)
C7_2 C 0.8612(4) 0.98949(14) 0.41015(17)
C8_2 C 0.7477(4) 0.95805(14) 0.41296(16)
C9_2 C 0.7152(4) 0.91644(14) 0.37190(17)
H6_2 H 0.638190 0.894682 0.374084
C10_2 C 0.7991(4) 0.90787(14) 0.32772(16)
C11_2 C 0.7784(4) 0.86663(14) 0.27924(16)
C12_2 C 0.6912(4) 0.82407(16) 0.28080(18)
H7_2 H 0.638153 0.820405 0.313280
C13_2 C 0.6828(4) 0.78679(18) 0.2337(2)
H8_2 H 0.624065 0.757044 0.233612
C14_2 C 0.7606(4) 0.79346(18) 0.18739(19)
H9_2 H 0.756428 0.768421 0.154809
C15_2 C 0.8449(4) 0.83711(16) 0.18891(17)
H10_2 H 0.898294 0.841447 0.156685
C16_2 C 0.6536(4) 0.97127(14) 0.45854(17)
N5_2 N 0.8885(3) 0.99539(12) 0.19925(15)
O23_4 O 0.8536(3) 0.30560(11) 0.05385(14)
O28_4 O 0.7597(3) 0.29652(11) 0.92472(14)
N9_4 N 0.9406(3) 0.22497(11) 0.98161(15)
O10_3 O 0.1404(4) 0.30090(13) 0.65947(15)
C18_3 C 0.0237(4) 0.30411(14) 0.44799(16)
C19_3 C 0.0426(3) 0.16778(14) 0.50353(19)
H13_3 H 0.052977 0.162880 0.459735
H14_3 H 0.117056 0.148075 0.528172
C21_3 C 0.0599(4) 0.23606(16) 0.58448(18)
H16_3 H 0.088980 0.203594 0.608200
C22_3 C 0.1529(4) 0.28225(16) 0.60847(19)
O12_3 O 0.2328(3) 0.42781(10) 0.10572(12)
O15_3 O 0.0579(2) 0.33877(9) 0.07733(11)
C39_3 C 0.0398(4) 0.25821(15) 0.02126(19)
H27_3 H 0.089708 0.235365 0.053435
Ni1_4 Ni 0.500000 0.56505(3) 0.750000
O1_3 O 0.9102(3) 0.38395(12) 0.54203(12)
O2_3 O 0.7672(3) 0.42781(10) 0.39428(12)
O3_3 O 0.8122(3) 0.49189(11) 0.50449(13)
O5_3 O 0.9421(2) 0.33877(9) 0.42267(11)
N1_3 N 0.3885(3) 0.50461(12) 0.69925(15)
N2_3 N 0.5926(3) 0.56105(12) 0.67539(13)
N3_3 N 0.6453(3) 0.62663(12) 0.76665(13)
C1_3 C 0.2793(4) 0.47881(17) 0.7118(2)
H1_3 H 0.242913 0.487877 0.748123
C2_3 C 0.2160(5) 0.43935(19) 0.6743(2)
H2_3 H 0.136633 0.422695 0.684511
C3_3 C 0.2684(4) 0.42430(17) 0.6221(2)
H3_3 H 0.227179 0.396971 0.596064
C4_3 C 0.3833(4) 0.45039(15) 0.6088(2)
H4_3 H 0.422501 0.440950 0.573282
C5_3 C 0.4403(4) 0.49008(14) 0.64726(18)
C6_3 C 0.5603(4) 0.52128(14) 0.63586(17)
C7_3 C 0.6388(4) 0.51051(14) 0.58985(17)
H5_3 H 0.615683 0.482554 0.561227
C8_3 C 0.7523(4) 0.54195(14) 0.58704(16)
C9_3 C 0.7848(4) 0.58356(14) 0.62810(17)
H6_3 H 0.861810 0.605318 0.625916
C10_3 C 0.7009(4) 0.59213(14) 0.67228(16)
C11_3 C 0.7216(4) 0.63337(14) 0.72076(16)
C12_3 C 0.8088(4) 0.67593(16) 0.71920(18)
H7_3 H 0.861847 0.679595 0.686720
C13_3 C 0.8172(4) 0.71321(18) 0.7663(2)
H8_3 H 0.875935 0.742956 0.766388
C14_3 C 0.7394(4) 0.70654(18) 0.81261(19)
H9_3 H 0.743572 0.731579 0.845191
C15_3 C 0.6551(4) 0.66289(16) 0.81109(17)
H10_3 H 0.601706 0.658553 0.843315
C16_3 C 0.8464(4) 0.52873(14) 0.54146(17)
C17_3 C 0.9602(4) 0.25821(15) 0.47874(19)
H11_3 H 0.910292 0.235365 0.446565
H12_3 H 0.893815 0.272699 0.503950
C20_3 C 0.9102(3) 0.14266(14) 0.51433(16)
H15_3 H 0.966471 0.244405 0.591749
O11_3 O 0.0898(3) 0.38395(12) 0.95797(12)
O13_3 O 0.1878(3) 0.49189(11) 0.99551(13)
N5_3 N 0.6115(3) 0.50461(12) 0.80075(15)
N6_3 N 0.4074(3) 0.56105(12) 0.82461(13)
N7_3 N 0.3547(3) 0.62663(12) 0.73335(13)
C23_3 C 0.7207(4) 0.47881(17) 0.7882(2)
H17_3 H 0.757087 0.487877 0.751877
C24_3 C 0.7840(5) 0.43935(19) 0.8257(2)
H18_3 H 0.863367 0.422695 0.815489
C25_3 C 0.7316(4) 0.42430(17) 0.8779(2)
H19_3 H 0.772821 0.396971 0.903936
C26_3 C 0.6167(4) 0.45039(15) 0.8912(2)
H20_3 H 0.577499 0.440950 0.926718
C27_3 C 0.5597(4) 0.49008(14) 0.85274(18)
C28_3 C 0.4397(4) 0.52128(14) 0.86414(17)
C29_3 C 0.3612(4) 0.51051(14) 0.91015(17)
H21_3 H 0.384317 0.482554 0.938773
C30_3 C 0.2477(4) 0.54195(14) 0.91296(16)
C31_3 C 0.2152(4) 0.58356(14) 0.87190(17)
H22_3 H 0.138190 0.605318 0.874084
C32_3 C 0.2991(4) 0.59213(14) 0.82772(16)
C33_3 C 0.2784(4) 0.63337(14) 0.77924(16)
C34_3 C 0.1912(4) 0.67593(16) 0.78080(18)
H23_3 H 0.138153 0.679595 0.813280
C35_3 C 0.1828(4) 0.71321(18) 0.7337(2)
H24_3 H 0.124065 0.742956 0.733612
C36_3 C 0.2606(4) 0.70654(18) 0.68739(19)
H25_3 H 0.256428 0.731579 0.654809
C37_3 C 0.3449(4) 0.66289(16) 0.68891(17)
H26_3 H 0.398294 0.658553 0.656685
C38_3 C 0.1536(4) 0.52873(14) 0.95854(17)
H28_3 H 0.106185 0.272699 0.996050
C42_3 C 0.0898(3) 0.14266(14) 0.98567(16)
H31_3 H 0.033529 0.244405 0.908251
C40_3 C 0.9763(4) 0.30411(14) 0.05201(16)
H29_3 H 0.947023 0.162880 0.040265
O20_3 O 0.8596(4) 0.30090(13) 0.84053(15)
C41_3 C 0.9574(3) 0.16778(14) 0.99647(19)
H30_3 H 0.882944 0.148075 0.971828
C43_3 C 0.9401(4) 0.23606(16) 0.91552(18)
H32_3 H 0.911020 0.203594 0.891800
C44_3 C 0.8471(4) 0.28225(16) 0.89153(19)
Ni1_5 Ni -0.000000 0.06505(3) 0.750000
N2_4 N 0.0926(3) 0.06105(12) 0.67539(13)
N3_4 N 0.1453(3) 0.12663(12) 0.76665(13)
C6_4 C 0.0603(4) 0.02128(14) 0.63586(17)
C7_4 C 0.1388(4) 0.01051(14) 0.58985(17)
C8_4 C 0.2523(4) 0.04195(14) 0.58704(16)
C9_4 C 0.2848(4) 0.08356(14) 0.62810(17)
H6_4 H 0.361810 0.105318 0.625916
C10_4 C 0.2009(4) 0.09213(14) 0.67228(16)
C11_4 C 0.2216(4) 0.13337(14) 0.72076(16)
C12_4 C 0.3088(4) 0.17593(16) 0.71920(18)
H7_4 H 0.361847 0.179595 0.686720
C13_4 C 0.3172(4) 0.21321(18) 0.7663(2)
H8_4 H 0.375935 0.242956 0.766388
C14_4 C 0.2394(4) 0.20654(18) 0.81261(19)
H9_4 H 0.243572 0.231579 0.845191
C15_4 C 0.1551(4) 0.16289(16) 0.81109(17)
H10_4 H 0.101706 0.158553 0.843315
C16_4 C 0.3464(4) 0.02873(14) 0.54146(17)
N5_4 N 0.1115(3) 0.00461(12) 0.80075(15)
O1_4 O 0.4102(3) 0.88395(12) 0.54203(12)
O2_4 O 0.2672(3) 0.92781(10) 0.39428(12)
O3_4 O 0.3122(3) 0.99189(11) 0.50449(13)
O5_4 O 0.4421(2) 0.83877(9) 0.42267(11)
O10_4 O 0.6404(4) 0.80090(13) 0.65947(15)
H5_4 H 0.115683 0.982554 0.561227
C17_4 C 0.4602(4) 0.75821(15) 0.47874(19)
H11_4 H 0.410292 0.735365 0.446565
H12_4 H 0.393815 0.772699 0.503950
C18_4 C 0.5237(4) 0.80411(14) 0.44799(16)
C19_4 C 0.5426(3) 0.66778(14) 0.50353(19)
H13_4 H 0.552977 0.662880 0.459735
H14_4 H 0.617056 0.648075 0.528172
C20_4 C 0.4102(3) 0.64266(14) 0.51433(16)
C21_4 C 0.5599(4) 0.73606(16) 0.58448(18)
H15_4 H 0.466471 0.744405 0.591749
H16_4 H 0.588980 0.703594 0.608200
C22_4 C 0.6529(4) 0.78225(16) 0.60847(19)
C23_4 C 0.2207(4) 0.97881(17) 0.7882(2)
H17_4 H 0.257087 0.987877 0.751877
C24_4 C 0.2840(5) 0.93935(19) 0.8257(2)
H18_4 H 0.363367 0.922695 0.815489
C25_4 C 0.2316(4) 0.92430(17) 0.8779(2)
H19_4 H 0.272821 0.896971 0.903936
C26_4 C 0.1167(4) 0.95039(15) 0.8912(2)
H20_4 H 0.077499 0.940950 0.926718
C27_4 C 0.0597(4) 0.99008(14) 0.85274(18)
Ni1_6 Ni 1.000000 0.06505(3) 0.750000
N1_4 N 0.8885(3) 0.00461(12) 0.69925(15)
N6_4 N 0.9074(3) 0.06105(12) 0.82461(13)
N7_4 N 0.8547(3) 0.12663(12) 0.73335(13)
C28_4 C 0.9397(4) 0.02128(14) 0.86414(17)
C29_4 C 0.8612(4) 0.01051(14) 0.91015(17)
C30_4 C 0.7477(4) 0.04195(14) 0.91296(16)
C31_4 C 0.7152(4) 0.08356(14) 0.87190(17)
H22_4 H 0.638190 0.105318 0.874084
C32_4 C 0.7991(4) 0.09213(14) 0.82772(16)
C33_4 C 0.7784(4) 0.13337(14) 0.77924(16)
C34_4 C 0.6912(4) 0.17593(16) 0.78080(18)
H23_4 H 0.638153 0.179595 0.813280
C35_4 C 0.6828(4) 0.21321(18) 0.7337(2)
H24_4 H 0.624065 0.242956 0.733612
C36_4 C 0.7606(4) 0.20654(18) 0.68739(19)
H25_4 H 0.756428 0.231579 0.654809
C37_4 C 0.8449(4) 0.16289(16) 0.68891(17)
H26_4 H 0.898294 0.158553 0.656685
C38_4 C 0.6536(4) 0.02873(14) 0.95854(17)
O12_4 O 0.7328(3) 0.92781(10) 0.10572(12)
O15_4 O 0.5579(2) 0.83877(9) 0.07733(11)
C39_4 C 0.5398(4) 0.75821(15) 0.02126(19)
H27_4 H 0.589708 0.735365 0.053435
C40_4 C 0.4763(4) 0.80411(14) 0.05201(16)
H29_4 H 0.447023 0.662880 0.040265
C1_4 C 0.7793(4) 0.97881(17) 0.7118(2)
H1_4 H 0.742913 0.987877 0.748123
C2_4 C 0.7160(5) 0.93935(19) 0.6743(2)
H2_4 H 0.636633 0.922695 0.684511
C3_4 C 0.7684(4) 0.92430(17) 0.6221(2)
H3_4 H 0.727179 0.896971 0.596064
C4_4 C 0.8833(4) 0.95039(15) 0.6088(2)
H4_4 H 0.922501 0.940950 0.573282
C5_4 C 0.9403(4) 0.99008(14) 0.64726(18)
O11_4 O 0.5898(3) 0.88395(12) 0.95797(12)
O13_4 O 0.6878(3) 0.99189(11) 0.99551(13)
O20_4 O 0.3596(4) 0.80090(13) 0.84053(15)
H21_4 H 0.884317 0.982554 0.938773
H28_4 H 0.606185 0.772699 0.996050
C41_4 C 0.4574(3) 0.66778(14) 0.99647(19)
H30_4 H 0.382944 0.648075 0.971828
C42_4 C 0.5898(3) 0.64266(14) 0.98567(16)
C43_4 C 0.4401(4) 0.73606(16) 0.91552(18)
H31_4 H 0.533529 0.744405 0.908251
H32_4 H 0.411020 0.703594 0.891800
C44_4 C 0.3471(4) 0.78225(16) 0.89153(19)
loop_
_geom_bond_atom_site_label_1
_geom_bond_atom_site_label_2
_geom_bond_site_symmetry_1
_geom_bond_site_symmetry_2
O19 C44 1_555 1_555
O20 C44 1_555 1_555
C41 N8 1_555 1_555
H30 C41 1_555 1_555
C43 N8 1_555 1_555
H32 C43 1_555 1_555
C44 C43 1_555 1_555
O19 Ni3 1_555 1_555
N8 Ni3 1_555 1_555
O16 C40 1_555 1_555
Ni3_2 O16 1_555 1_555
U1 O1 1_555 1_555
Ni1 N1 1_555 1_555
O2 U1 1_555 1_555
O3 U1 1_555 1_555
O4 C16 1_555 1_555
O5 U1 1_555 1_555
O7 C20 1_555 1_555
O8 C20 1_555 1_555
N1 C1 1_555 1_555
N2 Ni1 1_555 1_555
N3 Ni1 1_555 1_555
C1 H1 1_555 1_555
C2 C1 1_555 1_555
H2 C2 1_555 1_555
C3 C2 1_555 1_555
H3 C3 1_555 1_555
C4 C3 1_555 1_555
H4 C4 1_555 1_555
C5 N1 1_555 1_555
C6 N2 1_555 1_555
C7 C6 1_555 1_555
H5 C7 1_555 1_555
C8 C7 1_555 1_555
C9 C8 1_555 1_555
H6 C9 1_555 1_555
C10 N2 1_555 1_555
C11 N3 1_555 1_555
C12 C11 1_555 1_555
H7 C12 1_555 1_555
C13 C12 1_555 1_555
H8 C13 1_555 1_555
C14 C13 1_555 1_555
H9 C14 1_555 1_555
C15 N3 1_555 1_555
H10 C15 1_555 1_555
C16 O3 1_555 1_555
H11 C17 1_555 1_555
H12 C17 1_555 1_555
O14 C38 1_555 1_555
O17 C42 1_555 1_555
O18 C42 1_555 1_555
N5 Ni1 1_555 1_555
N6 Ni1 1_555 1_555
N7 Ni1 1_555 1_555
C23 N5 1_555 1_555
H17 C23 1_555 1_555
C24 C23 1_555 1_555
H18 C24 1_555 1_555
C25 C24 1_555 1_555
H19 C25 1_555 1_555
C26 C25 1_555 1_555
H20 C26 1_555 1_555
C27 N5 1_555 1_555
C28 N6 1_555 1_555
C29 C28 1_555 1_555
H21 C29 1_555 1_555
C30 C29 1_555 1_555
C31 C30 1_555 1_555
H22 C31 1_555 1_555
C32 N6 1_555 1_555
C33 N7 1_555 1_555
C34 C33 1_555 1_555
H23 C34 1_555 1_555
C35 C34 1_555 1_555
H24 C35 1_555 1_555
C36 C35 1_555 1_555
H25 C36 1_555 1_555
C37 N7 1_555 1_555
H26 C37 1_555 1_555
C38 O13 1_555 1_555
U5 O7 1_555 1_555
U6 O17 1_555 1_555
O24 U1 1_555 1_555
O26 U1 1_555 1_555
O8 U5 1_555 1_555
C4 C5 1_555 1_555
C5 C6 1_555 1_555
C8 C16 1_555 1_555
C9 C10 1_555 1_555
C10 C11 1_555 1_555
C14 C15 1_555 1_555
O18 U6 1_555 1_555
C26 C27 1_555 1_555
C27 C28 1_555 1_555
C30 C38 1_555 1_555
C31 C32 1_555 1_555
C32 C33 1_555 1_555
C36 C37 1_555 1_555
O12 U2 1_555 1_555
O15 U2 1_555 1_555
C39 H27 1_555 1_555
O25 U2 1_555 1_555
O27 U2 1_555 1_555
Ni2 O6 1_555 1_555
O6 C18 1_555 1_555
O9 Ni2 1_555 1_555
O10 C22 1_555 1_555
N4 Ni2 1_555 1_555
C19 N4 1_555 1_555
H13 C19 1_555 1_555
H14 C19 1_555 1_555
C21 N4 1_555 1_555
H16 C21 1_555 1_555
C22 O9 1_555 1_555
O23 Ni2 1_555 1_555
O28 Ni2 1_555 1_555
N9 Ni2 1_555 1_555
C21 C22 1_555 1_555
O23_2 Ni3 1_555 1_555
O28_2 Ni3_2 1_555 1_555
N9_2 Ni3_2 1_555 1_555
C1_2 H1_2 1_555 1_555
C2_2 C1_2 1_555 1_555
H2_2 C2_2 1_555 1_555
C3_2 C2_2 1_555 1_555
H3_2 C3_2 1_555 1_555
C4_2 C3_2 1_555 1_555
H4_2 C4_2 1_555 1_555
O17_2 C42_2 1_555 1_555
O18_2 C42_2 1_555 1_555
O19_2 C44_2 1_555 1_555
O20_2 C44_2 1_555 1_555
C41_2 N8_2 1_555 1_555
H30_2 C41_2 1_555 1_555
C42_2 C41_2 1_555 1_555
C43_2 N8_2 1_555 1_555
H31_2 C43_2 1_555 1_555
H32_2 C43_2 1_555 1_555
C44_2 C43_2 1_555 1_555
U4 O17_2 1_555 1_555
C4_2 C5_2 1_555 1_555
O18_2 U4 1_555 1_555
O19_2 Ni3_3 1_555 1_555
N8_2 Ni3_3 1_555 1_555
O12_2 U2_2 1_555 1_555
O15_2 U2_2 1_555 1_555
O16_2 C40_2 1_555 1_555
C39_2 H27_2 1_555 1_555
C40_2 O15_2 1_555 1_555
Ni3_4 O16_2 1_555 1_555
O22_2 U2_2 1_555 1_555
O25_2 U2_2 1_555 1_555
O27_2 U2_2 1_555 1_555
C39_2 C40_2 1_555 1_555
Ni1_2 N1_2 1_555 1_555
O14_2 C38_2 1_555 1_555
N6_2 Ni1_2 1_555 1_555
N7_2 Ni1_2 1_555 1_555
C28_2 N6_2 1_555 1_555
C29_2 C28_2 1_555 1_555
C30_2 C29_2 1_555 1_555
C31_2 C30_2 1_555 1_555
H22_2 C31_2 1_555 1_555
C32_2 N6_2 1_555 1_555
C33_2 N7_2 1_555 1_555
C34_2 C33_2 1_555 1_555
H23_2 C34_2 1_555 1_555
C35_2 C34_2 1_555 1_555
H24_2 C35_2 1_555 1_555
C36_2 C35_2 1_555 1_555
H25_2 C36_2 1_555 1_555
C37_2 N7_2 1_555 1_555
H26_2 C37_2 1_555 1_555
U6 O14_2 1_555 1_555
C30_2 C38_2 1_555 1_555
C31_2 C32_2 1_555 1_555
C32_2 C33_2 1_555 1_555
C36_2 C37_2 1_555 1_555
U1_2 O1_2 1_555 1_555
Ni2_2 O6_2 1_555 1_555
O2_2 U1_2 1_555 1_555
O3_2 U1_2 1_555 1_555
O5_2 U1_2 1_555 1_555
O6_2 C18_2 1_555 1_555
O7_2 C20_2 1_555 1_555
O8_2 C20_2 1_555 1_555
O9_2 Ni2_2 1_555 1_555
O10_2 C22_2 1_555 1_555
N4_2 Ni2_2 1_555 1_555
C17_2 N4_2 1_555 1_555
H11_2 C17_2 1_555 1_555
H12_2 C17_2 1_555 1_555
C18_2 O5_2 1_555 1_555
C19_2 N4_2 1_555 1_555
H13_2 C19_2 1_555 1_555
H14_2 C19_2 1_555 1_555
C20_2 C19_2 1_555 1_555
C21_2 N4_2 1_555 1_555
H15_2 C21_2 1_555 1_555
H16_2 C21_2 1_555 1_555
C22_2 O9_2 1_555 1_555
H17_2 C23_2 1_555 1_555
C24_2 C23_2 1_555 1_555
H18_2 C24_2 1_555 1_555
C25_2 C24_2 1_555 1_555
H19_2 C25_2 1_555 1_555
C26_2 C25_2 1_555 1_555
H20_2 C26_2 1_555 1_555
U3 O7_2 1_555 1_555
O21_2 U1_2 1_555 1_555
O23_3 Ni2_2 1_555 1_555
O24_2 U1_2 1_555 1_555
O26_2 U1_2 1_555 1_555
O28_3 Ni2_2 1_555 1_555
N9_3 Ni2_2 1_555 1_555
O8_2 U3 1_555 1_555
C17_2 C18_2 1_555 1_555
C21_2 C22_2 1_555 1_555
C26_2 C27_2 1_555 1_555
O4_2 C16_2 1_555 1_555
N2_2 Ni1_3 1_555 1_555
N3_2 Ni1_3 1_555 1_555
C6_2 N2_2 1_555 1_555
C7_2 C6_2 1_555 1_555
C8_2 C7_2 1_555 1_555
C9_2 C8_2 1_555 1_555
H6_2 C9_2 1_555 1_555
C10_2 N2_2 1_555 1_555
C11_2 N3_2 1_555 1_555
C12_2 C11_2 1_555 1_555
H7_2 C12_2 1_555 1_555
C13_2 C12_2 1_555 1_555
H8_2 C13_2 1_555 1_555
C14_2 C13_2 1_555 1_555
H9_2 C14_2 1_555 1_555
C15_2 N3_2 1_555 1_555
H10_2 C15_2 1_555 1_555
N5_2 Ni1_3 1_555 1_555
U5 O4_2 1_555 1_555
C8_2 C16_2 1_555 1_555
C9_2 C10_2 1_555 1_555
C10_2 C11_2 1_555 1_555
C14_2 C15_2 1_555 1_555
O23_4 Ni3_3 1_555 1_555
O28_4 Ni3_4 1_555 1_555
N9_4 Ni3_4 1_555 1_555
O23_3 C18_3 1_555 1_555
O10_3 C22_3 1_555 1_555
C19_3 N9_3 1_555 1_555
H13_3 C19_3 1_555 1_555
H14_3 C19_3 1_555 1_555
C21_3 N9_3 1_555 1_555
H16_3 C21_3 1_555 1_555
C22_3 O28_3 1_555 1_555
C21_3 C22_3 1_555 1_555
O12_3 U4 1_555 1_555
O15_3 U4 1_555 1_555
C39_3 H27_3 1_555 1_555
U3 O1_3 1_555 1_555
Ni1_4 N1_3 1_555 1_555
O2_3 U3 1_555 1_555
O3_3 U3 1_555 1_555
O21 C16_3 1_555 1_555
O5_3 U3 1_555 1_555
O24_2 C20_3 1_555 1_555
O26_2 C20_3 1_555 1_555
N1_3 C1_3 1_555 1_555
N2_3 Ni1_4 1_555 1_555
N3_3 Ni1_4 1_555 1_555
C1_3 H1_3 1_555 1_555
C2_3 C1_3 1_555 1_555
H2_3 C2_3 1_555 1_555
C3_3 C2_3 1_555 1_555
H3_3 C3_3 1_555 1_555
C4_3 C3_3 1_555 1_555
H4_3 C4_3 1_555 1_555
C5_3 N1_3 1_555 1_555
C6_3 N2_3 1_555 1_555
C7_3 C6_3 1_555 1_555
H5_3 C7_3 1_555 1_555
C8_3 C7_3 1_555 1_555
C9_3 C8_3 1_555 1_555
H6_3 C9_3 1_555 1_555
C10_3 N2_3 1_555 1_555
C11_3 N3_3 1_555 1_555
C12_3 C11_3 1_555 1_555
H7_3 C12_3 1_555 1_555
C13_3 C12_3 1_555 1_555
H8_3 C13_3 1_555 1_555
C14_3 C13_3 1_555 1_555
H9_3 C14_3 1_555 1_555
C15_3 N3_3 1_555 1_555
H10_3 C15_3 1_555 1_555
C16_3 O3_3 1_555 1_555
H11_3 C17_3 1_555 1_555
H12_3 C17_3 1_555 1_555
O22 C38_3 1_555 1_555
O25_2 C42_3 1_555 1_555
O27_2 C42_3 1_555 1_555
N5_3 Ni1_4 1_555 1_555
N6_3 Ni1_4 1_555 1_555
N7_3 Ni1_4 1_555 1_555
C23_3 N5_3 1_555 1_555
H17_3 C23_3 1_555 1_555
C24_3 C23_3 1_555 1_555
H18_3 C24_3 1_555 1_555
C25_3 C24_3 1_555 1_555
H19_3 C25_3 1_555 1_555
C26_3 C25_3 1_555 1_555
H20_3 C26_3 1_555 1_555
C27_3 N5_3 1_555 1_555
C28_3 N6_3 1_555 1_555
C29_3 C28_3 1_555 1_555
H21_3 C29_3 1_555 1_555
C30_3 C29_3 1_555 1_555
C31_3 C30_3 1_555 1_555
H22_3 C31_3 1_555 1_555
C32_3 N6_3 1_555 1_555
C33_3 N7_3 1_555 1_555
C34_3 C33_3 1_555 1_555
H23_3 C34_3 1_555 1_555
C35_3 C34_3 1_555 1_555
H24_3 C35_3 1_555 1_555
C36_3 C35_3 1_555 1_555
H25_3 C36_3 1_555 1_555
C37_3 N7_3 1_555 1_555
H26_3 C37_3 1_555 1_555
C38_3 O13_3 1_555 1_555
C4_3 C5_3 1_555 1_555
C5_3 C6_3 1_555 1_555
C8_3 C16_3 1_555 1_555
C9_3 C10_3 1_555 1_555
C10_3 C11_3 1_555 1_555
C14_3 C15_3 1_555 1_555
C26_3 C27_3 1_555 1_555
C27_3 C28_3 1_555 1_555
C30_3 C38_3 1_555 1_555
C31_3 C32_3 1_555 1_555
C32_3 C33_3 1_555 1_555
C36_3 C37_3 1_555 1_555
O23_4 C40_3 1_555 1_555
O28_4 C44_3 1_555 1_555
O20_3 C44_3 1_555 1_555
C41_3 N9_4 1_555 1_555
H30_3 C41_3 1_555 1_555
C43_3 N9_4 1_555 1_555
H32_3 C43_3 1_555 1_555
C44_3 C43_3 1_555 1_555
O21_2 C16_4 1_555 1_555
N2_4 Ni1_5 1_555 1_555
N3_4 Ni1_5 1_555 1_555
C6_4 N2_4 1_555 1_555
C7_4 C6_4 1_555 1_555
C8_4 C7_4 1_555 1_555
C9_4 C8_4 1_555 1_555
H6_4 C9_4 1_555 1_555
C10_4 N2_4 1_555 1_555
C11_4 N3_4 1_555 1_555
C12_4 C11_4 1_555 1_555
H7_4 C12_4 1_555 1_555
C13_4 C12_4 1_555 1_555
H8_4 C13_4 1_555 1_555
C14_4 C13_4 1_555 1_555
H9_4 C14_4 1_555 1_555
C15_4 N3_4 1_555 1_555
H10_4 C15_4 1_555 1_555
N5_4 Ni1_5 1_555 1_555
C8_4 C16_4 1_555 1_555
C9_4 C10_4 1_555 1_555
C10_4 C11_4 1_555 1_555
C14_4 C15_4 1_555 1_555
U5 O1_4 1_555 1_555
O2_4 U5 1_555 1_555
O3_4 U5 1_555 1_555
O5_4 U5 1_555 1_555
O23 C18_4 1_555 1_555
O24 C20_4 1_555 1_555
O26 C20_4 1_555 1_555
O10_4 C22_4 1_555 1_555
C17_4 N9 1_555 1_555
H11_4 C17_4 1_555 1_555
H12_4 C17_4 1_555 1_555
C18_4 O5_4 1_555 1_555
C19_4 N9 1_555 1_555
H13_4 C19_4 1_555 1_555
H14_4 C19_4 1_555 1_555
C20_4 C19_4 1_555 1_555
C21_4 N9 1_555 1_555
H15_4 C21_4 1_555 1_555
H16_4 C21_4 1_555 1_555
C22_4 O28 1_555 1_555
H17_4 C23_4 1_555 1_555
C24_4 C23_4 1_555 1_555
H18_4 C24_4 1_555 1_555
C25_4 C24_4 1_555 1_555
H19_4 C25_4 1_555 1_555
C26_4 C25_4 1_555 1_555
H20_4 C26_4 1_555 1_555
C17_4 C18_4 1_555 1_555
C21_4 C22_4 1_555 1_555
C26_4 C27_4 1_555 1_555
Ni1_6 N1_4 1_555 1_555
O22_2 C38_4 1_555 1_555
N6_4 Ni1_6 1_555 1_555
N7_4 Ni1_6 1_555 1_555
C28_4 N6_4 1_555 1_555
C29_4 C28_4 1_555 1_555
C30_4 C29_4 1_555 1_555
C31_4 C30_4 1_555 1_555
H22_4 C31_4 1_555 1_555
C32_4 N6_4 1_555 1_555
C33_4 N7_4 1_555 1_555
C34_4 C33_4 1_555 1_555
H23_4 C34_4 1_555 1_555
C35_4 C34_4 1_555 1_555
H24_4 C35_4 1_555 1_555
C36_4 C35_4 1_555 1_555
H25_4 C36_4 1_555 1_555
C37_4 N7_4 1_555 1_555
H26_4 C37_4 1_555 1_555
C30_4 C38_4 1_555 1_555
C31_4 C32_4 1_555 1_555
C32_4 C33_4 1_555 1_555
C36_4 C37_4 1_555 1_555
O12_4 U6 1_555 1_555
O15_4 U6 1_555 1_555
O23_2 C40_4 1_555 1_555
C39_4 H27_4 1_555 1_555
C40_4 O15_4 1_555 1_555
C39_4 C40_4 1_555 1_555
C1_4 H1_4 1_555 1_555
C2_4 C1_4 1_555 1_555
H2_4 C2_4 1_555 1_555
C3_4 C2_4 1_555 1_555
H3_4 C3_4 1_555 1_555
C4_4 C3_4 1_555 1_555
H4_4 C4_4 1_555 1_555
O25 C42_4 1_555 1_555
O27 C42_4 1_555 1_555
O28_2 C44_4 1_555 1_555
O20_4 C44_4 1_555 1_555
C41_4 N9_2 1_555 1_555
H30_4 C41_4 1_555 1_555
C42_4 C41_4 1_555 1_555
C43_4 N9_2 1_555 1_555
H31_4 C43_4 1_555 1_555
H32_4 C43_4 1_555 1_555
C44_4 C43_4 1_555 1_555
C4_4 C5_4 1_555 1_555

#END
