
###############################################################################
#
# This file contains modified crystal structure data generated from the
# MOF subset of the Cambridge Structural Database (CSD) v543 
# hosted by the Cambridge Crystallographic Data Centre (CCDC).
#
# This work is licensed under the Creative Commons
# Attribution-NonCommercial-ShareAlike 4.0 International License.
# To view a copy of this license, visit
# http://creativecommons.org/licenses/by-nc-sa/4.0/
# or send a letter to
# Creative Commons, PO Box 1866, Mountain View, CA 94042, USA.
#
# CIF created using the CSD Python API on 29 September 2022
# The structure has been converted into the P1 space group
# The structure has a 3D framework
# The original CSD entry YEJDEA is in the orthorhombic crystal system
# The original CSD entry YEJDEA is in a Sohncke space group
# The framework has been calculated to contain at least 10.0% void space
# The void calculation uses a probe of radius 1.32A, grid spacing 0.4
# H atom positions have been added when not included in the experimental data
#
###############################################################################

data_YEJDEA
_chemical_formula_moiety         '(C136 H136 Cd8 N24 O38)n'
_symmetry_cell_setting           triclinic
_symmetry_space_group_name_H-M   'P 1'
_symmetry_Int_Tables_number      1
_space_group_name_Hall           'P 1'
loop_
_symmetry_equiv_pos_site_id
_symmetry_equiv_pos_as_xyz
1 x,y,z
_cell_length_a                   13.3653(2)
_cell_length_b                   14.7692(2)
_cell_length_c                   20.6731(3)
_cell_angle_alpha                90
_cell_angle_beta                 90
_cell_angle_gamma                90
_cell_volume                     4080.76
loop_
_atom_site_label
_atom_site_type_symbol
_atom_site_fract_x
_atom_site_fract_y
_atom_site_fract_z
Cd1 Cd 0.08464(2) 0.50929(2) 0.41776(2)
O10 O 0.0851(3) 0.3565(2) 0.40649(17)
N4 N 0.0546(3) 0.6630(2) 0.4171(2)
N6 N 0.1108(4) 0.2145(3) 0.4418(3)
C23 C 0.0409(4) 0.9498(3) 0.3772(2)
H13 H 0.020747 0.983474 0.416547
H14 H 0.110306 0.967858 0.366692
C24 C 0.0402(4) 0.8490(3) 0.3929(3)
C25 C 0.1060(4) 0.8130(3) 0.4396(3)
H15 H 0.145709 0.852331 0.465349
C26 C 0.1124(3) 0.7209(3) 0.4477(3)
H16 H 0.161082 0.697908 0.476927
C32 C 0.0889(5) 0.3019(3) 0.4502(3)
H26 H 0.075456 0.322413 0.492896
C33 C 0.1299(5) 0.1783(4) 0.3806(3)
H27 H 0.066969 0.157851 0.361137
H28 H 0.175765 0.126864 0.384698
H29 H 0.160310 0.224776 0.353080
C34 C 0.1128(7) 0.1522(4) 0.4984(4)
H30 H 0.122513 0.187452 0.538126
H31 H 0.168007 0.109077 0.493490
H32 H 0.049359 0.119231 0.500972
O15 O 0.08568(19) 0.48803(19) 0.53201(13)
O16 O 0.2293(2) 0.5253(2) 0.48811(14)
O17 O 0.2081(2) 0.5207(3) 0.33783(15)
O18 O 0.0533(2) 0.5092(3) 0.30200(14)
H34 H 0.00850358 0.986553 0.280468
O5 O 0.58568(19) 0.01197(19) 0.46799(13)
O7 O 0.7919(2) 0.0207(3) 0.16217(15)
O8 O 0.9467(2) 0.0092(3) 0.19800(14)
O9 O 0.4044(3) 0.1521(2) 0.43445(17)
N5 N 0.3835(4) 0.2842(3) 0.3795(3)
C16 C 0.7275(3) 0.0054(3) 0.39840(18)
C17 C 0.6697(3) 0.0306(3) 0.3458(2)
H10 H 0.601123 0.045764 0.351168
C18 C 0.7138(3) 0.0332(4) 0.2850(2)
H11 H 0.674287 0.049506 0.248602
C19 C 0.8145(3) 0.0125(3) 0.2759(2)
C22 C 0.8532(3) 0.0143(3) 0.2078(2)
C29 C 0.4112(5) 0.1968(3) 0.3851(3)
H19 H 0.438042 0.167999 0.347847
C30 C 0.3510(5) 0.3328(4) 0.4320(4)
H20 H 0.333709 0.291148 0.467168
H21 H 0.291810 0.368198 0.419958
H22 H 0.404184 0.373778 0.446389
C31 C 0.4005(8) 0.3342(5) 0.3160(5)
H23 H 0.471209 0.351101 0.312378
H24 H 0.359084 0.388942 0.315004
H25 H 0.382233 0.294773 0.279755
Cd3 Cd 0.91536(2) 0.00929(2) 0.08224(2)
O11 O 0.41370(19) 0.0053(2) 0.54780(13)
O13 O 0.4460(2) 0.0075(2) 0.31825(13)
Cd2 Cd 0.41444(2) 0.99652(2) 0.43436(2)
O1 O 0.91370(19) 0.4947(2) 0.45220(13)
O2 O 0.7697(2) 0.5309(2) 0.49682(15)
O3 O 0.5540(2) 0.5075(2) 0.18175(13)
O4 O 0.7073(2) 0.4883(3) 0.14613(15)
O6 O 0.7293(2) 0.9747(2) 0.51189(14)
N1 N 0.5260(3) 0.5439(3) 0.3087(2)
N2 N 0.4465(3) 0.8428(2) 0.4227(2)
N3 N 0.9765(3) 0.9773(3) 0.3245(2)
C1 C 0.8209(3) 0.5112(3) 0.44730(19)
C2 C 0.7722(3) 0.5067(3) 0.38245(19)
C3 C 0.6724(3) 0.5274(3) 0.3750(2)
H1 H 0.634013 0.544490 0.411686
C4 C 0.6264(3) 0.5237(3) 0.3134(2)
C5 C 0.6860(3) 0.5027(3) 0.25985(18)
C6 C 0.7861(3) 0.4806(4) 0.2691(2)
H2 H 0.825516 0.463704 0.232803
C7 C 0.8297(3) 0.4827(4) 0.3295(2)
H3 H 0.898436 0.467935 0.334644
C8 C 0.6468(3) 0.4986(4) 0.19159(19)
C9 C 0.4602(4) 0.5626(3) 0.3635(2)
H4 H 0.480644 0.523690 0.400237
H5 H 0.391029 0.545561 0.351539
C10 C 0.4605(4) 0.6603(4) 0.3857(3)
C11 C 0.3951(4) 0.6892(3) 0.4355(3)
H6 H 0.356148 0.646416 0.458870
C12 C 0.3886(3) 0.7811(3) 0.4497(3)
H7 H 0.340136 0.800397 0.480381
C13 C 0.5150(4) 0.8147(3) 0.3802(3)
H8 H 0.558809 0.858172 0.361553
C14 C 0.5251(4) 0.7241(3) 0.3619(3)
H9 H 0.576733 0.706704 0.332857
C15 C 0.6788(3) 0.9967(3) 0.46301(18)
C20 C 0.8748(3) 0.9919(3) 0.3296(2)
C21 C 0.8283(3) 0.9858(3) 0.3912(2)
H12 H 0.866596 0.968101 0.427804
C27 C 0.9855(4) 0.6960(3) 0.3748(3)
H17 H 0.942664 0.654433 0.353374
C28 C 0.9748(4) 0.7876(3) 0.3616(3)
H18 H 0.924985 0.808566 0.332435
Cd4 Cd 0.58464(2) 0.99071(2) 0.58224(2)
Cd5 Cd 0.58556(2) 0.49652(2) 0.06564(2)
Cd6 Cd 0.91444(2) 0.50348(2) 0.56564(2)
O12 O 0.2697(2) 0.9691(2) 0.50318(15)
O14 O 0.2927(2) 0.9883(3) 0.35387(15)
H33 H 0.495478 0.545936 0.263766
O12_2 O 0.2303(2) 0.0309(2) 0.00318(15)
Cd2_2 Cd 0.08556(2) 0.00348(2) 0.93436(2)
N2_2 N 0.0535(3) 0.1572(2) 0.9227(2)
C9_2 C 0.0398(4) 0.4374(3) 0.8635(2)
H4_2 H 0.019356 0.476310 0.900237
H5_2 H 0.108971 0.454439 0.851539
C10_2 C 0.0395(4) 0.3397(4) 0.8857(3)
C11_2 C 0.1049(4) 0.3108(3) 0.9355(3)
H6_2 H 0.143852 0.353584 0.958870
C12_2 C 0.1114(3) 0.2189(3) 0.9497(3)
H7_2 H 0.159864 0.199603 0.980381
O14_2 O 0.2073(2) 0.0117(3) 0.85387(15)
H33_2 H 0.00452194 0.454064 0.763766
O11_2 O 0.08630(19) 0.9947(2) 0.04780(13)
O9_2 O 0.0956(3) 0.8479(2) 0.93445(17)
N5_2 N 0.1165(4) 0.7158(3) 0.8795(3)
C29_2 C 0.0888(5) 0.8032(3) 0.8851(3)
H19_2 H 0.061958 0.832001 0.847847
C30_2 C 0.1490(5) 0.6672(4) 0.9320(4)
H20_2 H 0.166291 0.708852 0.967168
H21_2 H 0.208190 0.631802 0.919958
H22_2 H 0.095816 0.626222 0.946389
C31_2 C 0.0995(8) 0.6658(5) 0.8160(5)
H23_2 H 0.028791 0.648899 0.812378
H24_2 H 0.140916 0.611058 0.815004
H25_2 H 0.117767 0.705227 0.779755
O13_2 O 0.0540(2) 0.9925(2) 0.81825(13)
O6_2 O 0.7707(2) 0.0253(2) 0.01189(14)
H30_2 H 0.377487 0.812548 0.038126
H32_2 H 0.450641 0.880769 0.000972
O15_2 O 0.41432(19) 0.51197(19) 0.03201(13)
Cd1_2 Cd 0.41536(2) 0.49071(2) 0.91776(2)
O1_2 O 0.58630(19) 0.5053(2) 0.95220(13)
O2_2 O 0.7303(2) 0.4691(2) 0.99682(15)
O3_2 O 0.9460(2) 0.4925(2) 0.68175(13)
O4_2 O 0.7927(2) 0.5117(3) 0.64613(15)
O10_2 O 0.4149(3) 0.6435(2) 0.90649(17)
N1_2 N 0.9740(3) 0.4561(3) 0.8087(2)
N3_2 N 0.5235(3) 0.0227(3) 0.8245(2)
N4_2 N 0.4454(3) 0.3370(2) 0.9171(2)
N6_2 N 0.3892(4) 0.7855(3) 0.9418(3)
C1_2 C 0.6791(3) 0.4888(3) 0.94730(19)
C2_2 C 0.7278(3) 0.4933(3) 0.88245(19)
C3_2 C 0.8276(3) 0.4726(3) 0.8750(2)
H1_2 H 0.865987 0.455510 0.911686
C4_2 C 0.8736(3) 0.4763(3) 0.8134(2)
C5_2 C 0.8140(3) 0.4973(3) 0.75985(18)
C6_2 C 0.7139(3) 0.5194(4) 0.7691(2)
H2_2 H 0.674484 0.536296 0.732803
C7_2 C 0.6703(3) 0.5173(4) 0.8295(2)
H3_2 H 0.601564 0.532065 0.834644
C8_2 C 0.8532(3) 0.5014(4) 0.69159(19)
C13_2 C 0.9850(4) 0.1853(3) 0.8802(3)
H8_2 H 0.941191 0.141828 0.861553
C14_2 C 0.9749(4) 0.2759(3) 0.8619(3)
H9_2 H 0.923267 0.293296 0.832857
C15_2 C 0.8212(3) 0.0033(3) 0.96301(18)
C20_2 C 0.6252(3) 0.0081(3) 0.8296(2)
C21_2 C 0.6717(3) 0.0142(3) 0.8912(2)
H12_2 H 0.633404 0.031899 0.927804
C23_2 C 0.4591(4) 0.0502(3) 0.8772(2)
H13_2 H 0.479253 0.016526 0.916547
H14_2 H 0.389694 0.032142 0.866692
C24_2 C 0.4598(4) 0.1510(3) 0.8929(3)
C25_2 C 0.3940(4) 0.1870(3) 0.9396(3)
H15_2 H 0.354291 0.147669 0.965349
C26_2 C 0.3876(3) 0.2791(3) 0.9477(3)
H16_2 H 0.338918 0.302092 0.976927
C27_2 C 0.5145(4) 0.3040(3) 0.8748(3)
H17_2 H 0.557336 0.345567 0.853374
C28_2 C 0.5252(4) 0.2124(3) 0.8616(3)
H18_2 H 0.575015 0.191434 0.832435
C32_2 C 0.4111(5) 0.6981(3) 0.9502(3)
H26_2 H 0.424544 0.677587 0.992896
C33_2 C 0.3701(5) 0.8217(4) 0.8806(3)
H27_2 H 0.433031 0.842149 0.861137
H28_2 H 0.324235 0.873136 0.884698
H29_2 H 0.339690 0.775224 0.853080
C34_2 C 0.3872(7) 0.8478(4) 0.9984(4)
H31_2 H 0.331993 0.890923 0.993490
O16_2 O 0.2707(2) 0.4747(2) 0.98811(14)
O17_2 O 0.2919(2) 0.4793(3) 0.83783(15)
O18_2 O 0.4467(2) 0.4908(3) 0.80200(14)
H34_2 H 0.491496 0.0134468 0.780468
O5_2 O 0.91432(19) 0.98803(19) 0.96799(13)
O7_2 O 0.7081(2) 0.9793(3) 0.66217(15)
O8_2 O 0.5533(2) 0.9908(3) 0.69800(14)
C16_2 C 0.7725(3) 0.9946(3) 0.89840(18)
C17_2 C 0.8303(3) 0.9694(3) 0.8458(2)
H10_2 H 0.898877 0.954236 0.851168
C18_2 C 0.7862(3) 0.9668(4) 0.7850(2)
H11_2 H 0.825713 0.950494 0.748602
C19_2 C 0.6855(3) 0.9875(3) 0.7759(2)
C22_2 C 0.6468(3) 0.9857(3) 0.7078(2)
O9_3 O 0.5956(3) 0.6521(2) 0.06555(17)
N1_3 N 0.4740(3) 0.0439(3) 0.1913(2)
N2_3 N 0.5535(3) 0.3428(2) 0.0773(2)
N3_3 N 0.0235(3) 0.4773(3) 0.1755(2)
N5_3 N 0.6165(4) 0.7842(3) 0.1205(3)
C1_3 C 0.1791(3) 0.0112(3) 0.05270(19)
C2_3 C 0.2278(3) 0.0067(3) 0.11755(19)
C3_3 C 0.3276(3) 0.0274(3) 0.1250(2)
H1_3 H 0.365987 0.044490 0.088314
C4_3 C 0.3736(3) 0.0237(3) 0.1866(2)
C5_3 C 0.3140(3) 0.0027(3) 0.24015(18)
C9_3 C 0.5398(4) 0.0626(3) 0.1365(2)
H4_3 H 0.519356 0.023690 0.099763
H5_3 H 0.608971 0.045561 0.148461
C10_3 C 0.5395(4) 0.1603(4) 0.1143(3)
C11_3 C 0.6049(4) 0.1892(3) 0.0645(3)
H6_3 H 0.643852 0.146416 0.041130
C12_3 C 0.6114(3) 0.2811(3) 0.0503(3)
H7_3 H 0.659864 0.300397 0.019619
C13_3 C 0.4850(4) 0.3147(3) 0.1198(3)
H8_3 H 0.441191 0.358172 0.138447
C14_3 C 0.4749(4) 0.2241(3) 0.1381(3)
H9_3 H 0.423267 0.206704 0.167143
C15_3 C 0.3212(3) 0.4967(3) 0.03699(18)
C16_3 C 0.2725(3) 0.5054(3) 0.10160(18)
C17_3 C 0.3303(3) 0.5306(3) 0.1542(2)
H10_3 H 0.398877 0.545764 0.148832
C18_3 C 0.2862(3) 0.5332(4) 0.2150(2)
H11_3 H 0.325713 0.549506 0.251398
C19_3 C 0.1855(3) 0.5125(3) 0.2241(2)
C20_3 C 0.1252(3) 0.4919(3) 0.1704(2)
C21_3 C 0.1717(3) 0.4858(3) 0.1088(2)
H12_3 H 0.133404 0.468101 0.072196
C22_3 C 0.1468(3) 0.5143(3) 0.2922(2)
C27_3 C 0.0145(4) 0.1960(3) 0.1252(3)
H17_3 H 0.057336 0.154433 0.146626
C28_3 C 0.0252(4) 0.2876(3) 0.1384(3)
H18_3 H 0.075015 0.308566 0.167565
C29_3 C 0.5888(5) 0.6968(3) 0.1149(3)
H19_3 H 0.561958 0.667999 0.152153
C30_3 C 0.6490(5) 0.8328(4) 0.0680(4)
H20_3 H 0.666291 0.791148 0.032832
H21_3 H 0.708190 0.868198 0.080042
H22_3 H 0.595816 0.873778 0.053611
C31_3 C 0.5995(8) 0.8342(5) 0.1840(5)
H23_3 H 0.528791 0.851101 0.187622
H24_3 H 0.640916 0.888942 0.184996
H25_3 H 0.617767 0.794773 0.220245
H33_3 H 0.504522 0.0459359 0.236234
C6_3 C 0.2139(3) 0.9806(4) 0.2309(2)
H2_3 H 0.174484 0.963704 0.267197
C7_3 C 0.1703(3) 0.9827(4) 0.1705(2)
H3_3 H 0.101564 0.967935 0.165356
C8_3 C 0.3532(3) 0.9986(4) 0.30841(19)
N4_3 N 0.9454(3) 0.1630(2) 0.0829(2)
C23_3 C 0.9591(4) 0.4498(3) 0.1228(2)
H13_3 H 0.979253 0.483474 0.083453
H14_3 H 0.889694 0.467858 0.133308
C24_3 C 0.9598(4) 0.3490(3) 0.1071(3)
C25_3 C 0.8940(4) 0.3130(3) 0.0604(3)
H15_3 H 0.854291 0.352331 0.034651
C26_3 C 0.8876(3) 0.2209(3) 0.0523(3)
H16_3 H 0.838918 0.197908 0.023073
H34_3 H 0.991496 0.486553 0.219532
H30_3 H 0.877487 0.687452 0.961874
H32_3 H 0.950641 0.619231 0.999028
O10_3 O 0.5851(3) 0.1435(2) 0.59351(17)
N6_3 N 0.6108(4) 0.2855(3) 0.5582(3)
C6_4 C 0.2861(3) 0.0194(4) 0.7309(2)
H2_4 H 0.325516 0.036296 0.767197
C7_4 C 0.3297(3) 0.0173(4) 0.6705(2)
H3_4 H 0.398436 0.032065 0.665356
C8_4 C 0.1468(3) 0.0014(4) 0.80841(19)
C32_3 C 0.5889(5) 0.1981(3) 0.5498(3)
H26_3 H 0.575456 0.177587 0.507104
C33_3 C 0.6299(5) 0.3217(4) 0.6194(3)
H27_3 H 0.566969 0.342149 0.638863
H28_3 H 0.675765 0.373136 0.615302
H29_3 H 0.660310 0.275224 0.646920
C34_3 C 0.6128(7) 0.3478(4) 0.5016(4)
H30_4 H 0.622513 0.312548 0.461874
H31_3 H 0.668007 0.390923 0.506510
H32_4 H 0.549359 0.380769 0.499028
N1_4 N 0.0260(3) 0.9561(3) 0.6913(2)
N3_4 N 0.4765(3) 0.5227(3) 0.6755(2)
N4_4 N 0.5546(3) 0.8370(2) 0.5829(2)
C1_4 C 0.3209(3) 0.9888(3) 0.55270(19)
C2_4 C 0.2722(3) 0.9933(3) 0.61755(19)
C3_4 C 0.1724(3) 0.9726(3) 0.6250(2)
H1_4 H 0.134013 0.955510 0.588314
C4_4 C 0.1264(3) 0.9763(3) 0.6866(2)
C5_4 C 0.1860(3) 0.9973(3) 0.74015(18)
C13_4 C 0.0150(4) 0.6853(3) 0.6198(3)
H8_4 H 0.058809 0.641828 0.638447
C14_4 C 0.0251(4) 0.7759(3) 0.6381(3)
H9_4 H 0.076733 0.793296 0.667143
C15_4 C 0.1788(3) 0.5033(3) 0.53699(18)
C16_4 C 0.2275(3) 0.4946(3) 0.60160(18)
C17_4 C 0.1697(3) 0.4694(3) 0.6542(2)
H10_4 H 0.101123 0.454236 0.648832
C18_4 C 0.2138(3) 0.4668(4) 0.7150(2)
H11_4 H 0.174287 0.450494 0.751398
C19_4 C 0.3145(3) 0.4875(3) 0.7241(2)
C20_4 C 0.3748(3) 0.5081(3) 0.6704(2)
C21_4 C 0.3283(3) 0.5142(3) 0.6088(2)
H12_4 H 0.366596 0.531899 0.572196
C22_4 C 0.3532(3) 0.4857(3) 0.7922(2)
C23_4 C 0.5409(4) 0.5502(3) 0.6228(2)
H13_4 H 0.520747 0.516526 0.583453
H14_4 H 0.610306 0.532142 0.633308
C24_4 C 0.5402(4) 0.6510(3) 0.6071(3)
C25_4 C 0.6060(4) 0.6870(3) 0.5604(3)
H15_4 H 0.645709 0.647669 0.534651
C26_4 C 0.6124(3) 0.7791(3) 0.5523(3)
H16_4 H 0.661082 0.802092 0.523073
C27_4 C 0.4855(4) 0.8040(3) 0.6252(3)
H17_4 H 0.442664 0.845567 0.646626
C28_4 C 0.4748(4) 0.7124(3) 0.6384(3)
H18_4 H 0.424985 0.691434 0.667565
H34_4 H 0.508504 0.513447 0.719532
O9_4 O 0.9044(3) 0.3479(2) 0.56555(17)
N2_4 N 0.9465(3) 0.6572(2) 0.5773(2)
N5_4 N 0.8835(4) 0.2158(3) 0.6205(3)
C9_4 C 0.9602(4) 0.9374(3) 0.6365(2)
H4_4 H 0.980644 0.976310 0.599763
H5_4 H 0.891029 0.954439 0.648461
C10_4 C 0.9605(4) 0.8397(4) 0.6143(3)
C11_4 C 0.8951(4) 0.8108(3) 0.5645(3)
H6_4 H 0.856148 0.853584 0.541130
C12_4 C 0.8886(3) 0.7189(3) 0.5503(3)
H7_4 H 0.840136 0.699603 0.519619
C29_4 C 0.9112(5) 0.3032(3) 0.6149(3)
H19_4 H 0.938042 0.332001 0.652153
C30_4 C 0.8510(5) 0.1672(4) 0.5680(4)
H20_4 H 0.833709 0.208852 0.532832
H21_4 H 0.791810 0.131802 0.580042
H22_4 H 0.904184 0.126222 0.553611
C31_4 C 0.9005(8) 0.1658(5) 0.6840(5)
H23_4 H 0.971209 0.148899 0.687622
H24_4 H 0.859084 0.111058 0.684996
H25_4 H 0.882233 0.205227 0.720245
H33_4 H 0.995478 0.954064 0.736234
O10_4 O 0.9149(3) 0.8565(2) 0.09351(17)
N6_4 N 0.8892(4) 0.7145(3) 0.0582(3)
C32_4 C 0.9111(5) 0.8019(3) 0.0498(3)
H26_4 H 0.924544 0.822413 0.007104
C33_4 C 0.8701(5) 0.6783(4) 0.1194(3)
H27_4 H 0.933031 0.657851 0.138863
H28_4 H 0.824235 0.626864 0.115302
H29_4 H 0.839690 0.724776 0.146920
C34_4 C 0.8872(7) 0.6522(4) 0.0016(4)
H31_4 H 0.831993 0.609077 0.006510
loop_
_geom_bond_atom_site_label_1
_geom_bond_atom_site_label_2
_geom_bond_site_symmetry_1
_geom_bond_site_symmetry_2
O10 Cd1 1_555 1_555
N4 Cd1 1_555 1_555
N6 C32 1_555 1_555
H13 C23 1_555 1_555
H14 C23 1_555 1_555
C24 C23 1_555 1_555
C25 C24 1_555 1_555
H15 C25 1_555 1_555
C26 N4 1_555 1_555
H16 C26 1_555 1_555
C32 O10 1_555 1_555
H26 C32 1_555 1_555
C33 N6 1_555 1_555
H27 C33 1_555 1_555
H28 C33 1_555 1_555
H29 C33 1_555 1_555
C34 N6 1_555 1_555
H30 C34 1_555 1_555
H31 C34 1_555 1_555
H32 C34 1_555 1_555
O15 Cd1 1_555 1_555
O16 Cd1 1_555 1_555
O17 Cd1 1_555 1_555
O18 Cd1 1_555 1_555
C25 C26 1_555 1_555
O7 C22 1_555 1_555
O8 C22 1_555 1_555
N5 C29 1_555 1_555
C16 C17 1_555 1_555
C17 H10 1_555 1_555
C18 C17 1_555 1_555
H11 C18 1_555 1_555
C19 C18 1_555 1_555
C22 C19 1_555 1_555
C29 O9 1_555 1_555
H19 C29 1_555 1_555
C30 N5 1_555 1_555
H20 C30 1_555 1_555
H21 C30 1_555 1_555
H22 C30 1_555 1_555
C31 N5 1_555 1_555
H23 C31 1_555 1_555
H24 C31 1_555 1_555
H25 C31 1_555 1_555
Cd3 O7 1_555 1_555
O8 Cd3 1_555 1_555
O1 C1 1_555 1_555
O2 C1 1_555 1_555
O3 C8 1_555 1_555
O4 C8 1_555 1_555
O6 C15 1_555 1_555
N1 C4 1_555 1_555
N2 Cd2 1_555 1_555
N3 C20 1_555 1_555
C1 C2 1_555 1_555
C2 C3 1_555 1_555
C3 H1 1_555 1_555
C4 C3 1_555 1_555
C5 C4 1_555 1_555
C6 C5 1_555 1_555
H2 C6 1_555 1_555
C7 C2 1_555 1_555
H3 C7 1_555 1_555
C8 C5 1_555 1_555
C9 N1 1_555 1_555
H4 C9 1_555 1_555
H5 C9 1_555 1_555
C10 C9 1_555 1_555
C11 C10 1_555 1_555
H6 C11 1_555 1_555
C12 N2 1_555 1_555
H7 C12 1_555 1_555
C13 N2 1_555 1_555
H8 C13 1_555 1_555
C14 C10 1_555 1_555
H9 C14 1_555 1_555
H12 C21 1_555 1_555
H17 C27 1_555 1_555
H18 C28 1_555 1_555
Cd5 O3 1_555 1_555
Cd6 O1 1_555 1_555
O12 Cd2 1_555 1_555
O14 Cd2 1_555 1_555
O2 Cd6 1_555 1_555
O4 Cd5 1_555 1_555
O6 Cd4 1_555 1_555
C6 C7 1_555 1_555
C11 C12 1_555 1_555
C13 C14 1_555 1_555
C20 C21 1_555 1_555
C27 C28 1_555 1_555
N1 H33 1_555 1_555
N2_2 Cd2_2 1_555 1_555
H4_2 C9_2 1_555 1_555
H5_2 C9_2 1_555 1_555
C10_2 C9_2 1_555 1_555
C11_2 C10_2 1_555 1_555
H6_2 C11_2 1_555 1_555
C12_2 N2_2 1_555 1_555
H7_2 C12_2 1_555 1_555
O14_2 Cd2_2 1_555 1_555
C11_2 C12_2 1_555 1_555
N5_2 C29_2 1_555 1_555
C29_2 O9_2 1_555 1_555
H19_2 C29_2 1_555 1_555
C30_2 N5_2 1_555 1_555
H20_2 C30_2 1_555 1_555
H21_2 C30_2 1_555 1_555
H22_2 C30_2 1_555 1_555
C31_2 N5_2 1_555 1_555
H23_2 C31_2 1_555 1_555
H24_2 C31_2 1_555 1_555
H25_2 C31_2 1_555 1_555
O6_2 Cd3 1_555 1_555
Cd5 O15_2 1_555 1_555
Cd1_2 O1_2 1_555 1_555
O1_2 C1_2 1_555 1_555
O2_2 C1_2 1_555 1_555
O3_2 C8_2 1_555 1_555
O4_2 C8_2 1_555 1_555
O10_2 Cd1_2 1_555 1_555
N1_2 C4_2 1_555 1_555
N3_2 C20_2 1_555 1_555
N4_2 Cd1_2 1_555 1_555
N6_2 C32_2 1_555 1_555
C1_2 C2_2 1_555 1_555
C2_2 C3_2 1_555 1_555
C3_2 H1_2 1_555 1_555
C4_2 C3_2 1_555 1_555
C5_2 C4_2 1_555 1_555
C6_2 C5_2 1_555 1_555
H2_2 C6_2 1_555 1_555
C7_2 C2_2 1_555 1_555
H3_2 C7_2 1_555 1_555
C8_2 C5_2 1_555 1_555
H8_2 C13_2 1_555 1_555
H9_2 C14_2 1_555 1_555
H12_2 C21_2 1_555 1_555
C23_2 N3_2 1_555 1_555
H13_2 C23_2 1_555 1_555
H14_2 C23_2 1_555 1_555
C24_2 C23_2 1_555 1_555
C25_2 C24_2 1_555 1_555
H15_2 C25_2 1_555 1_555
C26_2 N4_2 1_555 1_555
H16_2 C26_2 1_555 1_555
C27_2 N4_2 1_555 1_555
H17_2 C27_2 1_555 1_555
C28_2 C24_2 1_555 1_555
H18_2 C28_2 1_555 1_555
C32_2 O10_2 1_555 1_555
H26_2 C32_2 1_555 1_555
C33_2 N6_2 1_555 1_555
H27_2 C33_2 1_555 1_555
H28_2 C33_2 1_555 1_555
H29_2 C33_2 1_555 1_555
C34_2 N6_2 1_555 1_555
H31_2 C34_2 1_555 1_555
Cd6 O3_2 1_555 1_555
O16_2 Cd1_2 1_555 1_555
O17_2 Cd1_2 1_555 1_555
O18_2 Cd1_2 1_555 1_555
O4_2 Cd6 1_555 1_555
C6_2 C7_2 1_555 1_555
C13_2 C14_2 1_555 1_555
C20_2 C21_2 1_555 1_555
C25_2 C26_2 1_555 1_555
C27_2 C28_2 1_555 1_555
N3_2 H34_2 1_555 1_555
O7_2 C22_2 1_555 1_555
O8_2 C22_2 1_555 1_555
C16_2 C17_2 1_555 1_555
C17_2 H10_2 1_555 1_555
C18_2 C17_2 1_555 1_555
H11_2 C18_2 1_555 1_555
C19_2 C18_2 1_555 1_555
C22_2 C19_2 1_555 1_555
Cd4 O7_2 1_555 1_555
O8_2 Cd4 1_555 1_555
O12_2 C1_3 1_555 1_555
O15_2 C15_3 1_555 1_555
O17 C22_3 1_555 1_555
O18 C22_3 1_555 1_555
O9_3 Cd5 1_555 1_555
N1_3 C4_3 1_555 1_555
N2_3 Cd5 1_555 1_555
N3_3 C20_3 1_555 1_555
N5_3 C29_3 1_555 1_555
C1_3 C2_3 1_555 1_555
C2_3 C3_3 1_555 1_555
C3_3 H1_3 1_555 1_555
C4_3 C3_3 1_555 1_555
C5_3 C4_3 1_555 1_555
C9_3 N1_3 1_555 1_555
H4_3 C9_3 1_555 1_555
H5_3 C9_3 1_555 1_555
C10_3 C9_3 1_555 1_555
C11_3 C10_3 1_555 1_555
H6_3 C11_3 1_555 1_555
C12_3 N2_3 1_555 1_555
H7_3 C12_3 1_555 1_555
C13_3 N2_3 1_555 1_555
H8_3 C13_3 1_555 1_555
C14_3 C10_3 1_555 1_555
H9_3 C14_3 1_555 1_555
C15_3 C16_3 1_555 1_555
C16_3 C17_3 1_555 1_555
C17_3 H10_3 1_555 1_555
C18_3 C17_3 1_555 1_555
H11_3 C18_3 1_555 1_555
C19_3 C18_3 1_555 1_555
C20_3 C19_3 1_555 1_555
C21_3 C16_3 1_555 1_555
H12_3 C21_3 1_555 1_555
C22_3 C19_3 1_555 1_555
H17_3 C27_3 1_555 1_555
H18_3 C28_3 1_555 1_555
C29_3 O9_3 1_555 1_555
H19_3 C29_3 1_555 1_555
C30_3 N5_3 1_555 1_555
H20_3 C30_3 1_555 1_555
H21_3 C30_3 1_555 1_555
H22_3 C30_3 1_555 1_555
C31_3 N5_3 1_555 1_555
H23_3 C31_3 1_555 1_555
H24_3 C31_3 1_555 1_555
H25_3 C31_3 1_555 1_555
C11_3 C12_3 1_555 1_555
C13_3 C14_3 1_555 1_555
C20_3 C21_3 1_555 1_555
C27_3 C28_3 1_555 1_555
N1_3 H33_3 1_555 1_555
O14 C8_3 1_555 1_555
H2_3 C6_3 1_555 1_555
H3_3 C7_3 1_555 1_555
C6_3 C7_3 1_555 1_555
N4_3 Cd3 1_555 1_555
H13_3 C23_3 1_555 1_555
H14_3 C23_3 1_555 1_555
C24_3 C23_3 1_555 1_555
C25_3 C24_3 1_555 1_555
H15_3 C25_3 1_555 1_555
C26_3 N4_3 1_555 1_555
H16_3 C26_3 1_555 1_555
C25_3 C26_3 1_555 1_555
O14_2 C8_4 1_555 1_555
N6_3 C32_3 1_555 1_555
H2_4 C6_4 1_555 1_555
H3_4 C7_4 1_555 1_555
C32_3 O10_3 1_555 1_555
H26_3 C32_3 1_555 1_555
C33_3 N6_3 1_555 1_555
H27_3 C33_3 1_555 1_555
H28_3 C33_3 1_555 1_555
H29_3 C33_3 1_555 1_555
C34_3 N6_3 1_555 1_555
H30_4 C34_3 1_555 1_555
H31_3 C34_3 1_555 1_555
H32_4 C34_3 1_555 1_555
C6_4 C7_4 1_555 1_555
O12 C1_4 1_555 1_555
O15 C15_4 1_555 1_555
O16 C15_4 1_555 1_555
O17_2 C22_4 1_555 1_555
O18_2 C22_4 1_555 1_555
N1_4 C4_4 1_555 1_555
N3_4 C20_4 1_555 1_555
N4_4 Cd4 1_555 1_555
C1_4 C2_4 1_555 1_555
C2_4 C3_4 1_555 1_555
C3_4 H1_4 1_555 1_555
C4_4 C3_4 1_555 1_555
C5_4 C4_4 1_555 1_555
H8_4 C13_4 1_555 1_555
H9_4 C14_4 1_555 1_555
C15_4 C16_4 1_555 1_555
C16_4 C17_4 1_555 1_555
C17_4 H10_4 1_555 1_555
C18_4 C17_4 1_555 1_555
H11_4 C18_4 1_555 1_555
C19_4 C18_4 1_555 1_555
C20_4 C19_4 1_555 1_555
C21_4 C16_4 1_555 1_555
H12_4 C21_4 1_555 1_555
C22_4 C19_4 1_555 1_555
C23_4 N3_4 1_555 1_555
H13_4 C23_4 1_555 1_555
H14_4 C23_4 1_555 1_555
C24_4 C23_4 1_555 1_555
C25_4 C24_4 1_555 1_555
H15_4 C25_4 1_555 1_555
C26_4 N4_4 1_555 1_555
H16_4 C26_4 1_555 1_555
C27_4 N4_4 1_555 1_555
H17_4 C27_4 1_555 1_555
C28_4 C24_4 1_555 1_555
H18_4 C28_4 1_555 1_555
C13_4 C14_4 1_555 1_555
C20_4 C21_4 1_555 1_555
C25_4 C26_4 1_555 1_555
C27_4 C28_4 1_555 1_555
N3_4 H34_4 1_555 1_555
O9_4 Cd6 1_555 1_555
N2_4 Cd6 1_555 1_555
N5_4 C29_4 1_555 1_555
H4_4 C9_4 1_555 1_555
H5_4 C9_4 1_555 1_555
C10_4 C9_4 1_555 1_555
C11_4 C10_4 1_555 1_555
H6_4 C11_4 1_555 1_555
C12_4 N2_4 1_555 1_555
H7_4 C12_4 1_555 1_555
C29_4 O9_4 1_555 1_555
H19_4 C29_4 1_555 1_555
C30_4 N5_4 1_555 1_555
H20_4 C30_4 1_555 1_555
H21_4 C30_4 1_555 1_555
H22_4 C30_4 1_555 1_555
C31_4 N5_4 1_555 1_555
H23_4 C31_4 1_555 1_555
H24_4 C31_4 1_555 1_555
H25_4 C31_4 1_555 1_555
C11_4 C12_4 1_555 1_555
N6_4 C32_4 1_555 1_555
C32_4 O10_4 1_555 1_555
H26_4 C32_4 1_555 1_555
C33_4 N6_4 1_555 1_555
H27_4 C33_4 1_555 1_555
H28_4 C33_4 1_555 1_555
H29_4 C33_4 1_555 1_555
C34_4 N6_4 1_555 1_555
H31_4 C34_4 1_555 1_555

#END
