
###############################################################################
#
# This file contains modified crystal structure data generated from the
# MOF subset of the Cambridge Structural Database (CSD) v543 
# hosted by the Cambridge Crystallographic Data Centre (CCDC).
#
# This work is licensed under the Creative Commons
# Attribution-NonCommercial-ShareAlike 4.0 International License.
# To view a copy of this license, visit
# http://creativecommons.org/licenses/by-nc-sa/4.0/
# or send a letter to
# Creative Commons, PO Box 1866, Mountain View, CA 94042, USA.
#
# CIF created using the CSD Python API on 29 September 2022
# The structure has been converted into the P1 space group
# The structure has a 3D framework
# The original CSD entry YEKQOW is in the cubic crystal system
# The original CSD entry YEKQOW is in a Sohncke space group
# The framework has been calculated to contain at least 10.0% void space
# The void calculation uses a probe of radius 1.32A, grid spacing 0.4
# H atom positions have been added when not included in the experimental data
# Generated hydrogen atom positions removed from atoms on special positions
#
###############################################################################

data_YEKQOW
_chemical_formula_moiety         '(C576 H510 O552 Zn104)n'
_symmetry_cell_setting           triclinic
_symmetry_space_group_name_H-M   'P 1'
_symmetry_Int_Tables_number      1
_space_group_name_Hall           'P 1'
loop_
_symmetry_equiv_pos_site_id
_symmetry_equiv_pos_as_xyz
1 x,y,z
_cell_length_a                   30.9836(3)
_cell_length_b                   30.9836(3)
_cell_length_c                   30.9836(3)
_cell_angle_alpha                90
_cell_angle_beta                 90
_cell_angle_gamma                90
_cell_volume                     29743.7
loop_
_atom_site_label
_atom_site_type_symbol
_atom_site_fract_x
_atom_site_fract_y
_atom_site_fract_z
Zn1 Zn 0.00551(2) 0.44778(2) 0.79181(2)
O15 O 0.00064(16) 0.44781(15) 0.85395(14)
O20 O 0.0000 0.5000 0.75657(18)
Zn15 Zn 0.25962(3) 0.25962(3) 0.74038(3)
Zn20 Zn 0.00480(2) 0.22572(2) 0.55383(2)
Zn24 Zn 0.05383(2) 0.50480(2) 0.72572(2)
Zn37 Zn 0.29124(3) 0.37942(4) 0.65512(4)
Zn52 Zn 0.13790(3) 0.17421(3) 0.77466(3)
Zn53 Zn 0.17421(3) 0.22534(3) 0.86210(3)
O55 O 0.09901(14) 0.46158(15) 0.74090(17)
O63 O 0.23555(16) 0.38449(17) 0.68699(17)
O78 O 0.24507(13) 0.32055(14) 0.71538(14)
O89 O 0.05849(15) 0.23743(16) 0.58560(14)
O97 O 0.05951(15) 0.41725(15) 0.78096(15)
O125 O 0.16091(13) 0.39682(13) 0.73133(14)
O129 O 0.00354(15) 0.16147(13) 0.55427(15)
O140 O 0.0000 0.25657(18) 0.5000
C52 C 0.1827(2) 0.3575(2) 0.7351(2)
C67 C 0.2244(2) 0.3533(2) 0.7107(2)
H33 H 0.0050 0.0651 0.5635
C92 C 0.0918(2) 0.4272(2) 0.7588(2)
C107 C 0.1228(2) 0.3503(2) 0.7733(3)
H44 H 0.1017 0.3387 0.7912
C112 C 0.1597(2) 0.3290(2) 0.7586(3)
H49 H 0.1670 0.3004 0.7641
C117 C 0.1231(2) 0.3912(2) 0.7566(2)
O144 O 0.0076(2) 0.2206(2) 0.8313(3)
C133 C 0.0291(4) 0.2725(4) 0.8739(4)
H55 H 0.0465 0.2918 0.8888
C138 C 0.0426(3) 0.2420(3) 0.8454(4)
C143 C 0.0869(4) 0.2292(4) 0.8283(5)
O149 O 0.0871(3) 0.2002(3) 0.8028(3)
O156 O 0.1156(3) 0.2502(3) 0.8441(3)
O19 O 0.83853(13) 0.44573(15) 0.00354(15)
H6 H 0.9349 0.4365 0.0050
O21 O 0.7794(2) 0.1687(3) 0.0076(2)
C22 C 0.7275(4) 0.1261(4) 0.0291(4)
H10 H 0.7082 0.1112 0.0465
C23 C 0.7580(3) 0.1546(4) 0.0426(3)
C24 C 0.7708(4) 0.1717(5) 0.0869(4)
O22 O 0.7998(3) 0.1972(3) 0.0871(3)
O23 O 0.7498(3) 0.1559(3) 0.1156(3)
Zn7 Zn 0.55222(2) 0.20819(2) 0.00551(2)
Zn16 Zn 0.74038(3) 0.25962(3) 0.25962(3)
Zn19 Zn 0.77428(2) 0.44617(2) 0.00480(2)
Zn27 Zn 0.49520(2) 0.27428(2) 0.05383(2)
Zn41 Zn 0.62058(4) 0.34488(4) 0.29124(3)
Zn49 Zn 0.82579(3) 0.22534(3) 0.13790(3)
Zn50 Zn 0.77466(3) 0.13790(3) 0.17421(3)
O57 O 0.53842(15) 0.25910(17) 0.09901(14)
O65 O 0.61551(17) 0.31301(17) 0.23555(16)
O80 O 0.67945(14) 0.28462(14) 0.24507(13)
O88 O 0.76257(16) 0.41440(14) 0.05849(15)
O99 O 0.58275(15) 0.21904(15) 0.05951(15)
O108 O 0.55219(15) 0.14605(14) 0.00064(16)
O127 O 0.60318(13) 0.26867(14) 0.16091(13)
O138 O 0.5000 0.24343(18) 0.0000
O139 O 0.74343(18) 0.5000 0.0000
C54 C 0.6425(2) 0.2649(2) 0.1827(2)
C69 C 0.6467(2) 0.2893(2) 0.2244(2)
C94 C 0.5728(2) 0.2412(2) 0.0918(2)
C109 C 0.6497(2) 0.2267(3) 0.1228(2)
H46 H 0.6613 0.2088 0.1017
C114 C 0.6710(2) 0.2414(3) 0.1597(2)
H51 H 0.6996 0.2359 0.1670
C119 C 0.6088(2) 0.2434(2) 0.1231(2)
Zn2 Zn 0.75962(3) 0.24038(3) 0.75962(3)
Zn4 Zn 0.79124(3) 0.12058(4) 0.84488(4)
Zn5 Zn 0.72534(3) 0.36210(3) 0.67421(3)
O1 O 0.7638(3) 0.1435(3) 0.8984(3)
O2 O 0.8128(3) 0.1821(2) 0.9304(3)
O3 O 0.96390(16) 0.40237(15) 0.77266(17)
O4 O 0.82979(18) 0.17021(18) 0.82979(18)
H1 H 0.8115 0.1885 0.8115
O5 O 0.78237(17) 0.36465(17) 0.70329(19)
O6 O 0.59901(14) 0.03842(15) 0.75910(17)
O7 O 0.73555(16) 0.11551(17) 0.81301(17)
O8 O 0.77184(14) 0.30213(14) 0.73462(14)
O9 O 0.74507(13) 0.17945(14) 0.78462(14)
O10 O 0.91440(14) 0.44151(15) 0.73743(16)
O11 O 0.85888(15) 0.37610(13) 0.73815(14)
O12 O 0.55951(15) 0.08275(15) 0.71904(15)
O13 O 0.93688(15) 0.47480(18) 0.83577(17)
O14 O 0.68855(16) 0.31145(16) 0.68855(16)
O16 O 0.90402(15) 0.46285(18) 0.91326(16)
O17 O 0.82312(16) 0.47261(15) 0.93846(16)
C1 C 0.7305(3) 0.1231(4) 0.9849(4)
H3 H 0.7134 0.1061 0.9671
O18 O 0.66091(13) 0.10318(13) 0.76867(14)
O20_2 O 1.0000 0.5000 0.75657(18)
C2 C 0.9000(2) 0.3319(2) 0.7792(2)
H4 H 0.9232 0.3209 0.7947
C3 C 0.8605(2) 0.3110(2) 0.7714(2)
H5 H 0.8524 0.2837 0.7809
C4 C 0.7938(2) 0.3352(2) 0.7271(2)
C5 C 0.8980(2) 0.3721(2) 0.7594(2)
C6 C 0.6827(2) 0.1425(2) 0.7649(2)
C7 C 0.8363(2) 0.3390(2) 0.7472(2)
C8 C 0.9284(2) 0.4080(2) 0.7547(2)
C9 C 0.7244(2) 0.1467(2) 0.7893(2)
C10 C 0.9485(2) 0.4546(3) 0.9091(3)
C11 C 0.9317(3) 0.4437(4) 0.9760(3)
C12 C 0.8937(2) 0.4559(3) 0.9568(2)
C13 C 0.9608(2) 0.4614(3) 0.8617(2)
C14 C 0.5918(2) 0.0728(2) 0.7412(2)
C15 C 0.9652(3) 0.4440(4) 0.9451(3)
H7 H 0.9941 0.4375 0.9501
C16 C 0.8472(2) 0.45938(15) 0.9646(2)
C17 C 0.6228(2) 0.1497(2) 0.7267(3)
H8 H 0.6017 0.1613 0.7088
C18 C 0.6597(2) 0.1710(2) 0.7414(3)
H9 H 0.6670 0.1996 0.7359
C19 C 0.6231(2) 0.1088(2) 0.7434(2)
C20 C 0.7815(4) 0.1602(4) 0.9275(4)
C21 C 0.7632(3) 0.1499(4) 0.9718(3)
O24 O 0.7645(5) 0.0543(5) 0.8811(5)
O25 O 0.8388(5) 0.0936(4) 0.8863(4)
Zn8 Zn 0.50551(2) 0.05222(2) 0.70819(2)
Zn9 Zn 0.70819(2) 0.49449(2) 0.94778(2)
Zn10 Zn 0.94778(2) 0.29181(2) 0.50551(2)
Zn11 Zn 0.99449(2) 0.55222(2) 0.79181(2)
Zn13 Zn 0.79181(2) 0.00551(2) 0.44778(2)
Zn18 Zn 0.74038(3) 0.74038(3) 0.74038(3)
Zn21 Zn 0.94617(2) 0.49520(2) 0.72572(2)
Zn22 Zn 0.72572(2) 0.05383(2) 0.50480(2)
Zn23 Zn 0.50480(2) 0.27428(2) 0.94617(2)
Zn25 Zn 0.44617(2) 0.00480(2) 0.77428(2)
Zn28 Zn 0.27428(2) 0.05383(2) 0.49520(2)
Zn29 Zn 0.77428(2) 0.55383(2) 0.99520(2)
Zn30 Zn 0.49520(2) 0.72572(2) 0.94617(2)
Zn31 Zn 0.94617(2) 0.50480(2) 0.27428(2)
Zn32 Zn 0.84488(4) 0.20876(3) 0.87942(4)
Zn33 Zn 0.87942(4) 0.15512(4) 0.79124(3)
Zn34 Zn 0.62058(4) 0.65512(4) 0.70876(3)
Zn35 Zn 0.70876(3) 0.37942(4) 0.34488(4)
Zn36 Zn 0.34488(4) 0.29124(3) 0.62058(4)
Zn38 Zn 0.70876(3) 0.62058(4) 0.65512(4)
Zn39 Zn 0.65512(4) 0.29124(3) 0.37942(4)
Zn42 Zn 0.37942(4) 0.34488(4) 0.70876(3)
Zn43 Zn 0.65512(4) 0.70876(3) 0.62058(4)
Zn44 Zn 0.67421(3) 0.27466(3) 0.63790(3)
Zn45 Zn 0.63790(3) 0.32579(3) 0.72534(3)
Zn47 Zn 0.22534(3) 0.13790(3) 0.82579(3)
Zn48 Zn 0.82579(3) 0.77466(3) 0.86210(3)
O26 O 0.8565(3) 0.1016(3) 0.7638(3)
O27 O 0.6435(3) 0.6016(3) 0.7362(3)
O28 O 0.7362(3) 0.3565(3) 0.3984(3)
O29 O 0.8984(3) 0.2362(3) 0.8565(3)
O30 O 0.3984(3) 0.2638(3) 0.6435(3)
O31 O 0.8179(2) 0.0696(3) 0.8128(3)
O32 O 0.6821(2) 0.5696(3) 0.6872(3)
O33 O 0.6872(3) 0.3179(2) 0.4304(3)
O34 O 0.9304(3) 0.1872(3) 0.8179(2)
O35 O 0.4304(3) 0.3128(3) 0.6821(2)
O36 O 0.5696(3) 0.6872(3) 0.6821(2)
O37 O 0.6821(2) 0.4304(3) 0.3128(3)
O38 O 0.3128(3) 0.3179(2) 0.5696(3)
O39 O 0.77266(17) 0.03610(16) 0.59763(15)
O40 O 0.59763(15) 0.22734(17) 0.96390(16)
O42 O 0.46390(16) 0.09763(15) 0.72734(17)
O43 O 0.72734(17) 0.53610(16) 0.90237(15)
O44 O 0.90237(15) 0.27266(17) 0.46390(16)
O45 O 0.67021(18) 0.67021(18) 0.67021(18)
O46 O 0.67021(18) 0.32979(18) 0.32979(18)
O47 O 0.32979(18) 0.32979(18) 0.67021(18)
H11 H 0.6885 0.6885 0.6885
H12 H 0.6885 0.3115 0.3115
H13 H 0.3115 0.3115 0.6885
O48 O 0.70329(19) 0.21763(17) 0.63535(17)
O49 O 0.63535(17) 0.29671(19) 0.78237(17)
O51 O 0.28237(17) 0.13535(17) 0.79671(19)
O52 O 0.79671(19) 0.71763(17) 0.86465(17)
O53 O 0.75910(17) 0.40099(14) 0.96158(15)
O54 O 0.96158(15) 0.24090(17) 0.59901(14)
O58 O 0.90099(14) 0.53842(15) 0.74090(17)
O59 O 0.74090(17) 0.09901(14) 0.46158(15)
O60 O 0.46158(15) 0.25910(17) 0.90099(14)
O61 O 0.81301(17) 0.26445(16) 0.88449(17)
O62 O 0.88449(17) 0.18699(17) 0.73555(16)
O66 O 0.61551(17) 0.68699(17) 0.76445(16)
O67 O 0.76445(16) 0.38449(17) 0.31301(17)
O68 O 0.31301(17) 0.23555(16) 0.61551(17)
O69 O 0.73462(14) 0.22816(14) 0.69787(14)
O70 O 0.69787(14) 0.26538(14) 0.77184(14)
O72 O 0.27184(14) 0.19787(14) 0.76538(14)
O73 O 0.76538(14) 0.72816(14) 0.80213(14)
O76 O 0.78462(14) 0.25493(13) 0.82055(14)
O77 O 0.82055(14) 0.21538(14) 0.74507(13)
O83 O 0.73743(16) 0.08560(14) 0.55849(15)
O84 O 0.55849(15) 0.26257(16) 0.91440(14)
O86 O 0.41440(14) 0.05849(15) 0.76257(16)
O87 O 0.76257(16) 0.58560(14) 0.94151(15)
O90 O 0.73815(14) 0.14112(15) 0.62390(13)
O91 O 0.62390(13) 0.26185(14) 0.85888(15)
O93 O 0.35888(15) 0.12390(13) 0.76185(14)
O94 O 0.76185(14) 0.64112(15) 0.87610(13)
O95 O 0.71904(15) 0.44049(15) 0.91725(15)
O96 O 0.91725(15) 0.28096(15) 0.55951(15)
O100 O 0.52520(18) 0.16423(17) 0.93688(15)
O101 O 0.83577(17) 0.06312(15) 0.52520(18)
O102 O 0.43688(15) 0.02520(18) 0.66423(17)
O103 O 0.66423(17) 0.56312(15) 0.97480(18)
O104 O 0.97480(18) 0.33577(17) 0.43688(15)
O106 O 0.18855(16) 0.18855(16) 0.81145(16)
O107 O 0.81145(16) 0.81145(16) 0.81145(16)
O110 O 0.50064(16) 0.05219(15) 0.64605(14)
O111 O 0.64605(14) 0.49936(16) 0.94781(15)
O112 O 0.94781(15) 0.35395(14) 0.50064(16)
O113 O 0.53715(18) 0.08674(16) 0.90402(15)
O114 O 0.91326(16) 0.09598(15) 0.53715(18)
O115 O 0.40402(15) 0.03715(18) 0.58674(16)
O116 O 0.58674(16) 0.59598(15) 0.96285(18)
O117 O 0.96285(18) 0.41326(16) 0.40402(15)
O118 O 0.52739(15) 0.06154(16) 0.82312(16)
O119 O 0.93846(16) 0.17688(16) 0.52739(15)
O120 O 0.32312(16) 0.02739(15) 0.56154(16)
O121 O 0.56154(16) 0.67688(16) 0.97261(15)
O122 O 0.97261(15) 0.43846(16) 0.32312(16)
C25 C 0.8769(4) 0.0151(4) 0.7305(3)
C26 C 0.6231(4) 0.5151(4) 0.7695(3)
C27 C 0.7695(3) 0.3769(4) 0.4849(4)
C28 C 0.9849(4) 0.2695(3) 0.8769(4)
C29 C 0.4849(4) 0.2305(3) 0.6231(4)
H17 H 0.8939 0.0329 0.7134
H18 H 0.6061 0.5329 0.7866
H19 H 0.7866 0.3939 0.4671
H20 H 0.9671 0.2866 0.8939
H21 H 0.4671 0.2134 0.6061
O123 O 0.76867(14) 0.33909(13) 0.89682(13)
O124 O 0.89682(13) 0.23133(14) 0.66091(13)
O130 O 0.33853(13) 0.05427(15) 0.49646(15)
O131 O 0.49646(15) 0.66147(13) 0.94573(15)
O132 O 0.94573(15) 0.50354(15) 0.33853(13)
O133 O 0.94573(15) 0.49646(15) 0.66147(13)
O134 O 0.66147(13) 0.05427(15) 0.50354(15)
O135 O 0.50354(15) 0.33853(13) 0.94573(15)
O136 O 0.5000 0.0000 0.74343(18)
O137 O 0.75657(18) 0.0000 0.5000
O138_2 O 0.5000 0.24343(18) 1.0000
O139_2 O 0.74343(18) 0.5000 1.0000
O140_2 O 1.0000 0.25657(18) 0.5000
C30 C 0.7792(2) 0.1000(2) 0.6681(2)
C31 C 0.6681(2) 0.2208(2) 0.9000(2)
C33 C 0.4000(2) 0.1681(2) 0.7208(2)
C34 C 0.7208(2) 0.6000(2) 0.8319(2)
H22 H 0.7947 0.0768 0.6791
H23 H 0.6791 0.2053 0.9232
H25 H 0.4232 0.1791 0.7053
H26 H 0.7053 0.5768 0.8209
C35 C 0.7714(2) 0.1395(2) 0.6890(2)
C36 C 0.6890(2) 0.2286(2) 0.8605(2)
C38 C 0.3605(2) 0.1890(2) 0.7286(2)
C39 C 0.7286(2) 0.6395(2) 0.8110(2)
H27 H 0.7809 0.1476 0.7163
H28 H 0.7163 0.2191 0.8524
H30 H 0.3524 0.2163 0.7191
H31 H 0.7191 0.6476 0.7837
C40 C 0.7271(2) 0.2062(2) 0.6648(2)
C41 C 0.6648(2) 0.2729(2) 0.7938(2)
C43 C 0.2938(2) 0.1648(2) 0.7729(2)
C44 C 0.7729(2) 0.7062(2) 0.8352(2)
C45 C 0.7594(2) 0.1020(2) 0.6279(2)
C46 C 0.6279(2) 0.2406(2) 0.8980(2)
C48 C 0.3980(2) 0.1279(2) 0.7406(2)
C49 C 0.7406(2) 0.6020(2) 0.8721(2)
C50 C 0.7649(2) 0.3173(2) 0.8575(2)
C51 C 0.8575(2) 0.2351(2) 0.6827(2)
C55 C 0.7472(2) 0.1637(2) 0.6610(2)
C56 C 0.6610(2) 0.2528(2) 0.8363(2)
C58 C 0.3363(2) 0.1610(2) 0.7528(2)
C59 C 0.7528(2) 0.6637(2) 0.8390(2)
C60 C 0.7547(2) 0.0716(2) 0.5920(2)
C61 C 0.5920(2) 0.2453(2) 0.9284(2)
C63 C 0.4284(2) 0.0920(2) 0.7453(2)
C64 C 0.7453(2) 0.5716(2) 0.9080(2)
C65 C 0.7893(2) 0.2756(2) 0.8533(2)
C66 C 0.8533(2) 0.2107(2) 0.7244(2)
C70 C 0.5454(3) 0.0909(3) 0.9485(2)
C71 C 0.9091(3) 0.0515(2) 0.5454(3)
C72 C 0.4485(2) 0.0454(3) 0.5909(3)
C73 C 0.5909(3) 0.5515(2) 0.9546(3)
C74 C 0.9546(3) 0.4091(3) 0.4485(2)
C75 C 0.5563(4) 0.0240(3) 0.9317(3)
C76 C 0.9760(3) 0.0683(3) 0.5563(4)
C77 C 0.4317(3) 0.0563(4) 0.5240(3)
C78 C 0.5240(3) 0.5683(3) 0.9437(4)
C79 C 0.9437(4) 0.4760(3) 0.4317(3)
H34 H 0.4349 0.0635 0.4950
H35 H 0.4950 0.5651 0.9365
H36 H 0.9365 0.5050 0.4349
C80 C 0.5441(3) 0.0432(2) 0.8937(2)
C81 C 0.9568(2) 0.1063(2) 0.5441(3)
C82 C 0.3937(2) 0.0441(3) 0.5432(2)
C83 C 0.5432(2) 0.6063(2) 0.9559(3)
C84 C 0.9559(3) 0.4568(2) 0.3937(2)
C85 C 0.5386(3) 0.1383(2) 0.9608(2)
C86 C 0.8617(2) 0.0392(2) 0.5386(3)
C87 C 0.4608(2) 0.0386(3) 0.6383(2)
C88 C 0.6383(2) 0.5392(2) 0.9614(3)
C89 C 0.9614(3) 0.3617(2) 0.4608(2)
C90 C 0.7412(2) 0.4082(2) 0.9272(2)
C91 C 0.9272(2) 0.2588(2) 0.5918(2)
C95 C 0.5560(4) 0.0549(3) 0.9652(3)
C96 C 0.9451(3) 0.0348(3) 0.5560(4)
C97 C 0.4652(3) 0.0560(4) 0.5549(3)
C98 C 0.5549(3) 0.5348(3) 0.9440(4)
C99 C 0.9440(4) 0.4451(3) 0.4652(3)
H37 H 0.5625 0.0499 0.9941
H38 H 0.9501 0.0059 0.5625
H39 H 0.4941 0.0625 0.5499
H40 H 0.5499 0.5059 0.9375
H41 H 0.9375 0.4501 0.4941
C100 C 0.54062(15) 0.0354(2) 0.8472(2)
C101 C 0.9646(2) 0.1528(2) 0.54062(15)
C102 C 0.3472(2) 0.04062(15) 0.5354(2)
C103 C 0.5354(2) 0.6528(2) 0.95938(15)
C104 C 0.95938(15) 0.4646(2) 0.3472(2)
C105 C 0.7267(3) 0.3772(2) 0.8503(2)
C106 C 0.8503(2) 0.2733(3) 0.6228(2)
H42 H 0.7088 0.3983 0.8387
H43 H 0.8387 0.2912 0.6017
C110 C 0.7414(3) 0.3403(2) 0.8290(2)
C111 C 0.8290(2) 0.2586(3) 0.6597(2)
H47 H 0.7359 0.3330 0.8004
H48 H 0.8004 0.2641 0.6670
C115 C 0.7434(2) 0.3769(2) 0.8912(2)
C116 C 0.8912(2) 0.2566(2) 0.6231(2)
C120 C 0.8398(4) 0.0725(4) 0.7815(4)
C121 C 0.6602(4) 0.5725(4) 0.7185(4)
C122 C 0.7185(4) 0.3398(4) 0.4275(4)
C123 C 0.9275(4) 0.2185(4) 0.8398(4)
C124 C 0.4275(4) 0.2815(4) 0.6602(4)
C125 C 0.8501(4) 0.0282(3) 0.7632(3)
C126 C 0.6499(4) 0.5282(3) 0.7368(3)
C127 C 0.7368(3) 0.3501(4) 0.4718(3)
C128 C 0.9718(3) 0.2368(3) 0.8501(4)
C129 C 0.4718(3) 0.2632(3) 0.6499(4)
O142 O 0.6687(3) 0.4924(2) 0.7206(2)
O143 O 0.7206(2) 0.3313(3) 0.5076(2)
O145 O 0.5076(2) 0.2794(2) 0.6687(3)
C131 C 0.6261(4) 0.4709(4) 0.7725(4)
C132 C 0.7725(4) 0.3739(4) 0.5291(4)
C134 C 0.5291(4) 0.2275(4) 0.6261(4)
H53 H 0.6112 0.4535 0.7918
H54 H 0.7918 0.3888 0.5465
H56 H 0.5465 0.2082 0.6112
C136 C 0.6546(4) 0.4574(3) 0.7420(3)
C137 C 0.7420(3) 0.3454(4) 0.5426(3)
C139 C 0.5426(3) 0.2580(3) 0.6546(4)
C141 C 0.6717(5) 0.4131(4) 0.7292(4)
C142 C 0.7292(4) 0.3283(5) 0.5869(4)
C144 C 0.5869(4) 0.2708(4) 0.6717(5)
O147 O 0.6972(3) 0.4129(3) 0.7002(3)
O148 O 0.7002(3) 0.3028(3) 0.5871(3)
O150 O 0.5871(3) 0.2998(3) 0.6972(3)
O151 O 0.1972(3) 0.0871(3) 0.7998(3)
O152 O 0.7998(3) 0.8028(3) 0.9129(3)
O154 O 0.6559(3) 0.3844(3) 0.7502(3)
O155 O 0.7502(3) 0.3441(3) 0.6156(3)
O157 O 0.6156(3) 0.2498(3) 0.6559(3)
O159 O 0.2502(3) 0.1559(3) 0.8844(3)
O160 O 0.8844(3) 0.7498(3) 0.8441(3)
O161 O 0.8811(5) 0.2355(5) 0.9457(5)
O162 O 0.9457(5) 0.1189(5) 0.7645(5)
O163 O 0.5543(5) 0.6189(5) 0.7355(5)
O164 O 0.7355(5) 0.4457(5) 0.3811(5)
O165 O 0.3811(5) 0.2645(5) 0.5543(5)
O166 O 0.8863(4) 0.1612(5) 0.9064(4)
O167 O 0.9064(4) 0.1137(4) 0.8388(5)
O168 O 0.5936(4) 0.6137(4) 0.6612(5)
O169 O 0.6612(5) 0.4064(4) 0.3863(4)
O170 O 0.3863(4) 0.3388(5) 0.5936(4)
Zn3 Zn 0.55383(2) 0.99520(2) 0.77428(2)
Zn6 Zn 0.79181(2) 0.99449(2) 0.55222(2)
Zn12 Zn 0.49449(2) 0.94778(2) 0.70819(2)
Zn26 Zn 0.72572(2) 0.94617(2) 0.49520(2)
Zn46 Zn 0.77466(3) 0.86210(3) 0.82579(3)
Zn51 Zn 0.86210(3) 0.82579(3) 0.77466(3)
O41 O 0.53610(16) 0.90237(15) 0.72734(17)
O50 O 0.71763(17) 0.86465(17) 0.79671(19)
O56 O 0.74090(17) 0.90099(14) 0.53842(15)
O64 O 0.68699(17) 0.76445(16) 0.61551(17)
O71 O 0.72816(14) 0.80213(14) 0.76538(14)
O75 O 0.80213(14) 0.76538(14) 0.72816(14)
O79 O 0.71538(14) 0.75493(13) 0.67945(14)
O81 O 0.75493(13) 0.67945(14) 0.71538(14)
O82 O 0.67945(14) 0.71538(14) 0.75493(13)
O85 O 0.58560(14) 0.94151(15) 0.76257(16)
O92 O 0.64112(15) 0.87610(13) 0.76185(14)
O98 O 0.78096(15) 0.94049(15) 0.58275(15)
O109 O 0.85395(14) 0.99936(16) 0.55219(15)
O126 O 0.73133(14) 0.83909(13) 0.60318(13)
O128 O 0.55427(15) 0.99646(15) 0.83853(13)
O136_2 O 0.5000 1.0000 0.74343(18)
O137_2 O 0.75657(18) 1.0000 0.5000
C32 C 0.6000(2) 0.8319(2) 0.7208(2)
H24 H 0.5768 0.8209 0.7053
C37 C 0.6395(2) 0.8110(2) 0.7286(2)
H29 H 0.6476 0.7837 0.7191
C42 C 0.7062(2) 0.8352(2) 0.7729(2)
C47 C 0.6020(2) 0.8721(2) 0.7406(2)
C53 C 0.7351(2) 0.8173(2) 0.6425(2)
C57 C 0.6637(2) 0.8390(2) 0.7528(2)
C62 C 0.5716(2) 0.9080(2) 0.7453(2)
C68 C 0.7107(2) 0.7756(2) 0.6467(2)
H32 H 0.5635 0.9950 0.9349
C93 C 0.7588(2) 0.9082(2) 0.5728(2)
C108 C 0.7733(3) 0.8772(2) 0.6497(2)
H45 H 0.7912 0.8983 0.6613
C113 C 0.7586(3) 0.8403(2) 0.6710(2)
H50 H 0.7641 0.8330 0.6996
C118 C 0.7566(2) 0.8769(2) 0.6088(2)
O141 O 0.8313(3) 0.9924(2) 0.7794(2)
C130 C 0.8739(4) 0.9709(4) 0.7275(4)
H52 H 0.8888 0.9535 0.7082
C135 C 0.8454(4) 0.9574(3) 0.7580(3)
C140 C 0.8283(5) 0.9131(4) 0.7708(4)
O146 O 0.8028(3) 0.9129(3) 0.7998(3)
O153 O 0.8441(3) 0.8844(3) 0.7498(3)
O158 O 0.7498(3) 0.8441(3) 0.8844(3)
Zn6_2 Zn 0.20819(2) 0.00551(2) 0.55222(2)
O56_2 O 0.25910(17) 0.09901(14) 0.53842(15)
O74 O 0.23462(14) 0.27184(14) 0.80213(14)
O75_2 O 0.19787(14) 0.23462(14) 0.72816(14)
O79_2 O 0.28462(14) 0.24507(13) 0.67945(14)
O82_2 O 0.32055(14) 0.28462(14) 0.75493(13)
O98_2 O 0.21904(15) 0.05951(15) 0.58275(15)
O109_2 O 0.14605(14) 0.00064(16) 0.55219(15)
O126_2 O 0.26867(14) 0.16091(13) 0.60318(13)
O128_2 O 0.44573(15) 0.00354(15) 0.83853(13)
O137_3 O 0.24343(18) 0.0000 0.5000
C53_2 C 0.2649(2) 0.1827(2) 0.6425(2)
C68_2 C 0.2893(2) 0.2244(2) 0.6467(2)
H32_2 H 0.4365 0.0050 0.9349
C93_2 C 0.2412(2) 0.0918(2) 0.5728(2)
C108_2 C 0.2267(3) 0.1228(2) 0.6497(2)
H45_2 H 0.2088 0.1017 0.6613
C113_2 C 0.2414(3) 0.1597(2) 0.6710(2)
H50_2 H 0.2359 0.1670 0.6996
C118_2 C 0.2434(2) 0.1231(2) 0.6088(2)
O141_2 O 0.1687(3) 0.0076(2) 0.7794(2)
C130_2 C 0.1261(4) 0.0291(4) 0.7275(4)
H52_2 H 0.1112 0.0465 0.7082
C135_2 C 0.1546(4) 0.0426(3) 0.7580(3)
C140_2 C 0.1717(5) 0.0869(4) 0.7708(4)
O153_2 O 0.1559(3) 0.1156(3) 0.7498(3)
O19_2 O 0.16147(13) 0.55427(15) 0.00354(15)
H6_2 H 0.0651 0.5635 0.0050
O21_2 O 0.2206(2) 0.8313(3) 0.0076(2)
C22_2 C 0.2725(4) 0.8739(4) 0.0291(4)
H10_2 H 0.2918 0.8888 0.0465
C23_2 C 0.2420(3) 0.8454(4) 0.0426(3)
C24_2 C 0.2292(4) 0.8283(5) 0.0869(4)
O22_2 O 0.2002(3) 0.8028(3) 0.0871(3)
O23_2 O 0.2502(3) 0.8441(3) 0.1156(3)
Zn7_2 Zn 0.44778(2) 0.79181(2) 0.00551(2)
Zn16_2 Zn 0.25962(3) 0.74038(3) 0.25962(3)
Zn19_2 Zn 0.22572(2) 0.55383(2) 0.00480(2)
Zn27_2 Zn 0.50480(2) 0.72572(2) 0.05383(2)
Zn41_2 Zn 0.37942(4) 0.65512(4) 0.29124(3)
Zn49_2 Zn 0.17421(3) 0.77466(3) 0.13790(3)
Zn50_2 Zn 0.22534(3) 0.86210(3) 0.17421(3)
O57_2 O 0.46158(15) 0.74090(17) 0.09901(14)
O65_2 O 0.38449(17) 0.68699(17) 0.23555(16)
O80_2 O 0.32055(14) 0.71538(14) 0.24507(13)
O88_2 O 0.23743(16) 0.58560(14) 0.05849(15)
O99_2 O 0.41725(15) 0.78096(15) 0.05951(15)
O108_2 O 0.44781(15) 0.85395(14) 0.00064(16)
O127_2 O 0.39682(13) 0.73133(14) 0.16091(13)
O138_3 O 0.5000 0.75657(18) 0.0000
O139_3 O 0.25657(18) 0.5000 0.0000
C54_2 C 0.3575(2) 0.7351(2) 0.1827(2)
C69_2 C 0.3533(2) 0.7107(2) 0.2244(2)
C94_2 C 0.4272(2) 0.7588(2) 0.0918(2)
C109_2 C 0.3503(2) 0.7733(3) 0.1228(2)
H46_2 H 0.3387 0.7912 0.1017
C114_2 C 0.3290(2) 0.7586(3) 0.1597(2)
H51_2 H 0.3004 0.7641 0.1670
C119_2 C 0.3912(2) 0.7566(2) 0.1231(2)
Zn2_2 Zn 0.24038(3) 0.75962(3) 0.75962(3)
Zn4_2 Zn 0.20876(3) 0.87942(4) 0.84488(4)
Zn5_2 Zn 0.27466(3) 0.63790(3) 0.67421(3)
O1_2 O 0.2362(3) 0.8565(3) 0.8984(3)
O2_2 O 0.1872(3) 0.8179(2) 0.9304(3)
O3_2 O 0.03610(16) 0.59763(15) 0.77266(17)
O4_2 O 0.17021(18) 0.82979(18) 0.82979(18)
H1_2 H 0.1885 0.8115 0.8115
O5_2 O 0.21763(17) 0.63535(17) 0.70329(19)
O6_2 O 0.40099(14) 0.96158(15) 0.75910(17)
O7_2 O 0.26445(16) 0.88449(17) 0.81301(17)
O8_2 O 0.22816(14) 0.69787(14) 0.73462(14)
O9_2 O 0.25493(13) 0.82055(14) 0.78462(14)
O10_2 O 0.08560(14) 0.55849(15) 0.73743(16)
O11_2 O 0.14112(15) 0.62390(13) 0.73815(14)
O12_2 O 0.44049(15) 0.91725(15) 0.71904(15)
O13_2 O 0.06312(15) 0.52520(18) 0.83577(17)
O14_2 O 0.31145(16) 0.68855(16) 0.68855(16)
O16_2 O 0.09598(15) 0.53715(18) 0.91326(16)
O17_2 O 0.17688(16) 0.52739(15) 0.93846(16)
C1_2 C 0.2695(3) 0.8769(4) 0.9849(4)
H3_2 H 0.2866 0.8939 0.9671
O18_2 O 0.33909(13) 0.89682(13) 0.76867(14)
C2_2 C 0.1000(2) 0.6681(2) 0.7792(2)
H4_2 H 0.0768 0.6791 0.7947
C3_2 C 0.1395(2) 0.6890(2) 0.7714(2)
H5_2 H 0.1476 0.7163 0.7809
C4_2 C 0.2062(2) 0.6648(2) 0.7271(2)
C5_2 C 0.1020(2) 0.6279(2) 0.7594(2)
C6_2 C 0.3173(2) 0.8575(2) 0.7649(2)
C7_2 C 0.1637(2) 0.6610(2) 0.7472(2)
C8_2 C 0.0716(2) 0.5920(2) 0.7547(2)
C9_2 C 0.2756(2) 0.8533(2) 0.7893(2)
C10_2 C 0.0515(2) 0.5454(3) 0.9091(3)
C11_2 C 0.0683(3) 0.5563(4) 0.9760(3)
C12_2 C 0.1063(2) 0.5441(3) 0.9568(2)
C13_2 C 0.0392(2) 0.5386(3) 0.8617(2)
C14_2 C 0.4082(2) 0.9272(2) 0.7412(2)
C15_2 C 0.0348(3) 0.5560(4) 0.9451(3)
H7_2 H 0.0059 0.5625 0.9501
C16_2 C 0.1528(2) 0.54062(15) 0.9646(2)
C17_2 C 0.3772(2) 0.8503(2) 0.7267(3)
H8_2 H 0.3983 0.8387 0.7088
C18_2 C 0.3403(2) 0.8290(2) 0.7414(3)
H9_2 H 0.3330 0.8004 0.7359
C19_2 C 0.3769(2) 0.8912(2) 0.7434(2)
C20_2 C 0.2185(4) 0.8398(4) 0.9275(4)
C21_2 C 0.2368(3) 0.8501(4) 0.9718(3)
O24_2 O 0.2355(5) 0.9457(5) 0.8811(5)
O25_2 O 0.1612(5) 0.9064(4) 0.8863(4)
Zn9_2 Zn 0.29181(2) 0.50551(2) 0.94778(2)
Zn10_2 Zn 0.05222(2) 0.70819(2) 0.50551(2)
Zn13_2 Zn 0.20819(2) 0.99449(2) 0.44778(2)
Zn22_2 Zn 0.27428(2) 0.94617(2) 0.50480(2)
Zn29_2 Zn 0.22572(2) 0.44617(2) 0.99520(2)
Zn31_2 Zn 0.05383(2) 0.49520(2) 0.27428(2)
Zn32_2 Zn 0.15512(4) 0.79124(3) 0.87942(4)
Zn33_2 Zn 0.12058(4) 0.84488(4) 0.79124(3)
Zn35_2 Zn 0.29124(3) 0.62058(4) 0.34488(4)
Zn39_2 Zn 0.34488(4) 0.70876(3) 0.37942(4)
Zn44_2 Zn 0.32579(3) 0.72534(3) 0.63790(3)
Zn45_2 Zn 0.36210(3) 0.67421(3) 0.72534(3)
O26_2 O 0.1435(3) 0.8984(3) 0.7638(3)
O27_2 O 0.3565(3) 0.3984(3) 0.7362(3)
O28_2 O 0.2638(3) 0.6435(3) 0.3984(3)
O29_2 O 0.1016(3) 0.7638(3) 0.8565(3)
O30_2 O 0.6016(3) 0.7362(3) 0.6435(3)
O31_2 O 0.1821(2) 0.9304(3) 0.8128(3)
O32_2 O 0.3179(2) 0.4304(3) 0.6872(3)
O33_2 O 0.3128(3) 0.6821(2) 0.4304(3)
O34_2 O 0.0696(3) 0.8128(3) 0.8179(2)
O37_2 O 0.3179(2) 0.5696(3) 0.3128(3)
O38_2 O 0.6872(3) 0.6821(2) 0.5696(3)
O39_2 O 0.22734(17) 0.96390(16) 0.59763(15)
O40_2 O 0.40237(15) 0.77266(17) 0.96390(16)
O43_2 O 0.27266(17) 0.46390(16) 0.90237(15)
O44_2 O 0.09763(15) 0.72734(17) 0.46390(16)
O46_2 O 0.32979(18) 0.67021(18) 0.32979(18)
H12_2 H 0.3115 0.6885 0.3115
O48_2 O 0.29671(19) 0.78237(17) 0.63535(17)
O49_2 O 0.36465(17) 0.70329(19) 0.78237(17)
O52_2 O 0.20329(19) 0.28237(17) 0.86465(17)
O53_2 O 0.24090(17) 0.59901(14) 0.96158(15)
O54_2 O 0.03842(15) 0.75910(17) 0.59901(14)
O59_2 O 0.25910(17) 0.90099(14) 0.46158(15)
O60_2 O 0.53842(15) 0.74090(17) 0.90099(14)
O61_2 O 0.18699(17) 0.73555(16) 0.88449(17)
O62_2 O 0.11551(17) 0.81301(17) 0.73555(16)
O66_2 O 0.38449(17) 0.31301(17) 0.76445(16)
O67_2 O 0.23555(16) 0.61551(17) 0.31301(17)
O69_2 O 0.26538(14) 0.77184(14) 0.69787(14)
O70_2 O 0.30213(14) 0.73462(14) 0.77184(14)
O76_2 O 0.21538(14) 0.74507(13) 0.82055(14)
O77_2 O 0.17945(14) 0.78462(14) 0.74507(13)
O83_2 O 0.26257(16) 0.91440(14) 0.55849(15)
O84_2 O 0.44151(15) 0.73743(16) 0.91440(14)
O87_2 O 0.23743(16) 0.41440(14) 0.94151(15)
O90_2 O 0.26185(14) 0.85888(15) 0.62390(13)
O91_2 O 0.37610(13) 0.73815(14) 0.85888(15)
O94_2 O 0.23815(14) 0.35888(15) 0.87610(13)
O95_2 O 0.28096(15) 0.55951(15) 0.91725(15)
O96_2 O 0.08275(15) 0.71904(15) 0.55951(15)
O100_2 O 0.47480(18) 0.83577(17) 0.93688(15)
O101_2 O 0.16423(17) 0.93688(15) 0.52520(18)
O102_2 O 0.56312(15) 0.97480(18) 0.66423(17)
O103_2 O 0.33577(17) 0.43688(15) 0.97480(18)
O104_2 O 0.02520(18) 0.66423(17) 0.43688(15)
O110_2 O 0.49936(16) 0.94781(15) 0.64605(14)
O111_2 O 0.35395(14) 0.50064(16) 0.94781(15)
O112_2 O 0.05219(15) 0.64605(14) 0.50064(16)
O113_2 O 0.46285(18) 0.91326(16) 0.90402(15)
O114_2 O 0.08674(16) 0.90402(15) 0.53715(18)
O115_2 O 0.59598(15) 0.96285(18) 0.58674(16)
O116_2 O 0.41326(16) 0.40402(15) 0.96285(18)
O117_2 O 0.03715(18) 0.58674(16) 0.40402(15)
O118_2 O 0.47261(15) 0.93846(16) 0.82312(16)
O119_2 O 0.06154(16) 0.82312(16) 0.52739(15)
O120_2 O 0.67688(16) 0.97261(15) 0.56154(16)
O121_2 O 0.43846(16) 0.32312(16) 0.97261(15)
O122_2 O 0.02739(15) 0.56154(16) 0.32312(16)
C25_2 C 0.1231(4) 0.9849(4) 0.7305(3)
C26_2 C 0.3769(4) 0.4849(4) 0.7695(3)
C27_2 C 0.2305(3) 0.6231(4) 0.4849(4)
C28_2 C 0.0151(4) 0.7305(3) 0.8769(4)
C29_2 C 0.5151(4) 0.7695(3) 0.6231(4)
H17_2 H 0.1061 0.9671 0.7134
H18_2 H 0.3939 0.4671 0.7866
H19_2 H 0.2134 0.6061 0.4671
H20_2 H 0.0329 0.7134 0.8939
H21_2 H 0.5329 0.7866 0.6061
O123_2 O 0.23133(14) 0.66091(13) 0.89682(13)
O124_2 O 0.10318(13) 0.76867(14) 0.66091(13)
O130_2 O 0.66147(13) 0.94573(15) 0.49646(15)
O132_2 O 0.05427(15) 0.49646(15) 0.33853(13)
O133_2 O 0.05427(15) 0.50354(15) 0.66147(13)
O134_2 O 0.33853(13) 0.94573(15) 0.50354(15)
O137_4 O 0.24343(18) 1.0000 0.5000
O138_4 O 0.5000 0.75657(18) 1.0000
O139_4 O 0.25657(18) 0.5000 1.0000
O140_3 O 0.0000 0.74343(18) 0.5000
C30_2 C 0.2208(2) 0.9000(2) 0.6681(2)
C31_2 C 0.3319(2) 0.7792(2) 0.9000(2)
C34_2 C 0.2792(2) 0.4000(2) 0.8319(2)
H22_2 H 0.2053 0.9232 0.6791
H23_2 H 0.3209 0.7947 0.9232
H26_2 H 0.2947 0.4232 0.8209
C35_2 C 0.2286(2) 0.8605(2) 0.6890(2)
C36_2 C 0.3110(2) 0.7714(2) 0.8605(2)
C39_2 C 0.2714(2) 0.3605(2) 0.8110(2)
H27_2 H 0.2191 0.8524 0.7163
H28_2 H 0.2837 0.7809 0.8524
H31_2 H 0.2809 0.3524 0.7837
C40_2 C 0.2729(2) 0.7938(2) 0.6648(2)
C41_2 C 0.3352(2) 0.7271(2) 0.7938(2)
C44_2 C 0.2271(2) 0.2938(2) 0.8352(2)
C45_2 C 0.2406(2) 0.8980(2) 0.6279(2)
C46_2 C 0.3721(2) 0.7594(2) 0.8980(2)
C49_2 C 0.2594(2) 0.3980(2) 0.8721(2)
C50_2 C 0.2351(2) 0.6827(2) 0.8575(2)
C51_2 C 0.1425(2) 0.7649(2) 0.6827(2)
C55_2 C 0.2528(2) 0.8363(2) 0.6610(2)
C56_2 C 0.3390(2) 0.7472(2) 0.8363(2)
C59_2 C 0.2472(2) 0.3363(2) 0.8390(2)
C60_2 C 0.2453(2) 0.9284(2) 0.5920(2)
C61_2 C 0.4080(2) 0.7547(2) 0.9284(2)
C64_2 C 0.2547(2) 0.4284(2) 0.9080(2)
C65_2 C 0.2107(2) 0.7244(2) 0.8533(2)
C66_2 C 0.1467(2) 0.7893(2) 0.7244(2)
C70_2 C 0.4546(3) 0.9091(3) 0.9485(2)
C71_2 C 0.0909(3) 0.9485(2) 0.5454(3)
C72_2 C 0.5515(2) 0.9546(3) 0.5909(3)
C73_2 C 0.4091(3) 0.4485(2) 0.9546(3)
C74_2 C 0.0454(3) 0.5909(3) 0.4485(2)
C75_2 C 0.4437(4) 0.9760(3) 0.9317(3)
C76_2 C 0.0240(3) 0.9317(3) 0.5563(4)
C77_2 C 0.5683(3) 0.9437(4) 0.5240(3)
C78_2 C 0.4760(3) 0.4317(3) 0.9437(4)
C79_2 C 0.0563(4) 0.5240(3) 0.4317(3)
H34_2 H 0.5651 0.9365 0.4950
H35_2 H 0.5050 0.4349 0.9365
H36_2 H 0.0635 0.4950 0.4349
C80_2 C 0.4559(3) 0.9568(2) 0.8937(2)
C81_2 C 0.0432(2) 0.8937(2) 0.5441(3)
C82_2 C 0.6063(2) 0.9559(3) 0.5432(2)
C83_2 C 0.4568(2) 0.3937(2) 0.9559(3)
C84_2 C 0.0441(3) 0.5432(2) 0.3937(2)
C85_2 C 0.4614(3) 0.8617(2) 0.9608(2)
C86_2 C 0.1383(2) 0.9608(2) 0.5386(3)
C87_2 C 0.5392(2) 0.9614(3) 0.6383(2)
C88_2 C 0.3617(2) 0.4608(2) 0.9614(3)
C89_2 C 0.0386(3) 0.6383(2) 0.4608(2)
C90_2 C 0.2588(2) 0.5918(2) 0.9272(2)
C91_2 C 0.0728(2) 0.7412(2) 0.5918(2)
C95_2 C 0.4440(4) 0.9451(3) 0.9652(3)
C96_2 C 0.0549(3) 0.9652(3) 0.5560(4)
C97_2 C 0.5348(3) 0.9440(4) 0.5549(3)
C98_2 C 0.4451(3) 0.4652(3) 0.9440(4)
C99_2 C 0.0560(4) 0.5549(3) 0.4652(3)
H37_2 H 0.4375 0.9501 0.9941
H38_2 H 0.0499 0.9941 0.5625
H39_2 H 0.5059 0.9375 0.5499
H40_2 H 0.4501 0.4941 0.9375
H41_2 H 0.0625 0.5499 0.4941
C100_2 C 0.45938(15) 0.9646(2) 0.8472(2)
C101_2 C 0.0354(2) 0.8472(2) 0.54062(15)
C102_2 C 0.6528(2) 0.95938(15) 0.5354(2)
C103_2 C 0.4646(2) 0.3472(2) 0.95938(15)
C104_2 C 0.04062(15) 0.5354(2) 0.3472(2)
C105_2 C 0.2733(3) 0.6228(2) 0.8503(2)
C106_2 C 0.1497(2) 0.7267(3) 0.6228(2)
H42_2 H 0.2912 0.6017 0.8387
H43_2 H 0.1613 0.7088 0.6017
C110_2 C 0.2586(3) 0.6597(2) 0.8290(2)
C111_2 C 0.1710(2) 0.7414(3) 0.6597(2)
H47_2 H 0.2641 0.6670 0.8004
H48_2 H 0.1996 0.7359 0.6670
C115_2 C 0.2566(2) 0.6231(2) 0.8912(2)
C116_2 C 0.1088(2) 0.7434(2) 0.6231(2)
C120_2 C 0.1602(4) 0.9275(4) 0.7815(4)
C121_2 C 0.3398(4) 0.4275(4) 0.7185(4)
C122_2 C 0.2815(4) 0.6602(4) 0.4275(4)
C123_2 C 0.0725(4) 0.7815(4) 0.8398(4)
C124_2 C 0.5725(4) 0.7185(4) 0.6602(4)
C125_2 C 0.1499(4) 0.9718(3) 0.7632(3)
C126_2 C 0.3501(4) 0.4718(3) 0.7368(3)
C127_2 C 0.2632(3) 0.6499(4) 0.4718(3)
C128_2 C 0.0282(3) 0.7632(3) 0.8501(4)
C129_2 C 0.5282(3) 0.7368(3) 0.6499(4)
O142_2 O 0.3313(3) 0.5076(2) 0.7206(2)
O143_2 O 0.2794(2) 0.6687(3) 0.5076(2)
O145_2 O 0.4924(2) 0.7206(2) 0.6687(3)
C131_2 C 0.3739(4) 0.5291(4) 0.7725(4)
C132_2 C 0.2275(4) 0.6261(4) 0.5291(4)
C134_2 C 0.4709(4) 0.7725(4) 0.6261(4)
H53_2 H 0.3888 0.5465 0.7918
H54_2 H 0.2082 0.6112 0.5465
H56_2 H 0.4535 0.7918 0.6112
C136_2 C 0.3454(4) 0.5426(3) 0.7420(3)
C137_2 C 0.2580(3) 0.6546(4) 0.5426(3)
C139_2 C 0.4574(3) 0.7420(3) 0.6546(4)
C141_2 C 0.3283(5) 0.5869(4) 0.7292(4)
C142_2 C 0.2708(4) 0.6717(5) 0.5869(4)
C144_2 C 0.4131(4) 0.7292(4) 0.6717(5)
O147_2 O 0.3028(3) 0.5871(3) 0.7002(3)
O148_2 O 0.2998(3) 0.6972(3) 0.5871(3)
O150_2 O 0.4129(3) 0.7002(3) 0.6972(3)
O152_2 O 0.2002(3) 0.1972(3) 0.9129(3)
O154_2 O 0.3441(3) 0.6156(3) 0.7502(3)
O155_2 O 0.2498(3) 0.6559(3) 0.6156(3)
O157_2 O 0.3844(3) 0.7502(3) 0.6559(3)
O161_2 O 0.1189(5) 0.7645(5) 0.9457(5)
O162_2 O 0.0543(5) 0.8811(5) 0.7645(5)
O163_2 O 0.4457(5) 0.3811(5) 0.7355(5)
O164_2 O 0.2645(5) 0.5543(5) 0.3811(5)
O165_2 O 0.6189(5) 0.7355(5) 0.5543(5)
O166_2 O 0.1137(4) 0.8388(5) 0.9064(4)
O167_2 O 0.0936(4) 0.8863(4) 0.8388(5)
O168_2 O 0.4064(4) 0.3863(4) 0.6612(5)
O169_2 O 0.3388(5) 0.5936(4) 0.3863(4)
O170_2 O 0.6137(4) 0.6612(5) 0.5936(4)
O15_2 O 0.99936(16) 0.55219(15) 0.85395(14)
Zn20_2 Zn 0.99520(2) 0.77428(2) 0.55383(2)
O63_2 O 0.76445(16) 0.61551(17) 0.68699(17)
O89_2 O 0.94151(15) 0.76257(16) 0.58560(14)
O97_2 O 0.94049(15) 0.58275(15) 0.78096(15)
O125_2 O 0.83909(13) 0.60318(13) 0.73133(14)
O129_2 O 0.99646(15) 0.83853(13) 0.55427(15)
O140_4 O 1.0000 0.74343(18) 0.5000
C52_2 C 0.8173(2) 0.6425(2) 0.7351(2)
C67_2 C 0.7756(2) 0.6467(2) 0.7107(2)
H33_2 H 0.9950 0.9349 0.5635
C92_2 C 0.9082(2) 0.5728(2) 0.7588(2)
C107_2 C 0.8772(2) 0.6497(2) 0.7733(3)
H44_2 H 0.8983 0.6613 0.7912
C112_2 C 0.8403(2) 0.6710(2) 0.7586(3)
H49_2 H 0.8330 0.6996 0.7641
C117_2 C 0.8769(2) 0.6088(2) 0.7566(2)
O144_2 O 0.9924(2) 0.7794(2) 0.8313(3)
C133_2 C 0.9709(4) 0.7275(4) 0.8739(4)
H55_2 H 0.9535 0.7082 0.8888
C138_2 C 0.9574(3) 0.7580(3) 0.8454(4)
C143_2 C 0.9131(4) 0.7708(4) 0.8283(5)
O149_2 O 0.9129(3) 0.7998(3) 0.8028(3)
Zn2_3 Zn 0.24038(3) 0.24038(3) 0.24038(3)
Zn4_3 Zn 0.20876(3) 0.12058(4) 0.15512(4)
Zn5_3 Zn 0.27466(3) 0.36210(3) 0.32579(3)
O1_3 O 0.2362(3) 0.1435(3) 0.1016(3)
O2_3 O 0.1872(3) 0.1821(2) 0.0696(3)
O3_3 O 0.03610(16) 0.40237(15) 0.22734(17)
O4_3 O 0.17021(18) 0.17021(18) 0.17021(18)
H1_3 H 0.1885 0.1885 0.1885
O5_3 O 0.21763(17) 0.36465(17) 0.29671(19)
O6_3 O 0.40099(14) 0.03842(15) 0.24090(17)
O7_3 O 0.26445(16) 0.11551(17) 0.18699(17)
O8_3 O 0.22816(14) 0.30213(14) 0.26538(14)
O9_3 O 0.25493(13) 0.17945(14) 0.21538(14)
O10_3 O 0.08560(14) 0.44151(15) 0.26257(16)
O11_3 O 0.14112(15) 0.37610(13) 0.26185(14)
O12_3 O 0.44049(15) 0.08275(15) 0.28096(15)
O13_3 O 0.06312(15) 0.47480(18) 0.16423(17)
O14_3 O 0.31145(16) 0.31145(16) 0.31145(16)
O16_3 O 0.09598(15) 0.46285(18) 0.08674(16)
O17_3 O 0.17688(16) 0.47261(15) 0.06154(16)
C1_3 C 0.2695(3) 0.1231(4) 0.0151(4)
H3_3 H 0.2866 0.1061 0.0329
O18_3 O 0.33909(13) 0.10318(13) 0.23133(14)
O20_3 O -0.0000 0.5000 0.24343(18)
C2_3 C 0.1000(2) 0.3319(2) 0.2208(2)
H4_3 H 0.0768 0.3209 0.2053
C3_3 C 0.1395(2) 0.3110(2) 0.2286(2)
H5_3 H 0.1476 0.2837 0.2191
C4_3 C 0.2062(2) 0.3352(2) 0.2729(2)
C5_3 C 0.1020(2) 0.3721(2) 0.2406(2)
C6_3 C 0.3173(2) 0.1425(2) 0.2351(2)
C7_3 C 0.1637(2) 0.3390(2) 0.2528(2)
C8_3 C 0.0716(2) 0.4080(2) 0.2453(2)
C9_3 C 0.2756(2) 0.1467(2) 0.2107(2)
C10_3 C 0.0515(2) 0.4546(3) 0.0909(3)
C11_3 C 0.0683(3) 0.4437(4) 0.0240(3)
C12_3 C 0.1063(2) 0.4559(3) 0.0432(2)
C13_3 C 0.0392(2) 0.4614(3) 0.1383(2)
C14_3 C 0.4082(2) 0.0728(2) 0.2588(2)
C15_3 C 0.0348(3) 0.4440(4) 0.0549(3)
H7_3 H 0.0059 0.4375 0.0499
C16_3 C 0.1528(2) 0.45938(15) 0.0354(2)
C17_3 C 0.3772(2) 0.1497(2) 0.2733(3)
H8_3 H 0.3983 0.1613 0.2912
C18_3 C 0.3403(2) 0.1710(2) 0.2586(3)
H9_3 H 0.3330 0.1996 0.2641
C19_3 C 0.3769(2) 0.1088(2) 0.2566(2)
C20_3 C 0.2185(4) 0.1602(4) 0.0725(4)
C21_3 C 0.2368(3) 0.1499(4) 0.0282(3)
O24_3 O 0.2355(5) 0.0543(5) 0.1189(5)
O25_3 O 0.1612(5) 0.0936(4) 0.1137(4)
Zn8_2 Zn 0.49449(2) 0.05222(2) 0.29181(2)
Zn9_3 Zn 0.29181(2) 0.49449(2) 0.05222(2)
Zn10_3 Zn 0.05222(2) 0.29181(2) 0.49449(2)
Zn11_2 Zn 0.00551(2) 0.55222(2) 0.20819(2)
Zn25_2 Zn 0.55383(2) 0.00480(2) 0.22572(2)
Zn32_3 Zn 0.15512(4) 0.20876(3) 0.12058(4)
Zn33_3 Zn 0.12058(4) 0.15512(4) 0.20876(3)
Zn44_3 Zn 0.32579(3) 0.27466(3) 0.36210(3)
Zn45_3 Zn 0.36210(3) 0.32579(3) 0.27466(3)
O26_3 O 0.1435(3) 0.1016(3) 0.2362(3)
O27_3 O 0.3565(3) 0.6016(3) 0.2638(3)
O28_3 O 0.2638(3) 0.3565(3) 0.6016(3)
O29_3 O 0.1016(3) 0.2362(3) 0.1435(3)
O30_3 O 0.6016(3) 0.2638(3) 0.3565(3)
O31_3 O 0.1821(2) 0.0696(3) 0.1872(3)
O34_3 O 0.0696(3) 0.1872(3) 0.1821(2)
O35_2 O 0.5696(3) 0.3128(3) 0.3179(2)
O36_2 O 0.4304(3) 0.6872(3) 0.3179(2)
O39_3 O 0.22734(17) 0.03610(16) 0.40237(15)
O40_3 O 0.40237(15) 0.22734(17) 0.03610(16)
O42_2 O 0.53610(16) 0.09763(15) 0.27266(17)
O43_3 O 0.27266(17) 0.53610(16) 0.09763(15)
O44_3 O 0.09763(15) 0.27266(17) 0.53610(16)
O48_3 O 0.29671(19) 0.21763(17) 0.36465(17)
O49_3 O 0.36465(17) 0.29671(19) 0.21763(17)
O51_2 O 0.71763(17) 0.13535(17) 0.20329(19)
O52_3 O 0.20329(19) 0.71763(17) 0.13535(17)
O53_3 O 0.24090(17) 0.40099(14) 0.03842(15)
O54_3 O 0.03842(15) 0.24090(17) 0.40099(14)
O58_2 O 0.09901(14) 0.53842(15) 0.25910(17)
O61_3 O 0.18699(17) 0.26445(16) 0.11551(17)
O62_3 O 0.11551(17) 0.18699(17) 0.26445(16)
O68_2 O 0.68699(17) 0.23555(16) 0.38449(17)
O69_3 O 0.26538(14) 0.22816(14) 0.30213(14)
O70_3 O 0.30213(14) 0.26538(14) 0.22816(14)
O72_2 O 0.72816(14) 0.19787(14) 0.23462(14)
O73_2 O 0.23462(14) 0.72816(14) 0.19787(14)
O76_3 O 0.21538(14) 0.25493(13) 0.17945(14)
O77_3 O 0.17945(14) 0.21538(14) 0.25493(13)
O83_3 O 0.26257(16) 0.08560(14) 0.44151(15)
O84_3 O 0.44151(15) 0.26257(16) 0.08560(14)
O86_2 O 0.58560(14) 0.05849(15) 0.23743(16)
O90_3 O 0.26185(14) 0.14112(15) 0.37610(13)
O91_3 O 0.37610(13) 0.26185(14) 0.14112(15)
O93_2 O 0.64112(15) 0.12390(13) 0.23815(14)
O94_3 O 0.23815(14) 0.64112(15) 0.12390(13)
O95_3 O 0.28096(15) 0.44049(15) 0.08275(15)
O96_3 O 0.08275(15) 0.28096(15) 0.44049(15)
O100_3 O 0.47480(18) 0.16423(17) 0.06312(15)
O101_3 O 0.16423(17) 0.06312(15) 0.47480(18)
O102_3 O 0.56312(15) 0.02520(18) 0.33577(17)
O103_3 O 0.33577(17) 0.56312(15) 0.02520(18)
O104_3 O 0.02520(18) 0.33577(17) 0.56312(15)
O106_2 O 0.81145(16) 0.18855(16) 0.18855(16)
O107_2 O 0.18855(16) 0.81145(16) 0.18855(16)
O110_3 O 0.49936(16) 0.05219(15) 0.35395(14)
O111_3 O 0.35395(14) 0.49936(16) 0.05219(15)
O112_3 O 0.05219(15) 0.35395(14) 0.49936(16)
O113_3 O 0.46285(18) 0.08674(16) 0.09598(15)
O114_3 O 0.08674(16) 0.09598(15) 0.46285(18)
O115_3 O 0.59598(15) 0.03715(18) 0.41326(16)
O116_3 O 0.41326(16) 0.59598(15) 0.03715(18)
O117_3 O 0.03715(18) 0.41326(16) 0.59598(15)
O118_3 O 0.47261(15) 0.06154(16) 0.17688(16)
O119_3 O 0.06154(16) 0.17688(16) 0.47261(15)
O120_3 O 0.67688(16) 0.02739(15) 0.43846(16)
O121_3 O 0.43846(16) 0.67688(16) 0.02739(15)
O122_3 O 0.02739(15) 0.43846(16) 0.67688(16)
C25_3 C 0.1231(4) 0.0151(4) 0.2695(3)
C26_3 C 0.3769(4) 0.5151(4) 0.2305(3)
C27_3 C 0.2305(3) 0.3769(4) 0.5151(4)
C28_3 C 0.0151(4) 0.2695(3) 0.1231(4)
C29_3 C 0.5151(4) 0.2305(3) 0.3769(4)
H17_3 H 0.1061 0.0329 0.2866
H18_3 H 0.3939 0.5329 0.2134
H19_3 H 0.2134 0.3939 0.5329
H20_3 H 0.0329 0.2866 0.1061
H21_3 H 0.5329 0.2134 0.3939
O123_3 O 0.23133(14) 0.33909(13) 0.10318(13)
O124_3 O 0.10318(13) 0.23133(14) 0.33909(13)
O131_2 O 0.50354(15) 0.66147(13) 0.05427(15)
O135_2 O 0.49646(15) 0.33853(13) 0.05427(15)
O136_3 O 0.5000 0.0000 0.25657(18)
C30_3 C 0.2208(2) 0.1000(2) 0.3319(2)
C31_3 C 0.3319(2) 0.2208(2) 0.1000(2)
C33_2 C 0.6000(2) 0.1681(2) 0.2792(2)
C34_3 C 0.2792(2) 0.6000(2) 0.1681(2)
H22_3 H 0.2053 0.0768 0.3209
H23_3 H 0.3209 0.2053 0.0768
H25_2 H 0.5768 0.1791 0.2947
H26_3 H 0.2947 0.5768 0.1791
C35_3 C 0.2286(2) 0.1395(2) 0.3110(2)
C36_3 C 0.3110(2) 0.2286(2) 0.1395(2)
C38_2 C 0.6395(2) 0.1890(2) 0.2714(2)
C39_3 C 0.2714(2) 0.6395(2) 0.1890(2)
H27_3 H 0.2191 0.1476 0.2837
H28_3 H 0.2837 0.2191 0.1476
H30_2 H 0.6476 0.2163 0.2809
H31_3 H 0.2809 0.6476 0.2163
C40_3 C 0.2729(2) 0.2062(2) 0.3352(2)
C41_3 C 0.3352(2) 0.2729(2) 0.2062(2)
C43_2 C 0.7062(2) 0.1648(2) 0.2271(2)
C44_3 C 0.2271(2) 0.7062(2) 0.1648(2)
C45_3 C 0.2406(2) 0.1020(2) 0.3721(2)
C46_3 C 0.3721(2) 0.2406(2) 0.1020(2)
C48_2 C 0.6020(2) 0.1279(2) 0.2594(2)
C49_3 C 0.2594(2) 0.6020(2) 0.1279(2)
C50_3 C 0.2351(2) 0.3173(2) 0.1425(2)
C51_3 C 0.1425(2) 0.2351(2) 0.3173(2)
C55_3 C 0.2528(2) 0.1637(2) 0.3390(2)
C56_3 C 0.3390(2) 0.2528(2) 0.1637(2)
C58_2 C 0.6637(2) 0.1610(2) 0.2472(2)
C59_3 C 0.2472(2) 0.6637(2) 0.1610(2)
C60_3 C 0.2453(2) 0.0716(2) 0.4080(2)
C61_3 C 0.4080(2) 0.2453(2) 0.0716(2)
C63_2 C 0.5716(2) 0.0920(2) 0.2547(2)
C64_3 C 0.2547(2) 0.5716(2) 0.0920(2)
C65_3 C 0.2107(2) 0.2756(2) 0.1467(2)
C66_3 C 0.1467(2) 0.2107(2) 0.2756(2)
C70_3 C 0.4546(3) 0.0909(3) 0.0515(2)
C71_3 C 0.0909(3) 0.0515(2) 0.4546(3)
C72_3 C 0.5515(2) 0.0454(3) 0.4091(3)
C73_3 C 0.4091(3) 0.5515(2) 0.0454(3)
C74_3 C 0.0454(3) 0.4091(3) 0.5515(2)
C75_3 C 0.4437(4) 0.0240(3) 0.0683(3)
C76_3 C 0.0240(3) 0.0683(3) 0.4437(4)
C77_3 C 0.5683(3) 0.0563(4) 0.4760(3)
C78_3 C 0.4760(3) 0.5683(3) 0.0563(4)
C79_3 C 0.0563(4) 0.4760(3) 0.5683(3)
H34_3 H 0.5651 0.0635 0.5050
H35_3 H 0.5050 0.5651 0.0635
H36_3 H 0.0635 0.5050 0.5651
C80_3 C 0.4559(3) 0.0432(2) 0.1063(2)
C81_3 C 0.0432(2) 0.1063(2) 0.4559(3)
C82_3 C 0.6063(2) 0.0441(3) 0.4568(2)
C83_3 C 0.4568(2) 0.6063(2) 0.0441(3)
C84_3 C 0.0441(3) 0.4568(2) 0.6063(2)
C85_3 C 0.4614(3) 0.1383(2) 0.0392(2)
C86_3 C 0.1383(2) 0.0392(2) 0.4614(3)
C87_3 C 0.5392(2) 0.0386(3) 0.3617(2)
C88_3 C 0.3617(2) 0.5392(2) 0.0386(3)
C89_3 C 0.0386(3) 0.3617(2) 0.5392(2)
C90_3 C 0.2588(2) 0.4082(2) 0.0728(2)
C91_3 C 0.0728(2) 0.2588(2) 0.4082(2)
C95_3 C 0.4440(4) 0.0549(3) 0.0348(3)
C96_3 C 0.0549(3) 0.0348(3) 0.4440(4)
C97_3 C 0.5348(3) 0.0560(4) 0.4451(3)
C98_3 C 0.4451(3) 0.5348(3) 0.0560(4)
C99_3 C 0.0560(4) 0.4451(3) 0.5348(3)
H37_3 H 0.4375 0.0499 0.0059
H38_3 H 0.0499 0.0059 0.4375
H39_3 H 0.5059 0.0625 0.4501
H40_3 H 0.4501 0.5059 0.0625
H41_3 H 0.0625 0.4501 0.5059
C100_3 C 0.45938(15) 0.0354(2) 0.1528(2)
C101_3 C 0.0354(2) 0.1528(2) 0.45938(15)
C102_3 C 0.6528(2) 0.04062(15) 0.4646(2)
C103_3 C 0.4646(2) 0.6528(2) 0.04062(15)
C104_3 C 0.04062(15) 0.4646(2) 0.6528(2)
C105_3 C 0.2733(3) 0.3772(2) 0.1497(2)
C106_3 C 0.1497(2) 0.2733(3) 0.3772(2)
H42_3 H 0.2912 0.3983 0.1613
H43_3 H 0.1613 0.2912 0.3983
C110_3 C 0.2586(3) 0.3403(2) 0.1710(2)
C111_3 C 0.1710(2) 0.2586(3) 0.3403(2)
H47_3 H 0.2641 0.3330 0.1996
H48_3 H 0.1996 0.2641 0.3330
C115_3 C 0.2566(2) 0.3769(2) 0.1088(2)
C116_3 C 0.1088(2) 0.2566(2) 0.3769(2)
C120_3 C 0.1602(4) 0.0725(4) 0.2185(4)
C121_3 C 0.3398(4) 0.5725(4) 0.2815(4)
C122_3 C 0.2815(4) 0.3398(4) 0.5725(4)
C123_3 C 0.0725(4) 0.2185(4) 0.1602(4)
C124_3 C 0.5725(4) 0.2815(4) 0.3398(4)
C125_3 C 0.1499(4) 0.0282(3) 0.2368(3)
C126_3 C 0.3501(4) 0.5282(3) 0.2632(3)
C127_3 C 0.2632(3) 0.3501(4) 0.5282(3)
C128_3 C 0.0282(3) 0.2368(3) 0.1499(4)
C129_3 C 0.5282(3) 0.2632(3) 0.3501(4)
O142_3 O 0.3313(3) 0.4924(2) 0.2794(2)
O143_3 O 0.2794(2) 0.3313(3) 0.4924(2)
O145_3 O 0.4924(2) 0.2794(2) 0.3313(3)
C131_3 C 0.3739(4) 0.4709(4) 0.2275(4)
C132_3 C 0.2275(4) 0.3739(4) 0.4709(4)
C134_3 C 0.4709(4) 0.2275(4) 0.3739(4)
H53_3 H 0.3888 0.4535 0.2082
H54_3 H 0.2082 0.3888 0.4535
H56_3 H 0.4535 0.2082 0.3888
C136_3 C 0.3454(4) 0.4574(3) 0.2580(3)
C137_3 C 0.2580(3) 0.3454(4) 0.4574(3)
C139_3 C 0.4574(3) 0.2580(3) 0.3454(4)
C141_3 C 0.3283(5) 0.4131(4) 0.2708(4)
C142_3 C 0.2708(4) 0.3283(5) 0.4131(4)
C144_3 C 0.4131(4) 0.2708(4) 0.3283(5)
O147_3 O 0.3028(3) 0.4129(3) 0.2998(3)
O148_3 O 0.2998(3) 0.3028(3) 0.4129(3)
O150_3 O 0.4129(3) 0.2998(3) 0.3028(3)
O151_2 O 0.8028(3) 0.0871(3) 0.2002(3)
O154_3 O 0.3441(3) 0.3844(3) 0.2498(3)
O155_3 O 0.2498(3) 0.3441(3) 0.3844(3)
O157_3 O 0.3844(3) 0.2498(3) 0.3441(3)
O160_2 O 0.1156(3) 0.7498(3) 0.1559(3)
O161_3 O 0.1189(5) 0.2355(5) 0.0543(5)
O162_3 O 0.0543(5) 0.1189(5) 0.2355(5)
O163_3 O 0.4457(5) 0.6189(5) 0.2645(5)
O164_3 O 0.2645(5) 0.4457(5) 0.6189(5)
O165_3 O 0.6189(5) 0.2645(5) 0.4457(5)
O166_3 O 0.1137(4) 0.1612(5) 0.0936(4)
O167_3 O 0.0936(4) 0.1137(4) 0.1612(5)
O168_3 O 0.4064(4) 0.6137(4) 0.3388(5)
O169_3 O 0.3388(5) 0.4064(4) 0.6137(4)
O170_3 O 0.6137(4) 0.3388(5) 0.4064(4)
O19_3 O 0.16147(13) 0.44573(15) 0.99646(15)
H6_3 H 0.0651 0.4365 0.9950
O21_3 O 0.2206(2) 0.1687(3) 0.9924(2)
C22_3 C 0.2725(4) 0.1261(4) 0.9709(4)
H10_3 H 0.2918 0.1112 0.9535
C23_3 C 0.2420(3) 0.1546(4) 0.9574(3)
C24_3 C 0.2292(4) 0.1717(5) 0.9131(4)
Zn7_3 Zn 0.44778(2) 0.20819(2) 0.99449(2)
O99_3 O 0.41725(15) 0.21904(15) 0.94049(15)
O108_3 O 0.44781(15) 0.14605(14) 0.99936(16)
O127_3 O 0.39682(13) 0.26867(14) 0.83909(13)
C54_3 C 0.3575(2) 0.2649(2) 0.8173(2)
C69_3 C 0.3533(2) 0.2893(2) 0.7756(2)
C94_3 C 0.4272(2) 0.2412(2) 0.9082(2)
C109_3 C 0.3503(2) 0.2267(3) 0.8772(2)
H46_3 H 0.3387 0.2088 0.8983
C114_3 C 0.3290(2) 0.2414(3) 0.8403(2)
H51_3 H 0.3004 0.2359 0.8330
C119_3 C 0.3912(2) 0.2434(2) 0.8769(2)
Zn3_2 Zn 0.44617(2) 0.99520(2) 0.22572(2)
Zn12_2 Zn 0.50551(2) 0.94778(2) 0.29181(2)
Zn51_2 Zn 0.13790(3) 0.82579(3) 0.22534(3)
O41_2 O 0.46390(16) 0.90237(15) 0.27266(17)
O50_2 O 0.28237(17) 0.86465(17) 0.20329(19)
O64_2 O 0.31301(17) 0.76445(16) 0.38449(17)
O71_2 O 0.27184(14) 0.80213(14) 0.23462(14)
O75_3 O 0.19787(14) 0.76538(14) 0.27184(14)
O79_3 O 0.28462(14) 0.75493(13) 0.32055(14)
O81_2 O 0.24507(13) 0.67945(14) 0.28462(14)
O85_2 O 0.41440(14) 0.94151(15) 0.23743(16)
O92_2 O 0.35888(15) 0.87610(13) 0.23815(14)
O98_3 O 0.21904(15) 0.94049(15) 0.41725(15)
O109_3 O 0.14605(14) 0.99936(16) 0.44781(15)
O126_3 O 0.26867(14) 0.83909(13) 0.39682(13)
O128_3 O 0.44573(15) 0.99646(15) 0.16147(13)
O136_4 O 0.5000 1.0000 0.25657(18)
C32_2 C 0.4000(2) 0.8319(2) 0.2792(2)
H24_2 H 0.4232 0.8209 0.2947
C37_2 C 0.3605(2) 0.8110(2) 0.2714(2)
H29_2 H 0.3524 0.7837 0.2809
C42_2 C 0.2938(2) 0.8352(2) 0.2271(2)
C47_2 C 0.3980(2) 0.8721(2) 0.2594(2)
C53_3 C 0.2649(2) 0.8173(2) 0.3575(2)
C57_2 C 0.3363(2) 0.8390(2) 0.2472(2)
C62_2 C 0.4284(2) 0.9080(2) 0.2547(2)
C68_3 C 0.2893(2) 0.7756(2) 0.3533(2)
H32_3 H 0.4365 0.9950 0.0651
C93_3 C 0.2412(2) 0.9082(2) 0.4272(2)
C108_3 C 0.2267(3) 0.8772(2) 0.3503(2)
H45_3 H 0.2088 0.8983 0.3387
C113_3 C 0.2414(3) 0.8403(2) 0.3290(2)
H50_3 H 0.2359 0.8330 0.3004
C118_3 C 0.2434(2) 0.8769(2) 0.3912(2)
O141_3 O 0.1687(3) 0.9924(2) 0.2206(2)
C130_3 C 0.1261(4) 0.9709(4) 0.2725(4)
H52_3 H 0.1112 0.9535 0.2918
C135_3 C 0.1546(4) 0.9574(3) 0.2420(3)
C140_3 C 0.1717(5) 0.9131(4) 0.2292(4)
O146_2 O 0.1972(3) 0.9129(3) 0.2002(3)
O153_3 O 0.1559(3) 0.8844(3) 0.2502(3)
Zn1_2 Zn 0.99449(2) 0.44778(2) 0.20819(2)
O15_3 O 0.99936(16) 0.44781(15) 0.14605(14)
O20_4 O 1.0000 0.5000 0.24343(18)
Zn20_3 Zn 0.99520(2) 0.22572(2) 0.44617(2)
Zn52_2 Zn 0.86210(3) 0.17421(3) 0.22534(3)
O55_2 O 0.90099(14) 0.46158(15) 0.25910(17)
O78_2 O 0.75493(13) 0.32055(14) 0.28462(14)
O89_3 O 0.94151(15) 0.23743(16) 0.41440(14)
O97_3 O 0.94049(15) 0.41725(15) 0.21904(15)
O125_3 O 0.83909(13) 0.39682(13) 0.26867(14)
O129_3 O 0.99646(15) 0.16147(13) 0.44573(15)
C52_3 C 0.8173(2) 0.3575(2) 0.2649(2)
C67_3 C 0.7756(2) 0.3533(2) 0.2893(2)
H33_3 H 0.9950 0.0651 0.4365
C92_3 C 0.9082(2) 0.4272(2) 0.2412(2)
C107_3 C 0.8772(2) 0.3503(2) 0.2267(3)
H44_3 H 0.8983 0.3387 0.2088
C112_3 C 0.8403(2) 0.3290(2) 0.2414(3)
H49_3 H 0.8330 0.3004 0.2359
C117_3 C 0.8769(2) 0.3912(2) 0.2434(2)
O144_3 O 0.9924(2) 0.2206(2) 0.1687(3)
C133_3 C 0.9709(4) 0.2725(4) 0.1261(4)
H55_3 H 0.9535 0.2918 0.1112
C138_3 C 0.9574(3) 0.2420(3) 0.1546(4)
C143_3 C 0.9131(4) 0.2292(4) 0.1717(5)
O149_3 O 0.9129(3) 0.2002(3) 0.1972(3)
O156_2 O 0.8844(3) 0.2502(3) 0.1559(3)
O15_4 O 0.00064(16) 0.55219(15) 0.14605(14)
Zn20_4 Zn 0.00480(2) 0.77428(2) 0.44617(2)
O89_4 O 0.05849(15) 0.76257(16) 0.41440(14)
O97_4 O 0.05951(15) 0.58275(15) 0.21904(15)
O125_4 O 0.16091(13) 0.60318(13) 0.26867(14)
O129_4 O 0.00354(15) 0.83853(13) 0.44573(15)
C52_4 C 0.1827(2) 0.6425(2) 0.2649(2)
C67_4 C 0.2244(2) 0.6467(2) 0.2893(2)
H33_4 H 0.0050 0.9349 0.4365
C92_4 C 0.0918(2) 0.5728(2) 0.2412(2)
C107_4 C 0.1228(2) 0.6497(2) 0.2267(3)
H44_4 H 0.1017 0.6613 0.2088
C112_4 C 0.1597(2) 0.6710(2) 0.2414(3)
H49_4 H 0.1670 0.6996 0.2359
C117_4 C 0.1231(2) 0.6088(2) 0.2434(2)
O144_4 O 0.0076(2) 0.7794(2) 0.1687(3)
C133_4 C 0.0291(4) 0.7275(4) 0.1261(4)
H55_4 H 0.0465 0.7082 0.1112
C138_4 C 0.0426(3) 0.7580(3) 0.1546(4)
C143_4 C 0.0869(4) 0.7708(4) 0.1717(5)
O149_4 O 0.0871(3) 0.7998(3) 0.1972(3)
O74_2 O 0.76538(14) 0.27184(14) 0.19787(14)
O75_4 O 0.80213(14) 0.23462(14) 0.27184(14)
O79_4 O 0.71538(14) 0.24507(13) 0.32055(14)
O98_4 O 0.78096(15) 0.05951(15) 0.41725(15)
O109_4 O 0.85395(14) 0.00064(16) 0.44781(15)
O126_4 O 0.73133(14) 0.16091(13) 0.39682(13)
O128_4 O 0.55427(15) 0.00354(15) 0.16147(13)
C53_4 C 0.7351(2) 0.1827(2) 0.3575(2)
C68_4 C 0.7107(2) 0.2244(2) 0.3533(2)
H32_4 H 0.5635 0.0050 0.0651
C93_4 C 0.7588(2) 0.0918(2) 0.4272(2)
C108_4 C 0.7733(3) 0.1228(2) 0.3503(2)
H45_4 H 0.7912 0.1017 0.3387
C113_4 C 0.7586(3) 0.1597(2) 0.3290(2)
H50_4 H 0.7641 0.1670 0.3004
C118_4 C 0.7566(2) 0.1231(2) 0.3912(2)
O141_4 O 0.8313(3) 0.0076(2) 0.2206(2)
C130_4 C 0.8739(4) 0.0291(4) 0.2725(4)
H52_4 H 0.8888 0.0465 0.2918
C135_4 C 0.8454(4) 0.0426(3) 0.2420(3)
C140_4 C 0.8283(5) 0.0869(4) 0.2292(4)
O153_4 O 0.8441(3) 0.1156(3) 0.2502(3)
Zn2_4 Zn 0.75962(3) 0.75962(3) 0.24038(3)
Zn4_4 Zn 0.79124(3) 0.87942(4) 0.15512(4)
Zn5_4 Zn 0.72534(3) 0.63790(3) 0.32579(3)
O1_4 O 0.7638(3) 0.8565(3) 0.1016(3)
O2_4 O 0.8128(3) 0.8179(2) 0.0696(3)
O3_4 O 0.96390(16) 0.59763(15) 0.22734(17)
O4_4 O 0.82979(18) 0.82979(18) 0.17021(18)
H1_4 H 0.8115 0.8115 0.1885
O5_4 O 0.78237(17) 0.63535(17) 0.29671(19)
O6_4 O 0.59901(14) 0.96158(15) 0.24090(17)
O7_4 O 0.73555(16) 0.88449(17) 0.18699(17)
O8_4 O 0.77184(14) 0.69787(14) 0.26538(14)
O9_4 O 0.74507(13) 0.82055(14) 0.21538(14)
O10_4 O 0.91440(14) 0.55849(15) 0.26257(16)
O11_4 O 0.85888(15) 0.62390(13) 0.26185(14)
O12_4 O 0.55951(15) 0.91725(15) 0.28096(15)
O13_4 O 0.93688(15) 0.52520(18) 0.16423(17)
O14_4 O 0.68855(16) 0.68855(16) 0.31145(16)
O16_4 O 0.90402(15) 0.53715(18) 0.08674(16)
O17_4 O 0.82312(16) 0.52739(15) 0.06154(16)
C1_4 C 0.7305(3) 0.8769(4) 0.0151(4)
H3_4 H 0.7134 0.8939 0.0329
O18_4 O 0.66091(13) 0.89682(13) 0.23133(14)
C2_4 C 0.9000(2) 0.6681(2) 0.2208(2)
H4_4 H 0.9232 0.6791 0.2053
C3_4 C 0.8605(2) 0.6890(2) 0.2286(2)
H5_4 H 0.8524 0.7163 0.2191
C4_4 C 0.7938(2) 0.6648(2) 0.2729(2)
C5_4 C 0.8980(2) 0.6279(2) 0.2406(2)
C6_4 C 0.6827(2) 0.8575(2) 0.2351(2)
C7_4 C 0.8363(2) 0.6610(2) 0.2528(2)
C8_4 C 0.9284(2) 0.5920(2) 0.2453(2)
C9_4 C 0.7244(2) 0.8533(2) 0.2107(2)
C10_4 C 0.9485(2) 0.5454(3) 0.0909(3)
C11_4 C 0.9317(3) 0.5563(4) 0.0240(3)
C12_4 C 0.8937(2) 0.5441(3) 0.0432(2)
C13_4 C 0.9608(2) 0.5386(3) 0.1383(2)
C14_4 C 0.5918(2) 0.9272(2) 0.2588(2)
C15_4 C 0.9652(3) 0.5560(4) 0.0549(3)
H7_4 H 0.9941 0.5625 0.0499
C16_4 C 0.8472(2) 0.54062(15) 0.0354(2)
C17_4 C 0.6228(2) 0.8503(2) 0.2733(3)
H8_4 H 0.6017 0.8387 0.2912
C18_4 C 0.6597(2) 0.8290(2) 0.2586(3)
H9_4 H 0.6670 0.8004 0.2641
C19_4 C 0.6231(2) 0.8912(2) 0.2566(2)
C20_4 C 0.7815(4) 0.8398(4) 0.0725(4)
C21_4 C 0.7632(3) 0.8501(4) 0.0282(3)
O24_4 O 0.7645(5) 0.9457(5) 0.1189(5)
O25_4 O 0.8388(5) 0.9064(4) 0.1137(4)
Zn9_4 Zn 0.70819(2) 0.50551(2) 0.05222(2)
Zn10_4 Zn 0.94778(2) 0.70819(2) 0.49449(2)
Zn32_4 Zn 0.84488(4) 0.79124(3) 0.12058(4)
Zn33_4 Zn 0.87942(4) 0.84488(4) 0.20876(3)
Zn44_4 Zn 0.67421(3) 0.72534(3) 0.36210(3)
Zn45_4 Zn 0.63790(3) 0.67421(3) 0.27466(3)
O26_4 O 0.8565(3) 0.8984(3) 0.2362(3)
O27_4 O 0.6435(3) 0.3984(3) 0.2638(3)
O28_4 O 0.7362(3) 0.6435(3) 0.6016(3)
O29_4 O 0.8984(3) 0.7638(3) 0.1435(3)
O30_4 O 0.3984(3) 0.7362(3) 0.3565(3)
O31_4 O 0.8179(2) 0.9304(3) 0.1872(3)
O34_4 O 0.9304(3) 0.8128(3) 0.1821(2)
O39_4 O 0.77266(17) 0.96390(16) 0.40237(15)
O40_4 O 0.59763(15) 0.77266(17) 0.03610(16)
O43_4 O 0.72734(17) 0.46390(16) 0.09763(15)
O44_4 O 0.90237(15) 0.72734(17) 0.53610(16)
O48_4 O 0.70329(19) 0.78237(17) 0.36465(17)
O49_4 O 0.63535(17) 0.70329(19) 0.21763(17)
O52_4 O 0.79671(19) 0.28237(17) 0.13535(17)
O53_4 O 0.75910(17) 0.59901(14) 0.03842(15)
O54_4 O 0.96158(15) 0.75910(17) 0.40099(14)
O61_4 O 0.81301(17) 0.73555(16) 0.11551(17)
O62_4 O 0.88449(17) 0.81301(17) 0.26445(16)
O69_4 O 0.73462(14) 0.77184(14) 0.30213(14)
O70_4 O 0.69787(14) 0.73462(14) 0.22816(14)
O76_4 O 0.78462(14) 0.74507(13) 0.17945(14)
O77_4 O 0.82055(14) 0.78462(14) 0.25493(13)
O83_4 O 0.73743(16) 0.91440(14) 0.44151(15)
O84_4 O 0.55849(15) 0.73743(16) 0.08560(14)
O90_4 O 0.73815(14) 0.85888(15) 0.37610(13)
O91_4 O 0.62390(13) 0.73815(14) 0.14112(15)
O94_4 O 0.76185(14) 0.35888(15) 0.12390(13)
O95_4 O 0.71904(15) 0.55951(15) 0.08275(15)
O96_4 O 0.91725(15) 0.71904(15) 0.44049(15)
O100_4 O 0.52520(18) 0.83577(17) 0.06312(15)
O101_4 O 0.83577(17) 0.93688(15) 0.47480(18)
O102_4 O 0.43688(15) 0.97480(18) 0.33577(17)
O103_4 O 0.66423(17) 0.43688(15) 0.02520(18)
O104_4 O 0.97480(18) 0.66423(17) 0.56312(15)
O110_4 O 0.50064(16) 0.94781(15) 0.35395(14)
O111_4 O 0.64605(14) 0.50064(16) 0.05219(15)
O112_4 O 0.94781(15) 0.64605(14) 0.49936(16)
O113_4 O 0.53715(18) 0.91326(16) 0.09598(15)
O114_4 O 0.91326(16) 0.90402(15) 0.46285(18)
O115_4 O 0.40402(15) 0.96285(18) 0.41326(16)
O116_4 O 0.58674(16) 0.40402(15) 0.03715(18)
O117_4 O 0.96285(18) 0.58674(16) 0.59598(15)
O118_4 O 0.52739(15) 0.93846(16) 0.17688(16)
O119_4 O 0.93846(16) 0.82312(16) 0.47261(15)
O120_4 O 0.32312(16) 0.97261(15) 0.43846(16)
O121_4 O 0.56154(16) 0.32312(16) 0.02739(15)
O122_4 O 0.97261(15) 0.56154(16) 0.67688(16)
C25_4 C 0.8769(4) 0.9849(4) 0.2695(3)
C26_4 C 0.6231(4) 0.4849(4) 0.2305(3)
C27_4 C 0.7695(3) 0.6231(4) 0.5151(4)
C28_4 C 0.9849(4) 0.7305(3) 0.1231(4)
C29_4 C 0.4849(4) 0.7695(3) 0.3769(4)
H17_4 H 0.8939 0.9671 0.2866
H18_4 H 0.6061 0.4671 0.2134
H19_4 H 0.7866 0.6061 0.5329
H20_4 H 0.9671 0.7134 0.1061
H21_4 H 0.4671 0.7866 0.3939
O123_4 O 0.76867(14) 0.66091(13) 0.10318(13)
O124_4 O 0.89682(13) 0.76867(14) 0.33909(13)
C30_4 C 0.7792(2) 0.9000(2) 0.3319(2)
C31_4 C 0.6681(2) 0.7792(2) 0.1000(2)
C34_4 C 0.7208(2) 0.4000(2) 0.1681(2)
H22_4 H 0.7947 0.9232 0.3209
H23_4 H 0.6791 0.7947 0.0768
H26_4 H 0.7053 0.4232 0.1791
C35_4 C 0.7714(2) 0.8605(2) 0.3110(2)
C36_4 C 0.6890(2) 0.7714(2) 0.1395(2)
C39_4 C 0.7286(2) 0.3605(2) 0.1890(2)
H27_4 H 0.7809 0.8524 0.2837
H28_4 H 0.7163 0.7809 0.1476
H31_4 H 0.7191 0.3524 0.2163
C40_4 C 0.7271(2) 0.7938(2) 0.3352(2)
C41_4 C 0.6648(2) 0.7271(2) 0.2062(2)
C44_4 C 0.7729(2) 0.2938(2) 0.1648(2)
C45_4 C 0.7594(2) 0.8980(2) 0.3721(2)
C46_4 C 0.6279(2) 0.7594(2) 0.1020(2)
C49_4 C 0.7406(2) 0.3980(2) 0.1279(2)
C50_4 C 0.7649(2) 0.6827(2) 0.1425(2)
C51_4 C 0.8575(2) 0.7649(2) 0.3173(2)
C55_4 C 0.7472(2) 0.8363(2) 0.3390(2)
C56_4 C 0.6610(2) 0.7472(2) 0.1637(2)
C59_4 C 0.7528(2) 0.3363(2) 0.1610(2)
C60_4 C 0.7547(2) 0.9284(2) 0.4080(2)
C61_4 C 0.5920(2) 0.7547(2) 0.0716(2)
C64_4 C 0.7453(2) 0.4284(2) 0.0920(2)
C65_4 C 0.7893(2) 0.7244(2) 0.1467(2)
C66_4 C 0.8533(2) 0.7893(2) 0.2756(2)
C70_4 C 0.5454(3) 0.9091(3) 0.0515(2)
C71_4 C 0.9091(3) 0.9485(2) 0.4546(3)
C72_4 C 0.4485(2) 0.9546(3) 0.4091(3)
C73_4 C 0.5909(3) 0.4485(2) 0.0454(3)
C74_4 C 0.9546(3) 0.5909(3) 0.5515(2)
C75_4 C 0.5563(4) 0.9760(3) 0.0683(3)
C76_4 C 0.9760(3) 0.9317(3) 0.4437(4)
C77_4 C 0.4317(3) 0.9437(4) 0.4760(3)
C78_4 C 0.5240(3) 0.4317(3) 0.0563(4)
C79_4 C 0.9437(4) 0.5240(3) 0.5683(3)
H34_4 H 0.4349 0.9365 0.5050
H35_4 H 0.4950 0.4349 0.0635
H36_4 H 0.9365 0.4950 0.5651
C80_4 C 0.5441(3) 0.9568(2) 0.1063(2)
C81_4 C 0.9568(2) 0.8937(2) 0.4559(3)
C82_4 C 0.3937(2) 0.9559(3) 0.4568(2)
C83_4 C 0.5432(2) 0.3937(2) 0.0441(3)
C84_4 C 0.9559(3) 0.5432(2) 0.6063(2)
C85_4 C 0.5386(3) 0.8617(2) 0.0392(2)
C86_4 C 0.8617(2) 0.9608(2) 0.4614(3)
C87_4 C 0.4608(2) 0.9614(3) 0.3617(2)
C88_4 C 0.6383(2) 0.4608(2) 0.0386(3)
C89_4 C 0.9614(3) 0.6383(2) 0.5392(2)
C90_4 C 0.7412(2) 0.5918(2) 0.0728(2)
C91_4 C 0.9272(2) 0.7412(2) 0.4082(2)
C95_4 C 0.5560(4) 0.9451(3) 0.0348(3)
C96_4 C 0.9451(3) 0.9652(3) 0.4440(4)
C97_4 C 0.4652(3) 0.9440(4) 0.4451(3)
C98_4 C 0.5549(3) 0.4652(3) 0.0560(4)
C99_4 C 0.9440(4) 0.5549(3) 0.5348(3)
H37_4 H 0.5625 0.9501 0.0059
H38_4 H 0.9501 0.9941 0.4375
H39_4 H 0.4941 0.9375 0.4501
H40_4 H 0.5499 0.4941 0.0625
H41_4 H 0.9375 0.5499 0.5059
C100_4 C 0.54062(15) 0.9646(2) 0.1528(2)
C101_4 C 0.9646(2) 0.8472(2) 0.45938(15)
C102_4 C 0.3472(2) 0.95938(15) 0.4646(2)
C103_4 C 0.5354(2) 0.3472(2) 0.04062(15)
C104_4 C 0.95938(15) 0.5354(2) 0.6528(2)
C105_4 C 0.7267(3) 0.6228(2) 0.1497(2)
C106_4 C 0.8503(2) 0.7267(3) 0.3772(2)
H42_4 H 0.7088 0.6017 0.1613
H43_4 H 0.8387 0.7088 0.3983
C110_4 C 0.7414(3) 0.6597(2) 0.1710(2)
C111_4 C 0.8290(2) 0.7414(3) 0.3403(2)
H47_4 H 0.7359 0.6670 0.1996
H48_4 H 0.8004 0.7359 0.3330
C115_4 C 0.7434(2) 0.6231(2) 0.1088(2)
C116_4 C 0.8912(2) 0.7434(2) 0.3769(2)
C120_4 C 0.8398(4) 0.9275(4) 0.2185(4)
C121_4 C 0.6602(4) 0.4275(4) 0.2815(4)
C122_4 C 0.7185(4) 0.6602(4) 0.5725(4)
C123_4 C 0.9275(4) 0.7815(4) 0.1602(4)
C124_4 C 0.4275(4) 0.7185(4) 0.3398(4)
C125_4 C 0.8501(4) 0.9718(3) 0.2368(3)
C126_4 C 0.6499(4) 0.4718(3) 0.2632(3)
C127_4 C 0.7368(3) 0.6499(4) 0.5282(3)
C128_4 C 0.9718(3) 0.7632(3) 0.1499(4)
C129_4 C 0.4718(3) 0.7368(3) 0.3501(4)
O142_4 O 0.6687(3) 0.5076(2) 0.2794(2)
O143_4 O 0.7206(2) 0.6687(3) 0.4924(2)
O145_4 O 0.5076(2) 0.7206(2) 0.3313(3)
C131_4 C 0.6261(4) 0.5291(4) 0.2275(4)
C132_4 C 0.7725(4) 0.6261(4) 0.4709(4)
C134_4 C 0.5291(4) 0.7725(4) 0.3739(4)
H53_4 H 0.6112 0.5465 0.2082
H54_4 H 0.7918 0.6112 0.4535
H56_4 H 0.5465 0.7918 0.3888
C136_4 C 0.6546(4) 0.5426(3) 0.2580(3)
C137_4 C 0.7420(3) 0.6546(4) 0.4574(3)
C139_4 C 0.5426(3) 0.7420(3) 0.3454(4)
C141_4 C 0.6717(5) 0.5869(4) 0.2708(4)
C142_4 C 0.7292(4) 0.6717(5) 0.4131(4)
C144_4 C 0.5869(4) 0.7292(4) 0.3283(5)
O147_4 O 0.6972(3) 0.5871(3) 0.2998(3)
O148_4 O 0.7002(3) 0.6972(3) 0.4129(3)
O150_4 O 0.5871(3) 0.7002(3) 0.3028(3)
O154_4 O 0.6559(3) 0.6156(3) 0.2498(3)
O155_4 O 0.7502(3) 0.6559(3) 0.3844(3)
O157_4 O 0.6156(3) 0.7502(3) 0.3441(3)
O161_4 O 0.8811(5) 0.7645(5) 0.0543(5)
O162_4 O 0.9457(5) 0.8811(5) 0.2355(5)
O163_4 O 0.5543(5) 0.3811(5) 0.2645(5)
O164_4 O 0.7355(5) 0.5543(5) 0.6189(5)
O165_4 O 0.3811(5) 0.7355(5) 0.4457(5)
O166_4 O 0.8863(4) 0.8388(5) 0.0936(4)
O167_4 O 0.9064(4) 0.8863(4) 0.1612(5)
O168_4 O 0.5936(4) 0.3863(4) 0.3388(5)
O169_4 O 0.6612(5) 0.5936(4) 0.6137(4)
O170_4 O 0.3863(4) 0.6612(5) 0.4064(4)
O19_4 O 0.83853(13) 0.55427(15) 0.99646(15)
H6_4 H 0.9349 0.5635 0.9950
O21_4 O 0.7794(2) 0.8313(3) 0.9924(2)
C22_4 C 0.7275(4) 0.8739(4) 0.9709(4)
H10_4 H 0.7082 0.8888 0.9535
C23_4 C 0.7580(3) 0.8454(4) 0.9574(3)
C24_4 C 0.7708(4) 0.8283(5) 0.9131(4)
Zn7_4 Zn 0.55222(2) 0.79181(2) 0.99449(2)
O99_4 O 0.58275(15) 0.78096(15) 0.94049(15)
O108_4 O 0.55219(15) 0.85395(14) 0.99936(16)
O127_4 O 0.60318(13) 0.73133(14) 0.83909(13)
C54_4 C 0.6425(2) 0.7351(2) 0.8173(2)
C69_4 C 0.6467(2) 0.7107(2) 0.7756(2)
C94_4 C 0.5728(2) 0.7588(2) 0.9082(2)
C109_4 C 0.6497(2) 0.7733(3) 0.8772(2)
H46_4 H 0.6613 0.7912 0.8983
C114_4 C 0.6710(2) 0.7586(3) 0.8403(2)
H51_4 H 0.6996 0.7641 0.8330
C119_4 C 0.6088(2) 0.7566(2) 0.8769(2)
O52_5 O 0.86465(17) 0.79671(19) 0.71763(17)
O94_5 O 0.87610(13) 0.76185(14) 0.64112(15)
C34_5 C 0.8319(2) 0.7208(2) 0.6000(2)
H26_5 H 0.8209 0.7053 0.5768
C39_5 C 0.8110(2) 0.7286(2) 0.6395(2)
H31_5 H 0.7837 0.7191 0.6476
C44_5 C 0.8352(2) 0.7729(2) 0.7062(2)
C49_5 C 0.8721(2) 0.7406(2) 0.6020(2)
C59_5 C 0.8390(2) 0.7528(2) 0.6637(2)
C64_5 C 0.9080(2) 0.7453(2) 0.5716(2)
O52_6 O 0.86465(17) 0.20329(19) 0.28237(17)
O94_6 O 0.87610(13) 0.23815(14) 0.35888(15)
C34_6 C 0.8319(2) 0.2792(2) 0.4000(2)
H26_6 H 0.8209 0.2947 0.4232
C39_6 C 0.8110(2) 0.2714(2) 0.3605(2)
H31_6 H 0.7837 0.2809 0.3524
C44_6 C 0.8352(2) 0.2271(2) 0.2938(2)
C49_6 C 0.8721(2) 0.2594(2) 0.3980(2)
C59_6 C 0.8390(2) 0.2472(2) 0.3363(2)
C64_6 C 0.9080(2) 0.2547(2) 0.4284(2)
O52_7 O 0.13535(17) 0.20329(19) 0.71763(17)
O94_7 O 0.12390(13) 0.23815(14) 0.64112(15)
C34_7 C 0.1681(2) 0.2792(2) 0.6000(2)
H26_7 H 0.1791 0.2947 0.5768
C39_7 C 0.1890(2) 0.2714(2) 0.6395(2)
H31_7 H 0.2163 0.2809 0.6476
C44_7 C 0.1648(2) 0.2271(2) 0.7062(2)
C49_7 C 0.1279(2) 0.2594(2) 0.6020(2)
C59_7 C 0.1610(2) 0.2472(2) 0.6637(2)
C64_7 C 0.0920(2) 0.2547(2) 0.5716(2)
O52_8 O 0.13535(17) 0.79671(19) 0.28237(17)
O94_8 O 0.12390(13) 0.76185(14) 0.35888(15)
C34_8 C 0.1681(2) 0.7208(2) 0.4000(2)
H26_8 H 0.1791 0.7053 0.4232
C39_8 C 0.1890(2) 0.7286(2) 0.3605(2)
H31_8 H 0.2163 0.7191 0.3524
C44_8 C 0.1648(2) 0.7729(2) 0.2938(2)
C49_8 C 0.1279(2) 0.7406(2) 0.3980(2)
C59_8 C 0.1610(2) 0.7528(2) 0.3363(2)
C64_8 C 0.0920(2) 0.7453(2) 0.4284(2)
loop_
_geom_bond_atom_site_label_1
_geom_bond_atom_site_label_2
_geom_bond_site_symmetry_1
_geom_bond_site_symmetry_2
O15 Zn1 1_555 1_555
O20 Zn1 1_555 1_555
Zn15 O78 1_555 1_555
Zn24 O20 1_555 1_555
Zn37 O63 1_555 1_555
Zn52 O149 1_555 1_555
Zn53 O156 1_555 1_555
O55 Zn24 1_555 1_555
O63 C67 1_555 1_555
O78 C67 1_555 1_555
O89 Zn20 1_555 1_555
O97 Zn1 1_555 1_555
O125 C52 1_555 1_555
O129 Zn20 1_555 1_555
C52 C67 1_555 1_555
C92 O55 1_555 1_555
C107 H44 1_555 1_555
C112 C52 1_555 1_555
H49 C112 1_555 1_555
C117 O125 1_555 1_555
H55 C133 1_555 1_555
C138 O144 1_555 1_555
C143 C138 1_555 1_555
O149 C143 1_555 1_555
O156 C143 1_555 1_555
Zn20 O140 1_555 1_555
O97 C92 1_555 1_555
C92 C117 1_555 1_555
C107 C112 1_555 1_555
C107 C117 1_555 1_555
C133 C138 1_555 1_555
H10 C22 1_555 1_555
C23 O21 1_555 1_555
C24 C23 1_555 1_555
O22 C24 1_555 1_555
O23 C24 1_555 1_555
Zn16 O80 1_555 1_555
Zn19 O19 1_555 1_555
Zn27 O57 1_555 1_555
Zn41 O65 1_555 1_555
Zn49 O22 1_555 1_555
Zn50 O23 1_555 1_555
O57 C94 1_555 1_555
O65 C69 1_555 1_555
O80 C69 1_555 1_555
O88 Zn19 1_555 1_555
O99 Zn7 1_555 1_555
O108 Zn7 1_555 1_555
O127 C54 1_555 1_555
O138 Zn7 1_555 1_555
C54 C69 1_555 1_555
C94 O99 1_555 1_555
C109 H46 1_555 1_555
C114 C54 1_555 1_555
H51 C114 1_555 1_555
C119 O127 1_555 1_555
C22 C23 1_555 1_555
Zn19 O139 1_555 1_555
Zn27 O138 1_555 1_555
C94 C119 1_555 1_555
C109 C114 1_555 1_555
C109 C119 1_555 1_555
Zn2 O8 1_555 1_555
Zn4 O1 1_555 1_555
Zn5 O5 1_555 1_555
O1 C20 1_555 1_555
O2 C20 1_555 1_555
O3 C8 1_555 1_555
O4 Zn4 1_555 1_555
H1 O4 1_555 1_555
O5 C4 1_555 1_555
O6 C14 1_555 1_555
O7 Zn4 1_555 1_555
O8 C4 1_555 1_555
O9 Zn2 1_555 1_555
O10 C8 1_555 1_555
O11 C5 1_555 1_555
O12 C14 1_555 1_555
O13 C13 1_555 1_555
O14 Zn5 1_555 1_555
O16 C10 1_555 1_555
O17 C16 1_555 1_555
C1 H3 1_555 1_555
O18 C6 1_555 1_555
C2 H4 1_555 1_555
C3 C2 1_555 1_555
H5 C3 1_555 1_555
C4 C7 1_555 1_555
C5 C2 1_555 1_555
C6 C9 1_555 1_555
C7 O11 1_555 1_555
C8 C5 1_555 1_555
C9 O7 1_555 1_555
C10 C13 1_555 1_555
C12 O16 1_555 1_555
C14 C19 1_555 1_555
C15 C10 1_555 1_555
H7 C15 1_555 1_555
C16 C12 1_555 1_555
C17 H8 1_555 1_555
C18 C6 1_555 1_555
H9 C18 1_555 1_555
C19 O18 1_555 1_555
C20 C21 1_555 1_555
C21 C1 1_555 1_555
O24 Zn4 1_555 1_555
O25 Zn4 1_555 1_555
Zn8 O12 1_555 1_555
Zn9 O43 1_555 1_555
Zn10 O44 1_555 1_555
Zn11 O20_2 1_555 1_555
Zn13 O137 1_555 1_555
Zn15 O72 1_555 1_555
Zn18 O73 1_555 1_555
Zn21 O10 1_555 1_555
Zn22 O59 1_555 1_555
Zn23 O60 1_555 1_555
Zn25 O86 1_555 1_555
Zn28 O130 1_555 1_555
Zn29 O87 1_555 1_555
Zn30 O131 1_555 1_555
Zn31 O132 1_555 1_555
Zn32 O2 1_555 1_555
Zn33 O4 1_555 1_555
Zn34 O27 1_555 1_555
Zn35 O28 1_555 1_555
Zn36 O30 1_555 1_555
Zn38 O32 1_555 1_555
Zn39 O33 1_555 1_555
Zn42 O35 1_555 1_555
Zn43 O45 1_555 1_555
Zn44 O14 1_555 1_555
Zn45 O14 1_555 1_555
Zn47 O51 1_555 1_555
Zn48 O52 1_555 1_555
O26 Zn33 1_555 1_555
O27 C121 1_555 1_555
O28 C122 1_555 1_555
O29 Zn32 1_555 1_555
O30 C124 1_555 1_555
O31 Zn4 1_555 1_555
O32 C121 1_555 1_555
O33 C122 1_555 1_555
O34 Zn33 1_555 1_555
O35 C124 1_555 1_555
O36 Zn34 1_555 1_555
O37 Zn35 1_555 1_555
O38 Zn36 1_555 1_555
O39 C60 1_555 1_555
O40 C61 1_555 1_555
O42 Zn8 1_555 1_555
O43 C64 1_555 1_555
O45 Zn34 1_555 1_555
O46 Zn35 1_555 1_555
O47 Zn36 1_555 1_555
H11 O45 1_555 1_555
H12 O46 1_555 1_555
H13 O47 1_555 1_555
O48 Zn44 1_555 1_555
O49 Zn45 1_555 1_555
O51 C43 1_555 1_555
O52 C44 1_555 1_555
O54 C91 1_555 1_555
O58 Zn21 1_555 1_555
O61 Zn32 1_555 1_555
O62 Zn33 1_555 1_555
O66 Zn34 1_555 1_555
O67 Zn35 1_555 1_555
O68 Zn36 1_555 1_555
O69 Zn2 1_555 1_555
O70 Zn2 1_555 1_555
O72 C43 1_555 1_555
O73 C44 1_555 1_555
O76 Zn2 1_555 1_555
O77 Zn2 1_555 1_555
O83 Zn22 1_555 1_555
O84 Zn23 1_555 1_555
O86 C63 1_555 1_555
O87 C64 1_555 1_555
O90 C45 1_555 1_555
O91 C46 1_555 1_555
O93 C48 1_555 1_555
O94 C49 1_555 1_555
O95 Zn9 1_555 1_555
O96 Zn10 1_555 1_555
O100 C85 1_555 1_555
O101 C86 1_555 1_555
O102 C87 1_555 1_555
O103 C88 1_555 1_555
O104 C89 1_555 1_555
O106 Zn47 1_555 1_555
O107 Zn48 1_555 1_555
O110 Zn8 1_555 1_555
O111 Zn9 1_555 1_555
O112 Zn10 1_555 1_555
O113 C70 1_555 1_555
O114 C71 1_555 1_555
O115 C72 1_555 1_555
O116 C73 1_555 1_555
O117 C74 1_555 1_555
O118 C100 1_555 1_555
O119 C101 1_555 1_555
O120 C102 1_555 1_555
O121 C103 1_555 1_555
O122 C104 1_555 1_555
C25 H17 1_555 1_555
C26 H18 1_555 1_555
C27 H19 1_555 1_555
C28 H20 1_555 1_555
C29 H21 1_555 1_555
O123 C50 1_555 1_555
O124 C51 1_555 1_555
O130 C102 1_555 1_555
O131 C103 1_555 1_555
O132 C104 1_555 1_555
O133 Zn21 1_555 1_555
O134 Zn22 1_555 1_555
O135 Zn23 1_555 1_555
O139_2 Zn9 1_555 1_555
O140_2 Zn10 1_555 1_555
C30 H22 1_555 1_555
C31 H23 1_555 1_555
C33 H25 1_555 1_555
C34 H26 1_555 1_555
C35 C30 1_555 1_555
C36 C31 1_555 1_555
C38 C33 1_555 1_555
C39 C34 1_555 1_555
H27 C35 1_555 1_555
H28 C36 1_555 1_555
H30 C38 1_555 1_555
H31 C39 1_555 1_555
C40 O48 1_555 1_555
C41 O49 1_555 1_555
C43 C58 1_555 1_555
C44 C59 1_555 1_555
C45 C30 1_555 1_555
C46 C31 1_555 1_555
C48 C33 1_555 1_555
C49 C34 1_555 1_555
C50 C65 1_555 1_555
C51 C66 1_555 1_555
C55 O90 1_555 1_555
C56 O91 1_555 1_555
C58 O93 1_555 1_555
C59 O94 1_555 1_555
C60 O83 1_555 1_555
C61 O84 1_555 1_555
C63 O42 1_555 1_555
C64 C49 1_555 1_555
C65 O61 1_555 1_555
C66 O62 1_555 1_555
C70 C85 1_555 1_555
C71 C86 1_555 1_555
C72 C87 1_555 1_555
C73 C88 1_555 1_555
C74 C89 1_555 1_555
C77 H34 1_555 1_555
C78 H35 1_555 1_555
C79 H36 1_555 1_555
C80 O113 1_555 1_555
C81 O114 1_555 1_555
C82 O115 1_555 1_555
C83 O116 1_555 1_555
C84 O117 1_555 1_555
C87 O110 1_555 1_555
C88 O111 1_555 1_555
C89 O112 1_555 1_555
C90 O53 1_555 1_555
C91 O96 1_555 1_555
C95 C70 1_555 1_555
C96 C71 1_555 1_555
C97 C72 1_555 1_555
C98 C73 1_555 1_555
C99 C74 1_555 1_555
H37 C95 1_555 1_555
H38 C96 1_555 1_555
H39 C97 1_555 1_555
H40 C98 1_555 1_555
H41 C99 1_555 1_555
C102 C82 1_555 1_555
C103 C83 1_555 1_555
C104 C84 1_555 1_555
C105 H42 1_555 1_555
C106 H43 1_555 1_555
C110 C50 1_555 1_555
C111 C51 1_555 1_555
H47 C110 1_555 1_555
H48 C111 1_555 1_555
C115 O123 1_555 1_555
C116 O124 1_555 1_555
C120 O26 1_555 1_555
C121 C126 1_555 1_555
C122 C127 1_555 1_555
C123 O29 1_555 1_555
C124 C129 1_555 1_555
C125 C25 1_555 1_555
C126 C26 1_555 1_555
C127 C27 1_555 1_555
C128 C28 1_555 1_555
C129 C29 1_555 1_555
O142 C126 1_555 1_555
O143 C127 1_555 1_555
O145 C129 1_555 1_555
C131 C26 1_555 1_555
C132 C27 1_555 1_555
C134 C29 1_555 1_555
H53 C131 1_555 1_555
H54 C132 1_555 1_555
H56 C134 1_555 1_555
C136 O142 1_555 1_555
C137 O143 1_555 1_555
C139 O145 1_555 1_555
C141 C136 1_555 1_555
C142 C137 1_555 1_555
C144 C139 1_555 1_555
O147 Zn5 1_555 1_555
O148 Zn44 1_555 1_555
O150 Zn45 1_555 1_555
O151 Zn47 1_555 1_555
O152 Zn48 1_555 1_555
O154 Zn45 1_555 1_555
O155 Zn5 1_555 1_555
O157 Zn44 1_555 1_555
O159 Zn47 1_555 1_555
O160 Zn48 1_555 1_555
O161 Zn32 1_555 1_555
O162 Zn33 1_555 1_555
O163 Zn34 1_555 1_555
O164 Zn35 1_555 1_555
O165 Zn36 1_555 1_555
O166 Zn32 1_555 1_555
O167 Zn33 1_555 1_555
O168 Zn34 1_555 1_555
O169 Zn35 1_555 1_555
O170 Zn36 1_555 1_555
O4 Zn32 1_555 1_555
O9 C9 1_555 1_555
O20_2 Zn21 1_555 1_555
C3 C7 1_555 1_555
C11 C12 1_555 1_555
C11 C15 1_555 1_555
C17 C18 1_555 1_555
C17 C19 1_555 1_555
Zn8 O136 1_555 1_555
Zn22 O137 1_555 1_555
Zn23 O138_2 1_555 1_555
Zn25 O136 1_555 1_555
Zn29 O139_2 1_555 1_555
Zn38 O45 1_555 1_555
Zn39 O46 1_555 1_555
Zn42 O47 1_555 1_555
O31 C120 1_555 1_555
O34 C123 1_555 1_555
O69 C40 1_555 1_555
O70 C41 1_555 1_555
O76 C65 1_555 1_555
O77 C66 1_555 1_555
O95 C90 1_555 1_555
C35 C55 1_555 1_555
C36 C56 1_555 1_555
C38 C58 1_555 1_555
C39 C59 1_555 1_555
C40 C55 1_555 1_555
C41 C56 1_555 1_555
C45 C60 1_555 1_555
C46 C61 1_555 1_555
C48 C63 1_555 1_555
C75 C80 1_555 1_555
C75 C95 1_555 1_555
C76 C81 1_555 1_555
C76 C96 1_555 1_555
C77 C82 1_555 1_555
C77 C97 1_555 1_555
C78 C83 1_555 1_555
C78 C98 1_555 1_555
C79 C84 1_555 1_555
C79 C99 1_555 1_555
C80 C100 1_555 1_555
C81 C101 1_555 1_555
C90 C115 1_555 1_555
C91 C116 1_555 1_555
C105 C110 1_555 1_555
C105 C115 1_555 1_555
C106 C111 1_555 1_555
C106 C116 1_555 1_555
C120 C125 1_555 1_555
C123 C128 1_555 1_555
C131 C136 1_555 1_555
C132 C137 1_555 1_555
C134 C139 1_555 1_555
C141 O147 1_555 1_555
C141 O154 1_555 1_555
C142 O148 1_555 1_555
C142 O155 1_555 1_555
C144 O150 1_555 1_555
C144 O157 1_555 1_555
Zn12 O41 1_555 1_555
Zn18 O71 1_555 1_555
Zn26 O56 1_555 1_555
Zn43 O64 1_555 1_555
Zn46 O50 1_555 1_555
Zn51 O107 1_555 1_555
O41 C62 1_555 1_555
O50 C42 1_555 1_555
O56 C93 1_555 1_555
O64 C68 1_555 1_555
O71 C42 1_555 1_555
O75 Zn18 1_555 1_555
O79 Zn18 1_555 1_555
O81 Zn18 1_555 1_555
O82 Zn18 1_555 1_555
O85 Zn3 1_555 1_555
O92 C47 1_555 1_555
O98 Zn6 1_555 1_555
O107 Zn46 1_555 1_555
O109 Zn6 1_555 1_555
O126 C53 1_555 1_555
O128 Zn3 1_555 1_555
O136_2 Zn3 1_555 1_555
O137_2 Zn6 1_555 1_555
C32 H24 1_555 1_555
C37 C32 1_555 1_555
H29 C37 1_555 1_555
C42 C57 1_555 1_555
C47 C32 1_555 1_555
C53 C68 1_555 1_555
C57 O92 1_555 1_555
C62 O85 1_555 1_555
C68 O79 1_555 1_555
C93 O98 1_555 1_555
C108 H45 1_555 1_555
C113 C53 1_555 1_555
H50 C113 1_555 1_555
C118 O126 1_555 1_555
H52 C130 1_555 1_555
C135 O141 1_555 1_555
C140 C135 1_555 1_555
O146 Zn46 1_555 1_555
O153 Zn51 1_555 1_555
O158 Zn46 1_555 1_555
Zn12 O136_2 1_555 1_555
Zn26 O137_2 1_555 1_555
C37 C57 1_555 1_555
C47 C62 1_555 1_555
C93 C118 1_555 1_555
C108 C113 1_555 1_555
C108 C118 1_555 1_555
C130 C135 1_555 1_555
C140 O146 1_555 1_555
C140 O153 1_555 1_555
Zn28 O56_2 1_555 1_555
Zn52 O106 1_555 1_555
Zn53 O106 1_555 1_555
O56_2 C93_2 1_555 1_555
O68 C68_2 1_555 1_555
O74 Zn15 1_555 1_555
O75_2 Zn15 1_555 1_555
O79_2 Zn15 1_555 1_555
O82_2 Zn15 1_555 1_555
O98_2 Zn6_2 1_555 1_555
O109_2 Zn6_2 1_555 1_555
O126_2 C53_2 1_555 1_555
O128_2 Zn25 1_555 1_555
O137_3 Zn6_2 1_555 1_555
C53_2 C68_2 1_555 1_555
C68_2 O79_2 1_555 1_555
C93_2 O98_2 1_555 1_555
C108_2 H45_2 1_555 1_555
C113_2 C53_2 1_555 1_555
H50_2 C113_2 1_555 1_555
C118_2 O126_2 1_555 1_555
H52_2 C130_2 1_555 1_555
C135_2 O141_2 1_555 1_555
C140_2 C135_2 1_555 1_555
O153_2 Zn52 1_555 1_555
Zn28 O137_3 1_555 1_555
C93_2 C118_2 1_555 1_555
C108_2 C113_2 1_555 1_555
C108_2 C118_2 1_555 1_555
C130_2 C135_2 1_555 1_555
C140_2 O151 1_555 1_555
C140_2 O153_2 1_555 1_555
H10_2 C22_2 1_555 1_555
C23_2 O21_2 1_555 1_555
C24_2 C23_2 1_555 1_555
O22_2 C24_2 1_555 1_555
O23_2 C24_2 1_555 1_555
Zn16_2 O80_2 1_555 1_555
Zn19_2 O19_2 1_555 1_555
Zn27_2 O57_2 1_555 1_555
Zn41_2 O65_2 1_555 1_555
Zn49_2 O22_2 1_555 1_555
Zn50_2 O23_2 1_555 1_555
O57_2 C94_2 1_555 1_555
O65_2 C69_2 1_555 1_555
O80_2 C69_2 1_555 1_555
O88_2 Zn19_2 1_555 1_555
O99_2 Zn7_2 1_555 1_555
O108_2 Zn7_2 1_555 1_555
O127_2 C54_2 1_555 1_555
O138_3 Zn7_2 1_555 1_555
C54_2 C69_2 1_555 1_555
C94_2 O99_2 1_555 1_555
C109_2 H46_2 1_555 1_555
C114_2 C54_2 1_555 1_555
H51_2 C114_2 1_555 1_555
C119_2 O127_2 1_555 1_555
C22_2 C23_2 1_555 1_555
Zn19_2 O139_3 1_555 1_555
Zn27_2 O138_3 1_555 1_555
C94_2 C119_2 1_555 1_555
C109_2 C114_2 1_555 1_555
C109_2 C119_2 1_555 1_555
Zn2_2 O8_2 1_555 1_555
Zn4_2 O1_2 1_555 1_555
Zn5_2 O5_2 1_555 1_555
O1_2 C20_2 1_555 1_555
O2_2 C20_2 1_555 1_555
O3_2 C8_2 1_555 1_555
O4_2 Zn4_2 1_555 1_555
H1_2 O4_2 1_555 1_555
O5_2 C4_2 1_555 1_555
O6_2 C14_2 1_555 1_555
O7_2 Zn4_2 1_555 1_555
O8_2 C4_2 1_555 1_555
O9_2 Zn2_2 1_555 1_555
O10_2 C8_2 1_555 1_555
O11_2 C5_2 1_555 1_555
O12_2 C14_2 1_555 1_555
O13_2 C13_2 1_555 1_555
O14_2 Zn5_2 1_555 1_555
O16_2 C10_2 1_555 1_555
O17_2 C16_2 1_555 1_555
C1_2 H3_2 1_555 1_555
O18_2 C6_2 1_555 1_555
C2_2 H4_2 1_555 1_555
C3_2 C2_2 1_555 1_555
H5_2 C3_2 1_555 1_555
C4_2 C7_2 1_555 1_555
C5_2 C2_2 1_555 1_555
C6_2 C9_2 1_555 1_555
C7_2 O11_2 1_555 1_555
C8_2 C5_2 1_555 1_555
C9_2 O7_2 1_555 1_555
C10_2 C13_2 1_555 1_555
C12_2 O16_2 1_555 1_555
C14_2 C19_2 1_555 1_555
C15_2 C10_2 1_555 1_555
H7_2 C15_2 1_555 1_555
C16_2 C12_2 1_555 1_555
C17_2 H8_2 1_555 1_555
C18_2 C6_2 1_555 1_555
H9_2 C18_2 1_555 1_555
C19_2 O18_2 1_555 1_555
C20_2 C21_2 1_555 1_555
C21_2 C1_2 1_555 1_555
O24_2 Zn4_2 1_555 1_555
O25_2 Zn4_2 1_555 1_555
Zn12 O12_2 1_555 1_555
Zn9_2 O43_2 1_555 1_555
Zn10_2 O44_2 1_555 1_555
Zn13_2 O137_4 1_555 1_555
Zn24 O10_2 1_555 1_555
Zn22_2 O59_2 1_555 1_555
Zn30 O60_2 1_555 1_555
Zn26 O130_2 1_555 1_555
Zn29_2 O87_2 1_555 1_555
Zn31_2 O132_2 1_555 1_555
Zn32_2 O2_2 1_555 1_555
Zn33_2 O4_2 1_555 1_555
Zn42 O27_2 1_555 1_555
Zn35_2 O28_2 1_555 1_555
Zn43 O30_2 1_555 1_555
Zn37 O32_2 1_555 1_555
Zn39_2 O33_2 1_555 1_555
Zn44_2 O14_2 1_555 1_555
Zn45_2 O14_2 1_555 1_555
Zn53 O52_2 1_555 1_555
O26_2 Zn33_2 1_555 1_555
O27_2 C121_2 1_555 1_555
O28_2 C122_2 1_555 1_555
O29_2 Zn32_2 1_555 1_555
O30_2 C124_2 1_555 1_555
O31_2 Zn4_2 1_555 1_555
O32_2 C121_2 1_555 1_555
O33_2 C122_2 1_555 1_555
O34_2 Zn33_2 1_555 1_555
O36 C124_2 1_555 1_555
O37_2 Zn35_2 1_555 1_555
O38_2 Zn43 1_555 1_555
O39_2 C60_2 1_555 1_555
O40_2 C61_2 1_555 1_555
O43_2 C64_2 1_555 1_555
O46_2 Zn35_2 1_555 1_555
H12_2 O46_2 1_555 1_555
O48_2 Zn44_2 1_555 1_555
O49_2 Zn45_2 1_555 1_555
O52_2 C44_2 1_555 1_555
O54_2 C91_2 1_555 1_555
O61_2 Zn32_2 1_555 1_555
O62_2 Zn33_2 1_555 1_555
O66_2 Zn42 1_555 1_555
O67_2 Zn35_2 1_555 1_555
O69_2 Zn2_2 1_555 1_555
O70_2 Zn2_2 1_555 1_555
O74 C44_2 1_555 1_555
O76_2 Zn2_2 1_555 1_555
O77_2 Zn2_2 1_555 1_555
O83_2 Zn22_2 1_555 1_555
O84_2 Zn30 1_555 1_555
O87_2 C64_2 1_555 1_555
O90_2 C45_2 1_555 1_555
O91_2 C46_2 1_555 1_555
O94_2 C49_2 1_555 1_555
O95_2 Zn9_2 1_555 1_555
O96_2 Zn10_2 1_555 1_555
O100_2 C85_2 1_555 1_555
O101_2 C86_2 1_555 1_555
O102_2 C87_2 1_555 1_555
O103_2 C88_2 1_555 1_555
O104_2 C89_2 1_555 1_555
O110_2 Zn12 1_555 1_555
O111_2 Zn9_2 1_555 1_555
O112_2 Zn10_2 1_555 1_555
O113_2 C70_2 1_555 1_555
O114_2 C71_2 1_555 1_555
O115_2 C72_2 1_555 1_555
O116_2 C73_2 1_555 1_555
O117_2 C74_2 1_555 1_555
O118_2 C100_2 1_555 1_555
O119_2 C101_2 1_555 1_555
O120_2 C102_2 1_555 1_555
O121_2 C103_2 1_555 1_555
O122_2 C104_2 1_555 1_555
C25_2 H17_2 1_555 1_555
C26_2 H18_2 1_555 1_555
C27_2 H19_2 1_555 1_555
C28_2 H20_2 1_555 1_555
C29_2 H21_2 1_555 1_555
O123_2 C50_2 1_555 1_555
O124_2 C51_2 1_555 1_555
O130_2 C102_2 1_555 1_555
O135 C103_2 1_555 1_555
O132_2 C104_2 1_555 1_555
O133_2 Zn24 1_555 1_555
O134_2 Zn22_2 1_555 1_555
O139_4 Zn9_2 1_555 1_555
O140_3 Zn10_2 1_555 1_555
C30_2 H22_2 1_555 1_555
C31_2 H23_2 1_555 1_555
C34_2 H26_2 1_555 1_555
C35_2 C30_2 1_555 1_555
C36_2 C31_2 1_555 1_555
C39_2 C34_2 1_555 1_555
H27_2 C35_2 1_555 1_555
H28_2 C36_2 1_555 1_555
H31_2 C39_2 1_555 1_555
C40_2 O48_2 1_555 1_555
C41_2 O49_2 1_555 1_555
C44_2 C59_2 1_555 1_555
C45_2 C30_2 1_555 1_555
C46_2 C31_2 1_555 1_555
C49_2 C34_2 1_555 1_555
C50_2 C65_2 1_555 1_555
C51_2 C66_2 1_555 1_555
C55_2 O90_2 1_555 1_555
C56_2 O91_2 1_555 1_555
C59_2 O94_2 1_555 1_555
C60_2 O83_2 1_555 1_555
C61_2 O84_2 1_555 1_555
C64_2 C49_2 1_555 1_555
C65_2 O61_2 1_555 1_555
C66_2 O62_2 1_555 1_555
C70_2 C85_2 1_555 1_555
C71_2 C86_2 1_555 1_555
C72_2 C87_2 1_555 1_555
C73_2 C88_2 1_555 1_555
C74_2 C89_2 1_555 1_555
C77_2 H34_2 1_555 1_555
C78_2 H35_2 1_555 1_555
C79_2 H36_2 1_555 1_555
C80_2 O113_2 1_555 1_555
C81_2 O114_2 1_555 1_555
C82_2 O115_2 1_555 1_555
C83_2 O116_2 1_555 1_555
C84_2 O117_2 1_555 1_555
C87_2 O110_2 1_555 1_555
C88_2 O111_2 1_555 1_555
C89_2 O112_2 1_555 1_555
C90_2 O53_2 1_555 1_555
C91_2 O96_2 1_555 1_555
C95_2 C70_2 1_555 1_555
C96_2 C71_2 1_555 1_555
C97_2 C72_2 1_555 1_555
C98_2 C73_2 1_555 1_555
C99_2 C74_2 1_555 1_555
H37_2 C95_2 1_555 1_555
H38_2 C96_2 1_555 1_555
H39_2 C97_2 1_555 1_555
H40_2 C98_2 1_555 1_555
H41_2 C99_2 1_555 1_555
C102_2 C82_2 1_555 1_555
C103_2 C83_2 1_555 1_555
C104_2 C84_2 1_555 1_555
C105_2 H42_2 1_555 1_555
C106_2 H43_2 1_555 1_555
C110_2 C50_2 1_555 1_555
C111_2 C51_2 1_555 1_555
H47_2 C110_2 1_555 1_555
H48_2 C111_2 1_555 1_555
C115_2 O123_2 1_555 1_555
C116_2 O124_2 1_555 1_555
C120_2 O26_2 1_555 1_555
C121_2 C126_2 1_555 1_555
C122_2 C127_2 1_555 1_555
C123_2 O29_2 1_555 1_555
C124_2 C129_2 1_555 1_555
C125_2 C25_2 1_555 1_555
C126_2 C26_2 1_555 1_555
C127_2 C27_2 1_555 1_555
C128_2 C28_2 1_555 1_555
C129_2 C29_2 1_555 1_555
O142_2 C126_2 1_555 1_555
O143_2 C127_2 1_555 1_555
O145_2 C129_2 1_555 1_555
C131_2 C26_2 1_555 1_555
C132_2 C27_2 1_555 1_555
C134_2 C29_2 1_555 1_555
H53_2 C131_2 1_555 1_555
H54_2 C132_2 1_555 1_555
H56_2 C134_2 1_555 1_555
C136_2 O142_2 1_555 1_555
C137_2 O143_2 1_555 1_555
C139_2 O145_2 1_555 1_555
C141_2 C136_2 1_555 1_555
C142_2 C137_2 1_555 1_555
C144_2 C139_2 1_555 1_555
O147_2 Zn5_2 1_555 1_555
O148_2 Zn44_2 1_555 1_555
O150_2 Zn45_2 1_555 1_555
O152_2 Zn53 1_555 1_555
O154_2 Zn45_2 1_555 1_555
O155_2 Zn5_2 1_555 1_555
O157_2 Zn44_2 1_555 1_555
O161_2 Zn32_2 1_555 1_555
O162_2 Zn33_2 1_555 1_555
O163_2 Zn42 1_555 1_555
O164_2 Zn35_2 1_555 1_555
O165_2 Zn43 1_555 1_555
O166_2 Zn32_2 1_555 1_555
O167_2 Zn33_2 1_555 1_555
O168_2 Zn42 1_555 1_555
O169_2 Zn35_2 1_555 1_555
O170_2 Zn43 1_555 1_555
O4_2 Zn32_2 1_555 1_555
O9_2 C9_2 1_555 1_555
C3_2 C7_2 1_555 1_555
C11_2 C12_2 1_555 1_555
C11_2 C15_2 1_555 1_555
C17_2 C18_2 1_555 1_555
C17_2 C19_2 1_555 1_555
Zn22_2 O137_4 1_555 1_555
Zn30 O138_4 1_555 1_555
Zn29_2 O139_4 1_555 1_555
Zn37 O47 1_555 1_555
Zn39_2 O46_2 1_555 1_555
O31_2 C120_2 1_555 1_555
O34_2 C123_2 1_555 1_555
O69_2 C40_2 1_555 1_555
O70_2 C41_2 1_555 1_555
O76_2 C65_2 1_555 1_555
O77_2 C66_2 1_555 1_555
O95_2 C90_2 1_555 1_555
C35_2 C55_2 1_555 1_555
C36_2 C56_2 1_555 1_555
C39_2 C59_2 1_555 1_555
C40_2 C55_2 1_555 1_555
C41_2 C56_2 1_555 1_555
C45_2 C60_2 1_555 1_555
C46_2 C61_2 1_555 1_555
C75_2 C80_2 1_555 1_555
C75_2 C95_2 1_555 1_555
C76_2 C81_2 1_555 1_555
C76_2 C96_2 1_555 1_555
C77_2 C82_2 1_555 1_555
C77_2 C97_2 1_555 1_555
C78_2 C83_2 1_555 1_555
C78_2 C98_2 1_555 1_555
C79_2 C84_2 1_555 1_555
C79_2 C99_2 1_555 1_555
C80_2 C100_2 1_555 1_555
C81_2 C101_2 1_555 1_555
C90_2 C115_2 1_555 1_555
C91_2 C116_2 1_555 1_555
C105_2 C110_2 1_555 1_555
C105_2 C115_2 1_555 1_555
C106_2 C111_2 1_555 1_555
C106_2 C116_2 1_555 1_555
C120_2 C125_2 1_555 1_555
C123_2 C128_2 1_555 1_555
C131_2 C136_2 1_555 1_555
C132_2 C137_2 1_555 1_555
C134_2 C139_2 1_555 1_555
C141_2 O147_2 1_555 1_555
C141_2 O154_2 1_555 1_555
C142_2 O148_2 1_555 1_555
C142_2 O155_2 1_555 1_555
C144_2 O150_2 1_555 1_555
C144_2 O157_2 1_555 1_555
O15_2 Zn11 1_555 1_555
Zn38 O63_2 1_555 1_555
Zn51 O149_2 1_555 1_555
O63_2 C67_2 1_555 1_555
O81 C67_2 1_555 1_555
O89_2 Zn20_2 1_555 1_555
O97_2 Zn11 1_555 1_555
O125_2 C52_2 1_555 1_555
O129_2 Zn20_2 1_555 1_555
C52_2 C67_2 1_555 1_555
C92_2 O58 1_555 1_555
C107_2 H44_2 1_555 1_555
C112_2 C52_2 1_555 1_555
H49_2 C112_2 1_555 1_555
C117_2 O125_2 1_555 1_555
H55_2 C133_2 1_555 1_555
C138_2 O144_2 1_555 1_555
C143_2 C138_2 1_555 1_555
O149_2 C143_2 1_555 1_555
O160 C143_2 1_555 1_555
Zn20_2 O140_4 1_555 1_555
O97_2 C92_2 1_555 1_555
C92_2 C117_2 1_555 1_555
C107_2 C112_2 1_555 1_555
C107_2 C117_2 1_555 1_555
C133_2 C138_2 1_555 1_555
Zn2_3 O8_3 1_555 1_555
Zn4_3 O1_3 1_555 1_555
Zn5_3 O5_3 1_555 1_555
O1_3 C20_3 1_555 1_555
O2_3 C20_3 1_555 1_555
O3_3 C8_3 1_555 1_555
O4_3 Zn4_3 1_555 1_555
H1_3 O4_3 1_555 1_555
O5_3 C4_3 1_555 1_555
O6_3 C14_3 1_555 1_555
O7_3 Zn4_3 1_555 1_555
O8_3 C4_3 1_555 1_555
O9_3 Zn2_3 1_555 1_555
O10_3 C8_3 1_555 1_555
O11_3 C5_3 1_555 1_555
O12_3 C14_3 1_555 1_555
O13_3 C13_3 1_555 1_555
O14_3 Zn5_3 1_555 1_555
O16_3 C10_3 1_555 1_555
O17_3 C16_3 1_555 1_555
C1_3 H3_3 1_555 1_555
O18_3 C6_3 1_555 1_555
C2_3 H4_3 1_555 1_555
C3_3 C2_3 1_555 1_555
H5_3 C3_3 1_555 1_555
C4_3 C7_3 1_555 1_555
C5_3 C2_3 1_555 1_555
C6_3 C9_3 1_555 1_555
C7_3 O11_3 1_555 1_555
C8_3 C5_3 1_555 1_555
C9_3 O7_3 1_555 1_555
C10_3 C13_3 1_555 1_555
C12_3 O16_3 1_555 1_555
C14_3 C19_3 1_555 1_555
C15_3 C10_3 1_555 1_555
H7_3 C15_3 1_555 1_555
C16_3 C12_3 1_555 1_555
C17_3 H8_3 1_555 1_555
C18_3 C6_3 1_555 1_555
H9_3 C18_3 1_555 1_555
C19_3 O18_3 1_555 1_555
C20_3 C21_3 1_555 1_555
C21_3 C1_3 1_555 1_555
O24_3 Zn4_3 1_555 1_555
O25_3 Zn4_3 1_555 1_555
Zn8_2 O12_3 1_555 1_555
Zn9_3 O43_3 1_555 1_555
Zn10_3 O44_3 1_555 1_555
Zn11_2 O20_3 1_555 1_555
Zn16 O72_2 1_555 1_555
Zn16_2 O73_2 1_555 1_555
Zn31_2 O10_3 1_555 1_555
Zn25_2 O86_2 1_555 1_555
Zn27_2 O131_2 1_555 1_555
Zn32_3 O2_3 1_555 1_555
Zn33_3 O4_3 1_555 1_555
Zn41_2 O27_3 1_555 1_555
Zn37 O28_3 1_555 1_555
Zn39 O30_3 1_555 1_555
Zn41 O35_2 1_555 1_555
Zn44_3 O14_3 1_555 1_555
Zn45_3 O14_3 1_555 1_555
Zn50 O51_2 1_555 1_555
Zn49_2 O52_3 1_555 1_555
O26_3 Zn33_3 1_555 1_555
O27_3 C121_3 1_555 1_555
O28_3 C122_3 1_555 1_555
O29_3 Zn32_3 1_555 1_555
O30_3 C124_3 1_555 1_555
O31_3 Zn4_3 1_555 1_555
O37_2 C121_3 1_555 1_555
O38 C122_3 1_555 1_555
O34_3 Zn33_3 1_555 1_555
O35_2 C124_3 1_555 1_555
O36_2 Zn41_2 1_555 1_555
O39_3 C60_3 1_555 1_555
O40_3 C61_3 1_555 1_555
O42_2 Zn8_2 1_555 1_555
O43_3 C64_3 1_555 1_555
O46_2 Zn41_2 1_555 1_555
O48_3 Zn44_3 1_555 1_555
O49_3 Zn45_3 1_555 1_555
O51_2 C43_2 1_555 1_555
O52_3 C44_3 1_555 1_555
O54_3 C91_3 1_555 1_555
O58_2 Zn31_2 1_555 1_555
O61_3 Zn32_3 1_555 1_555
O62_3 Zn33_3 1_555 1_555
O68_2 Zn39 1_555 1_555
O69_3 Zn2_3 1_555 1_555
O70_3 Zn2_3 1_555 1_555
O72_2 C43_2 1_555 1_555
O73_2 C44_3 1_555 1_555
O76_3 Zn2_3 1_555 1_555
O77_3 Zn2_3 1_555 1_555
O83_3 Zn28 1_555 1_555
O84_3 Zn27 1_555 1_555
O86_2 C63_2 1_555 1_555
O88_2 C64_3 1_555 1_555
O90_3 C45_3 1_555 1_555
O91_3 C46_3 1_555 1_555
O93_2 C48_2 1_555 1_555
O94_3 C49_3 1_555 1_555
O95_3 Zn9_3 1_555 1_555
O96_3 Zn10_3 1_555 1_555
O100_3 C85_3 1_555 1_555
O101_3 C86_3 1_555 1_555
O102_3 C87_3 1_555 1_555
O103_3 C88_3 1_555 1_555
O104_3 C89_3 1_555 1_555
O106_2 Zn50 1_555 1_555
O107_2 Zn49_2 1_555 1_555
O110_3 Zn8_2 1_555 1_555
O111_3 Zn9_3 1_555 1_555
O112_3 Zn10_3 1_555 1_555
O113_3 C70_3 1_555 1_555
O114_3 C71_3 1_555 1_555
O115_3 C72_3 1_555 1_555
O116_3 C73_3 1_555 1_555
O117_3 C74_3 1_555 1_555
O118_3 C100_3 1_555 1_555
O119_3 C101_3 1_555 1_555
O120_3 C102_3 1_555 1_555
O121_3 C103_3 1_555 1_555
O122_3 C104_3 1_555 1_555
C25_3 H17_3 1_555 1_555
C26_3 H18_3 1_555 1_555
C27_3 H19_3 1_555 1_555
C28_3 H20_3 1_555 1_555
C29_3 H21_3 1_555 1_555
O123_3 C50_3 1_555 1_555
O124_3 C51_3 1_555 1_555
O134 C102_3 1_555 1_555
O131_2 C103_3 1_555 1_555
O133_2 C104_3 1_555 1_555
O135_2 Zn27 1_555 1_555
O139_3 Zn9_3 1_555 1_555
O140 Zn10_3 1_555 1_555
C30_3 H22_3 1_555 1_555
C31_3 H23_3 1_555 1_555
C33_2 H25_2 1_555 1_555
C34_3 H26_3 1_555 1_555
C35_3 C30_3 1_555 1_555
C36_3 C31_3 1_555 1_555
C38_2 C33_2 1_555 1_555
C39_3 C34_3 1_555 1_555
H27_3 C35_3 1_555 1_555
H28_3 C36_3 1_555 1_555
H30_2 C38_2 1_555 1_555
H31_3 C39_3 1_555 1_555
C40_3 O48_3 1_555 1_555
C41_3 O49_3 1_555 1_555
C43_2 C58_2 1_555 1_555
C44_3 C59_3 1_555 1_555
C45_3 C30_3 1_555 1_555
C46_3 C31_3 1_555 1_555
C48_2 C33_2 1_555 1_555
C49_3 C34_3 1_555 1_555
C50_3 C65_3 1_555 1_555
C51_3 C66_3 1_555 1_555
C55_3 O90_3 1_555 1_555
C56_3 O91_3 1_555 1_555
C58_2 O93_2 1_555 1_555
C59_3 O94_3 1_555 1_555
C60_3 O83_3 1_555 1_555
C61_3 O84_3 1_555 1_555
C63_2 O42_2 1_555 1_555
C64_3 C49_3 1_555 1_555
C65_3 O61_3 1_555 1_555
C66_3 O62_3 1_555 1_555
C70_3 C85_3 1_555 1_555
C71_3 C86_3 1_555 1_555
C72_3 C87_3 1_555 1_555
C73_3 C88_3 1_555 1_555
C74_3 C89_3 1_555 1_555
C77_3 H34_3 1_555 1_555
C78_3 H35_3 1_555 1_555
C79_3 H36_3 1_555 1_555
C80_3 O113_3 1_555 1_555
C81_3 O114_3 1_555 1_555
C82_3 O115_3 1_555 1_555
C83_3 O116_3 1_555 1_555
C84_3 O117_3 1_555 1_555
C87_3 O110_3 1_555 1_555
C88_3 O111_3 1_555 1_555
C89_3 O112_3 1_555 1_555
C90_3 O53_3 1_555 1_555
C91_3 O96_3 1_555 1_555
C95_3 C70_3 1_555 1_555
C96_3 C71_3 1_555 1_555
C97_3 C72_3 1_555 1_555
C98_3 C73_3 1_555 1_555
C99_3 C74_3 1_555 1_555
H37_3 C95_3 1_555 1_555
H38_3 C96_3 1_555 1_555
H39_3 C97_3 1_555 1_555
H40_3 C98_3 1_555 1_555
H41_3 C99_3 1_555 1_555
C102_3 C82_3 1_555 1_555
C103_3 C83_3 1_555 1_555
C104_3 C84_3 1_555 1_555
C105_3 H42_3 1_555 1_555
C106_3 H43_3 1_555 1_555
C110_3 C50_3 1_555 1_555
C111_3 C51_3 1_555 1_555
H47_3 C110_3 1_555 1_555
H48_3 C111_3 1_555 1_555
C115_3 O123_3 1_555 1_555
C116_3 O124_3 1_555 1_555
C120_3 O26_3 1_555 1_555
C121_3 C126_3 1_555 1_555
C122_3 C127_3 1_555 1_555
C123_3 O29_3 1_555 1_555
C124_3 C129_3 1_555 1_555
C125_3 C25_3 1_555 1_555
C126_3 C26_3 1_555 1_555
C127_3 C27_3 1_555 1_555
C128_3 C28_3 1_555 1_555
C129_3 C29_3 1_555 1_555
O142_3 C126_3 1_555 1_555
O143_3 C127_3 1_555 1_555
O145_3 C129_3 1_555 1_555
C131_3 C26_3 1_555 1_555
C132_3 C27_3 1_555 1_555
C134_3 C29_3 1_555 1_555
H53_3 C131_3 1_555 1_555
H54_3 C132_3 1_555 1_555
H56_3 C134_3 1_555 1_555
C136_3 O142_3 1_555 1_555
C137_3 O143_3 1_555 1_555
C139_3 O145_3 1_555 1_555
C141_3 C136_3 1_555 1_555
C142_3 C137_3 1_555 1_555
C144_3 C139_3 1_555 1_555
O147_3 Zn5_3 1_555 1_555
O148_3 Zn44_3 1_555 1_555
O150_3 Zn45_3 1_555 1_555
O151_2 Zn50 1_555 1_555
O154_3 Zn45_3 1_555 1_555
O155_3 Zn5_3 1_555 1_555
O157_3 Zn44_3 1_555 1_555
O160_2 Zn49_2 1_555 1_555
O161_3 Zn32_3 1_555 1_555
O162_3 Zn33_3 1_555 1_555
O163_3 Zn41_2 1_555 1_555
O164_3 Zn37 1_555 1_555
O165_3 Zn39 1_555 1_555
O166_3 Zn32_3 1_555 1_555
O167_3 Zn33_3 1_555 1_555
O168_3 Zn41_2 1_555 1_555
O169_3 Zn37 1_555 1_555
O170_3 Zn39 1_555 1_555
O4_3 Zn32_3 1_555 1_555
O9_3 C9_3 1_555 1_555
O20_3 Zn31_2 1_555 1_555
C3_3 C7_3 1_555 1_555
C11_3 C12_3 1_555 1_555
C11_3 C15_3 1_555 1_555
C17_3 C18_3 1_555 1_555
C17_3 C19_3 1_555 1_555
Zn8_2 O136_3 1_555 1_555
Zn25_2 O136_3 1_555 1_555
Zn41 O46 1_555 1_555
O31_3 C120_3 1_555 1_555
O34_3 C123_3 1_555 1_555
O69_3 C40_3 1_555 1_555
O70_3 C41_3 1_555 1_555
O76_3 C65_3 1_555 1_555
O77_3 C66_3 1_555 1_555
O95_3 C90_3 1_555 1_555
C35_3 C55_3 1_555 1_555
C36_3 C56_3 1_555 1_555
C38_2 C58_2 1_555 1_555
C39_3 C59_3 1_555 1_555
C40_3 C55_3 1_555 1_555
C41_3 C56_3 1_555 1_555
C45_3 C60_3 1_555 1_555
C46_3 C61_3 1_555 1_555
C48_2 C63_2 1_555 1_555
C75_3 C80_3 1_555 1_555
C75_3 C95_3 1_555 1_555
C76_3 C81_3 1_555 1_555
C76_3 C96_3 1_555 1_555
C77_3 C82_3 1_555 1_555
C77_3 C97_3 1_555 1_555
C78_3 C83_3 1_555 1_555
C78_3 C98_3 1_555 1_555
C79_3 C84_3 1_555 1_555
C79_3 C99_3 1_555 1_555
C80_3 C100_3 1_555 1_555
C81_3 C101_3 1_555 1_555
C90_3 C115_3 1_555 1_555
C91_3 C116_3 1_555 1_555
C105_3 C110_3 1_555 1_555
C105_3 C115_3 1_555 1_555
C106_3 C111_3 1_555 1_555
C106_3 C116_3 1_555 1_555
C120_3 C125_3 1_555 1_555
C123_3 C128_3 1_555 1_555
C131_3 C136_3 1_555 1_555
C132_3 C137_3 1_555 1_555
C134_3 C139_3 1_555 1_555
C141_3 O147_3 1_555 1_555
C141_3 O154_3 1_555 1_555
C142_3 O148_3 1_555 1_555
C142_3 O155_3 1_555 1_555
C144_3 O150_3 1_555 1_555
C144_3 O157_3 1_555 1_555
H10_3 C22_3 1_555 1_555
C23_3 O21_3 1_555 1_555
C24_3 C23_3 1_555 1_555
O152_2 C24_3 1_555 1_555
O159 C24_3 1_555 1_555
Zn29_2 O19_3 1_555 1_555
O60 C94_3 1_555 1_555
O66_2 C69_3 1_555 1_555
O82_2 C69_3 1_555 1_555
O99_3 Zn7_3 1_555 1_555
O108_3 Zn7_3 1_555 1_555
O127_3 C54_3 1_555 1_555
O138_2 Zn7_3 1_555 1_555
C54_3 C69_3 1_555 1_555
C94_3 O99_3 1_555 1_555
C109_3 H46_3 1_555 1_555
C114_3 C54_3 1_555 1_555
H51_3 C114_3 1_555 1_555
C119_3 O127_3 1_555 1_555
C22_3 C23_3 1_555 1_555
C94_3 C119_3 1_555 1_555
C109_3 C114_3 1_555 1_555
C109_3 C119_3 1_555 1_555
Zn12_2 O41_2 1_555 1_555
Zn16_2 O71_2 1_555 1_555
Zn39_2 O64_2 1_555 1_555
Zn50_2 O50_2 1_555 1_555
Zn51_2 O107_2 1_555 1_555
O41_2 C62_2 1_555 1_555
O50_2 C42_2 1_555 1_555
O59_2 C93_3 1_555 1_555
O64_2 C68_3 1_555 1_555
O71_2 C42_2 1_555 1_555
O75_3 Zn16_2 1_555 1_555
O79_3 Zn16_2 1_555 1_555
O81_2 Zn16_2 1_555 1_555
O85_2 Zn3_2 1_555 1_555
O92_2 C47_2 1_555 1_555
O98_3 Zn13_2 1_555 1_555
O107_2 Zn50_2 1_555 1_555
O109_3 Zn13_2 1_555 1_555
O126_3 C53_3 1_555 1_555
O128_3 Zn3_2 1_555 1_555
O136_4 Zn3_2 1_555 1_555
C32_2 H24_2 1_555 1_555
C37_2 C32_2 1_555 1_555
H29_2 C37_2 1_555 1_555
C42_2 C57_2 1_555 1_555
C47_2 C32_2 1_555 1_555
C53_3 C68_3 1_555 1_555
C57_2 O92_2 1_555 1_555
C62_2 O85_2 1_555 1_555
C68_3 O79_3 1_555 1_555
C93_3 O98_3 1_555 1_555
C108_3 H45_3 1_555 1_555
C113_3 C53_3 1_555 1_555
H50_3 C113_3 1_555 1_555
C118_3 O126_3 1_555 1_555
H52_3 C130_3 1_555 1_555
C135_3 O141_3 1_555 1_555
C140_3 C135_3 1_555 1_555
O146_2 Zn50_2 1_555 1_555
O153_3 Zn51_2 1_555 1_555
Zn12_2 O136_4 1_555 1_555
C37_2 C57_2 1_555 1_555
C47_2 C62_2 1_555 1_555
C93_3 C118_3 1_555 1_555
C108_3 C113_3 1_555 1_555
C108_3 C118_3 1_555 1_555
C130_3 C135_3 1_555 1_555
C140_3 O146_2 1_555 1_555
C140_3 O153_3 1_555 1_555
O15_3 Zn1_2 1_555 1_555
O20_4 Zn1_2 1_555 1_555
Zn16 O78_2 1_555 1_555
Zn31 O20_4 1_555 1_555
Zn52_2 O149_3 1_555 1_555
Zn49 O156_2 1_555 1_555
O55_2 Zn31 1_555 1_555
O67 C67_3 1_555 1_555
O78_2 C67_3 1_555 1_555
O89_3 Zn20_3 1_555 1_555
O97_3 Zn1_2 1_555 1_555
O125_3 C52_3 1_555 1_555
O129_3 Zn20_3 1_555 1_555
C52_3 C67_3 1_555 1_555
C92_3 O55_2 1_555 1_555
C107_3 H44_3 1_555 1_555
C112_3 C52_3 1_555 1_555
H49_3 C112_3 1_555 1_555
C117_3 O125_3 1_555 1_555
H55_3 C133_3 1_555 1_555
C138_3 O144_3 1_555 1_555
C143_3 C138_3 1_555 1_555
O149_3 C143_3 1_555 1_555
O156_2 C143_3 1_555 1_555
Zn20_3 O140_2 1_555 1_555
O97_3 C92_3 1_555 1_555
C92_3 C117_3 1_555 1_555
C107_3 C112_3 1_555 1_555
C107_3 C117_3 1_555 1_555
C133_3 C138_3 1_555 1_555
O15_4 Zn11_2 1_555 1_555
Zn51_2 O149_4 1_555 1_555
O67_2 C67_4 1_555 1_555
O81_2 C67_4 1_555 1_555
O89_4 Zn20_4 1_555 1_555
O97_4 Zn11_2 1_555 1_555
O125_4 C52_4 1_555 1_555
O129_4 Zn20_4 1_555 1_555
C52_4 C67_4 1_555 1_555
C92_4 O58_2 1_555 1_555
C107_4 H44_4 1_555 1_555
C112_4 C52_4 1_555 1_555
H49_4 C112_4 1_555 1_555
C117_4 O125_4 1_555 1_555
H55_4 C133_4 1_555 1_555
C138_4 O144_4 1_555 1_555
C143_4 C138_4 1_555 1_555
O149_4 C143_4 1_555 1_555
O160_2 C143_4 1_555 1_555
Zn20_4 O140_3 1_555 1_555
O97_4 C92_4 1_555 1_555
C92_4 C117_4 1_555 1_555
C107_4 C112_4 1_555 1_555
C107_4 C117_4 1_555 1_555
C133_4 C138_4 1_555 1_555
Zn52_2 O106_2 1_555 1_555
Zn49 O106_2 1_555 1_555
O59 C93_4 1_555 1_555
O68_2 C68_4 1_555 1_555
O74_2 Zn16 1_555 1_555
O75_4 Zn16 1_555 1_555
O79_4 Zn16 1_555 1_555
O98_4 Zn13 1_555 1_555
O109_4 Zn13 1_555 1_555
O126_4 C53_4 1_555 1_555
O128_4 Zn25_2 1_555 1_555
C53_4 C68_4 1_555 1_555
C68_4 O79_4 1_555 1_555
C93_4 O98_4 1_555 1_555
C108_4 H45_4 1_555 1_555
C113_4 C53_4 1_555 1_555
H50_4 C113_4 1_555 1_555
C118_4 O126_4 1_555 1_555
H52_4 C130_4 1_555 1_555
C135_4 O141_4 1_555 1_555
C140_4 C135_4 1_555 1_555
O153_4 Zn52_2 1_555 1_555
C93_4 C118_4 1_555 1_555
C108_4 C113_4 1_555 1_555
C108_4 C118_4 1_555 1_555
C130_4 C135_4 1_555 1_555
C140_4 O151_2 1_555 1_555
C140_4 O153_4 1_555 1_555
Zn2_4 O8_4 1_555 1_555
Zn4_4 O1_4 1_555 1_555
Zn5_4 O5_4 1_555 1_555
O1_4 C20_4 1_555 1_555
O2_4 C20_4 1_555 1_555
O3_4 C8_4 1_555 1_555
O4_4 Zn4_4 1_555 1_555
H1_4 O4_4 1_555 1_555
O5_4 C4_4 1_555 1_555
O6_4 C14_4 1_555 1_555
O7_4 Zn4_4 1_555 1_555
O8_4 C4_4 1_555 1_555
O9_4 Zn2_4 1_555 1_555
O10_4 C8_4 1_555 1_555
O11_4 C5_4 1_555 1_555
O12_4 C14_4 1_555 1_555
O13_4 C13_4 1_555 1_555
O14_4 Zn5_4 1_555 1_555
O16_4 C10_4 1_555 1_555
O17_4 C16_4 1_555 1_555
C1_4 H3_4 1_555 1_555
O18_4 C6_4 1_555 1_555
C2_4 H4_4 1_555 1_555
C3_4 C2_4 1_555 1_555
H5_4 C3_4 1_555 1_555
C4_4 C7_4 1_555 1_555
C5_4 C2_4 1_555 1_555
C6_4 C9_4 1_555 1_555
C7_4 O11_4 1_555 1_555
C8_4 C5_4 1_555 1_555
C9_4 O7_4 1_555 1_555
C10_4 C13_4 1_555 1_555
C12_4 O16_4 1_555 1_555
C14_4 C19_4 1_555 1_555
C15_4 C10_4 1_555 1_555
H7_4 C15_4 1_555 1_555
C16_4 C12_4 1_555 1_555
C17_4 H8_4 1_555 1_555
C18_4 C6_4 1_555 1_555
H9_4 C18_4 1_555 1_555
C19_4 O18_4 1_555 1_555
C20_4 C21_4 1_555 1_555
C21_4 C1_4 1_555 1_555
O24_4 Zn4_4 1_555 1_555
O25_4 Zn4_4 1_555 1_555
Zn12_2 O12_4 1_555 1_555
Zn9_4 O43_4 1_555 1_555
Zn10_4 O44_4 1_555 1_555
Zn31 O10_4 1_555 1_555
Zn32_4 O2_4 1_555 1_555
Zn33_4 O4_4 1_555 1_555
Zn41 O27_4 1_555 1_555
Zn38 O28_4 1_555 1_555
Zn39_2 O30_4 1_555 1_555
Zn44_4 O14_4 1_555 1_555
Zn45_4 O14_4 1_555 1_555
Zn49 O52_4 1_555 1_555
O26_4 Zn33_4 1_555 1_555
O27_4 C121_4 1_555 1_555
O28_4 C122_4 1_555 1_555
O29_4 Zn32_4 1_555 1_555
O30_4 C124_4 1_555 1_555
O31_4 Zn4_4 1_555 1_555
O37 C121_4 1_555 1_555
O38_2 C122_4 1_555 1_555
O34_4 Zn33_4 1_555 1_555
O36_2 C124_4 1_555 1_555
O39_4 C60_4 1_555 1_555
O40_4 C61_4 1_555 1_555
O43_4 C64_4 1_555 1_555
O48_4 Zn44_4 1_555 1_555
O49_4 Zn45_4 1_555 1_555
O52_4 C44_4 1_555 1_555
O54_4 C91_4 1_555 1_555
O61_4 Zn32_4 1_555 1_555
O62_4 Zn33_4 1_555 1_555
O69_4 Zn2_4 1_555 1_555
O70_4 Zn2_4 1_555 1_555
O74_2 C44_4 1_555 1_555
O76_4 Zn2_4 1_555 1_555
O77_4 Zn2_4 1_555 1_555
O83_4 Zn26 1_555 1_555
O84_4 Zn27_2 1_555 1_555
O88 C64_4 1_555 1_555
O90_4 C45_4 1_555 1_555
O91_4 C46_4 1_555 1_555
O94_4 C49_4 1_555 1_555
O95_4 Zn9_4 1_555 1_555
O96_4 Zn10_4 1_555 1_555
O100_4 C85_4 1_555 1_555
O101_4 C86_4 1_555 1_555
O102_4 C87_4 1_555 1_555
O103_4 C88_4 1_555 1_555
O104_4 C89_4 1_555 1_555
O110_4 Zn12_2 1_555 1_555
O111_4 Zn9_4 1_555 1_555
O112_4 Zn10_4 1_555 1_555
O113_4 C70_4 1_555 1_555
O114_4 C71_4 1_555 1_555
O115_4 C72_4 1_555 1_555
O116_4 C73_4 1_555 1_555
O117_4 C74_4 1_555 1_555
O118_4 C100_4 1_555 1_555
O119_4 C101_4 1_555 1_555
O120_4 C102_4 1_555 1_555
O121_4 C103_4 1_555 1_555
O122_4 C104_4 1_555 1_555
C25_4 H17_4 1_555 1_555
C26_4 H18_4 1_555 1_555
C27_4 H19_4 1_555 1_555
C28_4 H20_4 1_555 1_555
C29_4 H21_4 1_555 1_555
O123_4 C50_4 1_555 1_555
O124_4 C51_4 1_555 1_555
O134_2 C102_4 1_555 1_555
O135_2 C103_4 1_555 1_555
O133 C104_4 1_555 1_555
O139 Zn9_4 1_555 1_555
O140_4 Zn10_4 1_555 1_555
C30_4 H22_4 1_555 1_555
C31_4 H23_4 1_555 1_555
C34_4 H26_4 1_555 1_555
C35_4 C30_4 1_555 1_555
C36_4 C31_4 1_555 1_555
C39_4 C34_4 1_555 1_555
H27_4 C35_4 1_555 1_555
H28_4 C36_4 1_555 1_555
H31_4 C39_4 1_555 1_555
C40_4 O48_4 1_555 1_555
C41_4 O49_4 1_555 1_555
C44_4 C59_4 1_555 1_555
C45_4 C30_4 1_555 1_555
C46_4 C31_4 1_555 1_555
C49_4 C34_4 1_555 1_555
C50_4 C65_4 1_555 1_555
C51_4 C66_4 1_555 1_555
C55_4 O90_4 1_555 1_555
C56_4 O91_4 1_555 1_555
C59_4 O94_4 1_555 1_555
C60_4 O83_4 1_555 1_555
C61_4 O84_4 1_555 1_555
C64_4 C49_4 1_555 1_555
C65_4 O61_4 1_555 1_555
C66_4 O62_4 1_555 1_555
C70_4 C85_4 1_555 1_555
C71_4 C86_4 1_555 1_555
C72_4 C87_4 1_555 1_555
C73_4 C88_4 1_555 1_555
C74_4 C89_4 1_555 1_555
C77_4 H34_4 1_555 1_555
C78_4 H35_4 1_555 1_555
C79_4 H36_4 1_555 1_555
C80_4 O113_4 1_555 1_555
C81_4 O114_4 1_555 1_555
C82_4 O115_4 1_555 1_555
C83_4 O116_4 1_555 1_555
C84_4 O117_4 1_555 1_555
C87_4 O110_4 1_555 1_555
C88_4 O111_4 1_555 1_555
C89_4 O112_4 1_555 1_555
C90_4 O53_4 1_555 1_555
C91_4 O96_4 1_555 1_555
C95_4 C70_4 1_555 1_555
C96_4 C71_4 1_555 1_555
C97_4 C72_4 1_555 1_555
C98_4 C73_4 1_555 1_555
C99_4 C74_4 1_555 1_555
H37_4 C95_4 1_555 1_555
H38_4 C96_4 1_555 1_555
H39_4 C97_4 1_555 1_555
H40_4 C98_4 1_555 1_555
H41_4 C99_4 1_555 1_555
C102_4 C82_4 1_555 1_555
C103_4 C83_4 1_555 1_555
C104_4 C84_4 1_555 1_555
C105_4 H42_4 1_555 1_555
C106_4 H43_4 1_555 1_555
C110_4 C50_4 1_555 1_555
C111_4 C51_4 1_555 1_555
H47_4 C110_4 1_555 1_555
H48_4 C111_4 1_555 1_555
C115_4 O123_4 1_555 1_555
C116_4 O124_4 1_555 1_555
C120_4 O26_4 1_555 1_555
C121_4 C126_4 1_555 1_555
C122_4 C127_4 1_555 1_555
C123_4 O29_4 1_555 1_555
C124_4 C129_4 1_555 1_555
C125_4 C25_4 1_555 1_555
C126_4 C26_4 1_555 1_555
C127_4 C27_4 1_555 1_555
C128_4 C28_4 1_555 1_555
C129_4 C29_4 1_555 1_555
O142_4 C126_4 1_555 1_555
O143_4 C127_4 1_555 1_555
O145_4 C129_4 1_555 1_555
C131_4 C26_4 1_555 1_555
C132_4 C27_4 1_555 1_555
C134_4 C29_4 1_555 1_555
H53_4 C131_4 1_555 1_555
H54_4 C132_4 1_555 1_555
H56_4 C134_4 1_555 1_555
C136_4 O142_4 1_555 1_555
C137_4 O143_4 1_555 1_555
C139_4 O145_4 1_555 1_555
C141_4 C136_4 1_555 1_555
C142_4 C137_4 1_555 1_555
C144_4 C139_4 1_555 1_555
O147_4 Zn5_4 1_555 1_555
O148_4 Zn44_4 1_555 1_555
O150_4 Zn45_4 1_555 1_555
O154_4 Zn45_4 1_555 1_555
O155_4 Zn5_4 1_555 1_555
O157_4 Zn44_4 1_555 1_555
O161_4 Zn32_4 1_555 1_555
O162_4 Zn33_4 1_555 1_555
O163_4 Zn41 1_555 1_555
O164_4 Zn38 1_555 1_555
O165_4 Zn39_2 1_555 1_555
O166_4 Zn32_4 1_555 1_555
O167_4 Zn33_4 1_555 1_555
O168_4 Zn41 1_555 1_555
O169_4 Zn38 1_555 1_555
O170_4 Zn39_2 1_555 1_555
O4_4 Zn32_4 1_555 1_555
O9_4 C9_4 1_555 1_555
C3_4 C7_4 1_555 1_555
C11_4 C12_4 1_555 1_555
C11_4 C15_4 1_555 1_555
C17_4 C18_4 1_555 1_555
C17_4 C19_4 1_555 1_555
O31_4 C120_4 1_555 1_555
O34_4 C123_4 1_555 1_555
O69_4 C40_4 1_555 1_555
O70_4 C41_4 1_555 1_555
O76_4 C65_4 1_555 1_555
O77_4 C66_4 1_555 1_555
O95_4 C90_4 1_555 1_555
C35_4 C55_4 1_555 1_555
C36_4 C56_4 1_555 1_555
C39_4 C59_4 1_555 1_555
C40_4 C55_4 1_555 1_555
C41_4 C56_4 1_555 1_555
C45_4 C60_4 1_555 1_555
C46_4 C61_4 1_555 1_555
C75_4 C80_4 1_555 1_555
C75_4 C95_4 1_555 1_555
C76_4 C81_4 1_555 1_555
C76_4 C96_4 1_555 1_555
C77_4 C82_4 1_555 1_555
C77_4 C97_4 1_555 1_555
C78_4 C83_4 1_555 1_555
C78_4 C98_4 1_555 1_555
C79_4 C84_4 1_555 1_555
C79_4 C99_4 1_555 1_555
C80_4 C100_4 1_555 1_555
C81_4 C101_4 1_555 1_555
C90_4 C115_4 1_555 1_555
C91_4 C116_4 1_555 1_555
C105_4 C110_4 1_555 1_555
C105_4 C115_4 1_555 1_555
C106_4 C111_4 1_555 1_555
C106_4 C116_4 1_555 1_555
C120_4 C125_4 1_555 1_555
C123_4 C128_4 1_555 1_555
C131_4 C136_4 1_555 1_555
C132_4 C137_4 1_555 1_555
C134_4 C139_4 1_555 1_555
C141_4 O147_4 1_555 1_555
C141_4 O154_4 1_555 1_555
C142_4 O148_4 1_555 1_555
C142_4 O155_4 1_555 1_555
C144_4 O150_4 1_555 1_555
C144_4 O157_4 1_555 1_555
H10_4 C22_4 1_555 1_555
C23_4 O21_4 1_555 1_555
C24_4 C23_4 1_555 1_555
O152 C24_4 1_555 1_555
O158 C24_4 1_555 1_555
Zn29 O19_4 1_555 1_555
O60_2 C94_4 1_555 1_555
O66 C69_4 1_555 1_555
O82 C69_4 1_555 1_555
O99_4 Zn7_4 1_555 1_555
O108_4 Zn7_4 1_555 1_555
O127_4 C54_4 1_555 1_555
O138_4 Zn7_4 1_555 1_555
C54_4 C69_4 1_555 1_555
C94_4 O99_4 1_555 1_555
C109_4 H46_4 1_555 1_555
C114_4 C54_4 1_555 1_555
H51_4 C114_4 1_555 1_555
C119_4 O127_4 1_555 1_555
C22_4 C23_4 1_555 1_555
C94_4 C119_4 1_555 1_555
C109_4 C114_4 1_555 1_555
C109_4 C119_4 1_555 1_555
Zn51 O52_5 1_555 1_555
O44_4 C64_5 1_555 1_555
O52_5 C44_5 1_555 1_555
O75 C44_5 1_555 1_555
O89_2 C64_5 1_555 1_555
O94_5 C49_5 1_555 1_555
C34_5 H26_5 1_555 1_555
C39_5 C34_5 1_555 1_555
H31_5 C39_5 1_555 1_555
C44_5 C59_5 1_555 1_555
C49_5 C34_5 1_555 1_555
C59_5 O94_5 1_555 1_555
C64_5 C49_5 1_555 1_555
C39_5 C59_5 1_555 1_555
Zn52_2 O52_6 1_555 1_555
O44 C64_6 1_555 1_555
O52_6 C44_6 1_555 1_555
O75_4 C44_6 1_555 1_555
O89_3 C64_6 1_555 1_555
O94_6 C49_6 1_555 1_555
C34_6 H26_6 1_555 1_555
C39_6 C34_6 1_555 1_555
H31_6 C39_6 1_555 1_555
C44_6 C59_6 1_555 1_555
C49_6 C34_6 1_555 1_555
C59_6 O94_6 1_555 1_555
C64_6 C49_6 1_555 1_555
C39_6 C59_6 1_555 1_555
Zn52 O52_7 1_555 1_555
O44_3 C64_7 1_555 1_555
O52_7 C44_7 1_555 1_555
O75_2 C44_7 1_555 1_555
O89 C64_7 1_555 1_555
O94_7 C49_7 1_555 1_555
C34_7 H26_7 1_555 1_555
C39_7 C34_7 1_555 1_555
H31_7 C39_7 1_555 1_555
C44_7 C59_7 1_555 1_555
C49_7 C34_7 1_555 1_555
C59_7 O94_7 1_555 1_555
C64_7 C49_7 1_555 1_555
C39_7 C59_7 1_555 1_555
Zn51_2 O52_8 1_555 1_555
O44_2 C64_8 1_555 1_555
O52_8 C44_8 1_555 1_555
O75_3 C44_8 1_555 1_555
O89_4 C64_8 1_555 1_555
O94_8 C49_8 1_555 1_555
C34_8 H26_8 1_555 1_555
C39_8 C34_8 1_555 1_555
H31_8 C39_8 1_555 1_555
C44_8 C59_8 1_555 1_555
C49_8 C34_8 1_555 1_555
C59_8 O94_8 1_555 1_555
C64_8 C49_8 1_555 1_555
C39_8 C59_8 1_555 1_555

#END
