
###############################################################################
#
# This file contains modified crystal structure data generated from the
# MOF subset of the Cambridge Structural Database (CSD) v543 
# hosted by the Cambridge Crystallographic Data Centre (CCDC).
#
# This work is licensed under the Creative Commons
# Attribution-NonCommercial-ShareAlike 4.0 International License.
# To view a copy of this license, visit
# http://creativecommons.org/licenses/by-nc-sa/4.0/
# or send a letter to
# Creative Commons, PO Box 1866, Mountain View, CA 94042, USA.
#
# CIF created using the CSD Python API on 29 September 2022
# The structure has been converted into the P1 space group
# The structure has a 3D framework
# The original CSD entry YEKROZ is in the tetragonal crystal system
# The framework has been calculated to contain at least 10.0% void space
# The void calculation uses a probe of radius 1.32A, grid spacing 0.4
#
###############################################################################

data_YEKROZ
_chemical_formula_moiety         '(C864 H512 Ba9 Cd10 N32 O192)n'
_symmetry_cell_setting           triclinic
_symmetry_space_group_name_H-M   'P 1'
_symmetry_Int_Tables_number      1
_space_group_name_Hall           'P 1'
loop_
_symmetry_equiv_pos_site_id
_symmetry_equiv_pos_as_xyz
1 x,y,z
_cell_length_a                   32.5028(3)
_cell_length_b                   32.5028(3)
_cell_length_c                   26.7504(4)
_cell_angle_alpha                90
_cell_angle_beta                 90
_cell_angle_gamma                90
_cell_volume                     28260
loop_
_atom_site_label
_atom_site_type_symbol
_atom_site_fract_x
_atom_site_fract_y
_atom_site_fract_z
O11 O 0.5692(2) 0.8055(2) 0.0410(3)
O12 O 0.5766(3) 0.7592(3) 0.0985(2)
C50 C 0.5564(3) 0.7358(3) 0.0184(3)
C51 C 0.5397(4) 0.6988(3) 0.0347(3)
H30 H 0.5358 0.6952 0.0688
C52 C 0.5288(2) 0.6677(3) 0.0035(3)
H31 H 0.5189 0.6429 0.0161
C54 C 0.5681(3) 0.7695(4) 0.0554(4)
Ba3 Ba 0.2500 0.49159(2) 0.0000
Cd6 Cd 0.57869(4) 0.82869(4) 0.1250
Ba1 Ba 0.75841(2) 0.5000 0.7500
Cd1 Cd 0.21559(2) 0.46559(2) 0.6250
Cd2 Cd 0.57869(4) 0.17131(4) 0.3750
O1 O 0.69335(14) 0.45699(15) 0.79020(17)
O2 O 0.28019(13) 0.45608(15) 0.66273(19)
O3 O 0.28732(15) 0.48018(18) 0.58552(19)
O4 O 0.64640(16) 0.45738(19) 0.84896(17)
C1 C 0.5198(2) 0.3595(2) 0.5835(3)
C2 C 0.6566(2) 0.4536(2) 0.8034(2)
C3 C 0.3013(2) 0.46545(18) 0.6246(2)
C4 C 0.6254(2) 0.4426(2) 0.7651(2)
C5 C 0.3463(2) 0.4519(2) 0.6260(2)
C6 C 0.47977(18) 0.3752(2) 0.5834(2)
C7 C 0.4696(2) 0.4040(2) 0.6204(2)
C8 C 0.3716(2) 0.4612(2) 0.5853(3)
H1 H 0.3617 0.4777 0.5595
C9 C 0.6071(2) 0.4242(2) 0.6824(3)
H2 H 0.6154 0.4206 0.6494
C10 C 0.5678(2) 0.4155(2) 0.6947(2)
C11 C 0.3619(2) 0.4301(2) 0.6649(2)
H3 H 0.3458 0.4257 0.6931
C12 C 0.63574(19) 0.4382(2) 0.7170(2)
H4 H 0.6623 0.4446 0.7066
C13 C 0.5326(2) 0.3263(2) 0.5475(3)
C14 C 0.4260(2) 0.4215(2) 0.6230(2)
C15 C 0.5483(2) 0.3732(2) 0.6206(2)
H5 H 0.5750 0.3628 0.6204
N1 N 0.45086(19) 0.3624(2) 0.5491(2)
H6 H 0.4485 0.3358 0.5504
H7 H 0.4270 0.3733 0.5553
C16 C 0.4974(2) 0.4170(2) 0.6558(3)
H8 H 0.4896 0.4365 0.6794
C17 C 0.53733(18) 0.4011(2) 0.6564(2)
C18 C 0.4012(2) 0.4146(2) 0.6630(2)
H9 H 0.4110 0.3990 0.6896
C19 C 0.4109(2) 0.4461(3) 0.5834(3)
H10 H 0.4277 0.4520 0.5562
O5 O 0.5692(2) 0.1945(2) 0.4590(3)
C20 C 0.5485(2) 0.2902(2) 0.5647(3)
H11 H 0.5521 0.2865 0.5989
O6 O 0.5766(3) 0.2408(3) 0.4015(2)
C21 C 0.5594(2) 0.2588(3) 0.5319(3)
H12 H 0.5689 0.2339 0.5445
C22 C 0.5561(2) 0.4228(3) 0.7440(3)
H13 H 0.5289 0.4183 0.7533
C23 C 0.5564(3) 0.2642(3) 0.4816(3)
C24 C 0.5397(4) 0.3012(3) 0.4653(3)
H14 H 0.5358 0.3048 0.4312
C25 C 0.5288(2) 0.3323(3) 0.4965(3)
H15 H 0.5189 0.3571 0.4839
C26 C 0.5841(2) 0.4367(3) 0.7796(3)
H16 H 0.5757 0.4420 0.8123
C27 C 0.5681(3) 0.2305(4) 0.4446(4)
O7 O 0.69335(14) 0.54301(15) 0.70980(17)
O8 O 0.28019(13) 0.54392(15) 0.83727(19)
O9 O 0.28732(15) 0.51982(18) 0.91448(19)
O10 O 0.64640(16) 0.54262(19) 0.65104(17)
C28 C 0.5198(2) 0.6405(2) 0.9165(3)
C29 C 0.6566(2) 0.5464(2) 0.6966(2)
C30 C 0.3013(2) 0.53455(18) 0.8754(2)
C31 C 0.6254(2) 0.5574(2) 0.7349(2)
C32 C 0.3463(2) 0.5481(2) 0.8740(2)
C33 C 0.47977(18) 0.6248(2) 0.9166(2)
C34 C 0.4696(2) 0.5960(2) 0.8796(2)
C35 C 0.3716(2) 0.5388(2) 0.9147(3)
H17 H 0.3617 0.5223 0.9405
C36 C 0.6071(2) 0.5758(2) 0.8176(3)
H18 H 0.6154 0.5794 0.8506
C37 C 0.5678(2) 0.5845(2) 0.8053(2)
C38 C 0.3619(2) 0.5699(2) 0.8351(2)
H19 H 0.3458 0.5743 0.8069
C39 C 0.63574(19) 0.5618(2) 0.7830(2)
H20 H 0.6623 0.5554 0.7934
C40 C 0.5326(2) 0.6737(2) 0.9525(3)
C41 C 0.4260(2) 0.5785(2) 0.8770(2)
C42 C 0.5483(2) 0.6268(2) 0.8794(2)
H21 H 0.5750 0.6372 0.8796
N2 N 0.45086(19) 0.6376(2) 0.9509(2)
H22 H 0.4485 0.6642 0.9496
H23 H 0.4270 0.6267 0.9447
C43 C 0.4974(2) 0.5830(2) 0.8442(3)
H24 H 0.4896 0.5635 0.8206
C44 C 0.53733(18) 0.5989(2) 0.8436(2)
C45 C 0.4012(2) 0.5854(2) 0.8370(2)
H25 H 0.4110 0.6010 0.8104
C46 C 0.4109(2) 0.5539(3) 0.9166(3)
H26 H 0.4277 0.5480 0.9438
C47 C 0.5485(2) 0.7098(2) 0.9353(3)
H27 H 0.5521 0.7135 0.9011
C48 C 0.5594(2) 0.7412(3) 0.9681(3)
H28 H 0.5689 0.7661 0.9555
C49 C 0.5561(2) 0.5772(3) 0.7560(3)
H29 H 0.5289 0.5817 0.7467
C53 C 0.5841(2) 0.5633(3) 0.7204(3)
H32 H 0.5757 0.5580 0.6877
Ba2 Ba 0.25841(2) 0.5000 0.7500
Ba3_2 Ba 0.2500 0.49159(2) 1.0000
Ba4 Ba 0.2500 0.50841(2) 0.5000
Cd3 Cd 0.21559(2) 0.53441(2) 0.8750
Cd4 Cd 0.71559(2) 0.46559(2) 0.8750
Cd5 Cd 0.71559(2) 0.53441(2) 0.6250
O13 O 0.19335(14) 0.45699(15) 0.70980(17)
O14 O 0.20699(15) 0.44335(14) 0.54020(17)
O15 O 0.20608(15) 0.53019(13) 0.58727(19)
O16 O 0.78019(13) 0.45608(15) 0.83727(19)
O17 O 0.78019(13) 0.54392(15) 0.66273(19)
O18 O 0.23018(18) 0.53732(15) 0.66448(19)
O19 O 0.73018(18) 0.46268(15) 0.66448(19)
O20 O 0.73018(18) 0.53732(15) 0.83552(19)
O21 O 0.14640(16) 0.45738(19) 0.65104(17)
O22 O 0.20738(19) 0.39640(16) 0.59896(17)
O23 O 0.5555(2) 0.1808(2) 0.2910(3)
O24 O 0.5092(3) 0.1734(3) 0.3485(2)
Cd1_2 Cd 0.28441(2) 0.53441(2) 0.1250
O2_2 O 0.21981(13) 0.54392(15) 0.16273(19)
O3_2 O 0.21268(15) 0.51982(18) 0.08552(19)
C3_2 C 0.1987(2) 0.53455(18) 0.1246(2)
C5_2 C 0.1537(2) 0.5481(2) 0.1260(2)
C6_2 C 0.02023(18) 0.6248(2) 0.0834(2)
C7_2 C 0.0304(2) 0.5960(2) 0.1204(2)
C8_2 C 0.1284(2) 0.5388(2) 0.0853(3)
H1_2 H 0.1383 0.5223 0.0595
C11_2 C 0.1381(2) 0.5699(2) 0.1649(2)
H3_2 H 0.1542 0.5743 0.1931
C14_2 C 0.0740(2) 0.5785(2) 0.1230(2)
N1_2 N 0.04914(19) 0.6376(2) 0.0491(2)
H6_2 H 0.0515 0.6642 0.0504
H7_2 H 0.0730 0.6267 0.0553
C16_2 C 0.0026(2) 0.5830(2) 0.1558(3)
H8_2 H 0.0104 0.5635 0.1794
C18_2 C 0.0988(2) 0.5854(2) 0.1630(2)
H9_2 H 0.0890 0.6010 0.1896
C19_2 C 0.0891(2) 0.5539(3) 0.0834(3)
H10_2 H 0.0723 0.5480 0.0562
O8_2 O 0.21981(13) 0.45608(15) 0.33727(19)
O9_2 O 0.21268(15) 0.48018(18) 0.41448(19)
C30_2 C 0.1987(2) 0.46545(18) 0.3754(2)
C32_2 C 0.1537(2) 0.4519(2) 0.3740(2)
C33_2 C 0.02023(18) 0.3752(2) 0.4166(2)
C34_2 C 0.0304(2) 0.4040(2) 0.3796(2)
C35_2 C 0.1284(2) 0.4612(2) 0.4147(3)
H17_2 H 0.1383 0.4777 0.4405
C38_2 C 0.1381(2) 0.4301(2) 0.3351(2)
H19_2 H 0.1542 0.4257 0.3069
C41_2 C 0.0740(2) 0.4215(2) 0.3770(2)
N2_2 N 0.04914(19) 0.3624(2) 0.4509(2)
H22_2 H 0.0515 0.3358 0.4496
H23_2 H 0.0730 0.3733 0.4447
C43_2 C 0.0026(2) 0.4170(2) 0.3442(3)
H24_2 H 0.0104 0.4365 0.3206
C45_2 C 0.0988(2) 0.4146(2) 0.3370(2)
H25_2 H 0.0890 0.3990 0.3104
C46_2 C 0.0891(2) 0.4461(3) 0.4166(3)
H26_2 H 0.0723 0.4520 0.4438
Ba2_2 Ba 0.24159(2) 0.5000 0.2500
Cd3_2 Cd 0.28441(2) 0.46559(2) 0.3750
O13_2 O 0.30665(14) 0.54301(15) 0.20980(17)
O14_2 O 0.29301(15) 0.55665(14) 0.04020(17)
O15_2 O 0.29392(15) 0.46981(13) 0.08727(19)
O18_2 O 0.26982(18) 0.46268(15) 0.16448(19)
O21_2 O 0.35360(16) 0.54262(19) 0.15104(17)
O22_2 O 0.29262(19) 0.60360(16) 0.09896(17)
Ba1_2 Ba 0.74159(2) 0.5000 0.2500
O1_2 O 0.80665(14) 0.54301(15) 0.29020(17)
O4_2 O 0.85360(16) 0.54262(19) 0.34896(17)
C1_2 C 0.9802(2) 0.6405(2) 0.0835(3)
C2_2 C 0.8434(2) 0.5464(2) 0.3034(2)
C4_2 C 0.8746(2) 0.5574(2) 0.2651(2)
C9_2 C 0.8929(2) 0.5758(2) 0.1824(3)
H2_2 H 0.8846 0.5794 0.1494
C10_2 C 0.9322(2) 0.5845(2) 0.1947(2)
C12_2 C 0.86426(19) 0.5618(2) 0.2170(2)
H4_2 H 0.8377 0.5554 0.2066
C13_2 C 0.9674(2) 0.6737(2) 0.0475(3)
C15_2 C 0.9517(2) 0.6268(2) 0.1206(2)
H5_2 H 0.9250 0.6372 0.1204
C17_2 C 0.96267(18) 0.5989(2) 0.1564(2)
C20_2 C 0.9515(2) 0.7098(2) 0.0647(3)
H11_2 H 0.9479 0.7135 0.0989
C21_2 C 0.9406(2) 0.7412(3) 0.0319(3)
H12_2 H 0.9311 0.7661 0.0445
C22_2 C 0.9439(2) 0.5772(3) 0.2440(3)
H13_2 H 0.9711 0.5817 0.2533
C26_2 C 0.9159(2) 0.5633(3) 0.2796(3)
H16_2 H 0.9243 0.5580 0.3123
O7_2 O 0.80665(14) 0.45699(15) 0.20980(17)
O10_2 O 0.85360(16) 0.45738(19) 0.15104(17)
C28_2 C 0.9802(2) 0.3595(2) 0.4165(3)
C29_2 C 0.8434(2) 0.4536(2) 0.1966(2)
C31_2 C 0.8746(2) 0.4426(2) 0.2349(2)
C36_2 C 0.8929(2) 0.4242(2) 0.3176(3)
H18_2 H 0.8846 0.4206 0.3506
C37_2 C 0.9322(2) 0.4155(2) 0.3053(2)
C39_2 C 0.86426(19) 0.4382(2) 0.2830(2)
H20_2 H 0.8377 0.4446 0.2934
C40_2 C 0.9674(2) 0.3263(2) 0.4525(3)
C42_2 C 0.9517(2) 0.3732(2) 0.3794(2)
H21_2 H 0.9250 0.3628 0.3796
C44_2 C 0.96267(18) 0.4011(2) 0.3436(2)
O11_2 O 0.9308(2) 0.1945(2) 0.5410(3)
C47_2 C 0.9515(2) 0.2902(2) 0.4353(3)
H27_2 H 0.9479 0.2865 0.4011
O12_2 O 0.9234(3) 0.2408(3) 0.5985(2)
C48_2 C 0.9406(2) 0.2588(3) 0.4681(3)
H28_2 H 0.9311 0.2339 0.4555
C49_2 C 0.9439(2) 0.4228(3) 0.2560(3)
H29_2 H 0.9711 0.4183 0.2467
C50_2 C 0.9436(3) 0.2642(3) 0.5184(3)
C51_2 C 0.9603(4) 0.3012(3) 0.5347(3)
H30_2 H 0.9642 0.3048 0.5688
C52_2 C 0.9712(2) 0.3323(3) 0.5035(3)
H31_2 H 0.9811 0.3571 0.5161
C53_2 C 0.9159(2) 0.4367(3) 0.2204(3)
H32_2 H 0.9243 0.4420 0.1877
C54_2 C 0.9319(3) 0.2305(4) 0.5554(4)
Cd4_2 Cd 0.78441(2) 0.53441(2) 0.3750
Cd5_2 Cd 0.78441(2) 0.46559(2) 0.1250
Cd6_2 Cd 0.92131(4) 0.17131(4) 0.6250
O16_2 O 0.71981(13) 0.54392(15) 0.33727(19)
O17_2 O 0.71981(13) 0.45608(15) 0.16273(19)
O19_2 O 0.76982(18) 0.53732(15) 0.16448(19)
O20_2 O 0.76982(18) 0.46268(15) 0.33552(19)
Cd2_2 Cd 0.07869(4) 0.32869(4) 0.6250
O5_2 O 0.0555(2) 0.3192(2) 0.7090(3)
O6_2 O 0.0092(3) 0.3266(3) 0.6515(2)
H12_3 H 0.0161 0.3189 0.7945
C27_2 C 0.0195(4) 0.3181(3) 0.6946(4)
O23_2 O 0.0692(2) 0.3055(2) 0.5410(3)
O24_2 O 0.0766(3) 0.2592(3) 0.5985(2)
Ba1_3 Ba 0.7500 0.50841(2) 0.0000
O1_3 O 0.79301(15) 0.44335(14) 0.04020(17)
O4_3 O 0.79262(19) 0.39640(16) 0.09896(17)
C2_3 C 0.7964(2) 0.4066(2) 0.0534(2)
C4_3 C 0.8074(2) 0.3754(2) 0.0151(2)
H13_3 H 0.8317 0.2789 0.0033
C26_3 C 0.8133(3) 0.3341(2) 0.0296(3)
H16_3 H 0.8080 0.3257 0.0623
O8_3 O 0.70608(15) 0.03019(13) 0.08727(19)
O9_3 O 0.73018(18) 0.03732(15) 0.16448(19)
C28_3 C 0.6095(2) 0.2698(2) 0.1665(3)
C30_3 C 0.71545(18) 0.0513(2) 0.1254(2)
C32_3 C 0.7019(2) 0.0963(2) 0.1240(2)
C33_3 C 0.6252(2) 0.22977(18) 0.1666(2)
C34_3 C 0.6540(2) 0.2196(2) 0.1296(2)
C35_3 C 0.7112(2) 0.1216(2) 0.1647(3)
H17_3 H 0.7277 0.1117 0.1905
C36_3 C 0.6742(2) 0.3571(2) 0.0676(3)
H18_3 H 0.6706 0.3654 0.1006
C37_3 C 0.6655(2) 0.3178(2) 0.0553(2)
C38_3 C 0.6801(2) 0.1119(2) 0.0851(2)
H19_3 H 0.6757 0.0958 0.0569
C39_3 C 0.6882(2) 0.38574(19) 0.0330(2)
H20_3 H 0.6946 0.4123 0.0434
C40_3 C 0.5763(2) 0.2826(2) 0.2025(3)
C41_3 C 0.6715(2) 0.1760(2) 0.1270(2)
C42_3 C 0.6232(2) 0.2983(2) 0.1294(2)
H21_3 H 0.6128 0.3250 0.1296
N2_3 N 0.6124(2) 0.20086(19) 0.2009(2)
H22_3 H 0.5858 0.1985 0.1996
H23_3 H 0.6233 0.1770 0.1947
C43_3 C 0.6670(2) 0.2474(2) 0.0942(3)
H24_3 H 0.6865 0.2396 0.0706
C44_3 C 0.6511(2) 0.28733(18) 0.0936(2)
C45_3 C 0.6646(2) 0.1512(2) 0.0870(2)
H25_3 H 0.6490 0.1610 0.0604
C46_3 C 0.6961(3) 0.1609(2) 0.1666(3)
H26_3 H 0.7020 0.1777 0.1938
O11_3 O 0.4445(2) 0.3192(2) 0.2910(3)
C47_3 C 0.5402(2) 0.2985(2) 0.1853(3)
H27_3 H 0.5365 0.3021 0.1511
O12_3 O 0.4908(3) 0.3266(3) 0.3485(2)
C48_3 C 0.5088(3) 0.3094(2) 0.2181(3)
H28_3 H 0.4839 0.3189 0.2055
C49_3 C 0.6728(3) 0.3061(2) 0.0060(3)
C50_3 C 0.5142(3) 0.3064(3) 0.2684(3)
C51_3 C 0.5512(3) 0.2897(4) 0.2847(3)
H30_3 H 0.5548 0.2858 0.3188
C52_3 C 0.5823(3) 0.2788(2) 0.2535(3)
H31_3 H 0.6071 0.2689 0.2661
C54_3 C 0.4805(4) 0.3181(3) 0.3054(4)
Ba2_3 Ba 0.7500 0.00841(2) 0.0000
Ba3_3 Ba 0.75841(2) 0.0000 0.2500
Cd6_3 Cd 0.42131(4) 0.32869(4) 0.3750
O16_3 O 0.79392(15) 0.53019(13) 0.08727(19)
O20_3 O 0.71268(15) 0.48018(18) 0.08552(19)
Ba1_4 Ba 0.7500 0.50841(2) 1.0000
O2_3 O 0.79392(15) 0.03019(13) 0.91273(19)
O3_3 O 0.76982(18) 0.03732(15) 0.83552(19)
C1_3 C 0.8905(2) 0.2698(2) 0.8335(3)
C3_3 C 0.78455(18) 0.0513(2) 0.8746(2)
C5_3 C 0.7981(2) 0.0963(2) 0.8760(2)
C6_3 C 0.8748(2) 0.22977(18) 0.8334(2)
C7_3 C 0.8460(2) 0.2196(2) 0.8704(2)
C8_3 C 0.7888(2) 0.1216(2) 0.8353(3)
H1_3 H 0.7723 0.1117 0.8095
C9_3 C 0.8258(2) 0.3571(2) 0.9324(3)
H2_3 H 0.8294 0.3654 0.8994
C10_3 C 0.8345(2) 0.3178(2) 0.9447(2)
C11_3 C 0.8199(2) 0.1119(2) 0.9149(2)
H3_3 H 0.8243 0.0958 0.9431
C12_3 C 0.8118(2) 0.38574(19) 0.9670(2)
H4_3 H 0.8054 0.4123 0.9566
C13_3 C 0.9237(2) 0.2826(2) 0.7975(3)
C14_3 C 0.8285(2) 0.1760(2) 0.8730(2)
C15_3 C 0.8768(2) 0.2983(2) 0.8706(2)
H5_3 H 0.8872 0.3250 0.8704
N1_3 N 0.8876(2) 0.20086(19) 0.7991(2)
H6_3 H 0.9142 0.1985 0.8004
H7_3 H 0.8767 0.1770 0.8053
C16_3 C 0.8330(2) 0.2474(2) 0.9058(3)
H8_3 H 0.8135 0.2396 0.9294
C17_3 C 0.8489(2) 0.28733(18) 0.9064(2)
C18_3 C 0.8354(2) 0.1512(2) 0.9130(2)
H9_3 H 0.8510 0.1610 0.9396
C19_3 C 0.8039(3) 0.1609(2) 0.8334(3)
H10_3 H 0.7980 0.1777 0.8062
C20_3 C 0.9598(2) 0.2985(2) 0.8147(3)
H11_3 H 0.9635 0.3021 0.8489
C21_3 C 0.9912(3) 0.3094(2) 0.7819(3)
C22_3 C 0.8272(3) 0.3061(2) 0.9940(3)
C23_2 C 0.9858(3) 0.3064(3) 0.7316(3)
C24_2 C 0.9488(3) 0.2897(4) 0.7153(3)
H14_2 H 0.9452 0.2858 0.6812
C25_2 C 0.9177(3) 0.2788(2) 0.7465(3)
H15_2 H 0.8929 0.2689 0.7339
O7_3 O 0.70699(15) 0.44335(14) 0.95980(17)
O10_3 O 0.70738(19) 0.39640(16) 0.90104(17)
C29_3 C 0.7036(2) 0.4066(2) 0.9466(2)
C31_3 C 0.6926(2) 0.3754(2) 0.9849(2)
H29_3 H 0.6683 0.2789 0.9967
C53_3 C 0.6867(3) 0.3341(2) 0.9704(3)
H32_3 H 0.6920 0.3257 0.9377
Ba2_4 Ba 0.7500 0.00841(2) 1.0000
Ba4_2 Ba 0.74159(2) -0.0000 0.7500
O17_3 O 0.70608(15) 0.53019(13) 0.91273(19)
O19_3 O 0.78732(15) 0.48018(18) 0.91448(19)
Ba3_4 Ba 0.75841(2) 1.0000 0.2500
Cd3_3 Cd 0.71559(2) 0.96559(2) 0.1250
Cd1_3 Cd 0.78441(2) 0.96559(2) 0.8750
Ba4_3 Ba 0.74159(2) 1.0000 0.7500
O13_3 O 0.79301(15) 0.94335(14) 0.95980(17)
O14_3 O 0.80665(14) 0.95699(15) 0.79020(17)
O15_3 O 0.71981(13) 0.95608(15) 0.83727(19)
O18_3 O 0.71268(15) 0.98018(18) 0.91448(19)
O21_3 O 0.79262(19) 0.89640(16) 0.90104(17)
O22_3 O 0.85360(16) 0.95738(19) 0.84896(17)
Cd1_4 Cd 0.71559(2) 0.03441(2) 0.3750
Cd3_4 Cd 0.78441(2) 0.03441(2) 0.6250
O13_4 O 0.70699(15) 0.05665(14) 0.45980(17)
O14_4 O 0.69335(14) 0.04301(15) 0.29020(17)
O15_4 O 0.78019(13) 0.04392(15) 0.33727(19)
O18_4 O 0.78732(15) 0.01982(18) 0.41448(19)
O21_4 O 0.70738(19) 0.10360(16) 0.40104(17)
O22_4 O 0.64640(16) 0.04262(19) 0.34896(17)
Ba1_5 Ba 0.7500 0.49159(2) 0.5000
Cd2_3 Cd 0.42131(4) 0.67131(4) 0.1250
O1_4 O 0.70699(15) 0.55665(14) 0.54020(17)
O2_4 O 0.70608(15) 0.96981(13) 0.41273(19)
O3_4 O 0.73018(18) 0.96268(15) 0.33552(19)
O4_4 O 0.70738(19) 0.60360(16) 0.59896(17)
C1_4 C 0.6095(2) 0.7302(2) 0.3335(3)
C2_4 C 0.7036(2) 0.5934(2) 0.5534(2)
C3_4 C 0.71545(18) 0.9487(2) 0.3746(2)
C4_4 C 0.6926(2) 0.6246(2) 0.5151(2)
C5_4 C 0.7019(2) 0.9037(2) 0.3760(2)
C6_4 C 0.6252(2) 0.77023(18) 0.3334(2)
C7_4 C 0.6540(2) 0.7804(2) 0.3704(2)
C8_4 C 0.7112(2) 0.8784(2) 0.3353(3)
H1_4 H 0.7277 0.8883 0.3095
C9_4 C 0.6742(2) 0.6429(2) 0.4324(3)
H2_4 H 0.6706 0.6346 0.3994
C10_4 C 0.6655(2) 0.6822(2) 0.4447(2)
C11_4 C 0.6801(2) 0.8881(2) 0.4149(2)
H3_4 H 0.6757 0.9042 0.4431
C12_4 C 0.6882(2) 0.61426(19) 0.4670(2)
H4_4 H 0.6946 0.5877 0.4566
C13_4 C 0.5763(2) 0.7174(2) 0.2975(3)
C14_4 C 0.6715(2) 0.8240(2) 0.3730(2)
C15_4 C 0.6232(2) 0.7017(2) 0.3706(2)
H5_4 H 0.6128 0.6750 0.3704
N1_4 N 0.6124(2) 0.79914(19) 0.2991(2)
H6_4 H 0.5858 0.8015 0.3004
H7_4 H 0.6233 0.8230 0.3053
C16_4 C 0.6670(2) 0.7526(2) 0.4058(3)
H8_4 H 0.6865 0.7604 0.4294
C17_4 C 0.6511(2) 0.71267(18) 0.4064(2)
C18_4 C 0.6646(2) 0.8488(2) 0.4130(2)
H9_4 H 0.6490 0.8390 0.4396
C19_4 C 0.6961(3) 0.8391(2) 0.3334(3)
H10_4 H 0.7020 0.8223 0.3062
O5_3 O 0.4445(2) 0.6808(2) 0.2090(3)
C20_4 C 0.5402(2) 0.7015(2) 0.3147(3)
H11_4 H 0.5365 0.6979 0.3489
O6_3 O 0.4908(3) 0.6734(3) 0.1515(2)
C21_4 C 0.5088(3) 0.6906(2) 0.2819(3)
H12_4 H 0.4839 0.6811 0.2945
C22_4 C 0.6728(3) 0.6939(2) 0.4940(3)
H13_4 H 0.6683 0.7211 0.5033
C23_3 C 0.5142(3) 0.6936(3) 0.2316(3)
C24_3 C 0.5512(3) 0.7103(4) 0.2153(3)
H14_3 H 0.5548 0.7142 0.1812
C25_3 C 0.5823(3) 0.7212(2) 0.2465(3)
H15_3 H 0.6071 0.7311 0.2339
C26_4 C 0.6867(3) 0.6659(2) 0.5296(3)
H16_4 H 0.6920 0.6743 0.5623
C27_3 C 0.4805(4) 0.6819(3) 0.1946(4)
O7_4 O 0.79301(15) 0.55665(14) 0.45980(17)
O8_4 O 0.79392(15) 0.96981(13) 0.58727(19)
O9_4 O 0.76982(18) 0.96268(15) 0.66448(19)
O10_4 O 0.79262(19) 0.60360(16) 0.40104(17)
C28_4 C 0.8905(2) 0.7302(2) 0.6665(3)
C29_4 C 0.7964(2) 0.5934(2) 0.4466(2)
C30_4 C 0.78455(18) 0.9487(2) 0.6254(2)
C31_4 C 0.8074(2) 0.6246(2) 0.4849(2)
C32_4 C 0.7981(2) 0.9037(2) 0.6240(2)
C33_4 C 0.8748(2) 0.77023(18) 0.6666(2)
C34_4 C 0.8460(2) 0.7804(2) 0.6296(2)
C35_4 C 0.7888(2) 0.8784(2) 0.6647(3)
H17_4 H 0.7723 0.8883 0.6905
C36_4 C 0.8258(2) 0.6429(2) 0.5676(3)
H18_4 H 0.8294 0.6346 0.6006
C37_4 C 0.8345(2) 0.6822(2) 0.5553(2)
C38_4 C 0.8199(2) 0.8881(2) 0.5851(2)
H19_4 H 0.8243 0.9042 0.5569
C39_4 C 0.8118(2) 0.61426(19) 0.5330(2)
H20_4 H 0.8054 0.5877 0.5434
C40_4 C 0.9237(2) 0.7174(2) 0.7025(3)
C41_4 C 0.8285(2) 0.8240(2) 0.6270(2)
C42_4 C 0.8768(2) 0.7017(2) 0.6294(2)
H21_4 H 0.8872 0.6750 0.6296
N2_4 N 0.8876(2) 0.79914(19) 0.7009(2)
H22_4 H 0.9142 0.8015 0.6996
H23_4 H 0.8767 0.8230 0.6947
C43_4 C 0.8330(2) 0.7526(2) 0.5942(3)
H24_4 H 0.8135 0.7604 0.5706
C44_4 C 0.8489(2) 0.71267(18) 0.5936(2)
C45_4 C 0.8354(2) 0.8488(2) 0.5870(2)
H25_4 H 0.8510 0.8390 0.5604
C46_4 C 0.8039(3) 0.8391(2) 0.6666(3)
H26_4 H 0.7980 0.8223 0.6938
C47_4 C 0.9598(2) 0.7015(2) 0.6853(3)
H27_4 H 0.9635 0.6979 0.6511
C48_4 C 0.9912(3) 0.6906(2) 0.7181(3)
C49_4 C 0.8272(3) 0.6939(2) 0.5060(3)
H29_4 H 0.8317 0.7211 0.4967
C50_4 C 0.9858(3) 0.6936(3) 0.7684(3)
C51_4 C 0.9488(3) 0.7103(4) 0.7847(3)
H30_4 H 0.9452 0.7142 0.8188
C52_4 C 0.9177(3) 0.7212(2) 0.7535(3)
H31_4 H 0.8929 0.7311 0.7661
C53_4 C 0.8133(3) 0.6659(2) 0.4704(3)
H32_4 H 0.8080 0.6743 0.4377
Ba2_5 Ba 0.7500 0.99159(2) 0.5000
O16_4 O 0.70608(15) 0.46981(13) 0.58727(19)
O17_4 O 0.79392(15) 0.46981(13) 0.41273(19)
O19_4 O 0.71268(15) 0.51982(18) 0.41448(19)
O20_4 O 0.78732(15) 0.51982(18) 0.58552(19)
O23_3 O 0.4308(2) 0.6945(2) 0.0410(3)
O24_3 O 0.4234(3) 0.7408(3) 0.0985(2)
O13_5 O 0.30665(14) 0.45699(15) 0.29020(17)
O14_5 O 0.29301(15) 0.44335(14) 0.45980(17)
O15_5 O 0.29392(15) 0.53019(13) 0.41273(19)
O18_5 O 0.26982(18) 0.53732(15) 0.33552(19)
O21_5 O 0.35360(16) 0.45738(19) 0.34896(17)
O22_5 O 0.29262(19) 0.39640(16) 0.40104(17)
O23_4 O 0.9445(2) 0.1808(2) 0.7090(3)
O24_4 O 0.9908(3) 0.1734(3) 0.6515(2)
O23_5 O 0.5555(2) 0.8192(2) 0.2090(3)
O24_5 O 0.5092(3) 0.8266(3) 0.1515(2)
O13_6 O 0.19335(14) 0.54301(15) 0.79020(17)
O14_6 O 0.20699(15) 0.55665(14) 0.95980(17)
O15_6 O 0.20608(15) 0.46981(13) 0.91273(19)
O18_6 O 0.23018(18) 0.46268(15) 0.83552(19)
O21_6 O 0.14640(16) 0.54262(19) 0.84896(17)
O22_6 O 0.20738(19) 0.60360(16) 0.90104(17)
O23_6 O 0.4308(2) 0.3055(2) 0.4590(3)
O24_6 O 0.4234(3) 0.2592(3) 0.4015(2)
O13_7 O 0.70699(15) 0.94335(14) 0.04020(17)
O14_7 O 0.69335(14) 0.95699(15) 0.20980(17)
O15_7 O 0.78019(13) 0.95608(15) 0.16273(19)
O18_7 O 0.78732(15) 0.98018(18) 0.08552(19)
O21_7 O 0.70738(19) 0.89640(16) 0.09896(17)
O22_7 O 0.64640(16) 0.95738(19) 0.15104(17)
O13_8 O 0.79301(15) 0.05665(14) 0.54020(17)
O14_8 O 0.80665(14) 0.04301(15) 0.70980(17)
O15_8 O 0.71981(13) 0.04392(15) 0.66273(19)
O18_8 O 0.71268(15) 0.01982(18) 0.58552(19)
O21_8 O 0.79262(19) 0.10360(16) 0.59896(17)
O22_8 O 0.85360(16) 0.04262(19) 0.65104(17)
Ba1_6 Ba 0.25841(2) -0.0000 0.2500
O7_5 O 0.19335(14) 0.04301(15) 0.20980(17)
O10_5 O 0.14640(16) 0.04262(19) 0.15104(17)
C28_5 C 0.0198(2) 0.1405(2) 0.4165(3)
C29_5 C 0.1566(2) 0.0464(2) 0.1966(2)
C31_5 C 0.1254(2) 0.0574(2) 0.2349(2)
C36_5 C 0.1071(2) 0.0758(2) 0.3176(3)
H18_5 H 0.1154 0.0794 0.3506
C37_5 C 0.0678(2) 0.0845(2) 0.3053(2)
C39_5 C 0.13574(19) 0.0618(2) 0.2830(2)
H20_5 H 0.1623 0.0554 0.2934
C40_5 C 0.0326(2) 0.1737(2) 0.4525(3)
C42_5 C 0.0483(2) 0.1268(2) 0.3794(2)
H21_5 H 0.0750 0.1372 0.3796
C44_5 C 0.03733(18) 0.0989(2) 0.3436(2)
C47_5 C 0.0485(2) 0.2098(2) 0.4353(3)
H27_5 H 0.0521 0.2135 0.4011
C48_5 C 0.0594(2) 0.2412(3) 0.4681(3)
H28_4 H 0.0689 0.2661 0.4555
C49_5 C 0.0561(2) 0.0772(3) 0.2560(3)
H29_5 H 0.0289 0.0817 0.2467
C50_5 C 0.0564(3) 0.2358(3) 0.5184(3)
C51_5 C 0.0397(4) 0.1988(3) 0.5347(3)
H30_5 H 0.0358 0.1952 0.5688
C52_5 C 0.0288(2) 0.1677(3) 0.5035(3)
H31_5 H 0.0189 0.1429 0.5161
C53_5 C 0.0841(2) 0.0633(3) 0.2204(3)
H32_5 H 0.0757 0.0580 0.1877
C54_4 C 0.0681(3) 0.2695(4) 0.5554(4)
Cd5_3 Cd 0.21559(2) 0.03441(2) 0.1250
O17_5 O 0.28019(13) 0.04392(15) 0.16273(19)
O20_5 O 0.23018(18) 0.03732(15) 0.33552(19)
Ba1_7 Ba 0.25841(2) 1.0000 0.2500
O1_5 O 0.19335(14) 0.95699(15) 0.29020(17)
O4_5 O 0.14640(16) 0.95738(19) 0.34896(17)
C1_5 C 0.0198(2) 0.8595(2) 0.0835(3)
C2_5 C 0.1566(2) 0.9536(2) 0.3034(2)
C4_5 C 0.1254(2) 0.9426(2) 0.2651(2)
C9_5 C 0.1071(2) 0.9242(2) 0.1824(3)
H2_5 H 0.1154 0.9206 0.1494
C10_5 C 0.0678(2) 0.9155(2) 0.1947(2)
C12_5 C 0.13574(19) 0.9382(2) 0.2170(2)
H4_5 H 0.1623 0.9446 0.2066
C13_5 C 0.0326(2) 0.8263(2) 0.0475(3)
C15_5 C 0.0483(2) 0.8732(2) 0.1206(2)
H5_5 H 0.0750 0.8628 0.1204
C17_5 C 0.03733(18) 0.9011(2) 0.1564(2)
C20_5 C 0.0485(2) 0.7902(2) 0.0647(3)
H11_5 H 0.0521 0.7865 0.0989
C21_5 C 0.0594(2) 0.7588(3) 0.0319(3)
H12_5 H 0.0689 0.7339 0.0445
C22_5 C 0.0561(2) 0.9228(3) 0.2440(3)
H13_5 H 0.0289 0.9183 0.2533
C26_5 C 0.0841(2) 0.9367(3) 0.2796(3)
H16_5 H 0.0757 0.9420 0.3123
Cd4_3 Cd 0.21559(2) 0.96559(2) 0.3750
O16_5 O 0.28019(13) 0.95608(15) 0.33727(19)
O19_5 O 0.23018(18) 0.96268(15) 0.16448(19)
C30_5 C 0.8013(2) 0.03455(18) 0.3754(2)
C32_5 C 0.8463(2) 0.0481(2) 0.3740(2)
C33_5 C 0.97977(18) 0.1248(2) 0.4166(2)
C34_5 C 0.9696(2) 0.0960(2) 0.3796(2)
C35_5 C 0.8716(2) 0.0388(2) 0.4147(3)
H17_5 H 0.8617 0.0223 0.4405
C38_5 C 0.8619(2) 0.0699(2) 0.3351(2)
H19_5 H 0.8458 0.0743 0.3069
C41_5 C 0.9260(2) 0.0785(2) 0.3770(2)
N2_5 N 0.95086(19) 0.1376(2) 0.4509(2)
H22_5 H 0.9485 0.1642 0.4496
H23_5 H 0.9270 0.1267 0.4447
C43_5 C 0.9974(2) 0.0830(2) 0.3442(3)
H24_5 H 0.9896 0.0635 0.3206
C45_5 C 0.9012(2) 0.0854(2) 0.3370(2)
H25_5 H 0.9110 0.1010 0.3104
C46_5 C 0.9109(2) 0.0539(3) 0.4166(3)
H26_5 H 0.9277 0.0480 0.4438
C3_5 C 0.8013(2) 0.96545(18) 0.1246(2)
C5_5 C 0.8463(2) 0.9519(2) 0.1260(2)
C6_5 C 0.97977(18) 0.8752(2) 0.0834(2)
C7_5 C 0.9696(2) 0.9040(2) 0.1204(2)
C8_5 C 0.8716(2) 0.9612(2) 0.0853(3)
H1_5 H 0.8617 0.9777 0.0595
C11_5 C 0.8619(2) 0.9301(2) 0.1649(2)
H3_5 H 0.8458 0.9257 0.1931
C14_5 C 0.9260(2) 0.9215(2) 0.1230(2)
N1_5 N 0.95086(19) 0.8624(2) 0.0491(2)
H6_5 H 0.9485 0.8358 0.0504
H7_5 H 0.9270 0.8733 0.0553
C16_5 C 0.9974(2) 0.9170(2) 0.1558(3)
H8_5 H 0.9896 0.9365 0.1794
C18_5 C 0.9012(2) 0.9146(2) 0.1630(2)
H9_5 H 0.9110 0.8990 0.1896
C19_5 C 0.9109(2) 0.9461(3) 0.0834(3)
H10_5 H 0.9277 0.9520 0.0562
Ba1_8 Ba 0.24159(2) 0.0000 0.7500
O1_6 O 0.30665(14) 0.04301(15) 0.79020(17)
O4_6 O 0.35360(16) 0.04262(19) 0.84896(17)
C1_6 C 0.4802(2) 0.1405(2) 0.5835(3)
C2_6 C 0.3434(2) 0.0464(2) 0.8034(2)
C3_6 C 0.6987(2) 0.03455(18) 0.6246(2)
C4_6 C 0.3746(2) 0.0574(2) 0.7651(2)
C5_6 C 0.6537(2) 0.0481(2) 0.6260(2)
C6_6 C 0.52023(18) 0.1248(2) 0.5834(2)
C7_6 C 0.5304(2) 0.0960(2) 0.6204(2)
C8_6 C 0.6284(2) 0.0388(2) 0.5853(3)
H1_6 H 0.6383 0.0223 0.5595
C9_6 C 0.3929(2) 0.0758(2) 0.6824(3)
H2_6 H 0.3846 0.0794 0.6494
C10_6 C 0.4322(2) 0.0845(2) 0.6947(2)
C11_6 C 0.6381(2) 0.0699(2) 0.6649(2)
H3_6 H 0.6542 0.0743 0.6931
C12_6 C 0.36426(19) 0.0618(2) 0.7170(2)
H4_6 H 0.3377 0.0554 0.7066
C13_6 C 0.4674(2) 0.1737(2) 0.5475(3)
C14_6 C 0.5740(2) 0.0785(2) 0.6230(2)
C15_6 C 0.4517(2) 0.1268(2) 0.6206(2)
H5_6 H 0.4250 0.1372 0.6204
N1_6 N 0.54914(19) 0.1376(2) 0.5491(2)
H6_6 H 0.5515 0.1642 0.5504
H7_6 H 0.5730 0.1267 0.5553
C16_6 C 0.5026(2) 0.0830(2) 0.6558(3)
H8_6 H 0.5104 0.0635 0.6794
C17_6 C 0.46267(18) 0.0989(2) 0.6564(2)
C18_6 C 0.5988(2) 0.0854(2) 0.6630(2)
H9_6 H 0.5890 0.1010 0.6896
C19_6 C 0.5891(2) 0.0539(3) 0.5834(3)
H10_6 H 0.5723 0.0480 0.5562
C20_6 C 0.4515(2) 0.2098(2) 0.5647(3)
H11_6 H 0.4479 0.2135 0.5989
C21_6 C 0.4406(2) 0.2412(3) 0.5319(3)
H12_6 H 0.4311 0.2661 0.5445
C22_6 C 0.4439(2) 0.0772(3) 0.7440(3)
H13_6 H 0.4711 0.0817 0.7533
C23_4 C 0.4436(3) 0.2358(3) 0.4816(3)
C24_4 C 0.4603(4) 0.1988(3) 0.4653(3)
H14_4 H 0.4642 0.1952 0.4312
C25_4 C 0.4712(2) 0.1677(3) 0.4965(3)
H15_4 H 0.4811 0.1429 0.4839
C26_6 C 0.4159(2) 0.0633(3) 0.7796(3)
H16_6 H 0.4243 0.0580 0.8123
C27_4 C 0.4319(3) 0.2695(4) 0.4446(4)
Cd4_4 Cd 0.28441(2) 0.03441(2) 0.8750
O16_6 O 0.21981(13) 0.04392(15) 0.83727(19)
O19_6 O 0.26982(18) 0.03732(15) 0.66448(19)
C50_6 C 0.4436(3) 0.7642(3) 0.0184(3)
C51_6 C 0.4603(4) 0.8012(3) 0.0347(3)
H30_6 H 0.4642 0.8048 0.0688
C52_6 C 0.4712(2) 0.8323(3) 0.0035(3)
H31_6 H 0.4811 0.8571 0.0161
C54_5 C 0.4319(3) 0.7305(4) 0.0554(4)
Ba1_9 Ba 0.24159(2) 1.0000 0.7500
O7_6 O 0.30665(14) 0.95699(15) 0.70980(17)
O10_6 O 0.35360(16) 0.95738(19) 0.65104(17)
C28_6 C 0.4802(2) 0.8595(2) 0.9165(3)
C29_6 C 0.3434(2) 0.9536(2) 0.6966(2)
C30_6 C 0.6987(2) 0.96545(18) 0.8754(2)
C31_6 C 0.3746(2) 0.9426(2) 0.7349(2)
C32_6 C 0.6537(2) 0.9519(2) 0.8740(2)
C33_6 C 0.52023(18) 0.8752(2) 0.9166(2)
C34_6 C 0.5304(2) 0.9040(2) 0.8796(2)
C35_6 C 0.6284(2) 0.9612(2) 0.9147(3)
H17_6 H 0.6383 0.9777 0.9405
C36_6 C 0.3929(2) 0.9242(2) 0.8176(3)
H18_6 H 0.3846 0.9206 0.8506
C37_6 C 0.4322(2) 0.9155(2) 0.8053(2)
C38_6 C 0.6381(2) 0.9301(2) 0.8351(2)
H19_6 H 0.6542 0.9257 0.8069
C39_6 C 0.36426(19) 0.9382(2) 0.7830(2)
H20_6 H 0.3377 0.9446 0.7934
C40_6 C 0.4674(2) 0.8263(2) 0.9525(3)
C41_6 C 0.5740(2) 0.9215(2) 0.8770(2)
C42_6 C 0.4517(2) 0.8732(2) 0.8794(2)
H21_6 H 0.4250 0.8628 0.8796
N2_6 N 0.54914(19) 0.8624(2) 0.9509(2)
H22_6 H 0.5515 0.8358 0.9496
H23_6 H 0.5730 0.8733 0.9447
C43_6 C 0.5026(2) 0.9170(2) 0.8442(3)
H24_6 H 0.5104 0.9365 0.8206
C44_6 C 0.46267(18) 0.9011(2) 0.8436(2)
C45_6 C 0.5988(2) 0.9146(2) 0.8370(2)
H25_6 H 0.5890 0.8990 0.8104
C46_6 C 0.5891(2) 0.9461(3) 0.9166(3)
H26_6 H 0.5723 0.9520 0.9438
C47_6 C 0.4515(2) 0.7902(2) 0.9353(3)
H27_6 H 0.4479 0.7865 0.9011
C48_6 C 0.4406(2) 0.7588(3) 0.9681(3)
H28_5 H 0.4311 0.7339 0.9555
C49_6 C 0.4439(2) 0.9228(3) 0.7560(3)
H29_6 H 0.4711 0.9183 0.7467
C53_6 C 0.4159(2) 0.9367(3) 0.7204(3)
H32_6 H 0.4243 0.9420 0.6877
Cd5_4 Cd 0.28441(2) 0.96559(2) 0.6250
O17_6 O 0.21981(13) 0.95608(15) 0.66273(19)
O20_6 O 0.26982(18) 0.96268(15) 0.83552(19)
Ba1_10 Ba 0.2500 0.00841(2) 0.5000
O16_7 O 0.29392(15) 0.03019(13) 0.58727(19)
O17_7 O 0.20608(15) 0.03019(13) 0.41273(19)
O1_7 O 0.29301(15) 0.94335(14) 0.54020(17)
O4_7 O 0.29262(19) 0.89640(16) 0.59896(17)
C1_7 C 0.3905(2) 0.7698(2) 0.3335(3)
C2_7 C 0.2964(2) 0.9066(2) 0.5534(2)
C3_7 C 0.28455(18) 0.5513(2) 0.3746(2)
C4_7 C 0.3074(2) 0.8754(2) 0.5151(2)
C5_7 C 0.2981(2) 0.5963(2) 0.3760(2)
C6_7 C 0.3748(2) 0.72977(18) 0.3334(2)
C7_7 C 0.3460(2) 0.7196(2) 0.3704(2)
C8_7 C 0.2888(2) 0.6216(2) 0.3353(3)
H1_7 H 0.2723 0.6117 0.3095
C9_7 C 0.3258(2) 0.8571(2) 0.4324(3)
H2_7 H 0.3294 0.8654 0.3994
C10_7 C 0.3345(2) 0.8178(2) 0.4447(2)
C11_7 C 0.3199(2) 0.6119(2) 0.4149(2)
H3_7 H 0.3243 0.5958 0.4431
C12_7 C 0.3118(2) 0.88574(19) 0.4670(2)
H4_7 H 0.3054 0.9123 0.4566
C13_7 C 0.4237(2) 0.7826(2) 0.2975(3)
C14_7 C 0.3285(2) 0.6760(2) 0.3730(2)
C15_7 C 0.3768(2) 0.7983(2) 0.3706(2)
H5_7 H 0.3872 0.8250 0.3704
N1_7 N 0.3876(2) 0.70086(19) 0.2991(2)
H6_7 H 0.4142 0.6985 0.3004
H7_7 H 0.3767 0.6770 0.3053
C16_7 C 0.3330(2) 0.7474(2) 0.4058(3)
H8_7 H 0.3135 0.7396 0.4294
C17_7 C 0.3489(2) 0.78733(18) 0.4064(2)
C18_7 C 0.3354(2) 0.6512(2) 0.4130(2)
H9_7 H 0.3510 0.6610 0.4396
C19_7 C 0.3039(3) 0.6609(2) 0.3334(3)
H10_7 H 0.2980 0.6777 0.3062
C20_7 C 0.4598(2) 0.7985(2) 0.3147(3)
H11_7 H 0.4635 0.8021 0.3489
C21_7 C 0.4912(3) 0.8094(2) 0.2819(3)
H12_7 H 0.5161 0.8189 0.2945
C22_7 C 0.3272(3) 0.8061(2) 0.4940(3)
H13_7 H 0.3317 0.7789 0.5033
C23_5 C 0.4858(3) 0.8064(3) 0.2316(3)
C24_5 C 0.4488(3) 0.7897(4) 0.2153(3)
H14_5 H 0.4452 0.7858 0.1812
C25_5 C 0.4177(3) 0.7788(2) 0.2465(3)
H15_5 H 0.3929 0.7689 0.2339
C26_7 C 0.3133(3) 0.8341(2) 0.5296(3)
H16_7 H 0.3080 0.8257 0.5623
C27_5 C 0.5195(4) 0.8181(3) 0.1946(4)
O7_7 O 0.20699(15) 0.94335(14) 0.45980(17)
O10_7 O 0.20738(19) 0.89640(16) 0.40104(17)
C28_7 C 0.1095(2) 0.7698(2) 0.6665(3)
C29_7 C 0.2036(2) 0.9066(2) 0.4466(2)
C30_7 C 0.21545(18) 0.5513(2) 0.6254(2)
C31_7 C 0.1926(2) 0.8754(2) 0.4849(2)
C32_7 C 0.2019(2) 0.5963(2) 0.6240(2)
C33_7 C 0.1252(2) 0.72977(18) 0.6666(2)
C34_7 C 0.1540(2) 0.7196(2) 0.6296(2)
C35_7 C 0.2112(2) 0.6216(2) 0.6647(3)
H17_7 H 0.2277 0.6117 0.6905
C36_7 C 0.1742(2) 0.8571(2) 0.5676(3)
H18_7 H 0.1706 0.8654 0.6006
C37_7 C 0.1655(2) 0.8178(2) 0.5553(2)
C38_7 C 0.1801(2) 0.6119(2) 0.5851(2)
H19_7 H 0.1757 0.5958 0.5569
C39_7 C 0.1882(2) 0.88574(19) 0.5330(2)
H20_7 H 0.1946 0.9123 0.5434
C40_7 C 0.0763(2) 0.7826(2) 0.7025(3)
C41_7 C 0.1715(2) 0.6760(2) 0.6270(2)
C42_7 C 0.1232(2) 0.7983(2) 0.6294(2)
H21_7 H 0.1128 0.8250 0.6296
N2_7 N 0.1124(2) 0.70086(19) 0.7009(2)
H22_7 H 0.0858 0.6985 0.6996
H23_7 H 0.1233 0.6770 0.6947
C43_7 C 0.1670(2) 0.7474(2) 0.5942(3)
H24_7 H 0.1865 0.7396 0.5706
C44_7 C 0.1511(2) 0.78733(18) 0.5936(2)
C45_7 C 0.1646(2) 0.6512(2) 0.5870(2)
H25_7 H 0.1490 0.6610 0.5604
C46_7 C 0.1961(3) 0.6609(2) 0.6666(3)
H26_7 H 0.2020 0.6777 0.6938
C47_7 C 0.0402(2) 0.7985(2) 0.6853(3)
H27_7 H 0.0365 0.8021 0.6511
C48_7 C 0.0088(3) 0.8094(2) 0.7181(3)
C49_7 C 0.1728(3) 0.8061(2) 0.5060(3)
H29_7 H 0.1683 0.7789 0.4967
C50_7 C 0.0142(3) 0.8064(3) 0.7684(3)
C51_7 C 0.0512(3) 0.7897(4) 0.7847(3)
H30_7 H 0.0548 0.7858 0.8188
C52_7 C 0.0823(3) 0.7788(2) 0.7535(3)
H31_7 H 0.1071 0.7689 0.7661
C53_7 C 0.1867(3) 0.8341(2) 0.4704(3)
H32_7 H 0.1920 0.8257 0.4377
O19_7 O 0.28732(15) 0.98018(18) 0.41448(19)
O20_7 O 0.21268(15) 0.98018(18) 0.58552(19)
O1_8 O 0.20699(15) 0.05665(14) 0.04020(17)
O4_8 O 0.20738(19) 0.10360(16) 0.09896(17)
C2_8 C 0.2036(2) 0.0934(2) 0.0534(2)
C4_8 C 0.1926(2) 0.1246(2) 0.0151(2)
H13_8 H 0.1683 0.2211 0.0033
C26_8 C 0.1867(3) 0.1659(2) 0.0296(3)
H16_8 H 0.1920 0.1743 0.0623
C28_8 C 0.3905(2) 0.2302(2) 0.1665(3)
C30_8 C 0.28455(18) 0.4487(2) 0.1254(2)
C32_8 C 0.2981(2) 0.4037(2) 0.1240(2)
C33_8 C 0.3748(2) 0.27023(18) 0.1666(2)
C34_8 C 0.3460(2) 0.2804(2) 0.1296(2)
C35_8 C 0.2888(2) 0.3784(2) 0.1647(3)
H17_8 H 0.2723 0.3883 0.1905
C36_8 C 0.3258(2) 0.1429(2) 0.0676(3)
H18_8 H 0.3294 0.1346 0.1006
C37_8 C 0.3345(2) 0.1822(2) 0.0553(2)
C38_8 C 0.3199(2) 0.3881(2) 0.0851(2)
H19_8 H 0.3243 0.4042 0.0569
C39_8 C 0.3118(2) 0.11426(19) 0.0330(2)
H20_8 H 0.3054 0.0877 0.0434
C40_8 C 0.4237(2) 0.2174(2) 0.2025(3)
C41_8 C 0.3285(2) 0.3240(2) 0.1270(2)
C42_8 C 0.3768(2) 0.2017(2) 0.1294(2)
H21_8 H 0.3872 0.1750 0.1296
N2_8 N 0.3876(2) 0.29914(19) 0.2009(2)
H22_8 H 0.4142 0.3015 0.1996
H23_8 H 0.3767 0.3230 0.1947
C43_8 C 0.3330(2) 0.2526(2) 0.0942(3)
H24_8 H 0.3135 0.2604 0.0706
C44_8 C 0.3489(2) 0.21267(18) 0.0936(2)
C45_8 C 0.3354(2) 0.3488(2) 0.0870(2)
H25_8 H 0.3510 0.3390 0.0604
C46_8 C 0.3039(3) 0.3391(2) 0.1666(3)
H26_8 H 0.2980 0.3223 0.1938
C47_8 C 0.4598(2) 0.2015(2) 0.1853(3)
H27_8 H 0.4635 0.1979 0.1511
C48_8 C 0.4912(3) 0.1906(2) 0.2181(3)
H28_6 H 0.5161 0.1811 0.2055
C49_8 C 0.3272(3) 0.1939(2) 0.0060(3)
C50_8 C 0.4858(3) 0.1936(3) 0.2684(3)
C51_8 C 0.4488(3) 0.2103(4) 0.2847(3)
H30_8 H 0.4452 0.2142 0.3188
C52_8 C 0.4177(3) 0.2212(2) 0.2535(3)
H31_8 H 0.3929 0.2311 0.2661
C54_6 C 0.5195(4) 0.1819(3) 0.3054(4)
O20_8 O 0.28732(15) 0.01982(18) 0.08552(19)
C1_8 C 0.1095(2) 0.2302(2) 0.8335(3)
C3_8 C 0.21545(18) 0.4487(2) 0.8746(2)
C5_8 C 0.2019(2) 0.4037(2) 0.8760(2)
C6_8 C 0.1252(2) 0.27023(18) 0.8334(2)
C7_8 C 0.1540(2) 0.2804(2) 0.8704(2)
C8_8 C 0.2112(2) 0.3784(2) 0.8353(3)
H1_8 H 0.2277 0.3883 0.8095
C9_8 C 0.1742(2) 0.1429(2) 0.9324(3)
H2_8 H 0.1706 0.1346 0.8994
C10_8 C 0.1655(2) 0.1822(2) 0.9447(2)
C11_8 C 0.1801(2) 0.3881(2) 0.9149(2)
H3_8 H 0.1757 0.4042 0.9431
C12_8 C 0.1882(2) 0.11426(19) 0.9670(2)
H4_8 H 0.1946 0.0877 0.9566
C13_8 C 0.0763(2) 0.2174(2) 0.7975(3)
C14_8 C 0.1715(2) 0.3240(2) 0.8730(2)
C15_8 C 0.1232(2) 0.2017(2) 0.8706(2)
H5_8 H 0.1128 0.1750 0.8704
N1_8 N 0.1124(2) 0.29914(19) 0.7991(2)
H6_8 H 0.0858 0.3015 0.8004
H7_8 H 0.1233 0.3230 0.8053
C16_8 C 0.1670(2) 0.2526(2) 0.9058(3)
H8_8 H 0.1865 0.2604 0.9294
C17_8 C 0.1511(2) 0.21267(18) 0.9064(2)
C18_8 C 0.1646(2) 0.3488(2) 0.9130(2)
H9_8 H 0.1490 0.3390 0.9396
C19_8 C 0.1961(3) 0.3391(2) 0.8334(3)
H10_8 H 0.2020 0.3223 0.8062
C20_8 C 0.0402(2) 0.2015(2) 0.8147(3)
H11_8 H 0.0365 0.1979 0.8489
C21_8 C 0.0088(3) 0.1906(2) 0.7819(3)
C22_8 C 0.1728(3) 0.1939(2) 0.9940(3)
C23_6 C 0.0142(3) 0.1936(3) 0.7316(3)
C24_6 C 0.0512(3) 0.2103(4) 0.7153(3)
H14_6 H 0.0548 0.2142 0.6812
C25_6 C 0.0823(3) 0.2212(2) 0.7465(3)
H15_6 H 0.1071 0.2311 0.7339
O7_8 O 0.29301(15) 0.05665(14) 0.95980(17)
O10_8 O 0.29262(19) 0.10360(16) 0.90104(17)
C29_8 C 0.2964(2) 0.0934(2) 0.9466(2)
C31_8 C 0.3074(2) 0.1246(2) 0.9849(2)
H29_8 H 0.3317 0.2211 0.9967
C53_8 C 0.3133(3) 0.1659(2) 0.9704(3)
H32_8 H 0.3080 0.1743 0.9377
O19_8 O 0.21268(15) 0.01982(18) 0.91448(19)
Ba1_11 Ba 0.2500 0.99159(2) 0.0000
O16_8 O 0.20608(15) 0.96981(13) 0.08727(19)
Ba1_12 Ba 0.2500 0.99159(2) 1.0000
O17_8 O 0.29392(15) 0.96981(13) 0.91273(19)
H12_8 H 0.9839 0.1811 0.7945
C27_6 C 0.9805(4) 0.1819(3) 0.6946(4)
Cd2_4 Cd 0.42131(4) 0.82869(4) 0.6250
C1_9 C 0.4802(2) 0.6405(2) 0.4165(3)
C2_9 C 0.3434(2) 0.5464(2) 0.1966(2)
C3_9 C 0.6987(2) 0.53455(18) 0.3754(2)
C4_9 C 0.3746(2) 0.5574(2) 0.2349(2)
C5_9 C 0.6537(2) 0.5481(2) 0.3740(2)
C6_9 C 0.52023(18) 0.6248(2) 0.4166(2)
C7_9 C 0.5304(2) 0.5960(2) 0.3796(2)
C8_9 C 0.6284(2) 0.5388(2) 0.4147(3)
H1_9 H 0.6383 0.5223 0.4405
C9_9 C 0.3929(2) 0.5758(2) 0.3176(3)
H2_9 H 0.3846 0.5794 0.3506
C10_9 C 0.4322(2) 0.5845(2) 0.3053(2)
C11_9 C 0.6381(2) 0.5699(2) 0.3351(2)
H3_9 H 0.6542 0.5743 0.3069
C12_9 C 0.36426(19) 0.5618(2) 0.2830(2)
H4_9 H 0.3377 0.5554 0.2934
C13_9 C 0.4674(2) 0.6737(2) 0.4525(3)
C14_9 C 0.5740(2) 0.5785(2) 0.3770(2)
C15_9 C 0.4517(2) 0.6268(2) 0.3794(2)
H5_9 H 0.4250 0.6372 0.3796
N1_9 N 0.54914(19) 0.6376(2) 0.4509(2)
H6_9 H 0.5515 0.6642 0.4496
H7_9 H 0.5730 0.6267 0.4447
C16_9 C 0.5026(2) 0.5830(2) 0.3442(3)
H8_9 H 0.5104 0.5635 0.3206
C17_9 C 0.46267(18) 0.5989(2) 0.3436(2)
C18_9 C 0.5988(2) 0.5854(2) 0.3370(2)
H9_9 H 0.5890 0.6010 0.3104
C19_9 C 0.5891(2) 0.5539(3) 0.4166(3)
H10_9 H 0.5723 0.5480 0.4438
O5_4 O 0.4308(2) 0.8055(2) 0.5410(3)
C20_9 C 0.4515(2) 0.7098(2) 0.4353(3)
H11_9 H 0.4479 0.7135 0.4011
O6_4 O 0.4234(3) 0.7592(3) 0.5985(2)
C21_9 C 0.4406(2) 0.7412(3) 0.4681(3)
H12_9 H 0.4311 0.7661 0.4555
C22_9 C 0.4439(2) 0.5772(3) 0.2560(3)
H13_9 H 0.4711 0.5817 0.2467
C23_7 C 0.4436(3) 0.7358(3) 0.5184(3)
C24_7 C 0.4603(4) 0.6988(3) 0.5347(3)
H14_7 H 0.4642 0.6952 0.5688
C25_7 C 0.4712(2) 0.6677(3) 0.5035(3)
H15_7 H 0.4811 0.6429 0.5161
C26_9 C 0.4159(2) 0.5633(3) 0.2204(3)
H16_9 H 0.4243 0.5580 0.1877
C27_7 C 0.4319(3) 0.7695(4) 0.5554(4)
C28_9 C 0.4802(2) 0.3595(2) 0.0835(3)
C29_9 C 0.3434(2) 0.4536(2) 0.3034(2)
C30_9 C 0.6987(2) 0.46545(18) 0.1246(2)
C31_9 C 0.3746(2) 0.4426(2) 0.2651(2)
C32_9 C 0.6537(2) 0.4519(2) 0.1260(2)
C33_9 C 0.52023(18) 0.3752(2) 0.0834(2)
C34_9 C 0.5304(2) 0.4040(2) 0.1204(2)
C35_9 C 0.6284(2) 0.4612(2) 0.0853(3)
H17_9 H 0.6383 0.4777 0.0595
C36_9 C 0.3929(2) 0.4242(2) 0.1824(3)
H18_9 H 0.3846 0.4206 0.1494
C37_9 C 0.4322(2) 0.4155(2) 0.1947(2)
C38_9 C 0.6381(2) 0.4301(2) 0.1649(2)
H19_9 H 0.6542 0.4257 0.1931
C39_9 C 0.36426(19) 0.4382(2) 0.2170(2)
H20_9 H 0.3377 0.4446 0.2066
C40_9 C 0.4674(2) 0.3263(2) 0.0475(3)
C41_9 C 0.5740(2) 0.4215(2) 0.1230(2)
C42_9 C 0.4517(2) 0.3732(2) 0.1206(2)
H21_9 H 0.4250 0.3628 0.1204
N2_9 N 0.54914(19) 0.3624(2) 0.0491(2)
H22_9 H 0.5515 0.3358 0.0504
H23_9 H 0.5730 0.3733 0.0553
C43_9 C 0.5026(2) 0.4170(2) 0.1558(3)
H24_9 H 0.5104 0.4365 0.1794
C44_9 C 0.46267(18) 0.4011(2) 0.1564(2)
C45_9 C 0.5988(2) 0.4146(2) 0.1630(2)
H25_9 H 0.5890 0.3990 0.1896
C46_9 C 0.5891(2) 0.4461(3) 0.0834(3)
H26_9 H 0.5723 0.4520 0.0562
C47_9 C 0.4515(2) 0.2902(2) 0.0647(3)
H27_9 H 0.4479 0.2865 0.0989
C48_9 C 0.4406(2) 0.2588(3) 0.0319(3)
H28_7 H 0.4311 0.2339 0.0445
C49_9 C 0.4439(2) 0.4228(3) 0.2440(3)
H29_9 H 0.4711 0.4183 0.2533
C53_9 C 0.4159(2) 0.4367(3) 0.2796(3)
H32_9 H 0.4243 0.4420 0.3123
O23_7 O 0.4445(2) 0.8192(2) 0.7090(3)
O24_7 O 0.4908(3) 0.8266(3) 0.6515(2)
O11_4 O 0.4308(2) 0.1945(2) 0.9590(3)
O12_4 O 0.4234(3) 0.2408(3) 0.9015(2)
C50_9 C 0.4436(3) 0.2642(3) 0.9816(3)
C51_9 C 0.4603(4) 0.3012(3) 0.9653(3)
H30_9 H 0.4642 0.3048 0.9312
C52_9 C 0.4712(2) 0.3323(3) 0.9965(3)
H31_9 H 0.4811 0.3571 0.9839
C54_7 C 0.4319(3) 0.2305(4) 0.9446(4)
Cd6_4 Cd 0.42131(4) 0.17131(4) 0.8750
C1_10 C 0.0198(2) 0.3595(2) 0.9165(3)
C2_10 C 0.1566(2) 0.4536(2) 0.6966(2)
C4_10 C 0.1254(2) 0.4426(2) 0.7349(2)
C9_10 C 0.1071(2) 0.4242(2) 0.8176(3)
H2_10 H 0.1154 0.4206 0.8506
C10_10 C 0.0678(2) 0.4155(2) 0.8053(2)
C12_10 C 0.13574(19) 0.4382(2) 0.7830(2)
H4_10 H 0.1623 0.4446 0.7934
C13_10 C 0.0326(2) 0.3263(2) 0.9525(3)
C15_10 C 0.0483(2) 0.3732(2) 0.8794(2)
H5_10 H 0.0750 0.3628 0.8796
C17_10 C 0.03733(18) 0.4011(2) 0.8436(2)
C20_10 C 0.0485(2) 0.2902(2) 0.9353(3)
H11_10 H 0.0521 0.2865 0.9011
C21_10 C 0.0594(2) 0.2588(3) 0.9681(3)
H12_10 H 0.0689 0.2339 0.9555
C22_10 C 0.0561(2) 0.4228(3) 0.7560(3)
H13_10 H 0.0289 0.4183 0.7467
C26_10 C 0.0841(2) 0.4367(3) 0.7204(3)
H16_10 H 0.0757 0.4420 0.6877
C28_10 C 0.0198(2) 0.6405(2) 0.5835(3)
C29_10 C 0.1566(2) 0.5464(2) 0.8034(2)
C31_10 C 0.1254(2) 0.5574(2) 0.7651(2)
C36_10 C 0.1071(2) 0.5758(2) 0.6824(3)
H18_10 H 0.1154 0.5794 0.6494
C37_10 C 0.0678(2) 0.5845(2) 0.6947(2)
C39_10 C 0.13574(19) 0.5618(2) 0.7170(2)
H20_10 H 0.1623 0.5554 0.7066
C40_10 C 0.0326(2) 0.6737(2) 0.5475(3)
C42_10 C 0.0483(2) 0.6268(2) 0.6206(2)
H21_10 H 0.0750 0.6372 0.6204
C44_10 C 0.03733(18) 0.5989(2) 0.6564(2)
O11_5 O 0.0692(2) 0.8055(2) 0.4590(3)
C47_10 C 0.0485(2) 0.7098(2) 0.5647(3)
H27_10 H 0.0521 0.7135 0.5989
O12_5 O 0.0766(3) 0.7592(3) 0.4015(2)
C48_10 C 0.0594(2) 0.7412(3) 0.5319(3)
H28_8 H 0.0689 0.7661 0.5445
C49_10 C 0.0561(2) 0.5772(3) 0.7440(3)
H29_10 H 0.0289 0.5817 0.7533
C50_10 C 0.0564(3) 0.7358(3) 0.4816(3)
C51_10 C 0.0397(4) 0.6988(3) 0.4653(3)
H30_10 H 0.0358 0.6952 0.4312
C52_10 C 0.0288(2) 0.6677(3) 0.4965(3)
H31_10 H 0.0189 0.6429 0.4839
C53_10 C 0.0841(2) 0.5633(3) 0.7796(3)
H32_10 H 0.0757 0.5580 0.8123
C54_8 C 0.0681(3) 0.7695(4) 0.4446(4)
Cd6_5 Cd 0.07869(4) 0.82869(4) 0.3750
C3_10 C 0.8013(2) 0.46545(18) 0.8754(2)
C5_10 C 0.8463(2) 0.4519(2) 0.8740(2)
C6_10 C 0.97977(18) 0.3752(2) 0.9166(2)
C7_10 C 0.9696(2) 0.4040(2) 0.8796(2)
C8_10 C 0.8716(2) 0.4612(2) 0.9147(3)
H1_10 H 0.8617 0.4777 0.9405
C11_10 C 0.8619(2) 0.4301(2) 0.8351(2)
H3_10 H 0.8458 0.4257 0.8069
C14_10 C 0.9260(2) 0.4215(2) 0.8770(2)
N1_10 N 0.95086(19) 0.3624(2) 0.9509(2)
H6_10 H 0.9485 0.3358 0.9496
H7_10 H 0.9270 0.3733 0.9447
C16_10 C 0.9974(2) 0.4170(2) 0.8442(3)
H8_10 H 0.9896 0.4365 0.8206
C18_10 C 0.9012(2) 0.4146(2) 0.8370(2)
H9_10 H 0.9110 0.3990 0.8104
C19_10 C 0.9109(2) 0.4461(3) 0.9166(3)
H10_10 H 0.9277 0.4520 0.9438
C30_10 C 0.8013(2) 0.53455(18) 0.6246(2)
C32_10 C 0.8463(2) 0.5481(2) 0.6260(2)
C33_10 C 0.97977(18) 0.6248(2) 0.5834(2)
C34_10 C 0.9696(2) 0.5960(2) 0.6204(2)
C35_10 C 0.8716(2) 0.5388(2) 0.5853(3)
H17_10 H 0.8617 0.5223 0.5595
C38_10 C 0.8619(2) 0.5699(2) 0.6649(2)
H19_10 H 0.8458 0.5743 0.6931
C41_10 C 0.9260(2) 0.5785(2) 0.6230(2)
N2_10 N 0.95086(19) 0.6376(2) 0.5491(2)
H22_10 H 0.9485 0.6642 0.5504
H23_10 H 0.9270 0.6267 0.5553
C43_10 C 0.9974(2) 0.5830(2) 0.6558(3)
H24_10 H 0.9896 0.5635 0.6794
C45_10 C 0.9012(2) 0.5854(2) 0.6630(2)
H25_10 H 0.9110 0.6010 0.6896
C46_10 C 0.9109(2) 0.5539(3) 0.5834(3)
H26_10 H 0.9277 0.5480 0.5562
C1_11 C 0.1095(2) 0.7302(2) 0.1665(3)
C3_11 C 0.21545(18) 0.9487(2) 0.1254(2)
C5_11 C 0.2019(2) 0.9037(2) 0.1240(2)
C6_11 C 0.1252(2) 0.77023(18) 0.1666(2)
C7_11 C 0.1540(2) 0.7804(2) 0.1296(2)
C8_11 C 0.2112(2) 0.8784(2) 0.1647(3)
H1_11 H 0.2277 0.8883 0.1905
C9_11 C 0.1742(2) 0.6429(2) 0.0676(3)
H2_11 H 0.1706 0.6346 0.1006
C10_11 C 0.1655(2) 0.6822(2) 0.0553(2)
C11_11 C 0.1801(2) 0.8881(2) 0.0851(2)
H3_11 H 0.1757 0.9042 0.0569
C12_11 C 0.1882(2) 0.61426(19) 0.0330(2)
H4_11 H 0.1946 0.5877 0.0434
C13_11 C 0.0763(2) 0.7174(2) 0.2025(3)
C14_11 C 0.1715(2) 0.8240(2) 0.1270(2)
C15_11 C 0.1232(2) 0.7017(2) 0.1294(2)
H5_11 H 0.1128 0.6750 0.1296
N1_11 N 0.1124(2) 0.79914(19) 0.2009(2)
H6_11 H 0.0858 0.8015 0.1996
H7_11 H 0.1233 0.8230 0.1947
C16_11 C 0.1670(2) 0.7526(2) 0.0942(3)
H8_11 H 0.1865 0.7604 0.0706
C17_11 C 0.1511(2) 0.71267(18) 0.0936(2)
C18_11 C 0.1646(2) 0.8488(2) 0.0870(2)
H9_11 H 0.1490 0.8390 0.0604
C19_11 C 0.1961(3) 0.8391(2) 0.1666(3)
H10_11 H 0.2020 0.8223 0.1938
C20_11 C 0.0402(2) 0.7015(2) 0.1853(3)
H11_11 H 0.0365 0.6979 0.1511
C21_11 C 0.0088(3) 0.6906(2) 0.2181(3)
C22_11 C 0.1728(3) 0.6939(2) 0.0060(3)
C23_8 C 0.0142(3) 0.6936(3) 0.2684(3)
C24_8 C 0.0512(3) 0.7103(4) 0.2847(3)
H14_8 H 0.0548 0.7142 0.3188
C25_8 C 0.0823(3) 0.7212(2) 0.2535(3)
H15_8 H 0.1071 0.7311 0.2661
C29_11 C 0.2964(2) 0.5934(2) 0.0534(2)
C31_11 C 0.3074(2) 0.6246(2) 0.0151(2)
H29_11 H 0.3317 0.7211 0.0033
C53_11 C 0.3133(3) 0.6659(2) 0.0296(3)
H32_11 H 0.3080 0.6743 0.0623
C2_11 C 0.2036(2) 0.5934(2) 0.9466(2)
C4_11 C 0.1926(2) 0.6246(2) 0.9849(2)
H13_11 H 0.1683 0.7211 0.9967
C26_11 C 0.1867(3) 0.6659(2) 0.9704(3)
H16_11 H 0.1920 0.6743 0.9377
C28_11 C 0.3905(2) 0.7302(2) 0.8335(3)
C30_11 C 0.28455(18) 0.9487(2) 0.8746(2)
C32_11 C 0.2981(2) 0.9037(2) 0.8760(2)
C33_11 C 0.3748(2) 0.77023(18) 0.8334(2)
C34_11 C 0.3460(2) 0.7804(2) 0.8704(2)
C35_11 C 0.2888(2) 0.8784(2) 0.8353(3)
H17_11 H 0.2723 0.8883 0.8095
C36_11 C 0.3258(2) 0.6429(2) 0.9324(3)
H18_11 H 0.3294 0.6346 0.8994
C37_11 C 0.3345(2) 0.6822(2) 0.9447(2)
C38_11 C 0.3199(2) 0.8881(2) 0.9149(2)
H19_11 H 0.3243 0.9042 0.9431
C39_11 C 0.3118(2) 0.61426(19) 0.9670(2)
H20_11 H 0.3054 0.5877 0.9566
C40_11 C 0.4237(2) 0.7174(2) 0.7975(3)
C41_11 C 0.3285(2) 0.8240(2) 0.8730(2)
C42_11 C 0.3768(2) 0.7017(2) 0.8706(2)
H21_11 H 0.3872 0.6750 0.8704
N2_11 N 0.3876(2) 0.79914(19) 0.7991(2)
H22_11 H 0.4142 0.8015 0.8004
H23_11 H 0.3767 0.8230 0.8053
C43_11 C 0.3330(2) 0.7526(2) 0.9058(3)
H24_11 H 0.3135 0.7604 0.9294
C44_11 C 0.3489(2) 0.71267(18) 0.9064(2)
C45_11 C 0.3354(2) 0.8488(2) 0.9130(2)
H25_11 H 0.3510 0.8390 0.9396
C46_11 C 0.3039(3) 0.8391(2) 0.8334(3)
H26_11 H 0.2980 0.8223 0.8062
O11_6 O 0.5555(2) 0.6808(2) 0.7090(3)
C47_11 C 0.4598(2) 0.7015(2) 0.8147(3)
H27_11 H 0.4635 0.6979 0.8489
O12_6 O 0.5092(3) 0.6734(3) 0.6515(2)
C48_11 C 0.4912(3) 0.6906(2) 0.7819(3)
H28_9 H 0.5161 0.6811 0.7945
C49_11 C 0.3272(3) 0.6939(2) 0.9940(3)
C50_11 C 0.4858(3) 0.6936(3) 0.7316(3)
C51_11 C 0.4488(3) 0.7103(4) 0.7153(3)
H30_11 H 0.4452 0.7142 0.6812
C52_11 C 0.4177(3) 0.7212(2) 0.7465(3)
H31_11 H 0.3929 0.7311 0.7339
C54_9 C 0.5195(4) 0.6819(3) 0.6946(4)
Cd6_6 Cd 0.57869(4) 0.67131(4) 0.6250
Cd2_5 Cd 0.92131(4) 0.67131(4) 0.3750
O5_5 O 0.9445(2) 0.6808(2) 0.2910(3)
O6_5 O 0.9908(3) 0.6734(3) 0.3485(2)
H12_11 H 0.9839 0.6811 0.2055
C27_8 C 0.9805(4) 0.6819(3) 0.3054(4)
O23_8 O 0.9308(2) 0.6945(2) 0.4590(3)
O24_8 O 0.9234(3) 0.7408(3) 0.4015(2)
Cd2_6 Cd 0.57869(4) 0.32869(4) 0.8750
C1_12 C 0.3905(2) 0.2698(2) 0.6665(3)
C2_12 C 0.2964(2) 0.4066(2) 0.4466(2)
C3_12 C 0.28455(18) 0.0513(2) 0.6254(2)
C4_12 C 0.3074(2) 0.3754(2) 0.4849(2)
C5_12 C 0.2981(2) 0.0963(2) 0.6240(2)
C6_12 C 0.3748(2) 0.22977(18) 0.6666(2)
C7_12 C 0.3460(2) 0.2196(2) 0.6296(2)
C8_12 C 0.2888(2) 0.1216(2) 0.6647(3)
H1_12 H 0.2723 0.1117 0.6905
C9_12 C 0.3258(2) 0.3571(2) 0.5676(3)
H2_12 H 0.3294 0.3654 0.6006
C10_12 C 0.3345(2) 0.3178(2) 0.5553(2)
C11_12 C 0.3199(2) 0.1119(2) 0.5851(2)
H3_12 H 0.3243 0.0958 0.5569
C12_12 C 0.3118(2) 0.38574(19) 0.5330(2)
H4_12 H 0.3054 0.4123 0.5434
C13_12 C 0.4237(2) 0.2826(2) 0.7025(3)
C14_12 C 0.3285(2) 0.1760(2) 0.6270(2)
C15_12 C 0.3768(2) 0.2983(2) 0.6294(2)
H5_12 H 0.3872 0.3250 0.6296
N1_12 N 0.3876(2) 0.20086(19) 0.7009(2)
H6_12 H 0.4142 0.1985 0.6996
H7_12 H 0.3767 0.1770 0.6947
C16_12 C 0.3330(2) 0.2474(2) 0.5942(3)
H8_12 H 0.3135 0.2396 0.5706
C17_12 C 0.3489(2) 0.28733(18) 0.5936(2)
C18_12 C 0.3354(2) 0.1512(2) 0.5870(2)
H9_12 H 0.3510 0.1610 0.5604
C19_12 C 0.3039(3) 0.1609(2) 0.6666(3)
H10_12 H 0.2980 0.1777 0.6938
O5_6 O 0.5555(2) 0.3192(2) 0.7910(3)
C20_12 C 0.4598(2) 0.2985(2) 0.6853(3)
H11_12 H 0.4635 0.3021 0.6511
O6_6 O 0.5092(3) 0.3266(3) 0.8485(2)
C21_12 C 0.4912(3) 0.3094(2) 0.7181(3)
H12_12 H 0.5161 0.3189 0.7055
C22_12 C 0.3272(3) 0.3061(2) 0.5060(3)
H13_12 H 0.3317 0.2789 0.4967
C23_9 C 0.4858(3) 0.3064(3) 0.7684(3)
C24_9 C 0.4488(3) 0.2897(4) 0.7847(3)
H14_9 H 0.4452 0.2858 0.8188
C25_9 C 0.4177(3) 0.2788(2) 0.7535(3)
H15_9 H 0.3929 0.2689 0.7661
C26_12 C 0.3133(3) 0.3341(2) 0.4704(3)
H16_12 H 0.3080 0.3257 0.4377
C27_9 C 0.5195(4) 0.3181(3) 0.8054(4)
C28_12 C 0.1095(2) 0.2698(2) 0.3335(3)
C29_12 C 0.2036(2) 0.4066(2) 0.5534(2)
C30_12 C 0.21545(18) 0.0513(2) 0.3746(2)
C31_12 C 0.1926(2) 0.3754(2) 0.5151(2)
C32_12 C 0.2019(2) 0.0963(2) 0.3760(2)
C33_12 C 0.1252(2) 0.22977(18) 0.3334(2)
C34_12 C 0.1540(2) 0.2196(2) 0.3704(2)
C35_12 C 0.2112(2) 0.1216(2) 0.3353(3)
H17_12 H 0.2277 0.1117 0.3095
C36_12 C 0.1742(2) 0.3571(2) 0.4324(3)
H18_12 H 0.1706 0.3654 0.3994
C37_12 C 0.1655(2) 0.3178(2) 0.4447(2)
C38_12 C 0.1801(2) 0.1119(2) 0.4149(2)
H19_12 H 0.1757 0.0958 0.4431
C39_12 C 0.1882(2) 0.38574(19) 0.4670(2)
H20_12 H 0.1946 0.4123 0.4566
C40_12 C 0.0763(2) 0.2826(2) 0.2975(3)
C41_12 C 0.1715(2) 0.1760(2) 0.3730(2)
C42_12 C 0.1232(2) 0.2983(2) 0.3706(2)
H21_12 H 0.1128 0.3250 0.3704
N2_12 N 0.1124(2) 0.20086(19) 0.2991(2)
H22_12 H 0.0858 0.1985 0.3004
H23_12 H 0.1233 0.1770 0.3053
C43_12 C 0.1670(2) 0.2474(2) 0.4058(3)
H24_12 H 0.1865 0.2396 0.4294
C44_12 C 0.1511(2) 0.28733(18) 0.4064(2)
C45_12 C 0.1646(2) 0.1512(2) 0.4130(2)
H25_12 H 0.1490 0.1610 0.4396
C46_12 C 0.1961(3) 0.1609(2) 0.3334(3)
H26_12 H 0.2020 0.1777 0.3062
C47_12 C 0.0402(2) 0.2985(2) 0.3147(3)
H27_12 H 0.0365 0.3021 0.3489
C48_12 C 0.0088(3) 0.3094(2) 0.2819(3)
C49_12 C 0.1728(3) 0.3061(2) 0.4940(3)
H29_12 H 0.1683 0.2789 0.5033
C50_12 C 0.0142(3) 0.3064(3) 0.2316(3)
C51_12 C 0.0512(3) 0.2897(4) 0.2153(3)
H30_12 H 0.0548 0.2858 0.1812
C52_12 C 0.0823(3) 0.2788(2) 0.2465(3)
H31_12 H 0.1071 0.2689 0.2339
C53_12 C 0.1867(3) 0.3341(2) 0.5296(3)
H32_12 H 0.1920 0.3257 0.5623
O23_9 O 0.5692(2) 0.3055(2) 0.9590(3)
O24_9 O 0.5766(3) 0.2592(3) 0.9015(2)
O23_10 O 0.0555(2) 0.8192(2) 0.2910(3)
O24_10 O 0.0092(3) 0.8266(3) 0.3485(2)
O23_11 O 0.4445(2) 0.1808(2) 0.7910(3)
O24_11 O 0.4908(3) 0.1734(3) 0.8485(2)
O23_12 O 0.5692(2) 0.6945(2) 0.5410(3)
O24_12 O 0.5766(3) 0.7408(3) 0.5985(2)
C3_13 C 0.1987(2) 0.03455(18) 0.8754(2)
C5_13 C 0.1537(2) 0.0481(2) 0.8740(2)
C6_13 C 0.02023(18) 0.1248(2) 0.9166(2)
C7_13 C 0.0304(2) 0.0960(2) 0.8796(2)
C8_13 C 0.1284(2) 0.0388(2) 0.9147(3)
H1_13 H 0.1383 0.0223 0.9405
C11_13 C 0.1381(2) 0.0699(2) 0.8351(2)
H3_13 H 0.1542 0.0743 0.8069
C14_13 C 0.0740(2) 0.0785(2) 0.8770(2)
N1_13 N 0.04914(19) 0.1376(2) 0.9509(2)
H6_13 H 0.0515 0.1642 0.9496
H7_13 H 0.0730 0.1267 0.9447
C16_13 C 0.0026(2) 0.0830(2) 0.8442(3)
H8_13 H 0.0104 0.0635 0.8206
C18_13 C 0.0988(2) 0.0854(2) 0.8370(2)
H9_13 H 0.0890 0.1010 0.8104
C19_13 C 0.0891(2) 0.0539(3) 0.9166(3)
H10_13 H 0.0723 0.0480 0.9438
C30_13 C 0.1987(2) 0.96545(18) 0.6246(2)
C32_13 C 0.1537(2) 0.9519(2) 0.6260(2)
C33_13 C 0.02023(18) 0.8752(2) 0.5834(2)
C34_13 C 0.0304(2) 0.9040(2) 0.6204(2)
C35_13 C 0.1284(2) 0.9612(2) 0.5853(3)
H17_13 H 0.1383 0.9777 0.5595
C38_13 C 0.1381(2) 0.9301(2) 0.6649(2)
H19_13 H 0.1542 0.9257 0.6931
C41_13 C 0.0740(2) 0.9215(2) 0.6230(2)
N2_13 N 0.04914(19) 0.8624(2) 0.5491(2)
H22_13 H 0.0515 0.8358 0.5504
H23_13 H 0.0730 0.8733 0.5553
C43_13 C 0.0026(2) 0.9170(2) 0.6558(3)
H24_13 H 0.0104 0.9365 0.6794
C45_13 C 0.0988(2) 0.9146(2) 0.6630(2)
H25_13 H 0.0890 0.8990 0.6896
C46_13 C 0.0891(2) 0.9461(3) 0.5834(3)
H26_13 H 0.0723 0.9520 0.5562
C1_13 C 0.9802(2) 0.1405(2) 0.9165(3)
C2_13 C 0.8434(2) 0.0464(2) 0.6966(2)
C4_13 C 0.8746(2) 0.0574(2) 0.7349(2)
C9_13 C 0.8929(2) 0.0758(2) 0.8176(3)
H2_13 H 0.8846 0.0794 0.8506
C10_13 C 0.9322(2) 0.0845(2) 0.8053(2)
C12_13 C 0.86426(19) 0.0618(2) 0.7830(2)
H4_13 H 0.8377 0.0554 0.7934
C13_13 C 0.9674(2) 0.1737(2) 0.9525(3)
C15_13 C 0.9517(2) 0.1268(2) 0.8794(2)
H5_13 H 0.9250 0.1372 0.8796
C17_13 C 0.96267(18) 0.0989(2) 0.8436(2)
C20_13 C 0.9515(2) 0.2098(2) 0.9353(3)
H11_13 H 0.9479 0.2135 0.9011
C21_13 C 0.9406(2) 0.2412(3) 0.9681(3)
H12_13 H 0.9311 0.2661 0.9555
C22_13 C 0.9439(2) 0.0772(3) 0.7560(3)
H13_13 H 0.9711 0.0817 0.7467
C26_13 C 0.9159(2) 0.0633(3) 0.7204(3)
H16_13 H 0.9243 0.0580 0.6877
C28_13 C 0.9802(2) 0.8595(2) 0.5835(3)
C29_13 C 0.8434(2) 0.9536(2) 0.8034(2)
C31_13 C 0.8746(2) 0.9426(2) 0.7651(2)
C36_13 C 0.8929(2) 0.9242(2) 0.6824(3)
H18_13 H 0.8846 0.9206 0.6494
C37_13 C 0.9322(2) 0.9155(2) 0.6947(2)
C39_13 C 0.86426(19) 0.9382(2) 0.7170(2)
H20_13 H 0.8377 0.9446 0.7066
C40_13 C 0.9674(2) 0.8263(2) 0.5475(3)
C42_13 C 0.9517(2) 0.8732(2) 0.6206(2)
H21_13 H 0.9250 0.8628 0.6204
C44_13 C 0.96267(18) 0.9011(2) 0.6564(2)
C47_13 C 0.9515(2) 0.7902(2) 0.5647(3)
H27_13 H 0.9479 0.7865 0.5989
C48_13 C 0.9406(2) 0.7588(3) 0.5319(3)
H28_10 H 0.9311 0.7339 0.5445
C49_13 C 0.9439(2) 0.9228(3) 0.7440(3)
H29_13 H 0.9711 0.9183 0.7533
C50_13 C 0.9436(3) 0.7642(3) 0.4816(3)
C51_13 C 0.9603(4) 0.8012(3) 0.4653(3)
H30_13 H 0.9642 0.8048 0.4312
C52_13 C 0.9712(2) 0.8323(3) 0.4965(3)
H31_13 H 0.9811 0.8571 0.4839
C53_13 C 0.9159(2) 0.9367(3) 0.7796(3)
H32_13 H 0.9243 0.9420 0.8123
C54_10 C 0.9319(3) 0.7305(4) 0.4446(4)
C28_14 C 0.5198(2) 0.1405(2) 0.0835(3)
C29_14 C 0.6566(2) 0.0464(2) 0.3034(2)
C30_14 C 0.3013(2) 0.03455(18) 0.1246(2)
C31_14 C 0.6254(2) 0.0574(2) 0.2651(2)
C32_14 C 0.3463(2) 0.0481(2) 0.1260(2)
C33_14 C 0.47977(18) 0.1248(2) 0.0834(2)
C34_14 C 0.4696(2) 0.0960(2) 0.1204(2)
C35_14 C 0.3716(2) 0.0388(2) 0.0853(3)
H17_14 H 0.3617 0.0223 0.0595
C36_14 C 0.6071(2) 0.0758(2) 0.1824(3)
H18_14 H 0.6154 0.0794 0.1494
C37_14 C 0.5678(2) 0.0845(2) 0.1947(2)
C38_14 C 0.3619(2) 0.0699(2) 0.1649(2)
H19_14 H 0.3458 0.0743 0.1931
C39_14 C 0.63574(19) 0.0618(2) 0.2170(2)
H20_14 H 0.6623 0.0554 0.2066
C40_14 C 0.5326(2) 0.1737(2) 0.0475(3)
C41_14 C 0.4260(2) 0.0785(2) 0.1230(2)
C42_14 C 0.5483(2) 0.1268(2) 0.1206(2)
H21_14 H 0.5750 0.1372 0.1204
N2_14 N 0.45086(19) 0.1376(2) 0.0491(2)
H22_14 H 0.4485 0.1642 0.0504
H23_14 H 0.4270 0.1267 0.0553
C43_14 C 0.4974(2) 0.0830(2) 0.1558(3)
H24_14 H 0.4896 0.0635 0.1794
C44_14 C 0.53733(18) 0.0989(2) 0.1564(2)
C45_14 C 0.4012(2) 0.0854(2) 0.1630(2)
H25_14 H 0.4110 0.1010 0.1896
C46_14 C 0.4109(2) 0.0539(3) 0.0834(3)
H26_14 H 0.4277 0.0480 0.0562
C47_14 C 0.5485(2) 0.2098(2) 0.0647(3)
H27_14 H 0.5521 0.2135 0.0989
C48_14 C 0.5594(2) 0.2412(3) 0.0319(3)
H28_11 H 0.5689 0.2661 0.0445
C49_14 C 0.5561(2) 0.0772(3) 0.2440(3)
H29_14 H 0.5289 0.0817 0.2533
C53_14 C 0.5841(2) 0.0633(3) 0.2796(3)
H32_14 H 0.5757 0.0580 0.3123
C50_14 C 0.5564(3) 0.2358(3) 0.9816(3)
C51_14 C 0.5397(4) 0.1988(3) 0.9653(3)
H30_14 H 0.5358 0.1952 0.9312
C52_14 C 0.5288(2) 0.1677(3) 0.9965(3)
H31_14 H 0.5189 0.1429 0.9839
C54_11 C 0.5681(3) 0.2695(4) 0.9446(4)
C1_14 C 0.5198(2) 0.8595(2) 0.4165(3)
C2_14 C 0.6566(2) 0.9536(2) 0.1966(2)
C3_14 C 0.3013(2) 0.96545(18) 0.3754(2)
C4_14 C 0.6254(2) 0.9426(2) 0.2349(2)
C5_14 C 0.3463(2) 0.9519(2) 0.3740(2)
C6_14 C 0.47977(18) 0.8752(2) 0.4166(2)
C7_14 C 0.4696(2) 0.9040(2) 0.3796(2)
C8_14 C 0.3716(2) 0.9612(2) 0.4147(3)
H1_14 H 0.3617 0.9777 0.4405
C9_14 C 0.6071(2) 0.9242(2) 0.3176(3)
H2_14 H 0.6154 0.9206 0.3506
C10_14 C 0.5678(2) 0.9155(2) 0.3053(2)
C11_14 C 0.3619(2) 0.9301(2) 0.3351(2)
H3_14 H 0.3458 0.9257 0.3069
C12_14 C 0.63574(19) 0.9382(2) 0.2830(2)
H4_14 H 0.6623 0.9446 0.2934
C13_14 C 0.5326(2) 0.8263(2) 0.4525(3)
C14_14 C 0.4260(2) 0.9215(2) 0.3770(2)
C15_14 C 0.5483(2) 0.8732(2) 0.3794(2)
H5_14 H 0.5750 0.8628 0.3796
N1_14 N 0.45086(19) 0.8624(2) 0.4509(2)
H6_14 H 0.4485 0.8358 0.4496
H7_14 H 0.4270 0.8733 0.4447
C16_14 C 0.4974(2) 0.9170(2) 0.3442(3)
H8_14 H 0.4896 0.9365 0.3206
C17_14 C 0.53733(18) 0.9011(2) 0.3436(2)
C18_14 C 0.4012(2) 0.9146(2) 0.3370(2)
H9_14 H 0.4110 0.8990 0.3104
C19_14 C 0.4109(2) 0.9461(3) 0.4166(3)
H10_14 H 0.4277 0.9520 0.4438
C20_14 C 0.5485(2) 0.7902(2) 0.4353(3)
H11_14 H 0.5521 0.7865 0.4011
C21_14 C 0.5594(2) 0.7588(3) 0.4681(3)
H12_14 H 0.5689 0.7339 0.4555
C22_14 C 0.5561(2) 0.9228(3) 0.2560(3)
H13_14 H 0.5289 0.9183 0.2467
C23_10 C 0.5564(3) 0.7642(3) 0.5184(3)
C24_10 C 0.5397(4) 0.8012(3) 0.5347(3)
H14_10 H 0.5358 0.8048 0.5688
C25_10 C 0.5288(2) 0.8323(3) 0.5035(3)
H15_10 H 0.5189 0.8571 0.5161
C26_14 C 0.5841(2) 0.9367(3) 0.2204(3)
H16_14 H 0.5757 0.9420 0.1877
C27_10 C 0.5681(3) 0.7305(4) 0.5554(4)
C1_15 C 0.6095(2) 0.2302(2) 0.6665(3)
C2_15 C 0.7036(2) 0.0934(2) 0.4466(2)
C3_15 C 0.71545(18) 0.4487(2) 0.6254(2)
C4_15 C 0.6926(2) 0.1246(2) 0.4849(2)
C5_15 C 0.7019(2) 0.4037(2) 0.6240(2)
C6_15 C 0.6252(2) 0.27023(18) 0.6666(2)
C7_15 C 0.6540(2) 0.2804(2) 0.6296(2)
C8_15 C 0.7112(2) 0.3784(2) 0.6647(3)
H1_15 H 0.7277 0.3883 0.6905
C9_15 C 0.6742(2) 0.1429(2) 0.5676(3)
H2_15 H 0.6706 0.1346 0.6006
C10_15 C 0.6655(2) 0.1822(2) 0.5553(2)
C11_15 C 0.6801(2) 0.3881(2) 0.5851(2)
H3_15 H 0.6757 0.4042 0.5569
C12_15 C 0.6882(2) 0.11426(19) 0.5330(2)
H4_15 H 0.6946 0.0877 0.5434
C13_15 C 0.5763(2) 0.2174(2) 0.7025(3)
C14_15 C 0.6715(2) 0.3240(2) 0.6270(2)
C15_15 C 0.6232(2) 0.2017(2) 0.6294(2)
H5_15 H 0.6128 0.1750 0.6296
N1_15 N 0.6124(2) 0.29914(19) 0.7009(2)
H6_15 H 0.5858 0.3015 0.6996
H7_15 H 0.6233 0.3230 0.6947
C16_15 C 0.6670(2) 0.2526(2) 0.5942(3)
H8_15 H 0.6865 0.2604 0.5706
C17_15 C 0.6511(2) 0.21267(18) 0.5936(2)
C18_15 C 0.6646(2) 0.3488(2) 0.5870(2)
H9_15 H 0.6490 0.3390 0.5604
C19_15 C 0.6961(3) 0.3391(2) 0.6666(3)
H10_15 H 0.7020 0.3223 0.6938
C20_15 C 0.5402(2) 0.2015(2) 0.6853(3)
H11_15 H 0.5365 0.1979 0.6511
C21_15 C 0.5088(3) 0.1906(2) 0.7181(3)
H12_15 H 0.4839 0.1811 0.7055
C22_15 C 0.6728(3) 0.1939(2) 0.5060(3)
H13_15 H 0.6683 0.2211 0.4967
C23_11 C 0.5142(3) 0.1936(3) 0.7684(3)
C24_11 C 0.5512(3) 0.2103(4) 0.7847(3)
H14_11 H 0.5548 0.2142 0.8188
C25_11 C 0.5823(3) 0.2212(2) 0.7535(3)
H15_11 H 0.6071 0.2311 0.7661
C26_15 C 0.6867(3) 0.1659(2) 0.4704(3)
H16_15 H 0.6920 0.1743 0.4377
C27_11 C 0.4805(4) 0.1819(3) 0.8054(4)
C28_15 C 0.8905(2) 0.2302(2) 0.3335(3)
C29_15 C 0.7964(2) 0.0934(2) 0.5534(2)
C30_15 C 0.78455(18) 0.4487(2) 0.3746(2)
C31_15 C 0.8074(2) 0.1246(2) 0.5151(2)
C32_15 C 0.7981(2) 0.4037(2) 0.3760(2)
C33_15 C 0.8748(2) 0.27023(18) 0.3334(2)
C34_15 C 0.8460(2) 0.2804(2) 0.3704(2)
C35_15 C 0.7888(2) 0.3784(2) 0.3353(3)
H17_15 H 0.7723 0.3883 0.3095
C36_15 C 0.8258(2) 0.1429(2) 0.4324(3)
H18_15 H 0.8294 0.1346 0.3994
C37_15 C 0.8345(2) 0.1822(2) 0.4447(2)
C38_15 C 0.8199(2) 0.3881(2) 0.4149(2)
H19_15 H 0.8243 0.4042 0.4431
C39_15 C 0.8118(2) 0.11426(19) 0.4670(2)
H20_15 H 0.8054 0.0877 0.4566
C40_15 C 0.9237(2) 0.2174(2) 0.2975(3)
C41_15 C 0.8285(2) 0.3240(2) 0.3730(2)
C42_15 C 0.8768(2) 0.2017(2) 0.3706(2)
H21_15 H 0.8872 0.1750 0.3704
N2_15 N 0.8876(2) 0.29914(19) 0.2991(2)
H22_15 H 0.9142 0.3015 0.3004
H23_15 H 0.8767 0.3230 0.3053
C43_15 C 0.8330(2) 0.2526(2) 0.4058(3)
H24_15 H 0.8135 0.2604 0.4294
C44_15 C 0.8489(2) 0.21267(18) 0.4064(2)
C45_15 C 0.8354(2) 0.3488(2) 0.4130(2)
H25_15 H 0.8510 0.3390 0.4396
C46_15 C 0.8039(3) 0.3391(2) 0.3334(3)
H26_15 H 0.7980 0.3223 0.3062
C47_15 C 0.9598(2) 0.2015(2) 0.3147(3)
H27_15 H 0.9635 0.1979 0.3489
C48_15 C 0.9912(3) 0.1906(2) 0.2819(3)
C49_15 C 0.8272(3) 0.1939(2) 0.4940(3)
H29_15 H 0.8317 0.2211 0.5033
C50_15 C 0.9858(3) 0.1936(3) 0.2316(3)
C51_15 C 0.9488(3) 0.2103(4) 0.2153(3)
H30_15 H 0.9452 0.2142 0.1812
C52_15 C 0.9177(3) 0.2212(2) 0.2465(3)
H31_15 H 0.8929 0.2311 0.2339
C53_15 C 0.8133(3) 0.1659(2) 0.5296(3)
H32_15 H 0.8080 0.1743 0.5623
H12_16 H 0.0161 0.8189 0.2055
C27_12 C 0.0195(4) 0.8181(3) 0.3054(4)
C1_16 C 0.8905(2) 0.7698(2) 0.1665(3)
C3_16 C 0.78455(18) 0.5513(2) 0.1254(2)
C5_16 C 0.7981(2) 0.5963(2) 0.1240(2)
C6_16 C 0.8748(2) 0.72977(18) 0.1666(2)
C7_16 C 0.8460(2) 0.7196(2) 0.1296(2)
C8_16 C 0.7888(2) 0.6216(2) 0.1647(3)
H1_16 H 0.7723 0.6117 0.1905
C9_16 C 0.8258(2) 0.8571(2) 0.0676(3)
H2_16 H 0.8294 0.8654 0.1006
C10_16 C 0.8345(2) 0.8178(2) 0.0553(2)
C11_16 C 0.8199(2) 0.6119(2) 0.0851(2)
H3_16 H 0.8243 0.5958 0.0569
C12_16 C 0.8118(2) 0.88574(19) 0.0330(2)
H4_16 H 0.8054 0.9123 0.0434
C13_16 C 0.9237(2) 0.7826(2) 0.2025(3)
C14_16 C 0.8285(2) 0.6760(2) 0.1270(2)
C15_16 C 0.8768(2) 0.7983(2) 0.1294(2)
H5_16 H 0.8872 0.8250 0.1296
N1_16 N 0.8876(2) 0.70086(19) 0.2009(2)
H6_16 H 0.9142 0.6985 0.1996
H7_16 H 0.8767 0.6770 0.1947
C16_16 C 0.8330(2) 0.7474(2) 0.0942(3)
H8_16 H 0.8135 0.7396 0.0706
C17_16 C 0.8489(2) 0.78733(18) 0.0936(2)
C18_16 C 0.8354(2) 0.6512(2) 0.0870(2)
H9_16 H 0.8510 0.6610 0.0604
C19_16 C 0.8039(3) 0.6609(2) 0.1666(3)
H10_16 H 0.7980 0.6777 0.1938
C20_16 C 0.9598(2) 0.7985(2) 0.1853(3)
H11_16 H 0.9635 0.8021 0.1511
C21_16 C 0.9912(3) 0.8094(2) 0.2181(3)
C22_16 C 0.8272(3) 0.8061(2) 0.0060(3)
C23_12 C 0.9858(3) 0.8064(3) 0.2684(3)
C24_12 C 0.9488(3) 0.7897(4) 0.2847(3)
H14_12 H 0.9452 0.7858 0.3188
C25_12 C 0.9177(3) 0.7788(2) 0.2535(3)
H15_12 H 0.8929 0.7689 0.2661
C29_16 C 0.7036(2) 0.9066(2) 0.0534(2)
C31_16 C 0.6926(2) 0.8754(2) 0.0151(2)
H29_16 H 0.6683 0.7789 0.0033
C53_16 C 0.6867(3) 0.8341(2) 0.0296(3)
H32_16 H 0.6920 0.8257 0.0623
C2_16 C 0.7964(2) 0.9066(2) 0.9466(2)
C4_16 C 0.8074(2) 0.8754(2) 0.9849(2)
H13_16 H 0.8317 0.7789 0.9967
C26_16 C 0.8133(3) 0.8341(2) 0.9704(3)
H16_16 H 0.8080 0.8257 0.9377
C28_16 C 0.6095(2) 0.7698(2) 0.8335(3)
C30_16 C 0.71545(18) 0.5513(2) 0.8746(2)
C32_16 C 0.7019(2) 0.5963(2) 0.8760(2)
C33_16 C 0.6252(2) 0.72977(18) 0.8334(2)
C34_16 C 0.6540(2) 0.7196(2) 0.8704(2)
C35_16 C 0.7112(2) 0.6216(2) 0.8353(3)
H17_16 H 0.7277 0.6117 0.8095
C36_16 C 0.6742(2) 0.8571(2) 0.9324(3)
H18_16 H 0.6706 0.8654 0.8994
C37_16 C 0.6655(2) 0.8178(2) 0.9447(2)
C38_16 C 0.6801(2) 0.6119(2) 0.9149(2)
H19_16 H 0.6757 0.5958 0.9431
C39_16 C 0.6882(2) 0.88574(19) 0.9670(2)
H20_16 H 0.6946 0.9123 0.9566
C40_16 C 0.5763(2) 0.7826(2) 0.7975(3)
C41_16 C 0.6715(2) 0.6760(2) 0.8730(2)
C42_16 C 0.6232(2) 0.7983(2) 0.8706(2)
H21_16 H 0.6128 0.8250 0.8704
N2_16 N 0.6124(2) 0.70086(19) 0.7991(2)
H22_16 H 0.5858 0.6985 0.8004
H23_16 H 0.6233 0.6770 0.8053
C43_16 C 0.6670(2) 0.7474(2) 0.9058(3)
H24_16 H 0.6865 0.7396 0.9294
C44_16 C 0.6511(2) 0.78733(18) 0.9064(2)
C45_16 C 0.6646(2) 0.6512(2) 0.9130(2)
H25_16 H 0.6490 0.6610 0.9396
C46_16 C 0.6961(3) 0.6609(2) 0.8334(3)
H26_16 H 0.7020 0.6777 0.8062
C47_16 C 0.5402(2) 0.7985(2) 0.8147(3)
H27_16 H 0.5365 0.8021 0.8489
C48_16 C 0.5088(3) 0.8094(2) 0.7819(3)
H28_12 H 0.4839 0.8189 0.7945
C49_16 C 0.6728(3) 0.8061(2) 0.9940(3)
C50_16 C 0.5142(3) 0.8064(3) 0.7316(3)
C51_16 C 0.5512(3) 0.7897(4) 0.7153(3)
H30_16 H 0.5548 0.7858 0.6812
C52_16 C 0.5823(3) 0.7788(2) 0.7465(3)
H31_16 H 0.6071 0.7689 0.7339
C54_12 C 0.4805(4) 0.8181(3) 0.6946(4)
Cd2_7 Cd 0.92131(4) 0.82869(4) 0.8750
O5_7 O 0.9308(2) 0.8055(2) 0.9590(3)
O6_7 O 0.9234(3) 0.7592(3) 0.9015(2)
C23_13 C 0.9436(3) 0.7358(3) 0.9816(3)
C24_13 C 0.9603(4) 0.6988(3) 0.9653(3)
H14_13 H 0.9642 0.6952 0.9312
C25_13 C 0.9712(2) 0.6677(3) 0.9965(3)
H15_13 H 0.9811 0.6429 0.9839
C27_13 C 0.9319(3) 0.7695(4) 0.9446(4)
O23_13 O 0.9445(2) 0.8192(2) 0.7910(3)
O24_13 O 0.9908(3) 0.8266(3) 0.8485(2)
H28_13 H 0.9839 0.8189 0.7055
C54_13 C 0.9805(4) 0.8181(3) 0.8054(4)
O11_7 O 0.0555(2) 0.6808(2) 0.7910(3)
O12_7 O 0.0092(3) 0.6734(3) 0.8485(2)
H28_14 H 0.0161 0.6811 0.7055
C54_14 C 0.0195(4) 0.6819(3) 0.8054(4)
Cd6_7 Cd 0.07869(4) 0.67131(4) 0.8750
O23_14 O 0.0692(2) 0.6945(2) 0.9590(3)
O24_14 O 0.0766(3) 0.7408(3) 0.9015(2)
C23_14 C 0.0564(3) 0.7642(3) 0.9816(3)
C24_14 C 0.0397(4) 0.8012(3) 0.9653(3)
H14_14 H 0.0358 0.8048 0.9312
C25_14 C 0.0288(2) 0.8323(3) 0.9965(3)
H15_14 H 0.0189 0.8571 0.9839
C27_14 C 0.0681(3) 0.7305(4) 0.9446(4)
Cd2_8 Cd 0.07869(4) 0.17131(4) 0.1250
O5_8 O 0.0692(2) 0.1945(2) 0.0410(3)
O6_8 O 0.0766(3) 0.2408(3) 0.0985(2)
C23_15 C 0.0564(3) 0.2642(3) 0.0184(3)
C24_15 C 0.0397(4) 0.3012(3) 0.0347(3)
H14_15 H 0.0358 0.3048 0.0688
C25_15 C 0.0288(2) 0.3323(3) 0.0035(3)
H15_15 H 0.0189 0.3571 0.0161
C27_15 C 0.0681(3) 0.2305(4) 0.0554(4)
O23_15 O 0.0555(2) 0.1808(2) 0.2090(3)
O24_15 O 0.0092(3) 0.1734(3) 0.1515(2)
H28_15 H 0.0161 0.1811 0.2945
C54_15 C 0.0195(4) 0.1819(3) 0.1946(4)
O11_8 O 0.9445(2) 0.3192(2) 0.2090(3)
O12_8 O 0.9908(3) 0.3266(3) 0.1515(2)
H28_16 H 0.9839 0.3189 0.2945
C54_16 C 0.9805(4) 0.3181(3) 0.1946(4)
Cd6_8 Cd 0.92131(4) 0.32869(4) 0.1250
O23_16 O 0.9308(2) 0.3055(2) 0.0410(3)
O24_16 O 0.9234(3) 0.2592(3) 0.0985(2)
C23_16 C 0.9436(3) 0.2358(3) 0.0184(3)
C24_16 C 0.9603(4) 0.1988(3) 0.0347(3)
H14_16 H 0.9642 0.1952 0.0688
C25_16 C 0.9712(2) 0.1677(3) 0.0035(3)
H15_16 H 0.9811 0.1429 0.0161
C27_16 C 0.9319(3) 0.2695(4) 0.0554(4)
loop_
_geom_bond_atom_site_label_1
_geom_bond_atom_site_label_2
_geom_bond_site_symmetry_1
_geom_bond_site_symmetry_2
O11 C54 1_555 1_555
O12 C54 1_555 1_555
C51 C50 1_555 1_555
H30 C51 1_555 1_555
H31 C52 1_555 1_555
C54 C50 1_555 1_555
Cd6 O11 1_555 1_555
O12 Cd6 1_555 1_555
C51 C52 1_555 1_555
Ba1 O1 1_555 1_555
Cd1 O2 1_555 1_555
Cd2 O5 1_555 1_555
O1 C2 1_555 1_555
O2 C3 1_555 1_555
O3 Cd1 1_555 1_555
O4 C2 1_555 1_555
C1 C6 1_555 1_555
C2 C4 1_555 1_555
C3 O3 1_555 1_555
C4 C12 1_555 1_555
C5 C3 1_555 1_555
C6 C7 1_555 1_555
C7 C14 1_555 1_555
C8 C5 1_555 1_555
H1 C8 1_555 1_555
C9 H2 1_555 1_555
C10 C9 1_555 1_555
C11 C5 1_555 1_555
H3 C11 1_555 1_555
C12 C9 1_555 1_555
H4 C12 1_555 1_555
C13 C1 1_555 1_555
C14 C18 1_555 1_555
C15 C1 1_555 1_555
H5 C15 1_555 1_555
N1 C6 1_555 1_555
H6 N1 1_555 1_555
H7 N1 1_555 1_555
C16 C7 1_555 1_555
H8 C16 1_555 1_555
C17 C10 1_555 1_555
C18 C11 1_555 1_555
H9 C18 1_555 1_555
C19 C8 1_555 1_555
H10 C19 1_555 1_555
O5 C27 1_555 1_555
C20 C13 1_555 1_555
H11 C20 1_555 1_555
O6 Cd2 1_555 1_555
C21 C20 1_555 1_555
H12 C21 1_555 1_555
C22 C10 1_555 1_555
H13 C22 1_555 1_555
C23 C21 1_555 1_555
C24 C23 1_555 1_555
H14 C24 1_555 1_555
C25 C13 1_555 1_555
H15 C25 1_555 1_555
C26 C4 1_555 1_555
H16 C26 1_555 1_555
C27 O6 1_555 1_555
O7 Ba1 1_555 1_555
O8 C30 1_555 1_555
O9 C30 1_555 1_555
O10 C29 1_555 1_555
C28 C33 1_555 1_555
C29 O7 1_555 1_555
C30 C32 1_555 1_555
C31 C29 1_555 1_555
C32 C35 1_555 1_555
C33 C34 1_555 1_555
C34 C41 1_555 1_555
C35 H17 1_555 1_555
C36 H18 1_555 1_555
C37 C36 1_555 1_555
C38 C32 1_555 1_555
H19 C38 1_555 1_555
C39 C31 1_555 1_555
H20 C39 1_555 1_555
C40 C28 1_555 1_555
C41 C45 1_555 1_555
C42 C28 1_555 1_555
H21 C42 1_555 1_555
N2 C33 1_555 1_555
H22 N2 1_555 1_555
H23 N2 1_555 1_555
C43 C34 1_555 1_555
H24 C43 1_555 1_555
C44 C37 1_555 1_555
C45 C38 1_555 1_555
H25 C45 1_555 1_555
C46 C35 1_555 1_555
H26 C46 1_555 1_555
C47 C40 1_555 1_555
H27 C47 1_555 1_555
C48 C47 1_555 1_555
H28 C48 1_555 1_555
C49 C37 1_555 1_555
H29 C49 1_555 1_555
C53 C31 1_555 1_555
H32 C53 1_555 1_555
Ba2 O2 1_555 1_555
Ba3_2 O9 1_555 1_555
Ba4 O3 1_555 1_555
Cd3 O8 1_555 1_555
Cd4 O1 1_555 1_555
Cd5 O7 1_555 1_555
O13 Cd1 1_555 1_555
O14 Cd1 1_555 1_555
O15 Cd1 1_555 1_555
O16 Ba1 1_555 1_555
O17 Ba1 1_555 1_555
O18 Cd1 1_555 1_555
O19 Ba1 1_555 1_555
O20 Ba1 1_555 1_555
O21 Cd1 1_555 1_555
O22 Cd1 1_555 1_555
O23 Cd2 1_555 1_555
O24 Cd2 1_555 1_555
O4 Cd4 1_555 1_555
C14 C19 1_555 1_555
C15 C17 1_555 1_555
C16 C17 1_555 1_555
C22 C26 1_555 1_555
C23 C27 1_555 1_555
C24 C25 1_555 1_555
O8 Ba2 1_555 1_555
O9 Cd3 1_555 1_555
O10 Cd5 1_555 1_555
C36 C39 1_555 1_555
C41 C46 1_555 1_555
C42 C44 1_555 1_555
C43 C44 1_555 1_555
C49 C53 1_555 1_555
Ba2 O13 1_555 1_555
Ba2 O18 1_555 1_555
Ba4 O14 1_555 1_555
Ba4 O15 1_555 1_555
Cd4 O16 1_555 1_555
Cd4 O20 1_555 1_555
Cd5 O17 1_555 1_555
Cd5 O19 1_555 1_555
Cd1_2 O2_2 1_555 1_555
O2_2 C3_2 1_555 1_555
O3_2 Cd1_2 1_555 1_555
C3_2 O3_2 1_555 1_555
C5_2 C3_2 1_555 1_555
C6_2 C7_2 1_555 1_555
C7_2 C14_2 1_555 1_555
C8_2 C5_2 1_555 1_555
H1_2 C8_2 1_555 1_555
C11_2 C5_2 1_555 1_555
H3_2 C11_2 1_555 1_555
C14_2 C18_2 1_555 1_555
N1_2 C6_2 1_555 1_555
H6_2 N1_2 1_555 1_555
H7_2 N1_2 1_555 1_555
C16_2 C7_2 1_555 1_555
H8_2 C16_2 1_555 1_555
C18_2 C11_2 1_555 1_555
H9_2 C18_2 1_555 1_555
C19_2 C8_2 1_555 1_555
H10_2 C19_2 1_555 1_555
O8_2 C30_2 1_555 1_555
O9_2 C30_2 1_555 1_555
C30_2 C32_2 1_555 1_555
C32_2 C35_2 1_555 1_555
C33_2 C34_2 1_555 1_555
C34_2 C41_2 1_555 1_555
C35_2 H17_2 1_555 1_555
C38_2 C32_2 1_555 1_555
H19_2 C38_2 1_555 1_555
C41_2 C45_2 1_555 1_555
N2_2 C33_2 1_555 1_555
H22_2 N2_2 1_555 1_555
H23_2 N2_2 1_555 1_555
C43_2 C34_2 1_555 1_555
H24_2 C43_2 1_555 1_555
C45_2 C38_2 1_555 1_555
H25_2 C45_2 1_555 1_555
C46_2 C35_2 1_555 1_555
H26_2 C46_2 1_555 1_555
Ba2_2 O2_2 1_555 1_555
Ba4 O9_2 1_555 1_555
Ba3 O3_2 1_555 1_555
Cd3_2 O8_2 1_555 1_555
O13_2 Cd1_2 1_555 1_555
O14_2 Cd1_2 1_555 1_555
O15_2 Cd1_2 1_555 1_555
O18_2 Cd1_2 1_555 1_555
O21_2 Cd1_2 1_555 1_555
O22_2 Cd1_2 1_555 1_555
C14_2 C19_2 1_555 1_555
O8_2 Ba2_2 1_555 1_555
O9_2 Cd3_2 1_555 1_555
C41_2 C46_2 1_555 1_555
Ba2_2 O13_2 1_555 1_555
Ba2_2 O18_2 1_555 1_555
Ba3 O14_2 1_555 1_555
Ba3 O15_2 1_555 1_555
Ba1_2 O1_2 1_555 1_555
O1_2 C2_2 1_555 1_555
O4_2 C2_2 1_555 1_555
C2_2 C4_2 1_555 1_555
C4_2 C12_2 1_555 1_555
C9_2 H2_2 1_555 1_555
C10_2 C9_2 1_555 1_555
C12_2 C9_2 1_555 1_555
H4_2 C12_2 1_555 1_555
C13_2 C1_2 1_555 1_555
C15_2 C1_2 1_555 1_555
H5_2 C15_2 1_555 1_555
C17_2 C10_2 1_555 1_555
C20_2 C13_2 1_555 1_555
H11_2 C20_2 1_555 1_555
C21_2 C20_2 1_555 1_555
H12_2 C21_2 1_555 1_555
C22_2 C10_2 1_555 1_555
H13_2 C22_2 1_555 1_555
C26_2 C4_2 1_555 1_555
H16_2 C26_2 1_555 1_555
O7_2 Ba1_2 1_555 1_555
O10_2 C29_2 1_555 1_555
C29_2 O7_2 1_555 1_555
C31_2 C29_2 1_555 1_555
C36_2 H18_2 1_555 1_555
C37_2 C36_2 1_555 1_555
C39_2 C31_2 1_555 1_555
H20_2 C39_2 1_555 1_555
C40_2 C28_2 1_555 1_555
C42_2 C28_2 1_555 1_555
H21_2 C42_2 1_555 1_555
C44_2 C37_2 1_555 1_555
O11_2 C54_2 1_555 1_555
C47_2 C40_2 1_555 1_555
H27_2 C47_2 1_555 1_555
O12_2 C54_2 1_555 1_555
C48_2 C47_2 1_555 1_555
H28_2 C48_2 1_555 1_555
C49_2 C37_2 1_555 1_555
H29_2 C49_2 1_555 1_555
C50_2 C48_2 1_555 1_555
C51_2 C50_2 1_555 1_555
H30_2 C51_2 1_555 1_555
C52_2 C40_2 1_555 1_555
H31_2 C52_2 1_555 1_555
C53_2 C31_2 1_555 1_555
H32_2 C53_2 1_555 1_555
C54_2 C50_2 1_555 1_555
Cd4_2 O1_2 1_555 1_555
Cd5_2 O7_2 1_555 1_555
Cd6_2 O11_2 1_555 1_555
O16_2 Ba1_2 1_555 1_555
O17_2 Ba1_2 1_555 1_555
O19_2 Ba1_2 1_555 1_555
O20_2 Ba1_2 1_555 1_555
O4_2 Cd4_2 1_555 1_555
C15_2 C17_2 1_555 1_555
C22_2 C26_2 1_555 1_555
O10_2 Cd5_2 1_555 1_555
C36_2 C39_2 1_555 1_555
C42_2 C44_2 1_555 1_555
O12_2 Cd6_2 1_555 1_555
C49_2 C53_2 1_555 1_555
C51_2 C52_2 1_555 1_555
Cd4_2 O16_2 1_555 1_555
Cd4_2 O20_2 1_555 1_555
Cd5_2 O17_2 1_555 1_555
Cd5_2 O19_2 1_555 1_555
Cd2_2 O5_2 1_555 1_555
O5_2 C27_2 1_555 1_555
O6_2 Cd2_2 1_555 1_555
C27_2 O6_2 1_555 1_555
O23_2 Cd2_2 1_555 1_555
O24_2 Cd2_2 1_555 1_555
Ba1_3 O1_3 1_555 1_555
O1_3 C2_3 1_555 1_555
O4_3 C2_3 1_555 1_555
C2_3 C4_3 1_555 1_555
C26_3 C4_3 1_555 1_555
H16_3 C26_3 1_555 1_555
O8_3 C30_3 1_555 1_555
O9_3 C30_3 1_555 1_555
C28_3 C33_3 1_555 1_555
C30_3 C32_3 1_555 1_555
C32_3 C35_3 1_555 1_555
C33_3 C34_3 1_555 1_555
C34_3 C41_3 1_555 1_555
C35_3 H17_3 1_555 1_555
C36_3 H18_3 1_555 1_555
C37_3 C36_3 1_555 1_555
C38_3 C32_3 1_555 1_555
H19_3 C38_3 1_555 1_555
H20_3 C39_3 1_555 1_555
C40_3 C28_3 1_555 1_555
C41_3 C45_3 1_555 1_555
C42_3 C28_3 1_555 1_555
H21_3 C42_3 1_555 1_555
N2_3 C33_3 1_555 1_555
H22_3 N2_3 1_555 1_555
H23_3 N2_3 1_555 1_555
C43_3 C34_3 1_555 1_555
H24_3 C43_3 1_555 1_555
C44_3 C37_3 1_555 1_555
C45_3 C38_3 1_555 1_555
H25_3 C45_3 1_555 1_555
C46_3 C35_3 1_555 1_555
H26_3 C46_3 1_555 1_555
O11_3 C54_3 1_555 1_555
C47_3 C40_3 1_555 1_555
H27_3 C47_3 1_555 1_555
O12_3 C54_3 1_555 1_555
C48_3 C47_3 1_555 1_555
H28_3 C48_3 1_555 1_555
C49_3 C37_3 1_555 1_555
C50_3 C48_3 1_555 1_555
C51_3 C50_3 1_555 1_555
H30_3 C51_3 1_555 1_555
C52_3 C40_3 1_555 1_555
H31_3 C52_3 1_555 1_555
C54_3 C50_3 1_555 1_555
Ba3_3 O9_3 1_555 1_555
Cd5_2 O1_3 1_555 1_555
Cd6_3 O11_3 1_555 1_555
O16_3 Ba1_3 1_555 1_555
O20_3 Ba1_3 1_555 1_555
O4_3 Cd5_2 1_555 1_555
O8_3 Ba2_3 1_555 1_555
C36_3 C39_3 1_555 1_555
C41_3 C46_3 1_555 1_555
C42_3 C44_3 1_555 1_555
C43_3 C44_3 1_555 1_555
O12_3 Cd6_3 1_555 1_555
C51_3 C52_3 1_555 1_555
Cd5_2 O16_3 1_555 1_555
Cd5_2 O20_3 1_555 1_555
O2_3 C3_3 1_555 1_555
C1_3 C6_3 1_555 1_555
C3_3 O3_3 1_555 1_555
C5_3 C3_3 1_555 1_555
C6_3 C7_3 1_555 1_555
C7_3 C14_3 1_555 1_555
C8_3 C5_3 1_555 1_555
H1_3 C8_3 1_555 1_555
C9_3 H2_3 1_555 1_555
C10_3 C9_3 1_555 1_555
C11_3 C5_3 1_555 1_555
H3_3 C11_3 1_555 1_555
C12_3 C9_3 1_555 1_555
H4_3 C12_3 1_555 1_555
C13_3 C1_3 1_555 1_555
C14_3 C18_3 1_555 1_555
C15_3 C1_3 1_555 1_555
H5_3 C15_3 1_555 1_555
N1_3 C6_3 1_555 1_555
H6_3 N1_3 1_555 1_555
H7_3 N1_3 1_555 1_555
C16_3 C7_3 1_555 1_555
H8_3 C16_3 1_555 1_555
C17_3 C10_3 1_555 1_555
C18_3 C11_3 1_555 1_555
H9_3 C18_3 1_555 1_555
C19_3 C8_3 1_555 1_555
H10_3 C19_3 1_555 1_555
C20_3 C13_3 1_555 1_555
H11_3 C20_3 1_555 1_555
C21_3 C20_3 1_555 1_555
C22_3 C10_3 1_555 1_555
C23_2 C21_3 1_555 1_555
C24_2 C23_2 1_555 1_555
H14_2 C24_2 1_555 1_555
C25_2 C13_3 1_555 1_555
H15_2 C25_2 1_555 1_555
O7_3 Ba1_4 1_555 1_555
O10_3 C29_3 1_555 1_555
C29_3 O7_3 1_555 1_555
C31_3 C29_3 1_555 1_555
C53_3 C31_3 1_555 1_555
H32_3 C53_3 1_555 1_555
Ba2_4 O2_3 1_555 1_555
Ba4_2 O3_3 1_555 1_555
Cd4 O7_3 1_555 1_555
O17_3 Ba1_4 1_555 1_555
O19_3 Ba1_4 1_555 1_555
C14_3 C19_3 1_555 1_555
C15_3 C17_3 1_555 1_555
C16_3 C17_3 1_555 1_555
C24_2 C25_2 1_555 1_555
O10_3 Cd4 1_555 1_555
Cd4 O17_3 1_555 1_555
Cd4 O19_3 1_555 1_555
O13_3 Cd1_3 1_555 1_555
O14_3 Cd1_3 1_555 1_555
O15_3 Cd1_3 1_555 1_555
O18_3 Cd1_3 1_555 1_555
O21_3 Cd1_3 1_555 1_555
O22_3 Cd1_3 1_555 1_555
Ba4_3 O14_3 1_555 1_555
Ba4_3 O15_3 1_555 1_555
O13_4 Cd1_4 1_555 1_555
O14_4 Cd1_4 1_555 1_555
O15_4 Cd1_4 1_555 1_555
O18_4 Cd1_4 1_555 1_555
O21_4 Cd1_4 1_555 1_555
O22_4 Cd1_4 1_555 1_555
Ba3_3 O14_4 1_555 1_555
Ba3_3 O15_4 1_555 1_555
Ba1_5 O1_4 1_555 1_555
Cd2_3 O5_3 1_555 1_555
O1_4 C2_4 1_555 1_555
O2_4 C3_4 1_555 1_555
O4_4 C2_4 1_555 1_555
C1_4 C6_4 1_555 1_555
C2_4 C4_4 1_555 1_555
C3_4 O3_4 1_555 1_555
C4_4 C12_4 1_555 1_555
C5_4 C3_4 1_555 1_555
C6_4 C7_4 1_555 1_555
C7_4 C14_4 1_555 1_555
C8_4 C5_4 1_555 1_555
H1_4 C8_4 1_555 1_555
C9_4 H2_4 1_555 1_555
C10_4 C9_4 1_555 1_555
C11_4 C5_4 1_555 1_555
H3_4 C11_4 1_555 1_555
C12_4 C9_4 1_555 1_555
H4_4 C12_4 1_555 1_555
C13_4 C1_4 1_555 1_555
C14_4 C18_4 1_555 1_555
C15_4 C1_4 1_555 1_555
H5_4 C15_4 1_555 1_555
N1_4 C6_4 1_555 1_555
H6_4 N1_4 1_555 1_555
H7_4 N1_4 1_555 1_555
C16_4 C7_4 1_555 1_555
H8_4 C16_4 1_555 1_555
C17_4 C10_4 1_555 1_555
C18_4 C11_4 1_555 1_555
H9_4 C18_4 1_555 1_555
C19_4 C8_4 1_555 1_555
H10_4 C19_4 1_555 1_555
O5_3 C27_3 1_555 1_555
C20_4 C13_4 1_555 1_555
H11_4 C20_4 1_555 1_555
O6_3 Cd2_3 1_555 1_555
C21_4 C20_4 1_555 1_555
H12_4 C21_4 1_555 1_555
C22_4 C10_4 1_555 1_555
H13_4 C22_4 1_555 1_555
C23_3 C21_4 1_555 1_555
C24_3 C23_3 1_555 1_555
H14_3 C24_3 1_555 1_555
C25_3 C13_4 1_555 1_555
H15_3 C25_3 1_555 1_555
C26_4 C4_4 1_555 1_555
H16_4 C26_4 1_555 1_555
C27_3 O6_3 1_555 1_555
O7_4 Ba1_5 1_555 1_555
O8_4 C30_4 1_555 1_555
O9_4 C30_4 1_555 1_555
O10_4 C29_4 1_555 1_555
C28_4 C33_4 1_555 1_555
C29_4 O7_4 1_555 1_555
C30_4 C32_4 1_555 1_555
C31_4 C29_4 1_555 1_555
C32_4 C35_4 1_555 1_555
C33_4 C34_4 1_555 1_555
C34_4 C41_4 1_555 1_555
C35_4 H17_4 1_555 1_555
C36_4 H18_4 1_555 1_555
C37_4 C36_4 1_555 1_555
C38_4 C32_4 1_555 1_555
H19_4 C38_4 1_555 1_555
C39_4 C31_4 1_555 1_555
H20_4 C39_4 1_555 1_555
C40_4 C28_4 1_555 1_555
C41_4 C45_4 1_555 1_555
C42_4 C28_4 1_555 1_555
H21_4 C42_4 1_555 1_555
N2_4 C33_4 1_555 1_555
H22_4 N2_4 1_555 1_555
H23_4 N2_4 1_555 1_555
C43_4 C34_4 1_555 1_555
H24_4 C43_4 1_555 1_555
C44_4 C37_4 1_555 1_555
C45_4 C38_4 1_555 1_555
H25_4 C45_4 1_555 1_555
C46_4 C35_4 1_555 1_555
H26_4 C46_4 1_555 1_555
C47_4 C40_4 1_555 1_555
H27_4 C47_4 1_555 1_555
C48_4 C47_4 1_555 1_555
C49_4 C37_4 1_555 1_555
H29_4 C49_4 1_555 1_555
C50_4 C48_4 1_555 1_555
C51_4 C50_4 1_555 1_555
H30_4 C51_4 1_555 1_555
C52_4 C40_4 1_555 1_555
H31_4 C52_4 1_555 1_555
C53_4 C31_4 1_555 1_555
H32_4 C53_4 1_555 1_555
Ba2_5 O2_4 1_555 1_555
Ba4_3 O9_4 1_555 1_555
Ba3_4 O3_4 1_555 1_555
Cd5 O1_4 1_555 1_555
Cd4_2 O7_4 1_555 1_555
O16_4 Ba1_5 1_555 1_555
O17_4 Ba1_5 1_555 1_555
O19_4 Ba1_5 1_555 1_555
O20_4 Ba1_5 1_555 1_555
O23_3 Cd2_3 1_555 1_555
O24_3 Cd2_3 1_555 1_555
O4_4 Cd5 1_555 1_555
C14_4 C19_4 1_555 1_555
C15_4 C17_4 1_555 1_555
C16_4 C17_4 1_555 1_555
C22_4 C26_4 1_555 1_555
C23_3 C27_3 1_555 1_555
C24_3 C25_3 1_555 1_555
O8_4 Ba2_5 1_555 1_555
O10_4 Cd4_2 1_555 1_555
C36_4 C39_4 1_555 1_555
C41_4 C46_4 1_555 1_555
C42_4 C44_4 1_555 1_555
C43_4 C44_4 1_555 1_555
C49_4 C53_4 1_555 1_555
C51_4 C52_4 1_555 1_555
Cd5 O16_4 1_555 1_555
Cd5 O20_4 1_555 1_555
Cd4_2 O17_4 1_555 1_555
Cd4_2 O19_4 1_555 1_555
O13_5 Cd3_2 1_555 1_555
O14_5 Cd3_2 1_555 1_555
O15_5 Cd3_2 1_555 1_555
O18_5 Cd3_2 1_555 1_555
O21_5 Cd3_2 1_555 1_555
O22_5 Cd3_2 1_555 1_555
Ba2_2 O13_5 1_555 1_555
Ba2_2 O18_5 1_555 1_555
Ba4 O14_5 1_555 1_555
Ba4 O15_5 1_555 1_555
O23_4 Cd6_2 1_555 1_555
O24_4 Cd6_2 1_555 1_555
O23_5 Cd6 1_555 1_555
O24_5 Cd6 1_555 1_555
O13_6 Cd3 1_555 1_555
O14_6 Cd3 1_555 1_555
O15_6 Cd3 1_555 1_555
O18_6 Cd3 1_555 1_555
O21_6 Cd3 1_555 1_555
O22_6 Cd3 1_555 1_555
Ba2 O13_6 1_555 1_555
Ba2 O18_6 1_555 1_555
Ba3_2 O14_6 1_555 1_555
Ba3_2 O15_6 1_555 1_555
O23_6 Cd6_3 1_555 1_555
O24_6 Cd6_3 1_555 1_555
O13_7 Cd3_3 1_555 1_555
O14_7 Cd3_3 1_555 1_555
O15_7 Cd3_3 1_555 1_555
O18_7 Cd3_3 1_555 1_555
O21_7 Cd3_3 1_555 1_555
O22_7 Cd3_3 1_555 1_555
Ba3_4 O14_7 1_555 1_555
Ba3_4 O15_7 1_555 1_555
O13_8 Cd3_4 1_555 1_555
O14_8 Cd3_4 1_555 1_555
O15_8 Cd3_4 1_555 1_555
O18_8 Cd3_4 1_555 1_555
O21_8 Cd3_4 1_555 1_555
O22_8 Cd3_4 1_555 1_555
Ba4_2 O14_8 1_555 1_555
Ba4_2 O15_8 1_555 1_555
O7_5 Ba1_6 1_555 1_555
O10_5 C29_5 1_555 1_555
C29_5 O7_5 1_555 1_555
C31_5 C29_5 1_555 1_555
C36_5 H18_5 1_555 1_555
C37_5 C36_5 1_555 1_555
C39_5 C31_5 1_555 1_555
H20_5 C39_5 1_555 1_555
C40_5 C28_5 1_555 1_555
C42_5 C28_5 1_555 1_555
H21_5 C42_5 1_555 1_555
C44_5 C37_5 1_555 1_555
O23_2 C54_4 1_555 1_555
C47_5 C40_5 1_555 1_555
H27_5 C47_5 1_555 1_555
O24_2 C54_4 1_555 1_555
C48_5 C47_5 1_555 1_555
H28_4 C48_5 1_555 1_555
C49_5 C37_5 1_555 1_555
H29_5 C49_5 1_555 1_555
C50_5 C48_5 1_555 1_555
C51_5 C50_5 1_555 1_555
H30_5 C51_5 1_555 1_555
C52_5 C40_5 1_555 1_555
H31_5 C52_5 1_555 1_555
C53_5 C31_5 1_555 1_555
H32_5 C53_5 1_555 1_555
C54_4 C50_5 1_555 1_555
Cd5_3 O7_5 1_555 1_555
O17_5 Ba1_6 1_555 1_555
O20_5 Ba1_6 1_555 1_555
O10_5 Cd5_3 1_555 1_555
C36_5 C39_5 1_555 1_555
C42_5 C44_5 1_555 1_555
C49_5 C53_5 1_555 1_555
C51_5 C52_5 1_555 1_555
Cd5_3 O17_5 1_555 1_555
Ba1_7 O1_5 1_555 1_555
O1_5 C2_5 1_555 1_555
O4_5 C2_5 1_555 1_555
C2_5 C4_5 1_555 1_555
C4_5 C12_5 1_555 1_555
C9_5 H2_5 1_555 1_555
C10_5 C9_5 1_555 1_555
C12_5 C9_5 1_555 1_555
H4_5 C12_5 1_555 1_555
C13_5 C1_5 1_555 1_555
C15_5 C1_5 1_555 1_555
H5_5 C15_5 1_555 1_555
C17_5 C10_5 1_555 1_555
C20_5 C13_5 1_555 1_555
H11_5 C20_5 1_555 1_555
C21_5 C20_5 1_555 1_555
H12_5 C21_5 1_555 1_555
C22_5 C10_5 1_555 1_555
H13_5 C22_5 1_555 1_555
C26_5 C4_5 1_555 1_555
H16_5 C26_5 1_555 1_555
Cd4_3 O1_5 1_555 1_555
O16_5 Ba1_7 1_555 1_555
O19_5 Ba1_7 1_555 1_555
O4_5 Cd4_3 1_555 1_555
C15_5 C17_5 1_555 1_555
C22_5 C26_5 1_555 1_555
Cd4_3 O16_5 1_555 1_555
O15_4 C30_5 1_555 1_555
O18_4 C30_5 1_555 1_555
C30_5 C32_5 1_555 1_555
C32_5 C35_5 1_555 1_555
C33_5 C34_5 1_555 1_555
C34_5 C41_5 1_555 1_555
C35_5 H17_5 1_555 1_555
C38_5 C32_5 1_555 1_555
H19_5 C38_5 1_555 1_555
C41_5 C45_5 1_555 1_555
N2_5 C33_5 1_555 1_555
H22_5 N2_5 1_555 1_555
H23_5 N2_5 1_555 1_555
C43_5 C34_5 1_555 1_555
H24_5 C43_5 1_555 1_555
C45_5 C38_5 1_555 1_555
H25_5 C45_5 1_555 1_555
C46_5 C35_5 1_555 1_555
H26_5 C46_5 1_555 1_555
C41_5 C46_5 1_555 1_555
O15_7 C3_5 1_555 1_555
C3_5 O18_7 1_555 1_555
C5_5 C3_5 1_555 1_555
C6_5 C7_5 1_555 1_555
C7_5 C14_5 1_555 1_555
C8_5 C5_5 1_555 1_555
H1_5 C8_5 1_555 1_555
C11_5 C5_5 1_555 1_555
H3_5 C11_5 1_555 1_555
C14_5 C18_5 1_555 1_555
N1_5 C6_5 1_555 1_555
H6_5 N1_5 1_555 1_555
H7_5 N1_5 1_555 1_555
C16_5 C7_5 1_555 1_555
H8_5 C16_5 1_555 1_555
C18_5 C11_5 1_555 1_555
H9_5 C18_5 1_555 1_555
C19_5 C8_5 1_555 1_555
H10_5 C19_5 1_555 1_555
C14_5 C19_5 1_555 1_555
Ba1_8 O1_6 1_555 1_555
O1_6 C2_6 1_555 1_555
O15_8 C3_6 1_555 1_555
O4_6 C2_6 1_555 1_555
C1_6 C6_6 1_555 1_555
C2_6 C4_6 1_555 1_555
C3_6 O18_8 1_555 1_555
C4_6 C12_6 1_555 1_555
C5_6 C3_6 1_555 1_555
C6_6 C7_6 1_555 1_555
C7_6 C14_6 1_555 1_555
C8_6 C5_6 1_555 1_555
H1_6 C8_6 1_555 1_555
C9_6 H2_6 1_555 1_555
C10_6 C9_6 1_555 1_555
C11_6 C5_6 1_555 1_555
H3_6 C11_6 1_555 1_555
C12_6 C9_6 1_555 1_555
H4_6 C12_6 1_555 1_555
C13_6 C1_6 1_555 1_555
C14_6 C18_6 1_555 1_555
C15_6 C1_6 1_555 1_555
H5_6 C15_6 1_555 1_555
N1_6 C6_6 1_555 1_555
H6_6 N1_6 1_555 1_555
H7_6 N1_6 1_555 1_555
C16_6 C7_6 1_555 1_555
H8_6 C16_6 1_555 1_555
C17_6 C10_6 1_555 1_555
C18_6 C11_6 1_555 1_555
H9_6 C18_6 1_555 1_555
C19_6 C8_6 1_555 1_555
H10_6 C19_6 1_555 1_555
O23_6 C27_4 1_555 1_555
C20_6 C13_6 1_555 1_555
H11_6 C20_6 1_555 1_555
C21_6 C20_6 1_555 1_555
H12_6 C21_6 1_555 1_555
C22_6 C10_6 1_555 1_555
H13_6 C22_6 1_555 1_555
C23_4 C21_6 1_555 1_555
C24_4 C23_4 1_555 1_555
H14_4 C24_4 1_555 1_555
C25_4 C13_6 1_555 1_555
H15_4 C25_4 1_555 1_555
C26_6 C4_6 1_555 1_555
H16_6 C26_6 1_555 1_555
C27_4 O24_6 1_555 1_555
Cd4_4 O1_6 1_555 1_555
O16_6 Ba1_8 1_555 1_555
O19_6 Ba1_8 1_555 1_555
O4_6 Cd4_4 1_555 1_555
C14_6 C19_6 1_555 1_555
C15_6 C17_6 1_555 1_555
C16_6 C17_6 1_555 1_555
C22_6 C26_6 1_555 1_555
C23_4 C27_4 1_555 1_555
C24_4 C25_4 1_555 1_555
Cd4_4 O16_6 1_555 1_555
O23_3 C54_5 1_555 1_555
O24_3 C54_5 1_555 1_555
C51_6 C50_6 1_555 1_555
H30_6 C51_6 1_555 1_555
H31_6 C52_6 1_555 1_555
C54_5 C50_6 1_555 1_555
C51_6 C52_6 1_555 1_555
O7_6 Ba1_9 1_555 1_555
O15_3 C30_6 1_555 1_555
O18_3 C30_6 1_555 1_555
O10_6 C29_6 1_555 1_555
C28_6 C33_6 1_555 1_555
C29_6 O7_6 1_555 1_555
C30_6 C32_6 1_555 1_555
C31_6 C29_6 1_555 1_555
C32_6 C35_6 1_555 1_555
C33_6 C34_6 1_555 1_555
C34_6 C41_6 1_555 1_555
C35_6 H17_6 1_555 1_555
C36_6 H18_6 1_555 1_555
C37_6 C36_6 1_555 1_555
C38_6 C32_6 1_555 1_555
H19_6 C38_6 1_555 1_555
C39_6 C31_6 1_555 1_555
H20_6 C39_6 1_555 1_555
C40_6 C28_6 1_555 1_555
C41_6 C45_6 1_555 1_555
C42_6 C28_6 1_555 1_555
H21_6 C42_6 1_555 1_555
N2_6 C33_6 1_555 1_555
H22_6 N2_6 1_555 1_555
H23_6 N2_6 1_555 1_555
C43_6 C34_6 1_555 1_555
H24_6 C43_6 1_555 1_555
C44_6 C37_6 1_555 1_555
C45_6 C38_6 1_555 1_555
H25_6 C45_6 1_555 1_555
C46_6 C35_6 1_555 1_555
H26_6 C46_6 1_555 1_555
C47_6 C40_6 1_555 1_555
H27_6 C47_6 1_555 1_555
C48_6 C47_6 1_555 1_555
H28_5 C48_6 1_555 1_555
C49_6 C37_6 1_555 1_555
H29_6 C49_6 1_555 1_555
C53_6 C31_6 1_555 1_555
H32_6 C53_6 1_555 1_555
Cd5_4 O7_6 1_555 1_555
O17_6 Ba1_9 1_555 1_555
O20_6 Ba1_9 1_555 1_555
O10_6 Cd5_4 1_555 1_555
C36_6 C39_6 1_555 1_555
C41_6 C46_6 1_555 1_555
C42_6 C44_6 1_555 1_555
C43_6 C44_6 1_555 1_555
C49_6 C53_6 1_555 1_555
Cd5_4 O17_6 1_555 1_555
O16_7 Ba1_10 1_555 1_555
O17_7 Ba1_10 1_555 1_555
O1_7 C2_7 1_555 1_555
O15_5 C3_7 1_555 1_555
O4_7 C2_7 1_555 1_555
C1_7 C6_7 1_555 1_555
C2_7 C4_7 1_555 1_555
C3_7 O18_5 1_555 1_555
C4_7 C12_7 1_555 1_555
C5_7 C3_7 1_555 1_555
C6_7 C7_7 1_555 1_555
C7_7 C14_7 1_555 1_555
C8_7 C5_7 1_555 1_555
H1_7 C8_7 1_555 1_555
C9_7 H2_7 1_555 1_555
C10_7 C9_7 1_555 1_555
C11_7 C5_7 1_555 1_555
H3_7 C11_7 1_555 1_555
C12_7 C9_7 1_555 1_555
H4_7 C12_7 1_555 1_555
C13_7 C1_7 1_555 1_555
C14_7 C18_7 1_555 1_555
C15_7 C1_7 1_555 1_555
H5_7 C15_7 1_555 1_555
N1_7 C6_7 1_555 1_555
H6_7 N1_7 1_555 1_555
H7_7 N1_7 1_555 1_555
C16_7 C7_7 1_555 1_555
H8_7 C16_7 1_555 1_555
C17_7 C10_7 1_555 1_555
C18_7 C11_7 1_555 1_555
H9_7 C18_7 1_555 1_555
C19_7 C8_7 1_555 1_555
H10_7 C19_7 1_555 1_555
O23_5 C27_5 1_555 1_555
C20_7 C13_7 1_555 1_555
H11_7 C20_7 1_555 1_555
C21_7 C20_7 1_555 1_555
H12_7 C21_7 1_555 1_555
C22_7 C10_7 1_555 1_555
H13_7 C22_7 1_555 1_555
C23_5 C21_7 1_555 1_555
C24_5 C23_5 1_555 1_555
H14_5 C24_5 1_555 1_555
C25_5 C13_7 1_555 1_555
H15_5 C25_5 1_555 1_555
C26_7 C4_7 1_555 1_555
H16_7 C26_7 1_555 1_555
C27_5 O24_5 1_555 1_555
O15 C30_7 1_555 1_555
O18 C30_7 1_555 1_555
O10_7 C29_7 1_555 1_555
C28_7 C33_7 1_555 1_555
C29_7 O7_7 1_555 1_555
C30_7 C32_7 1_555 1_555
C31_7 C29_7 1_555 1_555
C32_7 C35_7 1_555 1_555
C33_7 C34_7 1_555 1_555
C34_7 C41_7 1_555 1_555
C35_7 H17_7 1_555 1_555
C36_7 H18_7 1_555 1_555
C37_7 C36_7 1_555 1_555
C38_7 C32_7 1_555 1_555
H19_7 C38_7 1_555 1_555
C39_7 C31_7 1_555 1_555
H20_7 C39_7 1_555 1_555
C40_7 C28_7 1_555 1_555
C41_7 C45_7 1_555 1_555
C42_7 C28_7 1_555 1_555
H21_7 C42_7 1_555 1_555
N2_7 C33_7 1_555 1_555
H22_7 N2_7 1_555 1_555
H23_7 N2_7 1_555 1_555
C43_7 C34_7 1_555 1_555
H24_7 C43_7 1_555 1_555
C44_7 C37_7 1_555 1_555
C45_7 C38_7 1_555 1_555
H25_7 C45_7 1_555 1_555
C46_7 C35_7 1_555 1_555
H26_7 C46_7 1_555 1_555
C47_7 C40_7 1_555 1_555
H27_7 C47_7 1_555 1_555
C48_7 C47_7 1_555 1_555
C49_7 C37_7 1_555 1_555
H29_7 C49_7 1_555 1_555
C50_7 C48_7 1_555 1_555
C51_7 C50_7 1_555 1_555
H30_7 C51_7 1_555 1_555
C52_7 C40_7 1_555 1_555
H31_7 C52_7 1_555 1_555
C53_7 C31_7 1_555 1_555
H32_7 C53_7 1_555 1_555
Cd5_4 O1_7 1_555 1_555
Cd4_3 O7_7 1_555 1_555
O4_7 Cd5_4 1_555 1_555
C14_7 C19_7 1_555 1_555
C15_7 C17_7 1_555 1_555
C16_7 C17_7 1_555 1_555
C22_7 C26_7 1_555 1_555
C23_5 C27_5 1_555 1_555
C24_5 C25_5 1_555 1_555
O10_7 Cd4_3 1_555 1_555
C36_7 C39_7 1_555 1_555
C41_7 C46_7 1_555 1_555
C42_7 C44_7 1_555 1_555
C43_7 C44_7 1_555 1_555
C49_7 C53_7 1_555 1_555
C51_7 C52_7 1_555 1_555
Cd5_4 O20_7 1_555 1_555
Cd4_3 O19_7 1_555 1_555
O1_8 C2_8 1_555 1_555
O4_8 C2_8 1_555 1_555
C2_8 C4_8 1_555 1_555
C26_8 C4_8 1_555 1_555
H16_8 C26_8 1_555 1_555
O15_2 C30_8 1_555 1_555
O18_2 C30_8 1_555 1_555
C28_8 C33_8 1_555 1_555
C30_8 C32_8 1_555 1_555
C32_8 C35_8 1_555 1_555
C33_8 C34_8 1_555 1_555
C34_8 C41_8 1_555 1_555
C35_8 H17_8 1_555 1_555
C36_8 H18_8 1_555 1_555
C37_8 C36_8 1_555 1_555
C38_8 C32_8 1_555 1_555
H19_8 C38_8 1_555 1_555
H20_8 C39_8 1_555 1_555
C40_8 C28_8 1_555 1_555
C41_8 C45_8 1_555 1_555
C42_8 C28_8 1_555 1_555
H21_8 C42_8 1_555 1_555
N2_8 C33_8 1_555 1_555
H22_8 N2_8 1_555 1_555
H23_8 N2_8 1_555 1_555
C43_8 C34_8 1_555 1_555
H24_8 C43_8 1_555 1_555
C44_8 C37_8 1_555 1_555
C45_8 C38_8 1_555 1_555
H25_8 C45_8 1_555 1_555
C46_8 C35_8 1_555 1_555
H26_8 C46_8 1_555 1_555
O23 C54_6 1_555 1_555
C47_8 C40_8 1_555 1_555
H27_8 C47_8 1_555 1_555
O24 C54_6 1_555 1_555
C48_8 C47_8 1_555 1_555
H28_6 C48_8 1_555 1_555
C49_8 C37_8 1_555 1_555
C50_8 C48_8 1_555 1_555
C51_8 C50_8 1_555 1_555
H30_8 C51_8 1_555 1_555
C52_8 C40_8 1_555 1_555
H31_8 C52_8 1_555 1_555
C54_6 C50_8 1_555 1_555
Cd5_3 O1_8 1_555 1_555
O4_8 Cd5_3 1_555 1_555
C36_8 C39_8 1_555 1_555
C41_8 C46_8 1_555 1_555
C42_8 C44_8 1_555 1_555
C43_8 C44_8 1_555 1_555
C51_8 C52_8 1_555 1_555
Cd5_3 O20_8 1_555 1_555
O15_6 C3_8 1_555 1_555
C1_8 C6_8 1_555 1_555
C3_8 O18_6 1_555 1_555
C5_8 C3_8 1_555 1_555
C6_8 C7_8 1_555 1_555
C7_8 C14_8 1_555 1_555
C8_8 C5_8 1_555 1_555
H1_8 C8_8 1_555 1_555
C9_8 H2_8 1_555 1_555
C10_8 C9_8 1_555 1_555
C11_8 C5_8 1_555 1_555
H3_8 C11_8 1_555 1_555
C12_8 C9_8 1_555 1_555
H4_8 C12_8 1_555 1_555
C13_8 C1_8 1_555 1_555
C14_8 C18_8 1_555 1_555
C15_8 C1_8 1_555 1_555
H5_8 C15_8 1_555 1_555
N1_8 C6_8 1_555 1_555
H6_8 N1_8 1_555 1_555
H7_8 N1_8 1_555 1_555
C16_8 C7_8 1_555 1_555
H8_8 C16_8 1_555 1_555
C17_8 C10_8 1_555 1_555
C18_8 C11_8 1_555 1_555
H9_8 C18_8 1_555 1_555
C19_8 C8_8 1_555 1_555
H10_8 C19_8 1_555 1_555
C20_8 C13_8 1_555 1_555
H11_8 C20_8 1_555 1_555
C21_8 C20_8 1_555 1_555
C22_8 C10_8 1_555 1_555
C23_6 C21_8 1_555 1_555
C24_6 C23_6 1_555 1_555
H14_6 C24_6 1_555 1_555
C25_6 C13_8 1_555 1_555
H15_6 C25_6 1_555 1_555
O10_8 C29_8 1_555 1_555
C29_8 O7_8 1_555 1_555
C31_8 C29_8 1_555 1_555
C53_8 C31_8 1_555 1_555
H32_8 C53_8 1_555 1_555
Cd4_4 O7_8 1_555 1_555
C14_8 C19_8 1_555 1_555
C15_8 C17_8 1_555 1_555
C16_8 C17_8 1_555 1_555
C24_6 C25_6 1_555 1_555
O10_8 Cd4_4 1_555 1_555
Cd4_4 O19_8 1_555 1_555
O16_8 Ba1_11 1_555 1_555
O17_8 Ba1_12 1_555 1_555
O23_4 C27_6 1_555 1_555
C27_6 O24_4 1_555 1_555
Cd2_4 O5_4 1_555 1_555
O13_2 C2_9 1_555 1_555
O16_2 C3_9 1_555 1_555
O21_2 C2_9 1_555 1_555
C1_9 C6_9 1_555 1_555
C2_9 C4_9 1_555 1_555
C3_9 O19_4 1_555 1_555
C4_9 C12_9 1_555 1_555
C5_9 C3_9 1_555 1_555
C6_9 C7_9 1_555 1_555
C7_9 C14_9 1_555 1_555
C8_9 C5_9 1_555 1_555
H1_9 C8_9 1_555 1_555
C9_9 H2_9 1_555 1_555
C10_9 C9_9 1_555 1_555
C11_9 C5_9 1_555 1_555
H3_9 C11_9 1_555 1_555
C12_9 C9_9 1_555 1_555
H4_9 C12_9 1_555 1_555
C13_9 C1_9 1_555 1_555
C14_9 C18_9 1_555 1_555
C15_9 C1_9 1_555 1_555
H5_9 C15_9 1_555 1_555
N1_9 C6_9 1_555 1_555
H6_9 N1_9 1_555 1_555
H7_9 N1_9 1_555 1_555
C16_9 C7_9 1_555 1_555
H8_9 C16_9 1_555 1_555
C17_9 C10_9 1_555 1_555
C18_9 C11_9 1_555 1_555
H9_9 C18_9 1_555 1_555
C19_9 C8_9 1_555 1_555
H10_9 C19_9 1_555 1_555
O5_4 C27_7 1_555 1_555
C20_9 C13_9 1_555 1_555
H11_9 C20_9 1_555 1_555
O6_4 Cd2_4 1_555 1_555
C21_9 C20_9 1_555 1_555
H12_9 C21_9 1_555 1_555
C22_9 C10_9 1_555 1_555
H13_9 C22_9 1_555 1_555
C23_7 C21_9 1_555 1_555
C24_7 C23_7 1_555 1_555
H14_7 C24_7 1_555 1_555
C25_7 C13_9 1_555 1_555
H15_7 C25_7 1_555 1_555
C26_9 C4_9 1_555 1_555
H16_9 C26_9 1_555 1_555
C27_7 O6_4 1_555 1_555
O17_2 C30_9 1_555 1_555
O20_3 C30_9 1_555 1_555
O21_5 C29_9 1_555 1_555
C28_9 C33_9 1_555 1_555
C29_9 O13_5 1_555 1_555
C30_9 C32_9 1_555 1_555
C31_9 C29_9 1_555 1_555
C32_9 C35_9 1_555 1_555
C33_9 C34_9 1_555 1_555
C34_9 C41_9 1_555 1_555
C35_9 H17_9 1_555 1_555
C36_9 H18_9 1_555 1_555
C37_9 C36_9 1_555 1_555
C38_9 C32_9 1_555 1_555
H19_9 C38_9 1_555 1_555
C39_9 C31_9 1_555 1_555
H20_9 C39_9 1_555 1_555
C40_9 C28_9 1_555 1_555
C41_9 C45_9 1_555 1_555
C42_9 C28_9 1_555 1_555
H21_9 C42_9 1_555 1_555
N2_9 C33_9 1_555 1_555
H22_9 N2_9 1_555 1_555
H23_9 N2_9 1_555 1_555
C43_9 C34_9 1_555 1_555
H24_9 C43_9 1_555 1_555
C44_9 C37_9 1_555 1_555
C45_9 C38_9 1_555 1_555
H25_9 C45_9 1_555 1_555
C46_9 C35_9 1_555 1_555
H26_9 C46_9 1_555 1_555
C47_9 C40_9 1_555 1_555
H27_9 C47_9 1_555 1_555
C48_9 C47_9 1_555 1_555
H28_7 C48_9 1_555 1_555
C49_9 C37_9 1_555 1_555
H29_9 C49_9 1_555 1_555
C53_9 C31_9 1_555 1_555
H32_9 C53_9 1_555 1_555
O23_7 Cd2_4 1_555 1_555
O24_7 Cd2_4 1_555 1_555
C14_9 C19_9 1_555 1_555
C15_9 C17_9 1_555 1_555
C16_9 C17_9 1_555 1_555
C22_9 C26_9 1_555 1_555
C23_7 C27_7 1_555 1_555
C24_7 C25_7 1_555 1_555
C36_9 C39_9 1_555 1_555
C41_9 C46_9 1_555 1_555
C42_9 C44_9 1_555 1_555
C43_9 C44_9 1_555 1_555
C49_9 C53_9 1_555 1_555
O11_4 C54_7 1_555 1_555
O12_4 C54_7 1_555 1_555
C51_9 C50_9 1_555 1_555
H30_9 C51_9 1_555 1_555
H31_9 C52_9 1_555 1_555
C54_7 C50_9 1_555 1_555
Cd6_4 O11_4 1_555 1_555
O12_4 Cd6_4 1_555 1_555
C51_9 C52_9 1_555 1_555
O13 C2_10 1_555 1_555
O21 C2_10 1_555 1_555
C2_10 C4_10 1_555 1_555
C4_10 C12_10 1_555 1_555
C9_10 H2_10 1_555 1_555
C10_10 C9_10 1_555 1_555
C12_10 C9_10 1_555 1_555
H4_10 C12_10 1_555 1_555
C13_10 C1_10 1_555 1_555
C15_10 C1_10 1_555 1_555
H5_10 C15_10 1_555 1_555
C17_10 C10_10 1_555 1_555
C20_10 C13_10 1_555 1_555
H11_10 C20_10 1_555 1_555
C21_10 C20_10 1_555 1_555
H12_10 C21_10 1_555 1_555
C22_10 C10_10 1_555 1_555
H13_10 C22_10 1_555 1_555
C26_10 C4_10 1_555 1_555
H16_10 C26_10 1_555 1_555
O21_6 C29_10 1_555 1_555
C29_10 O13_6 1_555 1_555
C31_10 C29_10 1_555 1_555
C36_10 H18_10 1_555 1_555
C37_10 C36_10 1_555 1_555
C39_10 C31_10 1_555 1_555
H20_10 C39_10 1_555 1_555
C40_10 C28_10 1_555 1_555
C42_10 C28_10 1_555 1_555
H21_10 C42_10 1_555 1_555
C44_10 C37_10 1_555 1_555
O11_5 C54_8 1_555 1_555
C47_10 C40_10 1_555 1_555
H27_10 C47_10 1_555 1_555
O12_5 C54_8 1_555 1_555
C48_10 C47_10 1_555 1_555
H28_8 C48_10 1_555 1_555
C49_10 C37_10 1_555 1_555
H29_10 C49_10 1_555 1_555
C50_10 C48_10 1_555 1_555
C51_10 C50_10 1_555 1_555
H30_10 C51_10 1_555 1_555
C52_10 C40_10 1_555 1_555
H31_10 C52_10 1_555 1_555
C53_10 C31_10 1_555 1_555
H32_10 C53_10 1_555 1_555
C54_8 C50_10 1_555 1_555
Cd6_5 O11_5 1_555 1_555
C15_10 C17_10 1_555 1_555
C22_10 C26_10 1_555 1_555
C36_10 C39_10 1_555 1_555
C42_10 C44_10 1_555 1_555
O12_5 Cd6_5 1_555 1_555
C49_10 C53_10 1_555 1_555
C51_10 C52_10 1_555 1_555
O16 C3_10 1_555 1_555
C3_10 O19_3 1_555 1_555
C5_10 C3_10 1_555 1_555
C6_10 C7_10 1_555 1_555
C7_10 C14_10 1_555 1_555
C8_10 C5_10 1_555 1_555
H1_10 C8_10 1_555 1_555
C11_10 C5_10 1_555 1_555
H3_10 C11_10 1_555 1_555
C14_10 C18_10 1_555 1_555
N1_10 C6_10 1_555 1_555
H6_10 N1_10 1_555 1_555
H7_10 N1_10 1_555 1_555
C16_10 C7_10 1_555 1_555
H8_10 C16_10 1_555 1_555
C18_10 C11_10 1_555 1_555
H9_10 C18_10 1_555 1_555
C19_10 C8_10 1_555 1_555
H10_10 C19_10 1_555 1_555
O17 C30_10 1_555 1_555
O20_4 C30_10 1_555 1_555
C30_10 C32_10 1_555 1_555
C32_10 C35_10 1_555 1_555
C33_10 C34_10 1_555 1_555
C34_10 C41_10 1_555 1_555
C35_10 H17_10 1_555 1_555
C38_10 C32_10 1_555 1_555
H19_10 C38_10 1_555 1_555
C41_10 C45_10 1_555 1_555
N2_10 C33_10 1_555 1_555
H22_10 N2_10 1_555 1_555
H23_10 N2_10 1_555 1_555
C43_10 C34_10 1_555 1_555
H24_10 C43_10 1_555 1_555
C45_10 C38_10 1_555 1_555
H25_10 C45_10 1_555 1_555
C46_10 C35_10 1_555 1_555
H26_10 C46_10 1_555 1_555
C14_10 C19_10 1_555 1_555
C41_10 C46_10 1_555 1_555
O16_8 C3_11 1_555 1_555
C1_11 C6_11 1_555 1_555
C3_11 O19_5 1_555 1_555
C5_11 C3_11 1_555 1_555
C6_11 C7_11 1_555 1_555
C7_11 C14_11 1_555 1_555
C8_11 C5_11 1_555 1_555
H1_11 C8_11 1_555 1_555
C9_11 H2_11 1_555 1_555
C10_11 C9_11 1_555 1_555
C11_11 C5_11 1_555 1_555
H3_11 C11_11 1_555 1_555
C12_11 C9_11 1_555 1_555
H4_11 C12_11 1_555 1_555
C13_11 C1_11 1_555 1_555
C14_11 C18_11 1_555 1_555
C15_11 C1_11 1_555 1_555
H5_11 C15_11 1_555 1_555
N1_11 C6_11 1_555 1_555
H6_11 N1_11 1_555 1_555
H7_11 N1_11 1_555 1_555
C16_11 C7_11 1_555 1_555
H8_11 C16_11 1_555 1_555
C17_11 C10_11 1_555 1_555
C18_11 C11_11 1_555 1_555
H9_11 C18_11 1_555 1_555
C19_11 C8_11 1_555 1_555
H10_11 C19_11 1_555 1_555
C20_11 C13_11 1_555 1_555
H11_11 C20_11 1_555 1_555
C21_11 C20_11 1_555 1_555
C22_11 C10_11 1_555 1_555
C23_8 C21_11 1_555 1_555
C24_8 C23_8 1_555 1_555
H14_8 C24_8 1_555 1_555
C25_8 C13_11 1_555 1_555
H15_8 C25_8 1_555 1_555
O22_2 C29_11 1_555 1_555
C29_11 O14_2 1_555 1_555
C31_11 C29_11 1_555 1_555
C53_11 C31_11 1_555 1_555
H32_11 C53_11 1_555 1_555
C14_11 C19_11 1_555 1_555
C15_11 C17_11 1_555 1_555
C16_11 C17_11 1_555 1_555
C24_8 C25_8 1_555 1_555
O14_6 C2_11 1_555 1_555
O22_6 C2_11 1_555 1_555
C2_11 C4_11 1_555 1_555
C26_11 C4_11 1_555 1_555
H16_11 C26_11 1_555 1_555
O17_8 C30_11 1_555 1_555
O20_6 C30_11 1_555 1_555
C28_11 C33_11 1_555 1_555
C30_11 C32_11 1_555 1_555
C32_11 C35_11 1_555 1_555
C33_11 C34_11 1_555 1_555
C34_11 C41_11 1_555 1_555
C35_11 H17_11 1_555 1_555
C36_11 H18_11 1_555 1_555
C37_11 C36_11 1_555 1_555
C38_11 C32_11 1_555 1_555
H19_11 C38_11 1_555 1_555
H20_11 C39_11 1_555 1_555
C40_11 C28_11 1_555 1_555
C41_11 C45_11 1_555 1_555
C42_11 C28_11 1_555 1_555
H21_11 C42_11 1_555 1_555
N2_11 C33_11 1_555 1_555
H22_11 N2_11 1_555 1_555
H23_11 N2_11 1_555 1_555
C43_11 C34_11 1_555 1_555
H24_11 C43_11 1_555 1_555
C44_11 C37_11 1_555 1_555
C45_11 C38_11 1_555 1_555
H25_11 C45_11 1_555 1_555
C46_11 C35_11 1_555 1_555
H26_11 C46_11 1_555 1_555
O11_6 C54_9 1_555 1_555
C47_11 C40_11 1_555 1_555
H27_11 C47_11 1_555 1_555
O12_6 C54_9 1_555 1_555
C48_11 C47_11 1_555 1_555
H28_9 C48_11 1_555 1_555
C49_11 C37_11 1_555 1_555
C50_11 C48_11 1_555 1_555
C51_11 C50_11 1_555 1_555
H30_11 C51_11 1_555 1_555
C52_11 C40_11 1_555 1_555
H31_11 C52_11 1_555 1_555
C54_9 C50_11 1_555 1_555
Cd6_6 O11_6 1_555 1_555
C36_11 C39_11 1_555 1_555
C41_11 C46_11 1_555 1_555
C42_11 C44_11 1_555 1_555
C43_11 C44_11 1_555 1_555
O12_6 Cd6_6 1_555 1_555
C51_11 C52_11 1_555 1_555
Cd2_5 O5_5 1_555 1_555
O5_5 C27_8 1_555 1_555
O6_5 Cd2_5 1_555 1_555
C27_8 O6_5 1_555 1_555
O23_8 Cd2_5 1_555 1_555
O24_8 Cd2_5 1_555 1_555
Cd2_6 O5_6 1_555 1_555
O14_5 C2_12 1_555 1_555
O16_7 C3_12 1_555 1_555
O22_5 C2_12 1_555 1_555
C1_12 C6_12 1_555 1_555
C2_12 C4_12 1_555 1_555
C3_12 O19_6 1_555 1_555
C4_12 C12_12 1_555 1_555
C5_12 C3_12 1_555 1_555
C6_12 C7_12 1_555 1_555
C7_12 C14_12 1_555 1_555
C8_12 C5_12 1_555 1_555
H1_12 C8_12 1_555 1_555
C9_12 H2_12 1_555 1_555
C10_12 C9_12 1_555 1_555
C11_12 C5_12 1_555 1_555
H3_12 C11_12 1_555 1_555
C12_12 C9_12 1_555 1_555
H4_12 C12_12 1_555 1_555
C13_12 C1_12 1_555 1_555
C14_12 C18_12 1_555 1_555
C15_12 C1_12 1_555 1_555
H5_12 C15_12 1_555 1_555
N1_12 C6_12 1_555 1_555
H6_12 N1_12 1_555 1_555
H7_12 N1_12 1_555 1_555
C16_12 C7_12 1_555 1_555
H8_12 C16_12 1_555 1_555
C17_12 C10_12 1_555 1_555
C18_12 C11_12 1_555 1_555
H9_12 C18_12 1_555 1_555
C19_12 C8_12 1_555 1_555
H10_12 C19_12 1_555 1_555
O5_6 C27_9 1_555 1_555
C20_12 C13_12 1_555 1_555
H11_12 C20_12 1_555 1_555
O6_6 Cd2_6 1_555 1_555
C21_12 C20_12 1_555 1_555
H12_12 C21_12 1_555 1_555
C22_12 C10_12 1_555 1_555
H13_12 C22_12 1_555 1_555
C23_9 C21_12 1_555 1_555
C24_9 C23_9 1_555 1_555
H14_9 C24_9 1_555 1_555
C25_9 C13_12 1_555 1_555
H15_9 C25_9 1_555 1_555
C26_12 C4_12 1_555 1_555
H16_12 C26_12 1_555 1_555
C27_9 O6_6 1_555 1_555
O17_7 C30_12 1_555 1_555
O20_5 C30_12 1_555 1_555
O22 C29_12 1_555 1_555
C28_12 C33_12 1_555 1_555
C29_12 O14 1_555 1_555
C30_12 C32_12 1_555 1_555
C31_12 C29_12 1_555 1_555
C32_12 C35_12 1_555 1_555
C33_12 C34_12 1_555 1_555
C34_12 C41_12 1_555 1_555
C35_12 H17_12 1_555 1_555
C36_12 H18_12 1_555 1_555
C37_12 C36_12 1_555 1_555
C38_12 C32_12 1_555 1_555
H19_12 C38_12 1_555 1_555
C39_12 C31_12 1_555 1_555
H20_12 C39_12 1_555 1_555
C40_12 C28_12 1_555 1_555
C41_12 C45_12 1_555 1_555
C42_12 C28_12 1_555 1_555
H21_12 C42_12 1_555 1_555
N2_12 C33_12 1_555 1_555
H22_12 N2_12 1_555 1_555
H23_12 N2_12 1_555 1_555
C43_12 C34_12 1_555 1_555
H24_12 C43_12 1_555 1_555
C44_12 C37_12 1_555 1_555
C45_12 C38_12 1_555 1_555
H25_12 C45_12 1_555 1_555
C46_12 C35_12 1_555 1_555
H26_12 C46_12 1_555 1_555
C47_12 C40_12 1_555 1_555
H27_12 C47_12 1_555 1_555
C48_12 C47_12 1_555 1_555
C49_12 C37_12 1_555 1_555
H29_12 C49_12 1_555 1_555
C50_12 C48_12 1_555 1_555
C51_12 C50_12 1_555 1_555
H30_12 C51_12 1_555 1_555
C52_12 C40_12 1_555 1_555
H31_12 C52_12 1_555 1_555
C53_12 C31_12 1_555 1_555
H32_12 C53_12 1_555 1_555
O23_9 Cd2_6 1_555 1_555
O24_9 Cd2_6 1_555 1_555
C14_12 C19_12 1_555 1_555
C15_12 C17_12 1_555 1_555
C16_12 C17_12 1_555 1_555
C22_12 C26_12 1_555 1_555
C23_9 C27_9 1_555 1_555
C24_9 C25_9 1_555 1_555
C36_12 C39_12 1_555 1_555
C41_12 C46_12 1_555 1_555
C42_12 C44_12 1_555 1_555
C43_12 C44_12 1_555 1_555
C49_12 C53_12 1_555 1_555
C51_12 C52_12 1_555 1_555
O23_10 Cd6_5 1_555 1_555
O24_10 Cd6_5 1_555 1_555
O23_11 Cd6_4 1_555 1_555
O24_11 Cd6_4 1_555 1_555
O23_12 Cd6_6 1_555 1_555
O24_12 Cd6_6 1_555 1_555
O16_6 C3_13 1_555 1_555
C3_13 O19_8 1_555 1_555
C5_13 C3_13 1_555 1_555
C6_13 C7_13 1_555 1_555
C7_13 C14_13 1_555 1_555
C8_13 C5_13 1_555 1_555
H1_13 C8_13 1_555 1_555
C11_13 C5_13 1_555 1_555
H3_13 C11_13 1_555 1_555
C14_13 C18_13 1_555 1_555
N1_13 C6_13 1_555 1_555
H6_13 N1_13 1_555 1_555
H7_13 N1_13 1_555 1_555
C16_13 C7_13 1_555 1_555
H8_13 C16_13 1_555 1_555
C18_13 C11_13 1_555 1_555
H9_13 C18_13 1_555 1_555
C19_13 C8_13 1_555 1_555
H10_13 C19_13 1_555 1_555
C14_13 C19_13 1_555 1_555
O17_6 C30_13 1_555 1_555
O20_7 C30_13 1_555 1_555
C30_13 C32_13 1_555 1_555
C32_13 C35_13 1_555 1_555
C33_13 C34_13 1_555 1_555
C34_13 C41_13 1_555 1_555
C35_13 H17_13 1_555 1_555
C38_13 C32_13 1_555 1_555
H19_13 C38_13 1_555 1_555
C41_13 C45_13 1_555 1_555
N2_13 C33_13 1_555 1_555
H22_13 N2_13 1_555 1_555
H23_13 N2_13 1_555 1_555
C43_13 C34_13 1_555 1_555
H24_13 C43_13 1_555 1_555
C45_13 C38_13 1_555 1_555
H25_13 C45_13 1_555 1_555
C46_13 C35_13 1_555 1_555
H26_13 C46_13 1_555 1_555
C41_13 C46_13 1_555 1_555
O14_8 C2_13 1_555 1_555
O22_8 C2_13 1_555 1_555
C2_13 C4_13 1_555 1_555
C4_13 C12_13 1_555 1_555
C9_13 H2_13 1_555 1_555
C10_13 C9_13 1_555 1_555
C12_13 C9_13 1_555 1_555
H4_13 C12_13 1_555 1_555
C13_13 C1_13 1_555 1_555
C15_13 C1_13 1_555 1_555
H5_13 C15_13 1_555 1_555
C17_13 C10_13 1_555 1_555
C20_13 C13_13 1_555 1_555
H11_13 C20_13 1_555 1_555
C21_13 C20_13 1_555 1_555
H12_13 C21_13 1_555 1_555
C22_13 C10_13 1_555 1_555
H13_13 C22_13 1_555 1_555
C26_13 C4_13 1_555 1_555
H16_13 C26_13 1_555 1_555
C15_13 C17_13 1_555 1_555
C22_13 C26_13 1_555 1_555
O22_3 C29_13 1_555 1_555
C29_13 O14_3 1_555 1_555
C31_13 C29_13 1_555 1_555
C36_13 H18_13 1_555 1_555
C37_13 C36_13 1_555 1_555
C39_13 C31_13 1_555 1_555
H20_13 C39_13 1_555 1_555
C40_13 C28_13 1_555 1_555
C42_13 C28_13 1_555 1_555
H21_13 C42_13 1_555 1_555
C44_13 C37_13 1_555 1_555
O23_8 C54_10 1_555 1_555
C47_13 C40_13 1_555 1_555
H27_13 C47_13 1_555 1_555
O24_8 C54_10 1_555 1_555
C48_13 C47_13 1_555 1_555
H28_10 C48_13 1_555 1_555
C49_13 C37_13 1_555 1_555
H29_13 C49_13 1_555 1_555
C50_13 C48_13 1_555 1_555
C51_13 C50_13 1_555 1_555
H30_13 C51_13 1_555 1_555
C52_13 C40_13 1_555 1_555
H31_13 C52_13 1_555 1_555
C53_13 C31_13 1_555 1_555
H32_13 C53_13 1_555 1_555
C54_10 C50_13 1_555 1_555
C36_13 C39_13 1_555 1_555
C42_13 C44_13 1_555 1_555
C49_13 C53_13 1_555 1_555
C51_13 C52_13 1_555 1_555
O17_5 C30_14 1_555 1_555
O20_8 C30_14 1_555 1_555
O22_4 C29_14 1_555 1_555
C28_14 C33_14 1_555 1_555
C29_14 O14_4 1_555 1_555
C30_14 C32_14 1_555 1_555
C31_14 C29_14 1_555 1_555
C32_14 C35_14 1_555 1_555
C33_14 C34_14 1_555 1_555
C34_14 C41_14 1_555 1_555
C35_14 H17_14 1_555 1_555
C36_14 H18_14 1_555 1_555
C37_14 C36_14 1_555 1_555
C38_14 C32_14 1_555 1_555
H19_14 C38_14 1_555 1_555
C39_14 C31_14 1_555 1_555
H20_14 C39_14 1_555 1_555
C40_14 C28_14 1_555 1_555
C41_14 C45_14 1_555 1_555
C42_14 C28_14 1_555 1_555
H21_14 C42_14 1_555 1_555
N2_14 C33_14 1_555 1_555
H22_14 N2_14 1_555 1_555
H23_14 N2_14 1_555 1_555
C43_14 C34_14 1_555 1_555
H24_14 C43_14 1_555 1_555
C44_14 C37_14 1_555 1_555
C45_14 C38_14 1_555 1_555
H25_14 C45_14 1_555 1_555
C46_14 C35_14 1_555 1_555
H26_14 C46_14 1_555 1_555
C47_14 C40_14 1_555 1_555
H27_14 C47_14 1_555 1_555
C48_14 C47_14 1_555 1_555
H28_11 C48_14 1_555 1_555
C49_14 C37_14 1_555 1_555
H29_14 C49_14 1_555 1_555
C53_14 C31_14 1_555 1_555
H32_14 C53_14 1_555 1_555
C36_14 C39_14 1_555 1_555
C41_14 C46_14 1_555 1_555
C42_14 C44_14 1_555 1_555
C43_14 C44_14 1_555 1_555
C49_14 C53_14 1_555 1_555
O23_9 C54_11 1_555 1_555
O24_9 C54_11 1_555 1_555
C51_14 C50_14 1_555 1_555
H30_14 C51_14 1_555 1_555
H31_14 C52_14 1_555 1_555
C54_11 C50_14 1_555 1_555
C51_14 C52_14 1_555 1_555
O14_7 C2_14 1_555 1_555
O16_5 C3_14 1_555 1_555
O22_7 C2_14 1_555 1_555
C1_14 C6_14 1_555 1_555
C2_14 C4_14 1_555 1_555
C3_14 O19_7 1_555 1_555
C4_14 C12_14 1_555 1_555
C5_14 C3_14 1_555 1_555
C6_14 C7_14 1_555 1_555
C7_14 C14_14 1_555 1_555
C8_14 C5_14 1_555 1_555
H1_14 C8_14 1_555 1_555
C9_14 H2_14 1_555 1_555
C10_14 C9_14 1_555 1_555
C11_14 C5_14 1_555 1_555
H3_14 C11_14 1_555 1_555
C12_14 C9_14 1_555 1_555
H4_14 C12_14 1_555 1_555
C13_14 C1_14 1_555 1_555
C14_14 C18_14 1_555 1_555
C15_14 C1_14 1_555 1_555
H5_14 C15_14 1_555 1_555
N1_14 C6_14 1_555 1_555
H6_14 N1_14 1_555 1_555
H7_14 N1_14 1_555 1_555
C16_14 C7_14 1_555 1_555
H8_14 C16_14 1_555 1_555
C17_14 C10_14 1_555 1_555
C18_14 C11_14 1_555 1_555
H9_14 C18_14 1_555 1_555
C19_14 C8_14 1_555 1_555
H10_14 C19_14 1_555 1_555
O23_12 C27_10 1_555 1_555
C20_14 C13_14 1_555 1_555
H11_14 C20_14 1_555 1_555
C21_14 C20_14 1_555 1_555
H12_14 C21_14 1_555 1_555
C22_14 C10_14 1_555 1_555
H13_14 C22_14 1_555 1_555
C23_10 C21_14 1_555 1_555
C24_10 C23_10 1_555 1_555
H14_10 C24_10 1_555 1_555
C25_10 C13_14 1_555 1_555
H15_10 C25_10 1_555 1_555
C26_14 C4_14 1_555 1_555
H16_14 C26_14 1_555 1_555
C27_10 O24_12 1_555 1_555
C14_14 C19_14 1_555 1_555
C15_14 C17_14 1_555 1_555
C16_14 C17_14 1_555 1_555
C22_14 C26_14 1_555 1_555
C23_10 C27_10 1_555 1_555
C24_10 C25_10 1_555 1_555
O13_4 C2_15 1_555 1_555
O16_4 C3_15 1_555 1_555
O21_4 C2_15 1_555 1_555
C1_15 C6_15 1_555 1_555
C2_15 C4_15 1_555 1_555
C3_15 O19 1_555 1_555
C4_15 C12_15 1_555 1_555
C5_15 C3_15 1_555 1_555
C6_15 C7_15 1_555 1_555
C7_15 C14_15 1_555 1_555
C8_15 C5_15 1_555 1_555
H1_15 C8_15 1_555 1_555
C9_15 H2_15 1_555 1_555
C10_15 C9_15 1_555 1_555
C11_15 C5_15 1_555 1_555
H3_15 C11_15 1_555 1_555
C12_15 C9_15 1_555 1_555
H4_15 C12_15 1_555 1_555
C13_15 C1_15 1_555 1_555
C14_15 C18_15 1_555 1_555
C15_15 C1_15 1_555 1_555
H5_15 C15_15 1_555 1_555
N1_15 C6_15 1_555 1_555
H6_15 N1_15 1_555 1_555
H7_15 N1_15 1_555 1_555
C16_15 C7_15 1_555 1_555
H8_15 C16_15 1_555 1_555
C17_15 C10_15 1_555 1_555
C18_15 C11_15 1_555 1_555
H9_15 C18_15 1_555 1_555
C19_15 C8_15 1_555 1_555
H10_15 C19_15 1_555 1_555
O23_11 C27_11 1_555 1_555
C20_15 C13_15 1_555 1_555
H11_15 C20_15 1_555 1_555
C21_15 C20_15 1_555 1_555
H12_15 C21_15 1_555 1_555
C22_15 C10_15 1_555 1_555
H13_15 C22_15 1_555 1_555
C23_11 C21_15 1_555 1_555
C24_11 C23_11 1_555 1_555
H14_11 C24_11 1_555 1_555
C25_11 C13_15 1_555 1_555
H15_11 C25_11 1_555 1_555
C26_15 C4_15 1_555 1_555
H16_15 C26_15 1_555 1_555
C27_11 O24_11 1_555 1_555
O17_4 C30_15 1_555 1_555
O20_2 C30_15 1_555 1_555
O21_8 C29_15 1_555 1_555
C28_15 C33_15 1_555 1_555
C29_15 O13_8 1_555 1_555
C30_15 C32_15 1_555 1_555
C31_15 C29_15 1_555 1_555
C32_15 C35_15 1_555 1_555
C33_15 C34_15 1_555 1_555
C34_15 C41_15 1_555 1_555
C35_15 H17_15 1_555 1_555
C36_15 H18_15 1_555 1_555
C37_15 C36_15 1_555 1_555
C38_15 C32_15 1_555 1_555
H19_15 C38_15 1_555 1_555
C39_15 C31_15 1_555 1_555
H20_15 C39_15 1_555 1_555
C40_15 C28_15 1_555 1_555
C41_15 C45_15 1_555 1_555
C42_15 C28_15 1_555 1_555
H21_15 C42_15 1_555 1_555
N2_15 C33_15 1_555 1_555
H22_15 N2_15 1_555 1_555
H23_15 N2_15 1_555 1_555
C43_15 C34_15 1_555 1_555
H24_15 C43_15 1_555 1_555
C44_15 C37_15 1_555 1_555
C45_15 C38_15 1_555 1_555
H25_15 C45_15 1_555 1_555
C46_15 C35_15 1_555 1_555
H26_15 C46_15 1_555 1_555
C47_15 C40_15 1_555 1_555
H27_15 C47_15 1_555 1_555
C48_15 C47_15 1_555 1_555
C49_15 C37_15 1_555 1_555
H29_15 C49_15 1_555 1_555
C50_15 C48_15 1_555 1_555
C51_15 C50_15 1_555 1_555
H30_15 C51_15 1_555 1_555
C52_15 C40_15 1_555 1_555
H31_15 C52_15 1_555 1_555
C53_15 C31_15 1_555 1_555
H32_15 C53_15 1_555 1_555
C14_15 C19_15 1_555 1_555
C15_15 C17_15 1_555 1_555
C16_15 C17_15 1_555 1_555
C22_15 C26_15 1_555 1_555
C23_11 C27_11 1_555 1_555
C24_11 C25_11 1_555 1_555
C36_15 C39_15 1_555 1_555
C41_15 C46_15 1_555 1_555
C42_15 C44_15 1_555 1_555
C43_15 C44_15 1_555 1_555
C49_15 C53_15 1_555 1_555
C51_15 C52_15 1_555 1_555
O23_10 C27_12 1_555 1_555
C27_12 O24_10 1_555 1_555
O16_3 C3_16 1_555 1_555
C1_16 C6_16 1_555 1_555
C3_16 O19_2 1_555 1_555
C5_16 C3_16 1_555 1_555
C6_16 C7_16 1_555 1_555
C7_16 C14_16 1_555 1_555
C8_16 C5_16 1_555 1_555
H1_16 C8_16 1_555 1_555
C9_16 H2_16 1_555 1_555
C10_16 C9_16 1_555 1_555
C11_16 C5_16 1_555 1_555
H3_16 C11_16 1_555 1_555
C12_16 C9_16 1_555 1_555
H4_16 C12_16 1_555 1_555
C13_16 C1_16 1_555 1_555
C14_16 C18_16 1_555 1_555
C15_16 C1_16 1_555 1_555
H5_16 C15_16 1_555 1_555
N1_16 C6_16 1_555 1_555
H6_16 N1_16 1_555 1_555
H7_16 N1_16 1_555 1_555
C16_16 C7_16 1_555 1_555
H8_16 C16_16 1_555 1_555
C17_16 C10_16 1_555 1_555
C18_16 C11_16 1_555 1_555
H9_16 C18_16 1_555 1_555
C19_16 C8_16 1_555 1_555
H10_16 C19_16 1_555 1_555
C20_16 C13_16 1_555 1_555
H11_16 C20_16 1_555 1_555
C21_16 C20_16 1_555 1_555
C22_16 C10_16 1_555 1_555
C23_12 C21_16 1_555 1_555
C24_12 C23_12 1_555 1_555
H14_12 C24_12 1_555 1_555
C25_12 C13_16 1_555 1_555
H15_12 C25_12 1_555 1_555
O21_7 C29_16 1_555 1_555
C29_16 O13_7 1_555 1_555
C31_16 C29_16 1_555 1_555
C53_16 C31_16 1_555 1_555
H32_16 C53_16 1_555 1_555
C14_16 C19_16 1_555 1_555
C15_16 C17_16 1_555 1_555
C16_16 C17_16 1_555 1_555
C24_12 C25_12 1_555 1_555
O13_3 C2_16 1_555 1_555
O21_3 C2_16 1_555 1_555
C2_16 C4_16 1_555 1_555
C26_16 C4_16 1_555 1_555
H16_16 C26_16 1_555 1_555
O17_3 C30_16 1_555 1_555
O20 C30_16 1_555 1_555
C28_16 C33_16 1_555 1_555
C30_16 C32_16 1_555 1_555
C32_16 C35_16 1_555 1_555
C33_16 C34_16 1_555 1_555
C34_16 C41_16 1_555 1_555
C35_16 H17_16 1_555 1_555
C36_16 H18_16 1_555 1_555
C37_16 C36_16 1_555 1_555
C38_16 C32_16 1_555 1_555
H19_16 C38_16 1_555 1_555
H20_16 C39_16 1_555 1_555
C40_16 C28_16 1_555 1_555
C41_16 C45_16 1_555 1_555
C42_16 C28_16 1_555 1_555
H21_16 C42_16 1_555 1_555
N2_16 C33_16 1_555 1_555
H22_16 N2_16 1_555 1_555
H23_16 N2_16 1_555 1_555
C43_16 C34_16 1_555 1_555
H24_16 C43_16 1_555 1_555
C44_16 C37_16 1_555 1_555
C45_16 C38_16 1_555 1_555
H25_16 C45_16 1_555 1_555
C46_16 C35_16 1_555 1_555
H26_16 C46_16 1_555 1_555
O23_7 C54_12 1_555 1_555
C47_16 C40_16 1_555 1_555
H27_16 C47_16 1_555 1_555
O24_7 C54_12 1_555 1_555
C48_16 C47_16 1_555 1_555
H28_12 C48_16 1_555 1_555
C49_16 C37_16 1_555 1_555
C50_16 C48_16 1_555 1_555
C51_16 C50_16 1_555 1_555
H30_16 C51_16 1_555 1_555
C52_16 C40_16 1_555 1_555
H31_16 C52_16 1_555 1_555
C54_12 C50_16 1_555 1_555
C36_16 C39_16 1_555 1_555
C41_16 C46_16 1_555 1_555
C42_16 C44_16 1_555 1_555
C43_16 C44_16 1_555 1_555
C51_16 C52_16 1_555 1_555
Cd2_7 O5_7 1_555 1_555
O5_7 C27_13 1_555 1_555
O6_7 Cd2_7 1_555 1_555
C24_13 C23_13 1_555 1_555
H14_13 C24_13 1_555 1_555
H15_13 C25_13 1_555 1_555
C27_13 O6_7 1_555 1_555
O23_13 Cd2_7 1_555 1_555
O24_13 Cd2_7 1_555 1_555
C23_13 C27_13 1_555 1_555
C24_13 C25_13 1_555 1_555
O23_13 C54_13 1_555 1_555
O24_13 C54_13 1_555 1_555
O11_7 C54_14 1_555 1_555
O12_7 C54_14 1_555 1_555
Cd6_7 O11_7 1_555 1_555
O12_7 Cd6_7 1_555 1_555
O23_14 Cd6_7 1_555 1_555
O24_14 Cd6_7 1_555 1_555
O23_14 C27_14 1_555 1_555
C24_14 C23_14 1_555 1_555
H14_14 C24_14 1_555 1_555
H15_14 C25_14 1_555 1_555
C27_14 O24_14 1_555 1_555
C23_14 C27_14 1_555 1_555
C24_14 C25_14 1_555 1_555
Cd2_8 O5_8 1_555 1_555
O5_8 C27_15 1_555 1_555
O6_8 Cd2_8 1_555 1_555
C24_15 C23_15 1_555 1_555
H14_15 C24_15 1_555 1_555
H15_15 C25_15 1_555 1_555
C27_15 O6_8 1_555 1_555
O23_15 Cd2_8 1_555 1_555
O24_15 Cd2_8 1_555 1_555
C23_15 C27_15 1_555 1_555
C24_15 C25_15 1_555 1_555
O23_15 C54_15 1_555 1_555
O24_15 C54_15 1_555 1_555
O11_8 C54_16 1_555 1_555
O12_8 C54_16 1_555 1_555
Cd6_8 O11_8 1_555 1_555
O12_8 Cd6_8 1_555 1_555
O23_16 Cd6_8 1_555 1_555
O24_16 Cd6_8 1_555 1_555
O23_16 C27_16 1_555 1_555
C24_16 C23_16 1_555 1_555
H14_16 C24_16 1_555 1_555
H15_16 C25_16 1_555 1_555
C27_16 O24_16 1_555 1_555
C23_16 C27_16 1_555 1_555
C24_16 C25_16 1_555 1_555

#END
