
###############################################################################
#
# This file contains modified crystal structure data generated from the
# MOF subset of the Cambridge Structural Database (CSD) v543 
# hosted by the Cambridge Crystallographic Data Centre (CCDC).
#
# This work is licensed under the Creative Commons
# Attribution-NonCommercial-ShareAlike 4.0 International License.
# To view a copy of this license, visit
# http://creativecommons.org/licenses/by-nc-sa/4.0/
# or send a letter to
# Creative Commons, PO Box 1866, Mountain View, CA 94042, USA.
#
# CIF created using the CSD Python API on 29 September 2022
# The structure has been converted into the P1 space group
# The structure has a 3D framework
# The original CSD entry YEKWOC is in the monoclinic crystal system
# The framework has been calculated to contain at least 10.0% void space
# The void calculation uses a probe of radius 1.32A, grid spacing 0.4
# H atom positions have been added when not included in the experimental data
#
###############################################################################

data_YEKWOC
_chemical_formula_moiety         '(C252 H168 Eu12 N12 O82)n'
_symmetry_cell_setting           triclinic
_symmetry_space_group_name_H-M   'P 1'
_symmetry_Int_Tables_number      1
_space_group_name_Hall           'P 1'
loop_
_symmetry_equiv_pos_site_id
_symmetry_equiv_pos_as_xyz
1 x,y,z
_cell_length_a                   14.5758(13)
_cell_length_b                   23.245(2)
_cell_length_c                   24.815(2)
_cell_angle_alpha                90
_cell_angle_beta                 102.904(6)
_cell_angle_gamma                90
_cell_volume                     8195.35
loop_
_atom_site_label
_atom_site_type_symbol
_atom_site_fract_x
_atom_site_fract_y
_atom_site_fract_z
Eu1 Eu 0.24375(4) 0.25712(3) 0.22878(3)
O5 O 0.1616(5) 0.2922(4) 0.1339(4)
O6 O 0.0800(6) 0.2360(5) 0.1763(4)
O7 O 0.1432(6) 0.3239(4) 0.2565(5)
O8 O 0.0949(7) 0.3054(5) 0.3347(4)
O13 O 0.2332(7) 0.1791(4) 0.1095(5)
O14 O 0.2712(6) 0.1619(4) 0.1991(4)
H11 H 0.0565 0.3457 0.0588
C21 C 0.0836(9) 0.2720(7) 0.1389(6)
H14 H 0.0295 0.3880 0.1953
C28 C 0.0837(10) 0.3245(7) 0.2856(7)
C45 C 0.2948(9) 0.0436(6) 0.1766(6)
H26 H 0.3202 0.0556 0.2126
C46 C 0.2567(9) 0.0833(6) 0.1366(6)
C47 C 0.2191(10) 0.0645(6) 0.0834(7)
H27 H 0.1929 0.0913 0.0564
C48 C 0.2195(10) 0.0064(6) 0.0692(6)
C49 C 0.2541(9) 0.1458(6) 0.1505(7)
Eu8 Eu 0.26339(4) 0.26554(3) 0.07082(3)
Eu10 Eu 0.23875(5) 0.28210(3) 0.39331(3)
O25 O 0.2103(6) 0.2031(4) 0.3041(4)
O28 O 0.3568(5) 0.2751(4) 0.1651(4)
O30 O 0.3250(6) 0.3471(4) 0.2167(4)
O32 O 0.4061(6) 0.2445(4) 0.2824(4)
O33 O 0.3298(6) 0.3045(5) 0.3255(4)
O15 O 0.5939(6) 0.7445(4) 0.2176(4)
O16 O 0.6702(6) 0.8045(5) 0.1745(4)
N2 N 0.2529(7) 0.9057(5) 0.0973(5)
C43 C 0.2565(9) 0.9660(7) 0.1094(6)
C44 C 0.2952(10) 0.9863(7) 0.1632(6)
H25 H 0.3219 0.9600 0.1905
H28 H 0.1951 0.9949 0.0329
C50 C 0.3342(8) 0.8733(6) 0.1173(6)
C51 C 0.3341(8) 0.8221(6) 0.1439(6)
H29 H 0.2776 0.8063 0.1483
C52 C 0.4187(9) 0.7933(7) 0.1646(6)
H30 H 0.4179 0.7585 0.1830
C53 C 0.5037(8) 0.8156(6) 0.1581(6)
C54 C 0.5039(10) 0.8664(7) 0.1301(6)
H31 H 0.5605 0.8813 0.1249
C55 C 0.4210(9) 0.8958(6) 0.1092(6)
H32 H 0.4219 0.9301 0.0900
C56 C 0.5927(9) 0.7838(6) 0.1835(6)
C57 C 0.1644(9) 0.8796(6) 0.0766(6)
C58 C 0.0841(9) 0.9026(6) 0.0892(6)
H33 H 0.0878 0.9354 0.1110
C61 C 0.0706(9) 0.8057(7) 0.0256(7)
H35 H 0.0674 0.7731 0.0035
C62 C 0.1552(9) 0.8313(6) 0.0448(6)
H36 H 0.2085 0.8154 0.0360
Eu6 Eu 0.75625(4) 0.75712(3) 0.27122(3)
Eu12 Eu 0.76125(5) 0.78210(3) 0.10669(3)
O9 O 0.7897(6) 0.7031(4) 0.1959(4)
O10 O 0.6815(7) 0.6938(4) 0.1190(4)
N1 N 0.7455(7) 0.3797(5) 0.0191(5)
N3 N 0.7301(7) 0.4295(5) 0.1889(5)
C1 C 0.7439(9) 0.4381(6) 0.0046(6)
C2 C 0.8100(10) 0.4773(7) 0.0361(6)
H1 H 0.8553 0.4641 0.0661
C3 C 0.8067(9) 0.5340(7) 0.0222(6)
H2 H 0.8494 0.5591 0.0437
C8 C 0.5832(9) 0.3671(7) 0.0300(6)
H5 H 0.5894 0.4007 0.0509
C9 C 0.5019(10) 0.3374(7) 0.0201(7)
H6 H 0.4513 0.3514 0.0333
C13 C 0.6557(9) 0.3478(6) 0.0094(6)
C15 C 0.8304(9) 0.3505(6) 0.0465(6)
C16 C 0.8259(9) 0.3067(7) 0.0837(6)
H9 H 0.7676 0.2955 0.0895
C17 C 0.9065(8) 0.2791(6) 0.1126(6)
H10 H 0.9011 0.2494 0.1368
C18 C 0.9943(9) 0.2949(7) 0.1061(6)
C19 C 0.9982(9) 0.3362(7) 0.0657(6)
C20 C 0.9170(8) 0.3641(6) 0.0348(6)
H12 H 0.9213 0.3907 0.0075
C22 C 0.8155(8) 0.4002(6) 0.2141(6)
C23 C 0.8935(9) 0.4072(7) 0.1896(6)
H13 H 0.8866 0.4290 0.1575
C24 C 0.9788(10) 0.3828(7) 0.2118(7)
C25 C 0.9884(8) 0.3501(6) 0.2596(6)
C26 C 0.9120(10) 0.3415(7) 0.2838(6)
H15 H 0.9183 0.3188 0.3153
C27 C 0.8250(9) 0.3675(8) 0.2600(6)
H16 H 0.7738 0.3622 0.2761
C29 C 0.7346(8) 0.4891(6) 0.1796(6)
C30 C 0.6747(9) 0.5149(7) 0.1359(6)
H17 H 0.6340 0.4924 0.1101
C31 C 0.6739(10) 0.5748(6) 0.1299(6)
H18 H 0.6307 0.5921 0.1012
C32 C 0.7373(9) 0.6083(6) 0.1666(6)
C33 C 0.8023(10) 0.5817(7) 0.2092(6)
H19 H 0.8469 0.6034 0.2335
C34 C 0.7989(10) 0.5224(7) 0.2146(6)
H20 H 0.8420 0.5047 0.2431
C35 C 0.7352(9) 0.6718(7) 0.1591(6)
C36 C 0.6421(8) 0.4021(6) 0.1888(6)
C37 C 0.5695(8) 0.4346(6) 0.2043(6)
H21 H 0.5789 0.4730 0.2144
C38 C 0.4860(9) 0.4085(7) 0.2039(6)
H22 H 0.4383 0.4291 0.2145
C39 C 0.4711(8) 0.3517(6) 0.1879(5)
C40 C 0.5436(8) 0.3222(6) 0.1722(6)
H23 H 0.5333 0.2843 0.1602
C41 C 0.6272(9) 0.3457(6) 0.1735(6)
H24 H 0.6750 0.3241 0.1640
C42 C 0.3785(9) 0.3240(7) 0.1884(6)
O22 O 0.6699(7) 0.7266(4) 0.0080(4)
Eu2 Eu 0.73661(4) 0.73446(3) 0.92918(3)
Eu3 Eu 0.23875(5) 0.21790(3) 0.89331(3)
O1 O 0.8088(6) 0.6490(4) 0.9853(4)
O2 O 0.6823(6) 0.6359(4) 0.9201(4)
O3 O 0.3301(7) 0.2734(4) 0.9920(4)
O4 O 0.3958(6) 0.2085(4) 0.9488(4)
C4 C 0.7414(9) 0.5561(6) 0.9766(6)
C5 C 0.6752(10) 0.5175(7) 0.9467(7)
H3 H 0.6291 0.5312 0.9173
C6 C 0.6767(10) 0.4597(7) 0.9596(8)
H4 H 0.6329 0.4350 0.9383
C7 C 0.7439(9) 0.6160(6) 0.9602(6)
C10 C 0.4921(8) 0.2874(7) 0.9913(6)
C11 C 0.5675(9) 0.2657(7) 0.9725(6)
H7 H 0.5618 0.2306 0.9540
C12 C 0.6510(9) 0.2956(7) 0.9812(7)
H8 H 0.7023 0.2816 0.9687
C14 C 0.4015(9) 0.2527(7) 0.9769(6)
O19 O 0.2560(7) 0.1130(5) 0.8902(5)
O20 O 0.1357(7) 0.2960(5) 0.9117(4)
O21 O 0.5957(7) 0.7995(6) 0.9213(5)
O23 O 0.8384(5) 0.7078(4) 0.8661(4)
O24 O 0.0949(7) 0.1946(5) 0.8347(4)
O26 O 0.2103(6) 0.2969(4) 0.8041(4)
O27 O 0.3185(7) 0.3062(4) 0.8810(4)
O29 O 0.6432(5) 0.7249(4) 0.8349(4)
O31 O 0.7668(7) 0.8209(4) 0.8905(5)
O34 O 0.3298(6) 0.1955(5) 0.8255(4)
O35 O 0.1754(6) 0.1821(5) 0.9649(4)
O36 O 0.8879(7) 0.7645(5) 0.9793(4)
H37 H 0.230169 0.0951423 0.920019
H38 H 0.221127 0.0983849 0.853763
H39 H 0.598735 0.819119 0.957202
H40 H 0.595735 0.828711 0.892106
H41 H 0.16899 0.333372 0.912536
H42 H 0.0773231 0.296782 0.882051
O17 O 0.8246(6) 0.8179(5) 0.0351(4)
C59 C 0.9971(9) 0.8758(7) 0.0685(6)
H34 H 0.9433 0.8923 0.0761
C60 C 0.9878(9) 0.8272(6) 0.0382(6)
C63 C 0.8921(10) 0.8026(6) 0.0167(6)
Eu2_2 Eu 0.26339(4) 0.23446(3) 0.57082(3)
O1_2 O 0.1912(6) 0.1490(4) 0.5147(4)
O2_2 O 0.3177(6) 0.1359(4) 0.5799(4)
O10_2 O 0.3185(7) 0.1938(4) 0.3810(4)
C3_2 C 0.1933(9) 0.0340(7) 0.4778(6)
H2_2 H 0.1506 0.0591 0.4563
C4_2 C 0.2586(9) 0.0561(6) 0.5234(6)
C5_2 C 0.3248(10) 0.0175(7) 0.5533(7)
H3_2 H 0.3709 0.0312 0.5827
C7_2 C 0.2561(9) 0.1160(6) 0.5398(6)
C30_2 C 0.3253(9) 0.0149(7) 0.3641(6)
C31_2 C 0.3261(10) 0.0748(6) 0.3701(6)
H18_2 H 0.3693 0.0921 0.3988
C32_2 C 0.2627(9) 0.1083(6) 0.3334(6)
C33_2 C 0.1977(10) 0.0817(7) 0.2908(6)
H19_2 H 0.1531 0.1034 0.2665
C34_2 C 0.2011(10) 0.0224(7) 0.2854(6)
H20_2 H 0.1580 0.0047 0.2569
C35_2 C 0.2648(9) 0.1718(7) 0.3409(6)
O21_2 O 0.4043(7) 0.2995(6) 0.5787(5)
O22_2 O 0.3301(7) 0.2266(4) 0.4920(4)
O23_2 O 0.1616(5) 0.2078(4) 0.6339(4)
O29_2 O 0.3568(5) 0.2249(4) 0.6651(4)
O31_2 O 0.2332(7) 0.3209(4) 0.6095(5)
O36_2 O 0.1121(7) 0.2645(5) 0.5207(4)
H39_2 H 0.401265 0.319119 0.542798
H40_2 H 0.404265 0.328711 0.607894
Eu3_2 Eu 0.76125(5) 0.71790(3) 0.60669(3)
O3_2 O 0.6699(7) 0.7734(4) 0.5080(4)
O4_2 O 0.6042(6) 0.7085(4) 0.5512(4)
O11 O 0.6432(5) 0.7751(4) 0.3349(4)
O12 O 0.6750(6) 0.8471(4) 0.2833(4)
O17_2 O 0.1754(6) 0.3179(5) 0.4649(4)
N1_2 N 0.2545(7) 0.8797(5) 0.4809(5)
N3_2 N 0.2699(7) 0.9295(5) 0.3111(5)
C1_2 C 0.2561(9) 0.9381(6) 0.4954(6)
C2_2 C 0.1900(10) 0.9773(7) 0.4639(6)
H1_2 H 0.1447 0.9641 0.4339
C6_2 C 0.3233(10) 0.9597(7) 0.5404(8)
H4_2 H 0.3671 0.9350 0.5617
C8_2 C 0.4168(9) 0.8671(7) 0.4700(6)
H5_2 H 0.4106 0.9007 0.4491
C9_2 C 0.4981(10) 0.8374(7) 0.4799(7)
H6_2 H 0.5487 0.8514 0.4667
C10_2 C 0.5079(8) 0.7874(7) 0.5087(6)
C11_2 C 0.4325(9) 0.7657(7) 0.5275(6)
H7_2 H 0.4382 0.7306 0.5460
C12_2 C 0.3490(9) 0.7956(7) 0.5188(7)
H8_2 H 0.2977 0.7816 0.5313
C13_2 C 0.3443(9) 0.8478(6) 0.4906(6)
C14_2 C 0.5985(9) 0.7527(7) 0.5231(6)
C15_2 C 0.1696(9) 0.8505(6) 0.4535(6)
C16_2 C 0.1741(9) 0.8067(7) 0.4163(6)
H9_2 H 0.2324 0.7955 0.4105
C17_2 C 0.0935(8) 0.7791(6) 0.3874(6)
H10_2 H 0.0989 0.7494 0.3632
C18_2 C 0.0057(9) 0.7949(7) 0.3939(6)
C19_2 C 0.0018(9) 0.8362(7) 0.4343(6)
C20_2 C 0.0830(8) 0.8641(6) 0.4652(6)
H12_2 H 0.0787 0.8907 0.4925
C22_2 C 0.1845(8) 0.9002(6) 0.2859(6)
C23_2 C 0.1065(9) 0.9072(7) 0.3104(6)
H13_2 H 0.1134 0.9290 0.3425
C24_2 C 0.0212(10) 0.8828(7) 0.2882(7)
C25_2 C 0.0116(8) 0.8501(6) 0.2404(6)
C26_2 C 0.0880(10) 0.8415(7) 0.2162(6)
H15_2 H 0.0817 0.8188 0.1847
C27_2 C 0.1750(9) 0.8675(8) 0.2400(6)
H16_2 H 0.2262 0.8622 0.2239
C29_2 C 0.2654(8) 0.9891(6) 0.3204(6)
H17_2 H 0.3660 0.9924 0.3899
C36_2 C 0.3579(8) 0.9021(6) 0.3112(6)
C37_2 C 0.4305(8) 0.9346(6) 0.2957(6)
H21_2 H 0.4211 0.9730 0.2856
C38_2 C 0.5140(9) 0.9085(7) 0.2961(6)
H22_2 H 0.5617 0.9291 0.2855
C39_2 C 0.5289(8) 0.8517(6) 0.3121(5)
C40_2 C 0.4564(8) 0.8222(6) 0.3278(6)
H23_2 H 0.4667 0.7843 0.3398
C41_2 C 0.3728(9) 0.8457(6) 0.3265(6)
H24_2 H 0.3250 0.8241 0.3360
C42_2 C 0.6215(9) 0.8240(7) 0.3116(6)
C59_2 C 0.0029(9) 0.3758(7) 0.4315(6)
H34_2 H 0.0567 0.3923 0.4239
C60_2 C 0.0122(9) 0.3272(6) 0.4618(6)
C63_2 C 0.1079(10) 0.3026(6) 0.4833(6)
O19_2 O 0.7440(7) 0.6130(5) 0.6098(5)
O20_2 O 0.8643(7) 0.7960(5) 0.5883(4)
Eu7 Eu 0.73661(4) 0.76554(3) 0.42918(3)
O24_2 O 0.9051(7) 0.6946(5) 0.6653(4)
O26_2 O 0.7897(6) 0.7969(4) 0.6959(4)
O27_2 O 0.6815(7) 0.8062(4) 0.6190(4)
O34_2 O 0.6702(6) 0.6955(5) 0.6745(4)
O35_2 O 0.8246(6) 0.6821(5) 0.5351(4)
H37_2 H 0.769831 0.595142 0.579981
H38_2 H 0.778873 0.598385 0.646237
H41_2 H 0.83101 0.833372 0.587464
H42_2 H 0.922677 0.796782 0.617949
O5_2 O 0.8384(5) 0.7922(4) 0.3661(4)
O6_2 O 0.9200(6) 0.7360(5) 0.3237(4)
O7_2 O 0.8568(6) 0.8239(4) 0.2435(5)
O8_2 O 0.9051(7) 0.8054(5) 0.1653(4)
O13_2 O 0.7668(7) 0.6791(4) 0.3905(5)
O14_2 O 0.7288(6) 0.6619(4) 0.3009(4)
N2_2 N 0.7471(7) 0.4057(5) 0.4027(5)
H11_2 H 0.9435 0.8457 0.4412
C21_2 C 0.9164(9) 0.7720(7) 0.3611(6)
H14_2 H 0.9705 0.8880 0.3047
C28_2 C 0.9163(10) 0.8245(7) 0.2144(7)
C43_2 C 0.7435(9) 0.4660(7) 0.3906(6)
C44_2 C 0.7048(10) 0.4863(7) 0.3368(6)
H25_2 H 0.6781 0.4600 0.3095
C45_2 C 0.7052(9) 0.5436(6) 0.3234(6)
H26_2 H 0.6798 0.5556 0.2874
C46_2 C 0.7433(9) 0.5833(6) 0.3634(6)
C47_2 C 0.7809(10) 0.5645(6) 0.4166(7)
H27_2 H 0.8071 0.5913 0.4436
C48_2 C 0.7805(10) 0.5064(6) 0.4308(6)
H28_2 H 0.8049 0.4949 0.4671
C49_2 C 0.7459(9) 0.6458(6) 0.3495(7)
C50_2 C 0.6658(8) 0.3733(6) 0.3827(6)
C51_2 C 0.6659(8) 0.3221(6) 0.3561(6)
H29_2 H 0.7224 0.3063 0.3517
C52_2 C 0.5813(9) 0.2933(7) 0.3354(6)
H30_2 H 0.5821 0.2585 0.3170
C53_2 C 0.4963(8) 0.3156(6) 0.3419(6)
C54_2 C 0.4961(10) 0.3664(7) 0.3699(6)
H31_2 H 0.4395 0.3813 0.3751
C55_2 C 0.5790(9) 0.3958(6) 0.3908(6)
H32_2 H 0.5781 0.4301 0.4100
C56_2 C 0.4073(9) 0.2838(6) 0.3165(6)
C57_2 C 0.8356(9) 0.3796(6) 0.4234(6)
C58_2 C 0.9159(9) 0.4026(6) 0.4108(6)
H33_2 H 0.9122 0.4354 0.3890
C61_2 C 0.9294(9) 0.3057(7) 0.4744(7)
H35_2 H 0.9326 0.2731 0.4965
C62_2 C 0.8448(9) 0.3313(6) 0.4552(6)
H36_2 H 0.7915 0.3154 0.4640
O18 O 0.1121(7) 0.2355(5) 0.0207(4)
C59_3 C 0.0029(9) 0.1242(7) 0.9315(6)
H34_3 H 0.0567 0.1077 0.9239
C60_3 C 0.0122(9) 0.1728(6) 0.9618(6)
C63_3 C 0.1079(10) 0.1974(6) 0.9833(6)
O1_3 O 0.1912(6) 0.3510(4) 0.0147(4)
O2_3 O 0.3177(6) 0.3641(4) 0.0799(4)
O4_3 O 0.6042(6) 0.7915(4) 0.0512(4)
C4_3 C 0.2586(9) 0.4439(6) 0.0234(6)
C5_3 C 0.3248(10) 0.4825(7) 0.0533(7)
H3_3 H 0.3709 0.4688 0.0827
C6_3 C 0.3233(10) 0.5403(7) 0.0404(8)
H4_3 H 0.3671 0.5650 0.0617
C7_3 C 0.2561(9) 0.3840(6) 0.0398(6)
C10_3 C 0.5079(8) 0.7126(7) 0.0087(6)
C11_3 C 0.4325(9) 0.7343(7) 0.0275(6)
H7_3 H 0.4382 0.7694 0.0460
C12_3 C 0.3490(9) 0.7044(7) 0.0188(7)
H8_3 H 0.2977 0.7184 0.0313
C14_3 C 0.5985(9) 0.7473(7) 0.0231(6)
O19_3 O 0.7440(7) 0.8870(5) 0.1098(5)
O20_3 O 0.8643(7) 0.7040(5) 0.0883(4)
O21_3 O 0.4043(7) 0.2005(6) 0.0787(5)
H37_3 H 0.769831 0.904858 0.0799807
H38_3 H 0.778873 0.901615 0.146237
H39_3 H 0.401265 0.180881 0.0427978
H40_3 H 0.404265 0.171289 0.107894
H41_3 H 0.83101 0.666628 0.0874636
H42_3 H 0.922677 0.703218 0.117949
O12_2 O 0.6750(6) 0.6529(4) 0.7833(4)
N1_3 N 0.2545(7) 0.6203(5) 0.9809(5)
N3_3 N 0.2699(7) 0.5705(5) 0.8111(5)
C1_3 C 0.2561(9) 0.5619(6) 0.9954(6)
C2_3 C 0.1900(10) 0.5227(7) 0.9639(6)
H1_3 H 0.1447 0.5359 0.9339
C3_3 C 0.1933(9) 0.4660(7) 0.9778(6)
H2_3 H 0.1506 0.4409 0.9563
C8_3 C 0.4168(9) 0.6329(7) 0.9700(6)
H5_3 H 0.4106 0.5993 0.9491
C9_3 C 0.4981(10) 0.6626(7) 0.9799(7)
H6_3 H 0.5487 0.6486 0.9667
C13_3 C 0.3443(9) 0.6522(6) 0.9906(6)
C15_3 C 0.1696(9) 0.6495(6) 0.9535(6)
C16_3 C 0.1741(9) 0.6933(7) 0.9163(6)
H9_3 H 0.2324 0.7045 0.9105
C17_3 C 0.0935(8) 0.7209(6) 0.8874(6)
H10_3 H 0.0989 0.7506 0.8632
C18_3 C 0.0057(9) 0.7051(7) 0.8939(6)
C19_3 C 0.0018(9) 0.6638(7) 0.9343(6)
C20_3 C 0.0830(8) 0.6359(6) 0.9652(6)
H12_3 H 0.0787 0.6093 0.9925
C22_3 C 0.1845(8) 0.5998(6) 0.7859(6)
C23_3 C 0.1065(9) 0.5928(7) 0.8104(6)
H13_3 H 0.1134 0.5710 0.8425
C24_3 C 0.0212(10) 0.6172(7) 0.7882(7)
C25_3 C 0.0116(8) 0.6499(6) 0.7404(6)
C26_3 C 0.0880(10) 0.6585(7) 0.7162(6)
H15_3 H 0.0817 0.6812 0.6847
C27_3 C 0.1750(9) 0.6325(8) 0.7400(6)
H16_3 H 0.2262 0.6378 0.7239
C29_3 C 0.2654(8) 0.5109(6) 0.8204(6)
C30_3 C 0.3253(9) 0.4851(7) 0.8641(6)
H17_3 H 0.3660 0.5076 0.8899
C31_3 C 0.3261(10) 0.4252(6) 0.8701(6)
H18_3 H 0.3693 0.4079 0.8988
C32_3 C 0.2627(9) 0.3917(6) 0.8334(6)
C33_3 C 0.1977(10) 0.4183(7) 0.7908(6)
H19_3 H 0.1531 0.3966 0.7665
C34_3 C 0.2011(10) 0.4776(7) 0.7854(6)
H20_3 H 0.1580 0.4953 0.7569
C35_3 C 0.2648(9) 0.3282(7) 0.8409(6)
C36_3 C 0.3579(8) 0.5979(6) 0.8112(6)
C37_3 C 0.4305(8) 0.5654(6) 0.7957(6)
H21_3 H 0.4211 0.5270 0.7856
C38_3 C 0.5140(9) 0.5915(7) 0.7961(6)
H22_3 H 0.5617 0.5709 0.7855
C39_3 C 0.5289(8) 0.6483(6) 0.8121(5)
C40_3 C 0.4564(8) 0.6778(6) 0.8278(6)
H23_3 H 0.4667 0.7157 0.8398
C41_3 C 0.3728(9) 0.6543(6) 0.8265(6)
H24_3 H 0.3250 0.6759 0.8360
C42_3 C 0.6215(9) 0.6760(7) 0.8116(6)
Eu4 Eu 0.24375(4) 0.24288(3) 0.72878(3)
Eu5 Eu 0.75625(4) 0.74288(3) 0.77122(3)
O15_2 O 0.4061(6) 0.2555(4) 0.7824(4)
N2_3 N 0.7471(7) 0.0943(5) 0.9027(5)
C43_3 C 0.7435(9) 0.0340(7) 0.8906(6)
C44_3 C 0.7048(10) 0.0137(7) 0.8368(6)
H25_3 H 0.6781 0.0400 0.8095
H28_3 H 0.8049 0.0051 0.9671
C50_3 C 0.6658(8) 0.1267(6) 0.8827(6)
C51_3 C 0.6659(8) 0.1779(6) 0.8561(6)
H29_3 H 0.7224 0.1937 0.8517
C52_3 C 0.5813(9) 0.2067(7) 0.8354(6)
H30_3 H 0.5821 0.2415 0.8170
C53_3 C 0.4963(8) 0.1844(6) 0.8419(6)
C54_3 C 0.4961(10) 0.1336(7) 0.8699(6)
H31_3 H 0.4395 0.1187 0.8751
C55_3 C 0.5790(9) 0.1042(6) 0.8908(6)
H32_3 H 0.5781 0.0699 0.9100
C56_3 C 0.4073(9) 0.2162(6) 0.8165(6)
C57_3 C 0.8356(9) 0.1204(6) 0.9234(6)
C58_3 C 0.9159(9) 0.0974(6) 0.9108(6)
H33_3 H 0.9122 0.0646 0.8890
C61_3 C 0.9294(9) 0.1943(7) 0.9744(7)
H35_3 H 0.9326 0.2269 0.9965
C62_3 C 0.8448(9) 0.1687(6) 0.9552(6)
H36_3 H 0.7915 0.1846 0.9640
O6_3 O 0.9200(6) 0.7640(5) 0.8237(4)
O7_3 O 0.8568(6) 0.6761(4) 0.7435(5)
O14_3 O 0.7288(6) 0.8381(4) 0.8009(4)
H11_3 H 0.9435 0.6543 0.9412
C21_3 C 0.9164(9) 0.7280(7) 0.8611(6)
H14_3 H 0.9705 0.6120 0.8047
C28_3 C 0.9163(10) 0.6755(7) 0.7144(7)
C45_3 C 0.7052(9) 0.9564(6) 0.8234(6)
H26_3 H 0.6798 0.9444 0.7874
C46_3 C 0.7433(9) 0.9167(6) 0.8634(6)
C47_3 C 0.7809(10) 0.9355(6) 0.9166(7)
H27_3 H 0.8071 0.9087 0.9436
C48_3 C 0.7805(10) 0.9936(6) 0.9308(6)
C49_3 C 0.7459(9) 0.8542(6) 0.8495(7)
O32_2 O 0.5939(6) 0.7555(4) 0.7176(4)
O6_4 O 0.0800(6) 0.2640(5) 0.6763(4)
O7_4 O 0.1432(6) 0.1761(4) 0.7565(5)
O14_4 O 0.2712(6) 0.3381(4) 0.6991(4)
N2_4 N 0.2529(7) 0.5943(5) 0.5973(5)
H11_4 H 0.0565 0.1543 0.5588
C21_4 C 0.0836(9) 0.2280(7) 0.6389(6)
H14_4 H 0.0295 0.1120 0.6953
C28_4 C 0.0837(10) 0.1755(7) 0.7856(7)
C43_4 C 0.2565(9) 0.5340(7) 0.6094(6)
C44_4 C 0.2952(10) 0.5137(7) 0.6632(6)
H25_4 H 0.3219 0.5400 0.6905
C45_4 C 0.2948(9) 0.4564(6) 0.6766(6)
H26_4 H 0.3202 0.4444 0.7126
C46_4 C 0.2567(9) 0.4167(6) 0.6366(6)
C47_4 C 0.2191(10) 0.4355(6) 0.5834(7)
H27_4 H 0.1929 0.4087 0.5564
C48_4 C 0.2195(10) 0.4936(6) 0.5692(6)
H28_4 H 0.1951 0.5051 0.5329
C49_4 C 0.2541(9) 0.3542(6) 0.6505(7)
C50_4 C 0.3342(8) 0.6267(6) 0.6173(6)
C51_4 C 0.3341(8) 0.6779(6) 0.6439(6)
H29_4 H 0.2776 0.6937 0.6483
C52_4 C 0.4187(9) 0.7067(7) 0.6646(6)
H30_4 H 0.4179 0.7415 0.6830
C53_4 C 0.5037(8) 0.6844(6) 0.6581(6)
C54_4 C 0.5039(10) 0.6336(7) 0.6301(6)
H31_4 H 0.5605 0.6187 0.6249
C55_4 C 0.4210(9) 0.6042(6) 0.6092(6)
H32_4 H 0.4219 0.5699 0.5900
C56_4 C 0.5927(9) 0.7162(6) 0.6835(6)
C57_4 C 0.1644(9) 0.6204(6) 0.5766(6)
C58_4 C 0.0841(9) 0.5974(6) 0.5892(6)
H33_4 H 0.0878 0.5646 0.6110
C61_4 C 0.0706(9) 0.6943(7) 0.5256(7)
H35_4 H 0.0674 0.7269 0.5035
C62_4 C 0.1552(9) 0.6687(6) 0.5448(6)
H36_4 H 0.2085 0.6846 0.5360
O30_2 O 0.3250(6) 0.1529(4) 0.7167(4)
O4_4 O 0.3958(6) 0.2915(4) 0.4488(4)
O18_2 O 0.8879(7) 0.7355(5) 0.4793(4)
N1_4 N 0.7455(7) 0.1203(5) 0.5191(5)
N3_4 N 0.7301(7) 0.0705(5) 0.6889(5)
C1_4 C 0.7439(9) 0.0619(6) 0.5046(6)
C2_4 C 0.8100(10) 0.0227(7) 0.5361(6)
H1_4 H 0.8553 0.0359 0.5661
C6_4 C 0.6767(10) 0.0403(7) 0.4596(8)
H4_4 H 0.6329 0.0650 0.4383
C8_4 C 0.5832(9) 0.1329(7) 0.5300(6)
H5_4 H 0.5894 0.0993 0.5509
C9_4 C 0.5019(10) 0.1626(7) 0.5201(7)
H6_4 H 0.4513 0.1486 0.5333
C10_4 C 0.4921(8) 0.2126(7) 0.4913(6)
C11_4 C 0.5675(9) 0.2343(7) 0.4725(6)
H7_4 H 0.5618 0.2694 0.4540
C12_4 C 0.6510(9) 0.2044(7) 0.4812(7)
H8_4 H 0.7023 0.2184 0.4687
C13_4 C 0.6557(9) 0.1522(6) 0.5094(6)
C14_4 C 0.4015(9) 0.2473(7) 0.4769(6)
C15_4 C 0.8304(9) 0.1495(6) 0.5465(6)
C16_4 C 0.8259(9) 0.1933(7) 0.5837(6)
H9_4 H 0.7676 0.2045 0.5895
C17_4 C 0.9065(8) 0.2209(6) 0.6126(6)
H10_4 H 0.9011 0.2506 0.6368
C18_4 C 0.9943(9) 0.2051(7) 0.6061(6)
C19_4 C 0.9982(9) 0.1638(7) 0.5657(6)
C20_4 C 0.9170(8) 0.1359(6) 0.5348(6)
H12_4 H 0.9213 0.1093 0.5075
C22_4 C 0.8155(8) 0.0998(6) 0.7141(6)
C23_4 C 0.8935(9) 0.0928(7) 0.6896(6)
H13_4 H 0.8866 0.0710 0.6575
C24_4 C 0.9788(10) 0.1172(7) 0.7118(7)
C25_4 C 0.9884(8) 0.1499(6) 0.7596(6)
C26_4 C 0.9120(10) 0.1585(7) 0.7838(6)
H15_4 H 0.9183 0.1812 0.8153
C27_4 C 0.8250(9) 0.1325(8) 0.7600(6)
H16_4 H 0.7738 0.1378 0.7761
C29_4 C 0.7346(8) 0.0109(6) 0.6796(6)
H17_4 H 0.6340 0.0076 0.6101
C36_4 C 0.6421(8) 0.0979(6) 0.6888(6)
C37_4 C 0.5695(8) 0.0654(6) 0.7043(6)
H21_4 H 0.5789 0.0270 0.7144
C38_4 C 0.4860(9) 0.0915(7) 0.7039(6)
H22_4 H 0.4383 0.0709 0.7145
C39_4 C 0.4711(8) 0.1483(6) 0.6879(5)
C40_4 C 0.5436(8) 0.1778(6) 0.6722(6)
H23_4 H 0.5333 0.2157 0.6602
C41_4 C 0.6272(9) 0.1543(6) 0.6735(6)
H24_4 H 0.6750 0.1759 0.6640
C42_4 C 0.3785(9) 0.1760(7) 0.6884(6)
C59_4 C 0.9971(9) 0.6242(7) 0.5685(6)
H34_4 H 0.9433 0.6077 0.5761
C60_4 C 0.9878(9) 0.6728(6) 0.5382(6)
C63_4 C 0.8921(10) 0.6974(6) 0.5167(6)
O19_4 O 0.2560(7) 0.3870(5) 0.3902(5)
O20_4 O 0.1357(7) 0.2040(5) 0.4117(4)
H37_4 H 0.230169 0.404858 0.420019
H38_4 H 0.221127 0.401615 0.353763
H41_4 H 0.16899 0.166628 0.412536
H42_4 H 0.0773231 0.203218 0.382051
O1_4 O 0.8088(6) 0.8510(4) 0.4853(4)
O2_4 O 0.6823(6) 0.8641(4) 0.4201(4)
C3_4 C 0.8067(9) 0.9660(7) 0.5222(6)
H2_4 H 0.8494 0.9409 0.5437
C4_4 C 0.7414(9) 0.9439(6) 0.4766(6)
C5_4 C 0.6752(10) 0.9825(7) 0.4467(7)
H3_4 H 0.6291 0.9688 0.4173
C7_4 C 0.7439(9) 0.8840(6) 0.4602(6)
C30_4 C 0.6747(9) 0.9851(7) 0.6359(6)
C31_4 C 0.6739(10) 0.9252(6) 0.6299(6)
H18_4 H 0.6307 0.9079 0.6012
C32_4 C 0.7373(9) 0.8917(6) 0.6666(6)
C33_4 C 0.8023(10) 0.9183(7) 0.7092(6)
H19_4 H 0.8469 0.8966 0.7335
C34_4 C 0.7989(10) 0.9776(7) 0.7146(6)
H20_4 H 0.8420 0.9953 0.7431
C35_4 C 0.7352(9) 0.8282(7) 0.6591(6)
O21_4 O 0.5957(7) 0.7005(6) 0.4213(5)
H39_4 H 0.598735 0.680881 0.457202
H40_4 H 0.595735 0.671289 0.392106
loop_
_geom_bond_atom_site_label_1
_geom_bond_atom_site_label_2
_geom_bond_site_symmetry_1
_geom_bond_site_symmetry_2
Eu1 O5 1_555 1_555
O5 C21 1_555 1_555
O6 Eu1 1_555 1_555
O7 Eu1 1_555 1_555
O8 C28 1_555 1_555
O13 C49 1_555 1_555
O14 Eu1 1_555 1_555
C21 O6 1_555 1_555
C28 O7 1_555 1_555
H26 C45 1_555 1_555
C46 C45 1_555 1_555
C47 C46 1_555 1_555
H27 C47 1_555 1_555
C49 O14 1_555 1_555
Eu8 O5 1_555 1_555
Eu10 O8 1_555 1_555
O25 Eu1 1_555 1_555
O28 Eu1 1_555 1_555
O30 Eu1 1_555 1_555
O32 Eu1 1_555 1_555
O33 Eu1 1_555 1_555
O13 Eu8 1_555 1_555
C46 C49 1_555 1_555
C47 C48 1_555 1_555
Eu8 O28 1_555 1_555
Eu10 O25 1_555 1_555
Eu10 O33 1_555 1_555
O15 C56 1_555 1_555
O16 C56 1_555 1_555
N2 C43 1_555 1_555
C43 C44 1_555 1_555
C44 H25 1_555 1_555
C50 N2 1_555 1_555
C51 C50 1_555 1_555
H29 C51 1_555 1_555
C52 C51 1_555 1_555
H30 C52 1_555 1_555
C53 C52 1_555 1_555
C54 C53 1_555 1_555
H31 C54 1_555 1_555
C55 C50 1_555 1_555
H32 C55 1_555 1_555
C56 C53 1_555 1_555
C57 N2 1_555 1_555
C58 C57 1_555 1_555
H33 C58 1_555 1_555
H35 C61 1_555 1_555
C62 C57 1_555 1_555
H36 C62 1_555 1_555
Eu6 O15 1_555 1_555
Eu12 O16 1_555 1_555
O16 Eu6 1_555 1_555
C54 C55 1_555 1_555
C61 C62 1_555 1_555
O9 C35 1_555 1_555
O10 C35 1_555 1_555
O28 C42 1_555 1_555
O30 C42 1_555 1_555
N1 C1 1_555 1_555
N3 C22 1_555 1_555
C1 C2 1_555 1_555
C2 H1 1_555 1_555
C3 C2 1_555 1_555
H2 C3 1_555 1_555
C8 H5 1_555 1_555
C9 C8 1_555 1_555
H6 C9 1_555 1_555
C13 N1 1_555 1_555
C15 N1 1_555 1_555
C16 C15 1_555 1_555
H9 C16 1_555 1_555
C17 C16 1_555 1_555
H10 C17 1_555 1_555
C18 C17 1_555 1_555
C19 C18 1_555 1_555
C20 C15 1_555 1_555
H12 C20 1_555 1_555
C22 C23 1_555 1_555
C23 H13 1_555 1_555
C24 C23 1_555 1_555
C25 C24 1_555 1_555
C26 C25 1_555 1_555
H15 C26 1_555 1_555
C27 C22 1_555 1_555
H16 C27 1_555 1_555
C29 N3 1_555 1_555
C30 C29 1_555 1_555
H17 C30 1_555 1_555
C31 C30 1_555 1_555
H18 C31 1_555 1_555
C32 C31 1_555 1_555
C33 C32 1_555 1_555
H19 C33 1_555 1_555
C34 C29 1_555 1_555
H20 C34 1_555 1_555
C35 C32 1_555 1_555
C36 N3 1_555 1_555
C37 C36 1_555 1_555
H21 C37 1_555 1_555
C38 C37 1_555 1_555
H22 C38 1_555 1_555
C39 C38 1_555 1_555
C40 C39 1_555 1_555
H23 C40 1_555 1_555
C41 C36 1_555 1_555
H24 C41 1_555 1_555
C42 C39 1_555 1_555
Eu6 O9 1_555 1_555
Eu12 O9 1_555 1_555
O10 Eu12 1_555 1_555
C8 C13 1_555 1_555
C19 C20 1_555 1_555
C26 C27 1_555 1_555
C33 C34 1_555 1_555
C40 C41 1_555 1_555
Eu12 O22 1_555 1_555
Eu2 O1 1_555 1_555
Eu3 O3 1_555 1_555
O1 C7 1_555 1_555
O2 Eu2 1_555 1_555
O3 C14 1_555 1_555
O4 Eu3 1_555 1_555
C5 C4 1_555 1_555
H3 C5 1_555 1_555
H4 C6 1_555 1_555
C7 O2 1_555 1_555
C11 C10 1_555 1_555
H7 C11 1_555 1_555
C12 C11 1_555 1_555
H8 C12 1_555 1_555
C14 O4 1_555 1_555
O19 Eu3 1_555 1_555
O20 Eu3 1_555 1_555
O21 Eu2 1_555 1_555
O23 Eu2 1_555 1_555
O24 Eu3 1_555 1_555
O26 Eu3 1_555 1_555
O27 Eu3 1_555 1_555
O29 Eu2 1_555 1_555
O31 Eu2 1_555 1_555
O34 Eu3 1_555 1_555
O35 Eu3 1_555 1_555
O36 Eu2 1_555 1_555
C4 C7 1_555 1_555
C5 C6 1_555 1_555
C10 C14 1_555 1_555
O19 H37 1_555 1_555
O19 H38 1_555 1_555
O21 H39 1_555 1_555
O21 H40 1_555 1_555
O20 H41 1_555 1_555
O20 H42 1_555 1_555
O17 C63 1_555 1_555
H34 C59 1_555 1_555
C60 C59 1_555 1_555
C63 C60 1_555 1_555
Eu12 O17 1_555 1_555
Eu2_2 O1_2 1_555 1_555
O1_2 C7_2 1_555 1_555
O2_2 Eu2_2 1_555 1_555
O25 C35_2 1_555 1_555
O10_2 C35_2 1_555 1_555
H2_2 C3_2 1_555 1_555
C4_2 C3_2 1_555 1_555
C5_2 C4_2 1_555 1_555
H3_2 C5_2 1_555 1_555
C7_2 O2_2 1_555 1_555
C31_2 C30_2 1_555 1_555
H18_2 C31_2 1_555 1_555
C32_2 C31_2 1_555 1_555
C33_2 C32_2 1_555 1_555
H19_2 C33_2 1_555 1_555
H20_2 C34_2 1_555 1_555
C35_2 C32_2 1_555 1_555
O21_2 Eu2_2 1_555 1_555
O22_2 Eu2_2 1_555 1_555
O23_2 Eu2_2 1_555 1_555
O29_2 Eu2_2 1_555 1_555
O31_2 Eu2_2 1_555 1_555
O36_2 Eu2_2 1_555 1_555
O10_2 Eu10 1_555 1_555
C4_2 C7_2 1_555 1_555
C33_2 C34_2 1_555 1_555
Eu10 O22_2 1_555 1_555
O21_2 H39_2 1_555 1_555
O21_2 H40_2 1_555 1_555
Eu3_2 O3_2 1_555 1_555
O3_2 C14_2 1_555 1_555
O4_2 Eu3_2 1_555 1_555
O11 C42_2 1_555 1_555
O12 C42_2 1_555 1_555
O17_2 C63_2 1_555 1_555
O36_2 C63_2 1_555 1_555
N1_2 C1_2 1_555 1_555
N3_2 C22_2 1_555 1_555
C1_2 C2_2 1_555 1_555
C2_2 H1_2 1_555 1_555
C6_2 C1_2 1_555 1_555
H4_2 C6_2 1_555 1_555
C8_2 H5_2 1_555 1_555
C9_2 C8_2 1_555 1_555
H6_2 C9_2 1_555 1_555
C10_2 C9_2 1_555 1_555
C11_2 C10_2 1_555 1_555
H7_2 C11_2 1_555 1_555
C12_2 C11_2 1_555 1_555
H8_2 C12_2 1_555 1_555
C13_2 N1_2 1_555 1_555
C14_2 O4_2 1_555 1_555
C15_2 N1_2 1_555 1_555
C16_2 C15_2 1_555 1_555
H9_2 C16_2 1_555 1_555
C17_2 C16_2 1_555 1_555
H10_2 C17_2 1_555 1_555
C18_2 C17_2 1_555 1_555
C19_2 C18_2 1_555 1_555
C20_2 C15_2 1_555 1_555
H12_2 C20_2 1_555 1_555
C22_2 C23_2 1_555 1_555
C23_2 H13_2 1_555 1_555
C24_2 C23_2 1_555 1_555
C25_2 C24_2 1_555 1_555
C26_2 C25_2 1_555 1_555
H15_2 C26_2 1_555 1_555
C27_2 C22_2 1_555 1_555
H16_2 C27_2 1_555 1_555
C29_2 N3_2 1_555 1_555
C36_2 N3_2 1_555 1_555
C37_2 C36_2 1_555 1_555
H21_2 C37_2 1_555 1_555
C38_2 C37_2 1_555 1_555
H22_2 C38_2 1_555 1_555
C39_2 C38_2 1_555 1_555
C40_2 C39_2 1_555 1_555
H23_2 C40_2 1_555 1_555
C41_2 C36_2 1_555 1_555
H24_2 C41_2 1_555 1_555
C42_2 C39_2 1_555 1_555
H34_2 C59_2 1_555 1_555
C60_2 C59_2 1_555 1_555
C63_2 C60_2 1_555 1_555
O19_2 Eu3_2 1_555 1_555
O20_2 Eu3_2 1_555 1_555
Eu6 O11 1_555 1_555
Eu7 O3_2 1_555 1_555
Eu10 O17_2 1_555 1_555
O24_2 Eu3_2 1_555 1_555
O26_2 Eu3_2 1_555 1_555
O27_2 Eu3_2 1_555 1_555
O34_2 Eu3_2 1_555 1_555
O35_2 Eu3_2 1_555 1_555
O11 Eu7 1_555 1_555
O12 Eu6 1_555 1_555
C8_2 C13_2 1_555 1_555
C10_2 C14_2 1_555 1_555
C12_2 C13_2 1_555 1_555
C19_2 C20_2 1_555 1_555
C26_2 C27_2 1_555 1_555
C40_2 C41_2 1_555 1_555
O19_2 H37_2 1_555 1_555
O19_2 H38_2 1_555 1_555
O20_2 H41_2 1_555 1_555
O20_2 H42_2 1_555 1_555
Eu6 O5_2 1_555 1_555
O5_2 C21_2 1_555 1_555
O6_2 Eu6 1_555 1_555
O7_2 Eu6 1_555 1_555
O8_2 C28_2 1_555 1_555
O13_2 C49_2 1_555 1_555
O14_2 Eu6 1_555 1_555
O32 C56_2 1_555 1_555
O33 C56_2 1_555 1_555
N2_2 C43_2 1_555 1_555
C21_2 O6_2 1_555 1_555
C28_2 O7_2 1_555 1_555
C43_2 C44_2 1_555 1_555
C44_2 H25_2 1_555 1_555
C45_2 C44_2 1_555 1_555
H26_2 C45_2 1_555 1_555
C46_2 C45_2 1_555 1_555
C47_2 C46_2 1_555 1_555
H27_2 C47_2 1_555 1_555
C48_2 C43_2 1_555 1_555
H28_2 C48_2 1_555 1_555
C49_2 O14_2 1_555 1_555
C50_2 N2_2 1_555 1_555
C51_2 C50_2 1_555 1_555
H29_2 C51_2 1_555 1_555
C52_2 C51_2 1_555 1_555
H30_2 C52_2 1_555 1_555
C53_2 C52_2 1_555 1_555
C54_2 C53_2 1_555 1_555
H31_2 C54_2 1_555 1_555
C55_2 C50_2 1_555 1_555
H32_2 C55_2 1_555 1_555
C56_2 C53_2 1_555 1_555
C57_2 N2_2 1_555 1_555
C58_2 C57_2 1_555 1_555
H33_2 C58_2 1_555 1_555
H35_2 C61_2 1_555 1_555
C62_2 C57_2 1_555 1_555
H36_2 C62_2 1_555 1_555
Eu7 O5_2 1_555 1_555
Eu12 O8_2 1_555 1_555
O13_2 Eu7 1_555 1_555
C46_2 C49_2 1_555 1_555
C47_2 C48_2 1_555 1_555
C54_2 C55_2 1_555 1_555
C61_2 C62_2 1_555 1_555
Eu8 O18 1_555 1_555
O35 C63_3 1_555 1_555
H34_3 C59_3 1_555 1_555
C60_3 C59_3 1_555 1_555
C63_3 C60_3 1_555 1_555
Eu8 O1_3 1_555 1_555
O1_3 C7_3 1_555 1_555
O2_3 Eu8 1_555 1_555
O22 C14_3 1_555 1_555
O4_3 Eu12 1_555 1_555
C5_3 C4_3 1_555 1_555
H3_3 C5_3 1_555 1_555
H4_3 C6_3 1_555 1_555
C7_3 O2_3 1_555 1_555
C11_3 C10_3 1_555 1_555
H7_3 C11_3 1_555 1_555
C12_3 C11_3 1_555 1_555
H8_3 C12_3 1_555 1_555
C14_3 O4_3 1_555 1_555
O19_3 Eu12 1_555 1_555
O20_3 Eu12 1_555 1_555
O21_3 Eu8 1_555 1_555
C4_3 C7_3 1_555 1_555
C5_3 C6_3 1_555 1_555
C10_3 C14_3 1_555 1_555
O19_3 H37_3 1_555 1_555
O19_3 H38_3 1_555 1_555
O21_3 H39_3 1_555 1_555
O21_3 H40_3 1_555 1_555
O20_3 H41_3 1_555 1_555
O20_3 H42_3 1_555 1_555
O26 C35_3 1_555 1_555
O27 C35_3 1_555 1_555
O29 C42_3 1_555 1_555
O12_2 C42_3 1_555 1_555
N1_3 C1_3 1_555 1_555
N3_3 C22_3 1_555 1_555
C1_3 C2_3 1_555 1_555
C2_3 H1_3 1_555 1_555
C3_3 C2_3 1_555 1_555
H2_3 C3_3 1_555 1_555
C8_3 H5_3 1_555 1_555
C9_3 C8_3 1_555 1_555
H6_3 C9_3 1_555 1_555
C13_3 N1_3 1_555 1_555
C15_3 N1_3 1_555 1_555
C16_3 C15_3 1_555 1_555
H9_3 C16_3 1_555 1_555
C17_3 C16_3 1_555 1_555
H10_3 C17_3 1_555 1_555
C18_3 C17_3 1_555 1_555
C19_3 C18_3 1_555 1_555
C20_3 C15_3 1_555 1_555
H12_3 C20_3 1_555 1_555
C22_3 C23_3 1_555 1_555
C23_3 H13_3 1_555 1_555
C24_3 C23_3 1_555 1_555
C25_3 C24_3 1_555 1_555
C26_3 C25_3 1_555 1_555
H15_3 C26_3 1_555 1_555
C27_3 C22_3 1_555 1_555
H16_3 C27_3 1_555 1_555
C29_3 N3_3 1_555 1_555
C30_3 C29_3 1_555 1_555
H17_3 C30_3 1_555 1_555
C31_3 C30_3 1_555 1_555
H18_3 C31_3 1_555 1_555
C32_3 C31_3 1_555 1_555
C33_3 C32_3 1_555 1_555
H19_3 C33_3 1_555 1_555
C34_3 C29_3 1_555 1_555
H20_3 C34_3 1_555 1_555
C35_3 C32_3 1_555 1_555
C36_3 N3_3 1_555 1_555
C37_3 C36_3 1_555 1_555
H21_3 C37_3 1_555 1_555
C38_3 C37_3 1_555 1_555
H22_3 C38_3 1_555 1_555
C39_3 C38_3 1_555 1_555
C40_3 C39_3 1_555 1_555
H23_3 C40_3 1_555 1_555
C41_3 C36_3 1_555 1_555
H24_3 C41_3 1_555 1_555
C42_3 C39_3 1_555 1_555
Eu4 O26 1_555 1_555
Eu5 O29 1_555 1_555
O12_2 Eu5 1_555 1_555
C8_3 C13_3 1_555 1_555
C19_3 C20_3 1_555 1_555
C26_3 C27_3 1_555 1_555
C33_3 C34_3 1_555 1_555
C40_3 C41_3 1_555 1_555
O15_2 C56_3 1_555 1_555
O34 C56_3 1_555 1_555
N2_3 C43_3 1_555 1_555
C43_3 C44_3 1_555 1_555
C44_3 H25_3 1_555 1_555
C50_3 N2_3 1_555 1_555
C51_3 C50_3 1_555 1_555
H29_3 C51_3 1_555 1_555
C52_3 C51_3 1_555 1_555
H30_3 C52_3 1_555 1_555
C53_3 C52_3 1_555 1_555
C54_3 C53_3 1_555 1_555
H31_3 C54_3 1_555 1_555
C55_3 C50_3 1_555 1_555
H32_3 C55_3 1_555 1_555
C56_3 C53_3 1_555 1_555
C57_3 N2_3 1_555 1_555
C58_3 C57_3 1_555 1_555
H33_3 C58_3 1_555 1_555
H35_3 C61_3 1_555 1_555
C62_3 C57_3 1_555 1_555
H36_3 C62_3 1_555 1_555
Eu4 O15_2 1_555 1_555
O34 Eu4 1_555 1_555
C54_3 C55_3 1_555 1_555
C61_3 C62_3 1_555 1_555
Eu5 O23 1_555 1_555
O23 C21_3 1_555 1_555
O6_3 Eu5 1_555 1_555
O7_3 Eu5 1_555 1_555
O24_2 C28_3 1_555 1_555
O31 C49_3 1_555 1_555
O14_3 Eu5 1_555 1_555
C21_3 O6_3 1_555 1_555
C28_3 O7_3 1_555 1_555
H26_3 C45_3 1_555 1_555
C46_3 C45_3 1_555 1_555
C47_3 C46_3 1_555 1_555
H27_3 C47_3 1_555 1_555
C49_3 O14_3 1_555 1_555
O26_2 Eu5 1_555 1_555
O32_2 Eu5 1_555 1_555
O34_2 Eu5 1_555 1_555
C46_3 C49_3 1_555 1_555
C47_3 C48_3 1_555 1_555
Eu4 O23_2 1_555 1_555
O23_2 C21_4 1_555 1_555
O6_4 Eu4 1_555 1_555
O7_4 Eu4 1_555 1_555
O24 C28_4 1_555 1_555
O31_2 C49_4 1_555 1_555
O14_4 Eu4 1_555 1_555
O32_2 C56_4 1_555 1_555
O34_2 C56_4 1_555 1_555
N2_4 C43_4 1_555 1_555
C21_4 O6_4 1_555 1_555
C28_4 O7_4 1_555 1_555
C43_4 C44_4 1_555 1_555
C44_4 H25_4 1_555 1_555
C45_4 C44_4 1_555 1_555
H26_4 C45_4 1_555 1_555
C46_4 C45_4 1_555 1_555
C47_4 C46_4 1_555 1_555
H27_4 C47_4 1_555 1_555
C48_4 C43_4 1_555 1_555
H28_4 C48_4 1_555 1_555
C49_4 O14_4 1_555 1_555
C50_4 N2_4 1_555 1_555
C51_4 C50_4 1_555 1_555
H29_4 C51_4 1_555 1_555
C52_4 C51_4 1_555 1_555
H30_4 C52_4 1_555 1_555
C53_4 C52_4 1_555 1_555
C54_4 C53_4 1_555 1_555
H31_4 C54_4 1_555 1_555
C55_4 C50_4 1_555 1_555
H32_4 C55_4 1_555 1_555
C56_4 C53_4 1_555 1_555
C57_4 N2_4 1_555 1_555
C58_4 C57_4 1_555 1_555
H33_4 C58_4 1_555 1_555
H35_4 C61_4 1_555 1_555
C62_4 C57_4 1_555 1_555
H36_4 C62_4 1_555 1_555
O29_2 Eu4 1_555 1_555
O30_2 Eu4 1_555 1_555
C46_4 C49_4 1_555 1_555
C47_4 C48_4 1_555 1_555
C54_4 C55_4 1_555 1_555
C61_4 C62_4 1_555 1_555
O22_2 C14_4 1_555 1_555
O4_4 Eu10 1_555 1_555
O29_2 C42_4 1_555 1_555
O30_2 C42_4 1_555 1_555
O35_2 C63_4 1_555 1_555
O18_2 C63_4 1_555 1_555
N1_4 C1_4 1_555 1_555
N3_4 C22_4 1_555 1_555
C1_4 C2_4 1_555 1_555
C2_4 H1_4 1_555 1_555
C6_4 C1_4 1_555 1_555
H4_4 C6_4 1_555 1_555
C8_4 H5_4 1_555 1_555
C9_4 C8_4 1_555 1_555
H6_4 C9_4 1_555 1_555
C10_4 C9_4 1_555 1_555
C11_4 C10_4 1_555 1_555
H7_4 C11_4 1_555 1_555
C12_4 C11_4 1_555 1_555
H8_4 C12_4 1_555 1_555
C13_4 N1_4 1_555 1_555
C14_4 O4_4 1_555 1_555
C15_4 N1_4 1_555 1_555
C16_4 C15_4 1_555 1_555
H9_4 C16_4 1_555 1_555
C17_4 C16_4 1_555 1_555
H10_4 C17_4 1_555 1_555
C18_4 C17_4 1_555 1_555
C19_4 C18_4 1_555 1_555
C20_4 C15_4 1_555 1_555
H12_4 C20_4 1_555 1_555
C22_4 C23_4 1_555 1_555
C23_4 H13_4 1_555 1_555
C24_4 C23_4 1_555 1_555
C25_4 C24_4 1_555 1_555
C26_4 C25_4 1_555 1_555
H15_4 C26_4 1_555 1_555
C27_4 C22_4 1_555 1_555
H16_4 C27_4 1_555 1_555
C29_4 N3_4 1_555 1_555
C36_4 N3_4 1_555 1_555
C37_4 C36_4 1_555 1_555
H21_4 C37_4 1_555 1_555
C38_4 C37_4 1_555 1_555
H22_4 C38_4 1_555 1_555
C39_4 C38_4 1_555 1_555
C40_4 C39_4 1_555 1_555
H23_4 C40_4 1_555 1_555
C41_4 C36_4 1_555 1_555
H24_4 C41_4 1_555 1_555
C42_4 C39_4 1_555 1_555
H34_4 C59_4 1_555 1_555
C60_4 C59_4 1_555 1_555
C63_4 C60_4 1_555 1_555
O19_4 Eu10 1_555 1_555
O20_4 Eu10 1_555 1_555
Eu7 O18_2 1_555 1_555
C8_4 C13_4 1_555 1_555
C10_4 C14_4 1_555 1_555
C12_4 C13_4 1_555 1_555
C19_4 C20_4 1_555 1_555
C26_4 C27_4 1_555 1_555
C40_4 C41_4 1_555 1_555
O19_4 H37_4 1_555 1_555
O19_4 H38_4 1_555 1_555
O20_4 H41_4 1_555 1_555
O20_4 H42_4 1_555 1_555
Eu7 O1_4 1_555 1_555
O1_4 C7_4 1_555 1_555
O2_4 Eu7 1_555 1_555
O26_2 C35_4 1_555 1_555
O27_2 C35_4 1_555 1_555
H2_4 C3_4 1_555 1_555
C4_4 C3_4 1_555 1_555
C5_4 C4_4 1_555 1_555
H3_4 C5_4 1_555 1_555
C7_4 O2_4 1_555 1_555
C31_4 C30_4 1_555 1_555
H18_4 C31_4 1_555 1_555
C32_4 C31_4 1_555 1_555
C33_4 C32_4 1_555 1_555
H19_4 C33_4 1_555 1_555
H20_4 C34_4 1_555 1_555
C35_4 C32_4 1_555 1_555
O21_4 Eu7 1_555 1_555
C4_4 C7_4 1_555 1_555
C33_4 C34_4 1_555 1_555
O21_4 H39_4 1_555 1_555
O21_4 H40_4 1_555 1_555

#END
