
###############################################################################
#
# This file contains modified crystal structure data generated from the
# MOF subset of the Cambridge Structural Database (CSD) v543 
# hosted by the Cambridge Crystallographic Data Centre (CCDC).
#
# This work is licensed under the Creative Commons
# Attribution-NonCommercial-ShareAlike 4.0 International License.
# To view a copy of this license, visit
# http://creativecommons.org/licenses/by-nc-sa/4.0/
# or send a letter to
# Creative Commons, PO Box 1866, Mountain View, CA 94042, USA.
#
# CIF created using the CSD Python API on 29 September 2022
# The structure has been converted into the P1 space group
# The structure has a 3D framework
# The original CSD entry YEKXIX is in the monoclinic crystal system
# The framework has been calculated to contain at least 10.0% void space
# The void calculation uses a probe of radius 1.32A, grid spacing 0.4
# The framework is charged, counterions have been retained in the structure
#
###############################################################################

data_YEKXIX
_chemical_formula_moiety         '(C136 H64 O55 Zn14 3-)n'
_symmetry_cell_setting           triclinic
_symmetry_space_group_name_H-M   'P 1'
_symmetry_Int_Tables_number      1
_space_group_name_Hall           'P 1'
loop_
_symmetry_equiv_pos_site_id
_symmetry_equiv_pos_as_xyz
1 x,y,z
_cell_length_a                   10.2830(11)
_cell_length_b                   27.339(3)
_cell_length_c                   27.2460(16)
_cell_angle_alpha                90
_cell_angle_beta                 92.806(2)
_cell_angle_gamma                90
_cell_volume                     7650.4
loop_
_atom_site_label
_atom_site_type_symbol
_atom_site_fract_x
_atom_site_fract_y
_atom_site_fract_z
C33 C 0.0001(5) 0.51361(17) 0.04823(16)
H16 H 0.0004 0.5231 0.0810
Zn5 Zn 0.31821(4) 0.198054(14) 0.697137(13)
Zn13 Zn 0.45259(4) 0.178229(15) 0.599070(14)
Zn16 Zn 0.10928(4) 0.308340(14) 0.203770(13)
C35 C 0.1891(3) 0.21739(13) 0.60011(13)
O17 O 0.1875(2) 0.21860(9) 0.64640(8)
O21 O 0.1200(3) 0.23978(9) 0.22227(11)
O25 O 0.45882(19) 0.16244(7) 0.66762(7)
O29 O 0.3225(3) 0.21914(11) 0.76509(9)
O31 O 0.1008(2) 0.28889(9) 0.07214(8)
O32 O 0.2885(2) 0.20883(9) 0.57619(8)
O35 O 0.1231(2) 0.42914(8) 0.21444(9)
O37 O 0.0100(3) 0.32020(11) 0.27492(8)
O41 O 0.2007(2) 0.13709(9) 0.71121(10)
C41 C 0.0638(3) 0.22568(13) 0.57290(11)
O45 O 0.4281(3) 0.26848(9) 0.68167(11)
C43 C 0.0307(3) 0.00814(12) 0.25318(14)
C45 C 0.0578(3) 0.23845(13) 0.52346(12)
H19 H 0.1346 0.2430 0.5073
C47 C 0.0235(4) 0.29921(18) 0.37546(14)
H20 H 0.0891 0.3186 0.3634
C51 C 0.0225(5) 0.21473(14) 0.20516(16)
C53 C 0.0303(4) 0.06105(13) 0.24160(16)
C54 C 0.0264(4) 0.28639(18) 0.42525(14)
H23 H 0.0950 0.2972 0.4459
C57 C 0.0268(4) 0.16106(13) 0.21784(16)
C59 C 0.1292(4) 0.09166(14) 0.25697(18)
H26 H 0.2004 0.0789 0.2750
C61 C 0.1260(4) 0.14097(14) 0.24632(18)
H27 H 0.1929 0.1610 0.2588
C63 C 0.0166(5) 0.54805(17) 0.01231(16)
H28 H 0.0276 0.5807 0.0211
Zn11 Zn 0.04741(4) 0.678229(15) 0.900930(14)
Zn21 Zn 0.04005(4) 0.593704(14) 0.818335(14)
O19 O 0.0345(3) 0.55762(10) 0.88082(10)
O46 O 0.0478(3) 0.61627(10) 0.93838(9)
C62 C 0.0172(4) 0.53513(16) 0.96416(16)
C68 C 0.0340(4) 0.57255(17) 0.92471(17)
Zn14 Zn 0.39072(4) 0.808340(14) 0.296230(13)
Zn22 Zn 0.54005(4) 0.906296(14) 0.318335(14)
O16 O 0.2646(2) 0.85939(8) 0.27506(8)
C37 C 0.2740(3) 0.90497(13) 0.27756(12)
O23 O 0.3800(3) 0.73978(9) 0.27773(11)
O26 O 0.54118(19) 0.83756(7) 0.33238(7)
O34 O 0.3769(2) 0.92914(8) 0.28556(9)
C39 C 0.0321(3) 0.90941(12) 0.27636(12)
H17 H 0.0324 0.8762 0.2837
C40 C 0.1495(3) 0.93296(12) 0.27002(13)
O39 O 0.4900(3) 0.82020(11) 0.22508(8)
O43 O 0.2798(2) 0.79736(11) 0.35829(9)
C56 C 0.1469(3) 0.98262(13) 0.25870(13)
H24 H 0.2249 0.9990 0.2548
Zn1 Zn 0.81821(4) 0.301946(14) 0.197137(13)
Zn2 Zn 0.95259(4) 0.321771(15) 0.099070(14)
Zn4 Zn 0.95995(4) 0.406296(14) 0.181665(14)
C1 C 0.6891(3) 0.28261(13) 0.10011(13)
C2 C 0.2061(3) 0.28806(13) 0.09723(14)
O1 O 0.2354(2) 0.35939(8) 0.22494(8)
C3 C 0.2260(3) 0.40497(13) 0.22244(12)
O2 O 0.6875(2) 0.28140(9) 0.14640(8)
O3 O 0.8114(2) 0.43338(8) 0.21292(9)
O4 O 0.9655(3) 0.44238(10) 0.11918(10)
O6 O 0.95882(19) 0.33756(7) 0.16762(7)
O9 O 0.7885(2) 0.29117(9) 0.07619(8)
C5 C 0.4679(3) 0.40941(12) 0.22364(12)
H1 H 0.4676 0.3762 0.2163
C6 C 0.3505(3) 0.43296(12) 0.22998(13)
O12 O 0.7007(2) 0.36291(9) 0.21121(10)
C7 C 0.5638(3) 0.27432(13) 0.07290(11)
C8 C 0.4477(3) 0.28130(13) 0.09591(12)
H2 H 0.4505 0.2891 0.1292
O13 O 0.2202(2) 0.29736(11) 0.14171(9)
O14 O 0.5719(3) 0.73152(9) 0.31833(11)
C9 C 0.4693(3) 0.50814(12) 0.24682(14)
C11 C 0.5578(3) 0.26155(13) 0.02346(12)
H3 H 0.6346 0.2570 0.0073
C12 C 0.5847(3) 0.43382(12) 0.22792(12)
C14 C 0.3232(3) 0.26447(14) 0.02192(12)
H5 H 0.2429 0.2620 0.0049
C15 C 0.5840(3) 0.48369(12) 0.23930(13)
H6 H 0.6623 0.5007 0.2419
C16 C 0.3285(3) 0.27708(13) 0.07103(12)
C17 C 0.4775(5) 0.71473(14) 0.29484(16)
C18 C 0.7091(3) 0.40782(14) 0.21639(12)
O15 O 0.9522(3) 0.38373(10) 0.06162(9)
C19 C 0.4697(4) 0.56105(13) 0.25840(16)
C22 C 0.3531(3) 0.48262(13) 0.24130(13)
H8 H 0.2751 0.4990 0.2452
C23 C 0.4732(4) 0.66106(13) 0.28216(16)
C25 C 0.3708(4) 0.59166(14) 0.24303(18)
H10 H 0.2996 0.5789 0.2250
C27 C 0.3740(4) 0.64097(14) 0.25368(18)
H11 H 0.3071 0.6610 0.2412
C28 C 0.9828(4) 0.46487(16) 0.03584(16)
C30 C 0.5707(4) 0.63118(15) 0.29844(18)
H13 H 0.6394 0.6439 0.3179
C31 C 0.5697(4) 0.58171(14) 0.28646(18)
H14 H 0.6387 0.5621 0.2978
C34 C 0.9660(4) 0.42745(17) 0.07529(17)
Zn7 Zn 0.68179(4) 0.801946(14) 0.302863(13)
Zn18 Zn 0.60928(4) 0.191660(14) 0.703770(13)
C36 C 0.7061(3) 0.21194(13) 0.59723(14)
C38 C 0.9196(4) 0.29645(15) 0.29076(14)
O28 O 0.8225(3) 0.28086(11) 0.26509(9)
O30 O 0.6008(2) 0.21111(9) 0.57214(8)
C42 C 0.9477(3) 0.21870(13) 0.59591(12)
H18 H 0.9505 0.2109 0.6292
O42 O 0.7202(2) 0.20264(11) 0.64171(9)
O44 O 0.9281(3) 0.23152(9) 0.18167(11)
C44 C 0.9371(3) 0.24463(14) 0.49742(12)
C48 C 0.8232(3) 0.23553(14) 0.52192(12)
H21 H 0.7429 0.2380 0.5049
H22 H 0.8377 0.0007 0.2581
C50 C 0.8285(3) 0.22292(13) 0.57103(12)
C55 C 0.9311(4) 0.25840(16) 0.44418(13)
C58 C 0.8347(4) 0.24208(18) 0.41232(14)
H25 H 0.7698 0.2222 0.4241
C60 C 0.9239(4) 0.28315(16) 0.34483(13)
C64 C 0.9293(4) 0.13118(15) 0.20156(18)
H29 H 0.8606 0.1439 0.1821
C65 C 0.9303(4) 0.08171(14) 0.21354(18)
H30 H 0.8613 0.0621 0.2022
C66 C 0.8299(4) 0.25393(18) 0.36336(14)
H31 H 0.7625 0.2421 0.3427
C4 C 0.4196(4) 0.20355(15) 0.79076(14)
O11 O 0.5100(3) 0.17980(11) 0.77492(8)
C10 C 0.4371(3) 0.25537(14) 0.99742(12)
C13 C 0.5235(4) 0.20079(18) 0.87546(14)
H4 H 0.5891 0.1814 0.8634
C20 C 0.5264(4) 0.21361(18) 0.92525(14)
H7 H 0.5950 0.2028 0.9459
C21 C 0.4311(4) 0.24160(16) 0.94418(13)
C24 C 0.3347(4) 0.25792(18) 0.91232(14)
H9 H 0.2698 0.2778 0.9241
C26 C 0.4239(4) 0.21685(16) 0.84483(13)
C29 C 0.9834(5) 0.45195(17) 0.98769(16)
H12 H 0.9724 0.4193 0.9789
C32 C 0.3299(4) 0.24607(18) 0.86336(14)
H15 H 0.2625 0.2579 0.8427
C67 C 0.9999(5) 0.48639(17) 0.95177(16)
H32 H 0.9996 0.4769 0.9190
O18 O 0.6886(2) 0.93338(8) 0.28708(9)
O20 O 0.5345(3) 0.94238(10) 0.38082(10)
O40 O 0.7993(2) 0.86291(9) 0.28879(10)
C46 C 0.9153(3) 0.93382(12) 0.27208(12)
C49 C 0.9160(3) 0.98369(12) 0.26070(13)
C52 C 0.7909(3) 0.90782(14) 0.28361(12)
C2_2 C 0.2939(3) 0.78806(13) 0.40277(14)
C4_2 C 0.0804(4) 0.70355(15) 0.70924(14)
O7 O 0.1775(3) 0.71914(11) 0.73491(9)
O8 O 0.3992(2) 0.78889(9) 0.42786(8)
C8_2 C 0.0523(3) 0.78130(13) 0.40409(12)
H2_2 H 0.0495 0.7891 0.3708
C10_2 C 0.0629(3) 0.75537(14) 0.50258(12)
C14_2 C 0.1768(3) 0.76447(14) 0.47808(12)
H5_2 H 0.2571 0.7620 0.4951
C16_2 C 0.1715(3) 0.77708(13) 0.42897(12)
C21_2 C 0.0689(4) 0.74160(16) 0.55582(13)
C24_2 C 0.1653(4) 0.75792(18) 0.58768(14)
H9_2 H 0.2302 0.7778 0.5759
C26_2 C 0.0761(4) 0.71685(16) 0.65517(13)
C32_2 C 0.1701(4) 0.74607(18) 0.63664(14)
H15_2 H 0.2375 0.7579 0.6573
Zn6 Zn 0.18179(4) 0.698054(14) 0.802863(13)
Zn10 Zn 0.54741(4) 0.821771(15) 0.400930(14)
O33 O 0.7115(2) 0.79117(9) 0.42381(8)
O47 O 0.5478(3) 0.88373(10) 0.43838(9)
C33_2 C 0.4999(5) 0.01361(17) 0.45177(16)
H16_2 H 0.4996 0.0231 0.4190
Zn21_2 Zn 0.45995(4) 0.093704(14) 0.681665(14)
O19_2 O 0.4655(3) 0.05762(10) 0.61918(10)
O46_2 O 0.4522(3) 0.11627(10) 0.56162(9)
C62_2 C 0.4828(4) 0.03513(16) 0.53584(16)
C63_2 C 0.4834(5) 0.04805(17) 0.48769(16)
H28_2 H 0.4724 0.0807 0.4789
C68_2 C 0.4660(4) 0.07255(17) 0.57529(17)
C1_2 C 0.8109(3) 0.78261(13) 0.39989(13)
O2_2 O 0.8125(2) 0.78140(9) 0.35360(8)
O11_2 O 0.9900(3) 0.67980(11) 0.72508(8)
C7_2 C 0.9362(3) 0.77432(13) 0.42710(11)
C11_2 C 0.9422(3) 0.76155(13) 0.47654(12)
H3_2 H 0.8654 0.7570 0.4927
C13_2 C 0.9765(4) 0.70079(18) 0.62454(14)
H4_2 H 0.9109 0.6814 0.6366
C20_2 C 0.9736(4) 0.71361(18) 0.57475(14)
H7_2 H 0.9050 0.7028 0.5541
C28_2 C 0.5172(4) 0.96487(16) 0.46416(16)
C29_2 C 0.5166(5) 0.95195(17) 0.51231(16)
H12_2 H 0.5276 0.9193 0.5211
C34_2 C 0.5340(4) 0.92745(17) 0.42471(17)
Zn17 Zn 0.89072(4) 0.691660(14) 0.796230(13)
C38_2 C 0.5804(4) 0.79645(15) 0.20924(14)
O28_2 O 0.6775(3) 0.78086(11) 0.23491(9)
C44_2 C 0.5629(3) 0.74463(14) 0.00258(12)
C47_2 C 0.4765(4) 0.79921(18) 0.12454(14)
H20_2 H 0.4109 0.8186 0.1366
C54_2 C 0.4736(4) 0.78639(18) 0.07475(14)
H23_2 H 0.4050 0.7972 0.0541
C55_2 C 0.5689(4) 0.75840(16) 0.05582(13)
C58_2 C 0.6653(4) 0.74208(18) 0.08768(14)
H25_2 H 0.7302 0.7222 0.0759
C60_2 C 0.5761(4) 0.78315(16) 0.15517(13)
C66_2 C 0.6701(4) 0.75393(18) 0.13664(14)
H31_2 H 0.7375 0.7421 0.1573
C67_2 C 0.5001(5) 0.98639(17) 0.54823(16)
H32_2 H 0.5004 0.9769 0.5810
C35_2 C 0.3109(3) 0.71739(13) 0.89989(13)
C36_2 C 0.7939(3) 0.71194(13) 0.90277(14)
O17_2 O 0.3125(2) 0.71860(9) 0.85360(8)
O25_2 O 0.04118(19) 0.66244(7) 0.83238(7)
O30_2 O 0.8992(2) 0.71111(9) 0.92786(8)
O32_2 O 0.2115(2) 0.70883(9) 0.92381(8)
O41_2 O 0.2993(2) 0.63709(9) 0.78879(10)
C41_2 C 0.4362(3) 0.72568(13) 0.92710(11)
C42_2 C 0.5523(3) 0.71870(13) 0.90409(12)
H18_2 H 0.5495 0.7109 0.8708
O42_2 O 0.7798(2) 0.70264(11) 0.85829(9)
O45_2 O 0.0719(3) 0.76848(9) 0.81833(11)
C45_2 C 0.4422(3) 0.73845(13) 0.97654(12)
H19_2 H 0.3654 0.7430 0.9927
C48_2 C 0.6768(3) 0.73553(14) 0.97808(12)
H21_2 H 0.7571 0.7380 0.9951
C50_2 C 0.6715(3) 0.72292(13) 0.92897(12)
O18_2 O 0.3114(2) 0.06662(8) 0.71292(9)
O36 O 0.6231(2) 0.07086(8) 0.71444(9)
C46_2 C 0.0847(3) 0.06618(12) 0.72792(12)
C49_2 C 0.0840(3) 0.01631(12) 0.73930(13)
C52_2 C 0.2091(3) 0.09218(14) 0.71639(12)
O1_2 O 0.7646(2) 0.64061(8) 0.77506(8)
C3_2 C 0.7740(3) 0.59503(13) 0.77756(12)
O3_2 O 0.1886(2) 0.56662(8) 0.78708(9)
O5 O 0.6200(3) 0.26022(9) 0.72227(11)
O10 O 0.8769(2) 0.57086(8) 0.78556(9)
C5_2 C 0.5321(3) 0.59059(12) 0.77636(12)
H1_2 H 0.5324 0.6238 0.7837
C6_2 C 0.6495(3) 0.56704(12) 0.77002(13)
C9_2 C 0.5307(3) 0.49186(12) 0.75318(14)
C12_2 C 0.4153(3) 0.56618(12) 0.77208(12)
C15_2 C 0.4160(3) 0.51631(12) 0.76070(13)
H6_2 H 0.3377 0.4993 0.7581
C17_2 C 0.5225(5) 0.28527(14) 0.70516(16)
C18_2 C 0.2909(3) 0.59218(14) 0.78361(12)
C19_2 C 0.5303(4) 0.43895(13) 0.74160(16)
C22_2 C 0.6469(3) 0.51738(13) 0.75870(13)
H8_2 H 0.7249 0.5010 0.7548
C23_2 C 0.5268(4) 0.33894(13) 0.71784(16)
C25_2 C 0.6292(4) 0.40834(14) 0.75697(18)
H10_2 H 0.7004 0.4211 0.7750
C27_2 C 0.6260(4) 0.35903(14) 0.74632(18)
H11_2 H 0.6929 0.3390 0.7588
C30_2 C 0.4293(4) 0.36882(15) 0.70156(18)
H13_2 H 0.3606 0.3561 0.6821
C31_2 C 0.4303(4) 0.41829(14) 0.71354(18)
H14_2 H 0.3613 0.4379 0.7022
O22 O 0.8800(3) 0.76022(9) 0.77773(11)
H22_2 H 0.1623 0.9993 0.7419
C64_2 C 0.0707(4) 0.86882(15) 0.79844(18)
H29_2 H 0.1394 0.8561 0.8179
C65_2 C 0.0697(4) 0.91829(14) 0.78646(18)
H30_2 H 0.1387 0.9379 0.7978
O16_2 O 0.7354(2) 0.14061(8) 0.72494(8)
C37_2 C 0.7260(3) 0.09503(13) 0.72244(12)
C39_2 C 0.9679(3) 0.09059(12) 0.72364(12)
H17_2 H 0.9676 0.1238 0.7163
C40_2 C 0.8505(3) 0.06704(12) 0.72998(13)
C56_2 C 0.8531(3) 0.01738(13) 0.74130(13)
H24_2 H 0.7751 0.0010 0.7452
C43_2 C 0.9693(3) 0.99186(12) 0.74682(14)
C51_2 C 0.9775(5) 0.78527(14) 0.79484(16)
C53_2 C 0.9697(4) 0.93895(13) 0.75840(16)
C57_2 C 0.9732(4) 0.83894(13) 0.78216(16)
C59_2 C 0.8708(4) 0.90834(14) 0.74303(18)
H26_2 H 0.7996 0.9211 0.7250
C61_2 C 0.8740(4) 0.85903(14) 0.75368(18)
H27_2 H 0.8071 0.8390 0.7412
loop_
_geom_bond_atom_site_label_1
_geom_bond_atom_site_label_2
_geom_bond_site_symmetry_1
_geom_bond_site_symmetry_2
H16 C33 1_555 1_555
Zn5 O17 1_555 1_555
Zn13 O25 1_555 1_555
C35 O17 1_555 1_555
O21 Zn16 1_555 1_555
O25 Zn5 1_555 1_555
O29 Zn5 1_555 1_555
O32 Zn13 1_555 1_555
O37 Zn16 1_555 1_555
O41 Zn5 1_555 1_555
C41 C35 1_555 1_555
O45 Zn5 1_555 1_555
C45 C41 1_555 1_555
H19 C45 1_555 1_555
C47 H20 1_555 1_555
C51 O21 1_555 1_555
C53 C43 1_555 1_555
C54 C47 1_555 1_555
H23 C54 1_555 1_555
C57 C51 1_555 1_555
C59 C53 1_555 1_555
H26 C59 1_555 1_555
C61 C57 1_555 1_555
H27 C61 1_555 1_555
C63 C33 1_555 1_555
H28 C63 1_555 1_555
C35 O32 1_555 1_555
C59 C61 1_555 1_555
Zn11 O46 1_555 1_555
Zn21 O19 1_555 1_555
O19 C68 1_555 1_555
O46 C68 1_555 1_555
C68 C62 1_555 1_555
Zn14 O16 1_555 1_555
Zn22 O26 1_555 1_555
O16 C37 1_555 1_555
C37 O34 1_555 1_555
O23 Zn14 1_555 1_555
O26 Zn14 1_555 1_555
O34 Zn22 1_555 1_555
C39 H17 1_555 1_555
C40 C37 1_555 1_555
O39 Zn14 1_555 1_555
O43 Zn14 1_555 1_555
C56 C40 1_555 1_555
H24 C56 1_555 1_555
C39 C40 1_555 1_555
Zn1 O2 1_555 1_555
Zn2 O6 1_555 1_555
Zn16 O1 1_555 1_555
Zn4 O3 1_555 1_555
C1 O2 1_555 1_555
C2 O31 1_555 1_555
O1 C3 1_555 1_555
C3 O35 1_555 1_555
O3 C18 1_555 1_555
O4 Zn4 1_555 1_555
O23 C17 1_555 1_555
O6 Zn1 1_555 1_555
O9 Zn2 1_555 1_555
C5 H1 1_555 1_555
C6 C3 1_555 1_555
O12 Zn1 1_555 1_555
C7 C1 1_555 1_555
C8 C7 1_555 1_555
H2 C8 1_555 1_555
O13 Zn16 1_555 1_555
O14 C17 1_555 1_555
C9 C15 1_555 1_555
C11 C7 1_555 1_555
H3 C11 1_555 1_555
C12 C5 1_555 1_555
H5 C14 1_555 1_555
C15 C12 1_555 1_555
H6 C15 1_555 1_555
C16 C2 1_555 1_555
C17 C23 1_555 1_555
C18 O12 1_555 1_555
O15 Zn2 1_555 1_555
C19 C9 1_555 1_555
C22 C6 1_555 1_555
H8 C22 1_555 1_555
C23 C27 1_555 1_555
C25 C19 1_555 1_555
H10 C25 1_555 1_555
C27 C25 1_555 1_555
H11 C27 1_555 1_555
C30 C23 1_555 1_555
H13 C30 1_555 1_555
C31 C19 1_555 1_555
H14 C31 1_555 1_555
C34 O4 1_555 1_555
Zn7 O14 1_555 1_555
Zn13 O30 1_555 1_555
Zn18 O42 1_555 1_555
C36 O30 1_555 1_555
C38 O28 1_555 1_555
O28 Zn1 1_555 1_555
H18 C42 1_555 1_555
O42 C36 1_555 1_555
O44 Zn1 1_555 1_555
C48 C44 1_555 1_555
H21 C48 1_555 1_555
C50 C36 1_555 1_555
C55 C44 1_555 1_555
C58 C55 1_555 1_555
H25 C58 1_555 1_555
C60 C38 1_555 1_555
H29 C64 1_555 1_555
H30 C65 1_555 1_555
C66 C58 1_555 1_555
H31 C66 1_555 1_555
Zn4 O6 1_555 1_555
C1 O9 1_555 1_555
C2 O13 1_555 1_555
C5 C6 1_555 1_555
C8 C16 1_555 1_555
C9 C22 1_555 1_555
C12 C18 1_555 1_555
C14 C16 1_555 1_555
O15 C34 1_555 1_555
C28 C34 1_555 1_555
C30 C31 1_555 1_555
C42 C50 1_555 1_555
C48 C50 1_555 1_555
C60 C66 1_555 1_555
C64 C65 1_555 1_555
C4 O29 1_555 1_555
O11 C4 1_555 1_555
C13 H4 1_555 1_555
C20 C13 1_555 1_555
H7 C20 1_555 1_555
C21 C10 1_555 1_555
C24 C21 1_555 1_555
H9 C24 1_555 1_555
C26 C4 1_555 1_555
C29 H12 1_555 1_555
C32 C24 1_555 1_555
H15 C32 1_555 1_555
Zn18 O11 1_555 1_555
C67 C29 1_555 1_555
H32 C67 1_555 1_555
C13 C26 1_555 1_555
C20 C21 1_555 1_555
C26 C32 1_555 1_555
Zn7 O26 1_555 1_555
Zn22 O18 1_555 1_555
O18 C52 1_555 1_555
O20 Zn22 1_555 1_555
O40 Zn7 1_555 1_555
C49 C46 1_555 1_555
C52 O40 1_555 1_555
C46 C52 1_555 1_555
C2_2 O8 1_555 1_555
C4_2 O7 1_555 1_555
O7 Zn6 1_555 1_555
O8 Zn10 1_555 1_555
H2_2 C8_2 1_555 1_555
C14_2 C10_2 1_555 1_555
H5_2 C14_2 1_555 1_555
C16_2 C2_2 1_555 1_555
C21_2 C10_2 1_555 1_555
C24_2 C21_2 1_555 1_555
H9_2 C24_2 1_555 1_555
C26_2 C4_2 1_555 1_555
C32_2 C24_2 1_555 1_555
H15_2 C32_2 1_555 1_555
Zn10 O26 1_555 1_555
O33 Zn10 1_555 1_555
O47 Zn10 1_555 1_555
C2_2 O43 1_555 1_555
C8_2 C16_2 1_555 1_555
C14_2 C16_2 1_555 1_555
C26_2 C32_2 1_555 1_555
H16_2 C33_2 1_555 1_555
Zn13 O46_2 1_555 1_555
Zn21_2 O19_2 1_555 1_555
O19_2 C68_2 1_555 1_555
O46_2 C68_2 1_555 1_555
C62_2 C63_2 1_555 1_555
C63_2 C33_2 1_555 1_555
H28_2 C63_2 1_555 1_555
C68_2 C62_2 1_555 1_555
Zn7 O2_2 1_555 1_555
C1_2 O2_2 1_555 1_555
C7_2 C1_2 1_555 1_555
C11_2 C7_2 1_555 1_555
H3_2 C11_2 1_555 1_555
C13_2 H4_2 1_555 1_555
C20_2 C13_2 1_555 1_555
H7_2 C20_2 1_555 1_555
C28_2 C29_2 1_555 1_555
C29_2 H12_2 1_555 1_555
C34_2 O20 1_555 1_555
Zn17 O11_2 1_555 1_555
C38_2 O28_2 1_555 1_555
O28_2 Zn7 1_555 1_555
C47_2 H20_2 1_555 1_555
C54_2 C47_2 1_555 1_555
H23_2 C54_2 1_555 1_555
C55_2 C44_2 1_555 1_555
C58_2 C55_2 1_555 1_555
H25_2 C58_2 1_555 1_555
C60_2 C38_2 1_555 1_555
C66_2 C58_2 1_555 1_555
H31_2 C66_2 1_555 1_555
C67_2 C29_2 1_555 1_555
H32_2 C67_2 1_555 1_555
C1_2 O33 1_555 1_555
O47 C34_2 1_555 1_555
C28_2 C34_2 1_555 1_555
C38_2 O39 1_555 1_555
C47_2 C60_2 1_555 1_555
C54_2 C55_2 1_555 1_555
C60_2 C66_2 1_555 1_555
Zn6 O17_2 1_555 1_555
Zn11 O25_2 1_555 1_555
Zn17 O42_2 1_555 1_555
C35_2 O17_2 1_555 1_555
C36_2 O30_2 1_555 1_555
O25_2 Zn6 1_555 1_555
O32_2 Zn11 1_555 1_555
O41_2 Zn6 1_555 1_555
C41_2 C35_2 1_555 1_555
C42_2 C41_2 1_555 1_555
H18_2 C42_2 1_555 1_555
O42_2 C36_2 1_555 1_555
O45_2 Zn6 1_555 1_555
C45_2 C41_2 1_555 1_555
H19_2 C45_2 1_555 1_555
H21_2 C48_2 1_555 1_555
C50_2 C36_2 1_555 1_555
C35_2 O32_2 1_555 1_555
C42_2 C50_2 1_555 1_555
C48_2 C50_2 1_555 1_555
Zn21 O25_2 1_555 1_555
Zn21_2 O18_2 1_555 1_555
O18_2 C52_2 1_555 1_555
O25 Zn21_2 1_555 1_555
O36 Zn21_2 1_555 1_555
C49_2 C46_2 1_555 1_555
C52_2 O41 1_555 1_555
C46_2 C52_2 1_555 1_555
Zn17 O1_2 1_555 1_555
Zn21 O3_2 1_555 1_555
O1_2 C3_2 1_555 1_555
C3_2 O10 1_555 1_555
O3_2 C18_2 1_555 1_555
O5 C17_2 1_555 1_555
C5_2 H1_2 1_555 1_555
C6_2 C3_2 1_555 1_555
O45 C17_2 1_555 1_555
C9_2 C15_2 1_555 1_555
C12_2 C5_2 1_555 1_555
C15_2 C12_2 1_555 1_555
H6_2 C15_2 1_555 1_555
C17_2 C23_2 1_555 1_555
C18_2 O41_2 1_555 1_555
C19_2 C9_2 1_555 1_555
C22_2 C6_2 1_555 1_555
H8_2 C22_2 1_555 1_555
C23_2 C27_2 1_555 1_555
C25_2 C19_2 1_555 1_555
H10_2 C25_2 1_555 1_555
C27_2 C25_2 1_555 1_555
H11_2 C27_2 1_555 1_555
C30_2 C23_2 1_555 1_555
H13_2 C30_2 1_555 1_555
C31_2 C19_2 1_555 1_555
H14_2 C31_2 1_555 1_555
Zn18 O5 1_555 1_555
O22 Zn17 1_555 1_555
H29_2 C64_2 1_555 1_555
H30_2 C65_2 1_555 1_555
C5_2 C6_2 1_555 1_555
C9_2 C22_2 1_555 1_555
C12_2 C18_2 1_555 1_555
C30_2 C31_2 1_555 1_555
C64_2 C65_2 1_555 1_555
Zn18 O16_2 1_555 1_555
O16_2 C37_2 1_555 1_555
C37_2 O36 1_555 1_555
O25 Zn18 1_555 1_555
C39_2 H17_2 1_555 1_555
C40_2 C37_2 1_555 1_555
C56_2 C40_2 1_555 1_555
H24_2 C56_2 1_555 1_555
C39_2 C40_2 1_555 1_555
C51_2 O22 1_555 1_555
C53_2 C43_2 1_555 1_555
C57_2 C51_2 1_555 1_555
C59_2 C53_2 1_555 1_555
H26_2 C59_2 1_555 1_555
C61_2 C57_2 1_555 1_555
H27_2 C61_2 1_555 1_555
C59_2 C61_2 1_555 1_555

#END
