
###############################################################################
#
# This file contains modified crystal structure data generated from the
# MOF subset of the Cambridge Structural Database (CSD) v543 
# hosted by the Cambridge Crystallographic Data Centre (CCDC).
#
# This work is licensed under the Creative Commons
# Attribution-NonCommercial-ShareAlike 4.0 International License.
# To view a copy of this license, visit
# http://creativecommons.org/licenses/by-nc-sa/4.0/
# or send a letter to
# Creative Commons, PO Box 1866, Mountain View, CA 94042, USA.
#
# CIF created using the CSD Python API on 29 September 2022
# The structure has been converted into the P1 space group
# The structure has a 3D framework
# The original CSD entry YELCOL is in the orthorhombic crystal system
# The framework has been calculated to contain at least 10.0% void space
# The void calculation uses a probe of radius 1.32A, grid spacing 0.4
#
###############################################################################

data_YELCOL
_chemical_formula_moiety         '(C144 H120 Cd8 N24 O40)n'
_symmetry_cell_setting           triclinic
_symmetry_space_group_name_H-M   'P 1'
_symmetry_Int_Tables_number      1
_space_group_name_Hall           'P 1'
loop_
_symmetry_equiv_pos_site_id
_symmetry_equiv_pos_as_xyz
1 x,y,z
_cell_length_a                   15.0032(7)
_cell_length_b                   16.0105(8)
_cell_length_c                   17.3857(8)
_cell_angle_alpha                90
_cell_angle_beta                 90
_cell_angle_gamma                90
_cell_volume                     4176.2
loop_
_atom_site_label
_atom_site_type_symbol
_atom_site_fract_x
_atom_site_fract_y
_atom_site_fract_z
C23 C 0.01708(18) 0.04621(19) 0.06606(19)
H18 H 0.0283 0.0773 0.1102
C24 C 0.0711(2) 0.05517(19) 0.00169(18)
H19 H 0.1189 0.0921 0.0030
Cd1 Cd 0.232084(15) 0.053700(16) 0.749618(11)
O2 O 0.11379(14) 0.09407(13) 0.66567(12)
O4 O 0.16570(13) 0.08072(13) 0.86399(12)
C13 C 0.1213(2) 0.02804(19) 0.62704(18)
C15 C 0.11199(19) 0.0198(2) 0.86613(18)
C17 C 0.05735(18) 0.01180(19) 0.56231(17)
C18 C 0.05422(18) 0.00978(18) 0.93596(17)
O5 O 0.23696(19) 0.2170(2) 0.7595(2)
H14 H 0.2820 0.2321 0.7867
H15 H 0.237(4) 0.238(4) 0.718(3)
N7 N 0.35427(16) 0.09642(16) 0.67976(15)
O1 O 0.18228(13) 0.97562(14) 0.64096(13)
N1 N 0.32446(17) 0.95811(16) 0.81585(15)
C1 C 0.42311(19) 0.82883(18) 0.88542(17)
C2 C 0.07519(19) 0.95082(18) 0.50795(18)
H1 H 0.1256 0.9175 0.5131
O3 O 0.10736(14) 0.96689(15) 0.81311(13)
C3 C 0.01879(19) 0.93901(19) 0.44615(19)
H2 H 0.0316 0.8980 0.4099
C5 C 0.52723(19) 0.70923(19) 0.88820(18)
C6 C 0.59816(19) 0.67655(19) 0.92924(18)
H4 H 0.6072 0.6919 0.9802
N2 N 0.47006(16) 0.76667(16) 0.92269(16)
H5 H 0.4634 0.7631 0.9717
C8 C 0.3055(2) 0.9289(2) 0.88616(19)
H7 H 0.2580 0.9531 0.9123
C9 C 0.35091(19) 0.86620(19) 0.92213(18)
H8 H 0.3337 0.8485 0.9709
C10 C 0.51417(19) 0.6809(2) 0.81345(19)
H9 H 0.4655 0.6988 0.7848
C11 C 0.6550(2) 0.6213(2) 0.89412(19)
H10 H 0.7022 0.5999 0.9226
C12 C 0.5744(2) 0.6261(2) 0.78296(18)
H11 H 0.5651 0.6081 0.7327
C14 C 0.4462(2) 0.8608(2) 0.81374(19)
H12 H 0.4956 0.8399 0.7877
C16 C 0.3958(2) 0.9232(2) 0.78165(19)
H13 H 0.4120 0.9427 0.7332
N3 N 0.64573(16) 0.59642(16) 0.82024(15)
Cd3 Cd 0.767916(15) 0.553700(16) 0.750382(11)
C3_2 C 0.98121(19) 0.43901(19) 0.05385(19)
H2_2 H 0.9684 0.3980 0.0901
O1_2 O 0.81772(13) 0.47562(14) 0.85904(13)
O2_2 O 0.88621(14) 0.59407(13) 0.83433(12)
N1_2 N 0.67554(17) 0.45811(16) 0.68415(15)
C1_2 C 0.57689(19) 0.32883(18) 0.61458(17)
C2_2 C 0.92481(19) 0.45082(18) 0.99205(18)
H1_2 H 0.8744 0.4175 0.9869
O3_2 O 0.89264(14) 0.46689(15) 0.68689(13)
O4_2 O 0.83430(13) 0.58072(13) 0.63601(12)
C5_2 C 0.47277(19) 0.20923(19) 0.61180(18)
C6_2 C 0.40184(19) 0.17655(19) 0.57076(18)
H4_2 H 0.3928 0.1919 0.5198
N2_2 N 0.52994(16) 0.26667(16) 0.57731(16)
H5_2 H 0.5366 0.2631 0.5283
C8_2 C 0.6945(2) 0.4289(2) 0.61384(19)
H7_2 H 0.7420 0.4531 0.5877
C9_2 C 0.64909(19) 0.36620(19) 0.57787(18)
H8_2 H 0.6663 0.3485 0.5291
C10_2 C 0.48583(19) 0.1809(2) 0.68655(19)
H9_2 H 0.5345 0.1988 0.7152
C11_2 C 0.3450(2) 0.1213(2) 0.60588(19)
H10_2 H 0.2978 0.0999 0.5774
C12_2 C 0.4256(2) 0.1261(2) 0.71704(18)
H11_2 H 0.4349 0.1081 0.7673
C13_2 C 0.8787(2) 0.52804(19) 0.87296(18)
C14_2 C 0.5538(2) 0.3608(2) 0.68626(19)
H12_2 H 0.5044 0.3399 0.7123
C15_2 C 0.88801(19) 0.5198(2) 0.63387(18)
C16_2 C 0.6042(2) 0.4232(2) 0.71835(19)
H13_2 H 0.5880 0.4427 0.7668
C17_2 C 0.94265(18) 0.51180(19) 0.93769(17)
C18_2 C 0.94578(18) 0.50978(18) 0.56404(17)
O5_2 O 0.76304(19) 0.7170(2) 0.7405(2)
H14_2 H 0.7180 0.7321 0.7133
H15_2 H 0.763(4) 0.738(4) 0.782(3)
C23_2 C 0.98292(18) 0.54621(19) 0.43394(19)
H18_2 H 0.9717 0.5773 0.3898
C24_2 C 0.9289(2) 0.55517(19) 0.49831(18)
H19_2 H 0.8811 0.5921 0.4970
O8 O 0.89264(14) 0.03311(15) 0.18689(13)
O6 O 0.81772(13) 0.02438(14) 0.35904(13)
C19 C 0.92481(19) 0.04918(18) 0.49205(18)
H16 H 0.8744 0.0825 0.4869
C20 C 0.98121(19) 0.06099(19) 0.55385(19)
H17 H 0.9684 0.1020 0.5901
N4 N 0.67554(17) 0.04189(16) 0.18415(15)
C27 C 0.57689(19) 0.17117(18) 0.11458(17)
C28 C 0.47277(19) 0.29077(19) 0.11180(18)
C29 C 0.40184(19) 0.32345(19) 0.07076(18)
H20 H 0.3928 0.3081 0.0198
N5 N 0.52994(16) 0.23333(16) 0.07731(16)
H21 H 0.5366 0.2369 0.0283
C30 C 0.6945(2) 0.0711(2) 0.11384(19)
H22 H 0.7420 0.0469 0.0877
C31 C 0.64909(19) 0.13380(19) 0.07787(18)
H23 H 0.6663 0.1515 0.0291
C32 C 0.48583(19) 0.3191(2) 0.18655(19)
H24 H 0.5345 0.3012 0.2152
C33 C 0.3450(2) 0.3787(2) 0.10588(19)
H25 H 0.2978 0.4001 0.0774
C34 C 0.4256(2) 0.3739(2) 0.21704(18)
H26 H 0.4349 0.3919 0.2673
C35 C 0.5538(2) 0.1392(2) 0.18626(19)
H27 H 0.5044 0.1601 0.2123
C36 C 0.6042(2) 0.0768(2) 0.21835(19)
H28 H 0.5880 0.0573 0.2668
N6 N 0.35427(16) 0.40358(16) 0.17976(15)
Cd5 Cd 0.232084(15) 0.446300(16) 0.249618(11)
O9 O 0.83430(13) 0.91928(13) 0.13601(12)
C25 C 0.88801(19) 0.9802(2) 0.13387(18)
C26 C 0.94578(18) 0.99022(18) 0.06404(17)
Cd4 Cd 0.767916(15) 0.946300(16) 0.250382(11)
C4 C 0.98292(18) 0.95379(19) 0.93394(19)
H3 H 0.9717 0.9227 0.8898
C7 C 0.9289(2) 0.94483(19) 0.99831(18)
H6 H 0.8811 0.9079 0.9970
O7 O 0.88621(14) 0.90593(13) 0.33433(12)
C21 C 0.8787(2) 0.97196(19) 0.37296(18)
C22 C 0.94265(18) 0.98820(19) 0.43769(17)
O10 O 0.76304(19) 0.7830(2) 0.2405(2)
H29 H 0.7180 0.7679 0.2133
H30 H 0.763(4) 0.762(4) 0.282(3)
N8 N 0.64573(16) 0.90358(16) 0.32024(15)
O6_2 O 0.18228(13) 0.52438(14) 0.14096(13)
O7_2 O 0.11379(14) 0.40593(13) 0.16567(12)
C19_2 C 0.07519(19) 0.54918(18) 0.00795(18)
H16_2 H 0.1256 0.5825 0.0131
C21_2 C 0.1213(2) 0.47196(19) 0.12704(18)
C22_2 C 0.05735(18) 0.48820(19) 0.06231(17)
N4_2 N 0.32446(17) 0.54189(16) 0.31585(15)
C27_2 C 0.42311(19) 0.67117(18) 0.38542(17)
C28_2 C 0.52723(19) 0.79077(19) 0.38820(18)
C29_2 C 0.59816(19) 0.82345(19) 0.42924(18)
H20_2 H 0.6072 0.8081 0.4802
N5_2 N 0.47006(16) 0.73333(16) 0.42269(16)
H21_2 H 0.4634 0.7369 0.4717
C30_2 C 0.3055(2) 0.5711(2) 0.38616(19)
H22_2 H 0.2580 0.5469 0.4123
C31_2 C 0.35091(19) 0.63380(19) 0.42213(18)
H23_2 H 0.3337 0.6515 0.4709
C32_2 C 0.51417(19) 0.8191(2) 0.31345(19)
H24_2 H 0.4655 0.8012 0.2848
C33_2 C 0.6550(2) 0.8787(2) 0.39412(19)
H25_2 H 0.7022 0.9001 0.4226
C34_2 C 0.5744(2) 0.8739(2) 0.28296(18)
H26_2 H 0.5651 0.8919 0.2327
C35_2 C 0.4462(2) 0.6392(2) 0.31374(19)
H27_2 H 0.4956 0.6601 0.2877
C36_2 C 0.3958(2) 0.5768(2) 0.28165(19)
H28_2 H 0.4120 0.5573 0.2332
O10_2 O 0.23696(19) 0.2830(2) 0.2595(2)
H29_2 H 0.2820 0.2679 0.2867
H30_2 H 0.237(4) 0.262(4) 0.218(3)
O11 O 0.10736(14) 0.53311(15) 0.31311(13)
O12 O 0.16570(13) 0.41928(13) 0.36399(12)
C4_2 C 0.01708(18) 0.45379(19) 0.56606(19)
H3_2 H 0.0283 0.4227 0.6102
C7_2 C 0.0711(2) 0.44483(19) 0.50169(18)
H6_2 H 0.1189 0.4079 0.5030
C20_2 C 0.01879(19) 0.56099(19) 0.94615(19)
H17_2 H 0.0316 0.6020 0.9099
C25_2 C 0.11199(19) 0.4802(2) 0.36613(18)
C26_2 C 0.05422(18) 0.49022(18) 0.43596(17)
C28_3 C 0.02723(19) 0.70923(19) 0.61180(18)
C29_3 C 0.09816(19) 0.67655(19) 0.57076(18)
H20_3 H 0.1072 0.6919 0.5198
C32_3 C 0.01417(19) 0.6809(2) 0.68655(19)
C33_3 C 0.1550(2) 0.6213(2) 0.60588(19)
H25_3 H 0.2022 0.5999 0.5774
C34_3 C 0.0744(2) 0.6261(2) 0.71704(18)
H26_3 H 0.0651 0.6081 0.7673
N6_2 N 0.14573(16) 0.59642(16) 0.67976(15)
Cd5_2 Cd 0.267916(15) 0.553700(16) 0.749618(11)
C5_3 C 0.97277(19) 0.29077(19) 0.38820(18)
C6_3 C 0.90184(19) 0.32345(19) 0.42924(18)
H4_3 H 0.8928 0.3081 0.4802
C10_3 C 0.98583(19) 0.3191(2) 0.31345(19)
C11_3 C 0.8450(2) 0.3787(2) 0.39412(19)
H10_3 H 0.7978 0.4001 0.4226
C12_3 C 0.9256(2) 0.3739(2) 0.28296(18)
H11_3 H 0.9349 0.3919 0.2327
N3_2 N 0.85427(16) 0.40358(16) 0.32024(15)
Cd3_2 Cd 0.732084(15) 0.446300(16) 0.250382(11)
O1_3 O 0.68228(13) 0.52438(14) 0.35904(13)
O2_3 O 0.61379(14) 0.40593(13) 0.33433(12)
N1_3 N 0.82446(17) 0.54189(16) 0.18415(15)
C1_3 C 0.92311(19) 0.67117(18) 0.11458(17)
C2_3 C 0.57519(19) 0.54918(18) 0.49205(18)
H1_3 H 0.6256 0.5825 0.4869
O3_3 O 0.60736(14) 0.53311(15) 0.18689(13)
C3_3 C 0.51879(19) 0.56099(19) 0.55385(19)
H2_3 H 0.5316 0.6020 0.5901
C4_3 C 0.48292(18) 0.54621(19) 0.06606(19)
H3_3 H 0.4717 0.5773 0.1102
O4_3 O 0.66570(13) 0.41928(13) 0.13601(12)
N2_3 N 0.97006(16) 0.73333(16) 0.07731(16)
H5_3 H 0.9634 0.7369 0.0283
C7_3 C 0.4289(2) 0.55517(19) 0.00169(18)
H6_3 H 0.3811 0.5921 0.0030
C8_3 C 0.8055(2) 0.5711(2) 0.11384(19)
H7_3 H 0.7580 0.5469 0.0877
C9_3 C 0.85091(19) 0.63380(19) 0.07787(18)
H8_3 H 0.8337 0.6515 0.0291
H9_3 H 0.9655 0.8012 0.2152
C13_3 C 0.6213(2) 0.47196(19) 0.37296(18)
C14_3 C 0.9462(2) 0.6392(2) 0.18626(19)
H12_3 H 0.9956 0.6601 0.2123
C15_3 C 0.61199(19) 0.4802(2) 0.13387(18)
C16_3 C 0.8958(2) 0.5768(2) 0.21835(19)
H13_3 H 0.9120 0.5573 0.2668
C17_3 C 0.55735(18) 0.48820(19) 0.43769(17)
C18_3 C 0.55422(18) 0.49022(18) 0.06404(17)
O5_3 O 0.73696(19) 0.2830(2) 0.2405(2)
H14_3 H 0.7820 0.2679 0.2133
H15_3 H 0.737(4) 0.262(4) 0.282(3)
O6_3 O 0.31772(13) 0.47562(14) 0.64096(13)
O7_3 O 0.38621(14) 0.59407(13) 0.66567(12)
C19_3 C 0.42481(19) 0.45082(18) 0.50795(18)
H16_3 H 0.3744 0.4175 0.5131
C20_3 C 0.48121(19) 0.43901(19) 0.44615(19)
H17_3 H 0.4684 0.3980 0.4099
C21_3 C 0.3787(2) 0.52804(19) 0.62704(18)
C22_3 C 0.44265(18) 0.51180(19) 0.56231(17)
N4_3 N 0.17554(17) 0.45811(16) 0.81585(15)
C27_3 C 0.07689(19) 0.32883(18) 0.88542(17)
N5_3 N 0.02994(16) 0.26667(16) 0.92269(16)
H21_3 H 0.0366 0.2631 0.9717
C30_3 C 0.1945(2) 0.4289(2) 0.88616(19)
H22_3 H 0.2420 0.4531 0.9123
C31_3 C 0.14909(19) 0.36620(19) 0.92213(18)
H23_3 H 0.1663 0.3485 0.9709
H24_3 H 0.0345 0.1988 0.7848
C35_3 C 0.0538(2) 0.3608(2) 0.81374(19)
H27_3 H 0.0044 0.3399 0.7877
C36_3 C 0.1042(2) 0.4232(2) 0.78165(19)
H28_3 H 0.0880 0.4427 0.7332
O10_3 O 0.26304(19) 0.7170(2) 0.7595(2)
H29_3 H 0.2180 0.7321 0.7867
H30_3 H 0.263(4) 0.738(4) 0.718(3)
O11_2 O 0.39264(14) 0.46689(15) 0.81311(13)
O12_2 O 0.33430(13) 0.58072(13) 0.86399(12)
C23_3 C 0.51708(18) 0.45379(19) 0.93394(19)
H18_3 H 0.5283 0.4227 0.8898
C24_3 C 0.5711(2) 0.44483(19) 0.99831(18)
H19_3 H 0.6189 0.4079 0.9970
C25_3 C 0.38801(19) 0.5198(2) 0.86613(18)
C26_3 C 0.44578(18) 0.50978(18) 0.93596(17)
O1_4 O 0.31772(13) 0.02438(14) 0.14096(13)
N1_4 N 0.17554(17) 0.04189(16) 0.31585(15)
C1_4 C 0.07689(19) 0.17117(18) 0.38542(17)
C2_4 C 0.42481(19) 0.04918(18) 0.00795(18)
H1_4 H 0.3744 0.0825 0.0131
O3_4 O 0.39264(14) 0.03311(15) 0.31311(13)
C4_4 C 0.51708(18) 0.04621(19) 0.43394(19)
H3_4 H 0.5283 0.0773 0.3898
N2_4 N 0.02994(16) 0.23333(16) 0.42269(16)
H5_4 H 0.0366 0.2369 0.4717
C7_4 C 0.5711(2) 0.05517(19) 0.49831(18)
H6_4 H 0.6189 0.0921 0.4970
C8_4 C 0.1945(2) 0.0711(2) 0.38616(19)
H7_4 H 0.2420 0.0469 0.4123
C9_4 C 0.14909(19) 0.13380(19) 0.42213(18)
H8_4 H 0.1663 0.1515 0.4709
H9_4 H 0.0345 0.3012 0.2848
C14_4 C 0.0538(2) 0.1392(2) 0.31374(19)
H12_4 H 0.0044 0.1601 0.2877
C16_4 C 0.1042(2) 0.0768(2) 0.28165(19)
H13_4 H 0.0880 0.0573 0.2332
O9_2 O 0.66570(13) 0.08072(13) 0.63601(12)
C25_4 C 0.61199(19) 0.0198(2) 0.63387(18)
C26_4 C 0.55422(18) 0.00978(18) 0.56404(17)
Cd4_2 Cd 0.732084(15) 0.053700(16) 0.750382(11)
C3_4 C 0.48121(19) 0.06099(19) 0.94615(19)
H2_4 H 0.4684 0.1020 0.9099
O7_4 O 0.61379(14) 0.09407(13) 0.83433(12)
C21_4 C 0.6213(2) 0.02804(19) 0.87296(18)
C22_4 C 0.55735(18) 0.01180(19) 0.93769(17)
O10_4 O 0.73696(19) 0.2170(2) 0.7405(2)
H29_4 H 0.7820 0.2321 0.7133
H30_4 H 0.737(4) 0.238(4) 0.782(3)
N8_2 N 0.85427(16) 0.09642(16) 0.82024(15)
C28_4 C 0.97277(19) 0.20923(19) 0.88820(18)
C29_4 C 0.90184(19) 0.17655(19) 0.92924(18)
H20_4 H 0.8928 0.1919 0.9802
C32_4 C 0.98583(19) 0.1809(2) 0.81345(19)
C33_4 C 0.8450(2) 0.1213(2) 0.89412(19)
H25_4 H 0.7978 0.0999 0.9226
C34_4 C 0.9256(2) 0.1261(2) 0.78296(18)
H26_4 H 0.9349 0.1081 0.7327
Cd1_2 Cd 0.267916(15) 0.946300(16) 0.249618(11)
O2_4 O 0.38621(14) 0.90593(13) 0.16567(12)
O4_4 O 0.33430(13) 0.91928(13) 0.36399(12)
C13_4 C 0.3787(2) 0.97196(19) 0.12704(18)
C15_4 C 0.38801(19) 0.9802(2) 0.36613(18)
C17_4 C 0.44265(18) 0.98820(19) 0.06231(17)
C18_4 C 0.44578(18) 0.99022(18) 0.43596(17)
O5_4 O 0.26304(19) 0.7830(2) 0.2595(2)
H14_4 H 0.2180 0.7679 0.2867
H15_4 H 0.263(4) 0.762(4) 0.218(3)
C20_4 C 0.51879(19) 0.93901(19) 0.05385(19)
H17_4 H 0.5316 0.8980 0.0901
O8_2 O 0.60736(14) 0.96689(15) 0.68689(13)
C23_4 C 0.48292(18) 0.95379(19) 0.56606(19)
H18_4 H 0.4717 0.9227 0.6102
C24_4 C 0.4289(2) 0.94483(19) 0.50169(18)
H19_4 H 0.3811 0.9079 0.5030
N7_2 N 0.14573(16) 0.90358(16) 0.17976(15)
O6_4 O 0.68228(13) 0.97562(14) 0.85904(13)
C19_4 C 0.57519(19) 0.95082(18) 0.99205(18)
H16_4 H 0.6256 0.9175 0.9869
N4_4 N 0.82446(17) 0.95811(16) 0.68415(15)
C27_4 C 0.92311(19) 0.82883(18) 0.61458(17)
N5_4 N 0.97006(16) 0.76667(16) 0.57731(16)
H21_4 H 0.9634 0.7631 0.5283
C30_4 C 0.8055(2) 0.9289(2) 0.61384(19)
H22_4 H 0.7580 0.9531 0.5877
C31_4 C 0.85091(19) 0.86620(19) 0.57787(18)
H23_4 H 0.8337 0.8485 0.5291
H24_4 H 0.9655 0.6988 0.7152
C35_4 C 0.9462(2) 0.8608(2) 0.68626(19)
H27_4 H 0.9956 0.8399 0.7123
C36_4 C 0.8958(2) 0.9232(2) 0.71835(19)
H28_4 H 0.9120 0.9427 0.7668
C5_4 C 0.02723(19) 0.79077(19) 0.11180(18)
C6_4 C 0.09816(19) 0.82345(19) 0.07076(18)
H4_4 H 0.1072 0.8081 0.0198
C10_4 C 0.01417(19) 0.8191(2) 0.18655(19)
C11_4 C 0.1550(2) 0.8787(2) 0.10588(19)
H10_4 H 0.2022 0.9001 0.0774
C12_4 C 0.0744(2) 0.8739(2) 0.21704(18)
H11_4 H 0.0651 0.8919 0.2673
loop_
_geom_bond_atom_site_label_1
_geom_bond_atom_site_label_2
_geom_bond_site_symmetry_1
_geom_bond_site_symmetry_2
C23 H18 1_555 1_555
H19 C24 1_555 1_555
C23 C24 1_555 1_555
O2 Cd1 1_555 1_555
O4 Cd1 1_555 1_555
C13 O2 1_555 1_555
O5 Cd1 1_555 1_555
H14 O5 1_555 1_555
H15 O5 1_555 1_555
N7 Cd1 1_555 1_555
O4 C15 1_555 1_555
C13 C17 1_555 1_555
C15 C18 1_555 1_555
C1 N2 1_555 1_555
C2 H1 1_555 1_555
C3 C2 1_555 1_555
H2 C3 1_555 1_555
C5 C6 1_555 1_555
C6 H4 1_555 1_555
N2 C5 1_555 1_555
H5 N2 1_555 1_555
C8 N1 1_555 1_555
H7 C8 1_555 1_555
C9 C1 1_555 1_555
H8 C9 1_555 1_555
C10 C5 1_555 1_555
H9 C10 1_555 1_555
C11 C6 1_555 1_555
H10 C11 1_555 1_555
C12 C10 1_555 1_555
H11 C12 1_555 1_555
C14 C1 1_555 1_555
H12 C14 1_555 1_555
C16 N1 1_555 1_555
H13 C16 1_555 1_555
N3 C11 1_555 1_555
Cd3 N3 1_555 1_555
C8 C9 1_555 1_555
C12 N3 1_555 1_555
C14 C16 1_555 1_555
H2_2 C3_2 1_555 1_555
Cd3 O1_2 1_555 1_555
O1_2 C13_2 1_555 1_555
O2_2 Cd3 1_555 1_555
N1_2 Cd3 1_555 1_555
C1_2 N2_2 1_555 1_555
C2_2 H1_2 1_555 1_555
O3_2 Cd3 1_555 1_555
O4_2 Cd3 1_555 1_555
C5_2 C6_2 1_555 1_555
C6_2 H4_2 1_555 1_555
N2_2 C5_2 1_555 1_555
H5_2 N2_2 1_555 1_555
C8_2 N1_2 1_555 1_555
H7_2 C8_2 1_555 1_555
C9_2 C1_2 1_555 1_555
H8_2 C9_2 1_555 1_555
C10_2 C5_2 1_555 1_555
H9_2 C10_2 1_555 1_555
C11_2 C6_2 1_555 1_555
H10_2 C11_2 1_555 1_555
C12_2 C10_2 1_555 1_555
H11_2 C12_2 1_555 1_555
C13_2 O2_2 1_555 1_555
C14_2 C1_2 1_555 1_555
H12_2 C14_2 1_555 1_555
C15_2 O3_2 1_555 1_555
C16_2 N1_2 1_555 1_555
H13_2 C16_2 1_555 1_555
C17_2 C2_2 1_555 1_555
O5_2 Cd3 1_555 1_555
H14_2 O5_2 1_555 1_555
N7 C11_2 1_555 1_555
H15_2 O5_2 1_555 1_555
C23_2 H18_2 1_555 1_555
C24_2 C18_2 1_555 1_555
H19_2 C24_2 1_555 1_555
O4_2 C15_2 1_555 1_555
C8_2 C9_2 1_555 1_555
C12_2 N7 1_555 1_555
C13_2 C17_2 1_555 1_555
C14_2 C16_2 1_555 1_555
C15_2 C18_2 1_555 1_555
C23_2 C24_2 1_555 1_555
C19 H16 1_555 1_555
H17 C20 1_555 1_555
C27 N5 1_555 1_555
C28 C29 1_555 1_555
C29 H20 1_555 1_555
N5 C28 1_555 1_555
H21 N5 1_555 1_555
C30 N4 1_555 1_555
H22 C30 1_555 1_555
C31 C27 1_555 1_555
H23 C31 1_555 1_555
C32 C28 1_555 1_555
H24 C32 1_555 1_555
C33 C29 1_555 1_555
H25 C33 1_555 1_555
C34 C32 1_555 1_555
H26 C34 1_555 1_555
C35 C27 1_555 1_555
H27 C35 1_555 1_555
C36 N4 1_555 1_555
H28 C36 1_555 1_555
N6 C33 1_555 1_555
Cd5 N6 1_555 1_555
C19 C20 1_555 1_555
C30 C31 1_555 1_555
C34 N6 1_555 1_555
C35 C36 1_555 1_555
O9 C25 1_555 1_555
C25 C26 1_555 1_555
O9 Cd4 1_555 1_555
C4 H3 1_555 1_555
C7 C4 1_555 1_555
H6 C7 1_555 1_555
O7 C21 1_555 1_555
C21 C22 1_555 1_555
O10 Cd4 1_555 1_555
H29 O10 1_555 1_555
H30 O10 1_555 1_555
N8 Cd4 1_555 1_555
O7 Cd4 1_555 1_555
O6_2 C21_2 1_555 1_555
O7_2 C21_2 1_555 1_555
C19_2 H16_2 1_555 1_555
C21_2 C22_2 1_555 1_555
Cd5 O6_2 1_555 1_555
N4_2 Cd5 1_555 1_555
C27_2 N5_2 1_555 1_555
C28_2 C29_2 1_555 1_555
C29_2 H20_2 1_555 1_555
N5_2 C28_2 1_555 1_555
H21_2 N5_2 1_555 1_555
C30_2 N4_2 1_555 1_555
H22_2 C30_2 1_555 1_555
C31_2 C27_2 1_555 1_555
H23_2 C31_2 1_555 1_555
C32_2 C28_2 1_555 1_555
H24_2 C32_2 1_555 1_555
C33_2 C29_2 1_555 1_555
H25_2 C33_2 1_555 1_555
C34_2 C32_2 1_555 1_555
H26_2 C34_2 1_555 1_555
C35_2 C27_2 1_555 1_555
H27_2 C35_2 1_555 1_555
C36_2 N4_2 1_555 1_555
H28_2 C36_2 1_555 1_555
O10_2 Cd5 1_555 1_555
H29_2 O10_2 1_555 1_555
N8 C33_2 1_555 1_555
H30_2 O10_2 1_555 1_555
O11 Cd5 1_555 1_555
O12 Cd5 1_555 1_555
O7_2 Cd5 1_555 1_555
C19_2 C22_2 1_555 1_555
C30_2 C31_2 1_555 1_555
C34_2 N8 1_555 1_555
C35_2 C36_2 1_555 1_555
C4_2 H3_2 1_555 1_555
C7_2 C4_2 1_555 1_555
H6_2 C7_2 1_555 1_555
H17_2 C20_2 1_555 1_555
O11 C25_2 1_555 1_555
O12 C25_2 1_555 1_555
C25_2 C26_2 1_555 1_555
C26_2 C7_2 1_555 1_555
C28_3 C29_3 1_555 1_555
C29_3 H20_3 1_555 1_555
C32_3 C28_3 1_555 1_555
C33_3 C29_3 1_555 1_555
H25_3 C33_3 1_555 1_555
C34_3 C32_3 1_555 1_555
H26_3 C34_3 1_555 1_555
N6_2 C33_3 1_555 1_555
Cd5_2 N6_2 1_555 1_555
C34_3 N6_2 1_555 1_555
C5_3 C6_3 1_555 1_555
C6_3 H4_3 1_555 1_555
C10_3 C5_3 1_555 1_555
C11_3 C6_3 1_555 1_555
H10_3 C11_3 1_555 1_555
C12_3 C10_3 1_555 1_555
H11_3 C12_3 1_555 1_555
N3_2 C11_3 1_555 1_555
Cd3_2 N3_2 1_555 1_555
C12_3 N3_2 1_555 1_555
Cd3_2 O1_3 1_555 1_555
O1_3 C13_3 1_555 1_555
O2_3 Cd3_2 1_555 1_555
N1_3 Cd3_2 1_555 1_555
C1_3 N2_3 1_555 1_555
C2_3 H1_3 1_555 1_555
O3_3 Cd3_2 1_555 1_555
C3_3 C2_3 1_555 1_555
H2_3 C3_3 1_555 1_555
C4_3 H3_3 1_555 1_555
O4_3 Cd3_2 1_555 1_555
H5_3 N2_3 1_555 1_555
C7_3 C4_3 1_555 1_555
H6_3 C7_3 1_555 1_555
C8_3 N1_3 1_555 1_555
H7_3 C8_3 1_555 1_555
C9_3 C1_3 1_555 1_555
H8_3 C9_3 1_555 1_555
C13_3 O2_3 1_555 1_555
C14_3 C1_3 1_555 1_555
H12_3 C14_3 1_555 1_555
C15_3 O3_3 1_555 1_555
C16_3 N1_3 1_555 1_555
H13_3 C16_3 1_555 1_555
C17_3 C2_3 1_555 1_555
C18_3 C4_3 1_555 1_555
O5_3 Cd3_2 1_555 1_555
H14_3 O5_3 1_555 1_555
H15_3 O5_3 1_555 1_555
O6_3 C21_3 1_555 1_555
O7_3 C21_3 1_555 1_555
C19_3 H16_3 1_555 1_555
C20_3 C17_3 1_555 1_555
H17_3 C20_3 1_555 1_555
C21_3 C22_3 1_555 1_555
C22_3 C3_3 1_555 1_555
Cd5_2 O6_3 1_555 1_555
N4_3 Cd5_2 1_555 1_555
C27_3 N5_3 1_555 1_555
H21_3 N5_3 1_555 1_555
C30_3 N4_3 1_555 1_555
H22_3 C30_3 1_555 1_555
C31_3 C27_3 1_555 1_555
H23_3 C31_3 1_555 1_555
C35_3 C27_3 1_555 1_555
H27_3 C35_3 1_555 1_555
C36_3 N4_3 1_555 1_555
H28_3 C36_3 1_555 1_555
O10_3 Cd5_2 1_555 1_555
H29_3 O10_3 1_555 1_555
H30_3 O10_3 1_555 1_555
O11_2 Cd5_2 1_555 1_555
O12_2 Cd5_2 1_555 1_555
O4_3 C15_3 1_555 1_555
C8_3 C9_3 1_555 1_555
C13_3 C17_3 1_555 1_555
C14_3 C16_3 1_555 1_555
C15_3 C18_3 1_555 1_555
O7_3 Cd5_2 1_555 1_555
C19_3 C20_3 1_555 1_555
C19_3 C22_3 1_555 1_555
C30_3 C31_3 1_555 1_555
C35_3 C36_3 1_555 1_555
O11_2 C25_3 1_555 1_555
C23_3 H18_3 1_555 1_555
O12_2 C25_3 1_555 1_555
H19_3 C24_3 1_555 1_555
C25_3 C26_3 1_555 1_555
C23_3 C24_3 1_555 1_555
C23_3 C26_3 1_555 1_555
C1_4 N2_4 1_555 1_555
C2_4 H1_4 1_555 1_555
C4_4 H3_4 1_555 1_555
H5_4 N2_4 1_555 1_555
C7_4 C4_4 1_555 1_555
H6_4 C7_4 1_555 1_555
C8_4 N1_4 1_555 1_555
H7_4 C8_4 1_555 1_555
C9_4 C1_4 1_555 1_555
H8_4 C9_4 1_555 1_555
C14_4 C1_4 1_555 1_555
H12_4 C14_4 1_555 1_555
C16_4 N1_4 1_555 1_555
H13_4 C16_4 1_555 1_555
O9_2 C25_4 1_555 1_555
C25_4 C26_4 1_555 1_555
C26_4 C7_4 1_555 1_555
C8_4 C9_4 1_555 1_555
C14_4 C16_4 1_555 1_555
O9_2 Cd4_2 1_555 1_555
H2_4 C3_4 1_555 1_555
O7_4 C21_4 1_555 1_555
C21_4 C22_4 1_555 1_555
C22_4 C3_4 1_555 1_555
O10_4 Cd4_2 1_555 1_555
H29_4 O10_4 1_555 1_555
H30_4 O10_4 1_555 1_555
N8_2 Cd4_2 1_555 1_555
O7_4 Cd4_2 1_555 1_555
C28_4 C29_4 1_555 1_555
C29_4 H20_4 1_555 1_555
C32_4 C28_4 1_555 1_555
C33_4 C29_4 1_555 1_555
H25_4 C33_4 1_555 1_555
C34_4 C32_4 1_555 1_555
H26_4 C34_4 1_555 1_555
N8_2 C33_4 1_555 1_555
C34_4 N8_2 1_555 1_555
O2_4 Cd1_2 1_555 1_555
O4_4 Cd1_2 1_555 1_555
C13_4 O2_4 1_555 1_555
O5_4 Cd1_2 1_555 1_555
H14_4 O5_4 1_555 1_555
H15_4 O5_4 1_555 1_555
C20_4 C17_4 1_555 1_555
H17_4 C20_4 1_555 1_555
C23_4 H18_4 1_555 1_555
C24_4 C18_4 1_555 1_555
H19_4 C24_4 1_555 1_555
N7_2 Cd1_2 1_555 1_555
O4_4 C15_4 1_555 1_555
C13_4 C17_4 1_555 1_555
C15_4 C18_4 1_555 1_555
C23_4 C24_4 1_555 1_555
C19_4 H16_4 1_555 1_555
C27_4 N5_4 1_555 1_555
H21_4 N5_4 1_555 1_555
C30_4 N4_4 1_555 1_555
H22_4 C30_4 1_555 1_555
C31_4 C27_4 1_555 1_555
H23_4 C31_4 1_555 1_555
C35_4 C27_4 1_555 1_555
H27_4 C35_4 1_555 1_555
C36_4 N4_4 1_555 1_555
H28_4 C36_4 1_555 1_555
C30_4 C31_4 1_555 1_555
C35_4 C36_4 1_555 1_555
C5_4 C6_4 1_555 1_555
C6_4 H4_4 1_555 1_555
C10_4 C5_4 1_555 1_555
C11_4 C6_4 1_555 1_555
H10_4 C11_4 1_555 1_555
C12_4 C10_4 1_555 1_555
H11_4 C12_4 1_555 1_555
N7_2 C11_4 1_555 1_555
C12_4 N7_2 1_555 1_555

#END
