
###############################################################################
#
# This file contains modified crystal structure data generated from the
# MOF subset of the Cambridge Structural Database (CSD) v543 
# hosted by the Cambridge Crystallographic Data Centre (CCDC).
#
# This work is licensed under the Creative Commons
# Attribution-NonCommercial-ShareAlike 4.0 International License.
# To view a copy of this license, visit
# http://creativecommons.org/licenses/by-nc-sa/4.0/
# or send a letter to
# Creative Commons, PO Box 1866, Mountain View, CA 94042, USA.
#
# CIF created using the CSD Python API on 29 September 2022
# The structure has been converted into the P1 space group
# The structure has a 3D framework
# The original CSD entry YELTER is in the monoclinic crystal system
# The framework has been calculated to contain at least 10.0% void space
# The void calculation uses a probe of radius 1.32A, grid spacing 0.4
#
###############################################################################

data_YELTER
_chemical_formula_moiety         '(C192 H144 Cd8 N24 O32 S8)n'
_symmetry_cell_setting           triclinic
_symmetry_space_group_name_H-M   'P 1'
_symmetry_Int_Tables_number      1
_space_group_name_Hall           'P 1'
loop_
_symmetry_equiv_pos_site_id
_symmetry_equiv_pos_as_xyz
1 x,y,z
_cell_length_a                   16.743(3)
_cell_length_b                   19.961(4)
_cell_length_c                   14.608(3)
_cell_angle_alpha                90
_cell_angle_beta                 93.23(3)
_cell_angle_gamma                90
_cell_volume                     4874.34
loop_
_atom_site_label
_atom_site_type_symbol
_atom_site_fract_x
_atom_site_fract_y
_atom_site_fract_z
Cd1 Cd 0.17823(4) 0.28990(4) 0.58642(4)
N1 N 0.0526(6) 0.3664(6) 0.5986(7)
N2 N 0.0641(5) 0.2298(6) 0.6086(6)
C1 C 0.0504(7) 0.1627(6) 0.6103(7)
C2 C 0.1039(7) 0.1085(7) 0.5915(10)
H1 H 0.1568 0.1150 0.5770
C3 C 0.0701(11) 0.0469(7) 0.5970(13)
H2 H 0.1003 0.0095 0.5834
C14 C 0.0428(8) 0.4286(7) 0.6013(9)
H10 H 0.0825 0.4585 0.5857
C17 C 0.3056(6) 0.1984(5) 0.6277(6)
C18 C 0.3598(8) 0.1389(7) 0.6546(9)
H13 H 0.3545 0.1054 0.6066
H14 H 0.4149 0.1541 0.6583
C19 C 0.3420(6) 0.1069(5) 0.7440(8)
C20 C 0.3728(9) 0.1305(6) 0.8260(10)
H15 H 0.4111 0.1644 0.8279
C21 C 0.3460(13) 0.1030(8) 0.9089(9)
H16 H 0.3632 0.1210 0.9653
C22 C 0.2950(12) 0.0500(8) 0.9040(11)
H17 H 0.2790 0.0306 0.9579
C23 C 0.2674(8) 0.0254(7) 0.8236(10)
C24 C 0.2894(7) 0.0549(6) 0.7465(8)
H18 H 0.2672 0.0389 0.6910
O1 O 0.3255(6) 0.2347(4) 0.5632(5)
O2 O 0.2451(4) 0.2055(4) 0.6666(5)
Cd6 Cd 0.32177(4) 0.21010(4) 0.41358(4)
O10 O 0.1745(6) 0.2653(4) 0.4368(5)
O11 O 0.2216(6) 0.3615(5) 0.7083(6)
O13 O 0.2380(5) 0.3914(4) 0.5633(7)
C15 C 0.2514(6) 0.9004(7) 0.8493(11)
C16 C 0.2089(9) 0.9663(8) 0.8239(15)
H11 H 0.1686 0.9752 0.8674
H12 H 0.1821 0.9620 0.7636
O3 O 0.2784(6) 0.8615(5) 0.7917(6)
O4 O 0.2620(5) 0.8914(4) 0.9367(7)
Cd4 Cd 0.32177(4) 0.78990(4) 0.91358(4)
N3 N 0.9392(5) 0.2160(6) 0.6442(6)
C4 C 0.9971(11) 0.0381(9) 0.6204(13)
C5 C 0.9438(9) 0.0880(8) 0.6394(11)
H4 H 0.8917 0.0794 0.6553
C6 C 0.9730(6) 0.1489(6) 0.6330(8)
C7 C 0.8561(5) 0.2258(7) 0.6616(7)
H5 H 0.8519 0.2633 0.7032
H6 H 0.8369 0.1862 0.6922
C8 C 0.8022(5) 0.2389(7) 0.5762(6)
C9 C 0.8197(6) 0.2148(7) 0.4909(7)
H7 H 0.8670 0.1913 0.4847
C10 C 0.7681(6) 0.2250(7) 0.4142(7)
H8 H 0.7803 0.2079 0.3574
C11 C 0.9982(5) 0.2583(6) 0.6266(6)
C12 C 0.9898(7) 0.3321(7) 0.6252(6)
C13 C 0.9272(7) 0.3717(8) 0.6487(7)
H9 H 0.8788 0.3564 0.6689
S1 S 0.9533(2) 0.4551(2) 0.6348(3)
N4 N 0.4474(6) 0.1336(6) 0.4014(7)
N5 N 0.4359(5) 0.2702(6) 0.3914(6)
N6 N 0.5608(5) 0.2840(6) 0.3558(6)
C25 C 0.4496(7) 0.3373(6) 0.3897(7)
C26 C 0.3961(7) 0.3915(7) 0.4085(10)
H19 H 0.3432 0.3850 0.4230
C27 C 0.4299(11) 0.4531(7) 0.4030(13)
H20 H 0.3997 0.4905 0.4166
C28 C 0.5029(11) 0.4619(9) 0.3796(13)
H21 H 0.5207 0.5059 0.3753
C29 C 0.5562(9) 0.4120(8) 0.3606(11)
H22 H 0.6083 0.4206 0.3447
C30 C 0.5270(6) 0.3511(6) 0.3670(8)
C31 C 0.6439(5) 0.2742(7) 0.3384(7)
H23 H 0.6481 0.2367 0.2968
H24 H 0.6631 0.3138 0.3078
C32 C 0.6978(5) 0.2611(7) 0.4238(6)
C33 C 0.6803(6) 0.2852(7) 0.5091(7)
H25 H 0.6330 0.3087 0.5153
C34 C 0.7319(6) 0.2750(7) 0.5858(7)
H26 H 0.7197 0.2921 0.6426
C35 C 0.5018(5) 0.2417(6) 0.3734(6)
C36 C 0.5102(7) 0.1679(7) 0.3748(6)
C37 C 0.5728(7) 0.1283(8) 0.3513(7)
H27 H 0.6212 0.1436 0.3311
C38 C 0.4572(8) 0.0714(7) 0.3987(9)
H28 H 0.4175 0.0415 0.4143
S2 S 0.5467(2) 0.0449(2) 0.3652(3)
C39 C 0.2486(6) 0.5996(7) 0.1507(11)
C40 C 0.2911(9) 0.5337(8) 0.1761(15)
H29 H 0.3314 0.5248 0.1326
H30 H 0.3179 0.5380 0.2364
C41 C 0.1944(6) 0.3016(5) 0.3723(6)
C42 C 0.1402(8) 0.3611(7) 0.3454(9)
H31 H 0.1455 0.3946 0.3934
H32 H 0.0851 0.3459 0.3417
C43 C 0.1580(6) 0.3931(5) 0.2560(8)
C44 C 0.1272(9) 0.3695(6) 0.1740(10)
H33 H 0.0889 0.3356 0.1721
C45 C 0.1540(13) 0.3970(8) 0.0911(9)
H34 H 0.1368 0.3790 0.0347
C46 C 0.2050(12) 0.4500(8) 0.0960(11)
H35 H 0.2210 0.4694 0.0421
C47 C 0.2326(8) 0.4746(7) 0.1764(10)
C48 C 0.2106(7) 0.4451(6) 0.2535(8)
H36 H 0.2328 0.4611 0.3090
O6 O 0.2549(4) 0.2945(4) 0.3334(5)
O7 O 0.2216(6) 0.6385(5) 0.2083(6)
O8 O 0.2380(5) 0.6086(4) 0.0633(7)
Cd5 Cd 0.17823(4) 0.71010(4) 0.08642(4)
O12 O 0.2784(6) 0.1385(5) 0.2917(6)
O14 O 0.2620(5) 0.1086(4) 0.4367(7)
C39_2 C 0.2514(6) 0.0996(7) 0.3493(11)
C40_2 C 0.2089(9) 0.0337(8) 0.3239(15)
H29_2 H 0.1686 0.0248 0.3674
H30_2 H 0.1821 0.0380 0.2636
N4_2 N 0.0526(6) 0.6336(6) 0.0986(7)
N5_2 N 0.0641(5) 0.7702(6) 0.1086(6)
C25_2 C 0.0504(7) 0.8373(6) 0.1103(7)
C26_2 C 0.1039(7) 0.8915(7) 0.0915(10)
H19_2 H 0.1568 0.8850 0.0770
C27_2 C 0.0701(11) 0.9531(7) 0.0970(13)
H20_2 H 0.1003 0.9905 0.0834
C38_2 C 0.0428(8) 0.5714(7) 0.1013(9)
H28_2 H 0.0825 0.5415 0.0857
C41_2 C 0.3056(6) 0.8016(5) 0.1277(6)
C42_2 C 0.3598(8) 0.8611(7) 0.1546(9)
H31_2 H 0.3545 0.8946 0.1066
H32_2 H 0.4149 0.8459 0.1583
C43_2 C 0.3420(6) 0.8931(5) 0.2440(8)
C44_2 C 0.3728(9) 0.8695(6) 0.3260(10)
H33_2 H 0.4111 0.8356 0.3279
C45_2 C 0.3460(13) 0.8970(8) 0.4089(9)
H34_2 H 0.3632 0.8790 0.4653
C46_2 C 0.2950(12) 0.9500(8) 0.4040(11)
H35_2 H 0.2790 0.9694 0.4579
C47_2 C 0.2674(8) 0.9746(7) 0.3236(10)
C48_2 C 0.2894(7) 0.9451(6) 0.2465(8)
H36_2 H 0.2672 0.9611 0.1910
O5 O 0.3255(6) 0.7653(4) 0.0632(5)
O6_2 O 0.2451(4) 0.7945(4) 0.1666(5)
O9 O 0.1745(6) 0.7347(4) 0.9368(5)
C9_2 C 0.6803(6) 0.7148(7) 0.0091(7)
H7_2 H 0.6330 0.6913 0.0153
C10_2 C 0.7319(6) 0.7250(7) 0.0858(7)
H8_2 H 0.7197 0.7079 0.1426
N6_2 N 0.9392(5) 0.7840(6) 0.1442(6)
C28_2 C 0.9971(11) 0.9619(9) 0.1204(13)
C29_2 C 0.9438(9) 0.9120(8) 0.1394(11)
H22_2 H 0.8917 0.9206 0.1553
C30_2 C 0.9730(6) 0.8511(6) 0.1330(8)
C31_2 C 0.8561(5) 0.7742(7) 0.1616(7)
H23_2 H 0.8519 0.7367 0.2032
H24_2 H 0.8369 0.8138 0.1922
C32_2 C 0.8022(5) 0.7611(7) 0.0762(6)
C35_2 C 0.9982(5) 0.7417(6) 0.1266(6)
C36_2 C 0.9898(7) 0.6679(7) 0.1252(6)
C37_2 C 0.9272(7) 0.6283(8) 0.1487(7)
H27_2 H 0.8788 0.6436 0.1689
S2_2 S 0.9533(2) 0.5449(2) 0.1348(3)
N1_2 N 0.4474(6) 0.8664(6) 0.9014(7)
N2_2 N 0.4359(5) 0.7298(6) 0.8914(6)
N3_2 N 0.5608(5) 0.7160(6) 0.8558(6)
C1_2 C 0.4496(7) 0.6627(6) 0.8897(7)
C2_2 C 0.3961(7) 0.6085(7) 0.9085(10)
H1_2 H 0.3432 0.6150 0.9230
C3_2 C 0.4299(11) 0.5469(7) 0.9030(13)
H2_2 H 0.3997 0.5095 0.9166
C4_2 C 0.5029(11) 0.5381(9) 0.8796(13)
H3 H 0.5207 0.4941 0.8753
C5_2 C 0.5562(9) 0.5880(8) 0.8606(11)
H4_2 H 0.6083 0.5794 0.8447
C6_2 C 0.5270(6) 0.6489(6) 0.8670(8)
C7_2 C 0.6439(5) 0.7258(7) 0.8384(7)
H5_2 H 0.6481 0.7633 0.7968
H6_2 H 0.6631 0.6862 0.8078
C8_2 C 0.6978(5) 0.7389(7) 0.9238(6)
C11_2 C 0.5018(5) 0.7583(6) 0.8734(6)
C12_2 C 0.5102(7) 0.8321(7) 0.8748(6)
C13_2 C 0.5728(7) 0.8717(8) 0.8513(7)
H9_2 H 0.6212 0.8564 0.8311
C14_2 C 0.4572(8) 0.9286(7) 0.8987(9)
H10_2 H 0.4175 0.9585 0.9143
C15_2 C 0.2486(6) 0.4004(7) 0.6507(11)
C16_2 C 0.2911(9) 0.4663(8) 0.6761(15)
H11_2 H 0.3314 0.4752 0.6326
H12_2 H 0.3179 0.4620 0.7364
C17_2 C 0.1944(6) 0.6984(5) 0.8723(6)
C18_2 C 0.1402(8) 0.6389(7) 0.8454(9)
H13_2 H 0.1455 0.6054 0.8934
H14_2 H 0.0851 0.6541 0.8417
C19_2 C 0.1580(6) 0.6069(5) 0.7560(8)
C20_2 C 0.1272(9) 0.6305(6) 0.6740(10)
H15_2 H 0.0889 0.6644 0.6721
C21_2 C 0.1540(13) 0.6030(8) 0.5911(9)
H16_2 H 0.1368 0.6210 0.5347
C22_2 C 0.2050(12) 0.5500(8) 0.5960(11)
H17_2 H 0.2210 0.5306 0.5421
C23_2 C 0.2326(8) 0.5254(7) 0.6764(10)
C24_2 C 0.2106(7) 0.5549(6) 0.7535(8)
H18_2 H 0.2328 0.5389 0.8090
O2_2 O 0.2549(4) 0.7055(4) 0.8334(5)
S1_2 S 0.5467(2) 0.9551(2) 0.8652(3)
C33_2 C 0.8197(6) 0.7852(7) 0.9909(7)
H25_2 H 0.8670 0.8087 0.9847
C34_2 C 0.7681(6) 0.7750(7) 0.9142(7)
H26_2 H 0.7803 0.7921 0.8574
H3_2 H 0.9793 0.9941 0.6247
C9_3 C 0.1803(6) 0.2148(7) 0.0091(7)
H7_3 H 0.1330 0.1913 0.0153
C10_3 C 0.2319(6) 0.2250(7) 0.0858(7)
H8_3 H 0.2197 0.2079 0.1426
N4_3 N 0.5526(6) 0.1336(6) 0.0986(7)
N5_3 N 0.5641(5) 0.2702(6) 0.1086(6)
N6_3 N 0.4392(5) 0.2840(6) 0.1442(6)
C25_3 C 0.5504(7) 0.3373(6) 0.1103(7)
C26_3 C 0.6039(7) 0.3915(7) 0.0915(10)
H19_3 H 0.6568 0.3850 0.0770
C27_3 C 0.5701(11) 0.4531(7) 0.0970(13)
H20_3 H 0.6003 0.4905 0.0834
C28_3 C 0.4971(11) 0.4619(9) 0.1204(13)
H21_2 H 0.4793 0.5059 0.1247
C29_3 C 0.4438(9) 0.4120(8) 0.1394(11)
H22_3 H 0.3917 0.4206 0.1553
C30_3 C 0.4730(6) 0.3511(6) 0.1330(8)
C31_3 C 0.3561(5) 0.2742(7) 0.1616(7)
H23_3 H 0.3519 0.2367 0.2032
H24_3 H 0.3369 0.3138 0.1922
C32_3 C 0.3022(5) 0.2611(7) 0.0762(6)
C35_3 C 0.4982(5) 0.2417(6) 0.1266(6)
C36_3 C 0.4898(7) 0.1679(7) 0.1252(6)
C37_3 C 0.4272(7) 0.1283(8) 0.1487(7)
H27_3 H 0.3788 0.1436 0.1689
C38_3 C 0.5428(8) 0.0714(7) 0.1013(9)
H28_3 H 0.5825 0.0415 0.0857
S2_3 S 0.4533(2) 0.0449(2) 0.1348(3)
Cd2 Cd 0.67823(4) 0.21010(4) 0.08642(4)
C39_3 C 0.7514(6) 0.5996(7) 0.3493(11)
C40_3 C 0.7089(9) 0.5337(8) 0.3239(15)
H29_3 H 0.6686 0.5248 0.3674
H30_3 H 0.6821 0.5380 0.2636
C41_3 C 0.8056(6) 0.3016(5) 0.1277(6)
C42_3 C 0.8598(8) 0.3611(7) 0.1546(9)
H31_3 H 0.8545 0.3946 0.1066
H32_3 H 0.9149 0.3459 0.1583
C43_3 C 0.8420(6) 0.3931(5) 0.2440(8)
C44_3 C 0.8728(9) 0.3695(6) 0.3260(10)
H33_3 H 0.9111 0.3356 0.3279
C45_3 C 0.8460(13) 0.3970(8) 0.4089(9)
H34_3 H 0.8632 0.3790 0.4653
C46_3 C 0.7950(12) 0.4500(8) 0.4040(11)
H35_3 H 0.7790 0.4694 0.4579
C47_3 C 0.7674(8) 0.4746(7) 0.3236(10)
C48_3 C 0.7894(7) 0.4451(6) 0.2465(8)
H36_3 H 0.7672 0.4611 0.1910
O5_2 O 0.8255(6) 0.2653(4) 0.0632(5)
O6_3 O 0.7451(4) 0.2945(4) 0.1666(5)
O7_2 O 0.7784(6) 0.6385(5) 0.2917(6)
O8_2 O 0.7620(5) 0.6086(4) 0.4367(7)
Cd5_2 Cd 0.82177(4) 0.71010(4) 0.41358(4)
O12_2 O 0.7216(6) 0.1385(5) 0.2083(6)
O14_2 O 0.7380(5) 0.1086(4) 0.0633(7)
N3_3 N 0.0608(5) 0.2160(6) 0.8558(6)
C4_3 C 0.0029(11) 0.0381(9) 0.8796(13)
C5_3 C 0.0562(9) 0.0880(8) 0.8606(11)
H4_3 H 0.1083 0.0794 0.8447
C6_3 C 0.0270(6) 0.1489(6) 0.8670(8)
C7_3 C 0.1439(5) 0.2258(7) 0.8384(7)
H5_3 H 0.1481 0.2633 0.7968
H6_3 H 0.1631 0.1862 0.8078
C8_3 C 0.1978(5) 0.2389(7) 0.9238(6)
C11_3 C 0.0018(5) 0.2583(6) 0.8734(6)
C12_3 C 0.0102(7) 0.3321(7) 0.8748(6)
C13_3 C 0.0728(7) 0.3717(8) 0.8513(7)
H9_3 H 0.1212 0.3564 0.8311
S1_3 S 0.0467(2) 0.4551(2) 0.8652(3)
C33_3 C 0.3197(6) 0.2852(7) 0.9909(7)
H25_3 H 0.3670 0.3087 0.9847
C34_3 C 0.2681(6) 0.2750(7) 0.9142(7)
H26_3 H 0.2803 0.2921 0.8574
Cd3 Cd 0.82177(4) 0.28990(4) 0.91358(4)
O9_2 O 0.6745(6) 0.2347(4) 0.9368(5)
N1_3 N 0.9474(6) 0.3664(6) 0.9014(7)
N2_3 N 0.9359(5) 0.2298(6) 0.8914(6)
C1_3 C 0.9496(7) 0.1627(6) 0.8897(7)
C2_3 C 0.8961(7) 0.1085(7) 0.9085(10)
H1_3 H 0.8432 0.1150 0.9230
C3_3 C 0.9299(11) 0.0469(7) 0.9030(13)
H2_3 H 0.8997 0.0095 0.9166
C14_3 C 0.9572(8) 0.4286(7) 0.8987(9)
H10_3 H 0.9175 0.4585 0.9143
C17_3 C 0.6944(6) 0.1984(5) 0.8723(6)
C18_3 C 0.6402(8) 0.1389(7) 0.8454(9)
H13_3 H 0.6455 0.1054 0.8934
H14_3 H 0.5851 0.1541 0.8417
C19_3 C 0.6580(6) 0.1069(5) 0.7560(8)
C20_3 C 0.6272(9) 0.1305(6) 0.6740(10)
H15_3 H 0.5889 0.1644 0.6721
C21_3 C 0.6540(13) 0.1030(8) 0.5911(9)
H16_3 H 0.6368 0.1210 0.5347
C22_3 C 0.7050(12) 0.0500(8) 0.5960(11)
H17_3 H 0.7210 0.0306 0.5421
C23_3 C 0.7326(8) 0.0254(7) 0.6764(10)
C24_3 C 0.7106(7) 0.0549(6) 0.7535(8)
H18_3 H 0.7328 0.0389 0.8090
O2_3 O 0.7549(4) 0.2055(4) 0.8334(5)
O11_2 O 0.7784(6) 0.3615(5) 0.7917(6)
O13_2 O 0.7620(5) 0.3914(4) 0.9367(7)
C15_3 C 0.7486(6) 0.9004(7) 0.6507(11)
C16_3 C 0.7911(9) 0.9663(8) 0.6761(15)
H11_3 H 0.8314 0.9752 0.6326
H12_3 H 0.8179 0.9620 0.7364
O3_2 O 0.7216(6) 0.8615(5) 0.7083(6)
O4_2 O 0.7380(5) 0.8914(4) 0.5633(7)
Cd4_2 Cd 0.67823(4) 0.78990(4) 0.58642(4)
N1_4 N 0.5526(6) 0.8664(6) 0.5986(7)
N2_4 N 0.5641(5) 0.7298(6) 0.6086(6)
N3_4 N 0.4392(5) 0.7160(6) 0.6442(6)
C1_4 C 0.5504(7) 0.6627(6) 0.6103(7)
C2_4 C 0.6039(7) 0.6085(7) 0.5915(10)
H1_4 H 0.6568 0.6150 0.5770
C3_4 C 0.5701(11) 0.5469(7) 0.5970(13)
H2_4 H 0.6003 0.5095 0.5834
C4_4 C 0.4971(11) 0.5381(9) 0.6204(13)
H3_3 H 0.4793 0.4941 0.6247
C5_4 C 0.4438(9) 0.5880(8) 0.6394(11)
H4_4 H 0.3917 0.5794 0.6553
C6_4 C 0.4730(6) 0.6489(6) 0.6330(8)
C7_4 C 0.3561(5) 0.7258(7) 0.6616(7)
H5_4 H 0.3519 0.7633 0.7032
H6_4 H 0.3369 0.6862 0.6922
C8_4 C 0.3022(5) 0.7389(7) 0.5762(6)
C9_4 C 0.3197(6) 0.7148(7) 0.4909(7)
H7_4 H 0.3670 0.6913 0.4847
C10_4 C 0.2681(6) 0.7250(7) 0.4142(7)
H8_4 H 0.2803 0.7079 0.3574
C11_4 C 0.4982(5) 0.7583(6) 0.6266(6)
C12_4 C 0.4898(7) 0.8321(7) 0.6252(6)
C13_4 C 0.4272(7) 0.8717(8) 0.6487(7)
H9_4 H 0.3788 0.8564 0.6689
C14_4 C 0.5428(8) 0.9286(7) 0.6013(9)
H10_4 H 0.5825 0.9585 0.5857
C15_4 C 0.7514(6) 0.4004(7) 0.8493(11)
C16_4 C 0.7089(9) 0.4663(8) 0.8239(15)
H11_4 H 0.6686 0.4752 0.8674
H12_4 H 0.6821 0.4620 0.7636
C17_4 C 0.8056(6) 0.6984(5) 0.6277(6)
C18_4 C 0.8598(8) 0.6389(7) 0.6546(9)
H13_4 H 0.8545 0.6054 0.6066
H14_4 H 0.9149 0.6541 0.6583
C19_4 C 0.8420(6) 0.6069(5) 0.7440(8)
C20_4 C 0.8728(9) 0.6305(6) 0.8260(10)
H15_4 H 0.9111 0.6644 0.8279
C21_4 C 0.8460(13) 0.6030(8) 0.9089(9)
H16_4 H 0.8632 0.6210 0.9653
C22_4 C 0.7950(12) 0.5500(8) 0.9040(11)
H17_4 H 0.7790 0.5306 0.9579
C23_4 C 0.7674(8) 0.5254(7) 0.8236(10)
C24_4 C 0.7894(7) 0.5549(6) 0.7465(8)
H18_4 H 0.7672 0.5389 0.6910
O1_2 O 0.8255(6) 0.7347(4) 0.5632(5)
O2_4 O 0.7451(4) 0.7055(4) 0.6666(5)
S1_4 S 0.4533(2) 0.9551(2) 0.6348(3)
N6_4 N 0.0608(5) 0.7840(6) 0.3558(6)
C28_4 C 0.0029(11) 0.9619(9) 0.3796(13)
C29_4 C 0.0562(9) 0.9120(8) 0.3606(11)
H22_4 H 0.1083 0.9206 0.3447
C30_4 C 0.0270(6) 0.8511(6) 0.3670(8)
C31_4 C 0.1439(5) 0.7742(7) 0.3384(7)
H23_4 H 0.1481 0.7367 0.2968
H24_4 H 0.1631 0.8138 0.3078
C32_4 C 0.1978(5) 0.7611(7) 0.4238(6)
C33_4 C 0.1803(6) 0.7852(7) 0.5091(7)
H25_4 H 0.1330 0.8087 0.5153
C34_4 C 0.2319(6) 0.7750(7) 0.5858(7)
H26_4 H 0.2197 0.7921 0.6426
C35_4 C 0.0018(5) 0.7417(6) 0.3734(6)
C36_4 C 0.0102(7) 0.6679(7) 0.3748(6)
C37_4 C 0.0728(7) 0.6283(8) 0.3513(7)
H27_4 H 0.1212 0.6436 0.3311
S2_4 S 0.0467(2) 0.5449(2) 0.3652(3)
O10_2 O 0.6745(6) 0.7653(4) 0.4368(5)
C39_4 C 0.7486(6) 0.0996(7) 0.1507(11)
C40_4 C 0.7911(9) 0.0337(8) 0.1761(15)
H29_4 H 0.8314 0.0248 0.1326
H30_4 H 0.8179 0.0380 0.2364
N4_4 N 0.9474(6) 0.6336(6) 0.4014(7)
N5_4 N 0.9359(5) 0.7702(6) 0.3914(6)
C25_4 C 0.9496(7) 0.8373(6) 0.3897(7)
C26_4 C 0.8961(7) 0.8915(7) 0.4085(10)
H19_4 H 0.8432 0.8850 0.4230
C27_4 C 0.9299(11) 0.9531(7) 0.4030(13)
H20_4 H 0.8997 0.9905 0.4166
C38_4 C 0.9572(8) 0.5714(7) 0.3987(9)
H28_4 H 0.9175 0.5415 0.4143
C41_4 C 0.6944(6) 0.8016(5) 0.3723(6)
C42_4 C 0.6402(8) 0.8611(7) 0.3454(9)
H31_4 H 0.6455 0.8946 0.3934
H32_4 H 0.5851 0.8459 0.3417
C43_4 C 0.6580(6) 0.8931(5) 0.2560(8)
C44_4 C 0.6272(9) 0.8695(6) 0.1740(10)
H33_4 H 0.5889 0.8356 0.1721
C45_4 C 0.6540(13) 0.8970(8) 0.0911(9)
H34_4 H 0.6368 0.8790 0.0347
C46_4 C 0.7050(12) 0.9500(8) 0.0960(11)
H35_4 H 0.7210 0.9694 0.0421
C47_4 C 0.7326(8) 0.9746(7) 0.1764(10)
C48_4 C 0.7106(7) 0.9451(6) 0.2535(8)
H36_4 H 0.7328 0.9611 0.3090
O6_4 O 0.7549(4) 0.7945(4) 0.3334(5)
H3_4 H 0.0207 0.9941 0.8753
H21_3 H 0.0207 0.0059 0.3753
H21_4 H 0.9793 0.0059 0.1247
loop_
_geom_bond_atom_site_label_1
_geom_bond_atom_site_label_2
_geom_bond_site_symmetry_1
_geom_bond_site_symmetry_2
Cd1 N1 1_555 1_555
N2 Cd1 1_555 1_555
C1 N2 1_555 1_555
C2 C1 1_555 1_555
H1 C2 1_555 1_555
C3 C2 1_555 1_555
H2 C3 1_555 1_555
C14 N1 1_555 1_555
H10 C14 1_555 1_555
C17 C18 1_555 1_555
C18 H13 1_555 1_555
H14 C18 1_555 1_555
C19 C18 1_555 1_555
C20 C19 1_555 1_555
H15 C20 1_555 1_555
C21 C20 1_555 1_555
H16 C21 1_555 1_555
C22 C21 1_555 1_555
H17 C22 1_555 1_555
C24 C19 1_555 1_555
H18 C24 1_555 1_555
O1 Cd1 1_555 1_555
O2 Cd1 1_555 1_555
Cd6 O1 1_555 1_555
O10 Cd1 1_555 1_555
O11 Cd1 1_555 1_555
O13 Cd1 1_555 1_555
C17 O1 1_555 1_555
C17 O2 1_555 1_555
C22 C23 1_555 1_555
C23 C24 1_555 1_555
Cd6 O10 1_555 1_555
C15 C16 1_555 1_555
C16 H11 1_555 1_555
H12 C16 1_555 1_555
O3 C15 1_555 1_555
O4 C15 1_555 1_555
Cd4 O3 1_555 1_555
O4 Cd4 1_555 1_555
N3 C6 1_555 1_555
C5 C4 1_555 1_555
H4 C5 1_555 1_555
C7 N3 1_555 1_555
H5 C7 1_555 1_555
H6 C7 1_555 1_555
C8 C7 1_555 1_555
C9 C8 1_555 1_555
H7 C9 1_555 1_555
C10 C9 1_555 1_555
H8 C10 1_555 1_555
C12 C11 1_555 1_555
C13 C12 1_555 1_555
H9 C13 1_555 1_555
S1 C13 1_555 1_555
N4 C36 1_555 1_555
N5 C25 1_555 1_555
N6 C30 1_555 1_555
C25 C26 1_555 1_555
C26 H19 1_555 1_555
C27 C26 1_555 1_555
H20 C27 1_555 1_555
C28 C27 1_555 1_555
H21 C28 1_555 1_555
C29 C28 1_555 1_555
H22 C29 1_555 1_555
C30 C25 1_555 1_555
C31 N6 1_555 1_555
H23 C31 1_555 1_555
H24 C31 1_555 1_555
C32 C10 1_555 1_555
C33 C32 1_555 1_555
H25 C33 1_555 1_555
C34 C8 1_555 1_555
H26 C34 1_555 1_555
C35 N5 1_555 1_555
C36 C35 1_555 1_555
C37 C36 1_555 1_555
H27 C37 1_555 1_555
C38 N4 1_555 1_555
H28 C38 1_555 1_555
S2 C37 1_555 1_555
Cd6 N4 1_555 1_555
C39 C40 1_555 1_555
C40 H29 1_555 1_555
H30 C40 1_555 1_555
C41 C42 1_555 1_555
C42 H31 1_555 1_555
H32 C42 1_555 1_555
C43 C42 1_555 1_555
C44 C43 1_555 1_555
H33 C44 1_555 1_555
C45 C44 1_555 1_555
H34 C45 1_555 1_555
C46 C45 1_555 1_555
H35 C46 1_555 1_555
C47 C40 1_555 1_555
C48 C43 1_555 1_555
H36 C48 1_555 1_555
O6 Cd6 1_555 1_555
O7 C39 1_555 1_555
O8 C39 1_555 1_555
Cd5 O7 1_555 1_555
O12 Cd6 1_555 1_555
O14 Cd6 1_555 1_555
N3 C11 1_555 1_555
C5 C6 1_555 1_555
N5 Cd6 1_555 1_555
N6 C35 1_555 1_555
C29 C30 1_555 1_555
C31 C32 1_555 1_555
C33 C34 1_555 1_555
C38 S2 1_555 1_555
C41 O10 1_555 1_555
C41 O6 1_555 1_555
C46 C47 1_555 1_555
C47 C48 1_555 1_555
O8 Cd5 1_555 1_555
C39_2 C40_2 1_555 1_555
C40_2 H29_2 1_555 1_555
H30_2 C40_2 1_555 1_555
O12 C39_2 1_555 1_555
O14 C39_2 1_555 1_555
N5_2 C25_2 1_555 1_555
C25_2 C26_2 1_555 1_555
C26_2 H19_2 1_555 1_555
C27_2 C26_2 1_555 1_555
H20_2 C27_2 1_555 1_555
C38_2 N4_2 1_555 1_555
H28_2 C38_2 1_555 1_555
Cd5 N4_2 1_555 1_555
C41_2 C42_2 1_555 1_555
C42_2 H31_2 1_555 1_555
H32_2 C42_2 1_555 1_555
C43_2 C42_2 1_555 1_555
C44_2 C43_2 1_555 1_555
H33_2 C44_2 1_555 1_555
C45_2 C44_2 1_555 1_555
H34_2 C45_2 1_555 1_555
C46_2 C45_2 1_555 1_555
H35_2 C46_2 1_555 1_555
C48_2 C43_2 1_555 1_555
H36_2 C48_2 1_555 1_555
O5 Cd5 1_555 1_555
O6_2 Cd5 1_555 1_555
N5_2 Cd5 1_555 1_555
C41_2 O5 1_555 1_555
C41_2 O6_2 1_555 1_555
C46_2 C47_2 1_555 1_555
C47_2 C48_2 1_555 1_555
Cd4 O9 1_555 1_555
H7_2 C9_2 1_555 1_555
C10_2 C9_2 1_555 1_555
H8_2 C10_2 1_555 1_555
N6_2 C30_2 1_555 1_555
C29_2 C28_2 1_555 1_555
H22_2 C29_2 1_555 1_555
C31_2 N6_2 1_555 1_555
H23_2 C31_2 1_555 1_555
H24_2 C31_2 1_555 1_555
C32_2 C10_2 1_555 1_555
C36_2 C35_2 1_555 1_555
C37_2 C36_2 1_555 1_555
H27_2 C37_2 1_555 1_555
S2_2 C37_2 1_555 1_555
N6_2 C35_2 1_555 1_555
C29_2 C30_2 1_555 1_555
C31_2 C32_2 1_555 1_555
Cd4 N1_2 1_555 1_555
N1_2 C12_2 1_555 1_555
N2_2 Cd4 1_555 1_555
N3_2 C6_2 1_555 1_555
C1_2 N2_2 1_555 1_555
C2_2 C1_2 1_555 1_555
H1_2 C2_2 1_555 1_555
C3_2 C2_2 1_555 1_555
H2_2 C3_2 1_555 1_555
C4_2 C3_2 1_555 1_555
H3 C4_2 1_555 1_555
C5_2 C4_2 1_555 1_555
H4_2 C5_2 1_555 1_555
C6_2 C1_2 1_555 1_555
C7_2 N3_2 1_555 1_555
H5_2 C7_2 1_555 1_555
H6_2 C7_2 1_555 1_555
C8_2 C7_2 1_555 1_555
C11_2 N2_2 1_555 1_555
C12_2 C11_2 1_555 1_555
C13_2 C12_2 1_555 1_555
H9_2 C13_2 1_555 1_555
C14_2 N1_2 1_555 1_555
H10_2 C14_2 1_555 1_555
C15_2 C16_2 1_555 1_555
C16_2 H11_2 1_555 1_555
H12_2 C16_2 1_555 1_555
C17_2 C18_2 1_555 1_555
C18_2 H13_2 1_555 1_555
H14_2 C18_2 1_555 1_555
C19_2 C18_2 1_555 1_555
C20_2 C19_2 1_555 1_555
H15_2 C20_2 1_555 1_555
C21_2 C20_2 1_555 1_555
H16_2 C21_2 1_555 1_555
C22_2 C21_2 1_555 1_555
H17_2 C22_2 1_555 1_555
C23_2 C16_2 1_555 1_555
C24_2 C19_2 1_555 1_555
H18_2 C24_2 1_555 1_555
O2_2 Cd4 1_555 1_555
O11 C15_2 1_555 1_555
O13 C15_2 1_555 1_555
S1_2 C13_2 1_555 1_555
H25_2 C33_2 1_555 1_555
C34_2 C8_2 1_555 1_555
H26_2 C34_2 1_555 1_555
N3_2 C11_2 1_555 1_555
C5_2 C6_2 1_555 1_555
C14_2 S1_2 1_555 1_555
C17_2 O9 1_555 1_555
C17_2 O2_2 1_555 1_555
C22_2 C23_2 1_555 1_555
C23_2 C24_2 1_555 1_555
C33_2 C34_2 1_555 1_555
H7_3 C9_3 1_555 1_555
C10_3 C9_3 1_555 1_555
H8_3 C10_3 1_555 1_555
N4_3 C36_3 1_555 1_555
N5_3 C25_3 1_555 1_555
N6_3 C30_3 1_555 1_555
C25_3 C26_3 1_555 1_555
C26_3 H19_3 1_555 1_555
C27_3 C26_3 1_555 1_555
H20_3 C27_3 1_555 1_555
C28_3 C27_3 1_555 1_555
H21_2 C28_3 1_555 1_555
C29_3 C28_3 1_555 1_555
H22_3 C29_3 1_555 1_555
C30_3 C25_3 1_555 1_555
C31_3 N6_3 1_555 1_555
H23_3 C31_3 1_555 1_555
H24_3 C31_3 1_555 1_555
C32_3 C10_3 1_555 1_555
C35_3 N5_3 1_555 1_555
C36_3 C35_3 1_555 1_555
C37_3 C36_3 1_555 1_555
H27_3 C37_3 1_555 1_555
C38_3 N4_3 1_555 1_555
H28_3 C38_3 1_555 1_555
S2_3 C37_3 1_555 1_555
Cd2 N4_3 1_555 1_555
C39_3 C40_3 1_555 1_555
C40_3 H29_3 1_555 1_555
H30_3 C40_3 1_555 1_555
C41_3 C42_3 1_555 1_555
C42_3 H31_3 1_555 1_555
H32_3 C42_3 1_555 1_555
C43_3 C42_3 1_555 1_555
C44_3 C43_3 1_555 1_555
H33_3 C44_3 1_555 1_555
C45_3 C44_3 1_555 1_555
H34_3 C45_3 1_555 1_555
C46_3 C45_3 1_555 1_555
H35_3 C46_3 1_555 1_555
C47_3 C40_3 1_555 1_555
C48_3 C43_3 1_555 1_555
H36_3 C48_3 1_555 1_555
O5_2 Cd2 1_555 1_555
O6_3 Cd2 1_555 1_555
O7_2 C39_3 1_555 1_555
O8_2 C39_3 1_555 1_555
Cd5_2 O7_2 1_555 1_555
O12_2 Cd2 1_555 1_555
O14_2 Cd2 1_555 1_555
N5_3 Cd2 1_555 1_555
N6_3 C35_3 1_555 1_555
C29_3 C30_3 1_555 1_555
C31_3 C32_3 1_555 1_555
C38_3 S2_3 1_555 1_555
C41_3 O5_2 1_555 1_555
C41_3 O6_3 1_555 1_555
C46_3 C47_3 1_555 1_555
C47_3 C48_3 1_555 1_555
O8_2 Cd5_2 1_555 1_555
N3_3 C6_3 1_555 1_555
C5_3 C4_3 1_555 1_555
H4_3 C5_3 1_555 1_555
C7_3 N3_3 1_555 1_555
H5_3 C7_3 1_555 1_555
H6_3 C7_3 1_555 1_555
C8_3 C7_3 1_555 1_555
C12_3 C11_3 1_555 1_555
C13_3 C12_3 1_555 1_555
H9_3 C13_3 1_555 1_555
S1_3 C13_3 1_555 1_555
H25_3 C33_3 1_555 1_555
C34_3 C8_3 1_555 1_555
H26_3 C34_3 1_555 1_555
N3_3 C11_3 1_555 1_555
C5_3 C6_3 1_555 1_555
C33_3 C34_3 1_555 1_555
Cd3 O9_2 1_555 1_555
Cd3 N1_3 1_555 1_555
N2_3 Cd3 1_555 1_555
C1_3 N2_3 1_555 1_555
C2_3 C1_3 1_555 1_555
H1_3 C2_3 1_555 1_555
C3_3 C2_3 1_555 1_555
H2_3 C3_3 1_555 1_555
C14_3 N1_3 1_555 1_555
H10_3 C14_3 1_555 1_555
C17_3 C18_3 1_555 1_555
C18_3 H13_3 1_555 1_555
H14_3 C18_3 1_555 1_555
C19_3 C18_3 1_555 1_555
C20_3 C19_3 1_555 1_555
H15_3 C20_3 1_555 1_555
C21_3 C20_3 1_555 1_555
H16_3 C21_3 1_555 1_555
C22_3 C21_3 1_555 1_555
H17_3 C22_3 1_555 1_555
C24_3 C19_3 1_555 1_555
H18_3 C24_3 1_555 1_555
O2_3 Cd3 1_555 1_555
O11_2 Cd3 1_555 1_555
O13_2 Cd3 1_555 1_555
C17_3 O9_2 1_555 1_555
C17_3 O2_3 1_555 1_555
C22_3 C23_3 1_555 1_555
C23_3 C24_3 1_555 1_555
C15_3 C16_3 1_555 1_555
C16_3 H11_3 1_555 1_555
H12_3 C16_3 1_555 1_555
O3_2 C15_3 1_555 1_555
O4_2 C15_3 1_555 1_555
Cd4_2 O3_2 1_555 1_555
O4_2 Cd4_2 1_555 1_555
Cd4_2 N1_4 1_555 1_555
N1_4 C12_4 1_555 1_555
N2_4 Cd4_2 1_555 1_555
N3_4 C6_4 1_555 1_555
C1_4 N2_4 1_555 1_555
C2_4 C1_4 1_555 1_555
H1_4 C2_4 1_555 1_555
C3_4 C2_4 1_555 1_555
H2_4 C3_4 1_555 1_555
C4_4 C3_4 1_555 1_555
H3_3 C4_4 1_555 1_555
C5_4 C4_4 1_555 1_555
H4_4 C5_4 1_555 1_555
C6_4 C1_4 1_555 1_555
C7_4 N3_4 1_555 1_555
H5_4 C7_4 1_555 1_555
H6_4 C7_4 1_555 1_555
C8_4 C7_4 1_555 1_555
C9_4 C8_4 1_555 1_555
H7_4 C9_4 1_555 1_555
C10_4 C9_4 1_555 1_555
H8_4 C10_4 1_555 1_555
C11_4 N2_4 1_555 1_555
C12_4 C11_4 1_555 1_555
C13_4 C12_4 1_555 1_555
H9_4 C13_4 1_555 1_555
C14_4 N1_4 1_555 1_555
H10_4 C14_4 1_555 1_555
C15_4 C16_4 1_555 1_555
C16_4 H11_4 1_555 1_555
H12_4 C16_4 1_555 1_555
C17_4 C18_4 1_555 1_555
C18_4 H13_4 1_555 1_555
H14_4 C18_4 1_555 1_555
C19_4 C18_4 1_555 1_555
C20_4 C19_4 1_555 1_555
H15_4 C20_4 1_555 1_555
C21_4 C20_4 1_555 1_555
H16_4 C21_4 1_555 1_555
C22_4 C21_4 1_555 1_555
H17_4 C22_4 1_555 1_555
C23_4 C16_4 1_555 1_555
C24_4 C19_4 1_555 1_555
H18_4 C24_4 1_555 1_555
O1_2 Cd4_2 1_555 1_555
O2_4 Cd4_2 1_555 1_555
O11_2 C15_4 1_555 1_555
O13_2 C15_4 1_555 1_555
S1_4 C13_4 1_555 1_555
N6_4 C30_4 1_555 1_555
C29_4 C28_4 1_555 1_555
H22_4 C29_4 1_555 1_555
C31_4 N6_4 1_555 1_555
H23_4 C31_4 1_555 1_555
H24_4 C31_4 1_555 1_555
C32_4 C10_4 1_555 1_555
C33_4 C32_4 1_555 1_555
H25_4 C33_4 1_555 1_555
C34_4 C8_4 1_555 1_555
H26_4 C34_4 1_555 1_555
C36_4 C35_4 1_555 1_555
C37_4 C36_4 1_555 1_555
H27_4 C37_4 1_555 1_555
S2_4 C37_4 1_555 1_555
Cd5_2 O1_2 1_555 1_555
O10_2 Cd4_2 1_555 1_555
N3_4 C11_4 1_555 1_555
C5_4 C6_4 1_555 1_555
C14_4 S1_4 1_555 1_555
C17_4 O1_2 1_555 1_555
C17_4 O2_4 1_555 1_555
C22_4 C23_4 1_555 1_555
C23_4 C24_4 1_555 1_555
N6_4 C35_4 1_555 1_555
C29_4 C30_4 1_555 1_555
C31_4 C32_4 1_555 1_555
C33_4 C34_4 1_555 1_555
Cd5_2 O10_2 1_555 1_555
C39_4 C40_4 1_555 1_555
C40_4 H29_4 1_555 1_555
H30_4 C40_4 1_555 1_555
O12_2 C39_4 1_555 1_555
O14_2 C39_4 1_555 1_555
N5_4 C25_4 1_555 1_555
C25_4 C26_4 1_555 1_555
C26_4 H19_4 1_555 1_555
C27_4 C26_4 1_555 1_555
H20_4 C27_4 1_555 1_555
C38_4 N4_4 1_555 1_555
H28_4 C38_4 1_555 1_555
Cd5_2 N4_4 1_555 1_555
C41_4 C42_4 1_555 1_555
C42_4 H31_4 1_555 1_555
H32_4 C42_4 1_555 1_555
C43_4 C42_4 1_555 1_555
C44_4 C43_4 1_555 1_555
H33_4 C44_4 1_555 1_555
C45_4 C44_4 1_555 1_555
H34_4 C45_4 1_555 1_555
C46_4 C45_4 1_555 1_555
H35_4 C46_4 1_555 1_555
C48_4 C43_4 1_555 1_555
H36_4 C48_4 1_555 1_555
O6_4 Cd5_2 1_555 1_555
N5_4 Cd5_2 1_555 1_555
C41_4 O10_2 1_555 1_555
C41_4 O6_4 1_555 1_555
C46_4 C47_4 1_555 1_555
C47_4 C48_4 1_555 1_555

#END
