
###############################################################################
#
# This file contains modified crystal structure data generated from the
# MOF subset of the Cambridge Structural Database (CSD) v543 
# hosted by the Cambridge Crystallographic Data Centre (CCDC).
#
# This work is licensed under the Creative Commons
# Attribution-NonCommercial-ShareAlike 4.0 International License.
# To view a copy of this license, visit
# http://creativecommons.org/licenses/by-nc-sa/4.0/
# or send a letter to
# Creative Commons, PO Box 1866, Mountain View, CA 94042, USA.
#
# CIF created using the CSD Python API on 29 September 2022
# The structure has been converted into the P1 space group
# The structure has a 3D framework
# The original CSD entry YEMGED is in the cubic crystal system
# The framework has been calculated to contain at least 10.0% void space
# The void calculation uses a probe of radius 1.32A, grid spacing 0.4
# The framework is charged, counterions have been retained in the structure
# H atom positions have been added when not included in the experimental data
#
###############################################################################

data_YEMGED
_chemical_formula_moiety         '(C192 H384 Cu120 N312 O254 115-)n'
_symmetry_cell_setting           triclinic
_symmetry_space_group_name_H-M   'P 1'
_symmetry_Int_Tables_number      1
_space_group_name_Hall           'P 1'
loop_
_symmetry_equiv_pos_site_id
_symmetry_equiv_pos_as_xyz
1 x,y,z
_cell_length_a                   24.644(3)
_cell_length_b                   24.644(3)
_cell_length_c                   24.644(3)
_cell_angle_alpha                90
_cell_angle_beta                 90
_cell_angle_gamma                90
_cell_volume                     14967
loop_
_atom_site_label
_atom_site_type_symbol
_atom_site_fract_x
_atom_site_fract_y
_atom_site_fract_z
Cu6 Cu 0.0000 0.443873(14) 0.193873(14)
Cu1 Cu 0.806127(14) 0.5000 0.056127(14)
O1 O 0.7500 0.5000 0.0000
N1 N 0.77069(11) 0.43647(11) 0.08950(11)
N2 N 0.7500 0.36344(9) 0.13656(9)
C1 C 0.78168(13) 0.40778(13) 0.13304(13)
H1 H 0.8081 0.4170 0.1583
Cu3 Cu 0.693873(14) 0.443873(14) 0.0000
Cu4 Cu 0.7500 0.306127(14) 0.193873(14)
Cu5 Cu 0.943873(14) 0.693873(14) 0.0000
Cu6_2 Cu 1.0000 0.443873(14) 0.193873(14)
Cu7 Cu 0.943873(14) 0.556127(14) 0.2500
N3 N 0.72931(11) 0.41050(11) 0.06353(11)
N4 N 0.83950(11) 0.56353(11) 0.02069(11)
N6 N 0.93647(11) 0.47931(11) 0.16050(11)
N7 N 0.91050(11) 0.52069(11) 0.18647(11)
N10 N 0.88656(9) 0.63656(9) 0.0000
N11 N 0.86344(9) 0.5000 0.11344(9)
N13 N 0.63656(9) 0.38656(9) 0.0000
C2 C 0.71832(13) 0.36696(13) 0.09222(13)
C3 C 0.88304(13) 0.59222(13) 0.03168(13)
C5 C 0.90778(13) 0.46832(13) 0.11696(13)
C6 C 0.86696(13) 0.53168(13) 0.15778(13)
H2 H 0.6919 0.3417 0.0830
H3 H 0.9083 0.5830 0.0581
H5 H 0.9170 0.4419 0.0917
H6 H 0.8417 0.5581 0.1670
O1_2 O 0.7500 0.5000 1.0000
Cu2 Cu 0.7500 0.556127(14) 0.943873(14)
Cu3_2 Cu 0.693873(14) 0.443873(14) 1.0000
Cu5_2 Cu 0.943873(14) 0.693873(14) 1.0000
N5 N 0.81353(11) 0.58950(11) 0.97931(11)
N8 N 0.68647(11) 0.52069(11) 0.91050(11)
N9 N 0.66050(11) 0.47931(11) 0.93647(11)
N10_2 N 0.88656(9) 0.63656(9) 1.0000
N12 N 0.7500 0.61344(9) 0.88656(9)
N13_2 N 0.63656(9) 0.38656(9) 1.0000
C4 C 0.84222(13) 0.63304(13) 0.96832(13)
H4 H 0.8330 0.6583 0.9419
Cu6_3 Cu 0.193873(14) -0.0000 0.443873(14)
Cu1_2 Cu 0.056127(14) 0.806127(14) 0.5000
O1_3 O 0.0000 0.7500 0.5000
N1_2 N 0.08950(11) 0.77069(11) 0.43647(11)
N2_2 N 0.13656(9) 0.7500 0.36344(9)
C1_2 C 0.13304(13) 0.78168(13) 0.40778(13)
H1_2 H 0.1583 0.8081 0.4170
Cu3_3 Cu -0.0000 0.693873(14) 0.443873(14)
Cu4_2 Cu 0.193873(14) 0.7500 0.306127(14)
Cu5_3 Cu -0.0000 0.943873(14) 0.693873(14)
Cu6_4 Cu 0.193873(14) 1.0000 0.443873(14)
Cu7_2 Cu 0.2500 0.943873(14) 0.556127(14)
N3_2 N 0.06353(11) 0.72931(11) 0.41050(11)
N4_2 N 0.02069(11) 0.83950(11) 0.56353(11)
N6_2 N 0.16050(11) 0.93647(11) 0.47931(11)
N7_2 N 0.18647(11) 0.91050(11) 0.52069(11)
N10_3 N -0.0000 0.88656(9) 0.63656(9)
N11_2 N 0.11344(9) 0.86344(9) 0.5000
N13_3 N -0.0000 0.63656(9) 0.38656(9)
C2_2 C 0.09222(13) 0.71832(13) 0.36696(13)
C3_2 C 0.03168(13) 0.88304(13) 0.59222(13)
C5_2 C 0.11696(13) 0.90778(13) 0.46832(13)
C6_2 C 0.15778(13) 0.86696(13) 0.53168(13)
H2_2 H 0.0830 0.6919 0.3417
H3_2 H 0.0581 0.9083 0.5830
H5_2 H 0.0917 0.9170 0.4419
H6_2 H 0.1670 0.8417 0.5581
O1_4 O 1.0000 0.7500 0.5000
Cu2_2 Cu 0.943873(14) 0.7500 0.556127(14)
Cu3_4 Cu 1.0000 0.693873(14) 0.443873(14)
Cu5_4 Cu 1.0000 0.943873(14) 0.693873(14)
N5_2 N 0.97931(11) 0.81353(11) 0.58950(11)
N8_2 N 0.91050(11) 0.68647(11) 0.52069(11)
N9_2 N 0.93647(11) 0.66050(11) 0.47931(11)
N10_4 N 1.0000 0.88656(9) 0.63656(9)
N12_2 N 0.88656(9) 0.7500 0.61344(9)
N13_4 N 1.0000 0.63656(9) 0.38656(9)
C4_2 C 0.96832(13) 0.84222(13) 0.63304(13)
H4_2 H 0.9419 0.8330 0.6583
Cu6_5 Cu 0.443873(14) 0.193873(14) 0.0000
Cu1_3 Cu 0.5000 0.056127(14) 0.806127(14)
O1_5 O 0.5000 0.0000 0.7500
N1_3 N 0.43647(11) 0.08950(11) 0.77069(11)
N2_3 N 0.36344(9) 0.13656(9) 0.7500
C1_3 C 0.40778(13) 0.13304(13) 0.78168(13)
H1_3 H 0.4170 0.1583 0.8081
Cu3_5 Cu 0.443873(14) -0.0000 0.693873(14)
Cu4_3 Cu 0.306127(14) 0.193873(14) 0.7500
Cu5_5 Cu 0.693873(14) -0.0000 0.943873(14)
Cu6_6 Cu 0.443873(14) 0.193873(14) 1.0000
Cu7_3 Cu 0.556127(14) 0.2500 0.943873(14)
N3_3 N 0.41050(11) 0.06353(11) 0.72931(11)
N4_3 N 0.56353(11) 0.02069(11) 0.83950(11)
N6_3 N 0.47931(11) 0.16050(11) 0.93647(11)
N7_3 N 0.52069(11) 0.18647(11) 0.91050(11)
N10_5 N 0.63656(9) -0.0000 0.88656(9)
N11_3 N 0.5000 0.11344(9) 0.86344(9)
N13_5 N 0.38656(9) -0.0000 0.63656(9)
C2_3 C 0.36696(13) 0.09222(13) 0.71832(13)
C3_3 C 0.59222(13) 0.03168(13) 0.88304(13)
C5_3 C 0.46832(13) 0.11696(13) 0.90778(13)
C6_3 C 0.53168(13) 0.15778(13) 0.86696(13)
H2_3 H 0.3417 0.0830 0.6919
H3_3 H 0.5830 0.0581 0.9083
H5_3 H 0.4419 0.0917 0.9170
H6_3 H 0.5581 0.1670 0.8417
O1_6 O 0.5000 1.0000 0.7500
Cu2_3 Cu 0.556127(14) 0.943873(14) 0.7500
Cu3_6 Cu 0.443873(14) 1.0000 0.693873(14)
Cu5_6 Cu 0.693873(14) 1.0000 0.943873(14)
N5_3 N 0.58950(11) 0.97931(11) 0.81353(11)
N8_3 N 0.52069(11) 0.91050(11) 0.68647(11)
N9_3 N 0.47931(11) 0.93647(11) 0.66050(11)
N10_6 N 0.63656(9) 1.0000 0.88656(9)
N12_3 N 0.61344(9) 0.88656(9) 0.7500
N13_6 N 0.38656(9) 1.0000 0.63656(9)
C4_3 C 0.63304(13) 0.96832(13) 0.84222(13)
H4_3 H 0.6583 0.9419 0.8330
O1_7 O 0.2500 0.0000 0.0000
Cu2_4 Cu 0.306127(14) 0.0000 0.056127(14)
N5_4 N 0.33950(11) 0.06353(11) 0.02069(11)
N10_7 N 0.38656(9) 0.13656(9) 0.0000
N12_4 N 0.36344(9) 0.0000 0.11344(9)
C4_4 C 0.38304(13) 0.09222(13) 0.03168(13)
H4_4 H 0.4083 0.0830 0.0581
Cu1_4 Cu 0.2500 0.056127(14) 0.943873(14)
O1_8 O 0.2500 0.0000 1.0000
N1_4 N 0.18647(11) 0.02069(11) 0.91050(11)
N2_4 N 0.11344(9) -0.0000 0.86344(9)
C1_4 C 0.15778(13) 0.03168(13) 0.86696(13)
H1_4 H 0.1670 0.0581 0.8417
Cu4_4 Cu 0.056127(14) 0.0000 0.806127(14)
Cu6_7 Cu 0.193873(14) 0.2500 0.806127(14)
N4_4 N 0.31353(11) 0.08950(11) 0.97931(11)
N6_4 N 0.22931(11) 0.18647(11) 0.83950(11)
N7_4 N 0.27069(11) 0.16050(11) 0.81353(11)
N10_8 N 0.38656(9) 0.13656(9) 1.0000
N11_4 N 0.2500 0.11344(9) 0.88656(9)
C3_4 C 0.34222(13) 0.13304(13) 0.96832(13)
C5_4 C 0.21832(13) 0.15778(13) 0.88304(13)
C6_4 C 0.28168(13) 0.11696(13) 0.84222(13)
H3_4 H 0.3330 0.1583 0.9419
H5_4 H 0.1919 0.1670 0.9083
H6_4 H 0.3081 0.0917 0.8330
O1_9 O 0.2500 1.0000 0.0000
Cu2_5 Cu 0.306127(14) 1.0000 0.056127(14)
Cu3_7 Cu 0.193873(14) 0.943873(14) 0.0000
N8_4 N 0.27069(11) 0.93647(11) 0.08950(11)
N9_4 N 0.22931(11) 0.91050(11) 0.06353(11)
N12_5 N 0.36344(9) 1.0000 0.11344(9)
N13_7 N 0.13656(9) 0.88656(9) 0.0000
O1_10 O 0.2500 1.0000 1.0000
N2_5 N 0.11344(9) 1.0000 0.86344(9)
Cu3_8 Cu 0.193873(14) 0.943873(14) 1.0000
Cu4_5 Cu 0.056127(14) 1.0000 0.806127(14)
N3_4 N 0.16050(11) 0.97931(11) 0.93647(11)
N13_8 N 0.13656(9) 0.88656(9) 1.0000
C2_4 C 0.11696(13) 0.96832(13) 0.90778(13)
H2_4 H 0.0917 0.9419 0.9170
Cu7_4 Cu 0.806127(14) 0.056127(14) 0.0000
Cu1_5 Cu 0.7500 0.193873(14) 0.806127(14)
O1_11 O 0.7500 0.2500 0.7500
N1_5 N 0.68647(11) 0.22931(11) 0.83950(11)
N2_6 N 0.61344(9) 0.2500 0.88656(9)
C1_5 C 0.65778(13) 0.21832(13) 0.88304(13)
H1_5 H 0.6670 0.1919 0.9083
Cu2_6 Cu 0.806127(14) 0.2500 0.693873(14)
Cu3_9 Cu 0.693873(14) 0.306127(14) 0.7500
Cu5_7 Cu 0.943873(14) 0.056127(14) 0.7500
Cu7_5 Cu 0.806127(14) 0.056127(14) 1.0000
N3_5 N 0.66050(11) 0.27069(11) 0.81353(11)
N4_5 N 0.81353(11) 0.16050(11) 0.77069(11)
N5_5 N 0.83950(11) 0.18647(11) 0.72931(11)
N6_5 N 0.72931(11) 0.06353(11) 0.91050(11)
N7_5 N 0.77069(11) 0.08950(11) 0.93647(11)
N8_5 N 0.77069(11) 0.31353(11) 0.66050(11)
N9_5 N 0.72931(11) 0.33950(11) 0.68647(11)
N10_9 N 0.88656(9) 0.11344(9) 0.7500
N11_5 N 0.7500 0.13656(9) 0.86344(9)
N12_6 N 0.86344(9) 0.2500 0.63656(9)
N13_9 N 0.63656(9) 0.36344(9) 0.7500
C2_5 C 0.61696(13) 0.28168(13) 0.84222(13)
C3_5 C 0.84222(13) 0.11696(13) 0.78168(13)
C4_5 C 0.88304(13) 0.15778(13) 0.71832(13)
C5_5 C 0.71832(13) 0.09222(13) 0.86696(13)
C6_5 C 0.78168(13) 0.13304(13) 0.90778(13)
H2_5 H 0.5917 0.3081 0.8330
H3_5 H 0.8330 0.0917 0.8081
H4_5 H 0.9083 0.1670 0.6919
H5_5 H 0.6919 0.0830 0.8417
H6_5 H 0.8081 0.1583 0.9170
Cu1_6 Cu 0.5000 0.556127(14) 0.306127(14)
O1_12 O 0.5000 0.5000 0.2500
N1_6 N 0.56353(11) 0.52069(11) 0.33950(11)
N2_7 N 0.63656(9) 0.5000 0.38656(9)
C1_6 C 0.59222(13) 0.53168(13) 0.38304(13)
H1_6 H 0.5830 0.5581 0.4083
Cu2_7 Cu 0.443873(14) 0.5000 0.193873(14)
Cu3_10 Cu 0.556127(14) 0.443873(14) 0.2500
Cu4_6 Cu 0.693873(14) 0.5000 0.443873(14)
Cu5_8 Cu 0.306127(14) 0.693873(14) 0.2500
Cu6_8 Cu 0.556127(14) 0.7500 0.443873(14)
Cu7_6 Cu 0.443873(14) 0.693873(14) 0.5000
N3_6 N 0.58950(11) 0.47931(11) 0.31353(11)
N4_6 N 0.43647(11) 0.58950(11) 0.27069(11)
N5_6 N 0.41050(11) 0.56353(11) 0.22931(11)
N6_6 N 0.52069(11) 0.68647(11) 0.41050(11)
N7_6 N 0.47931(11) 0.66050(11) 0.43647(11)
N8_6 N 0.47931(11) 0.43647(11) 0.16050(11)
N9_6 N 0.52069(11) 0.41050(11) 0.18647(11)
N10_10 N 0.36344(9) 0.63656(9) 0.2500
N11_6 N 0.5000 0.61344(9) 0.36344(9)
N12_7 N 0.38656(9) 0.5000 0.13656(9)
N13_10 N 0.61344(9) 0.38656(9) 0.2500
C2_6 C 0.63304(13) 0.46832(13) 0.34222(13)
C3_6 C 0.40778(13) 0.63304(13) 0.28168(13)
C4_6 C 0.36696(13) 0.59222(13) 0.21832(13)
C5_6 C 0.53168(13) 0.65778(13) 0.36696(13)
C6_6 C 0.46832(13) 0.61696(13) 0.40778(13)
H2_6 H 0.6583 0.4419 0.3330
H3_6 H 0.4170 0.6583 0.3081
H4_6 H 0.3417 0.5830 0.1919
H5_6 H 0.5581 0.6670 0.3417
H6_6 H 0.4419 0.5917 0.4170
Cu1_7 Cu 0.556127(14) 0.306127(14) 0.5000
O1_13 O 0.5000 0.2500 0.5000
N1_7 N 0.52069(11) 0.33950(11) 0.56353(11)
N2_8 N 0.5000 0.38656(9) 0.63656(9)
C1_7 C 0.53168(13) 0.38304(13) 0.59222(13)
H1_7 H 0.5581 0.4083 0.5830
Cu2_8 Cu 0.5000 0.193873(14) 0.443873(14)
Cu3_11 Cu 0.443873(14) 0.2500 0.556127(14)
Cu4_7 Cu 0.5000 0.443873(14) 0.693873(14)
Cu5_9 Cu 0.693873(14) 0.2500 0.306127(14)
Cu6_9 Cu 0.7500 0.443873(14) 0.556127(14)
N3_7 N 0.47931(11) 0.31353(11) 0.58950(11)
N4_7 N 0.58950(11) 0.27069(11) 0.43647(11)
N5_7 N 0.56353(11) 0.22931(11) 0.41050(11)
N6_7 N 0.68647(11) 0.41050(11) 0.52069(11)
N7_7 N 0.66050(11) 0.43647(11) 0.47931(11)
N8_7 N 0.43647(11) 0.16050(11) 0.47931(11)
N9_7 N 0.41050(11) 0.18647(11) 0.52069(11)
N10_11 N 0.63656(9) 0.2500 0.36344(9)
N11_7 N 0.61344(9) 0.36344(9) 0.5000
N12_8 N 0.5000 0.13656(9) 0.38656(9)
N13_11 N 0.38656(9) 0.2500 0.61344(9)
C2_7 C 0.46832(13) 0.34222(13) 0.63304(13)
C3_7 C 0.63304(13) 0.28168(13) 0.40778(13)
C4_7 C 0.59222(13) 0.21832(13) 0.36696(13)
C5_7 C 0.65778(13) 0.36696(13) 0.53168(13)
C6_7 C 0.61696(13) 0.40778(13) 0.46832(13)
H2_7 H 0.4419 0.3330 0.6583
H3_7 H 0.6583 0.3081 0.4170
H4_7 H 0.5830 0.1919 0.3417
H5_7 H 0.6670 0.3417 0.5581
H6_7 H 0.5917 0.4170 0.4419
Cu1_8 Cu 0.193873(14) 0.806127(14) 0.7500
O1_14 O 0.2500 0.7500 0.7500
N1_8 N 0.22931(11) 0.83950(11) 0.68647(11)
N2_9 N 0.2500 0.88656(9) 0.61344(9)
C1_8 C 0.21832(13) 0.88304(13) 0.65778(13)
H1_8 H 0.1919 0.9083 0.6670
Cu2_9 Cu 0.2500 0.693873(14) 0.806127(14)
Cu3_12 Cu 0.306127(14) 0.7500 0.693873(14)
Cu5_10 Cu 0.056127(14) 0.7500 0.943873(14)
N3_8 N 0.27069(11) 0.81353(11) 0.66050(11)
N4_8 N 0.16050(11) 0.77069(11) 0.81353(11)
N5_8 N 0.18647(11) 0.72931(11) 0.83950(11)
N6_8 N 0.06353(11) 0.91050(11) 0.72931(11)
N7_8 N 0.08950(11) 0.93647(11) 0.77069(11)
N8_8 N 0.31353(11) 0.66050(11) 0.77069(11)
N9_8 N 0.33950(11) 0.68647(11) 0.72931(11)
N10_12 N 0.11344(9) 0.7500 0.88656(9)
N11_8 N 0.13656(9) 0.86344(9) 0.7500
N12_9 N 0.2500 0.63656(9) 0.86344(9)
N13_12 N 0.36344(9) 0.7500 0.63656(9)
C2_8 C 0.28168(13) 0.84222(13) 0.61696(13)
C3_8 C 0.11696(13) 0.78168(13) 0.84222(13)
C4_8 C 0.15778(13) 0.71832(13) 0.88304(13)
C5_8 C 0.09222(13) 0.86696(13) 0.71832(13)
C6_8 C 0.13304(13) 0.90778(13) 0.78168(13)
H2_8 H 0.3081 0.8330 0.5917
H3_8 H 0.0917 0.8081 0.8330
H4_8 H 0.1670 0.6919 0.9083
H5_8 H 0.0830 0.8417 0.6919
H6_8 H 0.1583 0.9170 0.8081
O1_15 O 0.0000 0.0000 0.2500
Cu2_10 Cu -0.0000 0.056127(14) 0.306127(14)
N5_9 N 0.06353(11) 0.02069(11) 0.33950(11)
N10_13 N 0.13656(9) -0.0000 0.38656(9)
N12_10 N -0.0000 0.11344(9) 0.36344(9)
C4_9 C 0.09222(13) 0.03168(13) 0.38304(13)
H4_9 H 0.0830 0.0581 0.4083
Cu1_9 Cu 0.056127(14) 0.943873(14) 0.2500
O1_16 O 0.0000 1.0000 0.2500
N1_9 N 0.02069(11) 0.91050(11) 0.18647(11)
N2_10 N 0.0000 0.86344(9) 0.11344(9)
C1_9 C 0.03168(13) 0.86696(13) 0.15778(13)
H1_9 H 0.0581 0.8417 0.1670
Cu4_8 Cu -0.0000 0.806127(14) 0.056127(14)
Cu6_10 Cu 0.2500 0.806127(14) 0.193873(14)
N4_9 N 0.08950(11) 0.97931(11) 0.31353(11)
N6_9 N 0.18647(11) 0.83950(11) 0.22931(11)
N7_9 N 0.16050(11) 0.81353(11) 0.27069(11)
N10_14 N 0.13656(9) 1.0000 0.38656(9)
N11_9 N 0.11344(9) 0.88656(9) 0.2500
C3_9 C 0.13304(13) 0.96832(13) 0.34222(13)
C5_9 C 0.15778(13) 0.88304(13) 0.21832(13)
C6_9 C 0.11696(13) 0.84222(13) 0.28168(13)
H3_9 H 0.1583 0.9419 0.3330
H5_9 H 0.1670 0.9083 0.1919
H6_9 H 0.0917 0.8330 0.3081
O1_17 O 1.0000 0.0000 0.2500
Cu2_11 Cu 1.0000 0.056127(14) 0.306127(14)
Cu3_13 Cu 0.943873(14) 0.0000 0.193873(14)
N8_9 N 0.93647(11) 0.08950(11) 0.27069(11)
N9_9 N 0.91050(11) 0.06353(11) 0.22931(11)
N12_11 N 1.0000 0.11344(9) 0.36344(9)
N13_13 N 0.88656(9) 0.0000 0.13656(9)
O1_18 O 1.0000 1.0000 0.2500
N2_11 N 1.0000 0.86344(9) 0.11344(9)
Cu3_14 Cu 0.943873(14) 1.0000 0.193873(14)
Cu4_9 Cu 1.0000 0.806127(14) 0.056127(14)
N3_9 N 0.97931(11) 0.93647(11) 0.16050(11)
N13_14 N 0.88656(9) 1.0000 0.13656(9)
C2_9 C 0.96832(13) 0.90778(13) 0.11696(13)
H2_9 H 0.9419 0.9170 0.0917
Cu1_10 Cu 0.806127(14) 0.7500 0.193873(14)
O1_19 O 0.7500 0.7500 0.2500
N1_10 N 0.83950(11) 0.68647(11) 0.22931(11)
N2_12 N 0.88656(9) 0.61344(9) 0.2500
C1_10 C 0.88304(13) 0.65778(13) 0.21832(13)
H1_10 H 0.9083 0.6670 0.1919
Cu2_12 Cu 0.693873(14) 0.806127(14) 0.2500
Cu3_15 Cu 0.7500 0.693873(14) 0.306127(14)
Cu5_11 Cu 0.7500 0.943873(14) 0.056127(14)
N3_10 N 0.81353(11) 0.66050(11) 0.27069(11)
N4_10 N 0.77069(11) 0.81353(11) 0.16050(11)
N5_10 N 0.72931(11) 0.83950(11) 0.18647(11)
N6_10 N 0.91050(11) 0.72931(11) 0.06353(11)
N7_10 N 0.93647(11) 0.77069(11) 0.08950(11)
N8_10 N 0.66050(11) 0.77069(11) 0.31353(11)
N9_10 N 0.68647(11) 0.72931(11) 0.33950(11)
N10_15 N 0.7500 0.88656(9) 0.11344(9)
N11_10 N 0.86344(9) 0.7500 0.13656(9)
N12_12 N 0.63656(9) 0.86344(9) 0.2500
N13_15 N 0.7500 0.63656(9) 0.36344(9)
C2_10 C 0.84222(13) 0.61696(13) 0.28168(13)
C3_10 C 0.78168(13) 0.84222(13) 0.11696(13)
C4_10 C 0.71832(13) 0.88304(13) 0.15778(13)
C5_10 C 0.86696(13) 0.71832(13) 0.09222(13)
C6_10 C 0.90778(13) 0.78168(13) 0.13304(13)
H2_10 H 0.8330 0.5917 0.3081
H3_10 H 0.8081 0.8330 0.0917
H4_10 H 0.6919 0.9083 0.1670
H5_10 H 0.8417 0.6919 0.0830
H6_10 H 0.9170 0.8081 0.1583
Cu1_11 Cu 0.306127(14) 0.5000 0.556127(14)
O1_20 O 0.2500 0.5000 0.5000
N1_11 N 0.33950(11) 0.56353(11) 0.52069(11)
N2_13 N 0.38656(9) 0.63656(9) 0.5000
C1_11 C 0.38304(13) 0.59222(13) 0.53168(13)
H1_11 H 0.4083 0.5830 0.5581
Cu2_13 Cu 0.193873(14) 0.443873(14) 0.5000
Cu3_16 Cu 0.2500 0.556127(14) 0.443873(14)
Cu5_12 Cu 0.2500 0.306127(14) 0.693873(14)
Cu6_11 Cu 0.443873(14) 0.556127(14) 0.7500
N3_11 N 0.31353(11) 0.58950(11) 0.47931(11)
N4_11 N 0.27069(11) 0.43647(11) 0.58950(11)
N5_11 N 0.22931(11) 0.41050(11) 0.56353(11)
N6_11 N 0.41050(11) 0.52069(11) 0.68647(11)
N7_11 N 0.43647(11) 0.47931(11) 0.66050(11)
N8_11 N 0.16050(11) 0.47931(11) 0.43647(11)
N9_11 N 0.18647(11) 0.52069(11) 0.41050(11)
N10_16 N 0.2500 0.36344(9) 0.63656(9)
N11_11 N 0.36344(9) 0.5000 0.61344(9)
N12_13 N 0.13656(9) 0.38656(9) 0.5000
N13_16 N 0.2500 0.61344(9) 0.38656(9)
C2_11 C 0.34222(13) 0.63304(13) 0.46832(13)
C3_11 C 0.28168(13) 0.40778(13) 0.63304(13)
C4_11 C 0.21832(13) 0.36696(13) 0.59222(13)
C5_11 C 0.36696(13) 0.53168(13) 0.65778(13)
C6_11 C 0.40778(13) 0.46832(13) 0.61696(13)
H2_11 H 0.3330 0.6583 0.4419
H3_11 H 0.3081 0.4170 0.6583
H4_11 H 0.1919 0.3417 0.5830
H5_11 H 0.3417 0.5581 0.6670
H6_11 H 0.4170 0.4419 0.5917
O1_21 O 0.0000 0.2500 0.0000
Cu2_14 Cu 0.056127(14) 0.306127(14) 0.0000
N5_12 N 0.02069(11) 0.33950(11) 0.06353(11)
N10_17 N -0.0000 0.38656(9) 0.13656(9)
N12_14 N 0.11344(9) 0.36344(9) 0.0000
C4_12 C 0.03168(13) 0.38304(13) 0.09222(13)
H4_12 H 0.0581 0.4083 0.0830
O1_22 O 0.0000 0.2500 1.0000
Cu2_15 Cu 0.056127(14) 0.306127(14) 1.0000
Cu3_17 Cu -0.0000 0.193873(14) 0.943873(14)
N8_12 N 0.08950(11) 0.27069(11) 0.93647(11)
N9_12 N 0.06353(11) 0.22931(11) 0.91050(11)
N12_15 N 0.11344(9) 0.36344(9) 1.0000
N13_17 N -0.0000 0.13656(9) 0.88656(9)
Cu1_12 Cu 0.943873(14) 0.2500 0.056127(14)
O1_23 O 1.0000 0.2500 0.0000
N1_12 N 0.91050(11) 0.18647(11) 0.02069(11)
N2_14 N 0.86344(9) 0.11344(9) 0.0000
C1_12 C 0.86696(13) 0.15778(13) 0.03168(13)
H1_12 H 0.8417 0.1670 0.0581
Cu6_12 Cu 0.806127(14) 0.193873(14) 0.2500
N4_12 N 0.97931(11) 0.31353(11) 0.08950(11)
N6_12 N 0.83950(11) 0.22931(11) 0.18647(11)
N7_12 N 0.81353(11) 0.27069(11) 0.16050(11)
N10_18 N 1.0000 0.38656(9) 0.13656(9)
N11_12 N 0.88656(9) 0.2500 0.11344(9)
C3_12 C 0.96832(13) 0.34222(13) 0.13304(13)
C5_12 C 0.88304(13) 0.21832(13) 0.15778(13)
C6_12 C 0.84222(13) 0.28168(13) 0.11696(13)
H3_12 H 0.9419 0.3330 0.1583
H5_12 H 0.9083 0.1919 0.1670
H6_12 H 0.8330 0.3081 0.0917
O1_24 O 1.0000 0.2500 1.0000
N2_15 N 0.86344(9) 0.11344(9) 1.0000
Cu3_18 Cu 1.0000 0.193873(14) 0.943873(14)
N3_12 N 0.93647(11) 0.16050(11) 0.97931(11)
N13_18 N 1.0000 0.13656(9) 0.88656(9)
C2_12 C 0.90778(13) 0.11696(13) 0.96832(13)
H2_12 H 0.9170 0.0917 0.9419
Cu1_13 Cu 0.806127(14) -0.0000 0.556127(14)
O1_25 O 0.7500 0.0000 0.5000
Cu2_16 Cu 0.7500 0.056127(14) 0.443873(14)
Cu5_13 Cu 0.943873(14) 0.193873(14) 0.5000
N4_13 N 0.83950(11) 0.06353(11) 0.52069(11)
N5_13 N 0.81353(11) 0.08950(11) 0.47931(11)
N7_13 N 0.91050(11) 0.02069(11) 0.68647(11)
N8_13 N 0.68647(11) 0.02069(11) 0.41050(11)
N10_19 N 0.88656(9) 0.13656(9) 0.5000
N11_13 N 0.86344(9) -0.0000 0.61344(9)
N12_16 N 0.7500 0.11344(9) 0.38656(9)
C3_13 C 0.88304(13) 0.09222(13) 0.53168(13)
C4_13 C 0.84222(13) 0.13304(13) 0.46832(13)
C6_13 C 0.86696(13) 0.03168(13) 0.65778(13)
H3_13 H 0.9083 0.0830 0.5581
H4_13 H 0.8330 0.1583 0.4419
H6_13 H 0.8417 0.0581 0.6670
Cu1_14 Cu 0.806127(14) 1.0000 0.556127(14)
O1_26 O 0.7500 1.0000 0.5000
N1_13 N 0.77069(11) 0.93647(11) 0.58950(11)
N2_16 N 0.7500 0.86344(9) 0.63656(9)
C1_13 C 0.78168(13) 0.90778(13) 0.63304(13)
H1_13 H 0.8081 0.9170 0.6583
Cu3_19 Cu 0.693873(14) 0.943873(14) 0.5000
Cu4_10 Cu 0.7500 0.806127(14) 0.693873(14)
N3_13 N 0.72931(11) 0.91050(11) 0.56353(11)
N6_13 N 0.93647(11) 0.97931(11) 0.66050(11)
N9_13 N 0.66050(11) 0.97931(11) 0.43647(11)
N11_14 N 0.86344(9) 1.0000 0.61344(9)
N13_19 N 0.63656(9) 0.88656(9) 0.5000
C2_13 C 0.71832(13) 0.86696(13) 0.59222(13)
C5_13 C 0.90778(13) 0.96832(13) 0.61696(13)
H2_13 H 0.6919 0.8417 0.5830
H5_13 H 0.9170 0.9419 0.5917
Cu1_15 Cu 0.443873(14) 0.7500 0.056127(14)
O1_27 O 0.5000 0.7500 0.0000
N1_14 N 0.47931(11) 0.81353(11) 0.08950(11)
N2_17 N 0.5000 0.88656(9) 0.13656(9)
C1_14 C 0.46832(13) 0.84222(13) 0.13304(13)
H1_14 H 0.4419 0.8330 0.1583
Cu3_20 Cu 0.556127(14) 0.806127(14) 0.0000
Cu4_11 Cu 0.5000 0.943873(14) 0.193873(14)
Cu5_14 Cu 0.306127(14) 0.556127(14) 0.0000
N3_14 N 0.52069(11) 0.83950(11) 0.06353(11)
N4_14 N 0.41050(11) 0.68647(11) 0.02069(11)
N6_14 N 0.31353(11) 0.77069(11) 0.16050(11)
N7_14 N 0.33950(11) 0.72931(11) 0.18647(11)
N10_20 N 0.36344(9) 0.61344(9) 0.0000
N11_15 N 0.38656(9) 0.7500 0.11344(9)
N13_20 N 0.61344(9) 0.86344(9) 0.0000
C2_14 C 0.53168(13) 0.88304(13) 0.09222(13)
C3_14 C 0.36696(13) 0.65778(13) 0.03168(13)
C5_14 C 0.34222(13) 0.78168(13) 0.11696(13)
C6_14 C 0.38304(13) 0.71832(13) 0.15778(13)
H2_14 H 0.5581 0.9083 0.0830
H3_14 H 0.3417 0.6670 0.0581
H5_14 H 0.3330 0.8081 0.0917
H6_14 H 0.4083 0.6919 0.1670
O1_28 O 0.5000 0.7500 1.0000
Cu2_17 Cu 0.5000 0.693873(14) 0.943873(14)
Cu3_21 Cu 0.556127(14) 0.806127(14) 1.0000
Cu5_15 Cu 0.306127(14) 0.556127(14) 1.0000
N5_14 N 0.43647(11) 0.66050(11) 0.97931(11)
N8_14 N 0.56353(11) 0.72931(11) 0.91050(11)
N9_14 N 0.58950(11) 0.77069(11) 0.93647(11)
N10_21 N 0.36344(9) 0.61344(9) 1.0000
N12_17 N 0.5000 0.63656(9) 0.88656(9)
N13_21 N 0.61344(9) 0.86344(9) 1.0000
C4_14 C 0.40778(13) 0.61696(13) 0.96832(13)
H4_14 H 0.4170 0.5917 0.9419
Cu7_7 Cu 0.2500 0.443873(14) 0.056127(14)
N7_15 N 0.18647(11) 0.41050(11) 0.02069(11)
C6_15 C 0.15778(13) 0.36696(13) 0.03168(13)
H6_15 H 0.1670 0.3417 0.0581
N2_18 N 0.13656(9) 0.2500 0.86344(9)
C1_15 C 0.13304(13) 0.28168(13) 0.90778(13)
H1_15 H 0.1583 0.3081 0.9170
Cu6_13 Cu 0.193873(14) 0.5000 0.943873(14)
N6_15 N 0.16050(11) 0.43647(11) 0.97931(11)
C2_15 C 0.09222(13) 0.21832(13) 0.86696(13)
C5_15 C 0.11696(13) 0.40778(13) 0.96832(13)
H2_15 H 0.0830 0.1919 0.8417
H5_15 H 0.0917 0.4170 0.9419
N2_19 N 0.11344(9) 0.5000 0.36344(9)
C1_16 C 0.11696(13) 0.46832(13) 0.40778(13)
H1_16 H 0.0917 0.4419 0.4170
Cu4_12 Cu 0.056127(14) 0.5000 0.306127(14)
Cu6_14 Cu 0.056127(14) 0.2500 0.443873(14)
Cu7_8 Cu -0.0000 0.306127(14) 0.556127(14)
N6_16 N 0.08950(11) 0.31353(11) 0.47931(11)
N7_16 N 0.06353(11) 0.33950(11) 0.52069(11)
C2_16 C 0.15778(13) 0.53168(13) 0.36696(13)
C5_16 C 0.13304(13) 0.34222(13) 0.46832(13)
C6_16 C 0.09222(13) 0.38304(13) 0.53168(13)
H2_16 H 0.1670 0.5581 0.3417
H5_16 H 0.1583 0.3330 0.4419
H6_16 H 0.0830 0.4083 0.5581
Cu7_9 Cu 1.0000 0.306127(14) 0.556127(14)
N2_20 N 0.61344(9) 0.7500 0.38656(9)
C1_17 C 0.65778(13) 0.71832(13) 0.38304(13)
H1_17 H 0.6670 0.6919 0.4083
Cu7_10 Cu 0.806127(14) 0.556127(14) 0.5000
N6_17 N 0.72931(11) 0.56353(11) 0.41050(11)
N7_17 N 0.77069(11) 0.58950(11) 0.43647(11)
C2_17 C 0.61696(13) 0.78168(13) 0.34222(13)
C5_17 C 0.71832(13) 0.59222(13) 0.36696(13)
C6_17 C 0.78168(13) 0.63304(13) 0.40778(13)
H2_17 H 0.5917 0.8081 0.3330
H5_17 H 0.6919 0.5830 0.3417
H6_17 H 0.8081 0.6583 0.4170
Cu1_16 Cu 0.193873(14) 0.306127(14) 0.2500
O1_29 O 0.2500 0.2500 0.2500
N1_15 N 0.22931(11) 0.33950(11) 0.18647(11)
N2_21 N 0.2500 0.38656(9) 0.11344(9)
C1_18 C 0.21832(13) 0.38304(13) 0.15778(13)
H1_18 H 0.1919 0.4083 0.1670
Cu2_18 Cu 0.2500 0.193873(14) 0.306127(14)
Cu3_22 Cu 0.306127(14) 0.2500 0.193873(14)
N3_15 N 0.27069(11) 0.31353(11) 0.16050(11)
N4_15 N 0.16050(11) 0.27069(11) 0.31353(11)
N5_15 N 0.18647(11) 0.22931(11) 0.33950(11)
N6_18 N 0.06353(11) 0.41050(11) 0.22931(11)
N7_18 N 0.08950(11) 0.43647(11) 0.27069(11)
N8_15 N 0.31353(11) 0.16050(11) 0.27069(11)
N9_15 N 0.33950(11) 0.18647(11) 0.22931(11)
N10_22 N 0.11344(9) 0.2500 0.38656(9)
N11_16 N 0.13656(9) 0.36344(9) 0.2500
N12_18 N 0.2500 0.13656(9) 0.36344(9)
N13_22 N 0.36344(9) 0.2500 0.13656(9)
C2_18 C 0.28168(13) 0.34222(13) 0.11696(13)
C3_15 C 0.11696(13) 0.28168(13) 0.34222(13)
C4_15 C 0.15778(13) 0.21832(13) 0.38304(13)
C5_18 C 0.09222(13) 0.36696(13) 0.21832(13)
C6_18 C 0.13304(13) 0.40778(13) 0.28168(13)
H2_18 H 0.3081 0.3330 0.0917
H3_15 H 0.0917 0.3081 0.3330
H4_15 H 0.1670 0.1919 0.4083
H5_18 H 0.0830 0.3417 0.1919
H6_18 H 0.1583 0.4170 0.3081
Cu1_17 Cu 0.056127(14) 0.443873(14) 0.7500
O1_30 O -0.0000 0.5000 0.7500
N1_16 N 0.02069(11) 0.41050(11) 0.68647(11)
N2_22 N -0.0000 0.36344(9) 0.61344(9)
C1_19 C 0.03168(13) 0.36696(13) 0.65778(13)
H1_19 H 0.0581 0.3417 0.6670
Cu2_19 Cu 0.0000 0.556127(14) 0.806127(14)
N4_16 N 0.08950(11) 0.47931(11) 0.81353(11)
N5_16 N 0.06353(11) 0.52069(11) 0.83950(11)
N6_19 N 0.18647(11) 0.33950(11) 0.72931(11)
N7_19 N 0.16050(11) 0.31353(11) 0.77069(11)
N10_23 N 0.13656(9) 0.5000 0.88656(9)
N11_17 N 0.11344(9) 0.38656(9) 0.7500
N12_19 N -0.0000 0.61344(9) 0.86344(9)
C3_16 C 0.13304(13) 0.46832(13) 0.84222(13)
C4_16 C 0.09222(13) 0.53168(13) 0.88304(13)
C5_19 C 0.15778(13) 0.38304(13) 0.71832(13)
C6_19 C 0.11696(13) 0.34222(13) 0.78168(13)
H3_16 H 0.1583 0.4419 0.8330
H4_16 H 0.0830 0.5581 0.9083
H5_19 H 0.1670 0.4083 0.6919
H6_19 H 0.0917 0.3330 0.8081
O1_31 O 1.0000 0.5000 0.7500
N2_23 N 1.0000 0.36344(9) 0.61344(9)
Cu2_20 Cu 1.0000 0.556127(14) 0.806127(14)
Cu3_23 Cu 0.943873(14) 0.5000 0.693873(14)
N3_16 N 0.97931(11) 0.43647(11) 0.66050(11)
N8_16 N 0.93647(11) 0.58950(11) 0.77069(11)
N9_16 N 0.91050(11) 0.56353(11) 0.72931(11)
N12_20 N 1.0000 0.61344(9) 0.86344(9)
N13_23 N 0.88656(9) 0.5000 0.63656(9)
C2_19 C 0.96832(13) 0.40778(13) 0.61696(13)
H2_19 H 0.9419 0.4170 0.5917
Cu6_15 Cu 0.443873(14) 0.056127(14) 0.2500
N6_20 N 0.41050(11) 0.02069(11) 0.18647(11)
C5_20 C 0.36696(13) 0.03168(13) 0.15778(13)
H5_20 H 0.3417 0.0581 0.1670
N7_20 N 0.43647(11) 0.97931(11) 0.16050(11)
N10_24 N 0.2500 0.86344(9) 0.13656(9)
C3_17 C 0.28168(13) 0.90778(13) 0.13304(13)
C4_17 C 0.21832(13) 0.86696(13) 0.09222(13)
C6_20 C 0.40778(13) 0.96832(13) 0.11696(13)
H3_17 H 0.3081 0.9170 0.1583
H4_17 H 0.1919 0.8417 0.0830
H6_20 H 0.4170 0.9419 0.0917
N2_24 N 0.86344(9) 0.61344(9) 0.5000
C1_20 C 0.86696(13) 0.65778(13) 0.53168(13)
H1_20 H 0.8417 0.6670 0.5581
Cu6_16 Cu 0.806127(14) 0.693873(14) 0.7500
N6_21 N 0.83950(11) 0.72931(11) 0.68647(11)
N7_21 N 0.81353(11) 0.77069(11) 0.66050(11)
C2_20 C 0.90778(13) 0.61696(13) 0.46832(13)
C5_21 C 0.88304(13) 0.71832(13) 0.65778(13)
C6_21 C 0.84222(13) 0.78168(13) 0.61696(13)
H2_20 H 0.9170 0.5917 0.4419
H5_21 H 0.9083 0.6919 0.6670
H6_21 H 0.8330 0.8081 0.5917
N7_22 N 0.68647(11) 0.91050(11) 0.02069(11)
C6_22 C 0.65778(13) 0.86696(13) 0.03168(13)
H6_22 H 0.6670 0.8417 0.0581
N2_25 N 0.63656(9) 0.7500 0.86344(9)
C1_21 C 0.63304(13) 0.78168(13) 0.90778(13)
H1_21 H 0.6583 0.8081 0.9170
Cu4_13 Cu 0.693873(14) 0.7500 0.806127(14)
N6_22 N 0.66050(11) 0.93647(11) 0.97931(11)
C2_21 C 0.59222(13) 0.71832(13) 0.86696(13)
C5_22 C 0.61696(13) 0.90778(13) 0.96832(13)
H2_21 H 0.5830 0.6919 0.8417
H5_22 H 0.5917 0.9170 0.9419
N7_23 N 0.02069(11) 0.18647(11) 0.41050(11)
C6_23 C 0.03168(13) 0.15778(13) 0.36696(13)
H6_23 H 0.0581 0.1670 0.3417
N2_26 N 0.86344(9) 0.13656(9) 0.2500
C1_22 C 0.90778(13) 0.13304(13) 0.28168(13)
H1_22 H 0.9170 0.1583 0.3081
N6_23 N 0.97931(11) 0.16050(11) 0.43647(11)
C2_22 C 0.86696(13) 0.09222(13) 0.21832(13)
C5_23 C 0.96832(13) 0.11696(13) 0.40778(13)
H2_22 H 0.8417 0.0830 0.1919
H5_23 H 0.9419 0.0917 0.4170
N2_27 N 0.36344(9) 0.11344(9) 0.5000
C1_23 C 0.40778(13) 0.11696(13) 0.46832(13)
H1_23 H 0.4170 0.0917 0.4419
Cu4_14 Cu 0.306127(14) 0.056127(14) 0.5000
Cu7_11 Cu 0.556127(14) 0.0000 0.306127(14)
N6_24 N 0.47931(11) 0.08950(11) 0.31353(11)
N7_24 N 0.52069(11) 0.06353(11) 0.33950(11)
C2_23 C 0.36696(13) 0.15778(13) 0.53168(13)
C5_24 C 0.46832(13) 0.13304(13) 0.34222(13)
C6_24 C 0.53168(13) 0.09222(13) 0.38304(13)
H2_23 H 0.3417 0.1670 0.5581
H5_24 H 0.4419 0.1583 0.3330
H6_24 H 0.5581 0.0830 0.4083
Cu7_12 Cu 0.556127(14) 1.0000 0.306127(14)
N2_28 N 0.61344(9) -0.0000 0.36344(9)
C1_24 C 0.65778(13) 0.03168(13) 0.36696(13)
H1_24 H 0.6670 0.0581 0.3417
N6_25 N 0.72931(11) 0.18647(11) 0.33950(11)
N7_25 N 0.77069(11) 0.16050(11) 0.31353(11)
C5_25 C 0.71832(13) 0.15778(13) 0.38304(13)
C6_25 C 0.78168(13) 0.11696(13) 0.34222(13)
H5_25 H 0.6919 0.1670 0.4083
H6_25 H 0.8081 0.0917 0.3330
N2_29 N 0.61344(9) 1.0000 0.36344(9)
C2_24 C 0.61696(13) 0.96832(13) 0.40778(13)
H2_24 H 0.5917 0.9419 0.4170
N6_26 N 0.22931(11) 0.06353(11) 0.41050(11)
N7_26 N 0.27069(11) 0.08950(11) 0.43647(11)
N10_25 N 0.38656(9) 0.11344(9) 0.2500
C3_18 C 0.34222(13) 0.11696(13) 0.28168(13)
C4_18 C 0.38304(13) 0.15778(13) 0.21832(13)
C5_26 C 0.21832(13) 0.09222(13) 0.36696(13)
C6_26 C 0.28168(13) 0.13304(13) 0.40778(13)
H3_18 H 0.3330 0.0917 0.3081
H4_18 H 0.4083 0.1670 0.1919
H5_26 H 0.1919 0.0830 0.3417
H6_26 H 0.3081 0.1583 0.4170
N2_30 N 0.5000 0.86344(9) 0.61344(9)
C1_25 C 0.53168(13) 0.86696(13) 0.65778(13)
H1_25 H 0.5581 0.8417 0.6670
Cu4_15 Cu 0.5000 0.806127(14) 0.556127(14)
N6_27 N 0.68647(11) 0.83950(11) 0.72931(11)
N7_27 N 0.66050(11) 0.81353(11) 0.77069(11)
C2_25 C 0.46832(13) 0.90778(13) 0.61696(13)
C5_27 C 0.65778(13) 0.88304(13) 0.71832(13)
C6_27 C 0.61696(13) 0.84222(13) 0.78168(13)
H2_25 H 0.4419 0.9170 0.5917
H5_27 H 0.6670 0.9083 0.6919
H6_27 H 0.5917 0.8330 0.8081
N2_31 N 0.38656(9) 0.61344(9) 0.7500
C1_26 C 0.38304(13) 0.65778(13) 0.71832(13)
H1_26 H 0.4083 0.6670 0.6919
N6_28 N 0.41050(11) 0.72931(11) 0.56353(11)
N7_28 N 0.43647(11) 0.77069(11) 0.58950(11)
C2_26 C 0.34222(13) 0.61696(13) 0.78168(13)
C5_28 C 0.36696(13) 0.71832(13) 0.59222(13)
C6_28 C 0.40778(13) 0.78168(13) 0.63304(13)
H2_26 H 0.3330 0.5917 0.8081
H5_28 H 0.3417 0.6919 0.5830
H6_28 H 0.4170 0.8081 0.6583
N2_32 N 0.5000 0.36344(9) 0.11344(9)
C1_27 C 0.46832(13) 0.40778(13) 0.11696(13)
H1_27 H 0.4419 0.4170 0.0917
Cu4_16 Cu 0.5000 0.306127(14) 0.056127(14)
N6_29 N 0.31353(11) 0.47931(11) 0.08950(11)
N7_29 N 0.33950(11) 0.52069(11) 0.06353(11)
C2_27 C 0.53168(13) 0.36696(13) 0.15778(13)
C5_29 C 0.34222(13) 0.46832(13) 0.13304(13)
C6_29 C 0.38304(13) 0.53168(13) 0.09222(13)
H2_27 H 0.5581 0.3417 0.1670
H5_29 H 0.3330 0.4419 0.1583
H6_29 H 0.4083 0.5581 0.0830
N7_30 N 0.02069(11) 0.68647(11) 0.91050(11)
C6_30 C 0.03168(13) 0.65778(13) 0.86696(13)
H6_30 H 0.0581 0.6670 0.8417
N2_33 N 0.86344(9) 0.63656(9) 0.7500
C1_28 C 0.90778(13) 0.63304(13) 0.78168(13)
H1_28 H 0.9170 0.6583 0.8081
N6_30 N 0.97931(11) 0.66050(11) 0.93647(11)
C2_28 C 0.86696(13) 0.59222(13) 0.71832(13)
C5_30 C 0.96832(13) 0.61696(13) 0.90778(13)
H2_28 H 0.8417 0.5830 0.6919
H5_30 H 0.9419 0.5917 0.9170
N2_34 N 0.61344(9) 0.5000 0.86344(9)
C1_29 C 0.65778(13) 0.53168(13) 0.86696(13)
H1_29 H 0.6670 0.5581 0.8417
Cu4_17 Cu 0.556127(14) 0.5000 0.806127(14)
N6_31 N 0.72931(11) 0.68647(11) 0.83950(11)
N7_31 N 0.77069(11) 0.66050(11) 0.81353(11)
C2_29 C 0.61696(13) 0.46832(13) 0.90778(13)
C5_31 C 0.71832(13) 0.65778(13) 0.88304(13)
C6_31 C 0.78168(13) 0.61696(13) 0.84222(13)
H2_29 H 0.5917 0.4419 0.9170
H5_31 H 0.6919 0.6670 0.9083
H6_31 H 0.8081 0.5917 0.8330
N2_35 N 0.7500 0.38656(9) 0.61344(9)
C1_30 C 0.71832(13) 0.38304(13) 0.65778(13)
H1_30 H 0.6919 0.4083 0.6670
N6_32 N 0.56353(11) 0.41050(11) 0.72931(11)
N7_32 N 0.58950(11) 0.43647(11) 0.77069(11)
C2_30 C 0.78168(13) 0.34222(13) 0.61696(13)
C5_32 C 0.59222(13) 0.36696(13) 0.71832(13)
C6_32 C 0.63304(13) 0.40778(13) 0.78168(13)
H2_30 H 0.8081 0.3330 0.5917
H5_32 H 0.5830 0.3417 0.6919
H6_32 H 0.6583 0.4170 0.8081
N6_33 N 0.41050(11) 0.22931(11) 0.06353(11)
N7_33 N 0.43647(11) 0.27069(11) 0.08950(11)
C5_33 C 0.36696(13) 0.21832(13) 0.09222(13)
C6_33 C 0.40778(13) 0.28168(13) 0.13304(13)
H5_33 H 0.3417 0.1919 0.0830
H6_33 H 0.4170 0.3081 0.1583
N6_34 N 0.31353(11) 0.27069(11) 0.66050(11)
N7_34 N 0.33950(11) 0.22931(11) 0.68647(11)
C5_34 C 0.34222(13) 0.28168(13) 0.61696(13)
C6_34 C 0.38304(13) 0.21832(13) 0.65778(13)
H5_34 H 0.3330 0.3081 0.5917
H6_34 H 0.4083 0.1919 0.6670
N7_35 N 0.83950(11) 0.02069(11) 0.06353(11)
C6_35 C 0.88304(13) 0.03168(13) 0.09222(13)
H6_35 H 0.9083 0.0581 0.0830
N6_35 N 0.81353(11) 0.97931(11) 0.08950(11)
C5_35 C 0.84222(13) 0.96832(13) 0.13304(13)
H5_35 H 0.8330 0.9419 0.1583
N6_36 N 0.66050(11) 0.31353(11) 0.27069(11)
N7_36 N 0.68647(11) 0.33950(11) 0.22931(11)
C5_36 C 0.61696(13) 0.34222(13) 0.28168(13)
C6_36 C 0.65778(13) 0.38304(13) 0.21832(13)
H5_36 H 0.5917 0.3330 0.3081
H6_36 H 0.6670 0.4083 0.1919
N7_37 N 0.06353(11) 0.83950(11) 0.02069(11)
C6_37 C 0.09222(13) 0.88304(13) 0.03168(13)
H6_37 H 0.0830 0.9083 0.0581
N6_37 N 0.08950(11) 0.81353(11) 0.97931(11)
C5_37 C 0.13304(13) 0.84222(13) 0.96832(13)
H5_37 H 0.1583 0.8330 0.9419
N6_38 N 0.27069(11) 0.66050(11) 0.31353(11)
N7_38 N 0.22931(11) 0.68647(11) 0.33950(11)
C5_38 C 0.28168(13) 0.61696(13) 0.34222(13)
C6_38 C 0.21832(13) 0.65778(13) 0.38304(13)
H5_38 H 0.3081 0.5917 0.3330
H6_38 H 0.1919 0.6670 0.4083
N7_39 N 0.02069(11) 0.06353(11) 0.83950(11)
C6_39 C 0.03168(13) 0.09222(13) 0.88304(13)
H6_39 H 0.0581 0.0830 0.9083
N6_39 N 0.97931(11) 0.08950(11) 0.81353(11)
C5_39 C 0.96832(13) 0.13304(13) 0.84222(13)
H5_39 H 0.9419 0.1583 0.8330
N6_40 N 0.02069(11) 0.56353(11) 0.33950(11)
C5_40 C 0.03168(13) 0.59222(13) 0.38304(13)
H5_40 H 0.0581 0.5830 0.4083
N7_40 N 0.97931(11) 0.58950(11) 0.31353(11)
C6_40 C 0.96832(13) 0.63304(13) 0.34222(13)
H6_40 H 0.9419 0.6583 0.3330
N6_41 N 0.56353(11) 0.33950(11) 0.02069(11)
C5_41 C 0.59222(13) 0.38304(13) 0.03168(13)
H5_41 H 0.5830 0.4083 0.0581
N7_41 N 0.58950(11) 0.31353(11) 0.97931(11)
C6_41 C 0.63304(13) 0.34222(13) 0.96832(13)
H6_41 H 0.6583 0.3330 0.9419
N6_42 N 0.33950(11) 0.02069(11) 0.56353(11)
C5_42 C 0.38304(13) 0.03168(13) 0.59222(13)
H5_42 H 0.4083 0.0581 0.5830
N7_42 N 0.31353(11) 0.97931(11) 0.58950(11)
C6_42 C 0.34222(13) 0.96832(13) 0.63304(13)
H6_42 H 0.3330 0.9419 0.6583
N6_43 N 0.81353(11) 0.47931(11) 0.58950(11)
N7_43 N 0.83950(11) 0.52069(11) 0.56353(11)
C5_43 C 0.84222(13) 0.46832(13) 0.63304(13)
C6_43 C 0.88304(13) 0.53168(13) 0.59222(13)
H5_43 H 0.8330 0.4419 0.6583
H6_43 H 0.9083 0.5581 0.5830
N6_44 N 0.58950(11) 0.93647(11) 0.27069(11)
N7_44 N 0.56353(11) 0.91050(11) 0.22931(11)
C5_44 C 0.63304(13) 0.90778(13) 0.28168(13)
C6_44 C 0.59222(13) 0.86696(13) 0.21832(13)
H5_44 H 0.6583 0.9170 0.3081
H6_44 H 0.5830 0.8417 0.1919
N6_45 N 0.56353(11) 0.83950(11) 0.52069(11)
N7_45 N 0.58950(11) 0.81353(11) 0.47931(11)
C5_45 C 0.59222(13) 0.88304(13) 0.53168(13)
C6_45 C 0.63304(13) 0.84222(13) 0.46832(13)
H5_45 H 0.5830 0.9083 0.5581
H6_45 H 0.6583 0.8330 0.4419
N6_46 N 0.91050(11) 0.22931(11) 0.56353(11)
N7_46 N 0.93647(11) 0.27069(11) 0.58950(11)
C5_46 C 0.86696(13) 0.21832(13) 0.59222(13)
C6_46 C 0.90778(13) 0.28168(13) 0.63304(13)
H5_46 H 0.8417 0.1919 0.5830
H6_46 H 0.9170 0.3081 0.6583
N6_47 N 0.27069(11) 0.58950(11) 0.93647(11)
N7_47 N 0.22931(11) 0.56353(11) 0.91050(11)
C5_47 C 0.28168(13) 0.63304(13) 0.90778(13)
C6_47 C 0.21832(13) 0.59222(13) 0.86696(13)
H5_47 H 0.3081 0.6583 0.9170
H6_47 H 0.1919 0.5830 0.8417
N6_48 N 0.52069(11) 0.56353(11) 0.83950(11)
N7_48 N 0.47931(11) 0.58950(11) 0.81353(11)
C5_48 C 0.53168(13) 0.59222(13) 0.88304(13)
C6_48 C 0.46832(13) 0.63304(13) 0.84222(13)
H5_48 H 0.5581 0.5830 0.9083
H6_48 H 0.4419 0.6583 0.8330
O1_32 O 0.2500 0.5000 0.0000
O1_33 O 0.2500 0.5000 1.0000
O1_34 O 0.0000 0.2500 0.5000
O1_35 O 1.0000 0.2500 0.5000
O1_36 O 0.5000 0.0000 0.2500
O1_37 O 0.5000 1.0000 0.2500
O1_38 O 0.7500 0.0000 0.0000
O1_39 O 0.7500 0.0000 1.0000
O1_40 O 0.7500 1.0000 0.0000
O1_41 O 0.7500 1.0000 1.0000
O1_42 O 0.2500 0.7500 0.2500
O1_43 O 0.5000 0.5000 0.7500
O1_44 O 0.5000 0.7500 0.5000
O1_45 O 0.7500 0.2500 0.2500
O1_46 O 0.0000 0.0000 0.7500
O1_47 O 0.0000 1.0000 0.7500
O1_48 O 1.0000 0.0000 0.7500
O1_49 O 1.0000 1.0000 0.7500
O1_50 O 0.2500 0.2500 0.7500
O1_51 O 0.7500 0.5000 0.5000
O1_52 O 0.0000 0.7500 0.0000
O1_53 O 0.0000 0.7500 1.0000
O1_54 O 1.0000 0.7500 0.0000
O1_55 O 1.0000 0.7500 1.0000
O1_56 O 0.2500 0.0000 0.5000
O1_57 O 0.2500 1.0000 0.5000
O1_58 O 0.5000 0.2500 0.0000
O1_59 O 0.5000 0.2500 1.0000
O1_60 O 0.7500 0.7500 0.7500
O1_61 O 0.0000 0.5000 0.2500
O1_62 O 1.0000 0.5000 0.2500
O2 O 0.8612(6) 0.4317(10) 0.9999(9)
H7 H 0.901494 0.4317 0.9999
O2_2 O 0.9999(9) 0.8612(6) 0.4317(10)
H7_2 H 0.9999 0.901494 0.4317
O2_3 O 0.4317(10) 0.9999(9) 0.8612(6)
H7_3 H 0.4317 0.9999 0.901494
O2_4 O 0.1817(10) 0.1112(6) 0.0001(9)
H7_4 H 0.1817 0.151494 0.0001
O2_5 O 0.6817(10) 0.1388(6) 0.7499(9)
H7_5 H 0.6817 0.0985062 0.7499
O2_6 O 0.5683(10) 0.6112(6) 0.2499(9)
H7_6 H 0.5683 0.651494 0.2499
O2_7 O 0.6112(6) 0.2499(9) 0.5683(10)
H7_7 H 0.651494 0.2499 0.5683
O2_8 O 0.1388(6) 0.7499(9) 0.6817(10)
H7_8 H 0.0985062 0.7499 0.6817
O2_9 O 0.1112(6) 0.0001(9) 0.1817(10)
H7_9 H 0.151494 0.0001 0.1817
O2_10 O 0.7499(9) 0.6817(10) 0.1388(6)
H7_10 H 0.7499 0.6817 0.0985062
O2_11 O 0.2499(9) 0.5683(10) 0.6112(6)
H7_11 H 0.2499 0.5683 0.651494
O2_12 O 0.0001(9) 0.1817(10) 0.1112(6)
H7_12 H 0.0001 0.1817 0.151494
O2_13 O 0.8612(6) 0.9317(10) 0.4999(9)
H7_13 H 0.901494 0.9317 0.4999
O2_14 O 0.3888(6) 0.8183(10) 0.9999(9)
H7_14 H 0.348506 0.8183 0.9999
O2_15 O 0.9999(9) 0.3612(6) 0.9317(10)
H7_15 H 0.9999 0.401494 0.9317
O2_16 O 0.2501(9) 0.3888(6) 0.4317(10)
H7_16 H 0.2501 0.348506 0.4317
O2_17 O 0.4317(10) 0.4999(9) 0.3612(6)
H7_17 H 0.4317 0.4999 0.401494
O2_18 O 0.8183(10) 0.2501(9) 0.8612(6)
H7_18 H 0.8183 0.2501 0.901494
O2_19 O 0.6817(10) 0.6388(6) 0.2499(9)
H7_19 H 0.6817 0.598506 0.2499
O2_20 O 0.5683(10) 0.1112(6) 0.7499(9)
H7_20 H 0.5683 0.151494 0.7499
O2_21 O 0.1388(6) 0.2499(9) 0.1817(10)
H7_21 H 0.0985062 0.2499 0.1817
O2_22 O 0.1112(6) 0.5001(9) 0.6817(10)
H7_22 H 0.151494 0.5001 0.6817
O2_23 O 0.2499(9) 0.0683(10) 0.1112(6)
H7_23 H 0.2499 0.0683 0.151494
O2_24 O 0.0001(9) 0.6817(10) 0.6112(6)
H7_24 H 0.0001 0.6817 0.651494
O2_25 O 0.3612(6) 0.4317(10) 0.4999(9)
H7_25 H 0.401494 0.4317 0.4999
O2_26 O 0.8612(6) 0.8183(10) 0.2501(9)
H7_26 H 0.901494 0.8183 0.2501
O2_27 O 0.4999(9) 0.8612(6) 0.9317(10)
H7_27 H 0.4999 0.901494 0.9317
O2_28 O 0.9999(9) 0.3888(6) 0.8183(10)
H7_28 H 0.9999 0.348506 0.8183
O2_29 O 0.9317(10) 0.9999(9) 0.3612(6)
H7_29 H 0.9317 0.9999 0.401494
O2_30 O 0.4317(10) 0.2501(9) 0.3888(6)
H7_30 H 0.4317 0.2501 0.348506
O2_31 O 0.6817(10) 0.1112(6) 0.5001(9)
H7_31 H 0.6817 0.151494 0.5001
O2_32 O 0.1817(10) 0.1388(6) 0.2499(9)
H7_32 H 0.1817 0.0985062 0.2499
O2_33 O 0.1112(6) 0.2499(9) 0.0683(10)
H7_33 H 0.151494 0.2499 0.0683
O2_34 O 0.6112(6) 0.0001(9) 0.6817(10)
H7_34 H 0.651494 0.0001 0.6817
O2_35 O 0.2499(9) 0.6817(10) 0.6388(6)
H7_35 H 0.2499 0.6817 0.598506
O2_36 O 0.7499(9) 0.5683(10) 0.1112(6)
H7_36 H 0.7499 0.5683 0.151494
O2_37 O 0.3612(6) 0.9317(10) 0.9999(9)
H7_37 H 0.401494 0.9317 0.9999
O2_38 O 0.3888(6) 0.4317(10) 0.2501(9)
H7_38 H 0.348506 0.4317 0.2501
O2_39 O 0.4999(9) 0.3612(6) 0.4317(10)
H7_39 H 0.4999 0.401494 0.4317
O2_40 O 0.2501(9) 0.8612(6) 0.8183(10)
H7_40 H 0.2501 0.901494 0.8183
O2_41 O 0.9317(10) 0.4999(9) 0.8612(6)
H7_41 H 0.9317 0.4999 0.901494
O2_42 O 0.8183(10) 0.9999(9) 0.3888(6)
H7_42 H 0.8183 0.9999 0.348506
O2_43 O 0.6817(10) 0.6112(6) 0.0001(9)
H7_43 H 0.6817 0.651494 0.0001
O2_44 O 0.0683(10) 0.1112(6) 0.2499(9)
H7_44 H 0.0683 0.151494 0.2499
O2_45 O 0.1112(6) 0.7499(9) 0.5683(10)
H7_45 H 0.151494 0.7499 0.5683
O2_46 O 0.6388(6) 0.2499(9) 0.6817(10)
H7_46 H 0.598506 0.2499 0.6817
O2_47 O 0.2499(9) 0.1817(10) 0.1388(6)
H7_47 H 0.2499 0.1817 0.0985062
O2_48 O 0.5001(9) 0.6817(10) 0.1112(6)
H7_48 H 0.5001 0.6817 0.151494
O2_49 O 0.3888(6) 0.3183(10) 0.4999(9)
H7_49 H 0.348506 0.3183 0.4999
O2_50 O 0.8888(6) 0.9317(10) 0.2501(9)
H7_50 H 0.848506 0.9317 0.2501
O2_51 O 0.3612(6) 0.8183(10) 0.7501(9)
H7_51 H 0.401494 0.8183 0.7501
O2_52 O 0.4999(9) 0.3888(6) 0.3183(10)
H7_52 H 0.4999 0.348506 0.3183
O2_53 O 0.2501(9) 0.8888(6) 0.9317(10)
H7_53 H 0.2501 0.848506 0.9317
O2_54 O 0.7501(9) 0.3612(6) 0.8183(10)
H7_54 H 0.7501 0.401494 0.8183
O2_55 O 0.3183(10) 0.4999(9) 0.3888(6)
H7_55 H 0.3183 0.4999 0.348506
O2_56 O 0.9317(10) 0.2501(9) 0.8888(6)
H7_56 H 0.9317 0.2501 0.848506
O2_57 O 0.8183(10) 0.7501(9) 0.3612(6)
H7_57 H 0.8183 0.7501 0.401494
O2_58 O 0.0683(10) 0.6388(6) 0.5001(9)
H7_58 H 0.0683 0.598506 0.5001
O2_59 O 0.6388(6) 0.5001(9) 0.0683(10)
H7_59 H 0.598506 0.5001 0.0683
O2_60 O 0.5001(9) 0.0683(10) 0.6388(6)
H7_60 H 0.5001 0.0683 0.598506
O2_61 O 0.8888(6) 0.4317(10) 0.7501(9)
H7_61 H 0.848506 0.4317 0.7501
O2_62 O 0.3612(6) 0.3183(10) 0.2501(9)
H7_62 H 0.401494 0.3183 0.2501
O2_63 O 0.4999(9) 0.8888(6) 0.8183(10)
H7_63 H 0.4999 0.848506 0.8183
O2_64 O 0.7501(9) 0.8612(6) 0.3183(10)
H7_64 H 0.7501 0.901494 0.3183
O2_65 O 0.3183(10) 0.9999(9) 0.8888(6)
H7_65 H 0.3183 0.9999 0.848506
O2_66 O 0.9317(10) 0.7501(9) 0.3888(6)
H7_66 H 0.9317 0.7501 0.348506
O2_67 O 0.1817(10) 0.6112(6) 0.5001(9)
H7_67 H 0.1817 0.651494 0.5001
O2_68 O 0.0683(10) 0.1388(6) 0.0001(9)
H7_68 H 0.0683 0.0985062 0.0001
O2_69 O 0.6112(6) 0.7499(9) 0.0683(10)
H7_69 H 0.651494 0.7499 0.0683
O2_70 O 0.6388(6) 0.0001(9) 0.5683(10)
H7_70 H 0.598506 0.0001 0.5683
O2_71 O 0.7499(9) 0.1817(10) 0.6388(6)
H7_71 H 0.7499 0.1817 0.598506
O2_72 O 0.5001(9) 0.5683(10) 0.1388(6)
H7_72 H 0.5001 0.5683 0.0985062
O2_73 O 0.8888(6) 0.3183(10) 0.9999(9)
H7_73 H 0.848506 0.3183 0.9999
O2_74 O 0.3888(6) 0.9317(10) 0.7501(9)
H7_74 H 0.348506 0.9317 0.7501
O2_75 O 0.7501(9) 0.8888(6) 0.4317(10)
H7_75 H 0.7501 0.848506 0.4317
O2_76 O 0.2501(9) 0.3612(6) 0.3183(10)
H7_76 H 0.2501 0.401494 0.3183
O2_77 O 0.8183(10) 0.4999(9) 0.8888(6)
H7_77 H 0.8183 0.4999 0.848506
O2_78 O 0.3183(10) 0.7501(9) 0.8612(6)
H7_78 H 0.3183 0.7501 0.901494
O2_79 O 0.5683(10) 0.6388(6) 0.0001(9)
H7_79 H 0.5683 0.598506 0.0001
O2_80 O 0.0683(10) 0.6112(6) 0.7499(9)
H7_80 H 0.0683 0.651494 0.7499
O2_81 O 0.6388(6) 0.7499(9) 0.1817(10)
H7_81 H 0.598506 0.7499 0.1817
O2_82 O 0.1388(6) 0.5001(9) 0.5683(10)
H7_82 H 0.0985062 0.5001 0.5683
O2_83 O 0.5001(9) 0.1817(10) 0.6112(6)
H7_83 H 0.5001 0.1817 0.651494
O2_84 O 0.0001(9) 0.0683(10) 0.1388(6)
H7_84 H 0.0001 0.0683 0.0985062
O2_85 O 0.8888(6) 0.8183(10) 0.4999(9)
H7_85 H 0.848506 0.8183 0.4999
O2_86 O 0.8612(6) 0.3183(10) 0.7501(9)
H7_86 H 0.901494 0.3183 0.7501
O2_87 O 0.9999(9) 0.8888(6) 0.3183(10)
H7_87 H 0.9999 0.848506 0.3183
O2_88 O 0.7501(9) 0.3888(6) 0.9317(10)
H7_88 H 0.7501 0.348506 0.9317
O2_89 O 0.4317(10) 0.7501(9) 0.8888(6)
H7_89 H 0.4317 0.7501 0.848506
O2_90 O 0.3183(10) 0.2501(9) 0.3612(6)
H7_90 H 0.3183 0.2501 0.401494
O2_91 O 0.5683(10) 0.1388(6) 0.5001(9)
H7_91 H 0.5683 0.0985062 0.5001
O2_92 O 0.1817(10) 0.6388(6) 0.7499(9)
H7_92 H 0.1817 0.598506 0.7499
O2_93 O 0.1388(6) 0.0001(9) 0.0683(10)
H7_93 H 0.0985062 0.0001 0.0683
O2_94 O 0.6112(6) 0.5001(9) 0.1817(10)
H7_94 H 0.651494 0.5001 0.1817
O2_95 O 0.7499(9) 0.0683(10) 0.6112(6)
H7_95 H 0.7499 0.0683 0.651494
O2_96 O 0.0001(9) 0.5683(10) 0.6388(6)
H7_96 H 0.0001 0.5683 0.598506
O2_97 O 0.1388(6) 0.5683(10) 0.0001(9)
H7_97 H 0.0985062 0.5683 0.0001
O2_98 O 0.0001(9) 0.1388(6) 0.5683(10)
H7_98 H 0.0001 0.0985062 0.5683
O2_99 O 0.5683(10) 0.0001(9) 0.1388(6)
H7_99 H 0.5683 0.0001 0.0985062
O2_100 O 0.8183(10) 0.8888(6) 0.9999(9)
H7_100 H 0.8183 0.848506 0.9999
O2_101 O 0.3183(10) 0.8612(6) 0.2501(9)
H7_101 H 0.3183 0.901494 0.2501
O2_102 O 0.4317(10) 0.3888(6) 0.7501(9)
H7_102 H 0.4317 0.348506 0.7501
O2_103 O 0.3888(6) 0.7501(9) 0.4317(10)
H7_103 H 0.348506 0.7501 0.4317
O2_104 O 0.8612(6) 0.2501(9) 0.3183(10)
H7_104 H 0.901494 0.2501 0.3183
O2_105 O 0.8888(6) 0.9999(9) 0.8183(10)
H7_105 H 0.848506 0.9999 0.8183
O2_106 O 0.2501(9) 0.3183(10) 0.8612(6)
H7_106 H 0.2501 0.3183 0.901494
O2_107 O 0.7501(9) 0.4317(10) 0.3888(6)
H7_107 H 0.7501 0.4317 0.348506
O2_108 O 0.9999(9) 0.8183(10) 0.8888(6)
H7_108 H 0.9999 0.8183 0.848506
O2_109 O 0.1388(6) 0.0683(10) 0.5001(9)
H7_109 H 0.0985062 0.0683 0.5001
O2_110 O 0.6112(6) 0.1817(10) 0.0001(9)
H7_110 H 0.651494 0.1817 0.0001
O2_111 O 0.0001(9) 0.6388(6) 0.0683(10)
H7_111 H 0.0001 0.598506 0.0683
O2_112 O 0.7499(9) 0.6112(6) 0.5683(10)
H7_112 H 0.7499 0.651494 0.5683
O2_113 O 0.5683(10) 0.5001(9) 0.6388(6)
H7_113 H 0.5683 0.5001 0.598506
O2_114 O 0.1817(10) 0.7499(9) 0.1388(6)
H7_114 H 0.1817 0.7499 0.0985062
O2_115 O 0.3183(10) 0.3612(6) 0.7501(9)
H7_115 H 0.3183 0.401494 0.7501
O2_116 O 0.4317(10) 0.8888(6) 0.2501(9)
H7_116 H 0.4317 0.848506 0.2501
O2_117 O 0.8612(6) 0.7501(9) 0.8183(10)
H7_117 H 0.901494 0.7501 0.8183
O2_118 O 0.8888(6) 0.4999(9) 0.3183(10)
H7_118 H 0.848506 0.4999 0.3183
O2_119 O 0.7501(9) 0.9317(10) 0.8888(6)
H7_119 H 0.7501 0.9317 0.848506
O2_120 O 0.9999(9) 0.3183(10) 0.3888(6)
H7_120 H 0.9999 0.3183 0.348506
O2_121 O 0.6388(6) 0.5683(10) 0.5001(9)
H7_121 H 0.598506 0.5683 0.5001
O2_122 O 0.1388(6) 0.1817(10) 0.7499(9)
H7_122 H 0.0985062 0.1817 0.7499
O2_123 O 0.5001(9) 0.1388(6) 0.0683(10)
H7_123 H 0.5001 0.0985062 0.0683
O2_124 O 0.0001(9) 0.6112(6) 0.1817(10)
H7_124 H 0.0001 0.651494 0.1817
O2_125 O 0.0683(10) 0.0001(9) 0.6388(6)
H7_125 H 0.0683 0.0001 0.598506
O2_126 O 0.5683(10) 0.7499(9) 0.6112(6)
H7_126 H 0.5683 0.7499 0.651494
O2_127 O 0.3183(10) 0.8888(6) 0.4999(9)
H7_127 H 0.3183 0.848506 0.4999
O2_128 O 0.8183(10) 0.8612(6) 0.7501(9)
H7_128 H 0.8183 0.901494 0.7501
O2_129 O 0.8888(6) 0.7501(9) 0.9317(10)
H7_129 H 0.848506 0.7501 0.9317
O2_130 O 0.3888(6) 0.9999(9) 0.3183(10)
H7_130 H 0.348506 0.9999 0.3183
O2_131 O 0.7501(9) 0.3183(10) 0.3612(6)
H7_131 H 0.7501 0.3183 0.401494
O2_132 O 0.2501(9) 0.4317(10) 0.8888(6)
H7_132 H 0.2501 0.4317 0.848506
O2_133 O 0.6388(6) 0.0683(10) 0.0001(9)
H7_133 H 0.598506 0.0683 0.0001
O2_134 O 0.6112(6) 0.5683(10) 0.7499(9)
H7_134 H 0.651494 0.5683 0.7499
O2_135 O 0.5001(9) 0.6388(6) 0.5683(10)
H7_135 H 0.5001 0.598506 0.5683
O2_136 O 0.7499(9) 0.1388(6) 0.1817(10)
H7_136 H 0.7499 0.0985062 0.1817
O2_137 O 0.0683(10) 0.5001(9) 0.1388(6)
H7_137 H 0.0683 0.5001 0.0985062
O2_138 O 0.1817(10) 0.0001(9) 0.6112(6)
H7_138 H 0.1817 0.0001 0.651494
O2_139 O 0.3183(10) 0.3888(6) 0.9999(9)
H7_139 H 0.3183 0.348506 0.9999
O2_140 O 0.9317(10) 0.8888(6) 0.7501(9)
H7_140 H 0.9317 0.848506 0.7501
O2_141 O 0.8888(6) 0.2501(9) 0.4317(10)
H7_141 H 0.848506 0.2501 0.4317
O2_142 O 0.3612(6) 0.7501(9) 0.3183(10)
H7_142 H 0.401494 0.7501 0.3183
O2_143 O 0.7501(9) 0.8183(10) 0.8612(6)
H7_143 H 0.7501 0.8183 0.901494
O2_144 O 0.4999(9) 0.3183(10) 0.8888(6)
H7_144 H 0.4999 0.3183 0.848506
O2_145 O 0.6112(6) 0.6817(10) 0.5001(9)
H7_145 H 0.651494 0.6817 0.5001
O2_146 O 0.1112(6) 0.0683(10) 0.7499(9)
H7_146 H 0.151494 0.0683 0.7499
O2_147 O 0.6388(6) 0.1817(10) 0.2499(9)
H7_147 H 0.598506 0.1817 0.2499
O2_148 O 0.5001(9) 0.6112(6) 0.6817(10)
H7_148 H 0.5001 0.651494 0.6817
O2_149 O 0.7499(9) 0.1112(6) 0.0683(10)
H7_149 H 0.7499 0.151494 0.0683
O2_150 O 0.2499(9) 0.6388(6) 0.1817(10)
H7_150 H 0.2499 0.598506 0.1817
O2_151 O 0.6817(10) 0.5001(9) 0.6112(6)
H7_151 H 0.6817 0.5001 0.651494
O2_152 O 0.0683(10) 0.7499(9) 0.1112(6)
H7_152 H 0.0683 0.7499 0.151494
O2_153 O 0.1817(10) 0.2499(9) 0.6388(6)
H7_153 H 0.1817 0.2499 0.598506
O2_154 O 0.9317(10) 0.3612(6) 0.4999(9)
H7_154 H 0.9317 0.401494 0.4999
O2_155 O 0.3612(6) 0.4999(9) 0.9317(10)
H7_155 H 0.401494 0.4999 0.9317
O2_156 O 0.4999(9) 0.9317(10) 0.3612(6)
H7_156 H 0.4999 0.9317 0.401494
O2_157 O 0.1112(6) 0.5683(10) 0.2499(9)
H7_157 H 0.151494 0.5683 0.2499
O2_158 O 0.6388(6) 0.6817(10) 0.7499(9)
H7_158 H 0.598506 0.6817 0.7499
O2_159 O 0.5001(9) 0.1112(6) 0.1817(10)
H7_159 H 0.5001 0.151494 0.1817
O2_160 O 0.2499(9) 0.1388(6) 0.6817(10)
H7_160 H 0.2499 0.0985062 0.6817
O2_161 O 0.6817(10) 0.0001(9) 0.1112(6)
H7_161 H 0.6817 0.0001 0.151494
O2_162 O 0.0683(10) 0.2499(9) 0.6112(6)
H7_162 H 0.0683 0.2499 0.651494
O2_163 O 0.8183(10) 0.3888(6) 0.4999(9)
H7_163 H 0.8183 0.348506 0.4999
O2_164 O 0.9317(10) 0.8612(6) 0.9999(9)
H7_164 H 0.9317 0.901494 0.9999
O2_165 O 0.3888(6) 0.2501(9) 0.9317(10)
H7_165 H 0.348506 0.2501 0.9317
O2_166 O 0.3612(6) 0.9999(9) 0.4317(10)
H7_166 H 0.401494 0.9999 0.4317
O2_167 O 0.2501(9) 0.8183(10) 0.3612(6)
H7_167 H 0.2501 0.8183 0.401494
O2_168 O 0.4999(9) 0.4317(10) 0.8612(6)
H7_168 H 0.4999 0.4317 0.901494
O2_169 O 0.1112(6) 0.6817(10) 0.0001(9)
H7_169 H 0.151494 0.6817 0.0001
O2_170 O 0.6112(6) 0.0683(10) 0.2499(9)
H7_170 H 0.651494 0.0683 0.2499
O2_171 O 0.2499(9) 0.1112(6) 0.5683(10)
H7_171 H 0.2499 0.151494 0.5683
O2_172 O 0.7499(9) 0.6388(6) 0.6817(10)
H7_172 H 0.7499 0.598506 0.6817
O2_173 O 0.1817(10) 0.5001(9) 0.1112(6)
H7_173 H 0.1817 0.5001 0.151494
O2_174 O 0.6817(10) 0.2499(9) 0.1388(6)
H7_174 H 0.6817 0.2499 0.0985062
O2_175 O 0.4317(10) 0.3612(6) 0.9999(9)
H7_175 H 0.4317 0.401494 0.9999
O2_176 O 0.9317(10) 0.3888(6) 0.2501(9)
H7_176 H 0.9317 0.348506 0.2501
O2_177 O 0.3612(6) 0.2501(9) 0.8183(10)
H7_177 H 0.401494 0.2501 0.8183
O2_178 O 0.8612(6) 0.4999(9) 0.4317(10)
H7_178 H 0.901494 0.4999 0.4317
O2_179 O 0.4999(9) 0.8183(10) 0.3888(6)
H7_179 H 0.4999 0.8183 0.348506
O2_180 O 0.9999(9) 0.9317(10) 0.8612(6)
H7_180 H 0.9999 0.9317 0.901494
O2_181 O 0.1112(6) 0.1817(10) 0.5001(9)
H7_181 H 0.151494 0.1817 0.5001
O2_182 O 0.1388(6) 0.6817(10) 0.2499(9)
H7_182 H 0.0985062 0.6817 0.2499
O2_183 O 0.0001(9) 0.1112(6) 0.6817(10)
H7_183 H 0.0001 0.151494 0.6817
O2_184 O 0.2499(9) 0.6112(6) 0.0683(10)
H7_184 H 0.2499 0.651494 0.0683
O2_185 O 0.5683(10) 0.2499(9) 0.1112(6)
H7_185 H 0.5683 0.2499 0.151494
O2_186 O 0.6817(10) 0.7499(9) 0.6388(6)
H7_186 H 0.6817 0.7499 0.598506
O2_187 O 0.4317(10) 0.8612(6) 0.4999(9)
H7_187 H 0.4317 0.901494 0.4999
O2_188 O 0.8183(10) 0.3612(6) 0.2501(9)
H7_188 H 0.8183 0.401494 0.2501
O2_189 O 0.8612(6) 0.9999(9) 0.9317(10)
H7_189 H 0.901494 0.9999 0.9317
O2_190 O 0.3888(6) 0.4999(9) 0.8183(10)
H7_190 H 0.348506 0.4999 0.8183
O2_191 O 0.2501(9) 0.9317(10) 0.3888(6)
H7_191 H 0.2501 0.9317 0.348506
O2_192 O 0.9999(9) 0.4317(10) 0.3612(6)
H7_192 H 0.9999 0.4317 0.401494
loop_
_geom_bond_atom_site_label_1
_geom_bond_atom_site_label_2
_geom_bond_site_symmetry_1
_geom_bond_site_symmetry_2
Cu1 O1 1_555 1_555
N1 Cu1 1_555 1_555
N2 C1 1_555 1_555
C1 N1 1_555 1_555
H1 C1 1_555 1_555
Cu3 O1 1_555 1_555
Cu4 N2 1_555 1_555
Cu5 N10 1_555 1_555
Cu6_2 N6 1_555 1_555
Cu7 N7 1_555 1_555
N3 N1 1_555 1_555
N4 Cu1 1_555 1_555
N6 N7 1_555 1_555
N7 C6 1_555 1_555
N10 C3 1_555 1_555
N11 Cu1 1_555 1_555
N13 Cu3 1_555 1_555
C2 N2 1_555 1_555
C3 N4 1_555 1_555
C5 N6 1_555 1_555
C6 N11 1_555 1_555
H2 C2 1_555 1_555
H3 C3 1_555 1_555
H5 C5 1_555 1_555
H6 C6 1_555 1_555
Cu3 N3 1_555 1_555
N3 C2 1_555 1_555
N11 C5 1_555 1_555
O1_2 Cu2 1_555 1_555
Cu2 N5 1_555 1_555
Cu3_2 O1_2 1_555 1_555
Cu5_2 N10_2 1_555 1_555
N8 Cu2 1_555 1_555
N9 Cu3_2 1_555 1_555
N12 Cu2 1_555 1_555
N13_2 Cu3_2 1_555 1_555
C4 N5 1_555 1_555
H4 C4 1_555 1_555
N8 N9 1_555 1_555
N10_2 C4 1_555 1_555
Cu1_2 O1_3 1_555 1_555
N1_2 Cu1_2 1_555 1_555
N2_2 C1_2 1_555 1_555
C1_2 N1_2 1_555 1_555
H1_2 C1_2 1_555 1_555
Cu3_3 O1_3 1_555 1_555
Cu4_2 N2_2 1_555 1_555
Cu5_3 N10_3 1_555 1_555
Cu6_4 N6_2 1_555 1_555
Cu7_2 N7_2 1_555 1_555
N3_2 N1_2 1_555 1_555
N4_2 Cu1_2 1_555 1_555
N6_2 N7_2 1_555 1_555
N7_2 C6_2 1_555 1_555
N10_3 C3_2 1_555 1_555
N11_2 Cu1_2 1_555 1_555
N13_3 Cu3_3 1_555 1_555
C2_2 N2_2 1_555 1_555
C3_2 N4_2 1_555 1_555
C5_2 N6_2 1_555 1_555
C6_2 N11_2 1_555 1_555
H2_2 C2_2 1_555 1_555
H3_2 C3_2 1_555 1_555
H5_2 C5_2 1_555 1_555
H6_2 C6_2 1_555 1_555
Cu3_3 N3_2 1_555 1_555
N3_2 C2_2 1_555 1_555
N11_2 C5_2 1_555 1_555
O1_4 Cu2_2 1_555 1_555
Cu2_2 N5_2 1_555 1_555
Cu3_4 O1_4 1_555 1_555
Cu5_4 N10_4 1_555 1_555
N8_2 Cu2_2 1_555 1_555
N9_2 Cu3_4 1_555 1_555
N12_2 Cu2_2 1_555 1_555
N13_4 Cu3_4 1_555 1_555
C4_2 N5_2 1_555 1_555
H4_2 C4_2 1_555 1_555
N8_2 N9_2 1_555 1_555
N10_4 C4_2 1_555 1_555
Cu1_3 O1_5 1_555 1_555
N1_3 Cu1_3 1_555 1_555
N2_3 C1_3 1_555 1_555
C1_3 N1_3 1_555 1_555
H1_3 C1_3 1_555 1_555
Cu3_5 O1_5 1_555 1_555
Cu4_3 N2_3 1_555 1_555
Cu5_5 N10_5 1_555 1_555
Cu6_6 N6_3 1_555 1_555
Cu7_3 N7_3 1_555 1_555
N3_3 N1_3 1_555 1_555
N4_3 Cu1_3 1_555 1_555
N6_3 N7_3 1_555 1_555
N7_3 C6_3 1_555 1_555
N10_5 C3_3 1_555 1_555
N11_3 Cu1_3 1_555 1_555
N13_5 Cu3_5 1_555 1_555
C2_3 N2_3 1_555 1_555
C3_3 N4_3 1_555 1_555
C5_3 N6_3 1_555 1_555
C6_3 N11_3 1_555 1_555
H2_3 C2_3 1_555 1_555
H3_3 C3_3 1_555 1_555
H5_3 C5_3 1_555 1_555
H6_3 C6_3 1_555 1_555
Cu3_5 N3_3 1_555 1_555
N3_3 C2_3 1_555 1_555
N11_3 C5_3 1_555 1_555
O1_6 Cu2_3 1_555 1_555
Cu2_3 N5_3 1_555 1_555
Cu3_6 O1_6 1_555 1_555
Cu5_6 N10_6 1_555 1_555
N8_3 Cu2_3 1_555 1_555
N9_3 Cu3_6 1_555 1_555
N12_3 Cu2_3 1_555 1_555
N13_6 Cu3_6 1_555 1_555
C4_3 N5_3 1_555 1_555
H4_3 C4_3 1_555 1_555
N8_3 N9_3 1_555 1_555
N10_6 C4_3 1_555 1_555
O1_7 Cu2_4 1_555 1_555
Cu2_4 N5_4 1_555 1_555
Cu6_5 N10_7 1_555 1_555
N12_4 Cu2_4 1_555 1_555
C4_4 N5_4 1_555 1_555
H4_4 C4_4 1_555 1_555
N10_7 C4_4 1_555 1_555
Cu1_4 O1_8 1_555 1_555
N1_4 Cu1_4 1_555 1_555
N2_4 C1_4 1_555 1_555
C1_4 N1_4 1_555 1_555
H1_4 C1_4 1_555 1_555
Cu4_4 N2_4 1_555 1_555
Cu6_6 N10_8 1_555 1_555
Cu6_7 N6_4 1_555 1_555
Cu4_3 N7_4 1_555 1_555
N4_4 Cu1_4 1_555 1_555
N6_4 N7_4 1_555 1_555
N7_4 C6_4 1_555 1_555
N10_8 C3_4 1_555 1_555
N11_4 Cu1_4 1_555 1_555
C3_4 N4_4 1_555 1_555
C5_4 N6_4 1_555 1_555
C6_4 N11_4 1_555 1_555
H3_4 C3_4 1_555 1_555
H5_4 C5_4 1_555 1_555
H6_4 C6_4 1_555 1_555
N11_4 C5_4 1_555 1_555
O1_9 Cu2_5 1_555 1_555
Cu3_7 O1_9 1_555 1_555
N8_4 Cu2_5 1_555 1_555
N9_4 Cu3_7 1_555 1_555
N12_5 Cu2_5 1_555 1_555
N13_7 Cu3_7 1_555 1_555
N8_4 N9_4 1_555 1_555
Cu3_8 O1_10 1_555 1_555
Cu4_5 N2_5 1_555 1_555
N13_8 Cu3_8 1_555 1_555
C2_4 N2_5 1_555 1_555
H2_4 C2_4 1_555 1_555
Cu3_8 N3_4 1_555 1_555
N3_4 C2_4 1_555 1_555
Cu1_5 O1_11 1_555 1_555
O1_11 Cu2_6 1_555 1_555
N1_5 Cu1_5 1_555 1_555
N2_6 C1_5 1_555 1_555
C1_5 N1_5 1_555 1_555
H1_5 C1_5 1_555 1_555
Cu2_6 N5_5 1_555 1_555
Cu3_9 O1_11 1_555 1_555
Cu7_3 N2_6 1_555 1_555
Cu5_7 N10_9 1_555 1_555
Cu5_5 N6_5 1_555 1_555
Cu7_5 N7_5 1_555 1_555
N3_5 N1_5 1_555 1_555
N4_5 Cu1_5 1_555 1_555
N5_5 N4_5 1_555 1_555
N6_5 N7_5 1_555 1_555
N7_5 C6_5 1_555 1_555
N8_5 Cu2_6 1_555 1_555
N9_5 Cu3_9 1_555 1_555
N10_9 C3_5 1_555 1_555
N11_5 Cu1_5 1_555 1_555
N12_6 Cu2_6 1_555 1_555
N13_9 Cu3_9 1_555 1_555
C2_5 N2_6 1_555 1_555
C3_5 N4_5 1_555 1_555
C4_5 N5_5 1_555 1_555
C5_5 N6_5 1_555 1_555
C6_5 N11_5 1_555 1_555
H2_5 C2_5 1_555 1_555
H3_5 C3_5 1_555 1_555
H4_5 C4_5 1_555 1_555
H5_5 C5_5 1_555 1_555
H6_5 C6_5 1_555 1_555
Cu3_9 N3_5 1_555 1_555
N3_5 C2_5 1_555 1_555
N8_5 N9_5 1_555 1_555
N10_9 C4_5 1_555 1_555
N11_5 C5_5 1_555 1_555
Cu1_6 O1_12 1_555 1_555
O1_12 Cu2_7 1_555 1_555
N1_6 Cu1_6 1_555 1_555
N2_7 C1_6 1_555 1_555
C1_6 N1_6 1_555 1_555
H1_6 C1_6 1_555 1_555
Cu2_7 N5_6 1_555 1_555
Cu3_10 O1_12 1_555 1_555
Cu4_6 N2_7 1_555 1_555
Cu5_8 N10_10 1_555 1_555
Cu6_8 N6_6 1_555 1_555
Cu7_6 N7_6 1_555 1_555
N3_6 N1_6 1_555 1_555
N4_6 Cu1_6 1_555 1_555
N5_6 N4_6 1_555 1_555
N6_6 N7_6 1_555 1_555
N7_6 C6_6 1_555 1_555
N8_6 Cu2_7 1_555 1_555
N9_6 Cu3_10 1_555 1_555
N10_10 C3_6 1_555 1_555
N11_6 Cu1_6 1_555 1_555
N12_7 Cu2_7 1_555 1_555
N13_10 Cu3_10 1_555 1_555
C2_6 N2_7 1_555 1_555
C3_6 N4_6 1_555 1_555
C4_6 N5_6 1_555 1_555
C5_6 N6_6 1_555 1_555
C6_6 N11_6 1_555 1_555
H2_6 C2_6 1_555 1_555
H3_6 C3_6 1_555 1_555
H4_6 C4_6 1_555 1_555
H5_6 C5_6 1_555 1_555
H6_6 C6_6 1_555 1_555
Cu3_10 N3_6 1_555 1_555
N3_6 C2_6 1_555 1_555
N8_6 N9_6 1_555 1_555
N10_10 C4_6 1_555 1_555
N11_6 C5_6 1_555 1_555
Cu1_7 O1_13 1_555 1_555
O1_13 Cu2_8 1_555 1_555
N1_7 Cu1_7 1_555 1_555
N2_8 C1_7 1_555 1_555
C1_7 N1_7 1_555 1_555
H1_7 C1_7 1_555 1_555
Cu2_8 N5_7 1_555 1_555
Cu3_11 O1_13 1_555 1_555
Cu4_7 N2_8 1_555 1_555
Cu5_9 N10_11 1_555 1_555
Cu6_9 N6_7 1_555 1_555
Cu4_6 N7_7 1_555 1_555
N3_7 N1_7 1_555 1_555
N4_7 Cu1_7 1_555 1_555
N5_7 N4_7 1_555 1_555
N6_7 N7_7 1_555 1_555
N7_7 C6_7 1_555 1_555
N8_7 Cu2_8 1_555 1_555
N9_7 Cu3_11 1_555 1_555
N10_11 C3_7 1_555 1_555
N11_7 Cu1_7 1_555 1_555
N12_8 Cu2_8 1_555 1_555
N13_11 Cu3_11 1_555 1_555
C2_7 N2_8 1_555 1_555
C3_7 N4_7 1_555 1_555
C4_7 N5_7 1_555 1_555
C5_7 N6_7 1_555 1_555
C6_7 N11_7 1_555 1_555
H2_7 C2_7 1_555 1_555
H3_7 C3_7 1_555 1_555
H4_7 C4_7 1_555 1_555
H5_7 C5_7 1_555 1_555
H6_7 C6_7 1_555 1_555
Cu3_11 N3_7 1_555 1_555
N3_7 C2_7 1_555 1_555
N8_7 N9_7 1_555 1_555
N10_11 C4_7 1_555 1_555
N11_7 C5_7 1_555 1_555
Cu1_8 O1_14 1_555 1_555
O1_14 Cu2_9 1_555 1_555
N1_8 Cu1_8 1_555 1_555
N2_9 C1_8 1_555 1_555
C1_8 N1_8 1_555 1_555
H1_8 C1_8 1_555 1_555
Cu2_9 N5_8 1_555 1_555
Cu3_12 O1_14 1_555 1_555
Cu7_2 N2_9 1_555 1_555
Cu5_10 N10_12 1_555 1_555
Cu5_3 N6_8 1_555 1_555
Cu4_5 N7_8 1_555 1_555
N3_8 N1_8 1_555 1_555
N4_8 Cu1_8 1_555 1_555
N5_8 N4_8 1_555 1_555
N6_8 N7_8 1_555 1_555
N7_8 C6_8 1_555 1_555
N8_8 Cu2_9 1_555 1_555
N9_8 Cu3_12 1_555 1_555
N10_12 C3_8 1_555 1_555
N11_8 Cu1_8 1_555 1_555
N12_9 Cu2_9 1_555 1_555
N13_12 Cu3_12 1_555 1_555
C2_8 N2_9 1_555 1_555
C3_8 N4_8 1_555 1_555
C4_8 N5_8 1_555 1_555
C5_8 N6_8 1_555 1_555
C6_8 N11_8 1_555 1_555
H2_8 C2_8 1_555 1_555
H3_8 C3_8 1_555 1_555
H4_8 C4_8 1_555 1_555
H5_8 C5_8 1_555 1_555
H6_8 C6_8 1_555 1_555
Cu3_12 N3_8 1_555 1_555
N3_8 C2_8 1_555 1_555
N8_8 N9_8 1_555 1_555
N10_12 C4_8 1_555 1_555
N11_8 C5_8 1_555 1_555
O1_15 Cu2_10 1_555 1_555
Cu2_10 N5_9 1_555 1_555
Cu6_3 N10_13 1_555 1_555
N12_10 Cu2_10 1_555 1_555
C4_9 N5_9 1_555 1_555
H4_9 C4_9 1_555 1_555
N10_13 C4_9 1_555 1_555
Cu1_9 O1_16 1_555 1_555
N1_9 Cu1_9 1_555 1_555
N2_10 C1_9 1_555 1_555
C1_9 N1_9 1_555 1_555
H1_9 C1_9 1_555 1_555
Cu4_8 N2_10 1_555 1_555
Cu6_4 N10_14 1_555 1_555
Cu6_10 N6_9 1_555 1_555
Cu4_2 N7_9 1_555 1_555
N4_9 Cu1_9 1_555 1_555
N6_9 N7_9 1_555 1_555
N7_9 C6_9 1_555 1_555
N10_14 C3_9 1_555 1_555
N11_9 Cu1_9 1_555 1_555
C3_9 N4_9 1_555 1_555
C5_9 N6_9 1_555 1_555
C6_9 N11_9 1_555 1_555
H3_9 C3_9 1_555 1_555
H5_9 C5_9 1_555 1_555
H6_9 C6_9 1_555 1_555
N11_9 C5_9 1_555 1_555
O1_17 Cu2_11 1_555 1_555
Cu3_13 O1_17 1_555 1_555
N8_9 Cu2_11 1_555 1_555
N9_9 Cu3_13 1_555 1_555
N12_11 Cu2_11 1_555 1_555
N13_13 Cu3_13 1_555 1_555
N8_9 N9_9 1_555 1_555
Cu3_14 O1_18 1_555 1_555
Cu4_9 N2_11 1_555 1_555
N13_14 Cu3_14 1_555 1_555
C2_9 N2_11 1_555 1_555
H2_9 C2_9 1_555 1_555
Cu3_14 N3_9 1_555 1_555
N3_9 C2_9 1_555 1_555
Cu1_10 O1_19 1_555 1_555
O1_19 Cu2_12 1_555 1_555
N1_10 Cu1_10 1_555 1_555
N2_12 C1_10 1_555 1_555
C1_10 N1_10 1_555 1_555
H1_10 C1_10 1_555 1_555
Cu2_12 N5_10 1_555 1_555
Cu3_15 O1_19 1_555 1_555
Cu7 N2_12 1_555 1_555
Cu5_11 N10_15 1_555 1_555
Cu5 N6_10 1_555 1_555
Cu4_9 N7_10 1_555 1_555
N3_10 N1_10 1_555 1_555
N4_10 Cu1_10 1_555 1_555
N5_10 N4_10 1_555 1_555
N6_10 N7_10 1_555 1_555
N7_10 C6_10 1_555 1_555
N8_10 Cu2_12 1_555 1_555
N9_10 Cu3_15 1_555 1_555
N10_15 C3_10 1_555 1_555
N11_10 Cu1_10 1_555 1_555
N12_12 Cu2_12 1_555 1_555
N13_15 Cu3_15 1_555 1_555
C2_10 N2_12 1_555 1_555
C3_10 N4_10 1_555 1_555
C4_10 N5_10 1_555 1_555
C5_10 N6_10 1_555 1_555
C6_10 N11_10 1_555 1_555
H2_10 C2_10 1_555 1_555
H3_10 C3_10 1_555 1_555
H4_10 C4_10 1_555 1_555
H5_10 C5_10 1_555 1_555
H6_10 C6_10 1_555 1_555
Cu3_15 N3_10 1_555 1_555
N3_10 C2_10 1_555 1_555
N8_10 N9_10 1_555 1_555
N10_15 C4_10 1_555 1_555
N11_10 C5_10 1_555 1_555
Cu1_11 O1_20 1_555 1_555
O1_20 Cu2_13 1_555 1_555
N1_11 Cu1_11 1_555 1_555
N2_13 C1_11 1_555 1_555
C1_11 N1_11 1_555 1_555
H1_11 C1_11 1_555 1_555
Cu2_13 N5_11 1_555 1_555
Cu3_16 O1_20 1_555 1_555
Cu7_6 N2_13 1_555 1_555
Cu5_12 N10_16 1_555 1_555
Cu6_11 N6_11 1_555 1_555
Cu4_7 N7_11 1_555 1_555
N3_11 N1_11 1_555 1_555
N4_11 Cu1_11 1_555 1_555
N5_11 N4_11 1_555 1_555
N6_11 N7_11 1_555 1_555
N7_11 C6_11 1_555 1_555
N8_11 Cu2_13 1_555 1_555
N9_11 Cu3_16 1_555 1_555
N10_16 C3_11 1_555 1_555
N11_11 Cu1_11 1_555 1_555
N12_13 Cu2_13 1_555 1_555
N13_16 Cu3_16 1_555 1_555
C2_11 N2_13 1_555 1_555
C3_11 N4_11 1_555 1_555
C4_11 N5_11 1_555 1_555
C5_11 N6_11 1_555 1_555
C6_11 N11_11 1_555 1_555
H2_11 C2_11 1_555 1_555
H3_11 C3_11 1_555 1_555
H4_11 C4_11 1_555 1_555
H5_11 C5_11 1_555 1_555
H6_11 C6_11 1_555 1_555
Cu3_16 N3_11 1_555 1_555
N3_11 C2_11 1_555 1_555
N8_11 N9_11 1_555 1_555
N10_16 C4_11 1_555 1_555
N11_11 C5_11 1_555 1_555
O1_21 Cu2_14 1_555 1_555
Cu2_14 N5_12 1_555 1_555
Cu6 N10_17 1_555 1_555
N12_14 Cu2_14 1_555 1_555
C4_12 N5_12 1_555 1_555
H4_12 C4_12 1_555 1_555
N10_17 C4_12 1_555 1_555
O1_22 Cu2_15 1_555 1_555
Cu3_17 O1_22 1_555 1_555
N8_12 Cu2_15 1_555 1_555
N9_12 Cu3_17 1_555 1_555
N12_15 Cu2_15 1_555 1_555
N13_17 Cu3_17 1_555 1_555
N8_12 N9_12 1_555 1_555
Cu1_12 O1_23 1_555 1_555
N1_12 Cu1_12 1_555 1_555
N2_14 C1_12 1_555 1_555
C1_12 N1_12 1_555 1_555
H1_12 C1_12 1_555 1_555
Cu7_4 N2_14 1_555 1_555
Cu6_2 N10_18 1_555 1_555
Cu6_12 N6_12 1_555 1_555
Cu4 N7_12 1_555 1_555
N4_12 Cu1_12 1_555 1_555
N6_12 N7_12 1_555 1_555
N7_12 C6_12 1_555 1_555
N10_18 C3_12 1_555 1_555
N11_12 Cu1_12 1_555 1_555
C3_12 N4_12 1_555 1_555
C5_12 N6_12 1_555 1_555
C6_12 N11_12 1_555 1_555
H3_12 C3_12 1_555 1_555
H5_12 C5_12 1_555 1_555
H6_12 C6_12 1_555 1_555
N11_12 C5_12 1_555 1_555
Cu3_18 O1_24 1_555 1_555
Cu7_5 N2_15 1_555 1_555
N13_18 Cu3_18 1_555 1_555
C2_12 N2_15 1_555 1_555
H2_12 C2_12 1_555 1_555
Cu3_18 N3_12 1_555 1_555
N3_12 C2_12 1_555 1_555
Cu1_13 O1_25 1_555 1_555
O1_25 Cu2_16 1_555 1_555
Cu2_16 N5_13 1_555 1_555
Cu5_13 N10_19 1_555 1_555
Cu5_7 N7_13 1_555 1_555
N4_13 Cu1_13 1_555 1_555
N5_13 N4_13 1_555 1_555
N7_13 C6_13 1_555 1_555
N8_13 Cu2_16 1_555 1_555
N10_19 C3_13 1_555 1_555
N11_13 Cu1_13 1_555 1_555
N12_16 Cu2_16 1_555 1_555
C3_13 N4_13 1_555 1_555
C4_13 N5_13 1_555 1_555
C6_13 N11_13 1_555 1_555
H3_13 C3_13 1_555 1_555
H4_13 C4_13 1_555 1_555
H6_13 C6_13 1_555 1_555
N10_19 C4_13 1_555 1_555
Cu1_14 O1_26 1_555 1_555
N1_13 Cu1_14 1_555 1_555
N2_16 C1_13 1_555 1_555
C1_13 N1_13 1_555 1_555
H1_13 C1_13 1_555 1_555
Cu3_19 O1_26 1_555 1_555
Cu4_10 N2_16 1_555 1_555
Cu5_4 N6_13 1_555 1_555
N3_13 N1_13 1_555 1_555
N9_13 Cu3_19 1_555 1_555
N11_14 Cu1_14 1_555 1_555
N13_19 Cu3_19 1_555 1_555
C2_13 N2_16 1_555 1_555
C5_13 N6_13 1_555 1_555
H2_13 C2_13 1_555 1_555
H5_13 C5_13 1_555 1_555
Cu3_19 N3_13 1_555 1_555
N3_13 C2_13 1_555 1_555
N11_14 C5_13 1_555 1_555
Cu1_15 O1_27 1_555 1_555
N1_14 Cu1_15 1_555 1_555
N2_17 C1_14 1_555 1_555
C1_14 N1_14 1_555 1_555
H1_14 C1_14 1_555 1_555
Cu3_20 O1_27 1_555 1_555
Cu4_11 N2_17 1_555 1_555
Cu5_14 N10_20 1_555 1_555
Cu6_10 N6_14 1_555 1_555
Cu5_8 N7_14 1_555 1_555
N3_14 N1_14 1_555 1_555
N4_14 Cu1_15 1_555 1_555
N6_14 N7_14 1_555 1_555
N7_14 C6_14 1_555 1_555
N10_20 C3_14 1_555 1_555
N11_15 Cu1_15 1_555 1_555
N13_20 Cu3_20 1_555 1_555
C2_14 N2_17 1_555 1_555
C3_14 N4_14 1_555 1_555
C5_14 N6_14 1_555 1_555
C6_14 N11_15 1_555 1_555
H2_14 C2_14 1_555 1_555
H3_14 C3_14 1_555 1_555
H5_14 C5_14 1_555 1_555
H6_14 C6_14 1_555 1_555
Cu3_20 N3_14 1_555 1_555
N3_14 C2_14 1_555 1_555
N11_15 C5_14 1_555 1_555
O1_28 Cu2_17 1_555 1_555
Cu2_17 N5_14 1_555 1_555
Cu3_21 O1_28 1_555 1_555
Cu5_15 N10_21 1_555 1_555
N8_14 Cu2_17 1_555 1_555
N9_14 Cu3_21 1_555 1_555
N12_17 Cu2_17 1_555 1_555
N13_21 Cu3_21 1_555 1_555
C4_14 N5_14 1_555 1_555
H4_14 C4_14 1_555 1_555
N8_14 N9_14 1_555 1_555
N10_21 C4_14 1_555 1_555
Cu7_7 N7_15 1_555 1_555
N7_15 C6_15 1_555 1_555
C6_15 N12_14 1_555 1_555
H6_15 C6_15 1_555 1_555
N2_18 C1_15 1_555 1_555
C1_15 N8_12 1_555 1_555
H1_15 C1_15 1_555 1_555
Cu6_7 N2_18 1_555 1_555
Cu6_13 N6_15 1_555 1_555
C2_15 N2_18 1_555 1_555
C5_15 N6_15 1_555 1_555
H2_15 C2_15 1_555 1_555
H5_15 C5_15 1_555 1_555
N9_12 C2_15 1_555 1_555
N12_15 C5_15 1_555 1_555
N2_19 C1_16 1_555 1_555
C1_16 N8_11 1_555 1_555
H1_16 C1_16 1_555 1_555
Cu4_12 N2_19 1_555 1_555
Cu6_14 N6_16 1_555 1_555
Cu7_8 N7_16 1_555 1_555
N6_16 N7_16 1_555 1_555
N7_16 C6_16 1_555 1_555
C2_16 N2_19 1_555 1_555
C5_16 N6_16 1_555 1_555
C6_16 N12_13 1_555 1_555
H2_16 C2_16 1_555 1_555
H5_16 C5_16 1_555 1_555
H6_16 C6_16 1_555 1_555
N9_11 C2_16 1_555 1_555
N12_13 C5_16 1_555 1_555
N2_20 C1_17 1_555 1_555
C1_17 N9_10 1_555 1_555
H1_17 C1_17 1_555 1_555
Cu6_8 N2_20 1_555 1_555
Cu4_6 N6_17 1_555 1_555
Cu7_10 N7_17 1_555 1_555
N6_17 N7_17 1_555 1_555
N7_17 C6_17 1_555 1_555
C2_17 N2_20 1_555 1_555
C5_17 N6_17 1_555 1_555
C6_17 N13_15 1_555 1_555
H2_17 C2_17 1_555 1_555
H5_17 C5_17 1_555 1_555
H6_17 C6_17 1_555 1_555
N8_10 C2_17 1_555 1_555
N13_15 C5_17 1_555 1_555
Cu1_16 O1_29 1_555 1_555
O1_29 Cu2_18 1_555 1_555
N1_15 Cu1_16 1_555 1_555
N2_21 C1_18 1_555 1_555
C1_18 N1_15 1_555 1_555
H1_18 C1_18 1_555 1_555
Cu2_18 N5_15 1_555 1_555
Cu3_22 O1_29 1_555 1_555
Cu7_7 N2_21 1_555 1_555
Cu6_14 N10_22 1_555 1_555
Cu6 N6_18 1_555 1_555
Cu4_12 N7_18 1_555 1_555
N3_15 N1_15 1_555 1_555
N4_15 Cu1_16 1_555 1_555
N5_15 N4_15 1_555 1_555
N6_18 N7_18 1_555 1_555
N7_18 C6_18 1_555 1_555
N8_15 Cu2_18 1_555 1_555
N9_15 Cu3_22 1_555 1_555
N10_22 C3_15 1_555 1_555
N11_16 Cu1_16 1_555 1_555
N12_18 Cu2_18 1_555 1_555
N13_22 Cu3_22 1_555 1_555
C2_18 N2_21 1_555 1_555
C3_15 N4_15 1_555 1_555
C4_15 N5_15 1_555 1_555
C5_18 N6_18 1_555 1_555
C6_18 N11_16 1_555 1_555
H2_18 C2_18 1_555 1_555
H3_15 C3_15 1_555 1_555
H4_15 C4_15 1_555 1_555
H5_18 C5_18 1_555 1_555
H6_18 C6_18 1_555 1_555
Cu3_22 N3_15 1_555 1_555
N3_15 C2_18 1_555 1_555
N8_15 N9_15 1_555 1_555
N10_22 C4_15 1_555 1_555
N11_16 C5_18 1_555 1_555
Cu1_17 O1_30 1_555 1_555
O1_30 Cu2_19 1_555 1_555
N1_16 Cu1_17 1_555 1_555
N2_22 C1_19 1_555 1_555
C1_19 N1_16 1_555 1_555
H1_19 C1_19 1_555 1_555
Cu2_19 N5_16 1_555 1_555
Cu7_8 N2_22 1_555 1_555
Cu6_13 N10_23 1_555 1_555
Cu5_12 N6_19 1_555 1_555
Cu6_7 N7_19 1_555 1_555
N4_16 Cu1_17 1_555 1_555
N5_16 N4_16 1_555 1_555
N6_19 N7_19 1_555 1_555
N7_19 C6_19 1_555 1_555
N10_23 C3_16 1_555 1_555
N11_17 Cu1_17 1_555 1_555
N12_19 Cu2_19 1_555 1_555
C3_16 N4_16 1_555 1_555
C4_16 N5_16 1_555 1_555
C5_19 N6_19 1_555 1_555
C6_19 N11_17 1_555 1_555
H3_16 C3_16 1_555 1_555
H4_16 C4_16 1_555 1_555
H5_19 C5_19 1_555 1_555
H6_19 C6_19 1_555 1_555
N10_23 C4_16 1_555 1_555
N11_17 C5_19 1_555 1_555
O1_31 Cu2_20 1_555 1_555
Cu3_23 O1_31 1_555 1_555
Cu7_9 N2_23 1_555 1_555
N8_16 Cu2_20 1_555 1_555
N9_16 Cu3_23 1_555 1_555
N12_20 Cu2_20 1_555 1_555
N13_23 Cu3_23 1_555 1_555
C2_19 N2_23 1_555 1_555
H2_19 C2_19 1_555 1_555
Cu3_23 N3_16 1_555 1_555
N3_16 C2_19 1_555 1_555
N8_16 N9_16 1_555 1_555
Cu6_15 N6_20 1_555 1_555
C5_20 N6_20 1_555 1_555
H5_20 C5_20 1_555 1_555
N12_4 C5_20 1_555 1_555
Cu6_10 N10_24 1_555 1_555
Cu4_11 N7_20 1_555 1_555
N7_20 C6_20 1_555 1_555
N10_24 C3_17 1_555 1_555
C3_17 N8_4 1_555 1_555
C4_17 N9_4 1_555 1_555
C6_20 N12_5 1_555 1_555
H3_17 C3_17 1_555 1_555
H4_17 C4_17 1_555 1_555
H6_20 C6_20 1_555 1_555
N10_24 C4_17 1_555 1_555
N2_24 C1_20 1_555 1_555
C1_20 N8_2 1_555 1_555
H1_20 C1_20 1_555 1_555
Cu7_10 N2_24 1_555 1_555
Cu6_16 N6_21 1_555 1_555
Cu4_10 N7_21 1_555 1_555
N6_21 N7_21 1_555 1_555
N7_21 C6_21 1_555 1_555
C2_20 N2_24 1_555 1_555
C5_21 N6_21 1_555 1_555
C6_21 N12_2 1_555 1_555
H2_20 C2_20 1_555 1_555
H5_21 C5_21 1_555 1_555
H6_21 C6_21 1_555 1_555
N9_2 C2_20 1_555 1_555
N12_2 C5_21 1_555 1_555
Cu5_11 N7_22 1_555 1_555
N7_22 C6_22 1_555 1_555
C6_22 N13_20 1_555 1_555
H6_22 C6_22 1_555 1_555
N2_25 C1_21 1_555 1_555
C1_21 N9_14 1_555 1_555
H1_21 C1_21 1_555 1_555
Cu4_13 N2_25 1_555 1_555
Cu5_6 N6_22 1_555 1_555
C2_21 N2_25 1_555 1_555
C5_22 N6_22 1_555 1_555
H2_21 C2_21 1_555 1_555
H5_22 C5_22 1_555 1_555
N8_14 C2_21 1_555 1_555
N13_21 C5_22 1_555 1_555
Cu6_14 N7_23 1_555 1_555
N7_23 C6_23 1_555 1_555
C6_23 N12_10 1_555 1_555
H6_23 C6_23 1_555 1_555
N2_26 C1_22 1_555 1_555
C1_22 N8_9 1_555 1_555
H1_22 C1_22 1_555 1_555
Cu6_12 N2_26 1_555 1_555
Cu5_13 N6_23 1_555 1_555
C2_22 N2_26 1_555 1_555
C5_23 N6_23 1_555 1_555
H2_22 C2_22 1_555 1_555
H5_23 C5_23 1_555 1_555
N9_9 C2_22 1_555 1_555
N12_11 C5_23 1_555 1_555
N2_27 C1_23 1_555 1_555
C1_23 N8_7 1_555 1_555
H1_23 C1_23 1_555 1_555
Cu4_14 N2_27 1_555 1_555
Cu6_15 N6_24 1_555 1_555
Cu7_11 N7_24 1_555 1_555
N6_24 N7_24 1_555 1_555
N7_24 C6_24 1_555 1_555
C2_23 N2_27 1_555 1_555
C5_24 N6_24 1_555 1_555
C6_24 N12_8 1_555 1_555
H2_23 C2_23 1_555 1_555
H5_24 C5_24 1_555 1_555
H6_24 C6_24 1_555 1_555
N9_7 C2_23 1_555 1_555
N12_8 C5_24 1_555 1_555
N2_28 C1_24 1_555 1_555
C1_24 N8_13 1_555 1_555
H1_24 C1_24 1_555 1_555
Cu7_11 N2_28 1_555 1_555
Cu5_9 N6_25 1_555 1_555
Cu6_12 N7_25 1_555 1_555
N6_25 N7_25 1_555 1_555
N7_25 C6_25 1_555 1_555
C5_25 N6_25 1_555 1_555
C6_25 N12_16 1_555 1_555
H5_25 C5_25 1_555 1_555
H6_25 C6_25 1_555 1_555
N12_16 C5_25 1_555 1_555
Cu7_12 N2_29 1_555 1_555
C2_24 N2_29 1_555 1_555
H2_24 C2_24 1_555 1_555
N9_13 C2_24 1_555 1_555
Cu6_15 N10_25 1_555 1_555
Cu6_3 N6_26 1_555 1_555
Cu4_14 N7_26 1_555 1_555
N6_26 N7_26 1_555 1_555
N7_26 C6_26 1_555 1_555
N10_25 C3_18 1_555 1_555
C3_18 N8_15 1_555 1_555
C4_18 N9_15 1_555 1_555
C5_26 N6_26 1_555 1_555
C6_26 N12_18 1_555 1_555
H3_18 C3_18 1_555 1_555
H4_18 C4_18 1_555 1_555
H5_26 C5_26 1_555 1_555
H6_26 C6_26 1_555 1_555
N10_25 C4_18 1_555 1_555
N12_18 C5_26 1_555 1_555
N2_30 C1_25 1_555 1_555
C1_25 N8_3 1_555 1_555
H1_25 C1_25 1_555 1_555
Cu4_15 N2_30 1_555 1_555
Cu4_10 N6_27 1_555 1_555
Cu4_13 N7_27 1_555 1_555
N6_27 N7_27 1_555 1_555
N7_27 C6_27 1_555 1_555
C2_25 N2_30 1_555 1_555
C5_27 N6_27 1_555 1_555
C6_27 N12_3 1_555 1_555
H2_25 C2_25 1_555 1_555
H5_27 C5_27 1_555 1_555
H6_27 C6_27 1_555 1_555
N9_3 C2_25 1_555 1_555
N12_3 C5_27 1_555 1_555
N2_31 C1_26 1_555 1_555
C1_26 N9_8 1_555 1_555
H1_26 C1_26 1_555 1_555
Cu6_11 N2_31 1_555 1_555
Cu7_6 N6_28 1_555 1_555
Cu4_15 N7_28 1_555 1_555
N6_28 N7_28 1_555 1_555
N7_28 C6_28 1_555 1_555
C2_26 N2_31 1_555 1_555
C5_28 N6_28 1_555 1_555
C6_28 N13_12 1_555 1_555
H2_26 C2_26 1_555 1_555
H5_28 C5_28 1_555 1_555
H6_28 C6_28 1_555 1_555
N8_8 C2_26 1_555 1_555
N13_12 C5_28 1_555 1_555
N2_32 C1_27 1_555 1_555
C1_27 N8_6 1_555 1_555
H1_27 C1_27 1_555 1_555
Cu4_16 N2_32 1_555 1_555
Cu7_7 N6_29 1_555 1_555
Cu5_14 N7_29 1_555 1_555
N6_29 N7_29 1_555 1_555
N7_29 C6_29 1_555 1_555
C2_27 N2_32 1_555 1_555
C5_29 N6_29 1_555 1_555
C6_29 N12_7 1_555 1_555
H2_27 C2_27 1_555 1_555
H5_29 C5_29 1_555 1_555
H6_29 C6_29 1_555 1_555
N9_6 C2_27 1_555 1_555
N12_7 C5_29 1_555 1_555
Cu5_10 N7_30 1_555 1_555
N7_30 C6_30 1_555 1_555
C6_30 N12_19 1_555 1_555
H6_30 C6_30 1_555 1_555
N2_33 C1_28 1_555 1_555
C1_28 N8_16 1_555 1_555
H1_28 C1_28 1_555 1_555
Cu6_16 N2_33 1_555 1_555
Cu5_2 N6_30 1_555 1_555
C2_28 N2_33 1_555 1_555
C5_30 N6_30 1_555 1_555
H2_28 C2_28 1_555 1_555
H5_30 C5_30 1_555 1_555
N9_16 C2_28 1_555 1_555
N12_20 C5_30 1_555 1_555
N2_34 C1_29 1_555 1_555
C1_29 N8 1_555 1_555
H1_29 C1_29 1_555 1_555
Cu4_17 N2_34 1_555 1_555
Cu4_13 N6_31 1_555 1_555
Cu6_16 N7_31 1_555 1_555
N6_31 N7_31 1_555 1_555
N7_31 C6_31 1_555 1_555
C2_29 N2_34 1_555 1_555
C5_31 N6_31 1_555 1_555
C6_31 N12 1_555 1_555
H2_29 C2_29 1_555 1_555
H5_31 C5_31 1_555 1_555
H6_31 C6_31 1_555 1_555
N9 C2_29 1_555 1_555
N12 C5_31 1_555 1_555
N2_35 C1_30 1_555 1_555
C1_30 N9_5 1_555 1_555
H1_30 C1_30 1_555 1_555
Cu6_9 N2_35 1_555 1_555
Cu4_7 N6_32 1_555 1_555
Cu4_17 N7_32 1_555 1_555
N6_32 N7_32 1_555 1_555
N7_32 C6_32 1_555 1_555
C2_30 N2_35 1_555 1_555
C5_32 N6_32 1_555 1_555
C6_32 N13_9 1_555 1_555
H2_30 C2_30 1_555 1_555
H5_32 C5_32 1_555 1_555
H6_32 C6_32 1_555 1_555
N8_5 C2_30 1_555 1_555
N13_9 C5_32 1_555 1_555
Cu6_5 N6_33 1_555 1_555
Cu4_16 N7_33 1_555 1_555
N6_33 N7_33 1_555 1_555
N7_33 C6_33 1_555 1_555
C5_33 N6_33 1_555 1_555
C6_33 N13_22 1_555 1_555
H5_33 C5_33 1_555 1_555
H6_33 C6_33 1_555 1_555
N13_22 C5_33 1_555 1_555
Cu5_12 N6_34 1_555 1_555
Cu4_3 N7_34 1_555 1_555
N6_34 N7_34 1_555 1_555
N7_34 C6_34 1_555 1_555
C5_34 N6_34 1_555 1_555
C6_34 N13_11 1_555 1_555
H5_34 C5_34 1_555 1_555
H6_34 C6_34 1_555 1_555
N13_11 C5_34 1_555 1_555
Cu7_4 N7_35 1_555 1_555
N7_35 C6_35 1_555 1_555
C6_35 N13_13 1_555 1_555
H6_35 C6_35 1_555 1_555
Cu5_11 N6_35 1_555 1_555
C5_35 N6_35 1_555 1_555
H5_35 C5_35 1_555 1_555
N13_14 C5_35 1_555 1_555
Cu5_9 N6_36 1_555 1_555
Cu4 N7_36 1_555 1_555
N6_36 N7_36 1_555 1_555
N7_36 C6_36 1_555 1_555
C5_36 N6_36 1_555 1_555
C6_36 N13_10 1_555 1_555
H5_36 C5_36 1_555 1_555
H6_36 C6_36 1_555 1_555
N13_10 C5_36 1_555 1_555
Cu4_8 N7_37 1_555 1_555
N7_37 C6_37 1_555 1_555
C6_37 N13_7 1_555 1_555
H6_37 C6_37 1_555 1_555
Cu5_10 N6_37 1_555 1_555
C5_37 N6_37 1_555 1_555
H5_37 C5_37 1_555 1_555
N13_8 C5_37 1_555 1_555
Cu5_8 N6_38 1_555 1_555
Cu4_2 N7_38 1_555 1_555
N6_38 N7_38 1_555 1_555
N7_38 C6_38 1_555 1_555
C5_38 N6_38 1_555 1_555
C6_38 N13_16 1_555 1_555
H5_38 C5_38 1_555 1_555
H6_38 C6_38 1_555 1_555
N13_16 C5_38 1_555 1_555
Cu4_4 N7_39 1_555 1_555
N7_39 C6_39 1_555 1_555
C6_39 N13_17 1_555 1_555
H6_39 C6_39 1_555 1_555
Cu5_7 N6_39 1_555 1_555
C5_39 N6_39 1_555 1_555
H5_39 C5_39 1_555 1_555
N13_18 C5_39 1_555 1_555
Cu4_12 N6_40 1_555 1_555
C5_40 N6_40 1_555 1_555
H5_40 C5_40 1_555 1_555
N13_3 C5_40 1_555 1_555
Cu7 N7_40 1_555 1_555
N7_40 C6_40 1_555 1_555
C6_40 N13_4 1_555 1_555
H6_40 C6_40 1_555 1_555
Cu4_16 N6_41 1_555 1_555
C5_41 N6_41 1_555 1_555
H5_41 C5_41 1_555 1_555
N13 C5_41 1_555 1_555
Cu7_3 N7_41 1_555 1_555
N7_41 C6_41 1_555 1_555
C6_41 N13_2 1_555 1_555
H6_41 C6_41 1_555 1_555
Cu4_14 N6_42 1_555 1_555
C5_42 N6_42 1_555 1_555
H5_42 C5_42 1_555 1_555
N13_5 C5_42 1_555 1_555
Cu7_2 N7_42 1_555 1_555
N7_42 C6_42 1_555 1_555
C6_42 N13_6 1_555 1_555
H6_42 C6_42 1_555 1_555
Cu6_9 N6_43 1_555 1_555
Cu7_10 N7_43 1_555 1_555
N6_43 N7_43 1_555 1_555
N7_43 C6_43 1_555 1_555
C5_43 N6_43 1_555 1_555
C6_43 N13_23 1_555 1_555
H5_43 C5_43 1_555 1_555
H6_43 C6_43 1_555 1_555
N13_23 C5_43 1_555 1_555
Cu7_12 N6_44 1_555 1_555
Cu4_11 N7_44 1_555 1_555
N6_44 N7_44 1_555 1_555
N7_44 C6_44 1_555 1_555
C5_44 N6_44 1_555 1_555
C6_44 N12_12 1_555 1_555
H5_44 C5_44 1_555 1_555
H6_44 C6_44 1_555 1_555
N12_12 C5_44 1_555 1_555
Cu4_15 N6_45 1_555 1_555
Cu6_8 N7_45 1_555 1_555
N6_45 N7_45 1_555 1_555
N7_45 C6_45 1_555 1_555
C5_45 N6_45 1_555 1_555
C6_45 N13_19 1_555 1_555
H5_45 C5_45 1_555 1_555
H6_45 C6_45 1_555 1_555
N13_19 C5_45 1_555 1_555
Cu5_13 N6_46 1_555 1_555
Cu7_9 N7_46 1_555 1_555
N6_46 N7_46 1_555 1_555
N7_46 C6_46 1_555 1_555
C5_46 N6_46 1_555 1_555
C6_46 N12_6 1_555 1_555
H5_46 C5_46 1_555 1_555
H6_46 C6_46 1_555 1_555
N12_6 C5_46 1_555 1_555
Cu5_15 N6_47 1_555 1_555
Cu6_13 N7_47 1_555 1_555
N6_47 N7_47 1_555 1_555
N7_47 C6_47 1_555 1_555
C5_47 N6_47 1_555 1_555
C6_47 N12_9 1_555 1_555
H5_47 C5_47 1_555 1_555
H6_47 C6_47 1_555 1_555
N12_9 C5_47 1_555 1_555
Cu4_17 N6_48 1_555 1_555
Cu6_11 N7_48 1_555 1_555
N6_48 N7_48 1_555 1_555
N7_48 C6_48 1_555 1_555
C5_48 N6_48 1_555 1_555
C6_48 N12_17 1_555 1_555
H5_48 C5_48 1_555 1_555
H6_48 C6_48 1_555 1_555
N12_17 C5_48 1_555 1_555
O1_32 Cu7_7 1_555 1_555
Cu5_14 O1_32 1_555 1_555
Cu6_13 O1_33 1_555 1_555
Cu5_15 O1_33 1_555 1_555
O1_34 Cu6_14 1_555 1_555
Cu7_8 O1_34 1_555 1_555
Cu5_13 O1_35 1_555 1_555
Cu7_9 O1_35 1_555 1_555
O1_36 Cu6_15 1_555 1_555
Cu7_11 O1_36 1_555 1_555
Cu4_11 O1_37 1_555 1_555
Cu7_12 O1_37 1_555 1_555
Cu7_4 O1_38 1_555 1_555
O1_39 Cu5_5 1_555 1_555
Cu7_5 O1_39 1_555 1_555
Cu5_11 O1_40 1_555 1_555
O1_41 Cu5_6 1_555 1_555
Cu6_10 O1_42 1_555 1_555
O1_42 Cu4_2 1_555 1_555
Cu5_8 O1_42 1_555 1_555
Cu4_7 O1_43 1_555 1_555
O1_43 Cu4_17 1_555 1_555
Cu6_11 O1_43 1_555 1_555
Cu7_6 O1_44 1_555 1_555
O1_44 Cu4_15 1_555 1_555
Cu6_8 O1_44 1_555 1_555
Cu6_12 O1_45 1_555 1_555
O1_45 Cu4 1_555 1_555
Cu5_9 O1_45 1_555 1_555
Cu4_4 O1_46 1_555 1_555
O1_47 Cu5_3 1_555 1_555
Cu4_5 O1_47 1_555 1_555
Cu5_7 O1_48 1_555 1_555
O1_49 Cu5_4 1_555 1_555
Cu6_7 O1_50 1_555 1_555
O1_50 Cu4_3 1_555 1_555
Cu5_12 O1_50 1_555 1_555
Cu4_6 O1_51 1_555 1_555
O1_51 Cu7_10 1_555 1_555
Cu6_9 O1_51 1_555 1_555
Cu4_8 O1_52 1_555 1_555
Cu5_10 O1_53 1_555 1_555
O1_54 Cu5 1_555 1_555
Cu4_9 O1_54 1_555 1_555
O1_55 Cu5_2 1_555 1_555
Cu6_3 O1_56 1_555 1_555
Cu4_14 O1_56 1_555 1_555
Cu6_4 O1_57 1_555 1_555
O1_57 Cu7_2 1_555 1_555
O1_58 Cu4_16 1_555 1_555
Cu6_5 O1_58 1_555 1_555
Cu7_3 O1_59 1_555 1_555
Cu6_6 O1_59 1_555 1_555
Cu6_16 O1_60 1_555 1_555
O1_60 Cu4_10 1_555 1_555
Cu4_13 O1_60 1_555 1_555
O1_61 Cu6 1_555 1_555
Cu4_12 O1_61 1_555 1_555
Cu7 O1_62 1_555 1_555
O1_62 Cu6_2 1_555 1_555
O2 H7 1_555 1_555
O2_2 H7_2 1_555 1_555
O2_3 H7_3 1_555 1_555
O2_4 H7_4 1_555 1_555
O2_5 H7_5 1_555 1_555
O2_6 H7_6 1_555 1_555
O2_7 H7_7 1_555 1_555
O2_8 H7_8 1_555 1_555
O2_9 H7_9 1_555 1_555
O2_10 H7_10 1_555 1_555
O2_11 H7_11 1_555 1_555
O2_12 H7_12 1_555 1_555
O2_13 H7_13 1_555 1_555
O2_14 H7_14 1_555 1_555
O2_15 H7_15 1_555 1_555
O2_16 H7_16 1_555 1_555
O2_17 H7_17 1_555 1_555
O2_18 H7_18 1_555 1_555
O2_19 H7_19 1_555 1_555
O2_20 H7_20 1_555 1_555
O2_21 H7_21 1_555 1_555
O2_22 H7_22 1_555 1_555
O2_23 H7_23 1_555 1_555
O2_24 H7_24 1_555 1_555
O2_25 H7_25 1_555 1_555
O2_26 H7_26 1_555 1_555
O2_27 H7_27 1_555 1_555
O2_28 H7_28 1_555 1_555
O2_29 H7_29 1_555 1_555
O2_30 H7_30 1_555 1_555
O2_31 H7_31 1_555 1_555
O2_32 H7_32 1_555 1_555
O2_33 H7_33 1_555 1_555
O2_34 H7_34 1_555 1_555
O2_35 H7_35 1_555 1_555
O2_36 H7_36 1_555 1_555
O2_37 H7_37 1_555 1_555
O2_38 H7_38 1_555 1_555
O2_39 H7_39 1_555 1_555
O2_40 H7_40 1_555 1_555
O2_41 H7_41 1_555 1_555
O2_42 H7_42 1_555 1_555
O2_43 H7_43 1_555 1_555
O2_44 H7_44 1_555 1_555
O2_45 H7_45 1_555 1_555
O2_46 H7_46 1_555 1_555
O2_47 H7_47 1_555 1_555
O2_48 H7_48 1_555 1_555
O2_49 H7_49 1_555 1_555
O2_50 H7_50 1_555 1_555
O2_51 H7_51 1_555 1_555
O2_52 H7_52 1_555 1_555
O2_53 H7_53 1_555 1_555
O2_54 H7_54 1_555 1_555
O2_55 H7_55 1_555 1_555
O2_56 H7_56 1_555 1_555
O2_57 H7_57 1_555 1_555
O2_58 H7_58 1_555 1_555
O2_59 H7_59 1_555 1_555
O2_60 H7_60 1_555 1_555
O2_61 H7_61 1_555 1_555
O2_62 H7_62 1_555 1_555
O2_63 H7_63 1_555 1_555
O2_64 H7_64 1_555 1_555
O2_65 H7_65 1_555 1_555
O2_66 H7_66 1_555 1_555
O2_67 H7_67 1_555 1_555
O2_68 H7_68 1_555 1_555
O2_69 H7_69 1_555 1_555
O2_70 H7_70 1_555 1_555
O2_71 H7_71 1_555 1_555
O2_72 H7_72 1_555 1_555
O2_73 H7_73 1_555 1_555
O2_74 H7_74 1_555 1_555
O2_75 H7_75 1_555 1_555
O2_76 H7_76 1_555 1_555
O2_77 H7_77 1_555 1_555
O2_78 H7_78 1_555 1_555
O2_79 H7_79 1_555 1_555
O2_80 H7_80 1_555 1_555
O2_81 H7_81 1_555 1_555
O2_82 H7_82 1_555 1_555
O2_83 H7_83 1_555 1_555
O2_84 H7_84 1_555 1_555
O2_85 H7_85 1_555 1_555
O2_86 H7_86 1_555 1_555
O2_87 H7_87 1_555 1_555
O2_88 H7_88 1_555 1_555
O2_89 H7_89 1_555 1_555
O2_90 H7_90 1_555 1_555
O2_91 H7_91 1_555 1_555
O2_92 H7_92 1_555 1_555
O2_93 H7_93 1_555 1_555
O2_94 H7_94 1_555 1_555
O2_95 H7_95 1_555 1_555
O2_96 H7_96 1_555 1_555
O2_97 H7_97 1_555 1_555
O2_98 H7_98 1_555 1_555
O2_99 H7_99 1_555 1_555
O2_100 H7_100 1_555 1_555
O2_101 H7_101 1_555 1_555
O2_102 H7_102 1_555 1_555
O2_103 H7_103 1_555 1_555
O2_104 H7_104 1_555 1_555
O2_105 H7_105 1_555 1_555
O2_106 H7_106 1_555 1_555
O2_107 H7_107 1_555 1_555
O2_108 H7_108 1_555 1_555
O2_109 H7_109 1_555 1_555
O2_110 H7_110 1_555 1_555
O2_111 H7_111 1_555 1_555
O2_112 H7_112 1_555 1_555
O2_113 H7_113 1_555 1_555
O2_114 H7_114 1_555 1_555
O2_115 H7_115 1_555 1_555
O2_116 H7_116 1_555 1_555
O2_117 H7_117 1_555 1_555
O2_118 H7_118 1_555 1_555
O2_119 H7_119 1_555 1_555
O2_120 H7_120 1_555 1_555
O2_121 H7_121 1_555 1_555
O2_122 H7_122 1_555 1_555
O2_123 H7_123 1_555 1_555
O2_124 H7_124 1_555 1_555
O2_125 H7_125 1_555 1_555
O2_126 H7_126 1_555 1_555
O2_127 H7_127 1_555 1_555
O2_128 H7_128 1_555 1_555
O2_129 H7_129 1_555 1_555
O2_130 H7_130 1_555 1_555
O2_131 H7_131 1_555 1_555
O2_132 H7_132 1_555 1_555
O2_133 H7_133 1_555 1_555
O2_134 H7_134 1_555 1_555
O2_135 H7_135 1_555 1_555
O2_136 H7_136 1_555 1_555
O2_137 H7_137 1_555 1_555
O2_138 H7_138 1_555 1_555
O2_139 H7_139 1_555 1_555
O2_140 H7_140 1_555 1_555
O2_141 H7_141 1_555 1_555
O2_142 H7_142 1_555 1_555
O2_143 H7_143 1_555 1_555
O2_144 H7_144 1_555 1_555
O2_145 H7_145 1_555 1_555
O2_146 H7_146 1_555 1_555
O2_147 H7_147 1_555 1_555
O2_148 H7_148 1_555 1_555
O2_149 H7_149 1_555 1_555
O2_150 H7_150 1_555 1_555
O2_151 H7_151 1_555 1_555
O2_152 H7_152 1_555 1_555
O2_153 H7_153 1_555 1_555
O2_154 H7_154 1_555 1_555
O2_155 H7_155 1_555 1_555
O2_156 H7_156 1_555 1_555
O2_157 H7_157 1_555 1_555
O2_158 H7_158 1_555 1_555
O2_159 H7_159 1_555 1_555
O2_160 H7_160 1_555 1_555
O2_161 H7_161 1_555 1_555
O2_162 H7_162 1_555 1_555
O2_163 H7_163 1_555 1_555
O2_164 H7_164 1_555 1_555
O2_165 H7_165 1_555 1_555
O2_166 H7_166 1_555 1_555
O2_167 H7_167 1_555 1_555
O2_168 H7_168 1_555 1_555
O2_169 H7_169 1_555 1_555
O2_170 H7_170 1_555 1_555
O2_171 H7_171 1_555 1_555
O2_172 H7_172 1_555 1_555
O2_173 H7_173 1_555 1_555
O2_174 H7_174 1_555 1_555
O2_175 H7_175 1_555 1_555
O2_176 H7_176 1_555 1_555
O2_177 H7_177 1_555 1_555
O2_178 H7_178 1_555 1_555
O2_179 H7_179 1_555 1_555
O2_180 H7_180 1_555 1_555
O2_181 H7_181 1_555 1_555
O2_182 H7_182 1_555 1_555
O2_183 H7_183 1_555 1_555
O2_184 H7_184 1_555 1_555
O2_185 H7_185 1_555 1_555
O2_186 H7_186 1_555 1_555
O2_187 H7_187 1_555 1_555
O2_188 H7_188 1_555 1_555
O2_189 H7_189 1_555 1_555
O2_190 H7_190 1_555 1_555
O2_191 H7_191 1_555 1_555
O2_192 H7_192 1_555 1_555

#END
