
###############################################################################
#
# This file contains modified crystal structure data generated from the
# MOF subset of the Cambridge Structural Database (CSD) v543 
# hosted by the Cambridge Crystallographic Data Centre (CCDC).
#
# This work is licensed under the Creative Commons
# Attribution-NonCommercial-ShareAlike 4.0 International License.
# To view a copy of this license, visit
# http://creativecommons.org/licenses/by-nc-sa/4.0/
# or send a letter to
# Creative Commons, PO Box 1866, Mountain View, CA 94042, USA.
#
# CIF created using the CSD Python API on 29 September 2022
# The structure has been converted into the P1 space group
# The structure has a 3D framework
# The original CSD entry YEMHOO is in the rhombohedral crystal system
# The framework has been calculated to contain at least 10.0% void space
# The void calculation uses a probe of radius 1.32A, grid spacing 0.4
#
###############################################################################

data_YEMHOO
_chemical_formula_moiety         '(C148 H136 Cd33 O167)n'
_symmetry_cell_setting           triclinic
_symmetry_space_group_name_H-M   'P 1'
_symmetry_Int_Tables_number      1
_space_group_name_Hall           'P 1'
loop_
_symmetry_equiv_pos_site_id
_symmetry_equiv_pos_as_xyz
1 x,y,z
_cell_length_a                   17.7971(14)
_cell_length_b                   17.7971(14)
_cell_length_c                   22.961(4)
_cell_angle_alpha                90
_cell_angle_beta                 90
_cell_angle_gamma                120.00
_cell_volume                     6298.25
loop_
_atom_site_label
_atom_site_type_symbol
_atom_site_fract_x
_atom_site_fract_y
_atom_site_fract_z
Cd1 Cd 0.42043(3) 0.38541(3) 0.02161(2)
O1 O 0.3907(4) 0.2443(3) 0.0238(2)
O2 O 0.2694(4) 0.1233(4) 0.0060(2)
O3 O 0.3048(3) 0.3397(3) 0.0816(2)
O4 O 0.1963(3) 0.2469(3) 0.1345(2)
O6 O 0.3870(4) 0.0396(5) 0.0549(3)
O9 O 0.4533(3) 0.5351(4) 0.0345(2)
H1 H 0.421(4) 0.555(5) 0.023(3)
H2 H 0.456(6) 0.538(7) 0.0716(6)
O10 O 0.5216(4) 0.4252(4) 0.0935(2)
H3 H 0.5549 0.4789 0.1002
H4 H 0.5532 0.4033 0.0851
C1 C 0.3048(5) 0.1580(4) 0.1057(3)
H5 H 0.2430 0.1159 0.1108
C2 C 0.3270(4) 0.2400(4) 0.1413(3)
H6 H 0.3887 0.2823 0.1363
C3 C 0.3577(5) 0.1165(4) 0.1267(3)
H7 H 0.4196 0.1579 0.1214
C4 C 0.3228(5) 0.1782(5) 0.0407(3)
C5 C 0.2734(5) 0.2789(5) 0.1181(3)
C6 C 0.3333(6) 0.0347(5) 0.0920(3)
Cd7 Cd 0.28126(3) 0.36835(4) 0.35494(2)
Cd15 Cd 0.33206(3) 0.16147(3) 0.41397(2)
Cd16 Cd 0.16275(4) 0.33461(3) 0.08064(2)
Cd21 Cd 0.49481(3) 0.49608(4) 0.25269(2)
O11 O 0.2760(4) 0.0890(3) 0.3095(2)
O16 O 0.4224(3) 0.4797(5) 0.3571(2)
O17 O 0.3973(4) 0.2100(4) 0.3273(2)
O22 O 0.5206(6) 0.0639(4) 0.3393(2)
O29 O 0.3270(3) 0.2984(4) 0.4149(2)
O31 O 0.4704(3) 0.0864(3) 0.1988(2)
O36 O 0.4198(3) 0.2827(4) 0.4678(2)
O38 O 0.4056(4) 0.3620(4) 0.2313(3)
O43 O 0.3769(6) 0.0722(4) 0.4353(3)
O44 O 0.0287(4) 0.2898(6) 0.1020(3)
O46 O 0.6380(4) 0.0435(6) 0.2313(3)
O48 O 0.2797(4) 0.2937(5) 0.2784(3)
O61 O 0.1921(3) 0.0852(3) 0.4305(2)
O62 O 0.2265(4) 0.4746(3) 0.0972(2)
O75 O 0.0818(5) 0.5467(3) 0.0345(2)
O80 O 0.1316(4) 0.2515(5) 0.3678(2)
O81 O 0.2018(4) 0.4151(5) 0.2988(2)
H13 H 0.134(6) 0.579(4) 0.023(3)
H18 H 0.112(5) 0.199(6) 0.356(3)
H19 H 0.222(5) 0.467(6) 0.310(3)
H24 H 0.082(9) 0.544(6) 0.0716(6)
H29 H 0.129(7) 0.251(9) 0.4049(6)
H30 H 0.205(7) 0.415(9) 0.2617(6)
O86 O 0.2415(4) 0.4297(6) 0.4268(2)
H35 H 0.1878 0.4093 0.4335
H40 H 0.2634 0.4832 0.4184
C9 C 0.3619(5) 0.1753(4) 0.2276(3)
H41 H 0.4237 0.2174 0.2225
C14 C 0.3397(4) 0.0933(4) 0.1920(3)
H46 H 0.2780 0.0510 0.1970
C19 C 0.3090(5) 0.2168(4) 0.2066(3)
H51 H 0.2471 0.1754 0.2119
C24 C 0.3439(5) 0.1551(5) 0.2926(3)
C29 C 0.3933(5) 0.0544(5) 0.2152(3)
C34 C 0.3334(6) 0.2986(5) 0.2413(3)
Cd2 Cd 0.33461(3) 0.17186(3) 0.91936(2)
O7 O 0.4746(3) 0.2481(3) 0.9028(2)
O8 O 0.4163(3) 0.2084(4) 0.8159(2)
C7 C 0.5719(4) 0.2886(4) 0.8228(3)
H8 H 0.5689 0.2872 0.7801
C8 C 0.4802(5) 0.2454(4) 0.8483(3)
Cd4 Cd 0.03502(4) 0.42043(3) 0.97839(2)
Cd5 Cd 0.29831(4) 0.24624(3) 0.68828(2)
Cd8 Cd 0.57957(3) 0.61459(3) 0.97839(2)
Cd12 Cd 0.36835(4) 0.08710(3) 0.64506(2)
Cd17 Cd 0.17058(4) 0.33206(3) 0.58603(2)
Cd22 Cd 0.49608(4) 0.00128(3) 0.74731(2)
Cd23 Cd 0.82814(3) 0.16275(4) 0.91936(2)
Cd24 Cd 0.99872(3) 0.49481(3) 0.74731(2)
Cd25 Cd 0.83725(4) 0.66539(3) 0.91936(2)
Cd26 Cd 0.50519(3) 0.50392(4) 0.74731(2)
O12 O 0.1464(5) 0.3907(4) 0.9762(2)
O13 O 0.1869(5) 0.2760(4) 0.6905(2)
O18 O 0.1461(6) 0.2694(4) 0.9940(2)
O19 O 0.1872(6) 0.3973(4) 0.6727(2)
O26 O 0.3682(4) 0.3619(3) 0.7483(2)
O27 O 0.3397(3) 0.0349(4) 0.9184(2)
O30 O 0.0285(3) 0.3270(3) 0.5851(2)
O33 O 0.3839(4) 0.4704(3) 0.8012(2)
O34 O 0.2469(3) 0.0506(4) 0.8655(2)
O37 O 0.1370(3) 0.4198(3) 0.5322(2)
O39 O 0.2898(6) 0.2611(4) 0.8980(3)
O40 O 0.0435(6) 0.4056(4) 0.7687(3)
O45 O 0.3046(4) 0.3769(6) 0.5647(3)
O49 O 0.3474(6) 0.3870(4) 0.9451(3)
O52 O 0.2937(5) 0.0141(6) 0.7216(3)
O55 O 0.3729(5) 0.3193(6) 0.6118(3)
O56 O 0.5598(4) 0.1413(3) 0.7639(2)
O57 O 0.7519(3) 0.2265(4) 0.9028(2)
O58 O 0.8587(3) 0.4186(3) 0.7639(2)
O59 O 0.7735(4) 0.5254(3) 0.9028(2)
O60 O 0.5814(3) 0.4402(4) 0.7639(2)
O63 O 0.1068(4) 0.1921(3) 0.5695(2)
O66 O 0.5412(5) 0.0830(3) 0.8508(2)
O67 O 0.7916(4) 0.2079(5) 0.8159(2)
O68 O 0.9170(3) 0.4583(4) 0.8508(2)
O69 O 0.7921(5) 0.5837(3) 0.8159(2)
O70 O 0.5417(4) 0.4588(5) 0.8508(2)
O71 O 0.5467(3) 0.4649(4) 0.9655(2)
O76 O 0.2515(5) 0.1200(3) 0.6322(2)
O77 O 0.4151(5) 0.2134(3) 0.7012(2)
O79 O 0.5351(4) 0.0818(5) 0.9655(2)
H9 H 0.579(4) 0.445(5) 0.977(3)
H14 H 0.199(6) 0.088(4) 0.644(3)
H15 H 0.467(6) 0.246(4) 0.690(3)
H17 H 0.555(5) 0.134(6) 0.977(3)
H20 H 0.544(6) 0.462(7) 0.9284(6)
H25 H 0.251(9) 0.123(6) 0.5951(6)
H26 H 0.415(9) 0.211(6) 0.7383(6)
H28 H 0.538(7) 0.082(9) 0.9284(6)
O83 O 0.0964(6) 0.5216(4) 0.9065(2)
O84 O 0.2369(6) 0.1451(4) 0.7602(2)
H32 H 0.0760 0.5549 0.8998
H33 H 0.2573 0.1118 0.7669
H37 H 0.1499 0.5532 0.9149
H38 H 0.1834 0.1135 0.7518
C10 C 0.1468(6) 0.3048(5) 0.8943(3)
C11 C 0.1865(6) 0.3619(5) 0.7724(3)
H42 H 0.1271 0.2430 0.8892
H43 H 0.2062 0.4237 0.7775
C15 C 0.0870(6) 0.3270(4) 0.8587(3)
C16 C 0.2463(6) 0.3397(4) 0.8080(3)
H47 H 0.1064 0.3887 0.8637
H48 H 0.2269 0.2780 0.8030
C20 C 0.2412(6) 0.3577(5) 0.8733(3)
C21 C 0.0921(6) 0.3090(5) 0.7934(3)
H52 H 0.2617 0.4196 0.8786
H53 H 0.0716 0.2471 0.7881
C25 C 0.1446(7) 0.3228(5) 0.9593(3)
C26 C 0.1887(7) 0.3439(5) 0.7074(3)
C31 C 0.3388(7) 0.3933(5) 0.7848(3)
C32 C 0.2789(5) 0.0055(7) 0.8819(3)
C35 C 0.2986(8) 0.3333(6) 0.9080(3)
C36 C 0.0347(8) 0.3334(6) 0.7587(3)
C39 C 0.6219(4) 0.3834(6) 0.8439(3)
C40 C 0.7167(6) 0.4281(4) 0.8228(3)
C41 C 0.7614(4) 0.3781(4) 0.8439(3)
C42 C 0.7114(4) 0.2833(6) 0.8228(3)
C43 C 0.6166(6) 0.2386(4) 0.8439(3)
H56 H 0.6150 0.2356 0.8866
H57 H 0.7128 0.2817 0.7801
H58 H 0.7644 0.3795 0.8866
H59 H 0.7183 0.4311 0.7801
H60 H 0.6205 0.3850 0.8866
C44 C 0.5681(6) 0.1469(5) 0.8184(3)
C45 C 0.7546(4) 0.2348(6) 0.8483(3)
C46 C 0.8531(5) 0.4213(4) 0.8184(3)
C47 C 0.7652(6) 0.5198(5) 0.8483(3)
C48 C 0.5787(4) 0.4319(6) 0.8184(3)
O5 O 0.2611(4) 0.9713(4) 0.1020(3)
Cd3 Cd 0.24624(3) 0.94792(3) 0.31172(2)
Cd13 Cd 0.08710(3) 0.71874(3) 0.35494(2)
Cd18 Cd 0.50392(4) 0.99872(3) 0.25269(2)
Cd20 Cd 0.17186(3) 0.83725(4) 0.08064(2)
O24 O 0.3619(3) 0.9936(3) 0.2517(2)
O53 O 0.3193(6) 0.9463(4) 0.3882(3)
O64 O 0.4402(4) 0.8587(3) 0.2361(2)
O72 O 0.2134(3) 0.7982(4) 0.2988(2)
O73 O 0.1200(3) 0.8684(4) 0.3678(2)
O78 O 0.4649(4) 0.9182(5) 0.0345(2)
H10 H 0.246(4) 0.778(5) 0.310(3)
H11 H 0.088(4) 0.888(5) 0.356(3)
H16 H 0.445(5) 0.866(6) 0.023(3)
H21 H 0.211(6) 0.795(7) 0.2617(6)
H22 H 0.123(6) 0.871(7) 0.4049(6)
H27 H 0.462(7) 0.918(9) 0.0716(6)
O82 O 0.1451(4) 0.9081(4) 0.2398(2)
H31 H 0.1118 0.8544 0.2331
H36 H 0.1135 0.9300 0.2482
Cd6 Cd 0.38541(3) 0.96498(4) 0.97839(2)
Cd30 Cd 0.16147(3) 0.82942(4) 0.58603(2)
O14 O 0.2443(3) 0.8536(5) 0.9762(2)
O15 O 0.0890(3) 0.8131(5) 0.6905(2)
O20 O 0.1233(4) 0.8539(6) 0.9940(2)
O21 O 0.2100(4) 0.8128(6) 0.6727(2)
O35 O 0.0864(3) 0.6161(4) 0.8012(2)
O42 O 0.3620(4) 0.9565(6) 0.7687(3)
O51 O 0.0396(5) 0.6526(6) 0.9451(3)
O85 O 0.4252(4) 0.9036(6) 0.9065(2)
H34 H 0.4789 0.9240 0.8998
H39 H 0.4033 0.8501 0.9149
C12 C 0.1580(4) 0.8532(6) 0.8943(3)
C13 C 0.1753(4) 0.8135(6) 0.7724(3)
H44 H 0.1159 0.8729 0.8892
H45 H 0.2174 0.7938 0.7775
C17 C 0.2400(4) 0.9130(6) 0.8587(3)
C18 C 0.0933(4) 0.7537(6) 0.8080(3)
H49 H 0.2823 0.8936 0.8637
H50 H 0.0510 0.7731 0.8030
C22 C 0.1165(4) 0.7588(6) 0.8733(3)
C23 C 0.2168(4) 0.9079(6) 0.7934(3)
H54 H 0.1579 0.7383 0.8786
H55 H 0.1754 0.9284 0.7881
C27 C 0.1782(5) 0.8554(7) 0.9593(3)
C28 C 0.1551(5) 0.8113(7) 0.7074(3)
C33 C 0.0544(5) 0.6612(7) 0.7848(3)
C37 C 0.0347(5) 0.7014(8) 0.9080(3)
C38 C 0.2986(5) 0.9653(8) 0.7587(3)
Cd14 Cd 0.96498(4) 0.57957(3) 0.02161(2)
O23 O 0.8767(4) 0.1461(6) 0.0060(2)
O54 O 0.9604(5) 0.3474(6) 0.0549(3)
Cd9 Cd 0.91290(3) 0.28126(3) 0.64506(2)
O25 O 0.9651(4) 0.3048(3) 0.9184(2)
O32 O 0.9494(4) 0.1963(3) 0.8655(2)
O47 O 0.7389(4) 0.0287(4) 0.8980(3)
O50 O 0.9859(6) 0.2797(4) 0.7216(3)
O74 O 0.9182(5) 0.4533(3) 0.9655(2)
H12 H 0.866(6) 0.421(4) 0.977(3)
H23 H 0.918(9) 0.456(6) 0.9284(6)
C30 C 0.9945(7) 0.2734(5) 0.8819(3)
Cd11 Cd 0.94792(3) 0.70169(4) 0.68828(2)
O28 O 0.9936(3) 0.6318(4) 0.7483(2)
O41 O 0.9713(4) 0.7102(6) 0.8980(3)
Cd3_2 Cd 0.05208(3) 0.29831(4) 0.31172(2)
Cd18_2 Cd 0.00128(3) 0.50519(5) 0.25269(2)
O24_2 O 0.0064(3) 0.3682(4) 0.2517(2)
O53_2 O 0.0537(4) 0.3729(7) 0.3882(3)
O64_2 O 0.1413(3) 0.5814(5) 0.2361(2)
O82_2 O 0.0919(4) 0.2369(6) 0.2398(2)
H31_2 H 0.1456 0.2573 0.2331
H36_2 H 0.0700 0.1834 0.2482
Cd1_2 Cd 0.61459(3) 0.03502(4) 0.02161(2)
O1_2 O 0.7557(3) 0.1464(5) 0.0238(2)
O10_2 O 0.5748(4) 0.0964(6) 0.0935(2)
H3_2 H 0.5211 0.0760 0.1002
H4_2 H 0.5967 0.1499 0.0851
C1_2 C 0.8420(4) 0.1468(6) 0.1057(3)
H5_2 H 0.8841 0.1271 0.1108
C2_2 C 0.7600(4) 0.0870(6) 0.1413(3)
H6_2 H 0.7177 0.1064 0.1363
C3_2 C 0.8835(4) 0.2412(6) 0.1267(3)
H7_2 H 0.8421 0.2617 0.1214
C4_2 C 0.8218(5) 0.1446(7) 0.0407(3)
C6_2 C 0.9653(5) 0.2986(8) 0.0920(3)
Cd15_2 Cd 0.83853(3) 0.17058(4) 0.41397(2)
O11_2 O 0.9110(3) 0.1869(5) 0.3095(2)
O17_2 O 0.7900(4) 0.1872(6) 0.3273(2)
O22_2 O 0.9361(4) 0.4566(7) 0.3393(2)
O29_2 O 0.7016(4) 0.0285(5) 0.4149(2)
O31_2 O 0.9136(3) 0.3839(4) 0.1988(2)
O36_2 O 0.7173(4) 0.1370(5) 0.4678(2)
O43_2 O 0.9278(4) 0.3046(7) 0.4353(3)
O46_2 O 0.9565(6) 0.5944(7) 0.2313(3)
O61_2 O 0.9148(3) 0.1068(4) 0.4305(2)
C9_2 C 0.8247(4) 0.1865(6) 0.2276(3)
H41_2 H 0.7826 0.2062 0.2225
C14_2 C 0.9067(4) 0.2463(6) 0.1920(3)
H46_2 H 0.9490 0.2269 0.1970
C19_2 C 0.7832(4) 0.0921(6) 0.2066(3)
H51_2 H 0.8246 0.0716 0.2119
C24_2 C 0.8449(5) 0.1887(7) 0.2926(3)
C29_2 C 0.9456(5) 0.3388(7) 0.2152(3)
C34_2 C 0.7014(5) 0.0347(8) 0.2413(3)
Cd5_2 Cd 0.75376(3) 0.05208(5) 0.68828(2)
O26_2 O 0.6381(3) 0.0064(5) 0.7483(2)
O55_2 O 0.6807(6) 0.0537(8) 0.6118(3)
O76_2 O 0.8800(3) 0.1316(6) 0.6322(2)
O77_2 O 0.7866(3) 0.2018(6) 0.7012(2)
H14_2 H 0.912(4) 0.112(7) 0.644(3)
H15_2 H 0.754(4) 0.222(7) 0.690(3)
H25_2 H 0.877(6) 0.129(11) 0.5951(6)
H26_2 H 0.789(6) 0.205(11) 0.7383(6)
O84_2 O 0.8549(4) 0.0919(7) 0.7602(2)
H33_2 H 0.8882 0.1456 0.7669
H38_2 H 0.8865 0.0700 0.7518
O3_2 O 0.6603(3) 0.9651(4) 0.0816(2)
O4_2 O 0.7531(3) 0.9494(4) 0.1345(2)
C5_2 C 0.7211(5) 0.9945(7) 0.1181(3)
Cd7_2 Cd 0.63165(4) 0.91290(5) 0.35494(2)
Cd16_2 Cd 0.66539(3) 0.82814(5) 0.08064(2)
O16_2 O 0.5203(5) 0.9426(6) 0.3571(2)
O23_2 O 0.8539(6) 0.7306(7) 0.0060(2)
O44_2 O 0.7102(6) 0.7389(7) 0.1020(3)
O48_2 O 0.7063(5) 0.9859(6) 0.2784(3)
O54_2 O 0.6526(6) 0.6130(8) 0.0549(3)
O62_2 O 0.5254(3) 0.7519(5) 0.0972(2)
O80_2 O 0.7485(5) 0.8800(6) 0.3678(2)
O81_2 O 0.5849(5) 0.7866(6) 0.2988(2)
H18_2 H 0.801(6) 0.912(8) 0.356(3)
H19_2 H 0.533(6) 0.754(8) 0.310(3)
H29_2 H 0.749(9) 0.877(11) 0.4049(6)
H30_2 H 0.585(9) 0.789(11) 0.2617(6)
O86_2 O 0.5703(6) 0.8117(7) 0.4268(2)
H35_2 H 0.5907 0.7784 0.4335
H40_2 H 0.5168 0.7801 0.4184
Cd9_2 Cd 0.71874(3) 0.63165(4) 0.64506(2)
Cd17_2 Cd 0.66794(3) 0.83853(5) 0.58603(2)
O12_2 O 0.6093(4) 0.7557(6) 0.9762(2)
O13_2 O 0.7240(4) 0.9110(6) 0.6905(2)
O18_2 O 0.7306(4) 0.8767(7) 0.9940(2)
O19_2 O 0.6027(4) 0.7900(7) 0.6727(2)
O25_2 O 0.6952(3) 0.6603(5) 0.9184(2)
O30_2 O 0.6730(3) 0.7016(4) 0.5851(2)
O32_2 O 0.8037(3) 0.7531(5) 0.8655(2)
O33_2 O 0.5296(3) 0.9136(5) 0.8012(2)
O37_2 O 0.5802(3) 0.7173(4) 0.5322(2)
O40_2 O 0.5944(4) 0.6380(7) 0.7687(3)
O45_2 O 0.6231(6) 0.9278(7) 0.5647(3)
O49_2 O 0.6130(4) 0.9604(7) 0.9451(3)
O50_2 O 0.7203(4) 0.7063(7) 0.7216(3)
O63_2 O 0.8079(3) 0.9148(5) 0.5695(2)
O83_2 O 0.4784(4) 0.5748(7) 0.9065(2)
H32_2 H 0.4451 0.5211 0.8998
H37_2 H 0.4468 0.5967 0.9149
C10_2 C 0.6952(5) 0.8420(8) 0.8943(3)
C11_2 C 0.6381(5) 0.8247(8) 0.7724(3)
H42_2 H 0.7570 0.8841 0.8892
H43_2 H 0.5763 0.7826 0.7775
C15_2 C 0.6730(4) 0.7600(7) 0.8587(3)
C16_2 C 0.6603(4) 0.9067(7) 0.8080(3)
H47_2 H 0.6113 0.7177 0.8637
H48_2 H 0.7220 0.9490 0.8030
C20_2 C 0.6423(5) 0.8835(8) 0.8733(3)
C21_2 C 0.6910(5) 0.7832(8) 0.7934(3)
H52_2 H 0.5804 0.8421 0.8786
H53_2 H 0.7529 0.8246 0.7881
C25_2 C 0.6772(5) 0.8218(9) 0.9593(3)
C26_2 C 0.6561(5) 0.8449(9) 0.7074(3)
C30_2 C 0.7266(5) 0.7211(9) 0.8819(3)
C31_2 C 0.6067(5) 0.9456(9) 0.7848(3)
C35_2 C 0.6667(6) 0.9653(10) 0.9080(3)
C36_2 C 0.6666(6) 0.7014(10) 0.7587(3)
O3_3 O 0.0349(4) 0.6952(3) 0.0816(2)
O4_3 O 0.0506(4) 0.8037(3) 0.1345(2)
C5_3 C 0.0055(7) 0.7266(5) 0.1181(3)
O16_3 O 0.0574(6) 0.5776(3) 0.3571(2)
O48_3 O 0.0141(6) 0.7203(4) 0.2784(3)
O62_3 O 0.2481(5) 0.7735(4) 0.0972(2)
O86_3 O 0.1883(7) 0.7585(4) 0.4268(2)
H35_3 H 0.2216 0.8122 0.4335
H40_3 H 0.2199 0.7366 0.4184
O30_3 O 0.2984(4) 0.9715(3) 0.5851(2)
O37_3 O 0.2827(4) 0.8630(3) 0.5322(2)
O45_3 O 0.0722(7) 0.6954(4) 0.5647(3)
O63_3 O 0.0852(5) 0.8932(4) 0.5695(2)
O1_3 O 0.8536(5) 0.6093(4) 0.0238(2)
O10_3 O 0.9036(6) 0.4784(4) 0.0935(2)
H3_3 H 0.9240 0.4451 0.1002
H4_3 H 0.8501 0.4468 0.0851
C1_3 C 0.8532(6) 0.6952(5) 0.1057(3)
H5_3 H 0.8729 0.7570 0.1108
C2_3 C 0.9130(6) 0.6730(4) 0.1413(3)
H6_3 H 0.8936 0.6113 0.1363
C3_3 C 0.7588(6) 0.6423(5) 0.1267(3)
H7_3 H 0.7383 0.5804 0.1214
C4_3 C 0.8554(7) 0.6772(5) 0.0407(3)
C6_3 C 0.7014(8) 0.6667(6) 0.0920(3)
Cd3_3 Cd 0.70169(4) 0.75376(3) 0.31172(2)
Cd15_3 Cd 0.82942(4) 0.66794(3) 0.41397(2)
O11_3 O 0.8131(5) 0.7240(4) 0.3095(2)
O17_3 O 0.8128(6) 0.6027(4) 0.3273(2)
O22_3 O 0.5434(7) 0.4794(6) 0.3393(2)
O24_3 O 0.6318(4) 0.6381(3) 0.2517(2)
O29_3 O 0.9715(5) 0.6730(3) 0.4149(2)
O31_3 O 0.6161(4) 0.5296(3) 0.1988(2)
O36_3 O 0.8630(5) 0.5802(3) 0.4678(2)
O43_3 O 0.6954(7) 0.6231(6) 0.4353(3)
O53_3 O 0.6271(7) 0.6807(6) 0.3882(3)
O61_3 O 0.8932(4) 0.8079(3) 0.4305(2)
O64_3 O 0.4186(5) 0.5598(4) 0.2361(2)
O82_3 O 0.7631(6) 0.8549(4) 0.2398(2)
H31_3 H 0.7427 0.8882 0.2331
H36_3 H 0.8166 0.8865 0.2482
C9_3 C 0.8135(6) 0.6381(5) 0.2276(3)
H41_3 H 0.7938 0.5763 0.2225
C14_3 C 0.7537(6) 0.6603(4) 0.1920(3)
H46_3 H 0.7731 0.7220 0.1970
C19_3 C 0.9079(6) 0.6910(5) 0.2066(3)
H51_3 H 0.9284 0.7529 0.2119
C24_3 C 0.8113(7) 0.6561(5) 0.2926(3)
C29_3 C 0.6612(7) 0.6067(5) 0.2152(3)
C34_3 C 0.9653(8) 0.6666(6) 0.2413(3)
O55_3 O 0.9463(8) 0.6271(5) 0.6118(3)
O76_3 O 0.8684(6) 0.7485(5) 0.6322(2)
O77_3 O 0.7982(6) 0.5849(5) 0.7012(2)
H14_3 H 0.888(7) 0.801(6) 0.644(3)
H15_3 H 0.778(7) 0.533(6) 0.690(3)
H25_3 H 0.871(11) 0.749(9) 0.5951(6)
H26_3 H 0.795(11) 0.585(9) 0.7383(6)
O84_3 O 0.9081(7) 0.7631(6) 0.7602(2)
H33_3 H 0.8544 0.7427 0.7669
H38_3 H 0.9300 0.8166 0.7518
O8_2 O 0.0830(3) 0.5417(4) 0.1492(2)
H6_4 H 0.0554 0.6156 0.4696
C3_4 C 0.0244(5) 0.4498(4) 0.4600(3)
H7_4 H 0.0863 0.4912 0.4547
C6_4 C -0.0000(6) 0.3680(5) 0.4253(3)
C7_2 C 0.2386(4) 0.6219(4) 0.1561(3)
H8_2 H 0.2356 0.6205 0.1134
C8_2 C 0.1469(5) 0.5787(4) 0.1816(3)
O17_4 O 0.0639(4) 0.5434(4) 0.6607(2)
O66_2 O 0.2079(5) 0.4163(3) 0.1841(2)
O67_2 O 0.4583(4) 0.5412(5) 0.1492(2)
O68_2 O 0.5837(3) 0.7916(4) 0.1841(2)
O69_2 O 0.4588(5) 0.9170(3) 0.1492(2)
O70_2 O 0.2084(4) 0.7921(5) 0.1841(2)
C9_4 C 0.0285(5) 0.5087(4) 0.5610(3)
H41_4 H 0.0903 0.5508 0.5559
C14_4 C 0.0063(4) 0.4267(4) 0.5254(3)
C24_4 C 0.0105(5) 0.4885(5) 0.6260(3)
C29_4 C 0.0599(5) 0.3878(5) 0.5486(3)
C34_4 C 0.0000(6) 0.6320(5) 0.5747(3)
C39_2 C 0.2886(4) 0.7167(6) 0.1772(3)
C40_2 C 0.3834(6) 0.7614(4) 0.1561(3)
C41_2 C 0.4281(4) 0.7114(4) 0.1772(3)
C42_2 C 0.3781(4) 0.6166(6) 0.1561(3)
C43_2 C 0.2833(6) 0.5719(4) 0.1772(3)
H56_2 H 0.2817 0.5689 0.2199
H57_2 H 0.3795 0.6150 0.1134
H58_2 H 0.4311 0.7128 0.2199
H59_2 H 0.3850 0.7644 0.1134
H60_2 H 0.2872 0.7183 0.2199
C44_2 C 0.2348(6) 0.4802(5) 0.1517(3)
C45_2 C 0.4213(4) 0.5681(6) 0.1816(3)
C46_2 C 0.5198(5) 0.7546(4) 0.1517(3)
C47_2 C 0.4319(6) 0.8531(5) 0.1816(3)
C48_2 C 0.2454(4) 0.7652(6) 0.1517(3)
C1_4 C 0.9715(5) 0.4913(4) 0.4390(3)
H5_4 H 0.9097 0.4492 0.4441
C2_4 C 0.9937(4) 0.5733(4) 0.4746(3)
C4_4 C 0.9895(5) 0.5115(5) 0.3740(3)
C5_4 C 0.9401(5) 0.6122(5) 0.4514(3)
C6_5 C 1.0000(6) 0.3680(5) 0.4253(3)
O11_4 O 0.9426(4) 0.4224(3) 0.6429(2)
O82_4 O 0.8117(4) 0.2415(4) 0.5732(2)
H31_4 H 0.7784 0.1878 0.5665
H36_4 H 0.7801 0.2634 0.5816
H46_4 H 0.9446 0.3844 0.5304
C19_4 C 0.9756(5) 0.5502(4) 0.5400(3)
H51_4 H 0.9137 0.5088 0.5453
C34_5 C 1.0000(6) 0.6320(5) 0.5747(3)
C1_5 C 0.5087(4) 0.4801(6) 0.4390(3)
H5_5 H 0.5508 0.4604 0.4441
C2_5 C 0.4267(4) 0.4203(6) 0.4746(3)
H6_5 H 0.3844 0.4397 0.4696
C3_5 C 0.5502(4) 0.5745(6) 0.4600(3)
H7_5 H 0.5088 0.5950 0.4547
C4_5 C 0.4885(5) 0.4779(7) 0.3740(3)
C5_5 C 0.3878(5) 0.3278(7) 0.4514(3)
C6_6 C 0.6320(5) 0.6319(8) 0.4253(3)
O11_5 O 0.5776(3) 0.5203(5) 0.6429(2)
O17_5 O 0.4566(4) 0.5206(6) 0.6607(2)
O82_5 O 0.7585(4) 0.5703(6) 0.5732(2)
H31_5 H 0.8122 0.5907 0.5665
H36_5 H 0.7366 0.5168 0.5816
C9_5 C 0.4913(4) 0.5199(6) 0.5610(3)
H41_5 H 0.4492 0.5396 0.5559
C14_5 C 0.5733(4) 0.5797(6) 0.5254(3)
H46_5 H 0.6156 0.5603 0.5304
C19_5 C 0.4498(4) 0.4255(6) 0.5400(3)
H51_5 H 0.4912 0.4050 0.5453
C24_5 C 0.5115(5) 0.5221(7) 0.6260(3)
C29_5 C 0.6122(5) 0.6722(7) 0.5486(3)
C34_6 C 0.3680(5) 0.3681(8) 0.5747(3)
C1_6 C 0.5199(6) 0.0285(5) 0.4390(3)
H5_6 H 0.5396 0.0903 0.4441
C2_6 C 0.5797(6) 0.0063(4) 0.4746(3)
C4_6 C 0.5221(7) 0.0105(5) 0.3740(3)
C5_6 C 0.6722(7) 0.0599(5) 0.4514(3)
C6_7 C 0.3681(8) 0.0000(6) 0.4253(3)
O11_6 O 0.4797(5) 0.0574(4) 0.6429(2)
O82_6 O 0.4297(6) 0.1883(4) 0.5732(2)
H31_6 H 0.4093 0.2216 0.5665
H36_6 H 0.4832 0.2199 0.5816
H46_6 H 0.4397 0.0554 0.5304
C19_6 C 0.5745(6) 0.0244(5) 0.5400(3)
H51_6 H 0.5950 0.0863 0.5453
C34_7 C 0.6319(8) -0.0000(6) 0.5747(3)
H6_6 H 0.5603 0.9446 0.4696
C3_6 C 0.4255(6) 0.9756(5) 0.4600(3)
H7_6 H 0.4050 0.9137 0.4547
C6_8 C 0.3681(8) 1.0000(6) 0.4253(3)
O17_6 O 0.4794(6) 0.9361(4) 0.6607(2)
C9_6 C 0.4801(6) 0.9715(5) 0.5610(3)
H41_6 H 0.4604 0.9097 0.5559
C14_6 C 0.4203(6) 0.9937(4) 0.5254(3)
C24_6 C 0.4779(7) 0.9895(5) 0.6260(3)
C29_6 C 0.3278(7) 0.9401(5) 0.5486(3)
C34_8 C 0.6319(8) 1.0000(6) 0.5747(3)
O68_3 O 0.2504(3) 0.1249(4) 0.5174(2)
O69_3 O 0.1254(5) 0.2504(3) 0.4826(2)
C40_3 C 0.0500(6) 0.0948(4) 0.4895(3)
C41_3 C 0.0948(4) 0.0447(4) 0.5105(3)
H58_3 H 0.0978 0.0461 0.5532
H59_3 H 0.0516 0.0978 0.4468
C46_3 C 0.1865(5) 0.0879(4) 0.4850(3)
C47_3 C 0.0985(6) 0.1865(5) 0.5150(3)
O67_3 O 0.1249(4) 0.8746(5) 0.4826(2)
C42_3 C 0.0447(4) 0.9500(6) 0.4895(3)
H57_3 H 0.0461 0.9484 0.4468
C45_3 C 0.0879(4) 0.9015(6) 0.5150(3)
O70_3 O 0.8751(4) 0.1254(5) 0.5174(2)
C39_3 C 0.9553(4) 0.0500(6) 0.5105(3)
H60_3 H 0.9539 0.0516 0.5532
C48_3 C 0.9121(4) 0.0985(6) 0.4850(3)
O8_3 O 0.7496(3) 0.8751(4) 0.4826(2)
C7_3 C 0.9052(4) 0.9553(4) 0.4895(3)
H8_3 H 0.9022 0.9539 0.4468
C8_3 C 0.8135(5) 0.9121(4) 0.5150(3)
O66_3 O 0.8746(5) 0.7496(3) 0.5174(2)
C43_3 C 0.9500(6) 0.9052(4) 0.5105(3)
H56_3 H 0.9484 0.9022 0.5532
C44_3 C 0.9015(6) 0.8135(5) 0.4850(3)
loop_
_geom_bond_atom_site_label_1
_geom_bond_atom_site_label_2
_geom_bond_site_symmetry_1
_geom_bond_site_symmetry_2
Cd1 O1 1_555 1_555
O1 C4 1_555 1_555
O2 C4 1_555 1_555
O3 Cd1 1_555 1_555
O4 C5 1_555 1_555
O6 C6 1_555 1_555
O9 Cd1 1_555 1_555
H1 O9 1_555 1_555
H2 O9 1_555 1_555
O10 Cd1 1_555 1_555
H3 O10 1_555 1_555
H4 O10 1_555 1_555
C1 H5 1_555 1_555
C2 C1 1_555 1_555
H6 C2 1_555 1_555
C3 C1 1_555 1_555
H7 C3 1_555 1_555
C4 C1 1_555 1_555
C5 O3 1_555 1_555
C6 C3 1_555 1_555
Cd7 O16 1_555 1_555
Cd15 O17 1_555 1_555
Cd16 O3 1_555 1_555
Cd21 O38 1_555 1_555
O11 C24 1_555 1_555
O17 C24 1_555 1_555
O29 Cd7 1_555 1_555
O36 Cd15 1_555 1_555
O38 C34 1_555 1_555
O43 Cd15 1_555 1_555
O44 Cd16 1_555 1_555
O48 Cd7 1_555 1_555
O61 Cd15 1_555 1_555
O62 Cd16 1_555 1_555
O80 Cd7 1_555 1_555
O81 Cd7 1_555 1_555
H13 O75 1_555 1_555
H18 O80 1_555 1_555
H19 O81 1_555 1_555
H24 O75 1_555 1_555
H29 O80 1_555 1_555
H30 O81 1_555 1_555
O86 Cd7 1_555 1_555
H35 O86 1_555 1_555
H40 O86 1_555 1_555
C9 H41 1_555 1_555
C14 C3 1_555 1_555
H46 C14 1_555 1_555
C19 C2 1_555 1_555
H51 C19 1_555 1_555
C24 C9 1_555 1_555
C34 O48 1_555 1_555
O4 Cd16 1_555 1_555
C2 C5 1_555 1_555
Cd15 O29 1_555 1_555
O31 C29 1_555 1_555
C9 C14 1_555 1_555
C9 C19 1_555 1_555
C14 C29 1_555 1_555
C19 C34 1_555 1_555
O7 Cd2 1_555 1_555
O8 C8 1_555 1_555
C7 H8 1_555 1_555
C8 O7 1_555 1_555
Cd4 O12 1_555 1_555
Cd5 O13 1_555 1_555
Cd12 O52 1_555 1_555
Cd17 O19 1_555 1_555
Cd23 O57 1_555 1_555
Cd24 O58 1_555 1_555
Cd25 O59 1_555 1_555
Cd26 O26 1_555 1_555
O12 C25 1_555 1_555
O13 C26 1_555 1_555
O19 C26 1_555 1_555
O26 Cd5 1_555 1_555
O27 Cd2 1_555 1_555
O30 Cd17 1_555 1_555
O33 Cd26 1_555 1_555
O34 Cd2 1_555 1_555
O37 Cd17 1_555 1_555
O39 Cd2 1_555 1_555
O40 C36 1_555 1_555
O45 Cd17 1_555 1_555
O55 Cd5 1_555 1_555
O56 Cd22 1_555 1_555
O57 C45 1_555 1_555
O58 C46 1_555 1_555
O59 C47 1_555 1_555
O60 Cd26 1_555 1_555
O63 Cd17 1_555 1_555
O66 C44 1_555 1_555
O67 C45 1_555 1_555
O68 C46 1_555 1_555
O69 C47 1_555 1_555
O70 C48 1_555 1_555
O76 Cd5 1_555 1_555
O77 Cd5 1_555 1_555
H9 O71 1_555 1_555
H14 O76 1_555 1_555
H15 O77 1_555 1_555
H17 O79 1_555 1_555
H20 O71 1_555 1_555
H25 O76 1_555 1_555
H26 O77 1_555 1_555
H28 O79 1_555 1_555
O83 Cd4 1_555 1_555
O84 Cd5 1_555 1_555
H32 O83 1_555 1_555
H33 O84 1_555 1_555
H37 O83 1_555 1_555
H38 O84 1_555 1_555
C10 H42 1_555 1_555
C11 H43 1_555 1_555
C15 C10 1_555 1_555
C16 C11 1_555 1_555
H47 C15 1_555 1_555
H48 C16 1_555 1_555
C20 C10 1_555 1_555
C21 C11 1_555 1_555
H52 C20 1_555 1_555
H53 C21 1_555 1_555
C25 O18 1_555 1_555
C26 C11 1_555 1_555
C31 O26 1_555 1_555
C32 O27 1_555 1_555
C35 O39 1_555 1_555
C39 C7 1_555 1_555
C40 C39 1_555 1_555
C41 C40 1_555 1_555
C42 C41 1_555 1_555
C43 C7 1_555 1_555
H56 C43 1_555 1_555
H57 C42 1_555 1_555
H58 C41 1_555 1_555
H59 C40 1_555 1_555
H60 C39 1_555 1_555
C44 O56 1_555 1_555
C45 C42 1_555 1_555
C46 C41 1_555 1_555
C47 C40 1_555 1_555
C48 O60 1_555 1_555
C7 C8 1_555 1_555
Cd8 O71 1_555 1_555
Cd12 O76 1_555 1_555
Cd12 O77 1_555 1_555
O33 C31 1_555 1_555
O34 C32 1_555 1_555
O49 C35 1_555 1_555
C10 C25 1_555 1_555
C15 C21 1_555 1_555
C16 C20 1_555 1_555
C16 C31 1_555 1_555
C20 C35 1_555 1_555
C21 C36 1_555 1_555
C39 C48 1_555 1_555
C42 C43 1_555 1_555
C43 C44 1_555 1_555
Cd13 O72 1_555 1_555
Cd20 O5 1_555 1_555
O24 Cd3 1_555 1_555
O53 Cd3 1_555 1_555
O64 Cd18 1_555 1_555
O72 Cd3 1_555 1_555
O73 Cd3 1_555 1_555
H10 O72 1_555 1_555
H11 O73 1_555 1_555
H16 O78 1_555 1_555
H21 O72 1_555 1_555
H22 O73 1_555 1_555
H27 O78 1_555 1_555
O82 Cd3 1_555 1_555
H31 O82 1_555 1_555
H36 O82 1_555 1_555
Cd13 O73 1_555 1_555
Cd18 O24 1_555 1_555
Cd30 O21 1_555 1_555
O14 Cd6 1_555 1_555
O15 C28 1_555 1_555
O21 C28 1_555 1_555
O42 C38 1_555 1_555
O51 C37 1_555 1_555
O85 Cd6 1_555 1_555
H34 O85 1_555 1_555
H39 O85 1_555 1_555
C12 H44 1_555 1_555
C13 H45 1_555 1_555
C17 C12 1_555 1_555
C18 C13 1_555 1_555
H49 C17 1_555 1_555
H50 C18 1_555 1_555
C22 C12 1_555 1_555
C23 C13 1_555 1_555
H54 C22 1_555 1_555
H55 C23 1_555 1_555
C27 O14 1_555 1_555
C28 C13 1_555 1_555
C37 C22 1_555 1_555
C38 C23 1_555 1_555
O20 C27 1_555 1_555
O35 C33 1_555 1_555
C12 C27 1_555 1_555
C17 C23 1_555 1_555
C18 C22 1_555 1_555
C18 C33 1_555 1_555
O32 Cd23 1_555 1_555
O47 Cd23 1_555 1_555
O50 Cd9 1_555 1_555
H12 O74 1_555 1_555
H23 O74 1_555 1_555
C30 O25 1_555 1_555
Cd23 O25 1_555 1_555
O32 C30 1_555 1_555
Cd25 O41 1_555 1_555
Cd24 O28 1_555 1_555
O28 Cd11 1_555 1_555
O24_2 Cd3_2 1_555 1_555
O53_2 Cd3_2 1_555 1_555
O64_2 Cd18_2 1_555 1_555
O81 Cd3_2 1_555 1_555
O80 Cd3_2 1_555 1_555
O82_2 Cd3_2 1_555 1_555
H31_2 O82_2 1_555 1_555
H36_2 O82_2 1_555 1_555
Cd18_2 O24_2 1_555 1_555
Cd1_2 O1_2 1_555 1_555
O1_2 C4_2 1_555 1_555
O23 C4_2 1_555 1_555
O54 C6_2 1_555 1_555
O10_2 Cd1_2 1_555 1_555
H3_2 O10_2 1_555 1_555
H4_2 O10_2 1_555 1_555
C1_2 H5_2 1_555 1_555
C2_2 C1_2 1_555 1_555
H6_2 C2_2 1_555 1_555
C3_2 C1_2 1_555 1_555
H7_2 C3_2 1_555 1_555
C4_2 C1_2 1_555 1_555
C6_2 C3_2 1_555 1_555
Cd15_2 O17_2 1_555 1_555
O11_2 C24_2 1_555 1_555
O17_2 C24_2 1_555 1_555
O36_2 Cd15_2 1_555 1_555
O46 C34_2 1_555 1_555
O43_2 Cd15_2 1_555 1_555
O61_2 Cd15_2 1_555 1_555
C9_2 H41_2 1_555 1_555
C14_2 C3_2 1_555 1_555
H46_2 C14_2 1_555 1_555
C19_2 C2_2 1_555 1_555
H51_2 C19_2 1_555 1_555
C24_2 C9_2 1_555 1_555
Cd15_2 O29_2 1_555 1_555
O31_2 C29_2 1_555 1_555
C9_2 C14_2 1_555 1_555
C9_2 C19_2 1_555 1_555
C14_2 C29_2 1_555 1_555
C19_2 C34_2 1_555 1_555
Cd22 O26_2 1_555 1_555
O26_2 Cd5_2 1_555 1_555
O55_2 Cd5_2 1_555 1_555
O76_2 Cd5_2 1_555 1_555
O77_2 Cd5_2 1_555 1_555
H14_2 O76_2 1_555 1_555
H15_2 O77_2 1_555 1_555
H25_2 O76_2 1_555 1_555
H26_2 O77_2 1_555 1_555
O84_2 Cd5_2 1_555 1_555
H33_2 O84_2 1_555 1_555
H38_2 O84_2 1_555 1_555
Cd9 O76_2 1_555 1_555
Cd9 O77_2 1_555 1_555
O4_2 C5_2 1_555 1_555
C5_2 O3_2 1_555 1_555
Cd7_2 O16_2 1_555 1_555
Cd16_2 O3_2 1_555 1_555
O44_2 Cd16_2 1_555 1_555
O48_2 Cd7_2 1_555 1_555
O62_2 Cd16_2 1_555 1_555
O80_2 Cd7_2 1_555 1_555
O81_2 Cd7_2 1_555 1_555
H18_2 O80_2 1_555 1_555
H19_2 O81_2 1_555 1_555
H29_2 O80_2 1_555 1_555
H30_2 O81_2 1_555 1_555
O86_2 Cd7_2 1_555 1_555
H35_2 O86_2 1_555 1_555
H40_2 O86_2 1_555 1_555
O4_2 Cd16_2 1_555 1_555
Cd8 O12_2 1_555 1_555
Cd9_2 O30_2 1_555 1_555
Cd17_2 O19_2 1_555 1_555
Cd26 O40_2 1_555 1_555
O12_2 C25_2 1_555 1_555
O13_2 C26_2 1_555 1_555
O19_2 C26_2 1_555 1_555
O25_2 Cd8 1_555 1_555
O30_2 Cd17_2 1_555 1_555
O32_2 Cd25 1_555 1_555
O37_2 Cd17_2 1_555 1_555
O40_2 C36_2 1_555 1_555
O45_2 Cd17_2 1_555 1_555
O50_2 Cd9_2 1_555 1_555
O63_2 Cd17_2 1_555 1_555
O83_2 Cd8 1_555 1_555
H32_2 O83_2 1_555 1_555
H37_2 O83_2 1_555 1_555
C10_2 H42_2 1_555 1_555
C11_2 H43_2 1_555 1_555
C15_2 C10_2 1_555 1_555
C16_2 C11_2 1_555 1_555
H47_2 C15_2 1_555 1_555
H48_2 C16_2 1_555 1_555
C20_2 C10_2 1_555 1_555
C21_2 C11_2 1_555 1_555
H52_2 C20_2 1_555 1_555
H53_2 C21_2 1_555 1_555
C25_2 O18_2 1_555 1_555
C26_2 C11_2 1_555 1_555
C30_2 O25_2 1_555 1_555
C36_2 O50_2 1_555 1_555
Cd25 O25_2 1_555 1_555
O32_2 C30_2 1_555 1_555
O33_2 C31_2 1_555 1_555
O49_2 C35_2 1_555 1_555
C10_2 C25_2 1_555 1_555
C15_2 C21_2 1_555 1_555
C15_2 C30_2 1_555 1_555
C16_2 C20_2 1_555 1_555
C16_2 C31_2 1_555 1_555
C20_2 C35_2 1_555 1_555
C21_2 C36_2 1_555 1_555
O4_3 C5_3 1_555 1_555
C5_3 O3_3 1_555 1_555
Cd13 O16_3 1_555 1_555
Cd20 O3_3 1_555 1_555
O48_3 Cd13 1_555 1_555
O62_3 Cd20 1_555 1_555
O86_3 Cd13 1_555 1_555
H35_3 O86_3 1_555 1_555
H40_3 O86_3 1_555 1_555
O4_3 Cd20 1_555 1_555
O30_3 Cd30 1_555 1_555
O37_3 Cd30 1_555 1_555
O45_3 Cd30 1_555 1_555
O63_3 Cd30 1_555 1_555
Cd14 O1_3 1_555 1_555
O1_3 C4_3 1_555 1_555
O23_2 C4_3 1_555 1_555
O44_2 C6_3 1_555 1_555
O54_2 C6_3 1_555 1_555
O10_3 Cd14 1_555 1_555
H3_3 O10_3 1_555 1_555
H4_3 O10_3 1_555 1_555
C1_3 H5_3 1_555 1_555
C2_3 C1_3 1_555 1_555
H6_3 C2_3 1_555 1_555
C3_3 C1_3 1_555 1_555
H7_3 C3_3 1_555 1_555
C4_3 C1_3 1_555 1_555
C6_3 C3_3 1_555 1_555
Cd3_3 O11_3 1_555 1_555
Cd15_3 O17_3 1_555 1_555
Cd21 O22_3 1_555 1_555
O11_3 C24_3 1_555 1_555
O17_3 C24_3 1_555 1_555
O24_3 Cd3_3 1_555 1_555
O31_3 Cd21 1_555 1_555
O36_3 Cd15_3 1_555 1_555
O46_2 C34_3 1_555 1_555
O43_3 Cd15_3 1_555 1_555
O53_3 Cd3_3 1_555 1_555
O61_3 Cd15_3 1_555 1_555
O64_3 Cd21 1_555 1_555
O81_2 Cd3_3 1_555 1_555
O80_2 Cd3_3 1_555 1_555
O82_3 Cd3_3 1_555 1_555
H31_3 O82_3 1_555 1_555
H36_3 O82_3 1_555 1_555
C9_3 H41_3 1_555 1_555
C14_3 C3_3 1_555 1_555
H46_3 C14_3 1_555 1_555
C19_3 C2_3 1_555 1_555
H51_3 C19_3 1_555 1_555
C24_3 C9_3 1_555 1_555
C29_3 O24_3 1_555 1_555
Cd15_3 O29_3 1_555 1_555
Cd21 O24_3 1_555 1_555
O31_3 C29_3 1_555 1_555
C9_3 C14_3 1_555 1_555
C9_3 C19_3 1_555 1_555
C14_3 C29_3 1_555 1_555
C19_3 C34_3 1_555 1_555
O55_3 Cd11 1_555 1_555
O76_3 Cd11 1_555 1_555
O77_3 Cd11 1_555 1_555
H14_3 O76_3 1_555 1_555
H15_3 O77_3 1_555 1_555
H25_3 O76_3 1_555 1_555
H26_3 O77_3 1_555 1_555
O84_3 Cd11 1_555 1_555
H33_3 O84_3 1_555 1_555
H38_3 O84_3 1_555 1_555
Cd9_2 O76_3 1_555 1_555
Cd9_2 O77_3 1_555 1_555
O53_2 C6_4 1_555 1_555
O8_2 C8_2 1_555 1_555
H7_4 C3_4 1_555 1_555
C6_4 C3_4 1_555 1_555
C7_2 H8_2 1_555 1_555
C8_2 O64_2 1_555 1_555
O17_4 C24_4 1_555 1_555
O45_3 C34_4 1_555 1_555
O64_3 C45_2 1_555 1_555
O62_2 C46_2 1_555 1_555
O64 C47_2 1_555 1_555
O66_2 C44_2 1_555 1_555
O67_2 C45_2 1_555 1_555
O68_2 C46_2 1_555 1_555
O69_2 C47_2 1_555 1_555
O70_2 C48_2 1_555 1_555
C9_4 H41_4 1_555 1_555
C14_4 C3_4 1_555 1_555
C24_4 C9_4 1_555 1_555
C29_4 O30 1_555 1_555
C39_2 C7_2 1_555 1_555
C40_2 C39_2 1_555 1_555
C41_2 C40_2 1_555 1_555
C42_2 C41_2 1_555 1_555
C43_2 C7_2 1_555 1_555
H56_2 C43_2 1_555 1_555
H57_2 C42_2 1_555 1_555
H58_2 C41_2 1_555 1_555
H59_2 C40_2 1_555 1_555
H60_2 C39_2 1_555 1_555
C44_2 O62 1_555 1_555
C45_2 C42_2 1_555 1_555
C46_2 C41_2 1_555 1_555
C47_2 C40_2 1_555 1_555
C48_2 O62_3 1_555 1_555
C7_2 C8_2 1_555 1_555
O37 C29_4 1_555 1_555
C9_4 C14_4 1_555 1_555
C14_4 C29_4 1_555 1_555
C39_2 C48_2 1_555 1_555
C42_2 C43_2 1_555 1_555
C43_2 C44_2 1_555 1_555
O22_2 C4_4 1_555 1_555
O36_3 C5_4 1_555 1_555
O43_2 C6_5 1_555 1_555
C1_4 H5_4 1_555 1_555
C2_4 C1_4 1_555 1_555
C4_4 C1_4 1_555 1_555
C5_4 O29_3 1_555 1_555
Cd9 O11_4 1_555 1_555
O82_4 Cd9 1_555 1_555
H31_4 O82_4 1_555 1_555
H36_4 O82_4 1_555 1_555
C19_4 C2_4 1_555 1_555
H51_4 C19_4 1_555 1_555
C34_5 O55_3 1_555 1_555
C2_4 C5_4 1_555 1_555
C19_4 C34_5 1_555 1_555
O16 C4_5 1_555 1_555
O22_3 C4_5 1_555 1_555
O36 C5_5 1_555 1_555
O43_3 C6_6 1_555 1_555
O53_3 C6_6 1_555 1_555
C1_5 H5_5 1_555 1_555
C2_5 C1_5 1_555 1_555
H6_5 C2_5 1_555 1_555
C3_5 C1_5 1_555 1_555
H7_5 C3_5 1_555 1_555
C4_5 C1_5 1_555 1_555
C5_5 O29 1_555 1_555
C6_6 C3_5 1_555 1_555
Cd9_2 O11_5 1_555 1_555
Cd26 O17_5 1_555 1_555
O11_5 C24_5 1_555 1_555
O17_5 C24_5 1_555 1_555
O45 C34_6 1_555 1_555
O82_5 Cd9_2 1_555 1_555
H31_5 O82_5 1_555 1_555
H36_5 O82_5 1_555 1_555
C9_5 H41_5 1_555 1_555
C14_5 C3_5 1_555 1_555
H46_5 C14_5 1_555 1_555
C19_5 C2_5 1_555 1_555
H51_5 C19_5 1_555 1_555
C24_5 C9_5 1_555 1_555
C29_5 O30_2 1_555 1_555
C34_6 O55 1_555 1_555
C2_5 C5_5 1_555 1_555
O37_2 C29_5 1_555 1_555
C9_5 C14_5 1_555 1_555
C9_5 C19_5 1_555 1_555
C14_5 C29_5 1_555 1_555
C19_5 C34_6 1_555 1_555
O22 C4_6 1_555 1_555
O36_2 C5_6 1_555 1_555
O43 C6_7 1_555 1_555
C1_6 H5_6 1_555 1_555
C2_6 C1_6 1_555 1_555
C4_6 C1_6 1_555 1_555
C5_6 O29_2 1_555 1_555
Cd12 O11_6 1_555 1_555
O82_6 Cd12 1_555 1_555
H31_6 O82_6 1_555 1_555
H36_6 O82_6 1_555 1_555
C19_6 C2_6 1_555 1_555
H51_6 C19_6 1_555 1_555
C34_7 O55_2 1_555 1_555
C2_6 C5_6 1_555 1_555
C19_6 C34_7 1_555 1_555
O53 C6_8 1_555 1_555
H7_6 C3_6 1_555 1_555
C6_8 C3_6 1_555 1_555
O17_6 C24_6 1_555 1_555
O45_2 C34_8 1_555 1_555
C9_6 H41_6 1_555 1_555
C14_6 C3_6 1_555 1_555
C24_6 C9_6 1_555 1_555
C29_6 O30_3 1_555 1_555
O37_3 C29_6 1_555 1_555
C9_6 C14_6 1_555 1_555
C14_6 C29_6 1_555 1_555
O61 C46_3 1_555 1_555
O63 C47_3 1_555 1_555
O68_3 C46_3 1_555 1_555
O69_3 C47_3 1_555 1_555
C41_3 C40_3 1_555 1_555
H58_3 C41_3 1_555 1_555
H59_3 C40_3 1_555 1_555
C46_3 C41_3 1_555 1_555
C47_3 C40_3 1_555 1_555
O63_3 C45_3 1_555 1_555
O67_3 C45_3 1_555 1_555
H57_3 C42_3 1_555 1_555
C45_3 C42_3 1_555 1_555
O70_3 C48_3 1_555 1_555
H60_3 C39_3 1_555 1_555
C48_3 O61_2 1_555 1_555
C39_3 C48_3 1_555 1_555
O8_3 C8_3 1_555 1_555
C7_3 H8_3 1_555 1_555
C8_3 O63_2 1_555 1_555
O66_3 C44_3 1_555 1_555
C43_3 C7_3 1_555 1_555
H56_3 C43_3 1_555 1_555
C44_3 O61_3 1_555 1_555
C7_3 C8_3 1_555 1_555
C43_3 C44_3 1_555 1_555

#END
