
###############################################################################
#
# This file contains modified crystal structure data generated from the
# MOF subset of the Cambridge Structural Database (CSD) v543 
# hosted by the Cambridge Crystallographic Data Centre (CCDC).
#
# This work is licensed under the Creative Commons
# Attribution-NonCommercial-ShareAlike 4.0 International License.
# To view a copy of this license, visit
# http://creativecommons.org/licenses/by-nc-sa/4.0/
# or send a letter to
# Creative Commons, PO Box 1866, Mountain View, CA 94042, USA.
#
# CIF created using the CSD Python API on 29 September 2022
# The structure has been converted into the P1 space group
# The structure has a 3D framework
# The original CSD entry YEMLOS is in the triclinic crystal system
# The framework has been calculated to contain at least 10.0% void space
# The void calculation uses a probe of radius 1.32A, grid spacing 0.4
#
###############################################################################

data_YEMLOS
_chemical_formula_moiety         '(C12 H24 Fe2 N4 O10 P4)n'
_symmetry_cell_setting           triclinic
_symmetry_space_group_name_H-M   'P 1'
_symmetry_Int_Tables_number      1
_space_group_name_Hall           'P 1'
loop_
_symmetry_equiv_pos_site_id
_symmetry_equiv_pos_as_xyz
1 x,y,z
_cell_length_a                   8.3081(7)
_cell_length_b                   9.1647(7)
_cell_length_c                   9.1839(7)
_cell_angle_alpha                62.781(1)
_cell_angle_beta                 79.029(1)
_cell_angle_gamma                87.088(1)
_cell_volume                     609.948
loop_
_atom_site_label
_atom_site_type_symbol
_atom_site_fract_x
_atom_site_fract_y
_atom_site_fract_z
_atom_site_U_iso_or_equiv
_atom_site_thermal_displace_type
O4 O 0.1009(3) 0.7673(4) 0.4085(4) 0.0123 Uani
Fe4 Fe 0.24056(7) 0.57637(7) 0.42962(7) 0.0094 Uani
H10 H 0.5670 0.0664 0.2701 0.0130 Uiso
C6 C 0.6467(5) 0.0137(5) 0.5556(5) 0.0093 Uani
H11 H 0.6936 0.1187 0.4672 0.0110 Uiso
P4 P 0.05694(12) 0.25198(13) 0.46540(13) 0.0077 Uani
O11 O 0.1274(4) 0.4283(4) 0.3786(4) 0.0134 Uani
O17 O 0.0420(3) 0.1941(3) 0.3390(4) 0.0114 Uani
N4 N 0.3627(4) 0.1037(4) 0.5155(4) 0.0096 Uani
C8 C 0.1959(5) 0.1234(5) 0.6014(5) 0.0098 Uani
H15 H 0.1433 0.0152 0.6710 0.0120 Uiso
H16 H 0.2107 0.1695 0.6746 0.0120 Uiso
C11 C 0.4777(5) 0.0377(5) 0.6380(5) 0.0105 Uani
H21 H 0.4872 0.1137 0.6829 0.0130 Uiso
H24 H 0.2820 0.0286 0.3629 0.0110 Uiso
Fe1 Fe 0.75944(7) 0.42363(7) 0.57038(7) 0.0094 Uani
P1 P 0.42074(13) 0.46684(13) 0.75806(13) 0.0098 Uani
P2 P 0.94306(12) 0.74802(13) 0.53460(13) 0.0077 Uani
O1 O 0.5580(4) 0.3523(4) 0.7486(4) 0.0181 Uani
O2 O 0.2973(4) 0.4769(5) 0.6521(4) 0.0306 Uani
O3 O 0.8726(4) 0.5717(4) 0.6214(4) 0.0134 Uani
O5 O 0.4814(4) 0.6320(4) 0.7291(4) 0.0204 Uani
O6 O 0.9580(3) 0.8059(3) 0.6610(4) 0.0114 Uani
N2 N 0.6373(4) 0.8963(4) 0.4845(4) 0.0096 Uani
C1 C 0.3158(5) 0.3551(5) 0.9757(5) 0.0101 Uani
C2 C 0.8041(5) 0.8766(5) 0.3986(5) 0.0098 Uani
H3 H 0.8567 0.9848 0.3290 0.0120 Uiso
H4 H 0.7893 0.8305 0.3254 0.0120 Uiso
C3 C 0.0194(5) 0.3696(5) 0.9523(5) 0.0098 Uani
H5 H 0.0187 0.2536 0.9820 0.0120 Uiso
H6 H 0.0449 0.4311 0.8317 0.0120 Uiso
C4 C 0.1481(5) 0.5866(5) 0.9836(5) 0.0098 Uani
H7 H 0.1764 0.6527 0.8637 0.0120 Uiso
C5 C 0.5223(5) 0.9623(5) 0.3620(5) 0.0105 Uani
H9 H 0.5128 0.8863 0.3171 0.0130 Uiso
H12 H 0.7180 0.9714 0.6371 0.0110 Uiso
O9 O 0.7027(4) 0.5231(5) 0.3479(4) 0.0306 Uani
O14 O 0.8991(3) 0.2327(4) 0.5915(4) 0.0123 Uani
H22 H 0.4330 0.9336 0.7299 0.0130 Uiso
C12 C 0.3533(5) 0.9863(5) 0.4444(5) 0.0093 Uani
H23 H 0.3064 0.8813 0.5328 0.0110 Uiso
P3 P 0.57926(13) 0.53316(13) 0.24194(13) 0.0098 Uani
O7 O 0.4420(4) 0.6477(4) 0.2514(4) 0.0181 Uani
O16 O 0.5186(4) 0.3680(4) 0.2709(4) 0.0204 Uani
C7 C 0.6842(5) 0.6449(5) 0.0243(5) 0.0101 Uani
C9 C 0.9806(5) 0.6304(5) 0.0477(5) 0.0098 Uani
H17 H 0.9813 0.7464 0.0180 0.0120 Uiso
H18 H 0.9551 0.5689 0.1683 0.0120 Uiso
C10 C 0.8519(5) 0.4134(5) 0.0164(5) 0.0098 Uani
H19 H 0.8236 0.3473 0.1363 0.0120 Uiso
N1 N 0.1484(4) 0.4086(4) 0.0255(4) 0.0088 Uani
H1 H 0.3052 0.2403 0.0022 0.0120 Uiso
H2 H 0.3866 0.3618 0.0453 0.0120 Uiso
H8 H 0.2298 0.6103 0.0333 0.0120 Uiso
N3 N 0.8516(4) 0.5914(4) 0.9745(4) 0.0088 Uani
H13 H 0.6948 0.7597 0.9978 0.0120 Uiso
H14 H 0.6134 0.6382 0.9547 0.0120 Uiso
H20 H 0.7702 0.3897 0.9667 0.0120 Uiso
loop_
_atom_site_aniso_label
_atom_site_aniso_U_11
_atom_site_aniso_U_22
_atom_site_aniso_U_33
_atom_site_aniso_U_23
_atom_site_aniso_U_13
_atom_site_aniso_U_12
O4 0.0085 0.015 0.0119 -0.0062 0.0015 0.0018
Fe4 0.0063 0.0134 0.0105 -0.0084 0.0018 -0.0007
C6 0.0067 0.0101 0.014 -0.0078 -0.0019 -0.0013
P4 0.0061 0.0086 0.0083 -0.0046 0.0007 0
O11 0.0168 0.0113 0.0127 -0.0059 -0.0019 -0.0033
O17 0.012 0.0123 0.0113 -0.0073 0.0006 -0.0021
N4 0.0048 0.0139 0.0121 -0.0082 -0.0001 0.0015
C8 0.0065 0.012 0.0091 -0.0052 0.0031 0.0015
C11 0.01 0.013 0.01 -0.0062 -0.003 0.0024
Fe1 0.0063 0.0134 0.0105 -0.0084 0.0018 -0.0007
P1 0.006 0.0129 0.0076 -0.0036 0.0029 -0.0013
P2 0.0061 0.0086 0.0083 -0.0046 0.0007 0
O1 0.0139 0.0127 0.0207 -0.0066 0.0105 -0.0032
O2 0.0156 0.06 0.0116 -0.0126 -0.0001 -0.005
O3 0.0168 0.0113 0.0127 -0.0059 -0.0019 -0.0033
O5 0.0229 0.0086 0.0204 -0.0038 0.0106 -0.0031
O6 0.012 0.0123 0.0113 -0.0073 0.0006 -0.0021
N2 0.0048 0.0139 0.0121 -0.0082 -0.0001 0.0015
C1 0.0061 0.012 0.0088 -0.0036 0.003 0.001
C2 0.0065 0.012 0.0091 -0.0052 0.0031 0.0015
C3 0.009 0.012 0.0093 -0.0059 -0.001 -0.0008
C4 0.0039 0.0086 0.015 -0.0058 0.0044 -0.0033
C5 0.01 0.013 0.01 -0.0062 -0.003 0.0024
O9 0.0156 0.06 0.0116 -0.0126 -0.0001 -0.005
O14 0.0085 0.015 0.0119 -0.0062 0.0015 0.0018
C12 0.0067 0.0101 0.014 -0.0078 -0.0019 -0.0013
P3 0.006 0.0129 0.0076 -0.0036 0.0029 -0.0013
O7 0.0139 0.0127 0.0207 -0.0066 0.0105 -0.0032
O16 0.0229 0.0086 0.0204 -0.0038 0.0106 -0.0031
C7 0.0061 0.012 0.0088 -0.0036 0.003 0.001
C9 0.009 0.012 0.0093 -0.0059 -0.001 -0.0008
C10 0.0039 0.0086 0.015 -0.0058 0.0044 -0.0033
N1 0.0035 0.0107 0.012 -0.0061 0.0014 -0.0007
N3 0.0035 0.0107 0.012 -0.0061 0.0014 -0.0007
loop_
_geom_bond_atom_site_label_1
_geom_bond_atom_site_label_2
_geom_bond_site_symmetry_1
_geom_bond_site_symmetry_2
Fe4 O4 1_555 1_555
H11 C6 1_555 1_555
Fe4 O11 1_555 1_555
P4 O11 1_555 1_555
O17 P4 1_555 1_555
N4 C8 1_555 1_555
C8 P4 1_555 1_555
H15 C8 1_555 1_555
H16 C8 1_555 1_555
C11 C6 1_555 1_555
H21 C11 1_555 1_555
N4 C11 1_555 1_555
Fe1 O1 1_555 1_555
P1 O1 1_555 1_555
P2 O3 1_555 1_555
O2 P1 1_555 1_555
O3 Fe1 1_555 1_555
O5 P1 1_555 1_555
O6 P2 1_555 1_555
N2 C2 1_555 1_555
C1 P1 1_555 1_555
C2 P2 1_555 1_555
H3 C2 1_555 1_555
H4 C2 1_555 1_555
H5 C3 1_555 1_555
H6 C3 1_555 1_555
H7 C4 1_555 1_555
C5 N2 1_555 1_555
H9 C5 1_555 1_555
Fe4 O2 1_555 1_555
O9 Fe1 1_555 1_555
O14 Fe1 1_555 1_555
C12 C5 1_555 1_555
H23 C12 1_555 1_555
Fe4 O7 1_555 1_555
P3 O7 1_555 1_555
O9 P3 1_555 1_555
O16 P3 1_555 1_555
C7 P3 1_555 1_555
H17 C9 1_555 1_555
H18 C9 1_555 1_555
H19 C10 1_555 1_555

#END
