
###############################################################################
#
# This file contains modified crystal structure data generated from the
# MOF subset of the Cambridge Structural Database (CSD) v543 
# hosted by the Cambridge Crystallographic Data Centre (CCDC).
#
# This work is licensed under the Creative Commons
# Attribution-NonCommercial-ShareAlike 4.0 International License.
# To view a copy of this license, visit
# http://creativecommons.org/licenses/by-nc-sa/4.0/
# or send a letter to
# Creative Commons, PO Box 1866, Mountain View, CA 94042, USA.
#
# CIF created using the CSD Python API on 29 September 2022
# The structure has been converted into the P1 space group
# The structure has a 3D framework
# The original CSD entry YEMMAF is in the rhombohedral crystal system
# The framework has been calculated to contain at least 10.0% void space
# The void calculation uses a probe of radius 1.32A, grid spacing 0.4
# H atom positions have been added when not included in the experimental data
# Generated hydrogen atom positions removed from atoms on special positions
#
###############################################################################

data_YEMMAF
_chemical_formula_moiety         '(C54 H162 N18 Ni18 O66 P18)n'
_symmetry_cell_setting           triclinic
_symmetry_space_group_name_H-M   'P 1'
_symmetry_Int_Tables_number      1
_space_group_name_Hall           'P 1'
loop_
_symmetry_equiv_pos_site_id
_symmetry_equiv_pos_as_xyz
1 x,y,z
_cell_length_a                   27.9486(4)
_cell_length_b                   27.9486(4)
_cell_length_c                   6.23018(14)
_cell_angle_alpha                90
_cell_angle_beta                 90
_cell_angle_gamma                120.0
_cell_volume                     4214.55
loop_
_atom_site_label
_atom_site_type_symbol
_atom_site_fract_x
_atom_site_fract_y
_atom_site_fract_z
_atom_site_U_iso_or_equiv
_atom_site_thermal_displace_type
Ni4 Ni 0.63786(19) 0.02840(21) 0.0517(7) 0.0053 Uiso
Ni7 Ni 0.36173(21) 0.05721(28) 0.6150(7) 0.0053 Uiso
O13 O 0.3805(7) 0.0528(9) 0.9379(25) 0.0053 Uiso
C6 C 0.4532(11) 0.0115(8) 0.2700(32) 0.0053 Uiso
H2 H 0.549901 0.0715014 0.151119 . .
H9 H 0.48847 0.00921605 0.331587 . .
H10 H 0.460905 0.0535599 0.286719 . .
P1 P 0.61355(32) 0.03959(32) 0.5729(13) 0.0053 Uiso
O1 O 0.6141(6) 0.0947(5) 0.5185(23) 0.0053 Uiso
O2 O 0.6306(7) 0.0104(6) 0.3692(26) 0.0053 Uiso
O3 O 0.6611(6) 0.0472(7) 0.7288(25) 0.0053 Uiso
O4 O 0.6566(5) 0.1098(6) 0.1253(24) 0.0053 Uiso
N1 N 0.5567(9) 0.0062(8) 0.9706(31) 0.0053 Uiso
C1 C 0.5437(9) 0.0568(9) 0.986(4) 0.0053 Uiso
Ni5 Ni 0.72387(28) 0.02881(19) 0.7184(7) 0.0053 Uiso
O7 O 0.7131(9) 0.0361(7) 0.0359(26) 0.0053 Uiso
C5 C 0.4820(10) 0.0387(9) 0.916(4) 0.0053 Uiso
H1 H 0.572235 0.0900987 0.881239 . .
H3 H 0.690424 0.127977 0.215322 . .
H15 H 0.477157 0.0283315 0.745917 . .
H16 H 0.474993 0.0732068 0.943151 . .
H4 H 0.662925 0.131021 0.990256 . .
O12 O 0.3389(6) 0.9528(7) 0.2712(25) 0.0053 Uiso
N4 N 0.4433(9) 0.9938(8) 0.0294(31) 0.0053 Uiso
H14 H 0.337075 0.868979 0.00974436 . .
C2 C 0.5180(10) 0.9613(9) 0.084(4) 0.0053 Uiso
Ni2 Ni 0.36214(19) 0.97160(21) 0.9483(7) 0.0053 Uiso
Ni8 Ni 0.27613(28) 0.97119(19) 0.2816(7) 0.0053 Uiso
P2 P 0.38645(32) 0.96041(32) 0.4271(13) 0.0053 Uiso
O5 O 0.3859(6) 0.9053(5) 0.4815(23) 0.0053 Uiso
O6 O 0.3694(7) 0.9896(6) 0.6308(26) 0.0053 Uiso
O8 O 0.2869(9) 0.9639(7) 0.9641(26) 0.0053 Uiso
O14 O 0.3434(5) 0.8902(6) 0.8747(24) 0.0053 Uiso
C4 C 0.4563(9) 0.9432(9) 0.014(4) 0.0053 Uiso
H7 H 0.522843 0.971668 0.254083 . .
H8 H 0.525007 0.926793 0.0568492 . .
H11 H 0.427765 0.909901 0.118761 . .
H13 H 0.374747 0.891362 0.795105 . .
C3 C 0.5468(11) 0.9885(8) 0.7300(32) 0.0053 Uiso
Ni3 Ni 0.63827(21) 0.94279(28) 0.3850(7) 0.0053 Uiso
O11 O 0.6195(7) 0.9472(9) 0.0621(25) 0.0053 Uiso
H5 H 0.539095 0.94644 0.713281 . .
H6 H 0.51153 0.990784 0.668413 . .
H12 H 0.450099 0.928499 0.848881 . .
O12_2 O 0.0472(7) 0.3861(9) 0.2712(25) 0.0053 Uiso
N4_2 N 0.0062(8) 0.4495(12) 0.0294(31) 0.0053 Uiso
H14_2 H 0.131021 0.468096 0.00974436 . .
C2_2 C 0.0387(9) 0.5567(13) 0.084(4) 0.0053 Uiso
Ni2_2 Ni 0.02840(21) 0.39054(28) 0.9483(7) 0.0053 Uiso
Ni8_2 Ni 0.02881(19) 0.30493(34) 0.2816(7) 0.0053 Uiso
P2_2 P 0.03959(32) 0.42604(45) 0.4271(13) 0.0053 Uiso
O5_2 O 0.0947(5) 0.4806(8) 0.4815(23) 0.0053 Uiso
O6_2 O 0.0104(6) 0.3798(9) 0.6308(26) 0.0053 Uiso
O8_2 O 0.0361(7) 0.3229(11) 0.9641(26) 0.0053 Uiso
O14_2 O 0.1098(6) 0.4532(8) 0.8747(24) 0.0053 Uiso
C4_2 C 0.0568(9) 0.5131(13) 0.014(4) 0.0053 Uiso
H7_2 H 0.0283315 0.551175 0.254083 . .
H8_2 H 0.0732068 0.598214 0.0568492 . .
H11_2 H 0.0900987 0.517864 0.118761 . .
H13_2 H 0.108638 0.483385 0.795105 . .
C3_2 C 0.0115(8) 0.5583(14) 0.7300(32) 0.0053 Uiso
Ni3_2 Ni 0.05721(28) 0.69547(35) 0.3850(7) 0.0053 Uiso
O11_2 O 0.0528(9) 0.6722(11) 0.0621(25) 0.0053 Uiso
H5_2 H 0.0535599 0.592655 0.713281 . .
H6_2 H 0.00921605 0.520746 0.668413 . .
H12_2 H 0.0715014 0.5216 0.848881 . .
Ni4_2 Ni 0.97160(21) 0.60946(28) 0.0517(7) 0.0053 Uiso
Ni7_2 Ni 0.94279(28) 0.30453(35) 0.6150(7) 0.0053 Uiso
O13_2 O 0.9472(9) 0.3278(11) 0.9379(25) 0.0053 Uiso
C6_2 C 0.9885(8) 0.4417(14) 0.2700(32) 0.0053 Uiso
H2_2 H 0.928499 0.4784 0.151119 . .
H9_2 H 0.990784 0.479254 0.331587 . .
H10_2 H 0.94644 0.407345 0.286719 . .
P1_2 P 0.96041(32) 0.57396(45) 0.5729(13) 0.0053 Uiso
O1_2 O 0.9053(5) 0.5194(8) 0.5185(23) 0.0053 Uiso
O2_2 O 0.9896(6) 0.6202(9) 0.3692(26) 0.0053 Uiso
O3_2 O 0.9528(7) 0.6139(9) 0.7288(25) 0.0053 Uiso
O4_2 O 0.8902(6) 0.5468(8) 0.1253(24) 0.0053 Uiso
N1_2 N 0.9938(8) 0.5505(12) 0.9706(31) 0.0053 Uiso
C1_2 C 0.9432(9) 0.4869(13) 0.986(4) 0.0053 Uiso
Ni5_2 Ni 0.97119(19) 0.69507(34) 0.7184(7) 0.0053 Uiso
O7_2 O 0.9639(7) 0.6771(11) 0.0359(26) 0.0053 Uiso
C5_2 C 0.9613(9) 0.4433(13) 0.916(4) 0.0053 Uiso
H1_2 H 0.909901 0.482136 0.881239 . .
H3_2 H 0.872023 0.562447 0.215322 . .
H15_2 H 0.971668 0.448825 0.745917 . .
H16_2 H 0.926793 0.401786 0.943151 . .
H4_2 H 0.868979 0.531904 0.990256 . .
O12_3 O 0.6139(9) 0.6611(6) 0.2712(25) 0.0053 Uiso
N4_3 N 0.5505(12) 0.5567(9) 0.0294(31) 0.0053 Uiso
H14_3 H 0.531904 0.662925 0.00974436 . .
C2_3 C 0.4433(13) 0.4820(10) 0.084(4) 0.0053 Uiso
Ni2_3 Ni 0.60946(28) 0.63786(19) 0.9483(7) 0.0053 Uiso
Ni4_3 Ni 0.39054(28) 0.36214(19) 0.0517(7) 0.0053 Uiso
Ni7_3 Ni 0.69547(35) 0.63827(21) 0.6150(7) 0.0053 Uiso
Ni8_3 Ni 0.69507(34) 0.72387(28) 0.2816(7) 0.0053 Uiso
P2_3 P 0.57396(45) 0.61355(32) 0.4271(13) 0.0053 Uiso
O5_3 O 0.5194(8) 0.6141(6) 0.4815(23) 0.0053 Uiso
O6_3 O 0.6202(9) 0.6306(7) 0.6308(26) 0.0053 Uiso
O8_3 O 0.6771(11) 0.7131(9) 0.9641(26) 0.0053 Uiso
O13_3 O 0.6722(11) 0.6195(7) 0.9379(25) 0.0053 Uiso
O14_3 O 0.5468(8) 0.6566(5) 0.8747(24) 0.0053 Uiso
C4_3 C 0.4869(13) 0.5437(9) 0.014(4) 0.0053 Uiso
C6_3 C 0.5583(14) 0.5468(11) 0.2700(32) 0.0053 Uiso
H2_3 H 0.5216 0.450099 0.151119 . .
H7_3 H 0.448825 0.477157 0.254083 . .
H8_3 H 0.401786 0.474993 0.0568492 . .
H9_3 H 0.520746 0.51153 0.331587 . .
H10_3 H 0.592655 0.539095 0.286719 . .
H11_3 H 0.482136 0.572235 0.118761 . .
H13_3 H 0.516615 0.625253 0.795105 . .
P1_3 P 0.42604(45) 0.38645(32) 0.5729(13) 0.0053 Uiso
O1_3 O 0.4806(8) 0.3859(6) 0.5185(23) 0.0053 Uiso
O2_3 O 0.3798(9) 0.3694(7) 0.3692(26) 0.0053 Uiso
O3_3 O 0.3861(9) 0.3389(6) 0.7288(25) 0.0053 Uiso
O4_3 O 0.4532(8) 0.3434(5) 0.1253(24) 0.0053 Uiso
N1_3 N 0.4495(12) 0.4433(9) 0.9706(31) 0.0053 Uiso
C1_3 C 0.5131(13) 0.4563(9) 0.986(4) 0.0053 Uiso
C3_3 C 0.4417(14) 0.4532(11) 0.7300(32) 0.0053 Uiso
Ni3_3 Ni 0.30453(35) 0.36173(21) 0.3850(7) 0.0053 Uiso
Ni5_3 Ni 0.30493(34) 0.27613(28) 0.7184(7) 0.0053 Uiso
O7_3 O 0.3229(11) 0.2869(9) 0.0359(26) 0.0053 Uiso
O11_3 O 0.3278(11) 0.3805(7) 0.0621(25) 0.0053 Uiso
C5_3 C 0.5567(13) 0.5180(10) 0.916(4) 0.0053 Uiso
H1_3 H 0.517864 0.427765 0.881239 . .
H3_3 H 0.437553 0.309576 0.215322 . .
H5_3 H 0.407345 0.460905 0.713281 . .
H6_3 H 0.479254 0.48847 0.668413 . .
H12_3 H 0.4784 0.549901 0.848881 . .
H15_3 H 0.551175 0.522843 0.745917 . .
H16_3 H 0.598214 0.525007 0.943151 . .
H4_3 H 0.468096 0.337075 0.990256 . .
O7_4 O 0.0465(9) 0.7027(7) 0.7025(26) 0.0053 Uiso
H3_4 H 0.0237573 0.794644 0.881989 . .
P2_4 P 0.71978(32) 0.62708(32) 0.0938(13) 0.0053 Uiso
O5_4 O 0.7192(6) 0.5720(5) 0.1482(23) 0.0053 Uiso
O6_4 O 0.7027(7) 0.6563(6) 0.2975(26) 0.0053 Uiso
O13_4 O 0.7139(7) 0.7194(9) 0.6045(25) 0.0053 Uiso
O14_4 O 0.6767(5) 0.5569(6) 0.5414(24) 0.0053 Uiso
N4_4 N 0.7766(9) 0.6605(8) 0.6961(31) 0.0053 Uiso
P1_4 P 0.94688(32) 0.70626(32) 0.2396(13) 0.0053 Uiso
O1_4 O 0.9474(6) 0.7614(5) 0.1852(23) 0.0053 Uiso
O3_4 O 0.9944(6) 0.7139(7) 0.3955(25) 0.0053 Uiso
N1_4 N 0.8900(9) 0.6729(8) 0.6373(31) 0.0053 Uiso
C1_4 C 0.8770(9) 0.7235(9) 0.653(4) 0.0053 Uiso
C2_4 C 0.8513(10) 0.6280(9) 0.751(4) 0.0053 Uiso
C3_4 C 0.8801(11) 0.6552(8) 0.3967(32) 0.0053 Uiso
C4_4 C 0.7896(9) 0.6099(9) 0.681(4) 0.0053 Uiso
C5_4 C 0.8153(10) 0.7054(9) 0.583(4) 0.0053 Uiso
C6_4 C 0.7865(11) 0.6782(8) 0.9367(32) 0.0053 Uiso
H1_4 H 0.905568 0.756765 0.547906 . .
H2_4 H 0.883234 0.738168 0.817786 . .
H5_4 H 0.872428 0.613107 0.379948 . .
H6_4 H 0.844863 0.657451 0.335079 . .
H7_4 H 0.856177 0.638335 0.920749 . .
H8_4 H 0.85834 0.59346 0.723516 . .
H9_4 H 0.821803 0.675883 0.998254 . .
H10_4 H 0.794238 0.720227 0.953385 . .
H11_4 H 0.761099 0.576568 0.785428 . .
H12_4 H 0.783432 0.595165 0.515548 . .
H15_4 H 0.81049 0.694998 0.412584 . .
H16_4 H 0.808327 0.739873 0.609817 . .
O4_4 O 0.9899(5) 0.7765(6) 0.7920(24) 0.0053 Uiso
H4_4 H 0.996259 0.797688 0.656922 . .
O12_4 O 0.0056(6) 0.2861(7) 0.6045(25) 0.0053 Uiso
O14_5 O 0.0101(5) 0.2235(6) 0.2080(24) 0.0053 Uiso
N4_5 N 0.1100(9) 0.3271(8) 0.3627(31) 0.0053 Uiso
H13_4 H 0.0414132 0.224695 0.128438 . .
H14_4 H 0.00374118 0.202312 0.343078 . .
N1_5 N 0.2234(9) 0.3395(8) 0.3039(31) 0.0053 Uiso
C1_5 C 0.2104(9) 0.3901(9) 0.319(4) 0.0053 Uiso
C2_5 C 0.1847(10) 0.2946(9) 0.417(4) 0.0053 Uiso
C3_5 C 0.2135(11) 0.3218(8) 0.0633(32) 0.0053 Uiso
P2_5 P 0.05312(32) 0.29374(32) 0.7604(13) 0.0053 Uiso
O5_5 O 0.0526(6) 0.2386(5) 0.8148(23) 0.0053 Uiso
C4_5 C 0.1230(9) 0.2765(9) 0.347(4) 0.0053 Uiso
C5_5 C 0.1487(10) 0.3720(9) 0.249(4) 0.0053 Uiso
C6_5 C 0.1199(11) 0.3448(8) 0.6033(32) 0.0053 Uiso
H1_5 H 0.238901 0.423432 0.214572 . .
H2_5 H 0.216568 0.404835 0.484452 . .
H5_5 H 0.205762 0.279773 0.0466148 . .
H6_5 H 0.178197 0.324117 0.00174591 . .
H7_5 H 0.18951 0.305002 0.587416 . .
H8_5 H 0.191673 0.260127 0.390183 . .
H9_5 H 0.155137 0.342549 0.664921 . .
H10_5 H 0.127572 0.386893 0.620052 . .
H11_5 H 0.0944319 0.243235 0.452094 . .
H12_5 H 0.116766 0.261832 0.182214 . .
H15_5 H 0.143823 0.361665 0.0792507 . .
H16_5 H 0.14166 0.40654 0.276484 . .
P1_5 P 0.28022(32) 0.37292(32) 0.9062(13) 0.0053 Uiso
O1_5 O 0.2808(6) 0.4280(5) 0.8518(23) 0.0053 Uiso
O2_4 O 0.2973(7) 0.3437(6) 0.7025(26) 0.0053 Uiso
O4_5 O 0.3233(5) 0.4431(6) 0.4586(24) 0.0053 Uiso
O11_4 O 0.2861(7) 0.2806(9) 0.3955(25) 0.0053 Uiso
O8_4 O 0.9535(9) 0.2973(7) 0.2975(26) 0.0053 Uiso
O11_5 O 0.7194(9) 0.0056(11) 0.3955(25) 0.0053 Uiso
O14_6 O 0.7765(6) 0.7865(8) 0.2080(24) 0.0053 Uiso
N4_6 N 0.6729(8) 0.7828(12) 0.3627(31) 0.0053 Uiso
N1_6 N 0.6605(8) 0.8838(12) 0.3039(31) 0.0053 Uiso
C1_6 C 0.6099(9) 0.8202(13) 0.319(4) 0.0053 Uiso
C2_6 C 0.7054(9) 0.8900(13) 0.417(4) 0.0053 Uiso
C3_6 C 0.6782(8) 0.8916(14) 0.0633(32) 0.0053 Uiso
P2_6 P 0.70626(32) 0.75937(45) 0.7604(13) 0.0053 Uiso
O5_6 O 0.7614(5) 0.8139(8) 0.8148(23) 0.0053 Uiso
C4_6 C 0.7235(9) 0.8464(13) 0.347(4) 0.0053 Uiso
C5_6 C 0.6280(9) 0.7766(13) 0.249(4) 0.0053 Uiso
C6_6 C 0.6552(8) 0.7750(14) 0.6033(32) 0.0053 Uiso
H1_6 H 0.576568 0.815469 0.214572 . .
H2_6 H 0.595165 0.811733 0.484452 . .
H5_6 H 0.720227 0.925988 0.0466148 . .
H6_6 H 0.675883 0.854079 0.00174591 . .
H7_6 H 0.694998 0.884508 0.587416 . .
H8_6 H 0.739873 0.931547 0.390183 . .
H9_6 H 0.657451 0.812587 0.664921 . .
H10_6 H 0.613107 0.740678 0.620052 . .
H11_6 H 0.756765 0.851197 0.452094 . .
H12_6 H 0.738168 0.854934 0.182214 . .
H15_6 H 0.638335 0.782158 0.0792507 . .
H16_6 H 0.59346 0.73512 0.276484 . .
P1_6 P 0.62708(32) 0.90729(45) 0.9062(13) 0.0053 Uiso
O1_6 O 0.5720(5) 0.8527(8) 0.8518(23) 0.0053 Uiso
O2_5 O 0.6563(6) 0.9535(9) 0.7025(26) 0.0053 Uiso
O4_6 O 0.5569(6) 0.8801(8) 0.4586(24) 0.0053 Uiso
O8_5 O 0.3437(11) 0.0465(9) 0.2975(26) 0.0053 Uiso
O12_5 O 0.2806(9) 0.9944(6) 0.6045(25) 0.0053 Uiso
O14_7 O 0.2135(8) 0.9899(5) 0.2080(24) 0.0053 Uiso
N4_7 N 0.2172(12) 0.8900(9) 0.3627(31) 0.0053 Uiso
H13_5 H 0.183282 0.958587 0.128438 . .
H14_5 H 0.198571 0.996259 0.343078 . .
N1_7 N 0.1162(12) 0.7766(9) 0.3039(31) 0.0053 Uiso
C1_7 C 0.1798(13) 0.7896(9) 0.319(4) 0.0053 Uiso
C2_7 C 0.1100(13) 0.8153(10) 0.417(4) 0.0053 Uiso
C3_7 C 0.1084(14) 0.7865(11) 0.0633(32) 0.0053 Uiso
P2_7 P 0.24063(45) 0.94688(32) 0.7604(13) 0.0053 Uiso
O5_7 O 0.1861(8) 0.9474(6) 0.8148(23) 0.0053 Uiso
C4_7 C 0.1536(13) 0.8770(9) 0.347(4) 0.0053 Uiso
C5_7 C 0.2234(13) 0.8513(10) 0.249(4) 0.0053 Uiso
C6_7 C 0.2250(14) 0.8801(11) 0.6033(32) 0.0053 Uiso
H1_7 H 0.184531 0.761099 0.214572 . .
H2_7 H 0.188267 0.783432 0.484452 . .
H5_7 H 0.0740116 0.794238 0.0466148 . .
H6_7 H 0.145921 0.821803 0.00174591 . .
H7_7 H 0.115492 0.81049 0.587416 . .
H8_7 H 0.0684532 0.808327 0.390183 . .
H9_7 H 0.187413 0.844863 0.664921 . .
H10_7 H 0.259322 0.872428 0.620052 . .
H11_7 H 0.148803 0.905568 0.452094 . .
H12_7 H 0.145066 0.883234 0.182214 . .
H15_7 H 0.217842 0.856177 0.0792507 . .
H16_7 H 0.26488 0.85834 0.276484 . .
P1_7 P 0.09271(45) 0.71978(32) 0.9062(13) 0.0053 Uiso
O1_7 O 0.1473(8) 0.7192(6) 0.8518(23) 0.0053 Uiso
O4_7 O 0.1199(8) 0.6767(5) 0.4586(24) 0.0053 Uiso
P2_8 P 0.37292(32) 0.09271(45) 0.0938(13) 0.0053 Uiso
O5_8 O 0.4280(5) 0.1473(8) 0.1482(23) 0.0053 Uiso
O14_8 O 0.4431(6) 0.1199(8) 0.5414(24) 0.0053 Uiso
N4_8 N 0.3395(8) 0.1162(12) 0.6961(31) 0.0053 Uiso
P1_8 P 0.29374(32) 0.24063(45) 0.2396(13) 0.0053 Uiso
O1_8 O 0.2386(5) 0.1861(8) 0.1852(23) 0.0053 Uiso
N1_8 N 0.3271(8) 0.2172(12) 0.6373(31) 0.0053 Uiso
C1_8 C 0.2765(9) 0.1536(13) 0.653(4) 0.0053 Uiso
C2_8 C 0.3720(9) 0.2234(13) 0.751(4) 0.0053 Uiso
C3_8 C 0.3448(8) 0.2250(14) 0.3967(32) 0.0053 Uiso
C4_8 C 0.3901(9) 0.1798(13) 0.681(4) 0.0053 Uiso
C5_8 C 0.2946(9) 0.1100(13) 0.583(4) 0.0053 Uiso
C6_8 C 0.3218(8) 0.1084(14) 0.9367(32) 0.0053 Uiso
H1_8 H 0.243235 0.148803 0.547906 . .
H2_8 H 0.261832 0.145066 0.817786 . .
H5_8 H 0.386893 0.259322 0.379948 . .
H6_8 H 0.342549 0.187413 0.335079 . .
H7_8 H 0.361665 0.217842 0.920749 . .
H8_8 H 0.40654 0.26488 0.723516 . .
H9_8 H 0.324117 0.145921 0.998254 . .
H10_8 H 0.279773 0.0740116 0.953385 . .
H11_8 H 0.423432 0.184531 0.785428 . .
H12_8 H 0.404835 0.188267 0.515548 . .
H15_8 H 0.305002 0.115492 0.412584 . .
H16_8 H 0.260127 0.0684532 0.609817 . .
O4_8 O 0.2235(6) 0.2135(8) 0.7920(24) 0.0053 Uiso
P2_9 P 0.90729(45) 0.28022(32) 0.0938(13) 0.0053 Uiso
O5_9 O 0.8527(8) 0.2808(6) 0.1482(23) 0.0053 Uiso
O14_9 O 0.8801(8) 0.3233(5) 0.5414(24) 0.0053 Uiso
N4_9 N 0.8838(12) 0.2234(9) 0.6961(31) 0.0053 Uiso
P1_9 P 0.75937(45) 0.05312(32) 0.2396(13) 0.0053 Uiso
O1_9 O 0.8139(8) 0.0526(6) 0.1852(23) 0.0053 Uiso
N1_9 N 0.7828(12) 0.1100(9) 0.6373(31) 0.0053 Uiso
C1_9 C 0.8464(13) 0.1230(9) 0.653(4) 0.0053 Uiso
C2_9 C 0.7766(13) 0.1487(10) 0.751(4) 0.0053 Uiso
C3_9 C 0.7750(14) 0.1199(11) 0.3967(32) 0.0053 Uiso
C4_9 C 0.8202(13) 0.2104(9) 0.681(4) 0.0053 Uiso
C5_9 C 0.8900(13) 0.1847(10) 0.583(4) 0.0053 Uiso
C6_9 C 0.8916(14) 0.2135(11) 0.9367(32) 0.0053 Uiso
H1_9 H 0.851197 0.0944319 0.547906 . .
H2_9 H 0.854934 0.116766 0.817786 . .
H5_9 H 0.740678 0.127572 0.379948 . .
H6_9 H 0.812587 0.155137 0.335079 . .
H7_9 H 0.782158 0.143823 0.920749 . .
H8_9 H 0.73512 0.14166 0.723516 . .
H9_9 H 0.854079 0.178197 0.998254 . .
H10_9 H 0.925988 0.205762 0.953385 . .
H11_9 H 0.815469 0.238901 0.785428 . .
H12_9 H 0.811733 0.216568 0.515548 . .
H15_9 H 0.884508 0.18951 0.412584 . .
H16_9 H 0.931547 0.191673 0.609817 . .
O4_9 O 0.7865(8) 0.0101(5) 0.7920(24) 0.0053 Uiso
H4_5 H 0.801429 0.00374118 0.656922 . .
H3_5 H 0.770887 0.976243 0.881989 . .
H13_6 H 0.625253 0.108638 0.204895 . .
H3_6 H 0.309576 0.872023 0.784678 . .
H3_7 H 0.127977 0.437553 0.784678 . .
H13_7 H 0.891362 0.516615 0.204895 . .
H3_8 H 0.562447 0.690424 0.784678 . .
H13_8 H 0.483385 0.374747 0.204895 . .
H3_9 H 0.976243 0.205356 0.118011 . .
H13_9 H 0.958587 0.775305 0.871562 . .
H13_10 H 0.816718 0.0414132 0.871562 . .
H3_10 H 0.229113 0.0237573 0.118011 . .
loop_
_geom_bond_atom_site_label_1
_geom_bond_atom_site_label_2
_geom_bond_site_symmetry_1
_geom_bond_site_symmetry_2
Ni7 O13 1_555 1_555
C6 H9 1_555 1_555
C6 H10 1_555 1_555
Ni4 O2 1_555 1_555
P1 O1 1_555 1_555
O2 P1 1_555 1_555
O3 P1 1_555 1_555
O4 Ni4 1_555 1_555
N1 C1 1_555 1_555
C1 C5 1_555 1_555
Ni5 O3 1_555 1_555
O7 Ni4 1_555 1_555
C1 H1 1_555 1_555
O4 H3 1_555 1_555
C5 H15 1_555 1_555
C5 H16 1_555 1_555
Ni2 O6 1_555 1_555
Ni8 O12 1_555 1_555
P2 O5 1_555 1_555
O6 P2 1_555 1_555
O8 Ni2 1_555 1_555
O12 P2 1_555 1_555
O14 Ni2 1_555 1_555
C4 C2 1_555 1_555
N4 C4 1_555 1_555
C2 H7 1_555 1_555
C2 H8 1_555 1_555
C4 H11 1_555 1_555
O14 H13 1_555 1_555
Ni3 O11 1_555 1_555
C3 H5 1_555 1_555
C3 H6 1_555 1_555
Ni2_2 O6_2 1_555 1_555
Ni8_2 O12_2 1_555 1_555
P2_2 O5_2 1_555 1_555
O6_2 P2_2 1_555 1_555
O8_2 Ni2_2 1_555 1_555
O12_2 P2_2 1_555 1_555
O14_2 Ni2_2 1_555 1_555
C4_2 C2_2 1_555 1_555
N4_2 C4_2 1_555 1_555
C2_2 H7_2 1_555 1_555
C2_2 H8_2 1_555 1_555
C4_2 H11_2 1_555 1_555
O14_2 H13_2 1_555 1_555
Ni3_2 O11_2 1_555 1_555
C3_2 H5_2 1_555 1_555
C3_2 H6_2 1_555 1_555
Ni7_2 O13_2 1_555 1_555
C6_2 H9_2 1_555 1_555
C6_2 H10_2 1_555 1_555
Ni4_2 O2_2 1_555 1_555
P1_2 O1_2 1_555 1_555
O2_2 P1_2 1_555 1_555
O3_2 P1_2 1_555 1_555
O4_2 Ni4_2 1_555 1_555
N1_2 C1_2 1_555 1_555
C1_2 C5_2 1_555 1_555
Ni5_2 O3_2 1_555 1_555
O7_2 Ni4_2 1_555 1_555
C1_2 H1_2 1_555 1_555
O4_2 H3_2 1_555 1_555
C5_2 H15_2 1_555 1_555
C5_2 H16_2 1_555 1_555
Ni2_3 O6_3 1_555 1_555
Ni7_3 O6_3 1_555 1_555
Ni8_3 O12_3 1_555 1_555
P2_3 O5_3 1_555 1_555
O6_3 P2_3 1_555 1_555
O8_3 Ni2_3 1_555 1_555
O12_3 P2_3 1_555 1_555
O13_3 Ni2_3 1_555 1_555
O14_3 Ni2_3 1_555 1_555
C4_3 C2_3 1_555 1_555
C6_3 P2_3 1_555 1_555
Ni7_3 O13_3 1_555 1_555
N4_3 C4_3 1_555 1_555
N4_3 C6_3 1_555 1_555
C2_3 H7_3 1_555 1_555
C2_3 H8_3 1_555 1_555
C6_3 H9_3 1_555 1_555
C6_3 H10_3 1_555 1_555
C4_3 H11_3 1_555 1_555
O14_3 H13_3 1_555 1_555
Ni4_3 O2_3 1_555 1_555
P1_3 O1_3 1_555 1_555
O2_3 P1_3 1_555 1_555
O3_3 P1_3 1_555 1_555
O4_3 Ni4_3 1_555 1_555
N1_3 C1_3 1_555 1_555
C1_3 C5_3 1_555 1_555
C3_3 P1_3 1_555 1_555
Ni3_3 O2_3 1_555 1_555
Ni5_3 O3_3 1_555 1_555
O7_3 Ni4_3 1_555 1_555
O11_3 Ni4_3 1_555 1_555
N1_3 C3_3 1_555 1_555
Ni3_3 O11_3 1_555 1_555
C1_3 H1_3 1_555 1_555
O4_3 H3_3 1_555 1_555
C3_3 H5_3 1_555 1_555
C3_3 H6_3 1_555 1_555
C5_3 H15_3 1_555 1_555
C5_3 H16_3 1_555 1_555
Ni7_3 O6_4 1_555 1_555
Ni8_3 O6_4 1_555 1_555
P2_4 O5_4 1_555 1_555
O6_4 P2_4 1_555 1_555
O13_4 Ni7_3 1_555 1_555
O14_4 Ni7_3 1_555 1_555
N4_4 Ni7_3 1_555 1_555
Ni8_3 O13_4 1_555 1_555
P1_4 O1_4 1_555 1_555
O7_2 P1_4 1_555 1_555
O3_4 P1_4 1_555 1_555
N1_4 C1_4 1_555 1_555
C1_4 C5_4 1_555 1_555
C2_4 N1_4 1_555 1_555
C3_4 P1_4 1_555 1_555
Ni5_2 O3_4 1_555 1_555
C4_4 C2_4 1_555 1_555
C5_4 N4_4 1_555 1_555
N1_4 C3_4 1_555 1_555
N1_4 Ni5_2 1_555 1_555
N4_4 C4_4 1_555 1_555
N4_4 C6_4 1_555 1_555
C1_4 H1_4 1_555 1_555
C1_4 H2_4 1_555 1_555
C3_4 H5_4 1_555 1_555
C3_4 H6_4 1_555 1_555
C2_4 H7_4 1_555 1_555
C2_4 H8_4 1_555 1_555
C6_4 H9_4 1_555 1_555
C6_4 H10_4 1_555 1_555
C4_4 H11_4 1_555 1_555
C4_4 H12_4 1_555 1_555
C5_4 H15_4 1_555 1_555
C5_4 H16_4 1_555 1_555
O4_4 Ni5_2 1_555 1_555
O4_4 H4_4 1_555 1_555
O12_4 Ni8_2 1_555 1_555
O14_5 Ni8_2 1_555 1_555
N4_5 Ni8_2 1_555 1_555
O14_5 H13_4 1_555 1_555
O14_5 H14_4 1_555 1_555
N1_5 C1_5 1_555 1_555
C1_5 C5_5 1_555 1_555
C2_5 N1_5 1_555 1_555
P2_5 O5_5 1_555 1_555
O8_2 P2_5 1_555 1_555
O12_4 P2_5 1_555 1_555
C4_5 C2_5 1_555 1_555
C5_5 N4_5 1_555 1_555
C6_5 P2_5 1_555 1_555
N1_5 C3_5 1_555 1_555
N1_5 Ni3_3 1_555 1_555
N4_5 C4_5 1_555 1_555
N4_5 C6_5 1_555 1_555
C1_5 H1_5 1_555 1_555
C1_5 H2_5 1_555 1_555
C3_5 H5_5 1_555 1_555
C3_5 H6_5 1_555 1_555
C2_5 H7_5 1_555 1_555
C2_5 H8_5 1_555 1_555
C6_5 H9_5 1_555 1_555
C6_5 H10_5 1_555 1_555
C4_5 H11_5 1_555 1_555
C4_5 H12_5 1_555 1_555
C5_5 H15_5 1_555 1_555
C5_5 H16_5 1_555 1_555
Ni3_3 O2_4 1_555 1_555
P1_5 O1_5 1_555 1_555
O2_4 P1_5 1_555 1_555
O4_5 Ni3_3 1_555 1_555
Ni5_3 O2_4 1_555 1_555
O11_4 Ni3_3 1_555 1_555
Ni5_3 O11_4 1_555 1_555
Ni5 O11_5 1_555 1_555
O14_6 Ni8_3 1_555 1_555
N4_6 Ni8_3 1_555 1_555
N1_6 C1_6 1_555 1_555
C1_6 C5_6 1_555 1_555
C2_6 N1_6 1_555 1_555
P2_6 O5_6 1_555 1_555
O8_3 P2_6 1_555 1_555
O13_4 P2_6 1_555 1_555
C4_6 C2_6 1_555 1_555
C5_6 N4_6 1_555 1_555
C6_6 P2_6 1_555 1_555
N1_6 C3_6 1_555 1_555
N1_6 Ni3 1_555 1_555
N4_6 C4_6 1_555 1_555
N4_6 C6_6 1_555 1_555
C1_6 H1_6 1_555 1_555
C1_6 H2_6 1_555 1_555
C3_6 H5_6 1_555 1_555
C3_6 H6_6 1_555 1_555
C2_6 H7_6 1_555 1_555
C2_6 H8_6 1_555 1_555
C6_6 H9_6 1_555 1_555
C6_6 H10_6 1_555 1_555
C4_6 H11_6 1_555 1_555
C4_6 H12_6 1_555 1_555
C5_6 H15_6 1_555 1_555
C5_6 H16_6 1_555 1_555
Ni3 O2_5 1_555 1_555
P1_6 O1_6 1_555 1_555
O2_5 P1_6 1_555 1_555
O4_6 Ni3 1_555 1_555
O12_5 Ni8 1_555 1_555
O14_7 Ni8 1_555 1_555
N4_7 Ni8 1_555 1_555
O14_7 H13_5 1_555 1_555
O14_7 H14_5 1_555 1_555
N1_7 C1_7 1_555 1_555
C1_7 C5_7 1_555 1_555
C2_7 N1_7 1_555 1_555
P2_7 O5_7 1_555 1_555
O8 P2_7 1_555 1_555
O12_5 P2_7 1_555 1_555
C4_7 C2_7 1_555 1_555
C5_7 N4_7 1_555 1_555
C6_7 P2_7 1_555 1_555
N1_7 C3_7 1_555 1_555
N1_7 Ni3_2 1_555 1_555
N4_7 C4_7 1_555 1_555
N4_7 C6_7 1_555 1_555
C1_7 H1_7 1_555 1_555
C1_7 H2_7 1_555 1_555
C3_7 H5_7 1_555 1_555
C3_7 H6_7 1_555 1_555
C2_7 H7_7 1_555 1_555
C2_7 H8_7 1_555 1_555
C6_7 H9_7 1_555 1_555
C6_7 H10_7 1_555 1_555
C4_7 H11_7 1_555 1_555
C4_7 H12_7 1_555 1_555
C5_7 H15_7 1_555 1_555
C5_7 H16_7 1_555 1_555
Ni3_2 O7_4 1_555 1_555
P1_7 O1_7 1_555 1_555
O7_4 P1_7 1_555 1_555
O4_7 Ni3_2 1_555 1_555
Ni7 O8_5 1_555 1_555
P2_8 O5_8 1_555 1_555
O8_5 P2_8 1_555 1_555
O14_8 Ni7 1_555 1_555
N4_8 Ni7 1_555 1_555
P1_8 O1_8 1_555 1_555
O7_3 P1_8 1_555 1_555
O11_4 P1_8 1_555 1_555
N1_8 C1_8 1_555 1_555
C1_8 C5_8 1_555 1_555
C2_8 N1_8 1_555 1_555
C3_8 P1_8 1_555 1_555
C4_8 C2_8 1_555 1_555
C5_8 N4_8 1_555 1_555
N1_8 C3_8 1_555 1_555
N1_8 Ni5_3 1_555 1_555
N4_8 C4_8 1_555 1_555
N4_8 C6_8 1_555 1_555
C1_8 H1_8 1_555 1_555
C1_8 H2_8 1_555 1_555
C3_8 H5_8 1_555 1_555
C3_8 H6_8 1_555 1_555
C2_8 H7_8 1_555 1_555
C2_8 H8_8 1_555 1_555
C6_8 H9_8 1_555 1_555
C6_8 H10_8 1_555 1_555
C4_8 H11_8 1_555 1_555
C4_8 H12_8 1_555 1_555
C5_8 H15_8 1_555 1_555
C5_8 H16_8 1_555 1_555
O4_8 Ni5_3 1_555 1_555
Ni7_2 O8_4 1_555 1_555
P2_9 O5_9 1_555 1_555
O8_4 P2_9 1_555 1_555
O14_9 Ni7_2 1_555 1_555
N4_9 Ni7_2 1_555 1_555
P1_9 O1_9 1_555 1_555
O7 P1_9 1_555 1_555
O11_5 P1_9 1_555 1_555
N1_9 C1_9 1_555 1_555
C1_9 C5_9 1_555 1_555
C2_9 N1_9 1_555 1_555
C3_9 P1_9 1_555 1_555
C4_9 C2_9 1_555 1_555
C5_9 N4_9 1_555 1_555
N1_9 C3_9 1_555 1_555
N1_9 Ni5 1_555 1_555
N4_9 C4_9 1_555 1_555
N4_9 C6_9 1_555 1_555
C1_9 H1_9 1_555 1_555
C1_9 H2_9 1_555 1_555
C3_9 H5_9 1_555 1_555
C3_9 H6_9 1_555 1_555
C2_9 H7_9 1_555 1_555
C2_9 H8_9 1_555 1_555
C6_9 H9_9 1_555 1_555
C6_9 H10_9 1_555 1_555
C4_9 H11_9 1_555 1_555
C4_9 H12_9 1_555 1_555
C5_9 H15_9 1_555 1_555
C5_9 H16_9 1_555 1_555
O4_9 Ni5 1_555 1_555
O4_9 H4_5 1_555 1_555
O4 H13_6 1_555 1_555
O14 H3_6 1_555 1_555
O14_2 H3_7 1_555 1_555
O4_2 H13_7 1_555 1_555
O14_3 H3_8 1_555 1_555
O4_3 H13_8 1_555 1_555
O4_4 H13_9 1_555 1_555
O4_9 H13_10 1_555 1_555

#END
