
###############################################################################
#
# This file contains modified crystal structure data generated from the
# MOF subset of the Cambridge Structural Database (CSD) v543 
# hosted by the Cambridge Crystallographic Data Centre (CCDC).
#
# This work is licensed under the Creative Commons
# Attribution-NonCommercial-ShareAlike 4.0 International License.
# To view a copy of this license, visit
# http://creativecommons.org/licenses/by-nc-sa/4.0/
# or send a letter to
# Creative Commons, PO Box 1866, Mountain View, CA 94042, USA.
#
# CIF created using the CSD Python API on 29 September 2022
# The structure has been converted into the P1 space group
# The structure has a 3D framework
# The original CSD entry YENRER is in the tetragonal crystal system
# The framework has been calculated to contain at least 10.0% void space
# The void calculation uses a probe of radius 1.32A, grid spacing 0.4
#
###############################################################################

data_YENRER
_chemical_formula_moiety         '(C112 H96 N80 O108 U16)n'
_symmetry_cell_setting           triclinic
_symmetry_space_group_name_H-M   'P 1'
_symmetry_Int_Tables_number      1
_space_group_name_Hall           'P 1'
loop_
_symmetry_equiv_pos_site_id
_symmetry_equiv_pos_as_xyz
1 x,y,z
_cell_length_a                   13.8792(9)
_cell_length_b                   13.8792
_cell_length_c                   39.672(3)
_cell_angle_alpha                90
_cell_angle_beta                 90
_cell_angle_gamma                90
_cell_volume                     7642.1
loop_
_atom_site_label
_atom_site_type_symbol
_atom_site_fract_x
_atom_site_fract_y
_atom_site_fract_z
U1 U 0.71854(2) 0.42445(2) 0.06691(2)
O1 O 0.5547(3) 0.4012(5) 0.08744(11)
O2 O 0.5634(3) 0.4556(4) 0.03625(11)
O4 O 0.1207(4) 0.5274(3) 0.12372(10)
O5 O 0.1434(4) 0.3903(3) 0.14850(10)
O6 O 0.7170(4) 0.3058(4) 0.05348(13)
O7 O 0.7173(4) 0.5396(4) 0.08014(13)
N1 N 0.3725(4) 0.4712(5) 0.02864(13)
H1 H 0.4134 0.4915 0.0133
N3 N 0.0914(3) 0.4976(5) 0.01223(12)
N4 N 0.2192(3) 0.4516(4) 0.04793(12)
N5 N 0.0636(3) 0.4327(4) 0.06389(10)
H2 H 0.0023 0.4466 0.0609
C1 C 0.5142(5) 0.4293(6) 0.06164(17)
C2 C 0.4087(4) 0.4285(6) 0.06000(16)
H3 H 0.3860 0.3626 0.0617
H4 H 0.3830 0.4641 0.0790
C3 C 0.2789(4) 0.4795(5) 0.02335(16)
C5 C 0.1268(4) 0.4611(5) 0.04131(13)
C6 C 0.0923(4) 0.3798(4) 0.09317(12)
H5 H 0.1467 0.3394 0.0872
H6 H 0.0398 0.3375 0.0996
C7 C 0.1193(5) 0.4378(5) 0.12277(14)
U3 U 0.17445(2) 0.53146(2) 0.18309(2)
O8 O 0.8717(3) 0.4472(5) 0.03949(11)
O9 O 0.7226(3) 0.3707(4) 0.12628(10)
O10 O 0.8597(3) 0.3934(4) 0.10150(10)
N6 N 0.7494(3) 0.4839(5) 0.00640(13)
O3 O 0.1283(3) 0.5528(5) 0.96051(11)
N2 N 0.2506(3) 0.5161(5) 0.99360(13)
C4 C 0.1559(5) 0.5217(6) 0.98962(16)
U2 U 0.28146(2) 0.57555(2) 0.93309(2)
O3_2 O 0.3717(3) 0.4472(5) 0.46051(11)
O4_2 O 0.3793(4) 0.4726(3) 0.62372(10)
O5_2 O 0.3566(4) 0.6097(3) 0.64850(10)
N1_2 N 0.1275(4) 0.5288(5) 0.52864(13)
H1_2 H 0.0866 0.5085 0.5133
N2_2 N 0.2494(3) 0.4839(5) 0.49360(13)
N3_2 N 0.4086(3) 0.5024(5) 0.51223(12)
N4_2 N 0.2808(3) 0.5484(4) 0.54793(12)
N5_2 N 0.4364(3) 0.5673(4) 0.56389(10)
H2_2 H 0.4977 0.5534 0.5609
C2_2 C 0.0913(4) 0.5715(6) 0.56000(16)
H3_2 H 0.1140 0.6374 0.5617
H4_2 H 0.1170 0.5359 0.5790
C3_2 C 0.2211(4) 0.5205(5) 0.52335(16)
C4_2 C 0.3441(5) 0.4783(6) 0.48962(16)
C5_2 C 0.3732(4) 0.5389(5) 0.54131(13)
C6_2 C 0.4077(4) 0.6202(4) 0.59317(12)
H5_2 H 0.3533 0.6606 0.5872
H6_2 H 0.4602 0.6625 0.5996
C7_2 C 0.3807(5) 0.5622(5) 0.62277(14)
U2_2 U 0.21854(2) 0.42445(2) 0.43309(2)
U3_2 U 0.32555(2) 0.46854(2) 0.68309(2)
U1_2 U 0.78146(2) 0.57555(2) 0.56691(2)
O1_2 O 0.9453(3) 0.5988(5) 0.58744(11)
O2_2 O 0.9366(3) 0.5444(4) 0.53625(11)
O6_2 O 0.7830(4) 0.6942(4) 0.55348(13)
O7_2 O 0.7827(4) 0.4604(4) 0.58014(13)
C1_2 C 0.9858(5) 0.5707(6) 0.56164(17)
O8_2 O 0.6283(3) 0.5528(5) 0.53949(11)
O9_2 O 0.7774(3) 0.6293(4) 0.62628(10)
O10_2 O 0.6403(3) 0.6066(4) 0.60150(10)
N6_2 N 0.7506(3) 0.5161(5) 0.50640(13)
O8_3 O 0.3028(5) 0.1217(3) 0.28949(11)
O10_3 O 0.3566(4) 0.1097(3) 0.35150(10)
U1_3 U 0.32555(2) 0.96854(2) 0.31691(2)
O1_3 O 0.3488(5) 0.8047(3) 0.33744(11)
O2_3 O 0.2944(4) 0.8134(3) 0.28625(11)
O3_3 O 0.1972(5) 0.3783(3) 0.21051(11)
O4_3 O 0.2226(3) 0.3707(4) 0.37372(10)
O5_3 O 0.3597(3) 0.3934(4) 0.39850(10)
O6_3 O 0.4442(4) 0.9670(4) 0.30348(13)
O7_3 O 0.2104(4) 0.9673(4) 0.33014(13)
N1_3 N 0.2788(5) 0.6225(4) 0.27864(13)
H1_3 H 0.2585 0.6634 0.2633
N2_3 N 0.2339(5) 0.5006(3) 0.24360(13)
N3_3 N 0.2524(5) 0.3414(3) 0.26223(12)
N4_3 N 0.2984(4) 0.4692(3) 0.29793(12)
N5_3 N 0.3173(4) 0.3136(3) 0.31389(10)
H2_3 H 0.3034 0.2523 0.3109
C1_3 C 0.3207(6) 0.7642(5) 0.31164(17)
C2_3 C 0.3215(6) 0.6587(4) 0.31000(16)
H3_3 H 0.3874 0.6360 0.3117
H4_3 H 0.2859 0.6330 0.3290
C3_3 C 0.2705(5) 0.5289(4) 0.27335(16)
C4_3 C 0.2283(6) 0.4059(5) 0.23962(16)
C5_3 C 0.2889(5) 0.3768(4) 0.29131(13)
C6_3 C 0.3702(4) 0.3423(4) 0.34317(12)
H5_3 H 0.4106 0.3967 0.3372
H6_3 H 0.4125 0.2898 0.3496
C7_3 C 0.3122(5) 0.3693(5) 0.37277(14)
O9_3 O 0.3793(4) 0.9726(3) 0.37628(10)
N6_3 N 0.2661(5) 0.9994(3) 0.25640(13)
U1_4 U 0.17445(2) 0.03146(2) 0.81691(2)
O1_4 O 0.1512(5) 0.1953(3) 0.83744(11)
O2_4 O 0.2056(4) 0.1866(3) 0.78625(11)
O3_4 O 0.3028(5) 0.6217(3) 0.71051(11)
O4_4 O 0.2774(3) 0.6293(4) 0.87372(10)
O5_4 O 0.1403(3) 0.6066(4) 0.89850(10)
O6_4 O 0.0558(4) 0.0330(4) 0.80348(13)
O7_4 O 0.2896(4) 0.0327(4) 0.83014(13)
N1_4 N 0.2212(5) 0.3775(4) 0.77864(13)
H1_4 H 0.2415 0.3366 0.7633
N2_4 N 0.2661(5) 0.4994(3) 0.74360(13)
N3_4 N 0.2476(5) 0.6586(3) 0.76223(12)
N4_4 N 0.2016(4) 0.5308(3) 0.79793(12)
N5_4 N 0.1827(4) 0.6864(3) 0.81389(10)
H2_4 H 0.1966 0.7477 0.8109
C1_4 C 0.1793(6) 0.2358(5) 0.81164(17)
C2_4 C 0.1785(6) 0.3413(4) 0.81000(16)
H3_4 H 0.1126 0.3640 0.8117
H4_4 H 0.2141 0.3670 0.8290
C3_4 C 0.2295(5) 0.4711(4) 0.77335(16)
C4_4 C 0.2717(6) 0.5941(5) 0.73962(16)
C5_4 C 0.2111(5) 0.6232(4) 0.79131(13)
C6_4 C 0.1298(4) 0.6577(4) 0.84317(12)
H5_4 H 0.0894 0.6033 0.8372
H6_4 H 0.0875 0.7102 0.8496
C7_4 C 0.1878(5) 0.6307(5) 0.87277(14)
O9_4 O 0.1207(4) 0.0274(3) 0.87628(10)
N6_4 N 0.2339(5) 0.0006(3) 0.75640(13)
O8_4 O 0.1972(5) 0.8783(3) 0.78949(11)
O10_4 O 0.1434(4) 0.8903(3) 0.85150(10)
U1_5 U 0.21854(2) 0.92445(2) 0.56691(2)
O1_5 O 0.0547(3) 0.9012(5) 0.58744(11)
O2_5 O 0.0634(3) 0.9556(4) 0.53625(11)
O6_5 O 0.2170(4) 0.8058(4) 0.55348(13)
C1_5 C 0.0142(5) 0.9293(6) 0.56164(17)
O8_5 O 0.3717(3) 0.9472(5) 0.53949(11)
O9_5 O 0.2226(3) 0.8707(4) 0.62628(10)
O10_5 O 0.3597(3) 0.8934(4) 0.60150(10)
N6_5 N 0.2494(3) 0.9839(5) 0.50640(13)
O3_5 O 0.6283(3) 0.0528(5) 0.46051(11)
O4_5 O 0.6207(4) 0.0274(3) 0.62372(10)
N2_5 N 0.7506(3) 0.0161(5) 0.49360(13)
C4_5 C 0.6559(5) 0.0217(6) 0.48962(16)
U2_3 U 0.78146(2) 0.07555(2) 0.43309(2)
U3_3 U 0.67445(2) 0.03146(2) 0.68309(2)
O5_5 O 0.6434(4) 0.8903(3) 0.64850(10)
N1_5 N 0.8725(4) 0.9712(5) 0.52864(13)
H1_5 H 0.9134 0.9915 0.5133
N3_5 N 0.5914(3) 0.9976(5) 0.51223(12)
N4_5 N 0.7192(3) 0.9516(4) 0.54793(12)
N5_5 N 0.5636(3) 0.9327(4) 0.56389(10)
H2_5 H 0.5023 0.9466 0.5609
C2_5 C 0.9087(4) 0.9285(6) 0.56000(16)
H3_5 H 0.8860 0.8626 0.5617
H4_5 H 0.8830 0.9641 0.5790
C3_5 C 0.7789(4) 0.9795(5) 0.52335(16)
C5_5 C 0.6268(4) 0.9611(5) 0.54131(13)
C6_5 C 0.5923(4) 0.8798(4) 0.59317(12)
H5_5 H 0.6467 0.8394 0.5872
H6_5 H 0.5398 0.8375 0.5996
C7_5 C 0.6193(5) 0.9378(5) 0.62277(14)
U1_6 U 0.28146(2) 0.07555(2) 0.06691(2)
O1_6 O 0.4453(3) 0.0988(5) 0.08744(11)
O2_6 O 0.4366(3) 0.0444(4) 0.03625(11)
O5_6 O 0.8566(4) 0.1097(3) 0.14850(10)
O6_6 O 0.2830(4) 0.1942(4) 0.05348(13)
N1_6 N 0.6275(4) 0.0288(5) 0.02864(13)
H1_6 H 0.5866 0.0085 0.0133
N3_6 N 0.9086(3) 0.0024(5) 0.01223(12)
N4_6 N 0.7808(3) 0.0484(4) 0.04793(12)
N5_6 N 0.9364(3) 0.0673(4) 0.06389(10)
H2_6 H 0.9977 0.0534 0.0609
C1_6 C 0.4858(5) 0.0707(6) 0.06164(17)
C2_6 C 0.5913(4) 0.0715(6) 0.06000(16)
H3_6 H 0.6140 0.1374 0.0617
H4_6 H 0.6170 0.0359 0.0790
C3_6 C 0.7211(4) 0.0205(5) 0.02335(16)
C5_6 C 0.8732(4) 0.0389(5) 0.04131(13)
C6_6 C 0.9077(4) 0.1202(4) 0.09317(12)
H5_6 H 0.8533 0.1606 0.0872
H6_6 H 0.9602 0.1625 0.0996
C7_6 C 0.8807(5) 0.0622(5) 0.12277(14)
O8_6 O 0.1283(3) 0.0528(5) 0.03949(11)
O9_6 O 0.2774(3) 0.1293(4) 0.12628(10)
O10_6 O 0.1403(3) 0.1066(4) 0.10150(10)
N6_6 N 0.2506(3) 0.0161(5) 0.00640(13)
O4_6 O 0.8793(4) 0.9726(3) 0.12372(10)
O7_5 O 0.2827(4) 0.9604(4) 0.08014(13)
U3_4 U 0.82555(2) 0.96854(2) 0.18309(2)
O3_6 O 0.8717(3) 0.9472(5) 0.96051(11)
N2_6 N 0.7494(3) 0.9839(5) 0.99360(13)
C4_6 C 0.8441(5) 0.9783(6) 0.98962(16)
U2_4 U 0.71854(2) 0.92445(2) 0.93309(2)
U1_7 U 0.82555(2) 0.46854(2) 0.81691(2)
O1_7 O 0.8488(5) 0.3047(3) 0.83744(11)
O2_7 O 0.7944(4) 0.3134(3) 0.78625(11)
O6_7 O 0.9442(4) 0.4670(4) 0.80348(13)
O7_6 O 0.7104(4) 0.4673(4) 0.83014(13)
N1_7 N 0.7788(5) 0.1225(4) 0.77864(13)
H1_7 H 0.7585 0.1634 0.7633
N2_7 N 0.7339(5) 0.0006(3) 0.74360(13)
C1_7 C 0.8207(6) 0.2642(5) 0.81164(17)
C2_7 C 0.8215(6) 0.1587(4) 0.81000(16)
H3_7 H 0.8874 0.1360 0.8117
H4_7 H 0.7859 0.1330 0.8290
C3_7 C 0.7705(5) 0.0289(4) 0.77335(16)
O8_7 O 0.8028(5) 0.6217(3) 0.78949(11)
O9_7 O 0.8793(4) 0.4726(3) 0.87628(10)
O10_7 O 0.8566(4) 0.6097(3) 0.85150(10)
N6_7 N 0.7661(5) 0.4994(3) 0.75640(13)
O3_7 O 0.6972(5) 0.8783(3) 0.71051(11)
O4_7 O 0.7226(3) 0.8707(4) 0.87372(10)
O5_7 O 0.8597(3) 0.8934(4) 0.89850(10)
N3_7 N 0.7524(5) 0.8414(3) 0.76223(12)
N4_7 N 0.7984(4) 0.9692(3) 0.79793(12)
N5_7 N 0.8173(4) 0.8136(3) 0.81389(10)
H2_7 H 0.8034 0.7523 0.8109
C4_7 C 0.7283(6) 0.9059(5) 0.73962(16)
C5_7 C 0.7889(5) 0.8768(4) 0.79131(13)
C6_7 C 0.8702(4) 0.8423(4) 0.84317(12)
H5_7 H 0.9106 0.8967 0.8372
H6_7 H 0.9125 0.7898 0.8496
C7_7 C 0.8122(5) 0.8693(5) 0.87277(14)
O3_8 O 0.8028(5) 0.1217(3) 0.21051(11)
O4_8 O 0.7774(3) 0.1293(4) 0.37372(10)
O5_8 O 0.6403(3) 0.1066(4) 0.39850(10)
N3_8 N 0.7476(5) 0.1586(3) 0.26223(12)
N4_8 N 0.7016(4) 0.0308(3) 0.29793(12)
N5_8 N 0.6827(4) 0.1864(3) 0.31389(10)
H2_8 H 0.6966 0.2477 0.3109
C4_8 C 0.7717(6) 0.0941(5) 0.23962(16)
C5_8 C 0.7111(5) 0.1232(4) 0.29131(13)
C6_8 C 0.6298(4) 0.1577(4) 0.34317(12)
H5_8 H 0.5894 0.1033 0.3372
H6_8 H 0.5875 0.2102 0.3496
C7_8 C 0.6878(5) 0.1307(5) 0.37277(14)
U1_8 U 0.67445(2) 0.53146(2) 0.31691(2)
O1_8 O 0.6512(5) 0.6953(3) 0.33744(11)
O2_8 O 0.7056(4) 0.6866(3) 0.28625(11)
O6_8 O 0.5558(4) 0.5330(4) 0.30348(13)
O7_7 O 0.7896(4) 0.5327(4) 0.33014(13)
N1_8 N 0.7212(5) 0.8775(4) 0.27864(13)
H1_8 H 0.7415 0.8366 0.2633
N2_8 N 0.7661(5) 0.9994(3) 0.24360(13)
C1_8 C 0.6793(6) 0.7358(5) 0.31164(17)
C2_8 C 0.6785(6) 0.8413(4) 0.31000(16)
H3_8 H 0.6126 0.8640 0.3117
H4_8 H 0.7141 0.8670 0.3290
C3_8 C 0.7295(5) 0.9711(4) 0.27335(16)
O8_8 O 0.6972(5) 0.3783(3) 0.28949(11)
O9_8 O 0.6207(4) 0.5274(3) 0.37628(10)
O10_8 O 0.6434(4) 0.3903(3) 0.35150(10)
N6_8 N 0.7339(5) 0.5006(3) 0.25640(13)
C4_9 C 0.8441(5) 0.4783(6) 0.01038(16)
O1_9 O 0.4453(3) 0.5988(5) 0.91256(11)
O2_9 O 0.4366(3) 0.5444(4) 0.96375(11)
O6_9 O 0.2830(4) 0.6942(4) 0.94652(13)
O7_8 O 0.2827(4) 0.4604(4) 0.91986(13)
N1_9 N 0.6275(4) 0.5288(5) 0.97136(13)
H1_9 H 0.5866 0.5085 0.9867
N3_9 N 0.9086(3) 0.5024(5) 0.98777(12)
N4_9 N 0.7808(3) 0.5484(4) 0.95207(12)
N5_9 N 0.9364(3) 0.5673(4) 0.93611(10)
H2_9 H 0.9977 0.5534 0.9391
C1_9 C 0.4858(5) 0.5707(6) 0.93836(17)
C2_9 C 0.5913(4) 0.5715(6) 0.94000(16)
H3_9 H 0.6140 0.6374 0.9383
H4_9 H 0.6170 0.5359 0.9210
C3_9 C 0.7211(4) 0.5205(5) 0.97665(16)
C5_9 C 0.8732(4) 0.5389(5) 0.95869(13)
C6_9 C 0.9077(4) 0.6202(4) 0.90683(12)
H5_9 H 0.8533 0.6606 0.9128
H6_9 H 0.9602 0.6625 0.9004
C7_9 C 0.8807(5) 0.5622(5) 0.87723(14)
O1_10 O 0.0547(3) 0.4012(5) 0.41256(11)
O2_10 O 0.0634(3) 0.4556(4) 0.46375(11)
O6_10 O 0.2170(4) 0.3058(4) 0.44652(13)
O7_9 O 0.2173(4) 0.5396(4) 0.41986(13)
C1_10 C 0.0142(5) 0.4293(6) 0.43836(17)
N1_10 N 0.8725(4) 0.4712(5) 0.47136(13)
H1_10 H 0.9134 0.4915 0.4867
N3_10 N 0.5914(3) 0.4976(5) 0.48777(12)
N4_10 N 0.7192(3) 0.4516(4) 0.45207(12)
N5_10 N 0.5636(3) 0.4327(4) 0.43611(10)
H2_10 H 0.5023 0.4466 0.4391
C2_10 C 0.9087(4) 0.4285(6) 0.44000(16)
H3_10 H 0.8860 0.3626 0.4383
H4_10 H 0.8830 0.4641 0.4210
C3_10 C 0.7789(4) 0.4795(5) 0.47665(16)
C4_10 C 0.6559(5) 0.5217(6) 0.51038(16)
C5_10 C 0.6268(4) 0.4611(5) 0.45869(13)
C6_10 C 0.5923(4) 0.3798(4) 0.40683(12)
H5_10 H 0.6467 0.3394 0.4128
H6_10 H 0.5398 0.3375 0.4004
C7_10 C 0.6193(5) 0.4378(5) 0.37723(14)
O1_11 O 0.6512(5) 0.1953(3) 0.66256(11)
O2_11 O 0.7056(4) 0.1866(3) 0.71375(11)
O6_11 O 0.5558(4) 0.0330(4) 0.69652(13)
O7_10 O 0.7896(4) 0.0327(4) 0.66986(13)
N1_11 N 0.7212(5) 0.3775(4) 0.72136(13)
H1_11 H 0.7415 0.3366 0.7367
N3_11 N 0.7476(5) 0.6586(3) 0.73777(12)
N4_11 N 0.7016(4) 0.5308(3) 0.70207(12)
N5_11 N 0.6827(4) 0.6864(3) 0.68611(10)
H2_11 H 0.6966 0.7477 0.6891
C1_11 C 0.6793(6) 0.2358(5) 0.68836(17)
C2_11 C 0.6785(6) 0.3413(4) 0.69000(16)
H3_11 H 0.6126 0.3640 0.6883
H4_11 H 0.7141 0.3670 0.6710
C3_11 C 0.7295(5) 0.4711(4) 0.72665(16)
C4_11 C 0.7717(6) 0.5941(5) 0.76038(16)
C5_11 C 0.7111(5) 0.6232(4) 0.70869(13)
C6_11 C 0.6298(4) 0.6577(4) 0.65683(12)
H5_11 H 0.5894 0.6033 0.6628
H6_11 H 0.5875 0.7102 0.6504
C7_11 C 0.6878(5) 0.6307(5) 0.62723(14)
O1_12 O 0.8488(5) 0.8047(3) 0.16256(11)
O2_12 O 0.7944(4) 0.8134(3) 0.21375(11)
O6_12 O 0.9442(4) 0.9670(4) 0.19652(13)
O7_11 O 0.7104(4) 0.9673(4) 0.16986(13)
N1_12 N 0.7788(5) 0.6225(4) 0.22136(13)
H1_12 H 0.7585 0.6634 0.2367
N3_12 N 0.7524(5) 0.3414(3) 0.23777(12)
N4_12 N 0.7984(4) 0.4692(3) 0.20207(12)
N5_12 N 0.8173(4) 0.3136(3) 0.18611(10)
H2_12 H 0.8034 0.2523 0.1891
C1_12 C 0.8207(6) 0.7642(5) 0.18836(17)
C2_12 C 0.8215(6) 0.6587(4) 0.19000(16)
H3_12 H 0.8874 0.6360 0.1883
H4_12 H 0.7859 0.6330 0.1710
C3_12 C 0.7705(5) 0.5289(4) 0.22665(16)
C4_12 C 0.7283(6) 0.4059(5) 0.26038(16)
C5_12 C 0.7889(5) 0.3768(4) 0.20869(13)
C6_12 C 0.8702(4) 0.3423(4) 0.15683(12)
H5_12 H 0.9106 0.3967 0.1628
H6_12 H 0.9125 0.2898 0.1504
C7_12 C 0.8122(5) 0.3693(5) 0.12723(14)
N1_13 N 0.1275(4) 0.0288(5) 0.47136(13)
H1_13 H 0.0866 0.0085 0.4867
N3_13 N 0.4086(3) 0.0024(5) 0.48777(12)
N4_13 N 0.2808(3) 0.0484(4) 0.45207(12)
N5_13 N 0.4364(3) 0.0673(4) 0.43611(10)
H2_13 H 0.4977 0.0534 0.4391
C2_13 C 0.0913(4) 0.0715(6) 0.44000(16)
H3_13 H 0.1140 0.1374 0.4383
H4_13 H 0.1170 0.0359 0.4210
C3_13 C 0.2211(4) 0.0205(5) 0.47665(16)
C5_13 C 0.3732(4) 0.0389(5) 0.45869(13)
C6_13 C 0.4077(4) 0.1202(4) 0.40683(12)
H5_13 H 0.3533 0.1606 0.4128
H6_13 H 0.4602 0.1625 0.4004
C7_13 C 0.3807(5) 0.0622(5) 0.37723(14)
C4_13 C 0.3441(5) 0.9783(6) 0.51038(16)
O1_13 O 0.9453(3) 0.0988(5) 0.41256(11)
O2_13 O 0.9366(3) 0.0444(4) 0.46375(11)
O6_13 O 0.7830(4) 0.1942(4) 0.44652(13)
C1_13 C 0.9858(5) 0.0707(6) 0.43836(17)
C4_14 C 0.1559(5) 0.0217(6) 0.01038(16)
O7_12 O 0.7173(4) 0.0396(4) 0.91986(13)
O1_14 O 0.5547(3) 0.9012(5) 0.91256(11)
O2_14 O 0.5634(3) 0.9556(4) 0.96375(11)
O6_14 O 0.7170(4) 0.8058(4) 0.94652(13)
N1_14 N 0.3725(4) 0.9712(5) 0.97136(13)
H1_14 H 0.4134 0.9915 0.9867
N3_14 N 0.0914(3) 0.9976(5) 0.98777(12)
N4_14 N 0.2192(3) 0.9516(4) 0.95207(12)
N5_14 N 0.0636(3) 0.9327(4) 0.93611(10)
H2_14 H 0.0023 0.9466 0.9391
C1_14 C 0.5142(5) 0.9293(6) 0.93836(17)
C2_14 C 0.4087(4) 0.9285(6) 0.94000(16)
H3_14 H 0.3860 0.8626 0.9383
H4_14 H 0.3830 0.9641 0.9210
C3_14 C 0.2789(4) 0.9795(5) 0.97665(16)
C5_14 C 0.1268(4) 0.9611(5) 0.95869(13)
C6_14 C 0.0923(4) 0.8798(4) 0.90683(12)
H5_14 H 0.1467 0.8394 0.9128
H6_14 H 0.0398 0.8375 0.9004
C7_14 C 0.1193(5) 0.9378(5) 0.87723(14)
N3_15 N 0.2476(5) 0.1586(3) 0.23777(12)
N4_15 N 0.2016(4) 0.0308(3) 0.20207(12)
N5_15 N 0.1827(4) 0.1864(3) 0.18611(10)
H2_15 H 0.1966 0.2477 0.1891
C4_15 C 0.2717(6) 0.0941(5) 0.26038(16)
C5_15 C 0.2111(5) 0.1232(4) 0.20869(13)
C6_15 C 0.1298(4) 0.1577(4) 0.15683(12)
H5_15 H 0.0894 0.1033 0.1628
H6_15 H 0.0875 0.2102 0.1504
C7_15 C 0.1878(5) 0.1307(5) 0.12723(14)
O1_15 O 0.1512(5) 0.6953(3) 0.16256(11)
O2_15 O 0.2056(4) 0.6866(3) 0.21375(11)
O6_15 O 0.0558(4) 0.5330(4) 0.19652(13)
O7_13 O 0.2896(4) 0.5327(4) 0.16986(13)
N1_15 N 0.2212(5) 0.8775(4) 0.22136(13)
H1_15 H 0.2415 0.8366 0.2367
C1_15 C 0.1793(6) 0.7358(5) 0.18836(17)
C2_15 C 0.1785(6) 0.8413(4) 0.19000(16)
H3_15 H 0.1126 0.8640 0.1883
H4_15 H 0.2141 0.8670 0.1710
C3_15 C 0.2295(5) 0.9711(4) 0.22665(16)
O1_16 O 0.3488(5) 0.3047(3) 0.66256(11)
O2_16 O 0.2944(4) 0.3134(3) 0.71375(11)
O6_16 O 0.4442(4) 0.4670(4) 0.69652(13)
O7_14 O 0.2104(4) 0.4673(4) 0.66986(13)
N1_16 N 0.2788(5) 0.1225(4) 0.72136(13)
H1_16 H 0.2585 0.1634 0.7367
C1_16 C 0.3207(6) 0.2642(5) 0.68836(17)
C2_16 C 0.3215(6) 0.1587(4) 0.69000(16)
H3_16 H 0.3874 0.1360 0.6883
H4_16 H 0.2859 0.1330 0.6710
C3_16 C 0.2705(5) 0.0289(4) 0.72665(16)
N3_16 N 0.2524(5) 0.8414(3) 0.73777(12)
N4_16 N 0.2984(4) 0.9692(3) 0.70207(12)
N5_16 N 0.3173(4) 0.8136(3) 0.68611(10)
H2_16 H 0.3034 0.7523 0.6891
C4_16 C 0.2283(6) 0.9059(5) 0.76038(16)
C5_16 C 0.2889(5) 0.8768(4) 0.70869(13)
C6_16 C 0.3702(4) 0.8423(4) 0.65683(12)
H5_16 H 0.4106 0.8967 0.6628
H6_16 H 0.4125 0.7898 0.6504
C7_16 C 0.3122(5) 0.8693(5) 0.62723(14)
O7_15 O 0.2173(4) 0.0396(4) 0.58014(13)
O7_16 O 0.7827(4) 0.9604(4) 0.41986(13)
loop_
_geom_bond_atom_site_label_1
_geom_bond_atom_site_label_2
_geom_bond_site_symmetry_1
_geom_bond_site_symmetry_2
U1 O1 1_555 1_555
O1 C1 1_555 1_555
O2 U1 1_555 1_555
O4 C7 1_555 1_555
O5 C7 1_555 1_555
O6 U1 1_555 1_555
O7 U1 1_555 1_555
N1 H1 1_555 1_555
N4 C3 1_555 1_555
N5 H2 1_555 1_555
C1 O2 1_555 1_555
C2 N1 1_555 1_555
H3 C2 1_555 1_555
H4 C2 1_555 1_555
C3 N1 1_555 1_555
C5 N3 1_555 1_555
C6 N5 1_555 1_555
H5 C6 1_555 1_555
H6 C6 1_555 1_555
C7 C6 1_555 1_555
U3 O4 1_555 1_555
O8 U1 1_555 1_555
O9 U1 1_555 1_555
O10 U1 1_555 1_555
N6 U1 1_555 1_555
O5 U3 1_555 1_555
N4 C5 1_555 1_555
N5 C5 1_555 1_555
C1 C2 1_555 1_555
O3 C4 1_555 1_555
C4 N2 1_555 1_555
U2 O3 1_555 1_555
N2 U2 1_555 1_555
O3_2 C4_2 1_555 1_555
O4_2 C7_2 1_555 1_555
O5_2 C7_2 1_555 1_555
N1_2 H1_2 1_555 1_555
N2_2 C3_2 1_555 1_555
N3_2 C4_2 1_555 1_555
N4_2 C3_2 1_555 1_555
N5_2 H2_2 1_555 1_555
C2_2 N1_2 1_555 1_555
H3_2 C2_2 1_555 1_555
H4_2 C2_2 1_555 1_555
C3_2 N1_2 1_555 1_555
C4_2 N2_2 1_555 1_555
C5_2 N3_2 1_555 1_555
C6_2 N5_2 1_555 1_555
H5_2 C6_2 1_555 1_555
H6_2 C6_2 1_555 1_555
C7_2 C6_2 1_555 1_555
U2_2 O3_2 1_555 1_555
U3_2 O4_2 1_555 1_555
O5_2 U3_2 1_555 1_555
N2_2 U2_2 1_555 1_555
N4_2 C5_2 1_555 1_555
N5_2 C5_2 1_555 1_555
U1_2 O1_2 1_555 1_555
O1_2 C1_2 1_555 1_555
O2_2 U1_2 1_555 1_555
O6_2 U1_2 1_555 1_555
O7_2 U1_2 1_555 1_555
C1_2 O2_2 1_555 1_555
O8_2 U1_2 1_555 1_555
O9_2 U1_2 1_555 1_555
O10_2 U1_2 1_555 1_555
N6_2 U1_2 1_555 1_555
U1_3 O1_3 1_555 1_555
O1_3 C1_3 1_555 1_555
O2_3 U1_3 1_555 1_555
O3_3 C4_3 1_555 1_555
O4_3 C7_3 1_555 1_555
O5_3 C7_3 1_555 1_555
O6_3 U1_3 1_555 1_555
O7_3 U1_3 1_555 1_555
N1_3 H1_3 1_555 1_555
N2_3 C3_3 1_555 1_555
N3_3 C4_3 1_555 1_555
N4_3 C3_3 1_555 1_555
N5_3 H2_3 1_555 1_555
C1_3 O2_3 1_555 1_555
C2_3 N1_3 1_555 1_555
H3_3 C2_3 1_555 1_555
H4_3 C2_3 1_555 1_555
C3_3 N1_3 1_555 1_555
C4_3 N2_3 1_555 1_555
C5_3 N3_3 1_555 1_555
C6_3 N5_3 1_555 1_555
H5_3 C6_3 1_555 1_555
H6_3 C6_3 1_555 1_555
C7_3 C6_3 1_555 1_555
U3 O3_3 1_555 1_555
U2_2 O4_3 1_555 1_555
O9_3 U1_3 1_555 1_555
N6_3 U1_3 1_555 1_555
O5_3 U2_2 1_555 1_555
N2_3 U3 1_555 1_555
N4_3 C5_3 1_555 1_555
N5_3 C5_3 1_555 1_555
C1_3 C2_3 1_555 1_555
U1_4 O1_4 1_555 1_555
O1_4 C1_4 1_555 1_555
O2_4 U1_4 1_555 1_555
O3_4 C4_4 1_555 1_555
O4_4 C7_4 1_555 1_555
O5_4 C7_4 1_555 1_555
O6_4 U1_4 1_555 1_555
O7_4 U1_4 1_555 1_555
N1_4 H1_4 1_555 1_555
N2_4 C3_4 1_555 1_555
N3_4 C4_4 1_555 1_555
N4_4 C3_4 1_555 1_555
N5_4 H2_4 1_555 1_555
C1_4 O2_4 1_555 1_555
C2_4 N1_4 1_555 1_555
H3_4 C2_4 1_555 1_555
H4_4 C2_4 1_555 1_555
C3_4 N1_4 1_555 1_555
C4_4 N2_4 1_555 1_555
C5_4 N3_4 1_555 1_555
C6_4 N5_4 1_555 1_555
H5_4 C6_4 1_555 1_555
H6_4 C6_4 1_555 1_555
C7_4 C6_4 1_555 1_555
U3_2 O3_4 1_555 1_555
U2 O4_4 1_555 1_555
O9_4 U1_4 1_555 1_555
N6_4 U1_4 1_555 1_555
O5_4 U2 1_555 1_555
N2_4 U3_2 1_555 1_555
N4_4 C5_4 1_555 1_555
N5_4 C5_4 1_555 1_555
C1_4 C2_4 1_555 1_555
U1_5 O1_5 1_555 1_555
O1_5 C1_5 1_555 1_555
O2_5 U1_5 1_555 1_555
O6_5 U1_5 1_555 1_555
C1_5 O2_5 1_555 1_555
O8_5 U1_5 1_555 1_555
O9_5 U1_5 1_555 1_555
O10_5 U1_5 1_555 1_555
N6_5 U1_5 1_555 1_555
O3_5 C4_5 1_555 1_555
C4_5 N2_5 1_555 1_555
U2_3 O3_5 1_555 1_555
U3_3 O4_5 1_555 1_555
N2_5 U2_3 1_555 1_555
O5_5 C7_5 1_555 1_555
N1_5 H1_5 1_555 1_555
N4_5 C3_5 1_555 1_555
N5_5 H2_5 1_555 1_555
C2_5 N1_5 1_555 1_555
H3_5 C2_5 1_555 1_555
H4_5 C2_5 1_555 1_555
C3_5 N1_5 1_555 1_555
C5_5 N3_5 1_555 1_555
C6_5 N5_5 1_555 1_555
H5_5 C6_5 1_555 1_555
H6_5 C6_5 1_555 1_555
C7_5 C6_5 1_555 1_555
N4_5 C5_5 1_555 1_555
N5_5 C5_5 1_555 1_555
U1_6 O1_6 1_555 1_555
O1_6 C1_6 1_555 1_555
O2_6 U1_6 1_555 1_555
O5_6 C7_6 1_555 1_555
O6_6 U1_6 1_555 1_555
N1_6 H1_6 1_555 1_555
N4_6 C3_6 1_555 1_555
N5_6 H2_6 1_555 1_555
C1_6 O2_6 1_555 1_555
C2_6 N1_6 1_555 1_555
H3_6 C2_6 1_555 1_555
H4_6 C2_6 1_555 1_555
C3_6 N1_6 1_555 1_555
C5_6 N3_6 1_555 1_555
C6_6 N5_6 1_555 1_555
H5_6 C6_6 1_555 1_555
H6_6 C6_6 1_555 1_555
C7_6 C6_6 1_555 1_555
O8_6 U1_6 1_555 1_555
O9_6 U1_6 1_555 1_555
O10_6 U1_6 1_555 1_555
N6_6 U1_6 1_555 1_555
N4_6 C5_6 1_555 1_555
N5_6 C5_6 1_555 1_555
C1_6 C2_6 1_555 1_555
U3_4 O4_6 1_555 1_555
O3_6 C4_6 1_555 1_555
C4_6 N2_6 1_555 1_555
U2_4 O3_6 1_555 1_555
N2_6 U2_4 1_555 1_555
U1_7 O1_7 1_555 1_555
O1_7 C1_7 1_555 1_555
O2_7 U1_7 1_555 1_555
O6_7 U1_7 1_555 1_555
O7_6 U1_7 1_555 1_555
N1_7 H1_7 1_555 1_555
N2_7 C3_7 1_555 1_555
C1_7 O2_7 1_555 1_555
C2_7 N1_7 1_555 1_555
H3_7 C2_7 1_555 1_555
H4_7 C2_7 1_555 1_555
C3_7 N1_7 1_555 1_555
O8_7 U1_7 1_555 1_555
O9_7 U1_7 1_555 1_555
O10_7 U1_7 1_555 1_555
N6_7 U1_7 1_555 1_555
N2_7 U3_3 1_555 1_555
C1_7 C2_7 1_555 1_555
O3_7 C4_7 1_555 1_555
O4_7 C7_7 1_555 1_555
O5_7 C7_7 1_555 1_555
N3_7 C4_7 1_555 1_555
N5_7 H2_7 1_555 1_555
C5_7 N3_7 1_555 1_555
C6_7 N5_7 1_555 1_555
H5_7 C6_7 1_555 1_555
H6_7 C6_7 1_555 1_555
C7_7 C6_7 1_555 1_555
U2_4 O4_7 1_555 1_555
O5_7 U2_4 1_555 1_555
N4_7 C5_7 1_555 1_555
N5_7 C5_7 1_555 1_555
O3_8 C4_8 1_555 1_555
O4_8 C7_8 1_555 1_555
O5_8 C7_8 1_555 1_555
N3_8 C4_8 1_555 1_555
N5_8 H2_8 1_555 1_555
C5_8 N3_8 1_555 1_555
C6_8 N5_8 1_555 1_555
H5_8 C6_8 1_555 1_555
H6_8 C6_8 1_555 1_555
C7_8 C6_8 1_555 1_555
U2_3 O4_8 1_555 1_555
O5_8 U2_3 1_555 1_555
N4_8 C5_8 1_555 1_555
N5_8 C5_8 1_555 1_555
U1_8 O1_8 1_555 1_555
O1_8 C1_8 1_555 1_555
O2_8 U1_8 1_555 1_555
O6_8 U1_8 1_555 1_555
O7_7 U1_8 1_555 1_555
N1_8 H1_8 1_555 1_555
N2_8 C3_8 1_555 1_555
C1_8 O2_8 1_555 1_555
C2_8 N1_8 1_555 1_555
H3_8 C2_8 1_555 1_555
H4_8 C2_8 1_555 1_555
C3_8 N1_8 1_555 1_555
O8_8 U1_8 1_555 1_555
O9_8 U1_8 1_555 1_555
O10_8 U1_8 1_555 1_555
N6_8 U1_8 1_555 1_555
N2_8 U3_4 1_555 1_555
C1_8 C2_8 1_555 1_555
O8 C4_9 1_555 1_555
C4_9 N6 1_555 1_555
U2 O1_9 1_555 1_555
O1_9 C1_9 1_555 1_555
O2_9 U2 1_555 1_555
O9_7 C7_9 1_555 1_555
O10_7 C7_9 1_555 1_555
O6_9 U2 1_555 1_555
O7_8 U2 1_555 1_555
N1_9 H1_9 1_555 1_555
N4_9 C3_9 1_555 1_555
N5_9 H2_9 1_555 1_555
C1_9 O2_9 1_555 1_555
C2_9 N1_9 1_555 1_555
H3_9 C2_9 1_555 1_555
H4_9 C2_9 1_555 1_555
C3_9 N1_9 1_555 1_555
C5_9 N3_9 1_555 1_555
C6_9 N5_9 1_555 1_555
H5_9 C6_9 1_555 1_555
H6_9 C6_9 1_555 1_555
C7_9 C6_9 1_555 1_555
N4_9 C5_9 1_555 1_555
N5_9 C5_9 1_555 1_555
C1_9 C2_9 1_555 1_555
U2_2 O1_10 1_555 1_555
O1_10 C1_10 1_555 1_555
O2_10 U2_2 1_555 1_555
O6_10 U2_2 1_555 1_555
O7_9 U2_2 1_555 1_555
C1_10 O2_10 1_555 1_555
O8_2 C4_10 1_555 1_555
O9_8 C7_10 1_555 1_555
O10_8 C7_10 1_555 1_555
N1_10 H1_10 1_555 1_555
N6_2 C3_10 1_555 1_555
N3_10 C4_10 1_555 1_555
N4_10 C3_10 1_555 1_555
N5_10 H2_10 1_555 1_555
C2_10 N1_10 1_555 1_555
H3_10 C2_10 1_555 1_555
H4_10 C2_10 1_555 1_555
C3_10 N1_10 1_555 1_555
C4_10 N6_2 1_555 1_555
C5_10 N3_10 1_555 1_555
C6_10 N5_10 1_555 1_555
H5_10 C6_10 1_555 1_555
H6_10 C6_10 1_555 1_555
C7_10 C6_10 1_555 1_555
N4_10 C5_10 1_555 1_555
N5_10 C5_10 1_555 1_555
U3_3 O1_11 1_555 1_555
O1_11 C1_11 1_555 1_555
O2_11 U3_3 1_555 1_555
O8_7 C4_11 1_555 1_555
O9_2 C7_11 1_555 1_555
O10_2 C7_11 1_555 1_555
O6_11 U3_3 1_555 1_555
O7_10 U3_3 1_555 1_555
N1_11 H1_11 1_555 1_555
N6_7 C3_11 1_555 1_555
N3_11 C4_11 1_555 1_555
N4_11 C3_11 1_555 1_555
N5_11 H2_11 1_555 1_555
C1_11 O2_11 1_555 1_555
C2_11 N1_11 1_555 1_555
H3_11 C2_11 1_555 1_555
H4_11 C2_11 1_555 1_555
C3_11 N1_11 1_555 1_555
C4_11 N6_7 1_555 1_555
C5_11 N3_11 1_555 1_555
C6_11 N5_11 1_555 1_555
H5_11 C6_11 1_555 1_555
H6_11 C6_11 1_555 1_555
C7_11 C6_11 1_555 1_555
N4_11 C5_11 1_555 1_555
N5_11 C5_11 1_555 1_555
C1_11 C2_11 1_555 1_555
U3_4 O1_12 1_555 1_555
O1_12 C1_12 1_555 1_555
O2_12 U3_4 1_555 1_555
O8_8 C4_12 1_555 1_555
O9 C7_12 1_555 1_555
O10 C7_12 1_555 1_555
O6_12 U3_4 1_555 1_555
O7_11 U3_4 1_555 1_555
N1_12 H1_12 1_555 1_555
N6_8 C3_12 1_555 1_555
N3_12 C4_12 1_555 1_555
N4_12 C3_12 1_555 1_555
N5_12 H2_12 1_555 1_555
C1_12 O2_12 1_555 1_555
C2_12 N1_12 1_555 1_555
H3_12 C2_12 1_555 1_555
H4_12 C2_12 1_555 1_555
C3_12 N1_12 1_555 1_555
C4_12 N6_8 1_555 1_555
C5_12 N3_12 1_555 1_555
C6_12 N5_12 1_555 1_555
H5_12 C6_12 1_555 1_555
H6_12 C6_12 1_555 1_555
C7_12 C6_12 1_555 1_555
N4_12 C5_12 1_555 1_555
N5_12 C5_12 1_555 1_555
C1_12 C2_12 1_555 1_555
O10_3 C7_13 1_555 1_555
N1_13 H1_13 1_555 1_555
N4_13 C3_13 1_555 1_555
N5_13 H2_13 1_555 1_555
C2_13 N1_13 1_555 1_555
H3_13 C2_13 1_555 1_555
H4_13 C2_13 1_555 1_555
C3_13 N1_13 1_555 1_555
C5_13 N3_13 1_555 1_555
C6_13 N5_13 1_555 1_555
H5_13 C6_13 1_555 1_555
H6_13 C6_13 1_555 1_555
C7_13 C6_13 1_555 1_555
N4_13 C5_13 1_555 1_555
N5_13 C5_13 1_555 1_555
O8_5 C4_13 1_555 1_555
C4_13 N6_5 1_555 1_555
U2_3 O1_13 1_555 1_555
O1_13 C1_13 1_555 1_555
O2_13 U2_3 1_555 1_555
O6_13 U2_3 1_555 1_555
C1_13 O2_13 1_555 1_555
O8_6 C4_14 1_555 1_555
C4_14 N6_6 1_555 1_555
U2_4 O1_14 1_555 1_555
O1_14 C1_14 1_555 1_555
O2_14 U2_4 1_555 1_555
O10_4 C7_14 1_555 1_555
O6_14 U2_4 1_555 1_555
N1_14 H1_14 1_555 1_555
N4_14 C3_14 1_555 1_555
N5_14 H2_14 1_555 1_555
C1_14 O2_14 1_555 1_555
C2_14 N1_14 1_555 1_555
H3_14 C2_14 1_555 1_555
H4_14 C2_14 1_555 1_555
C3_14 N1_14 1_555 1_555
C5_14 N3_14 1_555 1_555
C6_14 N5_14 1_555 1_555
H5_14 C6_14 1_555 1_555
H6_14 C6_14 1_555 1_555
C7_14 C6_14 1_555 1_555
N4_14 C5_14 1_555 1_555
N5_14 C5_14 1_555 1_555
C1_14 C2_14 1_555 1_555
O8_3 C4_15 1_555 1_555
O9_6 C7_15 1_555 1_555
O10_6 C7_15 1_555 1_555
N3_15 C4_15 1_555 1_555
N5_15 H2_15 1_555 1_555
C5_15 N3_15 1_555 1_555
C6_15 N5_15 1_555 1_555
H5_15 C6_15 1_555 1_555
H6_15 C6_15 1_555 1_555
C7_15 C6_15 1_555 1_555
N4_15 C5_15 1_555 1_555
N5_15 C5_15 1_555 1_555
U3 O1_15 1_555 1_555
O1_15 C1_15 1_555 1_555
O2_15 U3 1_555 1_555
O6_15 U3 1_555 1_555
O7_13 U3 1_555 1_555
N1_15 H1_15 1_555 1_555
N6_3 C3_15 1_555 1_555
C1_15 O2_15 1_555 1_555
C2_15 N1_15 1_555 1_555
H3_15 C2_15 1_555 1_555
H4_15 C2_15 1_555 1_555
C3_15 N1_15 1_555 1_555
C1_15 C2_15 1_555 1_555
U3_2 O1_16 1_555 1_555
O1_16 C1_16 1_555 1_555
O2_16 U3_2 1_555 1_555
O6_16 U3_2 1_555 1_555
O7_14 U3_2 1_555 1_555
N1_16 H1_16 1_555 1_555
N6_4 C3_16 1_555 1_555
C1_16 O2_16 1_555 1_555
C2_16 N1_16 1_555 1_555
H3_16 C2_16 1_555 1_555
H4_16 C2_16 1_555 1_555
C3_16 N1_16 1_555 1_555
C1_16 C2_16 1_555 1_555
O8_4 C4_16 1_555 1_555
O9_5 C7_16 1_555 1_555
O10_5 C7_16 1_555 1_555
N3_16 C4_16 1_555 1_555
N5_16 H2_16 1_555 1_555
C5_16 N3_16 1_555 1_555
C6_16 N5_16 1_555 1_555
H5_16 C6_16 1_555 1_555
H6_16 C6_16 1_555 1_555
C7_16 C6_16 1_555 1_555
N4_16 C5_16 1_555 1_555
N5_16 C5_16 1_555 1_555

#END
