
###############################################################################
#
# This file contains modified crystal structure data generated from the
# MOF subset of the Cambridge Structural Database (CSD) v543 
# hosted by the Cambridge Crystallographic Data Centre (CCDC).
#
# This work is licensed under the Creative Commons
# Attribution-NonCommercial-ShareAlike 4.0 International License.
# To view a copy of this license, visit
# http://creativecommons.org/licenses/by-nc-sa/4.0/
# or send a letter to
# Creative Commons, PO Box 1866, Mountain View, CA 94042, USA.
#
# CIF created using the CSD Python API on 29 September 2022
# The structure has been converted into the P1 space group
# The structure has a 3D framework
# The original CSD entry YENTUJ is in the cubic crystal system
# The framework has been calculated to contain at least 10.0% void space
# The void calculation uses a probe of radius 1.32A, grid spacing 0.4
#
###############################################################################

data_YENTUJ
_chemical_formula_moiety         '(C192 H96 N96 O107 Zn42)n'
_symmetry_cell_setting           triclinic
_symmetry_space_group_name_H-M   'P 1'
_symmetry_Int_Tables_number      1
_space_group_name_Hall           'P 1'
loop_
_symmetry_equiv_pos_site_id
_symmetry_equiv_pos_as_xyz
1 x,y,z
_cell_length_a                   20.1343(3)
_cell_length_b                   20.1343(3)
_cell_length_c                   20.1343(3)
_cell_angle_alpha                90
_cell_angle_beta                 90
_cell_angle_gamma                90
_cell_volume                     8162.24
loop_
_atom_site_label
_atom_site_type_symbol
_atom_site_fract_x
_atom_site_fract_y
_atom_site_fract_z
Zn8 Zn 0.06899(4) 0.56899(4) 0.68101(4)
Zn13 Zn 0.06899(4) 0.68101(4) 0.56899(4)
N16 N 0.1001(2) 0.6001(2) 0.77691(17)
N19 N 0.1001(2) 0.47309(17) 0.6499(2)
O15 O 0.1250 0.6250 0.6250
Zn14 Zn 0.56899(4) 0.06899(4) 0.68101(4)
Zn15 Zn 0.68101(4) 0.06899(4) 0.56899(4)
Zn1 Zn 0.68101(4) 0.56899(4) 0.06899(4)
O2 O 0.6250 0.6250 0.1250
Zn3 Zn 0.56899(4) 0.68101(4) 0.06899(4)
Zn10 Zn 0.68101(4) 0.68101(4) 0.18101(4)
Zn12 Zn 0.56899(4) 0.56899(4) 0.18101(4)
N14 N 0.6499(2) 0.47309(17) 0.1001(2)
N15 N 0.6001(2) 0.77691(17) 0.1001(2)
N17 N 0.47309(17) 0.6499(2) 0.1001(2)
N18 N 0.77691(17) 0.6001(2) 0.1001(2)
N1 N 0.6499(2) 0.6001(2) 0.97309(17)
O1 O 0.6599(3) 0.5901(3) 0.7737(3)
C1 C 0.6626(4) 0.5874(4) 0.9168(5)
H1 H 0.6938 0.5562 0.9033
C2 C 0.6250 0.6250 0.8749(5)
C3 C 0.6250 0.6250 0.8029(7)
Zn2 Zn 0.68070(4) 0.56930(4) 0.68070(4)
O3 O 0.6250 0.6250 0.6250
N2 N 0.6001(2) 0.6499(2) 0.97309(17)
C4 C 0.5874(4) 0.6626(4) 0.9168(5)
H2 H 0.5562 0.6938 0.9033
O4 O 0.5901(3) 0.6599(3) 0.7737(3)
Zn4 Zn 0.56930(4) 0.68070(4) 0.68070(4)
N3 N 0.6499(2) 0.6499(2) 0.27691(17)
O5 O 0.6599(3) 0.6599(3) 0.4763(3)
C5 C 0.6626(4) 0.6626(4) 0.3332(5)
H3 H 0.6938 0.6938 0.3467
C6 C 0.6250 0.6250 0.3751(5)
C7 C 0.6250 0.6250 0.4471(7)
N4 N 0.6001(2) 0.6001(2) 0.27691(17)
C8 C 0.5874(4) 0.5874(4) 0.3332(5)
H4 H 0.5562 0.5562 0.3467
O6 O 0.5901(3) 0.5901(3) 0.4763(3)
Zn5 Zn 0.68070(4) 0.68070(4) 0.56930(4)
Zn6 Zn 0.56930(4) 0.56930(4) 0.56930(4)
N5 N 0.97309(17) 0.6499(2) 0.6001(2)
O7 O 0.7737(3) 0.6599(3) 0.5901(3)
C9 C 0.9168(5) 0.6626(4) 0.5874(4)
H5 H 0.9033 0.6938 0.5562
C10 C 0.8749(5) 0.6250 0.6250
C11 C 0.8029(7) 0.6250 0.6250
N6 N 0.97309(17) 0.6001(2) 0.6499(2)
C12 C 0.9168(5) 0.5874(4) 0.6626(4)
H6 H 0.9033 0.5562 0.6938
O8 O 0.7737(3) 0.5901(3) 0.6599(3)
N7 N 0.6001(2) 0.97309(17) 0.6499(2)
O9 O 0.5901(3) 0.7737(3) 0.6599(3)
C13 C 0.5874(4) 0.9168(5) 0.6626(4)
H7 H 0.5562 0.9033 0.6938
C14 C 0.6250 0.8749(5) 0.6250
C15 C 0.6250 0.8029(7) 0.6250
N8 N 0.6499(2) 0.97309(17) 0.6001(2)
C16 C 0.6626(4) 0.9168(5) 0.5874(4)
H8 H 0.6938 0.9033 0.5562
O10 O 0.6599(3) 0.7737(3) 0.5901(3)
Zn7 Zn 0.68101(4) 0.18101(4) 0.68101(4)
N9 N 0.6499(2) 0.27691(17) 0.6499(2)
O11 O 0.6599(3) 0.4763(3) 0.6599(3)
C17 C 0.6626(4) 0.3332(5) 0.6626(4)
H9 H 0.6938 0.3467 0.6938
C18 C 0.6250 0.3751(5) 0.6250
C19 C 0.6250 0.4471(7) 0.6250
N10 N 0.6001(2) 0.27691(17) 0.6001(2)
C20 C 0.5874(4) 0.3332(5) 0.5874(4)
H10 H 0.5562 0.3467 0.5562
O12 O 0.5901(3) 0.4763(3) 0.5901(3)
N11 N 0.27691(17) 0.6001(2) 0.6001(2)
O13 O 0.4763(3) 0.5901(3) 0.5901(3)
C21 C 0.3332(5) 0.5874(4) 0.5874(4)
H11 H 0.3467 0.5562 0.5562
C22 C 0.3751(5) 0.6250 0.6250
C23 C 0.4471(7) 0.6250 0.6250
N12 N 0.27691(17) 0.6499(2) 0.6499(2)
C24 C 0.3332(5) 0.6626(4) 0.6626(4)
H12 H 0.3467 0.6938 0.6938
O14 O 0.4763(3) 0.6599(3) 0.6599(3)
Zn16 Zn 0.18101(4) 0.56899(4) 0.56899(4)
Zn17 Zn 0.18101(4) 0.68101(4) 0.68101(4)
Zn18 Zn 0.56899(4) 0.18101(4) 0.56899(4)
N13 N 0.6499(2) 0.1499(2) 0.77691(17)
N20 N 0.77691(17) 0.1499(2) 0.6499(2)
O16 O 0.6250 0.1250 0.6250
N13_2 N 0.6001(2) 0.1001(2) 0.77691(17)
N20_2 N 0.47309(17) 0.1001(2) 0.6499(2)
N16_2 N 0.1499(2) 0.6499(2) 0.77691(17)
N19_2 N 0.1499(2) 0.77691(17) 0.6499(2)
N16_3 N 0.1001(2) 0.6499(2) 0.47309(17)
N19_3 N 0.1001(2) 0.77691(17) 0.6001(2)
N13_3 N 0.6499(2) 0.1001(2) 0.47309(17)
N20_3 N 0.77691(17) 0.1001(2) 0.6001(2)
N14_2 N 0.6499(2) 0.77691(17) 0.1499(2)
N15_2 N 0.6001(2) 0.47309(17) 0.1499(2)
N17_2 N 0.47309(17) 0.6001(2) 0.1499(2)
N18_2 N 0.77691(17) 0.6499(2) 0.1499(2)
N13_4 N 0.6001(2) 0.1499(2) 0.47309(17)
N16_4 N 0.1499(2) 0.6001(2) 0.47309(17)
N19_4 N 0.1499(2) 0.47309(17) 0.6001(2)
N20_4 N 0.47309(17) 0.1499(2) 0.6001(2)
Zn8_2 Zn 0.06899(4) 0.06899(4) 0.18101(4)
Zn13_2 Zn 0.06899(4) 0.18101(4) 0.06899(4)
N16_5 N 0.1001(2) 0.1001(2) 0.27691(17)
O15_2 O 0.1250 0.1250 0.1250
N19_5 N 0.1001(2) 0.97309(17) 0.1499(2)
O1_2 O 0.6599(3) 0.0901(3) 0.2737(3)
C1_2 C 0.6626(4) 0.0874(4) 0.4168(5)
H1_2 H 0.6938 0.0562 0.4033
C2_2 C 0.6250 0.1250 0.3749(5)
C3_2 C 0.6250 0.1250 0.3029(7)
Zn2_2 Zn 0.68070(4) 0.06930(4) 0.18070(4)
O3_2 O 0.6250 0.1250 0.1250
C4_2 C 0.5874(4) 0.1626(4) 0.4168(5)
H2_2 H 0.5562 0.1938 0.4033
O4_2 O 0.5901(3) 0.1599(3) 0.2737(3)
Zn4_2 Zn 0.56930(4) 0.18070(4) 0.18070(4)
Zn5_2 Zn 0.68070(4) 0.18070(4) 0.06930(4)
Zn6_2 Zn 0.56930(4) 0.06930(4) 0.06930(4)
N5_2 N 0.97309(17) 0.1499(2) 0.1001(2)
O7_2 O 0.7737(3) 0.1599(3) 0.0901(3)
C9_2 C 0.9168(5) 0.1626(4) 0.0874(4)
H5_2 H 0.9033 0.1938 0.0562
C10_2 C 0.8749(5) 0.1250 0.1250
C11_2 C 0.8029(7) 0.1250 0.1250
N6_2 N 0.97309(17) 0.1001(2) 0.1499(2)
C12_2 C 0.9168(5) 0.0874(4) 0.1626(4)
H6_2 H 0.9033 0.0562 0.1938
O8_2 O 0.7737(3) 0.0901(3) 0.1599(3)
O9_2 O 0.5901(3) 0.2737(3) 0.1599(3)
C13_2 C 0.5874(4) 0.4168(5) 0.1626(4)
H7_2 H 0.5562 0.4033 0.1938
C14_2 C 0.6250 0.3749(5) 0.1250
C15_2 C 0.6250 0.3029(7) 0.1250
C16_2 C 0.6626(4) 0.4168(5) 0.0874(4)
H8_2 H 0.6938 0.4033 0.0562
O10_2 O 0.6599(3) 0.2737(3) 0.0901(3)
N11_2 N 0.27691(17) 0.1001(2) 0.1001(2)
O13_2 O 0.4763(3) 0.0901(3) 0.0901(3)
C21_2 C 0.3332(5) 0.0874(4) 0.0874(4)
H11_2 H 0.3467 0.0562 0.0562
C22_2 C 0.3751(5) 0.1250 0.1250
C23_2 C 0.4471(7) 0.1250 0.1250
N12_2 N 0.27691(17) 0.1499(2) 0.1499(2)
C24_2 C 0.3332(5) 0.1626(4) 0.1626(4)
H12_2 H 0.3467 0.1938 0.1938
O14_2 O 0.4763(3) 0.1599(3) 0.1599(3)
Zn16_2 Zn 0.18101(4) 0.06899(4) 0.06899(4)
Zn17_2 Zn 0.18101(4) 0.18101(4) 0.18101(4)
O5_2 O 0.6599(3) 0.1599(3) 0.9763(3)
C5_2 C 0.6626(4) 0.1626(4) 0.8332(5)
H3_2 H 0.6938 0.1938 0.8467
C6_2 C 0.6250 0.1250 0.8751(5)
C7_2 C 0.6250 0.1250 0.9471(7)
C8_2 C 0.5874(4) 0.0874(4) 0.8332(5)
H4_2 H 0.5562 0.0562 0.8467
O6_2 O 0.5901(3) 0.0901(3) 0.9763(3)
O11_2 O 0.6599(3) 0.9763(3) 0.1599(3)
C17_2 C 0.6626(4) 0.8332(5) 0.1626(4)
H9_2 H 0.6938 0.8467 0.1938
C18_2 C 0.6250 0.8751(5) 0.1250
C19_2 C 0.6250 0.9471(7) 0.1250
C20_2 C 0.5874(4) 0.8332(5) 0.0874(4)
H10_2 H 0.5562 0.8467 0.0562
O12_2 O 0.5901(3) 0.9763(3) 0.0901(3)
N16_6 N 0.1499(2) 0.1499(2) 0.27691(17)
N19_6 N 0.1499(2) 0.27691(17) 0.1499(2)
N19_7 N 0.1001(2) 0.27691(17) 0.1001(2)
N16_7 N 0.1001(2) 0.1499(2) 0.97309(17)
N16_8 N 0.1499(2) 0.1001(2) 0.97309(17)
N19_8 N 0.1499(2) 0.97309(17) 0.1001(2)
O1_3 O 0.1599(3) 0.5901(3) 0.2737(3)
C1_3 C 0.1626(4) 0.5874(4) 0.4168(5)
H1_3 H 0.1938 0.5562 0.4033
C2_3 C 0.1250 0.6250 0.3749(5)
C3_3 C 0.1250 0.6250 0.3029(7)
Zn2_3 Zn 0.18070(4) 0.56930(4) 0.18070(4)
O3_3 O 0.1250 0.6250 0.1250
C4_3 C 0.0874(4) 0.6626(4) 0.4168(5)
H2_3 H 0.0562 0.6938 0.4033
O4_3 O 0.0901(3) 0.6599(3) 0.2737(3)
Zn4_3 Zn 0.06930(4) 0.68070(4) 0.18070(4)
Zn5_3 Zn 0.18070(4) 0.68070(4) 0.06930(4)
Zn6_3 Zn 0.06930(4) 0.56930(4) 0.06930(4)
O7_3 O 0.2737(3) 0.6599(3) 0.0901(3)
C9_3 C 0.4168(5) 0.6626(4) 0.0874(4)
H5_3 H 0.4033 0.6938 0.0562
C10_3 C 0.3749(5) 0.6250 0.1250
C11_3 C 0.3029(7) 0.6250 0.1250
C12_3 C 0.4168(5) 0.5874(4) 0.1626(4)
H6_3 H 0.4033 0.5562 0.1938
O8_3 O 0.2737(3) 0.5901(3) 0.1599(3)
O9_3 O 0.0901(3) 0.7737(3) 0.1599(3)
C13_3 C 0.0874(4) 0.9168(5) 0.1626(4)
H7_3 H 0.0562 0.9033 0.1938
C14_3 C 0.1250 0.8749(5) 0.1250
C15_3 C 0.1250 0.8029(7) 0.1250
C16_3 C 0.1626(4) 0.9168(5) 0.0874(4)
H8_3 H 0.1938 0.9033 0.0562
O10_3 O 0.1599(3) 0.7737(3) 0.0901(3)
O11_3 O 0.1599(3) 0.4763(3) 0.1599(3)
C17_3 C 0.1626(4) 0.3332(5) 0.1626(4)
H9_3 H 0.1938 0.3467 0.1938
C18_3 C 0.1250 0.3751(5) 0.1250
C19_3 C 0.1250 0.4471(7) 0.1250
C20_3 C 0.0874(4) 0.3332(5) 0.0874(4)
H10_3 H 0.0562 0.3467 0.0562
O12_3 O 0.0901(3) 0.4763(3) 0.0901(3)
O5_3 O 0.1599(3) 0.6599(3) 0.9763(3)
C5_3 C 0.1626(4) 0.6626(4) 0.8332(5)
H3_3 H 0.1938 0.6938 0.8467
C6_3 C 0.1250 0.6250 0.8751(5)
C7_3 C 0.1250 0.6250 0.9471(7)
C8_3 C 0.0874(4) 0.5874(4) 0.8332(5)
H4_3 H 0.0562 0.5562 0.8467
O6_3 O 0.0901(3) 0.5901(3) 0.9763(3)
O13_3 O 0.9763(3) 0.5901(3) 0.0901(3)
C21_3 C 0.8332(5) 0.5874(4) 0.0874(4)
H11_3 H 0.8467 0.5562 0.0562
C22_3 C 0.8751(5) 0.6250 0.1250
C23_3 C 0.9471(7) 0.6250 0.1250
C24_3 C 0.8332(5) 0.6626(4) 0.1626(4)
H12_3 H 0.8467 0.6938 0.1938
O14_3 O 0.9763(3) 0.6599(3) 0.1599(3)
O1_4 O 0.1599(3) 0.0901(3) 0.7737(3)
C1_4 C 0.1626(4) 0.0874(4) 0.9168(5)
H1_4 H 0.1938 0.0562 0.9033
C2_4 C 0.1250 0.1250 0.8749(5)
C3_4 C 0.1250 0.1250 0.8029(7)
Zn2_4 Zn 0.18070(4) 0.06930(4) 0.68070(4)
O3_4 O 0.1250 0.1250 0.6250
C4_4 C 0.0874(4) 0.1626(4) 0.9168(5)
H2_4 H 0.0562 0.1938 0.9033
O4_4 O 0.0901(3) 0.1599(3) 0.7737(3)
Zn4_4 Zn 0.06930(4) 0.18070(4) 0.68070(4)
O5_4 O 0.1599(3) 0.1599(3) 0.4763(3)
C5_4 C 0.1626(4) 0.1626(4) 0.3332(5)
H3_4 H 0.1938 0.1938 0.3467
C6_4 C 0.1250 0.1250 0.3751(5)
C7_4 C 0.1250 0.1250 0.4471(7)
C8_4 C 0.0874(4) 0.0874(4) 0.3332(5)
H4_4 H 0.0562 0.0562 0.3467
O6_4 O 0.0901(3) 0.0901(3) 0.4763(3)
Zn5_4 Zn 0.18070(4) 0.18070(4) 0.56930(4)
Zn6_4 Zn 0.06930(4) 0.06930(4) 0.56930(4)
O7_4 O 0.2737(3) 0.1599(3) 0.5901(3)
C9_4 C 0.4168(5) 0.1626(4) 0.5874(4)
H5_4 H 0.4033 0.1938 0.5562
C10_4 C 0.3749(5) 0.1250 0.6250
C11_4 C 0.3029(7) 0.1250 0.6250
C12_4 C 0.4168(5) 0.0874(4) 0.6626(4)
H6_4 H 0.4033 0.0562 0.6938
O8_4 O 0.2737(3) 0.0901(3) 0.6599(3)
O9_4 O 0.0901(3) 0.2737(3) 0.6599(3)
C13_4 C 0.0874(4) 0.4168(5) 0.6626(4)
H7_4 H 0.0562 0.4033 0.6938
C14_4 C 0.1250 0.3749(5) 0.6250
C15_4 C 0.1250 0.3029(7) 0.6250
C16_4 C 0.1626(4) 0.4168(5) 0.5874(4)
H8_4 H 0.1938 0.4033 0.5562
O10_4 O 0.1599(3) 0.2737(3) 0.5901(3)
O11_4 O 0.1599(3) 0.9763(3) 0.6599(3)
C17_4 C 0.1626(4) 0.8332(5) 0.6626(4)
H9_4 H 0.1938 0.8467 0.6938
C18_4 C 0.1250 0.8751(5) 0.6250
C19_4 C 0.1250 0.9471(7) 0.6250
C20_4 C 0.0874(4) 0.8332(5) 0.5874(4)
H10_4 H 0.0562 0.8467 0.5562
O12_4 O 0.0901(3) 0.9763(3) 0.5901(3)
O13_4 O 0.9763(3) 0.0901(3) 0.5901(3)
C21_4 C 0.8332(5) 0.0874(4) 0.5874(4)
H11_4 H 0.8467 0.0562 0.5562
C22_4 C 0.8751(5) 0.1250 0.6250
C23_4 C 0.9471(7) 0.1250 0.6250
C24_4 C 0.8332(5) 0.1626(4) 0.6626(4)
H12_4 H 0.8467 0.1938 0.6938
O14_4 O 0.9763(3) 0.1599(3) 0.6599(3)
N16_9 N 0.3999(2) 0.3501(2) 0.02691(17)
N18_3 N 0.3999(2) 0.02691(17) 0.3501(2)
N5_3 N 0.3501(2) 0.22309(17) 0.8501(2)
O7_5 O 0.3401(3) 0.0237(3) 0.8401(3)
C9_5 C 0.3374(4) 0.1668(5) 0.8374(4)
H5_5 H 0.3062 0.1533 0.8062
C10_5 C 0.3750 0.1249(5) 0.8750
C11_5 C 0.3750 0.0529(7) 0.8750
N6_3 N 0.3999(2) 0.22309(17) 0.8999(2)
C12_5 C 0.4126(4) 0.1668(5) 0.9126(4)
H6_5 H 0.4438 0.1533 0.9438
O8_5 O 0.4099(3) 0.0237(3) 0.9099(3)
Zn8_3 Zn 0.43101(4) 0.31899(4) 0.93101(4)
Zn13_3 Zn 0.31899(4) 0.31899(4) 0.81899(4)
N19_9 N 0.52691(17) 0.3501(2) 0.8999(2)
N20_5 N 0.8501(2) 0.02691(17) 0.8999(2)
O15_3 O 0.3750 0.3750 0.8750
Zn1_2 Zn 0.43101(4) 0.93101(4) 0.31899(4)
N1_2 N 0.3999(2) 0.8999(2) 0.22309(17)
O1_5 O 0.4099(3) 0.9099(3) 0.0237(3)
O2_2 O 0.3750 0.8750 0.3750
C1_5 C 0.4126(4) 0.9126(4) 0.1668(5)
H1_5 H 0.4438 0.9438 0.1533
C2_5 C 0.3750 0.8750 0.1249(5)
C3_5 C 0.3750 0.8750 0.0529(7)
N2_2 N 0.3501(2) 0.8501(2) 0.22309(17)
C4_5 C 0.3374(4) 0.8374(4) 0.1668(5)
H2_5 H 0.3062 0.8062 0.1533
O4_5 O 0.3401(3) 0.8401(3) 0.0237(3)
Zn3_2 Zn 0.31899(4) 0.81899(4) 0.31899(4)
Zn10_2 Zn 0.31899(4) 0.93101(4) 0.43101(4)
Zn12_2 Zn 0.43101(4) 0.81899(4) 0.43101(4)
N13_5 N 0.8501(2) 0.8999(2) 0.02691(17)
N14_3 N 0.52691(17) 0.8999(2) 0.3501(2)
N15_3 N 0.22309(17) 0.8501(2) 0.3501(2)
N17_3 N 0.3501(2) 0.72309(17) 0.3501(2)
Zn2_5 Zn 0.43070(4) 0.93070(4) 0.93070(4)
O3_5 O 0.3750 0.8750 0.8750
Zn4_5 Zn 0.31930(4) 0.81930(4) 0.93070(4)
N3_2 N 0.3501(2) 0.8999(2) 0.52691(17)
O5_5 O 0.3401(3) 0.9099(3) 0.7263(3)
C5_5 C 0.3374(4) 0.9126(4) 0.5832(5)
H3_5 H 0.3062 0.9438 0.5967
C6_5 C 0.3750 0.8750 0.6251(5)
C7_5 C 0.3750 0.8750 0.6971(7)
N4_2 N 0.3999(2) 0.8501(2) 0.52691(17)
C8_5 C 0.4126(4) 0.8374(4) 0.5832(5)
H4_5 H 0.4438 0.8062 0.5967
O6_5 O 0.4099(3) 0.8401(3) 0.7263(3)
Zn5_5 Zn 0.31930(4) 0.93070(4) 0.81930(4)
Zn6_5 Zn 0.43070(4) 0.81930(4) 0.81930(4)
N7_2 N 0.02691(17) 0.8501(2) 0.8999(2)
O9_5 O 0.2263(3) 0.8401(3) 0.9099(3)
C13_5 C 0.0832(5) 0.8374(4) 0.9126(4)
H7_5 H 0.0967 0.8062 0.9438
C14_5 C 0.1251(5) 0.8750 0.8750
C15_5 C 0.1971(7) 0.8750 0.8750
N8_2 N 0.02691(17) 0.8999(2) 0.8501(2)
C16_5 C 0.0832(5) 0.9126(4) 0.8374(4)
H8_5 H 0.0967 0.9438 0.8062
O10_5 O 0.2263(3) 0.9099(3) 0.8401(3)
Zn7_2 Zn 0.81899(4) 0.93101(4) 0.93101(4)
N9_2 N 0.72309(17) 0.8999(2) 0.8999(2)
O11_5 O 0.5237(3) 0.9099(3) 0.9099(3)
C17_5 C 0.6668(5) 0.9126(4) 0.9126(4)
H9_5 H 0.6533 0.9438 0.9438
C18_5 C 0.6249(5) 0.8750 0.8750
C19_5 C 0.5529(7) 0.8750 0.8750
N10_2 N 0.72309(17) 0.8501(2) 0.8501(2)
C20_5 C 0.6668(5) 0.8374(4) 0.8374(4)
H10_5 H 0.6533 0.8062 0.8062
O12_5 O 0.5237(3) 0.8401(3) 0.8401(3)
N11_3 N 0.3999(2) 0.52691(17) 0.8501(2)
O13_5 O 0.4099(3) 0.7263(3) 0.8401(3)
C21_5 C 0.4126(4) 0.5832(5) 0.8374(4)
H11_5 H 0.4438 0.5967 0.8062
C22_5 C 0.3750 0.6251(5) 0.8750
C23_5 C 0.3750 0.6971(7) 0.8750
N12_3 N 0.3501(2) 0.52691(17) 0.8999(2)
C24_5 C 0.3374(4) 0.5832(5) 0.9126(4)
H12_5 H 0.3062 0.5967 0.9438
O14_5 O 0.3401(3) 0.7263(3) 0.9099(3)
Zn16_3 Zn 0.43101(4) 0.43101(4) 0.81899(4)
Zn17_3 Zn 0.31899(4) 0.43101(4) 0.93101(4)
Zn18_2 Zn 0.81899(4) 0.81899(4) 0.81899(4)
O16_2 O 0.8750 0.8750 0.8750
Zn14_2 Zn 0.93101(4) 0.81899(4) 0.93101(4)
Zn15_2 Zn 0.93101(4) 0.93101(4) 0.81899(4)
N15_4 N 0.02691(17) 0.3999(2) 0.3501(2)
N7_3 N 0.22309(17) 0.3999(2) 0.8999(2)
O9_6 O 0.0237(3) 0.4099(3) 0.9099(3)
C13_6 C 0.1668(5) 0.4126(4) 0.9126(4)
H7_6 H 0.1533 0.4438 0.9438
C14_6 C 0.1249(5) 0.3750 0.8750
C15_6 C 0.0529(7) 0.3750 0.8750
N8_3 N 0.22309(17) 0.3501(2) 0.8501(2)
C16_6 C 0.1668(5) 0.3374(4) 0.8374(4)
H8_6 H 0.1533 0.3062 0.8062
O10_6 O 0.0237(3) 0.3401(3) 0.8401(3)
Zn1_3 Zn 0.81899(4) 0.31899(4) 0.31899(4)
N1_3 N 0.8501(2) 0.3501(2) 0.22309(17)
O1_6 O 0.8401(3) 0.3401(3) 0.0237(3)
O2_3 O 0.8750 0.3750 0.3750
C1_6 C 0.8374(4) 0.3374(4) 0.1668(5)
H1_6 H 0.8062 0.3062 0.1533
C2_6 C 0.8750 0.3750 0.1249(5)
C3_6 C 0.8750 0.3750 0.0529(7)
N2_3 N 0.8999(2) 0.3999(2) 0.22309(17)
C4_6 C 0.9126(4) 0.4126(4) 0.1668(5)
H2_6 H 0.9438 0.4438 0.1533
O4_6 O 0.9099(3) 0.4099(3) 0.0237(3)
Zn3_3 Zn 0.93101(4) 0.43101(4) 0.31899(4)
Zn10_3 Zn 0.93101(4) 0.31899(4) 0.43101(4)
Zn12_3 Zn 0.81899(4) 0.43101(4) 0.43101(4)
N14_4 N 0.72309(17) 0.3501(2) 0.3501(2)
N17_4 N 0.8999(2) 0.52691(17) 0.3501(2)
N18_4 N 0.8501(2) 0.22309(17) 0.3501(2)
Zn2_6 Zn 0.81930(4) 0.31930(4) 0.93070(4)
O3_6 O 0.8750 0.3750 0.8750
Zn4_6 Zn 0.93070(4) 0.43070(4) 0.93070(4)
N3_3 N 0.8999(2) 0.3501(2) 0.52691(17)
O5_6 O 0.9099(3) 0.3401(3) 0.7263(3)
C5_6 C 0.9126(4) 0.3374(4) 0.5832(5)
H3_6 H 0.9438 0.3062 0.5967
C6_6 C 0.8750 0.3750 0.6251(5)
C7_6 C 0.8750 0.3750 0.6971(7)
N4_3 N 0.8501(2) 0.3999(2) 0.52691(17)
C8_6 C 0.8374(4) 0.4126(4) 0.5832(5)
H4_6 H 0.8062 0.4438 0.5967
O6_6 O 0.8401(3) 0.4099(3) 0.7263(3)
Zn5_6 Zn 0.93070(4) 0.31930(4) 0.81930(4)
Zn6_6 Zn 0.81930(4) 0.43070(4) 0.81930(4)
N5_4 N 0.8999(2) 0.02691(17) 0.8501(2)
O7_6 O 0.9099(3) 0.2263(3) 0.8401(3)
C9_6 C 0.9126(4) 0.0832(5) 0.8374(4)
H5_6 H 0.9438 0.0967 0.8062
C10_6 C 0.8750 0.1251(5) 0.8750
C11_6 C 0.8750 0.1971(7) 0.8750
C12_6 C 0.8374(4) 0.0832(5) 0.9126(4)
H6_6 H 0.8062 0.0967 0.9438
O8_6 O 0.8401(3) 0.2263(3) 0.9099(3)
O11_6 O 0.7263(3) 0.3401(3) 0.9099(3)
C17_6 C 0.5832(5) 0.3374(4) 0.9126(4)
H9_6 H 0.5967 0.3062 0.9438
C18_6 C 0.6251(5) 0.3750 0.8750
C19_6 C 0.6971(7) 0.3750 0.8750
N10_3 N 0.52691(17) 0.3999(2) 0.8501(2)
C20_6 C 0.5832(5) 0.4126(4) 0.8374(4)
H10_6 H 0.5967 0.4438 0.8062
O12_6 O 0.7263(3) 0.4099(3) 0.8401(3)
N11_4 N 0.8501(2) 0.72309(17) 0.8501(2)
O13_6 O 0.8401(3) 0.5237(3) 0.8401(3)
C21_6 C 0.8374(4) 0.6668(5) 0.8374(4)
H11_6 H 0.8062 0.6533 0.8062
C22_6 C 0.8750 0.6249(5) 0.8750
C23_6 C 0.8750 0.5529(7) 0.8750
N12_4 N 0.8999(2) 0.72309(17) 0.8999(2)
C24_6 C 0.9126(4) 0.6668(5) 0.9126(4)
H12_6 H 0.9438 0.6533 0.9438
O14_6 O 0.9099(3) 0.5237(3) 0.9099(3)
N19_10 N 0.3501(2) 0.3501(2) 0.72309(17)
N20_6 N 0.02691(17) 0.3501(2) 0.3999(2)
N13_6 N 0.8999(2) 0.22309(17) 0.3999(2)
N14_5 N 0.8999(2) 0.8999(2) 0.72309(17)
N16_10 N 0.3501(2) 0.02691(17) 0.3999(2)
O7_7 O 0.0237(3) 0.8401(3) 0.3401(3)
C9_7 C 0.1668(5) 0.8374(4) 0.3374(4)
H5_7 H 0.1533 0.8062 0.3062
C10_7 C 0.1249(5) 0.8750 0.3750
C11_7 C 0.0529(7) 0.8750 0.3750
N6_4 N 0.22309(17) 0.8999(2) 0.3999(2)
C12_7 C 0.1668(5) 0.9126(4) 0.4126(4)
H6_7 H 0.1533 0.9438 0.4438
O8_7 O 0.0237(3) 0.9099(3) 0.4099(3)
O1_7 O 0.9099(3) 0.0237(3) 0.4099(3)
C1_7 C 0.9126(4) 0.1668(5) 0.4126(4)
H1_7 H 0.9438 0.1533 0.4438
C2_7 C 0.8750 0.1249(5) 0.3750
C3_7 C 0.8750 0.0529(7) 0.3750
C4_7 C 0.8374(4) 0.1668(5) 0.3374(4)
H2_7 H 0.8062 0.1533 0.3062
O4_7 O 0.8401(3) 0.0237(3) 0.3401(3)
Zn2_7 Zn 0.93070(4) 0.93070(4) 0.43070(4)
O3_7 O 0.8750 0.8750 0.3750
Zn4_7 Zn 0.81930(4) 0.93070(4) 0.31930(4)
O5_7 O 0.9099(3) 0.7263(3) 0.3401(3)
C5_7 C 0.9126(4) 0.5832(5) 0.3374(4)
H3_7 H 0.9438 0.5967 0.3062
C6_7 C 0.8750 0.6251(5) 0.3750
C7_7 C 0.8750 0.6971(7) 0.3750
N4_4 N 0.8501(2) 0.52691(17) 0.3999(2)
C8_7 C 0.8374(4) 0.5832(5) 0.4126(4)
H4_7 H 0.8062 0.5967 0.4438
O6_7 O 0.8401(3) 0.7263(3) 0.4099(3)
Zn5_7 Zn 0.93070(4) 0.81930(4) 0.31930(4)
Zn6_7 Zn 0.81930(4) 0.81930(4) 0.43070(4)
O9_7 O 0.8401(3) 0.9099(3) 0.2263(3)
C13_7 C 0.8374(4) 0.9126(4) 0.0832(5)
H7_7 H 0.8062 0.9438 0.0967
C14_7 C 0.8750 0.8750 0.1251(5)
C15_7 C 0.8750 0.8750 0.1971(7)
N8_4 N 0.8999(2) 0.8501(2) 0.02691(17)
C16_7 C 0.9126(4) 0.8374(4) 0.0832(5)
H8_7 H 0.9438 0.8062 0.0967
O10_7 O 0.9099(3) 0.8401(3) 0.2263(3)
O11_7 O 0.9099(3) 0.9099(3) 0.5237(3)
C17_7 C 0.9126(4) 0.9126(4) 0.6668(5)
H9_7 H 0.9438 0.9438 0.6533
C18_7 C 0.8750 0.8750 0.6249(5)
C19_7 C 0.8750 0.8750 0.5529(7)
N10_4 N 0.8501(2) 0.8501(2) 0.72309(17)
C20_7 C 0.8374(4) 0.8374(4) 0.6668(5)
H10_7 H 0.8062 0.8062 0.6533
O12_7 O 0.8401(3) 0.8401(3) 0.5237(3)
N11_5 N 0.52691(17) 0.8501(2) 0.3999(2)
O13_7 O 0.7263(3) 0.8401(3) 0.4099(3)
C21_7 C 0.5832(5) 0.8374(4) 0.4126(4)
H11_7 H 0.5967 0.8062 0.4438
C22_7 C 0.6251(5) 0.8750 0.3750
C23_7 C 0.6971(7) 0.8750 0.3750
C24_7 C 0.5832(5) 0.9126(4) 0.3374(4)
H12_7 H 0.5967 0.9438 0.3062
O14_7 O 0.7263(3) 0.9099(3) 0.3401(3)
N20_7 N 0.3501(2) 0.3999(2) 0.02691(17)
O1_8 O 0.4099(3) 0.3401(3) 0.2263(3)
C1_8 C 0.4126(4) 0.3374(4) 0.0832(5)
H1_8 H 0.4438 0.3062 0.0967
C2_8 C 0.3750 0.3750 0.1251(5)
C3_8 C 0.3750 0.3750 0.1971(7)
Zn2_8 Zn 0.43070(4) 0.31930(4) 0.31930(4)
O3_8 O 0.3750 0.3750 0.3750
C4_8 C 0.3374(4) 0.4126(4) 0.0832(5)
H2_8 H 0.3062 0.4438 0.0967
O4_8 O 0.3401(3) 0.4099(3) 0.2263(3)
Zn4_8 Zn 0.31930(4) 0.43070(4) 0.31930(4)
O5_8 O 0.3401(3) 0.3401(3) 0.5237(3)
C5_8 C 0.3374(4) 0.3374(4) 0.6668(5)
H3_8 H 0.3062 0.3062 0.6533
C6_8 C 0.3750 0.3750 0.6249(5)
C7_8 C 0.3750 0.3750 0.5529(7)
N4_5 N 0.3999(2) 0.3999(2) 0.72309(17)
C8_8 C 0.4126(4) 0.4126(4) 0.6668(5)
H4_8 H 0.4438 0.4438 0.6533
O6_8 O 0.4099(3) 0.4099(3) 0.5237(3)
Zn5_8 Zn 0.31930(4) 0.31930(4) 0.43070(4)
Zn6_8 Zn 0.43070(4) 0.43070(4) 0.43070(4)
O7_8 O 0.3401(3) 0.2263(3) 0.4099(3)
C9_8 C 0.3374(4) 0.0832(5) 0.4126(4)
H5_8 H 0.3062 0.0967 0.4438
C10_8 C 0.3750 0.1251(5) 0.3750
C11_8 C 0.3750 0.1971(7) 0.3750
C12_8 C 0.4126(4) 0.0832(5) 0.3374(4)
H6_8 H 0.4438 0.0967 0.3062
O8_8 O 0.4099(3) 0.2263(3) 0.3401(3)
O9_8 O 0.2263(3) 0.4099(3) 0.3401(3)
C13_8 C 0.0832(5) 0.4126(4) 0.3374(4)
H7_8 H 0.0967 0.4438 0.3062
C14_8 C 0.1251(5) 0.3750 0.3750
C15_8 C 0.1971(7) 0.3750 0.3750
C16_8 C 0.0832(5) 0.3374(4) 0.4126(4)
H8_8 H 0.0967 0.3062 0.4438
O10_8 O 0.2263(3) 0.3401(3) 0.4099(3)
O11_8 O 0.5237(3) 0.3401(3) 0.3401(3)
C17_8 C 0.6668(5) 0.3374(4) 0.3374(4)
H9_8 H 0.6533 0.3062 0.3062
C18_8 C 0.6249(5) 0.3750 0.3750
C19_8 C 0.5529(7) 0.3750 0.3750
N10_5 N 0.72309(17) 0.3999(2) 0.3999(2)
C20_8 C 0.6668(5) 0.4126(4) 0.4126(4)
H10_8 H 0.6533 0.4438 0.4438
O12_8 O 0.5237(3) 0.4099(3) 0.4099(3)
N11_6 N 0.3999(2) 0.72309(17) 0.3999(2)
O13_8 O 0.4099(3) 0.5237(3) 0.4099(3)
C21_8 C 0.4126(4) 0.6668(5) 0.4126(4)
H11_8 H 0.4438 0.6533 0.4438
C22_8 C 0.3750 0.6249(5) 0.3750
C23_8 C 0.3750 0.5529(7) 0.3750
C24_8 C 0.3374(4) 0.6668(5) 0.3374(4)
H12_8 H 0.3062 0.6533 0.3062
O14_8 O 0.3401(3) 0.5237(3) 0.3401(3)
loop_
_geom_bond_atom_site_label_1
_geom_bond_atom_site_label_2
_geom_bond_site_symmetry_1
_geom_bond_site_symmetry_2
N16 Zn8 1_555 1_555
N19 Zn8 1_555 1_555
O15 Zn8 1_555 1_555
Zn13 O15 1_555 1_555
O2 Zn1 1_555 1_555
Zn3 O2 1_555 1_555
Zn10 O2 1_555 1_555
Zn12 O2 1_555 1_555
N14 Zn1 1_555 1_555
N15 Zn3 1_555 1_555
N17 Zn3 1_555 1_555
N18 Zn1 1_555 1_555
N1 C1 1_555 1_555
O1 C3 1_555 1_555
C1 H1 1_555 1_555
C2 C1 1_555 1_555
C3 C2 1_555 1_555
Zn2 O1 1_555 1_555
O3 Zn2 1_555 1_555
N2 N1 1_555 1_555
C4 C2 1_555 1_555
H2 C4 1_555 1_555
O4 C3 1_555 1_555
Zn4 O3 1_555 1_555
N3 C5 1_555 1_555
O5 C7 1_555 1_555
C5 H3 1_555 1_555
C6 C5 1_555 1_555
C7 C6 1_555 1_555
N4 N3 1_555 1_555
C8 C6 1_555 1_555
H4 C8 1_555 1_555
O6 C7 1_555 1_555
Zn5 O3 1_555 1_555
Zn6 O3 1_555 1_555
N5 C9 1_555 1_555
O7 Zn5 1_555 1_555
C9 H5 1_555 1_555
C10 C9 1_555 1_555
C11 O7 1_555 1_555
N6 N5 1_555 1_555
C12 C10 1_555 1_555
H6 C12 1_555 1_555
O8 Zn2 1_555 1_555
N7 C13 1_555 1_555
O9 Zn4 1_555 1_555
C13 H7 1_555 1_555
C14 C13 1_555 1_555
C15 O9 1_555 1_555
N8 N7 1_555 1_555
C16 C14 1_555 1_555
H8 C16 1_555 1_555
O10 Zn5 1_555 1_555
Zn7 N9 1_555 1_555
N9 C17 1_555 1_555
O11 Zn2 1_555 1_555
C17 H9 1_555 1_555
C18 C17 1_555 1_555
C19 O11 1_555 1_555
N10 N9 1_555 1_555
C20 C18 1_555 1_555
H10 C20 1_555 1_555
O12 Zn6 1_555 1_555
N11 C21 1_555 1_555
O13 Zn6 1_555 1_555
C21 H11 1_555 1_555
C22 C21 1_555 1_555
C23 O13 1_555 1_555
N12 N11 1_555 1_555
C24 C22 1_555 1_555
H12 C24 1_555 1_555
O14 Zn4 1_555 1_555
Zn10 N3 1_555 1_555
Zn12 N4 1_555 1_555
Zn16 N11 1_555 1_555
Zn17 N12 1_555 1_555
Zn18 N10 1_555 1_555
N13 Zn7 1_555 1_555
N20 Zn7 1_555 1_555
O16 Zn7 1_555 1_555
N2 C4 1_555 1_555
O4 Zn4 1_555 1_555
O5 Zn5 1_555 1_555
N4 C8 1_555 1_555
O6 Zn6 1_555 1_555
C10 C11 1_555 1_555
C11 O8 1_555 1_555
N6 C12 1_555 1_555
C14 C15 1_555 1_555
C15 O10 1_555 1_555
N8 C16 1_555 1_555
C18 C19 1_555 1_555
C19 O12 1_555 1_555
N10 C20 1_555 1_555
C22 C23 1_555 1_555
C23 O14 1_555 1_555
N12 C24 1_555 1_555
Zn18 O16 1_555 1_555
N13_2 Zn14 1_555 1_555
N20_2 Zn14 1_555 1_555
O16 Zn14 1_555 1_555
Zn15 O16 1_555 1_555
N16_2 Zn17 1_555 1_555
N19_2 Zn17 1_555 1_555
O15 Zn17 1_555 1_555
Zn16 O15 1_555 1_555
N16_3 Zn13 1_555 1_555
N19_3 Zn13 1_555 1_555
N13_3 Zn15 1_555 1_555
N20_3 Zn15 1_555 1_555
N14_2 Zn10 1_555 1_555
N15_2 Zn12 1_555 1_555
N17_2 Zn12 1_555 1_555
N18_2 Zn10 1_555 1_555
N13_4 Zn18 1_555 1_555
N16_4 Zn16 1_555 1_555
N19_4 Zn16 1_555 1_555
N20_4 Zn18 1_555 1_555
N16_5 Zn8_2 1_555 1_555
O15_2 Zn8_2 1_555 1_555
Zn13_2 O15_2 1_555 1_555
N13_3 C1_2 1_555 1_555
O1_2 C3_2 1_555 1_555
C1_2 H1_2 1_555 1_555
C2_2 C1_2 1_555 1_555
C3_2 C2_2 1_555 1_555
Zn2_2 O1_2 1_555 1_555
O3_2 Zn2_2 1_555 1_555
N13_4 N13_3 1_555 1_555
C4_2 C2_2 1_555 1_555
H2_2 C4_2 1_555 1_555
O4_2 C3_2 1_555 1_555
Zn4_2 O3_2 1_555 1_555
Zn5_2 O3_2 1_555 1_555
Zn6_2 O3_2 1_555 1_555
N5_2 C9_2 1_555 1_555
O7_2 Zn5_2 1_555 1_555
C9_2 H5_2 1_555 1_555
C10_2 C9_2 1_555 1_555
C11_2 O7_2 1_555 1_555
N6_2 N5_2 1_555 1_555
C12_2 C10_2 1_555 1_555
H6_2 C12_2 1_555 1_555
O8_2 Zn2_2 1_555 1_555
N15_2 C13_2 1_555 1_555
O9_2 Zn4_2 1_555 1_555
C13_2 H7_2 1_555 1_555
C14_2 C13_2 1_555 1_555
C15_2 O9_2 1_555 1_555
N14 N15_2 1_555 1_555
C16_2 C14_2 1_555 1_555
H8_2 C16_2 1_555 1_555
O10_2 Zn5_2 1_555 1_555
N11_2 C21_2 1_555 1_555
O13_2 Zn6_2 1_555 1_555
C21_2 H11_2 1_555 1_555
C22_2 C21_2 1_555 1_555
C23_2 O13_2 1_555 1_555
N12_2 N11_2 1_555 1_555
C24_2 C22_2 1_555 1_555
H12_2 C24_2 1_555 1_555
O14_2 Zn4_2 1_555 1_555
Zn16_2 N11_2 1_555 1_555
Zn17_2 N12_2 1_555 1_555
N13_4 C4_2 1_555 1_555
O4_2 Zn4_2 1_555 1_555
C10_2 C11_2 1_555 1_555
C11_2 O8_2 1_555 1_555
N6_2 C12_2 1_555 1_555
C14_2 C15_2 1_555 1_555
C15_2 O10_2 1_555 1_555
N14 C16_2 1_555 1_555
C22_2 C23_2 1_555 1_555
C23_2 O14_2 1_555 1_555
N12_2 C24_2 1_555 1_555
N13 C5_2 1_555 1_555
O5_2 C7_2 1_555 1_555
C5_2 H3_2 1_555 1_555
C6_2 C5_2 1_555 1_555
C7_2 C6_2 1_555 1_555
N13_2 N13 1_555 1_555
C8_2 C6_2 1_555 1_555
H4_2 C8_2 1_555 1_555
O6_2 C7_2 1_555 1_555
N13_2 C8_2 1_555 1_555
N14_2 C17_2 1_555 1_555
C17_2 H9_2 1_555 1_555
C18_2 C17_2 1_555 1_555
C19_2 O11_2 1_555 1_555
N15 N14_2 1_555 1_555
C20_2 C18_2 1_555 1_555
H10_2 C20_2 1_555 1_555
C18_2 C19_2 1_555 1_555
C19_2 O12_2 1_555 1_555
N15 C20_2 1_555 1_555
N16_6 Zn17_2 1_555 1_555
N19_6 Zn17_2 1_555 1_555
O15_2 Zn17_2 1_555 1_555
Zn16_2 O15_2 1_555 1_555
N19_7 Zn13_2 1_555 1_555
N16_4 C1_3 1_555 1_555
O1_3 C3_3 1_555 1_555
C1_3 H1_3 1_555 1_555
C2_3 C1_3 1_555 1_555
C3_3 C2_3 1_555 1_555
Zn2_3 O1_3 1_555 1_555
O3_3 Zn2_3 1_555 1_555
N16_3 N16_4 1_555 1_555
C4_3 C2_3 1_555 1_555
H2_3 C4_3 1_555 1_555
O4_3 C3_3 1_555 1_555
Zn4_3 O3_3 1_555 1_555
Zn5_3 O3_3 1_555 1_555
Zn6_3 O3_3 1_555 1_555
N17 C9_3 1_555 1_555
O7_3 Zn5_3 1_555 1_555
C9_3 H5_3 1_555 1_555
C10_3 C9_3 1_555 1_555
C11_3 O7_3 1_555 1_555
N17_2 N17 1_555 1_555
C12_3 C10_3 1_555 1_555
H6_3 C12_3 1_555 1_555
O8_3 Zn2_3 1_555 1_555
N19_5 C13_3 1_555 1_555
O9_3 Zn4_3 1_555 1_555
C13_3 H7_3 1_555 1_555
C14_3 C13_3 1_555 1_555
C15_3 O9_3 1_555 1_555
N19_8 N19_5 1_555 1_555
C16_3 C14_3 1_555 1_555
H8_3 C16_3 1_555 1_555
O10_3 Zn5_3 1_555 1_555
N19_6 C17_3 1_555 1_555
O11_3 Zn2_3 1_555 1_555
C17_3 H9_3 1_555 1_555
C18_3 C17_3 1_555 1_555
C19_3 O11_3 1_555 1_555
N19_7 N19_6 1_555 1_555
C20_3 C18_3 1_555 1_555
H10_3 C20_3 1_555 1_555
O12_3 Zn6_3 1_555 1_555
N16_3 C4_3 1_555 1_555
O4_3 Zn4_3 1_555 1_555
C10_3 C11_3 1_555 1_555
C11_3 O8_3 1_555 1_555
N17_2 C12_3 1_555 1_555
C14_3 C15_3 1_555 1_555
C15_3 O10_3 1_555 1_555
N19_8 C16_3 1_555 1_555
C18_3 C19_3 1_555 1_555
C19_3 O12_3 1_555 1_555
N19_7 C20_3 1_555 1_555
N16_2 C5_3 1_555 1_555
O5_3 C7_3 1_555 1_555
C5_3 H3_3 1_555 1_555
C6_3 C5_3 1_555 1_555
C7_3 C6_3 1_555 1_555
N16 N16_2 1_555 1_555
C8_3 C6_3 1_555 1_555
H4_3 C8_3 1_555 1_555
O6_3 C7_3 1_555 1_555
N16 C8_3 1_555 1_555
N18 C21_3 1_555 1_555
C21_3 H11_3 1_555 1_555
C22_3 C21_3 1_555 1_555
C23_3 O13_3 1_555 1_555
N18_2 N18 1_555 1_555
C24_3 C22_3 1_555 1_555
H12_3 C24_3 1_555 1_555
C22_3 C23_3 1_555 1_555
C23_3 O14_3 1_555 1_555
N18_2 C24_3 1_555 1_555
N16_8 C1_4 1_555 1_555
O1_4 C3_4 1_555 1_555
C1_4 H1_4 1_555 1_555
C2_4 C1_4 1_555 1_555
C3_4 C2_4 1_555 1_555
Zn2_4 O1_4 1_555 1_555
O3_4 Zn2_4 1_555 1_555
N16_7 N16_8 1_555 1_555
C4_4 C2_4 1_555 1_555
H2_4 C4_4 1_555 1_555
O4_4 C3_4 1_555 1_555
Zn4_4 O3_4 1_555 1_555
N16_6 C5_4 1_555 1_555
O5_4 C7_4 1_555 1_555
C5_4 H3_4 1_555 1_555
C6_4 C5_4 1_555 1_555
C7_4 C6_4 1_555 1_555
N16_5 N16_6 1_555 1_555
C8_4 C6_4 1_555 1_555
H4_4 C8_4 1_555 1_555
O6_4 C7_4 1_555 1_555
Zn5_4 O3_4 1_555 1_555
Zn6_4 O3_4 1_555 1_555
N20_4 C9_4 1_555 1_555
O7_4 Zn5_4 1_555 1_555
C9_4 H5_4 1_555 1_555
C10_4 C9_4 1_555 1_555
C11_4 O7_4 1_555 1_555
N20_2 N20_4 1_555 1_555
C12_4 C10_4 1_555 1_555
H6_4 C12_4 1_555 1_555
O8_4 Zn2_4 1_555 1_555
N19 C13_4 1_555 1_555
O9_4 Zn4_4 1_555 1_555
C13_4 H7_4 1_555 1_555
C14_4 C13_4 1_555 1_555
C15_4 O9_4 1_555 1_555
N19_4 N19 1_555 1_555
C16_4 C14_4 1_555 1_555
H8_4 C16_4 1_555 1_555
O10_4 Zn5_4 1_555 1_555
N16_7 C4_4 1_555 1_555
O4_4 Zn4_4 1_555 1_555
O5_4 Zn5_4 1_555 1_555
N16_5 C8_4 1_555 1_555
O6_4 Zn6_4 1_555 1_555
C10_4 C11_4 1_555 1_555
C11_4 O8_4 1_555 1_555
N20_2 C12_4 1_555 1_555
C14_4 C15_4 1_555 1_555
C15_4 O10_4 1_555 1_555
N19_4 C16_4 1_555 1_555
N19_2 C17_4 1_555 1_555
C17_4 H9_4 1_555 1_555
C18_4 C17_4 1_555 1_555
C19_4 O11_4 1_555 1_555
N19_3 N19_2 1_555 1_555
C20_4 C18_4 1_555 1_555
H10_4 C20_4 1_555 1_555
C18_4 C19_4 1_555 1_555
C19_4 O12_4 1_555 1_555
N19_3 C20_4 1_555 1_555
N20_3 C21_4 1_555 1_555
C21_4 H11_4 1_555 1_555
C22_4 C21_4 1_555 1_555
C23_4 O13_4 1_555 1_555
N20 N20_3 1_555 1_555
C24_4 C22_4 1_555 1_555
H12_4 C24_4 1_555 1_555
C22_4 C23_4 1_555 1_555
C23_4 O14_4 1_555 1_555
N20 C24_4 1_555 1_555
N5_3 C9_5 1_555 1_555
C9_5 H5_5 1_555 1_555
C10_5 C9_5 1_555 1_555
C11_5 O7_5 1_555 1_555
N6_3 N5_3 1_555 1_555
C12_5 C10_5 1_555 1_555
H6_5 C12_5 1_555 1_555
Zn8_3 N6_3 1_555 1_555
Zn13_3 N5_3 1_555 1_555
N19_9 Zn8_3 1_555 1_555
O15_3 Zn8_3 1_555 1_555
C10_5 C11_5 1_555 1_555
C11_5 O8_5 1_555 1_555
N6_3 C12_5 1_555 1_555
Zn13_3 O15_3 1_555 1_555
Zn1_2 N1_2 1_555 1_555
N1_2 C1_5 1_555 1_555
O1_5 C3_5 1_555 1_555
O2_2 Zn1_2 1_555 1_555
C1_5 H1_5 1_555 1_555
C2_5 C1_5 1_555 1_555
C3_5 C2_5 1_555 1_555
N2_2 N1_2 1_555 1_555
C4_5 C2_5 1_555 1_555
H2_5 C4_5 1_555 1_555
O4_5 C3_5 1_555 1_555
Zn3_2 O2_2 1_555 1_555
Zn10_2 O2_2 1_555 1_555
Zn12_2 O2_2 1_555 1_555
N14_3 Zn1_2 1_555 1_555
N15_3 Zn3_2 1_555 1_555
N17_3 Zn3_2 1_555 1_555
N2_2 C4_5 1_555 1_555
N2_2 Zn3_2 1_555 1_555
O3_5 Zn2_5 1_555 1_555
Zn4_5 O3_5 1_555 1_555
N3_2 C5_5 1_555 1_555
O5_5 C7_5 1_555 1_555
C5_5 H3_5 1_555 1_555
C6_5 C5_5 1_555 1_555
C7_5 C6_5 1_555 1_555
N4_2 N3_2 1_555 1_555
C8_5 C6_5 1_555 1_555
H4_5 C8_5 1_555 1_555
O6_5 C7_5 1_555 1_555
Zn5_5 O3_5 1_555 1_555
Zn6_5 O3_5 1_555 1_555
N7_2 C13_5 1_555 1_555
O9_5 Zn4_5 1_555 1_555
C13_5 H7_5 1_555 1_555
C14_5 C13_5 1_555 1_555
C15_5 O9_5 1_555 1_555
N8_2 N7_2 1_555 1_555
C16_5 C14_5 1_555 1_555
H8_5 C16_5 1_555 1_555
O10_5 Zn5_5 1_555 1_555
Zn7_2 N9_2 1_555 1_555
N9_2 C17_5 1_555 1_555
O11_5 Zn2_5 1_555 1_555
C17_5 H9_5 1_555 1_555
C18_5 C17_5 1_555 1_555
C19_5 O11_5 1_555 1_555
N10_2 N9_2 1_555 1_555
C20_5 C18_5 1_555 1_555
H10_5 C20_5 1_555 1_555
O12_5 Zn6_5 1_555 1_555
N11_3 C21_5 1_555 1_555
O13_5 Zn6_5 1_555 1_555
C21_5 H11_5 1_555 1_555
C22_5 C21_5 1_555 1_555
C23_5 O13_5 1_555 1_555
N12_3 N11_3 1_555 1_555
C24_5 C22_5 1_555 1_555
H12_5 C24_5 1_555 1_555
O14_5 Zn4_5 1_555 1_555
Zn10_2 N3_2 1_555 1_555
Zn12_2 N4_2 1_555 1_555
Zn16_3 N11_3 1_555 1_555
Zn17_3 N12_3 1_555 1_555
Zn18_2 N10_2 1_555 1_555
O16_2 Zn7_2 1_555 1_555
O5_5 Zn5_5 1_555 1_555
N4_2 C8_5 1_555 1_555
O6_5 Zn6_5 1_555 1_555
C14_5 C15_5 1_555 1_555
C15_5 O10_5 1_555 1_555
N8_2 C16_5 1_555 1_555
C18_5 C19_5 1_555 1_555
C19_5 O12_5 1_555 1_555
N10_2 C20_5 1_555 1_555
C22_5 C23_5 1_555 1_555
C23_5 O14_5 1_555 1_555
N12_3 C24_5 1_555 1_555
Zn18_2 O16_2 1_555 1_555
N7_3 C13_6 1_555 1_555
C13_6 H7_6 1_555 1_555
C14_6 C13_6 1_555 1_555
C15_6 O9_6 1_555 1_555
N8_3 N7_3 1_555 1_555
C16_6 C14_6 1_555 1_555
H8_6 C16_6 1_555 1_555
Zn17_3 N7_3 1_555 1_555
Zn13_3 N8_3 1_555 1_555
C14_6 C15_6 1_555 1_555
C15_6 O10_6 1_555 1_555
N8_3 C16_6 1_555 1_555
Zn1_3 N1_3 1_555 1_555
N1_3 C1_6 1_555 1_555
O1_6 C3_6 1_555 1_555
O2_3 Zn1_3 1_555 1_555
C1_6 H1_6 1_555 1_555
C2_6 C1_6 1_555 1_555
C3_6 C2_6 1_555 1_555
N2_3 N1_3 1_555 1_555
C4_6 C2_6 1_555 1_555
H2_6 C4_6 1_555 1_555
O4_6 C3_6 1_555 1_555
Zn3_3 O2_3 1_555 1_555
Zn10_3 O2_3 1_555 1_555
Zn12_3 O2_3 1_555 1_555
N14_4 Zn1_3 1_555 1_555
N17_4 Zn3_3 1_555 1_555
N18_4 Zn1_3 1_555 1_555
N2_3 C4_6 1_555 1_555
N2_3 Zn3_3 1_555 1_555
O3_6 Zn2_6 1_555 1_555
Zn4_6 O3_6 1_555 1_555
N3_3 C5_6 1_555 1_555
O5_6 C7_6 1_555 1_555
C5_6 H3_6 1_555 1_555
C6_6 C5_6 1_555 1_555
C7_6 C6_6 1_555 1_555
N4_3 N3_3 1_555 1_555
C8_6 C6_6 1_555 1_555
H4_6 C8_6 1_555 1_555
O6_6 C7_6 1_555 1_555
Zn5_6 O3_6 1_555 1_555
Zn6_6 O3_6 1_555 1_555
N5_4 C9_6 1_555 1_555
O7_6 Zn5_6 1_555 1_555
C9_6 H5_6 1_555 1_555
C10_6 C9_6 1_555 1_555
C11_6 O7_6 1_555 1_555
N20_5 N5_4 1_555 1_555
C12_6 C10_6 1_555 1_555
H6_6 C12_6 1_555 1_555
O8_6 Zn2_6 1_555 1_555
N19_9 C17_6 1_555 1_555
O11_6 Zn2_6 1_555 1_555
C17_6 H9_6 1_555 1_555
C18_6 C17_6 1_555 1_555
C19_6 O11_6 1_555 1_555
N10_3 N19_9 1_555 1_555
C20_6 C18_6 1_555 1_555
H10_6 C20_6 1_555 1_555
O12_6 Zn6_6 1_555 1_555
N11_4 C21_6 1_555 1_555
O13_6 Zn6_6 1_555 1_555
C21_6 H11_6 1_555 1_555
C22_6 C21_6 1_555 1_555
C23_6 O13_6 1_555 1_555
N12_4 N11_4 1_555 1_555
C24_6 C22_6 1_555 1_555
H12_6 C24_6 1_555 1_555
O14_6 Zn4_6 1_555 1_555
Zn10_3 N3_3 1_555 1_555
Zn12_3 N4_3 1_555 1_555
Zn18_2 N11_4 1_555 1_555
Zn14_2 N12_4 1_555 1_555
Zn16_3 N10_3 1_555 1_555
O5_6 Zn5_6 1_555 1_555
N4_3 C8_6 1_555 1_555
O6_6 Zn6_6 1_555 1_555
C10_6 C11_6 1_555 1_555
C11_6 O8_6 1_555 1_555
N20_5 C12_6 1_555 1_555
C18_6 C19_6 1_555 1_555
C19_6 O12_6 1_555 1_555
N10_3 C20_6 1_555 1_555
C22_6 C23_6 1_555 1_555
C23_6 O14_6 1_555 1_555
N12_4 C24_6 1_555 1_555
Zn16_3 O15_3 1_555 1_555
Zn15_2 O16_2 1_555 1_555
N19_10 Zn13_3 1_555 1_555
Zn17_3 O15_3 1_555 1_555
N13_6 Zn10_3 1_555 1_555
Zn14_2 O16_2 1_555 1_555
N14_5 Zn15_2 1_555 1_555
N15_3 C9_7 1_555 1_555
C9_7 H5_7 1_555 1_555
C10_7 C9_7 1_555 1_555
C11_7 O7_7 1_555 1_555
N6_4 N15_3 1_555 1_555
C12_7 C10_7 1_555 1_555
H6_7 C12_7 1_555 1_555
Zn10_2 N6_4 1_555 1_555
C10_7 C11_7 1_555 1_555
C11_7 O8_7 1_555 1_555
N6_4 C12_7 1_555 1_555
N13_6 C1_7 1_555 1_555
O1_7 C3_7 1_555 1_555
C1_7 H1_7 1_555 1_555
C2_7 C1_7 1_555 1_555
C3_7 C2_7 1_555 1_555
N18_4 N13_6 1_555 1_555
C4_7 C2_7 1_555 1_555
H2_7 C4_7 1_555 1_555
O4_7 C3_7 1_555 1_555
N18_4 C4_7 1_555 1_555
O3_7 Zn2_7 1_555 1_555
Zn4_7 O3_7 1_555 1_555
N17_4 C5_7 1_555 1_555
O5_7 C7_7 1_555 1_555
C5_7 H3_7 1_555 1_555
C6_7 C5_7 1_555 1_555
C7_7 C6_7 1_555 1_555
N4_4 N17_4 1_555 1_555
C8_7 C6_7 1_555 1_555
H4_7 C8_7 1_555 1_555
O6_7 C7_7 1_555 1_555
Zn5_7 O3_7 1_555 1_555
Zn6_7 O3_7 1_555 1_555
N13_5 C13_7 1_555 1_555
O9_7 Zn4_7 1_555 1_555
C13_7 H7_7 1_555 1_555
C14_7 C13_7 1_555 1_555
C15_7 O9_7 1_555 1_555
N8_4 N13_5 1_555 1_555
C16_7 C14_7 1_555 1_555
H8_7 C16_7 1_555 1_555
O10_7 Zn5_7 1_555 1_555
N14_5 C17_7 1_555 1_555
O11_7 Zn2_7 1_555 1_555
C17_7 H9_7 1_555 1_555
C18_7 C17_7 1_555 1_555
C19_7 O11_7 1_555 1_555
N10_4 N14_5 1_555 1_555
C20_7 C18_7 1_555 1_555
H10_7 C20_7 1_555 1_555
O12_7 Zn6_7 1_555 1_555
N11_5 C21_7 1_555 1_555
O13_7 Zn6_7 1_555 1_555
C21_7 H11_7 1_555 1_555
C22_7 C21_7 1_555 1_555
C23_7 O13_7 1_555 1_555
N14_3 N11_5 1_555 1_555
C24_7 C22_7 1_555 1_555
H12_7 C24_7 1_555 1_555
O14_7 Zn4_7 1_555 1_555
Zn12_3 N4_4 1_555 1_555
Zn12_2 N11_5 1_555 1_555
Zn18_2 N10_4 1_555 1_555
O5_7 Zn5_7 1_555 1_555
N4_4 C8_7 1_555 1_555
O6_7 Zn6_7 1_555 1_555
C14_7 C15_7 1_555 1_555
C15_7 O10_7 1_555 1_555
N8_4 C16_7 1_555 1_555
C18_7 C19_7 1_555 1_555
C19_7 O12_7 1_555 1_555
N10_4 C20_7 1_555 1_555
C22_7 C23_7 1_555 1_555
C23_7 O14_7 1_555 1_555
N14_3 C24_7 1_555 1_555
N16_9 C1_8 1_555 1_555
O1_8 C3_8 1_555 1_555
C1_8 H1_8 1_555 1_555
C2_8 C1_8 1_555 1_555
C3_8 C2_8 1_555 1_555
Zn2_8 O1_8 1_555 1_555
O3_8 Zn2_8 1_555 1_555
N20_7 N16_9 1_555 1_555
C4_8 C2_8 1_555 1_555
H2_8 C4_8 1_555 1_555
O4_8 C3_8 1_555 1_555
Zn4_8 O3_8 1_555 1_555
N19_10 C5_8 1_555 1_555
O5_8 C7_8 1_555 1_555
C5_8 H3_8 1_555 1_555
C6_8 C5_8 1_555 1_555
C7_8 C6_8 1_555 1_555
N4_5 N19_10 1_555 1_555
C8_8 C6_8 1_555 1_555
H4_8 C8_8 1_555 1_555
O6_8 C7_8 1_555 1_555
Zn5_8 O3_8 1_555 1_555
Zn6_8 O3_8 1_555 1_555
N16_10 C9_8 1_555 1_555
O7_8 Zn5_8 1_555 1_555
C9_8 H5_8 1_555 1_555
C10_8 C9_8 1_555 1_555
C11_8 O7_8 1_555 1_555
N18_3 N16_10 1_555 1_555
C12_8 C10_8 1_555 1_555
H6_8 C12_8 1_555 1_555
O8_8 Zn2_8 1_555 1_555
N15_4 C13_8 1_555 1_555
O9_8 Zn4_8 1_555 1_555
C13_8 H7_8 1_555 1_555
C14_8 C13_8 1_555 1_555
C15_8 O9_8 1_555 1_555
N20_6 N15_4 1_555 1_555
C16_8 C14_8 1_555 1_555
H8_8 C16_8 1_555 1_555
O10_8 Zn5_8 1_555 1_555
N14_4 C17_8 1_555 1_555
O11_8 Zn2_8 1_555 1_555
C17_8 H9_8 1_555 1_555
C18_8 C17_8 1_555 1_555
C19_8 O11_8 1_555 1_555
N10_5 N14_4 1_555 1_555
C20_8 C18_8 1_555 1_555
H10_8 C20_8 1_555 1_555
O12_8 Zn6_8 1_555 1_555
N11_6 C21_8 1_555 1_555
O13_8 Zn6_8 1_555 1_555
C21_8 H11_8 1_555 1_555
C22_8 C21_8 1_555 1_555
C23_8 O13_8 1_555 1_555
N17_3 N11_6 1_555 1_555
C24_8 C22_8 1_555 1_555
H12_8 C24_8 1_555 1_555
O14_8 Zn4_8 1_555 1_555
Zn16_3 N4_5 1_555 1_555
Zn12_2 N11_6 1_555 1_555
Zn12_3 N10_5 1_555 1_555
N20_7 C4_8 1_555 1_555
O4_8 Zn4_8 1_555 1_555
O5_8 Zn5_8 1_555 1_555
N4_5 C8_8 1_555 1_555
O6_8 Zn6_8 1_555 1_555
C10_8 C11_8 1_555 1_555
C11_8 O8_8 1_555 1_555
N18_3 C12_8 1_555 1_555
C14_8 C15_8 1_555 1_555
C15_8 O10_8 1_555 1_555
N20_6 C16_8 1_555 1_555
C18_8 C19_8 1_555 1_555
C19_8 O12_8 1_555 1_555
N10_5 C20_8 1_555 1_555
C22_8 C23_8 1_555 1_555
C23_8 O14_8 1_555 1_555
N17_3 C24_8 1_555 1_555

#END
