
###############################################################################
#
# This file contains modified crystal structure data generated from the
# MOF subset of the Cambridge Structural Database (CSD) v543 
# hosted by the Cambridge Crystallographic Data Centre (CCDC).
#
# This work is licensed under the Creative Commons
# Attribution-NonCommercial-ShareAlike 4.0 International License.
# To view a copy of this license, visit
# http://creativecommons.org/licenses/by-nc-sa/4.0/
# or send a letter to
# Creative Commons, PO Box 1866, Mountain View, CA 94042, USA.
#
# CIF created using the CSD Python API on 29 September 2022
# The structure has been converted into the P1 space group
# The structure has a 3D framework
# The original CSD entry YENZEZ is in the monoclinic crystal system
# The framework has been calculated to contain at least 10.0% void space
# The void calculation uses a probe of radius 1.32A, grid spacing 0.4
#
###############################################################################

data_YENZEZ
_chemical_formula_moiety         '(C64 H36 O34 Tb4)n'
_symmetry_cell_setting           triclinic
_symmetry_space_group_name_H-M   'P 1'
_symmetry_Int_Tables_number      1
_space_group_name_Hall           'P 1'
loop_
_symmetry_equiv_pos_site_id
_symmetry_equiv_pos_as_xyz
1 x,y,z
_cell_length_a                   9.8243(2)
_cell_length_b                   12.7350(3)
_cell_length_c                   13.9772(3)
_cell_angle_alpha                90
_cell_angle_beta                 93.8140(19)
_cell_angle_gamma                90
_cell_volume                     1744.85
loop_
_atom_site_label
_atom_site_type_symbol
_atom_site_fract_x
_atom_site_fract_y
_atom_site_fract_z
Tb1 Tb 0.22802(3) 0.00314(2) 0.41649(2)
O2 O 0.2105(3) 0.1192(3) 0.2714(2)
O3 O 0.1072(3) 0.3882(3) 0.0159(2)
O10 O 0.2403(4) 0.0363(3) 0.5863(3)
H2 H 0.3150 0.0073 0.6139
H3 H 0.2248 0.0889 0.6121
C1 C 0.1106(5) 0.0651(4) 0.2375(3)
C2 C 0.0260(5) 0.1035(4) 0.1514(3)
C3 C 0.0495(5) 0.2021(4) 0.1136(3)
H4 H 0.1193 0.2458 0.1421
Tb4 Tb 0.27198(3) 0.50314(2) 0.08351(2)
O12 O 0.4095(3) 0.1214(3) 0.4298(2)
O14 O 0.0707(4) 0.1269(3) 0.4441(3)
O1 O 0.0778(3) 0.9798(3) 0.2774(2)
O11 O 0.3928(3) 0.8882(3) 0.4841(2)
O13 O 0.0982(4) 0.8643(3) 0.4578(3)
O15 O 0.3672(3) 0.9310(3) 0.2860(2)
O9 O 0.5335(4) 0.0514(3) 0.2848(3)
H1 H 0.4912 0.0768 0.3394
C4 C 0.9701(5) 0.2365(4) 0.0338(3)
C6 C 0.8477(5) 0.0741(4) 0.0285(3)
C7 C 0.9247(5) 0.0387(4) 0.1084(3)
H9 H 0.6372 0.0569 0.1356
O4 O 0.9095(3) 0.3786(3) 0.9298(2)
O5 O 0.7528(3) 0.0097(3) 0.9788(2)
C5 C 0.8684(5) 0.1727(4) 0.9906(3)
H5 H 0.8143 0.1965 0.9360
C8 C 0.9979(5) 0.3421(4) 0.9910(3)
Tb6 Tb 0.72802(3) 0.49686(2) 0.91649(2)
O7 O 0.4293(4) 0.6269(3) 0.0559(3)
H6 H 0.9088 0.9709 0.1338
C9 C 0.6704(5) 0.9489(4) 0.0327(3)
C10 C 0.6403(5) 0.8472(4) 0.0011(3)
C11 C 0.5520(5) 0.7856(4) 0.0505(3)
C12 C 0.4932(5) 0.8243(4) 0.1308(3)
H8 H 0.4316 0.7823 0.1639
C13 C 0.5257(5) 0.9261(4) 0.1625(3)
C14 C 0.6148(5) 0.9880(4) 0.1135(3)
C15 C 0.5248(5) 0.6743(4) 0.0186(3)
C16 C 0.4654(5) 0.9687(4) 0.2494(3)
O6 O 0.5982(4) 0.6357(3) 0.9578(3)
H7 H 0.6801 0.8202 0.9461
O8 O 0.1328(3) 0.4310(3) 0.2140(2)
H1_2 H 0.0088 0.5768 0.1606
C12_2 C 0.0068(5) 0.3243(4) 0.3692(3)
H8_2 H 0.0684 0.2823 0.3361
C16_2 C 0.0346(5) 0.4687(4) 0.2506(3)
O1_2 O 0.4222(3) 0.4798(3) 0.2226(2)
O2_2 O 0.2895(3) 0.6192(3) 0.2286(2)
O4_2 O 0.5905(3) 0.8786(3) 0.5702(2)
O5_2 O 0.7472(3) 0.5097(3) 0.5212(2)
O6_2 O 0.9018(4) 0.1357(3) 0.5422(3)
O9_2 O 0.9665(4) 0.5514(3) 0.2152(3)
C1_2 C 0.3894(5) 0.5651(4) 0.2625(3)
C2_2 C 0.4740(5) 0.6035(4) 0.3486(3)
C3_2 C 0.4505(5) 0.7021(4) 0.3864(3)
H4_2 H 0.3807 0.7458 0.3579
C4_2 C 0.5299(5) 0.7365(4) 0.4662(3)
C5_2 C 0.6316(5) 0.6727(4) 0.5094(3)
H5_2 H 0.6857 0.6965 0.5640
C6_2 C 0.6523(5) 0.5741(4) 0.4715(3)
C7_2 C 0.5753(5) 0.5387(4) 0.3916(3)
H6_2 H 0.5912 0.4709 0.3662
C8_2 C 0.5021(5) 0.8421(4) 0.5090(3)
C9_2 C 0.8296(5) 0.4489(4) 0.4673(3)
C10_2 C 0.8597(5) 0.3472(4) 0.4989(3)
H7_2 H 0.8199 0.3202 0.5539
C11_2 C 0.9480(5) 0.2856(4) 0.4495(3)
C13_2 C 0.9743(5) 0.4261(4) 0.3375(3)
C14_2 C 0.8852(5) 0.4880(4) 0.3865(3)
H9_2 H 0.8628 0.5569 0.3644
C15_2 C 0.9752(5) 0.1743(4) 0.4814(3)
Tb6_2 Tb 0.77198(3) 0.99686(2) 0.58351(2)
O12_2 O 0.0905(3) 0.6214(3) 0.0702(2)
O13_2 O 0.4018(4) 0.3643(3) 0.0422(3)
H7_3 H 0.3199 0.1798 0.0539
O7_2 O 0.5707(4) 0.3731(3) 0.9441(3)
O8_2 O 0.6328(3) 0.0690(3) 0.7140(2)
H6_3 H 0.0912 0.0291 0.8662
C9_3 C 0.3296(5) 0.0511(4) 0.9673(3)
C10_3 C 0.3597(5) 0.1528(4) 0.9989(3)
C11_3 C 0.4480(5) 0.2144(4) 0.9495(3)
C12_3 C 0.5068(5) 0.1757(4) 0.8692(3)
H8_3 H 0.5684 0.2177 0.8361
C13_3 C 0.4743(5) 0.0739(4) 0.8375(3)
C14_3 C 0.3852(5) 0.0120(4) 0.8865(3)
C15_3 C 0.4752(5) 0.3257(4) 0.9814(3)
C16_3 C 0.5346(5) 0.0313(4) 0.7506(3)
O5_3 O 0.2472(3) 0.9903(3) 0.0212(2)
C5_3 C 0.1316(5) 0.8273(4) 0.0094(3)
H5_3 H 0.1857 0.8035 0.0640
C8_3 C 0.0021(5) 0.6579(4) 0.0090(3)
O9_3 O 0.4665(4) 0.9486(3) 0.7152(3)
H1_3 H 0.5088 0.9232 0.6606
C4_3 C 0.0299(5) 0.7635(4) 0.9662(3)
C6_3 C 0.1523(5) 0.9259(4) 0.9715(3)
C7_3 C 0.0753(5) 0.9613(4) 0.8916(3)
H9_3 H 0.3628 0.9431 0.8644
O1_3 O 0.9222(3) 0.0202(3) 0.7226(2)
O11_2 O 0.6072(3) 0.1118(3) 0.5159(2)
O2_3 O 0.7895(3) 0.8808(3) 0.7286(2)
O3_2 O 0.8928(3) 0.6118(3) 0.9841(2)
O10_2 O 0.7597(4) 0.9637(3) 0.4137(3)
H2_2 H 0.6850 0.9927 0.3861
H3_2 H 0.7752 0.9111 0.3879
C1_3 C 0.8894(5) 0.9349(4) 0.7625(3)
C2_3 C 0.9740(5) 0.8965(4) 0.8486(3)
C3_3 C 0.9505(5) 0.7979(4) 0.8864(3)
H4_3 H 0.8807 0.7542 0.8579
O14_2 O 0.9293(4) 0.8731(3) 0.5559(3)
O1_4 O 0.5778(3) 0.5202(3) 0.7774(2)
O2_4 O 0.7105(3) 0.3808(3) 0.7714(2)
O5_4 O 0.2528(3) 0.4903(3) 0.4788(2)
O9_4 O 0.0335(4) 0.4486(3) 0.7848(3)
C1_4 C 0.6106(5) 0.4349(4) 0.7375(3)
C2_4 C 0.5260(5) 0.3965(4) 0.6514(3)
C3_4 C 0.5495(5) 0.2979(4) 0.6136(3)
H4_4 H 0.6193 0.2542 0.6421
C4_4 C 0.4701(5) 0.2635(4) 0.5338(3)
C5_4 C 0.3684(5) 0.3273(4) 0.4906(3)
H5_4 H 0.3143 0.3035 0.4360
C6_4 C 0.3477(5) 0.4259(4) 0.5285(3)
C7_4 C 0.4247(5) 0.4613(4) 0.6084(3)
H6_4 H 0.4088 0.5291 0.6338
C8_4 C 0.4979(5) 0.1579(4) 0.4910(3)
C9_4 C 0.1704(5) 0.5511(4) 0.5327(3)
C10_4 C 0.1403(5) 0.6528(4) 0.5011(3)
H7_4 H 0.1801 0.6798 0.4461
C11_4 C 0.0520(5) 0.7144(4) 0.5505(3)
C13_4 C 0.0257(5) 0.5739(4) 0.6625(3)
C14_4 C 0.1148(5) 0.5120(4) 0.6135(3)
H9_4 H 0.1372 0.4431 0.6356
C15_4 C 0.0248(5) 0.8257(4) 0.5186(3)
O15_2 O 0.8672(3) 0.5690(3) 0.7860(2)
H1_4 H 0.9912 0.4232 0.8394
C12_4 C 0.9932(5) 0.6757(4) 0.6308(3)
H8_4 H 0.9316 0.7177 0.6639
C16_4 C 0.9654(5) 0.5313(4) 0.7494(3)
O10_3 O 0.2597(4) 0.5363(3) 0.9137(3)
H2_3 H 0.1850 0.5073 0.8861
H3_3 H 0.2752 0.5889 0.8879
O10_4 O 0.7403(4) 0.4637(3) 0.0863(3)
H2_4 H 0.8150 0.4927 0.1139
H3_4 H 0.7248 0.4111 0.1121
loop_
_geom_bond_atom_site_label_1
_geom_bond_atom_site_label_2
_geom_bond_site_symmetry_1
_geom_bond_site_symmetry_2
O2 Tb1 1_555 1_555
O10 Tb1 1_555 1_555
H2 O10 1_555 1_555
H3 O10 1_555 1_555
C1 O2 1_555 1_555
C2 C1 1_555 1_555
C3 C2 1_555 1_555
H4 C3 1_555 1_555
Tb4 O3 1_555 1_555
O12 Tb1 1_555 1_555
O14 Tb1 1_555 1_555
O9 H1 1_555 1_555
C6 C7 1_555 1_555
O4 C8 1_555 1_555
H5 C5 1_555 1_555
Tb6 O4 1_555 1_555
O7 C15 1_555 1_555
O15 C16 1_555 1_555
C10 C9 1_555 1_555
C11 C10 1_555 1_555
C12 C11 1_555 1_555
H8 C12 1_555 1_555
C13 C12 1_555 1_555
C14 C9 1_555 1_555
C15 C11 1_555 1_555
Tb4 O7 1_555 1_555
C13 C14 1_555 1_555
C13 C16 1_555 1_555
Tb6 O6 1_555 1_555
O8 C16_2 1_555 1_555
H8_2 C12_2 1_555 1_555
Tb4 O8 1_555 1_555
Tb4 O1_2 1_555 1_555
O1_2 C1_2 1_555 1_555
O2_2 Tb4 1_555 1_555
O11 C8_2 1_555 1_555
O4_2 C8_2 1_555 1_555
O5_2 C6_2 1_555 1_555
O6_2 C15_2 1_555 1_555
C1_2 O2_2 1_555 1_555
C2_2 C1_2 1_555 1_555
C3_2 C2_2 1_555 1_555
H4_2 C3_2 1_555 1_555
C4_2 C3_2 1_555 1_555
C5_2 C4_2 1_555 1_555
H5_2 C5_2 1_555 1_555
C6_2 C5_2 1_555 1_555
C7_2 C2_2 1_555 1_555
H6_2 C7_2 1_555 1_555
C8_2 C4_2 1_555 1_555
C9_2 O5_2 1_555 1_555
C10_2 C9_2 1_555 1_555
H7_2 C10_2 1_555 1_555
C11_2 C10_2 1_555 1_555
C14_2 C9_2 1_555 1_555
H9_2 C14_2 1_555 1_555
C15_2 C11_2 1_555 1_555
Tb6_2 O4_2 1_555 1_555
O12_2 Tb4 1_555 1_555
O13_2 Tb4 1_555 1_555
C6_2 C7_2 1_555 1_555
C13_2 C14_2 1_555 1_555
O7_2 C15_3 1_555 1_555
O8_2 C16_3 1_555 1_555
C10_3 C9_3 1_555 1_555
C11_3 C10_3 1_555 1_555
C12_3 C11_3 1_555 1_555
H8_3 C12_3 1_555 1_555
C13_3 C12_3 1_555 1_555
C14_3 C9_3 1_555 1_555
C15_3 C11_3 1_555 1_555
Tb6 O7_2 1_555 1_555
C13_3 C14_3 1_555 1_555
C13_3 C16_3 1_555 1_555
O12_2 C8_3 1_555 1_555
H5_3 C5_3 1_555 1_555
O9_3 H1_3 1_555 1_555
C6_3 C7_3 1_555 1_555
O2_3 Tb6_2 1_555 1_555
O10_2 Tb6_2 1_555 1_555
H2_2 O10_2 1_555 1_555
H3_2 O10_2 1_555 1_555
C1_3 O2_3 1_555 1_555
C2_3 C1_3 1_555 1_555
C3_3 C2_3 1_555 1_555
H4_3 C3_3 1_555 1_555
Tb6 O3_2 1_555 1_555
O14_2 Tb6_2 1_555 1_555
Tb6 O1_4 1_555 1_555
O1_4 C1_4 1_555 1_555
O2_4 Tb6 1_555 1_555
O11_2 C8_4 1_555 1_555
O12 C8_4 1_555 1_555
O5_4 C6_4 1_555 1_555
O13 C15_4 1_555 1_555
C1_4 O2_4 1_555 1_555
C2_4 C1_4 1_555 1_555
C3_4 C2_4 1_555 1_555
H4_4 C3_4 1_555 1_555
C4_4 C3_4 1_555 1_555
C5_4 C4_4 1_555 1_555
H5_4 C5_4 1_555 1_555
C6_4 C5_4 1_555 1_555
C7_4 C2_4 1_555 1_555
H6_4 C7_4 1_555 1_555
C8_4 C4_4 1_555 1_555
C9_4 O5_4 1_555 1_555
C10_4 C9_4 1_555 1_555
H7_4 C10_4 1_555 1_555
C11_4 C10_4 1_555 1_555
C14_4 C9_4 1_555 1_555
H9_4 C14_4 1_555 1_555
C15_4 C11_4 1_555 1_555
O15_2 Tb6 1_555 1_555
C6_4 C7_4 1_555 1_555
C13_4 C14_4 1_555 1_555
O15_2 C16_4 1_555 1_555
H8_4 C12_4 1_555 1_555
H2_3 O10_3 1_555 1_555
H3_3 O10_3 1_555 1_555
H2_4 O10_4 1_555 1_555
H3_4 O10_4 1_555 1_555

#END
