
###############################################################################
#
# This file contains modified crystal structure data generated from the
# MOF subset of the Cambridge Structural Database (CSD) v543 
# hosted by the Cambridge Crystallographic Data Centre (CCDC).
#
# This work is licensed under the Creative Commons
# Attribution-NonCommercial-ShareAlike 4.0 International License.
# To view a copy of this license, visit
# http://creativecommons.org/licenses/by-nc-sa/4.0/
# or send a letter to
# Creative Commons, PO Box 1866, Mountain View, CA 94042, USA.
#
# CIF created using the CSD Python API on 29 September 2022
# The structure has been converted into the P1 space group
# The structure has a 3D framework
# The original CSD entry YENZAV is in the monoclinic crystal system
# The framework has been calculated to contain at least 10.0% void space
# The void calculation uses a probe of radius 1.32A, grid spacing 0.4
#
###############################################################################

data_YENZAV
_chemical_formula_moiety         '(C64 H36 Gd4 O34)n'
_symmetry_cell_setting           triclinic
_symmetry_space_group_name_H-M   'P 1'
_symmetry_Int_Tables_number      1
_space_group_name_Hall           'P 1'
loop_
_symmetry_equiv_pos_site_id
_symmetry_equiv_pos_as_xyz
1 x,y,z
_cell_length_a                   9.8450(5)
_cell_length_b                   12.7548(6)
_cell_length_c                   13.9951(8)
_cell_angle_alpha                90
_cell_angle_beta                 93.753(5)
_cell_angle_gamma                90
_cell_volume                     1753.61
loop_
_atom_site_label
_atom_site_type_symbol
_atom_site_fract_x
_atom_site_fract_y
_atom_site_fract_z
Gd1 Gd 0.22782(2) 0.00279(3) 0.41613(2)
O2 O 0.2090(4) 0.1186(3) 0.2704(2)
O3 O 0.1065(4) 0.3870(3) 0.0152(3)
O10 O 0.2406(5) 0.0375(3) 0.5867(3)
H2 H 0.3192 0.0112 0.6178
H3 H 0.1689 0.0078 0.6173
C1 C 0.1103(5) 0.0651(4) 0.2361(4)
C2 C 0.0257(5) 0.1033(4) 0.1508(4)
C3 C 0.0492(5) 0.2016(4) 0.1128(3)
H4 H 0.1177 0.2443 0.1403
Gd4 Gd 0.27218(2) 0.50279(3) 0.08387(2)
O12 O 0.4101(4) 0.1219(3) 0.4290(3)
O14 O 0.0698(4) 0.1282(3) 0.4437(3)
O1 O 0.0773(4) 0.9795(3) 0.2759(3)
O11 O 0.3935(4) 0.8870(3) 0.4848(3)
O13 O 0.0974(4) 0.8638(3) 0.4578(3)
O15 O 0.3678(4) 0.9318(3) 0.2855(2)
O9 O 0.5345(4) 0.0513(3) 0.2854(3)
H1 H 0.4819 0.0854 0.3307
C4 C 0.9689(5) 0.2360(4) 0.0329(4)
C6 C 0.8475(5) 0.0736(4) 0.0280(3)
C7 C 0.9251(5) 0.0380(4) 0.1075(3)
H9 H 0.6357 0.0565 0.1348
O4 O 0.9101(4) 0.3781(3) 0.9290(3)
O5 O 0.7523(4) 0.0100(3) 0.9785(2)
C5 C 0.8683(5) 0.1733(4) 0.9906(3)
H5 H 0.8148 0.1971 0.9377
C8 C 0.9980(7) 0.3416(4) 0.9904(4)
Gd6 Gd 0.72782(2) 0.49721(3) 0.91613(2)
O7 O 0.4302(4) 0.6282(3) 0.0563(3)
H6 H 0.9106 0.9714 0.1319
C9 C 0.6708(5) 0.9494(4) 0.0326(4)
C10 C 0.6410(6) 0.8478(4) 0.0009(3)
C11 C 0.5517(5) 0.7863(4) 0.0500(4)
C12 C 0.4936(5) 0.8250(4) 0.1310(3)
H8 H 0.4334 0.7842 0.1635
C13 C 0.5273(5) 0.9262(4) 0.1627(3)
C14 C 0.6149(5) 0.9889(4) 0.1136(3)
C15 C 0.5243(5) 0.6751(4) 0.0183(3)
C16 C 0.4663(6) 0.9696(4) 0.2489(4)
O6 O 0.5974(4) 0.6362(3) 0.9578(3)
H7 H 0.6804 0.8213 0.9473
O8 O 0.1322(4) 0.4318(3) 0.2145(2)
H1_2 H 0.0181 0.5854 0.1693
C12_2 C 0.0064(5) 0.3250(4) 0.3690(3)
H8_2 H 0.0666 0.2842 0.3365
C16_2 C 0.0337(6) 0.4696(4) 0.2511(4)
O1_2 O 0.4227(4) 0.4795(3) 0.2241(3)
O2_2 O 0.2910(4) 0.6186(3) 0.2296(2)
O4_2 O 0.5899(4) 0.8781(3) 0.5710(3)
O5_2 O 0.7477(4) 0.5100(3) 0.5215(2)
O6_2 O 0.9026(4) 0.1362(3) 0.5422(3)
O9_2 O 0.9655(4) 0.5513(3) 0.2146(3)
C1_2 C 0.3897(5) 0.5651(4) 0.2639(4)
C2_2 C 0.4743(5) 0.6033(4) 0.3492(4)
C3_2 C 0.4508(5) 0.7016(4) 0.3872(3)
H4_2 H 0.3823 0.7443 0.3597
C4_2 C 0.5311(5) 0.7360(4) 0.4671(4)
C5_2 C 0.6317(5) 0.6733(4) 0.5094(3)
H5_2 H 0.6852 0.6971 0.5623
C6_2 C 0.6525(5) 0.5736(4) 0.4720(3)
C7_2 C 0.5749(5) 0.5380(4) 0.3925(3)
H6_2 H 0.5894 0.4714 0.3681
C8_2 C 0.5020(7) 0.8416(4) 0.5096(4)
C9_2 C 0.8292(5) 0.4494(4) 0.4674(4)
C10_2 C 0.8590(6) 0.3478(4) 0.4991(3)
H7_2 H 0.8196 0.3213 0.5527
C11_2 C 0.9483(5) 0.2863(4) 0.4500(4)
C13_2 C 0.9727(5) 0.4262(4) 0.3373(3)
C14_2 C 0.8851(5) 0.4889(4) 0.3864(3)
H9_2 H 0.8643 0.5565 0.3652
C15_2 C 0.9757(5) 0.1751(4) 0.4817(3)
Gd6_2 Gd 0.77218(2) 0.99721(3) 0.58387(2)
O12_2 O 0.0899(4) 0.6219(3) 0.0710(3)
O13_2 O 0.4026(4) 0.3638(3) 0.0422(3)
H7_3 H 0.3196 0.1787 0.0527
O7_2 O 0.5698(4) 0.3718(3) 0.9437(3)
O8_2 O 0.6322(4) 0.0682(3) 0.7145(2)
H6_3 H 0.0894 0.0286 0.8681
C9_3 C 0.3292(5) 0.0506(4) 0.9674(4)
C10_3 C 0.3590(6) 0.1522(4) 0.9991(3)
C11_3 C 0.4483(5) 0.2137(4) 0.9500(4)
C12_3 C 0.5064(5) 0.1750(4) 0.8690(3)
H8_3 H 0.5666 0.2158 0.8365
C13_3 C 0.4727(5) 0.0738(4) 0.8373(3)
C14_3 C 0.3851(5) 0.0111(4) 0.8864(3)
C15_3 C 0.4757(5) 0.3249(4) 0.9817(3)
C16_3 C 0.5337(6) 0.0304(4) 0.7511(4)
O5_3 O 0.2477(4) 0.9900(3) 0.0215(2)
C5_3 C 0.1317(5) 0.8267(4) 0.0094(3)
H5_3 H 0.1852 0.8029 0.0623
C8_3 C 0.0020(7) 0.6584(4) 0.0096(4)
O9_3 O 0.4655(4) 0.9487(3) 0.7146(3)
H1_3 H 0.5181 0.9146 0.6693
C4_3 C 0.0311(5) 0.7640(4) 0.9671(4)
C6_3 C 0.1525(5) 0.9264(4) 0.9720(3)
C7_3 C 0.0749(5) 0.9620(4) 0.8925(3)
H9_3 H 0.3643 0.9435 0.8652
O1_3 O 0.9227(4) 0.0205(3) 0.7241(3)
O11_2 O 0.6065(4) 0.1130(3) 0.5152(3)
O2_3 O 0.7910(4) 0.8814(3) 0.7296(2)
O3_2 O 0.8935(4) 0.6130(3) 0.9848(3)
O10_2 O 0.7594(5) 0.9625(3) 0.4133(3)
H2_2 H 0.6808 0.9888 0.3822
H3_2 H 0.8311 0.9922 0.3827
C1_3 C 0.8897(5) 0.9349(4) 0.7639(4)
C2_3 C 0.9743(5) 0.8967(4) 0.8492(4)
C3_3 C 0.9508(5) 0.7984(4) 0.8872(3)
H4_3 H 0.8823 0.7557 0.8597
O14_2 O 0.9302(4) 0.8718(3) 0.5563(3)
O1_4 O 0.5773(4) 0.5205(3) 0.7759(3)
O2_4 O 0.7090(4) 0.3814(3) 0.7704(2)
O5_4 O 0.2523(4) 0.4900(3) 0.4785(2)
O9_4 O 0.0345(4) 0.4487(3) 0.7854(3)
C1_4 C 0.6103(5) 0.4349(4) 0.7361(4)
C2_4 C 0.5257(5) 0.3967(4) 0.6508(4)
C3_4 C 0.5492(5) 0.2984(4) 0.6128(3)
H4_4 H 0.6177 0.2557 0.6403
C4_4 C 0.4689(5) 0.2640(4) 0.5329(4)
C5_4 C 0.3683(5) 0.3267(4) 0.4906(3)
H5_4 H 0.3148 0.3029 0.4377
C6_4 C 0.3475(5) 0.4264(4) 0.5280(3)
C7_4 C 0.4251(5) 0.4620(4) 0.6075(3)
H6_4 H 0.4106 0.5286 0.6319
C8_4 C 0.4980(7) 0.1584(4) 0.4904(4)
C9_4 C 0.1708(5) 0.5506(4) 0.5326(4)
C10_4 C 0.1410(6) 0.6522(4) 0.5009(3)
H7_4 H 0.1804 0.6787 0.4473
C11_4 C 0.0517(5) 0.7137(4) 0.5500(4)
C13_4 C 0.0273(5) 0.5738(4) 0.6627(3)
C14_4 C 0.1149(5) 0.5111(4) 0.6136(3)
H9_4 H 0.1357 0.4435 0.6348
C15_4 C 0.0243(5) 0.8249(4) 0.5183(3)
O15_2 O 0.8678(4) 0.5682(3) 0.7855(2)
H1_4 H 0.9819 0.4146 0.8307
C12_4 C 0.9936(5) 0.6750(4) 0.6310(3)
H8_4 H 0.9334 0.7158 0.6635
C16_4 C 0.9663(6) 0.5304(4) 0.7489(4)
O10_3 O 0.2594(5) 0.5375(3) 0.9133(3)
H2_3 H 0.1808 0.5112 0.8822
H3_3 H 0.3311 0.5078 0.8827
O10_4 O 0.7406(5) 0.4625(3) 0.0867(3)
H2_4 H 0.8192 0.4888 0.1178
H3_4 H 0.6689 0.4922 0.1173
loop_
_geom_bond_atom_site_label_1
_geom_bond_atom_site_label_2
_geom_bond_site_symmetry_1
_geom_bond_site_symmetry_2
O2 Gd1 1_555 1_555
O10 Gd1 1_555 1_555
H2 O10 1_555 1_555
H3 O10 1_555 1_555
C1 O2 1_555 1_555
C2 C1 1_555 1_555
C3 C2 1_555 1_555
H4 C3 1_555 1_555
Gd4 O3 1_555 1_555
O12 Gd1 1_555 1_555
O14 Gd1 1_555 1_555
O9 H1 1_555 1_555
C6 C7 1_555 1_555
O4 C8 1_555 1_555
H5 C5 1_555 1_555
Gd6 O4 1_555 1_555
O7 C15 1_555 1_555
O15 C16 1_555 1_555
C10 C9 1_555 1_555
C11 C10 1_555 1_555
C12 C11 1_555 1_555
H8 C12 1_555 1_555
C13 C12 1_555 1_555
C14 C9 1_555 1_555
C15 C11 1_555 1_555
Gd4 O7 1_555 1_555
C13 C14 1_555 1_555
C13 C16 1_555 1_555
Gd6 O6 1_555 1_555
O8 C16_2 1_555 1_555
H8_2 C12_2 1_555 1_555
Gd4 O8 1_555 1_555
Gd4 O1_2 1_555 1_555
O1_2 C1_2 1_555 1_555
O2_2 Gd4 1_555 1_555
O11 C8_2 1_555 1_555
O4_2 C8_2 1_555 1_555
O5_2 C6_2 1_555 1_555
O6_2 C15_2 1_555 1_555
C1_2 O2_2 1_555 1_555
C2_2 C1_2 1_555 1_555
C3_2 C2_2 1_555 1_555
H4_2 C3_2 1_555 1_555
C4_2 C3_2 1_555 1_555
C5_2 C4_2 1_555 1_555
H5_2 C5_2 1_555 1_555
C6_2 C5_2 1_555 1_555
C7_2 C2_2 1_555 1_555
H6_2 C7_2 1_555 1_555
C8_2 C4_2 1_555 1_555
C9_2 O5_2 1_555 1_555
C10_2 C9_2 1_555 1_555
H7_2 C10_2 1_555 1_555
C11_2 C10_2 1_555 1_555
C14_2 C9_2 1_555 1_555
H9_2 C14_2 1_555 1_555
C15_2 C11_2 1_555 1_555
Gd6_2 O4_2 1_555 1_555
O12_2 Gd4 1_555 1_555
O13_2 Gd4 1_555 1_555
C6_2 C7_2 1_555 1_555
C13_2 C14_2 1_555 1_555
O7_2 C15_3 1_555 1_555
O8_2 C16_3 1_555 1_555
C10_3 C9_3 1_555 1_555
C11_3 C10_3 1_555 1_555
C12_3 C11_3 1_555 1_555
H8_3 C12_3 1_555 1_555
C13_3 C12_3 1_555 1_555
C14_3 C9_3 1_555 1_555
C15_3 C11_3 1_555 1_555
Gd6 O7_2 1_555 1_555
C13_3 C14_3 1_555 1_555
C13_3 C16_3 1_555 1_555
O12_2 C8_3 1_555 1_555
H5_3 C5_3 1_555 1_555
O9_3 H1_3 1_555 1_555
C6_3 C7_3 1_555 1_555
O2_3 Gd6_2 1_555 1_555
O10_2 Gd6_2 1_555 1_555
H2_2 O10_2 1_555 1_555
H3_2 O10_2 1_555 1_555
C1_3 O2_3 1_555 1_555
C2_3 C1_3 1_555 1_555
C3_3 C2_3 1_555 1_555
H4_3 C3_3 1_555 1_555
Gd6 O3_2 1_555 1_555
O14_2 Gd6_2 1_555 1_555
Gd6 O1_4 1_555 1_555
O1_4 C1_4 1_555 1_555
O2_4 Gd6 1_555 1_555
O11_2 C8_4 1_555 1_555
O12 C8_4 1_555 1_555
O5_4 C6_4 1_555 1_555
O13 C15_4 1_555 1_555
C1_4 O2_4 1_555 1_555
C2_4 C1_4 1_555 1_555
C3_4 C2_4 1_555 1_555
H4_4 C3_4 1_555 1_555
C4_4 C3_4 1_555 1_555
C5_4 C4_4 1_555 1_555
H5_4 C5_4 1_555 1_555
C6_4 C5_4 1_555 1_555
C7_4 C2_4 1_555 1_555
H6_4 C7_4 1_555 1_555
C8_4 C4_4 1_555 1_555
C9_4 O5_4 1_555 1_555
C10_4 C9_4 1_555 1_555
H7_4 C10_4 1_555 1_555
C11_4 C10_4 1_555 1_555
C14_4 C9_4 1_555 1_555
H9_4 C14_4 1_555 1_555
C15_4 C11_4 1_555 1_555
O15_2 Gd6 1_555 1_555
C6_4 C7_4 1_555 1_555
C13_4 C14_4 1_555 1_555
O15_2 C16_4 1_555 1_555
H8_4 C12_4 1_555 1_555
H2_3 O10_3 1_555 1_555
H3_3 O10_3 1_555 1_555
H2_4 O10_4 1_555 1_555
H3_4 O10_4 1_555 1_555

#END
