
###############################################################################
#
# This file contains modified crystal structure data generated from the
# MOF subset of the Cambridge Structural Database (CSD) v543 
# hosted by the Cambridge Crystallographic Data Centre (CCDC).
#
# This work is licensed under the Creative Commons
# Attribution-NonCommercial-ShareAlike 4.0 International License.
# To view a copy of this license, visit
# http://creativecommons.org/licenses/by-nc-sa/4.0/
# or send a letter to
# Creative Commons, PO Box 1866, Mountain View, CA 94042, USA.
#
# CIF created using the CSD Python API on 29 September 2022
# The structure has been converted into the P1 space group
# The structure has a 3D framework
# The original CSD entry YEPBAZ is in the monoclinic crystal system
# The framework has been calculated to contain at least 10.0% void space
# The void calculation uses a probe of radius 1.32A, grid spacing 0.4
#
###############################################################################

data_YEPBAZ
_chemical_formula_moiety         '(C64 H36 Dy4 O34)n'
_symmetry_cell_setting           triclinic
_symmetry_space_group_name_H-M   'P 1'
_symmetry_Int_Tables_number      1
_space_group_name_Hall           'P 1'
loop_
_symmetry_equiv_pos_site_id
_symmetry_equiv_pos_as_xyz
1 x,y,z
_cell_length_a                   9.8077(2)
_cell_length_b                   12.7197(3)
_cell_length_c                   13.9411(4)
_cell_angle_alpha                90
_cell_angle_beta                 93.756(2)
_cell_angle_gamma                90
_cell_volume                     1735.43
loop_
_atom_site_label
_atom_site_type_symbol
_atom_site_fract_x
_atom_site_fract_y
_atom_site_fract_z
Dy1 Dy 0.22835(2) 0.00313(2) 0.41688(2)
O2 O 0.2100(3) 0.1189(2) 0.27218(19)
O3 O 0.1058(3) 0.3884(2) 0.0164(2)
O10 O 0.2414(4) 0.0364(3) 0.5862(2)
H3 H 0.1677 0.0666 0.6018
C1 C 0.1103(4) 0.0649(3) 0.2386(3)
C2 C 0.0255(4) 0.1029(3) 0.1520(3)
C3 C 0.0493(4) 0.2023(3) 0.1142(3)
H4 H 0.1176 0.2450 0.1423
Dy4 Dy 0.27165(2) 0.50313(2) 0.08312(2)
O12 O 0.4086(3) 0.1211(2) 0.42983(19)
O14 O 0.0716(3) 0.1263(2) 0.4453(2)
O1 O 0.0773(3) 0.9798(2) 0.2786(2)
H2 H 0.2508 0.9781 0.6172
O11 O 0.3942(3) 0.8884(2) 0.4836(2)
O13 O 0.0986(3) 0.8653(2) 0.4578(2)
O15 O 0.3664(3) 0.9312(2) 0.28610(19)
O9 O 0.5324(3) 0.0520(3) 0.2847(2)
H1 H 0.4920 0.0754 0.3410
C4 C 0.9702(4) 0.2369(3) 0.0341(3)
C6 C 0.8478(4) 0.0730(3) 0.0279(3)
C7 C 0.9248(4) 0.0383(3) 0.1090(3)
H9 H 0.6356 0.0551 0.1346
O4 O 0.9086(3) 0.3789(2) 0.92983(19)
O5 O 0.7533(3) 0.0092(2) 0.97842(19)
C5 C 0.8678(4) 0.1730(3) 0.9908(3)
H5 H 0.8139 0.1969 0.9380
C8 C 0.9981(4) 0.3428(3) 0.9919(3)
Dy6 Dy 0.72835(2) 0.49687(2) 0.91688(2)
O7 O 0.4284(3) 0.6263(2) 0.0547(2)
H6 H 0.9091 0.9721 0.1344
C9 C 0.6706(4) 0.9485(3) 0.0324(3)
C10 C 0.6414(4) 0.8465(3) 0.0008(3)
C11 C 0.5517(4) 0.7849(3) 0.0497(3)
C12 C 0.4912(4) 0.8240(3) 0.1308(3)
H8 H 0.4298 0.7834 0.1630
C13 C 0.5253(4) 0.9255(3) 0.1620(3)
C14 C 0.6142(4) 0.9875(3) 0.1131(3)
C15 C 0.5240(4) 0.6732(3) 0.0181(3)
C16 C 0.4652(4) 0.9688(3) 0.2493(3)
O6 O 0.5986(3) 0.6347(2) 0.9578(2)
H7 H 0.6817 0.8199 0.9474
O8 O 0.1336(3) 0.4312(2) 0.21390(19)
H1_2 H 0.0080 0.5754 0.1590
C12_2 C 0.0088(4) 0.3240(3) 0.3692(3)
H8_2 H 0.0702 0.2834 0.3370
C16_2 C 0.0348(4) 0.4688(3) 0.2507(3)
O1_2 O 0.4227(3) 0.4798(2) 0.2214(2)
O2_2 O 0.2900(3) 0.6189(2) 0.22782(19)
O4_2 O 0.5914(3) 0.8789(2) 0.57017(19)
O5_2 O 0.7467(3) 0.5092(2) 0.52158(19)
O6_2 O 0.9014(3) 0.1347(2) 0.5422(2)
O9_2 O 0.9676(3) 0.5520(3) 0.2153(2)
C1_2 C 0.3897(4) 0.5649(3) 0.2614(3)
C2_2 C 0.4745(4) 0.6029(3) 0.3480(3)
C3_2 C 0.4507(4) 0.7023(3) 0.3858(3)
H4_2 H 0.3824 0.7450 0.3577
C4_2 C 0.5298(4) 0.7369(3) 0.4659(3)
C5_2 C 0.6322(4) 0.6730(3) 0.5092(3)
H5_2 H 0.6861 0.6969 0.5620
C6_2 C 0.6522(4) 0.5730(3) 0.4721(3)
C7_2 C 0.5752(4) 0.5383(3) 0.3910(3)
H6_2 H 0.5909 0.4721 0.3656
C8_2 C 0.5019(4) 0.8428(3) 0.5081(3)
C9_2 C 0.8294(4) 0.4485(3) 0.4676(3)
C10_2 C 0.8586(4) 0.3465(3) 0.4992(3)
H7_2 H 0.8183 0.3199 0.5526
C11_2 C 0.9483(4) 0.2849(3) 0.4503(3)
C13_2 C 0.9747(4) 0.4255(3) 0.3380(3)
C14_2 C 0.8858(4) 0.4875(3) 0.3869(3)
H9_2 H 0.8644 0.5551 0.3654
C15_2 C 0.9760(4) 0.1732(3) 0.4819(3)
Dy6_2 Dy 0.77165(2) 0.99687(2) 0.58312(2)
O12_2 O 0.0914(3) 0.6211(2) 0.07017(19)
O13_2 O 0.4014(3) 0.3653(2) 0.0422(2)
H7_3 H 0.3183 0.1801 0.0526
O7_2 O 0.5716(3) 0.3737(2) 0.9453(2)
O8_2 O 0.6336(3) 0.0688(2) 0.71390(19)
H6_3 H 0.0909 0.0279 0.8656
C9_3 C 0.3294(4) 0.0515(3) 0.9676(3)
C10_3 C 0.3586(4) 0.1535(3) 0.9992(3)
C11_3 C 0.4483(4) 0.2151(3) 0.9503(3)
C12_3 C 0.5088(4) 0.1760(3) 0.8692(3)
H8_3 H 0.5702 0.2166 0.8370
C13_3 C 0.4747(4) 0.0745(3) 0.8380(3)
C14_3 C 0.3858(4) 0.0125(3) 0.8869(3)
C15_3 C 0.4760(4) 0.3268(3) 0.9819(3)
C16_3 C 0.5348(4) 0.0312(3) 0.7507(3)
O5_3 O 0.2467(3) 0.9908(2) 0.02158(19)
C5_3 C 0.1322(4) 0.8270(3) 0.0092(3)
H5_3 H 0.1861 0.8031 0.0620
C8_3 C 0.0019(4) 0.6572(3) 0.0081(3)
O9_3 O 0.4676(3) 0.9480(3) 0.7153(2)
H1_3 H 0.5080 0.9246 0.6590
C4_3 C 0.0298(4) 0.7631(3) 0.9659(3)
C6_3 C 0.1522(4) 0.9270(3) 0.9721(3)
C7_3 C 0.0752(4) 0.9617(3) 0.8910(3)
H9_3 H 0.3644 0.9449 0.8654
O1_3 O 0.9227(3) 0.0202(2) 0.7214(2)
H2_2 H 0.7492 0.0219 0.3828
O11_2 O 0.6058(3) 0.1116(2) 0.5164(2)
O2_3 O 0.7900(3) 0.8811(2) 0.72782(19)
O3_2 O 0.8942(3) 0.6116(2) 0.9836(2)
O10_2 O 0.7586(4) 0.9636(3) 0.4138(2)
H3_2 H 0.8323 0.9334 0.3982
C1_3 C 0.8897(4) 0.9351(3) 0.7614(3)
C2_3 C 0.9745(4) 0.8971(3) 0.8480(3)
C3_3 C 0.9507(4) 0.7977(3) 0.8858(3)
H4_3 H 0.8824 0.7550 0.8577
O14_2 O 0.9284(3) 0.8737(2) 0.5547(2)
O1_4 O 0.5773(3) 0.5202(2) 0.7786(2)
O2_4 O 0.7100(3) 0.3811(2) 0.77218(19)
O5_4 O 0.2533(3) 0.4908(2) 0.47842(19)
O9_4 O 0.0324(3) 0.4480(3) 0.7847(2)
C1_4 C 0.6103(4) 0.4351(3) 0.7386(3)
C2_4 C 0.5255(4) 0.3971(3) 0.6520(3)
C3_4 C 0.5493(4) 0.2977(3) 0.6142(3)
H4_4 H 0.6176 0.2550 0.6423
C4_4 C 0.4702(4) 0.2631(3) 0.5341(3)
C5_4 C 0.3678(4) 0.3270(3) 0.4908(3)
H5_4 H 0.3139 0.3031 0.4380
C6_4 C 0.3478(4) 0.4270(3) 0.5279(3)
C7_4 C 0.4248(4) 0.4617(3) 0.6090(3)
H6_4 H 0.4091 0.5279 0.6344
C8_4 C 0.4981(4) 0.1572(3) 0.4919(3)
C9_4 C 0.1706(4) 0.5515(3) 0.5324(3)
C10_4 C 0.1414(4) 0.6535(3) 0.5008(3)
H7_4 H 0.1817 0.6801 0.4474
C11_4 C 0.0517(4) 0.7151(3) 0.5497(3)
C13_4 C 0.0253(4) 0.5745(3) 0.6620(3)
C14_4 C 0.1142(4) 0.5125(3) 0.6131(3)
H9_4 H 0.1356 0.4449 0.6346
C15_4 C 0.0240(4) 0.8268(3) 0.5181(3)
O15_2 O 0.8664(3) 0.5688(2) 0.78610(19)
H1_4 H 0.9920 0.4246 0.8410
C12_4 C 0.9912(4) 0.6760(3) 0.6308(3)
H8_4 H 0.9298 0.7166 0.6630
C16_4 C 0.9652(4) 0.5312(3) 0.7493(3)
O10_3 O 0.2586(4) 0.5364(3) 0.9138(2)
H2_3 H 0.2492 0.4781 0.8828
H3_3 H 0.3323 0.5666 0.8982
O10_4 O 0.7414(4) 0.4636(3) 0.0862(2)
H2_4 H 0.7508 0.5219 0.1172
H3_4 H 0.6677 0.4334 0.1018
loop_
_geom_bond_atom_site_label_1
_geom_bond_atom_site_label_2
_geom_bond_site_symmetry_1
_geom_bond_site_symmetry_2
O2 Dy1 1_555 1_555
O10 Dy1 1_555 1_555
H3 O10 1_555 1_555
C1 O2 1_555 1_555
C2 C1 1_555 1_555
C3 C2 1_555 1_555
H4 C3 1_555 1_555
Dy4 O3 1_555 1_555
O12 Dy1 1_555 1_555
O14 Dy1 1_555 1_555
O9 H1 1_555 1_555
C6 C7 1_555 1_555
O4 C8 1_555 1_555
H5 C5 1_555 1_555
Dy6 O4 1_555 1_555
O7 C15 1_555 1_555
O15 C16 1_555 1_555
C10 C9 1_555 1_555
C11 C10 1_555 1_555
C12 C11 1_555 1_555
H8 C12 1_555 1_555
C13 C12 1_555 1_555
C14 C9 1_555 1_555
C15 C11 1_555 1_555
Dy4 O7 1_555 1_555
C13 C14 1_555 1_555
C13 C16 1_555 1_555
Dy6 O6 1_555 1_555
O8 C16_2 1_555 1_555
H8_2 C12_2 1_555 1_555
Dy4 O8 1_555 1_555
Dy4 O1_2 1_555 1_555
O1_2 C1_2 1_555 1_555
O2_2 Dy4 1_555 1_555
O11 C8_2 1_555 1_555
O4_2 C8_2 1_555 1_555
O5_2 C6_2 1_555 1_555
O6_2 C15_2 1_555 1_555
C1_2 O2_2 1_555 1_555
C2_2 C1_2 1_555 1_555
C3_2 C2_2 1_555 1_555
H4_2 C3_2 1_555 1_555
C4_2 C3_2 1_555 1_555
C5_2 C4_2 1_555 1_555
H5_2 C5_2 1_555 1_555
C6_2 C5_2 1_555 1_555
C7_2 C2_2 1_555 1_555
H6_2 C7_2 1_555 1_555
C8_2 C4_2 1_555 1_555
C9_2 O5_2 1_555 1_555
C10_2 C9_2 1_555 1_555
H7_2 C10_2 1_555 1_555
C11_2 C10_2 1_555 1_555
C14_2 C9_2 1_555 1_555
H9_2 C14_2 1_555 1_555
C15_2 C11_2 1_555 1_555
Dy6_2 O4_2 1_555 1_555
O12_2 Dy4 1_555 1_555
O13_2 Dy4 1_555 1_555
C6_2 C7_2 1_555 1_555
C13_2 C14_2 1_555 1_555
O7_2 C15_3 1_555 1_555
O8_2 C16_3 1_555 1_555
C10_3 C9_3 1_555 1_555
C11_3 C10_3 1_555 1_555
C12_3 C11_3 1_555 1_555
H8_3 C12_3 1_555 1_555
C13_3 C12_3 1_555 1_555
C14_3 C9_3 1_555 1_555
C15_3 C11_3 1_555 1_555
Dy6 O7_2 1_555 1_555
C13_3 C14_3 1_555 1_555
C13_3 C16_3 1_555 1_555
O12_2 C8_3 1_555 1_555
H5_3 C5_3 1_555 1_555
O9_3 H1_3 1_555 1_555
C6_3 C7_3 1_555 1_555
O2_3 Dy6_2 1_555 1_555
O10_2 Dy6_2 1_555 1_555
H3_2 O10_2 1_555 1_555
C1_3 O2_3 1_555 1_555
C2_3 C1_3 1_555 1_555
C3_3 C2_3 1_555 1_555
H4_3 C3_3 1_555 1_555
Dy6 O3_2 1_555 1_555
O14_2 Dy6_2 1_555 1_555
Dy6 O1_4 1_555 1_555
O1_4 C1_4 1_555 1_555
O2_4 Dy6 1_555 1_555
O11_2 C8_4 1_555 1_555
O12 C8_4 1_555 1_555
O5_4 C6_4 1_555 1_555
O13 C15_4 1_555 1_555
C1_4 O2_4 1_555 1_555
C2_4 C1_4 1_555 1_555
C3_4 C2_4 1_555 1_555
H4_4 C3_4 1_555 1_555
C4_4 C3_4 1_555 1_555
C5_4 C4_4 1_555 1_555
H5_4 C5_4 1_555 1_555
C6_4 C5_4 1_555 1_555
C7_4 C2_4 1_555 1_555
H6_4 C7_4 1_555 1_555
C8_4 C4_4 1_555 1_555
C9_4 O5_4 1_555 1_555
C10_4 C9_4 1_555 1_555
H7_4 C10_4 1_555 1_555
C11_4 C10_4 1_555 1_555
C14_4 C9_4 1_555 1_555
H9_4 C14_4 1_555 1_555
C15_4 C11_4 1_555 1_555
O15_2 Dy6 1_555 1_555
C6_4 C7_4 1_555 1_555
C13_4 C14_4 1_555 1_555
O15_2 C16_4 1_555 1_555
H8_4 C12_4 1_555 1_555
H2_3 O10_3 1_555 1_555
H3_3 O10_3 1_555 1_555
H2_4 O10_4 1_555 1_555
H3_4 O10_4 1_555 1_555

#END
