
###############################################################################
#
# This file contains modified crystal structure data generated from the
# MOF subset of the Cambridge Structural Database (CSD) v543 
# hosted by the Cambridge Crystallographic Data Centre (CCDC).
#
# This work is licensed under the Creative Commons
# Attribution-NonCommercial-ShareAlike 4.0 International License.
# To view a copy of this license, visit
# http://creativecommons.org/licenses/by-nc-sa/4.0/
# or send a letter to
# Creative Commons, PO Box 1866, Mountain View, CA 94042, USA.
#
# CIF created using the CSD Python API on 29 September 2022
# The structure has been converted into the P1 space group
# The structure has a 3D framework
# The original CSD entry YERFUZ is in the monoclinic crystal system
# The framework has been calculated to contain at least 10.0% void space
# The void calculation uses a probe of radius 1.32A, grid spacing 0.4
# H atom positions have been added when not included in the experimental data
#
###############################################################################

data_YERFUZ
_chemical_formula_moiety         '(C464 H320 O160 Pb28)n'
_symmetry_cell_setting           triclinic
_symmetry_space_group_name_H-M   'P 1'
_symmetry_Int_Tables_number      1
_space_group_name_Hall           'P 1'
loop_
_symmetry_equiv_pos_site_id
_symmetry_equiv_pos_as_xyz
1 x,y,z
_cell_length_a                   41.582(2)
_cell_length_b                   20.2045(10)
_cell_length_c                   28.205(3)
_cell_angle_alpha                90
_cell_angle_beta                 131.6580(10)
_cell_angle_gamma                90
_cell_volume                     17704.1
loop_
_atom_site_label
_atom_site_type_symbol
_atom_site_fract_x
_atom_site_fract_y
_atom_site_fract_z
C1 C 0.6264(3) 0.1695(5) 0.7797(4)
C7 C 0.3064(3) 0.0999(6) 0.0110(5)
H3 H 0.3090 0.1447 0.0232
C8 C 0.3025(3) 0.0487(6) 0.0405(5)
H4 H 0.3022 0.0596 0.0730
C19 C 0.4359(4) 0.1217(7) 0.0344(7)
H10 H 0.4550 0.0931 0.0364
C20 C 0.4530(3) 0.1699(6) 0.0793(5)
C21 C 0.5005(4) 0.1769(8) 0.1325(7)
C22 C 0.4234(4) 0.2055(8) 0.0759(7)
H11 H 0.4343 0.2371 0.1085
C23 C 0.3793(4) 0.1995(7) 0.0293(6)
H12 H 0.3608 0.2280 0.0287
C31 C 0.3720(3) 0.0604(6) 0.3310(5)
C32 C 0.3897(3) 0.0797(6) 0.3958(4)
C33 C 0.3748(4) 0.0507(7) 0.4219(5)
H17 H 0.3525 0.0186 0.3982
C34 C 0.3914(4) 0.0674(6) 0.4822(5)
H18 H 0.3802 0.0466 0.4988
C35 C 0.4243(3) 0.1141(5) 0.5191(4)
C36 C 0.4392(5) 0.1423(8) 0.4926(6)
H19 H 0.4617 0.1740 0.5163
C37 C 0.4218(4) 0.1254(8) 0.4307(5)
H20 H 0.4326 0.1461 0.4135
C38 C 0.4419(3) 0.1349(6) 0.5850(4)
C39 C 0.4903(3) 0.1476(6) 0.6331(4)
C40 C 0.5075(4) 0.1887(6) 0.6831(6)
H21 H 0.4889 0.2113 0.6862
C41 C 0.5517(3) 0.1981(6) 0.7299(5)
H22 H 0.5622 0.2268 0.7642
C42 C 0.5828(3) 0.1665(4) 0.7292(4)
C43 C 0.5629(3) 0.1227(7) 0.6786(5)
H23 H 0.5806 0.0959 0.6762
C44 C 0.5180(4) 0.1161(7) 0.6308(5)
H24 H 0.5066 0.0884 0.5954
C45 C 0.4156(3) 0.1989(6) 0.5686(4)
C46 C 0.4292(4) 0.2597(8) 0.5669(6)
H25 H 0.4584 0.2623 0.5858
C47 C 0.4068(4) 0.3159(7) 0.5422(7)
H26 H 0.4186 0.3543 0.5393
C48 C 0.3653(3) 0.3161(6) 0.5208(5)
C49 C 0.3382(5) 0.3756(9) 0.4961(7)
C50 C 0.3490(5) 0.2556(9) 0.5193(7)
H27 H 0.3207 0.2528 0.5040
C51 C 0.3743(4) 0.1986(8) 0.5403(7)
H28 H 0.3612 0.1571 0.5339
C52 C 0.4355(3) 0.0824(6) 0.6159(4)
C53 C 0.4204(5) 0.0963(7) 0.6471(7)
H29 H 0.4135 0.1406 0.6487
C54 C 0.4154(4) 0.0452(7) 0.6762(6)
H30 H 0.4030 0.0556 0.6939
C57 C 0.4478(5) 0.0196(7) 0.6203(6)
H32 H 0.4605 0.0081 0.6032
O2 O 0.6522(2) 0.1355(4) 0.7789(3)
O3 O 0.6423(3) 0.2096(4) 0.8244(4)
O7 O 0.5156(3) 0.2220(6) 0.1743(5)
O8 O 0.5243(3) 0.1384(6) 0.1321(4)
O11 O 0.3801(3) 0.0901(5) 0.3046(4)
O12 O 0.3447(4) 0.0128(6) 0.3031(5)
O13 O 0.3015(4) 0.3747(6) 0.4745(6)
O14 O 0.3544(3) 0.4284(6) 0.4977(5)
Pb1 Pb 0.340047(15) 0.00333(2) 0.214490(19)
O27 O 0.2773(3) 0.0732(4) 0.1634(4)
O28 O 0.3253(3) 0.1247(4) 0.1662(4)
O34 O 0.4104(3) 0.0539(4) 0.2395(4)
Pb9 Pb 0.217953(12) 0.32683(2) 0.382393(19)
Pb10 Pb 0.717953(12) 0.17317(2) 0.882393(19)
Pb13 Pb 0.408279(14) 0.17075(2) 0.26439(2)
Pb14 Pb 0.591721(14) 0.17075(2) 0.23561(2)
Pb16 Pb 0.291850(15) 0.49618(2) 0.44055(2)
C5 C 0.3037(3) 0.0175(5) 0.9474(5)
H2 H 0.3042 0.0055 0.9154
C6 C 0.3064(3) 0.0825(6) 0.9628(5)
C9 C 0.3136(3) 0.1385(5) 0.9342(4)
C10 C 0.2972(3) 0.1192(5) 0.8664(5)
C11 C 0.3163(4) 0.1342(5) 0.8445(5)
H5 H 0.3429 0.1572 0.8717
C12 C 0.2994(4) 0.1183(5) 0.7841(5)
H6 H 0.3144 0.1310 0.7709
C13 C 0.2619(4) 0.0848(5) 0.7435(5)
C14 C 0.2421(4) 0.0620(6) 0.6795(6)
C15 C 0.2376(4) 0.0694(7) 0.7619(5)
H7 H 0.2106 0.0474 0.7341
C16 C 0.2561(4) 0.0891(7) 0.8237(5)
H8 H 0.2405 0.0819 0.8369
C17 C 0.3623(4) 0.1505(6) 0.9830(6)
C18 C 0.3913(3) 0.1127(6) 0.9850(6)
H9 H 0.3808 0.0806 0.9530
C24 C 0.2884(3) 0.2026(5) 0.9158(5)
C25 C 0.2489(3) 0.2019(6) 0.9035(6)
H13 H 0.2400 0.1631 0.9111
C26 C 0.2243(3) 0.2580(5) 0.8806(5)
H14 H 0.1973 0.2559 0.8701
C27 C 0.2359(4) 0.3170(6) 0.8719(5)
C28 C 0.2101(4) 0.3771(6) 0.8468(4)
C29 C 0.2755(4) 0.3174(6) 0.8835(5)
H15 H 0.2845 0.3559 0.8757
C30 C 0.3004(4) 0.2585(6) 0.9070(6)
H16 H 0.3271 0.2591 0.9168
O5 O 0.2663(3) 0.0716(4) 0.6651(4)
O6 O 0.2097(3) 0.0345(5) 0.6439(4)
O9 O 0.2227(3) 0.4268(4) 0.8366(4)
O10 O 0.1747(3) 0.3753(4) 0.8338(4)
Pb3 Pb 0.091721(14) 0.32925(2) 0.73561(2)
O19 O 0.1757(6) 0.0082(8) 0.4345(6)
Pb4 Pb 0.208150(15) 0.00382(2) 0.55945(2)
O24 O 0.0156(3) 0.2780(6) 0.6743(5)
O25 O 0.0243(3) 0.3616(6) 0.6321(4)
O29 O 0.1199(3) 0.4099(5) 0.6954(4)
O31 O 0.1985(4) 0.1253(6) 0.5255(6)
O32 O 0.1456(3) 0.0716(6) 0.5023(5)
O33 O 0.0896(3) 0.4461(4) 0.7605(4)
O35 O 0.0691(3) 0.3719(5) 0.7906(4)
Pb8 Pb 0.159953(15) 0.49667(2) 0.785510(19)
Pb11 Pb 0.282047(12) 0.17317(2) 0.617607(19)
Pb15 Pb 0.291850(15) 0.50382(2) 0.94055(2)
H35 H 0.199543 0.00075725 0.435032
C2 C 0.2931(3) 0.9290(6) 0.0538(5)
C3 C 0.2990(3) 0.9803(5) 0.0234(4)
C55 C 0.4272(4) 0.9848(6) 0.6795(5)
C56 C 0.4420(4) 0.9688(8) 0.6506(6)
H31 H 0.4487 0.9240 0.6500
C58 C 0.4229(4) 0.9297(6) 0.7113(5)
O1 O 0.2897(2) 0.9461(4) 0.0947(3)
O4 O 0.2908(3) 0.8710(4) 0.0395(4)
O15 O 0.4104(3) 0.9461(4) 0.7395(4)
O16 O 0.4309(3) 0.8719(5) 0.7094(4)
O17 O 0.2751(5) 0.7061(8) 0.0702(8)
O18 O 0.2772(7) 0.7420(10) 0.1947(10)
Pb2 Pb 0.282047(12) 0.82683(2) 0.117607(19)
O21 O 0.3478(2) 0.8645(4) 0.2211(3)
O22 O 0.3577(3) 0.7904(4) 0.1756(4)
O23 O 0.2663(3) 0.9284(4) 0.1651(4)
O30 O 0.1985(4) 0.8747(6) 0.0255(6)
Pb5 Pb 0.659953(15) 0.99667(2) 0.785510(19)
Pb7 Pb 0.340047(15) 0.99667(2) 0.714490(19)
Pb12 Pb 0.408279(14) 0.82925(2) 0.76439(2)
H37 H 0.252012 0.754805 0.189656
H38 H 0.273984 0.695317 0.181124
H39 H 0.300996 0.697299 0.0759257
H40 H 0.272717 0.671823 0.0929594
C4 C 0.3001(4) 0.9690(6) 0.9781(5)
H1 H 0.2983 0.9243 0.9659
O20 O 0.1441(4) 0.9374(7) 0.5387(7)
O26 O 0.2773(3) 0.9268(4) 0.6634(4)
H33 H 0.126123 0.96865 0.539694
H34 H 0.12608 0.915582 0.496521
H36 H 0.15358 0.973181 0.408752
C5_2 C 0.6963(3) 0.0175(5) 0.5526(5)
H2_2 H 0.6958 0.0055 0.5846
C6_2 C 0.6936(3) 0.0825(6) 0.5372(5)
C7_2 C 0.6936(3) 0.0999(6) 0.4890(5)
H3_2 H 0.6910 0.1447 0.4768
C8_2 C 0.6975(3) 0.0487(6) 0.4595(5)
H4_2 H 0.6978 0.0596 0.4270
C9_2 C 0.6864(3) 0.1385(5) 0.5658(4)
C10_2 C 0.7028(3) 0.1192(5) 0.6336(5)
C11_2 C 0.6837(4) 0.1342(5) 0.6555(5)
H5_2 H 0.6571 0.1572 0.6283
C12_2 C 0.7006(4) 0.1183(5) 0.7159(5)
H6_2 H 0.6856 0.1310 0.7291
C13_2 C 0.7381(4) 0.0848(5) 0.7565(5)
C14_2 C 0.7579(4) 0.0620(6) 0.8205(6)
C15_2 C 0.7624(4) 0.0694(7) 0.7381(5)
H7_2 H 0.7894 0.0474 0.7659
C16_2 C 0.7439(4) 0.0891(7) 0.6763(5)
H8_2 H 0.7595 0.0819 0.6631
C17_2 C 0.6377(4) 0.1505(6) 0.5170(6)
C18_2 C 0.6087(3) 0.1127(6) 0.5150(6)
H9_2 H 0.6192 0.0806 0.5470
C19_2 C 0.5641(4) 0.1217(7) 0.4656(7)
H10_2 H 0.5450 0.0931 0.4636
C20_2 C 0.5470(3) 0.1699(6) 0.4207(5)
C21_2 C 0.4995(4) 0.1769(8) 0.3675(7)
C22_2 C 0.5766(4) 0.2055(8) 0.4241(7)
H11_2 H 0.5657 0.2371 0.3915
C23_2 C 0.6207(4) 0.1995(7) 0.4707(6)
H12_2 H 0.6392 0.2280 0.4713
C24_2 C 0.7116(3) 0.2026(5) 0.5842(5)
C25_2 C 0.7511(3) 0.2019(6) 0.5965(6)
H13_2 H 0.7600 0.1631 0.5889
C26_2 C 0.7757(3) 0.2580(5) 0.6194(5)
H14_2 H 0.8027 0.2559 0.6299
C27_2 C 0.7641(4) 0.3170(6) 0.6281(5)
C28_2 C 0.7899(4) 0.3771(6) 0.6532(4)
C29_2 C 0.7245(4) 0.3174(6) 0.6165(5)
H15_2 H 0.7155 0.3559 0.6243
C30_2 C 0.6996(4) 0.2585(6) 0.5930(6)
H16_2 H 0.6729 0.2591 0.5832
C31_2 C 0.6280(3) 0.0604(6) 0.1690(5)
C32_2 C 0.6103(3) 0.0797(6) 0.1042(4)
C33_2 C 0.6252(4) 0.0507(7) 0.0781(5)
H17_2 H 0.6475 0.0186 0.1018
C34_2 C 0.6086(4) 0.0674(6) 0.0178(5)
H18_2 H 0.6198 0.0466 0.0012
C36_2 C 0.5608(5) 0.1423(8) 0.0074(6)
C37_2 C 0.5782(4) 0.1254(8) 0.0693(5)
H20_2 H 0.5674 0.1461 0.0865
C49_2 C 0.6618(5) 0.3756(9) 0.0039(7)
O5_2 O 0.7337(3) 0.0716(4) 0.8349(4)
O6_2 O 0.7903(3) 0.0345(5) 0.8561(4)
O7_2 O 0.4844(3) 0.2220(6) 0.3257(5)
O8_2 O 0.4757(3) 0.1384(6) 0.3679(4)
O9_2 O 0.7773(3) 0.4268(4) 0.6634(4)
O10_2 O 0.8253(3) 0.3753(4) 0.6662(4)
O11_2 O 0.6199(3) 0.0901(5) 0.1954(4)
O12_2 O 0.6553(4) 0.0128(6) 0.1969(5)
O13_2 O 0.6985(4) 0.3747(6) 0.0255(6)
O14_2 O 0.6456(3) 0.4284(6) 0.0023(5)
Pb1_2 Pb 0.659953(15) 0.00333(2) 0.285510(19)
Pb3_2 Pb 0.908279(14) 0.32925(2) 0.76439(2)
Pb4_2 Pb 0.791850(15) 0.00382(2) 0.94055(2)
O24_2 O 0.9844(3) 0.2780(6) 0.8257(5)
O25_2 O 0.9757(3) 0.3616(6) 0.8679(4)
O27_2 O 0.7227(3) 0.0732(4) 0.3366(4)
O28_2 O 0.6747(3) 0.1247(4) 0.3338(4)
O29_2 O 0.8801(3) 0.4099(5) 0.8046(4)
O31_2 O 0.8015(4) 0.1253(6) 0.9745(6)
O32_2 O 0.8544(3) 0.0716(6) 0.9977(5)
O33_2 O 0.9104(3) 0.4461(4) 0.7395(4)
O34_2 O 0.5896(3) 0.0539(4) 0.2605(4)
O35_2 O 0.9309(3) 0.3719(5) 0.7094(4)
Pb8_2 Pb 0.840047(15) 0.49667(2) 0.714490(19)
Pb9_2 Pb 0.782047(12) 0.32683(2) 0.117607(19)
Pb15_2 Pb 0.708150(15) 0.50382(2) 0.55945(2)
Pb16_2 Pb 0.708150(15) 0.49618(2) 0.05945(2)
C1_2 C 0.3736(3) 0.1695(5) 0.7203(4)
C35_2 C 0.5757(3) 0.1141(5) 0.9809(4)
H19_2 H 0.5383 0.1740 0.9837
C38_2 C 0.5581(3) 0.1349(6) 0.9150(4)
C39_2 C 0.5097(3) 0.1476(6) 0.8669(4)
C40_2 C 0.4925(4) 0.1887(6) 0.8169(6)
H21_2 H 0.5111 0.2113 0.8138
C41_2 C 0.4483(3) 0.1981(6) 0.7701(5)
H22_2 H 0.4378 0.2268 0.7358
C42_2 C 0.4172(3) 0.1665(4) 0.7708(4)
C43_2 C 0.4371(3) 0.1227(7) 0.8214(5)
H23_2 H 0.4194 0.0959 0.8238
C44_2 C 0.4820(4) 0.1161(7) 0.8692(5)
H24_2 H 0.4934 0.0884 0.9046
C45_2 C 0.5844(3) 0.1989(6) 0.9314(4)
C46_2 C 0.5708(4) 0.2597(8) 0.9331(6)
H25_2 H 0.5416 0.2623 0.9142
C47_2 C 0.5932(4) 0.3159(7) 0.9578(7)
H26_2 H 0.5814 0.3543 0.9607
C48_2 C 0.6347(3) 0.3161(6) 0.9792(5)
C50_2 C 0.6510(5) 0.2556(9) 0.9807(7)
H27_2 H 0.6793 0.2528 0.9960
C51_2 C 0.6257(4) 0.1986(8) 0.9597(7)
H28_2 H 0.6388 0.1571 0.9661
C52_2 C 0.5645(3) 0.0824(6) 0.8841(4)
C53_2 C 0.5796(5) 0.0963(7) 0.8529(7)
H29_2 H 0.5865 0.1406 0.8513
C54_2 C 0.5846(4) 0.0452(7) 0.8238(6)
H30_2 H 0.5970 0.0556 0.8061
C57_2 C 0.5522(5) 0.0196(7) 0.8797(6)
H32_2 H 0.5395 0.0081 0.8968
O2_2 O 0.3478(2) 0.1355(4) 0.7211(3)
O3_2 O 0.3577(3) 0.2096(4) 0.6756(4)
C2_2 C 0.7069(3) 0.9290(6) 0.4462(5)
C3_2 C 0.7010(3) 0.9803(5) 0.4766(4)
C4_2 C 0.6999(4) 0.9690(6) 0.5219(5)
H1_2 H 0.7017 0.9243 0.5341
O1_2 O 0.7103(2) 0.9461(4) 0.4053(3)
O4_2 O 0.7092(3) 0.8710(4) 0.4605(4)
O17_2 O 0.7249(5) 0.7061(8) 0.4298(8)
O18_2 O 0.7228(7) 0.7420(10) 0.3053(10)
Pb2_2 Pb 0.717953(12) 0.82683(2) 0.382393(19)
O20_2 O 0.8559(4) 0.9374(7) 0.9613(7)
O21_2 O 0.6522(2) 0.8645(4) 0.2789(3)
O22_2 O 0.6423(3) 0.7904(4) 0.3244(4)
O23_2 O 0.7337(3) 0.9284(4) 0.3349(4)
O26_2 O 0.7227(3) 0.9268(4) 0.8366(4)
O30_2 O 0.8015(4) 0.8747(6) 0.4745(6)
H33_2 H 0.873877 0.96865 0.960306
H37_2 H 0.747988 0.754805 0.310344
H38_2 H 0.726016 0.695317 0.318876
H39_2 H 0.699004 0.697299 0.424074
H40_2 H 0.727283 0.671823 0.407041
C55_2 C 0.5728(4) 0.9848(6) 0.8205(5)
C56_2 C 0.5580(4) 0.9688(8) 0.8494(6)
H31_2 H 0.5513 0.9240 0.8500
C58_2 C 0.5771(4) 0.9297(6) 0.7887(5)
O15_2 O 0.5896(3) 0.9461(4) 0.7605(4)
O16_2 O 0.5691(3) 0.8719(5) 0.7906(4)
Pb12_2 Pb 0.591721(14) 0.82925(2) 0.73561(2)
C1_3 C 0.1264(3) 0.6695(5) 0.7797(4)
C21_3 C 0.0005(4) 0.6769(8) 0.1325(7)
C40_3 C 0.0075(4) 0.6887(6) 0.6831(6)
C41_3 C 0.0517(3) 0.6981(6) 0.7299(5)
H22_3 H 0.0622 0.7268 0.7642
C42_3 C 0.0828(3) 0.6665(4) 0.7292(4)
C43_3 C 0.0629(3) 0.6227(7) 0.6786(5)
H23_3 H 0.0806 0.5959 0.6762
C44_3 C 0.0180(4) 0.6161(7) 0.6308(5)
H24_3 H 0.0066 0.5884 0.5954
O2_3 O 0.1522(2) 0.6355(4) 0.7789(3)
O3_3 O 0.1423(3) 0.7096(4) 0.8244(4)
O7_3 O 0.0156(3) 0.7220(6) 0.1743(5)
O8_3 O 0.0243(3) 0.6384(6) 0.1321(4)
Pb10_2 Pb 0.217953(12) 0.67317(2) 0.882393(19)
Pb14_2 Pb 0.091721(14) 0.67075(2) 0.23561(2)
C2_3 C 0.7931(3) 0.4290(6) 0.0538(5)
C3_3 C 0.7990(3) 0.4803(5) 0.0234(4)
C7_3 C 0.8064(3) 0.5999(6) 0.0110(5)
H3_3 H 0.8090 0.6447 0.0232
C8_3 C 0.8025(3) 0.5487(6) 0.0405(5)
H4_3 H 0.8022 0.5596 0.0730
C19_3 C 0.9359(4) 0.6217(7) 0.0344(7)
H10_3 H 0.9550 0.5931 0.0364
C20_3 C 0.9530(3) 0.6699(6) 0.0793(5)
C22_3 C 0.9234(4) 0.7055(8) 0.0759(7)
H11_3 H 0.9343 0.7371 0.1085
C23_3 C 0.8793(4) 0.6995(7) 0.0293(6)
H12_3 H 0.8608 0.7280 0.0287
C31_3 C 0.8720(3) 0.5604(6) 0.3310(5)
C32_3 C 0.8897(3) 0.5797(6) 0.3958(4)
C33_3 C 0.8748(4) 0.5507(7) 0.4219(5)
H17_3 H 0.8525 0.5186 0.3982
C34_3 C 0.8914(4) 0.5674(6) 0.4822(5)
H18_3 H 0.8802 0.5466 0.4988
C35_3 C 0.9243(3) 0.6141(5) 0.5191(4)
C36_3 C 0.9392(5) 0.6423(8) 0.4926(6)
H19_3 H 0.9617 0.6740 0.5163
C37_3 C 0.9218(4) 0.6254(8) 0.4307(5)
H20_3 H 0.9326 0.6461 0.4135
C38_3 C 0.9419(3) 0.6349(6) 0.5850(4)
C39_3 C 0.9903(3) 0.6476(6) 0.6331(4)
H21_3 H 0.9889 0.7113 0.6862
C45_3 C 0.9156(3) 0.6989(6) 0.5686(4)
C46_3 C 0.9292(4) 0.7597(8) 0.5669(6)
H25_3 H 0.9584 0.7623 0.5858
C47_3 C 0.9068(4) 0.8159(7) 0.5422(7)
H26_3 H 0.9186 0.8543 0.5393
C48_3 C 0.8653(3) 0.8161(6) 0.5208(5)
C49_3 C 0.8382(5) 0.8756(9) 0.4961(7)
C50_3 C 0.8490(5) 0.7556(9) 0.5193(7)
H27_3 H 0.8207 0.7528 0.5040
C51_3 C 0.8743(4) 0.6986(8) 0.5403(7)
H28_3 H 0.8612 0.6571 0.5339
C52_3 C 0.9355(3) 0.5824(6) 0.6159(4)
C53_3 C 0.9204(5) 0.5963(7) 0.6471(7)
H29_3 H 0.9135 0.6406 0.6487
C54_3 C 0.9154(4) 0.5452(7) 0.6762(6)
H30_3 H 0.9030 0.5556 0.6939
C55_3 C 0.9272(4) 0.4848(6) 0.6795(5)
C56_3 C 0.9420(4) 0.4688(8) 0.6506(6)
H31_3 H 0.9487 0.4240 0.6500
C57_3 C 0.9478(5) 0.5196(7) 0.6203(6)
H32_3 H 0.9605 0.5081 0.6032
C58_3 C 0.9229(4) 0.4297(6) 0.7113(5)
O1_3 O 0.7897(2) 0.4461(4) 0.0947(3)
O4_3 O 0.7908(3) 0.3710(4) 0.0395(4)
O11_3 O 0.8801(3) 0.5901(5) 0.3046(4)
O12_3 O 0.8447(4) 0.5128(6) 0.3031(5)
O14_3 O 0.8544(3) 0.9284(6) 0.4977(5)
O17_3 O 0.7751(5) 0.2061(8) 0.0702(8)
O18_3 O 0.7772(7) 0.2420(10) 0.1947(10)
Pb1_3 Pb 0.840047(15) 0.50333(2) 0.214490(19)
O21_3 O 0.8478(2) 0.3645(4) 0.2211(3)
O22_3 O 0.8577(3) 0.2904(4) 0.1756(4)
O23_3 O 0.7663(3) 0.4284(4) 0.1651(4)
O27_3 O 0.7773(3) 0.5732(4) 0.1634(4)
O28_3 O 0.8253(3) 0.6247(4) 0.1662(4)
O34_3 O 0.9104(3) 0.5539(4) 0.2395(4)
Pb13_2 Pb 0.908279(14) 0.67075(2) 0.26439(2)
Pb16_3 Pb 0.791850(15) 0.99618(2) 0.44055(2)
H37_3 H 0.752012 0.254805 0.189656
H38_3 H 0.773984 0.195317 0.181124
H39_3 H 0.800996 0.197299 0.0759257
H40_3 H 0.772717 0.171823 0.0929594
C4_3 C 0.8001(4) 0.4690(6) 0.9781(5)
H1_3 H 0.7983 0.4243 0.9659
C5_3 C 0.8037(3) 0.5175(5) 0.9474(5)
H2_3 H 0.8042 0.5055 0.9154
C6_3 C 0.8064(3) 0.5825(6) 0.9628(5)
C9_3 C 0.8136(3) 0.6385(5) 0.9342(4)
C10_3 C 0.7972(3) 0.6192(5) 0.8664(5)
C11_3 C 0.8163(4) 0.6342(5) 0.8445(5)
H5_3 H 0.8429 0.6572 0.8717
C12_3 C 0.7994(4) 0.6183(5) 0.7841(5)
H6_3 H 0.8144 0.6310 0.7709
C13_3 C 0.7619(4) 0.5848(5) 0.7435(5)
C14_3 C 0.7421(4) 0.5620(6) 0.6795(6)
C15_3 C 0.7376(4) 0.5694(7) 0.7619(5)
H7_3 H 0.7106 0.5474 0.7341
C16_3 C 0.7561(4) 0.5891(7) 0.8237(5)
H8_3 H 0.7405 0.5819 0.8369
C17_3 C 0.8623(4) 0.6505(6) 0.9830(6)
C18_3 C 0.8913(3) 0.6127(6) 0.9850(6)
H9_3 H 0.8808 0.5806 0.9530
C24_3 C 0.7884(3) 0.7026(5) 0.9158(5)
C25_3 C 0.7489(3) 0.7019(6) 0.9035(6)
H13_3 H 0.7400 0.6631 0.9111
C26_3 C 0.7243(3) 0.7580(5) 0.8806(5)
H14_3 H 0.6973 0.7559 0.8701
C27_3 C 0.7359(4) 0.8170(6) 0.8719(5)
C28_3 C 0.7101(4) 0.8771(6) 0.8468(4)
C29_3 C 0.7755(4) 0.8174(6) 0.8835(5)
H15_3 H 0.7845 0.8559 0.8757
C30_3 C 0.8004(4) 0.7585(6) 0.9070(6)
H16_3 H 0.8271 0.7591 0.9168
O5_3 O 0.7663(3) 0.5716(4) 0.6651(4)
O6_3 O 0.7097(3) 0.5345(5) 0.6439(4)
O10_3 O 0.6747(3) 0.8753(4) 0.8338(4)
O19_2 O 0.6757(6) 0.5082(8) 0.4345(6)
O20_3 O 0.6441(4) 0.4374(7) 0.5387(7)
O24_3 O 0.5156(3) 0.7780(6) 0.6743(5)
O25_3 O 0.5243(3) 0.8616(6) 0.6321(4)
O29_3 O 0.6199(3) 0.9099(5) 0.6954(4)
O31_3 O 0.6985(4) 0.6253(6) 0.5255(6)
O32_3 O 0.6456(3) 0.5716(6) 0.5023(5)
Pb11_2 Pb 0.782047(12) 0.67317(2) 0.617607(19)
H33_3 H 0.626123 0.46865 0.539694
H34_2 H 0.62608 0.415582 0.496521
H35_2 H 0.699543 0.500757 0.435032
H36_2 H 0.65358 0.473181 0.408752
C2_4 C 0.2069(3) 0.4290(6) 0.4462(5)
C3_4 C 0.2010(3) 0.4803(5) 0.4766(4)
C4_4 C 0.1999(4) 0.4690(6) 0.5219(5)
H1_4 H 0.2017 0.4243 0.5341
C5_4 C 0.1963(3) 0.5175(5) 0.5526(5)
H2_4 H 0.1958 0.5055 0.5846
C6_4 C 0.1936(3) 0.5825(6) 0.5372(5)
C7_4 C 0.1936(3) 0.5999(6) 0.4890(5)
H3_4 H 0.1910 0.6447 0.4768
C8_4 C 0.1975(3) 0.5487(6) 0.4595(5)
H4_4 H 0.1978 0.5596 0.4270
C9_4 C 0.1864(3) 0.6385(5) 0.5658(4)
C10_4 C 0.2028(3) 0.6192(5) 0.6336(5)
C11_4 C 0.1837(4) 0.6342(5) 0.6555(5)
H5_4 H 0.1571 0.6572 0.6283
C12_4 C 0.2006(4) 0.6183(5) 0.7159(5)
H6_4 H 0.1856 0.6310 0.7291
C13_4 C 0.2381(4) 0.5848(5) 0.7565(5)
C14_4 C 0.2579(4) 0.5620(6) 0.8205(6)
C15_4 C 0.2624(4) 0.5694(7) 0.7381(5)
H7_4 H 0.2894 0.5474 0.7659
C16_4 C 0.2439(4) 0.5891(7) 0.6763(5)
H8_4 H 0.2595 0.5819 0.6631
C17_4 C 0.1377(4) 0.6505(6) 0.5170(6)
C18_4 C 0.1087(3) 0.6127(6) 0.5150(6)
H9_4 H 0.1192 0.5806 0.5470
C19_4 C 0.0641(4) 0.6217(7) 0.4656(7)
H10_4 H 0.0450 0.5931 0.4636
C20_4 C 0.0470(3) 0.6699(6) 0.4207(5)
C22_4 C 0.0766(4) 0.7055(8) 0.4241(7)
H11_4 H 0.0657 0.7371 0.3915
C23_4 C 0.1207(4) 0.6995(7) 0.4707(6)
H12_4 H 0.1392 0.7280 0.4713
C24_4 C 0.2116(3) 0.7026(5) 0.5842(5)
C25_4 C 0.2511(3) 0.7019(6) 0.5965(6)
H13_4 H 0.2600 0.6631 0.5889
C26_4 C 0.2757(3) 0.7580(5) 0.6194(5)
H14_4 H 0.3027 0.7559 0.6299
C27_4 C 0.2641(4) 0.8170(6) 0.6281(5)
C28_4 C 0.2899(4) 0.8771(6) 0.6532(4)
C29_4 C 0.2245(4) 0.8174(6) 0.6165(5)
H15_4 H 0.2155 0.8559 0.6243
C30_4 C 0.1996(4) 0.7585(6) 0.5930(6)
H16_4 H 0.1729 0.7591 0.5832
C31_4 C 0.1280(3) 0.5604(6) 0.1690(5)
C32_4 C 0.1103(3) 0.5797(6) 0.1042(4)
C33_4 C 0.1252(4) 0.5507(7) 0.0781(5)
H17_4 H 0.1475 0.5186 0.1018
C34_4 C 0.1086(4) 0.5674(6) 0.0178(5)
H18_4 H 0.1198 0.5466 0.0012
C36_4 C 0.0608(5) 0.6423(8) 0.0074(6)
C37_4 C 0.0782(4) 0.6254(8) 0.0693(5)
H20_4 H 0.0674 0.6461 0.0865
C49_4 C 0.1618(5) 0.8756(9) 0.0039(7)
O1_4 O 0.2103(2) 0.4461(4) 0.4053(3)
O4_4 O 0.2092(3) 0.3710(4) 0.4605(4)
O5_4 O 0.2337(3) 0.5716(4) 0.8349(4)
O6_4 O 0.2903(3) 0.5345(5) 0.8561(4)
O10_4 O 0.3253(3) 0.8753(4) 0.6662(4)
O11_4 O 0.1199(3) 0.5901(5) 0.1954(4)
O12_4 O 0.1553(4) 0.5128(6) 0.1969(5)
O14_4 O 0.1456(3) 0.9284(6) 0.0023(5)
O17_4 O 0.2249(5) 0.2061(8) 0.4298(8)
O18_4 O 0.2228(7) 0.2420(10) 0.3053(10)
Pb1_4 Pb 0.159953(15) 0.50333(2) 0.285510(19)
O20_4 O 0.3559(4) 0.4374(7) 0.9613(7)
O21_4 O 0.1522(2) 0.3645(4) 0.2789(3)
O22_4 O 0.1423(3) 0.2904(4) 0.3244(4)
O23_4 O 0.2337(3) 0.4284(4) 0.3349(4)
O24_4 O 0.4844(3) 0.7780(6) 0.8257(5)
O25_4 O 0.4757(3) 0.8616(6) 0.8679(4)
O27_4 O 0.2227(3) 0.5732(4) 0.3366(4)
O28_4 O 0.1747(3) 0.6247(4) 0.3338(4)
O29_4 O 0.3801(3) 0.9099(5) 0.8046(4)
O31_4 O 0.3015(4) 0.6253(6) 0.9745(6)
O32_4 O 0.3544(3) 0.5716(6) 0.9977(5)
O34_4 O 0.0896(3) 0.5539(4) 0.2605(4)
Pb16_4 Pb 0.208150(15) 0.99618(2) 0.05945(2)
H33_4 H 0.373877 0.46865 0.960306
H37_4 H 0.247988 0.254805 0.310344
H38_4 H 0.226016 0.195317 0.318876
H39_4 H 0.199004 0.197299 0.424074
H40_4 H 0.227283 0.171823 0.407041
C35_4 C 0.0757(3) 0.6141(5) 0.9809(4)
H19_4 H 0.0383 0.6740 0.9837
C38_4 C 0.0581(3) 0.6349(6) 0.9150(4)
C39_4 C 0.0097(3) 0.6476(6) 0.8669(4)
H21_4 H 0.0111 0.7113 0.8138
C45_4 C 0.0844(3) 0.6989(6) 0.9314(4)
C46_4 C 0.0708(4) 0.7597(8) 0.9331(6)
H25_4 H 0.0416 0.7623 0.9142
C47_4 C 0.0932(4) 0.8159(7) 0.9578(7)
H26_4 H 0.0814 0.8543 0.9607
C48_4 C 0.1347(3) 0.8161(6) 0.9792(5)
C50_4 C 0.1510(5) 0.7556(9) 0.9807(7)
H27_4 H 0.1793 0.7528 0.9960
C51_4 C 0.1257(4) 0.6986(8) 0.9597(7)
H28_4 H 0.1388 0.6571 0.9661
C52_4 C 0.0645(3) 0.5824(6) 0.8841(4)
C53_4 C 0.0796(5) 0.5963(7) 0.8529(7)
H29_4 H 0.0865 0.6406 0.8513
C54_4 C 0.0846(4) 0.5452(7) 0.8238(6)
H30_4 H 0.0970 0.5556 0.8061
C55_4 C 0.0728(4) 0.4848(6) 0.8205(5)
C56_4 C 0.0580(4) 0.4688(8) 0.8494(6)
H31_4 H 0.0513 0.4240 0.8500
C57_4 C 0.0522(5) 0.5196(7) 0.8797(6)
H32_4 H 0.0395 0.5081 0.8968
C58_4 C 0.0771(4) 0.4297(6) 0.7887(5)
C21_4 C 0.9995(4) 0.6769(8) 0.3675(7)
O7_4 O 0.9844(3) 0.7220(6) 0.3257(5)
O8_4 O 0.9757(3) 0.6384(6) 0.3679(4)
C1_4 C 0.8736(3) 0.6695(5) 0.7203(4)
C40_4 C 0.9925(4) 0.6887(6) 0.8169(6)
C41_4 C 0.9483(3) 0.6981(6) 0.7701(5)
H22_4 H 0.9378 0.7268 0.7358
C42_4 C 0.9172(3) 0.6665(4) 0.7708(4)
C43_4 C 0.9371(3) 0.6227(7) 0.8214(5)
H23_4 H 0.9194 0.5959 0.8238
C44_4 C 0.9820(4) 0.6161(7) 0.8692(5)
H24_4 H 0.9934 0.5884 0.9046
O2_4 O 0.8478(2) 0.6355(4) 0.7211(3)
O3_4 O 0.8577(3) 0.7096(4) 0.6756(4)
C4_5 C 0.6999(4) 0.0310(6) 0.0219(5)
H1_5 H 0.7017 0.0757 0.0341
O20_5 O 0.8559(4) 0.0626(7) 0.4613(7)
H33_5 H 0.873877 0.0313505 0.460306
H34_3 H 0.87392 0.0844176 0.503479
H36_3 H 0.84642 0.0268187 0.591248
C2_5 C 0.7069(3) 0.0710(6) 0.9462(5)
C3_5 C 0.7010(3) 0.0197(5) 0.9766(4)
C55_5 C 0.5728(4) 0.0152(6) 0.3205(5)
C56_5 C 0.5580(4) 0.0312(8) 0.3494(6)
H31_5 H 0.5513 0.0760 0.3500
C58_5 C 0.5771(4) 0.0703(6) 0.2887(5)
O1_5 O 0.7103(2) 0.0539(4) 0.9053(3)
O4_5 O 0.7092(3) 0.1290(4) 0.9605(4)
O16_3 O 0.5691(3) 0.1281(5) 0.2906(4)
O17_5 O 0.7249(5) 0.2939(8) 0.9298(8)
O18_5 O 0.7228(7) 0.2580(10) 0.8053(10)
H37_5 H 0.747988 0.245195 0.810344
H38_5 H 0.726016 0.304683 0.818876
H39_5 H 0.699004 0.302701 0.924074
H40_5 H 0.727283 0.328177 0.907041
C5_5 C 0.6963(3) 0.9825(5) 0.0526(5)
H2_5 H 0.6958 0.9945 0.0846
C6_5 C 0.6936(3) 0.9175(6) 0.0372(5)
C9_5 C 0.6864(3) 0.8615(5) 0.0658(4)
C10_5 C 0.7028(3) 0.8808(5) 0.1336(5)
C11_5 C 0.6837(4) 0.8658(5) 0.1555(5)
H5_5 H 0.6571 0.8428 0.1283
C12_5 C 0.7006(4) 0.8817(5) 0.2159(5)
H6_5 H 0.6856 0.8690 0.2291
C13_5 C 0.7381(4) 0.9152(5) 0.2565(5)
C14_5 C 0.7579(4) 0.9380(6) 0.3205(6)
C15_5 C 0.7624(4) 0.9306(7) 0.2381(5)
H7_5 H 0.7894 0.9526 0.2659
C16_5 C 0.7439(4) 0.9109(7) 0.1763(5)
H8_5 H 0.7595 0.9181 0.1631
C17_5 C 0.6377(4) 0.8495(6) 0.0170(6)
C18_5 C 0.6087(3) 0.8873(6) 0.0150(6)
H9_5 H 0.6192 0.9194 0.0470
C24_5 C 0.7116(3) 0.7974(5) 0.0842(5)
C25_5 C 0.7511(3) 0.7981(6) 0.0965(6)
H13_5 H 0.7600 0.8369 0.0889
C26_5 C 0.7757(3) 0.7420(5) 0.1194(5)
H14_5 H 0.8027 0.7441 0.1299
C27_5 C 0.7641(4) 0.6830(6) 0.1281(5)
C28_5 C 0.7899(4) 0.6229(6) 0.1532(4)
C29_5 C 0.7245(4) 0.6826(6) 0.1165(5)
H15_5 H 0.7155 0.6441 0.1243
C30_5 C 0.6996(4) 0.7415(6) 0.0930(6)
H16_5 H 0.6729 0.7409 0.0832
O6_5 O 0.7903(3) 0.9655(5) 0.3561(4)
O19_3 O 0.8243(6) 0.9918(8) 0.5655(6)
O35_3 O 0.9309(3) 0.6281(5) 0.2094(4)
H35_3 H 0.800457 0.999243 0.564968
C1_5 C 0.3736(3) 0.8305(5) 0.2203(4)
C7_5 C 0.6936(3) 0.9001(6) 0.9890(5)
H3_5 H 0.6910 0.8553 0.9768
C8_5 C 0.6975(3) 0.9513(6) 0.9595(5)
H4_5 H 0.6978 0.9404 0.9270
C19_5 C 0.5641(4) 0.8783(7) 0.9656(7)
H10_5 H 0.5450 0.9069 0.9636
C20_5 C 0.5470(3) 0.8301(6) 0.9207(5)
C21_5 C 0.4995(4) 0.8231(8) 0.8675(7)
C22_5 C 0.5766(4) 0.7945(8) 0.9241(7)
H11_5 H 0.5657 0.7629 0.8915
C23_5 C 0.6207(4) 0.8005(7) 0.9707(6)
H12_5 H 0.6392 0.7720 0.9713
C31_5 C 0.6280(3) 0.9396(6) 0.6690(5)
C32_5 C 0.6103(3) 0.9203(6) 0.6042(4)
C33_5 C 0.6252(4) 0.9493(7) 0.5781(5)
H17_5 H 0.6475 0.9814 0.6018
C34_5 C 0.6086(4) 0.9326(6) 0.5178(5)
H18_5 H 0.6198 0.9534 0.5012
C35_5 C 0.5757(3) 0.8859(5) 0.4809(4)
C36_5 C 0.5608(5) 0.8577(8) 0.5074(6)
H19_5 H 0.5383 0.8260 0.4837
C37_5 C 0.5782(4) 0.8746(8) 0.5693(5)
H20_5 H 0.5674 0.8539 0.5865
C38_5 C 0.5581(3) 0.8651(6) 0.4150(4)
C39_5 C 0.5097(3) 0.8524(6) 0.3669(4)
C40_5 C 0.4925(4) 0.8113(6) 0.3169(6)
H21_5 H 0.5111 0.7887 0.3138
C41_5 C 0.4483(3) 0.8019(6) 0.2701(5)
H22_5 H 0.4378 0.7732 0.2358
C42_5 C 0.4172(3) 0.8335(4) 0.2708(4)
C43_5 C 0.4371(3) 0.8773(7) 0.3214(5)
H23_5 H 0.4194 0.9041 0.3238
C44_5 C 0.4820(4) 0.8839(7) 0.3692(5)
H24_5 H 0.4934 0.9116 0.4046
C45_5 C 0.5844(3) 0.8011(6) 0.4314(4)
C46_5 C 0.5708(4) 0.7403(8) 0.4331(6)
H25_5 H 0.5416 0.7377 0.4142
C47_5 C 0.5932(4) 0.6841(7) 0.4578(7)
H26_5 H 0.5814 0.6457 0.4607
C48_5 C 0.6347(3) 0.6839(6) 0.4792(5)
C49_5 C 0.6618(5) 0.6244(9) 0.5039(7)
C50_5 C 0.6510(5) 0.7444(9) 0.4807(7)
H27_5 H 0.6793 0.7472 0.4960
C51_5 C 0.6257(4) 0.8014(8) 0.4597(7)
H28_5 H 0.6388 0.8429 0.4661
C52_5 C 0.5645(3) 0.9176(6) 0.3841(4)
C53_5 C 0.5796(5) 0.9037(7) 0.3529(7)
H29_5 H 0.5865 0.8594 0.3513
C54_5 C 0.5846(4) 0.9548(7) 0.3238(6)
H30_5 H 0.5970 0.9444 0.3061
C57_5 C 0.5522(5) 0.9804(7) 0.3797(6)
H32_5 H 0.5395 0.9919 0.3968
O12_5 O 0.6553(4) 0.9872(6) 0.6969(5)
C55_6 C 0.4272(4) 0.0152(6) 0.1795(5)
C56_6 C 0.4420(4) 0.0312(8) 0.1506(6)
H31_6 H 0.4487 0.0760 0.1500
C58_6 C 0.4229(4) 0.0703(6) 0.2113(5)
O16_4 O 0.4309(3) 0.1281(5) 0.2094(4)
C2_6 C 0.2931(3) 0.0710(6) 0.5538(5)
C3_6 C 0.2990(3) 0.0197(5) 0.5234(4)
C4_6 C 0.3001(4) 0.0310(6) 0.4781(5)
H1_6 H 0.2983 0.0757 0.4659
O1_6 O 0.2897(2) 0.0539(4) 0.5947(3)
O4_6 O 0.2908(3) 0.1290(4) 0.5395(4)
O17_6 O 0.2751(5) 0.2939(8) 0.5702(8)
O18_6 O 0.2772(7) 0.2580(10) 0.6947(10)
O20_6 O 0.1441(4) 0.0626(7) 0.0387(7)
H33_6 H 0.126123 0.0313505 0.0396941
H37_6 H 0.252012 0.245195 0.689656
H38_6 H 0.273984 0.304683 0.681124
H39_6 H 0.300996 0.302701 0.575926
H40_6 H 0.272717 0.328177 0.592959
C1_6 C 0.6264(3) 0.8305(5) 0.2797(4)
C35_6 C 0.4243(3) 0.8859(5) 0.0191(4)
H19_6 H 0.4617 0.8260 0.0163
C38_6 C 0.4419(3) 0.8651(6) 0.0850(4)
C39_6 C 0.4903(3) 0.8524(6) 0.1331(4)
C40_6 C 0.5075(4) 0.8113(6) 0.1831(6)
H21_6 H 0.4889 0.7887 0.1862
C41_6 C 0.5517(3) 0.8019(6) 0.2299(5)
H22_6 H 0.5622 0.7732 0.2642
C42_6 C 0.5828(3) 0.8335(4) 0.2292(4)
C43_6 C 0.5629(3) 0.8773(7) 0.1786(5)
H23_6 H 0.5806 0.9041 0.1762
C44_6 C 0.5180(4) 0.8839(7) 0.1308(5)
H24_6 H 0.5066 0.9116 0.0954
C45_6 C 0.4156(3) 0.8011(6) 0.0686(4)
C46_6 C 0.4292(4) 0.7403(8) 0.0669(6)
H25_6 H 0.4584 0.7377 0.0858
C47_6 C 0.4068(4) 0.6841(7) 0.0422(7)
H26_6 H 0.4186 0.6457 0.0393
C48_6 C 0.3653(3) 0.6839(6) 0.0208(5)
C50_6 C 0.3490(5) 0.7444(9) 0.0193(7)
H27_6 H 0.3207 0.7472 0.0040
C51_6 C 0.3743(4) 0.8014(8) 0.0403(7)
H28_6 H 0.3612 0.8429 0.0339
C52_6 C 0.4355(3) 0.9176(6) 0.1159(4)
C53_6 C 0.4204(5) 0.9037(7) 0.1471(7)
H29_6 H 0.4135 0.8594 0.1487
C54_6 C 0.4154(4) 0.9548(7) 0.1762(6)
H30_6 H 0.4030 0.9444 0.1939
C57_6 C 0.4478(5) 0.9804(7) 0.1203(6)
H32_6 H 0.4605 0.9919 0.1032
C5_6 C 0.3037(3) 0.9825(5) 0.4474(5)
H2_6 H 0.3042 0.9945 0.4154
C6_6 C 0.3064(3) 0.9175(6) 0.4628(5)
C7_6 C 0.3064(3) 0.9001(6) 0.5110(5)
H3_6 H 0.3090 0.8553 0.5232
C8_6 C 0.3025(3) 0.9513(6) 0.5405(5)
H4_6 H 0.3022 0.9404 0.5730
C9_6 C 0.3136(3) 0.8615(5) 0.4342(4)
C10_6 C 0.2972(3) 0.8808(5) 0.3664(5)
C11_6 C 0.3163(4) 0.8658(5) 0.3445(5)
H5_6 H 0.3429 0.8428 0.3717
C12_6 C 0.2994(4) 0.8817(5) 0.2841(5)
H6_6 H 0.3144 0.8690 0.2709
C13_6 C 0.2619(4) 0.9152(5) 0.2435(5)
C14_6 C 0.2421(4) 0.9380(6) 0.1795(6)
C15_6 C 0.2376(4) 0.9306(7) 0.2619(5)
H7_6 H 0.2106 0.9526 0.2341
C16_6 C 0.2561(4) 0.9109(7) 0.3237(5)
H8_6 H 0.2405 0.9181 0.3369
C17_6 C 0.3623(4) 0.8495(6) 0.4830(6)
C18_6 C 0.3913(3) 0.8873(6) 0.4850(6)
H9_6 H 0.3808 0.9194 0.4530
C19_6 C 0.4359(4) 0.8783(7) 0.5344(7)
H10_6 H 0.4550 0.9069 0.5364
C20_6 C 0.4530(3) 0.8301(6) 0.5793(5)
C21_6 C 0.5005(4) 0.8231(8) 0.6325(7)
C22_6 C 0.4234(4) 0.7945(8) 0.5759(7)
H11_6 H 0.4343 0.7629 0.6085
C23_6 C 0.3793(4) 0.8005(7) 0.5293(6)
H12_6 H 0.3608 0.7720 0.5287
C24_6 C 0.2884(3) 0.7974(5) 0.4158(5)
C25_6 C 0.2489(3) 0.7981(6) 0.4035(6)
H13_6 H 0.2400 0.8369 0.4111
C26_6 C 0.2243(3) 0.7420(5) 0.3806(5)
H14_6 H 0.1973 0.7441 0.3701
C27_6 C 0.2359(4) 0.6830(6) 0.3719(5)
C28_6 C 0.2101(4) 0.6229(6) 0.3468(4)
C29_6 C 0.2755(4) 0.6826(6) 0.3835(5)
H15_6 H 0.2845 0.6441 0.3757
C30_6 C 0.3004(4) 0.7415(6) 0.4070(6)
H16_6 H 0.3271 0.7409 0.4168
C31_6 C 0.3720(3) 0.9396(6) 0.8310(5)
C32_6 C 0.3897(3) 0.9203(6) 0.8958(4)
C33_6 C 0.3748(4) 0.9493(7) 0.9219(5)
H17_6 H 0.3525 0.9814 0.8982
C34_6 C 0.3914(4) 0.9326(6) 0.9822(5)
H18_6 H 0.3802 0.9534 0.9988
C36_6 C 0.4392(5) 0.8577(8) 0.9926(6)
C37_6 C 0.4218(4) 0.8746(8) 0.9307(5)
H20_6 H 0.4326 0.8539 0.9135
C49_6 C 0.3382(5) 0.6244(9) 0.9961(7)
O6_6 O 0.2097(3) 0.9655(5) 0.1439(4)
O12_6 O 0.3447(4) 0.9872(6) 0.8031(5)
O35_4 O 0.0691(3) 0.6281(5) 0.2906(4)
C4_7 C 0.1999(4) 0.5310(6) 0.0219(5)
H1_7 H 0.2017 0.5757 0.0341
C5_7 C 0.1963(3) 0.4825(5) 0.0526(5)
H2_7 H 0.1958 0.4945 0.0846
C6_7 C 0.1936(3) 0.4175(6) 0.0372(5)
C9_7 C 0.1864(3) 0.3615(5) 0.0658(4)
C10_7 C 0.2028(3) 0.3808(5) 0.1336(5)
C11_7 C 0.1837(4) 0.3658(5) 0.1555(5)
H5_7 H 0.1571 0.3428 0.1283
C12_7 C 0.2006(4) 0.3817(5) 0.2159(5)
H6_7 H 0.1856 0.3690 0.2291
C13_7 C 0.2381(4) 0.4152(5) 0.2565(5)
C14_7 C 0.2579(4) 0.4380(6) 0.3205(6)
C15_7 C 0.2624(4) 0.4306(7) 0.2381(5)
H7_7 H 0.2894 0.4526 0.2659
C16_7 C 0.2439(4) 0.4109(7) 0.1763(5)
H8_7 H 0.2595 0.4181 0.1631
C17_7 C 0.1377(4) 0.3495(6) 0.0170(6)
C18_7 C 0.1087(3) 0.3873(6) 0.0150(6)
H9_7 H 0.1192 0.4194 0.0470
C24_7 C 0.2116(3) 0.2974(5) 0.0842(5)
C25_7 C 0.2511(3) 0.2981(6) 0.0965(6)
H13_7 H 0.2600 0.3369 0.0889
C26_7 C 0.2757(3) 0.2420(5) 0.1194(5)
H14_7 H 0.3027 0.2441 0.1299
C27_7 C 0.2641(4) 0.1830(6) 0.1281(5)
C28_7 C 0.2899(4) 0.1229(6) 0.1532(4)
C29_7 C 0.2245(4) 0.1826(6) 0.1165(5)
H15_7 H 0.2155 0.1441 0.1243
C30_7 C 0.1996(4) 0.2415(6) 0.0930(6)
H16_7 H 0.1729 0.2409 0.0832
O6_7 O 0.2903(3) 0.4655(5) 0.3561(4)
O19_4 O 0.3243(6) 0.4918(8) 0.5655(6)
O20_7 O 0.3559(4) 0.5626(7) 0.4613(7)
H33_7 H 0.373877 0.53135 0.460306
H34_4 H 0.37392 0.584418 0.503479
H35_4 H 0.300457 0.499243 0.564968
H36_4 H 0.34642 0.526819 0.591248
C2_7 C 0.2069(3) 0.5710(6) 0.9462(5)
C3_7 C 0.2010(3) 0.5197(5) 0.9766(4)
C7_7 C 0.1936(3) 0.4001(6) 0.9890(5)
H3_7 H 0.1910 0.3553 0.9768
C8_7 C 0.1975(3) 0.4513(6) 0.9595(5)
H4_7 H 0.1978 0.4404 0.9270
C19_7 C 0.0641(4) 0.3783(7) 0.9656(7)
H10_7 H 0.0450 0.4069 0.9636
C20_7 C 0.0470(3) 0.3301(6) 0.9207(5)
C22_7 C 0.0766(4) 0.2945(8) 0.9241(7)
H11_7 H 0.0657 0.2629 0.8915
C23_7 C 0.1207(4) 0.3005(7) 0.9707(6)
H12_7 H 0.1392 0.2720 0.9713
C31_7 C 0.1280(3) 0.4396(6) 0.6690(5)
C32_7 C 0.1103(3) 0.4203(6) 0.6042(4)
C33_7 C 0.1252(4) 0.4493(7) 0.5781(5)
H17_7 H 0.1475 0.4814 0.6018
C34_7 C 0.1086(4) 0.4326(6) 0.5178(5)
H18_7 H 0.1198 0.4534 0.5012
C35_7 C 0.0757(3) 0.3859(5) 0.4809(4)
C36_7 C 0.0608(5) 0.3577(8) 0.5074(6)
H19_7 H 0.0383 0.3260 0.4837
C37_7 C 0.0782(4) 0.3746(8) 0.5693(5)
H20_7 H 0.0674 0.3539 0.5865
C38_7 C 0.0581(3) 0.3651(6) 0.4150(4)
C39_7 C 0.0097(3) 0.3524(6) 0.3669(4)
H21_7 H 0.0111 0.2887 0.3138
C45_7 C 0.0844(3) 0.3011(6) 0.4314(4)
C46_7 C 0.0708(4) 0.2403(8) 0.4331(6)
H25_7 H 0.0416 0.2377 0.4142
C47_7 C 0.0932(4) 0.1841(7) 0.4578(7)
H26_7 H 0.0814 0.1457 0.4607
C48_7 C 0.1347(3) 0.1839(6) 0.4792(5)
C49_7 C 0.1618(5) 0.1244(9) 0.5039(7)
C50_7 C 0.1510(5) 0.2444(9) 0.4807(7)
H27_7 H 0.1793 0.2472 0.4960
C51_7 C 0.1257(4) 0.3014(8) 0.4597(7)
H28_7 H 0.1388 0.3429 0.4661
C52_7 C 0.0645(3) 0.4176(6) 0.3841(4)
C53_7 C 0.0796(5) 0.4037(7) 0.3529(7)
H29_7 H 0.0865 0.3594 0.3513
C54_7 C 0.0846(4) 0.4548(7) 0.3238(6)
H30_7 H 0.0970 0.4444 0.3061
C55_7 C 0.0728(4) 0.5152(6) 0.3205(5)
C56_7 C 0.0580(4) 0.5312(8) 0.3494(6)
H31_7 H 0.0513 0.5760 0.3500
C57_7 C 0.0522(5) 0.4804(7) 0.3797(6)
H32_7 H 0.0395 0.4919 0.3968
C58_7 C 0.0771(4) 0.5703(6) 0.2887(5)
O1_7 O 0.2103(2) 0.5539(4) 0.9053(3)
O4_7 O 0.2092(3) 0.6290(4) 0.9605(4)
O12_7 O 0.1553(4) 0.4872(6) 0.6969(5)
O17_7 O 0.2249(5) 0.7939(8) 0.9298(8)
O18_7 O 0.2228(7) 0.7580(10) 0.8053(10)
H37_7 H 0.247988 0.745195 0.810344
H38_7 H 0.226016 0.804683 0.818876
H39_7 H 0.199004 0.802701 0.924074
H40_7 H 0.227283 0.828177 0.907041
C1_7 C 0.8736(3) 0.3305(5) 0.2203(4)
C21_7 C 0.9995(4) 0.3231(8) 0.8675(7)
C40_7 C 0.9925(4) 0.3113(6) 0.3169(6)
C41_7 C 0.9483(3) 0.3019(6) 0.2701(5)
H22_7 H 0.9378 0.2732 0.2358
C42_7 C 0.9172(3) 0.3335(4) 0.2708(4)
C43_7 C 0.9371(3) 0.3773(7) 0.3214(5)
H23_7 H 0.9194 0.4041 0.3238
C44_7 C 0.9820(4) 0.3839(7) 0.3692(5)
H24_7 H 0.9934 0.4116 0.4046
C1_8 C 0.1264(3) 0.3305(5) 0.2797(4)
C40_8 C 0.0075(4) 0.3113(6) 0.1831(6)
C41_8 C 0.0517(3) 0.3019(6) 0.2299(5)
H22_8 H 0.0622 0.2732 0.2642
C42_8 C 0.0828(3) 0.3335(4) 0.2292(4)
C43_8 C 0.0629(3) 0.3773(7) 0.1786(5)
H23_8 H 0.0806 0.4041 0.1762
C44_8 C 0.0180(4) 0.3839(7) 0.1308(5)
H24_8 H 0.0066 0.4116 0.0954
C21_8 C 0.0005(4) 0.3231(8) 0.6325(7)
C35_8 C 0.9243(3) 0.3859(5) 0.0191(4)
H19_8 H 0.9617 0.3260 0.0163
C38_8 C 0.9419(3) 0.3651(6) 0.0850(4)
C39_8 C 0.9903(3) 0.3524(6) 0.1331(4)
H21_8 H 0.9889 0.2887 0.1862
C45_8 C 0.9156(3) 0.3011(6) 0.0686(4)
C46_8 C 0.9292(4) 0.2403(8) 0.0669(6)
H25_8 H 0.9584 0.2377 0.0858
C47_8 C 0.9068(4) 0.1841(7) 0.0422(7)
H26_8 H 0.9186 0.1457 0.0393
C48_8 C 0.8653(3) 0.1839(6) 0.0208(5)
C50_8 C 0.8490(5) 0.2444(9) 0.0193(7)
H27_8 H 0.8207 0.2472 0.0040
C51_8 C 0.8743(4) 0.3014(8) 0.0403(7)
H28_8 H 0.8612 0.3429 0.0339
C52_8 C 0.9355(3) 0.4176(6) 0.1159(4)
C53_8 C 0.9204(5) 0.4037(7) 0.1471(7)
H29_8 H 0.9135 0.3594 0.1487
C54_8 C 0.9154(4) 0.4548(7) 0.1762(6)
H30_8 H 0.9030 0.4444 0.1939
C55_8 C 0.9272(4) 0.5152(6) 0.1795(5)
C56_8 C 0.9420(4) 0.5312(8) 0.1506(6)
H31_8 H 0.9487 0.5760 0.1500
C57_8 C 0.9478(5) 0.4804(7) 0.1203(6)
H32_8 H 0.9605 0.4919 0.1032
C58_8 C 0.9229(4) 0.5703(6) 0.2113(5)
C2_8 C 0.7931(3) 0.5710(6) 0.5538(5)
C3_8 C 0.7990(3) 0.5197(5) 0.5234(4)
C4_8 C 0.8001(4) 0.5310(6) 0.4781(5)
H1_8 H 0.7983 0.5757 0.4659
C5_8 C 0.8037(3) 0.4825(5) 0.4474(5)
H2_8 H 0.8042 0.4945 0.4154
C6_8 C 0.8064(3) 0.4175(6) 0.4628(5)
C7_8 C 0.8064(3) 0.4001(6) 0.5110(5)
H3_8 H 0.8090 0.3553 0.5232
C8_8 C 0.8025(3) 0.4513(6) 0.5405(5)
H4_8 H 0.8022 0.4404 0.5730
C9_8 C 0.8136(3) 0.3615(5) 0.4342(4)
C10_8 C 0.7972(3) 0.3808(5) 0.3664(5)
C11_8 C 0.8163(4) 0.3658(5) 0.3445(5)
H5_8 H 0.8429 0.3428 0.3717
C12_8 C 0.7994(4) 0.3817(5) 0.2841(5)
H6_8 H 0.8144 0.3690 0.2709
C13_8 C 0.7619(4) 0.4152(5) 0.2435(5)
C14_8 C 0.7421(4) 0.4380(6) 0.1795(6)
C15_8 C 0.7376(4) 0.4306(7) 0.2619(5)
H7_8 H 0.7106 0.4526 0.2341
C16_8 C 0.7561(4) 0.4109(7) 0.3237(5)
H8_8 H 0.7405 0.4181 0.3369
C17_8 C 0.8623(4) 0.3495(6) 0.4830(6)
C18_8 C 0.8913(3) 0.3873(6) 0.4850(6)
H9_8 H 0.8808 0.4194 0.4530
C19_8 C 0.9359(4) 0.3783(7) 0.5344(7)
H10_8 H 0.9550 0.4069 0.5364
C20_8 C 0.9530(3) 0.3301(6) 0.5793(5)
C22_8 C 0.9234(4) 0.2945(8) 0.5759(7)
H11_8 H 0.9343 0.2629 0.6085
C23_8 C 0.8793(4) 0.3005(7) 0.5293(6)
H12_8 H 0.8608 0.2720 0.5287
C24_8 C 0.7884(3) 0.2974(5) 0.4158(5)
C25_8 C 0.7489(3) 0.2981(6) 0.4035(6)
H13_8 H 0.7400 0.3369 0.4111
C26_8 C 0.7243(3) 0.2420(5) 0.3806(5)
H14_8 H 0.6973 0.2441 0.3701
C27_8 C 0.7359(4) 0.1830(6) 0.3719(5)
C28_8 C 0.7101(4) 0.1229(6) 0.3468(4)
C29_8 C 0.7755(4) 0.1826(6) 0.3835(5)
H15_8 H 0.7845 0.1441 0.3757
C30_8 C 0.8004(4) 0.2415(6) 0.4070(6)
H16_8 H 0.8271 0.2409 0.4168
C31_8 C 0.8720(3) 0.4396(6) 0.8310(5)
C32_8 C 0.8897(3) 0.4203(6) 0.8958(4)
C33_8 C 0.8748(4) 0.4493(7) 0.9219(5)
H17_8 H 0.8525 0.4814 0.8982
C34_8 C 0.8914(4) 0.4326(6) 0.9822(5)
H18_8 H 0.8802 0.4534 0.9988
C36_8 C 0.9392(5) 0.3577(8) 0.9926(6)
C37_8 C 0.9218(4) 0.3746(8) 0.9307(5)
H20_8 H 0.9326 0.3539 0.9135
C49_8 C 0.8382(5) 0.1244(9) 0.9961(7)
O1_8 O 0.7897(2) 0.5539(4) 0.5947(3)
O4_8 O 0.7908(3) 0.6290(4) 0.5395(4)
O6_8 O 0.7097(3) 0.4655(5) 0.1439(4)
O12_8 O 0.8447(4) 0.4872(6) 0.8031(5)
O17_8 O 0.7751(5) 0.7939(8) 0.5702(8)
O18_8 O 0.7772(7) 0.7580(10) 0.6947(10)
O20_8 O 0.6441(4) 0.5626(7) 0.0387(7)
H33_8 H 0.626123 0.53135 0.0396941
H37_8 H 0.752012 0.745195 0.689656
H38_8 H 0.773984 0.804683 0.681124
H39_8 H 0.800996 0.802701 0.575926
H40_8 H 0.772717 0.828177 0.592959
O19_5 O 0.8243(6) 0.0082(8) 0.0655(6)
H35_5 H 0.800457 0.00075725 0.0649679
H34_5 H 0.87392 0.915582 0.00347917
H36_5 H 0.84642 0.973181 0.0912482
O19_6 O 0.3243(6) 0.5082(8) 0.0655(6)
H34_6 H 0.37392 0.415582 0.00347917
H35_6 H 0.300457 0.500757 0.0649679
H36_6 H 0.34642 0.473181 0.0912482
H34_7 H 0.12608 0.0844176 0.996521
H36_7 H 0.15358 0.0268187 0.908752
O19_7 O 0.1757(6) 0.9918(8) 0.9345(6)
H35_7 H 0.199543 0.999243 0.935032
O19_8 O 0.6757(6) 0.4918(8) 0.9345(6)
H34_8 H 0.62608 0.584418 0.996521
H35_8 H 0.699543 0.499243 0.935032
H36_8 H 0.65358 0.526819 0.908752
loop_
_geom_bond_atom_site_label_1
_geom_bond_atom_site_label_2
_geom_bond_site_symmetry_1
_geom_bond_site_symmetry_2
C1 C42 1_555 1_555
H3 C7 1_555 1_555
H4 C8 1_555 1_555
H10 C19 1_555 1_555
C20 C19 1_555 1_555
C21 C20 1_555 1_555
C22 C20 1_555 1_555
H11 C22 1_555 1_555
H12 C23 1_555 1_555
C31 C32 1_555 1_555
C32 C33 1_555 1_555
C33 H17 1_555 1_555
C34 C33 1_555 1_555
H18 C34 1_555 1_555
C35 C34 1_555 1_555
C36 C35 1_555 1_555
H19 C36 1_555 1_555
C37 C32 1_555 1_555
H20 C37 1_555 1_555
C38 C35 1_555 1_555
C39 C38 1_555 1_555
C40 C39 1_555 1_555
H21 C40 1_555 1_555
C41 C40 1_555 1_555
H22 C41 1_555 1_555
C42 C41 1_555 1_555
C43 C42 1_555 1_555
H23 C43 1_555 1_555
C44 C39 1_555 1_555
H24 C44 1_555 1_555
C45 C38 1_555 1_555
C46 C45 1_555 1_555
H25 C46 1_555 1_555
C47 C46 1_555 1_555
H26 C47 1_555 1_555
C48 C47 1_555 1_555
C49 C48 1_555 1_555
C50 C48 1_555 1_555
H27 C50 1_555 1_555
C51 C45 1_555 1_555
H28 C51 1_555 1_555
C52 C38 1_555 1_555
C53 C52 1_555 1_555
H29 C53 1_555 1_555
C54 C53 1_555 1_555
H30 C54 1_555 1_555
C57 C52 1_555 1_555
H32 C57 1_555 1_555
O2 C1 1_555 1_555
O3 C1 1_555 1_555
O7 C21 1_555 1_555
O8 C21 1_555 1_555
O11 C31 1_555 1_555
O12 C31 1_555 1_555
O13 C49 1_555 1_555
O14 C49 1_555 1_555
O27 Pb1 1_555 1_555
O28 Pb1 1_555 1_555
O34 Pb1 1_555 1_555
Pb9 O13 1_555 1_555
Pb10 O2 1_555 1_555
Pb13 O11 1_555 1_555
Pb14 O7 1_555 1_555
Pb16 O13 1_555 1_555
C7 C8 1_555 1_555
C22 C23 1_555 1_555
C36 C37 1_555 1_555
C43 C44 1_555 1_555
C50 C51 1_555 1_555
O3 Pb10 1_555 1_555
O8 Pb14 1_555 1_555
O11 Pb1 1_555 1_555
O12 Pb1 1_555 1_555
O14 Pb16 1_555 1_555
O28 Pb13 1_555 1_555
O34 Pb13 1_555 1_555
H2 C5 1_555 1_555
C6 C5 1_555 1_555
C9 C6 1_555 1_555
C10 C9 1_555 1_555
C11 C10 1_555 1_555
H5 C11 1_555 1_555
C12 C11 1_555 1_555
H6 C12 1_555 1_555
C13 C12 1_555 1_555
C14 C13 1_555 1_555
C15 C13 1_555 1_555
H7 C15 1_555 1_555
C16 C10 1_555 1_555
H8 C16 1_555 1_555
C17 C9 1_555 1_555
C18 C17 1_555 1_555
H9 C18 1_555 1_555
C24 C9 1_555 1_555
C25 C24 1_555 1_555
H13 C25 1_555 1_555
C26 C25 1_555 1_555
H14 C26 1_555 1_555
C27 C26 1_555 1_555
C28 C27 1_555 1_555
C29 C27 1_555 1_555
H15 C29 1_555 1_555
C30 C24 1_555 1_555
H16 C30 1_555 1_555
O5 C14 1_555 1_555
O6 C14 1_555 1_555
O9 C28 1_555 1_555
O10 C28 1_555 1_555
Pb3 O10 1_555 1_555
O19 Pb4 1_555 1_555
Pb4 O5 1_555 1_555
O24 Pb3 1_555 1_555
O25 Pb3 1_555 1_555
O29 Pb3 1_555 1_555
O31 Pb4 1_555 1_555
O32 Pb4 1_555 1_555
O33 Pb3 1_555 1_555
O35 Pb3 1_555 1_555
Pb8 O9 1_555 1_555
Pb11 O5 1_555 1_555
Pb15 O9 1_555 1_555
C15 C16 1_555 1_555
C29 C30 1_555 1_555
O6 Pb4 1_555 1_555
O10 Pb8 1_555 1_555
O29 Pb8 1_555 1_555
O31 Pb11 1_555 1_555
O33 Pb8 1_555 1_555
O19 H35 1_555 1_555
C2 C3 1_555 1_555
C56 C55 1_555 1_555
H31 C56 1_555 1_555
C58 C55 1_555 1_555
O1 C2 1_555 1_555
O4 C2 1_555 1_555
O15 C58 1_555 1_555
O16 C58 1_555 1_555
O17 Pb2 1_555 1_555
O18 Pb2 1_555 1_555
Pb2 O1 1_555 1_555
O22 Pb2 1_555 1_555
O30 Pb2 1_555 1_555
Pb7 O15 1_555 1_555
Pb12 O15 1_555 1_555
O4 Pb2 1_555 1_555
O16 Pb12 1_555 1_555
Pb2 O21 1_555 1_555
Pb2 O23 1_555 1_555
O18 H37 1_555 1_555
O18 H38 1_555 1_555
O17 H39 1_555 1_555
O17 H40 1_555 1_555
C4 H1 1_555 1_555
O26 Pb7 1_555 1_555
O20 H33 1_555 1_555
O20 H34 1_555 1_555
H2_2 C5_2 1_555 1_555
C6_2 C5_2 1_555 1_555
C7_2 C6_2 1_555 1_555
H3_2 C7_2 1_555 1_555
H4_2 C8_2 1_555 1_555
C9_2 C6_2 1_555 1_555
C10_2 C9_2 1_555 1_555
C11_2 C10_2 1_555 1_555
H5_2 C11_2 1_555 1_555
C12_2 C11_2 1_555 1_555
H6_2 C12_2 1_555 1_555
C13_2 C12_2 1_555 1_555
C14_2 C13_2 1_555 1_555
C15_2 C13_2 1_555 1_555
H7_2 C15_2 1_555 1_555
C16_2 C10_2 1_555 1_555
H8_2 C16_2 1_555 1_555
C17_2 C9_2 1_555 1_555
C18_2 C17_2 1_555 1_555
H9_2 C18_2 1_555 1_555
C19_2 C18_2 1_555 1_555
H10_2 C19_2 1_555 1_555
C20_2 C19_2 1_555 1_555
C21_2 C20_2 1_555 1_555
C22_2 C20_2 1_555 1_555
H11_2 C22_2 1_555 1_555
C23_2 C17_2 1_555 1_555
H12_2 C23_2 1_555 1_555
C24_2 C9_2 1_555 1_555
C25_2 C24_2 1_555 1_555
H13_2 C25_2 1_555 1_555
C26_2 C25_2 1_555 1_555
H14_2 C26_2 1_555 1_555
C27_2 C26_2 1_555 1_555
C28_2 C27_2 1_555 1_555
C29_2 C27_2 1_555 1_555
H15_2 C29_2 1_555 1_555
C30_2 C24_2 1_555 1_555
H16_2 C30_2 1_555 1_555
C31_2 C32_2 1_555 1_555
C32_2 C33_2 1_555 1_555
C33_2 H17_2 1_555 1_555
C34_2 C33_2 1_555 1_555
H18_2 C34_2 1_555 1_555
C37_2 C32_2 1_555 1_555
H20_2 C37_2 1_555 1_555
O5_2 C14_2 1_555 1_555
O6_2 C14_2 1_555 1_555
O7_2 C21_2 1_555 1_555
O8_2 C21_2 1_555 1_555
O9_2 C28_2 1_555 1_555
O10_2 C28_2 1_555 1_555
O11_2 C31_2 1_555 1_555
O12_2 C31_2 1_555 1_555
O13_2 C49_2 1_555 1_555
O14_2 C49_2 1_555 1_555
Pb3_2 O10_2 1_555 1_555
Pb4_2 O5_2 1_555 1_555
O24_2 Pb3_2 1_555 1_555
O25_2 Pb3_2 1_555 1_555
O27_2 Pb1_2 1_555 1_555
O28_2 Pb1_2 1_555 1_555
O29_2 Pb3_2 1_555 1_555
O31_2 Pb4_2 1_555 1_555
O32_2 Pb4_2 1_555 1_555
O33_2 Pb3_2 1_555 1_555
O34_2 Pb1_2 1_555 1_555
O35_2 Pb3_2 1_555 1_555
Pb8_2 O9_2 1_555 1_555
Pb9_2 O13_2 1_555 1_555
Pb10 O5_2 1_555 1_555
Pb14 O11_2 1_555 1_555
Pb13 O7_2 1_555 1_555
Pb15_2 O9_2 1_555 1_555
Pb16_2 O13_2 1_555 1_555
C7_2 C8_2 1_555 1_555
C15_2 C16_2 1_555 1_555
C22_2 C23_2 1_555 1_555
C29_2 C30_2 1_555 1_555
C36_2 C37_2 1_555 1_555
O6_2 Pb4_2 1_555 1_555
O8_2 Pb13 1_555 1_555
O10_2 Pb8_2 1_555 1_555
O11_2 Pb1_2 1_555 1_555
O12_2 Pb1_2 1_555 1_555
O14_2 Pb16_2 1_555 1_555
O28_2 Pb14 1_555 1_555
O29_2 Pb8_2 1_555 1_555
O31_2 Pb10 1_555 1_555
O33_2 Pb8_2 1_555 1_555
O34_2 Pb14 1_555 1_555
C1_2 C42_2 1_555 1_555
C38_2 C35_2 1_555 1_555
C39_2 C38_2 1_555 1_555
C40_2 C39_2 1_555 1_555
H21_2 C40_2 1_555 1_555
C41_2 C40_2 1_555 1_555
H22_2 C41_2 1_555 1_555
C42_2 C41_2 1_555 1_555
C43_2 C42_2 1_555 1_555
H23_2 C43_2 1_555 1_555
C44_2 C39_2 1_555 1_555
H24_2 C44_2 1_555 1_555
C45_2 C38_2 1_555 1_555
C46_2 C45_2 1_555 1_555
H25_2 C46_2 1_555 1_555
C47_2 C46_2 1_555 1_555
H26_2 C47_2 1_555 1_555
C48_2 C47_2 1_555 1_555
C50_2 C48_2 1_555 1_555
H27_2 C50_2 1_555 1_555
C51_2 C45_2 1_555 1_555
H28_2 C51_2 1_555 1_555
C52_2 C38_2 1_555 1_555
C53_2 C52_2 1_555 1_555
H29_2 C53_2 1_555 1_555
C54_2 C53_2 1_555 1_555
H30_2 C54_2 1_555 1_555
C57_2 C52_2 1_555 1_555
H32_2 C57_2 1_555 1_555
O2_2 C1_2 1_555 1_555
O3_2 C1_2 1_555 1_555
Pb11 O2_2 1_555 1_555
C43_2 C44_2 1_555 1_555
C50_2 C51_2 1_555 1_555
O3_2 Pb11 1_555 1_555
C2_2 C3_2 1_555 1_555
C3_2 C4_2 1_555 1_555
C4_2 H1_2 1_555 1_555
O1_2 C2_2 1_555 1_555
O4_2 C2_2 1_555 1_555
O17_2 Pb2_2 1_555 1_555
O18_2 Pb2_2 1_555 1_555
Pb2_2 O1_2 1_555 1_555
O22_2 Pb2_2 1_555 1_555
O30_2 Pb2_2 1_555 1_555
O4_2 Pb2_2 1_555 1_555
Pb2_2 O21_2 1_555 1_555
Pb2_2 O23_2 1_555 1_555
O26_2 Pb5 1_555 1_555
O20_2 H33_2 1_555 1_555
O18_2 H37_2 1_555 1_555
O18_2 H38_2 1_555 1_555
O17_2 H39_2 1_555 1_555
O17_2 H40_2 1_555 1_555
C56_2 C55_2 1_555 1_555
H31_2 C56_2 1_555 1_555
C58_2 C55_2 1_555 1_555
O15_2 C58_2 1_555 1_555
O16_2 C58_2 1_555 1_555
Pb5 O15_2 1_555 1_555
Pb12_2 O15_2 1_555 1_555
O16_2 Pb12_2 1_555 1_555
C1_3 C42_3 1_555 1_555
C41_3 C40_3 1_555 1_555
H22_3 C41_3 1_555 1_555
C42_3 C41_3 1_555 1_555
C43_3 C42_3 1_555 1_555
H23_3 C43_3 1_555 1_555
H24_3 C44_3 1_555 1_555
O2_3 C1_3 1_555 1_555
O3_3 C1_3 1_555 1_555
O7_3 C21_3 1_555 1_555
O8_3 C21_3 1_555 1_555
Pb8 O2_3 1_555 1_555
Pb10_2 O2_3 1_555 1_555
Pb14_2 O7_3 1_555 1_555
C43_3 C44_3 1_555 1_555
O3_3 Pb10_2 1_555 1_555
O8_3 Pb14_2 1_555 1_555
C2_3 C3_3 1_555 1_555
H3_3 C7_3 1_555 1_555
C8_3 C3_3 1_555 1_555
H4_3 C8_3 1_555 1_555
H10_3 C19_3 1_555 1_555
C20_3 C19_3 1_555 1_555
C22_3 C20_3 1_555 1_555
H11_3 C22_3 1_555 1_555
H12_3 C23_3 1_555 1_555
C31_3 C32_3 1_555 1_555
C32_3 C33_3 1_555 1_555
C33_3 H17_3 1_555 1_555
C34_3 C33_3 1_555 1_555
H18_3 C34_3 1_555 1_555
C35_3 C34_3 1_555 1_555
C36_3 C35_3 1_555 1_555
H19_3 C36_3 1_555 1_555
C37_3 C32_3 1_555 1_555
H20_3 C37_3 1_555 1_555
C38_3 C35_3 1_555 1_555
C39_3 C38_3 1_555 1_555
C45_3 C38_3 1_555 1_555
C46_3 C45_3 1_555 1_555
H25_3 C46_3 1_555 1_555
C47_3 C46_3 1_555 1_555
H26_3 C47_3 1_555 1_555
C48_3 C47_3 1_555 1_555
C49_3 C48_3 1_555 1_555
C50_3 C48_3 1_555 1_555
H27_3 C50_3 1_555 1_555
C51_3 C45_3 1_555 1_555
H28_3 C51_3 1_555 1_555
C52_3 C38_3 1_555 1_555
C53_3 C52_3 1_555 1_555
H29_3 C53_3 1_555 1_555
C54_3 C53_3 1_555 1_555
H30_3 C54_3 1_555 1_555
C55_3 C54_3 1_555 1_555
C56_3 C55_3 1_555 1_555
H31_3 C56_3 1_555 1_555
C57_3 C52_3 1_555 1_555
H32_3 C57_3 1_555 1_555
C58_3 C55_3 1_555 1_555
O1_3 C2_3 1_555 1_555
O4_3 C2_3 1_555 1_555
O11_3 C31_3 1_555 1_555
O12_3 C31_3 1_555 1_555
O30_2 C49_3 1_555 1_555
O14_3 C49_3 1_555 1_555
O33_2 C58_3 1_555 1_555
O35_2 C58_3 1_555 1_555
O17_3 Pb9_2 1_555 1_555
O18_3 Pb9_2 1_555 1_555
Pb1_3 O1_3 1_555 1_555
Pb9_2 O1_3 1_555 1_555
O21_3 Pb1_3 1_555 1_555
O22_3 Pb9_2 1_555 1_555
O23_3 Pb1_3 1_555 1_555
O27_3 Pb1_3 1_555 1_555
O28_3 Pb1_3 1_555 1_555
O34_3 Pb1_3 1_555 1_555
Pb13_2 O11_3 1_555 1_555
Pb16_3 O30_2 1_555 1_555
C7_3 C8_3 1_555 1_555
C22_3 C23_3 1_555 1_555
C36_3 C37_3 1_555 1_555
C50_3 C51_3 1_555 1_555
C56_3 C57_3 1_555 1_555
O4_3 Pb9_2 1_555 1_555
O11_3 Pb1_3 1_555 1_555
O12_3 Pb1_3 1_555 1_555
O14_3 Pb16_3 1_555 1_555
Pb9_2 O21_3 1_555 1_555
Pb9_2 O23_3 1_555 1_555
O28_3 Pb13_2 1_555 1_555
O34_3 Pb13_2 1_555 1_555
O18_3 H37_3 1_555 1_555
O18_3 H38_3 1_555 1_555
O17_3 H39_3 1_555 1_555
O17_3 H40_3 1_555 1_555
C4_3 H1_3 1_555 1_555
C5_3 C4_3 1_555 1_555
H2_3 C5_3 1_555 1_555
C6_3 C5_3 1_555 1_555
C9_3 C6_3 1_555 1_555
C10_3 C9_3 1_555 1_555
C11_3 C10_3 1_555 1_555
H5_3 C11_3 1_555 1_555
C12_3 C11_3 1_555 1_555
H6_3 C12_3 1_555 1_555
C13_3 C12_3 1_555 1_555
C14_3 C13_3 1_555 1_555
C15_3 C13_3 1_555 1_555
H7_3 C15_3 1_555 1_555
C16_3 C10_3 1_555 1_555
H8_3 C16_3 1_555 1_555
C17_3 C9_3 1_555 1_555
C18_3 C17_3 1_555 1_555
H9_3 C18_3 1_555 1_555
C24_3 C9_3 1_555 1_555
C25_3 C24_3 1_555 1_555
H13_3 C25_3 1_555 1_555
C26_3 C25_3 1_555 1_555
H14_3 C26_3 1_555 1_555
C27_3 C26_3 1_555 1_555
C28_3 C27_3 1_555 1_555
C29_3 C27_3 1_555 1_555
H15_3 C29_3 1_555 1_555
C30_3 C24_3 1_555 1_555
H16_3 C30_3 1_555 1_555
O5_3 C14_3 1_555 1_555
O6_3 C14_3 1_555 1_555
O26_2 C28_3 1_555 1_555
O10_3 C28_3 1_555 1_555
Pb12_2 O10_3 1_555 1_555
O19_2 Pb15_2 1_555 1_555
O20_3 Pb15_2 1_555 1_555
Pb15_2 O5_3 1_555 1_555
O24_3 Pb12_2 1_555 1_555
O25_3 Pb12_2 1_555 1_555
O29_3 Pb12_2 1_555 1_555
O31_3 Pb15_2 1_555 1_555
O32_3 Pb15_2 1_555 1_555
Pb8_2 O5_3 1_555 1_555
Pb11_2 O5_3 1_555 1_555
C15_3 C16_3 1_555 1_555
C29_3 C30_3 1_555 1_555
O6_3 Pb15_2 1_555 1_555
O10_3 Pb5 1_555 1_555
O29_3 Pb5 1_555 1_555
O31_3 Pb11_2 1_555 1_555
O20_3 H33_3 1_555 1_555
O20_3 H34_2 1_555 1_555
O19_2 H35_2 1_555 1_555
O19_2 H36_2 1_555 1_555
C2_4 C3_4 1_555 1_555
C3_4 C4_4 1_555 1_555
C4_4 H1_4 1_555 1_555
C5_4 C4_4 1_555 1_555
H2_4 C5_4 1_555 1_555
C6_4 C5_4 1_555 1_555
C7_4 C6_4 1_555 1_555
H3_4 C7_4 1_555 1_555
C8_4 C3_4 1_555 1_555
H4_4 C8_4 1_555 1_555
C9_4 C6_4 1_555 1_555
C10_4 C9_4 1_555 1_555
C11_4 C10_4 1_555 1_555
H5_4 C11_4 1_555 1_555
C12_4 C11_4 1_555 1_555
H6_4 C12_4 1_555 1_555
C13_4 C12_4 1_555 1_555
C14_4 C13_4 1_555 1_555
C15_4 C13_4 1_555 1_555
H7_4 C15_4 1_555 1_555
C16_4 C10_4 1_555 1_555
H8_4 C16_4 1_555 1_555
C17_4 C9_4 1_555 1_555
C18_4 C17_4 1_555 1_555
H9_4 C18_4 1_555 1_555
C19_4 C18_4 1_555 1_555
H10_4 C19_4 1_555 1_555
C20_4 C19_4 1_555 1_555
C22_4 C20_4 1_555 1_555
H11_4 C22_4 1_555 1_555
C23_4 C17_4 1_555 1_555
H12_4 C23_4 1_555 1_555
C24_4 C9_4 1_555 1_555
C25_4 C24_4 1_555 1_555
H13_4 C25_4 1_555 1_555
C26_4 C25_4 1_555 1_555
H14_4 C26_4 1_555 1_555
C27_4 C26_4 1_555 1_555
C28_4 C27_4 1_555 1_555
C29_4 C27_4 1_555 1_555
H15_4 C29_4 1_555 1_555
C30_4 C24_4 1_555 1_555
H16_4 C30_4 1_555 1_555
C31_4 C32_4 1_555 1_555
C32_4 C33_4 1_555 1_555
C33_4 H17_4 1_555 1_555
C34_4 C33_4 1_555 1_555
H18_4 C34_4 1_555 1_555
C37_4 C32_4 1_555 1_555
H20_4 C37_4 1_555 1_555
O1_4 C2_4 1_555 1_555
O4_4 C2_4 1_555 1_555
O5_4 C14_4 1_555 1_555
O6_4 C14_4 1_555 1_555
O26 C28_4 1_555 1_555
O10_4 C28_4 1_555 1_555
O11_4 C31_4 1_555 1_555
O12_4 C31_4 1_555 1_555
O30 C49_4 1_555 1_555
O14_4 C49_4 1_555 1_555
O17_4 Pb9 1_555 1_555
O18_4 Pb9 1_555 1_555
Pb1_4 O1_4 1_555 1_555
Pb9 O1_4 1_555 1_555
Pb12 O10_4 1_555 1_555
O20_4 Pb15 1_555 1_555
Pb15 O5_4 1_555 1_555
O21_4 Pb1_4 1_555 1_555
O22_4 Pb9 1_555 1_555
O23_4 Pb1_4 1_555 1_555
O24_4 Pb12 1_555 1_555
O25_4 Pb12 1_555 1_555
O27_4 Pb1_4 1_555 1_555
O28_4 Pb1_4 1_555 1_555
O29_4 Pb12 1_555 1_555
O31_4 Pb15 1_555 1_555
O32_4 Pb15 1_555 1_555
O34_4 Pb1_4 1_555 1_555
Pb8 O5_4 1_555 1_555
Pb10_2 O5_4 1_555 1_555
Pb14_2 O11_4 1_555 1_555
Pb16_4 O30 1_555 1_555
C7_4 C8_4 1_555 1_555
C15_4 C16_4 1_555 1_555
C22_4 C23_4 1_555 1_555
C29_4 C30_4 1_555 1_555
C36_4 C37_4 1_555 1_555
O4_4 Pb9 1_555 1_555
O6_4 Pb15 1_555 1_555
O10_4 Pb7 1_555 1_555
O11_4 Pb1_4 1_555 1_555
O12_4 Pb1_4 1_555 1_555
O14_4 Pb16_4 1_555 1_555
Pb9 O21_4 1_555 1_555
Pb9 O23_4 1_555 1_555
O28_4 Pb14_2 1_555 1_555
O29_4 Pb7 1_555 1_555
O31_4 Pb10_2 1_555 1_555
O34_4 Pb14_2 1_555 1_555
O20_4 H33_4 1_555 1_555
O18_4 H37_4 1_555 1_555
O18_4 H38_4 1_555 1_555
O17_4 H39_4 1_555 1_555
O17_4 H40_4 1_555 1_555
C38_4 C35_4 1_555 1_555
C39_4 C38_4 1_555 1_555
C45_4 C38_4 1_555 1_555
C46_4 C45_4 1_555 1_555
H25_4 C46_4 1_555 1_555
C47_4 C46_4 1_555 1_555
H26_4 C47_4 1_555 1_555
C48_4 C47_4 1_555 1_555
C50_4 C48_4 1_555 1_555
H27_4 C50_4 1_555 1_555
C51_4 C45_4 1_555 1_555
H28_4 C51_4 1_555 1_555
C52_4 C38_4 1_555 1_555
C53_4 C52_4 1_555 1_555
H29_4 C53_4 1_555 1_555
C54_4 C53_4 1_555 1_555
H30_4 C54_4 1_555 1_555
C55_4 C54_4 1_555 1_555
C56_4 C55_4 1_555 1_555
H31_4 C56_4 1_555 1_555
C57_4 C52_4 1_555 1_555
H32_4 C57_4 1_555 1_555
C58_4 C55_4 1_555 1_555
O33 C58_4 1_555 1_555
O35 C58_4 1_555 1_555
C50_4 C51_4 1_555 1_555
C56_4 C57_4 1_555 1_555
O7_4 C21_4 1_555 1_555
O8_4 C21_4 1_555 1_555
Pb13_2 O7_4 1_555 1_555
O8_4 Pb13_2 1_555 1_555
C1_4 C42_4 1_555 1_555
C41_4 C40_4 1_555 1_555
H22_4 C41_4 1_555 1_555
C42_4 C41_4 1_555 1_555
C43_4 C42_4 1_555 1_555
H23_4 C43_4 1_555 1_555
H24_4 C44_4 1_555 1_555
O2_4 C1_4 1_555 1_555
O3_4 C1_4 1_555 1_555
Pb8_2 O2_4 1_555 1_555
Pb11_2 O2_4 1_555 1_555
C43_4 C44_4 1_555 1_555
O3_4 Pb11_2 1_555 1_555
C4_5 H1_5 1_555 1_555
O20_5 H33_5 1_555 1_555
O20_5 H34_3 1_555 1_555
C2_5 C3_5 1_555 1_555
C56_5 C55_5 1_555 1_555
H31_5 C56_5 1_555 1_555
C58_5 C55_5 1_555 1_555
O1_5 C2_5 1_555 1_555
O4_5 C2_5 1_555 1_555
O34_2 C58_5 1_555 1_555
O16_3 C58_5 1_555 1_555
O17_5 Pb10 1_555 1_555
O18_5 Pb10 1_555 1_555
Pb10 O1_5 1_555 1_555
O4_5 Pb10 1_555 1_555
O16_3 Pb14 1_555 1_555
O18_5 H37_5 1_555 1_555
O18_5 H38_5 1_555 1_555
O17_5 H39_5 1_555 1_555
O17_5 H40_5 1_555 1_555
H2_5 C5_5 1_555 1_555
C6_5 C5_5 1_555 1_555
C9_5 C6_5 1_555 1_555
C10_5 C9_5 1_555 1_555
C11_5 C10_5 1_555 1_555
H5_5 C11_5 1_555 1_555
C12_5 C11_5 1_555 1_555
H6_5 C12_5 1_555 1_555
C13_5 C12_5 1_555 1_555
C14_5 C13_5 1_555 1_555
C15_5 C13_5 1_555 1_555
H7_5 C15_5 1_555 1_555
C16_5 C10_5 1_555 1_555
H8_5 C16_5 1_555 1_555
C17_5 C9_5 1_555 1_555
C18_5 C17_5 1_555 1_555
H9_5 C18_5 1_555 1_555
C24_5 C9_5 1_555 1_555
C25_5 C24_5 1_555 1_555
H13_5 C25_5 1_555 1_555
C26_5 C25_5 1_555 1_555
H14_5 C26_5 1_555 1_555
C27_5 C26_5 1_555 1_555
C28_5 C27_5 1_555 1_555
C29_5 C27_5 1_555 1_555
H15_5 C29_5 1_555 1_555
C30_5 C24_5 1_555 1_555
H16_5 C30_5 1_555 1_555
O23_2 C14_5 1_555 1_555
O6_5 C14_5 1_555 1_555
O27_3 C28_5 1_555 1_555
O28_3 C28_5 1_555 1_555
O19_3 Pb16_3 1_555 1_555
Pb16_3 O23_2 1_555 1_555
O35_3 Pb13_2 1_555 1_555
Pb16_2 O27_3 1_555 1_555
C15_5 C16_5 1_555 1_555
C29_5 C30_5 1_555 1_555
O6_5 Pb16_3 1_555 1_555
O19_3 H35_3 1_555 1_555
C1_5 C42_5 1_555 1_555
H3_5 C7_5 1_555 1_555
H4_5 C8_5 1_555 1_555
H10_5 C19_5 1_555 1_555
C20_5 C19_5 1_555 1_555
C21_5 C20_5 1_555 1_555
C22_5 C20_5 1_555 1_555
H11_5 C22_5 1_555 1_555
H12_5 C23_5 1_555 1_555
C31_5 C32_5 1_555 1_555
C32_5 C33_5 1_555 1_555
C33_5 H17_5 1_555 1_555
C34_5 C33_5 1_555 1_555
H18_5 C34_5 1_555 1_555
C35_5 C34_5 1_555 1_555
C36_5 C35_5 1_555 1_555
H19_5 C36_5 1_555 1_555
C37_5 C32_5 1_555 1_555
H20_5 C37_5 1_555 1_555
C38_5 C35_5 1_555 1_555
C39_5 C38_5 1_555 1_555
C40_5 C39_5 1_555 1_555
H21_5 C40_5 1_555 1_555
C41_5 C40_5 1_555 1_555
H22_5 C41_5 1_555 1_555
C42_5 C41_5 1_555 1_555
C43_5 C42_5 1_555 1_555
H23_5 C43_5 1_555 1_555
C44_5 C39_5 1_555 1_555
H24_5 C44_5 1_555 1_555
C45_5 C38_5 1_555 1_555
C46_5 C45_5 1_555 1_555
H25_5 C46_5 1_555 1_555
C47_5 C46_5 1_555 1_555
H26_5 C47_5 1_555 1_555
C48_5 C47_5 1_555 1_555
C49_5 C48_5 1_555 1_555
C50_5 C48_5 1_555 1_555
H27_5 C50_5 1_555 1_555
C51_5 C45_5 1_555 1_555
H28_5 C51_5 1_555 1_555
C52_5 C38_5 1_555 1_555
C53_5 C52_5 1_555 1_555
H29_5 C53_5 1_555 1_555
C54_5 C53_5 1_555 1_555
H30_5 C54_5 1_555 1_555
C57_5 C52_5 1_555 1_555
H32_5 C57_5 1_555 1_555
O21 C1_5 1_555 1_555
O22 C1_5 1_555 1_555
O24_4 C21_5 1_555 1_555
O25_4 C21_5 1_555 1_555
O29_3 C31_5 1_555 1_555
O12_5 C31_5 1_555 1_555
O31_3 C49_5 1_555 1_555
O32_3 C49_5 1_555 1_555
C7_5 C8_5 1_555 1_555
C22_5 C23_5 1_555 1_555
C36_5 C37_5 1_555 1_555
C43_5 C44_5 1_555 1_555
C50_5 C51_5 1_555 1_555
O12_5 Pb5 1_555 1_555
C56_6 C55_6 1_555 1_555
H31_6 C56_6 1_555 1_555
C58_6 C55_6 1_555 1_555
O34 C58_6 1_555 1_555
O16_4 C58_6 1_555 1_555
O16_4 Pb13 1_555 1_555
C2_6 C3_6 1_555 1_555
C3_6 C4_6 1_555 1_555
C4_6 H1_6 1_555 1_555
O1_6 C2_6 1_555 1_555
O4_6 C2_6 1_555 1_555
O17_6 Pb11 1_555 1_555
O18_6 Pb11 1_555 1_555
Pb11 O1_6 1_555 1_555
O4_6 Pb11 1_555 1_555
O20_6 H33_6 1_555 1_555
O18_6 H37_6 1_555 1_555
O18_6 H38_6 1_555 1_555
O17_6 H39_6 1_555 1_555
O17_6 H40_6 1_555 1_555
C1_6 C42_6 1_555 1_555
C38_6 C35_6 1_555 1_555
C39_6 C38_6 1_555 1_555
C40_6 C39_6 1_555 1_555
H21_6 C40_6 1_555 1_555
C41_6 C40_6 1_555 1_555
H22_6 C41_6 1_555 1_555
C42_6 C41_6 1_555 1_555
C43_6 C42_6 1_555 1_555
H23_6 C43_6 1_555 1_555
C44_6 C39_6 1_555 1_555
H24_6 C44_6 1_555 1_555
C45_6 C38_6 1_555 1_555
C46_6 C45_6 1_555 1_555
H25_6 C46_6 1_555 1_555
C47_6 C46_6 1_555 1_555
H26_6 C47_6 1_555 1_555
C48_6 C47_6 1_555 1_555
C50_6 C48_6 1_555 1_555
H27_6 C50_6 1_555 1_555
C51_6 C45_6 1_555 1_555
H28_6 C51_6 1_555 1_555
C52_6 C38_6 1_555 1_555
C53_6 C52_6 1_555 1_555
H29_6 C53_6 1_555 1_555
C54_6 C53_6 1_555 1_555
H30_6 C54_6 1_555 1_555
C57_6 C52_6 1_555 1_555
H32_6 C57_6 1_555 1_555
O21_2 C1_6 1_555 1_555
O22_2 C1_6 1_555 1_555
C43_6 C44_6 1_555 1_555
C50_6 C51_6 1_555 1_555
H2_6 C5_6 1_555 1_555
C6_6 C5_6 1_555 1_555
C7_6 C6_6 1_555 1_555
H3_6 C7_6 1_555 1_555
H4_6 C8_6 1_555 1_555
C9_6 C6_6 1_555 1_555
C10_6 C9_6 1_555 1_555
C11_6 C10_6 1_555 1_555
H5_6 C11_6 1_555 1_555
C12_6 C11_6 1_555 1_555
H6_6 C12_6 1_555 1_555
C13_6 C12_6 1_555 1_555
C14_6 C13_6 1_555 1_555
C15_6 C13_6 1_555 1_555
H7_6 C15_6 1_555 1_555
C16_6 C10_6 1_555 1_555
H8_6 C16_6 1_555 1_555
C17_6 C9_6 1_555 1_555
C18_6 C17_6 1_555 1_555
H9_6 C18_6 1_555 1_555
C19_6 C18_6 1_555 1_555
H10_6 C19_6 1_555 1_555
C20_6 C19_6 1_555 1_555
C21_6 C20_6 1_555 1_555
C22_6 C20_6 1_555 1_555
H11_6 C22_6 1_555 1_555
C23_6 C17_6 1_555 1_555
H12_6 C23_6 1_555 1_555
C24_6 C9_6 1_555 1_555
C25_6 C24_6 1_555 1_555
H13_6 C25_6 1_555 1_555
C26_6 C25_6 1_555 1_555
H14_6 C26_6 1_555 1_555
C27_6 C26_6 1_555 1_555
C28_6 C27_6 1_555 1_555
C29_6 C27_6 1_555 1_555
H15_6 C29_6 1_555 1_555
C30_6 C24_6 1_555 1_555
H16_6 C30_6 1_555 1_555
C31_6 C32_6 1_555 1_555
C32_6 C33_6 1_555 1_555
C33_6 H17_6 1_555 1_555
C34_6 C33_6 1_555 1_555
H18_6 C34_6 1_555 1_555
C37_6 C32_6 1_555 1_555
H20_6 C37_6 1_555 1_555
O23 C14_6 1_555 1_555
O6_6 C14_6 1_555 1_555
O24_3 C21_6 1_555 1_555
O25_3 C21_6 1_555 1_555
O27_4 C28_6 1_555 1_555
O28_4 C28_6 1_555 1_555
O29_4 C31_6 1_555 1_555
O12_6 C31_6 1_555 1_555
O31_4 C49_6 1_555 1_555
O32_4 C49_6 1_555 1_555
Pb16_4 O23 1_555 1_555
O35_4 Pb14_2 1_555 1_555
Pb16 O27_4 1_555 1_555
C7_6 C8_6 1_555 1_555
C15_6 C16_6 1_555 1_555
C22_6 C23_6 1_555 1_555
C29_6 C30_6 1_555 1_555
C36_6 C37_6 1_555 1_555
O6_6 Pb16_4 1_555 1_555
O12_6 Pb7 1_555 1_555
C4_7 H1_7 1_555 1_555
C5_7 C4_7 1_555 1_555
H2_7 C5_7 1_555 1_555
C6_7 C5_7 1_555 1_555
C9_7 C6_7 1_555 1_555
C10_7 C9_7 1_555 1_555
C11_7 C10_7 1_555 1_555
H5_7 C11_7 1_555 1_555
C12_7 C11_7 1_555 1_555
H6_7 C12_7 1_555 1_555
C13_7 C12_7 1_555 1_555
C14_7 C13_7 1_555 1_555
C15_7 C13_7 1_555 1_555
H7_7 C15_7 1_555 1_555
C16_7 C10_7 1_555 1_555
H8_7 C16_7 1_555 1_555
C17_7 C9_7 1_555 1_555
C18_7 C17_7 1_555 1_555
H9_7 C18_7 1_555 1_555
C24_7 C9_7 1_555 1_555
C25_7 C24_7 1_555 1_555
H13_7 C25_7 1_555 1_555
C26_7 C25_7 1_555 1_555
H14_7 C26_7 1_555 1_555
C27_7 C26_7 1_555 1_555
C28_7 C27_7 1_555 1_555
C29_7 C27_7 1_555 1_555
H15_7 C29_7 1_555 1_555
C30_7 C24_7 1_555 1_555
H16_7 C30_7 1_555 1_555
O23_4 C14_7 1_555 1_555
O6_7 C14_7 1_555 1_555
O27 C28_7 1_555 1_555
O28 C28_7 1_555 1_555
O19_4 Pb16 1_555 1_555
O20_7 Pb16 1_555 1_555
Pb16 O23_4 1_555 1_555
C15_7 C16_7 1_555 1_555
C29_7 C30_7 1_555 1_555
O6_7 Pb16 1_555 1_555
O20_7 H33_7 1_555 1_555
O20_7 H34_4 1_555 1_555
O19_4 H35_4 1_555 1_555
O19_4 H36_4 1_555 1_555
C2_7 C3_7 1_555 1_555
H3_7 C7_7 1_555 1_555
C8_7 C3_7 1_555 1_555
H4_7 C8_7 1_555 1_555
H10_7 C19_7 1_555 1_555
C20_7 C19_7 1_555 1_555
C22_7 C20_7 1_555 1_555
H11_7 C22_7 1_555 1_555
H12_7 C23_7 1_555 1_555
C31_7 C32_7 1_555 1_555
C32_7 C33_7 1_555 1_555
C33_7 H17_7 1_555 1_555
C34_7 C33_7 1_555 1_555
H18_7 C34_7 1_555 1_555
C35_7 C34_7 1_555 1_555
C36_7 C35_7 1_555 1_555
H19_7 C36_7 1_555 1_555
C37_7 C32_7 1_555 1_555
H20_7 C37_7 1_555 1_555
C38_7 C35_7 1_555 1_555
C39_7 C38_7 1_555 1_555
C45_7 C38_7 1_555 1_555
C46_7 C45_7 1_555 1_555
H25_7 C46_7 1_555 1_555
C47_7 C46_7 1_555 1_555
H26_7 C47_7 1_555 1_555
C48_7 C47_7 1_555 1_555
C49_7 C48_7 1_555 1_555
C50_7 C48_7 1_555 1_555
H27_7 C50_7 1_555 1_555
C51_7 C45_7 1_555 1_555
H28_7 C51_7 1_555 1_555
C52_7 C38_7 1_555 1_555
C53_7 C52_7 1_555 1_555
H29_7 C53_7 1_555 1_555
C54_7 C53_7 1_555 1_555
H30_7 C54_7 1_555 1_555
C55_7 C54_7 1_555 1_555
C56_7 C55_7 1_555 1_555
H31_7 C56_7 1_555 1_555
C57_7 C52_7 1_555 1_555
H32_7 C57_7 1_555 1_555
C58_7 C55_7 1_555 1_555
O1_7 C2_7 1_555 1_555
O4_7 C2_7 1_555 1_555
O29 C31_7 1_555 1_555
O12_7 C31_7 1_555 1_555
O31 C49_7 1_555 1_555
O32 C49_7 1_555 1_555
O34_4 C58_7 1_555 1_555
O35_4 C58_7 1_555 1_555
O17_7 Pb10_2 1_555 1_555
O18_7 Pb10_2 1_555 1_555
Pb8 O1_7 1_555 1_555
Pb10_2 O1_7 1_555 1_555
C7_7 C8_7 1_555 1_555
C22_7 C23_7 1_555 1_555
C36_7 C37_7 1_555 1_555
C50_7 C51_7 1_555 1_555
C56_7 C57_7 1_555 1_555
O4_7 Pb10_2 1_555 1_555
O12_7 Pb8 1_555 1_555
O18_7 H37_7 1_555 1_555
O18_7 H38_7 1_555 1_555
O17_7 H39_7 1_555 1_555
O17_7 H40_7 1_555 1_555
C1_7 C42_7 1_555 1_555
C41_7 C40_7 1_555 1_555
H22_7 C41_7 1_555 1_555
C42_7 C41_7 1_555 1_555
C43_7 C42_7 1_555 1_555
H23_7 C43_7 1_555 1_555
H24_7 C44_7 1_555 1_555
O21_3 C1_7 1_555 1_555
O22_3 C1_7 1_555 1_555
O24_2 C21_7 1_555 1_555
O25_2 C21_7 1_555 1_555
C43_7 C44_7 1_555 1_555
C1_8 C42_8 1_555 1_555
C41_8 C40_8 1_555 1_555
H22_8 C41_8 1_555 1_555
C42_8 C41_8 1_555 1_555
C43_8 C42_8 1_555 1_555
H23_8 C43_8 1_555 1_555
H24_8 C44_8 1_555 1_555
O21_4 C1_8 1_555 1_555
O22_4 C1_8 1_555 1_555
C43_8 C44_8 1_555 1_555
O24 C21_8 1_555 1_555
O25 C21_8 1_555 1_555
C38_8 C35_8 1_555 1_555
C39_8 C38_8 1_555 1_555
C45_8 C38_8 1_555 1_555
C46_8 C45_8 1_555 1_555
H25_8 C46_8 1_555 1_555
C47_8 C46_8 1_555 1_555
H26_8 C47_8 1_555 1_555
C48_8 C47_8 1_555 1_555
C50_8 C48_8 1_555 1_555
H27_8 C50_8 1_555 1_555
C51_8 C45_8 1_555 1_555
H28_8 C51_8 1_555 1_555
C52_8 C38_8 1_555 1_555
C53_8 C52_8 1_555 1_555
H29_8 C53_8 1_555 1_555
C54_8 C53_8 1_555 1_555
H30_8 C54_8 1_555 1_555
C55_8 C54_8 1_555 1_555
C56_8 C55_8 1_555 1_555
H31_8 C56_8 1_555 1_555
C57_8 C52_8 1_555 1_555
H32_8 C57_8 1_555 1_555
C58_8 C55_8 1_555 1_555
O34_3 C58_8 1_555 1_555
O35_3 C58_8 1_555 1_555
C50_8 C51_8 1_555 1_555
C56_8 C57_8 1_555 1_555
C2_8 C3_8 1_555 1_555
C3_8 C4_8 1_555 1_555
C4_8 H1_8 1_555 1_555
C5_8 C4_8 1_555 1_555
H2_8 C5_8 1_555 1_555
C6_8 C5_8 1_555 1_555
C7_8 C6_8 1_555 1_555
H3_8 C7_8 1_555 1_555
C8_8 C3_8 1_555 1_555
H4_8 C8_8 1_555 1_555
C9_8 C6_8 1_555 1_555
C10_8 C9_8 1_555 1_555
C11_8 C10_8 1_555 1_555
H5_8 C11_8 1_555 1_555
C12_8 C11_8 1_555 1_555
H6_8 C12_8 1_555 1_555
C13_8 C12_8 1_555 1_555
C14_8 C13_8 1_555 1_555
C15_8 C13_8 1_555 1_555
H7_8 C15_8 1_555 1_555
C16_8 C10_8 1_555 1_555
H8_8 C16_8 1_555 1_555
C17_8 C9_8 1_555 1_555
C18_8 C17_8 1_555 1_555
H9_8 C18_8 1_555 1_555
C19_8 C18_8 1_555 1_555
H10_8 C19_8 1_555 1_555
C20_8 C19_8 1_555 1_555
C22_8 C20_8 1_555 1_555
H11_8 C22_8 1_555 1_555
C23_8 C17_8 1_555 1_555
H12_8 C23_8 1_555 1_555
C24_8 C9_8 1_555 1_555
C25_8 C24_8 1_555 1_555
H13_8 C25_8 1_555 1_555
C26_8 C25_8 1_555 1_555
H14_8 C26_8 1_555 1_555
C27_8 C26_8 1_555 1_555
C28_8 C27_8 1_555 1_555
C29_8 C27_8 1_555 1_555
H15_8 C29_8 1_555 1_555
C30_8 C24_8 1_555 1_555
H16_8 C30_8 1_555 1_555
C31_8 C32_8 1_555 1_555
C32_8 C33_8 1_555 1_555
C33_8 H17_8 1_555 1_555
C34_8 C33_8 1_555 1_555
H18_8 C34_8 1_555 1_555
C37_8 C32_8 1_555 1_555
H20_8 C37_8 1_555 1_555
O1_8 C2_8 1_555 1_555
O4_8 C2_8 1_555 1_555
O23_3 C14_8 1_555 1_555
O6_8 C14_8 1_555 1_555
O27_2 C28_8 1_555 1_555
O28_2 C28_8 1_555 1_555
O29_2 C31_8 1_555 1_555
O12_8 C31_8 1_555 1_555
O31_2 C49_8 1_555 1_555
O32_2 C49_8 1_555 1_555
O17_8 Pb11_2 1_555 1_555
O18_8 Pb11_2 1_555 1_555
Pb8_2 O1_8 1_555 1_555
Pb11_2 O1_8 1_555 1_555
O20_8 Pb16_2 1_555 1_555
Pb16_2 O23_3 1_555 1_555
C7_8 C8_8 1_555 1_555
C15_8 C16_8 1_555 1_555
C22_8 C23_8 1_555 1_555
C29_8 C30_8 1_555 1_555
C36_8 C37_8 1_555 1_555
O4_8 Pb11_2 1_555 1_555
O6_8 Pb16_2 1_555 1_555
O12_8 Pb8_2 1_555 1_555
O20_8 H33_8 1_555 1_555
O18_8 H37_8 1_555 1_555
O18_8 H38_8 1_555 1_555
O17_8 H39_8 1_555 1_555
O17_8 H40_8 1_555 1_555
O19_5 H35_5 1_555 1_555
O19_6 H35_6 1_555 1_555
O19_6 H36_6 1_555 1_555
O19_7 H35_7 1_555 1_555
O19_8 H35_8 1_555 1_555
O19_8 H36_8 1_555 1_555

#END
