
###############################################################################
#
# This file contains modified crystal structure data generated from the
# MOF subset of the Cambridge Structural Database (CSD) v543 
# hosted by the Cambridge Crystallographic Data Centre (CCDC).
#
# This work is licensed under the Creative Commons
# Attribution-NonCommercial-ShareAlike 4.0 International License.
# To view a copy of this license, visit
# http://creativecommons.org/licenses/by-nc-sa/4.0/
# or send a letter to
# Creative Commons, PO Box 1866, Mountain View, CA 94042, USA.
#
# CIF created using the CSD Python API on 29 September 2022
# The structure has been converted into the P1 space group
# The structure has a 3D framework
# The original CSD entry YERLIT is in the rhombohedral crystal system
# The framework has been calculated to contain at least 10.0% void space
# The void calculation uses a probe of radius 1.32A, grid spacing 0.4
# H atom positions have been added when not included in the experimental data
#
###############################################################################

data_YERLIT
_chemical_formula_moiety         '(C432 H324 Cu36 O204)n'
_symmetry_cell_setting           triclinic
_symmetry_space_group_name_H-M   'P 1'
_symmetry_Int_Tables_number      1
_space_group_name_Hall           'P 1'
loop_
_symmetry_equiv_pos_site_id
_symmetry_equiv_pos_as_xyz
1 x,y,z
_cell_length_a                   20.365(4)
_cell_length_b                   20.365(4)
_cell_length_c                   43.165(17)
_cell_angle_alpha                90
_cell_angle_beta                 90
_cell_angle_gamma                120
_cell_volume                     15503.6
loop_
_atom_site_label
_atom_site_type_symbol
_atom_site_fract_x
_atom_site_fract_y
_atom_site_fract_z
Cu1 Cu 0.11853(6) 0.26860(6) 0.07504(2)
O1 O 0.2349(4) 0.3777(4) 0.12339(13)
H3 H 0.0656 0.0017 0.2347
C7 C 0.1639(8) 0.0597(7) 0.1778(3)
H5 H 0.1779 0.0456 0.1585
H6 H 0.1256 0.0737 0.1738
C8 C 0.2482(7) 0.1939(6) 0.1847(3)
C9 C 0.3068(6) 0.2511(6) 0.2044(2)
H7 H 0.3301 0.2378 0.2198
C10 C 0.3263(6) 0.3242(5) 0.19974(19)
C11 C 0.2938(5) 0.3433(5) 0.17504(18)
H8 H 0.3085 0.3938 0.1715
C12 C 0.2408(5) 0.2882(5) 0.1561(2)
C13 C 0.2180(6) 0.2108(6) 0.1614(2)
H9 H 0.1825 0.1730 0.1486
C14 C 0.2107(6) 0.3075(6) 0.12945(18)
C15 C 0.3837(6) 0.3857(6) 0.21982(19)
Cu2 Cu 0.20115(6) 0.41324(6) 0.08848(2)
O2 O 0.1615(4) 0.2533(3) 0.11309(12)
O3 O 0.3838(4) 0.4466(4) 0.22097(12)
O4 O 0.4328(4) 0.3744(3) 0.23324(14)
O5 O 0.2321(5) 0.1223(4) 0.1941(2)
O6 O 0.2645(5) 0.5312(4) 0.09882(16)
H10 H 0.2833 0.5372 0.1161
O7 O 0.0526(6) 0.1487(4) 0.06342(18)
H11 H 0.0535 0.1434 0.0446
C17 C 0.2942(6) 0.0668(6) 0.3679(2)
C18 C 0.2814(6) 0.0173(6) 0.34045(18)
C19 C 0.3411(5) 0.0240(6) 0.32254(18)
H14 H 0.3902 0.0628 0.3266
O9 O 0.2424(4) 0.0632(4) 0.38415(13)
O10 O 0.3635(4) 0.1153(4) 0.37289(12)
O11 O 0.4557(3) 0.0450(4) 0.28099(13)
Cu3 Cu 0.39807(6) 0.18326(8) 0.40837(2)
Cu4 Cu 0.54814(6) 0.06473(6) 0.25829(2)
Cu5 Cu 0.51660(8) 0.45186(6) 0.25829(2)
Cu6 Cu 0.25343(6) 0.12124(8) 0.42181(2)
Cu8 Cu 0.45458(8) 0.53448(6) 0.24485(2)
O13 O 0.1133(4) 0.3961(6) 0.11236(12)
O14 O 0.0411(3) 0.2749(5) 0.10009(14)
O15 O 0.1541(6) 0.4243(4) 0.05082(13)
O16 O 0.0851(6) 0.3032(4) 0.03956(12)
O17 O 0.2110(3) 0.2883(4) 0.05234(13)
O18 O 0.2806(3) 0.4124(4) 0.06478(14)
H17 H 0.230377 0.552908 0.0982943
C1 C 0.1200(7) 0.8782(5) 0.2449(2)
C2 C 0.1643(6) 0.8939(5) 0.2184(3)
H1 H 0.1890 0.8669 0.2143
C3 C 0.1716(6) 0.9500(6) 0.19804(19)
H2 H 0.2012 0.9606 0.1803
C4 C 0.1346(6) 0.9904(4) 0.2041(3)
C5 C 0.0903(6) 0.9747(7) 0.2306(3)
C6 C 0.0830(6) 0.9186(7) 0.2510(2)
H4 H 0.0534 0.9081 0.2687
C16 C 0.1001(10) 0.8181(7) 0.2719(3)
H12 H 0.0464 0.7809 0.2716
H13 H 0.1285 0.7919 0.2693
O8 O 0.1202(4) 0.8594(5) 0.30028(17)
C20 C 0.3285(5) 0.9743(5) 0.29917(18)
C21 C 0.2564(6) 0.9198(6) 0.29193(19)
H15 H 0.2494 0.8863 0.2759
C22 C 0.1940(6) 0.9119(7) 0.3070(2)
C23 C 0.2048(6) 0.9591(6) 0.3327(2)
H16 H 0.1638 0.9531 0.3444
C24 C 0.3957(6) 0.9816(7) 0.28167(19)
O12 O 0.3861(3) 0.9209(4) 0.26855(14)
Cu7 Cu 0.46552(6) 0.92009(6) 0.24485(2)
C1_2 C 0.1218(5) 0.2418(9) 0.2449(2)
C2_2 C 0.1061(5) 0.2704(8) 0.2184(3)
H1_2 H 0.1331 0.3221 0.2143
C3_2 C 0.0500(6) 0.2216(8) 0.19804(19)
H2_2 H 0.0394 0.2406 0.1803
C4_2 C 0.0096(4) 0.1442(7) 0.2041(3)
C5_2 C 0.0253(7) 0.1156(9) 0.2306(3)
C6_2 C 0.0814(7) 0.1644(9) 0.2510(2)
H4_2 H 0.0919 0.1453 0.2687
C16_2 C 0.1819(7) 0.2820(12) 0.2719(3)
H12_2 H 0.2191 0.2655 0.2716
H13_2 H 0.2081 0.3366 0.2693
O8_2 O 0.1406(5) 0.2608(6) 0.30028(17)
C20_2 C 0.0257(5) 0.3542(7) 0.29917(18)
C21_2 C 0.0802(6) 0.3366(8) 0.29193(19)
H15_2 H 0.1137 0.3631 0.2759
C22_2 C 0.0881(7) 0.2821(9) 0.3070(2)
C23_2 C 0.0409(6) 0.2457(8) 0.3327(2)
H16_2 H 0.0469 0.2107 0.3444
C24_2 C 0.0184(7) 0.4141(9) 0.28167(19)
O12_2 O 0.0791(4) 0.4652(5) 0.26855(14)
Cu7_2 Cu 0.07991(6) 0.54542(8) 0.24485(2)
H3_2 H 0.9983 0.0639 0.2347
C7_2 C 0.9403(7) 0.1042(11) 0.1778(3)
H5_2 H 0.9544 0.1323 0.1585
H6_2 H 0.9263 0.0519 0.1738
C8_2 C 0.8061(6) 0.0543(9) 0.1847(3)
C9_2 C 0.7489(6) 0.0557(8) 0.2044(2)
H7_2 H 0.7622 0.0923 0.2198
C10_2 C 0.6758(5) 0.0021(8) 0.19974(19)
C13_2 C 0.7892(6) 0.0072(8) 0.1614(2)
H9_2 H 0.8270 0.0095 0.1486
O4_2 O 0.6256(3) 0.0584(5) 0.23324(14)
O5_2 O 0.8777(4) 0.1098(6) 0.1941(2)
C17_2 C 0.9332(6) 0.2274(8) 0.3679(2)
C18_2 C 0.9827(6) 0.2641(8) 0.34045(18)
C19_2 C 0.9760(6) 0.3171(8) 0.32254(18)
H14_2 H 0.9372 0.3274 0.3266
O9_2 O 0.9368(4) 0.1792(6) 0.38415(13)
O10_2 O 0.8847(4) 0.2482(6) 0.37289(12)
O11_2 O 0.9550(4) 0.4107(5) 0.28099(13)
Cu3_2 Cu 0.81674(8) 0.21480(10) 0.40837(2)
Cu4_2 Cu 0.93527(6) 0.48340(8) 0.25829(2)
Cu6_2 Cu 0.87876(8) 0.13218(10) 0.42181(2)
Cu1_2 Cu 0.73140(6) 0.84993(8) 0.07504(2)
O1_2 O 0.6223(4) 0.8572(6) 0.12339(13)
C11_2 C 0.6567(5) 0.9505(7) 0.17504(18)
H8_2 H 0.6062 0.9147 0.1715
C12_2 C 0.7118(5) 0.9526(7) 0.1561(2)
C14_2 C 0.6925(6) 0.9032(8) 0.12945(18)
C15_2 C 0.6143(6) 0.9980(8) 0.21982(19)
Cu2_2 Cu 0.58676(6) 0.78791(8) 0.08848(2)
O2_2 O 0.7467(3) 0.9082(5) 0.11309(12)
O3_2 O 0.5534(4) 0.9372(6) 0.22097(12)
O6_2 O 0.4688(4) 0.7333(6) 0.09882(16)
H10_2 H 0.4628 0.7461 0.1161
O7_2 O 0.8513(4) 0.9039(7) 0.06342(18)
H11_2 H 0.8566 0.9101 0.0446
O13_2 O 0.6039(6) 0.7171(7) 0.11236(12)
O14_2 O 0.7251(5) 0.7661(6) 0.10009(14)
O15_2 O 0.5757(4) 0.7299(7) 0.05082(13)
O16_2 O 0.6968(4) 0.7820(7) 0.03956(12)
O17_2 O 0.7117(4) 0.9226(5) 0.05234(13)
O18_2 O 0.5876(4) 0.8681(5) 0.06478(14)
H17_2 H 0.447092 0.67747 0.0982943
H18 H 0.871761 0.871125 0.070323
Cu1_3 Cu 0.15007(8) 0.88147(6) 0.07504(2)
O1_3 O 0.1428(6) 0.7651(4) 0.12339(13)
C11_3 C 0.0495(7) 0.7062(5) 0.17504(18)
H8_3 H 0.0853 0.6915 0.1715
C12_3 C 0.0474(7) 0.7592(5) 0.1561(2)
C14_3 C 0.0968(8) 0.7893(6) 0.12945(18)
C15_3 C 0.0020(8) 0.6163(6) 0.21982(19)
Cu2_3 Cu 0.21209(8) 0.79885(6) 0.08848(2)
O2_3 O 0.0918(5) 0.8385(4) 0.11309(12)
O3_3 O 0.0628(6) 0.6162(4) 0.22097(12)
O6_3 O 0.2667(6) 0.7355(5) 0.09882(16)
H10_3 H 0.2539 0.7167 0.1161
O7_3 O 0.0961(7) 0.9474(6) 0.06342(18)
H11_3 H 0.0899 0.9465 0.0446
O13_3 O 0.2829(7) 0.8867(4) 0.11236(12)
O14_3 O 0.2339(6) 0.9589(3) 0.10009(14)
O15_3 O 0.2701(7) 0.8459(6) 0.05082(13)
O16_3 O 0.2180(7) 0.9149(6) 0.03956(12)
O17_3 O 0.0774(5) 0.7890(3) 0.05234(13)
O18_3 O 0.1319(5) 0.7194(3) 0.06478(14)
H17_3 H 0.32253 0.769623 0.0982943
C1_3 C 0.7582(9) 0.8800(7) 0.2449(2)
C2_3 C 0.7296(8) 0.8357(6) 0.2184(3)
H1_3 H 0.6779 0.8110 0.2143
C3_3 C 0.7784(8) 0.8284(6) 0.19804(19)
H2_3 H 0.7594 0.7988 0.1803
C4_3 C 0.8558(7) 0.8654(6) 0.2041(3)
C5_3 C 0.8844(9) 0.9097(6) 0.2306(3)
H3_3 H 0.9361 0.9344 0.2347
C6_3 C 0.8356(9) 0.9170(6) 0.2510(2)
H4_3 H 0.8547 0.9466 0.2687
C7_3 C 0.8958(11) 0.8361(8) 0.1778(3)
H5_3 H 0.8677 0.8221 0.1585
H6_3 H 0.9481 0.8744 0.1738
C8_3 C 0.9457(9) 0.7518(7) 0.1847(3)
C9_3 C 0.9443(8) 0.6932(6) 0.2044(2)
H7_3 H 0.9077 0.6699 0.2198
C10_3 C 0.9979(8) 0.6737(6) 0.19974(19)
C13_3 C 0.9928(8) 0.7820(6) 0.1614(2)
H9_3 H 0.9905 0.8175 0.1486
O4_3 O 0.9416(5) 0.5672(4) 0.23324(14)
O5_3 O 0.8902(6) 0.7679(5) 0.1941(2)
C16_3 C 0.7180(12) 0.8999(10) 0.2719(3)
H12_3 H 0.7345 0.9536 0.2716
H13_3 H 0.6634 0.8715 0.2693
O8_3 O 0.7392(6) 0.8798(4) 0.30028(17)
C17_3 C 0.7726(8) 0.7058(6) 0.3679(2)
C18_3 C 0.7359(8) 0.7186(6) 0.34045(18)
C19_3 C 0.6829(8) 0.6589(5) 0.32254(18)
H14_3 H 0.6726 0.6098 0.3266
C20_3 C 0.6458(7) 0.6715(5) 0.29917(18)
C21_3 C 0.6634(8) 0.7436(6) 0.29193(19)
H15_3 H 0.6369 0.7506 0.2759
C22_3 C 0.7179(9) 0.8060(6) 0.3070(2)
C23_3 C 0.7543(8) 0.7952(6) 0.3327(2)
H16_3 H 0.7893 0.8362 0.3444
C24_3 C 0.5859(9) 0.6043(6) 0.28167(19)
O9_3 O 0.8208(6) 0.7576(4) 0.38415(13)
O10_3 O 0.7518(6) 0.6365(4) 0.37289(12)
O11_3 O 0.5893(5) 0.5443(3) 0.28099(13)
O12_3 O 0.5348(5) 0.6139(3) 0.26855(14)
Cu3_3 Cu 0.78520(10) 0.60193(6) 0.40837(2)
Cu6_3 Cu 0.86782(10) 0.74657(6) 0.42181(2)
C15_4 C 0.0504(6) 0.7190(6) 0.55315(19)
O3_4 O 0.0505(4) 0.7799(4) 0.55430(12)
O4_4 O 0.0995(4) 0.7077(3) 0.56657(14)
C19_4 C 0.0078(5) 0.3573(6) 0.65587(18)
H14_4 H 0.0569 0.3961 0.6599
C24_4 C 0.0624(6) 0.3149(7) 0.61500(19)
O10_4 O 0.0302(4) 0.4486(4) 0.70622(12)
O11_4 O 0.1224(3) 0.3783(4) 0.61432(13)
O12_4 O 0.0528(3) 0.2542(4) 0.60188(14)
Cu3_4 Cu 0.06473(6) 0.51660(8) 0.74171(2)
Cu4_3 Cu 0.21480(6) 0.39807(6) 0.59163(2)
Cu5_2 Cu 0.18326(8) 0.78520(6) 0.59163(2)
Cu7_3 Cu 0.13218(6) 0.25343(6) 0.57819(2)
Cu8_2 Cu 0.12124(8) 0.86782(6) 0.57819(2)
O1_4 O 0.9016(4) 0.7110(4) 0.45672(13)
C1_4 C 0.7867(7) 0.2115(5) 0.5782(2)
C2_4 C 0.8310(6) 0.2272(5) 0.5517(3)
H1_4 H 0.8557 0.2002 0.5476
C3_4 C 0.8383(6) 0.2833(6) 0.53137(19)
H2_4 H 0.8679 0.2939 0.5136
C4_4 C 0.8013(6) 0.3237(4) 0.5374(3)
C5_4 C 0.7570(6) 0.3080(7) 0.5639(3)
H3_4 H 0.7323 0.3350 0.5680
C6_4 C 0.7497(6) 0.2519(7) 0.5843(2)
H4_4 H 0.7201 0.2414 0.6020
C7_4 C 0.8306(8) 0.3930(7) 0.5111(3)
H5_4 H 0.8446 0.3789 0.4918
H6_4 H 0.7923 0.4070 0.5071
C8_4 C 0.9149(7) 0.5272(6) 0.5180(3)
C9_4 C 0.9735(6) 0.5844(6) 0.5377(2)
H7_4 H 0.9968 0.5711 0.5531
C10_4 C 0.9930(6) 0.6575(5) 0.53307(19)
C11_4 C 0.9605(5) 0.6766(5) 0.50837(18)
H8_4 H 0.9752 0.7271 0.5048
C12_4 C 0.9075(5) 0.6215(5) 0.4894(2)
C13_4 C 0.8847(6) 0.5441(6) 0.4947(2)
H9_4 H 0.8492 0.5063 0.4819
C14_4 C 0.8774(6) 0.6408(6) 0.46278(18)
O2_4 O 0.8282(4) 0.5866(3) 0.44642(12)
O5_4 O 0.8988(5) 0.4556(4) 0.5274(2)
O6_4 O 0.9312(5) 0.8645(4) 0.43215(16)
H10_4 H 0.9500 0.8705 0.4494
O7_4 O 0.7193(6) 0.4820(4) 0.39675(18)
H11_4 H 0.7202 0.4767 0.3779
C16_4 C 0.7668(10) 0.1514(7) 0.6052(3)
H12_4 H 0.7131 0.1142 0.6049
H13_4 H 0.7952 0.1252 0.6026
O8_4 O 0.7869(4) 0.1927(5) 0.63361(17)
C17_4 C 0.9609(6) 0.4001(6) 0.7012(2)
C18_4 C 0.9481(6) 0.3506(6) 0.67378(18)
C20_4 C 0.9952(5) 0.3076(5) 0.63250(18)
C21_4 C 0.9231(6) 0.2531(6) 0.62526(19)
H15_4 H 0.9161 0.2196 0.6092
C22_4 C 0.8607(6) 0.2452(7) 0.6403(2)
C23_4 C 0.8715(6) 0.2924(6) 0.6660(2)
H16_4 H 0.8305 0.2864 0.6777
O9_4 O 0.9091(4) 0.3965(4) 0.71748(13)
Cu6_4 Cu 0.92009(6) 0.45458(8) 0.75515(2)
O13_4 O 0.7799(4) 0.7295(6) 0.44570(12)
O14_4 O 0.7077(3) 0.6083(5) 0.43343(14)
O17_4 O 0.8776(3) 0.6217(4) 0.38568(13)
O18_4 O 0.9472(3) 0.7458(4) 0.39812(14)
H17_4 H 0.897044 0.886241 0.431628
H18_2 H 0.666031 0.461573 0.403656
O1_5 O 0.2890(4) 0.1905(6) 0.45672(13)
C1_5 C 0.7885(5) 0.5751(9) 0.5782(2)
C2_5 C 0.7728(5) 0.6037(8) 0.5517(3)
H1_5 H 0.7998 0.6554 0.5476
C3_5 C 0.7167(6) 0.5549(8) 0.53137(19)
H2_5 H 0.7061 0.5739 0.5136
C4_5 C 0.6763(4) 0.4775(7) 0.5374(3)
C5_5 C 0.6920(7) 0.4489(9) 0.5639(3)
H3_5 H 0.6650 0.3972 0.5680
C6_5 C 0.7481(7) 0.4977(9) 0.5843(2)
H4_5 H 0.7586 0.4786 0.6020
C7_5 C 0.6070(7) 0.4375(11) 0.5111(3)
H5_5 H 0.6211 0.4656 0.4918
H6_5 H 0.5930 0.3852 0.5071
C8_5 C 0.4728(6) 0.3876(9) 0.5180(3)
C9_5 C 0.4156(6) 0.3890(8) 0.5377(2)
H7_5 H 0.4289 0.4256 0.5531
C10_5 C 0.3425(5) 0.3354(8) 0.53307(19)
C11_5 C 0.3234(5) 0.2838(7) 0.50837(18)
H8_5 H 0.2729 0.2480 0.5048
C12_5 C 0.3785(5) 0.2859(7) 0.4894(2)
C13_5 C 0.4559(6) 0.3405(8) 0.4947(2)
H9_5 H 0.4937 0.3428 0.4819
C14_5 C 0.3592(6) 0.2365(8) 0.46278(18)
C15_5 C 0.2810(6) 0.3313(8) 0.55315(19)
O2_5 O 0.4134(3) 0.2415(5) 0.44642(12)
O3_5 O 0.2201(4) 0.2705(6) 0.55430(12)
O4_5 O 0.2923(3) 0.3917(5) 0.56657(14)
O5_5 O 0.5444(4) 0.4431(6) 0.5274(2)
O6_5 O 0.1355(4) 0.0666(6) 0.43215(16)
H10_5 H 0.1295 0.0794 0.4494
O7_5 O 0.5180(4) 0.2372(7) 0.39675(18)
H11_5 H 0.5233 0.2434 0.3779
C16_5 C 0.8486(7) 0.6153(12) 0.6052(3)
H12_5 H 0.8858 0.5988 0.6049
H13_5 H 0.8748 0.6699 0.6026
O8_5 O 0.8073(5) 0.5941(6) 0.63361(17)
C17_5 C 0.5999(6) 0.5607(8) 0.7012(2)
C18_5 C 0.6494(6) 0.5974(8) 0.67378(18)
C19_5 C 0.6427(6) 0.6504(8) 0.65587(18)
H14_5 H 0.6039 0.6607 0.6599
C20_5 C 0.6924(5) 0.6875(7) 0.63250(18)
C21_5 C 0.7469(6) 0.6699(8) 0.62526(19)
H15_5 H 0.7804 0.6964 0.6092
C22_5 C 0.7548(7) 0.6154(9) 0.6403(2)
C23_5 C 0.7076(6) 0.5790(8) 0.6660(2)
H16_5 H 0.7136 0.5440 0.6777
C24_5 C 0.6851(7) 0.7474(9) 0.61500(19)
O9_5 O 0.6035(4) 0.5125(6) 0.71748(13)
O10_5 O 0.5514(4) 0.5815(6) 0.70622(12)
O11_5 O 0.6217(4) 0.7440(5) 0.61432(13)
O12_5 O 0.7458(4) 0.7985(5) 0.60188(14)
Cu3_5 Cu 0.48340(8) 0.54814(10) 0.74171(2)
Cu4_4 Cu 0.60193(6) 0.81674(8) 0.59163(2)
Cu6_5 Cu 0.54542(8) 0.46552(10) 0.75515(2)
Cu7_4 Cu 0.74657(6) 0.87876(8) 0.57819(2)
O13_5 O 0.2705(6) 0.0505(7) 0.44570(12)
O14_5 O 0.3917(5) 0.0995(6) 0.43343(14)
O17_5 O 0.3783(4) 0.2560(5) 0.38568(13)
O18_5 O 0.2542(4) 0.2015(5) 0.39812(14)
H17_5 H 0.113759 0.0108029 0.431628
H18_3 H 0.538427 0.204458 0.403656
O1_6 O 0.8095(6) 0.0984(4) 0.45672(13)
C1_6 C 0.4249(9) 0.2133(7) 0.5782(2)
C2_6 C 0.3963(8) 0.1690(6) 0.5517(3)
H1_6 H 0.3446 0.1443 0.5476
C3_6 C 0.4451(8) 0.1617(6) 0.53137(19)
H2_6 H 0.4261 0.1321 0.5136
C4_6 C 0.5225(7) 0.1987(6) 0.5374(3)
C5_6 C 0.5511(9) 0.2430(6) 0.5639(3)
H3_6 H 0.6028 0.2677 0.5680
C6_6 C 0.5023(9) 0.2503(6) 0.5843(2)
H4_6 H 0.5214 0.2799 0.6020
C7_6 C 0.5625(11) 0.1694(8) 0.5111(3)
H5_6 H 0.5344 0.1554 0.4918
H6_6 H 0.6148 0.2077 0.5071
C8_6 C 0.6124(9) 0.0851(7) 0.5180(3)
C9_6 C 0.6110(8) 0.0265(6) 0.5377(2)
H7_6 H 0.5744 0.0032 0.5531
C10_6 C 0.6646(8) 0.0070(6) 0.53307(19)
C11_6 C 0.7162(7) 0.0395(5) 0.50837(18)
H8_6 H 0.7520 0.0248 0.5048
C12_6 C 0.7141(7) 0.0925(5) 0.4894(2)
C13_6 C 0.6595(8) 0.1153(6) 0.4947(2)
H9_6 H 0.6572 0.1508 0.4819
C14_6 C 0.7635(8) 0.1226(6) 0.46278(18)
O2_6 O 0.7585(5) 0.1718(4) 0.44642(12)
O5_6 O 0.5569(6) 0.1012(5) 0.5274(2)
O6_6 O 0.9334(6) 0.0688(5) 0.43215(16)
H10_6 H 0.9206 0.0500 0.4494
O7_6 O 0.7628(7) 0.2807(6) 0.39675(18)
H11_6 H 0.7566 0.2798 0.3779
C16_6 C 0.3847(12) 0.2332(10) 0.6052(3)
H12_6 H 0.4012 0.2869 0.6049
H13_6 H 0.3301 0.2048 0.6026
O8_6 O 0.4059(6) 0.2131(4) 0.63361(17)
C17_6 C 0.4393(8) 0.0391(6) 0.7012(2)
C18_6 C 0.4026(8) 0.0519(6) 0.67378(18)
C20_6 C 0.3125(7) 0.0048(5) 0.63250(18)
C21_6 C 0.3301(8) 0.0769(6) 0.62526(19)
H15_6 H 0.3036 0.0839 0.6092
C22_6 C 0.3846(9) 0.1393(6) 0.6403(2)
C23_6 C 0.4210(8) 0.1285(6) 0.6660(2)
H16_6 H 0.4560 0.1695 0.6777
O9_6 O 0.4875(6) 0.0909(4) 0.71748(13)
Cu6_6 Cu 0.53448(10) 0.07991(6) 0.75515(2)
O13_6 O 0.9495(7) 0.2201(4) 0.44570(12)
O14_6 O 0.9005(6) 0.2923(3) 0.43343(14)
O17_6 O 0.7440(5) 0.1224(3) 0.38568(13)
O18_6 O 0.7985(5) 0.0528(3) 0.39812(14)
H17_6 H 0.989197 0.102956 0.431628
H18_4 H 0.795542 0.333969 0.403656
C15_6 C 0.6687(8) 0.9496(6) 0.55315(19)
O3_6 O 0.7295(6) 0.9495(4) 0.55430(12)
O4_6 O 0.6083(5) 0.9005(4) 0.56657(14)
C19_6 C 0.3496(8) 0.9922(5) 0.65587(18)
H14_6 H 0.3393 0.9431 0.6599
C24_6 C 0.2526(9) 0.9376(6) 0.61500(19)
O10_6 O 0.4185(6) 0.9698(4) 0.70622(12)
O11_6 O 0.2560(5) 0.8776(3) 0.61432(13)
O12_6 O 0.2015(5) 0.9472(3) 0.60188(14)
Cu3_6 Cu 0.45186(10) 0.93527(6) 0.74171(2)
O1_7 O 0.5682(4) 0.0444(4) 0.79006(13)
C11_7 C 0.6271(5) 0.0100(5) 0.84171(18)
H8_7 H 0.6418 0.0605 0.8382
C15_7 C 0.7170(6) 0.0524(6) 0.88649(19)
O3_7 O 0.7171(4) 0.1133(4) 0.88764(12)
O4_7 O 0.7661(4) 0.0411(3) 0.89991(14)
O6_7 O 0.5978(5) 0.1979(4) 0.76549(16)
H10_7 H 0.6166 0.2039 0.7828
Cu5_3 Cu 0.84993(8) 0.11853(6) 0.92496(2)
Cu8_3 Cu 0.78791(8) 0.20115(6) 0.91152(2)
O13_7 O 0.4466(4) 0.0628(6) 0.77903(12)
O18_7 O 0.6139(3) 0.0791(4) 0.73145(14)
H17_7 H 0.563711 0.219575 0.764961
C17_7 C 0.6275(6) 0.7335(6) 0.0346(2)
C18_7 C 0.6147(6) 0.6840(6) 0.00712(18)
H16_7 H 0.4971 0.6198 0.0111
C1_7 C 0.4533(7) 0.5449(5) 0.9116(2)
C2_7 C 0.4976(6) 0.5606(5) 0.8851(3)
H1_7 H 0.5223 0.5336 0.8810
C3_7 C 0.5049(6) 0.6167(6) 0.86471(19)
H2_7 H 0.5345 0.6273 0.8470
C4_7 C 0.4679(6) 0.6571(4) 0.8708(3)
C5_7 C 0.4236(6) 0.6414(7) 0.8973(3)
H3_7 H 0.3989 0.6684 0.9014
C6_7 C 0.4163(6) 0.5853(7) 0.9177(2)
H4_7 H 0.3867 0.5748 0.9354
C7_7 C 0.4972(8) 0.7264(7) 0.8445(3)
H5_7 H 0.5112 0.7123 0.8252
H6_7 H 0.4589 0.7404 0.8405
C8_7 C 0.5815(7) 0.8606(6) 0.8514(3)
C9_7 C 0.6401(6) 0.9178(6) 0.8711(2)
H7_7 H 0.6634 0.9045 0.8865
C10_7 C 0.6596(6) 0.9909(5) 0.86641(19)
C12_7 C 0.5741(5) 0.9549(5) 0.8228(2)
C13_7 C 0.5513(6) 0.8775(6) 0.8281(2)
H9_7 H 0.5158 0.8397 0.8153
C14_7 C 0.5440(6) 0.9742(6) 0.79612(18)
O2_7 O 0.4948(4) 0.9200(3) 0.77976(12)
O5_7 O 0.5654(5) 0.7890(4) 0.8608(2)
O7_7 O 0.3859(6) 0.8154(4) 0.73009(18)
H11_7 H 0.3868 0.8101 0.7113
C16_7 C 0.4334(10) 0.4848(7) 0.9386(3)
H12_7 H 0.3797 0.4476 0.9383
H13_7 H 0.4618 0.4586 0.9360
O8_7 O 0.4535(4) 0.5261(5) 0.96695(17)
C19_7 C 0.6744(5) 0.6907(6) 0.98921(18)
H14_7 H 0.7235 0.7295 0.9933
C20_7 C 0.6618(5) 0.6410(5) 0.96584(18)
C21_7 C 0.5897(6) 0.5865(6) 0.95860(19)
H15_7 H 0.5827 0.5530 0.9426
C22_7 C 0.5273(6) 0.5786(7) 0.9737(2)
C23_7 C 0.5381(6) 0.6258(6) 0.9994(2)
C24_7 C 0.7290(6) 0.6483(7) 0.94834(19)
O11_7 O 0.7890(3) 0.7117(4) 0.94766(13)
O12_7 O 0.7194(3) 0.5876(4) 0.93522(14)
Cu4_5 Cu 0.88147(6) 0.73140(6) 0.92496(2)
Cu7_5 Cu 0.79885(6) 0.58676(6) 0.91152(2)
O14_7 O 0.3744(3) 0.9416(5) 0.76676(14)
O17_7 O 0.5443(3) 0.9550(4) 0.71901(13)
H18_5 H 0.332697 0.794906 0.73699
H13_8 H 0.5414 0.0033 0.9360
C20_8 C 0.3590(5) 0.0209(7) 0.96584(18)
C21_8 C 0.4135(6) 0.0033(8) 0.95860(19)
H15_8 H 0.4470 0.0298 0.9426
C24_8 C 0.3517(7) 0.0808(9) 0.94834(19)
O11_8 O 0.2883(4) 0.0774(5) 0.94766(13)
O12_8 O 0.4124(4) 0.1319(5) 0.93522(14)
Cu4_6 Cu 0.26860(6) 0.15007(8) 0.92496(2)
Cu7_6 Cu 0.41324(6) 0.21209(8) 0.91152(2)
C17_8 C 0.2665(6) 0.8941(8) 0.0346(2)
C18_8 C 0.3160(6) 0.9308(8) 0.00712(18)
H16_8 H 0.3802 0.8774 0.0111
C1_8 C 0.4551(5) 0.9085(9) 0.9116(2)
C2_8 C 0.4394(5) 0.9371(8) 0.8851(3)
H1_8 H 0.4664 0.9888 0.8810
C3_8 C 0.3833(6) 0.8883(8) 0.86471(19)
H2_8 H 0.3727 0.9073 0.8470
C4_8 C 0.3429(4) 0.8109(7) 0.8708(3)
C5_8 C 0.3586(7) 0.7823(9) 0.8973(3)
H3_8 H 0.3316 0.7306 0.9014
C6_8 C 0.4147(7) 0.8311(9) 0.9177(2)
H4_8 H 0.4252 0.8120 0.9354
C7_8 C 0.2736(7) 0.7709(11) 0.8445(3)
H5_8 H 0.2877 0.7990 0.8252
H6_8 H 0.2596 0.7186 0.8405
C8_8 C 0.1394(6) 0.7210(9) 0.8514(3)
C9_8 C 0.0822(6) 0.7224(8) 0.8711(2)
H7_8 H 0.0955 0.7590 0.8865
C10_8 C 0.0091(5) 0.6688(8) 0.86641(19)
C12_8 C 0.0451(5) 0.6193(7) 0.8228(2)
C13_8 C 0.1225(6) 0.6739(8) 0.8281(2)
H9_8 H 0.1603 0.6762 0.8153
C14_8 C 0.0258(6) 0.5699(8) 0.79612(18)
O2_8 O 0.0800(3) 0.5749(5) 0.77976(12)
O5_8 O 0.2110(4) 0.7765(6) 0.8608(2)
O7_8 O 0.1846(4) 0.5706(7) 0.73009(18)
H11_8 H 0.1899 0.5768 0.7113
C16_8 C 0.5152(7) 0.9487(12) 0.9386(3)
H12_8 H 0.5524 0.9322 0.9383
O8_8 O 0.4739(5) 0.9275(6) 0.96695(17)
C19_8 C 0.3093(6) 0.9838(8) 0.98921(18)
H14_8 H 0.2705 0.9941 0.9933
C22_8 C 0.4214(7) 0.9488(9) 0.9737(2)
C23_8 C 0.3742(6) 0.9124(8) 0.9994(2)
O14_8 O 0.0584(5) 0.4328(6) 0.76676(14)
O17_8 O 0.0450(4) 0.5893(5) 0.71901(13)
H18_6 H 0.205094 0.537791 0.73699
O1_8 O 0.9556(4) 0.5239(6) 0.79006(13)
C11_8 C 0.9900(5) 0.6172(7) 0.84171(18)
H8_8 H 0.9395 0.5814 0.8382
C15_8 C 0.9476(6) 0.6647(8) 0.88649(19)
O3_8 O 0.8867(4) 0.6039(6) 0.88764(12)
O4_8 O 0.9589(3) 0.7251(5) 0.89991(14)
O6_8 O 0.8021(4) 0.4000(6) 0.76549(16)
H10_8 H 0.7961 0.4128 0.7828
O13_8 O 0.9372(6) 0.3838(7) 0.77903(12)
O18_8 O 0.9209(4) 0.5348(5) 0.73145(14)
H17_8 H 0.780425 0.344136 0.764961
C17_9 C 0.1059(8) 0.3725(6) 0.0346(2)
C18_9 C 0.0692(8) 0.3853(6) 0.00712(18)
H16_9 H 0.1226 0.5029 0.0111
O1_9 O 0.4761(6) 0.4318(4) 0.79006(13)
C1_9 C 0.0915(9) 0.5467(7) 0.9116(2)
C2_9 C 0.0629(8) 0.5024(6) 0.8851(3)
H1_9 H 0.0112 0.4777 0.8810
C3_9 C 0.1117(8) 0.4951(6) 0.86471(19)
H2_9 H 0.0927 0.4655 0.8470
C4_9 C 0.1891(7) 0.5321(6) 0.8708(3)
C5_9 C 0.2177(9) 0.5764(6) 0.8973(3)
H3_9 H 0.2694 0.6011 0.9014
C6_9 C 0.1689(9) 0.5837(6) 0.9177(2)
H4_9 H 0.1880 0.6133 0.9354
C7_9 C 0.2291(11) 0.5028(8) 0.8445(3)
H5_9 H 0.2010 0.4888 0.8252
H6_9 H 0.2814 0.5411 0.8405
C8_9 C 0.2790(9) 0.4185(7) 0.8514(3)
C9_9 C 0.2776(8) 0.3599(6) 0.8711(2)
H7_9 H 0.2410 0.3366 0.8865
C10_9 C 0.3312(8) 0.3404(6) 0.86641(19)
C11_9 C 0.3828(7) 0.3729(5) 0.84171(18)
H8_9 H 0.4186 0.3582 0.8382
C12_9 C 0.3807(7) 0.4259(5) 0.8228(2)
C13_9 C 0.3261(8) 0.4487(6) 0.8281(2)
H9_9 H 0.3238 0.4842 0.8153
C14_9 C 0.4301(8) 0.4560(6) 0.79612(18)
C15_9 C 0.3353(8) 0.2830(6) 0.88649(19)
O2_9 O 0.4251(5) 0.5052(4) 0.77976(12)
O3_9 O 0.3961(6) 0.2829(4) 0.88764(12)
O4_9 O 0.2749(5) 0.2339(4) 0.89991(14)
O5_9 O 0.2235(6) 0.4346(5) 0.8608(2)
O6_9 O 0.6000(6) 0.4022(5) 0.76549(16)
H10_9 H 0.5872 0.3834 0.7828
O7_9 O 0.4294(7) 0.6141(6) 0.73009(18)
H11_9 H 0.4232 0.6132 0.7113
C16_9 C 0.0513(12) 0.5666(10) 0.9386(3)
H12_9 H 0.0678 0.6203 0.9383
O8_9 O 0.0725(6) 0.5465(4) 0.96695(17)
C19_9 C 0.0162(8) 0.3256(5) 0.98921(18)
H14_9 H 0.0059 0.2765 0.9933
C22_9 C 0.0512(9) 0.4727(6) 0.9737(2)
C23_9 C 0.0876(8) 0.4619(6) 0.9994(2)
O13_9 O 0.6162(7) 0.5534(4) 0.77903(12)
O14_9 O 0.5672(6) 0.6256(3) 0.76676(14)
O17_9 O 0.4107(5) 0.4557(3) 0.71901(13)
O18_9 O 0.4652(5) 0.3861(3) 0.73145(14)
H17_9 H 0.655864 0.436289 0.764961
H18_7 H 0.462209 0.667303 0.73699
H13_9 H 0.9967 0.5382 0.9360
C20_9 C 0.9791(7) 0.3382(5) 0.96584(18)
C21_9 C 0.9967(8) 0.4103(6) 0.95860(19)
H15_9 H 0.9702 0.4173 0.9426
C24_9 C 0.9192(9) 0.2710(6) 0.94834(19)
O11_9 O 0.9226(5) 0.2110(3) 0.94766(13)
O12_9 O 0.8681(5) 0.2806(3) 0.93522(14)
C1_10 C 0.8800(7) 0.1218(5) 0.7551(2)
C2_10 C 0.8357(6) 0.1061(5) 0.7816(3)
H1_10 H 0.8110 0.1331 0.7857
C3_10 C 0.8284(6) 0.0500(6) 0.80196(19)
H2_10 H 0.7988 0.0394 0.8197
C4_10 C 0.8654(6) 0.0096(4) 0.7959(3)
C5_10 C 0.9097(6) 0.0253(7) 0.7694(3)
C6_10 C 0.9170(6) 0.0814(7) 0.7490(2)
H4_10 H 0.9466 0.0919 0.7313
C16_10 C 0.8999(10) 0.1819(7) 0.7281(3)
H12_10 H 0.9536 0.2191 0.7284
H13_10 H 0.8715 0.2081 0.7307
O8_10 O 0.8798(4) 0.1406(5) 0.69972(17)
C20_10 C 0.6715(5) 0.0257(5) 0.70083(18)
C21_10 C 0.7436(6) 0.0802(6) 0.70807(19)
H15_10 H 0.7506 0.1137 0.7241
C22_10 C 0.8060(6) 0.0881(7) 0.6930(2)
C23_10 C 0.7952(6) 0.0409(6) 0.6673(2)
H16_10 H 0.8362 0.0469 0.6556
C24_10 C 0.6043(6) 0.0184(7) 0.71833(19)
O1_10 O 0.7651(4) 0.6223(4) 0.87661(13)
H3_10 H 0.9344 0.9983 0.7653
C7_10 C 0.8361(8) 0.9403(7) 0.8222(3)
H5_10 H 0.8221 0.9544 0.8415
H6_10 H 0.8744 0.9263 0.8262
C8_10 C 0.7518(7) 0.8061(6) 0.8153(3)
C9_10 C 0.6932(6) 0.7489(6) 0.7956(2)
H7_10 H 0.6699 0.7622 0.7802
C10_10 C 0.6737(6) 0.6758(5) 0.80026(19)
C11_10 C 0.7062(5) 0.6567(5) 0.82496(18)
H8_10 H 0.6915 0.6062 0.8285
C12_10 C 0.7592(5) 0.7118(5) 0.8439(2)
C13_10 C 0.7820(6) 0.7892(6) 0.8386(2)
H9_10 H 0.8175 0.8270 0.8514
C14_10 C 0.7893(6) 0.6925(6) 0.87055(18)
C15_10 C 0.6163(6) 0.6143(6) 0.78018(19)
O2_10 O 0.8385(4) 0.7467(3) 0.88691(12)
O5_10 O 0.7679(5) 0.8777(4) 0.8059(2)
O6_10 O 0.7355(5) 0.4688(4) 0.90118(16)
H10_10 H 0.7167 0.4628 0.8839
O7_10 O 0.9474(6) 0.8513(4) 0.93658(18)
H11_10 H 0.9465 0.8566 0.9554
C17_10 C 0.7058(6) 0.9332(6) 0.6321(2)
C18_10 C 0.7186(6) 0.9827(6) 0.65955(18)
C19_10 C 0.6589(5) 0.9760(6) 0.67746(18)
H14_10 H 0.6098 0.9372 0.6734
O9_7 O 0.7576(4) 0.9368(4) 0.61585(13)
O10_7 O 0.6365(4) 0.8847(4) 0.62711(12)
O15_4 O 0.8459(6) 0.5757(4) 0.94918(13)
O16_4 O 0.9149(6) 0.6968(4) 0.96044(12)
H17_10 H 0.769623 0.447092 0.901706
O1_11 O 0.3777(4) 0.1428(6) 0.87661(13)
C11_11 C 0.3433(5) 0.0495(7) 0.82496(18)
H8_11 H 0.3938 0.0853 0.8285
C12_11 C 0.2882(5) 0.0474(7) 0.8439(2)
C14_11 C 0.3075(6) 0.0968(8) 0.87055(18)
C15_11 C 0.3857(6) 0.0020(8) 0.78018(19)
O2_11 O 0.2533(3) 0.0918(5) 0.88691(12)
O6_11 O 0.5312(4) 0.2667(6) 0.90118(16)
H10_11 H 0.5372 0.2539 0.8839
O7_11 O 0.1487(4) 0.0961(7) 0.93658(18)
H11_11 H 0.1434 0.0899 0.9554
O15_5 O 0.4243(4) 0.2701(7) 0.94918(13)
O16_5 O 0.3032(4) 0.2180(7) 0.96044(12)
H17_11 H 0.552908 0.32253 0.901706
H18_8 H 0.128239 0.128875 0.929677
H3_11 H 0.0017 0.9361 0.7653
C7_11 C 0.0597(7) 0.8958(11) 0.8222(3)
H5_11 H 0.0456 0.8677 0.8415
H6_11 H 0.0737 0.9481 0.8262
C8_11 C 0.1939(6) 0.9457(9) 0.8153(3)
C9_11 C 0.2511(6) 0.9443(8) 0.7956(2)
H7_11 H 0.2378 0.9077 0.7802
C10_11 C 0.3242(5) 0.9979(8) 0.80026(19)
C13_11 C 0.2108(6) 0.9928(8) 0.8386(2)
H9_11 H 0.1730 0.9905 0.8514
O5_11 O 0.1223(4) 0.8902(6) 0.8059(2)
C17_11 C 0.0668(6) 0.7726(8) 0.6321(2)
C18_11 C 0.0173(6) 0.7359(8) 0.65955(18)
C19_11 C 0.0240(6) 0.6829(8) 0.67746(18)
H14_11 H 0.0628 0.6726 0.6734
O9_8 O 0.0632(4) 0.8208(6) 0.61585(13)
O10_8 O 0.1153(4) 0.7518(6) 0.62711(12)
C1_11 C 0.8782(5) 0.7582(9) 0.7551(2)
C2_11 C 0.8939(5) 0.7296(8) 0.7816(3)
H1_11 H 0.8669 0.6779 0.7857
C3_11 C 0.9500(6) 0.7784(8) 0.80196(19)
H2_11 H 0.9606 0.7594 0.8197
C4_11 C 0.9904(4) 0.8558(7) 0.7959(3)
C5_11 C 0.9747(7) 0.8844(9) 0.7694(3)
C6_11 C 0.9186(7) 0.8356(9) 0.7490(2)
H4_11 H 0.9081 0.8547 0.7313
C16_11 C 0.8181(7) 0.7180(12) 0.7281(3)
H12_11 H 0.7809 0.7345 0.7284
H13_11 H 0.7919 0.6634 0.7307
O8_11 O 0.8594(5) 0.7392(6) 0.69972(17)
C20_11 C 0.9743(5) 0.6458(7) 0.70083(18)
C21_11 C 0.9198(6) 0.6634(8) 0.70807(19)
H15_11 H 0.8863 0.6369 0.7241
C22_11 C 0.9119(7) 0.7179(9) 0.6930(2)
C23_11 C 0.9591(6) 0.7543(8) 0.6673(2)
H16_11 H 0.9531 0.7893 0.6556
C24_11 C 0.9816(7) 0.5859(9) 0.71833(19)
C1_12 C 0.2418(9) 0.1200(7) 0.7551(2)
C2_12 C 0.2704(8) 0.1643(6) 0.7816(3)
H1_12 H 0.3221 0.1890 0.7857
C3_12 C 0.2216(8) 0.1716(6) 0.80196(19)
H2_12 H 0.2406 0.2012 0.8197
C4_12 C 0.1442(7) 0.1346(6) 0.7959(3)
C5_12 C 0.1156(9) 0.0903(6) 0.7694(3)
H3_12 H 0.0639 0.0656 0.7653
C6_12 C 0.1644(9) 0.0830(6) 0.7490(2)
H4_12 H 0.1453 0.0534 0.7313
C7_12 C 0.1042(11) 0.1639(8) 0.8222(3)
H5_12 H 0.1323 0.1779 0.8415
H6_12 H 0.0519 0.1256 0.8262
C8_12 C 0.0543(9) 0.2482(7) 0.8153(3)
C9_12 C 0.0557(8) 0.3068(6) 0.7956(2)
H7_12 H 0.0923 0.3301 0.7802
C10_12 C 0.0021(8) 0.3263(6) 0.80026(19)
C13_12 C 0.0072(8) 0.2180(6) 0.8386(2)
H9_12 H 0.0095 0.1825 0.8514
O5_12 O 0.1098(6) 0.2321(5) 0.8059(2)
C16_12 C 0.2820(12) 0.1001(10) 0.7281(3)
H12_12 H 0.2655 0.0464 0.7284
H13_12 H 0.3366 0.1285 0.7307
O8_12 O 0.2608(6) 0.1202(4) 0.69972(17)
C17_12 C 0.2274(8) 0.2942(6) 0.6321(2)
C18_12 C 0.2641(8) 0.2814(6) 0.65955(18)
C19_12 C 0.3171(8) 0.3411(5) 0.67746(18)
H14_12 H 0.3274 0.3902 0.6734
C20_12 C 0.3542(7) 0.3285(5) 0.70083(18)
C21_12 C 0.3366(8) 0.2564(6) 0.70807(19)
H15_12 H 0.3631 0.2494 0.7241
C22_12 C 0.2821(9) 0.1940(6) 0.6930(2)
C23_12 C 0.2457(8) 0.2048(6) 0.6673(2)
H16_12 H 0.2107 0.1638 0.6556
C24_12 C 0.4141(9) 0.3957(6) 0.71833(19)
O9_9 O 0.1792(6) 0.2424(4) 0.61585(13)
O10_9 O 0.2482(6) 0.3635(4) 0.62711(12)
O1_12 O 0.8572(6) 0.2349(4) 0.87661(13)
C11_12 C 0.9505(7) 0.2938(5) 0.82496(18)
H8_12 H 0.9147 0.3085 0.8285
C12_12 C 0.9526(7) 0.2408(5) 0.8439(2)
C14_12 C 0.9032(8) 0.2107(6) 0.87055(18)
C15_12 C 0.9980(8) 0.3837(6) 0.78018(19)
O2_12 O 0.9082(5) 0.1615(4) 0.88691(12)
O6_12 O 0.7333(6) 0.2645(5) 0.90118(16)
H10_12 H 0.7461 0.2833 0.8839
O7_12 O 0.9039(7) 0.0526(6) 0.93658(18)
H11_12 H 0.9101 0.0535 0.9554
O15_6 O 0.7299(7) 0.1541(6) 0.94918(13)
O16_6 O 0.7820(7) 0.0851(6) 0.96044(12)
H17_12 H 0.67747 0.230377 0.901706
O1_13 O 0.0984(4) 0.2890(4) 0.54328(13)
C1_13 C 0.2133(7) 0.7885(5) 0.4218(2)
C2_13 C 0.1690(6) 0.7728(5) 0.4483(3)
H1_13 H 0.1443 0.7998 0.4524
C3_13 C 0.1617(6) 0.7167(6) 0.46863(19)
H2_13 H 0.1321 0.7061 0.4864
C4_13 C 0.1987(6) 0.6763(4) 0.4626(3)
C5_13 C 0.2430(6) 0.6920(7) 0.4361(3)
H3_13 H 0.2677 0.6650 0.4320
C6_13 C 0.2503(6) 0.7481(7) 0.4157(2)
H4_13 H 0.2799 0.7586 0.3980
C7_13 C 0.1694(8) 0.6070(7) 0.4889(3)
H5_13 H 0.1554 0.6211 0.5082
H6_13 H 0.2077 0.5930 0.4929
C8_13 C 0.0851(7) 0.4728(6) 0.4820(3)
C9_13 C 0.0265(6) 0.4156(6) 0.4623(2)
H7_13 H 0.0032 0.4289 0.4469
C10_13 C 0.0070(6) 0.3425(5) 0.46693(19)
C11_13 C 0.0395(5) 0.3234(5) 0.49163(18)
H8_13 H 0.0248 0.2729 0.4952
C12_13 C 0.0925(5) 0.3785(5) 0.5106(2)
C13_13 C 0.1153(6) 0.4559(6) 0.5053(2)
H9_13 H 0.1508 0.4937 0.5181
C14_13 C 0.1226(6) 0.3592(6) 0.53722(18)
O2_13 O 0.1718(4) 0.4134(3) 0.55358(12)
O5_13 O 0.1012(5) 0.5444(4) 0.4726(2)
O6_13 O 0.0688(5) 0.1355(4) 0.56785(16)
H10_13 H 0.0500 0.1295 0.5506
O7_13 O 0.2807(6) 0.5180(4) 0.60325(18)
H11_13 H 0.2798 0.5233 0.6221
C16_13 C 0.2332(10) 0.8486(7) 0.3948(3)
H12_13 H 0.2869 0.8858 0.3951
H13_13 H 0.2048 0.8748 0.3974
O8_13 O 0.2131(4) 0.8073(5) 0.36639(17)
C17_13 C 0.0391(6) 0.5999(6) 0.2988(2)
C18_13 C 0.0519(6) 0.6494(6) 0.32622(18)
C20_13 C 0.0048(5) 0.6924(5) 0.36750(18)
C21_13 C 0.0769(6) 0.7469(6) 0.37474(19)
H15_13 H 0.0839 0.7804 0.3908
C22_13 C 0.1393(6) 0.7548(7) 0.3597(2)
C23_13 C 0.1285(6) 0.7076(6) 0.3340(2)
H16_13 H 0.1695 0.7136 0.3223
O9_10 O 0.0909(4) 0.6035(4) 0.28252(13)
H17_13 H 0.102956 0.113759 0.568372
H18_9 H 0.333969 0.538427 0.596344
C15_13 C 0.9496(6) 0.2810(6) 0.44685(19)
C19_13 C 0.9922(5) 0.6427(6) 0.34413(18)
H14_13 H 0.9431 0.6039 0.3401
C24_13 C 0.9376(6) 0.6851(7) 0.38500(19)
O10_10 O 0.9698(4) 0.5514(4) 0.29378(12)
O1_14 O 0.7110(4) 0.8095(6) 0.54328(13)
C1_14 C 0.2115(5) 0.4249(9) 0.4218(2)
C2_14 C 0.2272(5) 0.3963(8) 0.4483(3)
H1_14 H 0.2002 0.3446 0.4524
C3_14 C 0.2833(6) 0.4451(8) 0.46863(19)
H2_14 H 0.2939 0.4261 0.4864
C4_14 C 0.3237(4) 0.5225(7) 0.4626(3)
C5_14 C 0.3080(7) 0.5511(9) 0.4361(3)
H3_14 H 0.3350 0.6028 0.4320
C6_14 C 0.2519(7) 0.5023(9) 0.4157(2)
H4_14 H 0.2414 0.5214 0.3980
C7_14 C 0.3930(7) 0.5625(11) 0.4889(3)
H5_14 H 0.3789 0.5344 0.5082
H6_14 H 0.4070 0.6148 0.4929
C8_14 C 0.5272(6) 0.6124(9) 0.4820(3)
C9_14 C 0.5844(6) 0.6110(8) 0.4623(2)
H7_14 H 0.5711 0.5744 0.4469
C10_14 C 0.6575(5) 0.6646(8) 0.46693(19)
C11_14 C 0.6766(5) 0.7162(7) 0.49163(18)
H8_14 H 0.7271 0.7520 0.4952
C12_14 C 0.6215(5) 0.7141(7) 0.5106(2)
C13_14 C 0.5441(6) 0.6595(8) 0.5053(2)
H9_14 H 0.5063 0.6572 0.5181
C14_14 C 0.6408(6) 0.7635(8) 0.53722(18)
C15_14 C 0.7190(6) 0.6687(8) 0.44685(19)
O2_14 O 0.5866(3) 0.7585(5) 0.55358(12)
O5_14 O 0.4556(4) 0.5569(6) 0.4726(2)
O6_14 O 0.8645(4) 0.9334(6) 0.56785(16)
H10_14 H 0.8705 0.9206 0.5506
O7_14 O 0.4820(4) 0.7628(7) 0.60325(18)
H11_14 H 0.4767 0.7566 0.6221
C16_14 C 0.1514(7) 0.3847(12) 0.3948(3)
H12_14 H 0.1142 0.4012 0.3951
H13_14 H 0.1252 0.3301 0.3974
O8_14 O 0.1927(5) 0.4059(6) 0.36639(17)
C17_14 C 0.4001(6) 0.4393(8) 0.2988(2)
C18_14 C 0.3506(6) 0.4026(8) 0.32622(18)
C19_14 C 0.3573(6) 0.3496(8) 0.34413(18)
H14_14 H 0.3961 0.3393 0.3401
C20_14 C 0.3076(5) 0.3125(7) 0.36750(18)
C21_14 C 0.2531(6) 0.3301(8) 0.37474(19)
H15_14 H 0.2196 0.3036 0.3908
C22_14 C 0.2452(7) 0.3846(9) 0.3597(2)
C23_14 C 0.2924(6) 0.4210(8) 0.3340(2)
H16_14 H 0.2864 0.4560 0.3223
C24_14 C 0.3149(7) 0.2526(9) 0.38500(19)
O9_11 O 0.3965(4) 0.4875(6) 0.28252(13)
O10_11 O 0.4486(4) 0.4185(6) 0.29378(12)
H17_14 H 0.886241 0.989197 0.568372
H18_10 H 0.461573 0.795542 0.596344
C15_15 C 0.3313(8) 0.0504(6) 0.44685(19)
C19_15 C 0.6504(8) 0.0078(5) 0.34413(18)
H14_15 H 0.6607 0.0569 0.3401
C24_15 C 0.7474(9) 0.0624(6) 0.38500(19)
O10_12 O 0.5815(6) 0.0302(4) 0.29378(12)
O1_15 O 0.1905(6) 0.9016(4) 0.54328(13)
C1_15 C 0.5751(9) 0.7867(7) 0.4218(2)
C2_15 C 0.6037(8) 0.8310(6) 0.4483(3)
H1_15 H 0.6554 0.8557 0.4524
C3_15 C 0.5549(8) 0.8383(6) 0.46863(19)
H2_15 H 0.5739 0.8679 0.4864
C4_15 C 0.4775(7) 0.8013(6) 0.4626(3)
C5_15 C 0.4489(9) 0.7570(6) 0.4361(3)
H3_15 H 0.3972 0.7323 0.4320
C6_15 C 0.4977(9) 0.7497(6) 0.4157(2)
H4_15 H 0.4786 0.7201 0.3980
C7_15 C 0.4375(11) 0.8306(8) 0.4889(3)
H5_15 H 0.4656 0.8446 0.5082
H6_15 H 0.3852 0.7923 0.4929
C8_15 C 0.3876(9) 0.9149(7) 0.4820(3)
C9_15 C 0.3890(8) 0.9735(6) 0.4623(2)
H7_15 H 0.4256 0.9968 0.4469
C10_15 C 0.3354(8) 0.9930(6) 0.46693(19)
C11_15 C 0.2838(7) 0.9605(5) 0.49163(18)
H8_15 H 0.2480 0.9752 0.4952
C12_15 C 0.2859(7) 0.9075(5) 0.5106(2)
C13_15 C 0.3405(8) 0.8847(6) 0.5053(2)
H9_15 H 0.3428 0.8492 0.5181
C14_15 C 0.2365(8) 0.8774(6) 0.53722(18)
O2_15 O 0.2415(5) 0.8282(4) 0.55358(12)
O5_15 O 0.4431(6) 0.8988(5) 0.4726(2)
O6_15 O 0.0666(6) 0.9312(5) 0.56785(16)
H10_15 H 0.0794 0.9500 0.5506
O7_15 O 0.2372(7) 0.7193(6) 0.60325(18)
H11_15 H 0.2434 0.7202 0.6221
C16_15 C 0.6153(12) 0.7668(10) 0.3948(3)
H12_15 H 0.5988 0.7131 0.3951
H13_15 H 0.6699 0.7952 0.3974
O8_15 O 0.5941(6) 0.7869(4) 0.36639(17)
C17_15 C 0.5607(8) 0.9609(6) 0.2988(2)
C18_15 C 0.5974(8) 0.9481(6) 0.32622(18)
C20_15 C 0.6875(7) 0.9952(5) 0.36750(18)
C21_15 C 0.6699(8) 0.9231(6) 0.37474(19)
H15_15 H 0.6964 0.9161 0.3908
C22_15 C 0.6154(9) 0.8607(6) 0.3597(2)
C23_15 C 0.5790(8) 0.8715(6) 0.3340(2)
H16_15 H 0.5440 0.8305 0.3223
O9_12 O 0.5125(6) 0.9091(4) 0.28252(13)
H17_15 H 0.0108029 0.897044 0.568372
H18_11 H 0.204458 0.666031 0.596344
C1_16 C 0.5467(7) 0.4551(5) 0.0884(2)
C2_16 C 0.5024(6) 0.4394(5) 0.1149(3)
H1_16 H 0.4777 0.4664 0.1190
C3_16 C 0.4951(6) 0.3833(6) 0.13529(19)
H2_16 H 0.4655 0.3727 0.1530
C4_16 C 0.5321(6) 0.3429(4) 0.1292(3)
C5_16 C 0.5764(6) 0.3586(7) 0.1027(3)
H3_16 H 0.6011 0.3316 0.0986
C6_16 C 0.5837(6) 0.4147(7) 0.0823(2)
H4_16 H 0.6133 0.4252 0.0646
C7_16 C 0.5028(8) 0.2736(7) 0.1555(3)
H5_16 H 0.4888 0.2877 0.1748
H6_16 H 0.5411 0.2596 0.1595
C8_16 C 0.4185(7) 0.1394(6) 0.1486(3)
C9_16 C 0.3599(6) 0.0822(6) 0.1289(2)
H7_16 H 0.3366 0.0955 0.1135
C10_16 C 0.3404(6) 0.0091(5) 0.13359(19)
C12_16 C 0.4259(5) 0.0451(5) 0.1772(2)
C13_16 C 0.4487(6) 0.1225(6) 0.1719(2)
H9_16 H 0.4842 0.1603 0.1847
C14_16 C 0.4560(6) 0.0258(6) 0.20388(18)
O2_16 O 0.5052(4) 0.0800(3) 0.22024(12)
O5_16 O 0.4346(5) 0.2110(4) 0.1392(2)
O7_16 O 0.6141(6) 0.1846(4) 0.26991(18)
H11_16 H 0.6132 0.1899 0.2887
C16_16 C 0.5666(10) 0.5152(7) 0.0614(3)
H12_16 H 0.6203 0.5524 0.0617
H13_16 H 0.5382 0.5414 0.0640
O8_16 O 0.5465(4) 0.4739(5) 0.03305(17)
C19_16 C 0.3256(5) 0.3093(6) 0.01079(18)
H14_16 H 0.2765 0.2705 0.0067
C20_16 C 0.3382(5) 0.3590(5) 0.03416(18)
C21_16 C 0.4103(6) 0.4135(6) 0.04140(19)
H15_16 H 0.4173 0.4470 0.0574
C22_16 C 0.4727(6) 0.4214(7) 0.0263(2)
C23_16 C 0.4619(6) 0.3742(6) 0.0006(2)
C24_16 C 0.2710(6) 0.3517(7) 0.05166(19)
H18_12 H 0.667303 0.205094 0.26301
C17_16 C 0.3725(6) 0.2665(6) 0.9654(2)
C18_16 C 0.3853(6) 0.3160(6) 0.99288(18)
H16_16 H 0.5029 0.3802 0.9889
O1_16 O 0.4318(4) 0.9556(4) 0.20994(13)
C11_16 C 0.3729(5) 0.9900(5) 0.15829(18)
H8_16 H 0.3582 0.9395 0.1618
C15_16 C 0.2830(6) 0.9476(6) 0.11351(19)
O6_16 O 0.4022(5) 0.8021(4) 0.23451(16)
H10_16 H 0.3834 0.7961 0.2172
H17_16 H 0.436289 0.780425 0.235039
O1_17 O 0.0444(4) 0.4761(6) 0.20994(13)
C11_17 C 0.0100(5) 0.3828(7) 0.15829(18)
H8_17 H 0.0605 0.4186 0.1618
C15_17 C 0.0524(6) 0.3353(8) 0.11351(19)
O6_17 O 0.1979(4) 0.6000(6) 0.23451(16)
H10_17 H 0.2039 0.5872 0.2172
H17_17 H 0.219575 0.655864 0.235039
C1_17 C 0.5449(5) 0.0915(9) 0.0884(2)
C2_17 C 0.5606(5) 0.0629(8) 0.1149(3)
H1_17 H 0.5336 0.0112 0.1190
C3_17 C 0.6167(6) 0.1117(8) 0.13529(19)
H2_17 H 0.6273 0.0927 0.1530
C4_17 C 0.6571(4) 0.1891(7) 0.1292(3)
C5_17 C 0.6414(7) 0.2177(9) 0.1027(3)
H3_17 H 0.6684 0.2694 0.0986
C6_17 C 0.5853(7) 0.1689(9) 0.0823(2)
H4_17 H 0.5748 0.1880 0.0646
C7_17 C 0.7264(7) 0.2291(11) 0.1555(3)
H5_17 H 0.7123 0.2010 0.1748
H6_17 H 0.7404 0.2814 0.1595
C8_17 C 0.8606(6) 0.2790(9) 0.1486(3)
C9_17 C 0.9178(6) 0.2776(8) 0.1289(2)
H7_17 H 0.9045 0.2410 0.1135
C10_17 C 0.9909(5) 0.3312(8) 0.13359(19)
C12_17 C 0.9549(5) 0.3807(7) 0.1772(2)
C13_17 C 0.8775(6) 0.3261(8) 0.1719(2)
H9_17 H 0.8397 0.3238 0.1847
C14_17 C 0.9742(6) 0.4301(8) 0.20388(18)
O2_17 O 0.9200(3) 0.4251(5) 0.22024(12)
O5_17 O 0.7890(4) 0.2235(6) 0.1392(2)
O7_17 O 0.8154(4) 0.4294(7) 0.26991(18)
H11_17 H 0.8101 0.4232 0.2887
C16_17 C 0.4848(7) 0.0513(12) 0.0614(3)
H12_17 H 0.4476 0.0678 0.0617
O8_17 O 0.5261(5) 0.0725(6) 0.03305(17)
C19_17 C 0.6907(6) 0.0162(8) 0.01079(18)
H14_17 H 0.7295 0.0059 0.0067
C22_17 C 0.5786(7) 0.0512(9) 0.0263(2)
C23_17 C 0.6258(6) 0.0876(8) 0.0006(2)
H18_13 H 0.794906 0.462209 0.26301
C17_17 C 0.7335(6) 0.1059(8) 0.9654(2)
C18_17 C 0.6840(6) 0.0692(8) 0.99288(18)
H16_17 H 0.6198 0.1226 0.9889
H13_17 H 0.4586 0.9967 0.0640
C20_17 C 0.6410(5) 0.9791(7) 0.03416(18)
C21_17 C 0.5865(6) 0.9967(8) 0.04140(19)
H15_17 H 0.5530 0.9702 0.0574
C24_17 C 0.6483(7) 0.9192(9) 0.05166(19)
H13_18 H 0.0033 0.4618 0.0640
C20_18 C 0.0209(7) 0.6618(5) 0.03416(18)
C21_18 C 0.0033(8) 0.5897(6) 0.04140(19)
H15_18 H 0.0298 0.5827 0.0574
C24_18 C 0.0808(9) 0.7290(6) 0.05166(19)
O1_18 O 0.5239(6) 0.5682(4) 0.20994(13)
C1_18 C 0.9085(9) 0.4533(7) 0.0884(2)
C2_18 C 0.9371(8) 0.4976(6) 0.1149(3)
H1_18 H 0.9888 0.5223 0.1190
C3_18 C 0.8883(8) 0.5049(6) 0.13529(19)
H2_18 H 0.9073 0.5345 0.1530
C4_18 C 0.8109(7) 0.4679(6) 0.1292(3)
C5_18 C 0.7823(9) 0.4236(6) 0.1027(3)
H3_18 H 0.7306 0.3989 0.0986
C6_18 C 0.8311(9) 0.4163(6) 0.0823(2)
H4_18 H 0.8120 0.3867 0.0646
C7_18 C 0.7709(11) 0.4972(8) 0.1555(3)
H5_18 H 0.7990 0.5112 0.1748
H6_18 H 0.7186 0.4589 0.1595
C8_18 C 0.7210(9) 0.5815(7) 0.1486(3)
C9_18 C 0.7224(8) 0.6401(6) 0.1289(2)
H7_18 H 0.7590 0.6634 0.1135
C10_18 C 0.6688(8) 0.6596(6) 0.13359(19)
C11_18 C 0.6172(7) 0.6271(5) 0.15829(18)
H8_18 H 0.5814 0.6418 0.1618
C12_18 C 0.6193(7) 0.5741(5) 0.1772(2)
C13_18 C 0.6739(8) 0.5513(6) 0.1719(2)
H9_18 H 0.6762 0.5158 0.1847
C14_18 C 0.5699(8) 0.5440(6) 0.20388(18)
C15_18 C 0.6647(8) 0.7170(6) 0.11351(19)
O2_18 O 0.5749(5) 0.4948(4) 0.22024(12)
O5_18 O 0.7765(6) 0.5654(5) 0.1392(2)
O6_18 O 0.4000(6) 0.5978(5) 0.23451(16)
H10_18 H 0.4128 0.6166 0.2172
O7_18 O 0.5706(7) 0.3859(6) 0.26991(18)
H11_18 H 0.5768 0.3868 0.2887
C16_18 C 0.9487(12) 0.4334(10) 0.0614(3)
H12_18 H 0.9322 0.3797 0.0617
O8_18 O 0.9275(6) 0.4535(4) 0.03305(17)
C19_18 C 0.9838(8) 0.6744(5) 0.01079(18)
H14_18 H 0.9941 0.7235 0.0067
C22_18 C 0.9488(9) 0.5273(6) 0.0263(2)
C23_18 C 0.9124(8) 0.5381(6) 0.0006(2)
H17_18 H 0.344136 0.563711 0.235039
H18_14 H 0.537791 0.332697 0.26301
C17_18 C 0.8941(8) 0.6275(6) 0.9654(2)
C18_18 C 0.9308(8) 0.6147(6) 0.99288(18)
H16_18 H 0.8774 0.4971 0.9889
H18_15 H 0.999364 0.128239 0.070323
H18_16 H 0.128875 0.000636101 0.070323
H18_17 H 0.000636101 0.871761 0.929677
H18_18 H 0.871125 0.999364 0.929677
loop_
_geom_bond_atom_site_label_1
_geom_bond_atom_site_label_2
_geom_bond_site_symmetry_1
_geom_bond_site_symmetry_2
Cu1 Cu2 1_555 1_555
O1 C14 1_555 1_555
H5 C7 1_555 1_555
H6 C7 1_555 1_555
C8 C9 1_555 1_555
C9 H7 1_555 1_555
C10 C9 1_555 1_555
C11 C10 1_555 1_555
H8 C11 1_555 1_555
C12 C11 1_555 1_555
C13 C8 1_555 1_555
H9 C13 1_555 1_555
C14 C12 1_555 1_555
C15 C10 1_555 1_555
Cu2 O1 1_555 1_555
O2 Cu1 1_555 1_555
O3 C15 1_555 1_555
O4 C15 1_555 1_555
O5 C7 1_555 1_555
O6 Cu2 1_555 1_555
H10 O6 1_555 1_555
O7 Cu1 1_555 1_555
H11 O7 1_555 1_555
C17 C18 1_555 1_555
C18 C19 1_555 1_555
C19 H14 1_555 1_555
O9 C17 1_555 1_555
O10 C17 1_555 1_555
Cu3 O10 1_555 1_555
Cu4 O11 1_555 1_555
Cu5 O4 1_555 1_555
Cu6 O9 1_555 1_555
Cu8 O3 1_555 1_555
O13 Cu2 1_555 1_555
O14 Cu1 1_555 1_555
O15 Cu2 1_555 1_555
O16 Cu1 1_555 1_555
O17 Cu1 1_555 1_555
O18 Cu2 1_555 1_555
C8 O5 1_555 1_555
C12 C13 1_555 1_555
C14 O2 1_555 1_555
Cu3 Cu6 1_555 1_555
Cu5 Cu8 1_555 1_555
O6 H17 1_555 1_555
C1 C2 1_555 1_555
C2 H1 1_555 1_555
C3 C2 1_555 1_555
H2 C3 1_555 1_555
C4 C3 1_555 1_555
C5 C4 1_555 1_555
C6 C1 1_555 1_555
H4 C6 1_555 1_555
C16 C1 1_555 1_555
H12 C16 1_555 1_555
H13 C16 1_555 1_555
O8 C16 1_555 1_555
C21 C20 1_555 1_555
H15 C21 1_555 1_555
C22 O8 1_555 1_555
H16 C23 1_555 1_555
C24 C20 1_555 1_555
O12 C24 1_555 1_555
Cu7 O12 1_555 1_555
C5 C6 1_555 1_555
C21 C22 1_555 1_555
C22 C23 1_555 1_555
C1_2 C2_2 1_555 1_555
C2_2 H1_2 1_555 1_555
C3_2 C2_2 1_555 1_555
H2_2 C3_2 1_555 1_555
C4_2 C3_2 1_555 1_555
C5_2 C4_2 1_555 1_555
C6_2 C1_2 1_555 1_555
H4_2 C6_2 1_555 1_555
C16_2 C1_2 1_555 1_555
H12_2 C16_2 1_555 1_555
H13_2 C16_2 1_555 1_555
O8_2 C16_2 1_555 1_555
C21_2 C20_2 1_555 1_555
H15_2 C21_2 1_555 1_555
C22_2 O8_2 1_555 1_555
H16_2 C23_2 1_555 1_555
C24_2 C20_2 1_555 1_555
O12_2 C24_2 1_555 1_555
Cu7_2 O12_2 1_555 1_555
C5_2 C6_2 1_555 1_555
C21_2 C22_2 1_555 1_555
C22_2 C23_2 1_555 1_555
H5_2 C7_2 1_555 1_555
H6_2 C7_2 1_555 1_555
C8_2 C9_2 1_555 1_555
C9_2 H7_2 1_555 1_555
C10_2 C9_2 1_555 1_555
C13_2 C8_2 1_555 1_555
H9_2 C13_2 1_555 1_555
O5_2 C7_2 1_555 1_555
C17_2 C18_2 1_555 1_555
C18_2 C19_2 1_555 1_555
C19_2 H14_2 1_555 1_555
O9_2 C17_2 1_555 1_555
O10_2 C17_2 1_555 1_555
Cu3_2 O10_2 1_555 1_555
Cu4_2 O11_2 1_555 1_555
Cu4 O4_2 1_555 1_555
Cu6_2 O9_2 1_555 1_555
C8_2 O5_2 1_555 1_555
Cu3_2 Cu6_2 1_555 1_555
Cu1_2 Cu2_2 1_555 1_555
O1_2 C14_2 1_555 1_555
H8_2 C11_2 1_555 1_555
C12_2 C11_2 1_555 1_555
C14_2 C12_2 1_555 1_555
Cu2_2 O1_2 1_555 1_555
O2_2 Cu1_2 1_555 1_555
O3_2 C15_2 1_555 1_555
O6_2 Cu2_2 1_555 1_555
H10_2 O6_2 1_555 1_555
O7_2 Cu1_2 1_555 1_555
H11_2 O7_2 1_555 1_555
Cu7 O3_2 1_555 1_555
O13_2 Cu2_2 1_555 1_555
O14_2 Cu1_2 1_555 1_555
O15_2 Cu2_2 1_555 1_555
O16_2 Cu1_2 1_555 1_555
O17_2 Cu1_2 1_555 1_555
O18_2 Cu2_2 1_555 1_555
C14_2 O2_2 1_555 1_555
O6_2 H17_2 1_555 1_555
O7_2 H18 1_555 1_555
Cu1_3 Cu2_3 1_555 1_555
O1_3 C14_3 1_555 1_555
H8_3 C11_3 1_555 1_555
C12_3 C11_3 1_555 1_555
C14_3 C12_3 1_555 1_555
Cu2_3 O1_3 1_555 1_555
O2_3 Cu1_3 1_555 1_555
O3_3 C15_3 1_555 1_555
O6_3 Cu2_3 1_555 1_555
H10_3 O6_3 1_555 1_555
O7_3 Cu1_3 1_555 1_555
H11_3 O7_3 1_555 1_555
Cu7_2 O3_3 1_555 1_555
O13_3 Cu2_3 1_555 1_555
O14_3 Cu1_3 1_555 1_555
O15_3 Cu2_3 1_555 1_555
O16_3 Cu1_3 1_555 1_555
O17_3 Cu1_3 1_555 1_555
O18_3 Cu2_3 1_555 1_555
C14_3 O2_3 1_555 1_555
O6_3 H17_3 1_555 1_555
C1_3 C2_3 1_555 1_555
C2_3 H1_3 1_555 1_555
C3_3 C2_3 1_555 1_555
H2_3 C3_3 1_555 1_555
C4_3 C3_3 1_555 1_555
C5_3 C4_3 1_555 1_555
H3_3 C5_3 1_555 1_555
C6_3 C1_3 1_555 1_555
H4_3 C6_3 1_555 1_555
C7_3 C4_3 1_555 1_555
H5_3 C7_3 1_555 1_555
H6_3 C7_3 1_555 1_555
C8_3 C9_3 1_555 1_555
C9_3 H7_3 1_555 1_555
C10_3 C9_3 1_555 1_555
C13_3 C8_3 1_555 1_555
H9_3 C13_3 1_555 1_555
O5_3 C7_3 1_555 1_555
C16_3 C1_3 1_555 1_555
H12_3 C16_3 1_555 1_555
H13_3 C16_3 1_555 1_555
O8_3 C16_3 1_555 1_555
C17_3 C18_3 1_555 1_555
C18_3 C19_3 1_555 1_555
C19_3 H14_3 1_555 1_555
C20_3 C19_3 1_555 1_555
C21_3 C20_3 1_555 1_555
H15_3 C21_3 1_555 1_555
C22_3 O8_3 1_555 1_555
C23_3 C18_3 1_555 1_555
H16_3 C23_3 1_555 1_555
C24_3 C20_3 1_555 1_555
O9_3 C17_3 1_555 1_555
O10_3 C17_3 1_555 1_555
O11_3 C24_3 1_555 1_555
O12_3 C24_3 1_555 1_555
Cu3_3 O10_3 1_555 1_555
Cu5 O11_3 1_555 1_555
Cu4_2 O4_3 1_555 1_555
Cu6_3 O9_3 1_555 1_555
Cu8 O12_3 1_555 1_555
C5_3 C6_3 1_555 1_555
C8_3 O5_3 1_555 1_555
C21_3 C22_3 1_555 1_555
C22_3 C23_3 1_555 1_555
Cu3_3 Cu6_3 1_555 1_555
O3_4 C15_4 1_555 1_555
O4_4 C15_4 1_555 1_555
C19_4 H14_4 1_555 1_555
O11_4 C24_4 1_555 1_555
O12_4 C24_4 1_555 1_555
Cu3_4 O10_4 1_555 1_555
Cu4_3 O11_4 1_555 1_555
Cu5_2 O4_4 1_555 1_555
Cu7_3 O12_4 1_555 1_555
Cu8_2 O3_4 1_555 1_555
Cu4_3 Cu7_3 1_555 1_555
Cu5_2 Cu8_2 1_555 1_555
O1_4 C14_4 1_555 1_555
C1_4 C2_4 1_555 1_555
C2_4 H1_4 1_555 1_555
C3_4 C2_4 1_555 1_555
H2_4 C3_4 1_555 1_555
C4_4 C3_4 1_555 1_555
C5_4 C4_4 1_555 1_555
H3_4 C5_4 1_555 1_555
C6_4 C1_4 1_555 1_555
H4_4 C6_4 1_555 1_555
C7_4 C4_4 1_555 1_555
H5_4 C7_4 1_555 1_555
H6_4 C7_4 1_555 1_555
C8_4 C9_4 1_555 1_555
C9_4 H7_4 1_555 1_555
C10_4 C9_4 1_555 1_555
C11_4 C10_4 1_555 1_555
H8_4 C11_4 1_555 1_555
C12_4 C11_4 1_555 1_555
C13_4 C8_4 1_555 1_555
H9_4 C13_4 1_555 1_555
C14_4 C12_4 1_555 1_555
Cu6_3 O1_4 1_555 1_555
O2_4 Cu3_3 1_555 1_555
O5_4 C7_4 1_555 1_555
O6_4 Cu6_3 1_555 1_555
H10_4 O6_4 1_555 1_555
O7_4 Cu3_3 1_555 1_555
H11_4 O7_4 1_555 1_555
C16_4 C1_4 1_555 1_555
H12_4 C16_4 1_555 1_555
H13_4 C16_4 1_555 1_555
O8_4 C16_4 1_555 1_555
C17_4 C18_4 1_555 1_555
C21_4 C20_4 1_555 1_555
H15_4 C21_4 1_555 1_555
C22_4 O8_4 1_555 1_555
C23_4 C18_4 1_555 1_555
H16_4 C23_4 1_555 1_555
O9_4 C17_4 1_555 1_555
Cu6_4 O9_4 1_555 1_555
O13_4 Cu6_3 1_555 1_555
O14_4 Cu3_3 1_555 1_555
O17_4 Cu3_3 1_555 1_555
O18_4 Cu6_3 1_555 1_555
C5_4 C6_4 1_555 1_555
C8_4 O5_4 1_555 1_555
C12_4 C13_4 1_555 1_555
C14_4 O2_4 1_555 1_555
C21_4 C22_4 1_555 1_555
C22_4 C23_4 1_555 1_555
O6_4 H17_4 1_555 1_555
O7_4 H18_2 1_555 1_555
O1_5 C14_5 1_555 1_555
C1_5 C2_5 1_555 1_555
C2_5 H1_5 1_555 1_555
C3_5 C2_5 1_555 1_555
H2_5 C3_5 1_555 1_555
C4_5 C3_5 1_555 1_555
C5_5 C4_5 1_555 1_555
H3_5 C5_5 1_555 1_555
C6_5 C1_5 1_555 1_555
H4_5 C6_5 1_555 1_555
C7_5 C4_5 1_555 1_555
H5_5 C7_5 1_555 1_555
H6_5 C7_5 1_555 1_555
C8_5 C9_5 1_555 1_555
C9_5 H7_5 1_555 1_555
C10_5 C9_5 1_555 1_555
C11_5 C10_5 1_555 1_555
H8_5 C11_5 1_555 1_555
C12_5 C11_5 1_555 1_555
C13_5 C8_5 1_555 1_555
H9_5 C13_5 1_555 1_555
C14_5 C12_5 1_555 1_555
C15_5 C10_5 1_555 1_555
Cu6 O1_5 1_555 1_555
O2_5 Cu3 1_555 1_555
O3_5 C15_5 1_555 1_555
O4_5 C15_5 1_555 1_555
O5_5 C7_5 1_555 1_555
O6_5 Cu6 1_555 1_555
H10_5 O6_5 1_555 1_555
O7_5 Cu3 1_555 1_555
H11_5 O7_5 1_555 1_555
C16_5 C1_5 1_555 1_555
H12_5 C16_5 1_555 1_555
H13_5 C16_5 1_555 1_555
O8_5 C16_5 1_555 1_555
C17_5 C18_5 1_555 1_555
C18_5 C19_5 1_555 1_555
C19_5 H14_5 1_555 1_555
C20_5 C19_5 1_555 1_555
C21_5 C20_5 1_555 1_555
H15_5 C21_5 1_555 1_555
C22_5 O8_5 1_555 1_555
C23_5 C18_5 1_555 1_555
H16_5 C23_5 1_555 1_555
C24_5 C20_5 1_555 1_555
O9_5 C17_5 1_555 1_555
O10_5 C17_5 1_555 1_555
O11_5 C24_5 1_555 1_555
O12_5 C24_5 1_555 1_555
Cu3_5 O10_5 1_555 1_555
Cu4_4 O11_5 1_555 1_555
Cu4_3 O4_5 1_555 1_555
Cu6_5 O9_5 1_555 1_555
Cu7_4 O12_5 1_555 1_555
Cu7_3 O3_5 1_555 1_555
O13_5 Cu6 1_555 1_555
O14_5 Cu3 1_555 1_555
O17_5 Cu3 1_555 1_555
O18_5 Cu6 1_555 1_555
C5_5 C6_5 1_555 1_555
C8_5 O5_5 1_555 1_555
C12_5 C13_5 1_555 1_555
C14_5 O2_5 1_555 1_555
C21_5 C22_5 1_555 1_555
C22_5 C23_5 1_555 1_555
Cu3_5 Cu6_5 1_555 1_555
Cu4_4 Cu7_4 1_555 1_555
O6_5 H17_5 1_555 1_555
O7_5 H18_3 1_555 1_555
O1_6 C14_6 1_555 1_555
C1_6 C2_6 1_555 1_555
C2_6 H1_6 1_555 1_555
C3_6 C2_6 1_555 1_555
H2_6 C3_6 1_555 1_555
C4_6 C3_6 1_555 1_555
C5_6 C4_6 1_555 1_555
H3_6 C5_6 1_555 1_555
C6_6 C1_6 1_555 1_555
H4_6 C6_6 1_555 1_555
C7_6 C4_6 1_555 1_555
H5_6 C7_6 1_555 1_555
H6_6 C7_6 1_555 1_555
C8_6 C9_6 1_555 1_555
C9_6 H7_6 1_555 1_555
C10_6 C9_6 1_555 1_555
C11_6 C10_6 1_555 1_555
H8_6 C11_6 1_555 1_555
C12_6 C11_6 1_555 1_555
C13_6 C8_6 1_555 1_555
H9_6 C13_6 1_555 1_555
C14_6 C12_6 1_555 1_555
Cu6_2 O1_6 1_555 1_555
O2_6 Cu3_2 1_555 1_555
O5_6 C7_6 1_555 1_555
O6_6 Cu6_2 1_555 1_555
H10_6 O6_6 1_555 1_555
O7_6 Cu3_2 1_555 1_555
H11_6 O7_6 1_555 1_555
C16_6 C1_6 1_555 1_555
H12_6 C16_6 1_555 1_555
H13_6 C16_6 1_555 1_555
O8_6 C16_6 1_555 1_555
C17_6 C18_6 1_555 1_555
C21_6 C20_6 1_555 1_555
H15_6 C21_6 1_555 1_555
C22_6 O8_6 1_555 1_555
C23_6 C18_6 1_555 1_555
H16_6 C23_6 1_555 1_555
O9_6 C17_6 1_555 1_555
Cu6_6 O9_6 1_555 1_555
O13_6 Cu6_2 1_555 1_555
O14_6 Cu3_2 1_555 1_555
O17_6 Cu3_2 1_555 1_555
O18_6 Cu6_2 1_555 1_555
C5_6 C6_6 1_555 1_555
C8_6 O5_6 1_555 1_555
C12_6 C13_6 1_555 1_555
C14_6 O2_6 1_555 1_555
C21_6 C22_6 1_555 1_555
C22_6 C23_6 1_555 1_555
O6_6 H17_6 1_555 1_555
O7_6 H18_4 1_555 1_555
O3_6 C15_6 1_555 1_555
O4_6 C15_6 1_555 1_555
C19_6 H14_6 1_555 1_555
O11_6 C24_6 1_555 1_555
O12_6 C24_6 1_555 1_555
Cu3_6 O10_6 1_555 1_555
Cu5_2 O11_6 1_555 1_555
Cu4_4 O4_6 1_555 1_555
Cu8_2 O12_6 1_555 1_555
Cu7_4 O3_6 1_555 1_555
H8_7 C11_7 1_555 1_555
Cu6_6 O1_7 1_555 1_555
O3_7 C15_7 1_555 1_555
O4_7 C15_7 1_555 1_555
O6_7 Cu6_6 1_555 1_555
H10_7 O6_7 1_555 1_555
Cu5_3 O4_7 1_555 1_555
Cu8_3 O3_7 1_555 1_555
O13_7 Cu6_6 1_555 1_555
O18_7 Cu6_6 1_555 1_555
Cu5_3 Cu8_3 1_555 1_555
O6_7 H17_7 1_555 1_555
C17_7 C18_7 1_555 1_555
O15_2 C17_7 1_555 1_555
O16_2 C17_7 1_555 1_555
C1_7 C2_7 1_555 1_555
C2_7 H1_7 1_555 1_555
C3_7 C2_7 1_555 1_555
H2_7 C3_7 1_555 1_555
C4_7 C3_7 1_555 1_555
C5_7 C4_7 1_555 1_555
H3_7 C5_7 1_555 1_555
C6_7 C1_7 1_555 1_555
H4_7 C6_7 1_555 1_555
C7_7 C4_7 1_555 1_555
H5_7 C7_7 1_555 1_555
H6_7 C7_7 1_555 1_555
C8_7 C9_7 1_555 1_555
C9_7 H7_7 1_555 1_555
C10_7 C9_7 1_555 1_555
C13_7 C8_7 1_555 1_555
H9_7 C13_7 1_555 1_555
C14_7 C12_7 1_555 1_555
O2_7 Cu3_6 1_555 1_555
O5_7 C7_7 1_555 1_555
O7_7 Cu3_6 1_555 1_555
H11_7 O7_7 1_555 1_555
C16_7 C1_7 1_555 1_555
H12_7 C16_7 1_555 1_555
H13_7 C16_7 1_555 1_555
O8_7 C16_7 1_555 1_555
C19_7 H14_7 1_555 1_555
C20_7 C19_7 1_555 1_555
C21_7 C20_7 1_555 1_555
H15_7 C21_7 1_555 1_555
C22_7 O8_7 1_555 1_555
C24_7 C20_7 1_555 1_555
O11_7 C24_7 1_555 1_555
O12_7 C24_7 1_555 1_555
Cu4_5 O11_7 1_555 1_555
Cu7_5 O12_7 1_555 1_555
O14_7 Cu3_6 1_555 1_555
O17_7 Cu3_6 1_555 1_555
C5_7 C6_7 1_555 1_555
C8_7 O5_7 1_555 1_555
C12_7 C13_7 1_555 1_555
C14_7 O2_7 1_555 1_555
C21_7 C22_7 1_555 1_555
C22_7 C23_7 1_555 1_555
Cu4_5 Cu7_5 1_555 1_555
O7_7 H18_5 1_555 1_555
C21_8 C20_8 1_555 1_555
H15_8 C21_8 1_555 1_555
C24_8 C20_8 1_555 1_555
O11_8 C24_8 1_555 1_555
O12_8 C24_8 1_555 1_555
Cu4_6 O11_8 1_555 1_555
Cu7_6 O12_8 1_555 1_555
Cu4_6 Cu7_6 1_555 1_555
C17_8 C18_8 1_555 1_555
O15_3 C17_8 1_555 1_555
O16_3 C17_8 1_555 1_555
C1_8 C2_8 1_555 1_555
C2_8 H1_8 1_555 1_555
C3_8 C2_8 1_555 1_555
H2_8 C3_8 1_555 1_555
C4_8 C3_8 1_555 1_555
C5_8 C4_8 1_555 1_555
H3_8 C5_8 1_555 1_555
C6_8 C1_8 1_555 1_555
H4_8 C6_8 1_555 1_555
C7_8 C4_8 1_555 1_555
H5_8 C7_8 1_555 1_555
H6_8 C7_8 1_555 1_555
C8_8 C9_8 1_555 1_555
C9_8 H7_8 1_555 1_555
C10_8 C9_8 1_555 1_555
C13_8 C8_8 1_555 1_555
H9_8 C13_8 1_555 1_555
C14_8 C12_8 1_555 1_555
O2_8 Cu3_4 1_555 1_555
O5_8 C7_8 1_555 1_555
O7_8 Cu3_4 1_555 1_555
H11_8 O7_8 1_555 1_555
C16_8 C1_8 1_555 1_555
H12_8 C16_8 1_555 1_555
O8_8 C16_8 1_555 1_555
C19_8 H14_8 1_555 1_555
C22_8 O8_8 1_555 1_555
O14_8 Cu3_4 1_555 1_555
O17_8 Cu3_4 1_555 1_555
C5_8 C6_8 1_555 1_555
C8_8 O5_8 1_555 1_555
C12_8 C13_8 1_555 1_555
C14_8 O2_8 1_555 1_555
C22_8 C23_8 1_555 1_555
O7_8 H18_6 1_555 1_555
H8_8 C11_8 1_555 1_555
Cu6_4 O1_8 1_555 1_555
O3_8 C15_8 1_555 1_555
O4_8 C15_8 1_555 1_555
O6_8 Cu6_4 1_555 1_555
H10_8 O6_8 1_555 1_555
Cu4_5 O4_8 1_555 1_555
Cu7_5 O3_8 1_555 1_555
O13_8 Cu6_4 1_555 1_555
O18_8 Cu6_4 1_555 1_555
O6_8 H17_8 1_555 1_555
C17_9 C18_9 1_555 1_555
O15 C17_9 1_555 1_555
O16 C17_9 1_555 1_555
O1_9 C14_9 1_555 1_555
C1_9 C2_9 1_555 1_555
C2_9 H1_9 1_555 1_555
C3_9 C2_9 1_555 1_555
H2_9 C3_9 1_555 1_555
C4_9 C3_9 1_555 1_555
C5_9 C4_9 1_555 1_555
H3_9 C5_9 1_555 1_555
C6_9 C1_9 1_555 1_555
H4_9 C6_9 1_555 1_555
C7_9 C4_9 1_555 1_555
H5_9 C7_9 1_555 1_555
H6_9 C7_9 1_555 1_555
C8_9 C9_9 1_555 1_555
C9_9 H7_9 1_555 1_555
C10_9 C9_9 1_555 1_555
C11_9 C10_9 1_555 1_555
H8_9 C11_9 1_555 1_555
C12_9 C11_9 1_555 1_555
C13_9 C8_9 1_555 1_555
H9_9 C13_9 1_555 1_555
C14_9 C12_9 1_555 1_555
C15_9 C10_9 1_555 1_555
Cu6_5 O1_9 1_555 1_555
O2_9 Cu3_5 1_555 1_555
O3_9 C15_9 1_555 1_555
O4_9 C15_9 1_555 1_555
O5_9 C7_9 1_555 1_555
O6_9 Cu6_5 1_555 1_555
H10_9 O6_9 1_555 1_555
O7_9 Cu3_5 1_555 1_555
H11_9 O7_9 1_555 1_555
C16_9 C1_9 1_555 1_555
H12_9 C16_9 1_555 1_555
O8_9 C16_9 1_555 1_555
C19_9 H14_9 1_555 1_555
C22_9 O8_9 1_555 1_555
Cu4_6 O4_9 1_555 1_555
Cu7_6 O3_9 1_555 1_555
O13_9 Cu6_5 1_555 1_555
O14_9 Cu3_5 1_555 1_555
O17_9 Cu3_5 1_555 1_555
O18_9 Cu6_5 1_555 1_555
C5_9 C6_9 1_555 1_555
C8_9 O5_9 1_555 1_555
C12_9 C13_9 1_555 1_555
C14_9 O2_9 1_555 1_555
C22_9 C23_9 1_555 1_555
O6_9 H17_9 1_555 1_555
O7_9 H18_7 1_555 1_555
C21_9 C20_9 1_555 1_555
H15_9 C21_9 1_555 1_555
C24_9 C20_9 1_555 1_555
O11_9 C24_9 1_555 1_555
O12_9 C24_9 1_555 1_555
Cu5_3 O11_9 1_555 1_555
Cu8_3 O12_9 1_555 1_555
C1_10 C2_10 1_555 1_555
C2_10 H1_10 1_555 1_555
C3_10 C2_10 1_555 1_555
H2_10 C3_10 1_555 1_555
C4_10 C3_10 1_555 1_555
C5_10 C4_10 1_555 1_555
C6_10 C1_10 1_555 1_555
H4_10 C6_10 1_555 1_555
C16_10 C1_10 1_555 1_555
H12_10 C16_10 1_555 1_555
H13_10 C16_10 1_555 1_555
O8_10 C16_10 1_555 1_555
C21_10 C20_10 1_555 1_555
H15_10 C21_10 1_555 1_555
C22_10 O8_10 1_555 1_555
H16_10 C23_10 1_555 1_555
C24_10 C20_10 1_555 1_555
O18_7 C24_10 1_555 1_555
C5_10 C6_10 1_555 1_555
C21_10 C22_10 1_555 1_555
C22_10 C23_10 1_555 1_555
O1_10 C14_10 1_555 1_555
H5_10 C7_10 1_555 1_555
H6_10 C7_10 1_555 1_555
C8_10 C9_10 1_555 1_555
C9_10 H7_10 1_555 1_555
C10_10 C9_10 1_555 1_555
C11_10 C10_10 1_555 1_555
H8_10 C11_10 1_555 1_555
C12_10 C11_10 1_555 1_555
C13_10 C8_10 1_555 1_555
H9_10 C13_10 1_555 1_555
C14_10 C12_10 1_555 1_555
C15_10 C10_10 1_555 1_555
Cu7_5 O1_10 1_555 1_555
O2_10 Cu4_5 1_555 1_555
O13_9 C15_10 1_555 1_555
O14_9 C15_10 1_555 1_555
O5_10 C7_10 1_555 1_555
O6_10 Cu7_5 1_555 1_555
H10_10 O6_10 1_555 1_555
O7_10 Cu4_5 1_555 1_555
H11_10 O7_10 1_555 1_555
C17_10 C18_10 1_555 1_555
C18_10 C19_10 1_555 1_555
C19_10 H14_10 1_555 1_555
O9_7 C17_10 1_555 1_555
O10_7 C17_10 1_555 1_555
Cu4_4 O10_7 1_555 1_555
Cu7_4 O9_7 1_555 1_555
O15_4 Cu7_5 1_555 1_555
O16_4 Cu4_5 1_555 1_555
C8_10 O5_10 1_555 1_555
C12_10 C13_10 1_555 1_555
C14_10 O2_10 1_555 1_555
O6_10 H17_10 1_555 1_555
O1_11 C14_11 1_555 1_555
H8_11 C11_11 1_555 1_555
C12_11 C11_11 1_555 1_555
C14_11 C12_11 1_555 1_555
Cu7_6 O1_11 1_555 1_555
O2_11 Cu4_6 1_555 1_555
O13_7 C15_11 1_555 1_555
O6_11 Cu7_6 1_555 1_555
H10_11 O6_11 1_555 1_555
O7_11 Cu4_6 1_555 1_555
H11_11 O7_11 1_555 1_555
O15_5 Cu7_6 1_555 1_555
O16_5 Cu4_6 1_555 1_555
C14_11 O2_11 1_555 1_555
O6_11 H17_11 1_555 1_555
O7_11 H18_8 1_555 1_555
H5_11 C7_11 1_555 1_555
H6_11 C7_11 1_555 1_555
C8_11 C9_11 1_555 1_555
C9_11 H7_11 1_555 1_555
C10_11 C9_11 1_555 1_555
C13_11 C8_11 1_555 1_555
H9_11 C13_11 1_555 1_555
O5_11 C7_11 1_555 1_555
C17_11 C18_11 1_555 1_555
C18_11 C19_11 1_555 1_555
C19_11 H14_11 1_555 1_555
O9_8 C17_11 1_555 1_555
O10_8 C17_11 1_555 1_555
Cu5_2 O10_8 1_555 1_555
Cu8_2 O9_8 1_555 1_555
C8_11 O5_11 1_555 1_555
C1_11 C2_11 1_555 1_555
C2_11 H1_11 1_555 1_555
C3_11 C2_11 1_555 1_555
H2_11 C3_11 1_555 1_555
C4_11 C3_11 1_555 1_555
C5_11 C4_11 1_555 1_555
C6_11 C1_11 1_555 1_555
H4_11 C6_11 1_555 1_555
C16_11 C1_11 1_555 1_555
H12_11 C16_11 1_555 1_555
H13_11 C16_11 1_555 1_555
O8_11 C16_11 1_555 1_555
C21_11 C20_11 1_555 1_555
H15_11 C21_11 1_555 1_555
C22_11 O8_11 1_555 1_555
H16_11 C23_11 1_555 1_555
C24_11 C20_11 1_555 1_555
O18_8 C24_11 1_555 1_555
C5_11 C6_11 1_555 1_555
C21_11 C22_11 1_555 1_555
C22_11 C23_11 1_555 1_555
C1_12 C2_12 1_555 1_555
C2_12 H1_12 1_555 1_555
C3_12 C2_12 1_555 1_555
H2_12 C3_12 1_555 1_555
C4_12 C3_12 1_555 1_555
C5_12 C4_12 1_555 1_555
H3_12 C5_12 1_555 1_555
C6_12 C1_12 1_555 1_555
H4_12 C6_12 1_555 1_555
C7_12 C4_12 1_555 1_555
H5_12 C7_12 1_555 1_555
H6_12 C7_12 1_555 1_555
C8_12 C9_12 1_555 1_555
C9_12 H7_12 1_555 1_555
C10_12 C9_12 1_555 1_555
C13_12 C8_12 1_555 1_555
H9_12 C13_12 1_555 1_555
O5_12 C7_12 1_555 1_555
C16_12 C1_12 1_555 1_555
H12_12 C16_12 1_555 1_555
H13_12 C16_12 1_555 1_555
O8_12 C16_12 1_555 1_555
C17_12 C18_12 1_555 1_555
C18_12 C19_12 1_555 1_555
C19_12 H14_12 1_555 1_555
C20_12 C19_12 1_555 1_555
C21_12 C20_12 1_555 1_555
H15_12 C21_12 1_555 1_555
C22_12 O8_12 1_555 1_555
C23_12 C18_12 1_555 1_555
H16_12 C23_12 1_555 1_555
C24_12 C20_12 1_555 1_555
O9_9 C17_12 1_555 1_555
O10_9 C17_12 1_555 1_555
O17_9 C24_12 1_555 1_555
O18_9 C24_12 1_555 1_555
Cu4_3 O10_9 1_555 1_555
Cu7_3 O9_9 1_555 1_555
C5_12 C6_12 1_555 1_555
C8_12 O5_12 1_555 1_555
C21_12 C22_12 1_555 1_555
C22_12 C23_12 1_555 1_555
O1_12 C14_12 1_555 1_555
H8_12 C11_12 1_555 1_555
C12_12 C11_12 1_555 1_555
C14_12 C12_12 1_555 1_555
Cu8_3 O1_12 1_555 1_555
O2_12 Cu5_3 1_555 1_555
O13_8 C15_12 1_555 1_555
O6_12 Cu8_3 1_555 1_555
H10_12 O6_12 1_555 1_555
O7_12 Cu5_3 1_555 1_555
H11_12 O7_12 1_555 1_555
O15_6 Cu8_3 1_555 1_555
O16_6 Cu5_3 1_555 1_555
C14_12 O2_12 1_555 1_555
O6_12 H17_12 1_555 1_555
O1_13 C14_13 1_555 1_555
C1_13 C2_13 1_555 1_555
C2_13 H1_13 1_555 1_555
C3_13 C2_13 1_555 1_555
H2_13 C3_13 1_555 1_555
C4_13 C3_13 1_555 1_555
C5_13 C4_13 1_555 1_555
H3_13 C5_13 1_555 1_555
C6_13 C1_13 1_555 1_555
H4_13 C6_13 1_555 1_555
C7_13 C4_13 1_555 1_555
H5_13 C7_13 1_555 1_555
H6_13 C7_13 1_555 1_555
C8_13 C9_13 1_555 1_555
C9_13 H7_13 1_555 1_555
C10_13 C9_13 1_555 1_555
C11_13 C10_13 1_555 1_555
H8_13 C11_13 1_555 1_555
C12_13 C11_13 1_555 1_555
C13_13 C8_13 1_555 1_555
H9_13 C13_13 1_555 1_555
C14_13 C12_13 1_555 1_555
Cu7_3 O1_13 1_555 1_555
O2_13 Cu4_3 1_555 1_555
O5_13 C7_13 1_555 1_555
O6_13 Cu7_3 1_555 1_555
H10_13 O6_13 1_555 1_555
O7_13 Cu4_3 1_555 1_555
H11_13 O7_13 1_555 1_555
C16_13 C1_13 1_555 1_555
H12_13 C16_13 1_555 1_555
H13_13 C16_13 1_555 1_555
O8_13 C16_13 1_555 1_555
C17_13 C18_13 1_555 1_555
C21_13 C20_13 1_555 1_555
H15_13 C21_13 1_555 1_555
C22_13 O8_13 1_555 1_555
C23_13 C18_13 1_555 1_555
H16_13 C23_13 1_555 1_555
O9_10 C17_13 1_555 1_555
Cu7_2 O9_10 1_555 1_555
C5_13 C6_13 1_555 1_555
C8_13 O5_13 1_555 1_555
C12_13 C13_13 1_555 1_555
C14_13 O2_13 1_555 1_555
C21_13 C22_13 1_555 1_555
C22_13 C23_13 1_555 1_555
O6_13 H17_13 1_555 1_555
O7_13 H18_9 1_555 1_555
O13_6 C15_13 1_555 1_555
O14_6 C15_13 1_555 1_555
C19_13 H14_13 1_555 1_555
O17_4 C24_13 1_555 1_555
O18_4 C24_13 1_555 1_555
Cu4_2 O10_10 1_555 1_555
O1_14 C14_14 1_555 1_555
C1_14 C2_14 1_555 1_555
C2_14 H1_14 1_555 1_555
C3_14 C2_14 1_555 1_555
H2_14 C3_14 1_555 1_555
C4_14 C3_14 1_555 1_555
C5_14 C4_14 1_555 1_555
H3_14 C5_14 1_555 1_555
C6_14 C1_14 1_555 1_555
H4_14 C6_14 1_555 1_555
C7_14 C4_14 1_555 1_555
H5_14 C7_14 1_555 1_555
H6_14 C7_14 1_555 1_555
C8_14 C9_14 1_555 1_555
C9_14 H7_14 1_555 1_555
C10_14 C9_14 1_555 1_555
C11_14 C10_14 1_555 1_555
H8_14 C11_14 1_555 1_555
C12_14 C11_14 1_555 1_555
C13_14 C8_14 1_555 1_555
H9_14 C13_14 1_555 1_555
C14_14 C12_14 1_555 1_555
C15_14 C10_14 1_555 1_555
Cu7_4 O1_14 1_555 1_555
O2_14 Cu4_4 1_555 1_555
O13_4 C15_14 1_555 1_555
O14_4 C15_14 1_555 1_555
O5_14 C7_14 1_555 1_555
O6_14 Cu7_4 1_555 1_555
H10_14 O6_14 1_555 1_555
O7_14 Cu4_4 1_555 1_555
H11_14 O7_14 1_555 1_555
C16_14 C1_14 1_555 1_555
H12_14 C16_14 1_555 1_555
H13_14 C16_14 1_555 1_555
O8_14 C16_14 1_555 1_555
C17_14 C18_14 1_555 1_555
C18_14 C19_14 1_555 1_555
C19_14 H14_14 1_555 1_555
C20_14 C19_14 1_555 1_555
C21_14 C20_14 1_555 1_555
H15_14 C21_14 1_555 1_555
C22_14 O8_14 1_555 1_555
C23_14 C18_14 1_555 1_555
H16_14 C23_14 1_555 1_555
C24_14 C20_14 1_555 1_555
O9_11 C17_14 1_555 1_555
O10_11 C17_14 1_555 1_555
O17_5 C24_14 1_555 1_555
O18_5 C24_14 1_555 1_555
Cu5 O10_11 1_555 1_555
Cu8 O9_11 1_555 1_555
C5_14 C6_14 1_555 1_555
C8_14 O5_14 1_555 1_555
C12_14 C13_14 1_555 1_555
C14_14 O2_14 1_555 1_555
C21_14 C22_14 1_555 1_555
C22_14 C23_14 1_555 1_555
O6_14 H17_14 1_555 1_555
O7_14 H18_10 1_555 1_555
O13_5 C15_15 1_555 1_555
O14_5 C15_15 1_555 1_555
C19_15 H14_15 1_555 1_555
O17_6 C24_15 1_555 1_555
O18_6 C24_15 1_555 1_555
Cu4 O10_12 1_555 1_555
O1_15 C14_15 1_555 1_555
C1_15 C2_15 1_555 1_555
C2_15 H1_15 1_555 1_555
C3_15 C2_15 1_555 1_555
H2_15 C3_15 1_555 1_555
C4_15 C3_15 1_555 1_555
C5_15 C4_15 1_555 1_555
H3_15 C5_15 1_555 1_555
C6_15 C1_15 1_555 1_555
H4_15 C6_15 1_555 1_555
C7_15 C4_15 1_555 1_555
H5_15 C7_15 1_555 1_555
H6_15 C7_15 1_555 1_555
C8_15 C9_15 1_555 1_555
C9_15 H7_15 1_555 1_555
C10_15 C9_15 1_555 1_555
C11_15 C10_15 1_555 1_555
H8_15 C11_15 1_555 1_555
C12_15 C11_15 1_555 1_555
C13_15 C8_15 1_555 1_555
H9_15 C13_15 1_555 1_555
C14_15 C12_15 1_555 1_555
Cu8_2 O1_15 1_555 1_555
O2_15 Cu5_2 1_555 1_555
O5_15 C7_15 1_555 1_555
O6_15 Cu8_2 1_555 1_555
H10_15 O6_15 1_555 1_555
O7_15 Cu5_2 1_555 1_555
H11_15 O7_15 1_555 1_555
C16_15 C1_15 1_555 1_555
H12_15 C16_15 1_555 1_555
H13_15 C16_15 1_555 1_555
O8_15 C16_15 1_555 1_555
C17_15 C18_15 1_555 1_555
C21_15 C20_15 1_555 1_555
H15_15 C21_15 1_555 1_555
C22_15 O8_15 1_555 1_555
C23_15 C18_15 1_555 1_555
H16_15 C23_15 1_555 1_555
O9_12 C17_15 1_555 1_555
Cu7 O9_12 1_555 1_555
C5_15 C6_15 1_555 1_555
C8_15 O5_15 1_555 1_555
C12_15 C13_15 1_555 1_555
C14_15 O2_15 1_555 1_555
C21_15 C22_15 1_555 1_555
C22_15 C23_15 1_555 1_555
O6_15 H17_15 1_555 1_555
O7_15 H18_11 1_555 1_555
C1_16 C2_16 1_555 1_555
C2_16 H1_16 1_555 1_555
C3_16 C2_16 1_555 1_555
H2_16 C3_16 1_555 1_555
C4_16 C3_16 1_555 1_555
C5_16 C4_16 1_555 1_555
H3_16 C5_16 1_555 1_555
C6_16 C1_16 1_555 1_555
H4_16 C6_16 1_555 1_555
C7_16 C4_16 1_555 1_555
H5_16 C7_16 1_555 1_555
H6_16 C7_16 1_555 1_555
C8_16 C9_16 1_555 1_555
C9_16 H7_16 1_555 1_555
C10_16 C9_16 1_555 1_555
C13_16 C8_16 1_555 1_555
H9_16 C13_16 1_555 1_555
C14_16 C12_16 1_555 1_555
O2_16 Cu4 1_555 1_555
O5_16 C7_16 1_555 1_555
O7_16 Cu4 1_555 1_555
H11_16 O7_16 1_555 1_555
C16_16 C1_16 1_555 1_555
H12_16 C16_16 1_555 1_555
H13_16 C16_16 1_555 1_555
O8_16 C16_16 1_555 1_555
C19_16 H14_16 1_555 1_555
C20_16 C19_16 1_555 1_555
C21_16 C20_16 1_555 1_555
H15_16 C21_16 1_555 1_555
C22_16 O8_16 1_555 1_555
C24_16 C20_16 1_555 1_555
O17 C24_16 1_555 1_555
O18 C24_16 1_555 1_555
C5_16 C6_16 1_555 1_555
C8_16 O5_16 1_555 1_555
C12_16 C13_16 1_555 1_555
C14_16 O2_16 1_555 1_555
C21_16 C22_16 1_555 1_555
C22_16 C23_16 1_555 1_555
O7_16 H18_12 1_555 1_555
C17_16 C18_16 1_555 1_555
O15_5 C17_16 1_555 1_555
O16_5 C17_16 1_555 1_555
H8_16 C11_16 1_555 1_555
Cu7 O1_16 1_555 1_555
O13_3 C15_16 1_555 1_555
O14_3 C15_16 1_555 1_555
O6_16 Cu7 1_555 1_555
H10_16 O6_16 1_555 1_555
O6_16 H17_16 1_555 1_555
H8_17 C11_17 1_555 1_555
Cu7_2 O1_17 1_555 1_555
O13 C15_17 1_555 1_555
O14 C15_17 1_555 1_555
O6_17 Cu7_2 1_555 1_555
H10_17 O6_17 1_555 1_555
O6_17 H17_17 1_555 1_555
C1_17 C2_17 1_555 1_555
C2_17 H1_17 1_555 1_555
C3_17 C2_17 1_555 1_555
H2_17 C3_17 1_555 1_555
C4_17 C3_17 1_555 1_555
C5_17 C4_17 1_555 1_555
H3_17 C5_17 1_555 1_555
C6_17 C1_17 1_555 1_555
H4_17 C6_17 1_555 1_555
C7_17 C4_17 1_555 1_555
H5_17 C7_17 1_555 1_555
H6_17 C7_17 1_555 1_555
C8_17 C9_17 1_555 1_555
C9_17 H7_17 1_555 1_555
C10_17 C9_17 1_555 1_555
C13_17 C8_17 1_555 1_555
H9_17 C13_17 1_555 1_555
C14_17 C12_17 1_555 1_555
O2_17 Cu4_2 1_555 1_555
O5_17 C7_17 1_555 1_555
O7_17 Cu4_2 1_555 1_555
H11_17 O7_17 1_555 1_555
C16_17 C1_17 1_555 1_555
H12_17 C16_17 1_555 1_555
O8_17 C16_17 1_555 1_555
C19_17 H14_17 1_555 1_555
C22_17 O8_17 1_555 1_555
C5_17 C6_17 1_555 1_555
C8_17 O5_17 1_555 1_555
C12_17 C13_17 1_555 1_555
C14_17 O2_17 1_555 1_555
C22_17 C23_17 1_555 1_555
O7_17 H18_13 1_555 1_555
C17_17 C18_17 1_555 1_555
O15_6 C17_17 1_555 1_555
O16_6 C17_17 1_555 1_555
C21_17 C20_17 1_555 1_555
H15_17 C21_17 1_555 1_555
C24_17 C20_17 1_555 1_555
O17_2 C24_17 1_555 1_555
O18_2 C24_17 1_555 1_555
C21_18 C20_18 1_555 1_555
H15_18 C21_18 1_555 1_555
C24_18 C20_18 1_555 1_555
O17_3 C24_18 1_555 1_555
O18_3 C24_18 1_555 1_555
O1_18 C14_18 1_555 1_555
C1_18 C2_18 1_555 1_555
C2_18 H1_18 1_555 1_555
C3_18 C2_18 1_555 1_555
H2_18 C3_18 1_555 1_555
C4_18 C3_18 1_555 1_555
C5_18 C4_18 1_555 1_555
H3_18 C5_18 1_555 1_555
C6_18 C1_18 1_555 1_555
H4_18 C6_18 1_555 1_555
C7_18 C4_18 1_555 1_555
H5_18 C7_18 1_555 1_555
H6_18 C7_18 1_555 1_555
C8_18 C9_18 1_555 1_555
C9_18 H7_18 1_555 1_555
C10_18 C9_18 1_555 1_555
C11_18 C10_18 1_555 1_555
H8_18 C11_18 1_555 1_555
C12_18 C11_18 1_555 1_555
C13_18 C8_18 1_555 1_555
H9_18 C13_18 1_555 1_555
C14_18 C12_18 1_555 1_555
C15_18 C10_18 1_555 1_555
Cu8 O1_18 1_555 1_555
O2_18 Cu5 1_555 1_555
O13_2 C15_18 1_555 1_555
O14_2 C15_18 1_555 1_555
O5_18 C7_18 1_555 1_555
O6_18 Cu8 1_555 1_555
H10_18 O6_18 1_555 1_555
O7_18 Cu5 1_555 1_555
H11_18 O7_18 1_555 1_555
C16_18 C1_18 1_555 1_555
H12_18 C16_18 1_555 1_555
O8_18 C16_18 1_555 1_555
C19_18 H14_18 1_555 1_555
C22_18 O8_18 1_555 1_555
C5_18 C6_18 1_555 1_555
C8_18 O5_18 1_555 1_555
C12_18 C13_18 1_555 1_555
C14_18 O2_18 1_555 1_555
C22_18 C23_18 1_555 1_555
O6_18 H17_18 1_555 1_555
O7_18 H18_14 1_555 1_555
C17_18 C18_18 1_555 1_555
O15_4 C17_18 1_555 1_555
O16_4 C17_18 1_555 1_555

#END
