
###############################################################################
#
# This file contains modified crystal structure data generated from the
# MOF subset of the Cambridge Structural Database (CSD) v543 
# hosted by the Cambridge Crystallographic Data Centre (CCDC).
#
# This work is licensed under the Creative Commons
# Attribution-NonCommercial-ShareAlike 4.0 International License.
# To view a copy of this license, visit
# http://creativecommons.org/licenses/by-nc-sa/4.0/
# or send a letter to
# Creative Commons, PO Box 1866, Mountain View, CA 94042, USA.
#
# CIF created using the CSD Python API on 29 September 2022
# The structure has been converted into the P1 space group
# The structure has a 3D framework
# The original CSD entry YESSUN is in the tetragonal crystal system
# The framework has been calculated to contain at least 10.0% void space
# The void calculation uses a probe of radius 1.32A, grid spacing 0.4
# The framework is charged, counterions have been retained in the structure
# H atom positions have been added when not included in the experimental data
# Generated hydrogen atom positions removed from atoms on special positions
#
###############################################################################

data_YESSUN
_chemical_formula_moiety         '(C96 H240 Cl16 N32 Ni8 O50 Zr16)n'
_symmetry_cell_setting           triclinic
_symmetry_space_group_name_H-M   'P 1'
_symmetry_Int_Tables_number      1
_space_group_name_Hall           'P 1'
loop_
_symmetry_equiv_pos_site_id
_symmetry_equiv_pos_as_xyz
1 x,y,z
_cell_length_a                   16.510(3)
_cell_length_b                   16.510(3)
_cell_length_c                   19.811(5)
_cell_angle_alpha                90
_cell_angle_beta                 90
_cell_angle_gamma                90
_cell_volume                     5400.08
loop_
_atom_site_label
_atom_site_type_symbol
_atom_site_fract_x
_atom_site_fract_y
_atom_site_fract_z
_atom_site_U_iso_or_equiv
_atom_site_thermal_displace_type
Zr2 Zr -0.000 -0.000 0.1234(16) 0.0317 Uiso
O10 O 0.246(7) 0.047(7) 0.000 0.0317 Uiso
Zr5 Zr 0.0308(2) 0.1451(11) 0.000 0.0317 Uiso
O18 O 0.090(3) 0.059(2) 0.065(4) 0.0317 Uiso
O25 O 0.0236(6) 0.111(3) 0.171(4) 0.0317 Uiso
H51 H 0.290524 0.0220894 0.0265449 . .
O10_2 O 0.246(7) 0.047(7) 1.000 0.0317 Uiso
Zr5_2 Zr 0.0308(2) 0.1451(11) 1.000 0.0317 Uiso
Zr8 Zr -0.000 -0.000 0.8766(16) 0.0317 Uiso
O17 O 0.090(3) 0.059(2) 0.935(4) 0.0317 Uiso
H52 H 0.264397 0.0559732 0.952868 . .
Zr2_2 Zr 0.000 1.000 0.1234(16) 0.0317 Uiso
Zr3 Zr 0.1451(11) 0.9692(2) 0.000 0.0317 Uiso
O8 O 0.059(2) 0.910(3) 0.065(4) 0.0317 Uiso
O9 O 0.191(8) 0.838(7) 0.000 0.0317 Uiso
Ni2 Ni 0.25 0.75 0.250 0.0633 Uiso
N5 N 0.1397(9) 0.705(4) 0.258(2) 0.0633 Uiso
H23 H 0.1350(8) 0.656(4) 0.228(3) 0.0950 Uiso
N6 N 0.2298(5) 0.807(2) 0.1580(18) 0.0633 Uiso
H24 H 0.2316(5) 0.766(2) 0.1213(16) 0.0950 Uiso
C13 C 0.1345(13) 0.677(6) 0.328(3) 0.0633 Uiso
H25 H 0.0878(13) 0.640(6) 0.334(4) 0.0950 Uiso
H26 H 0.1263(15) 0.724(7) 0.359(2) 0.0950 Uiso
C14 C 0.0734(8) 0.760(4) 0.2395(18) 0.0633 Uiso
H27 H 0.0738(10) 0.807(5) 0.2699(16) 0.0950 Uiso
H28 H 0.0210(8) 0.732(4) 0.245(2) 0.0950 Uiso
C15 C 0.0814(5) 0.788(3) 0.1664(16) 0.0633 Uiso
H29 H 0.0915(5) 0.739(2) 0.138(2) 0.0950 Uiso
C16 C 0.1507(5) 0.848(2) 0.154(2) 0.0633 Uiso
H30 H 0.1443(5) 0.872(3) 0.108(2) 0.0950 Uiso
H31 H 0.1484(6) 0.892(3) 0.188(3) 0.0950 Uiso
C17 C 0.2977(5) 0.863(2) 0.145(3) 0.0633 Uiso
H32 H 0.2911(6) 0.913(3) 0.172(4) 0.0950 Uiso
H33 H 0.2989(6) 0.878(3) 0.097(3) 0.0950 Uiso
C18 C 0.0022(5) 0.826(2) 0.1434(16) 0.0633 Uiso
O15 O 0.5427(6) 0.701(3) 0.4025(17) 0.0317 Uiso
O16 O 0.5236(6) 0.611(3) 0.329(4) 0.0317 Uiso
N7 N 0.3603(9) 0.795(4) 0.242(2) 0.0633 Uiso
H34 H 0.3650(8) 0.844(4) 0.272(3) 0.0950 Uiso
N8 N 0.2702(5) 0.693(2) 0.3420(18) 0.0633 Uiso
H35 H 0.2684(5) 0.734(2) 0.3787(16) 0.0950 Uiso
C19 C 0.3655(13) 0.823(6) 0.172(3) 0.0633 Uiso
H36 H 0.4122(13) 0.860(6) 0.166(4) 0.0950 Uiso
H37 H 0.3737(15) 0.776(7) 0.141(2) 0.0950 Uiso
C20 C 0.4266(8) 0.740(4) 0.2605(18) 0.0633 Uiso
H38 H 0.4262(10) 0.693(5) 0.2301(16) 0.0950 Uiso
H39 H 0.4790(8) 0.768(4) 0.255(2) 0.0950 Uiso
C21 C 0.4186(5) 0.712(3) 0.3336(16) 0.0633 Uiso
H40 H 0.4085(5) 0.761(2) 0.362(2) 0.0950 Uiso
C22 C 0.3493(5) 0.652(2) 0.346(2) 0.0633 Uiso
H41 H 0.3557(5) 0.628(3) 0.392(2) 0.0950 Uiso
H42 H 0.3516(6) 0.608(3) 0.312(3) 0.0950 Uiso
C23 C 0.2023(5) 0.637(2) 0.355(3) 0.0633 Uiso
H43 H 0.2089(6) 0.587(3) 0.328(4) 0.0950 Uiso
H44 H 0.2011(6) 0.622(3) 0.403(3) 0.0950 Uiso
C24 C 0.4978(5) 0.674(2) 0.3566(16) 0.0633 Uiso
Zr7 Zr 0.5308(2) 0.6451(11) 0.500 0.0317 Uiso
Zr10 Zr 0.500 0.500 0.3766(16) 0.0317 Uiso
O21 O 0.201(3) 0.9573(6) 0.0975(17) 0.0317 Uiso
O24 O 0.111(3) 0.9764(6) 0.171(4) 0.0317 Uiso
Zr3_2 Zr 0.1451(11) 0.9692(2) 1.000 0.0317 Uiso
O9_2 O 0.191(8) 0.838(7) 1.000 0.0317 Uiso
Zr8_2 Zr 0.000 1.000 0.8766(16) 0.0317 Uiso
O20 O 0.059(2) 0.910(3) 0.935(4) 0.0317 Uiso
O23 O 0.201(3) 0.9573(6) 0.9025(17) 0.0317 Uiso
H49 H 0.14809 0.801748 0.982088 . .
H50 H 0.239955 0.833887 0.971084 . .
Zr1 Zr 0.8549(11) 0.0308(2) 0.000 0.0317 Uiso
Zr2_3 Zr 1.000 -0.000 0.1234(16) 0.0317 Uiso
O1 O 0.941(2) 0.090(3) 0.065(4) 0.0317 Uiso
O2 O 0.809(8) 0.162(7) 0.000 0.0317 Uiso
O4 O 0.799(3) 0.0427(6) 0.0975(17) 0.0317 Uiso
O5 O 0.889(3) 0.0236(6) 0.171(4) 0.0317 Uiso
Zr1_2 Zr 0.8549(11) 0.0308(2) 1.000 0.0317 Uiso
O2_2 O 0.809(8) 0.162(7) 1.000 0.0317 Uiso
Zr8_3 Zr 1.000 -0.000 0.8766(16) 0.0317 Uiso
O19 O 0.941(2) 0.090(3) 0.935(4) 0.0317 Uiso
O22 O 0.799(3) 0.0427(6) 0.9025(17) 0.0317 Uiso
H45 H 0.85191 0.198252 0.982088 . .
H46 H 0.760045 0.166113 0.971084 . .
Zr2_4 Zr 1.000 1.000 0.1234(16) 0.0317 Uiso
O3 O 0.754(7) 0.953(7) 0.000 0.0317 Uiso
Ni1 Ni 0.75 0.75 0.250 0.0633 Uiso
N1 N 0.705(4) 0.8603(9) 0.258(2) 0.0633 Uiso
H1 H 0.656(4) 0.8650(8) 0.228(3) 0.0950 Uiso
N2 N 0.807(2) 0.7702(5) 0.1580(18) 0.0633 Uiso
H2 H 0.766(2) 0.7684(5) 0.1213(16) 0.0950 Uiso
C1 C 0.677(6) 0.8655(13) 0.328(3) 0.0633 Uiso
H3 H 0.640(6) 0.9122(13) 0.334(4) 0.0950 Uiso
H4 H 0.724(7) 0.8737(15) 0.359(2) 0.0950 Uiso
C2 C 0.760(4) 0.9266(8) 0.2395(18) 0.0633 Uiso
H5 H 0.807(5) 0.9262(10) 0.2699(16) 0.0950 Uiso
H6 H 0.732(4) 0.9790(8) 0.245(2) 0.0950 Uiso
C3 C 0.788(3) 0.9186(5) 0.1664(16) 0.0633 Uiso
H7 H 0.739(2) 0.9085(5) 0.138(2) 0.0950 Uiso
C4 C 0.848(2) 0.8493(5) 0.154(2) 0.0633 Uiso
H8 H 0.872(3) 0.8557(5) 0.108(2) 0.0950 Uiso
H9 H 0.892(3) 0.8516(6) 0.188(3) 0.0950 Uiso
C5 C 0.863(2) 0.7023(5) 0.145(3) 0.0633 Uiso
H10 H 0.913(3) 0.7089(6) 0.172(4) 0.0950 Uiso
H11 H 0.878(3) 0.7011(6) 0.097(3) 0.0950 Uiso
C6 C 0.826(2) 0.9978(5) 0.1434(16) 0.0633 Uiso
O6 O 0.701(3) 0.4573(6) 0.4025(17) 0.0317 Uiso
O7 O 0.611(3) 0.4764(6) 0.329(4) 0.0317 Uiso
N3 N 0.795(4) 0.6397(9) 0.242(2) 0.0633 Uiso
H12 H 0.844(4) 0.6350(8) 0.272(3) 0.0950 Uiso
N4 N 0.693(2) 0.7298(5) 0.3420(18) 0.0633 Uiso
H13 H 0.734(2) 0.7316(5) 0.3787(16) 0.0950 Uiso
C7 C 0.823(6) 0.6345(13) 0.172(3) 0.0633 Uiso
H14 H 0.860(6) 0.5878(13) 0.166(4) 0.0950 Uiso
H15 H 0.776(7) 0.6263(15) 0.141(2) 0.0950 Uiso
C8 C 0.740(4) 0.5734(8) 0.2605(18) 0.0633 Uiso
H16 H 0.693(5) 0.5738(10) 0.2301(16) 0.0950 Uiso
H17 H 0.768(4) 0.5210(8) 0.255(2) 0.0950 Uiso
C9 C 0.712(3) 0.5814(5) 0.3336(16) 0.0633 Uiso
H18 H 0.761(2) 0.5915(5) 0.362(2) 0.0950 Uiso
C10 C 0.652(2) 0.6507(5) 0.346(2) 0.0633 Uiso
H19 H 0.628(3) 0.6443(5) 0.392(2) 0.0950 Uiso
H20 H 0.608(3) 0.6484(6) 0.312(3) 0.0950 Uiso
C11 C 0.637(2) 0.7977(5) 0.355(3) 0.0633 Uiso
H21 H 0.587(3) 0.7911(6) 0.328(4) 0.0950 Uiso
H22 H 0.622(3) 0.7989(6) 0.403(3) 0.0950 Uiso
C12 C 0.674(2) 0.5022(5) 0.3566(16) 0.0633 Uiso
O12 O 0.910(3) 0.941(2) 0.065(4) 0.0317 Uiso
O13 O 0.9573(6) 0.799(3) 0.0975(17) 0.0317 Uiso
O14 O 0.9764(6) 0.889(3) 0.171(4) 0.0317 Uiso
Zr4 Zr 0.9692(2) 0.8549(11) 0.000 0.0317 Uiso
Zr6 Zr 0.6451(11) 0.4692(2) 0.500 0.0317 Uiso
H47 H 0.709476 0.977911 0.0265449 . .
O3_2 O 0.754(7) 0.953(7) 1.000 0.0317 Uiso
O11 O 0.910(3) 0.941(2) 0.935(4) 0.0317 Uiso
Zr4_2 Zr 0.9692(2) 0.8549(11) 1.000 0.0317 Uiso
Zr8_4 Zr 1.000 1.000 0.8766(16) 0.0317 Uiso
H48 H 0.735603 0.944027 0.952868 . .
Ni1_2 Ni 0.25 0.25 0.250 0.0633 Uiso
N1_2 N 0.295(4) 0.1397(9) 0.258(2) 0.0633 Uiso
H1_2 H 0.344(4) 0.1350(8) 0.228(3) 0.0950 Uiso
N2_2 N 0.193(2) 0.2298(5) 0.1580(18) 0.0633 Uiso
H2_2 H 0.234(2) 0.2316(5) 0.1213(16) 0.0950 Uiso
C1_2 C 0.323(6) 0.1345(13) 0.328(3) 0.0633 Uiso
H3_2 H 0.360(6) 0.0878(13) 0.334(4) 0.0950 Uiso
H4_2 H 0.276(7) 0.1263(15) 0.359(2) 0.0950 Uiso
C2_2 C 0.240(4) 0.0734(8) 0.2395(18) 0.0633 Uiso
H5_2 H 0.193(5) 0.0738(10) 0.2699(16) 0.0950 Uiso
H6_2 H 0.268(4) 0.0210(8) 0.245(2) 0.0950 Uiso
C3_2 C 0.212(3) 0.0814(5) 0.1664(16) 0.0633 Uiso
H7_2 H 0.261(2) 0.0915(5) 0.138(2) 0.0950 Uiso
C4_2 C 0.152(2) 0.1507(5) 0.154(2) 0.0633 Uiso
H8_2 H 0.128(3) 0.1443(5) 0.108(2) 0.0950 Uiso
H9_2 H 0.108(3) 0.1484(6) 0.188(3) 0.0950 Uiso
C5_2 C 0.137(2) 0.2977(5) 0.145(3) 0.0633 Uiso
H10_2 H 0.087(3) 0.2911(6) 0.172(4) 0.0950 Uiso
H11_2 H 0.122(3) 0.2989(6) 0.097(3) 0.0950 Uiso
C6_2 C 0.174(2) 0.0022(5) 0.1434(16) 0.0633 Uiso
O6_2 O 0.299(3) 0.5427(6) 0.4025(17) 0.0317 Uiso
O7_2 O 0.389(3) 0.5236(6) 0.329(4) 0.0317 Uiso
N3_2 N 0.205(4) 0.3603(9) 0.242(2) 0.0633 Uiso
H12_2 H 0.156(4) 0.3650(8) 0.272(3) 0.0950 Uiso
N4_2 N 0.307(2) 0.2702(5) 0.3420(18) 0.0633 Uiso
H13_2 H 0.266(2) 0.2684(5) 0.3787(16) 0.0950 Uiso
C7_2 C 0.177(6) 0.3655(13) 0.172(3) 0.0633 Uiso
H14_2 H 0.140(6) 0.4122(13) 0.166(4) 0.0950 Uiso
H15_2 H 0.224(7) 0.3737(15) 0.141(2) 0.0950 Uiso
C8_2 C 0.260(4) 0.4266(8) 0.2605(18) 0.0633 Uiso
H16_2 H 0.307(5) 0.4262(10) 0.2301(16) 0.0950 Uiso
H17_2 H 0.232(4) 0.4790(8) 0.255(2) 0.0950 Uiso
C9_2 C 0.288(3) 0.4186(5) 0.3336(16) 0.0633 Uiso
H18_2 H 0.239(2) 0.4085(5) 0.362(2) 0.0950 Uiso
C10_2 C 0.348(2) 0.3493(5) 0.346(2) 0.0633 Uiso
H19_2 H 0.372(3) 0.3557(5) 0.392(2) 0.0950 Uiso
H20_2 H 0.392(3) 0.3516(6) 0.312(3) 0.0950 Uiso
C11_2 C 0.363(2) 0.2023(5) 0.355(3) 0.0633 Uiso
H21_2 H 0.413(3) 0.2089(6) 0.328(4) 0.0950 Uiso
H22_2 H 0.378(3) 0.2011(6) 0.403(3) 0.0950 Uiso
C12_2 C 0.326(2) 0.4978(5) 0.3566(16) 0.0633 Uiso
O13_2 O 0.0427(6) 0.201(3) 0.0975(17) 0.0317 Uiso
Zr6_2 Zr 0.3549(11) 0.5308(2) 0.500 0.0317 Uiso
Ni2_2 Ni 0.75 0.25 0.250 0.0633 Uiso
N5_2 N 0.8603(9) 0.295(4) 0.258(2) 0.0633 Uiso
H23_2 H 0.8650(8) 0.344(4) 0.228(3) 0.0950 Uiso
N6_2 N 0.7702(5) 0.193(2) 0.1580(18) 0.0633 Uiso
H24_2 H 0.7684(5) 0.234(2) 0.1213(16) 0.0950 Uiso
C13_2 C 0.8655(13) 0.323(6) 0.328(3) 0.0633 Uiso
H25_2 H 0.9122(13) 0.360(6) 0.334(4) 0.0950 Uiso
H26_2 H 0.8737(15) 0.276(7) 0.359(2) 0.0950 Uiso
C14_2 C 0.9266(8) 0.240(4) 0.2395(18) 0.0633 Uiso
H27_2 H 0.9262(10) 0.193(5) 0.2699(16) 0.0950 Uiso
H28_2 H 0.9790(8) 0.268(4) 0.245(2) 0.0950 Uiso
C15_2 C 0.9186(5) 0.212(3) 0.1664(16) 0.0633 Uiso
H29_2 H 0.9085(5) 0.261(2) 0.138(2) 0.0950 Uiso
C16_2 C 0.8493(5) 0.152(2) 0.154(2) 0.0633 Uiso
H30_2 H 0.8557(5) 0.128(3) 0.108(2) 0.0950 Uiso
H31_2 H 0.8516(6) 0.108(3) 0.188(3) 0.0950 Uiso
C17_2 C 0.7023(5) 0.137(2) 0.145(3) 0.0633 Uiso
H32_2 H 0.7089(6) 0.087(3) 0.172(4) 0.0950 Uiso
H33_2 H 0.7011(6) 0.122(3) 0.097(3) 0.0950 Uiso
C18_2 C 0.9978(5) 0.174(2) 0.1434(16) 0.0633 Uiso
O15_2 O 0.4573(6) 0.299(3) 0.4025(17) 0.0317 Uiso
O16_2 O 0.4764(6) 0.389(3) 0.329(4) 0.0317 Uiso
N7_2 N 0.6397(9) 0.205(4) 0.242(2) 0.0633 Uiso
H34_2 H 0.6350(8) 0.156(4) 0.272(3) 0.0950 Uiso
N8_2 N 0.7298(5) 0.307(2) 0.3420(18) 0.0633 Uiso
H35_2 H 0.7316(5) 0.266(2) 0.3787(16) 0.0950 Uiso
C19_2 C 0.6345(13) 0.177(6) 0.172(3) 0.0633 Uiso
H36_2 H 0.5878(13) 0.140(6) 0.166(4) 0.0950 Uiso
H37_2 H 0.6263(15) 0.224(7) 0.141(2) 0.0950 Uiso
C20_2 C 0.5734(8) 0.260(4) 0.2605(18) 0.0633 Uiso
H38_2 H 0.5738(10) 0.307(5) 0.2301(16) 0.0950 Uiso
H39_2 H 0.5210(8) 0.232(4) 0.255(2) 0.0950 Uiso
C21_2 C 0.5814(5) 0.288(3) 0.3336(16) 0.0633 Uiso
H40_2 H 0.5915(5) 0.239(2) 0.362(2) 0.0950 Uiso
C22_2 C 0.6507(5) 0.348(2) 0.346(2) 0.0633 Uiso
H41_2 H 0.6443(5) 0.372(3) 0.392(2) 0.0950 Uiso
H42_2 H 0.6484(6) 0.392(3) 0.312(3) 0.0950 Uiso
C23_2 C 0.7977(5) 0.363(2) 0.355(3) 0.0633 Uiso
H43_2 H 0.7911(6) 0.413(3) 0.328(4) 0.0950 Uiso
H44_2 H 0.7989(6) 0.378(3) 0.403(3) 0.0950 Uiso
C24_2 C 0.5022(5) 0.326(2) 0.3566(16) 0.0633 Uiso
Zr7_2 Zr 0.4692(2) 0.3549(11) 0.500 0.0317 Uiso
O9_3 O 0.162(7) 0.191(8) 0.000 0.0317 Uiso
O9_4 O 0.162(7) 0.191(8) 1.000 0.0317 Uiso
O23_2 O 0.0427(6) 0.201(3) 0.9025(17) 0.0317 Uiso
H49_2 H 0.198252 0.14809 0.982088 . .
H50_2 H 0.166113 0.239955 0.971084 . .
O3_3 O 0.047(7) 0.754(7) 0.000 0.0317 Uiso
H47_2 H 0.0220894 0.709476 0.0265449 . .
O3_4 O 0.047(7) 0.754(7) 1.000 0.0317 Uiso
H48_2 H 0.0559732 0.735603 0.952868 . .
O10_3 O 0.953(7) 0.246(7) 0.000 0.0317 Uiso
H51_2 H 0.977911 0.290524 0.0265449 . .
O10_4 O 0.953(7) 0.246(7) 1.000 0.0317 Uiso
H52_2 H 0.944027 0.264397 0.952868 . .
O2_3 O 0.838(7) 0.809(8) 0.000 0.0317 Uiso
O2_4 O 0.838(7) 0.809(8) 1.000 0.0317 Uiso
O22_2 O 0.9573(6) 0.799(3) 0.9025(17) 0.0317 Uiso
H45_2 H 0.801748 0.85191 0.982088 . .
H46_2 H 0.833887 0.760045 0.971084 . .
O16_3 O 0.0236(6) 0.111(3) 0.829(4) 0.0317 Uiso
Zr2_5 Zr 0.500 0.500 0.6234(16) 0.0317 Uiso
O1_2 O 0.441(2) 0.590(3) 0.565(4) 0.0317 Uiso
O2_5 O 0.309(8) 0.662(7) 0.500 0.0317 Uiso
O3_5 O 0.254(7) 0.453(7) 0.500 0.0317 Uiso
Ni1_3 Ni 0.25 0.25 0.750 0.0633 Uiso
O4_2 O 0.299(3) 0.5427(6) 0.5975(17) 0.0317 Uiso
O5_2 O 0.389(3) 0.5236(6) 0.671(4) 0.0317 Uiso
N1_3 N 0.205(4) 0.3603(9) 0.758(2) 0.0633 Uiso
H1_3 H 0.156(4) 0.3650(8) 0.728(3) 0.0950 Uiso
N2_3 N 0.307(2) 0.2702(5) 0.6580(18) 0.0633 Uiso
H2_3 H 0.266(2) 0.2684(5) 0.6213(16) 0.0950 Uiso
C1_3 C 0.177(6) 0.3655(13) 0.828(3) 0.0633 Uiso
H3_3 H 0.140(6) 0.4122(13) 0.834(4) 0.0950 Uiso
H4_3 H 0.224(7) 0.3737(15) 0.859(2) 0.0950 Uiso
C2_3 C 0.260(4) 0.4266(8) 0.7395(18) 0.0633 Uiso
H5_3 H 0.307(5) 0.4262(10) 0.7699(16) 0.0950 Uiso
H6_3 H 0.232(4) 0.4790(8) 0.745(2) 0.0950 Uiso
C3_3 C 0.288(3) 0.4186(5) 0.6664(16) 0.0633 Uiso
H7_3 H 0.239(2) 0.4085(5) 0.638(2) 0.0950 Uiso
C4_3 C 0.348(2) 0.3493(5) 0.654(2) 0.0633 Uiso
H8_3 H 0.372(3) 0.3557(5) 0.608(2) 0.0950 Uiso
H9_3 H 0.392(3) 0.3516(6) 0.688(3) 0.0950 Uiso
C5_3 C 0.363(2) 0.2023(5) 0.645(3) 0.0633 Uiso
H10_3 H 0.413(3) 0.2089(6) 0.672(4) 0.0950 Uiso
H11_3 H 0.378(3) 0.2011(6) 0.597(3) 0.0950 Uiso
C6_3 C 0.326(2) 0.4978(5) 0.6434(16) 0.0633 Uiso
N3_3 N 0.295(4) 0.1397(9) 0.742(2) 0.0633 Uiso
H12_3 H 0.344(4) 0.1350(8) 0.772(3) 0.0950 Uiso
N4_3 N 0.193(2) 0.2298(5) 0.8420(18) 0.0633 Uiso
H13_3 H 0.234(2) 0.2316(5) 0.8787(16) 0.0950 Uiso
C7_3 C 0.323(6) 0.1345(13) 0.672(3) 0.0633 Uiso
H14_3 H 0.360(6) 0.0878(13) 0.666(4) 0.0950 Uiso
H15_3 H 0.276(7) 0.1263(15) 0.641(2) 0.0950 Uiso
C8_3 C 0.240(4) 0.0734(8) 0.7605(18) 0.0633 Uiso
H16_3 H 0.193(5) 0.0738(10) 0.7301(16) 0.0950 Uiso
H17_3 H 0.268(4) 0.0210(8) 0.755(2) 0.0950 Uiso
C9_3 C 0.212(3) 0.0814(5) 0.8336(16) 0.0633 Uiso
H18_3 H 0.261(2) 0.0915(5) 0.862(2) 0.0950 Uiso
C10_3 C 0.152(2) 0.1507(5) 0.846(2) 0.0633 Uiso
H19_3 H 0.128(3) 0.1443(5) 0.892(2) 0.0950 Uiso
H20_3 H 0.108(3) 0.1484(6) 0.812(3) 0.0950 Uiso
C11_3 C 0.137(2) 0.2977(5) 0.855(3) 0.0633 Uiso
H21_3 H 0.087(3) 0.2911(6) 0.828(4) 0.0950 Uiso
H22_3 H 0.122(3) 0.2989(6) 0.903(3) 0.0950 Uiso
C12_3 C 0.174(2) 0.0022(5) 0.8566(16) 0.0633 Uiso
O8_2 O 0.559(2) 0.410(3) 0.565(4) 0.0317 Uiso
O9_5 O 0.691(8) 0.338(7) 0.500 0.0317 Uiso
O10_5 O 0.746(7) 0.547(7) 0.500 0.0317 Uiso
O11_2 O 0.410(3) 0.441(2) 0.435(4) 0.0317 Uiso
O12_2 O 0.410(3) 0.441(2) 0.565(4) 0.0317 Uiso
Ni2_3 Ni 0.75 0.25 0.750 0.0633 Uiso
O13_3 O 0.4573(6) 0.299(3) 0.5975(17) 0.0317 Uiso
O14_2 O 0.4764(6) 0.389(3) 0.671(4) 0.0317 Uiso
N5_3 N 0.6397(9) 0.205(4) 0.758(2) 0.0633 Uiso
H23_3 H 0.6350(8) 0.156(4) 0.728(3) 0.0950 Uiso
N6_3 N 0.7298(5) 0.307(2) 0.6580(18) 0.0633 Uiso
H24_3 H 0.7316(5) 0.266(2) 0.6213(16) 0.0950 Uiso
C13_3 C 0.6345(13) 0.177(6) 0.828(3) 0.0633 Uiso
H25_3 H 0.5878(13) 0.140(6) 0.834(4) 0.0950 Uiso
H26_3 H 0.6263(15) 0.224(7) 0.859(2) 0.0950 Uiso
C14_3 C 0.5734(8) 0.260(4) 0.7395(18) 0.0633 Uiso
H27_3 H 0.5738(10) 0.307(5) 0.7699(16) 0.0950 Uiso
H28_3 H 0.5210(8) 0.232(4) 0.745(2) 0.0950 Uiso
C15_3 C 0.5814(5) 0.288(3) 0.6664(16) 0.0633 Uiso
H29_3 H 0.5915(5) 0.239(2) 0.638(2) 0.0950 Uiso
C16_3 C 0.6507(5) 0.348(2) 0.654(2) 0.0633 Uiso
H30_3 H 0.6443(5) 0.372(3) 0.608(2) 0.0950 Uiso
H31_3 H 0.6484(6) 0.392(3) 0.688(3) 0.0950 Uiso
C17_3 C 0.7977(5) 0.363(2) 0.645(3) 0.0633 Uiso
H32_3 H 0.7911(6) 0.413(3) 0.672(4) 0.0950 Uiso
H33_3 H 0.7989(6) 0.378(3) 0.597(3) 0.0950 Uiso
C18_3 C 0.5022(5) 0.326(2) 0.6434(16) 0.0633 Uiso
N7_3 N 0.8603(9) 0.295(4) 0.742(2) 0.0633 Uiso
H34_3 H 0.8650(8) 0.344(4) 0.772(3) 0.0950 Uiso
N8_3 N 0.7702(5) 0.193(2) 0.8420(18) 0.0633 Uiso
H35_3 H 0.7684(5) 0.234(2) 0.8787(16) 0.0950 Uiso
C19_3 C 0.8655(13) 0.323(6) 0.672(3) 0.0633 Uiso
H36_3 H 0.9122(13) 0.360(6) 0.666(4) 0.0950 Uiso
H37_3 H 0.8737(15) 0.276(7) 0.641(2) 0.0950 Uiso
C20_3 C 0.9266(8) 0.240(4) 0.7605(18) 0.0633 Uiso
H38_3 H 0.9262(10) 0.193(5) 0.7301(16) 0.0950 Uiso
H39_3 H 0.9790(8) 0.268(4) 0.755(2) 0.0950 Uiso
C21_3 C 0.9186(5) 0.212(3) 0.8336(16) 0.0633 Uiso
H40_3 H 0.9085(5) 0.261(2) 0.862(2) 0.0950 Uiso
C22_3 C 0.8493(5) 0.152(2) 0.846(2) 0.0633 Uiso
H41_3 H 0.8557(5) 0.128(3) 0.892(2) 0.0950 Uiso
H42_3 H 0.8516(6) 0.108(3) 0.812(3) 0.0950 Uiso
C23_3 C 0.7023(5) 0.137(2) 0.855(3) 0.0633 Uiso
H43_3 H 0.7089(6) 0.087(3) 0.828(4) 0.0950 Uiso
H44_3 H 0.7011(6) 0.122(3) 0.903(3) 0.0950 Uiso
C24_3 C 0.9978(5) 0.174(2) 0.8566(16) 0.0633 Uiso
O17_2 O 0.590(3) 0.559(2) 0.435(4) 0.0317 Uiso
O18_2 O 0.590(3) 0.559(2) 0.565(4) 0.0317 Uiso
O19_2 O 0.441(2) 0.590(3) 0.435(4) 0.0317 Uiso
O20_2 O 0.559(2) 0.410(3) 0.435(4) 0.0317 Uiso
O21_2 O 0.701(3) 0.4573(6) 0.5975(17) 0.0317 Uiso
O24_2 O 0.611(3) 0.4764(6) 0.671(4) 0.0317 Uiso
O25_2 O 0.5236(6) 0.611(3) 0.671(4) 0.0317 Uiso
O7_3 O 0.111(3) 0.9764(6) 0.829(4) 0.0317 Uiso
O7_4 O 0.889(3) 0.0236(6) 0.829(4) 0.0317 Uiso
Ni1_4 Ni 0.75 0.75 0.750 0.0633 Uiso
N1_4 N 0.795(4) 0.6397(9) 0.758(2) 0.0633 Uiso
H1_4 H 0.844(4) 0.6350(8) 0.728(3) 0.0950 Uiso
N2_4 N 0.693(2) 0.7298(5) 0.6580(18) 0.0633 Uiso
H2_4 H 0.734(2) 0.7316(5) 0.6213(16) 0.0950 Uiso
C1_4 C 0.823(6) 0.6345(13) 0.828(3) 0.0633 Uiso
H3_4 H 0.860(6) 0.5878(13) 0.834(4) 0.0950 Uiso
H4_4 H 0.776(7) 0.6263(15) 0.859(2) 0.0950 Uiso
C2_4 C 0.740(4) 0.5734(8) 0.7395(18) 0.0633 Uiso
H5_4 H 0.693(5) 0.5738(10) 0.7699(16) 0.0950 Uiso
H6_4 H 0.768(4) 0.5210(8) 0.745(2) 0.0950 Uiso
C3_4 C 0.712(3) 0.5814(5) 0.6664(16) 0.0633 Uiso
H7_4 H 0.761(2) 0.5915(5) 0.638(2) 0.0950 Uiso
C4_4 C 0.652(2) 0.6507(5) 0.654(2) 0.0633 Uiso
H8_4 H 0.628(3) 0.6443(5) 0.608(2) 0.0950 Uiso
H9_4 H 0.608(3) 0.6484(6) 0.688(3) 0.0950 Uiso
C5_4 C 0.637(2) 0.7977(5) 0.645(3) 0.0633 Uiso
H10_4 H 0.587(3) 0.7911(6) 0.672(4) 0.0950 Uiso
H11_4 H 0.622(3) 0.7989(6) 0.597(3) 0.0950 Uiso
C6_4 C 0.674(2) 0.5022(5) 0.6434(16) 0.0633 Uiso
N3_4 N 0.705(4) 0.8603(9) 0.742(2) 0.0633 Uiso
H12_4 H 0.656(4) 0.8650(8) 0.772(3) 0.0950 Uiso
N4_4 N 0.807(2) 0.7702(5) 0.8420(18) 0.0633 Uiso
H13_4 H 0.766(2) 0.7684(5) 0.8787(16) 0.0950 Uiso
C7_4 C 0.677(6) 0.8655(13) 0.672(3) 0.0633 Uiso
H14_4 H 0.640(6) 0.9122(13) 0.666(4) 0.0950 Uiso
H15_4 H 0.724(7) 0.8737(15) 0.641(2) 0.0950 Uiso
C8_4 C 0.760(4) 0.9266(8) 0.7605(18) 0.0633 Uiso
H16_4 H 0.807(5) 0.9262(10) 0.7301(16) 0.0950 Uiso
H17_4 H 0.732(4) 0.9790(8) 0.755(2) 0.0950 Uiso
C9_4 C 0.788(3) 0.9186(5) 0.8336(16) 0.0633 Uiso
H18_4 H 0.739(2) 0.9085(5) 0.862(2) 0.0950 Uiso
C10_4 C 0.848(2) 0.8493(5) 0.846(2) 0.0633 Uiso
H19_4 H 0.872(3) 0.8557(5) 0.892(2) 0.0950 Uiso
H20_4 H 0.892(3) 0.8516(6) 0.812(3) 0.0950 Uiso
C11_4 C 0.863(2) 0.7023(5) 0.855(3) 0.0633 Uiso
H21_4 H 0.913(3) 0.7089(6) 0.828(4) 0.0950 Uiso
H22_4 H 0.878(3) 0.7011(6) 0.903(3) 0.0950 Uiso
C12_4 C 0.826(2) 0.9978(5) 0.8566(16) 0.0633 Uiso
Ni2_4 Ni 0.25 0.75 0.750 0.0633 Uiso
O13_4 O 0.5427(6) 0.701(3) 0.5975(17) 0.0317 Uiso
N5_4 N 0.3603(9) 0.795(4) 0.758(2) 0.0633 Uiso
H23_4 H 0.3650(8) 0.844(4) 0.728(3) 0.0950 Uiso
N6_4 N 0.2702(5) 0.693(2) 0.6580(18) 0.0633 Uiso
H24_4 H 0.2684(5) 0.734(2) 0.6213(16) 0.0950 Uiso
C13_4 C 0.3655(13) 0.823(6) 0.828(3) 0.0633 Uiso
H25_4 H 0.4122(13) 0.860(6) 0.834(4) 0.0950 Uiso
H26_4 H 0.3737(15) 0.776(7) 0.859(2) 0.0950 Uiso
C14_4 C 0.4266(8) 0.740(4) 0.7395(18) 0.0633 Uiso
H27_4 H 0.4262(10) 0.693(5) 0.7699(16) 0.0950 Uiso
H28_4 H 0.4790(8) 0.768(4) 0.745(2) 0.0950 Uiso
C15_4 C 0.4186(5) 0.712(3) 0.6664(16) 0.0633 Uiso
H29_4 H 0.4085(5) 0.761(2) 0.638(2) 0.0950 Uiso
C16_4 C 0.3493(5) 0.652(2) 0.654(2) 0.0633 Uiso
H30_4 H 0.3557(5) 0.628(3) 0.608(2) 0.0950 Uiso
H31_4 H 0.3516(6) 0.608(3) 0.688(3) 0.0950 Uiso
C17_4 C 0.2023(5) 0.637(2) 0.645(3) 0.0633 Uiso
H32_4 H 0.2089(6) 0.587(3) 0.672(4) 0.0950 Uiso
H33_4 H 0.2011(6) 0.622(3) 0.597(3) 0.0950 Uiso
C18_4 C 0.4978(5) 0.674(2) 0.6434(16) 0.0633 Uiso
N7_4 N 0.1397(9) 0.705(4) 0.742(2) 0.0633 Uiso
H34_4 H 0.1350(8) 0.656(4) 0.772(3) 0.0950 Uiso
N8_4 N 0.2298(5) 0.807(2) 0.8420(18) 0.0633 Uiso
H35_4 H 0.2316(5) 0.766(2) 0.8787(16) 0.0950 Uiso
C19_4 C 0.1345(13) 0.677(6) 0.672(3) 0.0633 Uiso
H36_4 H 0.0878(13) 0.640(6) 0.666(4) 0.0950 Uiso
H37_4 H 0.1263(15) 0.724(7) 0.641(2) 0.0950 Uiso
C20_4 C 0.0734(8) 0.760(4) 0.7605(18) 0.0633 Uiso
H38_4 H 0.0738(10) 0.807(5) 0.7301(16) 0.0950 Uiso
H39_4 H 0.0210(8) 0.732(4) 0.755(2) 0.0950 Uiso
C21_4 C 0.0814(5) 0.788(3) 0.8336(16) 0.0633 Uiso
H40_4 H 0.0915(5) 0.739(2) 0.862(2) 0.0950 Uiso
C22_4 C 0.1507(5) 0.848(2) 0.846(2) 0.0633 Uiso
H41_4 H 0.1443(5) 0.872(3) 0.892(2) 0.0950 Uiso
H42_4 H 0.1484(6) 0.892(3) 0.812(3) 0.0950 Uiso
C23_4 C 0.2977(5) 0.863(2) 0.855(3) 0.0633 Uiso
H43_4 H 0.2911(6) 0.913(3) 0.828(4) 0.0950 Uiso
H44_4 H 0.2989(6) 0.878(3) 0.903(3) 0.0950 Uiso
C24_4 C 0.0022(5) 0.826(2) 0.8566(16) 0.0633 Uiso
O16_4 O 0.9764(6) 0.889(3) 0.829(4) 0.0317 Uiso
O2_6 O 0.338(7) 0.309(8) 0.500 0.0317 Uiso
O3_6 O 0.547(7) 0.254(7) 0.500 0.0317 Uiso
O9_6 O 0.662(7) 0.691(8) 0.500 0.0317 Uiso
O10_6 O 0.453(7) 0.746(7) 0.500 0.0317 Uiso
H48_3 H 0.264397 0.0559732 0.0471317 . .
H47_3 H 0.290524 0.0220894 0.973455 . .
H45_3 H 0.14809 0.801748 0.0179119 . .
H46_3 H 0.239955 0.833887 0.0289162 . .
H49_3 H 0.85191 0.198252 0.0179119 . .
H50_3 H 0.760045 0.166113 0.0289162 . .
H52_3 H 0.735603 0.944027 0.0471317 . .
H51_3 H 0.709476 0.977911 0.973455 . .
H45_4 H 0.198252 0.14809 0.0179119 . .
H46_4 H 0.166113 0.239955 0.0289162 . .
H52_4 H 0.0559732 0.735603 0.0471317 . .
H51_4 H 0.0220894 0.709476 0.973455 . .
H48_4 H 0.944027 0.264397 0.0471317 . .
H47_4 H 0.977911 0.290524 0.973455 . .
H49_4 H 0.801748 0.85191 0.0179119 . .
H50_4 H 0.833887 0.760045 0.0289162 . .
Cl1 Cl 0.608(2) 0.712(3) 0.154(2) 0.0633 Uiso
Cl1_2 Cl 0.392(2) 0.288(3) 0.154(2) 0.0633 Uiso
Cl1_3 Cl 0.288(3) 0.608(2) 0.154(2) 0.0633 Uiso
Cl1_4 Cl 0.712(3) 0.392(2) 0.154(2) 0.0633 Uiso
Cl1_5 Cl 0.108(2) 0.212(3) 0.654(2) 0.0633 Uiso
Cl1_6 Cl 0.892(2) 0.788(3) 0.654(2) 0.0633 Uiso
Cl1_7 Cl 0.788(3) 0.108(2) 0.654(2) 0.0633 Uiso
Cl1_8 Cl 0.212(3) 0.892(2) 0.654(2) 0.0633 Uiso
Cl1_9 Cl 0.392(2) 0.288(3) 0.846(2) 0.0633 Uiso
Cl1_10 Cl 0.608(2) 0.712(3) 0.846(2) 0.0633 Uiso
Cl1_11 Cl 0.712(3) 0.392(2) 0.846(2) 0.0633 Uiso
Cl1_12 Cl 0.288(3) 0.608(2) 0.846(2) 0.0633 Uiso
Cl1_13 Cl 0.892(2) 0.788(3) 0.346(2) 0.0633 Uiso
Cl1_14 Cl 0.108(2) 0.212(3) 0.346(2) 0.0633 Uiso
Cl1_15 Cl 0.212(3) 0.892(2) 0.346(2) 0.0633 Uiso
Cl1_16 Cl 0.788(3) 0.108(2) 0.346(2) 0.0633 Uiso
loop_
_geom_bond_atom_site_label_1
_geom_bond_atom_site_label_2
_geom_bond_site_symmetry_1
_geom_bond_site_symmetry_2
O18 Zr2 1_555 1_555
O25 Zr2 1_555 1_555
Zr5 O18 1_555 1_555
O10 H51 1_555 1_555
Zr5_2 O17 1_555 1_555
Zr8 O17 1_555 1_555
O10_2 H52 1_555 1_555
Zr3 O8 1_555 1_555
O8 Zr2_2 1_555 1_555
O9 Zr3 1_555 1_555
Ni2 N5 1_555 1_555
N5 H23 1_555 1_555
N6 Ni2 1_555 1_555
H24 N6 1_555 1_555
C13 N5 1_555 1_555
H25 C13 1_555 1_555
H26 C13 1_555 1_555
C14 N5 1_555 1_555
H27 C14 1_555 1_555
H28 C14 1_555 1_555
C15 C14 1_555 1_555
H29 C15 1_555 1_555
C16 N6 1_555 1_555
H30 C16 1_555 1_555
H31 C16 1_555 1_555
C17 N6 1_555 1_555
H32 C17 1_555 1_555
H33 C17 1_555 1_555
O15 C24 1_555 1_555
O16 C24 1_555 1_555
N7 Ni2 1_555 1_555
H34 N7 1_555 1_555
N8 Ni2 1_555 1_555
H35 N8 1_555 1_555
C19 C17 1_555 1_555
H36 C19 1_555 1_555
H37 C19 1_555 1_555
C20 N7 1_555 1_555
H38 C20 1_555 1_555
H39 C20 1_555 1_555
C21 C20 1_555 1_555
H40 C21 1_555 1_555
C22 N8 1_555 1_555
H41 C22 1_555 1_555
H42 C22 1_555 1_555
C23 C13 1_555 1_555
H43 C23 1_555 1_555
H44 C23 1_555 1_555
C24 C21 1_555 1_555
Zr7 O15 1_555 1_555
Zr10 O16 1_555 1_555
O21 Zr3 1_555 1_555
O24 Zr2_2 1_555 1_555
C15 C16 1_555 1_555
C15 C18 1_555 1_555
N7 C19 1_555 1_555
N8 C23 1_555 1_555
C21 C22 1_555 1_555
O9_2 Zr3_2 1_555 1_555
O20 Zr3_2 1_555 1_555
O23 Zr3_2 1_555 1_555
Zr8_2 O20 1_555 1_555
O9_2 H49 1_555 1_555
O9_2 H50 1_555 1_555
Zr1 O1 1_555 1_555
Zr2_3 O1 1_555 1_555
O2 Zr1 1_555 1_555
O4 Zr1 1_555 1_555
O5 Zr2_3 1_555 1_555
O2_2 Zr1_2 1_555 1_555
O19 Zr1_2 1_555 1_555
O22 Zr1_2 1_555 1_555
Zr8_3 O19 1_555 1_555
O2_2 H45 1_555 1_555
O2_2 H46 1_555 1_555
Ni1 N1 1_555 1_555
N1 H1 1_555 1_555
N2 Ni1 1_555 1_555
H2 N2 1_555 1_555
C1 N1 1_555 1_555
H3 C1 1_555 1_555
H4 C1 1_555 1_555
C2 N1 1_555 1_555
H5 C2 1_555 1_555
H6 C2 1_555 1_555
C3 C2 1_555 1_555
H7 C3 1_555 1_555
C4 N2 1_555 1_555
H8 C4 1_555 1_555
H9 C4 1_555 1_555
C5 N2 1_555 1_555
H10 C5 1_555 1_555
H11 C5 1_555 1_555
O6 C12 1_555 1_555
O7 C12 1_555 1_555
N3 Ni1 1_555 1_555
H12 N3 1_555 1_555
N4 Ni1 1_555 1_555
H13 N4 1_555 1_555
C7 C5 1_555 1_555
H14 C7 1_555 1_555
H15 C7 1_555 1_555
C8 N3 1_555 1_555
H16 C8 1_555 1_555
H17 C8 1_555 1_555
C9 C8 1_555 1_555
H18 C9 1_555 1_555
C10 N4 1_555 1_555
H19 C10 1_555 1_555
H20 C10 1_555 1_555
C11 C1 1_555 1_555
H21 C11 1_555 1_555
H22 C11 1_555 1_555
C12 C9 1_555 1_555
O14 Zr2_4 1_555 1_555
Zr6 O6 1_555 1_555
Zr10 O7 1_555 1_555
Zr2_4 O12 1_555 1_555
C3 C4 1_555 1_555
C3 C6 1_555 1_555
N3 C7 1_555 1_555
N4 C11 1_555 1_555
C9 C10 1_555 1_555
O12 Zr4 1_555 1_555
O13 Zr4 1_555 1_555
O3 H47 1_555 1_555
Zr8_4 O11 1_555 1_555
O11 Zr4_2 1_555 1_555
O3_2 H48 1_555 1_555
Ni1_2 N1_2 1_555 1_555
N1_2 H1_2 1_555 1_555
N2_2 Ni1_2 1_555 1_555
H2_2 N2_2 1_555 1_555
C1_2 N1_2 1_555 1_555
H3_2 C1_2 1_555 1_555
H4_2 C1_2 1_555 1_555
C2_2 N1_2 1_555 1_555
H5_2 C2_2 1_555 1_555
H6_2 C2_2 1_555 1_555
C3_2 C2_2 1_555 1_555
H7_2 C3_2 1_555 1_555
C4_2 N2_2 1_555 1_555
H8_2 C4_2 1_555 1_555
H9_2 C4_2 1_555 1_555
C5_2 N2_2 1_555 1_555
H10_2 C5_2 1_555 1_555
H11_2 C5_2 1_555 1_555
O6_2 C12_2 1_555 1_555
O7_2 C12_2 1_555 1_555
N3_2 Ni1_2 1_555 1_555
H12_2 N3_2 1_555 1_555
N4_2 Ni1_2 1_555 1_555
H13_2 N4_2 1_555 1_555
C7_2 C5_2 1_555 1_555
H14_2 C7_2 1_555 1_555
H15_2 C7_2 1_555 1_555
C8_2 N3_2 1_555 1_555
H16_2 C8_2 1_555 1_555
H17_2 C8_2 1_555 1_555
C9_2 C8_2 1_555 1_555
H18_2 C9_2 1_555 1_555
C10_2 N4_2 1_555 1_555
H19_2 C10_2 1_555 1_555
H20_2 C10_2 1_555 1_555
C11_2 C1_2 1_555 1_555
H21_2 C11_2 1_555 1_555
H22_2 C11_2 1_555 1_555
C12_2 C9_2 1_555 1_555
Zr6_2 O6_2 1_555 1_555
Zr10 O7_2 1_555 1_555
C3_2 C4_2 1_555 1_555
C3_2 C6_2 1_555 1_555
N3_2 C7_2 1_555 1_555
N4_2 C11_2 1_555 1_555
C9_2 C10_2 1_555 1_555
O13_2 Zr5 1_555 1_555
Ni2_2 N5_2 1_555 1_555
N5_2 H23_2 1_555 1_555
N6_2 Ni2_2 1_555 1_555
H24_2 N6_2 1_555 1_555
C13_2 N5_2 1_555 1_555
H25_2 C13_2 1_555 1_555
H26_2 C13_2 1_555 1_555
C14_2 N5_2 1_555 1_555
H27_2 C14_2 1_555 1_555
H28_2 C14_2 1_555 1_555
C15_2 C14_2 1_555 1_555
H29_2 C15_2 1_555 1_555
C16_2 N6_2 1_555 1_555
H30_2 C16_2 1_555 1_555
H31_2 C16_2 1_555 1_555
C17_2 N6_2 1_555 1_555
H32_2 C17_2 1_555 1_555
H33_2 C17_2 1_555 1_555
O15_2 C24_2 1_555 1_555
O16_2 C24_2 1_555 1_555
N7_2 Ni2_2 1_555 1_555
H34_2 N7_2 1_555 1_555
N8_2 Ni2_2 1_555 1_555
H35_2 N8_2 1_555 1_555
C19_2 C17_2 1_555 1_555
H36_2 C19_2 1_555 1_555
H37_2 C19_2 1_555 1_555
C20_2 N7_2 1_555 1_555
H38_2 C20_2 1_555 1_555
H39_2 C20_2 1_555 1_555
C21_2 C20_2 1_555 1_555
H40_2 C21_2 1_555 1_555
C22_2 N8_2 1_555 1_555
H41_2 C22_2 1_555 1_555
H42_2 C22_2 1_555 1_555
C23_2 C13_2 1_555 1_555
H43_2 C23_2 1_555 1_555
H44_2 C23_2 1_555 1_555
C24_2 C21_2 1_555 1_555
Zr7_2 O15_2 1_555 1_555
Zr10 O16_2 1_555 1_555
C15_2 C16_2 1_555 1_555
C15_2 C18_2 1_555 1_555
N7_2 C19_2 1_555 1_555
N8_2 C23_2 1_555 1_555
C21_2 C22_2 1_555 1_555
O9_3 Zr5 1_555 1_555
O9_4 Zr5_2 1_555 1_555
O23_2 Zr5_2 1_555 1_555
O9_4 H49_2 1_555 1_555
O9_4 H50_2 1_555 1_555
O3_3 H47_2 1_555 1_555
O3_4 H48_2 1_555 1_555
O10_3 H51_2 1_555 1_555
O10_4 H52_2 1_555 1_555
O2_3 Zr4 1_555 1_555
O2_4 Zr4_2 1_555 1_555
O22_2 Zr4_2 1_555 1_555
O2_4 H45_2 1_555 1_555
O2_4 H46_2 1_555 1_555
Zr8 O16_3 1_555 1_555
Zr6_2 O1_2 1_555 1_555
Zr2_5 O1_2 1_555 1_555
O1_2 Zr7 1_555 1_555
O2_5 Zr6_2 1_555 1_555
O3_5 Zr6_2 1_555 1_555
Ni1_3 N1_3 1_555 1_555
O4_2 Zr6_2 1_555 1_555
O5_2 Zr2_5 1_555 1_555
N1_3 H1_3 1_555 1_555
N2_3 Ni1_3 1_555 1_555
H2_3 N2_3 1_555 1_555
C1_3 N1_3 1_555 1_555
H3_3 C1_3 1_555 1_555
H4_3 C1_3 1_555 1_555
C2_3 N1_3 1_555 1_555
H5_3 C2_3 1_555 1_555
H6_3 C2_3 1_555 1_555
C3_3 C2_3 1_555 1_555
H7_3 C3_3 1_555 1_555
C4_3 N2_3 1_555 1_555
H8_3 C4_3 1_555 1_555
H9_3 C4_3 1_555 1_555
C5_3 N2_3 1_555 1_555
H10_3 C5_3 1_555 1_555
H11_3 C5_3 1_555 1_555
C6_3 O4_2 1_555 1_555
N3_3 Ni1_3 1_555 1_555
H12_3 N3_3 1_555 1_555
N4_3 Ni1_3 1_555 1_555
H13_3 N4_3 1_555 1_555
C7_3 C5_3 1_555 1_555
H14_3 C7_3 1_555 1_555
H15_3 C7_3 1_555 1_555
C8_3 N3_3 1_555 1_555
H16_3 C8_3 1_555 1_555
H17_3 C8_3 1_555 1_555
C9_3 C8_3 1_555 1_555
H18_3 C9_3 1_555 1_555
C10_3 N4_3 1_555 1_555
H19_3 C10_3 1_555 1_555
H20_3 C10_3 1_555 1_555
C11_3 C1_3 1_555 1_555
H21_3 C11_3 1_555 1_555
H22_3 C11_3 1_555 1_555
C12_3 C9_3 1_555 1_555
Zr6 O8_2 1_555 1_555
O8_2 Zr2_5 1_555 1_555
O9_5 Zr6 1_555 1_555
O10_5 Zr6 1_555 1_555
O11_2 Zr6_2 1_555 1_555
O12_2 Zr6_2 1_555 1_555
Ni2_3 N5_3 1_555 1_555
O13_3 C18_3 1_555 1_555
O14_2 Zr2_5 1_555 1_555
N5_3 H23_3 1_555 1_555
N6_3 Ni2_3 1_555 1_555
H24_3 N6_3 1_555 1_555
C13_3 N5_3 1_555 1_555
H25_3 C13_3 1_555 1_555
H26_3 C13_3 1_555 1_555
C14_3 N5_3 1_555 1_555
H27_3 C14_3 1_555 1_555
H28_3 C14_3 1_555 1_555
C15_3 C14_3 1_555 1_555
H29_3 C15_3 1_555 1_555
C16_3 N6_3 1_555 1_555
H30_3 C16_3 1_555 1_555
H31_3 C16_3 1_555 1_555
C17_3 N6_3 1_555 1_555
H32_3 C17_3 1_555 1_555
H33_3 C17_3 1_555 1_555
C18_3 O14_2 1_555 1_555
N7_3 Ni2_3 1_555 1_555
H34_3 N7_3 1_555 1_555
N8_3 Ni2_3 1_555 1_555
H35_3 N8_3 1_555 1_555
C19_3 C17_3 1_555 1_555
H36_3 C19_3 1_555 1_555
H37_3 C19_3 1_555 1_555
C20_3 N7_3 1_555 1_555
H38_3 C20_3 1_555 1_555
H39_3 C20_3 1_555 1_555
C21_3 C20_3 1_555 1_555
H40_3 C21_3 1_555 1_555
C22_3 N8_3 1_555 1_555
H41_3 C22_3 1_555 1_555
H42_3 C22_3 1_555 1_555
C23_3 C13_3 1_555 1_555
H43_3 C23_3 1_555 1_555
H44_3 C23_3 1_555 1_555
C24_3 C21_3 1_555 1_555
Zr7_2 O8_2 1_555 1_555
Zr7 O17_2 1_555 1_555
Zr10 O11_2 1_555 1_555
O17_2 Zr6 1_555 1_555
O18_2 Zr2_5 1_555 1_555
O19_2 Zr6_2 1_555 1_555
O20_2 Zr6 1_555 1_555
O21_2 Zr6 1_555 1_555
O24_2 Zr2_5 1_555 1_555
O25_2 Zr2_5 1_555 1_555
Zr2_5 O12_2 1_555 1_555
O5_2 C6_3 1_555 1_555
C3_3 C4_3 1_555 1_555
C3_3 C6_3 1_555 1_555
N3_3 C7_3 1_555 1_555
N4_3 C11_3 1_555 1_555
C9_3 C10_3 1_555 1_555
Zr6 O18_2 1_555 1_555
O11_2 Zr7_2 1_555 1_555
O12_2 Zr7_2 1_555 1_555
O13_3 Zr7_2 1_555 1_555
C15_3 C16_3 1_555 1_555
C15_3 C18_3 1_555 1_555
N7_3 C19_3 1_555 1_555
N8_3 C23_3 1_555 1_555
C21_3 C22_3 1_555 1_555
Zr7_2 O20_2 1_555 1_555
Zr7 O18_2 1_555 1_555
Zr7 O19_2 1_555 1_555
Zr10 O17_2 1_555 1_555
Zr10 O19_2 1_555 1_555
Zr10 O20_2 1_555 1_555
Zr8_2 O7_3 1_555 1_555
Zr8_3 O7_4 1_555 1_555
Ni1_4 N1_4 1_555 1_555
N1_4 H1_4 1_555 1_555
N2_4 Ni1_4 1_555 1_555
H2_4 N2_4 1_555 1_555
C1_4 N1_4 1_555 1_555
H3_4 C1_4 1_555 1_555
H4_4 C1_4 1_555 1_555
C2_4 N1_4 1_555 1_555
H5_4 C2_4 1_555 1_555
H6_4 C2_4 1_555 1_555
C3_4 C2_4 1_555 1_555
H7_4 C3_4 1_555 1_555
C4_4 N2_4 1_555 1_555
H8_4 C4_4 1_555 1_555
H9_4 C4_4 1_555 1_555
C5_4 N2_4 1_555 1_555
H10_4 C5_4 1_555 1_555
H11_4 C5_4 1_555 1_555
C6_4 O21_2 1_555 1_555
N3_4 Ni1_4 1_555 1_555
H12_4 N3_4 1_555 1_555
N4_4 Ni1_4 1_555 1_555
H13_4 N4_4 1_555 1_555
C7_4 C5_4 1_555 1_555
H14_4 C7_4 1_555 1_555
H15_4 C7_4 1_555 1_555
C8_4 N3_4 1_555 1_555
H16_4 C8_4 1_555 1_555
H17_4 C8_4 1_555 1_555
C9_4 C8_4 1_555 1_555
H18_4 C9_4 1_555 1_555
C10_4 N4_4 1_555 1_555
H19_4 C10_4 1_555 1_555
H20_4 C10_4 1_555 1_555
C11_4 C1_4 1_555 1_555
H21_4 C11_4 1_555 1_555
H22_4 C11_4 1_555 1_555
C12_4 C9_4 1_555 1_555
Ni2_4 N5_4 1_555 1_555
O13_4 C18_4 1_555 1_555
N5_4 H23_4 1_555 1_555
N6_4 Ni2_4 1_555 1_555
H24_4 N6_4 1_555 1_555
C13_4 N5_4 1_555 1_555
H25_4 C13_4 1_555 1_555
H26_4 C13_4 1_555 1_555
C14_4 N5_4 1_555 1_555
H27_4 C14_4 1_555 1_555
H28_4 C14_4 1_555 1_555
C15_4 C14_4 1_555 1_555
H29_4 C15_4 1_555 1_555
C16_4 N6_4 1_555 1_555
H30_4 C16_4 1_555 1_555
H31_4 C16_4 1_555 1_555
C17_4 N6_4 1_555 1_555
H32_4 C17_4 1_555 1_555
H33_4 C17_4 1_555 1_555
C18_4 O25_2 1_555 1_555
N7_4 Ni2_4 1_555 1_555
H34_4 N7_4 1_555 1_555
N8_4 Ni2_4 1_555 1_555
H35_4 N8_4 1_555 1_555
C19_4 C17_4 1_555 1_555
H36_4 C19_4 1_555 1_555
H37_4 C19_4 1_555 1_555
C20_4 N7_4 1_555 1_555
H38_4 C20_4 1_555 1_555
H39_4 C20_4 1_555 1_555
C21_4 C20_4 1_555 1_555
H40_4 C21_4 1_555 1_555
C22_4 N8_4 1_555 1_555
H41_4 C22_4 1_555 1_555
H42_4 C22_4 1_555 1_555
C23_4 C13_4 1_555 1_555
H43_4 C23_4 1_555 1_555
H44_4 C23_4 1_555 1_555
C24_4 C21_4 1_555 1_555
O24_2 C6_4 1_555 1_555
C3_4 C4_4 1_555 1_555
C3_4 C6_4 1_555 1_555
N3_4 C7_4 1_555 1_555
N4_4 C11_4 1_555 1_555
C9_4 C10_4 1_555 1_555
O13_4 Zr7 1_555 1_555
C15_4 C16_4 1_555 1_555
C15_4 C18_4 1_555 1_555
N7_4 C19_4 1_555 1_555
N8_4 C23_4 1_555 1_555
C21_4 C22_4 1_555 1_555
Zr8_4 O16_4 1_555 1_555
O2_6 Zr7_2 1_555 1_555
O3_6 Zr7_2 1_555 1_555
O9_6 Zr7 1_555 1_555
O10_6 Zr7 1_555 1_555
O10 H48_3 1_555 1_555
O10_2 H47_3 1_555 1_555
O9 H45_3 1_555 1_555
O9 H46_3 1_555 1_555
O2 H49_3 1_555 1_555
O2 H50_3 1_555 1_555
O3 H52_3 1_555 1_555
O3_2 H51_3 1_555 1_555
O9_3 H45_4 1_555 1_555
O9_3 H46_4 1_555 1_555
O3_3 H52_4 1_555 1_555
O3_4 H51_4 1_555 1_555
O10_3 H48_4 1_555 1_555
O10_4 H47_4 1_555 1_555
O2_3 H49_4 1_555 1_555
O2_3 H50_4 1_555 1_555

#END
