
###############################################################################
#
# This file contains modified crystal structure data generated from the
# MOF subset of the Cambridge Structural Database (CSD) v543 
# hosted by the Cambridge Crystallographic Data Centre (CCDC).
#
# This work is licensed under the Creative Commons
# Attribution-NonCommercial-ShareAlike 4.0 International License.
# To view a copy of this license, visit
# http://creativecommons.org/licenses/by-nc-sa/4.0/
# or send a letter to
# Creative Commons, PO Box 1866, Mountain View, CA 94042, USA.
#
# CIF created using the CSD Python API on 29 September 2022
# The structure has been converted into the P1 space group
# The structure has a 3D framework
# The original CSD entry YESTAU is in the tetragonal crystal system
# The framework has been calculated to contain at least 10.0% void space
# The void calculation uses a probe of radius 1.32A, grid spacing 0.4
# The framework is charged, counterions have been retained in the structure
# H atom positions have been added when not included in the experimental data
# Generated hydrogen atom positions removed from atoms on special positions
#
###############################################################################

data_YESTAU
_chemical_formula_moiety         '(C96 H240 Cl16 Cu8 N32 O50 Zr16)n'
_symmetry_cell_setting           triclinic
_symmetry_space_group_name_H-M   'P 1'
_symmetry_Int_Tables_number      1
_space_group_name_Hall           'P 1'
loop_
_symmetry_equiv_pos_site_id
_symmetry_equiv_pos_as_xyz
1 x,y,z
_cell_length_a                   16.721(3)
_cell_length_b                   16.721(3)
_cell_length_c                   19.704(5)
_cell_angle_alpha                90
_cell_angle_beta                 90
_cell_angle_gamma                90
_cell_volume                     5509.08
loop_
_atom_site_label
_atom_site_type_symbol
_atom_site_fract_x
_atom_site_fract_y
_atom_site_fract_z
_atom_site_U_iso_or_equiv
_atom_site_thermal_displace_type
Zr2 Zr 0.000 0.000 0.1193(12) 0.0317 Uiso
O10 O 0.242(7) 0.053(7) 0.000 0.0633 Uiso
Zr5 Zr 0.02245(16) 0.1418(10) 0.000 0.0317 Uiso
O18 O 0.087(3) 0.0631(19) 0.066(3) 0.0633 Uiso
O25 O 0.0177(3) 0.111(2) 0.166(3) 0.0633 Uiso
H49 H 0.287852 0.0250161 0.0214896 . .
O10_2 O 0.242(7) 0.053(7) 1.000 0.0633 Uiso
Zr5_2 Zr 0.02245(16) 0.1418(10) 1.000 0.0317 Uiso
Zr8 Zr 0.000 0.000 0.8807(12) 0.0317 Uiso
O17 O 0.087(3) 0.0631(19) 0.934(3) 0.0633 Uiso
H50 H 0.255987 0.067334 0.952556 . .
Zr2_2 Zr 0.000 1.000 0.1193(12) 0.0317 Uiso
Zr3 Zr 0.1418(10) 0.97755(16) 0.000 0.0317 Uiso
O8 O 0.0631(19) 0.913(3) 0.066(3) 0.0633 Uiso
O9 O 0.206(6) 0.856(7) 0.000 0.0633 Uiso
Cu2 Cu 0.25 0.75 0.250 0.0633 Uiso
N5 N 0.1358(6) 0.706(4) 0.256(2) 0.0633 Uiso
H23 H 0.1317(5) 0.659(3) 0.226(3) 0.0950 Uiso
N6 N 0.2283(3) 0.810(2) 0.1594(15) 0.0633 Uiso
H24 H 0.2308(3) 0.770(2) 0.1218(15) 0.0950 Uiso
C13 C 0.1285(9) 0.677(6) 0.326(3) 0.0633 Uiso
H25 H 0.0820(9) 0.641(6) 0.330(4) 0.0950 Uiso
H26 H 0.1198(10) 0.723(7) 0.358(2) 0.0950 Uiso
C14 C 0.0713(6) 0.761(4) 0.2373(18) 0.0633 Uiso
H27 H 0.0711(7) 0.808(4) 0.2687(15) 0.0950 Uiso
H28 H 0.0191(6) 0.734(4) 0.242(2) 0.0950 Uiso
C15 C 0.0814(3) 0.792(2) 0.1645(15) 0.0633 Uiso
H29 H 0.0919(3) 0.744(2) 0.135(2) 0.0950 Uiso
C16 C 0.1506(3) 0.850(2) 0.1543(18) 0.0633 Uiso
H30 H 0.1458(3) 0.876(2) 0.109(2) 0.0950 Uiso
H31 H 0.1476(4) 0.893(3) 0.189(2) 0.0950 Uiso
C17 C 0.2961(3) 0.864(2) 0.149(2) 0.0633 Uiso
H32 H 0.2891(4) 0.913(2) 0.177(3) 0.0950 Uiso
H33 H 0.2987(3) 0.880(2) 0.100(3) 0.0950 Uiso
C18 C 0.0041(3) 0.829(2) 0.1404(15) 0.0633 Uiso
O15 O 0.5322(4) 0.703(2) 0.4046(16) 0.0633 Uiso
O16 O 0.5177(3) 0.611(2) 0.334(3) 0.0633 Uiso
N7 N 0.3642(6) 0.794(4) 0.244(2) 0.0633 Uiso
H34 H 0.3683(5) 0.841(3) 0.274(3) 0.0950 Uiso
N8 N 0.2717(3) 0.690(2) 0.3406(15) 0.0633 Uiso
H35 H 0.2692(3) 0.730(2) 0.3782(15) 0.0950 Uiso
C19 C 0.3715(9) 0.823(6) 0.174(3) 0.0633 Uiso
H36 H 0.4180(9) 0.859(6) 0.170(4) 0.0950 Uiso
H37 H 0.3802(10) 0.777(7) 0.142(2) 0.0950 Uiso
C20 C 0.4287(6) 0.739(4) 0.2627(18) 0.0633 Uiso
H38 H 0.4289(7) 0.692(4) 0.2313(15) 0.0950 Uiso
H39 H 0.4809(6) 0.766(4) 0.258(2) 0.0950 Uiso
C21 C 0.4186(3) 0.708(2) 0.3355(15) 0.0633 Uiso
H40 H 0.4081(3) 0.756(2) 0.365(2) 0.0950 Uiso
C22 C 0.3494(3) 0.650(2) 0.3457(18) 0.0633 Uiso
H41 H 0.3542(3) 0.624(2) 0.391(2) 0.0950 Uiso
H42 H 0.3524(4) 0.607(3) 0.311(2) 0.0950 Uiso
C23 C 0.2039(3) 0.636(2) 0.351(2) 0.0633 Uiso
H43 H 0.2109(4) 0.587(2) 0.323(3) 0.0950 Uiso
H44 H 0.2013(3) 0.620(2) 0.400(3) 0.0950 Uiso
C24 C 0.4959(3) 0.671(2) 0.3596(15) 0.0633 Uiso
Zr7 Zr 0.52245(16) 0.6418(10) 0.500 0.0317 Uiso
Zr10 Zr 0.500 0.500 0.3807(12) 0.0317 Uiso
O21 O 0.203(2) 0.9678(4) 0.0954(16) 0.0633 Uiso
O24 O 0.111(2) 0.9823(3) 0.166(3) 0.0633 Uiso
Zr3_2 Zr 0.1418(10) 0.97755(16) 1.000 0.0317 Uiso
O9_2 O 0.206(6) 0.856(7) 1.000 0.0633 Uiso
Zr8_2 Zr 0.000 1.000 0.8807(12) 0.0317 Uiso
O20 O 0.0631(19) 0.913(3) 0.934(3) 0.0633 Uiso
O23 O 0.203(2) 0.9678(4) 0.9046(16) 0.0633 Uiso
H51 H 0.169359 0.81426 0.98216 . .
H52 H 0.254287 0.859117 0.970782 . .
Zr1 Zr 0.8582(10) 0.02245(16) 0.000 0.0317 Uiso
Zr2_3 Zr 1.000 0.000 0.1193(12) 0.0317 Uiso
O1 O 0.9369(19) 0.087(3) 0.066(3) 0.0633 Uiso
O2 O 0.794(6) 0.144(7) 0.000 0.0633 Uiso
O4 O 0.797(2) 0.0322(4) 0.0954(16) 0.0633 Uiso
O5 O 0.889(2) 0.0177(3) 0.166(3) 0.0633 Uiso
Zr1_2 Zr 0.8582(10) 0.02245(16) 1.000 0.0317 Uiso
O2_2 O 0.794(6) 0.144(7) 1.000 0.0633 Uiso
Zr8_3 Zr 1.000 0.000 0.8807(12) 0.0317 Uiso
O19 O 0.9369(19) 0.087(3) 0.934(3) 0.0633 Uiso
O22 O 0.797(2) 0.0322(4) 0.9046(16) 0.0633 Uiso
H47 H 0.830641 0.18574 0.98216 . .
H48 H 0.745713 0.140883 0.970782 . .
Zr2_4 Zr 1.000 1.000 0.1193(12) 0.0317 Uiso
O3 O 0.758(7) 0.947(7) 0.000 0.0633 Uiso
Cu1 Cu 0.75 0.75 0.250 0.0633 Uiso
N1 N 0.706(4) 0.8642(6) 0.256(2) 0.0633 Uiso
H1 H 0.659(3) 0.8683(5) 0.226(3) 0.0950 Uiso
N2 N 0.810(2) 0.7717(3) 0.1594(15) 0.0633 Uiso
H2 H 0.770(2) 0.7692(3) 0.1218(15) 0.0950 Uiso
C1 C 0.677(6) 0.8715(9) 0.326(3) 0.0633 Uiso
H3 H 0.641(6) 0.9180(9) 0.330(4) 0.0950 Uiso
H4 H 0.723(7) 0.8802(10) 0.358(2) 0.0950 Uiso
C2 C 0.761(4) 0.9287(6) 0.2373(18) 0.0633 Uiso
H5 H 0.808(4) 0.9289(7) 0.2687(15) 0.0950 Uiso
H6 H 0.734(4) 0.9809(6) 0.242(2) 0.0950 Uiso
C3 C 0.792(2) 0.9186(3) 0.1645(15) 0.0633 Uiso
H7 H 0.744(2) 0.9081(3) 0.135(2) 0.0950 Uiso
C4 C 0.850(2) 0.8494(3) 0.1543(18) 0.0633 Uiso
H8 H 0.876(2) 0.8542(3) 0.109(2) 0.0950 Uiso
H9 H 0.893(3) 0.8524(4) 0.189(2) 0.0950 Uiso
C5 C 0.864(2) 0.7039(3) 0.149(2) 0.0633 Uiso
H10 H 0.913(2) 0.7109(4) 0.177(3) 0.0950 Uiso
H11 H 0.880(2) 0.7013(3) 0.100(3) 0.0950 Uiso
C6 C 0.829(2) 0.9959(3) 0.1404(15) 0.0633 Uiso
O6 O 0.703(2) 0.4678(4) 0.4046(16) 0.0633 Uiso
O7 O 0.611(2) 0.4823(3) 0.334(3) 0.0633 Uiso
N3 N 0.794(4) 0.6358(6) 0.244(2) 0.0633 Uiso
H12 H 0.841(3) 0.6317(5) 0.274(3) 0.0950 Uiso
N4 N 0.690(2) 0.7283(3) 0.3406(15) 0.0633 Uiso
H13 H 0.730(2) 0.7308(3) 0.3782(15) 0.0950 Uiso
C7 C 0.823(6) 0.6285(9) 0.174(3) 0.0633 Uiso
H14 H 0.859(6) 0.5820(9) 0.170(4) 0.0950 Uiso
H15 H 0.777(7) 0.6198(10) 0.142(2) 0.0950 Uiso
C8 C 0.739(4) 0.5713(6) 0.2627(18) 0.0633 Uiso
H16 H 0.692(4) 0.5711(7) 0.2313(15) 0.0950 Uiso
H17 H 0.766(4) 0.5191(6) 0.258(2) 0.0950 Uiso
C9 C 0.708(2) 0.5814(3) 0.3355(15) 0.0633 Uiso
H18 H 0.756(2) 0.5919(3) 0.365(2) 0.0950 Uiso
C10 C 0.650(2) 0.6506(3) 0.3457(18) 0.0633 Uiso
H19 H 0.624(2) 0.6458(3) 0.391(2) 0.0950 Uiso
H20 H 0.607(3) 0.6476(4) 0.311(2) 0.0950 Uiso
C11 C 0.636(2) 0.7961(3) 0.351(2) 0.0633 Uiso
H21 H 0.587(2) 0.7891(4) 0.323(3) 0.0950 Uiso
H22 H 0.620(2) 0.7987(3) 0.400(3) 0.0950 Uiso
C12 C 0.671(2) 0.5041(3) 0.3596(15) 0.0633 Uiso
O12 O 0.913(3) 0.9369(19) 0.066(3) 0.0633 Uiso
O13 O 0.9678(4) 0.797(2) 0.0954(16) 0.0633 Uiso
O14 O 0.9823(3) 0.889(2) 0.166(3) 0.0633 Uiso
Zr4 Zr 0.97755(16) 0.8582(10) 0.000 0.0317 Uiso
Zr6 Zr 0.6418(10) 0.47755(16) 0.500 0.0317 Uiso
H45 H 0.712148 0.974984 0.0214896 . .
O3_2 O 0.758(7) 0.947(7) 1.000 0.0633 Uiso
O11 O 0.913(3) 0.9369(19) 0.934(3) 0.0633 Uiso
Zr4_2 Zr 0.97755(16) 0.8582(10) 1.000 0.0317 Uiso
Zr8_4 Zr 1.000 1.000 0.8807(12) 0.0317 Uiso
H46 H 0.744013 0.932666 0.952556 . .
Cu1_2 Cu 0.25 0.25 0.250 0.0633 Uiso
N1_2 N 0.294(4) 0.1358(6) 0.256(2) 0.0633 Uiso
H1_2 H 0.341(3) 0.1317(5) 0.226(3) 0.0950 Uiso
N2_2 N 0.190(2) 0.2283(3) 0.1594(15) 0.0633 Uiso
H2_2 H 0.230(2) 0.2308(3) 0.1218(15) 0.0950 Uiso
C1_2 C 0.323(6) 0.1285(9) 0.326(3) 0.0633 Uiso
H3_2 H 0.359(6) 0.0820(9) 0.330(4) 0.0950 Uiso
H4_2 H 0.277(7) 0.1198(10) 0.358(2) 0.0950 Uiso
C2_2 C 0.239(4) 0.0713(6) 0.2373(18) 0.0633 Uiso
H5_2 H 0.192(4) 0.0711(7) 0.2687(15) 0.0950 Uiso
H6_2 H 0.266(4) 0.0191(6) 0.242(2) 0.0950 Uiso
C3_2 C 0.208(2) 0.0814(3) 0.1645(15) 0.0633 Uiso
H7_2 H 0.256(2) 0.0919(3) 0.135(2) 0.0950 Uiso
C4_2 C 0.150(2) 0.1506(3) 0.1543(18) 0.0633 Uiso
H8_2 H 0.124(2) 0.1458(3) 0.109(2) 0.0950 Uiso
H9_2 H 0.107(3) 0.1476(4) 0.189(2) 0.0950 Uiso
C5_2 C 0.136(2) 0.2961(3) 0.149(2) 0.0633 Uiso
H10_2 H 0.087(2) 0.2891(4) 0.177(3) 0.0950 Uiso
H11_2 H 0.120(2) 0.2987(3) 0.100(3) 0.0950 Uiso
C6_2 C 0.171(2) 0.0041(3) 0.1404(15) 0.0633 Uiso
O6_2 O 0.297(2) 0.5322(4) 0.4046(16) 0.0633 Uiso
O7_2 O 0.389(2) 0.5177(3) 0.334(3) 0.0633 Uiso
N3_2 N 0.206(4) 0.3642(6) 0.244(2) 0.0633 Uiso
H12_2 H 0.159(3) 0.3683(5) 0.274(3) 0.0950 Uiso
N4_2 N 0.310(2) 0.2717(3) 0.3406(15) 0.0633 Uiso
H13_2 H 0.270(2) 0.2692(3) 0.3782(15) 0.0950 Uiso
C7_2 C 0.177(6) 0.3715(9) 0.174(3) 0.0633 Uiso
H14_2 H 0.141(6) 0.4180(9) 0.170(4) 0.0950 Uiso
H15_2 H 0.223(7) 0.3802(10) 0.142(2) 0.0950 Uiso
C8_2 C 0.261(4) 0.4287(6) 0.2627(18) 0.0633 Uiso
H16_2 H 0.308(4) 0.4289(7) 0.2313(15) 0.0950 Uiso
H17_2 H 0.234(4) 0.4809(6) 0.258(2) 0.0950 Uiso
C9_2 C 0.292(2) 0.4186(3) 0.3355(15) 0.0633 Uiso
H18_2 H 0.244(2) 0.4081(3) 0.365(2) 0.0950 Uiso
C10_2 C 0.350(2) 0.3494(3) 0.3457(18) 0.0633 Uiso
H19_2 H 0.376(2) 0.3542(3) 0.391(2) 0.0950 Uiso
H20_2 H 0.393(3) 0.3524(4) 0.311(2) 0.0950 Uiso
C11_2 C 0.364(2) 0.2039(3) 0.351(2) 0.0633 Uiso
H21_2 H 0.413(2) 0.2109(4) 0.323(3) 0.0950 Uiso
H22_2 H 0.380(2) 0.2013(3) 0.400(3) 0.0950 Uiso
C12_2 C 0.329(2) 0.4959(3) 0.3596(15) 0.0633 Uiso
O13_2 O 0.0322(4) 0.203(2) 0.0954(16) 0.0633 Uiso
Zr6_2 Zr 0.3582(10) 0.52245(16) 0.500 0.0317 Uiso
Cu2_2 Cu 0.75 0.25 0.250 0.0633 Uiso
N5_2 N 0.8642(6) 0.294(4) 0.256(2) 0.0633 Uiso
H23_2 H 0.8683(5) 0.341(3) 0.226(3) 0.0950 Uiso
N6_2 N 0.7717(3) 0.190(2) 0.1594(15) 0.0633 Uiso
H24_2 H 0.7692(3) 0.230(2) 0.1218(15) 0.0950 Uiso
C13_2 C 0.8715(9) 0.323(6) 0.326(3) 0.0633 Uiso
H25_2 H 0.9180(9) 0.359(6) 0.330(4) 0.0950 Uiso
H26_2 H 0.8802(10) 0.277(7) 0.358(2) 0.0950 Uiso
C14_2 C 0.9287(6) 0.239(4) 0.2373(18) 0.0633 Uiso
H27_2 H 0.9289(7) 0.192(4) 0.2687(15) 0.0950 Uiso
H28_2 H 0.9809(6) 0.266(4) 0.242(2) 0.0950 Uiso
C15_2 C 0.9186(3) 0.208(2) 0.1645(15) 0.0633 Uiso
H29_2 H 0.9081(3) 0.256(2) 0.135(2) 0.0950 Uiso
C16_2 C 0.8494(3) 0.150(2) 0.1543(18) 0.0633 Uiso
H30_2 H 0.8542(3) 0.124(2) 0.109(2) 0.0950 Uiso
H31_2 H 0.8524(4) 0.107(3) 0.189(2) 0.0950 Uiso
C17_2 C 0.7039(3) 0.136(2) 0.149(2) 0.0633 Uiso
H32_2 H 0.7109(4) 0.087(2) 0.177(3) 0.0950 Uiso
H33_2 H 0.7013(3) 0.120(2) 0.100(3) 0.0950 Uiso
C18_2 C 0.9959(3) 0.171(2) 0.1404(15) 0.0633 Uiso
O15_2 O 0.4678(4) 0.297(2) 0.4046(16) 0.0633 Uiso
O16_2 O 0.4823(3) 0.389(2) 0.334(3) 0.0633 Uiso
N7_2 N 0.6358(6) 0.206(4) 0.244(2) 0.0633 Uiso
H34_2 H 0.6317(5) 0.159(3) 0.274(3) 0.0950 Uiso
N8_2 N 0.7283(3) 0.310(2) 0.3406(15) 0.0633 Uiso
H35_2 H 0.7308(3) 0.270(2) 0.3782(15) 0.0950 Uiso
C19_2 C 0.6285(9) 0.177(6) 0.174(3) 0.0633 Uiso
H36_2 H 0.5820(9) 0.141(6) 0.170(4) 0.0950 Uiso
H37_2 H 0.6198(10) 0.223(7) 0.142(2) 0.0950 Uiso
C20_2 C 0.5713(6) 0.261(4) 0.2627(18) 0.0633 Uiso
H38_2 H 0.5711(7) 0.308(4) 0.2313(15) 0.0950 Uiso
H39_2 H 0.5191(6) 0.234(4) 0.258(2) 0.0950 Uiso
C21_2 C 0.5814(3) 0.292(2) 0.3355(15) 0.0633 Uiso
H40_2 H 0.5919(3) 0.244(2) 0.365(2) 0.0950 Uiso
C22_2 C 0.6506(3) 0.350(2) 0.3457(18) 0.0633 Uiso
H41_2 H 0.6458(3) 0.376(2) 0.391(2) 0.0950 Uiso
H42_2 H 0.6476(4) 0.393(3) 0.311(2) 0.0950 Uiso
C23_2 C 0.7961(3) 0.364(2) 0.351(2) 0.0633 Uiso
H43_2 H 0.7891(4) 0.413(2) 0.323(3) 0.0950 Uiso
H44_2 H 0.7987(3) 0.380(2) 0.400(3) 0.0950 Uiso
C24_2 C 0.5041(3) 0.329(2) 0.3596(15) 0.0633 Uiso
Zr7_2 Zr 0.47755(16) 0.3582(10) 0.500 0.0317 Uiso
O9_3 O 0.144(7) 0.206(6) 0.000 0.0633 Uiso
O9_4 O 0.144(7) 0.206(6) 1.000 0.0633 Uiso
O23_2 O 0.0322(4) 0.203(2) 0.9046(16) 0.0633 Uiso
H51_2 H 0.18574 0.169359 0.98216 . .
H52_2 H 0.140883 0.254287 0.970782 . .
O3_3 O 0.053(7) 0.758(7) 0.000 0.0633 Uiso
H45_2 H 0.0250161 0.712148 0.0214896 . .
O3_4 O 0.053(7) 0.758(7) 1.000 0.0633 Uiso
H46_2 H 0.067334 0.744013 0.952556 . .
O10_3 O 0.947(7) 0.242(7) 0.000 0.0633 Uiso
H49_2 H 0.974984 0.287852 0.0214896 . .
O10_4 O 0.947(7) 0.242(7) 1.000 0.0633 Uiso
H50_2 H 0.932666 0.255987 0.952556 . .
O2_3 O 0.856(7) 0.794(6) 0.000 0.0633 Uiso
O2_4 O 0.856(7) 0.794(6) 1.000 0.0633 Uiso
O22_2 O 0.9678(4) 0.797(2) 0.9046(16) 0.0633 Uiso
H47_2 H 0.81426 0.830641 0.98216 . .
H48_2 H 0.859117 0.745713 0.970782 . .
O16_3 O 0.0177(3) 0.111(2) 0.834(3) 0.0633 Uiso
Zr2_5 Zr 0.500 0.500 0.6193(12) 0.0317 Uiso
O1_2 O 0.4369(19) 0.587(3) 0.566(3) 0.0633 Uiso
O2_5 O 0.294(6) 0.644(7) 0.500 0.0633 Uiso
O3_5 O 0.258(7) 0.447(7) 0.500 0.0633 Uiso
Cu1_3 Cu 0.25 0.25 0.750 0.0633 Uiso
O4_2 O 0.297(2) 0.5322(4) 0.5954(16) 0.0633 Uiso
O5_2 O 0.389(2) 0.5177(3) 0.666(3) 0.0633 Uiso
N1_3 N 0.206(4) 0.3642(6) 0.756(2) 0.0633 Uiso
H1_3 H 0.159(3) 0.3683(5) 0.726(3) 0.0950 Uiso
N2_3 N 0.310(2) 0.2717(3) 0.6594(15) 0.0633 Uiso
H2_3 H 0.270(2) 0.2692(3) 0.6218(15) 0.0950 Uiso
C1_3 C 0.177(6) 0.3715(9) 0.826(3) 0.0633 Uiso
H3_3 H 0.141(6) 0.4180(9) 0.830(4) 0.0950 Uiso
H4_3 H 0.223(7) 0.3802(10) 0.858(2) 0.0950 Uiso
C2_3 C 0.261(4) 0.4287(6) 0.7373(18) 0.0633 Uiso
H5_3 H 0.308(4) 0.4289(7) 0.7687(15) 0.0950 Uiso
H6_3 H 0.234(4) 0.4809(6) 0.742(2) 0.0950 Uiso
C3_3 C 0.292(2) 0.4186(3) 0.6645(15) 0.0633 Uiso
H7_3 H 0.244(2) 0.4081(3) 0.635(2) 0.0950 Uiso
C4_3 C 0.350(2) 0.3494(3) 0.6543(18) 0.0633 Uiso
H8_3 H 0.376(2) 0.3542(3) 0.609(2) 0.0950 Uiso
H9_3 H 0.393(3) 0.3524(4) 0.689(2) 0.0950 Uiso
C5_3 C 0.364(2) 0.2039(3) 0.649(2) 0.0633 Uiso
H10_3 H 0.413(2) 0.2109(4) 0.677(3) 0.0950 Uiso
H11_3 H 0.380(2) 0.2013(3) 0.600(3) 0.0950 Uiso
C6_3 C 0.329(2) 0.4959(3) 0.6404(15) 0.0633 Uiso
N3_3 N 0.294(4) 0.1358(6) 0.744(2) 0.0633 Uiso
H12_3 H 0.341(3) 0.1317(5) 0.774(3) 0.0950 Uiso
N4_3 N 0.190(2) 0.2283(3) 0.8406(15) 0.0633 Uiso
H13_3 H 0.230(2) 0.2308(3) 0.8782(15) 0.0950 Uiso
C7_3 C 0.323(6) 0.1285(9) 0.674(3) 0.0633 Uiso
H14_3 H 0.359(6) 0.0820(9) 0.670(4) 0.0950 Uiso
H15_3 H 0.277(7) 0.1198(10) 0.642(2) 0.0950 Uiso
C8_3 C 0.239(4) 0.0713(6) 0.7627(18) 0.0633 Uiso
H16_3 H 0.192(4) 0.0711(7) 0.7313(15) 0.0950 Uiso
H17_3 H 0.266(4) 0.0191(6) 0.758(2) 0.0950 Uiso
C9_3 C 0.208(2) 0.0814(3) 0.8355(15) 0.0633 Uiso
H18_3 H 0.256(2) 0.0919(3) 0.865(2) 0.0950 Uiso
C10_3 C 0.150(2) 0.1506(3) 0.8457(18) 0.0633 Uiso
H19_3 H 0.124(2) 0.1458(3) 0.891(2) 0.0950 Uiso
H20_3 H 0.107(3) 0.1476(4) 0.811(2) 0.0950 Uiso
C11_3 C 0.136(2) 0.2961(3) 0.851(2) 0.0633 Uiso
H21_3 H 0.087(2) 0.2891(4) 0.823(3) 0.0950 Uiso
H22_3 H 0.120(2) 0.2987(3) 0.900(3) 0.0950 Uiso
C12_3 C 0.171(2) 0.0041(3) 0.8596(15) 0.0633 Uiso
O8_2 O 0.5631(19) 0.413(3) 0.566(3) 0.0633 Uiso
O9_5 O 0.706(6) 0.356(7) 0.500 0.0633 Uiso
O10_5 O 0.742(7) 0.553(7) 0.500 0.0633 Uiso
O11_2 O 0.413(3) 0.4369(19) 0.434(3) 0.0633 Uiso
O12_2 O 0.413(3) 0.4369(19) 0.566(3) 0.0633 Uiso
Cu2_3 Cu 0.75 0.25 0.750 0.0633 Uiso
O13_3 O 0.4678(4) 0.297(2) 0.5954(16) 0.0633 Uiso
O14_2 O 0.4823(3) 0.389(2) 0.666(3) 0.0633 Uiso
N5_3 N 0.6358(6) 0.206(4) 0.756(2) 0.0633 Uiso
H23_3 H 0.6317(5) 0.159(3) 0.726(3) 0.0950 Uiso
N6_3 N 0.7283(3) 0.310(2) 0.6594(15) 0.0633 Uiso
H24_3 H 0.7308(3) 0.270(2) 0.6218(15) 0.0950 Uiso
C13_3 C 0.6285(9) 0.177(6) 0.826(3) 0.0633 Uiso
H25_3 H 0.5820(9) 0.141(6) 0.830(4) 0.0950 Uiso
H26_3 H 0.6198(10) 0.223(7) 0.858(2) 0.0950 Uiso
C14_3 C 0.5713(6) 0.261(4) 0.7373(18) 0.0633 Uiso
H27_3 H 0.5711(7) 0.308(4) 0.7687(15) 0.0950 Uiso
H28_3 H 0.5191(6) 0.234(4) 0.742(2) 0.0950 Uiso
C15_3 C 0.5814(3) 0.292(2) 0.6645(15) 0.0633 Uiso
H29_3 H 0.5919(3) 0.244(2) 0.635(2) 0.0950 Uiso
C16_3 C 0.6506(3) 0.350(2) 0.6543(18) 0.0633 Uiso
H30_3 H 0.6458(3) 0.376(2) 0.609(2) 0.0950 Uiso
H31_3 H 0.6476(4) 0.393(3) 0.689(2) 0.0950 Uiso
C17_3 C 0.7961(3) 0.364(2) 0.649(2) 0.0633 Uiso
H32_3 H 0.7891(4) 0.413(2) 0.677(3) 0.0950 Uiso
H33_3 H 0.7987(3) 0.380(2) 0.600(3) 0.0950 Uiso
C18_3 C 0.5041(3) 0.329(2) 0.6404(15) 0.0633 Uiso
N7_3 N 0.8642(6) 0.294(4) 0.744(2) 0.0633 Uiso
H34_3 H 0.8683(5) 0.341(3) 0.774(3) 0.0950 Uiso
N8_3 N 0.7717(3) 0.190(2) 0.8406(15) 0.0633 Uiso
H35_3 H 0.7692(3) 0.230(2) 0.8782(15) 0.0950 Uiso
C19_3 C 0.8715(9) 0.323(6) 0.674(3) 0.0633 Uiso
H36_3 H 0.9180(9) 0.359(6) 0.670(4) 0.0950 Uiso
H37_3 H 0.8802(10) 0.277(7) 0.642(2) 0.0950 Uiso
C20_3 C 0.9287(6) 0.239(4) 0.7627(18) 0.0633 Uiso
H38_3 H 0.9289(7) 0.192(4) 0.7313(15) 0.0950 Uiso
H39_3 H 0.9809(6) 0.266(4) 0.758(2) 0.0950 Uiso
C21_3 C 0.9186(3) 0.208(2) 0.8355(15) 0.0633 Uiso
H40_3 H 0.9081(3) 0.256(2) 0.865(2) 0.0950 Uiso
C22_3 C 0.8494(3) 0.150(2) 0.8457(18) 0.0633 Uiso
H41_3 H 0.8542(3) 0.124(2) 0.891(2) 0.0950 Uiso
H42_3 H 0.8524(4) 0.107(3) 0.811(2) 0.0950 Uiso
C23_3 C 0.7039(3) 0.136(2) 0.851(2) 0.0633 Uiso
H43_3 H 0.7109(4) 0.087(2) 0.823(3) 0.0950 Uiso
H44_3 H 0.7013(3) 0.120(2) 0.900(3) 0.0950 Uiso
C24_3 C 0.9959(3) 0.171(2) 0.8596(15) 0.0633 Uiso
O17_2 O 0.587(3) 0.5631(19) 0.434(3) 0.0633 Uiso
O18_2 O 0.587(3) 0.5631(19) 0.566(3) 0.0633 Uiso
O19_2 O 0.4369(19) 0.587(3) 0.434(3) 0.0633 Uiso
O20_2 O 0.5631(19) 0.413(3) 0.434(3) 0.0633 Uiso
O21_2 O 0.703(2) 0.4678(4) 0.5954(16) 0.0633 Uiso
O24_2 O 0.611(2) 0.4823(3) 0.666(3) 0.0633 Uiso
O25_2 O 0.5177(3) 0.611(2) 0.666(3) 0.0633 Uiso
O7_3 O 0.111(2) 0.9823(3) 0.834(3) 0.0633 Uiso
O7_4 O 0.889(2) 0.0177(3) 0.834(3) 0.0633 Uiso
Cu1_4 Cu 0.75 0.75 0.750 0.0633 Uiso
N1_4 N 0.794(4) 0.6358(6) 0.756(2) 0.0633 Uiso
H1_4 H 0.841(3) 0.6317(5) 0.726(3) 0.0950 Uiso
N2_4 N 0.690(2) 0.7283(3) 0.6594(15) 0.0633 Uiso
H2_4 H 0.730(2) 0.7308(3) 0.6218(15) 0.0950 Uiso
C1_4 C 0.823(6) 0.6285(9) 0.826(3) 0.0633 Uiso
H3_4 H 0.859(6) 0.5820(9) 0.830(4) 0.0950 Uiso
H4_4 H 0.777(7) 0.6198(10) 0.858(2) 0.0950 Uiso
C2_4 C 0.739(4) 0.5713(6) 0.7373(18) 0.0633 Uiso
H5_4 H 0.692(4) 0.5711(7) 0.7687(15) 0.0950 Uiso
H6_4 H 0.766(4) 0.5191(6) 0.742(2) 0.0950 Uiso
C3_4 C 0.708(2) 0.5814(3) 0.6645(15) 0.0633 Uiso
H7_4 H 0.756(2) 0.5919(3) 0.635(2) 0.0950 Uiso
C4_4 C 0.650(2) 0.6506(3) 0.6543(18) 0.0633 Uiso
H8_4 H 0.624(2) 0.6458(3) 0.609(2) 0.0950 Uiso
H9_4 H 0.607(3) 0.6476(4) 0.689(2) 0.0950 Uiso
C5_4 C 0.636(2) 0.7961(3) 0.649(2) 0.0633 Uiso
H10_4 H 0.587(2) 0.7891(4) 0.677(3) 0.0950 Uiso
H11_4 H 0.620(2) 0.7987(3) 0.600(3) 0.0950 Uiso
C6_4 C 0.671(2) 0.5041(3) 0.6404(15) 0.0633 Uiso
N3_4 N 0.706(4) 0.8642(6) 0.744(2) 0.0633 Uiso
H12_4 H 0.659(3) 0.8683(5) 0.774(3) 0.0950 Uiso
N4_4 N 0.810(2) 0.7717(3) 0.8406(15) 0.0633 Uiso
H13_4 H 0.770(2) 0.7692(3) 0.8782(15) 0.0950 Uiso
C7_4 C 0.677(6) 0.8715(9) 0.674(3) 0.0633 Uiso
H14_4 H 0.641(6) 0.9180(9) 0.670(4) 0.0950 Uiso
H15_4 H 0.723(7) 0.8802(10) 0.642(2) 0.0950 Uiso
C8_4 C 0.761(4) 0.9287(6) 0.7627(18) 0.0633 Uiso
H16_4 H 0.808(4) 0.9289(7) 0.7313(15) 0.0950 Uiso
H17_4 H 0.734(4) 0.9809(6) 0.758(2) 0.0950 Uiso
C9_4 C 0.792(2) 0.9186(3) 0.8355(15) 0.0633 Uiso
H18_4 H 0.744(2) 0.9081(3) 0.865(2) 0.0950 Uiso
C10_4 C 0.850(2) 0.8494(3) 0.8457(18) 0.0633 Uiso
H19_4 H 0.876(2) 0.8542(3) 0.891(2) 0.0950 Uiso
H20_4 H 0.893(3) 0.8524(4) 0.811(2) 0.0950 Uiso
C11_4 C 0.864(2) 0.7039(3) 0.851(2) 0.0633 Uiso
H21_4 H 0.913(2) 0.7109(4) 0.823(3) 0.0950 Uiso
H22_4 H 0.880(2) 0.7013(3) 0.900(3) 0.0950 Uiso
C12_4 C 0.829(2) 0.9959(3) 0.8596(15) 0.0633 Uiso
Cu2_4 Cu 0.25 0.75 0.750 0.0633 Uiso
O13_4 O 0.5322(4) 0.703(2) 0.5954(16) 0.0633 Uiso
N5_4 N 0.3642(6) 0.794(4) 0.756(2) 0.0633 Uiso
H23_4 H 0.3683(5) 0.841(3) 0.726(3) 0.0950 Uiso
N6_4 N 0.2717(3) 0.690(2) 0.6594(15) 0.0633 Uiso
H24_4 H 0.2692(3) 0.730(2) 0.6218(15) 0.0950 Uiso
C13_4 C 0.3715(9) 0.823(6) 0.826(3) 0.0633 Uiso
H25_4 H 0.4180(9) 0.859(6) 0.830(4) 0.0950 Uiso
H26_4 H 0.3802(10) 0.777(7) 0.858(2) 0.0950 Uiso
C14_4 C 0.4287(6) 0.739(4) 0.7373(18) 0.0633 Uiso
H27_4 H 0.4289(7) 0.692(4) 0.7687(15) 0.0950 Uiso
H28_4 H 0.4809(6) 0.766(4) 0.742(2) 0.0950 Uiso
C15_4 C 0.4186(3) 0.708(2) 0.6645(15) 0.0633 Uiso
H29_4 H 0.4081(3) 0.756(2) 0.635(2) 0.0950 Uiso
C16_4 C 0.3494(3) 0.650(2) 0.6543(18) 0.0633 Uiso
H30_4 H 0.3542(3) 0.624(2) 0.609(2) 0.0950 Uiso
H31_4 H 0.3524(4) 0.607(3) 0.689(2) 0.0950 Uiso
C17_4 C 0.2039(3) 0.636(2) 0.649(2) 0.0633 Uiso
H32_4 H 0.2109(4) 0.587(2) 0.677(3) 0.0950 Uiso
H33_4 H 0.2013(3) 0.620(2) 0.600(3) 0.0950 Uiso
C18_4 C 0.4959(3) 0.671(2) 0.6404(15) 0.0633 Uiso
N7_4 N 0.1358(6) 0.706(4) 0.744(2) 0.0633 Uiso
H34_4 H 0.1317(5) 0.659(3) 0.774(3) 0.0950 Uiso
N8_4 N 0.2283(3) 0.810(2) 0.8406(15) 0.0633 Uiso
H35_4 H 0.2308(3) 0.770(2) 0.8782(15) 0.0950 Uiso
C19_4 C 0.1285(9) 0.677(6) 0.674(3) 0.0633 Uiso
H36_4 H 0.0820(9) 0.641(6) 0.670(4) 0.0950 Uiso
H37_4 H 0.1198(10) 0.723(7) 0.642(2) 0.0950 Uiso
C20_4 C 0.0713(6) 0.761(4) 0.7627(18) 0.0633 Uiso
H38_4 H 0.0711(7) 0.808(4) 0.7313(15) 0.0950 Uiso
H39_4 H 0.0191(6) 0.734(4) 0.758(2) 0.0950 Uiso
C21_4 C 0.0814(3) 0.792(2) 0.8355(15) 0.0633 Uiso
H40_4 H 0.0919(3) 0.744(2) 0.865(2) 0.0950 Uiso
C22_4 C 0.1506(3) 0.850(2) 0.8457(18) 0.0633 Uiso
H41_4 H 0.1458(3) 0.876(2) 0.891(2) 0.0950 Uiso
H42_4 H 0.1476(4) 0.893(3) 0.811(2) 0.0950 Uiso
C23_4 C 0.2961(3) 0.864(2) 0.851(2) 0.0633 Uiso
H43_4 H 0.2891(4) 0.913(2) 0.823(3) 0.0950 Uiso
H44_4 H 0.2987(3) 0.880(2) 0.900(3) 0.0950 Uiso
C24_4 C 0.0041(3) 0.829(2) 0.8596(15) 0.0633 Uiso
O16_4 O 0.9823(3) 0.889(2) 0.834(3) 0.0633 Uiso
O2_6 O 0.356(7) 0.294(6) 0.500 0.0633 Uiso
O3_6 O 0.553(7) 0.258(7) 0.500 0.0633 Uiso
O9_6 O 0.644(7) 0.706(6) 0.500 0.0633 Uiso
O10_6 O 0.447(7) 0.742(7) 0.500 0.0633 Uiso
H46_3 H 0.255987 0.067334 0.0474437 . .
H45_3 H 0.287852 0.0250161 0.97851 . .
H47_3 H 0.169359 0.81426 0.0178397 . .
H48_3 H 0.254287 0.859117 0.0292177 . .
H51_3 H 0.830641 0.18574 0.0178397 . .
H52_3 H 0.745713 0.140883 0.0292177 . .
H50_3 H 0.744013 0.932666 0.0474437 . .
H49_3 H 0.712148 0.974984 0.97851 . .
H47_4 H 0.18574 0.169359 0.0178397 . .
H48_4 H 0.140883 0.254287 0.0292177 . .
H50_4 H 0.067334 0.744013 0.0474437 . .
H49_4 H 0.0250161 0.712148 0.97851 . .
H46_4 H 0.932666 0.255987 0.0474437 . .
H45_4 H 0.974984 0.287852 0.97851 . .
H51_4 H 0.81426 0.830641 0.0178397 . .
H52_4 H 0.859117 0.745713 0.0292177 . .
Cl1 Cl 0.910(2) 0.778(2) 0.3554(18) 0.1013 Uiso
Cl1_2 Cl 0.090(2) 0.222(2) 0.3554(18) 0.1013 Uiso
Cl1_3 Cl 0.222(2) 0.910(2) 0.3554(18) 0.1013 Uiso
Cl1_4 Cl 0.778(2) 0.090(2) 0.3554(18) 0.1013 Uiso
Cl1_5 Cl 0.410(2) 0.278(2) 0.8554(18) 0.1013 Uiso
Cl1_6 Cl 0.590(2) 0.722(2) 0.8554(18) 0.1013 Uiso
Cl1_7 Cl 0.722(2) 0.410(2) 0.8554(18) 0.1013 Uiso
Cl1_8 Cl 0.278(2) 0.590(2) 0.8554(18) 0.1013 Uiso
Cl1_9 Cl 0.090(2) 0.222(2) 0.6446(18) 0.1013 Uiso
Cl1_10 Cl 0.910(2) 0.778(2) 0.6446(18) 0.1013 Uiso
Cl1_11 Cl 0.778(2) 0.090(2) 0.6446(18) 0.1013 Uiso
Cl1_12 Cl 0.222(2) 0.910(2) 0.6446(18) 0.1013 Uiso
Cl1_13 Cl 0.590(2) 0.722(2) 0.1446(18) 0.1013 Uiso
Cl1_14 Cl 0.410(2) 0.278(2) 0.1446(18) 0.1013 Uiso
Cl1_15 Cl 0.278(2) 0.590(2) 0.1446(18) 0.1013 Uiso
Cl1_16 Cl 0.722(2) 0.410(2) 0.1446(18) 0.1013 Uiso
loop_
_geom_bond_atom_site_label_1
_geom_bond_atom_site_label_2
_geom_bond_site_symmetry_1
_geom_bond_site_symmetry_2
O18 Zr2 1_555 1_555
O25 Zr2 1_555 1_555
Zr5 O18 1_555 1_555
O10 H49 1_555 1_555
Zr5_2 O17 1_555 1_555
Zr8 O17 1_555 1_555
O10_2 H50 1_555 1_555
Zr3 O8 1_555 1_555
O8 Zr2_2 1_555 1_555
O9 Zr3 1_555 1_555
Cu2 N5 1_555 1_555
N5 H23 1_555 1_555
N6 Cu2 1_555 1_555
H24 N6 1_555 1_555
C13 N5 1_555 1_555
H25 C13 1_555 1_555
H26 C13 1_555 1_555
C14 N5 1_555 1_555
H27 C14 1_555 1_555
H28 C14 1_555 1_555
C15 C14 1_555 1_555
H29 C15 1_555 1_555
C16 N6 1_555 1_555
H30 C16 1_555 1_555
H31 C16 1_555 1_555
C17 N6 1_555 1_555
H32 C17 1_555 1_555
H33 C17 1_555 1_555
O15 C24 1_555 1_555
O16 C24 1_555 1_555
N7 Cu2 1_555 1_555
H34 N7 1_555 1_555
N8 Cu2 1_555 1_555
H35 N8 1_555 1_555
C19 C17 1_555 1_555
H36 C19 1_555 1_555
H37 C19 1_555 1_555
C20 N7 1_555 1_555
H38 C20 1_555 1_555
H39 C20 1_555 1_555
C21 C20 1_555 1_555
H40 C21 1_555 1_555
C22 N8 1_555 1_555
H41 C22 1_555 1_555
H42 C22 1_555 1_555
C23 C13 1_555 1_555
H43 C23 1_555 1_555
H44 C23 1_555 1_555
C24 C21 1_555 1_555
Zr7 O15 1_555 1_555
Zr10 O16 1_555 1_555
O21 Zr3 1_555 1_555
O24 Zr2_2 1_555 1_555
C15 C16 1_555 1_555
C15 C18 1_555 1_555
N7 C19 1_555 1_555
N8 C23 1_555 1_555
C21 C22 1_555 1_555
O9_2 Zr3_2 1_555 1_555
O20 Zr3_2 1_555 1_555
O23 Zr3_2 1_555 1_555
Zr8_2 O20 1_555 1_555
O9_2 H51 1_555 1_555
O9_2 H52 1_555 1_555
Zr1 O1 1_555 1_555
Zr2_3 O1 1_555 1_555
O2 Zr1 1_555 1_555
O4 Zr1 1_555 1_555
O5 Zr2_3 1_555 1_555
O2_2 Zr1_2 1_555 1_555
O19 Zr1_2 1_555 1_555
O22 Zr1_2 1_555 1_555
Zr8_3 O19 1_555 1_555
O2_2 H47 1_555 1_555
O2_2 H48 1_555 1_555
Cu1 N1 1_555 1_555
N1 H1 1_555 1_555
N2 Cu1 1_555 1_555
H2 N2 1_555 1_555
C1 N1 1_555 1_555
H3 C1 1_555 1_555
H4 C1 1_555 1_555
C2 N1 1_555 1_555
H5 C2 1_555 1_555
H6 C2 1_555 1_555
C3 C2 1_555 1_555
H7 C3 1_555 1_555
C4 N2 1_555 1_555
H8 C4 1_555 1_555
H9 C4 1_555 1_555
C5 N2 1_555 1_555
H10 C5 1_555 1_555
H11 C5 1_555 1_555
O6 C12 1_555 1_555
O7 C12 1_555 1_555
N3 Cu1 1_555 1_555
H12 N3 1_555 1_555
N4 Cu1 1_555 1_555
H13 N4 1_555 1_555
C7 C5 1_555 1_555
H14 C7 1_555 1_555
H15 C7 1_555 1_555
C8 N3 1_555 1_555
H16 C8 1_555 1_555
H17 C8 1_555 1_555
C9 C8 1_555 1_555
H18 C9 1_555 1_555
C10 N4 1_555 1_555
H19 C10 1_555 1_555
H20 C10 1_555 1_555
C11 C1 1_555 1_555
H21 C11 1_555 1_555
H22 C11 1_555 1_555
C12 C9 1_555 1_555
O14 Zr2_4 1_555 1_555
Zr6 O6 1_555 1_555
Zr10 O7 1_555 1_555
Zr2_4 O12 1_555 1_555
C3 C4 1_555 1_555
C3 C6 1_555 1_555
N3 C7 1_555 1_555
N4 C11 1_555 1_555
C9 C10 1_555 1_555
O12 Zr4 1_555 1_555
O13 Zr4 1_555 1_555
O3 H45 1_555 1_555
Zr8_4 O11 1_555 1_555
O11 Zr4_2 1_555 1_555
O3_2 H46 1_555 1_555
Cu1_2 N1_2 1_555 1_555
N1_2 H1_2 1_555 1_555
N2_2 Cu1_2 1_555 1_555
H2_2 N2_2 1_555 1_555
C1_2 N1_2 1_555 1_555
H3_2 C1_2 1_555 1_555
H4_2 C1_2 1_555 1_555
C2_2 N1_2 1_555 1_555
H5_2 C2_2 1_555 1_555
H6_2 C2_2 1_555 1_555
C3_2 C2_2 1_555 1_555
H7_2 C3_2 1_555 1_555
C4_2 N2_2 1_555 1_555
H8_2 C4_2 1_555 1_555
H9_2 C4_2 1_555 1_555
C5_2 N2_2 1_555 1_555
H10_2 C5_2 1_555 1_555
H11_2 C5_2 1_555 1_555
O6_2 C12_2 1_555 1_555
O7_2 C12_2 1_555 1_555
N3_2 Cu1_2 1_555 1_555
H12_2 N3_2 1_555 1_555
N4_2 Cu1_2 1_555 1_555
H13_2 N4_2 1_555 1_555
C7_2 C5_2 1_555 1_555
H14_2 C7_2 1_555 1_555
H15_2 C7_2 1_555 1_555
C8_2 N3_2 1_555 1_555
H16_2 C8_2 1_555 1_555
H17_2 C8_2 1_555 1_555
C9_2 C8_2 1_555 1_555
H18_2 C9_2 1_555 1_555
C10_2 N4_2 1_555 1_555
H19_2 C10_2 1_555 1_555
H20_2 C10_2 1_555 1_555
C11_2 C1_2 1_555 1_555
H21_2 C11_2 1_555 1_555
H22_2 C11_2 1_555 1_555
C12_2 C9_2 1_555 1_555
Zr6_2 O6_2 1_555 1_555
Zr10 O7_2 1_555 1_555
C3_2 C4_2 1_555 1_555
C3_2 C6_2 1_555 1_555
N3_2 C7_2 1_555 1_555
N4_2 C11_2 1_555 1_555
C9_2 C10_2 1_555 1_555
O13_2 Zr5 1_555 1_555
Cu2_2 N5_2 1_555 1_555
N5_2 H23_2 1_555 1_555
N6_2 Cu2_2 1_555 1_555
H24_2 N6_2 1_555 1_555
C13_2 N5_2 1_555 1_555
H25_2 C13_2 1_555 1_555
H26_2 C13_2 1_555 1_555
C14_2 N5_2 1_555 1_555
H27_2 C14_2 1_555 1_555
H28_2 C14_2 1_555 1_555
C15_2 C14_2 1_555 1_555
H29_2 C15_2 1_555 1_555
C16_2 N6_2 1_555 1_555
H30_2 C16_2 1_555 1_555
H31_2 C16_2 1_555 1_555
C17_2 N6_2 1_555 1_555
H32_2 C17_2 1_555 1_555
H33_2 C17_2 1_555 1_555
O15_2 C24_2 1_555 1_555
O16_2 C24_2 1_555 1_555
N7_2 Cu2_2 1_555 1_555
H34_2 N7_2 1_555 1_555
N8_2 Cu2_2 1_555 1_555
H35_2 N8_2 1_555 1_555
C19_2 C17_2 1_555 1_555
H36_2 C19_2 1_555 1_555
H37_2 C19_2 1_555 1_555
C20_2 N7_2 1_555 1_555
H38_2 C20_2 1_555 1_555
H39_2 C20_2 1_555 1_555
C21_2 C20_2 1_555 1_555
H40_2 C21_2 1_555 1_555
C22_2 N8_2 1_555 1_555
H41_2 C22_2 1_555 1_555
H42_2 C22_2 1_555 1_555
C23_2 C13_2 1_555 1_555
H43_2 C23_2 1_555 1_555
H44_2 C23_2 1_555 1_555
C24_2 C21_2 1_555 1_555
Zr7_2 O15_2 1_555 1_555
Zr10 O16_2 1_555 1_555
C15_2 C16_2 1_555 1_555
C15_2 C18_2 1_555 1_555
N7_2 C19_2 1_555 1_555
N8_2 C23_2 1_555 1_555
C21_2 C22_2 1_555 1_555
O9_3 Zr5 1_555 1_555
O9_4 Zr5_2 1_555 1_555
O23_2 Zr5_2 1_555 1_555
O9_4 H51_2 1_555 1_555
O9_4 H52_2 1_555 1_555
O3_3 H45_2 1_555 1_555
O3_4 H46_2 1_555 1_555
O10_3 H49_2 1_555 1_555
O10_4 H50_2 1_555 1_555
O2_3 Zr4 1_555 1_555
O2_4 Zr4_2 1_555 1_555
O22_2 Zr4_2 1_555 1_555
O2_4 H47_2 1_555 1_555
O2_4 H48_2 1_555 1_555
Zr8 O16_3 1_555 1_555
Zr6_2 O1_2 1_555 1_555
Zr2_5 O1_2 1_555 1_555
O1_2 Zr7 1_555 1_555
O2_5 Zr6_2 1_555 1_555
O3_5 Zr6_2 1_555 1_555
Cu1_3 N1_3 1_555 1_555
O4_2 Zr6_2 1_555 1_555
O5_2 Zr2_5 1_555 1_555
N1_3 H1_3 1_555 1_555
N2_3 Cu1_3 1_555 1_555
H2_3 N2_3 1_555 1_555
C1_3 N1_3 1_555 1_555
H3_3 C1_3 1_555 1_555
H4_3 C1_3 1_555 1_555
C2_3 N1_3 1_555 1_555
H5_3 C2_3 1_555 1_555
H6_3 C2_3 1_555 1_555
C3_3 C2_3 1_555 1_555
H7_3 C3_3 1_555 1_555
C4_3 N2_3 1_555 1_555
H8_3 C4_3 1_555 1_555
H9_3 C4_3 1_555 1_555
C5_3 N2_3 1_555 1_555
H10_3 C5_3 1_555 1_555
H11_3 C5_3 1_555 1_555
C6_3 O4_2 1_555 1_555
N3_3 Cu1_3 1_555 1_555
H12_3 N3_3 1_555 1_555
N4_3 Cu1_3 1_555 1_555
H13_3 N4_3 1_555 1_555
C7_3 C5_3 1_555 1_555
H14_3 C7_3 1_555 1_555
H15_3 C7_3 1_555 1_555
C8_3 N3_3 1_555 1_555
H16_3 C8_3 1_555 1_555
H17_3 C8_3 1_555 1_555
C9_3 C8_3 1_555 1_555
H18_3 C9_3 1_555 1_555
C10_3 N4_3 1_555 1_555
H19_3 C10_3 1_555 1_555
H20_3 C10_3 1_555 1_555
C11_3 C1_3 1_555 1_555
H21_3 C11_3 1_555 1_555
H22_3 C11_3 1_555 1_555
C12_3 C9_3 1_555 1_555
Zr6 O8_2 1_555 1_555
O8_2 Zr2_5 1_555 1_555
O9_5 Zr6 1_555 1_555
O10_5 Zr6 1_555 1_555
O11_2 Zr6_2 1_555 1_555
O12_2 Zr6_2 1_555 1_555
Cu2_3 N5_3 1_555 1_555
O13_3 C18_3 1_555 1_555
O14_2 Zr2_5 1_555 1_555
N5_3 H23_3 1_555 1_555
N6_3 Cu2_3 1_555 1_555
H24_3 N6_3 1_555 1_555
C13_3 N5_3 1_555 1_555
H25_3 C13_3 1_555 1_555
H26_3 C13_3 1_555 1_555
C14_3 N5_3 1_555 1_555
H27_3 C14_3 1_555 1_555
H28_3 C14_3 1_555 1_555
C15_3 C14_3 1_555 1_555
H29_3 C15_3 1_555 1_555
C16_3 N6_3 1_555 1_555
H30_3 C16_3 1_555 1_555
H31_3 C16_3 1_555 1_555
C17_3 N6_3 1_555 1_555
H32_3 C17_3 1_555 1_555
H33_3 C17_3 1_555 1_555
C18_3 O14_2 1_555 1_555
N7_3 Cu2_3 1_555 1_555
H34_3 N7_3 1_555 1_555
N8_3 Cu2_3 1_555 1_555
H35_3 N8_3 1_555 1_555
C19_3 C17_3 1_555 1_555
H36_3 C19_3 1_555 1_555
H37_3 C19_3 1_555 1_555
C20_3 N7_3 1_555 1_555
H38_3 C20_3 1_555 1_555
H39_3 C20_3 1_555 1_555
C21_3 C20_3 1_555 1_555
H40_3 C21_3 1_555 1_555
C22_3 N8_3 1_555 1_555
H41_3 C22_3 1_555 1_555
H42_3 C22_3 1_555 1_555
C23_3 C13_3 1_555 1_555
H43_3 C23_3 1_555 1_555
H44_3 C23_3 1_555 1_555
C24_3 C21_3 1_555 1_555
Zr7_2 O8_2 1_555 1_555
Zr7 O17_2 1_555 1_555
Zr10 O11_2 1_555 1_555
O17_2 Zr6 1_555 1_555
O18_2 Zr2_5 1_555 1_555
O19_2 Zr6_2 1_555 1_555
O20_2 Zr6 1_555 1_555
O21_2 Zr6 1_555 1_555
O24_2 Zr2_5 1_555 1_555
O25_2 Zr2_5 1_555 1_555
Zr2_5 O12_2 1_555 1_555
O5_2 C6_3 1_555 1_555
C3_3 C4_3 1_555 1_555
C3_3 C6_3 1_555 1_555
N3_3 C7_3 1_555 1_555
N4_3 C11_3 1_555 1_555
C9_3 C10_3 1_555 1_555
Zr6 O18_2 1_555 1_555
O11_2 Zr7_2 1_555 1_555
O12_2 Zr7_2 1_555 1_555
O13_3 Zr7_2 1_555 1_555
C15_3 C16_3 1_555 1_555
C15_3 C18_3 1_555 1_555
N7_3 C19_3 1_555 1_555
N8_3 C23_3 1_555 1_555
C21_3 C22_3 1_555 1_555
Zr7_2 O20_2 1_555 1_555
Zr7 O18_2 1_555 1_555
Zr7 O19_2 1_555 1_555
Zr10 O17_2 1_555 1_555
Zr10 O19_2 1_555 1_555
Zr10 O20_2 1_555 1_555
Zr8_2 O7_3 1_555 1_555
Zr8_3 O7_4 1_555 1_555
Cu1_4 N1_4 1_555 1_555
N1_4 H1_4 1_555 1_555
N2_4 Cu1_4 1_555 1_555
H2_4 N2_4 1_555 1_555
C1_4 N1_4 1_555 1_555
H3_4 C1_4 1_555 1_555
H4_4 C1_4 1_555 1_555
C2_4 N1_4 1_555 1_555
H5_4 C2_4 1_555 1_555
H6_4 C2_4 1_555 1_555
C3_4 C2_4 1_555 1_555
H7_4 C3_4 1_555 1_555
C4_4 N2_4 1_555 1_555
H8_4 C4_4 1_555 1_555
H9_4 C4_4 1_555 1_555
C5_4 N2_4 1_555 1_555
H10_4 C5_4 1_555 1_555
H11_4 C5_4 1_555 1_555
C6_4 O21_2 1_555 1_555
N3_4 Cu1_4 1_555 1_555
H12_4 N3_4 1_555 1_555
N4_4 Cu1_4 1_555 1_555
H13_4 N4_4 1_555 1_555
C7_4 C5_4 1_555 1_555
H14_4 C7_4 1_555 1_555
H15_4 C7_4 1_555 1_555
C8_4 N3_4 1_555 1_555
H16_4 C8_4 1_555 1_555
H17_4 C8_4 1_555 1_555
C9_4 C8_4 1_555 1_555
H18_4 C9_4 1_555 1_555
C10_4 N4_4 1_555 1_555
H19_4 C10_4 1_555 1_555
H20_4 C10_4 1_555 1_555
C11_4 C1_4 1_555 1_555
H21_4 C11_4 1_555 1_555
H22_4 C11_4 1_555 1_555
C12_4 C9_4 1_555 1_555
Cu2_4 N5_4 1_555 1_555
O13_4 C18_4 1_555 1_555
N5_4 H23_4 1_555 1_555
N6_4 Cu2_4 1_555 1_555
H24_4 N6_4 1_555 1_555
C13_4 N5_4 1_555 1_555
H25_4 C13_4 1_555 1_555
H26_4 C13_4 1_555 1_555
C14_4 N5_4 1_555 1_555
H27_4 C14_4 1_555 1_555
H28_4 C14_4 1_555 1_555
C15_4 C14_4 1_555 1_555
H29_4 C15_4 1_555 1_555
C16_4 N6_4 1_555 1_555
H30_4 C16_4 1_555 1_555
H31_4 C16_4 1_555 1_555
C17_4 N6_4 1_555 1_555
H32_4 C17_4 1_555 1_555
H33_4 C17_4 1_555 1_555
C18_4 O25_2 1_555 1_555
N7_4 Cu2_4 1_555 1_555
H34_4 N7_4 1_555 1_555
N8_4 Cu2_4 1_555 1_555
H35_4 N8_4 1_555 1_555
C19_4 C17_4 1_555 1_555
H36_4 C19_4 1_555 1_555
H37_4 C19_4 1_555 1_555
C20_4 N7_4 1_555 1_555
H38_4 C20_4 1_555 1_555
H39_4 C20_4 1_555 1_555
C21_4 C20_4 1_555 1_555
H40_4 C21_4 1_555 1_555
C22_4 N8_4 1_555 1_555
H41_4 C22_4 1_555 1_555
H42_4 C22_4 1_555 1_555
C23_4 C13_4 1_555 1_555
H43_4 C23_4 1_555 1_555
H44_4 C23_4 1_555 1_555
C24_4 C21_4 1_555 1_555
O24_2 C6_4 1_555 1_555
C3_4 C4_4 1_555 1_555
C3_4 C6_4 1_555 1_555
N3_4 C7_4 1_555 1_555
N4_4 C11_4 1_555 1_555
C9_4 C10_4 1_555 1_555
O13_4 Zr7 1_555 1_555
C15_4 C16_4 1_555 1_555
C15_4 C18_4 1_555 1_555
N7_4 C19_4 1_555 1_555
N8_4 C23_4 1_555 1_555
C21_4 C22_4 1_555 1_555
Zr8_4 O16_4 1_555 1_555
O2_6 Zr7_2 1_555 1_555
O3_6 Zr7_2 1_555 1_555
O9_6 Zr7 1_555 1_555
O10_6 Zr7 1_555 1_555
O10 H46_3 1_555 1_555
O10_2 H45_3 1_555 1_555
O9 H47_3 1_555 1_555
O9 H48_3 1_555 1_555
O2 H51_3 1_555 1_555
O2 H52_3 1_555 1_555
O3 H50_3 1_555 1_555
O3_2 H49_3 1_555 1_555
O9_3 H47_4 1_555 1_555
O9_3 H48_4 1_555 1_555
O3_3 H50_4 1_555 1_555
O3_4 H49_4 1_555 1_555
O10_3 H46_4 1_555 1_555
O10_4 H45_4 1_555 1_555
O2_3 H51_4 1_555 1_555
O2_3 H52_4 1_555 1_555

#END
