
###############################################################################
#
# This file contains modified crystal structure data generated from the
# MOF subset of the Cambridge Structural Database (CSD) v543 
# hosted by the Cambridge Crystallographic Data Centre (CCDC).
#
# This work is licensed under the Creative Commons
# Attribution-NonCommercial-ShareAlike 4.0 International License.
# To view a copy of this license, visit
# http://creativecommons.org/licenses/by-nc-sa/4.0/
# or send a letter to
# Creative Commons, PO Box 1866, Mountain View, CA 94042, USA.
#
# CIF created using the CSD Python API on 29 September 2022
# The structure has been converted into the P1 space group
# The structure has a 3D framework
# The original CSD entry YEVKAO is in the tetragonal crystal system
# The framework has been calculated to contain at least 10.0% void space
# The void calculation uses a probe of radius 1.32A, grid spacing 0.4
# The framework is charged, counterions have been retained in the structure
# H atom positions have been added when not included in the experimental data
#
###############################################################################

data_YEVKAO
_chemical_formula_moiety         '(C56 H64 Cu2 N16 2+)n'
_symmetry_cell_setting           triclinic
_symmetry_space_group_name_H-M   'P 1'
_symmetry_Int_Tables_number      1
_space_group_name_Hall           'P 1'
loop_
_symmetry_equiv_pos_site_id
_symmetry_equiv_pos_as_xyz
1 x,y,z
_cell_length_a                   7.4611(2)
_cell_length_b                   7.4611(2)
_cell_length_c                   21.7122(7)
_cell_angle_alpha                90
_cell_angle_beta                 90
_cell_angle_gamma                90
_cell_volume                     1208.68
loop_
_atom_site_label
_atom_site_type_symbol
_atom_site_fract_x
_atom_site_fract_y
_atom_site_fract_z
Cu1 Cu 0.5000 0.5000 0.2500
N1 N 0.2873(5) 0.5000 0.19567(15)
C1 C 0.1578(6) 0.5000 0.16665(15)
C2 C -0.0000 0.5000 0.1337(3)
C3 C -0.0000 0.5000 0.0661(2)
C4 C 0.1583(5) 0.5000 0.03180(18)
H1 H 0.2674 0.5000 0.0525
N5 N 0.7127(5) 0.5000 0.19567(15)
N6 N 0.5000 0.2873(5) 0.30433(15)
N7 N 0.5000 0.7127(5) 0.30433(15)
N3 N 0.2873(5) 0.5000 0.80433(15)
C7 C 0.1578(6) 0.5000 0.83335(15)
C8 C -0.0000 0.5000 0.8663(3)
C9 C -0.0000 0.5000 0.9339(2)
C10 C 0.1583(5) 0.5000 0.96820(18)
H3 H 0.2674 0.5000 0.9475
Cu4 Cu 0.5000 0.5000 0.7500
C2_2 C 1.0000 0.5000 0.1337(3)
C3_2 C 1.0000 0.5000 0.0661(2)
C5 C 0.8422(6) 0.5000 0.16665(15)
C6 C 0.8417(5) 0.5000 0.03180(18)
H2 H 0.7326 0.5000 0.0525
C8_2 C 1.0000 0.5000 0.8663(3)
C9_2 C 1.0000 0.5000 0.9339(2)
N4 N 0.7127(5) 0.5000 0.80433(15)
C11 C 0.8422(6) 0.5000 0.83335(15)
C12 C 0.8417(5) 0.5000 0.96820(18)
H4 H 0.7326 0.5000 0.9475
N1_2 N 0.5000 0.2873(5) 0.69567(15)
C1_2 C 0.5000 0.1578(6) 0.66665(15)
C2_3 C 0.5000 0.0000 0.6337(3)
C3_3 C 0.5000 -0.0000 0.5661(2)
C4_2 C 0.5000 0.1583(5) 0.53180(18)
H1_2 H 0.5000 0.2674 0.5525
C7_2 C 0.5000 0.1578(6) 0.33335(15)
C8_3 C 0.5000 -0.0000 0.3663(3)
C9_3 C 0.5000 -0.0000 0.4339(2)
C10_2 C 0.5000 0.1583(5) 0.46820(18)
H3_2 H 0.5000 0.2674 0.4475
N5_2 N 0.5000 0.7127(5) 0.69567(15)
C2_4 C 0.5000 1.0000 0.6337(3)
C3_4 C 0.5000 1.0000 0.5661(2)
C5_2 C 0.5000 0.8422(6) 0.66665(15)
C6_2 C 0.5000 0.8417(5) 0.53180(18)
H2_2 H 0.5000 0.7326 0.5525
C8_4 C 0.5000 1.0000 0.3663(3)
C9_4 C 0.5000 1.0000 0.4339(2)
C11_2 C 0.5000 0.8422(6) 0.33335(15)
C12_2 C 0.5000 0.8417(5) 0.46820(18)
H4_2 H 0.5000 0.7326 0.4475
N8 N 0.5000 -0.0000 0.1357(7)
C13 C 0.5000 0.1605(3) 0.0969(5)
H5 H 0.5000 0.2605 0.1247
H6 H 0.6051 0.1654 0.0714
C14 C 0.3394(3) -0.0000 0.1750(5)
C16 C 0.6606(3) -0.0000 0.1750(5)
H9 H 0.3949 0.1654 0.0714
H11 H 0.660096 0.11895 0.204065
H13 H 0.780053 0.000445504 0.146179
H14 H 0.219947 0.000445504 0.146179
H16 H 0.339904 0.11895 0.204065
N8_2 N 0.5000 1.0000 0.1357(7)
C14_2 C 0.3394(3) 1.0000 0.1750(5)
C15 C 0.5000 0.8395(3) 0.0969(5)
H7 H 0.5000 0.7395 0.1247
H8 H 0.3949 0.8346 0.0714
C16_2 C 0.6606(3) 1.0000 0.1750(5)
H10 H 0.6051 0.8346 0.0714
H12 H 0.660544 0.880604 0.203849
H15 H 0.339456 0.880604 0.203849
H13_2 H 0.219947 0.999554 0.146179
H14_2 H 0.780053 0.999554 0.146179
N8_3 N 0.0000 0.5000 0.6357(7)
C14_3 C 0.0000 0.3394(3) 0.6750(5)
C15_2 C 0.1605(3) 0.5000 0.5969(5)
H7_2 H 0.2605 0.5000 0.6247
H8_2 H 0.1654 0.3949 0.5714
C16_3 C 0.0000 0.6606(3) 0.6750(5)
H10_2 H 0.1654 0.6051 0.5714
H12_2 H 0.119396 0.660544 0.703849
H15_2 H 0.119396 0.339456 0.703849
H13_3 H 0.000445504 0.219947 0.646179
H14_3 H 0.000445504 0.780053 0.646179
N8_4 N 1.0000 0.5000 0.6357(7)
C13_2 C 0.8395(3) 0.5000 0.5969(5)
H5_2 H 0.7395 0.5000 0.6247
H6_2 H 0.8346 0.6051 0.5714
C14_4 C 1.0000 0.3394(3) 0.6750(5)
C16_4 C 1.0000 0.6606(3) 0.6750(5)
H9_2 H 0.8346 0.3949 0.5714
H11_2 H 0.88105 0.660096 0.704065
H13_4 H 0.999554 0.780053 0.646179
H14_4 H 0.999554 0.219947 0.646179
H16_2 H 0.88105 0.339904 0.704065
N8_5 N 0.5000 0.0000 0.8643(7)
C14_5 C 0.3394(3) 0.0000 0.8250(5)
C15_3 C 0.5000 0.1605(3) 0.9031(5)
H7_3 H 0.5000 0.2605 0.8753
H8_3 H 0.3949 0.1654 0.9286
C16_5 C 0.6606(3) 0.0000 0.8250(5)
H10_3 H 0.6051 0.1654 0.9286
H12_3 H 0.660544 0.119396 0.796151
H15_3 H 0.339456 0.119396 0.796151
H13_5 H 0.219947 0.000445504 0.853821
H14_5 H 0.780053 0.000445504 0.853821
N8_6 N 0.5000 1.0000 0.8643(7)
C13_3 C 0.5000 0.8395(3) 0.9031(5)
H5_3 H 0.5000 0.7395 0.8753
H6_3 H 0.6051 0.8346 0.9286
C14_6 C 0.3394(3) 1.0000 0.8250(5)
C16_6 C 0.6606(3) 1.0000 0.8250(5)
H9_3 H 0.3949 0.8346 0.9286
H11_3 H 0.660096 0.88105 0.795935
H13_6 H 0.780053 0.999554 0.853821
H14_6 H 0.219947 0.999554 0.853821
H16_3 H 0.339904 0.88105 0.795935
N8_7 N -0.0000 0.5000 0.3643(7)
C13_4 C 0.1605(3) 0.5000 0.4031(5)
H5_4 H 0.2605 0.5000 0.3753
H6_4 H 0.1654 0.6051 0.4286
C14_7 C -0.0000 0.3394(3) 0.3250(5)
C16_7 C 0.0000 0.6606(3) 0.3250(5)
H9_4 H 0.1654 0.3949 0.4286
H11_4 H 0.11895 0.660096 0.295935
H13_7 H 0.000445504 0.780053 0.353821
H14_7 H 0.000445504 0.219947 0.353821
H16_4 H 0.11895 0.339904 0.295935
N8_8 N 1.0000 0.5000 0.3643(7)
C14_8 C 1.0000 0.3394(3) 0.3250(5)
C15_4 C 0.8395(3) 0.5000 0.4031(5)
H7_4 H 0.7395 0.5000 0.3753
H8_4 H 0.8346 0.3949 0.4286
C16_8 C 1.0000 0.6606(3) 0.3250(5)
H10_4 H 0.8346 0.6051 0.4286
H12_4 H 0.880604 0.660544 0.296151
H15_4 H 0.880604 0.339456 0.296151
H13_8 H 0.999554 0.219947 0.353821
H14_8 H 0.999554 0.780053 0.353821
loop_
_geom_bond_atom_site_label_1
_geom_bond_atom_site_label_2
_geom_bond_site_symmetry_1
_geom_bond_site_symmetry_2
Cu1 N1 1_555 1_555
N1 C1 1_555 1_555
C1 C2 1_555 1_555
C2 C3 1_555 1_555
C3 C4 1_555 1_555
C4 H1 1_555 1_555
N5 Cu1 1_555 1_555
N6 Cu1 1_555 1_555
N7 Cu1 1_555 1_555
N3 C7 1_555 1_555
C7 C8 1_555 1_555
C8 C9 1_555 1_555
C9 C10 1_555 1_555
H3 C10 1_555 1_555
Cu4 N3 1_555 1_555
C2_2 C3_2 1_555 1_555
N5 C5 1_555 1_555
C5 C2_2 1_555 1_555
C6 C3_2 1_555 1_555
H2 C6 1_555 1_555
C8_2 C9_2 1_555 1_555
N4 C11 1_555 1_555
C11 C8_2 1_555 1_555
H4 C12 1_555 1_555
Cu4 N4 1_555 1_555
C9_2 C12 1_555 1_555
Cu4 N1_2 1_555 1_555
N1_2 C1_2 1_555 1_555
C1_2 C2_3 1_555 1_555
C2_3 C3_3 1_555 1_555
C3_3 C4_2 1_555 1_555
C4_2 H1_2 1_555 1_555
N6 C7_2 1_555 1_555
C7_2 C8_3 1_555 1_555
C8_3 C9_3 1_555 1_555
C9_3 C10_2 1_555 1_555
C10_2 C4_2 1_555 1_555
H3_2 C10_2 1_555 1_555
N5_2 Cu4 1_555 1_555
C2_4 C3_4 1_555 1_555
N5_2 C5_2 1_555 1_555
C5_2 C2_4 1_555 1_555
C6_2 C3_4 1_555 1_555
H2_2 C6_2 1_555 1_555
C8_4 C9_4 1_555 1_555
N7 C11_2 1_555 1_555
C11_2 C8_4 1_555 1_555
C12_2 C6_2 1_555 1_555
H4_2 C12_2 1_555 1_555
C9_4 C12_2 1_555 1_555
N8 C13 1_555 1_555
C13 H5 1_555 1_555
H6 C13 1_555 1_555
C14 N8 1_555 1_555
C16 N8 1_555 1_555
H9 C13 1_555 1_555
C16 H11 1_555 1_555
C16 H13 1_555 1_555
C14 H14 1_555 1_555
C14 H16 1_555 1_555
C14_2 N8_2 1_555 1_555
C15 N8_2 1_555 1_555
H7 C15 1_555 1_555
H8 C15 1_555 1_555
C16_2 N8_2 1_555 1_555
H10 C15 1_555 1_555
C16_2 H12 1_555 1_555
C14_2 H15 1_555 1_555
C14_2 H13_2 1_555 1_555
C16_2 H14_2 1_555 1_555
C14_3 N8_3 1_555 1_555
C15_2 N8_3 1_555 1_555
H7_2 C15_2 1_555 1_555
H8_2 C15_2 1_555 1_555
C16_3 N8_3 1_555 1_555
H10_2 C15_2 1_555 1_555
C16_3 H12_2 1_555 1_555
C14_3 H15_2 1_555 1_555
C14_3 H13_3 1_555 1_555
C16_3 H14_3 1_555 1_555
N8_4 C13_2 1_555 1_555
C13_2 H5_2 1_555 1_555
H6_2 C13_2 1_555 1_555
C14_4 N8_4 1_555 1_555
C16_4 N8_4 1_555 1_555
H9_2 C13_2 1_555 1_555
C16_4 H11_2 1_555 1_555
C16_4 H13_4 1_555 1_555
C14_4 H14_4 1_555 1_555
C14_4 H16_2 1_555 1_555
C14_5 N8_5 1_555 1_555
C15_3 N8_5 1_555 1_555
H7_3 C15_3 1_555 1_555
H8_3 C15_3 1_555 1_555
C16_5 N8_5 1_555 1_555
H10_3 C15_3 1_555 1_555
C16_5 H12_3 1_555 1_555
C14_5 H15_3 1_555 1_555
C14_5 H13_5 1_555 1_555
C16_5 H14_5 1_555 1_555
N8_6 C13_3 1_555 1_555
C13_3 H5_3 1_555 1_555
H6_3 C13_3 1_555 1_555
C14_6 N8_6 1_555 1_555
C16_6 N8_6 1_555 1_555
H9_3 C13_3 1_555 1_555
C16_6 H11_3 1_555 1_555
C16_6 H13_6 1_555 1_555
C14_6 H14_6 1_555 1_555
C14_6 H16_3 1_555 1_555
N8_7 C13_4 1_555 1_555
C13_4 H5_4 1_555 1_555
H6_4 C13_4 1_555 1_555
C14_7 N8_7 1_555 1_555
C16_7 N8_7 1_555 1_555
H9_4 C13_4 1_555 1_555
C16_7 H11_4 1_555 1_555
C16_7 H13_7 1_555 1_555
C14_7 H14_7 1_555 1_555
C14_7 H16_4 1_555 1_555
C14_8 N8_8 1_555 1_555
C15_4 N8_8 1_555 1_555
H7_4 C15_4 1_555 1_555
H8_4 C15_4 1_555 1_555
C16_8 N8_8 1_555 1_555
H10_4 C15_4 1_555 1_555
C16_8 H12_4 1_555 1_555
C14_8 H15_4 1_555 1_555
C14_8 H13_8 1_555 1_555
C16_8 H14_8 1_555 1_555

#END
