
###############################################################################
#
# This file contains modified crystal structure data generated from the
# MOF subset of the Cambridge Structural Database (CSD) v543 
# hosted by the Cambridge Crystallographic Data Centre (CCDC).
#
# This work is licensed under the Creative Commons
# Attribution-NonCommercial-ShareAlike 4.0 International License.
# To view a copy of this license, visit
# http://creativecommons.org/licenses/by-nc-sa/4.0/
# or send a letter to
# Creative Commons, PO Box 1866, Mountain View, CA 94042, USA.
#
# CIF created using the CSD Python API on 29 September 2022
# The structure has been converted into the P1 space group
# The structure has a 3D framework
# The original CSD entry YEVQOG is in the cubic crystal system
# The framework has been calculated to contain at least 10.0% void space
# The void calculation uses a probe of radius 1.32A, grid spacing 0.4
#
###############################################################################

data_YEVQOG
_chemical_formula_moiety         '(C480 H576 Ag84 N192)n'
_symmetry_cell_setting           triclinic
_symmetry_space_group_name_H-M   'P 1'
_symmetry_Int_Tables_number      1
_space_group_name_Hall           'P 1'
loop_
_symmetry_equiv_pos_site_id
_symmetry_equiv_pos_as_xyz
1 x,y,z
_cell_length_a                   27.147(2)
_cell_length_b                   27.147(2)
_cell_length_c                   27.147(2)
_cell_angle_alpha                90
_cell_angle_beta                 90
_cell_angle_gamma                90
_cell_volume                     20006.2
loop_
_atom_site_label
_atom_site_type_symbol
_atom_site_fract_x
_atom_site_fract_y
_atom_site_fract_z
Ag1 Ag 0.31585(4) 0.26411(4) 0.71981(4)
Ag2 Ag 0.52975(4) 0.47864(4) 0.88555(4)
N1 N 0.3289(4) 0.3170(4) 0.7714(4)
N2 N 0.2977(4) 0.3229(4) 0.8112(4)
N3 N 0.4762(4) 0.4261(4) 0.8798(4)
N4 N 0.4716(4) 0.3887(4) 0.9137(4)
C1 C 0.4147(5) 0.3389(7) 0.7469(5)
H1 H 0.4448 0.3482 0.7638
H2 H 0.4072 0.3631 0.7217
H3 H 0.4190 0.3069 0.7317
C2 C 0.3733(6) 0.3367(5) 0.7831(5)
C3 C 0.3705(5) 0.3576(5) 0.8309(5)
C4 C 0.3238(6) 0.3489(5) 0.8447(5)
C5 C 0.3000(6) 0.3585(6) 0.8961(6)
H4 H 0.3244 0.3729 0.9179
H5 H 0.2884 0.3277 0.9098
H6 H 0.2725 0.3810 0.8924
C6 C 0.4331(5) 0.4566(5) 0.8053(5)
H7 H 0.4392 0.4899 0.8168
H8 H 0.4000 0.4543 0.7922
H9 H 0.4567 0.4483 0.7797
C7 C 0.4387(5) 0.4214(5) 0.8473(5)
C8 C 0.4120(5) 0.3807(5) 0.8595(6)
C9 C 0.4331(6) 0.3623(5) 0.9008(5)
C10 C 0.4211(7) 0.3183(6) 0.9300(6)
H10 H 0.4151 0.3277 0.9639
H11 H 0.4485 0.2954 0.9287
H12 H 0.3919 0.3027 0.9166
Ag3 Ag 0.23589(4) 0.28019(4) 0.81585(4)
Ag4 Ag 0.52136(4) 0.38555(4) 0.97025(4)
N5 N 0.3112(4) 0.2023(4) 0.6771(4)
N6 N 0.5863(4) 0.5284(4) 0.8887(4)
Ag1_2 Ag 0.18415(4) 0.73589(4) 0.21981(4)
N1_2 N 0.1711(4) 0.6830(4) 0.2714(4)
N2_2 N 0.2023(4) 0.6771(4) 0.3112(4)
N3_2 N 0.0238(4) 0.5739(4) 0.3798(4)
N4_2 N 0.0284(4) 0.6113(4) 0.4137(4)
C1_2 C 0.0853(5) 0.6611(7) 0.2469(5)
H1_2 H 0.0552 0.6518 0.2638
H2_2 H 0.0928 0.6369 0.2217
H3_2 H 0.0810 0.6931 0.2317
C2_2 C 0.1267(6) 0.6633(5) 0.2831(5)
C3_2 C 0.1295(5) 0.6424(5) 0.3309(5)
C4_2 C 0.1762(6) 0.6511(5) 0.3447(5)
C5_2 C 0.2000(6) 0.6415(6) 0.3961(6)
H4_2 H 0.1756 0.6271 0.4179
H5_2 H 0.2116 0.6723 0.4098
H6_2 H 0.2275 0.6190 0.3924
C6_2 C 0.0669(5) 0.5434(5) 0.3053(5)
H7_2 H 0.0608 0.5101 0.3168
H8_2 H 0.1000 0.5457 0.2922
H9_2 H 0.0433 0.5517 0.2797
C7_2 C 0.0613(5) 0.5786(5) 0.3473(5)
C8_2 C 0.0880(5) 0.6193(5) 0.3595(6)
C9_2 C 0.0669(6) 0.6377(5) 0.4008(5)
C10_2 C 0.0789(7) 0.6817(6) 0.4300(6)
H10_2 H 0.0849 0.6723 0.4639
H11_2 H 0.0515 0.7046 0.4287
H12_2 H 0.1081 0.6973 0.4166
Ag3_2 Ag 0.26411(4) 0.71981(4) 0.31585(4)
N5_2 N 0.1888(4) 0.7977(4) 0.1771(4)
Ag2_2 Ag 0.97025(4) 0.52136(4) 0.38555(4)
Ag4_2 Ag 0.97864(4) 0.61445(4) 0.47025(4)
N6_2 N 0.9137(4) 0.4716(4) 0.3887(4)
N6_3 N 0.4137(4) 0.0284(4) 0.6113(4)
Ag1_3 Ag 0.68415(4) 0.76411(4) 0.78019(4)
Ag2_3 Ag 0.47025(4) 0.97864(4) 0.61445(4)
N1_3 N 0.6711(4) 0.8170(4) 0.7286(4)
N2_3 N 0.7023(4) 0.8229(4) 0.6888(4)
N3_3 N 0.5238(4) 0.9261(4) 0.6202(4)
N4_3 N 0.5284(4) 0.8887(4) 0.5863(4)
C1_3 C 0.5853(5) 0.8389(7) 0.7531(5)
H1_3 H 0.5552 0.8482 0.7362
H2_3 H 0.5928 0.8631 0.7783
H3_3 H 0.5810 0.8069 0.7683
C2_3 C 0.6267(6) 0.8367(5) 0.7169(5)
C3_3 C 0.6295(5) 0.8576(5) 0.6691(5)
C4_3 C 0.6762(6) 0.8489(5) 0.6553(5)
C5_3 C 0.7000(6) 0.8585(6) 0.6039(6)
H4_3 H 0.6756 0.8729 0.5821
H5_3 H 0.7116 0.8277 0.5902
H6_3 H 0.7275 0.8810 0.6076
C6_3 C 0.5669(5) 0.9566(5) 0.6947(5)
H7_3 H 0.5608 0.9899 0.6832
H8_3 H 0.6000 0.9543 0.7078
H9_3 H 0.5433 0.9483 0.7203
C7_3 C 0.5613(5) 0.9214(5) 0.6527(5)
C8_3 C 0.5880(5) 0.8807(5) 0.6405(6)
C9_3 C 0.5669(6) 0.8623(5) 0.5992(5)
C10_3 C 0.5789(7) 0.8183(6) 0.5700(6)
H10_3 H 0.5849 0.8277 0.5361
H11_3 H 0.5515 0.7954 0.5713
H12_3 H 0.6081 0.8027 0.5834
Ag3_3 Ag 0.76411(4) 0.78019(4) 0.68415(4)
Ag4_3 Ag 0.47864(4) 0.88555(4) 0.52975(4)
N5_3 N 0.6888(4) 0.7023(4) 0.8229(4)
N6_4 N 0.0863(4) 0.9716(4) 0.1113(4)
Ag1_4 Ag 0.81585(4) 0.23589(4) 0.28019(4)
N1_4 N 0.8289(4) 0.1830(4) 0.2286(4)
N2_4 N 0.7977(4) 0.1771(4) 0.1888(4)
N3_4 N 0.9762(4) 0.0739(4) 0.1202(4)
N4_4 N 0.9716(4) 0.1113(4) 0.0863(4)
C1_4 C 0.9147(5) 0.1611(7) 0.2531(5)
H1_4 H 0.9448 0.1518 0.2362
H2_4 H 0.9072 0.1369 0.2783
H3_4 H 0.9190 0.1931 0.2683
C2_4 C 0.8733(6) 0.1633(5) 0.2169(5)
C3_4 C 0.8705(5) 0.1424(5) 0.1691(5)
C4_4 C 0.8238(6) 0.1511(5) 0.1553(5)
C5_4 C 0.8000(6) 0.1415(6) 0.1039(6)
H4_4 H 0.8244 0.1271 0.0821
H5_4 H 0.7884 0.1723 0.0902
H6_4 H 0.7725 0.1190 0.1076
C6_4 C 0.9331(5) 0.0434(5) 0.1947(5)
H7_4 H 0.9392 0.0101 0.1832
H8_4 H 0.9000 0.0457 0.2078
H9_4 H 0.9567 0.0517 0.2203
C7_4 C 0.9387(5) 0.0786(5) 0.1527(5)
C8_4 C 0.9120(5) 0.1193(5) 0.1405(6)
C9_4 C 0.9331(6) 0.1377(5) 0.0992(5)
C10_4 C 0.9211(7) 0.1817(6) 0.0700(6)
H10_4 H 0.9151 0.1723 0.0361
H11_4 H 0.9485 0.2046 0.0713
H12_4 H 0.8919 0.1973 0.0834
Ag3_4 Ag 0.73589(4) 0.21981(4) 0.18415(4)
N5_4 N 0.8112(4) 0.2977(4) 0.3229(4)
Ag1_5 Ag 0.71981(4) 0.31585(4) 0.26411(4)
Ag2_4 Ag 0.88555(4) 0.52975(4) 0.47864(4)
N1_5 N 0.7714(4) 0.3289(4) 0.3170(4)
N3_5 N 0.8798(4) 0.4762(4) 0.4261(4)
C1_5 C 0.7469(5) 0.4147(5) 0.3389(7)
H1_5 H 0.7638 0.4448 0.3482
H2_5 H 0.7217 0.4072 0.3631
H3_5 H 0.7317 0.4190 0.3069
C2_5 C 0.7831(5) 0.3733(6) 0.3367(5)
C3_5 C 0.8309(5) 0.3705(5) 0.3576(5)
C4_5 C 0.8447(5) 0.3238(6) 0.3489(5)
C5_5 C 0.8961(6) 0.3000(6) 0.3585(6)
H4_5 H 0.9179 0.3244 0.3729
H5_5 H 0.9098 0.2884 0.3277
H6_5 H 0.8924 0.2725 0.3810
C6_5 C 0.8053(5) 0.4331(5) 0.4566(5)
H7_5 H 0.8168 0.4392 0.4899
H8_5 H 0.7922 0.4000 0.4543
H9_5 H 0.7797 0.4567 0.4483
C7_5 C 0.8473(5) 0.4387(5) 0.4214(5)
C8_5 C 0.8595(6) 0.4120(5) 0.3807(5)
C9_5 C 0.9008(5) 0.4331(6) 0.3623(5)
C10_5 C 0.9300(6) 0.4211(7) 0.3183(6)
H10_5 H 0.9639 0.4151 0.3277
H11_5 H 0.9287 0.4485 0.2954
H12_5 H 0.9166 0.3919 0.3027
N5_5 N 0.6771(4) 0.3112(4) 0.2023(4)
N6_5 N 0.8887(4) 0.5863(4) 0.5284(4)
Ag1_6 Ag 0.21981(4) 0.18415(4) 0.73589(4)
N1_6 N 0.2714(4) 0.1711(4) 0.6830(4)
N3_6 N 0.3798(4) 0.0238(4) 0.5739(4)
C1_6 C 0.2469(5) 0.0853(5) 0.6611(7)
H1_6 H 0.2638 0.0552 0.6518
H2_6 H 0.2217 0.0928 0.6369
H3_6 H 0.2317 0.0810 0.6931
C2_6 C 0.2831(5) 0.1267(6) 0.6633(5)
C3_6 C 0.3309(5) 0.1295(5) 0.6424(5)
C4_6 C 0.3447(5) 0.1762(6) 0.6511(5)
C5_6 C 0.3961(6) 0.2000(6) 0.6415(6)
H4_6 H 0.4179 0.1756 0.6271
H5_6 H 0.4098 0.2116 0.6723
H6_6 H 0.3924 0.2275 0.6190
C6_6 C 0.3053(5) 0.0669(5) 0.5434(5)
H7_6 H 0.3168 0.0608 0.5101
H8_6 H 0.2922 0.1000 0.5457
H9_6 H 0.2797 0.0433 0.5517
C7_6 C 0.3473(5) 0.0613(5) 0.5786(5)
C8_6 C 0.3595(6) 0.0880(5) 0.6193(5)
C9_6 C 0.4008(5) 0.0669(6) 0.6377(5)
C10_6 C 0.4300(6) 0.0789(7) 0.6817(6)
H10_6 H 0.4639 0.0849 0.6723
H11_6 H 0.4287 0.0515 0.7046
H12_6 H 0.4166 0.1081 0.6973
N5_6 N 0.1771(4) 0.1888(4) 0.7977(4)
Ag2_5 Ag 0.38555(4) 0.97025(4) 0.52136(4)
N6_6 N 0.3887(4) 0.9137(4) 0.4716(4)
N6_7 N 0.6113(4) 0.4137(4) 0.0284(4)
Ag1_7 Ag 0.78019(4) 0.68415(4) 0.76411(4)
Ag2_6 Ag 0.61445(4) 0.47025(4) 0.97864(4)
N1_7 N 0.7286(4) 0.6711(4) 0.8170(4)
N3_7 N 0.6202(4) 0.5238(4) 0.9261(4)
C1_7 C 0.7531(5) 0.5853(5) 0.8389(7)
H1_7 H 0.7362 0.5552 0.8482
H2_7 H 0.7783 0.5928 0.8631
H3_7 H 0.7683 0.5810 0.8069
C2_7 C 0.7169(5) 0.6267(6) 0.8367(5)
C3_7 C 0.6691(5) 0.6295(5) 0.8576(5)
C4_7 C 0.6553(5) 0.6762(6) 0.8489(5)
C5_7 C 0.6039(6) 0.7000(6) 0.8585(6)
H4_7 H 0.5821 0.6756 0.8729
H5_7 H 0.5902 0.7116 0.8277
H6_7 H 0.6076 0.7275 0.8810
C6_7 C 0.6947(5) 0.5669(5) 0.9566(5)
H7_7 H 0.6832 0.5608 0.9899
H8_7 H 0.7078 0.6000 0.9543
H9_7 H 0.7203 0.5433 0.9483
C7_7 C 0.6527(5) 0.5613(5) 0.9214(5)
C8_7 C 0.6405(6) 0.5880(5) 0.8807(5)
C9_7 C 0.5992(5) 0.5669(6) 0.8623(5)
C10_7 C 0.5700(6) 0.5789(7) 0.8183(6)
H10_7 H 0.5361 0.5849 0.8277
H11_7 H 0.5713 0.5515 0.7954
H12_7 H 0.5834 0.6081 0.8027
N5_7 N 0.8229(4) 0.6888(4) 0.7023(4)
N6_8 N 0.1113(4) 0.0863(4) 0.9716(4)
Ag1_8 Ag 0.28019(4) 0.81585(4) 0.23589(4)
N1_8 N 0.2286(4) 0.8289(4) 0.1830(4)
N3_8 N 0.1202(4) 0.9762(4) 0.0739(4)
C1_8 C 0.2531(5) 0.9147(5) 0.1611(7)
H1_8 H 0.2362 0.9448 0.1518
H2_8 H 0.2783 0.9072 0.1369
H3_8 H 0.2683 0.9190 0.1931
C2_8 C 0.2169(5) 0.8733(6) 0.1633(5)
C3_8 C 0.1691(5) 0.8705(5) 0.1424(5)
C4_8 C 0.1553(5) 0.8238(6) 0.1511(5)
C5_8 C 0.1039(6) 0.8000(6) 0.1415(6)
H4_8 H 0.0821 0.8244 0.1271
H5_8 H 0.0902 0.7884 0.1723
H6_8 H 0.1076 0.7725 0.1190
C6_8 C 0.1947(5) 0.9331(5) 0.0434(5)
H7_8 H 0.1832 0.9392 0.0101
H8_8 H 0.2078 0.9000 0.0457
H9_8 H 0.2203 0.9567 0.0517
C7_8 C 0.1527(5) 0.9387(5) 0.0786(5)
C8_8 C 0.1405(6) 0.9120(5) 0.1193(5)
C9_8 C 0.0992(5) 0.9331(6) 0.1377(5)
C10_8 C 0.0700(6) 0.9211(7) 0.1817(6)
H10_8 H 0.0361 0.9151 0.1723
H11_8 H 0.0713 0.9485 0.2046
H12_8 H 0.0834 0.8919 0.1973
N5_8 N 0.3229(4) 0.8112(4) 0.2977(4)
N1_9 N 0.3170(4) 0.7714(4) 0.3289(4)
N3_9 N 0.4261(4) 0.8798(4) 0.4762(4)
C1_9 C 0.3389(7) 0.7469(5) 0.4147(5)
H1_9 H 0.3482 0.7638 0.4448
H2_9 H 0.3631 0.7217 0.4072
H3_9 H 0.3069 0.7317 0.4190
C2_9 C 0.3367(5) 0.7831(5) 0.3733(6)
C3_9 C 0.3576(5) 0.8309(5) 0.3705(5)
C4_9 C 0.3489(5) 0.8447(5) 0.3238(6)
C5_9 C 0.3585(6) 0.8961(6) 0.3000(6)
H4_9 H 0.3729 0.9179 0.3244
H5_9 H 0.3277 0.9098 0.2884
H6_9 H 0.3810 0.8924 0.2725
C6_9 C 0.4566(5) 0.8053(5) 0.4331(5)
H7_9 H 0.4899 0.8168 0.4392
H8_9 H 0.4543 0.7922 0.4000
H9_9 H 0.4483 0.7797 0.4567
C7_9 C 0.4214(5) 0.8473(5) 0.4387(5)
C8_9 C 0.3807(5) 0.8595(6) 0.4120(5)
C9_9 C 0.3623(5) 0.9008(5) 0.4331(6)
C10_9 C 0.3183(6) 0.9300(6) 0.4211(7)
H10_9 H 0.3277 0.9639 0.4151
H11_9 H 0.2954 0.9287 0.4485
H12_9 H 0.3027 0.9166 0.3919
N1_10 N 0.6830(4) 0.2714(4) 0.1711(4)
N3_10 N 0.5739(4) 0.3798(4) 0.0238(4)
C1_10 C 0.6611(7) 0.2469(5) 0.0853(5)
H1_10 H 0.6518 0.2638 0.0552
H2_10 H 0.6369 0.2217 0.0928
H3_10 H 0.6931 0.2317 0.0810
C2_10 C 0.6633(5) 0.2831(5) 0.1267(6)
C3_10 C 0.6424(5) 0.3309(5) 0.1295(5)
C4_10 C 0.6511(5) 0.3447(5) 0.1762(6)
C5_10 C 0.6415(6) 0.3961(6) 0.2000(6)
H4_10 H 0.6271 0.4179 0.1756
H5_10 H 0.6723 0.4098 0.2116
H6_10 H 0.6190 0.3924 0.2275
C6_10 C 0.5434(5) 0.3053(5) 0.0669(5)
H7_10 H 0.5101 0.3168 0.0608
H8_10 H 0.5457 0.2922 0.1000
H9_10 H 0.5517 0.2797 0.0433
C7_10 C 0.5786(5) 0.3473(5) 0.0613(5)
C8_10 C 0.6193(5) 0.3595(6) 0.0880(5)
C9_10 C 0.6377(5) 0.4008(5) 0.0669(6)
C10_10 C 0.6817(6) 0.4300(6) 0.0789(7)
H10_10 H 0.6723 0.4639 0.0849
H11_10 H 0.7046 0.4287 0.0515
H12_10 H 0.6973 0.4166 0.1081
N1_11 N 0.8170(4) 0.7286(4) 0.6711(4)
N3_11 N 0.9261(4) 0.6202(4) 0.5238(4)
C1_11 C 0.8389(7) 0.7531(5) 0.5853(5)
H1_11 H 0.8482 0.7362 0.5552
H2_11 H 0.8631 0.7783 0.5928
H3_11 H 0.8069 0.7683 0.5810
C2_11 C 0.8367(5) 0.7169(5) 0.6267(6)
C3_11 C 0.8576(5) 0.6691(5) 0.6295(5)
C4_11 C 0.8489(5) 0.6553(5) 0.6762(6)
C5_11 C 0.8585(6) 0.6039(6) 0.7000(6)
H4_11 H 0.8729 0.5821 0.6756
H5_11 H 0.8277 0.5902 0.7116
H6_11 H 0.8810 0.6076 0.7275
C6_11 C 0.9566(5) 0.6947(5) 0.5669(5)
H7_11 H 0.9899 0.6832 0.5608
H8_11 H 0.9543 0.7078 0.6000
H9_11 H 0.9483 0.7203 0.5433
C7_11 C 0.9214(5) 0.6527(5) 0.5613(5)
C8_11 C 0.8807(5) 0.6405(6) 0.5880(5)
C9_11 C 0.8623(5) 0.5992(5) 0.5669(6)
C10_11 C 0.8183(6) 0.5700(6) 0.5789(7)
H10_11 H 0.8277 0.5361 0.5849
H11_11 H 0.7954 0.5713 0.5515
H12_11 H 0.8027 0.5834 0.6081
N1_12 N 0.1830(4) 0.2286(4) 0.8289(4)
N3_12 N 0.0739(4) 0.1202(4) 0.9762(4)
C1_12 C 0.1611(7) 0.2531(5) 0.9147(5)
H1_12 H 0.1518 0.2362 0.9448
H2_12 H 0.1369 0.2783 0.9072
H3_12 H 0.1931 0.2683 0.9190
C2_12 C 0.1633(5) 0.2169(5) 0.8733(6)
C3_12 C 0.1424(5) 0.1691(5) 0.8705(5)
C4_12 C 0.1511(5) 0.1553(5) 0.8238(6)
C5_12 C 0.1415(6) 0.1039(6) 0.8000(6)
H4_12 H 0.1271 0.0821 0.8244
H5_12 H 0.1723 0.0902 0.7884
H6_12 H 0.1190 0.1076 0.7725
C6_12 C 0.0434(5) 0.1947(5) 0.9331(5)
H7_12 H 0.0101 0.1832 0.9392
H8_12 H 0.0457 0.2078 0.9000
H9_12 H 0.0517 0.2203 0.9567
C7_12 C 0.0786(5) 0.1527(5) 0.9387(5)
C8_12 C 0.1193(5) 0.1405(6) 0.9120(5)
C9_12 C 0.1377(5) 0.0992(5) 0.9331(6)
C10_12 C 0.1817(6) 0.0700(6) 0.9211(7)
H10_12 H 0.1723 0.0361 0.9151
H11_12 H 0.2046 0.0713 0.9485
H12_12 H 0.1973 0.0834 0.8919
Ag2_7 Ag 0.02975(4) 0.02136(4) 0.11445(4)
Ag4_4 Ag 0.02136(4) 0.11445(4) 0.02975(4)
Ag2_8 Ag 0.11445(4) 0.02975(4) 0.02136(4)
Ag2_9 Ag 0.72864(4) 0.77975(4) 0.13555(4)
N1_13 N 0.5670(4) 0.5789(4) 0.0214(4)
N2_5 N 0.5729(4) 0.5477(4) 0.0612(4)
N3_13 N 0.6761(4) 0.7262(4) 0.1298(4)
N4_5 N 0.6387(4) 0.7216(4) 0.1637(4)
H1_13 H 0.5982 0.6948 0.0138
C2_13 C 0.5867(5) 0.6233(6) 0.0331(5)
C3_13 C 0.6076(5) 0.6205(5) 0.0809(5)
C4_13 C 0.5989(5) 0.5738(6) 0.0947(5)
C5_13 C 0.6085(6) 0.5500(6) 0.1461(6)
H4_13 H 0.6229 0.5744 0.1679
H5_13 H 0.5777 0.5384 0.1598
H6_13 H 0.6310 0.5225 0.1424
C6_13 C 0.7066(5) 0.6831(5) 0.0553(5)
H7_13 H 0.7399 0.6892 0.0668
H8_13 H 0.7043 0.6500 0.0422
H9_13 H 0.6983 0.7067 0.0297
C7_13 C 0.6714(5) 0.6887(5) 0.0973(5)
C8_13 C 0.6307(5) 0.6620(5) 0.1095(6)
C9_13 C 0.6123(5) 0.6831(6) 0.1508(5)
C10_13 C 0.5683(6) 0.6711(7) 0.1800(6)
H10_13 H 0.5777 0.6651 0.2139
H11_13 H 0.5454 0.6985 0.1787
H12_13 H 0.5527 0.6419 0.1666
Ag3_5 Ag 0.53019(4) 0.48589(4) 0.06585(4)
Ag4_5 Ag 0.63555(4) 0.77136(4) 0.22025(4)
N6_9 N 0.7784(4) 0.8363(4) 0.1387(4)
Ag1_9 Ag 0.51411(4) 0.56585(4) 0.96981(4)
C1_13 C 0.5889(7) 0.6647(5) 0.9969(5)
H2_13 H 0.6131 0.6572 0.9717
H3_13 H 0.5569 0.6690 0.9817
N5_9 N 0.4523(4) 0.5612(4) 0.9271(4)
N5_10 N 0.0477(4) 0.4388(4) 0.4271(4)
Ag1_10 Ag 0.98589(4) 0.43415(4) 0.46981(4)
Ag2_10 Ag 0.77136(4) 0.22025(4) 0.63555(4)
N1_14 N 0.9330(4) 0.4211(4) 0.5214(4)
N2_6 N 0.9271(4) 0.4523(4) 0.5612(4)
N3_14 N 0.8239(4) 0.2738(4) 0.6298(4)
N4_6 N 0.8613(4) 0.2784(4) 0.6637(4)
C1_14 C 0.9111(7) 0.3353(5) 0.4969(5)
H1_14 H 0.9018 0.3052 0.5138
H2_14 H 0.8869 0.3428 0.4717
H3_14 H 0.9431 0.3310 0.4817
C2_14 C 0.9133(5) 0.3767(6) 0.5331(5)
C3_14 C 0.8924(5) 0.3795(5) 0.5809(5)
C4_14 C 0.9011(5) 0.4262(6) 0.5947(5)
C5_14 C 0.8915(6) 0.4500(6) 0.6461(6)
H4_14 H 0.8771 0.4256 0.6679
H5_14 H 0.9223 0.4616 0.6598
H6_14 H 0.8690 0.4775 0.6424
C6_14 C 0.7934(5) 0.3169(5) 0.5553(5)
H7_14 H 0.7601 0.3108 0.5668
H8_14 H 0.7957 0.3500 0.5422
H9_14 H 0.8017 0.2933 0.5297
C7_14 C 0.8286(5) 0.3113(5) 0.5973(5)
C8_14 C 0.8693(5) 0.3380(5) 0.6095(6)
C9_14 C 0.8877(5) 0.3169(6) 0.6508(5)
C10_14 C 0.9317(6) 0.3289(7) 0.6800(6)
H10_14 H 0.9223 0.3349 0.7139
H11_14 H 0.9546 0.3015 0.6787
H12_14 H 0.9473 0.3581 0.6666
Ag3_6 Ag 0.96981(4) 0.51411(4) 0.56585(4)
Ag4_6 Ag 0.86445(4) 0.22864(4) 0.72025(4)
N6_10 N 0.7216(4) 0.1637(4) 0.6387(4)
Ag2_11 Ag 0.22864(4) 0.72025(4) 0.86445(4)
N1_15 N 0.0670(4) 0.9211(4) 0.9786(4)
N2_7 N 0.0729(4) 0.9523(4) 0.9388(4)
N3_15 N 0.1761(4) 0.7738(4) 0.8702(4)
N4_7 N 0.1387(4) 0.7784(4) 0.8363(4)
H1_15 H 0.0982 0.8052 0.9862
C2_15 C 0.0867(5) 0.8767(6) 0.9669(5)
C3_15 C 0.1076(5) 0.8795(5) 0.9191(5)
C4_15 C 0.0989(5) 0.9262(6) 0.9053(5)
C5_15 C 0.1085(6) 0.9500(6) 0.8539(6)
H4_15 H 0.1229 0.9256 0.8321
H5_15 H 0.0777 0.9616 0.8402
H6_15 H 0.1310 0.9775 0.8576
C6_15 C 0.2066(5) 0.8169(5) 0.9447(5)
H7_15 H 0.2399 0.8108 0.9332
H8_15 H 0.2043 0.8500 0.9578
H9_15 H 0.1983 0.7933 0.9703
C7_15 C 0.1714(5) 0.8113(5) 0.9027(5)
C8_15 C 0.1307(5) 0.8380(5) 0.8905(6)
C9_15 C 0.1123(5) 0.8169(6) 0.8492(5)
C10_15 C 0.0683(6) 0.8289(7) 0.8200(6)
H10_15 H 0.0777 0.8349 0.7861
H11_15 H 0.0454 0.8015 0.8213
H12_15 H 0.0527 0.8581 0.8334
Ag4_7 Ag 0.13555(4) 0.72864(4) 0.77975(4)
N6_11 N 0.2784(4) 0.6637(4) 0.8613(4)
N5_11 N 0.9523(4) 0.9388(4) 0.0729(4)
Ag1_11 Ag 0.48589(4) 0.06585(4) 0.53019(4)
Ag2_12 Ag 0.27136(4) 0.27975(4) 0.36445(4)
N1_16 N 0.4330(4) 0.0789(4) 0.4786(4)
N2_8 N 0.4271(4) 0.0477(4) 0.4388(4)
N3_16 N 0.3239(4) 0.2262(4) 0.3702(4)
N4_8 N 0.3613(4) 0.2216(4) 0.3363(4)
C1_15 C 0.4111(7) 0.1647(5) 0.5031(5)
H1_16 H 0.4018 0.1948 0.4862
H2_15 H 0.3869 0.1572 0.5283
H3_15 H 0.4431 0.1690 0.5183
C2_16 C 0.4133(5) 0.1233(6) 0.4669(5)
C3_16 C 0.3924(5) 0.1205(5) 0.4191(5)
C4_16 C 0.4011(5) 0.0738(6) 0.4053(5)
C5_16 C 0.3915(6) 0.0500(6) 0.3539(6)
H4_16 H 0.3771 0.0744 0.3321
H5_16 H 0.4223 0.0384 0.3402
H6_16 H 0.3690 0.0225 0.3576
C6_16 C 0.2934(5) 0.1831(5) 0.4447(5)
H7_16 H 0.2601 0.1892 0.4332
H8_16 H 0.2957 0.1500 0.4578
H9_16 H 0.3017 0.2067 0.4703
C7_16 C 0.3286(5) 0.1887(5) 0.4027(5)
C8_16 C 0.3693(5) 0.1620(5) 0.3905(6)
C9_16 C 0.3877(5) 0.1831(6) 0.3492(5)
C10_16 C 0.4317(6) 0.1711(7) 0.3200(6)
H10_16 H 0.4223 0.1651 0.2861
H11_16 H 0.4546 0.1985 0.3213
H12_16 H 0.4473 0.1419 0.3334
Ag4_8 Ag 0.36445(4) 0.27136(4) 0.27975(4)
N5_12 N 0.5477(4) 0.0612(4) 0.5729(4)
N6_12 N 0.2216(4) 0.3363(4) 0.3613(4)
Ag3_7 Ag 0.46981(4) 0.98589(4) 0.43415(4)
Ag2_13 Ag 0.77975(4) 0.13555(4) 0.72864(4)
N1_17 N 0.5789(4) 0.0214(4) 0.5670(4)
N3_17 N 0.7262(4) 0.1298(4) 0.6761(4)
H1_17 H 0.6948 0.0138 0.5982
C2_17 C 0.6233(6) 0.0331(5) 0.5867(5)
C3_17 C 0.6205(5) 0.0809(5) 0.6076(5)
C4_17 C 0.5738(6) 0.0947(5) 0.5989(5)
C5_17 C 0.5500(6) 0.1461(6) 0.6085(6)
H4_17 H 0.5744 0.1679 0.6229
H5_17 H 0.5384 0.1598 0.5777
H6_17 H 0.5225 0.1424 0.6310
C6_17 C 0.6831(5) 0.0553(5) 0.7066(5)
H7_17 H 0.6892 0.0668 0.7399
H8_17 H 0.6500 0.0422 0.7043
H9_17 H 0.7067 0.0297 0.6983
C7_17 C 0.6887(5) 0.0973(5) 0.6714(5)
C8_17 C 0.6620(5) 0.1095(6) 0.6307(5)
C9_17 C 0.6831(6) 0.1508(5) 0.6123(5)
C10_17 C 0.6711(7) 0.1800(6) 0.5683(6)
H10_17 H 0.6651 0.2139 0.5777
H11_17 H 0.6985 0.1787 0.5454
H12_17 H 0.6419 0.1666 0.5527
N6_13 N 0.8363(4) 0.1387(4) 0.7784(4)
Ag1_12 Ag 0.56585(4) 0.96981(4) 0.51411(4)
C1_16 C 0.6647(5) 0.9969(5) 0.5889(7)
H2_16 H 0.6572 0.9717 0.6131
H3_16 H 0.6690 0.9817 0.5569
N5_13 N 0.5612(4) 0.9271(4) 0.4523(4)
N5_14 N 0.4388(4) 0.4271(4) 0.0477(4)
Ag1_13 Ag 0.43415(4) 0.46981(4) 0.98589(4)
Ag2_14 Ag 0.22025(4) 0.63555(4) 0.77136(4)
N1_18 N 0.4211(4) 0.5214(4) 0.9330(4)
N3_18 N 0.2738(4) 0.6298(4) 0.8239(4)
C1_17 C 0.3353(5) 0.4969(5) 0.9111(7)
H1_18 H 0.3052 0.5138 0.9018
H2_17 H 0.3428 0.4717 0.8869
H3_17 H 0.3310 0.4817 0.9431
C2_18 C 0.3767(6) 0.5331(5) 0.9133(5)
C3_18 C 0.3795(5) 0.5809(5) 0.8924(5)
C4_18 C 0.4262(6) 0.5947(5) 0.9011(5)
C5_18 C 0.4500(6) 0.6461(6) 0.8915(6)
H4_18 H 0.4256 0.6679 0.8771
H5_18 H 0.4616 0.6598 0.9223
H6_18 H 0.4775 0.6424 0.8690
C6_18 C 0.3169(5) 0.5553(5) 0.7934(5)
H7_18 H 0.3108 0.5668 0.7601
H8_18 H 0.3500 0.5422 0.7957
H9_18 H 0.2933 0.5297 0.8017
C7_18 C 0.3113(5) 0.5973(5) 0.8286(5)
C8_18 C 0.3380(5) 0.6095(6) 0.8693(5)
C9_18 C 0.3169(6) 0.6508(5) 0.8877(5)
C10_18 C 0.3289(7) 0.6800(6) 0.9317(6)
H10_18 H 0.3349 0.7139 0.9223
H11_18 H 0.3015 0.6787 0.9546
H12_18 H 0.3581 0.6666 0.9473
N6_14 N 0.1637(4) 0.6387(4) 0.7216(4)
N5_15 N 0.9388(4) 0.0729(4) 0.9523(4)
Ag2_15 Ag 0.72025(4) 0.86445(4) 0.22864(4)
N1_19 N 0.9211(4) 0.9786(4) 0.0670(4)
N3_19 N 0.7738(4) 0.8702(4) 0.1761(4)
H1_19 H 0.8052 0.9862 0.0982
C2_19 C 0.8767(6) 0.9669(5) 0.0867(5)
C3_19 C 0.8795(5) 0.9191(5) 0.1076(5)
C4_19 C 0.9262(6) 0.9053(5) 0.0989(5)
C5_19 C 0.9500(6) 0.8539(6) 0.1085(6)
H4_19 H 0.9256 0.8321 0.1229
H5_19 H 0.9616 0.8402 0.0777
H6_19 H 0.9775 0.8576 0.1310
C6_19 C 0.8169(5) 0.9447(5) 0.2066(5)
H7_19 H 0.8108 0.9332 0.2399
H8_19 H 0.8500 0.9578 0.2043
H9_19 H 0.7933 0.9703 0.1983
C7_19 C 0.8113(5) 0.9027(5) 0.1714(5)
C8_19 C 0.8380(5) 0.8905(6) 0.1307(5)
C9_19 C 0.8169(6) 0.8492(5) 0.1123(5)
C10_19 C 0.8289(7) 0.8200(6) 0.0683(6)
H10_19 H 0.8349 0.7861 0.0777
H11_19 H 0.8015 0.8213 0.0454
H12_19 H 0.8581 0.8334 0.0527
N6_15 N 0.6637(4) 0.8613(4) 0.2784(4)
Ag1_14 Ag 0.06585(4) 0.53019(4) 0.48589(4)
Ag2_16 Ag 0.27975(4) 0.36445(4) 0.27136(4)
N1_20 N 0.0789(4) 0.4786(4) 0.4330(4)
N3_20 N 0.2262(4) 0.3702(4) 0.3239(4)
C1_18 C 0.1647(5) 0.5031(5) 0.4111(7)
H1_20 H 0.1948 0.4862 0.4018
H2_18 H 0.1572 0.5283 0.3869
H3_18 H 0.1690 0.5183 0.4431
C2_20 C 0.1233(6) 0.4669(5) 0.4133(5)
C3_20 C 0.1205(5) 0.4191(5) 0.3924(5)
C4_20 C 0.0738(6) 0.4053(5) 0.4011(5)
C5_20 C 0.0500(6) 0.3539(6) 0.3915(6)
H4_20 H 0.0744 0.3321 0.3771
H5_20 H 0.0384 0.3402 0.4223
H6_20 H 0.0225 0.3576 0.3690
C6_20 C 0.1831(5) 0.4447(5) 0.2934(5)
H7_20 H 0.1892 0.4332 0.2601
H8_20 H 0.1500 0.4578 0.2957
H9_20 H 0.2067 0.4703 0.3017
C7_20 C 0.1887(5) 0.4027(5) 0.3286(5)
C8_20 C 0.1620(5) 0.3905(6) 0.3693(5)
C9_20 C 0.1831(6) 0.3492(5) 0.3877(5)
C10_20 C 0.1711(7) 0.3200(6) 0.4317(6)
H10_20 H 0.1651 0.2861 0.4223
H11_20 H 0.1985 0.3213 0.4546
H12_20 H 0.1419 0.3334 0.4473
N5_16 N 0.0612(4) 0.5729(4) 0.5477(4)
N6_16 N 0.3363(4) 0.3613(4) 0.2216(4)
N1_21 N 0.0214(4) 0.5670(4) 0.5789(4)
N3_21 N 0.1298(4) 0.6761(4) 0.7262(4)
H1_21 H 0.0138 0.5982 0.6948
C2_21 C 0.0331(5) 0.5867(5) 0.6233(6)
C3_21 C 0.0809(5) 0.6076(5) 0.6205(5)
C4_21 C 0.0947(5) 0.5989(5) 0.5738(6)
C5_21 C 0.1461(6) 0.6085(6) 0.5500(6)
H4_21 H 0.1679 0.6229 0.5744
H5_21 H 0.1598 0.5777 0.5384
H6_21 H 0.1424 0.6310 0.5225
C6_21 C 0.0553(5) 0.7066(5) 0.6831(5)
H7_21 H 0.0668 0.7399 0.6892
H8_21 H 0.0422 0.7043 0.6500
H9_21 H 0.0297 0.6983 0.7067
C7_21 C 0.0973(5) 0.6714(5) 0.6887(5)
C8_21 C 0.1095(6) 0.6307(5) 0.6620(5)
C9_21 C 0.1508(5) 0.6123(5) 0.6831(6)
C10_21 C 0.1800(6) 0.5683(6) 0.6711(7)
H10_21 H 0.2139 0.5777 0.6651
H11_21 H 0.1787 0.5454 0.6985
H12_21 H 0.1666 0.5527 0.6419
C1_19 C 0.9969(5) 0.5889(7) 0.6647(5)
H2_19 H 0.9717 0.6131 0.6572
H3_19 H 0.9817 0.5569 0.6690
N1_22 N 0.5214(4) 0.9330(4) 0.4211(4)
N3_22 N 0.6298(4) 0.8239(4) 0.2738(4)
C1_20 C 0.4969(5) 0.9111(7) 0.3353(5)
H1_22 H 0.5138 0.9018 0.3052
H2_20 H 0.4717 0.8869 0.3428
H3_20 H 0.4817 0.9431 0.3310
C2_22 C 0.5331(5) 0.9133(5) 0.3767(6)
C3_22 C 0.5809(5) 0.8924(5) 0.3795(5)
C4_22 C 0.5947(5) 0.9011(5) 0.4262(6)
C5_22 C 0.6461(6) 0.8915(6) 0.4500(6)
H4_22 H 0.6679 0.8771 0.4256
H5_22 H 0.6598 0.9223 0.4616
H6_22 H 0.6424 0.8690 0.4775
C6_22 C 0.5553(5) 0.7934(5) 0.3169(5)
H7_22 H 0.5668 0.7601 0.3108
H8_22 H 0.5422 0.7957 0.3500
H9_22 H 0.5297 0.8017 0.2933
C7_22 C 0.5973(5) 0.8286(5) 0.3113(5)
C8_22 C 0.6095(6) 0.8693(5) 0.3380(5)
C9_22 C 0.6508(5) 0.8877(5) 0.3169(6)
C10_22 C 0.6800(6) 0.9317(6) 0.3289(7)
H10_22 H 0.7139 0.9223 0.3349
H11_22 H 0.6787 0.9546 0.3015
H12_22 H 0.6666 0.9473 0.3581
N1_23 N 0.9786(4) 0.0670(4) 0.9211(4)
N3_23 N 0.8702(4) 0.1761(4) 0.7738(4)
H1_23 H 0.9862 0.0982 0.8052
C2_23 C 0.9669(5) 0.0867(5) 0.8767(6)
C3_23 C 0.9191(5) 0.1076(5) 0.8795(5)
C4_23 C 0.9053(5) 0.0989(5) 0.9262(6)
C5_23 C 0.8539(6) 0.1085(6) 0.9500(6)
H4_23 H 0.8321 0.1229 0.9256
H5_23 H 0.8402 0.0777 0.9616
H6_23 H 0.8576 0.1310 0.9775
C6_23 C 0.9447(5) 0.2066(5) 0.8169(5)
H7_23 H 0.9332 0.2399 0.8108
H8_23 H 0.9578 0.2043 0.8500
H9_23 H 0.9703 0.1983 0.7933
C7_23 C 0.9027(5) 0.1714(5) 0.8113(5)
C8_23 C 0.8905(6) 0.1307(5) 0.8380(5)
C9_23 C 0.8492(5) 0.1123(5) 0.8169(6)
C10_23 C 0.8200(6) 0.0683(6) 0.8289(7)
H10_23 H 0.7861 0.0777 0.8349
H11_23 H 0.8213 0.0454 0.8015
H12_23 H 0.8334 0.0527 0.8581
N1_24 N 0.4786(4) 0.4330(4) 0.0789(4)
N3_24 N 0.3702(4) 0.3239(4) 0.2262(4)
C1_21 C 0.5031(5) 0.4111(7) 0.1647(5)
H1_24 H 0.4862 0.4018 0.1948
H2_21 H 0.5283 0.3869 0.1572
H3_21 H 0.5183 0.4431 0.1690
C2_24 C 0.4669(5) 0.4133(5) 0.1233(6)
C3_24 C 0.4191(5) 0.3924(5) 0.1205(5)
C4_24 C 0.4053(5) 0.4011(5) 0.0738(6)
C5_24 C 0.3539(6) 0.3915(6) 0.0500(6)
H4_24 H 0.3321 0.3771 0.0744
H5_24 H 0.3402 0.4223 0.0384
H6_24 H 0.3576 0.3690 0.0225
C6_24 C 0.4447(5) 0.2934(5) 0.1831(5)
H7_24 H 0.4332 0.2601 0.1892
H8_24 H 0.4578 0.2957 0.1500
H9_24 H 0.4703 0.3017 0.2067
C7_24 C 0.4027(5) 0.3286(5) 0.1887(5)
C8_24 C 0.3905(6) 0.3693(5) 0.1620(5)
C9_24 C 0.3492(5) 0.3877(5) 0.1831(6)
C10_24 C 0.3200(6) 0.4317(6) 0.1711(7)
H10_24 H 0.2861 0.4223 0.1651
H11_24 H 0.3213 0.4546 0.1985
H12_24 H 0.3334 0.4473 0.1419
Ag3_8 Ag 0.03019(4) 0.01411(4) 0.93415(4)
C1_22 C 0.0031(5) 0.0889(7) 0.8353(5)
H2_22 H 0.0283 0.1131 0.8428
H3_22 H 0.0183 0.0569 0.8310
Ag1_15 Ag 0.01411(4) 0.93415(4) 0.03019(4)
C1_23 C 0.0889(7) 0.8353(5) 0.0031(5)
H2_23 H 0.1131 0.8428 0.0283
H3_23 H 0.0569 0.8310 0.0183
Ag1_16 Ag 0.93415(4) 0.03019(4) 0.01411(4)
C1_24 C 0.8353(5) 0.0031(5) 0.0889(7)
H2_24 H 0.8428 0.0283 0.1131
H3_24 H 0.8310 0.0183 0.0569
N6_17 N 0.0863(4) 0.0284(4) 0.3887(4)
Ag1_17 Ag 0.18415(4) 0.26411(4) 0.28019(4)
N1_25 N 0.1711(4) 0.3170(4) 0.2286(4)
N2_9 N 0.2023(4) 0.3229(4) 0.1888(4)
N3_25 N 0.0238(4) 0.4261(4) 0.1202(4)
N4_9 N 0.0284(4) 0.3887(4) 0.0863(4)
C1_25 C 0.0853(5) 0.3389(7) 0.2531(5)
H1_25 H 0.0552 0.3482 0.2362
H2_25 H 0.0928 0.3631 0.2783
H3_25 H 0.0810 0.3069 0.2683
C2_25 C 0.1267(6) 0.3367(5) 0.2169(5)
C3_25 C 0.1295(5) 0.3576(5) 0.1691(5)
C4_25 C 0.1762(6) 0.3489(5) 0.1553(5)
C5_25 C 0.2000(6) 0.3585(6) 0.1039(6)
H4_25 H 0.1756 0.3729 0.0821
H5_25 H 0.2116 0.3277 0.0902
H6_25 H 0.2275 0.3810 0.1076
C6_25 C 0.0669(5) 0.4566(5) 0.1947(5)
H7_25 H 0.0608 0.4899 0.1832
H8_25 H 0.1000 0.4543 0.2078
H9_25 H 0.0433 0.4483 0.2203
C7_25 C 0.0613(5) 0.4214(5) 0.1527(5)
C8_25 C 0.0880(5) 0.3807(5) 0.1405(6)
C9_25 C 0.0669(6) 0.3623(5) 0.0992(5)
C10_25 C 0.0789(7) 0.3183(6) 0.0700(6)
H10_25 H 0.0849 0.3277 0.0361
H11_25 H 0.0515 0.2954 0.0713
H12_25 H 0.1081 0.3027 0.0834
Ag3_9 Ag 0.26411(4) 0.28019(4) 0.18415(4)
N5_17 N 0.1888(4) 0.2023(4) 0.3229(4)
N6_18 N 0.3887(4) 0.0863(4) 0.0284(4)
Ag1_18 Ag 0.28019(4) 0.18415(4) 0.26411(4)
N1_26 N 0.2286(4) 0.1711(4) 0.3170(4)
N3_26 N 0.1202(4) 0.0238(4) 0.4261(4)
C1_26 C 0.2531(5) 0.0853(5) 0.3389(7)
H1_26 H 0.2362 0.0552 0.3482
H2_26 H 0.2783 0.0928 0.3631
H3_26 H 0.2683 0.0810 0.3069
C2_26 C 0.2169(5) 0.1267(6) 0.3367(5)
C3_26 C 0.1691(5) 0.1295(5) 0.3576(5)
C4_26 C 0.1553(5) 0.1762(6) 0.3489(5)
C5_26 C 0.1039(6) 0.2000(6) 0.3585(6)
H4_26 H 0.0821 0.1756 0.3729
H5_26 H 0.0902 0.2116 0.3277
H6_26 H 0.1076 0.2275 0.3810
C6_26 C 0.1947(5) 0.0669(5) 0.4566(5)
H7_26 H 0.1832 0.0608 0.4899
H8_26 H 0.2078 0.1000 0.4543
H9_26 H 0.2203 0.0433 0.4483
C7_26 C 0.1527(5) 0.0613(5) 0.4214(5)
C8_26 C 0.1405(6) 0.0880(5) 0.3807(5)
C9_26 C 0.0992(5) 0.0669(6) 0.3623(5)
C10_26 C 0.0700(6) 0.0789(7) 0.3183(6)
H10_26 H 0.0361 0.0849 0.3277
H11_26 H 0.0713 0.0515 0.2954
H12_26 H 0.0834 0.1081 0.3027
N5_18 N 0.3229(4) 0.1888(4) 0.2023(4)
N1_27 N 0.3170(4) 0.2286(4) 0.1711(4)
N3_27 N 0.4261(4) 0.1202(4) 0.0238(4)
C1_27 C 0.3389(7) 0.2531(5) 0.0853(5)
H1_27 H 0.3482 0.2362 0.0552
H2_27 H 0.3631 0.2783 0.0928
H3_27 H 0.3069 0.2683 0.0810
C2_27 C 0.3367(5) 0.2169(5) 0.1267(6)
C3_27 C 0.3576(5) 0.1691(5) 0.1295(5)
C4_27 C 0.3489(5) 0.1553(5) 0.1762(6)
C5_27 C 0.3585(6) 0.1039(6) 0.2000(6)
H4_27 H 0.3729 0.0821 0.1756
H5_27 H 0.3277 0.0902 0.2116
H6_27 H 0.3810 0.1076 0.2275
C6_27 C 0.4566(5) 0.1947(5) 0.0669(5)
H7_27 H 0.4899 0.1832 0.0608
H8_27 H 0.4543 0.2078 0.1000
H9_27 H 0.4483 0.2203 0.0433
C7_27 C 0.4214(5) 0.1527(5) 0.0613(5)
C8_27 C 0.3807(5) 0.1405(6) 0.0880(5)
C9_27 C 0.3623(5) 0.0992(5) 0.0669(6)
C10_27 C 0.3183(6) 0.0700(6) 0.0789(7)
H10_27 H 0.3277 0.0361 0.0849
H11_27 H 0.2954 0.0713 0.0515
H12_27 H 0.3027 0.0834 0.1081
Ag2_17 Ag 0.02975(4) 0.97864(4) 0.38555(4)
Ag4_9 Ag 0.02136(4) 0.88555(4) 0.47025(4)
Ag1_19 Ag 0.81585(4) 0.76411(4) 0.21981(4)
N1_28 N 0.8289(4) 0.8170(4) 0.2714(4)
N2_10 N 0.7977(4) 0.8229(4) 0.3112(4)
N3_28 N 0.9762(4) 0.9261(4) 0.3798(4)
N4_10 N 0.9716(4) 0.8887(4) 0.4137(4)
C1_28 C 0.9147(5) 0.8389(7) 0.2469(5)
H1_28 H 0.9448 0.8482 0.2638
H2_28 H 0.9072 0.8631 0.2217
H3_28 H 0.9190 0.8069 0.2317
C2_28 C 0.8733(6) 0.8367(5) 0.2831(5)
C3_28 C 0.8705(5) 0.8576(5) 0.3309(5)
C4_28 C 0.8238(6) 0.8489(5) 0.3447(5)
C5_28 C 0.8000(6) 0.8585(6) 0.3961(6)
H4_28 H 0.8244 0.8729 0.4179
H5_28 H 0.7884 0.8277 0.4098
H6_28 H 0.7725 0.8810 0.3924
C6_28 C 0.9331(5) 0.9566(5) 0.3053(5)
H7_28 H 0.9392 0.9899 0.3168
H8_28 H 0.9000 0.9543 0.2922
H9_28 H 0.9567 0.9483 0.2797
C7_28 C 0.9387(5) 0.9214(5) 0.3473(5)
C8_28 C 0.9120(5) 0.8807(5) 0.3595(6)
C9_28 C 0.9331(6) 0.8623(5) 0.4008(5)
C10_28 C 0.9211(7) 0.8183(6) 0.4300(6)
H10_28 H 0.9151 0.8277 0.4639
H11_28 H 0.9485 0.7954 0.4287
H12_28 H 0.8919 0.8027 0.4166
Ag3_10 Ag 0.73589(4) 0.78019(4) 0.31585(4)
N5_19 N 0.8112(4) 0.7023(4) 0.1771(4)
Ag1_20 Ag 0.68415(4) 0.23589(4) 0.71981(4)
Ag2_18 Ag 0.47025(4) 0.02136(4) 0.88555(4)
N1_29 N 0.6711(4) 0.1830(4) 0.7714(4)
N2_11 N 0.7023(4) 0.1771(4) 0.8112(4)
N3_29 N 0.5238(4) 0.0739(4) 0.8798(4)
N4_11 N 0.5284(4) 0.1113(4) 0.9137(4)
C1_29 C 0.5853(5) 0.1611(7) 0.7469(5)
H1_29 H 0.5552 0.1518 0.7638
H2_29 H 0.5928 0.1369 0.7217
H3_29 H 0.5810 0.1931 0.7317
C2_29 C 0.6267(6) 0.1633(5) 0.7831(5)
C3_29 C 0.6295(5) 0.1424(5) 0.8309(5)
C4_29 C 0.6762(6) 0.1511(5) 0.8447(5)
C5_29 C 0.7000(6) 0.1415(6) 0.8961(6)
H4_29 H 0.6756 0.1271 0.9179
H5_29 H 0.7116 0.1723 0.9098
H6_29 H 0.7275 0.1190 0.8924
C6_29 C 0.5669(5) 0.0434(5) 0.8053(5)
H7_29 H 0.5608 0.0101 0.8168
H8_29 H 0.6000 0.0457 0.7922
H9_29 H 0.5433 0.0517 0.7797
C7_29 C 0.5613(5) 0.0786(5) 0.8473(5)
C8_29 C 0.5880(5) 0.1193(5) 0.8595(6)
C9_29 C 0.5669(6) 0.1377(5) 0.9008(5)
C10_29 C 0.5789(7) 0.1817(6) 0.9300(6)
H10_29 H 0.5849 0.1723 0.9639
H11_29 H 0.5515 0.2046 0.9287
H12_29 H 0.6081 0.1973 0.9166
Ag3_11 Ag 0.76411(4) 0.21981(4) 0.81585(4)
Ag4_10 Ag 0.47864(4) 0.11445(4) 0.97025(4)
N5_20 N 0.6888(4) 0.2977(4) 0.6771(4)
N6_19 N 0.4137(4) 0.9716(4) 0.8887(4)
Ag2_19 Ag 0.97025(4) 0.47864(4) 0.11445(4)
Ag4_11 Ag 0.97864(4) 0.38555(4) 0.02975(4)
N6_20 N 0.9137(4) 0.5284(4) 0.1113(4)
Ag1_21 Ag 0.31585(4) 0.73589(4) 0.78019(4)
Ag2_20 Ag 0.52975(4) 0.52136(4) 0.61445(4)
N1_30 N 0.3289(4) 0.6830(4) 0.7286(4)
N2_12 N 0.2977(4) 0.6771(4) 0.6888(4)
N3_30 N 0.4762(4) 0.5739(4) 0.6202(4)
N4_12 N 0.4716(4) 0.6113(4) 0.5863(4)
C1_30 C 0.4147(5) 0.6611(7) 0.7531(5)
H1_30 H 0.4448 0.6518 0.7362
H2_30 H 0.4072 0.6369 0.7783
H3_30 H 0.4190 0.6931 0.7683
C2_30 C 0.3733(6) 0.6633(5) 0.7169(5)
C3_30 C 0.3705(5) 0.6424(5) 0.6691(5)
C4_30 C 0.3238(6) 0.6511(5) 0.6553(5)
C5_30 C 0.3000(6) 0.6415(6) 0.6039(6)
H4_30 H 0.3244 0.6271 0.5821
H5_30 H 0.2884 0.6723 0.5902
H6_30 H 0.2725 0.6190 0.6076
C6_30 C 0.4331(5) 0.5434(5) 0.6947(5)
H7_30 H 0.4392 0.5101 0.6832
H8_30 H 0.4000 0.5457 0.7078
H9_30 H 0.4567 0.5517 0.7203
C7_30 C 0.4387(5) 0.5786(5) 0.6527(5)
C8_30 C 0.4120(5) 0.6193(5) 0.6405(6)
C9_30 C 0.4331(6) 0.6377(5) 0.5992(5)
C10_30 C 0.4211(7) 0.6817(6) 0.5700(6)
H10_30 H 0.4151 0.6723 0.5361
H11_30 H 0.4485 0.7046 0.5713
H12_30 H 0.3919 0.6973 0.5834
Ag3_12 Ag 0.23589(4) 0.71981(4) 0.68415(4)
Ag4_12 Ag 0.52136(4) 0.61445(4) 0.52975(4)
N5_21 N 0.3112(4) 0.7977(4) 0.8229(4)
N6_21 N 0.5863(4) 0.4716(4) 0.6113(4)
Ag2_21 Ag 0.38555(4) 0.02975(4) 0.97864(4)
Ag1_22 Ag 0.21981(4) 0.81585(4) 0.76411(4)
N1_31 N 0.2714(4) 0.8289(4) 0.8170(4)
N3_31 N 0.3798(4) 0.9762(4) 0.9261(4)
C1_31 C 0.2469(5) 0.9147(5) 0.8389(7)
H1_31 H 0.2638 0.9448 0.8482
H2_31 H 0.2217 0.9072 0.8631
H3_31 H 0.2317 0.9190 0.8069
C2_31 C 0.2831(5) 0.8733(6) 0.8367(5)
C3_31 C 0.3309(5) 0.8705(5) 0.8576(5)
C4_31 C 0.3447(5) 0.8238(6) 0.8489(5)
C5_31 C 0.3961(6) 0.8000(6) 0.8585(6)
H4_31 H 0.4179 0.8244 0.8729
H5_31 H 0.4098 0.7884 0.8277
H6_31 H 0.3924 0.7725 0.8810
C6_31 C 0.3053(5) 0.9331(5) 0.9566(5)
H7_31 H 0.3168 0.9392 0.9899
H8_31 H 0.2922 0.9000 0.9543
H9_31 H 0.2797 0.9567 0.9483
C7_31 C 0.3473(5) 0.9387(5) 0.9214(5)
C8_31 C 0.3595(6) 0.9120(5) 0.8807(5)
C9_31 C 0.4008(5) 0.9331(6) 0.8623(5)
C10_31 C 0.4300(6) 0.9211(7) 0.8183(6)
H10_31 H 0.4639 0.9151 0.8277
H11_31 H 0.4287 0.9485 0.7954
H12_31 H 0.4166 0.8919 0.8027
N5_22 N 0.1771(4) 0.8112(4) 0.7023(4)
Ag1_23 Ag 0.71981(4) 0.68415(4) 0.23589(4)
Ag2_22 Ag 0.88555(4) 0.47025(4) 0.02136(4)
N1_32 N 0.7714(4) 0.6711(4) 0.1830(4)
N3_32 N 0.8798(4) 0.5238(4) 0.0739(4)
C1_32 C 0.7469(5) 0.5853(5) 0.1611(7)
H1_32 H 0.7638 0.5552 0.1518
H2_32 H 0.7217 0.5928 0.1369
H3_32 H 0.7317 0.5810 0.1931
C2_32 C 0.7831(5) 0.6267(6) 0.1633(5)
C3_32 C 0.8309(5) 0.6295(5) 0.1424(5)
C4_32 C 0.8447(5) 0.6762(6) 0.1511(5)
C5_32 C 0.8961(6) 0.7000(6) 0.1415(6)
H4_32 H 0.9179 0.6756 0.1271
H5_32 H 0.9098 0.7116 0.1723
H6_32 H 0.8924 0.7275 0.1190
C6_32 C 0.8053(5) 0.5669(5) 0.0434(5)
H7_32 H 0.8168 0.5608 0.0101
H8_32 H 0.7922 0.6000 0.0457
H9_32 H 0.7797 0.5433 0.0517
C7_32 C 0.8473(5) 0.5613(5) 0.0786(5)
C8_32 C 0.8595(6) 0.5880(5) 0.1193(5)
C9_32 C 0.9008(5) 0.5669(6) 0.1377(5)
C10_32 C 0.9300(6) 0.5789(7) 0.1817(6)
H10_32 H 0.9639 0.5849 0.1723
H11_32 H 0.9287 0.5515 0.2046
H12_32 H 0.9166 0.6081 0.1973
N5_23 N 0.6771(4) 0.6888(4) 0.2977(4)
N6_22 N 0.8887(4) 0.4137(4) 0.9716(4)
Ag2_23 Ag 0.11445(4) 0.97025(4) 0.47864(4)
N6_23 N 0.1113(4) 0.9137(4) 0.5284(4)
Ag1_24 Ag 0.78019(4) 0.31585(4) 0.73589(4)
Ag2_24 Ag 0.61445(4) 0.52975(4) 0.52136(4)
N1_33 N 0.7286(4) 0.3289(4) 0.6830(4)
N3_33 N 0.6202(4) 0.4762(4) 0.5739(4)
C1_33 C 0.7531(5) 0.4147(5) 0.6611(7)
H1_33 H 0.7362 0.4448 0.6518
H2_33 H 0.7783 0.4072 0.6369
H3_33 H 0.7683 0.4190 0.6931
C2_33 C 0.7169(5) 0.3733(6) 0.6633(5)
C3_33 C 0.6691(5) 0.3705(5) 0.6424(5)
C4_33 C 0.6553(5) 0.3238(6) 0.6511(5)
C5_33 C 0.6039(6) 0.3000(6) 0.6415(6)
H4_33 H 0.5821 0.3244 0.6271
H5_33 H 0.5902 0.2884 0.6723
H6_33 H 0.6076 0.2725 0.6190
C6_33 C 0.6947(5) 0.4331(5) 0.5434(5)
H7_33 H 0.6832 0.4392 0.5101
H8_33 H 0.7078 0.4000 0.5457
H9_33 H 0.7203 0.4567 0.5517
C7_33 C 0.6527(5) 0.4387(5) 0.5786(5)
C8_33 C 0.6405(6) 0.4120(5) 0.6193(5)
C9_33 C 0.5992(5) 0.4331(6) 0.6377(5)
C10_33 C 0.5700(6) 0.4211(7) 0.6817(6)
H10_33 H 0.5361 0.4151 0.6723
H11_33 H 0.5713 0.4485 0.7046
H12_33 H 0.5834 0.3919 0.6973
N5_24 N 0.8229(4) 0.3112(4) 0.7977(4)
N6_24 N 0.6113(4) 0.5863(4) 0.4716(4)
N1_34 N 0.8170(4) 0.2714(4) 0.8289(4)
N3_34 N 0.9261(4) 0.3798(4) 0.9762(4)
C1_34 C 0.8389(7) 0.2469(5) 0.9147(5)
H1_34 H 0.8482 0.2638 0.9448
H2_34 H 0.8631 0.2217 0.9072
H3_34 H 0.8069 0.2317 0.9190
C2_34 C 0.8367(5) 0.2831(5) 0.8733(6)
C3_34 C 0.8576(5) 0.3309(5) 0.8705(5)
C4_34 C 0.8489(5) 0.3447(5) 0.8238(6)
C5_34 C 0.8585(6) 0.3961(6) 0.8000(6)
H4_34 H 0.8729 0.4179 0.8244
H5_34 H 0.8277 0.4098 0.7884
H6_34 H 0.8810 0.3924 0.7725
C6_34 C 0.9566(5) 0.3053(5) 0.9331(5)
H7_34 H 0.9899 0.3168 0.9392
H8_34 H 0.9543 0.2922 0.9000
H9_34 H 0.9483 0.2797 0.9567
C7_34 C 0.9214(5) 0.3473(5) 0.9387(5)
C8_34 C 0.8807(5) 0.3595(6) 0.9120(5)
C9_34 C 0.8623(5) 0.4008(5) 0.9331(6)
C10_34 C 0.8183(6) 0.4300(6) 0.9211(7)
H10_34 H 0.8277 0.4639 0.9151
H11_34 H 0.7954 0.4287 0.9485
H12_34 H 0.8027 0.4166 0.8919
N1_35 N 0.1830(4) 0.7714(4) 0.6711(4)
N3_35 N 0.0739(4) 0.8798(4) 0.5238(4)
C1_35 C 0.1611(7) 0.7469(5) 0.5853(5)
H1_35 H 0.1518 0.7638 0.5552
H2_35 H 0.1369 0.7217 0.5928
H3_35 H 0.1931 0.7317 0.5810
C2_35 C 0.1633(5) 0.7831(5) 0.6267(6)
C3_35 C 0.1424(5) 0.8309(5) 0.6295(5)
C4_35 C 0.1511(5) 0.8447(5) 0.6762(6)
C5_35 C 0.1415(6) 0.8961(6) 0.7000(6)
H4_35 H 0.1271 0.9179 0.6756
H5_35 H 0.1723 0.9098 0.7116
H6_35 H 0.1190 0.8924 0.7275
C6_35 C 0.0434(5) 0.8053(5) 0.5669(5)
H7_35 H 0.0101 0.8168 0.5608
H8_35 H 0.0457 0.7922 0.6000
H9_35 H 0.0517 0.7797 0.5433
C7_35 C 0.0786(5) 0.8473(5) 0.5613(5)
C8_35 C 0.1193(5) 0.8595(6) 0.5880(5)
C9_35 C 0.1377(5) 0.9008(5) 0.5669(6)
C10_35 C 0.1817(6) 0.9300(6) 0.5789(7)
H10_35 H 0.1723 0.9639 0.5849
H11_35 H 0.2046 0.9287 0.5515
H12_35 H 0.1973 0.9166 0.6081
N1_36 N 0.6830(4) 0.7286(4) 0.3289(4)
N3_36 N 0.5739(4) 0.6202(4) 0.4762(4)
C1_36 C 0.6611(7) 0.7531(5) 0.4147(5)
H1_36 H 0.6518 0.7362 0.4448
H2_36 H 0.6369 0.7783 0.4072
H3_36 H 0.6931 0.7683 0.4190
C2_36 C 0.6633(5) 0.7169(5) 0.3733(6)
C3_36 C 0.6424(5) 0.6691(5) 0.3705(5)
C4_36 C 0.6511(5) 0.6553(5) 0.3238(6)
C5_36 C 0.6415(6) 0.6039(6) 0.3000(6)
H4_36 H 0.6271 0.5821 0.3244
H5_36 H 0.6723 0.5902 0.2884
H6_36 H 0.6190 0.6076 0.2725
C6_36 C 0.5434(5) 0.6947(5) 0.4331(5)
H7_36 H 0.5101 0.6832 0.4392
H8_36 H 0.5457 0.7078 0.4000
H9_36 H 0.5517 0.7203 0.4567
C7_36 C 0.5786(5) 0.6527(5) 0.4387(5)
C8_36 C 0.6193(5) 0.6405(6) 0.4120(5)
C9_36 C 0.6377(5) 0.5992(5) 0.4331(6)
C10_36 C 0.6817(6) 0.5700(6) 0.4211(7)
H10_36 H 0.6723 0.5361 0.4151
H11_36 H 0.7046 0.5713 0.4485
H12_36 H 0.6973 0.5834 0.3919
Ag1_25 Ag 0.01411(4) 0.06585(4) 0.46981(4)
Ag2_25 Ag 0.22864(4) 0.27975(4) 0.63555(4)
N1_37 N 0.0670(4) 0.0789(4) 0.5214(4)
N2_13 N 0.0729(4) 0.0477(4) 0.5612(4)
N3_37 N 0.1761(4) 0.2262(4) 0.6298(4)
N4_13 N 0.1387(4) 0.2216(4) 0.6637(4)
C1_37 C 0.0889(7) 0.1647(5) 0.4969(5)
H1_37 H 0.0982 0.1948 0.5138
H2_37 H 0.1131 0.1572 0.4717
H3_37 H 0.0569 0.1690 0.4817
C2_37 C 0.0867(5) 0.1233(6) 0.5331(5)
C3_37 C 0.1076(5) 0.1205(5) 0.5809(5)
C4_37 C 0.0989(5) 0.0738(6) 0.5947(5)
C5_37 C 0.1085(6) 0.0500(6) 0.6461(6)
H4_37 H 0.1229 0.0744 0.6679
H5_37 H 0.0777 0.0384 0.6598
H6_37 H 0.1310 0.0225 0.6424
C6_37 C 0.2066(5) 0.1831(5) 0.5553(5)
H7_37 H 0.2399 0.1892 0.5668
H8_37 H 0.2043 0.1500 0.5422
H9_37 H 0.1983 0.2067 0.5297
C7_37 C 0.1714(5) 0.1887(5) 0.5973(5)
C8_37 C 0.1307(5) 0.1620(5) 0.6095(6)
C9_37 C 0.1123(5) 0.1831(6) 0.6508(5)
C10_37 C 0.0683(6) 0.1711(7) 0.6800(6)
H10_37 H 0.0777 0.1651 0.7139
H11_37 H 0.0454 0.1985 0.6787
H12_37 H 0.0527 0.1419 0.6666
Ag4_13 Ag 0.13555(4) 0.27136(4) 0.72025(4)
N6_25 N 0.2784(4) 0.3363(4) 0.6387(4)
N5_25 N 0.9523(4) 0.0612(4) 0.4271(4)
Ag3_13 Ag 0.46981(4) 0.01411(4) 0.06585(4)
Ag2_26 Ag 0.27136(4) 0.72025(4) 0.13555(4)
N1_38 N 0.4330(4) 0.9211(4) 0.0214(4)
N2_14 N 0.4271(4) 0.9523(4) 0.0612(4)
N3_38 N 0.3239(4) 0.7738(4) 0.1298(4)
N4_14 N 0.3613(4) 0.7784(4) 0.1637(4)
H1_38 H 0.4018 0.8052 0.0138
C2_38 C 0.4133(5) 0.8767(6) 0.0331(5)
C3_38 C 0.3924(5) 0.8795(5) 0.0809(5)
C4_38 C 0.4011(5) 0.9262(6) 0.0947(5)
C5_38 C 0.3915(6) 0.9500(6) 0.1461(6)
H4_38 H 0.3771 0.9256 0.1679
H5_38 H 0.4223 0.9616 0.1598
H6_38 H 0.3690 0.9775 0.1424
C6_38 C 0.2934(5) 0.8169(5) 0.0553(5)
H7_38 H 0.2601 0.8108 0.0668
H8_38 H 0.2957 0.8500 0.0422
H9_38 H 0.3017 0.7933 0.0297
C7_38 C 0.3286(5) 0.8113(5) 0.0973(5)
C8_38 C 0.3693(5) 0.8380(5) 0.1095(6)
C9_38 C 0.3877(5) 0.8169(6) 0.1508(5)
C10_38 C 0.4317(6) 0.8289(7) 0.1800(6)
H10_38 H 0.4223 0.8349 0.2139
H11_38 H 0.4546 0.8015 0.1787
H12_38 H 0.4473 0.8581 0.1666
Ag4_14 Ag 0.36445(4) 0.72864(4) 0.22025(4)
N6_26 N 0.2216(4) 0.6637(4) 0.1387(4)
Ag1_26 Ag 0.51411(4) 0.43415(4) 0.53019(4)
Ag2_27 Ag 0.72864(4) 0.22025(4) 0.36445(4)
N1_39 N 0.5670(4) 0.4211(4) 0.4786(4)
N2_15 N 0.5729(4) 0.4523(4) 0.4388(4)
N3_39 N 0.6761(4) 0.2738(4) 0.3702(4)
N4_15 N 0.6387(4) 0.2784(4) 0.3363(4)
C1_38 C 0.5889(7) 0.3353(5) 0.5031(5)
H1_39 H 0.5982 0.3052 0.4862
H2_38 H 0.6131 0.3428 0.5283
H3_38 H 0.5569 0.3310 0.5183
C2_39 C 0.5867(5) 0.3767(6) 0.4669(5)
C3_39 C 0.6076(5) 0.3795(5) 0.4191(5)
C4_39 C 0.5989(5) 0.4262(6) 0.4053(5)
C5_39 C 0.6085(6) 0.4500(6) 0.3539(6)
H4_39 H 0.6229 0.4256 0.3321
H5_39 H 0.5777 0.4616 0.3402
H6_39 H 0.6310 0.4775 0.3576
C6_39 C 0.7066(5) 0.3169(5) 0.4447(5)
H7_39 H 0.7399 0.3108 0.4332
H8_39 H 0.7043 0.3500 0.4578
H9_39 H 0.6983 0.2933 0.4703
C7_39 C 0.6714(5) 0.3113(5) 0.4027(5)
C8_39 C 0.6307(5) 0.3380(5) 0.3905(6)
C9_39 C 0.6123(5) 0.3169(6) 0.3492(5)
C10_39 C 0.5683(6) 0.3289(7) 0.3200(6)
H10_39 H 0.5777 0.3349 0.2861
H11_39 H 0.5454 0.3015 0.3213
H12_39 H 0.5527 0.3581 0.3334
Ag3_14 Ag 0.53019(4) 0.51411(4) 0.43415(4)
Ag4_15 Ag 0.63555(4) 0.22864(4) 0.27975(4)
N5_26 N 0.4523(4) 0.4388(4) 0.5729(4)
N6_27 N 0.7784(4) 0.1637(4) 0.3613(4)
N5_27 N 0.0477(4) 0.5612(4) 0.0729(4)
Ag1_27 Ag 0.06585(4) 0.46981(4) 0.01411(4)
Ag2_28 Ag 0.27975(4) 0.63555(4) 0.22864(4)
N1_40 N 0.0789(4) 0.5214(4) 0.0670(4)
N3_40 N 0.2262(4) 0.6298(4) 0.1761(4)
C1_39 C 0.1647(5) 0.4969(5) 0.0889(7)
H1_40 H 0.1948 0.5138 0.0982
H2_39 H 0.1572 0.4717 0.1131
H3_39 H 0.1690 0.4817 0.0569
C2_40 C 0.1233(6) 0.5331(5) 0.0867(5)
C3_40 C 0.1205(5) 0.5809(5) 0.1076(5)
C4_40 C 0.0738(6) 0.5947(5) 0.0989(5)
C5_40 C 0.0500(6) 0.6461(6) 0.1085(6)
H4_40 H 0.0744 0.6679 0.1229
H5_40 H 0.0384 0.6598 0.0777
H6_40 H 0.0225 0.6424 0.1310
C6_40 C 0.1831(5) 0.5553(5) 0.2066(5)
H7_40 H 0.1892 0.5668 0.2399
H8_40 H 0.1500 0.5422 0.2043
H9_40 H 0.2067 0.5297 0.1983
C7_40 C 0.1887(5) 0.5973(5) 0.1714(5)
C8_40 C 0.1620(5) 0.6095(6) 0.1307(5)
C9_40 C 0.1831(6) 0.6508(5) 0.1123(5)
C10_40 C 0.1711(7) 0.6800(6) 0.0683(6)
H10_40 H 0.1651 0.7139 0.0777
H11_40 H 0.1985 0.6787 0.0454
H12_40 H 0.1419 0.6666 0.0527
N6_28 N 0.3363(4) 0.6387(4) 0.2784(4)
N5_28 N 0.0612(4) 0.4271(4) 0.9523(4)
Ag2_29 Ag 0.72025(4) 0.13555(4) 0.27136(4)
N1_41 N 0.9211(4) 0.0214(4) 0.4330(4)
N3_41 N 0.7738(4) 0.1298(4) 0.3239(4)
H1_41 H 0.8052 0.0138 0.4018
C2_41 C 0.8767(6) 0.0331(5) 0.4133(5)
C3_41 C 0.8795(5) 0.0809(5) 0.3924(5)
C4_41 C 0.9262(6) 0.0947(5) 0.4011(5)
C5_41 C 0.9500(6) 0.1461(6) 0.3915(6)
H4_41 H 0.9256 0.1679 0.3771
H5_41 H 0.9616 0.1598 0.4223
H6_41 H 0.9775 0.1424 0.3690
C6_41 C 0.8169(5) 0.0553(5) 0.2934(5)
H7_41 H 0.8108 0.0668 0.2601
H8_41 H 0.8500 0.0422 0.2957
H9_41 H 0.7933 0.0297 0.3017
C7_41 C 0.8113(5) 0.0973(5) 0.3286(5)
C8_41 C 0.8380(5) 0.1095(6) 0.3693(5)
C9_41 C 0.8169(6) 0.1508(5) 0.3877(5)
C10_41 C 0.8289(7) 0.1800(6) 0.4317(6)
H10_41 H 0.8349 0.2139 0.4223
H11_41 H 0.8015 0.1787 0.4546
H12_41 H 0.8581 0.1666 0.4473
N6_29 N 0.6637(4) 0.1387(4) 0.2216(4)
Ag1_28 Ag 0.43415(4) 0.53019(4) 0.51411(4)
Ag2_30 Ag 0.22025(4) 0.36445(4) 0.72864(4)
N1_42 N 0.4211(4) 0.4786(4) 0.5670(4)
N3_42 N 0.2738(4) 0.3702(4) 0.6761(4)
C1_40 C 0.3353(5) 0.5031(5) 0.5889(7)
H1_42 H 0.3052 0.4862 0.5982
H2_40 H 0.3428 0.5283 0.6131
H3_40 H 0.3310 0.5183 0.5569
C2_42 C 0.3767(6) 0.4669(5) 0.5867(5)
C3_42 C 0.3795(5) 0.4191(5) 0.6076(5)
C4_42 C 0.4262(6) 0.4053(5) 0.5989(5)
C5_42 C 0.4500(6) 0.3539(6) 0.6085(6)
H4_42 H 0.4256 0.3321 0.6229
H5_42 H 0.4616 0.3402 0.5777
H6_42 H 0.4775 0.3576 0.6310
C6_42 C 0.3169(5) 0.4447(5) 0.7066(5)
H7_42 H 0.3108 0.4332 0.7399
H8_42 H 0.3500 0.4578 0.7043
H9_42 H 0.2933 0.4703 0.6983
C7_42 C 0.3113(5) 0.4027(5) 0.6714(5)
C8_42 C 0.3380(5) 0.3905(6) 0.6307(5)
C9_42 C 0.3169(6) 0.3492(5) 0.6123(5)
C10_42 C 0.3289(7) 0.3200(6) 0.5683(6)
H10_42 H 0.3349 0.2861 0.5777
H11_42 H 0.3015 0.3213 0.5454
H12_42 H 0.3581 0.3334 0.5527
N5_29 N 0.4388(4) 0.5729(4) 0.4523(4)
N6_30 N 0.1637(4) 0.3613(4) 0.7784(4)
N5_30 N 0.5612(4) 0.0729(4) 0.0477(4)
N1_43 N 0.5214(4) 0.0670(4) 0.0789(4)
N3_43 N 0.6298(4) 0.1761(4) 0.2262(4)
C1_41 C 0.4969(5) 0.0889(7) 0.1647(5)
H1_43 H 0.5138 0.0982 0.1948
H2_41 H 0.4717 0.1131 0.1572
H3_41 H 0.4817 0.0569 0.1690
C2_43 C 0.5331(5) 0.0867(5) 0.1233(6)
C3_43 C 0.5809(5) 0.1076(5) 0.1205(5)
C4_43 C 0.5947(5) 0.0989(5) 0.0738(6)
C5_43 C 0.6461(6) 0.1085(6) 0.0500(6)
H4_43 H 0.6679 0.1229 0.0744
H5_43 H 0.6598 0.0777 0.0384
H6_43 H 0.6424 0.1310 0.0225
C6_43 C 0.5553(5) 0.2066(5) 0.1831(5)
H7_43 H 0.5668 0.2399 0.1892
H8_43 H 0.5422 0.2043 0.1500
H9_43 H 0.5297 0.1983 0.2067
C7_43 C 0.5973(5) 0.1714(5) 0.1887(5)
C8_43 C 0.6095(6) 0.1307(5) 0.1620(5)
C9_43 C 0.6508(5) 0.1123(5) 0.1831(6)
C10_43 C 0.6800(6) 0.0683(6) 0.1711(7)
H10_43 H 0.7139 0.0777 0.1651
H11_43 H 0.6787 0.0454 0.1985
H12_43 H 0.6666 0.0527 0.1419
N1_44 N 0.0214(4) 0.4330(4) 0.9211(4)
N3_44 N 0.1298(4) 0.3239(4) 0.7738(4)
H1_44 H 0.0138 0.4018 0.8052
C2_44 C 0.0331(5) 0.4133(5) 0.8767(6)
C3_44 C 0.0809(5) 0.3924(5) 0.8795(5)
C4_44 C 0.0947(5) 0.4011(5) 0.9262(6)
C5_44 C 0.1461(6) 0.3915(6) 0.9500(6)
H4_44 H 0.1679 0.3771 0.9256
H5_44 H 0.1598 0.4223 0.9616
H6_44 H 0.1424 0.3690 0.9775
C6_44 C 0.0553(5) 0.2934(5) 0.8169(5)
H7_44 H 0.0668 0.2601 0.8108
H8_44 H 0.0422 0.2957 0.8500
H9_44 H 0.0297 0.3017 0.7933
C7_44 C 0.0973(5) 0.3286(5) 0.8113(5)
C8_44 C 0.1095(6) 0.3693(5) 0.8380(5)
C9_44 C 0.1508(5) 0.3877(5) 0.8169(6)
C10_44 C 0.1800(6) 0.4317(6) 0.8289(7)
H10_44 H 0.2139 0.4223 0.8349
H11_44 H 0.1787 0.4546 0.8015
H12_44 H 0.1666 0.4473 0.8581
N1_45 N 0.4786(4) 0.5670(4) 0.4211(4)
N3_45 N 0.3702(4) 0.6761(4) 0.2738(4)
C1_42 C 0.5031(5) 0.5889(7) 0.3353(5)
H1_45 H 0.4862 0.5982 0.3052
H2_42 H 0.5283 0.6131 0.3428
H3_42 H 0.5183 0.5569 0.3310
C2_45 C 0.4669(5) 0.5867(5) 0.3767(6)
C3_45 C 0.4191(5) 0.6076(5) 0.3795(5)
C4_45 C 0.4053(5) 0.5989(5) 0.4262(6)
C5_45 C 0.3539(6) 0.6085(6) 0.4500(6)
H4_45 H 0.3321 0.6229 0.4256
H5_45 H 0.3402 0.5777 0.4616
H6_45 H 0.3576 0.6310 0.4775
C6_45 C 0.4447(5) 0.7066(5) 0.3169(5)
H7_45 H 0.4332 0.7399 0.3108
H8_45 H 0.4578 0.7043 0.3500
H9_45 H 0.4703 0.6983 0.2933
C7_45 C 0.4027(5) 0.6714(5) 0.3113(5)
C8_45 C 0.3905(6) 0.6307(5) 0.3380(5)
C9_45 C 0.3492(5) 0.6123(5) 0.3169(6)
C10_45 C 0.3200(6) 0.5683(6) 0.3289(7)
H10_45 H 0.2861 0.5777 0.3349
H11_45 H 0.3213 0.5454 0.3015
H12_45 H 0.3334 0.5527 0.3581
Ag3_15 Ag 0.03019(4) 0.98589(4) 0.56585(4)
C1_43 C 0.0031(5) 0.9111(7) 0.6647(5)
H2_43 H 0.0283 0.8869 0.6572
H3_43 H 0.0183 0.9431 0.6690
Ag1_29 Ag 0.48589(4) 0.93415(4) 0.96981(4)
C1_44 C 0.4111(7) 0.8353(5) 0.9969(5)
H2_44 H 0.3869 0.8428 0.9717
H3_44 H 0.4431 0.8310 0.9817
N5_31 N 0.5477(4) 0.9388(4) 0.9271(4)
Ag2_31 Ag 0.77136(4) 0.77975(4) 0.86445(4)
N1_46 N 0.9330(4) 0.5789(4) 0.9786(4)
N2_16 N 0.9271(4) 0.5477(4) 0.9388(4)
N3_46 N 0.8239(4) 0.7262(4) 0.8702(4)
N4_16 N 0.8613(4) 0.7216(4) 0.8363(4)
H1_46 H 0.9018 0.6948 0.9862
C2_46 C 0.9133(5) 0.6233(6) 0.9669(5)
C3_46 C 0.8924(5) 0.6205(5) 0.9191(5)
C4_46 C 0.9011(5) 0.5738(6) 0.9053(5)
C5_46 C 0.8915(6) 0.5500(6) 0.8539(6)
H4_46 H 0.8771 0.5744 0.8321
H5_46 H 0.9223 0.5384 0.8402
H6_46 H 0.8690 0.5225 0.8576
C6_46 C 0.7934(5) 0.6831(5) 0.9447(5)
H7_46 H 0.7601 0.6892 0.9332
H8_46 H 0.7957 0.6500 0.9578
H9_46 H 0.8017 0.7067 0.9703
C7_46 C 0.8286(5) 0.6887(5) 0.9027(5)
C8_46 C 0.8693(5) 0.6620(5) 0.8905(6)
C9_46 C 0.8877(5) 0.6831(6) 0.8492(5)
C10_46 C 0.9317(6) 0.6711(7) 0.8200(6)
H10_46 H 0.9223 0.6651 0.7861
H11_46 H 0.9546 0.6985 0.8213
H12_46 H 0.9473 0.6419 0.8334
Ag3_16 Ag 0.96981(4) 0.48589(4) 0.93415(4)
Ag4_16 Ag 0.86445(4) 0.77136(4) 0.77975(4)
N6_31 N 0.7216(4) 0.8363(4) 0.8613(4)
Ag1_30 Ag 0.93415(4) 0.96981(4) 0.48589(4)
C1_45 C 0.8353(5) 0.9969(5) 0.4111(7)
H2_45 H 0.8428 0.9717 0.3869
H3_45 H 0.8310 0.9817 0.4431
N5_32 N 0.9388(4) 0.9271(4) 0.5477(4)
Ag2_32 Ag 0.77975(4) 0.86445(4) 0.77136(4)
N1_47 N 0.5789(4) 0.9786(4) 0.9330(4)
N3_47 N 0.7262(4) 0.8702(4) 0.8239(4)
H1_47 H 0.6948 0.9862 0.9018
C2_47 C 0.6233(6) 0.9669(5) 0.9133(5)
C3_47 C 0.6205(5) 0.9191(5) 0.8924(5)
C4_47 C 0.5738(6) 0.9053(5) 0.9011(5)
C5_47 C 0.5500(6) 0.8539(6) 0.8915(6)
H4_47 H 0.5744 0.8321 0.8771
H5_47 H 0.5384 0.8402 0.9223
H6_47 H 0.5225 0.8576 0.8690
C6_47 C 0.6831(5) 0.9447(5) 0.7934(5)
H7_47 H 0.6892 0.9332 0.7601
H8_47 H 0.6500 0.9578 0.7957
H9_47 H 0.7067 0.9703 0.8017
C7_47 C 0.6887(5) 0.9027(5) 0.8286(5)
C8_47 C 0.6620(5) 0.8905(6) 0.8693(5)
C9_47 C 0.6831(6) 0.8492(5) 0.8877(5)
C10_47 C 0.6711(7) 0.8200(6) 0.9317(6)
H10_47 H 0.6651 0.7861 0.9223
H11_47 H 0.6985 0.8213 0.9546
H12_47 H 0.6419 0.8334 0.9473
N6_32 N 0.8363(4) 0.8613(4) 0.7216(4)
C1_46 C 0.9969(5) 0.4111(7) 0.8353(5)
H2_46 H 0.9717 0.3869 0.8428
H3_46 H 0.9817 0.4431 0.8310
N1_48 N 0.9786(4) 0.9330(4) 0.5789(4)
N3_48 N 0.8702(4) 0.8239(4) 0.7262(4)
H1_48 H 0.9862 0.9018 0.6948
C2_48 C 0.9669(5) 0.9133(5) 0.6233(6)
C3_48 C 0.9191(5) 0.8924(5) 0.6205(5)
C4_48 C 0.9053(5) 0.9011(5) 0.5738(6)
C5_48 C 0.8539(6) 0.8915(6) 0.5500(6)
H4_48 H 0.8321 0.8771 0.5744
H5_48 H 0.8402 0.9223 0.5384
H6_48 H 0.8576 0.8690 0.5225
C6_48 C 0.9447(5) 0.7934(5) 0.6831(5)
H7_48 H 0.9332 0.7601 0.6892
H8_48 H 0.9578 0.7957 0.6500
H9_48 H 0.9703 0.8017 0.7067
C7_48 C 0.9027(5) 0.8286(5) 0.6887(5)
C8_48 C 0.8905(6) 0.8693(5) 0.6620(5)
C9_48 C 0.8492(5) 0.8877(5) 0.6831(6)
C10_48 C 0.8200(6) 0.9317(6) 0.6711(7)
H10_48 H 0.7861 0.9223 0.6651
H11_48 H 0.8213 0.9546 0.6985
H12_48 H 0.8334 0.9473 0.6419
Ag1_31 Ag 0.98589(4) 0.56585(4) 0.03019(4)
C1_47 C 0.9111(7) 0.6647(5) 0.0031(5)
H2_47 H 0.8869 0.6572 0.0283
H3_47 H 0.9431 0.6690 0.0183
Ag1_32 Ag 0.56585(4) 0.03019(4) 0.98589(4)
C1_48 C 0.6647(5) 0.0031(5) 0.9111(7)
H2_48 H 0.6572 0.0283 0.8869
H3_48 H 0.6690 0.0183 0.9431
loop_
_geom_bond_atom_site_label_1
_geom_bond_atom_site_label_2
_geom_bond_site_symmetry_1
_geom_bond_site_symmetry_2
Ag1 N1 1_555 1_555
Ag2 N3 1_555 1_555
N1 N2 1_555 1_555
N2 C4 1_555 1_555
N3 N4 1_555 1_555
N4 C9 1_555 1_555
C1 H1 1_555 1_555
H2 C1 1_555 1_555
H3 C1 1_555 1_555
C2 N1 1_555 1_555
C3 C2 1_555 1_555
C4 C3 1_555 1_555
C5 C4 1_555 1_555
H4 C5 1_555 1_555
H5 C5 1_555 1_555
H6 C5 1_555 1_555
C6 H7 1_555 1_555
H8 C6 1_555 1_555
H9 C6 1_555 1_555
C7 N3 1_555 1_555
C8 C3 1_555 1_555
C9 C8 1_555 1_555
C10 C9 1_555 1_555
H10 C10 1_555 1_555
H11 C10 1_555 1_555
H12 C10 1_555 1_555
Ag3 N2 1_555 1_555
Ag4 N4 1_555 1_555
N5 Ag1 1_555 1_555
N6 Ag2 1_555 1_555
C1 C2 1_555 1_555
C6 C7 1_555 1_555
C7 C8 1_555 1_555
Ag1_2 N1_2 1_555 1_555
N1_2 N2_2 1_555 1_555
N2_2 C4_2 1_555 1_555
N3_2 N4_2 1_555 1_555
N4_2 C9_2 1_555 1_555
C1_2 H1_2 1_555 1_555
H2_2 C1_2 1_555 1_555
H3_2 C1_2 1_555 1_555
C2_2 N1_2 1_555 1_555
C3_2 C2_2 1_555 1_555
C4_2 C3_2 1_555 1_555
C5_2 C4_2 1_555 1_555
H4_2 C5_2 1_555 1_555
H5_2 C5_2 1_555 1_555
H6_2 C5_2 1_555 1_555
C6_2 H7_2 1_555 1_555
H8_2 C6_2 1_555 1_555
H9_2 C6_2 1_555 1_555
C7_2 N3_2 1_555 1_555
C8_2 C3_2 1_555 1_555
C9_2 C8_2 1_555 1_555
C10_2 C9_2 1_555 1_555
H10_2 C10_2 1_555 1_555
H11_2 C10_2 1_555 1_555
H12_2 C10_2 1_555 1_555
Ag3_2 N2_2 1_555 1_555
N5_2 Ag1_2 1_555 1_555
C1_2 C2_2 1_555 1_555
C6_2 C7_2 1_555 1_555
C7_2 C8_2 1_555 1_555
N6_2 Ag2_2 1_555 1_555
Ag1_3 N1_3 1_555 1_555
Ag2_3 N3_3 1_555 1_555
N1_3 N2_3 1_555 1_555
N2_3 C4_3 1_555 1_555
N3_3 N4_3 1_555 1_555
N4_3 C9_3 1_555 1_555
C1_3 H1_3 1_555 1_555
H2_3 C1_3 1_555 1_555
H3_3 C1_3 1_555 1_555
C2_3 N1_3 1_555 1_555
C3_3 C2_3 1_555 1_555
C4_3 C3_3 1_555 1_555
C5_3 C4_3 1_555 1_555
H4_3 C5_3 1_555 1_555
H5_3 C5_3 1_555 1_555
H6_3 C5_3 1_555 1_555
C6_3 H7_3 1_555 1_555
H8_3 C6_3 1_555 1_555
H9_3 C6_3 1_555 1_555
C7_3 N3_3 1_555 1_555
C8_3 C3_3 1_555 1_555
C9_3 C8_3 1_555 1_555
C10_3 C9_3 1_555 1_555
H10_3 C10_3 1_555 1_555
H11_3 C10_3 1_555 1_555
H12_3 C10_3 1_555 1_555
Ag3_3 N2_3 1_555 1_555
Ag4_3 N4_3 1_555 1_555
N5_3 Ag1_3 1_555 1_555
C1_3 C2_3 1_555 1_555
C6_3 C7_3 1_555 1_555
C7_3 C8_3 1_555 1_555
Ag1_4 N1_4 1_555 1_555
N1_4 N2_4 1_555 1_555
N2_4 C4_4 1_555 1_555
N3_4 N4_4 1_555 1_555
N4_4 C9_4 1_555 1_555
C1_4 H1_4 1_555 1_555
H2_4 C1_4 1_555 1_555
H3_4 C1_4 1_555 1_555
C2_4 N1_4 1_555 1_555
C3_4 C2_4 1_555 1_555
C4_4 C3_4 1_555 1_555
C5_4 C4_4 1_555 1_555
H4_4 C5_4 1_555 1_555
H5_4 C5_4 1_555 1_555
H6_4 C5_4 1_555 1_555
C6_4 H7_4 1_555 1_555
H8_4 C6_4 1_555 1_555
H9_4 C6_4 1_555 1_555
C7_4 N3_4 1_555 1_555
C8_4 C3_4 1_555 1_555
C9_4 C8_4 1_555 1_555
C10_4 C9_4 1_555 1_555
H10_4 C10_4 1_555 1_555
H11_4 C10_4 1_555 1_555
H12_4 C10_4 1_555 1_555
Ag3_4 N2_4 1_555 1_555
N5_4 Ag1_4 1_555 1_555
C1_4 C2_4 1_555 1_555
C6_4 C7_4 1_555 1_555
C7_4 C8_4 1_555 1_555
Ag1_5 N1_5 1_555 1_555
Ag2_4 N3_5 1_555 1_555
N1_5 N5_4 1_555 1_555
N5_4 C4_5 1_555 1_555
N3_5 N6_2 1_555 1_555
N6_2 C9_5 1_555 1_555
C1_5 H1_5 1_555 1_555
H2_5 C1_5 1_555 1_555
H3_5 C1_5 1_555 1_555
C2_5 N1_5 1_555 1_555
C3_5 C2_5 1_555 1_555
C4_5 C3_5 1_555 1_555
C5_5 C4_5 1_555 1_555
H4_5 C5_5 1_555 1_555
H5_5 C5_5 1_555 1_555
H6_5 C5_5 1_555 1_555
C6_5 H7_5 1_555 1_555
H8_5 C6_5 1_555 1_555
H9_5 C6_5 1_555 1_555
C7_5 N3_5 1_555 1_555
C8_5 C3_5 1_555 1_555
C9_5 C8_5 1_555 1_555
C10_5 C9_5 1_555 1_555
H10_5 C10_5 1_555 1_555
H11_5 C10_5 1_555 1_555
H12_5 C10_5 1_555 1_555
N5_5 Ag1_5 1_555 1_555
N6_5 Ag2_4 1_555 1_555
C1_5 C2_5 1_555 1_555
C6_5 C7_5 1_555 1_555
C7_5 C8_5 1_555 1_555
Ag1_6 N1_6 1_555 1_555
N1_6 N5 1_555 1_555
N5 C4_6 1_555 1_555
N3_6 N6_3 1_555 1_555
N6_3 C9_6 1_555 1_555
C1_6 H1_6 1_555 1_555
H2_6 C1_6 1_555 1_555
H3_6 C1_6 1_555 1_555
C2_6 N1_6 1_555 1_555
C3_6 C2_6 1_555 1_555
C4_6 C3_6 1_555 1_555
C5_6 C4_6 1_555 1_555
H4_6 C5_6 1_555 1_555
H5_6 C5_6 1_555 1_555
H6_6 C5_6 1_555 1_555
C6_6 H7_6 1_555 1_555
H8_6 C6_6 1_555 1_555
H9_6 C6_6 1_555 1_555
C7_6 N3_6 1_555 1_555
C8_6 C3_6 1_555 1_555
C9_6 C8_6 1_555 1_555
C10_6 C9_6 1_555 1_555
H10_6 C10_6 1_555 1_555
H11_6 C10_6 1_555 1_555
H12_6 C10_6 1_555 1_555
N5_6 Ag1_6 1_555 1_555
C1_6 C2_6 1_555 1_555
C6_6 C7_6 1_555 1_555
C7_6 C8_6 1_555 1_555
N6_6 Ag2_5 1_555 1_555
Ag1_7 N1_7 1_555 1_555
Ag2_6 N3_7 1_555 1_555
N1_7 N5_3 1_555 1_555
N5_3 C4_7 1_555 1_555
N3_7 N6 1_555 1_555
N6 C9_7 1_555 1_555
C1_7 H1_7 1_555 1_555
H2_7 C1_7 1_555 1_555
H3_7 C1_7 1_555 1_555
C2_7 N1_7 1_555 1_555
C3_7 C2_7 1_555 1_555
C4_7 C3_7 1_555 1_555
C5_7 C4_7 1_555 1_555
H4_7 C5_7 1_555 1_555
H5_7 C5_7 1_555 1_555
H6_7 C5_7 1_555 1_555
C6_7 H7_7 1_555 1_555
H8_7 C6_7 1_555 1_555
H9_7 C6_7 1_555 1_555
C7_7 N3_7 1_555 1_555
C8_7 C3_7 1_555 1_555
C9_7 C8_7 1_555 1_555
C10_7 C9_7 1_555 1_555
H10_7 C10_7 1_555 1_555
H11_7 C10_7 1_555 1_555
H12_7 C10_7 1_555 1_555
N5_7 Ag1_7 1_555 1_555
C1_7 C2_7 1_555 1_555
C6_7 C7_7 1_555 1_555
C7_7 C8_7 1_555 1_555
Ag1_8 N1_8 1_555 1_555
N1_8 N5_2 1_555 1_555
N5_2 C4_8 1_555 1_555
N3_8 N6_4 1_555 1_555
N6_4 C9_8 1_555 1_555
C1_8 H1_8 1_555 1_555
H2_8 C1_8 1_555 1_555
H3_8 C1_8 1_555 1_555
C2_8 N1_8 1_555 1_555
C3_8 C2_8 1_555 1_555
C4_8 C3_8 1_555 1_555
C5_8 C4_8 1_555 1_555
H4_8 C5_8 1_555 1_555
H5_8 C5_8 1_555 1_555
H6_8 C5_8 1_555 1_555
C6_8 H7_8 1_555 1_555
H8_8 C6_8 1_555 1_555
H9_8 C6_8 1_555 1_555
C7_8 N3_8 1_555 1_555
C8_8 C3_8 1_555 1_555
C9_8 C8_8 1_555 1_555
C10_8 C9_8 1_555 1_555
H10_8 C10_8 1_555 1_555
H11_8 C10_8 1_555 1_555
H12_8 C10_8 1_555 1_555
N5_8 Ag1_8 1_555 1_555
C1_8 C2_8 1_555 1_555
C6_8 C7_8 1_555 1_555
C7_8 C8_8 1_555 1_555
Ag3_2 N1_9 1_555 1_555
Ag4_3 N3_9 1_555 1_555
N1_9 N5_8 1_555 1_555
N5_8 C4_9 1_555 1_555
N3_9 N6_6 1_555 1_555
N6_6 C9_9 1_555 1_555
C1_9 H1_9 1_555 1_555
H2_9 C1_9 1_555 1_555
H3_9 C1_9 1_555 1_555
C2_9 N1_9 1_555 1_555
C3_9 C2_9 1_555 1_555
C4_9 C3_9 1_555 1_555
C5_9 C4_9 1_555 1_555
H4_9 C5_9 1_555 1_555
H5_9 C5_9 1_555 1_555
H6_9 C5_9 1_555 1_555
C6_9 H7_9 1_555 1_555
H8_9 C6_9 1_555 1_555
H9_9 C6_9 1_555 1_555
C7_9 N3_9 1_555 1_555
C8_9 C3_9 1_555 1_555
C9_9 C8_9 1_555 1_555
C10_9 C9_9 1_555 1_555
H10_9 C10_9 1_555 1_555
H11_9 C10_9 1_555 1_555
H12_9 C10_9 1_555 1_555
C1_9 C2_9 1_555 1_555
C6_9 C7_9 1_555 1_555
C7_9 C8_9 1_555 1_555
Ag3_4 N1_10 1_555 1_555
N1_10 N5_5 1_555 1_555
N5_5 C4_10 1_555 1_555
N3_10 N6_7 1_555 1_555
N6_7 C9_10 1_555 1_555
C1_10 H1_10 1_555 1_555
H2_10 C1_10 1_555 1_555
H3_10 C1_10 1_555 1_555
C2_10 N1_10 1_555 1_555
C3_10 C2_10 1_555 1_555
C4_10 C3_10 1_555 1_555
C5_10 C4_10 1_555 1_555
H4_10 C5_10 1_555 1_555
H5_10 C5_10 1_555 1_555
H6_10 C5_10 1_555 1_555
C6_10 H7_10 1_555 1_555
H8_10 C6_10 1_555 1_555
H9_10 C6_10 1_555 1_555
C7_10 N3_10 1_555 1_555
C8_10 C3_10 1_555 1_555
C9_10 C8_10 1_555 1_555
C10_10 C9_10 1_555 1_555
H10_10 C10_10 1_555 1_555
H11_10 C10_10 1_555 1_555
H12_10 C10_10 1_555 1_555
C1_10 C2_10 1_555 1_555
C6_10 C7_10 1_555 1_555
C7_10 C8_10 1_555 1_555
Ag3_3 N1_11 1_555 1_555
Ag4_2 N3_11 1_555 1_555
N1_11 N5_7 1_555 1_555
N5_7 C4_11 1_555 1_555
N3_11 N6_5 1_555 1_555
N6_5 C9_11 1_555 1_555
C1_11 H1_11 1_555 1_555
H2_11 C1_11 1_555 1_555
H3_11 C1_11 1_555 1_555
C2_11 N1_11 1_555 1_555
C3_11 C2_11 1_555 1_555
C4_11 C3_11 1_555 1_555
C5_11 C4_11 1_555 1_555
H4_11 C5_11 1_555 1_555
H5_11 C5_11 1_555 1_555
H6_11 C5_11 1_555 1_555
C6_11 H7_11 1_555 1_555
H8_11 C6_11 1_555 1_555
H9_11 C6_11 1_555 1_555
C7_11 N3_11 1_555 1_555
C8_11 C3_11 1_555 1_555
C9_11 C8_11 1_555 1_555
C10_11 C9_11 1_555 1_555
H10_11 C10_11 1_555 1_555
H11_11 C10_11 1_555 1_555
H12_11 C10_11 1_555 1_555
C1_11 C2_11 1_555 1_555
C6_11 C7_11 1_555 1_555
C7_11 C8_11 1_555 1_555
Ag3 N1_12 1_555 1_555
N1_12 N5_6 1_555 1_555
N5_6 C4_12 1_555 1_555
N3_12 N6_8 1_555 1_555
N6_8 C9_12 1_555 1_555
C1_12 H1_12 1_555 1_555
H2_12 C1_12 1_555 1_555
H3_12 C1_12 1_555 1_555
C2_12 N1_12 1_555 1_555
C3_12 C2_12 1_555 1_555
C4_12 C3_12 1_555 1_555
C5_12 C4_12 1_555 1_555
H4_12 C5_12 1_555 1_555
H5_12 C5_12 1_555 1_555
H6_12 C5_12 1_555 1_555
C6_12 H7_12 1_555 1_555
H8_12 C6_12 1_555 1_555
H9_12 C6_12 1_555 1_555
C7_12 N3_12 1_555 1_555
C8_12 C3_12 1_555 1_555
C9_12 C8_12 1_555 1_555
C10_12 C9_12 1_555 1_555
H10_12 C10_12 1_555 1_555
H11_12 C10_12 1_555 1_555
H12_12 C10_12 1_555 1_555
C1_12 C2_12 1_555 1_555
C6_12 C7_12 1_555 1_555
C7_12 C8_12 1_555 1_555
Ag2_9 N3_13 1_555 1_555
N1_13 N2_5 1_555 1_555
N2_5 C4_13 1_555 1_555
N3_13 N4_5 1_555 1_555
N4_5 C9_13 1_555 1_555
C2_13 N1_13 1_555 1_555
C3_13 C2_13 1_555 1_555
C4_13 C3_13 1_555 1_555
C5_13 C4_13 1_555 1_555
H4_13 C5_13 1_555 1_555
H5_13 C5_13 1_555 1_555
H6_13 C5_13 1_555 1_555
C6_13 H7_13 1_555 1_555
H8_13 C6_13 1_555 1_555
H9_13 C6_13 1_555 1_555
C7_13 N3_13 1_555 1_555
C8_13 C3_13 1_555 1_555
C9_13 C8_13 1_555 1_555
C10_13 C9_13 1_555 1_555
H10_13 C10_13 1_555 1_555
H11_13 C10_13 1_555 1_555
H12_13 C10_13 1_555 1_555
Ag3_5 N2_5 1_555 1_555
Ag4_5 N4_5 1_555 1_555
N6_9 Ag2_9 1_555 1_555
C6_13 C7_13 1_555 1_555
C7_13 C8_13 1_555 1_555
H2_13 C1_13 1_555 1_555
H3_13 C1_13 1_555 1_555
N5_9 Ag1_9 1_555 1_555
Ag1_10 N1_14 1_555 1_555
Ag2_10 N3_14 1_555 1_555
N1_14 N2_6 1_555 1_555
N2_6 C4_14 1_555 1_555
N3_14 N4_6 1_555 1_555
N4_6 C9_14 1_555 1_555
C1_14 H1_14 1_555 1_555
H2_14 C1_14 1_555 1_555
H3_14 C1_14 1_555 1_555
C2_14 N1_14 1_555 1_555
C3_14 C2_14 1_555 1_555
C4_14 C3_14 1_555 1_555
C5_14 C4_14 1_555 1_555
H4_14 C5_14 1_555 1_555
H5_14 C5_14 1_555 1_555
H6_14 C5_14 1_555 1_555
C6_14 H7_14 1_555 1_555
H8_14 C6_14 1_555 1_555
H9_14 C6_14 1_555 1_555
C7_14 N3_14 1_555 1_555
C8_14 C3_14 1_555 1_555
C9_14 C8_14 1_555 1_555
C10_14 C9_14 1_555 1_555
H10_14 C10_14 1_555 1_555
H11_14 C10_14 1_555 1_555
H12_14 C10_14 1_555 1_555
Ag3_6 N2_6 1_555 1_555
Ag4_6 N4_6 1_555 1_555
N6_10 Ag2_10 1_555 1_555
C1_14 C2_14 1_555 1_555
C6_14 C7_14 1_555 1_555
C7_14 C8_14 1_555 1_555
Ag2_11 N3_15 1_555 1_555
N1_15 N2_7 1_555 1_555
N2_7 C4_15 1_555 1_555
N3_15 N4_7 1_555 1_555
N4_7 C9_15 1_555 1_555
C2_15 N1_15 1_555 1_555
C3_15 C2_15 1_555 1_555
C4_15 C3_15 1_555 1_555
C5_15 C4_15 1_555 1_555
H4_15 C5_15 1_555 1_555
H5_15 C5_15 1_555 1_555
H6_15 C5_15 1_555 1_555
C6_15 H7_15 1_555 1_555
H8_15 C6_15 1_555 1_555
H9_15 C6_15 1_555 1_555
C7_15 N3_15 1_555 1_555
C8_15 C3_15 1_555 1_555
C9_15 C8_15 1_555 1_555
C10_15 C9_15 1_555 1_555
H10_15 C10_15 1_555 1_555
H11_15 C10_15 1_555 1_555
H12_15 C10_15 1_555 1_555
Ag4_7 N4_7 1_555 1_555
N6_11 Ag2_11 1_555 1_555
C6_15 C7_15 1_555 1_555
C7_15 C8_15 1_555 1_555
Ag1_11 N1_16 1_555 1_555
Ag2_12 N3_16 1_555 1_555
N1_16 N2_8 1_555 1_555
N2_8 C4_16 1_555 1_555
N3_16 N4_8 1_555 1_555
N4_8 C9_16 1_555 1_555
C1_15 H1_16 1_555 1_555
H2_15 C1_15 1_555 1_555
H3_15 C1_15 1_555 1_555
C2_16 N1_16 1_555 1_555
C3_16 C2_16 1_555 1_555
C4_16 C3_16 1_555 1_555
C5_16 C4_16 1_555 1_555
H4_16 C5_16 1_555 1_555
H5_16 C5_16 1_555 1_555
H6_16 C5_16 1_555 1_555
C6_16 H7_16 1_555 1_555
H8_16 C6_16 1_555 1_555
H9_16 C6_16 1_555 1_555
C7_16 N3_16 1_555 1_555
C8_16 C3_16 1_555 1_555
C9_16 C8_16 1_555 1_555
C10_16 C9_16 1_555 1_555
H10_16 C10_16 1_555 1_555
H11_16 C10_16 1_555 1_555
H12_16 C10_16 1_555 1_555
Ag4_8 N4_8 1_555 1_555
N5_12 Ag1_11 1_555 1_555
N6_12 Ag2_12 1_555 1_555
C1_15 C2_16 1_555 1_555
C6_16 C7_16 1_555 1_555
C7_16 C8_16 1_555 1_555
Ag2_13 N3_17 1_555 1_555
N1_17 N5_12 1_555 1_555
N5_12 C4_17 1_555 1_555
N3_17 N6_10 1_555 1_555
N6_10 C9_17 1_555 1_555
C2_17 N1_17 1_555 1_555
C3_17 C2_17 1_555 1_555
C4_17 C3_17 1_555 1_555
C5_17 C4_17 1_555 1_555
H4_17 C5_17 1_555 1_555
H5_17 C5_17 1_555 1_555
H6_17 C5_17 1_555 1_555
C6_17 H7_17 1_555 1_555
H8_17 C6_17 1_555 1_555
H9_17 C6_17 1_555 1_555
C7_17 N3_17 1_555 1_555
C8_17 C3_17 1_555 1_555
C9_17 C8_17 1_555 1_555
C10_17 C9_17 1_555 1_555
H10_17 C10_17 1_555 1_555
H11_17 C10_17 1_555 1_555
H12_17 C10_17 1_555 1_555
N6_13 Ag2_13 1_555 1_555
C6_17 C7_17 1_555 1_555
C7_17 C8_17 1_555 1_555
H2_16 C1_16 1_555 1_555
H3_16 C1_16 1_555 1_555
N5_13 Ag1_12 1_555 1_555
Ag1_13 N1_18 1_555 1_555
Ag2_14 N3_18 1_555 1_555
N1_18 N5_9 1_555 1_555
N5_9 C4_18 1_555 1_555
N3_18 N6_11 1_555 1_555
N6_11 C9_18 1_555 1_555
C1_17 H1_18 1_555 1_555
H2_17 C1_17 1_555 1_555
H3_17 C1_17 1_555 1_555
C2_18 N1_18 1_555 1_555
C3_18 C2_18 1_555 1_555
C4_18 C3_18 1_555 1_555
C5_18 C4_18 1_555 1_555
H4_18 C5_18 1_555 1_555
H5_18 C5_18 1_555 1_555
H6_18 C5_18 1_555 1_555
C6_18 H7_18 1_555 1_555
H8_18 C6_18 1_555 1_555
H9_18 C6_18 1_555 1_555
C7_18 N3_18 1_555 1_555
C8_18 C3_18 1_555 1_555
C9_18 C8_18 1_555 1_555
C10_18 C9_18 1_555 1_555
H10_18 C10_18 1_555 1_555
H11_18 C10_18 1_555 1_555
H12_18 C10_18 1_555 1_555
N6_14 Ag2_14 1_555 1_555
C1_17 C2_18 1_555 1_555
C6_18 C7_18 1_555 1_555
C7_18 C8_18 1_555 1_555
Ag2_15 N3_19 1_555 1_555
N1_19 N5_11 1_555 1_555
N5_11 C4_19 1_555 1_555
N3_19 N6_9 1_555 1_555
N6_9 C9_19 1_555 1_555
C2_19 N1_19 1_555 1_555
C3_19 C2_19 1_555 1_555
C4_19 C3_19 1_555 1_555
C5_19 C4_19 1_555 1_555
H4_19 C5_19 1_555 1_555
H5_19 C5_19 1_555 1_555
H6_19 C5_19 1_555 1_555
C6_19 H7_19 1_555 1_555
H8_19 C6_19 1_555 1_555
H9_19 C6_19 1_555 1_555
C7_19 N3_19 1_555 1_555
C8_19 C3_19 1_555 1_555
C9_19 C8_19 1_555 1_555
C10_19 C9_19 1_555 1_555
H10_19 C10_19 1_555 1_555
H11_19 C10_19 1_555 1_555
H12_19 C10_19 1_555 1_555
N6_15 Ag2_15 1_555 1_555
C6_19 C7_19 1_555 1_555
C7_19 C8_19 1_555 1_555
Ag1_14 N1_20 1_555 1_555
Ag2_16 N3_20 1_555 1_555
N1_20 N5_10 1_555 1_555
N5_10 C4_20 1_555 1_555
N3_20 N6_12 1_555 1_555
N6_12 C9_20 1_555 1_555
C1_18 H1_20 1_555 1_555
H2_18 C1_18 1_555 1_555
H3_18 C1_18 1_555 1_555
C2_20 N1_20 1_555 1_555
C3_20 C2_20 1_555 1_555
C4_20 C3_20 1_555 1_555
C5_20 C4_20 1_555 1_555
H4_20 C5_20 1_555 1_555
H5_20 C5_20 1_555 1_555
H6_20 C5_20 1_555 1_555
C6_20 H7_20 1_555 1_555
H8_20 C6_20 1_555 1_555
H9_20 C6_20 1_555 1_555
C7_20 N3_20 1_555 1_555
C8_20 C3_20 1_555 1_555
C9_20 C8_20 1_555 1_555
C10_20 C9_20 1_555 1_555
H10_20 C10_20 1_555 1_555
H11_20 C10_20 1_555 1_555
H12_20 C10_20 1_555 1_555
N5_16 Ag1_14 1_555 1_555
N6_16 Ag2_16 1_555 1_555
C1_18 C2_20 1_555 1_555
C6_20 C7_20 1_555 1_555
C7_20 C8_20 1_555 1_555
Ag4_7 N3_21 1_555 1_555
N1_21 N5_16 1_555 1_555
N5_16 C4_21 1_555 1_555
N3_21 N6_14 1_555 1_555
N6_14 C9_21 1_555 1_555
C2_21 N1_21 1_555 1_555
C3_21 C2_21 1_555 1_555
C4_21 C3_21 1_555 1_555
C5_21 C4_21 1_555 1_555
H4_21 C5_21 1_555 1_555
H5_21 C5_21 1_555 1_555
H6_21 C5_21 1_555 1_555
C6_21 H7_21 1_555 1_555
H8_21 C6_21 1_555 1_555
H9_21 C6_21 1_555 1_555
C7_21 N3_21 1_555 1_555
C8_21 C3_21 1_555 1_555
C9_21 C8_21 1_555 1_555
C10_21 C9_21 1_555 1_555
H10_21 C10_21 1_555 1_555
H11_21 C10_21 1_555 1_555
H12_21 C10_21 1_555 1_555
C6_21 C7_21 1_555 1_555
C7_21 C8_21 1_555 1_555
H2_19 C1_19 1_555 1_555
H3_19 C1_19 1_555 1_555
Ag3_7 N1_22 1_555 1_555
Ag4_5 N3_22 1_555 1_555
N1_22 N5_13 1_555 1_555
N5_13 C4_22 1_555 1_555
N3_22 N6_15 1_555 1_555
N6_15 C9_22 1_555 1_555
C1_20 H1_22 1_555 1_555
H2_20 C1_20 1_555 1_555
H3_20 C1_20 1_555 1_555
C2_22 N1_22 1_555 1_555
C3_22 C2_22 1_555 1_555
C4_22 C3_22 1_555 1_555
C5_22 C4_22 1_555 1_555
H4_22 C5_22 1_555 1_555
H5_22 C5_22 1_555 1_555
H6_22 C5_22 1_555 1_555
C6_22 H7_22 1_555 1_555
H8_22 C6_22 1_555 1_555
H9_22 C6_22 1_555 1_555
C7_22 N3_22 1_555 1_555
C8_22 C3_22 1_555 1_555
C9_22 C8_22 1_555 1_555
C10_22 C9_22 1_555 1_555
H10_22 C10_22 1_555 1_555
H11_22 C10_22 1_555 1_555
H12_22 C10_22 1_555 1_555
C1_20 C2_22 1_555 1_555
C6_22 C7_22 1_555 1_555
C7_22 C8_22 1_555 1_555
Ag4_6 N3_23 1_555 1_555
N1_23 N5_15 1_555 1_555
N5_15 C4_23 1_555 1_555
N3_23 N6_13 1_555 1_555
N6_13 C9_23 1_555 1_555
C2_23 N1_23 1_555 1_555
C3_23 C2_23 1_555 1_555
C4_23 C3_23 1_555 1_555
C5_23 C4_23 1_555 1_555
H4_23 C5_23 1_555 1_555
H5_23 C5_23 1_555 1_555
H6_23 C5_23 1_555 1_555
C6_23 H7_23 1_555 1_555
H8_23 C6_23 1_555 1_555
H9_23 C6_23 1_555 1_555
C7_23 N3_23 1_555 1_555
C8_23 C3_23 1_555 1_555
C9_23 C8_23 1_555 1_555
C10_23 C9_23 1_555 1_555
H10_23 C10_23 1_555 1_555
H11_23 C10_23 1_555 1_555
H12_23 C10_23 1_555 1_555
C6_23 C7_23 1_555 1_555
C7_23 C8_23 1_555 1_555
Ag3_5 N1_24 1_555 1_555
Ag4_8 N3_24 1_555 1_555
N1_24 N5_14 1_555 1_555
N5_14 C4_24 1_555 1_555
N3_24 N6_16 1_555 1_555
N6_16 C9_24 1_555 1_555
C1_21 H1_24 1_555 1_555
H2_21 C1_21 1_555 1_555
H3_21 C1_21 1_555 1_555
C2_24 N1_24 1_555 1_555
C3_24 C2_24 1_555 1_555
C4_24 C3_24 1_555 1_555
C5_24 C4_24 1_555 1_555
H4_24 C5_24 1_555 1_555
H5_24 C5_24 1_555 1_555
H6_24 C5_24 1_555 1_555
C6_24 H7_24 1_555 1_555
H8_24 C6_24 1_555 1_555
H9_24 C6_24 1_555 1_555
C7_24 N3_24 1_555 1_555
C8_24 C3_24 1_555 1_555
C9_24 C8_24 1_555 1_555
C10_24 C9_24 1_555 1_555
H10_24 C10_24 1_555 1_555
H11_24 C10_24 1_555 1_555
H12_24 C10_24 1_555 1_555
C1_21 C2_24 1_555 1_555
C6_24 C7_24 1_555 1_555
C7_24 C8_24 1_555 1_555
H2_22 C1_22 1_555 1_555
H3_22 C1_22 1_555 1_555
H2_23 C1_23 1_555 1_555
H3_23 C1_23 1_555 1_555
H2_24 C1_24 1_555 1_555
H3_24 C1_24 1_555 1_555
Ag1_17 N1_25 1_555 1_555
N1_25 N2_9 1_555 1_555
N2_9 C4_25 1_555 1_555
N3_25 N4_9 1_555 1_555
N4_9 C9_25 1_555 1_555
C1_25 H1_25 1_555 1_555
H2_25 C1_25 1_555 1_555
H3_25 C1_25 1_555 1_555
C2_25 N1_25 1_555 1_555
C3_25 C2_25 1_555 1_555
C4_25 C3_25 1_555 1_555
C5_25 C4_25 1_555 1_555
H4_25 C5_25 1_555 1_555
H5_25 C5_25 1_555 1_555
H6_25 C5_25 1_555 1_555
C6_25 H7_25 1_555 1_555
H8_25 C6_25 1_555 1_555
H9_25 C6_25 1_555 1_555
C7_25 N3_25 1_555 1_555
C8_25 C3_25 1_555 1_555
C9_25 C8_25 1_555 1_555
C10_25 C9_25 1_555 1_555
H10_25 C10_25 1_555 1_555
H11_25 C10_25 1_555 1_555
H12_25 C10_25 1_555 1_555
Ag3_9 N2_9 1_555 1_555
N5_17 Ag1_17 1_555 1_555
C1_25 C2_25 1_555 1_555
C6_25 C7_25 1_555 1_555
C7_25 C8_25 1_555 1_555
Ag1_18 N1_26 1_555 1_555
N1_26 N5_17 1_555 1_555
N5_17 C4_26 1_555 1_555
N3_26 N6_17 1_555 1_555
N6_17 C9_26 1_555 1_555
C1_26 H1_26 1_555 1_555
H2_26 C1_26 1_555 1_555
H3_26 C1_26 1_555 1_555
C2_26 N1_26 1_555 1_555
C3_26 C2_26 1_555 1_555
C4_26 C3_26 1_555 1_555
C5_26 C4_26 1_555 1_555
H4_26 C5_26 1_555 1_555
H5_26 C5_26 1_555 1_555
H6_26 C5_26 1_555 1_555
C6_26 H7_26 1_555 1_555
H8_26 C6_26 1_555 1_555
H9_26 C6_26 1_555 1_555
C7_26 N3_26 1_555 1_555
C8_26 C3_26 1_555 1_555
C9_26 C8_26 1_555 1_555
C10_26 C9_26 1_555 1_555
H10_26 C10_26 1_555 1_555
H11_26 C10_26 1_555 1_555
H12_26 C10_26 1_555 1_555
N5_18 Ag1_18 1_555 1_555
C1_26 C2_26 1_555 1_555
C6_26 C7_26 1_555 1_555
C7_26 C8_26 1_555 1_555
Ag3_9 N1_27 1_555 1_555
N1_27 N5_18 1_555 1_555
N5_18 C4_27 1_555 1_555
N3_27 N6_18 1_555 1_555
N6_18 C9_27 1_555 1_555
C1_27 H1_27 1_555 1_555
H2_27 C1_27 1_555 1_555
H3_27 C1_27 1_555 1_555
C2_27 N1_27 1_555 1_555
C3_27 C2_27 1_555 1_555
C4_27 C3_27 1_555 1_555
C5_27 C4_27 1_555 1_555
H4_27 C5_27 1_555 1_555
H5_27 C5_27 1_555 1_555
H6_27 C5_27 1_555 1_555
C6_27 H7_27 1_555 1_555
H8_27 C6_27 1_555 1_555
H9_27 C6_27 1_555 1_555
C7_27 N3_27 1_555 1_555
C8_27 C3_27 1_555 1_555
C9_27 C8_27 1_555 1_555
C10_27 C9_27 1_555 1_555
H10_27 C10_27 1_555 1_555
H11_27 C10_27 1_555 1_555
H12_27 C10_27 1_555 1_555
C1_27 C2_27 1_555 1_555
C6_27 C7_27 1_555 1_555
C7_27 C8_27 1_555 1_555
Ag1_19 N1_28 1_555 1_555
N1_28 N2_10 1_555 1_555
N2_10 C4_28 1_555 1_555
N3_28 N4_10 1_555 1_555
N4_10 C9_28 1_555 1_555
C1_28 H1_28 1_555 1_555
H2_28 C1_28 1_555 1_555
H3_28 C1_28 1_555 1_555
C2_28 N1_28 1_555 1_555
C3_28 C2_28 1_555 1_555
C4_28 C3_28 1_555 1_555
C5_28 C4_28 1_555 1_555
H4_28 C5_28 1_555 1_555
H5_28 C5_28 1_555 1_555
H6_28 C5_28 1_555 1_555
C6_28 H7_28 1_555 1_555
H8_28 C6_28 1_555 1_555
H9_28 C6_28 1_555 1_555
C7_28 N3_28 1_555 1_555
C8_28 C3_28 1_555 1_555
C9_28 C8_28 1_555 1_555
C10_28 C9_28 1_555 1_555
H10_28 C10_28 1_555 1_555
H11_28 C10_28 1_555 1_555
H12_28 C10_28 1_555 1_555
Ag3_10 N2_10 1_555 1_555
N5_19 Ag1_19 1_555 1_555
C1_28 C2_28 1_555 1_555
C6_28 C7_28 1_555 1_555
C7_28 C8_28 1_555 1_555
Ag1_20 N1_29 1_555 1_555
Ag2_18 N3_29 1_555 1_555
N1_29 N2_11 1_555 1_555
N2_11 C4_29 1_555 1_555
N3_29 N4_11 1_555 1_555
N4_11 C9_29 1_555 1_555
C1_29 H1_29 1_555 1_555
H2_29 C1_29 1_555 1_555
H3_29 C1_29 1_555 1_555
C2_29 N1_29 1_555 1_555
C3_29 C2_29 1_555 1_555
C4_29 C3_29 1_555 1_555
C5_29 C4_29 1_555 1_555
H4_29 C5_29 1_555 1_555
H5_29 C5_29 1_555 1_555
H6_29 C5_29 1_555 1_555
C6_29 H7_29 1_555 1_555
H8_29 C6_29 1_555 1_555
H9_29 C6_29 1_555 1_555
C7_29 N3_29 1_555 1_555
C8_29 C3_29 1_555 1_555
C9_29 C8_29 1_555 1_555
C10_29 C9_29 1_555 1_555
H10_29 C10_29 1_555 1_555
H11_29 C10_29 1_555 1_555
H12_29 C10_29 1_555 1_555
Ag3_11 N2_11 1_555 1_555
Ag4_10 N4_11 1_555 1_555
N5_20 Ag1_20 1_555 1_555
C1_29 C2_29 1_555 1_555
C6_29 C7_29 1_555 1_555
C7_29 C8_29 1_555 1_555
N6_20 Ag2_19 1_555 1_555
Ag1_21 N1_30 1_555 1_555
Ag2_20 N3_30 1_555 1_555
N1_30 N2_12 1_555 1_555
N2_12 C4_30 1_555 1_555
N3_30 N4_12 1_555 1_555
N4_12 C9_30 1_555 1_555
C1_30 H1_30 1_555 1_555
H2_30 C1_30 1_555 1_555
H3_30 C1_30 1_555 1_555
C2_30 N1_30 1_555 1_555
C3_30 C2_30 1_555 1_555
C4_30 C3_30 1_555 1_555
C5_30 C4_30 1_555 1_555
H4_30 C5_30 1_555 1_555
H5_30 C5_30 1_555 1_555
H6_30 C5_30 1_555 1_555
C6_30 H7_30 1_555 1_555
H8_30 C6_30 1_555 1_555
H9_30 C6_30 1_555 1_555
C7_30 N3_30 1_555 1_555
C8_30 C3_30 1_555 1_555
C9_30 C8_30 1_555 1_555
C10_30 C9_30 1_555 1_555
H10_30 C10_30 1_555 1_555
H11_30 C10_30 1_555 1_555
H12_30 C10_30 1_555 1_555
Ag3_12 N2_12 1_555 1_555
Ag4_12 N4_12 1_555 1_555
N5_21 Ag1_21 1_555 1_555
N6_21 Ag2_20 1_555 1_555
C1_30 C2_30 1_555 1_555
C6_30 C7_30 1_555 1_555
C7_30 C8_30 1_555 1_555
Ag1_22 N1_31 1_555 1_555
N1_31 N5_21 1_555 1_555
N5_21 C4_31 1_555 1_555
N3_31 N6_19 1_555 1_555
N6_19 C9_31 1_555 1_555
C1_31 H1_31 1_555 1_555
H2_31 C1_31 1_555 1_555
H3_31 C1_31 1_555 1_555
C2_31 N1_31 1_555 1_555
C3_31 C2_31 1_555 1_555
C4_31 C3_31 1_555 1_555
C5_31 C4_31 1_555 1_555
H4_31 C5_31 1_555 1_555
H5_31 C5_31 1_555 1_555
H6_31 C5_31 1_555 1_555
C6_31 H7_31 1_555 1_555
H8_31 C6_31 1_555 1_555
H9_31 C6_31 1_555 1_555
C7_31 N3_31 1_555 1_555
C8_31 C3_31 1_555 1_555
C9_31 C8_31 1_555 1_555
C10_31 C9_31 1_555 1_555
H10_31 C10_31 1_555 1_555
H11_31 C10_31 1_555 1_555
H12_31 C10_31 1_555 1_555
N5_22 Ag1_22 1_555 1_555
C1_31 C2_31 1_555 1_555
C6_31 C7_31 1_555 1_555
C7_31 C8_31 1_555 1_555
Ag1_23 N1_32 1_555 1_555
Ag2_22 N3_32 1_555 1_555
N1_32 N5_19 1_555 1_555
N5_19 C4_32 1_555 1_555
N3_32 N6_20 1_555 1_555
N6_20 C9_32 1_555 1_555
C1_32 H1_32 1_555 1_555
H2_32 C1_32 1_555 1_555
H3_32 C1_32 1_555 1_555
C2_32 N1_32 1_555 1_555
C3_32 C2_32 1_555 1_555
C4_32 C3_32 1_555 1_555
C5_32 C4_32 1_555 1_555
H4_32 C5_32 1_555 1_555
H5_32 C5_32 1_555 1_555
H6_32 C5_32 1_555 1_555
C6_32 H7_32 1_555 1_555
H8_32 C6_32 1_555 1_555
H9_32 C6_32 1_555 1_555
C7_32 N3_32 1_555 1_555
C8_32 C3_32 1_555 1_555
C9_32 C8_32 1_555 1_555
C10_32 C9_32 1_555 1_555
H10_32 C10_32 1_555 1_555
H11_32 C10_32 1_555 1_555
H12_32 C10_32 1_555 1_555
N5_23 Ag1_23 1_555 1_555
C1_32 C2_32 1_555 1_555
C6_32 C7_32 1_555 1_555
C7_32 C8_32 1_555 1_555
N6_23 Ag2_23 1_555 1_555
Ag1_24 N1_33 1_555 1_555
Ag2_24 N3_33 1_555 1_555
N1_33 N5_20 1_555 1_555
N5_20 C4_33 1_555 1_555
N3_33 N6_21 1_555 1_555
N6_21 C9_33 1_555 1_555
C1_33 H1_33 1_555 1_555
H2_33 C1_33 1_555 1_555
H3_33 C1_33 1_555 1_555
C2_33 N1_33 1_555 1_555
C3_33 C2_33 1_555 1_555
C4_33 C3_33 1_555 1_555
C5_33 C4_33 1_555 1_555
H4_33 C5_33 1_555 1_555
H5_33 C5_33 1_555 1_555
H6_33 C5_33 1_555 1_555
C6_33 H7_33 1_555 1_555
H8_33 C6_33 1_555 1_555
H9_33 C6_33 1_555 1_555
C7_33 N3_33 1_555 1_555
C8_33 C3_33 1_555 1_555
C9_33 C8_33 1_555 1_555
C10_33 C9_33 1_555 1_555
H10_33 C10_33 1_555 1_555
H11_33 C10_33 1_555 1_555
H12_33 C10_33 1_555 1_555
N5_24 Ag1_24 1_555 1_555
N6_24 Ag2_24 1_555 1_555
C1_33 C2_33 1_555 1_555
C6_33 C7_33 1_555 1_555
C7_33 C8_33 1_555 1_555
Ag3_11 N1_34 1_555 1_555
N1_34 N5_24 1_555 1_555
N5_24 C4_34 1_555 1_555
N3_34 N6_22 1_555 1_555
N6_22 C9_34 1_555 1_555
C1_34 H1_34 1_555 1_555
H2_34 C1_34 1_555 1_555
H3_34 C1_34 1_555 1_555
C2_34 N1_34 1_555 1_555
C3_34 C2_34 1_555 1_555
C4_34 C3_34 1_555 1_555
C5_34 C4_34 1_555 1_555
H4_34 C5_34 1_555 1_555
H5_34 C5_34 1_555 1_555
H6_34 C5_34 1_555 1_555
C6_34 H7_34 1_555 1_555
H8_34 C6_34 1_555 1_555
H9_34 C6_34 1_555 1_555
C7_34 N3_34 1_555 1_555
C8_34 C3_34 1_555 1_555
C9_34 C8_34 1_555 1_555
C10_34 C9_34 1_555 1_555
H10_34 C10_34 1_555 1_555
H11_34 C10_34 1_555 1_555
H12_34 C10_34 1_555 1_555
C1_34 C2_34 1_555 1_555
C6_34 C7_34 1_555 1_555
C7_34 C8_34 1_555 1_555
Ag3_12 N1_35 1_555 1_555
Ag4_9 N3_35 1_555 1_555
N1_35 N5_22 1_555 1_555
N5_22 C4_35 1_555 1_555
N3_35 N6_23 1_555 1_555
N6_23 C9_35 1_555 1_555
C1_35 H1_35 1_555 1_555
H2_35 C1_35 1_555 1_555
H3_35 C1_35 1_555 1_555
C2_35 N1_35 1_555 1_555
C3_35 C2_35 1_555 1_555
C4_35 C3_35 1_555 1_555
C5_35 C4_35 1_555 1_555
H4_35 C5_35 1_555 1_555
H5_35 C5_35 1_555 1_555
H6_35 C5_35 1_555 1_555
C6_35 H7_35 1_555 1_555
H8_35 C6_35 1_555 1_555
H9_35 C6_35 1_555 1_555
C7_35 N3_35 1_555 1_555
C8_35 C3_35 1_555 1_555
C9_35 C8_35 1_555 1_555
C10_35 C9_35 1_555 1_555
H10_35 C10_35 1_555 1_555
H11_35 C10_35 1_555 1_555
H12_35 C10_35 1_555 1_555
C1_35 C2_35 1_555 1_555
C6_35 C7_35 1_555 1_555
C7_35 C8_35 1_555 1_555
Ag3_10 N1_36 1_555 1_555
Ag4_12 N3_36 1_555 1_555
N1_36 N5_23 1_555 1_555
N5_23 C4_36 1_555 1_555
N3_36 N6_24 1_555 1_555
N6_24 C9_36 1_555 1_555
C1_36 H1_36 1_555 1_555
H2_36 C1_36 1_555 1_555
H3_36 C1_36 1_555 1_555
C2_36 N1_36 1_555 1_555
C3_36 C2_36 1_555 1_555
C4_36 C3_36 1_555 1_555
C5_36 C4_36 1_555 1_555
H4_36 C5_36 1_555 1_555
H5_36 C5_36 1_555 1_555
H6_36 C5_36 1_555 1_555
C6_36 H7_36 1_555 1_555
H8_36 C6_36 1_555 1_555
H9_36 C6_36 1_555 1_555
C7_36 N3_36 1_555 1_555
C8_36 C3_36 1_555 1_555
C9_36 C8_36 1_555 1_555
C10_36 C9_36 1_555 1_555
H10_36 C10_36 1_555 1_555
H11_36 C10_36 1_555 1_555
H12_36 C10_36 1_555 1_555
C1_36 C2_36 1_555 1_555
C6_36 C7_36 1_555 1_555
C7_36 C8_36 1_555 1_555
Ag1_25 N1_37 1_555 1_555
Ag2_25 N3_37 1_555 1_555
N1_37 N2_13 1_555 1_555
N2_13 C4_37 1_555 1_555
N3_37 N4_13 1_555 1_555
N4_13 C9_37 1_555 1_555
C1_37 H1_37 1_555 1_555
H2_37 C1_37 1_555 1_555
H3_37 C1_37 1_555 1_555
C2_37 N1_37 1_555 1_555
C3_37 C2_37 1_555 1_555
C4_37 C3_37 1_555 1_555
C5_37 C4_37 1_555 1_555
H4_37 C5_37 1_555 1_555
H5_37 C5_37 1_555 1_555
H6_37 C5_37 1_555 1_555
C6_37 H7_37 1_555 1_555
H8_37 C6_37 1_555 1_555
H9_37 C6_37 1_555 1_555
C7_37 N3_37 1_555 1_555
C8_37 C3_37 1_555 1_555
C9_37 C8_37 1_555 1_555
C10_37 C9_37 1_555 1_555
H10_37 C10_37 1_555 1_555
H11_37 C10_37 1_555 1_555
H12_37 C10_37 1_555 1_555
Ag4_13 N4_13 1_555 1_555
N6_25 Ag2_25 1_555 1_555
C1_37 C2_37 1_555 1_555
C6_37 C7_37 1_555 1_555
C7_37 C8_37 1_555 1_555
Ag2_26 N3_38 1_555 1_555
N1_38 N2_14 1_555 1_555
N2_14 C4_38 1_555 1_555
N3_38 N4_14 1_555 1_555
N4_14 C9_38 1_555 1_555
C2_38 N1_38 1_555 1_555
C3_38 C2_38 1_555 1_555
C4_38 C3_38 1_555 1_555
C5_38 C4_38 1_555 1_555
H4_38 C5_38 1_555 1_555
H5_38 C5_38 1_555 1_555
H6_38 C5_38 1_555 1_555
C6_38 H7_38 1_555 1_555
H8_38 C6_38 1_555 1_555
H9_38 C6_38 1_555 1_555
C7_38 N3_38 1_555 1_555
C8_38 C3_38 1_555 1_555
C9_38 C8_38 1_555 1_555
C10_38 C9_38 1_555 1_555
H10_38 C10_38 1_555 1_555
H11_38 C10_38 1_555 1_555
H12_38 C10_38 1_555 1_555
Ag4_14 N4_14 1_555 1_555
N6_26 Ag2_26 1_555 1_555
C6_38 C7_38 1_555 1_555
C7_38 C8_38 1_555 1_555
Ag1_26 N1_39 1_555 1_555
Ag2_27 N3_39 1_555 1_555
N1_39 N2_15 1_555 1_555
N2_15 C4_39 1_555 1_555
N3_39 N4_15 1_555 1_555
N4_15 C9_39 1_555 1_555
C1_38 H1_39 1_555 1_555
H2_38 C1_38 1_555 1_555
H3_38 C1_38 1_555 1_555
C2_39 N1_39 1_555 1_555
C3_39 C2_39 1_555 1_555
C4_39 C3_39 1_555 1_555
C5_39 C4_39 1_555 1_555
H4_39 C5_39 1_555 1_555
H5_39 C5_39 1_555 1_555
H6_39 C5_39 1_555 1_555
C6_39 H7_39 1_555 1_555
H8_39 C6_39 1_555 1_555
H9_39 C6_39 1_555 1_555
C7_39 N3_39 1_555 1_555
C8_39 C3_39 1_555 1_555
C9_39 C8_39 1_555 1_555
C10_39 C9_39 1_555 1_555
H10_39 C10_39 1_555 1_555
H11_39 C10_39 1_555 1_555
H12_39 C10_39 1_555 1_555
Ag3_14 N2_15 1_555 1_555
Ag4_15 N4_15 1_555 1_555
N5_26 Ag1_26 1_555 1_555
N6_27 Ag2_27 1_555 1_555
C1_38 C2_39 1_555 1_555
C6_39 C7_39 1_555 1_555
C7_39 C8_39 1_555 1_555
Ag1_27 N1_40 1_555 1_555
Ag2_28 N3_40 1_555 1_555
N1_40 N5_27 1_555 1_555
N5_27 C4_40 1_555 1_555
N3_40 N6_26 1_555 1_555
N6_26 C9_40 1_555 1_555
C1_39 H1_40 1_555 1_555
H2_39 C1_39 1_555 1_555
H3_39 C1_39 1_555 1_555
C2_40 N1_40 1_555 1_555
C3_40 C2_40 1_555 1_555
C4_40 C3_40 1_555 1_555
C5_40 C4_40 1_555 1_555
H4_40 C5_40 1_555 1_555
H5_40 C5_40 1_555 1_555
H6_40 C5_40 1_555 1_555
C6_40 H7_40 1_555 1_555
H8_40 C6_40 1_555 1_555
H9_40 C6_40 1_555 1_555
C7_40 N3_40 1_555 1_555
C8_40 C3_40 1_555 1_555
C9_40 C8_40 1_555 1_555
C10_40 C9_40 1_555 1_555
H10_40 C10_40 1_555 1_555
H11_40 C10_40 1_555 1_555
H12_40 C10_40 1_555 1_555
N6_28 Ag2_28 1_555 1_555
C1_39 C2_40 1_555 1_555
C6_40 C7_40 1_555 1_555
C7_40 C8_40 1_555 1_555
Ag2_29 N3_41 1_555 1_555
N1_41 N5_25 1_555 1_555
N5_25 C4_41 1_555 1_555
N3_41 N6_27 1_555 1_555
N6_27 C9_41 1_555 1_555
C2_41 N1_41 1_555 1_555
C3_41 C2_41 1_555 1_555
C4_41 C3_41 1_555 1_555
C5_41 C4_41 1_555 1_555
H4_41 C5_41 1_555 1_555
H5_41 C5_41 1_555 1_555
H6_41 C5_41 1_555 1_555
C6_41 H7_41 1_555 1_555
H8_41 C6_41 1_555 1_555
H9_41 C6_41 1_555 1_555
C7_41 N3_41 1_555 1_555
C8_41 C3_41 1_555 1_555
C9_41 C8_41 1_555 1_555
C10_41 C9_41 1_555 1_555
H10_41 C10_41 1_555 1_555
H11_41 C10_41 1_555 1_555
H12_41 C10_41 1_555 1_555
N6_29 Ag2_29 1_555 1_555
C6_41 C7_41 1_555 1_555
C7_41 C8_41 1_555 1_555
Ag1_28 N1_42 1_555 1_555
Ag2_30 N3_42 1_555 1_555
N1_42 N5_26 1_555 1_555
N5_26 C4_42 1_555 1_555
N3_42 N6_25 1_555 1_555
N6_25 C9_42 1_555 1_555
C1_40 H1_42 1_555 1_555
H2_40 C1_40 1_555 1_555
H3_40 C1_40 1_555 1_555
C2_42 N1_42 1_555 1_555
C3_42 C2_42 1_555 1_555
C4_42 C3_42 1_555 1_555
C5_42 C4_42 1_555 1_555
H4_42 C5_42 1_555 1_555
H5_42 C5_42 1_555 1_555
H6_42 C5_42 1_555 1_555
C6_42 H7_42 1_555 1_555
H8_42 C6_42 1_555 1_555
H9_42 C6_42 1_555 1_555
C7_42 N3_42 1_555 1_555
C8_42 C3_42 1_555 1_555
C9_42 C8_42 1_555 1_555
C10_42 C9_42 1_555 1_555
H10_42 C10_42 1_555 1_555
H11_42 C10_42 1_555 1_555
H12_42 C10_42 1_555 1_555
N5_29 Ag1_28 1_555 1_555
N6_30 Ag2_30 1_555 1_555
C1_40 C2_42 1_555 1_555
C6_42 C7_42 1_555 1_555
C7_42 C8_42 1_555 1_555
Ag3_13 N1_43 1_555 1_555
Ag4_15 N3_43 1_555 1_555
N1_43 N5_30 1_555 1_555
N5_30 C4_43 1_555 1_555
N3_43 N6_29 1_555 1_555
N6_29 C9_43 1_555 1_555
C1_41 H1_43 1_555 1_555
H2_41 C1_41 1_555 1_555
H3_41 C1_41 1_555 1_555
C2_43 N1_43 1_555 1_555
C3_43 C2_43 1_555 1_555
C4_43 C3_43 1_555 1_555
C5_43 C4_43 1_555 1_555
H4_43 C5_43 1_555 1_555
H5_43 C5_43 1_555 1_555
H6_43 C5_43 1_555 1_555
C6_43 H7_43 1_555 1_555
H8_43 C6_43 1_555 1_555
H9_43 C6_43 1_555 1_555
C7_43 N3_43 1_555 1_555
C8_43 C3_43 1_555 1_555
C9_43 C8_43 1_555 1_555
C10_43 C9_43 1_555 1_555
H10_43 C10_43 1_555 1_555
H11_43 C10_43 1_555 1_555
H12_43 C10_43 1_555 1_555
C1_41 C2_43 1_555 1_555
C6_43 C7_43 1_555 1_555
C7_43 C8_43 1_555 1_555
Ag4_13 N3_44 1_555 1_555
N1_44 N5_28 1_555 1_555
N5_28 C4_44 1_555 1_555
N3_44 N6_30 1_555 1_555
N6_30 C9_44 1_555 1_555
C2_44 N1_44 1_555 1_555
C3_44 C2_44 1_555 1_555
C4_44 C3_44 1_555 1_555
C5_44 C4_44 1_555 1_555
H4_44 C5_44 1_555 1_555
H5_44 C5_44 1_555 1_555
H6_44 C5_44 1_555 1_555
C6_44 H7_44 1_555 1_555
H8_44 C6_44 1_555 1_555
H9_44 C6_44 1_555 1_555
C7_44 N3_44 1_555 1_555
C8_44 C3_44 1_555 1_555
C9_44 C8_44 1_555 1_555
C10_44 C9_44 1_555 1_555
H10_44 C10_44 1_555 1_555
H11_44 C10_44 1_555 1_555
H12_44 C10_44 1_555 1_555
C6_44 C7_44 1_555 1_555
C7_44 C8_44 1_555 1_555
Ag3_14 N1_45 1_555 1_555
Ag4_14 N3_45 1_555 1_555
N1_45 N5_29 1_555 1_555
N5_29 C4_45 1_555 1_555
N3_45 N6_28 1_555 1_555
N6_28 C9_45 1_555 1_555
C1_42 H1_45 1_555 1_555
H2_42 C1_42 1_555 1_555
H3_42 C1_42 1_555 1_555
C2_45 N1_45 1_555 1_555
C3_45 C2_45 1_555 1_555
C4_45 C3_45 1_555 1_555
C5_45 C4_45 1_555 1_555
H4_45 C5_45 1_555 1_555
H5_45 C5_45 1_555 1_555
H6_45 C5_45 1_555 1_555
C6_45 H7_45 1_555 1_555
H8_45 C6_45 1_555 1_555
H9_45 C6_45 1_555 1_555
C7_45 N3_45 1_555 1_555
C8_45 C3_45 1_555 1_555
C9_45 C8_45 1_555 1_555
C10_45 C9_45 1_555 1_555
H10_45 C10_45 1_555 1_555
H11_45 C10_45 1_555 1_555
H12_45 C10_45 1_555 1_555
C1_42 C2_45 1_555 1_555
C6_45 C7_45 1_555 1_555
C7_45 C8_45 1_555 1_555
H2_43 C1_43 1_555 1_555
H3_43 C1_43 1_555 1_555
H2_44 C1_44 1_555 1_555
H3_44 C1_44 1_555 1_555
N5_31 Ag1_29 1_555 1_555
Ag2_31 N3_46 1_555 1_555
N1_46 N2_16 1_555 1_555
N2_16 C4_46 1_555 1_555
N3_46 N4_16 1_555 1_555
N4_16 C9_46 1_555 1_555
C2_46 N1_46 1_555 1_555
C3_46 C2_46 1_555 1_555
C4_46 C3_46 1_555 1_555
C5_46 C4_46 1_555 1_555
H4_46 C5_46 1_555 1_555
H5_46 C5_46 1_555 1_555
H6_46 C5_46 1_555 1_555
C6_46 H7_46 1_555 1_555
H8_46 C6_46 1_555 1_555
H9_46 C6_46 1_555 1_555
C7_46 N3_46 1_555 1_555
C8_46 C3_46 1_555 1_555
C9_46 C8_46 1_555 1_555
C10_46 C9_46 1_555 1_555
H10_46 C10_46 1_555 1_555
H11_46 C10_46 1_555 1_555
H12_46 C10_46 1_555 1_555
Ag3_16 N2_16 1_555 1_555
Ag4_16 N4_16 1_555 1_555
N6_31 Ag2_31 1_555 1_555
C6_46 C7_46 1_555 1_555
C7_46 C8_46 1_555 1_555
H2_45 C1_45 1_555 1_555
H3_45 C1_45 1_555 1_555
N5_32 Ag1_30 1_555 1_555
Ag2_32 N3_47 1_555 1_555
N1_47 N5_31 1_555 1_555
N5_31 C4_47 1_555 1_555
N3_47 N6_31 1_555 1_555
N6_31 C9_47 1_555 1_555
C2_47 N1_47 1_555 1_555
C3_47 C2_47 1_555 1_555
C4_47 C3_47 1_555 1_555
C5_47 C4_47 1_555 1_555
H4_47 C5_47 1_555 1_555
H5_47 C5_47 1_555 1_555
H6_47 C5_47 1_555 1_555
C6_47 H7_47 1_555 1_555
H8_47 C6_47 1_555 1_555
H9_47 C6_47 1_555 1_555
C7_47 N3_47 1_555 1_555
C8_47 C3_47 1_555 1_555
C9_47 C8_47 1_555 1_555
C10_47 C9_47 1_555 1_555
H10_47 C10_47 1_555 1_555
H11_47 C10_47 1_555 1_555
H12_47 C10_47 1_555 1_555
N6_32 Ag2_32 1_555 1_555
C6_47 C7_47 1_555 1_555
C7_47 C8_47 1_555 1_555
H2_46 C1_46 1_555 1_555
H3_46 C1_46 1_555 1_555
Ag4_16 N3_48 1_555 1_555
N1_48 N5_32 1_555 1_555
N5_32 C4_48 1_555 1_555
N3_48 N6_32 1_555 1_555
N6_32 C9_48 1_555 1_555
C2_48 N1_48 1_555 1_555
C3_48 C2_48 1_555 1_555
C4_48 C3_48 1_555 1_555
C5_48 C4_48 1_555 1_555
H4_48 C5_48 1_555 1_555
H5_48 C5_48 1_555 1_555
H6_48 C5_48 1_555 1_555
C6_48 H7_48 1_555 1_555
H8_48 C6_48 1_555 1_555
H9_48 C6_48 1_555 1_555
C7_48 N3_48 1_555 1_555
C8_48 C3_48 1_555 1_555
C9_48 C8_48 1_555 1_555
C10_48 C9_48 1_555 1_555
H10_48 C10_48 1_555 1_555
H11_48 C10_48 1_555 1_555
H12_48 C10_48 1_555 1_555
C6_48 C7_48 1_555 1_555
C7_48 C8_48 1_555 1_555
H2_47 C1_47 1_555 1_555
H3_47 C1_47 1_555 1_555
H2_48 C1_48 1_555 1_555
H3_48 C1_48 1_555 1_555

#END
