
###############################################################################
#
# This file contains modified crystal structure data generated from the
# MOF subset of the Cambridge Structural Database (CSD) v543 
# hosted by the Cambridge Crystallographic Data Centre (CCDC).
#
# This work is licensed under the Creative Commons
# Attribution-NonCommercial-ShareAlike 4.0 International License.
# To view a copy of this license, visit
# http://creativecommons.org/licenses/by-nc-sa/4.0/
# or send a letter to
# Creative Commons, PO Box 1866, Mountain View, CA 94042, USA.
#
# CIF created using the CSD Python API on 29 September 2022
# The structure has been converted into the P1 space group
# The structure has a 3D framework
# The original CSD entry YEVQUM is in the tetragonal crystal system
# The framework has been calculated to contain at least 10.0% void space
# The void calculation uses a probe of radius 1.32A, grid spacing 0.4
#
###############################################################################

data_YEVQUM
_chemical_formula_moiety         '(C2400 H2880 Ag468 N958)n'
_symmetry_cell_setting           triclinic
_symmetry_space_group_name_H-M   'P 1'
_symmetry_Int_Tables_number      1
_space_group_name_Hall           'P 1'
loop_
_symmetry_equiv_pos_site_id
_symmetry_equiv_pos_as_xyz
1 x,y,z
_cell_length_a                   61.600(2)
_cell_length_b                   61.600(2)
_cell_length_c                   26.7475(13)
_cell_angle_alpha                90
_cell_angle_beta                 90
_cell_angle_gamma                90
_cell_volume                     101495
loop_
_atom_site_label
_atom_site_type_symbol
_atom_site_fract_x
_atom_site_fract_y
_atom_site_fract_z
N11 N 0.32609(15) 0.01892(16) 0.1504(4)
N12 N 0.33015(17) 0.00519(17) 0.1901(4)
C26 C 0.3156(2) 0.0177(3) 0.0613(5)
C27 C 0.32060(18) 0.0074(2) 0.1098(5)
H31 H 0.3160 0.0335 0.0649
H32 H 0.3012 0.0132 0.0502
H33 H 0.3265 0.0132 0.0365
Ag34 Ag 0.349150(15) 0.015120(15) 0.24841(4)
Ag36 Ag 0.330400(16) 0.051920(14) 0.16035(4)
Ag39 Ag 0.821880(15) 0.011230(15) 0.76016(4)
Ag1 Ag 0.29150(2) 0.774638(17) 0.23293(4)
Ag2 Ag 0.23694(2) 0.784770(17) 0.24364(4)
Ag3 Ag 0.502110(19) 0.486160(18) 0.07902(4)
Ag6 Ag 0.698080(14) 0.580400(16) 0.41035(4)
Ag13 Ag 0.290780(14) 0.904870(16) 0.06128(4)
Ag16 Ag 0.556540(16) 0.596740(15) 0.28119(4)
Ag17 Ag 0.575110(17) 0.647650(16) 0.27823(4)
Ag18 Ag 0.539390(17) 0.633090(16) 0.18961(4)
Ag20 Ag 0.574510(16) 0.761860(16) 0.02497(4)
Ag21 Ag 0.624650(16) 0.740610(16) 0.02027(4)
N1 N 0.2759(2) 0.79438(19) 0.1811(4)
N2 N 0.2545(2) 0.7998(2) 0.1880(4)
N3 N 0.5225(2) 0.52910(17) 0.0552(4)
N4 N 0.51018(18) 0.51817(16) 0.0902(4)
N9 N 0.66076(16) 0.60391(16) 0.4508(4)
N10 N 0.66604(15) 0.58968(16) 0.4142(4)
N25 N 0.27916(16) 0.87368(17) 0.0676(4)
N26 N 0.28591(16) 0.85910(18) 0.0327(4)
N29 N 0.32197(14) 0.94067(16) 0.0311(4)
N30 N 0.30441(15) 0.93499(16) 0.0611(4)
N31 N 0.58066(16) 0.60552(16) 0.3317(4)
N32 N 0.58699(17) 0.62671(18) 0.3319(4)
N33 N 0.57038(17) 0.66812(17) 0.2174(4)
N34 N 0.55510(18) 0.6625(2) 0.1829(4)
N35 N 0.52825(17) 0.60124(17) 0.1887(4)
N36 N 0.53708(17) 0.58640(16) 0.2224(4)
N39 N 0.58325(17) 0.73881(16) 0.0773(4)
N40 N 0.60349(17) 0.72908(18) 0.0749(5)
C1 C 0.3080(2) 0.8054(3) 0.1344(6)
C2 C 0.2842(2) 0.8075(2) 0.1473(5)
C3 C 0.2694(2) 0.8225(2) 0.1320(5)
C4 C 0.2498(2) 0.8170(2) 0.1567(5)
C5 C 0.2286(2) 0.8267(2) 0.1551(6)
C6 C 0.5403(2) 0.5637(3) 0.0447(6)
C7 C 0.5273(2) 0.5486(2) 0.0744(5)
C8 C 0.5187(2) 0.5506(2) 0.1224(5)
C9 C 0.5083(2) 0.5309(2) 0.1304(5)
C10 C 0.4950(2) 0.5233(3) 0.1750(5)
C21 C 0.6305(2) 0.6281(3) 0.4758(6)
C22 C 0.64048(19) 0.6119(2) 0.4418(5)
C23 C 0.63260(18) 0.60281(17) 0.3980(5)
C24 C 0.6492(2) 0.5886(2) 0.3819(5)
C25 C 0.6508(2) 0.5742(2) 0.3373(5)
C28 C 0.32171(19) 0.98530(18) 0.1227(5)
C29 C 0.32770(19) 0.98448(18) 0.1717(5)
C30 C 0.3320(2) 0.9656(3) 0.2046(5)
C61 C 0.2627(2) 0.8748(3) 0.1529(5)
C62 C 0.27090(19) 0.8630(2) 0.1077(5)
C63 C 0.2724(2) 0.84070(19) 0.0968(5)
C64 C 0.2819(2) 0.8390(2) 0.0494(4)
C65 C 0.28790(19) 0.8198(2) 0.0185(5)
C71 C 0.3488(2) 0.9697(2) 0.0211(6)
C72 C 0.33020(18) 0.9595(2) 0.0475(5)
C73 C 0.31776(19) 0.96638(19) 0.0897(5)
C74 C 0.3024(2) 0.9507(2) 0.0954(5)
C75 C 0.2850(2) 0.9488(2) 0.1346(6)
C76 C 0.59370(19) 0.5698(2) 0.3637(5)
C77 C 0.5961(2) 0.59360(17) 0.3568(4)
C78 C 0.6128(2) 0.60760(19) 0.3716(5)
C79 C 0.6061(2) 0.6281(2) 0.3560(5)
C80 C 0.6177(2) 0.6495(2) 0.3594(6)
C81 C 0.5998(2) 0.6938(2) 0.2318(6)
C82 C 0.58151(19) 0.68435(19) 0.1996(6)
C83 C 0.5742(2) 0.6904(2) 0.1532(5)
C84 C 0.5573(2) 0.6757(2) 0.1432(5)
C85 C 0.5434(3) 0.6741(3) 0.0981(5)
C86 C 0.5096(2) 0.6021(2) 0.1070(5)
C87 C 0.5201(2) 0.59030(19) 0.1497(4)
C88 C 0.5232(2) 0.5685(2) 0.1583(5)
C89 C 0.5337(2) 0.5672(2) 0.2038(5)
C90 C 0.5412(2) 0.5478(2) 0.2331(5)
C96 C 0.5481(2) 0.7328(3) 0.1150(7)
C97 C 0.5711(2) 0.7261(2) 0.1055(5)
C98 C 0.5820(2) 0.70856(19) 0.1224(5)
C99 C 0.6030(2) 0.7110(2) 0.1015(5)
C100 C 0.6220(2) 0.6963(3) 0.1048(6)
H1 H 0.3142 0.7929 0.1522
H2 H 0.3157 0.8186 0.1444
H3 H 0.3096 0.8033 0.0983
H4 H 0.2189 0.8189 0.1779
H5 H 0.2228 0.8258 0.1210
H6 H 0.2296 0.8419 0.1654
H7 H 0.5435 0.5572 0.0121
H8 H 0.5540 0.5668 0.0623
H9 H 0.5323 0.5773 0.0398
H10 H 0.4897 0.5085 0.1687
H11 H 0.4826 0.5330 0.1798
H12 H 0.5040 0.5233 0.2050
H25 H 0.6405 0.6312 0.5035
H26 H 0.6169 0.6223 0.4892
H27 H 0.6276 0.6415 0.4574
H28 H 0.6647 0.5664 0.3378
H29 H 0.6498 0.5829 0.3068
H30 H 0.6388 0.5636 0.3378
H34 H 0.3360 0.9707 0.2380
H35 H 0.3440 0.9570 0.1907
H36 H 0.3189 0.9566 0.2067
H73 H 0.2637 0.8905 0.1473
H74 H 0.2715 0.8709 0.1820
H75 H 0.2475 0.8708 0.1591
H77 H 0.2749 0.8112 0.0114
H78 H 0.2984 0.8108 0.0368
H86 H 0.3609 0.9717 0.0444
H87 H 0.3444 0.9838 0.0078
H88 H 0.2765 0.9356 0.1286
H89 H 0.2755 0.9615 0.1330
H90 H 0.2917 0.9480 0.1677
H91 H 0.5800 0.5650 0.3487
H92 H 0.5936 0.5664 0.3995
H93 H 0.6058 0.5623 0.3475
H94 H 0.6086 0.6609 0.3445
H95 H 0.6315 0.6487 0.3414
H96 H 0.6204 0.6530 0.3946
H97 H 0.6007 0.6857 0.2632
H98 H 0.5967 0.7091 0.2390
H99 H 0.6136 0.6927 0.2138
H100 H 0.5329 0.6623 0.1025
H101 H 0.5525 0.6711 0.0688
H102 H 0.5356 0.6879 0.0931
H103 H 0.5101 0.6177 0.1131
H104 H 0.4944 0.5974 0.1039
H105 H 0.5173 0.5987 0.0759
H106 H 0.5479 0.5526 0.2644
H107 H 0.5519 0.5396 0.2134
H108 H 0.5287 0.5385 0.2405
H112 H 0.5292 0.7704 0.0207
H113 H 0.5147 0.7907 0.0042
H115 H 0.5452 0.7466 0.0979
H116 H 0.5383 0.7216 0.1021
H117 H 0.5458 0.7345 0.1510
H118 H 0.6342 0.7026 0.0864
H119 H 0.6260 0.6944 0.1400
H120 H 0.6182 0.6822 0.0903
H121 H 0.6679 0.7237 0.0063
Ag35 Ag 0.682340(15) 0.613640(15) 0.50570(4)
N61 N 0.22090(17) 0.7725(2) 0.3052(4)
N62 N 0.49736(18) 0.4533(2) 0.0734(5)
N63 N 0.3085(2) 0.75902(19) 0.2887(4)
N65 N 0.73108(16) 0.57609(15) 0.4004(4)
Ag4 Ag 0.734880(15) 0.599150(15) 0.49841(4)
Ag7 Ag 0.327830(17) 0.589100(17) 0.68685(4)
Ag8 Ag 0.315180(16) 0.535150(16) 0.68904(4)
Ag9 Ag 0.348420(16) 0.555050(17) 0.59915(4)
Ag10 Ag 0.775520(14) 0.887370(15) 0.58075(4)
Ag11 Ag 0.761230(15) 0.928120(15) 0.51016(4)
Ag12 Ag 0.737130(15) 0.877770(16) 0.48838(4)
Ag14 Ag 0.309800(15) 0.868760(15) 0.98334(4)
Ag15 Ag 0.334910(14) 0.917610(15) 0.98347(4)
Ag19 Ag 0.605720(15) 0.777520(15) 0.92994(4)
Ag22 Ag 0.418850(17) 0.812560(18) 0.78981(4)
Ag23 Ag 0.470260(17) 0.797050(18) 0.78366(4)
Ag24 Ag 0.454590(17) 0.828190(18) 0.88511(5)
Ag25 Ag 0.384870(17) 0.69104(2) 0.45013(5)
Ag26 Ag 0.414080(17) 0.698200(19) 0.55288(5)
Ag27 Ag 0.402720(17) 0.742750(18) 0.47587(4)
Ag28 Ag 0.727260(14) 0.767560(15) 0.74762(4)
Ag29 Ag 0.721980(14) 0.713140(15) 0.75504(3)
Ag30 Ag 0.743370(14) 0.736520(16) 0.64936(4)
N5 N 0.2967(2) 0.74736(18) 0.3234(5)
N7 N 0.72588(15) 0.62250(16) 0.5495(4)
N8 N 0.70435(14) 0.62706(14) 0.5547(4)
N13 N 0.30625(19) 0.57759(18) 0.7397(4)
N14 N 0.30177(18) 0.55583(17) 0.7402(4)
N15 N 0.23545(18) 0.57629(17) 0.8833(4)
N16 N 0.22663(18) 0.58860(18) 0.8459(4)
N17 N 0.35587(17) 0.58730(18) 0.5963(4)
N18 N 0.34830(19) 0.6007(2) 0.6329(5)
N19 N 0.79208(15) 0.91585(15) 0.5906(4)
N20 N 0.78515(15) 0.93338(15) 0.5626(4)
N21 N 0.82587(15) 0.98716(16) 0.7083(4)
N22 N 0.84556(16) 0.97813(17) 0.6962(4)
N23 N 0.74455(17) 0.85357(17) 0.5399(4)
N24 N 0.75880(15) 0.85885(17) 0.5757(4)
N27 N 0.33766(16) 0.87318(16) 0.9431(4)
N28 N 0.34929(17) 0.89246(16) 0.9443(4)
N37 N 0.57424(17) 0.78904(17) 0.9317(4)
N38 N 0.56142(17) 0.78060(19) 0.9696(5)
N41 N 0.64344(16) 0.74886(17) 0.9593(4)
N42 N 0.63577(15) 0.76371(16) 0.9248(4)
N43 N 0.42820(19) 0.7926(2) 0.7314(5)
N44 N 0.44907(17) 0.78610(18) 0.7309(4)
N45 N 0.49203(16) 0.80527(18) 0.8382(4)
N46 N 0.48638(18) 0.8178(2) 0.8786(5)
N47 N 0.42230(15) 0.83681(17) 0.8888(4)
N48 N 0.40953(19) 0.83197(18) 0.8490(5)
N49 N 0.38567(18) 0.66676(19) 0.5027(5)
N50 N 0.39910(18) 0.6684(2) 0.5428(5)
N51 N 0.42383(17) 0.72875(18) 0.5713(4)
N52 N 0.41908(18) 0.74692(18) 0.5441(5)
N53 N 0.38125(17) 0.73808(19) 0.4170(4)
N54 N 0.37650(17) 0.7170(2) 0.4052(5)
N55 N 0.71397(15) 0.75459(15) 0.8111(4)
N56 N 0.70986(15) 0.73244(16) 0.8128(4)
N57 N 0.72952(15) 0.69429(16) 0.6930(4)
N58 N 0.73957(17) 0.70300(17) 0.6527(4)
N59 N 0.74172(15) 0.76995(16) 0.6411(4)
N60 N 0.73527(16) 0.78206(16) 0.6805(4)
C11 C 0.3027(3) 0.7257(3) 0.3988(6)
C12 C 0.3112(3) 0.7383(3) 0.3563(5)
C13 C 0.3318(2) 0.7440(2) 0.3433(5)
C14 C 0.3293(2) 0.7573(2) 0.3011(5)
C15 C 0.3465(3) 0.7686(2) 0.2695(6)
C16 C 0.76078(18) 0.6342(2) 0.5812(6)
C17 C 0.73737(18) 0.63657(19) 0.5780(4)
C18 C 0.72309(18) 0.65100(18) 0.6015(4)
C19 C 0.7027(2) 0.64438(19) 0.5848(5)
C20 C 0.6805(2) 0.6541(2) 0.5961(5)
C31 C 0.2938(2) 0.6114(2) 0.7755(6)
C32 C 0.2924(2) 0.5876(2) 0.7690(5)
C33 C 0.2787(2) 0.5730(2) 0.7913(5)
C34 C 0.2848(2) 0.55310(18) 0.7720(5)
C35 C 0.2759(2) 0.5308(2) 0.7809(5)
C36 C 0.2683(2) 0.5555(2) 0.9033(6)
C37 C 0.25499(18) 0.5696(2) 0.8702(5)
C38 C 0.25944(17) 0.5774(2) 0.8225(5)
C39 C 0.2411(2) 0.5895(2) 0.8094(4)
C40 C 0.2366(3) 0.6006(3) 0.7612(5)
C41 C 0.3765(2) 0.5900(2) 0.5182(5)
C42 C 0.36690(19) 0.5992(2) 0.5639(4)
C43 C 0.3669(2) 0.6215(2) 0.5789(5)
C44 C 0.3549(2) 0.6210(3) 0.6236(5)
C45 C 0.3489(3) 0.6399(3) 0.6555(7)
C46 C 0.8159(2) 0.9079(2) 0.6625(5)
C47 C 0.80576(18) 0.92324(18) 0.6250(5)
C48 C 0.8081(2) 0.9455(2) 0.6201(4)
C49 C 0.7948(2) 0.95130(19) 0.5794(4)
C50 C 0.79040(19) 0.9725(2) 0.5563(5)
C51 C 0.7870(2) 0.9821(3) 0.6891(6)
C52 C 0.81020(18) 0.9768(2) 0.6819(5)
C53 C 0.8198(2) 0.9605(2) 0.6528(5)
C54 C 0.8422(2) 0.96195(17) 0.6624(5)
C55 C 0.8601(2) 0.9492(2) 0.6420(6)
C56 C 0.7224(3) 0.8227(3) 0.5105(7)
C57 C 0.7371(2) 0.8330(2) 0.5477(5)
C58 C 0.7467(2) 0.8254(2) 0.5921(5)
C59 C 0.7606(2) 0.8420(2) 0.6069(5)
C60 C 0.7755(2) 0.8421(2) 0.6519(5)
C66 C 0.3433(2) 0.8344(3) 0.9238(7)
C67 C 0.3511(2) 0.8579(2) 0.9284(5)
C68 C 0.3717(2) 0.86560(18) 0.9191(5)
C69 C 0.37012(18) 0.88791(17) 0.9307(5)
C70 C 0.3871(2) 0.9050(2) 0.9294(6)
C91 C 0.5705(2) 0.8103(2) 0.8543(5)
C92 C 0.5612(2) 0.8004(2) 0.8991(5)
C93 C 0.53980(18) 0.7985(2) 0.9151(5)
C94 C 0.54130(18) 0.7863(2) 0.9593(5)
C95 C 0.5231(3) 0.7783(3) 0.9921(6)
C101 C 0.6763(2) 0.7276(2) 0.9765(5)
C102 C 0.66323(19) 0.7426(2) 0.9441(4)
C103 C 0.66854(18) 0.75177(18) 0.8990(4)
C104 C 0.6507(2) 0.76519(18) 0.8878(4)
C105 C 0.6455(2) 0.7793(2) 0.8430(5)
C106 C 0.3941(2) 0.7881(3) 0.6818(6)
C107 C 0.41800(19) 0.7842(2) 0.6918(5)
C108 C 0.4327(2) 0.7715(2) 0.6633(5)
C109 C 0.4523(2) 0.7736(2) 0.6904(5)
C110 C 0.4739(2) 0.7639(2) 0.6801(5)
C111 C 0.5225(2) 0.7827(3) 0.8078(6)
C112 C 0.5121(2) 0.7979(2) 0.8453(5)
C113 C 0.5200(2) 0.8054(2) 0.8906(5)
C114 C 0.5032(2) 0.8178(2) 0.9099(5)
C115 C 0.5016(2) 0.8309(3) 0.9565(7)
C116 C 0.4199(2) 0.8563(3) 0.9687(6)
C117 C 0.4109(2) 0.8499(2) 0.9199(6)
C118 C 0.3905(2) 0.8535(2) 0.9001(5)
C119 C 0.39026(19) 0.8417(2) 0.8552(5)
C120 C 0.3727(2) 0.8388(3) 0.8157(6)
C121 C 0.3563(3) 0.6426(3) 0.4707(6)
C122 C 0.3731(2) 0.6493(3) 0.5093(5)
C123 C 0.37770(19) 0.6400(2) 0.5540(5)
C124 C 0.3939(2) 0.6524(3) 0.5753(6)
C125 C 0.4053(3) 0.6503(3) 0.6243(7)
C126 C 0.4360(2) 0.7206(3) 0.6565(7)
C127 C 0.4301(2) 0.7359(2) 0.6177(6)
C128 C 0.4287(2) 0.7584(2) 0.6188(5)
C129 C 0.4218(2) 0.7646(2) 0.5712(6)
C130 C 0.4173(2) 0.7867(3) 0.5511(6)
C131 C 0.3681(2) 0.7747(3) 0.4012(7)
C132 C 0.3671(2) 0.7506(2) 0.3947(5)
C133 C 0.3518(2) 0.7381(2) 0.3694(5)
C134 C 0.3587(2) 0.7169(3) 0.3765(6)
C135 C 0.3491(2) 0.6964(3) 0.3569(6)
C136 C 0.70050(18) 0.7883(2) 0.8502(5)
C137 C 0.7001(2) 0.76430(19) 0.8431(5)
C138 C 0.68731(18) 0.74848(19) 0.8666(4)
C139 C 0.69416(17) 0.72920(19) 0.8463(4)
C140 C 0.68650(18) 0.7064(2) 0.8557(4)
C141 C 0.7103(2) 0.6602(2) 0.7163(5)
C142 C 0.72240(19) 0.6745(2) 0.6807(4)
C143 C 0.72866(16) 0.67026(17) 0.6305(5)
C144 C 0.7393(2) 0.6889(2) 0.6157(5)
C145 C 0.7490(2) 0.6942(3) 0.5654(6)
C146 C 0.7551(2) 0.7751(2) 0.5552(5)
C147 C 0.74630(19) 0.7836(2) 0.6030(5)
C148 C 0.7429(2) 0.8050(2) 0.6190(5)
C149 C 0.73625(18) 0.80300(19) 0.6674(5)
C150 C 0.7289(2) 0.8201(3) 0.7045(6)
H13 H 0.2868 0.7250 0.3966
H14 H 0.3068 0.7328 0.4301
H15 H 0.3087 0.7110 0.3979
H16 H 0.3394 0.7766 0.2423
H17 H 0.3564 0.7578 0.2555
H18 H 0.3547 0.7788 0.2905
H19 H 0.7655 0.6221 0.5599
H20 H 0.7649 0.6313 0.6159
H21 H 0.7678 0.6476 0.5700
H22 H 0.6693 0.6456 0.5793
H23 H 0.6801 0.6691 0.5839
H24 H 0.6780 0.6539 0.6322
H37 H 0.3054 0.6172 0.7543
H38 H 0.2799 0.6180 0.7660
H39 H 0.2969 0.6147 0.8106
H40 H 0.2842 0.5202 0.7615
H41 H 0.2769 0.5273 0.8166
H42 H 0.2606 0.5303 0.7706
H43 H 0.2605 0.5528 0.9345
H44 H 0.2712 0.5417 0.8864
H45 H 0.2821 0.5628 0.9107
H46 H 0.2225 0.6079 0.7630
H47 H 0.2480 0.6113 0.7546
H48 H 0.2363 0.5898 0.7341
H49 H 0.3739 0.5744 0.5174
H50 H 0.3697 0.5968 0.4888
H51 H 0.3921 0.5928 0.5178
H52 H 0.3403 0.6349 0.6840
H53 H 0.3621 0.6470 0.6677
H54 H 0.3404 0.6503 0.6357
H55 H 0.8111 0.8931 0.6556
H56 H 0.8317 0.9087 0.6598
H57 H 0.8115 0.9121 0.6963
H58 H 0.7803 0.9707 0.5283
H59 H 0.7839 0.9823 0.5812
H60 H 0.8040 0.9788 0.5442
H61 H 0.7856 0.9944 0.7122
H62 H 0.7805 0.9860 0.6569
H63 H 0.7794 0.9695 0.7031
H64 H 0.8738 0.9542 0.6567
H65 H 0.8579 0.9339 0.6499
H66 H 0.8606 0.9511 0.6056
H67 H 0.7191 0.8331 0.4839
H68 H 0.7295 0.8099 0.4961
H69 H 0.7089 0.8182 0.5271
H70 H 0.7834 0.8559 0.6531
H71 H 0.7669 0.8404 0.6824
H72 H 0.7859 0.8301 0.6492
H76 H 0.2944 0.8247 0.9870
H79 H 0.3277 0.8337 0.9317
H80 H 0.3514 0.8252 0.9471
H81 H 0.3456 0.8293 0.8895
H82 H 0.3807 0.9189 0.9393
H83 H 0.3929 0.9061 0.8954
H84 H 0.3988 0.9012 0.9525
H85 H 0.3534 0.9603 0.9934
H109 H 0.5863 0.8084 0.8545
H110 H 0.5644 0.8034 0.8245
H111 H 0.5670 0.8259 0.8540
H114 H 0.5137 0.7686 0.9729
H122 H 0.6798 0.7144 0.9577
H123 H 0.6898 0.7348 0.9867
H124 H 0.6313 0.7862 0.8479
H125 H 0.6567 0.7904 0.8392
H126 H 0.6450 0.7702 0.8128
H127 H 0.3881 0.7975 0.7080
H128 H 0.3924 0.7952 0.6492
H129 H 0.3864 0.7742 0.6816
H130 H 0.4841 0.7681 0.7066
H131 H 0.4727 0.7480 0.6792
H132 H 0.4793 0.7691 0.6478
H133 H 0.5128 0.7807 0.7792
H134 H 0.5363 0.7889 0.7964
H135 H 0.5252 0.7686 0.8237
H136 H 0.4873 0.8377 0.9585
H137 H 0.5037 0.8214 0.9856
H138 H 0.5128 0.8422 0.9563
H139 H 0.4349 0.8512 0.9714
H140 H 0.4195 0.8721 0.9718
H141 H 0.4111 0.8498 0.9955
H142 H 0.3783 0.8297 0.7886
H143 H 0.3600 0.8319 0.8307
H144 H 0.3687 0.8530 0.8022
H145 H 0.3568 0.6526 0.4423
H146 H 0.3418 0.6429 0.4859
H147 H 0.3595 0.6278 0.4591
H148 H 0.4163 0.6617 0.6273
H149 H 0.4123 0.6360 0.6263
H150 H 0.3948 0.6518 0.6515
H151 H 0.4350 0.7058 0.6434
H152 H 0.4261 0.7222 0.6849
H153 H 0.4509 0.7235 0.6675
H154 H 0.4126 0.7855 0.5161
H155 H 0.4305 0.7955 0.5529
H156 H 0.4057 0.7935 0.5709
H157 H 0.3807 0.7785 0.4215
H158 H 0.3548 0.7797 0.4181
H159 H 0.3692 0.7816 0.3684
H160 H 0.3577 0.6840 0.3688
H161 H 0.3493 0.6967 0.3203
H162 H 0.3341 0.6950 0.3688
H163 H 0.7116 0.7947 0.8283
H164 H 0.7040 0.7917 0.8851
H165 H 0.6862 0.7944 0.8418
H166 H 0.6949 0.6963 0.8349
H167 H 0.6711 0.7052 0.8471
H168 H 0.6885 0.7027 0.8910
H169 H 0.7087 0.6676 0.7484
H170 H 0.7184 0.6467 0.7211
H171 H 0.6960 0.6569 0.7025
H172 H 0.7555 0.7087 0.5666
H173 H 0.7376 0.6938 0.5399
H174 H 0.7602 0.6835 0.5572
H175 H 0.7552 0.7592 0.5561
H176 H 0.7700 0.7805 0.5505
H177 H 0.7460 0.7801 0.5275
H178 H 0.7251 0.8132 0.7362
H179 H 0.7163 0.8278 0.6911
H180 H 0.7408 0.8305 0.7102
Ag32 Ag 0.534770(17) 0.51306(2) 0.99364(4)
Ag33 Ag 0.263840(18) 0.752110(19) 0.32902(4)
Ag37 Ag 0.214850(16) 0.565180(16) 0.93904(4)
Ag38 Ag 0.194950(17) 0.598420(16) 0.84915(4)
Ag40 Ag 0.872230(16) 0.987130(15) 0.73838(4)
N66 N 0.74481(17) 0.58015(17) 0.4401(4)
N67 N 0.32629(17) 0.51455(18) 0.6333(4)
N68 N 0.33860(18) 0.52337(18) 0.5959(4)
N69 N 0.73716(16) 0.92413(15) 0.4583(4)
N70 N 0.72813(17) 0.90444(16) 0.4462(4)
Ag6_2 Ag 0.169600(16) 0.948080(14) 0.66035(4)
Ag16_2 Ag 0.153260(15) 0.806540(16) 0.53119(4)
Ag17_2 Ag 0.102350(16) 0.825110(17) 0.52823(4)
Ag18_2 Ag 0.116910(16) 0.789390(17) 0.43961(4)
Ag21_2 Ag 0.009390(16) 0.874650(16) 0.27027(4)
Ag29_2 Ag 0.036860(15) 0.971980(14) 0.00504(3)
N4_2 N 0.23183(16) 0.76018(18) 0.3402(4)
N9_2 N 0.14609(16) 0.91076(16) 0.7008(4)
N10_2 N 0.16032(16) 0.91604(15) 0.6642(4)
N15_2 N 0.17371(17) 0.48545(18) 0.1333(4)
N16_2 N 0.16140(18) 0.47663(18) 0.0959(4)
N31_2 N 0.14448(16) 0.83066(16) 0.5817(4)
N32_2 N 0.12329(18) 0.83699(17) 0.5819(4)
N33_2 N 0.08188(17) 0.82038(17) 0.4674(4)
N34_2 N 0.0875(2) 0.80510(18) 0.4329(4)
N35_2 N 0.14876(17) 0.77825(17) 0.4387(4)
N36_2 N 0.16360(16) 0.78708(17) 0.4724(4)
N39_2 N 0.01119(16) 0.83325(17) 0.3273(4)
N40_2 N 0.02092(18) 0.85349(17) 0.3249(5)
N41_2 N 0.00114(17) 0.89344(16) 0.2093(4)
N56_2 N 0.01756(16) 0.95986(15) 0.0628(4)
C6_2 C 0.1863(3) 0.7903(2) 0.2947(6)
C7_2 C 0.2014(2) 0.7773(2) 0.3244(5)
C8_2 C 0.1994(2) 0.7687(2) 0.3724(5)
C9_2 C 0.2191(2) 0.7583(2) 0.3804(5)
C10_2 C 0.2267(3) 0.7450(2) 0.4250(5)
C21_2 C 0.1219(3) 0.8805(2) 0.7258(6)
C22_2 C 0.1381(2) 0.89048(19) 0.6918(5)
C23_2 C 0.14719(17) 0.88260(18) 0.6480(5)
C24_2 C 0.1614(2) 0.8992(2) 0.6319(5)
C25_2 C 0.1758(2) 0.9008(2) 0.5873(5)
C31_2 C 0.1386(2) 0.5438(2) 0.0255(6)
C32_2 C 0.1624(2) 0.5424(2) 0.0190(5)
C33_2 C 0.1770(2) 0.5287(2) 0.0413(5)
C34_2 C 0.19690(18) 0.5348(2) 0.0220(5)
C35_2 C 0.2192(2) 0.5259(2) 0.0309(5)
C36_2 C 0.1945(2) 0.5183(2) 0.1533(6)
C37_2 C 0.1804(2) 0.50499(18) 0.1202(5)
C38_2 C 0.1726(2) 0.50944(17) 0.0725(5)
C39_2 C 0.1605(2) 0.4911(2) 0.0594(4)
C40_2 C 0.1494(3) 0.4866(3) 0.0112(5)
C76_2 C 0.1802(2) 0.84370(19) 0.6137(5)
C77_2 C 0.15640(17) 0.8461(2) 0.6068(4)
C78_2 C 0.14240(19) 0.8628(2) 0.6216(5)
C79_2 C 0.1219(2) 0.8561(2) 0.6060(5)
C80_2 C 0.1005(2) 0.8677(2) 0.6094(6)
C81_2 C 0.0562(2) 0.8498(2) 0.4818(6)
C82_2 C 0.06565(19) 0.83151(19) 0.4496(6)
C83_2 C 0.0596(2) 0.8242(2) 0.4032(5)
C84_2 C 0.0743(2) 0.8073(2) 0.3932(5)
C85_2 C 0.0759(3) 0.7934(3) 0.3481(5)
C86_2 C 0.1479(2) 0.7596(2) 0.3570(5)
C87_2 C 0.15970(19) 0.7701(2) 0.3997(4)
C88_2 C 0.1815(2) 0.7732(2) 0.4083(5)
C89_2 C 0.1828(2) 0.7837(2) 0.4538(5)
C90_2 C 0.2022(2) 0.7912(2) 0.4831(5)
C96_2 C 0.0172(3) 0.7981(2) 0.3650(7)
C97_2 C 0.0239(2) 0.8211(2) 0.3555(5)
C98_2 C 0.04144(19) 0.8320(2) 0.3724(5)
C99_2 C 0.0390(2) 0.8530(2) 0.3515(5)
C100_2 C 0.0537(3) 0.8720(2) 0.3548(6)
C101_2 C 0.0224(2) 0.9263(2) 0.2265(5)
C102_2 C 0.0074(2) 0.91323(19) 0.1941(4)
C138_2 C 0.00152(19) 0.93731(18) 0.1166(4)
C139_2 C 0.02080(19) 0.94416(17) 0.0963(4)
C140_2 C 0.0436(2) 0.93650(18) 0.1057(4)
H7_2 H 0.1928 0.7935 0.2621
H8_2 H 0.1832 0.8040 0.3123
H9_2 H 0.1727 0.7823 0.2898
H10_2 H 0.2415 0.7397 0.4187
H11_2 H 0.2170 0.7326 0.4298
H12_2 H 0.2267 0.7540 0.4550
H25_2 H 0.1188 0.8905 0.7535
H26_2 H 0.1277 0.8669 0.7392
H27_2 H 0.1085 0.8776 0.7074
H28_2 H 0.1836 0.9147 0.5878
H29_2 H 0.1671 0.8998 0.5568
H30_2 H 0.1864 0.8888 0.5878
H37_2 H 0.1328 0.5554 0.0043
H38_2 H 0.1320 0.5299 0.0160
H39_2 H 0.1353 0.5469 0.0606
H40_2 H 0.2298 0.5342 0.0115
H41_2 H 0.2227 0.5269 0.0666
H42_2 H 0.2197 0.5106 0.0206
H43_2 H 0.1972 0.5105 0.1845
H44_2 H 0.2083 0.5212 0.1364
H45_2 H 0.1872 0.5321 0.1607
H46_2 H 0.1421 0.4725 0.0130
H47_2 H 0.1387 0.4980 0.0046
H91_2 H 0.1850 0.8300 0.5987
H92_2 H 0.1836 0.8436 0.6495
H93_2 H 0.1877 0.8558 0.5975
H94_2 H 0.0891 0.8586 0.5945
H95_2 H 0.1013 0.8815 0.5914
H96_2 H 0.0970 0.8704 0.6446
H97_2 H 0.0643 0.8507 0.5132
H98_2 H 0.0409 0.8467 0.4890
H99_2 H 0.0573 0.8636 0.4638
H100_2 H 0.0877 0.7829 0.3525
H101_2 H 0.0789 0.8025 0.3188
H102_2 H 0.0621 0.7856 0.3431
H103_2 H 0.1323 0.7601 0.3631
H104_2 H 0.1526 0.7444 0.3539
H105_2 H 0.1513 0.7673 0.3259
H106_2 H 0.1974 0.7979 0.5144
H107_2 H 0.2104 0.8019 0.4634
H108_2 H 0.2115 0.7787 0.4905
H115_2 H 0.0034 0.7952 0.3479
H116_2 H 0.0284 0.7883 0.3521
H117_2 H 0.0155 0.7958 0.4010
H118_2 H 0.0474 0.8842 0.3364
H119_2 H 0.0556 0.8760 0.3900
H120_2 H 0.0678 0.8682 0.3403
H121_2 H 0.0263 0.9179 0.2563
H122_2 H 0.0356 0.9298 0.2077
H123_2 H 0.0152 0.9398 0.2367
H166_2 H 0.0537 0.9449 0.0849
H167_2 H 0.0448 0.9211 0.0971
H168_2 H 0.0473 0.9385 0.1410
Ag35_2 Ag 0.136360(15) 0.932340(15) 0.75570(4)
Ag37_2 Ag 0.184820(16) 0.464850(16) 0.18904(4)
Ag38_2 Ag 0.151580(16) 0.444950(17) 0.09915(4)
N65_2 N 0.17391(15) 0.98108(16) 0.6504(4)
Ag4_2 Ag 0.150850(15) 0.984880(15) 0.74841(4)
Ag7_2 Ag 0.160900(17) 0.577830(17) 0.93685(4)
Ag25_2 Ag 0.05896(2) 0.634870(17) 0.70013(5)
Ag26_2 Ag 0.051800(19) 0.664080(17) 0.80288(5)
Ag27_2 Ag 0.007250(18) 0.652720(17) 0.72587(4)
Ag30_2 Ag 0.013480(16) 0.993370(14) 0.89936(4)
N5_2 N 0.00264(18) 0.5467(2) 0.5734(5)
N7_2 N 0.12750(16) 0.97588(15) 0.7995(4)
N8_2 N 0.12294(14) 0.95435(14) 0.8047(4)
N13_2 N 0.17241(18) 0.55625(19) 0.9897(4)
N14_2 N 0.19417(17) 0.55177(18) 0.9902(4)
N17_2 N 0.16270(18) 0.60587(17) 0.8463(4)
N18_2 N 0.1493(2) 0.59830(19) 0.8829(5)
N49_2 N 0.08324(19) 0.63567(18) 0.7527(5)
N50_2 N 0.0816(2) 0.64910(18) 0.7928(5)
N51_2 N 0.02125(18) 0.67383(17) 0.8213(4)
N52_2 N 0.00308(18) 0.66908(18) 0.7941(5)
N53_2 N 0.01192(19) 0.63125(17) 0.6670(4)
N54_2 N 0.0330(2) 0.62650(17) 0.6552(5)
N57_2 N 0.05571(16) 0.97952(15) 0.9430(4)
N58_2 N 0.04700(17) 0.98957(17) 0.9027(4)
C11_2 C 0.0243(3) 0.5527(3) 0.6488(6)
C12_2 C 0.0117(3) 0.5612(3) 0.6063(5)
C13_2 C 0.0060(2) 0.5818(2) 0.5933(5)
C17_2 C 0.11343(19) 0.98737(18) 0.8280(4)
C18_2 C 0.09900(18) 0.97309(18) 0.8515(4)
C19_2 C 0.10562(19) 0.9527(2) 0.8348(5)
C20_2 C 0.0959(2) 0.9305(2) 0.8461(5)
C41_2 C 0.1600(2) 0.6265(2) 0.7682(5)
C42_2 C 0.1508(2) 0.61690(19) 0.8139(4)
C43_2 C 0.1285(2) 0.6169(2) 0.8289(5)
C44_2 C 0.1290(3) 0.6049(2) 0.8736(5)
C45_2 C 0.1101(3) 0.5989(3) 0.9055(7)
C121_2 C 0.1074(3) 0.6063(3) 0.7207(6)
C122_2 C 0.1007(3) 0.6231(2) 0.7593(5)
C123_2 C 0.1100(2) 0.62770(19) 0.8040(5)
C124_2 C 0.0976(3) 0.6439(2) 0.8253(6)
C125_2 C 0.0997(3) 0.6553(3) 0.8743(7)
C126_2 C 0.0294(3) 0.6860(2) 0.9065(7)
C127_2 C 0.0141(2) 0.6801(2) 0.8677(6)
C133_2 C 0.0119(2) 0.6018(2) 0.6194(5)
C134_2 C 0.0331(3) 0.6087(2) 0.6265(6)
C135_2 C 0.0536(3) 0.5991(2) 0.6069(6)
C141_2 C 0.0898(2) 0.9603(2) 0.9663(5)
C142_2 C 0.0755(2) 0.97240(19) 0.9307(4)
C143_2 C 0.07974(17) 0.97866(16) 0.8805(5)
C144_2 C 0.0611(2) 0.9893(2) 0.8657(5)
C145_2 C 0.0558(3) 0.9990(2) 0.8154(6)
H13_2 H 0.0250 0.5368 0.6466
H14_2 H 0.0172 0.5568 0.6801
H15_2 H 0.0390 0.5587 0.6479
H22_2 H 0.1044 0.9193 0.8293
H23_2 H 0.0809 0.9301 0.8339
H24_2 H 0.0961 0.9280 0.8822
H48_2 H 0.1602 0.4863 0.9841
H49_2 H 0.1756 0.6239 0.7674
H50_2 H 0.1532 0.6197 0.7388
H51_2 H 0.1572 0.6421 0.7678
H52_2 H 0.1151 0.5903 0.9340
H53_2 H 0.1030 0.6121 0.9177
H54_2 H 0.0997 0.5904 0.8857
H131_2 H 0.0020 0.7227 0.9292
H145_2 H 0.0974 0.6068 0.6923
H146_2 H 0.1071 0.5918 0.7359
H147_2 H 0.1222 0.6095 0.7091
H148_2 H 0.0883 0.6663 0.8773
H149_2 H 0.1140 0.6623 0.8763
H150_2 H 0.0982 0.6448 0.9015
H151_2 H 0.0442 0.6850 0.8934
H152_2 H 0.0278 0.6761 0.9349
H153_2 H 0.0265 0.7009 0.9175
H160_2 H 0.0660 0.6077 0.6188
H161_2 H 0.0533 0.5993 0.5703
H162_2 H 0.0550 0.5841 0.6188
H169_2 H 0.0824 0.9587 0.9984
H170_2 H 0.1033 0.9684 0.9711
H171_2 H 0.0931 0.9460 0.9525
H173_2 H 0.0562 0.9876 0.7899
N66_2 N 0.16985(17) 0.99481(17) 0.6901(4)
Ag39_2 Ag 0.738770(15) 0.071880(15) 0.01016(4)
Ag10_2 Ag 0.862630(15) 0.025520(14) 0.83075(4)
N19_2 N 0.83415(15) 0.04208(15) 0.8406(4)
N20_2 N 0.81662(15) 0.03515(15) 0.8126(4)
N21_2 N 0.76284(16) 0.07587(15) 0.9583(4)
N22_2 N 0.77187(17) 0.09556(16) 0.9462(4)
N24_2 N 0.89115(17) 0.00880(15) 0.8257(4)
C46_2 C 0.8421(2) 0.0659(2) 0.9125(5)
C47_2 C 0.82676(18) 0.05576(18) 0.8750(5)
C48_2 C 0.8045(2) 0.0581(2) 0.8701(4)
C49_2 C 0.79870(19) 0.0448(2) 0.8294(4)
C50_2 C 0.7775(2) 0.04040(19) 0.8063(5)
C51_2 C 0.7679(3) 0.0370(2) 0.9391(6)
C52_2 C 0.7732(2) 0.06020(18) 0.9319(5)
C53_2 C 0.7895(2) 0.0698(2) 0.9028(5)
C54_2 C 0.78805(17) 0.0922(2) 0.9124(5)
C55_2 C 0.8008(2) 0.1101(2) 0.8920(6)
C59_2 C 0.9080(2) 0.0106(2) 0.8569(5)
C60_2 C 0.9079(2) 0.0255(2) 0.9019(5)
C146_2 C 0.9749(2) 0.0051(2) 0.8052(5)
H55_2 H 0.8569 0.0611 0.9056
H56_2 H 0.8413 0.0817 0.9098
H57_2 H 0.8379 0.0615 0.9463
H58_2 H 0.7793 0.0303 0.7783
H59_2 H 0.7677 0.0339 0.8312
H60_2 H 0.7712 0.0540 0.7942
H61_2 H 0.7556 0.0356 0.9622
H62_2 H 0.7640 0.0305 0.9069
H63_2 H 0.7805 0.0294 0.9531
H64_2 H 0.7958 0.1238 0.9067
H65_2 H 0.8161 0.1079 0.8999
H66_2 H 0.7989 0.1106 0.8556
H70_2 H 0.8941 0.0334 0.9031
H71_2 H 0.9096 0.0169 0.9324
H72_2 H 0.9199 0.0359 0.8992
H175_2 H 0.9908 0.0052 0.8061
H176_2 H 0.9695 0.0200 0.8005
Ag40_2 Ag 0.762870(15) 0.122230(16) 0.98838(4)
Ag1_2 Ag 0.975362(17) 0.54150(2) 0.48293(4)
Ag2_2 Ag 0.965230(17) 0.48694(2) 0.49364(4)
Ag13_2 Ag 0.845130(16) 0.540780(14) 0.31128(4)
Ag14_2 Ag 0.881240(15) 0.559800(15) 0.23334(4)
Ag15_2 Ag 0.832390(15) 0.584910(14) 0.23347(4)
Ag19_2 Ag 0.972480(15) 0.855720(15) 0.17994(4)
Ag20_2 Ag 0.988140(16) 0.824510(16) 0.27497(4)
Ag22_2 Ag 0.937440(18) 0.668850(17) 0.03981(4)
Ag23_2 Ag 0.952950(18) 0.720260(17) 0.03366(4)
Ag24_2 Ag 0.921810(18) 0.704590(17) 0.13511(5)
N1_2 N 0.95562(19) 0.5259(2) 0.4311(4)
N2_2 N 0.9502(2) 0.5045(2) 0.4380(4)
N25_2 N 0.87632(17) 0.52916(16) 0.3176(4)
N26_2 N 0.89090(18) 0.53591(16) 0.2827(4)
N27_2 N 0.87682(16) 0.58766(16) 0.1931(4)
N28_2 N 0.85754(16) 0.59929(17) 0.1943(4)
N29_2 N 0.80933(16) 0.57197(14) 0.2811(4)
N30_2 N 0.81501(16) 0.55441(15) 0.3111(4)
N37_2 N 0.96096(17) 0.82424(17) 0.1817(4)
N38_2 N 0.96940(19) 0.81142(17) 0.2196(5)
N42_2 N 0.98629(16) 0.88577(15) 0.1748(4)
N45_2 N 0.94473(18) 0.74203(16) 0.0882(4)
N46_2 N 0.9322(2) 0.73638(18) 0.1286(5)
N47_2 N 0.91319(17) 0.67230(15) 0.1388(4)
N48_2 N 0.91803(18) 0.65953(19) 0.0990(5)
N55_2 N 0.99541(15) 0.96397(15) 0.0611(4)
C1_2 C 0.9446(3) 0.5580(2) 0.3844(6)
C2_2 C 0.9425(2) 0.5342(2) 0.3973(5)
C3_2 C 0.9275(2) 0.5194(2) 0.3820(5)
C4_2 C 0.9330(2) 0.4998(2) 0.4067(5)
C5_2 C 0.9233(2) 0.4786(2) 0.4051(6)
C26_2 C 0.7323(3) 0.5656(2) 0.3113(5)
C27_2 C 0.7426(2) 0.57060(18) 0.3598(5)
C28_2 C 0.76470(18) 0.57171(19) 0.3727(5)
C29_2 C 0.76552(18) 0.57770(19) 0.4217(5)
C30_2 C 0.7844(3) 0.5820(2) 0.4546(5)
C61_2 C 0.8752(3) 0.5127(2) 0.4029(5)
C62_2 C 0.8870(2) 0.52090(19) 0.3577(5)
C63_2 C 0.90930(19) 0.5224(2) 0.3468(5)
C64_2 C 0.9110(2) 0.5319(2) 0.2994(4)
C65_2 C 0.9302(2) 0.53790(19) 0.2685(5)
C66_2 C 0.9156(3) 0.5933(2) 0.1738(7)
C67_2 C 0.8921(2) 0.6011(2) 0.1784(5)
C68_2 C 0.88440(18) 0.6217(2) 0.1691(5)
C69_2 C 0.86209(17) 0.62012(18) 0.1807(5)
C70_2 C 0.8450(2) 0.6371(2) 0.1794(6)
C71_2 C 0.7803(2) 0.5988(2) 0.2711(6)
C72_2 C 0.7905(2) 0.58020(18) 0.2975(5)
C73_2 C 0.78362(19) 0.56776(19) 0.3397(5)
C74_2 C 0.7993(2) 0.5524(2) 0.3454(5)
C75_2 C 0.8012(2) 0.5350(2) 0.3846(6)
C91_2 C 0.9397(2) 0.8205(2) 0.1043(5)
C92_2 C 0.9496(2) 0.8112(2) 0.1491(5)
C93_2 C 0.9515(2) 0.78980(18) 0.1651(5)
C94_2 C 0.9637(2) 0.79130(18) 0.2093(5)
C95_2 C 0.9717(3) 0.7731(3) 0.2421(6)
C103_2 C 0.99823(18) 0.91854(18) 0.1490(4)
C104_2 C 0.98481(18) 0.9007(2) 0.1378(4)
C105_2 C 0.9707(2) 0.8955(2) 0.0930(5)
C111_2 C 0.9673(3) 0.7725(2) 0.0578(6)
C112_2 C 0.9521(2) 0.7621(2) 0.0953(5)
C113_2 C 0.9446(2) 0.7700(2) 0.1406(5)
C114_2 C 0.9322(2) 0.7532(2) 0.1599(5)
C115_2 C 0.9191(3) 0.7516(2) 0.2065(7)
C116_2 C 0.8937(3) 0.6699(2) 0.2187(6)
C117_2 C 0.9001(2) 0.6609(2) 0.1699(6)
C118_2 C 0.8965(2) 0.6405(2) 0.1501(5)
C119_2 C 0.9083(2) 0.64026(19) 0.1052(5)
C120_2 C 0.9112(3) 0.6227(2) 0.0657(6)
C136_2 C 0.9617(2) 0.95050(18) 0.1002(5)
C137_2 C 0.98570(19) 0.9501(2) 0.0931(5)
H1_2 H 0.9571 0.5642 0.4022
H2_2 H 0.9314 0.5657 0.3944
H3_2 H 0.9467 0.5596 0.3483
H4_2 H 0.9311 0.4689 0.4279
H5_2 H 0.9242 0.4728 0.3710
H6_2 H 0.9081 0.4796 0.4154
H31_2 H 0.7165 0.5660 0.3149
H32_2 H 0.7368 0.5512 0.3002
H33_2 H 0.7368 0.5765 0.2865
H34_2 H 0.7793 0.5860 0.4880
H35_2 H 0.7930 0.5940 0.4407
H36_2 H 0.7934 0.5689 0.4567
H73_2 H 0.8595 0.5137 0.3973
H74_2 H 0.8791 0.5215 0.4320
H75_2 H 0.8792 0.4975 0.4091
H76_2 H 0.9253 0.5444 0.2370
H77_2 H 0.9388 0.5249 0.2614
H78_2 H 0.9392 0.5484 0.2868
H79_2 H 0.9163 0.5777 0.1817
H80_2 H 0.9248 0.6014 0.1971
H81_2 H 0.9207 0.5956 0.1395
H82_2 H 0.8311 0.6307 0.1893
H83_2 H 0.8439 0.6429 0.1454
H84_2 H 0.8488 0.6488 0.2025
H85_2 H 0.7897 0.6034 0.2434
H86_2 H 0.7783 0.6109 0.2944
H87_2 H 0.7662 0.5944 0.2578
H88_2 H 0.8144 0.5265 0.3786
H89_2 H 0.7885 0.5255 0.3830
H90_2 H 0.8020 0.5417 0.4177
H109_2 H 0.9416 0.8363 0.1045
H110_2 H 0.9466 0.8144 0.0745
H111_2 H 0.9241 0.8170 0.1040
H112_2 H 0.9796 0.7792 0.2707
H113_2 H 0.9593 0.7647 0.2542
H114_2 H 0.9814 0.7637 0.2229
H124_2 H 0.9638 0.8813 0.0979
H125_2 H 0.9596 0.9067 0.0892
H126_2 H 0.9798 0.8950 0.0628
H133_2 H 0.9693 0.7628 0.0292
H134_2 H 0.9611 0.7863 0.0464
H135_2 H 0.9814 0.7752 0.0737
H136_2 H 0.9123 0.7373 0.2085
H137_2 H 0.9286 0.7537 0.2356
H138_2 H 0.9078 0.7628 0.2063
H139_2 H 0.8988 0.6849 0.2214
H140_2 H 0.8779 0.6695 0.2218
H141_2 H 0.9002 0.6611 0.2455
H142_2 H 0.9203 0.6283 0.0386
H143_2 H 0.9181 0.6100 0.0807
H144_2 H 0.8970 0.6187 0.0522
H163_2 H 0.9553 0.9616 0.0783
H164_2 H 0.9583 0.9540 0.1351
H165_2 H 0.9556 0.9362 0.0918
N61_2 N 0.9775(2) 0.47090(17) 0.5552(4)
N63_2 N 0.99098(19) 0.5585(2) 0.5387(4)
Ag28_2 Ag 0.982440(15) 0.977260(14) 0.99762(4)
N23_2 N 0.89643(17) 0.99455(17) 0.7899(4)
N43_2 N 0.9574(2) 0.67820(19) 0.9814(5)
N44_2 N 0.96390(18) 0.69907(17) 0.9809(4)
N59_2 N 0.98005(16) 0.99172(15) 0.8911(4)
N60_2 N 0.96794(16) 0.98527(16) 0.9305(4)
C14_2 C 0.9927(2) 0.5793(2) 0.5511(5)
C15_2 C 0.9814(2) 0.5965(3) 0.5195(6)
C56_2 C 0.9273(3) 0.9724(3) 0.7605(7)
C57_2 C 0.9170(2) 0.9871(2) 0.7977(5)
C58_2 C 0.9246(2) 0.9967(2) 0.8421(5)
C106_2 C 0.9619(3) 0.6441(2) 0.9318(6)
C107_2 C 0.9658(2) 0.66800(19) 0.9418(5)
C108_2 C 0.9785(2) 0.6827(2) 0.9133(5)
C109_2 C 0.9764(2) 0.7023(2) 0.9404(5)
C110_2 C 0.9861(2) 0.7239(2) 0.9301(5)
C128_2 C 0.9916(2) 0.6787(2) 0.8688(5)
C129_2 C 0.9854(2) 0.6718(2) 0.8212(6)
C130_2 C 0.9633(3) 0.6673(2) 0.8011(6)
C131_2 C 0.9753(3) 0.6181(2) 0.6512(7)
C132_2 C 0.9994(2) 0.6171(2) 0.6447(5)
C147_2 C 0.9664(2) 0.99630(19) 0.8530(5)
C148_2 C 0.9450(2) 0.9929(2) 0.8690(5)
C149_2 C 0.94700(19) 0.98625(18) 0.9174(5)
C150_2 C 0.9299(3) 0.9789(2) 0.9545(6)
H16_2 H 0.9734 0.5894 0.4923
H17_2 H 0.9922 0.6064 0.5055
H18_2 H 0.9712 0.6047 0.5405
H67_2 H 0.9169 0.9691 0.7339
H68_2 H 0.9401 0.9795 0.7461
H69_2 H 0.9318 0.9589 0.7771
H127_2 H 0.9525 0.6381 0.9580
H128_2 H 0.9548 0.6424 0.8992
H129_2 H 0.9758 0.6364 0.9316
H130_2 H 0.9819 0.7341 0.9566
H132_2 H 0.9809 0.7293 0.8978
H154_2 H 0.9645 0.6626 0.7661
H155_2 H 0.9545 0.6805 0.8029
H156_2 H 0.9565 0.6557 0.8209
H157_2 H 0.9715 0.6307 0.6715
H158_2 H 0.9703 0.6048 0.6681
H159_2 H 0.9684 0.6192 0.6184
H177_2 H 0.9699 0.9960 0.7775
H178_2 H 0.9368 0.9751 0.9862
H179_2 H 0.9222 0.9663 0.9411
H180_2 H 0.9195 0.9908 0.9602
Ag33_2 Ag 0.997890(19) 0.513840(18) 0.57902(4)
Ag1_3 Ag 0.20850(2) 0.225362(17) 0.73293(4)
Ag2_3 Ag 0.26306(2) 0.215230(17) 0.74364(4)
Ag7_3 Ag 0.172170(17) 0.410900(17) 0.18685(4)
Ag13_3 Ag 0.209220(14) 0.095130(16) 0.56128(4)
Ag14_3 Ag 0.190200(15) 0.131240(15) 0.48334(4)
Ag15_3 Ag 0.165090(14) 0.082390(15) 0.48347(4)
Ag22_3 Ag 0.081150(17) 0.187440(18) 0.28981(4)
Ag23_3 Ag 0.029740(17) 0.202950(18) 0.28366(4)
Ag24_3 Ag 0.045410(17) 0.171810(18) 0.38511(5)
Ag26_3 Ag 0.085920(17) 0.301800(19) 0.05288(5)
N1_3 N 0.2241(2) 0.20562(19) 0.6811(4)
N2_3 N 0.2455(2) 0.2002(2) 0.6880(4)
N13_3 N 0.19375(19) 0.42241(18) 0.2397(4)
N14_3 N 0.19823(18) 0.44417(17) 0.2402(4)
N15_3 N 0.26455(18) 0.42371(17) 0.3833(4)
N16_3 N 0.27337(18) 0.41140(18) 0.3459(4)
N17_3 N 0.14413(17) 0.41270(18) 0.0963(4)
N18_3 N 0.15170(19) 0.3993(2) 0.1329(5)
N25_3 N 0.22084(16) 0.12632(17) 0.5676(4)
N26_3 N 0.21409(16) 0.14090(18) 0.5327(4)
N27_3 N 0.16234(16) 0.12682(16) 0.4431(4)
N28_3 N 0.15071(17) 0.10754(16) 0.4443(4)
N29_3 N 0.17803(14) 0.05933(16) 0.5311(4)
N30_3 N 0.19559(15) 0.06501(16) 0.5611(4)
N43_3 N 0.07180(19) 0.2074(2) 0.2314(5)
N44_3 N 0.05093(17) 0.21390(18) 0.2309(4)
N45_3 N 0.00797(16) 0.19473(18) 0.3382(4)
N46_3 N 0.01362(18) 0.1822(2) 0.3786(5)
N47_3 N 0.07770(15) 0.16319(17) 0.3888(4)
N48_3 N 0.09047(19) 0.16803(18) 0.3490(5)
N49_3 N 0.11433(18) 0.33324(19) 0.0027(5)
N50_3 N 0.10090(18) 0.3316(2) 0.0428(5)
N51_3 N 0.07617(17) 0.27125(18) 0.0713(4)
N52_3 N 0.08092(18) 0.25308(18) 0.0441(5)
C1_3 C 0.1920(2) 0.1946(3) 0.6344(6)
C2_3 C 0.2158(2) 0.1925(2) 0.6473(5)
C3_3 C 0.2306(2) 0.1775(2) 0.6320(5)
C4_3 C 0.2502(2) 0.1830(2) 0.6567(5)
C5_3 C 0.2714(2) 0.1733(2) 0.6551(6)
C10_3 C 0.0050(2) 0.4767(3) 0.6750(5)
C28_3 C 0.17829(19) 0.01470(18) 0.6227(5)
C29_3 C 0.17230(19) 0.01552(18) 0.6717(5)
C30_3 C 0.1680(2) 0.0344(3) 0.7046(5)
C31_3 C 0.2062(2) 0.3886(2) 0.2755(6)
C32_3 C 0.2076(2) 0.4124(2) 0.2690(5)
C33_3 C 0.2213(2) 0.4270(2) 0.2913(5)
C34_3 C 0.2152(2) 0.44690(18) 0.2720(5)
C35_3 C 0.2241(2) 0.4692(2) 0.2809(5)
C36_3 C 0.2317(2) 0.4445(2) 0.4033(6)
C37_3 C 0.24501(18) 0.4304(2) 0.3702(5)
C38_3 C 0.24056(17) 0.4226(2) 0.3225(5)
C39_3 C 0.2589(2) 0.4105(2) 0.3094(4)
C40_3 C 0.2634(3) 0.3994(3) 0.2612(5)
C41_3 C 0.1235(2) 0.4100(2) 0.0182(5)
C42_3 C 0.13310(19) 0.4008(2) 0.0639(4)
C43_3 C 0.1331(2) 0.3785(2) 0.0789(5)
C44_3 C 0.1451(2) 0.3790(3) 0.1236(5)
C45_3 C 0.1511(3) 0.3601(3) 0.1555(7)
C61_3 C 0.2373(2) 0.1252(3) 0.6529(5)
C62_3 C 0.22910(19) 0.1370(2) 0.6077(5)
C63_3 C 0.2276(2) 0.15930(19) 0.5968(5)
C64_3 C 0.2181(2) 0.1610(2) 0.5494(4)
C65_3 C 0.21210(19) 0.1802(2) 0.5185(5)
C66_3 C 0.1567(2) 0.1656(3) 0.4238(7)
C67_3 C 0.1489(2) 0.1421(2) 0.4284(5)
C68_3 C 0.1283(2) 0.13440(18) 0.4191(5)
C69_3 C 0.12988(18) 0.11209(17) 0.4307(5)
C70_3 C 0.1129(2) 0.0950(2) 0.4294(6)
C71_3 C 0.1512(2) 0.0303(2) 0.5211(6)
C72_3 C 0.16980(18) 0.0405(2) 0.5475(5)
C73_3 C 0.18224(19) 0.03362(19) 0.5897(5)
C74_3 C 0.1976(2) 0.0493(2) 0.5954(5)
C75_3 C 0.2150(2) 0.0512(2) 0.6346(6)
C106_3 C 0.1059(2) 0.2119(3) 0.1818(6)
C107_3 C 0.08200(19) 0.2158(2) 0.1918(5)
C108_3 C 0.0673(2) 0.2285(2) 0.1633(5)
C109_3 C 0.0477(2) 0.2264(2) 0.1904(5)
C110_3 C 0.0261(2) 0.2361(2) 0.1801(5)
C116_3 C 0.0801(2) 0.1437(3) 0.4687(6)
C117_3 C 0.0891(2) 0.1501(2) 0.4199(6)
C118_3 C 0.1095(2) 0.1465(2) 0.4001(5)
C119_3 C 0.10974(19) 0.1583(2) 0.3552(5)
C120_3 C 0.1273(2) 0.1612(3) 0.3157(6)
C122_3 C 0.1269(2) 0.3507(3) 0.0093(5)
C123_3 C 0.12230(19) 0.3600(2) 0.0540(5)
C124_3 C 0.1061(2) 0.3476(3) 0.0753(6)
C125_3 C 0.0947(3) 0.3497(3) 0.1243(7)
C126_3 C 0.0640(2) 0.2794(3) 0.1565(7)
C127_3 C 0.0699(2) 0.2641(2) 0.1177(6)
C128_3 C 0.0713(2) 0.2416(2) 0.1188(5)
C129_3 C 0.0782(2) 0.2354(2) 0.0712(6)
C130_3 C 0.0827(2) 0.2133(3) 0.0511(6)
H1_3 H 0.1858 0.2071 0.6522
H2_3 H 0.1843 0.1814 0.6444
H3_3 H 0.1904 0.1967 0.5983
H4_3 H 0.2811 0.1811 0.6779
H5_3 H 0.2772 0.1742 0.6210
H6_3 H 0.2704 0.1581 0.6654
H10_3 H 0.0103 0.4915 0.6687
H11_3 H 0.0174 0.4670 0.6798
H34_3 H 0.1640 0.0293 0.7380
H35_3 H 0.1560 0.0430 0.6907
H36_3 H 0.1811 0.0434 0.7067
H37_3 H 0.1946 0.3828 0.2543
H38_3 H 0.2201 0.3820 0.2660
H39_3 H 0.2031 0.3853 0.3106
H40_3 H 0.2158 0.4798 0.2615
H41_3 H 0.2231 0.4727 0.3166
H42_3 H 0.2394 0.4697 0.2706
H43_3 H 0.2395 0.4472 0.4345
H44_3 H 0.2288 0.4583 0.3864
H45_3 H 0.2179 0.4372 0.4107
H46_3 H 0.2775 0.3921 0.2630
H47_3 H 0.2520 0.3887 0.2546
H48_3 H 0.2637 0.4102 0.2341
H49_3 H 0.1261 0.4256 0.0174
H51_3 H 0.1079 0.4072 0.0178
H52_3 H 0.1597 0.3651 0.1840
H53_3 H 0.1379 0.3530 0.1677
H54_3 H 0.1596 0.3497 0.1357
H73_3 H 0.2363 0.1095 0.6473
H74_3 H 0.2285 0.1291 0.6820
H75_3 H 0.2525 0.1292 0.6591
H76_3 H 0.2056 0.1753 0.4870
H77_3 H 0.2251 0.1888 0.5114
H78_3 H 0.2016 0.1892 0.5368
H79_3 H 0.1723 0.1663 0.4317
H80_3 H 0.1486 0.1748 0.4471
H81_3 H 0.1544 0.1707 0.3895
H82_3 H 0.1193 0.0811 0.4393
H83_3 H 0.1071 0.0939 0.3954
H84_3 H 0.1012 0.0988 0.4525
H85_3 H 0.1466 0.0397 0.4934
H86_3 H 0.1391 0.0283 0.5444
H87_3 H 0.1556 0.0162 0.5078
H88_3 H 0.2235 0.0644 0.6286
H89_3 H 0.2245 0.0385 0.6330
H90_3 H 0.2083 0.0520 0.6677
H104_3 H 0.0056 0.4026 0.6039
H127_3 H 0.1119 0.2025 0.2080
H128_3 H 0.1076 0.2048 0.1492
H129_3 H 0.1136 0.2258 0.1816
H130_3 H 0.0159 0.2319 0.2066
H131_3 H 0.0273 0.2520 0.1792
H132_3 H 0.0207 0.2309 0.1478
H136_3 H 0.0127 0.1623 0.4585
H139_3 H 0.0651 0.1488 0.4714
H140_3 H 0.0805 0.1279 0.4718
H141_3 H 0.0889 0.1502 0.4955
H142_3 H 0.1217 0.1703 0.2886
H143_3 H 0.1400 0.1681 0.3307
H144_3 H 0.1313 0.1470 0.3022
H148_3 H 0.0837 0.3383 0.1273
H149_3 H 0.0877 0.3640 0.1263
H150_3 H 0.1052 0.3482 0.1515
H151_3 H 0.0650 0.2942 0.1434
H152_3 H 0.0739 0.2778 0.1849
H153_3 H 0.0491 0.2765 0.1675
H154_3 H 0.0874 0.2145 0.0161
H155_3 H 0.0695 0.2045 0.0529
H156_3 H 0.0943 0.2065 0.0709
Ag37_3 Ag 0.285150(16) 0.434820(16) 0.43904(4)
Ag38_3 Ag 0.305050(17) 0.401580(16) 0.34915(4)
N61_3 N 0.27910(17) 0.2275(2) 0.8052(4)
N63_3 N 0.1915(2) 0.24098(19) 0.7887(4)
Ag25_3 Ag 0.115130(17) 0.30896(2) 0.95013(5)
Ag27_3 Ag 0.097280(17) 0.257250(18) 0.97587(4)
N5_3 N 0.2033(2) 0.25264(18) 0.8234(5)
N53_3 N 0.11875(17) 0.26192(19) 0.9170(4)
N54_3 N 0.12350(17) 0.2830(2) 0.9052(5)
C11_3 C 0.1973(3) 0.2743(3) 0.8988(6)
C12_3 C 0.1888(3) 0.2617(3) 0.8563(5)
C13_3 C 0.1682(2) 0.2560(2) 0.8433(5)
C14_3 C 0.1707(2) 0.2427(2) 0.8011(5)
C15_3 C 0.1535(3) 0.2314(2) 0.7695(6)
C121_3 C 0.1437(3) 0.3574(3) 0.9707(6)
C131_3 C 0.1319(2) 0.2253(3) 0.9012(7)
C132_3 C 0.1329(2) 0.2494(2) 0.8947(5)
C133_3 C 0.1482(2) 0.2619(2) 0.8694(5)
C134_3 C 0.1413(2) 0.2831(3) 0.8765(6)
C135_3 C 0.1509(2) 0.3036(3) 0.8569(6)
H13_3 H 0.2132 0.2750 0.8966
H14_3 H 0.1932 0.2672 0.9301
H15_3 H 0.1913 0.2890 0.8979
H16_3 H 0.1606 0.2234 0.7423
H17_3 H 0.1436 0.2422 0.7555
H18_3 H 0.1453 0.2212 0.7905
H50_3 H 0.1303 0.4032 0.9888
H145_3 H 0.1432 0.3474 0.9423
H146_3 H 0.1582 0.3571 0.9859
H147_3 H 0.1405 0.3722 0.9591
H157_3 H 0.1193 0.2215 0.9215
H158_3 H 0.1452 0.2203 0.9181
H159_3 H 0.1308 0.2184 0.8684
H160_3 H 0.1423 0.3160 0.8688
H161_3 H 0.1507 0.3033 0.8203
H162_3 H 0.1659 0.3050 0.8688
Ag33_3 Ag 0.236160(18) 0.247890(19) 0.82902(4)
C26_3 C 0.1844(2) 0.9823(3) 0.5613(5)
C27_3 C 0.17940(18) 0.9926(2) 0.6098(5)
H31_3 H 0.1840 0.9665 0.5649
H32_3 H 0.1988 0.9868 0.5502
H33_3 H 0.1735 0.9868 0.5365
H25_3 H 0.8595 0.3688 0.0035
Ag35_3 Ag 0.817660(15) 0.386360(15) 0.00570(4)
Ag6_3 Ag 0.801920(14) 0.419600(16) 0.91035(4)
Ag10_3 Ag 0.724480(14) 0.112630(15) 0.08075(4)
Ag16_3 Ag 0.943460(16) 0.403260(15) 0.78119(4)
Ag17_3 Ag 0.924890(17) 0.352350(16) 0.77823(4)
Ag18_3 Ag 0.960610(17) 0.366910(16) 0.68961(4)
Ag19_3 Ag 0.894280(15) 0.222480(15) 0.42994(4)
Ag20_3 Ag 0.925490(16) 0.238140(16) 0.52497(4)
Ag21_3 Ag 0.875350(16) 0.259390(16) 0.52027(4)
Ag28_3 Ag 0.772740(14) 0.232440(15) 0.24762(4)
Ag29_3 Ag 0.778020(14) 0.286860(15) 0.25504(3)
Ag30_3 Ag 0.756630(14) 0.263480(16) 0.14936(4)
N4_3 N 0.98982(18) 0.48183(16) 0.5902(4)
N7_3 N 0.77412(15) 0.37750(16) 0.0495(4)
N8_3 N 0.79565(14) 0.37294(14) 0.0547(4)
N9_3 N 0.83924(16) 0.39609(16) 0.9508(4)
N10_3 N 0.83396(15) 0.41032(16) 0.9142(4)
N19_3 N 0.70792(15) 0.08415(15) 0.0906(4)
N20_3 N 0.71485(15) 0.06662(15) 0.0626(4)
N21_3 N 0.67413(15) 0.01284(16) 0.2083(4)
N22_3 N 0.65444(16) 0.02187(17) 0.1962(4)
N23_3 N 0.75545(17) 0.14643(17) 0.0399(4)
N24_3 N 0.74120(15) 0.14115(17) 0.0757(4)
N31_3 N 0.91934(16) 0.39448(16) 0.8317(4)
N32_3 N 0.91301(17) 0.37329(18) 0.8319(4)
N33_3 N 0.92962(17) 0.33188(17) 0.7174(4)
N34_3 N 0.94490(18) 0.3375(2) 0.6829(4)
N35_3 N 0.97175(17) 0.39876(17) 0.6887(4)
N36_3 N 0.96292(17) 0.41360(16) 0.7224(4)
N37_3 N 0.92576(17) 0.21096(17) 0.4317(4)
N38_3 N 0.93858(17) 0.21940(19) 0.4696(5)
N39_3 N 0.91675(17) 0.26119(16) 0.5773(4)
N40_3 N 0.89651(17) 0.27092(18) 0.5749(5)
N41_3 N 0.85656(16) 0.25114(17) 0.4593(4)
N42_3 N 0.86423(15) 0.23629(16) 0.4248(4)
N55_3 N 0.78603(15) 0.24541(15) 0.3111(4)
N56_3 N 0.79014(15) 0.26756(16) 0.3128(4)
N57_3 N 0.77048(15) 0.30571(16) 0.1930(4)
N58_3 N 0.76043(17) 0.29700(17) 0.1527(4)
N59_3 N 0.75828(15) 0.23005(16) 0.1411(4)
N60_3 N 0.76473(16) 0.21794(16) 0.1805(4)
C6_3 C 0.9597(2) 0.4363(3) 0.5447(6)
C7_3 C 0.9727(2) 0.4514(2) 0.5744(5)
C8_3 C 0.9813(2) 0.4494(2) 0.6224(5)
C9_3 C 0.9917(2) 0.4691(2) 0.6304(5)
C16_2 C 0.73922(18) 0.3658(2) 0.0812(6)
C17_3 C 0.76263(18) 0.36343(19) 0.0780(4)
C18_3 C 0.77691(18) 0.34900(18) 0.1015(4)
C19_3 C 0.7973(2) 0.35562(19) 0.0848(5)
C20_3 C 0.8195(2) 0.3459(2) 0.0961(5)
C21_3 C 0.8695(2) 0.3719(3) 0.9758(6)
C22_3 C 0.85952(19) 0.3881(2) 0.9418(5)
C23_3 C 0.86740(18) 0.39719(17) 0.8980(5)
C24_3 C 0.8508(2) 0.4114(2) 0.8819(5)
C25_3 C 0.8492(2) 0.4258(2) 0.8373(5)
C46_3 C 0.6841(2) 0.0921(2) 0.1625(5)
C47_3 C 0.69424(18) 0.07676(18) 0.1250(5)
C48_3 C 0.6919(2) 0.0545(2) 0.1201(4)
C49_3 C 0.7052(2) 0.04870(19) 0.0794(4)
C50_3 C 0.70960(19) 0.0275(2) 0.0563(5)
C51_3 C 0.7130(2) 0.0179(3) 0.1891(6)
C52_3 C 0.68980(18) 0.0232(2) 0.1819(5)
C53_3 C 0.6802(2) 0.0395(2) 0.1528(5)
C54_3 C 0.6578(2) 0.03805(17) 0.1624(5)
C55_3 C 0.6399(2) 0.0508(2) 0.1420(6)
C56_3 C 0.7776(3) 0.1773(3) 0.0105(7)
C57_3 C 0.7629(2) 0.1670(2) 0.0477(5)
C58_3 C 0.7533(2) 0.1746(2) 0.0921(5)
C59_3 C 0.7394(2) 0.1580(2) 0.1069(5)
C60_3 C 0.7245(2) 0.1579(2) 0.1519(5)
C76_3 C 0.90630(19) 0.4302(2) 0.8637(5)
C77_3 C 0.9039(2) 0.40640(17) 0.8568(4)
C78_3 C 0.8872(2) 0.39240(19) 0.8716(5)
C79_3 C 0.8939(2) 0.3719(2) 0.8560(5)
C80_3 C 0.8823(2) 0.3505(2) 0.8594(6)
C81_3 C 0.9002(2) 0.3062(2) 0.7318(6)
C82_3 C 0.91849(19) 0.31565(19) 0.6996(6)
C83_3 C 0.9258(2) 0.3096(2) 0.6532(5)
C84_3 C 0.9427(2) 0.3243(2) 0.6432(5)
C85_3 C 0.9566(3) 0.3259(3) 0.5981(5)
C86_3 C 0.9904(2) 0.3979(2) 0.6070(5)
C87_3 C 0.9799(2) 0.40970(19) 0.6497(4)
C88_3 C 0.9768(2) 0.4315(2) 0.6583(5)
C89_3 C 0.9663(2) 0.4328(2) 0.7038(5)
C90_3 C 0.9588(2) 0.4522(2) 0.7331(5)
C91_3 C 0.9295(2) 0.1897(2) 0.3543(5)
C92_3 C 0.9388(2) 0.1996(2) 0.3991(5)
C93_3 C 0.96020(18) 0.2015(2) 0.4151(5)
C94_3 C 0.95870(18) 0.2137(2) 0.4593(5)
C95_3 C 0.9769(3) 0.2217(3) 0.4921(6)
C96_3 C 0.9519(2) 0.2672(3) 0.6150(7)
C97_3 C 0.9289(2) 0.2739(2) 0.6055(5)
C98_3 C 0.9180(2) 0.29144(19) 0.6224(5)
C99_3 C 0.8970(2) 0.2890(2) 0.6015(5)
C100_3 C 0.8780(2) 0.3037(3) 0.6048(6)
C101_3 C 0.8237(2) 0.2724(2) 0.4765(5)
C102_3 C 0.83677(19) 0.2574(2) 0.4441(4)
C103_3 C 0.83146(18) 0.24823(18) 0.3990(4)
C104_3 C 0.8493(2) 0.23481(18) 0.3878(4)
C105_3 C 0.8545(2) 0.2207(2) 0.3430(5)
C111_3 C 0.9775(2) 0.2173(3) 0.3078(6)
C112_3 C 0.9879(2) 0.2021(2) 0.3453(5)
C113_3 C 0.9800(2) 0.1946(2) 0.3906(5)
C114_3 C 0.9968(2) 0.1822(2) 0.4099(5)
C115_3 C 0.9984(2) 0.1691(3) 0.4565(7)
C136_3 C 0.79950(18) 0.2117(2) 0.3502(5)
C137_3 C 0.7999(2) 0.23570(19) 0.3431(5)
C138_3 C 0.81269(18) 0.25152(19) 0.3666(4)
C139_3 C 0.80584(17) 0.27080(19) 0.3463(4)
C140_3 C 0.81350(18) 0.2936(2) 0.3557(4)
C141_3 C 0.7897(2) 0.3398(2) 0.2163(5)
C142_3 C 0.77760(19) 0.3255(2) 0.1807(4)
C143_3 C 0.77134(16) 0.32974(17) 0.1305(5)
C144_3 C 0.7607(2) 0.3111(2) 0.1157(5)
C145_3 C 0.7510(2) 0.3058(3) 0.0654(6)
C146_3 C 0.7449(2) 0.2249(2) 0.0552(5)
C147_3 C 0.75370(19) 0.2164(2) 0.1030(5)
C148_3 C 0.7571(2) 0.1950(2) 0.1190(5)
C149_3 C 0.76375(18) 0.19700(19) 0.1674(5)
C150_3 C 0.7711(2) 0.1799(3) 0.2045(6)
H7_3 H 0.9565 0.4428 0.5121
H8_3 H 0.9460 0.4332 0.5623
H9_3 H 0.9677 0.4227 0.5398
H12_3 H 0.9960 0.4767 0.7050
H19_2 H 0.7345 0.3779 0.0599
H20_2 H 0.7351 0.3687 0.1159
H21_2 H 0.7322 0.3524 0.0700
H22_3 H 0.8307 0.3544 0.0793
H23_3 H 0.8199 0.3309 0.0839
H24_3 H 0.8220 0.3461 0.1322
H26_3 H 0.8831 0.3777 0.9892
H27_3 H 0.8724 0.3585 0.9574
H28_3 H 0.8353 0.4336 0.8378
H29_3 H 0.8502 0.4171 0.8068
H30_3 H 0.8612 0.4364 0.8378
H55_3 H 0.6889 0.1069 0.1556
H56_3 H 0.6683 0.0913 0.1598
H57_3 H 0.6885 0.0879 0.1963
H58_3 H 0.7197 0.0293 0.0283
H59_3 H 0.7161 0.0177 0.0812
H60_3 H 0.6960 0.0212 0.0442
H61_3 H 0.7144 0.0056 0.2122
H62_3 H 0.7195 0.0140 0.1569
H63_3 H 0.7206 0.0305 0.2031
H64_3 H 0.6262 0.0458 0.1567
H65_3 H 0.6421 0.0661 0.1499
H66_3 H 0.6394 0.0489 0.1056
H69_3 H 0.7911 0.1818 0.0271
H70_3 H 0.7166 0.1441 0.1531
H71_3 H 0.7331 0.1596 0.1824
H72_3 H 0.7141 0.1699 0.1492
H91_3 H 0.9200 0.4350 0.8487
H92_3 H 0.9064 0.4336 0.8995
H93_3 H 0.8942 0.4377 0.8475
H94_3 H 0.8914 0.3391 0.8445
H95_3 H 0.8685 0.3513 0.8414
H96_3 H 0.8796 0.3470 0.8946
H97_3 H 0.8993 0.3143 0.7632
H98_3 H 0.9033 0.2909 0.7390
H99_3 H 0.8864 0.3073 0.7138
H100_3 H 0.9671 0.3377 0.6025
H101_3 H 0.9475 0.3289 0.5688
H102_3 H 0.9644 0.3121 0.5931
H103_3 H 0.9899 0.3823 0.6131
H105_3 H 0.9827 0.4013 0.5759
H106_3 H 0.9521 0.4474 0.7644
H107_3 H 0.9481 0.4604 0.7134
H108_3 H 0.9713 0.4615 0.7405
H109_3 H 0.9137 0.1916 0.3545
H110_3 H 0.9356 0.1966 0.3245
H111_3 H 0.9330 0.1741 0.3540
H112_3 H 0.9708 0.2296 0.5207
H113_3 H 0.9853 0.2093 0.5042
H114_3 H 0.9863 0.2314 0.4729
H115_3 H 0.9548 0.2534 0.5979
H116_3 H 0.9617 0.2784 0.6021
H117_3 H 0.9542 0.2655 0.6510
H118_3 H 0.8658 0.2974 0.5864
H119_3 H 0.8740 0.3056 0.6400
H120_3 H 0.8818 0.3178 0.5903
H121_3 H 0.8321 0.2763 0.5063
H122_3 H 0.8202 0.2856 0.4577
H123_3 H 0.8102 0.2652 0.4867
H124_3 H 0.8687 0.2138 0.3479
H125_3 H 0.8433 0.2096 0.3392
H126_3 H 0.8550 0.2298 0.3128
H133_3 H 0.9872 0.2193 0.2792
H134_3 H 0.9637 0.2111 0.2964
H135_3 H 0.9748 0.2314 0.3237
H137_3 H 0.9963 0.1786 0.4856
H138_3 H 0.9872 0.1578 0.4563
H163_3 H 0.7884 0.2053 0.3283
H164_3 H 0.7960 0.2083 0.3851
H165_3 H 0.8138 0.2056 0.3418
H166_3 H 0.8051 0.3037 0.3349
H167_3 H 0.8289 0.2948 0.3471
H168_3 H 0.8115 0.2973 0.3910
H169_3 H 0.7913 0.3324 0.2484
H170_3 H 0.7816 0.3533 0.2211
H171_3 H 0.8040 0.3431 0.2025
H172_2 H 0.7445 0.2913 0.0666
H173_3 H 0.7624 0.3062 0.0399
H174_2 H 0.7398 0.3165 0.0572
H175_3 H 0.7448 0.2408 0.0561
H176_3 H 0.7300 0.2195 0.0505
H177_3 H 0.7540 0.2199 0.0275
H178_3 H 0.7749 0.1868 0.2362
H179_3 H 0.7837 0.1722 0.1911
H180_3 H 0.7592 0.1695 0.2102
Ag40_3 Ag 0.627770(16) 0.012870(15) 0.23838(4)
N65_3 N 0.76892(16) 0.42391(15) 0.9004(4)
Ag4_3 Ag 0.765120(15) 0.400850(15) 0.99841(4)
H67_3 H 0.7809 0.1669 0.9839
H68_3 H 0.7705 0.1901 0.9961
N66_3 N 0.75519(17) 0.41985(17) 0.9401(4)
Ag39_3 Ag 0.678120(15) 0.988770(15) 0.26016(4)
Ag16_4 Ag 0.346740(15) 0.193460(16) 0.03119(4)
Ag17_4 Ag 0.397650(16) 0.174890(17) 0.02823(4)
N9_4 N 0.35391(16) 0.08924(16) 0.2008(4)
N10_4 N 0.33968(16) 0.08396(15) 0.1642(4)
N31_4 N 0.35552(16) 0.16934(16) 0.0817(4)
N32_4 N 0.37671(18) 0.16301(17) 0.0819(4)
C21_4 C 0.3781(3) 0.1195(2) 0.2258(6)
C22_4 C 0.3619(2) 0.10952(19) 0.1918(5)
C23_4 C 0.35281(17) 0.11740(18) 0.1480(5)
C24_4 C 0.3386(2) 0.1008(2) 0.1319(5)
C25_4 C 0.3242(2) 0.0992(2) 0.0873(5)
C76_4 C 0.3198(2) 0.15630(19) 0.1137(5)
C77_4 C 0.34360(17) 0.1539(2) 0.1068(4)
C78_4 C 0.35760(19) 0.1372(2) 0.1216(5)
C79_4 C 0.3781(2) 0.1439(2) 0.1060(5)
C80_4 C 0.3995(2) 0.1323(2) 0.1094(6)
H25_4 H 0.3812 0.1095 0.2535
H26_4 H 0.3723 0.1331 0.2392
H27_4 H 0.3915 0.1224 0.2074
H28_4 H 0.3164 0.0853 0.0878
H29_4 H 0.3329 0.1002 0.0568
H30_4 H 0.3136 0.1112 0.0878
H91_4 H 0.3150 0.1700 0.0987
H92_4 H 0.3164 0.1564 0.1495
H93_4 H 0.3123 0.1442 0.0975
H94_4 H 0.4109 0.1414 0.0945
H95_4 H 0.3987 0.1185 0.0914
H96_4 H 0.4030 0.1296 0.1446
H97_4 H 0.4357 0.1493 0.0132
H106_4 H 0.3026 0.2021 0.0144
Ag35_4 Ag 0.363640(15) 0.067660(15) 0.25570(4)
N63_4 N 0.50902(19) 0.4415(2) 0.0387(4)
Ag1_4 Ag 0.524638(17) 0.45850(2) 0.98293(4)
Ag7_4 Ag 0.339100(17) 0.422170(17) 0.43685(4)
Ag13_4 Ag 0.654870(16) 0.459220(14) 0.81128(4)
Ag14_4 Ag 0.618760(15) 0.440200(15) 0.73334(4)
Ag15_4 Ag 0.667610(15) 0.415090(14) 0.73347(4)
Ag18_4 Ag 0.383090(16) 0.210610(17) 0.93961(4)
Ag19_4 Ag 0.527520(15) 0.144280(15) 0.67994(4)
Ag20_4 Ag 0.511860(16) 0.175490(16) 0.77497(4)
Ag21_4 Ag 0.490610(16) 0.125350(16) 0.77027(4)
Ag22_4 Ag 0.562560(18) 0.331150(17) 0.53981(4)
Ag23_4 Ag 0.547050(18) 0.279740(17) 0.53366(4)
Ag24_4 Ag 0.578190(18) 0.295410(17) 0.63511(5)
Ag25_4 Ag 0.44104(2) 0.365130(17) 0.20013(5)
Ag26_4 Ag 0.448200(19) 0.335920(17) 0.30288(5)
Ag27_4 Ag 0.492750(18) 0.347280(17) 0.22587(4)
Ag28_4 Ag 0.517560(15) 0.022740(14) 0.49762(4)
Ag29_4 Ag 0.463140(15) 0.028020(14) 0.50504(3)
Ag30_4 Ag 0.486520(16) 0.006630(14) 0.39936(4)
N1_4 N 0.54438(19) 0.4741(2) 0.9311(4)
N2_4 N 0.5498(2) 0.4955(2) 0.9380(4)
N4_4 N 0.26817(16) 0.23982(18) 0.8402(4)
N7_4 N 0.37250(16) 0.02412(15) 0.2995(4)
N8_4 N 0.37706(14) 0.04565(14) 0.3047(4)
N13_4 N 0.32759(18) 0.44375(19) 0.4897(4)
N14_4 N 0.30583(17) 0.44823(18) 0.4902(4)
N17_4 N 0.33730(18) 0.39413(17) 0.3463(4)
N18_4 N 0.3507(2) 0.40170(19) 0.3829(5)
N23_4 N 0.60357(17) 0.00545(17) 0.2899(4)
N25_4 N 0.62368(17) 0.47084(16) 0.8176(4)
N26_4 N 0.60910(18) 0.46409(16) 0.7827(4)
N27_4 N 0.62318(16) 0.41234(16) 0.6931(4)
N28_4 N 0.64246(16) 0.40071(17) 0.6943(4)
N29_4 N 0.69067(16) 0.42803(14) 0.7811(4)
N30_4 N 0.68499(16) 0.44559(15) 0.8111(4)
N33_4 N 0.41812(17) 0.17962(17) 0.9674(4)
N34_4 N 0.4125(2) 0.19490(18) 0.9329(4)
N35_4 N 0.35124(17) 0.22175(17) 0.9387(4)
N36_4 N 0.33640(16) 0.21292(17) 0.9724(4)
N37_4 N 0.53904(17) 0.17576(17) 0.6817(4)
N38_4 N 0.53060(19) 0.18858(17) 0.7196(5)
N39_4 N 0.48881(16) 0.16675(17) 0.8273(4)
N40_4 N 0.47908(18) 0.14651(17) 0.8249(5)
N41_4 N 0.49886(17) 0.10656(16) 0.7093(4)
N42_4 N 0.51371(16) 0.11423(15) 0.6748(4)
N43_4 N 0.5426(2) 0.32180(19) 0.4814(5)
N44_4 N 0.53610(18) 0.30093(17) 0.4809(4)
N45_4 N 0.55527(18) 0.25797(16) 0.5882(4)
N46_4 N 0.5678(2) 0.26362(18) 0.6286(5)
N47_4 N 0.58681(17) 0.32770(15) 0.6388(4)
N48_4 N 0.58197(18) 0.34047(19) 0.5990(5)
N49_4 N 0.41676(19) 0.36433(18) 0.2527(5)
N50_4 N 0.4184(2) 0.35090(18) 0.2928(5)
N51_4 N 0.47875(18) 0.32617(17) 0.3213(4)
N52_4 N 0.49692(18) 0.33092(18) 0.2941(5)
N53_4 N 0.48808(19) 0.36875(17) 0.1670(4)
N54_4 N 0.4670(2) 0.37350(17) 0.1552(5)
N55_4 N 0.50459(15) 0.03603(15) 0.5611(4)
N56_4 N 0.48244(16) 0.04014(15) 0.5628(4)
N57_4 N 0.44429(16) 0.02048(15) 0.4430(4)
N58_4 N 0.45300(17) 0.01043(17) 0.4027(4)
N59_4 N 0.51995(16) 0.00828(15) 0.3911(4)
N60_4 N 0.53206(16) 0.01473(16) 0.4305(4)
C1_4 C 0.5554(3) 0.4420(2) 0.8844(6)
C2_4 C 0.5575(2) 0.4658(2) 0.8973(5)
C3_4 C 0.5725(2) 0.4806(2) 0.8820(5)
C4_4 C 0.5670(2) 0.5002(2) 0.9067(5)
C5_4 C 0.5767(2) 0.5214(2) 0.9051(6)
C6_4 C 0.3137(3) 0.2097(2) 0.7947(6)
C7_4 C 0.2986(2) 0.2227(2) 0.8244(5)
C8_4 C 0.3006(2) 0.2313(2) 0.8724(5)
C9_4 C 0.2809(2) 0.2417(2) 0.8804(5)
C10_4 C 0.2733(3) 0.2550(2) 0.9250(5)
C11_4 C 0.4757(3) 0.4473(3) 0.1488(6)
C12_4 C 0.4883(3) 0.4388(3) 0.1063(5)
C13_4 C 0.4940(2) 0.4182(2) 0.0933(5)
C14_4 C 0.5073(2) 0.4207(2) 0.0511(5)
C15_4 C 0.5186(2) 0.4035(3) 0.0195(6)
C17_4 C 0.38657(19) 0.01263(18) 0.3280(4)
C18_4 C 0.40100(18) 0.02691(18) 0.3515(4)
C19_4 C 0.39438(19) 0.0473(2) 0.3348(5)
C20_4 C 0.4041(2) 0.0695(2) 0.3461(5)
C26_4 C 0.7677(3) 0.4344(2) 0.8113(5)
C27_4 C 0.7574(2) 0.42940(18) 0.8598(5)
C28_4 C 0.73530(18) 0.42829(19) 0.8727(5)
C29_4 C 0.73448(18) 0.42230(19) 0.9217(5)
C30_4 C 0.7156(3) 0.4180(2) 0.9546(5)
C31_4 C 0.3614(2) 0.4562(2) 0.5255(6)
C32_4 C 0.3376(2) 0.4576(2) 0.5190(5)
C33_4 C 0.3230(2) 0.4713(2) 0.5413(5)
C34_4 C 0.30310(18) 0.4652(2) 0.5220(5)
C35_4 C 0.2808(2) 0.4741(2) 0.5309(5)
C36_4 C 0.3055(2) 0.4817(2) 0.6533(6)
C37_4 C 0.3196(2) 0.49501(18) 0.6202(5)
C38_4 C 0.3274(2) 0.49056(17) 0.5725(5)
C39_4 C 0.3395(2) 0.5089(2) 0.5594(4)
C40_4 C 0.3506(3) 0.5134(3) 0.5112(5)
C41_4 C 0.3400(2) 0.3735(2) 0.2682(5)
C42_4 C 0.3492(2) 0.38310(19) 0.3139(4)
C43_4 C 0.3715(2) 0.3831(2) 0.3289(5)
C44_4 C 0.3710(3) 0.3951(2) 0.3736(5)
C45_4 C 0.3899(3) 0.4011(3) 0.4055(7)
C56_4 C 0.5727(3) 0.0276(3) 0.2605(7)
C57_4 C 0.5830(2) 0.0129(2) 0.2977(5)
C58_4 C 0.5754(2) 0.0033(2) 0.3421(5)
C61_4 C 0.6248(3) 0.4873(2) 0.9029(5)
C62_4 C 0.6130(2) 0.47910(19) 0.8577(5)
C63_4 C 0.59070(19) 0.4776(2) 0.8468(5)
C64_4 C 0.5890(2) 0.4681(2) 0.7994(4)
C65_4 C 0.5698(2) 0.46210(19) 0.7685(5)
C66_4 C 0.5844(3) 0.4067(2) 0.6738(7)
C67_4 C 0.6079(2) 0.3989(2) 0.6784(5)
C68_4 C 0.61560(18) 0.3783(2) 0.6691(5)
C69_4 C 0.63791(17) 0.37988(18) 0.6807(5)
C70_4 C 0.6550(2) 0.3629(2) 0.6794(6)
C71_4 C 0.7197(2) 0.4012(2) 0.7711(6)
C72_4 C 0.7095(2) 0.41980(18) 0.7975(5)
C73_4 C 0.71638(19) 0.43224(19) 0.8397(5)
C74_4 C 0.7007(2) 0.4476(2) 0.8454(5)
C75_4 C 0.6988(2) 0.4650(2) 0.8846(6)
C81_4 C 0.4438(2) 0.1502(2) 0.9818(6)
C82_4 C 0.43435(19) 0.16849(19) 0.9496(6)
C83_4 C 0.4404(2) 0.1758(2) 0.9032(5)
C84_4 C 0.4257(2) 0.1927(2) 0.8932(5)
C85_4 C 0.4241(3) 0.2066(3) 0.8481(5)
C86_4 C 0.3521(2) 0.2404(2) 0.8570(5)
C87_4 C 0.34030(19) 0.2299(2) 0.8997(4)
C88_4 C 0.3185(2) 0.2268(2) 0.9083(5)
C89_4 C 0.3172(2) 0.2163(2) 0.9538(5)
C90_4 C 0.2978(2) 0.2088(2) 0.9831(5)
C91_4 C 0.5603(2) 0.1795(2) 0.6043(5)
C92_4 C 0.5504(2) 0.1888(2) 0.6491(5)
C93_4 C 0.5485(2) 0.21020(18) 0.6651(5)
C94_4 C 0.5363(2) 0.20870(18) 0.7093(5)
C95_4 C 0.5283(3) 0.2269(3) 0.7421(6)
C96_4 C 0.4828(3) 0.2019(2) 0.8650(7)
C97_4 C 0.4761(2) 0.1789(2) 0.8555(5)
C98_4 C 0.45856(19) 0.1680(2) 0.8724(5)
C99_4 C 0.4610(2) 0.1470(2) 0.8515(5)
C100_4 C 0.4463(3) 0.1280(2) 0.8548(6)
C101_4 C 0.4776(2) 0.0737(2) 0.7265(5)
C102_4 C 0.4926(2) 0.08677(19) 0.6941(4)
C103_4 C 0.50177(18) 0.08146(18) 0.6490(4)
C104_4 C 0.51519(18) 0.0993(2) 0.6378(4)
C105_4 C 0.5293(2) 0.1045(2) 0.5930(5)
C106_4 C 0.5381(3) 0.3559(2) 0.4318(6)
C107_4 C 0.5342(2) 0.33200(19) 0.4418(5)
C108_4 C 0.5215(2) 0.3173(2) 0.4133(5)
C109_4 C 0.5236(2) 0.2977(2) 0.4404(5)
C110_4 C 0.5139(2) 0.2761(2) 0.4301(5)
C111_4 C 0.5327(3) 0.2275(2) 0.5578(6)
C112_4 C 0.5479(2) 0.2379(2) 0.5953(5)
C113_4 C 0.5554(2) 0.2300(2) 0.6406(5)
C114_4 C 0.5678(2) 0.2468(2) 0.6599(5)
C115_4 C 0.5809(3) 0.2484(2) 0.7065(7)
C116_4 C 0.6063(3) 0.3301(2) 0.7187(6)
C117_4 C 0.5999(2) 0.3391(2) 0.6699(6)
C118_4 C 0.6035(2) 0.3595(2) 0.6501(5)
C119_4 C 0.5917(2) 0.35974(19) 0.6052(5)
C120_4 C 0.5888(3) 0.3773(2) 0.5657(6)
C121_4 C 0.3926(3) 0.3937(3) 0.2207(6)
C122_4 C 0.3993(3) 0.3769(2) 0.2593(5)
C123_4 C 0.3900(2) 0.37230(19) 0.3040(5)
C124_4 C 0.4024(3) 0.3561(2) 0.3253(6)
C125_4 C 0.4003(3) 0.3447(3) 0.3743(7)
C126_4 C 0.4706(3) 0.3140(2) 0.4065(7)
C127_4 C 0.4859(2) 0.3199(2) 0.3677(6)
C128_4 C 0.5084(2) 0.3213(2) 0.3688(5)
C129_4 C 0.5146(2) 0.3282(2) 0.3212(6)
C130_4 C 0.5367(3) 0.3327(2) 0.3011(6)
C131_4 C 0.5247(3) 0.3819(2) 0.1512(7)
C132_4 C 0.5006(2) 0.3829(2) 0.1447(5)
C133_4 C 0.4881(2) 0.3982(2) 0.1194(5)
C134_4 C 0.4669(3) 0.3913(2) 0.1265(6)
C135_4 C 0.4464(3) 0.4009(2) 0.1069(6)
C136_4 C 0.5383(2) 0.04950(18) 0.6002(5)
C137_4 C 0.51430(19) 0.0499(2) 0.5931(5)
C138_4 C 0.49848(19) 0.06269(18) 0.6166(4)
C139_4 C 0.47920(19) 0.05584(17) 0.5963(4)
C140_4 C 0.4564(2) 0.06350(18) 0.6057(4)
C141_4 C 0.4102(2) 0.0397(2) 0.4663(5)
C142_4 C 0.4245(2) 0.02760(19) 0.4307(4)
C143_4 C 0.42026(17) 0.02134(16) 0.3805(5)
C144_4 C 0.4389(2) 0.0107(2) 0.3657(5)
C145_4 C 0.4442(3) 0.0010(2) 0.3154(6)
C147_4 C 0.5336(2) 0.00370(19) 0.3530(5)
C148_4 C 0.5550(2) 0.0071(2) 0.3690(5)
C149_4 C 0.55300(19) 0.01375(18) 0.4174(5)
C150_4 C 0.5701(3) 0.0211(2) 0.4545(6)
H1_4 H 0.5429 0.4358 0.9022
H2_4 H 0.5686 0.4343 0.8944
H3_4 H 0.5533 0.4404 0.8483
H4_4 H 0.5689 0.5311 0.9279
H5_4 H 0.5758 0.5272 0.8710
H6_4 H 0.5919 0.5204 0.9154
H7_4 H 0.3072 0.2065 0.7621
H8_4 H 0.3168 0.1960 0.8123
H9_4 H 0.3273 0.2177 0.7898
H10_4 H 0.2585 0.2603 0.9187
H11_4 H 0.2830 0.2674 0.9298
H12_4 H 0.2733 0.2460 0.9550
H13_4 H 0.4750 0.4632 0.1466
H14_4 H 0.4828 0.4432 0.1801
H15_4 H 0.4610 0.4413 0.1479
H17_4 H 0.5078 0.3936 0.0055
H18_4 H 0.5288 0.3953 0.0405
H22_4 H 0.3956 0.0807 0.3293
H23_4 H 0.4191 0.0699 0.3339
H24_4 H 0.4039 0.0720 0.3822
H31_4 H 0.7835 0.4340 0.8149
H32_4 H 0.7632 0.4488 0.8002
H33_4 H 0.7632 0.4235 0.7865
H34_4 H 0.7207 0.4140 0.9880
H35_4 H 0.7070 0.4060 0.9407
H36_4 H 0.7066 0.4311 0.9567
H37_4 H 0.3672 0.4446 0.5043
H38_4 H 0.3680 0.4701 0.5160
H39_4 H 0.3647 0.4531 0.5606
H40_4 H 0.2702 0.4658 0.5115
H41_4 H 0.2773 0.4731 0.5666
H42_4 H 0.2803 0.4894 0.5206
H43_4 H 0.3028 0.4895 0.6845
H44_4 H 0.2917 0.4788 0.6364
H45_4 H 0.3128 0.4679 0.6607
H46_4 H 0.3579 0.5275 0.5130
H47_4 H 0.3613 0.5020 0.5046
H48_4 H 0.3398 0.5137 0.4841
H49_4 H 0.3244 0.3761 0.2674
H50_4 H 0.3468 0.3803 0.2388
H51_4 H 0.3428 0.3579 0.2678
H52_4 H 0.3849 0.4097 0.4340
H53_4 H 0.3970 0.3879 0.4177
H54_4 H 0.4003 0.4096 0.3857
H67_4 H 0.5831 0.0309 0.2339
H68_4 H 0.5599 0.0205 0.2461
H69_4 H 0.5682 0.0411 0.2771
H73_4 H 0.6405 0.4863 0.8973
H74_4 H 0.6209 0.4785 0.9320
H75_4 H 0.6208 0.5025 0.9091
H76_4 H 0.5747 0.4556 0.7370
H77_4 H 0.5612 0.4751 0.7614
H78_4 H 0.5608 0.4516 0.7868
H79_4 H 0.5837 0.4223 0.6817
H80_4 H 0.5752 0.3986 0.6971
H81_4 H 0.5793 0.4044 0.6395
H82_4 H 0.6689 0.3693 0.6893
H83_4 H 0.6561 0.3571 0.6454
H84_4 H 0.6512 0.3512 0.7025
H85_4 H 0.7103 0.3966 0.7434
H86_4 H 0.7217 0.3891 0.7944
H87_4 H 0.7338 0.4056 0.7578
H88_4 H 0.6856 0.4735 0.8786
H89_4 H 0.7115 0.4745 0.8830
H90_4 H 0.6980 0.4583 0.9177
H98_4 H 0.4591 0.1533 0.9890
H99_4 H 0.4427 0.1364 0.9638
H100_4 H 0.4123 0.2171 0.8525
H101_4 H 0.4211 0.1975 0.8188
H102_4 H 0.4379 0.2144 0.8431
H103_4 H 0.3677 0.2399 0.8631
H104_4 H 0.3474 0.2556 0.8539
H105_4 H 0.3487 0.2327 0.8259
H107_4 H 0.2896 0.1981 0.9634
H108_4 H 0.2885 0.2213 0.9905
H109_4 H 0.5584 0.1637 0.6045
H110_4 H 0.5534 0.1856 0.5745
H111_4 H 0.5759 0.1830 0.6040
H112_4 H 0.5204 0.2208 0.7707
H113_4 H 0.5407 0.2353 0.7542
H114_4 H 0.5186 0.2363 0.7229
H115_4 H 0.4966 0.2048 0.8479
H116_4 H 0.4716 0.2117 0.8521
H117_4 H 0.4845 0.2042 0.9010
H118_4 H 0.4526 0.1158 0.8364
H119_4 H 0.4444 0.1240 0.8900
H120_4 H 0.4322 0.1318 0.8403
H121_4 H 0.4737 0.0821 0.7563
H122_4 H 0.4644 0.0702 0.7077
H123_4 H 0.4848 0.0602 0.7367
H124_4 H 0.5362 0.1187 0.5979
H125_4 H 0.5404 0.0933 0.5892
H126_4 H 0.5202 0.1050 0.5628
H127_4 H 0.5475 0.3619 0.4580
H128_4 H 0.5452 0.3576 0.3992
H129_4 H 0.5242 0.3636 0.4316
H130_4 H 0.5181 0.2659 0.4566
H131_4 H 0.4980 0.2773 0.4292
H132_4 H 0.5191 0.2707 0.3978
H133_4 H 0.5307 0.2372 0.5292
H134_4 H 0.5389 0.2137 0.5464
H135_4 H 0.5186 0.2248 0.5737
H136_4 H 0.5877 0.2627 0.7085
H137_4 H 0.5714 0.2463 0.7356
H138_4 H 0.5922 0.2372 0.7063
H139_4 H 0.6012 0.3151 0.7214
H140_4 H 0.6221 0.3305 0.7218
H141_4 H 0.5998 0.3389 0.7455
H142_4 H 0.5797 0.3717 0.5386
H143_4 H 0.5819 0.3900 0.5807
H144_4 H 0.6030 0.3813 0.5522
H145_4 H 0.4026 0.3932 0.1923
H146_4 H 0.3929 0.4082 0.2359
H147_4 H 0.3778 0.3905 0.2091
H148_4 H 0.4117 0.3337 0.3773
H149_4 H 0.3860 0.3377 0.3763
H150_4 H 0.4018 0.3552 0.4015
H151_4 H 0.4558 0.3150 0.3934
H152_4 H 0.4722 0.3239 0.4349
H153_4 H 0.4735 0.2991 0.4175
H154_4 H 0.5355 0.3374 0.2661
H155_4 H 0.5455 0.3195 0.3029
H156_4 H 0.5435 0.3443 0.3209
H157_4 H 0.5285 0.3693 0.1715
H158_4 H 0.5297 0.3952 0.1681
H159_4 H 0.5316 0.3808 0.1184
H160_4 H 0.4340 0.3923 0.1188
H161_4 H 0.4467 0.4007 0.0703
H162_4 H 0.4450 0.4159 0.1188
H163_4 H 0.5447 0.0384 0.5783
H164_4 H 0.5417 0.0460 0.6351
H165_4 H 0.5444 0.0638 0.5918
H166_4 H 0.4463 0.0551 0.5849
H167_4 H 0.4552 0.0789 0.5971
H168_4 H 0.4527 0.0615 0.6410
H169_4 H 0.4176 0.0413 0.4984
H170_4 H 0.3967 0.0316 0.4711
H171_4 H 0.4069 0.0540 0.4525
H173_4 H 0.4438 0.0124 0.2899
H177_4 H 0.5301 0.0040 0.2775
H178_4 H 0.5632 0.0249 0.4862
H179_4 H 0.5778 0.0337 0.4411
H180_4 H 0.5805 0.0092 0.4602
H16_4 H 0.5266 0.4106 0.9923
Ag10_4 Ag 0.637370(15) 0.974480(14) 0.33075(4)
N19_4 N 0.66585(15) 0.95792(15) 0.3406(4)
N20_4 N 0.68338(15) 0.96485(15) 0.3126(4)
N24_4 N 0.60885(17) 0.99120(15) 0.3257(4)
C16_3 C 0.3842(2) 0.98922(18) 0.3312(6)
C46_4 C 0.6579(2) 0.9341(2) 0.4125(5)
C47_4 C 0.67324(18) 0.94424(18) 0.3750(5)
C48_4 C 0.6955(2) 0.9419(2) 0.3701(4)
C49_4 C 0.70130(19) 0.9552(2) 0.3294(4)
C50_4 C 0.7225(2) 0.95960(19) 0.3063(5)
C51_4 C 0.7321(3) 0.9630(2) 0.4391(6)
C52_4 C 0.7268(2) 0.93980(18) 0.4319(5)
C53_4 C 0.7105(2) 0.9302(2) 0.4028(5)
C54_4 C 0.71195(17) 0.9078(2) 0.4124(5)
C55_4 C 0.6992(2) 0.8899(2) 0.3920(6)
C59_4 C 0.5920(2) 0.9894(2) 0.3569(5)
C60_4 C 0.5921(2) 0.9745(2) 0.4019(5)
C146_4 C 0.5251(2) 0.9949(2) 0.3052(5)
H19_3 H 0.3721 0.9845 0.3099
H20_3 H 0.3813 0.9851 0.3659
H21_3 H 0.3976 0.9822 0.3200
H55_4 H 0.6431 0.9389 0.4056
H56_4 H 0.6587 0.9183 0.4098
H57_4 H 0.6621 0.9385 0.4463
H58_4 H 0.7207 0.9697 0.2783
H59_4 H 0.7323 0.9661 0.3312
H60_4 H 0.7288 0.9460 0.2942
H61_4 H 0.7444 0.9644 0.4622
H62_4 H 0.7360 0.9695 0.4069
H63_4 H 0.7195 0.9706 0.4531
H64_4 H 0.7042 0.8762 0.4067
H65_4 H 0.6839 0.8921 0.3999
H66_4 H 0.7011 0.8894 0.3556
H70_4 H 0.6059 0.9666 0.4031
H71_4 H 0.5904 0.9831 0.4324
H72_4 H 0.5801 0.9641 0.3992
H172_3 H 0.4587 0.9945 0.3166
H174_3 H 0.4335 0.9898 0.3072
H175_4 H 0.5092 0.9948 0.3061
H176_4 H 0.5305 0.9800 0.3005
C16_4 C 0.1158(2) 0.01078(18) 0.8312(6)
H19_4 H 0.1279 0.0155 0.8099
H20_4 H 0.1187 0.0149 0.8659
H21_4 H 0.1024 0.0178 0.8200
H172_4 H 0.0413 0.0055 0.8166
H174_4 H 0.0665 0.0102 0.8072
H25_5 H 0.1405 0.1312 0.0035
Ag35_5 Ag 0.182340(15) 0.113640(15) 0.00570(4)
Ag6_4 Ag 0.198080(14) 0.080400(16) 0.91035(4)
Ag10_5 Ag 0.275520(14) 0.387370(15) 0.08075(4)
Ag11_2 Ag 0.261230(15) 0.428120(15) 0.01016(4)
Ag16_5 Ag 0.056540(16) 0.096740(15) 0.78119(4)
Ag17_5 Ag 0.075110(17) 0.147650(16) 0.77823(4)
Ag18_5 Ag 0.039390(17) 0.133090(16) 0.68961(4)
Ag19_5 Ag 0.105720(15) 0.277520(15) 0.42994(4)
Ag20_5 Ag 0.074510(16) 0.261860(16) 0.52497(4)
Ag21_5 Ag 0.124650(16) 0.240610(16) 0.52027(4)
Ag28_5 Ag 0.227260(14) 0.267560(15) 0.24762(4)
Ag29_5 Ag 0.221980(14) 0.213140(15) 0.25504(3)
Ag30_5 Ag 0.243370(14) 0.236520(16) 0.14936(4)
N3_2 N 0.0225(2) 0.02910(17) 0.5552(4)
N4_5 N 0.01018(18) 0.01817(16) 0.5902(4)
N7_5 N 0.22588(15) 0.12250(16) 0.0495(4)
N8_5 N 0.20435(14) 0.12706(14) 0.0547(4)
N9_5 N 0.16076(16) 0.10391(16) 0.9508(4)
N10_5 N 0.16604(15) 0.08968(16) 0.9142(4)
N19_5 N 0.29208(15) 0.41585(15) 0.0906(4)
N20_5 N 0.28515(15) 0.43338(15) 0.0626(4)
N21_4 N 0.32587(15) 0.48716(16) 0.2083(4)
N22_4 N 0.34556(16) 0.47813(17) 0.1962(4)
N23_5 N 0.24455(17) 0.35357(17) 0.0399(4)
N24_5 N 0.25880(15) 0.35885(17) 0.0757(4)
N31_5 N 0.08066(16) 0.10552(16) 0.8317(4)
N32_5 N 0.08699(17) 0.12671(18) 0.8319(4)
N33_5 N 0.07038(17) 0.16812(17) 0.7174(4)
N34_5 N 0.05510(18) 0.1625(2) 0.6829(4)
N35_5 N 0.02825(17) 0.10124(17) 0.6887(4)
N36_5 N 0.03708(17) 0.08640(16) 0.7224(4)
N37_5 N 0.07424(17) 0.28904(17) 0.4317(4)
N38_5 N 0.06142(17) 0.28060(19) 0.4696(5)
N39_5 N 0.08325(17) 0.23881(16) 0.5773(4)
N40_5 N 0.10349(17) 0.22908(18) 0.5749(5)
N41_5 N 0.14344(16) 0.24886(17) 0.4593(4)
N42_5 N 0.13577(15) 0.26371(16) 0.4248(4)
N55_5 N 0.21397(15) 0.25459(15) 0.3111(4)
N56_5 N 0.20986(15) 0.23244(16) 0.3128(4)
N57_5 N 0.22952(15) 0.19429(16) 0.1930(4)
N58_5 N 0.23957(17) 0.20300(17) 0.1527(4)
N59_5 N 0.24172(15) 0.26995(16) 0.1411(4)
N60_5 N 0.23527(16) 0.28206(16) 0.1805(4)
C6_5 C 0.0403(2) 0.0637(3) 0.5447(6)
C7_5 C 0.0273(2) 0.0486(2) 0.5744(5)
C8_5 C 0.0187(2) 0.0506(2) 0.6224(5)
C9_5 C 0.0083(2) 0.0309(2) 0.6304(5)
C16_5 C 0.26078(18) 0.1342(2) 0.0812(6)
C17_5 C 0.23737(18) 0.13657(19) 0.0780(4)
C18_5 C 0.22309(18) 0.15100(18) 0.1015(4)
C19_5 C 0.2027(2) 0.14438(19) 0.0848(5)
C20_5 C 0.1805(2) 0.1541(2) 0.0961(5)
C21_5 C 0.1305(2) 0.1281(3) 0.9758(6)
C22_5 C 0.14048(19) 0.1119(2) 0.9418(5)
C23_5 C 0.13260(18) 0.10281(17) 0.8980(5)
C24_5 C 0.1492(2) 0.0886(2) 0.8819(5)
C25_5 C 0.1508(2) 0.0742(2) 0.8373(5)
C46_5 C 0.3159(2) 0.4079(2) 0.1625(5)
C47_5 C 0.30576(18) 0.42324(18) 0.1250(5)
C48_5 C 0.3081(2) 0.4455(2) 0.1201(4)
C49_5 C 0.2948(2) 0.45130(19) 0.0794(4)
C50_5 C 0.29040(19) 0.4725(2) 0.0563(5)
C51_5 C 0.2870(2) 0.4821(3) 0.1891(6)
C52_5 C 0.31020(18) 0.4768(2) 0.1819(5)
C53_5 C 0.3198(2) 0.4605(2) 0.1528(5)
C54_5 C 0.3422(2) 0.46195(17) 0.1624(5)
C55_5 C 0.3601(2) 0.4492(2) 0.1420(6)
C56_5 C 0.2224(3) 0.3227(3) 0.0105(7)
C57_5 C 0.2371(2) 0.3330(2) 0.0477(5)
C58_5 C 0.2467(2) 0.3254(2) 0.0921(5)
C59_5 C 0.2606(2) 0.3420(2) 0.1069(5)
C60_5 C 0.2755(2) 0.3421(2) 0.1519(5)
C76_5 C 0.09370(19) 0.0698(2) 0.8637(5)
C77_5 C 0.0961(2) 0.09360(17) 0.8568(4)
C78_5 C 0.1128(2) 0.10760(19) 0.8716(5)
C79_5 C 0.1061(2) 0.1281(2) 0.8560(5)
C80_5 C 0.1177(2) 0.1495(2) 0.8594(6)
C81_5 C 0.0998(2) 0.1938(2) 0.7318(6)
C82_5 C 0.08151(19) 0.18435(19) 0.6996(6)
C83_5 C 0.0742(2) 0.1904(2) 0.6532(5)
C84_5 C 0.0573(2) 0.1757(2) 0.6432(5)
C85_5 C 0.0434(3) 0.1741(3) 0.5981(5)
C86_5 C 0.0096(2) 0.1021(2) 0.6070(5)
C87_5 C 0.0201(2) 0.09030(19) 0.6497(4)
C88_5 C 0.0232(2) 0.0685(2) 0.6583(5)
C89_5 C 0.0337(2) 0.0672(2) 0.7038(5)
C90_5 C 0.0412(2) 0.0478(2) 0.7331(5)
C91_5 C 0.0705(2) 0.3103(2) 0.3543(5)
C92_5 C 0.0612(2) 0.3004(2) 0.3991(5)
C93_5 C 0.03980(18) 0.2985(2) 0.4151(5)
C94_5 C 0.04130(18) 0.2863(2) 0.4593(5)
C95_5 C 0.0231(3) 0.2783(3) 0.4921(6)
C96_5 C 0.0481(2) 0.2328(3) 0.6150(7)
C97_5 C 0.0711(2) 0.2261(2) 0.6055(5)
C98_5 C 0.0820(2) 0.20856(19) 0.6224(5)
C99_5 C 0.1030(2) 0.2110(2) 0.6015(5)
C100_5 C 0.1220(2) 0.1963(3) 0.6048(6)
C101_5 C 0.1763(2) 0.2276(2) 0.4765(5)
C102_5 C 0.16323(19) 0.2426(2) 0.4441(4)
C103_5 C 0.16854(18) 0.25177(18) 0.3990(4)
C104_5 C 0.1507(2) 0.26519(18) 0.3878(4)
C105_5 C 0.1455(2) 0.2793(2) 0.3430(5)
C111_5 C 0.0225(2) 0.2827(3) 0.3078(6)
C112_5 C 0.0121(2) 0.2979(2) 0.3453(5)
C113_5 C 0.0200(2) 0.3054(2) 0.3906(5)
C114_5 C 0.0032(2) 0.3178(2) 0.4099(5)
C115_5 C 0.0016(2) 0.3309(3) 0.4565(7)
C136_5 C 0.20050(18) 0.2883(2) 0.3502(5)
C137_5 C 0.2001(2) 0.26430(19) 0.3431(5)
C138_5 C 0.18731(18) 0.24848(19) 0.3666(4)
C139_5 C 0.19416(17) 0.22920(19) 0.3463(4)
C140_5 C 0.18650(18) 0.2064(2) 0.3557(4)
C141_5 C 0.2103(2) 0.1602(2) 0.2163(5)
C142_5 C 0.22240(19) 0.1745(2) 0.1807(4)
C143_5 C 0.22866(16) 0.17026(17) 0.1305(5)
C144_5 C 0.2393(2) 0.1889(2) 0.1157(5)
C145_5 C 0.2490(2) 0.1942(3) 0.0654(6)
C146_5 C 0.2551(2) 0.2751(2) 0.0552(5)
C147_5 C 0.24630(19) 0.2836(2) 0.1030(5)
C148_5 C 0.2429(2) 0.3050(2) 0.1190(5)
C149_5 C 0.23625(18) 0.30300(19) 0.1674(5)
C150_5 C 0.2289(2) 0.3201(3) 0.2045(6)
H7_5 H 0.0435 0.0572 0.5121
H8_5 H 0.0540 0.0668 0.5623
H9_5 H 0.0323 0.0773 0.5398
H12_5 H 0.0040 0.0233 0.7050
H19_5 H 0.2655 0.1221 0.0599
H20_5 H 0.2649 0.1313 0.1159
H21_5 H 0.2678 0.1476 0.0700
H22_5 H 0.1693 0.1456 0.0793
H23_5 H 0.1801 0.1691 0.0839
H24_5 H 0.1780 0.1539 0.1322
H26_5 H 0.1169 0.1223 0.9892
H27_5 H 0.1276 0.1415 0.9574
H28_5 H 0.1647 0.0664 0.8378
H29_5 H 0.1498 0.0829 0.8068
H30_5 H 0.1388 0.0636 0.8378
H55_5 H 0.3111 0.3931 0.1556
H56_5 H 0.3317 0.4087 0.1598
H57_5 H 0.3115 0.4121 0.1963
H58_5 H 0.2803 0.4707 0.0283
H59_5 H 0.2839 0.4823 0.0812
H60_5 H 0.3040 0.4788 0.0442
H61_5 H 0.2856 0.4944 0.2122
H62_5 H 0.2805 0.4860 0.1569
H63_5 H 0.2794 0.4695 0.2031
H64_5 H 0.3738 0.4542 0.1567
H65_5 H 0.3579 0.4339 0.1499
H66_5 H 0.3606 0.4511 0.1056
H69_5 H 0.2089 0.3182 0.0271
H70_5 H 0.2834 0.3559 0.1531
H71_5 H 0.2669 0.3404 0.1824
H72_5 H 0.2859 0.3301 0.1492
H91_5 H 0.0800 0.0650 0.8487
H92_5 H 0.0936 0.0664 0.8995
H93_5 H 0.1058 0.0623 0.8475
H94_5 H 0.1086 0.1609 0.8445
H95_5 H 0.1315 0.1487 0.8414
H96_5 H 0.1204 0.1530 0.8946
H97_5 H 0.1007 0.1857 0.7632
H98_5 H 0.0967 0.2091 0.7390
H99_5 H 0.1136 0.1927 0.7138
H100_5 H 0.0329 0.1623 0.6025
H101_5 H 0.0525 0.1711 0.5688
H102_5 H 0.0356 0.1879 0.5931
H103_5 H 0.0101 0.1177 0.6131
H105_5 H 0.0173 0.0987 0.5759
H106_5 H 0.0479 0.0526 0.7644
H107_5 H 0.0519 0.0396 0.7134
H108_5 H 0.0287 0.0385 0.7405
H109_5 H 0.0863 0.3084 0.3545
H110_5 H 0.0644 0.3034 0.3245
H111_5 H 0.0670 0.3259 0.3540
H112_5 H 0.0292 0.2704 0.5207
H113_5 H 0.0147 0.2907 0.5042
H114_5 H 0.0137 0.2686 0.4729
H115_5 H 0.0452 0.2466 0.5979
H116_5 H 0.0383 0.2216 0.6021
H117_5 H 0.0458 0.2345 0.6510
H118_5 H 0.1342 0.2026 0.5864
H119_5 H 0.1260 0.1944 0.6400
H120_5 H 0.1182 0.1822 0.5903
H121_5 H 0.1679 0.2237 0.5063
H122_5 H 0.1798 0.2144 0.4577
H123_5 H 0.1898 0.2348 0.4867
H124_5 H 0.1313 0.2862 0.3479
H125_5 H 0.1567 0.2904 0.3392
H126_5 H 0.1450 0.2702 0.3128
H133_5 H 0.0128 0.2807 0.2792
H134_5 H 0.0363 0.2889 0.2964
H135_5 H 0.0252 0.2686 0.3237
H137_5 H 0.0037 0.3214 0.4856
H138_5 H 0.0128 0.3422 0.4563
H163_5 H 0.2116 0.2947 0.3283
H164_5 H 0.2040 0.2917 0.3851
H165_5 H 0.1862 0.2944 0.3418
H166_5 H 0.1949 0.1963 0.3349
H167_5 H 0.1711 0.2052 0.3471
H168_5 H 0.1885 0.2027 0.3910
H169_5 H 0.2087 0.1676 0.2484
H170_5 H 0.2184 0.1467 0.2211
H171_5 H 0.1960 0.1569 0.2025
H172_5 H 0.2555 0.2087 0.0666
H173_5 H 0.2376 0.1938 0.0399
H174_5 H 0.2602 0.1835 0.0572
H175_5 H 0.2552 0.2592 0.0561
H176_5 H 0.2700 0.2805 0.0505
H177_5 H 0.2460 0.2801 0.0275
H178_5 H 0.2251 0.3132 0.2362
H179_5 H 0.2163 0.3278 0.1911
H180_5 H 0.2408 0.3305 0.2102
Ag32_2 Ag 0.034770(17) 0.01306(2) 0.49364(4)
Ag39_4 Ag 0.321880(15) 0.511230(15) 0.26016(4)
Ag40_4 Ag 0.372230(16) 0.487130(15) 0.23838(4)
N65_4 N 0.23108(16) 0.07609(15) 0.9004(4)
Ag4_4 Ag 0.234880(15) 0.099150(15) 0.99841(4)
Ag12_2 Ag 0.237130(15) 0.377770(16) 0.98838(4)
H67_5 H 0.2191 0.3331 0.9839
H68_5 H 0.2295 0.3099 0.9961
N66_4 N 0.24481(17) 0.08015(17) 0.9401(4)
N69_2 N 0.23716(16) 0.42413(15) 0.9583(4)
N70_2 N 0.22813(17) 0.40444(16) 0.9462(4)
Ag3_2 Ag 0.002110(19) 0.986160(18) 0.57902(4)
Ag1_5 Ag 0.79150(2) 0.274638(17) 0.73293(4)
Ag2_4 Ag 0.73694(2) 0.284770(17) 0.74364(4)
Ag7_5 Ag 0.827830(17) 0.089100(17) 0.18685(4)
Ag8_2 Ag 0.815180(16) 0.035150(16) 0.18904(4)
Ag9_2 Ag 0.848420(16) 0.055050(17) 0.09915(4)
Ag13_5 Ag 0.790780(14) 0.404870(16) 0.56128(4)
Ag14_5 Ag 0.809800(15) 0.368760(15) 0.48334(4)
Ag15_5 Ag 0.834910(14) 0.417610(15) 0.48347(4)
Ag22_5 Ag 0.918850(17) 0.312560(18) 0.28981(4)
Ag23_5 Ag 0.970260(17) 0.297050(18) 0.28366(4)
Ag24_5 Ag 0.954590(17) 0.328190(18) 0.38511(5)
Ag26_5 Ag 0.914080(17) 0.198200(19) 0.05288(5)
N1_5 N 0.7759(2) 0.29438(19) 0.6811(4)
N2_5 N 0.7545(2) 0.2998(2) 0.6880(4)
N11_2 N 0.82609(15) 0.51892(16) 0.6504(4)
N12_2 N 0.83015(17) 0.50519(17) 0.6901(4)
N13_5 N 0.80625(19) 0.07759(18) 0.2397(4)
N14_5 N 0.80177(18) 0.05583(17) 0.2402(4)
N15_4 N 0.73545(18) 0.07629(17) 0.3833(4)
N16_4 N 0.72663(18) 0.08860(18) 0.3459(4)
N17_5 N 0.85587(17) 0.08730(18) 0.0963(4)
N18_5 N 0.84830(19) 0.1007(2) 0.1329(5)
N25_5 N 0.77916(16) 0.37368(17) 0.5676(4)
N26_5 N 0.78591(16) 0.35910(18) 0.5327(4)
N27_5 N 0.83766(16) 0.37318(16) 0.4431(4)
N28_5 N 0.84929(17) 0.39246(16) 0.4443(4)
N29_5 N 0.82197(14) 0.44067(16) 0.5311(4)
N30_5 N 0.80441(15) 0.43499(16) 0.5611(4)
N43_5 N 0.92820(19) 0.2926(2) 0.2314(5)
N44_5 N 0.94907(17) 0.28610(18) 0.2309(4)
N45_5 N 0.99203(16) 0.30527(18) 0.3382(4)
N46_5 N 0.98638(18) 0.3178(2) 0.3786(5)
N47_5 N 0.92230(15) 0.33681(17) 0.3888(4)
N48_5 N 0.90953(19) 0.33197(18) 0.3490(5)
N49_5 N 0.88567(18) 0.16676(19) 0.0027(5)
N50_5 N 0.89910(18) 0.1684(2) 0.0428(5)
N51_5 N 0.92383(17) 0.22875(18) 0.0713(4)
N52_5 N 0.91908(18) 0.24692(18) 0.0441(5)
C1_5 C 0.8080(2) 0.3054(3) 0.6344(6)
C2_5 C 0.7842(2) 0.3075(2) 0.6473(5)
C3_5 C 0.7694(2) 0.3225(2) 0.6320(5)
C4_5 C 0.7498(2) 0.3170(2) 0.6567(5)
C5_5 C 0.7286(2) 0.3267(2) 0.6551(6)
C10_5 C 0.9950(2) 0.0233(3) 0.6750(5)
C26_5 C 0.8156(2) 0.5177(3) 0.5613(5)
C27_5 C 0.82060(18) 0.5074(2) 0.6098(5)
C28_5 C 0.82171(19) 0.48530(18) 0.6227(5)
C29_5 C 0.82770(19) 0.48448(18) 0.6717(5)
C30_5 C 0.8320(2) 0.4656(3) 0.7046(5)
C31_5 C 0.7938(2) 0.1114(2) 0.2755(6)
C32_5 C 0.7924(2) 0.0876(2) 0.2690(5)
C33_5 C 0.7787(2) 0.0730(2) 0.2913(5)
C34_5 C 0.7848(2) 0.05310(18) 0.2720(5)
C35_5 C 0.7759(2) 0.0308(2) 0.2809(5)
C36_5 C 0.7683(2) 0.0555(2) 0.4033(6)
C37_5 C 0.75499(18) 0.0696(2) 0.3702(5)
C38_5 C 0.75944(17) 0.0774(2) 0.3225(5)
C39_5 C 0.7411(2) 0.0895(2) 0.3094(4)
C40_5 C 0.7366(3) 0.1006(3) 0.2612(5)
C41_5 C 0.8765(2) 0.0900(2) 0.0182(5)
C42_5 C 0.86690(19) 0.0992(2) 0.0639(4)
C43_5 C 0.8669(2) 0.1215(2) 0.0789(5)
C44_5 C 0.8549(2) 0.1210(3) 0.1236(5)
C45_5 C 0.8489(3) 0.1399(3) 0.1555(7)
C61_5 C 0.7627(2) 0.3748(3) 0.6529(5)
C62_5 C 0.77090(19) 0.3630(2) 0.6077(5)
C63_5 C 0.7724(2) 0.34070(19) 0.5968(5)
C64_5 C 0.7819(2) 0.3390(2) 0.5494(4)
C65_5 C 0.78790(19) 0.3198(2) 0.5185(5)
C66_5 C 0.8433(2) 0.3344(3) 0.4238(7)
C67_5 C 0.8511(2) 0.3579(2) 0.4284(5)
C68_5 C 0.8717(2) 0.36560(18) 0.4191(5)
C69_5 C 0.87012(18) 0.38791(17) 0.4307(5)
C70_5 C 0.8871(2) 0.4050(2) 0.4294(6)
C71_5 C 0.8488(2) 0.4697(2) 0.5211(6)
C72_5 C 0.83020(18) 0.4595(2) 0.5475(5)
C73_5 C 0.81776(19) 0.46638(19) 0.5897(5)
C74_5 C 0.8024(2) 0.4507(2) 0.5954(5)
C75_5 C 0.7850(2) 0.4488(2) 0.6346(6)
C106_5 C 0.8941(2) 0.2881(3) 0.1818(6)
C107_5 C 0.91800(19) 0.2842(2) 0.1918(5)
C108_5 C 0.9327(2) 0.2715(2) 0.1633(5)
C109_5 C 0.9523(2) 0.2736(2) 0.1904(5)
C110_5 C 0.9739(2) 0.2639(2) 0.1801(5)
C116_5 C 0.9199(2) 0.3563(3) 0.4687(6)
C117_5 C 0.9109(2) 0.3499(2) 0.4199(6)
C118_5 C 0.8905(2) 0.3535(2) 0.4001(5)
C119_5 C 0.89026(19) 0.3417(2) 0.3552(5)
C120_5 C 0.8727(2) 0.3388(3) 0.3157(6)
C122_5 C 0.8731(2) 0.1493(3) 0.0093(5)
C123_5 C 0.87770(19) 0.1400(2) 0.0540(5)
C124_5 C 0.8939(2) 0.1524(3) 0.0753(6)
C125_5 C 0.9053(3) 0.1503(3) 0.1243(7)
C126_5 C 0.9360(2) 0.2206(3) 0.1565(7)
C127_5 C 0.9301(2) 0.2359(2) 0.1177(6)
C128_5 C 0.9287(2) 0.2584(2) 0.1188(5)
C129_5 C 0.9218(2) 0.2646(2) 0.0712(6)
C130_5 C 0.9173(2) 0.2867(3) 0.0511(6)
H1_5 H 0.8142 0.2929 0.6522
H2_5 H 0.8157 0.3186 0.6444
H3_5 H 0.8096 0.3033 0.5983
H4_5 H 0.7189 0.3189 0.6779
H5_5 H 0.7228 0.3258 0.6210
H6_5 H 0.7296 0.3419 0.6654
H10_5 H 0.9897 0.0085 0.6687
H11_5 H 0.9826 0.0330 0.6798
H31_5 H 0.8160 0.5335 0.5649
H32_5 H 0.8012 0.5132 0.5502
H33_5 H 0.8265 0.5132 0.5365
H34_5 H 0.8360 0.4707 0.7380
H35_5 H 0.8440 0.4570 0.6907
H36_5 H 0.8189 0.4566 0.7067
H37_5 H 0.8054 0.1172 0.2543
H38_5 H 0.7799 0.1180 0.2660
H39_5 H 0.7969 0.1147 0.3106
H40_5 H 0.7842 0.0202 0.2615
H41_5 H 0.7769 0.0273 0.3166
H42_5 H 0.7606 0.0303 0.2706
H43_5 H 0.7605 0.0528 0.4345
H44_5 H 0.7712 0.0417 0.3864
H45_5 H 0.7821 0.0628 0.4107
H46_5 H 0.7225 0.1079 0.2630
H47_5 H 0.7480 0.1113 0.2546
H48_5 H 0.7363 0.0898 0.2341
H49_5 H 0.8739 0.0744 0.0174
H51_5 H 0.8921 0.0928 0.0178
H52_5 H 0.8403 0.1349 0.1840
H53_5 H 0.8621 0.1470 0.1677
H54_5 H 0.8404 0.1503 0.1357
H73_5 H 0.7637 0.3905 0.6473
H74_5 H 0.7715 0.3709 0.6820
H75_5 H 0.7475 0.3708 0.6591
H76_5 H 0.7944 0.3247 0.4870
H77_5 H 0.7749 0.3112 0.5114
H78_5 H 0.7984 0.3108 0.5368
H79_5 H 0.8277 0.3337 0.4317
H80_5 H 0.8514 0.3252 0.4471
H81_5 H 0.8456 0.3293 0.3895
H82_5 H 0.8807 0.4189 0.4393
H83_5 H 0.8929 0.4061 0.3954
H84_5 H 0.8988 0.4012 0.4525
H85_5 H 0.8534 0.4603 0.4934
H86_5 H 0.8609 0.4717 0.5444
H87_5 H 0.8444 0.4838 0.5078
H88_5 H 0.7765 0.4356 0.6286
H89_5 H 0.7755 0.4615 0.6330
H90_5 H 0.7917 0.4480 0.6677
H104_5 H 0.9944 0.0974 0.6039
H127_5 H 0.8881 0.2975 0.2080
H128_5 H 0.8924 0.2952 0.1492
H129_5 H 0.8864 0.2742 0.1816
H130_5 H 0.9841 0.2681 0.2066
H131_5 H 0.9727 0.2480 0.1792
H132_5 H 0.9793 0.2691 0.1478
H136_5 H 0.9873 0.3377 0.4585
H139_5 H 0.9349 0.3512 0.4714
H140_5 H 0.9195 0.3721 0.4718
H141_5 H 0.9111 0.3498 0.4955
H142_5 H 0.8783 0.3297 0.2886
H143_5 H 0.8600 0.3319 0.3307
H144_5 H 0.8687 0.3530 0.3022
H148_5 H 0.9163 0.1617 0.1273
H149_5 H 0.9123 0.1360 0.1263
H150_5 H 0.8948 0.1518 0.1515
H151_5 H 0.9350 0.2058 0.1434
H152_5 H 0.9261 0.2222 0.1849
H153_5 H 0.9509 0.2235 0.1675
H154_5 H 0.9126 0.2855 0.0161
H155_5 H 0.9305 0.2955 0.0529
H156_5 H 0.9057 0.2935 0.0709
Ag34_2 Ag 0.849150(15) 0.515120(15) 0.74841(4)
Ag36_2 Ag 0.830400(16) 0.551920(14) 0.66035(4)
Ag37_4 Ag 0.714850(16) 0.065180(16) 0.43904(4)
Ag38_4 Ag 0.694950(17) 0.098420(16) 0.34915(4)
N61_4 N 0.72090(17) 0.2725(2) 0.8052(4)
N63_5 N 0.8085(2) 0.25902(19) 0.7887(4)
N67_2 N 0.82629(17) 0.01455(18) 0.1333(4)
N68_2 N 0.83860(18) 0.02337(18) 0.0959(4)
Ag25_5 Ag 0.884870(17) 0.19104(2) 0.95013(5)
Ag27_5 Ag 0.902720(17) 0.242750(18) 0.97587(4)
N5_4 N 0.7967(2) 0.24736(18) 0.8234(5)
N53_5 N 0.88125(17) 0.23808(19) 0.9170(4)
N54_5 N 0.87650(17) 0.2170(2) 0.9052(5)
C11_5 C 0.8027(3) 0.2257(3) 0.8988(6)
C12_5 C 0.8112(3) 0.2383(3) 0.8563(5)
C13_5 C 0.8318(2) 0.2440(2) 0.8433(5)
C14_5 C 0.8293(2) 0.2573(2) 0.8011(5)
C15_5 C 0.8465(3) 0.2686(2) 0.7695(6)
C121_5 C 0.8563(3) 0.1426(3) 0.9707(6)
C131_5 C 0.8681(2) 0.2747(3) 0.9012(7)
C132_5 C 0.8671(2) 0.2506(2) 0.8947(5)
C133_5 C 0.8518(2) 0.2381(2) 0.8694(5)
C134_5 C 0.8587(2) 0.2169(3) 0.8765(6)
C135_5 C 0.8491(2) 0.1964(3) 0.8569(6)
H13_5 H 0.7868 0.2250 0.8966
H14_5 H 0.8068 0.2328 0.9301
H15_5 H 0.8087 0.2110 0.8979
H16_5 H 0.8394 0.2766 0.7423
H17_5 H 0.8564 0.2578 0.7555
H18_5 H 0.8547 0.2788 0.7905
H50_5 H 0.8697 0.0968 0.9888
H145_5 H 0.8568 0.1526 0.9423
H146_5 H 0.8418 0.1429 0.9859
H147_5 H 0.8595 0.1278 0.9591
H157_5 H 0.8807 0.2785 0.9215
H158_5 H 0.8548 0.2797 0.9181
H159_5 H 0.8692 0.2816 0.8684
H160_5 H 0.8577 0.1840 0.8688
H161_5 H 0.8493 0.1967 0.8203
H162_5 H 0.8341 0.1950 0.8688
Ag33_4 Ag 0.763840(18) 0.252110(19) 0.82902(4)
N62_2 N 0.99736(18) 0.9533(2) 0.5734(5)
Ag6_5 Ag 0.669600(16) 0.448080(14) 0.16035(4)
Ag16_6 Ag 0.653260(15) 0.306540(16) 0.03119(4)
Ag17_6 Ag 0.602350(16) 0.325110(17) 0.02823(4)
N9_6 N 0.64609(16) 0.41076(16) 0.2008(4)
N10_6 N 0.66032(16) 0.41604(15) 0.1642(4)
N31_6 N 0.64448(16) 0.33066(16) 0.0817(4)
N32_6 N 0.62329(18) 0.33699(17) 0.0819(4)
C21_6 C 0.6219(3) 0.3805(2) 0.2258(6)
C22_6 C 0.6381(2) 0.39048(19) 0.1918(5)
C23_6 C 0.64719(17) 0.38260(18) 0.1480(5)
C24_6 C 0.6614(2) 0.3992(2) 0.1319(5)
C25_6 C 0.6758(2) 0.4008(2) 0.0873(5)
C76_6 C 0.6802(2) 0.34370(19) 0.1137(5)
C77_6 C 0.65640(17) 0.3461(2) 0.1068(4)
C78_6 C 0.64240(19) 0.3628(2) 0.1216(5)
C79_6 C 0.6219(2) 0.3561(2) 0.1060(5)
C80_6 C 0.6005(2) 0.3677(2) 0.1094(6)
H25_6 H 0.6188 0.3905 0.2535
H26_6 H 0.6277 0.3669 0.2392
H27_6 H 0.6085 0.3776 0.2074
H28_6 H 0.6836 0.4147 0.0878
H29_6 H 0.6671 0.3998 0.0568
H30_6 H 0.6864 0.3888 0.0878
H91_6 H 0.6850 0.3300 0.0987
H92_6 H 0.6836 0.3436 0.1495
H93_6 H 0.6877 0.3558 0.0975
H94_6 H 0.5891 0.3586 0.0945
H95_6 H 0.6013 0.3815 0.0914
H96_6 H 0.5970 0.3704 0.1446
H97_6 H 0.5643 0.3507 0.0132
H106_6 H 0.6974 0.2979 0.0144
Ag35_6 Ag 0.636360(15) 0.432340(15) 0.25570(4)
N63_6 N 0.49098(19) 0.0585(2) 0.0387(4)
N65_5 N 0.67391(15) 0.48108(16) 0.1504(4)
Ag1_6 Ag 0.475362(17) 0.04150(2) 0.98293(4)
Ag4_5 Ag 0.650850(15) 0.484880(15) 0.24841(4)
Ag7_6 Ag 0.660900(17) 0.077830(17) 0.43685(4)
Ag10_6 Ag 0.362630(15) 0.525520(14) 0.33075(4)
Ag13_6 Ag 0.345130(16) 0.040780(14) 0.81128(4)
Ag14_6 Ag 0.381240(15) 0.059800(15) 0.73334(4)
Ag15_6 Ag 0.332390(15) 0.084910(14) 0.73347(4)
Ag18_6 Ag 0.616910(16) 0.289390(17) 0.93961(4)
Ag19_6 Ag 0.472480(15) 0.355720(15) 0.67994(4)
Ag20_6 Ag 0.488140(16) 0.324510(16) 0.77497(4)
Ag21_6 Ag 0.509390(16) 0.374650(16) 0.77027(4)
Ag22_6 Ag 0.437440(18) 0.168850(17) 0.53981(4)
Ag23_6 Ag 0.452950(18) 0.220260(17) 0.53366(4)
Ag24_6 Ag 0.421810(18) 0.204590(17) 0.63511(5)
Ag25_6 Ag 0.55896(2) 0.134870(17) 0.20013(5)
Ag26_6 Ag 0.551800(19) 0.164080(17) 0.30288(5)
Ag27_6 Ag 0.507250(18) 0.152720(17) 0.22587(4)
Ag28_6 Ag 0.482440(15) 0.477260(14) 0.49762(4)
Ag29_6 Ag 0.536860(15) 0.471980(14) 0.50504(3)
Ag30_6 Ag 0.513480(16) 0.493370(14) 0.39936(4)
N1_6 N 0.45562(19) 0.0259(2) 0.9311(4)
N2_6 N 0.4502(2) 0.0045(2) 0.9380(4)
N4_6 N 0.73183(16) 0.26018(18) 0.8402(4)
N5_5 N 0.50264(18) 0.0467(2) 0.0734(5)
N7_6 N 0.62750(16) 0.47588(15) 0.2995(4)
N8_6 N 0.62294(14) 0.45435(14) 0.3047(4)
N13_6 N 0.67241(18) 0.05625(19) 0.4897(4)
N14_6 N 0.69417(17) 0.05177(18) 0.4902(4)
N17_6 N 0.66270(18) 0.10587(17) 0.3463(4)
N18_6 N 0.6493(2) 0.09830(19) 0.3829(5)
N19_6 N 0.33415(15) 0.54208(15) 0.3406(4)
N20_6 N 0.31662(15) 0.53515(15) 0.3126(4)
N21_5 N 0.26284(16) 0.57587(15) 0.4583(4)
N22_5 N 0.27187(17) 0.59556(16) 0.4462(4)
N23_6 N 0.39643(17) 0.49455(17) 0.2899(4)
N24_6 N 0.39115(17) 0.50880(15) 0.3257(4)
N25_6 N 0.37632(17) 0.02916(16) 0.8176(4)
N26_6 N 0.39090(18) 0.03591(16) 0.7827(4)
N27_6 N 0.37682(16) 0.08766(16) 0.6931(4)
N28_6 N 0.35754(16) 0.09929(17) 0.6943(4)
N29_6 N 0.30933(16) 0.07197(14) 0.7811(4)
N30_6 N 0.31501(16) 0.05441(15) 0.8111(4)
N33_6 N 0.58188(17) 0.32038(17) 0.9674(4)
N34_6 N 0.5875(2) 0.30510(18) 0.9329(4)
N35_6 N 0.64876(17) 0.27825(17) 0.9387(4)
N36_6 N 0.66360(16) 0.28708(17) 0.9724(4)
N37_6 N 0.46096(17) 0.32424(17) 0.6817(4)
N38_6 N 0.46940(19) 0.31142(17) 0.7196(5)
N39_6 N 0.51119(16) 0.33325(17) 0.8273(4)
N40_6 N 0.52092(18) 0.35349(17) 0.8249(5)
N41_6 N 0.50114(17) 0.39344(16) 0.7093(4)
N42_6 N 0.48629(16) 0.38577(15) 0.6748(4)
N43_6 N 0.4574(2) 0.17820(19) 0.4814(5)
N44_6 N 0.46390(18) 0.19907(17) 0.4809(4)
N45_6 N 0.44473(18) 0.24203(16) 0.5882(4)
N46_6 N 0.4322(2) 0.23638(18) 0.6286(5)
N47_6 N 0.41319(17) 0.17230(15) 0.6388(4)
N48_6 N 0.41803(18) 0.15953(19) 0.5990(5)
N49_6 N 0.58324(19) 0.13567(18) 0.2527(5)
N50_6 N 0.5816(2) 0.14910(18) 0.2928(5)
N51_6 N 0.52125(18) 0.17383(17) 0.3213(4)
N52_6 N 0.50308(18) 0.16908(18) 0.2941(5)
N53_6 N 0.51192(19) 0.13125(17) 0.1670(4)
N54_6 N 0.5330(2) 0.12650(17) 0.1552(5)
N55_6 N 0.49541(15) 0.46397(15) 0.5611(4)
N56_6 N 0.51756(16) 0.45986(15) 0.5628(4)
N57_6 N 0.55571(16) 0.47952(15) 0.4430(4)
N58_6 N 0.54700(17) 0.48957(17) 0.4027(4)
N59_6 N 0.48005(16) 0.49172(15) 0.3911(4)
N60_6 N 0.46794(16) 0.48527(16) 0.4305(4)
C1_6 C 0.4446(3) 0.0580(2) 0.8844(6)
C2_6 C 0.4425(2) 0.0342(2) 0.8973(5)
C3_6 C 0.4275(2) 0.0194(2) 0.8820(5)
C6_6 C 0.6863(3) 0.2903(2) 0.7947(6)
C7_6 C 0.7014(2) 0.2773(2) 0.8244(5)
C8_6 C 0.6994(2) 0.2687(2) 0.8724(5)
C9_6 C 0.7191(2) 0.2583(2) 0.8804(5)
C10_6 C 0.7267(3) 0.2450(2) 0.9250(5)
C11_6 C 0.5243(3) 0.0527(3) 0.1488(6)
C12_6 C 0.5117(3) 0.0612(3) 0.1063(5)
C13_6 C 0.5060(2) 0.0818(2) 0.0933(5)
C14_6 C 0.4927(2) 0.0793(2) 0.0511(5)
C15_6 C 0.4814(2) 0.0965(3) 0.0195(6)
C16_6 C 0.6158(2) 0.51078(18) 0.3312(6)
C17_6 C 0.61343(19) 0.48737(18) 0.3280(4)
C18_6 C 0.59900(18) 0.47309(18) 0.3515(4)
C19_6 C 0.60562(19) 0.4527(2) 0.3348(5)
C20_6 C 0.5959(2) 0.4305(2) 0.3461(5)
C26_6 C 0.2323(3) 0.0656(2) 0.8113(5)
C27_6 C 0.2426(2) 0.07060(18) 0.8598(5)
C28_6 C 0.26470(18) 0.07171(19) 0.8727(5)
C29_6 C 0.26552(18) 0.07770(19) 0.9217(5)
C30_6 C 0.2844(3) 0.0820(2) 0.9546(5)
C31_6 C 0.6386(2) 0.0438(2) 0.5255(6)
C32_6 C 0.6624(2) 0.0424(2) 0.5190(5)
C33_6 C 0.6770(2) 0.0287(2) 0.5413(5)
C34_6 C 0.69690(18) 0.0348(2) 0.5220(5)
C35_6 C 0.7192(2) 0.0259(2) 0.5309(5)
C36_6 C 0.6945(2) 0.0183(2) 0.6533(6)
C37_6 C 0.6804(2) 0.00499(18) 0.6202(5)
C38_6 C 0.6726(2) 0.00944(17) 0.5725(5)
C41_6 C 0.6600(2) 0.1265(2) 0.2682(5)
C42_6 C 0.6508(2) 0.11690(19) 0.3139(4)
C43_6 C 0.6285(2) 0.1169(2) 0.3289(5)
C44_6 C 0.6290(3) 0.1049(2) 0.3736(5)
C45_6 C 0.6101(3) 0.0989(3) 0.4055(7)
C46_6 C 0.3421(2) 0.5659(2) 0.4125(5)
C47_6 C 0.32676(18) 0.55576(18) 0.3750(5)
C48_6 C 0.3045(2) 0.5581(2) 0.3701(4)
C49_6 C 0.29870(19) 0.5448(2) 0.3294(4)
C50_6 C 0.2775(2) 0.54040(19) 0.3063(5)
C51_6 C 0.2679(3) 0.5370(2) 0.4391(6)
C52_6 C 0.2732(2) 0.56020(18) 0.4319(5)
C53_6 C 0.2895(2) 0.5698(2) 0.4028(5)
C54_6 C 0.28805(17) 0.5922(2) 0.4124(5)
C55_6 C 0.3008(2) 0.6101(2) 0.3920(6)
C56_6 C 0.4273(3) 0.4724(3) 0.2605(7)
C57_6 C 0.4170(2) 0.4871(2) 0.2977(5)
C58_6 C 0.4246(2) 0.4967(2) 0.3421(5)
C59_6 C 0.4080(2) 0.5106(2) 0.3569(5)
C60_6 C 0.4079(2) 0.5255(2) 0.4019(5)
C61_6 C 0.3752(3) 0.0127(2) 0.9029(5)
C62_6 C 0.3870(2) 0.02090(19) 0.8577(5)
C63_6 C 0.40930(19) 0.0224(2) 0.8468(5)
C64_6 C 0.4110(2) 0.0319(2) 0.7994(4)
C65_6 C 0.4302(2) 0.03790(19) 0.7685(5)
C66_6 C 0.4156(3) 0.0933(2) 0.6738(7)
C67_6 C 0.3921(2) 0.1011(2) 0.6784(5)
C68_6 C 0.38440(18) 0.1217(2) 0.6691(5)
C69_6 C 0.36209(17) 0.12012(18) 0.6807(5)
C70_6 C 0.3450(2) 0.1371(2) 0.6794(6)
C71_6 C 0.2803(2) 0.0988(2) 0.7711(6)
C72_6 C 0.2905(2) 0.08020(18) 0.7975(5)
C73_6 C 0.28362(19) 0.06776(19) 0.8397(5)
C74_6 C 0.2993(2) 0.0524(2) 0.8454(5)
C75_6 C 0.3012(2) 0.0350(2) 0.8846(6)
C81_6 C 0.5562(2) 0.3498(2) 0.9818(6)
C82_6 C 0.56565(19) 0.33151(19) 0.9496(6)
C83_6 C 0.5596(2) 0.3242(2) 0.9032(5)
C84_6 C 0.5743(2) 0.3073(2) 0.8932(5)
C85_6 C 0.5759(3) 0.2934(3) 0.8481(5)
C86_6 C 0.6479(2) 0.2596(2) 0.8570(5)
C87_6 C 0.65970(19) 0.2701(2) 0.8997(4)
C88_6 C 0.6815(2) 0.2732(2) 0.9083(5)
C89_6 C 0.6828(2) 0.2837(2) 0.9538(5)
C90_6 C 0.7022(2) 0.2912(2) 0.9831(5)
C91_6 C 0.4397(2) 0.3205(2) 0.6043(5)
C92_6 C 0.4496(2) 0.3112(2) 0.6491(5)
C93_6 C 0.4515(2) 0.28980(18) 0.6651(5)
C94_6 C 0.4637(2) 0.29130(18) 0.7093(5)
C95_6 C 0.4717(3) 0.2731(3) 0.7421(6)
C96_6 C 0.5172(3) 0.2981(2) 0.8650(7)
C97_6 C 0.5239(2) 0.3211(2) 0.8555(5)
C98_6 C 0.54144(19) 0.3320(2) 0.8724(5)
C99_6 C 0.5390(2) 0.3530(2) 0.8515(5)
C100_6 C 0.5537(3) 0.3720(2) 0.8548(6)
C101_6 C 0.5224(2) 0.4263(2) 0.7265(5)
C102_6 C 0.5074(2) 0.41323(19) 0.6941(4)
C103_6 C 0.49823(18) 0.41854(18) 0.6490(4)
C104_6 C 0.48481(18) 0.4007(2) 0.6378(4)
C105_6 C 0.4707(2) 0.3955(2) 0.5930(5)
C106_6 C 0.4619(3) 0.1441(2) 0.4318(6)
C107_6 C 0.4658(2) 0.16800(19) 0.4418(5)
C108_6 C 0.4785(2) 0.1827(2) 0.4133(5)
C109_6 C 0.4764(2) 0.2023(2) 0.4404(5)
C110_6 C 0.4861(2) 0.2239(2) 0.4301(5)
C111_6 C 0.4673(3) 0.2725(2) 0.5578(6)
C112_6 C 0.4521(2) 0.2621(2) 0.5953(5)
C113_6 C 0.4446(2) 0.2700(2) 0.6406(5)
C114_6 C 0.4322(2) 0.2532(2) 0.6599(5)
C115_6 C 0.4191(3) 0.2516(2) 0.7065(7)
C116_6 C 0.3937(3) 0.1699(2) 0.7187(6)
C117_6 C 0.4001(2) 0.1609(2) 0.6699(6)
C118_6 C 0.3965(2) 0.1405(2) 0.6501(5)
C119_6 C 0.4083(2) 0.14026(19) 0.6052(5)
C120_6 C 0.4112(3) 0.1227(2) 0.5657(6)
C121_6 C 0.6074(3) 0.1063(3) 0.2207(6)
C122_6 C 0.6007(3) 0.1231(2) 0.2593(5)
C123_6 C 0.6100(2) 0.12770(19) 0.3040(5)
C124_6 C 0.5976(3) 0.1439(2) 0.3253(6)
C125_6 C 0.5997(3) 0.1553(3) 0.3743(7)
C126_6 C 0.5294(3) 0.1860(2) 0.4065(7)
C127_6 C 0.5141(2) 0.1801(2) 0.3677(6)
C128_6 C 0.4916(2) 0.1787(2) 0.3688(5)
C129_6 C 0.4854(2) 0.1718(2) 0.3212(6)
C130_6 C 0.4633(3) 0.1673(2) 0.3011(6)
C131_6 C 0.4753(3) 0.1181(2) 0.1512(7)
C132_6 C 0.4994(2) 0.1171(2) 0.1447(5)
C133_6 C 0.5119(2) 0.1018(2) 0.1194(5)
C134_6 C 0.5331(3) 0.1087(2) 0.1265(6)
C135_6 C 0.5536(3) 0.0991(2) 0.1069(6)
C136_6 C 0.4617(2) 0.45050(18) 0.6002(5)
C137_6 C 0.48570(19) 0.4501(2) 0.5931(5)
C138_6 C 0.50152(19) 0.43731(18) 0.6166(4)
C139_6 C 0.52080(19) 0.44416(17) 0.5963(4)
C140_6 C 0.5436(2) 0.43650(18) 0.6057(4)
C141_6 C 0.5898(2) 0.4603(2) 0.4663(5)
C142_6 C 0.5755(2) 0.47240(19) 0.4307(4)
C143_6 C 0.57974(17) 0.47866(16) 0.3805(5)
C144_6 C 0.5611(2) 0.4893(2) 0.3657(5)
C145_6 C 0.5558(3) 0.4990(2) 0.3154(6)
C146_6 C 0.4749(2) 0.5051(2) 0.3052(5)
C147_6 C 0.4664(2) 0.49630(19) 0.3530(5)
C148_6 C 0.4450(2) 0.4929(2) 0.3690(5)
C149_6 C 0.44700(19) 0.48625(18) 0.4174(5)
C150_6 C 0.4299(3) 0.4789(2) 0.4545(6)
H1_6 H 0.4571 0.0642 0.9022
H2_6 H 0.4314 0.0657 0.8944
H3_6 H 0.4467 0.0596 0.8483
H7_6 H 0.6928 0.2935 0.7621
H8_6 H 0.6832 0.3040 0.8123
H9_6 H 0.6727 0.2823 0.7898
H10_6 H 0.7415 0.2397 0.9187
H11_6 H 0.7170 0.2326 0.9298
H12_6 H 0.7267 0.2540 0.9550
H13_6 H 0.5250 0.0368 0.1466
H14_6 H 0.5172 0.0568 0.1801
H15_6 H 0.5390 0.0587 0.1479
H17_6 H 0.4922 0.1064 0.0055
H18_6 H 0.4712 0.1047 0.0405
H19_6 H 0.6279 0.5155 0.3099
H20_6 H 0.6187 0.5149 0.3659
H21_6 H 0.6024 0.5178 0.3200
H22_6 H 0.6044 0.4193 0.3293
H23_6 H 0.5809 0.4301 0.3339
H24_6 H 0.5961 0.4280 0.3822
H31_6 H 0.2165 0.0660 0.8149
H32_6 H 0.2368 0.0512 0.8002
H33_6 H 0.2368 0.0765 0.7865
H34_6 H 0.2793 0.0860 0.9880
H35_6 H 0.2930 0.0940 0.9407
H36_6 H 0.2934 0.0689 0.9567
H37_6 H 0.6328 0.0554 0.5043
H38_6 H 0.6320 0.0299 0.5160
H39_6 H 0.6353 0.0469 0.5606
H40_6 H 0.7298 0.0342 0.5115
H41_6 H 0.7227 0.0269 0.5666
H42_6 H 0.7197 0.0106 0.5206
H43_6 H 0.6972 0.0105 0.6845
H44_6 H 0.7083 0.0212 0.6364
H45_6 H 0.6872 0.0321 0.6607
H49_6 H 0.6756 0.1239 0.2674
H50_6 H 0.6532 0.1197 0.2388
H51_6 H 0.6572 0.1421 0.2678
H52_6 H 0.6151 0.0903 0.4340
H53_6 H 0.6030 0.1121 0.4177
H54_6 H 0.5997 0.0904 0.3857
H55_6 H 0.3569 0.5611 0.4056
H56_6 H 0.3413 0.5817 0.4098
H57_6 H 0.3379 0.5615 0.4463
H58_6 H 0.2793 0.5303 0.2783
H59_6 H 0.2677 0.5339 0.3312
H60_6 H 0.2712 0.5540 0.2942
H61_6 H 0.2556 0.5356 0.4622
H62_6 H 0.2640 0.5305 0.4069
H63_6 H 0.2805 0.5294 0.4531
H64_6 H 0.2958 0.6238 0.4067
H65_6 H 0.3161 0.6079 0.3999
H66_6 H 0.2989 0.6106 0.3556
H67_6 H 0.4169 0.4691 0.2339
H68_6 H 0.4401 0.4795 0.2461
H69_6 H 0.4318 0.4589 0.2771
H70_6 H 0.3941 0.5334 0.4031
H71_6 H 0.4096 0.5169 0.4324
H72_6 H 0.4199 0.5359 0.3992
H73_6 H 0.3595 0.0137 0.8973
H74_6 H 0.3791 0.0215 0.9320
H76_6 H 0.4253 0.0444 0.7370
H77_6 H 0.4388 0.0249 0.7614
H78_6 H 0.4392 0.0484 0.7868
H79_6 H 0.4163 0.0777 0.6817
H80_6 H 0.4248 0.1014 0.6971
H81_6 H 0.4207 0.0956 0.6395
H82_6 H 0.3311 0.1307 0.6893
H83_6 H 0.3439 0.1429 0.6454
H84_6 H 0.3488 0.1488 0.7025
H85_6 H 0.2897 0.1034 0.7434
H86_6 H 0.2783 0.1109 0.7944
H87_6 H 0.2662 0.0944 0.7578
H88_6 H 0.3144 0.0265 0.8786
H89_6 H 0.2885 0.0255 0.8830
H90_6 H 0.3020 0.0417 0.9177
H98_6 H 0.5409 0.3467 0.9890
H99_6 H 0.5573 0.3636 0.9638
H100_6 H 0.5877 0.2829 0.8525
H101_6 H 0.5789 0.3025 0.8188
H102_6 H 0.5621 0.2856 0.8431
H103_6 H 0.6323 0.2601 0.8631
H104_6 H 0.6526 0.2444 0.8539
H105_6 H 0.6513 0.2673 0.8259
H107_6 H 0.7104 0.3019 0.9634
H108_6 H 0.7115 0.2787 0.9905
H109_6 H 0.4416 0.3363 0.6045
H110_6 H 0.4466 0.3144 0.5745
H111_6 H 0.4241 0.3170 0.6040
H112_6 H 0.4796 0.2792 0.7707
H113_6 H 0.4593 0.2647 0.7542
H114_6 H 0.4814 0.2637 0.7229
H115_6 H 0.5034 0.2952 0.8479
H116_6 H 0.5284 0.2883 0.8521
H117_6 H 0.5155 0.2958 0.9010
H118_6 H 0.5474 0.3842 0.8364
H119_6 H 0.5556 0.3760 0.8900
H120_6 H 0.5678 0.3682 0.8403
H121_6 H 0.5263 0.4179 0.7563
H122_6 H 0.5356 0.4298 0.7077
H123_6 H 0.5152 0.4398 0.7367
H124_6 H 0.4638 0.3813 0.5979
H125_6 H 0.4596 0.4067 0.5892
H126_6 H 0.4798 0.3950 0.5628
H127_6 H 0.4525 0.1381 0.4580
H128_6 H 0.4548 0.1424 0.3992
H129_6 H 0.4758 0.1364 0.4316
H130_6 H 0.4819 0.2341 0.4566
H131_6 H 0.5020 0.2227 0.4292
H132_6 H 0.4809 0.2293 0.3978
H133_6 H 0.4693 0.2628 0.5292
H134_6 H 0.4611 0.2863 0.5464
H135_6 H 0.4814 0.2752 0.5737
H136_6 H 0.4123 0.2373 0.7085
H137_6 H 0.4286 0.2537 0.7356
H138_6 H 0.4078 0.2628 0.7063
H139_6 H 0.3988 0.1849 0.7214
H140_6 H 0.3779 0.1695 0.7218
H141_6 H 0.4002 0.1611 0.7455
H142_6 H 0.4203 0.1283 0.5386
H143_6 H 0.4181 0.1100 0.5807
H144_6 H 0.3970 0.1187 0.5522
H145_6 H 0.5974 0.1068 0.1923
H146_6 H 0.6071 0.0918 0.2359
H147_6 H 0.6222 0.1095 0.2091
H148_6 H 0.5883 0.1663 0.3773
H149_6 H 0.6140 0.1623 0.3763
H150_6 H 0.5982 0.1448 0.4015
H151_6 H 0.5442 0.1850 0.3934
H152_6 H 0.5278 0.1761 0.4349
H153_6 H 0.5265 0.2009 0.4175
H154_6 H 0.4645 0.1626 0.2661
H155_6 H 0.4545 0.1805 0.3029
H156_6 H 0.4565 0.1557 0.3209
H157_6 H 0.4715 0.1307 0.1715
H158_6 H 0.4703 0.1048 0.1681
H159_6 H 0.4684 0.1192 0.1184
H160_6 H 0.5660 0.1077 0.1188
H161_6 H 0.5533 0.0993 0.0703
H162_6 H 0.5550 0.0841 0.1188
H163_6 H 0.4553 0.4616 0.5783
H164_6 H 0.4583 0.4540 0.6351
H165_6 H 0.4556 0.4362 0.5918
H166_6 H 0.5537 0.4449 0.5849
H167_6 H 0.5448 0.4211 0.5971
H168_6 H 0.5473 0.4385 0.6410
H169_6 H 0.5824 0.4587 0.4984
H170_6 H 0.6033 0.4684 0.4711
H171_6 H 0.5931 0.4460 0.4525
H172_6 H 0.5413 0.5055 0.3166
H173_6 H 0.5562 0.4876 0.2899
H174_6 H 0.5665 0.5102 0.3072
H175_6 H 0.4908 0.5052 0.3061
H176_6 H 0.4695 0.5200 0.3005
H177_6 H 0.4699 0.4960 0.2775
H178_6 H 0.4368 0.4751 0.4862
H179_6 H 0.4222 0.4663 0.4411
H180_6 H 0.4195 0.4908 0.4602
Ag33_5 Ag 0.497890(19) 0.013840(18) 0.07902(4)
Ag39_5 Ag 0.238770(15) 0.571880(15) 0.51016(4)
Ag40_5 Ag 0.262870(15) 0.622230(16) 0.48838(4)
N66_5 N 0.66985(17) 0.49481(17) 0.1901(4)
H16_6 H 0.4734 0.0894 0.9923
N61_5 N 0.4775(2) 0.97090(17) 0.0552(4)
Ag2_5 Ag 0.465230(17) 0.98694(2) 0.99364(4)
N15_5 N 0.67371(17) 0.98545(18) 0.6333(4)
N16_5 N 0.66140(18) 0.97663(18) 0.5959(4)
C4_6 C 0.4330(2) 0.9998(2) 0.9067(5)
C5_6 C 0.4233(2) 0.9786(2) 0.9051(6)
C39_6 C 0.6605(2) 0.9911(2) 0.5594(4)
C40_6 C 0.6494(3) 0.9866(3) 0.5112(5)
H4_6 H 0.4311 0.9689 0.9279
H5_6 H 0.4242 0.9728 0.8710
H6_6 H 0.4081 0.9796 0.9154
H46_6 H 0.6421 0.9725 0.5130
H47_6 H 0.6387 0.9980 0.5046
H48_6 H 0.6602 0.9863 0.4841
H75_6 H 0.3792 0.9975 0.9091
Ag37_5 Ag 0.684820(16) 0.964850(16) 0.68904(4)
Ag38_5 Ag 0.651580(16) 0.944950(17) 0.59915(4)
C4_7 C 0.0670(2) 0.0002(2) 0.4067(5)
C5_7 C 0.0767(2) 0.0214(2) 0.4051(6)
H4_7 H 0.0689 0.0311 0.4279
H5_7 H 0.0758 0.0272 0.3710
H6_7 H 0.0919 0.0204 0.4154
H75_7 H 0.1208 0.0025 0.4091
Ag1_7 Ag 0.024638(17) 0.95850(2) 0.48293(4)
Ag13_7 Ag 0.154870(16) 0.959220(14) 0.31128(4)
Ag14_7 Ag 0.118760(15) 0.940200(15) 0.23334(4)
Ag15_7 Ag 0.167610(15) 0.915090(14) 0.23347(4)
Ag19_7 Ag 0.027520(15) 0.644280(15) 0.17994(4)
Ag20_7 Ag 0.011860(16) 0.675490(16) 0.27497(4)
Ag22_7 Ag 0.062560(18) 0.831150(17) 0.03981(4)
Ag23_7 Ag 0.047050(18) 0.779740(17) 0.03366(4)
Ag24_7 Ag 0.078190(18) 0.795410(17) 0.13511(5)
N1_7 N 0.04438(19) 0.9741(2) 0.4311(4)
N2_7 N 0.0498(2) 0.9955(2) 0.4380(4)
N11_3 N 0.26892(16) 0.92391(15) 0.4004(4)
N12_3 N 0.25519(17) 0.91985(17) 0.4401(4)
N25_7 N 0.12368(17) 0.97084(16) 0.3176(4)
N26_7 N 0.10910(18) 0.96409(16) 0.2827(4)
N27_7 N 0.12318(16) 0.91234(16) 0.1931(4)
N28_7 N 0.14246(16) 0.90071(17) 0.1943(4)
N29_7 N 0.19067(16) 0.92803(14) 0.2811(4)
N30_7 N 0.18499(16) 0.94559(15) 0.3111(4)
N37_7 N 0.03904(17) 0.67576(17) 0.1817(4)
N38_7 N 0.03060(19) 0.68858(17) 0.2196(5)
N42_7 N 0.01371(16) 0.61423(15) 0.1748(4)
N45_7 N 0.05527(18) 0.75797(16) 0.0882(4)
N46_7 N 0.0678(2) 0.76362(18) 0.1286(5)
N47_7 N 0.08681(17) 0.82770(15) 0.1388(4)
N48_7 N 0.08197(18) 0.84047(19) 0.0990(5)
N55_7 N 0.00459(15) 0.53603(15) 0.0611(4)
C1_7 C 0.0554(3) 0.9420(2) 0.3844(6)
C2_7 C 0.0575(2) 0.9658(2) 0.3973(5)
C3_7 C 0.0725(2) 0.9806(2) 0.3820(5)
C26_7 C 0.2677(3) 0.9344(2) 0.3113(5)
C27_7 C 0.2574(2) 0.92940(18) 0.3598(5)
C28_7 C 0.23530(18) 0.92829(19) 0.3727(5)
C29_7 C 0.23448(18) 0.92230(19) 0.4217(5)
C30_7 C 0.2156(3) 0.9180(2) 0.4546(5)
C61_7 C 0.1248(3) 0.9873(2) 0.4029(5)
C62_7 C 0.1130(2) 0.97910(19) 0.3577(5)
C63_7 C 0.09070(19) 0.9776(2) 0.3468(5)
C64_7 C 0.0890(2) 0.9681(2) 0.2994(4)
C65_7 C 0.0698(2) 0.96210(19) 0.2685(5)
C66_7 C 0.0844(3) 0.9067(2) 0.1738(7)
C67_7 C 0.1079(2) 0.8989(2) 0.1784(5)
C68_7 C 0.11560(18) 0.8783(2) 0.1691(5)
C69_7 C 0.13791(17) 0.87988(18) 0.1807(5)
C70_7 C 0.1550(2) 0.8629(2) 0.1794(6)
C71_7 C 0.2197(2) 0.9012(2) 0.2711(6)
C72_7 C 0.2095(2) 0.91980(18) 0.2975(5)
C73_7 C 0.21638(19) 0.93224(19) 0.3397(5)
C74_7 C 0.2007(2) 0.9476(2) 0.3454(5)
C75_7 C 0.1988(2) 0.9650(2) 0.3846(6)
C91_7 C 0.0603(2) 0.6795(2) 0.1043(5)
C92_7 C 0.0504(2) 0.6888(2) 0.1491(5)
C93_7 C 0.0485(2) 0.71020(18) 0.1651(5)
C94_7 C 0.0363(2) 0.70870(18) 0.2093(5)
C95_7 C 0.0283(3) 0.7269(3) 0.2421(6)
C103_7 C 0.00177(18) 0.58146(18) 0.1490(4)
C104_7 C 0.01519(18) 0.5993(2) 0.1378(4)
C105_7 C 0.0293(2) 0.6045(2) 0.0930(5)
C111_7 C 0.0327(3) 0.7275(2) 0.0578(6)
C112_7 C 0.0479(2) 0.7379(2) 0.0953(5)
C113_7 C 0.0554(2) 0.7300(2) 0.1406(5)
C114_7 C 0.0678(2) 0.7468(2) 0.1599(5)
C115_7 C 0.0809(3) 0.7484(2) 0.2065(7)
C116_7 C 0.1063(3) 0.8301(2) 0.2187(6)
C117_7 C 0.0999(2) 0.8391(2) 0.1699(6)
C118_7 C 0.1035(2) 0.8595(2) 0.1501(5)
C119_7 C 0.0917(2) 0.85974(19) 0.1052(5)
C120_7 C 0.0888(3) 0.8773(2) 0.0657(6)
C136_7 C 0.0383(2) 0.54950(18) 0.1002(5)
C137_7 C 0.01430(19) 0.5499(2) 0.0931(5)
H1_7 H 0.0429 0.9358 0.4022
H2_7 H 0.0686 0.9343 0.3944
H3_7 H 0.0533 0.9404 0.3483
H31_7 H 0.2835 0.9340 0.3149
H32_7 H 0.2632 0.9488 0.3002
H33_7 H 0.2632 0.9235 0.2865
H34_7 H 0.2207 0.9140 0.4880
H35_7 H 0.2070 0.9060 0.4407
H36_7 H 0.2066 0.9311 0.4567
H73_7 H 0.1405 0.9863 0.3973
H74_7 H 0.1209 0.9785 0.4320
H76_7 H 0.0747 0.9556 0.2370
H77_7 H 0.0612 0.9751 0.2614
H78_7 H 0.0608 0.9516 0.2868
H79_7 H 0.0837 0.9223 0.1817
H80_7 H 0.0752 0.8986 0.1971
H81_7 H 0.0793 0.9044 0.1395
H82_7 H 0.1689 0.8693 0.1893
H83_7 H 0.1561 0.8571 0.1454
H84_7 H 0.1512 0.8512 0.2025
H85_7 H 0.2103 0.8966 0.2434
H86_7 H 0.2217 0.8891 0.2944
H87_7 H 0.2338 0.9056 0.2578
H88_7 H 0.1856 0.9735 0.3786
H89_7 H 0.2115 0.9745 0.3830
H90_7 H 0.1980 0.9583 0.4177
H109_7 H 0.0584 0.6637 0.1045
H110_7 H 0.0534 0.6856 0.0745
H111_7 H 0.0759 0.6830 0.1040
H112_7 H 0.0204 0.7208 0.2707
H113_7 H 0.0407 0.7353 0.2542
H114_7 H 0.0186 0.7363 0.2229
H124_7 H 0.0362 0.6187 0.0979
H125_7 H 0.0404 0.5933 0.0892
H126_7 H 0.0202 0.6050 0.0628
H133_7 H 0.0307 0.7372 0.0292
H134_7 H 0.0389 0.7137 0.0464
H135_7 H 0.0186 0.7248 0.0737
H136_7 H 0.0877 0.7627 0.2085
H137_7 H 0.0714 0.7463 0.2356
H138_7 H 0.0922 0.7372 0.2063
H139_7 H 0.1012 0.8151 0.2214
H140_7 H 0.1221 0.8305 0.2218
H141_7 H 0.0998 0.8389 0.2455
H142_7 H 0.0797 0.8717 0.0386
H143_7 H 0.0819 0.8900 0.0807
H144_7 H 0.1030 0.8813 0.0522
H163_7 H 0.0447 0.5384 0.0783
H164_7 H 0.0417 0.5460 0.1351
H165_7 H 0.0444 0.5638 0.0918
Ag34_3 Ag 0.265120(15) 0.900850(15) 0.49841(4)
Ag36_3 Ag 0.301920(14) 0.919600(16) 0.41035(4)
N63_7 N 0.00902(19) 0.9415(2) 0.5387(4)
Ag10_7 Ag 0.137370(15) 0.474480(14) 0.83075(4)
Ag11_3 Ag 0.178120(15) 0.488770(15) 0.76016(4)
Ag12_3 Ag 0.127770(16) 0.512870(15) 0.73838(4)
Ag28_7 Ag 0.017560(15) 0.522740(14) 0.99762(4)
N19_7 N 0.16585(15) 0.45792(15) 0.8406(4)
N20_7 N 0.18338(15) 0.46485(15) 0.8126(4)
N23_7 N 0.10357(17) 0.50545(17) 0.7899(4)
N24_7 N 0.10885(17) 0.49120(15) 0.8257(4)
N43_7 N 0.0426(2) 0.82180(19) 0.9814(5)
N44_7 N 0.03610(18) 0.80093(17) 0.9809(4)
N59_7 N 0.01995(16) 0.50828(15) 0.8911(4)
N60_7 N 0.03206(16) 0.51473(16) 0.9305(4)
C14_7 C 0.0073(2) 0.9207(2) 0.5511(5)
C15_7 C 0.0186(2) 0.9035(3) 0.5195(6)
C46_7 C 0.1579(2) 0.4341(2) 0.9125(5)
C47_7 C 0.17324(18) 0.44424(18) 0.8750(5)
C48_7 C 0.1955(2) 0.4419(2) 0.8701(4)
C49_7 C 0.20130(19) 0.4552(2) 0.8294(4)
C50_7 C 0.2225(2) 0.45960(19) 0.8063(5)
C51_7 C 0.2321(3) 0.4630(2) 0.9391(6)
C52_7 C 0.2268(2) 0.43980(18) 0.9319(5)
C53_7 C 0.2105(2) 0.4302(2) 0.9028(5)
C54_7 C 0.21195(17) 0.4078(2) 0.9124(5)
C55_7 C 0.1992(2) 0.3899(2) 0.8920(6)
C56_7 C 0.0727(3) 0.5276(3) 0.7605(7)
C57_7 C 0.0830(2) 0.5129(2) 0.7977(5)
C58_7 C 0.0754(2) 0.5033(2) 0.8421(5)
C59_7 C 0.0920(2) 0.4894(2) 0.8569(5)
C60_7 C 0.0921(2) 0.4745(2) 0.9019(5)
C106_7 C 0.0381(3) 0.8559(2) 0.9318(6)
C107_7 C 0.0342(2) 0.83200(19) 0.9418(5)
C108_7 C 0.0215(2) 0.8173(2) 0.9133(5)
C109_7 C 0.0236(2) 0.7977(2) 0.9404(5)
C110_7 C 0.0139(2) 0.7761(2) 0.9301(5)
C128_7 C 0.0084(2) 0.8213(2) 0.8688(5)
C129_7 C 0.0146(2) 0.8282(2) 0.8212(6)
C130_7 C 0.0367(3) 0.8327(2) 0.8011(6)
C131_7 C 0.0247(3) 0.8819(2) 0.6512(7)
C132_7 C 0.0006(2) 0.8829(2) 0.6447(5)
C146_7 C 0.0251(2) 0.4949(2) 0.8052(5)
C147_7 C 0.0336(2) 0.50370(19) 0.8530(5)
C148_7 C 0.0550(2) 0.5071(2) 0.8690(5)
C149_7 C 0.05300(19) 0.51375(18) 0.9174(5)
C150_7 C 0.0701(3) 0.5211(2) 0.9545(6)
H16_7 H 0.0266 0.9106 0.4923
H17_7 H 0.0078 0.8936 0.5055
H18_7 H 0.0288 0.8953 0.5405
H55_7 H 0.1431 0.4389 0.9056
H56_7 H 0.1587 0.4183 0.9098
H57_7 H 0.1621 0.4385 0.9463
H58_7 H 0.2207 0.4697 0.7783
H59_7 H 0.2323 0.4661 0.8312
H60_7 H 0.2288 0.4460 0.7942
H61_7 H 0.2444 0.4644 0.9622
H62_7 H 0.2360 0.4695 0.9069
H63_7 H 0.2195 0.4706 0.9531
H64_7 H 0.2042 0.3762 0.9067
H65_7 H 0.1839 0.3921 0.8999
H66_7 H 0.2011 0.3894 0.8556
H67_7 H 0.0831 0.5309 0.7339
H68_7 H 0.0599 0.5205 0.7461
H69_7 H 0.0682 0.5411 0.7771
H70_7 H 0.1059 0.4666 0.9031
H71_7 H 0.0904 0.4831 0.9324
H72_7 H 0.0801 0.4641 0.8992
H127_7 H 0.0475 0.8619 0.9580
H128_7 H 0.0452 0.8576 0.8992
H129_7 H 0.0242 0.8636 0.9316
H130_7 H 0.0181 0.7659 0.9566
H132_7 H 0.0191 0.7707 0.8978
H154_7 H 0.0355 0.8374 0.7661
H155_7 H 0.0455 0.8195 0.8029
H156_7 H 0.0435 0.8443 0.8209
H157_7 H 0.0285 0.8693 0.6715
H158_7 H 0.0297 0.8952 0.6681
H159_7 H 0.0316 0.8808 0.6184
H175_7 H 0.0092 0.4948 0.8061
H176_7 H 0.0305 0.4800 0.8005
H177_7 H 0.0301 0.5040 0.7775
H178_7 H 0.0632 0.5249 0.9862
H179_7 H 0.0778 0.5337 0.9411
H180_7 H 0.0805 0.5092 0.9602
N69_3 N 0.17413(15) 0.51284(16) 0.7083(4)
N70_3 N 0.15444(16) 0.52187(17) 0.6962(4)
C39_7 C 0.8395(2) 0.0089(2) 0.0594(4)
C40_7 C 0.8506(3) 0.0134(3) 0.0112(5)
H46_7 H 0.8579 0.0275 0.0130
H47_7 H 0.8613 0.0020 0.0046
Ag3_3 Ag 0.736160(18) 0.747890(19) 0.32902(4)
Ag16_7 Ag 0.846740(15) 0.693460(16) 0.53119(4)
Ag17_7 Ag 0.897650(16) 0.674890(17) 0.52823(4)
Ag18_7 Ag 0.883090(16) 0.710610(17) 0.43961(4)
Ag21_7 Ag 0.990610(16) 0.625350(16) 0.27027(4)
Ag29_7 Ag 0.963140(15) 0.528020(14) 0.00504(3)
N3_3 N 0.77910(17) 0.7275(2) 0.3052(4)
N4_7 N 0.76817(16) 0.73982(18) 0.3402(4)
N9_7 N 0.85391(16) 0.58924(16) 0.7008(4)
N10_7 N 0.83968(16) 0.58396(15) 0.6642(4)
N31_7 N 0.85552(16) 0.66934(16) 0.5817(4)
N32_7 N 0.87671(18) 0.66301(17) 0.5819(4)
N33_7 N 0.91812(17) 0.67962(17) 0.4674(4)
N34_7 N 0.9125(2) 0.69490(18) 0.4329(4)
N35_7 N 0.85124(17) 0.72175(17) 0.4387(4)
N36_7 N 0.83640(16) 0.71292(17) 0.4724(4)
N39_7 N 0.98881(16) 0.66675(17) 0.3273(4)
N40_7 N 0.97908(18) 0.64651(17) 0.3249(5)
N41_7 N 0.99886(17) 0.60656(16) 0.2093(4)
N56_7 N 0.98244(16) 0.54014(15) 0.0628(4)
C6_7 C 0.8137(3) 0.7097(2) 0.2947(6)
C7_7 C 0.7986(2) 0.7227(2) 0.3244(5)
C8_7 C 0.8006(2) 0.7313(2) 0.3724(5)
C9_7 C 0.7809(2) 0.7417(2) 0.3804(5)
C10_7 C 0.7733(3) 0.7550(2) 0.4250(5)
C21_7 C 0.8781(3) 0.6195(2) 0.7258(6)
C22_7 C 0.8619(2) 0.60952(19) 0.6918(5)
C23_7 C 0.85281(17) 0.61740(18) 0.6480(5)
C24_7 C 0.8386(2) 0.6008(2) 0.6319(5)
C25_7 C 0.8242(2) 0.5992(2) 0.5873(5)
C31_7 C 0.8614(2) 0.9562(2) 0.0255(6)
C32_7 C 0.8376(2) 0.9576(2) 0.0190(5)
C33_7 C 0.8230(2) 0.9713(2) 0.0413(5)
C34_7 C 0.80310(18) 0.9652(2) 0.0220(5)
C35_7 C 0.7808(2) 0.9741(2) 0.0309(5)
C36_7 C 0.8055(2) 0.9817(2) 0.1533(6)
C37_7 C 0.8196(2) 0.99501(18) 0.1202(5)
C38_7 C 0.8274(2) 0.99056(17) 0.0725(5)
C76_7 C 0.8198(2) 0.65630(19) 0.6137(5)
C77_7 C 0.84360(17) 0.6539(2) 0.6068(4)
C78_7 C 0.85760(19) 0.6372(2) 0.6216(5)
C79_7 C 0.8781(2) 0.6439(2) 0.6060(5)
C80_7 C 0.8995(2) 0.6323(2) 0.6094(6)
C81_7 C 0.9438(2) 0.6502(2) 0.4818(6)
C82_7 C 0.93435(19) 0.66849(19) 0.4496(6)
C83_7 C 0.9404(2) 0.6758(2) 0.4032(5)
C84_7 C 0.9257(2) 0.6927(2) 0.3932(5)
C85_7 C 0.9241(3) 0.7066(3) 0.3481(5)
C86_7 C 0.8521(2) 0.7404(2) 0.3570(5)
C87_7 C 0.84030(19) 0.7299(2) 0.3997(4)
C88_7 C 0.8185(2) 0.7268(2) 0.4083(5)
C89_7 C 0.8172(2) 0.7163(2) 0.4538(5)
C90_7 C 0.7978(2) 0.7088(2) 0.4831(5)
C96_7 C 0.9828(3) 0.7019(2) 0.3650(7)
C97_7 C 0.9761(2) 0.6789(2) 0.3555(5)
C98_7 C 0.95856(19) 0.6680(2) 0.3724(5)
C99_7 C 0.9610(2) 0.6470(2) 0.3515(5)
C100_7 C 0.9463(3) 0.6280(2) 0.3548(6)
C101_7 C 0.9776(2) 0.5737(2) 0.2265(5)
C102_7 C 0.9926(2) 0.58677(19) 0.1941(4)
C138_7 C 0.99848(19) 0.56269(18) 0.1166(4)
C139_7 C 0.97920(19) 0.55584(17) 0.0963(4)
C140_7 C 0.9564(2) 0.56350(18) 0.1057(4)
H7_7 H 0.8072 0.7065 0.2621
H8_7 H 0.8168 0.6960 0.3123
H9_7 H 0.8273 0.7177 0.2898
H10_7 H 0.7585 0.7603 0.4187
H11_7 H 0.7830 0.7674 0.4298
H12_7 H 0.7733 0.7460 0.4550
H25_7 H 0.8812 0.6095 0.7535
H26_7 H 0.8723 0.6331 0.7392
H27_7 H 0.8915 0.6224 0.7074
H28_7 H 0.8164 0.5853 0.5878
H29_7 H 0.8329 0.6002 0.5568
H30_7 H 0.8136 0.6112 0.5878
H37_7 H 0.8672 0.9446 0.0043
H38_7 H 0.8680 0.9701 0.0160
H39_7 H 0.8647 0.9531 0.0606
H40_7 H 0.7702 0.9658 0.0115
H41_7 H 0.7773 0.9731 0.0666
H42_7 H 0.7803 0.9894 0.0206
H43_7 H 0.8028 0.9895 0.1845
H44_7 H 0.7917 0.9788 0.1364
H45_7 H 0.8128 0.9679 0.1607
H91_7 H 0.8150 0.6700 0.5987
H92_7 H 0.8164 0.6564 0.6495
H93_7 H 0.8123 0.6442 0.5975
H94_7 H 0.9109 0.6414 0.5945
H95_7 H 0.8987 0.6185 0.5914
H96_7 H 0.9030 0.6296 0.6446
H97_7 H 0.9357 0.6493 0.5132
H98_7 H 0.9591 0.6533 0.4890
H99_7 H 0.9427 0.6364 0.4638
H100_7 H 0.9123 0.7171 0.3525
H101_7 H 0.9211 0.6975 0.3188
H102_7 H 0.9379 0.7144 0.3431
H103_7 H 0.8677 0.7399 0.3631
H104_7 H 0.8474 0.7556 0.3539
H105_7 H 0.8487 0.7327 0.3259
H106_7 H 0.8026 0.7021 0.5144
H107_7 H 0.7896 0.6981 0.4634
H108_7 H 0.7885 0.7213 0.4905
H115_7 H 0.9966 0.7048 0.3479
H116_7 H 0.9716 0.7117 0.3521
H117_7 H 0.9845 0.7042 0.4010
H118_7 H 0.9526 0.6158 0.3364
H119_7 H 0.9444 0.6240 0.3900
H120_7 H 0.9322 0.6318 0.3403
H121_7 H 0.9737 0.5821 0.2563
H122_7 H 0.9644 0.5702 0.2077
H123_7 H 0.9848 0.5602 0.2367
H166_7 H 0.9463 0.5551 0.0849
H167_7 H 0.9552 0.5789 0.0971
H168_7 H 0.9527 0.5615 0.1410
Ag32_3 Ag 0.76306(2) 0.715230(17) 0.24364(4)
Ag35_7 Ag 0.863640(15) 0.567660(15) 0.75570(4)
N62_3 N 0.7033(2) 0.75264(18) 0.3234(5)
Ag7_7 Ag 0.839100(17) 0.922170(17) 0.93685(4)
Ag8_3 Ag 0.785150(16) 0.934820(16) 0.93904(4)
Ag9_3 Ag 0.805050(17) 0.901580(16) 0.84915(4)
Ag25_7 Ag 0.94104(2) 0.865130(17) 0.70013(5)
Ag26_7 Ag 0.948200(19) 0.835920(17) 0.80288(5)
Ag27_7 Ag 0.992750(18) 0.847280(17) 0.72587(4)
Ag30_7 Ag 0.986520(16) 0.506630(14) 0.89936(4)
N7_7 N 0.87250(16) 0.52412(15) 0.7995(4)
N8_7 N 0.87706(14) 0.54565(14) 0.8047(4)
N13_7 N 0.82759(18) 0.94375(19) 0.9897(4)
N14_7 N 0.80583(17) 0.94823(18) 0.9902(4)
N17_7 N 0.83730(18) 0.89413(17) 0.8463(4)
N18_7 N 0.8507(2) 0.90170(19) 0.8829(5)
N49_7 N 0.91676(19) 0.86433(18) 0.7527(5)
N50_7 N 0.9184(2) 0.85090(18) 0.7928(5)
N51_7 N 0.97875(18) 0.82617(17) 0.8213(4)
N52_7 N 0.99692(18) 0.83092(18) 0.7941(5)
N53_7 N 0.98808(19) 0.86875(17) 0.6670(4)
N54_7 N 0.9670(2) 0.87350(17) 0.6552(5)
N57_7 N 0.94429(16) 0.52048(15) 0.9430(4)
N58_7 N 0.95300(17) 0.51043(17) 0.9027(4)
C11_7 C 0.9757(3) 0.9473(3) 0.6488(6)
C12_7 C 0.9883(3) 0.9388(3) 0.6063(5)
C13_7 C 0.9940(2) 0.9182(2) 0.5933(5)
C16_7 C 0.8842(2) 0.48922(18) 0.8312(6)
C17_7 C 0.88657(19) 0.51263(18) 0.8280(4)
C18_7 C 0.90100(18) 0.52691(18) 0.8515(4)
C19_7 C 0.89438(19) 0.5473(2) 0.8348(5)
C20_7 C 0.9041(2) 0.5695(2) 0.8461(5)
C41_7 C 0.8400(2) 0.8735(2) 0.7682(5)
C42_7 C 0.8492(2) 0.88310(19) 0.8139(4)
C43_7 C 0.8715(2) 0.8831(2) 0.8289(5)
C44_7 C 0.8710(3) 0.8951(2) 0.8736(5)
C45_7 C 0.8899(3) 0.9011(3) 0.9055(7)
C121_7 C 0.8926(3) 0.8937(3) 0.7207(6)
C122_7 C 0.8993(3) 0.8769(2) 0.7593(5)
C123_7 C 0.8900(2) 0.87230(19) 0.8040(5)
C124_7 C 0.9024(3) 0.8561(2) 0.8253(6)
C125_7 C 0.9003(3) 0.8447(3) 0.8743(7)
C126_7 C 0.9706(3) 0.8140(2) 0.9065(7)
C127_7 C 0.9859(2) 0.8199(2) 0.8677(6)
C133_7 C 0.9881(2) 0.8982(2) 0.6194(5)
C134_7 C 0.9669(3) 0.8913(2) 0.6265(6)
C135_7 C 0.9464(3) 0.9009(2) 0.6069(6)
C141_7 C 0.9102(2) 0.5397(2) 0.9663(5)
C142_7 C 0.9245(2) 0.52760(19) 0.9307(4)
C143_7 C 0.92026(17) 0.52134(16) 0.8805(5)
C144_7 C 0.9389(2) 0.5107(2) 0.8657(5)
C145_7 C 0.9442(3) 0.5010(2) 0.8154(6)
H13_7 H 0.9750 0.9632 0.6466
H14_7 H 0.9828 0.9432 0.6801
H15_7 H 0.9610 0.9413 0.6479
H19_7 H 0.8721 0.4845 0.8099
H20_7 H 0.8813 0.4851 0.8659
H21_7 H 0.8976 0.4822 0.8200
H22_7 H 0.8956 0.5807 0.8293
H23_7 H 0.9191 0.5699 0.8339
H24_7 H 0.9039 0.5720 0.8822
H49_7 H 0.8244 0.8761 0.7674
H50_7 H 0.8468 0.8803 0.7388
H51_7 H 0.8428 0.8579 0.7678
H52_7 H 0.8849 0.9097 0.9340
H53_7 H 0.8970 0.8879 0.9177
H54_7 H 0.9003 0.9096 0.8857
H131_7 H 0.9980 0.7773 0.9292
H145_7 H 0.9026 0.8932 0.6923
H146_7 H 0.8929 0.9082 0.7359
H147_7 H 0.8778 0.8905 0.7091
H148_7 H 0.9117 0.8337 0.8773
H149_7 H 0.8860 0.8377 0.8763
H150_7 H 0.9018 0.8552 0.9015
H151_7 H 0.9558 0.8150 0.8934
H152_7 H 0.9722 0.8239 0.9349
H153_7 H 0.9735 0.7991 0.9175
H160_7 H 0.9340 0.8923 0.6188
H161_7 H 0.9467 0.9007 0.5703
H162_7 H 0.9450 0.9159 0.6188
H169_7 H 0.9176 0.5413 0.9984
H170_7 H 0.8967 0.5316 0.9711
H171_7 H 0.9069 0.5540 0.9525
H172_7 H 0.9587 0.4945 0.8166
H173_7 H 0.9438 0.5124 0.7899
H174_7 H 0.9335 0.4898 0.8072
N67_3 N 0.76455(18) 0.92371(17) 0.8833(4)
N68_3 N 0.77337(18) 0.91140(18) 0.8459(4)
Ag1_8 Ag 0.70850(2) 0.725362(17) 0.23293(4)
Ag13_8 Ag 0.709220(14) 0.595130(16) 0.06128(4)
Ag16_8 Ag 0.443460(16) 0.903260(15) 0.28119(4)
Ag17_8 Ag 0.424890(17) 0.852350(16) 0.27823(4)
Ag18_8 Ag 0.460610(17) 0.866910(16) 0.18961(4)
Ag20_8 Ag 0.425490(16) 0.738140(16) 0.02497(4)
Ag21_8 Ag 0.375350(16) 0.759390(16) 0.02027(4)
N1_8 N 0.7241(2) 0.70562(19) 0.1811(4)
N2_8 N 0.7455(2) 0.7002(2) 0.1880(4)
N4_8 N 0.48982(18) 0.98183(16) 0.0902(4)
N9_8 N 0.33924(16) 0.89609(16) 0.4508(4)
N10_8 N 0.33396(15) 0.91032(16) 0.4142(4)
N25_8 N 0.72084(16) 0.62632(17) 0.0676(4)
N26_8 N 0.71409(16) 0.64090(18) 0.0327(4)
N29_8 N 0.67803(14) 0.55933(16) 0.0311(4)
N30_8 N 0.69559(15) 0.56501(16) 0.0611(4)
N31_8 N 0.41934(16) 0.89448(16) 0.3317(4)
N32_8 N 0.41301(17) 0.87329(18) 0.3319(4)
N33_8 N 0.42962(17) 0.83188(17) 0.2174(4)
N34_8 N 0.44490(18) 0.8375(2) 0.1829(4)
N35_8 N 0.47175(17) 0.89876(17) 0.1887(4)
N36_8 N 0.46292(17) 0.91360(16) 0.2224(4)
N39_8 N 0.41675(17) 0.76119(16) 0.0773(4)
N40_8 N 0.39651(17) 0.77092(18) 0.0749(5)
C1_8 C 0.6920(2) 0.6946(3) 0.1344(6)
C2_8 C 0.7158(2) 0.6925(2) 0.1473(5)
C3_8 C 0.7306(2) 0.6775(2) 0.1320(5)
C4_8 C 0.7502(2) 0.6830(2) 0.1567(5)
C5_8 C 0.7714(2) 0.6733(2) 0.1551(6)
C6_8 C 0.4597(2) 0.9363(3) 0.0447(6)
C7_8 C 0.4727(2) 0.9514(2) 0.0744(5)
C8_8 C 0.4813(2) 0.9494(2) 0.1224(5)
C9_8 C 0.4917(2) 0.9691(2) 0.1304(5)
C10_8 C 0.5050(2) 0.9767(3) 0.1750(5)
C21_8 C 0.3695(2) 0.8719(3) 0.4758(6)
C22_8 C 0.35952(19) 0.8881(2) 0.4418(5)
C23_8 C 0.36740(18) 0.89719(17) 0.3980(5)
C24_8 C 0.3508(2) 0.9114(2) 0.3819(5)
C25_8 C 0.3492(2) 0.9258(2) 0.3373(5)
C26_8 C 0.6844(2) 0.4823(3) 0.0613(5)
C27_8 C 0.67940(18) 0.4926(2) 0.1098(5)
C28_8 C 0.67829(19) 0.51470(18) 0.1227(5)
C29_8 C 0.67230(19) 0.51552(18) 0.1717(5)
C30_8 C 0.6680(2) 0.5344(3) 0.2046(5)
C61_8 C 0.7373(2) 0.6252(3) 0.1529(5)
C62_8 C 0.72910(19) 0.6370(2) 0.1077(5)
C63_8 C 0.7276(2) 0.65930(19) 0.0968(5)
C64_8 C 0.7181(2) 0.6610(2) 0.0494(4)
C65_8 C 0.71210(19) 0.6802(2) 0.0185(5)
C71_8 C 0.6512(2) 0.5303(2) 0.0211(6)
C72_8 C 0.66980(18) 0.5405(2) 0.0475(5)
C73_8 C 0.68224(19) 0.53362(19) 0.0897(5)
C74_8 C 0.6976(2) 0.5493(2) 0.0954(5)
C75_8 C 0.7150(2) 0.5512(2) 0.1346(6)
C76_8 C 0.40630(19) 0.9302(2) 0.3637(5)
C77_8 C 0.4039(2) 0.90640(17) 0.3568(4)
C78_8 C 0.3872(2) 0.89240(19) 0.3716(5)
C79_8 C 0.3939(2) 0.8719(2) 0.3560(5)
C80_8 C 0.3823(2) 0.8505(2) 0.3594(6)
C81_8 C 0.4002(2) 0.8062(2) 0.2318(6)
C82_8 C 0.41849(19) 0.81565(19) 0.1996(6)
C83_8 C 0.4258(2) 0.8096(2) 0.1532(5)
C84_8 C 0.4427(2) 0.8243(2) 0.1432(5)
C85_8 C 0.4566(3) 0.8259(3) 0.0981(5)
C86_8 C 0.4904(2) 0.8979(2) 0.1070(5)
C87_8 C 0.4799(2) 0.90970(19) 0.1497(4)
C88_8 C 0.4768(2) 0.9315(2) 0.1583(5)
C89_8 C 0.4663(2) 0.9328(2) 0.2038(5)
C90_8 C 0.4588(2) 0.9522(2) 0.2331(5)
C96_8 C 0.4519(2) 0.7672(3) 0.1150(7)
C97_8 C 0.4289(2) 0.7739(2) 0.1055(5)
C98_8 C 0.4180(2) 0.79144(19) 0.1224(5)
C99_8 C 0.3970(2) 0.7890(2) 0.1015(5)
C100_8 C 0.3780(2) 0.8037(3) 0.1048(6)
H1_8 H 0.6858 0.7071 0.1522
H2_8 H 0.6843 0.6814 0.1444
H3_8 H 0.6904 0.6967 0.0983
H4_8 H 0.7811 0.6811 0.1779
H5_8 H 0.7772 0.6742 0.1210
H6_8 H 0.7704 0.6581 0.1654
H7_8 H 0.4565 0.9428 0.0121
H8_8 H 0.4460 0.9332 0.0623
H9_8 H 0.4677 0.9227 0.0398
H10_8 H 0.5103 0.9915 0.1687
H11_8 H 0.5174 0.9670 0.1798
H12_8 H 0.4960 0.9767 0.2050
H25_8 H 0.3595 0.8688 0.5035
H26_8 H 0.3831 0.8777 0.4892
H27_8 H 0.3724 0.8585 0.4574
H28_8 H 0.3353 0.9336 0.3378
H29_8 H 0.3502 0.9171 0.3068
H30_8 H 0.3612 0.9364 0.3378
H31_8 H 0.6840 0.4665 0.0649
H32_8 H 0.6988 0.4868 0.0502
H33_8 H 0.6735 0.4868 0.0365
H34_8 H 0.6640 0.5293 0.2380
H35_8 H 0.6560 0.5430 0.1907
H36_8 H 0.6811 0.5434 0.2067
H73_8 H 0.7363 0.6095 0.1473
H74_8 H 0.7285 0.6291 0.1820
H75_8 H 0.7525 0.6292 0.1591
H77_8 H 0.7251 0.6888 0.0114
H78_8 H 0.7016 0.6892 0.0368
H86_8 H 0.6391 0.5283 0.0444
H87_8 H 0.6556 0.5162 0.0078
H88_8 H 0.7235 0.5644 0.1286
H89_8 H 0.7245 0.5385 0.1330
H90_8 H 0.7083 0.5520 0.1677
H91_8 H 0.4200 0.9350 0.3487
H92_8 H 0.4064 0.9336 0.3995
H93_8 H 0.3942 0.9377 0.3475
H94_8 H 0.3914 0.8391 0.3445
H95_8 H 0.3685 0.8513 0.3414
H96_8 H 0.3796 0.8470 0.3946
H97_8 H 0.3993 0.8143 0.2632
H98_8 H 0.4033 0.7909 0.2390
H99_8 H 0.3864 0.8073 0.2138
H100_8 H 0.4671 0.8377 0.1025
H101_8 H 0.4475 0.8289 0.0688
H102_8 H 0.4644 0.8121 0.0931
H103_8 H 0.4899 0.8823 0.1131
H104_8 H 0.5056 0.9026 0.1039
H105_8 H 0.4827 0.9013 0.0759
H106_8 H 0.4521 0.9474 0.2644
H107_8 H 0.4481 0.9604 0.2134
H108_8 H 0.4713 0.9615 0.2405
H112_8 H 0.4708 0.7296 0.0207
H113_8 H 0.4853 0.7093 0.0042
H115_8 H 0.4548 0.7534 0.0979
H116_8 H 0.4617 0.7784 0.1021
H117_8 H 0.4542 0.7655 0.1510
H118_8 H 0.3658 0.7974 0.0864
H119_8 H 0.3740 0.8056 0.1400
H120_8 H 0.3818 0.8178 0.0903
H121_8 H 0.3321 0.7763 0.0063
Ag35_8 Ag 0.317660(15) 0.886360(15) 0.50570(4)
N63_8 N 0.6915(2) 0.74098(19) 0.2887(4)
Ag7_8 Ag 0.672170(17) 0.910900(17) 0.68685(4)
Ag10_8 Ag 0.224480(14) 0.612630(15) 0.58075(4)
Ag14_8 Ag 0.690200(15) 0.631240(15) 0.98334(4)
Ag15_8 Ag 0.665090(14) 0.582390(15) 0.98347(4)
Ag19_8 Ag 0.394280(15) 0.722480(15) 0.92994(4)
Ag22_8 Ag 0.581150(17) 0.687440(18) 0.78981(4)
Ag23_8 Ag 0.529740(17) 0.702950(18) 0.78366(4)
Ag24_8 Ag 0.545410(17) 0.671810(18) 0.88511(5)
Ag25_8 Ag 0.615130(17) 0.80896(2) 0.45013(5)
Ag26_8 Ag 0.585920(17) 0.801800(19) 0.55288(5)
Ag27_8 Ag 0.597280(17) 0.757250(18) 0.47587(4)
Ag28_8 Ag 0.272740(14) 0.732440(15) 0.74762(4)
Ag29_8 Ag 0.278020(14) 0.786860(15) 0.75504(3)
Ag30_8 Ag 0.256630(14) 0.763480(16) 0.64936(4)
N7_8 N 0.27412(15) 0.87750(16) 0.5495(4)
N8_8 N 0.29565(14) 0.87294(14) 0.5547(4)
N13_8 N 0.69375(19) 0.92241(18) 0.7397(4)
N14_8 N 0.69823(18) 0.94417(17) 0.7402(4)
N17_8 N 0.64413(17) 0.91270(18) 0.5963(4)
N18_8 N 0.65170(19) 0.8993(2) 0.6329(5)
N19_8 N 0.20792(15) 0.58415(15) 0.5906(4)
N20_8 N 0.21485(15) 0.56662(15) 0.5626(4)
N23_8 N 0.25545(17) 0.64643(17) 0.5399(4)
N24_8 N 0.24120(15) 0.64115(17) 0.5757(4)
N27_8 N 0.66234(16) 0.62682(16) 0.9431(4)
N28_8 N 0.65071(17) 0.60754(16) 0.9443(4)
N37_8 N 0.42576(17) 0.71096(17) 0.9317(4)
N38_8 N 0.43858(17) 0.71940(19) 0.9696(5)
N41_8 N 0.35656(16) 0.75114(17) 0.9593(4)
N42_8 N 0.36423(15) 0.73629(16) 0.9248(4)
N43_8 N 0.57180(19) 0.7074(2) 0.7314(5)
N44_8 N 0.55093(17) 0.71390(18) 0.7309(4)
N45_8 N 0.50797(16) 0.69473(18) 0.8382(4)
N46_8 N 0.51362(18) 0.6822(2) 0.8786(5)
N47_8 N 0.57770(15) 0.66319(17) 0.8888(4)
N48_8 N 0.59047(19) 0.66803(18) 0.8490(5)
N49_8 N 0.61433(18) 0.83324(19) 0.5027(5)
N50_8 N 0.60090(18) 0.8316(2) 0.5428(5)
N51_8 N 0.57617(17) 0.77125(18) 0.5713(4)
N52_8 N 0.58092(18) 0.75308(18) 0.5441(5)
N53_8 N 0.61875(17) 0.76192(19) 0.4170(4)
N54_8 N 0.62350(17) 0.7830(2) 0.4052(5)
N55_8 N 0.28603(15) 0.74541(15) 0.8111(4)
N56_8 N 0.29014(15) 0.76756(16) 0.8128(4)
N57_8 N 0.27048(15) 0.80571(16) 0.6930(4)
N58_8 N 0.26043(17) 0.79700(17) 0.6527(4)
N59_8 N 0.25828(15) 0.73005(16) 0.6411(4)
N60_8 N 0.26473(16) 0.71794(16) 0.6805(4)
C11_8 C 0.6973(3) 0.7743(3) 0.3988(6)
C12_8 C 0.6888(3) 0.7617(3) 0.3563(5)
C13_8 C 0.6682(2) 0.7560(2) 0.3433(5)
C14_8 C 0.6707(2) 0.7427(2) 0.3011(5)
C15_8 C 0.6535(3) 0.7314(2) 0.2695(6)
C16_8 C 0.23922(18) 0.8658(2) 0.5812(6)
C17_8 C 0.26263(18) 0.86343(19) 0.5780(4)
C18_8 C 0.27691(18) 0.84900(18) 0.6015(4)
C19_8 C 0.2973(2) 0.85562(19) 0.5848(5)
C20_8 C 0.3195(2) 0.8459(2) 0.5961(5)
C31_8 C 0.7062(2) 0.8886(2) 0.7755(6)
C32_8 C 0.7076(2) 0.9124(2) 0.7690(5)
C33_8 C 0.7213(2) 0.9270(2) 0.7913(5)
C34_8 C 0.7152(2) 0.94690(18) 0.7720(5)
C35_8 C 0.7241(2) 0.9692(2) 0.7809(5)
C36_8 C 0.7317(2) 0.9445(2) 0.9033(6)
C37_8 C 0.74501(18) 0.9304(2) 0.8702(5)
C38_8 C 0.74056(17) 0.9226(2) 0.8225(5)
C39_8 C 0.7589(2) 0.9105(2) 0.8094(4)
C40_8 C 0.7634(3) 0.8994(3) 0.7612(5)
C41_8 C 0.6235(2) 0.9100(2) 0.5182(5)
C42_8 C 0.63310(19) 0.9008(2) 0.5639(4)
C43_8 C 0.6331(2) 0.8785(2) 0.5789(5)
C44_8 C 0.6451(2) 0.8790(3) 0.6236(5)
C45_8 C 0.6511(3) 0.8601(3) 0.6555(7)
C46_8 C 0.1841(2) 0.5921(2) 0.6625(5)
C47_8 C 0.19424(18) 0.57676(18) 0.6250(5)
C48_8 C 0.1919(2) 0.5545(2) 0.6201(4)
C49_8 C 0.2052(2) 0.54870(19) 0.5794(4)
C50_8 C 0.20960(19) 0.5275(2) 0.5563(5)
C51_8 C 0.2130(2) 0.5179(3) 0.6891(6)
C52_8 C 0.18980(18) 0.5232(2) 0.6819(5)
C53_8 C 0.1802(2) 0.5395(2) 0.6528(5)
C54_8 C 0.1578(2) 0.53805(17) 0.6624(5)
C55_8 C 0.1399(2) 0.5508(2) 0.6420(6)
C56_8 C 0.2776(3) 0.6773(3) 0.5105(7)
C57_8 C 0.2629(2) 0.6670(2) 0.5477(5)
C58_8 C 0.2533(2) 0.6746(2) 0.5921(5)
C59_8 C 0.2394(2) 0.6580(2) 0.6069(5)
C60_8 C 0.2245(2) 0.6579(2) 0.6519(5)
C66_8 C 0.6567(2) 0.6656(3) 0.9238(7)
C67_8 C 0.6489(2) 0.6421(2) 0.9284(5)
C68_8 C 0.6283(2) 0.63440(18) 0.9191(5)
C69_8 C 0.62988(18) 0.61209(17) 0.9307(5)
C70_8 C 0.6129(2) 0.5950(2) 0.9294(6)
C91_8 C 0.4295(2) 0.6897(2) 0.8543(5)
C92_8 C 0.4388(2) 0.6996(2) 0.8991(5)
C93_8 C 0.46020(18) 0.7015(2) 0.9151(5)
C94_8 C 0.45870(18) 0.7137(2) 0.9593(5)
C95_8 C 0.4769(3) 0.7217(3) 0.9921(6)
C101_8 C 0.3237(2) 0.7724(2) 0.9765(5)
C102_8 C 0.33677(19) 0.7574(2) 0.9441(4)
C103_8 C 0.33146(18) 0.74823(18) 0.8990(4)
C104_8 C 0.3493(2) 0.73481(18) 0.8878(4)
C105_8 C 0.3545(2) 0.7207(2) 0.8430(5)
C106_8 C 0.6059(2) 0.7119(3) 0.6818(6)
C107_8 C 0.58200(19) 0.7158(2) 0.6918(5)
C108_8 C 0.5673(2) 0.7285(2) 0.6633(5)
C109_8 C 0.5477(2) 0.7264(2) 0.6904(5)
C110_8 C 0.5261(2) 0.7361(2) 0.6801(5)
C111_8 C 0.4775(2) 0.7173(3) 0.8078(6)
C112_8 C 0.4879(2) 0.7021(2) 0.8453(5)
C113_8 C 0.4800(2) 0.6946(2) 0.8906(5)
C114_8 C 0.4968(2) 0.6822(2) 0.9099(5)
C115_8 C 0.4984(2) 0.6691(3) 0.9565(7)
C116_8 C 0.5801(2) 0.6437(3) 0.9687(6)
C117_8 C 0.5891(2) 0.6501(2) 0.9199(6)
C118_8 C 0.6095(2) 0.6465(2) 0.9001(5)
C119_8 C 0.60974(19) 0.6583(2) 0.8552(5)
C120_8 C 0.6273(2) 0.6612(3) 0.8157(6)
C121_8 C 0.6437(3) 0.8574(3) 0.4707(6)
C122_8 C 0.6269(2) 0.8507(3) 0.5093(5)
C123_8 C 0.62230(19) 0.8600(2) 0.5540(5)
C124_8 C 0.6061(2) 0.8476(3) 0.5753(6)
C125_8 C 0.5947(3) 0.8497(3) 0.6243(7)
C126_8 C 0.5640(2) 0.7794(3) 0.6565(7)
C127_8 C 0.5699(2) 0.7641(2) 0.6177(6)
C128_8 C 0.5713(2) 0.7416(2) 0.6188(5)
C129_8 C 0.5782(2) 0.7354(2) 0.5712(6)
C130_8 C 0.5827(2) 0.7133(3) 0.5511(6)
C131_8 C 0.6319(2) 0.7253(3) 0.4012(7)
C132_8 C 0.6329(2) 0.7494(2) 0.3947(5)
C133_8 C 0.6482(2) 0.7619(2) 0.3694(5)
C134_8 C 0.6413(2) 0.7831(3) 0.3765(6)
C135_8 C 0.6509(2) 0.8036(3) 0.3569(6)
C136_8 C 0.29950(18) 0.7117(2) 0.8502(5)
C137_8 C 0.2999(2) 0.73570(19) 0.8431(5)
C138_8 C 0.31269(18) 0.75152(19) 0.8666(4)
C139_8 C 0.30584(17) 0.77080(19) 0.8463(4)
C140_8 C 0.31350(18) 0.7936(2) 0.8557(4)
C141_8 C 0.2897(2) 0.8398(2) 0.7163(5)
C142_8 C 0.27760(19) 0.8255(2) 0.6807(4)
C143_8 C 0.27134(16) 0.82974(17) 0.6305(5)
C144_8 C 0.2607(2) 0.8111(2) 0.6157(5)
C145_8 C 0.2510(2) 0.8058(3) 0.5654(6)
C146_8 C 0.2449(2) 0.7249(2) 0.5552(5)
C147_8 C 0.25370(19) 0.7164(2) 0.6030(5)
C148_8 C 0.2571(2) 0.6950(2) 0.6190(5)
C149_8 C 0.26375(18) 0.69700(19) 0.6674(5)
C150_8 C 0.2711(2) 0.6799(3) 0.7045(6)
H13_8 H 0.7132 0.7750 0.3966
H14_8 H 0.6932 0.7672 0.4301
H15_8 H 0.6913 0.7890 0.3979
H16_8 H 0.6606 0.7234 0.2423
H17_8 H 0.6436 0.7422 0.2555
H18_8 H 0.6453 0.7212 0.2905
H19_8 H 0.2345 0.8779 0.5599
H20_8 H 0.2351 0.8687 0.6159
H21_8 H 0.2322 0.8524 0.5700
H22_8 H 0.3307 0.8544 0.5793
H23_8 H 0.3199 0.8309 0.5839
H24_8 H 0.3220 0.8461 0.6322
H37_8 H 0.6946 0.8828 0.7543
H38_8 H 0.7201 0.8820 0.7660
H39_8 H 0.7031 0.8853 0.8106
H40_8 H 0.7158 0.9798 0.7615
H41_8 H 0.7231 0.9727 0.8166
H42_8 H 0.7394 0.9697 0.7706
H43_8 H 0.7395 0.9472 0.9345
H44_8 H 0.7288 0.9583 0.8864
H45_8 H 0.7179 0.9372 0.9107
H46_8 H 0.7775 0.8921 0.7630
H47_8 H 0.7520 0.8887 0.7546
H48_7 H 0.7637 0.9102 0.7341
H49_8 H 0.6261 0.9256 0.5174
H50_8 H 0.6303 0.9032 0.4888
H51_8 H 0.6079 0.9072 0.5178
H52_8 H 0.6597 0.8651 0.6840
H53_8 H 0.6379 0.8530 0.6677
H54_8 H 0.6596 0.8497 0.6357
H55_8 H 0.1889 0.6069 0.6556
H56_8 H 0.1683 0.5913 0.6598
H57_8 H 0.1885 0.5879 0.6963
H58_8 H 0.2197 0.5293 0.5283
H59_8 H 0.2161 0.5177 0.5812
H60_8 H 0.1960 0.5212 0.5442
H61_8 H 0.2144 0.5056 0.7122
H62_8 H 0.2195 0.5140 0.6569
H63_8 H 0.2206 0.5305 0.7031
H64_8 H 0.1262 0.5458 0.6567
H65_8 H 0.1421 0.5661 0.6499
H66_8 H 0.1394 0.5489 0.6056
H67_8 H 0.2809 0.6669 0.4839
H68_8 H 0.2705 0.6901 0.4961
H69_8 H 0.2911 0.6818 0.5271
H70_8 H 0.2166 0.6441 0.6531
H71_8 H 0.2331 0.6596 0.6824
H72_8 H 0.2141 0.6699 0.6492
H76_8 H 0.7056 0.6753 0.9870
H79_8 H 0.6723 0.6663 0.9317
H80_8 H 0.6486 0.6748 0.9471
H81_8 H 0.6544 0.6707 0.8895
H82_8 H 0.6193 0.5811 0.9393
H83_8 H 0.6071 0.5939 0.8954
H84_8 H 0.6012 0.5988 0.9525
H85_8 H 0.6466 0.5397 0.9934
H109_8 H 0.4137 0.6916 0.8545
H110_8 H 0.4356 0.6966 0.8245
H111_8 H 0.4330 0.6741 0.8540
H114_8 H 0.4863 0.7314 0.9729
H122_8 H 0.3202 0.7856 0.9577
H123_8 H 0.3102 0.7652 0.9867
H124_8 H 0.3687 0.7138 0.8479
H125_8 H 0.3433 0.7096 0.8392
H126_8 H 0.3550 0.7298 0.8128
H127_8 H 0.6119 0.7025 0.7080
H128_8 H 0.6076 0.7048 0.6492
H129_8 H 0.6136 0.7258 0.6816
H130_8 H 0.5159 0.7319 0.7066
H131_8 H 0.5273 0.7520 0.6792
H132_8 H 0.5207 0.7309 0.6478
H133_8 H 0.4872 0.7193 0.7792
H134_8 H 0.4637 0.7111 0.7964
H135_8 H 0.4748 0.7314 0.8237
H136_8 H 0.5127 0.6623 0.9585
H137_8 H 0.4963 0.6786 0.9856
H138_8 H 0.4872 0.6578 0.9563
H139_8 H 0.5651 0.6488 0.9714
H140_8 H 0.5805 0.6279 0.9718
H141_8 H 0.5889 0.6502 0.9955
H142_8 H 0.6217 0.6703 0.7886
H143_8 H 0.6400 0.6681 0.8307
H144_8 H 0.6313 0.6470 0.8022
H145_8 H 0.6432 0.8474 0.4423
H146_8 H 0.6582 0.8571 0.4859
H147_8 H 0.6405 0.8722 0.4591
H148_8 H 0.5837 0.8383 0.6273
H149_8 H 0.5877 0.8640 0.6263
H150_8 H 0.6052 0.8482 0.6515
H151_8 H 0.5650 0.7942 0.6434
H152_8 H 0.5739 0.7778 0.6849
H153_8 H 0.5491 0.7765 0.6675
H154_8 H 0.5874 0.7145 0.5161
H155_8 H 0.5695 0.7045 0.5529
H156_8 H 0.5943 0.7065 0.5709
H157_8 H 0.6193 0.7215 0.4215
H158_8 H 0.6452 0.7203 0.4181
H159_8 H 0.6308 0.7184 0.3684
H160_8 H 0.6423 0.8160 0.3688
H161_8 H 0.6507 0.8033 0.3203
H162_8 H 0.6659 0.8050 0.3688
H163_8 H 0.2884 0.7053 0.8283
H164_8 H 0.2960 0.7083 0.8851
H165_8 H 0.3138 0.7056 0.8418
H166_8 H 0.3051 0.8037 0.8349
H167_8 H 0.3289 0.7948 0.8471
H168_8 H 0.3115 0.7973 0.8910
H169_8 H 0.2913 0.8324 0.7484
H170_8 H 0.2816 0.8533 0.7211
H171_8 H 0.3040 0.8431 0.7025
H172_8 H 0.2445 0.7913 0.5666
H173_8 H 0.2624 0.8062 0.5399
H174_8 H 0.2398 0.8165 0.5572
H175_8 H 0.2448 0.7408 0.5561
H176_8 H 0.2300 0.7195 0.5505
H177_8 H 0.2540 0.7199 0.5275
H178_8 H 0.2749 0.6868 0.7362
H179_8 H 0.2837 0.6722 0.6911
H180_8 H 0.2592 0.6695 0.7102
H48_8 H 0.8398 0.0137 0.9841
Ag4_6 Ag 0.265120(15) 0.400850(15) 0.50159(4)
Ag5 Ag 0.317660(15) 0.386360(15) 0.49430(4)
Ag7_9 Ag 0.672170(17) 0.410900(17) 0.31315(4)
Ag8_4 Ag 0.684820(16) 0.464850(16) 0.31096(4)
Ag9_4 Ag 0.651580(16) 0.444950(17) 0.40085(4)
Ag10_9 Ag 0.224480(14) 0.112630(15) 0.41925(4)
Ag11_4 Ag 0.238770(15) 0.071880(15) 0.48984(4)
Ag12_4 Ag 0.262870(15) 0.122230(16) 0.51162(4)
Ag14_9 Ag 0.690200(15) 0.131240(15) 0.01666(4)
Ag15_9 Ag 0.665090(14) 0.082390(15) 0.01653(4)
Ag19_9 Ag 0.394280(15) 0.222480(15) 0.07006(4)
Ag22_9 Ag 0.581150(17) 0.187440(18) 0.21019(4)
Ag23_9 Ag 0.529740(17) 0.202950(18) 0.21634(4)
Ag24_9 Ag 0.545410(17) 0.171810(18) 0.11489(5)
Ag25_9 Ag 0.615130(17) 0.30896(2) 0.54987(5)
Ag26_9 Ag 0.585920(17) 0.301800(19) 0.44712(5)
Ag27_9 Ag 0.597280(17) 0.257250(18) 0.52413(4)
Ag28_9 Ag 0.272740(14) 0.232440(15) 0.25238(4)
Ag29_9 Ag 0.278020(14) 0.286860(15) 0.24496(3)
Ag30_9 Ag 0.256630(14) 0.263480(16) 0.35064(4)
N5_6 N 0.7033(2) 0.25264(18) 0.6766(5)
N6 N 0.6915(2) 0.24098(19) 0.7113(4)
N7_9 N 0.27412(15) 0.37750(16) 0.4505(4)
N8_9 N 0.29565(14) 0.37294(14) 0.4453(4)
N13_9 N 0.69375(19) 0.42241(18) 0.2603(4)
N14_9 N 0.69823(18) 0.44417(17) 0.2598(4)
N15_6 N 0.76455(18) 0.42371(17) 0.1167(4)
N16_6 N 0.77337(18) 0.41140(18) 0.1541(4)
N17_9 N 0.64413(17) 0.41270(18) 0.4037(4)
N18_9 N 0.65170(19) 0.3993(2) 0.3671(5)
N19_9 N 0.20792(15) 0.08415(15) 0.4094(4)
N20_9 N 0.21485(15) 0.06662(15) 0.4374(4)
N21_6 N 0.17413(15) 0.01284(16) 0.2917(4)
N22_6 N 0.15444(16) 0.02187(17) 0.3038(4)
N23_9 N 0.25545(17) 0.14643(17) 0.4601(4)
N24_9 N 0.24120(15) 0.14115(17) 0.4243(4)
N27_9 N 0.66234(16) 0.12682(16) 0.0569(4)
N28_9 N 0.65071(17) 0.10754(16) 0.0557(4)
N37_9 N 0.42576(17) 0.21096(17) 0.0683(4)
N38_9 N 0.43858(17) 0.21940(19) 0.0304(5)
N41_9 N 0.35656(16) 0.25114(17) 0.0407(4)
N42_9 N 0.36423(15) 0.23629(16) 0.0752(4)
N43_9 N 0.57180(19) 0.2074(2) 0.2686(5)
N44_9 N 0.55093(17) 0.21390(18) 0.2691(4)
N45_9 N 0.50797(16) 0.19473(18) 0.1618(4)
N46_9 N 0.51362(18) 0.1822(2) 0.1214(5)
N47_9 N 0.57770(15) 0.16319(17) 0.1112(4)
N48_9 N 0.59047(19) 0.16803(18) 0.1510(5)
N49_9 N 0.61433(18) 0.33324(19) 0.4973(5)
N50_9 N 0.60090(18) 0.3316(2) 0.4572(5)
N51_9 N 0.57617(17) 0.27125(18) 0.4287(4)
N52_9 N 0.58092(18) 0.25308(18) 0.4559(5)
N53_9 N 0.61875(17) 0.26192(19) 0.5830(4)
N54_9 N 0.62350(17) 0.2830(2) 0.5948(5)
N55_9 N 0.28603(15) 0.24541(15) 0.1889(4)
N56_9 N 0.29014(15) 0.26756(16) 0.1872(4)
N57_9 N 0.27048(15) 0.30571(16) 0.3070(4)
N58_9 N 0.26043(17) 0.29700(17) 0.3473(4)
N59_9 N 0.25828(15) 0.23005(16) 0.3589(4)
N60_9 N 0.26473(16) 0.21794(16) 0.3195(4)
C11_9 C 0.6973(3) 0.2743(3) 0.6012(6)
C12_9 C 0.6888(3) 0.2617(3) 0.6437(5)
C13_9 C 0.6682(2) 0.2560(2) 0.6567(5)
C14_9 C 0.6707(2) 0.2427(2) 0.6989(5)
C15_9 C 0.6535(3) 0.2314(2) 0.7305(6)
C16_9 C 0.23922(18) 0.3658(2) 0.4188(6)
C17_9 C 0.26263(18) 0.36343(19) 0.4220(4)
C18_9 C 0.27691(18) 0.34900(18) 0.3985(4)
C19_9 C 0.2973(2) 0.35562(19) 0.4152(5)
C20_9 C 0.3195(2) 0.3459(2) 0.4039(5)
C31_9 C 0.7062(2) 0.3886(2) 0.2245(6)
C32_9 C 0.7076(2) 0.4124(2) 0.2310(5)
C33_9 C 0.7213(2) 0.4270(2) 0.2087(5)
C34_9 C 0.7152(2) 0.44690(18) 0.2280(5)
C35_9 C 0.7241(2) 0.4692(2) 0.2191(5)
C36_9 C 0.7317(2) 0.4445(2) 0.0967(6)
C37_9 C 0.74501(18) 0.4304(2) 0.1298(5)
C38_9 C 0.74056(17) 0.4226(2) 0.1775(5)
C39_9 C 0.7589(2) 0.4105(2) 0.1906(4)
C40_9 C 0.7634(3) 0.3994(3) 0.2388(5)
C41_9 C 0.6235(2) 0.4100(2) 0.4818(5)
C42_9 C 0.63310(19) 0.4008(2) 0.4361(4)
C43_9 C 0.6331(2) 0.3785(2) 0.4211(5)
C44_9 C 0.6451(2) 0.3790(3) 0.3764(5)
C45_9 C 0.6511(3) 0.3601(3) 0.3445(7)
C46_9 C 0.1841(2) 0.0921(2) 0.3375(5)
C47_9 C 0.19424(18) 0.07676(18) 0.3750(5)
C48_9 C 0.1919(2) 0.0545(2) 0.3799(4)
C49_9 C 0.2052(2) 0.04870(19) 0.4206(4)
C50_9 C 0.20960(19) 0.0275(2) 0.4437(5)
C51_9 C 0.2130(2) 0.0179(3) 0.3109(6)
C52_9 C 0.18980(18) 0.0232(2) 0.3181(5)
C53_9 C 0.1802(2) 0.0395(2) 0.3472(5)
C54_9 C 0.1578(2) 0.03805(17) 0.3376(5)
C55_9 C 0.1399(2) 0.0508(2) 0.3580(6)
C56_9 C 0.2776(3) 0.1773(3) 0.4895(7)
C57_9 C 0.2629(2) 0.1670(2) 0.4523(5)
C58_9 C 0.2533(2) 0.1746(2) 0.4079(5)
C59_9 C 0.2394(2) 0.1580(2) 0.3931(5)
C60_9 C 0.2245(2) 0.1579(2) 0.3481(5)
C66_9 C 0.6567(2) 0.1656(3) 0.0762(7)
C67_9 C 0.6489(2) 0.1421(2) 0.0716(5)
C68_9 C 0.6283(2) 0.13440(18) 0.0809(5)
C69_9 C 0.62988(18) 0.11209(17) 0.0693(5)
C70_9 C 0.6129(2) 0.0950(2) 0.0706(6)
C91_9 C 0.4295(2) 0.1897(2) 0.1457(5)
C92_9 C 0.4388(2) 0.1996(2) 0.1009(5)
C93_9 C 0.46020(18) 0.2015(2) 0.0849(5)
C94_9 C 0.45870(18) 0.2137(2) 0.0407(5)
C95_9 C 0.4769(3) 0.2217(3) 0.0079(6)
C101_9 C 0.3237(2) 0.2724(2) 0.0235(5)
C102_9 C 0.33677(19) 0.2574(2) 0.0559(4)
C103_9 C 0.33146(18) 0.24823(18) 0.1010(4)
C104_9 C 0.3493(2) 0.23481(18) 0.1122(4)
C105_9 C 0.3545(2) 0.2207(2) 0.1570(5)
C106_9 C 0.6059(2) 0.2119(3) 0.3182(6)
C107_9 C 0.58200(19) 0.2158(2) 0.3082(5)
C108_9 C 0.5673(2) 0.2285(2) 0.3367(5)
C109_9 C 0.5477(2) 0.2264(2) 0.3096(5)
C110_9 C 0.5261(2) 0.2361(2) 0.3199(5)
C111_9 C 0.4775(2) 0.2173(3) 0.1922(6)
C112_9 C 0.4879(2) 0.2021(2) 0.1547(5)
C113_9 C 0.4800(2) 0.1946(2) 0.1094(5)
C114_9 C 0.4968(2) 0.1822(2) 0.0901(5)
C115_9 C 0.4984(2) 0.1691(3) 0.0435(7)
C116_9 C 0.5801(2) 0.1437(3) 0.0313(6)
C117_9 C 0.5891(2) 0.1501(2) 0.0801(6)
C118_9 C 0.6095(2) 0.1465(2) 0.0999(5)
C119_9 C 0.60974(19) 0.1583(2) 0.1448(5)
C120_9 C 0.6273(2) 0.1612(3) 0.1843(6)
C121_9 C 0.6437(3) 0.3574(3) 0.5293(6)
C122_9 C 0.6269(2) 0.3507(3) 0.4907(5)
C123_9 C 0.62230(19) 0.3600(2) 0.4460(5)
C124_9 C 0.6061(2) 0.3476(3) 0.4247(6)
C125_9 C 0.5947(3) 0.3497(3) 0.3757(7)
C126_9 C 0.5640(2) 0.2794(3) 0.3435(7)
C127_9 C 0.5699(2) 0.2641(2) 0.3823(6)
C128_9 C 0.5713(2) 0.2416(2) 0.3812(5)
C129_9 C 0.5782(2) 0.2354(2) 0.4288(6)
C130_9 C 0.5827(2) 0.2133(3) 0.4489(6)
C131_9 C 0.6319(2) 0.2253(3) 0.5988(7)
C132_9 C 0.6329(2) 0.2494(2) 0.6053(5)
C133_9 C 0.6482(2) 0.2619(2) 0.6306(5)
C134_9 C 0.6413(2) 0.2831(3) 0.6235(6)
C135_9 C 0.6509(2) 0.3036(3) 0.6431(6)
C136_9 C 0.29950(18) 0.2117(2) 0.1498(5)
C137_9 C 0.2999(2) 0.23570(19) 0.1569(5)
C138_9 C 0.31269(18) 0.25152(19) 0.1334(4)
C139_9 C 0.30584(17) 0.27080(19) 0.1537(4)
C140_9 C 0.31350(18) 0.2936(2) 0.1443(4)
C141_9 C 0.2897(2) 0.3398(2) 0.2837(5)
C142_9 C 0.27760(19) 0.3255(2) 0.3193(4)
C143_9 C 0.27134(16) 0.32974(17) 0.3695(5)
C144_9 C 0.2607(2) 0.3111(2) 0.3843(5)
C145_9 C 0.2510(2) 0.3058(3) 0.4346(6)
C146_9 C 0.2449(2) 0.2249(2) 0.4448(5)
C147_9 C 0.25370(19) 0.2164(2) 0.3970(5)
C148_9 C 0.2571(2) 0.1950(2) 0.3810(5)
C149_9 C 0.26375(18) 0.19700(19) 0.3326(5)
C150_9 C 0.2711(2) 0.1799(3) 0.2955(6)
H13_9 H 0.7132 0.2750 0.6034
H14_9 H 0.6932 0.2672 0.5699
H15_9 H 0.6913 0.2890 0.6021
H16_9 H 0.6606 0.2234 0.7577
H17_9 H 0.6436 0.2422 0.7445
H18_9 H 0.6453 0.2212 0.7095
H19_9 H 0.2345 0.3779 0.4401
H20_9 H 0.2351 0.3687 0.3841
H21_9 H 0.2322 0.3524 0.4300
H22_9 H 0.3307 0.3544 0.4207
H23_9 H 0.3199 0.3309 0.4161
H24_9 H 0.3220 0.3461 0.3678
H37_9 H 0.6946 0.3828 0.2457
H38_9 H 0.7201 0.3820 0.2340
H39_9 H 0.7031 0.3853 0.1894
H40_9 H 0.7158 0.4798 0.2385
H41_9 H 0.7231 0.4727 0.1834
H42_9 H 0.7394 0.4697 0.2294
H43_9 H 0.7395 0.4472 0.0655
H44_9 H 0.7288 0.4583 0.1136
H45_9 H 0.7179 0.4372 0.0893
H46_9 H 0.7775 0.3921 0.2370
H47_9 H 0.7520 0.3887 0.2454
H48_9 H 0.7637 0.4102 0.2659
H49_9 H 0.6261 0.4256 0.4826
H50_9 H 0.6303 0.4032 0.5112
H51_9 H 0.6079 0.4072 0.4822
H52_9 H 0.6597 0.3651 0.3160
H53_9 H 0.6379 0.3530 0.3323
H54_9 H 0.6596 0.3497 0.3643
H55_9 H 0.1889 0.1069 0.3444
H56_9 H 0.1683 0.0913 0.3402
H57_9 H 0.1885 0.0879 0.3037
H58_9 H 0.2197 0.0293 0.4717
H59_9 H 0.2161 0.0177 0.4188
H60_9 H 0.1960 0.0212 0.4558
H61_9 H 0.2144 0.0056 0.2878
H62_9 H 0.2195 0.0140 0.3431
H63_9 H 0.2206 0.0305 0.2969
H64_9 H 0.1262 0.0458 0.3433
H65_9 H 0.1421 0.0661 0.3501
H66_9 H 0.1394 0.0489 0.3944
H67_9 H 0.2809 0.1669 0.5161
H68_9 H 0.2705 0.1901 0.5039
H69_9 H 0.2911 0.1818 0.4729
H70_9 H 0.2166 0.1441 0.3469
H71_9 H 0.2331 0.1596 0.3176
H72_9 H 0.2141 0.1699 0.3508
H76_9 H 0.7056 0.1753 0.0130
H79_9 H 0.6723 0.1663 0.0683
H80_9 H 0.6486 0.1748 0.0529
H81_9 H 0.6544 0.1707 0.1105
H82_9 H 0.6193 0.0811 0.0607
H83_9 H 0.6071 0.0939 0.1046
H84_9 H 0.6012 0.0988 0.0475
H85_9 H 0.6466 0.0397 0.0066
H109_9 H 0.4137 0.1916 0.1455
H110_9 H 0.4356 0.1966 0.1755
H111_9 H 0.4330 0.1741 0.1460
H114_9 H 0.4863 0.2314 0.0271
H122_9 H 0.3202 0.2856 0.0423
H123_9 H 0.3102 0.2652 0.0133
H124_9 H 0.3687 0.2138 0.1521
H125_9 H 0.3433 0.2096 0.1608
H126_9 H 0.3550 0.2298 0.1872
H127_9 H 0.6119 0.2025 0.2920
H128_9 H 0.6076 0.2048 0.3508
H129_9 H 0.6136 0.2258 0.3184
H130_9 H 0.5159 0.2319 0.2934
H131_9 H 0.5273 0.2520 0.3208
H132_9 H 0.5207 0.2309 0.3522
H133_9 H 0.4872 0.2193 0.2208
H134_9 H 0.4637 0.2111 0.2036
H135_9 H 0.4748 0.2314 0.1763
H136_9 H 0.5127 0.1623 0.0415
H137_9 H 0.4963 0.1786 0.0144
H138_9 H 0.4872 0.1578 0.0437
H139_9 H 0.5651 0.1488 0.0286
H140_9 H 0.5805 0.1279 0.0282
H141_9 H 0.5889 0.1502 0.0045
H142_9 H 0.6217 0.1703 0.2114
H143_9 H 0.6400 0.1681 0.1693
H144_9 H 0.6313 0.1470 0.1978
H145_9 H 0.6432 0.3474 0.5577
H146_9 H 0.6582 0.3571 0.5141
H147_9 H 0.6405 0.3722 0.5409
H148_9 H 0.5837 0.3383 0.3727
H149_9 H 0.5877 0.3640 0.3737
H150_9 H 0.6052 0.3482 0.3485
H151_9 H 0.5650 0.2942 0.3566
H152_9 H 0.5739 0.2778 0.3151
H153_9 H 0.5491 0.2765 0.3325
H154_9 H 0.5874 0.2145 0.4839
H155_9 H 0.5695 0.2045 0.4471
H156_9 H 0.5943 0.2065 0.4291
H157_9 H 0.6193 0.2215 0.5785
H158_9 H 0.6452 0.2203 0.5819
H159_9 H 0.6308 0.2184 0.6316
H160_9 H 0.6423 0.3160 0.6312
H161_9 H 0.6507 0.3033 0.6797
H162_9 H 0.6659 0.3050 0.6312
H163_9 H 0.2884 0.2053 0.1717
H164_9 H 0.2960 0.2083 0.1149
H165_9 H 0.3138 0.2056 0.1582
H166_9 H 0.3051 0.3037 0.1651
H167_9 H 0.3289 0.2948 0.1529
H168_9 H 0.3115 0.2973 0.1090
H169_9 H 0.2913 0.3324 0.2516
H170_9 H 0.2816 0.3533 0.2789
H171_9 H 0.3040 0.3431 0.2975
H172_9 H 0.2445 0.2913 0.4334
H173_9 H 0.2624 0.3062 0.4601
H174_9 H 0.2398 0.3165 0.4428
H175_9 H 0.2448 0.2408 0.4439
H176_9 H 0.2300 0.2195 0.4495
H177_9 H 0.2540 0.2199 0.4725
H178_9 H 0.2749 0.1868 0.2638
H179_9 H 0.2837 0.1722 0.3089
H180_9 H 0.2592 0.1695 0.2898
Ag31 Ag 0.70850(2) 0.225362(17) 0.76707(4)
Ag32_4 Ag 0.465230(17) 0.48694(2) 0.00636(4)
Ag33_6 Ag 0.736160(18) 0.247890(19) 0.67098(4)
Ag37_6 Ag 0.785150(16) 0.434820(16) 0.06096(4)
Ag38_6 Ag 0.805050(17) 0.401580(16) 0.15085(4)
Ag40_6 Ag 0.127770(16) 0.012870(15) 0.26162(4)
N64 N 0.33924(16) 0.39609(16) 0.5492(4)
N66_6 N 0.25519(17) 0.41985(17) 0.5599(4)
N67_4 N 0.67371(17) 0.48545(18) 0.3667(4)
N68_4 N 0.66140(18) 0.47663(18) 0.4041(4)
N69_4 N 0.26284(16) 0.07587(15) 0.5417(4)
N70_4 N 0.27187(17) 0.09556(16) 0.5538(4)
Ag2_6 Ag 0.76306(2) 0.215230(17) 0.75636(4)
Ag3_4 Ag 0.497890(19) 0.513840(18) 0.92098(4)
Ag6_6 Ag 0.301920(14) 0.419600(16) 0.58965(4)
Ag13_9 Ag 0.709220(14) 0.095130(16) 0.93872(4)
Ag16_9 Ag 0.443460(16) 0.403260(15) 0.71881(4)
Ag17_9 Ag 0.424890(17) 0.352350(16) 0.72177(4)
Ag18_9 Ag 0.460610(17) 0.366910(16) 0.81039(4)
Ag20_9 Ag 0.425490(16) 0.238140(16) 0.97503(4)
Ag21_9 Ag 0.375350(16) 0.259390(16) 0.97973(4)
N1_9 N 0.7241(2) 0.20562(19) 0.8189(4)
N2_9 N 0.7455(2) 0.2002(2) 0.8120(4)
N3_4 N 0.4775(2) 0.47090(17) 0.9448(4)
N4_9 N 0.48982(18) 0.48183(16) 0.9098(4)
N10_9 N 0.33396(15) 0.41032(16) 0.5858(4)
N25_9 N 0.72084(16) 0.12632(17) 0.9324(4)
N26_9 N 0.71409(16) 0.14090(18) 0.9673(4)
N29_9 N 0.67803(14) 0.05933(16) 0.9689(4)
N30_9 N 0.69559(15) 0.06501(16) 0.9389(4)
N31_9 N 0.41934(16) 0.39448(16) 0.6683(4)
N32_9 N 0.41301(17) 0.37329(18) 0.6681(4)
N33_9 N 0.42962(17) 0.33188(17) 0.7826(4)
N34_9 N 0.44490(18) 0.3375(2) 0.8171(4)
N35_9 N 0.47175(17) 0.39876(17) 0.8113(4)
N36_9 N 0.46292(17) 0.41360(16) 0.7776(4)
N39_9 N 0.41675(17) 0.26119(16) 0.9227(4)
N40_9 N 0.39651(17) 0.27092(18) 0.9251(5)
C1_9 C 0.6920(2) 0.1946(3) 0.8656(6)
C2_9 C 0.7158(2) 0.1925(2) 0.8527(5)
C3_9 C 0.7306(2) 0.1775(2) 0.8680(5)
C4_9 C 0.7502(2) 0.1830(2) 0.8433(5)
C5_9 C 0.7714(2) 0.1733(2) 0.8449(6)
C6_9 C 0.4597(2) 0.4363(3) 0.9553(6)
C7_9 C 0.4727(2) 0.4514(2) 0.9256(5)
C8_9 C 0.4813(2) 0.4494(2) 0.8776(5)
C9_9 C 0.4917(2) 0.4691(2) 0.8696(5)
C10_9 C 0.5050(2) 0.4767(3) 0.8250(5)
C21_9 C 0.3695(2) 0.3719(3) 0.5242(6)
C22_9 C 0.35952(19) 0.3881(2) 0.5582(5)
C23_9 C 0.36740(18) 0.39719(17) 0.6020(5)
C24_9 C 0.3508(2) 0.4114(2) 0.6181(5)
C25_9 C 0.3492(2) 0.4258(2) 0.6627(5)
C28_9 C 0.67829(19) 0.01470(18) 0.8773(5)
C29_9 C 0.67230(19) 0.01552(18) 0.8283(5)
C30_9 C 0.6680(2) 0.0344(3) 0.7954(5)
C61_9 C 0.7373(2) 0.1252(3) 0.8471(5)
C62_9 C 0.72910(19) 0.1370(2) 0.8923(5)
C63_9 C 0.7276(2) 0.15930(19) 0.9032(5)
C64_9 C 0.7181(2) 0.1610(2) 0.9506(4)
C65_9 C 0.71210(19) 0.1802(2) 0.9815(5)
C71_9 C 0.6512(2) 0.0303(2) 0.9789(6)
C72_9 C 0.66980(18) 0.0405(2) 0.9525(5)
C73_9 C 0.68224(19) 0.03362(19) 0.9103(5)
C74_9 C 0.6976(2) 0.0493(2) 0.9046(5)
C75_9 C 0.7150(2) 0.0512(2) 0.8654(6)
C76_9 C 0.40630(19) 0.4302(2) 0.6363(5)
C77_9 C 0.4039(2) 0.40640(17) 0.6432(4)
C78_9 C 0.3872(2) 0.39240(19) 0.6284(5)
C79_9 C 0.3939(2) 0.3719(2) 0.6440(5)
C80_9 C 0.3823(2) 0.3505(2) 0.6406(6)
C81_9 C 0.4002(2) 0.3062(2) 0.7682(6)
C82_9 C 0.41849(19) 0.31565(19) 0.8004(6)
C83_9 C 0.4258(2) 0.3096(2) 0.8468(5)
C84_9 C 0.4427(2) 0.3243(2) 0.8568(5)
C85_9 C 0.4566(3) 0.3259(3) 0.9019(5)
C86_9 C 0.4904(2) 0.3979(2) 0.8930(5)
C87_9 C 0.4799(2) 0.40970(19) 0.8503(4)
C88_9 C 0.4768(2) 0.4315(2) 0.8417(5)
C89_9 C 0.4663(2) 0.4328(2) 0.7962(5)
C90_9 C 0.4588(2) 0.4522(2) 0.7669(5)
C96_9 C 0.4519(2) 0.2672(3) 0.8850(7)
C97_9 C 0.4289(2) 0.2739(2) 0.8945(5)
C98_9 C 0.4180(2) 0.29144(19) 0.8776(5)
C99_9 C 0.3970(2) 0.2890(2) 0.8985(5)
C100_9 C 0.3780(2) 0.3037(3) 0.8952(6)
H1_9 H 0.6858 0.2071 0.8478
H2_9 H 0.6843 0.1814 0.8556
H3_9 H 0.6904 0.1967 0.9017
H4_9 H 0.7811 0.1811 0.8221
H5_9 H 0.7772 0.1742 0.8790
H6_9 H 0.7704 0.1581 0.8346
H7_9 H 0.4565 0.4428 0.9879
H8_9 H 0.4460 0.4332 0.9377
H9_9 H 0.4677 0.4227 0.9602
H10_9 H 0.5103 0.4915 0.8313
H11_9 H 0.5174 0.4670 0.8202
H12_9 H 0.4960 0.4767 0.7950
H25_9 H 0.3595 0.3688 0.4965
H26_9 H 0.3831 0.3777 0.5108
H27_9 H 0.3724 0.3585 0.5426
H28_9 H 0.3353 0.4336 0.6622
H29_9 H 0.3502 0.4171 0.6932
H30_9 H 0.3612 0.4364 0.6622
H34_9 H 0.6640 0.0293 0.7620
H35_9 H 0.6560 0.0430 0.8093
H36_9 H 0.6811 0.0434 0.7933
H73_9 H 0.7363 0.1095 0.8527
H74_9 H 0.7285 0.1291 0.8180
H75_9 H 0.7525 0.1292 0.8409
H77_9 H 0.7251 0.1888 0.9886
H78_9 H 0.7016 0.1892 0.9632
H86_9 H 0.6391 0.0283 0.9556
H87_9 H 0.6556 0.0162 0.9922
H88_9 H 0.7235 0.0644 0.8714
H89_9 H 0.7245 0.0385 0.8670
H90_9 H 0.7083 0.0520 0.8323
H91_9 H 0.4200 0.4350 0.6513
H92_9 H 0.4064 0.4336 0.6005
H93_9 H 0.3942 0.4377 0.6525
H94_9 H 0.3914 0.3391 0.6555
H95_9 H 0.3685 0.3513 0.6586
H96_9 H 0.3796 0.3470 0.6054
H97_9 H 0.3993 0.3143 0.7368
H98_9 H 0.4033 0.2909 0.7610
H99_9 H 0.3864 0.3073 0.7862
H100_9 H 0.4671 0.3377 0.8975
H101_9 H 0.4475 0.3289 0.9312
H102_9 H 0.4644 0.3121 0.9069
H103_9 H 0.4899 0.3823 0.8869
H104_9 H 0.5056 0.4026 0.8961
H105_9 H 0.4827 0.4013 0.9241
H106_9 H 0.4521 0.4474 0.7356
H107_9 H 0.4481 0.4604 0.7866
H108_9 H 0.4713 0.4615 0.7595
H112_9 H 0.4708 0.2296 0.9793
H113_9 H 0.4853 0.2093 0.9958
H115_9 H 0.4548 0.2534 0.9021
H116_9 H 0.4617 0.2784 0.8979
H117_9 H 0.4542 0.2655 0.8490
H118_9 H 0.3658 0.2974 0.9136
H119_9 H 0.3740 0.3056 0.8600
H120_9 H 0.3818 0.3178 0.9097
H121_9 H 0.3321 0.2763 0.9937
N61_6 N 0.77910(17) 0.2275(2) 0.6948(4)
N62_4 N 0.50264(18) 0.5467(2) 0.9266(5)
N65_6 N 0.26892(16) 0.42391(15) 0.5996(4)
Ag39_6 Ag 0.178120(15) 0.988770(15) 0.23984(4)
N11_4 N 0.67391(15) 0.98108(16) 0.8496(4)
N12_4 N 0.66985(17) 0.99481(17) 0.8099(4)
C26_9 C 0.6844(2) 0.9823(3) 0.9387(5)
C27_9 C 0.67940(18) 0.9926(2) 0.8902(5)
H31_9 H 0.6840 0.9665 0.9351
H32_9 H 0.6988 0.9868 0.9498
H33_9 H 0.6735 0.9868 0.9635
Ag34_4 Ag 0.650850(15) 0.984880(15) 0.75159(4)
Ag36_4 Ag 0.669600(16) 0.948080(14) 0.83965(4)
Ag28_10 Ag 0.017560(15) 0.022740(14) 0.00238(4)
N6_2 N 0.00902(19) 0.4415(2) 0.4613(4)
N23_10 N 0.10357(17) 0.00545(17) 0.2101(4)
N43_10 N 0.0426(2) 0.32180(19) 0.0186(5)
N44_10 N 0.03610(18) 0.30093(17) 0.0191(4)
N59_10 N 0.01995(16) 0.00828(15) 0.1089(4)
N60_10 N 0.03206(16) 0.01473(16) 0.0695(4)
C14_10 C 0.0073(2) 0.4207(2) 0.4489(5)
C15_10 C 0.0186(2) 0.4035(3) 0.4805(6)
C56_10 C 0.0727(3) 0.0276(3) 0.2395(7)
C57_10 C 0.0830(2) 0.0129(2) 0.2023(5)
C58_10 C 0.0754(2) 0.0033(2) 0.1579(5)
C106_10 C 0.0381(3) 0.3559(2) 0.0682(6)
C107_10 C 0.0342(2) 0.33200(19) 0.0582(5)
C108_10 C 0.0215(2) 0.3173(2) 0.0867(5)
C109_10 C 0.0236(2) 0.2977(2) 0.0596(5)
C110_10 C 0.0139(2) 0.2761(2) 0.0699(5)
C128_10 C 0.0084(2) 0.3213(2) 0.1312(5)
C129_10 C 0.0146(2) 0.3282(2) 0.1788(6)
C130_10 C 0.0367(3) 0.3327(2) 0.1989(6)
C131_10 C 0.0247(3) 0.3819(2) 0.3488(7)
C132_10 C 0.0006(2) 0.3829(2) 0.3553(5)
C147_10 C 0.0336(2) 0.00370(19) 0.1470(5)
C148_10 C 0.0550(2) 0.0071(2) 0.1310(5)
C149_10 C 0.05300(19) 0.01375(18) 0.0826(5)
C150_10 C 0.0701(3) 0.0211(2) 0.0455(6)
H16_10 H 0.0266 0.4106 0.5077
H17_10 H 0.0078 0.3936 0.4945
H18_10 H 0.0288 0.3953 0.4595
H67_10 H 0.0831 0.0309 0.2661
H68_10 H 0.0599 0.0205 0.2539
H69_10 H 0.0682 0.0411 0.2229
H127_10 H 0.0475 0.3619 0.0420
H128_10 H 0.0452 0.3576 0.1008
H129_10 H 0.0242 0.3636 0.0684
H130_10 H 0.0181 0.2659 0.0434
H132_10 H 0.0191 0.2707 0.1022
H154_10 H 0.0355 0.3374 0.2339
H155_10 H 0.0455 0.3195 0.1971
H156_10 H 0.0435 0.3443 0.1791
H157_10 H 0.0285 0.3693 0.3285
H158_10 H 0.0297 0.3952 0.3319
H159_10 H 0.0316 0.3808 0.3816
H177_10 H 0.0301 0.0040 0.2225
H178_10 H 0.0632 0.0249 0.0138
H179_10 H 0.0778 0.0337 0.0589
H180_10 H 0.0805 0.0092 0.0398
Ag31_2 Ag 0.024638(17) 0.45850(2) 0.51707(4)
Ag33_7 Ag 0.002110(19) 0.486160(18) 0.42098(4)
Ag2_7 Ag 0.034770(17) 0.51306(2) 0.50636(4)
Ag13_10 Ag 0.154870(16) 0.459220(14) 0.68872(4)
Ag14_10 Ag 0.118760(15) 0.440200(15) 0.76666(4)
Ag15_10 Ag 0.167610(15) 0.415090(14) 0.76653(4)
Ag19_10 Ag 0.027520(15) 0.144280(15) 0.82006(4)
Ag20_10 Ag 0.011860(16) 0.175490(16) 0.72503(4)
Ag22_10 Ag 0.062560(18) 0.331150(17) 0.96019(4)
Ag23_10 Ag 0.047050(18) 0.279740(17) 0.96634(4)
Ag24_10 Ag 0.078190(18) 0.295410(17) 0.86489(5)
N1_10 N 0.04438(19) 0.4741(2) 0.5689(4)
N2_10 N 0.0498(2) 0.4955(2) 0.5620(4)
N25_10 N 0.12368(17) 0.47084(16) 0.6824(4)
N26_10 N 0.10910(18) 0.46409(16) 0.7173(4)
N27_10 N 0.12318(16) 0.41234(16) 0.8069(4)
N28_10 N 0.14246(16) 0.40071(17) 0.8057(4)
N29_10 N 0.19067(16) 0.42803(14) 0.7189(4)
N30_10 N 0.18499(16) 0.44559(15) 0.6889(4)
N37_10 N 0.03904(17) 0.17576(17) 0.8183(4)
N38_10 N 0.03060(19) 0.18858(17) 0.7804(5)
N42_10 N 0.01371(16) 0.11423(15) 0.8252(4)
N45_10 N 0.05527(18) 0.25797(16) 0.9118(4)
N46_10 N 0.0678(2) 0.26362(18) 0.8714(5)
N47_10 N 0.08681(17) 0.32770(15) 0.8612(4)
N48_10 N 0.08197(18) 0.34047(19) 0.9010(5)
N55_10 N 0.00459(15) 0.03603(15) 0.9389(4)
C1_10 C 0.0554(3) 0.4420(2) 0.6156(6)
C2_10 C 0.0575(2) 0.4658(2) 0.6027(5)
C3_10 C 0.0725(2) 0.4806(2) 0.6180(5)
C4_10 C 0.0670(2) 0.5002(2) 0.5933(5)
C5_10 C 0.0767(2) 0.5214(2) 0.5949(6)
C26_10 C 0.2677(3) 0.4344(2) 0.6887(5)
C27_10 C 0.2574(2) 0.42940(18) 0.6402(5)
C28_10 C 0.23530(18) 0.42829(19) 0.6273(5)
C29_10 C 0.23448(18) 0.42230(19) 0.5783(5)
C30_10 C 0.2156(3) 0.4180(2) 0.5454(5)
C61_10 C 0.1248(3) 0.4873(2) 0.5971(5)
C62_10 C 0.1130(2) 0.47910(19) 0.6423(5)
C63_10 C 0.09070(19) 0.4776(2) 0.6532(5)
C64_10 C 0.0890(2) 0.4681(2) 0.7006(4)
C65_10 C 0.0698(2) 0.46210(19) 0.7315(5)
C66_10 C 0.0844(3) 0.4067(2) 0.8262(7)
C67_10 C 0.1079(2) 0.3989(2) 0.8216(5)
C68_10 C 0.11560(18) 0.3783(2) 0.8309(5)
C69_10 C 0.13791(17) 0.37988(18) 0.8193(5)
C70_10 C 0.1550(2) 0.3629(2) 0.8206(6)
C71_10 C 0.2197(2) 0.4012(2) 0.7289(6)
C72_10 C 0.2095(2) 0.41980(18) 0.7025(5)
C73_10 C 0.21638(19) 0.43224(19) 0.6603(5)
C74_10 C 0.2007(2) 0.4476(2) 0.6546(5)
C75_10 C 0.1988(2) 0.4650(2) 0.6154(6)
C91_10 C 0.0603(2) 0.1795(2) 0.8957(5)
C92_10 C 0.0504(2) 0.1888(2) 0.8509(5)
C93_10 C 0.0485(2) 0.21020(18) 0.8349(5)
C94_10 C 0.0363(2) 0.20870(18) 0.7907(5)
C95_10 C 0.0283(3) 0.2269(3) 0.7579(6)
C103_10 C 0.00177(18) 0.08146(18) 0.8510(4)
C104_10 C 0.01519(18) 0.0993(2) 0.8622(4)
C105_10 C 0.0293(2) 0.1045(2) 0.9070(5)
C111_10 C 0.0327(3) 0.2275(2) 0.9422(6)
C112_10 C 0.0479(2) 0.2379(2) 0.9047(5)
C113_10 C 0.0554(2) 0.2300(2) 0.8594(5)
C114_10 C 0.0678(2) 0.2468(2) 0.8401(5)
C115_10 C 0.0809(3) 0.2484(2) 0.7935(7)
C116_10 C 0.1063(3) 0.3301(2) 0.7813(6)
C117_10 C 0.0999(2) 0.3391(2) 0.8301(6)
C118_10 C 0.1035(2) 0.3595(2) 0.8499(5)
C119_10 C 0.0917(2) 0.35974(19) 0.8948(5)
C120_10 C 0.0888(3) 0.3773(2) 0.9343(6)
C136_10 C 0.0383(2) 0.04950(18) 0.8998(5)
C137_10 C 0.01430(19) 0.0499(2) 0.9069(5)
H1_10 H 0.0429 0.4358 0.5978
H2_10 H 0.0686 0.4343 0.6056
H3_10 H 0.0533 0.4404 0.6517
H4_10 H 0.0689 0.5311 0.5721
H5_10 H 0.0758 0.5272 0.6290
H6_10 H 0.0919 0.5204 0.5846
H31_10 H 0.2835 0.4340 0.6851
H32_10 H 0.2632 0.4488 0.6998
H33_10 H 0.2632 0.4235 0.7135
H34_10 H 0.2207 0.4140 0.5120
H35_10 H 0.2070 0.4060 0.5593
H36_10 H 0.2066 0.4311 0.5433
H73_10 H 0.1405 0.4863 0.6027
H74_10 H 0.1209 0.4785 0.5680
H75_10 H 0.1208 0.5025 0.5909
H76_10 H 0.0747 0.4556 0.7630
H77_10 H 0.0612 0.4751 0.7386
H78_10 H 0.0608 0.4516 0.7132
H79_10 H 0.0837 0.4223 0.8183
H80_10 H 0.0752 0.3986 0.8029
H81_10 H 0.0793 0.4044 0.8605
H82_10 H 0.1689 0.3693 0.8107
H83_10 H 0.1561 0.3571 0.8546
H84_10 H 0.1512 0.3512 0.7975
H85_10 H 0.2103 0.3966 0.7566
H86_10 H 0.2217 0.3891 0.7056
H87_10 H 0.2338 0.4056 0.7422
H88_10 H 0.1856 0.4735 0.6214
H89_10 H 0.2115 0.4745 0.6170
H90_10 H 0.1980 0.4583 0.5823
H109_10 H 0.0584 0.1637 0.8955
H110_10 H 0.0534 0.1856 0.9255
H111_10 H 0.0759 0.1830 0.8960
H112_10 H 0.0204 0.2208 0.7293
H113_10 H 0.0407 0.2353 0.7458
H114_10 H 0.0186 0.2363 0.7771
H124_10 H 0.0362 0.1187 0.9021
H125_10 H 0.0404 0.0933 0.9108
H126_10 H 0.0202 0.1050 0.9372
H133_10 H 0.0307 0.2372 0.9708
H134_10 H 0.0389 0.2137 0.9536
H135_10 H 0.0186 0.2248 0.9263
H136_10 H 0.0877 0.2627 0.7915
H137_10 H 0.0714 0.2463 0.7644
H138_10 H 0.0922 0.2372 0.7937
H139_10 H 0.1012 0.3151 0.7786
H140_10 H 0.1221 0.3305 0.7782
H141_10 H 0.0998 0.3389 0.7545
H142_10 H 0.0797 0.3717 0.9614
H143_10 H 0.0819 0.3900 0.9193
H144_10 H 0.1030 0.3813 0.9478
H163_10 H 0.0447 0.0384 0.9217
H164_10 H 0.0417 0.0460 0.8649
H165_10 H 0.0444 0.0638 0.9082
N61_7 N 0.0225(2) 0.52910(17) 0.4448(4)
Ag10_10 Ag 0.137370(15) 0.974480(14) 0.16925(4)
N19_10 N 0.16585(15) 0.95792(15) 0.1594(4)
N20_10 N 0.18338(15) 0.96485(15) 0.1874(4)
N21_7 N 0.23716(16) 0.92413(15) 0.0417(4)
N22_7 N 0.22813(17) 0.90444(16) 0.0538(4)
N24_10 N 0.10885(17) 0.99120(15) 0.1743(4)
C46_10 C 0.1579(2) 0.9341(2) 0.0875(5)
C47_10 C 0.17324(18) 0.94424(18) 0.1250(5)
C48_10 C 0.1955(2) 0.9419(2) 0.1299(4)
C49_10 C 0.20130(19) 0.9552(2) 0.1706(4)
C50_10 C 0.2225(2) 0.95960(19) 0.1937(5)
C51_10 C 0.2321(3) 0.9630(2) 0.0609(6)
C52_10 C 0.2268(2) 0.93980(18) 0.0681(5)
C53_10 C 0.2105(2) 0.9302(2) 0.0972(5)
C54_10 C 0.21195(17) 0.9078(2) 0.0876(5)
C55_10 C 0.1992(2) 0.8899(2) 0.1080(6)
C59_10 C 0.0920(2) 0.9894(2) 0.1431(5)
C60_10 C 0.0921(2) 0.9745(2) 0.0981(5)
C146_10 C 0.0251(2) 0.9949(2) 0.1948(5)
H55_10 H 0.1431 0.9389 0.0944
H56_10 H 0.1587 0.9183 0.0902
H57_10 H 0.1621 0.9385 0.0537
H58_10 H 0.2207 0.9697 0.2217
H59_10 H 0.2323 0.9661 0.1688
H60_10 H 0.2288 0.9460 0.2058
H61_10 H 0.2444 0.9644 0.0378
H62_10 H 0.2360 0.9695 0.0931
H63_10 H 0.2195 0.9706 0.0469
H64_10 H 0.2042 0.8762 0.0933
H65_10 H 0.1839 0.8921 0.1001
H66_10 H 0.2011 0.8894 0.1444
H70_10 H 0.1059 0.9666 0.0969
H71_10 H 0.0904 0.9831 0.0676
H72_10 H 0.0801 0.9641 0.1008
H175_10 H 0.0092 0.9948 0.1939
H176_10 H 0.0305 0.9800 0.1995
Ag40_7 Ag 0.237130(15) 0.877770(16) 0.01162(4)
Ag39_7 Ag 0.261230(15) 0.928120(15) 0.98984(4)
Ag4_7 Ag 0.849150(15) 0.015120(15) 0.25159(4)
Ag5_2 Ag 0.863640(15) 0.067660(15) 0.24430(4)
Ag7_10 Ag 0.839100(17) 0.422170(17) 0.06315(4)
Ag25_10 Ag 0.94104(2) 0.365130(17) 0.29987(5)
Ag26_10 Ag 0.948200(19) 0.335920(17) 0.19712(5)
Ag27_10 Ag 0.992750(18) 0.347280(17) 0.27413(4)
Ag30_10 Ag 0.986520(16) 0.006630(14) 0.10064(4)
N5_7 N 0.99736(18) 0.4533(2) 0.4266(5)
N7_10 N 0.87250(16) 0.02412(15) 0.2005(4)
N8_10 N 0.87706(14) 0.04565(14) 0.1953(4)
N13_10 N 0.82759(18) 0.44375(19) 0.0103(4)
N14_10 N 0.80583(17) 0.44823(18) 0.0098(4)
N17_10 N 0.83730(18) 0.39413(17) 0.1537(4)
N18_10 N 0.8507(2) 0.40170(19) 0.1171(5)
N49_10 N 0.91676(19) 0.36433(18) 0.2473(5)
N50_10 N 0.9184(2) 0.35090(18) 0.2072(5)
N51_10 N 0.97875(18) 0.32617(17) 0.1787(4)
N52_10 N 0.99692(18) 0.33092(18) 0.2059(5)
N53_10 N 0.98808(19) 0.36875(17) 0.3330(4)
N54_10 N 0.9670(2) 0.37350(17) 0.3448(5)
N57_10 N 0.94429(16) 0.02048(15) 0.0570(4)
N58_10 N 0.95300(17) 0.01043(17) 0.0973(4)
C11_10 C 0.9757(3) 0.4473(3) 0.3512(6)
C12_10 C 0.9883(3) 0.4388(3) 0.3937(5)
C13_10 C 0.9940(2) 0.4182(2) 0.4067(5)
C17_10 C 0.88657(19) 0.01263(18) 0.1720(4)
C18_10 C 0.90100(18) 0.02691(18) 0.1485(4)
C19_10 C 0.89438(19) 0.0473(2) 0.1652(5)
C20_10 C 0.9041(2) 0.0695(2) 0.1539(5)
C41_10 C 0.8400(2) 0.3735(2) 0.2318(5)
C42_10 C 0.8492(2) 0.38310(19) 0.1861(4)
C43_10 C 0.8715(2) 0.3831(2) 0.1711(5)
C44_10 C 0.8710(3) 0.3951(2) 0.1264(5)
C45_10 C 0.8899(3) 0.4011(3) 0.0945(7)
C121_10 C 0.8926(3) 0.3937(3) 0.2793(6)
C122_10 C 0.8993(3) 0.3769(2) 0.2407(5)
C123_10 C 0.8900(2) 0.37230(19) 0.1960(5)
C124_10 C 0.9024(3) 0.3561(2) 0.1747(6)
C125_10 C 0.9003(3) 0.3447(3) 0.1257(7)
C126_10 C 0.9706(3) 0.3140(2) 0.0935(7)
C127_10 C 0.9859(2) 0.3199(2) 0.1323(6)
C133_10 C 0.9881(2) 0.3982(2) 0.3806(5)
C134_10 C 0.9669(3) 0.3913(2) 0.3735(6)
C135_10 C 0.9464(3) 0.4009(2) 0.3931(6)
C141_10 C 0.9102(2) 0.0397(2) 0.0337(5)
C142_10 C 0.9245(2) 0.02760(19) 0.0693(4)
C143_10 C 0.92026(17) 0.02134(16) 0.1195(5)
C144_10 C 0.9389(2) 0.0107(2) 0.1343(5)
C145_10 C 0.9442(3) 0.0010(2) 0.1846(6)
H13_10 H 0.9750 0.4632 0.3534
H14_10 H 0.9828 0.4432 0.3199
H15_10 H 0.9610 0.4413 0.3521
H22_10 H 0.8956 0.0807 0.1707
H23_10 H 0.9191 0.0699 0.1661
H24_10 H 0.9039 0.0720 0.1178
H48_10 H 0.8398 0.5137 0.0159
H49_10 H 0.8244 0.3761 0.2326
H50_10 H 0.8468 0.3803 0.2612
H51_10 H 0.8428 0.3579 0.2322
H52_10 H 0.8849 0.4097 0.0660
H53_10 H 0.8970 0.3879 0.0823
H54_10 H 0.9003 0.4096 0.1143
H131_10 H 0.9980 0.2773 0.0708
H145_10 H 0.9026 0.3932 0.3077
H146_10 H 0.8929 0.4082 0.2641
H147_10 H 0.8778 0.3905 0.2909
H148_10 H 0.9117 0.3337 0.1227
H149_10 H 0.8860 0.3377 0.1237
H150_10 H 0.9018 0.3552 0.0985
H151_10 H 0.9558 0.3150 0.1066
H152_10 H 0.9722 0.3239 0.0651
H153_10 H 0.9735 0.2991 0.0825
H160_10 H 0.9340 0.3923 0.3812
H161_10 H 0.9467 0.4007 0.4297
H162_10 H 0.9450 0.4159 0.3812
H169_10 H 0.9176 0.0413 0.0016
H170_10 H 0.8967 0.0316 0.0289
H171_10 H 0.9069 0.0540 0.0475
H173_10 H 0.9438 0.0124 0.2101
N64_2 N 0.85391(16) 0.08924(16) 0.2992(4)
N66_7 N 0.83015(17) 0.00519(17) 0.3099(4)
Ag6_7 Ag 0.830400(16) 0.051920(14) 0.33965(4)
Ag16_10 Ag 0.846740(15) 0.193460(16) 0.46881(4)
Ag17_10 Ag 0.897650(16) 0.174890(17) 0.47177(4)
Ag18_10 Ag 0.883090(16) 0.210610(17) 0.56039(4)
Ag21_10 Ag 0.990610(16) 0.125350(16) 0.72973(4)
Ag29_10 Ag 0.963140(15) 0.028020(14) 0.99496(3)
N4_10 N 0.76817(16) 0.23982(18) 0.6598(4)
N10_10 N 0.83968(16) 0.08396(15) 0.3358(4)
N15_7 N 0.82629(17) 0.51455(18) 0.8667(4)
N16_7 N 0.83860(18) 0.52337(18) 0.9041(4)
N31_10 N 0.85552(16) 0.16934(16) 0.4183(4)
N32_10 N 0.87671(18) 0.16301(17) 0.4181(4)
N33_10 N 0.91812(17) 0.17962(17) 0.5326(4)
N34_10 N 0.9125(2) 0.19490(18) 0.5671(4)
N35_10 N 0.85124(17) 0.22175(17) 0.5613(4)
N36_10 N 0.83640(16) 0.21292(17) 0.5276(4)
N39_10 N 0.98881(16) 0.16675(17) 0.6727(4)
N40_10 N 0.97908(18) 0.14651(17) 0.6751(5)
N41_10 N 0.99886(17) 0.10656(16) 0.7907(4)
N56_10 N 0.98244(16) 0.04014(15) 0.9372(4)
C6_10 C 0.8137(3) 0.2097(2) 0.7053(6)
C7_10 C 0.7986(2) 0.2227(2) 0.6756(5)
C8_10 C 0.8006(2) 0.2313(2) 0.6276(5)
C9_10 C 0.7809(2) 0.2417(2) 0.6196(5)
C10_10 C 0.7733(3) 0.2550(2) 0.5750(5)
C21_10 C 0.8781(3) 0.1195(2) 0.2742(6)
C22_10 C 0.8619(2) 0.10952(19) 0.3082(5)
C23_10 C 0.85281(17) 0.11740(18) 0.3520(5)
C24_10 C 0.8386(2) 0.1008(2) 0.3681(5)
C25_10 C 0.8242(2) 0.0992(2) 0.4127(5)
C31_10 C 0.8614(2) 0.4562(2) 0.9745(6)
C32_10 C 0.8376(2) 0.4576(2) 0.9810(5)
C33_10 C 0.8230(2) 0.4713(2) 0.9587(5)
C34_10 C 0.80310(18) 0.4652(2) 0.9780(5)
C35_10 C 0.7808(2) 0.4741(2) 0.9691(5)
C36_10 C 0.8055(2) 0.4817(2) 0.8467(6)
C37_10 C 0.8196(2) 0.49501(18) 0.8798(5)
C38_10 C 0.8274(2) 0.49056(17) 0.9275(5)
C39_10 C 0.8395(2) 0.5089(2) 0.9406(4)
C40_10 C 0.8506(3) 0.5134(3) 0.9888(5)
C76_10 C 0.8198(2) 0.15630(19) 0.3863(5)
C77_10 C 0.84360(17) 0.1539(2) 0.3932(4)
C78_10 C 0.85760(19) 0.1372(2) 0.3784(5)
C79_10 C 0.8781(2) 0.1439(2) 0.3940(5)
C80_10 C 0.8995(2) 0.1323(2) 0.3906(6)
C81_10 C 0.9438(2) 0.1502(2) 0.5182(6)
C82_10 C 0.93435(19) 0.16849(19) 0.5504(6)
C83_10 C 0.9404(2) 0.1758(2) 0.5968(5)
C84_10 C 0.9257(2) 0.1927(2) 0.6068(5)
C85_10 C 0.9241(3) 0.2066(3) 0.6519(5)
C86_10 C 0.8521(2) 0.2404(2) 0.6430(5)
C87_10 C 0.84030(19) 0.2299(2) 0.6003(4)
C88_10 C 0.8185(2) 0.2268(2) 0.5917(5)
C89_10 C 0.8172(2) 0.2163(2) 0.5462(5)
C90_10 C 0.7978(2) 0.2088(2) 0.5169(5)
C96_10 C 0.9828(3) 0.2019(2) 0.6350(7)
C97_10 C 0.9761(2) 0.1789(2) 0.6445(5)
C98_10 C 0.95856(19) 0.1680(2) 0.6276(5)
C99_10 C 0.9610(2) 0.1470(2) 0.6485(5)
C100_10 C 0.9463(3) 0.1280(2) 0.6452(6)
C101_10 C 0.9776(2) 0.0737(2) 0.7735(5)
C102_10 C 0.9926(2) 0.08677(19) 0.8059(4)
C138_10 C 0.99848(19) 0.06269(18) 0.8834(4)
C139_10 C 0.97920(19) 0.05584(17) 0.9037(4)
C140_10 C 0.9564(2) 0.06350(18) 0.8943(4)
H7_10 H 0.8072 0.2065 0.7379
H8_10 H 0.8168 0.1960 0.6877
H9_10 H 0.8273 0.2177 0.7102
H10_10 H 0.7585 0.2603 0.5813
H11_10 H 0.7830 0.2674 0.5702
H12_10 H 0.7733 0.2460 0.5450
H25_10 H 0.8812 0.1095 0.2465
H26_10 H 0.8723 0.1331 0.2608
H27_10 H 0.8915 0.1224 0.2926
H28_10 H 0.8164 0.0853 0.4122
H29_10 H 0.8329 0.1002 0.4432
H30_10 H 0.8136 0.1112 0.4122
H37_10 H 0.8672 0.4446 0.9957
H38_10 H 0.8680 0.4701 0.9840
H39_10 H 0.8647 0.4531 0.9394
H40_10 H 0.7702 0.4658 0.9885
H41_10 H 0.7773 0.4731 0.9334
H42_10 H 0.7803 0.4894 0.9794
H43_10 H 0.8028 0.4895 0.8155
H44_10 H 0.7917 0.4788 0.8636
H45_10 H 0.8128 0.4679 0.8393
H46_10 H 0.8579 0.5275 0.9870
H47_10 H 0.8613 0.5020 0.9954
H91_10 H 0.8150 0.1700 0.4013
H92_10 H 0.8164 0.1564 0.3505
H93_10 H 0.8123 0.1442 0.4025
H94_10 H 0.9109 0.1414 0.4055
H95_10 H 0.8987 0.1185 0.4086
H96_10 H 0.9030 0.1296 0.3554
H97_10 H 0.9357 0.1493 0.4868
H98_10 H 0.9591 0.1533 0.5110
H99_10 H 0.9427 0.1364 0.5362
H100_10 H 0.9123 0.2171 0.6475
H101_10 H 0.9211 0.1975 0.6812
H102_10 H 0.9379 0.2144 0.6569
H103_10 H 0.8677 0.2399 0.6369
H104_10 H 0.8474 0.2556 0.6461
H105_10 H 0.8487 0.2327 0.6741
H106_10 H 0.8026 0.2021 0.4856
H107_10 H 0.7896 0.1981 0.5366
H108_10 H 0.7885 0.2213 0.5095
H115_10 H 0.9966 0.2048 0.6521
H116_10 H 0.9716 0.2117 0.6479
H117_10 H 0.9845 0.2042 0.5990
H118_10 H 0.9526 0.1158 0.6636
H119_10 H 0.9444 0.1240 0.6100
H120_10 H 0.9322 0.1318 0.6597
H121_10 H 0.9737 0.0821 0.7437
H122_10 H 0.9644 0.0702 0.7923
H123_10 H 0.9848 0.0602 0.7633
H166_10 H 0.9463 0.0551 0.9151
H167_10 H 0.9552 0.0789 0.9029
H168_10 H 0.9527 0.0615 0.8590
Ag37_7 Ag 0.815180(16) 0.535150(16) 0.81096(4)
Ag38_7 Ag 0.848420(16) 0.555050(17) 0.90085(4)
N65_7 N 0.82609(15) 0.01892(16) 0.3496(4)
Ag39_8 Ag 0.321880(15) 0.011230(15) 0.73984(4)
Ag4_8 Ag 0.234880(15) 0.599150(15) 0.00159(4)
H67_11 H 0.2191 0.8331 0.0161
H68_11 H 0.2295 0.8099 0.0039
N64_3 N 0.16076(16) 0.60391(16) 0.0492(4)
N66_8 N 0.24481(17) 0.58015(17) 0.0599(4)
Ag5_3 Ag 0.182340(15) 0.613640(15) 0.99430(4)
Ag6_8 Ag 0.198080(14) 0.580400(16) 0.08965(4)
Ag10_11 Ag 0.275520(14) 0.887370(15) 0.91925(4)
Ag16_11 Ag 0.056540(16) 0.596740(15) 0.21881(4)
Ag17_11 Ag 0.075110(17) 0.647650(16) 0.22177(4)
Ag18_11 Ag 0.039390(17) 0.633090(16) 0.31039(4)
Ag19_11 Ag 0.105720(15) 0.777520(15) 0.57006(4)
Ag20_11 Ag 0.074510(16) 0.761860(16) 0.47503(4)
Ag21_11 Ag 0.124650(16) 0.740610(16) 0.47973(4)
Ag28_11 Ag 0.227260(14) 0.767560(15) 0.75238(4)
Ag29_11 Ag 0.221980(14) 0.713140(15) 0.74496(3)
Ag30_11 Ag 0.243370(14) 0.736520(16) 0.85064(4)
N4_11 N 0.01018(18) 0.51817(16) 0.4098(4)
N7_11 N 0.22588(15) 0.62250(16) 0.9505(4)
N8_11 N 0.20435(14) 0.62706(14) 0.9453(4)
N10_11 N 0.16604(15) 0.58968(16) 0.0858(4)
N19_11 N 0.29208(15) 0.91585(15) 0.9094(4)
N20_11 N 0.28515(15) 0.93338(15) 0.9374(4)
N21_8 N 0.32587(15) 0.98716(16) 0.7917(4)
N22_8 N 0.34556(16) 0.97813(17) 0.8038(4)
N23_11 N 0.24455(17) 0.85357(17) 0.9601(4)
N24_11 N 0.25880(15) 0.85885(17) 0.9243(4)
N31_11 N 0.08066(16) 0.60552(16) 0.1683(4)
N32_11 N 0.08699(17) 0.62671(18) 0.1681(4)
N33_11 N 0.07038(17) 0.66812(17) 0.2826(4)
N34_11 N 0.05510(18) 0.6625(2) 0.3171(4)
N35_11 N 0.02825(17) 0.60124(17) 0.3113(4)
N36_11 N 0.03708(17) 0.58640(16) 0.2776(4)
N37_11 N 0.07424(17) 0.78904(17) 0.5683(4)
N38_11 N 0.06142(17) 0.78060(19) 0.5304(5)
N39_11 N 0.08325(17) 0.73881(16) 0.4227(4)
N40_11 N 0.10349(17) 0.72908(18) 0.4251(5)
N41_11 N 0.14344(16) 0.74886(17) 0.5407(4)
N42_11 N 0.13577(15) 0.76371(16) 0.5752(4)
N55_11 N 0.21397(15) 0.75459(15) 0.6889(4)
N56_11 N 0.20986(15) 0.73244(16) 0.6872(4)
N57_11 N 0.22952(15) 0.69429(16) 0.8070(4)
N58_11 N 0.23957(17) 0.70300(17) 0.8473(4)
N59_11 N 0.24172(15) 0.76995(16) 0.8589(4)
N60_11 N 0.23527(16) 0.78206(16) 0.8195(4)
C6_11 C 0.0403(2) 0.5637(3) 0.4553(6)
C7_11 C 0.0273(2) 0.5486(2) 0.4256(5)
C8_11 C 0.0187(2) 0.5506(2) 0.3776(5)
C9_11 C 0.0083(2) 0.5309(2) 0.3696(5)
C16_10 C 0.26078(18) 0.6342(2) 0.9188(6)
C17_11 C 0.23737(18) 0.63657(19) 0.9220(4)
C18_11 C 0.22309(18) 0.65100(18) 0.8985(4)
C19_11 C 0.2027(2) 0.64438(19) 0.9152(5)
C20_11 C 0.1805(2) 0.6541(2) 0.9039(5)
C21_11 C 0.1305(2) 0.6281(3) 0.0242(6)
C22_11 C 0.14048(19) 0.6119(2) 0.0582(5)
C23_11 C 0.13260(18) 0.60281(17) 0.1020(5)
C24_11 C 0.1492(2) 0.5886(2) 0.1181(5)
C25_11 C 0.1508(2) 0.5742(2) 0.1627(5)
C46_11 C 0.3159(2) 0.9079(2) 0.8375(5)
C47_11 C 0.30576(18) 0.92324(18) 0.8750(5)
C48_11 C 0.3081(2) 0.9455(2) 0.8799(4)
C49_11 C 0.2948(2) 0.95130(19) 0.9206(4)
C50_11 C 0.29040(19) 0.9725(2) 0.9437(5)
C51_11 C 0.2870(2) 0.9821(3) 0.8109(6)
C52_11 C 0.31020(18) 0.9768(2) 0.8181(5)
C53_11 C 0.3198(2) 0.9605(2) 0.8472(5)
C54_11 C 0.3422(2) 0.96195(17) 0.8376(5)
C55_11 C 0.3601(2) 0.9492(2) 0.8580(6)
C56_11 C 0.2224(3) 0.8227(3) 0.9895(7)
C57_11 C 0.2371(2) 0.8330(2) 0.9523(5)
C58_11 C 0.2467(2) 0.8254(2) 0.9079(5)
C59_11 C 0.2606(2) 0.8420(2) 0.8931(5)
C60_11 C 0.2755(2) 0.8421(2) 0.8481(5)
C76_11 C 0.09370(19) 0.5698(2) 0.1363(5)
C77_11 C 0.0961(2) 0.59360(17) 0.1432(4)
C78_11 C 0.1128(2) 0.60760(19) 0.1284(5)
C79_11 C 0.1061(2) 0.6281(2) 0.1440(5)
C80_11 C 0.1177(2) 0.6495(2) 0.1406(6)
C81_11 C 0.0998(2) 0.6938(2) 0.2682(6)
C82_11 C 0.08151(19) 0.68435(19) 0.3004(6)
C83_11 C 0.0742(2) 0.6904(2) 0.3468(5)
C84_11 C 0.0573(2) 0.6757(2) 0.3568(5)
C85_11 C 0.0434(3) 0.6741(3) 0.4019(5)
C86_11 C 0.0096(2) 0.6021(2) 0.3930(5)
C87_11 C 0.0201(2) 0.59030(19) 0.3503(4)
C88_11 C 0.0232(2) 0.5685(2) 0.3417(5)
C89_11 C 0.0337(2) 0.5672(2) 0.2962(5)
C90_11 C 0.0412(2) 0.5478(2) 0.2669(5)
C91_11 C 0.0705(2) 0.8103(2) 0.6457(5)
C92_11 C 0.0612(2) 0.8004(2) 0.6009(5)
C93_11 C 0.03980(18) 0.7985(2) 0.5849(5)
C94_11 C 0.04130(18) 0.7863(2) 0.5407(5)
C95_11 C 0.0231(3) 0.7783(3) 0.5079(6)
C96_11 C 0.0481(2) 0.7328(3) 0.3850(7)
C97_11 C 0.0711(2) 0.7261(2) 0.3945(5)
C98_11 C 0.0820(2) 0.70856(19) 0.3776(5)
C99_11 C 0.1030(2) 0.7110(2) 0.3985(5)
C100_11 C 0.1220(2) 0.6963(3) 0.3952(6)
C101_11 C 0.1763(2) 0.7276(2) 0.5235(5)
C102_11 C 0.16323(19) 0.7426(2) 0.5559(4)
C103_11 C 0.16854(18) 0.75177(18) 0.6010(4)
C104_11 C 0.1507(2) 0.76519(18) 0.6122(4)
C105_11 C 0.1455(2) 0.7793(2) 0.6570(5)
C111_11 C 0.0225(2) 0.7827(3) 0.6922(6)
C112_11 C 0.0121(2) 0.7979(2) 0.6547(5)
C113_11 C 0.0200(2) 0.8054(2) 0.6094(5)
C114_11 C 0.0032(2) 0.8178(2) 0.5901(5)
C115_11 C 0.0016(2) 0.8309(3) 0.5435(7)
C136_11 C 0.20050(18) 0.7883(2) 0.6498(5)
C137_11 C 0.2001(2) 0.76430(19) 0.6569(5)
C138_11 C 0.18731(18) 0.74848(19) 0.6334(4)
C139_11 C 0.19416(17) 0.72920(19) 0.6537(4)
C140_11 C 0.18650(18) 0.7064(2) 0.6443(4)
C141_11 C 0.2103(2) 0.6602(2) 0.7837(5)
C142_11 C 0.22240(19) 0.6745(2) 0.8193(4)
C143_11 C 0.22866(16) 0.67026(17) 0.8695(5)
C144_11 C 0.2393(2) 0.6889(2) 0.8843(5)
C145_11 C 0.2490(2) 0.6942(3) 0.9346(6)
C146_11 C 0.2551(2) 0.7751(2) 0.9448(5)
C147_11 C 0.24630(19) 0.7836(2) 0.8970(5)
C148_11 C 0.2429(2) 0.8050(2) 0.8810(5)
C149_11 C 0.23625(18) 0.80300(19) 0.8326(5)
C150_11 C 0.2289(2) 0.8201(3) 0.7955(6)
H7_11 H 0.0435 0.5572 0.4879
H8_11 H 0.0540 0.5668 0.4377
H9_11 H 0.0323 0.5773 0.4602
H12_11 H 0.0040 0.5233 0.2950
H19_10 H 0.2655 0.6221 0.9401
H20_10 H 0.2649 0.6313 0.8841
H21_10 H 0.2678 0.6476 0.9300
H22_11 H 0.1693 0.6456 0.9207
H23_11 H 0.1801 0.6691 0.9161
H24_11 H 0.1780 0.6539 0.8678
H26_11 H 0.1169 0.6223 0.0108
H27_11 H 0.1276 0.6415 0.0426
H28_11 H 0.1647 0.5664 0.1622
H29_11 H 0.1498 0.5829 0.1932
H30_11 H 0.1388 0.5636 0.1622
H55_11 H 0.3111 0.8931 0.8444
H56_11 H 0.3317 0.9087 0.8402
H57_11 H 0.3115 0.9121 0.8037
H58_11 H 0.2803 0.9707 0.9717
H59_11 H 0.2839 0.9823 0.9188
H60_11 H 0.3040 0.9788 0.9558
H61_11 H 0.2856 0.9944 0.7878
H62_11 H 0.2805 0.9860 0.8431
H63_11 H 0.2794 0.9695 0.7969
H64_11 H 0.3738 0.9542 0.8433
H65_11 H 0.3579 0.9339 0.8501
H66_11 H 0.3606 0.9511 0.8944
H69_11 H 0.2089 0.8182 0.9729
H70_11 H 0.2834 0.8559 0.8469
H71_11 H 0.2669 0.8404 0.8176
H72_11 H 0.2859 0.8301 0.8508
H91_11 H 0.0800 0.5650 0.1513
H92_11 H 0.0936 0.5664 0.1005
H93_11 H 0.1058 0.5623 0.1525
H94_11 H 0.1086 0.6609 0.1555
H95_11 H 0.1315 0.6487 0.1586
H96_11 H 0.1204 0.6530 0.1054
H97_11 H 0.1007 0.6857 0.2368
H98_11 H 0.0967 0.7091 0.2610
H99_11 H 0.1136 0.6927 0.2862
H100_11 H 0.0329 0.6623 0.3975
H101_11 H 0.0525 0.6711 0.4312
H102_11 H 0.0356 0.6879 0.4069
H103_11 H 0.0101 0.6177 0.3869
H105_11 H 0.0173 0.5987 0.4241
H106_11 H 0.0479 0.5526 0.2356
H107_11 H 0.0519 0.5396 0.2866
H108_11 H 0.0287 0.5385 0.2595
H109_11 H 0.0863 0.8084 0.6455
H110_11 H 0.0644 0.8034 0.6755
H111_11 H 0.0670 0.8259 0.6460
H112_11 H 0.0292 0.7704 0.4793
H113_11 H 0.0147 0.7907 0.4958
H114_11 H 0.0137 0.7686 0.5271
H115_11 H 0.0452 0.7466 0.4021
H116_11 H 0.0383 0.7216 0.3979
H117_11 H 0.0458 0.7345 0.3490
H118_11 H 0.1342 0.7026 0.4136
H119_11 H 0.1260 0.6944 0.3600
H120_11 H 0.1182 0.6822 0.4097
H121_11 H 0.1679 0.7237 0.4937
H122_11 H 0.1798 0.7144 0.5423
H123_11 H 0.1898 0.7348 0.5133
H124_11 H 0.1313 0.7862 0.6521
H125_11 H 0.1567 0.7904 0.6608
H126_11 H 0.1450 0.7702 0.6872
H133_11 H 0.0128 0.7807 0.7208
H134_11 H 0.0363 0.7889 0.7036
H135_11 H 0.0252 0.7686 0.6763
H137_11 H 0.0037 0.8214 0.5144
H138_11 H 0.0128 0.8422 0.5437
H163_11 H 0.2116 0.7947 0.6717
H164_11 H 0.2040 0.7917 0.6149
H165_11 H 0.1862 0.7944 0.6582
H166_11 H 0.1949 0.6963 0.6651
H167_11 H 0.1711 0.7052 0.6529
H168_11 H 0.1885 0.7027 0.6090
H169_11 H 0.2087 0.6676 0.7516
H170_11 H 0.2184 0.6467 0.7789
H171_11 H 0.1960 0.6569 0.7975
H172_10 H 0.2555 0.7087 0.9334
H173_11 H 0.2376 0.6938 0.9601
H174_10 H 0.2602 0.6835 0.9428
H175_11 H 0.2552 0.7592 0.9439
H176_11 H 0.2700 0.7805 0.9495
H177_11 H 0.2460 0.7801 0.9725
H178_11 H 0.2251 0.8132 0.7638
H179_11 H 0.2163 0.8278 0.8089
H180_11 H 0.2408 0.8305 0.7898
Ag40_8 Ag 0.372230(16) 0.987130(15) 0.76162(4)
N65_8 N 0.23108(16) 0.57609(15) 0.0996(4)
H25_11 H 0.1405 0.6312 0.9965
C26_11 C 0.8156(2) 0.0177(3) 0.4387(5)
C27_11 C 0.82060(18) 0.0074(2) 0.3902(5)
H31_11 H 0.8160 0.0335 0.4351
H32_11 H 0.8012 0.0132 0.4498
H33_11 H 0.8265 0.0132 0.4635
Ag25_11 Ag 0.884870(17) 0.69104(2) 0.04987(5)
Ag27_11 Ag 0.902720(17) 0.742750(18) 0.02413(4)
N5_8 N 0.7967(2) 0.74736(18) 0.1766(5)
N6_3 N 0.8085(2) 0.75902(19) 0.2113(4)
N53_11 N 0.88125(17) 0.73808(19) 0.0830(4)
N54_11 N 0.87650(17) 0.7170(2) 0.0948(5)
C11_11 C 0.8027(3) 0.7257(3) 0.1012(6)
C12_11 C 0.8112(3) 0.7383(3) 0.1437(5)
C13_11 C 0.8318(2) 0.7440(2) 0.1567(5)
C14_11 C 0.8293(2) 0.7573(2) 0.1989(5)
C15_11 C 0.8465(3) 0.7686(2) 0.2305(6)
C121_11 C 0.8563(3) 0.6426(3) 0.0293(6)
C131_11 C 0.8681(2) 0.7747(3) 0.0988(7)
C132_11 C 0.8671(2) 0.7506(2) 0.1053(5)
C133_11 C 0.8518(2) 0.7381(2) 0.1306(5)
C134_11 C 0.8587(2) 0.7169(3) 0.1235(6)
C135_11 C 0.8491(2) 0.6964(3) 0.1431(6)
H13_11 H 0.7868 0.7250 0.1034
H14_11 H 0.8068 0.7328 0.0699
H15_11 H 0.8087 0.7110 0.1021
H16_11 H 0.8394 0.7766 0.2577
H17_11 H 0.8564 0.7578 0.2445
H18_11 H 0.8547 0.7788 0.2095
H50_11 H 0.8697 0.5968 0.0112
H145_11 H 0.8568 0.6526 0.0577
H146_11 H 0.8418 0.6429 0.0141
H147_11 H 0.8595 0.6278 0.0409
H157_11 H 0.8807 0.7785 0.0785
H158_11 H 0.8548 0.7797 0.0819
H159_11 H 0.8692 0.7816 0.1316
H160_11 H 0.8577 0.6840 0.1312
H161_11 H 0.8493 0.6967 0.1797
H162_11 H 0.8341 0.6950 0.1312
Ag31_3 Ag 0.79150(2) 0.774638(17) 0.26707(4)
Ag33_8 Ag 0.763840(18) 0.752110(19) 0.17098(4)
Ag2_8 Ag 0.73694(2) 0.784770(17) 0.25636(4)
Ag7_11 Ag 0.827830(17) 0.589100(17) 0.81315(4)
Ag13_11 Ag 0.790780(14) 0.904870(16) 0.43872(4)
Ag14_11 Ag 0.809800(15) 0.868760(15) 0.51666(4)
Ag15_11 Ag 0.834910(14) 0.917610(15) 0.51653(4)
Ag22_11 Ag 0.918850(17) 0.812560(18) 0.71019(4)
Ag23_11 Ag 0.970260(17) 0.797050(18) 0.71634(4)
Ag24_11 Ag 0.954590(17) 0.828190(18) 0.61489(5)
Ag26_11 Ag 0.914080(17) 0.698200(19) 0.94712(5)
N1_11 N 0.7759(2) 0.79438(19) 0.3189(4)
N2_11 N 0.7545(2) 0.7998(2) 0.3120(4)
N13_11 N 0.80625(19) 0.57759(18) 0.7603(4)
N14_11 N 0.80177(18) 0.55583(17) 0.7598(4)
N15_8 N 0.73545(18) 0.57629(17) 0.6167(4)
N16_8 N 0.72663(18) 0.58860(18) 0.6541(4)
N17_11 N 0.85587(17) 0.58730(18) 0.9037(4)
N18_11 N 0.84830(19) 0.6007(2) 0.8671(5)
N25_11 N 0.77916(16) 0.87368(17) 0.4324(4)
N26_11 N 0.78591(16) 0.85910(18) 0.4673(4)
N27_11 N 0.83766(16) 0.87318(16) 0.5569(4)
N28_11 N 0.84929(17) 0.89246(16) 0.5557(4)
N29_11 N 0.82197(14) 0.94067(16) 0.4689(4)
N30_11 N 0.80441(15) 0.93499(16) 0.4389(4)
N43_11 N 0.92820(19) 0.7926(2) 0.7686(5)
N44_11 N 0.94907(17) 0.78610(18) 0.7691(4)
N45_11 N 0.99203(16) 0.80527(18) 0.6618(4)
N46_11 N 0.98638(18) 0.8178(2) 0.6214(5)
N47_11 N 0.92230(15) 0.83681(17) 0.6112(4)
N48_11 N 0.90953(19) 0.83197(18) 0.6510(5)
N49_11 N 0.88567(18) 0.66676(19) 0.9973(5)
N50_11 N 0.89910(18) 0.6684(2) 0.9572(5)
N51_11 N 0.92383(17) 0.72875(18) 0.9287(4)
N52_11 N 0.91908(18) 0.74692(18) 0.9559(5)
C1_11 C 0.8080(2) 0.8054(3) 0.3656(6)
C2_11 C 0.7842(2) 0.8075(2) 0.3527(5)
C3_11 C 0.7694(2) 0.8225(2) 0.3680(5)
C4_11 C 0.7498(2) 0.8170(2) 0.3433(5)
C5_11 C 0.7286(2) 0.8267(2) 0.3449(6)
C10_11 C 0.9950(2) 0.5233(3) 0.3250(5)
C28_11 C 0.82171(19) 0.98530(18) 0.3773(5)
C29_11 C 0.82770(19) 0.98448(18) 0.3283(5)
C30_11 C 0.8320(2) 0.9656(3) 0.2954(5)
C31_11 C 0.7938(2) 0.6114(2) 0.7245(6)
C32_11 C 0.7924(2) 0.5876(2) 0.7310(5)
C33_11 C 0.7787(2) 0.5730(2) 0.7087(5)
C34_11 C 0.7848(2) 0.55310(18) 0.7280(5)
C35_11 C 0.7759(2) 0.5308(2) 0.7191(5)
C36_11 C 0.7683(2) 0.5555(2) 0.5967(6)
C37_11 C 0.75499(18) 0.5696(2) 0.6298(5)
C38_11 C 0.75944(17) 0.5774(2) 0.6775(5)
C39_11 C 0.7411(2) 0.5895(2) 0.6906(4)
C40_11 C 0.7366(3) 0.6006(3) 0.7388(5)
C41_11 C 0.8765(2) 0.5900(2) 0.9818(5)
C42_11 C 0.86690(19) 0.5992(2) 0.9361(4)
C43_11 C 0.8669(2) 0.6215(2) 0.9211(5)
C44_11 C 0.8549(2) 0.6210(3) 0.8764(5)
C45_11 C 0.8489(3) 0.6399(3) 0.8445(7)
C61_11 C 0.7627(2) 0.8748(3) 0.3471(5)
C62_11 C 0.77090(19) 0.8630(2) 0.3923(5)
C63_11 C 0.7724(2) 0.84070(19) 0.4032(5)
C64_11 C 0.7819(2) 0.8390(2) 0.4506(4)
C65_11 C 0.78790(19) 0.8198(2) 0.4815(5)
C66_11 C 0.8433(2) 0.8344(3) 0.5762(7)
C67_11 C 0.8511(2) 0.8579(2) 0.5716(5)
C68_11 C 0.8717(2) 0.86560(18) 0.5809(5)
C69_11 C 0.87012(18) 0.88791(17) 0.5693(5)
C70_11 C 0.8871(2) 0.9050(2) 0.5706(6)
C71_11 C 0.8488(2) 0.9697(2) 0.4789(6)
C72_11 C 0.83020(18) 0.9595(2) 0.4525(5)
C73_11 C 0.81776(19) 0.96638(19) 0.4103(5)
C74_11 C 0.8024(2) 0.9507(2) 0.4046(5)
C75_11 C 0.7850(2) 0.9488(2) 0.3654(6)
C106_11 C 0.8941(2) 0.7881(3) 0.8182(6)
C107_11 C 0.91800(19) 0.7842(2) 0.8082(5)
C108_11 C 0.9327(2) 0.7715(2) 0.8367(5)
C109_11 C 0.9523(2) 0.7736(2) 0.8096(5)
C110_11 C 0.9739(2) 0.7639(2) 0.8199(5)
C116_11 C 0.9199(2) 0.8563(3) 0.5313(6)
C117_11 C 0.9109(2) 0.8499(2) 0.5801(6)
C118_11 C 0.8905(2) 0.8535(2) 0.5999(5)
C119_11 C 0.89026(19) 0.8417(2) 0.6448(5)
C120_11 C 0.8727(2) 0.8388(3) 0.6843(6)
C122_11 C 0.8731(2) 0.6493(3) 0.9907(5)
C123_11 C 0.87770(19) 0.6400(2) 0.9460(5)
C124_11 C 0.8939(2) 0.6524(3) 0.9247(6)
C125_11 C 0.9053(3) 0.6503(3) 0.8757(7)
C126_11 C 0.9360(2) 0.7206(3) 0.8435(7)
C127_11 C 0.9301(2) 0.7359(2) 0.8823(6)
C128_11 C 0.9287(2) 0.7584(2) 0.8812(5)
C129_11 C 0.9218(2) 0.7646(2) 0.9288(6)
C130_11 C 0.9173(2) 0.7867(3) 0.9489(6)
H1_11 H 0.8142 0.7929 0.3478
H2_11 H 0.8157 0.8186 0.3556
H3_11 H 0.8096 0.8033 0.4017
H4_11 H 0.7189 0.8189 0.3221
H5_11 H 0.7228 0.8258 0.3790
H6_11 H 0.7296 0.8419 0.3346
H10_11 H 0.9897 0.5085 0.3313
H11_11 H 0.9826 0.5330 0.3202
H34_11 H 0.8360 0.9707 0.2620
H35_11 H 0.8440 0.9570 0.3093
H36_11 H 0.8189 0.9566 0.2933
H37_11 H 0.8054 0.6172 0.7457
H38_11 H 0.7799 0.6180 0.7340
H39_11 H 0.7969 0.6147 0.6894
H40_11 H 0.7842 0.5202 0.7385
H41_11 H 0.7769 0.5273 0.6834
H42_11 H 0.7606 0.5303 0.7294
H43_11 H 0.7605 0.5528 0.5655
H44_11 H 0.7712 0.5417 0.6136
H45_11 H 0.7821 0.5628 0.5893
H46_11 H 0.7225 0.6079 0.7370
H47_11 H 0.7480 0.6113 0.7454
H48_11 H 0.7363 0.5898 0.7659
H49_11 H 0.8739 0.5744 0.9826
H51_11 H 0.8921 0.5928 0.9822
H52_11 H 0.8403 0.6349 0.8160
H53_11 H 0.8621 0.6470 0.8323
H54_11 H 0.8404 0.6503 0.8643
H73_11 H 0.7637 0.8905 0.3527
H74_11 H 0.7715 0.8709 0.3180
H75_11 H 0.7475 0.8708 0.3409
H76_11 H 0.7944 0.8247 0.5130
H77_11 H 0.7749 0.8112 0.4886
H78_11 H 0.7984 0.8108 0.4632
H79_11 H 0.8277 0.8337 0.5683
H80_11 H 0.8514 0.8252 0.5529
H81_11 H 0.8456 0.8293 0.6105
H82_11 H 0.8807 0.9189 0.5607
H83_11 H 0.8929 0.9061 0.6046
H84_11 H 0.8988 0.9012 0.5475
H85_11 H 0.8534 0.9603 0.5066
H86_11 H 0.8609 0.9717 0.4556
H87_11 H 0.8444 0.9838 0.4922
H88_11 H 0.7765 0.9356 0.3714
H89_11 H 0.7755 0.9615 0.3670
H90_11 H 0.7917 0.9480 0.3323
H104_11 H 0.9944 0.5974 0.3961
H127_11 H 0.8881 0.7975 0.7920
H128_11 H 0.8924 0.7952 0.8508
H129_11 H 0.8864 0.7742 0.8184
H130_11 H 0.9841 0.7681 0.7934
H131_11 H 0.9727 0.7480 0.8208
H132_11 H 0.9793 0.7691 0.8522
H136_11 H 0.9873 0.8377 0.5415
H139_11 H 0.9349 0.8512 0.5286
H140_11 H 0.9195 0.8721 0.5282
H141_11 H 0.9111 0.8498 0.5045
H142_11 H 0.8783 0.8297 0.7114
H143_11 H 0.8600 0.8319 0.6693
H144_11 H 0.8687 0.8530 0.6978
H148_11 H 0.9163 0.6617 0.8727
H149_11 H 0.9123 0.6360 0.8737
H150_11 H 0.8948 0.6518 0.8485
H151_11 H 0.9350 0.7058 0.8566
H152_11 H 0.9261 0.7222 0.8151
H153_11 H 0.9509 0.7235 0.8325
H154_11 H 0.9126 0.7855 0.9839
H155_11 H 0.9305 0.7955 0.9471
H156_11 H 0.9057 0.7935 0.9291
Ag37_8 Ag 0.714850(16) 0.565180(16) 0.56096(4)
Ag38_8 Ag 0.694950(17) 0.598420(16) 0.65085(4)
N61_8 N 0.72090(17) 0.7725(2) 0.1948(4)
Ag10_12 Ag 0.362630(15) 0.025520(14) 0.66925(4)
N19_12 N 0.33415(15) 0.04208(15) 0.6594(4)
N20_12 N 0.31662(15) 0.03515(15) 0.6874(4)
N24_12 N 0.39115(17) 0.00880(15) 0.6743(4)
C16_11 C 0.6158(2) 0.01078(18) 0.6688(6)
C46_12 C 0.3421(2) 0.0659(2) 0.5875(5)
C47_12 C 0.32676(18) 0.05576(18) 0.6250(5)
C48_12 C 0.3045(2) 0.0581(2) 0.6299(4)
C49_12 C 0.29870(19) 0.0448(2) 0.6706(4)
C50_12 C 0.2775(2) 0.04040(19) 0.6937(5)
C51_12 C 0.2679(3) 0.0370(2) 0.5609(6)
C52_12 C 0.2732(2) 0.06020(18) 0.5681(5)
C53_12 C 0.2895(2) 0.0698(2) 0.5972(5)
C54_12 C 0.28805(17) 0.0922(2) 0.5876(5)
C55_12 C 0.3008(2) 0.1101(2) 0.6080(6)
C59_12 C 0.4080(2) 0.0106(2) 0.6431(5)
C60_12 C 0.4079(2) 0.0255(2) 0.5981(5)
C146_12 C 0.4749(2) 0.0051(2) 0.6948(5)
H19_11 H 0.6279 0.0155 0.6901
H20_11 H 0.6187 0.0149 0.6341
H21_11 H 0.6024 0.0178 0.6800
H55_12 H 0.3569 0.0611 0.5944
H56_12 H 0.3413 0.0817 0.5902
H57_12 H 0.3379 0.0615 0.5537
H58_12 H 0.2793 0.0303 0.7217
H59_12 H 0.2677 0.0339 0.6688
H60_12 H 0.2712 0.0540 0.7058
H61_12 H 0.2556 0.0356 0.5378
H62_12 H 0.2640 0.0305 0.5931
H63_12 H 0.2805 0.0294 0.5469
H64_12 H 0.2958 0.1238 0.5933
H65_12 H 0.3161 0.1079 0.6001
H66_12 H 0.2989 0.1106 0.6444
H70_12 H 0.3941 0.0334 0.5969
H71_12 H 0.4096 0.0169 0.5676
H72_12 H 0.4199 0.0359 0.6008
H172_11 H 0.5413 0.0055 0.6834
H174_11 H 0.5665 0.0102 0.6928
H175_12 H 0.4908 0.0052 0.6939
H176_12 H 0.4695 0.0200 0.6995
H16_12 H 0.4734 0.5894 0.0077
Ag31_4 Ag 0.475362(17) 0.54150(2) 0.01707(4)
Ag5_4 Ag 0.636360(15) 0.932340(15) 0.74430(4)
Ag7_12 Ag 0.660900(17) 0.577830(17) 0.56315(4)
Ag13_12 Ag 0.345130(16) 0.540780(14) 0.18872(4)
Ag14_12 Ag 0.381240(15) 0.559800(15) 0.26666(4)
Ag15_12 Ag 0.332390(15) 0.584910(14) 0.26653(4)
Ag18_12 Ag 0.616910(16) 0.789390(17) 0.06039(4)
Ag19_12 Ag 0.472480(15) 0.855720(15) 0.32006(4)
Ag20_12 Ag 0.488140(16) 0.824510(16) 0.22503(4)
Ag21_12 Ag 0.509390(16) 0.874650(16) 0.22973(4)
Ag22_12 Ag 0.437440(18) 0.668850(17) 0.46019(4)
Ag23_12 Ag 0.452950(18) 0.720260(17) 0.46634(4)
Ag24_12 Ag 0.421810(18) 0.704590(17) 0.36489(5)
Ag25_12 Ag 0.55896(2) 0.634870(17) 0.79987(5)
Ag26_12 Ag 0.551800(19) 0.664080(17) 0.69712(5)
Ag27_12 Ag 0.507250(18) 0.652720(17) 0.77413(4)
Ag28_12 Ag 0.482440(15) 0.977260(14) 0.50238(4)
Ag29_12 Ag 0.536860(15) 0.971980(14) 0.49496(3)
Ag30_12 Ag 0.513480(16) 0.993370(14) 0.60064(4)
N1_12 N 0.45562(19) 0.5259(2) 0.0689(4)
N2_12 N 0.4502(2) 0.5045(2) 0.0620(4)
N4_12 N 0.73183(16) 0.76018(18) 0.1598(4)
N6_4 N 0.49098(19) 0.5585(2) 0.9613(4)
N7_12 N 0.62750(16) 0.97588(15) 0.7005(4)
N8_12 N 0.62294(14) 0.95435(14) 0.6953(4)
N13_12 N 0.67241(18) 0.55625(19) 0.5103(4)
N14_12 N 0.69417(17) 0.55177(18) 0.5098(4)
N17_12 N 0.66270(18) 0.60587(17) 0.6537(4)
N18_12 N 0.6493(2) 0.59830(19) 0.6171(5)
N23_12 N 0.39643(17) 0.99455(17) 0.7101(4)
N25_12 N 0.37632(17) 0.52916(16) 0.1824(4)
N26_12 N 0.39090(18) 0.53591(16) 0.2173(4)
N27_12 N 0.37682(16) 0.58766(16) 0.3069(4)
N28_12 N 0.35754(16) 0.59929(17) 0.3057(4)
N29_12 N 0.30933(16) 0.57197(14) 0.2189(4)
N30_12 N 0.31501(16) 0.55441(15) 0.1889(4)
N33_12 N 0.58188(17) 0.82038(17) 0.0326(4)
N34_12 N 0.5875(2) 0.80510(18) 0.0671(4)
N35_12 N 0.64876(17) 0.77825(17) 0.0613(4)
N36_12 N 0.66360(16) 0.78708(17) 0.0276(4)
N37_12 N 0.46096(17) 0.82424(17) 0.3183(4)
N38_12 N 0.46940(19) 0.81142(17) 0.2804(5)
N39_12 N 0.51119(16) 0.83325(17) 0.1727(4)
N40_12 N 0.52092(18) 0.85349(17) 0.1751(5)
N41_12 N 0.50114(17) 0.89344(16) 0.2907(4)
N42_12 N 0.48629(16) 0.88577(15) 0.3252(4)
N43_12 N 0.4574(2) 0.67820(19) 0.5186(5)
N44_12 N 0.46390(18) 0.69907(17) 0.5191(4)
N45_12 N 0.44473(18) 0.74203(16) 0.4118(4)
N46_12 N 0.4322(2) 0.73638(18) 0.3714(5)
N47_12 N 0.41319(17) 0.67230(15) 0.3612(4)
N48_12 N 0.41803(18) 0.65953(19) 0.4010(5)
N49_12 N 0.58324(19) 0.63567(18) 0.7473(5)
N50_12 N 0.5816(2) 0.64910(18) 0.7072(5)
N51_12 N 0.52125(18) 0.67383(17) 0.6787(4)
N52_12 N 0.50308(18) 0.66908(18) 0.7059(5)
N53_12 N 0.51192(19) 0.63125(17) 0.8330(4)
N54_12 N 0.5330(2) 0.62650(17) 0.8448(5)
N55_12 N 0.49541(15) 0.96397(15) 0.4389(4)
N56_12 N 0.51756(16) 0.95986(15) 0.4372(4)
N57_12 N 0.55571(16) 0.97952(15) 0.5570(4)
N58_12 N 0.54700(17) 0.98957(17) 0.5973(4)
N59_12 N 0.48005(16) 0.99172(15) 0.6089(4)
N60_12 N 0.46794(16) 0.98527(16) 0.5695(4)
C1_12 C 0.4446(3) 0.5580(2) 0.1156(6)
C2_12 C 0.4425(2) 0.5342(2) 0.1027(5)
C3_12 C 0.4275(2) 0.5194(2) 0.1180(5)
C4_12 C 0.4330(2) 0.4998(2) 0.0933(5)
C5_12 C 0.4233(2) 0.4786(2) 0.0949(6)
C6_12 C 0.6863(3) 0.7903(2) 0.2053(6)
C7_12 C 0.7014(2) 0.7773(2) 0.1756(5)
C8_12 C 0.6994(2) 0.7687(2) 0.1276(5)
C9_12 C 0.7191(2) 0.7583(2) 0.1196(5)
C10_12 C 0.7267(3) 0.7450(2) 0.0750(5)
C11_12 C 0.5243(3) 0.5527(3) 0.8512(6)
C12_12 C 0.5117(3) 0.5612(3) 0.8937(5)
C13_12 C 0.5060(2) 0.5818(2) 0.9067(5)
C14_12 C 0.4927(2) 0.5793(2) 0.9489(5)
C15_12 C 0.4814(2) 0.5965(3) 0.9805(6)
C17_12 C 0.61343(19) 0.98737(18) 0.6720(4)
C18_12 C 0.59900(18) 0.97309(18) 0.6485(4)
C19_12 C 0.60562(19) 0.9527(2) 0.6652(5)
C20_12 C 0.5959(2) 0.9305(2) 0.6539(5)
C26_12 C 0.2323(3) 0.5656(2) 0.1887(5)
C27_12 C 0.2426(2) 0.57060(18) 0.1402(5)
C28_12 C 0.26470(18) 0.57171(19) 0.1273(5)
C29_12 C 0.26552(18) 0.57770(19) 0.0783(5)
C30_12 C 0.2844(3) 0.5820(2) 0.0454(5)
C31_12 C 0.6386(2) 0.5438(2) 0.4745(6)
C32_12 C 0.6624(2) 0.5424(2) 0.4810(5)
C33_12 C 0.6770(2) 0.5287(2) 0.4587(5)
C34_12 C 0.69690(18) 0.5348(2) 0.4780(5)
C35_12 C 0.7192(2) 0.5259(2) 0.4691(5)
C36_12 C 0.6945(2) 0.5183(2) 0.3467(6)
C37_12 C 0.6804(2) 0.50499(18) 0.3798(5)
C38_12 C 0.6726(2) 0.50944(17) 0.4275(5)
C39_12 C 0.6605(2) 0.4911(2) 0.4406(4)
C40_12 C 0.6494(3) 0.4866(3) 0.4888(5)
C41_12 C 0.6600(2) 0.6265(2) 0.7318(5)
C42_12 C 0.6508(2) 0.61690(19) 0.6861(4)
C43_12 C 0.6285(2) 0.6169(2) 0.6711(5)
C44_12 C 0.6290(3) 0.6049(2) 0.6264(5)
C45_12 C 0.6101(3) 0.5989(3) 0.5945(7)
C56_12 C 0.4273(3) 0.9724(3) 0.7395(7)
C57_12 C 0.4170(2) 0.9871(2) 0.7023(5)
C58_12 C 0.4246(2) 0.9967(2) 0.6579(5)
C61_12 C 0.3752(3) 0.5127(2) 0.0971(5)
C62_12 C 0.3870(2) 0.52090(19) 0.1423(5)
C63_12 C 0.40930(19) 0.5224(2) 0.1532(5)
C64_12 C 0.4110(2) 0.5319(2) 0.2006(4)
C65_12 C 0.4302(2) 0.53790(19) 0.2315(5)
C66_12 C 0.4156(3) 0.5933(2) 0.3262(7)
C67_12 C 0.3921(2) 0.6011(2) 0.3216(5)
C68_12 C 0.38440(18) 0.6217(2) 0.3309(5)
C69_12 C 0.36209(17) 0.62012(18) 0.3193(5)
C70_12 C 0.3450(2) 0.6371(2) 0.3206(6)
C71_12 C 0.2803(2) 0.5988(2) 0.2289(6)
C72_12 C 0.2905(2) 0.58020(18) 0.2025(5)
C73_12 C 0.28362(19) 0.56776(19) 0.1603(5)
C74_12 C 0.2993(2) 0.5524(2) 0.1546(5)
C75_12 C 0.3012(2) 0.5350(2) 0.1154(6)
C81_12 C 0.5562(2) 0.8498(2) 0.0182(6)
C82_12 C 0.56565(19) 0.83151(19) 0.0504(6)
C83_12 C 0.5596(2) 0.8242(2) 0.0968(5)
C84_12 C 0.5743(2) 0.8073(2) 0.1068(5)
C85_12 C 0.5759(3) 0.7934(3) 0.1519(5)
C86_12 C 0.6479(2) 0.7596(2) 0.1430(5)
C87_12 C 0.65970(19) 0.7701(2) 0.1003(4)
C88_12 C 0.6815(2) 0.7732(2) 0.0917(5)
C89_12 C 0.6828(2) 0.7837(2) 0.0462(5)
C90_12 C 0.7022(2) 0.7912(2) 0.0169(5)
C91_12 C 0.4397(2) 0.8205(2) 0.3957(5)
C92_12 C 0.4496(2) 0.8112(2) 0.3509(5)
C93_12 C 0.4515(2) 0.78980(18) 0.3349(5)
C94_12 C 0.4637(2) 0.79130(18) 0.2907(5)
C95_12 C 0.4717(3) 0.7731(3) 0.2579(6)
C96_12 C 0.5172(3) 0.7981(2) 0.1350(7)
C97_12 C 0.5239(2) 0.8211(2) 0.1445(5)
C98_12 C 0.54144(19) 0.8320(2) 0.1276(5)
C99_12 C 0.5390(2) 0.8530(2) 0.1485(5)
C100_12 C 0.5537(3) 0.8720(2) 0.1452(6)
C101_12 C 0.5224(2) 0.9263(2) 0.2735(5)
C102_12 C 0.5074(2) 0.91323(19) 0.3059(4)
C103_12 C 0.49823(18) 0.91854(18) 0.3510(4)
C104_12 C 0.48481(18) 0.9007(2) 0.3622(4)
C105_12 C 0.4707(2) 0.8955(2) 0.4070(5)
C106_12 C 0.4619(3) 0.6441(2) 0.5682(6)
C107_12 C 0.4658(2) 0.66800(19) 0.5582(5)
C108_12 C 0.4785(2) 0.6827(2) 0.5867(5)
C109_12 C 0.4764(2) 0.7023(2) 0.5596(5)
C110_12 C 0.4861(2) 0.7239(2) 0.5699(5)
C111_12 C 0.4673(3) 0.7725(2) 0.4422(6)
C112_12 C 0.4521(2) 0.7621(2) 0.4047(5)
C113_12 C 0.4446(2) 0.7700(2) 0.3594(5)
C114_12 C 0.4322(2) 0.7532(2) 0.3401(5)
C115_12 C 0.4191(3) 0.7516(2) 0.2935(7)
C116_12 C 0.3937(3) 0.6699(2) 0.2813(6)
C117_12 C 0.4001(2) 0.6609(2) 0.3301(6)
C118_12 C 0.3965(2) 0.6405(2) 0.3499(5)
C119_12 C 0.4083(2) 0.64026(19) 0.3948(5)
C120_12 C 0.4112(3) 0.6227(2) 0.4343(6)
C121_12 C 0.6074(3) 0.6063(3) 0.7793(6)
C122_12 C 0.6007(3) 0.6231(2) 0.7407(5)
C123_12 C 0.6100(2) 0.62770(19) 0.6960(5)
C124_12 C 0.5976(3) 0.6439(2) 0.6747(6)
C125_12 C 0.5997(3) 0.6553(3) 0.6257(7)
C126_12 C 0.5294(3) 0.6860(2) 0.5935(7)
C127_12 C 0.5141(2) 0.6801(2) 0.6323(6)
C128_12 C 0.4916(2) 0.6787(2) 0.6312(5)
C129_12 C 0.4854(2) 0.6718(2) 0.6788(6)
C130_12 C 0.4633(3) 0.6673(2) 0.6989(6)
C131_12 C 0.4753(3) 0.6181(2) 0.8488(7)
C132_12 C 0.4994(2) 0.6171(2) 0.8553(5)
C133_12 C 0.5119(2) 0.6018(2) 0.8806(5)
C134_12 C 0.5331(3) 0.6087(2) 0.8735(6)
C135_12 C 0.5536(3) 0.5991(2) 0.8931(6)
C136_12 C 0.4617(2) 0.95050(18) 0.3998(5)
C137_12 C 0.48570(19) 0.9501(2) 0.4069(5)
C138_12 C 0.50152(19) 0.93731(18) 0.3834(4)
C139_12 C 0.52080(19) 0.94416(17) 0.4037(4)
C140_12 C 0.5436(2) 0.93650(18) 0.3943(4)
C141_12 C 0.5898(2) 0.9603(2) 0.5337(5)
C142_12 C 0.5755(2) 0.97240(19) 0.5693(4)
C143_12 C 0.57974(17) 0.97866(16) 0.6195(5)
C144_12 C 0.5611(2) 0.9893(2) 0.6343(5)
C145_12 C 0.5558(3) 0.9990(2) 0.6846(6)
C147_12 C 0.4664(2) 0.99630(19) 0.6470(5)
C148_12 C 0.4450(2) 0.9929(2) 0.6310(5)
C149_12 C 0.44700(19) 0.98625(18) 0.5826(5)
C150_12 C 0.4299(3) 0.9789(2) 0.5455(6)
H1_12 H 0.4571 0.5642 0.0978
H2_12 H 0.4314 0.5657 0.1056
H3_12 H 0.4467 0.5596 0.1517
H4_12 H 0.4311 0.4689 0.0721
H5_12 H 0.4242 0.4728 0.1290
H6_12 H 0.4081 0.4796 0.0846
H7_12 H 0.6928 0.7935 0.2379
H8_12 H 0.6832 0.8040 0.1877
H9_12 H 0.6727 0.7823 0.2102
H10_12 H 0.7415 0.7397 0.0813
H11_12 H 0.7170 0.7326 0.0702
H12_12 H 0.7267 0.7540 0.0450
H13_12 H 0.5250 0.5368 0.8534
H14_12 H 0.5172 0.5568 0.8199
H15_12 H 0.5390 0.5587 0.8521
H17_12 H 0.4922 0.6064 0.9945
H18_12 H 0.4712 0.6047 0.9595
H22_12 H 0.6044 0.9193 0.6707
H23_12 H 0.5809 0.9301 0.6661
H24_12 H 0.5961 0.9280 0.6178
H31_12 H 0.2165 0.5660 0.1851
H32_12 H 0.2368 0.5512 0.1998
H33_12 H 0.2368 0.5765 0.2135
H34_12 H 0.2793 0.5860 0.0120
H35_12 H 0.2930 0.5940 0.0593
H36_12 H 0.2934 0.5689 0.0433
H37_12 H 0.6328 0.5554 0.4957
H38_12 H 0.6320 0.5299 0.4840
H39_12 H 0.6353 0.5469 0.4394
H40_12 H 0.7298 0.5342 0.4885
H41_12 H 0.7227 0.5269 0.4334
H42_12 H 0.7197 0.5106 0.4794
H43_12 H 0.6972 0.5105 0.3155
H44_12 H 0.7083 0.5212 0.3636
H45_12 H 0.6872 0.5321 0.3393
H46_12 H 0.6421 0.4725 0.4870
H47_12 H 0.6387 0.4980 0.4954
H48_12 H 0.6602 0.4863 0.5159
H49_12 H 0.6756 0.6239 0.7326
H50_12 H 0.6532 0.6197 0.7612
H51_12 H 0.6572 0.6421 0.7322
H52_12 H 0.6151 0.5903 0.5660
H53_12 H 0.6030 0.6121 0.5823
H54_12 H 0.5997 0.5904 0.6143
H67_12 H 0.4169 0.9691 0.7661
H68_12 H 0.4401 0.9795 0.7539
H69_12 H 0.4318 0.9589 0.7229
H73_12 H 0.3595 0.5137 0.1027
H74_12 H 0.3791 0.5215 0.0680
H75_12 H 0.3792 0.4975 0.0909
H76_12 H 0.4253 0.5444 0.2630
H77_12 H 0.4388 0.5249 0.2386
H78_12 H 0.4392 0.5484 0.2132
H79_12 H 0.4163 0.5777 0.3183
H80_12 H 0.4248 0.6014 0.3029
H81_12 H 0.4207 0.5956 0.3605
H82_12 H 0.3311 0.6307 0.3107
H83_12 H 0.3439 0.6429 0.3546
H84_12 H 0.3488 0.6488 0.2975
H85_12 H 0.2897 0.6034 0.2566
H86_12 H 0.2783 0.6109 0.2056
H87_12 H 0.2662 0.5944 0.2422
H88_12 H 0.3144 0.5265 0.1214
H89_12 H 0.2885 0.5255 0.1170
H90_12 H 0.3020 0.5417 0.0823
H98_12 H 0.5409 0.8467 0.0110
H99_12 H 0.5573 0.8636 0.0362
H100_12 H 0.5877 0.7829 0.1475
H101_12 H 0.5789 0.8025 0.1812
H102_12 H 0.5621 0.7856 0.1569
H103_12 H 0.6323 0.7601 0.1369
H104_12 H 0.6526 0.7444 0.1461
H105_12 H 0.6513 0.7673 0.1741
H107_12 H 0.7104 0.8019 0.0366
H108_12 H 0.7115 0.7787 0.0095
H109_12 H 0.4416 0.8363 0.3955
H110_12 H 0.4466 0.8144 0.4255
H111_12 H 0.4241 0.8170 0.3960
H112_12 H 0.4796 0.7792 0.2293
H113_12 H 0.4593 0.7647 0.2458
H114_12 H 0.4814 0.7637 0.2771
H115_12 H 0.5034 0.7952 0.1521
H116_12 H 0.5284 0.7883 0.1479
H117_12 H 0.5155 0.7958 0.0990
H118_12 H 0.5474 0.8842 0.1636
H119_12 H 0.5556 0.8760 0.1100
H120_12 H 0.5678 0.8682 0.1597
H121_12 H 0.5263 0.9179 0.2437
H122_12 H 0.5356 0.9298 0.2923
H123_12 H 0.5152 0.9398 0.2633
H124_12 H 0.4638 0.8813 0.4021
H125_12 H 0.4596 0.9067 0.4108
H126_12 H 0.4798 0.8950 0.4372
H127_12 H 0.4525 0.6381 0.5420
H128_12 H 0.4548 0.6424 0.6008
H129_12 H 0.4758 0.6364 0.5684
H130_12 H 0.4819 0.7341 0.5434
H131_12 H 0.5020 0.7227 0.5708
H132_12 H 0.4809 0.7293 0.6022
H133_12 H 0.4693 0.7628 0.4708
H134_12 H 0.4611 0.7863 0.4536
H135_12 H 0.4814 0.7752 0.4263
H136_12 H 0.4123 0.7373 0.2915
H137_12 H 0.4286 0.7537 0.2644
H138_12 H 0.4078 0.7628 0.2937
H139_12 H 0.3988 0.6849 0.2786
H140_12 H 0.3779 0.6695 0.2782
H141_12 H 0.4002 0.6611 0.2545
H142_12 H 0.4203 0.6283 0.4614
H143_12 H 0.4181 0.6100 0.4193
H144_12 H 0.3970 0.6187 0.4478
H145_12 H 0.5974 0.6068 0.8077
H146_12 H 0.6071 0.5918 0.7641
H147_12 H 0.6222 0.6095 0.7909
H148_12 H 0.5883 0.6663 0.6227
H149_12 H 0.6140 0.6623 0.6237
H150_12 H 0.5982 0.6448 0.5985
H151_12 H 0.5442 0.6850 0.6066
H152_12 H 0.5278 0.6761 0.5651
H153_12 H 0.5265 0.7009 0.5825
H154_12 H 0.4645 0.6626 0.7339
H155_12 H 0.4545 0.6805 0.6971
H156_12 H 0.4565 0.6557 0.6791
H157_12 H 0.4715 0.6307 0.8285
H158_12 H 0.4703 0.6048 0.8319
H159_12 H 0.4684 0.6192 0.8816
H160_12 H 0.5660 0.6077 0.8812
H161_12 H 0.5533 0.5993 0.9297
H162_12 H 0.5550 0.5841 0.8812
H163_12 H 0.4553 0.9616 0.4217
H164_12 H 0.4583 0.9540 0.3649
H165_12 H 0.4556 0.9362 0.4082
H166_12 H 0.5537 0.9449 0.4151
H167_12 H 0.5448 0.9211 0.4029
H168_12 H 0.5473 0.9385 0.3590
H169_12 H 0.5824 0.9587 0.5016
H170_12 H 0.6033 0.9684 0.5289
H171_12 H 0.5931 0.9460 0.5475
H173_12 H 0.5562 0.9876 0.7101
H177_12 H 0.4699 0.9960 0.7225
H178_12 H 0.4368 0.9751 0.5138
H179_12 H 0.4222 0.9663 0.5589
H180_12 H 0.4195 0.9908 0.5398
N64_4 N 0.64609(16) 0.91076(16) 0.7992(4)
Ag16_12 Ag 0.653260(15) 0.806540(16) 0.96881(4)
Ag17_12 Ag 0.602350(16) 0.825110(17) 0.97177(4)
N10_12 N 0.66032(16) 0.91604(15) 0.8358(4)
N31_12 N 0.64448(16) 0.83066(16) 0.9183(4)
N32_12 N 0.62329(18) 0.83699(17) 0.9181(4)
C21_12 C 0.6219(3) 0.8805(2) 0.7742(6)
C22_12 C 0.6381(2) 0.89048(19) 0.8082(5)
C23_12 C 0.64719(17) 0.88260(18) 0.8520(5)
C24_12 C 0.6614(2) 0.8992(2) 0.8681(5)
C25_12 C 0.6758(2) 0.9008(2) 0.9127(5)
C76_12 C 0.6802(2) 0.84370(19) 0.8863(5)
C77_12 C 0.65640(17) 0.8461(2) 0.8932(4)
C78_12 C 0.64240(19) 0.8628(2) 0.8784(5)
C79_12 C 0.6219(2) 0.8561(2) 0.8940(5)
C80_12 C 0.6005(2) 0.8677(2) 0.8906(6)
H25_12 H 0.6188 0.8905 0.7465
H26_12 H 0.6277 0.8669 0.7608
H27_12 H 0.6085 0.8776 0.7926
H28_12 H 0.6836 0.9147 0.9122
H29_12 H 0.6671 0.8998 0.9432
H30_12 H 0.6864 0.8888 0.9122
H91_12 H 0.6850 0.8300 0.9013
H92_12 H 0.6836 0.8436 0.8505
H93_12 H 0.6877 0.8558 0.9025
H94_12 H 0.5891 0.8586 0.9055
H95_12 H 0.6013 0.8815 0.9086
H96_12 H 0.5970 0.8704 0.8554
H97_12 H 0.5643 0.8507 0.9868
H106_12 H 0.6974 0.7979 0.9856
C16_12 C 0.8842(2) 0.98922(18) 0.1688(6)
H19_12 H 0.8721 0.9845 0.1901
H20_12 H 0.8813 0.9851 0.1341
H21_12 H 0.8976 0.9822 0.1800
H172_12 H 0.9587 0.9945 0.1834
H174_12 H 0.9335 0.9898 0.1928
N62_5 N 0.00264(18) 0.0467(2) 0.4266(5)
Ag25_13 Ag 0.115130(17) 0.80896(2) 0.04987(5)
Ag27_13 Ag 0.097280(17) 0.757250(18) 0.02413(4)
N5_9 N 0.2033(2) 0.75264(18) 0.1766(5)
N6_5 N 0.1915(2) 0.74098(19) 0.2113(4)
N53_13 N 0.11875(17) 0.76192(19) 0.0830(4)
N54_13 N 0.12350(17) 0.7830(2) 0.0948(5)
C11_13 C 0.1973(3) 0.7743(3) 0.1012(6)
C12_13 C 0.1888(3) 0.7617(3) 0.1437(5)
C13_13 C 0.1682(2) 0.7560(2) 0.1567(5)
C14_13 C 0.1707(2) 0.7427(2) 0.1989(5)
C15_13 C 0.1535(3) 0.7314(2) 0.2305(6)
C121_13 C 0.1437(3) 0.8574(3) 0.0293(6)
C131_13 C 0.1319(2) 0.7253(3) 0.0988(7)
C132_13 C 0.1329(2) 0.7494(2) 0.1053(5)
C133_13 C 0.1482(2) 0.7619(2) 0.1306(5)
C134_13 C 0.1413(2) 0.7831(3) 0.1235(6)
C135_13 C 0.1509(2) 0.8036(3) 0.1431(6)
H13_13 H 0.2132 0.7750 0.1034
H14_13 H 0.1932 0.7672 0.0699
H15_13 H 0.1913 0.7890 0.1021
H16_13 H 0.1606 0.7234 0.2577
H17_13 H 0.1436 0.7422 0.2445
H18_13 H 0.1453 0.7212 0.2095
H50_13 H 0.1303 0.9032 0.0112
H145_13 H 0.1432 0.8474 0.0577
H146_13 H 0.1582 0.8571 0.0141
H147_13 H 0.1405 0.8722 0.0409
H157_13 H 0.1193 0.7215 0.0785
H158_13 H 0.1452 0.7203 0.0819
H159_13 H 0.1308 0.7184 0.1316
H160_13 H 0.1423 0.8160 0.1312
H161_13 H 0.1507 0.8033 0.1797
H162_13 H 0.1659 0.8050 0.1312
Ag31_5 Ag 0.20850(2) 0.725362(17) 0.26707(4)
Ag33_9 Ag 0.236160(18) 0.747890(19) 0.17098(4)
Ag2_9 Ag 0.26306(2) 0.715230(17) 0.25636(4)
Ag7_13 Ag 0.172170(17) 0.910900(17) 0.81315(4)
Ag8_5 Ag 0.184820(16) 0.964850(16) 0.81096(4)
Ag9_5 Ag 0.151580(16) 0.944950(17) 0.90085(4)
Ag13_13 Ag 0.209220(14) 0.595130(16) 0.43872(4)
Ag14_13 Ag 0.190200(15) 0.631240(15) 0.51666(4)
Ag15_13 Ag 0.165090(14) 0.582390(15) 0.51653(4)
Ag22_13 Ag 0.081150(17) 0.687440(18) 0.71019(4)
Ag23_13 Ag 0.029740(17) 0.702950(18) 0.71634(4)
Ag24_13 Ag 0.045410(17) 0.671810(18) 0.61489(5)
Ag26_13 Ag 0.085920(17) 0.801800(19) 0.94712(5)
N1_13 N 0.2241(2) 0.70562(19) 0.3189(4)
N2_13 N 0.2455(2) 0.7002(2) 0.3120(4)
N11_5 N 0.17391(15) 0.48108(16) 0.3496(4)
N12_5 N 0.16985(17) 0.49481(17) 0.3099(4)
N13_13 N 0.19375(19) 0.92241(18) 0.7603(4)
N14_13 N 0.19823(18) 0.94417(17) 0.7598(4)
N15_9 N 0.26455(18) 0.92371(17) 0.6167(4)
N16_9 N 0.27337(18) 0.91140(18) 0.6541(4)
N17_13 N 0.14413(17) 0.91270(18) 0.9037(4)
N18_13 N 0.15170(19) 0.8993(2) 0.8671(5)
N25_13 N 0.22084(16) 0.62632(17) 0.4324(4)
N26_13 N 0.21409(16) 0.64090(18) 0.4673(4)
N27_13 N 0.16234(16) 0.62682(16) 0.5569(4)
N28_13 N 0.15071(17) 0.60754(16) 0.5557(4)
N29_13 N 0.17803(14) 0.55933(16) 0.4689(4)
N30_13 N 0.19559(15) 0.56501(16) 0.4389(4)
N43_13 N 0.07180(19) 0.7074(2) 0.7686(5)
N44_13 N 0.05093(17) 0.71390(18) 0.7691(4)
N45_13 N 0.00797(16) 0.69473(18) 0.6618(4)
N46_13 N 0.01362(18) 0.6822(2) 0.6214(5)
N47_13 N 0.07770(15) 0.66319(17) 0.6112(4)
N48_13 N 0.09047(19) 0.66803(18) 0.6510(5)
N49_13 N 0.11433(18) 0.83324(19) 0.9973(5)
N50_13 N 0.10090(18) 0.8316(2) 0.9572(5)
N51_13 N 0.07617(17) 0.77125(18) 0.9287(4)
N52_13 N 0.08092(18) 0.75308(18) 0.9559(5)
C1_13 C 0.1920(2) 0.6946(3) 0.3656(6)
C2_13 C 0.2158(2) 0.6925(2) 0.3527(5)
C3_13 C 0.2306(2) 0.6775(2) 0.3680(5)
C4_13 C 0.2502(2) 0.6830(2) 0.3433(5)
C5_13 C 0.2714(2) 0.6733(2) 0.3449(6)
C10_13 C 0.0050(2) 0.9767(3) 0.3250(5)
C26_13 C 0.1844(2) 0.4823(3) 0.4387(5)
C27_13 C 0.17940(18) 0.4926(2) 0.3902(5)
C28_13 C 0.17829(19) 0.51470(18) 0.3773(5)
C29_13 C 0.17230(19) 0.51552(18) 0.3283(5)
C30_13 C 0.1680(2) 0.5344(3) 0.2954(5)
C31_13 C 0.2062(2) 0.8886(2) 0.7245(6)
C32_13 C 0.2076(2) 0.9124(2) 0.7310(5)
C33_13 C 0.2213(2) 0.9270(2) 0.7087(5)
C34_13 C 0.2152(2) 0.94690(18) 0.7280(5)
C35_13 C 0.2241(2) 0.9692(2) 0.7191(5)
C36_13 C 0.2317(2) 0.9445(2) 0.5967(6)
C37_13 C 0.24501(18) 0.9304(2) 0.6298(5)
C38_13 C 0.24056(17) 0.9226(2) 0.6775(5)
C39_13 C 0.2589(2) 0.9105(2) 0.6906(4)
C40_13 C 0.2634(3) 0.8994(3) 0.7388(5)
C41_13 C 0.1235(2) 0.9100(2) 0.9818(5)
C42_13 C 0.13310(19) 0.9008(2) 0.9361(4)
C43_13 C 0.1331(2) 0.8785(2) 0.9211(5)
C44_13 C 0.1451(2) 0.8790(3) 0.8764(5)
C45_13 C 0.1511(3) 0.8601(3) 0.8445(7)
C61_13 C 0.2373(2) 0.6252(3) 0.3471(5)
C62_13 C 0.22910(19) 0.6370(2) 0.3923(5)
C63_13 C 0.2276(2) 0.65930(19) 0.4032(5)
C64_13 C 0.2181(2) 0.6610(2) 0.4506(4)
C65_13 C 0.21210(19) 0.6802(2) 0.4815(5)
C66_13 C 0.1567(2) 0.6656(3) 0.5762(7)
C67_13 C 0.1489(2) 0.6421(2) 0.5716(5)
C68_13 C 0.1283(2) 0.63440(18) 0.5809(5)
C69_13 C 0.12988(18) 0.61209(17) 0.5693(5)
C70_13 C 0.1129(2) 0.5950(2) 0.5706(6)
C71_13 C 0.1512(2) 0.5303(2) 0.4789(6)
C72_13 C 0.16980(18) 0.5405(2) 0.4525(5)
C73_13 C 0.18224(19) 0.53362(19) 0.4103(5)
C74_13 C 0.1976(2) 0.5493(2) 0.4046(5)
C75_13 C 0.2150(2) 0.5512(2) 0.3654(6)
C106_13 C 0.1059(2) 0.7119(3) 0.8182(6)
C107_13 C 0.08200(19) 0.7158(2) 0.8082(5)
C108_13 C 0.0673(2) 0.7285(2) 0.8367(5)
C109_13 C 0.0477(2) 0.7264(2) 0.8096(5)
C110_13 C 0.0261(2) 0.7361(2) 0.8199(5)
C116_13 C 0.0801(2) 0.6437(3) 0.5313(6)
C117_13 C 0.0891(2) 0.6501(2) 0.5801(6)
C118_13 C 0.1095(2) 0.6465(2) 0.5999(5)
C119_13 C 0.10974(19) 0.6583(2) 0.6448(5)
C120_13 C 0.1273(2) 0.6612(3) 0.6843(6)
C122_13 C 0.1269(2) 0.8507(3) 0.9907(5)
C123_13 C 0.12230(19) 0.8600(2) 0.9460(5)
C124_13 C 0.1061(2) 0.8476(3) 0.9247(6)
C125_13 C 0.0947(3) 0.8497(3) 0.8757(7)
C126_13 C 0.0640(2) 0.7794(3) 0.8435(7)
C127_13 C 0.0699(2) 0.7641(2) 0.8823(6)
C128_13 C 0.0713(2) 0.7416(2) 0.8812(5)
C129_13 C 0.0782(2) 0.7354(2) 0.9288(6)
C130_13 C 0.0827(2) 0.7133(3) 0.9489(6)
H1_13 H 0.1858 0.7071 0.3478
H2_13 H 0.1843 0.6814 0.3556
H3_13 H 0.1904 0.6967 0.4017
H4_13 H 0.2811 0.6811 0.3221
H5_13 H 0.2772 0.6742 0.3790
H6_13 H 0.2704 0.6581 0.3346
H10_13 H 0.0103 0.9915 0.3313
H11_13 H 0.0174 0.9670 0.3202
H31_13 H 0.1840 0.4665 0.4351
H32_13 H 0.1988 0.4868 0.4498
H33_13 H 0.1735 0.4868 0.4635
H34_13 H 0.1640 0.5293 0.2620
H35_13 H 0.1560 0.5430 0.3093
H36_13 H 0.1811 0.5434 0.2933
H37_13 H 0.1946 0.8828 0.7457
H38_13 H 0.2201 0.8820 0.7340
H39_13 H 0.2031 0.8853 0.6894
H40_13 H 0.2158 0.9798 0.7385
H41_13 H 0.2231 0.9727 0.6834
H42_13 H 0.2394 0.9697 0.7294
H43_13 H 0.2395 0.9472 0.5655
H44_13 H 0.2288 0.9583 0.6136
H45_13 H 0.2179 0.9372 0.5893
H46_13 H 0.2775 0.8921 0.7370
H47_13 H 0.2520 0.8887 0.7454
H48_13 H 0.2637 0.9102 0.7659
H49_13 H 0.1261 0.9256 0.9826
H51_13 H 0.1079 0.9072 0.9822
H52_13 H 0.1597 0.8651 0.8160
H53_13 H 0.1379 0.8530 0.8323
H54_13 H 0.1596 0.8497 0.8643
H73_13 H 0.2363 0.6095 0.3527
H74_13 H 0.2285 0.6291 0.3180
H75_13 H 0.2525 0.6292 0.3409
H76_13 H 0.2056 0.6753 0.5130
H77_13 H 0.2251 0.6888 0.4886
H78_13 H 0.2016 0.6892 0.4632
H79_13 H 0.1723 0.6663 0.5683
H80_13 H 0.1486 0.6748 0.5529
H81_13 H 0.1544 0.6707 0.6105
H82_13 H 0.1193 0.5811 0.5607
H83_13 H 0.1071 0.5939 0.6046
H84_13 H 0.1012 0.5988 0.5475
H85_13 H 0.1466 0.5397 0.5066
H86_13 H 0.1391 0.5283 0.4556
H87_13 H 0.1556 0.5162 0.4922
H88_13 H 0.2235 0.5644 0.3714
H89_13 H 0.2245 0.5385 0.3670
H90_13 H 0.2083 0.5520 0.3323
H104_13 H 0.0056 0.9026 0.3961
H127_13 H 0.1119 0.7025 0.7920
H128_13 H 0.1076 0.7048 0.8508
H129_13 H 0.1136 0.7258 0.8184
H130_13 H 0.0159 0.7319 0.7934
H131_13 H 0.0273 0.7520 0.8208
H132_13 H 0.0207 0.7309 0.8522
H136_13 H 0.0127 0.6623 0.5415
H139_13 H 0.0651 0.6488 0.5286
H140_13 H 0.0805 0.6279 0.5282
H141_13 H 0.0889 0.6502 0.5045
H142_13 H 0.1217 0.6703 0.7114
H143_13 H 0.1400 0.6681 0.6693
H144_13 H 0.1313 0.6470 0.6978
H148_13 H 0.0837 0.8383 0.8727
H149_13 H 0.0877 0.8640 0.8737
H150_13 H 0.1052 0.8482 0.8485
H151_13 H 0.0650 0.7942 0.8566
H152_13 H 0.0739 0.7778 0.8151
H153_13 H 0.0491 0.7765 0.8325
H154_13 H 0.0874 0.7145 0.9839
H155_13 H 0.0695 0.7045 0.9471
H156_13 H 0.0943 0.7065 0.9291
Ag34_5 Ag 0.150850(15) 0.484880(15) 0.25159(4)
Ag36_5 Ag 0.169600(16) 0.448080(14) 0.33965(4)
Ag37_9 Ag 0.285150(16) 0.934820(16) 0.56096(4)
Ag38_9 Ag 0.305050(17) 0.901580(16) 0.65085(4)
N61_9 N 0.27910(17) 0.7275(2) 0.1948(4)
N67_5 N 0.17371(17) 0.98545(18) 0.8667(4)
N68_5 N 0.16140(18) 0.97663(18) 0.9041(4)
Ag3_5 Ag 0.997890(19) 0.013840(18) 0.42098(4)
Ag4_9 Ag 0.765120(15) 0.900850(15) 0.00159(4)
Ag12_5 Ag 0.762870(15) 0.622230(16) 0.01162(4)
H67_13 H 0.7809 0.6669 0.0161
H68_13 H 0.7705 0.6901 0.0039
N64_5 N 0.83924(16) 0.89609(16) 0.0492(4)
N66_9 N 0.75519(17) 0.91985(17) 0.0599(4)
N69_5 N 0.76284(16) 0.57587(15) 0.0417(4)
N70_5 N 0.77187(17) 0.59556(16) 0.0538(4)
Ag5_5 Ag 0.817660(15) 0.886360(15) 0.99430(4)
Ag6_9 Ag 0.801920(14) 0.919600(16) 0.08965(4)
Ag10_13 Ag 0.724480(14) 0.612630(15) 0.91925(4)
Ag11_5 Ag 0.738770(15) 0.571880(15) 0.98984(4)
Ag16_13 Ag 0.943460(16) 0.903260(15) 0.21881(4)
Ag17_13 Ag 0.924890(17) 0.852350(16) 0.22177(4)
Ag18_13 Ag 0.960610(17) 0.866910(16) 0.31039(4)
Ag19_13 Ag 0.894280(15) 0.722480(15) 0.57006(4)
Ag20_13 Ag 0.925490(16) 0.738140(16) 0.47503(4)
Ag21_13 Ag 0.875350(16) 0.759390(16) 0.47973(4)
Ag28_13 Ag 0.772740(14) 0.732440(15) 0.75238(4)
Ag29_13 Ag 0.778020(14) 0.786860(15) 0.74496(3)
Ag30_13 Ag 0.756630(14) 0.763480(16) 0.85064(4)
N3_5 N 0.9775(2) 0.97090(17) 0.4448(4)
N4_13 N 0.98982(18) 0.98183(16) 0.4098(4)
N7_13 N 0.77412(15) 0.87750(16) 0.9505(4)
N8_13 N 0.79565(14) 0.87294(14) 0.9453(4)
N10_13 N 0.83396(15) 0.91032(16) 0.0858(4)
N19_13 N 0.70792(15) 0.58415(15) 0.9094(4)
N20_13 N 0.71485(15) 0.56662(15) 0.9374(4)
N21_9 N 0.67413(15) 0.51284(16) 0.7917(4)
N22_9 N 0.65444(16) 0.52187(17) 0.8038(4)
N23_13 N 0.75545(17) 0.64643(17) 0.9601(4)
N24_13 N 0.74120(15) 0.64115(17) 0.9243(4)
N31_13 N 0.91934(16) 0.89448(16) 0.1683(4)
N32_13 N 0.91301(17) 0.87329(18) 0.1681(4)
N33_13 N 0.92962(17) 0.83188(17) 0.2826(4)
N34_13 N 0.94490(18) 0.8375(2) 0.3171(4)
N35_13 N 0.97175(17) 0.89876(17) 0.3113(4)
N36_13 N 0.96292(17) 0.91360(16) 0.2776(4)
N37_13 N 0.92576(17) 0.71096(17) 0.5683(4)
N38_13 N 0.93858(17) 0.71940(19) 0.5304(5)
N39_13 N 0.91675(17) 0.76119(16) 0.4227(4)
N40_13 N 0.89651(17) 0.77092(18) 0.4251(5)
N41_13 N 0.85656(16) 0.75114(17) 0.5407(4)
N42_13 N 0.86423(15) 0.73629(16) 0.5752(4)
N55_13 N 0.78603(15) 0.74541(15) 0.6889(4)
N56_13 N 0.79014(15) 0.76756(16) 0.6872(4)
N57_13 N 0.77048(15) 0.80571(16) 0.8070(4)
N58_13 N 0.76043(17) 0.79700(17) 0.8473(4)
N59_13 N 0.75828(15) 0.73005(16) 0.8589(4)
N60_13 N 0.76473(16) 0.71794(16) 0.8195(4)
C6_13 C 0.9597(2) 0.9363(3) 0.4553(6)
C7_13 C 0.9727(2) 0.9514(2) 0.4256(5)
C8_13 C 0.9813(2) 0.9494(2) 0.3776(5)
C9_13 C 0.9917(2) 0.9691(2) 0.3696(5)
C16_13 C 0.73922(18) 0.8658(2) 0.9188(6)
C17_13 C 0.76263(18) 0.86343(19) 0.9220(4)
C18_13 C 0.77691(18) 0.84900(18) 0.8985(4)
C19_13 C 0.7973(2) 0.85562(19) 0.9152(5)
C20_13 C 0.8195(2) 0.8459(2) 0.9039(5)
C21_13 C 0.8695(2) 0.8719(3) 0.0242(6)
C22_13 C 0.85952(19) 0.8881(2) 0.0582(5)
C23_13 C 0.86740(18) 0.89719(17) 0.1020(5)
C24_13 C 0.8508(2) 0.9114(2) 0.1181(5)
C25_13 C 0.8492(2) 0.9258(2) 0.1627(5)
C46_13 C 0.6841(2) 0.5921(2) 0.8375(5)
C47_13 C 0.69424(18) 0.57676(18) 0.8750(5)
C48_13 C 0.6919(2) 0.5545(2) 0.8799(4)
C49_13 C 0.7052(2) 0.54870(19) 0.9206(4)
C50_13 C 0.70960(19) 0.5275(2) 0.9437(5)
C51_13 C 0.7130(2) 0.5179(3) 0.8109(6)
C52_13 C 0.68980(18) 0.5232(2) 0.8181(5)
C53_13 C 0.6802(2) 0.5395(2) 0.8472(5)
C54_13 C 0.6578(2) 0.53805(17) 0.8376(5)
C55_13 C 0.6399(2) 0.5508(2) 0.8580(6)
C56_13 C 0.7776(3) 0.6773(3) 0.9895(7)
C57_13 C 0.7629(2) 0.6670(2) 0.9523(5)
C58_13 C 0.7533(2) 0.6746(2) 0.9079(5)
C59_13 C 0.7394(2) 0.6580(2) 0.8931(5)
C60_13 C 0.7245(2) 0.6579(2) 0.8481(5)
C76_13 C 0.90630(19) 0.9302(2) 0.1363(5)
C77_13 C 0.9039(2) 0.90640(17) 0.1432(4)
C78_13 C 0.8872(2) 0.89240(19) 0.1284(5)
C79_13 C 0.8939(2) 0.8719(2) 0.1440(5)
C80_13 C 0.8823(2) 0.8505(2) 0.1406(6)
C81_13 C 0.9002(2) 0.8062(2) 0.2682(6)
C82_13 C 0.91849(19) 0.81565(19) 0.3004(6)
C83_13 C 0.9258(2) 0.8096(2) 0.3468(5)
C84_13 C 0.9427(2) 0.8243(2) 0.3568(5)
C85_13 C 0.9566(3) 0.8259(3) 0.4019(5)
C86_13 C 0.9904(2) 0.8979(2) 0.3930(5)
C87_13 C 0.9799(2) 0.90970(19) 0.3503(4)
C88_13 C 0.9768(2) 0.9315(2) 0.3417(5)
C89_13 C 0.9663(2) 0.9328(2) 0.2962(5)
C90_13 C 0.9588(2) 0.9522(2) 0.2669(5)
C91_13 C 0.9295(2) 0.6897(2) 0.6457(5)
C92_13 C 0.9388(2) 0.6996(2) 0.6009(5)
C93_13 C 0.96020(18) 0.7015(2) 0.5849(5)
C94_13 C 0.95870(18) 0.7137(2) 0.5407(5)
C95_13 C 0.9769(3) 0.7217(3) 0.5079(6)
C96_13 C 0.9519(2) 0.7672(3) 0.3850(7)
C97_13 C 0.9289(2) 0.7739(2) 0.3945(5)
C98_13 C 0.9180(2) 0.79144(19) 0.3776(5)
C99_13 C 0.8970(2) 0.7890(2) 0.3985(5)
C100_13 C 0.8780(2) 0.8037(3) 0.3952(6)
C101_13 C 0.8237(2) 0.7724(2) 0.5235(5)
C102_13 C 0.83677(19) 0.7574(2) 0.5559(4)
C103_13 C 0.83146(18) 0.74823(18) 0.6010(4)
C104_13 C 0.8493(2) 0.73481(18) 0.6122(4)
C105_13 C 0.8545(2) 0.7207(2) 0.6570(5)
C111_13 C 0.9775(2) 0.7173(3) 0.6922(6)
C112_13 C 0.9879(2) 0.7021(2) 0.6547(5)
C113_13 C 0.9800(2) 0.6946(2) 0.6094(5)
C114_13 C 0.9968(2) 0.6822(2) 0.5901(5)
C115_13 C 0.9984(2) 0.6691(3) 0.5435(7)
C136_13 C 0.79950(18) 0.7117(2) 0.6498(5)
C137_13 C 0.7999(2) 0.73570(19) 0.6569(5)
C138_13 C 0.81269(18) 0.75152(19) 0.6334(4)
C139_13 C 0.80584(17) 0.77080(19) 0.6537(4)
C140_13 C 0.81350(18) 0.7936(2) 0.6443(4)
C141_13 C 0.7897(2) 0.8398(2) 0.7837(5)
C142_13 C 0.77760(19) 0.8255(2) 0.8193(4)
C143_13 C 0.77134(16) 0.82974(17) 0.8695(5)
C144_13 C 0.7607(2) 0.8111(2) 0.8843(5)
C145_13 C 0.7510(2) 0.8058(3) 0.9346(6)
C146_13 C 0.7449(2) 0.7249(2) 0.9448(5)
C147_13 C 0.75370(19) 0.7164(2) 0.8970(5)
C148_13 C 0.7571(2) 0.6950(2) 0.8810(5)
C149_13 C 0.76375(18) 0.69700(19) 0.8326(5)
C150_13 C 0.7711(2) 0.6799(3) 0.7955(6)
H7_13 H 0.9565 0.9428 0.4879
H8_13 H 0.9460 0.9332 0.4377
H9_13 H 0.9677 0.9227 0.4602
H12_13 H 0.9960 0.9767 0.2950
H19_13 H 0.7345 0.8779 0.9401
H20_13 H 0.7351 0.8687 0.8841
H21_13 H 0.7322 0.8524 0.9300
H22_13 H 0.8307 0.8544 0.9207
H23_13 H 0.8199 0.8309 0.9161
H24_13 H 0.8220 0.8461 0.8678
H26_13 H 0.8831 0.8777 0.0108
H27_13 H 0.8724 0.8585 0.0426
H28_13 H 0.8353 0.9336 0.1622
H29_13 H 0.8502 0.9171 0.1932
H30_13 H 0.8612 0.9364 0.1622
H55_13 H 0.6889 0.6069 0.8444
H56_13 H 0.6683 0.5913 0.8402
H57_13 H 0.6885 0.5879 0.8037
H58_13 H 0.7197 0.5293 0.9717
H59_13 H 0.7161 0.5177 0.9188
H60_13 H 0.6960 0.5212 0.9558
H61_13 H 0.7144 0.5056 0.7878
H62_13 H 0.7195 0.5140 0.8431
H63_13 H 0.7206 0.5305 0.7969
H64_13 H 0.6262 0.5458 0.8433
H65_13 H 0.6421 0.5661 0.8501
H66_13 H 0.6394 0.5489 0.8944
H69_13 H 0.7911 0.6818 0.9729
H70_13 H 0.7166 0.6441 0.8469
H71_13 H 0.7331 0.6596 0.8176
H72_13 H 0.7141 0.6699 0.8508
H91_13 H 0.9200 0.9350 0.1513
H92_13 H 0.9064 0.9336 0.1005
H93_13 H 0.8942 0.9377 0.1525
H94_13 H 0.8914 0.8391 0.1555
H95_13 H 0.8685 0.8513 0.1586
H96_13 H 0.8796 0.8470 0.1054
H97_13 H 0.8993 0.8143 0.2368
H98_13 H 0.9033 0.7909 0.2610
H99_13 H 0.8864 0.8073 0.2862
H100_13 H 0.9671 0.8377 0.3975
H101_13 H 0.9475 0.8289 0.4312
H102_13 H 0.9644 0.8121 0.4069
H103_13 H 0.9899 0.8823 0.3869
H105_13 H 0.9827 0.9013 0.4241
H106_13 H 0.9521 0.9474 0.2356
H107_13 H 0.9481 0.9604 0.2866
H108_13 H 0.9713 0.9615 0.2595
H109_13 H 0.9137 0.6916 0.6455
H110_13 H 0.9356 0.6966 0.6755
H111_13 H 0.9330 0.6741 0.6460
H112_13 H 0.9708 0.7296 0.4793
H113_13 H 0.9853 0.7093 0.4958
H114_13 H 0.9863 0.7314 0.5271
H115_13 H 0.9548 0.7534 0.4021
H116_13 H 0.9617 0.7784 0.3979
H117_13 H 0.9542 0.7655 0.3490
H118_13 H 0.8658 0.7974 0.4136
H119_13 H 0.8740 0.8056 0.3600
H120_13 H 0.8818 0.8178 0.4097
H121_13 H 0.8321 0.7763 0.4937
H122_13 H 0.8202 0.7856 0.5423
H123_13 H 0.8102 0.7652 0.5133
H124_13 H 0.8687 0.7138 0.6521
H125_13 H 0.8433 0.7096 0.6608
H126_13 H 0.8550 0.7298 0.6872
H133_13 H 0.9872 0.7193 0.7208
H134_13 H 0.9637 0.7111 0.7036
H135_13 H 0.9748 0.7314 0.6763
H137_13 H 0.9963 0.6786 0.5144
H138_13 H 0.9872 0.6578 0.5437
H163_13 H 0.7884 0.7053 0.6717
H164_13 H 0.7960 0.7083 0.6149
H165_13 H 0.8138 0.7056 0.6582
H166_13 H 0.8051 0.8037 0.6651
H167_13 H 0.8289 0.7948 0.6529
H168_13 H 0.8115 0.7973 0.6090
H169_13 H 0.7913 0.8324 0.7516
H170_13 H 0.7816 0.8533 0.7789
H171_13 H 0.8040 0.8431 0.7975
H172_13 H 0.7445 0.7913 0.9334
H173_13 H 0.7624 0.8062 0.9601
H174_13 H 0.7398 0.8165 0.9428
H175_13 H 0.7448 0.7408 0.9439
H176_13 H 0.7300 0.7195 0.9495
H177_13 H 0.7540 0.7199 0.9725
H178_13 H 0.7749 0.6868 0.7638
H179_13 H 0.7837 0.6722 0.8089
H180_13 H 0.7592 0.6695 0.7898
Ag32_5 Ag 0.965230(17) 0.98694(2) 0.50636(4)
Ag39_9 Ag 0.678120(15) 0.488770(15) 0.73984(4)
Ag40_9 Ag 0.627770(16) 0.512870(15) 0.76162(4)
N65_9 N 0.76892(16) 0.92391(15) 0.0996(4)
H25_13 H 0.8595 0.8688 0.9965
Ag2_10 Ag 0.534770(17) 0.01306(2) 0.00636(4)
N15_10 N 0.32629(17) 0.01455(18) 0.3667(4)
N16_10 N 0.33860(18) 0.02337(18) 0.4041(4)
C4_14 C 0.5670(2) 0.0002(2) 0.0933(5)
C5_14 C 0.5767(2) 0.0214(2) 0.0949(6)
C39_14 C 0.3395(2) 0.0089(2) 0.4406(4)
C40_14 C 0.3506(3) 0.0134(3) 0.4888(5)
H4_14 H 0.5689 0.0311 0.0721
H5_14 H 0.5758 0.0272 0.1290
H6_14 H 0.5919 0.0204 0.0846
H46_14 H 0.3579 0.0275 0.4870
H47_14 H 0.3613 0.0020 0.4954
H48_14 H 0.3398 0.0137 0.5159
H75_14 H 0.6208 0.0025 0.0909
Ag37_10 Ag 0.315180(16) 0.035150(16) 0.31096(4)
Ag38_10 Ag 0.348420(16) 0.055050(17) 0.40085(4)
N61_10 N 0.5225(2) 0.02910(17) 0.9448(4)
H16_14 H 0.5266 0.9106 0.0077
Ag31_6 Ag 0.524638(17) 0.95850(2) 0.01707(4)
Ag4_10 Ag 0.349150(15) 0.515120(15) 0.75159(4)
Ag5_6 Ag 0.363640(15) 0.567660(15) 0.74430(4)
Ag7_14 Ag 0.339100(17) 0.922170(17) 0.56315(4)
Ag10_14 Ag 0.637370(15) 0.474480(14) 0.66925(4)
Ag13_14 Ag 0.654870(16) 0.959220(14) 0.18872(4)
Ag14_14 Ag 0.618760(15) 0.940200(15) 0.26666(4)
Ag15_14 Ag 0.667610(15) 0.915090(14) 0.26653(4)
Ag18_14 Ag 0.383090(16) 0.710610(17) 0.06039(4)
Ag19_14 Ag 0.527520(15) 0.644280(15) 0.32006(4)
Ag20_14 Ag 0.511860(16) 0.675490(16) 0.22503(4)
Ag21_14 Ag 0.490610(16) 0.625350(16) 0.22973(4)
Ag22_14 Ag 0.562560(18) 0.831150(17) 0.46019(4)
Ag23_14 Ag 0.547050(18) 0.779740(17) 0.46634(4)
Ag24_14 Ag 0.578190(18) 0.795410(17) 0.36489(5)
Ag25_14 Ag 0.44104(2) 0.865130(17) 0.79987(5)
Ag26_14 Ag 0.448200(19) 0.835920(17) 0.69712(5)
Ag27_14 Ag 0.492750(18) 0.847280(17) 0.77413(4)
Ag28_14 Ag 0.517560(15) 0.522740(14) 0.50238(4)
Ag29_14 Ag 0.463140(15) 0.528020(14) 0.49496(3)
Ag30_14 Ag 0.486520(16) 0.506630(14) 0.60064(4)
N1_14 N 0.54438(19) 0.9741(2) 0.0689(4)
N2_14 N 0.5498(2) 0.9955(2) 0.0620(4)
N4_14 N 0.26817(16) 0.73982(18) 0.1598(4)
N5_10 N 0.49736(18) 0.9533(2) 0.9266(5)
N6_6 N 0.50902(19) 0.9415(2) 0.9613(4)
N7_14 N 0.37250(16) 0.52412(15) 0.7005(4)
N8_14 N 0.37706(14) 0.54565(14) 0.6953(4)
N13_14 N 0.32759(18) 0.94375(19) 0.5103(4)
N14_14 N 0.30583(17) 0.94823(18) 0.5098(4)
N17_14 N 0.33730(18) 0.89413(17) 0.6537(4)
N18_14 N 0.3507(2) 0.90170(19) 0.6171(5)
N19_14 N 0.66585(15) 0.45792(15) 0.6594(4)
N20_14 N 0.68338(15) 0.46485(15) 0.6874(4)
N21_10 N 0.73716(16) 0.42413(15) 0.5417(4)
N22_10 N 0.72813(17) 0.40444(16) 0.5538(4)
N23_14 N 0.60357(17) 0.50545(17) 0.7101(4)
N24_14 N 0.60885(17) 0.49120(15) 0.6743(4)
N25_14 N 0.62368(17) 0.97084(16) 0.1824(4)
N26_14 N 0.60910(18) 0.96409(16) 0.2173(4)
N27_14 N 0.62318(16) 0.91234(16) 0.3069(4)
N28_14 N 0.64246(16) 0.90071(17) 0.3057(4)
N29_14 N 0.69067(16) 0.92803(14) 0.2189(4)
N30_14 N 0.68499(16) 0.94559(15) 0.1889(4)
N33_14 N 0.41812(17) 0.67962(17) 0.0326(4)
N34_14 N 0.4125(2) 0.69490(18) 0.0671(4)
N35_14 N 0.35124(17) 0.72175(17) 0.0613(4)
N36_14 N 0.33640(16) 0.71292(17) 0.0276(4)
N37_14 N 0.53904(17) 0.67576(17) 0.3183(4)
N38_14 N 0.53060(19) 0.68858(17) 0.2804(5)
N39_14 N 0.48881(16) 0.66675(17) 0.1727(4)
N40_14 N 0.47908(18) 0.64651(17) 0.1751(5)
N41_14 N 0.49886(17) 0.60656(16) 0.2907(4)
N42_14 N 0.51371(16) 0.61423(15) 0.3252(4)
N43_14 N 0.5426(2) 0.82180(19) 0.5186(5)
N44_14 N 0.53610(18) 0.80093(17) 0.5191(4)
N45_14 N 0.55527(18) 0.75797(16) 0.4118(4)
N46_14 N 0.5678(2) 0.76362(18) 0.3714(5)
N47_14 N 0.58681(17) 0.82770(15) 0.3612(4)
N48_14 N 0.58197(18) 0.84047(19) 0.4010(5)
N49_14 N 0.41676(19) 0.86433(18) 0.7473(5)
N50_14 N 0.4184(2) 0.85090(18) 0.7072(5)
N51_14 N 0.47875(18) 0.82617(17) 0.6787(4)
N52_14 N 0.49692(18) 0.83092(18) 0.7059(5)
N53_14 N 0.48808(19) 0.86875(17) 0.8330(4)
N54_14 N 0.4670(2) 0.87350(17) 0.8448(5)
N55_14 N 0.50459(15) 0.53603(15) 0.4389(4)
N56_14 N 0.48244(16) 0.54014(15) 0.4372(4)
N57_14 N 0.44429(16) 0.52048(15) 0.5570(4)
N58_14 N 0.45300(17) 0.51043(17) 0.5973(4)
N59_14 N 0.51995(16) 0.50828(15) 0.6089(4)
N60_14 N 0.53206(16) 0.51473(16) 0.5695(4)
C1_14 C 0.5554(3) 0.9420(2) 0.1156(6)
C2_14 C 0.5575(2) 0.9658(2) 0.1027(5)
C3_14 C 0.5725(2) 0.9806(2) 0.1180(5)
C6_14 C 0.3137(3) 0.7097(2) 0.2053(6)
C7_14 C 0.2986(2) 0.7227(2) 0.1756(5)
C8_14 C 0.3006(2) 0.7313(2) 0.1276(5)
C9_14 C 0.2809(2) 0.7417(2) 0.1196(5)
C10_14 C 0.2733(3) 0.7550(2) 0.0750(5)
C11_14 C 0.4757(3) 0.9473(3) 0.8512(6)
C12_14 C 0.4883(3) 0.9388(3) 0.8937(5)
C13_14 C 0.4940(2) 0.9182(2) 0.9067(5)
C14_14 C 0.5073(2) 0.9207(2) 0.9489(5)
C15_14 C 0.5186(2) 0.9035(3) 0.9805(6)
C16_14 C 0.3842(2) 0.48922(18) 0.6688(6)
C17_14 C 0.38657(19) 0.51263(18) 0.6720(4)
C18_14 C 0.40100(18) 0.52691(18) 0.6485(4)
C19_14 C 0.39438(19) 0.5473(2) 0.6652(5)
C20_14 C 0.4041(2) 0.5695(2) 0.6539(5)
C26_14 C 0.7677(3) 0.9344(2) 0.1887(5)
C27_14 C 0.7574(2) 0.92940(18) 0.1402(5)
C28_14 C 0.73530(18) 0.92829(19) 0.1273(5)
C29_14 C 0.73448(18) 0.92230(19) 0.0783(5)
C30_14 C 0.7156(3) 0.9180(2) 0.0454(5)
C31_14 C 0.3614(2) 0.9562(2) 0.4745(6)
C32_14 C 0.3376(2) 0.9576(2) 0.4810(5)
C33_14 C 0.3230(2) 0.9713(2) 0.4587(5)
C34_14 C 0.30310(18) 0.9652(2) 0.4780(5)
C35_14 C 0.2808(2) 0.9741(2) 0.4691(5)
C36_14 C 0.3055(2) 0.9817(2) 0.3467(6)
C37_14 C 0.3196(2) 0.99501(18) 0.3798(5)
C38_14 C 0.3274(2) 0.99056(17) 0.4275(5)
C41_14 C 0.3400(2) 0.8735(2) 0.7318(5)
C42_14 C 0.3492(2) 0.88310(19) 0.6861(4)
C43_14 C 0.3715(2) 0.8831(2) 0.6711(5)
C44_14 C 0.3710(3) 0.8951(2) 0.6264(5)
C45_14 C 0.3899(3) 0.9011(3) 0.5945(7)
C46_14 C 0.6579(2) 0.4341(2) 0.5875(5)
C47_14 C 0.67324(18) 0.44424(18) 0.6250(5)
C48_14 C 0.6955(2) 0.4419(2) 0.6299(4)
C49_14 C 0.70130(19) 0.4552(2) 0.6706(4)
C50_14 C 0.7225(2) 0.45960(19) 0.6937(5)
C51_14 C 0.7321(3) 0.4630(2) 0.5609(6)
C52_14 C 0.7268(2) 0.43980(18) 0.5681(5)
C53_14 C 0.7105(2) 0.4302(2) 0.5972(5)
C54_14 C 0.71195(17) 0.4078(2) 0.5876(5)
C55_14 C 0.6992(2) 0.3899(2) 0.6080(6)
C56_14 C 0.5727(3) 0.5276(3) 0.7395(7)
C57_14 C 0.5830(2) 0.5129(2) 0.7023(5)
C58_14 C 0.5754(2) 0.5033(2) 0.6579(5)
C59_14 C 0.5920(2) 0.4894(2) 0.6431(5)
C60_14 C 0.5921(2) 0.4745(2) 0.5981(5)
C61_14 C 0.6248(3) 0.9873(2) 0.0971(5)
C62_14 C 0.6130(2) 0.97910(19) 0.1423(5)
C63_14 C 0.59070(19) 0.9776(2) 0.1532(5)
C64_14 C 0.5890(2) 0.9681(2) 0.2006(4)
C65_14 C 0.5698(2) 0.96210(19) 0.2315(5)
C66_14 C 0.5844(3) 0.9067(2) 0.3262(7)
C67_14 C 0.6079(2) 0.8989(2) 0.3216(5)
C68_14 C 0.61560(18) 0.8783(2) 0.3309(5)
C69_14 C 0.63791(17) 0.87988(18) 0.3193(5)
C70_14 C 0.6550(2) 0.8629(2) 0.3206(6)
C71_14 C 0.7197(2) 0.9012(2) 0.2289(6)
C72_14 C 0.7095(2) 0.91980(18) 0.2025(5)
C73_14 C 0.71638(19) 0.93224(19) 0.1603(5)
C74_14 C 0.7007(2) 0.9476(2) 0.1546(5)
C75_14 C 0.6988(2) 0.9650(2) 0.1154(6)
C81_14 C 0.4438(2) 0.6502(2) 0.0182(6)
C82_14 C 0.43435(19) 0.66849(19) 0.0504(6)
C83_14 C 0.4404(2) 0.6758(2) 0.0968(5)
C84_14 C 0.4257(2) 0.6927(2) 0.1068(5)
C85_14 C 0.4241(3) 0.7066(3) 0.1519(5)
C86_14 C 0.3521(2) 0.7404(2) 0.1430(5)
C87_14 C 0.34030(19) 0.7299(2) 0.1003(4)
C88_14 C 0.3185(2) 0.7268(2) 0.0917(5)
C89_14 C 0.3172(2) 0.7163(2) 0.0462(5)
C90_14 C 0.2978(2) 0.7088(2) 0.0169(5)
C91_14 C 0.5603(2) 0.6795(2) 0.3957(5)
C92_14 C 0.5504(2) 0.6888(2) 0.3509(5)
C93_14 C 0.5485(2) 0.71020(18) 0.3349(5)
C94_14 C 0.5363(2) 0.70870(18) 0.2907(5)
C95_14 C 0.5283(3) 0.7269(3) 0.2579(6)
C96_14 C 0.4828(3) 0.7019(2) 0.1350(7)
C97_14 C 0.4761(2) 0.6789(2) 0.1445(5)
C98_14 C 0.45856(19) 0.6680(2) 0.1276(5)
C99_14 C 0.4610(2) 0.6470(2) 0.1485(5)
C100_14 C 0.4463(3) 0.6280(2) 0.1452(6)
C101_14 C 0.4776(2) 0.5737(2) 0.2735(5)
C102_14 C 0.4926(2) 0.58677(19) 0.3059(4)
C103_14 C 0.50177(18) 0.58146(18) 0.3510(4)
C104_14 C 0.51519(18) 0.5993(2) 0.3622(4)
C105_14 C 0.5293(2) 0.6045(2) 0.4070(5)
C106_14 C 0.5381(3) 0.8559(2) 0.5682(6)
C107_14 C 0.5342(2) 0.83200(19) 0.5582(5)
C108_14 C 0.5215(2) 0.8173(2) 0.5867(5)
C109_14 C 0.5236(2) 0.7977(2) 0.5596(5)
C110_14 C 0.5139(2) 0.7761(2) 0.5699(5)
C111_14 C 0.5327(3) 0.7275(2) 0.4422(6)
C112_14 C 0.5479(2) 0.7379(2) 0.4047(5)
C113_14 C 0.5554(2) 0.7300(2) 0.3594(5)
C114_14 C 0.5678(2) 0.7468(2) 0.3401(5)
C115_14 C 0.5809(3) 0.7484(2) 0.2935(7)
C116_14 C 0.6063(3) 0.8301(2) 0.2813(6)
C117_14 C 0.5999(2) 0.8391(2) 0.3301(6)
C118_14 C 0.6035(2) 0.8595(2) 0.3499(5)
C119_14 C 0.5917(2) 0.85974(19) 0.3948(5)
C120_14 C 0.5888(3) 0.8773(2) 0.4343(6)
C121_14 C 0.3926(3) 0.8937(3) 0.7793(6)
C122_14 C 0.3993(3) 0.8769(2) 0.7407(5)
C123_14 C 0.3900(2) 0.87230(19) 0.6960(5)
C124_14 C 0.4024(3) 0.8561(2) 0.6747(6)
C125_14 C 0.4003(3) 0.8447(3) 0.6257(7)
C126_14 C 0.4706(3) 0.8140(2) 0.5935(7)
C127_14 C 0.4859(2) 0.8199(2) 0.6323(6)
C128_14 C 0.5084(2) 0.8213(2) 0.6312(5)
C129_14 C 0.5146(2) 0.8282(2) 0.6788(6)
C130_14 C 0.5367(3) 0.8327(2) 0.6989(6)
C131_14 C 0.5247(3) 0.8819(2) 0.8488(7)
C132_14 C 0.5006(2) 0.8829(2) 0.8553(5)
C133_14 C 0.4881(2) 0.8982(2) 0.8806(5)
C134_14 C 0.4669(3) 0.8913(2) 0.8735(6)
C135_14 C 0.4464(3) 0.9009(2) 0.8931(6)
C136_14 C 0.5383(2) 0.54950(18) 0.3998(5)
C137_14 C 0.51430(19) 0.5499(2) 0.4069(5)
C138_14 C 0.49848(19) 0.56269(18) 0.3834(4)
C139_14 C 0.47920(19) 0.55584(17) 0.4037(4)
C140_14 C 0.4564(2) 0.56350(18) 0.3943(4)
C141_14 C 0.4102(2) 0.5397(2) 0.5337(5)
C142_14 C 0.4245(2) 0.52760(19) 0.5693(4)
C143_14 C 0.42026(17) 0.52134(16) 0.6195(5)
C144_14 C 0.4389(2) 0.5107(2) 0.6343(5)
C145_14 C 0.4442(3) 0.5010(2) 0.6846(6)
C146_14 C 0.5251(2) 0.4949(2) 0.6948(5)
C147_14 C 0.5336(2) 0.50370(19) 0.6470(5)
C148_14 C 0.5550(2) 0.5071(2) 0.6310(5)
C149_14 C 0.55300(19) 0.51375(18) 0.5826(5)
C150_14 C 0.5701(3) 0.5211(2) 0.5455(6)
H1_14 H 0.5429 0.9358 0.0978
H2_14 H 0.5686 0.9343 0.1056
H3_14 H 0.5533 0.9404 0.1517
H7_14 H 0.3072 0.7065 0.2379
H8_14 H 0.3168 0.6960 0.1877
H9_14 H 0.3273 0.7177 0.2102
H10_14 H 0.2585 0.7603 0.0813
H11_14 H 0.2830 0.7674 0.0702
H12_14 H 0.2733 0.7460 0.0450
H13_14 H 0.4750 0.9632 0.8534
H14_14 H 0.4828 0.9432 0.8199
H15_14 H 0.4610 0.9413 0.8521
H17_14 H 0.5078 0.8936 0.9945
H18_14 H 0.5288 0.8953 0.9595
H19_14 H 0.3721 0.4845 0.6901
H20_14 H 0.3813 0.4851 0.6341
H21_14 H 0.3976 0.4822 0.6800
H22_14 H 0.3956 0.5807 0.6707
H23_14 H 0.4191 0.5699 0.6661
H24_14 H 0.4039 0.5720 0.6178
H31_14 H 0.7835 0.9340 0.1851
H32_14 H 0.7632 0.9488 0.1998
H33_14 H 0.7632 0.9235 0.2135
H34_14 H 0.7207 0.9140 0.0120
H35_14 H 0.7070 0.9060 0.0593
H36_14 H 0.7066 0.9311 0.0433
H37_14 H 0.3672 0.9446 0.4957
H38_14 H 0.3680 0.9701 0.4840
H39_14 H 0.3647 0.9531 0.4394
H40_14 H 0.2702 0.9658 0.4885
H41_14 H 0.2773 0.9731 0.4334
H42_14 H 0.2803 0.9894 0.4794
H43_14 H 0.3028 0.9895 0.3155
H44_14 H 0.2917 0.9788 0.3636
H45_14 H 0.3128 0.9679 0.3393
H49_14 H 0.3244 0.8761 0.7326
H50_14 H 0.3468 0.8803 0.7612
H51_14 H 0.3428 0.8579 0.7322
H52_14 H 0.3849 0.9097 0.5660
H53_14 H 0.3970 0.8879 0.5823
H54_14 H 0.4003 0.9096 0.6143
H55_14 H 0.6431 0.4389 0.5944
H56_14 H 0.6587 0.4183 0.5902
H57_14 H 0.6621 0.4385 0.5537
H58_14 H 0.7207 0.4697 0.7217
H59_14 H 0.7323 0.4661 0.6688
H60_14 H 0.7288 0.4460 0.7058
H61_14 H 0.7444 0.4644 0.5378
H62_14 H 0.7360 0.4695 0.5931
H63_14 H 0.7195 0.4706 0.5469
H64_14 H 0.7042 0.3762 0.5933
H65_14 H 0.6839 0.3921 0.6001
H66_14 H 0.7011 0.3894 0.6444
H67_14 H 0.5831 0.5309 0.7661
H68_14 H 0.5599 0.5205 0.7539
H69_14 H 0.5682 0.5411 0.7229
H70_14 H 0.6059 0.4666 0.5969
H71_14 H 0.5904 0.4831 0.5676
H72_14 H 0.5801 0.4641 0.6008
H73_14 H 0.6405 0.9863 0.1027
H74_14 H 0.6209 0.9785 0.0680
H76_14 H 0.5747 0.9556 0.2630
H77_14 H 0.5612 0.9751 0.2386
H78_14 H 0.5608 0.9516 0.2132
H79_14 H 0.5837 0.9223 0.3183
H80_14 H 0.5752 0.8986 0.3029
H81_14 H 0.5793 0.9044 0.3605
H82_14 H 0.6689 0.8693 0.3107
H83_14 H 0.6561 0.8571 0.3546
H84_14 H 0.6512 0.8512 0.2975
H85_14 H 0.7103 0.8966 0.2566
H86_14 H 0.7217 0.8891 0.2056
H87_14 H 0.7338 0.9056 0.2422
H88_14 H 0.6856 0.9735 0.1214
H89_14 H 0.7115 0.9745 0.1170
H90_14 H 0.6980 0.9583 0.0823
H98_14 H 0.4591 0.6533 0.0110
H99_14 H 0.4427 0.6364 0.0362
H100_14 H 0.4123 0.7171 0.1475
H101_14 H 0.4211 0.6975 0.1812
H102_14 H 0.4379 0.7144 0.1569
H103_14 H 0.3677 0.7399 0.1369
H104_14 H 0.3474 0.7556 0.1461
H105_14 H 0.3487 0.7327 0.1741
H107_14 H 0.2896 0.6981 0.0366
H108_14 H 0.2885 0.7213 0.0095
H109_14 H 0.5584 0.6637 0.3955
H110_14 H 0.5534 0.6856 0.4255
H111_14 H 0.5759 0.6830 0.3960
H112_14 H 0.5204 0.7208 0.2293
H113_14 H 0.5407 0.7353 0.2458
H114_14 H 0.5186 0.7363 0.2771
H115_14 H 0.4966 0.7048 0.1521
H116_14 H 0.4716 0.7117 0.1479
H117_14 H 0.4845 0.7042 0.0990
H118_14 H 0.4526 0.6158 0.1636
H119_14 H 0.4444 0.6240 0.1100
H120_14 H 0.4322 0.6318 0.1597
H121_14 H 0.4737 0.5821 0.2437
H122_14 H 0.4644 0.5702 0.2923
H123_14 H 0.4848 0.5602 0.2633
H124_14 H 0.5362 0.6187 0.4021
H125_14 H 0.5404 0.5933 0.4108
H126_14 H 0.5202 0.6050 0.4372
H127_14 H 0.5475 0.8619 0.5420
H128_14 H 0.5452 0.8576 0.6008
H129_14 H 0.5242 0.8636 0.5684
H130_14 H 0.5181 0.7659 0.5434
H131_14 H 0.4980 0.7773 0.5708
H132_14 H 0.5191 0.7707 0.6022
H133_14 H 0.5307 0.7372 0.4708
H134_14 H 0.5389 0.7137 0.4536
H135_14 H 0.5186 0.7248 0.4263
H136_14 H 0.5877 0.7627 0.2915
H137_14 H 0.5714 0.7463 0.2644
H138_14 H 0.5922 0.7372 0.2937
H139_14 H 0.6012 0.8151 0.2786
H140_14 H 0.6221 0.8305 0.2782
H141_14 H 0.5998 0.8389 0.2545
H142_14 H 0.5797 0.8717 0.4614
H143_14 H 0.5819 0.8900 0.4193
H144_14 H 0.6030 0.8813 0.4478
H145_14 H 0.4026 0.8932 0.8077
H146_14 H 0.3929 0.9082 0.7641
H147_14 H 0.3778 0.8905 0.7909
H148_14 H 0.4117 0.8337 0.6227
H149_14 H 0.3860 0.8377 0.6237
H150_14 H 0.4018 0.8552 0.5985
H151_14 H 0.4558 0.8150 0.6066
H152_14 H 0.4722 0.8239 0.5651
H153_14 H 0.4735 0.7991 0.5825
H154_14 H 0.5355 0.8374 0.7339
H155_14 H 0.5455 0.8195 0.6971
H156_14 H 0.5435 0.8443 0.6791
H157_14 H 0.5285 0.8693 0.8285
H158_14 H 0.5297 0.8952 0.8319
H159_14 H 0.5316 0.8808 0.8816
H160_14 H 0.4340 0.8923 0.8812
H161_14 H 0.4467 0.9007 0.9297
H162_14 H 0.4450 0.9159 0.8812
H163_14 H 0.5447 0.5384 0.4217
H164_14 H 0.5417 0.5460 0.3649
H165_14 H 0.5444 0.5638 0.4082
H166_14 H 0.4463 0.5551 0.4151
H167_14 H 0.4552 0.5789 0.4029
H168_14 H 0.4527 0.5615 0.3590
H169_14 H 0.4176 0.5413 0.5016
H170_14 H 0.3967 0.5316 0.5289
H171_14 H 0.4069 0.5540 0.5475
H172_14 H 0.4587 0.4945 0.6834
H173_14 H 0.4438 0.5124 0.7101
H174_14 H 0.4335 0.4898 0.6928
H175_14 H 0.5092 0.4948 0.6939
H176_14 H 0.5305 0.4800 0.6995
H177_14 H 0.5301 0.5040 0.7225
H178_14 H 0.5632 0.5249 0.5138
H179_14 H 0.5778 0.5337 0.5589
H180_14 H 0.5805 0.5092 0.5398
Ag33_10 Ag 0.502110(19) 0.986160(18) 0.92098(4)
Ag39_10 Ag 0.761230(15) 0.428120(15) 0.48984(4)
Ag40_10 Ag 0.737130(15) 0.377770(16) 0.51162(4)
N64_6 N 0.35391(16) 0.58924(16) 0.7992(4)
N66_10 N 0.33015(17) 0.50519(17) 0.8099(4)
Ag6_10 Ag 0.330400(16) 0.551920(14) 0.83965(4)
Ag16_14 Ag 0.346740(15) 0.693460(16) 0.96881(4)
Ag17_14 Ag 0.397650(16) 0.674890(17) 0.97177(4)
N10_14 N 0.33968(16) 0.58396(15) 0.8358(4)
N31_14 N 0.35552(16) 0.66934(16) 0.9183(4)
N32_14 N 0.37671(18) 0.66301(17) 0.9181(4)
C21_14 C 0.3781(3) 0.6195(2) 0.7742(6)
C22_14 C 0.3619(2) 0.60952(19) 0.8082(5)
C23_14 C 0.35281(17) 0.61740(18) 0.8520(5)
C24_14 C 0.3386(2) 0.6008(2) 0.8681(5)
C25_14 C 0.3242(2) 0.5992(2) 0.9127(5)
C76_14 C 0.3198(2) 0.65630(19) 0.8863(5)
C77_14 C 0.34360(17) 0.6539(2) 0.8932(4)
C78_14 C 0.35760(19) 0.6372(2) 0.8784(5)
C79_14 C 0.3781(2) 0.6439(2) 0.8940(5)
C80_14 C 0.3995(2) 0.6323(2) 0.8906(6)
H25_14 H 0.3812 0.6095 0.7465
H26_14 H 0.3723 0.6331 0.7608
H27_14 H 0.3915 0.6224 0.7926
H28_14 H 0.3164 0.5853 0.9122
H29_14 H 0.3329 0.6002 0.9432
H30_14 H 0.3136 0.6112 0.9122
H91_14 H 0.3150 0.6700 0.9013
H92_14 H 0.3164 0.6564 0.8505
H93_14 H 0.3123 0.6442 0.9025
H94_14 H 0.4109 0.6414 0.9055
H95_14 H 0.3987 0.6185 0.9086
H96_14 H 0.4030 0.6296 0.8554
H97_14 H 0.4357 0.6493 0.9868
H106_14 H 0.3026 0.7021 0.9856
N65_10 N 0.32609(15) 0.51892(16) 0.8496(4)
Ag5_7 Ag 0.136360(15) 0.432340(15) 0.24430(4)
Ag7_15 Ag 0.160900(17) 0.077830(17) 0.06315(4)
Ag8_6 Ag 0.214850(16) 0.065180(16) 0.06096(4)
Ag9_6 Ag 0.194950(17) 0.098420(16) 0.15085(4)
Ag25_15 Ag 0.05896(2) 0.134870(17) 0.29987(5)
Ag26_15 Ag 0.051800(19) 0.164080(17) 0.19712(5)
Ag27_15 Ag 0.007250(18) 0.152720(17) 0.27413(4)
Ag30_15 Ag 0.013480(16) 0.493370(14) 0.10064(4)
N7_15 N 0.12750(16) 0.47588(15) 0.2005(4)
N8_15 N 0.12294(14) 0.45435(14) 0.1953(4)
N13_15 N 0.17241(18) 0.05625(19) 0.0103(4)
N14_15 N 0.19417(17) 0.05177(18) 0.0098(4)
N17_15 N 0.16270(18) 0.10587(17) 0.1537(4)
N18_15 N 0.1493(2) 0.09830(19) 0.1171(5)
N49_15 N 0.08324(19) 0.13567(18) 0.2473(5)
N50_15 N 0.0816(2) 0.14910(18) 0.2072(5)
N51_15 N 0.02125(18) 0.17383(17) 0.1787(4)
N52_15 N 0.00308(18) 0.16908(18) 0.2059(5)
N53_15 N 0.01192(19) 0.13125(17) 0.3330(4)
N54_15 N 0.0330(2) 0.12650(17) 0.3448(5)
N57_15 N 0.05571(16) 0.47952(15) 0.0570(4)
N58_15 N 0.04700(17) 0.48957(17) 0.0973(4)
C11_15 C 0.0243(3) 0.0527(3) 0.3512(6)
C12_15 C 0.0117(3) 0.0612(3) 0.3937(5)
C13_15 C 0.0060(2) 0.0818(2) 0.4067(5)
C16_15 C 0.1158(2) 0.51078(18) 0.1688(6)
C17_15 C 0.11343(19) 0.48737(18) 0.1720(4)
C18_15 C 0.09900(18) 0.47309(18) 0.1485(4)
C19_15 C 0.10562(19) 0.4527(2) 0.1652(5)
C20_15 C 0.0959(2) 0.4305(2) 0.1539(5)
C41_15 C 0.1600(2) 0.1265(2) 0.2318(5)
C42_15 C 0.1508(2) 0.11690(19) 0.1861(4)
C43_15 C 0.1285(2) 0.1169(2) 0.1711(5)
C44_15 C 0.1290(3) 0.1049(2) 0.1264(5)
C45_15 C 0.1101(3) 0.0989(3) 0.0945(7)
C121_15 C 0.1074(3) 0.1063(3) 0.2793(6)
C122_15 C 0.1007(3) 0.1231(2) 0.2407(5)
C123_15 C 0.1100(2) 0.12770(19) 0.1960(5)
C124_15 C 0.0976(3) 0.1439(2) 0.1747(6)
C125_15 C 0.0997(3) 0.1553(3) 0.1257(7)
C126_15 C 0.0294(3) 0.1860(2) 0.0935(7)
C127_15 C 0.0141(2) 0.1801(2) 0.1323(6)
C133_15 C 0.0119(2) 0.1018(2) 0.3806(5)
C134_15 C 0.0331(3) 0.1087(2) 0.3735(6)
C135_15 C 0.0536(3) 0.0991(2) 0.3931(6)
C141_15 C 0.0898(2) 0.4603(2) 0.0337(5)
C142_15 C 0.0755(2) 0.47240(19) 0.0693(4)
C143_15 C 0.07974(17) 0.47866(16) 0.1195(5)
C144_15 C 0.0611(2) 0.4893(2) 0.1343(5)
C145_15 C 0.0558(3) 0.4990(2) 0.1846(6)
H13_15 H 0.0250 0.0368 0.3534
H14_15 H 0.0172 0.0568 0.3199
H15_15 H 0.0390 0.0587 0.3521
H19_15 H 0.1279 0.5155 0.1901
H20_15 H 0.1187 0.5149 0.1341
H21_15 H 0.1024 0.5178 0.1800
H22_15 H 0.1044 0.4193 0.1707
H23_15 H 0.0809 0.4301 0.1661
H24_15 H 0.0961 0.4280 0.1178
H49_15 H 0.1756 0.1239 0.2326
H50_15 H 0.1532 0.1197 0.2612
H51_15 H 0.1572 0.1421 0.2322
H52_15 H 0.1151 0.0903 0.0660
H53_15 H 0.1030 0.1121 0.0823
H54_15 H 0.0997 0.0904 0.1143
H131_15 H 0.0020 0.2227 0.0708
H145_15 H 0.0974 0.1068 0.3077
H146_15 H 0.1071 0.0918 0.2641
H147_15 H 0.1222 0.1095 0.2909
H148_15 H 0.0883 0.1663 0.1227
H149_15 H 0.1140 0.1623 0.1237
H150_15 H 0.0982 0.1448 0.0985
H151_15 H 0.0442 0.1850 0.1066
H152_15 H 0.0278 0.1761 0.0651
H153_15 H 0.0265 0.2009 0.0825
H160_15 H 0.0660 0.1077 0.3812
H161_15 H 0.0533 0.0993 0.4297
H162_15 H 0.0550 0.0841 0.3812
H169_15 H 0.0824 0.4587 0.0016
H170_15 H 0.1033 0.4684 0.0289
H171_15 H 0.0931 0.4460 0.0475
H172_15 H 0.0413 0.5055 0.1834
H173_15 H 0.0562 0.4876 0.2101
H174_15 H 0.0665 0.5102 0.1928
N64_7 N 0.14609(16) 0.41076(16) 0.2992(4)
N67_6 N 0.23545(18) 0.07629(17) 0.1167(4)
N68_6 N 0.22663(18) 0.08860(18) 0.1541(4)
Ag3_6 Ag 0.263840(18) 0.252110(19) 0.67098(4)
Ag16_15 Ag 0.153260(15) 0.306540(16) 0.46881(4)
Ag17_15 Ag 0.102350(16) 0.325110(17) 0.47177(4)
Ag18_15 Ag 0.116910(16) 0.289390(17) 0.56039(4)
Ag21_15 Ag 0.009390(16) 0.374650(16) 0.72973(4)
Ag29_15 Ag 0.036860(15) 0.471980(14) 0.99496(3)
N3_6 N 0.22090(17) 0.2725(2) 0.6948(4)
N4_15 N 0.23183(16) 0.26018(18) 0.6598(4)
N10_15 N 0.16032(16) 0.41604(15) 0.3358(4)
N31_15 N 0.14448(16) 0.33066(16) 0.4183(4)
N32_15 N 0.12329(18) 0.33699(17) 0.4181(4)
N33_15 N 0.08188(17) 0.32038(17) 0.5326(4)
N34_15 N 0.0875(2) 0.30510(18) 0.5671(4)
N35_15 N 0.14876(17) 0.27825(17) 0.5613(4)
N36_15 N 0.16360(16) 0.28708(17) 0.5276(4)
N39_15 N 0.01119(16) 0.33325(17) 0.6727(4)
N40_15 N 0.02092(18) 0.35349(17) 0.6751(5)
N41_15 N 0.00114(17) 0.39344(16) 0.7907(4)
N56_15 N 0.01756(16) 0.45986(15) 0.9372(4)
C6_15 C 0.1863(3) 0.2903(2) 0.7053(6)
C7_15 C 0.2014(2) 0.2773(2) 0.6756(5)
C8_15 C 0.1994(2) 0.2687(2) 0.6276(5)
C9_15 C 0.2191(2) 0.2583(2) 0.6196(5)
C10_15 C 0.2267(3) 0.2450(2) 0.5750(5)
C21_15 C 0.1219(3) 0.3805(2) 0.2742(6)
C22_15 C 0.1381(2) 0.39048(19) 0.3082(5)
C23_15 C 0.14719(17) 0.38260(18) 0.3520(5)
C24_15 C 0.1614(2) 0.3992(2) 0.3681(5)
C25_15 C 0.1758(2) 0.4008(2) 0.4127(5)
C31_15 C 0.1386(2) 0.0438(2) 0.9745(6)
C32_15 C 0.1624(2) 0.0424(2) 0.9810(5)
C33_15 C 0.1770(2) 0.0287(2) 0.9587(5)
C34_15 C 0.19690(18) 0.0348(2) 0.9780(5)
C35_15 C 0.2192(2) 0.0259(2) 0.9691(5)
C36_15 C 0.1945(2) 0.0183(2) 0.8467(6)
C37_15 C 0.1804(2) 0.00499(18) 0.8798(5)
C38_15 C 0.1726(2) 0.00944(17) 0.9275(5)
C76_15 C 0.1802(2) 0.34370(19) 0.3863(5)
C77_15 C 0.15640(17) 0.3461(2) 0.3932(4)
C78_15 C 0.14240(19) 0.3628(2) 0.3784(5)
C79_15 C 0.1219(2) 0.3561(2) 0.3940(5)
C80_15 C 0.1005(2) 0.3677(2) 0.3906(6)
C81_15 C 0.0562(2) 0.3498(2) 0.5182(6)
C82_15 C 0.06565(19) 0.33151(19) 0.5504(6)
C83_15 C 0.0596(2) 0.3242(2) 0.5968(5)
C84_15 C 0.0743(2) 0.3073(2) 0.6068(5)
C85_15 C 0.0759(3) 0.2934(3) 0.6519(5)
C86_15 C 0.1479(2) 0.2596(2) 0.6430(5)
C87_15 C 0.15970(19) 0.2701(2) 0.6003(4)
C88_15 C 0.1815(2) 0.2732(2) 0.5917(5)
C89_15 C 0.1828(2) 0.2837(2) 0.5462(5)
C90_15 C 0.2022(2) 0.2912(2) 0.5169(5)
C96_15 C 0.0172(3) 0.2981(2) 0.6350(7)
C97_15 C 0.0239(2) 0.3211(2) 0.6445(5)
C98_15 C 0.04144(19) 0.3320(2) 0.6276(5)
C99_15 C 0.0390(2) 0.3530(2) 0.6485(5)
C100_15 C 0.0537(3) 0.3720(2) 0.6452(6)
C101_15 C 0.0224(2) 0.4263(2) 0.7735(5)
C102_15 C 0.0074(2) 0.41323(19) 0.8059(4)
C138_15 C 0.00152(19) 0.43731(18) 0.8834(4)
C139_15 C 0.02080(19) 0.44416(17) 0.9037(4)
C140_15 C 0.0436(2) 0.43650(18) 0.8943(4)
H7_15 H 0.1928 0.2935 0.7379
H8_15 H 0.1832 0.3040 0.6877
H9_15 H 0.1727 0.2823 0.7102
H10_15 H 0.2415 0.2397 0.5813
H11_15 H 0.2170 0.2326 0.5702
H12_15 H 0.2267 0.2540 0.5450
H25_15 H 0.1188 0.3905 0.2465
H26_15 H 0.1277 0.3669 0.2608
H27_15 H 0.1085 0.3776 0.2926
H28_15 H 0.1836 0.4147 0.4122
H29_15 H 0.1671 0.3998 0.4432
H30_15 H 0.1864 0.3888 0.4122
H37_15 H 0.1328 0.0554 0.9957
H38_15 H 0.1320 0.0299 0.9840
H39_15 H 0.1353 0.0469 0.9394
H40_15 H 0.2298 0.0342 0.9885
H41_15 H 0.2227 0.0269 0.9334
H42_15 H 0.2197 0.0106 0.9794
H43_15 H 0.1972 0.0105 0.8155
H44_15 H 0.2083 0.0212 0.8636
H45_15 H 0.1872 0.0321 0.8393
H91_15 H 0.1850 0.3300 0.4013
H92_15 H 0.1836 0.3436 0.3505
H93_15 H 0.1877 0.3558 0.4025
H94_15 H 0.0891 0.3586 0.4055
H95_15 H 0.1013 0.3815 0.4086
H96_15 H 0.0970 0.3704 0.3554
H97_15 H 0.0643 0.3507 0.4868
H98_15 H 0.0409 0.3467 0.5110
H99_15 H 0.0573 0.3636 0.5362
H100_15 H 0.0877 0.2829 0.6475
H101_15 H 0.0789 0.3025 0.6812
H102_15 H 0.0621 0.2856 0.6569
H103_15 H 0.1323 0.2601 0.6369
H104_15 H 0.1526 0.2444 0.6461
H105_15 H 0.1513 0.2673 0.6741
H106_15 H 0.1974 0.2979 0.4856
H107_15 H 0.2104 0.3019 0.5366
H108_15 H 0.2115 0.2787 0.5095
H115_15 H 0.0034 0.2952 0.6521
H116_15 H 0.0284 0.2883 0.6479
H117_15 H 0.0155 0.2958 0.5990
H118_15 H 0.0474 0.3842 0.6636
H119_15 H 0.0556 0.3760 0.6100
H120_15 H 0.0678 0.3682 0.6597
H121_15 H 0.0263 0.4179 0.7437
H122_15 H 0.0356 0.4298 0.7923
H123_15 H 0.0152 0.4398 0.7633
H166_15 H 0.0537 0.4449 0.9151
H167_15 H 0.0448 0.4211 0.9029
H168_15 H 0.0473 0.4385 0.8590
Ag32_6 Ag 0.23694(2) 0.284770(17) 0.75636(4)
N62_6 N 0.2967(2) 0.24736(18) 0.6766(5)
C39_15 C 0.1605(2) 0.9911(2) 0.9406(4)
C40_15 C 0.1494(3) 0.9866(3) 0.9888(5)
H46_15 H 0.1421 0.9725 0.9870
H47_15 H 0.1387 0.9980 0.9954
Ag10_15 Ag 0.862630(15) 0.525520(14) 0.16925(4)
Ag11_6 Ag 0.821880(15) 0.511230(15) 0.23984(4)
Ag12_6 Ag 0.872230(16) 0.487130(15) 0.26162(4)
Ag28_15 Ag 0.982440(15) 0.477260(14) 0.00238(4)
N6_7 N 0.99098(19) 0.0585(2) 0.4613(4)
N19_15 N 0.83415(15) 0.54208(15) 0.1594(4)
N20_15 N 0.81662(15) 0.53515(15) 0.1874(4)
N23_15 N 0.89643(17) 0.49455(17) 0.2101(4)
N24_15 N 0.89115(17) 0.50880(15) 0.1743(4)
N43_15 N 0.9574(2) 0.17820(19) 0.0186(5)
N44_15 N 0.96390(18) 0.19907(17) 0.0191(4)
N59_15 N 0.98005(16) 0.49172(15) 0.1089(4)
N60_15 N 0.96794(16) 0.48527(16) 0.0695(4)
C14_15 C 0.9927(2) 0.0793(2) 0.4489(5)
C15_15 C 0.9814(2) 0.0965(3) 0.4805(6)
C46_15 C 0.8421(2) 0.5659(2) 0.0875(5)
C47_15 C 0.82676(18) 0.55576(18) 0.1250(5)
C48_15 C 0.8045(2) 0.5581(2) 0.1299(4)
C49_15 C 0.79870(19) 0.5448(2) 0.1706(4)
C50_15 C 0.7775(2) 0.54040(19) 0.1937(5)
C51_15 C 0.7679(3) 0.5370(2) 0.0609(6)
C52_15 C 0.7732(2) 0.56020(18) 0.0681(5)
C53_15 C 0.7895(2) 0.5698(2) 0.0972(5)
C54_15 C 0.78805(17) 0.5922(2) 0.0876(5)
C55_15 C 0.8008(2) 0.6101(2) 0.1080(6)
C56_15 C 0.9273(3) 0.4724(3) 0.2395(7)
C57_15 C 0.9170(2) 0.4871(2) 0.2023(5)
C58_15 C 0.9246(2) 0.4967(2) 0.1579(5)
C59_15 C 0.9080(2) 0.5106(2) 0.1431(5)
C60_15 C 0.9079(2) 0.5255(2) 0.0981(5)
C106_15 C 0.9619(3) 0.1441(2) 0.0682(6)
C107_15 C 0.9658(2) 0.16800(19) 0.0582(5)
C108_15 C 0.9785(2) 0.1827(2) 0.0867(5)
C109_15 C 0.9764(2) 0.2023(2) 0.0596(5)
C110_15 C 0.9861(2) 0.2239(2) 0.0699(5)
C128_15 C 0.9916(2) 0.1787(2) 0.1312(5)
C129_15 C 0.9854(2) 0.1718(2) 0.1788(6)
C130_15 C 0.9633(3) 0.1673(2) 0.1989(6)
C131_15 C 0.9753(3) 0.1181(2) 0.3488(7)
C132_15 C 0.9994(2) 0.1171(2) 0.3553(5)
C146_15 C 0.9749(2) 0.5051(2) 0.1948(5)
C147_15 C 0.9664(2) 0.49630(19) 0.1470(5)
C148_15 C 0.9450(2) 0.4929(2) 0.1310(5)
C149_15 C 0.94700(19) 0.48625(18) 0.0826(5)
C150_15 C 0.9299(3) 0.4789(2) 0.0455(6)
H16_15 H 0.9734 0.0894 0.5077
H17_15 H 0.9922 0.1064 0.4945
H18_15 H 0.9712 0.1047 0.4595
H55_15 H 0.8569 0.5611 0.0944
H56_15 H 0.8413 0.5817 0.0902
H57_15 H 0.8379 0.5615 0.0537
H58_15 H 0.7793 0.5303 0.2217
H59_15 H 0.7677 0.5339 0.1688
H60_15 H 0.7712 0.5540 0.2058
H61_15 H 0.7556 0.5356 0.0378
H62_15 H 0.7640 0.5305 0.0931
H63_15 H 0.7805 0.5294 0.0469
H64_15 H 0.7958 0.6238 0.0933
H65_15 H 0.8161 0.6079 0.1001
H66_15 H 0.7989 0.6106 0.1444
H67_15 H 0.9169 0.4691 0.2661
H68_15 H 0.9401 0.4795 0.2539
H69_15 H 0.9318 0.4589 0.2229
H70_15 H 0.8941 0.5334 0.0969
H71_15 H 0.9096 0.5169 0.0676
H72_15 H 0.9199 0.5359 0.1008
H127_15 H 0.9525 0.1381 0.0420
H128_15 H 0.9548 0.1424 0.1008
H129_15 H 0.9758 0.1364 0.0684
H130_15 H 0.9819 0.2341 0.0434
H132_15 H 0.9809 0.2293 0.1022
H154_15 H 0.9645 0.1626 0.2339
H155_15 H 0.9545 0.1805 0.1971
H156_15 H 0.9565 0.1557 0.1791
H157_15 H 0.9715 0.1307 0.3285
H158_15 H 0.9703 0.1048 0.3319
H159_15 H 0.9684 0.1192 0.3816
H175_15 H 0.9908 0.5052 0.1939
H176_15 H 0.9695 0.5200 0.1995
H177_15 H 0.9699 0.4960 0.2225
H178_15 H 0.9368 0.4751 0.0138
H179_15 H 0.9222 0.4663 0.0589
H180_15 H 0.9195 0.4908 0.0398
Ag31_7 Ag 0.975362(17) 0.04150(2) 0.51707(4)
N69_6 N 0.82587(15) 0.48716(16) 0.2917(4)
N70_6 N 0.84556(16) 0.47813(17) 0.3038(4)
Ag13_15 Ag 0.845130(16) 0.040780(14) 0.68872(4)
Ag14_15 Ag 0.881240(15) 0.059800(15) 0.76666(4)
Ag15_15 Ag 0.832390(15) 0.084910(14) 0.76653(4)
Ag19_15 Ag 0.972480(15) 0.355720(15) 0.82006(4)
Ag20_15 Ag 0.988140(16) 0.324510(16) 0.72503(4)
Ag22_15 Ag 0.937440(18) 0.168850(17) 0.96019(4)
Ag23_15 Ag 0.952950(18) 0.220260(17) 0.96634(4)
Ag24_15 Ag 0.921810(18) 0.204590(17) 0.86489(5)
N1_15 N 0.95562(19) 0.0259(2) 0.5689(4)
N2_15 N 0.9502(2) 0.0045(2) 0.5620(4)
N11_6 N 0.73108(16) 0.07609(15) 0.5996(4)
N12_6 N 0.74481(17) 0.08015(17) 0.5599(4)
N25_15 N 0.87632(17) 0.02916(16) 0.6824(4)
N26_15 N 0.89090(18) 0.03591(16) 0.7173(4)
N27_15 N 0.87682(16) 0.08766(16) 0.8069(4)
N28_15 N 0.85754(16) 0.09929(17) 0.8057(4)
N29_15 N 0.80933(16) 0.07197(14) 0.7189(4)
N30_15 N 0.81501(16) 0.05441(15) 0.6889(4)
N37_15 N 0.96096(17) 0.32424(17) 0.8183(4)
N38_15 N 0.96940(19) 0.31142(17) 0.7804(5)
N42_15 N 0.98629(16) 0.38577(15) 0.8252(4)
N45_15 N 0.94473(18) 0.24203(16) 0.9118(4)
N46_15 N 0.9322(2) 0.23638(18) 0.8714(5)
N47_15 N 0.91319(17) 0.17230(15) 0.8612(4)
N48_15 N 0.91803(18) 0.15953(19) 0.9010(5)
N55_15 N 0.99541(15) 0.46397(15) 0.9389(4)
C1_15 C 0.9446(3) 0.0580(2) 0.6156(6)
C2_15 C 0.9425(2) 0.0342(2) 0.6027(5)
C3_15 C 0.9275(2) 0.0194(2) 0.6180(5)
C26_15 C 0.7323(3) 0.0656(2) 0.6887(5)
C27_15 C 0.7426(2) 0.07060(18) 0.6402(5)
C28_15 C 0.76470(18) 0.07171(19) 0.6273(5)
C29_15 C 0.76552(18) 0.07770(19) 0.5783(5)
C30_15 C 0.7844(3) 0.0820(2) 0.5454(5)
C61_15 C 0.8752(3) 0.0127(2) 0.5971(5)
C62_15 C 0.8870(2) 0.02090(19) 0.6423(5)
C63_15 C 0.90930(19) 0.0224(2) 0.6532(5)
C64_15 C 0.9110(2) 0.0319(2) 0.7006(4)
C65_15 C 0.9302(2) 0.03790(19) 0.7315(5)
C66_15 C 0.9156(3) 0.0933(2) 0.8262(7)
C67_15 C 0.8921(2) 0.1011(2) 0.8216(5)
C68_15 C 0.88440(18) 0.1217(2) 0.8309(5)
C69_15 C 0.86209(17) 0.12012(18) 0.8193(5)
C70_15 C 0.8450(2) 0.1371(2) 0.8206(6)
C71_15 C 0.7803(2) 0.0988(2) 0.7289(6)
C72_15 C 0.7905(2) 0.08020(18) 0.7025(5)
C73_15 C 0.78362(19) 0.06776(19) 0.6603(5)
C74_15 C 0.7993(2) 0.0524(2) 0.6546(5)
C75_15 C 0.8012(2) 0.0350(2) 0.6154(6)
C91_15 C 0.9397(2) 0.3205(2) 0.8957(5)
C92_15 C 0.9496(2) 0.3112(2) 0.8509(5)
C93_15 C 0.9515(2) 0.28980(18) 0.8349(5)
C94_15 C 0.9637(2) 0.29130(18) 0.7907(5)
C95_15 C 0.9717(3) 0.2731(3) 0.7579(6)
C103_15 C 0.99823(18) 0.41854(18) 0.8510(4)
C104_15 C 0.98481(18) 0.4007(2) 0.8622(4)
C105_15 C 0.9707(2) 0.3955(2) 0.9070(5)
C111_15 C 0.9673(3) 0.2725(2) 0.9422(6)
C112_15 C 0.9521(2) 0.2621(2) 0.9047(5)
C113_15 C 0.9446(2) 0.2700(2) 0.8594(5)
C114_15 C 0.9322(2) 0.2532(2) 0.8401(5)
C115_15 C 0.9191(3) 0.2516(2) 0.7935(7)
C116_15 C 0.8937(3) 0.1699(2) 0.7813(6)
C117_15 C 0.9001(2) 0.1609(2) 0.8301(6)
C118_15 C 0.8965(2) 0.1405(2) 0.8499(5)
C119_15 C 0.9083(2) 0.14026(19) 0.8948(5)
C120_15 C 0.9112(3) 0.1227(2) 0.9343(6)
C136_15 C 0.9617(2) 0.45050(18) 0.8998(5)
C137_15 C 0.98570(19) 0.4501(2) 0.9069(5)
H1_15 H 0.9571 0.0642 0.5978
H2_15 H 0.9314 0.0657 0.6056
H3_15 H 0.9467 0.0596 0.6517
H31_15 H 0.7165 0.0660 0.6851
H32_15 H 0.7368 0.0512 0.6998
H33_15 H 0.7368 0.0765 0.7135
H34_15 H 0.7793 0.0860 0.5120
H35_15 H 0.7930 0.0940 0.5593
H36_15 H 0.7934 0.0689 0.5433
H73_15 H 0.8595 0.0137 0.6027
H74_15 H 0.8791 0.0215 0.5680
H76_15 H 0.9253 0.0444 0.7630
H77_15 H 0.9388 0.0249 0.7386
H78_15 H 0.9392 0.0484 0.7132
H79_15 H 0.9163 0.0777 0.8183
H80_15 H 0.9248 0.1014 0.8029
H81_15 H 0.9207 0.0956 0.8605
H82_15 H 0.8311 0.1307 0.8107
H83_15 H 0.8439 0.1429 0.8546
H84_15 H 0.8488 0.1488 0.7975
H85_15 H 0.7897 0.1034 0.7566
H86_15 H 0.7783 0.1109 0.7056
H87_15 H 0.7662 0.0944 0.7422
H88_15 H 0.8144 0.0265 0.6214
H89_15 H 0.7885 0.0255 0.6170
H90_15 H 0.8020 0.0417 0.5823
H109_15 H 0.9416 0.3363 0.8955
H110_15 H 0.9466 0.3144 0.9255
H111_15 H 0.9241 0.3170 0.8960
H112_15 H 0.9796 0.2792 0.7293
H113_15 H 0.9593 0.2647 0.7458
H114_15 H 0.9814 0.2637 0.7771
H124_15 H 0.9638 0.3813 0.9021
H125_15 H 0.9596 0.4067 0.9108
H126_15 H 0.9798 0.3950 0.9372
H133_15 H 0.9693 0.2628 0.9708
H134_15 H 0.9611 0.2863 0.9536
H135_15 H 0.9814 0.2752 0.9263
H136_15 H 0.9123 0.2373 0.7915
H137_15 H 0.9286 0.2537 0.7644
H138_15 H 0.9078 0.2628 0.7937
H139_15 H 0.8988 0.1849 0.7786
H140_15 H 0.8779 0.1695 0.7782
H141_15 H 0.9002 0.1611 0.7545
H142_15 H 0.9203 0.1283 0.9614
H143_15 H 0.9181 0.1100 0.9193
H144_15 H 0.8970 0.1187 0.9478
H163_15 H 0.9553 0.4616 0.9217
H164_15 H 0.9583 0.4540 0.8649
H165_15 H 0.9556 0.4362 0.9082
Ag34_6 Ag 0.734880(15) 0.099150(15) 0.50159(4)
Ag36_6 Ag 0.698080(14) 0.080400(16) 0.58965(4)
C4_15 C 0.9330(2) 0.9998(2) 0.5933(5)
C5_15 C 0.9233(2) 0.9786(2) 0.5949(6)
H4_15 H 0.9311 0.9689 0.5721
H5_15 H 0.9242 0.9728 0.6290
H6_15 H 0.9081 0.9796 0.5846
H75_15 H 0.8792 0.9975 0.5909
Ag5_8 Ag 0.682340(15) 0.113640(15) 0.49430(4)
Ag7_16 Ag 0.327830(17) 0.089100(17) 0.31315(4)
Ag10_16 Ag 0.775520(14) 0.387370(15) 0.41925(4)
Ag14_16 Ag 0.309800(15) 0.368760(15) 0.01666(4)
Ag15_16 Ag 0.334910(14) 0.417610(15) 0.01653(4)
Ag19_16 Ag 0.605720(15) 0.277520(15) 0.07006(4)
Ag22_16 Ag 0.418850(17) 0.312560(18) 0.21019(4)
Ag23_16 Ag 0.470260(17) 0.297050(18) 0.21634(4)
Ag24_16 Ag 0.454590(17) 0.328190(18) 0.11489(5)
Ag25_16 Ag 0.384870(17) 0.19104(2) 0.54987(5)
Ag26_16 Ag 0.414080(17) 0.198200(19) 0.44712(5)
Ag27_16 Ag 0.402720(17) 0.242750(18) 0.52413(4)
Ag28_16 Ag 0.727260(14) 0.267560(15) 0.25238(4)
Ag29_16 Ag 0.721980(14) 0.213140(15) 0.24496(3)
Ag30_16 Ag 0.743370(14) 0.236520(16) 0.35064(4)
N6_8 N 0.3085(2) 0.25902(19) 0.7113(4)
N7_16 N 0.72588(15) 0.12250(16) 0.4505(4)
N8_16 N 0.70435(14) 0.12706(14) 0.4453(4)
N13_16 N 0.30625(19) 0.07759(18) 0.2603(4)
N14_16 N 0.30177(18) 0.05583(17) 0.2598(4)
N17_16 N 0.35587(17) 0.08730(18) 0.4037(4)
N18_16 N 0.34830(19) 0.1007(2) 0.3671(5)
N19_16 N 0.79208(15) 0.41585(15) 0.4094(4)
N20_16 N 0.78515(15) 0.43338(15) 0.4374(4)
N23_16 N 0.74455(17) 0.35357(17) 0.4601(4)
N24_16 N 0.75880(15) 0.35885(17) 0.4243(4)
N27_16 N 0.33766(16) 0.37318(16) 0.0569(4)
N28_16 N 0.34929(17) 0.39246(16) 0.0557(4)
N37_16 N 0.57424(17) 0.28904(17) 0.0683(4)
N38_16 N 0.56142(17) 0.28060(19) 0.0304(5)
N41_16 N 0.64344(16) 0.24886(17) 0.0407(4)
N42_16 N 0.63577(15) 0.26371(16) 0.0752(4)
N43_16 N 0.42820(19) 0.2926(2) 0.2686(5)
N44_16 N 0.44907(17) 0.28610(18) 0.2691(4)
N45_16 N 0.49203(16) 0.30527(18) 0.1618(4)
N46_16 N 0.48638(18) 0.3178(2) 0.1214(5)
N47_16 N 0.42230(15) 0.33681(17) 0.1112(4)
N48_16 N 0.40953(19) 0.33197(18) 0.1510(5)
N49_16 N 0.38567(18) 0.16676(19) 0.4973(5)
N50_16 N 0.39910(18) 0.1684(2) 0.4572(5)
N51_16 N 0.42383(17) 0.22875(18) 0.4287(4)
N52_16 N 0.41908(18) 0.24692(18) 0.4559(5)
N53_16 N 0.38125(17) 0.23808(19) 0.5830(4)
N54_16 N 0.37650(17) 0.2170(2) 0.5948(5)
N55_16 N 0.71397(15) 0.25459(15) 0.1889(4)
N56_16 N 0.70986(15) 0.23244(16) 0.1872(4)
N57_16 N 0.72952(15) 0.19429(16) 0.3070(4)
N58_16 N 0.73957(17) 0.20300(17) 0.3473(4)
N59_16 N 0.74172(15) 0.26995(16) 0.3589(4)
N60_16 N 0.73527(16) 0.28206(16) 0.3195(4)
C11_16 C 0.3027(3) 0.2257(3) 0.6012(6)
C12_16 C 0.3112(3) 0.2383(3) 0.6437(5)
C13_16 C 0.3318(2) 0.2440(2) 0.6567(5)
C14_16 C 0.3293(2) 0.2573(2) 0.6989(5)
C15_16 C 0.3465(3) 0.2686(2) 0.7305(6)
C16_16 C 0.76078(18) 0.1342(2) 0.4188(6)
C17_16 C 0.73737(18) 0.13657(19) 0.4220(4)
C18_16 C 0.72309(18) 0.15100(18) 0.3985(4)
C19_16 C 0.7027(2) 0.14438(19) 0.4152(5)
C20_16 C 0.6805(2) 0.1541(2) 0.4039(5)
C31_16 C 0.2938(2) 0.1114(2) 0.2245(6)
C32_16 C 0.2924(2) 0.0876(2) 0.2310(5)
C33_16 C 0.2787(2) 0.0730(2) 0.2087(5)
C34_16 C 0.2848(2) 0.05310(18) 0.2280(5)
C35_16 C 0.2759(2) 0.0308(2) 0.2191(5)
C36_16 C 0.2683(2) 0.0555(2) 0.0967(6)
C37_16 C 0.25499(18) 0.0696(2) 0.1298(5)
C38_16 C 0.25944(17) 0.0774(2) 0.1775(5)
C39_16 C 0.2411(2) 0.0895(2) 0.1906(4)
C40_16 C 0.2366(3) 0.1006(3) 0.2388(5)
C41_16 C 0.3765(2) 0.0900(2) 0.4818(5)
C42_16 C 0.36690(19) 0.0992(2) 0.4361(4)
C43_16 C 0.3669(2) 0.1215(2) 0.4211(5)
C44_16 C 0.3549(2) 0.1210(3) 0.3764(5)
C45_16 C 0.3489(3) 0.1399(3) 0.3445(7)
C46_16 C 0.8159(2) 0.4079(2) 0.3375(5)
C47_16 C 0.80576(18) 0.42324(18) 0.3750(5)
C48_16 C 0.8081(2) 0.4455(2) 0.3799(4)
C49_16 C 0.7948(2) 0.45130(19) 0.4206(4)
C50_16 C 0.79040(19) 0.4725(2) 0.4437(5)
C51_16 C 0.7870(2) 0.4821(3) 0.3109(6)
C52_16 C 0.81020(18) 0.4768(2) 0.3181(5)
C53_16 C 0.8198(2) 0.4605(2) 0.3472(5)
C54_16 C 0.8422(2) 0.46195(17) 0.3376(5)
C55_16 C 0.8601(2) 0.4492(2) 0.3580(6)
C56_16 C 0.7224(3) 0.3227(3) 0.4895(7)
C57_16 C 0.7371(2) 0.3330(2) 0.4523(5)
C58_16 C 0.7467(2) 0.3254(2) 0.4079(5)
C59_16 C 0.7606(2) 0.3420(2) 0.3931(5)
C60_16 C 0.7755(2) 0.3421(2) 0.3481(5)
C66_16 C 0.3433(2) 0.3344(3) 0.0762(7)
C67_16 C 0.3511(2) 0.3579(2) 0.0716(5)
C68_16 C 0.3717(2) 0.36560(18) 0.0809(5)
C69_16 C 0.37012(18) 0.38791(17) 0.0693(5)
C70_16 C 0.3871(2) 0.4050(2) 0.0706(6)
C91_16 C 0.5705(2) 0.3103(2) 0.1457(5)
C92_16 C 0.5612(2) 0.3004(2) 0.1009(5)
C93_16 C 0.53980(18) 0.2985(2) 0.0849(5)
C94_16 C 0.54130(18) 0.2863(2) 0.0407(5)
C95_16 C 0.5231(3) 0.2783(3) 0.0079(6)
C101_16 C 0.6763(2) 0.2276(2) 0.0235(5)
C102_16 C 0.66323(19) 0.2426(2) 0.0559(4)
C103_16 C 0.66854(18) 0.25177(18) 0.1010(4)
C104_16 C 0.6507(2) 0.26519(18) 0.1122(4)
C105_16 C 0.6455(2) 0.2793(2) 0.1570(5)
C106_16 C 0.3941(2) 0.2881(3) 0.3182(6)
C107_16 C 0.41800(19) 0.2842(2) 0.3082(5)
C108_16 C 0.4327(2) 0.2715(2) 0.3367(5)
C109_16 C 0.4523(2) 0.2736(2) 0.3096(5)
C110_16 C 0.4739(2) 0.2639(2) 0.3199(5)
C111_16 C 0.5225(2) 0.2827(3) 0.1922(6)
C112_16 C 0.5121(2) 0.2979(2) 0.1547(5)
C113_16 C 0.5200(2) 0.3054(2) 0.1094(5)
C114_16 C 0.5032(2) 0.3178(2) 0.0901(5)
C115_16 C 0.5016(2) 0.3309(3) 0.0435(7)
C116_16 C 0.4199(2) 0.3563(3) 0.0313(6)
C117_16 C 0.4109(2) 0.3499(2) 0.0801(6)
C118_16 C 0.3905(2) 0.3535(2) 0.0999(5)
C119_16 C 0.39026(19) 0.3417(2) 0.1448(5)
C120_16 C 0.3727(2) 0.3388(3) 0.1843(6)
C121_16 C 0.3563(3) 0.1426(3) 0.5293(6)
C122_16 C 0.3731(2) 0.1493(3) 0.4907(5)
C123_16 C 0.37770(19) 0.1400(2) 0.4460(5)
C124_16 C 0.3939(2) 0.1524(3) 0.4247(6)
C125_16 C 0.4053(3) 0.1503(3) 0.3757(7)
C126_16 C 0.4360(2) 0.2206(3) 0.3435(7)
C127_16 C 0.4301(2) 0.2359(2) 0.3823(6)
C128_16 C 0.4287(2) 0.2584(2) 0.3812(5)
C129_16 C 0.4218(2) 0.2646(2) 0.4288(6)
C130_16 C 0.4173(2) 0.2867(3) 0.4489(6)
C131_16 C 0.3681(2) 0.2747(3) 0.5988(7)
C132_16 C 0.3671(2) 0.2506(2) 0.6053(5)
C133_16 C 0.3518(2) 0.2381(2) 0.6306(5)
C134_16 C 0.3587(2) 0.2169(3) 0.6235(6)
C135_16 C 0.3491(2) 0.1964(3) 0.6431(6)
C136_16 C 0.70050(18) 0.2883(2) 0.1498(5)
C137_16 C 0.7001(2) 0.26430(19) 0.1569(5)
C138_16 C 0.68731(18) 0.24848(19) 0.1334(4)
C139_16 C 0.69416(17) 0.22920(19) 0.1537(4)
C140_16 C 0.68650(18) 0.2064(2) 0.1443(4)
C141_16 C 0.7103(2) 0.1602(2) 0.2837(5)
C142_16 C 0.72240(19) 0.1745(2) 0.3193(4)
C143_16 C 0.72866(16) 0.17026(17) 0.3695(5)
C144_16 C 0.7393(2) 0.1889(2) 0.3843(5)
C145_16 C 0.7490(2) 0.1942(3) 0.4346(6)
C146_16 C 0.7551(2) 0.2751(2) 0.4448(5)
C147_16 C 0.74630(19) 0.2836(2) 0.3970(5)
C148_16 C 0.7429(2) 0.3050(2) 0.3810(5)
C149_16 C 0.73625(18) 0.30300(19) 0.3326(5)
C150_16 C 0.7289(2) 0.3201(3) 0.2955(6)
H13_16 H 0.2868 0.2250 0.6034
H14_16 H 0.3068 0.2328 0.5699
H15_16 H 0.3087 0.2110 0.6021
H16_16 H 0.3394 0.2766 0.7577
H17_16 H 0.3564 0.2578 0.7445
H18_16 H 0.3547 0.2788 0.7095
H19_16 H 0.7655 0.1221 0.4401
H20_16 H 0.7649 0.1313 0.3841
H21_16 H 0.7678 0.1476 0.4300
H22_16 H 0.6693 0.1456 0.4207
H23_16 H 0.6801 0.1691 0.4161
H24_16 H 0.6780 0.1539 0.3678
H37_16 H 0.3054 0.1172 0.2457
H38_16 H 0.2799 0.1180 0.2340
H39_16 H 0.2969 0.1147 0.1894
H40_16 H 0.2842 0.0202 0.2385
H41_16 H 0.2769 0.0273 0.1834
H42_16 H 0.2606 0.0303 0.2294
H43_16 H 0.2605 0.0528 0.0655
H44_16 H 0.2712 0.0417 0.1136
H45_16 H 0.2821 0.0628 0.0893
H46_16 H 0.2225 0.1079 0.2370
H47_16 H 0.2480 0.1113 0.2454
H48_15 H 0.2363 0.0898 0.2659
H49_16 H 0.3739 0.0744 0.4826
H50_16 H 0.3697 0.0968 0.5112
H51_16 H 0.3921 0.0928 0.4822
H52_16 H 0.3403 0.1349 0.3160
H53_16 H 0.3621 0.1470 0.3323
H54_16 H 0.3404 0.1503 0.3643
H55_16 H 0.8111 0.3931 0.3444
H56_16 H 0.8317 0.4087 0.3402
H57_16 H 0.8115 0.4121 0.3037
H58_16 H 0.7803 0.4707 0.4717
H59_16 H 0.7839 0.4823 0.4188
H60_16 H 0.8040 0.4788 0.4558
H61_16 H 0.7856 0.4944 0.2878
H62_16 H 0.7805 0.4860 0.3431
H63_16 H 0.7794 0.4695 0.2969
H64_16 H 0.8738 0.4542 0.3433
H65_16 H 0.8579 0.4339 0.3501
H66_16 H 0.8606 0.4511 0.3944
H67_16 H 0.7191 0.3331 0.5161
H68_16 H 0.7295 0.3099 0.5039
H69_16 H 0.7089 0.3182 0.4729
H70_16 H 0.7834 0.3559 0.3469
H71_16 H 0.7669 0.3404 0.3176
H72_16 H 0.7859 0.3301 0.3508
H76_16 H 0.2944 0.3247 0.0130
H79_16 H 0.3277 0.3337 0.0683
H80_16 H 0.3514 0.3252 0.0529
H81_16 H 0.3456 0.3293 0.1105
H82_16 H 0.3807 0.4189 0.0607
H83_16 H 0.3929 0.4061 0.1046
H84_16 H 0.3988 0.4012 0.0475
H85_16 H 0.3534 0.4603 0.0066
H109_16 H 0.5863 0.3084 0.1455
H110_16 H 0.5644 0.3034 0.1755
H111_16 H 0.5670 0.3259 0.1460
H114_16 H 0.5137 0.2686 0.0271
H122_16 H 0.6798 0.2144 0.0423
H123_16 H 0.6898 0.2348 0.0133
H124_16 H 0.6313 0.2862 0.1521
H125_16 H 0.6567 0.2904 0.1608
H126_16 H 0.6450 0.2702 0.1872
H127_16 H 0.3881 0.2975 0.2920
H128_16 H 0.3924 0.2952 0.3508
H129_16 H 0.3864 0.2742 0.3184
H130_16 H 0.4841 0.2681 0.2934
H131_16 H 0.4727 0.2480 0.3208
H132_16 H 0.4793 0.2691 0.3522
H133_16 H 0.5128 0.2807 0.2208
H134_16 H 0.5363 0.2889 0.2036
H135_16 H 0.5252 0.2686 0.1763
H136_16 H 0.4873 0.3377 0.0415
H137_16 H 0.5037 0.3214 0.0144
H138_16 H 0.5128 0.3422 0.0437
H139_16 H 0.4349 0.3512 0.0286
H140_16 H 0.4195 0.3721 0.0282
H141_16 H 0.4111 0.3498 0.0045
H142_16 H 0.3783 0.3297 0.2114
H143_16 H 0.3600 0.3319 0.1693
H144_16 H 0.3687 0.3530 0.1978
H145_16 H 0.3568 0.1526 0.5577
H146_16 H 0.3418 0.1429 0.5141
H147_16 H 0.3595 0.1278 0.5409
H148_16 H 0.4163 0.1617 0.3727
H149_16 H 0.4123 0.1360 0.3737
H150_16 H 0.3948 0.1518 0.3485
H151_16 H 0.4350 0.2058 0.3566
H152_16 H 0.4261 0.2222 0.3151
H153_16 H 0.4509 0.2235 0.3325
H154_16 H 0.4126 0.2855 0.4839
H155_16 H 0.4305 0.2955 0.4471
H156_16 H 0.4057 0.2935 0.4291
H157_16 H 0.3807 0.2785 0.5785
H158_16 H 0.3548 0.2797 0.5819
H159_16 H 0.3692 0.2816 0.6316
H160_16 H 0.3577 0.1840 0.6312
H161_16 H 0.3493 0.1967 0.6797
H162_16 H 0.3341 0.1950 0.6312
H163_16 H 0.7116 0.2947 0.1717
H164_16 H 0.7040 0.2917 0.1149
H165_16 H 0.6862 0.2944 0.1582
H166_16 H 0.6949 0.1963 0.1651
H167_16 H 0.6711 0.2052 0.1529
H168_16 H 0.6885 0.2027 0.1090
H169_16 H 0.7087 0.1676 0.2516
H170_16 H 0.7184 0.1467 0.2789
H171_16 H 0.6960 0.1569 0.2975
H172_16 H 0.7555 0.2087 0.4334
H173_16 H 0.7376 0.1938 0.4601
H174_16 H 0.7602 0.1835 0.4428
H175_16 H 0.7552 0.2592 0.4439
H176_16 H 0.7700 0.2805 0.4495
H177_16 H 0.7460 0.2801 0.4725
H178_16 H 0.7251 0.3132 0.2638
H179_16 H 0.7163 0.3278 0.3089
H180_16 H 0.7408 0.3305 0.2898
Ag31_8 Ag 0.29150(2) 0.274638(17) 0.76707(4)
N64_8 N 0.66076(16) 0.10391(16) 0.5492(4)
Ag13_16 Ag 0.290780(14) 0.404870(16) 0.93872(4)
Ag16_16 Ag 0.556540(16) 0.096740(15) 0.71881(4)
Ag17_16 Ag 0.575110(17) 0.147650(16) 0.72177(4)
Ag18_16 Ag 0.539390(17) 0.133090(16) 0.81039(4)
Ag20_16 Ag 0.574510(16) 0.261860(16) 0.97503(4)
Ag21_16 Ag 0.624650(16) 0.240610(16) 0.97973(4)
N1_16 N 0.2759(2) 0.29438(19) 0.8189(4)
N2_16 N 0.2545(2) 0.2998(2) 0.8120(4)
N4_16 N 0.51018(18) 0.01817(16) 0.9098(4)
N10_16 N 0.66604(15) 0.08968(16) 0.5858(4)
N25_16 N 0.27916(16) 0.37368(17) 0.9324(4)
N26_16 N 0.28591(16) 0.35910(18) 0.9673(4)
N29_16 N 0.32197(14) 0.44067(16) 0.9689(4)
N30_16 N 0.30441(15) 0.43499(16) 0.9389(4)
N31_16 N 0.58066(16) 0.10552(16) 0.6683(4)
N32_16 N 0.58699(17) 0.12671(18) 0.6681(4)
N33_16 N 0.57038(17) 0.16812(17) 0.7826(4)
N34_16 N 0.55510(18) 0.1625(2) 0.8171(4)
N35_16 N 0.52825(17) 0.10124(17) 0.8113(4)
N36_16 N 0.53708(17) 0.08640(16) 0.7776(4)
N39_16 N 0.58325(17) 0.23881(16) 0.9227(4)
N40_16 N 0.60349(17) 0.22908(18) 0.9251(5)
C1_16 C 0.3080(2) 0.3054(3) 0.8656(6)
C2_16 C 0.2842(2) 0.3075(2) 0.8527(5)
C3_16 C 0.2694(2) 0.3225(2) 0.8680(5)
C4_16 C 0.2498(2) 0.3170(2) 0.8433(5)
C5_16 C 0.2286(2) 0.3267(2) 0.8449(6)
C6_16 C 0.5403(2) 0.0637(3) 0.9553(6)
C7_16 C 0.5273(2) 0.0486(2) 0.9256(5)
C8_16 C 0.5187(2) 0.0506(2) 0.8776(5)
C9_16 C 0.5083(2) 0.0309(2) 0.8696(5)
C10_16 C 0.4950(2) 0.0233(3) 0.8250(5)
C21_16 C 0.6305(2) 0.1281(3) 0.5242(6)
C22_16 C 0.64048(19) 0.1119(2) 0.5582(5)
C23_16 C 0.63260(18) 0.10281(17) 0.6020(5)
C24_16 C 0.6492(2) 0.0886(2) 0.6181(5)
C25_16 C 0.6508(2) 0.0742(2) 0.6627(5)
C26_16 C 0.3156(2) 0.5177(3) 0.9387(5)
C27_16 C 0.32060(18) 0.5074(2) 0.8902(5)
C28_16 C 0.32171(19) 0.48530(18) 0.8773(5)
C29_16 C 0.32770(19) 0.48448(18) 0.8283(5)
C30_16 C 0.3320(2) 0.4656(3) 0.7954(5)
C61_16 C 0.2627(2) 0.3748(3) 0.8471(5)
C62_16 C 0.27090(19) 0.3630(2) 0.8923(5)
C63_16 C 0.2724(2) 0.34070(19) 0.9032(5)
C64_16 C 0.2819(2) 0.3390(2) 0.9506(4)
C65_16 C 0.28790(19) 0.3198(2) 0.9815(5)
C71_16 C 0.3488(2) 0.4697(2) 0.9789(6)
C72_16 C 0.33020(18) 0.4595(2) 0.9525(5)
C73_16 C 0.31776(19) 0.46638(19) 0.9103(5)
C74_16 C 0.3024(2) 0.4507(2) 0.9046(5)
C75_16 C 0.2850(2) 0.4488(2) 0.8654(6)
C76_16 C 0.59370(19) 0.0698(2) 0.6363(5)
C77_16 C 0.5961(2) 0.09360(17) 0.6432(4)
C78_16 C 0.6128(2) 0.10760(19) 0.6284(5)
C79_16 C 0.6061(2) 0.1281(2) 0.6440(5)
C80_16 C 0.6177(2) 0.1495(2) 0.6406(6)
C81_16 C 0.5998(2) 0.1938(2) 0.7682(6)
C82_16 C 0.58151(19) 0.18435(19) 0.8004(6)
C83_16 C 0.5742(2) 0.1904(2) 0.8468(5)
C84_16 C 0.5573(2) 0.1757(2) 0.8568(5)
C85_16 C 0.5434(3) 0.1741(3) 0.9019(5)
C86_16 C 0.5096(2) 0.1021(2) 0.8930(5)
C87_16 C 0.5201(2) 0.09030(19) 0.8503(4)
C88_16 C 0.5232(2) 0.0685(2) 0.8417(5)
C89_16 C 0.5337(2) 0.0672(2) 0.7962(5)
C90_16 C 0.5412(2) 0.0478(2) 0.7669(5)
C96_16 C 0.5481(2) 0.2328(3) 0.8850(7)
C97_16 C 0.5711(2) 0.2261(2) 0.8945(5)
C98_16 C 0.5820(2) 0.20856(19) 0.8776(5)
C99_16 C 0.6030(2) 0.2110(2) 0.8985(5)
C100_16 C 0.6220(2) 0.1963(3) 0.8952(6)
H1_16 H 0.3142 0.2929 0.8478
H2_16 H 0.3157 0.3186 0.8556
H3_16 H 0.3096 0.3033 0.9017
H4_16 H 0.2189 0.3189 0.8221
H5_16 H 0.2228 0.3258 0.8790
H6_16 H 0.2296 0.3419 0.8346
H7_16 H 0.5435 0.0572 0.9879
H8_16 H 0.5540 0.0668 0.9377
H9_16 H 0.5323 0.0773 0.9602
H10_16 H 0.4897 0.0085 0.8313
H11_16 H 0.4826 0.0330 0.8202
H12_16 H 0.5040 0.0233 0.7950
H25_16 H 0.6405 0.1312 0.4965
H26_16 H 0.6169 0.1223 0.5108
H27_16 H 0.6276 0.1415 0.5426
H28_16 H 0.6647 0.0664 0.6622
H29_16 H 0.6498 0.0829 0.6932
H30_16 H 0.6388 0.0636 0.6622
H31_16 H 0.3160 0.5335 0.9351
H32_16 H 0.3012 0.5132 0.9498
H33_16 H 0.3265 0.5132 0.9635
H34_16 H 0.3360 0.4707 0.7620
H35_16 H 0.3440 0.4570 0.8093
H36_16 H 0.3189 0.4566 0.7933
H73_16 H 0.2637 0.3905 0.8527
H74_16 H 0.2715 0.3709 0.8180
H75_16 H 0.2475 0.3708 0.8409
H77_16 H 0.2749 0.3112 0.9886
H78_16 H 0.2984 0.3108 0.9632
H86_16 H 0.3609 0.4717 0.9556
H87_16 H 0.3444 0.4838 0.9922
H88_16 H 0.2765 0.4356 0.8714
H89_16 H 0.2755 0.4615 0.8670
H90_16 H 0.2917 0.4480 0.8323
H91_16 H 0.5800 0.0650 0.6513
H92_16 H 0.5936 0.0664 0.6005
H93_16 H 0.6058 0.0623 0.6525
H94_16 H 0.6086 0.1609 0.6555
H95_16 H 0.6315 0.1487 0.6586
H96_16 H 0.6204 0.1530 0.6054
H97_16 H 0.6007 0.1857 0.7368
H98_16 H 0.5967 0.2091 0.7610
H99_16 H 0.6136 0.1927 0.7862
H100_16 H 0.5329 0.1623 0.8975
H101_16 H 0.5525 0.1711 0.9312
H102_16 H 0.5356 0.1879 0.9069
H103_16 H 0.5101 0.1177 0.8869
H104_16 H 0.4944 0.0974 0.8961
H105_16 H 0.5173 0.0987 0.9241
H106_16 H 0.5479 0.0526 0.7356
H107_16 H 0.5519 0.0396 0.7866
H108_16 H 0.5287 0.0385 0.7595
H112_16 H 0.5292 0.2704 0.9793
H113_16 H 0.5147 0.2907 0.9958
H115_16 H 0.5452 0.2466 0.9021
H116_16 H 0.5383 0.2216 0.8979
H117_16 H 0.5458 0.2345 0.8490
H118_16 H 0.6342 0.2026 0.9136
H119_16 H 0.6260 0.1944 0.8600
H120_16 H 0.6182 0.1822 0.9097
H121_16 H 0.6679 0.2237 0.9937
H48_16 H 0.1602 0.9863 0.0159
loop_
_geom_bond_atom_site_label_1
_geom_bond_atom_site_label_2
_geom_bond_site_symmetry_1
_geom_bond_site_symmetry_2
N11 N12 1_555 1_555
C26 C27 1_555 1_555
C27 N11 1_555 1_555
H31 C26 1_555 1_555
H32 C26 1_555 1_555
H33 C26 1_555 1_555
Ag34 N12 1_555 1_555
Ag36 N11 1_555 1_555
Ag1 N1 1_555 1_555
Ag2 N2 1_555 1_555
Ag3 N4 1_555 1_555
Ag6 N10 1_555 1_555
Ag13 N25 1_555 1_555
Ag16 N31 1_555 1_555
Ag17 N32 1_555 1_555
Ag18 N34 1_555 1_555
Ag21 N40 1_555 1_555
N1 N2 1_555 1_555
N2 C4 1_555 1_555
N3 N4 1_555 1_555
N4 C9 1_555 1_555
N9 N10 1_555 1_555
N10 C24 1_555 1_555
N25 N26 1_555 1_555
N26 C64 1_555 1_555
N30 Ag13 1_555 1_555
N31 N32 1_555 1_555
N32 C79 1_555 1_555
N33 Ag17 1_555 1_555
N34 N33 1_555 1_555
N35 Ag18 1_555 1_555
N36 Ag16 1_555 1_555
N39 Ag20 1_555 1_555
N40 N39 1_555 1_555
C1 C2 1_555 1_555
C2 N1 1_555 1_555
C3 C2 1_555 1_555
C4 C3 1_555 1_555
C5 C4 1_555 1_555
C6 C7 1_555 1_555
C7 N3 1_555 1_555
C8 C7 1_555 1_555
C9 C8 1_555 1_555
C10 C9 1_555 1_555
C21 C22 1_555 1_555
C22 N9 1_555 1_555
C23 C22 1_555 1_555
C24 C23 1_555 1_555
C25 C24 1_555 1_555
C29 C28 1_555 1_555
C30 C29 1_555 1_555
C61 C62 1_555 1_555
C62 N25 1_555 1_555
C63 C3 1_555 1_555
C64 C63 1_555 1_555
C65 C64 1_555 1_555
C71 C72 1_555 1_555
C72 N29 1_555 1_555
C73 C28 1_555 1_555
C74 N30 1_555 1_555
C75 C74 1_555 1_555
C76 C77 1_555 1_555
C77 N31 1_555 1_555
C78 C23 1_555 1_555
C79 C78 1_555 1_555
C80 C79 1_555 1_555
C81 C82 1_555 1_555
C82 N33 1_555 1_555
C83 C82 1_555 1_555
C84 N34 1_555 1_555
C85 C84 1_555 1_555
C86 C87 1_555 1_555
C87 N35 1_555 1_555
C88 C8 1_555 1_555
C89 N36 1_555 1_555
C90 C89 1_555 1_555
C96 C97 1_555 1_555
C97 N39 1_555 1_555
C98 C83 1_555 1_555
C99 N40 1_555 1_555
C100 C99 1_555 1_555
H1 C1 1_555 1_555
H2 C1 1_555 1_555
H3 C1 1_555 1_555
H4 C5 1_555 1_555
H5 C5 1_555 1_555
H6 C5 1_555 1_555
H7 C6 1_555 1_555
H8 C6 1_555 1_555
H9 C6 1_555 1_555
H10 C10 1_555 1_555
H11 C10 1_555 1_555
H12 C10 1_555 1_555
H25 C21 1_555 1_555
H26 C21 1_555 1_555
H27 C21 1_555 1_555
H28 C25 1_555 1_555
H29 C25 1_555 1_555
H30 C25 1_555 1_555
H34 C30 1_555 1_555
H35 C30 1_555 1_555
H36 C30 1_555 1_555
H73 C61 1_555 1_555
H74 C61 1_555 1_555
H75 C61 1_555 1_555
H77 C65 1_555 1_555
H78 C65 1_555 1_555
H86 C71 1_555 1_555
H87 C71 1_555 1_555
H88 C75 1_555 1_555
H89 C75 1_555 1_555
H90 C75 1_555 1_555
H91 C76 1_555 1_555
H92 C76 1_555 1_555
H93 C76 1_555 1_555
H94 C80 1_555 1_555
H95 C80 1_555 1_555
H96 C80 1_555 1_555
H97 C81 1_555 1_555
H98 C81 1_555 1_555
H99 C81 1_555 1_555
H100 C85 1_555 1_555
H101 C85 1_555 1_555
H102 C85 1_555 1_555
H103 C86 1_555 1_555
H104 C86 1_555 1_555
H105 C86 1_555 1_555
H106 C90 1_555 1_555
H107 C90 1_555 1_555
H108 C90 1_555 1_555
H115 C96 1_555 1_555
H116 C96 1_555 1_555
H117 C96 1_555 1_555
H118 C100 1_555 1_555
H119 C100 1_555 1_555
H120 C100 1_555 1_555
Ag35 N9 1_555 1_555
N61 Ag2 1_555 1_555
N62 Ag3 1_555 1_555
N63 Ag1 1_555 1_555
N65 Ag6 1_555 1_555
N29 N30 1_555 1_555
N35 N36 1_555 1_555
C62 C63 1_555 1_555
C72 C73 1_555 1_555
C73 C74 1_555 1_555
C77 C78 1_555 1_555
C83 C84 1_555 1_555
C87 C88 1_555 1_555
C88 C89 1_555 1_555
C97 C98 1_555 1_555
C98 C99 1_555 1_555
Ag4 N7 1_555 1_555
Ag35 N8 1_555 1_555
Ag7 N13 1_555 1_555
Ag8 N14 1_555 1_555
Ag9 N17 1_555 1_555
Ag10 N19 1_555 1_555
Ag11 N20 1_555 1_555
Ag12 N23 1_555 1_555
Ag15 N28 1_555 1_555
Ag19 N37 1_555 1_555
Ag22 N43 1_555 1_555
Ag23 N44 1_555 1_555
Ag24 N46 1_555 1_555
Ag25 N49 1_555 1_555
Ag26 N50 1_555 1_555
Ag27 N52 1_555 1_555
Ag28 N55 1_555 1_555
Ag29 N56 1_555 1_555
Ag30 N58 1_555 1_555
N5 N63 1_555 1_555
N63 C14 1_555 1_555
N7 N8 1_555 1_555
N8 C19 1_555 1_555
N13 N14 1_555 1_555
N14 C34 1_555 1_555
N15 N16 1_555 1_555
N16 C39 1_555 1_555
N17 N18 1_555 1_555
N18 Ag7 1_555 1_555
N19 N20 1_555 1_555
N20 C49 1_555 1_555
N21 N22 1_555 1_555
N22 C54 1_555 1_555
N23 N24 1_555 1_555
N24 Ag10 1_555 1_555
N27 Ag14 1_555 1_555
N28 N27 1_555 1_555
N37 N38 1_555 1_555
N38 C94 1_555 1_555
N42 Ag19 1_555 1_555
N43 N44 1_555 1_555
N44 C109 1_555 1_555
N45 Ag23 1_555 1_555
N46 N45 1_555 1_555
N47 Ag24 1_555 1_555
N48 Ag22 1_555 1_555
N49 N50 1_555 1_555
N50 C124 1_555 1_555
N51 Ag26 1_555 1_555
N52 N51 1_555 1_555
N53 Ag27 1_555 1_555
N54 Ag25 1_555 1_555
N55 N56 1_555 1_555
N56 C139 1_555 1_555
N57 Ag29 1_555 1_555
N58 N57 1_555 1_555
N59 Ag30 1_555 1_555
N60 Ag28 1_555 1_555
C11 C12 1_555 1_555
C12 N5 1_555 1_555
C13 C12 1_555 1_555
C14 C13 1_555 1_555
C15 C14 1_555 1_555
C16 C17 1_555 1_555
C17 N7 1_555 1_555
C18 C17 1_555 1_555
C19 C18 1_555 1_555
C20 C19 1_555 1_555
C31 C32 1_555 1_555
C32 N13 1_555 1_555
C33 C32 1_555 1_555
C34 C33 1_555 1_555
C35 C34 1_555 1_555
C36 C37 1_555 1_555
C37 N15 1_555 1_555
C38 C33 1_555 1_555
C39 C38 1_555 1_555
C40 C39 1_555 1_555
C41 C42 1_555 1_555
C42 N17 1_555 1_555
C43 C42 1_555 1_555
C44 N18 1_555 1_555
C45 C44 1_555 1_555
C46 C47 1_555 1_555
C47 N19 1_555 1_555
C48 C47 1_555 1_555
C49 C48 1_555 1_555
C50 C49 1_555 1_555
C51 C52 1_555 1_555
C52 N21 1_555 1_555
C53 C48 1_555 1_555
C54 C53 1_555 1_555
C55 C54 1_555 1_555
C56 C57 1_555 1_555
C57 N23 1_555 1_555
C58 C57 1_555 1_555
C59 N24 1_555 1_555
C60 C59 1_555 1_555
C66 C67 1_555 1_555
C67 N27 1_555 1_555
C68 C67 1_555 1_555
C69 N28 1_555 1_555
C70 C69 1_555 1_555
C91 C92 1_555 1_555
C92 N37 1_555 1_555
C93 C92 1_555 1_555
C94 C93 1_555 1_555
C95 C94 1_555 1_555
C101 C102 1_555 1_555
C102 N41 1_555 1_555
C103 C102 1_555 1_555
C104 N42 1_555 1_555
C105 C104 1_555 1_555
C106 C107 1_555 1_555
C107 N43 1_555 1_555
C108 C107 1_555 1_555
C109 C108 1_555 1_555
C110 C109 1_555 1_555
C111 C112 1_555 1_555
C112 N45 1_555 1_555
C113 C93 1_555 1_555
C114 N46 1_555 1_555
C115 C114 1_555 1_555
C116 C117 1_555 1_555
C117 N47 1_555 1_555
C118 C68 1_555 1_555
C119 N48 1_555 1_555
C120 C119 1_555 1_555
C121 C122 1_555 1_555
C122 N49 1_555 1_555
C123 C43 1_555 1_555
C124 C123 1_555 1_555
C125 C124 1_555 1_555
C126 C127 1_555 1_555
C127 N51 1_555 1_555
C128 C108 1_555 1_555
C129 N52 1_555 1_555
C130 C129 1_555 1_555
C131 C132 1_555 1_555
C132 N53 1_555 1_555
C133 C13 1_555 1_555
C134 N54 1_555 1_555
C135 C134 1_555 1_555
C136 C137 1_555 1_555
C137 N55 1_555 1_555
C138 C103 1_555 1_555
C139 C138 1_555 1_555
C140 C139 1_555 1_555
C141 C142 1_555 1_555
C142 N57 1_555 1_555
C143 C18 1_555 1_555
C144 N58 1_555 1_555
C145 C144 1_555 1_555
C146 C147 1_555 1_555
C147 N59 1_555 1_555
C148 C58 1_555 1_555
C149 N60 1_555 1_555
C150 C149 1_555 1_555
H13 C11 1_555 1_555
H14 C11 1_555 1_555
H15 C11 1_555 1_555
H16 C15 1_555 1_555
H17 C15 1_555 1_555
H18 C15 1_555 1_555
H19 C16 1_555 1_555
H20 C16 1_555 1_555
H21 C16 1_555 1_555
H22 C20 1_555 1_555
H23 C20 1_555 1_555
H24 C20 1_555 1_555
H37 C31 1_555 1_555
H38 C31 1_555 1_555
H39 C31 1_555 1_555
H40 C35 1_555 1_555
H41 C35 1_555 1_555
H42 C35 1_555 1_555
H43 C36 1_555 1_555
H44 C36 1_555 1_555
H45 C36 1_555 1_555
H46 C40 1_555 1_555
H47 C40 1_555 1_555
H48 C40 1_555 1_555
H49 C41 1_555 1_555
H50 C41 1_555 1_555
H51 C41 1_555 1_555
H52 C45 1_555 1_555
H53 C45 1_555 1_555
H54 C45 1_555 1_555
H55 C46 1_555 1_555
H56 C46 1_555 1_555
H57 C46 1_555 1_555
H58 C50 1_555 1_555
H59 C50 1_555 1_555
H60 C50 1_555 1_555
H61 C51 1_555 1_555
H62 C51 1_555 1_555
H63 C51 1_555 1_555
H64 C55 1_555 1_555
H65 C55 1_555 1_555
H66 C55 1_555 1_555
H67 C56 1_555 1_555
H68 C56 1_555 1_555
H69 C56 1_555 1_555
H70 C60 1_555 1_555
H71 C60 1_555 1_555
H72 C60 1_555 1_555
H79 C66 1_555 1_555
H80 C66 1_555 1_555
H81 C66 1_555 1_555
H82 C70 1_555 1_555
H83 C70 1_555 1_555
H84 C70 1_555 1_555
H109 C91 1_555 1_555
H110 C91 1_555 1_555
H111 C91 1_555 1_555
H114 C95 1_555 1_555
H122 C101 1_555 1_555
H123 C101 1_555 1_555
H124 C105 1_555 1_555
H125 C105 1_555 1_555
H126 C105 1_555 1_555
H127 C106 1_555 1_555
H128 C106 1_555 1_555
H129 C106 1_555 1_555
H130 C110 1_555 1_555
H131 C110 1_555 1_555
H132 C110 1_555 1_555
H133 C111 1_555 1_555
H134 C111 1_555 1_555
H135 C111 1_555 1_555
H136 C115 1_555 1_555
H137 C115 1_555 1_555
H138 C115 1_555 1_555
H139 C116 1_555 1_555
H140 C116 1_555 1_555
H141 C116 1_555 1_555
H142 C120 1_555 1_555
H143 C120 1_555 1_555
H144 C120 1_555 1_555
H145 C121 1_555 1_555
H146 C121 1_555 1_555
H147 C121 1_555 1_555
H148 C125 1_555 1_555
H149 C125 1_555 1_555
H150 C125 1_555 1_555
H151 C126 1_555 1_555
H152 C126 1_555 1_555
H153 C126 1_555 1_555
H154 C130 1_555 1_555
H155 C130 1_555 1_555
H156 C130 1_555 1_555
H157 C131 1_555 1_555
H158 C131 1_555 1_555
H159 C131 1_555 1_555
H160 C135 1_555 1_555
H161 C135 1_555 1_555
H162 C135 1_555 1_555
H163 C136 1_555 1_555
H164 C136 1_555 1_555
H165 C136 1_555 1_555
H166 C140 1_555 1_555
H167 C140 1_555 1_555
H168 C140 1_555 1_555
H169 C141 1_555 1_555
H170 C141 1_555 1_555
H171 C141 1_555 1_555
H172 C145 1_555 1_555
H173 C145 1_555 1_555
H174 C145 1_555 1_555
H175 C146 1_555 1_555
H176 C146 1_555 1_555
H177 C146 1_555 1_555
H178 C150 1_555 1_555
H179 C150 1_555 1_555
H180 C150 1_555 1_555
Ag33 N5 1_555 1_555
Ag37 N15 1_555 1_555
Ag38 N16 1_555 1_555
Ag40 N22 1_555 1_555
N66 Ag4 1_555 1_555
N67 Ag8 1_555 1_555
N68 Ag9 1_555 1_555
N69 Ag11 1_555 1_555
N70 Ag12 1_555 1_555
N41 N42 1_555 1_555
N47 N48 1_555 1_555
N53 N54 1_555 1_555
N59 N60 1_555 1_555
C37 C38 1_555 1_555
C43 C44 1_555 1_555
C52 C53 1_555 1_555
C58 C59 1_555 1_555
C68 C69 1_555 1_555
C103 C104 1_555 1_555
C112 C113 1_555 1_555
C113 C114 1_555 1_555
C117 C118 1_555 1_555
C118 C119 1_555 1_555
C122 C123 1_555 1_555
C127 C128 1_555 1_555
C128 C129 1_555 1_555
C132 C133 1_555 1_555
C133 C134 1_555 1_555
C137 C138 1_555 1_555
C142 C143 1_555 1_555
C143 C144 1_555 1_555
C147 C148 1_555 1_555
C148 C149 1_555 1_555
N67 N68 1_555 1_555
N69 N70 1_555 1_555
Ag33 N4_2 1_555 1_555
Ag6_2 N10_2 1_555 1_555
Ag16_2 N31_2 1_555 1_555
Ag17_2 N32_2 1_555 1_555
Ag18_2 N34_2 1_555 1_555
Ag21_2 N40_2 1_555 1_555
Ag29_2 N56_2 1_555 1_555
N61 N4_2 1_555 1_555
N4_2 C9_2 1_555 1_555
N9_2 N10_2 1_555 1_555
N10_2 C24_2 1_555 1_555
N15_2 N16_2 1_555 1_555
N16_2 C39_2 1_555 1_555
N31_2 N32_2 1_555 1_555
N32_2 C79_2 1_555 1_555
N33_2 Ag17_2 1_555 1_555
N34_2 N33_2 1_555 1_555
N35_2 Ag18_2 1_555 1_555
N36_2 Ag16_2 1_555 1_555
N40_2 N39_2 1_555 1_555
N41_2 Ag21_2 1_555 1_555
N56_2 C139_2 1_555 1_555
C6_2 C7_2 1_555 1_555
C7_2 N61 1_555 1_555
C8_2 C7_2 1_555 1_555
C9_2 C8_2 1_555 1_555
C10_2 C9_2 1_555 1_555
C21_2 C22_2 1_555 1_555
C22_2 N9_2 1_555 1_555
C23_2 C22_2 1_555 1_555
C24_2 C23_2 1_555 1_555
C25_2 C24_2 1_555 1_555
C31_2 C32_2 1_555 1_555
C33_2 C32_2 1_555 1_555
C34_2 C33_2 1_555 1_555
C35_2 C34_2 1_555 1_555
C36_2 C37_2 1_555 1_555
C37_2 N15_2 1_555 1_555
C38_2 C33_2 1_555 1_555
C39_2 C38_2 1_555 1_555
C40_2 C39_2 1_555 1_555
C76_2 C77_2 1_555 1_555
C77_2 N31_2 1_555 1_555
C78_2 C23_2 1_555 1_555
C79_2 C78_2 1_555 1_555
C80_2 C79_2 1_555 1_555
C81_2 C82_2 1_555 1_555
C82_2 N33_2 1_555 1_555
C83_2 C82_2 1_555 1_555
C84_2 N34_2 1_555 1_555
C85_2 C84_2 1_555 1_555
C86_2 C87_2 1_555 1_555
C87_2 N35_2 1_555 1_555
C88_2 C8_2 1_555 1_555
C89_2 N36_2 1_555 1_555
C90_2 C89_2 1_555 1_555
C96_2 C97_2 1_555 1_555
C97_2 N39_2 1_555 1_555
C98_2 C83_2 1_555 1_555
C99_2 N40_2 1_555 1_555
C100_2 C99_2 1_555 1_555
C101_2 C102_2 1_555 1_555
C102_2 N41_2 1_555 1_555
C139_2 C138_2 1_555 1_555
C140_2 C139_2 1_555 1_555
H7_2 C6_2 1_555 1_555
H8_2 C6_2 1_555 1_555
H9_2 C6_2 1_555 1_555
H10_2 C10_2 1_555 1_555
H11_2 C10_2 1_555 1_555
H12_2 C10_2 1_555 1_555
H25_2 C21_2 1_555 1_555
H26_2 C21_2 1_555 1_555
H27_2 C21_2 1_555 1_555
H28_2 C25_2 1_555 1_555
H29_2 C25_2 1_555 1_555
H30_2 C25_2 1_555 1_555
H37_2 C31_2 1_555 1_555
H38_2 C31_2 1_555 1_555
H39_2 C31_2 1_555 1_555
H40_2 C35_2 1_555 1_555
H41_2 C35_2 1_555 1_555
H42_2 C35_2 1_555 1_555
H43_2 C36_2 1_555 1_555
H44_2 C36_2 1_555 1_555
H45_2 C36_2 1_555 1_555
H46_2 C40_2 1_555 1_555
H47_2 C40_2 1_555 1_555
H91_2 C76_2 1_555 1_555
H92_2 C76_2 1_555 1_555
H93_2 C76_2 1_555 1_555
H94_2 C80_2 1_555 1_555
H95_2 C80_2 1_555 1_555
H96_2 C80_2 1_555 1_555
H97_2 C81_2 1_555 1_555
H98_2 C81_2 1_555 1_555
H99_2 C81_2 1_555 1_555
H100_2 C85_2 1_555 1_555
H101_2 C85_2 1_555 1_555
H102_2 C85_2 1_555 1_555
H103_2 C86_2 1_555 1_555
H104_2 C86_2 1_555 1_555
H105_2 C86_2 1_555 1_555
H106_2 C90_2 1_555 1_555
H107_2 C90_2 1_555 1_555
H108_2 C90_2 1_555 1_555
H115_2 C96_2 1_555 1_555
H116_2 C96_2 1_555 1_555
H117_2 C96_2 1_555 1_555
H118_2 C100_2 1_555 1_555
H119_2 C100_2 1_555 1_555
H120_2 C100_2 1_555 1_555
H121_2 C101_2 1_555 1_555
H122_2 C101_2 1_555 1_555
H123_2 C101_2 1_555 1_555
H166_2 C140_2 1_555 1_555
H167_2 C140_2 1_555 1_555
H168_2 C140_2 1_555 1_555
Ag35_2 N9_2 1_555 1_555
Ag37_2 N15_2 1_555 1_555
Ag38_2 N16_2 1_555 1_555
N65_2 Ag6_2 1_555 1_555
N35_2 N36_2 1_555 1_555
C37_2 C38_2 1_555 1_555
C77_2 C78_2 1_555 1_555
C83_2 C84_2 1_555 1_555
C87_2 C88_2 1_555 1_555
C88_2 C89_2 1_555 1_555
C97_2 C98_2 1_555 1_555
C98_2 C99_2 1_555 1_555
Ag4_2 N7_2 1_555 1_555
Ag35_2 N8_2 1_555 1_555
Ag7_2 N13_2 1_555 1_555
Ag37 N14_2 1_555 1_555
Ag38 N17_2 1_555 1_555
Ag25_2 N49_2 1_555 1_555
Ag26_2 N50_2 1_555 1_555
Ag27_2 N52_2 1_555 1_555
Ag30_2 N58_2 1_555 1_555
N7_2 N8_2 1_555 1_555
N8_2 C19_2 1_555 1_555
N13_2 N14_2 1_555 1_555
N17_2 N18_2 1_555 1_555
N18_2 Ag7_2 1_555 1_555
N49_2 N50_2 1_555 1_555
N50_2 C124_2 1_555 1_555
N51_2 Ag26_2 1_555 1_555
N52_2 N51_2 1_555 1_555
N53_2 Ag27_2 1_555 1_555
N54_2 Ag25_2 1_555 1_555
N58_2 N57_2 1_555 1_555
C11_2 C12_2 1_555 1_555
C12_2 N5_2 1_555 1_555
C13_2 C12_2 1_555 1_555
C17_2 N7_2 1_555 1_555
C18_2 C17_2 1_555 1_555
C19_2 C18_2 1_555 1_555
C20_2 C19_2 1_555 1_555
C41_2 C42_2 1_555 1_555
C42_2 N17_2 1_555 1_555
C43_2 C42_2 1_555 1_555
C44_2 N18_2 1_555 1_555
C45_2 C44_2 1_555 1_555
C121_2 C122_2 1_555 1_555
C122_2 N49_2 1_555 1_555
C123_2 C43_2 1_555 1_555
C124_2 C123_2 1_555 1_555
C125_2 C124_2 1_555 1_555
C126_2 C127_2 1_555 1_555
C127_2 N51_2 1_555 1_555
C133_2 C13_2 1_555 1_555
C134_2 N54_2 1_555 1_555
C135_2 C134_2 1_555 1_555
C141_2 C142_2 1_555 1_555
C142_2 N57_2 1_555 1_555
C143_2 C18_2 1_555 1_555
C144_2 N58_2 1_555 1_555
C145_2 C144_2 1_555 1_555
H13_2 C11_2 1_555 1_555
H14_2 C11_2 1_555 1_555
H15_2 C11_2 1_555 1_555
H22_2 C20_2 1_555 1_555
H23_2 C20_2 1_555 1_555
H24_2 C20_2 1_555 1_555
H49_2 C41_2 1_555 1_555
H50_2 C41_2 1_555 1_555
H51_2 C41_2 1_555 1_555
H52_2 C45_2 1_555 1_555
H53_2 C45_2 1_555 1_555
H54_2 C45_2 1_555 1_555
H145_2 C121_2 1_555 1_555
H146_2 C121_2 1_555 1_555
H147_2 C121_2 1_555 1_555
H148_2 C125_2 1_555 1_555
H149_2 C125_2 1_555 1_555
H150_2 C125_2 1_555 1_555
H151_2 C126_2 1_555 1_555
H152_2 C126_2 1_555 1_555
H153_2 C126_2 1_555 1_555
H160_2 C135_2 1_555 1_555
H161_2 C135_2 1_555 1_555
H162_2 C135_2 1_555 1_555
H169_2 C141_2 1_555 1_555
H170_2 C141_2 1_555 1_555
H171_2 C141_2 1_555 1_555
H173_2 C145_2 1_555 1_555
N66_2 Ag4_2 1_555 1_555
N53_2 N54_2 1_555 1_555
C43_2 C44_2 1_555 1_555
C122_2 C123_2 1_555 1_555
C133_2 C134_2 1_555 1_555
C142_2 C143_2 1_555 1_555
C143_2 C144_2 1_555 1_555
Ag10_2 N19_2 1_555 1_555
Ag39 N20_2 1_555 1_555
N19_2 N20_2 1_555 1_555
N20_2 C49_2 1_555 1_555
N21_2 N22_2 1_555 1_555
N22_2 C54_2 1_555 1_555
N24_2 Ag10_2 1_555 1_555
C46_2 C47_2 1_555 1_555
C47_2 N19_2 1_555 1_555
C48_2 C47_2 1_555 1_555
C49_2 C48_2 1_555 1_555
C50_2 C49_2 1_555 1_555
C51_2 C52_2 1_555 1_555
C52_2 N21_2 1_555 1_555
C53_2 C48_2 1_555 1_555
C54_2 C53_2 1_555 1_555
C55_2 C54_2 1_555 1_555
C59_2 N24_2 1_555 1_555
C60_2 C59_2 1_555 1_555
H55_2 C46_2 1_555 1_555
H56_2 C46_2 1_555 1_555
H57_2 C46_2 1_555 1_555
H58_2 C50_2 1_555 1_555
H59_2 C50_2 1_555 1_555
H60_2 C50_2 1_555 1_555
H61_2 C51_2 1_555 1_555
H62_2 C51_2 1_555 1_555
H63_2 C51_2 1_555 1_555
H64_2 C55_2 1_555 1_555
H65_2 C55_2 1_555 1_555
H66_2 C55_2 1_555 1_555
H70_2 C60_2 1_555 1_555
H71_2 C60_2 1_555 1_555
H72_2 C60_2 1_555 1_555
H175_2 C146_2 1_555 1_555
H176_2 C146_2 1_555 1_555
Ag40_2 N22_2 1_555 1_555
C52_2 C53_2 1_555 1_555
Ag1_2 N1_2 1_555 1_555
Ag2_2 N2_2 1_555 1_555
Ag13_2 N25_2 1_555 1_555
Ag14_2 N26_2 1_555 1_555
Ag15_2 N28_2 1_555 1_555
Ag19_2 N37_2 1_555 1_555
Ag20_2 N38_2 1_555 1_555
Ag24_2 N46_2 1_555 1_555
N1_2 N2_2 1_555 1_555
N2_2 C4_2 1_555 1_555
N65 N66 1_555 1_555
N66 C29_2 1_555 1_555
N25_2 N26_2 1_555 1_555
N26_2 C64_2 1_555 1_555
N27_2 Ag14_2 1_555 1_555
N28_2 N27_2 1_555 1_555
N29_2 Ag15_2 1_555 1_555
N30_2 Ag13_2 1_555 1_555
N37_2 N38_2 1_555 1_555
N38_2 C94_2 1_555 1_555
N42_2 Ag19_2 1_555 1_555
N45_2 Ag23_2 1_555 1_555
N46_2 N45_2 1_555 1_555
N47_2 Ag24_2 1_555 1_555
N48_2 Ag22_2 1_555 1_555
C1_2 C2_2 1_555 1_555
C2_2 N1_2 1_555 1_555
C3_2 C2_2 1_555 1_555
C4_2 C3_2 1_555 1_555
C5_2 C4_2 1_555 1_555
C26_2 C27_2 1_555 1_555
C27_2 N65 1_555 1_555
C28_2 C27_2 1_555 1_555
C29_2 C28_2 1_555 1_555
C30_2 C29_2 1_555 1_555
C61_2 C62_2 1_555 1_555
C62_2 N25_2 1_555 1_555
C63_2 C3_2 1_555 1_555
C64_2 C63_2 1_555 1_555
C65_2 C64_2 1_555 1_555
C66_2 C67_2 1_555 1_555
C67_2 N27_2 1_555 1_555
C68_2 C67_2 1_555 1_555
C69_2 N28_2 1_555 1_555
C70_2 C69_2 1_555 1_555
C71_2 C72_2 1_555 1_555
C72_2 N29_2 1_555 1_555
C73_2 C28_2 1_555 1_555
C74_2 N30_2 1_555 1_555
C75_2 C74_2 1_555 1_555
C91_2 C92_2 1_555 1_555
C92_2 N37_2 1_555 1_555
C93_2 C92_2 1_555 1_555
C94_2 C93_2 1_555 1_555
C95_2 C94_2 1_555 1_555
C104_2 N42_2 1_555 1_555
C105_2 C104_2 1_555 1_555
C111_2 C112_2 1_555 1_555
C112_2 N45_2 1_555 1_555
C113_2 C93_2 1_555 1_555
C114_2 N46_2 1_555 1_555
C115_2 C114_2 1_555 1_555
C116_2 C117_2 1_555 1_555
C117_2 N47_2 1_555 1_555
C118_2 C68_2 1_555 1_555
C119_2 N48_2 1_555 1_555
C120_2 C119_2 1_555 1_555
C136_2 C137_2 1_555 1_555
C137_2 N55_2 1_555 1_555
H1_2 C1_2 1_555 1_555
H2_2 C1_2 1_555 1_555
H3_2 C1_2 1_555 1_555
H4_2 C5_2 1_555 1_555
H5_2 C5_2 1_555 1_555
H6_2 C5_2 1_555 1_555
H31_2 C26_2 1_555 1_555
H32_2 C26_2 1_555 1_555
H33_2 C26_2 1_555 1_555
H34_2 C30_2 1_555 1_555
H35_2 C30_2 1_555 1_555
H36_2 C30_2 1_555 1_555
H73_2 C61_2 1_555 1_555
H74_2 C61_2 1_555 1_555
H75_2 C61_2 1_555 1_555
H76_2 C65_2 1_555 1_555
H77_2 C65_2 1_555 1_555
H78_2 C65_2 1_555 1_555
H79_2 C66_2 1_555 1_555
H80_2 C66_2 1_555 1_555
H81_2 C66_2 1_555 1_555
H82_2 C70_2 1_555 1_555
H83_2 C70_2 1_555 1_555
H84_2 C70_2 1_555 1_555
H85_2 C71_2 1_555 1_555
H86_2 C71_2 1_555 1_555
H87_2 C71_2 1_555 1_555
H88_2 C75_2 1_555 1_555
H89_2 C75_2 1_555 1_555
H90_2 C75_2 1_555 1_555
H109_2 C91_2 1_555 1_555
H110_2 C91_2 1_555 1_555
H111_2 C91_2 1_555 1_555
H112_2 C95_2 1_555 1_555
H113_2 C95_2 1_555 1_555
H114_2 C95_2 1_555 1_555
H124_2 C105_2 1_555 1_555
H125_2 C105_2 1_555 1_555
H126_2 C105_2 1_555 1_555
H133_2 C111_2 1_555 1_555
H134_2 C111_2 1_555 1_555
H135_2 C111_2 1_555 1_555
H136_2 C115_2 1_555 1_555
H137_2 C115_2 1_555 1_555
H138_2 C115_2 1_555 1_555
H139_2 C116_2 1_555 1_555
H140_2 C116_2 1_555 1_555
H141_2 C116_2 1_555 1_555
H142_2 C120_2 1_555 1_555
H143_2 C120_2 1_555 1_555
H144_2 C120_2 1_555 1_555
H163_2 C136_2 1_555 1_555
H164_2 C136_2 1_555 1_555
H165_2 C136_2 1_555 1_555
N61_2 Ag2_2 1_555 1_555
N63_2 Ag1_2 1_555 1_555
N29_2 N30_2 1_555 1_555
N47_2 N48_2 1_555 1_555
C62_2 C63_2 1_555 1_555
C68_2 C69_2 1_555 1_555
C72_2 C73_2 1_555 1_555
C73_2 C74_2 1_555 1_555
C103_2 C104_2 1_555 1_555
C112_2 C113_2 1_555 1_555
C113_2 C114_2 1_555 1_555
C117_2 C118_2 1_555 1_555
C118_2 C119_2 1_555 1_555
Ag40 N23_2 1_555 1_555
N63_2 C14_2 1_555 1_555
N43_2 N44_2 1_555 1_555
N44_2 C109_2 1_555 1_555
N60_2 Ag28_2 1_555 1_555
C15_2 C14_2 1_555 1_555
C56_2 C57_2 1_555 1_555
C57_2 N23_2 1_555 1_555
C58_2 C57_2 1_555 1_555
C106_2 C107_2 1_555 1_555
C107_2 N43_2 1_555 1_555
C108_2 C107_2 1_555 1_555
C109_2 C108_2 1_555 1_555
C110_2 C109_2 1_555 1_555
C128_2 C108_2 1_555 1_555
C130_2 C129_2 1_555 1_555
C131_2 C132_2 1_555 1_555
C147_2 N59_2 1_555 1_555
C148_2 C58_2 1_555 1_555
C149_2 N60_2 1_555 1_555
C150_2 C149_2 1_555 1_555
H16_2 C15_2 1_555 1_555
H17_2 C15_2 1_555 1_555
H18_2 C15_2 1_555 1_555
H67_2 C56_2 1_555 1_555
H68_2 C56_2 1_555 1_555
H69_2 C56_2 1_555 1_555
H127_2 C106_2 1_555 1_555
H128_2 C106_2 1_555 1_555
H129_2 C106_2 1_555 1_555
H130_2 C110_2 1_555 1_555
H132_2 C110_2 1_555 1_555
H154_2 C130_2 1_555 1_555
H155_2 C130_2 1_555 1_555
H156_2 C130_2 1_555 1_555
H157_2 C131_2 1_555 1_555
H158_2 C131_2 1_555 1_555
H159_2 C131_2 1_555 1_555
H178_2 C150_2 1_555 1_555
H179_2 C150_2 1_555 1_555
H180_2 C150_2 1_555 1_555
N59_2 N60_2 1_555 1_555
C128_2 C129_2 1_555 1_555
C147_2 C148_2 1_555 1_555
C148_2 C149_2 1_555 1_555
Ag1_3 N1_3 1_555 1_555
Ag2_3 N2_3 1_555 1_555
Ag7_3 N13_3 1_555 1_555
Ag37_2 N14_3 1_555 1_555
Ag38_2 N17_3 1_555 1_555
Ag13_3 N25_3 1_555 1_555
Ag14_3 N26_3 1_555 1_555
Ag15_3 N28_3 1_555 1_555
Ag22_3 N43_3 1_555 1_555
Ag23_3 N44_3 1_555 1_555
Ag24_3 N46_3 1_555 1_555
Ag26_3 N50_3 1_555 1_555
N1_3 N2_3 1_555 1_555
N2_3 C4_3 1_555 1_555
N13_3 N14_3 1_555 1_555
N14_3 C34_3 1_555 1_555
N15_3 N16_3 1_555 1_555
N16_3 C39_3 1_555 1_555
N17_3 N18_3 1_555 1_555
N18_3 Ag7_3 1_555 1_555
N25_3 N26_3 1_555 1_555
N26_3 C64_3 1_555 1_555
N27_3 Ag14_3 1_555 1_555
N28_3 N27_3 1_555 1_555
N29_3 Ag15_3 1_555 1_555
N30_3 Ag13_3 1_555 1_555
N43_3 N44_3 1_555 1_555
N44_3 C109_3 1_555 1_555
N45_3 Ag23_3 1_555 1_555
N46_3 N45_3 1_555 1_555
N47_3 Ag24_3 1_555 1_555
N48_3 Ag22_3 1_555 1_555
N49_3 N50_3 1_555 1_555
N50_3 C124_3 1_555 1_555
N51_3 Ag26_3 1_555 1_555
N52_3 N51_3 1_555 1_555
C1_3 C2_3 1_555 1_555
C2_3 N1_3 1_555 1_555
C3_3 C2_3 1_555 1_555
C4_3 C3_3 1_555 1_555
C5_3 C4_3 1_555 1_555
C29_3 C28_3 1_555 1_555
C30_3 C29_3 1_555 1_555
C31_3 C32_3 1_555 1_555
C32_3 N13_3 1_555 1_555
C33_3 C32_3 1_555 1_555
C34_3 C33_3 1_555 1_555
C35_3 C34_3 1_555 1_555
C36_3 C37_3 1_555 1_555
C37_3 N15_3 1_555 1_555
C38_3 C33_3 1_555 1_555
C39_3 C38_3 1_555 1_555
C40_3 C39_3 1_555 1_555
C41_3 C42_3 1_555 1_555
C42_3 N17_3 1_555 1_555
C43_3 C42_3 1_555 1_555
C44_3 N18_3 1_555 1_555
C45_3 C44_3 1_555 1_555
C61_3 C62_3 1_555 1_555
C62_3 N25_3 1_555 1_555
C63_3 C3_3 1_555 1_555
C64_3 C63_3 1_555 1_555
C65_3 C64_3 1_555 1_555
C66_3 C67_3 1_555 1_555
C67_3 N27_3 1_555 1_555
C68_3 C67_3 1_555 1_555
C69_3 N28_3 1_555 1_555
C70_3 C69_3 1_555 1_555
C71_3 C72_3 1_555 1_555
C72_3 N29_3 1_555 1_555
C73_3 C28_3 1_555 1_555
C74_3 N30_3 1_555 1_555
C75_3 C74_3 1_555 1_555
C106_3 C107_3 1_555 1_555
C107_3 N43_3 1_555 1_555
C108_3 C107_3 1_555 1_555
C109_3 C108_3 1_555 1_555
C110_3 C109_3 1_555 1_555
C116_3 C117_3 1_555 1_555
C117_3 N47_3 1_555 1_555
C118_3 C68_3 1_555 1_555
C119_3 N48_3 1_555 1_555
C120_3 C119_3 1_555 1_555
C122_3 N49_3 1_555 1_555
C123_3 C43_3 1_555 1_555
C124_3 C123_3 1_555 1_555
C125_3 C124_3 1_555 1_555
C126_3 C127_3 1_555 1_555
C127_3 N51_3 1_555 1_555
C128_3 C108_3 1_555 1_555
C129_3 N52_3 1_555 1_555
C130_3 C129_3 1_555 1_555
H1_3 C1_3 1_555 1_555
H2_3 C1_3 1_555 1_555
H3_3 C1_3 1_555 1_555
H4_3 C5_3 1_555 1_555
H5_3 C5_3 1_555 1_555
H6_3 C5_3 1_555 1_555
H10_3 C10_3 1_555 1_555
H11_3 C10_3 1_555 1_555
H34_3 C30_3 1_555 1_555
H35_3 C30_3 1_555 1_555
H36_3 C30_3 1_555 1_555
H37_3 C31_3 1_555 1_555
H38_3 C31_3 1_555 1_555
H39_3 C31_3 1_555 1_555
H40_3 C35_3 1_555 1_555
H41_3 C35_3 1_555 1_555
H42_3 C35_3 1_555 1_555
H43_3 C36_3 1_555 1_555
H44_3 C36_3 1_555 1_555
H45_3 C36_3 1_555 1_555
H46_3 C40_3 1_555 1_555
H47_3 C40_3 1_555 1_555
H48_3 C40_3 1_555 1_555
H49_3 C41_3 1_555 1_555
H51_3 C41_3 1_555 1_555
H52_3 C45_3 1_555 1_555
H53_3 C45_3 1_555 1_555
H54_3 C45_3 1_555 1_555
H73_3 C61_3 1_555 1_555
H74_3 C61_3 1_555 1_555
H75_3 C61_3 1_555 1_555
H76_3 C65_3 1_555 1_555
H77_3 C65_3 1_555 1_555
H78_3 C65_3 1_555 1_555
H79_3 C66_3 1_555 1_555
H80_3 C66_3 1_555 1_555
H81_3 C66_3 1_555 1_555
H82_3 C70_3 1_555 1_555
H83_3 C70_3 1_555 1_555
H84_3 C70_3 1_555 1_555
H85_3 C71_3 1_555 1_555
H86_3 C71_3 1_555 1_555
H87_3 C71_3 1_555 1_555
H88_3 C75_3 1_555 1_555
H89_3 C75_3 1_555 1_555
H90_3 C75_3 1_555 1_555
H127_3 C106_3 1_555 1_555
H128_3 C106_3 1_555 1_555
H129_3 C106_3 1_555 1_555
H130_3 C110_3 1_555 1_555
H131_3 C110_3 1_555 1_555
H132_3 C110_3 1_555 1_555
H139_3 C116_3 1_555 1_555
H140_3 C116_3 1_555 1_555
H141_3 C116_3 1_555 1_555
H142_3 C120_3 1_555 1_555
H143_3 C120_3 1_555 1_555
H144_3 C120_3 1_555 1_555
H148_3 C125_3 1_555 1_555
H149_3 C125_3 1_555 1_555
H150_3 C125_3 1_555 1_555
H151_3 C126_3 1_555 1_555
H152_3 C126_3 1_555 1_555
H153_3 C126_3 1_555 1_555
H154_3 C130_3 1_555 1_555
H155_3 C130_3 1_555 1_555
H156_3 C130_3 1_555 1_555
Ag37_3 N15_3 1_555 1_555
Ag38_3 N16_3 1_555 1_555
N61_3 Ag2_3 1_555 1_555
N63_3 Ag1_3 1_555 1_555
N29_3 N30_3 1_555 1_555
N47_3 N48_3 1_555 1_555
C37_3 C38_3 1_555 1_555
C43_3 C44_3 1_555 1_555
C62_3 C63_3 1_555 1_555
C68_3 C69_3 1_555 1_555
C72_3 C73_3 1_555 1_555
C73_3 C74_3 1_555 1_555
C117_3 C118_3 1_555 1_555
C118_3 C119_3 1_555 1_555
C122_3 C123_3 1_555 1_555
C127_3 C128_3 1_555 1_555
C128_3 C129_3 1_555 1_555
N5_3 N63_3 1_555 1_555
N63_3 C14_3 1_555 1_555
N53_3 Ag27_3 1_555 1_555
N54_3 Ag25_3 1_555 1_555
C11_3 C12_3 1_555 1_555
C12_3 N5_3 1_555 1_555
C13_3 C12_3 1_555 1_555
C14_3 C13_3 1_555 1_555
C15_3 C14_3 1_555 1_555
C131_3 C132_3 1_555 1_555
C132_3 N53_3 1_555 1_555
C133_3 C13_3 1_555 1_555
C134_3 N54_3 1_555 1_555
C135_3 C134_3 1_555 1_555
H13_3 C11_3 1_555 1_555
H14_3 C11_3 1_555 1_555
H15_3 C11_3 1_555 1_555
H16_3 C15_3 1_555 1_555
H17_3 C15_3 1_555 1_555
H18_3 C15_3 1_555 1_555
H145_3 C121_3 1_555 1_555
H146_3 C121_3 1_555 1_555
H147_3 C121_3 1_555 1_555
H157_3 C131_3 1_555 1_555
H158_3 C131_3 1_555 1_555
H159_3 C131_3 1_555 1_555
H160_3 C135_3 1_555 1_555
H161_3 C135_3 1_555 1_555
H162_3 C135_3 1_555 1_555
Ag33_3 N5_3 1_555 1_555
N53_3 N54_3 1_555 1_555
C132_3 C133_3 1_555 1_555
C133_3 C134_3 1_555 1_555
N65_2 N66_2 1_555 1_555
C26_3 C27_3 1_555 1_555
C27_3 N65_2 1_555 1_555
H31_3 C26_3 1_555 1_555
H32_3 C26_3 1_555 1_555
H33_3 C26_3 1_555 1_555
Ag33_2 N4_3 1_555 1_555
Ag35_3 N8_3 1_555 1_555
Ag6_3 N10_3 1_555 1_555
Ag10_3 N19_3 1_555 1_555
Ag39_2 N20_3 1_555 1_555
Ag16_3 N31_3 1_555 1_555
Ag17_3 N32_3 1_555 1_555
Ag18_3 N34_3 1_555 1_555
Ag19_3 N37_3 1_555 1_555
Ag20_3 N38_3 1_555 1_555
Ag21_3 N40_3 1_555 1_555
Ag28_3 N55_3 1_555 1_555
Ag29_3 N56_3 1_555 1_555
Ag30_3 N58_3 1_555 1_555
N61_2 N4_3 1_555 1_555
N4_3 C9_3 1_555 1_555
N7_3 N8_3 1_555 1_555
N8_3 C19_3 1_555 1_555
N9_3 N10_3 1_555 1_555
N10_3 C24_3 1_555 1_555
N19_3 N20_3 1_555 1_555
N20_3 C49_3 1_555 1_555
N21_3 N22_3 1_555 1_555
N22_3 C54_3 1_555 1_555
N23_3 N24_3 1_555 1_555
N24_3 Ag10_3 1_555 1_555
N31_3 N32_3 1_555 1_555
N32_3 C79_3 1_555 1_555
N33_3 Ag17_3 1_555 1_555
N34_3 N33_3 1_555 1_555
N35_3 Ag18_3 1_555 1_555
N36_3 Ag16_3 1_555 1_555
N37_3 N38_3 1_555 1_555
N38_3 C94_3 1_555 1_555
N39_3 Ag20_3 1_555 1_555
N40_3 N39_3 1_555 1_555
N41_3 Ag21_3 1_555 1_555
N42_3 Ag19_3 1_555 1_555
N55_3 N56_3 1_555 1_555
N56_3 C139_3 1_555 1_555
N57_3 Ag29_3 1_555 1_555
N58_3 N57_3 1_555 1_555
N59_3 Ag30_3 1_555 1_555
N60_3 Ag28_3 1_555 1_555
C6_3 C7_3 1_555 1_555
C7_3 N61_2 1_555 1_555
C8_3 C7_3 1_555 1_555
C9_3 C8_3 1_555 1_555
C16_2 C17_3 1_555 1_555
C17_3 N7_3 1_555 1_555
C18_3 C17_3 1_555 1_555
C19_3 C18_3 1_555 1_555
C20_3 C19_3 1_555 1_555
C21_3 C22_3 1_555 1_555
C22_3 N9_3 1_555 1_555
C23_3 C22_3 1_555 1_555
C24_3 C23_3 1_555 1_555
C25_3 C24_3 1_555 1_555
C46_3 C47_3 1_555 1_555
C47_3 N19_3 1_555 1_555
C48_3 C47_3 1_555 1_555
C49_3 C48_3 1_555 1_555
C50_3 C49_3 1_555 1_555
C51_3 C52_3 1_555 1_555
C52_3 N21_3 1_555 1_555
C53_3 C48_3 1_555 1_555
C54_3 C53_3 1_555 1_555
C55_3 C54_3 1_555 1_555
C56_3 C57_3 1_555 1_555
C57_3 N23_3 1_555 1_555
C58_3 C57_3 1_555 1_555
C59_3 N24_3 1_555 1_555
C60_3 C59_3 1_555 1_555
C76_3 C77_3 1_555 1_555
C77_3 N31_3 1_555 1_555
C78_3 C23_3 1_555 1_555
C79_3 C78_3 1_555 1_555
C80_3 C79_3 1_555 1_555
C81_3 C82_3 1_555 1_555
C82_3 N33_3 1_555 1_555
C83_3 C82_3 1_555 1_555
C84_3 N34_3 1_555 1_555
C85_3 C84_3 1_555 1_555
C86_3 C87_3 1_555 1_555
C87_3 N35_3 1_555 1_555
C88_3 C8_3 1_555 1_555
C89_3 N36_3 1_555 1_555
C90_3 C89_3 1_555 1_555
C91_3 C92_3 1_555 1_555
C92_3 N37_3 1_555 1_555
C93_3 C92_3 1_555 1_555
C94_3 C93_3 1_555 1_555
C95_3 C94_3 1_555 1_555
C96_3 C97_3 1_555 1_555
C97_3 N39_3 1_555 1_555
C98_3 C83_3 1_555 1_555
C99_3 N40_3 1_555 1_555
C100_3 C99_3 1_555 1_555
C101_3 C102_3 1_555 1_555
C102_3 N41_3 1_555 1_555
C103_3 C102_3 1_555 1_555
C104_3 N42_3 1_555 1_555
C105_3 C104_3 1_555 1_555
C111_3 C112_3 1_555 1_555
C113_3 C93_3 1_555 1_555
C115_3 C114_3 1_555 1_555
C136_3 C137_3 1_555 1_555
C137_3 N55_3 1_555 1_555
C138_3 C103_3 1_555 1_555
C139_3 C138_3 1_555 1_555
C140_3 C139_3 1_555 1_555
C141_3 C142_3 1_555 1_555
C142_3 N57_3 1_555 1_555
C143_3 C18_3 1_555 1_555
C144_3 N58_3 1_555 1_555
C145_3 C144_3 1_555 1_555
C146_3 C147_3 1_555 1_555
C147_3 N59_3 1_555 1_555
C148_3 C58_3 1_555 1_555
C149_3 N60_3 1_555 1_555
C150_3 C149_3 1_555 1_555
H7_3 C6_3 1_555 1_555
H8_3 C6_3 1_555 1_555
H9_3 C6_3 1_555 1_555
H19_2 C16_2 1_555 1_555
H20_2 C16_2 1_555 1_555
H21_2 C16_2 1_555 1_555
H22_3 C20_3 1_555 1_555
H23_3 C20_3 1_555 1_555
H24_3 C20_3 1_555 1_555
H26_3 C21_3 1_555 1_555
H27_3 C21_3 1_555 1_555
H28_3 C25_3 1_555 1_555
H29_3 C25_3 1_555 1_555
H30_3 C25_3 1_555 1_555
H55_3 C46_3 1_555 1_555
H56_3 C46_3 1_555 1_555
H57_3 C46_3 1_555 1_555
H58_3 C50_3 1_555 1_555
H59_3 C50_3 1_555 1_555
H60_3 C50_3 1_555 1_555
H61_3 C51_3 1_555 1_555
H62_3 C51_3 1_555 1_555
H63_3 C51_3 1_555 1_555
H64_3 C55_3 1_555 1_555
H65_3 C55_3 1_555 1_555
H66_3 C55_3 1_555 1_555
H69_3 C56_3 1_555 1_555
H70_3 C60_3 1_555 1_555
H71_3 C60_3 1_555 1_555
H72_3 C60_3 1_555 1_555
H91_3 C76_3 1_555 1_555
H92_3 C76_3 1_555 1_555
H93_3 C76_3 1_555 1_555
H94_3 C80_3 1_555 1_555
H95_3 C80_3 1_555 1_555
H96_3 C80_3 1_555 1_555
H97_3 C81_3 1_555 1_555
H98_3 C81_3 1_555 1_555
H99_3 C81_3 1_555 1_555
H100_3 C85_3 1_555 1_555
H101_3 C85_3 1_555 1_555
H102_3 C85_3 1_555 1_555
H103_3 C86_3 1_555 1_555
H105_3 C86_3 1_555 1_555
H106_3 C90_3 1_555 1_555
H107_3 C90_3 1_555 1_555
H108_3 C90_3 1_555 1_555
H109_3 C91_3 1_555 1_555
H110_3 C91_3 1_555 1_555
H111_3 C91_3 1_555 1_555
H112_3 C95_3 1_555 1_555
H113_3 C95_3 1_555 1_555
H114_3 C95_3 1_555 1_555
H115_3 C96_3 1_555 1_555
H116_3 C96_3 1_555 1_555
H117_3 C96_3 1_555 1_555
H118_3 C100_3 1_555 1_555
H119_3 C100_3 1_555 1_555
H120_3 C100_3 1_555 1_555
H121_3 C101_3 1_555 1_555
H122_3 C101_3 1_555 1_555
H123_3 C101_3 1_555 1_555
H124_3 C105_3 1_555 1_555
H125_3 C105_3 1_555 1_555
H126_3 C105_3 1_555 1_555
H133_3 C111_3 1_555 1_555
H134_3 C111_3 1_555 1_555
H135_3 C111_3 1_555 1_555
H137_3 C115_3 1_555 1_555
H138_3 C115_3 1_555 1_555
H163_3 C136_3 1_555 1_555
H164_3 C136_3 1_555 1_555
H165_3 C136_3 1_555 1_555
H166_3 C140_3 1_555 1_555
H167_3 C140_3 1_555 1_555
H168_3 C140_3 1_555 1_555
H169_3 C141_3 1_555 1_555
H170_3 C141_3 1_555 1_555
H171_3 C141_3 1_555 1_555
H172_2 C145_3 1_555 1_555
H173_3 C145_3 1_555 1_555
H174_2 C145_3 1_555 1_555
H175_3 C146_3 1_555 1_555
H176_3 C146_3 1_555 1_555
H177_3 C146_3 1_555 1_555
H178_3 C150_3 1_555 1_555
H179_3 C150_3 1_555 1_555
H180_3 C150_3 1_555 1_555
Ag40_3 N22_3 1_555 1_555
N65_3 Ag6_3 1_555 1_555
N35_3 N36_3 1_555 1_555
N41_3 N42_3 1_555 1_555
N59_3 N60_3 1_555 1_555
C52_3 C53_3 1_555 1_555
C58_3 C59_3 1_555 1_555
C77_3 C78_3 1_555 1_555
C83_3 C84_3 1_555 1_555
C87_3 C88_3 1_555 1_555
C88_3 C89_3 1_555 1_555
C97_3 C98_3 1_555 1_555
C98_3 C99_3 1_555 1_555
C103_3 C104_3 1_555 1_555
C112_3 C113_3 1_555 1_555
C113_3 C114_3 1_555 1_555
C137_3 C138_3 1_555 1_555
C142_3 C143_3 1_555 1_555
C143_3 C144_3 1_555 1_555
C147_3 C148_3 1_555 1_555
C148_3 C149_3 1_555 1_555
N66_3 Ag4_3 1_555 1_555
Ag36 N10_4 1_555 1_555
Ag16_4 N31_4 1_555 1_555
Ag17_4 N32_4 1_555 1_555
N9_4 N10_4 1_555 1_555
N10_4 C24_4 1_555 1_555
N31_4 N32_4 1_555 1_555
N32_4 C79_4 1_555 1_555
C21_4 C22_4 1_555 1_555
C22_4 N9_4 1_555 1_555
C23_4 C22_4 1_555 1_555
C24_4 C23_4 1_555 1_555
C25_4 C24_4 1_555 1_555
C76_4 C77_4 1_555 1_555
C77_4 N31_4 1_555 1_555
C78_4 C23_4 1_555 1_555
C79_4 C78_4 1_555 1_555
C80_4 C79_4 1_555 1_555
H25_4 C21_4 1_555 1_555
H26_4 C21_4 1_555 1_555
H27_4 C21_4 1_555 1_555
H28_4 C25_4 1_555 1_555
H29_4 C25_4 1_555 1_555
H30_4 C25_4 1_555 1_555
H91_4 C76_4 1_555 1_555
H92_4 C76_4 1_555 1_555
H93_4 C76_4 1_555 1_555
H94_4 C80_4 1_555 1_555
H95_4 C80_4 1_555 1_555
H96_4 C80_4 1_555 1_555
Ag35_4 N9_4 1_555 1_555
C77_4 C78_4 1_555 1_555
Ag1_4 N1_4 1_555 1_555
Ag32 N2_4 1_555 1_555
Ag33_3 N4_4 1_555 1_555
Ag34 N7_4 1_555 1_555
Ag35_4 N8_4 1_555 1_555
Ag7_4 N13_4 1_555 1_555
Ag37_3 N14_4 1_555 1_555
Ag38_3 N17_4 1_555 1_555
Ag40_3 N23_4 1_555 1_555
Ag13_4 N25_4 1_555 1_555
Ag14_4 N26_4 1_555 1_555
Ag15_4 N28_4 1_555 1_555
Ag18_4 N34_4 1_555 1_555
Ag19_4 N37_4 1_555 1_555
Ag20_4 N38_4 1_555 1_555
Ag21_4 N40_4 1_555 1_555
Ag22_4 N43_4 1_555 1_555
Ag23_4 N44_4 1_555 1_555
Ag24_4 N46_4 1_555 1_555
Ag25_4 N49_4 1_555 1_555
Ag26_4 N50_4 1_555 1_555
Ag27_4 N52_4 1_555 1_555
Ag28_4 N55_4 1_555 1_555
Ag29_4 N56_4 1_555 1_555
Ag30_4 N58_4 1_555 1_555
N1_4 N2_4 1_555 1_555
N2_4 C4_4 1_555 1_555
N61_3 N4_4 1_555 1_555
N4_4 C9_4 1_555 1_555
N62 N63_4 1_555 1_555
N63_4 C14_4 1_555 1_555
N7_4 N8_4 1_555 1_555
N8_4 C19_4 1_555 1_555
N65_3 N66_3 1_555 1_555
N66_3 C29_4 1_555 1_555
N13_4 N14_4 1_555 1_555
N14_4 C34_4 1_555 1_555
N68 C39_4 1_555 1_555
N17_4 N18_4 1_555 1_555
N18_4 Ag7_4 1_555 1_555
N25_4 N26_4 1_555 1_555
N26_4 C64_4 1_555 1_555
N27_4 Ag14_4 1_555 1_555
N28_4 N27_4 1_555 1_555
N29_4 Ag15_4 1_555 1_555
N30_4 Ag13_4 1_555 1_555
N34_4 N33_4 1_555 1_555
N35_4 Ag18_4 1_555 1_555
N37_4 N38_4 1_555 1_555
N38_4 C94_4 1_555 1_555
N39_4 Ag20_4 1_555 1_555
N40_4 N39_4 1_555 1_555
N41_4 Ag21_4 1_555 1_555
N42_4 Ag19_4 1_555 1_555
N43_4 N44_4 1_555 1_555
N44_4 C109_4 1_555 1_555
N45_4 Ag23_4 1_555 1_555
N46_4 N45_4 1_555 1_555
N47_4 Ag24_4 1_555 1_555
N48_4 Ag22_4 1_555 1_555
N49_4 N50_4 1_555 1_555
N50_4 C124_4 1_555 1_555
N51_4 Ag26_4 1_555 1_555
N52_4 N51_4 1_555 1_555
N53_4 Ag27_4 1_555 1_555
N54_4 Ag25_4 1_555 1_555
N55_4 N56_4 1_555 1_555
N56_4 C139_4 1_555 1_555
N57_4 Ag29_4 1_555 1_555
N58_4 N57_4 1_555 1_555
N59_4 Ag30_4 1_555 1_555
N60_4 Ag28_4 1_555 1_555
C1_4 C2_4 1_555 1_555
C2_4 N1_4 1_555 1_555
C3_4 C2_4 1_555 1_555
C4_4 C3_4 1_555 1_555
C5_4 C4_4 1_555 1_555
C6_4 C7_4 1_555 1_555
C7_4 N61_3 1_555 1_555
C8_4 C7_4 1_555 1_555
C9_4 C8_4 1_555 1_555
C10_4 C9_4 1_555 1_555
C11_4 C12_4 1_555 1_555
C12_4 N62 1_555 1_555
C13_4 C12_4 1_555 1_555
C14_4 C13_4 1_555 1_555
C15_4 C14_4 1_555 1_555
C17_4 N7_4 1_555 1_555
C18_4 C17_4 1_555 1_555
C19_4 C18_4 1_555 1_555
C20_4 C19_4 1_555 1_555
C26_4 C27_4 1_555 1_555
C27_4 N65_3 1_555 1_555
C28_4 C27_4 1_555 1_555
C29_4 C28_4 1_555 1_555
C30_4 C29_4 1_555 1_555
C31_4 C32_4 1_555 1_555
C32_4 N13_4 1_555 1_555
C33_4 C32_4 1_555 1_555
C34_4 C33_4 1_555 1_555
C35_4 C34_4 1_555 1_555
C36_4 C37_4 1_555 1_555
C37_4 N67 1_555 1_555
C38_4 C33_4 1_555 1_555
C39_4 C38_4 1_555 1_555
C40_4 C39_4 1_555 1_555
C41_4 C42_4 1_555 1_555
C42_4 N17_4 1_555 1_555
C43_4 C42_4 1_555 1_555
C44_4 N18_4 1_555 1_555
C45_4 C44_4 1_555 1_555
C56_4 C57_4 1_555 1_555
C57_4 N23_4 1_555 1_555
C58_4 C57_4 1_555 1_555
C61_4 C62_4 1_555 1_555
C62_4 N25_4 1_555 1_555
C63_4 C3_4 1_555 1_555
C64_4 C63_4 1_555 1_555
C65_4 C64_4 1_555 1_555
C66_4 C67_4 1_555 1_555
C67_4 N27_4 1_555 1_555
C68_4 C67_4 1_555 1_555
C69_4 N28_4 1_555 1_555
C70_4 C69_4 1_555 1_555
C71_4 C72_4 1_555 1_555
C72_4 N29_4 1_555 1_555
C73_4 C28_4 1_555 1_555
C74_4 N30_4 1_555 1_555
C75_4 C74_4 1_555 1_555
C81_4 C82_4 1_555 1_555
C82_4 N33_4 1_555 1_555
C83_4 C82_4 1_555 1_555
C84_4 N34_4 1_555 1_555
C85_4 C84_4 1_555 1_555
C86_4 C87_4 1_555 1_555
C87_4 N35_4 1_555 1_555
C88_4 C8_4 1_555 1_555
C89_4 N36_4 1_555 1_555
C90_4 C89_4 1_555 1_555
C91_4 C92_4 1_555 1_555
C92_4 N37_4 1_555 1_555
C93_4 C92_4 1_555 1_555
C94_4 C93_4 1_555 1_555
C95_4 C94_4 1_555 1_555
C96_4 C97_4 1_555 1_555
C97_4 N39_4 1_555 1_555
C98_4 C83_4 1_555 1_555
C99_4 N40_4 1_555 1_555
C100_4 C99_4 1_555 1_555
C101_4 C102_4 1_555 1_555
C102_4 N41_4 1_555 1_555
C103_4 C102_4 1_555 1_555
C104_4 N42_4 1_555 1_555
C105_4 C104_4 1_555 1_555
C106_4 C107_4 1_555 1_555
C107_4 N43_4 1_555 1_555
C108_4 C107_4 1_555 1_555
C109_4 C108_4 1_555 1_555
C110_4 C109_4 1_555 1_555
C111_4 C112_4 1_555 1_555
C112_4 N45_4 1_555 1_555
C113_4 C93_4 1_555 1_555
C114_4 N46_4 1_555 1_555
C115_4 C114_4 1_555 1_555
C116_4 C117_4 1_555 1_555
C117_4 N47_4 1_555 1_555
C118_4 C68_4 1_555 1_555
C119_4 N48_4 1_555 1_555
C120_4 C119_4 1_555 1_555
C121_4 C122_4 1_555 1_555
C122_4 N49_4 1_555 1_555
C123_4 C43_4 1_555 1_555
C124_4 C123_4 1_555 1_555
C125_4 C124_4 1_555 1_555
C126_4 C127_4 1_555 1_555
C127_4 N51_4 1_555 1_555
C128_4 C108_4 1_555 1_555
C129_4 N52_4 1_555 1_555
C130_4 C129_4 1_555 1_555
C131_4 C132_4 1_555 1_555
C132_4 N53_4 1_555 1_555
C133_4 C13_4 1_555 1_555
C134_4 N54_4 1_555 1_555
C135_4 C134_4 1_555 1_555
C136_4 C137_4 1_555 1_555
C137_4 N55_4 1_555 1_555
C138_4 C103_4 1_555 1_555
C139_4 C138_4 1_555 1_555
C140_4 C139_4 1_555 1_555
C141_4 C142_4 1_555 1_555
C142_4 N57_4 1_555 1_555
C143_4 C18_4 1_555 1_555
C144_4 N58_4 1_555 1_555
C145_4 C144_4 1_555 1_555
C147_4 N59_4 1_555 1_555
C148_4 C58_4 1_555 1_555
C149_4 N60_4 1_555 1_555
C150_4 C149_4 1_555 1_555
H1_4 C1_4 1_555 1_555
H2_4 C1_4 1_555 1_555
H3_4 C1_4 1_555 1_555
H4_4 C5_4 1_555 1_555
H5_4 C5_4 1_555 1_555
H6_4 C5_4 1_555 1_555
H7_4 C6_4 1_555 1_555
H8_4 C6_4 1_555 1_555
H9_4 C6_4 1_555 1_555
H10_4 C10_4 1_555 1_555
H11_4 C10_4 1_555 1_555
H12_4 C10_4 1_555 1_555
H13_4 C11_4 1_555 1_555
H14_4 C11_4 1_555 1_555
H15_4 C11_4 1_555 1_555
H17_4 C15_4 1_555 1_555
H18_4 C15_4 1_555 1_555
H22_4 C20_4 1_555 1_555
H23_4 C20_4 1_555 1_555
H24_4 C20_4 1_555 1_555
H31_4 C26_4 1_555 1_555
H32_4 C26_4 1_555 1_555
H33_4 C26_4 1_555 1_555
H34_4 C30_4 1_555 1_555
H35_4 C30_4 1_555 1_555
H36_4 C30_4 1_555 1_555
H37_4 C31_4 1_555 1_555
H38_4 C31_4 1_555 1_555
H39_4 C31_4 1_555 1_555
H40_4 C35_4 1_555 1_555
H41_4 C35_4 1_555 1_555
H42_4 C35_4 1_555 1_555
H43_4 C36_4 1_555 1_555
H44_4 C36_4 1_555 1_555
H45_4 C36_4 1_555 1_555
H46_4 C40_4 1_555 1_555
H47_4 C40_4 1_555 1_555
H48_4 C40_4 1_555 1_555
H49_4 C41_4 1_555 1_555
H50_4 C41_4 1_555 1_555
H51_4 C41_4 1_555 1_555
H52_4 C45_4 1_555 1_555
H53_4 C45_4 1_555 1_555
H54_4 C45_4 1_555 1_555
H67_4 C56_4 1_555 1_555
H68_4 C56_4 1_555 1_555
H69_4 C56_4 1_555 1_555
H73_4 C61_4 1_555 1_555
H74_4 C61_4 1_555 1_555
H75_4 C61_4 1_555 1_555
H76_4 C65_4 1_555 1_555
H77_4 C65_4 1_555 1_555
H78_4 C65_4 1_555 1_555
H79_4 C66_4 1_555 1_555
H80_4 C66_4 1_555 1_555
H81_4 C66_4 1_555 1_555
H82_4 C70_4 1_555 1_555
H83_4 C70_4 1_555 1_555
H84_4 C70_4 1_555 1_555
H85_4 C71_4 1_555 1_555
H86_4 C71_4 1_555 1_555
H87_4 C71_4 1_555 1_555
H88_4 C75_4 1_555 1_555
H89_4 C75_4 1_555 1_555
H90_4 C75_4 1_555 1_555
H98_4 C81_4 1_555 1_555
H99_4 C81_4 1_555 1_555
H100_4 C85_4 1_555 1_555
H101_4 C85_4 1_555 1_555
H102_4 C85_4 1_555 1_555
H103_4 C86_4 1_555 1_555
H104_4 C86_4 1_555 1_555
H105_4 C86_4 1_555 1_555
H107_4 C90_4 1_555 1_555
H108_4 C90_4 1_555 1_555
H109_4 C91_4 1_555 1_555
H110_4 C91_4 1_555 1_555
H111_4 C91_4 1_555 1_555
H112_4 C95_4 1_555 1_555
H113_4 C95_4 1_555 1_555
H114_4 C95_4 1_555 1_555
H115_4 C96_4 1_555 1_555
H116_4 C96_4 1_555 1_555
H117_4 C96_4 1_555 1_555
H118_4 C100_4 1_555 1_555
H119_4 C100_4 1_555 1_555
H120_4 C100_4 1_555 1_555
H121_4 C101_4 1_555 1_555
H122_4 C101_4 1_555 1_555
H123_4 C101_4 1_555 1_555
H124_4 C105_4 1_555 1_555
H125_4 C105_4 1_555 1_555
H126_4 C105_4 1_555 1_555
H127_4 C106_4 1_555 1_555
H128_4 C106_4 1_555 1_555
H129_4 C106_4 1_555 1_555
H130_4 C110_4 1_555 1_555
H131_4 C110_4 1_555 1_555
H132_4 C110_4 1_555 1_555
H133_4 C111_4 1_555 1_555
H134_4 C111_4 1_555 1_555
H135_4 C111_4 1_555 1_555
H136_4 C115_4 1_555 1_555
H137_4 C115_4 1_555 1_555
H138_4 C115_4 1_555 1_555
H139_4 C116_4 1_555 1_555
H140_4 C116_4 1_555 1_555
H141_4 C116_4 1_555 1_555
H142_4 C120_4 1_555 1_555
H143_4 C120_4 1_555 1_555
H144_4 C120_4 1_555 1_555
H145_4 C121_4 1_555 1_555
H146_4 C121_4 1_555 1_555
H147_4 C121_4 1_555 1_555
H148_4 C125_4 1_555 1_555
H149_4 C125_4 1_555 1_555
H150_4 C125_4 1_555 1_555
H151_4 C126_4 1_555 1_555
H152_4 C126_4 1_555 1_555
H153_4 C126_4 1_555 1_555
H154_4 C130_4 1_555 1_555
H155_4 C130_4 1_555 1_555
H156_4 C130_4 1_555 1_555
H157_4 C131_4 1_555 1_555
H158_4 C131_4 1_555 1_555
H159_4 C131_4 1_555 1_555
H160_4 C135_4 1_555 1_555
H161_4 C135_4 1_555 1_555
H162_4 C135_4 1_555 1_555
H163_4 C136_4 1_555 1_555
H164_4 C136_4 1_555 1_555
H165_4 C136_4 1_555 1_555
H166_4 C140_4 1_555 1_555
H167_4 C140_4 1_555 1_555
H168_4 C140_4 1_555 1_555
H169_4 C141_4 1_555 1_555
H170_4 C141_4 1_555 1_555
H171_4 C141_4 1_555 1_555
H173_4 C145_4 1_555 1_555
H178_4 C150_4 1_555 1_555
H179_4 C150_4 1_555 1_555
H180_4 C150_4 1_555 1_555
N29_4 N30_4 1_555 1_555
N35_4 N36_4 1_555 1_555
N41_4 N42_4 1_555 1_555
N47_4 N48_4 1_555 1_555
N53_4 N54_4 1_555 1_555
N59_4 N60_4 1_555 1_555
C37_4 C38_4 1_555 1_555
C43_4 C44_4 1_555 1_555
C62_4 C63_4 1_555 1_555
C68_4 C69_4 1_555 1_555
C72_4 C73_4 1_555 1_555
C73_4 C74_4 1_555 1_555
C83_4 C84_4 1_555 1_555
C87_4 C88_4 1_555 1_555
C88_4 C89_4 1_555 1_555
C97_4 C98_4 1_555 1_555
C98_4 C99_4 1_555 1_555
C103_4 C104_4 1_555 1_555
C112_4 C113_4 1_555 1_555
C113_4 C114_4 1_555 1_555
C117_4 C118_4 1_555 1_555
C118_4 C119_4 1_555 1_555
C122_4 C123_4 1_555 1_555
C127_4 C128_4 1_555 1_555
C128_4 C129_4 1_555 1_555
C132_4 C133_4 1_555 1_555
C133_4 C134_4 1_555 1_555
C137_4 C138_4 1_555 1_555
C142_4 C143_4 1_555 1_555
C143_4 C144_4 1_555 1_555
C147_4 C148_4 1_555 1_555
C148_4 C149_4 1_555 1_555
Ag10_4 N19_4 1_555 1_555
Ag39_3 N20_4 1_555 1_555
N19_4 N20_4 1_555 1_555
N20_4 C49_4 1_555 1_555
N70 C54_4 1_555 1_555
N24_4 Ag10_4 1_555 1_555
C46_4 C47_4 1_555 1_555
C47_4 N19_4 1_555 1_555
C48_4 C47_4 1_555 1_555
C49_4 C48_4 1_555 1_555
C50_4 C49_4 1_555 1_555
C51_4 C52_4 1_555 1_555
C52_4 N69 1_555 1_555
C53_4 C48_4 1_555 1_555
C54_4 C53_4 1_555 1_555
C55_4 C54_4 1_555 1_555
C59_4 N24_4 1_555 1_555
C60_4 C59_4 1_555 1_555
H19_3 C16_3 1_555 1_555
H20_3 C16_3 1_555 1_555
H21_3 C16_3 1_555 1_555
H55_4 C46_4 1_555 1_555
H56_4 C46_4 1_555 1_555
H57_4 C46_4 1_555 1_555
H58_4 C50_4 1_555 1_555
H59_4 C50_4 1_555 1_555
H60_4 C50_4 1_555 1_555
H61_4 C51_4 1_555 1_555
H62_4 C51_4 1_555 1_555
H63_4 C51_4 1_555 1_555
H64_4 C55_4 1_555 1_555
H65_4 C55_4 1_555 1_555
H66_4 C55_4 1_555 1_555
H70_4 C60_4 1_555 1_555
H71_4 C60_4 1_555 1_555
H72_4 C60_4 1_555 1_555
H175_4 C146_4 1_555 1_555
H176_4 C146_4 1_555 1_555
C52_4 C53_4 1_555 1_555
H19_4 C16_4 1_555 1_555
H20_4 C16_4 1_555 1_555
H21_4 C16_4 1_555 1_555
Ag35_5 N8_5 1_555 1_555
Ag6_4 N10_5 1_555 1_555
Ag10_5 N19_5 1_555 1_555
Ag11_2 N20_5 1_555 1_555
Ag16_5 N31_5 1_555 1_555
Ag17_5 N32_5 1_555 1_555
Ag18_5 N34_5 1_555 1_555
Ag19_5 N37_5 1_555 1_555
Ag20_5 N38_5 1_555 1_555
Ag21_5 N40_5 1_555 1_555
Ag28_5 N55_5 1_555 1_555
Ag29_5 N56_5 1_555 1_555
Ag30_5 N58_5 1_555 1_555
N3_2 N4_5 1_555 1_555
N4_5 C9_5 1_555 1_555
N7_5 N8_5 1_555 1_555
N8_5 C19_5 1_555 1_555
N9_5 N10_5 1_555 1_555
N10_5 C24_5 1_555 1_555
N19_5 N20_5 1_555 1_555
N20_5 C49_5 1_555 1_555
N21_4 N22_4 1_555 1_555
N22_4 C54_5 1_555 1_555
N23_5 N24_5 1_555 1_555
N24_5 Ag10_5 1_555 1_555
N31_5 N32_5 1_555 1_555
N32_5 C79_5 1_555 1_555
N33_5 Ag17_5 1_555 1_555
N34_5 N33_5 1_555 1_555
N35_5 Ag18_5 1_555 1_555
N36_5 Ag16_5 1_555 1_555
N37_5 N38_5 1_555 1_555
N38_5 C94_5 1_555 1_555
N39_5 Ag20_5 1_555 1_555
N40_5 N39_5 1_555 1_555
N41_5 Ag21_5 1_555 1_555
N42_5 Ag19_5 1_555 1_555
N55_5 N56_5 1_555 1_555
N56_5 C139_5 1_555 1_555
N57_5 Ag29_5 1_555 1_555
N58_5 N57_5 1_555 1_555
N59_5 Ag30_5 1_555 1_555
N60_5 Ag28_5 1_555 1_555
C6_5 C7_5 1_555 1_555
C7_5 N3_2 1_555 1_555
C8_5 C7_5 1_555 1_555
C9_5 C8_5 1_555 1_555
C16_5 C17_5 1_555 1_555
C17_5 N7_5 1_555 1_555
C18_5 C17_5 1_555 1_555
C19_5 C18_5 1_555 1_555
C20_5 C19_5 1_555 1_555
C21_5 C22_5 1_555 1_555
C22_5 N9_5 1_555 1_555
C23_5 C22_5 1_555 1_555
C24_5 C23_5 1_555 1_555
C25_5 C24_5 1_555 1_555
C46_5 C47_5 1_555 1_555
C47_5 N19_5 1_555 1_555
C48_5 C47_5 1_555 1_555
C49_5 C48_5 1_555 1_555
C50_5 C49_5 1_555 1_555
C51_5 C52_5 1_555 1_555
C52_5 N21_4 1_555 1_555
C53_5 C48_5 1_555 1_555
C54_5 C53_5 1_555 1_555
C55_5 C54_5 1_555 1_555
C56_5 C57_5 1_555 1_555
C57_5 N23_5 1_555 1_555
C58_5 C57_5 1_555 1_555
C59_5 N24_5 1_555 1_555
C60_5 C59_5 1_555 1_555
C76_5 C77_5 1_555 1_555
C77_5 N31_5 1_555 1_555
C78_5 C23_5 1_555 1_555
C79_5 C78_5 1_555 1_555
C80_5 C79_5 1_555 1_555
C81_5 C82_5 1_555 1_555
C82_5 N33_5 1_555 1_555
C83_5 C82_5 1_555 1_555
C84_5 N34_5 1_555 1_555
C85_5 C84_5 1_555 1_555
C86_5 C87_5 1_555 1_555
C87_5 N35_5 1_555 1_555
C88_5 C8_5 1_555 1_555
C89_5 N36_5 1_555 1_555
C90_5 C89_5 1_555 1_555
C91_5 C92_5 1_555 1_555
C92_5 N37_5 1_555 1_555
C93_5 C92_5 1_555 1_555
C94_5 C93_5 1_555 1_555
C95_5 C94_5 1_555 1_555
C96_5 C97_5 1_555 1_555
C97_5 N39_5 1_555 1_555
C98_5 C83_5 1_555 1_555
C99_5 N40_5 1_555 1_555
C100_5 C99_5 1_555 1_555
C101_5 C102_5 1_555 1_555
C102_5 N41_5 1_555 1_555
C103_5 C102_5 1_555 1_555
C104_5 N42_5 1_555 1_555
C105_5 C104_5 1_555 1_555
C111_5 C112_5 1_555 1_555
C113_5 C93_5 1_555 1_555
C115_5 C114_5 1_555 1_555
C136_5 C137_5 1_555 1_555
C137_5 N55_5 1_555 1_555
C138_5 C103_5 1_555 1_555
C139_5 C138_5 1_555 1_555
C140_5 C139_5 1_555 1_555
C141_5 C142_5 1_555 1_555
C142_5 N57_5 1_555 1_555
C143_5 C18_5 1_555 1_555
C144_5 N58_5 1_555 1_555
C145_5 C144_5 1_555 1_555
C146_5 C147_5 1_555 1_555
C147_5 N59_5 1_555 1_555
C148_5 C58_5 1_555 1_555
C149_5 N60_5 1_555 1_555
C150_5 C149_5 1_555 1_555
H7_5 C6_5 1_555 1_555
H8_5 C6_5 1_555 1_555
H9_5 C6_5 1_555 1_555
H19_5 C16_5 1_555 1_555
H20_5 C16_5 1_555 1_555
H21_5 C16_5 1_555 1_555
H22_5 C20_5 1_555 1_555
H23_5 C20_5 1_555 1_555
H24_5 C20_5 1_555 1_555
H26_5 C21_5 1_555 1_555
H27_5 C21_5 1_555 1_555
H28_5 C25_5 1_555 1_555
H29_5 C25_5 1_555 1_555
H30_5 C25_5 1_555 1_555
H55_5 C46_5 1_555 1_555
H56_5 C46_5 1_555 1_555
H57_5 C46_5 1_555 1_555
H58_5 C50_5 1_555 1_555
H59_5 C50_5 1_555 1_555
H60_5 C50_5 1_555 1_555
H61_5 C51_5 1_555 1_555
H62_5 C51_5 1_555 1_555
H63_5 C51_5 1_555 1_555
H64_5 C55_5 1_555 1_555
H65_5 C55_5 1_555 1_555
H66_5 C55_5 1_555 1_555
H69_5 C56_5 1_555 1_555
H70_5 C60_5 1_555 1_555
H71_5 C60_5 1_555 1_555
H72_5 C60_5 1_555 1_555
H91_5 C76_5 1_555 1_555
H92_5 C76_5 1_555 1_555
H93_5 C76_5 1_555 1_555
H94_5 C80_5 1_555 1_555
H95_5 C80_5 1_555 1_555
H96_5 C80_5 1_555 1_555
H97_5 C81_5 1_555 1_555
H98_5 C81_5 1_555 1_555
H99_5 C81_5 1_555 1_555
H100_5 C85_5 1_555 1_555
H101_5 C85_5 1_555 1_555
H102_5 C85_5 1_555 1_555
H103_5 C86_5 1_555 1_555
H105_5 C86_5 1_555 1_555
H106_5 C90_5 1_555 1_555
H107_5 C90_5 1_555 1_555
H108_5 C90_5 1_555 1_555
H109_5 C91_5 1_555 1_555
H110_5 C91_5 1_555 1_555
H111_5 C91_5 1_555 1_555
H112_5 C95_5 1_555 1_555
H113_5 C95_5 1_555 1_555
H114_5 C95_5 1_555 1_555
H115_5 C96_5 1_555 1_555
H116_5 C96_5 1_555 1_555
H117_5 C96_5 1_555 1_555
H118_5 C100_5 1_555 1_555
H119_5 C100_5 1_555 1_555
H120_5 C100_5 1_555 1_555
H121_5 C101_5 1_555 1_555
H122_5 C101_5 1_555 1_555
H123_5 C101_5 1_555 1_555
H124_5 C105_5 1_555 1_555
H125_5 C105_5 1_555 1_555
H126_5 C105_5 1_555 1_555
H133_5 C111_5 1_555 1_555
H134_5 C111_5 1_555 1_555
H135_5 C111_5 1_555 1_555
H137_5 C115_5 1_555 1_555
H138_5 C115_5 1_555 1_555
H163_5 C136_5 1_555 1_555
H164_5 C136_5 1_555 1_555
H165_5 C136_5 1_555 1_555
H166_5 C140_5 1_555 1_555
H167_5 C140_5 1_555 1_555
H168_5 C140_5 1_555 1_555
H169_5 C141_5 1_555 1_555
H170_5 C141_5 1_555 1_555
H171_5 C141_5 1_555 1_555
H172_5 C145_5 1_555 1_555
H173_5 C145_5 1_555 1_555
H174_5 C145_5 1_555 1_555
H175_5 C146_5 1_555 1_555
H176_5 C146_5 1_555 1_555
H177_5 C146_5 1_555 1_555
H178_5 C150_5 1_555 1_555
H179_5 C150_5 1_555 1_555
H180_5 C150_5 1_555 1_555
Ag32_2 N3_2 1_555 1_555
Ag39_4 N21_4 1_555 1_555
Ag40_4 N22_4 1_555 1_555
N65_4 Ag6_4 1_555 1_555
N35_5 N36_5 1_555 1_555
N41_5 N42_5 1_555 1_555
N59_5 N60_5 1_555 1_555
C52_5 C53_5 1_555 1_555
C58_5 C59_5 1_555 1_555
C77_5 C78_5 1_555 1_555
C83_5 C84_5 1_555 1_555
C87_5 C88_5 1_555 1_555
C88_5 C89_5 1_555 1_555
C97_5 C98_5 1_555 1_555
C98_5 C99_5 1_555 1_555
C103_5 C104_5 1_555 1_555
C112_5 C113_5 1_555 1_555
C113_5 C114_5 1_555 1_555
C137_5 C138_5 1_555 1_555
C142_5 C143_5 1_555 1_555
C143_5 C144_5 1_555 1_555
C147_5 C148_5 1_555 1_555
C148_5 C149_5 1_555 1_555
N66_4 Ag4_4 1_555 1_555
N70_2 Ag12_2 1_555 1_555
N69_2 N70_2 1_555 1_555
Ag1_5 N1_5 1_555 1_555
Ag2_4 N2_5 1_555 1_555
Ag7_5 N13_5 1_555 1_555
Ag8_2 N14_5 1_555 1_555
Ag9_2 N17_5 1_555 1_555
Ag13_5 N25_5 1_555 1_555
Ag14_5 N26_5 1_555 1_555
Ag15_5 N28_5 1_555 1_555
Ag22_5 N43_5 1_555 1_555
Ag23_5 N44_5 1_555 1_555
Ag24_5 N46_5 1_555 1_555
Ag26_5 N50_5 1_555 1_555
N1_5 N2_5 1_555 1_555
N2_5 C4_5 1_555 1_555
N11_2 N12_2 1_555 1_555
N12_2 C29_5 1_555 1_555
N13_5 N14_5 1_555 1_555
N14_5 C34_5 1_555 1_555
N15_4 N16_4 1_555 1_555
N16_4 C39_5 1_555 1_555
N17_5 N18_5 1_555 1_555
N18_5 Ag7_5 1_555 1_555
N25_5 N26_5 1_555 1_555
N26_5 C64_5 1_555 1_555
N27_5 Ag14_5 1_555 1_555
N28_5 N27_5 1_555 1_555
N29_5 Ag15_5 1_555 1_555
N30_5 Ag13_5 1_555 1_555
N43_5 N44_5 1_555 1_555
N44_5 C109_5 1_555 1_555
N45_5 Ag23_5 1_555 1_555
N46_5 N45_5 1_555 1_555
N47_5 Ag24_5 1_555 1_555
N48_5 Ag22_5 1_555 1_555
N49_5 N50_5 1_555 1_555
N50_5 C124_5 1_555 1_555
N51_5 Ag26_5 1_555 1_555
N52_5 N51_5 1_555 1_555
C1_5 C2_5 1_555 1_555
C2_5 N1_5 1_555 1_555
C3_5 C2_5 1_555 1_555
C4_5 C3_5 1_555 1_555
C5_5 C4_5 1_555 1_555
C26_5 C27_5 1_555 1_555
C27_5 N11_2 1_555 1_555
C28_5 C27_5 1_555 1_555
C29_5 C28_5 1_555 1_555
C30_5 C29_5 1_555 1_555
C31_5 C32_5 1_555 1_555
C32_5 N13_5 1_555 1_555
C33_5 C32_5 1_555 1_555
C34_5 C33_5 1_555 1_555
C35_5 C34_5 1_555 1_555
C36_5 C37_5 1_555 1_555
C37_5 N15_4 1_555 1_555
C38_5 C33_5 1_555 1_555
C39_5 C38_5 1_555 1_555
C40_5 C39_5 1_555 1_555
C41_5 C42_5 1_555 1_555
C42_5 N17_5 1_555 1_555
C43_5 C42_5 1_555 1_555
C44_5 N18_5 1_555 1_555
C45_5 C44_5 1_555 1_555
C61_5 C62_5 1_555 1_555
C62_5 N25_5 1_555 1_555
C63_5 C3_5 1_555 1_555
C64_5 C63_5 1_555 1_555
C65_5 C64_5 1_555 1_555
C66_5 C67_5 1_555 1_555
C67_5 N27_5 1_555 1_555
C68_5 C67_5 1_555 1_555
C69_5 N28_5 1_555 1_555
C70_5 C69_5 1_555 1_555
C71_5 C72_5 1_555 1_555
C72_5 N29_5 1_555 1_555
C73_5 C28_5 1_555 1_555
C74_5 N30_5 1_555 1_555
C75_5 C74_5 1_555 1_555
C106_5 C107_5 1_555 1_555
C107_5 N43_5 1_555 1_555
C108_5 C107_5 1_555 1_555
C109_5 C108_5 1_555 1_555
C110_5 C109_5 1_555 1_555
C116_5 C117_5 1_555 1_555
C117_5 N47_5 1_555 1_555
C118_5 C68_5 1_555 1_555
C119_5 N48_5 1_555 1_555
C120_5 C119_5 1_555 1_555
C122_5 N49_5 1_555 1_555
C123_5 C43_5 1_555 1_555
C124_5 C123_5 1_555 1_555
C125_5 C124_5 1_555 1_555
C126_5 C127_5 1_555 1_555
C127_5 N51_5 1_555 1_555
C128_5 C108_5 1_555 1_555
C129_5 N52_5 1_555 1_555
C130_5 C129_5 1_555 1_555
H1_5 C1_5 1_555 1_555
H2_5 C1_5 1_555 1_555
H3_5 C1_5 1_555 1_555
H4_5 C5_5 1_555 1_555
H5_5 C5_5 1_555 1_555
H6_5 C5_5 1_555 1_555
H10_5 C10_5 1_555 1_555
H11_5 C10_5 1_555 1_555
H31_5 C26_5 1_555 1_555
H32_5 C26_5 1_555 1_555
H33_5 C26_5 1_555 1_555
H34_5 C30_5 1_555 1_555
H35_5 C30_5 1_555 1_555
H36_5 C30_5 1_555 1_555
H37_5 C31_5 1_555 1_555
H38_5 C31_5 1_555 1_555
H39_5 C31_5 1_555 1_555
H40_5 C35_5 1_555 1_555
H41_5 C35_5 1_555 1_555
H42_5 C35_5 1_555 1_555
H43_5 C36_5 1_555 1_555
H44_5 C36_5 1_555 1_555
H45_5 C36_5 1_555 1_555
H46_5 C40_5 1_555 1_555
H47_5 C40_5 1_555 1_555
H48_5 C40_5 1_555 1_555
H49_5 C41_5 1_555 1_555
H51_5 C41_5 1_555 1_555
H52_5 C45_5 1_555 1_555
H53_5 C45_5 1_555 1_555
H54_5 C45_5 1_555 1_555
H73_5 C61_5 1_555 1_555
H74_5 C61_5 1_555 1_555
H75_5 C61_5 1_555 1_555
H76_5 C65_5 1_555 1_555
H77_5 C65_5 1_555 1_555
H78_5 C65_5 1_555 1_555
H79_5 C66_5 1_555 1_555
H80_5 C66_5 1_555 1_555
H81_5 C66_5 1_555 1_555
H82_5 C70_5 1_555 1_555
H83_5 C70_5 1_555 1_555
H84_5 C70_5 1_555 1_555
H85_5 C71_5 1_555 1_555
H86_5 C71_5 1_555 1_555
H87_5 C71_5 1_555 1_555
H88_5 C75_5 1_555 1_555
H89_5 C75_5 1_555 1_555
H90_5 C75_5 1_555 1_555
H127_5 C106_5 1_555 1_555
H128_5 C106_5 1_555 1_555
H129_5 C106_5 1_555 1_555
H130_5 C110_5 1_555 1_555
H131_5 C110_5 1_555 1_555
H132_5 C110_5 1_555 1_555
H139_5 C116_5 1_555 1_555
H140_5 C116_5 1_555 1_555
H141_5 C116_5 1_555 1_555
H142_5 C120_5 1_555 1_555
H143_5 C120_5 1_555 1_555
H144_5 C120_5 1_555 1_555
H148_5 C125_5 1_555 1_555
H149_5 C125_5 1_555 1_555
H150_5 C125_5 1_555 1_555
H151_5 C126_5 1_555 1_555
H152_5 C126_5 1_555 1_555
H153_5 C126_5 1_555 1_555
H154_5 C130_5 1_555 1_555
H155_5 C130_5 1_555 1_555
H156_5 C130_5 1_555 1_555
Ag34_2 N12_2 1_555 1_555
Ag36_2 N11_2 1_555 1_555
Ag37_4 N15_4 1_555 1_555
Ag38_4 N16_4 1_555 1_555
N61_4 Ag2_4 1_555 1_555
N63_5 Ag1_5 1_555 1_555
N67_2 Ag8_2 1_555 1_555
N68_2 Ag9_2 1_555 1_555
N29_5 N30_5 1_555 1_555
N47_5 N48_5 1_555 1_555
C37_5 C38_5 1_555 1_555
C43_5 C44_5 1_555 1_555
C62_5 C63_5 1_555 1_555
C68_5 C69_5 1_555 1_555
C72_5 C73_5 1_555 1_555
C73_5 C74_5 1_555 1_555
C117_5 C118_5 1_555 1_555
C118_5 C119_5 1_555 1_555
C122_5 C123_5 1_555 1_555
C127_5 C128_5 1_555 1_555
C128_5 C129_5 1_555 1_555
N67_2 N68_2 1_555 1_555
N5_4 N63_5 1_555 1_555
N63_5 C14_5 1_555 1_555
N53_5 Ag27_5 1_555 1_555
N54_5 Ag25_5 1_555 1_555
C11_5 C12_5 1_555 1_555
C12_5 N5_4 1_555 1_555
C13_5 C12_5 1_555 1_555
C14_5 C13_5 1_555 1_555
C15_5 C14_5 1_555 1_555
C131_5 C132_5 1_555 1_555
C132_5 N53_5 1_555 1_555
C133_5 C13_5 1_555 1_555
C134_5 N54_5 1_555 1_555
C135_5 C134_5 1_555 1_555
H13_5 C11_5 1_555 1_555
H14_5 C11_5 1_555 1_555
H15_5 C11_5 1_555 1_555
H16_5 C15_5 1_555 1_555
H17_5 C15_5 1_555 1_555
H18_5 C15_5 1_555 1_555
H145_5 C121_5 1_555 1_555
H146_5 C121_5 1_555 1_555
H147_5 C121_5 1_555 1_555
H157_5 C131_5 1_555 1_555
H158_5 C131_5 1_555 1_555
H159_5 C131_5 1_555 1_555
H160_5 C135_5 1_555 1_555
H161_5 C135_5 1_555 1_555
H162_5 C135_5 1_555 1_555
Ag33_4 N5_4 1_555 1_555
N53_5 N54_5 1_555 1_555
C132_5 C133_5 1_555 1_555
C133_5 C134_5 1_555 1_555
Ag6_5 N10_6 1_555 1_555
Ag16_6 N31_6 1_555 1_555
Ag17_6 N32_6 1_555 1_555
N9_6 N10_6 1_555 1_555
N10_6 C24_6 1_555 1_555
N31_6 N32_6 1_555 1_555
N32_6 C79_6 1_555 1_555
C21_6 C22_6 1_555 1_555
C22_6 N9_6 1_555 1_555
C23_6 C22_6 1_555 1_555
C24_6 C23_6 1_555 1_555
C25_6 C24_6 1_555 1_555
C76_6 C77_6 1_555 1_555
C77_6 N31_6 1_555 1_555
C78_6 C23_6 1_555 1_555
C79_6 C78_6 1_555 1_555
C80_6 C79_6 1_555 1_555
H25_6 C21_6 1_555 1_555
H26_6 C21_6 1_555 1_555
H27_6 C21_6 1_555 1_555
H28_6 C25_6 1_555 1_555
H29_6 C25_6 1_555 1_555
H30_6 C25_6 1_555 1_555
H91_6 C76_6 1_555 1_555
H92_6 C76_6 1_555 1_555
H93_6 C76_6 1_555 1_555
H94_6 C80_6 1_555 1_555
H95_6 C80_6 1_555 1_555
H96_6 C80_6 1_555 1_555
Ag35_6 N9_6 1_555 1_555
N65_5 Ag6_5 1_555 1_555
C77_6 C78_6 1_555 1_555
Ag1_6 N1_6 1_555 1_555
Ag33_4 N4_6 1_555 1_555
Ag4_5 N7_6 1_555 1_555
Ag35_6 N8_6 1_555 1_555
Ag7_6 N13_6 1_555 1_555
Ag37_4 N14_6 1_555 1_555
Ag38_4 N17_6 1_555 1_555
Ag10_6 N19_6 1_555 1_555
Ag39_4 N20_6 1_555 1_555
Ag40_4 N23_6 1_555 1_555
Ag13_6 N25_6 1_555 1_555
Ag14_6 N26_6 1_555 1_555
Ag15_6 N28_6 1_555 1_555
Ag18_6 N34_6 1_555 1_555
Ag19_6 N37_6 1_555 1_555
Ag20_6 N38_6 1_555 1_555
Ag21_6 N40_6 1_555 1_555
Ag22_6 N43_6 1_555 1_555
Ag23_6 N44_6 1_555 1_555
Ag24_6 N46_6 1_555 1_555
Ag25_6 N49_6 1_555 1_555
Ag26_6 N50_6 1_555 1_555
Ag27_6 N52_6 1_555 1_555
Ag28_6 N55_6 1_555 1_555
Ag29_6 N56_6 1_555 1_555
Ag30_6 N58_6 1_555 1_555
N1_6 N2_6 1_555 1_555
N61_4 N4_6 1_555 1_555
N4_6 C9_6 1_555 1_555
N5_5 N63_6 1_555 1_555
N63_6 C14_6 1_555 1_555
N7_6 N8_6 1_555 1_555
N8_6 C19_6 1_555 1_555
N65_4 N66_4 1_555 1_555
N66_4 C29_6 1_555 1_555
N13_6 N14_6 1_555 1_555
N14_6 C34_6 1_555 1_555
N17_6 N18_6 1_555 1_555
N18_6 Ag7_6 1_555 1_555
N19_6 N20_6 1_555 1_555
N20_6 C49_6 1_555 1_555
N21_5 N22_5 1_555 1_555
N22_5 C54_6 1_555 1_555
N23_6 N24_6 1_555 1_555
N24_6 Ag10_6 1_555 1_555
N25_6 N26_6 1_555 1_555
N26_6 C64_6 1_555 1_555
N27_6 Ag14_6 1_555 1_555
N28_6 N27_6 1_555 1_555
N29_6 Ag15_6 1_555 1_555
N30_6 Ag13_6 1_555 1_555
N34_6 N33_6 1_555 1_555
N35_6 Ag18_6 1_555 1_555
N37_6 N38_6 1_555 1_555
N38_6 C94_6 1_555 1_555
N39_6 Ag20_6 1_555 1_555
N40_6 N39_6 1_555 1_555
N41_6 Ag21_6 1_555 1_555
N42_6 Ag19_6 1_555 1_555
N43_6 N44_6 1_555 1_555
N44_6 C109_6 1_555 1_555
N45_6 Ag23_6 1_555 1_555
N46_6 N45_6 1_555 1_555
N47_6 Ag24_6 1_555 1_555
N48_6 Ag22_6 1_555 1_555
N49_6 N50_6 1_555 1_555
N50_6 C124_6 1_555 1_555
N51_6 Ag26_6 1_555 1_555
N52_6 N51_6 1_555 1_555
N53_6 Ag27_6 1_555 1_555
N54_6 Ag25_6 1_555 1_555
N55_6 N56_6 1_555 1_555
N56_6 C139_6 1_555 1_555
N57_6 Ag29_6 1_555 1_555
N58_6 N57_6 1_555 1_555
N59_6 Ag30_6 1_555 1_555
N60_6 Ag28_6 1_555 1_555
C1_6 C2_6 1_555 1_555
C2_6 N1_6 1_555 1_555
C3_6 C2_6 1_555 1_555
C6_6 C7_6 1_555 1_555
C7_6 N61_4 1_555 1_555
C8_6 C7_6 1_555 1_555
C9_6 C8_6 1_555 1_555
C10_6 C9_6 1_555 1_555
C11_6 C12_6 1_555 1_555
C12_6 N5_5 1_555 1_555
C13_6 C12_6 1_555 1_555
C14_6 C13_6 1_555 1_555
C15_6 C14_6 1_555 1_555
C16_6 C17_6 1_555 1_555
C17_6 N7_6 1_555 1_555
C18_6 C17_6 1_555 1_555
C19_6 C18_6 1_555 1_555
C20_6 C19_6 1_555 1_555
C26_6 C27_6 1_555 1_555
C27_6 N65_4 1_555 1_555
C28_6 C27_6 1_555 1_555
C29_6 C28_6 1_555 1_555
C30_6 C29_6 1_555 1_555
C31_6 C32_6 1_555 1_555
C32_6 N13_6 1_555 1_555
C33_6 C32_6 1_555 1_555
C34_6 C33_6 1_555 1_555
C35_6 C34_6 1_555 1_555
C36_6 C37_6 1_555 1_555
C38_6 C33_6 1_555 1_555
C41_6 C42_6 1_555 1_555
C42_6 N17_6 1_555 1_555
C43_6 C42_6 1_555 1_555
C44_6 N18_6 1_555 1_555
C45_6 C44_6 1_555 1_555
C46_6 C47_6 1_555 1_555
C47_6 N19_6 1_555 1_555
C48_6 C47_6 1_555 1_555
C49_6 C48_6 1_555 1_555
C50_6 C49_6 1_555 1_555
C51_6 C52_6 1_555 1_555
C52_6 N21_5 1_555 1_555
C53_6 C48_6 1_555 1_555
C54_6 C53_6 1_555 1_555
C55_6 C54_6 1_555 1_555
C56_6 C57_6 1_555 1_555
C57_6 N23_6 1_555 1_555
C58_6 C57_6 1_555 1_555
C59_6 N24_6 1_555 1_555
C60_6 C59_6 1_555 1_555
C61_6 C62_6 1_555 1_555
C62_6 N25_6 1_555 1_555
C63_6 C3_6 1_555 1_555
C64_6 C63_6 1_555 1_555
C65_6 C64_6 1_555 1_555
C66_6 C67_6 1_555 1_555
C67_6 N27_6 1_555 1_555
C68_6 C67_6 1_555 1_555
C69_6 N28_6 1_555 1_555
C70_6 C69_6 1_555 1_555
C71_6 C72_6 1_555 1_555
C72_6 N29_6 1_555 1_555
C73_6 C28_6 1_555 1_555
C74_6 N30_6 1_555 1_555
C75_6 C74_6 1_555 1_555
C81_6 C82_6 1_555 1_555
C82_6 N33_6 1_555 1_555
C83_6 C82_6 1_555 1_555
C84_6 N34_6 1_555 1_555
C85_6 C84_6 1_555 1_555
C86_6 C87_6 1_555 1_555
C87_6 N35_6 1_555 1_555
C88_6 C8_6 1_555 1_555
C89_6 N36_6 1_555 1_555
C90_6 C89_6 1_555 1_555
C91_6 C92_6 1_555 1_555
C92_6 N37_6 1_555 1_555
C93_6 C92_6 1_555 1_555
C94_6 C93_6 1_555 1_555
C95_6 C94_6 1_555 1_555
C96_6 C97_6 1_555 1_555
C97_6 N39_6 1_555 1_555
C98_6 C83_6 1_555 1_555
C99_6 N40_6 1_555 1_555
C100_6 C99_6 1_555 1_555
C101_6 C102_6 1_555 1_555
C102_6 N41_6 1_555 1_555
C103_6 C102_6 1_555 1_555
C104_6 N42_6 1_555 1_555
C105_6 C104_6 1_555 1_555
C106_6 C107_6 1_555 1_555
C107_6 N43_6 1_555 1_555
C108_6 C107_6 1_555 1_555
C109_6 C108_6 1_555 1_555
C110_6 C109_6 1_555 1_555
C111_6 C112_6 1_555 1_555
C112_6 N45_6 1_555 1_555
C113_6 C93_6 1_555 1_555
C114_6 N46_6 1_555 1_555
C115_6 C114_6 1_555 1_555
C116_6 C117_6 1_555 1_555
C117_6 N47_6 1_555 1_555
C118_6 C68_6 1_555 1_555
C119_6 N48_6 1_555 1_555
C120_6 C119_6 1_555 1_555
C121_6 C122_6 1_555 1_555
C122_6 N49_6 1_555 1_555
C123_6 C43_6 1_555 1_555
C124_6 C123_6 1_555 1_555
C125_6 C124_6 1_555 1_555
C126_6 C127_6 1_555 1_555
C127_6 N51_6 1_555 1_555
C128_6 C108_6 1_555 1_555
C129_6 N52_6 1_555 1_555
C130_6 C129_6 1_555 1_555
C131_6 C132_6 1_555 1_555
C132_6 N53_6 1_555 1_555
C133_6 C13_6 1_555 1_555
C134_6 N54_6 1_555 1_555
C135_6 C134_6 1_555 1_555
C136_6 C137_6 1_555 1_555
C137_6 N55_6 1_555 1_555
C138_6 C103_6 1_555 1_555
C139_6 C138_6 1_555 1_555
C140_6 C139_6 1_555 1_555
C141_6 C142_6 1_555 1_555
C142_6 N57_6 1_555 1_555
C143_6 C18_6 1_555 1_555
C144_6 N58_6 1_555 1_555
C145_6 C144_6 1_555 1_555
C146_6 C147_6 1_555 1_555
C147_6 N59_6 1_555 1_555
C148_6 C58_6 1_555 1_555
C149_6 N60_6 1_555 1_555
C150_6 C149_6 1_555 1_555
H1_6 C1_6 1_555 1_555
H2_6 C1_6 1_555 1_555
H3_6 C1_6 1_555 1_555
H7_6 C6_6 1_555 1_555
H8_6 C6_6 1_555 1_555
H9_6 C6_6 1_555 1_555
H10_6 C10_6 1_555 1_555
H11_6 C10_6 1_555 1_555
H12_6 C10_6 1_555 1_555
H13_6 C11_6 1_555 1_555
H14_6 C11_6 1_555 1_555
H15_6 C11_6 1_555 1_555
H17_6 C15_6 1_555 1_555
H18_6 C15_6 1_555 1_555
H19_6 C16_6 1_555 1_555
H20_6 C16_6 1_555 1_555
H21_6 C16_6 1_555 1_555
H22_6 C20_6 1_555 1_555
H23_6 C20_6 1_555 1_555
H24_6 C20_6 1_555 1_555
H31_6 C26_6 1_555 1_555
H32_6 C26_6 1_555 1_555
H33_6 C26_6 1_555 1_555
H34_6 C30_6 1_555 1_555
H35_6 C30_6 1_555 1_555
H36_6 C30_6 1_555 1_555
H37_6 C31_6 1_555 1_555
H38_6 C31_6 1_555 1_555
H39_6 C31_6 1_555 1_555
H40_6 C35_6 1_555 1_555
H41_6 C35_6 1_555 1_555
H42_6 C35_6 1_555 1_555
H43_6 C36_6 1_555 1_555
H44_6 C36_6 1_555 1_555
H45_6 C36_6 1_555 1_555
H49_6 C41_6 1_555 1_555
H50_6 C41_6 1_555 1_555
H51_6 C41_6 1_555 1_555
H52_6 C45_6 1_555 1_555
H53_6 C45_6 1_555 1_555
H54_6 C45_6 1_555 1_555
H55_6 C46_6 1_555 1_555
H56_6 C46_6 1_555 1_555
H57_6 C46_6 1_555 1_555
H58_6 C50_6 1_555 1_555
H59_6 C50_6 1_555 1_555
H60_6 C50_6 1_555 1_555
H61_6 C51_6 1_555 1_555
H62_6 C51_6 1_555 1_555
H63_6 C51_6 1_555 1_555
H64_6 C55_6 1_555 1_555
H65_6 C55_6 1_555 1_555
H66_6 C55_6 1_555 1_555
H67_6 C56_6 1_555 1_555
H68_6 C56_6 1_555 1_555
H69_6 C56_6 1_555 1_555
H70_6 C60_6 1_555 1_555
H71_6 C60_6 1_555 1_555
H72_6 C60_6 1_555 1_555
H73_6 C61_6 1_555 1_555
H74_6 C61_6 1_555 1_555
H76_6 C65_6 1_555 1_555
H77_6 C65_6 1_555 1_555
H78_6 C65_6 1_555 1_555
H79_6 C66_6 1_555 1_555
H80_6 C66_6 1_555 1_555
H81_6 C66_6 1_555 1_555
H82_6 C70_6 1_555 1_555
H83_6 C70_6 1_555 1_555
H84_6 C70_6 1_555 1_555
H85_6 C71_6 1_555 1_555
H86_6 C71_6 1_555 1_555
H87_6 C71_6 1_555 1_555
H88_6 C75_6 1_555 1_555
H89_6 C75_6 1_555 1_555
H90_6 C75_6 1_555 1_555
H98_6 C81_6 1_555 1_555
H99_6 C81_6 1_555 1_555
H100_6 C85_6 1_555 1_555
H101_6 C85_6 1_555 1_555
H102_6 C85_6 1_555 1_555
H103_6 C86_6 1_555 1_555
H104_6 C86_6 1_555 1_555
H105_6 C86_6 1_555 1_555
H107_6 C90_6 1_555 1_555
H108_6 C90_6 1_555 1_555
H109_6 C91_6 1_555 1_555
H110_6 C91_6 1_555 1_555
H111_6 C91_6 1_555 1_555
H112_6 C95_6 1_555 1_555
H113_6 C95_6 1_555 1_555
H114_6 C95_6 1_555 1_555
H115_6 C96_6 1_555 1_555
H116_6 C96_6 1_555 1_555
H117_6 C96_6 1_555 1_555
H118_6 C100_6 1_555 1_555
H119_6 C100_6 1_555 1_555
H120_6 C100_6 1_555 1_555
H121_6 C101_6 1_555 1_555
H122_6 C101_6 1_555 1_555
H123_6 C101_6 1_555 1_555
H124_6 C105_6 1_555 1_555
H125_6 C105_6 1_555 1_555
H126_6 C105_6 1_555 1_555
H127_6 C106_6 1_555 1_555
H128_6 C106_6 1_555 1_555
H129_6 C106_6 1_555 1_555
H130_6 C110_6 1_555 1_555
H131_6 C110_6 1_555 1_555
H132_6 C110_6 1_555 1_555
H133_6 C111_6 1_555 1_555
H134_6 C111_6 1_555 1_555
H135_6 C111_6 1_555 1_555
H136_6 C115_6 1_555 1_555
H137_6 C115_6 1_555 1_555
H138_6 C115_6 1_555 1_555
H139_6 C116_6 1_555 1_555
H140_6 C116_6 1_555 1_555
H141_6 C116_6 1_555 1_555
H142_6 C120_6 1_555 1_555
H143_6 C120_6 1_555 1_555
H144_6 C120_6 1_555 1_555
H145_6 C121_6 1_555 1_555
H146_6 C121_6 1_555 1_555
H147_6 C121_6 1_555 1_555
H148_6 C125_6 1_555 1_555
H149_6 C125_6 1_555 1_555
H150_6 C125_6 1_555 1_555
H151_6 C126_6 1_555 1_555
H152_6 C126_6 1_555 1_555
H153_6 C126_6 1_555 1_555
H154_6 C130_6 1_555 1_555
H155_6 C130_6 1_555 1_555
H156_6 C130_6 1_555 1_555
H157_6 C131_6 1_555 1_555
H158_6 C131_6 1_555 1_555
H159_6 C131_6 1_555 1_555
H160_6 C135_6 1_555 1_555
H161_6 C135_6 1_555 1_555
H162_6 C135_6 1_555 1_555
H163_6 C136_6 1_555 1_555
H164_6 C136_6 1_555 1_555
H165_6 C136_6 1_555 1_555
H166_6 C140_6 1_555 1_555
H167_6 C140_6 1_555 1_555
H168_6 C140_6 1_555 1_555
H169_6 C141_6 1_555 1_555
H170_6 C141_6 1_555 1_555
H171_6 C141_6 1_555 1_555
H172_6 C145_6 1_555 1_555
H173_6 C145_6 1_555 1_555
H174_6 C145_6 1_555 1_555
H175_6 C146_6 1_555 1_555
H176_6 C146_6 1_555 1_555
H177_6 C146_6 1_555 1_555
H178_6 C150_6 1_555 1_555
H179_6 C150_6 1_555 1_555
H180_6 C150_6 1_555 1_555
Ag33_5 N5_5 1_555 1_555
Ag39_5 N21_5 1_555 1_555
Ag40_5 N22_5 1_555 1_555
N66_5 Ag4_5 1_555 1_555
N29_6 N30_6 1_555 1_555
N35_6 N36_6 1_555 1_555
N41_6 N42_6 1_555 1_555
N47_6 N48_6 1_555 1_555
N53_6 N54_6 1_555 1_555
N59_6 N60_6 1_555 1_555
C37_6 C38_6 1_555 1_555
C43_6 C44_6 1_555 1_555
C52_6 C53_6 1_555 1_555
C58_6 C59_6 1_555 1_555
C62_6 C63_6 1_555 1_555
C68_6 C69_6 1_555 1_555
C72_6 C73_6 1_555 1_555
C73_6 C74_6 1_555 1_555
C83_6 C84_6 1_555 1_555
C87_6 C88_6 1_555 1_555
C88_6 C89_6 1_555 1_555
C97_6 C98_6 1_555 1_555
C98_6 C99_6 1_555 1_555
C103_6 C104_6 1_555 1_555
C112_6 C113_6 1_555 1_555
C113_6 C114_6 1_555 1_555
C117_6 C118_6 1_555 1_555
C118_6 C119_6 1_555 1_555
C122_6 C123_6 1_555 1_555
C127_6 C128_6 1_555 1_555
C128_6 C129_6 1_555 1_555
C132_6 C133_6 1_555 1_555
C133_6 C134_6 1_555 1_555
C137_6 C138_6 1_555 1_555
C142_6 C143_6 1_555 1_555
C143_6 C144_6 1_555 1_555
C147_6 C148_6 1_555 1_555
C148_6 C149_6 1_555 1_555
N15_5 N16_5 1_555 1_555
N16_5 C39_6 1_555 1_555
C5_6 C4_6 1_555 1_555
C40_6 C39_6 1_555 1_555
H4_6 C5_6 1_555 1_555
H5_6 C5_6 1_555 1_555
H6_6 C5_6 1_555 1_555
H46_6 C40_6 1_555 1_555
H47_6 C40_6 1_555 1_555
H48_6 C40_6 1_555 1_555
Ag37_5 N15_5 1_555 1_555
Ag38_5 N16_5 1_555 1_555
C5_7 C4_7 1_555 1_555
H4_7 C5_7 1_555 1_555
H5_7 C5_7 1_555 1_555
H6_7 C5_7 1_555 1_555
Ag1_7 N1_7 1_555 1_555
Ag13_7 N25_7 1_555 1_555
Ag14_7 N26_7 1_555 1_555
Ag15_7 N28_7 1_555 1_555
Ag19_7 N37_7 1_555 1_555
Ag20_7 N38_7 1_555 1_555
Ag24_7 N46_7 1_555 1_555
N1_7 N2_7 1_555 1_555
N11_3 N12_3 1_555 1_555
N12_3 C29_7 1_555 1_555
N25_7 N26_7 1_555 1_555
N26_7 C64_7 1_555 1_555
N27_7 Ag14_7 1_555 1_555
N28_7 N27_7 1_555 1_555
N29_7 Ag15_7 1_555 1_555
N30_7 Ag13_7 1_555 1_555
N37_7 N38_7 1_555 1_555
N38_7 C94_7 1_555 1_555
N42_7 Ag19_7 1_555 1_555
N45_7 Ag23_7 1_555 1_555
N46_7 N45_7 1_555 1_555
N47_7 Ag24_7 1_555 1_555
N48_7 Ag22_7 1_555 1_555
C1_7 C2_7 1_555 1_555
C2_7 N1_7 1_555 1_555
C3_7 C2_7 1_555 1_555
C26_7 C27_7 1_555 1_555
C27_7 N11_3 1_555 1_555
C28_7 C27_7 1_555 1_555
C29_7 C28_7 1_555 1_555
C30_7 C29_7 1_555 1_555
C61_7 C62_7 1_555 1_555
C62_7 N25_7 1_555 1_555
C63_7 C3_7 1_555 1_555
C64_7 C63_7 1_555 1_555
C65_7 C64_7 1_555 1_555
C66_7 C67_7 1_555 1_555
C67_7 N27_7 1_555 1_555
C68_7 C67_7 1_555 1_555
C69_7 N28_7 1_555 1_555
C70_7 C69_7 1_555 1_555
C71_7 C72_7 1_555 1_555
C72_7 N29_7 1_555 1_555
C73_7 C28_7 1_555 1_555
C74_7 N30_7 1_555 1_555
C75_7 C74_7 1_555 1_555
C91_7 C92_7 1_555 1_555
C92_7 N37_7 1_555 1_555
C93_7 C92_7 1_555 1_555
C94_7 C93_7 1_555 1_555
C95_7 C94_7 1_555 1_555
C104_7 N42_7 1_555 1_555
C105_7 C104_7 1_555 1_555
C111_7 C112_7 1_555 1_555
C112_7 N45_7 1_555 1_555
C113_7 C93_7 1_555 1_555
C114_7 N46_7 1_555 1_555
C115_7 C114_7 1_555 1_555
C116_7 C117_7 1_555 1_555
C117_7 N47_7 1_555 1_555
C118_7 C68_7 1_555 1_555
C119_7 N48_7 1_555 1_555
C120_7 C119_7 1_555 1_555
C136_7 C137_7 1_555 1_555
C137_7 N55_7 1_555 1_555
H1_7 C1_7 1_555 1_555
H2_7 C1_7 1_555 1_555
H3_7 C1_7 1_555 1_555
H31_7 C26_7 1_555 1_555
H32_7 C26_7 1_555 1_555
H33_7 C26_7 1_555 1_555
H34_7 C30_7 1_555 1_555
H35_7 C30_7 1_555 1_555
H36_7 C30_7 1_555 1_555
H73_7 C61_7 1_555 1_555
H74_7 C61_7 1_555 1_555
H76_7 C65_7 1_555 1_555
H77_7 C65_7 1_555 1_555
H78_7 C65_7 1_555 1_555
H79_7 C66_7 1_555 1_555
H80_7 C66_7 1_555 1_555
H81_7 C66_7 1_555 1_555
H82_7 C70_7 1_555 1_555
H83_7 C70_7 1_555 1_555
H84_7 C70_7 1_555 1_555
H85_7 C71_7 1_555 1_555
H86_7 C71_7 1_555 1_555
H87_7 C71_7 1_555 1_555
H88_7 C75_7 1_555 1_555
H89_7 C75_7 1_555 1_555
H90_7 C75_7 1_555 1_555
H109_7 C91_7 1_555 1_555
H110_7 C91_7 1_555 1_555
H111_7 C91_7 1_555 1_555
H112_7 C95_7 1_555 1_555
H113_7 C95_7 1_555 1_555
H114_7 C95_7 1_555 1_555
H124_7 C105_7 1_555 1_555
H125_7 C105_7 1_555 1_555
H126_7 C105_7 1_555 1_555
H133_7 C111_7 1_555 1_555
H134_7 C111_7 1_555 1_555
H135_7 C111_7 1_555 1_555
H136_7 C115_7 1_555 1_555
H137_7 C115_7 1_555 1_555
H138_7 C115_7 1_555 1_555
H139_7 C116_7 1_555 1_555
H140_7 C116_7 1_555 1_555
H141_7 C116_7 1_555 1_555
H142_7 C120_7 1_555 1_555
H143_7 C120_7 1_555 1_555
H144_7 C120_7 1_555 1_555
H163_7 C136_7 1_555 1_555
H164_7 C136_7 1_555 1_555
H165_7 C136_7 1_555 1_555
Ag34_3 N12_3 1_555 1_555
Ag36_3 N11_3 1_555 1_555
N63_7 Ag1_7 1_555 1_555
N29_7 N30_7 1_555 1_555
N47_7 N48_7 1_555 1_555
C62_7 C63_7 1_555 1_555
C68_7 C69_7 1_555 1_555
C72_7 C73_7 1_555 1_555
C73_7 C74_7 1_555 1_555
C103_7 C104_7 1_555 1_555
C112_7 C113_7 1_555 1_555
C113_7 C114_7 1_555 1_555
C117_7 C118_7 1_555 1_555
C118_7 C119_7 1_555 1_555
Ag10_7 N19_7 1_555 1_555
Ag11_3 N20_7 1_555 1_555
Ag12_3 N23_7 1_555 1_555
N63_7 C14_7 1_555 1_555
N19_7 N20_7 1_555 1_555
N20_7 C49_7 1_555 1_555
N70_2 C54_7 1_555 1_555
N23_7 N24_7 1_555 1_555
N24_7 Ag10_7 1_555 1_555
N43_7 N44_7 1_555 1_555
N44_7 C109_7 1_555 1_555
N60_7 Ag28_7 1_555 1_555
C15_7 C14_7 1_555 1_555
C46_7 C47_7 1_555 1_555
C47_7 N19_7 1_555 1_555
C48_7 C47_7 1_555 1_555
C49_7 C48_7 1_555 1_555
C50_7 C49_7 1_555 1_555
C51_7 C52_7 1_555 1_555
C52_7 N69_2 1_555 1_555
C53_7 C48_7 1_555 1_555
C54_7 C53_7 1_555 1_555
C55_7 C54_7 1_555 1_555
C56_7 C57_7 1_555 1_555
C57_7 N23_7 1_555 1_555
C58_7 C57_7 1_555 1_555
C59_7 N24_7 1_555 1_555
C60_7 C59_7 1_555 1_555
C106_7 C107_7 1_555 1_555
C107_7 N43_7 1_555 1_555
C108_7 C107_7 1_555 1_555
C109_7 C108_7 1_555 1_555
C110_7 C109_7 1_555 1_555
C128_7 C108_7 1_555 1_555
C130_7 C129_7 1_555 1_555
C131_7 C132_7 1_555 1_555
C146_7 C147_7 1_555 1_555
C147_7 N59_7 1_555 1_555
C148_7 C58_7 1_555 1_555
C149_7 N60_7 1_555 1_555
C150_7 C149_7 1_555 1_555
H16_7 C15_7 1_555 1_555
H17_7 C15_7 1_555 1_555
H18_7 C15_7 1_555 1_555
H55_7 C46_7 1_555 1_555
H56_7 C46_7 1_555 1_555
H57_7 C46_7 1_555 1_555
H58_7 C50_7 1_555 1_555
H59_7 C50_7 1_555 1_555
H60_7 C50_7 1_555 1_555
H61_7 C51_7 1_555 1_555
H62_7 C51_7 1_555 1_555
H63_7 C51_7 1_555 1_555
H64_7 C55_7 1_555 1_555
H65_7 C55_7 1_555 1_555
H66_7 C55_7 1_555 1_555
H67_7 C56_7 1_555 1_555
H68_7 C56_7 1_555 1_555
H69_7 C56_7 1_555 1_555
H70_7 C60_7 1_555 1_555
H71_7 C60_7 1_555 1_555
H72_7 C60_7 1_555 1_555
H127_7 C106_7 1_555 1_555
H128_7 C106_7 1_555 1_555
H129_7 C106_7 1_555 1_555
H130_7 C110_7 1_555 1_555
H132_7 C110_7 1_555 1_555
H154_7 C130_7 1_555 1_555
H155_7 C130_7 1_555 1_555
H156_7 C130_7 1_555 1_555
H157_7 C131_7 1_555 1_555
H158_7 C131_7 1_555 1_555
H159_7 C131_7 1_555 1_555
H175_7 C146_7 1_555 1_555
H176_7 C146_7 1_555 1_555
H177_7 C146_7 1_555 1_555
H178_7 C150_7 1_555 1_555
H179_7 C150_7 1_555 1_555
H180_7 C150_7 1_555 1_555
N69_3 Ag11_3 1_555 1_555
N70_3 Ag12_3 1_555 1_555
N59_7 N60_7 1_555 1_555
C52_7 C53_7 1_555 1_555
C58_7 C59_7 1_555 1_555
C128_7 C129_7 1_555 1_555
C147_7 C148_7 1_555 1_555
C148_7 C149_7 1_555 1_555
N69_3 N70_3 1_555 1_555
N68_2 C39_7 1_555 1_555
C40_7 C39_7 1_555 1_555
H46_7 C40_7 1_555 1_555
H47_7 C40_7 1_555 1_555
Ag3_3 N4_7 1_555 1_555
Ag36_2 N10_7 1_555 1_555
Ag16_7 N31_7 1_555 1_555
Ag17_7 N32_7 1_555 1_555
Ag18_7 N34_7 1_555 1_555
Ag21_7 N40_7 1_555 1_555
Ag29_7 N56_7 1_555 1_555
N3_3 N4_7 1_555 1_555
N4_7 C9_7 1_555 1_555
N9_7 N10_7 1_555 1_555
N10_7 C24_7 1_555 1_555
N31_7 N32_7 1_555 1_555
N32_7 C79_7 1_555 1_555
N33_7 Ag17_7 1_555 1_555
N34_7 N33_7 1_555 1_555
N35_7 Ag18_7 1_555 1_555
N36_7 Ag16_7 1_555 1_555
N40_7 N39_7 1_555 1_555
N41_7 Ag21_7 1_555 1_555
N56_7 C139_7 1_555 1_555
C6_7 C7_7 1_555 1_555
C7_7 N3_3 1_555 1_555
C8_7 C7_7 1_555 1_555
C9_7 C8_7 1_555 1_555
C10_7 C9_7 1_555 1_555
C21_7 C22_7 1_555 1_555
C22_7 N9_7 1_555 1_555
C23_7 C22_7 1_555 1_555
C24_7 C23_7 1_555 1_555
C25_7 C24_7 1_555 1_555
C31_7 C32_7 1_555 1_555
C33_7 C32_7 1_555 1_555
C34_7 C33_7 1_555 1_555
C35_7 C34_7 1_555 1_555
C36_7 C37_7 1_555 1_555
C38_7 C33_7 1_555 1_555
C76_7 C77_7 1_555 1_555
C77_7 N31_7 1_555 1_555
C78_7 C23_7 1_555 1_555
C79_7 C78_7 1_555 1_555
C80_7 C79_7 1_555 1_555
C81_7 C82_7 1_555 1_555
C82_7 N33_7 1_555 1_555
C83_7 C82_7 1_555 1_555
C84_7 N34_7 1_555 1_555
C85_7 C84_7 1_555 1_555
C86_7 C87_7 1_555 1_555
C87_7 N35_7 1_555 1_555
C88_7 C8_7 1_555 1_555
C89_7 N36_7 1_555 1_555
C90_7 C89_7 1_555 1_555
C96_7 C97_7 1_555 1_555
C97_7 N39_7 1_555 1_555
C98_7 C83_7 1_555 1_555
C99_7 N40_7 1_555 1_555
C100_7 C99_7 1_555 1_555
C101_7 C102_7 1_555 1_555
C102_7 N41_7 1_555 1_555
C139_7 C138_7 1_555 1_555
C140_7 C139_7 1_555 1_555
H7_7 C6_7 1_555 1_555
H8_7 C6_7 1_555 1_555
H9_7 C6_7 1_555 1_555
H10_7 C10_7 1_555 1_555
H11_7 C10_7 1_555 1_555
H12_7 C10_7 1_555 1_555
H25_7 C21_7 1_555 1_555
H26_7 C21_7 1_555 1_555
H27_7 C21_7 1_555 1_555
H28_7 C25_7 1_555 1_555
H29_7 C25_7 1_555 1_555
H30_7 C25_7 1_555 1_555
H37_7 C31_7 1_555 1_555
H38_7 C31_7 1_555 1_555
H39_7 C31_7 1_555 1_555
H40_7 C35_7 1_555 1_555
H41_7 C35_7 1_555 1_555
H42_7 C35_7 1_555 1_555
H43_7 C36_7 1_555 1_555
H44_7 C36_7 1_555 1_555
H45_7 C36_7 1_555 1_555
H91_7 C76_7 1_555 1_555
H92_7 C76_7 1_555 1_555
H93_7 C76_7 1_555 1_555
H94_7 C80_7 1_555 1_555
H95_7 C80_7 1_555 1_555
H96_7 C80_7 1_555 1_555
H97_7 C81_7 1_555 1_555
H98_7 C81_7 1_555 1_555
H99_7 C81_7 1_555 1_555
H100_7 C85_7 1_555 1_555
H101_7 C85_7 1_555 1_555
H102_7 C85_7 1_555 1_555
H103_7 C86_7 1_555 1_555
H104_7 C86_7 1_555 1_555
H105_7 C86_7 1_555 1_555
H106_7 C90_7 1_555 1_555
H107_7 C90_7 1_555 1_555
H108_7 C90_7 1_555 1_555
H115_7 C96_7 1_555 1_555
H116_7 C96_7 1_555 1_555
H117_7 C96_7 1_555 1_555
H118_7 C100_7 1_555 1_555
H119_7 C100_7 1_555 1_555
H120_7 C100_7 1_555 1_555
H121_7 C101_7 1_555 1_555
H122_7 C101_7 1_555 1_555
H123_7 C101_7 1_555 1_555
H166_7 C140_7 1_555 1_555
H167_7 C140_7 1_555 1_555
H168_7 C140_7 1_555 1_555
Ag32_3 N3_3 1_555 1_555
Ag35_7 N9_7 1_555 1_555
N62_3 Ag3_3 1_555 1_555
N35_7 N36_7 1_555 1_555
C37_7 C38_7 1_555 1_555
C77_7 C78_7 1_555 1_555
C83_7 C84_7 1_555 1_555
C87_7 C88_7 1_555 1_555
C88_7 C89_7 1_555 1_555
C97_7 C98_7 1_555 1_555
C98_7 C99_7 1_555 1_555
Ag34_2 N7_7 1_555 1_555
Ag35_7 N8_7 1_555 1_555
Ag7_7 N13_7 1_555 1_555
Ag8_3 N14_7 1_555 1_555
Ag9_3 N17_7 1_555 1_555
Ag25_7 N49_7 1_555 1_555
Ag26_7 N50_7 1_555 1_555
Ag27_7 N52_7 1_555 1_555
Ag30_7 N58_7 1_555 1_555
N7_7 N8_7 1_555 1_555
N8_7 C19_7 1_555 1_555
N13_7 N14_7 1_555 1_555
N17_7 N18_7 1_555 1_555
N18_7 Ag7_7 1_555 1_555
N49_7 N50_7 1_555 1_555
N50_7 C124_7 1_555 1_555
N51_7 Ag26_7 1_555 1_555
N52_7 N51_7 1_555 1_555
N53_7 Ag27_7 1_555 1_555
N54_7 Ag25_7 1_555 1_555
N58_7 N57_7 1_555 1_555
C11_7 C12_7 1_555 1_555
C12_7 N62_2 1_555 1_555
C13_7 C12_7 1_555 1_555
C16_7 C17_7 1_555 1_555
C17_7 N7_7 1_555 1_555
C18_7 C17_7 1_555 1_555
C19_7 C18_7 1_555 1_555
C20_7 C19_7 1_555 1_555
C41_7 C42_7 1_555 1_555
C42_7 N17_7 1_555 1_555
C43_7 C42_7 1_555 1_555
C44_7 N18_7 1_555 1_555
C45_7 C44_7 1_555 1_555
C121_7 C122_7 1_555 1_555
C122_7 N49_7 1_555 1_555
C123_7 C43_7 1_555 1_555
C124_7 C123_7 1_555 1_555
C125_7 C124_7 1_555 1_555
C126_7 C127_7 1_555 1_555
C127_7 N51_7 1_555 1_555
C133_7 C13_7 1_555 1_555
C134_7 N54_7 1_555 1_555
C135_7 C134_7 1_555 1_555
C141_7 C142_7 1_555 1_555
C142_7 N57_7 1_555 1_555
C143_7 C18_7 1_555 1_555
C144_7 N58_7 1_555 1_555
C145_7 C144_7 1_555 1_555
H13_7 C11_7 1_555 1_555
H14_7 C11_7 1_555 1_555
H15_7 C11_7 1_555 1_555
H19_7 C16_7 1_555 1_555
H20_7 C16_7 1_555 1_555
H21_7 C16_7 1_555 1_555
H22_7 C20_7 1_555 1_555
H23_7 C20_7 1_555 1_555
H24_7 C20_7 1_555 1_555
H49_7 C41_7 1_555 1_555
H50_7 C41_7 1_555 1_555
H51_7 C41_7 1_555 1_555
H52_7 C45_7 1_555 1_555
H53_7 C45_7 1_555 1_555
H54_7 C45_7 1_555 1_555
H145_7 C121_7 1_555 1_555
H146_7 C121_7 1_555 1_555
H147_7 C121_7 1_555 1_555
H148_7 C125_7 1_555 1_555
H149_7 C125_7 1_555 1_555
H150_7 C125_7 1_555 1_555
H151_7 C126_7 1_555 1_555
H152_7 C126_7 1_555 1_555
H153_7 C126_7 1_555 1_555
H160_7 C135_7 1_555 1_555
H161_7 C135_7 1_555 1_555
H162_7 C135_7 1_555 1_555
H169_7 C141_7 1_555 1_555
H170_7 C141_7 1_555 1_555
H171_7 C141_7 1_555 1_555
H172_7 C145_7 1_555 1_555
H173_7 C145_7 1_555 1_555
H174_7 C145_7 1_555 1_555
N67_3 Ag8_3 1_555 1_555
N68_3 Ag9_3 1_555 1_555
N53_7 N54_7 1_555 1_555
C43_7 C44_7 1_555 1_555
C122_7 C123_7 1_555 1_555
C133_7 C134_7 1_555 1_555
C142_7 C143_7 1_555 1_555
C143_7 C144_7 1_555 1_555
N67_3 N68_3 1_555 1_555
Ag1_8 N1_8 1_555 1_555
Ag32_3 N2_8 1_555 1_555
Ag36_3 N10_8 1_555 1_555
Ag13_8 N25_8 1_555 1_555
Ag16_8 N31_8 1_555 1_555
Ag17_8 N32_8 1_555 1_555
Ag18_8 N34_8 1_555 1_555
Ag21_8 N40_8 1_555 1_555
N1_8 N2_8 1_555 1_555
N2_8 C4_8 1_555 1_555
N61_5 N4_8 1_555 1_555
N4_8 C9_8 1_555 1_555
N9_8 N10_8 1_555 1_555
N10_8 C24_8 1_555 1_555
N65_5 N66_5 1_555 1_555
N66_5 C29_8 1_555 1_555
N25_8 N26_8 1_555 1_555
N26_8 C64_8 1_555 1_555
N30_8 Ag13_8 1_555 1_555
N31_8 N32_8 1_555 1_555
N32_8 C79_8 1_555 1_555
N33_8 Ag17_8 1_555 1_555
N34_8 N33_8 1_555 1_555
N35_8 Ag18_8 1_555 1_555
N36_8 Ag16_8 1_555 1_555
N39_8 Ag20_8 1_555 1_555
N40_8 N39_8 1_555 1_555
C1_8 C2_8 1_555 1_555
C2_8 N1_8 1_555 1_555
C3_8 C2_8 1_555 1_555
C4_8 C3_8 1_555 1_555
C5_8 C4_8 1_555 1_555
C6_8 C7_8 1_555 1_555
C7_8 N61_5 1_555 1_555
C8_8 C7_8 1_555 1_555
C9_8 C8_8 1_555 1_555
C10_8 C9_8 1_555 1_555
C21_8 C22_8 1_555 1_555
C22_8 N9_8 1_555 1_555
C23_8 C22_8 1_555 1_555
C24_8 C23_8 1_555 1_555
C25_8 C24_8 1_555 1_555
C26_8 C27_8 1_555 1_555
C27_8 N65_5 1_555 1_555
C28_8 C27_8 1_555 1_555
C29_8 C28_8 1_555 1_555
C30_8 C29_8 1_555 1_555
C61_8 C62_8 1_555 1_555
C62_8 N25_8 1_555 1_555
C63_8 C3_8 1_555 1_555
C64_8 C63_8 1_555 1_555
C65_8 C64_8 1_555 1_555
C71_8 C72_8 1_555 1_555
C72_8 N29_8 1_555 1_555
C73_8 C28_8 1_555 1_555
C74_8 N30_8 1_555 1_555
C75_8 C74_8 1_555 1_555
C76_8 C77_8 1_555 1_555
C77_8 N31_8 1_555 1_555
C78_8 C23_8 1_555 1_555
C79_8 C78_8 1_555 1_555
C80_8 C79_8 1_555 1_555
C81_8 C82_8 1_555 1_555
C82_8 N33_8 1_555 1_555
C83_8 C82_8 1_555 1_555
C84_8 N34_8 1_555 1_555
C85_8 C84_8 1_555 1_555
C86_8 C87_8 1_555 1_555
C87_8 N35_8 1_555 1_555
C88_8 C8_8 1_555 1_555
C89_8 N36_8 1_555 1_555
C90_8 C89_8 1_555 1_555
C96_8 C97_8 1_555 1_555
C97_8 N39_8 1_555 1_555
C98_8 C83_8 1_555 1_555
C99_8 N40_8 1_555 1_555
C100_8 C99_8 1_555 1_555
H1_8 C1_8 1_555 1_555
H2_8 C1_8 1_555 1_555
H3_8 C1_8 1_555 1_555
H4_8 C5_8 1_555 1_555
H5_8 C5_8 1_555 1_555
H6_8 C5_8 1_555 1_555
H7_8 C6_8 1_555 1_555
H8_8 C6_8 1_555 1_555
H9_8 C6_8 1_555 1_555
H10_8 C10_8 1_555 1_555
H11_8 C10_8 1_555 1_555
H12_8 C10_8 1_555 1_555
H25_8 C21_8 1_555 1_555
H26_8 C21_8 1_555 1_555
H27_8 C21_8 1_555 1_555
H28_8 C25_8 1_555 1_555
H29_8 C25_8 1_555 1_555
H30_8 C25_8 1_555 1_555
H31_8 C26_8 1_555 1_555
H32_8 C26_8 1_555 1_555
H33_8 C26_8 1_555 1_555
H34_8 C30_8 1_555 1_555
H35_8 C30_8 1_555 1_555
H36_8 C30_8 1_555 1_555
H73_8 C61_8 1_555 1_555
H74_8 C61_8 1_555 1_555
H75_8 C61_8 1_555 1_555
H77_8 C65_8 1_555 1_555
H78_8 C65_8 1_555 1_555
H86_8 C71_8 1_555 1_555
H87_8 C71_8 1_555 1_555
H88_8 C75_8 1_555 1_555
H89_8 C75_8 1_555 1_555
H90_8 C75_8 1_555 1_555
H91_8 C76_8 1_555 1_555
H92_8 C76_8 1_555 1_555
H93_8 C76_8 1_555 1_555
H94_8 C80_8 1_555 1_555
H95_8 C80_8 1_555 1_555
H96_8 C80_8 1_555 1_555
H97_8 C81_8 1_555 1_555
H98_8 C81_8 1_555 1_555
H99_8 C81_8 1_555 1_555
H100_8 C85_8 1_555 1_555
H101_8 C85_8 1_555 1_555
H102_8 C85_8 1_555 1_555
H103_8 C86_8 1_555 1_555
H104_8 C86_8 1_555 1_555
H105_8 C86_8 1_555 1_555
H106_8 C90_8 1_555 1_555
H107_8 C90_8 1_555 1_555
H108_8 C90_8 1_555 1_555
H115_8 C96_8 1_555 1_555
H116_8 C96_8 1_555 1_555
H117_8 C96_8 1_555 1_555
H118_8 C100_8 1_555 1_555
H119_8 C100_8 1_555 1_555
H120_8 C100_8 1_555 1_555
Ag35_8 N9_8 1_555 1_555
N63_8 Ag1_8 1_555 1_555
N29_8 N30_8 1_555 1_555
N35_8 N36_8 1_555 1_555
C62_8 C63_8 1_555 1_555
C72_8 C73_8 1_555 1_555
C73_8 C74_8 1_555 1_555
C77_8 C78_8 1_555 1_555
C83_8 C84_8 1_555 1_555
C87_8 C88_8 1_555 1_555
C88_8 C89_8 1_555 1_555
C97_8 C98_8 1_555 1_555
C98_8 C99_8 1_555 1_555
Ag34_3 N7_8 1_555 1_555
Ag35_8 N8_8 1_555 1_555
Ag7_8 N13_8 1_555 1_555
Ag37_5 N14_8 1_555 1_555
Ag38_5 N17_8 1_555 1_555
Ag10_8 N19_8 1_555 1_555
Ag39_5 N20_8 1_555 1_555
Ag40_5 N23_8 1_555 1_555
Ag15_8 N28_8 1_555 1_555
Ag19_8 N37_8 1_555 1_555
Ag22_8 N43_8 1_555 1_555
Ag23_8 N44_8 1_555 1_555
Ag24_8 N46_8 1_555 1_555
Ag25_8 N49_8 1_555 1_555
Ag26_8 N50_8 1_555 1_555
Ag27_8 N52_8 1_555 1_555
Ag28_8 N55_8 1_555 1_555
Ag29_8 N56_8 1_555 1_555
Ag30_8 N58_8 1_555 1_555
N62_3 N63_8 1_555 1_555
N63_8 C14_8 1_555 1_555
N7_8 N8_8 1_555 1_555
N8_8 C19_8 1_555 1_555
N13_8 N14_8 1_555 1_555
N14_8 C34_8 1_555 1_555
N68_3 C39_8 1_555 1_555
N17_8 N18_8 1_555 1_555
N18_8 Ag7_8 1_555 1_555
N19_8 N20_8 1_555 1_555
N20_8 C49_8 1_555 1_555
N70_3 C54_8 1_555 1_555
N23_8 N24_8 1_555 1_555
N24_8 Ag10_8 1_555 1_555
N27_8 Ag14_8 1_555 1_555
N28_8 N27_8 1_555 1_555
N37_8 N38_8 1_555 1_555
N38_8 C94_8 1_555 1_555
N42_8 Ag19_8 1_555 1_555
N43_8 N44_8 1_555 1_555
N44_8 C109_8 1_555 1_555
N45_8 Ag23_8 1_555 1_555
N46_8 N45_8 1_555 1_555
N47_8 Ag24_8 1_555 1_555
N48_8 Ag22_8 1_555 1_555
N49_8 N50_8 1_555 1_555
N50_8 C124_8 1_555 1_555
N51_8 Ag26_8 1_555 1_555
N52_8 N51_8 1_555 1_555
N53_8 Ag27_8 1_555 1_555
N54_8 Ag25_8 1_555 1_555
N55_8 N56_8 1_555 1_555
N56_8 C139_8 1_555 1_555
N57_8 Ag29_8 1_555 1_555
N58_8 N57_8 1_555 1_555
N59_8 Ag30_8 1_555 1_555
N60_8 Ag28_8 1_555 1_555
C11_8 C12_8 1_555 1_555
C12_8 N62_3 1_555 1_555
C13_8 C12_8 1_555 1_555
C14_8 C13_8 1_555 1_555
C15_8 C14_8 1_555 1_555
C16_8 C17_8 1_555 1_555
C17_8 N7_8 1_555 1_555
C18_8 C17_8 1_555 1_555
C19_8 C18_8 1_555 1_555
C20_8 C19_8 1_555 1_555
C31_8 C32_8 1_555 1_555
C32_8 N13_8 1_555 1_555
C33_8 C32_8 1_555 1_555
C34_8 C33_8 1_555 1_555
C35_8 C34_8 1_555 1_555
C36_8 C37_8 1_555 1_555
C37_8 N67_3 1_555 1_555
C38_8 C33_8 1_555 1_555
C39_8 C38_8 1_555 1_555
C40_8 C39_8 1_555 1_555
C41_8 C42_8 1_555 1_555
C42_8 N17_8 1_555 1_555
C43_8 C42_8 1_555 1_555
C44_8 N18_8 1_555 1_555
C45_8 C44_8 1_555 1_555
C46_8 C47_8 1_555 1_555
C47_8 N19_8 1_555 1_555
C48_8 C47_8 1_555 1_555
C49_8 C48_8 1_555 1_555
C50_8 C49_8 1_555 1_555
C51_8 C52_8 1_555 1_555
C52_8 N69_3 1_555 1_555
C53_8 C48_8 1_555 1_555
C54_8 C53_8 1_555 1_555
C55_8 C54_8 1_555 1_555
C56_8 C57_8 1_555 1_555
C57_8 N23_8 1_555 1_555
C58_8 C57_8 1_555 1_555
C59_8 N24_8 1_555 1_555
C60_8 C59_8 1_555 1_555
C66_8 C67_8 1_555 1_555
C67_8 N27_8 1_555 1_555
C68_8 C67_8 1_555 1_555
C69_8 N28_8 1_555 1_555
C70_8 C69_8 1_555 1_555
C91_8 C92_8 1_555 1_555
C92_8 N37_8 1_555 1_555
C93_8 C92_8 1_555 1_555
C94_8 C93_8 1_555 1_555
C95_8 C94_8 1_555 1_555
C101_8 C102_8 1_555 1_555
C102_8 N41_8 1_555 1_555
C103_8 C102_8 1_555 1_555
C104_8 N42_8 1_555 1_555
C105_8 C104_8 1_555 1_555
C106_8 C107_8 1_555 1_555
C107_8 N43_8 1_555 1_555
C108_8 C107_8 1_555 1_555
C109_8 C108_8 1_555 1_555
C110_8 C109_8 1_555 1_555
C111_8 C112_8 1_555 1_555
C112_8 N45_8 1_555 1_555
C113_8 C93_8 1_555 1_555
C114_8 N46_8 1_555 1_555
C115_8 C114_8 1_555 1_555
C116_8 C117_8 1_555 1_555
C117_8 N47_8 1_555 1_555
C118_8 C68_8 1_555 1_555
C119_8 N48_8 1_555 1_555
C120_8 C119_8 1_555 1_555
C121_8 C122_8 1_555 1_555
C122_8 N49_8 1_555 1_555
C123_8 C43_8 1_555 1_555
C124_8 C123_8 1_555 1_555
C125_8 C124_8 1_555 1_555
C126_8 C127_8 1_555 1_555
C127_8 N51_8 1_555 1_555
C128_8 C108_8 1_555 1_555
C129_8 N52_8 1_555 1_555
C130_8 C129_8 1_555 1_555
C131_8 C132_8 1_555 1_555
C132_8 N53_8 1_555 1_555
C133_8 C13_8 1_555 1_555
C134_8 N54_8 1_555 1_555
C135_8 C134_8 1_555 1_555
C136_8 C137_8 1_555 1_555
C137_8 N55_8 1_555 1_555
C138_8 C103_8 1_555 1_555
C139_8 C138_8 1_555 1_555
C140_8 C139_8 1_555 1_555
C141_8 C142_8 1_555 1_555
C142_8 N57_8 1_555 1_555
C143_8 C18_8 1_555 1_555
C144_8 N58_8 1_555 1_555
C145_8 C144_8 1_555 1_555
C146_8 C147_8 1_555 1_555
C147_8 N59_8 1_555 1_555
C148_8 C58_8 1_555 1_555
C149_8 N60_8 1_555 1_555
C150_8 C149_8 1_555 1_555
H13_8 C11_8 1_555 1_555
H14_8 C11_8 1_555 1_555
H15_8 C11_8 1_555 1_555
H16_8 C15_8 1_555 1_555
H17_8 C15_8 1_555 1_555
H18_8 C15_8 1_555 1_555
H19_8 C16_8 1_555 1_555
H20_8 C16_8 1_555 1_555
H21_8 C16_8 1_555 1_555
H22_8 C20_8 1_555 1_555
H23_8 C20_8 1_555 1_555
H24_8 C20_8 1_555 1_555
H37_8 C31_8 1_555 1_555
H38_8 C31_8 1_555 1_555
H39_8 C31_8 1_555 1_555
H40_8 C35_8 1_555 1_555
H41_8 C35_8 1_555 1_555
H42_8 C35_8 1_555 1_555
H43_8 C36_8 1_555 1_555
H44_8 C36_8 1_555 1_555
H45_8 C36_8 1_555 1_555
H46_8 C40_8 1_555 1_555
H47_8 C40_8 1_555 1_555
H48_7 C40_8 1_555 1_555
H49_8 C41_8 1_555 1_555
H50_8 C41_8 1_555 1_555
H51_8 C41_8 1_555 1_555
H52_8 C45_8 1_555 1_555
H53_8 C45_8 1_555 1_555
H54_8 C45_8 1_555 1_555
H55_8 C46_8 1_555 1_555
H56_8 C46_8 1_555 1_555
H57_8 C46_8 1_555 1_555
H58_8 C50_8 1_555 1_555
H59_8 C50_8 1_555 1_555
H60_8 C50_8 1_555 1_555
H61_8 C51_8 1_555 1_555
H62_8 C51_8 1_555 1_555
H63_8 C51_8 1_555 1_555
H64_8 C55_8 1_555 1_555
H65_8 C55_8 1_555 1_555
H66_8 C55_8 1_555 1_555
H67_8 C56_8 1_555 1_555
H68_8 C56_8 1_555 1_555
H69_8 C56_8 1_555 1_555
H70_8 C60_8 1_555 1_555
H71_8 C60_8 1_555 1_555
H72_8 C60_8 1_555 1_555
H79_8 C66_8 1_555 1_555
H80_8 C66_8 1_555 1_555
H81_8 C66_8 1_555 1_555
H82_8 C70_8 1_555 1_555
H83_8 C70_8 1_555 1_555
H84_8 C70_8 1_555 1_555
H109_8 C91_8 1_555 1_555
H110_8 C91_8 1_555 1_555
H111_8 C91_8 1_555 1_555
H114_8 C95_8 1_555 1_555
H122_8 C101_8 1_555 1_555
H123_8 C101_8 1_555 1_555
H124_8 C105_8 1_555 1_555
H125_8 C105_8 1_555 1_555
H126_8 C105_8 1_555 1_555
H127_8 C106_8 1_555 1_555
H128_8 C106_8 1_555 1_555
H129_8 C106_8 1_555 1_555
H130_8 C110_8 1_555 1_555
H131_8 C110_8 1_555 1_555
H132_8 C110_8 1_555 1_555
H133_8 C111_8 1_555 1_555
H134_8 C111_8 1_555 1_555
H135_8 C111_8 1_555 1_555
H136_8 C115_8 1_555 1_555
H137_8 C115_8 1_555 1_555
H138_8 C115_8 1_555 1_555
H139_8 C116_8 1_555 1_555
H140_8 C116_8 1_555 1_555
H141_8 C116_8 1_555 1_555
H142_8 C120_8 1_555 1_555
H143_8 C120_8 1_555 1_555
H144_8 C120_8 1_555 1_555
H145_8 C121_8 1_555 1_555
H146_8 C121_8 1_555 1_555
H147_8 C121_8 1_555 1_555
H148_8 C125_8 1_555 1_555
H149_8 C125_8 1_555 1_555
H150_8 C125_8 1_555 1_555
H151_8 C126_8 1_555 1_555
H152_8 C126_8 1_555 1_555
H153_8 C126_8 1_555 1_555
H154_8 C130_8 1_555 1_555
H155_8 C130_8 1_555 1_555
H156_8 C130_8 1_555 1_555
H157_8 C131_8 1_555 1_555
H158_8 C131_8 1_555 1_555
H159_8 C131_8 1_555 1_555
H160_8 C135_8 1_555 1_555
H161_8 C135_8 1_555 1_555
H162_8 C135_8 1_555 1_555
H163_8 C136_8 1_555 1_555
H164_8 C136_8 1_555 1_555
H165_8 C136_8 1_555 1_555
H166_8 C140_8 1_555 1_555
H167_8 C140_8 1_555 1_555
H168_8 C140_8 1_555 1_555
H169_8 C141_8 1_555 1_555
H170_8 C141_8 1_555 1_555
H171_8 C141_8 1_555 1_555
H172_8 C145_8 1_555 1_555
H173_8 C145_8 1_555 1_555
H174_8 C145_8 1_555 1_555
H175_8 C146_8 1_555 1_555
H176_8 C146_8 1_555 1_555
H177_8 C146_8 1_555 1_555
H178_8 C150_8 1_555 1_555
H179_8 C150_8 1_555 1_555
H180_8 C150_8 1_555 1_555
N41_8 N42_8 1_555 1_555
N47_8 N48_8 1_555 1_555
N53_8 N54_8 1_555 1_555
N59_8 N60_8 1_555 1_555
C37_8 C38_8 1_555 1_555
C43_8 C44_8 1_555 1_555
C52_8 C53_8 1_555 1_555
C58_8 C59_8 1_555 1_555
C68_8 C69_8 1_555 1_555
C103_8 C104_8 1_555 1_555
C112_8 C113_8 1_555 1_555
C113_8 C114_8 1_555 1_555
C117_8 C118_8 1_555 1_555
C118_8 C119_8 1_555 1_555
C122_8 C123_8 1_555 1_555
C127_8 C128_8 1_555 1_555
C128_8 C129_8 1_555 1_555
C132_8 C133_8 1_555 1_555
C133_8 C134_8 1_555 1_555
C137_8 C138_8 1_555 1_555
C142_8 C143_8 1_555 1_555
C143_8 C144_8 1_555 1_555
C147_8 C148_8 1_555 1_555
C148_8 C149_8 1_555 1_555
Ag4_6 N7_9 1_555 1_555
Ag5 N8_9 1_555 1_555
Ag7_9 N13_9 1_555 1_555
Ag8_4 N14_9 1_555 1_555
Ag9_4 N17_9 1_555 1_555
Ag10_9 N19_9 1_555 1_555
Ag11_4 N20_9 1_555 1_555
Ag12_4 N23_9 1_555 1_555
Ag15_9 N28_9 1_555 1_555
Ag19_9 N37_9 1_555 1_555
Ag22_9 N43_9 1_555 1_555
Ag23_9 N44_9 1_555 1_555
Ag24_9 N46_9 1_555 1_555
Ag25_9 N49_9 1_555 1_555
Ag26_9 N50_9 1_555 1_555
Ag27_9 N52_9 1_555 1_555
Ag28_9 N55_9 1_555 1_555
Ag29_9 N56_9 1_555 1_555
Ag30_9 N58_9 1_555 1_555
N5_6 N6 1_555 1_555
N6 C14_9 1_555 1_555
N7_9 N8_9 1_555 1_555
N8_9 C19_9 1_555 1_555
N13_9 N14_9 1_555 1_555
N14_9 C34_9 1_555 1_555
N15_6 N16_6 1_555 1_555
N16_6 C39_9 1_555 1_555
N17_9 N18_9 1_555 1_555
N18_9 Ag7_9 1_555 1_555
N19_9 N20_9 1_555 1_555
N20_9 C49_9 1_555 1_555
N21_6 N22_6 1_555 1_555
N22_6 C54_9 1_555 1_555
N23_9 N24_9 1_555 1_555
N24_9 Ag10_9 1_555 1_555
N27_9 Ag14_9 1_555 1_555
N28_9 N27_9 1_555 1_555
N37_9 N38_9 1_555 1_555
N38_9 C94_9 1_555 1_555
N42_9 Ag19_9 1_555 1_555
N43_9 N44_9 1_555 1_555
N44_9 C109_9 1_555 1_555
N45_9 Ag23_9 1_555 1_555
N46_9 N45_9 1_555 1_555
N47_9 Ag24_9 1_555 1_555
N48_9 Ag22_9 1_555 1_555
N49_9 N50_9 1_555 1_555
N50_9 C124_9 1_555 1_555
N51_9 Ag26_9 1_555 1_555
N52_9 N51_9 1_555 1_555
N53_9 Ag27_9 1_555 1_555
N54_9 Ag25_9 1_555 1_555
N55_9 N56_9 1_555 1_555
N56_9 C139_9 1_555 1_555
N57_9 Ag29_9 1_555 1_555
N58_9 N57_9 1_555 1_555
N59_9 Ag30_9 1_555 1_555
N60_9 Ag28_9 1_555 1_555
C11_9 C12_9 1_555 1_555
C12_9 N5_6 1_555 1_555
C13_9 C12_9 1_555 1_555
C14_9 C13_9 1_555 1_555
C15_9 C14_9 1_555 1_555
C16_9 C17_9 1_555 1_555
C17_9 N7_9 1_555 1_555
C18_9 C17_9 1_555 1_555
C19_9 C18_9 1_555 1_555
C20_9 C19_9 1_555 1_555
C31_9 C32_9 1_555 1_555
C32_9 N13_9 1_555 1_555
C33_9 C32_9 1_555 1_555
C34_9 C33_9 1_555 1_555
C35_9 C34_9 1_555 1_555
C36_9 C37_9 1_555 1_555
C37_9 N15_6 1_555 1_555
C38_9 C33_9 1_555 1_555
C39_9 C38_9 1_555 1_555
C40_9 C39_9 1_555 1_555
C41_9 C42_9 1_555 1_555
C42_9 N17_9 1_555 1_555
C43_9 C42_9 1_555 1_555
C44_9 N18_9 1_555 1_555
C45_9 C44_9 1_555 1_555
C46_9 C47_9 1_555 1_555
C47_9 N19_9 1_555 1_555
C48_9 C47_9 1_555 1_555
C49_9 C48_9 1_555 1_555
C50_9 C49_9 1_555 1_555
C51_9 C52_9 1_555 1_555
C52_9 N21_6 1_555 1_555
C53_9 C48_9 1_555 1_555
C54_9 C53_9 1_555 1_555
C55_9 C54_9 1_555 1_555
C56_9 C57_9 1_555 1_555
C57_9 N23_9 1_555 1_555
C58_9 C57_9 1_555 1_555
C59_9 N24_9 1_555 1_555
C60_9 C59_9 1_555 1_555
C66_9 C67_9 1_555 1_555
C67_9 N27_9 1_555 1_555
C68_9 C67_9 1_555 1_555
C69_9 N28_9 1_555 1_555
C70_9 C69_9 1_555 1_555
C91_9 C92_9 1_555 1_555
C92_9 N37_9 1_555 1_555
C93_9 C92_9 1_555 1_555
C94_9 C93_9 1_555 1_555
C95_9 C94_9 1_555 1_555
C101_9 C102_9 1_555 1_555
C102_9 N41_9 1_555 1_555
C103_9 C102_9 1_555 1_555
C104_9 N42_9 1_555 1_555
C105_9 C104_9 1_555 1_555
C106_9 C107_9 1_555 1_555
C107_9 N43_9 1_555 1_555
C108_9 C107_9 1_555 1_555
C109_9 C108_9 1_555 1_555
C110_9 C109_9 1_555 1_555
C111_9 C112_9 1_555 1_555
C112_9 N45_9 1_555 1_555
C113_9 C93_9 1_555 1_555
C114_9 N46_9 1_555 1_555
C115_9 C114_9 1_555 1_555
C116_9 C117_9 1_555 1_555
C117_9 N47_9 1_555 1_555
C118_9 C68_9 1_555 1_555
C119_9 N48_9 1_555 1_555
C120_9 C119_9 1_555 1_555
C121_9 C122_9 1_555 1_555
C122_9 N49_9 1_555 1_555
C123_9 C43_9 1_555 1_555
C124_9 C123_9 1_555 1_555
C125_9 C124_9 1_555 1_555
C126_9 C127_9 1_555 1_555
C127_9 N51_9 1_555 1_555
C128_9 C108_9 1_555 1_555
C129_9 N52_9 1_555 1_555
C130_9 C129_9 1_555 1_555
C131_9 C132_9 1_555 1_555
C132_9 N53_9 1_555 1_555
C133_9 C13_9 1_555 1_555
C134_9 N54_9 1_555 1_555
C135_9 C134_9 1_555 1_555
C136_9 C137_9 1_555 1_555
C137_9 N55_9 1_555 1_555
C138_9 C103_9 1_555 1_555
C139_9 C138_9 1_555 1_555
C140_9 C139_9 1_555 1_555
C141_9 C142_9 1_555 1_555
C142_9 N57_9 1_555 1_555
C143_9 C18_9 1_555 1_555
C144_9 N58_9 1_555 1_555
C145_9 C144_9 1_555 1_555
C146_9 C147_9 1_555 1_555
C147_9 N59_9 1_555 1_555
C148_9 C58_9 1_555 1_555
C149_9 N60_9 1_555 1_555
C150_9 C149_9 1_555 1_555
H13_9 C11_9 1_555 1_555
H14_9 C11_9 1_555 1_555
H15_9 C11_9 1_555 1_555
H16_9 C15_9 1_555 1_555
H17_9 C15_9 1_555 1_555
H18_9 C15_9 1_555 1_555
H19_9 C16_9 1_555 1_555
H20_9 C16_9 1_555 1_555
H21_9 C16_9 1_555 1_555
H22_9 C20_9 1_555 1_555
H23_9 C20_9 1_555 1_555
H24_9 C20_9 1_555 1_555
H37_9 C31_9 1_555 1_555
H38_9 C31_9 1_555 1_555
H39_9 C31_9 1_555 1_555
H40_9 C35_9 1_555 1_555
H41_9 C35_9 1_555 1_555
H42_9 C35_9 1_555 1_555
H43_9 C36_9 1_555 1_555
H44_9 C36_9 1_555 1_555
H45_9 C36_9 1_555 1_555
H46_9 C40_9 1_555 1_555
H47_9 C40_9 1_555 1_555
H48_9 C40_9 1_555 1_555
H49_9 C41_9 1_555 1_555
H50_9 C41_9 1_555 1_555
H51_9 C41_9 1_555 1_555
H52_9 C45_9 1_555 1_555
H53_9 C45_9 1_555 1_555
H54_9 C45_9 1_555 1_555
H55_9 C46_9 1_555 1_555
H56_9 C46_9 1_555 1_555
H57_9 C46_9 1_555 1_555
H58_9 C50_9 1_555 1_555
H59_9 C50_9 1_555 1_555
H60_9 C50_9 1_555 1_555
H61_9 C51_9 1_555 1_555
H62_9 C51_9 1_555 1_555
H63_9 C51_9 1_555 1_555
H64_9 C55_9 1_555 1_555
H65_9 C55_9 1_555 1_555
H66_9 C55_9 1_555 1_555
H67_9 C56_9 1_555 1_555
H68_9 C56_9 1_555 1_555
H69_9 C56_9 1_555 1_555
H70_9 C60_9 1_555 1_555
H71_9 C60_9 1_555 1_555
H72_9 C60_9 1_555 1_555
H79_9 C66_9 1_555 1_555
H80_9 C66_9 1_555 1_555
H81_9 C66_9 1_555 1_555
H82_9 C70_9 1_555 1_555
H83_9 C70_9 1_555 1_555
H84_9 C70_9 1_555 1_555
H109_9 C91_9 1_555 1_555
H110_9 C91_9 1_555 1_555
H111_9 C91_9 1_555 1_555
H114_9 C95_9 1_555 1_555
H122_9 C101_9 1_555 1_555
H123_9 C101_9 1_555 1_555
H124_9 C105_9 1_555 1_555
H125_9 C105_9 1_555 1_555
H126_9 C105_9 1_555 1_555
H127_9 C106_9 1_555 1_555
H128_9 C106_9 1_555 1_555
H129_9 C106_9 1_555 1_555
H130_9 C110_9 1_555 1_555
H131_9 C110_9 1_555 1_555
H132_9 C110_9 1_555 1_555
H133_9 C111_9 1_555 1_555
H134_9 C111_9 1_555 1_555
H135_9 C111_9 1_555 1_555
H136_9 C115_9 1_555 1_555
H137_9 C115_9 1_555 1_555
H138_9 C115_9 1_555 1_555
H139_9 C116_9 1_555 1_555
H140_9 C116_9 1_555 1_555
H141_9 C116_9 1_555 1_555
H142_9 C120_9 1_555 1_555
H143_9 C120_9 1_555 1_555
H144_9 C120_9 1_555 1_555
H145_9 C121_9 1_555 1_555
H146_9 C121_9 1_555 1_555
H147_9 C121_9 1_555 1_555
H148_9 C125_9 1_555 1_555
H149_9 C125_9 1_555 1_555
H150_9 C125_9 1_555 1_555
H151_9 C126_9 1_555 1_555
H152_9 C126_9 1_555 1_555
H153_9 C126_9 1_555 1_555
H154_9 C130_9 1_555 1_555
H155_9 C130_9 1_555 1_555
H156_9 C130_9 1_555 1_555
H157_9 C131_9 1_555 1_555
H158_9 C131_9 1_555 1_555
H159_9 C131_9 1_555 1_555
H160_9 C135_9 1_555 1_555
H161_9 C135_9 1_555 1_555
H162_9 C135_9 1_555 1_555
H163_9 C136_9 1_555 1_555
H164_9 C136_9 1_555 1_555
H165_9 C136_9 1_555 1_555
H166_9 C140_9 1_555 1_555
H167_9 C140_9 1_555 1_555
H168_9 C140_9 1_555 1_555
H169_9 C141_9 1_555 1_555
H170_9 C141_9 1_555 1_555
H171_9 C141_9 1_555 1_555
H172_9 C145_9 1_555 1_555
H173_9 C145_9 1_555 1_555
H174_9 C145_9 1_555 1_555
H175_9 C146_9 1_555 1_555
H176_9 C146_9 1_555 1_555
H177_9 C146_9 1_555 1_555
H178_9 C150_9 1_555 1_555
H179_9 C150_9 1_555 1_555
H180_9 C150_9 1_555 1_555
Ag31 N6 1_555 1_555
Ag33_6 N5_6 1_555 1_555
Ag37_6 N15_6 1_555 1_555
Ag38_6 N16_6 1_555 1_555
Ag40_6 N22_6 1_555 1_555
N64 Ag5 1_555 1_555
N66_6 Ag4_6 1_555 1_555
N67_4 Ag8_4 1_555 1_555
N68_4 Ag9_4 1_555 1_555
N69_4 Ag11_4 1_555 1_555
N70_4 Ag12_4 1_555 1_555
N41_9 N42_9 1_555 1_555
N47_9 N48_9 1_555 1_555
N53_9 N54_9 1_555 1_555
N59_9 N60_9 1_555 1_555
C37_9 C38_9 1_555 1_555
C43_9 C44_9 1_555 1_555
C52_9 C53_9 1_555 1_555
C58_9 C59_9 1_555 1_555
C68_9 C69_9 1_555 1_555
C103_9 C104_9 1_555 1_555
C112_9 C113_9 1_555 1_555
C113_9 C114_9 1_555 1_555
C117_9 C118_9 1_555 1_555
C118_9 C119_9 1_555 1_555
C122_9 C123_9 1_555 1_555
C127_9 C128_9 1_555 1_555
C128_9 C129_9 1_555 1_555
C132_9 C133_9 1_555 1_555
C133_9 C134_9 1_555 1_555
C137_9 C138_9 1_555 1_555
C142_9 C143_9 1_555 1_555
C143_9 C144_9 1_555 1_555
C147_9 C148_9 1_555 1_555
C148_9 C149_9 1_555 1_555
N67_4 N68_4 1_555 1_555
N69_4 N70_4 1_555 1_555
Ag31 N1_9 1_555 1_555
Ag2_6 N2_9 1_555 1_555
Ag3_4 N4_9 1_555 1_555
Ag6_6 N10_9 1_555 1_555
Ag13_9 N25_9 1_555 1_555
Ag16_9 N31_9 1_555 1_555
Ag17_9 N32_9 1_555 1_555
Ag18_9 N34_9 1_555 1_555
Ag21_9 N40_9 1_555 1_555
N1_9 N2_9 1_555 1_555
N2_9 C4_9 1_555 1_555
N3_4 N4_9 1_555 1_555
N4_9 C9_9 1_555 1_555
N64 N10_9 1_555 1_555
N10_9 C24_9 1_555 1_555
N25_9 N26_9 1_555 1_555
N26_9 C64_9 1_555 1_555
N30_9 Ag13_9 1_555 1_555
N31_9 N32_9 1_555 1_555
N32_9 C79_9 1_555 1_555
N33_9 Ag17_9 1_555 1_555
N34_9 N33_9 1_555 1_555
N35_9 Ag18_9 1_555 1_555
N36_9 Ag16_9 1_555 1_555
N39_9 Ag20_9 1_555 1_555
N40_9 N39_9 1_555 1_555
C1_9 C2_9 1_555 1_555
C2_9 N1_9 1_555 1_555
C3_9 C2_9 1_555 1_555
C4_9 C3_9 1_555 1_555
C5_9 C4_9 1_555 1_555
C6_9 C7_9 1_555 1_555
C7_9 N3_4 1_555 1_555
C8_9 C7_9 1_555 1_555
C9_9 C8_9 1_555 1_555
C10_9 C9_9 1_555 1_555
C21_9 C22_9 1_555 1_555
C22_9 N64 1_555 1_555
C23_9 C22_9 1_555 1_555
C24_9 C23_9 1_555 1_555
C25_9 C24_9 1_555 1_555
C29_9 C28_9 1_555 1_555
C30_9 C29_9 1_555 1_555
C61_9 C62_9 1_555 1_555
C62_9 N25_9 1_555 1_555
C63_9 C3_9 1_555 1_555
C64_9 C63_9 1_555 1_555
C65_9 C64_9 1_555 1_555
C71_9 C72_9 1_555 1_555
C72_9 N29_9 1_555 1_555
C73_9 C28_9 1_555 1_555
C74_9 N30_9 1_555 1_555
C75_9 C74_9 1_555 1_555
C76_9 C77_9 1_555 1_555
C77_9 N31_9 1_555 1_555
C78_9 C23_9 1_555 1_555
C79_9 C78_9 1_555 1_555
C80_9 C79_9 1_555 1_555
C81_9 C82_9 1_555 1_555
C82_9 N33_9 1_555 1_555
C83_9 C82_9 1_555 1_555
C84_9 N34_9 1_555 1_555
C85_9 C84_9 1_555 1_555
C86_9 C87_9 1_555 1_555
C87_9 N35_9 1_555 1_555
C88_9 C8_9 1_555 1_555
C89_9 N36_9 1_555 1_555
C90_9 C89_9 1_555 1_555
C96_9 C97_9 1_555 1_555
C97_9 N39_9 1_555 1_555
C98_9 C83_9 1_555 1_555
C99_9 N40_9 1_555 1_555
C100_9 C99_9 1_555 1_555
H1_9 C1_9 1_555 1_555
H2_9 C1_9 1_555 1_555
H3_9 C1_9 1_555 1_555
H4_9 C5_9 1_555 1_555
H5_9 C5_9 1_555 1_555
H6_9 C5_9 1_555 1_555
H7_9 C6_9 1_555 1_555
H8_9 C6_9 1_555 1_555
H9_9 C6_9 1_555 1_555
H10_9 C10_9 1_555 1_555
H11_9 C10_9 1_555 1_555
H12_9 C10_9 1_555 1_555
H25_9 C21_9 1_555 1_555
H26_9 C21_9 1_555 1_555
H27_9 C21_9 1_555 1_555
H28_9 C25_9 1_555 1_555
H29_9 C25_9 1_555 1_555
H30_9 C25_9 1_555 1_555
H34_9 C30_9 1_555 1_555
H35_9 C30_9 1_555 1_555
H36_9 C30_9 1_555 1_555
H73_9 C61_9 1_555 1_555
H74_9 C61_9 1_555 1_555
H75_9 C61_9 1_555 1_555
H77_9 C65_9 1_555 1_555
H78_9 C65_9 1_555 1_555
H86_9 C71_9 1_555 1_555
H87_9 C71_9 1_555 1_555
H88_9 C75_9 1_555 1_555
H89_9 C75_9 1_555 1_555
H90_9 C75_9 1_555 1_555
H91_9 C76_9 1_555 1_555
H92_9 C76_9 1_555 1_555
H93_9 C76_9 1_555 1_555
H94_9 C80_9 1_555 1_555
H95_9 C80_9 1_555 1_555
H96_9 C80_9 1_555 1_555
H97_9 C81_9 1_555 1_555
H98_9 C81_9 1_555 1_555
H99_9 C81_9 1_555 1_555
H100_9 C85_9 1_555 1_555
H101_9 C85_9 1_555 1_555
H102_9 C85_9 1_555 1_555
H103_9 C86_9 1_555 1_555
H104_9 C86_9 1_555 1_555
H105_9 C86_9 1_555 1_555
H106_9 C90_9 1_555 1_555
H107_9 C90_9 1_555 1_555
H108_9 C90_9 1_555 1_555
H115_9 C96_9 1_555 1_555
H116_9 C96_9 1_555 1_555
H117_9 C96_9 1_555 1_555
H118_9 C100_9 1_555 1_555
H119_9 C100_9 1_555 1_555
H120_9 C100_9 1_555 1_555
N61_6 Ag2_6 1_555 1_555
N62_4 Ag3_4 1_555 1_555
N65_6 Ag6_6 1_555 1_555
N29_9 N30_9 1_555 1_555
N35_9 N36_9 1_555 1_555
C62_9 C63_9 1_555 1_555
C72_9 C73_9 1_555 1_555
C73_9 C74_9 1_555 1_555
C77_9 C78_9 1_555 1_555
C83_9 C84_9 1_555 1_555
C87_9 C88_9 1_555 1_555
C88_9 C89_9 1_555 1_555
C97_9 C98_9 1_555 1_555
C98_9 C99_9 1_555 1_555
N11_4 N12_4 1_555 1_555
C26_9 C27_9 1_555 1_555
C27_9 N11_4 1_555 1_555
H31_9 C26_9 1_555 1_555
H32_9 C26_9 1_555 1_555
H33_9 C26_9 1_555 1_555
Ag34_4 N12_4 1_555 1_555
Ag36_4 N11_4 1_555 1_555
Ag40_6 N23_10 1_555 1_555
N6_2 C14_10 1_555 1_555
N43_10 N44_10 1_555 1_555
N44_10 C109_10 1_555 1_555
N60_10 Ag28_10 1_555 1_555
C15_10 C14_10 1_555 1_555
C56_10 C57_10 1_555 1_555
C57_10 N23_10 1_555 1_555
C58_10 C57_10 1_555 1_555
C106_10 C107_10 1_555 1_555
C107_10 N43_10 1_555 1_555
C108_10 C107_10 1_555 1_555
C109_10 C108_10 1_555 1_555
C110_10 C109_10 1_555 1_555
C128_10 C108_10 1_555 1_555
C130_10 C129_10 1_555 1_555
C131_10 C132_10 1_555 1_555
C147_10 N59_10 1_555 1_555
C148_10 C58_10 1_555 1_555
C149_10 N60_10 1_555 1_555
C150_10 C149_10 1_555 1_555
H16_10 C15_10 1_555 1_555
H17_10 C15_10 1_555 1_555
H18_10 C15_10 1_555 1_555
H67_10 C56_10 1_555 1_555
H68_10 C56_10 1_555 1_555
H69_10 C56_10 1_555 1_555
H127_10 C106_10 1_555 1_555
H128_10 C106_10 1_555 1_555
H129_10 C106_10 1_555 1_555
H130_10 C110_10 1_555 1_555
H132_10 C110_10 1_555 1_555
H154_10 C130_10 1_555 1_555
H155_10 C130_10 1_555 1_555
H156_10 C130_10 1_555 1_555
H157_10 C131_10 1_555 1_555
H158_10 C131_10 1_555 1_555
H159_10 C131_10 1_555 1_555
H178_10 C150_10 1_555 1_555
H179_10 C150_10 1_555 1_555
H180_10 C150_10 1_555 1_555
Ag31_2 N6_2 1_555 1_555
N59_10 N60_10 1_555 1_555
C128_10 C129_10 1_555 1_555
C147_10 C148_10 1_555 1_555
C148_10 C149_10 1_555 1_555
Ag31_2 N1_10 1_555 1_555
Ag2_7 N2_10 1_555 1_555
Ag13_10 N25_10 1_555 1_555
Ag14_10 N26_10 1_555 1_555
Ag15_10 N28_10 1_555 1_555
Ag19_10 N37_10 1_555 1_555
Ag20_10 N38_10 1_555 1_555
Ag24_10 N46_10 1_555 1_555
N1_10 N2_10 1_555 1_555
N2_10 C4_10 1_555 1_555
N65_6 N66_6 1_555 1_555
N66_6 C29_10 1_555 1_555
N25_10 N26_10 1_555 1_555
N26_10 C64_10 1_555 1_555
N27_10 Ag14_10 1_555 1_555
N28_10 N27_10 1_555 1_555
N29_10 Ag15_10 1_555 1_555
N30_10 Ag13_10 1_555 1_555
N37_10 N38_10 1_555 1_555
N38_10 C94_10 1_555 1_555
N42_10 Ag19_10 1_555 1_555
N45_10 Ag23_10 1_555 1_555
N46_10 N45_10 1_555 1_555
N47_10 Ag24_10 1_555 1_555
N48_10 Ag22_10 1_555 1_555
C1_10 C2_10 1_555 1_555
C2_10 N1_10 1_555 1_555
C3_10 C2_10 1_555 1_555
C4_10 C3_10 1_555 1_555
C5_10 C4_10 1_555 1_555
C26_10 C27_10 1_555 1_555
C27_10 N65_6 1_555 1_555
C28_10 C27_10 1_555 1_555
C29_10 C28_10 1_555 1_555
C30_10 C29_10 1_555 1_555
C61_10 C62_10 1_555 1_555
C62_10 N25_10 1_555 1_555
C63_10 C3_10 1_555 1_555
C64_10 C63_10 1_555 1_555
C65_10 C64_10 1_555 1_555
C66_10 C67_10 1_555 1_555
C67_10 N27_10 1_555 1_555
C68_10 C67_10 1_555 1_555
C69_10 N28_10 1_555 1_555
C70_10 C69_10 1_555 1_555
C71_10 C72_10 1_555 1_555
C72_10 N29_10 1_555 1_555
C73_10 C28_10 1_555 1_555
C74_10 N30_10 1_555 1_555
C75_10 C74_10 1_555 1_555
C91_10 C92_10 1_555 1_555
C92_10 N37_10 1_555 1_555
C93_10 C92_10 1_555 1_555
C94_10 C93_10 1_555 1_555
C95_10 C94_10 1_555 1_555
C104_10 N42_10 1_555 1_555
C105_10 C104_10 1_555 1_555
C111_10 C112_10 1_555 1_555
C112_10 N45_10 1_555 1_555
C113_10 C93_10 1_555 1_555
C114_10 N46_10 1_555 1_555
C115_10 C114_10 1_555 1_555
C116_10 C117_10 1_555 1_555
C117_10 N47_10 1_555 1_555
C118_10 C68_10 1_555 1_555
C119_10 N48_10 1_555 1_555
C120_10 C119_10 1_555 1_555
C136_10 C137_10 1_555 1_555
C137_10 N55_10 1_555 1_555
H1_10 C1_10 1_555 1_555
H2_10 C1_10 1_555 1_555
H3_10 C1_10 1_555 1_555
H4_10 C5_10 1_555 1_555
H5_10 C5_10 1_555 1_555
H6_10 C5_10 1_555 1_555
H31_10 C26_10 1_555 1_555
H32_10 C26_10 1_555 1_555
H33_10 C26_10 1_555 1_555
H34_10 C30_10 1_555 1_555
H35_10 C30_10 1_555 1_555
H36_10 C30_10 1_555 1_555
H73_10 C61_10 1_555 1_555
H74_10 C61_10 1_555 1_555
H75_10 C61_10 1_555 1_555
H76_10 C65_10 1_555 1_555
H77_10 C65_10 1_555 1_555
H78_10 C65_10 1_555 1_555
H79_10 C66_10 1_555 1_555
H80_10 C66_10 1_555 1_555
H81_10 C66_10 1_555 1_555
H82_10 C70_10 1_555 1_555
H83_10 C70_10 1_555 1_555
H84_10 C70_10 1_555 1_555
H85_10 C71_10 1_555 1_555
H86_10 C71_10 1_555 1_555
H87_10 C71_10 1_555 1_555
H88_10 C75_10 1_555 1_555
H89_10 C75_10 1_555 1_555
H90_10 C75_10 1_555 1_555
H109_10 C91_10 1_555 1_555
H110_10 C91_10 1_555 1_555
H111_10 C91_10 1_555 1_555
H112_10 C95_10 1_555 1_555
H113_10 C95_10 1_555 1_555
H114_10 C95_10 1_555 1_555
H124_10 C105_10 1_555 1_555
H125_10 C105_10 1_555 1_555
H126_10 C105_10 1_555 1_555
H133_10 C111_10 1_555 1_555
H134_10 C111_10 1_555 1_555
H135_10 C111_10 1_555 1_555
H136_10 C115_10 1_555 1_555
H137_10 C115_10 1_555 1_555
H138_10 C115_10 1_555 1_555
H139_10 C116_10 1_555 1_555
H140_10 C116_10 1_555 1_555
H141_10 C116_10 1_555 1_555
H142_10 C120_10 1_555 1_555
H143_10 C120_10 1_555 1_555
H144_10 C120_10 1_555 1_555
H163_10 C136_10 1_555 1_555
H164_10 C136_10 1_555 1_555
H165_10 C136_10 1_555 1_555
N61_7 Ag2_7 1_555 1_555
N29_10 N30_10 1_555 1_555
N47_10 N48_10 1_555 1_555
C62_10 C63_10 1_555 1_555
C68_10 C69_10 1_555 1_555
C72_10 C73_10 1_555 1_555
C73_10 C74_10 1_555 1_555
C103_10 C104_10 1_555 1_555
C112_10 C113_10 1_555 1_555
C113_10 C114_10 1_555 1_555
C117_10 C118_10 1_555 1_555
C118_10 C119_10 1_555 1_555
Ag10_10 N19_10 1_555 1_555
Ag39_6 N20_10 1_555 1_555
N19_10 N20_10 1_555 1_555
N20_10 C49_10 1_555 1_555
N21_7 N22_7 1_555 1_555
N22_7 C54_10 1_555 1_555
N24_10 Ag10_10 1_555 1_555
C46_10 C47_10 1_555 1_555
C47_10 N19_10 1_555 1_555
C48_10 C47_10 1_555 1_555
C49_10 C48_10 1_555 1_555
C50_10 C49_10 1_555 1_555
C51_10 C52_10 1_555 1_555
C52_10 N21_7 1_555 1_555
C53_10 C48_10 1_555 1_555
C54_10 C53_10 1_555 1_555
C55_10 C54_10 1_555 1_555
C59_10 N24_10 1_555 1_555
C60_10 C59_10 1_555 1_555
H55_10 C46_10 1_555 1_555
H56_10 C46_10 1_555 1_555
H57_10 C46_10 1_555 1_555
H58_10 C50_10 1_555 1_555
H59_10 C50_10 1_555 1_555
H60_10 C50_10 1_555 1_555
H61_10 C51_10 1_555 1_555
H62_10 C51_10 1_555 1_555
H63_10 C51_10 1_555 1_555
H64_10 C55_10 1_555 1_555
H65_10 C55_10 1_555 1_555
H66_10 C55_10 1_555 1_555
H70_10 C60_10 1_555 1_555
H71_10 C60_10 1_555 1_555
H72_10 C60_10 1_555 1_555
H175_10 C146_10 1_555 1_555
H176_10 C146_10 1_555 1_555
Ag40_7 N22_7 1_555 1_555
C52_10 C53_10 1_555 1_555
Ag4_7 N7_10 1_555 1_555
Ag5_2 N8_10 1_555 1_555
Ag7_10 N13_10 1_555 1_555
Ag37_6 N14_10 1_555 1_555
Ag38_6 N17_10 1_555 1_555
Ag25_10 N49_10 1_555 1_555
Ag26_10 N50_10 1_555 1_555
Ag27_10 N52_10 1_555 1_555
Ag30_10 N58_10 1_555 1_555
N7_10 N8_10 1_555 1_555
N8_10 C19_10 1_555 1_555
N13_10 N14_10 1_555 1_555
N17_10 N18_10 1_555 1_555
N18_10 Ag7_10 1_555 1_555
N49_10 N50_10 1_555 1_555
N50_10 C124_10 1_555 1_555
N51_10 Ag26_10 1_555 1_555
N52_10 N51_10 1_555 1_555
N53_10 Ag27_10 1_555 1_555
N54_10 Ag25_10 1_555 1_555
N58_10 N57_10 1_555 1_555
C11_10 C12_10 1_555 1_555
C12_10 N5_7 1_555 1_555
C13_10 C12_10 1_555 1_555
C17_10 N7_10 1_555 1_555
C18_10 C17_10 1_555 1_555
C19_10 C18_10 1_555 1_555
C20_10 C19_10 1_555 1_555
C41_10 C42_10 1_555 1_555
C42_10 N17_10 1_555 1_555
C43_10 C42_10 1_555 1_555
C44_10 N18_10 1_555 1_555
C45_10 C44_10 1_555 1_555
C121_10 C122_10 1_555 1_555
C122_10 N49_10 1_555 1_555
C123_10 C43_10 1_555 1_555
C124_10 C123_10 1_555 1_555
C125_10 C124_10 1_555 1_555
C126_10 C127_10 1_555 1_555
C127_10 N51_10 1_555 1_555
C133_10 C13_10 1_555 1_555
C134_10 N54_10 1_555 1_555
C135_10 C134_10 1_555 1_555
C141_10 C142_10 1_555 1_555
C142_10 N57_10 1_555 1_555
C143_10 C18_10 1_555 1_555
C144_10 N58_10 1_555 1_555
C145_10 C144_10 1_555 1_555
H13_10 C11_10 1_555 1_555
H14_10 C11_10 1_555 1_555
H15_10 C11_10 1_555 1_555
H22_10 C20_10 1_555 1_555
H23_10 C20_10 1_555 1_555
H24_10 C20_10 1_555 1_555
H49_10 C41_10 1_555 1_555
H50_10 C41_10 1_555 1_555
H51_10 C41_10 1_555 1_555
H52_10 C45_10 1_555 1_555
H53_10 C45_10 1_555 1_555
H54_10 C45_10 1_555 1_555
H145_10 C121_10 1_555 1_555
H146_10 C121_10 1_555 1_555
H147_10 C121_10 1_555 1_555
H148_10 C125_10 1_555 1_555
H149_10 C125_10 1_555 1_555
H150_10 C125_10 1_555 1_555
H151_10 C126_10 1_555 1_555
H152_10 C126_10 1_555 1_555
H153_10 C126_10 1_555 1_555
H160_10 C135_10 1_555 1_555
H161_10 C135_10 1_555 1_555
H162_10 C135_10 1_555 1_555
H169_10 C141_10 1_555 1_555
H170_10 C141_10 1_555 1_555
H171_10 C141_10 1_555 1_555
H173_10 C145_10 1_555 1_555
N64_2 Ag5_2 1_555 1_555
N66_7 Ag4_7 1_555 1_555
N53_10 N54_10 1_555 1_555
C43_10 C44_10 1_555 1_555
C122_10 C123_10 1_555 1_555
C133_10 C134_10 1_555 1_555
C142_10 C143_10 1_555 1_555
C143_10 C144_10 1_555 1_555
Ag33_6 N4_10 1_555 1_555
Ag6_7 N10_10 1_555 1_555
Ag16_10 N31_10 1_555 1_555
Ag17_10 N32_10 1_555 1_555
Ag18_10 N34_10 1_555 1_555
Ag21_10 N40_10 1_555 1_555
Ag29_10 N56_10 1_555 1_555
N61_6 N4_10 1_555 1_555
N4_10 C9_10 1_555 1_555
N64_2 N10_10 1_555 1_555
N10_10 C24_10 1_555 1_555
N15_7 N16_7 1_555 1_555
N16_7 C39_10 1_555 1_555
N31_10 N32_10 1_555 1_555
N32_10 C79_10 1_555 1_555
N33_10 Ag17_10 1_555 1_555
N34_10 N33_10 1_555 1_555
N35_10 Ag18_10 1_555 1_555
N36_10 Ag16_10 1_555 1_555
N40_10 N39_10 1_555 1_555
N41_10 Ag21_10 1_555 1_555
N56_10 C139_10 1_555 1_555
C6_10 C7_10 1_555 1_555
C7_10 N61_6 1_555 1_555
C8_10 C7_10 1_555 1_555
C9_10 C8_10 1_555 1_555
C10_10 C9_10 1_555 1_555
C21_10 C22_10 1_555 1_555
C22_10 N64_2 1_555 1_555
C23_10 C22_10 1_555 1_555
C24_10 C23_10 1_555 1_555
C25_10 C24_10 1_555 1_555
C31_10 C32_10 1_555 1_555
C33_10 C32_10 1_555 1_555
C34_10 C33_10 1_555 1_555
C35_10 C34_10 1_555 1_555
C36_10 C37_10 1_555 1_555
C37_10 N15_7 1_555 1_555
C38_10 C33_10 1_555 1_555
C39_10 C38_10 1_555 1_555
C40_10 C39_10 1_555 1_555
C76_10 C77_10 1_555 1_555
C77_10 N31_10 1_555 1_555
C78_10 C23_10 1_555 1_555
C79_10 C78_10 1_555 1_555
C80_10 C79_10 1_555 1_555
C81_10 C82_10 1_555 1_555
C82_10 N33_10 1_555 1_555
C83_10 C82_10 1_555 1_555
C84_10 N34_10 1_555 1_555
C85_10 C84_10 1_555 1_555
C86_10 C87_10 1_555 1_555
C87_10 N35_10 1_555 1_555
C88_10 C8_10 1_555 1_555
C89_10 N36_10 1_555 1_555
C90_10 C89_10 1_555 1_555
C96_10 C97_10 1_555 1_555
C97_10 N39_10 1_555 1_555
C98_10 C83_10 1_555 1_555
C99_10 N40_10 1_555 1_555
C100_10 C99_10 1_555 1_555
C101_10 C102_10 1_555 1_555
C102_10 N41_10 1_555 1_555
C139_10 C138_10 1_555 1_555
C140_10 C139_10 1_555 1_555
H7_10 C6_10 1_555 1_555
H8_10 C6_10 1_555 1_555
H9_10 C6_10 1_555 1_555
H10_10 C10_10 1_555 1_555
H11_10 C10_10 1_555 1_555
H12_10 C10_10 1_555 1_555
H25_10 C21_10 1_555 1_555
H26_10 C21_10 1_555 1_555
H27_10 C21_10 1_555 1_555
H28_10 C25_10 1_555 1_555
H29_10 C25_10 1_555 1_555
H30_10 C25_10 1_555 1_555
H37_10 C31_10 1_555 1_555
H38_10 C31_10 1_555 1_555
H39_10 C31_10 1_555 1_555
H40_10 C35_10 1_555 1_555
H41_10 C35_10 1_555 1_555
H42_10 C35_10 1_555 1_555
H43_10 C36_10 1_555 1_555
H44_10 C36_10 1_555 1_555
H45_10 C36_10 1_555 1_555
H46_10 C40_10 1_555 1_555
H47_10 C40_10 1_555 1_555
H91_10 C76_10 1_555 1_555
H92_10 C76_10 1_555 1_555
H93_10 C76_10 1_555 1_555
H94_10 C80_10 1_555 1_555
H95_10 C80_10 1_555 1_555
H96_10 C80_10 1_555 1_555
H97_10 C81_10 1_555 1_555
H98_10 C81_10 1_555 1_555
H99_10 C81_10 1_555 1_555
H100_10 C85_10 1_555 1_555
H101_10 C85_10 1_555 1_555
H102_10 C85_10 1_555 1_555
H103_10 C86_10 1_555 1_555
H104_10 C86_10 1_555 1_555
H105_10 C86_10 1_555 1_555
H106_10 C90_10 1_555 1_555
H107_10 C90_10 1_555 1_555
H108_10 C90_10 1_555 1_555
H115_10 C96_10 1_555 1_555
H116_10 C96_10 1_555 1_555
H117_10 C96_10 1_555 1_555
H118_10 C100_10 1_555 1_555
H119_10 C100_10 1_555 1_555
H120_10 C100_10 1_555 1_555
H121_10 C101_10 1_555 1_555
H122_10 C101_10 1_555 1_555
H123_10 C101_10 1_555 1_555
H166_10 C140_10 1_555 1_555
H167_10 C140_10 1_555 1_555
H168_10 C140_10 1_555 1_555
Ag37_7 N15_7 1_555 1_555
Ag38_7 N16_7 1_555 1_555
N65_7 Ag6_7 1_555 1_555
N35_10 N36_10 1_555 1_555
C37_10 C38_10 1_555 1_555
C77_10 C78_10 1_555 1_555
C83_10 C84_10 1_555 1_555
C87_10 C88_10 1_555 1_555
C88_10 C89_10 1_555 1_555
C97_10 C98_10 1_555 1_555
C98_10 C99_10 1_555 1_555
N66_8 Ag4_8 1_555 1_555
Ag33_7 N4_11 1_555 1_555
Ag5_3 N8_11 1_555 1_555
Ag6_8 N10_11 1_555 1_555
Ag10_11 N19_11 1_555 1_555
Ag39_7 N20_11 1_555 1_555
Ag16_11 N31_11 1_555 1_555
Ag17_11 N32_11 1_555 1_555
Ag18_11 N34_11 1_555 1_555
Ag19_11 N37_11 1_555 1_555
Ag20_11 N38_11 1_555 1_555
Ag21_11 N40_11 1_555 1_555
Ag28_11 N55_11 1_555 1_555
Ag29_11 N56_11 1_555 1_555
Ag30_11 N58_11 1_555 1_555
N61_7 N4_11 1_555 1_555
N4_11 C9_11 1_555 1_555
N7_11 N8_11 1_555 1_555
N8_11 C19_11 1_555 1_555
N64_3 N10_11 1_555 1_555
N10_11 C24_11 1_555 1_555
N19_11 N20_11 1_555 1_555
N20_11 C49_11 1_555 1_555
N21_8 N22_8 1_555 1_555
N22_8 C54_11 1_555 1_555
N23_11 N24_11 1_555 1_555
N24_11 Ag10_11 1_555 1_555
N31_11 N32_11 1_555 1_555
N32_11 C79_11 1_555 1_555
N33_11 Ag17_11 1_555 1_555
N34_11 N33_11 1_555 1_555
N35_11 Ag18_11 1_555 1_555
N36_11 Ag16_11 1_555 1_555
N37_11 N38_11 1_555 1_555
N38_11 C94_11 1_555 1_555
N39_11 Ag20_11 1_555 1_555
N40_11 N39_11 1_555 1_555
N41_11 Ag21_11 1_555 1_555
N42_11 Ag19_11 1_555 1_555
N55_11 N56_11 1_555 1_555
N56_11 C139_11 1_555 1_555
N57_11 Ag29_11 1_555 1_555
N58_11 N57_11 1_555 1_555
N59_11 Ag30_11 1_555 1_555
N60_11 Ag28_11 1_555 1_555
C6_11 C7_11 1_555 1_555
C7_11 N61_7 1_555 1_555
C8_11 C7_11 1_555 1_555
C9_11 C8_11 1_555 1_555
C16_10 C17_11 1_555 1_555
C17_11 N7_11 1_555 1_555
C18_11 C17_11 1_555 1_555
C19_11 C18_11 1_555 1_555
C20_11 C19_11 1_555 1_555
C21_11 C22_11 1_555 1_555
C22_11 N64_3 1_555 1_555
C23_11 C22_11 1_555 1_555
C24_11 C23_11 1_555 1_555
C25_11 C24_11 1_555 1_555
C46_11 C47_11 1_555 1_555
C47_11 N19_11 1_555 1_555
C48_11 C47_11 1_555 1_555
C49_11 C48_11 1_555 1_555
C50_11 C49_11 1_555 1_555
C51_11 C52_11 1_555 1_555
C52_11 N21_8 1_555 1_555
C53_11 C48_11 1_555 1_555
C54_11 C53_11 1_555 1_555
C55_11 C54_11 1_555 1_555
C56_11 C57_11 1_555 1_555
C57_11 N23_11 1_555 1_555
C58_11 C57_11 1_555 1_555
C59_11 N24_11 1_555 1_555
C60_11 C59_11 1_555 1_555
C76_11 C77_11 1_555 1_555
C77_11 N31_11 1_555 1_555
C78_11 C23_11 1_555 1_555
C79_11 C78_11 1_555 1_555
C80_11 C79_11 1_555 1_555
C81_11 C82_11 1_555 1_555
C82_11 N33_11 1_555 1_555
C83_11 C82_11 1_555 1_555
C84_11 N34_11 1_555 1_555
C85_11 C84_11 1_555 1_555
C86_11 C87_11 1_555 1_555
C87_11 N35_11 1_555 1_555
C88_11 C8_11 1_555 1_555
C89_11 N36_11 1_555 1_555
C90_11 C89_11 1_555 1_555
C91_11 C92_11 1_555 1_555
C92_11 N37_11 1_555 1_555
C93_11 C92_11 1_555 1_555
C94_11 C93_11 1_555 1_555
C95_11 C94_11 1_555 1_555
C96_11 C97_11 1_555 1_555
C97_11 N39_11 1_555 1_555
C98_11 C83_11 1_555 1_555
C99_11 N40_11 1_555 1_555
C100_11 C99_11 1_555 1_555
C101_11 C102_11 1_555 1_555
C102_11 N41_11 1_555 1_555
C103_11 C102_11 1_555 1_555
C104_11 N42_11 1_555 1_555
C105_11 C104_11 1_555 1_555
C111_11 C112_11 1_555 1_555
C113_11 C93_11 1_555 1_555
C115_11 C114_11 1_555 1_555
C136_11 C137_11 1_555 1_555
C137_11 N55_11 1_555 1_555
C138_11 C103_11 1_555 1_555
C139_11 C138_11 1_555 1_555
C140_11 C139_11 1_555 1_555
C141_11 C142_11 1_555 1_555
C142_11 N57_11 1_555 1_555
C143_11 C18_11 1_555 1_555
C144_11 N58_11 1_555 1_555
C145_11 C144_11 1_555 1_555
C146_11 C147_11 1_555 1_555
C147_11 N59_11 1_555 1_555
C148_11 C58_11 1_555 1_555
C149_11 N60_11 1_555 1_555
C150_11 C149_11 1_555 1_555
H7_11 C6_11 1_555 1_555
H8_11 C6_11 1_555 1_555
H9_11 C6_11 1_555 1_555
H19_10 C16_10 1_555 1_555
H20_10 C16_10 1_555 1_555
H21_10 C16_10 1_555 1_555
H22_11 C20_11 1_555 1_555
H23_11 C20_11 1_555 1_555
H24_11 C20_11 1_555 1_555
H26_11 C21_11 1_555 1_555
H27_11 C21_11 1_555 1_555
H28_11 C25_11 1_555 1_555
H29_11 C25_11 1_555 1_555
H30_11 C25_11 1_555 1_555
H55_11 C46_11 1_555 1_555
H56_11 C46_11 1_555 1_555
H57_11 C46_11 1_555 1_555
H58_11 C50_11 1_555 1_555
H59_11 C50_11 1_555 1_555
H60_11 C50_11 1_555 1_555
H61_11 C51_11 1_555 1_555
H62_11 C51_11 1_555 1_555
H63_11 C51_11 1_555 1_555
H64_11 C55_11 1_555 1_555
H65_11 C55_11 1_555 1_555
H66_11 C55_11 1_555 1_555
H69_11 C56_11 1_555 1_555
H70_11 C60_11 1_555 1_555
H71_11 C60_11 1_555 1_555
H72_11 C60_11 1_555 1_555
H91_11 C76_11 1_555 1_555
H92_11 C76_11 1_555 1_555
H93_11 C76_11 1_555 1_555
H94_11 C80_11 1_555 1_555
H95_11 C80_11 1_555 1_555
H96_11 C80_11 1_555 1_555
H97_11 C81_11 1_555 1_555
H98_11 C81_11 1_555 1_555
H99_11 C81_11 1_555 1_555
H100_11 C85_11 1_555 1_555
H101_11 C85_11 1_555 1_555
H102_11 C85_11 1_555 1_555
H103_11 C86_11 1_555 1_555
H105_11 C86_11 1_555 1_555
H106_11 C90_11 1_555 1_555
H107_11 C90_11 1_555 1_555
H108_11 C90_11 1_555 1_555
H109_11 C91_11 1_555 1_555
H110_11 C91_11 1_555 1_555
H111_11 C91_11 1_555 1_555
H112_11 C95_11 1_555 1_555
H113_11 C95_11 1_555 1_555
H114_11 C95_11 1_555 1_555
H115_11 C96_11 1_555 1_555
H116_11 C96_11 1_555 1_555
H117_11 C96_11 1_555 1_555
H118_11 C100_11 1_555 1_555
H119_11 C100_11 1_555 1_555
H120_11 C100_11 1_555 1_555
H121_11 C101_11 1_555 1_555
H122_11 C101_11 1_555 1_555
H123_11 C101_11 1_555 1_555
H124_11 C105_11 1_555 1_555
H125_11 C105_11 1_555 1_555
H126_11 C105_11 1_555 1_555
H133_11 C111_11 1_555 1_555
H134_11 C111_11 1_555 1_555
H135_11 C111_11 1_555 1_555
H137_11 C115_11 1_555 1_555
H138_11 C115_11 1_555 1_555
H163_11 C136_11 1_555 1_555
H164_11 C136_11 1_555 1_555
H165_11 C136_11 1_555 1_555
H166_11 C140_11 1_555 1_555
H167_11 C140_11 1_555 1_555
H168_11 C140_11 1_555 1_555
H169_11 C141_11 1_555 1_555
H170_11 C141_11 1_555 1_555
H171_11 C141_11 1_555 1_555
H172_10 C145_11 1_555 1_555
H173_11 C145_11 1_555 1_555
H174_10 C145_11 1_555 1_555
H175_11 C146_11 1_555 1_555
H176_11 C146_11 1_555 1_555
H177_11 C146_11 1_555 1_555
H178_11 C150_11 1_555 1_555
H179_11 C150_11 1_555 1_555
H180_11 C150_11 1_555 1_555
Ag40_8 N22_8 1_555 1_555
N65_8 Ag6_8 1_555 1_555
N35_11 N36_11 1_555 1_555
N41_11 N42_11 1_555 1_555
N59_11 N60_11 1_555 1_555
C52_11 C53_11 1_555 1_555
C58_11 C59_11 1_555 1_555
C77_11 C78_11 1_555 1_555
C83_11 C84_11 1_555 1_555
C87_11 C88_11 1_555 1_555
C88_11 C89_11 1_555 1_555
C97_11 C98_11 1_555 1_555
C98_11 C99_11 1_555 1_555
C103_11 C104_11 1_555 1_555
C112_11 C113_11 1_555 1_555
C113_11 C114_11 1_555 1_555
C137_11 C138_11 1_555 1_555
C142_11 C143_11 1_555 1_555
C143_11 C144_11 1_555 1_555
C147_11 C148_11 1_555 1_555
C148_11 C149_11 1_555 1_555
N65_7 N66_7 1_555 1_555
C26_11 C27_11 1_555 1_555
C27_11 N65_7 1_555 1_555
H31_11 C26_11 1_555 1_555
H32_11 C26_11 1_555 1_555
H33_11 C26_11 1_555 1_555
N5_8 N6_3 1_555 1_555
N6_3 C14_11 1_555 1_555
N53_11 Ag27_11 1_555 1_555
N54_11 Ag25_11 1_555 1_555
C11_11 C12_11 1_555 1_555
C12_11 N5_8 1_555 1_555
C13_11 C12_11 1_555 1_555
C14_11 C13_11 1_555 1_555
C15_11 C14_11 1_555 1_555
C131_11 C132_11 1_555 1_555
C132_11 N53_11 1_555 1_555
C133_11 C13_11 1_555 1_555
C134_11 N54_11 1_555 1_555
C135_11 C134_11 1_555 1_555
H13_11 C11_11 1_555 1_555
H14_11 C11_11 1_555 1_555
H15_11 C11_11 1_555 1_555
H16_11 C15_11 1_555 1_555
H17_11 C15_11 1_555 1_555
H18_11 C15_11 1_555 1_555
H145_11 C121_11 1_555 1_555
H146_11 C121_11 1_555 1_555
H147_11 C121_11 1_555 1_555
H157_11 C131_11 1_555 1_555
H158_11 C131_11 1_555 1_555
H159_11 C131_11 1_555 1_555
H160_11 C135_11 1_555 1_555
H161_11 C135_11 1_555 1_555
H162_11 C135_11 1_555 1_555
Ag31_3 N6_3 1_555 1_555
Ag33_8 N5_8 1_555 1_555
N53_11 N54_11 1_555 1_555
C132_11 C133_11 1_555 1_555
C133_11 C134_11 1_555 1_555
Ag31_3 N1_11 1_555 1_555
Ag2_8 N2_11 1_555 1_555
Ag7_11 N13_11 1_555 1_555
Ag37_7 N14_11 1_555 1_555
Ag38_7 N17_11 1_555 1_555
Ag13_11 N25_11 1_555 1_555
Ag14_11 N26_11 1_555 1_555
Ag15_11 N28_11 1_555 1_555
Ag22_11 N43_11 1_555 1_555
Ag23_11 N44_11 1_555 1_555
Ag24_11 N46_11 1_555 1_555
Ag26_11 N50_11 1_555 1_555
N1_11 N2_11 1_555 1_555
N2_11 C4_11 1_555 1_555
N13_11 N14_11 1_555 1_555
N14_11 C34_11 1_555 1_555
N15_8 N16_8 1_555 1_555
N16_8 C39_11 1_555 1_555
N17_11 N18_11 1_555 1_555
N18_11 Ag7_11 1_555 1_555
N25_11 N26_11 1_555 1_555
N26_11 C64_11 1_555 1_555
N27_11 Ag14_11 1_555 1_555
N28_11 N27_11 1_555 1_555
N29_11 Ag15_11 1_555 1_555
N30_11 Ag13_11 1_555 1_555
N43_11 N44_11 1_555 1_555
N44_11 C109_11 1_555 1_555
N45_11 Ag23_11 1_555 1_555
N46_11 N45_11 1_555 1_555
N47_11 Ag24_11 1_555 1_555
N48_11 Ag22_11 1_555 1_555
N49_11 N50_11 1_555 1_555
N50_11 C124_11 1_555 1_555
N51_11 Ag26_11 1_555 1_555
N52_11 N51_11 1_555 1_555
C1_11 C2_11 1_555 1_555
C2_11 N1_11 1_555 1_555
C3_11 C2_11 1_555 1_555
C4_11 C3_11 1_555 1_555
C5_11 C4_11 1_555 1_555
C29_11 C28_11 1_555 1_555
C30_11 C29_11 1_555 1_555
C31_11 C32_11 1_555 1_555
C32_11 N13_11 1_555 1_555
C33_11 C32_11 1_555 1_555
C34_11 C33_11 1_555 1_555
C35_11 C34_11 1_555 1_555
C36_11 C37_11 1_555 1_555
C37_11 N15_8 1_555 1_555
C38_11 C33_11 1_555 1_555
C39_11 C38_11 1_555 1_555
C40_11 C39_11 1_555 1_555
C41_11 C42_11 1_555 1_555
C42_11 N17_11 1_555 1_555
C43_11 C42_11 1_555 1_555
C44_11 N18_11 1_555 1_555
C45_11 C44_11 1_555 1_555
C61_11 C62_11 1_555 1_555
C62_11 N25_11 1_555 1_555
C63_11 C3_11 1_555 1_555
C64_11 C63_11 1_555 1_555
C65_11 C64_11 1_555 1_555
C66_11 C67_11 1_555 1_555
C67_11 N27_11 1_555 1_555
C68_11 C67_11 1_555 1_555
C69_11 N28_11 1_555 1_555
C70_11 C69_11 1_555 1_555
C71_11 C72_11 1_555 1_555
C72_11 N29_11 1_555 1_555
C73_11 C28_11 1_555 1_555
C74_11 N30_11 1_555 1_555
C75_11 C74_11 1_555 1_555
C106_11 C107_11 1_555 1_555
C107_11 N43_11 1_555 1_555
C108_11 C107_11 1_555 1_555
C109_11 C108_11 1_555 1_555
C110_11 C109_11 1_555 1_555
C116_11 C117_11 1_555 1_555
C117_11 N47_11 1_555 1_555
C118_11 C68_11 1_555 1_555
C119_11 N48_11 1_555 1_555
C120_11 C119_11 1_555 1_555
C122_11 N49_11 1_555 1_555
C123_11 C43_11 1_555 1_555
C124_11 C123_11 1_555 1_555
C125_11 C124_11 1_555 1_555
C126_11 C127_11 1_555 1_555
C127_11 N51_11 1_555 1_555
C128_11 C108_11 1_555 1_555
C129_11 N52_11 1_555 1_555
C130_11 C129_11 1_555 1_555
H1_11 C1_11 1_555 1_555
H2_11 C1_11 1_555 1_555
H3_11 C1_11 1_555 1_555
H4_11 C5_11 1_555 1_555
H5_11 C5_11 1_555 1_555
H6_11 C5_11 1_555 1_555
H10_11 C10_11 1_555 1_555
H11_11 C10_11 1_555 1_555
H34_11 C30_11 1_555 1_555
H35_11 C30_11 1_555 1_555
H36_11 C30_11 1_555 1_555
H37_11 C31_11 1_555 1_555
H38_11 C31_11 1_555 1_555
H39_11 C31_11 1_555 1_555
H40_11 C35_11 1_555 1_555
H41_11 C35_11 1_555 1_555
H42_11 C35_11 1_555 1_555
H43_11 C36_11 1_555 1_555
H44_11 C36_11 1_555 1_555
H45_11 C36_11 1_555 1_555
H46_11 C40_11 1_555 1_555
H47_11 C40_11 1_555 1_555
H48_11 C40_11 1_555 1_555
H49_11 C41_11 1_555 1_555
H51_11 C41_11 1_555 1_555
H52_11 C45_11 1_555 1_555
H53_11 C45_11 1_555 1_555
H54_11 C45_11 1_555 1_555
H73_11 C61_11 1_555 1_555
H74_11 C61_11 1_555 1_555
H75_11 C61_11 1_555 1_555
H76_11 C65_11 1_555 1_555
H77_11 C65_11 1_555 1_555
H78_11 C65_11 1_555 1_555
H79_11 C66_11 1_555 1_555
H80_11 C66_11 1_555 1_555
H81_11 C66_11 1_555 1_555
H82_11 C70_11 1_555 1_555
H83_11 C70_11 1_555 1_555
H84_11 C70_11 1_555 1_555
H85_11 C71_11 1_555 1_555
H86_11 C71_11 1_555 1_555
H87_11 C71_11 1_555 1_555
H88_11 C75_11 1_555 1_555
H89_11 C75_11 1_555 1_555
H90_11 C75_11 1_555 1_555
H127_11 C106_11 1_555 1_555
H128_11 C106_11 1_555 1_555
H129_11 C106_11 1_555 1_555
H130_11 C110_11 1_555 1_555
H131_11 C110_11 1_555 1_555
H132_11 C110_11 1_555 1_555
H139_11 C116_11 1_555 1_555
H140_11 C116_11 1_555 1_555
H141_11 C116_11 1_555 1_555
H142_11 C120_11 1_555 1_555
H143_11 C120_11 1_555 1_555
H144_11 C120_11 1_555 1_555
H148_11 C125_11 1_555 1_555
H149_11 C125_11 1_555 1_555
H150_11 C125_11 1_555 1_555
H151_11 C126_11 1_555 1_555
H152_11 C126_11 1_555 1_555
H153_11 C126_11 1_555 1_555
H154_11 C130_11 1_555 1_555
H155_11 C130_11 1_555 1_555
H156_11 C130_11 1_555 1_555
Ag37_8 N15_8 1_555 1_555
Ag38_8 N16_8 1_555 1_555
N61_8 Ag2_8 1_555 1_555
N29_11 N30_11 1_555 1_555
N47_11 N48_11 1_555 1_555
C37_11 C38_11 1_555 1_555
C43_11 C44_11 1_555 1_555
C62_11 C63_11 1_555 1_555
C68_11 C69_11 1_555 1_555
C72_11 C73_11 1_555 1_555
C73_11 C74_11 1_555 1_555
C117_11 C118_11 1_555 1_555
C118_11 C119_11 1_555 1_555
C122_11 C123_11 1_555 1_555
C127_11 C128_11 1_555 1_555
C128_11 C129_11 1_555 1_555
Ag10_12 N19_12 1_555 1_555
Ag39_8 N20_12 1_555 1_555
N19_12 N20_12 1_555 1_555
N20_12 C49_12 1_555 1_555
N70_4 C54_12 1_555 1_555
N24_12 Ag10_12 1_555 1_555
C46_12 C47_12 1_555 1_555
C47_12 N19_12 1_555 1_555
C48_12 C47_12 1_555 1_555
C49_12 C48_12 1_555 1_555
C50_12 C49_12 1_555 1_555
C51_12 C52_12 1_555 1_555
C52_12 N69_4 1_555 1_555
C53_12 C48_12 1_555 1_555
C54_12 C53_12 1_555 1_555
C55_12 C54_12 1_555 1_555
C59_12 N24_12 1_555 1_555
C60_12 C59_12 1_555 1_555
H19_11 C16_11 1_555 1_555
H20_11 C16_11 1_555 1_555
H21_11 C16_11 1_555 1_555
H55_12 C46_12 1_555 1_555
H56_12 C46_12 1_555 1_555
H57_12 C46_12 1_555 1_555
H58_12 C50_12 1_555 1_555
H59_12 C50_12 1_555 1_555
H60_12 C50_12 1_555 1_555
H61_12 C51_12 1_555 1_555
H62_12 C51_12 1_555 1_555
H63_12 C51_12 1_555 1_555
H64_12 C55_12 1_555 1_555
H65_12 C55_12 1_555 1_555
H66_12 C55_12 1_555 1_555
H70_12 C60_12 1_555 1_555
H71_12 C60_12 1_555 1_555
H72_12 C60_12 1_555 1_555
H175_12 C146_12 1_555 1_555
H176_12 C146_12 1_555 1_555
C52_12 C53_12 1_555 1_555
Ag31_4 N1_12 1_555 1_555
Ag32_4 N2_12 1_555 1_555
Ag33_8 N4_12 1_555 1_555
Ag34_4 N7_12 1_555 1_555
Ag5_4 N8_12 1_555 1_555
Ag7_12 N13_12 1_555 1_555
Ag37_8 N14_12 1_555 1_555
Ag38_8 N17_12 1_555 1_555
Ag40_8 N23_12 1_555 1_555
Ag13_12 N25_12 1_555 1_555
Ag14_12 N26_12 1_555 1_555
Ag15_12 N28_12 1_555 1_555
Ag18_12 N34_12 1_555 1_555
Ag19_12 N37_12 1_555 1_555
Ag20_12 N38_12 1_555 1_555
Ag21_12 N40_12 1_555 1_555
Ag22_12 N43_12 1_555 1_555
Ag23_12 N44_12 1_555 1_555
Ag24_12 N46_12 1_555 1_555
Ag25_12 N49_12 1_555 1_555
Ag26_12 N50_12 1_555 1_555
Ag27_12 N52_12 1_555 1_555
Ag28_12 N55_12 1_555 1_555
Ag29_12 N56_12 1_555 1_555
Ag30_12 N58_12 1_555 1_555
N1_12 N2_12 1_555 1_555
N2_12 C4_12 1_555 1_555
N61_8 N4_12 1_555 1_555
N4_12 C9_12 1_555 1_555
N62_4 N6_4 1_555 1_555
N6_4 C14_12 1_555 1_555
N7_12 N8_12 1_555 1_555
N8_12 C19_12 1_555 1_555
N65_8 N66_8 1_555 1_555
N66_8 C29_12 1_555 1_555
N13_12 N14_12 1_555 1_555
N14_12 C34_12 1_555 1_555
N68_4 C39_12 1_555 1_555
N17_12 N18_12 1_555 1_555
N18_12 Ag7_12 1_555 1_555
N25_12 N26_12 1_555 1_555
N26_12 C64_12 1_555 1_555
N27_12 Ag14_12 1_555 1_555
N28_12 N27_12 1_555 1_555
N29_12 Ag15_12 1_555 1_555
N30_12 Ag13_12 1_555 1_555
N34_12 N33_12 1_555 1_555
N35_12 Ag18_12 1_555 1_555
N37_12 N38_12 1_555 1_555
N38_12 C94_12 1_555 1_555
N39_12 Ag20_12 1_555 1_555
N40_12 N39_12 1_555 1_555
N41_12 Ag21_12 1_555 1_555
N42_12 Ag19_12 1_555 1_555
N43_12 N44_12 1_555 1_555
N44_12 C109_12 1_555 1_555
N45_12 Ag23_12 1_555 1_555
N46_12 N45_12 1_555 1_555
N47_12 Ag24_12 1_555 1_555
N48_12 Ag22_12 1_555 1_555
N49_12 N50_12 1_555 1_555
N50_12 C124_12 1_555 1_555
N51_12 Ag26_12 1_555 1_555
N52_12 N51_12 1_555 1_555
N53_12 Ag27_12 1_555 1_555
N54_12 Ag25_12 1_555 1_555
N55_12 N56_12 1_555 1_555
N56_12 C139_12 1_555 1_555
N57_12 Ag29_12 1_555 1_555
N58_12 N57_12 1_555 1_555
N59_12 Ag30_12 1_555 1_555
N60_12 Ag28_12 1_555 1_555
C1_12 C2_12 1_555 1_555
C2_12 N1_12 1_555 1_555
C3_12 C2_12 1_555 1_555
C4_12 C3_12 1_555 1_555
C5_12 C4_12 1_555 1_555
C6_12 C7_12 1_555 1_555
C7_12 N61_8 1_555 1_555
C8_12 C7_12 1_555 1_555
C9_12 C8_12 1_555 1_555
C10_12 C9_12 1_555 1_555
C11_12 C12_12 1_555 1_555
C12_12 N62_4 1_555 1_555
C13_12 C12_12 1_555 1_555
C14_12 C13_12 1_555 1_555
C15_12 C14_12 1_555 1_555
C17_12 N7_12 1_555 1_555
C18_12 C17_12 1_555 1_555
C19_12 C18_12 1_555 1_555
C20_12 C19_12 1_555 1_555
C26_12 C27_12 1_555 1_555
C27_12 N65_8 1_555 1_555
C28_12 C27_12 1_555 1_555
C29_12 C28_12 1_555 1_555
C30_12 C29_12 1_555 1_555
C31_12 C32_12 1_555 1_555
C32_12 N13_12 1_555 1_555
C33_12 C32_12 1_555 1_555
C34_12 C33_12 1_555 1_555
C35_12 C34_12 1_555 1_555
C36_12 C37_12 1_555 1_555
C37_12 N67_4 1_555 1_555
C38_12 C33_12 1_555 1_555
C39_12 C38_12 1_555 1_555
C40_12 C39_12 1_555 1_555
C41_12 C42_12 1_555 1_555
C42_12 N17_12 1_555 1_555
C43_12 C42_12 1_555 1_555
C44_12 N18_12 1_555 1_555
C45_12 C44_12 1_555 1_555
C56_12 C57_12 1_555 1_555
C57_12 N23_12 1_555 1_555
C58_12 C57_12 1_555 1_555
C61_12 C62_12 1_555 1_555
C62_12 N25_12 1_555 1_555
C63_12 C3_12 1_555 1_555
C64_12 C63_12 1_555 1_555
C65_12 C64_12 1_555 1_555
C66_12 C67_12 1_555 1_555
C67_12 N27_12 1_555 1_555
C68_12 C67_12 1_555 1_555
C69_12 N28_12 1_555 1_555
C70_12 C69_12 1_555 1_555
C71_12 C72_12 1_555 1_555
C72_12 N29_12 1_555 1_555
C73_12 C28_12 1_555 1_555
C74_12 N30_12 1_555 1_555
C75_12 C74_12 1_555 1_555
C81_12 C82_12 1_555 1_555
C82_12 N33_12 1_555 1_555
C83_12 C82_12 1_555 1_555
C84_12 N34_12 1_555 1_555
C85_12 C84_12 1_555 1_555
C86_12 C87_12 1_555 1_555
C87_12 N35_12 1_555 1_555
C88_12 C8_12 1_555 1_555
C89_12 N36_12 1_555 1_555
C90_12 C89_12 1_555 1_555
C91_12 C92_12 1_555 1_555
C92_12 N37_12 1_555 1_555
C93_12 C92_12 1_555 1_555
C94_12 C93_12 1_555 1_555
C95_12 C94_12 1_555 1_555
C96_12 C97_12 1_555 1_555
C97_12 N39_12 1_555 1_555
C98_12 C83_12 1_555 1_555
C99_12 N40_12 1_555 1_555
C100_12 C99_12 1_555 1_555
C101_12 C102_12 1_555 1_555
C102_12 N41_12 1_555 1_555
C103_12 C102_12 1_555 1_555
C104_12 N42_12 1_555 1_555
C105_12 C104_12 1_555 1_555
C106_12 C107_12 1_555 1_555
C107_12 N43_12 1_555 1_555
C108_12 C107_12 1_555 1_555
C109_12 C108_12 1_555 1_555
C110_12 C109_12 1_555 1_555
C111_12 C112_12 1_555 1_555
C112_12 N45_12 1_555 1_555
C113_12 C93_12 1_555 1_555
C114_12 N46_12 1_555 1_555
C115_12 C114_12 1_555 1_555
C116_12 C117_12 1_555 1_555
C117_12 N47_12 1_555 1_555
C118_12 C68_12 1_555 1_555
C119_12 N48_12 1_555 1_555
C120_12 C119_12 1_555 1_555
C121_12 C122_12 1_555 1_555
C122_12 N49_12 1_555 1_555
C123_12 C43_12 1_555 1_555
C124_12 C123_12 1_555 1_555
C125_12 C124_12 1_555 1_555
C126_12 C127_12 1_555 1_555
C127_12 N51_12 1_555 1_555
C128_12 C108_12 1_555 1_555
C129_12 N52_12 1_555 1_555
C130_12 C129_12 1_555 1_555
C131_12 C132_12 1_555 1_555
C132_12 N53_12 1_555 1_555
C133_12 C13_12 1_555 1_555
C134_12 N54_12 1_555 1_555
C135_12 C134_12 1_555 1_555
C136_12 C137_12 1_555 1_555
C137_12 N55_12 1_555 1_555
C138_12 C103_12 1_555 1_555
C139_12 C138_12 1_555 1_555
C140_12 C139_12 1_555 1_555
C141_12 C142_12 1_555 1_555
C142_12 N57_12 1_555 1_555
C143_12 C18_12 1_555 1_555
C144_12 N58_12 1_555 1_555
C145_12 C144_12 1_555 1_555
C147_12 N59_12 1_555 1_555
C148_12 C58_12 1_555 1_555
C149_12 N60_12 1_555 1_555
C150_12 C149_12 1_555 1_555
H1_12 C1_12 1_555 1_555
H2_12 C1_12 1_555 1_555
H3_12 C1_12 1_555 1_555
H4_12 C5_12 1_555 1_555
H5_12 C5_12 1_555 1_555
H6_12 C5_12 1_555 1_555
H7_12 C6_12 1_555 1_555
H8_12 C6_12 1_555 1_555
H9_12 C6_12 1_555 1_555
H10_12 C10_12 1_555 1_555
H11_12 C10_12 1_555 1_555
H12_12 C10_12 1_555 1_555
H13_12 C11_12 1_555 1_555
H14_12 C11_12 1_555 1_555
H15_12 C11_12 1_555 1_555
H17_12 C15_12 1_555 1_555
H18_12 C15_12 1_555 1_555
H22_12 C20_12 1_555 1_555
H23_12 C20_12 1_555 1_555
H24_12 C20_12 1_555 1_555
H31_12 C26_12 1_555 1_555
H32_12 C26_12 1_555 1_555
H33_12 C26_12 1_555 1_555
H34_12 C30_12 1_555 1_555
H35_12 C30_12 1_555 1_555
H36_12 C30_12 1_555 1_555
H37_12 C31_12 1_555 1_555
H38_12 C31_12 1_555 1_555
H39_12 C31_12 1_555 1_555
H40_12 C35_12 1_555 1_555
H41_12 C35_12 1_555 1_555
H42_12 C35_12 1_555 1_555
H43_12 C36_12 1_555 1_555
H44_12 C36_12 1_555 1_555
H45_12 C36_12 1_555 1_555
H46_12 C40_12 1_555 1_555
H47_12 C40_12 1_555 1_555
H48_12 C40_12 1_555 1_555
H49_12 C41_12 1_555 1_555
H50_12 C41_12 1_555 1_555
H51_12 C41_12 1_555 1_555
H52_12 C45_12 1_555 1_555
H53_12 C45_12 1_555 1_555
H54_12 C45_12 1_555 1_555
H67_12 C56_12 1_555 1_555
H68_12 C56_12 1_555 1_555
H69_12 C56_12 1_555 1_555
H73_12 C61_12 1_555 1_555
H74_12 C61_12 1_555 1_555
H75_12 C61_12 1_555 1_555
H76_12 C65_12 1_555 1_555
H77_12 C65_12 1_555 1_555
H78_12 C65_12 1_555 1_555
H79_12 C66_12 1_555 1_555
H80_12 C66_12 1_555 1_555
H81_12 C66_12 1_555 1_555
H82_12 C70_12 1_555 1_555
H83_12 C70_12 1_555 1_555
H84_12 C70_12 1_555 1_555
H85_12 C71_12 1_555 1_555
H86_12 C71_12 1_555 1_555
H87_12 C71_12 1_555 1_555
H88_12 C75_12 1_555 1_555
H89_12 C75_12 1_555 1_555
H90_12 C75_12 1_555 1_555
H98_12 C81_12 1_555 1_555
H99_12 C81_12 1_555 1_555
H100_12 C85_12 1_555 1_555
H101_12 C85_12 1_555 1_555
H102_12 C85_12 1_555 1_555
H103_12 C86_12 1_555 1_555
H104_12 C86_12 1_555 1_555
H105_12 C86_12 1_555 1_555
H107_12 C90_12 1_555 1_555
H108_12 C90_12 1_555 1_555
H109_12 C91_12 1_555 1_555
H110_12 C91_12 1_555 1_555
H111_12 C91_12 1_555 1_555
H112_12 C95_12 1_555 1_555
H113_12 C95_12 1_555 1_555
H114_12 C95_12 1_555 1_555
H115_12 C96_12 1_555 1_555
H116_12 C96_12 1_555 1_555
H117_12 C96_12 1_555 1_555
H118_12 C100_12 1_555 1_555
H119_12 C100_12 1_555 1_555
H120_12 C100_12 1_555 1_555
H121_12 C101_12 1_555 1_555
H122_12 C101_12 1_555 1_555
H123_12 C101_12 1_555 1_555
H124_12 C105_12 1_555 1_555
H125_12 C105_12 1_555 1_555
H126_12 C105_12 1_555 1_555
H127_12 C106_12 1_555 1_555
H128_12 C106_12 1_555 1_555
H129_12 C106_12 1_555 1_555
H130_12 C110_12 1_555 1_555
H131_12 C110_12 1_555 1_555
H132_12 C110_12 1_555 1_555
H133_12 C111_12 1_555 1_555
H134_12 C111_12 1_555 1_555
H135_12 C111_12 1_555 1_555
H136_12 C115_12 1_555 1_555
H137_12 C115_12 1_555 1_555
H138_12 C115_12 1_555 1_555
H139_12 C116_12 1_555 1_555
H140_12 C116_12 1_555 1_555
H141_12 C116_12 1_555 1_555
H142_12 C120_12 1_555 1_555
H143_12 C120_12 1_555 1_555
H144_12 C120_12 1_555 1_555
H145_12 C121_12 1_555 1_555
H146_12 C121_12 1_555 1_555
H147_12 C121_12 1_555 1_555
H148_12 C125_12 1_555 1_555
H149_12 C125_12 1_555 1_555
H150_12 C125_12 1_555 1_555
H151_12 C126_12 1_555 1_555
H152_12 C126_12 1_555 1_555
H153_12 C126_12 1_555 1_555
H154_12 C130_12 1_555 1_555
H155_12 C130_12 1_555 1_555
H156_12 C130_12 1_555 1_555
H157_12 C131_12 1_555 1_555
H158_12 C131_12 1_555 1_555
H159_12 C131_12 1_555 1_555
H160_12 C135_12 1_555 1_555
H161_12 C135_12 1_555 1_555
H162_12 C135_12 1_555 1_555
H163_12 C136_12 1_555 1_555
H164_12 C136_12 1_555 1_555
H165_12 C136_12 1_555 1_555
H166_12 C140_12 1_555 1_555
H167_12 C140_12 1_555 1_555
H168_12 C140_12 1_555 1_555
H169_12 C141_12 1_555 1_555
H170_12 C141_12 1_555 1_555
H171_12 C141_12 1_555 1_555
H173_12 C145_12 1_555 1_555
H178_12 C150_12 1_555 1_555
H179_12 C150_12 1_555 1_555
H180_12 C150_12 1_555 1_555
N64_4 Ag5_4 1_555 1_555
N29_12 N30_12 1_555 1_555
N35_12 N36_12 1_555 1_555
N41_12 N42_12 1_555 1_555
N47_12 N48_12 1_555 1_555
N53_12 N54_12 1_555 1_555
N59_12 N60_12 1_555 1_555
C37_12 C38_12 1_555 1_555
C43_12 C44_12 1_555 1_555
C62_12 C63_12 1_555 1_555
C68_12 C69_12 1_555 1_555
C72_12 C73_12 1_555 1_555
C73_12 C74_12 1_555 1_555
C83_12 C84_12 1_555 1_555
C87_12 C88_12 1_555 1_555
C88_12 C89_12 1_555 1_555
C97_12 C98_12 1_555 1_555
C98_12 C99_12 1_555 1_555
C103_12 C104_12 1_555 1_555
C112_12 C113_12 1_555 1_555
C113_12 C114_12 1_555 1_555
C117_12 C118_12 1_555 1_555
C118_12 C119_12 1_555 1_555
C122_12 C123_12 1_555 1_555
C127_12 C128_12 1_555 1_555
C128_12 C129_12 1_555 1_555
C132_12 C133_12 1_555 1_555
C133_12 C134_12 1_555 1_555
C137_12 C138_12 1_555 1_555
C142_12 C143_12 1_555 1_555
C143_12 C144_12 1_555 1_555
C147_12 C148_12 1_555 1_555
C148_12 C149_12 1_555 1_555
Ag36_4 N10_12 1_555 1_555
Ag16_12 N31_12 1_555 1_555
Ag17_12 N32_12 1_555 1_555
N64_4 N10_12 1_555 1_555
N10_12 C24_12 1_555 1_555
N31_12 N32_12 1_555 1_555
N32_12 C79_12 1_555 1_555
C21_12 C22_12 1_555 1_555
C22_12 N64_4 1_555 1_555
C23_12 C22_12 1_555 1_555
C24_12 C23_12 1_555 1_555
C25_12 C24_12 1_555 1_555
C76_12 C77_12 1_555 1_555
C77_12 N31_12 1_555 1_555
C78_12 C23_12 1_555 1_555
C79_12 C78_12 1_555 1_555
C80_12 C79_12 1_555 1_555
H25_12 C21_12 1_555 1_555
H26_12 C21_12 1_555 1_555
H27_12 C21_12 1_555 1_555
H28_12 C25_12 1_555 1_555
H29_12 C25_12 1_555 1_555
H30_12 C25_12 1_555 1_555
H91_12 C76_12 1_555 1_555
H92_12 C76_12 1_555 1_555
H93_12 C76_12 1_555 1_555
H94_12 C80_12 1_555 1_555
H95_12 C80_12 1_555 1_555
H96_12 C80_12 1_555 1_555
C77_12 C78_12 1_555 1_555
H19_12 C16_12 1_555 1_555
H20_12 C16_12 1_555 1_555
H21_12 C16_12 1_555 1_555
N5_9 N6_5 1_555 1_555
N6_5 C14_13 1_555 1_555
N53_13 Ag27_13 1_555 1_555
N54_13 Ag25_13 1_555 1_555
C11_13 C12_13 1_555 1_555
C12_13 N5_9 1_555 1_555
C13_13 C12_13 1_555 1_555
C14_13 C13_13 1_555 1_555
C15_13 C14_13 1_555 1_555
C131_13 C132_13 1_555 1_555
C132_13 N53_13 1_555 1_555
C133_13 C13_13 1_555 1_555
C134_13 N54_13 1_555 1_555
C135_13 C134_13 1_555 1_555
H13_13 C11_13 1_555 1_555
H14_13 C11_13 1_555 1_555
H15_13 C11_13 1_555 1_555
H16_13 C15_13 1_555 1_555
H17_13 C15_13 1_555 1_555
H18_13 C15_13 1_555 1_555
H145_13 C121_13 1_555 1_555
H146_13 C121_13 1_555 1_555
H147_13 C121_13 1_555 1_555
H157_13 C131_13 1_555 1_555
H158_13 C131_13 1_555 1_555
H159_13 C131_13 1_555 1_555
H160_13 C135_13 1_555 1_555
H161_13 C135_13 1_555 1_555
H162_13 C135_13 1_555 1_555
Ag31_5 N6_5 1_555 1_555
Ag33_9 N5_9 1_555 1_555
N53_13 N54_13 1_555 1_555
C132_13 C133_13 1_555 1_555
C133_13 C134_13 1_555 1_555
Ag31_5 N1_13 1_555 1_555
Ag2_9 N2_13 1_555 1_555
Ag7_13 N13_13 1_555 1_555
Ag8_5 N14_13 1_555 1_555
Ag9_5 N17_13 1_555 1_555
Ag13_13 N25_13 1_555 1_555
Ag14_13 N26_13 1_555 1_555
Ag15_13 N28_13 1_555 1_555
Ag22_13 N43_13 1_555 1_555
Ag23_13 N44_13 1_555 1_555
Ag24_13 N46_13 1_555 1_555
Ag26_13 N50_13 1_555 1_555
N1_13 N2_13 1_555 1_555
N2_13 C4_13 1_555 1_555
N11_5 N12_5 1_555 1_555
N12_5 C29_13 1_555 1_555
N13_13 N14_13 1_555 1_555
N14_13 C34_13 1_555 1_555
N15_9 N16_9 1_555 1_555
N16_9 C39_13 1_555 1_555
N17_13 N18_13 1_555 1_555
N18_13 Ag7_13 1_555 1_555
N25_13 N26_13 1_555 1_555
N26_13 C64_13 1_555 1_555
N27_13 Ag14_13 1_555 1_555
N28_13 N27_13 1_555 1_555
N29_13 Ag15_13 1_555 1_555
N30_13 Ag13_13 1_555 1_555
N43_13 N44_13 1_555 1_555
N44_13 C109_13 1_555 1_555
N45_13 Ag23_13 1_555 1_555
N46_13 N45_13 1_555 1_555
N47_13 Ag24_13 1_555 1_555
N48_13 Ag22_13 1_555 1_555
N49_13 N50_13 1_555 1_555
N50_13 C124_13 1_555 1_555
N51_13 Ag26_13 1_555 1_555
N52_13 N51_13 1_555 1_555
C1_13 C2_13 1_555 1_555
C2_13 N1_13 1_555 1_555
C3_13 C2_13 1_555 1_555
C4_13 C3_13 1_555 1_555
C5_13 C4_13 1_555 1_555
C26_13 C27_13 1_555 1_555
C27_13 N11_5 1_555 1_555
C28_13 C27_13 1_555 1_555
C29_13 C28_13 1_555 1_555
C30_13 C29_13 1_555 1_555
C31_13 C32_13 1_555 1_555
C32_13 N13_13 1_555 1_555
C33_13 C32_13 1_555 1_555
C34_13 C33_13 1_555 1_555
C35_13 C34_13 1_555 1_555
C36_13 C37_13 1_555 1_555
C37_13 N15_9 1_555 1_555
C38_13 C33_13 1_555 1_555
C39_13 C38_13 1_555 1_555
C40_13 C39_13 1_555 1_555
C41_13 C42_13 1_555 1_555
C42_13 N17_13 1_555 1_555
C43_13 C42_13 1_555 1_555
C44_13 N18_13 1_555 1_555
C45_13 C44_13 1_555 1_555
C61_13 C62_13 1_555 1_555
C62_13 N25_13 1_555 1_555
C63_13 C3_13 1_555 1_555
C64_13 C63_13 1_555 1_555
C65_13 C64_13 1_555 1_555
C66_13 C67_13 1_555 1_555
C67_13 N27_13 1_555 1_555
C68_13 C67_13 1_555 1_555
C69_13 N28_13 1_555 1_555
C70_13 C69_13 1_555 1_555
C71_13 C72_13 1_555 1_555
C72_13 N29_13 1_555 1_555
C73_13 C28_13 1_555 1_555
C74_13 N30_13 1_555 1_555
C75_13 C74_13 1_555 1_555
C106_13 C107_13 1_555 1_555
C107_13 N43_13 1_555 1_555
C108_13 C107_13 1_555 1_555
C109_13 C108_13 1_555 1_555
C110_13 C109_13 1_555 1_555
C116_13 C117_13 1_555 1_555
C117_13 N47_13 1_555 1_555
C118_13 C68_13 1_555 1_555
C119_13 N48_13 1_555 1_555
C120_13 C119_13 1_555 1_555
C122_13 N49_13 1_555 1_555
C123_13 C43_13 1_555 1_555
C124_13 C123_13 1_555 1_555
C125_13 C124_13 1_555 1_555
C126_13 C127_13 1_555 1_555
C127_13 N51_13 1_555 1_555
C128_13 C108_13 1_555 1_555
C129_13 N52_13 1_555 1_555
C130_13 C129_13 1_555 1_555
H1_13 C1_13 1_555 1_555
H2_13 C1_13 1_555 1_555
H3_13 C1_13 1_555 1_555
H4_13 C5_13 1_555 1_555
H5_13 C5_13 1_555 1_555
H6_13 C5_13 1_555 1_555
H10_13 C10_13 1_555 1_555
H11_13 C10_13 1_555 1_555
H31_13 C26_13 1_555 1_555
H32_13 C26_13 1_555 1_555
H33_13 C26_13 1_555 1_555
H34_13 C30_13 1_555 1_555
H35_13 C30_13 1_555 1_555
H36_13 C30_13 1_555 1_555
H37_13 C31_13 1_555 1_555
H38_13 C31_13 1_555 1_555
H39_13 C31_13 1_555 1_555
H40_13 C35_13 1_555 1_555
H41_13 C35_13 1_555 1_555
H42_13 C35_13 1_555 1_555
H43_13 C36_13 1_555 1_555
H44_13 C36_13 1_555 1_555
H45_13 C36_13 1_555 1_555
H46_13 C40_13 1_555 1_555
H47_13 C40_13 1_555 1_555
H48_13 C40_13 1_555 1_555
H49_13 C41_13 1_555 1_555
H51_13 C41_13 1_555 1_555
H52_13 C45_13 1_555 1_555
H53_13 C45_13 1_555 1_555
H54_13 C45_13 1_555 1_555
H73_13 C61_13 1_555 1_555
H74_13 C61_13 1_555 1_555
H75_13 C61_13 1_555 1_555
H76_13 C65_13 1_555 1_555
H77_13 C65_13 1_555 1_555
H78_13 C65_13 1_555 1_555
H79_13 C66_13 1_555 1_555
H80_13 C66_13 1_555 1_555
H81_13 C66_13 1_555 1_555
H82_13 C70_13 1_555 1_555
H83_13 C70_13 1_555 1_555
H84_13 C70_13 1_555 1_555
H85_13 C71_13 1_555 1_555
H86_13 C71_13 1_555 1_555
H87_13 C71_13 1_555 1_555
H88_13 C75_13 1_555 1_555
H89_13 C75_13 1_555 1_555
H90_13 C75_13 1_555 1_555
H127_13 C106_13 1_555 1_555
H128_13 C106_13 1_555 1_555
H129_13 C106_13 1_555 1_555
H130_13 C110_13 1_555 1_555
H131_13 C110_13 1_555 1_555
H132_13 C110_13 1_555 1_555
H139_13 C116_13 1_555 1_555
H140_13 C116_13 1_555 1_555
H141_13 C116_13 1_555 1_555
H142_13 C120_13 1_555 1_555
H143_13 C120_13 1_555 1_555
H144_13 C120_13 1_555 1_555
H148_13 C125_13 1_555 1_555
H149_13 C125_13 1_555 1_555
H150_13 C125_13 1_555 1_555
H151_13 C126_13 1_555 1_555
H152_13 C126_13 1_555 1_555
H153_13 C126_13 1_555 1_555
H154_13 C130_13 1_555 1_555
H155_13 C130_13 1_555 1_555
H156_13 C130_13 1_555 1_555
Ag34_5 N12_5 1_555 1_555
Ag36_5 N11_5 1_555 1_555
Ag37_9 N15_9 1_555 1_555
Ag38_9 N16_9 1_555 1_555
N61_9 Ag2_9 1_555 1_555
N67_5 Ag8_5 1_555 1_555
N68_5 Ag9_5 1_555 1_555
N29_13 N30_13 1_555 1_555
N47_13 N48_13 1_555 1_555
C37_13 C38_13 1_555 1_555
C43_13 C44_13 1_555 1_555
C62_13 C63_13 1_555 1_555
C68_13 C69_13 1_555 1_555
C72_13 C73_13 1_555 1_555
C73_13 C74_13 1_555 1_555
C117_13 C118_13 1_555 1_555
C118_13 C119_13 1_555 1_555
C122_13 C123_13 1_555 1_555
C127_13 C128_13 1_555 1_555
C128_13 C129_13 1_555 1_555
N67_5 N68_5 1_555 1_555
N66_9 Ag4_9 1_555 1_555
N70_5 Ag12_5 1_555 1_555
N69_5 N70_5 1_555 1_555
Ag5_5 N8_13 1_555 1_555
Ag6_9 N10_13 1_555 1_555
Ag10_13 N19_13 1_555 1_555
Ag11_5 N20_13 1_555 1_555
Ag16_13 N31_13 1_555 1_555
Ag17_13 N32_13 1_555 1_555
Ag18_13 N34_13 1_555 1_555
Ag19_13 N37_13 1_555 1_555
Ag20_13 N38_13 1_555 1_555
Ag21_13 N40_13 1_555 1_555
Ag28_13 N55_13 1_555 1_555
Ag29_13 N56_13 1_555 1_555
Ag30_13 N58_13 1_555 1_555
N3_5 N4_13 1_555 1_555
N4_13 C9_13 1_555 1_555
N7_13 N8_13 1_555 1_555
N8_13 C19_13 1_555 1_555
N64_5 N10_13 1_555 1_555
N10_13 C24_13 1_555 1_555
N19_13 N20_13 1_555 1_555
N20_13 C49_13 1_555 1_555
N21_9 N22_9 1_555 1_555
N22_9 C54_13 1_555 1_555
N23_13 N24_13 1_555 1_555
N24_13 Ag10_13 1_555 1_555
N31_13 N32_13 1_555 1_555
N32_13 C79_13 1_555 1_555
N33_13 Ag17_13 1_555 1_555
N34_13 N33_13 1_555 1_555
N35_13 Ag18_13 1_555 1_555
N36_13 Ag16_13 1_555 1_555
N37_13 N38_13 1_555 1_555
N38_13 C94_13 1_555 1_555
N39_13 Ag20_13 1_555 1_555
N40_13 N39_13 1_555 1_555
N41_13 Ag21_13 1_555 1_555
N42_13 Ag19_13 1_555 1_555
N55_13 N56_13 1_555 1_555
N56_13 C139_13 1_555 1_555
N57_13 Ag29_13 1_555 1_555
N58_13 N57_13 1_555 1_555
N59_13 Ag30_13 1_555 1_555
N60_13 Ag28_13 1_555 1_555
C6_13 C7_13 1_555 1_555
C7_13 N3_5 1_555 1_555
C8_13 C7_13 1_555 1_555
C9_13 C8_13 1_555 1_555
C16_13 C17_13 1_555 1_555
C17_13 N7_13 1_555 1_555
C18_13 C17_13 1_555 1_555
C19_13 C18_13 1_555 1_555
C20_13 C19_13 1_555 1_555
C21_13 C22_13 1_555 1_555
C22_13 N64_5 1_555 1_555
C23_13 C22_13 1_555 1_555
C24_13 C23_13 1_555 1_555
C25_13 C24_13 1_555 1_555
C46_13 C47_13 1_555 1_555
C47_13 N19_13 1_555 1_555
C48_13 C47_13 1_555 1_555
C49_13 C48_13 1_555 1_555
C50_13 C49_13 1_555 1_555
C51_13 C52_13 1_555 1_555
C52_13 N21_9 1_555 1_555
C53_13 C48_13 1_555 1_555
C54_13 C53_13 1_555 1_555
C55_13 C54_13 1_555 1_555
C56_13 C57_13 1_555 1_555
C57_13 N23_13 1_555 1_555
C58_13 C57_13 1_555 1_555
C59_13 N24_13 1_555 1_555
C60_13 C59_13 1_555 1_555
C76_13 C77_13 1_555 1_555
C77_13 N31_13 1_555 1_555
C78_13 C23_13 1_555 1_555
C79_13 C78_13 1_555 1_555
C80_13 C79_13 1_555 1_555
C81_13 C82_13 1_555 1_555
C82_13 N33_13 1_555 1_555
C83_13 C82_13 1_555 1_555
C84_13 N34_13 1_555 1_555
C85_13 C84_13 1_555 1_555
C86_13 C87_13 1_555 1_555
C87_13 N35_13 1_555 1_555
C88_13 C8_13 1_555 1_555
C89_13 N36_13 1_555 1_555
C90_13 C89_13 1_555 1_555
C91_13 C92_13 1_555 1_555
C92_13 N37_13 1_555 1_555
C93_13 C92_13 1_555 1_555
C94_13 C93_13 1_555 1_555
C95_13 C94_13 1_555 1_555
C96_13 C97_13 1_555 1_555
C97_13 N39_13 1_555 1_555
C98_13 C83_13 1_555 1_555
C99_13 N40_13 1_555 1_555
C100_13 C99_13 1_555 1_555
C101_13 C102_13 1_555 1_555
C102_13 N41_13 1_555 1_555
C103_13 C102_13 1_555 1_555
C104_13 N42_13 1_555 1_555
C105_13 C104_13 1_555 1_555
C111_13 C112_13 1_555 1_555
C113_13 C93_13 1_555 1_555
C115_13 C114_13 1_555 1_555
C136_13 C137_13 1_555 1_555
C137_13 N55_13 1_555 1_555
C138_13 C103_13 1_555 1_555
C139_13 C138_13 1_555 1_555
C140_13 C139_13 1_555 1_555
C141_13 C142_13 1_555 1_555
C142_13 N57_13 1_555 1_555
C143_13 C18_13 1_555 1_555
C144_13 N58_13 1_555 1_555
C145_13 C144_13 1_555 1_555
C146_13 C147_13 1_555 1_555
C147_13 N59_13 1_555 1_555
C148_13 C58_13 1_555 1_555
C149_13 N60_13 1_555 1_555
C150_13 C149_13 1_555 1_555
H7_13 C6_13 1_555 1_555
H8_13 C6_13 1_555 1_555
H9_13 C6_13 1_555 1_555
H19_13 C16_13 1_555 1_555
H20_13 C16_13 1_555 1_555
H21_13 C16_13 1_555 1_555
H22_13 C20_13 1_555 1_555
H23_13 C20_13 1_555 1_555
H24_13 C20_13 1_555 1_555
H26_13 C21_13 1_555 1_555
H27_13 C21_13 1_555 1_555
H28_13 C25_13 1_555 1_555
H29_13 C25_13 1_555 1_555
H30_13 C25_13 1_555 1_555
H55_13 C46_13 1_555 1_555
H56_13 C46_13 1_555 1_555
H57_13 C46_13 1_555 1_555
H58_13 C50_13 1_555 1_555
H59_13 C50_13 1_555 1_555
H60_13 C50_13 1_555 1_555
H61_13 C51_13 1_555 1_555
H62_13 C51_13 1_555 1_555
H63_13 C51_13 1_555 1_555
H64_13 C55_13 1_555 1_555
H65_13 C55_13 1_555 1_555
H66_13 C55_13 1_555 1_555
H69_13 C56_13 1_555 1_555
H70_13 C60_13 1_555 1_555
H71_13 C60_13 1_555 1_555
H72_13 C60_13 1_555 1_555
H91_13 C76_13 1_555 1_555
H92_13 C76_13 1_555 1_555
H93_13 C76_13 1_555 1_555
H94_13 C80_13 1_555 1_555
H95_13 C80_13 1_555 1_555
H96_13 C80_13 1_555 1_555
H97_13 C81_13 1_555 1_555
H98_13 C81_13 1_555 1_555
H99_13 C81_13 1_555 1_555
H100_13 C85_13 1_555 1_555
H101_13 C85_13 1_555 1_555
H102_13 C85_13 1_555 1_555
H103_13 C86_13 1_555 1_555
H105_13 C86_13 1_555 1_555
H106_13 C90_13 1_555 1_555
H107_13 C90_13 1_555 1_555
H108_13 C90_13 1_555 1_555
H109_13 C91_13 1_555 1_555
H110_13 C91_13 1_555 1_555
H111_13 C91_13 1_555 1_555
H112_13 C95_13 1_555 1_555
H113_13 C95_13 1_555 1_555
H114_13 C95_13 1_555 1_555
H115_13 C96_13 1_555 1_555
H116_13 C96_13 1_555 1_555
H117_13 C96_13 1_555 1_555
H118_13 C100_13 1_555 1_555
H119_13 C100_13 1_555 1_555
H120_13 C100_13 1_555 1_555
H121_13 C101_13 1_555 1_555
H122_13 C101_13 1_555 1_555
H123_13 C101_13 1_555 1_555
H124_13 C105_13 1_555 1_555
H125_13 C105_13 1_555 1_555
H126_13 C105_13 1_555 1_555
H133_13 C111_13 1_555 1_555
H134_13 C111_13 1_555 1_555
H135_13 C111_13 1_555 1_555
H137_13 C115_13 1_555 1_555
H138_13 C115_13 1_555 1_555
H163_13 C136_13 1_555 1_555
H164_13 C136_13 1_555 1_555
H165_13 C136_13 1_555 1_555
H166_13 C140_13 1_555 1_555
H167_13 C140_13 1_555 1_555
H168_13 C140_13 1_555 1_555
H169_13 C141_13 1_555 1_555
H170_13 C141_13 1_555 1_555
H171_13 C141_13 1_555 1_555
H172_13 C145_13 1_555 1_555
H173_13 C145_13 1_555 1_555
H174_13 C145_13 1_555 1_555
H175_13 C146_13 1_555 1_555
H176_13 C146_13 1_555 1_555
H177_13 C146_13 1_555 1_555
H178_13 C150_13 1_555 1_555
H179_13 C150_13 1_555 1_555
H180_13 C150_13 1_555 1_555
Ag32_5 N3_5 1_555 1_555
Ag39_9 N21_9 1_555 1_555
Ag40_9 N22_9 1_555 1_555
N65_9 Ag6_9 1_555 1_555
N35_13 N36_13 1_555 1_555
N41_13 N42_13 1_555 1_555
N59_13 N60_13 1_555 1_555
C52_13 C53_13 1_555 1_555
C58_13 C59_13 1_555 1_555
C77_13 C78_13 1_555 1_555
C83_13 C84_13 1_555 1_555
C87_13 C88_13 1_555 1_555
C88_13 C89_13 1_555 1_555
C97_13 C98_13 1_555 1_555
C98_13 C99_13 1_555 1_555
C103_13 C104_13 1_555 1_555
C112_13 C113_13 1_555 1_555
C113_13 C114_13 1_555 1_555
C137_13 C138_13 1_555 1_555
C142_13 C143_13 1_555 1_555
C143_13 C144_13 1_555 1_555
C147_13 C148_13 1_555 1_555
C148_13 C149_13 1_555 1_555
N15_10 N16_10 1_555 1_555
N16_10 C39_14 1_555 1_555
C5_14 C4_14 1_555 1_555
C40_14 C39_14 1_555 1_555
H4_14 C5_14 1_555 1_555
H5_14 C5_14 1_555 1_555
H6_14 C5_14 1_555 1_555
H46_14 C40_14 1_555 1_555
H47_14 C40_14 1_555 1_555
H48_14 C40_14 1_555 1_555
Ag37_10 N15_10 1_555 1_555
Ag38_10 N16_10 1_555 1_555
Ag31_6 N1_14 1_555 1_555
Ag33_9 N4_14 1_555 1_555
Ag4_10 N7_14 1_555 1_555
Ag5_6 N8_14 1_555 1_555
Ag7_14 N13_14 1_555 1_555
Ag37_9 N14_14 1_555 1_555
Ag38_9 N17_14 1_555 1_555
Ag10_14 N19_14 1_555 1_555
Ag39_9 N20_14 1_555 1_555
Ag40_9 N23_14 1_555 1_555
Ag13_14 N25_14 1_555 1_555
Ag14_14 N26_14 1_555 1_555
Ag15_14 N28_14 1_555 1_555
Ag18_14 N34_14 1_555 1_555
Ag19_14 N37_14 1_555 1_555
Ag20_14 N38_14 1_555 1_555
Ag21_14 N40_14 1_555 1_555
Ag22_14 N43_14 1_555 1_555
Ag23_14 N44_14 1_555 1_555
Ag24_14 N46_14 1_555 1_555
Ag25_14 N49_14 1_555 1_555
Ag26_14 N50_14 1_555 1_555
Ag27_14 N52_14 1_555 1_555
Ag28_14 N55_14 1_555 1_555
Ag29_14 N56_14 1_555 1_555
Ag30_14 N58_14 1_555 1_555
N1_14 N2_14 1_555 1_555
N61_9 N4_14 1_555 1_555
N4_14 C9_14 1_555 1_555
N5_10 N6_6 1_555 1_555
N6_6 C14_14 1_555 1_555
N7_14 N8_14 1_555 1_555
N8_14 C19_14 1_555 1_555
N65_9 N66_9 1_555 1_555
N66_9 C29_14 1_555 1_555
N13_14 N14_14 1_555 1_555
N14_14 C34_14 1_555 1_555
N17_14 N18_14 1_555 1_555
N18_14 Ag7_14 1_555 1_555
N19_14 N20_14 1_555 1_555
N20_14 C49_14 1_555 1_555
N21_10 N22_10 1_555 1_555
N22_10 C54_14 1_555 1_555
N23_14 N24_14 1_555 1_555
N24_14 Ag10_14 1_555 1_555
N25_14 N26_14 1_555 1_555
N26_14 C64_14 1_555 1_555
N27_14 Ag14_14 1_555 1_555
N28_14 N27_14 1_555 1_555
N29_14 Ag15_14 1_555 1_555
N30_14 Ag13_14 1_555 1_555
N34_14 N33_14 1_555 1_555
N35_14 Ag18_14 1_555 1_555
N37_14 N38_14 1_555 1_555
N38_14 C94_14 1_555 1_555
N39_14 Ag20_14 1_555 1_555
N40_14 N39_14 1_555 1_555
N41_14 Ag21_14 1_555 1_555
N42_14 Ag19_14 1_555 1_555
N43_14 N44_14 1_555 1_555
N44_14 C109_14 1_555 1_555
N45_14 Ag23_14 1_555 1_555
N46_14 N45_14 1_555 1_555
N47_14 Ag24_14 1_555 1_555
N48_14 Ag22_14 1_555 1_555
N49_14 N50_14 1_555 1_555
N50_14 C124_14 1_555 1_555
N51_14 Ag26_14 1_555 1_555
N52_14 N51_14 1_555 1_555
N53_14 Ag27_14 1_555 1_555
N54_14 Ag25_14 1_555 1_555
N55_14 N56_14 1_555 1_555
N56_14 C139_14 1_555 1_555
N57_14 Ag29_14 1_555 1_555
N58_14 N57_14 1_555 1_555
N59_14 Ag30_14 1_555 1_555
N60_14 Ag28_14 1_555 1_555
C1_14 C2_14 1_555 1_555
C2_14 N1_14 1_555 1_555
C3_14 C2_14 1_555 1_555
C6_14 C7_14 1_555 1_555
C7_14 N61_9 1_555 1_555
C8_14 C7_14 1_555 1_555
C9_14 C8_14 1_555 1_555
C10_14 C9_14 1_555 1_555
C11_14 C12_14 1_555 1_555
C12_14 N5_10 1_555 1_555
C13_14 C12_14 1_555 1_555
C14_14 C13_14 1_555 1_555
C15_14 C14_14 1_555 1_555
C16_14 C17_14 1_555 1_555
C17_14 N7_14 1_555 1_555
C18_14 C17_14 1_555 1_555
C19_14 C18_14 1_555 1_555
C20_14 C19_14 1_555 1_555
C26_14 C27_14 1_555 1_555
C27_14 N65_9 1_555 1_555
C28_14 C27_14 1_555 1_555
C29_14 C28_14 1_555 1_555
C30_14 C29_14 1_555 1_555
C31_14 C32_14 1_555 1_555
C32_14 N13_14 1_555 1_555
C33_14 C32_14 1_555 1_555
C34_14 C33_14 1_555 1_555
C35_14 C34_14 1_555 1_555
C36_14 C37_14 1_555 1_555
C38_14 C33_14 1_555 1_555
C41_14 C42_14 1_555 1_555
C42_14 N17_14 1_555 1_555
C43_14 C42_14 1_555 1_555
C44_14 N18_14 1_555 1_555
C45_14 C44_14 1_555 1_555
C46_14 C47_14 1_555 1_555
C47_14 N19_14 1_555 1_555
C48_14 C47_14 1_555 1_555
C49_14 C48_14 1_555 1_555
C50_14 C49_14 1_555 1_555
C51_14 C52_14 1_555 1_555
C52_14 N21_10 1_555 1_555
C53_14 C48_14 1_555 1_555
C54_14 C53_14 1_555 1_555
C55_14 C54_14 1_555 1_555
C56_14 C57_14 1_555 1_555
C57_14 N23_14 1_555 1_555
C58_14 C57_14 1_555 1_555
C59_14 N24_14 1_555 1_555
C60_14 C59_14 1_555 1_555
C61_14 C62_14 1_555 1_555
C62_14 N25_14 1_555 1_555
C63_14 C3_14 1_555 1_555
C64_14 C63_14 1_555 1_555
C65_14 C64_14 1_555 1_555
C66_14 C67_14 1_555 1_555
C67_14 N27_14 1_555 1_555
C68_14 C67_14 1_555 1_555
C69_14 N28_14 1_555 1_555
C70_14 C69_14 1_555 1_555
C71_14 C72_14 1_555 1_555
C72_14 N29_14 1_555 1_555
C73_14 C28_14 1_555 1_555
C74_14 N30_14 1_555 1_555
C75_14 C74_14 1_555 1_555
C81_14 C82_14 1_555 1_555
C82_14 N33_14 1_555 1_555
C83_14 C82_14 1_555 1_555
C84_14 N34_14 1_555 1_555
C85_14 C84_14 1_555 1_555
C86_14 C87_14 1_555 1_555
C87_14 N35_14 1_555 1_555
C88_14 C8_14 1_555 1_555
C89_14 N36_14 1_555 1_555
C90_14 C89_14 1_555 1_555
C91_14 C92_14 1_555 1_555
C92_14 N37_14 1_555 1_555
C93_14 C92_14 1_555 1_555
C94_14 C93_14 1_555 1_555
C95_14 C94_14 1_555 1_555
C96_14 C97_14 1_555 1_555
C97_14 N39_14 1_555 1_555
C98_14 C83_14 1_555 1_555
C99_14 N40_14 1_555 1_555
C100_14 C99_14 1_555 1_555
C101_14 C102_14 1_555 1_555
C102_14 N41_14 1_555 1_555
C103_14 C102_14 1_555 1_555
C104_14 N42_14 1_555 1_555
C105_14 C104_14 1_555 1_555
C106_14 C107_14 1_555 1_555
C107_14 N43_14 1_555 1_555
C108_14 C107_14 1_555 1_555
C109_14 C108_14 1_555 1_555
C110_14 C109_14 1_555 1_555
C111_14 C112_14 1_555 1_555
C112_14 N45_14 1_555 1_555
C113_14 C93_14 1_555 1_555
C114_14 N46_14 1_555 1_555
C115_14 C114_14 1_555 1_555
C116_14 C117_14 1_555 1_555
C117_14 N47_14 1_555 1_555
C118_14 C68_14 1_555 1_555
C119_14 N48_14 1_555 1_555
C120_14 C119_14 1_555 1_555
C121_14 C122_14 1_555 1_555
C122_14 N49_14 1_555 1_555
C123_14 C43_14 1_555 1_555
C124_14 C123_14 1_555 1_555
C125_14 C124_14 1_555 1_555
C126_14 C127_14 1_555 1_555
C127_14 N51_14 1_555 1_555
C128_14 C108_14 1_555 1_555
C129_14 N52_14 1_555 1_555
C130_14 C129_14 1_555 1_555
C131_14 C132_14 1_555 1_555
C132_14 N53_14 1_555 1_555
C133_14 C13_14 1_555 1_555
C134_14 N54_14 1_555 1_555
C135_14 C134_14 1_555 1_555
C136_14 C137_14 1_555 1_555
C137_14 N55_14 1_555 1_555
C138_14 C103_14 1_555 1_555
C139_14 C138_14 1_555 1_555
C140_14 C139_14 1_555 1_555
C141_14 C142_14 1_555 1_555
C142_14 N57_14 1_555 1_555
C143_14 C18_14 1_555 1_555
C144_14 N58_14 1_555 1_555
C145_14 C144_14 1_555 1_555
C146_14 C147_14 1_555 1_555
C147_14 N59_14 1_555 1_555
C148_14 C58_14 1_555 1_555
C149_14 N60_14 1_555 1_555
C150_14 C149_14 1_555 1_555
H1_14 C1_14 1_555 1_555
H2_14 C1_14 1_555 1_555
H3_14 C1_14 1_555 1_555
H7_14 C6_14 1_555 1_555
H8_14 C6_14 1_555 1_555
H9_14 C6_14 1_555 1_555
H10_14 C10_14 1_555 1_555
H11_14 C10_14 1_555 1_555
H12_14 C10_14 1_555 1_555
H13_14 C11_14 1_555 1_555
H14_14 C11_14 1_555 1_555
H15_14 C11_14 1_555 1_555
H17_14 C15_14 1_555 1_555
H18_14 C15_14 1_555 1_555
H19_14 C16_14 1_555 1_555
H20_14 C16_14 1_555 1_555
H21_14 C16_14 1_555 1_555
H22_14 C20_14 1_555 1_555
H23_14 C20_14 1_555 1_555
H24_14 C20_14 1_555 1_555
H31_14 C26_14 1_555 1_555
H32_14 C26_14 1_555 1_555
H33_14 C26_14 1_555 1_555
H34_14 C30_14 1_555 1_555
H35_14 C30_14 1_555 1_555
H36_14 C30_14 1_555 1_555
H37_14 C31_14 1_555 1_555
H38_14 C31_14 1_555 1_555
H39_14 C31_14 1_555 1_555
H40_14 C35_14 1_555 1_555
H41_14 C35_14 1_555 1_555
H42_14 C35_14 1_555 1_555
H43_14 C36_14 1_555 1_555
H44_14 C36_14 1_555 1_555
H45_14 C36_14 1_555 1_555
H49_14 C41_14 1_555 1_555
H50_14 C41_14 1_555 1_555
H51_14 C41_14 1_555 1_555
H52_14 C45_14 1_555 1_555
H53_14 C45_14 1_555 1_555
H54_14 C45_14 1_555 1_555
H55_14 C46_14 1_555 1_555
H56_14 C46_14 1_555 1_555
H57_14 C46_14 1_555 1_555
H58_14 C50_14 1_555 1_555
H59_14 C50_14 1_555 1_555
H60_14 C50_14 1_555 1_555
H61_14 C51_14 1_555 1_555
H62_14 C51_14 1_555 1_555
H63_14 C51_14 1_555 1_555
H64_14 C55_14 1_555 1_555
H65_14 C55_14 1_555 1_555
H66_14 C55_14 1_555 1_555
H67_14 C56_14 1_555 1_555
H68_14 C56_14 1_555 1_555
H69_14 C56_14 1_555 1_555
H70_14 C60_14 1_555 1_555
H71_14 C60_14 1_555 1_555
H72_14 C60_14 1_555 1_555
H73_14 C61_14 1_555 1_555
H74_14 C61_14 1_555 1_555
H76_14 C65_14 1_555 1_555
H77_14 C65_14 1_555 1_555
H78_14 C65_14 1_555 1_555
H79_14 C66_14 1_555 1_555
H80_14 C66_14 1_555 1_555
H81_14 C66_14 1_555 1_555
H82_14 C70_14 1_555 1_555
H83_14 C70_14 1_555 1_555
H84_14 C70_14 1_555 1_555
H85_14 C71_14 1_555 1_555
H86_14 C71_14 1_555 1_555
H87_14 C71_14 1_555 1_555
H88_14 C75_14 1_555 1_555
H89_14 C75_14 1_555 1_555
H90_14 C75_14 1_555 1_555
H98_14 C81_14 1_555 1_555
H99_14 C81_14 1_555 1_555
H100_14 C85_14 1_555 1_555
H101_14 C85_14 1_555 1_555
H102_14 C85_14 1_555 1_555
H103_14 C86_14 1_555 1_555
H104_14 C86_14 1_555 1_555
H105_14 C86_14 1_555 1_555
H107_14 C90_14 1_555 1_555
H108_14 C90_14 1_555 1_555
H109_14 C91_14 1_555 1_555
H110_14 C91_14 1_555 1_555
H111_14 C91_14 1_555 1_555
H112_14 C95_14 1_555 1_555
H113_14 C95_14 1_555 1_555
H114_14 C95_14 1_555 1_555
H115_14 C96_14 1_555 1_555
H116_14 C96_14 1_555 1_555
H117_14 C96_14 1_555 1_555
H118_14 C100_14 1_555 1_555
H119_14 C100_14 1_555 1_555
H120_14 C100_14 1_555 1_555
H121_14 C101_14 1_555 1_555
H122_14 C101_14 1_555 1_555
H123_14 C101_14 1_555 1_555
H124_14 C105_14 1_555 1_555
H125_14 C105_14 1_555 1_555
H126_14 C105_14 1_555 1_555
H127_14 C106_14 1_555 1_555
H128_14 C106_14 1_555 1_555
H129_14 C106_14 1_555 1_555
H130_14 C110_14 1_555 1_555
H131_14 C110_14 1_555 1_555
H132_14 C110_14 1_555 1_555
H133_14 C111_14 1_555 1_555
H134_14 C111_14 1_555 1_555
H135_14 C111_14 1_555 1_555
H136_14 C115_14 1_555 1_555
H137_14 C115_14 1_555 1_555
H138_14 C115_14 1_555 1_555
H139_14 C116_14 1_555 1_555
H140_14 C116_14 1_555 1_555
H141_14 C116_14 1_555 1_555
H142_14 C120_14 1_555 1_555
H143_14 C120_14 1_555 1_555
H144_14 C120_14 1_555 1_555
H145_14 C121_14 1_555 1_555
H146_14 C121_14 1_555 1_555
H147_14 C121_14 1_555 1_555
H148_14 C125_14 1_555 1_555
H149_14 C125_14 1_555 1_555
H150_14 C125_14 1_555 1_555
H151_14 C126_14 1_555 1_555
H152_14 C126_14 1_555 1_555
H153_14 C126_14 1_555 1_555
H154_14 C130_14 1_555 1_555
H155_14 C130_14 1_555 1_555
H156_14 C130_14 1_555 1_555
H157_14 C131_14 1_555 1_555
H158_14 C131_14 1_555 1_555
H159_14 C131_14 1_555 1_555
H160_14 C135_14 1_555 1_555
H161_14 C135_14 1_555 1_555
H162_14 C135_14 1_555 1_555
H163_14 C136_14 1_555 1_555
H164_14 C136_14 1_555 1_555
H165_14 C136_14 1_555 1_555
H166_14 C140_14 1_555 1_555
H167_14 C140_14 1_555 1_555
H168_14 C140_14 1_555 1_555
H169_14 C141_14 1_555 1_555
H170_14 C141_14 1_555 1_555
H171_14 C141_14 1_555 1_555
H172_14 C145_14 1_555 1_555
H173_14 C145_14 1_555 1_555
H174_14 C145_14 1_555 1_555
H175_14 C146_14 1_555 1_555
H176_14 C146_14 1_555 1_555
H177_14 C146_14 1_555 1_555
H178_14 C150_14 1_555 1_555
H179_14 C150_14 1_555 1_555
H180_14 C150_14 1_555 1_555
Ag33_10 N5_10 1_555 1_555
Ag39_10 N21_10 1_555 1_555
Ag40_10 N22_10 1_555 1_555
N64_6 Ag5_6 1_555 1_555
N66_10 Ag4_10 1_555 1_555
N29_14 N30_14 1_555 1_555
N35_14 N36_14 1_555 1_555
N41_14 N42_14 1_555 1_555
N47_14 N48_14 1_555 1_555
N53_14 N54_14 1_555 1_555
N59_14 N60_14 1_555 1_555
C37_14 C38_14 1_555 1_555
C43_14 C44_14 1_555 1_555
C52_14 C53_14 1_555 1_555
C58_14 C59_14 1_555 1_555
C62_14 C63_14 1_555 1_555
C68_14 C69_14 1_555 1_555
C72_14 C73_14 1_555 1_555
C73_14 C74_14 1_555 1_555
C83_14 C84_14 1_555 1_555
C87_14 C88_14 1_555 1_555
C88_14 C89_14 1_555 1_555
C97_14 C98_14 1_555 1_555
C98_14 C99_14 1_555 1_555
C103_14 C104_14 1_555 1_555
C112_14 C113_14 1_555 1_555
C113_14 C114_14 1_555 1_555
C117_14 C118_14 1_555 1_555
C118_14 C119_14 1_555 1_555
C122_14 C123_14 1_555 1_555
C127_14 C128_14 1_555 1_555
C128_14 C129_14 1_555 1_555
C132_14 C133_14 1_555 1_555
C133_14 C134_14 1_555 1_555
C137_14 C138_14 1_555 1_555
C142_14 C143_14 1_555 1_555
C143_14 C144_14 1_555 1_555
C147_14 C148_14 1_555 1_555
C148_14 C149_14 1_555 1_555
Ag6_10 N10_14 1_555 1_555
Ag16_14 N31_14 1_555 1_555
Ag17_14 N32_14 1_555 1_555
N64_6 N10_14 1_555 1_555
N10_14 C24_14 1_555 1_555
N31_14 N32_14 1_555 1_555
N32_14 C79_14 1_555 1_555
C21_14 C22_14 1_555 1_555
C22_14 N64_6 1_555 1_555
C23_14 C22_14 1_555 1_555
C24_14 C23_14 1_555 1_555
C25_14 C24_14 1_555 1_555
C76_14 C77_14 1_555 1_555
C77_14 N31_14 1_555 1_555
C78_14 C23_14 1_555 1_555
C79_14 C78_14 1_555 1_555
C80_14 C79_14 1_555 1_555
H25_14 C21_14 1_555 1_555
H26_14 C21_14 1_555 1_555
H27_14 C21_14 1_555 1_555
H28_14 C25_14 1_555 1_555
H29_14 C25_14 1_555 1_555
H30_14 C25_14 1_555 1_555
H91_14 C76_14 1_555 1_555
H92_14 C76_14 1_555 1_555
H93_14 C76_14 1_555 1_555
H94_14 C80_14 1_555 1_555
H95_14 C80_14 1_555 1_555
H96_14 C80_14 1_555 1_555
N65_10 Ag6_10 1_555 1_555
C77_14 C78_14 1_555 1_555
Ag34_5 N7_15 1_555 1_555
Ag5_7 N8_15 1_555 1_555
Ag7_15 N13_15 1_555 1_555
Ag8_6 N14_15 1_555 1_555
Ag9_6 N17_15 1_555 1_555
Ag25_15 N49_15 1_555 1_555
Ag26_15 N50_15 1_555 1_555
Ag27_15 N52_15 1_555 1_555
Ag30_15 N58_15 1_555 1_555
N7_15 N8_15 1_555 1_555
N8_15 C19_15 1_555 1_555
N13_15 N14_15 1_555 1_555
N17_15 N18_15 1_555 1_555
N18_15 Ag7_15 1_555 1_555
N49_15 N50_15 1_555 1_555
N50_15 C124_15 1_555 1_555
N51_15 Ag26_15 1_555 1_555
N52_15 N51_15 1_555 1_555
N53_15 Ag27_15 1_555 1_555
N54_15 Ag25_15 1_555 1_555
N58_15 N57_15 1_555 1_555
C11_15 C12_15 1_555 1_555
C12_15 N62_5 1_555 1_555
C13_15 C12_15 1_555 1_555
C16_15 C17_15 1_555 1_555
C17_15 N7_15 1_555 1_555
C18_15 C17_15 1_555 1_555
C19_15 C18_15 1_555 1_555
C20_15 C19_15 1_555 1_555
C41_15 C42_15 1_555 1_555
C42_15 N17_15 1_555 1_555
C43_15 C42_15 1_555 1_555
C44_15 N18_15 1_555 1_555
C45_15 C44_15 1_555 1_555
C121_15 C122_15 1_555 1_555
C122_15 N49_15 1_555 1_555
C123_15 C43_15 1_555 1_555
C124_15 C123_15 1_555 1_555
C125_15 C124_15 1_555 1_555
C126_15 C127_15 1_555 1_555
C127_15 N51_15 1_555 1_555
C133_15 C13_15 1_555 1_555
C134_15 N54_15 1_555 1_555
C135_15 C134_15 1_555 1_555
C141_15 C142_15 1_555 1_555
C142_15 N57_15 1_555 1_555
C143_15 C18_15 1_555 1_555
C144_15 N58_15 1_555 1_555
C145_15 C144_15 1_555 1_555
H13_15 C11_15 1_555 1_555
H14_15 C11_15 1_555 1_555
H15_15 C11_15 1_555 1_555
H19_15 C16_15 1_555 1_555
H20_15 C16_15 1_555 1_555
H21_15 C16_15 1_555 1_555
H22_15 C20_15 1_555 1_555
H23_15 C20_15 1_555 1_555
H24_15 C20_15 1_555 1_555
H49_15 C41_15 1_555 1_555
H50_15 C41_15 1_555 1_555
H51_15 C41_15 1_555 1_555
H52_15 C45_15 1_555 1_555
H53_15 C45_15 1_555 1_555
H54_15 C45_15 1_555 1_555
H145_15 C121_15 1_555 1_555
H146_15 C121_15 1_555 1_555
H147_15 C121_15 1_555 1_555
H148_15 C125_15 1_555 1_555
H149_15 C125_15 1_555 1_555
H150_15 C125_15 1_555 1_555
H151_15 C126_15 1_555 1_555
H152_15 C126_15 1_555 1_555
H153_15 C126_15 1_555 1_555
H160_15 C135_15 1_555 1_555
H161_15 C135_15 1_555 1_555
H162_15 C135_15 1_555 1_555
H169_15 C141_15 1_555 1_555
H170_15 C141_15 1_555 1_555
H171_15 C141_15 1_555 1_555
H172_15 C145_15 1_555 1_555
H173_15 C145_15 1_555 1_555
H174_15 C145_15 1_555 1_555
N64_7 Ag5_7 1_555 1_555
N67_6 Ag8_6 1_555 1_555
N68_6 Ag9_6 1_555 1_555
N53_15 N54_15 1_555 1_555
C43_15 C44_15 1_555 1_555
C122_15 C123_15 1_555 1_555
C133_15 C134_15 1_555 1_555
C142_15 C143_15 1_555 1_555
C143_15 C144_15 1_555 1_555
N67_6 N68_6 1_555 1_555
Ag3_6 N4_15 1_555 1_555
Ag36_5 N10_15 1_555 1_555
Ag16_15 N31_15 1_555 1_555
Ag17_15 N32_15 1_555 1_555
Ag18_15 N34_15 1_555 1_555
Ag21_15 N40_15 1_555 1_555
Ag29_15 N56_15 1_555 1_555
N3_6 N4_15 1_555 1_555
N4_15 C9_15 1_555 1_555
N64_7 N10_15 1_555 1_555
N10_15 C24_15 1_555 1_555
N31_15 N32_15 1_555 1_555
N32_15 C79_15 1_555 1_555
N33_15 Ag17_15 1_555 1_555
N34_15 N33_15 1_555 1_555
N35_15 Ag18_15 1_555 1_555
N36_15 Ag16_15 1_555 1_555
N40_15 N39_15 1_555 1_555
N41_15 Ag21_15 1_555 1_555
N56_15 C139_15 1_555 1_555
C6_15 C7_15 1_555 1_555
C7_15 N3_6 1_555 1_555
C8_15 C7_15 1_555 1_555
C9_15 C8_15 1_555 1_555
C10_15 C9_15 1_555 1_555
C21_15 C22_15 1_555 1_555
C22_15 N64_7 1_555 1_555
C23_15 C22_15 1_555 1_555
C24_15 C23_15 1_555 1_555
C25_15 C24_15 1_555 1_555
C31_15 C32_15 1_555 1_555
C33_15 C32_15 1_555 1_555
C34_15 C33_15 1_555 1_555
C35_15 C34_15 1_555 1_555
C36_15 C37_15 1_555 1_555
C38_15 C33_15 1_555 1_555
C76_15 C77_15 1_555 1_555
C77_15 N31_15 1_555 1_555
C78_15 C23_15 1_555 1_555
C79_15 C78_15 1_555 1_555
C80_15 C79_15 1_555 1_555
C81_15 C82_15 1_555 1_555
C82_15 N33_15 1_555 1_555
C83_15 C82_15 1_555 1_555
C84_15 N34_15 1_555 1_555
C85_15 C84_15 1_555 1_555
C86_15 C87_15 1_555 1_555
C87_15 N35_15 1_555 1_555
C88_15 C8_15 1_555 1_555
C89_15 N36_15 1_555 1_555
C90_15 C89_15 1_555 1_555
C96_15 C97_15 1_555 1_555
C97_15 N39_15 1_555 1_555
C98_15 C83_15 1_555 1_555
C99_15 N40_15 1_555 1_555
C100_15 C99_15 1_555 1_555
C101_15 C102_15 1_555 1_555
C102_15 N41_15 1_555 1_555
C139_15 C138_15 1_555 1_555
C140_15 C139_15 1_555 1_555
H7_15 C6_15 1_555 1_555
H8_15 C6_15 1_555 1_555
H9_15 C6_15 1_555 1_555
H10_15 C10_15 1_555 1_555
H11_15 C10_15 1_555 1_555
H12_15 C10_15 1_555 1_555
H25_15 C21_15 1_555 1_555
H26_15 C21_15 1_555 1_555
H27_15 C21_15 1_555 1_555
H28_15 C25_15 1_555 1_555
H29_15 C25_15 1_555 1_555
H30_15 C25_15 1_555 1_555
H37_15 C31_15 1_555 1_555
H38_15 C31_15 1_555 1_555
H39_15 C31_15 1_555 1_555
H40_15 C35_15 1_555 1_555
H41_15 C35_15 1_555 1_555
H42_15 C35_15 1_555 1_555
H43_15 C36_15 1_555 1_555
H44_15 C36_15 1_555 1_555
H45_15 C36_15 1_555 1_555
H91_15 C76_15 1_555 1_555
H92_15 C76_15 1_555 1_555
H93_15 C76_15 1_555 1_555
H94_15 C80_15 1_555 1_555
H95_15 C80_15 1_555 1_555
H96_15 C80_15 1_555 1_555
H97_15 C81_15 1_555 1_555
H98_15 C81_15 1_555 1_555
H99_15 C81_15 1_555 1_555
H100_15 C85_15 1_555 1_555
H101_15 C85_15 1_555 1_555
H102_15 C85_15 1_555 1_555
H103_15 C86_15 1_555 1_555
H104_15 C86_15 1_555 1_555
H105_15 C86_15 1_555 1_555
H106_15 C90_15 1_555 1_555
H107_15 C90_15 1_555 1_555
H108_15 C90_15 1_555 1_555
H115_15 C96_15 1_555 1_555
H116_15 C96_15 1_555 1_555
H117_15 C96_15 1_555 1_555
H118_15 C100_15 1_555 1_555
H119_15 C100_15 1_555 1_555
H120_15 C100_15 1_555 1_555
H121_15 C101_15 1_555 1_555
H122_15 C101_15 1_555 1_555
H123_15 C101_15 1_555 1_555
H166_15 C140_15 1_555 1_555
H167_15 C140_15 1_555 1_555
H168_15 C140_15 1_555 1_555
Ag32_6 N3_6 1_555 1_555
N62_6 Ag3_6 1_555 1_555
N35_15 N36_15 1_555 1_555
C37_15 C38_15 1_555 1_555
C77_15 C78_15 1_555 1_555
C83_15 C84_15 1_555 1_555
C87_15 C88_15 1_555 1_555
C88_15 C89_15 1_555 1_555
C97_15 C98_15 1_555 1_555
C98_15 C99_15 1_555 1_555
N68_5 C39_15 1_555 1_555
C40_15 C39_15 1_555 1_555
H46_15 C40_15 1_555 1_555
H47_15 C40_15 1_555 1_555
Ag10_15 N19_15 1_555 1_555
Ag11_6 N20_15 1_555 1_555
Ag12_6 N23_15 1_555 1_555
N6_7 C14_15 1_555 1_555
N19_15 N20_15 1_555 1_555
N20_15 C49_15 1_555 1_555
N70_5 C54_15 1_555 1_555
N23_15 N24_15 1_555 1_555
N24_15 Ag10_15 1_555 1_555
N43_15 N44_15 1_555 1_555
N44_15 C109_15 1_555 1_555
N60_15 Ag28_15 1_555 1_555
C15_15 C14_15 1_555 1_555
C46_15 C47_15 1_555 1_555
C47_15 N19_15 1_555 1_555
C48_15 C47_15 1_555 1_555
C49_15 C48_15 1_555 1_555
C50_15 C49_15 1_555 1_555
C51_15 C52_15 1_555 1_555
C52_15 N69_5 1_555 1_555
C53_15 C48_15 1_555 1_555
C54_15 C53_15 1_555 1_555
C55_15 C54_15 1_555 1_555
C56_15 C57_15 1_555 1_555
C57_15 N23_15 1_555 1_555
C58_15 C57_15 1_555 1_555
C59_15 N24_15 1_555 1_555
C60_15 C59_15 1_555 1_555
C106_15 C107_15 1_555 1_555
C107_15 N43_15 1_555 1_555
C108_15 C107_15 1_555 1_555
C109_15 C108_15 1_555 1_555
C110_15 C109_15 1_555 1_555
C128_15 C108_15 1_555 1_555
C130_15 C129_15 1_555 1_555
C131_15 C132_15 1_555 1_555
C146_15 C147_15 1_555 1_555
C147_15 N59_15 1_555 1_555
C148_15 C58_15 1_555 1_555
C149_15 N60_15 1_555 1_555
C150_15 C149_15 1_555 1_555
H16_15 C15_15 1_555 1_555
H17_15 C15_15 1_555 1_555
H18_15 C15_15 1_555 1_555
H55_15 C46_15 1_555 1_555
H56_15 C46_15 1_555 1_555
H57_15 C46_15 1_555 1_555
H58_15 C50_15 1_555 1_555
H59_15 C50_15 1_555 1_555
H60_15 C50_15 1_555 1_555
H61_15 C51_15 1_555 1_555
H62_15 C51_15 1_555 1_555
H63_15 C51_15 1_555 1_555
H64_15 C55_15 1_555 1_555
H65_15 C55_15 1_555 1_555
H66_15 C55_15 1_555 1_555
H67_15 C56_15 1_555 1_555
H68_15 C56_15 1_555 1_555
H69_15 C56_15 1_555 1_555
H70_15 C60_15 1_555 1_555
H71_15 C60_15 1_555 1_555
H72_15 C60_15 1_555 1_555
H127_15 C106_15 1_555 1_555
H128_15 C106_15 1_555 1_555
H129_15 C106_15 1_555 1_555
H130_15 C110_15 1_555 1_555
H132_15 C110_15 1_555 1_555
H154_15 C130_15 1_555 1_555
H155_15 C130_15 1_555 1_555
H156_15 C130_15 1_555 1_555
H157_15 C131_15 1_555 1_555
H158_15 C131_15 1_555 1_555
H159_15 C131_15 1_555 1_555
H175_15 C146_15 1_555 1_555
H176_15 C146_15 1_555 1_555
H177_15 C146_15 1_555 1_555
H178_15 C150_15 1_555 1_555
H179_15 C150_15 1_555 1_555
H180_15 C150_15 1_555 1_555
Ag31_7 N6_7 1_555 1_555
N69_6 Ag11_6 1_555 1_555
N70_6 Ag12_6 1_555 1_555
N59_15 N60_15 1_555 1_555
C52_15 C53_15 1_555 1_555
C58_15 C59_15 1_555 1_555
C128_15 C129_15 1_555 1_555
C147_15 C148_15 1_555 1_555
C148_15 C149_15 1_555 1_555
N69_6 N70_6 1_555 1_555
Ag31_7 N1_15 1_555 1_555
Ag13_15 N25_15 1_555 1_555
Ag14_15 N26_15 1_555 1_555
Ag15_15 N28_15 1_555 1_555
Ag19_15 N37_15 1_555 1_555
Ag20_15 N38_15 1_555 1_555
Ag24_15 N46_15 1_555 1_555
N1_15 N2_15 1_555 1_555
N11_6 N12_6 1_555 1_555
N12_6 C29_15 1_555 1_555
N25_15 N26_15 1_555 1_555
N26_15 C64_15 1_555 1_555
N27_15 Ag14_15 1_555 1_555
N28_15 N27_15 1_555 1_555
N29_15 Ag15_15 1_555 1_555
N30_15 Ag13_15 1_555 1_555
N37_15 N38_15 1_555 1_555
N38_15 C94_15 1_555 1_555
N42_15 Ag19_15 1_555 1_555
N45_15 Ag23_15 1_555 1_555
N46_15 N45_15 1_555 1_555
N47_15 Ag24_15 1_555 1_555
N48_15 Ag22_15 1_555 1_555
C1_15 C2_15 1_555 1_555
C2_15 N1_15 1_555 1_555
C3_15 C2_15 1_555 1_555
C26_15 C27_15 1_555 1_555
C27_15 N11_6 1_555 1_555
C28_15 C27_15 1_555 1_555
C29_15 C28_15 1_555 1_555
C30_15 C29_15 1_555 1_555
C61_15 C62_15 1_555 1_555
C62_15 N25_15 1_555 1_555
C63_15 C3_15 1_555 1_555
C64_15 C63_15 1_555 1_555
C65_15 C64_15 1_555 1_555
C66_15 C67_15 1_555 1_555
C67_15 N27_15 1_555 1_555
C68_15 C67_15 1_555 1_555
C69_15 N28_15 1_555 1_555
C70_15 C69_15 1_555 1_555
C71_15 C72_15 1_555 1_555
C72_15 N29_15 1_555 1_555
C73_15 C28_15 1_555 1_555
C74_15 N30_15 1_555 1_555
C75_15 C74_15 1_555 1_555
C91_15 C92_15 1_555 1_555
C92_15 N37_15 1_555 1_555
C93_15 C92_15 1_555 1_555
C94_15 C93_15 1_555 1_555
C95_15 C94_15 1_555 1_555
C104_15 N42_15 1_555 1_555
C105_15 C104_15 1_555 1_555
C111_15 C112_15 1_555 1_555
C112_15 N45_15 1_555 1_555
C113_15 C93_15 1_555 1_555
C114_15 N46_15 1_555 1_555
C115_15 C114_15 1_555 1_555
C116_15 C117_15 1_555 1_555
C117_15 N47_15 1_555 1_555
C118_15 C68_15 1_555 1_555
C119_15 N48_15 1_555 1_555
C120_15 C119_15 1_555 1_555
C136_15 C137_15 1_555 1_555
C137_15 N55_15 1_555 1_555
H1_15 C1_15 1_555 1_555
H2_15 C1_15 1_555 1_555
H3_15 C1_15 1_555 1_555
H31_15 C26_15 1_555 1_555
H32_15 C26_15 1_555 1_555
H33_15 C26_15 1_555 1_555
H34_15 C30_15 1_555 1_555
H35_15 C30_15 1_555 1_555
H36_15 C30_15 1_555 1_555
H73_15 C61_15 1_555 1_555
H74_15 C61_15 1_555 1_555
H76_15 C65_15 1_555 1_555
H77_15 C65_15 1_555 1_555
H78_15 C65_15 1_555 1_555
H79_15 C66_15 1_555 1_555
H80_15 C66_15 1_555 1_555
H81_15 C66_15 1_555 1_555
H82_15 C70_15 1_555 1_555
H83_15 C70_15 1_555 1_555
H84_15 C70_15 1_555 1_555
H85_15 C71_15 1_555 1_555
H86_15 C71_15 1_555 1_555
H87_15 C71_15 1_555 1_555
H88_15 C75_15 1_555 1_555
H89_15 C75_15 1_555 1_555
H90_15 C75_15 1_555 1_555
H109_15 C91_15 1_555 1_555
H110_15 C91_15 1_555 1_555
H111_15 C91_15 1_555 1_555
H112_15 C95_15 1_555 1_555
H113_15 C95_15 1_555 1_555
H114_15 C95_15 1_555 1_555
H124_15 C105_15 1_555 1_555
H125_15 C105_15 1_555 1_555
H126_15 C105_15 1_555 1_555
H133_15 C111_15 1_555 1_555
H134_15 C111_15 1_555 1_555
H135_15 C111_15 1_555 1_555
H136_15 C115_15 1_555 1_555
H137_15 C115_15 1_555 1_555
H138_15 C115_15 1_555 1_555
H139_15 C116_15 1_555 1_555
H140_15 C116_15 1_555 1_555
H141_15 C116_15 1_555 1_555
H142_15 C120_15 1_555 1_555
H143_15 C120_15 1_555 1_555
H144_15 C120_15 1_555 1_555
H163_15 C136_15 1_555 1_555
H164_15 C136_15 1_555 1_555
H165_15 C136_15 1_555 1_555
Ag34_6 N12_6 1_555 1_555
Ag36_6 N11_6 1_555 1_555
N29_15 N30_15 1_555 1_555
N47_15 N48_15 1_555 1_555
C62_15 C63_15 1_555 1_555
C68_15 C69_15 1_555 1_555
C72_15 C73_15 1_555 1_555
C73_15 C74_15 1_555 1_555
C103_15 C104_15 1_555 1_555
C112_15 C113_15 1_555 1_555
C113_15 C114_15 1_555 1_555
C117_15 C118_15 1_555 1_555
C118_15 C119_15 1_555 1_555
C5_15 C4_15 1_555 1_555
H4_15 C5_15 1_555 1_555
H5_15 C5_15 1_555 1_555
H6_15 C5_15 1_555 1_555
Ag34_6 N7_16 1_555 1_555
Ag5_8 N8_16 1_555 1_555
Ag7_16 N13_16 1_555 1_555
Ag37_10 N14_16 1_555 1_555
Ag38_10 N17_16 1_555 1_555
Ag10_16 N19_16 1_555 1_555
Ag39_10 N20_16 1_555 1_555
Ag40_10 N23_16 1_555 1_555
Ag15_16 N28_16 1_555 1_555
Ag19_16 N37_16 1_555 1_555
Ag22_16 N43_16 1_555 1_555
Ag23_16 N44_16 1_555 1_555
Ag24_16 N46_16 1_555 1_555
Ag25_16 N49_16 1_555 1_555
Ag26_16 N50_16 1_555 1_555
Ag27_16 N52_16 1_555 1_555
Ag28_16 N55_16 1_555 1_555
Ag29_16 N56_16 1_555 1_555
Ag30_16 N58_16 1_555 1_555
N62_6 N6_8 1_555 1_555
N6_8 C14_16 1_555 1_555
N7_16 N8_16 1_555 1_555
N8_16 C19_16 1_555 1_555
N13_16 N14_16 1_555 1_555
N14_16 C34_16 1_555 1_555
N68_6 C39_16 1_555 1_555
N17_16 N18_16 1_555 1_555
N18_16 Ag7_16 1_555 1_555
N19_16 N20_16 1_555 1_555
N20_16 C49_16 1_555 1_555
N70_6 C54_16 1_555 1_555
N23_16 N24_16 1_555 1_555
N24_16 Ag10_16 1_555 1_555
N27_16 Ag14_16 1_555 1_555
N28_16 N27_16 1_555 1_555
N37_16 N38_16 1_555 1_555
N38_16 C94_16 1_555 1_555
N42_16 Ag19_16 1_555 1_555
N43_16 N44_16 1_555 1_555
N44_16 C109_16 1_555 1_555
N45_16 Ag23_16 1_555 1_555
N46_16 N45_16 1_555 1_555
N47_16 Ag24_16 1_555 1_555
N48_16 Ag22_16 1_555 1_555
N49_16 N50_16 1_555 1_555
N50_16 C124_16 1_555 1_555
N51_16 Ag26_16 1_555 1_555
N52_16 N51_16 1_555 1_555
N53_16 Ag27_16 1_555 1_555
N54_16 Ag25_16 1_555 1_555
N55_16 N56_16 1_555 1_555
N56_16 C139_16 1_555 1_555
N57_16 Ag29_16 1_555 1_555
N58_16 N57_16 1_555 1_555
N59_16 Ag30_16 1_555 1_555
N60_16 Ag28_16 1_555 1_555
C11_16 C12_16 1_555 1_555
C12_16 N62_6 1_555 1_555
C13_16 C12_16 1_555 1_555
C14_16 C13_16 1_555 1_555
C15_16 C14_16 1_555 1_555
C16_16 C17_16 1_555 1_555
C17_16 N7_16 1_555 1_555
C18_16 C17_16 1_555 1_555
C19_16 C18_16 1_555 1_555
C20_16 C19_16 1_555 1_555
C31_16 C32_16 1_555 1_555
C32_16 N13_16 1_555 1_555
C33_16 C32_16 1_555 1_555
C34_16 C33_16 1_555 1_555
C35_16 C34_16 1_555 1_555
C36_16 C37_16 1_555 1_555
C37_16 N67_6 1_555 1_555
C38_16 C33_16 1_555 1_555
C39_16 C38_16 1_555 1_555
C40_16 C39_16 1_555 1_555
C41_16 C42_16 1_555 1_555
C42_16 N17_16 1_555 1_555
C43_16 C42_16 1_555 1_555
C44_16 N18_16 1_555 1_555
C45_16 C44_16 1_555 1_555
C46_16 C47_16 1_555 1_555
C47_16 N19_16 1_555 1_555
C48_16 C47_16 1_555 1_555
C49_16 C48_16 1_555 1_555
C50_16 C49_16 1_555 1_555
C51_16 C52_16 1_555 1_555
C52_16 N69_6 1_555 1_555
C53_16 C48_16 1_555 1_555
C54_16 C53_16 1_555 1_555
C55_16 C54_16 1_555 1_555
C56_16 C57_16 1_555 1_555
C57_16 N23_16 1_555 1_555
C58_16 C57_16 1_555 1_555
C59_16 N24_16 1_555 1_555
C60_16 C59_16 1_555 1_555
C66_16 C67_16 1_555 1_555
C67_16 N27_16 1_555 1_555
C68_16 C67_16 1_555 1_555
C69_16 N28_16 1_555 1_555
C70_16 C69_16 1_555 1_555
C91_16 C92_16 1_555 1_555
C92_16 N37_16 1_555 1_555
C93_16 C92_16 1_555 1_555
C94_16 C93_16 1_555 1_555
C95_16 C94_16 1_555 1_555
C101_16 C102_16 1_555 1_555
C102_16 N41_16 1_555 1_555
C103_16 C102_16 1_555 1_555
C104_16 N42_16 1_555 1_555
C105_16 C104_16 1_555 1_555
C106_16 C107_16 1_555 1_555
C107_16 N43_16 1_555 1_555
C108_16 C107_16 1_555 1_555
C109_16 C108_16 1_555 1_555
C110_16 C109_16 1_555 1_555
C111_16 C112_16 1_555 1_555
C112_16 N45_16 1_555 1_555
C113_16 C93_16 1_555 1_555
C114_16 N46_16 1_555 1_555
C115_16 C114_16 1_555 1_555
C116_16 C117_16 1_555 1_555
C117_16 N47_16 1_555 1_555
C118_16 C68_16 1_555 1_555
C119_16 N48_16 1_555 1_555
C120_16 C119_16 1_555 1_555
C121_16 C122_16 1_555 1_555
C122_16 N49_16 1_555 1_555
C123_16 C43_16 1_555 1_555
C124_16 C123_16 1_555 1_555
C125_16 C124_16 1_555 1_555
C126_16 C127_16 1_555 1_555
C127_16 N51_16 1_555 1_555
C128_16 C108_16 1_555 1_555
C129_16 N52_16 1_555 1_555
C130_16 C129_16 1_555 1_555
C131_16 C132_16 1_555 1_555
C132_16 N53_16 1_555 1_555
C133_16 C13_16 1_555 1_555
C134_16 N54_16 1_555 1_555
C135_16 C134_16 1_555 1_555
C136_16 C137_16 1_555 1_555
C137_16 N55_16 1_555 1_555
C138_16 C103_16 1_555 1_555
C139_16 C138_16 1_555 1_555
C140_16 C139_16 1_555 1_555
C141_16 C142_16 1_555 1_555
C142_16 N57_16 1_555 1_555
C143_16 C18_16 1_555 1_555
C144_16 N58_16 1_555 1_555
C145_16 C144_16 1_555 1_555
C146_16 C147_16 1_555 1_555
C147_16 N59_16 1_555 1_555
C148_16 C58_16 1_555 1_555
C149_16 N60_16 1_555 1_555
C150_16 C149_16 1_555 1_555
H13_16 C11_16 1_555 1_555
H14_16 C11_16 1_555 1_555
H15_16 C11_16 1_555 1_555
H16_16 C15_16 1_555 1_555
H17_16 C15_16 1_555 1_555
H18_16 C15_16 1_555 1_555
H19_16 C16_16 1_555 1_555
H20_16 C16_16 1_555 1_555
H21_16 C16_16 1_555 1_555
H22_16 C20_16 1_555 1_555
H23_16 C20_16 1_555 1_555
H24_16 C20_16 1_555 1_555
H37_16 C31_16 1_555 1_555
H38_16 C31_16 1_555 1_555
H39_16 C31_16 1_555 1_555
H40_16 C35_16 1_555 1_555
H41_16 C35_16 1_555 1_555
H42_16 C35_16 1_555 1_555
H43_16 C36_16 1_555 1_555
H44_16 C36_16 1_555 1_555
H45_16 C36_16 1_555 1_555
H46_16 C40_16 1_555 1_555
H47_16 C40_16 1_555 1_555
H48_15 C40_16 1_555 1_555
H49_16 C41_16 1_555 1_555
H50_16 C41_16 1_555 1_555
H51_16 C41_16 1_555 1_555
H52_16 C45_16 1_555 1_555
H53_16 C45_16 1_555 1_555
H54_16 C45_16 1_555 1_555
H55_16 C46_16 1_555 1_555
H56_16 C46_16 1_555 1_555
H57_16 C46_16 1_555 1_555
H58_16 C50_16 1_555 1_555
H59_16 C50_16 1_555 1_555
H60_16 C50_16 1_555 1_555
H61_16 C51_16 1_555 1_555
H62_16 C51_16 1_555 1_555
H63_16 C51_16 1_555 1_555
H64_16 C55_16 1_555 1_555
H65_16 C55_16 1_555 1_555
H66_16 C55_16 1_555 1_555
H67_16 C56_16 1_555 1_555
H68_16 C56_16 1_555 1_555
H69_16 C56_16 1_555 1_555
H70_16 C60_16 1_555 1_555
H71_16 C60_16 1_555 1_555
H72_16 C60_16 1_555 1_555
H79_16 C66_16 1_555 1_555
H80_16 C66_16 1_555 1_555
H81_16 C66_16 1_555 1_555
H82_16 C70_16 1_555 1_555
H83_16 C70_16 1_555 1_555
H84_16 C70_16 1_555 1_555
H109_16 C91_16 1_555 1_555
H110_16 C91_16 1_555 1_555
H111_16 C91_16 1_555 1_555
H114_16 C95_16 1_555 1_555
H122_16 C101_16 1_555 1_555
H123_16 C101_16 1_555 1_555
H124_16 C105_16 1_555 1_555
H125_16 C105_16 1_555 1_555
H126_16 C105_16 1_555 1_555
H127_16 C106_16 1_555 1_555
H128_16 C106_16 1_555 1_555
H129_16 C106_16 1_555 1_555
H130_16 C110_16 1_555 1_555
H131_16 C110_16 1_555 1_555
H132_16 C110_16 1_555 1_555
H133_16 C111_16 1_555 1_555
H134_16 C111_16 1_555 1_555
H135_16 C111_16 1_555 1_555
H136_16 C115_16 1_555 1_555
H137_16 C115_16 1_555 1_555
H138_16 C115_16 1_555 1_555
H139_16 C116_16 1_555 1_555
H140_16 C116_16 1_555 1_555
H141_16 C116_16 1_555 1_555
H142_16 C120_16 1_555 1_555
H143_16 C120_16 1_555 1_555
H144_16 C120_16 1_555 1_555
H145_16 C121_16 1_555 1_555
H146_16 C121_16 1_555 1_555
H147_16 C121_16 1_555 1_555
H148_16 C125_16 1_555 1_555
H149_16 C125_16 1_555 1_555
H150_16 C125_16 1_555 1_555
H151_16 C126_16 1_555 1_555
H152_16 C126_16 1_555 1_555
H153_16 C126_16 1_555 1_555
H154_16 C130_16 1_555 1_555
H155_16 C130_16 1_555 1_555
H156_16 C130_16 1_555 1_555
H157_16 C131_16 1_555 1_555
H158_16 C131_16 1_555 1_555
H159_16 C131_16 1_555 1_555
H160_16 C135_16 1_555 1_555
H161_16 C135_16 1_555 1_555
H162_16 C135_16 1_555 1_555
H163_16 C136_16 1_555 1_555
H164_16 C136_16 1_555 1_555
H165_16 C136_16 1_555 1_555
H166_16 C140_16 1_555 1_555
H167_16 C140_16 1_555 1_555
H168_16 C140_16 1_555 1_555
H169_16 C141_16 1_555 1_555
H170_16 C141_16 1_555 1_555
H171_16 C141_16 1_555 1_555
H172_16 C145_16 1_555 1_555
H173_16 C145_16 1_555 1_555
H174_16 C145_16 1_555 1_555
H175_16 C146_16 1_555 1_555
H176_16 C146_16 1_555 1_555
H177_16 C146_16 1_555 1_555
H178_16 C150_16 1_555 1_555
H179_16 C150_16 1_555 1_555
H180_16 C150_16 1_555 1_555
Ag31_8 N6_8 1_555 1_555
N64_8 Ag5_8 1_555 1_555
N41_16 N42_16 1_555 1_555
N47_16 N48_16 1_555 1_555
N53_16 N54_16 1_555 1_555
N59_16 N60_16 1_555 1_555
C37_16 C38_16 1_555 1_555
C43_16 C44_16 1_555 1_555
C52_16 C53_16 1_555 1_555
C58_16 C59_16 1_555 1_555
C68_16 C69_16 1_555 1_555
C103_16 C104_16 1_555 1_555
C112_16 C113_16 1_555 1_555
C113_16 C114_16 1_555 1_555
C117_16 C118_16 1_555 1_555
C118_16 C119_16 1_555 1_555
C122_16 C123_16 1_555 1_555
C127_16 C128_16 1_555 1_555
C128_16 C129_16 1_555 1_555
C132_16 C133_16 1_555 1_555
C133_16 C134_16 1_555 1_555
C137_16 C138_16 1_555 1_555
C142_16 C143_16 1_555 1_555
C143_16 C144_16 1_555 1_555
C147_16 C148_16 1_555 1_555
C148_16 C149_16 1_555 1_555
Ag31_8 N1_16 1_555 1_555
Ag32_6 N2_16 1_555 1_555
Ag36_6 N10_16 1_555 1_555
Ag13_16 N25_16 1_555 1_555
Ag16_16 N31_16 1_555 1_555
Ag17_16 N32_16 1_555 1_555
Ag18_16 N34_16 1_555 1_555
Ag21_16 N40_16 1_555 1_555
N1_16 N2_16 1_555 1_555
N2_16 C4_16 1_555 1_555
N61_10 N4_16 1_555 1_555
N4_16 C9_16 1_555 1_555
N64_8 N10_16 1_555 1_555
N10_16 C24_16 1_555 1_555
N65_10 N66_10 1_555 1_555
N66_10 C29_16 1_555 1_555
N25_16 N26_16 1_555 1_555
N26_16 C64_16 1_555 1_555
N30_16 Ag13_16 1_555 1_555
N31_16 N32_16 1_555 1_555
N32_16 C79_16 1_555 1_555
N33_16 Ag17_16 1_555 1_555
N34_16 N33_16 1_555 1_555
N35_16 Ag18_16 1_555 1_555
N36_16 Ag16_16 1_555 1_555
N39_16 Ag20_16 1_555 1_555
N40_16 N39_16 1_555 1_555
C1_16 C2_16 1_555 1_555
C2_16 N1_16 1_555 1_555
C3_16 C2_16 1_555 1_555
C4_16 C3_16 1_555 1_555
C5_16 C4_16 1_555 1_555
C6_16 C7_16 1_555 1_555
C7_16 N61_10 1_555 1_555
C8_16 C7_16 1_555 1_555
C9_16 C8_16 1_555 1_555
C10_16 C9_16 1_555 1_555
C21_16 C22_16 1_555 1_555
C22_16 N64_8 1_555 1_555
C23_16 C22_16 1_555 1_555
C24_16 C23_16 1_555 1_555
C25_16 C24_16 1_555 1_555
C26_16 C27_16 1_555 1_555
C27_16 N65_10 1_555 1_555
C28_16 C27_16 1_555 1_555
C29_16 C28_16 1_555 1_555
C30_16 C29_16 1_555 1_555
C61_16 C62_16 1_555 1_555
C62_16 N25_16 1_555 1_555
C63_16 C3_16 1_555 1_555
C64_16 C63_16 1_555 1_555
C65_16 C64_16 1_555 1_555
C71_16 C72_16 1_555 1_555
C72_16 N29_16 1_555 1_555
C73_16 C28_16 1_555 1_555
C74_16 N30_16 1_555 1_555
C75_16 C74_16 1_555 1_555
C76_16 C77_16 1_555 1_555
C77_16 N31_16 1_555 1_555
C78_16 C23_16 1_555 1_555
C79_16 C78_16 1_555 1_555
C80_16 C79_16 1_555 1_555
C81_16 C82_16 1_555 1_555
C82_16 N33_16 1_555 1_555
C83_16 C82_16 1_555 1_555
C84_16 N34_16 1_555 1_555
C85_16 C84_16 1_555 1_555
C86_16 C87_16 1_555 1_555
C87_16 N35_16 1_555 1_555
C88_16 C8_16 1_555 1_555
C89_16 N36_16 1_555 1_555
C90_16 C89_16 1_555 1_555
C96_16 C97_16 1_555 1_555
C97_16 N39_16 1_555 1_555
C98_16 C83_16 1_555 1_555
C99_16 N40_16 1_555 1_555
C100_16 C99_16 1_555 1_555
H1_16 C1_16 1_555 1_555
H2_16 C1_16 1_555 1_555
H3_16 C1_16 1_555 1_555
H4_16 C5_16 1_555 1_555
H5_16 C5_16 1_555 1_555
H6_16 C5_16 1_555 1_555
H7_16 C6_16 1_555 1_555
H8_16 C6_16 1_555 1_555
H9_16 C6_16 1_555 1_555
H10_16 C10_16 1_555 1_555
H11_16 C10_16 1_555 1_555
H12_16 C10_16 1_555 1_555
H25_16 C21_16 1_555 1_555
H26_16 C21_16 1_555 1_555
H27_16 C21_16 1_555 1_555
H28_16 C25_16 1_555 1_555
H29_16 C25_16 1_555 1_555
H30_16 C25_16 1_555 1_555
H31_16 C26_16 1_555 1_555
H32_16 C26_16 1_555 1_555
H33_16 C26_16 1_555 1_555
H34_16 C30_16 1_555 1_555
H35_16 C30_16 1_555 1_555
H36_16 C30_16 1_555 1_555
H73_16 C61_16 1_555 1_555
H74_16 C61_16 1_555 1_555
H75_16 C61_16 1_555 1_555
H77_16 C65_16 1_555 1_555
H78_16 C65_16 1_555 1_555
H86_16 C71_16 1_555 1_555
H87_16 C71_16 1_555 1_555
H88_16 C75_16 1_555 1_555
H89_16 C75_16 1_555 1_555
H90_16 C75_16 1_555 1_555
H91_16 C76_16 1_555 1_555
H92_16 C76_16 1_555 1_555
H93_16 C76_16 1_555 1_555
H94_16 C80_16 1_555 1_555
H95_16 C80_16 1_555 1_555
H96_16 C80_16 1_555 1_555
H97_16 C81_16 1_555 1_555
H98_16 C81_16 1_555 1_555
H99_16 C81_16 1_555 1_555
H100_16 C85_16 1_555 1_555
H101_16 C85_16 1_555 1_555
H102_16 C85_16 1_555 1_555
H103_16 C86_16 1_555 1_555
H104_16 C86_16 1_555 1_555
H105_16 C86_16 1_555 1_555
H106_16 C90_16 1_555 1_555
H107_16 C90_16 1_555 1_555
H108_16 C90_16 1_555 1_555
H115_16 C96_16 1_555 1_555
H116_16 C96_16 1_555 1_555
H117_16 C96_16 1_555 1_555
H118_16 C100_16 1_555 1_555
H119_16 C100_16 1_555 1_555
H120_16 C100_16 1_555 1_555
N29_16 N30_16 1_555 1_555
N35_16 N36_16 1_555 1_555
C62_16 C63_16 1_555 1_555
C72_16 C73_16 1_555 1_555
C73_16 C74_16 1_555 1_555
C77_16 C78_16 1_555 1_555
C83_16 C84_16 1_555 1_555
C87_16 C88_16 1_555 1_555
C88_16 C89_16 1_555 1_555
C97_16 C98_16 1_555 1_555
C98_16 C99_16 1_555 1_555

#END
