
###############################################################################
#
# This file contains modified crystal structure data generated from the
# MOF subset of the Cambridge Structural Database (CSD) v543 
# hosted by the Cambridge Crystallographic Data Centre (CCDC).
#
# This work is licensed under the Creative Commons
# Attribution-NonCommercial-ShareAlike 4.0 International License.
# To view a copy of this license, visit
# http://creativecommons.org/licenses/by-nc-sa/4.0/
# or send a letter to
# Creative Commons, PO Box 1866, Mountain View, CA 94042, USA.
#
# CIF created using the CSD Python API on 29 September 2022
# The structure has been converted into the P1 space group
# The structure has a 3D framework
# The original CSD entry YEVTOL is in the cubic crystal system
# The framework has been calculated to contain at least 10.0% void space
# The void calculation uses a probe of radius 1.32A, grid spacing 0.4
# The framework is charged, counterions have been retained in the structure
# H atom positions have been added when not included in the experimental data
# Generated hydrogen atom positions removed from atoms on special positions
#
###############################################################################

data_YEVTOL
_chemical_formula_moiety         '(C1152 H1728 N144 O1020 Zn156 88-)n'
_symmetry_cell_setting           triclinic
_symmetry_space_group_name_H-M   'P 1'
_symmetry_Int_Tables_number      1
_space_group_name_Hall           'P 1'
loop_
_symmetry_equiv_pos_site_id
_symmetry_equiv_pos_as_xyz
1 x,y,z
_cell_length_a                   43.785(16)
_cell_length_b                   43.785(16)
_cell_length_c                   43.785(16)
_cell_angle_alpha                90
_cell_angle_beta                 90
_cell_angle_gamma                90
_cell_volume                     83941.4
loop_
_atom_site_label
_atom_site_type_symbol
_atom_site_fract_x
_atom_site_fract_y
_atom_site_fract_z
O1 O 0.5000 0.784(2) 0.3357(18)
O2 O 0.5000 0.797(2) 0.3921(18)
O3 O 0.5000 0.7417(18) 0.375(2)
N1 N 0.5000 0.7741(14) 0.3676(14)
O1_2 O 0.5000 0.216(2) 0.3357(18)
O2_2 O 0.5000 0.203(2) 0.3921(18)
O3_2 O 0.5000 0.2583(18) 0.375(2)
N1_2 N 0.5000 0.2259(14) 0.3676(14)
O1_3 O 0.5000 0.784(2) 0.6643(18)
O2_3 O 0.5000 0.797(2) 0.6079(18)
O3_3 O 0.5000 0.7417(18) 0.625(2)
N1_3 N 0.5000 0.7741(14) 0.6324(14)
O1_4 O 0.5000 0.216(2) 0.6643(18)
O2_4 O 0.5000 0.203(2) 0.6079(18)
O3_4 O 0.5000 0.2583(18) 0.625(2)
N1_4 N 0.5000 0.2259(14) 0.6324(14)
O1_5 O 0.3357(18) 0.5000 0.784(2)
O2_5 O 0.3921(18) 0.5000 0.797(2)
O3_5 O 0.375(2) 0.5000 0.7417(18)
N1_5 N 0.3676(14) 0.5000 0.7741(14)
O1_6 O 0.3357(18) 0.5000 0.216(2)
O2_6 O 0.3921(18) 0.5000 0.203(2)
O3_6 O 0.375(2) 0.5000 0.2583(18)
N1_6 N 0.3676(14) 0.5000 0.2259(14)
O1_7 O 0.6643(18) 0.5000 0.784(2)
O2_7 O 0.6079(18) 0.5000 0.797(2)
O3_7 O 0.625(2) 0.5000 0.7417(18)
N1_7 N 0.6324(14) 0.5000 0.7741(14)
O1_8 O 0.6643(18) 0.5000 0.216(2)
O2_8 O 0.6079(18) 0.5000 0.203(2)
O3_8 O 0.625(2) 0.5000 0.2583(18)
N1_8 N 0.6324(14) 0.5000 0.2259(14)
O1_9 O 0.784(2) 0.3357(18) 0.5000
O2_9 O 0.797(2) 0.3921(18) 0.5000
O3_9 O 0.7417(18) 0.375(2) 0.5000
N1_9 N 0.7741(14) 0.3676(14) 0.5000
O1_10 O 0.216(2) 0.3357(18) 0.5000
O2_10 O 0.203(2) 0.3921(18) 0.5000
O3_10 O 0.2583(18) 0.375(2) 0.5000
N1_10 N 0.2259(14) 0.3676(14) 0.5000
O1_11 O 0.784(2) 0.6643(18) 0.5000
O2_11 O 0.797(2) 0.6079(18) 0.5000
O3_11 O 0.7417(18) 0.625(2) 0.5000
N1_11 N 0.7741(14) 0.6324(14) 0.5000
O1_12 O 0.216(2) 0.6643(18) 0.5000
O2_12 O 0.203(2) 0.6079(18) 0.5000
O3_12 O 0.2583(18) 0.625(2) 0.5000
N1_12 N 0.2259(14) 0.6324(14) 0.5000
O1_13 O 0.784(2) 0.5000 0.6643(18)
O2_13 O 0.797(2) 0.5000 0.6079(18)
O3_13 O 0.7417(18) 0.5000 0.625(2)
N1_13 N 0.7741(14) 0.5000 0.6324(14)
O1_14 O 0.216(2) 0.5000 0.6643(18)
O2_14 O 0.203(2) 0.5000 0.6079(18)
O3_14 O 0.2583(18) 0.5000 0.625(2)
N1_14 N 0.2259(14) 0.5000 0.6324(14)
O1_15 O 0.784(2) 0.5000 0.3357(18)
O2_15 O 0.797(2) 0.5000 0.3921(18)
O3_15 O 0.7417(18) 0.5000 0.375(2)
N1_15 N 0.7741(14) 0.5000 0.3676(14)
O1_16 O 0.216(2) 0.5000 0.3357(18)
O2_16 O 0.203(2) 0.5000 0.3921(18)
O3_16 O 0.2583(18) 0.5000 0.375(2)
N1_16 N 0.2259(14) 0.5000 0.3676(14)
O1_17 O 0.5000 0.3357(18) 0.216(2)
O2_17 O 0.5000 0.3921(18) 0.203(2)
O3_17 O 0.5000 0.375(2) 0.2583(18)
N1_17 N 0.5000 0.3676(14) 0.2259(14)
O1_18 O 0.5000 0.3357(18) 0.784(2)
O2_18 O 0.5000 0.3921(18) 0.797(2)
O3_18 O 0.5000 0.375(2) 0.7417(18)
N1_18 N 0.5000 0.3676(14) 0.7741(14)
O1_19 O 0.5000 0.6643(18) 0.216(2)
O2_19 O 0.5000 0.6079(18) 0.203(2)
O3_19 O 0.5000 0.625(2) 0.2583(18)
N1_19 N 0.5000 0.6324(14) 0.2259(14)
O1_20 O 0.5000 0.6643(18) 0.784(2)
O2_20 O 0.5000 0.6079(18) 0.797(2)
O3_20 O 0.5000 0.625(2) 0.7417(18)
N1_20 N 0.5000 0.6324(14) 0.7741(14)
O1_21 O 0.3357(18) 0.784(2) 0.5000
O2_21 O 0.3921(18) 0.797(2) 0.5000
O3_21 O 0.375(2) 0.7417(18) 0.5000
N1_21 N 0.3676(14) 0.7741(14) 0.5000
O1_22 O 0.3357(18) 0.216(2) 0.5000
O2_22 O 0.3921(18) 0.203(2) 0.5000
O3_22 O 0.375(2) 0.2583(18) 0.5000
N1_22 N 0.3676(14) 0.2259(14) 0.5000
O1_23 O 0.6643(18) 0.784(2) 0.5000
O2_23 O 0.6079(18) 0.797(2) 0.5000
O3_23 O 0.625(2) 0.7417(18) 0.5000
N1_23 N 0.6324(14) 0.7741(14) 0.5000
O1_24 O 0.6643(18) 0.216(2) 0.5000
O2_24 O 0.6079(18) 0.203(2) 0.5000
O3_24 O 0.625(2) 0.2583(18) 0.5000
N1_24 N 0.6324(14) 0.2259(14) 0.5000
O1_25 O 0.5000 0.284(2) 0.8357(18)
O2_25 O 0.5000 0.297(2) 0.8921(18)
O3_25 O 0.5000 0.2417(18) 0.875(2)
N1_25 N 0.5000 0.2741(14) 0.8676(14)
O1_26 O 0.5000 0.716(2) 0.8357(18)
O2_26 O 0.5000 0.703(2) 0.8921(18)
O3_26 O 0.5000 0.7583(18) 0.875(2)
N1_26 N 0.5000 0.7259(14) 0.8676(14)
O1_27 O 0.5000 0.284(2) 0.1643(18)
O2_27 O 0.5000 0.297(2) 0.1079(18)
O3_27 O 0.5000 0.2417(18) 0.125(2)
N1_27 N 0.5000 0.2741(14) 0.1324(14)
O1_28 O 0.5000 0.716(2) 0.1643(18)
O2_28 O 0.5000 0.703(2) 0.1079(18)
O3_28 O 0.5000 0.7583(18) 0.125(2)
N1_28 N 0.5000 0.7259(14) 0.1324(14)
O1_29 O 0.3357(18) 0.0000 0.284(2)
O2_29 O 0.3921(18) 0.0000 0.297(2)
O3_29 O 0.375(2) 0.0000 0.2417(18)
N1_29 N 0.3676(14) 0.0000 0.2741(14)
O1_30 O 0.3357(18) 1.0000 0.284(2)
O2_30 O 0.3921(18) 1.0000 0.297(2)
O3_30 O 0.375(2) 1.0000 0.2417(18)
N1_30 N 0.3676(14) 1.0000 0.2741(14)
O1_31 O 0.3357(18) -0.0000 0.716(2)
O2_31 O 0.3921(18) -0.0000 0.703(2)
O3_31 O 0.375(2) -0.0000 0.7583(18)
N1_31 N 0.3676(14) -0.0000 0.7259(14)
O1_32 O 0.3357(18) 1.0000 0.716(2)
O2_32 O 0.3921(18) 1.0000 0.703(2)
O3_32 O 0.375(2) 1.0000 0.7583(18)
N1_32 N 0.3676(14) 1.0000 0.7259(14)
O1_33 O 0.6643(18) -0.0000 0.284(2)
O2_33 O 0.6079(18) -0.0000 0.297(2)
O3_33 O 0.625(2) -0.0000 0.2417(18)
N1_33 N 0.6324(14) -0.0000 0.2741(14)
O1_34 O 0.6643(18) 1.0000 0.284(2)
O2_34 O 0.6079(18) 1.0000 0.297(2)
O3_34 O 0.625(2) 1.0000 0.2417(18)
N1_34 N 0.6324(14) 1.0000 0.2741(14)
O1_35 O 0.6643(18) 0.0000 0.716(2)
O2_35 O 0.6079(18) 0.0000 0.703(2)
O3_35 O 0.625(2) 0.0000 0.7583(18)
N1_35 N 0.6324(14) 0.0000 0.7259(14)
O1_36 O 0.6643(18) 1.0000 0.716(2)
O2_36 O 0.6079(18) 1.0000 0.703(2)
O3_36 O 0.625(2) 1.0000 0.7583(18)
N1_36 N 0.6324(14) 1.0000 0.7259(14)
O1_37 O 0.784(2) 0.8357(18) 0.0000
O2_37 O 0.797(2) 0.8921(18) 0.0000
O3_37 O 0.7417(18) 0.875(2) 0.0000
N1_37 N 0.7741(14) 0.8676(14) 0.0000
O1_38 O 0.784(2) 0.8357(18) 1.0000
O2_38 O 0.797(2) 0.8921(18) 1.0000
O3_38 O 0.7417(18) 0.875(2) 1.0000
N1_38 N 0.7741(14) 0.8676(14) 1.0000
O1_39 O 0.216(2) 0.8357(18) -0.0000
O2_39 O 0.203(2) 0.8921(18) -0.0000
O3_39 O 0.2583(18) 0.875(2) -0.0000
N1_39 N 0.2259(14) 0.8676(14) -0.0000
O1_40 O 0.216(2) 0.8357(18) 1.0000
O2_40 O 0.203(2) 0.8921(18) 1.0000
O3_40 O 0.2583(18) 0.875(2) 1.0000
N1_40 N 0.2259(14) 0.8676(14) 1.0000
O1_41 O 0.784(2) 0.1643(18) -0.0000
O2_41 O 0.797(2) 0.1079(18) -0.0000
O3_41 O 0.7417(18) 0.125(2) -0.0000
N1_41 N 0.7741(14) 0.1324(14) -0.0000
O1_42 O 0.784(2) 0.1643(18) 1.0000
O2_42 O 0.797(2) 0.1079(18) 1.0000
O3_42 O 0.7417(18) 0.125(2) 1.0000
N1_42 N 0.7741(14) 0.1324(14) 1.0000
O1_43 O 0.216(2) 0.1643(18) 0.0000
O2_43 O 0.203(2) 0.1079(18) 0.0000
O3_43 O 0.2583(18) 0.125(2) 0.0000
N1_43 N 0.2259(14) 0.1324(14) 0.0000
O1_44 O 0.216(2) 0.1643(18) 1.0000
O2_44 O 0.203(2) 0.1079(18) 1.0000
O3_44 O 0.2583(18) 0.125(2) 1.0000
N1_44 N 0.2259(14) 0.1324(14) 1.0000
O1_45 O 0.784(2) 0.0000 0.1643(18)
O2_45 O 0.797(2) 0.0000 0.1079(18)
O3_45 O 0.7417(18) 0.0000 0.125(2)
N1_45 N 0.7741(14) 0.0000 0.1324(14)
O1_46 O 0.784(2) 1.0000 0.1643(18)
O2_46 O 0.797(2) 1.0000 0.1079(18)
O3_46 O 0.7417(18) 1.0000 0.125(2)
N1_46 N 0.7741(14) 1.0000 0.1324(14)
O1_47 O 0.216(2) -0.0000 0.1643(18)
O2_47 O 0.203(2) -0.0000 0.1079(18)
O3_47 O 0.2583(18) -0.0000 0.125(2)
N1_47 N 0.2259(14) -0.0000 0.1324(14)
O1_48 O 0.216(2) 1.0000 0.1643(18)
O2_48 O 0.203(2) 1.0000 0.1079(18)
O3_48 O 0.2583(18) 1.0000 0.125(2)
N1_48 N 0.2259(14) 1.0000 0.1324(14)
O1_49 O 0.784(2) -0.0000 0.8357(18)
O2_49 O 0.797(2) -0.0000 0.8921(18)
O3_49 O 0.7417(18) -0.0000 0.875(2)
N1_49 N 0.7741(14) -0.0000 0.8676(14)
O1_50 O 0.784(2) 1.0000 0.8357(18)
O2_50 O 0.797(2) 1.0000 0.8921(18)
O3_50 O 0.7417(18) 1.0000 0.875(2)
N1_50 N 0.7741(14) 1.0000 0.8676(14)
O1_51 O 0.216(2) 0.0000 0.8357(18)
O2_51 O 0.203(2) 0.0000 0.8921(18)
O3_51 O 0.2583(18) 0.0000 0.875(2)
N1_51 N 0.2259(14) 0.0000 0.8676(14)
O1_52 O 0.216(2) 1.0000 0.8357(18)
O2_52 O 0.203(2) 1.0000 0.8921(18)
O3_52 O 0.2583(18) 1.0000 0.875(2)
N1_52 N 0.2259(14) 1.0000 0.8676(14)
O1_53 O 0.5000 0.8357(18) 0.716(2)
O2_53 O 0.5000 0.8921(18) 0.703(2)
O3_53 O 0.5000 0.875(2) 0.7583(18)
N1_53 N 0.5000 0.8676(14) 0.7259(14)
O1_54 O 0.5000 0.8357(18) 0.284(2)
O2_54 O 0.5000 0.8921(18) 0.297(2)
O3_54 O 0.5000 0.875(2) 0.2417(18)
N1_54 N 0.5000 0.8676(14) 0.2741(14)
O1_55 O 0.5000 0.1643(18) 0.716(2)
O2_55 O 0.5000 0.1079(18) 0.703(2)
O3_55 O 0.5000 0.125(2) 0.7583(18)
N1_55 N 0.5000 0.1324(14) 0.7259(14)
O1_56 O 0.5000 0.1643(18) 0.284(2)
O2_56 O 0.5000 0.1079(18) 0.297(2)
O3_56 O 0.5000 0.125(2) 0.2417(18)
N1_56 N 0.5000 0.1324(14) 0.2741(14)
O1_57 O 0.3357(18) 0.284(2) -0.0000
O2_57 O 0.3921(18) 0.297(2) -0.0000
O3_57 O 0.375(2) 0.2417(18) -0.0000
N1_57 N 0.3676(14) 0.2741(14) -0.0000
O1_58 O 0.3357(18) 0.284(2) 1.0000
O2_58 O 0.3921(18) 0.297(2) 1.0000
O3_58 O 0.375(2) 0.2417(18) 1.0000
N1_58 N 0.3676(14) 0.2741(14) 1.0000
O1_59 O 0.3357(18) 0.716(2) 0.0000
O2_59 O 0.3921(18) 0.703(2) 0.0000
O3_59 O 0.375(2) 0.7583(18) 0.0000
N1_59 N 0.3676(14) 0.7259(14) 0.0000
O1_60 O 0.3357(18) 0.716(2) 1.0000
O2_60 O 0.3921(18) 0.703(2) 1.0000
O3_60 O 0.375(2) 0.7583(18) 1.0000
N1_60 N 0.3676(14) 0.7259(14) 1.0000
O1_61 O 0.6643(18) 0.284(2) 0.0000
O2_61 O 0.6079(18) 0.297(2) 0.0000
O3_61 O 0.625(2) 0.2417(18) 0.0000
N1_61 N 0.6324(14) 0.2741(14) 0.0000
O1_62 O 0.6643(18) 0.284(2) 1.0000
O2_62 O 0.6079(18) 0.297(2) 1.0000
O3_62 O 0.625(2) 0.2417(18) 1.0000
N1_62 N 0.6324(14) 0.2741(14) 1.0000
O1_63 O 0.6643(18) 0.716(2) -0.0000
O2_63 O 0.6079(18) 0.703(2) -0.0000
O3_63 O 0.625(2) 0.7583(18) -0.0000
N1_63 N 0.6324(14) 0.7259(14) -0.0000
O1_64 O 0.6643(18) 0.716(2) 1.0000
O2_64 O 0.6079(18) 0.703(2) 1.0000
O3_64 O 0.625(2) 0.7583(18) 1.0000
N1_64 N 0.6324(14) 0.7259(14) 1.0000
O1_65 O 0.0000 0.784(2) 0.8357(18)
O2_65 O 0.0000 0.797(2) 0.8921(18)
O3_65 O 0.0000 0.7417(18) 0.875(2)
N1_65 N 0.0000 0.7741(14) 0.8676(14)
O1_66 O 1.0000 0.784(2) 0.8357(18)
O2_66 O 1.0000 0.797(2) 0.8921(18)
O3_66 O 1.0000 0.7417(18) 0.875(2)
N1_66 N 1.0000 0.7741(14) 0.8676(14)
O1_67 O -0.0000 0.216(2) 0.8357(18)
O2_67 O -0.0000 0.203(2) 0.8921(18)
O3_67 O -0.0000 0.2583(18) 0.875(2)
N1_67 N -0.0000 0.2259(14) 0.8676(14)
O1_68 O 1.0000 0.216(2) 0.8357(18)
O2_68 O 1.0000 0.203(2) 0.8921(18)
O3_68 O 1.0000 0.2583(18) 0.875(2)
N1_68 N 1.0000 0.2259(14) 0.8676(14)
O1_69 O -0.0000 0.784(2) 0.1643(18)
O2_69 O -0.0000 0.797(2) 0.1079(18)
O3_69 O -0.0000 0.7417(18) 0.125(2)
N1_69 N -0.0000 0.7741(14) 0.1324(14)
O1_70 O 1.0000 0.784(2) 0.1643(18)
O2_70 O 1.0000 0.797(2) 0.1079(18)
O3_70 O 1.0000 0.7417(18) 0.125(2)
N1_70 N 1.0000 0.7741(14) 0.1324(14)
O1_71 O 0.0000 0.216(2) 0.1643(18)
O2_71 O 0.0000 0.203(2) 0.1079(18)
O3_71 O 0.0000 0.2583(18) 0.125(2)
N1_71 N 0.0000 0.2259(14) 0.1324(14)
O1_72 O 1.0000 0.216(2) 0.1643(18)
O2_72 O 1.0000 0.203(2) 0.1079(18)
O3_72 O 1.0000 0.2583(18) 0.125(2)
N1_72 N 1.0000 0.2259(14) 0.1324(14)
O1_73 O 0.8357(18) 0.5000 0.284(2)
O2_73 O 0.8921(18) 0.5000 0.297(2)
O3_73 O 0.875(2) 0.5000 0.2417(18)
N1_73 N 0.8676(14) 0.5000 0.2741(14)
O1_74 O 0.8357(18) 0.5000 0.716(2)
O2_74 O 0.8921(18) 0.5000 0.703(2)
O3_74 O 0.875(2) 0.5000 0.7583(18)
N1_74 N 0.8676(14) 0.5000 0.7259(14)
O1_75 O 0.1643(18) 0.5000 0.284(2)
O2_75 O 0.1079(18) 0.5000 0.297(2)
O3_75 O 0.125(2) 0.5000 0.2417(18)
N1_75 N 0.1324(14) 0.5000 0.2741(14)
O1_76 O 0.1643(18) 0.5000 0.716(2)
O2_76 O 0.1079(18) 0.5000 0.703(2)
O3_76 O 0.125(2) 0.5000 0.7583(18)
N1_76 N 0.1324(14) 0.5000 0.7259(14)
O1_77 O 0.284(2) 0.3357(18) 0.0000
O2_77 O 0.297(2) 0.3921(18) 0.0000
O3_77 O 0.2417(18) 0.375(2) 0.0000
N1_77 N 0.2741(14) 0.3676(14) 0.0000
O1_78 O 0.284(2) 0.3357(18) 1.0000
O2_78 O 0.297(2) 0.3921(18) 1.0000
O3_78 O 0.2417(18) 0.375(2) 1.0000
N1_78 N 0.2741(14) 0.3676(14) 1.0000
O1_79 O 0.716(2) 0.3357(18) -0.0000
O2_79 O 0.703(2) 0.3921(18) -0.0000
O3_79 O 0.7583(18) 0.375(2) -0.0000
N1_79 N 0.7259(14) 0.3676(14) -0.0000
O1_80 O 0.716(2) 0.3357(18) 1.0000
O2_80 O 0.703(2) 0.3921(18) 1.0000
O3_80 O 0.7583(18) 0.375(2) 1.0000
N1_80 N 0.7259(14) 0.3676(14) 1.0000
O1_81 O 0.284(2) 0.6643(18) -0.0000
O2_81 O 0.297(2) 0.6079(18) -0.0000
O3_81 O 0.2417(18) 0.625(2) -0.0000
N1_81 N 0.2741(14) 0.6324(14) -0.0000
O1_82 O 0.284(2) 0.6643(18) 1.0000
O2_82 O 0.297(2) 0.6079(18) 1.0000
O3_82 O 0.2417(18) 0.625(2) 1.0000
N1_82 N 0.2741(14) 0.6324(14) 1.0000
O1_83 O 0.716(2) 0.6643(18) 0.0000
O2_83 O 0.703(2) 0.6079(18) 0.0000
O3_83 O 0.7583(18) 0.625(2) 0.0000
N1_83 N 0.7259(14) 0.6324(14) 0.0000
O1_84 O 0.716(2) 0.6643(18) 1.0000
O2_84 O 0.703(2) 0.6079(18) 1.0000
O3_84 O 0.7583(18) 0.625(2) 1.0000
N1_84 N 0.7259(14) 0.6324(14) 1.0000
O1_85 O 0.284(2) 0.5000 0.1643(18)
O2_85 O 0.297(2) 0.5000 0.1079(18)
O3_85 O 0.2417(18) 0.5000 0.125(2)
N1_85 N 0.2741(14) 0.5000 0.1324(14)
O1_86 O 0.716(2) 0.5000 0.1643(18)
O2_86 O 0.703(2) 0.5000 0.1079(18)
O3_86 O 0.7583(18) 0.5000 0.125(2)
N1_86 N 0.7259(14) 0.5000 0.1324(14)
O1_87 O 0.284(2) 0.5000 0.8357(18)
O2_87 O 0.297(2) 0.5000 0.8921(18)
O3_87 O 0.2417(18) 0.5000 0.875(2)
N1_87 N 0.2741(14) 0.5000 0.8676(14)
O1_88 O 0.716(2) 0.5000 0.8357(18)
O2_88 O 0.703(2) 0.5000 0.8921(18)
O3_88 O 0.7583(18) 0.5000 0.875(2)
N1_88 N 0.7259(14) 0.5000 0.8676(14)
O1_89 O 0.0000 0.3357(18) 0.716(2)
O2_89 O 0.0000 0.3921(18) 0.703(2)
O3_89 O 0.0000 0.375(2) 0.7583(18)
N1_89 N 0.0000 0.3676(14) 0.7259(14)
O1_90 O 1.0000 0.3357(18) 0.716(2)
O2_90 O 1.0000 0.3921(18) 0.703(2)
O3_90 O 1.0000 0.375(2) 0.7583(18)
N1_90 N 1.0000 0.3676(14) 0.7259(14)
O1_91 O -0.0000 0.3357(18) 0.284(2)
O2_91 O -0.0000 0.3921(18) 0.297(2)
O3_91 O -0.0000 0.375(2) 0.2417(18)
N1_91 N -0.0000 0.3676(14) 0.2741(14)
O1_92 O 1.0000 0.3357(18) 0.284(2)
O2_92 O 1.0000 0.3921(18) 0.297(2)
O3_92 O 1.0000 0.375(2) 0.2417(18)
N1_92 N 1.0000 0.3676(14) 0.2741(14)
O1_93 O -0.0000 0.6643(18) 0.716(2)
O2_93 O -0.0000 0.6079(18) 0.703(2)
O3_93 O -0.0000 0.625(2) 0.7583(18)
N1_93 N -0.0000 0.6324(14) 0.7259(14)
O1_94 O 1.0000 0.6643(18) 0.716(2)
O2_94 O 1.0000 0.6079(18) 0.703(2)
O3_94 O 1.0000 0.625(2) 0.7583(18)
N1_94 N 1.0000 0.6324(14) 0.7259(14)
O1_95 O 0.0000 0.6643(18) 0.284(2)
O2_95 O 0.0000 0.6079(18) 0.297(2)
O3_95 O 0.0000 0.625(2) 0.2417(18)
N1_95 N 0.0000 0.6324(14) 0.2741(14)
O1_96 O 1.0000 0.6643(18) 0.284(2)
O2_96 O 1.0000 0.6079(18) 0.297(2)
O3_96 O 1.0000 0.625(2) 0.2417(18)
N1_96 N 1.0000 0.6324(14) 0.2741(14)
O1_97 O 0.8357(18) 0.784(2) -0.0000
O2_97 O 0.8921(18) 0.797(2) -0.0000
O3_97 O 0.875(2) 0.7417(18) -0.0000
N1_97 N 0.8676(14) 0.7741(14) -0.0000
O1_98 O 0.8357(18) 0.784(2) 1.0000
O2_98 O 0.8921(18) 0.797(2) 1.0000
O3_98 O 0.875(2) 0.7417(18) 1.0000
N1_98 N 0.8676(14) 0.7741(14) 1.0000
O1_99 O 0.8357(18) 0.216(2) 0.0000
O2_99 O 0.8921(18) 0.203(2) 0.0000
O3_99 O 0.875(2) 0.2583(18) 0.0000
N1_99 N 0.8676(14) 0.2259(14) 0.0000
O1_100 O 0.8357(18) 0.216(2) 1.0000
O2_100 O 0.8921(18) 0.203(2) 1.0000
O3_100 O 0.875(2) 0.2583(18) 1.0000
N1_100 N 0.8676(14) 0.2259(14) 1.0000
O1_101 O 0.1643(18) 0.784(2) 0.0000
O2_101 O 0.1079(18) 0.797(2) 0.0000
O3_101 O 0.125(2) 0.7417(18) 0.0000
N1_101 N 0.1324(14) 0.7741(14) 0.0000
O1_102 O 0.1643(18) 0.784(2) 1.0000
O2_102 O 0.1079(18) 0.797(2) 1.0000
O3_102 O 0.125(2) 0.7417(18) 1.0000
N1_102 N 0.1324(14) 0.7741(14) 1.0000
O1_103 O 0.1643(18) 0.216(2) -0.0000
O2_103 O 0.1079(18) 0.203(2) -0.0000
O3_103 O 0.125(2) 0.2583(18) -0.0000
N1_103 N 0.1324(14) 0.2259(14) -0.0000
O1_104 O 0.1643(18) 0.216(2) 1.0000
O2_104 O 0.1079(18) 0.203(2) 1.0000
O3_104 O 0.125(2) 0.2583(18) 1.0000
N1_104 N 0.1324(14) 0.2259(14) 1.0000
O1_105 O 0.0000 0.284(2) 0.3357(18)
O2_105 O 0.0000 0.297(2) 0.3921(18)
O3_105 O 0.0000 0.2417(18) 0.375(2)
N1_105 N 0.0000 0.2741(14) 0.3676(14)
O1_106 O 1.0000 0.284(2) 0.3357(18)
O2_106 O 1.0000 0.297(2) 0.3921(18)
O3_106 O 1.0000 0.2417(18) 0.375(2)
N1_106 N 1.0000 0.2741(14) 0.3676(14)
O1_107 O -0.0000 0.716(2) 0.3357(18)
O2_107 O -0.0000 0.703(2) 0.3921(18)
O3_107 O -0.0000 0.7583(18) 0.375(2)
N1_107 N -0.0000 0.7259(14) 0.3676(14)
O1_108 O 1.0000 0.716(2) 0.3357(18)
O2_108 O 1.0000 0.703(2) 0.3921(18)
O3_108 O 1.0000 0.7583(18) 0.375(2)
N1_108 N 1.0000 0.7259(14) 0.3676(14)
O1_109 O -0.0000 0.284(2) 0.6643(18)
O2_109 O -0.0000 0.297(2) 0.6079(18)
O3_109 O -0.0000 0.2417(18) 0.625(2)
N1_109 N -0.0000 0.2741(14) 0.6324(14)
O1_110 O 1.0000 0.284(2) 0.6643(18)
O2_110 O 1.0000 0.297(2) 0.6079(18)
O3_110 O 1.0000 0.2417(18) 0.625(2)
N1_110 N 1.0000 0.2741(14) 0.6324(14)
O1_111 O 0.0000 0.716(2) 0.6643(18)
O2_111 O 0.0000 0.703(2) 0.6079(18)
O3_111 O 0.0000 0.7583(18) 0.625(2)
N1_111 N 0.0000 0.7259(14) 0.6324(14)
O1_112 O 1.0000 0.716(2) 0.6643(18)
O2_112 O 1.0000 0.703(2) 0.6079(18)
O3_112 O 1.0000 0.7583(18) 0.625(2)
N1_112 N 1.0000 0.7259(14) 0.6324(14)
O1_113 O 0.8357(18) 0.0000 0.784(2)
O2_113 O 0.8921(18) 0.0000 0.797(2)
O3_113 O 0.875(2) 0.0000 0.7417(18)
N1_113 N 0.8676(14) 0.0000 0.7741(14)
O1_114 O 0.8357(18) 1.0000 0.784(2)
O2_114 O 0.8921(18) 1.0000 0.797(2)
O3_114 O 0.875(2) 1.0000 0.7417(18)
N1_114 N 0.8676(14) 1.0000 0.7741(14)
O1_115 O 0.8357(18) -0.0000 0.216(2)
O2_115 O 0.8921(18) -0.0000 0.203(2)
O3_115 O 0.875(2) -0.0000 0.2583(18)
N1_115 N 0.8676(14) -0.0000 0.2259(14)
O1_116 O 0.8357(18) 1.0000 0.216(2)
O2_116 O 0.8921(18) 1.0000 0.203(2)
O3_116 O 0.875(2) 1.0000 0.2583(18)
N1_116 N 0.8676(14) 1.0000 0.2259(14)
O1_117 O 0.1643(18) -0.0000 0.784(2)
O2_117 O 0.1079(18) -0.0000 0.797(2)
O3_117 O 0.125(2) -0.0000 0.7417(18)
N1_117 N 0.1324(14) -0.0000 0.7741(14)
O1_118 O 0.1643(18) 1.0000 0.784(2)
O2_118 O 0.1079(18) 1.0000 0.797(2)
O3_118 O 0.125(2) 1.0000 0.7417(18)
N1_118 N 0.1324(14) 1.0000 0.7741(14)
O1_119 O 0.1643(18) 0.0000 0.216(2)
O2_119 O 0.1079(18) 0.0000 0.203(2)
O3_119 O 0.125(2) 0.0000 0.2583(18)
N1_119 N 0.1324(14) 0.0000 0.2259(14)
O1_120 O 0.1643(18) 1.0000 0.216(2)
O2_120 O 0.1079(18) 1.0000 0.203(2)
O3_120 O 0.125(2) 1.0000 0.2583(18)
N1_120 N 0.1324(14) 1.0000 0.2259(14)
O1_121 O 0.284(2) 0.8357(18) 0.5000
O2_121 O 0.297(2) 0.8921(18) 0.5000
O3_121 O 0.2417(18) 0.875(2) 0.5000
N1_121 N 0.2741(14) 0.8676(14) 0.5000
O1_122 O 0.716(2) 0.8357(18) 0.5000
O2_122 O 0.703(2) 0.8921(18) 0.5000
O3_122 O 0.7583(18) 0.875(2) 0.5000
N1_122 N 0.7259(14) 0.8676(14) 0.5000
O1_123 O 0.284(2) 0.1643(18) 0.5000
O2_123 O 0.297(2) 0.1079(18) 0.5000
O3_123 O 0.2417(18) 0.125(2) 0.5000
N1_123 N 0.2741(14) 0.1324(14) 0.5000
O1_124 O 0.716(2) 0.1643(18) 0.5000
O2_124 O 0.703(2) 0.1079(18) 0.5000
O3_124 O 0.7583(18) 0.125(2) 0.5000
N1_124 N 0.7259(14) 0.1324(14) 0.5000
O1_125 O 0.284(2) 0.0000 0.6643(18)
O2_125 O 0.297(2) 0.0000 0.6079(18)
O3_125 O 0.2417(18) 0.0000 0.625(2)
N1_125 N 0.2741(14) 0.0000 0.6324(14)
O1_126 O 0.284(2) 1.0000 0.6643(18)
O2_126 O 0.297(2) 1.0000 0.6079(18)
O3_126 O 0.2417(18) 1.0000 0.625(2)
N1_126 N 0.2741(14) 1.0000 0.6324(14)
O1_127 O 0.716(2) -0.0000 0.6643(18)
O2_127 O 0.703(2) -0.0000 0.6079(18)
O3_127 O 0.7583(18) -0.0000 0.625(2)
N1_127 N 0.7259(14) -0.0000 0.6324(14)
O1_128 O 0.716(2) 1.0000 0.6643(18)
O2_128 O 0.703(2) 1.0000 0.6079(18)
O3_128 O 0.7583(18) 1.0000 0.625(2)
N1_128 N 0.7259(14) 1.0000 0.6324(14)
O1_129 O 0.284(2) -0.0000 0.3357(18)
O2_129 O 0.297(2) -0.0000 0.3921(18)
O3_129 O 0.2417(18) -0.0000 0.375(2)
N1_129 N 0.2741(14) -0.0000 0.3676(14)
O1_130 O 0.284(2) 1.0000 0.3357(18)
O2_130 O 0.297(2) 1.0000 0.3921(18)
O3_130 O 0.2417(18) 1.0000 0.375(2)
N1_130 N 0.2741(14) 1.0000 0.3676(14)
O1_131 O 0.716(2) 0.0000 0.3357(18)
O2_131 O 0.703(2) 0.0000 0.3921(18)
O3_131 O 0.7583(18) 0.0000 0.375(2)
N1_131 N 0.7259(14) 0.0000 0.3676(14)
O1_132 O 0.716(2) 1.0000 0.3357(18)
O2_132 O 0.703(2) 1.0000 0.3921(18)
O3_132 O 0.7583(18) 1.0000 0.375(2)
N1_132 N 0.7259(14) 1.0000 0.3676(14)
O1_133 O 0.0000 0.8357(18) 0.216(2)
O2_133 O 0.0000 0.8921(18) 0.203(2)
O3_133 O 0.0000 0.875(2) 0.2583(18)
N1_133 N 0.0000 0.8676(14) 0.2259(14)
O1_134 O 1.0000 0.8357(18) 0.216(2)
O2_134 O 1.0000 0.8921(18) 0.203(2)
O3_134 O 1.0000 0.875(2) 0.2583(18)
N1_134 N 1.0000 0.8676(14) 0.2259(14)
O1_135 O -0.0000 0.8357(18) 0.784(2)
O2_135 O -0.0000 0.8921(18) 0.797(2)
O3_135 O -0.0000 0.875(2) 0.7417(18)
N1_135 N -0.0000 0.8676(14) 0.7741(14)
O1_136 O 1.0000 0.8357(18) 0.784(2)
O2_136 O 1.0000 0.8921(18) 0.797(2)
O3_136 O 1.0000 0.875(2) 0.7417(18)
N1_136 N 1.0000 0.8676(14) 0.7741(14)
O1_137 O -0.0000 0.1643(18) 0.216(2)
O2_137 O -0.0000 0.1079(18) 0.203(2)
O3_137 O -0.0000 0.125(2) 0.2583(18)
N1_137 N -0.0000 0.1324(14) 0.2259(14)
O1_138 O 1.0000 0.1643(18) 0.216(2)
O2_138 O 1.0000 0.1079(18) 0.203(2)
O3_138 O 1.0000 0.125(2) 0.2583(18)
N1_138 N 1.0000 0.1324(14) 0.2259(14)
O1_139 O 0.0000 0.1643(18) 0.784(2)
O2_139 O 0.0000 0.1079(18) 0.797(2)
O3_139 O 0.0000 0.125(2) 0.7417(18)
N1_139 N 0.0000 0.1324(14) 0.7741(14)
O1_140 O 1.0000 0.1643(18) 0.784(2)
O2_140 O 1.0000 0.1079(18) 0.797(2)
O3_140 O 1.0000 0.125(2) 0.7417(18)
N1_140 N 1.0000 0.1324(14) 0.7741(14)
O1_141 O 0.8357(18) 0.284(2) 0.5000
O2_141 O 0.8921(18) 0.297(2) 0.5000
O3_141 O 0.875(2) 0.2417(18) 0.5000
N1_141 N 0.8676(14) 0.2741(14) 0.5000
O1_142 O 0.8357(18) 0.716(2) 0.5000
O2_142 O 0.8921(18) 0.703(2) 0.5000
O3_142 O 0.875(2) 0.7583(18) 0.5000
N1_142 N 0.8676(14) 0.7259(14) 0.5000
O1_143 O 0.1643(18) 0.284(2) 0.5000
O2_143 O 0.1079(18) 0.297(2) 0.5000
O3_143 O 0.125(2) 0.2417(18) 0.5000
N1_143 N 0.1324(14) 0.2741(14) 0.5000
O1_144 O 0.1643(18) 0.716(2) 0.5000
O2_144 O 0.1079(18) 0.703(2) 0.5000
O3_144 O 0.125(2) 0.7583(18) 0.5000
N1_144 N 0.1324(14) 0.7259(14) 0.5000
Zn16 Zn 0.5000 -0.0000 0.26794(14)
Zn17 Zn 0.5000 -0.0000 0.73206(14)
Zn21 Zn 0.26794(14) -0.0000 0.5000
Zn22 Zn 0.73206(14) -0.0000 0.5000
Zn24 Zn 0.5000 -0.0000 0.19937(15)
Zn25 Zn 0.5000 -0.0000 0.80063(15)
Zn29 Zn 0.19937(15) -0.0000 0.5000
Zn30 Zn 0.80063(15) -0.0000 0.5000
Zn1 Zn 0.5000 0.76794(14) 0.5000
Zn2 Zn 0.5000 0.69937(15) 0.5000
Zn3 Zn 0.34031(8) 0.65969(8) 0.34031(8)
Zn4 Zn 0.38742(9) 0.61258(9) 0.38742(9)
O4 O 0.3899(4) 0.7940(6) 0.3899(4)
O5 O 0.4667(3) 0.7067(5) 0.4667(3)
O6 O 0.3628(5) 0.6865(6) 0.3628(5)
C1 C 0.4207(4) 0.7090(7) 0.4207(4)
H1 H 0.4274 0.6900 0.4274
O7 O 0.5000 0.6514(8) 0.5000
C2 C 0.3973(5) 0.7083(8) 0.3973(5)
C3 C 0.3999(5) 0.7675(8) 0.3999(5)
C4 C 0.3885(5) 0.7387(6) 0.3885(5)
H2 H 0.3736 0.7400 0.3736
C5 C 0.4351(6) 0.7349(6) 0.4351(6)
C6 C 0.4231(4) 0.7634(6) 0.4231(4)
H3 H 0.4314 0.7812 0.4314
O8 O 0.3942(4) 0.6582(6) 0.3942(4)
C7 C 0.3827(5) 0.6821(8) 0.3827(5)
O9 O 0.4679(4) 0.7584(6) 0.4679(4)
O10 O 0.5000 0.8151(10) 0.5000
C8 C 0.4594(8) 0.7328(6) 0.4594(8)
C9 C 0.4021(8) 0.8228(9) 0.4021(8)
H4 H 0.4238 0.8246 0.3983
C10 C 0.3837(8) 0.8477(11) 0.3837(8)
C11 C 0.3958(12) 0.8569(8) 0.3569(8)
C12 C 0.4247(13) 0.8440(9) 0.3440(9)
O11 O 0.3899(4) 0.8899(4) 0.2940(6)
O12 O 0.4667(3) 0.9667(3) 0.2067(5)
O13 O 0.3628(5) 0.8628(5) 0.1865(6)
C13 C 0.4207(4) 0.9207(4) 0.2090(7)
H5 H 0.4274 0.9274 0.1900
C14 C 0.3973(5) 0.8973(5) 0.2083(8)
C15 C 0.3999(5) 0.8999(5) 0.2675(8)
C16 C 0.3885(5) 0.8885(5) 0.2387(6)
H6 H 0.3736 0.8736 0.2400
C17 C 0.4351(6) 0.9351(6) 0.2349(6)
C18 C 0.4231(4) 0.9231(4) 0.2634(6)
H7 H 0.4314 0.9314 0.2812
O14 O 0.3942(4) 0.8942(4) 0.1582(6)
C19 C 0.3827(5) 0.8827(5) 0.1821(8)
O15 O 0.4679(4) 0.9679(4) 0.2584(6)
C20 C 0.4594(8) 0.9594(8) 0.2328(6)
C21 C 0.4021(8) 0.9021(8) 0.3228(9)
H8 H 0.3983 0.9238 0.3246
C22 C 0.3837(8) 0.8837(8) 0.3477(11)
C23 C 0.3569(8) 0.8958(12) 0.3569(8)
C24 C 0.3440(9) 0.9247(13) 0.3440(9)
O16 O 0.2940(6) 0.8899(4) 0.3899(4)
O17 O 0.2067(5) 0.9667(3) 0.4667(3)
O18 O 0.1865(6) 0.8628(5) 0.3628(5)
C25 C 0.2090(7) 0.9207(4) 0.4207(4)
H9 H 0.1900 0.9274 0.4274
C26 C 0.2083(8) 0.8973(5) 0.3973(5)
C27 C 0.2675(8) 0.8999(5) 0.3999(5)
C28 C 0.2387(6) 0.8885(5) 0.3885(5)
H10 H 0.2400 0.8736 0.3736
C29 C 0.2349(6) 0.9351(6) 0.4351(6)
C30 C 0.2634(6) 0.9231(4) 0.4231(4)
H11 H 0.2812 0.9314 0.4314
O19 O 0.1582(6) 0.8942(4) 0.3942(4)
C31 C 0.1821(8) 0.8827(5) 0.3827(5)
O20 O 0.2584(6) 0.9679(4) 0.4679(4)
C32 C 0.2328(6) 0.9594(8) 0.4594(8)
C33 C 0.3228(9) 0.9021(8) 0.4021(8)
H12 H 0.3246 0.8983 0.4238
C34 C 0.3477(11) 0.8837(8) 0.3837(8)
C35 C 0.3569(8) 0.8569(8) 0.3958(12)
C36 C 0.3440(9) 0.8440(9) 0.4247(13)
H13 H 0.3983 0.8246 0.4238
H14 H 0.4238 0.8983 0.3246
H15 H 0.3246 0.9238 0.3983
Zn5 Zn 0.65969(8) 0.65969(8) 0.65969(8)
Zn6 Zn 0.61258(9) 0.61258(9) 0.61258(9)
O21 O 0.6101(4) 0.7940(6) 0.6101(4)
O22 O 0.5333(3) 0.7067(5) 0.5333(3)
O23 O 0.6372(5) 0.6865(6) 0.6372(5)
C37 C 0.5793(4) 0.7090(7) 0.5793(4)
H16 H 0.5726 0.6900 0.5726
C38 C 0.6027(5) 0.7083(8) 0.6027(5)
C39 C 0.6001(5) 0.7675(8) 0.6001(5)
C40 C 0.6115(5) 0.7387(6) 0.6115(5)
H17 H 0.6264 0.7400 0.6264
C41 C 0.5649(6) 0.7349(6) 0.5649(6)
C42 C 0.5769(4) 0.7634(6) 0.5769(4)
H18 H 0.5686 0.7812 0.5686
O24 O 0.6058(4) 0.6582(6) 0.6058(4)
C43 C 0.6173(5) 0.6821(8) 0.6173(5)
O25 O 0.5321(4) 0.7584(6) 0.5321(4)
C44 C 0.5406(8) 0.7328(6) 0.5406(8)
C45 C 0.5979(8) 0.8228(9) 0.5979(8)
H19 H 0.5762 0.8246 0.6017
C46 C 0.6163(8) 0.8477(11) 0.6163(8)
C47 C 0.6042(12) 0.8569(8) 0.6431(8)
C48 C 0.5753(13) 0.8440(9) 0.6560(9)
O26 O 0.6101(4) 0.8899(4) 0.7060(6)
O27 O 0.5333(3) 0.9667(3) 0.7933(5)
O28 O 0.6372(5) 0.8628(5) 0.8135(6)
C49 C 0.5793(4) 0.9207(4) 0.7910(7)
H20 H 0.5726 0.9274 0.8100
C50 C 0.6027(5) 0.8973(5) 0.7917(8)
C51 C 0.6001(5) 0.8999(5) 0.7325(8)
C52 C 0.6115(5) 0.8885(5) 0.7613(6)
H21 H 0.6264 0.8736 0.7600
C53 C 0.5649(6) 0.9351(6) 0.7651(6)
C54 C 0.5769(4) 0.9231(4) 0.7366(6)
H22 H 0.5686 0.9314 0.7188
O29 O 0.6058(4) 0.8942(4) 0.8418(6)
C55 C 0.6173(5) 0.8827(5) 0.8179(8)
O30 O 0.5321(4) 0.9679(4) 0.7416(6)
C56 C 0.5406(8) 0.9594(8) 0.7672(6)
C57 C 0.5979(8) 0.9021(8) 0.6772(9)
H23 H 0.6017 0.9238 0.6754
C58 C 0.6163(8) 0.8837(8) 0.6523(11)
C59 C 0.6431(8) 0.8958(12) 0.6431(8)
C60 C 0.6560(9) 0.9247(13) 0.6560(9)
O31 O 0.7060(6) 0.8899(4) 0.6101(4)
O32 O 0.7933(5) 0.9667(3) 0.5333(3)
O33 O 0.8135(6) 0.8628(5) 0.6372(5)
C61 C 0.7910(7) 0.9207(4) 0.5793(4)
H24 H 0.8100 0.9274 0.5726
C62 C 0.7917(8) 0.8973(5) 0.6027(5)
C63 C 0.7325(8) 0.8999(5) 0.6001(5)
C64 C 0.7613(6) 0.8885(5) 0.6115(5)
H25 H 0.7600 0.8736 0.6264
C65 C 0.7651(6) 0.9351(6) 0.5649(6)
C66 C 0.7366(6) 0.9231(4) 0.5769(4)
H26 H 0.7188 0.9314 0.5686
O34 O 0.8418(6) 0.8942(4) 0.6058(4)
C67 C 0.8179(8) 0.8827(5) 0.6173(5)
O35 O 0.7416(6) 0.9679(4) 0.5321(4)
C68 C 0.7672(6) 0.9594(8) 0.5406(8)
C69 C 0.6772(9) 0.9021(8) 0.5979(8)
H27 H 0.6754 0.8983 0.5762
C70 C 0.6523(11) 0.8837(8) 0.6163(8)
C71 C 0.6431(8) 0.8569(8) 0.6042(12)
C72 C 0.6560(9) 0.8440(9) 0.5753(13)
H28 H 0.6017 0.8246 0.5762
H29 H 0.5762 0.8983 0.6754
H30 H 0.6754 0.9238 0.6017
Zn7 Zn 0.5000 0.5000 0.23206(14)
Zn8 Zn 0.5000 0.5000 0.30063(15)
O36 O 0.3899(4) 0.6101(4) 0.2060(6)
O37 O 0.4667(3) 0.5333(3) 0.2933(5)
O38 O 0.3628(5) 0.6372(5) 0.3135(6)
C73 C 0.4207(4) 0.5793(4) 0.2910(7)
H31 H 0.4274 0.5726 0.3100
O39 O 0.5000 0.5000 0.3486(8)
C74 C 0.3973(5) 0.6027(5) 0.2917(8)
C75 C 0.3999(5) 0.6001(5) 0.2325(8)
C76 C 0.3885(5) 0.6115(5) 0.2613(6)
H32 H 0.3736 0.6264 0.2600
C77 C 0.4351(6) 0.5649(6) 0.2651(6)
C78 C 0.4231(4) 0.5769(4) 0.2366(6)
H33 H 0.4314 0.5686 0.2188
O40 O 0.3942(4) 0.6058(4) 0.3418(6)
C79 C 0.3827(5) 0.6173(5) 0.3179(8)
O41 O 0.4679(4) 0.5321(4) 0.2416(6)
O42 O 0.5000 0.5000 0.1849(10)
C80 C 0.4594(8) 0.5406(8) 0.2672(6)
C81 C 0.4021(8) 0.5979(8) 0.1772(9)
H34 H 0.3983 0.5762 0.1754
C82 C 0.3837(8) 0.6163(8) 0.1523(11)
C83 C 0.3569(8) 0.6042(12) 0.1431(8)
C84 C 0.3440(9) 0.5753(13) 0.1560(9)
O43 O 0.2940(6) 0.6101(4) 0.1101(4)
O44 O 0.2067(5) 0.5333(3) 0.0333(3)
O45 O 0.1865(6) 0.6372(5) 0.1372(5)
C85 C 0.2090(7) 0.5793(4) 0.0793(4)
H35 H 0.1900 0.5726 0.0726
C86 C 0.2083(8) 0.6027(5) 0.1027(5)
C87 C 0.2675(8) 0.6001(5) 0.1001(5)
C88 C 0.2387(6) 0.6115(5) 0.1115(5)
H36 H 0.2400 0.6264 0.1264
C89 C 0.2349(6) 0.5649(6) 0.0649(6)
C90 C 0.2634(6) 0.5769(4) 0.0769(4)
H37 H 0.2812 0.5686 0.0686
O46 O 0.1582(6) 0.6058(4) 0.1058(4)
C91 C 0.1821(8) 0.6173(5) 0.1173(5)
O47 O 0.2584(6) 0.5321(4) 0.0321(4)
C92 C 0.2328(6) 0.5406(8) 0.0406(8)
C93 C 0.3228(9) 0.5979(8) 0.0979(8)
H38 H 0.3246 0.6017 0.0762
C94 C 0.3477(11) 0.6163(8) 0.1163(8)
C95 C 0.3569(8) 0.6431(8) 0.1042(12)
C96 C 0.3440(9) 0.6560(9) 0.0753(13)
O48 O 0.3899(4) 0.7060(6) 0.1101(4)
O49 O 0.4667(3) 0.7933(5) 0.0333(3)
O50 O 0.3628(5) 0.8135(6) 0.1372(5)
C97 C 0.4207(4) 0.7910(7) 0.0793(4)
H39 H 0.4274 0.8100 0.0726
C98 C 0.3973(5) 0.7917(8) 0.1027(5)
C99 C 0.3999(5) 0.7325(8) 0.1001(5)
C100 C 0.3885(5) 0.7613(6) 0.1115(5)
H40 H 0.3736 0.7600 0.1264
C101 C 0.4351(6) 0.7651(6) 0.0649(6)
C102 C 0.4231(4) 0.7366(6) 0.0769(4)
H41 H 0.4314 0.7188 0.0686
O51 O 0.3942(4) 0.8418(6) 0.1058(4)
C103 C 0.3827(5) 0.8179(8) 0.1173(5)
O52 O 0.4679(4) 0.7416(6) 0.0321(4)
C104 C 0.4594(8) 0.7672(6) 0.0406(8)
C105 C 0.4021(8) 0.6772(9) 0.0979(8)
H42 H 0.4238 0.6754 0.1017
C106 C 0.3837(8) 0.6523(11) 0.1163(8)
C107 C 0.3958(12) 0.6431(8) 0.1431(8)
C108 C 0.4247(13) 0.6560(9) 0.1560(9)
H43 H 0.4238 0.6017 0.1754
H44 H 0.3246 0.5762 0.1017
H45 H 0.3983 0.6754 0.0762
Zn9 Zn 0.23206(14) 0.5000 0.5000
Zn10 Zn 0.30063(15) 0.5000 0.5000
O53 O 0.2060(6) 0.6101(4) 0.3899(4)
O54 O 0.2933(5) 0.5333(3) 0.4667(3)
O55 O 0.3135(6) 0.6372(5) 0.3628(5)
C109 C 0.2910(7) 0.5793(4) 0.4207(4)
H46 H 0.3100 0.5726 0.4274
O56 O 0.3486(8) 0.5000 0.5000
C110 C 0.2917(8) 0.6027(5) 0.3973(5)
C111 C 0.2325(8) 0.6001(5) 0.3999(5)
C112 C 0.2613(6) 0.6115(5) 0.3885(5)
H47 H 0.2600 0.6264 0.3736
C113 C 0.2651(6) 0.5649(6) 0.4351(6)
C114 C 0.2366(6) 0.5769(4) 0.4231(4)
H48 H 0.2188 0.5686 0.4314
O57 O 0.3418(6) 0.6058(4) 0.3942(4)
C115 C 0.3179(8) 0.6173(5) 0.3827(5)
O58 O 0.2416(6) 0.5321(4) 0.4679(4)
O59 O 0.1849(10) 0.5000 0.5000
C116 C 0.2672(6) 0.5406(8) 0.4594(8)
C117 C 0.1772(9) 0.5979(8) 0.4021(8)
H49 H 0.1754 0.6017 0.4238
C118 C 0.1523(11) 0.6163(8) 0.3837(8)
C119 C 0.1431(8) 0.6431(8) 0.3958(12)
C120 C 0.1560(9) 0.6560(9) 0.4247(13)
O60 O 0.1101(4) 0.7060(6) 0.3899(4)
O61 O 0.0333(3) 0.7933(5) 0.4667(3)
O62 O 0.1372(5) 0.8135(6) 0.3628(5)
C121 C 0.0793(4) 0.7910(7) 0.4207(4)
H50 H 0.0726 0.8100 0.4274
C122 C 0.1027(5) 0.7917(8) 0.3973(5)
C123 C 0.1001(5) 0.7325(8) 0.3999(5)
C124 C 0.1115(5) 0.7613(6) 0.3885(5)
H51 H 0.1264 0.7600 0.3736
C125 C 0.0649(6) 0.7651(6) 0.4351(6)
C126 C 0.0769(4) 0.7366(6) 0.4231(4)
H52 H 0.0686 0.7188 0.4314
O63 O 0.1058(4) 0.8418(6) 0.3942(4)
C127 C 0.1173(5) 0.8179(8) 0.3827(5)
O64 O 0.0321(4) 0.7416(6) 0.4679(4)
C128 C 0.0406(8) 0.7672(6) 0.4594(8)
C129 C 0.0979(8) 0.6772(9) 0.4021(8)
H53 H 0.0762 0.6754 0.3983
C130 C 0.1163(8) 0.6523(11) 0.3837(8)
C131 C 0.1042(12) 0.6431(8) 0.3569(8)
C132 C 0.0753(13) 0.6560(9) 0.3440(9)
O65 O 0.1101(4) 0.6101(4) 0.2940(6)
O66 O 0.0333(3) 0.5333(3) 0.2067(5)
O67 O 0.1372(5) 0.6372(5) 0.1865(6)
C133 C 0.0793(4) 0.5793(4) 0.2090(7)
H54 H 0.0726 0.5726 0.1900
C134 C 0.1027(5) 0.6027(5) 0.2083(8)
C135 C 0.1001(5) 0.6001(5) 0.2675(8)
C136 C 0.1115(5) 0.6115(5) 0.2387(6)
H55 H 0.1264 0.6264 0.2400
C137 C 0.0649(6) 0.5649(6) 0.2349(6)
C138 C 0.0769(4) 0.5769(4) 0.2634(6)
H56 H 0.0686 0.5686 0.2812
O68 O 0.1058(4) 0.6058(4) 0.1582(6)
C139 C 0.1173(5) 0.6173(5) 0.1821(8)
O69 O 0.0321(4) 0.5321(4) 0.2584(6)
C140 C 0.0406(8) 0.5406(8) 0.2328(6)
C141 C 0.0979(8) 0.5979(8) 0.3228(9)
H57 H 0.1017 0.5762 0.3246
C142 C 0.1163(8) 0.6163(8) 0.3477(11)
C143 C 0.1431(8) 0.6042(12) 0.3569(8)
C144 C 0.1560(9) 0.5753(13) 0.3440(9)
H58 H 0.1754 0.5762 0.3983
H59 H 0.1017 0.6754 0.4238
H60 H 0.0762 0.6017 0.3246
Zn11 Zn 0.34031(8) 0.84031(8) 0.15969(8)
Zn12 Zn 0.38742(9) 0.88742(9) 0.11258(9)
Zn13 Zn 0.15969(8) 0.84031(8) 0.34031(8)
Zn14 Zn 0.11258(9) 0.88742(9) 0.38742(9)
Zn15 Zn 0.5000 0.73206(14) 0.0000
Zn16_2 Zn 0.5000 1.0000 0.26794(14)
Zn17_2 Zn 0.5000 1.0000 0.73206(14)
Zn18 Zn -0.0000 0.5000 0.26794(14)
Zn19 Zn 0.26794(14) 0.5000 0.0000
Zn20 Zn -0.0000 0.73206(14) 0.5000
Zn21_2 Zn 0.26794(14) 1.0000 0.5000
Zn22_2 Zn 0.73206(14) 1.0000 0.5000
Zn23 Zn 0.5000 0.80063(15) 0.0000
Zn24_2 Zn 0.5000 1.0000 0.19937(15)
Zn25_2 Zn 0.5000 1.0000 0.80063(15)
Zn26 Zn -0.0000 0.5000 0.19937(15)
Zn27 Zn 0.19937(15) 0.5000 0.0000
Zn28 Zn -0.0000 0.80063(15) 0.5000
Zn29_2 Zn 0.19937(15) 1.0000 0.5000
Zn30_2 Zn 0.80063(15) 1.0000 0.5000
Zn31 Zn 0.65969(8) 0.84031(8) 0.84031(8)
Zn32 Zn 0.15969(8) 0.65969(8) 0.15969(8)
Zn33 Zn 0.84031(8) 0.84031(8) 0.65969(8)
Zn34 Zn 0.61258(9) 0.88742(9) 0.88742(9)
Zn35 Zn 0.11258(9) 0.61258(9) 0.11258(9)
Zn36 Zn 0.88742(9) 0.88742(9) 0.61258(9)
O70 O 0.5333(3) 0.4667(3) 0.2933(5)
O71 O 0.2933(5) 0.4667(3) 0.5333(3)
O72 O 0.2933(5) 0.5333(3) 0.5333(3)
O73 O 0.2933(5) 0.4667(3) 0.4667(3)
O74 O 0.4667(3) 0.4667(3) 0.2933(5)
O75 O 0.5333(3) 0.5333(3) 0.2933(5)
O76 O 0.4667(3) 0.7067(5) 0.5333(3)
O77 O 0.5333(3) 0.7067(5) 0.4667(3)
O78 O 0.6372(5) 0.6372(5) 0.6865(6)
O79 O 0.6865(6) 0.6372(5) 0.6372(5)
O80 O 0.3135(6) 0.8628(5) 0.1372(5)
O81 O 0.1372(5) 0.8628(5) 0.3135(6)
O82 O 0.6058(4) 0.6058(4) 0.6582(6)
O83 O 0.6582(6) 0.6058(4) 0.6058(4)
O84 O 0.3418(6) 0.8942(4) 0.1058(4)
O85 O 0.1058(4) 0.8942(4) 0.3418(6)
O86 O 0.5321(4) 0.4679(4) 0.2416(6)
O87 O 0.2416(6) 0.4679(4) 0.5321(4)
O88 O 0.2416(6) 0.5321(4) 0.5321(4)
O89 O 0.2416(6) 0.4679(4) 0.4679(4)
O90 O 0.4679(4) 0.4679(4) 0.2416(6)
O91 O 0.5321(4) 0.5321(4) 0.2416(6)
O92 O 0.4679(4) 0.7584(6) 0.5321(4)
O93 O 0.5321(4) 0.7584(6) 0.4679(4)
H61 H 0.456688 0.688984 0.456688
H62 H 0.421993 0.819534 0.340436
H63 H 0.429737 0.855033 0.322286
H64 H 0.443402 0.848044 0.359889
H69 H 0.578007 0.819534 0.659564
H70 H 0.570263 0.855033 0.677714
H71 H 0.556598 0.848044 0.640111
H72 H 0.340436 0.921993 0.319534
H73 H 0.322286 0.929737 0.355033
H74 H 0.359889 0.943402 0.348044
H75 H 0.359889 0.848044 0.443402
H76 H 0.322286 0.855033 0.429737
H77 H 0.340436 0.819534 0.421993
H78 H 0.340436 0.578007 0.180466
H79 H 0.322286 0.570263 0.144967
H80 H 0.359889 0.556598 0.151956
H81 H 0.659564 0.921993 0.680466
H82 H 0.677714 0.929737 0.644967
H83 H 0.640111 0.943402 0.651956
H84 H 0.640111 0.848044 0.556598
H85 H 0.677714 0.855033 0.570263
H86 H 0.659564 0.819534 0.578007
H91 H 0.319534 0.659564 0.0780071
H92 H 0.355033 0.677714 0.0702632
H93 H 0.348044 0.640111 0.0565981
H94 H 0.443402 0.640111 0.151956
H95 H 0.429737 0.677714 0.144967
H96 H 0.421993 0.659564 0.180466
H99 H 0.180466 0.659564 0.421993
H100 H 0.144967 0.677714 0.429737
H101 H 0.151956 0.640111 0.443402
H104 H 0.151956 0.556598 0.359889
H105 H 0.144967 0.570263 0.322286
H106 H 0.180466 0.578007 0.340436
H107 H 0.0780071 0.680466 0.340436
H108 H 0.0702632 0.644967 0.322286
H109 H 0.0565981 0.651956 0.359889
Zn15_2 Zn 0.5000 0.73206(14) 1.0000
Zn19_2 Zn 0.26794(14) 0.5000 1.0000
Zn23_2 Zn 0.5000 0.80063(15) 1.0000
Zn27_2 Zn 0.19937(15) 0.5000 1.0000
Zn18_2 Zn 1.0000 0.5000 0.26794(14)
Zn20_2 Zn 1.0000 0.73206(14) 0.5000
Zn26_2 Zn 1.0000 0.5000 0.19937(15)
Zn28_2 Zn 1.0000 0.80063(15) 0.5000
Zn20_3 Zn 0.0000 0.26794(14) 0.5000
Zn28_3 Zn -0.0000 0.19937(15) 0.5000
Zn1_2 Zn 0.5000 0.23206(14) 0.5000
Zn2_2 Zn 0.5000 0.30063(15) 0.5000
Zn3_2 Zn 0.65969(8) 0.34031(8) 0.34031(8)
Zn4_2 Zn 0.61258(9) 0.38742(9) 0.38742(9)
O4_2 O 0.6101(4) 0.2060(6) 0.3899(4)
O5_2 O 0.5333(3) 0.2933(5) 0.4667(3)
O6_2 O 0.6372(5) 0.3135(6) 0.3628(5)
C1_2 C 0.5793(4) 0.2910(7) 0.4207(4)
H1_2 H 0.5726 0.3100 0.4274
O7_2 O 0.5000 0.3486(8) 0.5000
C2_2 C 0.6027(5) 0.2917(8) 0.3973(5)
C3_2 C 0.6001(5) 0.2325(8) 0.3999(5)
C4_2 C 0.6115(5) 0.2613(6) 0.3885(5)
H2_2 H 0.6264 0.2600 0.3736
C5_2 C 0.5649(6) 0.2651(6) 0.4351(6)
C6_2 C 0.5769(4) 0.2366(6) 0.4231(4)
H3_2 H 0.5686 0.2188 0.4314
O8_2 O 0.6058(4) 0.3418(6) 0.3942(4)
C7_2 C 0.6173(5) 0.3179(8) 0.3827(5)
O9_2 O 0.5321(4) 0.2416(6) 0.4679(4)
O10_2 O 0.5000 0.1849(10) 0.5000
C8_2 C 0.5406(8) 0.2672(6) 0.4594(8)
C9_2 C 0.5979(8) 0.1772(9) 0.4021(8)
H4_2 H 0.5762 0.1754 0.3983
C10_2 C 0.6163(8) 0.1523(11) 0.3837(8)
C11_2 C 0.6042(12) 0.1431(8) 0.3569(8)
C12_2 C 0.5753(13) 0.1560(9) 0.3440(9)
O11_2 O 0.6101(4) 0.1101(4) 0.2940(6)
O12_2 O 0.5333(3) 0.0333(3) 0.2067(5)
O13_2 O 0.6372(5) 0.1372(5) 0.1865(6)
C13_2 C 0.5793(4) 0.0793(4) 0.2090(7)
H5_2 H 0.5726 0.0726 0.1900
C14_2 C 0.6027(5) 0.1027(5) 0.2083(8)
C15_2 C 0.6001(5) 0.1001(5) 0.2675(8)
C16_2 C 0.6115(5) 0.1115(5) 0.2387(6)
H6_2 H 0.6264 0.1264 0.2400
C17_2 C 0.5649(6) 0.0649(6) 0.2349(6)
C18_2 C 0.5769(4) 0.0769(4) 0.2634(6)
H7_2 H 0.5686 0.0686 0.2812
O14_2 O 0.6058(4) 0.1058(4) 0.1582(6)
C19_2 C 0.6173(5) 0.1173(5) 0.1821(8)
O15_2 O 0.5321(4) 0.0321(4) 0.2584(6)
C20_2 C 0.5406(8) 0.0406(8) 0.2328(6)
C21_2 C 0.5979(8) 0.0979(8) 0.3228(9)
H8_2 H 0.6017 0.0762 0.3246
C22_2 C 0.6163(8) 0.1163(8) 0.3477(11)
C23_2 C 0.6431(8) 0.1042(12) 0.3569(8)
C24_2 C 0.6560(9) 0.0753(13) 0.3440(9)
O16_2 O 0.7060(6) 0.1101(4) 0.3899(4)
O17_2 O 0.7933(5) 0.0333(3) 0.4667(3)
O18_2 O 0.8135(6) 0.1372(5) 0.3628(5)
C25_2 C 0.7910(7) 0.0793(4) 0.4207(4)
H9_2 H 0.8100 0.0726 0.4274
C26_2 C 0.7917(8) 0.1027(5) 0.3973(5)
C27_2 C 0.7325(8) 0.1001(5) 0.3999(5)
C28_2 C 0.7613(6) 0.1115(5) 0.3885(5)
H10_2 H 0.7600 0.1264 0.3736
C29_2 C 0.7651(6) 0.0649(6) 0.4351(6)
C30_2 C 0.7366(6) 0.0769(4) 0.4231(4)
H11_2 H 0.7188 0.0686 0.4314
O19_2 O 0.8418(6) 0.1058(4) 0.3942(4)
C31_2 C 0.8179(8) 0.1173(5) 0.3827(5)
O20_2 O 0.7416(6) 0.0321(4) 0.4679(4)
C32_2 C 0.7672(6) 0.0406(8) 0.4594(8)
C33_2 C 0.6772(9) 0.0979(8) 0.4021(8)
H12_2 H 0.6754 0.1017 0.4238
C34_2 C 0.6523(11) 0.1163(8) 0.3837(8)
C35_2 C 0.6431(8) 0.1431(8) 0.3958(12)
C36_2 C 0.6560(9) 0.1560(9) 0.4247(13)
H13_2 H 0.6017 0.1754 0.4238
H14_2 H 0.5762 0.1017 0.3246
H15_2 H 0.6754 0.0762 0.3983
Zn5_2 Zn 0.34031(8) 0.34031(8) 0.65969(8)
Zn6_2 Zn 0.38742(9) 0.38742(9) 0.61258(9)
O21_2 O 0.3899(4) 0.2060(6) 0.6101(4)
O22_2 O 0.4667(3) 0.2933(5) 0.5333(3)
O23_2 O 0.3628(5) 0.3135(6) 0.6372(5)
C37_2 C 0.4207(4) 0.2910(7) 0.5793(4)
H16_2 H 0.4274 0.3100 0.5726
C38_2 C 0.3973(5) 0.2917(8) 0.6027(5)
C39_2 C 0.3999(5) 0.2325(8) 0.6001(5)
C40_2 C 0.3885(5) 0.2613(6) 0.6115(5)
H17_2 H 0.3736 0.2600 0.6264
C41_2 C 0.4351(6) 0.2651(6) 0.5649(6)
C42_2 C 0.4231(4) 0.2366(6) 0.5769(4)
H18_2 H 0.4314 0.2188 0.5686
O24_2 O 0.3942(4) 0.3418(6) 0.6058(4)
C43_2 C 0.3827(5) 0.3179(8) 0.6173(5)
O25_2 O 0.4679(4) 0.2416(6) 0.5321(4)
C44_2 C 0.4594(8) 0.2672(6) 0.5406(8)
C45_2 C 0.4021(8) 0.1772(9) 0.5979(8)
H19_2 H 0.4238 0.1754 0.6017
C46_2 C 0.3837(8) 0.1523(11) 0.6163(8)
C47_2 C 0.3958(12) 0.1431(8) 0.6431(8)
C48_2 C 0.4247(13) 0.1560(9) 0.6560(9)
O26_2 O 0.3899(4) 0.1101(4) 0.7060(6)
O27_2 O 0.4667(3) 0.0333(3) 0.7933(5)
O28_2 O 0.3628(5) 0.1372(5) 0.8135(6)
C49_2 C 0.4207(4) 0.0793(4) 0.7910(7)
H20_2 H 0.4274 0.0726 0.8100
C50_2 C 0.3973(5) 0.1027(5) 0.7917(8)
C51_2 C 0.3999(5) 0.1001(5) 0.7325(8)
C52_2 C 0.3885(5) 0.1115(5) 0.7613(6)
H21_2 H 0.3736 0.1264 0.7600
C53_2 C 0.4351(6) 0.0649(6) 0.7651(6)
C54_2 C 0.4231(4) 0.0769(4) 0.7366(6)
H22_2 H 0.4314 0.0686 0.7188
O29_2 O 0.3942(4) 0.1058(4) 0.8418(6)
C55_2 C 0.3827(5) 0.1173(5) 0.8179(8)
O30_2 O 0.4679(4) 0.0321(4) 0.7416(6)
C56_2 C 0.4594(8) 0.0406(8) 0.7672(6)
C57_2 C 0.4021(8) 0.0979(8) 0.6772(9)
H23_2 H 0.3983 0.0762 0.6754
C58_2 C 0.3837(8) 0.1163(8) 0.6523(11)
C59_2 C 0.3569(8) 0.1042(12) 0.6431(8)
C60_2 C 0.3440(9) 0.0753(13) 0.6560(9)
O31_2 O 0.2940(6) 0.1101(4) 0.6101(4)
O32_2 O 0.2067(5) 0.0333(3) 0.5333(3)
O33_2 O 0.1865(6) 0.1372(5) 0.6372(5)
C61_2 C 0.2090(7) 0.0793(4) 0.5793(4)
H24_2 H 0.1900 0.0726 0.5726
C62_2 C 0.2083(8) 0.1027(5) 0.6027(5)
C63_2 C 0.2675(8) 0.1001(5) 0.6001(5)
C64_2 C 0.2387(6) 0.1115(5) 0.6115(5)
H25_2 H 0.2400 0.1264 0.6264
C65_2 C 0.2349(6) 0.0649(6) 0.5649(6)
C66_2 C 0.2634(6) 0.0769(4) 0.5769(4)
H26_2 H 0.2812 0.0686 0.5686
O34_2 O 0.1582(6) 0.1058(4) 0.6058(4)
C67_2 C 0.1821(8) 0.1173(5) 0.6173(5)
O35_2 O 0.2584(6) 0.0321(4) 0.5321(4)
C68_2 C 0.2328(6) 0.0406(8) 0.5406(8)
C69_2 C 0.3228(9) 0.0979(8) 0.5979(8)
H27_2 H 0.3246 0.1017 0.5762
C70_2 C 0.3477(11) 0.1163(8) 0.6163(8)
C71_2 C 0.3569(8) 0.1431(8) 0.6042(12)
C72_2 C 0.3440(9) 0.1560(9) 0.5753(13)
H28_2 H 0.3983 0.1754 0.5762
H29_2 H 0.4238 0.1017 0.6754
H30_2 H 0.3246 0.0762 0.6017
O36_2 O 0.6101(4) 0.3899(4) 0.2060(6)
O38_2 O 0.6372(5) 0.3628(5) 0.3135(6)
C73_2 C 0.5793(4) 0.4207(4) 0.2910(7)
H31_2 H 0.5726 0.4274 0.3100
C74_2 C 0.6027(5) 0.3973(5) 0.2917(8)
C75_2 C 0.6001(5) 0.3999(5) 0.2325(8)
C76_2 C 0.6115(5) 0.3885(5) 0.2613(6)
H32_2 H 0.6264 0.3736 0.2600
C77_2 C 0.5649(6) 0.4351(6) 0.2651(6)
C78_2 C 0.5769(4) 0.4231(4) 0.2366(6)
H33_2 H 0.5686 0.4314 0.2188
O40_2 O 0.6058(4) 0.3942(4) 0.3418(6)
C79_2 C 0.6173(5) 0.3827(5) 0.3179(8)
C80_2 C 0.5406(8) 0.4594(8) 0.2672(6)
C81_2 C 0.5979(8) 0.4021(8) 0.1772(9)
H34_2 H 0.6017 0.4238 0.1754
C82_2 C 0.6163(8) 0.3837(8) 0.1523(11)
C83_2 C 0.6431(8) 0.3958(12) 0.1431(8)
C84_2 C 0.6560(9) 0.4247(13) 0.1560(9)
O43_2 O 0.7060(6) 0.3899(4) 0.1101(4)
O44_2 O 0.7933(5) 0.4667(3) 0.0333(3)
O45_2 O 0.8135(6) 0.3628(5) 0.1372(5)
C85_2 C 0.7910(7) 0.4207(4) 0.0793(4)
H35_2 H 0.8100 0.4274 0.0726
C86_2 C 0.7917(8) 0.3973(5) 0.1027(5)
C87_2 C 0.7325(8) 0.3999(5) 0.1001(5)
C88_2 C 0.7613(6) 0.3885(5) 0.1115(5)
H36_2 H 0.7600 0.3736 0.1264
C89_2 C 0.7651(6) 0.4351(6) 0.0649(6)
C90_2 C 0.7366(6) 0.4231(4) 0.0769(4)
H37_2 H 0.7188 0.4314 0.0686
O46_2 O 0.8418(6) 0.3942(4) 0.1058(4)
C91_2 C 0.8179(8) 0.3827(5) 0.1173(5)
O47_2 O 0.7416(6) 0.4679(4) 0.0321(4)
C92_2 C 0.7672(6) 0.4594(8) 0.0406(8)
C93_2 C 0.6772(9) 0.4021(8) 0.0979(8)
H38_2 H 0.6754 0.3983 0.0762
C94_2 C 0.6523(11) 0.3837(8) 0.1163(8)
C95_2 C 0.6431(8) 0.3569(8) 0.1042(12)
C96_2 C 0.6560(9) 0.3440(9) 0.0753(13)
O48_2 O 0.6101(4) 0.2940(6) 0.1101(4)
O49_2 O 0.5333(3) 0.2067(5) 0.0333(3)
O50_2 O 0.6372(5) 0.1865(6) 0.1372(5)
C97_2 C 0.5793(4) 0.2090(7) 0.0793(4)
H39_2 H 0.5726 0.1900 0.0726
C98_2 C 0.6027(5) 0.2083(8) 0.1027(5)
C99_2 C 0.6001(5) 0.2675(8) 0.1001(5)
C100_2 C 0.6115(5) 0.2387(6) 0.1115(5)
H40_2 H 0.6264 0.2400 0.1264
C101_2 C 0.5649(6) 0.2349(6) 0.0649(6)
C102_2 C 0.5769(4) 0.2634(6) 0.0769(4)
H41_2 H 0.5686 0.2812 0.0686
O51_2 O 0.6058(4) 0.1582(6) 0.1058(4)
C103_2 C 0.6173(5) 0.1821(8) 0.1173(5)
O52_2 O 0.5321(4) 0.2584(6) 0.0321(4)
C104_2 C 0.5406(8) 0.2328(6) 0.0406(8)
C105_2 C 0.5979(8) 0.3228(9) 0.0979(8)
H42_2 H 0.5762 0.3246 0.1017
C106_2 C 0.6163(8) 0.3477(11) 0.1163(8)
C107_2 C 0.6042(12) 0.3569(8) 0.1431(8)
C108_2 C 0.5753(13) 0.3440(9) 0.1560(9)
H43_2 H 0.5762 0.3983 0.1754
H44_2 H 0.6754 0.4238 0.1017
H45_2 H 0.6017 0.3246 0.0762
Zn9_2 Zn 0.76794(14) 0.5000 0.5000
Zn10_2 Zn 0.69937(15) 0.5000 0.5000
O53_2 O 0.7940(6) 0.3899(4) 0.3899(4)
O54_2 O 0.7067(5) 0.4667(3) 0.4667(3)
O55_2 O 0.6865(6) 0.3628(5) 0.3628(5)
C109_2 C 0.7090(7) 0.4207(4) 0.4207(4)
H46_2 H 0.6900 0.4274 0.4274
O56_2 O 0.6514(8) 0.5000 0.5000
C110_2 C 0.7083(8) 0.3973(5) 0.3973(5)
C111_2 C 0.7675(8) 0.3999(5) 0.3999(5)
C112_2 C 0.7387(6) 0.3885(5) 0.3885(5)
H47_2 H 0.7400 0.3736 0.3736
C113_2 C 0.7349(6) 0.4351(6) 0.4351(6)
C114_2 C 0.7634(6) 0.4231(4) 0.4231(4)
H48_2 H 0.7812 0.4314 0.4314
O57_2 O 0.6582(6) 0.3942(4) 0.3942(4)
C115_2 C 0.6821(8) 0.3827(5) 0.3827(5)
O58_2 O 0.7584(6) 0.4679(4) 0.4679(4)
O59_2 O 0.8151(10) 0.5000 0.5000
C116_2 C 0.7328(6) 0.4594(8) 0.4594(8)
C117_2 C 0.8228(9) 0.4021(8) 0.4021(8)
H49_2 H 0.8246 0.3983 0.4238
C118_2 C 0.8477(11) 0.3837(8) 0.3837(8)
C119_2 C 0.8569(8) 0.3569(8) 0.3958(12)
C120_2 C 0.8440(9) 0.3440(9) 0.4247(13)
O60_2 O 0.8899(4) 0.2940(6) 0.3899(4)
O61_2 O 0.9667(3) 0.2067(5) 0.4667(3)
O62_2 O 0.8628(5) 0.1865(6) 0.3628(5)
C121_2 C 0.9207(4) 0.2090(7) 0.4207(4)
H50_2 H 0.9274 0.1900 0.4274
C122_2 C 0.8973(5) 0.2083(8) 0.3973(5)
C123_2 C 0.8999(5) 0.2675(8) 0.3999(5)
C124_2 C 0.8885(5) 0.2387(6) 0.3885(5)
H51_2 H 0.8736 0.2400 0.3736
C125_2 C 0.9351(6) 0.2349(6) 0.4351(6)
C126_2 C 0.9231(4) 0.2634(6) 0.4231(4)
H52_2 H 0.9314 0.2812 0.4314
O63_2 O 0.8942(4) 0.1582(6) 0.3942(4)
C127_2 C 0.8827(5) 0.1821(8) 0.3827(5)
O64_2 O 0.9679(4) 0.2584(6) 0.4679(4)
C128_2 C 0.9594(8) 0.2328(6) 0.4594(8)
C129_2 C 0.9021(8) 0.3228(9) 0.4021(8)
H53_2 H 0.9238 0.3246 0.3983
C130_2 C 0.8837(8) 0.3477(11) 0.3837(8)
C131_2 C 0.8958(12) 0.3569(8) 0.3569(8)
C132_2 C 0.9247(13) 0.3440(9) 0.3440(9)
O65_2 O 0.8899(4) 0.3899(4) 0.2940(6)
O66_2 O 0.9667(3) 0.4667(3) 0.2067(5)
O67_2 O 0.8628(5) 0.3628(5) 0.1865(6)
C133_2 C 0.9207(4) 0.4207(4) 0.2090(7)
H54_2 H 0.9274 0.4274 0.1900
C134_2 C 0.8973(5) 0.3973(5) 0.2083(8)
C135_2 C 0.8999(5) 0.3999(5) 0.2675(8)
C136_2 C 0.8885(5) 0.3885(5) 0.2387(6)
H55_2 H 0.8736 0.3736 0.2400
C137_2 C 0.9351(6) 0.4351(6) 0.2349(6)
C138_2 C 0.9231(4) 0.4231(4) 0.2634(6)
H56_2 H 0.9314 0.4314 0.2812
O68_2 O 0.8942(4) 0.3942(4) 0.1582(6)
C139_2 C 0.8827(5) 0.3827(5) 0.1821(8)
O69_2 O 0.9679(4) 0.4679(4) 0.2584(6)
C140_2 C 0.9594(8) 0.4594(8) 0.2328(6)
C141_2 C 0.9021(8) 0.4021(8) 0.3228(9)
H57_2 H 0.8983 0.4238 0.3246
C142_2 C 0.8837(8) 0.3837(8) 0.3477(11)
C143_2 C 0.8569(8) 0.3958(12) 0.3569(8)
C144_2 C 0.8440(9) 0.4247(13) 0.3440(9)
H58_2 H 0.8246 0.4238 0.3983
H59_2 H 0.8983 0.3246 0.4238
H60_2 H 0.9238 0.3983 0.3246
Zn11_2 Zn 0.65969(8) 0.15969(8) 0.15969(8)
Zn12_2 Zn 0.61258(9) 0.11258(9) 0.11258(9)
Zn13_2 Zn 0.84031(8) 0.15969(8) 0.34031(8)
Zn14_2 Zn 0.88742(9) 0.11258(9) 0.38742(9)
Zn15_3 Zn 0.5000 0.26794(14) 0.0000
Zn19_3 Zn 0.73206(14) 0.5000 0.0000
Zn20_4 Zn 1.0000 0.26794(14) 0.5000
Zn23_3 Zn 0.5000 0.19937(15) 0.0000
Zn27_3 Zn 0.80063(15) 0.5000 0.0000
Zn28_4 Zn 1.0000 0.19937(15) 0.5000
Zn31_2 Zn 0.34031(8) 0.15969(8) 0.84031(8)
Zn32_2 Zn 0.84031(8) 0.34031(8) 0.15969(8)
Zn33_2 Zn 0.15969(8) 0.15969(8) 0.65969(8)
Zn34_2 Zn 0.38742(9) 0.11258(9) 0.88742(9)
Zn35_2 Zn 0.88742(9) 0.38742(9) 0.11258(9)
Zn36_2 Zn 0.11258(9) 0.11258(9) 0.61258(9)
O71_2 O 0.7067(5) 0.5333(3) 0.5333(3)
O72_2 O 0.7067(5) 0.4667(3) 0.5333(3)
O73_2 O 0.7067(5) 0.5333(3) 0.4667(3)
O76_2 O 0.5333(3) 0.2933(5) 0.5333(3)
O77_2 O 0.4667(3) 0.2933(5) 0.4667(3)
O78_2 O 0.3628(5) 0.3628(5) 0.6865(6)
O79_2 O 0.3135(6) 0.3628(5) 0.6372(5)
O80_2 O 0.6865(6) 0.1372(5) 0.1372(5)
O81_2 O 0.8628(5) 0.1372(5) 0.3135(6)
O82_2 O 0.3942(4) 0.3942(4) 0.6582(6)
O83_2 O 0.3418(6) 0.3942(4) 0.6058(4)
O84_2 O 0.6582(6) 0.1058(4) 0.1058(4)
O85_2 O 0.8942(4) 0.1058(4) 0.3418(6)
O87_2 O 0.7584(6) 0.5321(4) 0.5321(4)
O88_2 O 0.7584(6) 0.4679(4) 0.5321(4)
O89_2 O 0.7584(6) 0.5321(4) 0.4679(4)
O92_2 O 0.5321(4) 0.2416(6) 0.5321(4)
O93_2 O 0.4679(4) 0.2416(6) 0.4679(4)
H61_2 H 0.543312 0.311016 0.456688
H62_2 H 0.578007 0.180466 0.340436
H63_2 H 0.570263 0.144967 0.322286
H64_2 H 0.556598 0.151956 0.359889
H69_2 H 0.421993 0.180466 0.659564
H70_2 H 0.429737 0.144967 0.677714
H71_2 H 0.443402 0.151956 0.640111
H72_2 H 0.659564 0.0780071 0.319534
H73_2 H 0.677714 0.0702632 0.355033
H74_2 H 0.640111 0.0565981 0.348044
H75_2 H 0.640111 0.151956 0.443402
H76_2 H 0.677714 0.144967 0.429737
H77_2 H 0.659564 0.180466 0.421993
H78_2 H 0.659564 0.421993 0.180466
H79_2 H 0.677714 0.429737 0.144967
H80_2 H 0.640111 0.443402 0.151956
H81_2 H 0.340436 0.0780071 0.680466
H82_2 H 0.322286 0.0702632 0.644967
H83_2 H 0.359889 0.0565981 0.651956
H84_2 H 0.359889 0.151956 0.556598
H85_2 H 0.322286 0.144967 0.570263
H86_2 H 0.340436 0.180466 0.578007
H91_2 H 0.680466 0.340436 0.0780071
H92_2 H 0.644967 0.322286 0.0702632
H93_2 H 0.651956 0.359889 0.0565981
H94_2 H 0.556598 0.359889 0.151956
H95_2 H 0.570263 0.322286 0.144967
H96_2 H 0.578007 0.340436 0.180466
H99_2 H 0.819534 0.340436 0.421993
H100_2 H 0.855033 0.322286 0.429737
H101_2 H 0.848044 0.359889 0.443402
H104_2 H 0.848044 0.443402 0.359889
H105_2 H 0.855033 0.429737 0.322286
H106_2 H 0.819534 0.421993 0.340436
H107_2 H 0.921993 0.319534 0.340436
H108_2 H 0.929737 0.355033 0.322286
H109_2 H 0.943402 0.348044 0.359889
Zn15_4 Zn 0.5000 0.26794(14) 1.0000
Zn19_4 Zn 0.73206(14) 0.5000 1.0000
Zn23_4 Zn 0.5000 0.19937(15) 1.0000
Zn27_4 Zn 0.80063(15) 0.5000 1.0000
Zn18_3 Zn -0.0000 0.5000 0.73206(14)
Zn26_3 Zn -0.0000 0.5000 0.80063(15)
Zn7_2 Zn 0.5000 0.5000 0.76794(14)
Zn8_2 Zn 0.5000 0.5000 0.69937(15)
O36_3 O 0.6101(4) 0.6101(4) 0.7940(6)
O37_2 O 0.5333(3) 0.5333(3) 0.7067(5)
C73_3 C 0.5793(4) 0.5793(4) 0.7090(7)
H31_3 H 0.5726 0.5726 0.6900
O39_2 O 0.5000 0.5000 0.6514(8)
C74_3 C 0.6027(5) 0.6027(5) 0.7083(8)
C75_3 C 0.6001(5) 0.6001(5) 0.7675(8)
C76_3 C 0.6115(5) 0.6115(5) 0.7387(6)
H32_3 H 0.6264 0.6264 0.7400
C77_3 C 0.5649(6) 0.5649(6) 0.7349(6)
C78_3 C 0.5769(4) 0.5769(4) 0.7634(6)
H33_3 H 0.5686 0.5686 0.7812
C79_3 C 0.6173(5) 0.6173(5) 0.6821(8)
O41_2 O 0.5321(4) 0.5321(4) 0.7584(6)
O42_2 O 0.5000 0.5000 0.8151(10)
C80_3 C 0.5406(8) 0.5406(8) 0.7328(6)
C81_3 C 0.5979(8) 0.5979(8) 0.8228(9)
H34_3 H 0.6017 0.5762 0.8246
C82_3 C 0.6163(8) 0.6163(8) 0.8477(11)
C83_3 C 0.6431(8) 0.6042(12) 0.8569(8)
C84_3 C 0.6560(9) 0.5753(13) 0.8440(9)
O43_3 O 0.7060(6) 0.6101(4) 0.8899(4)
O44_3 O 0.7933(5) 0.5333(3) 0.9667(3)
O45_3 O 0.8135(6) 0.6372(5) 0.8628(5)
C85_3 C 0.7910(7) 0.5793(4) 0.9207(4)
H35_3 H 0.8100 0.5726 0.9274
C86_3 C 0.7917(8) 0.6027(5) 0.8973(5)
C87_3 C 0.7325(8) 0.6001(5) 0.8999(5)
C88_3 C 0.7613(6) 0.6115(5) 0.8885(5)
H36_3 H 0.7600 0.6264 0.8736
C89_3 C 0.7651(6) 0.5649(6) 0.9351(6)
C90_3 C 0.7366(6) 0.5769(4) 0.9231(4)
H37_3 H 0.7188 0.5686 0.9314
O46_3 O 0.8418(6) 0.6058(4) 0.8942(4)
C91_3 C 0.8179(8) 0.6173(5) 0.8827(5)
O47_3 O 0.7416(6) 0.5321(4) 0.9679(4)
C92_3 C 0.7672(6) 0.5406(8) 0.9594(8)
C93_3 C 0.6772(9) 0.5979(8) 0.9021(8)
H38_3 H 0.6754 0.6017 0.9238
C94_3 C 0.6523(11) 0.6163(8) 0.8837(8)
C95_3 C 0.6431(8) 0.6431(8) 0.8958(12)
C96_3 C 0.6560(9) 0.6560(9) 0.9247(13)
O48_3 O 0.6101(4) 0.7060(6) 0.8899(4)
O49_3 O 0.5333(3) 0.7933(5) 0.9667(3)
O50_3 O 0.6372(5) 0.8135(6) 0.8628(5)
C97_3 C 0.5793(4) 0.7910(7) 0.9207(4)
H39_3 H 0.5726 0.8100 0.9274
C98_3 C 0.6027(5) 0.7917(8) 0.8973(5)
C99_3 C 0.6001(5) 0.7325(8) 0.8999(5)
C100_3 C 0.6115(5) 0.7613(6) 0.8885(5)
H40_3 H 0.6264 0.7600 0.8736
C101_3 C 0.5649(6) 0.7651(6) 0.9351(6)
C102_3 C 0.5769(4) 0.7366(6) 0.9231(4)
H41_3 H 0.5686 0.7188 0.9314
O51_3 O 0.6058(4) 0.8418(6) 0.8942(4)
C103_3 C 0.6173(5) 0.8179(8) 0.8827(5)
O52_3 O 0.5321(4) 0.7416(6) 0.9679(4)
C104_3 C 0.5406(8) 0.7672(6) 0.9594(8)
C105_3 C 0.5979(8) 0.6772(9) 0.9021(8)
H42_3 H 0.5762 0.6754 0.8983
C106_3 C 0.6163(8) 0.6523(11) 0.8837(8)
C107_3 C 0.6042(12) 0.6431(8) 0.8569(8)
C108_3 C 0.5753(13) 0.6560(9) 0.8440(9)
H43_3 H 0.5762 0.6017 0.8246
H44_3 H 0.6754 0.5762 0.8983
H45_3 H 0.6017 0.6754 0.9238
O53_3 O 0.7940(6) 0.6101(4) 0.6101(4)
C109_3 C 0.7090(7) 0.5793(4) 0.5793(4)
H46_3 H 0.6900 0.5726 0.5726
C110_3 C 0.7083(8) 0.6027(5) 0.6027(5)
C111_3 C 0.7675(8) 0.6001(5) 0.6001(5)
C112_3 C 0.7387(6) 0.6115(5) 0.6115(5)
H47_3 H 0.7400 0.6264 0.6264
C113_3 C 0.7349(6) 0.5649(6) 0.5649(6)
C114_3 C 0.7634(6) 0.5769(4) 0.5769(4)
H48_3 H 0.7812 0.5686 0.5686
C115_3 C 0.6821(8) 0.6173(5) 0.6173(5)
C116_3 C 0.7328(6) 0.5406(8) 0.5406(8)
C117_3 C 0.8228(9) 0.5979(8) 0.5979(8)
H49_3 H 0.8246 0.6017 0.5762
C118_3 C 0.8477(11) 0.6163(8) 0.6163(8)
C119_3 C 0.8569(8) 0.6431(8) 0.6042(12)
C120_3 C 0.8440(9) 0.6560(9) 0.5753(13)
O60_3 O 0.8899(4) 0.7060(6) 0.6101(4)
O61_3 O 0.9667(3) 0.7933(5) 0.5333(3)
O62_3 O 0.8628(5) 0.8135(6) 0.6372(5)
C121_3 C 0.9207(4) 0.7910(7) 0.5793(4)
H50_3 H 0.9274 0.8100 0.5726
C122_3 C 0.8973(5) 0.7917(8) 0.6027(5)
C123_3 C 0.8999(5) 0.7325(8) 0.6001(5)
C124_3 C 0.8885(5) 0.7613(6) 0.6115(5)
H51_3 H 0.8736 0.7600 0.6264
C125_3 C 0.9351(6) 0.7651(6) 0.5649(6)
C126_3 C 0.9231(4) 0.7366(6) 0.5769(4)
H52_3 H 0.9314 0.7188 0.5686
O63_3 O 0.8942(4) 0.8418(6) 0.6058(4)
C127_3 C 0.8827(5) 0.8179(8) 0.6173(5)
O64_3 O 0.9679(4) 0.7416(6) 0.5321(4)
C128_3 C 0.9594(8) 0.7672(6) 0.5406(8)
C129_3 C 0.9021(8) 0.6772(9) 0.5979(8)
H53_3 H 0.9238 0.6754 0.6017
C130_3 C 0.8837(8) 0.6523(11) 0.6163(8)
C131_3 C 0.8958(12) 0.6431(8) 0.6431(8)
C132_3 C 0.9247(13) 0.6560(9) 0.6560(9)
O65_3 O 0.8899(4) 0.6101(4) 0.7060(6)
O66_3 O 0.9667(3) 0.5333(3) 0.7933(5)
O67_3 O 0.8628(5) 0.6372(5) 0.8135(6)
C133_3 C 0.9207(4) 0.5793(4) 0.7910(7)
H54_3 H 0.9274 0.5726 0.8100
C134_3 C 0.8973(5) 0.6027(5) 0.7917(8)
C135_3 C 0.8999(5) 0.6001(5) 0.7325(8)
C136_3 C 0.8885(5) 0.6115(5) 0.7613(6)
H55_3 H 0.8736 0.6264 0.7600
C137_3 C 0.9351(6) 0.5649(6) 0.7651(6)
C138_3 C 0.9231(4) 0.5769(4) 0.7366(6)
H56_3 H 0.9314 0.5686 0.7188
O68_3 O 0.8942(4) 0.6058(4) 0.8418(6)
C139_3 C 0.8827(5) 0.6173(5) 0.8179(8)
O69_3 O 0.9679(4) 0.5321(4) 0.7416(6)
C140_3 C 0.9594(8) 0.5406(8) 0.7672(6)
C141_3 C 0.9021(8) 0.5979(8) 0.6772(9)
H57_3 H 0.8983 0.5762 0.6754
C142_3 C 0.8837(8) 0.6163(8) 0.6523(11)
C143_3 C 0.8569(8) 0.6042(12) 0.6431(8)
C144_3 C 0.8440(9) 0.5753(13) 0.6560(9)
H58_3 H 0.8246 0.5762 0.6017
H59_3 H 0.8983 0.6754 0.5762
H60_3 H 0.9238 0.6017 0.6754
Zn18_4 Zn 1.0000 0.5000 0.73206(14)
Zn26_4 Zn 1.0000 0.5000 0.80063(15)
Zn32_3 Zn 0.84031(8) 0.65969(8) 0.84031(8)
Zn35_3 Zn 0.88742(9) 0.61258(9) 0.88742(9)
O70_2 O 0.4667(3) 0.4667(3) 0.7067(5)
O74_2 O 0.5333(3) 0.4667(3) 0.7067(5)
O75_2 O 0.4667(3) 0.5333(3) 0.7067(5)
O80_3 O 0.6865(6) 0.8628(5) 0.8628(5)
O81_3 O 0.8628(5) 0.8628(5) 0.6865(6)
O84_3 O 0.6582(6) 0.8942(4) 0.8942(4)
O85_3 O 0.8942(4) 0.8942(4) 0.6582(6)
O86_2 O 0.4679(4) 0.4679(4) 0.7584(6)
O90_2 O 0.5321(4) 0.4679(4) 0.7584(6)
O91_2 O 0.4679(4) 0.5321(4) 0.7584(6)
H61_3 H 0.543312 0.688984 0.543312
H78_3 H 0.659564 0.578007 0.819534
H79_3 H 0.677714 0.570263 0.855033
H80_3 H 0.640111 0.556598 0.848044
H91_3 H 0.680466 0.659564 0.921993
H92_3 H 0.644967 0.677714 0.929737
H93_3 H 0.651956 0.640111 0.943402
H94_3 H 0.556598 0.640111 0.848044
H95_3 H 0.570263 0.677714 0.855033
H96_3 H 0.578007 0.659564 0.819534
H99_3 H 0.819534 0.659564 0.578007
H100_3 H 0.855033 0.677714 0.570263
H101_3 H 0.848044 0.640111 0.556598
H104_3 H 0.848044 0.556598 0.640111
H105_3 H 0.855033 0.570263 0.677714
H106_3 H 0.819534 0.578007 0.659564
H107_3 H 0.921993 0.680466 0.659564
H108_3 H 0.929737 0.644967 0.677714
H109_3 H 0.943402 0.651956 0.640111
O36_4 O 0.3899(4) 0.3899(4) 0.7940(6)
C73_4 C 0.4207(4) 0.4207(4) 0.7090(7)
H31_4 H 0.4274 0.4274 0.6900
C74_4 C 0.3973(5) 0.3973(5) 0.7083(8)
C75_4 C 0.3999(5) 0.3999(5) 0.7675(8)
C76_4 C 0.3885(5) 0.3885(5) 0.7387(6)
H32_4 H 0.3736 0.3736 0.7400
C77_4 C 0.4351(6) 0.4351(6) 0.7349(6)
C78_4 C 0.4231(4) 0.4231(4) 0.7634(6)
H33_4 H 0.4314 0.4314 0.7812
C79_4 C 0.3827(5) 0.3827(5) 0.6821(8)
C80_4 C 0.4594(8) 0.4594(8) 0.7328(6)
C81_4 C 0.4021(8) 0.4021(8) 0.8228(9)
H34_4 H 0.3983 0.4238 0.8246
C82_4 C 0.3837(8) 0.3837(8) 0.8477(11)
C83_4 C 0.3569(8) 0.3958(12) 0.8569(8)
C84_4 C 0.3440(9) 0.4247(13) 0.8440(9)
O43_4 O 0.2940(6) 0.3899(4) 0.8899(4)
O44_4 O 0.2067(5) 0.4667(3) 0.9667(3)
O45_4 O 0.1865(6) 0.3628(5) 0.8628(5)
C85_4 C 0.2090(7) 0.4207(4) 0.9207(4)
H35_4 H 0.1900 0.4274 0.9274
C86_4 C 0.2083(8) 0.3973(5) 0.8973(5)
C87_4 C 0.2675(8) 0.3999(5) 0.8999(5)
C88_4 C 0.2387(6) 0.3885(5) 0.8885(5)
H36_4 H 0.2400 0.3736 0.8736
C89_4 C 0.2349(6) 0.4351(6) 0.9351(6)
C90_4 C 0.2634(6) 0.4231(4) 0.9231(4)
H37_4 H 0.2812 0.4314 0.9314
O46_4 O 0.1582(6) 0.3942(4) 0.8942(4)
C91_4 C 0.1821(8) 0.3827(5) 0.8827(5)
O47_4 O 0.2584(6) 0.4679(4) 0.9679(4)
C92_4 C 0.2328(6) 0.4594(8) 0.9594(8)
C93_4 C 0.3228(9) 0.4021(8) 0.9021(8)
H38_4 H 0.3246 0.3983 0.9238
C94_4 C 0.3477(11) 0.3837(8) 0.8837(8)
C95_4 C 0.3569(8) 0.3569(8) 0.8958(12)
C96_4 C 0.3440(9) 0.3440(9) 0.9247(13)
O48_4 O 0.3899(4) 0.2940(6) 0.8899(4)
O49_4 O 0.4667(3) 0.2067(5) 0.9667(3)
O50_4 O 0.3628(5) 0.1865(6) 0.8628(5)
C97_4 C 0.4207(4) 0.2090(7) 0.9207(4)
H39_4 H 0.4274 0.1900 0.9274
C98_4 C 0.3973(5) 0.2083(8) 0.8973(5)
C99_4 C 0.3999(5) 0.2675(8) 0.8999(5)
C100_4 C 0.3885(5) 0.2387(6) 0.8885(5)
H40_4 H 0.3736 0.2400 0.8736
C101_4 C 0.4351(6) 0.2349(6) 0.9351(6)
C102_4 C 0.4231(4) 0.2634(6) 0.9231(4)
H41_4 H 0.4314 0.2812 0.9314
O51_4 O 0.3942(4) 0.1582(6) 0.8942(4)
C103_4 C 0.3827(5) 0.1821(8) 0.8827(5)
O52_4 O 0.4679(4) 0.2584(6) 0.9679(4)
C104_4 C 0.4594(8) 0.2328(6) 0.9594(8)
C105_4 C 0.4021(8) 0.3228(9) 0.9021(8)
H42_4 H 0.4238 0.3246 0.8983
C106_4 C 0.3837(8) 0.3477(11) 0.8837(8)
C107_4 C 0.3958(12) 0.3569(8) 0.8569(8)
C108_4 C 0.4247(13) 0.3440(9) 0.8440(9)
H43_4 H 0.4238 0.3983 0.8246
H44_4 H 0.3246 0.4238 0.8983
H45_4 H 0.3983 0.3246 0.9238
O53_4 O 0.2060(6) 0.3899(4) 0.6101(4)
C109_4 C 0.2910(7) 0.4207(4) 0.5793(4)
H46_4 H 0.3100 0.4274 0.5726
C110_4 C 0.2917(8) 0.3973(5) 0.6027(5)
C111_4 C 0.2325(8) 0.3999(5) 0.6001(5)
C112_4 C 0.2613(6) 0.3885(5) 0.6115(5)
H47_4 H 0.2600 0.3736 0.6264
C113_4 C 0.2651(6) 0.4351(6) 0.5649(6)
C114_4 C 0.2366(6) 0.4231(4) 0.5769(4)
H48_4 H 0.2188 0.4314 0.5686
C115_4 C 0.3179(8) 0.3827(5) 0.6173(5)
C116_4 C 0.2672(6) 0.4594(8) 0.5406(8)
C117_4 C 0.1772(9) 0.4021(8) 0.5979(8)
H49_4 H 0.1754 0.3983 0.5762
C118_4 C 0.1523(11) 0.3837(8) 0.6163(8)
C119_4 C 0.1431(8) 0.3569(8) 0.6042(12)
C120_4 C 0.1560(9) 0.3440(9) 0.5753(13)
O60_4 O 0.1101(4) 0.2940(6) 0.6101(4)
O61_4 O 0.0333(3) 0.2067(5) 0.5333(3)
O62_4 O 0.1372(5) 0.1865(6) 0.6372(5)
C121_4 C 0.0793(4) 0.2090(7) 0.5793(4)
H50_4 H 0.0726 0.1900 0.5726
C122_4 C 0.1027(5) 0.2083(8) 0.6027(5)
C123_4 C 0.1001(5) 0.2675(8) 0.6001(5)
C124_4 C 0.1115(5) 0.2387(6) 0.6115(5)
H51_4 H 0.1264 0.2400 0.6264
C125_4 C 0.0649(6) 0.2349(6) 0.5649(6)
C126_4 C 0.0769(4) 0.2634(6) 0.5769(4)
H52_4 H 0.0686 0.2812 0.5686
O63_4 O 0.1058(4) 0.1582(6) 0.6058(4)
C127_4 C 0.1173(5) 0.1821(8) 0.6173(5)
O64_4 O 0.0321(4) 0.2584(6) 0.5321(4)
C128_4 C 0.0406(8) 0.2328(6) 0.5406(8)
C129_4 C 0.0979(8) 0.3228(9) 0.5979(8)
H53_4 H 0.0762 0.3246 0.6017
C130_4 C 0.1163(8) 0.3477(11) 0.6163(8)
C131_4 C 0.1042(12) 0.3569(8) 0.6431(8)
C132_4 C 0.0753(13) 0.3440(9) 0.6560(9)
O65_4 O 0.1101(4) 0.3899(4) 0.7060(6)
O66_4 O 0.0333(3) 0.4667(3) 0.7933(5)
O67_4 O 0.1372(5) 0.3628(5) 0.8135(6)
C133_4 C 0.0793(4) 0.4207(4) 0.7910(7)
H54_4 H 0.0726 0.4274 0.8100
C134_4 C 0.1027(5) 0.3973(5) 0.7917(8)
C135_4 C 0.1001(5) 0.3999(5) 0.7325(8)
C136_4 C 0.1115(5) 0.3885(5) 0.7613(6)
H55_4 H 0.1264 0.3736 0.7600
C137_4 C 0.0649(6) 0.4351(6) 0.7651(6)
C138_4 C 0.0769(4) 0.4231(4) 0.7366(6)
H56_4 H 0.0686 0.4314 0.7188
O68_4 O 0.1058(4) 0.3942(4) 0.8418(6)
C139_4 C 0.1173(5) 0.3827(5) 0.8179(8)
O69_4 O 0.0321(4) 0.4679(4) 0.7416(6)
C140_4 C 0.0406(8) 0.4594(8) 0.7672(6)
C141_4 C 0.0979(8) 0.4021(8) 0.6772(9)
H57_4 H 0.1017 0.4238 0.6754
C142_4 C 0.1163(8) 0.3837(8) 0.6523(11)
C143_4 C 0.1431(8) 0.3958(12) 0.6431(8)
C144_4 C 0.1560(9) 0.4247(13) 0.6560(9)
H58_4 H 0.1754 0.4238 0.6017
H59_4 H 0.1017 0.3246 0.5762
H60_4 H 0.0762 0.3983 0.6754
Zn32_4 Zn 0.15969(8) 0.34031(8) 0.84031(8)
Zn35_4 Zn 0.11258(9) 0.38742(9) 0.88742(9)
O80_4 O 0.3135(6) 0.1372(5) 0.8628(5)
O81_4 O 0.1372(5) 0.1372(5) 0.6865(6)
O84_4 O 0.3418(6) 0.1058(4) 0.8942(4)
O85_4 O 0.1058(4) 0.1058(4) 0.6582(6)
H61_4 H 0.456688 0.311016 0.543312
H78_4 H 0.340436 0.421993 0.819534
H79_4 H 0.322286 0.429737 0.855033
H80_4 H 0.359889 0.443402 0.848044
H91_4 H 0.319534 0.340436 0.921993
H92_4 H 0.355033 0.322286 0.929737
H93_4 H 0.348044 0.359889 0.943402
H94_4 H 0.443402 0.359889 0.848044
H95_4 H 0.429737 0.322286 0.855033
H96_4 H 0.421993 0.340436 0.819534
H99_4 H 0.180466 0.340436 0.578007
H100_4 H 0.144967 0.322286 0.570263
H101_4 H 0.151956 0.359889 0.556598
H104_4 H 0.151956 0.443402 0.640111
H105_4 H 0.144967 0.429737 0.677714
H106_4 H 0.180466 0.421993 0.659564
H107_4 H 0.0780071 0.319534 0.659564
H108_4 H 0.0702632 0.355033 0.677714
H109_4 H 0.0565981 0.348044 0.640111
O80_5 O 0.1372(5) 0.3135(6) 0.8628(5)
O84_5 O 0.1058(4) 0.3418(6) 0.8942(4)
H61_5 H 0.456688 0.456688 0.688984
O80_6 O 0.1372(5) 0.6865(6) 0.1372(5)
O84_6 O 0.1058(4) 0.6582(6) 0.1058(4)
H61_6 H 0.456688 0.543312 0.311016
O80_7 O 0.8628(5) 0.6865(6) 0.8628(5)
O84_7 O 0.8942(4) 0.6582(6) 0.8942(4)
H61_7 H 0.543312 0.543312 0.688984
O80_8 O 0.8628(5) 0.3135(6) 0.1372(5)
O84_8 O 0.8942(4) 0.3418(6) 0.1058(4)
H61_8 H 0.543312 0.456688 0.311016
H61_9 H 0.688984 0.456688 0.456688
H61_10 H 0.311016 0.456688 0.543312
H61_11 H 0.688984 0.543312 0.543312
H61_12 H 0.311016 0.543312 0.456688
Zn3_3 Zn 0.65969(8) 0.34031(8) 0.65969(8)
Zn4_3 Zn 0.61258(9) 0.38742(9) 0.61258(9)
O4_3 O 0.7940(6) 0.3899(4) 0.6101(4)
O6_3 O 0.6865(6) 0.3628(5) 0.6372(5)
C1_3 C 0.7090(7) 0.4207(4) 0.5793(4)
H1_3 H 0.6900 0.4274 0.5726
C2_3 C 0.7083(8) 0.3973(5) 0.6027(5)
C3_3 C 0.7675(8) 0.3999(5) 0.6001(5)
C4_3 C 0.7387(6) 0.3885(5) 0.6115(5)
H2_3 H 0.7400 0.3736 0.6264
C5_3 C 0.7349(6) 0.4351(6) 0.5649(6)
C6_3 C 0.7634(6) 0.4231(4) 0.5769(4)
H3_3 H 0.7812 0.4314 0.5686
O8_3 O 0.6582(6) 0.3942(4) 0.6058(4)
C7_3 C 0.6821(8) 0.3827(5) 0.6173(5)
C8_3 C 0.7328(6) 0.4594(8) 0.5406(8)
C9_3 C 0.8228(9) 0.4021(8) 0.5979(8)
H4_3 H 0.8246 0.4238 0.6017
C10_3 C 0.8477(11) 0.3837(8) 0.6163(8)
C11_3 C 0.8569(8) 0.3958(12) 0.6431(8)
C12_3 C 0.8440(9) 0.4247(13) 0.6560(9)
O11_3 O 0.8899(4) 0.3899(4) 0.7060(6)
O12_3 O 0.9667(3) 0.4667(3) 0.7933(5)
O13_3 O 0.8628(5) 0.3628(5) 0.8135(6)
C13_3 C 0.9207(4) 0.4207(4) 0.7910(7)
H5_3 H 0.9274 0.4274 0.8100
C14_3 C 0.8973(5) 0.3973(5) 0.7917(8)
C15_3 C 0.8999(5) 0.3999(5) 0.7325(8)
C16_3 C 0.8885(5) 0.3885(5) 0.7613(6)
H6_3 H 0.8736 0.3736 0.7600
C17_3 C 0.9351(6) 0.4351(6) 0.7651(6)
C18_3 C 0.9231(4) 0.4231(4) 0.7366(6)
H7_3 H 0.9314 0.4314 0.7188
O14_3 O 0.8942(4) 0.3942(4) 0.8418(6)
C19_3 C 0.8827(5) 0.3827(5) 0.8179(8)
O15_3 O 0.9679(4) 0.4679(4) 0.7416(6)
C20_3 C 0.9594(8) 0.4594(8) 0.7672(6)
C21_3 C 0.9021(8) 0.4021(8) 0.6772(9)
H8_3 H 0.9238 0.3983 0.6754
C22_3 C 0.8837(8) 0.3837(8) 0.6523(11)
C23_3 C 0.8958(12) 0.3569(8) 0.6431(8)
C24_3 C 0.9247(13) 0.3440(9) 0.6560(9)
O16_3 O 0.8899(4) 0.2940(6) 0.6101(4)
O17_3 O 0.9667(3) 0.2067(5) 0.5333(3)
O18_3 O 0.8628(5) 0.1865(6) 0.6372(5)
C25_3 C 0.9207(4) 0.2090(7) 0.5793(4)
H9_3 H 0.9274 0.1900 0.5726
C26_3 C 0.8973(5) 0.2083(8) 0.6027(5)
C27_3 C 0.8999(5) 0.2675(8) 0.6001(5)
C28_3 C 0.8885(5) 0.2387(6) 0.6115(5)
H10_3 H 0.8736 0.2400 0.6264
C29_3 C 0.9351(6) 0.2349(6) 0.5649(6)
C30_3 C 0.9231(4) 0.2634(6) 0.5769(4)
H11_3 H 0.9314 0.2812 0.5686
O19_3 O 0.8942(4) 0.1582(6) 0.6058(4)
C31_3 C 0.8827(5) 0.1821(8) 0.6173(5)
O20_3 O 0.9679(4) 0.2584(6) 0.5321(4)
C32_3 C 0.9594(8) 0.2328(6) 0.5406(8)
C33_3 C 0.9021(8) 0.3228(9) 0.5979(8)
H12_3 H 0.8983 0.3246 0.5762
C34_3 C 0.8837(8) 0.3477(11) 0.6163(8)
C35_3 C 0.8569(8) 0.3569(8) 0.6042(12)
C36_3 C 0.8440(9) 0.3440(9) 0.5753(13)
H13_3 H 0.8246 0.3983 0.5762
H14_3 H 0.8983 0.4238 0.6754
H15_3 H 0.9238 0.3246 0.6017
Zn5_3 Zn 0.65969(8) 0.65969(8) 0.34031(8)
Zn6_3 Zn 0.61258(9) 0.61258(9) 0.38742(9)
O21_3 O 0.7940(6) 0.6101(4) 0.3899(4)
O23_3 O 0.6865(6) 0.6372(5) 0.3628(5)
C37_3 C 0.7090(7) 0.5793(4) 0.4207(4)
H16_3 H 0.6900 0.5726 0.4274
C38_3 C 0.7083(8) 0.6027(5) 0.3973(5)
C39_3 C 0.7675(8) 0.6001(5) 0.3999(5)
C40_3 C 0.7387(6) 0.6115(5) 0.3885(5)
H17_3 H 0.7400 0.6264 0.3736
C41_3 C 0.7349(6) 0.5649(6) 0.4351(6)
C42_3 C 0.7634(6) 0.5769(4) 0.4231(4)
H18_3 H 0.7812 0.5686 0.4314
O24_3 O 0.6582(6) 0.6058(4) 0.3942(4)
C43_3 C 0.6821(8) 0.6173(5) 0.3827(5)
C44_3 C 0.7328(6) 0.5406(8) 0.4594(8)
C45_3 C 0.8228(9) 0.5979(8) 0.4021(8)
H19_3 H 0.8246 0.5762 0.3983
C46_3 C 0.8477(11) 0.6163(8) 0.3837(8)
C47_3 C 0.8569(8) 0.6042(12) 0.3569(8)
C48_3 C 0.8440(9) 0.5753(13) 0.3440(9)
O26_3 O 0.8899(4) 0.6101(4) 0.2940(6)
O27_3 O 0.9667(3) 0.5333(3) 0.2067(5)
O28_3 O 0.8628(5) 0.6372(5) 0.1865(6)
C49_3 C 0.9207(4) 0.5793(4) 0.2090(7)
H20_3 H 0.9274 0.5726 0.1900
C50_3 C 0.8973(5) 0.6027(5) 0.2083(8)
C51_3 C 0.8999(5) 0.6001(5) 0.2675(8)
C52_3 C 0.8885(5) 0.6115(5) 0.2387(6)
H21_3 H 0.8736 0.6264 0.2400
C53_3 C 0.9351(6) 0.5649(6) 0.2349(6)
C54_3 C 0.9231(4) 0.5769(4) 0.2634(6)
H22_3 H 0.9314 0.5686 0.2812
O29_3 O 0.8942(4) 0.6058(4) 0.1582(6)
C55_3 C 0.8827(5) 0.6173(5) 0.1821(8)
O30_3 O 0.9679(4) 0.5321(4) 0.2584(6)
C56_3 C 0.9594(8) 0.5406(8) 0.2328(6)
C57_3 C 0.9021(8) 0.5979(8) 0.3228(9)
H23_3 H 0.9238 0.6017 0.3246
C58_3 C 0.8837(8) 0.6163(8) 0.3477(11)
C59_3 C 0.8958(12) 0.6431(8) 0.3569(8)
C60_3 C 0.9247(13) 0.6560(9) 0.3440(9)
O31_3 O 0.8899(4) 0.7060(6) 0.3899(4)
O32_3 O 0.9667(3) 0.7933(5) 0.4667(3)
O33_3 O 0.8628(5) 0.8135(6) 0.3628(5)
C61_3 C 0.9207(4) 0.7910(7) 0.4207(4)
H24_3 H 0.9274 0.8100 0.4274
C62_3 C 0.8973(5) 0.7917(8) 0.3973(5)
C63_3 C 0.8999(5) 0.7325(8) 0.3999(5)
C64_3 C 0.8885(5) 0.7613(6) 0.3885(5)
H25_3 H 0.8736 0.7600 0.3736
C65_3 C 0.9351(6) 0.7651(6) 0.4351(6)
C66_3 C 0.9231(4) 0.7366(6) 0.4231(4)
H26_3 H 0.9314 0.7188 0.4314
O34_3 O 0.8942(4) 0.8418(6) 0.3942(4)
C67_3 C 0.8827(5) 0.8179(8) 0.3827(5)
O35_3 O 0.9679(4) 0.7416(6) 0.4679(4)
C68_3 C 0.9594(8) 0.7672(6) 0.4594(8)
C69_3 C 0.9021(8) 0.6772(9) 0.4021(8)
H27_3 H 0.8983 0.6754 0.4238
C70_3 C 0.8837(8) 0.6523(11) 0.3837(8)
C71_3 C 0.8569(8) 0.6431(8) 0.3958(12)
C72_3 C 0.8440(9) 0.6560(9) 0.4247(13)
H28_3 H 0.8246 0.6017 0.4238
H29_3 H 0.8983 0.5762 0.3246
H30_3 H 0.9238 0.6754 0.3983
O36_5 O 0.6101(4) 0.3899(4) 0.7940(6)
O38_3 O 0.6372(5) 0.3628(5) 0.6865(6)
C73_5 C 0.5793(4) 0.4207(4) 0.7090(7)
H31_5 H 0.5726 0.4274 0.6900
C74_5 C 0.6027(5) 0.3973(5) 0.7083(8)
C75_5 C 0.6001(5) 0.3999(5) 0.7675(8)
C76_5 C 0.6115(5) 0.3885(5) 0.7387(6)
H32_5 H 0.6264 0.3736 0.7400
C77_5 C 0.5649(6) 0.4351(6) 0.7349(6)
C78_5 C 0.5769(4) 0.4231(4) 0.7634(6)
H33_5 H 0.5686 0.4314 0.7812
O40_3 O 0.6058(4) 0.3942(4) 0.6582(6)
C79_5 C 0.6173(5) 0.3827(5) 0.6821(8)
C80_5 C 0.5406(8) 0.4594(8) 0.7328(6)
C81_5 C 0.5979(8) 0.4021(8) 0.8228(9)
H34_5 H 0.5762 0.3983 0.8246
C82_5 C 0.6163(8) 0.3837(8) 0.8477(11)
C83_5 C 0.6042(12) 0.3569(8) 0.8569(8)
C84_5 C 0.5753(13) 0.3440(9) 0.8440(9)
O43_5 O 0.6101(4) 0.2940(6) 0.8899(4)
O44_5 O 0.5333(3) 0.2067(5) 0.9667(3)
O45_5 O 0.6372(5) 0.1865(6) 0.8628(5)
C85_5 C 0.5793(4) 0.2090(7) 0.9207(4)
H35_5 H 0.5726 0.1900 0.9274
C86_5 C 0.6027(5) 0.2083(8) 0.8973(5)
C87_5 C 0.6001(5) 0.2675(8) 0.8999(5)
C88_5 C 0.6115(5) 0.2387(6) 0.8885(5)
H36_5 H 0.6264 0.2400 0.8736
C89_5 C 0.5649(6) 0.2349(6) 0.9351(6)
C90_5 C 0.5769(4) 0.2634(6) 0.9231(4)
H37_5 H 0.5686 0.2812 0.9314
O46_5 O 0.6058(4) 0.1582(6) 0.8942(4)
C91_5 C 0.6173(5) 0.1821(8) 0.8827(5)
O47_5 O 0.5321(4) 0.2584(6) 0.9679(4)
C92_5 C 0.5406(8) 0.2328(6) 0.9594(8)
C93_5 C 0.5979(8) 0.3228(9) 0.9021(8)
H38_5 H 0.6017 0.3246 0.9238
C94_5 C 0.6163(8) 0.3477(11) 0.8837(8)
C95_5 C 0.6431(8) 0.3569(8) 0.8958(12)
C96_5 C 0.6560(9) 0.3440(9) 0.9247(13)
O48_5 O 0.7060(6) 0.3899(4) 0.8899(4)
O49_5 O 0.7933(5) 0.4667(3) 0.9667(3)
O50_5 O 0.8135(6) 0.3628(5) 0.8628(5)
C97_5 C 0.7910(7) 0.4207(4) 0.9207(4)
H39_5 H 0.8100 0.4274 0.9274
C98_5 C 0.7917(8) 0.3973(5) 0.8973(5)
C99_5 C 0.7325(8) 0.3999(5) 0.8999(5)
C100_5 C 0.7613(6) 0.3885(5) 0.8885(5)
H40_5 H 0.7600 0.3736 0.8736
C101_5 C 0.7651(6) 0.4351(6) 0.9351(6)
C102_5 C 0.7366(6) 0.4231(4) 0.9231(4)
H41_5 H 0.7188 0.4314 0.9314
O51_5 O 0.8418(6) 0.3942(4) 0.8942(4)
C103_5 C 0.8179(8) 0.3827(5) 0.8827(5)
O52_5 O 0.7416(6) 0.4679(4) 0.9679(4)
C104_5 C 0.7672(6) 0.4594(8) 0.9594(8)
C105_5 C 0.6772(9) 0.4021(8) 0.9021(8)
H42_5 H 0.6754 0.4238 0.8983
C106_5 C 0.6523(11) 0.3837(8) 0.8837(8)
C107_5 C 0.6431(8) 0.3958(12) 0.8569(8)
C108_5 C 0.6560(9) 0.4247(13) 0.8440(9)
H43_5 H 0.6017 0.4238 0.8246
H44_5 H 0.5762 0.3246 0.8983
H45_5 H 0.6754 0.3983 0.9238
O53_5 O 0.6101(4) 0.2060(6) 0.6101(4)
O55_3 O 0.6372(5) 0.3135(6) 0.6372(5)
C109_5 C 0.5793(4) 0.2910(7) 0.5793(4)
H46_5 H 0.5726 0.3100 0.5726
C110_5 C 0.6027(5) 0.2917(8) 0.6027(5)
C111_5 C 0.6001(5) 0.2325(8) 0.6001(5)
C112_5 C 0.6115(5) 0.2613(6) 0.6115(5)
H47_5 H 0.6264 0.2600 0.6264
C113_5 C 0.5649(6) 0.2651(6) 0.5649(6)
C114_5 C 0.5769(4) 0.2366(6) 0.5769(4)
H48_5 H 0.5686 0.2188 0.5686
O57_3 O 0.6058(4) 0.3418(6) 0.6058(4)
C115_5 C 0.6173(5) 0.3179(8) 0.6173(5)
C116_5 C 0.5406(8) 0.2672(6) 0.5406(8)
C117_5 C 0.5979(8) 0.1772(9) 0.5979(8)
H49_5 H 0.6017 0.1754 0.5762
C118_5 C 0.6163(8) 0.1523(11) 0.6163(8)
C119_5 C 0.6431(8) 0.1431(8) 0.6042(12)
C120_5 C 0.6560(9) 0.1560(9) 0.5753(13)
O60_5 O 0.7060(6) 0.1101(4) 0.6101(4)
O61_5 O 0.7933(5) 0.0333(3) 0.5333(3)
O62_5 O 0.8135(6) 0.1372(5) 0.6372(5)
C121_5 C 0.7910(7) 0.0793(4) 0.5793(4)
H50_5 H 0.8100 0.0726 0.5726
C122_5 C 0.7917(8) 0.1027(5) 0.6027(5)
C123_5 C 0.7325(8) 0.1001(5) 0.6001(5)
C124_5 C 0.7613(6) 0.1115(5) 0.6115(5)
H51_5 H 0.7600 0.1264 0.6264
C125_5 C 0.7651(6) 0.0649(6) 0.5649(6)
C126_5 C 0.7366(6) 0.0769(4) 0.5769(4)
H52_5 H 0.7188 0.0686 0.5686
O63_5 O 0.8418(6) 0.1058(4) 0.6058(4)
C127_5 C 0.8179(8) 0.1173(5) 0.6173(5)
O64_5 O 0.7416(6) 0.0321(4) 0.5321(4)
C128_5 C 0.7672(6) 0.0406(8) 0.5406(8)
C129_5 C 0.6772(9) 0.0979(8) 0.5979(8)
H53_5 H 0.6754 0.0762 0.6017
C130_5 C 0.6523(11) 0.1163(8) 0.6163(8)
C131_5 C 0.6431(8) 0.1042(12) 0.6431(8)
C132_5 C 0.6560(9) 0.0753(13) 0.6560(9)
O65_5 O 0.6101(4) 0.1101(4) 0.7060(6)
O66_5 O 0.5333(3) 0.0333(3) 0.7933(5)
O67_5 O 0.6372(5) 0.1372(5) 0.8135(6)
C133_5 C 0.5793(4) 0.0793(4) 0.7910(7)
H54_5 H 0.5726 0.0726 0.8100
C134_5 C 0.6027(5) 0.1027(5) 0.7917(8)
C135_5 C 0.6001(5) 0.1001(5) 0.7325(8)
C136_5 C 0.6115(5) 0.1115(5) 0.7613(6)
H55_5 H 0.6264 0.1264 0.7600
C137_5 C 0.5649(6) 0.0649(6) 0.7651(6)
C138_5 C 0.5769(4) 0.0769(4) 0.7366(6)
H56_5 H 0.5686 0.0686 0.7188
O68_5 O 0.6058(4) 0.1058(4) 0.8418(6)
C139_5 C 0.6173(5) 0.1173(5) 0.8179(8)
O69_5 O 0.5321(4) 0.0321(4) 0.7416(6)
C140_5 C 0.5406(8) 0.0406(8) 0.7672(6)
C141_5 C 0.5979(8) 0.0979(8) 0.6772(9)
H57_5 H 0.5762 0.1017 0.6754
C142_5 C 0.6163(8) 0.1163(8) 0.6523(11)
C143_5 C 0.6042(12) 0.1431(8) 0.6431(8)
C144_5 C 0.5753(13) 0.1560(9) 0.6560(9)
H58_5 H 0.5762 0.1754 0.6017
H59_5 H 0.6754 0.1017 0.5762
H60_5 H 0.6017 0.0762 0.6754
Zn11_3 Zn 0.84031(8) 0.34031(8) 0.84031(8)
Zn12_3 Zn 0.88742(9) 0.38742(9) 0.88742(9)
Zn13_3 Zn 0.84031(8) 0.15969(8) 0.65969(8)
Zn14_3 Zn 0.88742(9) 0.11258(9) 0.61258(9)
Zn31_3 Zn 0.84031(8) 0.65969(8) 0.15969(8)
Zn32_5 Zn 0.65969(8) 0.15969(8) 0.84031(8)
Zn33_3 Zn 0.84031(8) 0.84031(8) 0.34031(8)
Zn34_3 Zn 0.88742(9) 0.61258(9) 0.11258(9)
Zn35_5 Zn 0.61258(9) 0.11258(9) 0.88742(9)
Zn36_3 Zn 0.88742(9) 0.88742(9) 0.38742(9)
O78_3 O 0.6372(5) 0.6372(5) 0.3135(6)
O79_3 O 0.6372(5) 0.6865(6) 0.3628(5)
O80_9 O 0.8628(5) 0.3135(6) 0.8628(5)
O81_5 O 0.8628(5) 0.1372(5) 0.6865(6)
O82_3 O 0.6058(4) 0.6058(4) 0.3418(6)
O83_3 O 0.6058(4) 0.6582(6) 0.3942(4)
O84_9 O 0.8942(4) 0.3418(6) 0.8942(4)
O85_5 O 0.8942(4) 0.1058(4) 0.6582(6)
H61_13 H 0.688984 0.456688 0.543312
H62_3 H 0.819534 0.421993 0.659564
H63_3 H 0.855033 0.429737 0.677714
H64_3 H 0.848044 0.443402 0.640111
H69_3 H 0.819534 0.578007 0.340436
H70_3 H 0.855033 0.570263 0.322286
H71_3 H 0.848044 0.556598 0.359889
H72_3 H 0.921993 0.340436 0.680466
H73_3 H 0.929737 0.322286 0.644967
H74_3 H 0.943402 0.359889 0.651956
H75_3 H 0.848044 0.359889 0.556598
H76_3 H 0.855033 0.322286 0.570263
H77_3 H 0.819534 0.340436 0.578007
H78_5 H 0.578007 0.340436 0.819534
H79_5 H 0.570263 0.322286 0.855033
H80_5 H 0.556598 0.359889 0.848044
H81_3 H 0.921993 0.659564 0.319534
H82_3 H 0.929737 0.677714 0.355033
H83_3 H 0.943402 0.640111 0.348044
H84_3 H 0.848044 0.640111 0.443402
H85_3 H 0.855033 0.677714 0.429737
H86_3 H 0.819534 0.659564 0.421993
H91_5 H 0.659564 0.319534 0.921993
H92_5 H 0.677714 0.355033 0.929737
H93_5 H 0.640111 0.348044 0.943402
H94_5 H 0.640111 0.443402 0.848044
H95_5 H 0.677714 0.429737 0.855033
H96_5 H 0.659564 0.421993 0.819534
H99_5 H 0.659564 0.180466 0.578007
H100_5 H 0.677714 0.144967 0.570263
H101_5 H 0.640111 0.151956 0.556598
H104_5 H 0.556598 0.151956 0.640111
H105_5 H 0.570263 0.144967 0.677714
H106_5 H 0.578007 0.180466 0.659564
H107_5 H 0.680466 0.0780071 0.659564
H108_5 H 0.644967 0.0702632 0.677714
H109_5 H 0.651956 0.0565981 0.640111
Zn3_4 Zn 0.34031(8) 0.65969(8) 0.65969(8)
Zn4_4 Zn 0.38742(9) 0.61258(9) 0.61258(9)
O4_4 O 0.2060(6) 0.6101(4) 0.6101(4)
O6_4 O 0.3135(6) 0.6372(5) 0.6372(5)
C1_4 C 0.2910(7) 0.5793(4) 0.5793(4)
H1_4 H 0.3100 0.5726 0.5726
C2_4 C 0.2917(8) 0.6027(5) 0.6027(5)
C3_4 C 0.2325(8) 0.6001(5) 0.6001(5)
C4_4 C 0.2613(6) 0.6115(5) 0.6115(5)
H2_4 H 0.2600 0.6264 0.6264
C5_4 C 0.2651(6) 0.5649(6) 0.5649(6)
C6_4 C 0.2366(6) 0.5769(4) 0.5769(4)
H3_4 H 0.2188 0.5686 0.5686
O8_4 O 0.3418(6) 0.6058(4) 0.6058(4)
C7_4 C 0.3179(8) 0.6173(5) 0.6173(5)
C8_4 C 0.2672(6) 0.5406(8) 0.5406(8)
C9_4 C 0.1772(9) 0.5979(8) 0.5979(8)
H4_4 H 0.1754 0.5762 0.6017
C10_4 C 0.1523(11) 0.6163(8) 0.6163(8)
C11_4 C 0.1431(8) 0.6042(12) 0.6431(8)
C12_4 C 0.1560(9) 0.5753(13) 0.6560(9)
O11_4 O 0.1101(4) 0.6101(4) 0.7060(6)
O12_4 O 0.0333(3) 0.5333(3) 0.7933(5)
O13_4 O 0.1372(5) 0.6372(5) 0.8135(6)
C13_4 C 0.0793(4) 0.5793(4) 0.7910(7)
H5_4 H 0.0726 0.5726 0.8100
C14_4 C 0.1027(5) 0.6027(5) 0.7917(8)
C15_4 C 0.1001(5) 0.6001(5) 0.7325(8)
C16_4 C 0.1115(5) 0.6115(5) 0.7613(6)
H6_4 H 0.1264 0.6264 0.7600
C17_4 C 0.0649(6) 0.5649(6) 0.7651(6)
C18_4 C 0.0769(4) 0.5769(4) 0.7366(6)
H7_4 H 0.0686 0.5686 0.7188
O14_4 O 0.1058(4) 0.6058(4) 0.8418(6)
C19_4 C 0.1173(5) 0.6173(5) 0.8179(8)
O15_4 O 0.0321(4) 0.5321(4) 0.7416(6)
C20_4 C 0.0406(8) 0.5406(8) 0.7672(6)
C21_4 C 0.0979(8) 0.5979(8) 0.6772(9)
H8_4 H 0.0762 0.6017 0.6754
C22_4 C 0.1163(8) 0.6163(8) 0.6523(11)
C23_4 C 0.1042(12) 0.6431(8) 0.6431(8)
C24_4 C 0.0753(13) 0.6560(9) 0.6560(9)
O16_4 O 0.1101(4) 0.7060(6) 0.6101(4)
O17_4 O 0.0333(3) 0.7933(5) 0.5333(3)
O18_4 O 0.1372(5) 0.8135(6) 0.6372(5)
C25_4 C 0.0793(4) 0.7910(7) 0.5793(4)
H9_4 H 0.0726 0.8100 0.5726
C26_4 C 0.1027(5) 0.7917(8) 0.6027(5)
C27_4 C 0.1001(5) 0.7325(8) 0.6001(5)
C28_4 C 0.1115(5) 0.7613(6) 0.6115(5)
H10_4 H 0.1264 0.7600 0.6264
C29_4 C 0.0649(6) 0.7651(6) 0.5649(6)
C30_4 C 0.0769(4) 0.7366(6) 0.5769(4)
H11_4 H 0.0686 0.7188 0.5686
O19_4 O 0.1058(4) 0.8418(6) 0.6058(4)
C31_4 C 0.1173(5) 0.8179(8) 0.6173(5)
O20_4 O 0.0321(4) 0.7416(6) 0.5321(4)
C32_4 C 0.0406(8) 0.7672(6) 0.5406(8)
C33_4 C 0.0979(8) 0.6772(9) 0.5979(8)
H12_4 H 0.1017 0.6754 0.5762
C34_4 C 0.1163(8) 0.6523(11) 0.6163(8)
C35_4 C 0.1431(8) 0.6431(8) 0.6042(12)
C36_4 C 0.1560(9) 0.6560(9) 0.5753(13)
H13_4 H 0.1754 0.6017 0.5762
H14_4 H 0.1017 0.5762 0.6754
H15_4 H 0.0762 0.6754 0.6017
Zn5_4 Zn 0.34031(8) 0.34031(8) 0.34031(8)
Zn6_4 Zn 0.38742(9) 0.38742(9) 0.38742(9)
O21_4 O 0.2060(6) 0.3899(4) 0.3899(4)
O23_4 O 0.3135(6) 0.3628(5) 0.3628(5)
C37_4 C 0.2910(7) 0.4207(4) 0.4207(4)
H16_4 H 0.3100 0.4274 0.4274
C38_4 C 0.2917(8) 0.3973(5) 0.3973(5)
C39_4 C 0.2325(8) 0.3999(5) 0.3999(5)
C40_4 C 0.2613(6) 0.3885(5) 0.3885(5)
H17_4 H 0.2600 0.3736 0.3736
C41_4 C 0.2651(6) 0.4351(6) 0.4351(6)
C42_4 C 0.2366(6) 0.4231(4) 0.4231(4)
H18_4 H 0.2188 0.4314 0.4314
O24_4 O 0.3418(6) 0.3942(4) 0.3942(4)
C43_4 C 0.3179(8) 0.3827(5) 0.3827(5)
C44_4 C 0.2672(6) 0.4594(8) 0.4594(8)
C45_4 C 0.1772(9) 0.4021(8) 0.4021(8)
H19_4 H 0.1754 0.4238 0.3983
C46_4 C 0.1523(11) 0.3837(8) 0.3837(8)
C47_4 C 0.1431(8) 0.3958(12) 0.3569(8)
C48_4 C 0.1560(9) 0.4247(13) 0.3440(9)
O26_4 O 0.1101(4) 0.3899(4) 0.2940(6)
O27_4 O 0.0333(3) 0.4667(3) 0.2067(5)
O28_4 O 0.1372(5) 0.3628(5) 0.1865(6)
C49_4 C 0.0793(4) 0.4207(4) 0.2090(7)
H20_4 H 0.0726 0.4274 0.1900
C50_4 C 0.1027(5) 0.3973(5) 0.2083(8)
C51_4 C 0.1001(5) 0.3999(5) 0.2675(8)
C52_4 C 0.1115(5) 0.3885(5) 0.2387(6)
H21_4 H 0.1264 0.3736 0.2400
C53_4 C 0.0649(6) 0.4351(6) 0.2349(6)
C54_4 C 0.0769(4) 0.4231(4) 0.2634(6)
H22_4 H 0.0686 0.4314 0.2812
O29_4 O 0.1058(4) 0.3942(4) 0.1582(6)
C55_4 C 0.1173(5) 0.3827(5) 0.1821(8)
O30_4 O 0.0321(4) 0.4679(4) 0.2584(6)
C56_4 C 0.0406(8) 0.4594(8) 0.2328(6)
C57_4 C 0.0979(8) 0.4021(8) 0.3228(9)
H23_4 H 0.0762 0.3983 0.3246
C58_4 C 0.1163(8) 0.3837(8) 0.3477(11)
C59_4 C 0.1042(12) 0.3569(8) 0.3569(8)
C60_4 C 0.0753(13) 0.3440(9) 0.3440(9)
O31_4 O 0.1101(4) 0.2940(6) 0.3899(4)
O32_4 O 0.0333(3) 0.2067(5) 0.4667(3)
O33_4 O 0.1372(5) 0.1865(6) 0.3628(5)
C61_4 C 0.0793(4) 0.2090(7) 0.4207(4)
H24_4 H 0.0726 0.1900 0.4274
C62_4 C 0.1027(5) 0.2083(8) 0.3973(5)
C63_4 C 0.1001(5) 0.2675(8) 0.3999(5)
C64_4 C 0.1115(5) 0.2387(6) 0.3885(5)
H25_4 H 0.1264 0.2400 0.3736
C65_4 C 0.0649(6) 0.2349(6) 0.4351(6)
C66_4 C 0.0769(4) 0.2634(6) 0.4231(4)
H26_4 H 0.0686 0.2812 0.4314
O34_4 O 0.1058(4) 0.1582(6) 0.3942(4)
C67_4 C 0.1173(5) 0.1821(8) 0.3827(5)
O35_4 O 0.0321(4) 0.2584(6) 0.4679(4)
C68_4 C 0.0406(8) 0.2328(6) 0.4594(8)
C69_4 C 0.0979(8) 0.3228(9) 0.4021(8)
H27_4 H 0.1017 0.3246 0.4238
C70_4 C 0.1163(8) 0.3477(11) 0.3837(8)
C71_4 C 0.1431(8) 0.3569(8) 0.3958(12)
C72_4 C 0.1560(9) 0.3440(9) 0.4247(13)
H28_4 H 0.1754 0.3983 0.4238
H29_4 H 0.1017 0.4238 0.3246
H30_4 H 0.0762 0.3246 0.3983
O36_6 O 0.3899(4) 0.6101(4) 0.7940(6)
O38_4 O 0.3628(5) 0.6372(5) 0.6865(6)
C73_6 C 0.4207(4) 0.5793(4) 0.7090(7)
H31_6 H 0.4274 0.5726 0.6900
C74_6 C 0.3973(5) 0.6027(5) 0.7083(8)
C75_6 C 0.3999(5) 0.6001(5) 0.7675(8)
C76_6 C 0.3885(5) 0.6115(5) 0.7387(6)
H32_6 H 0.3736 0.6264 0.7400
C77_6 C 0.4351(6) 0.5649(6) 0.7349(6)
C78_6 C 0.4231(4) 0.5769(4) 0.7634(6)
H33_6 H 0.4314 0.5686 0.7812
O40_4 O 0.3942(4) 0.6058(4) 0.6582(6)
C79_6 C 0.3827(5) 0.6173(5) 0.6821(8)
C80_6 C 0.4594(8) 0.5406(8) 0.7328(6)
C81_6 C 0.4021(8) 0.5979(8) 0.8228(9)
H34_6 H 0.4238 0.6017 0.8246
C82_6 C 0.3837(8) 0.6163(8) 0.8477(11)
C83_6 C 0.3958(12) 0.6431(8) 0.8569(8)
C84_6 C 0.4247(13) 0.6560(9) 0.8440(9)
O43_6 O 0.3899(4) 0.7060(6) 0.8899(4)
O44_6 O 0.4667(3) 0.7933(5) 0.9667(3)
O45_6 O 0.3628(5) 0.8135(6) 0.8628(5)
C85_6 C 0.4207(4) 0.7910(7) 0.9207(4)
H35_6 H 0.4274 0.8100 0.9274
C86_6 C 0.3973(5) 0.7917(8) 0.8973(5)
C87_6 C 0.3999(5) 0.7325(8) 0.8999(5)
C88_6 C 0.3885(5) 0.7613(6) 0.8885(5)
H36_6 H 0.3736 0.7600 0.8736
C89_6 C 0.4351(6) 0.7651(6) 0.9351(6)
C90_6 C 0.4231(4) 0.7366(6) 0.9231(4)
H37_6 H 0.4314 0.7188 0.9314
O46_6 O 0.3942(4) 0.8418(6) 0.8942(4)
C91_6 C 0.3827(5) 0.8179(8) 0.8827(5)
O47_6 O 0.4679(4) 0.7416(6) 0.9679(4)
C92_6 C 0.4594(8) 0.7672(6) 0.9594(8)
C93_6 C 0.4021(8) 0.6772(9) 0.9021(8)
H38_6 H 0.3983 0.6754 0.9238
C94_6 C 0.3837(8) 0.6523(11) 0.8837(8)
C95_6 C 0.3569(8) 0.6431(8) 0.8958(12)
C96_6 C 0.3440(9) 0.6560(9) 0.9247(13)
O48_6 O 0.2940(6) 0.6101(4) 0.8899(4)
O49_6 O 0.2067(5) 0.5333(3) 0.9667(3)
O50_6 O 0.1865(6) 0.6372(5) 0.8628(5)
C97_6 C 0.2090(7) 0.5793(4) 0.9207(4)
H39_6 H 0.1900 0.5726 0.9274
C98_6 C 0.2083(8) 0.6027(5) 0.8973(5)
C99_6 C 0.2675(8) 0.6001(5) 0.8999(5)
C100_6 C 0.2387(6) 0.6115(5) 0.8885(5)
H40_6 H 0.2400 0.6264 0.8736
C101_6 C 0.2349(6) 0.5649(6) 0.9351(6)
C102_6 C 0.2634(6) 0.5769(4) 0.9231(4)
H41_6 H 0.2812 0.5686 0.9314
O51_6 O 0.1582(6) 0.6058(4) 0.8942(4)
C103_6 C 0.1821(8) 0.6173(5) 0.8827(5)
O52_6 O 0.2584(6) 0.5321(4) 0.9679(4)
C104_6 C 0.2328(6) 0.5406(8) 0.9594(8)
C105_6 C 0.3228(9) 0.5979(8) 0.9021(8)
H42_6 H 0.3246 0.5762 0.8983
C106_6 C 0.3477(11) 0.6163(8) 0.8837(8)
C107_6 C 0.3569(8) 0.6042(12) 0.8569(8)
C108_6 C 0.3440(9) 0.5753(13) 0.8440(9)
H43_6 H 0.3983 0.5762 0.8246
H44_6 H 0.4238 0.6754 0.8983
H45_6 H 0.3246 0.6017 0.9238
O53_6 O 0.3899(4) 0.7940(6) 0.6101(4)
O55_4 O 0.3628(5) 0.6865(6) 0.6372(5)
C109_6 C 0.4207(4) 0.7090(7) 0.5793(4)
H46_6 H 0.4274 0.6900 0.5726
C110_6 C 0.3973(5) 0.7083(8) 0.6027(5)
C111_6 C 0.3999(5) 0.7675(8) 0.6001(5)
C112_6 C 0.3885(5) 0.7387(6) 0.6115(5)
H47_6 H 0.3736 0.7400 0.6264
C113_6 C 0.4351(6) 0.7349(6) 0.5649(6)
C114_6 C 0.4231(4) 0.7634(6) 0.5769(4)
H48_6 H 0.4314 0.7812 0.5686
O57_4 O 0.3942(4) 0.6582(6) 0.6058(4)
C115_6 C 0.3827(5) 0.6821(8) 0.6173(5)
C116_6 C 0.4594(8) 0.7328(6) 0.5406(8)
C117_6 C 0.4021(8) 0.8228(9) 0.5979(8)
H49_6 H 0.3983 0.8246 0.5762
C118_6 C 0.3837(8) 0.8477(11) 0.6163(8)
C119_6 C 0.3569(8) 0.8569(8) 0.6042(12)
C120_6 C 0.3440(9) 0.8440(9) 0.5753(13)
O60_6 O 0.2940(6) 0.8899(4) 0.6101(4)
O61_6 O 0.2067(5) 0.9667(3) 0.5333(3)
O62_6 O 0.1865(6) 0.8628(5) 0.6372(5)
C121_6 C 0.2090(7) 0.9207(4) 0.5793(4)
H50_6 H 0.1900 0.9274 0.5726
C122_6 C 0.2083(8) 0.8973(5) 0.6027(5)
C123_6 C 0.2675(8) 0.8999(5) 0.6001(5)
C124_6 C 0.2387(6) 0.8885(5) 0.6115(5)
H51_6 H 0.2400 0.8736 0.6264
C125_6 C 0.2349(6) 0.9351(6) 0.5649(6)
C126_6 C 0.2634(6) 0.9231(4) 0.5769(4)
H52_6 H 0.2812 0.9314 0.5686
O63_6 O 0.1582(6) 0.8942(4) 0.6058(4)
C127_6 C 0.1821(8) 0.8827(5) 0.6173(5)
O64_6 O 0.2584(6) 0.9679(4) 0.5321(4)
C128_6 C 0.2328(6) 0.9594(8) 0.5406(8)
C129_6 C 0.3228(9) 0.9021(8) 0.5979(8)
H53_6 H 0.3246 0.9238 0.6017
C130_6 C 0.3477(11) 0.8837(8) 0.6163(8)
C131_6 C 0.3569(8) 0.8958(12) 0.6431(8)
C132_6 C 0.3440(9) 0.9247(13) 0.6560(9)
O65_6 O 0.3899(4) 0.8899(4) 0.7060(6)
O66_6 O 0.4667(3) 0.9667(3) 0.7933(5)
O67_6 O 0.3628(5) 0.8628(5) 0.8135(6)
C133_6 C 0.4207(4) 0.9207(4) 0.7910(7)
H54_6 H 0.4274 0.9274 0.8100
C134_6 C 0.3973(5) 0.8973(5) 0.7917(8)
C135_6 C 0.3999(5) 0.8999(5) 0.7325(8)
C136_6 C 0.3885(5) 0.8885(5) 0.7613(6)
H55_6 H 0.3736 0.8736 0.7600
C137_6 C 0.4351(6) 0.9351(6) 0.7651(6)
C138_6 C 0.4231(4) 0.9231(4) 0.7366(6)
H56_6 H 0.4314 0.9314 0.7188
O68_6 O 0.3942(4) 0.8942(4) 0.8418(6)
C139_6 C 0.3827(5) 0.8827(5) 0.8179(8)
O69_6 O 0.4679(4) 0.9679(4) 0.7416(6)
C140_6 C 0.4594(8) 0.9594(8) 0.7672(6)
C141_6 C 0.4021(8) 0.9021(8) 0.6772(9)
H57_6 H 0.4238 0.8983 0.6754
C142_6 C 0.3837(8) 0.8837(8) 0.6523(11)
C143_6 C 0.3958(12) 0.8569(8) 0.6431(8)
C144_6 C 0.4247(13) 0.8440(9) 0.6560(9)
H58_6 H 0.4238 0.8246 0.6017
H59_6 H 0.3246 0.8983 0.5762
H60_6 H 0.3983 0.9238 0.6754
Zn11_4 Zn 0.15969(8) 0.65969(8) 0.84031(8)
Zn12_4 Zn 0.11258(9) 0.61258(9) 0.88742(9)
Zn13_4 Zn 0.15969(8) 0.84031(8) 0.65969(8)
Zn14_4 Zn 0.11258(9) 0.88742(9) 0.61258(9)
Zn31_4 Zn 0.15969(8) 0.34031(8) 0.15969(8)
Zn32_6 Zn 0.34031(8) 0.84031(8) 0.84031(8)
Zn33_4 Zn 0.15969(8) 0.15969(8) 0.34031(8)
Zn34_4 Zn 0.11258(9) 0.38742(9) 0.11258(9)
Zn35_6 Zn 0.38742(9) 0.88742(9) 0.88742(9)
Zn36_4 Zn 0.11258(9) 0.11258(9) 0.38742(9)
O78_4 O 0.3628(5) 0.3628(5) 0.3135(6)
O79_4 O 0.3628(5) 0.3135(6) 0.3628(5)
O80_10 O 0.1372(5) 0.6865(6) 0.8628(5)
O81_6 O 0.1372(5) 0.8628(5) 0.6865(6)
O82_4 O 0.3942(4) 0.3942(4) 0.3418(6)
O83_4 O 0.3942(4) 0.3418(6) 0.3942(4)
O84_10 O 0.1058(4) 0.6582(6) 0.8942(4)
O85_6 O 0.1058(4) 0.8942(4) 0.6582(6)
H61_14 H 0.311016 0.543312 0.543312
H62_4 H 0.180466 0.578007 0.659564
H63_4 H 0.144967 0.570263 0.677714
H64_4 H 0.151956 0.556598 0.640111
H69_4 H 0.180466 0.421993 0.340436
H70_4 H 0.144967 0.429737 0.322286
H71_4 H 0.151956 0.443402 0.359889
H72_4 H 0.0780071 0.659564 0.680466
H73_4 H 0.0702632 0.677714 0.644967
H74_4 H 0.0565981 0.640111 0.651956
H75_4 H 0.151956 0.640111 0.556598
H76_4 H 0.144967 0.677714 0.570263
H77_4 H 0.180466 0.659564 0.578007
H78_6 H 0.421993 0.659564 0.819534
H79_6 H 0.429737 0.677714 0.855033
H80_6 H 0.443402 0.640111 0.848044
H81_4 H 0.0780071 0.340436 0.319534
H82_4 H 0.0702632 0.322286 0.355033
H83_4 H 0.0565981 0.359889 0.348044
H84_4 H 0.151956 0.359889 0.443402
H85_4 H 0.144967 0.322286 0.429737
H86_4 H 0.180466 0.340436 0.421993
H91_6 H 0.340436 0.680466 0.921993
H92_6 H 0.322286 0.644967 0.929737
H93_6 H 0.359889 0.651956 0.943402
H94_6 H 0.359889 0.556598 0.848044
H95_6 H 0.322286 0.570263 0.855033
H96_6 H 0.340436 0.578007 0.819534
H99_6 H 0.340436 0.819534 0.578007
H100_6 H 0.322286 0.855033 0.570263
H101_6 H 0.359889 0.848044 0.556598
H104_6 H 0.443402 0.848044 0.640111
H105_6 H 0.429737 0.855033 0.677714
H106_6 H 0.421993 0.819534 0.659564
H107_6 H 0.319534 0.921993 0.659564
H108_6 H 0.355033 0.929737 0.677714
H109_6 H 0.348044 0.943402 0.640111
O36_7 O 0.6101(4) 0.6101(4) 0.2060(6)
C73_7 C 0.5793(4) 0.5793(4) 0.2910(7)
H31_7 H 0.5726 0.5726 0.3100
C74_7 C 0.6027(5) 0.6027(5) 0.2917(8)
C75_7 C 0.6001(5) 0.6001(5) 0.2325(8)
C76_7 C 0.6115(5) 0.6115(5) 0.2613(6)
H32_7 H 0.6264 0.6264 0.2600
C77_7 C 0.5649(6) 0.5649(6) 0.2651(6)
C78_7 C 0.5769(4) 0.5769(4) 0.2366(6)
H33_7 H 0.5686 0.5686 0.2188
C79_7 C 0.6173(5) 0.6173(5) 0.3179(8)
C80_7 C 0.5406(8) 0.5406(8) 0.2672(6)
C81_7 C 0.5979(8) 0.5979(8) 0.1772(9)
H34_7 H 0.5762 0.6017 0.1754
C82_7 C 0.6163(8) 0.6163(8) 0.1523(11)
C83_7 C 0.6042(12) 0.6431(8) 0.1431(8)
C84_7 C 0.5753(13) 0.6560(9) 0.1560(9)
O43_7 O 0.6101(4) 0.7060(6) 0.1101(4)
O44_7 O 0.5333(3) 0.7933(5) 0.0333(3)
O45_7 O 0.6372(5) 0.8135(6) 0.1372(5)
C85_7 C 0.5793(4) 0.7910(7) 0.0793(4)
H35_7 H 0.5726 0.8100 0.0726
C86_7 C 0.6027(5) 0.7917(8) 0.1027(5)
C87_7 C 0.6001(5) 0.7325(8) 0.1001(5)
C88_7 C 0.6115(5) 0.7613(6) 0.1115(5)
H36_7 H 0.6264 0.7600 0.1264
C89_7 C 0.5649(6) 0.7651(6) 0.0649(6)
C90_7 C 0.5769(4) 0.7366(6) 0.0769(4)
H37_7 H 0.5686 0.7188 0.0686
O46_7 O 0.6058(4) 0.8418(6) 0.1058(4)
C91_7 C 0.6173(5) 0.8179(8) 0.1173(5)
O47_7 O 0.5321(4) 0.7416(6) 0.0321(4)
C92_7 C 0.5406(8) 0.7672(6) 0.0406(8)
C93_7 C 0.5979(8) 0.6772(9) 0.0979(8)
H38_7 H 0.6017 0.6754 0.0762
C94_7 C 0.6163(8) 0.6523(11) 0.1163(8)
C95_7 C 0.6431(8) 0.6431(8) 0.1042(12)
C96_7 C 0.6560(9) 0.6560(9) 0.0753(13)
O48_7 O 0.7060(6) 0.6101(4) 0.1101(4)
O49_7 O 0.7933(5) 0.5333(3) 0.0333(3)
O50_7 O 0.8135(6) 0.6372(5) 0.1372(5)
C97_7 C 0.7910(7) 0.5793(4) 0.0793(4)
H39_7 H 0.8100 0.5726 0.0726
C98_7 C 0.7917(8) 0.6027(5) 0.1027(5)
C99_7 C 0.7325(8) 0.6001(5) 0.1001(5)
C100_7 C 0.7613(6) 0.6115(5) 0.1115(5)
H40_7 H 0.7600 0.6264 0.1264
C101_7 C 0.7651(6) 0.5649(6) 0.0649(6)
C102_7 C 0.7366(6) 0.5769(4) 0.0769(4)
H41_7 H 0.7188 0.5686 0.0686
O51_7 O 0.8418(6) 0.6058(4) 0.1058(4)
C103_7 C 0.8179(8) 0.6173(5) 0.1173(5)
O52_7 O 0.7416(6) 0.5321(4) 0.0321(4)
C104_7 C 0.7672(6) 0.5406(8) 0.0406(8)
C105_7 C 0.6772(9) 0.5979(8) 0.0979(8)
H42_7 H 0.6754 0.5762 0.1017
C106_7 C 0.6523(11) 0.6163(8) 0.1163(8)
C107_7 C 0.6431(8) 0.6042(12) 0.1431(8)
C108_7 C 0.6560(9) 0.5753(13) 0.1560(9)
H43_7 H 0.6017 0.5762 0.1754
H44_7 H 0.5762 0.6754 0.1017
H45_7 H 0.6754 0.6017 0.0762
O53_7 O 0.6101(4) 0.7940(6) 0.3899(4)
C109_7 C 0.5793(4) 0.7090(7) 0.4207(4)
H46_7 H 0.5726 0.6900 0.4274
C110_7 C 0.6027(5) 0.7083(8) 0.3973(5)
C111_7 C 0.6001(5) 0.7675(8) 0.3999(5)
C112_7 C 0.6115(5) 0.7387(6) 0.3885(5)
H47_7 H 0.6264 0.7400 0.3736
C113_7 C 0.5649(6) 0.7349(6) 0.4351(6)
C114_7 C 0.5769(4) 0.7634(6) 0.4231(4)
H48_7 H 0.5686 0.7812 0.4314
C115_7 C 0.6173(5) 0.6821(8) 0.3827(5)
C116_7 C 0.5406(8) 0.7328(6) 0.4594(8)
C117_7 C 0.5979(8) 0.8228(9) 0.4021(8)
H49_7 H 0.6017 0.8246 0.4238
C118_7 C 0.6163(8) 0.8477(11) 0.3837(8)
C119_7 C 0.6431(8) 0.8569(8) 0.3958(12)
C120_7 C 0.6560(9) 0.8440(9) 0.4247(13)
O60_7 O 0.7060(6) 0.8899(4) 0.3899(4)
O61_7 O 0.7933(5) 0.9667(3) 0.4667(3)
O62_7 O 0.8135(6) 0.8628(5) 0.3628(5)
C121_7 C 0.7910(7) 0.9207(4) 0.4207(4)
H50_7 H 0.8100 0.9274 0.4274
C122_7 C 0.7917(8) 0.8973(5) 0.3973(5)
C123_7 C 0.7325(8) 0.8999(5) 0.3999(5)
C124_7 C 0.7613(6) 0.8885(5) 0.3885(5)
H51_7 H 0.7600 0.8736 0.3736
C125_7 C 0.7651(6) 0.9351(6) 0.4351(6)
C126_7 C 0.7366(6) 0.9231(4) 0.4231(4)
H52_7 H 0.7188 0.9314 0.4314
O63_7 O 0.8418(6) 0.8942(4) 0.3942(4)
C127_7 C 0.8179(8) 0.8827(5) 0.3827(5)
O64_7 O 0.7416(6) 0.9679(4) 0.4679(4)
C128_7 C 0.7672(6) 0.9594(8) 0.4594(8)
C129_7 C 0.6772(9) 0.9021(8) 0.4021(8)
H53_7 H 0.6754 0.9238 0.3983
C130_7 C 0.6523(11) 0.8837(8) 0.3837(8)
C131_7 C 0.6431(8) 0.8958(12) 0.3569(8)
C132_7 C 0.6560(9) 0.9247(13) 0.3440(9)
O65_7 O 0.6101(4) 0.8899(4) 0.2940(6)
O66_7 O 0.5333(3) 0.9667(3) 0.2067(5)
O67_7 O 0.6372(5) 0.8628(5) 0.1865(6)
C133_7 C 0.5793(4) 0.9207(4) 0.2090(7)
H54_7 H 0.5726 0.9274 0.1900
C134_7 C 0.6027(5) 0.8973(5) 0.2083(8)
C135_7 C 0.6001(5) 0.8999(5) 0.2675(8)
C136_7 C 0.6115(5) 0.8885(5) 0.2387(6)
H55_7 H 0.6264 0.8736 0.2400
C137_7 C 0.5649(6) 0.9351(6) 0.2349(6)
C138_7 C 0.5769(4) 0.9231(4) 0.2634(6)
H56_7 H 0.5686 0.9314 0.2812
O68_7 O 0.6058(4) 0.8942(4) 0.1582(6)
C139_7 C 0.6173(5) 0.8827(5) 0.1821(8)
O69_7 O 0.5321(4) 0.9679(4) 0.2584(6)
C140_7 C 0.5406(8) 0.9594(8) 0.2328(6)
C141_7 C 0.5979(8) 0.9021(8) 0.3228(9)
H57_7 H 0.5762 0.8983 0.3246
C142_7 C 0.6163(8) 0.8837(8) 0.3477(11)
C143_7 C 0.6042(12) 0.8569(8) 0.3569(8)
C144_7 C 0.5753(13) 0.8440(9) 0.3440(9)
H58_7 H 0.5762 0.8246 0.3983
H59_7 H 0.6754 0.8983 0.4238
H60_7 H 0.6017 0.9238 0.3246
Zn32_7 Zn 0.65969(8) 0.84031(8) 0.15969(8)
Zn35_7 Zn 0.61258(9) 0.88742(9) 0.11258(9)
O80_11 O 0.8628(5) 0.6865(6) 0.1372(5)
O81_7 O 0.8628(5) 0.8628(5) 0.3135(6)
O84_11 O 0.8942(4) 0.6582(6) 0.1058(4)
O85_7 O 0.8942(4) 0.8942(4) 0.3418(6)
H61_15 H 0.688984 0.543312 0.456688
H78_7 H 0.578007 0.659564 0.180466
H79_7 H 0.570263 0.677714 0.144967
H80_7 H 0.556598 0.640111 0.151956
H91_7 H 0.659564 0.680466 0.0780071
H92_7 H 0.677714 0.644967 0.0702632
H93_7 H 0.640111 0.651956 0.0565981
H94_7 H 0.640111 0.556598 0.151956
H95_7 H 0.677714 0.570263 0.144967
H96_7 H 0.659564 0.578007 0.180466
H99_7 H 0.659564 0.819534 0.421993
H100_7 H 0.677714 0.855033 0.429737
H101_7 H 0.640111 0.848044 0.443402
H104_7 H 0.556598 0.848044 0.359889
H105_7 H 0.570263 0.855033 0.322286
H106_7 H 0.578007 0.819534 0.340436
H107_7 H 0.680466 0.921993 0.340436
H108_7 H 0.644967 0.929737 0.322286
H109_7 H 0.651956 0.943402 0.359889
O36_8 O 0.3899(4) 0.3899(4) 0.2060(6)
C73_8 C 0.4207(4) 0.4207(4) 0.2910(7)
H31_8 H 0.4274 0.4274 0.3100
C74_8 C 0.3973(5) 0.3973(5) 0.2917(8)
C75_8 C 0.3999(5) 0.3999(5) 0.2325(8)
C76_8 C 0.3885(5) 0.3885(5) 0.2613(6)
H32_8 H 0.3736 0.3736 0.2600
C77_8 C 0.4351(6) 0.4351(6) 0.2651(6)
C78_8 C 0.4231(4) 0.4231(4) 0.2366(6)
H33_8 H 0.4314 0.4314 0.2188
C79_8 C 0.3827(5) 0.3827(5) 0.3179(8)
C80_8 C 0.4594(8) 0.4594(8) 0.2672(6)
C81_8 C 0.4021(8) 0.4021(8) 0.1772(9)
H34_8 H 0.4238 0.3983 0.1754
C82_8 C 0.3837(8) 0.3837(8) 0.1523(11)
C83_8 C 0.3958(12) 0.3569(8) 0.1431(8)
C84_8 C 0.4247(13) 0.3440(9) 0.1560(9)
O43_8 O 0.3899(4) 0.2940(6) 0.1101(4)
O44_8 O 0.4667(3) 0.2067(5) 0.0333(3)
O45_8 O 0.3628(5) 0.1865(6) 0.1372(5)
C85_8 C 0.4207(4) 0.2090(7) 0.0793(4)
H35_8 H 0.4274 0.1900 0.0726
C86_8 C 0.3973(5) 0.2083(8) 0.1027(5)
C87_8 C 0.3999(5) 0.2675(8) 0.1001(5)
C88_8 C 0.3885(5) 0.2387(6) 0.1115(5)
H36_8 H 0.3736 0.2400 0.1264
C89_8 C 0.4351(6) 0.2349(6) 0.0649(6)
C90_8 C 0.4231(4) 0.2634(6) 0.0769(4)
H37_8 H 0.4314 0.2812 0.0686
O46_8 O 0.3942(4) 0.1582(6) 0.1058(4)
C91_8 C 0.3827(5) 0.1821(8) 0.1173(5)
O47_8 O 0.4679(4) 0.2584(6) 0.0321(4)
C92_8 C 0.4594(8) 0.2328(6) 0.0406(8)
C93_8 C 0.4021(8) 0.3228(9) 0.0979(8)
H38_8 H 0.3983 0.3246 0.0762
C94_8 C 0.3837(8) 0.3477(11) 0.1163(8)
C95_8 C 0.3569(8) 0.3569(8) 0.1042(12)
C96_8 C 0.3440(9) 0.3440(9) 0.0753(13)
O48_8 O 0.2940(6) 0.3899(4) 0.1101(4)
O49_8 O 0.2067(5) 0.4667(3) 0.0333(3)
O50_8 O 0.1865(6) 0.3628(5) 0.1372(5)
C97_8 C 0.2090(7) 0.4207(4) 0.0793(4)
H39_8 H 0.1900 0.4274 0.0726
C98_8 C 0.2083(8) 0.3973(5) 0.1027(5)
C99_8 C 0.2675(8) 0.3999(5) 0.1001(5)
C100_8 C 0.2387(6) 0.3885(5) 0.1115(5)
H40_8 H 0.2400 0.3736 0.1264
C101_8 C 0.2349(6) 0.4351(6) 0.0649(6)
C102_8 C 0.2634(6) 0.4231(4) 0.0769(4)
H41_8 H 0.2812 0.4314 0.0686
O51_8 O 0.1582(6) 0.3942(4) 0.1058(4)
C103_8 C 0.1821(8) 0.3827(5) 0.1173(5)
O52_8 O 0.2584(6) 0.4679(4) 0.0321(4)
C104_8 C 0.2328(6) 0.4594(8) 0.0406(8)
C105_8 C 0.3228(9) 0.4021(8) 0.0979(8)
H42_8 H 0.3246 0.4238 0.1017
C106_8 C 0.3477(11) 0.3837(8) 0.1163(8)
C107_8 C 0.3569(8) 0.3958(12) 0.1431(8)
C108_8 C 0.3440(9) 0.4247(13) 0.1560(9)
H43_8 H 0.3983 0.4238 0.1754
H44_8 H 0.4238 0.3246 0.1017
H45_8 H 0.3246 0.3983 0.0762
O53_8 O 0.3899(4) 0.2060(6) 0.3899(4)
C109_8 C 0.4207(4) 0.2910(7) 0.4207(4)
H46_8 H 0.4274 0.3100 0.4274
C110_8 C 0.3973(5) 0.2917(8) 0.3973(5)
C111_8 C 0.3999(5) 0.2325(8) 0.3999(5)
C112_8 C 0.3885(5) 0.2613(6) 0.3885(5)
H47_8 H 0.3736 0.2600 0.3736
C113_8 C 0.4351(6) 0.2651(6) 0.4351(6)
C114_8 C 0.4231(4) 0.2366(6) 0.4231(4)
H48_8 H 0.4314 0.2188 0.4314
C115_8 C 0.3827(5) 0.3179(8) 0.3827(5)
C116_8 C 0.4594(8) 0.2672(6) 0.4594(8)
C117_8 C 0.4021(8) 0.1772(9) 0.4021(8)
H49_8 H 0.3983 0.1754 0.4238
C118_8 C 0.3837(8) 0.1523(11) 0.3837(8)
C119_8 C 0.3569(8) 0.1431(8) 0.3958(12)
C120_8 C 0.3440(9) 0.1560(9) 0.4247(13)
O60_8 O 0.2940(6) 0.1101(4) 0.3899(4)
O61_8 O 0.2067(5) 0.0333(3) 0.4667(3)
O62_8 O 0.1865(6) 0.1372(5) 0.3628(5)
C121_8 C 0.2090(7) 0.0793(4) 0.4207(4)
H50_8 H 0.1900 0.0726 0.4274
C122_8 C 0.2083(8) 0.1027(5) 0.3973(5)
C123_8 C 0.2675(8) 0.1001(5) 0.3999(5)
C124_8 C 0.2387(6) 0.1115(5) 0.3885(5)
H51_8 H 0.2400 0.1264 0.3736
C125_8 C 0.2349(6) 0.0649(6) 0.4351(6)
C126_8 C 0.2634(6) 0.0769(4) 0.4231(4)
H52_8 H 0.2812 0.0686 0.4314
O63_8 O 0.1582(6) 0.1058(4) 0.3942(4)
C127_8 C 0.1821(8) 0.1173(5) 0.3827(5)
O64_8 O 0.2584(6) 0.0321(4) 0.4679(4)
C128_8 C 0.2328(6) 0.0406(8) 0.4594(8)
C129_8 C 0.3228(9) 0.0979(8) 0.4021(8)
H53_8 H 0.3246 0.0762 0.3983
C130_8 C 0.3477(11) 0.1163(8) 0.3837(8)
C131_8 C 0.3569(8) 0.1042(12) 0.3569(8)
C132_8 C 0.3440(9) 0.0753(13) 0.3440(9)
O65_8 O 0.3899(4) 0.1101(4) 0.2940(6)
O66_8 O 0.4667(3) 0.0333(3) 0.2067(5)
O67_8 O 0.3628(5) 0.1372(5) 0.1865(6)
C133_8 C 0.4207(4) 0.0793(4) 0.2090(7)
H54_8 H 0.4274 0.0726 0.1900
C134_8 C 0.3973(5) 0.1027(5) 0.2083(8)
C135_8 C 0.3999(5) 0.1001(5) 0.2675(8)
C136_8 C 0.3885(5) 0.1115(5) 0.2387(6)
H55_8 H 0.3736 0.1264 0.2400
C137_8 C 0.4351(6) 0.0649(6) 0.2349(6)
C138_8 C 0.4231(4) 0.0769(4) 0.2634(6)
H56_8 H 0.4314 0.0686 0.2812
O68_8 O 0.3942(4) 0.1058(4) 0.1582(6)
C139_8 C 0.3827(5) 0.1173(5) 0.1821(8)
O69_8 O 0.4679(4) 0.0321(4) 0.2584(6)
C140_8 C 0.4594(8) 0.0406(8) 0.2328(6)
C141_8 C 0.4021(8) 0.0979(8) 0.3228(9)
H57_8 H 0.4238 0.1017 0.3246
C142_8 C 0.3837(8) 0.1163(8) 0.3477(11)
C143_8 C 0.3958(12) 0.1431(8) 0.3569(8)
C144_8 C 0.4247(13) 0.1560(9) 0.3440(9)
H58_8 H 0.4238 0.1754 0.3983
H59_8 H 0.3246 0.1017 0.4238
H60_8 H 0.3983 0.0762 0.3246
Zn32_8 Zn 0.34031(8) 0.15969(8) 0.15969(8)
Zn35_8 Zn 0.38742(9) 0.11258(9) 0.11258(9)
O80_12 O 0.1372(5) 0.3135(6) 0.1372(5)
O81_8 O 0.1372(5) 0.1372(5) 0.3135(6)
O84_12 O 0.1058(4) 0.3418(6) 0.1058(4)
O85_8 O 0.1058(4) 0.1058(4) 0.3418(6)
H61_16 H 0.311016 0.456688 0.456688
H78_8 H 0.421993 0.340436 0.180466
H79_8 H 0.429737 0.322286 0.144967
H80_8 H 0.443402 0.359889 0.151956
H91_8 H 0.340436 0.319534 0.0780071
H92_8 H 0.322286 0.355033 0.0702632
H93_8 H 0.359889 0.348044 0.0565981
H94_8 H 0.359889 0.443402 0.151956
H95_8 H 0.322286 0.429737 0.144967
H96_8 H 0.340436 0.421993 0.180466
H99_8 H 0.340436 0.180466 0.421993
H100_8 H 0.322286 0.144967 0.429737
H101_8 H 0.359889 0.151956 0.443402
H104_8 H 0.443402 0.151956 0.359889
H105_8 H 0.429737 0.144967 0.322286
H106_8 H 0.421993 0.180466 0.340436
H107_8 H 0.319534 0.0780071 0.340436
H108_8 H 0.355033 0.0702632 0.322286
H109_8 H 0.348044 0.0565981 0.359889
O80_13 O 0.3135(6) 0.1372(5) 0.1372(5)
O84_13 O 0.3418(6) 0.1058(4) 0.1058(4)
H61_17 H 0.456688 0.456688 0.311016
O80_14 O 0.6865(6) 0.1372(5) 0.8628(5)
O84_14 O 0.6582(6) 0.1058(4) 0.8942(4)
H61_18 H 0.543312 0.456688 0.688984
O80_15 O 0.6865(6) 0.8628(5) 0.1372(5)
O84_15 O 0.6582(6) 0.8942(4) 0.1058(4)
H61_19 H 0.543312 0.543312 0.311016
O80_16 O 0.3135(6) 0.8628(5) 0.8628(5)
O84_16 O 0.3418(6) 0.8942(4) 0.8942(4)
H61_20 H 0.456688 0.543312 0.688984
H61_21 H 0.456688 0.688984 0.543312
H61_22 H 0.456688 0.311016 0.456688
H61_23 H 0.543312 0.688984 0.456688
H61_24 H 0.543312 0.311016 0.543312
O7_3 O 0.5000 0.1514(8) 0.0000
O10_3 O 0.5000 0.3151(10) 0.0000
Zn9_3 Zn 0.23206(14) -0.0000 0.0000
Zn10_3 Zn 0.30063(15) -0.0000 0.0000
O56_3 O 0.3486(8) -0.0000 0.0000
O59_3 O 0.1849(10) -0.0000 0.0000
Zn20_5 Zn -0.0000 0.23206(14) 0.0000
Zn28_5 Zn -0.0000 0.30063(15) 0.0000
O72_3 O 0.2933(5) 0.0333(3) 0.0333(3)
O88_3 O 0.2416(6) 0.0321(4) 0.0321(4)
H69_5 H 0.578007 0.319534 0.159564
H70_5 H 0.570263 0.355033 0.177714
H71_5 H 0.556598 0.348044 0.140111
H84_5 H 0.640111 0.348044 0.0565981
H85_5 H 0.677714 0.355033 0.0702632
H86_5 H 0.659564 0.319534 0.0780071
O7_4 O 0.5000 0.1514(8) 1.0000
O10_4 O 0.5000 0.3151(10) 1.0000
O39_3 O 0.5000 -0.0000 0.8486(8)
O42_3 O 0.5000 -0.0000 0.6849(10)
Zn9_4 Zn 0.23206(14) -0.0000 1.0000
Zn10_4 Zn 0.30063(15) -0.0000 1.0000
O53_9 O 0.2060(6) 0.1101(4) 0.8899(4)
O54_3 O 0.2933(5) 0.0333(3) 0.9667(3)
C109_9 C 0.2910(7) 0.0793(4) 0.9207(4)
H46_9 H 0.3100 0.0726 0.9274
O56_4 O 0.3486(8) -0.0000 1.0000
C110_9 C 0.2917(8) 0.1027(5) 0.8973(5)
C111_9 C 0.2325(8) 0.1001(5) 0.8999(5)
C112_9 C 0.2613(6) 0.1115(5) 0.8885(5)
H47_9 H 0.2600 0.1264 0.8736
C113_9 C 0.2651(6) 0.0649(6) 0.9351(6)
C114_9 C 0.2366(6) 0.0769(4) 0.9231(4)
H48_9 H 0.2188 0.0686 0.9314
C115_9 C 0.3179(8) 0.1173(5) 0.8827(5)
O58_3 O 0.2416(6) 0.0321(4) 0.9679(4)
O59_4 O 0.1849(10) -0.0000 1.0000
C116_9 C 0.2672(6) 0.0406(8) 0.9594(8)
C117_9 C 0.1772(9) 0.0979(8) 0.9021(8)
H49_9 H 0.1754 0.1017 0.9238
C118_9 C 0.1523(11) 0.1163(8) 0.8837(8)
C119_9 C 0.1431(8) 0.1431(8) 0.8958(12)
C120_9 C 0.1560(9) 0.1560(9) 0.9247(13)
O60_9 O 0.1101(4) 0.2060(6) 0.8899(4)
O61_9 O 0.0333(3) 0.2933(5) 0.9667(3)
C121_9 C 0.0793(4) 0.2910(7) 0.9207(4)
H50_9 H 0.0726 0.3100 0.9274
C122_9 C 0.1027(5) 0.2917(8) 0.8973(5)
C123_9 C 0.1001(5) 0.2325(8) 0.8999(5)
C124_9 C 0.1115(5) 0.2613(6) 0.8885(5)
H51_9 H 0.1264 0.2600 0.8736
C125_9 C 0.0649(6) 0.2651(6) 0.9351(6)
C126_9 C 0.0769(4) 0.2366(6) 0.9231(4)
H52_9 H 0.0686 0.2188 0.9314
C127_9 C 0.1173(5) 0.3179(8) 0.8827(5)
O64_9 O 0.0321(4) 0.2416(6) 0.9679(4)
C128_9 C 0.0406(8) 0.2672(6) 0.9594(8)
C129_9 C 0.0979(8) 0.1772(9) 0.9021(8)
H53_9 H 0.0762 0.1754 0.8983
C130_9 C 0.1163(8) 0.1523(11) 0.8837(8)
C131_9 C 0.1042(12) 0.1431(8) 0.8569(8)
C132_9 C 0.0753(13) 0.1560(9) 0.8440(9)
O65_9 O 0.1101(4) 0.1101(4) 0.7940(6)
O66_9 O 0.0333(3) 0.0333(3) 0.7067(5)
C133_9 C 0.0793(4) 0.0793(4) 0.7090(7)
H54_9 H 0.0726 0.0726 0.6900
C134_9 C 0.1027(5) 0.1027(5) 0.7083(8)
C135_9 C 0.1001(5) 0.1001(5) 0.7675(8)
C136_9 C 0.1115(5) 0.1115(5) 0.7387(6)
H55_9 H 0.1264 0.1264 0.7400
C137_9 C 0.0649(6) 0.0649(6) 0.7349(6)
C138_9 C 0.0769(4) 0.0769(4) 0.7634(6)
H56_9 H 0.0686 0.0686 0.7812
C139_9 C 0.1173(5) 0.1173(5) 0.6821(8)
O69_9 O 0.0321(4) 0.0321(4) 0.7584(6)
C140_9 C 0.0406(8) 0.0406(8) 0.7328(6)
C141_9 C 0.0979(8) 0.0979(8) 0.8228(9)
H57_9 H 0.1017 0.0762 0.8246
C142_9 C 0.1163(8) 0.1163(8) 0.8477(11)
C143_9 C 0.1431(8) 0.1042(12) 0.8569(8)
C144_9 C 0.1560(9) 0.0753(13) 0.8440(9)
H58_9 H 0.1754 0.0762 0.8983
H59_9 H 0.1017 0.1754 0.9238
H60_9 H 0.0762 0.1017 0.8246
Zn18_5 Zn -0.0000 -0.0000 0.76794(14)
Zn20_6 Zn -0.0000 0.23206(14) 1.0000
Zn26_5 Zn -0.0000 -0.0000 0.69937(15)
Zn28_6 Zn -0.0000 0.30063(15) 1.0000
H61_25 H 0.456688 0.188984 0.956688
H62_5 H 0.421993 0.319534 0.840436
H63_5 H 0.429737 0.355033 0.822286
H64_5 H 0.443402 0.348044 0.859889
H75_5 H 0.359889 0.348044 0.943402
H76_5 H 0.322286 0.355033 0.929737
H77_5 H 0.340436 0.319534 0.921993
H91_9 H 0.319534 0.159564 0.578007
H92_9 H 0.355033 0.177714 0.570263
H93_9 H 0.348044 0.140111 0.556598
H94_9 H 0.443402 0.140111 0.651956
H95_9 H 0.429737 0.177714 0.644967
H96_9 H 0.421993 0.159564 0.680466
H99_9 H 0.180466 0.159564 0.921993
H100_9 H 0.144967 0.177714 0.929737
H101_9 H 0.151956 0.140111 0.943402
H104_9 H 0.151956 0.0565981 0.859889
H105_9 H 0.144967 0.0702632 0.822286
H106_9 H 0.180466 0.0780071 0.840436
H107_9 H 0.0780071 0.180466 0.840436
H108_9 H 0.0702632 0.144967 0.822286
H109_9 H 0.0565981 0.151956 0.859889
Zn9_5 Zn 0.23206(14) 1.0000 0.0000
Zn10_5 Zn 0.30063(15) 1.0000 0.0000
O56_5 O 0.3486(8) 1.0000 0.0000
O59_5 O 0.1849(10) 1.0000 0.0000
O71_3 O 0.2933(5) 0.9667(3) 0.0333(3)
O87_3 O 0.2416(6) 0.9679(4) 0.0321(4)
O39_4 O 0.5000 1.0000 0.8486(8)
O42_4 O 0.5000 1.0000 0.6849(10)
Zn9_6 Zn 0.23206(14) 1.0000 1.0000
Zn10_6 Zn 0.30063(15) 1.0000 1.0000
O56_6 O 0.3486(8) 1.0000 1.0000
O59_6 O 0.1849(10) 1.0000 1.0000
Zn18_6 Zn -0.0000 1.0000 0.76794(14)
Zn26_6 Zn -0.0000 1.0000 0.69937(15)
O73_3 O 0.2933(5) 0.9667(3) 0.9667(3)
O89_3 O 0.2416(6) 0.9679(4) 0.9679(4)
Zn20_7 Zn 1.0000 0.23206(14) 0.0000
Zn28_7 Zn 1.0000 0.30063(15) 0.0000
Zn18_7 Zn 1.0000 -0.0000 0.76794(14)
Zn20_8 Zn 1.0000 0.23206(14) 1.0000
Zn26_7 Zn 1.0000 -0.0000 0.69937(15)
Zn28_8 Zn 1.0000 0.30063(15) 1.0000
Zn18_8 Zn 1.0000 1.0000 0.76794(14)
Zn26_8 Zn 1.0000 1.0000 0.69937(15)
Zn20_9 Zn 0.0000 0.76794(14) 0.0000
Zn28_9 Zn 0.0000 0.69937(15) 0.0000
Zn20_10 Zn 0.0000 0.76794(14) 1.0000
Zn28_10 Zn -0.0000 0.69937(15) 1.0000
Zn9_7 Zn 0.76794(14) 0.0000 0.0000
Zn10_7 Zn 0.69937(15) 0.0000 0.0000
O56_7 O 0.6514(8) 0.0000 0.0000
O59_7 O 0.8151(10) 0.0000 0.0000
O71_4 O 0.7067(5) 0.0333(3) 0.0333(3)
O87_4 O 0.7584(6) 0.0321(4) 0.0321(4)
Zn9_8 Zn 0.76794(14) 0.0000 1.0000
Zn10_8 Zn 0.69937(15) 0.0000 1.0000
O56_8 O 0.6514(8) 0.0000 1.0000
O59_8 O 0.8151(10) 0.0000 1.0000
O73_4 O 0.7067(5) 0.0333(3) 0.9667(3)
O89_4 O 0.7584(6) 0.0321(4) 0.9679(4)
O7_5 O 0.5000 0.8486(8) 0.0000
O10_5 O 0.5000 0.6849(10) 0.0000
Zn9_9 Zn 0.76794(14) 1.0000 0.0000
Zn10_9 Zn 0.69937(15) 1.0000 0.0000
O56_9 O 0.6514(8) 1.0000 0.0000
O59_9 O 0.8151(10) 1.0000 0.0000
Zn20_11 Zn 1.0000 0.76794(14) 0.0000
Zn28_11 Zn 1.0000 0.69937(15) 0.0000
O72_4 O 0.7067(5) 0.9667(3) 0.0333(3)
O88_4 O 0.7584(6) 0.9679(4) 0.0321(4)
H69_6 H 0.421993 0.680466 0.159564
H70_6 H 0.429737 0.644967 0.177714
H71_6 H 0.443402 0.651956 0.140111
H84_6 H 0.359889 0.651956 0.0565981
H85_6 H 0.322286 0.644967 0.0702632
H86_6 H 0.340436 0.680466 0.0780071
O7_6 O 0.5000 0.8486(8) 1.0000
O10_6 O 0.5000 0.6849(10) 1.0000
Zn9_10 Zn 0.76794(14) 1.0000 1.0000
Zn10_10 Zn 0.69937(15) 1.0000 1.0000
O53_10 O 0.7940(6) 0.8899(4) 0.8899(4)
O54_4 O 0.7067(5) 0.9667(3) 0.9667(3)
C109_10 C 0.7090(7) 0.9207(4) 0.9207(4)
H46_10 H 0.6900 0.9274 0.9274
O56_10 O 0.6514(8) 1.0000 1.0000
C110_10 C 0.7083(8) 0.8973(5) 0.8973(5)
C111_10 C 0.7675(8) 0.8999(5) 0.8999(5)
C112_10 C 0.7387(6) 0.8885(5) 0.8885(5)
H47_10 H 0.7400 0.8736 0.8736
C113_10 C 0.7349(6) 0.9351(6) 0.9351(6)
C114_10 C 0.7634(6) 0.9231(4) 0.9231(4)
H48_10 H 0.7812 0.9314 0.9314
C115_10 C 0.6821(8) 0.8827(5) 0.8827(5)
O58_4 O 0.7584(6) 0.9679(4) 0.9679(4)
O59_10 O 0.8151(10) 1.0000 1.0000
C116_10 C 0.7328(6) 0.9594(8) 0.9594(8)
C117_10 C 0.8228(9) 0.9021(8) 0.9021(8)
H49_10 H 0.8246 0.8983 0.9238
C118_10 C 0.8477(11) 0.8837(8) 0.8837(8)
C119_10 C 0.8569(8) 0.8569(8) 0.8958(12)
C120_10 C 0.8440(9) 0.8440(9) 0.9247(13)
O60_10 O 0.8899(4) 0.7940(6) 0.8899(4)
O61_10 O 0.9667(3) 0.7067(5) 0.9667(3)
C121_10 C 0.9207(4) 0.7090(7) 0.9207(4)
H50_10 H 0.9274 0.6900 0.9274
C122_10 C 0.8973(5) 0.7083(8) 0.8973(5)
C123_10 C 0.8999(5) 0.7675(8) 0.8999(5)
C124_10 C 0.8885(5) 0.7387(6) 0.8885(5)
H51_10 H 0.8736 0.7400 0.8736
C125_10 C 0.9351(6) 0.7349(6) 0.9351(6)
C126_10 C 0.9231(4) 0.7634(6) 0.9231(4)
H52_10 H 0.9314 0.7812 0.9314
C127_10 C 0.8827(5) 0.6821(8) 0.8827(5)
O64_10 O 0.9679(4) 0.7584(6) 0.9679(4)
C128_10 C 0.9594(8) 0.7328(6) 0.9594(8)
C129_10 C 0.9021(8) 0.8228(9) 0.9021(8)
H53_10 H 0.9238 0.8246 0.8983
C130_10 C 0.8837(8) 0.8477(11) 0.8837(8)
C131_10 C 0.8958(12) 0.8569(8) 0.8569(8)
C132_10 C 0.9247(13) 0.8440(9) 0.8440(9)
O65_10 O 0.8899(4) 0.8899(4) 0.7940(6)
O66_10 O 0.9667(3) 0.9667(3) 0.7067(5)
C133_10 C 0.9207(4) 0.9207(4) 0.7090(7)
H54_10 H 0.9274 0.9274 0.6900
C134_10 C 0.8973(5) 0.8973(5) 0.7083(8)
C135_10 C 0.8999(5) 0.8999(5) 0.7675(8)
C136_10 C 0.8885(5) 0.8885(5) 0.7387(6)
H55_10 H 0.8736 0.8736 0.7400
C137_10 C 0.9351(6) 0.9351(6) 0.7349(6)
C138_10 C 0.9231(4) 0.9231(4) 0.7634(6)
H56_10 H 0.9314 0.9314 0.7812
C139_10 C 0.8827(5) 0.8827(5) 0.6821(8)
O69_10 O 0.9679(4) 0.9679(4) 0.7584(6)
C140_10 C 0.9594(8) 0.9594(8) 0.7328(6)
C141_10 C 0.9021(8) 0.9021(8) 0.8228(9)
H57_10 H 0.8983 0.9238 0.8246
C142_10 C 0.8837(8) 0.8837(8) 0.8477(11)
C143_10 C 0.8569(8) 0.8958(12) 0.8569(8)
C144_10 C 0.8440(9) 0.9247(13) 0.8440(9)
H58_10 H 0.8246 0.9238 0.8983
H59_10 H 0.8983 0.8246 0.9238
H60_10 H 0.9238 0.8983 0.8246
Zn20_12 Zn 1.0000 0.76794(14) 1.0000
Zn28_12 Zn 1.0000 0.69937(15) 1.0000
H61_26 H 0.543312 0.811016 0.956688
H62_6 H 0.578007 0.680466 0.840436
H63_6 H 0.570263 0.644967 0.822286
H64_6 H 0.556598 0.651956 0.859889
H75_6 H 0.640111 0.651956 0.943402
H76_6 H 0.677714 0.644967 0.929737
H77_6 H 0.659564 0.680466 0.921993
H91_10 H 0.680466 0.840436 0.578007
H92_10 H 0.644967 0.822286 0.570263
H93_10 H 0.651956 0.859889 0.556598
H94_10 H 0.556598 0.859889 0.651956
H95_10 H 0.570263 0.822286 0.644967
H96_10 H 0.578007 0.840436 0.680466
H99_10 H 0.819534 0.840436 0.921993
H100_10 H 0.855033 0.822286 0.929737
H101_10 H 0.848044 0.859889 0.943402
H104_10 H 0.848044 0.943402 0.859889
H105_10 H 0.855033 0.929737 0.822286
H106_10 H 0.819534 0.921993 0.840436
H107_10 H 0.921993 0.819534 0.840436
H108_10 H 0.929737 0.855033 0.822286
H109_10 H 0.943402 0.848044 0.859889
Zn18_9 Zn 0.0000 -0.0000 0.23206(14)
Zn26_9 Zn 0.0000 -0.0000 0.30063(15)
Zn18_10 Zn 0.0000 1.0000 0.23206(14)
Zn26_10 Zn -0.0000 1.0000 0.30063(15)
O39_5 O 0.5000 -0.0000 0.1514(8)
O42_5 O 0.5000 -0.0000 0.3151(10)
O53_11 O 0.7940(6) 0.1101(4) 0.1101(4)
C109_11 C 0.7090(7) 0.0793(4) 0.0793(4)
H46_11 H 0.6900 0.0726 0.0726
C110_11 C 0.7083(8) 0.1027(5) 0.1027(5)
C111_11 C 0.7675(8) 0.1001(5) 0.1001(5)
C112_11 C 0.7387(6) 0.1115(5) 0.1115(5)
H47_11 H 0.7400 0.1264 0.1264
C113_11 C 0.7349(6) 0.0649(6) 0.0649(6)
C114_11 C 0.7634(6) 0.0769(4) 0.0769(4)
H48_11 H 0.7812 0.0686 0.0686
C115_11 C 0.6821(8) 0.1173(5) 0.1173(5)
C116_11 C 0.7328(6) 0.0406(8) 0.0406(8)
C117_11 C 0.8228(9) 0.0979(8) 0.0979(8)
H49_11 H 0.8246 0.1017 0.0762
C118_11 C 0.8477(11) 0.1163(8) 0.1163(8)
C119_11 C 0.8569(8) 0.1431(8) 0.1042(12)
C120_11 C 0.8440(9) 0.1560(9) 0.0753(13)
O60_11 O 0.8899(4) 0.2060(6) 0.1101(4)
O61_11 O 0.9667(3) 0.2933(5) 0.0333(3)
C121_11 C 0.9207(4) 0.2910(7) 0.0793(4)
H50_11 H 0.9274 0.3100 0.0726
C122_11 C 0.8973(5) 0.2917(8) 0.1027(5)
C123_11 C 0.8999(5) 0.2325(8) 0.1001(5)
C124_11 C 0.8885(5) 0.2613(6) 0.1115(5)
H51_11 H 0.8736 0.2600 0.1264
C125_11 C 0.9351(6) 0.2651(6) 0.0649(6)
C126_11 C 0.9231(4) 0.2366(6) 0.0769(4)
H52_11 H 0.9314 0.2188 0.0686
C127_11 C 0.8827(5) 0.3179(8) 0.1173(5)
O64_11 O 0.9679(4) 0.2416(6) 0.0321(4)
C128_11 C 0.9594(8) 0.2672(6) 0.0406(8)
C129_11 C 0.9021(8) 0.1772(9) 0.0979(8)
H53_11 H 0.9238 0.1754 0.1017
C130_11 C 0.8837(8) 0.1523(11) 0.1163(8)
C131_11 C 0.8958(12) 0.1431(8) 0.1431(8)
C132_11 C 0.9247(13) 0.1560(9) 0.1560(9)
O65_11 O 0.8899(4) 0.1101(4) 0.2060(6)
O66_11 O 0.9667(3) 0.0333(3) 0.2933(5)
C133_11 C 0.9207(4) 0.0793(4) 0.2910(7)
H54_11 H 0.9274 0.0726 0.3100
C134_11 C 0.8973(5) 0.1027(5) 0.2917(8)
C135_11 C 0.8999(5) 0.1001(5) 0.2325(8)
C136_11 C 0.8885(5) 0.1115(5) 0.2613(6)
H55_11 H 0.8736 0.1264 0.2600
C137_11 C 0.9351(6) 0.0649(6) 0.2651(6)
C138_11 C 0.9231(4) 0.0769(4) 0.2366(6)
H56_11 H 0.9314 0.0686 0.2188
C139_11 C 0.8827(5) 0.1173(5) 0.3179(8)
O69_11 O 0.9679(4) 0.0321(4) 0.2416(6)
C140_11 C 0.9594(8) 0.0406(8) 0.2672(6)
C141_11 C 0.9021(8) 0.0979(8) 0.1772(9)
H57_11 H 0.8983 0.0762 0.1754
C142_11 C 0.8837(8) 0.1163(8) 0.1523(11)
C143_11 C 0.8569(8) 0.1042(12) 0.1431(8)
C144_11 C 0.8440(9) 0.0753(13) 0.1560(9)
H58_11 H 0.8246 0.0762 0.1017
H59_11 H 0.8983 0.1754 0.0762
H60_11 H 0.9238 0.1017 0.1754
Zn18_11 Zn 1.0000 -0.0000 0.23206(14)
Zn26_11 Zn 1.0000 -0.0000 0.30063(15)
H61_27 H 0.543312 0.188984 0.043312
H91_11 H 0.680466 0.159564 0.421993
H92_11 H 0.644967 0.177714 0.429737
H93_11 H 0.651956 0.140111 0.443402
H94_11 H 0.556598 0.140111 0.348044
H95_11 H 0.570263 0.177714 0.355033
H96_11 H 0.578007 0.159564 0.319534
H99_11 H 0.819534 0.159564 0.0780071
H100_11 H 0.855033 0.177714 0.0702632
H101_11 H 0.848044 0.140111 0.0565981
H104_11 H 0.848044 0.0565981 0.140111
H105_11 H 0.855033 0.0702632 0.177714
H106_11 H 0.819534 0.0780071 0.159564
H107_11 H 0.921993 0.180466 0.159564
H108_11 H 0.929737 0.144967 0.177714
H109_11 H 0.943402 0.151956 0.140111
O39_6 O 0.5000 1.0000 0.1514(8)
O42_6 O 0.5000 1.0000 0.3151(10)
Zn18_12 Zn 1.0000 1.0000 0.23206(14)
Zn26_12 Zn 1.0000 1.0000 0.30063(15)
O53_12 O 0.2060(6) 0.8899(4) 0.1101(4)
C109_12 C 0.2910(7) 0.9207(4) 0.0793(4)
H46_12 H 0.3100 0.9274 0.0726
C110_12 C 0.2917(8) 0.8973(5) 0.1027(5)
C111_12 C 0.2325(8) 0.8999(5) 0.1001(5)
C112_12 C 0.2613(6) 0.8885(5) 0.1115(5)
H47_12 H 0.2600 0.8736 0.1264
C113_12 C 0.2651(6) 0.9351(6) 0.0649(6)
C114_12 C 0.2366(6) 0.9231(4) 0.0769(4)
H48_12 H 0.2188 0.9314 0.0686
C115_12 C 0.3179(8) 0.8827(5) 0.1173(5)
C116_12 C 0.2672(6) 0.9594(8) 0.0406(8)
C117_12 C 0.1772(9) 0.9021(8) 0.0979(8)
H49_12 H 0.1754 0.8983 0.0762
C118_12 C 0.1523(11) 0.8837(8) 0.1163(8)
C119_12 C 0.1431(8) 0.8569(8) 0.1042(12)
C120_12 C 0.1560(9) 0.8440(9) 0.0753(13)
O60_12 O 0.1101(4) 0.7940(6) 0.1101(4)
O61_12 O 0.0333(3) 0.7067(5) 0.0333(3)
C121_12 C 0.0793(4) 0.7090(7) 0.0793(4)
H50_12 H 0.0726 0.6900 0.0726
C122_12 C 0.1027(5) 0.7083(8) 0.1027(5)
C123_12 C 0.1001(5) 0.7675(8) 0.1001(5)
C124_12 C 0.1115(5) 0.7387(6) 0.1115(5)
H51_12 H 0.1264 0.7400 0.1264
C125_12 C 0.0649(6) 0.7349(6) 0.0649(6)
C126_12 C 0.0769(4) 0.7634(6) 0.0769(4)
H52_12 H 0.0686 0.7812 0.0686
C127_12 C 0.1173(5) 0.6821(8) 0.1173(5)
O64_12 O 0.0321(4) 0.7584(6) 0.0321(4)
C128_12 C 0.0406(8) 0.7328(6) 0.0406(8)
C129_12 C 0.0979(8) 0.8228(9) 0.0979(8)
H53_12 H 0.0762 0.8246 0.1017
C130_12 C 0.1163(8) 0.8477(11) 0.1163(8)
C131_12 C 0.1042(12) 0.8569(8) 0.1431(8)
C132_12 C 0.0753(13) 0.8440(9) 0.1560(9)
O65_12 O 0.1101(4) 0.8899(4) 0.2060(6)
O66_12 O 0.0333(3) 0.9667(3) 0.2933(5)
C133_12 C 0.0793(4) 0.9207(4) 0.2910(7)
H54_12 H 0.0726 0.9274 0.3100
C134_12 C 0.1027(5) 0.8973(5) 0.2917(8)
C135_12 C 0.1001(5) 0.8999(5) 0.2325(8)
C136_12 C 0.1115(5) 0.8885(5) 0.2613(6)
H55_12 H 0.1264 0.8736 0.2600
C137_12 C 0.0649(6) 0.9351(6) 0.2651(6)
C138_12 C 0.0769(4) 0.9231(4) 0.2366(6)
H56_12 H 0.0686 0.9314 0.2188
C139_12 C 0.1173(5) 0.8827(5) 0.3179(8)
O69_12 O 0.0321(4) 0.9679(4) 0.2416(6)
C140_12 C 0.0406(8) 0.9594(8) 0.2672(6)
C141_12 C 0.0979(8) 0.9021(8) 0.1772(9)
H57_12 H 0.1017 0.9238 0.1754
C142_12 C 0.1163(8) 0.8837(8) 0.1523(11)
C143_12 C 0.1431(8) 0.8958(12) 0.1431(8)
C144_12 C 0.1560(9) 0.9247(13) 0.1560(9)
H58_12 H 0.1754 0.9238 0.1017
H59_12 H 0.1017 0.8246 0.0762
H60_12 H 0.0762 0.8983 0.1754
H61_28 H 0.456688 0.811016 0.043312
H91_12 H 0.319534 0.840436 0.421993
H92_12 H 0.355033 0.822286 0.429737
H93_12 H 0.348044 0.859889 0.443402
H94_12 H 0.443402 0.859889 0.348044
H95_12 H 0.429737 0.822286 0.355033
H96_12 H 0.421993 0.840436 0.319534
H99_12 H 0.180466 0.840436 0.0780071
H100_12 H 0.144967 0.822286 0.0702632
H101_12 H 0.151956 0.859889 0.0565981
H104_12 H 0.151956 0.943402 0.140111
H105_12 H 0.144967 0.929737 0.177714
H106_12 H 0.180466 0.921993 0.159564
H107_12 H 0.0780071 0.819534 0.159564
H108_12 H 0.0702632 0.855033 0.177714
H109_12 H 0.0565981 0.848044 0.140111
H61_29 H 0.456688 0.956688 0.188984
H61_30 H 0.456688 0.043312 0.811016
H61_31 H 0.543312 0.043312 0.188984
H61_32 H 0.543312 0.956688 0.811016
H61_33 H 0.688984 0.956688 0.956688
H61_34 H 0.311016 0.956688 0.043312
H61_35 H 0.688984 0.043312 0.043312
H61_36 H 0.311016 0.043312 0.956688
O21_5 O 0.7940(6) 0.1101(4) 0.8899(4)
C37_5 C 0.7090(7) 0.0793(4) 0.9207(4)
H16_5 H 0.6900 0.0726 0.9274
C38_5 C 0.7083(8) 0.1027(5) 0.8973(5)
C39_5 C 0.7675(8) 0.1001(5) 0.8999(5)
C40_5 C 0.7387(6) 0.1115(5) 0.8885(5)
H17_5 H 0.7400 0.1264 0.8736
C41_5 C 0.7349(6) 0.0649(6) 0.9351(6)
C42_5 C 0.7634(6) 0.0769(4) 0.9231(4)
H18_5 H 0.7812 0.0686 0.9314
C43_5 C 0.6821(8) 0.1173(5) 0.8827(5)
C44_5 C 0.7328(6) 0.0406(8) 0.9594(8)
C45_5 C 0.8228(9) 0.0979(8) 0.9021(8)
H19_5 H 0.8246 0.0762 0.8983
C46_5 C 0.8477(11) 0.1163(8) 0.8837(8)
C47_5 C 0.8569(8) 0.1042(12) 0.8569(8)
C48_5 C 0.8440(9) 0.0753(13) 0.8440(9)
O26_5 O 0.8899(4) 0.1101(4) 0.7940(6)
O27_5 O 0.9667(3) 0.0333(3) 0.7067(5)
C49_5 C 0.9207(4) 0.0793(4) 0.7090(7)
H20_5 H 0.9274 0.0726 0.6900
C50_5 C 0.8973(5) 0.1027(5) 0.7083(8)
C51_5 C 0.8999(5) 0.1001(5) 0.7675(8)
C52_5 C 0.8885(5) 0.1115(5) 0.7387(6)
H21_5 H 0.8736 0.1264 0.7400
C53_5 C 0.9351(6) 0.0649(6) 0.7349(6)
C54_5 C 0.9231(4) 0.0769(4) 0.7634(6)
H22_5 H 0.9314 0.0686 0.7812
C55_5 C 0.8827(5) 0.1173(5) 0.6821(8)
O30_5 O 0.9679(4) 0.0321(4) 0.7584(6)
C56_5 C 0.9594(8) 0.0406(8) 0.7328(6)
C57_5 C 0.9021(8) 0.0979(8) 0.8228(9)
H23_5 H 0.9238 0.1017 0.8246
C58_5 C 0.8837(8) 0.1163(8) 0.8477(11)
C59_5 C 0.8958(12) 0.1431(8) 0.8569(8)
C60_5 C 0.9247(13) 0.1560(9) 0.8440(9)
O31_5 O 0.8899(4) 0.2060(6) 0.8899(4)
O32_5 O 0.9667(3) 0.2933(5) 0.9667(3)
C61_5 C 0.9207(4) 0.2910(7) 0.9207(4)
H24_5 H 0.9274 0.3100 0.9274
C62_5 C 0.8973(5) 0.2917(8) 0.8973(5)
C63_5 C 0.8999(5) 0.2325(8) 0.8999(5)
C64_5 C 0.8885(5) 0.2613(6) 0.8885(5)
H25_5 H 0.8736 0.2600 0.8736
C65_5 C 0.9351(6) 0.2651(6) 0.9351(6)
C66_5 C 0.9231(4) 0.2366(6) 0.9231(4)
H26_5 H 0.9314 0.2188 0.9314
C67_5 C 0.8827(5) 0.3179(8) 0.8827(5)
O35_5 O 0.9679(4) 0.2416(6) 0.9679(4)
C68_5 C 0.9594(8) 0.2672(6) 0.9594(8)
C69_5 C 0.9021(8) 0.1772(9) 0.9021(8)
H27_5 H 0.8983 0.1754 0.9238
C70_5 C 0.8837(8) 0.1523(11) 0.8837(8)
C71_5 C 0.8569(8) 0.1431(8) 0.8958(12)
C72_5 C 0.8440(9) 0.1560(9) 0.9247(13)
H28_5 H 0.8246 0.1017 0.9238
H29_5 H 0.8983 0.0762 0.8246
H30_5 H 0.9238 0.1754 0.8983
H69_7 H 0.819534 0.0780071 0.840436
H70_7 H 0.855033 0.0702632 0.822286
H71_7 H 0.848044 0.0565981 0.859889
H81_5 H 0.921993 0.159564 0.819534
H82_5 H 0.929737 0.177714 0.855033
H83_5 H 0.943402 0.140111 0.848044
H84_7 H 0.848044 0.140111 0.943402
H85_7 H 0.855033 0.177714 0.929737
H86_7 H 0.819534 0.159564 0.921993
O4_5 O 0.7940(6) 0.8899(4) 0.1101(4)
C1_5 C 0.7090(7) 0.9207(4) 0.0793(4)
H1_5 H 0.6900 0.9274 0.0726
C2_5 C 0.7083(8) 0.8973(5) 0.1027(5)
C3_5 C 0.7675(8) 0.8999(5) 0.1001(5)
C4_5 C 0.7387(6) 0.8885(5) 0.1115(5)
H2_5 H 0.7400 0.8736 0.1264
C5_5 C 0.7349(6) 0.9351(6) 0.0649(6)
C6_5 C 0.7634(6) 0.9231(4) 0.0769(4)
H3_5 H 0.7812 0.9314 0.0686
C7_5 C 0.6821(8) 0.8827(5) 0.1173(5)
C8_5 C 0.7328(6) 0.9594(8) 0.0406(8)
C9_5 C 0.8228(9) 0.9021(8) 0.0979(8)
H4_5 H 0.8246 0.9238 0.1017
C10_5 C 0.8477(11) 0.8837(8) 0.1163(8)
C11_5 C 0.8569(8) 0.8958(12) 0.1431(8)
C12_5 C 0.8440(9) 0.9247(13) 0.1560(9)
O11_5 O 0.8899(4) 0.8899(4) 0.2060(6)
O12_5 O 0.9667(3) 0.9667(3) 0.2933(5)
C13_5 C 0.9207(4) 0.9207(4) 0.2910(7)
H5_5 H 0.9274 0.9274 0.3100
C14_5 C 0.8973(5) 0.8973(5) 0.2917(8)
C15_5 C 0.8999(5) 0.8999(5) 0.2325(8)
C16_5 C 0.8885(5) 0.8885(5) 0.2613(6)
H6_5 H 0.8736 0.8736 0.2600
C17_5 C 0.9351(6) 0.9351(6) 0.2651(6)
C18_5 C 0.9231(4) 0.9231(4) 0.2366(6)
H7_5 H 0.9314 0.9314 0.2188
C19_5 C 0.8827(5) 0.8827(5) 0.3179(8)
O15_5 O 0.9679(4) 0.9679(4) 0.2416(6)
C20_5 C 0.9594(8) 0.9594(8) 0.2672(6)
C21_5 C 0.9021(8) 0.9021(8) 0.1772(9)
H8_5 H 0.9238 0.8983 0.1754
C22_5 C 0.8837(8) 0.8837(8) 0.1523(11)
C23_5 C 0.8958(12) 0.8569(8) 0.1431(8)
C24_5 C 0.9247(13) 0.8440(9) 0.1560(9)
O16_5 O 0.8899(4) 0.7940(6) 0.1101(4)
O17_5 O 0.9667(3) 0.7067(5) 0.0333(3)
C25_5 C 0.9207(4) 0.7090(7) 0.0793(4)
H9_5 H 0.9274 0.6900 0.0726
C26_5 C 0.8973(5) 0.7083(8) 0.1027(5)
C27_5 C 0.8999(5) 0.7675(8) 0.1001(5)
C28_5 C 0.8885(5) 0.7387(6) 0.1115(5)
H10_5 H 0.8736 0.7400 0.1264
C29_5 C 0.9351(6) 0.7349(6) 0.0649(6)
C30_5 C 0.9231(4) 0.7634(6) 0.0769(4)
H11_5 H 0.9314 0.7812 0.0686
C31_5 C 0.8827(5) 0.6821(8) 0.1173(5)
O20_5 O 0.9679(4) 0.7584(6) 0.0321(4)
C32_5 C 0.9594(8) 0.7328(6) 0.0406(8)
C33_5 C 0.9021(8) 0.8228(9) 0.0979(8)
H12_5 H 0.8983 0.8246 0.0762
C34_5 C 0.8837(8) 0.8477(11) 0.1163(8)
C35_5 C 0.8569(8) 0.8569(8) 0.1042(12)
C36_5 C 0.8440(9) 0.8440(9) 0.0753(13)
H13_5 H 0.8246 0.8983 0.0762
H14_5 H 0.8983 0.9238 0.1754
H15_5 H 0.9238 0.8246 0.1017
H61_37 H 0.688984 0.956688 0.043312
H62_7 H 0.819534 0.921993 0.159564
H63_7 H 0.855033 0.929737 0.177714
H64_7 H 0.848044 0.943402 0.140111
H72_5 H 0.921993 0.840436 0.180466
H73_5 H 0.929737 0.822286 0.144967
H74_5 H 0.943402 0.859889 0.151956
H75_7 H 0.848044 0.859889 0.0565981
H76_7 H 0.855033 0.822286 0.0702632
H77_7 H 0.819534 0.840436 0.0780071
H78_9 H 0.578007 0.840436 0.319534
H79_9 H 0.570263 0.822286 0.355033
H80_9 H 0.556598 0.859889 0.348044
H94_13 H 0.640111 0.943402 0.348044
H95_13 H 0.677714 0.929737 0.355033
H96_13 H 0.659564 0.921993 0.319534
H104_13 H 0.556598 0.651956 0.140111
H105_13 H 0.570263 0.644967 0.177714
H106_13 H 0.578007 0.680466 0.159564
H107_13 H 0.680466 0.578007 0.159564
H108_13 H 0.644967 0.570263 0.177714
H109_13 H 0.651956 0.556598 0.140111
O4_6 O 0.2060(6) 0.1101(4) 0.1101(4)
C1_6 C 0.2910(7) 0.0793(4) 0.0793(4)
H1_6 H 0.3100 0.0726 0.0726
C2_6 C 0.2917(8) 0.1027(5) 0.1027(5)
C3_6 C 0.2325(8) 0.1001(5) 0.1001(5)
C4_6 C 0.2613(6) 0.1115(5) 0.1115(5)
H2_6 H 0.2600 0.1264 0.1264
C5_6 C 0.2651(6) 0.0649(6) 0.0649(6)
C6_6 C 0.2366(6) 0.0769(4) 0.0769(4)
H3_6 H 0.2188 0.0686 0.0686
C7_6 C 0.3179(8) 0.1173(5) 0.1173(5)
C8_6 C 0.2672(6) 0.0406(8) 0.0406(8)
C9_6 C 0.1772(9) 0.0979(8) 0.0979(8)
H4_6 H 0.1754 0.0762 0.1017
C10_6 C 0.1523(11) 0.1163(8) 0.1163(8)
C11_6 C 0.1431(8) 0.1042(12) 0.1431(8)
C12_6 C 0.1560(9) 0.0753(13) 0.1560(9)
O11_6 O 0.1101(4) 0.1101(4) 0.2060(6)
O12_6 O 0.0333(3) 0.0333(3) 0.2933(5)
C13_6 C 0.0793(4) 0.0793(4) 0.2910(7)
H5_6 H 0.0726 0.0726 0.3100
C14_6 C 0.1027(5) 0.1027(5) 0.2917(8)
C15_6 C 0.1001(5) 0.1001(5) 0.2325(8)
C16_6 C 0.1115(5) 0.1115(5) 0.2613(6)
H6_6 H 0.1264 0.1264 0.2600
C17_6 C 0.0649(6) 0.0649(6) 0.2651(6)
C18_6 C 0.0769(4) 0.0769(4) 0.2366(6)
H7_6 H 0.0686 0.0686 0.2188
C19_6 C 0.1173(5) 0.1173(5) 0.3179(8)
O15_6 O 0.0321(4) 0.0321(4) 0.2416(6)
C20_6 C 0.0406(8) 0.0406(8) 0.2672(6)
C21_6 C 0.0979(8) 0.0979(8) 0.1772(9)
H8_6 H 0.0762 0.1017 0.1754
C22_6 C 0.1163(8) 0.1163(8) 0.1523(11)
C23_6 C 0.1042(12) 0.1431(8) 0.1431(8)
C24_6 C 0.0753(13) 0.1560(9) 0.1560(9)
O16_6 O 0.1101(4) 0.2060(6) 0.1101(4)
O17_6 O 0.0333(3) 0.2933(5) 0.0333(3)
C25_6 C 0.0793(4) 0.2910(7) 0.0793(4)
H9_6 H 0.0726 0.3100 0.0726
C26_6 C 0.1027(5) 0.2917(8) 0.1027(5)
C27_6 C 0.1001(5) 0.2325(8) 0.1001(5)
C28_6 C 0.1115(5) 0.2613(6) 0.1115(5)
H10_6 H 0.1264 0.2600 0.1264
C29_6 C 0.0649(6) 0.2651(6) 0.0649(6)
C30_6 C 0.0769(4) 0.2366(6) 0.0769(4)
H11_6 H 0.0686 0.2188 0.0686
C31_6 C 0.1173(5) 0.3179(8) 0.1173(5)
O20_6 O 0.0321(4) 0.2416(6) 0.0321(4)
C32_6 C 0.0406(8) 0.2672(6) 0.0406(8)
C33_6 C 0.0979(8) 0.1772(9) 0.0979(8)
H12_6 H 0.1017 0.1754 0.0762
C34_6 C 0.1163(8) 0.1523(11) 0.1163(8)
C35_6 C 0.1431(8) 0.1431(8) 0.1042(12)
C36_6 C 0.1560(9) 0.1560(9) 0.0753(13)
H13_6 H 0.1754 0.1017 0.0762
H14_6 H 0.1017 0.0762 0.1754
H15_6 H 0.0762 0.1754 0.1017
H61_38 H 0.311016 0.043312 0.043312
H62_8 H 0.180466 0.0780071 0.159564
H63_8 H 0.144967 0.0702632 0.177714
H64_8 H 0.151956 0.0565981 0.140111
H72_6 H 0.0780071 0.159564 0.180466
H73_6 H 0.0702632 0.177714 0.144967
H74_6 H 0.0565981 0.140111 0.151956
H75_8 H 0.151956 0.140111 0.0565981
H76_8 H 0.144967 0.177714 0.0702632
H77_8 H 0.180466 0.159564 0.0780071
H78_10 H 0.421993 0.159564 0.319534
H79_10 H 0.429737 0.177714 0.355033
H80_10 H 0.443402 0.140111 0.348044
H94_14 H 0.359889 0.0565981 0.348044
H95_14 H 0.322286 0.0702632 0.355033
H96_14 H 0.340436 0.0780071 0.319534
H104_14 H 0.443402 0.348044 0.140111
H105_14 H 0.429737 0.355033 0.177714
H106_14 H 0.421993 0.319534 0.159564
H107_14 H 0.319534 0.421993 0.159564
H108_14 H 0.355033 0.429737 0.177714
H109_14 H 0.348044 0.443402 0.140111
O21_6 O 0.2060(6) 0.8899(4) 0.8899(4)
C37_6 C 0.2910(7) 0.9207(4) 0.9207(4)
H16_6 H 0.3100 0.9274 0.9274
C38_6 C 0.2917(8) 0.8973(5) 0.8973(5)
C39_6 C 0.2325(8) 0.8999(5) 0.8999(5)
C40_6 C 0.2613(6) 0.8885(5) 0.8885(5)
H17_6 H 0.2600 0.8736 0.8736
C41_6 C 0.2651(6) 0.9351(6) 0.9351(6)
C42_6 C 0.2366(6) 0.9231(4) 0.9231(4)
H18_6 H 0.2188 0.9314 0.9314
C43_6 C 0.3179(8) 0.8827(5) 0.8827(5)
C44_6 C 0.2672(6) 0.9594(8) 0.9594(8)
C45_6 C 0.1772(9) 0.9021(8) 0.9021(8)
H19_6 H 0.1754 0.9238 0.8983
C46_6 C 0.1523(11) 0.8837(8) 0.8837(8)
C47_6 C 0.1431(8) 0.8958(12) 0.8569(8)
C48_6 C 0.1560(9) 0.9247(13) 0.8440(9)
O26_6 O 0.1101(4) 0.8899(4) 0.7940(6)
O27_6 O 0.0333(3) 0.9667(3) 0.7067(5)
C49_6 C 0.0793(4) 0.9207(4) 0.7090(7)
H20_6 H 0.0726 0.9274 0.6900
C50_6 C 0.1027(5) 0.8973(5) 0.7083(8)
C51_6 C 0.1001(5) 0.8999(5) 0.7675(8)
C52_6 C 0.1115(5) 0.8885(5) 0.7387(6)
H21_6 H 0.1264 0.8736 0.7400
C53_6 C 0.0649(6) 0.9351(6) 0.7349(6)
C54_6 C 0.0769(4) 0.9231(4) 0.7634(6)
H22_6 H 0.0686 0.9314 0.7812
C55_6 C 0.1173(5) 0.8827(5) 0.6821(8)
O30_6 O 0.0321(4) 0.9679(4) 0.7584(6)
C56_6 C 0.0406(8) 0.9594(8) 0.7328(6)
C57_6 C 0.0979(8) 0.9021(8) 0.8228(9)
H23_6 H 0.0762 0.8983 0.8246
C58_6 C 0.1163(8) 0.8837(8) 0.8477(11)
C59_6 C 0.1042(12) 0.8569(8) 0.8569(8)
C60_6 C 0.0753(13) 0.8440(9) 0.8440(9)
O31_6 O 0.1101(4) 0.7940(6) 0.8899(4)
O32_6 O 0.0333(3) 0.7067(5) 0.9667(3)
C61_6 C 0.0793(4) 0.7090(7) 0.9207(4)
H24_6 H 0.0726 0.6900 0.9274
C62_6 C 0.1027(5) 0.7083(8) 0.8973(5)
C63_6 C 0.1001(5) 0.7675(8) 0.8999(5)
C64_6 C 0.1115(5) 0.7387(6) 0.8885(5)
H25_6 H 0.1264 0.7400 0.8736
C65_6 C 0.0649(6) 0.7349(6) 0.9351(6)
C66_6 C 0.0769(4) 0.7634(6) 0.9231(4)
H26_6 H 0.0686 0.7812 0.9314
C67_6 C 0.1173(5) 0.6821(8) 0.8827(5)
O35_6 O 0.0321(4) 0.7584(6) 0.9679(4)
C68_6 C 0.0406(8) 0.7328(6) 0.9594(8)
C69_6 C 0.0979(8) 0.8228(9) 0.9021(8)
H27_6 H 0.1017 0.8246 0.9238
C70_6 C 0.1163(8) 0.8477(11) 0.8837(8)
C71_6 C 0.1431(8) 0.8569(8) 0.8958(12)
C72_6 C 0.1560(9) 0.8440(9) 0.9247(13)
H28_6 H 0.1754 0.8983 0.9238
H29_6 H 0.1017 0.9238 0.8246
H30_6 H 0.0762 0.8246 0.8983
H69_8 H 0.180466 0.921993 0.840436
H70_8 H 0.144967 0.929737 0.822286
H71_8 H 0.151956 0.943402 0.859889
H81_6 H 0.0780071 0.840436 0.819534
H82_6 H 0.0702632 0.822286 0.855033
H83_6 H 0.0565981 0.859889 0.848044
H84_8 H 0.151956 0.859889 0.943402
H85_8 H 0.144967 0.822286 0.929737
H86_8 H 0.180466 0.840436 0.921993
H61_39 H 0.688984 0.043312 0.956688
H78_11 H 0.578007 0.159564 0.680466
H79_11 H 0.570263 0.177714 0.644967
H80_11 H 0.556598 0.140111 0.651956
H94_15 H 0.640111 0.0565981 0.651956
H95_15 H 0.677714 0.0702632 0.644967
H96_15 H 0.659564 0.0780071 0.680466
H104_15 H 0.556598 0.348044 0.859889
H105_15 H 0.570263 0.355033 0.822286
H106_15 H 0.578007 0.319534 0.840436
H107_15 H 0.680466 0.421993 0.840436
H108_15 H 0.644967 0.429737 0.822286
H109_15 H 0.651956 0.443402 0.859889
H61_40 H 0.311016 0.956688 0.956688
H78_12 H 0.421993 0.840436 0.680466
H79_12 H 0.429737 0.822286 0.644967
H80_12 H 0.443402 0.859889 0.651956
H94_16 H 0.359889 0.943402 0.651956
H95_16 H 0.322286 0.929737 0.644967
H96_16 H 0.340436 0.921993 0.680466
H104_16 H 0.443402 0.651956 0.859889
H105_16 H 0.429737 0.644967 0.822286
H106_16 H 0.421993 0.680466 0.840436
H107_16 H 0.319534 0.578007 0.840436
H108_16 H 0.355033 0.570263 0.822286
H109_16 H 0.348044 0.556598 0.859889
H61_41 H 0.456688 0.956688 0.811016
H61_42 H 0.543312 0.956688 0.188984
H61_43 H 0.543312 0.043312 0.811016
H61_44 H 0.456688 0.043312 0.188984
H61_45 H 0.456688 0.188984 0.043312
H61_46 H 0.456688 0.811016 0.956688
H61_47 H 0.543312 0.188984 0.956688
H61_48 H 0.543312 0.811016 0.043312
O7_7 O -0.0000 0.6514(8) 0.0000
O10_7 O 0.0000 0.8151(10) 0.0000
H81_7 H 0.159564 0.921993 0.180466
H82_7 H 0.177714 0.929737 0.144967
H83_7 H 0.140111 0.943402 0.151956
H84_9 H 0.140111 0.848044 0.0565981
H85_9 H 0.177714 0.855033 0.0702632
H86_9 H 0.159564 0.819534 0.0780071
O7_8 O -0.0000 0.6514(8) 1.0000
O10_8 O 0.0000 0.8151(10) 1.0000
O39_7 O -0.0000 0.5000 0.8486(8)
O42_7 O -0.0000 0.5000 0.6849(10)
O7_9 O 1.0000 0.6514(8) 0.0000
O10_9 O 1.0000 0.8151(10) 0.0000
O56_11 O 0.8486(8) 0.5000 0.0000
O59_11 O 0.6849(10) 0.5000 0.0000
O7_10 O 1.0000 0.6514(8) 1.0000
O10_10 O 1.0000 0.8151(10) 1.0000
O39_8 O 1.0000 0.5000 0.8486(8)
O42_8 O 1.0000 0.5000 0.6849(10)
O56_12 O 0.8486(8) 0.5000 1.0000
O59_12 O 0.6849(10) 0.5000 1.0000
H61_49 H 0.956688 0.688984 0.956688
H72_7 H 0.840436 0.921993 0.819534
H73_7 H 0.822286 0.929737 0.855033
H74_7 H 0.859889 0.943402 0.848044
H75_9 H 0.859889 0.848044 0.943402
H76_9 H 0.822286 0.855033 0.929737
H77_9 H 0.840436 0.819534 0.921993
H78_13 H 0.840436 0.578007 0.680466
H79_13 H 0.822286 0.570263 0.644967
H80_13 H 0.859889 0.556598 0.651956
H94_17 H 0.943402 0.640111 0.651956
H95_17 H 0.929737 0.677714 0.644967
H96_17 H 0.921993 0.659564 0.680466
H104_17 H 0.651956 0.556598 0.859889
H105_17 H 0.644967 0.570263 0.822286
H106_17 H 0.680466 0.578007 0.840436
O7_11 O 0.0000 0.3486(8) 0.0000
O10_11 O -0.0000 0.1849(10) 0.0000
O56_13 O 0.1514(8) 0.5000 0.0000
O59_13 O 0.3151(10) 0.5000 0.0000
O7_12 O 0.0000 0.3486(8) 1.0000
O10_12 O -0.0000 0.1849(10) 1.0000
O56_14 O 0.1514(8) 0.5000 1.0000
O59_14 O 0.3151(10) 0.5000 1.0000
H61_50 H 0.043312 0.311016 0.956688
H72_8 H 0.159564 0.0780071 0.819534
H73_8 H 0.177714 0.0702632 0.855033
H74_8 H 0.140111 0.0565981 0.848044
H75_10 H 0.140111 0.151956 0.943402
H76_10 H 0.177714 0.144967 0.929737
H77_10 H 0.159564 0.180466 0.921993
H78_14 H 0.159564 0.421993 0.680466
H79_14 H 0.177714 0.429737 0.644967
H80_14 H 0.140111 0.443402 0.651956
H94_18 H 0.0565981 0.359889 0.651956
H95_18 H 0.0702632 0.322286 0.644967
H96_18 H 0.0780071 0.340436 0.680466
H104_18 H 0.348044 0.443402 0.859889
H105_18 H 0.355033 0.429737 0.822286
H106_18 H 0.319534 0.421993 0.840436
O7_13 O 1.0000 0.3486(8) 0.0000
O10_13 O 1.0000 0.1849(10) 0.0000
H81_8 H 0.840436 0.0780071 0.180466
H82_8 H 0.822286 0.0702632 0.144967
H83_8 H 0.859889 0.0565981 0.151956
H84_10 H 0.859889 0.151956 0.0565981
H85_10 H 0.822286 0.144967 0.0702632
H86_10 H 0.840436 0.180466 0.0780071
O7_14 O 1.0000 0.3486(8) 1.0000
O10_14 O 1.0000 0.1849(10) 1.0000
O39_9 O 0.0000 0.5000 0.1514(8)
O42_9 O 0.0000 0.5000 0.3151(10)
H61_51 H 0.043312 0.688984 0.043312
H78_15 H 0.159564 0.578007 0.319534
H79_15 H 0.177714 0.570263 0.355033
H80_15 H 0.140111 0.556598 0.348044
H94_19 H 0.0565981 0.640111 0.348044
H95_19 H 0.0702632 0.677714 0.355033
H96_19 H 0.0780071 0.659564 0.319534
H104_19 H 0.348044 0.556598 0.140111
H105_19 H 0.355033 0.570263 0.177714
H106_19 H 0.319534 0.578007 0.159564
O39_10 O 1.0000 0.5000 0.1514(8)
O42_10 O 1.0000 0.5000 0.3151(10)
H61_52 H 0.956688 0.311016 0.043312
H78_16 H 0.840436 0.421993 0.319534
H79_16 H 0.822286 0.429737 0.355033
H80_16 H 0.859889 0.443402 0.348044
H94_20 H 0.943402 0.359889 0.348044
H95_20 H 0.929737 0.322286 0.355033
H96_20 H 0.921993 0.340436 0.319534
H104_20 H 0.651956 0.443402 0.140111
H105_20 H 0.644967 0.429737 0.177714
H106_20 H 0.680466 0.421993 0.159564
H61_53 H 0.956688 0.456688 0.188984
H61_54 H 0.956688 0.543312 0.811016
H61_55 H 0.043312 0.543312 0.188984
H61_56 H 0.043312 0.456688 0.811016
H61_57 H 0.188984 0.456688 0.956688
H61_58 H 0.811016 0.456688 0.043312
H61_59 H 0.188984 0.543312 0.043312
H61_60 H 0.811016 0.543312 0.956688
H61_61 H 0.188984 0.456688 0.043312
H75_11 H 0.348044 0.359889 0.0565981
H76_11 H 0.355033 0.322286 0.0702632
H77_11 H 0.319534 0.340436 0.0780071
H91_13 H 0.159564 0.319534 0.421993
H92_13 H 0.177714 0.355033 0.429737
H93_13 H 0.140111 0.348044 0.443402
H94_21 H 0.140111 0.443402 0.348044
H95_21 H 0.177714 0.429737 0.355033
H96_21 H 0.159564 0.421993 0.319534
H99_13 H 0.159564 0.180466 0.0780071
H100_13 H 0.177714 0.144967 0.0702632
H101_13 H 0.140111 0.151956 0.0565981
H104_21 H 0.0565981 0.151956 0.140111
H105_21 H 0.0702632 0.144967 0.177714
H106_21 H 0.0780071 0.180466 0.159564
H84_11 H 0.348044 0.640111 0.943402
H85_11 H 0.355033 0.677714 0.929737
H86_11 H 0.319534 0.659564 0.921993
H61_62 H 0.811016 0.543312 0.043312
H75_12 H 0.651956 0.640111 0.0565981
H76_12 H 0.644967 0.677714 0.0702632
H77_12 H 0.680466 0.659564 0.0780071
H91_14 H 0.840436 0.680466 0.421993
H92_14 H 0.822286 0.644967 0.429737
H93_14 H 0.859889 0.651956 0.443402
H94_22 H 0.859889 0.556598 0.348044
H95_22 H 0.822286 0.570263 0.355033
H96_22 H 0.840436 0.578007 0.319534
H99_14 H 0.840436 0.819534 0.0780071
H100_14 H 0.822286 0.855033 0.0702632
H101_14 H 0.859889 0.848044 0.0565981
H104_22 H 0.943402 0.848044 0.140111
H105_22 H 0.929737 0.855033 0.177714
H106_22 H 0.921993 0.819534 0.159564
H84_12 H 0.651956 0.359889 0.943402
H85_12 H 0.644967 0.322286 0.929737
H86_12 H 0.680466 0.340436 0.921993
H61_63 H 0.188984 0.543312 0.956688
H91_15 H 0.159564 0.680466 0.578007
H92_15 H 0.177714 0.644967 0.570263
H93_15 H 0.140111 0.651956 0.556598
H94_23 H 0.140111 0.556598 0.651956
H95_23 H 0.177714 0.570263 0.644967
H96_23 H 0.159564 0.578007 0.680466
H99_15 H 0.159564 0.819534 0.921993
H100_15 H 0.177714 0.855033 0.929737
H101_15 H 0.140111 0.848044 0.943402
H104_23 H 0.0565981 0.848044 0.859889
H105_23 H 0.0702632 0.855033 0.822286
H106_23 H 0.0780071 0.819534 0.840436
H61_64 H 0.811016 0.456688 0.956688
H91_16 H 0.840436 0.319534 0.578007
H92_16 H 0.822286 0.355033 0.570263
H93_16 H 0.859889 0.348044 0.556598
H94_24 H 0.859889 0.443402 0.651956
H95_24 H 0.822286 0.429737 0.644967
H96_24 H 0.840436 0.421993 0.680466
H99_16 H 0.840436 0.180466 0.921993
H100_16 H 0.822286 0.144967 0.929737
H101_16 H 0.859889 0.151956 0.943402
H104_24 H 0.943402 0.151956 0.859889
H105_24 H 0.929737 0.144967 0.822286
H106_24 H 0.921993 0.180466 0.840436
H61_65 H 0.956688 0.456688 0.811016
H61_66 H 0.043312 0.456688 0.188984
H61_67 H 0.043312 0.543312 0.811016
H61_68 H 0.956688 0.543312 0.188984
H61_69 H 0.956688 0.688984 0.043312
H61_70 H 0.956688 0.311016 0.956688
H61_71 H 0.043312 0.688984 0.956688
H61_72 H 0.043312 0.311016 0.043312
O7_15 O -0.0000 0.1514(8) 0.5000
O10_15 O 0.0000 0.3151(10) 0.5000
O39_11 O -0.0000 0.0000 0.3486(8)
O42_11 O -0.0000 -0.0000 0.1849(10)
H84_13 H 0.140111 0.348044 0.556598
H85_13 H 0.177714 0.355033 0.570263
H86_13 H 0.159564 0.319534 0.578007
O39_12 O -0.0000 1.0000 0.3486(8)
O42_12 O -0.0000 1.0000 0.1849(10)
O7_16 O 1.0000 0.1514(8) 0.5000
O10_16 O 1.0000 0.3151(10) 0.5000
O39_13 O 1.0000 0.0000 0.3486(8)
O42_13 O 1.0000 -0.0000 0.1849(10)
O56_15 O 0.8486(8) -0.0000 0.5000
O59_15 O 0.6849(10) -0.0000 0.5000
H61_73 H 0.956688 0.188984 0.456688
H75_13 H 0.859889 0.348044 0.443402
H76_13 H 0.822286 0.355033 0.429737
H77_13 H 0.840436 0.319534 0.421993
H94_25 H 0.943402 0.140111 0.151956
H95_25 H 0.929737 0.177714 0.144967
H96_25 H 0.921993 0.159564 0.180466
H104_25 H 0.651956 0.0565981 0.359889
H105_25 H 0.644967 0.0702632 0.322286
H106_25 H 0.680466 0.0780071 0.340436
O39_14 O 1.0000 1.0000 0.3486(8)
O42_14 O 1.0000 1.0000 0.1849(10)
O56_16 O 0.8486(8) 1.0000 0.5000
O59_16 O 0.6849(10) 1.0000 0.5000
O56_17 O 0.1514(8) 0.0000 0.5000
O59_17 O 0.3151(10) 0.0000 0.5000
O7_17 O 0.0000 0.8486(8) 0.5000
O10_17 O -0.0000 0.6849(10) 0.5000
O56_18 O 0.1514(8) 1.0000 0.5000
O59_18 O 0.3151(10) 1.0000 0.5000
H61_74 H 0.043312 0.811016 0.456688
H75_14 H 0.140111 0.651956 0.443402
H76_14 H 0.177714 0.644967 0.429737
H77_14 H 0.159564 0.680466 0.421993
H94_26 H 0.0565981 0.859889 0.151956
H95_26 H 0.0702632 0.822286 0.144967
H96_26 H 0.0780071 0.840436 0.180466
H104_26 H 0.348044 0.943402 0.359889
H105_26 H 0.355033 0.929737 0.322286
H106_26 H 0.319534 0.921993 0.340436
O7_18 O 1.0000 0.8486(8) 0.5000
O10_18 O 1.0000 0.6849(10) 0.5000
H84_14 H 0.859889 0.651956 0.556598
H85_14 H 0.822286 0.644967 0.570263
H86_14 H 0.840436 0.680466 0.578007
O39_15 O 0.0000 -0.0000 0.6514(8)
O42_15 O 0.0000 -0.0000 0.8151(10)
H61_75 H 0.043312 0.188984 0.543312
H94_27 H 0.0565981 0.140111 0.848044
H95_27 H 0.0702632 0.177714 0.855033
H96_27 H 0.0780071 0.159564 0.819534
H104_27 H 0.348044 0.0565981 0.640111
H105_27 H 0.355033 0.0702632 0.677714
H106_27 H 0.319534 0.0780071 0.659564
O39_16 O 0.0000 1.0000 0.6514(8)
O42_16 O 0.0000 1.0000 0.8151(10)
O39_17 O 1.0000 -0.0000 0.6514(8)
O42_17 O 1.0000 -0.0000 0.8151(10)
O39_18 O 1.0000 1.0000 0.6514(8)
O42_18 O 1.0000 1.0000 0.8151(10)
H61_76 H 0.956688 0.811016 0.543312
H94_28 H 0.943402 0.859889 0.848044
H95_28 H 0.929737 0.822286 0.855033
H96_28 H 0.921993 0.840436 0.819534
H104_28 H 0.651956 0.943402 0.640111
H105_28 H 0.644967 0.929737 0.677714
H106_28 H 0.680466 0.921993 0.659564
H61_77 H 0.956688 0.956688 0.688984
H61_78 H 0.956688 0.043312 0.311016
H61_79 H 0.043312 0.043312 0.688984
H61_80 H 0.043312 0.956688 0.311016
H61_81 H 0.188984 0.956688 0.456688
H61_82 H 0.811016 0.956688 0.543312
H61_83 H 0.188984 0.043312 0.543312
H61_84 H 0.811016 0.043312 0.456688
H84_15 H 0.348044 0.140111 0.443402
H85_15 H 0.355033 0.177714 0.429737
H86_15 H 0.319534 0.159564 0.421993
H61_85 H 0.188984 0.956688 0.543312
H75_15 H 0.348044 0.859889 0.556598
H76_15 H 0.355033 0.822286 0.570263
H77_15 H 0.319534 0.840436 0.578007
H94_29 H 0.140111 0.943402 0.848044
H95_29 H 0.177714 0.929737 0.855033
H96_29 H 0.159564 0.921993 0.819534
H104_29 H 0.0565981 0.651956 0.640111
H105_29 H 0.0702632 0.644967 0.677714
H106_29 H 0.0780071 0.680466 0.659564
H61_86 H 0.811016 0.043312 0.543312
H75_16 H 0.651956 0.140111 0.556598
H76_16 H 0.644967 0.177714 0.570263
H77_16 H 0.680466 0.159564 0.578007
H94_30 H 0.859889 0.0565981 0.848044
H95_30 H 0.822286 0.0702632 0.855033
H96_30 H 0.840436 0.0780071 0.819534
H104_30 H 0.943402 0.348044 0.640111
H105_30 H 0.929737 0.355033 0.677714
H106_30 H 0.921993 0.319534 0.659564
H84_16 H 0.651956 0.859889 0.443402
H85_16 H 0.644967 0.822286 0.429737
H86_16 H 0.680466 0.840436 0.421993
H61_87 H 0.188984 0.043312 0.456688
H94_31 H 0.140111 0.0565981 0.151956
H95_31 H 0.177714 0.0702632 0.144967
H96_31 H 0.159564 0.0780071 0.180466
H104_31 H 0.0565981 0.348044 0.359889
H105_31 H 0.0702632 0.355033 0.322286
H106_31 H 0.0780071 0.319534 0.340436
H61_88 H 0.811016 0.956688 0.456688
H94_32 H 0.859889 0.943402 0.151956
H95_32 H 0.822286 0.929737 0.144967
H96_32 H 0.840436 0.921993 0.180466
H104_32 H 0.943402 0.651956 0.359889
H105_32 H 0.929737 0.644967 0.322286
H106_32 H 0.921993 0.680466 0.340436
H61_89 H 0.956688 0.956688 0.311016
H61_90 H 0.043312 0.956688 0.688984
H61_91 H 0.043312 0.043312 0.311016
H61_92 H 0.956688 0.043312 0.688984
H61_93 H 0.956688 0.188984 0.543312
H61_94 H 0.956688 0.811016 0.456688
H61_95 H 0.043312 0.188984 0.456688
H61_96 H 0.043312 0.811016 0.543312
loop_
_geom_bond_atom_site_label_1
_geom_bond_atom_site_label_2
_geom_bond_site_symmetry_1
_geom_bond_site_symmetry_2
O1 N1 1_555 1_555
O2 N1 1_555 1_555
O3 N1 1_555 1_555
O1_2 N1_2 1_555 1_555
O2_2 N1_2 1_555 1_555
O3_2 N1_2 1_555 1_555
O1_3 N1_3 1_555 1_555
O2_3 N1_3 1_555 1_555
O3_3 N1_3 1_555 1_555
O1_4 N1_4 1_555 1_555
O2_4 N1_4 1_555 1_555
O3_4 N1_4 1_555 1_555
O1_5 N1_5 1_555 1_555
O2_5 N1_5 1_555 1_555
O3_5 N1_5 1_555 1_555
O1_6 N1_6 1_555 1_555
O2_6 N1_6 1_555 1_555
O3_6 N1_6 1_555 1_555
O1_7 N1_7 1_555 1_555
O2_7 N1_7 1_555 1_555
O3_7 N1_7 1_555 1_555
O1_8 N1_8 1_555 1_555
O2_8 N1_8 1_555 1_555
O3_8 N1_8 1_555 1_555
O1_9 N1_9 1_555 1_555
O2_9 N1_9 1_555 1_555
O3_9 N1_9 1_555 1_555
O1_10 N1_10 1_555 1_555
O2_10 N1_10 1_555 1_555
O3_10 N1_10 1_555 1_555
O1_11 N1_11 1_555 1_555
O2_11 N1_11 1_555 1_555
O3_11 N1_11 1_555 1_555
O1_12 N1_12 1_555 1_555
O2_12 N1_12 1_555 1_555
O3_12 N1_12 1_555 1_555
O1_13 N1_13 1_555 1_555
O2_13 N1_13 1_555 1_555
O3_13 N1_13 1_555 1_555
O1_14 N1_14 1_555 1_555
O2_14 N1_14 1_555 1_555
O3_14 N1_14 1_555 1_555
O1_15 N1_15 1_555 1_555
O2_15 N1_15 1_555 1_555
O3_15 N1_15 1_555 1_555
O1_16 N1_16 1_555 1_555
O2_16 N1_16 1_555 1_555
O3_16 N1_16 1_555 1_555
O1_17 N1_17 1_555 1_555
O2_17 N1_17 1_555 1_555
O3_17 N1_17 1_555 1_555
O1_18 N1_18 1_555 1_555
O2_18 N1_18 1_555 1_555
O3_18 N1_18 1_555 1_555
O1_19 N1_19 1_555 1_555
O2_19 N1_19 1_555 1_555
O3_19 N1_19 1_555 1_555
O1_20 N1_20 1_555 1_555
O2_20 N1_20 1_555 1_555
O3_20 N1_20 1_555 1_555
O1_21 N1_21 1_555 1_555
O2_21 N1_21 1_555 1_555
O3_21 N1_21 1_555 1_555
O1_22 N1_22 1_555 1_555
O2_22 N1_22 1_555 1_555
O3_22 N1_22 1_555 1_555
O1_23 N1_23 1_555 1_555
O2_23 N1_23 1_555 1_555
O3_23 N1_23 1_555 1_555
O1_24 N1_24 1_555 1_555
O2_24 N1_24 1_555 1_555
O3_24 N1_24 1_555 1_555
O1_25 N1_25 1_555 1_555
O2_25 N1_25 1_555 1_555
O3_25 N1_25 1_555 1_555
O1_26 N1_26 1_555 1_555
O2_26 N1_26 1_555 1_555
O3_26 N1_26 1_555 1_555
O1_27 N1_27 1_555 1_555
O2_27 N1_27 1_555 1_555
O3_27 N1_27 1_555 1_555
O1_28 N1_28 1_555 1_555
O2_28 N1_28 1_555 1_555
O3_28 N1_28 1_555 1_555
O1_29 N1_29 1_555 1_555
O2_29 N1_29 1_555 1_555
O3_29 N1_29 1_555 1_555
O1_30 N1_30 1_555 1_555
O2_30 N1_30 1_555 1_555
O3_30 N1_30 1_555 1_555
O1_31 N1_31 1_555 1_555
O2_31 N1_31 1_555 1_555
O3_31 N1_31 1_555 1_555
O1_32 N1_32 1_555 1_555
O2_32 N1_32 1_555 1_555
O3_32 N1_32 1_555 1_555
O1_33 N1_33 1_555 1_555
O2_33 N1_33 1_555 1_555
O3_33 N1_33 1_555 1_555
O1_34 N1_34 1_555 1_555
O2_34 N1_34 1_555 1_555
O3_34 N1_34 1_555 1_555
O1_35 N1_35 1_555 1_555
O2_35 N1_35 1_555 1_555
O3_35 N1_35 1_555 1_555
O1_36 N1_36 1_555 1_555
O2_36 N1_36 1_555 1_555
O3_36 N1_36 1_555 1_555
O1_37 N1_37 1_555 1_555
O2_37 N1_37 1_555 1_555
O3_37 N1_37 1_555 1_555
O1_38 N1_38 1_555 1_555
O2_38 N1_38 1_555 1_555
O3_38 N1_38 1_555 1_555
O1_39 N1_39 1_555 1_555
O2_39 N1_39 1_555 1_555
O3_39 N1_39 1_555 1_555
O1_40 N1_40 1_555 1_555
O2_40 N1_40 1_555 1_555
O3_40 N1_40 1_555 1_555
O1_41 N1_41 1_555 1_555
O2_41 N1_41 1_555 1_555
O3_41 N1_41 1_555 1_555
O1_42 N1_42 1_555 1_555
O2_42 N1_42 1_555 1_555
O3_42 N1_42 1_555 1_555
O1_43 N1_43 1_555 1_555
O2_43 N1_43 1_555 1_555
O3_43 N1_43 1_555 1_555
O1_44 N1_44 1_555 1_555
O2_44 N1_44 1_555 1_555
O3_44 N1_44 1_555 1_555
O1_45 N1_45 1_555 1_555
O2_45 N1_45 1_555 1_555
O3_45 N1_45 1_555 1_555
O1_46 N1_46 1_555 1_555
O2_46 N1_46 1_555 1_555
O3_46 N1_46 1_555 1_555
O1_47 N1_47 1_555 1_555
O2_47 N1_47 1_555 1_555
O3_47 N1_47 1_555 1_555
O1_48 N1_48 1_555 1_555
O2_48 N1_48 1_555 1_555
O3_48 N1_48 1_555 1_555
O1_49 N1_49 1_555 1_555
O2_49 N1_49 1_555 1_555
O3_49 N1_49 1_555 1_555
O1_50 N1_50 1_555 1_555
O2_50 N1_50 1_555 1_555
O3_50 N1_50 1_555 1_555
O1_51 N1_51 1_555 1_555
O2_51 N1_51 1_555 1_555
O3_51 N1_51 1_555 1_555
O1_52 N1_52 1_555 1_555
O2_52 N1_52 1_555 1_555
O3_52 N1_52 1_555 1_555
O1_53 N1_53 1_555 1_555
O2_53 N1_53 1_555 1_555
O3_53 N1_53 1_555 1_555
O1_54 N1_54 1_555 1_555
O2_54 N1_54 1_555 1_555
O3_54 N1_54 1_555 1_555
O1_55 N1_55 1_555 1_555
O2_55 N1_55 1_555 1_555
O3_55 N1_55 1_555 1_555
O1_56 N1_56 1_555 1_555
O2_56 N1_56 1_555 1_555
O3_56 N1_56 1_555 1_555
O1_57 N1_57 1_555 1_555
O2_57 N1_57 1_555 1_555
O3_57 N1_57 1_555 1_555
O1_58 N1_58 1_555 1_555
O2_58 N1_58 1_555 1_555
O3_58 N1_58 1_555 1_555
O1_59 N1_59 1_555 1_555
O2_59 N1_59 1_555 1_555
O3_59 N1_59 1_555 1_555
O1_60 N1_60 1_555 1_555
O2_60 N1_60 1_555 1_555
O3_60 N1_60 1_555 1_555
O1_61 N1_61 1_555 1_555
O2_61 N1_61 1_555 1_555
O3_61 N1_61 1_555 1_555
O1_62 N1_62 1_555 1_555
O2_62 N1_62 1_555 1_555
O3_62 N1_62 1_555 1_555
O1_63 N1_63 1_555 1_555
O2_63 N1_63 1_555 1_555
O3_63 N1_63 1_555 1_555
O1_64 N1_64 1_555 1_555
O2_64 N1_64 1_555 1_555
O3_64 N1_64 1_555 1_555
O1_65 N1_65 1_555 1_555
O2_65 N1_65 1_555 1_555
O3_65 N1_65 1_555 1_555
O1_66 N1_66 1_555 1_555
O2_66 N1_66 1_555 1_555
O3_66 N1_66 1_555 1_555
O1_67 N1_67 1_555 1_555
O2_67 N1_67 1_555 1_555
O3_67 N1_67 1_555 1_555
O1_68 N1_68 1_555 1_555
O2_68 N1_68 1_555 1_555
O3_68 N1_68 1_555 1_555
O1_69 N1_69 1_555 1_555
O2_69 N1_69 1_555 1_555
O3_69 N1_69 1_555 1_555
O1_70 N1_70 1_555 1_555
O2_70 N1_70 1_555 1_555
O3_70 N1_70 1_555 1_555
O1_71 N1_71 1_555 1_555
O2_71 N1_71 1_555 1_555
O3_71 N1_71 1_555 1_555
O1_72 N1_72 1_555 1_555
O2_72 N1_72 1_555 1_555
O3_72 N1_72 1_555 1_555
O1_73 N1_73 1_555 1_555
O2_73 N1_73 1_555 1_555
O3_73 N1_73 1_555 1_555
O1_74 N1_74 1_555 1_555
O2_74 N1_74 1_555 1_555
O3_74 N1_74 1_555 1_555
O1_75 N1_75 1_555 1_555
O2_75 N1_75 1_555 1_555
O3_75 N1_75 1_555 1_555
O1_76 N1_76 1_555 1_555
O2_76 N1_76 1_555 1_555
O3_76 N1_76 1_555 1_555
O1_77 N1_77 1_555 1_555
O2_77 N1_77 1_555 1_555
O3_77 N1_77 1_555 1_555
O1_78 N1_78 1_555 1_555
O2_78 N1_78 1_555 1_555
O3_78 N1_78 1_555 1_555
O1_79 N1_79 1_555 1_555
O2_79 N1_79 1_555 1_555
O3_79 N1_79 1_555 1_555
O1_80 N1_80 1_555 1_555
O2_80 N1_80 1_555 1_555
O3_80 N1_80 1_555 1_555
O1_81 N1_81 1_555 1_555
O2_81 N1_81 1_555 1_555
O3_81 N1_81 1_555 1_555
O1_82 N1_82 1_555 1_555
O2_82 N1_82 1_555 1_555
O3_82 N1_82 1_555 1_555
O1_83 N1_83 1_555 1_555
O2_83 N1_83 1_555 1_555
O3_83 N1_83 1_555 1_555
O1_84 N1_84 1_555 1_555
O2_84 N1_84 1_555 1_555
O3_84 N1_84 1_555 1_555
O1_85 N1_85 1_555 1_555
O2_85 N1_85 1_555 1_555
O3_85 N1_85 1_555 1_555
O1_86 N1_86 1_555 1_555
O2_86 N1_86 1_555 1_555
O3_86 N1_86 1_555 1_555
O1_87 N1_87 1_555 1_555
O2_87 N1_87 1_555 1_555
O3_87 N1_87 1_555 1_555
O1_88 N1_88 1_555 1_555
O2_88 N1_88 1_555 1_555
O3_88 N1_88 1_555 1_555
O1_89 N1_89 1_555 1_555
O2_89 N1_89 1_555 1_555
O3_89 N1_89 1_555 1_555
O1_90 N1_90 1_555 1_555
O2_90 N1_90 1_555 1_555
O3_90 N1_90 1_555 1_555
O1_91 N1_91 1_555 1_555
O2_91 N1_91 1_555 1_555
O3_91 N1_91 1_555 1_555
O1_92 N1_92 1_555 1_555
O2_92 N1_92 1_555 1_555
O3_92 N1_92 1_555 1_555
O1_93 N1_93 1_555 1_555
O2_93 N1_93 1_555 1_555
O3_93 N1_93 1_555 1_555
O1_94 N1_94 1_555 1_555
O2_94 N1_94 1_555 1_555
O3_94 N1_94 1_555 1_555
O1_95 N1_95 1_555 1_555
O2_95 N1_95 1_555 1_555
O3_95 N1_95 1_555 1_555
O1_96 N1_96 1_555 1_555
O2_96 N1_96 1_555 1_555
O3_96 N1_96 1_555 1_555
O1_97 N1_97 1_555 1_555
O2_97 N1_97 1_555 1_555
O3_97 N1_97 1_555 1_555
O1_98 N1_98 1_555 1_555
O2_98 N1_98 1_555 1_555
O3_98 N1_98 1_555 1_555
O1_99 N1_99 1_555 1_555
O2_99 N1_99 1_555 1_555
O3_99 N1_99 1_555 1_555
O1_100 N1_100 1_555 1_555
O2_100 N1_100 1_555 1_555
O3_100 N1_100 1_555 1_555
O1_101 N1_101 1_555 1_555
O2_101 N1_101 1_555 1_555
O3_101 N1_101 1_555 1_555
O1_102 N1_102 1_555 1_555
O2_102 N1_102 1_555 1_555
O3_102 N1_102 1_555 1_555
O1_103 N1_103 1_555 1_555
O2_103 N1_103 1_555 1_555
O3_103 N1_103 1_555 1_555
O1_104 N1_104 1_555 1_555
O2_104 N1_104 1_555 1_555
O3_104 N1_104 1_555 1_555
O1_105 N1_105 1_555 1_555
O2_105 N1_105 1_555 1_555
O3_105 N1_105 1_555 1_555
O1_106 N1_106 1_555 1_555
O2_106 N1_106 1_555 1_555
O3_106 N1_106 1_555 1_555
O1_107 N1_107 1_555 1_555
O2_107 N1_107 1_555 1_555
O3_107 N1_107 1_555 1_555
O1_108 N1_108 1_555 1_555
O2_108 N1_108 1_555 1_555
O3_108 N1_108 1_555 1_555
O1_109 N1_109 1_555 1_555
O2_109 N1_109 1_555 1_555
O3_109 N1_109 1_555 1_555
O1_110 N1_110 1_555 1_555
O2_110 N1_110 1_555 1_555
O3_110 N1_110 1_555 1_555
O1_111 N1_111 1_555 1_555
O2_111 N1_111 1_555 1_555
O3_111 N1_111 1_555 1_555
O1_112 N1_112 1_555 1_555
O2_112 N1_112 1_555 1_555
O3_112 N1_112 1_555 1_555
O1_113 N1_113 1_555 1_555
O2_113 N1_113 1_555 1_555
O3_113 N1_113 1_555 1_555
O1_114 N1_114 1_555 1_555
O2_114 N1_114 1_555 1_555
O3_114 N1_114 1_555 1_555
O1_115 N1_115 1_555 1_555
O2_115 N1_115 1_555 1_555
O3_115 N1_115 1_555 1_555
O1_116 N1_116 1_555 1_555
O2_116 N1_116 1_555 1_555
O3_116 N1_116 1_555 1_555
O1_117 N1_117 1_555 1_555
O2_117 N1_117 1_555 1_555
O3_117 N1_117 1_555 1_555
O1_118 N1_118 1_555 1_555
O2_118 N1_118 1_555 1_555
O3_118 N1_118 1_555 1_555
O1_119 N1_119 1_555 1_555
O2_119 N1_119 1_555 1_555
O3_119 N1_119 1_555 1_555
O1_120 N1_120 1_555 1_555
O2_120 N1_120 1_555 1_555
O3_120 N1_120 1_555 1_555
O1_121 N1_121 1_555 1_555
O2_121 N1_121 1_555 1_555
O3_121 N1_121 1_555 1_555
O1_122 N1_122 1_555 1_555
O2_122 N1_122 1_555 1_555
O3_122 N1_122 1_555 1_555
O1_123 N1_123 1_555 1_555
O2_123 N1_123 1_555 1_555
O3_123 N1_123 1_555 1_555
O1_124 N1_124 1_555 1_555
O2_124 N1_124 1_555 1_555
O3_124 N1_124 1_555 1_555
O1_125 N1_125 1_555 1_555
O2_125 N1_125 1_555 1_555
O3_125 N1_125 1_555 1_555
O1_126 N1_126 1_555 1_555
O2_126 N1_126 1_555 1_555
O3_126 N1_126 1_555 1_555
O1_127 N1_127 1_555 1_555
O2_127 N1_127 1_555 1_555
O3_127 N1_127 1_555 1_555
O1_128 N1_128 1_555 1_555
O2_128 N1_128 1_555 1_555
O3_128 N1_128 1_555 1_555
O1_129 N1_129 1_555 1_555
O2_129 N1_129 1_555 1_555
O3_129 N1_129 1_555 1_555
O1_130 N1_130 1_555 1_555
O2_130 N1_130 1_555 1_555
O3_130 N1_130 1_555 1_555
O1_131 N1_131 1_555 1_555
O2_131 N1_131 1_555 1_555
O3_131 N1_131 1_555 1_555
O1_132 N1_132 1_555 1_555
O2_132 N1_132 1_555 1_555
O3_132 N1_132 1_555 1_555
O1_133 N1_133 1_555 1_555
O2_133 N1_133 1_555 1_555
O3_133 N1_133 1_555 1_555
O1_134 N1_134 1_555 1_555
O2_134 N1_134 1_555 1_555
O3_134 N1_134 1_555 1_555
O1_135 N1_135 1_555 1_555
O2_135 N1_135 1_555 1_555
O3_135 N1_135 1_555 1_555
O1_136 N1_136 1_555 1_555
O2_136 N1_136 1_555 1_555
O3_136 N1_136 1_555 1_555
O1_137 N1_137 1_555 1_555
O2_137 N1_137 1_555 1_555
O3_137 N1_137 1_555 1_555
O1_138 N1_138 1_555 1_555
O2_138 N1_138 1_555 1_555
O3_138 N1_138 1_555 1_555
O1_139 N1_139 1_555 1_555
O2_139 N1_139 1_555 1_555
O3_139 N1_139 1_555 1_555
O1_140 N1_140 1_555 1_555
O2_140 N1_140 1_555 1_555
O3_140 N1_140 1_555 1_555
O1_141 N1_141 1_555 1_555
O2_141 N1_141 1_555 1_555
O3_141 N1_141 1_555 1_555
O1_142 N1_142 1_555 1_555
O2_142 N1_142 1_555 1_555
O3_142 N1_142 1_555 1_555
O1_143 N1_143 1_555 1_555
O2_143 N1_143 1_555 1_555
O3_143 N1_143 1_555 1_555
O1_144 N1_144 1_555 1_555
O2_144 N1_144 1_555 1_555
O3_144 N1_144 1_555 1_555
Zn1 O9 1_555 1_555
Zn2 O5 1_555 1_555
Zn3 O6 1_555 1_555
Zn4 O8 1_555 1_555
O4 C3 1_555 1_555
O5 C8 1_555 1_555
O6 C7 1_555 1_555
C1 H1 1_555 1_555
O7 Zn2 1_555 1_555
C2 C1 1_555 1_555
C3 C4 1_555 1_555
C4 C2 1_555 1_555
H2 C4 1_555 1_555
C5 C1 1_555 1_555
C6 C3 1_555 1_555
H3 C6 1_555 1_555
O8 C7 1_555 1_555
C7 C2 1_555 1_555
O9 C8 1_555 1_555
O10 Zn1 1_555 1_555
C8 C5 1_555 1_555
C9 O4 1_555 1_555
H4 C9 1_555 1_555
C10 C9 1_555 1_555
C11 C10 1_555 1_555
C12 C11 1_555 1_555
O11 C15 1_555 1_555
O12 C20 1_555 1_555
O13 C19 1_555 1_555
C13 H5 1_555 1_555
C14 C13 1_555 1_555
C15 C16 1_555 1_555
C16 C14 1_555 1_555
H6 C16 1_555 1_555
C17 C13 1_555 1_555
C18 C15 1_555 1_555
H7 C18 1_555 1_555
O14 C19 1_555 1_555
C19 C14 1_555 1_555
O15 C20 1_555 1_555
C20 C17 1_555 1_555
C21 O11 1_555 1_555
H8 C21 1_555 1_555
C22 C11 1_555 1_555
C23 C22 1_555 1_555
C24 C23 1_555 1_555
O16 C27 1_555 1_555
O17 C32 1_555 1_555
O18 C31 1_555 1_555
C25 H9 1_555 1_555
C26 C25 1_555 1_555
C27 C28 1_555 1_555
C28 C26 1_555 1_555
H10 C28 1_555 1_555
C29 C25 1_555 1_555
C30 C27 1_555 1_555
H11 C30 1_555 1_555
O19 C31 1_555 1_555
C31 C26 1_555 1_555
O20 C32 1_555 1_555
C32 C29 1_555 1_555
C33 O16 1_555 1_555
H12 C33 1_555 1_555
C34 C23 1_555 1_555
C35 C10 1_555 1_555
C36 C35 1_555 1_555
H13 C9 1_555 1_555
H14 C21 1_555 1_555
H15 C33 1_555 1_555
Zn5 O23 1_555 1_555
Zn6 O24 1_555 1_555
O21 C39 1_555 1_555
O22 Zn2 1_555 1_555
O23 C43 1_555 1_555
C37 H16 1_555 1_555
C38 C37 1_555 1_555
C39 C40 1_555 1_555
C40 C38 1_555 1_555
H17 C40 1_555 1_555
C41 C37 1_555 1_555
C42 C39 1_555 1_555
H18 C42 1_555 1_555
O24 C43 1_555 1_555
C43 C38 1_555 1_555
O25 Zn1 1_555 1_555
C44 O22 1_555 1_555
C45 O21 1_555 1_555
H19 C45 1_555 1_555
C46 C45 1_555 1_555
C47 C46 1_555 1_555
C48 C47 1_555 1_555
O26 C51 1_555 1_555
O27 C56 1_555 1_555
O28 C55 1_555 1_555
C49 H20 1_555 1_555
C50 C49 1_555 1_555
C51 C52 1_555 1_555
C52 C50 1_555 1_555
H21 C52 1_555 1_555
C53 C49 1_555 1_555
C54 C51 1_555 1_555
H22 C54 1_555 1_555
O29 C55 1_555 1_555
C55 C50 1_555 1_555
O30 C56 1_555 1_555
C56 C53 1_555 1_555
C57 O26 1_555 1_555
H23 C57 1_555 1_555
C58 C47 1_555 1_555
C59 C58 1_555 1_555
C60 C59 1_555 1_555
O31 C63 1_555 1_555
O32 C68 1_555 1_555
O33 C67 1_555 1_555
C61 H24 1_555 1_555
C62 C61 1_555 1_555
C63 C64 1_555 1_555
C64 C62 1_555 1_555
H25 C64 1_555 1_555
C65 C61 1_555 1_555
C66 C63 1_555 1_555
H26 C66 1_555 1_555
O34 C67 1_555 1_555
C67 C62 1_555 1_555
O35 C68 1_555 1_555
C68 C65 1_555 1_555
C69 O31 1_555 1_555
H27 C69 1_555 1_555
C70 C59 1_555 1_555
C71 C46 1_555 1_555
C72 C71 1_555 1_555
H28 C45 1_555 1_555
H29 C57 1_555 1_555
H30 C69 1_555 1_555
Zn7 O41 1_555 1_555
Zn8 O37 1_555 1_555
O36 C75 1_555 1_555
O37 C80 1_555 1_555
O38 Zn3 1_555 1_555
C73 H31 1_555 1_555
O39 Zn8 1_555 1_555
C74 C73 1_555 1_555
C75 C76 1_555 1_555
C76 C74 1_555 1_555
H32 C76 1_555 1_555
C77 C73 1_555 1_555
C78 C75 1_555 1_555
H33 C78 1_555 1_555
O40 Zn4 1_555 1_555
C79 O38 1_555 1_555
O41 C80 1_555 1_555
O42 Zn7 1_555 1_555
C80 C77 1_555 1_555
C81 O36 1_555 1_555
H34 C81 1_555 1_555
C82 C81 1_555 1_555
C83 C82 1_555 1_555
C84 C83 1_555 1_555
O43 C87 1_555 1_555
O44 C92 1_555 1_555
O45 C91 1_555 1_555
C85 H35 1_555 1_555
C86 C85 1_555 1_555
C87 C88 1_555 1_555
C88 C86 1_555 1_555
H36 C88 1_555 1_555
C89 C85 1_555 1_555
C90 C87 1_555 1_555
H37 C90 1_555 1_555
O46 C91 1_555 1_555
C91 C86 1_555 1_555
O47 C92 1_555 1_555
C92 C89 1_555 1_555
C93 O43 1_555 1_555
H38 C93 1_555 1_555
C94 C83 1_555 1_555
C95 C94 1_555 1_555
C96 C95 1_555 1_555
O48 C99 1_555 1_555
O49 C104 1_555 1_555
O50 C103 1_555 1_555
C97 H39 1_555 1_555
C98 C97 1_555 1_555
C99 C100 1_555 1_555
C100 C98 1_555 1_555
H40 C100 1_555 1_555
C101 C97 1_555 1_555
C102 C99 1_555 1_555
H41 C102 1_555 1_555
O51 C103 1_555 1_555
C103 C98 1_555 1_555
O52 C104 1_555 1_555
C104 C101 1_555 1_555
C105 O48 1_555 1_555
H42 C105 1_555 1_555
C106 C95 1_555 1_555
C107 C82 1_555 1_555
C108 C107 1_555 1_555
H43 C81 1_555 1_555
H44 C93 1_555 1_555
H45 C105 1_555 1_555
Zn9 O58 1_555 1_555
Zn10 O54 1_555 1_555
O53 C111 1_555 1_555
O54 C116 1_555 1_555
O55 Zn3 1_555 1_555
C109 H46 1_555 1_555
O56 Zn10 1_555 1_555
C110 C109 1_555 1_555
C111 C112 1_555 1_555
C112 C110 1_555 1_555
H47 C112 1_555 1_555
C113 C109 1_555 1_555
C114 C111 1_555 1_555
H48 C114 1_555 1_555
O57 Zn4 1_555 1_555
C115 O55 1_555 1_555
O58 C116 1_555 1_555
O59 Zn9 1_555 1_555
C116 C113 1_555 1_555
C117 O53 1_555 1_555
H49 C117 1_555 1_555
C118 C117 1_555 1_555
C119 C118 1_555 1_555
C120 C119 1_555 1_555
O60 C123 1_555 1_555
O61 C128 1_555 1_555
O62 C127 1_555 1_555
C121 H50 1_555 1_555
C122 C121 1_555 1_555
C123 C124 1_555 1_555
C124 C122 1_555 1_555
H51 C124 1_555 1_555
C125 C121 1_555 1_555
C126 C123 1_555 1_555
H52 C126 1_555 1_555
O63 C127 1_555 1_555
C127 C122 1_555 1_555
O64 C128 1_555 1_555
C128 C125 1_555 1_555
C129 O60 1_555 1_555
H53 C129 1_555 1_555
C130 C119 1_555 1_555
C131 C130 1_555 1_555
C132 C131 1_555 1_555
O65 C135 1_555 1_555
O66 C140 1_555 1_555
O67 C139 1_555 1_555
C133 H54 1_555 1_555
C134 C133 1_555 1_555
C135 C136 1_555 1_555
C136 C134 1_555 1_555
H55 C136 1_555 1_555
C137 C133 1_555 1_555
C138 C135 1_555 1_555
H56 C138 1_555 1_555
O68 C139 1_555 1_555
C139 C134 1_555 1_555
O69 C140 1_555 1_555
C140 C137 1_555 1_555
C141 O65 1_555 1_555
H57 C141 1_555 1_555
C142 C131 1_555 1_555
C143 C118 1_555 1_555
C144 C143 1_555 1_555
H58 C117 1_555 1_555
H59 C129 1_555 1_555
H60 C141 1_555 1_555
Zn11 O13 1_555 1_555
Zn12 O14 1_555 1_555
Zn13 O18 1_555 1_555
Zn14 O19 1_555 1_555
Zn15 O52 1_555 1_555
Zn16_2 O15 1_555 1_555
Zn17_2 O30 1_555 1_555
Zn18 O69 1_555 1_555
Zn19 O47 1_555 1_555
Zn20 O64 1_555 1_555
Zn21_2 O20 1_555 1_555
Zn22_2 O35 1_555 1_555
Zn23 O49 1_555 1_555
Zn24_2 O12 1_555 1_555
Zn25_2 O27 1_555 1_555
Zn26 O66 1_555 1_555
Zn27 O44 1_555 1_555
Zn28 O61 1_555 1_555
Zn29_2 O17 1_555 1_555
Zn30_2 O32 1_555 1_555
Zn31 O28 1_555 1_555
Zn32 O45 1_555 1_555
Zn33 O33 1_555 1_555
Zn34 O29 1_555 1_555
Zn35 O46 1_555 1_555
Zn36 O34 1_555 1_555
O70 Zn8 1_555 1_555
O71 Zn10 1_555 1_555
O72 Zn10 1_555 1_555
O73 Zn10 1_555 1_555
O74 Zn8 1_555 1_555
O75 Zn8 1_555 1_555
O76 Zn2 1_555 1_555
O77 Zn2 1_555 1_555
O78 Zn5 1_555 1_555
O79 Zn5 1_555 1_555
O80 Zn11 1_555 1_555
O81 Zn13 1_555 1_555
O82 Zn6 1_555 1_555
O83 Zn6 1_555 1_555
O84 Zn12 1_555 1_555
O85 Zn14 1_555 1_555
O86 Zn7 1_555 1_555
O87 Zn9 1_555 1_555
O88 Zn9 1_555 1_555
O89 Zn9 1_555 1_555
O90 Zn7 1_555 1_555
O91 Zn7 1_555 1_555
O92 Zn1 1_555 1_555
O93 Zn1 1_555 1_555
C5 C6 1_555 1_555
C17 C18 1_555 1_555
C21 C22 1_555 1_555
C29 C30 1_555 1_555
C33 C34 1_555 1_555
C34 C35 1_555 1_555
C41 C42 1_555 1_555
C41 C44 1_555 1_555
O25 C44 1_555 1_555
C53 C54 1_555 1_555
C57 C58 1_555 1_555
C65 C66 1_555 1_555
C69 C70 1_555 1_555
C70 C71 1_555 1_555
C74 C79 1_555 1_555
C77 C78 1_555 1_555
O40 C79 1_555 1_555
C89 C90 1_555 1_555
C93 C94 1_555 1_555
O50 Zn11 1_555 1_555
C101 C102 1_555 1_555
O51 Zn12 1_555 1_555
C105 C106 1_555 1_555
C106 C107 1_555 1_555
C110 C115 1_555 1_555
C113 C114 1_555 1_555
O57 C115 1_555 1_555
O62 Zn13 1_555 1_555
C125 C126 1_555 1_555
O63 Zn14 1_555 1_555
C129 C130 1_555 1_555
O67 Zn32 1_555 1_555
C137 C138 1_555 1_555
O68 Zn35 1_555 1_555
C141 C142 1_555 1_555
C142 C143 1_555 1_555
O5 H61 1_555 1_555
C12 H62 1_555 1_555
C12 H63 1_555 1_555
C12 H64 1_555 1_555
C48 H69 1_555 1_555
C48 H70 1_555 1_555
C48 H71 1_555 1_555
C24 H72 1_555 1_555
C24 H73 1_555 1_555
C24 H74 1_555 1_555
C36 H75 1_555 1_555
C36 H76 1_555 1_555
C36 H77 1_555 1_555
C84 H78 1_555 1_555
C84 H79 1_555 1_555
C84 H80 1_555 1_555
C60 H81 1_555 1_555
C60 H82 1_555 1_555
C60 H83 1_555 1_555
C72 H84 1_555 1_555
C72 H85 1_555 1_555
C72 H86 1_555 1_555
C96 H91 1_555 1_555
C96 H92 1_555 1_555
C96 H93 1_555 1_555
C108 H94 1_555 1_555
C108 H95 1_555 1_555
C108 H96 1_555 1_555
C120 H99 1_555 1_555
C120 H100 1_555 1_555
C120 H101 1_555 1_555
C144 H104 1_555 1_555
C144 H105 1_555 1_555
C144 H106 1_555 1_555
C132 H107 1_555 1_555
C132 H108 1_555 1_555
C132 H109 1_555 1_555
Zn1_2 O9_2 1_555 1_555
Zn2_2 O5_2 1_555 1_555
Zn3_2 O6_2 1_555 1_555
Zn4_2 O8_2 1_555 1_555
O4_2 C3_2 1_555 1_555
O5_2 C8_2 1_555 1_555
O6_2 C7_2 1_555 1_555
C1_2 H1_2 1_555 1_555
O7_2 Zn2_2 1_555 1_555
C2_2 C1_2 1_555 1_555
C3_2 C4_2 1_555 1_555
C4_2 C2_2 1_555 1_555
H2_2 C4_2 1_555 1_555
C5_2 C1_2 1_555 1_555
C6_2 C3_2 1_555 1_555
H3_2 C6_2 1_555 1_555
O8_2 C7_2 1_555 1_555
C7_2 C2_2 1_555 1_555
O9_2 C8_2 1_555 1_555
O10_2 Zn1_2 1_555 1_555
C8_2 C5_2 1_555 1_555
C9_2 O4_2 1_555 1_555
H4_2 C9_2 1_555 1_555
C10_2 C9_2 1_555 1_555
C11_2 C10_2 1_555 1_555
C12_2 C11_2 1_555 1_555
O11_2 C15_2 1_555 1_555
O12_2 C20_2 1_555 1_555
O13_2 C19_2 1_555 1_555
C13_2 H5_2 1_555 1_555
C14_2 C13_2 1_555 1_555
C15_2 C16_2 1_555 1_555
C16_2 C14_2 1_555 1_555
H6_2 C16_2 1_555 1_555
C17_2 C13_2 1_555 1_555
C18_2 C15_2 1_555 1_555
H7_2 C18_2 1_555 1_555
O14_2 C19_2 1_555 1_555
C19_2 C14_2 1_555 1_555
O15_2 C20_2 1_555 1_555
C20_2 C17_2 1_555 1_555
C21_2 O11_2 1_555 1_555
H8_2 C21_2 1_555 1_555
C22_2 C11_2 1_555 1_555
C23_2 C22_2 1_555 1_555
C24_2 C23_2 1_555 1_555
O16_2 C27_2 1_555 1_555
O17_2 C32_2 1_555 1_555
O18_2 C31_2 1_555 1_555
C25_2 H9_2 1_555 1_555
C26_2 C25_2 1_555 1_555
C27_2 C28_2 1_555 1_555
C28_2 C26_2 1_555 1_555
H10_2 C28_2 1_555 1_555
C29_2 C25_2 1_555 1_555
C30_2 C27_2 1_555 1_555
H11_2 C30_2 1_555 1_555
O19_2 C31_2 1_555 1_555
C31_2 C26_2 1_555 1_555
O20_2 C32_2 1_555 1_555
C32_2 C29_2 1_555 1_555
C33_2 O16_2 1_555 1_555
H12_2 C33_2 1_555 1_555
C34_2 C23_2 1_555 1_555
C35_2 C10_2 1_555 1_555
C36_2 C35_2 1_555 1_555
H13_2 C9_2 1_555 1_555
H14_2 C21_2 1_555 1_555
H15_2 C33_2 1_555 1_555
Zn5_2 O23_2 1_555 1_555
Zn6_2 O24_2 1_555 1_555
O21_2 C39_2 1_555 1_555
O22_2 Zn2_2 1_555 1_555
O23_2 C43_2 1_555 1_555
C37_2 H16_2 1_555 1_555
C38_2 C37_2 1_555 1_555
C39_2 C40_2 1_555 1_555
C40_2 C38_2 1_555 1_555
H17_2 C40_2 1_555 1_555
C41_2 C37_2 1_555 1_555
C42_2 C39_2 1_555 1_555
H18_2 C42_2 1_555 1_555
O24_2 C43_2 1_555 1_555
C43_2 C38_2 1_555 1_555
O25_2 Zn1_2 1_555 1_555
C44_2 O22_2 1_555 1_555
C45_2 O21_2 1_555 1_555
H19_2 C45_2 1_555 1_555
C46_2 C45_2 1_555 1_555
C47_2 C46_2 1_555 1_555
C48_2 C47_2 1_555 1_555
O26_2 C51_2 1_555 1_555
O27_2 C56_2 1_555 1_555
O28_2 C55_2 1_555 1_555
C49_2 H20_2 1_555 1_555
C50_2 C49_2 1_555 1_555
C51_2 C52_2 1_555 1_555
C52_2 C50_2 1_555 1_555
H21_2 C52_2 1_555 1_555
C53_2 C49_2 1_555 1_555
C54_2 C51_2 1_555 1_555
H22_2 C54_2 1_555 1_555
O29_2 C55_2 1_555 1_555
C55_2 C50_2 1_555 1_555
O30_2 C56_2 1_555 1_555
C56_2 C53_2 1_555 1_555
C57_2 O26_2 1_555 1_555
H23_2 C57_2 1_555 1_555
C58_2 C47_2 1_555 1_555
C59_2 C58_2 1_555 1_555
C60_2 C59_2 1_555 1_555
O31_2 C63_2 1_555 1_555
O32_2 C68_2 1_555 1_555
O33_2 C67_2 1_555 1_555
C61_2 H24_2 1_555 1_555
C62_2 C61_2 1_555 1_555
C63_2 C64_2 1_555 1_555
C64_2 C62_2 1_555 1_555
H25_2 C64_2 1_555 1_555
C65_2 C61_2 1_555 1_555
C66_2 C63_2 1_555 1_555
H26_2 C66_2 1_555 1_555
O34_2 C67_2 1_555 1_555
C67_2 C62_2 1_555 1_555
O35_2 C68_2 1_555 1_555
C68_2 C65_2 1_555 1_555
C69_2 O31_2 1_555 1_555
H27_2 C69_2 1_555 1_555
C70_2 C59_2 1_555 1_555
C71_2 C46_2 1_555 1_555
C72_2 C71_2 1_555 1_555
H28_2 C45_2 1_555 1_555
H29_2 C57_2 1_555 1_555
H30_2 C69_2 1_555 1_555
O36_2 C75_2 1_555 1_555
O70 C80_2 1_555 1_555
O38_2 Zn3_2 1_555 1_555
C73_2 H31_2 1_555 1_555
C74_2 C73_2 1_555 1_555
C75_2 C76_2 1_555 1_555
C76_2 C74_2 1_555 1_555
H32_2 C76_2 1_555 1_555
C77_2 C73_2 1_555 1_555
C78_2 C75_2 1_555 1_555
H33_2 C78_2 1_555 1_555
O40_2 Zn4_2 1_555 1_555
C79_2 O38_2 1_555 1_555
O86 C80_2 1_555 1_555
C80_2 C77_2 1_555 1_555
C81_2 O36_2 1_555 1_555
H34_2 C81_2 1_555 1_555
C82_2 C81_2 1_555 1_555
C83_2 C82_2 1_555 1_555
C84_2 C83_2 1_555 1_555
O43_2 C87_2 1_555 1_555
O44_2 C92_2 1_555 1_555
O45_2 C91_2 1_555 1_555
C85_2 H35_2 1_555 1_555
C86_2 C85_2 1_555 1_555
C87_2 C88_2 1_555 1_555
C88_2 C86_2 1_555 1_555
H36_2 C88_2 1_555 1_555
C89_2 C85_2 1_555 1_555
C90_2 C87_2 1_555 1_555
H37_2 C90_2 1_555 1_555
O46_2 C91_2 1_555 1_555
C91_2 C86_2 1_555 1_555
O47_2 C92_2 1_555 1_555
C92_2 C89_2 1_555 1_555
C93_2 O43_2 1_555 1_555
H38_2 C93_2 1_555 1_555
C94_2 C83_2 1_555 1_555
C95_2 C94_2 1_555 1_555
C96_2 C95_2 1_555 1_555
O48_2 C99_2 1_555 1_555
O49_2 C104_2 1_555 1_555
O50_2 C103_2 1_555 1_555
C97_2 H39_2 1_555 1_555
C98_2 C97_2 1_555 1_555
C99_2 C100_2 1_555 1_555
C100_2 C98_2 1_555 1_555
H40_2 C100_2 1_555 1_555
C101_2 C97_2 1_555 1_555
C102_2 C99_2 1_555 1_555
H41_2 C102_2 1_555 1_555
O51_2 C103_2 1_555 1_555
C103_2 C98_2 1_555 1_555
O52_2 C104_2 1_555 1_555
C104_2 C101_2 1_555 1_555
C105_2 O48_2 1_555 1_555
H42_2 C105_2 1_555 1_555
C106_2 C95_2 1_555 1_555
C107_2 C82_2 1_555 1_555
C108_2 C107_2 1_555 1_555
H43_2 C81_2 1_555 1_555
H44_2 C93_2 1_555 1_555
H45_2 C105_2 1_555 1_555
Zn9_2 O58_2 1_555 1_555
Zn10_2 O54_2 1_555 1_555
O53_2 C111_2 1_555 1_555
O54_2 C116_2 1_555 1_555
O55_2 Zn3_2 1_555 1_555
C109_2 H46_2 1_555 1_555
O56_2 Zn10_2 1_555 1_555
C110_2 C109_2 1_555 1_555
C111_2 C112_2 1_555 1_555
C112_2 C110_2 1_555 1_555
H47_2 C112_2 1_555 1_555
C113_2 C109_2 1_555 1_555
C114_2 C111_2 1_555 1_555
H48_2 C114_2 1_555 1_555
O57_2 Zn4_2 1_555 1_555
C115_2 O55_2 1_555 1_555
O58_2 C116_2 1_555 1_555
O59_2 Zn9_2 1_555 1_555
C116_2 C113_2 1_555 1_555
C117_2 O53_2 1_555 1_555
H49_2 C117_2 1_555 1_555
C118_2 C117_2 1_555 1_555
C119_2 C118_2 1_555 1_555
C120_2 C119_2 1_555 1_555
O60_2 C123_2 1_555 1_555
O61_2 C128_2 1_555 1_555
O62_2 C127_2 1_555 1_555
C121_2 H50_2 1_555 1_555
C122_2 C121_2 1_555 1_555
C123_2 C124_2 1_555 1_555
C124_2 C122_2 1_555 1_555
H51_2 C124_2 1_555 1_555
C125_2 C121_2 1_555 1_555
C126_2 C123_2 1_555 1_555
H52_2 C126_2 1_555 1_555
O63_2 C127_2 1_555 1_555
C127_2 C122_2 1_555 1_555
O64_2 C128_2 1_555 1_555
C128_2 C125_2 1_555 1_555
C129_2 O60_2 1_555 1_555
H53_2 C129_2 1_555 1_555
C130_2 C119_2 1_555 1_555
C131_2 C130_2 1_555 1_555
C132_2 C131_2 1_555 1_555
O65_2 C135_2 1_555 1_555
O66_2 C140_2 1_555 1_555
O67_2 C139_2 1_555 1_555
C133_2 H54_2 1_555 1_555
C134_2 C133_2 1_555 1_555
C135_2 C136_2 1_555 1_555
C136_2 C134_2 1_555 1_555
H55_2 C136_2 1_555 1_555
C137_2 C133_2 1_555 1_555
C138_2 C135_2 1_555 1_555
H56_2 C138_2 1_555 1_555
O68_2 C139_2 1_555 1_555
C139_2 C134_2 1_555 1_555
O69_2 C140_2 1_555 1_555
C140_2 C137_2 1_555 1_555
C141_2 O65_2 1_555 1_555
H57_2 C141_2 1_555 1_555
C142_2 C131_2 1_555 1_555
C143_2 C118_2 1_555 1_555
C144_2 C143_2 1_555 1_555
H58_2 C117_2 1_555 1_555
H59_2 C129_2 1_555 1_555
H60_2 C141_2 1_555 1_555
Zn11_2 O13_2 1_555 1_555
Zn12_2 O14_2 1_555 1_555
Zn13_2 O18_2 1_555 1_555
Zn14_2 O19_2 1_555 1_555
Zn15_3 O52_2 1_555 1_555
Zn16 O15_2 1_555 1_555
Zn17 O30_2 1_555 1_555
Zn18_2 O69_2 1_555 1_555
Zn19_3 O47_2 1_555 1_555
Zn20_4 O64_2 1_555 1_555
Zn22 O20_2 1_555 1_555
Zn21 O35_2 1_555 1_555
Zn23_3 O49_2 1_555 1_555
Zn24 O12_2 1_555 1_555
Zn25 O27_2 1_555 1_555
Zn26_2 O66_2 1_555 1_555
Zn27_3 O44_2 1_555 1_555
Zn28_4 O61_2 1_555 1_555
Zn30 O17_2 1_555 1_555
Zn29 O32_2 1_555 1_555
Zn31_2 O28_2 1_555 1_555
Zn32_2 O45_2 1_555 1_555
Zn33_2 O33_2 1_555 1_555
Zn34_2 O29_2 1_555 1_555
Zn35_2 O46_2 1_555 1_555
Zn36_2 O34_2 1_555 1_555
O71_2 Zn10_2 1_555 1_555
O72_2 Zn10_2 1_555 1_555
O73_2 Zn10_2 1_555 1_555
O76_2 Zn2_2 1_555 1_555
O77_2 Zn2_2 1_555 1_555
O78_2 Zn5_2 1_555 1_555
O79_2 Zn5_2 1_555 1_555
O80_2 Zn11_2 1_555 1_555
O81_2 Zn13_2 1_555 1_555
O82_2 Zn6_2 1_555 1_555
O83_2 Zn6_2 1_555 1_555
O84_2 Zn12_2 1_555 1_555
O85_2 Zn14_2 1_555 1_555
O87_2 Zn9_2 1_555 1_555
O88_2 Zn9_2 1_555 1_555
O89_2 Zn9_2 1_555 1_555
O92_2 Zn1_2 1_555 1_555
O93_2 Zn1_2 1_555 1_555
C5_2 C6_2 1_555 1_555
C17_2 C18_2 1_555 1_555
C21_2 C22_2 1_555 1_555
C29_2 C30_2 1_555 1_555
C33_2 C34_2 1_555 1_555
C34_2 C35_2 1_555 1_555
C41_2 C42_2 1_555 1_555
C41_2 C44_2 1_555 1_555
O25_2 C44_2 1_555 1_555
C53_2 C54_2 1_555 1_555
C57_2 C58_2 1_555 1_555
C65_2 C66_2 1_555 1_555
C69_2 C70_2 1_555 1_555
C70_2 C71_2 1_555 1_555
C74_2 C79_2 1_555 1_555
C77_2 C78_2 1_555 1_555
O40_2 C79_2 1_555 1_555
C89_2 C90_2 1_555 1_555
C93_2 C94_2 1_555 1_555
O50_2 Zn11_2 1_555 1_555
C101_2 C102_2 1_555 1_555
O51_2 Zn12_2 1_555 1_555
C105_2 C106_2 1_555 1_555
C106_2 C107_2 1_555 1_555
C110_2 C115_2 1_555 1_555
C113_2 C114_2 1_555 1_555
O57_2 C115_2 1_555 1_555
O62_2 Zn13_2 1_555 1_555
C125_2 C126_2 1_555 1_555
O63_2 Zn14_2 1_555 1_555
C129_2 C130_2 1_555 1_555
O67_2 Zn32_2 1_555 1_555
C137_2 C138_2 1_555 1_555
O68_2 Zn35_2 1_555 1_555
C141_2 C142_2 1_555 1_555
C142_2 C143_2 1_555 1_555
O5_2 H61_2 1_555 1_555
C12_2 H62_2 1_555 1_555
C12_2 H63_2 1_555 1_555
C12_2 H64_2 1_555 1_555
C48_2 H69_2 1_555 1_555
C48_2 H70_2 1_555 1_555
C48_2 H71_2 1_555 1_555
C24_2 H72_2 1_555 1_555
C24_2 H73_2 1_555 1_555
C24_2 H74_2 1_555 1_555
C36_2 H75_2 1_555 1_555
C36_2 H76_2 1_555 1_555
C36_2 H77_2 1_555 1_555
C84_2 H78_2 1_555 1_555
C84_2 H79_2 1_555 1_555
C84_2 H80_2 1_555 1_555
C60_2 H81_2 1_555 1_555
C60_2 H82_2 1_555 1_555
C60_2 H83_2 1_555 1_555
C72_2 H84_2 1_555 1_555
C72_2 H85_2 1_555 1_555
C72_2 H86_2 1_555 1_555
C96_2 H91_2 1_555 1_555
C96_2 H92_2 1_555 1_555
C96_2 H93_2 1_555 1_555
C108_2 H94_2 1_555 1_555
C108_2 H95_2 1_555 1_555
C108_2 H96_2 1_555 1_555
C120_2 H99_2 1_555 1_555
C120_2 H100_2 1_555 1_555
C120_2 H101_2 1_555 1_555
C144_2 H104_2 1_555 1_555
C144_2 H105_2 1_555 1_555
C144_2 H106_2 1_555 1_555
C132_2 H107_2 1_555 1_555
C132_2 H108_2 1_555 1_555
C132_2 H109_2 1_555 1_555
Zn7_2 O41_2 1_555 1_555
Zn8_2 O37_2 1_555 1_555
O36_3 C75_3 1_555 1_555
O37_2 C80_3 1_555 1_555
C73_3 H31_3 1_555 1_555
O39_2 Zn8_2 1_555 1_555
C74_3 C73_3 1_555 1_555
C75_3 C76_3 1_555 1_555
C76_3 C74_3 1_555 1_555
H32_3 C76_3 1_555 1_555
C77_3 C73_3 1_555 1_555
C78_3 C75_3 1_555 1_555
H33_3 C78_3 1_555 1_555
C79_3 O78 1_555 1_555
O41_2 C80_3 1_555 1_555
O42_2 Zn7_2 1_555 1_555
C80_3 C77_3 1_555 1_555
C81_3 O36_3 1_555 1_555
H34_3 C81_3 1_555 1_555
C82_3 C81_3 1_555 1_555
C83_3 C82_3 1_555 1_555
C84_3 C83_3 1_555 1_555
O43_3 C87_3 1_555 1_555
O44_3 C92_3 1_555 1_555
O45_3 C91_3 1_555 1_555
C85_3 H35_3 1_555 1_555
C86_3 C85_3 1_555 1_555
C87_3 C88_3 1_555 1_555
C88_3 C86_3 1_555 1_555
H36_3 C88_3 1_555 1_555
C89_3 C85_3 1_555 1_555
C90_3 C87_3 1_555 1_555
H37_3 C90_3 1_555 1_555
O46_3 C91_3 1_555 1_555
C91_3 C86_3 1_555 1_555
O47_3 C92_3 1_555 1_555
C92_3 C89_3 1_555 1_555
C93_3 O43_3 1_555 1_555
H38_3 C93_3 1_555 1_555
C94_3 C83_3 1_555 1_555
C95_3 C94_3 1_555 1_555
C96_3 C95_3 1_555 1_555
O48_3 C99_3 1_555 1_555
O49_3 C104_3 1_555 1_555
O50_3 C103_3 1_555 1_555
C97_3 H39_3 1_555 1_555
C98_3 C97_3 1_555 1_555
C99_3 C100_3 1_555 1_555
C100_3 C98_3 1_555 1_555
H40_3 C100_3 1_555 1_555
C101_3 C97_3 1_555 1_555
C102_3 C99_3 1_555 1_555
H41_3 C102_3 1_555 1_555
O51_3 C103_3 1_555 1_555
C103_3 C98_3 1_555 1_555
O52_3 C104_3 1_555 1_555
C104_3 C101_3 1_555 1_555
C105_3 O48_3 1_555 1_555
H42_3 C105_3 1_555 1_555
C106_3 C95_3 1_555 1_555
C107_3 C82_3 1_555 1_555
C108_3 C107_3 1_555 1_555
H43_3 C81_3 1_555 1_555
H44_3 C93_3 1_555 1_555
H45_3 C105_3 1_555 1_555
O53_3 C111_3 1_555 1_555
O71_2 C116_3 1_555 1_555
C109_3 H46_3 1_555 1_555
C110_3 C109_3 1_555 1_555
C111_3 C112_3 1_555 1_555
C112_3 C110_3 1_555 1_555
H47_3 C112_3 1_555 1_555
C113_3 C109_3 1_555 1_555
C114_3 C111_3 1_555 1_555
H48_3 C114_3 1_555 1_555
C115_3 O79 1_555 1_555
O87_2 C116_3 1_555 1_555
C116_3 C113_3 1_555 1_555
C117_3 O53_3 1_555 1_555
H49_3 C117_3 1_555 1_555
C118_3 C117_3 1_555 1_555
C119_3 C118_3 1_555 1_555
C120_3 C119_3 1_555 1_555
O60_3 C123_3 1_555 1_555
O61_3 C128_3 1_555 1_555
O62_3 C127_3 1_555 1_555
C121_3 H50_3 1_555 1_555
C122_3 C121_3 1_555 1_555
C123_3 C124_3 1_555 1_555
C124_3 C122_3 1_555 1_555
H51_3 C124_3 1_555 1_555
C125_3 C121_3 1_555 1_555
C126_3 C123_3 1_555 1_555
H52_3 C126_3 1_555 1_555
O63_3 C127_3 1_555 1_555
C127_3 C122_3 1_555 1_555
O64_3 C128_3 1_555 1_555
C128_3 C125_3 1_555 1_555
C129_3 O60_3 1_555 1_555
H53_3 C129_3 1_555 1_555
C130_3 C119_3 1_555 1_555
C131_3 C130_3 1_555 1_555
C132_3 C131_3 1_555 1_555
O65_3 C135_3 1_555 1_555
O66_3 C140_3 1_555 1_555
O67_3 C139_3 1_555 1_555
C133_3 H54_3 1_555 1_555
C134_3 C133_3 1_555 1_555
C135_3 C136_3 1_555 1_555
C136_3 C134_3 1_555 1_555
H55_3 C136_3 1_555 1_555
C137_3 C133_3 1_555 1_555
C138_3 C135_3 1_555 1_555
H56_3 C138_3 1_555 1_555
O68_3 C139_3 1_555 1_555
C139_3 C134_3 1_555 1_555
O69_3 C140_3 1_555 1_555
C140_3 C137_3 1_555 1_555
C141_3 O65_3 1_555 1_555
H57_3 C141_3 1_555 1_555
C142_3 C131_3 1_555 1_555
C143_3 C118_3 1_555 1_555
C144_3 C143_3 1_555 1_555
H58_3 C117_3 1_555 1_555
H59_3 C129_3 1_555 1_555
H60_3 C141_3 1_555 1_555
Zn15_2 O52_3 1_555 1_555
Zn18_4 O69_3 1_555 1_555
Zn19_4 O47_3 1_555 1_555
Zn20_2 O64_3 1_555 1_555
Zn23_2 O49_3 1_555 1_555
Zn26_4 O66_3 1_555 1_555
Zn27_4 O44_3 1_555 1_555
Zn28_2 O61_3 1_555 1_555
Zn32_3 O45_3 1_555 1_555
Zn35_3 O46_3 1_555 1_555
O70_2 Zn8_2 1_555 1_555
O74_2 Zn8_2 1_555 1_555
O75_2 Zn8_2 1_555 1_555
O80_3 Zn31 1_555 1_555
O81_3 Zn33 1_555 1_555
O84_3 Zn34 1_555 1_555
O85_3 Zn36 1_555 1_555
O86_2 Zn7_2 1_555 1_555
O90_2 Zn7_2 1_555 1_555
O91_2 Zn7_2 1_555 1_555
C74_3 C79_3 1_555 1_555
C77_3 C78_3 1_555 1_555
O82 C79_3 1_555 1_555
C89_3 C90_3 1_555 1_555
C93_3 C94_3 1_555 1_555
O50_3 Zn31 1_555 1_555
C101_3 C102_3 1_555 1_555
O51_3 Zn34 1_555 1_555
C105_3 C106_3 1_555 1_555
C106_3 C107_3 1_555 1_555
C110_3 C115_3 1_555 1_555
C113_3 C114_3 1_555 1_555
O83 C115_3 1_555 1_555
O62_3 Zn33 1_555 1_555
C125_3 C126_3 1_555 1_555
O63_3 Zn36 1_555 1_555
C129_3 C130_3 1_555 1_555
O67_3 Zn32_3 1_555 1_555
C137_3 C138_3 1_555 1_555
O68_3 Zn35_3 1_555 1_555
C141_3 C142_3 1_555 1_555
C142_3 C143_3 1_555 1_555
O22 H61_3 1_555 1_555
C84_3 H78_3 1_555 1_555
C84_3 H79_3 1_555 1_555
C84_3 H80_3 1_555 1_555
C96_3 H91_3 1_555 1_555
C96_3 H92_3 1_555 1_555
C96_3 H93_3 1_555 1_555
C108_3 H94_3 1_555 1_555
C108_3 H95_3 1_555 1_555
C108_3 H96_3 1_555 1_555
C120_3 H99_3 1_555 1_555
C120_3 H100_3 1_555 1_555
C120_3 H101_3 1_555 1_555
C144_3 H104_3 1_555 1_555
C144_3 H105_3 1_555 1_555
C144_3 H106_3 1_555 1_555
C132_3 H107_3 1_555 1_555
C132_3 H108_3 1_555 1_555
C132_3 H109_3 1_555 1_555
O36_4 C75_4 1_555 1_555
O70_2 C80_4 1_555 1_555
C73_4 H31_4 1_555 1_555
C74_4 C73_4 1_555 1_555
C75_4 C76_4 1_555 1_555
C76_4 C74_4 1_555 1_555
H32_4 C76_4 1_555 1_555
C77_4 C73_4 1_555 1_555
C78_4 C75_4 1_555 1_555
H33_4 C78_4 1_555 1_555
C79_4 O78_2 1_555 1_555
O86_2 C80_4 1_555 1_555
C80_4 C77_4 1_555 1_555
C81_4 O36_4 1_555 1_555
H34_4 C81_4 1_555 1_555
C82_4 C81_4 1_555 1_555
C83_4 C82_4 1_555 1_555
C84_4 C83_4 1_555 1_555
O43_4 C87_4 1_555 1_555
O44_4 C92_4 1_555 1_555
O45_4 C91_4 1_555 1_555
C85_4 H35_4 1_555 1_555
C86_4 C85_4 1_555 1_555
C87_4 C88_4 1_555 1_555
C88_4 C86_4 1_555 1_555
H36_4 C88_4 1_555 1_555
C89_4 C85_4 1_555 1_555
C90_4 C87_4 1_555 1_555
H37_4 C90_4 1_555 1_555
O46_4 C91_4 1_555 1_555
C91_4 C86_4 1_555 1_555
O47_4 C92_4 1_555 1_555
C92_4 C89_4 1_555 1_555
C93_4 O43_4 1_555 1_555
H38_4 C93_4 1_555 1_555
C94_4 C83_4 1_555 1_555
C95_4 C94_4 1_555 1_555
C96_4 C95_4 1_555 1_555
O48_4 C99_4 1_555 1_555
O49_4 C104_4 1_555 1_555
O50_4 C103_4 1_555 1_555
C97_4 H39_4 1_555 1_555
C98_4 C97_4 1_555 1_555
C99_4 C100_4 1_555 1_555
C100_4 C98_4 1_555 1_555
H40_4 C100_4 1_555 1_555
C101_4 C97_4 1_555 1_555
C102_4 C99_4 1_555 1_555
H41_4 C102_4 1_555 1_555
O51_4 C103_4 1_555 1_555
C103_4 C98_4 1_555 1_555
O52_4 C104_4 1_555 1_555
C104_4 C101_4 1_555 1_555
C105_4 O48_4 1_555 1_555
H42_4 C105_4 1_555 1_555
C106_4 C95_4 1_555 1_555
C107_4 C82_4 1_555 1_555
C108_4 C107_4 1_555 1_555
H43_4 C81_4 1_555 1_555
H44_4 C93_4 1_555 1_555
H45_4 C105_4 1_555 1_555
O53_4 C111_4 1_555 1_555
O71 C116_4 1_555 1_555
C109_4 H46_4 1_555 1_555
C110_4 C109_4 1_555 1_555
C111_4 C112_4 1_555 1_555
C112_4 C110_4 1_555 1_555
H47_4 C112_4 1_555 1_555
C113_4 C109_4 1_555 1_555
C114_4 C111_4 1_555 1_555
H48_4 C114_4 1_555 1_555
C115_4 O79_2 1_555 1_555
O87 C116_4 1_555 1_555
C116_4 C113_4 1_555 1_555
C117_4 O53_4 1_555 1_555
H49_4 C117_4 1_555 1_555
C118_4 C117_4 1_555 1_555
C119_4 C118_4 1_555 1_555
C120_4 C119_4 1_555 1_555
O60_4 C123_4 1_555 1_555
O61_4 C128_4 1_555 1_555
O62_4 C127_4 1_555 1_555
C121_4 H50_4 1_555 1_555
C122_4 C121_4 1_555 1_555
C123_4 C124_4 1_555 1_555
C124_4 C122_4 1_555 1_555
H51_4 C124_4 1_555 1_555
C125_4 C121_4 1_555 1_555
C126_4 C123_4 1_555 1_555
H52_4 C126_4 1_555 1_555
O63_4 C127_4 1_555 1_555
C127_4 C122_4 1_555 1_555
O64_4 C128_4 1_555 1_555
C128_4 C125_4 1_555 1_555
C129_4 O60_4 1_555 1_555
H53_4 C129_4 1_555 1_555
C130_4 C119_4 1_555 1_555
C131_4 C130_4 1_555 1_555
C132_4 C131_4 1_555 1_555
O65_4 C135_4 1_555 1_555
O66_4 C140_4 1_555 1_555
O67_4 C139_4 1_555 1_555
C133_4 H54_4 1_555 1_555
C134_4 C133_4 1_555 1_555
C135_4 C136_4 1_555 1_555
C136_4 C134_4 1_555 1_555
H55_4 C136_4 1_555 1_555
C137_4 C133_4 1_555 1_555
C138_4 C135_4 1_555 1_555
H56_4 C138_4 1_555 1_555
O68_4 C139_4 1_555 1_555
C139_4 C134_4 1_555 1_555
O69_4 C140_4 1_555 1_555
C140_4 C137_4 1_555 1_555
C141_4 O65_4 1_555 1_555
H57_4 C141_4 1_555 1_555
C142_4 C131_4 1_555 1_555
C143_4 C118_4 1_555 1_555
C144_4 C143_4 1_555 1_555
H58_4 C117_4 1_555 1_555
H59_4 C129_4 1_555 1_555
H60_4 C141_4 1_555 1_555
Zn15_4 O52_4 1_555 1_555
Zn18_3 O69_4 1_555 1_555
Zn19_2 O47_4 1_555 1_555
Zn20_3 O64_4 1_555 1_555
Zn23_4 O49_4 1_555 1_555
Zn26_3 O66_4 1_555 1_555
Zn27_2 O44_4 1_555 1_555
Zn28_3 O61_4 1_555 1_555
Zn32_4 O45_4 1_555 1_555
Zn35_4 O46_4 1_555 1_555
O80_4 Zn31_2 1_555 1_555
O81_4 Zn33_2 1_555 1_555
O84_4 Zn34_2 1_555 1_555
O85_4 Zn36_2 1_555 1_555
C74_4 C79_4 1_555 1_555
C77_4 C78_4 1_555 1_555
O82_2 C79_4 1_555 1_555
C89_4 C90_4 1_555 1_555
C93_4 C94_4 1_555 1_555
O50_4 Zn31_2 1_555 1_555
C101_4 C102_4 1_555 1_555
O51_4 Zn34_2 1_555 1_555
C105_4 C106_4 1_555 1_555
C106_4 C107_4 1_555 1_555
C110_4 C115_4 1_555 1_555
C113_4 C114_4 1_555 1_555
O83_2 C115_4 1_555 1_555
O62_4 Zn33_2 1_555 1_555
C125_4 C126_4 1_555 1_555
O63_4 Zn36_2 1_555 1_555
C129_4 C130_4 1_555 1_555
O67_4 Zn32_4 1_555 1_555
C137_4 C138_4 1_555 1_555
O68_4 Zn35_4 1_555 1_555
C141_4 C142_4 1_555 1_555
C142_4 C143_4 1_555 1_555
O22_2 H61_4 1_555 1_555
C84_4 H78_4 1_555 1_555
C84_4 H79_4 1_555 1_555
C84_4 H80_4 1_555 1_555
C96_4 H91_4 1_555 1_555
C96_4 H92_4 1_555 1_555
C96_4 H93_4 1_555 1_555
C108_4 H94_4 1_555 1_555
C108_4 H95_4 1_555 1_555
C108_4 H96_4 1_555 1_555
C120_4 H99_4 1_555 1_555
C120_4 H100_4 1_555 1_555
C120_4 H101_4 1_555 1_555
C144_4 H104_4 1_555 1_555
C144_4 H105_4 1_555 1_555
C144_4 H106_4 1_555 1_555
C132_4 H107_4 1_555 1_555
C132_4 H108_4 1_555 1_555
C132_4 H109_4 1_555 1_555
O80_5 Zn32_4 1_555 1_555
O84_5 Zn35_4 1_555 1_555
O70_2 H61_5 1_555 1_555
O80_6 Zn32 1_555 1_555
O84_6 Zn35 1_555 1_555
O37 H61_6 1_555 1_555
O80_7 Zn32_3 1_555 1_555
O84_7 Zn35_3 1_555 1_555
O37_2 H61_7 1_555 1_555
O80_8 Zn32_2 1_555 1_555
O84_8 Zn35_2 1_555 1_555
O70 H61_8 1_555 1_555
O54_2 H61_9 1_555 1_555
O71 H61_10 1_555 1_555
O71_2 H61_11 1_555 1_555
O54 H61_12 1_555 1_555
Zn3_3 O6_3 1_555 1_555
Zn4_3 O8_3 1_555 1_555
O4_3 C3_3 1_555 1_555
O72_2 C8_3 1_555 1_555
O6_3 C7_3 1_555 1_555
C1_3 H1_3 1_555 1_555
C2_3 C1_3 1_555 1_555
C3_3 C4_3 1_555 1_555
C4_3 C2_3 1_555 1_555
H2_3 C4_3 1_555 1_555
C5_3 C1_3 1_555 1_555
C6_3 C3_3 1_555 1_555
H3_3 C6_3 1_555 1_555
O8_3 C7_3 1_555 1_555
C7_3 C2_3 1_555 1_555
O88_2 C8_3 1_555 1_555
C8_3 C5_3 1_555 1_555
C9_3 O4_3 1_555 1_555
H4_3 C9_3 1_555 1_555
C10_3 C9_3 1_555 1_555
C11_3 C10_3 1_555 1_555
C12_3 C11_3 1_555 1_555
O11_3 C15_3 1_555 1_555
O12_3 C20_3 1_555 1_555
O13_3 C19_3 1_555 1_555
C13_3 H5_3 1_555 1_555
C14_3 C13_3 1_555 1_555
C15_3 C16_3 1_555 1_555
C16_3 C14_3 1_555 1_555
H6_3 C16_3 1_555 1_555
C17_3 C13_3 1_555 1_555
C18_3 C15_3 1_555 1_555
H7_3 C18_3 1_555 1_555
O14_3 C19_3 1_555 1_555
C19_3 C14_3 1_555 1_555
O15_3 C20_3 1_555 1_555
C20_3 C17_3 1_555 1_555
C21_3 O11_3 1_555 1_555
H8_3 C21_3 1_555 1_555
C22_3 C11_3 1_555 1_555
C23_3 C22_3 1_555 1_555
C24_3 C23_3 1_555 1_555
O16_3 C27_3 1_555 1_555
O17_3 C32_3 1_555 1_555
O18_3 C31_3 1_555 1_555
C25_3 H9_3 1_555 1_555
C26_3 C25_3 1_555 1_555
C27_3 C28_3 1_555 1_555
C28_3 C26_3 1_555 1_555
H10_3 C28_3 1_555 1_555
C29_3 C25_3 1_555 1_555
C30_3 C27_3 1_555 1_555
H11_3 C30_3 1_555 1_555
O19_3 C31_3 1_555 1_555
C31_3 C26_3 1_555 1_555
O20_3 C32_3 1_555 1_555
C32_3 C29_3 1_555 1_555
C33_3 O16_3 1_555 1_555
H12_3 C33_3 1_555 1_555
C34_3 C23_3 1_555 1_555
C35_3 C10_3 1_555 1_555
C36_3 C35_3 1_555 1_555
H13_3 C9_3 1_555 1_555
H14_3 C21_3 1_555 1_555
H15_3 C33_3 1_555 1_555
Zn5_3 O23_3 1_555 1_555
Zn6_3 O24_3 1_555 1_555
O21_3 C39_3 1_555 1_555
O23_3 C43_3 1_555 1_555
C37_3 H16_3 1_555 1_555
C38_3 C37_3 1_555 1_555
C39_3 C40_3 1_555 1_555
C40_3 C38_3 1_555 1_555
H17_3 C40_3 1_555 1_555
C41_3 C37_3 1_555 1_555
C42_3 C39_3 1_555 1_555
H18_3 C42_3 1_555 1_555
O24_3 C43_3 1_555 1_555
C43_3 C38_3 1_555 1_555
C44_3 O73_2 1_555 1_555
C45_3 O21_3 1_555 1_555
H19_3 C45_3 1_555 1_555
C46_3 C45_3 1_555 1_555
C47_3 C46_3 1_555 1_555
C48_3 C47_3 1_555 1_555
O26_3 C51_3 1_555 1_555
O27_3 C56_3 1_555 1_555
O28_3 C55_3 1_555 1_555
C49_3 H20_3 1_555 1_555
C50_3 C49_3 1_555 1_555
C51_3 C52_3 1_555 1_555
C52_3 C50_3 1_555 1_555
H21_3 C52_3 1_555 1_555
C53_3 C49_3 1_555 1_555
C54_3 C51_3 1_555 1_555
H22_3 C54_3 1_555 1_555
O29_3 C55_3 1_555 1_555
C55_3 C50_3 1_555 1_555
O30_3 C56_3 1_555 1_555
C56_3 C53_3 1_555 1_555
C57_3 O26_3 1_555 1_555
H23_3 C57_3 1_555 1_555
C58_3 C47_3 1_555 1_555
C59_3 C58_3 1_555 1_555
C60_3 C59_3 1_555 1_555
O31_3 C63_3 1_555 1_555
O32_3 C68_3 1_555 1_555
O33_3 C67_3 1_555 1_555
C61_3 H24_3 1_555 1_555
C62_3 C61_3 1_555 1_555
C63_3 C64_3 1_555 1_555
C64_3 C62_3 1_555 1_555
H25_3 C64_3 1_555 1_555
C65_3 C61_3 1_555 1_555
C66_3 C63_3 1_555 1_555
H26_3 C66_3 1_555 1_555
O34_3 C67_3 1_555 1_555
C67_3 C62_3 1_555 1_555
O35_3 C68_3 1_555 1_555
C68_3 C65_3 1_555 1_555
C69_3 O31_3 1_555 1_555
H27_3 C69_3 1_555 1_555
C70_3 C59_3 1_555 1_555
C71_3 C46_3 1_555 1_555
C72_3 C71_3 1_555 1_555
H28_3 C45_3 1_555 1_555
H29_3 C57_3 1_555 1_555
H30_3 C69_3 1_555 1_555
O36_5 C75_5 1_555 1_555
O74_2 C80_5 1_555 1_555
O38_3 Zn3_3 1_555 1_555
C73_5 H31_5 1_555 1_555
C74_5 C73_5 1_555 1_555
C75_5 C76_5 1_555 1_555
C76_5 C74_5 1_555 1_555
H32_5 C76_5 1_555 1_555
C77_5 C73_5 1_555 1_555
C78_5 C75_5 1_555 1_555
H33_5 C78_5 1_555 1_555
O40_3 Zn4_3 1_555 1_555
C79_5 O38_3 1_555 1_555
O90_2 C80_5 1_555 1_555
C80_5 C77_5 1_555 1_555
C81_5 O36_5 1_555 1_555
H34_5 C81_5 1_555 1_555
C82_5 C81_5 1_555 1_555
C83_5 C82_5 1_555 1_555
C84_5 C83_5 1_555 1_555
O43_5 C87_5 1_555 1_555
O44_5 C92_5 1_555 1_555
O45_5 C91_5 1_555 1_555
C85_5 H35_5 1_555 1_555
C86_5 C85_5 1_555 1_555
C87_5 C88_5 1_555 1_555
C88_5 C86_5 1_555 1_555
H36_5 C88_5 1_555 1_555
C89_5 C85_5 1_555 1_555
C90_5 C87_5 1_555 1_555
H37_5 C90_5 1_555 1_555
O46_5 C91_5 1_555 1_555
C91_5 C86_5 1_555 1_555
O47_5 C92_5 1_555 1_555
C92_5 C89_5 1_555 1_555
C93_5 O43_5 1_555 1_555
H38_5 C93_5 1_555 1_555
C94_5 C83_5 1_555 1_555
C95_5 C94_5 1_555 1_555
C96_5 C95_5 1_555 1_555
O48_5 C99_5 1_555 1_555
O49_5 C104_5 1_555 1_555
O50_5 C103_5 1_555 1_555
C97_5 H39_5 1_555 1_555
C98_5 C97_5 1_555 1_555
C99_5 C100_5 1_555 1_555
C100_5 C98_5 1_555 1_555
H40_5 C100_5 1_555 1_555
C101_5 C97_5 1_555 1_555
C102_5 C99_5 1_555 1_555
H41_5 C102_5 1_555 1_555
O51_5 C103_5 1_555 1_555
C103_5 C98_5 1_555 1_555
O52_5 C104_5 1_555 1_555
C104_5 C101_5 1_555 1_555
C105_5 O48_5 1_555 1_555
H42_5 C105_5 1_555 1_555
C106_5 C95_5 1_555 1_555
C107_5 C82_5 1_555 1_555
C108_5 C107_5 1_555 1_555
H43_5 C81_5 1_555 1_555
H44_5 C93_5 1_555 1_555
H45_5 C105_5 1_555 1_555
O53_5 C111_5 1_555 1_555
O76_2 C116_5 1_555 1_555
O55_3 Zn3_3 1_555 1_555
C109_5 H46_5 1_555 1_555
C110_5 C109_5 1_555 1_555
C111_5 C112_5 1_555 1_555
C112_5 C110_5 1_555 1_555
H47_5 C112_5 1_555 1_555
C113_5 C109_5 1_555 1_555
C114_5 C111_5 1_555 1_555
H48_5 C114_5 1_555 1_555
O57_3 Zn4_3 1_555 1_555
C115_5 O55_3 1_555 1_555
O92_2 C116_5 1_555 1_555
C116_5 C113_5 1_555 1_555
C117_5 O53_5 1_555 1_555
H49_5 C117_5 1_555 1_555
C118_5 C117_5 1_555 1_555
C119_5 C118_5 1_555 1_555
C120_5 C119_5 1_555 1_555
O60_5 C123_5 1_555 1_555
O61_5 C128_5 1_555 1_555
O62_5 C127_5 1_555 1_555
C121_5 H50_5 1_555 1_555
C122_5 C121_5 1_555 1_555
C123_5 C124_5 1_555 1_555
C124_5 C122_5 1_555 1_555
H51_5 C124_5 1_555 1_555
C125_5 C121_5 1_555 1_555
C126_5 C123_5 1_555 1_555
H52_5 C126_5 1_555 1_555
O63_5 C127_5 1_555 1_555
C127_5 C122_5 1_555 1_555
O64_5 C128_5 1_555 1_555
C128_5 C125_5 1_555 1_555
C129_5 O60_5 1_555 1_555
H53_5 C129_5 1_555 1_555
C130_5 C119_5 1_555 1_555
C131_5 C130_5 1_555 1_555
C132_5 C131_5 1_555 1_555
O65_5 C135_5 1_555 1_555
O66_5 C140_5 1_555 1_555
O67_5 C139_5 1_555 1_555
C133_5 H54_5 1_555 1_555
C134_5 C133_5 1_555 1_555
C135_5 C136_5 1_555 1_555
C136_5 C134_5 1_555 1_555
H55_5 C136_5 1_555 1_555
C137_5 C133_5 1_555 1_555
C138_5 C135_5 1_555 1_555
H56_5 C138_5 1_555 1_555
O68_5 C139_5 1_555 1_555
C139_5 C134_5 1_555 1_555
O69_5 C140_5 1_555 1_555
C140_5 C137_5 1_555 1_555
C141_5 O65_5 1_555 1_555
H57_5 C141_5 1_555 1_555
C142_5 C131_5 1_555 1_555
C143_5 C118_5 1_555 1_555
C144_5 C143_5 1_555 1_555
H58_5 C117_5 1_555 1_555
H59_5 C129_5 1_555 1_555
H60_5 C141_5 1_555 1_555
Zn11_3 O13_3 1_555 1_555
Zn12_3 O14_3 1_555 1_555
Zn13_3 O18_3 1_555 1_555
Zn14_3 O19_3 1_555 1_555
Zn19_4 O52_5 1_555 1_555
Zn18_4 O15_3 1_555 1_555
Zn18_2 O30_3 1_555 1_555
Zn17 O69_5 1_555 1_555
Zn15_4 O47_5 1_555 1_555
Zn22 O64_5 1_555 1_555
Zn20_4 O20_3 1_555 1_555
Zn20_2 O35_3 1_555 1_555
Zn27_4 O49_5 1_555 1_555
Zn26_4 O12_3 1_555 1_555
Zn26_2 O27_3 1_555 1_555
Zn25 O66_5 1_555 1_555
Zn23_4 O44_5 1_555 1_555
Zn30 O61_5 1_555 1_555
Zn28_4 O17_3 1_555 1_555
Zn28_2 O32_3 1_555 1_555
Zn31_3 O28_3 1_555 1_555
Zn32_5 O45_5 1_555 1_555
Zn33_3 O33_3 1_555 1_555
Zn34_3 O29_3 1_555 1_555
Zn35_5 O46_5 1_555 1_555
Zn36_3 O34_3 1_555 1_555
O78_3 Zn5_3 1_555 1_555
O79_3 Zn5_3 1_555 1_555
O80_9 Zn11_3 1_555 1_555
O81_5 Zn13_3 1_555 1_555
O82_3 Zn6_3 1_555 1_555
O83_3 Zn6_3 1_555 1_555
O84_9 Zn12_3 1_555 1_555
O85_5 Zn14_3 1_555 1_555
C5_3 C6_3 1_555 1_555
C17_3 C18_3 1_555 1_555
C21_3 C22_3 1_555 1_555
C29_3 C30_3 1_555 1_555
C33_3 C34_3 1_555 1_555
C34_3 C35_3 1_555 1_555
C41_3 C42_3 1_555 1_555
C41_3 C44_3 1_555 1_555
O89_2 C44_3 1_555 1_555
C53_3 C54_3 1_555 1_555
C57_3 C58_3 1_555 1_555
C65_3 C66_3 1_555 1_555
C69_3 C70_3 1_555 1_555
C70_3 C71_3 1_555 1_555
C74_5 C79_5 1_555 1_555
C77_5 C78_5 1_555 1_555
O40_3 C79_5 1_555 1_555
C89_5 C90_5 1_555 1_555
C93_5 C94_5 1_555 1_555
O50_5 Zn11_3 1_555 1_555
C101_5 C102_5 1_555 1_555
O51_5 Zn12_3 1_555 1_555
C105_5 C106_5 1_555 1_555
C106_5 C107_5 1_555 1_555
C110_5 C115_5 1_555 1_555
C113_5 C114_5 1_555 1_555
O57_3 C115_5 1_555 1_555
O62_5 Zn13_3 1_555 1_555
C125_5 C126_5 1_555 1_555
O63_5 Zn14_3 1_555 1_555
C129_5 C130_5 1_555 1_555
O67_5 Zn32_5 1_555 1_555
C137_5 C138_5 1_555 1_555
O68_5 Zn35_5 1_555 1_555
C141_5 C142_5 1_555 1_555
C142_5 C143_5 1_555 1_555
O72_2 H61_13 1_555 1_555
C12_3 H62_3 1_555 1_555
C12_3 H63_3 1_555 1_555
C12_3 H64_3 1_555 1_555
C48_3 H69_3 1_555 1_555
C48_3 H70_3 1_555 1_555
C48_3 H71_3 1_555 1_555
C24_3 H72_3 1_555 1_555
C24_3 H73_3 1_555 1_555
C24_3 H74_3 1_555 1_555
C36_3 H75_3 1_555 1_555
C36_3 H76_3 1_555 1_555
C36_3 H77_3 1_555 1_555
C84_5 H78_5 1_555 1_555
C84_5 H79_5 1_555 1_555
C84_5 H80_5 1_555 1_555
C60_3 H81_3 1_555 1_555
C60_3 H82_3 1_555 1_555
C60_3 H83_3 1_555 1_555
C72_3 H84_3 1_555 1_555
C72_3 H85_3 1_555 1_555
C72_3 H86_3 1_555 1_555
C96_5 H91_5 1_555 1_555
C96_5 H92_5 1_555 1_555
C96_5 H93_5 1_555 1_555
C108_5 H94_5 1_555 1_555
C108_5 H95_5 1_555 1_555
C108_5 H96_5 1_555 1_555
C120_5 H99_5 1_555 1_555
C120_5 H100_5 1_555 1_555
C120_5 H101_5 1_555 1_555
C144_5 H104_5 1_555 1_555
C144_5 H105_5 1_555 1_555
C144_5 H106_5 1_555 1_555
C132_5 H107_5 1_555 1_555
C132_5 H108_5 1_555 1_555
C132_5 H109_5 1_555 1_555
Zn3_4 O6_4 1_555 1_555
Zn4_4 O8_4 1_555 1_555
O4_4 C3_4 1_555 1_555
O72 C8_4 1_555 1_555
O6_4 C7_4 1_555 1_555
C1_4 H1_4 1_555 1_555
C2_4 C1_4 1_555 1_555
C3_4 C4_4 1_555 1_555
C4_4 C2_4 1_555 1_555
H2_4 C4_4 1_555 1_555
C5_4 C1_4 1_555 1_555
C6_4 C3_4 1_555 1_555
H3_4 C6_4 1_555 1_555
O8_4 C7_4 1_555 1_555
C7_4 C2_4 1_555 1_555
O88 C8_4 1_555 1_555
C8_4 C5_4 1_555 1_555
C9_4 O4_4 1_555 1_555
H4_4 C9_4 1_555 1_555
C10_4 C9_4 1_555 1_555
C11_4 C10_4 1_555 1_555
C12_4 C11_4 1_555 1_555
O11_4 C15_4 1_555 1_555
O12_4 C20_4 1_555 1_555
O13_4 C19_4 1_555 1_555
C13_4 H5_4 1_555 1_555
C14_4 C13_4 1_555 1_555
C15_4 C16_4 1_555 1_555
C16_4 C14_4 1_555 1_555
H6_4 C16_4 1_555 1_555
C17_4 C13_4 1_555 1_555
C18_4 C15_4 1_555 1_555
H7_4 C18_4 1_555 1_555
O14_4 C19_4 1_555 1_555
C19_4 C14_4 1_555 1_555
O15_4 C20_4 1_555 1_555
C20_4 C17_4 1_555 1_555
C21_4 O11_4 1_555 1_555
H8_4 C21_4 1_555 1_555
C22_4 C11_4 1_555 1_555
C23_4 C22_4 1_555 1_555
C24_4 C23_4 1_555 1_555
O16_4 C27_4 1_555 1_555
O17_4 C32_4 1_555 1_555
O18_4 C31_4 1_555 1_555
C25_4 H9_4 1_555 1_555
C26_4 C25_4 1_555 1_555
C27_4 C28_4 1_555 1_555
C28_4 C26_4 1_555 1_555
H10_4 C28_4 1_555 1_555
C29_4 C25_4 1_555 1_555
C30_4 C27_4 1_555 1_555
H11_4 C30_4 1_555 1_555
O19_4 C31_4 1_555 1_555
C31_4 C26_4 1_555 1_555
O20_4 C32_4 1_555 1_555
C32_4 C29_4 1_555 1_555
C33_4 O16_4 1_555 1_555
H12_4 C33_4 1_555 1_555
C34_4 C23_4 1_555 1_555
C35_4 C10_4 1_555 1_555
C36_4 C35_4 1_555 1_555
H13_4 C9_4 1_555 1_555
H14_4 C21_4 1_555 1_555
H15_4 C33_4 1_555 1_555
Zn5_4 O23_4 1_555 1_555
Zn6_4 O24_4 1_555 1_555
O21_4 C39_4 1_555 1_555
O23_4 C43_4 1_555 1_555
C37_4 H16_4 1_555 1_555
C38_4 C37_4 1_555 1_555
C39_4 C40_4 1_555 1_555
C40_4 C38_4 1_555 1_555
H17_4 C40_4 1_555 1_555
C41_4 C37_4 1_555 1_555
C42_4 C39_4 1_555 1_555
H18_4 C42_4 1_555 1_555
O24_4 C43_4 1_555 1_555
C43_4 C38_4 1_555 1_555
C44_4 O73 1_555 1_555
C45_4 O21_4 1_555 1_555
H19_4 C45_4 1_555 1_555
C46_4 C45_4 1_555 1_555
C47_4 C46_4 1_555 1_555
C48_4 C47_4 1_555 1_555
O26_4 C51_4 1_555 1_555
O27_4 C56_4 1_555 1_555
O28_4 C55_4 1_555 1_555
C49_4 H20_4 1_555 1_555
C50_4 C49_4 1_555 1_555
C51_4 C52_4 1_555 1_555
C52_4 C50_4 1_555 1_555
H21_4 C52_4 1_555 1_555
C53_4 C49_4 1_555 1_555
C54_4 C51_4 1_555 1_555
H22_4 C54_4 1_555 1_555
O29_4 C55_4 1_555 1_555
C55_4 C50_4 1_555 1_555
O30_4 C56_4 1_555 1_555
C56_4 C53_4 1_555 1_555
C57_4 O26_4 1_555 1_555
H23_4 C57_4 1_555 1_555
C58_4 C47_4 1_555 1_555
C59_4 C58_4 1_555 1_555
C60_4 C59_4 1_555 1_555
O31_4 C63_4 1_555 1_555
O32_4 C68_4 1_555 1_555
O33_4 C67_4 1_555 1_555
C61_4 H24_4 1_555 1_555
C62_4 C61_4 1_555 1_555
C63_4 C64_4 1_555 1_555
C64_4 C62_4 1_555 1_555
H25_4 C64_4 1_555 1_555
C65_4 C61_4 1_555 1_555
C66_4 C63_4 1_555 1_555
H26_4 C66_4 1_555 1_555
O34_4 C67_4 1_555 1_555
C67_4 C62_4 1_555 1_555
O35_4 C68_4 1_555 1_555
C68_4 C65_4 1_555 1_555
C69_4 O31_4 1_555 1_555
H27_4 C69_4 1_555 1_555
C70_4 C59_4 1_555 1_555
C71_4 C46_4 1_555 1_555
C72_4 C71_4 1_555 1_555
H28_4 C45_4 1_555 1_555
H29_4 C57_4 1_555 1_555
H30_4 C69_4 1_555 1_555
O36_6 C75_6 1_555 1_555
O75_2 C80_6 1_555 1_555
O38_4 Zn3_4 1_555 1_555
C73_6 H31_6 1_555 1_555
C74_6 C73_6 1_555 1_555
C75_6 C76_6 1_555 1_555
C76_6 C74_6 1_555 1_555
H32_6 C76_6 1_555 1_555
C77_6 C73_6 1_555 1_555
C78_6 C75_6 1_555 1_555
H33_6 C78_6 1_555 1_555
O40_4 Zn4_4 1_555 1_555
C79_6 O38_4 1_555 1_555
O91_2 C80_6 1_555 1_555
C80_6 C77_6 1_555 1_555
C81_6 O36_6 1_555 1_555
H34_6 C81_6 1_555 1_555
C82_6 C81_6 1_555 1_555
C83_6 C82_6 1_555 1_555
C84_6 C83_6 1_555 1_555
O43_6 C87_6 1_555 1_555
O44_6 C92_6 1_555 1_555
O45_6 C91_6 1_555 1_555
C85_6 H35_6 1_555 1_555
C86_6 C85_6 1_555 1_555
C87_6 C88_6 1_555 1_555
C88_6 C86_6 1_555 1_555
H36_6 C88_6 1_555 1_555
C89_6 C85_6 1_555 1_555
C90_6 C87_6 1_555 1_555
H37_6 C90_6 1_555 1_555
O46_6 C91_6 1_555 1_555
C91_6 C86_6 1_555 1_555
O47_6 C92_6 1_555 1_555
C92_6 C89_6 1_555 1_555
C93_6 O43_6 1_555 1_555
H38_6 C93_6 1_555 1_555
C94_6 C83_6 1_555 1_555
C95_6 C94_6 1_555 1_555
C96_6 C95_6 1_555 1_555
O48_6 C99_6 1_555 1_555
O49_6 C104_6 1_555 1_555
O50_6 C103_6 1_555 1_555
C97_6 H39_6 1_555 1_555
C98_6 C97_6 1_555 1_555
C99_6 C100_6 1_555 1_555
C100_6 C98_6 1_555 1_555
H40_6 C100_6 1_555 1_555
C101_6 C97_6 1_555 1_555
C102_6 C99_6 1_555 1_555
H41_6 C102_6 1_555 1_555
O51_6 C103_6 1_555 1_555
C103_6 C98_6 1_555 1_555
O52_6 C104_6 1_555 1_555
C104_6 C101_6 1_555 1_555
C105_6 O48_6 1_555 1_555
H42_6 C105_6 1_555 1_555
C106_6 C95_6 1_555 1_555
C107_6 C82_6 1_555 1_555
C108_6 C107_6 1_555 1_555
H43_6 C81_6 1_555 1_555
H44_6 C93_6 1_555 1_555
H45_6 C105_6 1_555 1_555
O53_6 C111_6 1_555 1_555
O76 C116_6 1_555 1_555
O55_4 Zn3_4 1_555 1_555
C109_6 H46_6 1_555 1_555
C110_6 C109_6 1_555 1_555
C111_6 C112_6 1_555 1_555
C112_6 C110_6 1_555 1_555
H47_6 C112_6 1_555 1_555
C113_6 C109_6 1_555 1_555
C114_6 C111_6 1_555 1_555
H48_6 C114_6 1_555 1_555
O57_4 Zn4_4 1_555 1_555
C115_6 O55_4 1_555 1_555
O92 C116_6 1_555 1_555
C116_6 C113_6 1_555 1_555
C117_6 O53_6 1_555 1_555
H49_6 C117_6 1_555 1_555
C118_6 C117_6 1_555 1_555
C119_6 C118_6 1_555 1_555
C120_6 C119_6 1_555 1_555
O60_6 C123_6 1_555 1_555
O61_6 C128_6 1_555 1_555
O62_6 C127_6 1_555 1_555
C121_6 H50_6 1_555 1_555
C122_6 C121_6 1_555 1_555
C123_6 C124_6 1_555 1_555
C124_6 C122_6 1_555 1_555
H51_6 C124_6 1_555 1_555
C125_6 C121_6 1_555 1_555
C126_6 C123_6 1_555 1_555
H52_6 C126_6 1_555 1_555
O63_6 C127_6 1_555 1_555
C127_6 C122_6 1_555 1_555
O64_6 C128_6 1_555 1_555
C128_6 C125_6 1_555 1_555
C129_6 O60_6 1_555 1_555
H53_6 C129_6 1_555 1_555
C130_6 C119_6 1_555 1_555
C131_6 C130_6 1_555 1_555
C132_6 C131_6 1_555 1_555
O65_6 C135_6 1_555 1_555
O66_6 C140_6 1_555 1_555
O67_6 C139_6 1_555 1_555
C133_6 H54_6 1_555 1_555
C134_6 C133_6 1_555 1_555
C135_6 C136_6 1_555 1_555
C136_6 C134_6 1_555 1_555
H55_6 C136_6 1_555 1_555
C137_6 C133_6 1_555 1_555
C138_6 C135_6 1_555 1_555
H56_6 C138_6 1_555 1_555
O68_6 C139_6 1_555 1_555
C139_6 C134_6 1_555 1_555
O69_6 C140_6 1_555 1_555
C140_6 C137_6 1_555 1_555
C141_6 O65_6 1_555 1_555
H57_6 C141_6 1_555 1_555
C142_6 C131_6 1_555 1_555
C143_6 C118_6 1_555 1_555
C144_6 C143_6 1_555 1_555
H58_6 C117_6 1_555 1_555
H59_6 C129_6 1_555 1_555
H60_6 C141_6 1_555 1_555
Zn11_4 O13_4 1_555 1_555
Zn12_4 O14_4 1_555 1_555
Zn13_4 O18_4 1_555 1_555
Zn14_4 O19_4 1_555 1_555
Zn19_2 O52_6 1_555 1_555
Zn18_3 O15_4 1_555 1_555
Zn18 O30_4 1_555 1_555
Zn17_2 O69_6 1_555 1_555
Zn15_2 O47_6 1_555 1_555
Zn21_2 O64_6 1_555 1_555
Zn20 O20_4 1_555 1_555
Zn20_3 O35_4 1_555 1_555
Zn27_2 O49_6 1_555 1_555
Zn26_3 O12_4 1_555 1_555
Zn26 O27_4 1_555 1_555
Zn25_2 O66_6 1_555 1_555
Zn23_2 O44_6 1_555 1_555
Zn29_2 O61_6 1_555 1_555
Zn28 O17_4 1_555 1_555
Zn28_3 O32_4 1_555 1_555
Zn31_4 O28_4 1_555 1_555
Zn32_6 O45_6 1_555 1_555
Zn33_4 O33_4 1_555 1_555
Zn34_4 O29_4 1_555 1_555
Zn35_6 O46_6 1_555 1_555
Zn36_4 O34_4 1_555 1_555
O78_4 Zn5_4 1_555 1_555
O79_4 Zn5_4 1_555 1_555
O80_10 Zn11_4 1_555 1_555
O81_6 Zn13_4 1_555 1_555
O82_4 Zn6_4 1_555 1_555
O83_4 Zn6_4 1_555 1_555
O84_10 Zn12_4 1_555 1_555
O85_6 Zn14_4 1_555 1_555
C5_4 C6_4 1_555 1_555
C17_4 C18_4 1_555 1_555
C21_4 C22_4 1_555 1_555
C29_4 C30_4 1_555 1_555
C33_4 C34_4 1_555 1_555
C34_4 C35_4 1_555 1_555
C41_4 C42_4 1_555 1_555
C41_4 C44_4 1_555 1_555
O89 C44_4 1_555 1_555
C53_4 C54_4 1_555 1_555
C57_4 C58_4 1_555 1_555
C65_4 C66_4 1_555 1_555
C69_4 C70_4 1_555 1_555
C70_4 C71_4 1_555 1_555
C74_6 C79_6 1_555 1_555
C77_6 C78_6 1_555 1_555
O40_4 C79_6 1_555 1_555
C89_6 C90_6 1_555 1_555
C93_6 C94_6 1_555 1_555
O50_6 Zn11_4 1_555 1_555
C101_6 C102_6 1_555 1_555
O51_6 Zn12_4 1_555 1_555
C105_6 C106_6 1_555 1_555
C106_6 C107_6 1_555 1_555
C110_6 C115_6 1_555 1_555
C113_6 C114_6 1_555 1_555
O57_4 C115_6 1_555 1_555
O62_6 Zn13_4 1_555 1_555
C125_6 C126_6 1_555 1_555
O63_6 Zn14_4 1_555 1_555
C129_6 C130_6 1_555 1_555
O67_6 Zn32_6 1_555 1_555
C137_6 C138_6 1_555 1_555
O68_6 Zn35_6 1_555 1_555
C141_6 C142_6 1_555 1_555
C142_6 C143_6 1_555 1_555
O72 H61_14 1_555 1_555
C12_4 H62_4 1_555 1_555
C12_4 H63_4 1_555 1_555
C12_4 H64_4 1_555 1_555
C48_4 H69_4 1_555 1_555
C48_4 H70_4 1_555 1_555
C48_4 H71_4 1_555 1_555
C24_4 H72_4 1_555 1_555
C24_4 H73_4 1_555 1_555
C24_4 H74_4 1_555 1_555
C36_4 H75_4 1_555 1_555
C36_4 H76_4 1_555 1_555
C36_4 H77_4 1_555 1_555
C84_6 H78_6 1_555 1_555
C84_6 H79_6 1_555 1_555
C84_6 H80_6 1_555 1_555
C60_4 H81_4 1_555 1_555
C60_4 H82_4 1_555 1_555
C60_4 H83_4 1_555 1_555
C72_4 H84_4 1_555 1_555
C72_4 H85_4 1_555 1_555
C72_4 H86_4 1_555 1_555
C96_6 H91_6 1_555 1_555
C96_6 H92_6 1_555 1_555
C96_6 H93_6 1_555 1_555
C108_6 H94_6 1_555 1_555
C108_6 H95_6 1_555 1_555
C108_6 H96_6 1_555 1_555
C120_6 H99_6 1_555 1_555
C120_6 H100_6 1_555 1_555
C120_6 H101_6 1_555 1_555
C144_6 H104_6 1_555 1_555
C144_6 H105_6 1_555 1_555
C144_6 H106_6 1_555 1_555
C132_6 H107_6 1_555 1_555
C132_6 H108_6 1_555 1_555
C132_6 H109_6 1_555 1_555
O36_7 C75_7 1_555 1_555
O75 C80_7 1_555 1_555
C73_7 H31_7 1_555 1_555
C74_7 C73_7 1_555 1_555
C75_7 C76_7 1_555 1_555
C76_7 C74_7 1_555 1_555
H32_7 C76_7 1_555 1_555
C77_7 C73_7 1_555 1_555
C78_7 C75_7 1_555 1_555
H33_7 C78_7 1_555 1_555
C79_7 O78_3 1_555 1_555
O91 C80_7 1_555 1_555
C80_7 C77_7 1_555 1_555
C81_7 O36_7 1_555 1_555
H34_7 C81_7 1_555 1_555
C82_7 C81_7 1_555 1_555
C83_7 C82_7 1_555 1_555
C84_7 C83_7 1_555 1_555
O43_7 C87_7 1_555 1_555
O44_7 C92_7 1_555 1_555
O45_7 C91_7 1_555 1_555
C85_7 H35_7 1_555 1_555
C86_7 C85_7 1_555 1_555
C87_7 C88_7 1_555 1_555
C88_7 C86_7 1_555 1_555
H36_7 C88_7 1_555 1_555
C89_7 C85_7 1_555 1_555
C90_7 C87_7 1_555 1_555
H37_7 C90_7 1_555 1_555
O46_7 C91_7 1_555 1_555
C91_7 C86_7 1_555 1_555
O47_7 C92_7 1_555 1_555
C92_7 C89_7 1_555 1_555
C93_7 O43_7 1_555 1_555
H38_7 C93_7 1_555 1_555
C94_7 C83_7 1_555 1_555
C95_7 C94_7 1_555 1_555
C96_7 C95_7 1_555 1_555
O48_7 C99_7 1_555 1_555
O49_7 C104_7 1_555 1_555
O50_7 C103_7 1_555 1_555
C97_7 H39_7 1_555 1_555
C98_7 C97_7 1_555 1_555
C99_7 C100_7 1_555 1_555
C100_7 C98_7 1_555 1_555
H40_7 C100_7 1_555 1_555
C101_7 C97_7 1_555 1_555
C102_7 C99_7 1_555 1_555
H41_7 C102_7 1_555 1_555
O51_7 C103_7 1_555 1_555
C103_7 C98_7 1_555 1_555
O52_7 C104_7 1_555 1_555
C104_7 C101_7 1_555 1_555
C105_7 O48_7 1_555 1_555
H42_7 C105_7 1_555 1_555
C106_7 C95_7 1_555 1_555
C107_7 C82_7 1_555 1_555
C108_7 C107_7 1_555 1_555
H43_7 C81_7 1_555 1_555
H44_7 C93_7 1_555 1_555
H45_7 C105_7 1_555 1_555
O53_7 C111_7 1_555 1_555
O77 C116_7 1_555 1_555
C109_7 H46_7 1_555 1_555
C110_7 C109_7 1_555 1_555
C111_7 C112_7 1_555 1_555
C112_7 C110_7 1_555 1_555
H47_7 C112_7 1_555 1_555
C113_7 C109_7 1_555 1_555
C114_7 C111_7 1_555 1_555
H48_7 C114_7 1_555 1_555
C115_7 O79_3 1_555 1_555
O93 C116_7 1_555 1_555
C116_7 C113_7 1_555 1_555
C117_7 O53_7 1_555 1_555
H49_7 C117_7 1_555 1_555
C118_7 C117_7 1_555 1_555
C119_7 C118_7 1_555 1_555
C120_7 C119_7 1_555 1_555
O60_7 C123_7 1_555 1_555
O61_7 C128_7 1_555 1_555
O62_7 C127_7 1_555 1_555
C121_7 H50_7 1_555 1_555
C122_7 C121_7 1_555 1_555
C123_7 C124_7 1_555 1_555
C124_7 C122_7 1_555 1_555
H51_7 C124_7 1_555 1_555
C125_7 C121_7 1_555 1_555
C126_7 C123_7 1_555 1_555
H52_7 C126_7 1_555 1_555
O63_7 C127_7 1_555 1_555
C127_7 C122_7 1_555 1_555
O64_7 C128_7 1_555 1_555
C128_7 C125_7 1_555 1_555
C129_7 O60_7 1_555 1_555
H53_7 C129_7 1_555 1_555
C130_7 C119_7 1_555 1_555
C131_7 C130_7 1_555 1_555
C132_7 C131_7 1_555 1_555
O65_7 C135_7 1_555 1_555
O66_7 C140_7 1_555 1_555
O67_7 C139_7 1_555 1_555
C133_7 H54_7 1_555 1_555
C134_7 C133_7 1_555 1_555
C135_7 C136_7 1_555 1_555
C136_7 C134_7 1_555 1_555
H55_7 C136_7 1_555 1_555
C137_7 C133_7 1_555 1_555
C138_7 C135_7 1_555 1_555
H56_7 C138_7 1_555 1_555
O68_7 C139_7 1_555 1_555
C139_7 C134_7 1_555 1_555
O69_7 C140_7 1_555 1_555
C140_7 C137_7 1_555 1_555
C141_7 O65_7 1_555 1_555
H57_7 C141_7 1_555 1_555
C142_7 C131_7 1_555 1_555
C143_7 C118_7 1_555 1_555
C144_7 C143_7 1_555 1_555
H58_7 C117_7 1_555 1_555
H59_7 C129_7 1_555 1_555
H60_7 C141_7 1_555 1_555
Zn19_3 O52_7 1_555 1_555
Zn16_2 O69_7 1_555 1_555
Zn15 O47_7 1_555 1_555
Zn22_2 O64_7 1_555 1_555
Zn27_3 O49_7 1_555 1_555
Zn24_2 O66_7 1_555 1_555
Zn23 O44_7 1_555 1_555
Zn30_2 O61_7 1_555 1_555
Zn32_7 O45_7 1_555 1_555
Zn35_7 O46_7 1_555 1_555
O80_11 Zn31_3 1_555 1_555
O81_7 Zn33_3 1_555 1_555
O84_11 Zn34_3 1_555 1_555
O85_7 Zn36_3 1_555 1_555
C74_7 C79_7 1_555 1_555
C77_7 C78_7 1_555 1_555
O82_3 C79_7 1_555 1_555
C89_7 C90_7 1_555 1_555
C93_7 C94_7 1_555 1_555
O50_7 Zn31_3 1_555 1_555
C101_7 C102_7 1_555 1_555
O51_7 Zn34_3 1_555 1_555
C105_7 C106_7 1_555 1_555
C106_7 C107_7 1_555 1_555
C110_7 C115_7 1_555 1_555
C113_7 C114_7 1_555 1_555
O83_3 C115_7 1_555 1_555
O62_7 Zn33_3 1_555 1_555
C125_7 C126_7 1_555 1_555
O63_7 Zn36_3 1_555 1_555
C129_7 C130_7 1_555 1_555
O67_7 Zn32_7 1_555 1_555
C137_7 C138_7 1_555 1_555
O68_7 Zn35_7 1_555 1_555
C141_7 C142_7 1_555 1_555
C142_7 C143_7 1_555 1_555
O73_2 H61_15 1_555 1_555
C84_7 H78_7 1_555 1_555
C84_7 H79_7 1_555 1_555
C84_7 H80_7 1_555 1_555
C96_7 H91_7 1_555 1_555
C96_7 H92_7 1_555 1_555
C96_7 H93_7 1_555 1_555
C108_7 H94_7 1_555 1_555
C108_7 H95_7 1_555 1_555
C108_7 H96_7 1_555 1_555
C120_7 H99_7 1_555 1_555
C120_7 H100_7 1_555 1_555
C120_7 H101_7 1_555 1_555
C144_7 H104_7 1_555 1_555
C144_7 H105_7 1_555 1_555
C144_7 H106_7 1_555 1_555
C132_7 H107_7 1_555 1_555
C132_7 H108_7 1_555 1_555
C132_7 H109_7 1_555 1_555
O36_8 C75_8 1_555 1_555
O74 C80_8 1_555 1_555
C73_8 H31_8 1_555 1_555
C74_8 C73_8 1_555 1_555
C75_8 C76_8 1_555 1_555
C76_8 C74_8 1_555 1_555
H32_8 C76_8 1_555 1_555
C77_8 C73_8 1_555 1_555
C78_8 C75_8 1_555 1_555
H33_8 C78_8 1_555 1_555
C79_8 O78_4 1_555 1_555
O90 C80_8 1_555 1_555
C80_8 C77_8 1_555 1_555
C81_8 O36_8 1_555 1_555
H34_8 C81_8 1_555 1_555
C82_8 C81_8 1_555 1_555
C83_8 C82_8 1_555 1_555
C84_8 C83_8 1_555 1_555
O43_8 C87_8 1_555 1_555
O44_8 C92_8 1_555 1_555
O45_8 C91_8 1_555 1_555
C85_8 H35_8 1_555 1_555
C86_8 C85_8 1_555 1_555
C87_8 C88_8 1_555 1_555
C88_8 C86_8 1_555 1_555
H36_8 C88_8 1_555 1_555
C89_8 C85_8 1_555 1_555
C90_8 C87_8 1_555 1_555
H37_8 C90_8 1_555 1_555
O46_8 C91_8 1_555 1_555
C91_8 C86_8 1_555 1_555
O47_8 C92_8 1_555 1_555
C92_8 C89_8 1_555 1_555
C93_8 O43_8 1_555 1_555
H38_8 C93_8 1_555 1_555
C94_8 C83_8 1_555 1_555
C95_8 C94_8 1_555 1_555
C96_8 C95_8 1_555 1_555
O48_8 C99_8 1_555 1_555
O49_8 C104_8 1_555 1_555
O50_8 C103_8 1_555 1_555
C97_8 H39_8 1_555 1_555
C98_8 C97_8 1_555 1_555
C99_8 C100_8 1_555 1_555
C100_8 C98_8 1_555 1_555
H40_8 C100_8 1_555 1_555
C101_8 C97_8 1_555 1_555
C102_8 C99_8 1_555 1_555
H41_8 C102_8 1_555 1_555
O51_8 C103_8 1_555 1_555
C103_8 C98_8 1_555 1_555
O52_8 C104_8 1_555 1_555
C104_8 C101_8 1_555 1_555
C105_8 O48_8 1_555 1_555
H42_8 C105_8 1_555 1_555
C106_8 C95_8 1_555 1_555
C107_8 C82_8 1_555 1_555
C108_8 C107_8 1_555 1_555
H43_8 C81_8 1_555 1_555
H44_8 C93_8 1_555 1_555
H45_8 C105_8 1_555 1_555
O53_8 C111_8 1_555 1_555
O77_2 C116_8 1_555 1_555
C109_8 H46_8 1_555 1_555
C110_8 C109_8 1_555 1_555
C111_8 C112_8 1_555 1_555
C112_8 C110_8 1_555 1_555
H47_8 C112_8 1_555 1_555
C113_8 C109_8 1_555 1_555
C114_8 C111_8 1_555 1_555
H48_8 C114_8 1_555 1_555
C115_8 O79_4 1_555 1_555
O93_2 C116_8 1_555 1_555
C116_8 C113_8 1_555 1_555
C117_8 O53_8 1_555 1_555
H49_8 C117_8 1_555 1_555
C118_8 C117_8 1_555 1_555
C119_8 C118_8 1_555 1_555
C120_8 C119_8 1_555 1_555
O60_8 C123_8 1_555 1_555
O61_8 C128_8 1_555 1_555
O62_8 C127_8 1_555 1_555
C121_8 H50_8 1_555 1_555
C122_8 C121_8 1_555 1_555
C123_8 C124_8 1_555 1_555
C124_8 C122_8 1_555 1_555
H51_8 C124_8 1_555 1_555
C125_8 C121_8 1_555 1_555
C126_8 C123_8 1_555 1_555
H52_8 C126_8 1_555 1_555
O63_8 C127_8 1_555 1_555
C127_8 C122_8 1_555 1_555
O64_8 C128_8 1_555 1_555
C128_8 C125_8 1_555 1_555
C129_8 O60_8 1_555 1_555
H53_8 C129_8 1_555 1_555
C130_8 C119_8 1_555 1_555
C131_8 C130_8 1_555 1_555
C132_8 C131_8 1_555 1_555
O65_8 C135_8 1_555 1_555
O66_8 C140_8 1_555 1_555
O67_8 C139_8 1_555 1_555
C133_8 H54_8 1_555 1_555
C134_8 C133_8 1_555 1_555
C135_8 C136_8 1_555 1_555
C136_8 C134_8 1_555 1_555
H55_8 C136_8 1_555 1_555
C137_8 C133_8 1_555 1_555
C138_8 C135_8 1_555 1_555
H56_8 C138_8 1_555 1_555
O68_8 C139_8 1_555 1_555
C139_8 C134_8 1_555 1_555
O69_8 C140_8 1_555 1_555
C140_8 C137_8 1_555 1_555
C141_8 O65_8 1_555 1_555
H57_8 C141_8 1_555 1_555
C142_8 C131_8 1_555 1_555
C143_8 C118_8 1_555 1_555
C144_8 C143_8 1_555 1_555
H58_8 C117_8 1_555 1_555
H59_8 C129_8 1_555 1_555
H60_8 C141_8 1_555 1_555
Zn19 O52_8 1_555 1_555
Zn16 O69_8 1_555 1_555
Zn15_3 O47_8 1_555 1_555
Zn21 O64_8 1_555 1_555
Zn27 O49_8 1_555 1_555
Zn24 O66_8 1_555 1_555
Zn23_3 O44_8 1_555 1_555
Zn29 O61_8 1_555 1_555
Zn32_8 O45_8 1_555 1_555
Zn35_8 O46_8 1_555 1_555
O80_12 Zn31_4 1_555 1_555
O81_8 Zn33_4 1_555 1_555
O84_12 Zn34_4 1_555 1_555
O85_8 Zn36_4 1_555 1_555
C74_8 C79_8 1_555 1_555
C77_8 C78_8 1_555 1_555
O82_4 C79_8 1_555 1_555
C89_8 C90_8 1_555 1_555
C93_8 C94_8 1_555 1_555
O50_8 Zn31_4 1_555 1_555
C101_8 C102_8 1_555 1_555
O51_8 Zn34_4 1_555 1_555
C105_8 C106_8 1_555 1_555
C106_8 C107_8 1_555 1_555
C110_8 C115_8 1_555 1_555
C113_8 C114_8 1_555 1_555
O83_4 C115_8 1_555 1_555
O62_8 Zn33_4 1_555 1_555
C125_8 C126_8 1_555 1_555
O63_8 Zn36_4 1_555 1_555
C129_8 C130_8 1_555 1_555
O67_8 Zn32_8 1_555 1_555
C137_8 C138_8 1_555 1_555
O68_8 Zn35_8 1_555 1_555
C141_8 C142_8 1_555 1_555
C142_8 C143_8 1_555 1_555
O73 H61_16 1_555 1_555
C84_8 H78_8 1_555 1_555
C84_8 H79_8 1_555 1_555
C84_8 H80_8 1_555 1_555
C96_8 H91_8 1_555 1_555
C96_8 H92_8 1_555 1_555
C96_8 H93_8 1_555 1_555
C108_8 H94_8 1_555 1_555
C108_8 H95_8 1_555 1_555
C108_8 H96_8 1_555 1_555
C120_8 H99_8 1_555 1_555
C120_8 H100_8 1_555 1_555
C120_8 H101_8 1_555 1_555
C144_8 H104_8 1_555 1_555
C144_8 H105_8 1_555 1_555
C144_8 H106_8 1_555 1_555
C132_8 H107_8 1_555 1_555
C132_8 H108_8 1_555 1_555
C132_8 H109_8 1_555 1_555
O80_13 Zn32_8 1_555 1_555
O84_13 Zn35_8 1_555 1_555
O74 H61_17 1_555 1_555
O80_14 Zn32_5 1_555 1_555
O84_14 Zn35_5 1_555 1_555
O74_2 H61_18 1_555 1_555
O80_15 Zn32_7 1_555 1_555
O84_15 Zn35_7 1_555 1_555
O75 H61_19 1_555 1_555
O80_16 Zn32_6 1_555 1_555
O84_16 Zn35_6 1_555 1_555
O75_2 H61_20 1_555 1_555
O76 H61_21 1_555 1_555
O77_2 H61_22 1_555 1_555
O77 H61_23 1_555 1_555
O76_2 H61_24 1_555 1_555
O7_3 Zn23_3 1_555 1_555
O10_3 Zn15_3 1_555 1_555
O56_3 Zn10_3 1_555 1_555
O59_3 Zn9_3 1_555 1_555
O72_3 Zn10_3 1_555 1_555
O88_3 Zn9_3 1_555 1_555
C108_2 H69_5 1_555 1_555
C108_2 H70_5 1_555 1_555
C108_2 H71_5 1_555 1_555
C96_2 H84_5 1_555 1_555
C96_2 H85_5 1_555 1_555
C96_2 H86_5 1_555 1_555
O7_4 Zn23_4 1_555 1_555
O10_4 Zn15_4 1_555 1_555
O39_3 Zn25 1_555 1_555
O42_3 Zn17 1_555 1_555
Zn9_4 O58_3 1_555 1_555
Zn10_4 O54_3 1_555 1_555
O53_9 C111_9 1_555 1_555
O54_3 C116_9 1_555 1_555
C109_9 H46_9 1_555 1_555
O56_4 Zn10_4 1_555 1_555
C110_9 C109_9 1_555 1_555
C111_9 C112_9 1_555 1_555
C112_9 C110_9 1_555 1_555
H47_9 C112_9 1_555 1_555
C113_9 C109_9 1_555 1_555
C114_9 C111_9 1_555 1_555
H48_9 C114_9 1_555 1_555
C115_9 O80_4 1_555 1_555
O58_3 C116_9 1_555 1_555
O59_4 Zn9_4 1_555 1_555
C116_9 C113_9 1_555 1_555
C117_9 O53_9 1_555 1_555
H49_9 C117_9 1_555 1_555
C118_9 C117_9 1_555 1_555
C119_9 C118_9 1_555 1_555
C120_9 C119_9 1_555 1_555
O60_9 C123_9 1_555 1_555
O61_9 C128_9 1_555 1_555
O80_5 C127_9 1_555 1_555
C121_9 H50_9 1_555 1_555
C122_9 C121_9 1_555 1_555
C123_9 C124_9 1_555 1_555
C124_9 C122_9 1_555 1_555
H51_9 C124_9 1_555 1_555
C125_9 C121_9 1_555 1_555
C126_9 C123_9 1_555 1_555
H52_9 C126_9 1_555 1_555
O84_5 C127_9 1_555 1_555
C127_9 C122_9 1_555 1_555
O64_9 C128_9 1_555 1_555
C128_9 C125_9 1_555 1_555
C129_9 O60_9 1_555 1_555
H53_9 C129_9 1_555 1_555
C130_9 C119_9 1_555 1_555
C131_9 C130_9 1_555 1_555
C132_9 C131_9 1_555 1_555
O65_9 C135_9 1_555 1_555
O66_9 C140_9 1_555 1_555
O81_4 C139_9 1_555 1_555
C133_9 H54_9 1_555 1_555
C134_9 C133_9 1_555 1_555
C135_9 C136_9 1_555 1_555
C136_9 C134_9 1_555 1_555
H55_9 C136_9 1_555 1_555
C137_9 C133_9 1_555 1_555
C138_9 C135_9 1_555 1_555
H56_9 C138_9 1_555 1_555
O85_4 C139_9 1_555 1_555
C139_9 C134_9 1_555 1_555
O69_9 C140_9 1_555 1_555
C140_9 C137_9 1_555 1_555
C141_9 O65_9 1_555 1_555
H57_9 C141_9 1_555 1_555
C142_9 C131_9 1_555 1_555
C143_9 C118_9 1_555 1_555
C144_9 C143_9 1_555 1_555
H58_9 C117_9 1_555 1_555
H59_9 C129_9 1_555 1_555
H60_9 C141_9 1_555 1_555
Zn18_5 O69_9 1_555 1_555
Zn20_6 O64_9 1_555 1_555
Zn26_5 O66_9 1_555 1_555
Zn28_6 O61_9 1_555 1_555
C110_9 C115_9 1_555 1_555
C113_9 C114_9 1_555 1_555
O84_4 C115_9 1_555 1_555
C125_9 C126_9 1_555 1_555
C129_9 C130_9 1_555 1_555
C137_9 C138_9 1_555 1_555
C141_9 C142_9 1_555 1_555
C142_9 C143_9 1_555 1_555
O49_4 H61_25 1_555 1_555
C108_4 H62_5 1_555 1_555
C108_4 H63_5 1_555 1_555
C108_4 H64_5 1_555 1_555
C96_4 H75_5 1_555 1_555
C96_4 H76_5 1_555 1_555
C96_4 H77_5 1_555 1_555
C72_2 H91_9 1_555 1_555
C72_2 H92_9 1_555 1_555
C72_2 H93_9 1_555 1_555
C48_2 H94_9 1_555 1_555
C48_2 H95_9 1_555 1_555
C48_2 H96_9 1_555 1_555
C120_9 H99_9 1_555 1_555
C120_9 H100_9 1_555 1_555
C120_9 H101_9 1_555 1_555
C144_9 H104_9 1_555 1_555
C144_9 H105_9 1_555 1_555
C144_9 H106_9 1_555 1_555
C132_9 H107_9 1_555 1_555
C132_9 H108_9 1_555 1_555
C132_9 H109_9 1_555 1_555
O56_5 Zn10_5 1_555 1_555
O59_5 Zn9_5 1_555 1_555
O71_3 Zn10_5 1_555 1_555
O87_3 Zn9_5 1_555 1_555
O39_4 Zn25_2 1_555 1_555
O42_4 Zn17_2 1_555 1_555
O56_6 Zn10_6 1_555 1_555
O59_6 Zn9_6 1_555 1_555
O73_3 Zn10_6 1_555 1_555
O89_3 Zn9_6 1_555 1_555
O56_7 Zn10_7 1_555 1_555
O59_7 Zn9_7 1_555 1_555
O71_4 Zn10_7 1_555 1_555
O87_4 Zn9_7 1_555 1_555
O56_8 Zn10_8 1_555 1_555
O59_8 Zn9_8 1_555 1_555
O73_4 Zn10_8 1_555 1_555
O89_4 Zn9_8 1_555 1_555
O7_5 Zn23 1_555 1_555
O10_5 Zn15 1_555 1_555
O56_9 Zn10_9 1_555 1_555
O59_9 Zn9_9 1_555 1_555
O72_4 Zn10_9 1_555 1_555
O88_4 Zn9_9 1_555 1_555
C108 H69_6 1_555 1_555
C108 H70_6 1_555 1_555
C108 H71_6 1_555 1_555
C96 H84_6 1_555 1_555
C96 H85_6 1_555 1_555
C96 H86_6 1_555 1_555
O7_6 Zn23_2 1_555 1_555
O10_6 Zn15_2 1_555 1_555
Zn9_10 O58_4 1_555 1_555
Zn10_10 O54_4 1_555 1_555
O53_10 C111_10 1_555 1_555
O54_4 C116_10 1_555 1_555
C109_10 H46_10 1_555 1_555
O56_10 Zn10_10 1_555 1_555
C110_10 C109_10 1_555 1_555
C111_10 C112_10 1_555 1_555
C112_10 C110_10 1_555 1_555
H47_10 C112_10 1_555 1_555
C113_10 C109_10 1_555 1_555
C114_10 C111_10 1_555 1_555
H48_10 C114_10 1_555 1_555
C115_10 O80_3 1_555 1_555
O58_4 C116_10 1_555 1_555
O59_10 Zn9_10 1_555 1_555
C116_10 C113_10 1_555 1_555
C117_10 O53_10 1_555 1_555
H49_10 C117_10 1_555 1_555
C118_10 C117_10 1_555 1_555
C119_10 C118_10 1_555 1_555
C120_10 C119_10 1_555 1_555
O60_10 C123_10 1_555 1_555
O61_10 C128_10 1_555 1_555
O80_7 C127_10 1_555 1_555
C121_10 H50_10 1_555 1_555
C122_10 C121_10 1_555 1_555
C123_10 C124_10 1_555 1_555
C124_10 C122_10 1_555 1_555
H51_10 C124_10 1_555 1_555
C125_10 C121_10 1_555 1_555
C126_10 C123_10 1_555 1_555
H52_10 C126_10 1_555 1_555
O84_7 C127_10 1_555 1_555
C127_10 C122_10 1_555 1_555
O64_10 C128_10 1_555 1_555
C128_10 C125_10 1_555 1_555
C129_10 O60_10 1_555 1_555
H53_10 C129_10 1_555 1_555
C130_10 C119_10 1_555 1_555
C131_10 C130_10 1_555 1_555
C132_10 C131_10 1_555 1_555
O65_10 C135_10 1_555 1_555
O66_10 C140_10 1_555 1_555
O81_3 C139_10 1_555 1_555
C133_10 H54_10 1_555 1_555
C134_10 C133_10 1_555 1_555
C135_10 C136_10 1_555 1_555
C136_10 C134_10 1_555 1_555
H55_10 C136_10 1_555 1_555
C137_10 C133_10 1_555 1_555
C138_10 C135_10 1_555 1_555
H56_10 C138_10 1_555 1_555
O85_3 C139_10 1_555 1_555
C139_10 C134_10 1_555 1_555
O69_10 C140_10 1_555 1_555
C140_10 C137_10 1_555 1_555
C141_10 O65_10 1_555 1_555
H57_10 C141_10 1_555 1_555
C142_10 C131_10 1_555 1_555
C143_10 C118_10 1_555 1_555
C144_10 C143_10 1_555 1_555
H58_10 C117_10 1_555 1_555
H59_10 C129_10 1_555 1_555
H60_10 C141_10 1_555 1_555
Zn18_8 O69_10 1_555 1_555
Zn20_12 O64_10 1_555 1_555
Zn26_8 O66_10 1_555 1_555
Zn28_12 O61_10 1_555 1_555
C110_10 C115_10 1_555 1_555
C113_10 C114_10 1_555 1_555
O84_3 C115_10 1_555 1_555
C125_10 C126_10 1_555 1_555
C129_10 C130_10 1_555 1_555
C137_10 C138_10 1_555 1_555
C141_10 C142_10 1_555 1_555
C142_10 C143_10 1_555 1_555
O49_3 H61_26 1_555 1_555
C108_3 H62_6 1_555 1_555
C108_3 H63_6 1_555 1_555
C108_3 H64_6 1_555 1_555
C96_3 H75_6 1_555 1_555
C96_3 H76_6 1_555 1_555
C96_3 H77_6 1_555 1_555
C72 H91_10 1_555 1_555
C72 H92_10 1_555 1_555
C72 H93_10 1_555 1_555
C48 H94_10 1_555 1_555
C48 H95_10 1_555 1_555
C48 H96_10 1_555 1_555
C120_10 H99_10 1_555 1_555
C120_10 H100_10 1_555 1_555
C120_10 H101_10 1_555 1_555
C144_10 H104_10 1_555 1_555
C144_10 H105_10 1_555 1_555
C144_10 H106_10 1_555 1_555
C132_10 H107_10 1_555 1_555
C132_10 H108_10 1_555 1_555
C132_10 H109_10 1_555 1_555
O39_5 Zn24 1_555 1_555
O42_5 Zn16 1_555 1_555
O53_11 C111_11 1_555 1_555
O71_4 C116_11 1_555 1_555
C109_11 H46_11 1_555 1_555
C110_11 C109_11 1_555 1_555
C111_11 C112_11 1_555 1_555
C112_11 C110_11 1_555 1_555
H47_11 C112_11 1_555 1_555
C113_11 C109_11 1_555 1_555
C114_11 C111_11 1_555 1_555
H48_11 C114_11 1_555 1_555
C115_11 O80_2 1_555 1_555
O87_4 C116_11 1_555 1_555
C116_11 C113_11 1_555 1_555
C117_11 O53_11 1_555 1_555
H49_11 C117_11 1_555 1_555
C118_11 C117_11 1_555 1_555
C119_11 C118_11 1_555 1_555
C120_11 C119_11 1_555 1_555
O60_11 C123_11 1_555 1_555
O61_11 C128_11 1_555 1_555
O80_8 C127_11 1_555 1_555
C121_11 H50_11 1_555 1_555
C122_11 C121_11 1_555 1_555
C123_11 C124_11 1_555 1_555
C124_11 C122_11 1_555 1_555
H51_11 C124_11 1_555 1_555
C125_11 C121_11 1_555 1_555
C126_11 C123_11 1_555 1_555
H52_11 C126_11 1_555 1_555
O84_8 C127_11 1_555 1_555
C127_11 C122_11 1_555 1_555
O64_11 C128_11 1_555 1_555
C128_11 C125_11 1_555 1_555
C129_11 O60_11 1_555 1_555
H53_11 C129_11 1_555 1_555
C130_11 C119_11 1_555 1_555
C131_11 C130_11 1_555 1_555
C132_11 C131_11 1_555 1_555
O65_11 C135_11 1_555 1_555
O66_11 C140_11 1_555 1_555
O81_2 C139_11 1_555 1_555
C133_11 H54_11 1_555 1_555
C134_11 C133_11 1_555 1_555
C135_11 C136_11 1_555 1_555
C136_11 C134_11 1_555 1_555
H55_11 C136_11 1_555 1_555
C137_11 C133_11 1_555 1_555
C138_11 C135_11 1_555 1_555
H56_11 C138_11 1_555 1_555
O85_2 C139_11 1_555 1_555
C139_11 C134_11 1_555 1_555
O69_11 C140_11 1_555 1_555
C140_11 C137_11 1_555 1_555
C141_11 O65_11 1_555 1_555
H57_11 C141_11 1_555 1_555
C142_11 C131_11 1_555 1_555
C143_11 C118_11 1_555 1_555
C144_11 C143_11 1_555 1_555
H58_11 C117_11 1_555 1_555
H59_11 C129_11 1_555 1_555
H60_11 C141_11 1_555 1_555
Zn18_11 O69_11 1_555 1_555
Zn20_7 O64_11 1_555 1_555
Zn26_11 O66_11 1_555 1_555
Zn28_7 O61_11 1_555 1_555
C110_11 C115_11 1_555 1_555
C113_11 C114_11 1_555 1_555
O84_2 C115_11 1_555 1_555
C125_11 C126_11 1_555 1_555
C129_11 C130_11 1_555 1_555
C137_11 C138_11 1_555 1_555
C141_11 C142_11 1_555 1_555
C142_11 C143_11 1_555 1_555
O49_2 H61_27 1_555 1_555
C36_2 H91_11 1_555 1_555
C36_2 H92_11 1_555 1_555
C36_2 H93_11 1_555 1_555
C12_2 H94_11 1_555 1_555
C12_2 H95_11 1_555 1_555
C12_2 H96_11 1_555 1_555
C120_11 H99_11 1_555 1_555
C120_11 H100_11 1_555 1_555
C120_11 H101_11 1_555 1_555
C144_11 H104_11 1_555 1_555
C144_11 H105_11 1_555 1_555
C144_11 H106_11 1_555 1_555
C132_11 H107_11 1_555 1_555
C132_11 H108_11 1_555 1_555
C132_11 H109_11 1_555 1_555
O39_6 Zn24_2 1_555 1_555
O42_6 Zn16_2 1_555 1_555
O53_12 C111_12 1_555 1_555
O71_3 C116_12 1_555 1_555
C109_12 H46_12 1_555 1_555
C110_12 C109_12 1_555 1_555
C111_12 C112_12 1_555 1_555
C112_12 C110_12 1_555 1_555
H47_12 C112_12 1_555 1_555
C113_12 C109_12 1_555 1_555
C114_12 C111_12 1_555 1_555
H48_12 C114_12 1_555 1_555
C115_12 O80 1_555 1_555
O87_3 C116_12 1_555 1_555
C116_12 C113_12 1_555 1_555
C117_12 O53_12 1_555 1_555
H49_12 C117_12 1_555 1_555
C118_12 C117_12 1_555 1_555
C119_12 C118_12 1_555 1_555
C120_12 C119_12 1_555 1_555
O60_12 C123_12 1_555 1_555
O61_12 C128_12 1_555 1_555
O80_6 C127_12 1_555 1_555
C121_12 H50_12 1_555 1_555
C122_12 C121_12 1_555 1_555
C123_12 C124_12 1_555 1_555
C124_12 C122_12 1_555 1_555
H51_12 C124_12 1_555 1_555
C125_12 C121_12 1_555 1_555
C126_12 C123_12 1_555 1_555
H52_12 C126_12 1_555 1_555
O84_6 C127_12 1_555 1_555
C127_12 C122_12 1_555 1_555
O64_12 C128_12 1_555 1_555
C128_12 C125_12 1_555 1_555
C129_12 O60_12 1_555 1_555
H53_12 C129_12 1_555 1_555
C130_12 C119_12 1_555 1_555
C131_12 C130_12 1_555 1_555
C132_12 C131_12 1_555 1_555
O65_12 C135_12 1_555 1_555
O66_12 C140_12 1_555 1_555
O81 C139_12 1_555 1_555
C133_12 H54_12 1_555 1_555
C134_12 C133_12 1_555 1_555
C135_12 C136_12 1_555 1_555
C136_12 C134_12 1_555 1_555
H55_12 C136_12 1_555 1_555
C137_12 C133_12 1_555 1_555
C138_12 C135_12 1_555 1_555
H56_12 C138_12 1_555 1_555
O85 C139_12 1_555 1_555
C139_12 C134_12 1_555 1_555
O69_12 C140_12 1_555 1_555
C140_12 C137_12 1_555 1_555
C141_12 O65_12 1_555 1_555
H57_12 C141_12 1_555 1_555
C142_12 C131_12 1_555 1_555
C143_12 C118_12 1_555 1_555
C144_12 C143_12 1_555 1_555
H58_12 C117_12 1_555 1_555
H59_12 C129_12 1_555 1_555
H60_12 C141_12 1_555 1_555
Zn18_10 O69_12 1_555 1_555
Zn20_9 O64_12 1_555 1_555
Zn26_10 O66_12 1_555 1_555
Zn28_9 O61_12 1_555 1_555
C110_12 C115_12 1_555 1_555
C113_12 C114_12 1_555 1_555
O84 C115_12 1_555 1_555
C125_12 C126_12 1_555 1_555
C129_12 C130_12 1_555 1_555
C137_12 C138_12 1_555 1_555
C141_12 C142_12 1_555 1_555
C142_12 C143_12 1_555 1_555
O49 H61_28 1_555 1_555
C36 H91_12 1_555 1_555
C36 H92_12 1_555 1_555
C36 H93_12 1_555 1_555
C12 H94_12 1_555 1_555
C12 H95_12 1_555 1_555
C12 H96_12 1_555 1_555
C120_12 H99_12 1_555 1_555
C120_12 H100_12 1_555 1_555
C120_12 H101_12 1_555 1_555
C144_12 H104_12 1_555 1_555
C144_12 H105_12 1_555 1_555
C144_12 H106_12 1_555 1_555
C132_12 H107_12 1_555 1_555
C132_12 H108_12 1_555 1_555
C132_12 H109_12 1_555 1_555
O12 H61_29 1_555 1_555
O27_2 H61_30 1_555 1_555
O12_2 H61_31 1_555 1_555
O27 H61_32 1_555 1_555
O54_4 H61_33 1_555 1_555
O71_3 H61_34 1_555 1_555
O71_4 H61_35 1_555 1_555
O54_3 H61_36 1_555 1_555
O21_5 C39_5 1_555 1_555
O80_14 C43_5 1_555 1_555
C37_5 H16_5 1_555 1_555
C38_5 C37_5 1_555 1_555
C39_5 C40_5 1_555 1_555
C40_5 C38_5 1_555 1_555
H17_5 C40_5 1_555 1_555
C41_5 C37_5 1_555 1_555
C42_5 C39_5 1_555 1_555
H18_5 C42_5 1_555 1_555
O84_14 C43_5 1_555 1_555
C43_5 C38_5 1_555 1_555
C44_5 O73_4 1_555 1_555
C45_5 O21_5 1_555 1_555
H19_5 C45_5 1_555 1_555
C46_5 C45_5 1_555 1_555
C47_5 C46_5 1_555 1_555
C48_5 C47_5 1_555 1_555
O26_5 C51_5 1_555 1_555
O27_5 C56_5 1_555 1_555
O81_5 C55_5 1_555 1_555
C49_5 H20_5 1_555 1_555
C50_5 C49_5 1_555 1_555
C51_5 C52_5 1_555 1_555
C52_5 C50_5 1_555 1_555
H21_5 C52_5 1_555 1_555
C53_5 C49_5 1_555 1_555
C54_5 C51_5 1_555 1_555
H22_5 C54_5 1_555 1_555
O85_5 C55_5 1_555 1_555
C55_5 C50_5 1_555 1_555
O30_5 C56_5 1_555 1_555
C56_5 C53_5 1_555 1_555
C57_5 O26_5 1_555 1_555
H23_5 C57_5 1_555 1_555
C58_5 C47_5 1_555 1_555
C59_5 C58_5 1_555 1_555
C60_5 C59_5 1_555 1_555
O31_5 C63_5 1_555 1_555
O32_5 C68_5 1_555 1_555
O80_9 C67_5 1_555 1_555
C61_5 H24_5 1_555 1_555
C62_5 C61_5 1_555 1_555
C63_5 C64_5 1_555 1_555
C64_5 C62_5 1_555 1_555
H25_5 C64_5 1_555 1_555
C65_5 C61_5 1_555 1_555
C66_5 C63_5 1_555 1_555
H26_5 C66_5 1_555 1_555
O84_9 C67_5 1_555 1_555
C67_5 C62_5 1_555 1_555
O35_5 C68_5 1_555 1_555
C68_5 C65_5 1_555 1_555
C69_5 O31_5 1_555 1_555
H27_5 C69_5 1_555 1_555
C70_5 C59_5 1_555 1_555
C71_5 C46_5 1_555 1_555
C72_5 C71_5 1_555 1_555
H28_5 C45_5 1_555 1_555
H29_5 C57_5 1_555 1_555
H30_5 C69_5 1_555 1_555
Zn18_7 O30_5 1_555 1_555
Zn20_8 O35_5 1_555 1_555
Zn26_7 O27_5 1_555 1_555
Zn28_8 O32_5 1_555 1_555
C41_5 C42_5 1_555 1_555
C41_5 C44_5 1_555 1_555
O89_4 C44_5 1_555 1_555
C53_5 C54_5 1_555 1_555
C57_5 C58_5 1_555 1_555
C65_5 C66_5 1_555 1_555
C69_5 C70_5 1_555 1_555
C70_5 C71_5 1_555 1_555
C48_5 H69_7 1_555 1_555
C48_5 H70_7 1_555 1_555
C48_5 H71_7 1_555 1_555
C60_5 H81_5 1_555 1_555
C60_5 H82_5 1_555 1_555
C60_5 H83_5 1_555 1_555
C72_5 H84_7 1_555 1_555
C72_5 H85_7 1_555 1_555
C72_5 H86_7 1_555 1_555
O4_5 C3_5 1_555 1_555
O72_4 C8_5 1_555 1_555
O80_15 C7_5 1_555 1_555
C1_5 H1_5 1_555 1_555
C2_5 C1_5 1_555 1_555
C3_5 C4_5 1_555 1_555
C4_5 C2_5 1_555 1_555
H2_5 C4_5 1_555 1_555
C5_5 C1_5 1_555 1_555
C6_5 C3_5 1_555 1_555
H3_5 C6_5 1_555 1_555
O84_15 C7_5 1_555 1_555
C7_5 C2_5 1_555 1_555
O88_4 C8_5 1_555 1_555
C8_5 C5_5 1_555 1_555
C9_5 O4_5 1_555 1_555
H4_5 C9_5 1_555 1_555
C10_5 C9_5 1_555 1_555
C11_5 C10_5 1_555 1_555
C12_5 C11_5 1_555 1_555
O11_5 C15_5 1_555 1_555
O12_5 C20_5 1_555 1_555
O81_7 C19_5 1_555 1_555
C13_5 H5_5 1_555 1_555
C14_5 C13_5 1_555 1_555
C15_5 C16_5 1_555 1_555
C16_5 C14_5 1_555 1_555
H6_5 C16_5 1_555 1_555
C17_5 C13_5 1_555 1_555
C18_5 C15_5 1_555 1_555
H7_5 C18_5 1_555 1_555
O85_7 C19_5 1_555 1_555
C19_5 C14_5 1_555 1_555
O15_5 C20_5 1_555 1_555
C20_5 C17_5 1_555 1_555
C21_5 O11_5 1_555 1_555
H8_5 C21_5 1_555 1_555
C22_5 C11_5 1_555 1_555
C23_5 C22_5 1_555 1_555
C24_5 C23_5 1_555 1_555
O16_5 C27_5 1_555 1_555
O17_5 C32_5 1_555 1_555
O80_11 C31_5 1_555 1_555
C25_5 H9_5 1_555 1_555
C26_5 C25_5 1_555 1_555
C27_5 C28_5 1_555 1_555
C28_5 C26_5 1_555 1_555
H10_5 C28_5 1_555 1_555
C29_5 C25_5 1_555 1_555
C30_5 C27_5 1_555 1_555
H11_5 C30_5 1_555 1_555
O84_11 C31_5 1_555 1_555
C31_5 C26_5 1_555 1_555
O20_5 C32_5 1_555 1_555
C32_5 C29_5 1_555 1_555
C33_5 O16_5 1_555 1_555
H12_5 C33_5 1_555 1_555
C34_5 C23_5 1_555 1_555
C35_5 C10_5 1_555 1_555
C36_5 C35_5 1_555 1_555
H13_5 C9_5 1_555 1_555
H14_5 C21_5 1_555 1_555
H15_5 C33_5 1_555 1_555
Zn18_12 O15_5 1_555 1_555
Zn20_11 O20_5 1_555 1_555
Zn26_12 O12_5 1_555 1_555
Zn28_11 O17_5 1_555 1_555
C5_5 C6_5 1_555 1_555
C17_5 C18_5 1_555 1_555
C21_5 C22_5 1_555 1_555
C29_5 C30_5 1_555 1_555
C33_5 C34_5 1_555 1_555
C34_5 C35_5 1_555 1_555
O72_4 H61_37 1_555 1_555
C12_5 H62_7 1_555 1_555
C12_5 H63_7 1_555 1_555
C12_5 H64_7 1_555 1_555
C24_5 H72_5 1_555 1_555
C24_5 H73_5 1_555 1_555
C24_5 H74_5 1_555 1_555
C36_5 H75_7 1_555 1_555
C36_5 H76_7 1_555 1_555
C36_5 H77_7 1_555 1_555
C144_7 H78_9 1_555 1_555
C144_7 H79_9 1_555 1_555
C144_7 H80_9 1_555 1_555
C132_7 H94_13 1_555 1_555
C132_7 H95_13 1_555 1_555
C132_7 H96_13 1_555 1_555
C84_7 H104_13 1_555 1_555
C84_7 H105_13 1_555 1_555
C84_7 H106_13 1_555 1_555
C108_7 H107_13 1_555 1_555
C108_7 H108_13 1_555 1_555
C108_7 H109_13 1_555 1_555
O4_6 C3_6 1_555 1_555
O72_3 C8_6 1_555 1_555
O80_13 C7_6 1_555 1_555
C1_6 H1_6 1_555 1_555
C2_6 C1_6 1_555 1_555
C3_6 C4_6 1_555 1_555
C4_6 C2_6 1_555 1_555
H2_6 C4_6 1_555 1_555
C5_6 C1_6 1_555 1_555
C6_6 C3_6 1_555 1_555
H3_6 C6_6 1_555 1_555
O84_13 C7_6 1_555 1_555
C7_6 C2_6 1_555 1_555
O88_3 C8_6 1_555 1_555
C8_6 C5_6 1_555 1_555
C9_6 O4_6 1_555 1_555
H4_6 C9_6 1_555 1_555
C10_6 C9_6 1_555 1_555
C11_6 C10_6 1_555 1_555
C12_6 C11_6 1_555 1_555
O11_6 C15_6 1_555 1_555
O12_6 C20_6 1_555 1_555
O81_8 C19_6 1_555 1_555
C13_6 H5_6 1_555 1_555
C14_6 C13_6 1_555 1_555
C15_6 C16_6 1_555 1_555
C16_6 C14_6 1_555 1_555
H6_6 C16_6 1_555 1_555
C17_6 C13_6 1_555 1_555
C18_6 C15_6 1_555 1_555
H7_6 C18_6 1_555 1_555
O85_8 C19_6 1_555 1_555
C19_6 C14_6 1_555 1_555
O15_6 C20_6 1_555 1_555
C20_6 C17_6 1_555 1_555
C21_6 O11_6 1_555 1_555
H8_6 C21_6 1_555 1_555
C22_6 C11_6 1_555 1_555
C23_6 C22_6 1_555 1_555
C24_6 C23_6 1_555 1_555
O16_6 C27_6 1_555 1_555
O17_6 C32_6 1_555 1_555
O80_12 C31_6 1_555 1_555
C25_6 H9_6 1_555 1_555
C26_6 C25_6 1_555 1_555
C27_6 C28_6 1_555 1_555
C28_6 C26_6 1_555 1_555
H10_6 C28_6 1_555 1_555
C29_6 C25_6 1_555 1_555
C30_6 C27_6 1_555 1_555
H11_6 C30_6 1_555 1_555
O84_12 C31_6 1_555 1_555
C31_6 C26_6 1_555 1_555
O20_6 C32_6 1_555 1_555
C32_6 C29_6 1_555 1_555
C33_6 O16_6 1_555 1_555
H12_6 C33_6 1_555 1_555
C34_6 C23_6 1_555 1_555
C35_6 C10_6 1_555 1_555
C36_6 C35_6 1_555 1_555
H13_6 C9_6 1_555 1_555
H14_6 C21_6 1_555 1_555
H15_6 C33_6 1_555 1_555
Zn18_9 O15_6 1_555 1_555
Zn20_5 O20_6 1_555 1_555
Zn26_9 O12_6 1_555 1_555
Zn28_5 O17_6 1_555 1_555
C5_6 C6_6 1_555 1_555
C17_6 C18_6 1_555 1_555
C21_6 C22_6 1_555 1_555
C29_6 C30_6 1_555 1_555
C33_6 C34_6 1_555 1_555
C34_6 C35_6 1_555 1_555
O72_3 H61_38 1_555 1_555
C12_6 H62_8 1_555 1_555
C12_6 H63_8 1_555 1_555
C12_6 H64_8 1_555 1_555
C24_6 H72_6 1_555 1_555
C24_6 H73_6 1_555 1_555
C24_6 H74_6 1_555 1_555
C36_6 H75_8 1_555 1_555
C36_6 H76_8 1_555 1_555
C36_6 H77_8 1_555 1_555
C144_8 H78_10 1_555 1_555
C144_8 H79_10 1_555 1_555
C144_8 H80_10 1_555 1_555
C132_8 H94_14 1_555 1_555
C132_8 H95_14 1_555 1_555
C132_8 H96_14 1_555 1_555
C84_8 H104_14 1_555 1_555
C84_8 H105_14 1_555 1_555
C84_8 H106_14 1_555 1_555
C108_8 H107_14 1_555 1_555
C108_8 H108_14 1_555 1_555
C108_8 H109_14 1_555 1_555
O21_6 C39_6 1_555 1_555
O80_16 C43_6 1_555 1_555
C37_6 H16_6 1_555 1_555
C38_6 C37_6 1_555 1_555
C39_6 C40_6 1_555 1_555
C40_6 C38_6 1_555 1_555
H17_6 C40_6 1_555 1_555
C41_6 C37_6 1_555 1_555
C42_6 C39_6 1_555 1_555
H18_6 C42_6 1_555 1_555
O84_16 C43_6 1_555 1_555
C43_6 C38_6 1_555 1_555
C44_6 O73_3 1_555 1_555
C45_6 O21_6 1_555 1_555
H19_6 C45_6 1_555 1_555
C46_6 C45_6 1_555 1_555
C47_6 C46_6 1_555 1_555
C48_6 C47_6 1_555 1_555
O26_6 C51_6 1_555 1_555
O27_6 C56_6 1_555 1_555
O81_6 C55_6 1_555 1_555
C49_6 H20_6 1_555 1_555
C50_6 C49_6 1_555 1_555
C51_6 C52_6 1_555 1_555
C52_6 C50_6 1_555 1_555
H21_6 C52_6 1_555 1_555
C53_6 C49_6 1_555 1_555
C54_6 C51_6 1_555 1_555
H22_6 C54_6 1_555 1_555
O85_6 C55_6 1_555 1_555
C55_6 C50_6 1_555 1_555
O30_6 C56_6 1_555 1_555
C56_6 C53_6 1_555 1_555
C57_6 O26_6 1_555 1_555
H23_6 C57_6 1_555 1_555
C58_6 C47_6 1_555 1_555
C59_6 C58_6 1_555 1_555
C60_6 C59_6 1_555 1_555
O31_6 C63_6 1_555 1_555
O32_6 C68_6 1_555 1_555
O80_10 C67_6 1_555 1_555
C61_6 H24_6 1_555 1_555
C62_6 C61_6 1_555 1_555
C63_6 C64_6 1_555 1_555
C64_6 C62_6 1_555 1_555
H25_6 C64_6 1_555 1_555
C65_6 C61_6 1_555 1_555
C66_6 C63_6 1_555 1_555
H26_6 C66_6 1_555 1_555
O84_10 C67_6 1_555 1_555
C67_6 C62_6 1_555 1_555
O35_6 C68_6 1_555 1_555
C68_6 C65_6 1_555 1_555
C69_6 O31_6 1_555 1_555
H27_6 C69_6 1_555 1_555
C70_6 C59_6 1_555 1_555
C71_6 C46_6 1_555 1_555
C72_6 C71_6 1_555 1_555
H28_6 C45_6 1_555 1_555
H29_6 C57_6 1_555 1_555
H30_6 C69_6 1_555 1_555
Zn18_6 O30_6 1_555 1_555
Zn20_10 O35_6 1_555 1_555
Zn26_6 O27_6 1_555 1_555
Zn28_10 O32_6 1_555 1_555
C41_6 C42_6 1_555 1_555
C41_6 C44_6 1_555 1_555
O89_3 C44_6 1_555 1_555
C53_6 C54_6 1_555 1_555
C57_6 C58_6 1_555 1_555
C65_6 C66_6 1_555 1_555
C69_6 C70_6 1_555 1_555
C70_6 C71_6 1_555 1_555
C48_6 H69_8 1_555 1_555
C48_6 H70_8 1_555 1_555
C48_6 H71_8 1_555 1_555
C60_6 H81_6 1_555 1_555
C60_6 H82_6 1_555 1_555
C60_6 H83_6 1_555 1_555
C72_6 H84_8 1_555 1_555
C72_6 H85_8 1_555 1_555
C72_6 H86_8 1_555 1_555
O73_4 H61_39 1_555 1_555
C144_5 H78_11 1_555 1_555
C144_5 H79_11 1_555 1_555
C144_5 H80_11 1_555 1_555
C132_5 H94_15 1_555 1_555
C132_5 H95_15 1_555 1_555
C132_5 H96_15 1_555 1_555
C84_5 H104_15 1_555 1_555
C84_5 H105_15 1_555 1_555
C84_5 H106_15 1_555 1_555
C108_5 H107_15 1_555 1_555
C108_5 H108_15 1_555 1_555
C108_5 H109_15 1_555 1_555
O73_3 H61_40 1_555 1_555
C144_6 H78_12 1_555 1_555
C144_6 H79_12 1_555 1_555
C144_6 H80_12 1_555 1_555
C132_6 H94_16 1_555 1_555
C132_6 H95_16 1_555 1_555
C132_6 H96_16 1_555 1_555
C84_6 H104_16 1_555 1_555
C84_6 H105_16 1_555 1_555
C84_6 H106_16 1_555 1_555
C108_6 H107_16 1_555 1_555
C108_6 H108_16 1_555 1_555
C108_6 H109_16 1_555 1_555
O66_6 H61_41 1_555 1_555
O66_7 H61_42 1_555 1_555
O66_5 H61_43 1_555 1_555
O66_8 H61_44 1_555 1_555
O44_8 H61_45 1_555 1_555
O44_6 H61_46 1_555 1_555
O44_5 H61_47 1_555 1_555
O44_7 H61_48 1_555 1_555
O7_7 Zn28_9 1_555 1_555
O10_7 Zn20_9 1_555 1_555
C144_12 H81_7 1_555 1_555
C144_12 H82_7 1_555 1_555
C144_12 H83_7 1_555 1_555
C120_12 H84_9 1_555 1_555
C120_12 H85_9 1_555 1_555
C120_12 H86_9 1_555 1_555
O7_8 Zn28_10 1_555 1_555
O10_8 Zn20_10 1_555 1_555
O39_7 Zn26_3 1_555 1_555
O42_7 Zn18_3 1_555 1_555
O7_9 Zn28_11 1_555 1_555
O10_9 Zn20_11 1_555 1_555
O56_11 Zn27_3 1_555 1_555
O59_11 Zn19_3 1_555 1_555
O7_10 Zn28_12 1_555 1_555
O10_10 Zn20_12 1_555 1_555
O39_8 Zn26_4 1_555 1_555
O42_8 Zn18_4 1_555 1_555
O56_12 Zn27_4 1_555 1_555
O59_12 Zn19_4 1_555 1_555
O61_10 H61_49 1_555 1_555
C144_10 H72_7 1_555 1_555
C144_10 H73_7 1_555 1_555
C144_10 H74_7 1_555 1_555
C120_10 H75_9 1_555 1_555
C120_10 H76_9 1_555 1_555
C120_10 H77_9 1_555 1_555
C144_3 H78_13 1_555 1_555
C144_3 H79_13 1_555 1_555
C144_3 H80_13 1_555 1_555
C132_3 H94_17 1_555 1_555
C132_3 H95_17 1_555 1_555
C132_3 H96_17 1_555 1_555
C84_3 H104_17 1_555 1_555
C84_3 H105_17 1_555 1_555
C84_3 H106_17 1_555 1_555
O7_11 Zn28_5 1_555 1_555
O10_11 Zn20_5 1_555 1_555
O56_13 Zn27 1_555 1_555
O59_13 Zn19 1_555 1_555
O7_12 Zn28_6 1_555 1_555
O10_12 Zn20_6 1_555 1_555
O56_14 Zn27_2 1_555 1_555
O59_14 Zn19_2 1_555 1_555
O61_9 H61_50 1_555 1_555
C144_9 H72_8 1_555 1_555
C144_9 H73_8 1_555 1_555
C144_9 H74_8 1_555 1_555
C120_9 H75_10 1_555 1_555
C120_9 H76_10 1_555 1_555
C120_9 H77_10 1_555 1_555
C144_4 H78_14 1_555 1_555
C144_4 H79_14 1_555 1_555
C144_4 H80_14 1_555 1_555
C132_4 H94_18 1_555 1_555
C132_4 H95_18 1_555 1_555
C132_4 H96_18 1_555 1_555
C84_4 H104_18 1_555 1_555
C84_4 H105_18 1_555 1_555
C84_4 H106_18 1_555 1_555
O7_13 Zn28_7 1_555 1_555
O10_13 Zn20_7 1_555 1_555
C144_11 H81_8 1_555 1_555
C144_11 H82_8 1_555 1_555
C144_11 H83_8 1_555 1_555
C120_11 H84_10 1_555 1_555
C120_11 H85_10 1_555 1_555
C120_11 H86_10 1_555 1_555
O7_14 Zn28_8 1_555 1_555
O10_14 Zn20_8 1_555 1_555
O39_9 Zn26 1_555 1_555
O42_9 Zn18 1_555 1_555
O61_12 H61_51 1_555 1_555
C144 H78_15 1_555 1_555
C144 H79_15 1_555 1_555
C144 H80_15 1_555 1_555
C132 H94_19 1_555 1_555
C132 H95_19 1_555 1_555
C132 H96_19 1_555 1_555
C84 H104_19 1_555 1_555
C84 H105_19 1_555 1_555
C84 H106_19 1_555 1_555
O39_10 Zn26_2 1_555 1_555
O42_10 Zn18_2 1_555 1_555
O61_11 H61_52 1_555 1_555
C144_2 H78_16 1_555 1_555
C144_2 H79_16 1_555 1_555
C144_2 H80_16 1_555 1_555
C132_2 H94_20 1_555 1_555
C132_2 H95_20 1_555 1_555
C132_2 H96_20 1_555 1_555
C84_2 H104_20 1_555 1_555
C84_2 H105_20 1_555 1_555
C84_2 H106_20 1_555 1_555
O66_2 H61_53 1_555 1_555
O66_3 H61_54 1_555 1_555
O66 H61_55 1_555 1_555
O66_4 H61_56 1_555 1_555
O44_4 H61_57 1_555 1_555
O44_2 H61_58 1_555 1_555
O44 H61_59 1_555 1_555
O44_3 H61_60 1_555 1_555
O49_8 H61_61 1_555 1_555
C96_8 H75_11 1_555 1_555
C96_8 H76_11 1_555 1_555
C96_8 H77_11 1_555 1_555
C72_4 H91_13 1_555 1_555
C72_4 H92_13 1_555 1_555
C72_4 H93_13 1_555 1_555
C48_4 H94_21 1_555 1_555
C48_4 H95_21 1_555 1_555
C48_4 H96_21 1_555 1_555
C36_6 H99_13 1_555 1_555
C36_6 H100_13 1_555 1_555
C36_6 H101_13 1_555 1_555
C24_6 H104_21 1_555 1_555
C24_6 H105_21 1_555 1_555
C24_6 H106_21 1_555 1_555
C96_6 H84_11 1_555 1_555
C96_6 H85_11 1_555 1_555
C96_6 H86_11 1_555 1_555
O49_7 H61_62 1_555 1_555
C96_7 H75_12 1_555 1_555
C96_7 H76_12 1_555 1_555
C96_7 H77_12 1_555 1_555
C72_3 H91_14 1_555 1_555
C72_3 H92_14 1_555 1_555
C72_3 H93_14 1_555 1_555
C48_3 H94_22 1_555 1_555
C48_3 H95_22 1_555 1_555
C48_3 H96_22 1_555 1_555
C36_5 H99_14 1_555 1_555
C36_5 H100_14 1_555 1_555
C36_5 H101_14 1_555 1_555
C24_5 H104_22 1_555 1_555
C24_5 H105_22 1_555 1_555
C24_5 H106_22 1_555 1_555
C96_5 H84_12 1_555 1_555
C96_5 H85_12 1_555 1_555
C96_5 H86_12 1_555 1_555
O49_6 H61_63 1_555 1_555
C36_4 H91_15 1_555 1_555
C36_4 H92_15 1_555 1_555
C36_4 H93_15 1_555 1_555
C12_4 H94_23 1_555 1_555
C12_4 H95_23 1_555 1_555
C12_4 H96_23 1_555 1_555
C72_6 H99_15 1_555 1_555
C72_6 H100_15 1_555 1_555
C72_6 H101_15 1_555 1_555
C60_6 H104_23 1_555 1_555
C60_6 H105_23 1_555 1_555
C60_6 H106_23 1_555 1_555
O49_5 H61_64 1_555 1_555
C36_3 H91_16 1_555 1_555
C36_3 H92_16 1_555 1_555
C36_3 H93_16 1_555 1_555
C12_3 H94_24 1_555 1_555
C12_3 H95_24 1_555 1_555
C12_3 H96_24 1_555 1_555
C72_5 H99_16 1_555 1_555
C72_5 H100_16 1_555 1_555
C72_5 H101_16 1_555 1_555
C60_5 H104_24 1_555 1_555
C60_5 H105_24 1_555 1_555
C60_5 H106_24 1_555 1_555
O12_3 H61_65 1_555 1_555
O27_4 H61_66 1_555 1_555
O12_4 H61_67 1_555 1_555
O27_3 H61_68 1_555 1_555
O17_5 H61_69 1_555 1_555
O32_5 H61_70 1_555 1_555
O32_6 H61_71 1_555 1_555
O17_6 H61_72 1_555 1_555
O7_15 Zn28_3 1_555 1_555
O10_15 Zn20_3 1_555 1_555
O39_11 Zn26_9 1_555 1_555
O42_11 Zn18_9 1_555 1_555
C120_4 H84_13 1_555 1_555
C120_4 H85_13 1_555 1_555
C120_4 H86_13 1_555 1_555
O39_12 Zn26_10 1_555 1_555
O42_12 Zn18_10 1_555 1_555
O7_16 Zn28_4 1_555 1_555
O10_16 Zn20_4 1_555 1_555
O39_13 Zn26_11 1_555 1_555
O42_13 Zn18_11 1_555 1_555
O56_15 Zn30 1_555 1_555
O59_15 Zn22 1_555 1_555
O61_2 H61_73 1_555 1_555
C120_2 H75_13 1_555 1_555
C120_2 H76_13 1_555 1_555
C120_2 H77_13 1_555 1_555
C132_11 H94_25 1_555 1_555
C132_11 H95_25 1_555 1_555
C132_11 H96_25 1_555 1_555
C24_2 H104_25 1_555 1_555
C24_2 H105_25 1_555 1_555
C24_2 H106_25 1_555 1_555
O39_14 Zn26_12 1_555 1_555
O42_14 Zn18_12 1_555 1_555
O56_16 Zn30_2 1_555 1_555
O59_16 Zn22_2 1_555 1_555
O56_17 Zn29 1_555 1_555
O59_17 Zn21 1_555 1_555
O7_17 Zn28 1_555 1_555
O10_17 Zn20 1_555 1_555
O56_18 Zn29_2 1_555 1_555
O59_18 Zn21_2 1_555 1_555
O61 H61_74 1_555 1_555
C120 H75_14 1_555 1_555
C120 H76_14 1_555 1_555
C120 H77_14 1_555 1_555
C132_12 H94_26 1_555 1_555
C132_12 H95_26 1_555 1_555
C132_12 H96_26 1_555 1_555
C24 H104_26 1_555 1_555
C24 H105_26 1_555 1_555
C24 H106_26 1_555 1_555
O7_18 Zn28_2 1_555 1_555
O10_18 Zn20_2 1_555 1_555
C120_3 H84_14 1_555 1_555
C120_3 H85_14 1_555 1_555
C120_3 H86_14 1_555 1_555
O39_15 Zn26_5 1_555 1_555
O42_15 Zn18_5 1_555 1_555
O61_4 H61_75 1_555 1_555
C132_9 H94_27 1_555 1_555
C132_9 H95_27 1_555 1_555
C132_9 H96_27 1_555 1_555
C60_2 H104_27 1_555 1_555
C60_2 H105_27 1_555 1_555
C60_2 H106_27 1_555 1_555
O39_16 Zn26_6 1_555 1_555
O42_16 Zn18_6 1_555 1_555
O39_17 Zn26_7 1_555 1_555
O42_17 Zn18_7 1_555 1_555
O39_18 Zn26_8 1_555 1_555
O42_18 Zn18_8 1_555 1_555
O61_3 H61_76 1_555 1_555
C132_10 H94_28 1_555 1_555
C132_10 H95_28 1_555 1_555
C132_10 H96_28 1_555 1_555
C60 H104_28 1_555 1_555
C60 H105_28 1_555 1_555
C60 H106_28 1_555 1_555
O66_10 H61_77 1_555 1_555
O66_11 H61_78 1_555 1_555
O66_9 H61_79 1_555 1_555
O66_12 H61_80 1_555 1_555
O17 H61_81 1_555 1_555
O32 H61_82 1_555 1_555
O32_2 H61_83 1_555 1_555
O17_2 H61_84 1_555 1_555
C120_8 H84_15 1_555 1_555
C120_8 H85_15 1_555 1_555
C120_8 H86_15 1_555 1_555
O61_6 H61_85 1_555 1_555
C120_6 H75_15 1_555 1_555
C120_6 H76_15 1_555 1_555
C120_6 H77_15 1_555 1_555
C48_6 H94_29 1_555 1_555
C48_6 H95_29 1_555 1_555
C48_6 H96_29 1_555 1_555
C24_4 H104_29 1_555 1_555
C24_4 H105_29 1_555 1_555
C24_4 H106_29 1_555 1_555
O61_5 H61_86 1_555 1_555
C120_5 H75_16 1_555 1_555
C120_5 H76_16 1_555 1_555
C120_5 H77_16 1_555 1_555
C48_5 H94_30 1_555 1_555
C48_5 H95_30 1_555 1_555
C48_5 H96_30 1_555 1_555
C24_3 H104_30 1_555 1_555
C24_3 H105_30 1_555 1_555
C24_3 H106_30 1_555 1_555
C120_7 H84_16 1_555 1_555
C120_7 H85_16 1_555 1_555
C120_7 H86_16 1_555 1_555
O61_8 H61_87 1_555 1_555
C12_6 H94_31 1_555 1_555
C12_6 H95_31 1_555 1_555
C12_6 H96_31 1_555 1_555
C60_4 H104_31 1_555 1_555
C60_4 H105_31 1_555 1_555
C60_4 H106_31 1_555 1_555
O61_7 H61_88 1_555 1_555
C12_5 H94_32 1_555 1_555
C12_5 H95_32 1_555 1_555
C12_5 H96_32 1_555 1_555
C60_3 H104_32 1_555 1_555
C60_3 H105_32 1_555 1_555
C60_3 H106_32 1_555 1_555
O12_5 H61_89 1_555 1_555
O27_6 H61_90 1_555 1_555
O12_6 H61_91 1_555 1_555
O27_5 H61_92 1_555 1_555
O17_3 H61_93 1_555 1_555
O32_3 H61_94 1_555 1_555
O32_4 H61_95 1_555 1_555
O17_4 H61_96 1_555 1_555

#END
