
###############################################################################
#
# This file contains modified crystal structure data generated from the
# MOF subset of the Cambridge Structural Database (CSD) v543 
# hosted by the Cambridge Crystallographic Data Centre (CCDC).
#
# This work is licensed under the Creative Commons
# Attribution-NonCommercial-ShareAlike 4.0 International License.
# To view a copy of this license, visit
# http://creativecommons.org/licenses/by-nc-sa/4.0/
# or send a letter to
# Creative Commons, PO Box 1866, Mountain View, CA 94042, USA.
#
# CIF created using the CSD Python API on 29 September 2022
# The structure has been converted into the P1 space group
# The structure has a 3D framework
# The original CSD entry YEVTUR is in the cubic crystal system
# The framework has been calculated to contain at least 10.0% void space
# The void calculation uses a probe of radius 1.32A, grid spacing 0.4
# The framework is charged, counterions have been retained in the structure
# H atom positions have been added when not included in the experimental data
# Generated hydrogen atom positions removed from atoms on special positions
#
###############################################################################

data_YEVTUR
_chemical_formula_moiety         '(C1152 H1344 Cl54 Co172 O598 4+)n'
_symmetry_cell_setting           triclinic
_symmetry_space_group_name_H-M   'P 1'
_symmetry_Int_Tables_number      1
_space_group_name_Hall           'P 1'
loop_
_symmetry_equiv_pos_site_id
_symmetry_equiv_pos_as_xyz
1 x,y,z
_cell_length_a                   43.347(5)
_cell_length_b                   43.347(5)
_cell_length_c                   43.347(5)
_cell_angle_alpha                90
_cell_angle_beta                 90
_cell_angle_gamma                90
_cell_volume                     81447.4
loop_
_atom_site_label
_atom_site_type_symbol
_atom_site_fract_x
_atom_site_fract_y
_atom_site_fract_z
Co1 Co 0.33938(3) 0.33938(3) 0.33938(3)
Co2 Co 0.38808(2) 0.38808(2) 0.38808(2)
Co3 Co 0.29906(4) 0.5000 0.5000
Co4 Co 0.23192(4) 0.5000 0.5000
Cl1 Cl 0.3450(2) 0.5000 0.5000
O1 O 0.3167(2) 0.36567(16) 0.36567(16)
O2 O 0.3440(2) 0.39561(13) 0.39561(13)
O3 O 0.29175(17) 0.46743(11) 0.46743(11)
O4 O 0.23973(19) 0.46764(12) 0.46764(12)
O5 O 0.41553(12) 0.41553(12) 0.41553(12)
O6 O 0.31242(14) 0.31242(14) 0.31242(14)
O7 O 0.1850(3) 0.5000 0.5000
O8 O 0.2100(2) 0.38871(16) 0.38871(16)
C1 C 0.3197(3) 0.3850(2) 0.3850(2)
C2 C 0.2906(3) 0.3994(2) 0.3994(2)
C3 C 0.2918(2) 0.4214(2) 0.4214(2)
H1 H 0.3108 0.4284 0.4284
C4 C 0.2652(3) 0.43331(17) 0.43331(17)
C5 C 0.2370(2) 0.4225(2) 0.4225(2)
H2 H 0.2185 0.4302 0.4302
C6 C 0.2369(3) 0.4001(2) 0.4001(2)
C7 C 0.2636(3) 0.38864(16) 0.38864(16)
H3 H 0.2633 0.3735 0.3735
C8 C 0.2659(3) 0.45829(19) 0.45829(19)
C9 C 0.1587(3) 0.3793(3) 0.3793(3)
C10 C 0.1486(3) 0.3893(4) 0.3514(3)
C11 C 0.1647(5) 0.4164(5) 0.3353(5)
H4 H 0.1567 0.4355 0.3432
H5 H 0.1610 0.4153 0.3135
C12 C 0.1815(4) 0.3983(2) 0.3983(2)
H6 H 0.1769 0.4131 0.4131
O9 O 0.13433(16) 0.36567(16) 0.1833(2)
O10 O 0.10439(13) 0.39561(13) 0.1560(2)
O11 O 0.03257(11) 0.46743(11) 0.20825(17)
O12 O 0.03236(12) 0.46764(12) 0.26027(19)
O13 O 0.11129(16) 0.38871(16) 0.2900(2)
C13 C 0.1150(2) 0.3850(2) 0.1803(3)
C14 C 0.1006(2) 0.3994(2) 0.2094(3)
C15 C 0.0786(2) 0.4214(2) 0.2082(2)
H7 H 0.0716 0.4284 0.1892
C16 C 0.06669(17) 0.43331(17) 0.2348(3)
C17 C 0.0775(2) 0.4225(2) 0.2630(2)
H8 H 0.0698 0.4302 0.2815
C18 C 0.0999(2) 0.4001(2) 0.2631(3)
C19 C 0.11136(16) 0.38864(16) 0.2364(3)
H9 H 0.1265 0.3735 0.2367
C20 C 0.04171(19) 0.45829(19) 0.2341(3)
C21 C 0.1207(3) 0.3793(3) 0.3413(3)
C22 C 0.1107(4) 0.3514(3) 0.3514(3)
C23 C 0.0836(5) 0.3353(5) 0.3353(5)
H10 H 0.0645 0.3432 0.3433
H11 H 0.0847 0.3135 0.3390
C24 C 0.1017(2) 0.3983(2) 0.3185(4)
H12 H 0.0869 0.4131 0.3231
O14 O 0.13433(16) 0.1833(2) 0.36567(16)
O15 O 0.10439(13) 0.1560(2) 0.39561(13)
O16 O 0.03257(11) 0.20825(17) 0.46743(11)
O17 O 0.03236(12) 0.26027(19) 0.46764(12)
O18 O 0.11129(16) 0.2900(2) 0.38871(16)
C25 C 0.1150(2) 0.1803(3) 0.3850(2)
C26 C 0.1006(2) 0.2094(3) 0.3994(2)
C27 C 0.0786(2) 0.2082(2) 0.4214(2)
H13 H 0.0716 0.1892 0.4284
C28 C 0.06669(17) 0.2348(3) 0.43331(17)
C29 C 0.0775(2) 0.2630(2) 0.4225(2)
H14 H 0.0698 0.2815 0.4302
C30 C 0.0999(2) 0.2631(3) 0.4001(2)
C31 C 0.11136(16) 0.2364(3) 0.38864(16)
H15 H 0.1265 0.2367 0.3735
C32 C 0.04171(19) 0.2341(3) 0.45829(19)
C33 C 0.1207(3) 0.3413(3) 0.3793(3)
C34 C 0.1486(3) 0.3514(3) 0.3893(4)
C35 C 0.1647(5) 0.3353(5) 0.4164(5)
H16 H 0.1568 0.3433 0.4355
H17 H 0.1865 0.3390 0.4153
C36 C 0.1017(2) 0.3185(4) 0.3983(2)
H18 H 0.0869 0.3231 0.4131
H19 H 0.1610 0.3135 0.4153
H20 H 0.1865 0.4153 0.3390
H21 H 0.0847 0.3390 0.3135
Co5 Co 0.33938(3) 0.66062(3) 0.66062(3)
Co6 Co 0.38808(2) 0.61192(2) 0.61192(2)
O19 O 0.3167(2) 0.63433(16) 0.63433(16)
O20 O 0.3440(2) 0.60439(13) 0.60439(13)
O21 O 0.29175(17) 0.53257(11) 0.53257(11)
O22 O 0.23973(19) 0.53236(12) 0.53236(12)
O23 O 0.41553(12) 0.58447(12) 0.58447(12)
O24 O 0.31242(14) 0.68758(14) 0.68758(14)
O25 O 0.2100(2) 0.61129(16) 0.61129(16)
C37 C 0.3197(3) 0.6150(2) 0.6150(2)
C38 C 0.2906(3) 0.6006(2) 0.6006(2)
C39 C 0.2918(2) 0.5786(2) 0.5786(2)
H22 H 0.3108 0.5716 0.5716
C40 C 0.2652(3) 0.56669(17) 0.56669(17)
C41 C 0.2370(2) 0.5775(2) 0.5775(2)
H23 H 0.2185 0.5698 0.5698
C42 C 0.2369(3) 0.5999(2) 0.5999(2)
C43 C 0.2636(3) 0.61136(16) 0.61136(16)
H24 H 0.2633 0.6265 0.6265
C44 C 0.2659(3) 0.54171(19) 0.54171(19)
C45 C 0.1587(3) 0.6207(3) 0.6207(3)
C46 C 0.1486(3) 0.6107(4) 0.6486(3)
C47 C 0.1647(5) 0.5836(5) 0.6647(5)
H25 H 0.1567 0.5645 0.6568
H26 H 0.1610 0.5847 0.6865
C48 C 0.1815(4) 0.6017(2) 0.6017(2)
H27 H 0.1769 0.5869 0.5869
O26 O 0.13433(16) 0.63433(16) 0.8167(2)
O27 O 0.10439(13) 0.60439(13) 0.8440(2)
O28 O 0.03257(11) 0.53257(11) 0.79175(17)
O29 O 0.03236(12) 0.53236(12) 0.73973(19)
O30 O 0.11129(16) 0.61129(16) 0.7100(2)
C49 C 0.1150(2) 0.6150(2) 0.8197(3)
C50 C 0.1006(2) 0.6006(2) 0.7906(3)
C51 C 0.0786(2) 0.5786(2) 0.7918(2)
H28 H 0.0716 0.5716 0.8108
C52 C 0.06669(17) 0.56669(17) 0.7652(3)
C53 C 0.0775(2) 0.5775(2) 0.7370(2)
H29 H 0.0698 0.5698 0.7185
C54 C 0.0999(2) 0.5999(2) 0.7369(3)
C55 C 0.11136(16) 0.61136(16) 0.7636(3)
H30 H 0.1265 0.6265 0.7633
C56 C 0.04171(19) 0.54171(19) 0.7659(3)
C57 C 0.1207(3) 0.6207(3) 0.6587(3)
C58 C 0.1107(4) 0.6486(3) 0.6486(3)
C59 C 0.0836(5) 0.6647(5) 0.6647(5)
H31 H 0.0645 0.6568 0.6567
H32 H 0.0847 0.6865 0.6610
C60 C 0.1017(2) 0.6017(2) 0.6815(4)
H33 H 0.0869 0.5869 0.6769
O31 O 0.13433(16) 0.8167(2) 0.63433(16)
O32 O 0.10439(13) 0.8440(2) 0.60439(13)
O33 O 0.03257(11) 0.79175(17) 0.53257(11)
O34 O 0.03236(12) 0.73973(19) 0.53236(12)
O35 O 0.11129(16) 0.7100(2) 0.61129(16)
C61 C 0.1150(2) 0.8197(3) 0.6150(2)
C62 C 0.1006(2) 0.7906(3) 0.6006(2)
C63 C 0.0786(2) 0.7918(2) 0.5786(2)
H34 H 0.0716 0.8108 0.5716
C64 C 0.06669(17) 0.7652(3) 0.56669(17)
C65 C 0.0775(2) 0.7370(2) 0.5775(2)
H35 H 0.0698 0.7185 0.5698
C66 C 0.0999(2) 0.7369(3) 0.5999(2)
C67 C 0.11136(16) 0.7636(3) 0.61136(16)
H36 H 0.1265 0.7633 0.6265
C68 C 0.04171(19) 0.7659(3) 0.54171(19)
C69 C 0.1207(3) 0.6587(3) 0.6207(3)
C70 C 0.1486(3) 0.6486(3) 0.6107(4)
C71 C 0.1647(5) 0.6647(5) 0.5836(5)
H37 H 0.1568 0.6567 0.5645
H38 H 0.1865 0.6610 0.5847
C72 C 0.1017(2) 0.6815(4) 0.6017(2)
H39 H 0.0869 0.6769 0.5869
H40 H 0.1610 0.6865 0.5847
H41 H 0.1865 0.5847 0.6610
H42 H 0.0847 0.6610 0.6865
Co7 Co 0.5000 0.29906(4) 0.5000
Co8 Co 0.5000 0.23192(4) 0.5000
Cl2 Cl 0.5000 0.3450(2) 0.5000
O36 O 0.36567(16) 0.3167(2) 0.36567(16)
O37 O 0.39561(13) 0.3440(2) 0.39561(13)
O38 O 0.46743(11) 0.29175(17) 0.46743(11)
O39 O 0.46764(12) 0.23973(19) 0.46764(12)
O40 O 0.5000 0.1850(3) 0.5000
O41 O 0.38871(16) 0.2100(2) 0.38871(16)
C73 C 0.3850(2) 0.3197(3) 0.3850(2)
C74 C 0.3994(2) 0.2906(3) 0.3994(2)
C75 C 0.4214(2) 0.2918(2) 0.4214(2)
H43 H 0.4284 0.3108 0.4284
C76 C 0.43331(17) 0.2652(3) 0.43331(17)
C77 C 0.4225(2) 0.2370(2) 0.4225(2)
H44 H 0.4302 0.2185 0.4302
C78 C 0.4001(2) 0.2369(3) 0.4001(2)
C79 C 0.38864(16) 0.2636(3) 0.38864(16)
H45 H 0.3735 0.2633 0.3735
C80 C 0.45829(19) 0.2659(3) 0.45829(19)
C81 C 0.3793(3) 0.1587(3) 0.3793(3)
C82 C 0.3514(3) 0.1486(3) 0.3893(4)
C83 C 0.3353(5) 0.1647(5) 0.4164(5)
H46 H 0.3432 0.1567 0.4355
H47 H 0.3135 0.1610 0.4153
C84 C 0.3983(2) 0.1815(4) 0.3983(2)
H48 H 0.4131 0.1769 0.4131
O42 O 0.1833(2) 0.13433(16) 0.36567(16)
O43 O 0.1560(2) 0.10439(13) 0.39561(13)
O44 O 0.20825(17) 0.03257(11) 0.46743(11)
O45 O 0.26027(19) 0.03236(12) 0.46764(12)
O46 O 0.2900(2) 0.11129(16) 0.38871(16)
C85 C 0.1803(3) 0.1150(2) 0.3850(2)
C86 C 0.2094(3) 0.1006(2) 0.3994(2)
C87 C 0.2082(2) 0.0786(2) 0.4214(2)
H49 H 0.1892 0.0716 0.4284
C88 C 0.2348(3) 0.06669(17) 0.43331(17)
C89 C 0.2630(2) 0.0775(2) 0.4225(2)
H50 H 0.2815 0.0698 0.4302
C90 C 0.2631(3) 0.0999(2) 0.4001(2)
C91 C 0.2364(3) 0.11136(16) 0.38864(16)
H51 H 0.2367 0.1265 0.3735
C92 C 0.2341(3) 0.04171(19) 0.45829(19)
C93 C 0.3413(3) 0.1207(3) 0.3793(3)
C94 C 0.3514(3) 0.1107(4) 0.3514(3)
C95 C 0.3353(5) 0.0836(5) 0.3353(5)
H52 H 0.3433 0.0645 0.3432
H53 H 0.3390 0.0847 0.3135
C96 C 0.3185(4) 0.1017(2) 0.3983(2)
H54 H 0.3231 0.0869 0.4131
O47 O 0.36567(16) 0.13433(16) 0.1833(2)
O48 O 0.39561(13) 0.10439(13) 0.1560(2)
O49 O 0.46743(11) 0.03257(11) 0.20825(17)
O50 O 0.46764(12) 0.03236(12) 0.26027(19)
O51 O 0.38871(16) 0.11129(16) 0.2900(2)
C97 C 0.3850(2) 0.1150(2) 0.1803(3)
C98 C 0.3994(2) 0.1006(2) 0.2094(3)
C99 C 0.4214(2) 0.0786(2) 0.2082(2)
H55 H 0.4284 0.0716 0.1892
C100 C 0.43331(17) 0.06669(17) 0.2348(3)
C101 C 0.4225(2) 0.0775(2) 0.2630(2)
H56 H 0.4302 0.0698 0.2815
C102 C 0.4001(2) 0.0999(2) 0.2631(3)
C103 C 0.38864(16) 0.11136(16) 0.2364(3)
H57 H 0.3735 0.1265 0.2367
C104 C 0.45829(19) 0.04171(19) 0.2341(3)
C105 C 0.3793(3) 0.1207(3) 0.3413(3)
C106 C 0.3893(4) 0.1486(3) 0.3514(3)
C107 C 0.4164(5) 0.1647(5) 0.3353(5)
H58 H 0.4355 0.1568 0.3433
H59 H 0.4153 0.1865 0.3390
C108 C 0.3983(2) 0.1017(2) 0.3185(4)
H60 H 0.4131 0.0869 0.3231
H61 H 0.4153 0.1610 0.3135
H62 H 0.3390 0.1865 0.4153
H63 H 0.3135 0.0847 0.3390
Co9 Co 0.5000 0.5000 0.29906(4)
Co10 Co 0.5000 0.5000 0.23192(4)
Cl3 Cl 0.5000 0.5000 0.3450(2)
O52 O 0.36567(16) 0.36567(16) 0.3167(2)
O53 O 0.39561(13) 0.39561(13) 0.3440(2)
O54 O 0.46743(11) 0.46743(11) 0.29175(17)
O55 O 0.46764(12) 0.46764(12) 0.23973(19)
O56 O 0.5000 0.5000 0.1850(3)
O57 O 0.38871(16) 0.38871(16) 0.2100(2)
C109 C 0.3850(2) 0.3850(2) 0.3197(3)
C110 C 0.3994(2) 0.3994(2) 0.2906(3)
C111 C 0.4214(2) 0.4214(2) 0.2918(2)
H64 H 0.4284 0.4284 0.3108
C112 C 0.43331(17) 0.43331(17) 0.2652(3)
C113 C 0.4225(2) 0.4225(2) 0.2370(2)
H65 H 0.4302 0.4302 0.2185
C114 C 0.4001(2) 0.4001(2) 0.2369(3)
C115 C 0.38864(16) 0.38864(16) 0.2636(3)
H66 H 0.3735 0.3735 0.2633
C116 C 0.45829(19) 0.45829(19) 0.2659(3)
C117 C 0.3793(3) 0.3793(3) 0.1587(3)
C118 C 0.3893(4) 0.3514(3) 0.1486(3)
C119 C 0.4164(5) 0.3353(5) 0.1647(5)
H67 H 0.4355 0.3432 0.1567
H68 H 0.4153 0.3135 0.1610
C120 C 0.3983(2) 0.3983(2) 0.1815(4)
H69 H 0.4131 0.4131 0.1769
O58 O 0.36567(16) 0.1833(2) 0.13433(16)
O59 O 0.39561(13) 0.1560(2) 0.10439(13)
O60 O 0.46743(11) 0.20825(17) 0.03257(11)
O61 O 0.46764(12) 0.26027(19) 0.03236(12)
O62 O 0.38871(16) 0.2900(2) 0.11129(16)
C121 C 0.3850(2) 0.1803(3) 0.1150(2)
C122 C 0.3994(2) 0.2094(3) 0.1006(2)
C123 C 0.4214(2) 0.2082(2) 0.0786(2)
H70 H 0.4284 0.1892 0.0716
C124 C 0.43331(17) 0.2348(3) 0.06669(17)
C125 C 0.4225(2) 0.2630(2) 0.0775(2)
H71 H 0.4302 0.2815 0.0698
C126 C 0.4001(2) 0.2631(3) 0.0999(2)
C127 C 0.38864(16) 0.2364(3) 0.11136(16)
H72 H 0.3735 0.2367 0.1265
C128 C 0.45829(19) 0.2341(3) 0.04171(19)
C129 C 0.3793(3) 0.3413(3) 0.1207(3)
C130 C 0.3514(3) 0.3514(3) 0.1107(4)
C131 C 0.3353(5) 0.3353(5) 0.0836(5)
H73 H 0.3432 0.3433 0.0645
H74 H 0.3135 0.3390 0.0847
C132 C 0.3983(2) 0.3185(4) 0.1017(2)
H75 H 0.4131 0.3231 0.0869
O63 O 0.1833(2) 0.36567(16) 0.13433(16)
O64 O 0.1560(2) 0.39561(13) 0.10439(13)
O65 O 0.20825(17) 0.46743(11) 0.03257(11)
O66 O 0.26027(19) 0.46764(12) 0.03236(12)
O67 O 0.2900(2) 0.38871(16) 0.11129(16)
C133 C 0.1803(3) 0.3850(2) 0.1150(2)
C134 C 0.2094(3) 0.3994(2) 0.1006(2)
C135 C 0.2082(2) 0.4214(2) 0.0786(2)
H76 H 0.1892 0.4284 0.0716
C136 C 0.2348(3) 0.43331(17) 0.06669(17)
C137 C 0.2630(2) 0.4225(2) 0.0775(2)
H77 H 0.2815 0.4302 0.0698
C138 C 0.2631(3) 0.4001(2) 0.0999(2)
C139 C 0.2364(3) 0.38864(16) 0.11136(16)
H78 H 0.2367 0.3735 0.1265
C140 C 0.2341(3) 0.45829(19) 0.04171(19)
C141 C 0.3413(3) 0.3793(3) 0.1207(3)
C142 C 0.3514(3) 0.3893(4) 0.1486(3)
C143 C 0.3353(5) 0.4164(5) 0.1647(5)
H79 H 0.3433 0.4355 0.1568
H80 H 0.3390 0.4153 0.1865
C144 C 0.3185(4) 0.3983(2) 0.1017(2)
H81 H 0.3231 0.4131 0.0869
H82 H 0.3135 0.4153 0.1610
H83 H 0.4153 0.3390 0.1865
H84 H 0.3390 0.3135 0.0847
Co11 Co 0.16062(3) 0.33938(3) 0.16062(3)
O68 O 0.18758(14) 0.31242(14) 0.18758(14)
Co12 Co 0.11192(2) 0.38808(2) 0.11192(2)
O69 O 0.08447(12) 0.41553(12) 0.08447(12)
Co13 Co 0.16062(3) 0.16062(3) 0.33938(3)
O70 O 0.18758(14) 0.18758(14) 0.31242(14)
Co14 Co 0.11192(2) 0.11192(2) 0.38808(2)
O71 O 0.08447(12) 0.08447(12) 0.41553(12)
Co15 Co 0.33938(3) 0.16062(3) 0.16062(3)
Co16 Co 0.16062(3) 0.66062(3) 0.83938(3)
Co17 Co 0.16062(3) 0.83938(3) 0.66062(3)
Co18 Co 0.38808(2) 0.11192(2) 0.11192(2)
Co19 Co 0.11192(2) 0.61192(2) 0.88808(2)
Co20 Co 0.11192(2) 0.88808(2) 0.61192(2)
Co21 Co 0.5000 0.20094(4) 0.0000
Co22 Co 0.5000 -0.0000 0.20094(4)
Co23 Co 0.20094(4) 0.5000 0.0000
Co24 Co 0.0000 0.5000 0.79906(4)
Co25 Co 0.0000 0.5000 0.20094(4)
Co26 Co 0.20094(4) 0.0000 0.5000
Co27 Co 0.0000 0.79906(4) 0.5000
Co28 Co 0.0000 0.20094(4) 0.5000
Co29 Co 0.5000 0.26808(4) 0.0000
Co30 Co 0.5000 0.0000 0.26808(4)
Co31 Co 0.26808(4) 0.5000 0.0000
Co32 Co 0.0000 0.5000 0.73192(4)
Co33 Co 0.0000 0.5000 0.26808(4)
Co34 Co 0.26808(4) 0.0000 0.5000
Co35 Co 0.0000 0.73192(4) 0.5000
Co36 Co 0.0000 0.26808(4) 0.5000
O72 O 0.36567(16) 0.6833(2) 0.63433(16)
O73 O 0.36567(16) 0.63433(16) 0.6833(2)
O74 O 0.13433(16) 0.3167(2) 0.13433(16)
O75 O 0.13433(16) 0.13433(16) 0.3167(2)
O76 O 0.39561(13) 0.6560(2) 0.60439(13)
O77 O 0.39561(13) 0.60439(13) 0.6560(2)
O78 O 0.10439(13) 0.3440(2) 0.10439(13)
O79 O 0.10439(13) 0.10439(13) 0.3440(2)
O80 O 0.53257(11) 0.29175(17) 0.53257(11)
O81 O 0.53257(11) 0.53257(11) 0.29175(17)
O82 O 0.46743(11) 0.29175(17) 0.53257(11)
O83 O 0.53257(11) 0.29175(17) 0.46743(11)
O84 O 0.29175(17) 0.46743(11) 0.53257(11)
O85 O 0.29175(17) 0.53257(11) 0.46743(11)
O86 O 0.46743(11) 0.53257(11) 0.29175(17)
O87 O 0.53257(11) 0.46743(11) 0.29175(17)
O88 O 0.53236(12) 0.23973(19) 0.53236(12)
O89 O 0.53236(12) 0.53236(12) 0.23973(19)
O90 O 0.46764(12) 0.23973(19) 0.53236(12)
O91 O 0.53236(12) 0.23973(19) 0.46764(12)
O92 O 0.23973(19) 0.46764(12) 0.53236(12)
O93 O 0.23973(19) 0.53236(12) 0.46764(12)
O94 O 0.46764(12) 0.53236(12) 0.23973(19)
O95 O 0.53236(12) 0.46764(12) 0.23973(19)
H89 H 0.1815 0.380535 0.416065
H92 H 0.0839355 0.380535 0.3185
H97 H 0.0839355 0.3185 0.380535
H98 H 0.1815 0.619465 0.583935
H99 H 0.119465 0.583935 0.6815
H100 H 0.119465 0.6815 0.583935
H103 H 0.416065 0.1815 0.380535
H104 H 0.3185 0.0839355 0.380535
H105 H 0.380535 0.0839355 0.3185
H108 H 0.416065 0.380535 0.1815
H109 H 0.380535 0.3185 0.0839355
H112 H 0.3185 0.380535 0.0839355
Co21_2 Co 0.5000 0.20094(4) 1.0000
Co23_2 Co 0.20094(4) 0.5000 1.0000
Co29_2 Co 0.5000 0.26808(4) 1.0000
Co31_2 Co 0.26808(4) 0.5000 1.0000
Co22_2 Co 0.5000 1.0000 0.20094(4)
Co26_2 Co 0.20094(4) 1.0000 0.5000
Co30_2 Co 0.5000 1.0000 0.26808(4)
Co34_2 Co 0.26808(4) 1.0000 0.5000
Co24_2 Co 1.0000 0.5000 0.79906(4)
Co25_2 Co 1.0000 0.5000 0.20094(4)
Co27_2 Co 1.0000 0.79906(4) 0.5000
Co28_2 Co 1.0000 0.20094(4) 0.5000
Co32_2 Co 1.0000 0.5000 0.73192(4)
Co33_2 Co 1.0000 0.5000 0.26808(4)
Co35_2 Co 1.0000 0.73192(4) 0.5000
Co36_2 Co 1.0000 0.26808(4) 0.5000
Co26_3 Co 0.79906(4) 0.0000 0.5000
Co34_3 Co 0.73192(4) 0.0000 0.5000
Co1_2 Co 0.66062(3) 0.66062(3) 0.33938(3)
Co2_2 Co 0.61192(2) 0.61192(2) 0.38808(2)
Co3_2 Co 0.70094(4) 0.5000 0.5000
Co4_2 Co 0.76808(4) 0.5000 0.5000
Cl1_2 Cl 0.6550(2) 0.5000 0.5000
O1_2 O 0.6833(2) 0.63433(16) 0.36567(16)
O2_2 O 0.6560(2) 0.60439(13) 0.39561(13)
O3_2 O 0.70825(17) 0.53257(11) 0.46743(11)
O4_2 O 0.76027(19) 0.53236(12) 0.46764(12)
O5_2 O 0.58447(12) 0.58447(12) 0.41553(12)
O6_2 O 0.68758(14) 0.68758(14) 0.31242(14)
O7_2 O 0.8150(3) 0.5000 0.5000
O8_2 O 0.7900(2) 0.61129(16) 0.38871(16)
C1_2 C 0.6803(3) 0.6150(2) 0.3850(2)
C2_2 C 0.7094(3) 0.6006(2) 0.3994(2)
C3_2 C 0.7082(2) 0.5786(2) 0.4214(2)
H1_2 H 0.6892 0.5716 0.4284
C4_2 C 0.7348(3) 0.56669(17) 0.43331(17)
C5_2 C 0.7630(2) 0.5775(2) 0.4225(2)
H2_2 H 0.7815 0.5698 0.4302
C6_2 C 0.7631(3) 0.5999(2) 0.4001(2)
C7_2 C 0.7364(3) 0.61136(16) 0.38864(16)
H3_2 H 0.7367 0.6265 0.3735
C8_2 C 0.7341(3) 0.54171(19) 0.45829(19)
C9_2 C 0.8413(3) 0.6207(3) 0.3793(3)
C10_2 C 0.8514(3) 0.6107(4) 0.3514(3)
C11_2 C 0.8353(5) 0.5836(5) 0.3353(5)
H4_2 H 0.8433 0.5645 0.3432
H5_2 H 0.8390 0.5847 0.3135
C12_2 C 0.8185(4) 0.6017(2) 0.3983(2)
H6_2 H 0.8231 0.5869 0.4131
O9_2 O 0.86567(16) 0.63433(16) 0.1833(2)
O10_2 O 0.89561(13) 0.60439(13) 0.1560(2)
O11_2 O 0.96743(11) 0.53257(11) 0.20825(17)
O12_2 O 0.96764(12) 0.53236(12) 0.26027(19)
O13_2 O 0.88871(16) 0.61129(16) 0.2900(2)
C13_2 C 0.8850(2) 0.6150(2) 0.1803(3)
C14_2 C 0.8994(2) 0.6006(2) 0.2094(3)
C15_2 C 0.9214(2) 0.5786(2) 0.2082(2)
H7_2 H 0.9284 0.5716 0.1892
C16_2 C 0.93331(17) 0.56669(17) 0.2348(3)
C17_2 C 0.9225(2) 0.5775(2) 0.2630(2)
H8_2 H 0.9302 0.5698 0.2815
C18_2 C 0.9001(2) 0.5999(2) 0.2631(3)
C19_2 C 0.88864(16) 0.61136(16) 0.2364(3)
H9_2 H 0.8735 0.6265 0.2367
C20_2 C 0.95829(19) 0.54171(19) 0.2341(3)
C21_2 C 0.8793(3) 0.6207(3) 0.3413(3)
C22_2 C 0.8893(4) 0.6486(3) 0.3514(3)
C23_2 C 0.9164(5) 0.6647(5) 0.3353(5)
H10_2 H 0.9355 0.6568 0.3433
H11_2 H 0.9153 0.6865 0.3390
C24_2 C 0.8983(2) 0.6017(2) 0.3185(4)
H12_2 H 0.9131 0.5869 0.3231
O14_2 O 0.86567(16) 0.8167(2) 0.36567(16)
O15_2 O 0.89561(13) 0.8440(2) 0.39561(13)
O16_2 O 0.96743(11) 0.79175(17) 0.46743(11)
O17_2 O 0.96764(12) 0.73973(19) 0.46764(12)
O18_2 O 0.88871(16) 0.7100(2) 0.38871(16)
C25_2 C 0.8850(2) 0.8197(3) 0.3850(2)
C26_2 C 0.8994(2) 0.7906(3) 0.3994(2)
C27_2 C 0.9214(2) 0.7918(2) 0.4214(2)
H13_2 H 0.9284 0.8108 0.4284
C28_2 C 0.93331(17) 0.7652(3) 0.43331(17)
C29_2 C 0.9225(2) 0.7370(2) 0.4225(2)
H14_2 H 0.9302 0.7185 0.4302
C30_2 C 0.9001(2) 0.7369(3) 0.4001(2)
C31_2 C 0.88864(16) 0.7636(3) 0.38864(16)
H15_2 H 0.8735 0.7633 0.3735
C32_2 C 0.95829(19) 0.7659(3) 0.45829(19)
C33_2 C 0.8793(3) 0.6587(3) 0.3793(3)
C34_2 C 0.8514(3) 0.6486(3) 0.3893(4)
C35_2 C 0.8353(5) 0.6647(5) 0.4164(5)
H16_2 H 0.8432 0.6567 0.4355
H17_2 H 0.8135 0.6610 0.4153
C36_2 C 0.8983(2) 0.6815(4) 0.3983(2)
H18_2 H 0.9131 0.6769 0.4131
H19_2 H 0.8390 0.6865 0.4153
H20_2 H 0.8135 0.5847 0.3390
H21_2 H 0.9153 0.6610 0.3135
Co5_2 Co 0.66062(3) 0.33938(3) 0.66062(3)
Co6_2 Co 0.61192(2) 0.38808(2) 0.61192(2)
O19_2 O 0.6833(2) 0.36567(16) 0.63433(16)
O20_2 O 0.6560(2) 0.39561(13) 0.60439(13)
O21_2 O 0.70825(17) 0.46743(11) 0.53257(11)
O22_2 O 0.76027(19) 0.46764(12) 0.53236(12)
O23_2 O 0.58447(12) 0.41553(12) 0.58447(12)
O24_2 O 0.68758(14) 0.31242(14) 0.68758(14)
O25_2 O 0.7900(2) 0.38871(16) 0.61129(16)
C37_2 C 0.6803(3) 0.3850(2) 0.6150(2)
C38_2 C 0.7094(3) 0.3994(2) 0.6006(2)
C39_2 C 0.7082(2) 0.4214(2) 0.5786(2)
H22_2 H 0.6892 0.4284 0.5716
C40_2 C 0.7348(3) 0.43331(17) 0.56669(17)
C41_2 C 0.7630(2) 0.4225(2) 0.5775(2)
H23_2 H 0.7815 0.4302 0.5698
C42_2 C 0.7631(3) 0.4001(2) 0.5999(2)
C43_2 C 0.7364(3) 0.38864(16) 0.61136(16)
H24_2 H 0.7367 0.3735 0.6265
C44_2 C 0.7341(3) 0.45829(19) 0.54171(19)
C45_2 C 0.8413(3) 0.3793(3) 0.6207(3)
C46_2 C 0.8514(3) 0.3893(4) 0.6486(3)
C47_2 C 0.8353(5) 0.4164(5) 0.6647(5)
H25_2 H 0.8433 0.4355 0.6568
H26_2 H 0.8390 0.4153 0.6865
C48_2 C 0.8185(4) 0.3983(2) 0.6017(2)
H27_2 H 0.8231 0.4131 0.5869
O26_2 O 0.86567(16) 0.36567(16) 0.8167(2)
O27_2 O 0.89561(13) 0.39561(13) 0.8440(2)
O28_2 O 0.96743(11) 0.46743(11) 0.79175(17)
O29_2 O 0.96764(12) 0.46764(12) 0.73973(19)
O30_2 O 0.88871(16) 0.38871(16) 0.7100(2)
C49_2 C 0.8850(2) 0.3850(2) 0.8197(3)
C50_2 C 0.8994(2) 0.3994(2) 0.7906(3)
C51_2 C 0.9214(2) 0.4214(2) 0.7918(2)
H28_2 H 0.9284 0.4284 0.8108
C52_2 C 0.93331(17) 0.43331(17) 0.7652(3)
C53_2 C 0.9225(2) 0.4225(2) 0.7370(2)
H29_2 H 0.9302 0.4302 0.7185
C54_2 C 0.9001(2) 0.4001(2) 0.7369(3)
C55_2 C 0.88864(16) 0.38864(16) 0.7636(3)
H30_2 H 0.8735 0.3735 0.7633
C56_2 C 0.95829(19) 0.45829(19) 0.7659(3)
C57_2 C 0.8793(3) 0.3793(3) 0.6587(3)
C58_2 C 0.8893(4) 0.3514(3) 0.6486(3)
C59_2 C 0.9164(5) 0.3353(5) 0.6647(5)
H31_2 H 0.9355 0.3432 0.6567
H32_2 H 0.9153 0.3135 0.6610
C60_2 C 0.8983(2) 0.3983(2) 0.6815(4)
H33_2 H 0.9131 0.4131 0.6769
O31_2 O 0.86567(16) 0.1833(2) 0.63433(16)
O32_2 O 0.89561(13) 0.1560(2) 0.60439(13)
O33_2 O 0.96743(11) 0.20825(17) 0.53257(11)
O34_2 O 0.96764(12) 0.26027(19) 0.53236(12)
O35_2 O 0.88871(16) 0.2900(2) 0.61129(16)
C61_2 C 0.8850(2) 0.1803(3) 0.6150(2)
C62_2 C 0.8994(2) 0.2094(3) 0.6006(2)
C63_2 C 0.9214(2) 0.2082(2) 0.5786(2)
H34_2 H 0.9284 0.1892 0.5716
C64_2 C 0.93331(17) 0.2348(3) 0.56669(17)
C65_2 C 0.9225(2) 0.2630(2) 0.5775(2)
H35_2 H 0.9302 0.2815 0.5698
C66_2 C 0.9001(2) 0.2631(3) 0.5999(2)
C67_2 C 0.88864(16) 0.2364(3) 0.61136(16)
H36_2 H 0.8735 0.2367 0.6265
C68_2 C 0.95829(19) 0.2341(3) 0.54171(19)
C69_2 C 0.8793(3) 0.3413(3) 0.6207(3)
C70_2 C 0.8514(3) 0.3514(3) 0.6107(4)
C71_2 C 0.8353(5) 0.3353(5) 0.5836(5)
H37_2 H 0.8432 0.3433 0.5645
H38_2 H 0.8135 0.3390 0.5847
C72_2 C 0.8983(2) 0.3185(4) 0.6017(2)
H39_2 H 0.9131 0.3231 0.5869
H40_2 H 0.8390 0.3135 0.5847
H41_2 H 0.8135 0.4153 0.6610
H42_2 H 0.9153 0.3390 0.6865
Co7_2 Co 0.5000 0.70094(4) 0.5000
Co8_2 Co 0.5000 0.76808(4) 0.5000
Cl2_2 Cl 0.5000 0.6550(2) 0.5000
O36_2 O 0.63433(16) 0.6833(2) 0.36567(16)
O37_2 O 0.60439(13) 0.6560(2) 0.39561(13)
O38_2 O 0.53257(11) 0.70825(17) 0.46743(11)
O39_2 O 0.53236(12) 0.76027(19) 0.46764(12)
O40_2 O 0.5000 0.8150(3) 0.5000
O41_2 O 0.61129(16) 0.7900(2) 0.38871(16)
C73_2 C 0.6150(2) 0.6803(3) 0.3850(2)
C74_2 C 0.6006(2) 0.7094(3) 0.3994(2)
C75_2 C 0.5786(2) 0.7082(2) 0.4214(2)
H43_2 H 0.5716 0.6892 0.4284
C76_2 C 0.56669(17) 0.7348(3) 0.43331(17)
C77_2 C 0.5775(2) 0.7630(2) 0.4225(2)
H44_2 H 0.5698 0.7815 0.4302
C78_2 C 0.5999(2) 0.7631(3) 0.4001(2)
C79_2 C 0.61136(16) 0.7364(3) 0.38864(16)
H45_2 H 0.6265 0.7367 0.3735
C80_2 C 0.54171(19) 0.7341(3) 0.45829(19)
C81_2 C 0.6207(3) 0.8413(3) 0.3793(3)
C82_2 C 0.6486(3) 0.8514(3) 0.3893(4)
C83_2 C 0.6647(5) 0.8353(5) 0.4164(5)
H46_2 H 0.6568 0.8433 0.4355
H47_2 H 0.6865 0.8390 0.4153
C84_2 C 0.6017(2) 0.8185(4) 0.3983(2)
H48_2 H 0.5869 0.8231 0.4131
O42_2 O 0.8167(2) 0.86567(16) 0.36567(16)
O43_2 O 0.8440(2) 0.89561(13) 0.39561(13)
O44_2 O 0.79175(17) 0.96743(11) 0.46743(11)
O45_2 O 0.73973(19) 0.96764(12) 0.46764(12)
O46_2 O 0.7100(2) 0.88871(16) 0.38871(16)
C85_2 C 0.8197(3) 0.8850(2) 0.3850(2)
C86_2 C 0.7906(3) 0.8994(2) 0.3994(2)
C87_2 C 0.7918(2) 0.9214(2) 0.4214(2)
H49_2 H 0.8108 0.9284 0.4284
C88_2 C 0.7652(3) 0.93331(17) 0.43331(17)
C89_2 C 0.7370(2) 0.9225(2) 0.4225(2)
H50_2 H 0.7185 0.9302 0.4302
C90_2 C 0.7369(3) 0.9001(2) 0.4001(2)
C91_2 C 0.7636(3) 0.88864(16) 0.38864(16)
H51_2 H 0.7633 0.8735 0.3735
C92_2 C 0.7659(3) 0.95829(19) 0.45829(19)
C93_2 C 0.6587(3) 0.8793(3) 0.3793(3)
C94_2 C 0.6486(3) 0.8893(4) 0.3514(3)
C95_2 C 0.6647(5) 0.9164(5) 0.3353(5)
H52_2 H 0.6567 0.9355 0.3432
H53_2 H 0.6610 0.9153 0.3135
C96_2 C 0.6815(4) 0.8983(2) 0.3983(2)
H54_2 H 0.6769 0.9131 0.4131
O47_2 O 0.63433(16) 0.86567(16) 0.1833(2)
O48_2 O 0.60439(13) 0.89561(13) 0.1560(2)
O49_2 O 0.53257(11) 0.96743(11) 0.20825(17)
O50_2 O 0.53236(12) 0.96764(12) 0.26027(19)
O51_2 O 0.61129(16) 0.88871(16) 0.2900(2)
C97_2 C 0.6150(2) 0.8850(2) 0.1803(3)
C98_2 C 0.6006(2) 0.8994(2) 0.2094(3)
C99_2 C 0.5786(2) 0.9214(2) 0.2082(2)
H55_2 H 0.5716 0.9284 0.1892
C100_2 C 0.56669(17) 0.93331(17) 0.2348(3)
C101_2 C 0.5775(2) 0.9225(2) 0.2630(2)
H56_2 H 0.5698 0.9302 0.2815
C102_2 C 0.5999(2) 0.9001(2) 0.2631(3)
C103_2 C 0.61136(16) 0.88864(16) 0.2364(3)
H57_2 H 0.6265 0.8735 0.2367
C104_2 C 0.54171(19) 0.95829(19) 0.2341(3)
C105_2 C 0.6207(3) 0.8793(3) 0.3413(3)
C106_2 C 0.6107(4) 0.8514(3) 0.3514(3)
C107_2 C 0.5836(5) 0.8353(5) 0.3353(5)
H58_2 H 0.5645 0.8432 0.3433
H59_2 H 0.5847 0.8135 0.3390
C108_2 C 0.6017(2) 0.8983(2) 0.3185(4)
H60_2 H 0.5869 0.9131 0.3231
H61_2 H 0.5847 0.8390 0.3135
H62_2 H 0.6610 0.8135 0.4153
H63_2 H 0.6865 0.9153 0.3390
O52_2 O 0.63433(16) 0.63433(16) 0.3167(2)
O53_2 O 0.60439(13) 0.60439(13) 0.3440(2)
O57_2 O 0.61129(16) 0.61129(16) 0.2100(2)
C109_2 C 0.6150(2) 0.6150(2) 0.3197(3)
C110_2 C 0.6006(2) 0.6006(2) 0.2906(3)
C111_2 C 0.5786(2) 0.5786(2) 0.2918(2)
H64_2 H 0.5716 0.5716 0.3108
C112_2 C 0.56669(17) 0.56669(17) 0.2652(3)
C113_2 C 0.5775(2) 0.5775(2) 0.2370(2)
H65_2 H 0.5698 0.5698 0.2185
C114_2 C 0.5999(2) 0.5999(2) 0.2369(3)
C115_2 C 0.61136(16) 0.61136(16) 0.2636(3)
H66_2 H 0.6265 0.6265 0.2633
C116_2 C 0.54171(19) 0.54171(19) 0.2659(3)
C117_2 C 0.6207(3) 0.6207(3) 0.1587(3)
C118_2 C 0.6107(4) 0.6486(3) 0.1486(3)
C119_2 C 0.5836(5) 0.6647(5) 0.1647(5)
H67_2 H 0.5645 0.6568 0.1567
H68_2 H 0.5847 0.6865 0.1610
C120_2 C 0.6017(2) 0.6017(2) 0.1815(4)
H69_2 H 0.5869 0.5869 0.1769
O58_2 O 0.63433(16) 0.8167(2) 0.13433(16)
O59_2 O 0.60439(13) 0.8440(2) 0.10439(13)
O60_2 O 0.53257(11) 0.79175(17) 0.03257(11)
O61_2 O 0.53236(12) 0.73973(19) 0.03236(12)
O62_2 O 0.61129(16) 0.7100(2) 0.11129(16)
C121_2 C 0.6150(2) 0.8197(3) 0.1150(2)
C122_2 C 0.6006(2) 0.7906(3) 0.1006(2)
C123_2 C 0.5786(2) 0.7918(2) 0.0786(2)
H70_2 H 0.5716 0.8108 0.0716
C124_2 C 0.56669(17) 0.7652(3) 0.06669(17)
C125_2 C 0.5775(2) 0.7370(2) 0.0775(2)
H71_2 H 0.5698 0.7185 0.0698
C126_2 C 0.5999(2) 0.7369(3) 0.0999(2)
C127_2 C 0.61136(16) 0.7636(3) 0.11136(16)
H72_2 H 0.6265 0.7633 0.1265
C128_2 C 0.54171(19) 0.7659(3) 0.04171(19)
C129_2 C 0.6207(3) 0.6587(3) 0.1207(3)
C130_2 C 0.6486(3) 0.6486(3) 0.1107(4)
C131_2 C 0.6647(5) 0.6647(5) 0.0836(5)
H73_2 H 0.6568 0.6567 0.0645
H74_2 H 0.6865 0.6610 0.0847
C132_2 C 0.6017(2) 0.6815(4) 0.1017(2)
H75_2 H 0.5869 0.6769 0.0869
O63_2 O 0.8167(2) 0.63433(16) 0.13433(16)
O64_2 O 0.8440(2) 0.60439(13) 0.10439(13)
O65_2 O 0.79175(17) 0.53257(11) 0.03257(11)
O66_2 O 0.73973(19) 0.53236(12) 0.03236(12)
O67_2 O 0.7100(2) 0.61129(16) 0.11129(16)
C133_2 C 0.8197(3) 0.6150(2) 0.1150(2)
C134_2 C 0.7906(3) 0.6006(2) 0.1006(2)
C135_2 C 0.7918(2) 0.5786(2) 0.0786(2)
H76_2 H 0.8108 0.5716 0.0716
C136_2 C 0.7652(3) 0.56669(17) 0.06669(17)
C137_2 C 0.7370(2) 0.5775(2) 0.0775(2)
H77_2 H 0.7185 0.5698 0.0698
C138_2 C 0.7369(3) 0.5999(2) 0.0999(2)
C139_2 C 0.7636(3) 0.61136(16) 0.11136(16)
H78_2 H 0.7633 0.6265 0.1265
C140_2 C 0.7659(3) 0.54171(19) 0.04171(19)
C141_2 C 0.6587(3) 0.6207(3) 0.1207(3)
C142_2 C 0.6486(3) 0.6107(4) 0.1486(3)
C143_2 C 0.6647(5) 0.5836(5) 0.1647(5)
H79_2 H 0.6567 0.5645 0.1568
H80_2 H 0.6610 0.5847 0.1865
C144_2 C 0.6815(4) 0.6017(2) 0.1017(2)
H81_2 H 0.6769 0.5869 0.0869
H82_2 H 0.6865 0.5847 0.1610
H83_2 H 0.5847 0.6610 0.1865
H84_2 H 0.6610 0.6865 0.0847
Co11_2 Co 0.83938(3) 0.66062(3) 0.16062(3)
O68_2 O 0.81242(14) 0.68758(14) 0.18758(14)
Co12_2 Co 0.88808(2) 0.61192(2) 0.11192(2)
O69_2 O 0.91553(12) 0.58447(12) 0.08447(12)
Co13_2 Co 0.83938(3) 0.83938(3) 0.33938(3)
O70_2 O 0.81242(14) 0.81242(14) 0.31242(14)
Co14_2 Co 0.88808(2) 0.88808(2) 0.38808(2)
O71_2 O 0.91553(12) 0.91553(12) 0.41553(12)
Co15_2 Co 0.66062(3) 0.83938(3) 0.16062(3)
Co16_2 Co 0.83938(3) 0.33938(3) 0.83938(3)
Co17_2 Co 0.83938(3) 0.16062(3) 0.66062(3)
Co18_2 Co 0.61192(2) 0.88808(2) 0.11192(2)
Co19_2 Co 0.88808(2) 0.38808(2) 0.88808(2)
Co20_2 Co 0.88808(2) 0.11192(2) 0.61192(2)
Co21_3 Co 0.5000 0.79906(4) 0.0000
Co23_3 Co 0.79906(4) 0.5000 0.0000
Co26_4 Co 0.79906(4) 1.0000 0.5000
Co29_3 Co 0.5000 0.73192(4) 0.0000
Co31_3 Co 0.73192(4) 0.5000 0.0000
Co34_4 Co 0.73192(4) 1.0000 0.5000
O72_2 O 0.63433(16) 0.3167(2) 0.63433(16)
O73_2 O 0.63433(16) 0.36567(16) 0.6833(2)
O74_2 O 0.86567(16) 0.6833(2) 0.13433(16)
O75_2 O 0.86567(16) 0.86567(16) 0.3167(2)
O76_2 O 0.60439(13) 0.3440(2) 0.60439(13)
O77_2 O 0.60439(13) 0.39561(13) 0.6560(2)
O78_2 O 0.89561(13) 0.6560(2) 0.10439(13)
O79_2 O 0.89561(13) 0.89561(13) 0.3440(2)
O80_2 O 0.46743(11) 0.70825(17) 0.53257(11)
O82_2 O 0.53257(11) 0.70825(17) 0.53257(11)
O83_2 O 0.46743(11) 0.70825(17) 0.46743(11)
O84_2 O 0.70825(17) 0.53257(11) 0.53257(11)
O85_2 O 0.70825(17) 0.46743(11) 0.46743(11)
O88_2 O 0.46764(12) 0.76027(19) 0.53236(12)
O90_2 O 0.53236(12) 0.76027(19) 0.53236(12)
O91_2 O 0.46764(12) 0.76027(19) 0.46764(12)
O92_2 O 0.76027(19) 0.53236(12) 0.53236(12)
O93_2 O 0.76027(19) 0.46764(12) 0.46764(12)
H89_2 H 0.8185 0.619465 0.416065
H92_2 H 0.916065 0.619465 0.3185
H97_2 H 0.916065 0.6815 0.380535
H98_2 H 0.8185 0.380535 0.583935
H99_2 H 0.880535 0.416065 0.6815
H100_2 H 0.880535 0.3185 0.583935
H103_2 H 0.583935 0.8185 0.380535
H104_2 H 0.6815 0.916065 0.380535
H105_2 H 0.619465 0.916065 0.3185
H108_2 H 0.583935 0.619465 0.1815
H109_2 H 0.619465 0.6815 0.0839355
H112_2 H 0.6815 0.619465 0.0839355
Co21_4 Co 0.5000 0.79906(4) 1.0000
Co23_4 Co 0.79906(4) 0.5000 1.0000
Co29_4 Co 0.5000 0.73192(4) 1.0000
Co31_4 Co 0.73192(4) 0.5000 1.0000
O41_3 O 0.61129(16) 0.2100(2) 0.61129(16)
C73_3 C 0.6150(2) 0.3197(3) 0.6150(2)
C74_3 C 0.6006(2) 0.2906(3) 0.6006(2)
C75_3 C 0.5786(2) 0.2918(2) 0.5786(2)
H43_3 H 0.5716 0.3108 0.5716
C76_3 C 0.56669(17) 0.2652(3) 0.56669(17)
C77_3 C 0.5775(2) 0.2370(2) 0.5775(2)
H44_3 H 0.5698 0.2185 0.5698
C78_3 C 0.5999(2) 0.2369(3) 0.5999(2)
C79_3 C 0.61136(16) 0.2636(3) 0.61136(16)
H45_3 H 0.6265 0.2633 0.6265
C80_3 C 0.54171(19) 0.2659(3) 0.54171(19)
C81_3 C 0.6207(3) 0.1587(3) 0.6207(3)
C82_3 C 0.6486(3) 0.1486(3) 0.6107(4)
C83_3 C 0.6647(5) 0.1647(5) 0.5836(5)
H46_3 H 0.6568 0.1567 0.5645
H47_3 H 0.6865 0.1610 0.5847
C84_3 C 0.6017(2) 0.1815(4) 0.6017(2)
H48_3 H 0.5869 0.1769 0.5869
O42_3 O 0.8167(2) 0.13433(16) 0.63433(16)
O43_3 O 0.8440(2) 0.10439(13) 0.60439(13)
O44_3 O 0.79175(17) 0.03257(11) 0.53257(11)
O45_3 O 0.73973(19) 0.03236(12) 0.53236(12)
O46_3 O 0.7100(2) 0.11129(16) 0.61129(16)
C85_3 C 0.8197(3) 0.1150(2) 0.6150(2)
C86_3 C 0.7906(3) 0.1006(2) 0.6006(2)
C87_3 C 0.7918(2) 0.0786(2) 0.5786(2)
H49_3 H 0.8108 0.0716 0.5716
C88_3 C 0.7652(3) 0.06669(17) 0.56669(17)
C89_3 C 0.7370(2) 0.0775(2) 0.5775(2)
H50_3 H 0.7185 0.0698 0.5698
C90_3 C 0.7369(3) 0.0999(2) 0.5999(2)
C91_3 C 0.7636(3) 0.11136(16) 0.61136(16)
H51_3 H 0.7633 0.1265 0.6265
C92_3 C 0.7659(3) 0.04171(19) 0.54171(19)
C93_3 C 0.6587(3) 0.1207(3) 0.6207(3)
C94_3 C 0.6486(3) 0.1107(4) 0.6486(3)
C95_3 C 0.6647(5) 0.0836(5) 0.6647(5)
H52_3 H 0.6567 0.0645 0.6568
H53_3 H 0.6610 0.0847 0.6865
C96_3 C 0.6815(4) 0.1017(2) 0.6017(2)
H54_3 H 0.6769 0.0869 0.5869
O47_3 O 0.63433(16) 0.13433(16) 0.8167(2)
O48_3 O 0.60439(13) 0.10439(13) 0.8440(2)
O49_3 O 0.53257(11) 0.03257(11) 0.79175(17)
O50_3 O 0.53236(12) 0.03236(12) 0.73973(19)
O51_3 O 0.61129(16) 0.11129(16) 0.7100(2)
C97_3 C 0.6150(2) 0.1150(2) 0.8197(3)
C98_3 C 0.6006(2) 0.1006(2) 0.7906(3)
C99_3 C 0.5786(2) 0.0786(2) 0.7918(2)
H55_3 H 0.5716 0.0716 0.8108
C100_3 C 0.56669(17) 0.06669(17) 0.7652(3)
C101_3 C 0.5775(2) 0.0775(2) 0.7370(2)
H56_3 H 0.5698 0.0698 0.7185
C102_3 C 0.5999(2) 0.0999(2) 0.7369(3)
C103_3 C 0.61136(16) 0.11136(16) 0.7636(3)
H57_3 H 0.6265 0.1265 0.7633
C104_3 C 0.54171(19) 0.04171(19) 0.7659(3)
C105_3 C 0.6207(3) 0.1207(3) 0.6587(3)
C106_3 C 0.6107(4) 0.1486(3) 0.6486(3)
C107_3 C 0.5836(5) 0.1647(5) 0.6647(5)
H58_3 H 0.5645 0.1568 0.6567
H59_3 H 0.5847 0.1865 0.6610
C108_3 C 0.6017(2) 0.1017(2) 0.6815(4)
H60_3 H 0.5869 0.0869 0.6769
H61_3 H 0.5847 0.1610 0.6865
H62_3 H 0.6610 0.1865 0.5847
H63_3 H 0.6865 0.0847 0.6610
Co9_2 Co 0.5000 0.5000 0.70094(4)
Co10_2 Co 0.5000 0.5000 0.76808(4)
Cl3_2 Cl 0.5000 0.5000 0.6550(2)
O54_2 O 0.53257(11) 0.46743(11) 0.70825(17)
O55_2 O 0.53236(12) 0.46764(12) 0.76027(19)
O56_2 O 0.5000 0.5000 0.8150(3)
O57_3 O 0.61129(16) 0.38871(16) 0.7900(2)
C109_3 C 0.6150(2) 0.3850(2) 0.6803(3)
C110_3 C 0.6006(2) 0.3994(2) 0.7094(3)
C111_3 C 0.5786(2) 0.4214(2) 0.7082(2)
H64_3 H 0.5716 0.4284 0.6892
C112_3 C 0.56669(17) 0.43331(17) 0.7348(3)
C113_3 C 0.5775(2) 0.4225(2) 0.7630(2)
H65_3 H 0.5698 0.4302 0.7815
C114_3 C 0.5999(2) 0.4001(2) 0.7631(3)
C115_3 C 0.61136(16) 0.38864(16) 0.7364(3)
H66_3 H 0.6265 0.3735 0.7367
C116_3 C 0.54171(19) 0.45829(19) 0.7341(3)
C117_3 C 0.6207(3) 0.3793(3) 0.8413(3)
C118_3 C 0.6107(4) 0.3514(3) 0.8514(3)
C119_3 C 0.5836(5) 0.3353(5) 0.8353(5)
H67_3 H 0.5645 0.3432 0.8433
H68_3 H 0.5847 0.3135 0.8390
C120_3 C 0.6017(2) 0.3983(2) 0.8185(4)
H69_3 H 0.5869 0.4131 0.8231
O58_3 O 0.63433(16) 0.1833(2) 0.86567(16)
O59_3 O 0.60439(13) 0.1560(2) 0.89561(13)
O60_3 O 0.53257(11) 0.20825(17) 0.96743(11)
O61_3 O 0.53236(12) 0.26027(19) 0.96764(12)
O62_3 O 0.61129(16) 0.2900(2) 0.88871(16)
C121_3 C 0.6150(2) 0.1803(3) 0.8850(2)
C122_3 C 0.6006(2) 0.2094(3) 0.8994(2)
C123_3 C 0.5786(2) 0.2082(2) 0.9214(2)
H70_3 H 0.5716 0.1892 0.9284
C124_3 C 0.56669(17) 0.2348(3) 0.93331(17)
C125_3 C 0.5775(2) 0.2630(2) 0.9225(2)
H71_3 H 0.5698 0.2815 0.9302
C126_3 C 0.5999(2) 0.2631(3) 0.9001(2)
C127_3 C 0.61136(16) 0.2364(3) 0.88864(16)
H72_3 H 0.6265 0.2367 0.8735
C128_3 C 0.54171(19) 0.2341(3) 0.95829(19)
C129_3 C 0.6207(3) 0.3413(3) 0.8793(3)
C130_3 C 0.6486(3) 0.3514(3) 0.8893(4)
C131_3 C 0.6647(5) 0.3353(5) 0.9164(5)
H73_3 H 0.6568 0.3433 0.9355
H74_3 H 0.6865 0.3390 0.9153
C132_3 C 0.6017(2) 0.3185(4) 0.8983(2)
H75_3 H 0.5869 0.3231 0.9131
O63_3 O 0.8167(2) 0.36567(16) 0.86567(16)
O64_3 O 0.8440(2) 0.39561(13) 0.89561(13)
O65_3 O 0.79175(17) 0.46743(11) 0.96743(11)
O66_3 O 0.73973(19) 0.46764(12) 0.96764(12)
O67_3 O 0.7100(2) 0.38871(16) 0.88871(16)
C133_3 C 0.8197(3) 0.3850(2) 0.8850(2)
C134_3 C 0.7906(3) 0.3994(2) 0.8994(2)
C135_3 C 0.7918(2) 0.4214(2) 0.9214(2)
H76_3 H 0.8108 0.4284 0.9284
C136_3 C 0.7652(3) 0.43331(17) 0.93331(17)
C137_3 C 0.7370(2) 0.4225(2) 0.9225(2)
H77_3 H 0.7185 0.4302 0.9302
C138_3 C 0.7369(3) 0.4001(2) 0.9001(2)
C139_3 C 0.7636(3) 0.38864(16) 0.88864(16)
H78_3 H 0.7633 0.3735 0.8735
C140_3 C 0.7659(3) 0.45829(19) 0.95829(19)
C141_3 C 0.6587(3) 0.3793(3) 0.8793(3)
C142_3 C 0.6486(3) 0.3893(4) 0.8514(3)
C143_3 C 0.6647(5) 0.4164(5) 0.8353(5)
H79_3 H 0.6567 0.4355 0.8432
H80_3 H 0.6610 0.4153 0.8135
C144_3 C 0.6815(4) 0.3983(2) 0.8983(2)
H81_3 H 0.6769 0.4131 0.9131
H82_3 H 0.6865 0.4153 0.8390
H83_3 H 0.5847 0.3390 0.8135
H84_3 H 0.6610 0.3135 0.9153
O68_3 O 0.81242(14) 0.31242(14) 0.81242(14)
O69_3 O 0.91553(12) 0.41553(12) 0.91553(12)
O70_3 O 0.81242(14) 0.18758(14) 0.68758(14)
O71_3 O 0.91553(12) 0.08447(12) 0.58447(12)
Co15_3 Co 0.66062(3) 0.16062(3) 0.83938(3)
Co18_3 Co 0.61192(2) 0.11192(2) 0.88808(2)
Co22_3 Co 0.5000 0.0000 0.79906(4)
Co30_3 Co 0.5000 0.0000 0.73192(4)
O74_3 O 0.86567(16) 0.3167(2) 0.86567(16)
O75_3 O 0.86567(16) 0.13433(16) 0.6833(2)
O78_3 O 0.89561(13) 0.3440(2) 0.89561(13)
O79_3 O 0.89561(13) 0.10439(13) 0.6560(2)
O81_2 O 0.46743(11) 0.53257(11) 0.70825(17)
O86_2 O 0.53257(11) 0.53257(11) 0.70825(17)
O87_2 O 0.46743(11) 0.46743(11) 0.70825(17)
O89_2 O 0.46764(12) 0.53236(12) 0.76027(19)
O94_2 O 0.53236(12) 0.53236(12) 0.76027(19)
O95_2 O 0.46764(12) 0.46764(12) 0.76027(19)
H92_3 H 0.916065 0.380535 0.6815
H97_3 H 0.916065 0.3185 0.619465
H99_3 H 0.880535 0.583935 0.3185
H100_3 H 0.880535 0.6815 0.416065
H103_3 H 0.583935 0.1815 0.619465
H104_3 H 0.6815 0.0839355 0.619465
H105_3 H 0.619465 0.0839355 0.6815
H108_3 H 0.583935 0.380535 0.8185
H109_3 H 0.619465 0.3185 0.916065
H112_3 H 0.6815 0.380535 0.916065
Co22_4 Co 0.5000 1.0000 0.79906(4)
Co30_4 Co 0.5000 1.0000 0.73192(4)
O41_4 O 0.38871(16) 0.7900(2) 0.61129(16)
C73_4 C 0.3850(2) 0.6803(3) 0.6150(2)
C74_4 C 0.3994(2) 0.7094(3) 0.6006(2)
C75_4 C 0.4214(2) 0.7082(2) 0.5786(2)
H43_4 H 0.4284 0.6892 0.5716
C76_4 C 0.43331(17) 0.7348(3) 0.56669(17)
C77_4 C 0.4225(2) 0.7630(2) 0.5775(2)
H44_4 H 0.4302 0.7815 0.5698
C78_4 C 0.4001(2) 0.7631(3) 0.5999(2)
C79_4 C 0.38864(16) 0.7364(3) 0.61136(16)
H45_4 H 0.3735 0.7367 0.6265
C80_4 C 0.45829(19) 0.7341(3) 0.54171(19)
C81_4 C 0.3793(3) 0.8413(3) 0.6207(3)
C82_4 C 0.3514(3) 0.8514(3) 0.6107(4)
C83_4 C 0.3353(5) 0.8353(5) 0.5836(5)
H46_4 H 0.3432 0.8433 0.5645
H47_4 H 0.3135 0.8390 0.5847
C84_4 C 0.3983(2) 0.8185(4) 0.6017(2)
H48_4 H 0.4131 0.8231 0.5869
O42_4 O 0.1833(2) 0.86567(16) 0.63433(16)
O43_4 O 0.1560(2) 0.89561(13) 0.60439(13)
O44_4 O 0.20825(17) 0.96743(11) 0.53257(11)
O45_4 O 0.26027(19) 0.96764(12) 0.53236(12)
O46_4 O 0.2900(2) 0.88871(16) 0.61129(16)
C85_4 C 0.1803(3) 0.8850(2) 0.6150(2)
C86_4 C 0.2094(3) 0.8994(2) 0.6006(2)
C87_4 C 0.2082(2) 0.9214(2) 0.5786(2)
H49_4 H 0.1892 0.9284 0.5716
C88_4 C 0.2348(3) 0.93331(17) 0.56669(17)
C89_4 C 0.2630(2) 0.9225(2) 0.5775(2)
H50_4 H 0.2815 0.9302 0.5698
C90_4 C 0.2631(3) 0.9001(2) 0.5999(2)
C91_4 C 0.2364(3) 0.88864(16) 0.61136(16)
H51_4 H 0.2367 0.8735 0.6265
C92_4 C 0.2341(3) 0.95829(19) 0.54171(19)
C93_4 C 0.3413(3) 0.8793(3) 0.6207(3)
C94_4 C 0.3514(3) 0.8893(4) 0.6486(3)
C95_4 C 0.3353(5) 0.9164(5) 0.6647(5)
H52_4 H 0.3433 0.9355 0.6568
H53_4 H 0.3390 0.9153 0.6865
C96_4 C 0.3185(4) 0.8983(2) 0.6017(2)
H54_4 H 0.3231 0.9131 0.5869
O47_4 O 0.36567(16) 0.86567(16) 0.8167(2)
O48_4 O 0.39561(13) 0.89561(13) 0.8440(2)
O49_4 O 0.46743(11) 0.96743(11) 0.79175(17)
O50_4 O 0.46764(12) 0.96764(12) 0.73973(19)
O51_4 O 0.38871(16) 0.88871(16) 0.7100(2)
C97_4 C 0.3850(2) 0.8850(2) 0.8197(3)
C98_4 C 0.3994(2) 0.8994(2) 0.7906(3)
C99_4 C 0.4214(2) 0.9214(2) 0.7918(2)
H55_4 H 0.4284 0.9284 0.8108
C100_4 C 0.43331(17) 0.93331(17) 0.7652(3)
C101_4 C 0.4225(2) 0.9225(2) 0.7370(2)
H56_4 H 0.4302 0.9302 0.7185
C102_4 C 0.4001(2) 0.9001(2) 0.7369(3)
C103_4 C 0.38864(16) 0.88864(16) 0.7636(3)
H57_4 H 0.3735 0.8735 0.7633
C104_4 C 0.45829(19) 0.95829(19) 0.7659(3)
C105_4 C 0.3793(3) 0.8793(3) 0.6587(3)
C106_4 C 0.3893(4) 0.8514(3) 0.6486(3)
C107_4 C 0.4164(5) 0.8353(5) 0.6647(5)
H58_4 H 0.4355 0.8432 0.6567
H59_4 H 0.4153 0.8135 0.6610
C108_4 C 0.3983(2) 0.8983(2) 0.6815(4)
H60_4 H 0.4131 0.9131 0.6769
H61_4 H 0.4153 0.8390 0.6865
H62_4 H 0.3390 0.8135 0.5847
H63_4 H 0.3135 0.9153 0.6610
O57_4 O 0.38871(16) 0.61129(16) 0.7900(2)
C109_4 C 0.3850(2) 0.6150(2) 0.6803(3)
C110_4 C 0.3994(2) 0.6006(2) 0.7094(3)
C111_4 C 0.4214(2) 0.5786(2) 0.7082(2)
H64_4 H 0.4284 0.5716 0.6892
C112_4 C 0.43331(17) 0.56669(17) 0.7348(3)
C113_4 C 0.4225(2) 0.5775(2) 0.7630(2)
H65_4 H 0.4302 0.5698 0.7815
C114_4 C 0.4001(2) 0.5999(2) 0.7631(3)
C115_4 C 0.38864(16) 0.61136(16) 0.7364(3)
H66_4 H 0.3735 0.6265 0.7367
C116_4 C 0.45829(19) 0.54171(19) 0.7341(3)
C117_4 C 0.3793(3) 0.6207(3) 0.8413(3)
C118_4 C 0.3893(4) 0.6486(3) 0.8514(3)
C119_4 C 0.4164(5) 0.6647(5) 0.8353(5)
H67_4 H 0.4355 0.6568 0.8433
H68_4 H 0.4153 0.6865 0.8390
C120_4 C 0.3983(2) 0.6017(2) 0.8185(4)
H69_4 H 0.4131 0.5869 0.8231
O58_4 O 0.36567(16) 0.8167(2) 0.86567(16)
O59_4 O 0.39561(13) 0.8440(2) 0.89561(13)
O60_4 O 0.46743(11) 0.79175(17) 0.96743(11)
O61_4 O 0.46764(12) 0.73973(19) 0.96764(12)
O62_4 O 0.38871(16) 0.7100(2) 0.88871(16)
C121_4 C 0.3850(2) 0.8197(3) 0.8850(2)
C122_4 C 0.3994(2) 0.7906(3) 0.8994(2)
C123_4 C 0.4214(2) 0.7918(2) 0.9214(2)
H70_4 H 0.4284 0.8108 0.9284
C124_4 C 0.43331(17) 0.7652(3) 0.93331(17)
C125_4 C 0.4225(2) 0.7370(2) 0.9225(2)
H71_4 H 0.4302 0.7185 0.9302
C126_4 C 0.4001(2) 0.7369(3) 0.9001(2)
C127_4 C 0.38864(16) 0.7636(3) 0.88864(16)
H72_4 H 0.3735 0.7633 0.8735
C128_4 C 0.45829(19) 0.7659(3) 0.95829(19)
C129_4 C 0.3793(3) 0.6587(3) 0.8793(3)
C130_4 C 0.3514(3) 0.6486(3) 0.8893(4)
C131_4 C 0.3353(5) 0.6647(5) 0.9164(5)
H73_4 H 0.3432 0.6567 0.9355
H74_4 H 0.3135 0.6610 0.9153
C132_4 C 0.3983(2) 0.6815(4) 0.8983(2)
H75_4 H 0.4131 0.6769 0.9131
O63_4 O 0.1833(2) 0.63433(16) 0.86567(16)
O64_4 O 0.1560(2) 0.60439(13) 0.89561(13)
O65_4 O 0.20825(17) 0.53257(11) 0.96743(11)
O66_4 O 0.26027(19) 0.53236(12) 0.96764(12)
O67_4 O 0.2900(2) 0.61129(16) 0.88871(16)
C133_4 C 0.1803(3) 0.6150(2) 0.8850(2)
C134_4 C 0.2094(3) 0.6006(2) 0.8994(2)
C135_4 C 0.2082(2) 0.5786(2) 0.9214(2)
H76_4 H 0.1892 0.5716 0.9284
C136_4 C 0.2348(3) 0.56669(17) 0.93331(17)
C137_4 C 0.2630(2) 0.5775(2) 0.9225(2)
H77_4 H 0.2815 0.5698 0.9302
C138_4 C 0.2631(3) 0.5999(2) 0.9001(2)
C139_4 C 0.2364(3) 0.61136(16) 0.88864(16)
H78_4 H 0.2367 0.6265 0.8735
C140_4 C 0.2341(3) 0.54171(19) 0.95829(19)
C141_4 C 0.3413(3) 0.6207(3) 0.8793(3)
C142_4 C 0.3514(3) 0.6107(4) 0.8514(3)
C143_4 C 0.3353(5) 0.5836(5) 0.8353(5)
H79_4 H 0.3433 0.5645 0.8432
H80_4 H 0.3390 0.5847 0.8135
C144_4 C 0.3185(4) 0.6017(2) 0.8983(2)
H81_4 H 0.3231 0.5869 0.9131
H82_4 H 0.3135 0.5847 0.8390
H83_4 H 0.4153 0.6610 0.8135
H84_4 H 0.3390 0.6865 0.9153
O68_4 O 0.18758(14) 0.68758(14) 0.81242(14)
O69_4 O 0.08447(12) 0.58447(12) 0.91553(12)
O70_4 O 0.18758(14) 0.81242(14) 0.68758(14)
O71_4 O 0.08447(12) 0.91553(12) 0.58447(12)
Co15_4 Co 0.33938(3) 0.83938(3) 0.83938(3)
Co18_4 Co 0.38808(2) 0.88808(2) 0.88808(2)
O74_4 O 0.13433(16) 0.6833(2) 0.86567(16)
O75_4 O 0.13433(16) 0.86567(16) 0.6833(2)
O78_4 O 0.10439(13) 0.6560(2) 0.89561(13)
O79_4 O 0.10439(13) 0.89561(13) 0.6560(2)
H92_4 H 0.0839355 0.619465 0.6815
H97_4 H 0.0839355 0.6815 0.619465
H99_4 H 0.119465 0.416065 0.3185
H100_4 H 0.119465 0.3185 0.416065
H103_4 H 0.416065 0.8185 0.619465
H104_4 H 0.3185 0.916065 0.619465
H105_4 H 0.380535 0.916065 0.6815
H108_4 H 0.416065 0.619465 0.8185
H109_4 H 0.380535 0.6815 0.916065
H112_4 H 0.3185 0.619465 0.916065
O70_5 O 0.31242(14) 0.18758(14) 0.18758(14)
O71_5 O 0.41553(12) 0.08447(12) 0.08447(12)
O75_5 O 0.3167(2) 0.13433(16) 0.13433(16)
O79_5 O 0.3440(2) 0.10439(13) 0.10439(13)
H99_5 H 0.6815 0.119465 0.583935
H100_5 H 0.583935 0.119465 0.6815
H103_5 H 0.380535 0.416065 0.1815
H108_5 H 0.1815 0.416065 0.380535
O70_6 O 0.31242(14) 0.81242(14) 0.81242(14)
O71_6 O 0.41553(12) 0.91553(12) 0.91553(12)
O75_6 O 0.3167(2) 0.86567(16) 0.86567(16)
O79_6 O 0.3440(2) 0.89561(13) 0.89561(13)
H99_6 H 0.6815 0.880535 0.416065
H100_6 H 0.583935 0.880535 0.3185
H103_6 H 0.380535 0.583935 0.8185
H108_6 H 0.1815 0.583935 0.619465
O70_7 O 0.68758(14) 0.81242(14) 0.18758(14)
O71_7 O 0.58447(12) 0.91553(12) 0.08447(12)
O75_7 O 0.6833(2) 0.86567(16) 0.13433(16)
O79_7 O 0.6560(2) 0.89561(13) 0.10439(13)
H99_7 H 0.3185 0.880535 0.583935
H100_7 H 0.416065 0.880535 0.6815
H103_7 H 0.619465 0.583935 0.1815
H108_7 H 0.8185 0.583935 0.380535
O70_8 O 0.68758(14) 0.18758(14) 0.81242(14)
O71_8 O 0.58447(12) 0.08447(12) 0.91553(12)
O75_8 O 0.6833(2) 0.13433(16) 0.86567(16)
O79_8 O 0.6560(2) 0.10439(13) 0.89561(13)
H99_8 H 0.3185 0.119465 0.416065
H100_8 H 0.416065 0.119465 0.3185
H103_8 H 0.619465 0.416065 0.8185
H108_8 H 0.8185 0.416065 0.619465
H99_9 H 0.583935 0.6815 0.119465
H100_9 H 0.6815 0.583935 0.119465
H108_9 H 0.380535 0.1815 0.416065
H99_10 H 0.416065 0.6815 0.880535
H100_10 H 0.3185 0.583935 0.880535
H108_10 H 0.619465 0.1815 0.583935
H99_11 H 0.583935 0.3185 0.880535
H100_11 H 0.6815 0.416065 0.880535
H108_11 H 0.380535 0.8185 0.583935
H99_12 H 0.416065 0.3185 0.119465
H100_12 H 0.3185 0.416065 0.119465
H108_12 H 0.619465 0.8185 0.416065
Co1_3 Co 0.33938(3) 0.33938(3) 0.66062(3)
Co2_3 Co 0.38808(2) 0.38808(2) 0.61192(2)
O1_3 O 0.36567(16) 0.3167(2) 0.63433(16)
O2_3 O 0.39561(13) 0.3440(2) 0.60439(13)
O5_3 O 0.41553(12) 0.41553(12) 0.58447(12)
O6_3 O 0.31242(14) 0.31242(14) 0.68758(14)
O8_3 O 0.38871(16) 0.2100(2) 0.61129(16)
C1_3 C 0.3850(2) 0.3197(3) 0.6150(2)
C2_3 C 0.3994(2) 0.2906(3) 0.6006(2)
C3_3 C 0.4214(2) 0.2918(2) 0.5786(2)
H1_3 H 0.4284 0.3108 0.5716
C4_3 C 0.43331(17) 0.2652(3) 0.56669(17)
C5_3 C 0.4225(2) 0.2370(2) 0.5775(2)
H2_3 H 0.4302 0.2185 0.5698
C6_3 C 0.4001(2) 0.2369(3) 0.5999(2)
C7_3 C 0.38864(16) 0.2636(3) 0.61136(16)
H3_3 H 0.3735 0.2633 0.6265
C8_3 C 0.45829(19) 0.2659(3) 0.54171(19)
C9_3 C 0.3793(3) 0.1587(3) 0.6207(3)
C10_3 C 0.3893(4) 0.1486(3) 0.6486(3)
C11_3 C 0.4164(5) 0.1647(5) 0.6647(5)
H4_3 H 0.4355 0.1567 0.6568
H5_3 H 0.4153 0.1610 0.6865
C12_3 C 0.3983(2) 0.1815(4) 0.6017(2)
H6_3 H 0.4131 0.1769 0.5869
O9_3 O 0.36567(16) 0.13433(16) 0.8167(2)
O10_3 O 0.39561(13) 0.10439(13) 0.8440(2)
O11_3 O 0.46743(11) 0.03257(11) 0.79175(17)
O12_3 O 0.46764(12) 0.03236(12) 0.73973(19)
O13_3 O 0.38871(16) 0.11129(16) 0.7100(2)
C13_3 C 0.3850(2) 0.1150(2) 0.8197(3)
C14_3 C 0.3994(2) 0.1006(2) 0.7906(3)
C15_3 C 0.4214(2) 0.0786(2) 0.7918(2)
H7_3 H 0.4284 0.0716 0.8108
C16_3 C 0.43331(17) 0.06669(17) 0.7652(3)
C17_3 C 0.4225(2) 0.0775(2) 0.7370(2)
H8_3 H 0.4302 0.0698 0.7185
C18_3 C 0.4001(2) 0.0999(2) 0.7369(3)
C19_3 C 0.38864(16) 0.11136(16) 0.7636(3)
H9_3 H 0.3735 0.1265 0.7633
C20_3 C 0.45829(19) 0.04171(19) 0.7659(3)
C21_3 C 0.3793(3) 0.1207(3) 0.6587(3)
C22_3 C 0.3514(3) 0.1107(4) 0.6486(3)
C23_3 C 0.3353(5) 0.0836(5) 0.6647(5)
H10_3 H 0.3432 0.0645 0.6567
H11_3 H 0.3135 0.0847 0.6610
C24_3 C 0.3983(2) 0.1017(2) 0.6815(4)
H12_3 H 0.4131 0.0869 0.6769
O14_3 O 0.1833(2) 0.13433(16) 0.63433(16)
O15_3 O 0.1560(2) 0.10439(13) 0.60439(13)
O16_3 O 0.20825(17) 0.03257(11) 0.53257(11)
O17_3 O 0.26027(19) 0.03236(12) 0.53236(12)
O18_3 O 0.2900(2) 0.11129(16) 0.61129(16)
C25_3 C 0.1803(3) 0.1150(2) 0.6150(2)
C26_3 C 0.2094(3) 0.1006(2) 0.6006(2)
C27_3 C 0.2082(2) 0.0786(2) 0.5786(2)
H13_3 H 0.1892 0.0716 0.5716
C28_3 C 0.2348(3) 0.06669(17) 0.56669(17)
C29_3 C 0.2630(2) 0.0775(2) 0.5775(2)
H14_3 H 0.2815 0.0698 0.5698
C30_3 C 0.2631(3) 0.0999(2) 0.5999(2)
C31_3 C 0.2364(3) 0.11136(16) 0.61136(16)
H15_3 H 0.2367 0.1265 0.6265
C32_3 C 0.2341(3) 0.04171(19) 0.54171(19)
C33_3 C 0.3413(3) 0.1207(3) 0.6207(3)
C34_3 C 0.3514(3) 0.1486(3) 0.6107(4)
C35_3 C 0.3353(5) 0.1647(5) 0.5836(5)
H16_3 H 0.3433 0.1568 0.5645
H17_3 H 0.3390 0.1865 0.5847
C36_3 C 0.3185(4) 0.1017(2) 0.6017(2)
H18_3 H 0.3231 0.0869 0.5869
H19_3 H 0.3135 0.1610 0.5847
H20_3 H 0.4153 0.1865 0.6610
H21_3 H 0.3390 0.0847 0.6865
Co5_3 Co 0.66062(3) 0.33938(3) 0.33938(3)
Co6_3 Co 0.61192(2) 0.38808(2) 0.38808(2)
O19_3 O 0.63433(16) 0.3167(2) 0.36567(16)
O20_3 O 0.60439(13) 0.3440(2) 0.39561(13)
O23_3 O 0.58447(12) 0.41553(12) 0.41553(12)
O24_3 O 0.68758(14) 0.31242(14) 0.31242(14)
O25_3 O 0.61129(16) 0.2100(2) 0.38871(16)
C37_3 C 0.6150(2) 0.3197(3) 0.3850(2)
C38_3 C 0.6006(2) 0.2906(3) 0.3994(2)
C39_3 C 0.5786(2) 0.2918(2) 0.4214(2)
H22_3 H 0.5716 0.3108 0.4284
C40_3 C 0.56669(17) 0.2652(3) 0.43331(17)
C41_3 C 0.5775(2) 0.2370(2) 0.4225(2)
H23_3 H 0.5698 0.2185 0.4302
C42_3 C 0.5999(2) 0.2369(3) 0.4001(2)
C43_3 C 0.61136(16) 0.2636(3) 0.38864(16)
H24_3 H 0.6265 0.2633 0.3735
C44_3 C 0.54171(19) 0.2659(3) 0.45829(19)
C45_3 C 0.6207(3) 0.1587(3) 0.3793(3)
C46_3 C 0.6107(4) 0.1486(3) 0.3514(3)
C47_3 C 0.5836(5) 0.1647(5) 0.3353(5)
H25_3 H 0.5645 0.1567 0.3432
H26_3 H 0.5847 0.1610 0.3135
C48_3 C 0.6017(2) 0.1815(4) 0.3983(2)
H27_3 H 0.5869 0.1769 0.4131
O26_3 O 0.63433(16) 0.13433(16) 0.1833(2)
O27_3 O 0.60439(13) 0.10439(13) 0.1560(2)
O28_3 O 0.53257(11) 0.03257(11) 0.20825(17)
O29_3 O 0.53236(12) 0.03236(12) 0.26027(19)
O30_3 O 0.61129(16) 0.11129(16) 0.2900(2)
C49_3 C 0.6150(2) 0.1150(2) 0.1803(3)
C50_3 C 0.6006(2) 0.1006(2) 0.2094(3)
C51_3 C 0.5786(2) 0.0786(2) 0.2082(2)
H28_3 H 0.5716 0.0716 0.1892
C52_3 C 0.56669(17) 0.06669(17) 0.2348(3)
C53_3 C 0.5775(2) 0.0775(2) 0.2630(2)
H29_3 H 0.5698 0.0698 0.2815
C54_3 C 0.5999(2) 0.0999(2) 0.2631(3)
C55_3 C 0.61136(16) 0.11136(16) 0.2364(3)
H30_3 H 0.6265 0.1265 0.2367
C56_3 C 0.54171(19) 0.04171(19) 0.2341(3)
C57_3 C 0.6207(3) 0.1207(3) 0.3413(3)
C58_3 C 0.6486(3) 0.1107(4) 0.3514(3)
C59_3 C 0.6647(5) 0.0836(5) 0.3353(5)
H31_3 H 0.6568 0.0645 0.3433
H32_3 H 0.6865 0.0847 0.3390
C60_3 C 0.6017(2) 0.1017(2) 0.3185(4)
H33_3 H 0.5869 0.0869 0.3231
O31_3 O 0.8167(2) 0.13433(16) 0.36567(16)
O32_3 O 0.8440(2) 0.10439(13) 0.39561(13)
O33_3 O 0.79175(17) 0.03257(11) 0.46743(11)
O34_3 O 0.73973(19) 0.03236(12) 0.46764(12)
O35_3 O 0.7100(2) 0.11129(16) 0.38871(16)
C61_3 C 0.8197(3) 0.1150(2) 0.3850(2)
C62_3 C 0.7906(3) 0.1006(2) 0.3994(2)
C63_3 C 0.7918(2) 0.0786(2) 0.4214(2)
H34_3 H 0.8108 0.0716 0.4284
C64_3 C 0.7652(3) 0.06669(17) 0.43331(17)
C65_3 C 0.7370(2) 0.0775(2) 0.4225(2)
H35_3 H 0.7185 0.0698 0.4302
C66_3 C 0.7369(3) 0.0999(2) 0.4001(2)
C67_3 C 0.7636(3) 0.11136(16) 0.38864(16)
H36_3 H 0.7633 0.1265 0.3735
C68_3 C 0.7659(3) 0.04171(19) 0.45829(19)
C69_3 C 0.6587(3) 0.1207(3) 0.3793(3)
C70_3 C 0.6486(3) 0.1486(3) 0.3893(4)
C71_3 C 0.6647(5) 0.1647(5) 0.4164(5)
H37_3 H 0.6567 0.1568 0.4355
H38_3 H 0.6610 0.1865 0.4153
C72_3 C 0.6815(4) 0.1017(2) 0.3983(2)
H39_3 H 0.6769 0.0869 0.4131
H40_3 H 0.6865 0.1610 0.4153
H41_3 H 0.5847 0.1865 0.3390
H42_3 H 0.6610 0.0847 0.3135
O36_3 O 0.3167(2) 0.36567(16) 0.63433(16)
O37_3 O 0.3440(2) 0.39561(13) 0.60439(13)
O41_5 O 0.2100(2) 0.38871(16) 0.61129(16)
C73_5 C 0.3197(3) 0.3850(2) 0.6150(2)
C74_5 C 0.2906(3) 0.3994(2) 0.6006(2)
C75_5 C 0.2918(2) 0.4214(2) 0.5786(2)
H43_5 H 0.3108 0.4284 0.5716
C76_5 C 0.2652(3) 0.43331(17) 0.56669(17)
C77_5 C 0.2370(2) 0.4225(2) 0.5775(2)
H44_5 H 0.2185 0.4302 0.5698
C78_5 C 0.2369(3) 0.4001(2) 0.5999(2)
C79_5 C 0.2636(3) 0.38864(16) 0.61136(16)
H45_5 H 0.2633 0.3735 0.6265
C80_5 C 0.2659(3) 0.45829(19) 0.54171(19)
C81_5 C 0.1587(3) 0.3793(3) 0.6207(3)
C82_5 C 0.1486(3) 0.3514(3) 0.6107(4)
C83_5 C 0.1647(5) 0.3353(5) 0.5836(5)
H46_5 H 0.1567 0.3432 0.5645
H47_5 H 0.1610 0.3135 0.5847
C84_5 C 0.1815(4) 0.3983(2) 0.6017(2)
H48_5 H 0.1769 0.4131 0.5869
O42_5 O 0.13433(16) 0.1833(2) 0.63433(16)
O43_5 O 0.10439(13) 0.1560(2) 0.60439(13)
O44_5 O 0.03257(11) 0.20825(17) 0.53257(11)
O45_5 O 0.03236(12) 0.26027(19) 0.53236(12)
O46_5 O 0.11129(16) 0.2900(2) 0.61129(16)
C85_5 C 0.1150(2) 0.1803(3) 0.6150(2)
C86_5 C 0.1006(2) 0.2094(3) 0.6006(2)
C87_5 C 0.0786(2) 0.2082(2) 0.5786(2)
H49_5 H 0.0716 0.1892 0.5716
C88_5 C 0.06669(17) 0.2348(3) 0.56669(17)
C89_5 C 0.0775(2) 0.2630(2) 0.5775(2)
H50_5 H 0.0698 0.2815 0.5698
C90_5 C 0.0999(2) 0.2631(3) 0.5999(2)
C91_5 C 0.11136(16) 0.2364(3) 0.61136(16)
H51_5 H 0.1265 0.2367 0.6265
C92_5 C 0.04171(19) 0.2341(3) 0.54171(19)
C93_5 C 0.1207(3) 0.3413(3) 0.6207(3)
C94_5 C 0.1107(4) 0.3514(3) 0.6486(3)
C95_5 C 0.0836(5) 0.3353(5) 0.6647(5)
H52_5 H 0.0645 0.3433 0.6568
H53_5 H 0.0847 0.3390 0.6865
C96_5 C 0.1017(2) 0.3185(4) 0.6017(2)
H54_5 H 0.0869 0.3231 0.5869
O47_5 O 0.13433(16) 0.36567(16) 0.8167(2)
O48_5 O 0.10439(13) 0.39561(13) 0.8440(2)
O49_5 O 0.03257(11) 0.46743(11) 0.79175(17)
O50_5 O 0.03236(12) 0.46764(12) 0.73973(19)
O51_5 O 0.11129(16) 0.38871(16) 0.7100(2)
C97_5 C 0.1150(2) 0.3850(2) 0.8197(3)
C98_5 C 0.1006(2) 0.3994(2) 0.7906(3)
C99_5 C 0.0786(2) 0.4214(2) 0.7918(2)
H55_5 H 0.0716 0.4284 0.8108
C100_5 C 0.06669(17) 0.43331(17) 0.7652(3)
C101_5 C 0.0775(2) 0.4225(2) 0.7370(2)
H56_5 H 0.0698 0.4302 0.7185
C102_5 C 0.0999(2) 0.4001(2) 0.7369(3)
C103_5 C 0.11136(16) 0.38864(16) 0.7636(3)
H57_5 H 0.1265 0.3735 0.7633
C104_5 C 0.04171(19) 0.45829(19) 0.7659(3)
C105_5 C 0.1207(3) 0.3793(3) 0.6587(3)
C106_5 C 0.1486(3) 0.3893(4) 0.6486(3)
C107_5 C 0.1647(5) 0.4164(5) 0.6647(5)
H58_5 H 0.1568 0.4355 0.6567
H59_5 H 0.1865 0.4153 0.6610
C108_5 C 0.1017(2) 0.3983(2) 0.6815(4)
H60_5 H 0.0869 0.4131 0.6769
H61_5 H 0.1610 0.4153 0.6865
H62_5 H 0.1865 0.3390 0.5847
H63_5 H 0.0847 0.3135 0.6610
O52_3 O 0.36567(16) 0.36567(16) 0.6833(2)
O53_3 O 0.39561(13) 0.39561(13) 0.6560(2)
O57_5 O 0.38871(16) 0.38871(16) 0.7900(2)
C109_5 C 0.3850(2) 0.3850(2) 0.6803(3)
C110_5 C 0.3994(2) 0.3994(2) 0.7094(3)
C111_5 C 0.4214(2) 0.4214(2) 0.7082(2)
H64_5 H 0.4284 0.4284 0.6892
C112_5 C 0.43331(17) 0.43331(17) 0.7348(3)
C113_5 C 0.4225(2) 0.4225(2) 0.7630(2)
H65_5 H 0.4302 0.4302 0.7815
C114_5 C 0.4001(2) 0.4001(2) 0.7631(3)
C115_5 C 0.38864(16) 0.38864(16) 0.7364(3)
H66_5 H 0.3735 0.3735 0.7367
C116_5 C 0.45829(19) 0.45829(19) 0.7341(3)
C117_5 C 0.3793(3) 0.3793(3) 0.8413(3)
C118_5 C 0.3514(3) 0.3893(4) 0.8514(3)
C119_5 C 0.3353(5) 0.4164(5) 0.8353(5)
H67_5 H 0.3432 0.4355 0.8433
H68_5 H 0.3135 0.4153 0.8390
C120_5 C 0.3983(2) 0.3983(2) 0.8185(4)
H69_5 H 0.4131 0.4131 0.8231
O58_5 O 0.1833(2) 0.36567(16) 0.86567(16)
O59_5 O 0.1560(2) 0.39561(13) 0.89561(13)
O60_5 O 0.20825(17) 0.46743(11) 0.96743(11)
O61_5 O 0.26027(19) 0.46764(12) 0.96764(12)
O62_5 O 0.2900(2) 0.38871(16) 0.88871(16)
C121_5 C 0.1803(3) 0.3850(2) 0.8850(2)
C122_5 C 0.2094(3) 0.3994(2) 0.8994(2)
C123_5 C 0.2082(2) 0.4214(2) 0.9214(2)
H70_5 H 0.1892 0.4284 0.9284
C124_5 C 0.2348(3) 0.43331(17) 0.93331(17)
C125_5 C 0.2630(2) 0.4225(2) 0.9225(2)
H71_5 H 0.2815 0.4302 0.9302
C126_5 C 0.2631(3) 0.4001(2) 0.9001(2)
C127_5 C 0.2364(3) 0.38864(16) 0.88864(16)
H72_5 H 0.2367 0.3735 0.8735
C128_5 C 0.2341(3) 0.45829(19) 0.95829(19)
C129_5 C 0.3413(3) 0.3793(3) 0.8793(3)
C130_5 C 0.3514(3) 0.3514(3) 0.8893(4)
C131_5 C 0.3353(5) 0.3353(5) 0.9164(5)
H73_5 H 0.3433 0.3432 0.9355
H74_5 H 0.3390 0.3135 0.9153
C132_5 C 0.3185(4) 0.3983(2) 0.8983(2)
H75_5 H 0.3231 0.4131 0.9131
O63_5 O 0.36567(16) 0.1833(2) 0.86567(16)
O64_5 O 0.39561(13) 0.1560(2) 0.89561(13)
O65_5 O 0.46743(11) 0.20825(17) 0.96743(11)
O66_5 O 0.46764(12) 0.26027(19) 0.96764(12)
O67_5 O 0.38871(16) 0.2900(2) 0.88871(16)
C133_5 C 0.3850(2) 0.1803(3) 0.8850(2)
C134_5 C 0.3994(2) 0.2094(3) 0.8994(2)
C135_5 C 0.4214(2) 0.2082(2) 0.9214(2)
H76_5 H 0.4284 0.1892 0.9284
C136_5 C 0.43331(17) 0.2348(3) 0.93331(17)
C137_5 C 0.4225(2) 0.2630(2) 0.9225(2)
H77_5 H 0.4302 0.2815 0.9302
C138_5 C 0.4001(2) 0.2631(3) 0.9001(2)
C139_5 C 0.38864(16) 0.2364(3) 0.88864(16)
H78_5 H 0.3735 0.2367 0.8735
C140_5 C 0.45829(19) 0.2341(3) 0.95829(19)
C141_5 C 0.3793(3) 0.3413(3) 0.8793(3)
C142_5 C 0.3893(4) 0.3514(3) 0.8514(3)
C143_5 C 0.4164(5) 0.3353(5) 0.8353(5)
H79_5 H 0.4355 0.3433 0.8432
H80_5 H 0.4153 0.3390 0.8135
C144_5 C 0.3983(2) 0.3185(4) 0.8983(2)
H81_5 H 0.4131 0.3231 0.9131
H82_5 H 0.4153 0.3135 0.8390
H83_5 H 0.3390 0.4153 0.8135
H84_5 H 0.3135 0.3390 0.9153
Co11_3 Co 0.33938(3) 0.16062(3) 0.83938(3)
O68_5 O 0.31242(14) 0.18758(14) 0.81242(14)
Co12_3 Co 0.38808(2) 0.11192(2) 0.88808(2)
O69_5 O 0.41553(12) 0.08447(12) 0.91553(12)
Co13_3 Co 0.16062(3) 0.16062(3) 0.66062(3)
O70_9 O 0.18758(14) 0.18758(14) 0.68758(14)
Co14_3 Co 0.11192(2) 0.11192(2) 0.61192(2)
O71_9 O 0.08447(12) 0.08447(12) 0.58447(12)
Co15_5 Co 0.16062(3) 0.33938(3) 0.83938(3)
Co16_3 Co 0.66062(3) 0.16062(3) 0.16062(3)
Co17_3 Co 0.83938(3) 0.16062(3) 0.33938(3)
Co18_5 Co 0.11192(2) 0.38808(2) 0.88808(2)
Co19_3 Co 0.61192(2) 0.11192(2) 0.11192(2)
Co20_3 Co 0.88808(2) 0.11192(2) 0.38808(2)
O72_3 O 0.6833(2) 0.36567(16) 0.36567(16)
O73_3 O 0.63433(16) 0.36567(16) 0.3167(2)
O74_5 O 0.3167(2) 0.13433(16) 0.86567(16)
O75_9 O 0.13433(16) 0.13433(16) 0.6833(2)
O76_3 O 0.6560(2) 0.39561(13) 0.39561(13)
O77_3 O 0.60439(13) 0.39561(13) 0.3440(2)
O78_5 O 0.3440(2) 0.10439(13) 0.89561(13)
O79_9 O 0.10439(13) 0.10439(13) 0.6560(2)
H89_3 H 0.380535 0.1815 0.583935
H92_5 H 0.380535 0.0839355 0.6815
H97_5 H 0.3185 0.0839355 0.619465
H98_3 H 0.619465 0.1815 0.416065
H99_13 H 0.583935 0.119465 0.3185
H100_13 H 0.6815 0.119465 0.416065
H103_9 H 0.1815 0.416065 0.619465
H104_5 H 0.0839355 0.3185 0.619465
H105_5 H 0.0839355 0.380535 0.6815
H108_13 H 0.380535 0.416065 0.8185
H109_5 H 0.3185 0.380535 0.916065
H112_5 H 0.380535 0.3185 0.916065
Co1_4 Co 0.66062(3) 0.66062(3) 0.66062(3)
Co2_4 Co 0.61192(2) 0.61192(2) 0.61192(2)
O1_4 O 0.63433(16) 0.6833(2) 0.63433(16)
O2_4 O 0.60439(13) 0.6560(2) 0.60439(13)
O5_4 O 0.58447(12) 0.58447(12) 0.58447(12)
O6_4 O 0.68758(14) 0.68758(14) 0.68758(14)
O8_4 O 0.61129(16) 0.7900(2) 0.61129(16)
C1_4 C 0.6150(2) 0.6803(3) 0.6150(2)
C2_4 C 0.6006(2) 0.7094(3) 0.6006(2)
C3_4 C 0.5786(2) 0.7082(2) 0.5786(2)
H1_4 H 0.5716 0.6892 0.5716
C4_4 C 0.56669(17) 0.7348(3) 0.56669(17)
C5_4 C 0.5775(2) 0.7630(2) 0.5775(2)
H2_4 H 0.5698 0.7815 0.5698
C6_4 C 0.5999(2) 0.7631(3) 0.5999(2)
C7_4 C 0.61136(16) 0.7364(3) 0.61136(16)
H3_4 H 0.6265 0.7367 0.6265
C8_4 C 0.54171(19) 0.7341(3) 0.54171(19)
C9_4 C 0.6207(3) 0.8413(3) 0.6207(3)
C10_4 C 0.6107(4) 0.8514(3) 0.6486(3)
C11_4 C 0.5836(5) 0.8353(5) 0.6647(5)
H4_4 H 0.5645 0.8433 0.6568
H5_4 H 0.5847 0.8390 0.6865
C12_4 C 0.6017(2) 0.8185(4) 0.6017(2)
H6_4 H 0.5869 0.8231 0.5869
O9_4 O 0.63433(16) 0.86567(16) 0.8167(2)
O10_4 O 0.60439(13) 0.89561(13) 0.8440(2)
O11_4 O 0.53257(11) 0.96743(11) 0.79175(17)
O12_4 O 0.53236(12) 0.96764(12) 0.73973(19)
O13_4 O 0.61129(16) 0.88871(16) 0.7100(2)
C13_4 C 0.6150(2) 0.8850(2) 0.8197(3)
C14_4 C 0.6006(2) 0.8994(2) 0.7906(3)
C15_4 C 0.5786(2) 0.9214(2) 0.7918(2)
H7_4 H 0.5716 0.9284 0.8108
C16_4 C 0.56669(17) 0.93331(17) 0.7652(3)
C17_4 C 0.5775(2) 0.9225(2) 0.7370(2)
H8_4 H 0.5698 0.9302 0.7185
C18_4 C 0.5999(2) 0.9001(2) 0.7369(3)
C19_4 C 0.61136(16) 0.88864(16) 0.7636(3)
H9_4 H 0.6265 0.8735 0.7633
C20_4 C 0.54171(19) 0.95829(19) 0.7659(3)
C21_4 C 0.6207(3) 0.8793(3) 0.6587(3)
C22_4 C 0.6486(3) 0.8893(4) 0.6486(3)
C23_4 C 0.6647(5) 0.9164(5) 0.6647(5)
H10_4 H 0.6568 0.9355 0.6567
H11_4 H 0.6865 0.9153 0.6610
C24_4 C 0.6017(2) 0.8983(2) 0.6815(4)
H12_4 H 0.5869 0.9131 0.6769
O14_4 O 0.8167(2) 0.86567(16) 0.63433(16)
O15_4 O 0.8440(2) 0.89561(13) 0.60439(13)
O16_4 O 0.79175(17) 0.96743(11) 0.53257(11)
O17_4 O 0.73973(19) 0.96764(12) 0.53236(12)
O18_4 O 0.7100(2) 0.88871(16) 0.61129(16)
C25_4 C 0.8197(3) 0.8850(2) 0.6150(2)
C26_4 C 0.7906(3) 0.8994(2) 0.6006(2)
C27_4 C 0.7918(2) 0.9214(2) 0.5786(2)
H13_4 H 0.8108 0.9284 0.5716
C28_4 C 0.7652(3) 0.93331(17) 0.56669(17)
C29_4 C 0.7370(2) 0.9225(2) 0.5775(2)
H14_4 H 0.7185 0.9302 0.5698
C30_4 C 0.7369(3) 0.9001(2) 0.5999(2)
C31_4 C 0.7636(3) 0.88864(16) 0.61136(16)
H15_4 H 0.7633 0.8735 0.6265
C32_4 C 0.7659(3) 0.95829(19) 0.54171(19)
C33_4 C 0.6587(3) 0.8793(3) 0.6207(3)
C34_4 C 0.6486(3) 0.8514(3) 0.6107(4)
C35_4 C 0.6647(5) 0.8353(5) 0.5836(5)
H16_4 H 0.6567 0.8432 0.5645
H17_4 H 0.6610 0.8135 0.5847
C36_4 C 0.6815(4) 0.8983(2) 0.6017(2)
H18_4 H 0.6769 0.9131 0.5869
H19_4 H 0.6865 0.8390 0.5847
H20_4 H 0.5847 0.8135 0.6610
H21_4 H 0.6610 0.9153 0.6865
Co5_4 Co 0.33938(3) 0.66062(3) 0.33938(3)
Co6_4 Co 0.38808(2) 0.61192(2) 0.38808(2)
O19_4 O 0.36567(16) 0.6833(2) 0.36567(16)
O20_4 O 0.39561(13) 0.6560(2) 0.39561(13)
O23_4 O 0.41553(12) 0.58447(12) 0.41553(12)
O24_4 O 0.31242(14) 0.68758(14) 0.31242(14)
O25_4 O 0.38871(16) 0.7900(2) 0.38871(16)
C37_4 C 0.3850(2) 0.6803(3) 0.3850(2)
C38_4 C 0.3994(2) 0.7094(3) 0.3994(2)
C39_4 C 0.4214(2) 0.7082(2) 0.4214(2)
H22_4 H 0.4284 0.6892 0.4284
C40_4 C 0.43331(17) 0.7348(3) 0.43331(17)
C41_4 C 0.4225(2) 0.7630(2) 0.4225(2)
H23_4 H 0.4302 0.7815 0.4302
C42_4 C 0.4001(2) 0.7631(3) 0.4001(2)
C43_4 C 0.38864(16) 0.7364(3) 0.38864(16)
H24_4 H 0.3735 0.7367 0.3735
C44_4 C 0.45829(19) 0.7341(3) 0.45829(19)
C45_4 C 0.3793(3) 0.8413(3) 0.3793(3)
C46_4 C 0.3893(4) 0.8514(3) 0.3514(3)
C47_4 C 0.4164(5) 0.8353(5) 0.3353(5)
H25_4 H 0.4355 0.8433 0.3432
H26_4 H 0.4153 0.8390 0.3135
C48_4 C 0.3983(2) 0.8185(4) 0.3983(2)
H27_4 H 0.4131 0.8231 0.4131
O26_4 O 0.36567(16) 0.86567(16) 0.1833(2)
O27_4 O 0.39561(13) 0.89561(13) 0.1560(2)
O28_4 O 0.46743(11) 0.96743(11) 0.20825(17)
O29_4 O 0.46764(12) 0.96764(12) 0.26027(19)
O30_4 O 0.38871(16) 0.88871(16) 0.2900(2)
C49_4 C 0.3850(2) 0.8850(2) 0.1803(3)
C50_4 C 0.3994(2) 0.8994(2) 0.2094(3)
C51_4 C 0.4214(2) 0.9214(2) 0.2082(2)
H28_4 H 0.4284 0.9284 0.1892
C52_4 C 0.43331(17) 0.93331(17) 0.2348(3)
C53_4 C 0.4225(2) 0.9225(2) 0.2630(2)
H29_4 H 0.4302 0.9302 0.2815
C54_4 C 0.4001(2) 0.9001(2) 0.2631(3)
C55_4 C 0.38864(16) 0.88864(16) 0.2364(3)
H30_4 H 0.3735 0.8735 0.2367
C56_4 C 0.45829(19) 0.95829(19) 0.2341(3)
C57_4 C 0.3793(3) 0.8793(3) 0.3413(3)
C58_4 C 0.3514(3) 0.8893(4) 0.3514(3)
C59_4 C 0.3353(5) 0.9164(5) 0.3353(5)
H31_4 H 0.3432 0.9355 0.3433
H32_4 H 0.3135 0.9153 0.3390
C60_4 C 0.3983(2) 0.8983(2) 0.3185(4)
H33_4 H 0.4131 0.9131 0.3231
O31_4 O 0.1833(2) 0.86567(16) 0.36567(16)
O32_4 O 0.1560(2) 0.89561(13) 0.39561(13)
O33_4 O 0.20825(17) 0.96743(11) 0.46743(11)
O34_4 O 0.26027(19) 0.96764(12) 0.46764(12)
O35_4 O 0.2900(2) 0.88871(16) 0.38871(16)
C61_4 C 0.1803(3) 0.8850(2) 0.3850(2)
C62_4 C 0.2094(3) 0.8994(2) 0.3994(2)
C63_4 C 0.2082(2) 0.9214(2) 0.4214(2)
H34_4 H 0.1892 0.9284 0.4284
C64_4 C 0.2348(3) 0.93331(17) 0.43331(17)
C65_4 C 0.2630(2) 0.9225(2) 0.4225(2)
H35_4 H 0.2815 0.9302 0.4302
C66_4 C 0.2631(3) 0.9001(2) 0.4001(2)
C67_4 C 0.2364(3) 0.88864(16) 0.38864(16)
H36_4 H 0.2367 0.8735 0.3735
C68_4 C 0.2341(3) 0.95829(19) 0.45829(19)
C69_4 C 0.3413(3) 0.8793(3) 0.3793(3)
C70_4 C 0.3514(3) 0.8514(3) 0.3893(4)
C71_4 C 0.3353(5) 0.8353(5) 0.4164(5)
H37_4 H 0.3433 0.8432 0.4355
H38_4 H 0.3390 0.8135 0.4153
C72_4 C 0.3185(4) 0.8983(2) 0.3983(2)
H39_4 H 0.3231 0.9131 0.4131
H40_4 H 0.3135 0.8390 0.4153
H41_4 H 0.4153 0.8135 0.3390
H42_4 H 0.3390 0.9153 0.3135
O36_4 O 0.6833(2) 0.63433(16) 0.63433(16)
O37_4 O 0.6560(2) 0.60439(13) 0.60439(13)
O41_6 O 0.7900(2) 0.61129(16) 0.61129(16)
C73_6 C 0.6803(3) 0.6150(2) 0.6150(2)
C74_6 C 0.7094(3) 0.6006(2) 0.6006(2)
C75_6 C 0.7082(2) 0.5786(2) 0.5786(2)
H43_6 H 0.6892 0.5716 0.5716
C76_6 C 0.7348(3) 0.56669(17) 0.56669(17)
C77_6 C 0.7630(2) 0.5775(2) 0.5775(2)
H44_6 H 0.7815 0.5698 0.5698
C78_6 C 0.7631(3) 0.5999(2) 0.5999(2)
C79_6 C 0.7364(3) 0.61136(16) 0.61136(16)
H45_6 H 0.7367 0.6265 0.6265
C80_6 C 0.7341(3) 0.54171(19) 0.54171(19)
C81_6 C 0.8413(3) 0.6207(3) 0.6207(3)
C82_6 C 0.8514(3) 0.6486(3) 0.6107(4)
C83_6 C 0.8353(5) 0.6647(5) 0.5836(5)
H46_6 H 0.8433 0.6568 0.5645
H47_6 H 0.8390 0.6865 0.5847
C84_6 C 0.8185(4) 0.6017(2) 0.6017(2)
H48_6 H 0.8231 0.5869 0.5869
O42_6 O 0.86567(16) 0.8167(2) 0.63433(16)
O43_6 O 0.89561(13) 0.8440(2) 0.60439(13)
O44_6 O 0.96743(11) 0.79175(17) 0.53257(11)
O45_6 O 0.96764(12) 0.73973(19) 0.53236(12)
O46_6 O 0.88871(16) 0.7100(2) 0.61129(16)
C85_6 C 0.8850(2) 0.8197(3) 0.6150(2)
C86_6 C 0.8994(2) 0.7906(3) 0.6006(2)
C87_6 C 0.9214(2) 0.7918(2) 0.5786(2)
H49_6 H 0.9284 0.8108 0.5716
C88_6 C 0.93331(17) 0.7652(3) 0.56669(17)
C89_6 C 0.9225(2) 0.7370(2) 0.5775(2)
H50_6 H 0.9302 0.7185 0.5698
C90_6 C 0.9001(2) 0.7369(3) 0.5999(2)
C91_6 C 0.88864(16) 0.7636(3) 0.61136(16)
H51_6 H 0.8735 0.7633 0.6265
C92_6 C 0.95829(19) 0.7659(3) 0.54171(19)
C93_6 C 0.8793(3) 0.6587(3) 0.6207(3)
C94_6 C 0.8893(4) 0.6486(3) 0.6486(3)
C95_6 C 0.9164(5) 0.6647(5) 0.6647(5)
H52_6 H 0.9355 0.6567 0.6568
H53_6 H 0.9153 0.6610 0.6865
C96_6 C 0.8983(2) 0.6815(4) 0.6017(2)
H54_6 H 0.9131 0.6769 0.5869
O47_6 O 0.86567(16) 0.63433(16) 0.8167(2)
O48_6 O 0.89561(13) 0.60439(13) 0.8440(2)
O49_6 O 0.96743(11) 0.53257(11) 0.79175(17)
O50_6 O 0.96764(12) 0.53236(12) 0.73973(19)
O51_6 O 0.88871(16) 0.61129(16) 0.7100(2)
C97_6 C 0.8850(2) 0.6150(2) 0.8197(3)
C98_6 C 0.8994(2) 0.6006(2) 0.7906(3)
C99_6 C 0.9214(2) 0.5786(2) 0.7918(2)
H55_6 H 0.9284 0.5716 0.8108
C100_6 C 0.93331(17) 0.56669(17) 0.7652(3)
C101_6 C 0.9225(2) 0.5775(2) 0.7370(2)
H56_6 H 0.9302 0.5698 0.7185
C102_6 C 0.9001(2) 0.5999(2) 0.7369(3)
C103_6 C 0.88864(16) 0.61136(16) 0.7636(3)
H57_6 H 0.8735 0.6265 0.7633
C104_6 C 0.95829(19) 0.54171(19) 0.7659(3)
C105_6 C 0.8793(3) 0.6207(3) 0.6587(3)
C106_6 C 0.8514(3) 0.6107(4) 0.6486(3)
C107_6 C 0.8353(5) 0.5836(5) 0.6647(5)
H58_6 H 0.8432 0.5645 0.6567
H59_6 H 0.8135 0.5847 0.6610
C108_6 C 0.8983(2) 0.6017(2) 0.6815(4)
H60_6 H 0.9131 0.5869 0.6769
H61_6 H 0.8390 0.5847 0.6865
H62_6 H 0.8135 0.6610 0.5847
H63_6 H 0.9153 0.6865 0.6610
O52_4 O 0.63433(16) 0.63433(16) 0.6833(2)
O53_4 O 0.60439(13) 0.60439(13) 0.6560(2)
O57_6 O 0.61129(16) 0.61129(16) 0.7900(2)
C109_6 C 0.6150(2) 0.6150(2) 0.6803(3)
C110_6 C 0.6006(2) 0.6006(2) 0.7094(3)
C111_6 C 0.5786(2) 0.5786(2) 0.7082(2)
H64_6 H 0.5716 0.5716 0.6892
C112_6 C 0.56669(17) 0.56669(17) 0.7348(3)
C113_6 C 0.5775(2) 0.5775(2) 0.7630(2)
H65_6 H 0.5698 0.5698 0.7815
C114_6 C 0.5999(2) 0.5999(2) 0.7631(3)
C115_6 C 0.61136(16) 0.61136(16) 0.7364(3)
H66_6 H 0.6265 0.6265 0.7367
C116_6 C 0.54171(19) 0.54171(19) 0.7341(3)
C117_6 C 0.6207(3) 0.6207(3) 0.8413(3)
C118_6 C 0.6486(3) 0.6107(4) 0.8514(3)
C119_6 C 0.6647(5) 0.5836(5) 0.8353(5)
H67_6 H 0.6568 0.5645 0.8433
H68_6 H 0.6865 0.5847 0.8390
C120_6 C 0.6017(2) 0.6017(2) 0.8185(4)
H69_6 H 0.5869 0.5869 0.8231
O58_6 O 0.8167(2) 0.63433(16) 0.86567(16)
O59_6 O 0.8440(2) 0.60439(13) 0.89561(13)
O60_6 O 0.79175(17) 0.53257(11) 0.96743(11)
O61_6 O 0.73973(19) 0.53236(12) 0.96764(12)
O62_6 O 0.7100(2) 0.61129(16) 0.88871(16)
C121_6 C 0.8197(3) 0.6150(2) 0.8850(2)
C122_6 C 0.7906(3) 0.6006(2) 0.8994(2)
C123_6 C 0.7918(2) 0.5786(2) 0.9214(2)
H70_6 H 0.8108 0.5716 0.9284
C124_6 C 0.7652(3) 0.56669(17) 0.93331(17)
C125_6 C 0.7370(2) 0.5775(2) 0.9225(2)
H71_6 H 0.7185 0.5698 0.9302
C126_6 C 0.7369(3) 0.5999(2) 0.9001(2)
C127_6 C 0.7636(3) 0.61136(16) 0.88864(16)
H72_6 H 0.7633 0.6265 0.8735
C128_6 C 0.7659(3) 0.54171(19) 0.95829(19)
C129_6 C 0.6587(3) 0.6207(3) 0.8793(3)
C130_6 C 0.6486(3) 0.6486(3) 0.8893(4)
C131_6 C 0.6647(5) 0.6647(5) 0.9164(5)
H73_6 H 0.6567 0.6568 0.9355
H74_6 H 0.6610 0.6865 0.9153
C132_6 C 0.6815(4) 0.6017(2) 0.8983(2)
H75_6 H 0.6769 0.5869 0.9131
O63_6 O 0.63433(16) 0.8167(2) 0.86567(16)
O64_6 O 0.60439(13) 0.8440(2) 0.89561(13)
O65_6 O 0.53257(11) 0.79175(17) 0.96743(11)
O66_6 O 0.53236(12) 0.73973(19) 0.96764(12)
O67_6 O 0.61129(16) 0.7100(2) 0.88871(16)
C133_6 C 0.6150(2) 0.8197(3) 0.8850(2)
C134_6 C 0.6006(2) 0.7906(3) 0.8994(2)
C135_6 C 0.5786(2) 0.7918(2) 0.9214(2)
H76_6 H 0.5716 0.8108 0.9284
C136_6 C 0.56669(17) 0.7652(3) 0.93331(17)
C137_6 C 0.5775(2) 0.7370(2) 0.9225(2)
H77_6 H 0.5698 0.7185 0.9302
C138_6 C 0.5999(2) 0.7369(3) 0.9001(2)
C139_6 C 0.61136(16) 0.7636(3) 0.88864(16)
H78_6 H 0.6265 0.7633 0.8735
C140_6 C 0.54171(19) 0.7659(3) 0.95829(19)
C141_6 C 0.6207(3) 0.6587(3) 0.8793(3)
C142_6 C 0.6107(4) 0.6486(3) 0.8514(3)
C143_6 C 0.5836(5) 0.6647(5) 0.8353(5)
H79_6 H 0.5645 0.6567 0.8432
H80_6 H 0.5847 0.6610 0.8135
C144_6 C 0.6017(2) 0.6815(4) 0.8983(2)
H81_6 H 0.5869 0.6769 0.9131
H82_6 H 0.5847 0.6865 0.8390
H83_6 H 0.6610 0.5847 0.8135
H84_6 H 0.6865 0.6610 0.9153
Co11_4 Co 0.66062(3) 0.83938(3) 0.83938(3)
O68_6 O 0.68758(14) 0.81242(14) 0.81242(14)
Co12_4 Co 0.61192(2) 0.88808(2) 0.88808(2)
O69_6 O 0.58447(12) 0.91553(12) 0.91553(12)
Co13_4 Co 0.83938(3) 0.83938(3) 0.66062(3)
O70_10 O 0.81242(14) 0.81242(14) 0.68758(14)
Co14_4 Co 0.88808(2) 0.88808(2) 0.61192(2)
O71_10 O 0.91553(12) 0.91553(12) 0.58447(12)
Co15_6 Co 0.83938(3) 0.66062(3) 0.83938(3)
Co16_4 Co 0.33938(3) 0.83938(3) 0.16062(3)
Co17_4 Co 0.16062(3) 0.83938(3) 0.33938(3)
Co18_6 Co 0.88808(2) 0.61192(2) 0.88808(2)
Co19_4 Co 0.38808(2) 0.88808(2) 0.11192(2)
Co20_4 Co 0.11192(2) 0.88808(2) 0.38808(2)
O72_4 O 0.3167(2) 0.63433(16) 0.36567(16)
O73_4 O 0.36567(16) 0.63433(16) 0.3167(2)
O74_6 O 0.6833(2) 0.86567(16) 0.86567(16)
O75_10 O 0.86567(16) 0.86567(16) 0.6833(2)
O76_4 O 0.3440(2) 0.60439(13) 0.39561(13)
O77_4 O 0.39561(13) 0.60439(13) 0.3440(2)
O78_6 O 0.6560(2) 0.89561(13) 0.89561(13)
O79_10 O 0.89561(13) 0.89561(13) 0.6560(2)
H89_4 H 0.619465 0.8185 0.583935
H92_6 H 0.619465 0.916065 0.6815
H97_6 H 0.6815 0.916065 0.619465
H98_4 H 0.380535 0.8185 0.416065
H99_14 H 0.416065 0.880535 0.3185
H100_14 H 0.3185 0.880535 0.416065
H103_10 H 0.8185 0.583935 0.619465
H104_6 H 0.916065 0.6815 0.619465
H105_6 H 0.916065 0.619465 0.6815
H108_14 H 0.619465 0.583935 0.8185
H109_6 H 0.6815 0.619465 0.916065
H112_6 H 0.619465 0.6815 0.916065
O41_7 O 0.2100(2) 0.61129(16) 0.38871(16)
C73_7 C 0.3197(3) 0.6150(2) 0.3850(2)
C74_7 C 0.2906(3) 0.6006(2) 0.3994(2)
C75_7 C 0.2918(2) 0.5786(2) 0.4214(2)
H43_7 H 0.3108 0.5716 0.4284
C76_7 C 0.2652(3) 0.56669(17) 0.43331(17)
C77_7 C 0.2370(2) 0.5775(2) 0.4225(2)
H44_7 H 0.2185 0.5698 0.4302
C78_7 C 0.2369(3) 0.5999(2) 0.4001(2)
C79_7 C 0.2636(3) 0.61136(16) 0.38864(16)
H45_7 H 0.2633 0.6265 0.3735
C80_7 C 0.2659(3) 0.54171(19) 0.45829(19)
C81_7 C 0.1587(3) 0.6207(3) 0.3793(3)
C82_7 C 0.1486(3) 0.6486(3) 0.3893(4)
C83_7 C 0.1647(5) 0.6647(5) 0.4164(5)
H46_7 H 0.1567 0.6568 0.4355
H47_7 H 0.1610 0.6865 0.4153
C84_7 C 0.1815(4) 0.6017(2) 0.3983(2)
H48_7 H 0.1769 0.5869 0.4131
O42_7 O 0.13433(16) 0.8167(2) 0.36567(16)
O43_7 O 0.10439(13) 0.8440(2) 0.39561(13)
O44_7 O 0.03257(11) 0.79175(17) 0.46743(11)
O45_7 O 0.03236(12) 0.73973(19) 0.46764(12)
O46_7 O 0.11129(16) 0.7100(2) 0.38871(16)
C85_7 C 0.1150(2) 0.8197(3) 0.3850(2)
C86_7 C 0.1006(2) 0.7906(3) 0.3994(2)
C87_7 C 0.0786(2) 0.7918(2) 0.4214(2)
H49_7 H 0.0716 0.8108 0.4284
C88_7 C 0.06669(17) 0.7652(3) 0.43331(17)
C89_7 C 0.0775(2) 0.7370(2) 0.4225(2)
H50_7 H 0.0698 0.7185 0.4302
C90_7 C 0.0999(2) 0.7369(3) 0.4001(2)
C91_7 C 0.11136(16) 0.7636(3) 0.38864(16)
H51_7 H 0.1265 0.7633 0.3735
C92_7 C 0.04171(19) 0.7659(3) 0.45829(19)
C93_7 C 0.1207(3) 0.6587(3) 0.3793(3)
C94_7 C 0.1107(4) 0.6486(3) 0.3514(3)
C95_7 C 0.0836(5) 0.6647(5) 0.3353(5)
H52_7 H 0.0645 0.6567 0.3432
H53_7 H 0.0847 0.6610 0.3135
C96_7 C 0.1017(2) 0.6815(4) 0.3983(2)
H54_7 H 0.0869 0.6769 0.4131
O47_7 O 0.13433(16) 0.63433(16) 0.1833(2)
O48_7 O 0.10439(13) 0.60439(13) 0.1560(2)
O49_7 O 0.03257(11) 0.53257(11) 0.20825(17)
O50_7 O 0.03236(12) 0.53236(12) 0.26027(19)
O51_7 O 0.11129(16) 0.61129(16) 0.2900(2)
C97_7 C 0.1150(2) 0.6150(2) 0.1803(3)
C98_7 C 0.1006(2) 0.6006(2) 0.2094(3)
C99_7 C 0.0786(2) 0.5786(2) 0.2082(2)
H55_7 H 0.0716 0.5716 0.1892
C100_7 C 0.06669(17) 0.56669(17) 0.2348(3)
C101_7 C 0.0775(2) 0.5775(2) 0.2630(2)
H56_7 H 0.0698 0.5698 0.2815
C102_7 C 0.0999(2) 0.5999(2) 0.2631(3)
C103_7 C 0.11136(16) 0.61136(16) 0.2364(3)
H57_7 H 0.1265 0.6265 0.2367
C104_7 C 0.04171(19) 0.54171(19) 0.2341(3)
C105_7 C 0.1207(3) 0.6207(3) 0.3413(3)
C106_7 C 0.1486(3) 0.6107(4) 0.3514(3)
C107_7 C 0.1647(5) 0.5836(5) 0.3353(5)
H58_7 H 0.1568 0.5645 0.3433
H59_7 H 0.1865 0.5847 0.3390
C108_7 C 0.1017(2) 0.6017(2) 0.3185(4)
H60_7 H 0.0869 0.5869 0.3231
H61_7 H 0.1610 0.5847 0.3135
H62_7 H 0.1865 0.6610 0.4153
H63_7 H 0.0847 0.6865 0.3390
O57_7 O 0.38871(16) 0.61129(16) 0.2100(2)
C109_7 C 0.3850(2) 0.6150(2) 0.3197(3)
C110_7 C 0.3994(2) 0.6006(2) 0.2906(3)
C111_7 C 0.4214(2) 0.5786(2) 0.2918(2)
H64_7 H 0.4284 0.5716 0.3108
C112_7 C 0.43331(17) 0.56669(17) 0.2652(3)
C113_7 C 0.4225(2) 0.5775(2) 0.2370(2)
H65_7 H 0.4302 0.5698 0.2185
C114_7 C 0.4001(2) 0.5999(2) 0.2369(3)
C115_7 C 0.38864(16) 0.61136(16) 0.2636(3)
H66_7 H 0.3735 0.6265 0.2633
C116_7 C 0.45829(19) 0.54171(19) 0.2659(3)
C117_7 C 0.3793(3) 0.6207(3) 0.1587(3)
C118_7 C 0.3514(3) 0.6107(4) 0.1486(3)
C119_7 C 0.3353(5) 0.5836(5) 0.1647(5)
H67_7 H 0.3432 0.5645 0.1567
H68_7 H 0.3135 0.5847 0.1610
C120_7 C 0.3983(2) 0.6017(2) 0.1815(4)
H69_7 H 0.4131 0.5869 0.1769
O58_7 O 0.1833(2) 0.63433(16) 0.13433(16)
O59_7 O 0.1560(2) 0.60439(13) 0.10439(13)
O60_7 O 0.20825(17) 0.53257(11) 0.03257(11)
O61_7 O 0.26027(19) 0.53236(12) 0.03236(12)
O62_7 O 0.2900(2) 0.61129(16) 0.11129(16)
C121_7 C 0.1803(3) 0.6150(2) 0.1150(2)
C122_7 C 0.2094(3) 0.6006(2) 0.1006(2)
C123_7 C 0.2082(2) 0.5786(2) 0.0786(2)
H70_7 H 0.1892 0.5716 0.0716
C124_7 C 0.2348(3) 0.56669(17) 0.06669(17)
C125_7 C 0.2630(2) 0.5775(2) 0.0775(2)
H71_7 H 0.2815 0.5698 0.0698
C126_7 C 0.2631(3) 0.5999(2) 0.0999(2)
C127_7 C 0.2364(3) 0.61136(16) 0.11136(16)
H72_7 H 0.2367 0.6265 0.1265
C128_7 C 0.2341(3) 0.54171(19) 0.04171(19)
C129_7 C 0.3413(3) 0.6207(3) 0.1207(3)
C130_7 C 0.3514(3) 0.6486(3) 0.1107(4)
C131_7 C 0.3353(5) 0.6647(5) 0.0836(5)
H73_7 H 0.3433 0.6568 0.0645
H74_7 H 0.3390 0.6865 0.0847
C132_7 C 0.3185(4) 0.6017(2) 0.1017(2)
H75_7 H 0.3231 0.5869 0.0869
O63_7 O 0.36567(16) 0.8167(2) 0.13433(16)
O64_7 O 0.39561(13) 0.8440(2) 0.10439(13)
O65_7 O 0.46743(11) 0.79175(17) 0.03257(11)
O66_7 O 0.46764(12) 0.73973(19) 0.03236(12)
O67_7 O 0.38871(16) 0.7100(2) 0.11129(16)
C133_7 C 0.3850(2) 0.8197(3) 0.1150(2)
C134_7 C 0.3994(2) 0.7906(3) 0.1006(2)
C135_7 C 0.4214(2) 0.7918(2) 0.0786(2)
H76_7 H 0.4284 0.8108 0.0716
C136_7 C 0.43331(17) 0.7652(3) 0.06669(17)
C137_7 C 0.4225(2) 0.7370(2) 0.0775(2)
H77_7 H 0.4302 0.7185 0.0698
C138_7 C 0.4001(2) 0.7369(3) 0.0999(2)
C139_7 C 0.38864(16) 0.7636(3) 0.11136(16)
H78_7 H 0.3735 0.7633 0.1265
C140_7 C 0.45829(19) 0.7659(3) 0.04171(19)
C141_7 C 0.3793(3) 0.6587(3) 0.1207(3)
C142_7 C 0.3893(4) 0.6486(3) 0.1486(3)
C143_7 C 0.4164(5) 0.6647(5) 0.1647(5)
H79_7 H 0.4355 0.6567 0.1568
H80_7 H 0.4153 0.6610 0.1865
C144_7 C 0.3983(2) 0.6815(4) 0.1017(2)
H81_7 H 0.4131 0.6769 0.0869
H82_7 H 0.4153 0.6865 0.1610
H83_7 H 0.3390 0.5847 0.1865
H84_7 H 0.3135 0.6610 0.0847
O68_7 O 0.31242(14) 0.81242(14) 0.18758(14)
O69_7 O 0.41553(12) 0.91553(12) 0.08447(12)
O70_11 O 0.18758(14) 0.81242(14) 0.31242(14)
O71_11 O 0.08447(12) 0.91553(12) 0.41553(12)
Co15_7 Co 0.16062(3) 0.66062(3) 0.16062(3)
Co18_7 Co 0.11192(2) 0.61192(2) 0.11192(2)
O74_7 O 0.3167(2) 0.86567(16) 0.13433(16)
O75_11 O 0.13433(16) 0.86567(16) 0.3167(2)
O78_7 O 0.3440(2) 0.89561(13) 0.10439(13)
O79_11 O 0.10439(13) 0.89561(13) 0.3440(2)
H92_7 H 0.380535 0.916065 0.3185
H97_7 H 0.3185 0.916065 0.380535
H99_15 H 0.583935 0.880535 0.6815
H100_15 H 0.6815 0.880535 0.583935
H103_11 H 0.1815 0.583935 0.380535
H104_7 H 0.0839355 0.6815 0.380535
H105_7 H 0.0839355 0.619465 0.3185
H108_15 H 0.380535 0.583935 0.1815
H109_7 H 0.3185 0.619465 0.0839355
H112_7 H 0.380535 0.6815 0.0839355
O41_8 O 0.7900(2) 0.38871(16) 0.38871(16)
C73_8 C 0.6803(3) 0.3850(2) 0.3850(2)
C74_8 C 0.7094(3) 0.3994(2) 0.3994(2)
C75_8 C 0.7082(2) 0.4214(2) 0.4214(2)
H43_8 H 0.6892 0.4284 0.4284
C76_8 C 0.7348(3) 0.43331(17) 0.43331(17)
C77_8 C 0.7630(2) 0.4225(2) 0.4225(2)
H44_8 H 0.7815 0.4302 0.4302
C78_8 C 0.7631(3) 0.4001(2) 0.4001(2)
C79_8 C 0.7364(3) 0.38864(16) 0.38864(16)
H45_8 H 0.7367 0.3735 0.3735
C80_8 C 0.7341(3) 0.45829(19) 0.45829(19)
C81_8 C 0.8413(3) 0.3793(3) 0.3793(3)
C82_8 C 0.8514(3) 0.3514(3) 0.3893(4)
C83_8 C 0.8353(5) 0.3353(5) 0.4164(5)
H46_8 H 0.8433 0.3432 0.4355
H47_8 H 0.8390 0.3135 0.4153
C84_8 C 0.8185(4) 0.3983(2) 0.3983(2)
H48_8 H 0.8231 0.4131 0.4131
O42_8 O 0.86567(16) 0.1833(2) 0.36567(16)
O43_8 O 0.89561(13) 0.1560(2) 0.39561(13)
O44_8 O 0.96743(11) 0.20825(17) 0.46743(11)
O45_8 O 0.96764(12) 0.26027(19) 0.46764(12)
O46_8 O 0.88871(16) 0.2900(2) 0.38871(16)
C85_8 C 0.8850(2) 0.1803(3) 0.3850(2)
C86_8 C 0.8994(2) 0.2094(3) 0.3994(2)
C87_8 C 0.9214(2) 0.2082(2) 0.4214(2)
H49_8 H 0.9284 0.1892 0.4284
C88_8 C 0.93331(17) 0.2348(3) 0.43331(17)
C89_8 C 0.9225(2) 0.2630(2) 0.4225(2)
H50_8 H 0.9302 0.2815 0.4302
C90_8 C 0.9001(2) 0.2631(3) 0.4001(2)
C91_8 C 0.88864(16) 0.2364(3) 0.38864(16)
H51_8 H 0.8735 0.2367 0.3735
C92_8 C 0.95829(19) 0.2341(3) 0.45829(19)
C93_8 C 0.8793(3) 0.3413(3) 0.3793(3)
C94_8 C 0.8893(4) 0.3514(3) 0.3514(3)
C95_8 C 0.9164(5) 0.3353(5) 0.3353(5)
H52_8 H 0.9355 0.3433 0.3432
H53_8 H 0.9153 0.3390 0.3135
C96_8 C 0.8983(2) 0.3185(4) 0.3983(2)
H54_8 H 0.9131 0.3231 0.4131
O47_8 O 0.86567(16) 0.36567(16) 0.1833(2)
O48_8 O 0.89561(13) 0.39561(13) 0.1560(2)
O49_8 O 0.96743(11) 0.46743(11) 0.20825(17)
O50_8 O 0.96764(12) 0.46764(12) 0.26027(19)
O51_8 O 0.88871(16) 0.38871(16) 0.2900(2)
C97_8 C 0.8850(2) 0.3850(2) 0.1803(3)
C98_8 C 0.8994(2) 0.3994(2) 0.2094(3)
C99_8 C 0.9214(2) 0.4214(2) 0.2082(2)
H55_8 H 0.9284 0.4284 0.1892
C100_8 C 0.93331(17) 0.43331(17) 0.2348(3)
C101_8 C 0.9225(2) 0.4225(2) 0.2630(2)
H56_8 H 0.9302 0.4302 0.2815
C102_8 C 0.9001(2) 0.4001(2) 0.2631(3)
C103_8 C 0.88864(16) 0.38864(16) 0.2364(3)
H57_8 H 0.8735 0.3735 0.2367
C104_8 C 0.95829(19) 0.45829(19) 0.2341(3)
C105_8 C 0.8793(3) 0.3793(3) 0.3413(3)
C106_8 C 0.8514(3) 0.3893(4) 0.3514(3)
C107_8 C 0.8353(5) 0.4164(5) 0.3353(5)
H58_8 H 0.8432 0.4355 0.3433
H59_8 H 0.8135 0.4153 0.3390
C108_8 C 0.8983(2) 0.3983(2) 0.3185(4)
H60_8 H 0.9131 0.4131 0.3231
H61_8 H 0.8390 0.4153 0.3135
H62_8 H 0.8135 0.3390 0.4153
H63_8 H 0.9153 0.3135 0.3390
O57_8 O 0.61129(16) 0.38871(16) 0.2100(2)
C109_8 C 0.6150(2) 0.3850(2) 0.3197(3)
C110_8 C 0.6006(2) 0.3994(2) 0.2906(3)
C111_8 C 0.5786(2) 0.4214(2) 0.2918(2)
H64_8 H 0.5716 0.4284 0.3108
C112_8 C 0.56669(17) 0.43331(17) 0.2652(3)
C113_8 C 0.5775(2) 0.4225(2) 0.2370(2)
H65_8 H 0.5698 0.4302 0.2185
C114_8 C 0.5999(2) 0.4001(2) 0.2369(3)
C115_8 C 0.61136(16) 0.38864(16) 0.2636(3)
H66_8 H 0.6265 0.3735 0.2633
C116_8 C 0.54171(19) 0.45829(19) 0.2659(3)
C117_8 C 0.6207(3) 0.3793(3) 0.1587(3)
C118_8 C 0.6486(3) 0.3893(4) 0.1486(3)
C119_8 C 0.6647(5) 0.4164(5) 0.1647(5)
H67_8 H 0.6568 0.4355 0.1567
H68_8 H 0.6865 0.4153 0.1610
C120_8 C 0.6017(2) 0.3983(2) 0.1815(4)
H69_8 H 0.5869 0.4131 0.1769
O58_8 O 0.8167(2) 0.36567(16) 0.13433(16)
O59_8 O 0.8440(2) 0.39561(13) 0.10439(13)
O60_8 O 0.79175(17) 0.46743(11) 0.03257(11)
O61_8 O 0.73973(19) 0.46764(12) 0.03236(12)
O62_8 O 0.7100(2) 0.38871(16) 0.11129(16)
C121_8 C 0.8197(3) 0.3850(2) 0.1150(2)
C122_8 C 0.7906(3) 0.3994(2) 0.1006(2)
C123_8 C 0.7918(2) 0.4214(2) 0.0786(2)
H70_8 H 0.8108 0.4284 0.0716
C124_8 C 0.7652(3) 0.43331(17) 0.06669(17)
C125_8 C 0.7370(2) 0.4225(2) 0.0775(2)
H71_8 H 0.7185 0.4302 0.0698
C126_8 C 0.7369(3) 0.4001(2) 0.0999(2)
C127_8 C 0.7636(3) 0.38864(16) 0.11136(16)
H72_8 H 0.7633 0.3735 0.1265
C128_8 C 0.7659(3) 0.45829(19) 0.04171(19)
C129_8 C 0.6587(3) 0.3793(3) 0.1207(3)
C130_8 C 0.6486(3) 0.3514(3) 0.1107(4)
C131_8 C 0.6647(5) 0.3353(5) 0.0836(5)
H73_8 H 0.6567 0.3432 0.0645
H74_8 H 0.6610 0.3135 0.0847
C132_8 C 0.6815(4) 0.3983(2) 0.1017(2)
H75_8 H 0.6769 0.4131 0.0869
O63_8 O 0.63433(16) 0.1833(2) 0.13433(16)
O64_8 O 0.60439(13) 0.1560(2) 0.10439(13)
O65_8 O 0.53257(11) 0.20825(17) 0.03257(11)
O66_8 O 0.53236(12) 0.26027(19) 0.03236(12)
O67_8 O 0.61129(16) 0.2900(2) 0.11129(16)
C133_8 C 0.6150(2) 0.1803(3) 0.1150(2)
C134_8 C 0.6006(2) 0.2094(3) 0.1006(2)
C135_8 C 0.5786(2) 0.2082(2) 0.0786(2)
H76_8 H 0.5716 0.1892 0.0716
C136_8 C 0.56669(17) 0.2348(3) 0.06669(17)
C137_8 C 0.5775(2) 0.2630(2) 0.0775(2)
H77_8 H 0.5698 0.2815 0.0698
C138_8 C 0.5999(2) 0.2631(3) 0.0999(2)
C139_8 C 0.61136(16) 0.2364(3) 0.11136(16)
H78_8 H 0.6265 0.2367 0.1265
C140_8 C 0.54171(19) 0.2341(3) 0.04171(19)
C141_8 C 0.6207(3) 0.3413(3) 0.1207(3)
C142_8 C 0.6107(4) 0.3514(3) 0.1486(3)
C143_8 C 0.5836(5) 0.3353(5) 0.1647(5)
H79_8 H 0.5645 0.3433 0.1568
H80_8 H 0.5847 0.3390 0.1865
C144_8 C 0.6017(2) 0.3185(4) 0.1017(2)
H81_8 H 0.5869 0.3231 0.0869
H82_8 H 0.5847 0.3135 0.1610
H83_8 H 0.6610 0.4153 0.1865
H84_8 H 0.6865 0.3390 0.0847
O68_8 O 0.68758(14) 0.18758(14) 0.18758(14)
O69_8 O 0.58447(12) 0.08447(12) 0.08447(12)
O70_12 O 0.81242(14) 0.18758(14) 0.31242(14)
O71_12 O 0.91553(12) 0.08447(12) 0.41553(12)
Co15_8 Co 0.83938(3) 0.33938(3) 0.16062(3)
Co18_8 Co 0.88808(2) 0.38808(2) 0.11192(2)
O74_8 O 0.6833(2) 0.13433(16) 0.13433(16)
O75_12 O 0.86567(16) 0.13433(16) 0.3167(2)
O78_8 O 0.6560(2) 0.10439(13) 0.10439(13)
O79_12 O 0.89561(13) 0.10439(13) 0.3440(2)
H92_8 H 0.619465 0.0839355 0.3185
H97_8 H 0.6815 0.0839355 0.380535
H99_16 H 0.416065 0.119465 0.6815
H100_16 H 0.3185 0.119465 0.583935
H103_12 H 0.8185 0.416065 0.380535
H104_8 H 0.916065 0.3185 0.380535
H105_8 H 0.916065 0.380535 0.3185
H108_16 H 0.619465 0.416065 0.1815
H109_8 H 0.6815 0.380535 0.0839355
H112_8 H 0.619465 0.3185 0.0839355
O70_13 O 0.18758(14) 0.31242(14) 0.81242(14)
O71_13 O 0.08447(12) 0.41553(12) 0.91553(12)
O75_13 O 0.13433(16) 0.3167(2) 0.86567(16)
O79_13 O 0.10439(13) 0.3440(2) 0.89561(13)
H99_17 H 0.119465 0.6815 0.416065
H100_17 H 0.119465 0.583935 0.3185
H103_13 H 0.416065 0.380535 0.8185
H108_17 H 0.416065 0.1815 0.619465
O70_14 O 0.81242(14) 0.31242(14) 0.18758(14)
O71_14 O 0.91553(12) 0.41553(12) 0.08447(12)
O75_14 O 0.86567(16) 0.3167(2) 0.13433(16)
O79_14 O 0.89561(13) 0.3440(2) 0.10439(13)
H99_18 H 0.880535 0.6815 0.583935
H100_18 H 0.880535 0.583935 0.6815
H103_14 H 0.583935 0.380535 0.1815
H108_18 H 0.583935 0.1815 0.380535
O70_15 O 0.81242(14) 0.68758(14) 0.81242(14)
O71_15 O 0.91553(12) 0.58447(12) 0.91553(12)
O75_15 O 0.86567(16) 0.6833(2) 0.86567(16)
O79_15 O 0.89561(13) 0.6560(2) 0.89561(13)
H99_19 H 0.880535 0.3185 0.416065
H100_19 H 0.880535 0.416065 0.3185
H103_15 H 0.583935 0.619465 0.8185
H108_19 H 0.583935 0.8185 0.619465
O70_16 O 0.18758(14) 0.68758(14) 0.18758(14)
O71_16 O 0.08447(12) 0.58447(12) 0.08447(12)
O75_16 O 0.13433(16) 0.6833(2) 0.13433(16)
O79_16 O 0.10439(13) 0.6560(2) 0.10439(13)
H99_20 H 0.119465 0.3185 0.583935
H100_20 H 0.119465 0.416065 0.6815
H103_16 H 0.416065 0.619465 0.1815
H108_20 H 0.416065 0.8185 0.380535
H99_21 H 0.6815 0.583935 0.880535
H100_21 H 0.583935 0.6815 0.880535
H108_21 H 0.1815 0.380535 0.583935
H99_22 H 0.6815 0.416065 0.119465
H100_22 H 0.583935 0.3185 0.119465
H108_22 H 0.1815 0.619465 0.416065
H99_23 H 0.3185 0.583935 0.119465
H100_23 H 0.416065 0.6815 0.119465
H108_23 H 0.8185 0.380535 0.416065
H99_24 H 0.3185 0.416065 0.880535
H100_24 H 0.416065 0.3185 0.880535
H108_24 H 0.8185 0.619465 0.583935
Co3_3 Co 0.29906(4) -0.0000 0.0000
Co4_3 Co 0.23192(4) -0.0000 0.0000
Cl1_3 Cl 0.3450(2) -0.0000 0.0000
O7_3 O 0.1850(3) -0.0000 0.0000
O21_3 O 0.29175(17) 0.03257(11) 0.03257(11)
O22_3 O 0.23973(19) 0.03236(12) 0.03236(12)
O25_5 O 0.2100(2) 0.11129(16) 0.11129(16)
C37_5 C 0.3197(3) 0.1150(2) 0.1150(2)
C38_5 C 0.2906(3) 0.1006(2) 0.1006(2)
C39_5 C 0.2918(2) 0.0786(2) 0.0786(2)
H22_5 H 0.3108 0.0716 0.0716
C40_5 C 0.2652(3) 0.06669(17) 0.06669(17)
C41_5 C 0.2370(2) 0.0775(2) 0.0775(2)
H23_5 H 0.2185 0.0698 0.0698
C42_5 C 0.2369(3) 0.0999(2) 0.0999(2)
C43_5 C 0.2636(3) 0.11136(16) 0.11136(16)
H24_5 H 0.2633 0.1265 0.1265
C44_5 C 0.2659(3) 0.04171(19) 0.04171(19)
C45_5 C 0.1587(3) 0.1207(3) 0.1207(3)
C46_5 C 0.1486(3) 0.1107(4) 0.1486(3)
C47_5 C 0.1647(5) 0.0836(5) 0.1647(5)
H25_5 H 0.1567 0.0645 0.1568
H26_5 H 0.1610 0.0847 0.1865
C48_5 C 0.1815(4) 0.1017(2) 0.1017(2)
H27_5 H 0.1769 0.0869 0.0869
O28_5 O 0.03257(11) 0.03257(11) 0.29175(17)
O29_5 O 0.03236(12) 0.03236(12) 0.23973(19)
O30_5 O 0.11129(16) 0.11129(16) 0.2100(2)
C49_5 C 0.1150(2) 0.1150(2) 0.3197(3)
C50_5 C 0.1006(2) 0.1006(2) 0.2906(3)
C51_5 C 0.0786(2) 0.0786(2) 0.2918(2)
H28_5 H 0.0716 0.0716 0.3108
C52_5 C 0.06669(17) 0.06669(17) 0.2652(3)
C53_5 C 0.0775(2) 0.0775(2) 0.2370(2)
H29_5 H 0.0698 0.0698 0.2185
C54_5 C 0.0999(2) 0.0999(2) 0.2369(3)
C55_5 C 0.11136(16) 0.11136(16) 0.2636(3)
H30_5 H 0.1265 0.1265 0.2633
C56_5 C 0.04171(19) 0.04171(19) 0.2659(3)
C57_5 C 0.1207(3) 0.1207(3) 0.1587(3)
C58_5 C 0.1107(4) 0.1486(3) 0.1486(3)
C59_5 C 0.0836(5) 0.1647(5) 0.1647(5)
H31_5 H 0.0645 0.1568 0.1567
H32_5 H 0.0847 0.1865 0.1610
C60_5 C 0.1017(2) 0.1017(2) 0.1815(4)
H33_5 H 0.0869 0.0869 0.1769
O33_5 O 0.03257(11) 0.29175(17) 0.03257(11)
O34_5 O 0.03236(12) 0.23973(19) 0.03236(12)
O35_5 O 0.11129(16) 0.2100(2) 0.11129(16)
C61_5 C 0.1150(2) 0.3197(3) 0.1150(2)
C62_5 C 0.1006(2) 0.2906(3) 0.1006(2)
C63_5 C 0.0786(2) 0.2918(2) 0.0786(2)
H34_5 H 0.0716 0.3108 0.0716
C64_5 C 0.06669(17) 0.2652(3) 0.06669(17)
C65_5 C 0.0775(2) 0.2370(2) 0.0775(2)
H35_5 H 0.0698 0.2185 0.0698
C66_5 C 0.0999(2) 0.2369(3) 0.0999(2)
C67_5 C 0.11136(16) 0.2636(3) 0.11136(16)
H36_5 H 0.1265 0.2633 0.1265
C68_5 C 0.04171(19) 0.2659(3) 0.04171(19)
C69_5 C 0.1207(3) 0.1587(3) 0.1207(3)
C70_5 C 0.1486(3) 0.1486(3) 0.1107(4)
C71_5 C 0.1647(5) 0.1647(5) 0.0836(5)
H37_5 H 0.1568 0.1567 0.0645
H38_5 H 0.1865 0.1610 0.0847
C72_5 C 0.1017(2) 0.1815(4) 0.1017(2)
H39_5 H 0.0869 0.1769 0.0869
H40_5 H 0.1610 0.1865 0.0847
H41_5 H 0.1865 0.0847 0.1610
H42_5 H 0.0847 0.1610 0.1865
Co24_3 Co 0.0000 0.0000 0.29906(4)
Co27_3 Co 0.0000 0.29906(4) 0.0000
Co32_3 Co 0.0000 0.0000 0.23192(4)
Co35_3 Co 0.0000 0.23192(4) 0.0000
H98_5 H 0.1815 0.119465 0.0839355
H99_25 H 0.119465 0.0839355 0.1815
H100_25 H 0.119465 0.1815 0.0839355
Co3_4 Co 0.29906(4) -0.0000 1.0000
Co4_4 Co 0.23192(4) -0.0000 1.0000
Cl1_4 Cl 0.3450(2) -0.0000 1.0000
O7_4 O 0.1850(3) -0.0000 1.0000
Cl3_3 Cl 0.5000 0.0000 0.8450(2)
O56_3 O 0.5000 0.0000 0.6850(3)
Co25_3 Co 0.0000 0.0000 0.70094(4)
Co27_4 Co 0.0000 0.29906(4) 1.0000
Co33_3 Co 0.0000 0.0000 0.76808(4)
Co35_4 Co 0.0000 0.23192(4) 1.0000
O85_3 O 0.29175(17) 0.03257(11) 0.96743(11)
O93_3 O 0.23973(19) 0.03236(12) 0.96764(12)
Co3_5 Co 0.29906(4) 1.0000 0.0000
Co4_5 Co 0.23192(4) 1.0000 0.0000
Cl1_5 Cl 0.3450(2) 1.0000 0.0000
O7_5 O 0.1850(3) 1.0000 0.0000
Cl2_3 Cl 0.5000 0.8450(2) 0.0000
O40_3 O 0.5000 0.6850(3) 0.0000
Co24_4 Co 0.0000 1.0000 0.29906(4)
Co28_3 Co 0.0000 0.70094(4) 0.0000
Co32_4 Co 0.0000 1.0000 0.23192(4)
Co36_3 Co 0.0000 0.76808(4) 0.0000
O84_3 O 0.29175(17) 0.96743(11) 0.03257(11)
O92_3 O 0.23973(19) 0.96764(12) 0.03236(12)
Co3_6 Co 0.29906(4) 1.0000 1.0000
Co4_6 Co 0.23192(4) 1.0000 1.0000
Cl1_6 Cl 0.3450(2) 1.0000 1.0000
O3_3 O 0.29175(17) 0.96743(11) 0.96743(11)
O4_3 O 0.23973(19) 0.96764(12) 0.96764(12)
O7_6 O 0.1850(3) 1.0000 1.0000
O8_5 O 0.2100(2) 0.88871(16) 0.88871(16)
C1_5 C 0.3197(3) 0.8850(2) 0.8850(2)
C2_5 C 0.2906(3) 0.8994(2) 0.8994(2)
C3_5 C 0.2918(2) 0.9214(2) 0.9214(2)
H1_5 H 0.3108 0.9284 0.9284
C4_5 C 0.2652(3) 0.93331(17) 0.93331(17)
C5_5 C 0.2370(2) 0.9225(2) 0.9225(2)
H2_5 H 0.2185 0.9302 0.9302
C6_5 C 0.2369(3) 0.9001(2) 0.9001(2)
C7_5 C 0.2636(3) 0.88864(16) 0.88864(16)
H3_5 H 0.2633 0.8735 0.8735
C8_5 C 0.2659(3) 0.95829(19) 0.95829(19)
C9_5 C 0.1587(3) 0.8793(3) 0.8793(3)
C10_5 C 0.1486(3) 0.8893(4) 0.8514(3)
C11_5 C 0.1647(5) 0.9164(5) 0.8353(5)
H4_5 H 0.1567 0.9355 0.8432
H5_5 H 0.1610 0.9153 0.8135
C12_5 C 0.1815(4) 0.8983(2) 0.8983(2)
H6_5 H 0.1769 0.9131 0.9131
O11_5 O 0.03257(11) 0.96743(11) 0.70825(17)
O12_5 O 0.03236(12) 0.96764(12) 0.76027(19)
O13_5 O 0.11129(16) 0.88871(16) 0.7900(2)
C13_5 C 0.1150(2) 0.8850(2) 0.6803(3)
C14_5 C 0.1006(2) 0.8994(2) 0.7094(3)
C15_5 C 0.0786(2) 0.9214(2) 0.7082(2)
H7_5 H 0.0716 0.9284 0.6892
C16_5 C 0.06669(17) 0.93331(17) 0.7348(3)
C17_5 C 0.0775(2) 0.9225(2) 0.7630(2)
H8_5 H 0.0698 0.9302 0.7815
C18_5 C 0.0999(2) 0.9001(2) 0.7631(3)
C19_5 C 0.11136(16) 0.88864(16) 0.7364(3)
H9_5 H 0.1265 0.8735 0.7367
C20_5 C 0.04171(19) 0.95829(19) 0.7341(3)
C21_5 C 0.1207(3) 0.8793(3) 0.8413(3)
C22_5 C 0.1107(4) 0.8514(3) 0.8514(3)
C23_5 C 0.0836(5) 0.8353(5) 0.8353(5)
H10_5 H 0.0645 0.8432 0.8433
H11_5 H 0.0847 0.8135 0.8390
C24_5 C 0.1017(2) 0.8983(2) 0.8185(4)
H12_5 H 0.0869 0.9131 0.8231
O16_5 O 0.03257(11) 0.70825(17) 0.96743(11)
O17_5 O 0.03236(12) 0.76027(19) 0.96764(12)
O18_5 O 0.11129(16) 0.7900(2) 0.88871(16)
C25_5 C 0.1150(2) 0.6803(3) 0.8850(2)
C26_5 C 0.1006(2) 0.7094(3) 0.8994(2)
C27_5 C 0.0786(2) 0.7082(2) 0.9214(2)
H13_5 H 0.0716 0.6892 0.9284
C28_5 C 0.06669(17) 0.7348(3) 0.93331(17)
C29_5 C 0.0775(2) 0.7630(2) 0.9225(2)
H14_5 H 0.0698 0.7815 0.9302
C30_5 C 0.0999(2) 0.7631(3) 0.9001(2)
C31_5 C 0.11136(16) 0.7364(3) 0.88864(16)
H15_5 H 0.1265 0.7367 0.8735
C32_5 C 0.04171(19) 0.7341(3) 0.95829(19)
C33_5 C 0.1207(3) 0.8413(3) 0.8793(3)
C34_5 C 0.1486(3) 0.8514(3) 0.8893(4)
C35_5 C 0.1647(5) 0.8353(5) 0.9164(5)
H16_5 H 0.1568 0.8433 0.9355
H17_5 H 0.1865 0.8390 0.9153
C36_5 C 0.1017(2) 0.8185(4) 0.8983(2)
H18_5 H 0.0869 0.8231 0.9131
H19_5 H 0.1610 0.8135 0.9153
H20_5 H 0.1865 0.9153 0.8390
H21_5 H 0.0847 0.8390 0.8135
Cl2_4 Cl 0.5000 0.8450(2) 1.0000
O40_4 O 0.5000 0.6850(3) 1.0000
Cl3_4 Cl 0.5000 1.0000 0.8450(2)
O56_4 O 0.5000 1.0000 0.6850(3)
Co25_4 Co 0.0000 1.0000 0.70094(4)
Co28_4 Co 0.0000 0.70094(4) 1.0000
Co33_4 Co 0.0000 1.0000 0.76808(4)
Co36_4 Co 0.0000 0.76808(4) 1.0000
H89_5 H 0.1815 0.880535 0.916065
H92_9 H 0.0839355 0.880535 0.8185
H97_9 H 0.0839355 0.8185 0.880535
Co24_5 Co 1.0000 0.0000 0.29906(4)
Co27_5 Co 1.0000 0.29906(4) 0.0000
Co32_5 Co 1.0000 0.0000 0.23192(4)
Co35_5 Co 1.0000 0.23192(4) 0.0000
Co25_5 Co 1.0000 0.0000 0.70094(4)
Co27_6 Co 1.0000 0.29906(4) 1.0000
Co33_5 Co 1.0000 0.0000 0.76808(4)
Co35_6 Co 1.0000 0.23192(4) 1.0000
Co24_6 Co 1.0000 1.0000 0.29906(4)
Co28_5 Co 1.0000 0.70094(4) 0.0000
Co32_6 Co 1.0000 1.0000 0.23192(4)
Co36_5 Co 1.0000 0.76808(4) 0.0000
Co25_6 Co 1.0000 1.0000 0.70094(4)
Co28_6 Co 1.0000 0.70094(4) 1.0000
Co33_6 Co 1.0000 1.0000 0.76808(4)
Co36_6 Co 1.0000 0.76808(4) 1.0000
Co3_7 Co 0.70094(4) 0.0000 0.0000
Co4_7 Co 0.76808(4) 0.0000 0.0000
Cl1_7 Cl 0.6550(2) 0.0000 0.0000
O7_7 O 0.8150(3) 0.0000 0.0000
Cl2_5 Cl 0.5000 0.1550(2) 0.0000
O40_5 O 0.5000 0.3150(3) 0.0000
O84_4 O 0.70825(17) 0.03257(11) 0.03257(11)
O92_4 O 0.76027(19) 0.03236(12) 0.03236(12)
Co3_8 Co 0.70094(4) 0.0000 1.0000
Co4_8 Co 0.76808(4) 0.0000 1.0000
Cl1_8 Cl 0.6550(2) 0.0000 1.0000
O3_4 O 0.70825(17) 0.03257(11) 0.96743(11)
O4_4 O 0.76027(19) 0.03236(12) 0.96764(12)
O7_8 O 0.8150(3) 0.0000 1.0000
O8_6 O 0.7900(2) 0.11129(16) 0.88871(16)
C1_6 C 0.6803(3) 0.1150(2) 0.8850(2)
C2_6 C 0.7094(3) 0.1006(2) 0.8994(2)
C3_6 C 0.7082(2) 0.0786(2) 0.9214(2)
H1_6 H 0.6892 0.0716 0.9284
C4_6 C 0.7348(3) 0.06669(17) 0.93331(17)
C5_6 C 0.7630(2) 0.0775(2) 0.9225(2)
H2_6 H 0.7815 0.0698 0.9302
C6_6 C 0.7631(3) 0.0999(2) 0.9001(2)
C7_6 C 0.7364(3) 0.11136(16) 0.88864(16)
H3_6 H 0.7367 0.1265 0.8735
C8_6 C 0.7341(3) 0.04171(19) 0.95829(19)
C9_6 C 0.8413(3) 0.1207(3) 0.8793(3)
C10_6 C 0.8514(3) 0.1107(4) 0.8514(3)
C11_6 C 0.8353(5) 0.0836(5) 0.8353(5)
H4_6 H 0.8433 0.0645 0.8432
H5_6 H 0.8390 0.0847 0.8135
C12_6 C 0.8185(4) 0.1017(2) 0.8983(2)
H6_6 H 0.8231 0.0869 0.9131
O11_6 O 0.96743(11) 0.03257(11) 0.70825(17)
O12_6 O 0.96764(12) 0.03236(12) 0.76027(19)
O13_6 O 0.88871(16) 0.11129(16) 0.7900(2)
C13_6 C 0.8850(2) 0.1150(2) 0.6803(3)
C14_6 C 0.8994(2) 0.1006(2) 0.7094(3)
C15_6 C 0.9214(2) 0.0786(2) 0.7082(2)
H7_6 H 0.9284 0.0716 0.6892
C16_6 C 0.93331(17) 0.06669(17) 0.7348(3)
C17_6 C 0.9225(2) 0.0775(2) 0.7630(2)
H8_6 H 0.9302 0.0698 0.7815
C18_6 C 0.9001(2) 0.0999(2) 0.7631(3)
C19_6 C 0.88864(16) 0.11136(16) 0.7364(3)
H9_6 H 0.8735 0.1265 0.7367
C20_6 C 0.95829(19) 0.04171(19) 0.7341(3)
C21_6 C 0.8793(3) 0.1207(3) 0.8413(3)
C22_6 C 0.8893(4) 0.1486(3) 0.8514(3)
C23_6 C 0.9164(5) 0.1647(5) 0.8353(5)
H10_6 H 0.9355 0.1568 0.8433
H11_6 H 0.9153 0.1865 0.8390
C24_6 C 0.8983(2) 0.1017(2) 0.8185(4)
H12_6 H 0.9131 0.0869 0.8231
O16_6 O 0.96743(11) 0.29175(17) 0.96743(11)
O17_6 O 0.96764(12) 0.23973(19) 0.96764(12)
O18_6 O 0.88871(16) 0.2100(2) 0.88871(16)
C25_6 C 0.8850(2) 0.3197(3) 0.8850(2)
C26_6 C 0.8994(2) 0.2906(3) 0.8994(2)
C27_6 C 0.9214(2) 0.2918(2) 0.9214(2)
H13_6 H 0.9284 0.3108 0.9284
C28_6 C 0.93331(17) 0.2652(3) 0.93331(17)
C29_6 C 0.9225(2) 0.2370(2) 0.9225(2)
H14_6 H 0.9302 0.2185 0.9302
C30_6 C 0.9001(2) 0.2369(3) 0.9001(2)
C31_6 C 0.88864(16) 0.2636(3) 0.88864(16)
H15_6 H 0.8735 0.2633 0.8735
C32_6 C 0.95829(19) 0.2659(3) 0.95829(19)
C33_6 C 0.8793(3) 0.1587(3) 0.8793(3)
C34_6 C 0.8514(3) 0.1486(3) 0.8893(4)
C35_6 C 0.8353(5) 0.1647(5) 0.9164(5)
H16_6 H 0.8432 0.1567 0.9355
H17_6 H 0.8135 0.1610 0.9153
C36_6 C 0.8983(2) 0.1815(4) 0.8983(2)
H18_6 H 0.9131 0.1769 0.9131
H19_6 H 0.8390 0.1865 0.9153
H20_6 H 0.8135 0.0847 0.8390
H21_6 H 0.9153 0.1610 0.8135
Cl2_6 Cl 0.5000 0.1550(2) 1.0000
O40_6 O 0.5000 0.3150(3) 1.0000
H89_6 H 0.8185 0.119465 0.916065
H92_10 H 0.916065 0.119465 0.8185
H97_10 H 0.916065 0.1815 0.880535
Co3_9 Co 0.70094(4) 1.0000 0.0000
Co4_9 Co 0.76808(4) 1.0000 0.0000
Cl1_9 Cl 0.6550(2) 1.0000 0.0000
O7_9 O 0.8150(3) 1.0000 0.0000
O21_4 O 0.70825(17) 0.96743(11) 0.03257(11)
O22_4 O 0.76027(19) 0.96764(12) 0.03236(12)
O25_6 O 0.7900(2) 0.88871(16) 0.11129(16)
C37_6 C 0.6803(3) 0.8850(2) 0.1150(2)
C38_6 C 0.7094(3) 0.8994(2) 0.1006(2)
C39_6 C 0.7082(2) 0.9214(2) 0.0786(2)
H22_6 H 0.6892 0.9284 0.0716
C40_6 C 0.7348(3) 0.93331(17) 0.06669(17)
C41_6 C 0.7630(2) 0.9225(2) 0.0775(2)
H23_6 H 0.7815 0.9302 0.0698
C42_6 C 0.7631(3) 0.9001(2) 0.0999(2)
C43_6 C 0.7364(3) 0.88864(16) 0.11136(16)
H24_6 H 0.7367 0.8735 0.1265
C44_6 C 0.7341(3) 0.95829(19) 0.04171(19)
C45_6 C 0.8413(3) 0.8793(3) 0.1207(3)
C46_6 C 0.8514(3) 0.8893(4) 0.1486(3)
C47_6 C 0.8353(5) 0.9164(5) 0.1647(5)
H25_6 H 0.8433 0.9355 0.1568
H26_6 H 0.8390 0.9153 0.1865
C48_6 C 0.8185(4) 0.8983(2) 0.1017(2)
H27_6 H 0.8231 0.9131 0.0869
O28_6 O 0.96743(11) 0.96743(11) 0.29175(17)
O29_6 O 0.96764(12) 0.96764(12) 0.23973(19)
O30_6 O 0.88871(16) 0.88871(16) 0.2100(2)
C49_6 C 0.8850(2) 0.8850(2) 0.3197(3)
C50_6 C 0.8994(2) 0.8994(2) 0.2906(3)
C51_6 C 0.9214(2) 0.9214(2) 0.2918(2)
H28_6 H 0.9284 0.9284 0.3108
C52_6 C 0.93331(17) 0.93331(17) 0.2652(3)
C53_6 C 0.9225(2) 0.9225(2) 0.2370(2)
H29_6 H 0.9302 0.9302 0.2185
C54_6 C 0.9001(2) 0.9001(2) 0.2369(3)
C55_6 C 0.88864(16) 0.88864(16) 0.2636(3)
H30_6 H 0.8735 0.8735 0.2633
C56_6 C 0.95829(19) 0.95829(19) 0.2659(3)
C57_6 C 0.8793(3) 0.8793(3) 0.1587(3)
C58_6 C 0.8893(4) 0.8514(3) 0.1486(3)
C59_6 C 0.9164(5) 0.8353(5) 0.1647(5)
H31_6 H 0.9355 0.8432 0.1567
H32_6 H 0.9153 0.8135 0.1610
C60_6 C 0.8983(2) 0.8983(2) 0.1815(4)
H33_6 H 0.9131 0.9131 0.1769
O33_6 O 0.96743(11) 0.70825(17) 0.03257(11)
O34_6 O 0.96764(12) 0.76027(19) 0.03236(12)
O35_6 O 0.88871(16) 0.7900(2) 0.11129(16)
C61_6 C 0.8850(2) 0.6803(3) 0.1150(2)
C62_6 C 0.8994(2) 0.7094(3) 0.1006(2)
C63_6 C 0.9214(2) 0.7082(2) 0.0786(2)
H34_6 H 0.9284 0.6892 0.0716
C64_6 C 0.93331(17) 0.7348(3) 0.06669(17)
C65_6 C 0.9225(2) 0.7630(2) 0.0775(2)
H35_6 H 0.9302 0.7815 0.0698
C66_6 C 0.9001(2) 0.7631(3) 0.0999(2)
C67_6 C 0.88864(16) 0.7364(3) 0.11136(16)
H36_6 H 0.8735 0.7367 0.1265
C68_6 C 0.95829(19) 0.7341(3) 0.04171(19)
C69_6 C 0.8793(3) 0.8413(3) 0.1207(3)
C70_6 C 0.8514(3) 0.8514(3) 0.1107(4)
C71_6 C 0.8353(5) 0.8353(5) 0.0836(5)
H37_6 H 0.8432 0.8433 0.0645
H38_6 H 0.8135 0.8390 0.0847
C72_6 C 0.8983(2) 0.8185(4) 0.1017(2)
H39_6 H 0.9131 0.8231 0.0869
H40_6 H 0.8390 0.8135 0.0847
H41_6 H 0.8135 0.9153 0.1610
H42_6 H 0.9153 0.8390 0.1865
H98_6 H 0.8185 0.880535 0.0839355
H99_26 H 0.880535 0.916065 0.1815
H100_26 H 0.880535 0.8185 0.0839355
Co3_10 Co 0.70094(4) 1.0000 1.0000
Co4_10 Co 0.76808(4) 1.0000 1.0000
Cl1_10 Cl 0.6550(2) 1.0000 1.0000
O7_10 O 0.8150(3) 1.0000 1.0000
O85_4 O 0.70825(17) 0.96743(11) 0.96743(11)
O93_4 O 0.76027(19) 0.96764(12) 0.96764(12)
Cl3_5 Cl 0.5000 0.0000 0.1550(2)
O56_5 O 0.5000 0.0000 0.3150(3)
H99_27 H 0.880535 0.0839355 0.8185
H100_27 H 0.880535 0.1815 0.916065
Cl3_6 Cl 0.5000 1.0000 0.1550(2)
O56_6 O 0.5000 1.0000 0.3150(3)
H92_11 H 0.916065 0.880535 0.1815
H97_11 H 0.916065 0.8185 0.119465
H92_12 H 0.0839355 0.119465 0.1815
H97_12 H 0.0839355 0.1815 0.119465
H99_28 H 0.119465 0.916065 0.8185
H100_28 H 0.119465 0.8185 0.916065
H108_25 H 0.1815 0.916065 0.880535
H108_26 H 0.1815 0.0839355 0.119465
H108_27 H 0.8185 0.0839355 0.880535
H108_28 H 0.8185 0.916065 0.119465
O41_9 O 0.2100(2) 0.88871(16) 0.11129(16)
C73_9 C 0.3197(3) 0.8850(2) 0.1150(2)
C74_9 C 0.2906(3) 0.8994(2) 0.1006(2)
C75_9 C 0.2918(2) 0.9214(2) 0.0786(2)
H43_9 H 0.3108 0.9284 0.0716
C76_9 C 0.2652(3) 0.93331(17) 0.06669(17)
C77_9 C 0.2370(2) 0.9225(2) 0.0775(2)
H44_9 H 0.2185 0.9302 0.0698
C78_9 C 0.2369(3) 0.9001(2) 0.0999(2)
C79_9 C 0.2636(3) 0.88864(16) 0.11136(16)
H45_9 H 0.2633 0.8735 0.1265
C80_9 C 0.2659(3) 0.95829(19) 0.04171(19)
C81_9 C 0.1587(3) 0.8793(3) 0.1207(3)
C82_9 C 0.1486(3) 0.8514(3) 0.1107(4)
C83_9 C 0.1647(5) 0.8353(5) 0.0836(5)
H46_9 H 0.1567 0.8432 0.0645
H47_9 H 0.1610 0.8135 0.0847
C84_9 C 0.1815(4) 0.8983(2) 0.1017(2)
H48_9 H 0.1769 0.9131 0.0869
O44_9 O 0.03257(11) 0.70825(17) 0.03257(11)
O45_9 O 0.03236(12) 0.76027(19) 0.03236(12)
O46_9 O 0.11129(16) 0.7900(2) 0.11129(16)
C85_9 C 0.1150(2) 0.6803(3) 0.1150(2)
C86_9 C 0.1006(2) 0.7094(3) 0.1006(2)
C87_9 C 0.0786(2) 0.7082(2) 0.0786(2)
H49_9 H 0.0716 0.6892 0.0716
C88_9 C 0.06669(17) 0.7348(3) 0.06669(17)
C89_9 C 0.0775(2) 0.7630(2) 0.0775(2)
H50_9 H 0.0698 0.7815 0.0698
C90_9 C 0.0999(2) 0.7631(3) 0.0999(2)
C91_9 C 0.11136(16) 0.7364(3) 0.11136(16)
H51_9 H 0.1265 0.7367 0.1265
C92_9 C 0.04171(19) 0.7341(3) 0.04171(19)
C93_9 C 0.1207(3) 0.8413(3) 0.1207(3)
C94_9 C 0.1107(4) 0.8514(3) 0.1486(3)
C95_9 C 0.0836(5) 0.8353(5) 0.1647(5)
H52_9 H 0.0645 0.8433 0.1568
H53_9 H 0.0847 0.8390 0.1865
C96_9 C 0.1017(2) 0.8185(4) 0.1017(2)
H54_9 H 0.0869 0.8231 0.0869
O49_9 O 0.03257(11) 0.96743(11) 0.29175(17)
O50_9 O 0.03236(12) 0.96764(12) 0.23973(19)
O51_9 O 0.11129(16) 0.88871(16) 0.2100(2)
C97_9 C 0.1150(2) 0.8850(2) 0.3197(3)
C98_9 C 0.1006(2) 0.8994(2) 0.2906(3)
C99_9 C 0.0786(2) 0.9214(2) 0.2918(2)
H55_9 H 0.0716 0.9284 0.3108
C100_9 C 0.06669(17) 0.93331(17) 0.2652(3)
C101_9 C 0.0775(2) 0.9225(2) 0.2370(2)
H56_9 H 0.0698 0.9302 0.2185
C102_9 C 0.0999(2) 0.9001(2) 0.2369(3)
C103_9 C 0.11136(16) 0.88864(16) 0.2636(3)
H57_9 H 0.1265 0.8735 0.2633
C104_9 C 0.04171(19) 0.95829(19) 0.2659(3)
C105_9 C 0.1207(3) 0.8793(3) 0.1587(3)
C106_9 C 0.1486(3) 0.8893(4) 0.1486(3)
C107_9 C 0.1647(5) 0.9164(5) 0.1647(5)
H58_9 H 0.1568 0.9355 0.1567
H59_9 H 0.1865 0.9153 0.1610
C108_9 C 0.1017(2) 0.8983(2) 0.1815(4)
H60_9 H 0.0869 0.9131 0.1769
H61_9 H 0.1610 0.9153 0.1865
H62_9 H 0.1865 0.8390 0.0847
H63_9 H 0.0847 0.8135 0.1610
H103_17 H 0.1815 0.916065 0.119465
H104_9 H 0.0839355 0.8185 0.119465
H105_9 H 0.0839355 0.880535 0.1815
O41_10 O 0.7900(2) 0.11129(16) 0.11129(16)
C73_10 C 0.6803(3) 0.1150(2) 0.1150(2)
C74_10 C 0.7094(3) 0.1006(2) 0.1006(2)
C75_10 C 0.7082(2) 0.0786(2) 0.0786(2)
H43_10 H 0.6892 0.0716 0.0716
C76_10 C 0.7348(3) 0.06669(17) 0.06669(17)
C77_10 C 0.7630(2) 0.0775(2) 0.0775(2)
H44_10 H 0.7815 0.0698 0.0698
C78_10 C 0.7631(3) 0.0999(2) 0.0999(2)
C79_10 C 0.7364(3) 0.11136(16) 0.11136(16)
H45_10 H 0.7367 0.1265 0.1265
C80_10 C 0.7341(3) 0.04171(19) 0.04171(19)
C81_10 C 0.8413(3) 0.1207(3) 0.1207(3)
C82_10 C 0.8514(3) 0.1486(3) 0.1107(4)
C83_10 C 0.8353(5) 0.1647(5) 0.0836(5)
H46_10 H 0.8433 0.1568 0.0645
H47_10 H 0.8390 0.1865 0.0847
C84_10 C 0.8185(4) 0.1017(2) 0.1017(2)
H48_10 H 0.8231 0.0869 0.0869
O44_10 O 0.96743(11) 0.29175(17) 0.03257(11)
O45_10 O 0.96764(12) 0.23973(19) 0.03236(12)
O46_10 O 0.88871(16) 0.2100(2) 0.11129(16)
C85_10 C 0.8850(2) 0.3197(3) 0.1150(2)
C86_10 C 0.8994(2) 0.2906(3) 0.1006(2)
C87_10 C 0.9214(2) 0.2918(2) 0.0786(2)
H49_10 H 0.9284 0.3108 0.0716
C88_10 C 0.93331(17) 0.2652(3) 0.06669(17)
C89_10 C 0.9225(2) 0.2370(2) 0.0775(2)
H50_10 H 0.9302 0.2185 0.0698
C90_10 C 0.9001(2) 0.2369(3) 0.0999(2)
C91_10 C 0.88864(16) 0.2636(3) 0.11136(16)
H51_10 H 0.8735 0.2633 0.1265
C92_10 C 0.95829(19) 0.2659(3) 0.04171(19)
C93_10 C 0.8793(3) 0.1587(3) 0.1207(3)
C94_10 C 0.8893(4) 0.1486(3) 0.1486(3)
C95_10 C 0.9164(5) 0.1647(5) 0.1647(5)
H52_10 H 0.9355 0.1567 0.1568
H53_10 H 0.9153 0.1610 0.1865
C96_10 C 0.8983(2) 0.1815(4) 0.1017(2)
H54_10 H 0.9131 0.1769 0.0869
O49_10 O 0.96743(11) 0.03257(11) 0.29175(17)
O50_10 O 0.96764(12) 0.03236(12) 0.23973(19)
O51_10 O 0.88871(16) 0.11129(16) 0.2100(2)
C97_10 C 0.8850(2) 0.1150(2) 0.3197(3)
C98_10 C 0.8994(2) 0.1006(2) 0.2906(3)
C99_10 C 0.9214(2) 0.0786(2) 0.2918(2)
H55_10 H 0.9284 0.0716 0.3108
C100_10 C 0.93331(17) 0.06669(17) 0.2652(3)
C101_10 C 0.9225(2) 0.0775(2) 0.2370(2)
H56_10 H 0.9302 0.0698 0.2185
C102_10 C 0.9001(2) 0.0999(2) 0.2369(3)
C103_10 C 0.88864(16) 0.11136(16) 0.2636(3)
H57_10 H 0.8735 0.1265 0.2633
C104_10 C 0.95829(19) 0.04171(19) 0.2659(3)
C105_10 C 0.8793(3) 0.1207(3) 0.1587(3)
C106_10 C 0.8514(3) 0.1107(4) 0.1486(3)
C107_10 C 0.8353(5) 0.0836(5) 0.1647(5)
H58_10 H 0.8432 0.0645 0.1567
H59_10 H 0.8135 0.0847 0.1610
C108_10 C 0.8983(2) 0.1017(2) 0.1815(4)
H60_10 H 0.9131 0.0869 0.1769
H61_10 H 0.8390 0.0847 0.1865
H62_10 H 0.8135 0.1610 0.0847
H63_10 H 0.9153 0.1865 0.1610
H103_18 H 0.8185 0.0839355 0.119465
H104_10 H 0.916065 0.1815 0.119465
H105_10 H 0.916065 0.119465 0.1815
O41_11 O 0.2100(2) 0.11129(16) 0.88871(16)
C73_11 C 0.3197(3) 0.1150(2) 0.8850(2)
C74_11 C 0.2906(3) 0.1006(2) 0.8994(2)
C75_11 C 0.2918(2) 0.0786(2) 0.9214(2)
H43_11 H 0.3108 0.0716 0.9284
C76_11 C 0.2652(3) 0.06669(17) 0.93331(17)
C77_11 C 0.2370(2) 0.0775(2) 0.9225(2)
H44_11 H 0.2185 0.0698 0.9302
C78_11 C 0.2369(3) 0.0999(2) 0.9001(2)
C79_11 C 0.2636(3) 0.11136(16) 0.88864(16)
H45_11 H 0.2633 0.1265 0.8735
C80_11 C 0.2659(3) 0.04171(19) 0.95829(19)
C81_11 C 0.1587(3) 0.1207(3) 0.8793(3)
C82_11 C 0.1486(3) 0.1486(3) 0.8893(4)
C83_11 C 0.1647(5) 0.1647(5) 0.9164(5)
H46_11 H 0.1567 0.1568 0.9355
H47_11 H 0.1610 0.1865 0.9153
C84_11 C 0.1815(4) 0.1017(2) 0.8983(2)
H48_11 H 0.1769 0.0869 0.9131
O44_11 O 0.03257(11) 0.29175(17) 0.96743(11)
O45_11 O 0.03236(12) 0.23973(19) 0.96764(12)
O46_11 O 0.11129(16) 0.2100(2) 0.88871(16)
C85_11 C 0.1150(2) 0.3197(3) 0.8850(2)
C86_11 C 0.1006(2) 0.2906(3) 0.8994(2)
C87_11 C 0.0786(2) 0.2918(2) 0.9214(2)
H49_11 H 0.0716 0.3108 0.9284
C88_11 C 0.06669(17) 0.2652(3) 0.93331(17)
C89_11 C 0.0775(2) 0.2370(2) 0.9225(2)
H50_11 H 0.0698 0.2185 0.9302
C90_11 C 0.0999(2) 0.2369(3) 0.9001(2)
C91_11 C 0.11136(16) 0.2636(3) 0.88864(16)
H51_11 H 0.1265 0.2633 0.8735
C92_11 C 0.04171(19) 0.2659(3) 0.95829(19)
C93_11 C 0.1207(3) 0.1587(3) 0.8793(3)
C94_11 C 0.1107(4) 0.1486(3) 0.8514(3)
C95_11 C 0.0836(5) 0.1647(5) 0.8353(5)
H52_11 H 0.0645 0.1567 0.8432
H53_11 H 0.0847 0.1610 0.8135
C96_11 C 0.1017(2) 0.1815(4) 0.8983(2)
H54_11 H 0.0869 0.1769 0.9131
O49_11 O 0.03257(11) 0.03257(11) 0.70825(17)
O50_11 O 0.03236(12) 0.03236(12) 0.76027(19)
O51_11 O 0.11129(16) 0.11129(16) 0.7900(2)
C97_11 C 0.1150(2) 0.1150(2) 0.6803(3)
C98_11 C 0.1006(2) 0.1006(2) 0.7094(3)
C99_11 C 0.0786(2) 0.0786(2) 0.7082(2)
H55_11 H 0.0716 0.0716 0.6892
C100_11 C 0.06669(17) 0.06669(17) 0.7348(3)
C101_11 C 0.0775(2) 0.0775(2) 0.7630(2)
H56_11 H 0.0698 0.0698 0.7815
C102_11 C 0.0999(2) 0.0999(2) 0.7631(3)
C103_11 C 0.11136(16) 0.11136(16) 0.7364(3)
H57_11 H 0.1265 0.1265 0.7367
C104_11 C 0.04171(19) 0.04171(19) 0.7341(3)
C105_11 C 0.1207(3) 0.1207(3) 0.8413(3)
C106_11 C 0.1486(3) 0.1107(4) 0.8514(3)
C107_11 C 0.1647(5) 0.0836(5) 0.8353(5)
H58_11 H 0.1568 0.0645 0.8433
H59_11 H 0.1865 0.0847 0.8390
C108_11 C 0.1017(2) 0.1017(2) 0.8185(4)
H60_11 H 0.0869 0.0869 0.8231
H61_11 H 0.1610 0.0847 0.8135
H62_11 H 0.1865 0.1610 0.9153
H63_11 H 0.0847 0.1865 0.8390
H103_19 H 0.1815 0.0839355 0.880535
H104_11 H 0.0839355 0.1815 0.880535
H105_11 H 0.0839355 0.119465 0.8185
O41_12 O 0.7900(2) 0.88871(16) 0.88871(16)
C73_12 C 0.6803(3) 0.8850(2) 0.8850(2)
C74_12 C 0.7094(3) 0.8994(2) 0.8994(2)
C75_12 C 0.7082(2) 0.9214(2) 0.9214(2)
H43_12 H 0.6892 0.9284 0.9284
C76_12 C 0.7348(3) 0.93331(17) 0.93331(17)
C77_12 C 0.7630(2) 0.9225(2) 0.9225(2)
H44_12 H 0.7815 0.9302 0.9302
C78_12 C 0.7631(3) 0.9001(2) 0.9001(2)
C79_12 C 0.7364(3) 0.88864(16) 0.88864(16)
H45_12 H 0.7367 0.8735 0.8735
C80_12 C 0.7341(3) 0.95829(19) 0.95829(19)
C81_12 C 0.8413(3) 0.8793(3) 0.8793(3)
C82_12 C 0.8514(3) 0.8514(3) 0.8893(4)
C83_12 C 0.8353(5) 0.8353(5) 0.9164(5)
H46_12 H 0.8433 0.8432 0.9355
H47_12 H 0.8390 0.8135 0.9153
C84_12 C 0.8185(4) 0.8983(2) 0.8983(2)
H48_12 H 0.8231 0.9131 0.9131
O44_12 O 0.96743(11) 0.70825(17) 0.96743(11)
O45_12 O 0.96764(12) 0.76027(19) 0.96764(12)
O46_12 O 0.88871(16) 0.7900(2) 0.88871(16)
C85_12 C 0.8850(2) 0.6803(3) 0.8850(2)
C86_12 C 0.8994(2) 0.7094(3) 0.8994(2)
C87_12 C 0.9214(2) 0.7082(2) 0.9214(2)
H49_12 H 0.9284 0.6892 0.9284
C88_12 C 0.93331(17) 0.7348(3) 0.93331(17)
C89_12 C 0.9225(2) 0.7630(2) 0.9225(2)
H50_12 H 0.9302 0.7815 0.9302
C90_12 C 0.9001(2) 0.7631(3) 0.9001(2)
C91_12 C 0.88864(16) 0.7364(3) 0.88864(16)
H51_12 H 0.8735 0.7367 0.8735
C92_12 C 0.95829(19) 0.7341(3) 0.95829(19)
C93_12 C 0.8793(3) 0.8413(3) 0.8793(3)
C94_12 C 0.8893(4) 0.8514(3) 0.8514(3)
C95_12 C 0.9164(5) 0.8353(5) 0.8353(5)
H52_12 H 0.9355 0.8433 0.8432
H53_12 H 0.9153 0.8390 0.8135
C96_12 C 0.8983(2) 0.8185(4) 0.8983(2)
H54_12 H 0.9131 0.8231 0.9131
O49_12 O 0.96743(11) 0.96743(11) 0.70825(17)
O50_12 O 0.96764(12) 0.96764(12) 0.76027(19)
O51_12 O 0.88871(16) 0.88871(16) 0.7900(2)
C97_12 C 0.8850(2) 0.8850(2) 0.6803(3)
C98_12 C 0.8994(2) 0.8994(2) 0.7094(3)
C99_12 C 0.9214(2) 0.9214(2) 0.7082(2)
H55_12 H 0.9284 0.9284 0.6892
C100_12 C 0.93331(17) 0.93331(17) 0.7348(3)
C101_12 C 0.9225(2) 0.9225(2) 0.7630(2)
H56_12 H 0.9302 0.9302 0.7815
C102_12 C 0.9001(2) 0.9001(2) 0.7631(3)
C103_12 C 0.88864(16) 0.88864(16) 0.7364(3)
H57_12 H 0.8735 0.8735 0.7367
C104_12 C 0.95829(19) 0.95829(19) 0.7341(3)
C105_12 C 0.8793(3) 0.8793(3) 0.8413(3)
C106_12 C 0.8514(3) 0.8893(4) 0.8514(3)
C107_12 C 0.8353(5) 0.9164(5) 0.8353(5)
H58_12 H 0.8432 0.9355 0.8433
H59_12 H 0.8135 0.9153 0.8390
C108_12 C 0.8983(2) 0.8983(2) 0.8185(4)
H60_12 H 0.9131 0.9131 0.8231
H61_12 H 0.8390 0.9153 0.8135
H62_12 H 0.8135 0.8390 0.9153
H63_12 H 0.9153 0.8135 0.8390
H103_20 H 0.8185 0.916065 0.880535
H104_12 H 0.916065 0.8185 0.880535
H105_12 H 0.916065 0.880535 0.8185
H99_29 H 0.119465 0.1815 0.916065
H100_29 H 0.119465 0.0839355 0.8185
H99_30 H 0.880535 0.1815 0.0839355
H100_30 H 0.880535 0.0839355 0.1815
H99_31 H 0.880535 0.8185 0.916065
H100_31 H 0.880535 0.916065 0.8185
H99_32 H 0.119465 0.8185 0.0839355
H100_32 H 0.119465 0.916065 0.1815
H108_29 H 0.1815 0.880535 0.0839355
H108_30 H 0.1815 0.119465 0.916065
H108_31 H 0.8185 0.880535 0.916065
H108_32 H 0.8185 0.119465 0.0839355
Cl2_7 Cl -0.0000 0.3450(2) 0.0000
O40_7 O -0.0000 0.1850(3) 0.0000
Cl2_8 Cl -0.0000 0.3450(2) 1.0000
O40_8 O -0.0000 0.1850(3) 1.0000
Cl3_7 Cl -0.0000 0.5000 0.8450(2)
O56_7 O -0.0000 0.5000 0.6850(3)
Cl1_11 Cl 0.8450(2) 0.5000 0.0000
O7_11 O 0.6850(3) 0.5000 0.0000
Cl2_9 Cl 1.0000 0.3450(2) 0.0000
O40_9 O 1.0000 0.1850(3) 0.0000
Cl1_12 Cl 0.8450(2) 0.5000 1.0000
O7_12 O 0.6850(3) 0.5000 1.0000
Cl2_10 Cl 1.0000 0.3450(2) 1.0000
O40_10 O 1.0000 0.1850(3) 1.0000
Cl3_8 Cl 1.0000 0.5000 0.8450(2)
O56_8 O 1.0000 0.5000 0.6850(3)
Cl1_13 Cl 0.1550(2) 0.5000 0.0000
O7_13 O 0.3150(3) 0.5000 0.0000
Cl2_11 Cl 0.0000 0.6550(2) 0.0000
O40_11 O 0.0000 0.8150(3) 0.0000
Cl1_14 Cl 0.1550(2) 0.5000 1.0000
O7_14 O 0.3150(3) 0.5000 1.0000
Cl2_12 Cl 0.0000 0.6550(2) 1.0000
O40_12 O 0.0000 0.8150(3) 1.0000
Cl2_13 Cl 1.0000 0.6550(2) 0.0000
O40_13 O 1.0000 0.8150(3) 0.0000
Cl2_14 Cl 1.0000 0.6550(2) 1.0000
O40_14 O 1.0000 0.8150(3) 1.0000
Cl3_9 Cl 0.0000 0.5000 0.1550(2)
O56_9 O 0.0000 0.5000 0.3150(3)
Cl3_10 Cl 1.0000 0.5000 0.1550(2)
O56_10 O 1.0000 0.5000 0.3150(3)
Cl3_11 Cl -0.0000 0.0000 0.3450(2)
O56_11 O -0.0000 0.0000 0.1850(3)
Cl2_15 Cl -0.0000 0.8450(2) 0.5000
O40_15 O -0.0000 0.6850(3) 0.5000
Cl3_12 Cl -0.0000 1.0000 0.3450(2)
O56_12 O -0.0000 1.0000 0.1850(3)
Cl1_15 Cl 0.8450(2) -0.0000 0.5000
O7_15 O 0.6850(3) -0.0000 0.5000
Cl3_13 Cl 1.0000 0.0000 0.3450(2)
O56_13 O 1.0000 0.0000 0.1850(3)
Cl1_16 Cl 0.8450(2) 1.0000 0.5000
O7_16 O 0.6850(3) 1.0000 0.5000
Cl2_16 Cl 1.0000 0.8450(2) 0.5000
O40_16 O 1.0000 0.6850(3) 0.5000
Cl3_14 Cl 1.0000 1.0000 0.3450(2)
O56_14 O 1.0000 1.0000 0.1850(3)
Cl1_17 Cl 0.1550(2) 0.0000 0.5000
O7_17 O 0.3150(3) 0.0000 0.5000
Cl2_17 Cl 0.0000 0.1550(2) 0.5000
O40_17 O 0.0000 0.3150(3) 0.5000
Cl1_18 Cl 0.1550(2) 1.0000 0.5000
O7_18 O 0.3150(3) 1.0000 0.5000
Cl2_18 Cl 1.0000 0.1550(2) 0.5000
O40_18 O 1.0000 0.3150(3) 0.5000
Cl3_15 Cl 0.0000 0.0000 0.6550(2)
O56_15 O 0.0000 0.0000 0.8150(3)
Cl3_16 Cl 0.0000 1.0000 0.6550(2)
O56_16 O 0.0000 1.0000 0.8150(3)
Cl3_17 Cl 1.0000 0.0000 0.6550(2)
O56_17 O 1.0000 0.0000 0.8150(3)
Cl3_18 Cl 1.0000 1.0000 0.6550(2)
O56_18 O 1.0000 1.0000 0.8150(3)
loop_
_geom_bond_atom_site_label_1
_geom_bond_atom_site_label_2
_geom_bond_site_symmetry_1
_geom_bond_site_symmetry_2
Co1 O1 1_555 1_555
Co2 O2 1_555 1_555
Co3 Cl1 1_555 1_555
Co4 O4 1_555 1_555
O1 C1 1_555 1_555
O2 C1 1_555 1_555
O3 Co3 1_555 1_555
O4 C8 1_555 1_555
O5 Co2 1_555 1_555
O6 Co1 1_555 1_555
O7 Co4 1_555 1_555
O8 C6 1_555 1_555
C1 C2 1_555 1_555
C2 C3 1_555 1_555
C3 H1 1_555 1_555
C4 C3 1_555 1_555
C5 C4 1_555 1_555
H2 C5 1_555 1_555
C6 C5 1_555 1_555
C7 C2 1_555 1_555
H3 C7 1_555 1_555
C8 O3 1_555 1_555
C9 C10 1_555 1_555
C10 C11 1_555 1_555
C11 H4 1_555 1_555
H5 C11 1_555 1_555
C12 O8 1_555 1_555
H6 C12 1_555 1_555
O9 C13 1_555 1_555
O10 C13 1_555 1_555
O11 C20 1_555 1_555
O12 C20 1_555 1_555
O13 C18 1_555 1_555
C13 C14 1_555 1_555
C14 C15 1_555 1_555
C15 H7 1_555 1_555
C16 C15 1_555 1_555
C17 C16 1_555 1_555
H8 C17 1_555 1_555
C18 C17 1_555 1_555
C19 C14 1_555 1_555
H9 C19 1_555 1_555
C20 C16 1_555 1_555
C21 C10 1_555 1_555
C22 C21 1_555 1_555
C23 C22 1_555 1_555
H10 C23 1_555 1_555
H11 C23 1_555 1_555
C24 O13 1_555 1_555
H12 C24 1_555 1_555
O14 C25 1_555 1_555
O15 C25 1_555 1_555
O16 C32 1_555 1_555
O17 C32 1_555 1_555
O18 C30 1_555 1_555
C25 C26 1_555 1_555
C26 C27 1_555 1_555
C27 H13 1_555 1_555
C28 C27 1_555 1_555
C29 C28 1_555 1_555
H14 C29 1_555 1_555
C30 C29 1_555 1_555
C31 C26 1_555 1_555
H15 C31 1_555 1_555
C32 C28 1_555 1_555
C33 C22 1_555 1_555
C34 C9 1_555 1_555
C35 C34 1_555 1_555
H16 C35 1_555 1_555
H17 C35 1_555 1_555
C36 O18 1_555 1_555
H18 C36 1_555 1_555
H19 C35 1_555 1_555
H20 C11 1_555 1_555
H21 C23 1_555 1_555
Co5 O19 1_555 1_555
Co6 O20 1_555 1_555
O19 C37 1_555 1_555
O20 C37 1_555 1_555
O21 Co3 1_555 1_555
O22 Co4 1_555 1_555
O23 Co6 1_555 1_555
O24 Co5 1_555 1_555
O25 C42 1_555 1_555
C37 C38 1_555 1_555
C38 C39 1_555 1_555
C39 H22 1_555 1_555
C40 C39 1_555 1_555
C41 C40 1_555 1_555
H23 C41 1_555 1_555
C42 C41 1_555 1_555
C43 C38 1_555 1_555
H24 C43 1_555 1_555
C44 O21 1_555 1_555
C45 C46 1_555 1_555
C46 C47 1_555 1_555
C47 H25 1_555 1_555
H26 C47 1_555 1_555
C48 O25 1_555 1_555
H27 C48 1_555 1_555
O26 C49 1_555 1_555
O27 C49 1_555 1_555
O28 C56 1_555 1_555
O29 C56 1_555 1_555
O30 C54 1_555 1_555
C49 C50 1_555 1_555
C50 C51 1_555 1_555
C51 H28 1_555 1_555
C52 C51 1_555 1_555
C53 C52 1_555 1_555
H29 C53 1_555 1_555
C54 C53 1_555 1_555
C55 C50 1_555 1_555
H30 C55 1_555 1_555
C56 C52 1_555 1_555
C57 C46 1_555 1_555
C58 C57 1_555 1_555
C59 C58 1_555 1_555
H31 C59 1_555 1_555
H32 C59 1_555 1_555
C60 O30 1_555 1_555
H33 C60 1_555 1_555
O31 C61 1_555 1_555
O32 C61 1_555 1_555
O33 C68 1_555 1_555
O34 C68 1_555 1_555
O35 C66 1_555 1_555
C61 C62 1_555 1_555
C62 C63 1_555 1_555
C63 H34 1_555 1_555
C64 C63 1_555 1_555
C65 C64 1_555 1_555
H35 C65 1_555 1_555
C66 C65 1_555 1_555
C67 C62 1_555 1_555
H36 C67 1_555 1_555
C68 C64 1_555 1_555
C69 C58 1_555 1_555
C70 C45 1_555 1_555
C71 C70 1_555 1_555
H37 C71 1_555 1_555
H38 C71 1_555 1_555
C72 O35 1_555 1_555
H39 C72 1_555 1_555
H40 C71 1_555 1_555
H41 C47 1_555 1_555
H42 C59 1_555 1_555
Co7 Cl2 1_555 1_555
Co8 O39 1_555 1_555
O36 Co1 1_555 1_555
O37 Co2 1_555 1_555
O38 Co7 1_555 1_555
O39 C80 1_555 1_555
O40 Co8 1_555 1_555
O41 C78 1_555 1_555
C73 O36 1_555 1_555
C74 C73 1_555 1_555
C75 C74 1_555 1_555
H43 C75 1_555 1_555
C76 C75 1_555 1_555
C77 C76 1_555 1_555
H44 C77 1_555 1_555
C78 C77 1_555 1_555
C79 C74 1_555 1_555
H45 C79 1_555 1_555
C80 O38 1_555 1_555
C81 C82 1_555 1_555
C82 C83 1_555 1_555
C83 H46 1_555 1_555
H47 C83 1_555 1_555
C84 O41 1_555 1_555
H48 C84 1_555 1_555
O42 C85 1_555 1_555
O43 C85 1_555 1_555
O44 C92 1_555 1_555
O45 C92 1_555 1_555
O46 C90 1_555 1_555
C85 C86 1_555 1_555
C86 C87 1_555 1_555
C87 H49 1_555 1_555
C88 C87 1_555 1_555
C89 C88 1_555 1_555
H50 C89 1_555 1_555
C90 C89 1_555 1_555
C91 C86 1_555 1_555
H51 C91 1_555 1_555
C92 C88 1_555 1_555
C93 C82 1_555 1_555
C94 C93 1_555 1_555
C95 C94 1_555 1_555
H52 C95 1_555 1_555
H53 C95 1_555 1_555
C96 O46 1_555 1_555
H54 C96 1_555 1_555
O47 C97 1_555 1_555
O48 C97 1_555 1_555
O49 C104 1_555 1_555
O50 C104 1_555 1_555
O51 C102 1_555 1_555
C97 C98 1_555 1_555
C98 C99 1_555 1_555
C99 H55 1_555 1_555
C100 C99 1_555 1_555
C101 C100 1_555 1_555
H56 C101 1_555 1_555
C102 C101 1_555 1_555
C103 C98 1_555 1_555
H57 C103 1_555 1_555
C104 C100 1_555 1_555
C105 C94 1_555 1_555
C106 C81 1_555 1_555
C107 C106 1_555 1_555
H58 C107 1_555 1_555
H59 C107 1_555 1_555
C108 O51 1_555 1_555
H60 C108 1_555 1_555
H61 C107 1_555 1_555
H62 C83 1_555 1_555
H63 C95 1_555 1_555
Co9 Cl3 1_555 1_555
Co10 O55 1_555 1_555
O52 Co1 1_555 1_555
O53 Co2 1_555 1_555
O54 Co9 1_555 1_555
O55 C116 1_555 1_555
O56 Co10 1_555 1_555
O57 C114 1_555 1_555
C109 O52 1_555 1_555
C110 C109 1_555 1_555
C111 C110 1_555 1_555
H64 C111 1_555 1_555
C112 C111 1_555 1_555
C113 C112 1_555 1_555
H65 C113 1_555 1_555
C114 C113 1_555 1_555
C115 C110 1_555 1_555
H66 C115 1_555 1_555
C116 O54 1_555 1_555
C117 C118 1_555 1_555
C118 C119 1_555 1_555
C119 H67 1_555 1_555
H68 C119 1_555 1_555
C120 O57 1_555 1_555
H69 C120 1_555 1_555
O58 C121 1_555 1_555
O59 C121 1_555 1_555
O60 C128 1_555 1_555
O61 C128 1_555 1_555
O62 C126 1_555 1_555
C121 C122 1_555 1_555
C122 C123 1_555 1_555
C123 H70 1_555 1_555
C124 C123 1_555 1_555
C125 C124 1_555 1_555
H71 C125 1_555 1_555
C126 C125 1_555 1_555
C127 C122 1_555 1_555
H72 C127 1_555 1_555
C128 C124 1_555 1_555
C129 C118 1_555 1_555
C130 C129 1_555 1_555
C131 C130 1_555 1_555
H73 C131 1_555 1_555
H74 C131 1_555 1_555
C132 O62 1_555 1_555
H75 C132 1_555 1_555
O63 C133 1_555 1_555
O64 C133 1_555 1_555
O65 C140 1_555 1_555
O66 C140 1_555 1_555
O67 C138 1_555 1_555
C133 C134 1_555 1_555
C134 C135 1_555 1_555
C135 H76 1_555 1_555
C136 C135 1_555 1_555
C137 C136 1_555 1_555
H77 C137 1_555 1_555
C138 C137 1_555 1_555
C139 C134 1_555 1_555
H78 C139 1_555 1_555
C140 C136 1_555 1_555
C141 C130 1_555 1_555
C142 C117 1_555 1_555
C143 C142 1_555 1_555
H79 C143 1_555 1_555
H80 C143 1_555 1_555
C144 O67 1_555 1_555
H81 C144 1_555 1_555
H82 C143 1_555 1_555
H83 C119 1_555 1_555
H84 C131 1_555 1_555
Co11 O9 1_555 1_555
O68 Co11 1_555 1_555
Co12 O10 1_555 1_555
O69 Co12 1_555 1_555
Co13 O14 1_555 1_555
O70 Co13 1_555 1_555
Co14 O15 1_555 1_555
O71 Co14 1_555 1_555
Co15 O47 1_555 1_555
Co16 O26 1_555 1_555
Co17 O31 1_555 1_555
Co18 O48 1_555 1_555
Co19 O27 1_555 1_555
Co20 O32 1_555 1_555
Co21 O60 1_555 1_555
Co22 O49 1_555 1_555
Co23 O65 1_555 1_555
Co24 O28 1_555 1_555
Co25 O11 1_555 1_555
Co26 O44 1_555 1_555
Co27 O33 1_555 1_555
Co28 O16 1_555 1_555
Co29 O61 1_555 1_555
Co30 O50 1_555 1_555
Co31 O66 1_555 1_555
Co32 O29 1_555 1_555
Co33 O12 1_555 1_555
Co34 O45 1_555 1_555
Co35 O34 1_555 1_555
Co36 O17 1_555 1_555
O72 Co5 1_555 1_555
O73 Co5 1_555 1_555
O74 Co11 1_555 1_555
O75 Co13 1_555 1_555
O76 Co6 1_555 1_555
O77 Co6 1_555 1_555
O78 Co12 1_555 1_555
O79 Co14 1_555 1_555
O80 Co7 1_555 1_555
O81 Co9 1_555 1_555
O82 Co7 1_555 1_555
O83 Co7 1_555 1_555
O84 Co3 1_555 1_555
O85 Co3 1_555 1_555
O86 Co9 1_555 1_555
O87 Co9 1_555 1_555
O88 Co8 1_555 1_555
O89 Co10 1_555 1_555
O90 Co8 1_555 1_555
O91 Co8 1_555 1_555
O92 Co4 1_555 1_555
O93 Co4 1_555 1_555
O94 Co10 1_555 1_555
O95 Co10 1_555 1_555
C4 C8 1_555 1_555
C6 C7 1_555 1_555
C9 C12 1_555 1_555
C18 C19 1_555 1_555
C21 C24 1_555 1_555
C30 C31 1_555 1_555
C33 C34 1_555 1_555
C33 C36 1_555 1_555
O22 C44 1_555 1_555
C40 C44 1_555 1_555
C42 C43 1_555 1_555
C45 C48 1_555 1_555
C54 C55 1_555 1_555
C57 C60 1_555 1_555
C66 C67 1_555 1_555
C69 C70 1_555 1_555
C69 C72 1_555 1_555
O37 C73 1_555 1_555
C76 C80 1_555 1_555
C78 C79 1_555 1_555
C81 C84 1_555 1_555
O42 Co13 1_555 1_555
O43 Co14 1_555 1_555
C90 C91 1_555 1_555
C93 C96 1_555 1_555
C102 C103 1_555 1_555
C105 C106 1_555 1_555
C105 C108 1_555 1_555
O53 C109 1_555 1_555
C112 C116 1_555 1_555
C114 C115 1_555 1_555
C117 C120 1_555 1_555
O58 Co15 1_555 1_555
O59 Co18 1_555 1_555
C126 C127 1_555 1_555
C129 C132 1_555 1_555
O63 Co11 1_555 1_555
O64 Co12 1_555 1_555
C138 C139 1_555 1_555
C141 C142 1_555 1_555
C141 C144 1_555 1_555
C12 H89 1_555 1_555
C24 H92 1_555 1_555
C36 H97 1_555 1_555
C48 H98 1_555 1_555
C60 H99 1_555 1_555
C72 H100 1_555 1_555
C84 H103 1_555 1_555
C96 H104 1_555 1_555
C108 H105 1_555 1_555
C120 H108 1_555 1_555
C132 H109 1_555 1_555
C144 H112 1_555 1_555
Co1_2 O1_2 1_555 1_555
Co2_2 O2_2 1_555 1_555
Co3_2 Cl1_2 1_555 1_555
Co4_2 O4_2 1_555 1_555
O1_2 C1_2 1_555 1_555
O2_2 C1_2 1_555 1_555
O3_2 Co3_2 1_555 1_555
O4_2 C8_2 1_555 1_555
O5_2 Co2_2 1_555 1_555
O6_2 Co1_2 1_555 1_555
O7_2 Co4_2 1_555 1_555
O8_2 C6_2 1_555 1_555
C1_2 C2_2 1_555 1_555
C2_2 C3_2 1_555 1_555
C3_2 H1_2 1_555 1_555
C4_2 C3_2 1_555 1_555
C5_2 C4_2 1_555 1_555
H2_2 C5_2 1_555 1_555
C6_2 C5_2 1_555 1_555
C7_2 C2_2 1_555 1_555
H3_2 C7_2 1_555 1_555
C8_2 O3_2 1_555 1_555
C9_2 C10_2 1_555 1_555
C10_2 C11_2 1_555 1_555
C11_2 H4_2 1_555 1_555
H5_2 C11_2 1_555 1_555
C12_2 O8_2 1_555 1_555
H6_2 C12_2 1_555 1_555
O9_2 C13_2 1_555 1_555
O10_2 C13_2 1_555 1_555
O11_2 C20_2 1_555 1_555
O12_2 C20_2 1_555 1_555
O13_2 C18_2 1_555 1_555
C13_2 C14_2 1_555 1_555
C14_2 C15_2 1_555 1_555
C15_2 H7_2 1_555 1_555
C16_2 C15_2 1_555 1_555
C17_2 C16_2 1_555 1_555
H8_2 C17_2 1_555 1_555
C18_2 C17_2 1_555 1_555
C19_2 C14_2 1_555 1_555
H9_2 C19_2 1_555 1_555
C20_2 C16_2 1_555 1_555
C21_2 C10_2 1_555 1_555
C22_2 C21_2 1_555 1_555
C23_2 C22_2 1_555 1_555
H10_2 C23_2 1_555 1_555
H11_2 C23_2 1_555 1_555
C24_2 O13_2 1_555 1_555
H12_2 C24_2 1_555 1_555
O14_2 C25_2 1_555 1_555
O15_2 C25_2 1_555 1_555
O16_2 C32_2 1_555 1_555
O17_2 C32_2 1_555 1_555
O18_2 C30_2 1_555 1_555
C25_2 C26_2 1_555 1_555
C26_2 C27_2 1_555 1_555
C27_2 H13_2 1_555 1_555
C28_2 C27_2 1_555 1_555
C29_2 C28_2 1_555 1_555
H14_2 C29_2 1_555 1_555
C30_2 C29_2 1_555 1_555
C31_2 C26_2 1_555 1_555
H15_2 C31_2 1_555 1_555
C32_2 C28_2 1_555 1_555
C33_2 C22_2 1_555 1_555
C34_2 C9_2 1_555 1_555
C35_2 C34_2 1_555 1_555
H16_2 C35_2 1_555 1_555
H17_2 C35_2 1_555 1_555
C36_2 O18_2 1_555 1_555
H18_2 C36_2 1_555 1_555
H19_2 C35_2 1_555 1_555
H20_2 C11_2 1_555 1_555
H21_2 C23_2 1_555 1_555
Co5_2 O19_2 1_555 1_555
Co6_2 O20_2 1_555 1_555
O19_2 C37_2 1_555 1_555
O20_2 C37_2 1_555 1_555
O21_2 Co3_2 1_555 1_555
O22_2 Co4_2 1_555 1_555
O23_2 Co6_2 1_555 1_555
O24_2 Co5_2 1_555 1_555
O25_2 C42_2 1_555 1_555
C37_2 C38_2 1_555 1_555
C38_2 C39_2 1_555 1_555
C39_2 H22_2 1_555 1_555
C40_2 C39_2 1_555 1_555
C41_2 C40_2 1_555 1_555
H23_2 C41_2 1_555 1_555
C42_2 C41_2 1_555 1_555
C43_2 C38_2 1_555 1_555
H24_2 C43_2 1_555 1_555
C44_2 O21_2 1_555 1_555
C45_2 C46_2 1_555 1_555
C46_2 C47_2 1_555 1_555
C47_2 H25_2 1_555 1_555
H26_2 C47_2 1_555 1_555
C48_2 O25_2 1_555 1_555
H27_2 C48_2 1_555 1_555
O26_2 C49_2 1_555 1_555
O27_2 C49_2 1_555 1_555
O28_2 C56_2 1_555 1_555
O29_2 C56_2 1_555 1_555
O30_2 C54_2 1_555 1_555
C49_2 C50_2 1_555 1_555
C50_2 C51_2 1_555 1_555
C51_2 H28_2 1_555 1_555
C52_2 C51_2 1_555 1_555
C53_2 C52_2 1_555 1_555
H29_2 C53_2 1_555 1_555
C54_2 C53_2 1_555 1_555
C55_2 C50_2 1_555 1_555
H30_2 C55_2 1_555 1_555
C56_2 C52_2 1_555 1_555
C57_2 C46_2 1_555 1_555
C58_2 C57_2 1_555 1_555
C59_2 C58_2 1_555 1_555
H31_2 C59_2 1_555 1_555
H32_2 C59_2 1_555 1_555
C60_2 O30_2 1_555 1_555
H33_2 C60_2 1_555 1_555
O31_2 C61_2 1_555 1_555
O32_2 C61_2 1_555 1_555
O33_2 C68_2 1_555 1_555
O34_2 C68_2 1_555 1_555
O35_2 C66_2 1_555 1_555
C61_2 C62_2 1_555 1_555
C62_2 C63_2 1_555 1_555
C63_2 H34_2 1_555 1_555
C64_2 C63_2 1_555 1_555
C65_2 C64_2 1_555 1_555
H35_2 C65_2 1_555 1_555
C66_2 C65_2 1_555 1_555
C67_2 C62_2 1_555 1_555
H36_2 C67_2 1_555 1_555
C68_2 C64_2 1_555 1_555
C69_2 C58_2 1_555 1_555
C70_2 C45_2 1_555 1_555
C71_2 C70_2 1_555 1_555
H37_2 C71_2 1_555 1_555
H38_2 C71_2 1_555 1_555
C72_2 O35_2 1_555 1_555
H39_2 C72_2 1_555 1_555
H40_2 C71_2 1_555 1_555
H41_2 C47_2 1_555 1_555
H42_2 C59_2 1_555 1_555
Co7_2 Cl2_2 1_555 1_555
Co8_2 O39_2 1_555 1_555
O36_2 Co1_2 1_555 1_555
O37_2 Co2_2 1_555 1_555
O38_2 Co7_2 1_555 1_555
O39_2 C80_2 1_555 1_555
O40_2 Co8_2 1_555 1_555
O41_2 C78_2 1_555 1_555
C73_2 O36_2 1_555 1_555
C74_2 C73_2 1_555 1_555
C75_2 C74_2 1_555 1_555
H43_2 C75_2 1_555 1_555
C76_2 C75_2 1_555 1_555
C77_2 C76_2 1_555 1_555
H44_2 C77_2 1_555 1_555
C78_2 C77_2 1_555 1_555
C79_2 C74_2 1_555 1_555
H45_2 C79_2 1_555 1_555
C80_2 O38_2 1_555 1_555
C81_2 C82_2 1_555 1_555
C82_2 C83_2 1_555 1_555
C83_2 H46_2 1_555 1_555
H47_2 C83_2 1_555 1_555
C84_2 O41_2 1_555 1_555
H48_2 C84_2 1_555 1_555
O42_2 C85_2 1_555 1_555
O43_2 C85_2 1_555 1_555
O44_2 C92_2 1_555 1_555
O45_2 C92_2 1_555 1_555
O46_2 C90_2 1_555 1_555
C85_2 C86_2 1_555 1_555
C86_2 C87_2 1_555 1_555
C87_2 H49_2 1_555 1_555
C88_2 C87_2 1_555 1_555
C89_2 C88_2 1_555 1_555
H50_2 C89_2 1_555 1_555
C90_2 C89_2 1_555 1_555
C91_2 C86_2 1_555 1_555
H51_2 C91_2 1_555 1_555
C92_2 C88_2 1_555 1_555
C93_2 C82_2 1_555 1_555
C94_2 C93_2 1_555 1_555
C95_2 C94_2 1_555 1_555
H52_2 C95_2 1_555 1_555
H53_2 C95_2 1_555 1_555
C96_2 O46_2 1_555 1_555
H54_2 C96_2 1_555 1_555
O47_2 C97_2 1_555 1_555
O48_2 C97_2 1_555 1_555
O49_2 C104_2 1_555 1_555
O50_2 C104_2 1_555 1_555
O51_2 C102_2 1_555 1_555
C97_2 C98_2 1_555 1_555
C98_2 C99_2 1_555 1_555
C99_2 H55_2 1_555 1_555
C100_2 C99_2 1_555 1_555
C101_2 C100_2 1_555 1_555
H56_2 C101_2 1_555 1_555
C102_2 C101_2 1_555 1_555
C103_2 C98_2 1_555 1_555
H57_2 C103_2 1_555 1_555
C104_2 C100_2 1_555 1_555
C105_2 C94_2 1_555 1_555
C106_2 C81_2 1_555 1_555
C107_2 C106_2 1_555 1_555
H58_2 C107_2 1_555 1_555
H59_2 C107_2 1_555 1_555
C108_2 O51_2 1_555 1_555
H60_2 C108_2 1_555 1_555
H61_2 C107_2 1_555 1_555
H62_2 C83_2 1_555 1_555
H63_2 C95_2 1_555 1_555
O52_2 Co1_2 1_555 1_555
O53_2 Co2_2 1_555 1_555
O89 C116_2 1_555 1_555
O57_2 C114_2 1_555 1_555
C109_2 O52_2 1_555 1_555
C110_2 C109_2 1_555 1_555
C111_2 C110_2 1_555 1_555
H64_2 C111_2 1_555 1_555
C112_2 C111_2 1_555 1_555
C113_2 C112_2 1_555 1_555
H65_2 C113_2 1_555 1_555
C114_2 C113_2 1_555 1_555
C115_2 C110_2 1_555 1_555
H66_2 C115_2 1_555 1_555
C116_2 O81 1_555 1_555
C117_2 C118_2 1_555 1_555
C118_2 C119_2 1_555 1_555
C119_2 H67_2 1_555 1_555
H68_2 C119_2 1_555 1_555
C120_2 O57_2 1_555 1_555
H69_2 C120_2 1_555 1_555
O58_2 C121_2 1_555 1_555
O59_2 C121_2 1_555 1_555
O60_2 C128_2 1_555 1_555
O61_2 C128_2 1_555 1_555
O62_2 C126_2 1_555 1_555
C121_2 C122_2 1_555 1_555
C122_2 C123_2 1_555 1_555
C123_2 H70_2 1_555 1_555
C124_2 C123_2 1_555 1_555
C125_2 C124_2 1_555 1_555
H71_2 C125_2 1_555 1_555
C126_2 C125_2 1_555 1_555
C127_2 C122_2 1_555 1_555
H72_2 C127_2 1_555 1_555
C128_2 C124_2 1_555 1_555
C129_2 C118_2 1_555 1_555
C130_2 C129_2 1_555 1_555
C131_2 C130_2 1_555 1_555
H73_2 C131_2 1_555 1_555
H74_2 C131_2 1_555 1_555
C132_2 O62_2 1_555 1_555
H75_2 C132_2 1_555 1_555
O63_2 C133_2 1_555 1_555
O64_2 C133_2 1_555 1_555
O65_2 C140_2 1_555 1_555
O66_2 C140_2 1_555 1_555
O67_2 C138_2 1_555 1_555
C133_2 C134_2 1_555 1_555
C134_2 C135_2 1_555 1_555
C135_2 H76_2 1_555 1_555
C136_2 C135_2 1_555 1_555
C137_2 C136_2 1_555 1_555
H77_2 C137_2 1_555 1_555
C138_2 C137_2 1_555 1_555
C139_2 C134_2 1_555 1_555
H78_2 C139_2 1_555 1_555
C140_2 C136_2 1_555 1_555
C141_2 C130_2 1_555 1_555
C142_2 C117_2 1_555 1_555
C143_2 C142_2 1_555 1_555
H79_2 C143_2 1_555 1_555
H80_2 C143_2 1_555 1_555
C144_2 O67_2 1_555 1_555
H81_2 C144_2 1_555 1_555
H82_2 C143_2 1_555 1_555
H83_2 C119_2 1_555 1_555
H84_2 C131_2 1_555 1_555
Co11_2 O9_2 1_555 1_555
O68_2 Co11_2 1_555 1_555
Co12_2 O10_2 1_555 1_555
O69_2 Co12_2 1_555 1_555
Co13_2 O14_2 1_555 1_555
O70_2 Co13_2 1_555 1_555
Co14_2 O15_2 1_555 1_555
O71_2 Co14_2 1_555 1_555
Co15_2 O47_2 1_555 1_555
Co16_2 O26_2 1_555 1_555
Co17_2 O31_2 1_555 1_555
Co18_2 O48_2 1_555 1_555
Co19_2 O27_2 1_555 1_555
Co20_2 O32_2 1_555 1_555
Co21_3 O60_2 1_555 1_555
Co22_2 O49_2 1_555 1_555
Co23_3 O65_2 1_555 1_555
Co24_2 O28_2 1_555 1_555
Co25_2 O11_2 1_555 1_555
Co26_4 O44_2 1_555 1_555
Co28_2 O33_2 1_555 1_555
Co27_2 O16_2 1_555 1_555
Co29_3 O61_2 1_555 1_555
Co30_2 O50_2 1_555 1_555
Co31_3 O66_2 1_555 1_555
Co32_2 O29_2 1_555 1_555
Co33_2 O12_2 1_555 1_555
Co34_4 O45_2 1_555 1_555
Co36_2 O34_2 1_555 1_555
Co35_2 O17_2 1_555 1_555
O72_2 Co5_2 1_555 1_555
O73_2 Co5_2 1_555 1_555
O74_2 Co11_2 1_555 1_555
O75_2 Co13_2 1_555 1_555
O76_2 Co6_2 1_555 1_555
O77_2 Co6_2 1_555 1_555
O78_2 Co12_2 1_555 1_555
O79_2 Co14_2 1_555 1_555
O80_2 Co7_2 1_555 1_555
O82_2 Co7_2 1_555 1_555
O83_2 Co7_2 1_555 1_555
O84_2 Co3_2 1_555 1_555
O85_2 Co3_2 1_555 1_555
O88_2 Co8_2 1_555 1_555
O90_2 Co8_2 1_555 1_555
O91_2 Co8_2 1_555 1_555
O92_2 Co4_2 1_555 1_555
O93_2 Co4_2 1_555 1_555
C4_2 C8_2 1_555 1_555
C6_2 C7_2 1_555 1_555
C9_2 C12_2 1_555 1_555
C18_2 C19_2 1_555 1_555
C21_2 C24_2 1_555 1_555
C30_2 C31_2 1_555 1_555
C33_2 C34_2 1_555 1_555
C33_2 C36_2 1_555 1_555
O22_2 C44_2 1_555 1_555
C40_2 C44_2 1_555 1_555
C42_2 C43_2 1_555 1_555
C45_2 C48_2 1_555 1_555
C54_2 C55_2 1_555 1_555
C57_2 C60_2 1_555 1_555
C66_2 C67_2 1_555 1_555
C69_2 C70_2 1_555 1_555
C69_2 C72_2 1_555 1_555
O37_2 C73_2 1_555 1_555
C76_2 C80_2 1_555 1_555
C78_2 C79_2 1_555 1_555
C81_2 C84_2 1_555 1_555
O42_2 Co13_2 1_555 1_555
O43_2 Co14_2 1_555 1_555
C90_2 C91_2 1_555 1_555
C93_2 C96_2 1_555 1_555
C102_2 C103_2 1_555 1_555
C105_2 C106_2 1_555 1_555
C105_2 C108_2 1_555 1_555
O53_2 C109_2 1_555 1_555
C112_2 C116_2 1_555 1_555
C114_2 C115_2 1_555 1_555
C117_2 C120_2 1_555 1_555
O58_2 Co15_2 1_555 1_555
O59_2 Co18_2 1_555 1_555
C126_2 C127_2 1_555 1_555
C129_2 C132_2 1_555 1_555
O63_2 Co11_2 1_555 1_555
O64_2 Co12_2 1_555 1_555
C138_2 C139_2 1_555 1_555
C141_2 C142_2 1_555 1_555
C141_2 C144_2 1_555 1_555
C12_2 H89_2 1_555 1_555
C24_2 H92_2 1_555 1_555
C36_2 H97_2 1_555 1_555
C48_2 H98_2 1_555 1_555
C60_2 H99_2 1_555 1_555
C72_2 H100_2 1_555 1_555
C84_2 H103_2 1_555 1_555
C96_2 H104_2 1_555 1_555
C108_2 H105_2 1_555 1_555
C120_2 H108_2 1_555 1_555
C132_2 H109_2 1_555 1_555
C144_2 H112_2 1_555 1_555
O88 C80_3 1_555 1_555
O41_3 C78_3 1_555 1_555
C73_3 O72_2 1_555 1_555
C74_3 C73_3 1_555 1_555
C75_3 C74_3 1_555 1_555
H43_3 C75_3 1_555 1_555
C76_3 C75_3 1_555 1_555
C77_3 C76_3 1_555 1_555
H44_3 C77_3 1_555 1_555
C78_3 C77_3 1_555 1_555
C79_3 C74_3 1_555 1_555
H45_3 C79_3 1_555 1_555
C80_3 O80 1_555 1_555
C81_3 C82_3 1_555 1_555
C82_3 C83_3 1_555 1_555
C83_3 H46_3 1_555 1_555
H47_3 C83_3 1_555 1_555
C84_3 O41_3 1_555 1_555
H48_3 C84_3 1_555 1_555
O42_3 C85_3 1_555 1_555
O43_3 C85_3 1_555 1_555
O44_3 C92_3 1_555 1_555
O45_3 C92_3 1_555 1_555
O46_3 C90_3 1_555 1_555
C85_3 C86_3 1_555 1_555
C86_3 C87_3 1_555 1_555
C87_3 H49_3 1_555 1_555
C88_3 C87_3 1_555 1_555
C89_3 C88_3 1_555 1_555
H50_3 C89_3 1_555 1_555
C90_3 C89_3 1_555 1_555
C91_3 C86_3 1_555 1_555
H51_3 C91_3 1_555 1_555
C92_3 C88_3 1_555 1_555
C93_3 C82_3 1_555 1_555
C94_3 C93_3 1_555 1_555
C95_3 C94_3 1_555 1_555
H52_3 C95_3 1_555 1_555
H53_3 C95_3 1_555 1_555
C96_3 O46_3 1_555 1_555
H54_3 C96_3 1_555 1_555
O47_3 C97_3 1_555 1_555
O48_3 C97_3 1_555 1_555
O49_3 C104_3 1_555 1_555
O50_3 C104_3 1_555 1_555
O51_3 C102_3 1_555 1_555
C97_3 C98_3 1_555 1_555
C98_3 C99_3 1_555 1_555
C99_3 H55_3 1_555 1_555
C100_3 C99_3 1_555 1_555
C101_3 C100_3 1_555 1_555
H56_3 C101_3 1_555 1_555
C102_3 C101_3 1_555 1_555
C103_3 C98_3 1_555 1_555
H57_3 C103_3 1_555 1_555
C104_3 C100_3 1_555 1_555
C105_3 C94_3 1_555 1_555
C106_3 C81_3 1_555 1_555
C107_3 C106_3 1_555 1_555
H58_3 C107_3 1_555 1_555
H59_3 C107_3 1_555 1_555
C108_3 O51_3 1_555 1_555
H60_3 C108_3 1_555 1_555
H61_3 C107_3 1_555 1_555
H62_3 C83_3 1_555 1_555
H63_3 C95_3 1_555 1_555
Co9_2 Cl3_2 1_555 1_555
Co10_2 O55_2 1_555 1_555
O54_2 Co9_2 1_555 1_555
O55_2 C116_3 1_555 1_555
O56_2 Co10_2 1_555 1_555
O57_3 C114_3 1_555 1_555
C109_3 O73_2 1_555 1_555
C110_3 C109_3 1_555 1_555
C111_3 C110_3 1_555 1_555
H64_3 C111_3 1_555 1_555
C112_3 C111_3 1_555 1_555
C113_3 C112_3 1_555 1_555
H65_3 C113_3 1_555 1_555
C114_3 C113_3 1_555 1_555
C115_3 C110_3 1_555 1_555
H66_3 C115_3 1_555 1_555
C116_3 O54_2 1_555 1_555
C117_3 C118_3 1_555 1_555
C118_3 C119_3 1_555 1_555
C119_3 H67_3 1_555 1_555
H68_3 C119_3 1_555 1_555
C120_3 O57_3 1_555 1_555
H69_3 C120_3 1_555 1_555
O58_3 C121_3 1_555 1_555
O59_3 C121_3 1_555 1_555
O60_3 C128_3 1_555 1_555
O61_3 C128_3 1_555 1_555
O62_3 C126_3 1_555 1_555
C121_3 C122_3 1_555 1_555
C122_3 C123_3 1_555 1_555
C123_3 H70_3 1_555 1_555
C124_3 C123_3 1_555 1_555
C125_3 C124_3 1_555 1_555
H71_3 C125_3 1_555 1_555
C126_3 C125_3 1_555 1_555
C127_3 C122_3 1_555 1_555
H72_3 C127_3 1_555 1_555
C128_3 C124_3 1_555 1_555
C129_3 C118_3 1_555 1_555
C130_3 C129_3 1_555 1_555
C131_3 C130_3 1_555 1_555
H73_3 C131_3 1_555 1_555
H74_3 C131_3 1_555 1_555
C132_3 O62_3 1_555 1_555
H75_3 C132_3 1_555 1_555
O63_3 C133_3 1_555 1_555
O64_3 C133_3 1_555 1_555
O65_3 C140_3 1_555 1_555
O66_3 C140_3 1_555 1_555
O67_3 C138_3 1_555 1_555
C133_3 C134_3 1_555 1_555
C134_3 C135_3 1_555 1_555
C135_3 H76_3 1_555 1_555
C136_3 C135_3 1_555 1_555
C137_3 C136_3 1_555 1_555
H77_3 C137_3 1_555 1_555
C138_3 C137_3 1_555 1_555
C139_3 C134_3 1_555 1_555
H78_3 C139_3 1_555 1_555
C140_3 C136_3 1_555 1_555
C141_3 C130_3 1_555 1_555
C142_3 C117_3 1_555 1_555
C143_3 C142_3 1_555 1_555
H79_3 C143_3 1_555 1_555
H80_3 C143_3 1_555 1_555
C144_3 O67_3 1_555 1_555
H81_3 C144_3 1_555 1_555
H82_3 C143_3 1_555 1_555
H83_3 C119_3 1_555 1_555
H84_3 C131_3 1_555 1_555
O68_3 Co16_2 1_555 1_555
O69_3 Co19_2 1_555 1_555
O70_3 Co17_2 1_555 1_555
O71_3 Co20_2 1_555 1_555
Co15_3 O47_3 1_555 1_555
Co18_3 O48_3 1_555 1_555
Co21_2 O60_3 1_555 1_555
Co22_3 O49_3 1_555 1_555
Co23_4 O65_3 1_555 1_555
Co26_3 O44_3 1_555 1_555
Co29_2 O61_3 1_555 1_555
Co30_3 O50_3 1_555 1_555
Co31_4 O66_3 1_555 1_555
Co34_3 O45_3 1_555 1_555
O74_3 Co16_2 1_555 1_555
O75_3 Co17_2 1_555 1_555
O78_3 Co19_2 1_555 1_555
O79_3 Co20_2 1_555 1_555
O81_2 Co9_2 1_555 1_555
O86_2 Co9_2 1_555 1_555
O87_2 Co9_2 1_555 1_555
O89_2 Co10_2 1_555 1_555
O94_2 Co10_2 1_555 1_555
O95_2 Co10_2 1_555 1_555
O76_2 C73_3 1_555 1_555
C76_3 C80_3 1_555 1_555
C78_3 C79_3 1_555 1_555
C81_3 C84_3 1_555 1_555
O42_3 Co17_2 1_555 1_555
O43_3 Co20_2 1_555 1_555
C90_3 C91_3 1_555 1_555
C93_3 C96_3 1_555 1_555
C102_3 C103_3 1_555 1_555
C105_3 C106_3 1_555 1_555
C105_3 C108_3 1_555 1_555
O77_2 C109_3 1_555 1_555
C112_3 C116_3 1_555 1_555
C114_3 C115_3 1_555 1_555
C117_3 C120_3 1_555 1_555
O58_3 Co15_3 1_555 1_555
O59_3 Co18_3 1_555 1_555
C126_3 C127_3 1_555 1_555
C129_3 C132_3 1_555 1_555
O63_3 Co16_2 1_555 1_555
O64_3 Co19_2 1_555 1_555
C138_3 C139_3 1_555 1_555
C141_3 C142_3 1_555 1_555
C141_3 C144_3 1_555 1_555
C60_2 H92_3 1_555 1_555
C72_2 H97_3 1_555 1_555
C24_2 H99_3 1_555 1_555
C36_2 H100_3 1_555 1_555
C84_3 H103_3 1_555 1_555
C96_3 H104_3 1_555 1_555
C108_3 H105_3 1_555 1_555
C120_3 H108_3 1_555 1_555
C132_3 H109_3 1_555 1_555
C144_3 H112_3 1_555 1_555
O88_2 C80_4 1_555 1_555
O41_4 C78_4 1_555 1_555
C73_4 O72 1_555 1_555
C74_4 C73_4 1_555 1_555
C75_4 C74_4 1_555 1_555
H43_4 C75_4 1_555 1_555
C76_4 C75_4 1_555 1_555
C77_4 C76_4 1_555 1_555
H44_4 C77_4 1_555 1_555
C78_4 C77_4 1_555 1_555
C79_4 C74_4 1_555 1_555
H45_4 C79_4 1_555 1_555
C80_4 O80_2 1_555 1_555
C81_4 C82_4 1_555 1_555
C82_4 C83_4 1_555 1_555
C83_4 H46_4 1_555 1_555
H47_4 C83_4 1_555 1_555
C84_4 O41_4 1_555 1_555
H48_4 C84_4 1_555 1_555
O42_4 C85_4 1_555 1_555
O43_4 C85_4 1_555 1_555
O44_4 C92_4 1_555 1_555
O45_4 C92_4 1_555 1_555
O46_4 C90_4 1_555 1_555
C85_4 C86_4 1_555 1_555
C86_4 C87_4 1_555 1_555
C87_4 H49_4 1_555 1_555
C88_4 C87_4 1_555 1_555
C89_4 C88_4 1_555 1_555
H50_4 C89_4 1_555 1_555
C90_4 C89_4 1_555 1_555
C91_4 C86_4 1_555 1_555
H51_4 C91_4 1_555 1_555
C92_4 C88_4 1_555 1_555
C93_4 C82_4 1_555 1_555
C94_4 C93_4 1_555 1_555
C95_4 C94_4 1_555 1_555
H52_4 C95_4 1_555 1_555
H53_4 C95_4 1_555 1_555
C96_4 O46_4 1_555 1_555
H54_4 C96_4 1_555 1_555
O47_4 C97_4 1_555 1_555
O48_4 C97_4 1_555 1_555
O49_4 C104_4 1_555 1_555
O50_4 C104_4 1_555 1_555
O51_4 C102_4 1_555 1_555
C97_4 C98_4 1_555 1_555
C98_4 C99_4 1_555 1_555
C99_4 H55_4 1_555 1_555
C100_4 C99_4 1_555 1_555
C101_4 C100_4 1_555 1_555
H56_4 C101_4 1_555 1_555
C102_4 C101_4 1_555 1_555
C103_4 C98_4 1_555 1_555
H57_4 C103_4 1_555 1_555
C104_4 C100_4 1_555 1_555
C105_4 C94_4 1_555 1_555
C106_4 C81_4 1_555 1_555
C107_4 C106_4 1_555 1_555
H58_4 C107_4 1_555 1_555
H59_4 C107_4 1_555 1_555
C108_4 O51_4 1_555 1_555
H60_4 C108_4 1_555 1_555
H61_4 C107_4 1_555 1_555
H62_4 C83_4 1_555 1_555
H63_4 C95_4 1_555 1_555
O89_2 C116_4 1_555 1_555
O57_4 C114_4 1_555 1_555
C109_4 O73 1_555 1_555
C110_4 C109_4 1_555 1_555
C111_4 C110_4 1_555 1_555
H64_4 C111_4 1_555 1_555
C112_4 C111_4 1_555 1_555
C113_4 C112_4 1_555 1_555
H65_4 C113_4 1_555 1_555
C114_4 C113_4 1_555 1_555
C115_4 C110_4 1_555 1_555
H66_4 C115_4 1_555 1_555
C116_4 O81_2 1_555 1_555
C117_4 C118_4 1_555 1_555
C118_4 C119_4 1_555 1_555
C119_4 H67_4 1_555 1_555
H68_4 C119_4 1_555 1_555
C120_4 O57_4 1_555 1_555
H69_4 C120_4 1_555 1_555
O58_4 C121_4 1_555 1_555
O59_4 C121_4 1_555 1_555
O60_4 C128_4 1_555 1_555
O61_4 C128_4 1_555 1_555
O62_4 C126_4 1_555 1_555
C121_4 C122_4 1_555 1_555
C122_4 C123_4 1_555 1_555
C123_4 H70_4 1_555 1_555
C124_4 C123_4 1_555 1_555
C125_4 C124_4 1_555 1_555
H71_4 C125_4 1_555 1_555
C126_4 C125_4 1_555 1_555
C127_4 C122_4 1_555 1_555
H72_4 C127_4 1_555 1_555
C128_4 C124_4 1_555 1_555
C129_4 C118_4 1_555 1_555
C130_4 C129_4 1_555 1_555
C131_4 C130_4 1_555 1_555
H73_4 C131_4 1_555 1_555
H74_4 C131_4 1_555 1_555
C132_4 O62_4 1_555 1_555
H75_4 C132_4 1_555 1_555
O63_4 C133_4 1_555 1_555
O64_4 C133_4 1_555 1_555
O65_4 C140_4 1_555 1_555
O66_4 C140_4 1_555 1_555
O67_4 C138_4 1_555 1_555
C133_4 C134_4 1_555 1_555
C134_4 C135_4 1_555 1_555
C135_4 H76_4 1_555 1_555
C136_4 C135_4 1_555 1_555
C137_4 C136_4 1_555 1_555
H77_4 C137_4 1_555 1_555
C138_4 C137_4 1_555 1_555
C139_4 C134_4 1_555 1_555
H78_4 C139_4 1_555 1_555
C140_4 C136_4 1_555 1_555
C141_4 C130_4 1_555 1_555
C142_4 C117_4 1_555 1_555
C143_4 C142_4 1_555 1_555
H79_4 C143_4 1_555 1_555
H80_4 C143_4 1_555 1_555
C144_4 O67_4 1_555 1_555
H81_4 C144_4 1_555 1_555
H82_4 C143_4 1_555 1_555
H83_4 C119_4 1_555 1_555
H84_4 C131_4 1_555 1_555
O68_4 Co16 1_555 1_555
O69_4 Co19 1_555 1_555
O70_4 Co17 1_555 1_555
O71_4 Co20 1_555 1_555
Co15_4 O47_4 1_555 1_555
Co18_4 O48_4 1_555 1_555
Co21_4 O60_4 1_555 1_555
Co22_4 O49_4 1_555 1_555
Co23_2 O65_4 1_555 1_555
Co26_2 O44_4 1_555 1_555
Co29_4 O61_4 1_555 1_555
Co30_4 O50_4 1_555 1_555
Co31_2 O66_4 1_555 1_555
Co34_2 O45_4 1_555 1_555
O74_4 Co16 1_555 1_555
O75_4 Co17 1_555 1_555
O78_4 Co19 1_555 1_555
O79_4 Co20 1_555 1_555
O76 C73_4 1_555 1_555
C76_4 C80_4 1_555 1_555
C78_4 C79_4 1_555 1_555
C81_4 C84_4 1_555 1_555
O42_4 Co17 1_555 1_555
O43_4 Co20 1_555 1_555
C90_4 C91_4 1_555 1_555
C93_4 C96_4 1_555 1_555
C102_4 C103_4 1_555 1_555
C105_4 C106_4 1_555 1_555
C105_4 C108_4 1_555 1_555
O77 C109_4 1_555 1_555
C112_4 C116_4 1_555 1_555
C114_4 C115_4 1_555 1_555
C117_4 C120_4 1_555 1_555
O58_4 Co15_4 1_555 1_555
O59_4 Co18_4 1_555 1_555
C126_4 C127_4 1_555 1_555
C129_4 C132_4 1_555 1_555
O63_4 Co16 1_555 1_555
O64_4 Co19 1_555 1_555
C138_4 C139_4 1_555 1_555
C141_4 C142_4 1_555 1_555
C141_4 C144_4 1_555 1_555
C60 H92_4 1_555 1_555
C72 H97_4 1_555 1_555
C24 H99_4 1_555 1_555
C36 H100_4 1_555 1_555
C84_4 H103_4 1_555 1_555
C96_4 H104_4 1_555 1_555
C108_4 H105_4 1_555 1_555
C120_4 H108_4 1_555 1_555
C132_4 H109_4 1_555 1_555
C144_4 H112_4 1_555 1_555
O70_5 Co15 1_555 1_555
O71_5 Co18 1_555 1_555
O75_5 Co15 1_555 1_555
O79_5 Co18 1_555 1_555
C96_3 H99_5 1_555 1_555
C108_3 H100_5 1_555 1_555
C120 H103_5 1_555 1_555
C12 H108_5 1_555 1_555
O70_6 Co15_4 1_555 1_555
O71_6 Co18_4 1_555 1_555
O75_6 Co15_4 1_555 1_555
O79_6 Co18_4 1_555 1_555
C96_2 H99_6 1_555 1_555
C108_2 H100_6 1_555 1_555
C120_4 H103_6 1_555 1_555
C48 H108_6 1_555 1_555
O70_7 Co15_2 1_555 1_555
O71_7 Co18_2 1_555 1_555
O75_7 Co15_2 1_555 1_555
O79_7 Co18_2 1_555 1_555
C96_4 H99_7 1_555 1_555
C108_4 H100_7 1_555 1_555
C120_2 H103_7 1_555 1_555
C12_2 H108_7 1_555 1_555
O70_8 Co15_3 1_555 1_555
O71_8 Co18_3 1_555 1_555
O75_8 Co15_3 1_555 1_555
O79_8 Co18_3 1_555 1_555
C96 H99_8 1_555 1_555
C108 H100_8 1_555 1_555
C120_3 H103_8 1_555 1_555
C48_2 H108_8 1_555 1_555
C132_2 H99_9 1_555 1_555
C144_2 H100_9 1_555 1_555
C84 H108_9 1_555 1_555
C132_4 H99_10 1_555 1_555
C144_4 H100_10 1_555 1_555
C84_3 H108_10 1_555 1_555
C132_3 H99_11 1_555 1_555
C144_3 H100_11 1_555 1_555
C84_4 H108_11 1_555 1_555
C132 H99_12 1_555 1_555
C144 H100_12 1_555 1_555
C84_2 H108_12 1_555 1_555
Co1_3 O1_3 1_555 1_555
Co2_3 O2_3 1_555 1_555
O1_3 C1_3 1_555 1_555
O2_3 C1_3 1_555 1_555
O90 C8_3 1_555 1_555
O5_3 Co2_3 1_555 1_555
O6_3 Co1_3 1_555 1_555
O8_3 C6_3 1_555 1_555
C1_3 C2_3 1_555 1_555
C2_3 C3_3 1_555 1_555
C3_3 H1_3 1_555 1_555
C4_3 C3_3 1_555 1_555
C5_3 C4_3 1_555 1_555
H2_3 C5_3 1_555 1_555
C6_3 C5_3 1_555 1_555
C7_3 C2_3 1_555 1_555
H3_3 C7_3 1_555 1_555
C8_3 O82 1_555 1_555
C9_3 C10_3 1_555 1_555
C10_3 C11_3 1_555 1_555
C11_3 H4_3 1_555 1_555
H5_3 C11_3 1_555 1_555
C12_3 O8_3 1_555 1_555
H6_3 C12_3 1_555 1_555
O9_3 C13_3 1_555 1_555
O10_3 C13_3 1_555 1_555
O11_3 C20_3 1_555 1_555
O12_3 C20_3 1_555 1_555
O13_3 C18_3 1_555 1_555
C13_3 C14_3 1_555 1_555
C14_3 C15_3 1_555 1_555
C15_3 H7_3 1_555 1_555
C16_3 C15_3 1_555 1_555
C17_3 C16_3 1_555 1_555
H8_3 C17_3 1_555 1_555
C18_3 C17_3 1_555 1_555
C19_3 C14_3 1_555 1_555
H9_3 C19_3 1_555 1_555
C20_3 C16_3 1_555 1_555
C21_3 C10_3 1_555 1_555
C22_3 C21_3 1_555 1_555
C23_3 C22_3 1_555 1_555
H10_3 C23_3 1_555 1_555
H11_3 C23_3 1_555 1_555
C24_3 O13_3 1_555 1_555
H12_3 C24_3 1_555 1_555
O14_3 C25_3 1_555 1_555
O15_3 C25_3 1_555 1_555
O16_3 C32_3 1_555 1_555
O17_3 C32_3 1_555 1_555
O18_3 C30_3 1_555 1_555
C25_3 C26_3 1_555 1_555
C26_3 C27_3 1_555 1_555
C27_3 H13_3 1_555 1_555
C28_3 C27_3 1_555 1_555
C29_3 C28_3 1_555 1_555
H14_3 C29_3 1_555 1_555
C30_3 C29_3 1_555 1_555
C31_3 C26_3 1_555 1_555
H15_3 C31_3 1_555 1_555
C32_3 C28_3 1_555 1_555
C33_3 C22_3 1_555 1_555
C34_3 C9_3 1_555 1_555
C35_3 C34_3 1_555 1_555
H16_3 C35_3 1_555 1_555
H17_3 C35_3 1_555 1_555
C36_3 O18_3 1_555 1_555
H18_3 C36_3 1_555 1_555
H19_3 C35_3 1_555 1_555
H20_3 C11_3 1_555 1_555
H21_3 C23_3 1_555 1_555
Co5_3 O19_3 1_555 1_555
Co6_3 O20_3 1_555 1_555
O19_3 C37_3 1_555 1_555
O20_3 C37_3 1_555 1_555
O23_3 Co6_3 1_555 1_555
O24_3 Co5_3 1_555 1_555
O25_3 C42_3 1_555 1_555
C37_3 C38_3 1_555 1_555
C38_3 C39_3 1_555 1_555
C39_3 H22_3 1_555 1_555
C40_3 C39_3 1_555 1_555
C41_3 C40_3 1_555 1_555
H23_3 C41_3 1_555 1_555
C42_3 C41_3 1_555 1_555
C43_3 C38_3 1_555 1_555
H24_3 C43_3 1_555 1_555
C44_3 O83 1_555 1_555
C45_3 C46_3 1_555 1_555
C46_3 C47_3 1_555 1_555
C47_3 H25_3 1_555 1_555
H26_3 C47_3 1_555 1_555
C48_3 O25_3 1_555 1_555
H27_3 C48_3 1_555 1_555
O26_3 C49_3 1_555 1_555
O27_3 C49_3 1_555 1_555
O28_3 C56_3 1_555 1_555
O29_3 C56_3 1_555 1_555
O30_3 C54_3 1_555 1_555
C49_3 C50_3 1_555 1_555
C50_3 C51_3 1_555 1_555
C51_3 H28_3 1_555 1_555
C52_3 C51_3 1_555 1_555
C53_3 C52_3 1_555 1_555
H29_3 C53_3 1_555 1_555
C54_3 C53_3 1_555 1_555
C55_3 C50_3 1_555 1_555
H30_3 C55_3 1_555 1_555
C56_3 C52_3 1_555 1_555
C57_3 C46_3 1_555 1_555
C58_3 C57_3 1_555 1_555
C59_3 C58_3 1_555 1_555
H31_3 C59_3 1_555 1_555
H32_3 C59_3 1_555 1_555
C60_3 O30_3 1_555 1_555
H33_3 C60_3 1_555 1_555
O31_3 C61_3 1_555 1_555
O32_3 C61_3 1_555 1_555
O33_3 C68_3 1_555 1_555
O34_3 C68_3 1_555 1_555
O35_3 C66_3 1_555 1_555
C61_3 C62_3 1_555 1_555
C62_3 C63_3 1_555 1_555
C63_3 H34_3 1_555 1_555
C64_3 C63_3 1_555 1_555
C65_3 C64_3 1_555 1_555
H35_3 C65_3 1_555 1_555
C66_3 C65_3 1_555 1_555
C67_3 C62_3 1_555 1_555
H36_3 C67_3 1_555 1_555
C68_3 C64_3 1_555 1_555
C69_3 C58_3 1_555 1_555
C70_3 C45_3 1_555 1_555
C71_3 C70_3 1_555 1_555
H37_3 C71_3 1_555 1_555
H38_3 C71_3 1_555 1_555
C72_3 O35_3 1_555 1_555
H39_3 C72_3 1_555 1_555
H40_3 C71_3 1_555 1_555
H41_3 C47_3 1_555 1_555
H42_3 C59_3 1_555 1_555
O36_3 Co1_3 1_555 1_555
O37_3 Co2_3 1_555 1_555
O92 C80_5 1_555 1_555
O41_5 C78_5 1_555 1_555
C73_5 O36_3 1_555 1_555
C74_5 C73_5 1_555 1_555
C75_5 C74_5 1_555 1_555
H43_5 C75_5 1_555 1_555
C76_5 C75_5 1_555 1_555
C77_5 C76_5 1_555 1_555
H44_5 C77_5 1_555 1_555
C78_5 C77_5 1_555 1_555
C79_5 C74_5 1_555 1_555
H45_5 C79_5 1_555 1_555
C80_5 O84 1_555 1_555
C81_5 C82_5 1_555 1_555
C82_5 C83_5 1_555 1_555
C83_5 H46_5 1_555 1_555
H47_5 C83_5 1_555 1_555
C84_5 O41_5 1_555 1_555
H48_5 C84_5 1_555 1_555
O42_5 C85_5 1_555 1_555
O43_5 C85_5 1_555 1_555
O44_5 C92_5 1_555 1_555
O45_5 C92_5 1_555 1_555
O46_5 C90_5 1_555 1_555
C85_5 C86_5 1_555 1_555
C86_5 C87_5 1_555 1_555
C87_5 H49_5 1_555 1_555
C88_5 C87_5 1_555 1_555
C89_5 C88_5 1_555 1_555
H50_5 C89_5 1_555 1_555
C90_5 C89_5 1_555 1_555
C91_5 C86_5 1_555 1_555
H51_5 C91_5 1_555 1_555
C92_5 C88_5 1_555 1_555
C93_5 C82_5 1_555 1_555
C94_5 C93_5 1_555 1_555
C95_5 C94_5 1_555 1_555
H52_5 C95_5 1_555 1_555
H53_5 C95_5 1_555 1_555
C96_5 O46_5 1_555 1_555
H54_5 C96_5 1_555 1_555
O47_5 C97_5 1_555 1_555
O48_5 C97_5 1_555 1_555
O49_5 C104_5 1_555 1_555
O50_5 C104_5 1_555 1_555
O51_5 C102_5 1_555 1_555
C97_5 C98_5 1_555 1_555
C98_5 C99_5 1_555 1_555
C99_5 H55_5 1_555 1_555
C100_5 C99_5 1_555 1_555
C101_5 C100_5 1_555 1_555
H56_5 C101_5 1_555 1_555
C102_5 C101_5 1_555 1_555
C103_5 C98_5 1_555 1_555
H57_5 C103_5 1_555 1_555
C104_5 C100_5 1_555 1_555
C105_5 C94_5 1_555 1_555
C106_5 C81_5 1_555 1_555
C107_5 C106_5 1_555 1_555
H58_5 C107_5 1_555 1_555
H59_5 C107_5 1_555 1_555
C108_5 O51_5 1_555 1_555
H60_5 C108_5 1_555 1_555
H61_5 C107_5 1_555 1_555
H62_5 C83_5 1_555 1_555
H63_5 C95_5 1_555 1_555
O52_3 Co1_3 1_555 1_555
O53_3 Co2_3 1_555 1_555
O95_2 C116_5 1_555 1_555
O57_5 C114_5 1_555 1_555
C109_5 O52_3 1_555 1_555
C110_5 C109_5 1_555 1_555
C111_5 C110_5 1_555 1_555
H64_5 C111_5 1_555 1_555
C112_5 C111_5 1_555 1_555
C113_5 C112_5 1_555 1_555
H65_5 C113_5 1_555 1_555
C114_5 C113_5 1_555 1_555
C115_5 C110_5 1_555 1_555
H66_5 C115_5 1_555 1_555
C116_5 O87_2 1_555 1_555
C117_5 C118_5 1_555 1_555
C118_5 C119_5 1_555 1_555
C119_5 H67_5 1_555 1_555
H68_5 C119_5 1_555 1_555
C120_5 O57_5 1_555 1_555
H69_5 C120_5 1_555 1_555
O58_5 C121_5 1_555 1_555
O59_5 C121_5 1_555 1_555
O60_5 C128_5 1_555 1_555
O61_5 C128_5 1_555 1_555
O62_5 C126_5 1_555 1_555
C121_5 C122_5 1_555 1_555
C122_5 C123_5 1_555 1_555
C123_5 H70_5 1_555 1_555
C124_5 C123_5 1_555 1_555
C125_5 C124_5 1_555 1_555
H71_5 C125_5 1_555 1_555
C126_5 C125_5 1_555 1_555
C127_5 C122_5 1_555 1_555
H72_5 C127_5 1_555 1_555
C128_5 C124_5 1_555 1_555
C129_5 C118_5 1_555 1_555
C130_5 C129_5 1_555 1_555
C131_5 C130_5 1_555 1_555
H73_5 C131_5 1_555 1_555
H74_5 C131_5 1_555 1_555
C132_5 O62_5 1_555 1_555
H75_5 C132_5 1_555 1_555
O63_5 C133_5 1_555 1_555
O64_5 C133_5 1_555 1_555
O65_5 C140_5 1_555 1_555
O66_5 C140_5 1_555 1_555
O67_5 C138_5 1_555 1_555
C133_5 C134_5 1_555 1_555
C134_5 C135_5 1_555 1_555
C135_5 H76_5 1_555 1_555
C136_5 C135_5 1_555 1_555
C137_5 C136_5 1_555 1_555
H77_5 C137_5 1_555 1_555
C138_5 C137_5 1_555 1_555
C139_5 C134_5 1_555 1_555
H78_5 C139_5 1_555 1_555
C140_5 C136_5 1_555 1_555
C141_5 C130_5 1_555 1_555
C142_5 C117_5 1_555 1_555
C143_5 C142_5 1_555 1_555
H79_5 C143_5 1_555 1_555
H80_5 C143_5 1_555 1_555
C144_5 O67_5 1_555 1_555
H81_5 C144_5 1_555 1_555
H82_5 C143_5 1_555 1_555
H83_5 C119_5 1_555 1_555
H84_5 C131_5 1_555 1_555
Co11_3 O9_3 1_555 1_555
O68_5 Co11_3 1_555 1_555
Co12_3 O10_3 1_555 1_555
O69_5 Co12_3 1_555 1_555
Co13_3 O14_3 1_555 1_555
O70_9 Co13_3 1_555 1_555
Co14_3 O15_3 1_555 1_555
O71_9 Co14_3 1_555 1_555
Co15_5 O47_5 1_555 1_555
Co16_3 O26_3 1_555 1_555
Co17_3 O31_3 1_555 1_555
Co18_5 O48_5 1_555 1_555
Co19_3 O27_3 1_555 1_555
Co20_3 O32_3 1_555 1_555
Co23_2 O60_5 1_555 1_555
Co24 O49_5 1_555 1_555
Co21_2 O65_5 1_555 1_555
Co22 O28_3 1_555 1_555
Co22_3 O11_3 1_555 1_555
Co28 O44_5 1_555 1_555
Co26_3 O33_3 1_555 1_555
Co26 O16_3 1_555 1_555
Co31_2 O61_5 1_555 1_555
Co32 O50_5 1_555 1_555
Co29_2 O66_5 1_555 1_555
Co30 O29_3 1_555 1_555
Co30_3 O12_3 1_555 1_555
Co36 O45_5 1_555 1_555
Co34_3 O34_3 1_555 1_555
Co34 O17_3 1_555 1_555
O72_3 Co5_3 1_555 1_555
O73_3 Co5_3 1_555 1_555
O74_5 Co11_3 1_555 1_555
O75_9 Co13_3 1_555 1_555
O76_3 Co6_3 1_555 1_555
O77_3 Co6_3 1_555 1_555
O78_5 Co12_3 1_555 1_555
O79_9 Co14_3 1_555 1_555
C4_3 C8_3 1_555 1_555
C6_3 C7_3 1_555 1_555
C9_3 C12_3 1_555 1_555
C18_3 C19_3 1_555 1_555
C21_3 C24_3 1_555 1_555
C30_3 C31_3 1_555 1_555
C33_3 C34_3 1_555 1_555
C33_3 C36_3 1_555 1_555
O91 C44_3 1_555 1_555
C40_3 C44_3 1_555 1_555
C42_3 C43_3 1_555 1_555
C45_3 C48_3 1_555 1_555
C54_3 C55_3 1_555 1_555
C57_3 C60_3 1_555 1_555
C66_3 C67_3 1_555 1_555
C69_3 C70_3 1_555 1_555
C69_3 C72_3 1_555 1_555
O37_3 C73_5 1_555 1_555
C76_5 C80_5 1_555 1_555
C78_5 C79_5 1_555 1_555
C81_5 C84_5 1_555 1_555
O42_5 Co13_3 1_555 1_555
O43_5 Co14_3 1_555 1_555
C90_5 C91_5 1_555 1_555
C93_5 C96_5 1_555 1_555
C102_5 C103_5 1_555 1_555
C105_5 C106_5 1_555 1_555
C105_5 C108_5 1_555 1_555
O53_3 C109_5 1_555 1_555
C112_5 C116_5 1_555 1_555
C114_5 C115_5 1_555 1_555
C117_5 C120_5 1_555 1_555
O58_5 Co15_5 1_555 1_555
O59_5 Co18_5 1_555 1_555
C126_5 C127_5 1_555 1_555
C129_5 C132_5 1_555 1_555
O63_5 Co11_3 1_555 1_555
O64_5 Co12_3 1_555 1_555
C138_5 C139_5 1_555 1_555
C141_5 C142_5 1_555 1_555
C141_5 C144_5 1_555 1_555
C12_3 H89_3 1_555 1_555
C24_3 H92_5 1_555 1_555
C36_3 H97_5 1_555 1_555
C48_3 H98_3 1_555 1_555
C60_3 H99_13 1_555 1_555
C72_3 H100_13 1_555 1_555
C84_5 H103_9 1_555 1_555
C96_5 H104_5 1_555 1_555
C108_5 H105_5 1_555 1_555
C120_5 H108_13 1_555 1_555
C132_5 H109_5 1_555 1_555
C144_5 H112_5 1_555 1_555
Co1_4 O1_4 1_555 1_555
Co2_4 O2_4 1_555 1_555
O1_4 C1_4 1_555 1_555
O2_4 C1_4 1_555 1_555
O90_2 C8_4 1_555 1_555
O5_4 Co2_4 1_555 1_555
O6_4 Co1_4 1_555 1_555
O8_4 C6_4 1_555 1_555
C1_4 C2_4 1_555 1_555
C2_4 C3_4 1_555 1_555
C3_4 H1_4 1_555 1_555
C4_4 C3_4 1_555 1_555
C5_4 C4_4 1_555 1_555
H2_4 C5_4 1_555 1_555
C6_4 C5_4 1_555 1_555
C7_4 C2_4 1_555 1_555
H3_4 C7_4 1_555 1_555
C8_4 O82_2 1_555 1_555
C9_4 C10_4 1_555 1_555
C10_4 C11_4 1_555 1_555
C11_4 H4_4 1_555 1_555
H5_4 C11_4 1_555 1_555
C12_4 O8_4 1_555 1_555
H6_4 C12_4 1_555 1_555
O9_4 C13_4 1_555 1_555
O10_4 C13_4 1_555 1_555
O11_4 C20_4 1_555 1_555
O12_4 C20_4 1_555 1_555
O13_4 C18_4 1_555 1_555
C13_4 C14_4 1_555 1_555
C14_4 C15_4 1_555 1_555
C15_4 H7_4 1_555 1_555
C16_4 C15_4 1_555 1_555
C17_4 C16_4 1_555 1_555
H8_4 C17_4 1_555 1_555
C18_4 C17_4 1_555 1_555
C19_4 C14_4 1_555 1_555
H9_4 C19_4 1_555 1_555
C20_4 C16_4 1_555 1_555
C21_4 C10_4 1_555 1_555
C22_4 C21_4 1_555 1_555
C23_4 C22_4 1_555 1_555
H10_4 C23_4 1_555 1_555
H11_4 C23_4 1_555 1_555
C24_4 O13_4 1_555 1_555
H12_4 C24_4 1_555 1_555
O14_4 C25_4 1_555 1_555
O15_4 C25_4 1_555 1_555
O16_4 C32_4 1_555 1_555
O17_4 C32_4 1_555 1_555
O18_4 C30_4 1_555 1_555
C25_4 C26_4 1_555 1_555
C26_4 C27_4 1_555 1_555
C27_4 H13_4 1_555 1_555
C28_4 C27_4 1_555 1_555
C29_4 C28_4 1_555 1_555
H14_4 C29_4 1_555 1_555
C30_4 C29_4 1_555 1_555
C31_4 C26_4 1_555 1_555
H15_4 C31_4 1_555 1_555
C32_4 C28_4 1_555 1_555
C33_4 C22_4 1_555 1_555
C34_4 C9_4 1_555 1_555
C35_4 C34_4 1_555 1_555
H16_4 C35_4 1_555 1_555
H17_4 C35_4 1_555 1_555
C36_4 O18_4 1_555 1_555
H18_4 C36_4 1_555 1_555
H19_4 C35_4 1_555 1_555
H20_4 C11_4 1_555 1_555
H21_4 C23_4 1_555 1_555
Co5_4 O19_4 1_555 1_555
Co6_4 O20_4 1_555 1_555
O19_4 C37_4 1_555 1_555
O20_4 C37_4 1_555 1_555
O23_4 Co6_4 1_555 1_555
O24_4 Co5_4 1_555 1_555
O25_4 C42_4 1_555 1_555
C37_4 C38_4 1_555 1_555
C38_4 C39_4 1_555 1_555
C39_4 H22_4 1_555 1_555
C40_4 C39_4 1_555 1_555
C41_4 C40_4 1_555 1_555
H23_4 C41_4 1_555 1_555
C42_4 C41_4 1_555 1_555
C43_4 C38_4 1_555 1_555
H24_4 C43_4 1_555 1_555
C44_4 O83_2 1_555 1_555
C45_4 C46_4 1_555 1_555
C46_4 C47_4 1_555 1_555
C47_4 H25_4 1_555 1_555
H26_4 C47_4 1_555 1_555
C48_4 O25_4 1_555 1_555
H27_4 C48_4 1_555 1_555
O26_4 C49_4 1_555 1_555
O27_4 C49_4 1_555 1_555
O28_4 C56_4 1_555 1_555
O29_4 C56_4 1_555 1_555
O30_4 C54_4 1_555 1_555
C49_4 C50_4 1_555 1_555
C50_4 C51_4 1_555 1_555
C51_4 H28_4 1_555 1_555
C52_4 C51_4 1_555 1_555
C53_4 C52_4 1_555 1_555
H29_4 C53_4 1_555 1_555
C54_4 C53_4 1_555 1_555
C55_4 C50_4 1_555 1_555
H30_4 C55_4 1_555 1_555
C56_4 C52_4 1_555 1_555
C57_4 C46_4 1_555 1_555
C58_4 C57_4 1_555 1_555
C59_4 C58_4 1_555 1_555
H31_4 C59_4 1_555 1_555
H32_4 C59_4 1_555 1_555
C60_4 O30_4 1_555 1_555
H33_4 C60_4 1_555 1_555
O31_4 C61_4 1_555 1_555
O32_4 C61_4 1_555 1_555
O33_4 C68_4 1_555 1_555
O34_4 C68_4 1_555 1_555
O35_4 C66_4 1_555 1_555
C61_4 C62_4 1_555 1_555
C62_4 C63_4 1_555 1_555
C63_4 H34_4 1_555 1_555
C64_4 C63_4 1_555 1_555
C65_4 C64_4 1_555 1_555
H35_4 C65_4 1_555 1_555
C66_4 C65_4 1_555 1_555
C67_4 C62_4 1_555 1_555
H36_4 C67_4 1_555 1_555
C68_4 C64_4 1_555 1_555
C69_4 C58_4 1_555 1_555
C70_4 C45_4 1_555 1_555
C71_4 C70_4 1_555 1_555
H37_4 C71_4 1_555 1_555
H38_4 C71_4 1_555 1_555
C72_4 O35_4 1_555 1_555
H39_4 C72_4 1_555 1_555
H40_4 C71_4 1_555 1_555
H41_4 C47_4 1_555 1_555
H42_4 C59_4 1_555 1_555
O36_4 Co1_4 1_555 1_555
O37_4 Co2_4 1_555 1_555
O92_2 C80_6 1_555 1_555
O41_6 C78_6 1_555 1_555
C73_6 O36_4 1_555 1_555
C74_6 C73_6 1_555 1_555
C75_6 C74_6 1_555 1_555
H43_6 C75_6 1_555 1_555
C76_6 C75_6 1_555 1_555
C77_6 C76_6 1_555 1_555
H44_6 C77_6 1_555 1_555
C78_6 C77_6 1_555 1_555
C79_6 C74_6 1_555 1_555
H45_6 C79_6 1_555 1_555
C80_6 O84_2 1_555 1_555
C81_6 C82_6 1_555 1_555
C82_6 C83_6 1_555 1_555
C83_6 H46_6 1_555 1_555
H47_6 C83_6 1_555 1_555
C84_6 O41_6 1_555 1_555
H48_6 C84_6 1_555 1_555
O42_6 C85_6 1_555 1_555
O43_6 C85_6 1_555 1_555
O44_6 C92_6 1_555 1_555
O45_6 C92_6 1_555 1_555
O46_6 C90_6 1_555 1_555
C85_6 C86_6 1_555 1_555
C86_6 C87_6 1_555 1_555
C87_6 H49_6 1_555 1_555
C88_6 C87_6 1_555 1_555
C89_6 C88_6 1_555 1_555
H50_6 C89_6 1_555 1_555
C90_6 C89_6 1_555 1_555
C91_6 C86_6 1_555 1_555
H51_6 C91_6 1_555 1_555
C92_6 C88_6 1_555 1_555
C93_6 C82_6 1_555 1_555
C94_6 C93_6 1_555 1_555
C95_6 C94_6 1_555 1_555
H52_6 C95_6 1_555 1_555
H53_6 C95_6 1_555 1_555
C96_6 O46_6 1_555 1_555
H54_6 C96_6 1_555 1_555
O47_6 C97_6 1_555 1_555
O48_6 C97_6 1_555 1_555
O49_6 C104_6 1_555 1_555
O50_6 C104_6 1_555 1_555
O51_6 C102_6 1_555 1_555
C97_6 C98_6 1_555 1_555
C98_6 C99_6 1_555 1_555
C99_6 H55_6 1_555 1_555
C100_6 C99_6 1_555 1_555
C101_6 C100_6 1_555 1_555
H56_6 C101_6 1_555 1_555
C102_6 C101_6 1_555 1_555
C103_6 C98_6 1_555 1_555
H57_6 C103_6 1_555 1_555
C104_6 C100_6 1_555 1_555
C105_6 C94_6 1_555 1_555
C106_6 C81_6 1_555 1_555
C107_6 C106_6 1_555 1_555
H58_6 C107_6 1_555 1_555
H59_6 C107_6 1_555 1_555
C108_6 O51_6 1_555 1_555
H60_6 C108_6 1_555 1_555
H61_6 C107_6 1_555 1_555
H62_6 C83_6 1_555 1_555
H63_6 C95_6 1_555 1_555
O52_4 Co1_4 1_555 1_555
O53_4 Co2_4 1_555 1_555
O94_2 C116_6 1_555 1_555
O57_6 C114_6 1_555 1_555
C109_6 O52_4 1_555 1_555
C110_6 C109_6 1_555 1_555
C111_6 C110_6 1_555 1_555
H64_6 C111_6 1_555 1_555
C112_6 C111_6 1_555 1_555
C113_6 C112_6 1_555 1_555
H65_6 C113_6 1_555 1_555
C114_6 C113_6 1_555 1_555
C115_6 C110_6 1_555 1_555
H66_6 C115_6 1_555 1_555
C116_6 O86_2 1_555 1_555
C117_6 C118_6 1_555 1_555
C118_6 C119_6 1_555 1_555
C119_6 H67_6 1_555 1_555
H68_6 C119_6 1_555 1_555
C120_6 O57_6 1_555 1_555
H69_6 C120_6 1_555 1_555
O58_6 C121_6 1_555 1_555
O59_6 C121_6 1_555 1_555
O60_6 C128_6 1_555 1_555
O61_6 C128_6 1_555 1_555
O62_6 C126_6 1_555 1_555
C121_6 C122_6 1_555 1_555
C122_6 C123_6 1_555 1_555
C123_6 H70_6 1_555 1_555
C124_6 C123_6 1_555 1_555
C125_6 C124_6 1_555 1_555
H71_6 C125_6 1_555 1_555
C126_6 C125_6 1_555 1_555
C127_6 C122_6 1_555 1_555
H72_6 C127_6 1_555 1_555
C128_6 C124_6 1_555 1_555
C129_6 C118_6 1_555 1_555
C130_6 C129_6 1_555 1_555
C131_6 C130_6 1_555 1_555
H73_6 C131_6 1_555 1_555
H74_6 C131_6 1_555 1_555
C132_6 O62_6 1_555 1_555
H75_6 C132_6 1_555 1_555
O63_6 C133_6 1_555 1_555
O64_6 C133_6 1_555 1_555
O65_6 C140_6 1_555 1_555
O66_6 C140_6 1_555 1_555
O67_6 C138_6 1_555 1_555
C133_6 C134_6 1_555 1_555
C134_6 C135_6 1_555 1_555
C135_6 H76_6 1_555 1_555
C136_6 C135_6 1_555 1_555
C137_6 C136_6 1_555 1_555
H77_6 C137_6 1_555 1_555
C138_6 C137_6 1_555 1_555
C139_6 C134_6 1_555 1_555
H78_6 C139_6 1_555 1_555
C140_6 C136_6 1_555 1_555
C141_6 C130_6 1_555 1_555
C142_6 C117_6 1_555 1_555
C143_6 C142_6 1_555 1_555
H79_6 C143_6 1_555 1_555
H80_6 C143_6 1_555 1_555
C144_6 O67_6 1_555 1_555
H81_6 C144_6 1_555 1_555
H82_6 C143_6 1_555 1_555
H83_6 C119_6 1_555 1_555
H84_6 C131_6 1_555 1_555
Co11_4 O9_4 1_555 1_555
O68_6 Co11_4 1_555 1_555
Co12_4 O10_4 1_555 1_555
O69_6 Co12_4 1_555 1_555
Co13_4 O14_4 1_555 1_555
O70_10 Co13_4 1_555 1_555
Co14_4 O15_4 1_555 1_555
O71_10 Co14_4 1_555 1_555
Co15_6 O47_6 1_555 1_555
Co16_4 O26_4 1_555 1_555
Co17_4 O31_4 1_555 1_555
Co18_6 O48_6 1_555 1_555
Co19_4 O27_4 1_555 1_555
Co20_4 O32_4 1_555 1_555
Co23_4 O60_6 1_555 1_555
Co24_2 O49_6 1_555 1_555
Co21_4 O65_6 1_555 1_555
Co22_2 O28_4 1_555 1_555
Co22_4 O11_4 1_555 1_555
Co27_2 O44_6 1_555 1_555
Co26_2 O33_4 1_555 1_555
Co26_4 O16_4 1_555 1_555
Co31_4 O61_6 1_555 1_555
Co32_2 O50_6 1_555 1_555
Co29_4 O66_6 1_555 1_555
Co30_2 O29_4 1_555 1_555
Co30_4 O12_4 1_555 1_555
Co35_2 O45_6 1_555 1_555
Co34_2 O34_4 1_555 1_555
Co34_4 O17_4 1_555 1_555
O72_4 Co5_4 1_555 1_555
O73_4 Co5_4 1_555 1_555
O74_6 Co11_4 1_555 1_555
O75_10 Co13_4 1_555 1_555
O76_4 Co6_4 1_555 1_555
O77_4 Co6_4 1_555 1_555
O78_6 Co12_4 1_555 1_555
O79_10 Co14_4 1_555 1_555
C4_4 C8_4 1_555 1_555
C6_4 C7_4 1_555 1_555
C9_4 C12_4 1_555 1_555
C18_4 C19_4 1_555 1_555
C21_4 C24_4 1_555 1_555
C30_4 C31_4 1_555 1_555
C33_4 C34_4 1_555 1_555
C33_4 C36_4 1_555 1_555
O91_2 C44_4 1_555 1_555
C40_4 C44_4 1_555 1_555
C42_4 C43_4 1_555 1_555
C45_4 C48_4 1_555 1_555
C54_4 C55_4 1_555 1_555
C57_4 C60_4 1_555 1_555
C66_4 C67_4 1_555 1_555
C69_4 C70_4 1_555 1_555
C69_4 C72_4 1_555 1_555
O37_4 C73_6 1_555 1_555
C76_6 C80_6 1_555 1_555
C78_6 C79_6 1_555 1_555
C81_6 C84_6 1_555 1_555
O42_6 Co13_4 1_555 1_555
O43_6 Co14_4 1_555 1_555
C90_6 C91_6 1_555 1_555
C93_6 C96_6 1_555 1_555
C102_6 C103_6 1_555 1_555
C105_6 C106_6 1_555 1_555
C105_6 C108_6 1_555 1_555
O53_4 C109_6 1_555 1_555
C112_6 C116_6 1_555 1_555
C114_6 C115_6 1_555 1_555
C117_6 C120_6 1_555 1_555
O58_6 Co15_6 1_555 1_555
O59_6 Co18_6 1_555 1_555
C126_6 C127_6 1_555 1_555
C129_6 C132_6 1_555 1_555
O63_6 Co11_4 1_555 1_555
O64_6 Co12_4 1_555 1_555
C138_6 C139_6 1_555 1_555
C141_6 C142_6 1_555 1_555
C141_6 C144_6 1_555 1_555
C12_4 H89_4 1_555 1_555
C24_4 H92_6 1_555 1_555
C36_4 H97_6 1_555 1_555
C48_4 H98_4 1_555 1_555
C60_4 H99_14 1_555 1_555
C72_4 H100_14 1_555 1_555
C84_6 H103_10 1_555 1_555
C96_6 H104_6 1_555 1_555
C108_6 H105_6 1_555 1_555
C120_6 H108_14 1_555 1_555
C132_6 H109_6 1_555 1_555
C144_6 H112_6 1_555 1_555
O93 C80_7 1_555 1_555
O41_7 C78_7 1_555 1_555
C73_7 O72_4 1_555 1_555
C74_7 C73_7 1_555 1_555
C75_7 C74_7 1_555 1_555
H43_7 C75_7 1_555 1_555
C76_7 C75_7 1_555 1_555
C77_7 C76_7 1_555 1_555
H44_7 C77_7 1_555 1_555
C78_7 C77_7 1_555 1_555
C79_7 C74_7 1_555 1_555
H45_7 C79_7 1_555 1_555
C80_7 O85 1_555 1_555
C81_7 C82_7 1_555 1_555
C82_7 C83_7 1_555 1_555
C83_7 H46_7 1_555 1_555
H47_7 C83_7 1_555 1_555
C84_7 O41_7 1_555 1_555
H48_7 C84_7 1_555 1_555
O42_7 C85_7 1_555 1_555
O43_7 C85_7 1_555 1_555
O44_7 C92_7 1_555 1_555
O45_7 C92_7 1_555 1_555
O46_7 C90_7 1_555 1_555
C85_7 C86_7 1_555 1_555
C86_7 C87_7 1_555 1_555
C87_7 H49_7 1_555 1_555
C88_7 C87_7 1_555 1_555
C89_7 C88_7 1_555 1_555
H50_7 C89_7 1_555 1_555
C90_7 C89_7 1_555 1_555
C91_7 C86_7 1_555 1_555
H51_7 C91_7 1_555 1_555
C92_7 C88_7 1_555 1_555
C93_7 C82_7 1_555 1_555
C94_7 C93_7 1_555 1_555
C95_7 C94_7 1_555 1_555
H52_7 C95_7 1_555 1_555
H53_7 C95_7 1_555 1_555
C96_7 O46_7 1_555 1_555
H54_7 C96_7 1_555 1_555
O47_7 C97_7 1_555 1_555
O48_7 C97_7 1_555 1_555
O49_7 C104_7 1_555 1_555
O50_7 C104_7 1_555 1_555
O51_7 C102_7 1_555 1_555
C97_7 C98_7 1_555 1_555
C98_7 C99_7 1_555 1_555
C99_7 H55_7 1_555 1_555
C100_7 C99_7 1_555 1_555
C101_7 C100_7 1_555 1_555
H56_7 C101_7 1_555 1_555
C102_7 C101_7 1_555 1_555
C103_7 C98_7 1_555 1_555
H57_7 C103_7 1_555 1_555
C104_7 C100_7 1_555 1_555
C105_7 C94_7 1_555 1_555
C106_7 C81_7 1_555 1_555
C107_7 C106_7 1_555 1_555
H58_7 C107_7 1_555 1_555
H59_7 C107_7 1_555 1_555
C108_7 O51_7 1_555 1_555
H60_7 C108_7 1_555 1_555
H61_7 C107_7 1_555 1_555
H62_7 C83_7 1_555 1_555
H63_7 C95_7 1_555 1_555
O94 C116_7 1_555 1_555
O57_7 C114_7 1_555 1_555
C109_7 O73_4 1_555 1_555
C110_7 C109_7 1_555 1_555
C111_7 C110_7 1_555 1_555
H64_7 C111_7 1_555 1_555
C112_7 C111_7 1_555 1_555
C113_7 C112_7 1_555 1_555
H65_7 C113_7 1_555 1_555
C114_7 C113_7 1_555 1_555
C115_7 C110_7 1_555 1_555
H66_7 C115_7 1_555 1_555
C116_7 O86 1_555 1_555
C117_7 C118_7 1_555 1_555
C118_7 C119_7 1_555 1_555
C119_7 H67_7 1_555 1_555
H68_7 C119_7 1_555 1_555
C120_7 O57_7 1_555 1_555
H69_7 C120_7 1_555 1_555
O58_7 C121_7 1_555 1_555
O59_7 C121_7 1_555 1_555
O60_7 C128_7 1_555 1_555
O61_7 C128_7 1_555 1_555
O62_7 C126_7 1_555 1_555
C121_7 C122_7 1_555 1_555
C122_7 C123_7 1_555 1_555
C123_7 H70_7 1_555 1_555
C124_7 C123_7 1_555 1_555
C125_7 C124_7 1_555 1_555
H71_7 C125_7 1_555 1_555
C126_7 C125_7 1_555 1_555
C127_7 C122_7 1_555 1_555
H72_7 C127_7 1_555 1_555
C128_7 C124_7 1_555 1_555
C129_7 C118_7 1_555 1_555
C130_7 C129_7 1_555 1_555
C131_7 C130_7 1_555 1_555
H73_7 C131_7 1_555 1_555
H74_7 C131_7 1_555 1_555
C132_7 O62_7 1_555 1_555
H75_7 C132_7 1_555 1_555
O63_7 C133_7 1_555 1_555
O64_7 C133_7 1_555 1_555
O65_7 C140_7 1_555 1_555
O66_7 C140_7 1_555 1_555
O67_7 C138_7 1_555 1_555
C133_7 C134_7 1_555 1_555
C134_7 C135_7 1_555 1_555
C135_7 H76_7 1_555 1_555
C136_7 C135_7 1_555 1_555
C137_7 C136_7 1_555 1_555
H77_7 C137_7 1_555 1_555
C138_7 C137_7 1_555 1_555
C139_7 C134_7 1_555 1_555
H78_7 C139_7 1_555 1_555
C140_7 C136_7 1_555 1_555
C141_7 C130_7 1_555 1_555
C142_7 C117_7 1_555 1_555
C143_7 C142_7 1_555 1_555
H79_7 C143_7 1_555 1_555
H80_7 C143_7 1_555 1_555
C144_7 O67_7 1_555 1_555
H81_7 C144_7 1_555 1_555
H82_7 C143_7 1_555 1_555
H83_7 C119_7 1_555 1_555
H84_7 C131_7 1_555 1_555
O68_7 Co16_4 1_555 1_555
O69_7 Co19_4 1_555 1_555
O70_11 Co17_4 1_555 1_555
O71_11 Co20_4 1_555 1_555
Co15_7 O47_7 1_555 1_555
Co18_7 O48_7 1_555 1_555
Co23 O60_7 1_555 1_555
Co25 O49_7 1_555 1_555
Co21_3 O65_7 1_555 1_555
Co27 O44_7 1_555 1_555
Co31 O61_7 1_555 1_555
Co33 O50_7 1_555 1_555
Co29_3 O66_7 1_555 1_555
Co35 O45_7 1_555 1_555
O74_7 Co16_4 1_555 1_555
O75_11 Co17_4 1_555 1_555
O78_7 Co19_4 1_555 1_555
O79_11 Co20_4 1_555 1_555
O76_4 C73_7 1_555 1_555
C76_7 C80_7 1_555 1_555
C78_7 C79_7 1_555 1_555
C81_7 C84_7 1_555 1_555
O42_7 Co17_4 1_555 1_555
O43_7 Co20_4 1_555 1_555
C90_7 C91_7 1_555 1_555
C93_7 C96_7 1_555 1_555
C102_7 C103_7 1_555 1_555
C105_7 C106_7 1_555 1_555
C105_7 C108_7 1_555 1_555
O77_4 C109_7 1_555 1_555
C112_7 C116_7 1_555 1_555
C114_7 C115_7 1_555 1_555
C117_7 C120_7 1_555 1_555
O58_7 Co15_7 1_555 1_555
O59_7 Co18_7 1_555 1_555
C126_7 C127_7 1_555 1_555
C129_7 C132_7 1_555 1_555
O63_7 Co16_4 1_555 1_555
O64_7 Co19_4 1_555 1_555
C138_7 C139_7 1_555 1_555
C141_7 C142_7 1_555 1_555
C141_7 C144_7 1_555 1_555
C60_4 H92_7 1_555 1_555
C72_4 H97_7 1_555 1_555
C24_4 H99_15 1_555 1_555
C36_4 H100_15 1_555 1_555
C84_7 H103_11 1_555 1_555
C96_7 H104_7 1_555 1_555
C108_7 H105_7 1_555 1_555
C120_7 H108_15 1_555 1_555
C132_7 H109_7 1_555 1_555
C144_7 H112_7 1_555 1_555
O93_2 C80_8 1_555 1_555
O41_8 C78_8 1_555 1_555
C73_8 O72_3 1_555 1_555
C74_8 C73_8 1_555 1_555
C75_8 C74_8 1_555 1_555
H43_8 C75_8 1_555 1_555
C76_8 C75_8 1_555 1_555
C77_8 C76_8 1_555 1_555
H44_8 C77_8 1_555 1_555
C78_8 C77_8 1_555 1_555
C79_8 C74_8 1_555 1_555
H45_8 C79_8 1_555 1_555
C80_8 O85_2 1_555 1_555
C81_8 C82_8 1_555 1_555
C82_8 C83_8 1_555 1_555
C83_8 H46_8 1_555 1_555
H47_8 C83_8 1_555 1_555
C84_8 O41_8 1_555 1_555
H48_8 C84_8 1_555 1_555
O42_8 C85_8 1_555 1_555
O43_8 C85_8 1_555 1_555
O44_8 C92_8 1_555 1_555
O45_8 C92_8 1_555 1_555
O46_8 C90_8 1_555 1_555
C85_8 C86_8 1_555 1_555
C86_8 C87_8 1_555 1_555
C87_8 H49_8 1_555 1_555
C88_8 C87_8 1_555 1_555
C89_8 C88_8 1_555 1_555
H50_8 C89_8 1_555 1_555
C90_8 C89_8 1_555 1_555
C91_8 C86_8 1_555 1_555
H51_8 C91_8 1_555 1_555
C92_8 C88_8 1_555 1_555
C93_8 C82_8 1_555 1_555
C94_8 C93_8 1_555 1_555
C95_8 C94_8 1_555 1_555
H52_8 C95_8 1_555 1_555
H53_8 C95_8 1_555 1_555
C96_8 O46_8 1_555 1_555
H54_8 C96_8 1_555 1_555
O47_8 C97_8 1_555 1_555
O48_8 C97_8 1_555 1_555
O49_8 C104_8 1_555 1_555
O50_8 C104_8 1_555 1_555
O51_8 C102_8 1_555 1_555
C97_8 C98_8 1_555 1_555
C98_8 C99_8 1_555 1_555
C99_8 H55_8 1_555 1_555
C100_8 C99_8 1_555 1_555
C101_8 C100_8 1_555 1_555
H56_8 C101_8 1_555 1_555
C102_8 C101_8 1_555 1_555
C103_8 C98_8 1_555 1_555
H57_8 C103_8 1_555 1_555
C104_8 C100_8 1_555 1_555
C105_8 C94_8 1_555 1_555
C106_8 C81_8 1_555 1_555
C107_8 C106_8 1_555 1_555
H58_8 C107_8 1_555 1_555
H59_8 C107_8 1_555 1_555
C108_8 O51_8 1_555 1_555
H60_8 C108_8 1_555 1_555
H61_8 C107_8 1_555 1_555
H62_8 C83_8 1_555 1_555
H63_8 C95_8 1_555 1_555
O95 C116_8 1_555 1_555
O57_8 C114_8 1_555 1_555
C109_8 O73_3 1_555 1_555
C110_8 C109_8 1_555 1_555
C111_8 C110_8 1_555 1_555
H64_8 C111_8 1_555 1_555
C112_8 C111_8 1_555 1_555
C113_8 C112_8 1_555 1_555
H65_8 C113_8 1_555 1_555
C114_8 C113_8 1_555 1_555
C115_8 C110_8 1_555 1_555
H66_8 C115_8 1_555 1_555
C116_8 O87 1_555 1_555
C117_8 C118_8 1_555 1_555
C118_8 C119_8 1_555 1_555
C119_8 H67_8 1_555 1_555
H68_8 C119_8 1_555 1_555
C120_8 O57_8 1_555 1_555
H69_8 C120_8 1_555 1_555
O58_8 C121_8 1_555 1_555
O59_8 C121_8 1_555 1_555
O60_8 C128_8 1_555 1_555
O61_8 C128_8 1_555 1_555
O62_8 C126_8 1_555 1_555
C121_8 C122_8 1_555 1_555
C122_8 C123_8 1_555 1_555
C123_8 H70_8 1_555 1_555
C124_8 C123_8 1_555 1_555
C125_8 C124_8 1_555 1_555
H71_8 C125_8 1_555 1_555
C126_8 C125_8 1_555 1_555
C127_8 C122_8 1_555 1_555
H72_8 C127_8 1_555 1_555
C128_8 C124_8 1_555 1_555
C129_8 C118_8 1_555 1_555
C130_8 C129_8 1_555 1_555
C131_8 C130_8 1_555 1_555
H73_8 C131_8 1_555 1_555
H74_8 C131_8 1_555 1_555
C132_8 O62_8 1_555 1_555
H75_8 C132_8 1_555 1_555
O63_8 C133_8 1_555 1_555
O64_8 C133_8 1_555 1_555
O65_8 C140_8 1_555 1_555
O66_8 C140_8 1_555 1_555
O67_8 C138_8 1_555 1_555
C133_8 C134_8 1_555 1_555
C134_8 C135_8 1_555 1_555
C135_8 H76_8 1_555 1_555
C136_8 C135_8 1_555 1_555
C137_8 C136_8 1_555 1_555
H77_8 C137_8 1_555 1_555
C138_8 C137_8 1_555 1_555
C139_8 C134_8 1_555 1_555
H78_8 C139_8 1_555 1_555
C140_8 C136_8 1_555 1_555
C141_8 C130_8 1_555 1_555
C142_8 C117_8 1_555 1_555
C143_8 C142_8 1_555 1_555
H79_8 C143_8 1_555 1_555
H80_8 C143_8 1_555 1_555
C144_8 O67_8 1_555 1_555
H81_8 C144_8 1_555 1_555
H82_8 C143_8 1_555 1_555
H83_8 C119_8 1_555 1_555
H84_8 C131_8 1_555 1_555
O68_8 Co16_3 1_555 1_555
O69_8 Co19_3 1_555 1_555
O70_12 Co17_3 1_555 1_555
O71_12 Co20_3 1_555 1_555
Co15_8 O47_8 1_555 1_555
Co18_8 O48_8 1_555 1_555
Co23_3 O60_8 1_555 1_555
Co25_2 O49_8 1_555 1_555
Co21 O65_8 1_555 1_555
Co28_2 O44_8 1_555 1_555
Co31_3 O61_8 1_555 1_555
Co33_2 O50_8 1_555 1_555
Co29 O66_8 1_555 1_555
Co36_2 O45_8 1_555 1_555
O74_8 Co16_3 1_555 1_555
O75_12 Co17_3 1_555 1_555
O78_8 Co19_3 1_555 1_555
O79_12 Co20_3 1_555 1_555
O76_3 C73_8 1_555 1_555
C76_8 C80_8 1_555 1_555
C78_8 C79_8 1_555 1_555
C81_8 C84_8 1_555 1_555
O42_8 Co17_3 1_555 1_555
O43_8 Co20_3 1_555 1_555
C90_8 C91_8 1_555 1_555
C93_8 C96_8 1_555 1_555
C102_8 C103_8 1_555 1_555
C105_8 C106_8 1_555 1_555
C105_8 C108_8 1_555 1_555
O77_3 C109_8 1_555 1_555
C112_8 C116_8 1_555 1_555
C114_8 C115_8 1_555 1_555
C117_8 C120_8 1_555 1_555
O58_8 Co15_8 1_555 1_555
O59_8 Co18_8 1_555 1_555
C126_8 C127_8 1_555 1_555
C129_8 C132_8 1_555 1_555
O63_8 Co16_3 1_555 1_555
O64_8 Co19_3 1_555 1_555
C138_8 C139_8 1_555 1_555
C141_8 C142_8 1_555 1_555
C141_8 C144_8 1_555 1_555
C60_3 H92_8 1_555 1_555
C72_3 H97_8 1_555 1_555
C24_3 H99_16 1_555 1_555
C36_3 H100_16 1_555 1_555
C84_8 H103_12 1_555 1_555
C96_8 H104_8 1_555 1_555
C108_8 H105_8 1_555 1_555
C120_8 H108_16 1_555 1_555
C132_8 H109_8 1_555 1_555
C144_8 H112_8 1_555 1_555
O70_13 Co15_5 1_555 1_555
O71_13 Co18_5 1_555 1_555
O75_13 Co15_5 1_555 1_555
O79_13 Co18_5 1_555 1_555
C96_7 H99_17 1_555 1_555
C108_7 H100_17 1_555 1_555
C120_5 H103_13 1_555 1_555
C12_3 H108_17 1_555 1_555
O70_14 Co15_8 1_555 1_555
O71_14 Co18_8 1_555 1_555
O75_14 Co15_8 1_555 1_555
O79_14 Co18_8 1_555 1_555
C96_6 H99_18 1_555 1_555
C108_6 H100_18 1_555 1_555
C120_8 H103_14 1_555 1_555
C48_3 H108_18 1_555 1_555
O70_15 Co15_6 1_555 1_555
O71_15 Co18_6 1_555 1_555
O75_15 Co15_6 1_555 1_555
O79_15 Co18_6 1_555 1_555
C96_8 H99_19 1_555 1_555
C108_8 H100_19 1_555 1_555
C120_6 H103_15 1_555 1_555
C12_4 H108_19 1_555 1_555
O70_16 Co15_7 1_555 1_555
O71_16 Co18_7 1_555 1_555
O75_16 Co15_7 1_555 1_555
O79_16 Co18_7 1_555 1_555
C96_5 H99_20 1_555 1_555
C108_5 H100_20 1_555 1_555
C120_7 H103_16 1_555 1_555
C48_4 H108_20 1_555 1_555
C132_6 H99_21 1_555 1_555
C144_6 H100_21 1_555 1_555
C84_5 H108_21 1_555 1_555
C132_8 H99_22 1_555 1_555
C144_8 H100_22 1_555 1_555
C84_7 H108_22 1_555 1_555
C132_7 H99_23 1_555 1_555
C144_7 H100_23 1_555 1_555
C84_8 H108_23 1_555 1_555
C132_5 H99_24 1_555 1_555
C144_5 H100_24 1_555 1_555
C84_6 H108_24 1_555 1_555
Co3_3 Cl1_3 1_555 1_555
O7_3 Co4_3 1_555 1_555
O75_5 C37_5 1_555 1_555
O79_5 C37_5 1_555 1_555
O21_3 Co3_3 1_555 1_555
O22_3 Co4_3 1_555 1_555
O25_5 C42_5 1_555 1_555
C37_5 C38_5 1_555 1_555
C38_5 C39_5 1_555 1_555
C39_5 H22_5 1_555 1_555
C40_5 C39_5 1_555 1_555
C41_5 C40_5 1_555 1_555
H23_5 C41_5 1_555 1_555
C42_5 C41_5 1_555 1_555
C43_5 C38_5 1_555 1_555
H24_5 C43_5 1_555 1_555
C44_5 O21_3 1_555 1_555
C45_5 C46_5 1_555 1_555
C46_5 C47_5 1_555 1_555
C47_5 H25_5 1_555 1_555
H26_5 C47_5 1_555 1_555
C48_5 O25_5 1_555 1_555
H27_5 C48_5 1_555 1_555
O75 C49_5 1_555 1_555
O79 C49_5 1_555 1_555
O28_5 C56_5 1_555 1_555
O29_5 C56_5 1_555 1_555
O30_5 C54_5 1_555 1_555
C49_5 C50_5 1_555 1_555
C50_5 C51_5 1_555 1_555
C51_5 H28_5 1_555 1_555
C52_5 C51_5 1_555 1_555
C53_5 C52_5 1_555 1_555
H29_5 C53_5 1_555 1_555
C54_5 C53_5 1_555 1_555
C55_5 C50_5 1_555 1_555
H30_5 C55_5 1_555 1_555
C56_5 C52_5 1_555 1_555
C57_5 C46_5 1_555 1_555
C58_5 C57_5 1_555 1_555
C59_5 C58_5 1_555 1_555
H31_5 C59_5 1_555 1_555
H32_5 C59_5 1_555 1_555
C60_5 O30_5 1_555 1_555
H33_5 C60_5 1_555 1_555
O74 C61_5 1_555 1_555
O78 C61_5 1_555 1_555
O33_5 C68_5 1_555 1_555
O34_5 C68_5 1_555 1_555
O35_5 C66_5 1_555 1_555
C61_5 C62_5 1_555 1_555
C62_5 C63_5 1_555 1_555
C63_5 H34_5 1_555 1_555
C64_5 C63_5 1_555 1_555
C65_5 C64_5 1_555 1_555
H35_5 C65_5 1_555 1_555
C66_5 C65_5 1_555 1_555
C67_5 C62_5 1_555 1_555
H36_5 C67_5 1_555 1_555
C68_5 C64_5 1_555 1_555
C69_5 C58_5 1_555 1_555
C70_5 C45_5 1_555 1_555
C71_5 C70_5 1_555 1_555
H37_5 C71_5 1_555 1_555
H38_5 C71_5 1_555 1_555
C72_5 O35_5 1_555 1_555
H39_5 C72_5 1_555 1_555
H40_5 C71_5 1_555 1_555
H41_5 C47_5 1_555 1_555
H42_5 C59_5 1_555 1_555
Co24_3 O28_5 1_555 1_555
Co27_3 O33_5 1_555 1_555
Co32_3 O29_5 1_555 1_555
Co35_3 O34_5 1_555 1_555
O22_3 C44_5 1_555 1_555
C40_5 C44_5 1_555 1_555
C42_5 C43_5 1_555 1_555
C45_5 C48_5 1_555 1_555
C54_5 C55_5 1_555 1_555
C57_5 C60_5 1_555 1_555
C66_5 C67_5 1_555 1_555
C69_5 C70_5 1_555 1_555
C69_5 C72_5 1_555 1_555
C48_5 H98_5 1_555 1_555
C60_5 H99_25 1_555 1_555
C72_5 H100_25 1_555 1_555
Co3_4 Cl1_4 1_555 1_555
O7_4 Co4_4 1_555 1_555
Co22_3 Cl3_3 1_555 1_555
O56_3 Co30_3 1_555 1_555
O85_3 Co3_4 1_555 1_555
O93_3 Co4_4 1_555 1_555
Co3_5 Cl1_5 1_555 1_555
O7_5 Co4_5 1_555 1_555
Co21_3 Cl2_3 1_555 1_555
O40_3 Co29_3 1_555 1_555
O84_3 Co3_5 1_555 1_555
O92_3 Co4_5 1_555 1_555
Co3_6 Cl1_6 1_555 1_555
Co4_6 O4_3 1_555 1_555
O75_6 C1_5 1_555 1_555
O79_6 C1_5 1_555 1_555
O3_3 Co3_6 1_555 1_555
O4_3 C8_5 1_555 1_555
O7_6 Co4_6 1_555 1_555
O8_5 C6_5 1_555 1_555
C1_5 C2_5 1_555 1_555
C2_5 C3_5 1_555 1_555
C3_5 H1_5 1_555 1_555
C4_5 C3_5 1_555 1_555
C5_5 C4_5 1_555 1_555
H2_5 C5_5 1_555 1_555
C6_5 C5_5 1_555 1_555
C7_5 C2_5 1_555 1_555
H3_5 C7_5 1_555 1_555
C8_5 O3_3 1_555 1_555
C9_5 C10_5 1_555 1_555
C10_5 C11_5 1_555 1_555
C11_5 H4_5 1_555 1_555
H5_5 C11_5 1_555 1_555
C12_5 O8_5 1_555 1_555
H6_5 C12_5 1_555 1_555
O75_4 C13_5 1_555 1_555
O79_4 C13_5 1_555 1_555
O11_5 C20_5 1_555 1_555
O12_5 C20_5 1_555 1_555
O13_5 C18_5 1_555 1_555
C13_5 C14_5 1_555 1_555
C14_5 C15_5 1_555 1_555
C15_5 H7_5 1_555 1_555
C16_5 C15_5 1_555 1_555
C17_5 C16_5 1_555 1_555
H8_5 C17_5 1_555 1_555
C18_5 C17_5 1_555 1_555
C19_5 C14_5 1_555 1_555
H9_5 C19_5 1_555 1_555
C20_5 C16_5 1_555 1_555
C21_5 C10_5 1_555 1_555
C22_5 C21_5 1_555 1_555
C23_5 C22_5 1_555 1_555
H10_5 C23_5 1_555 1_555
H11_5 C23_5 1_555 1_555
C24_5 O13_5 1_555 1_555
H12_5 C24_5 1_555 1_555
O74_4 C25_5 1_555 1_555
O78_4 C25_5 1_555 1_555
O16_5 C32_5 1_555 1_555
O17_5 C32_5 1_555 1_555
O18_5 C30_5 1_555 1_555
C25_5 C26_5 1_555 1_555
C26_5 C27_5 1_555 1_555
C27_5 H13_5 1_555 1_555
C28_5 C27_5 1_555 1_555
C29_5 C28_5 1_555 1_555
H14_5 C29_5 1_555 1_555
C30_5 C29_5 1_555 1_555
C31_5 C26_5 1_555 1_555
H15_5 C31_5 1_555 1_555
C32_5 C28_5 1_555 1_555
C33_5 C22_5 1_555 1_555
C34_5 C9_5 1_555 1_555
C35_5 C34_5 1_555 1_555
H16_5 C35_5 1_555 1_555
H17_5 C35_5 1_555 1_555
C36_5 O18_5 1_555 1_555
H18_5 C36_5 1_555 1_555
H19_5 C35_5 1_555 1_555
H20_5 C11_5 1_555 1_555
H21_5 C23_5 1_555 1_555
Co21_4 Cl2_4 1_555 1_555
O40_4 Co29_4 1_555 1_555
Co22_4 Cl3_4 1_555 1_555
O56_4 Co30_4 1_555 1_555
Co25_4 O11_5 1_555 1_555
Co28_4 O16_5 1_555 1_555
Co33_4 O12_5 1_555 1_555
Co36_4 O17_5 1_555 1_555
C4_5 C8_5 1_555 1_555
C6_5 C7_5 1_555 1_555
C9_5 C12_5 1_555 1_555
C18_5 C19_5 1_555 1_555
C21_5 C24_5 1_555 1_555
C30_5 C31_5 1_555 1_555
C33_5 C34_5 1_555 1_555
C33_5 C36_5 1_555 1_555
C12_5 H89_5 1_555 1_555
C24_5 H92_9 1_555 1_555
C36_5 H97_9 1_555 1_555
Co3_7 Cl1_7 1_555 1_555
O7_7 Co4_7 1_555 1_555
Co21 Cl2_5 1_555 1_555
O40_5 Co29 1_555 1_555
O84_4 Co3_7 1_555 1_555
O92_4 Co4_7 1_555 1_555
Co3_8 Cl1_8 1_555 1_555
Co4_8 O4_4 1_555 1_555
O75_8 C1_6 1_555 1_555
O79_8 C1_6 1_555 1_555
O3_4 Co3_8 1_555 1_555
O4_4 C8_6 1_555 1_555
O7_8 Co4_8 1_555 1_555
O8_6 C6_6 1_555 1_555
C1_6 C2_6 1_555 1_555
C2_6 C3_6 1_555 1_555
C3_6 H1_6 1_555 1_555
C4_6 C3_6 1_555 1_555
C5_6 C4_6 1_555 1_555
H2_6 C5_6 1_555 1_555
C6_6 C5_6 1_555 1_555
C7_6 C2_6 1_555 1_555
H3_6 C7_6 1_555 1_555
C8_6 O3_4 1_555 1_555
C9_6 C10_6 1_555 1_555
C10_6 C11_6 1_555 1_555
C11_6 H4_6 1_555 1_555
H5_6 C11_6 1_555 1_555
C12_6 O8_6 1_555 1_555
H6_6 C12_6 1_555 1_555
O75_3 C13_6 1_555 1_555
O79_3 C13_6 1_555 1_555
O11_6 C20_6 1_555 1_555
O12_6 C20_6 1_555 1_555
O13_6 C18_6 1_555 1_555
C13_6 C14_6 1_555 1_555
C14_6 C15_6 1_555 1_555
C15_6 H7_6 1_555 1_555
C16_6 C15_6 1_555 1_555
C17_6 C16_6 1_555 1_555
H8_6 C17_6 1_555 1_555
C18_6 C17_6 1_555 1_555
C19_6 C14_6 1_555 1_555
H9_6 C19_6 1_555 1_555
C20_6 C16_6 1_555 1_555
C21_6 C10_6 1_555 1_555
C22_6 C21_6 1_555 1_555
C23_6 C22_6 1_555 1_555
H10_6 C23_6 1_555 1_555
H11_6 C23_6 1_555 1_555
C24_6 O13_6 1_555 1_555
H12_6 C24_6 1_555 1_555
O74_3 C25_6 1_555 1_555
O78_3 C25_6 1_555 1_555
O16_6 C32_6 1_555 1_555
O17_6 C32_6 1_555 1_555
O18_6 C30_6 1_555 1_555
C25_6 C26_6 1_555 1_555
C26_6 C27_6 1_555 1_555
C27_6 H13_6 1_555 1_555
C28_6 C27_6 1_555 1_555
C29_6 C28_6 1_555 1_555
H14_6 C29_6 1_555 1_555
C30_6 C29_6 1_555 1_555
C31_6 C26_6 1_555 1_555
H15_6 C31_6 1_555 1_555
C32_6 C28_6 1_555 1_555
C33_6 C22_6 1_555 1_555
C34_6 C9_6 1_555 1_555
C35_6 C34_6 1_555 1_555
H16_6 C35_6 1_555 1_555
H17_6 C35_6 1_555 1_555
C36_6 O18_6 1_555 1_555
H18_6 C36_6 1_555 1_555
H19_6 C35_6 1_555 1_555
H20_6 C11_6 1_555 1_555
H21_6 C23_6 1_555 1_555
Co21_2 Cl2_6 1_555 1_555
O40_6 Co29_2 1_555 1_555
Co25_5 O11_6 1_555 1_555
Co27_6 O16_6 1_555 1_555
Co33_5 O12_6 1_555 1_555
Co35_6 O17_6 1_555 1_555
C4_6 C8_6 1_555 1_555
C6_6 C7_6 1_555 1_555
C9_6 C12_6 1_555 1_555
C18_6 C19_6 1_555 1_555
C21_6 C24_6 1_555 1_555
C30_6 C31_6 1_555 1_555
C33_6 C34_6 1_555 1_555
C33_6 C36_6 1_555 1_555
C12_6 H89_6 1_555 1_555
C24_6 H92_10 1_555 1_555
C36_6 H97_10 1_555 1_555
Co3_9 Cl1_9 1_555 1_555
O7_9 Co4_9 1_555 1_555
O75_7 C37_6 1_555 1_555
O79_7 C37_6 1_555 1_555
O21_4 Co3_9 1_555 1_555
O22_4 Co4_9 1_555 1_555
O25_6 C42_6 1_555 1_555
C37_6 C38_6 1_555 1_555
C38_6 C39_6 1_555 1_555
C39_6 H22_6 1_555 1_555
C40_6 C39_6 1_555 1_555
C41_6 C40_6 1_555 1_555
H23_6 C41_6 1_555 1_555
C42_6 C41_6 1_555 1_555
C43_6 C38_6 1_555 1_555
H24_6 C43_6 1_555 1_555
C44_6 O21_4 1_555 1_555
C45_6 C46_6 1_555 1_555
C46_6 C47_6 1_555 1_555
C47_6 H25_6 1_555 1_555
H26_6 C47_6 1_555 1_555
C48_6 O25_6 1_555 1_555
H27_6 C48_6 1_555 1_555
O75_2 C49_6 1_555 1_555
O79_2 C49_6 1_555 1_555
O28_6 C56_6 1_555 1_555
O29_6 C56_6 1_555 1_555
O30_6 C54_6 1_555 1_555
C49_6 C50_6 1_555 1_555
C50_6 C51_6 1_555 1_555
C51_6 H28_6 1_555 1_555
C52_6 C51_6 1_555 1_555
C53_6 C52_6 1_555 1_555
H29_6 C53_6 1_555 1_555
C54_6 C53_6 1_555 1_555
C55_6 C50_6 1_555 1_555
H30_6 C55_6 1_555 1_555
C56_6 C52_6 1_555 1_555
C57_6 C46_6 1_555 1_555
C58_6 C57_6 1_555 1_555
C59_6 C58_6 1_555 1_555
H31_6 C59_6 1_555 1_555
H32_6 C59_6 1_555 1_555
C60_6 O30_6 1_555 1_555
H33_6 C60_6 1_555 1_555
O74_2 C61_6 1_555 1_555
O78_2 C61_6 1_555 1_555
O33_6 C68_6 1_555 1_555
O34_6 C68_6 1_555 1_555
O35_6 C66_6 1_555 1_555
C61_6 C62_6 1_555 1_555
C62_6 C63_6 1_555 1_555
C63_6 H34_6 1_555 1_555
C64_6 C63_6 1_555 1_555
C65_6 C64_6 1_555 1_555
H35_6 C65_6 1_555 1_555
C66_6 C65_6 1_555 1_555
C67_6 C62_6 1_555 1_555
H36_6 C67_6 1_555 1_555
C68_6 C64_6 1_555 1_555
C69_6 C58_6 1_555 1_555
C70_6 C45_6 1_555 1_555
C71_6 C70_6 1_555 1_555
H37_6 C71_6 1_555 1_555
H38_6 C71_6 1_555 1_555
C72_6 O35_6 1_555 1_555
H39_6 C72_6 1_555 1_555
H40_6 C71_6 1_555 1_555
H41_6 C47_6 1_555 1_555
H42_6 C59_6 1_555 1_555
Co24_6 O28_6 1_555 1_555
Co28_5 O33_6 1_555 1_555
Co32_6 O29_6 1_555 1_555
Co36_5 O34_6 1_555 1_555
O22_4 C44_6 1_555 1_555
C40_6 C44_6 1_555 1_555
C42_6 C43_6 1_555 1_555
C45_6 C48_6 1_555 1_555
C54_6 C55_6 1_555 1_555
C57_6 C60_6 1_555 1_555
C66_6 C67_6 1_555 1_555
C69_6 C70_6 1_555 1_555
C69_6 C72_6 1_555 1_555
C48_6 H98_6 1_555 1_555
C60_6 H99_26 1_555 1_555
C72_6 H100_26 1_555 1_555
Co3_10 Cl1_10 1_555 1_555
O7_10 Co4_10 1_555 1_555
O85_4 Co3_10 1_555 1_555
O93_4 Co4_10 1_555 1_555
Co22 Cl3_5 1_555 1_555
O56_5 Co30 1_555 1_555
C24_6 H99_27 1_555 1_555
C36_6 H100_27 1_555 1_555
Co22_2 Cl3_6 1_555 1_555
O56_6 Co30_2 1_555 1_555
C60_6 H92_11 1_555 1_555
C72_6 H97_11 1_555 1_555
C60_5 H92_12 1_555 1_555
C72_5 H97_12 1_555 1_555
C24_5 H99_28 1_555 1_555
C36_5 H100_28 1_555 1_555
C12_5 H108_25 1_555 1_555
C48_5 H108_26 1_555 1_555
C12_6 H108_27 1_555 1_555
C48_6 H108_28 1_555 1_555
O92_3 C80_9 1_555 1_555
O41_9 C78_9 1_555 1_555
C73_9 O74_7 1_555 1_555
C74_9 C73_9 1_555 1_555
C75_9 C74_9 1_555 1_555
H43_9 C75_9 1_555 1_555
C76_9 C75_9 1_555 1_555
C77_9 C76_9 1_555 1_555
H44_9 C77_9 1_555 1_555
C78_9 C77_9 1_555 1_555
C79_9 C74_9 1_555 1_555
H45_9 C79_9 1_555 1_555
C80_9 O84_3 1_555 1_555
C81_9 C82_9 1_555 1_555
C82_9 C83_9 1_555 1_555
C83_9 H46_9 1_555 1_555
H47_9 C83_9 1_555 1_555
C84_9 O41_9 1_555 1_555
H48_9 C84_9 1_555 1_555
O75_16 C85_9 1_555 1_555
O79_16 C85_9 1_555 1_555
O44_9 C92_9 1_555 1_555
O45_9 C92_9 1_555 1_555
O46_9 C90_9 1_555 1_555
C85_9 C86_9 1_555 1_555
C86_9 C87_9 1_555 1_555
C87_9 H49_9 1_555 1_555
C88_9 C87_9 1_555 1_555
C89_9 C88_9 1_555 1_555
H50_9 C89_9 1_555 1_555
C90_9 C89_9 1_555 1_555
C91_9 C86_9 1_555 1_555
H51_9 C91_9 1_555 1_555
C92_9 C88_9 1_555 1_555
C93_9 C82_9 1_555 1_555
C94_9 C93_9 1_555 1_555
C95_9 C94_9 1_555 1_555
H52_9 C95_9 1_555 1_555
H53_9 C95_9 1_555 1_555
C96_9 O46_9 1_555 1_555
H54_9 C96_9 1_555 1_555
O75_11 C97_9 1_555 1_555
O79_11 C97_9 1_555 1_555
O49_9 C104_9 1_555 1_555
O50_9 C104_9 1_555 1_555
O51_9 C102_9 1_555 1_555
C97_9 C98_9 1_555 1_555
C98_9 C99_9 1_555 1_555
C99_9 H55_9 1_555 1_555
C100_9 C99_9 1_555 1_555
C101_9 C100_9 1_555 1_555
H56_9 C101_9 1_555 1_555
C102_9 C101_9 1_555 1_555
C103_9 C98_9 1_555 1_555
H57_9 C103_9 1_555 1_555
C104_9 C100_9 1_555 1_555
C105_9 C94_9 1_555 1_555
C106_9 C81_9 1_555 1_555
C107_9 C106_9 1_555 1_555
H58_9 C107_9 1_555 1_555
H59_9 C107_9 1_555 1_555
C108_9 O51_9 1_555 1_555
H60_9 C108_9 1_555 1_555
H61_9 C107_9 1_555 1_555
H62_9 C83_9 1_555 1_555
H63_9 C95_9 1_555 1_555
Co24_4 O49_9 1_555 1_555
Co28_3 O44_9 1_555 1_555
Co32_4 O50_9 1_555 1_555
Co36_3 O45_9 1_555 1_555
O78_7 C73_9 1_555 1_555
C76_9 C80_9 1_555 1_555
C78_9 C79_9 1_555 1_555
C81_9 C84_9 1_555 1_555
C90_9 C91_9 1_555 1_555
C93_9 C96_9 1_555 1_555
C102_9 C103_9 1_555 1_555
C105_9 C106_9 1_555 1_555
C105_9 C108_9 1_555 1_555
C84_9 H103_17 1_555 1_555
C96_9 H104_9 1_555 1_555
C108_9 H105_9 1_555 1_555
O92_4 C80_10 1_555 1_555
O41_10 C78_10 1_555 1_555
C73_10 O74_8 1_555 1_555
C74_10 C73_10 1_555 1_555
C75_10 C74_10 1_555 1_555
H43_10 C75_10 1_555 1_555
C76_10 C75_10 1_555 1_555
C77_10 C76_10 1_555 1_555
H44_10 C77_10 1_555 1_555
C78_10 C77_10 1_555 1_555
C79_10 C74_10 1_555 1_555
H45_10 C79_10 1_555 1_555
C80_10 O84_4 1_555 1_555
C81_10 C82_10 1_555 1_555
C82_10 C83_10 1_555 1_555
C83_10 H46_10 1_555 1_555
H47_10 C83_10 1_555 1_555
C84_10 O41_10 1_555 1_555
H48_10 C84_10 1_555 1_555
O75_14 C85_10 1_555 1_555
O79_14 C85_10 1_555 1_555
O44_10 C92_10 1_555 1_555
O45_10 C92_10 1_555 1_555
O46_10 C90_10 1_555 1_555
C85_10 C86_10 1_555 1_555
C86_10 C87_10 1_555 1_555
C87_10 H49_10 1_555 1_555
C88_10 C87_10 1_555 1_555
C89_10 C88_10 1_555 1_555
H50_10 C89_10 1_555 1_555
C90_10 C89_10 1_555 1_555
C91_10 C86_10 1_555 1_555
H51_10 C91_10 1_555 1_555
C92_10 C88_10 1_555 1_555
C93_10 C82_10 1_555 1_555
C94_10 C93_10 1_555 1_555
C95_10 C94_10 1_555 1_555
H52_10 C95_10 1_555 1_555
H53_10 C95_10 1_555 1_555
C96_10 O46_10 1_555 1_555
H54_10 C96_10 1_555 1_555
O75_12 C97_10 1_555 1_555
O79_12 C97_10 1_555 1_555
O49_10 C104_10 1_555 1_555
O50_10 C104_10 1_555 1_555
O51_10 C102_10 1_555 1_555
C97_10 C98_10 1_555 1_555
C98_10 C99_10 1_555 1_555
C99_10 H55_10 1_555 1_555
C100_10 C99_10 1_555 1_555
C101_10 C100_10 1_555 1_555
H56_10 C101_10 1_555 1_555
C102_10 C101_10 1_555 1_555
C103_10 C98_10 1_555 1_555
H57_10 C103_10 1_555 1_555
C104_10 C100_10 1_555 1_555
C105_10 C94_10 1_555 1_555
C106_10 C81_10 1_555 1_555
C107_10 C106_10 1_555 1_555
H58_10 C107_10 1_555 1_555
H59_10 C107_10 1_555 1_555
C108_10 O51_10 1_555 1_555
H60_10 C108_10 1_555 1_555
H61_10 C107_10 1_555 1_555
H62_10 C83_10 1_555 1_555
H63_10 C95_10 1_555 1_555
Co24_5 O49_10 1_555 1_555
Co27_5 O44_10 1_555 1_555
Co32_5 O50_10 1_555 1_555
Co35_5 O45_10 1_555 1_555
O78_8 C73_10 1_555 1_555
C76_10 C80_10 1_555 1_555
C78_10 C79_10 1_555 1_555
C81_10 C84_10 1_555 1_555
C90_10 C91_10 1_555 1_555
C93_10 C96_10 1_555 1_555
C102_10 C103_10 1_555 1_555
C105_10 C106_10 1_555 1_555
C105_10 C108_10 1_555 1_555
C84_10 H103_18 1_555 1_555
C96_10 H104_10 1_555 1_555
C108_10 H105_10 1_555 1_555
O93_3 C80_11 1_555 1_555
O41_11 C78_11 1_555 1_555
C73_11 O74_5 1_555 1_555
C74_11 C73_11 1_555 1_555
C75_11 C74_11 1_555 1_555
H43_11 C75_11 1_555 1_555
C76_11 C75_11 1_555 1_555
C77_11 C76_11 1_555 1_555
H44_11 C77_11 1_555 1_555
C78_11 C77_11 1_555 1_555
C79_11 C74_11 1_555 1_555
H45_11 C79_11 1_555 1_555
C80_11 O85_3 1_555 1_555
C81_11 C82_11 1_555 1_555
C82_11 C83_11 1_555 1_555
C83_11 H46_11 1_555 1_555
H47_11 C83_11 1_555 1_555
C84_11 O41_11 1_555 1_555
H48_11 C84_11 1_555 1_555
O75_13 C85_11 1_555 1_555
O79_13 C85_11 1_555 1_555
O44_11 C92_11 1_555 1_555
O45_11 C92_11 1_555 1_555
O46_11 C90_11 1_555 1_555
C85_11 C86_11 1_555 1_555
C86_11 C87_11 1_555 1_555
C87_11 H49_11 1_555 1_555
C88_11 C87_11 1_555 1_555
C89_11 C88_11 1_555 1_555
H50_11 C89_11 1_555 1_555
C90_11 C89_11 1_555 1_555
C91_11 C86_11 1_555 1_555
H51_11 C91_11 1_555 1_555
C92_11 C88_11 1_555 1_555
C93_11 C82_11 1_555 1_555
C94_11 C93_11 1_555 1_555
C95_11 C94_11 1_555 1_555
H52_11 C95_11 1_555 1_555
H53_11 C95_11 1_555 1_555
C96_11 O46_11 1_555 1_555
H54_11 C96_11 1_555 1_555
O75_9 C97_11 1_555 1_555
O79_9 C97_11 1_555 1_555
O49_11 C104_11 1_555 1_555
O50_11 C104_11 1_555 1_555
O51_11 C102_11 1_555 1_555
C97_11 C98_11 1_555 1_555
C98_11 C99_11 1_555 1_555
C99_11 H55_11 1_555 1_555
C100_11 C99_11 1_555 1_555
C101_11 C100_11 1_555 1_555
H56_11 C101_11 1_555 1_555
C102_11 C101_11 1_555 1_555
C103_11 C98_11 1_555 1_555
H57_11 C103_11 1_555 1_555
C104_11 C100_11 1_555 1_555
C105_11 C94_11 1_555 1_555
C106_11 C81_11 1_555 1_555
C107_11 C106_11 1_555 1_555
H58_11 C107_11 1_555 1_555
H59_11 C107_11 1_555 1_555
C108_11 O51_11 1_555 1_555
H60_11 C108_11 1_555 1_555
H61_11 C107_11 1_555 1_555
H62_11 C83_11 1_555 1_555
H63_11 C95_11 1_555 1_555
Co25_3 O49_11 1_555 1_555
Co27_4 O44_11 1_555 1_555
Co33_3 O50_11 1_555 1_555
Co35_4 O45_11 1_555 1_555
O78_5 C73_11 1_555 1_555
C76_11 C80_11 1_555 1_555
C78_11 C79_11 1_555 1_555
C81_11 C84_11 1_555 1_555
C90_11 C91_11 1_555 1_555
C93_11 C96_11 1_555 1_555
C102_11 C103_11 1_555 1_555
C105_11 C106_11 1_555 1_555
C105_11 C108_11 1_555 1_555
C84_11 H103_19 1_555 1_555
C96_11 H104_11 1_555 1_555
C108_11 H105_11 1_555 1_555
O93_4 C80_12 1_555 1_555
O41_12 C78_12 1_555 1_555
C73_12 O74_6 1_555 1_555
C74_12 C73_12 1_555 1_555
C75_12 C74_12 1_555 1_555
H43_12 C75_12 1_555 1_555
C76_12 C75_12 1_555 1_555
C77_12 C76_12 1_555 1_555
H44_12 C77_12 1_555 1_555
C78_12 C77_12 1_555 1_555
C79_12 C74_12 1_555 1_555
H45_12 C79_12 1_555 1_555
C80_12 O85_4 1_555 1_555
C81_12 C82_12 1_555 1_555
C82_12 C83_12 1_555 1_555
C83_12 H46_12 1_555 1_555
H47_12 C83_12 1_555 1_555
C84_12 O41_12 1_555 1_555
H48_12 C84_12 1_555 1_555
O75_15 C85_12 1_555 1_555
O79_15 C85_12 1_555 1_555
O44_12 C92_12 1_555 1_555
O45_12 C92_12 1_555 1_555
O46_12 C90_12 1_555 1_555
C85_12 C86_12 1_555 1_555
C86_12 C87_12 1_555 1_555
C87_12 H49_12 1_555 1_555
C88_12 C87_12 1_555 1_555
C89_12 C88_12 1_555 1_555
H50_12 C89_12 1_555 1_555
C90_12 C89_12 1_555 1_555
C91_12 C86_12 1_555 1_555
H51_12 C91_12 1_555 1_555
C92_12 C88_12 1_555 1_555
C93_12 C82_12 1_555 1_555
C94_12 C93_12 1_555 1_555
C95_12 C94_12 1_555 1_555
H52_12 C95_12 1_555 1_555
H53_12 C95_12 1_555 1_555
C96_12 O46_12 1_555 1_555
H54_12 C96_12 1_555 1_555
O75_10 C97_12 1_555 1_555
O79_10 C97_12 1_555 1_555
O49_12 C104_12 1_555 1_555
O50_12 C104_12 1_555 1_555
O51_12 C102_12 1_555 1_555
C97_12 C98_12 1_555 1_555
C98_12 C99_12 1_555 1_555
C99_12 H55_12 1_555 1_555
C100_12 C99_12 1_555 1_555
C101_12 C100_12 1_555 1_555
H56_12 C101_12 1_555 1_555
C102_12 C101_12 1_555 1_555
C103_12 C98_12 1_555 1_555
H57_12 C103_12 1_555 1_555
C104_12 C100_12 1_555 1_555
C105_12 C94_12 1_555 1_555
C106_12 C81_12 1_555 1_555
C107_12 C106_12 1_555 1_555
H58_12 C107_12 1_555 1_555
H59_12 C107_12 1_555 1_555
C108_12 O51_12 1_555 1_555
H60_12 C108_12 1_555 1_555
H61_12 C107_12 1_555 1_555
H62_12 C83_12 1_555 1_555
H63_12 C95_12 1_555 1_555
Co25_6 O49_12 1_555 1_555
Co28_6 O44_12 1_555 1_555
Co33_6 O50_12 1_555 1_555
Co36_6 O45_12 1_555 1_555
O78_6 C73_12 1_555 1_555
C76_12 C80_12 1_555 1_555
C78_12 C79_12 1_555 1_555
C81_12 C84_12 1_555 1_555
C90_12 C91_12 1_555 1_555
C93_12 C96_12 1_555 1_555
C102_12 C103_12 1_555 1_555
C105_12 C106_12 1_555 1_555
C105_12 C108_12 1_555 1_555
C84_12 H103_20 1_555 1_555
C96_12 H104_12 1_555 1_555
C108_12 H105_12 1_555 1_555
C96_11 H99_29 1_555 1_555
C108_11 H100_29 1_555 1_555
C96_10 H99_30 1_555 1_555
C108_10 H100_30 1_555 1_555
C96_12 H99_31 1_555 1_555
C108_12 H100_31 1_555 1_555
C96_9 H99_32 1_555 1_555
C108_9 H100_32 1_555 1_555
C84_9 H108_29 1_555 1_555
C84_11 H108_30 1_555 1_555
C84_12 H108_31 1_555 1_555
C84_10 H108_32 1_555 1_555
Co27_3 Cl2_7 1_555 1_555
O40_7 Co35_3 1_555 1_555
Co27_4 Cl2_8 1_555 1_555
O40_8 Co35_4 1_555 1_555
Co24 Cl3_7 1_555 1_555
O56_7 Co32 1_555 1_555
Co23_3 Cl1_11 1_555 1_555
O7_11 Co31_3 1_555 1_555
Co27_5 Cl2_9 1_555 1_555
O40_9 Co35_5 1_555 1_555
Co23_4 Cl1_12 1_555 1_555
O7_12 Co31_4 1_555 1_555
Co27_6 Cl2_10 1_555 1_555
O40_10 Co35_6 1_555 1_555
Co24_2 Cl3_8 1_555 1_555
O56_8 Co32_2 1_555 1_555
Co23 Cl1_13 1_555 1_555
O7_13 Co31 1_555 1_555
Co28_3 Cl2_11 1_555 1_555
O40_11 Co36_3 1_555 1_555
Co23_2 Cl1_14 1_555 1_555
O7_14 Co31_2 1_555 1_555
Co28_4 Cl2_12 1_555 1_555
O40_12 Co36_4 1_555 1_555
Co28_5 Cl2_13 1_555 1_555
O40_13 Co36_5 1_555 1_555
Co28_6 Cl2_14 1_555 1_555
O40_14 Co36_6 1_555 1_555
Co25 Cl3_9 1_555 1_555
O56_9 Co33 1_555 1_555
Co25_2 Cl3_10 1_555 1_555
O56_10 Co33_2 1_555 1_555
Co24_3 Cl3_11 1_555 1_555
O56_11 Co32_3 1_555 1_555
Co27 Cl2_15 1_555 1_555
O40_15 Co35 1_555 1_555
Co24_4 Cl3_12 1_555 1_555
O56_12 Co32_4 1_555 1_555
Co26_3 Cl1_15 1_555 1_555
O7_15 Co34_3 1_555 1_555
Co24_5 Cl3_13 1_555 1_555
O56_13 Co32_5 1_555 1_555
Co26_4 Cl1_16 1_555 1_555
O7_16 Co34_4 1_555 1_555
Co27_2 Cl2_16 1_555 1_555
O40_16 Co35_2 1_555 1_555
Co24_6 Cl3_14 1_555 1_555
O56_14 Co32_6 1_555 1_555
Co26 Cl1_17 1_555 1_555
O7_17 Co34 1_555 1_555
Co28 Cl2_17 1_555 1_555
O40_17 Co36 1_555 1_555
Co26_2 Cl1_18 1_555 1_555
O7_18 Co34_2 1_555 1_555
Co28_2 Cl2_18 1_555 1_555
O40_18 Co36_2 1_555 1_555
Co25_3 Cl3_15 1_555 1_555
O56_15 Co33_3 1_555 1_555
Co25_4 Cl3_16 1_555 1_555
O56_16 Co33_4 1_555 1_555
Co25_5 Cl3_17 1_555 1_555
O56_17 Co33_5 1_555 1_555
Co25_6 Cl3_18 1_555 1_555
O56_18 Co33_6 1_555 1_555

#END
