
###############################################################################
#
# This file contains modified crystal structure data generated from the
# MOF subset of the Cambridge Structural Database (CSD) v543 
# hosted by the Cambridge Crystallographic Data Centre (CCDC).
#
# This work is licensed under the Creative Commons
# Attribution-NonCommercial-ShareAlike 4.0 International License.
# To view a copy of this license, visit
# http://creativecommons.org/licenses/by-nc-sa/4.0/
# or send a letter to
# Creative Commons, PO Box 1866, Mountain View, CA 94042, USA.
#
# CIF created using the CSD Python API on 29 September 2022
# The structure has been converted into the P1 space group
# The structure has a 3D framework
# The original CSD entry YEWKAP is in the trigonal crystal system
# The framework has been calculated to contain at least 10.0% void space
# The void calculation uses a probe of radius 1.32A, grid spacing 0.4
# The framework is charged, counterions have been retained in the structure
# H atom positions have been added when not included in the experimental data
#
###############################################################################

data_YEWKAP
_chemical_formula_moiety         '(C12 H12 Fe7 O18 2-)n'
_symmetry_cell_setting           triclinic
_symmetry_space_group_name_H-M   'P 1'
_symmetry_Int_Tables_number      1
_space_group_name_Hall           'P 1'
loop_
_symmetry_equiv_pos_site_id
_symmetry_equiv_pos_as_xyz
1 x,y,z
_cell_length_a                   8.3389(2)
_cell_length_b                   8.3389(2)
_cell_length_c                   13.7419(5)
_cell_angle_alpha                90
_cell_angle_beta                 90
_cell_angle_gamma                120
_cell_volume                     827.551
loop_
_atom_site_label
_atom_site_type_symbol
_atom_site_fract_x
_atom_site_fract_y
_atom_site_fract_z
Fe7 Fe 0.000 0.000 0.500
Fe7_2 Fe 0.000 1.000 0.500
O10 O 0.8012(12) 0.0055(17) 0.4216(9)
Fe7_3 Fe 1.000 0.000 0.500
Fe1 Fe 0.333333 0.666667 0.250
Fe2 Fe 0.000 0.000 0.000
O1 O 0.1211(16) 0.4617(13) 0.1603(11)
C1 C 0.1280(10) 0.3358(16) 0.1167(18)
O6 O 0.2043(21) 0.0055(17) 0.0784(9)
O7 O 0.3406(21) 0.4617(13) 0.3397(11)
O8 O 0.2043(21) 0.1988(12) 0.4216(9)
C4 C 0.2078(19) 0.3358(16) 0.3833(18)
O9 O 0.5383(13) 0.8789(16) 0.3397(11)
C5 C 0.6642(16) 0.8720(10) 0.3833(18)
O11 O 0.1211(16) 0.6594(21) 0.3397(11)
C6 C 0.1280(10) 0.7922(19) 0.3833(18)
Fe7_4 Fe 1.000 1.000 0.500
O13 O 0.5383(13) 0.6594(21) 0.1603(11)
O14 O 0.3406(21) 0.8789(16) 0.1603(11)
H2 H 0.0826242 0.345481 0.388727
H4 H 0.654519 0.737143 0.388727
H5 H 0.262857 0.345481 0.111273
H6 H 0.262857 0.917376 0.388727
Fe2_2 Fe 0.000 0.000 1.000
O16 O 0.1988(12) 0.2043(21) 0.9216(9)
Fe2_3 Fe 0.000 1.000 0.000
C3 C 0.2078(19) 0.8720(10) 0.1167(18)
H1 H 0.0826242 0.737143 0.111273
Fe2_4 Fe 0.000 1.000 1.000
O15 O 0.0055(17) 0.8012(12) 0.9216(9)
Fe2_5 Fe 1.000 0.000 0.000
O2 O 0.9945(17) 0.1988(12) 0.0784(9)
O12 O 0.9945(17) 0.7957(21) 0.4216(9)
Fe2_6 Fe 1.000 0.000 1.000
Fe2_7 Fe 1.000 1.000 0.000
O4 O 0.8012(12) 0.7957(21) 0.0784(9)
C2 C 0.6642(16) 0.7922(19) 0.1167(18)
H3 H 0.654519 0.917376 0.111273
Fe2_8 Fe 1.000 1.000 1.000
O17 O 0.7957(21) 0.9945(17) 0.9216(9)
O17_2 O 0.0055(17) 0.2043(21) 0.5784(9)
O15_2 O 0.1988(12) 0.9945(17) 0.5784(9)
O16_2 O 0.7957(21) 0.8012(12) 0.5784(9)
O3 O 0.4617(13) 0.3406(21) 0.8397(11)
C2_2 C 0.3358(16) 0.2078(19) 0.8833(18)
Fe3 Fe 0.666667 0.333333 0.750
H3_2 H 0.345481 0.0826242 0.888727
O5 O 0.6594(21) 0.1211(16) 0.8397(11)
C3_2 C 0.7922(19) 0.1280(10) 0.8833(18)
H1_2 H 0.917376 0.262857 0.888727
O1_2 O 0.8789(16) 0.5383(13) 0.8397(11)
C1_2 C 0.8720(10) 0.6642(16) 0.8833(18)
O7_2 O 0.6594(21) 0.5383(13) 0.6603(11)
C4_2 C 0.7922(19) 0.6642(16) 0.6167(18)
O9_2 O 0.4617(13) 0.1211(16) 0.6603(11)
C5_2 C 0.3358(16) 0.1280(10) 0.6167(18)
O11_2 O 0.8789(16) 0.3406(21) 0.6603(11)
C6_2 C 0.8720(10) 0.2078(19) 0.6167(18)
H2_2 H 0.917376 0.654519 0.611273
H4_2 H 0.345481 0.262857 0.611273
H5_2 H 0.737143 0.654519 0.888727
H6_2 H 0.737143 0.0826242 0.611273
loop_
_geom_bond_atom_site_label_1
_geom_bond_atom_site_label_2
_geom_bond_site_symmetry_1
_geom_bond_site_symmetry_2
Fe7_3 O10 1_555 1_555
Fe1 O1 1_555 1_555
O1 C1 1_555 1_555
O6 Fe2 1_555 1_555
O7 Fe1 1_555 1_555
O8 C4 1_555 1_555
C4 O7 1_555 1_555
O9 Fe1 1_555 1_555
C5 O9 1_555 1_555
O11 Fe1 1_555 1_555
C6 O11 1_555 1_555
Fe7 O8 1_555 1_555
O13 Fe1 1_555 1_555
O14 Fe1 1_555 1_555
C4 H2 1_555 1_555
C5 H4 1_555 1_555
C1 H5 1_555 1_555
C6 H6 1_555 1_555
O16 Fe2_2 1_555 1_555
O14 C3 1_555 1_555
C3 H1 1_555 1_555
O15 Fe2_4 1_555 1_555
Fe2_5 O2 1_555 1_555
Fe7_4 O12 1_555 1_555
O13 C2 1_555 1_555
O4 Fe2_7 1_555 1_555
C2 O4 1_555 1_555
C2 H3 1_555 1_555
O17 Fe2_8 1_555 1_555
O17_2 Fe7 1_555 1_555
O15_2 Fe7_2 1_555 1_555
O16_2 Fe7_4 1_555 1_555
O3 C2_2 1_555 1_555
C2_2 O16 1_555 1_555
Fe3 O3 1_555 1_555
C2_2 H3_2 1_555 1_555
O5 C3_2 1_555 1_555
Fe3 O5 1_555 1_555
C3_2 H1_2 1_555 1_555
Fe3 O1_2 1_555 1_555
O1_2 C1_2 1_555 1_555
O7_2 Fe3 1_555 1_555
O16_2 C4_2 1_555 1_555
C4_2 O7_2 1_555 1_555
O9_2 Fe3 1_555 1_555
C5_2 O9_2 1_555 1_555
O11_2 Fe3 1_555 1_555
C6_2 O11_2 1_555 1_555
C4_2 H2_2 1_555 1_555
C5_2 H4_2 1_555 1_555
C1_2 H5_2 1_555 1_555
C6_2 H6_2 1_555 1_555

#END
