
###############################################################################
#
# This file contains modified crystal structure data generated from the
# MOF subset of the Cambridge Structural Database (CSD) v543 
# hosted by the Cambridge Crystallographic Data Centre (CCDC).
#
# This work is licensed under the Creative Commons
# Attribution-NonCommercial-ShareAlike 4.0 International License.
# To view a copy of this license, visit
# http://creativecommons.org/licenses/by-nc-sa/4.0/
# or send a letter to
# Creative Commons, PO Box 1866, Mountain View, CA 94042, USA.
#
# CIF created using the CSD Python API on 29 September 2022
# The structure has been converted into the P1 space group
# The structure has a 3D framework
# The original CSD entry YEXCUC is in the monoclinic crystal system
# The framework has been calculated to contain at least 10.0% void space
# The void calculation uses a probe of radius 1.32A, grid spacing 0.4
# The framework is charged, counterions have been retained in the structure
#
###############################################################################

data_YEXCUC
_chemical_formula_moiety         '(C356 H192 In4 N16 O64 8-)n'
_symmetry_cell_setting           triclinic
_symmetry_space_group_name_H-M   'P 1'
_symmetry_Int_Tables_number      1
_space_group_name_Hall           'P 1'
loop_
_symmetry_equiv_pos_site_id
_symmetry_equiv_pos_as_xyz
1 x,y,z
_cell_length_a                   23.3502(4)
_cell_length_b                   24.8738(5)
_cell_length_c                   36.0125(5)
_cell_angle_alpha                90
_cell_angle_beta                 92.4016(14)
_cell_angle_gamma                90
_cell_volume                     20898
loop_
_atom_site_label
_atom_site_type_symbol
_atom_site_fract_x
_atom_site_fract_y
_atom_site_fract_z
In1 In 0.39044(2) 0.51604(2) 0.39580(2)
O1 O 0.8472(2) 0.0528(2) 0.44037(14)
O2 O 0.8465(3) 0.0218(2) 0.84745(17)
O3 O 0.8144(3) 0.0830(2) 0.38906(16)
O4 O 0.4415(3) 0.48317(18) 0.44281(16)
O5 O 0.4586(3) 0.4058(2) 0.90240(16)
O6 O 0.4352(2) 0.4457(2) 0.85201(14)
O7 O 0.4563(3) 0.4439(3) 0.39162(14)
O8 O 0.8203(3) 0.0539(2) 0.89962(15)
N1 N 0.6368(2) 0.2592(2) 0.48737(13)
N2 N 0.6373(3) 0.2352(3) 0.80225(15)
C1 C 0.5527(3) 0.3799(3) 0.50152(19)
H1 H 0.5636 0.3870 0.5262
C2 C 0.6052(3) 0.2933(3) 0.50681(16)
C3 C 0.5119(3) 0.3862(3) 0.81144(18)
H2 H 0.4953 0.4165 0.8003
C4 C 0.7741(3) 0.1190(3) 0.44264(18)
C5 C 0.6034(3) 0.2903(3) 0.54523(17)
H3 H 0.5807 0.3142 0.5580
C6 C 0.5715(3) 0.3337(3) 0.48546(15)
C7 C 0.6040(3) 0.2708(3) 0.78345(18)
C8 C 0.5011(3) 0.3750(2) 0.84799(16)
C9 C 0.4660(3) 0.4469(3) 0.42534(18)
C10 C 0.5047(3) 0.4085(2) 0.44567(17)
C11 C 0.6680(3) 0.2217(3) 0.50593(16)
C12 C 0.6676(3) 0.2162(3) 0.54440(17)
H4 H 0.6886 0.1891 0.5564
C13 C 0.6024(3) 0.2732(3) 0.74471(18)
H5 H 0.5797 0.2989 0.7325
C14 C 0.5461(3) 0.3540(3) 0.79128(18)
H6 H 0.5536 0.3635 0.7670
C15 C 0.6334(4) 0.2472(3) 0.60567(17)
C16 C 0.6332(4) 0.2415(3) 0.68323(18)
C17 C 0.6354(3) 0.2519(3) 0.56458(16)
C18 C 0.4639(3) 0.4105(3) 0.86880(19)
C19 C 0.5573(4) 0.3263(3) 0.44809(18)
H7 H 0.5697 0.2957 0.4360
C20 C 0.7769(4) 0.1184(4) 0.4808(2)
H8 H 0.8017 0.0949 0.4935
C21 C 0.8128(3) 0.0833(3) 0.4229(2)
C22 C 0.7048(3) 0.1859(3) 0.48372(17)
C23 C 0.5701(3) 0.3075(3) 0.80629(16)
C24 C 0.7376(4) 0.1534(4) 0.4264(2)
H9 H 0.7359 0.1554 0.4006
C25 C 0.5181(4) 0.4162(3) 0.4822(2)
H10 H 0.5040 0.4461 0.4944
C26 C 0.7430(4) 0.1526(4) 0.50001(19)
H11 H 0.7468 0.1526 0.5258
C27 C 0.7019(4) 0.1861(4) 0.4459(2)
H12 H 0.6759 0.2085 0.4332
C28 C 0.5248(4) 0.3297(4) 0.8628(2)
H13 H 0.5183 0.3209 0.8874
C29 C 0.6335(4) 0.2385(3) 0.72454(18)
C30 C 0.5248(4) 0.3642(4) 0.42878(19)
H14 H 0.5165 0.3592 0.4035
C31 C 0.6680(4) 0.2019(4) 0.74422(19)
H15 H 0.6904 0.1777 0.7315
C32 C 0.7777(3) 0.0917(3) 0.8442(2)
C33 C 0.6692(4) 0.2015(4) 0.7827(2)
C34 C 0.8161(3) 0.0539(3) 0.8653(2)
C35 C 0.7054(4) 0.1616(4) 0.80437(19)
C36 C 0.6268(5) 0.2908(4) 0.6268(2)
H16 H 0.6239 0.3245 0.6158
C37 C 0.5588(5) 0.2958(4) 0.8418(2)
H17 H 0.5739 0.2646 0.8525
C38 C 0.6242(5) 0.2858(4) 0.6653(2)
H18 H 0.6154 0.3163 0.6789
C39 C 0.7387(6) 0.1248(5) 0.7878(2)
H19 H 0.7343 0.1201 0.7622
C40 C 0.7076(5) 0.1621(5) 0.8417(2)
H20 H 0.6850 0.1862 0.8544
C41 C 0.7432(5) 0.1268(5) 0.8615(2)
H21 H 0.7435 0.1272 0.8873
C42 C 0.6380(6) 0.1982(4) 0.6240(2)
H22 H 0.6427 0.1671 0.6100
C43 C 0.6360(7) 0.1940(5) 0.6614(3)
H23 H 0.6365 0.1604 0.6727
C44 C 0.7794(5) 0.0938(5) 0.8075(3)
H24 H 0.8072 0.0749 0.7951
In2 In 0.89044(2) 0.01604(2) 0.39580(2)
In3 In 0.39044(2) 0.48396(2) 0.89580(2)
O9 O 0.3472(2) 0.5528(2) 0.44037(14)
O10 O 0.3465(3) 0.4782(2) 0.34745(17)
O11 O 0.3144(3) 0.5830(2) 0.38906(16)
O12 O 0.4586(3) 0.5942(2) 0.40240(16)
O13 O 0.4352(2) 0.5543(2) 0.35201(14)
O14 O 0.3203(3) 0.4461(2) 0.39962(15)
In4 In 0.89044(2) 0.98396(2) 0.89580(2)
O2_2 O 0.3465(3) 0.5218(2) 0.84745(17)
O8_2 O 0.3203(3) 0.5539(2) 0.89962(15)
N1_2 N 0.1368(2) 0.7592(2) 0.48737(13)
N2_2 N 0.1373(3) 0.7352(3) 0.80225(15)
C1_2 C 0.0527(3) 0.8799(3) 0.50152(19)
H1_2 H 0.0636 0.8870 0.5262
C2_2 C 0.1052(3) 0.7933(3) 0.50681(16)
C3_2 C 0.0119(3) 0.8862(3) 0.81144(18)
C4_2 C 0.2741(3) 0.6190(3) 0.44264(18)
C5_2 C 0.1034(3) 0.7903(3) 0.54523(17)
H3_2 H 0.0807 0.8142 0.5580
C6_2 C 0.0715(3) 0.8337(3) 0.48546(15)
C7_2 C 0.1040(3) 0.7708(3) 0.78345(18)
C8_2 C 0.0011(3) 0.8750(2) 0.84799(16)
C10_2 C 0.0047(3) 0.9085(2) 0.44567(17)
C11_2 C 0.1680(3) 0.7217(3) 0.50593(16)
C12_2 C 0.1676(3) 0.7162(3) 0.54440(17)
H4_2 H 0.1886 0.6891 0.5564
C13_2 C 0.1024(3) 0.7732(3) 0.74471(18)
H5_2 H 0.0797 0.7989 0.7325
C14_2 C 0.0461(3) 0.8540(3) 0.79128(18)
H6_2 H 0.0536 0.8635 0.7670
C15_2 C 0.1334(4) 0.7472(3) 0.60567(17)
C16_2 C 0.1332(4) 0.7415(3) 0.68323(18)
C17_2 C 0.1354(3) 0.7519(3) 0.56458(16)
C19_2 C 0.0573(4) 0.8263(3) 0.44809(18)
H7_2 H 0.0697 0.7957 0.4360
C20_2 C 0.2769(4) 0.6184(4) 0.4808(2)
H8_2 H 0.3017 0.5949 0.4935
C21_2 C 0.3128(3) 0.5833(3) 0.4229(2)
C22_2 C 0.2048(3) 0.6859(3) 0.48372(17)
C23_2 C 0.0701(3) 0.8075(3) 0.80629(16)
C24_2 C 0.2376(4) 0.6534(4) 0.4264(2)
H9_2 H 0.2359 0.6554 0.4006
C25_2 C 0.0181(4) 0.9162(3) 0.4822(2)
H10_2 H 0.0040 0.9461 0.4944
C26_2 C 0.2430(4) 0.6526(4) 0.50001(19)
H11_2 H 0.2468 0.6526 0.5258
C27_2 C 0.2019(4) 0.6861(4) 0.4459(2)
H12_2 H 0.1759 0.7085 0.4332
C28_2 C 0.0248(4) 0.8297(4) 0.8628(2)
H13_2 H 0.0183 0.8209 0.8874
C29_2 C 0.1335(4) 0.7385(3) 0.72454(18)
C30_2 C 0.0248(4) 0.8642(4) 0.42878(19)
H14_2 H 0.0165 0.8592 0.4035
C31_2 C 0.1680(4) 0.7019(4) 0.74422(19)
H15_2 H 0.1904 0.6777 0.7315
C32_2 C 0.2777(3) 0.5917(3) 0.8442(2)
C33_2 C 0.1692(4) 0.7015(4) 0.7827(2)
C34_2 C 0.3161(3) 0.5539(3) 0.8653(2)
C35_2 C 0.2054(4) 0.6616(4) 0.80437(19)
C36_2 C 0.1268(5) 0.7908(4) 0.6268(2)
H16_2 H 0.1239 0.8245 0.6158
C37_2 C 0.0588(5) 0.7958(4) 0.8418(2)
H17_2 H 0.0739 0.7646 0.8525
C38_2 C 0.1242(5) 0.7858(4) 0.6653(2)
H18_2 H 0.1154 0.8163 0.6789
C39_2 C 0.2387(6) 0.6248(5) 0.7878(2)
H19_2 H 0.2343 0.6201 0.7622
C40_2 C 0.2076(5) 0.6621(5) 0.8417(2)
H20_2 H 0.1850 0.6862 0.8544
C41_2 C 0.2432(5) 0.6268(5) 0.8615(2)
H21_2 H 0.2435 0.6272 0.8873
C42_2 C 0.1380(6) 0.6982(4) 0.6240(2)
H22_2 H 0.1427 0.6671 0.6100
C43_2 C 0.1360(7) 0.6940(5) 0.6614(3)
H23_2 H 0.1365 0.6604 0.6727
C44_2 C 0.2794(5) 0.5938(5) 0.8075(3)
H24_2 H 0.3072 0.5749 0.7951
O12_2 O 0.9586(3) 0.0942(2) 0.40240(16)
O13_2 O 0.9352(2) 0.0543(2) 0.35201(14)
O4_2 O 0.9415(3) 0.98317(18) 0.44281(16)
O5_2 O 0.9586(3) 0.9058(2) 0.90240(16)
O6_2 O 0.9352(2) 0.9457(2) 0.85201(14)
O7_2 O 0.9563(3) 0.9439(3) 0.39162(14)
H2_2 H 0.9953 0.9165 0.8003
C9_2 C 0.9660(3) 0.9469(3) 0.42534(18)
C18_2 C 0.9639(3) 0.9105(3) 0.86880(19)
O10_2 O 0.8465(3) 0.9782(2) 0.34745(17)
O14_2 O 0.8203(3) 0.9461(2) 0.39962(15)
N2_3 N 0.6373(3) 0.7648(3) 0.30225(15)
C1_3 C 0.5527(3) 0.6201(3) 0.00152(19)
H1_3 H 0.5636 0.6130 0.0262
C2_3 C 0.6052(3) 0.7067(3) 0.00681(16)
C3_3 C 0.5119(3) 0.6138(3) 0.31144(18)
H2_3 H 0.4953 0.5835 0.3003
C5_3 C 0.6034(3) 0.7097(3) 0.04523(17)
H3_3 H 0.5807 0.6858 0.0580
C7_3 C 0.6040(3) 0.7292(3) 0.28345(18)
C8_3 C 0.5011(3) 0.6250(2) 0.34799(16)
C11_3 C 0.6680(3) 0.7783(3) 0.00593(16)
C12_3 C 0.6676(3) 0.7838(3) 0.04440(17)
H4_3 H 0.6886 0.8109 0.0564
C13_3 C 0.6024(3) 0.7268(3) 0.24471(18)
H5_3 H 0.5797 0.7011 0.2325
C14_3 C 0.5461(3) 0.6460(3) 0.29128(18)
H6_3 H 0.5536 0.6365 0.2670
C15_3 C 0.6334(4) 0.7528(3) 0.10567(17)
C16_3 C 0.6332(4) 0.7585(3) 0.18323(18)
C17_3 C 0.6354(3) 0.7481(3) 0.06458(16)
C18_3 C 0.4639(3) 0.5895(3) 0.36880(19)
C23_3 C 0.5701(3) 0.6925(3) 0.30629(16)
C26_3 C 0.7430(4) 0.8474(4) 0.00001(19)
H11_3 H 0.7468 0.8474 0.0258
C28_3 C 0.5248(4) 0.6703(4) 0.3628(2)
H13_3 H 0.5183 0.6791 0.3874
C29_3 C 0.6335(4) 0.7615(3) 0.22454(18)
C31_3 C 0.6680(4) 0.7981(4) 0.24422(19)
H15_3 H 0.6904 0.8223 0.2315
C32_3 C 0.7777(3) 0.9083(3) 0.3442(2)
C33_3 C 0.6692(4) 0.7985(4) 0.2827(2)
C34_3 C 0.8161(3) 0.9461(3) 0.3653(2)
C35_3 C 0.7054(4) 0.8384(4) 0.30437(19)
C36_3 C 0.6268(5) 0.7092(4) 0.1268(2)
H16_3 H 0.6239 0.6755 0.1158
C37_3 C 0.5588(5) 0.7042(4) 0.3418(2)
H17_3 H 0.5739 0.7354 0.3525
C38_3 C 0.6242(5) 0.7142(4) 0.1653(2)
H18_3 H 0.6154 0.6837 0.1789
C39_3 C 0.7387(6) 0.8752(5) 0.2878(2)
H19_3 H 0.7343 0.8799 0.2622
C40_3 C 0.7076(5) 0.8379(5) 0.3417(2)
H20_3 H 0.6850 0.8138 0.3544
C41_3 C 0.7432(5) 0.8732(5) 0.3615(2)
H21_3 H 0.7435 0.8728 0.3873
C42_3 C 0.6380(6) 0.8018(4) 0.1240(2)
H22_3 H 0.6427 0.8329 0.1100
C43_3 C 0.6360(7) 0.8060(5) 0.1614(3)
H23_3 H 0.6365 0.8396 0.1727
C44_3 C 0.7794(5) 0.9062(5) 0.3075(3)
H24_3 H 0.8072 0.9251 0.2951
O1_2 O 0.8472(2) 0.9472(2) 0.94037(14)
O3_2 O 0.8144(3) 0.9170(2) 0.88906(16)
O4_3 O 0.4415(3) 0.51683(18) 0.94281(16)
O7_3 O 0.4563(3) 0.5561(3) 0.89162(14)
N1_3 N 0.6368(2) 0.7408(2) 0.98737(13)
C4_3 C 0.7741(3) 0.8810(3) 0.94264(18)
C6_3 C 0.5715(3) 0.6663(3) 0.98546(15)
C9_3 C 0.4660(3) 0.5531(3) 0.92534(18)
C10_3 C 0.5047(3) 0.5915(2) 0.94567(17)
C19_3 C 0.5573(4) 0.6737(3) 0.94809(18)
H7_3 H 0.5697 0.7043 0.9360
C20_3 C 0.7769(4) 0.8816(4) 0.9808(2)
H8_3 H 0.8017 0.9051 0.9935
C21_3 C 0.8128(3) 0.9167(3) 0.9229(2)
C22_3 C 0.7048(3) 0.8141(3) 0.98372(17)
C24_3 C 0.7376(4) 0.8466(4) 0.9264(2)
H9_3 H 0.7359 0.8446 0.9006
C25_3 C 0.5181(4) 0.5838(3) 0.9822(2)
H10_3 H 0.5040 0.5539 0.9944
C26_4 C 0.7430(4) 0.8474(4) 1.00001(19)
C27_3 C 0.7019(4) 0.8139(4) 0.9459(2)
H12_3 H 0.6759 0.7915 0.9332
C30_3 C 0.5248(4) 0.6358(4) 0.92878(19)
H14_3 H 0.5165 0.6408 0.9035
O9_2 O 0.3472(2) 0.4472(2) 0.94037(14)
O11_2 O 0.3144(3) 0.4170(2) 0.88906(16)
N2_4 N 0.1373(3) 0.2648(3) 0.30225(15)
C1_4 C 0.0527(3) 0.1201(3) 0.00152(19)
H1_4 H 0.0636 0.1130 0.0262
C2_4 C 0.1052(3) 0.2067(3) 0.00681(16)
C3_4 C 0.0119(3) 0.1138(3) 0.31144(18)
C5_4 C 0.1034(3) 0.2097(3) 0.04523(17)
H3_4 H 0.0807 0.1858 0.0580
C7_4 C 0.1040(3) 0.2292(3) 0.28345(18)
C8_4 C 0.0011(3) 0.1250(2) 0.34799(16)
C11_4 C 0.1680(3) 0.2783(3) 0.00593(16)
C12_4 C 0.1676(3) 0.2838(3) 0.04440(17)
H4_4 H 0.1886 0.3109 0.0564
C13_4 C 0.1024(3) 0.2268(3) 0.24471(18)
H5_4 H 0.0797 0.2011 0.2325
C14_4 C 0.0461(3) 0.1460(3) 0.29128(18)
H6_4 H 0.0536 0.1365 0.2670
C15_4 C 0.1334(4) 0.2528(3) 0.10567(17)
C16_4 C 0.1332(4) 0.2585(3) 0.18323(18)
C17_4 C 0.1354(3) 0.2481(3) 0.06458(16)
C23_4 C 0.0701(3) 0.1925(3) 0.30629(16)
C26_5 C 0.2430(4) 0.3474(4) 0.00001(19)
H11_4 H 0.2468 0.3474 0.0258
C28_4 C 0.0248(4) 0.1703(4) 0.3628(2)
H13_4 H 0.0183 0.1791 0.3874
C29_4 C 0.1335(4) 0.2615(3) 0.22454(18)
C31_4 C 0.1680(4) 0.2981(4) 0.24422(19)
H15_4 H 0.1904 0.3223 0.2315
C32_4 C 0.2777(3) 0.4083(3) 0.3442(2)
C33_4 C 0.1692(4) 0.2985(4) 0.2827(2)
C34_4 C 0.3161(3) 0.4461(3) 0.3653(2)
C35_4 C 0.2054(4) 0.3384(4) 0.30437(19)
C36_4 C 0.1268(5) 0.2092(4) 0.1268(2)
H16_4 H 0.1239 0.1755 0.1158
C37_4 C 0.0588(5) 0.2042(4) 0.3418(2)
H17_4 H 0.0739 0.2354 0.3525
C38_4 C 0.1242(5) 0.2142(4) 0.1653(2)
H18_4 H 0.1154 0.1837 0.1789
C39_4 C 0.2387(6) 0.3752(5) 0.2878(2)
H19_4 H 0.2343 0.3799 0.2622
C40_4 C 0.2076(5) 0.3379(5) 0.3417(2)
H20_4 H 0.1850 0.3138 0.3544
C41_4 C 0.2432(5) 0.3732(5) 0.3615(2)
H21_4 H 0.2435 0.3728 0.3873
C42_4 C 0.1380(6) 0.3018(4) 0.1240(2)
H22_4 H 0.1427 0.3329 0.1100
C43_4 C 0.1360(7) 0.3060(5) 0.1614(3)
H23_4 H 0.1365 0.3396 0.1727
C44_4 C 0.2794(5) 0.4062(5) 0.3075(3)
H24_4 H 0.3072 0.4251 0.2951
N1_4 N 0.1368(2) 0.2408(2) 0.98737(13)
C4_4 C 0.2741(3) 0.3810(3) 0.94264(18)
C6_4 C 0.0715(3) 0.1663(3) 0.98546(15)
C10_4 C 0.0047(3) 0.0915(2) 0.94567(17)
C19_4 C 0.0573(4) 0.1737(3) 0.94809(18)
H7_4 H 0.0697 0.2043 0.9360
C20_4 C 0.2769(4) 0.3816(4) 0.9808(2)
H8_4 H 0.3017 0.4051 0.9935
C21_4 C 0.3128(3) 0.4167(3) 0.9229(2)
C22_4 C 0.2048(3) 0.3141(3) 0.98372(17)
C24_4 C 0.2376(4) 0.3466(4) 0.9264(2)
H9_4 H 0.2359 0.3446 0.9006
C25_4 C 0.0181(4) 0.0838(3) 0.9822(2)
H10_4 H 0.0040 0.0539 0.9944
C26_6 C 0.2430(4) 0.3474(4) 1.00001(19)
C27_4 C 0.2019(4) 0.3139(4) 0.9459(2)
H12_4 H 0.1759 0.2915 0.9332
C30_4 C 0.0248(4) 0.1358(4) 0.92878(19)
H14_4 H 0.0165 0.1408 0.9035
H2_4 H 0.9953 0.0835 0.3003
C18_4 C 0.9639(3) 0.0895(3) 0.36880(19)
O4_4 O 0.9415(3) 0.01683(18) 0.94281(16)
O7_4 O 0.9563(3) 0.0561(3) 0.89162(14)
C9_4 C 0.9660(3) 0.0531(3) 0.92534(18)
In1_2 In 0.60956(2) 0.51604(2) 0.10420(2)
O1_3 O 0.1528(2) 0.0528(2) 0.05963(14)
O3_3 O 0.1856(3) 0.0830(2) 0.11094(16)
O4_5 O 0.5585(3) 0.48317(18) 0.05719(16)
O7_5 O 0.5437(3) 0.4439(3) 0.10838(14)
N1_5 N 0.3632(2) 0.2592(2) 0.01263(13)
C4_5 C 0.2259(3) 0.1190(3) 0.05736(18)
C6_5 C 0.4285(3) 0.3337(3) 0.01454(15)
C9_5 C 0.5340(3) 0.4469(3) 0.07466(18)
C10_5 C 0.4953(3) 0.4085(2) 0.05433(17)
C19_5 C 0.4427(4) 0.3263(3) 0.05191(18)
H7_5 H 0.4303 0.2957 0.0640
C20_5 C 0.2231(4) 0.1184(4) 0.0192(2)
H8_5 H 0.1983 0.0949 0.0065
C21_5 C 0.1872(3) 0.0833(3) 0.0771(2)
C22_5 C 0.2952(3) 0.1859(3) 0.01628(17)
C24_5 C 0.2624(4) 0.1534(4) 0.0736(2)
H9_5 H 0.2641 0.1554 0.0994
C25_5 C 0.4819(4) 0.4162(3) 0.0178(2)
H10_5 H 0.4960 0.4461 0.0056
C26_7 C 0.2570(4) 0.1526(4) -0.00001(19)
C27_5 C 0.2981(4) 0.1861(4) 0.0541(2)
H12_5 H 0.3241 0.2085 0.0668
C30_5 C 0.4752(4) 0.3642(4) 0.07122(19)
H14_5 H 0.4835 0.3592 0.0965
In2_2 In 0.10956(2) 0.01604(2) 0.10420(2)
O9_3 O 0.6528(2) 0.5528(2) 0.05963(14)
O10_3 O 0.6535(3) 0.4782(2) 0.15255(17)
O11_3 O 0.6856(3) 0.5830(2) 0.11094(16)
O12_3 O 0.5414(3) 0.5942(2) 0.09760(16)
O13_3 O 0.5648(2) 0.5543(2) 0.14799(14)
O14_3 O 0.6797(3) 0.4461(2) 0.10038(15)
O2_3 O 0.1535(3) 0.0218(2) 0.65255(17)
O5_3 O 0.5414(3) 0.4058(2) 0.59760(16)
O6_3 O 0.5648(2) 0.4457(2) 0.64799(14)
O8_3 O 0.1797(3) 0.0539(2) 0.60038(15)
N2_5 N 0.3627(3) 0.2352(3) 0.69775(15)
C1_5 C 0.4473(3) 0.3799(3) 0.99848(19)
H1_5 H 0.4364 0.3870 0.9738
C2_5 C 0.3948(3) 0.2933(3) 0.99319(16)
C3_5 C 0.4881(3) 0.3862(3) 0.68856(18)
H2_5 H 0.5047 0.4165 0.6997
C5_5 C 0.3966(3) 0.2903(3) 0.95477(17)
H3_5 H 0.4193 0.3142 0.9420
C7_5 C 0.3960(3) 0.2708(3) 0.71655(18)
C8_5 C 0.4989(3) 0.3750(2) 0.65201(16)
C11_5 C 0.3320(3) 0.2217(3) 0.99407(16)
C12_5 C 0.3324(3) 0.2162(3) 0.95560(17)
H4_5 H 0.3114 0.1891 0.9436
C13_5 C 0.3976(3) 0.2732(3) 0.75529(18)
H5_5 H 0.4203 0.2989 0.7675
C14_5 C 0.4539(3) 0.3540(3) 0.70872(18)
H6_5 H 0.4464 0.3635 0.7330
C15_5 C 0.3666(4) 0.2472(3) 0.89433(17)
C16_5 C 0.3668(4) 0.2415(3) 0.81677(18)
C17_5 C 0.3646(3) 0.2519(3) 0.93542(16)
C18_5 C 0.5361(3) 0.4105(3) 0.63120(19)
C23_5 C 0.4299(3) 0.3075(3) 0.69371(16)
C26_8 C 0.2570(4) 0.1526(4) 0.99999(19)
H11_5 H 0.2532 0.1526 0.9742
C28_5 C 0.4752(4) 0.3297(4) 0.6372(2)
H13_5 H 0.4817 0.3209 0.6126
C29_5 C 0.3665(4) 0.2385(3) 0.77546(18)
C31_5 C 0.3320(4) 0.2019(4) 0.75578(19)
H15_5 H 0.3096 0.1777 0.7685
C32_5 C 0.2223(3) 0.0917(3) 0.6558(2)
C33_5 C 0.3308(4) 0.2015(4) 0.7173(2)
C34_5 C 0.1839(3) 0.0539(3) 0.6347(2)
C35_5 C 0.2946(4) 0.1616(4) 0.69563(19)
C36_5 C 0.3732(5) 0.2908(4) 0.8732(2)
H16_5 H 0.3761 0.3245 0.8842
C37_5 C 0.4412(5) 0.2958(4) 0.6582(2)
H17_5 H 0.4261 0.2646 0.6475
C38_5 C 0.3758(5) 0.2858(4) 0.8347(2)
H18_5 H 0.3846 0.3163 0.8211
C39_5 C 0.2613(6) 0.1248(5) 0.7122(2)
H19_5 H 0.2657 0.1201 0.7378
C40_5 C 0.2924(5) 0.1621(5) 0.6583(2)
H20_5 H 0.3150 0.1862 0.6456
C41_5 C 0.2568(5) 0.1268(5) 0.6385(2)
H21_5 H 0.2565 0.1272 0.6127
C42_5 C 0.3620(6) 0.1982(4) 0.8760(2)
H22_5 H 0.3573 0.1671 0.8900
C43_5 C 0.3640(7) 0.1940(5) 0.8386(3)
H23_5 H 0.3635 0.1604 0.8273
C44_5 C 0.2206(5) 0.0938(5) 0.6925(3)
H24_5 H 0.1928 0.0749 0.7049
In3_2 In 0.60956(2) 0.48396(2) 0.60420(2)
In4_2 In 0.10956(2) 0.98396(2) 0.60420(2)
O12_4 O 0.0414(3) 0.0942(2) 0.09760(16)
O13_4 O 0.0648(2) 0.0543(2) 0.14799(14)
O4_6 O 0.0585(3) 0.98317(18) 0.05719(16)
O7_6 O 0.0437(3) 0.9439(3) 0.10838(14)
C9_6 C 0.0340(3) 0.9469(3) 0.07466(18)
O10_4 O 0.1535(3) 0.9782(2) 0.15255(17)
O14_4 O 0.1797(3) 0.9461(2) 0.10038(15)
O5_4 O 0.0414(3) 0.9058(2) 0.59760(16)
O6_4 O 0.0648(2) 0.9457(2) 0.64799(14)
H2_6 H 0.0047 0.9165 0.6997
C18_6 C 0.0361(3) 0.9105(3) 0.63120(19)
N1_6 N 0.8632(2) 0.7592(2) 0.01263(13)
C4_6 C 0.7259(3) 0.6190(3) 0.05736(18)
C6_6 C 0.9285(3) 0.8337(3) 0.01454(15)
C10_6 C 0.9953(3) 0.9085(2) 0.05433(17)
C19_6 C 0.9427(4) 0.8263(3) 0.05191(18)
H7_6 H 0.9303 0.7957 0.0640
C20_6 C 0.7231(4) 0.6184(4) 0.0192(2)
H8_6 H 0.6983 0.5949 0.0065
C21_6 C 0.6872(3) 0.5833(3) 0.0771(2)
C22_6 C 0.7952(3) 0.6859(3) 0.01628(17)
C24_6 C 0.7624(4) 0.6534(4) 0.0736(2)
H9_6 H 0.7641 0.6554 0.0994
C25_6 C 0.9819(4) 0.9162(3) 0.0178(2)
H10_6 H 0.9960 0.9461 0.0056
C26_9 C 0.7570(4) 0.6526(4) -0.00001(19)
C27_6 C 0.7981(4) 0.6861(4) 0.0541(2)
H12_6 H 0.8241 0.7085 0.0668
C30_6 C 0.9752(4) 0.8642(4) 0.07122(19)
H14_6 H 0.9835 0.8592 0.0965
O2_4 O 0.6535(3) 0.5218(2) 0.65255(17)
O8_4 O 0.6797(3) 0.5539(2) 0.60038(15)
N2_6 N 0.8627(3) 0.7352(3) 0.69775(15)
C1_6 C 0.9473(3) 0.8799(3) 0.99848(19)
H1_6 H 0.9364 0.8870 0.9738
C2_6 C 0.8948(3) 0.7933(3) 0.99319(16)
C3_6 C 0.9881(3) 0.8862(3) 0.68856(18)
C5_6 C 0.8966(3) 0.7903(3) 0.95477(17)
H3_6 H 0.9193 0.8142 0.9420
C7_6 C 0.8960(3) 0.7708(3) 0.71655(18)
C8_6 C 0.9989(3) 0.8750(2) 0.65201(16)
C11_6 C 0.8320(3) 0.7217(3) 0.99407(16)
C12_6 C 0.8324(3) 0.7162(3) 0.95560(17)
H4_6 H 0.8114 0.6891 0.9436
C13_6 C 0.8976(3) 0.7732(3) 0.75529(18)
H5_6 H 0.9203 0.7989 0.7675
C14_6 C 0.9539(3) 0.8540(3) 0.70872(18)
H6_6 H 0.9464 0.8635 0.7330
C15_6 C 0.8666(4) 0.7472(3) 0.89433(17)
C16_6 C 0.8668(4) 0.7415(3) 0.81677(18)
C17_6 C 0.8646(3) 0.7519(3) 0.93542(16)
C23_6 C 0.9299(3) 0.8075(3) 0.69371(16)
C26_10 C 0.7570(4) 0.6526(4) 0.99999(19)
H11_6 H 0.7532 0.6526 0.9742
C28_6 C 0.9752(4) 0.8297(4) 0.6372(2)
H13_6 H 0.9817 0.8209 0.6126
C29_6 C 0.8665(4) 0.7385(3) 0.77546(18)
C31_6 C 0.8320(4) 0.7019(4) 0.75578(19)
H15_6 H 0.8096 0.6777 0.7685
C32_6 C 0.7223(3) 0.5917(3) 0.6558(2)
C33_6 C 0.8308(4) 0.7015(4) 0.7173(2)
C34_6 C 0.6839(3) 0.5539(3) 0.6347(2)
C35_6 C 0.7946(4) 0.6616(4) 0.69563(19)
C36_6 C 0.8732(5) 0.7908(4) 0.8732(2)
H16_6 H 0.8761 0.8245 0.8842
C37_6 C 0.9412(5) 0.7958(4) 0.6582(2)
H17_6 H 0.9261 0.7646 0.6475
C38_6 C 0.8758(5) 0.7858(4) 0.8347(2)
H18_6 H 0.8846 0.8163 0.8211
C39_6 C 0.7613(6) 0.6248(5) 0.7122(2)
H19_6 H 0.7657 0.6201 0.7378
C40_6 C 0.7924(5) 0.6621(5) 0.6583(2)
H20_6 H 0.8150 0.6862 0.6456
C41_6 C 0.7568(5) 0.6268(5) 0.6385(2)
H21_6 H 0.7565 0.6272 0.6127
C42_6 C 0.8620(6) 0.6982(4) 0.8760(2)
H22_6 H 0.8573 0.6671 0.8900
C43_6 C 0.8640(7) 0.6940(5) 0.8386(3)
H23_6 H 0.8635 0.6604 0.8273
C44_6 C 0.7206(5) 0.5938(5) 0.6925(3)
H24_6 H 0.6928 0.5749 0.7049
O1_4 O 0.1528(2) 0.9472(2) 0.55963(14)
O3_4 O 0.1856(3) 0.9170(2) 0.61094(16)
O4_7 O 0.5585(3) 0.51683(18) 0.55719(16)
O7_7 O 0.5437(3) 0.5561(3) 0.60838(14)
N1_7 N 0.3632(2) 0.7408(2) 0.51263(13)
N2_7 N 0.3627(3) 0.7648(3) 0.19775(15)
C1_7 C 0.4473(3) 0.6201(3) 0.49848(19)
H1_7 H 0.4364 0.6130 0.4738
C2_7 C 0.3948(3) 0.7067(3) 0.49319(16)
C3_7 C 0.4881(3) 0.6138(3) 0.18856(18)
H2_7 H 0.5047 0.5835 0.1997
C4_7 C 0.2259(3) 0.8810(3) 0.55736(18)
C5_7 C 0.3966(3) 0.7097(3) 0.45477(17)
H3_7 H 0.4193 0.6858 0.4420
C6_7 C 0.4285(3) 0.6663(3) 0.51454(15)
C7_7 C 0.3960(3) 0.7292(3) 0.21655(18)
C8_7 C 0.4989(3) 0.6250(2) 0.15201(16)
C9_7 C 0.5340(3) 0.5531(3) 0.57466(18)
C10_7 C 0.4953(3) 0.5915(2) 0.55433(17)
C11_7 C 0.3320(3) 0.7783(3) 0.49407(16)
C12_7 C 0.3324(3) 0.7838(3) 0.45560(17)
H4_7 H 0.3114 0.8109 0.4436
C13_7 C 0.3976(3) 0.7268(3) 0.25529(18)
H5_7 H 0.4203 0.7011 0.2675
C14_7 C 0.4539(3) 0.6460(3) 0.20872(18)
H6_7 H 0.4464 0.6365 0.2330
C15_7 C 0.3666(4) 0.7528(3) 0.39433(17)
C16_7 C 0.3668(4) 0.7585(3) 0.31677(18)
C17_7 C 0.3646(3) 0.7481(3) 0.43542(16)
C18_7 C 0.5361(3) 0.5895(3) 0.13120(19)
C19_7 C 0.4427(4) 0.6737(3) 0.55191(18)
H7_7 H 0.4303 0.7043 0.5640
C20_7 C 0.2231(4) 0.8816(4) 0.5192(2)
H8_7 H 0.1983 0.9051 0.5065
C21_7 C 0.1872(3) 0.9167(3) 0.5771(2)
C22_7 C 0.2952(3) 0.8141(3) 0.51628(17)
C23_7 C 0.4299(3) 0.6925(3) 0.19371(16)
C24_7 C 0.2624(4) 0.8466(4) 0.5736(2)
H9_7 H 0.2641 0.8446 0.5994
C25_7 C 0.4819(4) 0.5838(3) 0.5178(2)
H10_7 H 0.4960 0.5539 0.5056
C26_11 C 0.2570(4) 0.8474(4) 0.49999(19)
H11_7 H 0.2532 0.8474 0.4742
C27_7 C 0.2981(4) 0.8139(4) 0.5541(2)
H12_7 H 0.3241 0.7915 0.5668
C28_7 C 0.4752(4) 0.6703(4) 0.1372(2)
H13_7 H 0.4817 0.6791 0.1126
C29_7 C 0.3665(4) 0.7615(3) 0.27546(18)
C30_7 C 0.4752(4) 0.6358(4) 0.57122(19)
H14_7 H 0.4835 0.6408 0.5965
C31_7 C 0.3320(4) 0.7981(4) 0.25578(19)
H15_7 H 0.3096 0.8223 0.2685
C32_7 C 0.2223(3) 0.9083(3) 0.1558(2)
C33_7 C 0.3308(4) 0.7985(4) 0.2173(2)
C34_7 C 0.1839(3) 0.9461(3) 0.1347(2)
C35_7 C 0.2946(4) 0.8384(4) 0.19563(19)
C36_7 C 0.3732(5) 0.7092(4) 0.3732(2)
H16_7 H 0.3761 0.6755 0.3842
C37_7 C 0.4412(5) 0.7042(4) 0.1582(2)
H17_7 H 0.4261 0.7354 0.1475
C38_7 C 0.3758(5) 0.7142(4) 0.3347(2)
H18_7 H 0.3846 0.6837 0.3211
C39_7 C 0.2613(6) 0.8752(5) 0.2122(2)
H19_7 H 0.2657 0.8799 0.2378
C40_7 C 0.2924(5) 0.8379(5) 0.1583(2)
H20_7 H 0.3150 0.8138 0.1456
C41_7 C 0.2568(5) 0.8732(5) 0.1385(2)
H21_7 H 0.2565 0.8728 0.1127
C42_7 C 0.3620(6) 0.8018(4) 0.3760(2)
H22_7 H 0.3573 0.8329 0.3900
C43_7 C 0.3640(7) 0.8060(5) 0.3386(3)
H23_7 H 0.3635 0.8396 0.3273
C44_7 C 0.2206(5) 0.9062(5) 0.1925(3)
H24_7 H 0.1928 0.9251 0.2049
O9_4 O 0.6528(2) 0.4472(2) 0.55963(14)
O11_4 O 0.6856(3) 0.4170(2) 0.61094(16)
O4_8 O 0.0585(3) 0.01683(18) 0.55719(16)
O7_8 O 0.0437(3) 0.0561(3) 0.60838(14)
H2_8 H 0.0047 0.0835 0.1997
C9_8 C 0.0340(3) 0.0531(3) 0.57466(18)
C18_8 C 0.0361(3) 0.0895(3) 0.13120(19)
N1_8 N 0.8632(2) 0.2408(2) 0.51263(13)
N2_8 N 0.8627(3) 0.2648(3) 0.19775(15)
C1_8 C 0.9473(3) 0.1201(3) 0.49848(19)
H1_8 H 0.9364 0.1130 0.4738
C2_8 C 0.8948(3) 0.2067(3) 0.49319(16)
C3_8 C 0.9881(3) 0.1138(3) 0.18856(18)
C4_8 C 0.7259(3) 0.3810(3) 0.55736(18)
C5_8 C 0.8966(3) 0.2097(3) 0.45477(17)
H3_8 H 0.9193 0.1858 0.4420
C6_8 C 0.9285(3) 0.1663(3) 0.51454(15)
C7_8 C 0.8960(3) 0.2292(3) 0.21655(18)
C8_8 C 0.9989(3) 0.1250(2) 0.15201(16)
C10_8 C 0.9953(3) 0.0915(2) 0.55433(17)
C11_8 C 0.8320(3) 0.2783(3) 0.49407(16)
C12_8 C 0.8324(3) 0.2838(3) 0.45560(17)
H4_8 H 0.8114 0.3109 0.4436
C13_8 C 0.8976(3) 0.2268(3) 0.25529(18)
H5_8 H 0.9203 0.2011 0.2675
C14_8 C 0.9539(3) 0.1460(3) 0.20872(18)
H6_8 H 0.9464 0.1365 0.2330
C15_8 C 0.8666(4) 0.2528(3) 0.39433(17)
C16_8 C 0.8668(4) 0.2585(3) 0.31677(18)
C17_8 C 0.8646(3) 0.2481(3) 0.43542(16)
C19_8 C 0.9427(4) 0.1737(3) 0.55191(18)
H7_8 H 0.9303 0.2043 0.5640
C20_8 C 0.7231(4) 0.3816(4) 0.5192(2)
H8_8 H 0.6983 0.4051 0.5065
C21_8 C 0.6872(3) 0.4167(3) 0.5771(2)
C22_8 C 0.7952(3) 0.3141(3) 0.51628(17)
C23_8 C 0.9299(3) 0.1925(3) 0.19371(16)
C24_8 C 0.7624(4) 0.3466(4) 0.5736(2)
H9_8 H 0.7641 0.3446 0.5994
C25_8 C 0.9819(4) 0.0838(3) 0.5178(2)
H10_8 H 0.9960 0.0539 0.5056
C26_12 C 0.7570(4) 0.3474(4) 0.49999(19)
H11_8 H 0.7532 0.3474 0.4742
C27_8 C 0.7981(4) 0.3139(4) 0.5541(2)
H12_8 H 0.8241 0.2915 0.5668
C28_8 C 0.9752(4) 0.1703(4) 0.1372(2)
H13_8 H 0.9817 0.1791 0.1126
C29_8 C 0.8665(4) 0.2615(3) 0.27546(18)
C30_8 C 0.9752(4) 0.1358(4) 0.57122(19)
H14_8 H 0.9835 0.1408 0.5965
C31_8 C 0.8320(4) 0.2981(4) 0.25578(19)
H15_8 H 0.8096 0.3223 0.2685
C32_8 C 0.7223(3) 0.4083(3) 0.1558(2)
C33_8 C 0.8308(4) 0.2985(4) 0.2173(2)
C34_8 C 0.6839(3) 0.4461(3) 0.1347(2)
C35_8 C 0.7946(4) 0.3384(4) 0.19563(19)
C36_8 C 0.8732(5) 0.2092(4) 0.3732(2)
H16_8 H 0.8761 0.1755 0.3842
C37_8 C 0.9412(5) 0.2042(4) 0.1582(2)
H17_8 H 0.9261 0.2354 0.1475
C38_8 C 0.8758(5) 0.2142(4) 0.3347(2)
H18_8 H 0.8846 0.1837 0.3211
C39_8 C 0.7613(6) 0.3752(5) 0.2122(2)
H19_8 H 0.7657 0.3799 0.2378
C40_8 C 0.7924(5) 0.3379(5) 0.1583(2)
H20_8 H 0.8150 0.3138 0.1456
C41_8 C 0.7568(5) 0.3732(5) 0.1385(2)
H21_8 H 0.7565 0.3728 0.1127
C42_8 C 0.8620(6) 0.3018(4) 0.3760(2)
H22_8 H 0.8573 0.3329 0.3900
C43_8 C 0.8640(7) 0.3060(5) 0.3386(3)
H23_8 H 0.8635 0.3396 0.3273
C44_8 C 0.7206(5) 0.4062(5) 0.1925(3)
H24_8 H 0.6928 0.4251 0.2049
loop_
_geom_bond_atom_site_label_1
_geom_bond_atom_site_label_2
_geom_bond_site_symmetry_1
_geom_bond_site_symmetry_2
In1 O4 1_555 1_555
O1 C21 1_555 1_555
O2 C34 1_555 1_555
O3 C21 1_555 1_555
O4 C9 1_555 1_555
O5 C18 1_555 1_555
O6 C18 1_555 1_555
O7 In1 1_555 1_555
O8 C34 1_555 1_555
N1 C2 1_555 1_555
N2 C7 1_555 1_555
C1 H1 1_555 1_555
C2 C5 1_555 1_555
C3 H2 1_555 1_555
C4 C20 1_555 1_555
C5 H3 1_555 1_555
C6 C1 1_555 1_555
C7 C13 1_555 1_555
C8 C3 1_555 1_555
C9 O7 1_555 1_555
C10 C9 1_555 1_555
C11 N1 1_555 1_555
C12 C11 1_555 1_555
H4 C12 1_555 1_555
C13 H5 1_555 1_555
C14 C3 1_555 1_555
H6 C14 1_555 1_555
C15 C17 1_555 1_555
C16 C29 1_555 1_555
C17 C5 1_555 1_555
C18 C8 1_555 1_555
C19 C6 1_555 1_555
H7 C19 1_555 1_555
C20 H8 1_555 1_555
C21 C4 1_555 1_555
C22 C11 1_555 1_555
C23 C7 1_555 1_555
C24 C4 1_555 1_555
H9 C24 1_555 1_555
C25 C1 1_555 1_555
H10 C25 1_555 1_555
C26 C20 1_555 1_555
H11 C26 1_555 1_555
C27 C22 1_555 1_555
H12 C27 1_555 1_555
C28 C8 1_555 1_555
H13 C28 1_555 1_555
C29 C13 1_555 1_555
C30 C10 1_555 1_555
H14 C30 1_555 1_555
C31 C29 1_555 1_555
H15 C31 1_555 1_555
C32 C34 1_555 1_555
C33 N2 1_555 1_555
C35 C33 1_555 1_555
C36 C15 1_555 1_555
H16 C36 1_555 1_555
C37 C23 1_555 1_555
H17 C37 1_555 1_555
C38 C16 1_555 1_555
H18 C38 1_555 1_555
C39 C35 1_555 1_555
H19 C39 1_555 1_555
C40 C35 1_555 1_555
H20 C40 1_555 1_555
C41 C32 1_555 1_555
H21 C41 1_555 1_555
C42 C15 1_555 1_555
H22 C42 1_555 1_555
C43 C16 1_555 1_555
H23 C43 1_555 1_555
C44 C32 1_555 1_555
H24 C44 1_555 1_555
In2 O1 1_555 1_555
In3 O5 1_555 1_555
O9 In1 1_555 1_555
O10 In1 1_555 1_555
O11 In1 1_555 1_555
O12 In1 1_555 1_555
O13 In1 1_555 1_555
O14 In1 1_555 1_555
O3 In2 1_555 1_555
O6 In3 1_555 1_555
C2 C6 1_555 1_555
C10 C25 1_555 1_555
C12 C17 1_555 1_555
C14 C23 1_555 1_555
C19 C30 1_555 1_555
C22 C26 1_555 1_555
C24 C27 1_555 1_555
C28 C37 1_555 1_555
C31 C33 1_555 1_555
C36 C38 1_555 1_555
C39 C44 1_555 1_555
C40 C41 1_555 1_555
C42 C43 1_555 1_555
O9 C21_2 1_555 1_555
O2_2 C34_2 1_555 1_555
O11 C21_2 1_555 1_555
O8_2 C34_2 1_555 1_555
N1_2 C2_2 1_555 1_555
N2_2 C7_2 1_555 1_555
C1_2 H1_2 1_555 1_555
C2_2 C5_2 1_555 1_555
C4_2 C20_2 1_555 1_555
C5_2 H3_2 1_555 1_555
C6_2 C1_2 1_555 1_555
C7_2 C13_2 1_555 1_555
C8_2 C3_2 1_555 1_555
C11_2 N1_2 1_555 1_555
C12_2 C11_2 1_555 1_555
H4_2 C12_2 1_555 1_555
C13_2 H5_2 1_555 1_555
C14_2 C3_2 1_555 1_555
H6_2 C14_2 1_555 1_555
C15_2 C17_2 1_555 1_555
C16_2 C29_2 1_555 1_555
C17_2 C5_2 1_555 1_555
C19_2 C6_2 1_555 1_555
H7_2 C19_2 1_555 1_555
C20_2 H8_2 1_555 1_555
C21_2 C4_2 1_555 1_555
C22_2 C11_2 1_555 1_555
C23_2 C7_2 1_555 1_555
C24_2 C4_2 1_555 1_555
H9_2 C24_2 1_555 1_555
C25_2 C1_2 1_555 1_555
H10_2 C25_2 1_555 1_555
C26_2 C20_2 1_555 1_555
H11_2 C26_2 1_555 1_555
C27_2 C22_2 1_555 1_555
H12_2 C27_2 1_555 1_555
C28_2 C8_2 1_555 1_555
H13_2 C28_2 1_555 1_555
C29_2 C13_2 1_555 1_555
C30_2 C10_2 1_555 1_555
H14_2 C30_2 1_555 1_555
C31_2 C29_2 1_555 1_555
H15_2 C31_2 1_555 1_555
C32_2 C34_2 1_555 1_555
C33_2 N2_2 1_555 1_555
C35_2 C33_2 1_555 1_555
C36_2 C15_2 1_555 1_555
H16_2 C36_2 1_555 1_555
C37_2 C23_2 1_555 1_555
H17_2 C37_2 1_555 1_555
C38_2 C16_2 1_555 1_555
H18_2 C38_2 1_555 1_555
C39_2 C35_2 1_555 1_555
H19_2 C39_2 1_555 1_555
C40_2 C35_2 1_555 1_555
H20_2 C40_2 1_555 1_555
C41_2 C32_2 1_555 1_555
H21_2 C41_2 1_555 1_555
C42_2 C15_2 1_555 1_555
H22_2 C42_2 1_555 1_555
C43_2 C16_2 1_555 1_555
H23_2 C43_2 1_555 1_555
C44_2 C32_2 1_555 1_555
H24_2 C44_2 1_555 1_555
In3 O2_2 1_555 1_555
O8_2 In3 1_555 1_555
C2_2 C6_2 1_555 1_555
C10_2 C25_2 1_555 1_555
C12_2 C17_2 1_555 1_555
C14_2 C23_2 1_555 1_555
C19_2 C30_2 1_555 1_555
C22_2 C26_2 1_555 1_555
C24_2 C27_2 1_555 1_555
C28_2 C37_2 1_555 1_555
C31_2 C33_2 1_555 1_555
C36_2 C38_2 1_555 1_555
C39_2 C44_2 1_555 1_555
C40_2 C41_2 1_555 1_555
C42_2 C43_2 1_555 1_555
O12_2 In2 1_555 1_555
O13_2 In2 1_555 1_555
O4_2 C9_2 1_555 1_555
O5_2 C18_2 1_555 1_555
O6_2 C18_2 1_555 1_555
C9_2 O7_2 1_555 1_555
In4 O5_2 1_555 1_555
O6_2 In4 1_555 1_555
O10_2 C34_3 1_555 1_555
O12 C18_3 1_555 1_555
O13 C18_3 1_555 1_555
O14_2 C34_3 1_555 1_555
N2_3 C7_3 1_555 1_555
C1_3 H1_3 1_555 1_555
C2_3 C5_3 1_555 1_555
C3_3 H2_3 1_555 1_555
C5_3 H3_3 1_555 1_555
C7_3 C13_3 1_555 1_555
C8_3 C3_3 1_555 1_555
C12_3 C11_3 1_555 1_555
H4_3 C12_3 1_555 1_555
C13_3 H5_3 1_555 1_555
C14_3 C3_3 1_555 1_555
H6_3 C14_3 1_555 1_555
C15_3 C17_3 1_555 1_555
C16_3 C29_3 1_555 1_555
C17_3 C5_3 1_555 1_555
C18_3 C8_3 1_555 1_555
C23_3 C7_3 1_555 1_555
H11_3 C26_3 1_555 1_555
C28_3 C8_3 1_555 1_555
H13_3 C28_3 1_555 1_555
C29_3 C13_3 1_555 1_555
C31_3 C29_3 1_555 1_555
H15_3 C31_3 1_555 1_555
C32_3 C34_3 1_555 1_555
C33_3 N2_3 1_555 1_555
C35_3 C33_3 1_555 1_555
C36_3 C15_3 1_555 1_555
H16_3 C36_3 1_555 1_555
C37_3 C23_3 1_555 1_555
H17_3 C37_3 1_555 1_555
C38_3 C16_3 1_555 1_555
H18_3 C38_3 1_555 1_555
C39_3 C35_3 1_555 1_555
H19_3 C39_3 1_555 1_555
C40_3 C35_3 1_555 1_555
H20_3 C40_3 1_555 1_555
C41_3 C32_3 1_555 1_555
H21_3 C41_3 1_555 1_555
C42_3 C15_3 1_555 1_555
H22_3 C42_3 1_555 1_555
C43_3 C16_3 1_555 1_555
H23_3 C43_3 1_555 1_555
C44_3 C32_3 1_555 1_555
H24_3 C44_3 1_555 1_555
C12_3 C17_3 1_555 1_555
C14_3 C23_3 1_555 1_555
C28_3 C37_3 1_555 1_555
C31_3 C33_3 1_555 1_555
C36_3 C38_3 1_555 1_555
C39_3 C44_3 1_555 1_555
C40_3 C41_3 1_555 1_555
C42_3 C43_3 1_555 1_555
In3 O4_3 1_555 1_555
O1_2 C21_3 1_555 1_555
O3_2 C21_3 1_555 1_555
O4_3 C9_3 1_555 1_555
O7_3 In3 1_555 1_555
C4_3 C20_3 1_555 1_555
C9_3 O7_3 1_555 1_555
C10_3 C9_3 1_555 1_555
C19_3 C6_3 1_555 1_555
H7_3 C19_3 1_555 1_555
C20_3 H8_3 1_555 1_555
C21_3 C4_3 1_555 1_555
C24_3 C4_3 1_555 1_555
H9_3 C24_3 1_555 1_555
H10_3 C25_3 1_555 1_555
C26_4 C20_3 1_555 1_555
C27_3 C22_3 1_555 1_555
H12_3 C27_3 1_555 1_555
C30_3 C10_3 1_555 1_555
H14_3 C30_3 1_555 1_555
In4 O1_2 1_555 1_555
O9_2 In3 1_555 1_555
O11_2 In3 1_555 1_555
O3_2 In4 1_555 1_555
C10_3 C25_3 1_555 1_555
C19_3 C30_3 1_555 1_555
C22_3 C26_4 1_555 1_555
C24_3 C27_3 1_555 1_555
O10 C34_4 1_555 1_555
O14 C34_4 1_555 1_555
N2_4 C7_4 1_555 1_555
C1_4 H1_4 1_555 1_555
C2_4 C5_4 1_555 1_555
C5_4 H3_4 1_555 1_555
C7_4 C13_4 1_555 1_555
C8_4 C3_4 1_555 1_555
C12_4 C11_4 1_555 1_555
H4_4 C12_4 1_555 1_555
C13_4 H5_4 1_555 1_555
C14_4 C3_4 1_555 1_555
H6_4 C14_4 1_555 1_555
C15_4 C17_4 1_555 1_555
C16_4 C29_4 1_555 1_555
C17_4 C5_4 1_555 1_555
C23_4 C7_4 1_555 1_555
H11_4 C26_5 1_555 1_555
C28_4 C8_4 1_555 1_555
H13_4 C28_4 1_555 1_555
C29_4 C13_4 1_555 1_555
C31_4 C29_4 1_555 1_555
H15_4 C31_4 1_555 1_555
C32_4 C34_4 1_555 1_555
C33_4 N2_4 1_555 1_555
C35_4 C33_4 1_555 1_555
C36_4 C15_4 1_555 1_555
H16_4 C36_4 1_555 1_555
C37_4 C23_4 1_555 1_555
H17_4 C37_4 1_555 1_555
C38_4 C16_4 1_555 1_555
H18_4 C38_4 1_555 1_555
C39_4 C35_4 1_555 1_555
H19_4 C39_4 1_555 1_555
C40_4 C35_4 1_555 1_555
H20_4 C40_4 1_555 1_555
C41_4 C32_4 1_555 1_555
H21_4 C41_4 1_555 1_555
C42_4 C15_4 1_555 1_555
H22_4 C42_4 1_555 1_555
C43_4 C16_4 1_555 1_555
H23_4 C43_4 1_555 1_555
C44_4 C32_4 1_555 1_555
H24_4 C44_4 1_555 1_555
C12_4 C17_4 1_555 1_555
C14_4 C23_4 1_555 1_555
C28_4 C37_4 1_555 1_555
C31_4 C33_4 1_555 1_555
C36_4 C38_4 1_555 1_555
C39_4 C44_4 1_555 1_555
C40_4 C41_4 1_555 1_555
C42_4 C43_4 1_555 1_555
O9_2 C21_4 1_555 1_555
O11_2 C21_4 1_555 1_555
C4_4 C20_4 1_555 1_555
C19_4 C6_4 1_555 1_555
H7_4 C19_4 1_555 1_555
C20_4 H8_4 1_555 1_555
C21_4 C4_4 1_555 1_555
C24_4 C4_4 1_555 1_555
H9_4 C24_4 1_555 1_555
H10_4 C25_4 1_555 1_555
C26_6 C20_4 1_555 1_555
C27_4 C22_4 1_555 1_555
H12_4 C27_4 1_555 1_555
C30_4 C10_4 1_555 1_555
H14_4 C30_4 1_555 1_555
C10_4 C25_4 1_555 1_555
C19_4 C30_4 1_555 1_555
C22_4 C26_6 1_555 1_555
C24_4 C27_4 1_555 1_555
O12_2 C18_4 1_555 1_555
O13_2 C18_4 1_555 1_555
O4_4 C9_4 1_555 1_555
C9_4 O7_4 1_555 1_555
In1_2 O4_5 1_555 1_555
O1_3 C21_5 1_555 1_555
O3_3 C21_5 1_555 1_555
O4_5 C9_5 1_555 1_555
O7_5 In1_2 1_555 1_555
C4_5 C20_5 1_555 1_555
C9_5 O7_5 1_555 1_555
C10_5 C9_5 1_555 1_555
C19_5 C6_5 1_555 1_555
H7_5 C19_5 1_555 1_555
C20_5 H8_5 1_555 1_555
C21_5 C4_5 1_555 1_555
C24_5 C4_5 1_555 1_555
H9_5 C24_5 1_555 1_555
H10_5 C25_5 1_555 1_555
C26_7 C20_5 1_555 1_555
C27_5 C22_5 1_555 1_555
H12_5 C27_5 1_555 1_555
C30_5 C10_5 1_555 1_555
H14_5 C30_5 1_555 1_555
In2_2 O1_3 1_555 1_555
O9_3 In1_2 1_555 1_555
O10_3 In1_2 1_555 1_555
O11_3 In1_2 1_555 1_555
O12_3 In1_2 1_555 1_555
O13_3 In1_2 1_555 1_555
O14_3 In1_2 1_555 1_555
O3_3 In2_2 1_555 1_555
C10_5 C25_5 1_555 1_555
C19_5 C30_5 1_555 1_555
C22_5 C26_7 1_555 1_555
C24_5 C27_5 1_555 1_555
O2_3 C34_5 1_555 1_555
O5_3 C18_5 1_555 1_555
O6_3 C18_5 1_555 1_555
O8_3 C34_5 1_555 1_555
N2_5 C7_5 1_555 1_555
C1_5 H1_5 1_555 1_555
C2_5 C5_5 1_555 1_555
C3_5 H2_5 1_555 1_555
C5_5 H3_5 1_555 1_555
C7_5 C13_5 1_555 1_555
C8_5 C3_5 1_555 1_555
C12_5 C11_5 1_555 1_555
H4_5 C12_5 1_555 1_555
C13_5 H5_5 1_555 1_555
C14_5 C3_5 1_555 1_555
H6_5 C14_5 1_555 1_555
C15_5 C17_5 1_555 1_555
C16_5 C29_5 1_555 1_555
C17_5 C5_5 1_555 1_555
C18_5 C8_5 1_555 1_555
C23_5 C7_5 1_555 1_555
H11_5 C26_8 1_555 1_555
C28_5 C8_5 1_555 1_555
H13_5 C28_5 1_555 1_555
C29_5 C13_5 1_555 1_555
C31_5 C29_5 1_555 1_555
H15_5 C31_5 1_555 1_555
C32_5 C34_5 1_555 1_555
C33_5 N2_5 1_555 1_555
C35_5 C33_5 1_555 1_555
C36_5 C15_5 1_555 1_555
H16_5 C36_5 1_555 1_555
C37_5 C23_5 1_555 1_555
H17_5 C37_5 1_555 1_555
C38_5 C16_5 1_555 1_555
H18_5 C38_5 1_555 1_555
C39_5 C35_5 1_555 1_555
H19_5 C39_5 1_555 1_555
C40_5 C35_5 1_555 1_555
H20_5 C40_5 1_555 1_555
C41_5 C32_5 1_555 1_555
H21_5 C41_5 1_555 1_555
C42_5 C15_5 1_555 1_555
H22_5 C42_5 1_555 1_555
C43_5 C16_5 1_555 1_555
H23_5 C43_5 1_555 1_555
C44_5 C32_5 1_555 1_555
H24_5 C44_5 1_555 1_555
In3_2 O5_3 1_555 1_555
O6_3 In3_2 1_555 1_555
C12_5 C17_5 1_555 1_555
C14_5 C23_5 1_555 1_555
C28_5 C37_5 1_555 1_555
C31_5 C33_5 1_555 1_555
C36_5 C38_5 1_555 1_555
C39_5 C44_5 1_555 1_555
C40_5 C41_5 1_555 1_555
C42_5 C43_5 1_555 1_555
O12_4 In2_2 1_555 1_555
O13_4 In2_2 1_555 1_555
O4_6 C9_6 1_555 1_555
C9_6 O7_6 1_555 1_555
O5_4 C18_6 1_555 1_555
O6_4 C18_6 1_555 1_555
In4_2 O5_4 1_555 1_555
O6_4 In4_2 1_555 1_555
O9_3 C21_6 1_555 1_555
O11_3 C21_6 1_555 1_555
C4_6 C20_6 1_555 1_555
C19_6 C6_6 1_555 1_555
H7_6 C19_6 1_555 1_555
C20_6 H8_6 1_555 1_555
C21_6 C4_6 1_555 1_555
C24_6 C4_6 1_555 1_555
H9_6 C24_6 1_555 1_555
H10_6 C25_6 1_555 1_555
C26_9 C20_6 1_555 1_555
C27_6 C22_6 1_555 1_555
H12_6 C27_6 1_555 1_555
C30_6 C10_6 1_555 1_555
H14_6 C30_6 1_555 1_555
C10_6 C25_6 1_555 1_555
C19_6 C30_6 1_555 1_555
C22_6 C26_9 1_555 1_555
C24_6 C27_6 1_555 1_555
O2_4 C34_6 1_555 1_555
O8_4 C34_6 1_555 1_555
N2_6 C7_6 1_555 1_555
C1_6 H1_6 1_555 1_555
C2_6 C5_6 1_555 1_555
C5_6 H3_6 1_555 1_555
C7_6 C13_6 1_555 1_555
C8_6 C3_6 1_555 1_555
C12_6 C11_6 1_555 1_555
H4_6 C12_6 1_555 1_555
C13_6 H5_6 1_555 1_555
C14_6 C3_6 1_555 1_555
H6_6 C14_6 1_555 1_555
C15_6 C17_6 1_555 1_555
C16_6 C29_6 1_555 1_555
C17_6 C5_6 1_555 1_555
C23_6 C7_6 1_555 1_555
H11_6 C26_10 1_555 1_555
C28_6 C8_6 1_555 1_555
H13_6 C28_6 1_555 1_555
C29_6 C13_6 1_555 1_555
C31_6 C29_6 1_555 1_555
H15_6 C31_6 1_555 1_555
C32_6 C34_6 1_555 1_555
C33_6 N2_6 1_555 1_555
C35_6 C33_6 1_555 1_555
C36_6 C15_6 1_555 1_555
H16_6 C36_6 1_555 1_555
C37_6 C23_6 1_555 1_555
H17_6 C37_6 1_555 1_555
C38_6 C16_6 1_555 1_555
H18_6 C38_6 1_555 1_555
C39_6 C35_6 1_555 1_555
H19_6 C39_6 1_555 1_555
C40_6 C35_6 1_555 1_555
H20_6 C40_6 1_555 1_555
C41_6 C32_6 1_555 1_555
H21_6 C41_6 1_555 1_555
C42_6 C15_6 1_555 1_555
H22_6 C42_6 1_555 1_555
C43_6 C16_6 1_555 1_555
H23_6 C43_6 1_555 1_555
C44_6 C32_6 1_555 1_555
H24_6 C44_6 1_555 1_555
In3_2 O2_4 1_555 1_555
O8_4 In3_2 1_555 1_555
C12_6 C17_6 1_555 1_555
C14_6 C23_6 1_555 1_555
C28_6 C37_6 1_555 1_555
C31_6 C33_6 1_555 1_555
C36_6 C38_6 1_555 1_555
C39_6 C44_6 1_555 1_555
C40_6 C41_6 1_555 1_555
C42_6 C43_6 1_555 1_555
In3_2 O4_7 1_555 1_555
O1_4 C21_7 1_555 1_555
O10_4 C34_7 1_555 1_555
O3_4 C21_7 1_555 1_555
O4_7 C9_7 1_555 1_555
O12_3 C18_7 1_555 1_555
O13_3 C18_7 1_555 1_555
O7_7 In3_2 1_555 1_555
O14_4 C34_7 1_555 1_555
N1_7 C2_7 1_555 1_555
N2_7 C7_7 1_555 1_555
C1_7 H1_7 1_555 1_555
C2_7 C5_7 1_555 1_555
C3_7 H2_7 1_555 1_555
C4_7 C20_7 1_555 1_555
C5_7 H3_7 1_555 1_555
C6_7 C1_7 1_555 1_555
C7_7 C13_7 1_555 1_555
C8_7 C3_7 1_555 1_555
C9_7 O7_7 1_555 1_555
C10_7 C9_7 1_555 1_555
C11_7 N1_7 1_555 1_555
C12_7 C11_7 1_555 1_555
H4_7 C12_7 1_555 1_555
C13_7 H5_7 1_555 1_555
C14_7 C3_7 1_555 1_555
H6_7 C14_7 1_555 1_555
C15_7 C17_7 1_555 1_555
C16_7 C29_7 1_555 1_555
C17_7 C5_7 1_555 1_555
C18_7 C8_7 1_555 1_555
C19_7 C6_7 1_555 1_555
H7_7 C19_7 1_555 1_555
C20_7 H8_7 1_555 1_555
C21_7 C4_7 1_555 1_555
C22_7 C11_7 1_555 1_555
C23_7 C7_7 1_555 1_555
C24_7 C4_7 1_555 1_555
H9_7 C24_7 1_555 1_555
C25_7 C1_7 1_555 1_555
H10_7 C25_7 1_555 1_555
C26_11 C20_7 1_555 1_555
H11_7 C26_11 1_555 1_555
C27_7 C22_7 1_555 1_555
H12_7 C27_7 1_555 1_555
C28_7 C8_7 1_555 1_555
H13_7 C28_7 1_555 1_555
C29_7 C13_7 1_555 1_555
C30_7 C10_7 1_555 1_555
H14_7 C30_7 1_555 1_555
C31_7 C29_7 1_555 1_555
H15_7 C31_7 1_555 1_555
C32_7 C34_7 1_555 1_555
C33_7 N2_7 1_555 1_555
C35_7 C33_7 1_555 1_555
C36_7 C15_7 1_555 1_555
H16_7 C36_7 1_555 1_555
C37_7 C23_7 1_555 1_555
H17_7 C37_7 1_555 1_555
C38_7 C16_7 1_555 1_555
H18_7 C38_7 1_555 1_555
C39_7 C35_7 1_555 1_555
H19_7 C39_7 1_555 1_555
C40_7 C35_7 1_555 1_555
H20_7 C40_7 1_555 1_555
C41_7 C32_7 1_555 1_555
H21_7 C41_7 1_555 1_555
C42_7 C15_7 1_555 1_555
H22_7 C42_7 1_555 1_555
C43_7 C16_7 1_555 1_555
H23_7 C43_7 1_555 1_555
C44_7 C32_7 1_555 1_555
H24_7 C44_7 1_555 1_555
In4_2 O1_4 1_555 1_555
O9_4 In3_2 1_555 1_555
O11_4 In3_2 1_555 1_555
O3_4 In4_2 1_555 1_555
C2_7 C6_7 1_555 1_555
C10_7 C25_7 1_555 1_555
C12_7 C17_7 1_555 1_555
C14_7 C23_7 1_555 1_555
C19_7 C30_7 1_555 1_555
C22_7 C26_11 1_555 1_555
C24_7 C27_7 1_555 1_555
C28_7 C37_7 1_555 1_555
C31_7 C33_7 1_555 1_555
C36_7 C38_7 1_555 1_555
C39_7 C44_7 1_555 1_555
C40_7 C41_7 1_555 1_555
C42_7 C43_7 1_555 1_555
O4_8 C9_8 1_555 1_555
O12_4 C18_8 1_555 1_555
O13_4 C18_8 1_555 1_555
C9_8 O7_8 1_555 1_555
O9_4 C21_8 1_555 1_555
O10_3 C34_8 1_555 1_555
O11_4 C21_8 1_555 1_555
O14_3 C34_8 1_555 1_555
N1_8 C2_8 1_555 1_555
N2_8 C7_8 1_555 1_555
C1_8 H1_8 1_555 1_555
C2_8 C5_8 1_555 1_555
C4_8 C20_8 1_555 1_555
C5_8 H3_8 1_555 1_555
C6_8 C1_8 1_555 1_555
C7_8 C13_8 1_555 1_555
C8_8 C3_8 1_555 1_555
C11_8 N1_8 1_555 1_555
C12_8 C11_8 1_555 1_555
H4_8 C12_8 1_555 1_555
C13_8 H5_8 1_555 1_555
C14_8 C3_8 1_555 1_555
H6_8 C14_8 1_555 1_555
C15_8 C17_8 1_555 1_555
C16_8 C29_8 1_555 1_555
C17_8 C5_8 1_555 1_555
C19_8 C6_8 1_555 1_555
H7_8 C19_8 1_555 1_555
C20_8 H8_8 1_555 1_555
C21_8 C4_8 1_555 1_555
C22_8 C11_8 1_555 1_555
C23_8 C7_8 1_555 1_555
C24_8 C4_8 1_555 1_555
H9_8 C24_8 1_555 1_555
C25_8 C1_8 1_555 1_555
H10_8 C25_8 1_555 1_555
C26_12 C20_8 1_555 1_555
H11_8 C26_12 1_555 1_555
C27_8 C22_8 1_555 1_555
H12_8 C27_8 1_555 1_555
C28_8 C8_8 1_555 1_555
H13_8 C28_8 1_555 1_555
C29_8 C13_8 1_555 1_555
C30_8 C10_8 1_555 1_555
H14_8 C30_8 1_555 1_555
C31_8 C29_8 1_555 1_555
H15_8 C31_8 1_555 1_555
C32_8 C34_8 1_555 1_555
C33_8 N2_8 1_555 1_555
C35_8 C33_8 1_555 1_555
C36_8 C15_8 1_555 1_555
H16_8 C36_8 1_555 1_555
C37_8 C23_8 1_555 1_555
H17_8 C37_8 1_555 1_555
C38_8 C16_8 1_555 1_555
H18_8 C38_8 1_555 1_555
C39_8 C35_8 1_555 1_555
H19_8 C39_8 1_555 1_555
C40_8 C35_8 1_555 1_555
H20_8 C40_8 1_555 1_555
C41_8 C32_8 1_555 1_555
H21_8 C41_8 1_555 1_555
C42_8 C15_8 1_555 1_555
H22_8 C42_8 1_555 1_555
C43_8 C16_8 1_555 1_555
H23_8 C43_8 1_555 1_555
C44_8 C32_8 1_555 1_555
H24_8 C44_8 1_555 1_555
C2_8 C6_8 1_555 1_555
C10_8 C25_8 1_555 1_555
C12_8 C17_8 1_555 1_555
C14_8 C23_8 1_555 1_555
C19_8 C30_8 1_555 1_555
C22_8 C26_12 1_555 1_555
C24_8 C27_8 1_555 1_555
C28_8 C37_8 1_555 1_555
C31_8 C33_8 1_555 1_555
C36_8 C38_8 1_555 1_555
C39_8 C44_8 1_555 1_555
C40_8 C41_8 1_555 1_555
C42_8 C43_8 1_555 1_555

#END
