
###############################################################################
#
# This file contains modified crystal structure data generated from the
# MOF subset of the Cambridge Structural Database (CSD) v543 
# hosted by the Cambridge Crystallographic Data Centre (CCDC).
#
# This work is licensed under the Creative Commons
# Attribution-NonCommercial-ShareAlike 4.0 International License.
# To view a copy of this license, visit
# http://creativecommons.org/licenses/by-nc-sa/4.0/
# or send a letter to
# Creative Commons, PO Box 1866, Mountain View, CA 94042, USA.
#
# CIF created using the CSD Python API on 29 September 2022
# The structure has been converted into the P1 space group
# The structure has a 3D framework
# The original CSD entry YEXCOW is in the orthorhombic crystal system
# The framework has been calculated to contain at least 10.0% void space
# The void calculation uses a probe of radius 1.32A, grid spacing 0.4
# The framework is charged, counterions have been retained in the structure
#
###############################################################################

data_YEXCOW
_chemical_formula_moiety         '(C192 H96 In4 N16 O32 2-)n'
_symmetry_cell_setting           triclinic
_symmetry_space_group_name_H-M   'P 1'
_symmetry_Int_Tables_number      1
_space_group_name_Hall           'P 1'
loop_
_symmetry_equiv_pos_site_id
_symmetry_equiv_pos_as_xyz
1 x,y,z
_cell_length_a                   10.7499(9)
_cell_length_b                   12.8409(8)
_cell_length_c                   36.2495(16)
_cell_angle_alpha                90
_cell_angle_beta                 90
_cell_angle_gamma                90
_cell_volume                     5003.82
loop_
_atom_site_label
_atom_site_type_symbol
_atom_site_fract_x
_atom_site_fract_y
_atom_site_fract_z
O5 O 0.1407(7) 0.4427(6) 0.14262(19)
O6 O 0.1440(7) 0.4413(5) 0.55219(19)
O7 O 0.1182(7) 0.3482(6) 0.6031(2)
O8 O 0.1094(7) 0.3538(7) 0.0926(2)
C25 C 0.0949(8) 0.3635(9) 0.5684(3)
C26 C 0.0959(9) 0.3661(9) 0.1265(3)
H14 H 0.0178 0.3739 0.1951
C31 C 0.0077(10) 0.2945(8) 0.1469(3)
H23 H 0.0070 0.3809 0.5027
C43 C 0.0231(10) 0.2888(8) 0.5476(3)
In2 In 0.2500 0.5000 0.09721(2)
In4 In 0.2500 0.5000 0.59721(2)
O1 O 0.3593(7) 0.5573(6) 0.14262(19)
O2 O 0.3560(7) 0.5587(5) 0.55219(19)
O3 O 0.3818(7) 0.6518(6) 0.6031(2)
O4 O 0.3906(7) 0.6462(7) 0.0926(2)
N1 N 0.7500 1.0000 0.1919(4)
C1 C 0.4051(8) 0.6365(9) 0.5684(3)
C2 C 0.4041(9) 0.6339(9) 0.1265(3)
C3 C 0.5857(12) 0.8735(9) 0.5446(4)
H1 H 0.6049 0.9382 0.5546
C4 C 0.6213(8) 0.8477(8) 0.1887(3)
C5 C 0.5136(9) 0.6858(7) 0.1840(3)
H2 H 0.4822 0.6261 0.1951
C6 C 0.6824(10) 0.9216(8) 0.2483(3)
H3 H 0.6379 0.8687 0.2599
C7 C 0.4923(10) 0.7055(8) 0.1469(3)
C8 C 0.6867(11) 0.9286(9) 0.2111(3)
C9 C 0.5807(8) 0.7549(8) 0.2035(3)
H4 H 0.6003 0.7396 0.2279
C10 C 0.6891(13) 0.9257(9) 0.4854(3)
C11 C 0.6221(10) 0.8479(8) 0.5067(3)
C12 C 0.6935(11) 0.9223(8) 0.4478(3)
H5 H 0.6576 0.8664 0.4354
C13 C 0.5897(13) 0.7531(8) 0.4933(3)
H6 H 0.6182 0.7340 0.4701
C14 C 0.5355(11) 0.7980(10) 0.1301(3)
H7 H 0.5187 0.8127 0.1055
N2 N 0.7500 1.0000 0.5044(5)
C15 C 0.5240(13) 0.8018(9) 0.5646(3)
H8 H 0.5125 0.8121 0.5898
C16 C 0.7447(11) 0.9073(11) 0.3688(4)
H9 H 0.7369 0.8452 0.3818
C17 C 0.6026(11) 0.8645(12) 0.1514(3)
H10 H 0.6371 0.9233 0.1405
C18 C 0.7500 1.0000 0.3872(6)
C19 C 0.5155(13) 0.6829(9) 0.5128(3)
H11 H 0.4930 0.6191 0.5027
C20 C 0.4769(10) 0.7112(8) 0.5476(3)
C21 C 0.7500 1.0000 0.3107(6)
C22 C 0.7500 1.0000 0.4279(5)
C23 C 0.7512(10) 0.9069(10) 0.3298(4)
H12 H 0.7563 0.8441 0.3171
C24 C 0.7500 1.0000 0.2698(6)
O10 O 0.1440(7) 0.5587(5) 0.05219(19)
O11 O 0.3560(7) 0.4413(5) 0.05219(19)
O12 O 0.1182(7) 0.6518(6) 0.1031(2)
O13 O 0.3818(7) 0.3482(6) 0.1031(2)
C1_2 C 0.0949(8) 0.6365(9) 0.0684(3)
H11_2 H 0.0070 0.6191 0.0027
C20_2 C 0.0231(10) 0.7112(8) 0.0476(3)
O1_2 O 0.1407(7) 0.5573(6) 0.64262(19)
O4_2 O 0.1094(7) 0.6462(7) 0.5926(2)
C2_2 C 0.0959(9) 0.6339(9) 0.6265(3)
H2_2 H 0.0178 0.6261 0.6951
C7_2 C 0.0077(10) 0.7055(8) 0.6469(3)
O9 O 0.3593(7) 0.4427(6) 0.64262(19)
O14 O 0.3906(7) 0.3538(7) 0.5926(2)
N2_2 N 0.7500 -0.0000 0.0044(5)
C25_2 C 0.4051(8) 0.3635(9) 0.0684(3)
C27 C 0.5857(12) 0.1265(9) 0.0446(4)
H13 H 0.6049 0.0618 0.0546
C35 C 0.6221(10) 0.1521(8) 0.0067(3)
C39 C 0.5240(13) 0.1982(9) 0.0646(3)
H20 H 0.5125 0.1879 0.0898
C42 C 0.5155(13) 0.3171(9) 0.0128(3)
H23_2 H 0.4930 0.3809 0.0027
C43_2 C 0.4769(10) 0.2888(8) 0.0476(3)
N1_2 N 0.7500 0.0000 0.6919(4)
C18_2 C 0.7500 -0.0000 0.8872(6)
C21_2 C 0.7500 0.0000 0.8107(6)
C22_2 C 0.7500 -0.0000 0.9279(5)
C24_2 C 0.7500 -0.0000 0.7698(6)
C26_2 C 0.4041(9) 0.3661(9) 0.6265(3)
C28 C 0.6213(8) 0.1523(8) 0.6887(3)
C29 C 0.5136(9) 0.3142(7) 0.6840(3)
H14_2 H 0.4822 0.3739 0.6951
C30 C 0.6824(10) 0.0784(8) 0.7483(3)
H15 H 0.6379 0.1313 0.7599
C31_2 C 0.4923(10) 0.2945(8) 0.6469(3)
C32 C 0.6867(11) 0.0714(9) 0.7111(3)
C33 C 0.5807(8) 0.2451(8) 0.7035(3)
H16 H 0.6003 0.2604 0.7279
C34 C 0.6891(13) 0.0743(9) 0.9854(3)
C36 C 0.6935(11) 0.0777(8) 0.9478(3)
H17 H 0.6576 0.1336 0.9354
C37 C 0.5897(13) 0.2469(8) 0.9933(3)
H18 H 0.6182 0.2660 0.9701
C38 C 0.5355(11) 0.2020(10) 0.6301(3)
H19 H 0.5187 0.1873 0.6055
C40 C 0.7447(11) 0.0927(11) 0.8688(4)
H21 H 0.7369 0.1548 0.8818
C41 C 0.6026(11) 0.1355(12) 0.6514(3)
H22 H 0.6371 0.0767 0.6405
C44 C 0.7512(10) 0.0931(10) 0.8298(4)
H24 H 0.7563 0.1559 0.8171
N1_3 N 0.7500 0.0000 0.1919(4)
N2_3 N 0.7500 -0.0000 0.5044(5)
C18_3 C 0.7500 -0.0000 0.3872(6)
C21_3 C 0.7500 0.0000 0.3107(6)
C22_3 C 0.7500 -0.0000 0.4279(5)
C24_3 C 0.7500 0.0000 0.2698(6)
C27_2 C 0.9143(12) 0.1265(9) 0.5446(4)
H13_2 H 0.8951 0.0618 0.5546
C28_2 C 0.8787(8) 0.1523(8) 0.1887(3)
C29_2 C 0.9864(9) 0.3142(7) 0.1840(3)
C30_2 C 0.8176(10) 0.0784(8) 0.2483(3)
H15_2 H 0.8621 0.1313 0.2599
C32_2 C 0.8133(11) 0.0714(9) 0.2111(3)
C33_2 C 0.9193(8) 0.2451(8) 0.2035(3)
H16_2 H 0.8997 0.2604 0.2279
C34_2 C 0.8109(13) 0.0743(9) 0.4854(3)
C35_2 C 0.8779(10) 0.1521(8) 0.5067(3)
C36_2 C 0.8065(11) 0.0777(8) 0.4478(3)
H17_2 H 0.8424 0.1336 0.4354
C37_2 C 0.9103(13) 0.2469(8) 0.4933(3)
H18_2 H 0.8818 0.2660 0.4701
C38_2 C 0.9645(11) 0.2020(10) 0.1301(3)
H19_2 H 0.9813 0.1873 0.1055
C39_2 C 0.9760(13) 0.1982(9) 0.5646(3)
H20_2 H 0.9875 0.1879 0.5898
C40_2 C 0.7553(11) 0.0927(11) 0.3688(4)
H21_2 H 0.7631 0.1548 0.3818
C41_2 C 0.8974(11) 0.1355(12) 0.1514(3)
H22_2 H 0.8629 0.0767 0.1405
C42_2 C 0.9845(13) 0.3171(9) 0.5128(3)
C44_2 C 0.7488(10) 0.0931(10) 0.3298(4)
H24_2 H 0.7437 0.1559 0.3171
N1_4 N 0.2500 0.0000 0.3081(4)
C4_2 C 0.1213(8) 0.1523(8) 0.3113(3)
C5_2 C 0.0136(9) 0.3142(7) 0.3160(3)
C6_2 C 0.1824(10) 0.0784(8) 0.2517(3)
H3_2 H 0.1379 0.1313 0.2401
C8_2 C 0.1867(11) 0.0714(9) 0.2889(3)
C9_2 C 0.0807(8) 0.2451(8) 0.2965(3)
H4_2 H 0.1003 0.2604 0.2721
C10_2 C 0.1891(13) 0.0743(9) 0.0146(3)
C12_2 C 0.1935(11) 0.0777(8) 0.0522(3)
H5_2 H 0.1576 0.1336 0.0646
C13_2 C 0.0897(13) 0.2469(8) 0.0067(3)
H6_2 H 0.1182 0.2660 0.0299
C14_2 C 0.0355(11) 0.2020(10) 0.3699(3)
H7_2 H 0.0187 0.1873 0.3945
C16_2 C 0.2447(11) 0.0927(11) 0.1312(4)
H9_2 H 0.2369 0.1548 0.1182
C17_2 C 0.1026(11) 0.1355(12) 0.3486(3)
H10_2 H 0.1371 0.0767 0.3595
C18_4 C 0.2500 0.0000 0.1128(6)
C21_4 C 0.2500 -0.0000 0.1893(6)
C22_4 C 0.2500 0.0000 0.0721(5)
C23_2 C 0.2512(10) 0.0931(10) 0.1702(4)
H12_2 H 0.2563 0.1559 0.1829
C24_4 C 0.2500 0.0000 0.2302(6)
C3_2 C 0.0857(12) 0.1265(9) 0.9554(4)
H1_2 H 0.1049 0.0618 0.9454
C11_2 C 0.1221(10) 0.1521(8) 0.9933(3)
N2_4 N 0.2500 0.0000 0.9956(5)
C15_2 C 0.0240(13) 0.1982(9) 0.9354(3)
H8_2 H 0.0125 0.1879 0.9102
C19_2 C 0.0155(13) 0.3171(9) 0.9872(3)
N1_5 N 0.2500 1.0000 0.3081(4)
C18_5 C 0.2500 1.0000 0.1128(6)
C21_5 C 0.2500 1.0000 0.1893(6)
C22_5 C 0.2500 1.0000 0.0721(5)
C24_5 C 0.2500 1.0000 0.2302(6)
O5_2 O 0.6407(7) 0.5573(6) 0.35738(19)
O8_2 O 0.6094(7) 0.6462(7) 0.4074(2)
C26_3 C 0.5959(9) 0.6339(9) 0.3735(3)
C28_3 C 0.3787(8) 0.8477(8) 0.3113(3)
C29_3 C 0.4864(9) 0.6858(7) 0.3160(3)
H14_3 H 0.5178 0.6261 0.3049
C30_3 C 0.3176(10) 0.9216(8) 0.2517(3)
H15_3 H 0.3621 0.8687 0.2401
C31_3 C 0.5077(10) 0.7055(8) 0.3531(3)
C32_3 C 0.3133(11) 0.9286(9) 0.2889(3)
C33_3 C 0.4193(8) 0.7549(8) 0.2965(3)
H16_3 H 0.3997 0.7396 0.2721
C34_3 C 0.3109(13) 0.9257(9) 0.0146(3)
C36_3 C 0.3065(11) 0.9223(8) 0.0522(3)
H17_3 H 0.3424 0.8664 0.0646
C37_3 C 0.4103(13) 0.7531(8) 0.0067(3)
H18_3 H 0.3818 0.7340 0.0299
C38_3 C 0.4645(11) 0.7980(10) 0.3699(3)
H19_3 H 0.4813 0.8127 0.3945
C40_3 C 0.2553(11) 0.9073(11) 0.1312(4)
H21_3 H 0.2631 0.8452 0.1182
C41_3 C 0.3974(11) 0.8645(12) 0.3486(3)
H22_3 H 0.3629 0.9233 0.3595
C44_3 C 0.2488(10) 0.9069(10) 0.1702(4)
H24_3 H 0.2437 0.8441 0.1829
In2_2 In 0.7500 0.5000 0.40279(2)
N2_5 N 0.2500 1.0000 0.9956(5)
O6_2 O 0.6440(7) 0.5587(5) 0.94781(19)
O7_2 O 0.6182(7) 0.6518(6) 0.8969(2)
C25_3 C 0.5949(8) 0.6365(9) 0.9316(3)
C27_3 C 0.4143(12) 0.8735(9) 0.9554(4)
H13_3 H 0.3951 0.9382 0.9454
C35_3 C 0.3779(10) 0.8479(8) 0.9933(3)
C39_3 C 0.4760(13) 0.8018(9) 0.9354(3)
H20_3 H 0.4875 0.8121 0.9102
C42_3 C 0.4845(13) 0.6829(9) 0.9872(3)
H23_3 H 0.5070 0.6191 0.9973
C43_3 C 0.5231(10) 0.7112(8) 0.9524(3)
In4_2 In 0.7500 0.5000 0.90279(2)
O1_3 O 0.8593(7) 0.4427(6) 0.35738(19)
O4_3 O 0.8906(7) 0.3538(7) 0.4074(2)
C2_3 C 0.9041(9) 0.3661(9) 0.3735(3)
H2_3 H 0.9822 0.3739 0.3049
C7_3 C 0.9923(10) 0.2945(8) 0.3531(3)
O10_2 O 0.6440(7) 0.4413(5) 0.44781(19)
O11_2 O 0.8560(7) 0.5587(5) 0.44781(19)
O12_2 O 0.6182(7) 0.3482(6) 0.3969(2)
O13_2 O 0.8818(7) 0.6518(6) 0.3969(2)
O2_2 O 0.8560(7) 0.4413(5) 0.94781(19)
O3_2 O 0.8818(7) 0.3482(6) 0.8969(2)
C1_3 C 0.9051(8) 0.3635(9) 0.9316(3)
H11_3 H 0.9930 0.3809 0.9973
C20_3 C 0.9769(10) 0.2888(8) 0.9524(3)
O1_4 O 0.6407(7) 0.4427(6) 0.85738(19)
O4_4 O 0.6094(7) 0.3538(7) 0.9074(2)
N1_6 N 0.2500 0.0000 0.8081(4)
C1_4 C 0.5949(8) 0.3635(9) 0.4316(3)
C2_4 C 0.5959(9) 0.3661(9) 0.8735(3)
C3_3 C 0.4143(12) 0.1265(9) 0.4554(4)
H1_3 H 0.3951 0.0618 0.4454
C4_3 C 0.3787(8) 0.1523(8) 0.8113(3)
C5_3 C 0.4864(9) 0.3142(7) 0.8160(3)
H2_4 H 0.5178 0.3739 0.8049
C6_3 C 0.3176(10) 0.0784(8) 0.7517(3)
H3_3 H 0.3621 0.1313 0.7401
C7_4 C 0.5077(10) 0.2945(8) 0.8531(3)
C8_3 C 0.3133(11) 0.0714(9) 0.7889(3)
C9_3 C 0.4193(8) 0.2451(8) 0.7965(3)
H4_3 H 0.3997 0.2604 0.7721
C10_3 C 0.3109(13) 0.0743(9) 0.5146(3)
C11_3 C 0.3779(10) 0.1521(8) 0.4933(3)
C12_3 C 0.3065(11) 0.0777(8) 0.5522(3)
H5_3 H 0.3424 0.1336 0.5646
C13_3 C 0.4103(13) 0.2469(8) 0.5067(3)
H6_3 H 0.3818 0.2660 0.5299
C14_3 C 0.4645(11) 0.2020(10) 0.8699(3)
H7_3 H 0.4813 0.1873 0.8945
N2_6 N 0.2500 0.0000 0.4956(5)
C15_3 C 0.4760(13) 0.1982(9) 0.4354(3)
H8_3 H 0.4875 0.1879 0.4102
C16_3 C 0.2553(11) 0.0927(11) 0.6312(4)
H9_3 H 0.2631 0.1548 0.6182
C17_3 C 0.3974(11) 0.1355(12) 0.8486(3)
H10_3 H 0.3629 0.0767 0.8595
C18_6 C 0.2500 0.0000 0.6128(6)
C19_3 C 0.4845(13) 0.3171(9) 0.4872(3)
H11_4 H 0.5070 0.3809 0.4973
C20_4 C 0.5231(10) 0.2888(8) 0.4524(3)
C21_6 C 0.2500 0.0000 0.6893(6)
C22_6 C 0.2500 0.0000 0.5721(5)
C23_3 C 0.2488(10) 0.0931(10) 0.6702(4)
H12_3 H 0.2437 0.1559 0.6829
C24_6 C 0.2500 0.0000 0.7302(6)
O9_2 O 0.8593(7) 0.5573(6) 0.85738(19)
O14_2 O 0.8906(7) 0.6462(7) 0.9074(2)
C25_4 C 0.9051(8) 0.6365(9) 0.4316(3)
C26_4 C 0.9041(9) 0.6339(9) 0.8735(3)
H14_4 H 0.9822 0.6261 0.8049
C31_4 C 0.9923(10) 0.7055(8) 0.8531(3)
H23_4 H 0.9930 0.6191 0.4973
C43_4 C 0.9769(10) 0.7112(8) 0.4524(3)
N1_7 N 0.2500 1.0000 0.8081(4)
N2_7 N 0.2500 1.0000 0.4956(5)
C18_7 C 0.2500 1.0000 0.6128(6)
C21_7 C 0.2500 1.0000 0.6893(6)
C22_7 C 0.2500 1.0000 0.5721(5)
C24_7 C 0.2500 1.0000 0.7302(6)
C27_4 C 0.0857(12) 0.8735(9) 0.4554(4)
H13_4 H 0.1049 0.9382 0.4454
C28_4 C 0.1213(8) 0.8477(8) 0.8113(3)
C29_4 C 0.0136(9) 0.6858(7) 0.8160(3)
C30_4 C 0.1824(10) 0.9216(8) 0.7517(3)
H15_4 H 0.1379 0.8687 0.7401
C32_4 C 0.1867(11) 0.9286(9) 0.7889(3)
C33_4 C 0.0807(8) 0.7549(8) 0.7965(3)
H16_4 H 0.1003 0.7396 0.7721
C34_4 C 0.1891(13) 0.9257(9) 0.5146(3)
C35_4 C 0.1221(10) 0.8479(8) 0.4933(3)
C36_4 C 0.1935(11) 0.9223(8) 0.5522(3)
H17_4 H 0.1576 0.8664 0.5646
C37_4 C 0.0897(13) 0.7531(8) 0.5067(3)
H18_4 H 0.1182 0.7340 0.5299
C38_4 C 0.0355(11) 0.7980(10) 0.8699(3)
H19_4 H 0.0187 0.8127 0.8945
C39_4 C 0.0240(13) 0.8018(9) 0.4354(3)
H20_4 H 0.0125 0.8121 0.4102
C40_4 C 0.2447(11) 0.9073(11) 0.6312(4)
H21_4 H 0.2369 0.8452 0.6182
C41_4 C 0.1026(11) 0.8645(12) 0.8486(3)
H22_4 H 0.1371 0.9233 0.8595
C42_4 C 0.0155(13) 0.6829(9) 0.4872(3)
C44_4 C 0.2512(10) 0.9069(10) 0.6702(4)
H24_4 H 0.2563 0.8441 0.6829
C3_4 C 0.9143(12) 0.8735(9) 0.0446(4)
H1_4 H 0.8951 0.9382 0.0546
C11_4 C 0.8779(10) 0.8479(8) 0.0067(3)
N2_8 N 0.7500 1.0000 0.0044(5)
C15_4 C 0.9760(13) 0.8018(9) 0.0646(3)
H8_4 H 0.9875 0.8121 0.0898
C19_4 C 0.9845(13) 0.6829(9) 0.0128(3)
N1_8 N 0.7500 1.0000 0.6919(4)
C4_4 C 0.8787(8) 0.8477(8) 0.6887(3)
C5_4 C 0.9864(9) 0.6858(7) 0.6840(3)
C6_4 C 0.8176(10) 0.9216(8) 0.7483(3)
H3_4 H 0.8621 0.8687 0.7599
C8_4 C 0.8133(11) 0.9286(9) 0.7111(3)
C9_4 C 0.9193(8) 0.7549(8) 0.7035(3)
H4_4 H 0.8997 0.7396 0.7279
C10_4 C 0.8109(13) 0.9257(9) 0.9854(3)
C12_4 C 0.8065(11) 0.9223(8) 0.9478(3)
H5_4 H 0.8424 0.8664 0.9354
C13_4 C 0.9103(13) 0.7531(8) 0.9933(3)
H6_4 H 0.8818 0.7340 0.9701
C14_4 C 0.9645(11) 0.7980(10) 0.6301(3)
H7_4 H 0.9813 0.8127 0.6055
C16_4 C 0.7553(11) 0.9073(11) 0.8688(4)
H9_4 H 0.7631 0.8452 0.8818
C17_4 C 0.8974(11) 0.8645(12) 0.6514(3)
H10_4 H 0.8629 0.9233 0.6405
C18_8 C 0.7500 1.0000 0.8872(6)
C21_8 C 0.7500 1.0000 0.8107(6)
C22_8 C 0.7500 1.0000 0.9279(5)
C23_4 C 0.7488(10) 0.9069(10) 0.8298(4)
H12_4 H 0.7437 0.8441 0.8171
C24_8 C 0.7500 1.0000 0.7698(6)
loop_
_geom_bond_atom_site_label_1
_geom_bond_atom_site_label_2
_geom_bond_site_symmetry_1
_geom_bond_site_symmetry_2
O5 C26 1_555 1_555
O6 C25 1_555 1_555
O7 C25 1_555 1_555
O8 C26 1_555 1_555
C25 C43 1_555 1_555
C26 C31 1_555 1_555
In2 O5 1_555 1_555
In4 O6 1_555 1_555
O7 In4 1_555 1_555
O8 In2 1_555 1_555
In2 O1 1_555 1_555
O1 C2 1_555 1_555
O2 C1 1_555 1_555
O3 C1 1_555 1_555
O4 In2 1_555 1_555
N1 C8 1_555 1_555
C1 C20 1_555 1_555
C2 O4 1_555 1_555
C3 H1 1_555 1_555
C4 C8 1_555 1_555
C5 H2 1_555 1_555
C6 H3 1_555 1_555
C7 C2 1_555 1_555
C8 C6 1_555 1_555
C9 C4 1_555 1_555
H4 C9 1_555 1_555
C10 C11 1_555 1_555
C11 C3 1_555 1_555
C12 C10 1_555 1_555
H5 C12 1_555 1_555
C13 C11 1_555 1_555
H6 C13 1_555 1_555
C14 C7 1_555 1_555
H7 C14 1_555 1_555
N2 C10 1_555 1_555
C15 C3 1_555 1_555
H8 C15 1_555 1_555
C16 H9 1_555 1_555
C17 C4 1_555 1_555
H10 C17 1_555 1_555
C18 C16 1_555 1_555
C19 C13 1_555 1_555
H11 C19 1_555 1_555
C20 C15 1_555 1_555
C21 C23 1_555 1_555
C22 C12 1_555 1_555
C23 C16 1_555 1_555
H12 C23 1_555 1_555
C24 C6 1_555 1_555
In4 O2 1_555 1_555
O10 In2 1_555 1_555
O11 In2 1_555 1_555
O12 In2 1_555 1_555
O13 In2 1_555 1_555
O3 In4 1_555 1_555
C5 C7 1_555 1_555
C5 C9 1_555 1_555
C14 C17 1_555 1_555
C18 C22 1_555 1_555
C19 C20 1_555 1_555
C21 C24 1_555 1_555
O10 C1_2 1_555 1_555
O12 C1_2 1_555 1_555
C1_2 C20_2 1_555 1_555
In4 O1_2 1_555 1_555
O1_2 C2_2 1_555 1_555
O4_2 In4 1_555 1_555
C2_2 O4_2 1_555 1_555
C7_2 C2_2 1_555 1_555
O9 In4 1_555 1_555
O14 In4 1_555 1_555
O11 C25_2 1_555 1_555
O13 C25_2 1_555 1_555
C25_2 C43_2 1_555 1_555
C27 H13 1_555 1_555
C35 C27 1_555 1_555
C39 C27 1_555 1_555
H20 C39 1_555 1_555
H23_2 C42 1_555 1_555
C43_2 C39 1_555 1_555
C42 C43_2 1_555 1_555
O9 C26_2 1_555 1_555
O14 C26_2 1_555 1_555
C26_2 C31_2 1_555 1_555
C28 C32 1_555 1_555
C29 H14_2 1_555 1_555
C30 C24_2 1_555 1_555
H15 C30 1_555 1_555
C31_2 C29 1_555 1_555
C32 N1_2 1_555 1_555
C33 C28 1_555 1_555
H16 C33 1_555 1_555
C36 C22_2 1_555 1_555
H17 C36 1_555 1_555
H18 C37 1_555 1_555
C38 C31_2 1_555 1_555
H19 C38 1_555 1_555
C40 C18_2 1_555 1_555
H21 C40 1_555 1_555
C41 C28 1_555 1_555
H22 C41 1_555 1_555
C44 C21_2 1_555 1_555
H24 C44 1_555 1_555
C18_2 C22_2 1_555 1_555
C21_2 C24_2 1_555 1_555
C29 C33 1_555 1_555
C30 C32 1_555 1_555
C34 C36 1_555 1_555
C38 C41 1_555 1_555
C40 C44 1_555 1_555
C27_2 H13_2 1_555 1_555
C28_2 C32_2 1_555 1_555
C30_2 C24_3 1_555 1_555
H15_2 C30_2 1_555 1_555
C32_2 N1_3 1_555 1_555
C33_2 C28_2 1_555 1_555
H16_2 C33_2 1_555 1_555
C34_2 N2_3 1_555 1_555
C35_2 C27_2 1_555 1_555
C36_2 C22_3 1_555 1_555
H17_2 C36_2 1_555 1_555
C37_2 C35_2 1_555 1_555
H18_2 C37_2 1_555 1_555
H19_2 C38_2 1_555 1_555
C39_2 C27_2 1_555 1_555
H20_2 C39_2 1_555 1_555
C40_2 C18_3 1_555 1_555
H21_2 C40_2 1_555 1_555
C41_2 C28_2 1_555 1_555
H22_2 C41_2 1_555 1_555
C42_2 C37_2 1_555 1_555
C44_2 C21_3 1_555 1_555
H24_2 C44_2 1_555 1_555
C18_3 C22_3 1_555 1_555
C21_3 C24_3 1_555 1_555
C29_2 C33_2 1_555 1_555
C30_2 C32_2 1_555 1_555
C34_2 C35_2 1_555 1_555
C34_2 C36_2 1_555 1_555
C38_2 C41_2 1_555 1_555
C40_2 C44_2 1_555 1_555
N1_4 C8_2 1_555 1_555
C4_2 C8_2 1_555 1_555
C6_2 H3_2 1_555 1_555
C8_2 C6_2 1_555 1_555
C9_2 C4_2 1_555 1_555
H4_2 C9_2 1_555 1_555
C12_2 C10_2 1_555 1_555
H5_2 C12_2 1_555 1_555
H6_2 C13_2 1_555 1_555
H7_2 C14_2 1_555 1_555
C16_2 H9_2 1_555 1_555
C17_2 C4_2 1_555 1_555
H10_2 C17_2 1_555 1_555
C18_4 C16_2 1_555 1_555
C21_4 C23_2 1_555 1_555
C22_4 C12_2 1_555 1_555
C23_2 C16_2 1_555 1_555
H12_2 C23_2 1_555 1_555
C24_4 C6_2 1_555 1_555
C5_2 C9_2 1_555 1_555
C14_2 C17_2 1_555 1_555
C18_4 C22_4 1_555 1_555
C21_4 C24_4 1_555 1_555
C3_2 H1_2 1_555 1_555
C11_2 C3_2 1_555 1_555
C15_2 C3_2 1_555 1_555
H8_2 C15_2 1_555 1_555
O5_2 C26_3 1_555 1_555
O8_2 C26_3 1_555 1_555
C26_3 C31_3 1_555 1_555
C28_3 C32_3 1_555 1_555
C29_3 H14_3 1_555 1_555
C30_3 C24_5 1_555 1_555
H15_3 C30_3 1_555 1_555
C31_3 C29_3 1_555 1_555
C32_3 N1_5 1_555 1_555
C33_3 C28_3 1_555 1_555
H16_3 C33_3 1_555 1_555
C36_3 C22_5 1_555 1_555
H17_3 C36_3 1_555 1_555
H18_3 C37_3 1_555 1_555
C38_3 C31_3 1_555 1_555
H19_3 C38_3 1_555 1_555
C40_3 C18_5 1_555 1_555
H21_3 C40_3 1_555 1_555
C41_3 C28_3 1_555 1_555
H22_3 C41_3 1_555 1_555
C44_3 C21_5 1_555 1_555
H24_3 C44_3 1_555 1_555
In2_2 O5_2 1_555 1_555
C18_5 C22_5 1_555 1_555
C21_5 C24_5 1_555 1_555
O8_2 In2_2 1_555 1_555
C29_3 C33_3 1_555 1_555
C30_3 C32_3 1_555 1_555
C34_3 C36_3 1_555 1_555
C38_3 C41_3 1_555 1_555
C40_3 C44_3 1_555 1_555
O6_2 C25_3 1_555 1_555
O7_2 C25_3 1_555 1_555
C25_3 C43_3 1_555 1_555
C27_3 H13_3 1_555 1_555
C35_3 C27_3 1_555 1_555
C39_3 C27_3 1_555 1_555
H20_3 C39_3 1_555 1_555
H23_3 C42_3 1_555 1_555
C43_3 C39_3 1_555 1_555
In4_2 O6_2 1_555 1_555
O7_2 In4_2 1_555 1_555
C42_3 C43_3 1_555 1_555
In2_2 O1_3 1_555 1_555
O1_3 C2_3 1_555 1_555
O4_3 In2_2 1_555 1_555
C2_3 O4_3 1_555 1_555
C7_3 C2_3 1_555 1_555
O10_2 In2_2 1_555 1_555
O11_2 In2_2 1_555 1_555
O12_2 In2_2 1_555 1_555
O13_2 In2_2 1_555 1_555
O2_2 C1_3 1_555 1_555
O3_2 C1_3 1_555 1_555
C1_3 C20_3 1_555 1_555
In4_2 O2_2 1_555 1_555
O3_2 In4_2 1_555 1_555
In4_2 O1_4 1_555 1_555
O1_4 C2_4 1_555 1_555
O10_2 C1_4 1_555 1_555
O12_2 C1_4 1_555 1_555
O4_4 In4_2 1_555 1_555
N1_6 C8_3 1_555 1_555
C1_4 C20_4 1_555 1_555
C2_4 O4_4 1_555 1_555
C3_3 H1_3 1_555 1_555
C4_3 C8_3 1_555 1_555
C5_3 H2_4 1_555 1_555
C6_3 H3_3 1_555 1_555
C7_4 C2_4 1_555 1_555
C8_3 C6_3 1_555 1_555
C9_3 C4_3 1_555 1_555
H4_3 C9_3 1_555 1_555
C10_3 C11_3 1_555 1_555
C11_3 C3_3 1_555 1_555
C12_3 C10_3 1_555 1_555
H5_3 C12_3 1_555 1_555
C13_3 C11_3 1_555 1_555
H6_3 C13_3 1_555 1_555
C14_3 C7_4 1_555 1_555
H7_3 C14_3 1_555 1_555
N2_6 C10_3 1_555 1_555
C15_3 C3_3 1_555 1_555
H8_3 C15_3 1_555 1_555
C16_3 H9_3 1_555 1_555
C17_3 C4_3 1_555 1_555
H10_3 C17_3 1_555 1_555
C18_6 C16_3 1_555 1_555
C19_3 C13_3 1_555 1_555
H11_4 C19_3 1_555 1_555
C20_4 C15_3 1_555 1_555
C21_6 C23_3 1_555 1_555
C22_6 C12_3 1_555 1_555
C23_3 C16_3 1_555 1_555
H12_3 C23_3 1_555 1_555
C24_6 C6_3 1_555 1_555
O9_2 In4_2 1_555 1_555
O14_2 In4_2 1_555 1_555
C5_3 C7_4 1_555 1_555
C5_3 C9_3 1_555 1_555
C14_3 C17_3 1_555 1_555
C18_6 C22_6 1_555 1_555
C19_3 C20_4 1_555 1_555
C21_6 C24_6 1_555 1_555
O9_2 C26_4 1_555 1_555
O11_2 C25_4 1_555 1_555
O13_2 C25_4 1_555 1_555
O14_2 C26_4 1_555 1_555
C25_4 C43_4 1_555 1_555
C26_4 C31_4 1_555 1_555
C27_4 H13_4 1_555 1_555
C28_4 C32_4 1_555 1_555
C30_4 C24_7 1_555 1_555
H15_4 C30_4 1_555 1_555
C32_4 N1_7 1_555 1_555
C33_4 C28_4 1_555 1_555
H16_4 C33_4 1_555 1_555
C34_4 N2_7 1_555 1_555
C35_4 C27_4 1_555 1_555
C36_4 C22_7 1_555 1_555
H17_4 C36_4 1_555 1_555
C37_4 C35_4 1_555 1_555
H18_4 C37_4 1_555 1_555
H19_4 C38_4 1_555 1_555
C39_4 C27_4 1_555 1_555
H20_4 C39_4 1_555 1_555
C40_4 C18_7 1_555 1_555
H21_4 C40_4 1_555 1_555
C41_4 C28_4 1_555 1_555
H22_4 C41_4 1_555 1_555
C42_4 C37_4 1_555 1_555
C44_4 C21_7 1_555 1_555
H24_4 C44_4 1_555 1_555
C18_7 C22_7 1_555 1_555
C21_7 C24_7 1_555 1_555
C29_4 C33_4 1_555 1_555
C30_4 C32_4 1_555 1_555
C34_4 C35_4 1_555 1_555
C34_4 C36_4 1_555 1_555
C38_4 C41_4 1_555 1_555
C40_4 C44_4 1_555 1_555
C3_4 H1_4 1_555 1_555
C11_4 C3_4 1_555 1_555
C15_4 C3_4 1_555 1_555
H8_4 C15_4 1_555 1_555
N1_8 C8_4 1_555 1_555
C4_4 C8_4 1_555 1_555
C6_4 H3_4 1_555 1_555
C8_4 C6_4 1_555 1_555
C9_4 C4_4 1_555 1_555
H4_4 C9_4 1_555 1_555
C12_4 C10_4 1_555 1_555
H5_4 C12_4 1_555 1_555
H6_4 C13_4 1_555 1_555
H7_4 C14_4 1_555 1_555
C16_4 H9_4 1_555 1_555
C17_4 C4_4 1_555 1_555
H10_4 C17_4 1_555 1_555
C18_8 C16_4 1_555 1_555
C21_8 C23_4 1_555 1_555
C22_8 C12_4 1_555 1_555
C23_4 C16_4 1_555 1_555
H12_4 C23_4 1_555 1_555
C24_8 C6_4 1_555 1_555
C5_4 C9_4 1_555 1_555
C14_4 C17_4 1_555 1_555
C18_8 C22_8 1_555 1_555
C21_8 C24_8 1_555 1_555

#END
