
###############################################################################
#
# This file contains modified crystal structure data generated from the
# MOF subset of the Cambridge Structural Database (CSD) v543 
# hosted by the Cambridge Crystallographic Data Centre (CCDC).
#
# This work is licensed under the Creative Commons
# Attribution-NonCommercial-ShareAlike 4.0 International License.
# To view a copy of this license, visit
# http://creativecommons.org/licenses/by-nc-sa/4.0/
# or send a letter to
# Creative Commons, PO Box 1866, Mountain View, CA 94042, USA.
#
# CIF created using the CSD Python API on 29 September 2022
# The structure has been converted into the P1 space group
# The structure has a 3D framework
# The original CSD entry YEYBOV is in the monoclinic crystal system
# The framework has been calculated to contain at least 10.0% void space
# The void calculation uses a probe of radius 1.32A, grid spacing 0.4
# The framework is charged, counterions have been retained in the structure
#
###############################################################################

data_YEYBOV
_chemical_formula_moiety         '(C96 H104 Ba2 O42 P16 4-)n'
_symmetry_cell_setting           triclinic
_symmetry_space_group_name_H-M   'P 1'
_symmetry_Int_Tables_number      1
_space_group_name_Hall           'P 1'
loop_
_symmetry_equiv_pos_site_id
_symmetry_equiv_pos_as_xyz
1 x,y,z
_cell_length_a                   20.180(2)
_cell_length_b                   21.212(2)
_cell_length_c                   8.3079(8)
_cell_angle_alpha                90
_cell_angle_beta                 107.612(6)
_cell_angle_gamma                90
_cell_volume                     3389.57
loop_
_atom_site_label
_atom_site_type_symbol
_atom_site_fract_x
_atom_site_fract_y
_atom_site_fract_z
O7 O 0.4753(2) 0.35943(19) 0.0300(5)
O11 O 0.4604(3) 0.2411(3) 0.0248(8)
H20 H 0.5565 0.2613 0.0473
O12 O 0.3775(3) 0.3041(2) 0.1054(5)
C24 C 0.5536(15) 0.1685(11) 0.053(4)
H25 H 0.5977 0.1745 0.1369
H26 H 0.5232 0.1456 0.1008
Ba6 Ba 0.5000 0.456506(16) 0.2500
P1 P 0.07328(8) 0.19328(7) 0.00752(18)
O2 O 0.07828(19) 0.02991(17) 0.4976(5)
Ba1 Ba 0.0000 0.043494(16) 0.7500
P2 P 0.13924(6) 0.06654(6) 0.60156(16)
O3 O 0.2084(2) 0.0277(2) 0.6343(8)
O4 O 0.1315(2) 0.08841(19) 0.7675(4)
C1 C 0.1577(3) 0.1331(3) 0.4865(6)
C2 C 0.2119(3) 0.1757(3) 0.5596(6)
C3 C 0.2228(3) 0.2278(3) 0.4635(6)
C4 C 0.1800(3) 0.2358(3) 0.2939(7)
C5 C 0.1926(3) 0.2888(3) 0.2009(7)
H1 H 0.1650 0.2946 0.0899
C6 C 0.2564(3) 0.1695(3) 0.7294(7)
H2 H 0.2500 0.1356 0.7939
C7 C 0.1265(3) 0.1916(3) 0.2238(7)
C8 C 0.1161(3) 0.1419(3) 0.3225(6)
H3 H 0.0801 0.1138 0.2765
P3 P 0.42672(8) 0.30672(7) 0.99248(18)
O8 O 0.42172(19) 0.47009(17) 0.5024(5)
P4 P 0.36076(6) 0.43346(6) 0.39844(16)
O9 O 0.2916(2) 0.4723(2) 0.3657(8)
O10 O 0.3685(2) 0.41159(19) 0.2325(4)
C13 C 0.3423(3) 0.3669(3) 0.5135(6)
C14 C 0.2881(3) 0.3243(3) 0.4404(6)
C15 C 0.2772(3) 0.2722(3) 0.5365(6)
C16 C 0.3200(3) 0.2642(3) 0.7061(7)
C17 C 0.3074(3) 0.2112(3) 0.7991(7)
H14 H 0.3350 0.2054 0.9101
C18 C 0.2436(3) 0.3305(3) 0.2706(7)
H15 H 0.2500 0.3644 0.2061
C19 C 0.3735(3) 0.3084(3) 0.7762(7)
C20 C 0.3839(3) 0.3581(3) 0.6775(6)
H16 H 0.4199 0.3862 0.7235
C21 C 0.2835(7) 0.5316(6) 0.327(2)
H17 H 0.3170 0.5553 0.4150
H18 H 0.2949 0.5381 0.2232
C22 C 0.5235(10) 0.2287(6) 0.994(3)
H19 H 0.5162 0.2313 0.8732
C23 C 0.2147(10) 0.5579(8) 0.306(3)
H21 H 0.1951 0.5388 0.3861
H22 H 0.2185 0.6026 0.3250
H23 H 0.1853 0.5497 0.1937
H24 H 0.5601 0.1450 0.9597
O13 O 0.0247(2) 0.14057(19) 0.9700(5)
Ba3 Ba 0.5000 0.543494(16) 0.7500
O5 O 0.0396(3) 0.2589(3) 0.9752(8)
O6 O 0.1225(3) 0.1959(2) 0.8946(5)
C9 C 0.2165(7) 0.9684(6) 0.673(2)
H4 H 0.1830 0.9447 0.5850
H5 H 0.2051 0.9619 0.7768
C11 C 0.2853(10) 0.9421(8) 0.694(3)
H8 H 0.3049 0.9612 0.6139
H9 H 0.2815 0.8974 0.6750
H10 H 0.3147 0.9503 0.8063
O17 O 0.07828(19) 0.97009(17) 0.9976(5)
Ba4 Ba -0.0000 0.956506(16) 0.2500
O15 O 0.92172(19) 0.02991(17) 0.0024(5)
Ba1_2 Ba 1.0000 0.043494(16) 0.7500
C10 C 0.9765(10) 0.2713(6) 0.006(3)
H6 H 0.9838 0.2687 0.1268
H11 H 0.9399 0.3550 0.0403
O14 O 0.9753(2) 0.14057(19) 0.5300(5)
O18 O 0.8685(2) 0.08841(19) 0.7325(4)
H7 H 0.9435 0.2387 0.9527
C12 C 0.9464(15) 0.3315(11) 0.947(4)
H12 H 0.9023 0.3255 0.8631
H13 H 0.9768 0.3544 0.8992
O16 O 0.92172(19) 0.97009(17) 0.5024(5)
Ba4_2 Ba 1.0000 0.956506(16) 0.2500
C10_2 C 0.0235(10) 0.2713(6) 0.494(3)
H6_2 H 0.0162 0.2687 0.3732
H7_2 H 0.0565 0.2387 0.5473
C12_2 C 0.0536(15) 0.3315(11) 0.553(4)
H11_2 H 0.0601 0.3550 0.4597
H12_2 H 0.0977 0.3255 0.6369
H13_2 H 0.0232 0.3544 0.6008
P1_2 P 0.92672(8) 0.19328(7) 0.49248(18)
O5_2 O 0.9604(3) 0.2589(3) 0.5248(8)
C1_2 C 0.8423(3) 0.1331(3) 0.0135(6)
C3_2 C 0.7772(3) 0.2278(3) 0.0365(6)
C4_2 C 0.8200(3) 0.2358(3) 0.2061(7)
C5_2 C 0.8074(3) 0.2888(3) 0.2991(7)
H1_2 H 0.8350 0.2946 0.4101
C7_2 C 0.8735(3) 0.1916(3) 0.2762(7)
C8_2 C 0.8839(3) 0.1419(3) 0.1775(6)
H3_2 H 0.9199 0.1138 0.2235
O6_2 O 0.8775(3) 0.1959(2) 0.6054(5)
P4_2 P 0.63924(6) 0.43346(6) 0.10156(16)
O9_2 O 0.7084(2) 0.4723(2) 0.1343(8)
O10_2 O 0.6315(2) 0.41159(19) 0.2675(4)
C14_2 C 0.7119(3) 0.3243(3) 0.0596(6)
C18_2 C 0.7564(3) 0.3305(3) 0.2294(7)
H15_2 H 0.7500 0.3644 0.2939
C21_2 C 0.7165(7) 0.5316(6) 0.173(2)
H17_2 H 0.6830 0.5553 0.0850
H18_2 H 0.7051 0.5381 0.2768
C23_2 C 0.7853(10) 0.5579(8) 0.194(3)
H21_2 H 0.8049 0.5388 0.1139
H22_2 H 0.7815 0.6026 0.1750
H23_2 H 0.8147 0.5497 0.3063
P2_2 P 0.86076(6) 0.06654(6) 0.89844(16)
O3_2 O 0.7916(2) 0.0277(2) 0.8657(8)
C2_2 C 0.7881(3) 0.1757(3) 0.9404(6)
C6_2 C 0.7436(3) 0.1695(3) 0.7706(7)
H2_2 H 0.7500 0.1356 0.7061
O7_2 O 0.5247(2) 0.35943(19) 0.4700(5)
P3_2 P 0.57328(8) 0.30672(7) 0.50752(18)
O8_2 O 0.57828(19) 0.47009(17) 0.9976(5)
O11_2 O 0.5396(3) 0.2411(3) 0.4752(8)
C13_2 C 0.6577(3) 0.3669(3) 0.9865(6)
C15_2 C 0.7228(3) 0.2722(3) 0.9635(6)
C16_2 C 0.6800(3) 0.2642(3) 0.7939(7)
C17_2 C 0.6926(3) 0.2112(3) 0.7009(7)
H14_2 H 0.6650 0.2054 0.5899
C19_2 C 0.6265(3) 0.3084(3) 0.7238(7)
C20_2 C 0.6161(3) 0.3581(3) 0.8225(6)
H16_2 H 0.5801 0.3862 0.7765
C22_2 C 0.4765(10) 0.2287(6) 0.506(3)
H19_2 H 0.4838 0.2313 0.6268
H20_2 H 0.4435 0.2613 0.4527
O12_2 O 0.6225(3) 0.3041(2) 0.3946(5)
C24_2 C 0.4464(15) 0.1685(11) 0.447(4)
H24_2 H 0.4399 0.1450 0.5403
H25_2 H 0.4023 0.1745 0.3631
H26_2 H 0.4768 0.1456 0.3992
C9_2 C 0.7835(7) 0.9684(6) 0.827(2)
H4_2 H 0.8170 0.9447 0.9150
H5_2 H 0.7949 0.9619 0.7232
C11_2 C 0.7147(10) 0.9421(8) 0.806(3)
H8_2 H 0.6951 0.9612 0.8861
H9_2 H 0.7185 0.8974 0.8250
H10_2 H 0.6853 0.9503 0.6937
H20_3 H 0.0565 0.7613 0.0473
C24_3 C 0.0536(15) 0.6685(11) 0.053(4)
H25_3 H 0.0977 0.6745 0.1369
H26_3 H 0.0232 0.6456 0.1008
C22_3 C 0.0235(10) 0.7287(6) 0.994(3)
H19_3 H 0.0162 0.7313 0.8732
H24_3 H 0.0601 0.6450 0.9597
C21_3 C 0.7835(7) 0.0316(6) 0.327(2)
H17_3 H 0.8170 0.0553 0.4150
H18_3 H 0.7949 0.0381 0.2232
C23_3 C 0.7147(10) 0.0579(8) 0.306(3)
H21_3 H 0.6951 0.0388 0.3861
H22_3 H 0.7185 0.1026 0.3250
H23_3 H 0.6853 0.0497 0.1937
O7_3 O 0.9753(2) 0.85943(19) 0.0300(5)
O11_3 O 0.9604(3) 0.7411(3) 0.0248(8)
O12_3 O 0.8775(3) 0.8041(2) 0.1054(5)
O15_2 O 0.42172(19) 0.52991(17) 0.0024(5)
P1_3 P 0.57328(8) 0.69328(7) 0.00752(18)
O2_2 O 0.57828(19) 0.52991(17) 0.4976(5)
P2_3 P 0.63924(6) 0.56654(6) 0.60156(16)
O3_3 O 0.7084(2) 0.5277(2) 0.6343(8)
O4_2 O 0.6315(2) 0.58841(19) 0.7675(4)
C1_3 C 0.6577(3) 0.6331(3) 0.4865(6)
C2_3 C 0.7119(3) 0.6757(3) 0.5596(6)
C3_3 C 0.7228(3) 0.7278(3) 0.4635(6)
C4_3 C 0.6800(3) 0.7358(3) 0.2939(7)
C5_3 C 0.6926(3) 0.7888(3) 0.2009(7)
H1_3 H 0.6650 0.7946 0.0899
C6_3 C 0.7564(3) 0.6695(3) 0.7294(7)
H2_3 H 0.7500 0.6356 0.7939
C7_3 C 0.6265(3) 0.6916(3) 0.2238(7)
C8_3 C 0.6161(3) 0.6419(3) 0.3225(6)
H3_3 H 0.5801 0.6138 0.2765
C9_3 C 0.7165(7) 0.4684(6) 0.673(2)
H4_3 H 0.6830 0.4447 0.5850
H5_3 H 0.7051 0.4619 0.7768
C10_3 C 0.4765(10) 0.7713(6) 0.006(3)
H6_3 H 0.4838 0.7687 0.1268
C11_3 C 0.7853(10) 0.4421(8) 0.694(3)
H8_3 H 0.8049 0.4612 0.6139
H9_3 H 0.7815 0.3974 0.6750
H10_3 H 0.8147 0.4503 0.8063
H11_3 H 0.4399 0.8550 0.0403
P3_3 P 0.92672(8) 0.80672(7) 0.99248(18)
P4_3 P 0.86076(6) 0.93346(6) 0.39844(16)
O9_3 O 0.7916(2) 0.9723(2) 0.3657(8)
O10_3 O 0.8685(2) 0.91159(19) 0.2325(4)
C13_3 C 0.8423(3) 0.8669(3) 0.5135(6)
C14_3 C 0.7881(3) 0.8243(3) 0.4404(6)
C15_3 C 0.7772(3) 0.7722(3) 0.5365(6)
C16_3 C 0.8200(3) 0.7642(3) 0.7061(7)
C17_3 C 0.8074(3) 0.7112(3) 0.7991(7)
H14_3 H 0.8350 0.7054 0.9101
C18_3 C 0.7436(3) 0.8305(3) 0.2706(7)
H15_3 H 0.7500 0.8644 0.2061
C19_3 C 0.8735(3) 0.8084(3) 0.7762(7)
C20_3 C 0.8839(3) 0.8581(3) 0.6775(6)
H16_3 H 0.9199 0.8862 0.7235
O13_2 O 0.5247(2) 0.64057(19) 0.9700(5)
O14_2 O 0.4753(2) 0.64057(19) 0.5300(5)
O18_2 O 0.3685(2) 0.58841(19) 0.7325(4)
O5_3 O 0.5396(3) 0.7589(3) 0.9752(8)
H7_3 H 0.4435 0.7387 0.9527
O6_3 O 0.6225(3) 0.6959(2) 0.8946(5)
C12_3 C 0.4464(15) 0.8315(11) 0.947(4)
H12_3 H 0.4023 0.8255 0.8631
H13_3 H 0.4768 0.8544 0.8992
C21_4 C 0.2165(7) 0.0316(6) 0.173(2)
H17_4 H 0.1830 0.0553 0.0850
H18_4 H 0.2051 0.0381 0.2768
C23_4 C 0.2853(10) 0.0579(8) 0.194(3)
H21_4 H 0.3049 0.0388 0.1139
H22_4 H 0.2815 0.1026 0.1750
H23_4 H 0.3147 0.0497 0.3063
P1_4 P 0.42672(8) 0.69328(7) 0.49248(18)
O5_4 O 0.4604(3) 0.7589(3) 0.5248(8)
C1_4 C 0.3423(3) 0.6331(3) 0.0135(6)
C3_4 C 0.2772(3) 0.7278(3) 0.0365(6)
C4_4 C 0.3200(3) 0.7358(3) 0.2061(7)
C5_4 C 0.3074(3) 0.7888(3) 0.2991(7)
H1_4 H 0.3350 0.7946 0.4101
C7_4 C 0.3735(3) 0.6916(3) 0.2762(7)
C8_4 C 0.3839(3) 0.6419(3) 0.1775(6)
H3_4 H 0.4199 0.6138 0.2235
C10_4 C 0.5235(10) 0.7713(6) 0.494(3)
H6_4 H 0.5162 0.7687 0.3732
H7_4 H 0.5565 0.7387 0.5473
O6_4 O 0.3775(3) 0.6959(2) 0.6054(5)
C12_4 C 0.5536(15) 0.8315(11) 0.553(4)
H11_4 H 0.5601 0.8550 0.4597
H12_4 H 0.5977 0.8255 0.6369
H13_4 H 0.5232 0.8544 0.6008
P4_4 P 0.13924(6) 0.93346(6) 0.10156(16)
O9_4 O 0.2084(2) 0.9723(2) 0.1343(8)
O10_4 O 0.1315(2) 0.91159(19) 0.2675(4)
C14_4 C 0.2119(3) 0.8243(3) 0.0596(6)
C18_4 C 0.2564(3) 0.8305(3) 0.2294(7)
H15_4 H 0.2500 0.8644 0.2939
P2_4 P 0.36076(6) 0.56654(6) 0.89844(16)
O3_4 O 0.2916(2) 0.5277(2) 0.8657(8)
C2_4 C 0.2881(3) 0.6757(3) 0.9404(6)
C6_4 C 0.2436(3) 0.6695(3) 0.7706(7)
H2_4 H 0.2500 0.6356 0.7061
C9_4 C 0.2835(7) 0.4684(6) 0.827(2)
H4_4 H 0.3170 0.4447 0.9150
H5_4 H 0.2949 0.4619 0.7232
C11_4 C 0.2147(10) 0.4421(8) 0.806(3)
H8_4 H 0.1951 0.4612 0.8861
H9_4 H 0.2185 0.3974 0.8250
H10_4 H 0.1853 0.4503 0.6937
O7_4 O 0.0247(2) 0.85943(19) 0.4700(5)
P3_4 P 0.07328(8) 0.80672(7) 0.50752(18)
O11_4 O 0.0396(3) 0.7411(3) 0.4752(8)
C13_4 C 0.1577(3) 0.8669(3) 0.9865(6)
C15_4 C 0.2228(3) 0.7722(3) 0.9635(6)
C16_4 C 0.1800(3) 0.7642(3) 0.7939(7)
C17_4 C 0.1926(3) 0.7112(3) 0.7009(7)
H14_4 H 0.1650 0.7054 0.5899
C19_4 C 0.1265(3) 0.8084(3) 0.7238(7)
C20_4 C 0.1161(3) 0.8581(3) 0.8225(6)
H16_4 H 0.0801 0.8862 0.7765
O12_4 O 0.1225(3) 0.8041(2) 0.3946(5)
C22_4 C 0.9765(10) 0.7287(6) 0.506(3)
H19_4 H 0.9838 0.7313 0.6268
H20_4 H 0.9435 0.7613 0.4527
C24_4 C 0.9464(15) 0.6685(11) 0.447(4)
H24_4 H 0.9399 0.6450 0.5403
H25_4 H 0.9023 0.6745 0.3631
H26_4 H 0.9768 0.6456 0.3992
loop_
_geom_bond_atom_site_label_1
_geom_bond_atom_site_label_2
_geom_bond_site_symmetry_1
_geom_bond_site_symmetry_2
H25 C24 1_555 1_555
H26 C24 1_555 1_555
Ba6 O7 1_555 1_555
O2 Ba1 1_555 1_555
Ba1 O4 1_555 1_555
P2 O2 1_555 1_555
O3 P2 1_555 1_555
O4 P2 1_555 1_555
C1 P2 1_555 1_555
C2 C1 1_555 1_555
C3 C2 1_555 1_555
C4 C3 1_555 1_555
C5 C4 1_555 1_555
H1 C5 1_555 1_555
C6 C2 1_555 1_555
H2 C6 1_555 1_555
C7 P1 1_555 1_555
C8 C1 1_555 1_555
H3 C8 1_555 1_555
O8 P4 1_555 1_555
P4 O9 1_555 1_555
O9 C21 1_555 1_555
O10 P4 1_555 1_555
C13 P4 1_555 1_555
C14 C13 1_555 1_555
C15 C3 1_555 1_555
C16 C15 1_555 1_555
C17 C6 1_555 1_555
H14 C17 1_555 1_555
C18 C5 1_555 1_555
H15 C18 1_555 1_555
C19 P3 1_555 1_555
C20 C13 1_555 1_555
H16 C20 1_555 1_555
C21 H17 1_555 1_555
H18 C21 1_555 1_555
C22 H19 1_555 1_555
C23 C21 1_555 1_555
H21 C23 1_555 1_555
H22 C23 1_555 1_555
H23 C23 1_555 1_555
O13 Ba1 1_555 1_555
Ba3 O8 1_555 1_555
Ba6 O8 1_555 1_555
C4 C7 1_555 1_555
C7 C8 1_555 1_555
O10 Ba6 1_555 1_555
C14 C15 1_555 1_555
C14 C18 1_555 1_555
C16 C17 1_555 1_555
C16 C19 1_555 1_555
C19 C20 1_555 1_555
H4 C9 1_555 1_555
H5 C9 1_555 1_555
C11 C9 1_555 1_555
H8 C11 1_555 1_555
H9 C11 1_555 1_555
H10 C11 1_555 1_555
C10 H6 1_555 1_555
O14 Ba1_2 1_555 1_555
O18 Ba1_2 1_555 1_555
H12 C12 1_555 1_555
H13 C12 1_555 1_555
O16 Ba4_2 1_555 1_555
C10_2 H6_2 1_555 1_555
H7_2 C10_2 1_555 1_555
C12_2 C10_2 1_555 1_555
H11_2 C12_2 1_555 1_555
H12_2 C12_2 1_555 1_555
H13_2 C12_2 1_555 1_555
O14 P1_2 1_555 1_555
P1_2 O5_2 1_555 1_555
C4_2 C3_2 1_555 1_555
C5_2 C4_2 1_555 1_555
H1_2 C5_2 1_555 1_555
C7_2 P1_2 1_555 1_555
C8_2 C1_2 1_555 1_555
H3_2 C8_2 1_555 1_555
O6_2 P1_2 1_555 1_555
P4_2 O9_2 1_555 1_555
O9_2 C21_2 1_555 1_555
O10_2 P4_2 1_555 1_555
C18_2 C5_2 1_555 1_555
H15_2 C18_2 1_555 1_555
C21_2 H17_2 1_555 1_555
H18_2 C21_2 1_555 1_555
C23_2 C21_2 1_555 1_555
H21_2 C23_2 1_555 1_555
H22_2 C23_2 1_555 1_555
H23_2 C23_2 1_555 1_555
C4_2 C7_2 1_555 1_555
C7_2 C8_2 1_555 1_555
O10_2 Ba6 1_555 1_555
C14_2 C18_2 1_555 1_555
O3_2 P2_2 1_555 1_555
O18 P2_2 1_555 1_555
C6_2 C2_2 1_555 1_555
H2_2 C6_2 1_555 1_555
O7_2 P3_2 1_555 1_555
P3_2 O11_2 1_555 1_555
O11_2 C22_2 1_555 1_555
C16_2 C15_2 1_555 1_555
C17_2 C6_2 1_555 1_555
H14_2 C17_2 1_555 1_555
C19_2 P3_2 1_555 1_555
C20_2 C13_2 1_555 1_555
H16_2 C20_2 1_555 1_555
C22_2 H19_2 1_555 1_555
H20_2 C22_2 1_555 1_555
O12_2 P3_2 1_555 1_555
C24_2 C22_2 1_555 1_555
H24_2 C24_2 1_555 1_555
H25_2 C24_2 1_555 1_555
H26_2 C24_2 1_555 1_555
Ba3 O8_2 1_555 1_555
Ba6 O7_2 1_555 1_555
C16_2 C17_2 1_555 1_555
C16_2 C19_2 1_555 1_555
C19_2 C20_2 1_555 1_555
H4_2 C9_2 1_555 1_555
H5_2 C9_2 1_555 1_555
C11_2 C9_2 1_555 1_555
H8_2 C11_2 1_555 1_555
H9_2 C11_2 1_555 1_555
H10_2 C11_2 1_555 1_555
H25_3 C24_3 1_555 1_555
H26_3 C24_3 1_555 1_555
C22_3 H19_3 1_555 1_555
C21_3 H17_3 1_555 1_555
H18_3 C21_3 1_555 1_555
C23_3 C21_3 1_555 1_555
H21_3 C23_3 1_555 1_555
H22_3 C23_3 1_555 1_555
H23_3 C23_3 1_555 1_555
Ba4_2 O7_3 1_555 1_555
O2_2 Ba3 1_555 1_555
Ba3 O4_2 1_555 1_555
P2_3 O2_2 1_555 1_555
O3_3 P2_3 1_555 1_555
O4_2 P2_3 1_555 1_555
C1_3 P2_3 1_555 1_555
C2_3 C1_3 1_555 1_555
C3_3 C2_3 1_555 1_555
C4_3 C3_3 1_555 1_555
C5_3 C4_3 1_555 1_555
H1_3 C5_3 1_555 1_555
C6_3 C2_3 1_555 1_555
H2_3 C6_3 1_555 1_555
C7_3 P1_3 1_555 1_555
C8_3 C1_3 1_555 1_555
H3_3 C8_3 1_555 1_555
C9_3 O3_3 1_555 1_555
H4_3 C9_3 1_555 1_555
H5_3 C9_3 1_555 1_555
C10_3 H6_3 1_555 1_555
C11_3 C9_3 1_555 1_555
H8_3 C11_3 1_555 1_555
H9_3 C11_3 1_555 1_555
H10_3 C11_3 1_555 1_555
O16 P4_3 1_555 1_555
P4_3 O9_3 1_555 1_555
O10_3 P4_3 1_555 1_555
C13_3 P4_3 1_555 1_555
C14_3 C13_3 1_555 1_555
C15_3 C3_3 1_555 1_555
C16_3 C15_3 1_555 1_555
C17_3 C6_3 1_555 1_555
H14_3 C17_3 1_555 1_555
C18_3 C5_3 1_555 1_555
H15_3 C18_3 1_555 1_555
C19_3 P3_3 1_555 1_555
C20_3 C13_3 1_555 1_555
H16_3 C20_3 1_555 1_555
O13_2 Ba3 1_555 1_555
O14_2 Ba3 1_555 1_555
Ba6 O2_2 1_555 1_555
O18_2 Ba3 1_555 1_555
C4_3 C7_3 1_555 1_555
C7_3 C8_3 1_555 1_555
O10_3 Ba4_2 1_555 1_555
C14_3 C15_3 1_555 1_555
C14_3 C18_3 1_555 1_555
C16_3 C17_3 1_555 1_555
C16_3 C19_3 1_555 1_555
C19_3 C20_3 1_555 1_555
H12_3 C12_3 1_555 1_555
H13_3 C12_3 1_555 1_555
C21_4 H17_4 1_555 1_555
H18_4 C21_4 1_555 1_555
C23_4 C21_4 1_555 1_555
H21_4 C23_4 1_555 1_555
H22_4 C23_4 1_555 1_555
H23_4 C23_4 1_555 1_555
O14_2 P1_4 1_555 1_555
P1_4 O5_4 1_555 1_555
O5_4 C10_4 1_555 1_555
C4_4 C3_4 1_555 1_555
C5_4 C4_4 1_555 1_555
H1_4 C5_4 1_555 1_555
C7_4 P1_4 1_555 1_555
C8_4 C1_4 1_555 1_555
H3_4 C8_4 1_555 1_555
C10_4 H6_4 1_555 1_555
H7_4 C10_4 1_555 1_555
O6_4 P1_4 1_555 1_555
C12_4 C10_4 1_555 1_555
H11_4 C12_4 1_555 1_555
H12_4 C12_4 1_555 1_555
H13_4 C12_4 1_555 1_555
P4_4 O9_4 1_555 1_555
O10_4 P4_4 1_555 1_555
C18_4 C5_4 1_555 1_555
H15_4 C18_4 1_555 1_555
Ba6 O15_2 1_555 1_555
C4_4 C7_4 1_555 1_555
C7_4 C8_4 1_555 1_555
O10_4 Ba4 1_555 1_555
C14_4 C18_4 1_555 1_555
O3_4 P2_4 1_555 1_555
O18_2 P2_4 1_555 1_555
C6_4 C2_4 1_555 1_555
H2_4 C6_4 1_555 1_555
C9_4 O3_4 1_555 1_555
H4_4 C9_4 1_555 1_555
H5_4 C9_4 1_555 1_555
C11_4 C9_4 1_555 1_555
H8_4 C11_4 1_555 1_555
H9_4 C11_4 1_555 1_555
H10_4 C11_4 1_555 1_555
O7_4 P3_4 1_555 1_555
P3_4 O11_4 1_555 1_555
C16_4 C15_4 1_555 1_555
C17_4 C6_4 1_555 1_555
H14_4 C17_4 1_555 1_555
C19_4 P3_4 1_555 1_555
C20_4 C13_4 1_555 1_555
H16_4 C20_4 1_555 1_555
O12_4 P3_4 1_555 1_555
Ba4 O7_4 1_555 1_555
C16_4 C17_4 1_555 1_555
C16_4 C19_4 1_555 1_555
C19_4 C20_4 1_555 1_555
C22_4 H19_4 1_555 1_555
H20_4 C22_4 1_555 1_555
C24_4 C22_4 1_555 1_555
H24_4 C24_4 1_555 1_555
H25_4 C24_4 1_555 1_555
H26_4 C24_4 1_555 1_555

#END
