
###############################################################################
#
# This file contains modified crystal structure data generated from the
# MOF subset of the Cambridge Structural Database (CSD) v543 
# hosted by the Cambridge Crystallographic Data Centre (CCDC).
#
# This work is licensed under the Creative Commons
# Attribution-NonCommercial-ShareAlike 4.0 International License.
# To view a copy of this license, visit
# http://creativecommons.org/licenses/by-nc-sa/4.0/
# or send a letter to
# Creative Commons, PO Box 1866, Mountain View, CA 94042, USA.
#
# CIF created using the CSD Python API on 29 September 2022
# The structure has been converted into the P1 space group
# The structure has a 3D framework
# The original CSD entry YEYCUC is in the cubic crystal system
# The framework has been calculated to contain at least 10.0% void space
# The void calculation uses a probe of radius 1.32A, grid spacing 0.4
#
###############################################################################

data_YEYCUC
_chemical_formula_moiety         '(C768 H576 O152 Zr26)n'
_symmetry_cell_setting           triclinic
_symmetry_space_group_name_H-M   'P 1'
_symmetry_Int_Tables_number      1
_space_group_name_Hall           'P 1'
loop_
_symmetry_equiv_pos_site_id
_symmetry_equiv_pos_as_xyz
1 x,y,z
_cell_length_a                   32.657(19)
_cell_length_b                   32.657(19)
_cell_length_c                   32.657(19)
_cell_angle_alpha                90
_cell_angle_beta                 90
_cell_angle_gamma                90
_cell_volume                     34828
loop_
_atom_site_label
_atom_site_type_symbol
_atom_site_fract_x
_atom_site_fract_y
_atom_site_fract_z
Zr9 Zr -0.0000 0.42465(3) 0.0000
Zr9_2 Zr -0.0000 0.42465(3) 1.0000
Zr12 Zr 0.42465(3) -0.0000 0.0000
Zr12_2 Zr 0.42465(3) -0.0000 1.0000
Zr1 Zr 0.07535(3) 0.5000 0.0000
O2 O 0.10818(14) 0.44135(14) 0.0000
C1 C 0.09467(17) 0.40533(17) 0.0000
C2 C 0.12760(16) 0.37240(16) 0.0000
C3 C 0.16871(19) 0.3834(2) 0.0000
H1 H 0.1762 0.4115 0.0000
C4 C 0.1992(2) 0.3530(2) 0.0000
H2 H 0.2274 0.3604 0.0000
C5 C 0.1876(2) 0.3124(2) 0.0000
C6 C 0.22033(18) 0.27967(18) 0.0000
C7 C 0.23495(7) 0.26505(7) 0.03718(17)
C8 C 0.2184(3) 0.2816(3) 0.0777(4)
H3 H 0.1981 0.3019 0.0719
H4 H 0.2063 0.2604 0.0932
O3 O 0.39182(14) 0.05865(14) 0.0000
C9 C 0.40533(17) 0.09467(17) 0.0000
C10 C 0.37240(16) 0.12760(16) 0.0000
C11 C 0.33129(19) 0.1166(2) 0.0000
H5 H 0.3238 0.0885 0.0000
C12 C 0.3008(2) 0.1470(2) 0.0000
H6 H 0.2726 0.1396 0.0000
C13 C 0.3124(2) 0.1876(2) 0.0000
C14 C 0.27967(18) 0.22033(18) 0.0000
C15 C 0.26505(7) 0.23495(7) 0.03718(17)
C16 C 0.2816(3) 0.2184(3) 0.0777(4)
H7 H 0.3019 0.1981 0.0719
H8 H 0.2937 0.2396 0.0932
O4 O 0.05865(14) 0.39182(14) 0.0000
C17 C 0.1166(2) 0.33129(19) 0.0000
H9 H 0.0885 0.3238 0.0000
C18 C 0.1470(2) 0.3008(2) 0.0000
H10 H 0.1396 0.2726 0.0000
O5 O 0.44135(14) 0.10818(14) 0.0000
C21 C 0.3834(2) 0.16871(19) 0.0000
H14 H 0.4115 0.1762 0.0000
C22 C 0.3530(2) 0.1992(2) 0.0000
H15 H 0.3604 0.2274 0.0000
H16 H 0.2604 0.2063 0.0932
H19 H 0.2396 0.2937 0.0932
Zr2 Zr 0.5000 0.07535(3) 0.0000
O6 O 0.55865(14) 0.10818(14) 0.0000
C25 C 0.59467(17) 0.09467(17) 0.0000
C26 C 0.62760(16) 0.12760(16) 0.0000
C27 C 0.6166(2) 0.16871(19) 0.0000
H21 H 0.5885 0.1762 0.0000
C28 C 0.6470(2) 0.1992(2) 0.0000
H22 H 0.6396 0.2274 0.0000
C29 C 0.6876(2) 0.1876(2) 0.0000
C30 C 0.72033(18) 0.22033(18) 0.0000
C31 C 0.73495(7) 0.23495(7) 0.03718(17)
C32 C 0.7184(3) 0.2184(3) 0.0777(4)
H23 H 0.6981 0.1981 0.0719
H24 H 0.7396 0.2063 0.0932
O7 O 0.94135(14) 0.39182(14) 0.0000
C33 C 0.90533(17) 0.40533(17) 0.0000
C34 C 0.87240(16) 0.37240(16) 0.0000
C35 C 0.8834(2) 0.33129(19) 0.0000
H25 H 0.9115 0.3238 0.0000
C36 C 0.8530(2) 0.3008(2) 0.0000
H26 H 0.8604 0.2726 0.0000
C37 C 0.8124(2) 0.3124(2) 0.0000
C38 C 0.77967(18) 0.27967(18) 0.0000
C39 C 0.76505(7) 0.26505(7) 0.03718(17)
C40 C 0.7816(3) 0.2816(3) 0.0777(4)
H27 H 0.8019 0.3019 0.0719
H28 H 0.7604 0.2937 0.0932
O8 O 0.60818(14) 0.05865(14) 0.0000
C41 C 0.66871(19) 0.1166(2) 0.0000
H29 H 0.6762 0.0885 0.0000
C42 C 0.6992(2) 0.1470(2) 0.0000
H30 H 0.7274 0.1396 0.0000
O9 O 0.89182(14) 0.44135(14) 0.0000
C45 C 0.83129(19) 0.3834(2) 0.0000
H34 H 0.8238 0.4115 0.0000
C46 C 0.8008(2) 0.3530(2) 0.0000
H35 H 0.7726 0.3604 0.0000
H36 H 0.7937 0.2604 0.0932
H39 H 0.7063 0.2396 0.0932
Zr3 Zr 0.5000 0.92465(3) 0.0000
O10 O 0.44135(14) 0.89182(14) 0.0000
C49 C 0.40533(17) 0.90533(17) 0.0000
C50 C 0.37240(16) 0.87240(16) 0.0000
C51 C 0.3834(2) 0.83129(19) 0.0000
H41 H 0.4115 0.8238 0.0000
C52 C 0.3530(2) 0.8008(2) 0.0000
H42 H 0.3604 0.7726 0.0000
C53 C 0.3124(2) 0.8124(2) 0.0000
C54 C 0.27967(18) 0.77967(18) 0.0000
C55 C 0.26505(7) 0.76505(7) 0.03718(17)
C56 C 0.2816(3) 0.7816(3) 0.0777(4)
H43 H 0.3019 0.8019 0.0719
H44 H 0.2604 0.7937 0.0932
O11 O 0.05865(14) 0.60818(14) 0.0000
C57 C 0.09467(17) 0.59467(17) 0.0000
C58 C 0.12760(16) 0.62760(16) 0.0000
C59 C 0.1166(2) 0.66871(19) 0.0000
H45 H 0.0885 0.6762 0.0000
C60 C 0.1470(2) 0.6992(2) 0.0000
H46 H 0.1396 0.7274 0.0000
C61 C 0.1876(2) 0.6876(2) 0.0000
C62 C 0.22033(18) 0.72033(18) 0.0000
C63 C 0.23495(7) 0.73495(7) 0.03718(17)
C64 C 0.2184(3) 0.7184(3) 0.0777(4)
H47 H 0.1981 0.6981 0.0719
H48 H 0.2396 0.7063 0.0932
O12 O 0.39182(14) 0.94135(14) 0.0000
C65 C 0.33129(19) 0.8834(2) 0.0000
H49 H 0.3238 0.9115 0.0000
C66 C 0.3008(2) 0.8530(2) 0.0000
H50 H 0.2726 0.8604 0.0000
O13 O 0.10818(14) 0.55865(14) 0.0000
C69 C 0.16871(19) 0.6166(2) 0.0000
H54 H 0.1762 0.5885 0.0000
C70 C 0.1992(2) 0.6470(2) 0.0000
H55 H 0.2274 0.6396 0.0000
H56 H 0.2063 0.7396 0.0932
H59 H 0.2937 0.7604 0.0932
O14 O 0.03707(17) 0.53707(17) 0.03707(17)
O16 O 0.03707(17) 0.46293(17) 0.03707(17)
Zr4 Zr 0.92465(3) 0.5000 0.0000
Zr6 Zr 0.0000 0.5000 0.07535(3)
Zr7 Zr 0.0000 0.57535(3) 0.0000
Zr9_3 Zr 1.0000 0.42465(3) 0.0000
Zr10 Zr 0.57535(3) 0.0000 0.0000
Zr12_3 Zr 0.42465(3) 1.0000 0.0000
O19 O 0.46293(17) 0.96293(17) 0.03707(17)
O20 O 0.53707(17) 0.03707(17) 0.03707(17)
O23 O 0.46293(17) 0.03707(17) 0.03707(17)
O24 O 0.53707(17) 0.96293(17) 0.03707(17)
O25 O 0.55865(14) 0.89182(14) 0.0000
O27 O 0.10818(14) 0.5000 0.05865(14)
O29 O 0.5000 0.89182(14) 0.05865(14)
O31 O 0.5000 0.10818(14) 0.05865(14)
Zr1_2 Zr 0.07535(3) 0.5000 1.0000
O1 O 0.03707(17) 0.46293(17) 0.96293(17)
O2_2 O 0.10818(14) 0.44135(14) 1.0000
C1_2 C 0.09467(17) 0.40533(17) 1.0000
C2_2 C 0.12760(16) 0.37240(16) 1.0000
C3_2 C 0.16871(19) 0.3834(2) 1.0000
H1_2 H 0.1762 0.4115 1.0000
C4_2 C 0.1992(2) 0.3530(2) 1.0000
H2_2 H 0.2274 0.3604 1.0000
C5_2 C 0.1876(2) 0.3124(2) 1.0000
C6_2 C 0.22033(18) 0.27967(18) 1.0000
O3_2 O 0.39182(14) 0.05865(14) 1.0000
C9_2 C 0.40533(17) 0.09467(17) 1.0000
C10_2 C 0.37240(16) 0.12760(16) 1.0000
C11_2 C 0.33129(19) 0.1166(2) 1.0000
H5_2 H 0.3238 0.0885 1.0000
C12_2 C 0.3008(2) 0.1470(2) 1.0000
H6_2 H 0.2726 0.1396 1.0000
C13_2 C 0.3124(2) 0.1876(2) 1.0000
C14_2 C 0.27967(18) 0.22033(18) 1.0000
O4_2 O 0.05865(14) 0.39182(14) 1.0000
C17_2 C 0.1166(2) 0.33129(19) 1.0000
H9_2 H 0.0885 0.3238 1.0000
C18_2 C 0.1470(2) 0.3008(2) 1.0000
H10_2 H 0.1396 0.2726 1.0000
C19 C 0.23495(7) 0.26505(7) 0.96282(17)
C20 C 0.2184(3) 0.2816(3) 0.9223(4)
H11 H 0.1981 0.3019 0.9281
H12 H 0.2396 0.2937 0.9068
H13 H 0.2063 0.2604 0.9068
O5_2 O 0.44135(14) 0.10818(14) 1.0000
C21_2 C 0.3834(2) 0.16871(19) 1.0000
H14_2 H 0.4115 0.1762 1.0000
C22_2 C 0.3530(2) 0.1992(2) 1.0000
H15_2 H 0.3604 0.2274 1.0000
C23 C 0.26505(7) 0.23495(7) 0.96282(17)
C24 C 0.2816(3) 0.2184(3) 0.9223(4)
H17 H 0.3019 0.1981 0.9281
H18 H 0.2937 0.2396 0.9068
H20 H 0.2604 0.2063 0.9068
Zr2_2 Zr 0.5000 0.07535(3) 1.0000
O6_2 O 0.55865(14) 0.10818(14) 1.0000
C25_2 C 0.59467(17) 0.09467(17) 1.0000
C26_2 C 0.62760(16) 0.12760(16) 1.0000
C27_2 C 0.6166(2) 0.16871(19) 1.0000
H21_2 H 0.5885 0.1762 1.0000
C28_2 C 0.6470(2) 0.1992(2) 1.0000
H22_2 H 0.6396 0.2274 1.0000
C29_2 C 0.6876(2) 0.1876(2) 1.0000
C30_2 C 0.72033(18) 0.22033(18) 1.0000
O7_2 O 0.94135(14) 0.39182(14) 1.0000
C33_2 C 0.90533(17) 0.40533(17) 1.0000
C34_2 C 0.87240(16) 0.37240(16) 1.0000
C35_2 C 0.8834(2) 0.33129(19) 1.0000
H25_2 H 0.9115 0.3238 1.0000
C36_2 C 0.8530(2) 0.3008(2) 1.0000
H26_2 H 0.8604 0.2726 1.0000
C37_2 C 0.8124(2) 0.3124(2) 1.0000
C38_2 C 0.77967(18) 0.27967(18) 1.0000
O8_2 O 0.60818(14) 0.05865(14) 1.0000
C41_2 C 0.66871(19) 0.1166(2) 1.0000
H29_2 H 0.6762 0.0885 1.0000
C42_2 C 0.6992(2) 0.1470(2) 1.0000
H30_2 H 0.7274 0.1396 1.0000
C43 C 0.73495(7) 0.23495(7) 0.96282(17)
C44 C 0.7184(3) 0.2184(3) 0.9223(4)
H31 H 0.6981 0.1981 0.9281
H32 H 0.7063 0.2396 0.9068
H33 H 0.7396 0.2063 0.9068
O9_2 O 0.89182(14) 0.44135(14) 1.0000
C45_2 C 0.83129(19) 0.3834(2) 1.0000
H34_2 H 0.8238 0.4115 1.0000
C46_2 C 0.8008(2) 0.3530(2) 1.0000
H35_2 H 0.7726 0.3604 1.0000
C47 C 0.76505(7) 0.26505(7) 0.96282(17)
C48 C 0.7816(3) 0.2816(3) 0.9223(4)
H37 H 0.8019 0.3019 0.9281
H38 H 0.7604 0.2937 0.9068
H40 H 0.7937 0.2604 0.9068
Zr3_2 Zr 0.5000 0.92465(3) 1.0000
O10_2 O 0.44135(14) 0.89182(14) 1.0000
C49_2 C 0.40533(17) 0.90533(17) 1.0000
C50_2 C 0.37240(16) 0.87240(16) 1.0000
C51_2 C 0.3834(2) 0.83129(19) 1.0000
H41_2 H 0.4115 0.8238 1.0000
C52_2 C 0.3530(2) 0.8008(2) 1.0000
H42_2 H 0.3604 0.7726 1.0000
C53_2 C 0.3124(2) 0.8124(2) 1.0000
C54_2 C 0.27967(18) 0.77967(18) 1.0000
O11_2 O 0.05865(14) 0.60818(14) 1.0000
C57_2 C 0.09467(17) 0.59467(17) 1.0000
C58_2 C 0.12760(16) 0.62760(16) 1.0000
C59_2 C 0.1166(2) 0.66871(19) 1.0000
H45_2 H 0.0885 0.6762 1.0000
C60_2 C 0.1470(2) 0.6992(2) 1.0000
H46_2 H 0.1396 0.7274 1.0000
C61_2 C 0.1876(2) 0.6876(2) 1.0000
C62_2 C 0.22033(18) 0.72033(18) 1.0000
O12_2 O 0.39182(14) 0.94135(14) 1.0000
C65_2 C 0.33129(19) 0.8834(2) 1.0000
H49_2 H 0.3238 0.9115 1.0000
C66_2 C 0.3008(2) 0.8530(2) 1.0000
H50_2 H 0.2726 0.8604 1.0000
C67 C 0.26505(7) 0.76505(7) 0.96282(17)
C68 C 0.2816(3) 0.7816(3) 0.9223(4)
H51 H 0.3019 0.8019 0.9281
H52 H 0.2937 0.7604 0.9068
H53 H 0.2604 0.7937 0.9068
O13_2 O 0.10818(14) 0.55865(14) 1.0000
C69_2 C 0.16871(19) 0.6166(2) 1.0000
H54_2 H 0.1762 0.5885 1.0000
C70_2 C 0.1992(2) 0.6470(2) 1.0000
H55_2 H 0.2274 0.6396 1.0000
C71 C 0.23495(7) 0.73495(7) 0.96282(17)
C72 C 0.2184(3) 0.7184(3) 0.9223(4)
H57 H 0.1981 0.6981 0.9281
H58 H 0.2396 0.7063 0.9068
H60 H 0.2063 0.7396 0.9068
O15 O 0.03707(17) 0.53707(17) 0.96293(17)
Zr4_2 Zr 0.92465(3) 0.5000 1.0000
Zr5 Zr 0.0000 0.5000 0.92465(3)
Zr7_2 Zr 0.0000 0.57535(3) 1.0000
Zr9_4 Zr 1.0000 0.42465(3) 1.0000
Zr10_2 Zr 0.57535(3) 0.0000 1.0000
Zr12_4 Zr 0.42465(3) 1.0000 1.0000
O17 O 0.53707(17) 0.03707(17) 0.96293(17)
O18 O 0.46293(17) 0.96293(17) 0.96293(17)
O21 O 0.53707(17) 0.96293(17) 0.96293(17)
O22 O 0.46293(17) 0.03707(17) 0.96293(17)
O25_2 O 0.55865(14) 0.89182(14) 1.0000
O26 O 0.10818(14) 0.5000 0.94135(14)
O28 O 0.5000 0.10818(14) 0.94135(14)
O30 O 0.5000 0.89182(14) 0.94135(14)
Zr10_3 Zr 0.57535(3) 1.0000 0.0000
Zr10_4 Zr 0.57535(3) 1.0000 1.0000
Zr6_2 Zr 1.0000 0.5000 0.07535(3)
Zr7_3 Zr 1.0000 0.57535(3) 0.0000
Zr5_2 Zr 1.0000 0.5000 0.92465(3)
Zr7_4 Zr 1.0000 0.57535(3) 1.0000
O6_3 O 0.89182(14) 0.55865(14) 0.0000
C25_3 C 0.90533(17) 0.59467(17) 0.0000
C26_3 C 0.87240(16) 0.62760(16) 0.0000
C27_3 C 0.83129(19) 0.6166(2) 0.0000
H21_3 H 0.8238 0.5885 0.0000
C28_3 C 0.8008(2) 0.6470(2) 0.0000
H22_3 H 0.7726 0.6396 0.0000
C29_3 C 0.8124(2) 0.6876(2) 0.0000
C30_3 C 0.77967(18) 0.72033(18) 0.0000
C31_2 C 0.76505(7) 0.73495(7) 0.03718(17)
C32_2 C 0.7816(3) 0.7184(3) 0.0777(4)
H23_2 H 0.8019 0.6981 0.0719
H24_2 H 0.7937 0.7396 0.0932
O7_3 O 0.60818(14) 0.94135(14) 0.0000
C33_3 C 0.59467(17) 0.90533(17) 0.0000
C34_3 C 0.62760(16) 0.87240(16) 0.0000
C35_3 C 0.66871(19) 0.8834(2) 0.0000
H25_3 H 0.6762 0.9115 0.0000
C36_3 C 0.6992(2) 0.8530(2) 0.0000
H26_3 H 0.7274 0.8604 0.0000
C37_3 C 0.6876(2) 0.8124(2) 0.0000
C38_3 C 0.72033(18) 0.77967(18) 0.0000
C39_2 C 0.73495(7) 0.76505(7) 0.03718(17)
C40_2 C 0.7184(3) 0.7816(3) 0.0777(4)
H27_2 H 0.6981 0.8019 0.0719
H28_2 H 0.7063 0.7604 0.0932
O8_3 O 0.94135(14) 0.60818(14) 0.0000
C41_3 C 0.8834(2) 0.66871(19) 0.0000
H29_3 H 0.9115 0.6762 0.0000
C42_3 C 0.8530(2) 0.6992(2) 0.0000
H30_3 H 0.8604 0.7274 0.0000
C45_3 C 0.6166(2) 0.83129(19) 0.0000
H34_3 H 0.5885 0.8238 0.0000
C46_3 C 0.6470(2) 0.8008(2) 0.0000
H35_3 H 0.6396 0.7726 0.0000
H36_2 H 0.7396 0.7937 0.0932
H39_2 H 0.7604 0.7063 0.0932
Zr6_3 Zr 0.5000 0.0000 0.07535(3)
O20_2 O 0.96293(17) 0.53707(17) 0.03707(17)
O23_2 O 0.96293(17) 0.46293(17) 0.03707(17)
O31_2 O 0.89182(14) 0.5000 0.05865(14)
O6_4 O 0.89182(14) 0.55865(14) 1.0000
C25_4 C 0.90533(17) 0.59467(17) 1.0000
C26_4 C 0.87240(16) 0.62760(16) 1.0000
C27_4 C 0.83129(19) 0.6166(2) 1.0000
H21_4 H 0.8238 0.5885 1.0000
C28_4 C 0.8008(2) 0.6470(2) 1.0000
H22_4 H 0.7726 0.6396 1.0000
C29_4 C 0.8124(2) 0.6876(2) 1.0000
C30_4 C 0.77967(18) 0.72033(18) 1.0000
O7_4 O 0.60818(14) 0.94135(14) 1.0000
C33_4 C 0.59467(17) 0.90533(17) 1.0000
C34_4 C 0.62760(16) 0.87240(16) 1.0000
C35_4 C 0.66871(19) 0.8834(2) 1.0000
H25_4 H 0.6762 0.9115 1.0000
C36_4 C 0.6992(2) 0.8530(2) 1.0000
H26_4 H 0.7274 0.8604 1.0000
C37_4 C 0.6876(2) 0.8124(2) 1.0000
C38_4 C 0.72033(18) 0.77967(18) 1.0000
O8_4 O 0.94135(14) 0.60818(14) 1.0000
C41_4 C 0.8834(2) 0.66871(19) 1.0000
H29_4 H 0.9115 0.6762 1.0000
C42_4 C 0.8530(2) 0.6992(2) 1.0000
H30_4 H 0.8604 0.7274 1.0000
C43_2 C 0.76505(7) 0.73495(7) 0.96282(17)
C44_2 C 0.7816(3) 0.7184(3) 0.9223(4)
H31_2 H 0.8019 0.6981 0.9281
H32_2 H 0.7604 0.7063 0.9068
H33_2 H 0.7937 0.7396 0.9068
C45_4 C 0.6166(2) 0.83129(19) 1.0000
H34_4 H 0.5885 0.8238 1.0000
C46_4 C 0.6470(2) 0.8008(2) 1.0000
H35_4 H 0.6396 0.7726 1.0000
C47_2 C 0.73495(7) 0.76505(7) 0.96282(17)
C48_2 C 0.7184(3) 0.7816(3) 0.9223(4)
H37_2 H 0.6981 0.8019 0.9281
H38_2 H 0.7063 0.7604 0.9068
H40_2 H 0.7396 0.7937 0.9068
Zr5_3 Zr 0.5000 0.0000 0.92465(3)
O17_2 O 0.96293(17) 0.53707(17) 0.96293(17)
O22_2 O 0.96293(17) 0.46293(17) 0.96293(17)
O28_2 O 0.89182(14) 0.5000 0.94135(14)
Zr6_4 Zr 0.5000 1.0000 0.07535(3)
Zr5_4 Zr 0.5000 1.0000 0.92465(3)
Zr9_5 Zr -0.0000 0.0000 0.42465(3)
Zr9_6 Zr -0.0000 1.0000 0.42465(3)
Zr1_3 Zr 0.07535(3) 0.0000 0.5000
O1_2 O 0.03707(17) 0.03707(17) 0.46293(17)
O2_3 O 0.10818(14) 0.0000 0.44135(14)
C1_3 C 0.09467(17) 0.0000 0.40533(17)
C2_3 C 0.12760(16) 0.0000 0.37240(16)
C3_3 C 0.16871(19) 0.0000 0.3834(2)
H1_3 H 0.1762 0.0000 0.4115
C4_3 C 0.1992(2) 0.0000 0.3530(2)
H2_3 H 0.2274 0.0000 0.3604
C5_3 C 0.1876(2) 0.0000 0.3124(2)
C6_3 C 0.22033(18) 0.0000 0.27967(18)
O3_3 O 0.39182(14) 0.0000 0.05865(14)
C9_3 C 0.40533(17) 0.0000 0.09467(17)
C10_3 C 0.37240(16) 0.0000 0.12760(16)
C11_3 C 0.33129(19) 0.0000 0.1166(2)
H5_3 H 0.3238 0.0000 0.0885
C12_3 C 0.3008(2) 0.0000 0.1470(2)
H6_3 H 0.2726 0.0000 0.1396
C13_3 C 0.3124(2) 0.0000 0.1876(2)
C14_3 C 0.27967(18) 0.0000 0.22033(18)
O4_3 O 0.05865(14) 0.0000 0.39182(14)
C17_3 C 0.1166(2) 0.0000 0.33129(19)
H9_3 H 0.0885 0.0000 0.3238
C18_3 C 0.1470(2) 0.0000 0.3008(2)
H10_3 H 0.1396 0.0000 0.2726
C19_2 C 0.23495(7) 0.03718(17) 0.26505(7)
C20_2 C 0.2184(3) 0.0777(4) 0.2816(3)
H11_2 H 0.1981 0.0719 0.3019
H12_2 H 0.2396 0.0932 0.2937
H13_2 H 0.2063 0.0932 0.2604
O5_3 O 0.44135(14) 0.0000 0.10818(14)
C21_3 C 0.3834(2) 0.0000 0.16871(19)
H14_3 H 0.4115 0.0000 0.1762
C22_3 C 0.3530(2) 0.0000 0.1992(2)
H15_3 H 0.3604 0.0000 0.2274
C23_2 C 0.26505(7) 0.03718(17) 0.23495(7)
C24_2 C 0.2816(3) 0.0777(4) 0.2184(3)
H17_2 H 0.3019 0.0719 0.1981
H18_2 H 0.2937 0.0932 0.2396
H20_2 H 0.2604 0.0932 0.2063
O6_5 O 0.55865(14) 0.0000 0.10818(14)
C25_5 C 0.59467(17) 0.0000 0.09467(17)
C26_5 C 0.62760(16) 0.0000 0.12760(16)
C27_5 C 0.6166(2) 0.0000 0.16871(19)
H21_5 H 0.5885 0.0000 0.1762
C28_5 C 0.6470(2) 0.0000 0.1992(2)
H22_5 H 0.6396 0.0000 0.2274
C29_5 C 0.6876(2) 0.0000 0.1876(2)
C30_5 C 0.72033(18) 0.0000 0.22033(18)
O7_5 O 0.94135(14) 0.0000 0.39182(14)
C33_5 C 0.90533(17) 0.0000 0.40533(17)
C34_5 C 0.87240(16) 0.0000 0.37240(16)
C35_5 C 0.8834(2) 0.0000 0.33129(19)
H25_5 H 0.9115 0.0000 0.3238
C36_5 C 0.8530(2) 0.0000 0.3008(2)
H26_5 H 0.8604 0.0000 0.2726
C37_5 C 0.8124(2) 0.0000 0.3124(2)
C38_5 C 0.77967(18) 0.0000 0.27967(18)
O8_5 O 0.60818(14) 0.0000 0.05865(14)
C41_5 C 0.66871(19) 0.0000 0.1166(2)
H29_5 H 0.6762 0.0000 0.0885
C42_5 C 0.6992(2) 0.0000 0.1470(2)
H30_5 H 0.7274 0.0000 0.1396
C43_3 C 0.73495(7) 0.03718(17) 0.23495(7)
C44_3 C 0.7184(3) 0.0777(4) 0.2184(3)
H31_3 H 0.6981 0.0719 0.1981
H32_3 H 0.7063 0.0932 0.2396
H33_3 H 0.7396 0.0932 0.2063
O9_3 O 0.89182(14) 0.0000 0.44135(14)
C45_5 C 0.83129(19) 0.0000 0.3834(2)
H34_5 H 0.8238 0.0000 0.4115
C46_5 C 0.8008(2) 0.0000 0.3530(2)
H35_5 H 0.7726 0.0000 0.3604
C47_3 C 0.76505(7) 0.03718(17) 0.26505(7)
C48_3 C 0.7816(3) 0.0777(4) 0.2816(3)
H37_3 H 0.8019 0.0719 0.3019
H38_3 H 0.7604 0.0932 0.2937
H40_3 H 0.7937 0.0932 0.2604
O10_3 O 0.44135(14) 0.0000 0.89182(14)
C49_3 C 0.40533(17) 0.0000 0.90533(17)
C50_3 C 0.37240(16) 0.0000 0.87240(16)
C51_3 C 0.3834(2) 0.0000 0.83129(19)
H41_3 H 0.4115 0.0000 0.8238
C52_3 C 0.3530(2) 0.0000 0.8008(2)
H42_3 H 0.3604 0.0000 0.7726
C53_3 C 0.3124(2) 0.0000 0.8124(2)
C54_3 C 0.27967(18) 0.0000 0.77967(18)
O11_3 O 0.05865(14) 0.0000 0.60818(14)
C57_3 C 0.09467(17) 0.0000 0.59467(17)
C58_3 C 0.12760(16) 0.0000 0.62760(16)
C59_3 C 0.1166(2) 0.0000 0.66871(19)
H45_3 H 0.0885 0.0000 0.6762
C60_3 C 0.1470(2) 0.0000 0.6992(2)
H46_3 H 0.1396 0.0000 0.7274
C61_3 C 0.1876(2) 0.0000 0.6876(2)
C62_3 C 0.22033(18) 0.0000 0.72033(18)
O12_3 O 0.39182(14) 0.0000 0.94135(14)
C65_3 C 0.33129(19) 0.0000 0.8834(2)
H49_3 H 0.3238 0.0000 0.9115
C66_3 C 0.3008(2) 0.0000 0.8530(2)
H50_3 H 0.2726 0.0000 0.8604
C67_2 C 0.26505(7) 0.03718(17) 0.76505(7)
C68_2 C 0.2816(3) 0.0777(4) 0.7816(3)
H51_2 H 0.3019 0.0719 0.8019
H52_2 H 0.2937 0.0932 0.7604
H53_2 H 0.2604 0.0932 0.7937
O13_3 O 0.10818(14) 0.0000 0.55865(14)
C69_3 C 0.16871(19) 0.0000 0.6166(2)
H54_3 H 0.1762 0.0000 0.5885
C70_3 C 0.1992(2) 0.0000 0.6470(2)
H55_3 H 0.2274 0.0000 0.6396
C71_2 C 0.23495(7) 0.03718(17) 0.73495(7)
C72_2 C 0.2184(3) 0.0777(4) 0.7184(3)
H57_2 H 0.1981 0.0719 0.6981
H58_2 H 0.2396 0.0932 0.7063
H60_2 H 0.2063 0.0932 0.7396
O15_2 O 0.03707(17) 0.03707(17) 0.53707(17)
Zr4_3 Zr 0.92465(3) 0.0000 0.5000
Zr5_5 Zr 0.0000 0.07535(3) 0.5000
Zr7_5 Zr 0.0000 0.0000 0.57535(3)
Zr9_7 Zr 1.0000 0.0000 0.42465(3)
O25_3 O 0.55865(14) 0.0000 0.89182(14)
O26_2 O 0.10818(14) 0.05865(14) 0.5000
O28_3 O 0.5000 0.05865(14) 0.10818(14)
O30_2 O 0.5000 0.05865(14) 0.89182(14)
Zr1_4 Zr 0.07535(3) 1.0000 0.5000
O2_4 O 0.10818(14) 1.0000 0.44135(14)
C1_4 C 0.09467(17) 1.0000 0.40533(17)
C2_4 C 0.12760(16) 1.0000 0.37240(16)
C3_4 C 0.16871(19) 1.0000 0.3834(2)
H1_4 H 0.1762 1.0000 0.4115
C4_4 C 0.1992(2) 1.0000 0.3530(2)
H2_4 H 0.2274 1.0000 0.3604
C5_4 C 0.1876(2) 1.0000 0.3124(2)
C6_4 C 0.22033(18) 1.0000 0.27967(18)
C7_2 C 0.23495(7) 0.96282(17) 0.26505(7)
C8_2 C 0.2184(3) 0.9223(4) 0.2816(3)
H3_2 H 0.1981 0.9281 0.3019
H4_2 H 0.2063 0.9068 0.2604
O3_4 O 0.39182(14) 1.0000 0.05865(14)
C9_4 C 0.40533(17) 1.0000 0.09467(17)
C10_4 C 0.37240(16) 1.0000 0.12760(16)
C11_4 C 0.33129(19) 1.0000 0.1166(2)
H5_4 H 0.3238 1.0000 0.0885
C12_4 C 0.3008(2) 1.0000 0.1470(2)
H6_4 H 0.2726 1.0000 0.1396
C13_4 C 0.3124(2) 1.0000 0.1876(2)
C14_4 C 0.27967(18) 1.0000 0.22033(18)
C15_2 C 0.26505(7) 0.96282(17) 0.23495(7)
C16_2 C 0.2816(3) 0.9223(4) 0.2184(3)
H7_2 H 0.3019 0.9281 0.1981
H8_2 H 0.2937 0.9068 0.2396
O4_4 O 0.05865(14) 1.0000 0.39182(14)
C17_4 C 0.1166(2) 1.0000 0.33129(19)
H9_4 H 0.0885 1.0000 0.3238
C18_4 C 0.1470(2) 1.0000 0.3008(2)
H10_4 H 0.1396 1.0000 0.2726
O5_4 O 0.44135(14) 1.0000 0.10818(14)
C21_4 C 0.3834(2) 1.0000 0.16871(19)
H14_4 H 0.4115 1.0000 0.1762
C22_4 C 0.3530(2) 1.0000 0.1992(2)
H15_4 H 0.3604 1.0000 0.2274
H16_2 H 0.2604 0.9068 0.2063
H19_2 H 0.2396 0.9068 0.2937
O6_6 O 0.55865(14) 1.0000 0.10818(14)
C25_6 C 0.59467(17) 1.0000 0.09467(17)
C26_6 C 0.62760(16) 1.0000 0.12760(16)
C27_6 C 0.6166(2) 1.0000 0.16871(19)
H21_6 H 0.5885 1.0000 0.1762
C28_6 C 0.6470(2) 1.0000 0.1992(2)
H22_6 H 0.6396 1.0000 0.2274
C29_6 C 0.6876(2) 1.0000 0.1876(2)
C30_6 C 0.72033(18) 1.0000 0.22033(18)
C31_3 C 0.73495(7) 0.96282(17) 0.23495(7)
C32_3 C 0.7184(3) 0.9223(4) 0.2184(3)
H23_3 H 0.6981 0.9281 0.1981
H24_3 H 0.7396 0.9068 0.2063
O7_6 O 0.94135(14) 1.0000 0.39182(14)
C33_6 C 0.90533(17) 1.0000 0.40533(17)
C34_6 C 0.87240(16) 1.0000 0.37240(16)
C35_6 C 0.8834(2) 1.0000 0.33129(19)
H25_6 H 0.9115 1.0000 0.3238
C36_6 C 0.8530(2) 1.0000 0.3008(2)
H26_6 H 0.8604 1.0000 0.2726
C37_6 C 0.8124(2) 1.0000 0.3124(2)
C38_6 C 0.77967(18) 1.0000 0.27967(18)
C39_3 C 0.76505(7) 0.96282(17) 0.26505(7)
C40_3 C 0.7816(3) 0.9223(4) 0.2816(3)
H27_3 H 0.8019 0.9281 0.3019
H28_3 H 0.7604 0.9068 0.2937
O8_6 O 0.60818(14) 1.0000 0.05865(14)
C41_6 C 0.66871(19) 1.0000 0.1166(2)
H29_6 H 0.6762 1.0000 0.0885
C42_6 C 0.6992(2) 1.0000 0.1470(2)
H30_6 H 0.7274 1.0000 0.1396
O9_4 O 0.89182(14) 1.0000 0.44135(14)
C45_6 C 0.83129(19) 1.0000 0.3834(2)
H34_6 H 0.8238 1.0000 0.4115
C46_6 C 0.8008(2) 1.0000 0.3530(2)
H35_6 H 0.7726 1.0000 0.3604
H36_3 H 0.7937 0.9068 0.2604
H39_3 H 0.7063 0.9068 0.2396
O10_4 O 0.44135(14) 1.0000 0.89182(14)
C49_4 C 0.40533(17) 1.0000 0.90533(17)
C50_4 C 0.37240(16) 1.0000 0.87240(16)
C51_4 C 0.3834(2) 1.0000 0.83129(19)
H41_4 H 0.4115 1.0000 0.8238
C52_4 C 0.3530(2) 1.0000 0.8008(2)
H42_4 H 0.3604 1.0000 0.7726
C53_4 C 0.3124(2) 1.0000 0.8124(2)
C54_4 C 0.27967(18) 1.0000 0.77967(18)
C55_2 C 0.26505(7) 0.96282(17) 0.76505(7)
C56_2 C 0.2816(3) 0.9223(4) 0.7816(3)
H43_2 H 0.3019 0.9281 0.8019
H44_2 H 0.2604 0.9068 0.7937
O11_4 O 0.05865(14) 1.0000 0.60818(14)
C57_4 C 0.09467(17) 1.0000 0.59467(17)
C58_4 C 0.12760(16) 1.0000 0.62760(16)
C59_4 C 0.1166(2) 1.0000 0.66871(19)
H45_4 H 0.0885 1.0000 0.6762
C60_4 C 0.1470(2) 1.0000 0.6992(2)
H46_4 H 0.1396 1.0000 0.7274
C61_4 C 0.1876(2) 1.0000 0.6876(2)
C62_4 C 0.22033(18) 1.0000 0.72033(18)
C63_2 C 0.23495(7) 0.96282(17) 0.73495(7)
C64_2 C 0.2184(3) 0.9223(4) 0.7184(3)
H47_2 H 0.1981 0.9281 0.6981
H48_2 H 0.2396 0.9068 0.7063
O12_4 O 0.39182(14) 1.0000 0.94135(14)
C65_4 C 0.33129(19) 1.0000 0.8834(2)
H49_4 H 0.3238 1.0000 0.9115
C66_4 C 0.3008(2) 1.0000 0.8530(2)
H50_4 H 0.2726 1.0000 0.8604
O13_4 O 0.10818(14) 1.0000 0.55865(14)
C69_4 C 0.16871(19) 1.0000 0.6166(2)
H54_4 H 0.1762 1.0000 0.5885
C70_4 C 0.1992(2) 1.0000 0.6470(2)
H55_4 H 0.2274 1.0000 0.6396
H56_2 H 0.2063 0.9068 0.7396
H59_2 H 0.2937 0.9068 0.7604
O14_2 O 0.03707(17) 0.96293(17) 0.53707(17)
O16_2 O 0.03707(17) 0.96293(17) 0.46293(17)
Zr4_4 Zr 0.92465(3) 1.0000 0.5000
Zr6_5 Zr 0.0000 0.92465(3) 0.5000
Zr7_6 Zr 0.0000 1.0000 0.57535(3)
Zr9_8 Zr 1.0000 1.0000 0.42465(3)
O25_4 O 0.55865(14) 1.0000 0.89182(14)
O27_2 O 0.10818(14) 0.94135(14) 0.5000
O29_2 O 0.5000 0.94135(14) 0.89182(14)
O31_3 O 0.5000 0.94135(14) 0.10818(14)
Zr5_6 Zr 1.0000 0.07535(3) 0.5000
Zr7_7 Zr 1.0000 0.0000 0.57535(3)
Zr6_6 Zr 1.0000 0.92465(3) 0.5000
Zr7_8 Zr 1.0000 1.0000 0.57535(3)
C25_7 C 0.59467(17) 0.0000 0.90533(17)
C26_7 C 0.62760(16) 0.0000 0.87240(16)
C27_7 C 0.6166(2) 0.0000 0.83129(19)
H21_7 H 0.5885 0.0000 0.8238
C28_7 C 0.6470(2) 0.0000 0.8008(2)
H22_7 H 0.6396 0.0000 0.7726
C29_7 C 0.6876(2) 0.0000 0.8124(2)
C30_7 C 0.72033(18) 0.0000 0.77967(18)
C31_4 C 0.73495(7) 0.03718(17) 0.76505(7)
C32_4 C 0.7184(3) 0.0777(4) 0.7816(3)
H23_4 H 0.6981 0.0719 0.8019
H24_4 H 0.7396 0.0932 0.7937
O7_7 O 0.94135(14) 0.0000 0.60818(14)
C33_7 C 0.90533(17) 0.0000 0.59467(17)
C34_7 C 0.87240(16) 0.0000 0.62760(16)
C35_7 C 0.8834(2) 0.0000 0.66871(19)
H25_7 H 0.9115 0.0000 0.6762
C36_7 C 0.8530(2) 0.0000 0.6992(2)
H26_7 H 0.8604 0.0000 0.7274
C37_7 C 0.8124(2) 0.0000 0.6876(2)
C38_7 C 0.77967(18) 0.0000 0.72033(18)
C39_4 C 0.76505(7) 0.03718(17) 0.73495(7)
C40_4 C 0.7816(3) 0.0777(4) 0.7184(3)
H27_4 H 0.8019 0.0719 0.6981
H28_4 H 0.7604 0.0932 0.7063
O8_7 O 0.60818(14) 0.0000 0.94135(14)
C41_7 C 0.66871(19) 0.0000 0.8834(2)
H29_7 H 0.6762 0.0000 0.9115
C42_7 C 0.6992(2) 0.0000 0.8530(2)
H30_7 H 0.7274 0.0000 0.8604
O9_5 O 0.89182(14) 0.0000 0.55865(14)
C45_7 C 0.83129(19) 0.0000 0.6166(2)
H34_7 H 0.8238 0.0000 0.5885
C46_7 C 0.8008(2) 0.0000 0.6470(2)
H35_7 H 0.7726 0.0000 0.6396
H36_4 H 0.7937 0.0932 0.7396
H39_4 H 0.7063 0.0932 0.7604
C25_8 C 0.59467(17) 1.0000 0.90533(17)
C26_8 C 0.62760(16) 1.0000 0.87240(16)
C27_8 C 0.6166(2) 1.0000 0.83129(19)
H21_8 H 0.5885 1.0000 0.8238
C28_8 C 0.6470(2) 1.0000 0.8008(2)
H22_8 H 0.6396 1.0000 0.7726
C29_8 C 0.6876(2) 1.0000 0.8124(2)
C30_8 C 0.72033(18) 1.0000 0.77967(18)
O7_8 O 0.94135(14) 1.0000 0.60818(14)
C33_8 C 0.90533(17) 1.0000 0.59467(17)
C34_8 C 0.87240(16) 1.0000 0.62760(16)
C35_8 C 0.8834(2) 1.0000 0.66871(19)
H25_8 H 0.9115 1.0000 0.6762
C36_8 C 0.8530(2) 1.0000 0.6992(2)
H26_8 H 0.8604 1.0000 0.7274
C37_8 C 0.8124(2) 1.0000 0.6876(2)
C38_8 C 0.77967(18) 1.0000 0.72033(18)
O8_8 O 0.60818(14) 1.0000 0.94135(14)
C41_8 C 0.66871(19) 1.0000 0.8834(2)
H29_8 H 0.6762 1.0000 0.9115
C42_8 C 0.6992(2) 1.0000 0.8530(2)
H30_8 H 0.7274 1.0000 0.8604
C43_4 C 0.73495(7) 0.96282(17) 0.76505(7)
C44_4 C 0.7184(3) 0.9223(4) 0.7816(3)
H31_4 H 0.6981 0.9281 0.8019
H32_4 H 0.7063 0.9068 0.7604
H33_4 H 0.7396 0.9068 0.7937
O9_6 O 0.89182(14) 1.0000 0.55865(14)
C45_8 C 0.83129(19) 1.0000 0.6166(2)
H34_8 H 0.8238 1.0000 0.5885
C46_8 C 0.8008(2) 1.0000 0.6470(2)
H35_8 H 0.7726 1.0000 0.6396
C47_4 C 0.76505(7) 0.96282(17) 0.73495(7)
C48_4 C 0.7816(3) 0.9223(4) 0.7184(3)
H37_4 H 0.8019 0.9281 0.6981
H38_4 H 0.7604 0.9068 0.7063
H40_4 H 0.7937 0.9068 0.7396
O2_5 O 0.0000 0.44135(14) 0.89182(14)
C1_5 C 0.0000 0.40533(17) 0.90533(17)
C2_5 C 0.0000 0.37240(16) 0.87240(16)
C3_5 C 0.0000 0.3834(2) 0.83129(19)
H1_5 H 0.0000 0.4115 0.8238
C4_5 C -0.0000 0.3530(2) 0.8008(2)
H2_5 H 0.0000 0.3604 0.7726
C5_5 C 0.0000 0.3124(2) 0.8124(2)
C6_5 C 0.0000 0.27967(18) 0.77967(18)
C7_3 C 0.03718(17) 0.26505(7) 0.76505(7)
C8_3 C 0.0777(4) 0.2816(3) 0.7816(3)
H3_3 H 0.0719 0.3019 0.8019
H4_3 H 0.0932 0.2604 0.7937
O3_5 O 0.0000 0.05865(14) 0.60818(14)
C9_5 C 0.0000 0.09467(17) 0.59467(17)
C10_5 C 0.0000 0.12760(16) 0.62760(16)
C11_5 C 0.0000 0.1166(2) 0.66871(19)
H5_5 H 0.0000 0.0885 0.6762
C12_5 C 0.0000 0.1470(2) 0.6992(2)
H6_5 H 0.0000 0.1396 0.7274
C13_5 C 0.0000 0.1876(2) 0.6876(2)
C14_5 C 0.0000 0.22033(18) 0.72033(18)
C15_3 C 0.03718(17) 0.23495(7) 0.73495(7)
C16_3 C 0.0777(4) 0.2184(3) 0.7184(3)
H7_3 H 0.0719 0.1981 0.6981
H8_3 H 0.0932 0.2396 0.7063
O4_5 O 0.0000 0.39182(14) 0.94135(14)
C17_5 C 0.0000 0.33129(19) 0.8834(2)
H9_5 H 0.0000 0.3238 0.9115
C18_5 C 0.0000 0.3008(2) 0.8530(2)
H10_5 H 0.0000 0.2726 0.8604
O5_5 O 0.0000 0.10818(14) 0.55865(14)
C21_5 C 0.0000 0.16871(19) 0.6166(2)
H14_5 H 0.0000 0.1762 0.5885
C22_5 C 0.0000 0.1992(2) 0.6470(2)
H15_5 H 0.0000 0.2274 0.6396
H16_3 H 0.0932 0.2063 0.7396
H19_3 H 0.0932 0.2937 0.7604
O6_7 O 0.0000 0.10818(14) 0.44135(14)
C25_9 C 0.0000 0.09467(17) 0.40533(17)
C26_9 C 0.0000 0.12760(16) 0.37240(16)
C27_9 C 0.0000 0.16871(19) 0.3834(2)
H21_9 H 0.0000 0.1762 0.4115
C28_9 C 0.0000 0.1992(2) 0.3530(2)
H22_9 H 0.0000 0.2274 0.3604
C29_9 C 0.0000 0.1876(2) 0.3124(2)
C30_9 C 0.0000 0.22033(18) 0.27967(18)
C31_5 C 0.03718(17) 0.23495(7) 0.26505(7)
C32_5 C 0.0777(4) 0.2184(3) 0.2816(3)
H23_5 H 0.0719 0.1981 0.3019
H24_5 H 0.0932 0.2063 0.2604
O7_9 O 0.0000 0.39182(14) 0.05865(14)
C33_9 C 0.0000 0.40533(17) 0.09467(17)
C34_9 C 0.0000 0.37240(16) 0.12760(16)
C35_9 C 0.0000 0.33129(19) 0.1166(2)
H25_9 H 0.0000 0.3238 0.0885
C36_9 C 0.0000 0.3008(2) 0.1470(2)
H26_9 H 0.0000 0.2726 0.1396
C37_9 C 0.0000 0.3124(2) 0.1876(2)
C38_9 C 0.0000 0.27967(18) 0.22033(18)
C39_5 C 0.03718(17) 0.26505(7) 0.23495(7)
C40_5 C 0.0777(4) 0.2816(3) 0.2184(3)
H27_5 H 0.0719 0.3019 0.1981
H28_5 H 0.0932 0.2937 0.2396
O8_9 O 0.0000 0.05865(14) 0.39182(14)
C41_9 C 0.0000 0.1166(2) 0.33129(19)
H29_9 H 0.0000 0.0885 0.3238
C42_9 C 0.0000 0.1470(2) 0.3008(2)
H30_9 H 0.0000 0.1396 0.2726
O9_7 O 0.0000 0.44135(14) 0.10818(14)
C45_9 C 0.0000 0.3834(2) 0.16871(19)
H34_9 H 0.0000 0.4115 0.1762
C46_9 C 0.0000 0.3530(2) 0.1992(2)
H35_9 H 0.0000 0.3604 0.2274
H36_5 H 0.0932 0.2604 0.2063
H39_5 H 0.0932 0.2396 0.2937
O10_5 O 0.0000 0.89182(14) 0.55865(14)
C49_5 C 0.0000 0.90533(17) 0.59467(17)
C50_5 C 0.0000 0.87240(16) 0.62760(16)
C51_5 C 0.0000 0.83129(19) 0.6166(2)
H41_5 H 0.0000 0.8238 0.5885
C52_5 C 0.0000 0.8008(2) 0.6470(2)
H42_5 H 0.0000 0.7726 0.6396
C53_5 C 0.0000 0.8124(2) 0.6876(2)
C54_5 C 0.0000 0.77967(18) 0.72033(18)
C55_3 C 0.03718(17) 0.76505(7) 0.73495(7)
C56_3 C 0.0777(4) 0.7816(3) 0.7184(3)
H43_3 H 0.0719 0.8019 0.6981
H44_3 H 0.0932 0.7937 0.7396
O11_5 O 0.0000 0.60818(14) 0.94135(14)
C57_5 C 0.0000 0.59467(17) 0.90533(17)
C58_5 C 0.0000 0.62760(16) 0.87240(16)
C59_5 C 0.0000 0.66871(19) 0.8834(2)
H45_5 H 0.0000 0.6762 0.9115
C60_5 C 0.0000 0.6992(2) 0.8530(2)
H46_5 H 0.0000 0.7274 0.8604
C61_5 C 0.0000 0.6876(2) 0.8124(2)
C62_5 C 0.0000 0.72033(18) 0.77967(18)
C63_3 C 0.03718(17) 0.73495(7) 0.76505(7)
C64_3 C 0.0777(4) 0.7184(3) 0.7816(3)
H47_3 H 0.0719 0.6981 0.8019
H48_3 H 0.0932 0.7063 0.7604
O12_5 O 0.0000 0.94135(14) 0.60818(14)
C65_5 C 0.0000 0.8834(2) 0.66871(19)
H49_5 H 0.0000 0.9115 0.6762
C66_5 C 0.0000 0.8530(2) 0.6992(2)
H50_5 H 0.0000 0.8604 0.7274
O13_5 O -0.0000 0.55865(14) 0.89182(14)
C69_5 C 0.0000 0.6166(2) 0.83129(19)
H54_5 H 0.0000 0.5885 0.8238
C70_5 C 0.0000 0.6470(2) 0.8008(2)
H55_5 H 0.0000 0.6396 0.7726
H56_3 H 0.0932 0.7396 0.7937
H59_3 H 0.0932 0.7604 0.7063
O25_5 O 0.0000 0.89182(14) 0.44135(14)
O27_3 O 0.05865(14) 0.5000 0.89182(14)
O29_3 O 0.05865(14) 0.89182(14) 0.5000
O31_4 O 0.05865(14) 0.10818(14) 0.5000
O2_6 O 1.0000 0.44135(14) 0.89182(14)
C1_6 C 1.0000 0.40533(17) 0.90533(17)
C2_6 C 1.0000 0.37240(16) 0.87240(16)
C3_6 C 1.0000 0.3834(2) 0.83129(19)
H1_6 H 1.0000 0.4115 0.8238
C4_6 C 1.0000 0.3530(2) 0.8008(2)
H2_6 H 1.0000 0.3604 0.7726
C5_6 C 1.0000 0.3124(2) 0.8124(2)
C6_6 C 1.0000 0.27967(18) 0.77967(18)
O3_6 O 1.0000 0.05865(14) 0.60818(14)
C9_6 C 1.0000 0.09467(17) 0.59467(17)
C10_6 C 1.0000 0.12760(16) 0.62760(16)
C11_6 C 1.0000 0.1166(2) 0.66871(19)
H5_6 H 1.0000 0.0885 0.6762
C12_6 C 1.0000 0.1470(2) 0.6992(2)
H6_6 H 1.0000 0.1396 0.7274
C13_6 C 1.0000 0.1876(2) 0.6876(2)
C14_6 C 1.0000 0.22033(18) 0.72033(18)
O4_6 O 1.0000 0.39182(14) 0.94135(14)
C17_6 C 1.0000 0.33129(19) 0.8834(2)
H9_6 H 1.0000 0.3238 0.9115
C18_6 C 1.0000 0.3008(2) 0.8530(2)
H10_6 H 1.0000 0.2726 0.8604
C19_3 C 0.96282(17) 0.26505(7) 0.76505(7)
C20_3 C 0.9223(4) 0.2816(3) 0.7816(3)
H11_3 H 0.9281 0.3019 0.8019
H12_3 H 0.9068 0.2937 0.7604
H13_3 H 0.9068 0.2604 0.7937
O5_6 O 1.0000 0.10818(14) 0.55865(14)
C21_6 C 1.0000 0.16871(19) 0.6166(2)
H14_6 H 1.0000 0.1762 0.5885
C22_6 C 1.0000 0.1992(2) 0.6470(2)
H15_6 H 1.0000 0.2274 0.6396
C23_3 C 0.96282(17) 0.23495(7) 0.73495(7)
C24_3 C 0.9223(4) 0.2184(3) 0.7184(3)
H17_3 H 0.9281 0.1981 0.6981
H18_3 H 0.9068 0.2396 0.7063
H20_3 H 0.9068 0.2063 0.7396
O6_8 O 1.0000 0.10818(14) 0.44135(14)
C25_10 C 1.0000 0.09467(17) 0.40533(17)
C26_10 C 1.0000 0.12760(16) 0.37240(16)
C27_10 C 1.0000 0.16871(19) 0.3834(2)
H21_10 H 1.0000 0.1762 0.4115
C28_10 C 1.0000 0.1992(2) 0.3530(2)
H22_10 H 1.0000 0.2274 0.3604
C29_10 C 1.0000 0.1876(2) 0.3124(2)
C30_10 C 1.0000 0.22033(18) 0.27967(18)
O7_10 O 1.0000 0.39182(14) 0.05865(14)
C33_10 C 1.0000 0.40533(17) 0.09467(17)
C34_10 C 1.0000 0.37240(16) 0.12760(16)
C35_10 C 1.0000 0.33129(19) 0.1166(2)
H25_10 H 1.0000 0.3238 0.0885
C36_10 C 1.0000 0.3008(2) 0.1470(2)
H26_10 H 1.0000 0.2726 0.1396
C37_10 C 1.0000 0.3124(2) 0.1876(2)
C38_10 C 1.0000 0.27967(18) 0.22033(18)
O8_10 O 1.0000 0.05865(14) 0.39182(14)
C41_10 C 1.0000 0.1166(2) 0.33129(19)
H29_10 H 1.0000 0.0885 0.3238
C42_10 C 1.0000 0.1470(2) 0.3008(2)
H30_10 H 1.0000 0.1396 0.2726
C43_5 C 0.96282(17) 0.23495(7) 0.26505(7)
C44_5 C 0.9223(4) 0.2184(3) 0.2816(3)
H31_5 H 0.9281 0.1981 0.3019
H32_5 H 0.9068 0.2396 0.2937
H33_5 H 0.9068 0.2063 0.2604
O9_8 O 1.0000 0.44135(14) 0.10818(14)
C45_10 C 1.0000 0.3834(2) 0.16871(19)
H34_10 H 1.0000 0.4115 0.1762
C46_10 C 1.0000 0.3530(2) 0.1992(2)
H35_10 H 1.0000 0.3604 0.2274
C47_5 C 0.96282(17) 0.26505(7) 0.23495(7)
C48_5 C 0.9223(4) 0.2816(3) 0.2184(3)
H37_5 H 0.9281 0.3019 0.1981
H38_5 H 0.9068 0.2937 0.2396
H40_5 H 0.9068 0.2604 0.2063
O10_6 O 1.0000 0.89182(14) 0.55865(14)
C49_6 C 1.0000 0.90533(17) 0.59467(17)
C50_6 C 1.0000 0.87240(16) 0.62760(16)
C51_6 C 1.0000 0.83129(19) 0.6166(2)
H41_6 H 1.0000 0.8238 0.5885
C52_6 C 1.0000 0.8008(2) 0.6470(2)
H42_6 H 1.0000 0.7726 0.6396
C53_6 C 1.0000 0.8124(2) 0.6876(2)
C54_6 C 1.0000 0.77967(18) 0.72033(18)
O11_6 O 1.0000 0.60818(14) 0.94135(14)
C57_6 C 1.0000 0.59467(17) 0.90533(17)
C58_6 C 1.0000 0.62760(16) 0.87240(16)
C59_6 C 1.0000 0.66871(19) 0.8834(2)
H45_6 H 1.0000 0.6762 0.9115
C60_6 C 1.0000 0.6992(2) 0.8530(2)
H46_6 H 1.0000 0.7274 0.8604
C61_6 C 1.0000 0.6876(2) 0.8124(2)
C62_6 C 1.0000 0.72033(18) 0.77967(18)
O12_6 O 1.0000 0.94135(14) 0.60818(14)
C65_6 C 1.0000 0.8834(2) 0.66871(19)
H49_6 H 1.0000 0.9115 0.6762
C66_6 C 1.0000 0.8530(2) 0.6992(2)
H50_6 H 1.0000 0.8604 0.7274
C67_3 C 0.96282(17) 0.76505(7) 0.73495(7)
C68_3 C 0.9223(4) 0.7816(3) 0.7184(3)
H51_3 H 0.9281 0.8019 0.6981
H52_3 H 0.9068 0.7604 0.7063
H53_3 H 0.9068 0.7937 0.7396
O13_6 O 1.0000 0.55865(14) 0.89182(14)
C69_6 C 1.0000 0.6166(2) 0.83129(19)
H54_6 H 1.0000 0.5885 0.8238
C70_6 C 1.0000 0.6470(2) 0.8008(2)
H55_6 H 1.0000 0.6396 0.7726
C71_3 C 0.96282(17) 0.73495(7) 0.76505(7)
C72_3 C 0.9223(4) 0.7184(3) 0.7816(3)
H57_3 H 0.9281 0.6981 0.8019
H58_3 H 0.9068 0.7063 0.7604
H60_3 H 0.9068 0.7396 0.7937
O17_3 O 0.96293(17) 0.03707(17) 0.46293(17)
O18_2 O 0.96293(17) 0.96293(17) 0.53707(17)
O21_2 O 0.96293(17) 0.96293(17) 0.46293(17)
O22_3 O 0.96293(17) 0.03707(17) 0.53707(17)
O25_6 O 1.0000 0.89182(14) 0.44135(14)
O26_3 O 0.94135(14) 0.5000 0.89182(14)
O28_4 O 0.94135(14) 0.10818(14) 0.5000
O30_3 O 0.94135(14) 0.89182(14) 0.5000
C49_7 C 0.0000 0.90533(17) 0.40533(17)
C50_7 C 0.0000 0.87240(16) 0.37240(16)
C51_7 C 0.0000 0.83129(19) 0.3834(2)
H41_7 H 0.0000 0.8238 0.4115
C52_7 C -0.0000 0.8008(2) 0.3530(2)
H42_7 H 0.0000 0.7726 0.3604
C53_7 C 0.0000 0.8124(2) 0.3124(2)
C54_7 C 0.0000 0.77967(18) 0.27967(18)
O11_7 O 0.0000 0.60818(14) 0.05865(14)
C57_7 C 0.0000 0.59467(17) 0.09467(17)
C58_7 C 0.0000 0.62760(16) 0.12760(16)
C59_7 C 0.0000 0.66871(19) 0.1166(2)
H45_7 H 0.0000 0.6762 0.0885
C60_7 C 0.0000 0.6992(2) 0.1470(2)
H46_7 H 0.0000 0.7274 0.1396
C61_7 C 0.0000 0.6876(2) 0.1876(2)
C62_7 C 0.0000 0.72033(18) 0.22033(18)
O12_7 O 0.0000 0.94135(14) 0.39182(14)
C65_7 C 0.0000 0.8834(2) 0.33129(19)
H49_7 H 0.0000 0.9115 0.3238
C66_7 C 0.0000 0.8530(2) 0.3008(2)
H50_7 H 0.0000 0.8604 0.2726
C67_4 C 0.03718(17) 0.76505(7) 0.26505(7)
C68_4 C 0.0777(4) 0.7816(3) 0.2816(3)
H51_4 H 0.0719 0.8019 0.3019
H52_4 H 0.0932 0.7604 0.2937
H53_4 H 0.0932 0.7937 0.2604
O13_7 O -0.0000 0.55865(14) 0.10818(14)
C69_7 C 0.0000 0.6166(2) 0.16871(19)
H54_7 H 0.0000 0.5885 0.1762
C70_7 C 0.0000 0.6470(2) 0.1992(2)
H55_7 H 0.0000 0.6396 0.2274
C71_4 C 0.03718(17) 0.73495(7) 0.23495(7)
C72_4 C 0.0777(4) 0.7184(3) 0.2184(3)
H57_4 H 0.0719 0.6981 0.1981
H58_4 H 0.0932 0.7063 0.2396
H60_4 H 0.0932 0.7396 0.2063
O26_4 O 0.05865(14) 0.5000 0.10818(14)
C49_8 C 1.0000 0.90533(17) 0.40533(17)
C50_8 C 1.0000 0.87240(16) 0.37240(16)
C51_8 C 1.0000 0.83129(19) 0.3834(2)
H41_8 H 1.0000 0.8238 0.4115
C52_8 C 1.0000 0.8008(2) 0.3530(2)
H42_8 H 1.0000 0.7726 0.3604
C53_8 C 1.0000 0.8124(2) 0.3124(2)
C54_8 C 1.0000 0.77967(18) 0.27967(18)
C55_4 C 0.96282(17) 0.76505(7) 0.26505(7)
C56_4 C 0.9223(4) 0.7816(3) 0.2816(3)
H43_4 H 0.9281 0.8019 0.3019
H44_4 H 0.9068 0.7937 0.2604
O11_8 O 1.0000 0.60818(14) 0.05865(14)
C57_8 C 1.0000 0.59467(17) 0.09467(17)
C58_8 C 1.0000 0.62760(16) 0.12760(16)
C59_8 C 1.0000 0.66871(19) 0.1166(2)
H45_8 H 1.0000 0.6762 0.0885
C60_8 C 1.0000 0.6992(2) 0.1470(2)
H46_8 H 1.0000 0.7274 0.1396
C61_8 C 1.0000 0.6876(2) 0.1876(2)
C62_8 C 1.0000 0.72033(18) 0.22033(18)
C63_4 C 0.96282(17) 0.73495(7) 0.23495(7)
C64_4 C 0.9223(4) 0.7184(3) 0.2184(3)
H47_4 H 0.9281 0.6981 0.1981
H48_4 H 0.9068 0.7063 0.2396
O12_8 O 1.0000 0.94135(14) 0.39182(14)
C65_8 C 1.0000 0.8834(2) 0.33129(19)
H49_8 H 1.0000 0.9115 0.3238
C66_8 C 1.0000 0.8530(2) 0.3008(2)
H50_8 H 1.0000 0.8604 0.2726
O13_8 O 1.0000 0.55865(14) 0.10818(14)
C69_8 C 1.0000 0.6166(2) 0.16871(19)
H54_8 H 1.0000 0.5885 0.1762
C70_8 C 1.0000 0.6470(2) 0.1992(2)
H55_8 H 1.0000 0.6396 0.2274
H56_4 H 0.9068 0.7396 0.2063
H59_4 H 0.9068 0.7604 0.2937
O27_4 O 0.94135(14) 0.5000 0.10818(14)
O29_4 O 0.89182(14) 0.05865(14) 0.5000
O30_4 O 0.89182(14) 0.94135(14) 0.5000
Zr3_3 Zr 0.5000 0.42465(3) 0.5000
O10_7 O 0.44135(14) 0.39182(14) 0.5000
C49_9 C 0.40533(17) 0.40533(17) 0.5000
C50_9 C 0.37240(16) 0.37240(16) 0.5000
C51_9 C 0.3834(2) 0.33129(19) 0.5000
H41_9 H 0.4115 0.3238 0.5000
C52_9 C 0.3530(2) 0.3008(2) 0.5000
H42_9 H 0.3604 0.2726 0.5000
C53_9 C 0.3124(2) 0.3124(2) 0.5000
C54_9 C 0.27967(18) 0.27967(18) 0.5000
C55_5 C 0.26505(7) 0.26505(7) 0.53718(17)
C56_5 C 0.2816(3) 0.2816(3) 0.5777(4)
H43_5 H 0.3019 0.3019 0.5719
H44_5 H 0.2604 0.2937 0.5932
C57_9 C 0.09467(17) 0.09467(17) 0.5000
C58_9 C 0.12760(16) 0.12760(16) 0.5000
C59_9 C 0.1166(2) 0.16871(19) 0.5000
H45_9 H 0.0885 0.1762 0.5000
C60_9 C 0.1470(2) 0.1992(2) 0.5000
H46_9 H 0.1396 0.2274 0.5000
C61_9 C 0.1876(2) 0.1876(2) 0.5000
C62_9 C 0.22033(18) 0.22033(18) 0.5000
C63_5 C 0.23495(7) 0.23495(7) 0.53718(17)
C64_5 C 0.2184(3) 0.2184(3) 0.5777(4)
H47_5 H 0.1981 0.1981 0.5719
H48_5 H 0.2396 0.2063 0.5932
O12_9 O 0.39182(14) 0.44135(14) 0.5000
C65_9 C 0.33129(19) 0.3834(2) 0.5000
H49_9 H 0.3238 0.4115 0.5000
C66_9 C 0.3008(2) 0.3530(2) 0.5000
H50_9 H 0.2726 0.3604 0.5000
C67_5 C 0.26505(7) 0.26505(7) 0.46282(17)
C68_5 C 0.2816(3) 0.2816(3) 0.4223(4)
H51_5 H 0.3019 0.3019 0.4281
H52_5 H 0.2937 0.2604 0.4068
H53_5 H 0.2604 0.2937 0.4068
C69_9 C 0.16871(19) 0.1166(2) 0.5000
H54_9 H 0.1762 0.0885 0.5000
C70_9 C 0.1992(2) 0.1470(2) 0.5000
H55_9 H 0.2274 0.1396 0.5000
H56_5 H 0.2063 0.2396 0.5932
C71_5 C 0.23495(7) 0.23495(7) 0.46282(17)
C72_5 C 0.2184(3) 0.2184(3) 0.4223(4)
H57_5 H 0.1981 0.1981 0.4281
H58_5 H 0.2396 0.2063 0.4068
H59_5 H 0.2937 0.2604 0.5932
H60_5 H 0.2063 0.2396 0.4068
Zr12_5 Zr 0.42465(3) 0.5000 0.5000
O18_3 O 0.46293(17) 0.46293(17) 0.46293(17)
O19_2 O 0.46293(17) 0.46293(17) 0.53707(17)
O21_3 O 0.53707(17) 0.46293(17) 0.46293(17)
O24_2 O 0.53707(17) 0.46293(17) 0.53707(17)
O25_7 O 0.55865(14) 0.39182(14) 0.5000
O29_5 O 0.5000 0.39182(14) 0.55865(14)
O30_5 O 0.5000 0.39182(14) 0.44135(14)
C1_7 C 0.09467(17) 0.90533(17) 0.5000
C2_7 C 0.12760(16) 0.87240(16) 0.5000
C3_7 C 0.16871(19) 0.8834(2) 0.5000
H1_7 H 0.1762 0.9115 0.5000
C4_7 C 0.1992(2) 0.8530(2) 0.5000
H2_7 H 0.2274 0.8604 0.5000
C5_7 C 0.1876(2) 0.8124(2) 0.5000
C6_7 C 0.22033(18) 0.77967(18) 0.5000
C7_4 C 0.23495(7) 0.76505(7) 0.53718(17)
C8_4 C 0.2184(3) 0.7816(3) 0.5777(4)
H3_4 H 0.1981 0.8019 0.5719
H4_4 H 0.2063 0.7604 0.5932
O3_7 O 0.39182(14) 0.55865(14) 0.5000
C9_7 C 0.40533(17) 0.59467(17) 0.5000
C10_7 C 0.37240(16) 0.62760(16) 0.5000
C11_7 C 0.33129(19) 0.6166(2) 0.5000
H5_7 H 0.3238 0.5885 0.5000
C12_7 C 0.3008(2) 0.6470(2) 0.5000
H6_7 H 0.2726 0.6396 0.5000
C13_7 C 0.3124(2) 0.6876(2) 0.5000
C14_7 C 0.27967(18) 0.72033(18) 0.5000
C15_4 C 0.26505(7) 0.73495(7) 0.53718(17)
C16_4 C 0.2816(3) 0.7184(3) 0.5777(4)
H7_4 H 0.3019 0.6981 0.5719
H8_4 H 0.2937 0.7396 0.5932
C17_7 C 0.1166(2) 0.83129(19) 0.5000
H9_7 H 0.0885 0.8238 0.5000
C18_7 C 0.1470(2) 0.8008(2) 0.5000
H10_7 H 0.1396 0.7726 0.5000
C19_4 C 0.23495(7) 0.76505(7) 0.46282(17)
C20_4 C 0.2184(3) 0.7816(3) 0.4223(4)
H11_4 H 0.1981 0.8019 0.4281
H12_4 H 0.2396 0.7937 0.4068
H13_4 H 0.2063 0.7604 0.4068
O5_7 O 0.44135(14) 0.60818(14) 0.5000
C21_7 C 0.3834(2) 0.66871(19) 0.5000
H14_7 H 0.4115 0.6762 0.5000
C22_7 C 0.3530(2) 0.6992(2) 0.5000
H15_7 H 0.3604 0.7274 0.5000
H16_4 H 0.2604 0.7063 0.5932
C23_4 C 0.26505(7) 0.73495(7) 0.46282(17)
C24_4 C 0.2816(3) 0.7184(3) 0.4223(4)
H17_4 H 0.3019 0.6981 0.4281
H18_4 H 0.2937 0.7396 0.4068
H19_4 H 0.2396 0.7937 0.5932
H20_4 H 0.2604 0.7063 0.4068
Zr2_3 Zr 0.5000 0.57535(3) 0.5000
O6_9 O 0.55865(14) 0.60818(14) 0.5000
C25_11 C 0.59467(17) 0.59467(17) 0.5000
C26_11 C 0.62760(16) 0.62760(16) 0.5000
C27_11 C 0.6166(2) 0.66871(19) 0.5000
H21_11 H 0.5885 0.6762 0.5000
C28_11 C 0.6470(2) 0.6992(2) 0.5000
H22_11 H 0.6396 0.7274 0.5000
C29_11 C 0.6876(2) 0.6876(2) 0.5000
C30_11 C 0.72033(18) 0.72033(18) 0.5000
C31_6 C 0.73495(7) 0.73495(7) 0.53718(17)
C32_6 C 0.7184(3) 0.7184(3) 0.5777(4)
H23_6 H 0.6981 0.6981 0.5719
H24_6 H 0.7396 0.7063 0.5932
C33_11 C 0.90533(17) 0.90533(17) 0.5000
C34_11 C 0.87240(16) 0.87240(16) 0.5000
C35_11 C 0.8834(2) 0.83129(19) 0.5000
H25_11 H 0.9115 0.8238 0.5000
C36_11 C 0.8530(2) 0.8008(2) 0.5000
H26_11 H 0.8604 0.7726 0.5000
C37_11 C 0.8124(2) 0.8124(2) 0.5000
C38_11 C 0.77967(18) 0.77967(18) 0.5000
C39_6 C 0.76505(7) 0.76505(7) 0.53718(17)
C40_6 C 0.7816(3) 0.7816(3) 0.5777(4)
H27_6 H 0.8019 0.8019 0.5719
H28_6 H 0.7604 0.7937 0.5932
O8_11 O 0.60818(14) 0.55865(14) 0.5000
C41_11 C 0.66871(19) 0.6166(2) 0.5000
H29_11 H 0.6762 0.5885 0.5000
C42_11 C 0.6992(2) 0.6470(2) 0.5000
H30_11 H 0.7274 0.6396 0.5000
C43_6 C 0.73495(7) 0.73495(7) 0.46282(17)
C44_6 C 0.7184(3) 0.7184(3) 0.4223(4)
H31_6 H 0.6981 0.6981 0.4281
H32_6 H 0.7063 0.7396 0.4068
H33_6 H 0.7396 0.7063 0.4068
C45_11 C 0.83129(19) 0.8834(2) 0.5000
H34_11 H 0.8238 0.9115 0.5000
C46_11 C 0.8008(2) 0.8530(2) 0.5000
H35_11 H 0.7726 0.8604 0.5000
H36_6 H 0.7937 0.7604 0.5932
C47_6 C 0.76505(7) 0.76505(7) 0.46282(17)
C48_6 C 0.7816(3) 0.7816(3) 0.4223(4)
H37_6 H 0.8019 0.8019 0.4281
H38_6 H 0.7604 0.7937 0.4068
H39_6 H 0.7063 0.7396 0.5932
H40_6 H 0.7937 0.7604 0.4068
Zr10_5 Zr 0.57535(3) 0.5000 0.5000
O17_4 O 0.53707(17) 0.53707(17) 0.46293(17)
O20_3 O 0.53707(17) 0.53707(17) 0.53707(17)
O22_4 O 0.46293(17) 0.53707(17) 0.46293(17)
O23_3 O 0.46293(17) 0.53707(17) 0.53707(17)
O28_5 O 0.5000 0.60818(14) 0.44135(14)
O31_5 O 0.5000 0.60818(14) 0.55865(14)
C25_12 C 0.90533(17) 0.09467(17) 0.5000
C26_12 C 0.87240(16) 0.12760(16) 0.5000
C27_12 C 0.83129(19) 0.1166(2) 0.5000
H21_12 H 0.8238 0.0885 0.5000
C28_12 C 0.8008(2) 0.1470(2) 0.5000
H22_12 H 0.7726 0.1396 0.5000
C29_12 C 0.8124(2) 0.1876(2) 0.5000
C30_12 C 0.77967(18) 0.22033(18) 0.5000
C31_7 C 0.76505(7) 0.23495(7) 0.53718(17)
C32_7 C 0.7816(3) 0.2184(3) 0.5777(4)
H23_7 H 0.8019 0.1981 0.5719
H24_7 H 0.7937 0.2396 0.5932
O7_11 O 0.60818(14) 0.44135(14) 0.5000
C33_12 C 0.59467(17) 0.40533(17) 0.5000
C34_12 C 0.62760(16) 0.37240(16) 0.5000
C35_12 C 0.66871(19) 0.3834(2) 0.5000
H25_12 H 0.6762 0.4115 0.5000
C36_12 C 0.6992(2) 0.3530(2) 0.5000
H26_12 H 0.7274 0.3604 0.5000
C37_12 C 0.6876(2) 0.3124(2) 0.5000
C38_12 C 0.72033(18) 0.27967(18) 0.5000
C39_7 C 0.73495(7) 0.26505(7) 0.53718(17)
C40_7 C 0.7184(3) 0.2816(3) 0.5777(4)
H27_7 H 0.6981 0.3019 0.5719
H28_7 H 0.7063 0.2604 0.5932
C41_12 C 0.8834(2) 0.16871(19) 0.5000
H29_12 H 0.9115 0.1762 0.5000
C42_12 C 0.8530(2) 0.1992(2) 0.5000
H30_12 H 0.8604 0.2274 0.5000
C43_7 C 0.76505(7) 0.23495(7) 0.46282(17)
C44_7 C 0.7816(3) 0.2184(3) 0.4223(4)
H31_7 H 0.8019 0.1981 0.4281
H32_7 H 0.7604 0.2063 0.4068
H33_7 H 0.7937 0.2396 0.4068
C45_12 C 0.6166(2) 0.33129(19) 0.5000
H34_12 H 0.5885 0.3238 0.5000
C46_12 C 0.6470(2) 0.3008(2) 0.5000
H35_12 H 0.6396 0.2726 0.5000
H36_7 H 0.7396 0.2937 0.5932
C47_7 C 0.73495(7) 0.26505(7) 0.46282(17)
C48_7 C 0.7184(3) 0.2816(3) 0.4223(4)
H37_7 H 0.6981 0.3019 0.4281
H38_7 H 0.7063 0.2604 0.4068
H39_7 H 0.7604 0.2063 0.5932
H40_7 H 0.7396 0.2937 0.4068
Zr5_7 Zr 0.5000 0.5000 0.42465(3)
Zr6_7 Zr 0.5000 0.5000 0.57535(3)
O10_8 O 0.44135(14) 0.5000 0.39182(14)
C49_10 C 0.40533(17) 0.5000 0.40533(17)
C50_10 C 0.37240(16) 0.5000 0.37240(16)
C51_10 C 0.3834(2) 0.5000 0.33129(19)
H41_10 H 0.4115 0.5000 0.3238
C52_10 C 0.3530(2) 0.5000 0.3008(2)
H42_10 H 0.3604 0.5000 0.2726
C53_10 C 0.3124(2) 0.5000 0.3124(2)
C54_10 C 0.27967(18) 0.5000 0.27967(18)
C55_6 C 0.26505(7) 0.46282(17) 0.26505(7)
C56_6 C 0.2816(3) 0.4223(4) 0.2816(3)
H43_6 H 0.3019 0.4281 0.3019
H44_6 H 0.2604 0.4068 0.2937
C57_10 C 0.09467(17) 0.5000 0.09467(17)
C58_10 C 0.12760(16) 0.5000 0.12760(16)
C59_10 C 0.1166(2) 0.5000 0.16871(19)
H45_10 H 0.0885 0.5000 0.1762
C60_10 C 0.1470(2) 0.5000 0.1992(2)
H46_10 H 0.1396 0.5000 0.2274
C61_10 C 0.1876(2) 0.5000 0.1876(2)
C62_10 C 0.22033(18) 0.5000 0.22033(18)
C63_6 C 0.23495(7) 0.46282(17) 0.23495(7)
C64_6 C 0.2184(3) 0.4223(4) 0.2184(3)
H47_6 H 0.1981 0.4281 0.1981
H48_6 H 0.2396 0.4068 0.2063
O12_10 O 0.39182(14) 0.5000 0.44135(14)
C65_10 C 0.33129(19) 0.5000 0.3834(2)
H49_10 H 0.3238 0.5000 0.4115
C66_10 C 0.3008(2) 0.5000 0.3530(2)
H50_10 H 0.2726 0.5000 0.3604
C67_6 C 0.26505(7) 0.53718(17) 0.26505(7)
C68_6 C 0.2816(3) 0.5777(4) 0.2816(3)
H51_6 H 0.3019 0.5719 0.3019
H52_6 H 0.2937 0.5932 0.2604
H53_6 H 0.2604 0.5932 0.2937
C69_10 C 0.16871(19) 0.5000 0.1166(2)
H54_10 H 0.1762 0.5000 0.0885
C70_10 C 0.1992(2) 0.5000 0.1470(2)
H55_10 H 0.2274 0.5000 0.1396
H56_6 H 0.2063 0.4068 0.2396
C71_6 C 0.23495(7) 0.53718(17) 0.23495(7)
C72_6 C 0.2184(3) 0.5777(4) 0.2184(3)
H57_6 H 0.1981 0.5719 0.1981
H58_6 H 0.2396 0.5932 0.2063
H59_6 H 0.2937 0.4068 0.2604
H60_6 H 0.2063 0.5932 0.2396
O25_8 O 0.55865(14) 0.5000 0.39182(14)
O29_6 O 0.5000 0.44135(14) 0.39182(14)
O30_6 O 0.5000 0.55865(14) 0.39182(14)
C1_8 C 0.09467(17) 0.5000 0.90533(17)
C2_8 C 0.12760(16) 0.5000 0.87240(16)
C3_8 C 0.16871(19) 0.5000 0.8834(2)
H1_8 H 0.1762 0.5000 0.9115
C4_8 C 0.1992(2) 0.5000 0.8530(2)
H2_8 H 0.2274 0.5000 0.8604
C5_8 C 0.1876(2) 0.5000 0.8124(2)
C6_8 C 0.22033(18) 0.5000 0.77967(18)
C7_5 C 0.23495(7) 0.46282(17) 0.76505(7)
C8_5 C 0.2184(3) 0.4223(4) 0.7816(3)
H3_5 H 0.1981 0.4281 0.8019
H4_5 H 0.2063 0.4068 0.7604
O3_8 O 0.39182(14) 0.5000 0.55865(14)
C9_8 C 0.40533(17) 0.5000 0.59467(17)
C10_8 C 0.37240(16) 0.5000 0.62760(16)
C11_8 C 0.33129(19) 0.5000 0.6166(2)
H5_8 H 0.3238 0.5000 0.5885
C12_8 C 0.3008(2) 0.5000 0.6470(2)
H6_8 H 0.2726 0.5000 0.6396
C13_8 C 0.3124(2) 0.5000 0.6876(2)
C14_8 C 0.27967(18) 0.5000 0.72033(18)
C15_5 C 0.26505(7) 0.46282(17) 0.73495(7)
C16_5 C 0.2816(3) 0.4223(4) 0.7184(3)
H7_5 H 0.3019 0.4281 0.6981
H8_5 H 0.2937 0.4068 0.7396
C17_8 C 0.1166(2) 0.5000 0.83129(19)
H9_8 H 0.0885 0.5000 0.8238
C18_8 C 0.1470(2) 0.5000 0.8008(2)
H10_8 H 0.1396 0.5000 0.7726
C19_5 C 0.23495(7) 0.53718(17) 0.76505(7)
C20_5 C 0.2184(3) 0.5777(4) 0.7816(3)
H11_5 H 0.1981 0.5719 0.8019
H12_5 H 0.2396 0.5932 0.7937
H13_5 H 0.2063 0.5932 0.7604
O5_8 O 0.44135(14) 0.5000 0.60818(14)
C21_8 C 0.3834(2) 0.5000 0.66871(19)
H14_8 H 0.4115 0.5000 0.6762
C22_8 C 0.3530(2) 0.5000 0.6992(2)
H15_8 H 0.3604 0.5000 0.7274
H16_5 H 0.2604 0.4068 0.7063
C23_5 C 0.26505(7) 0.53718(17) 0.73495(7)
C24_5 C 0.2816(3) 0.5777(4) 0.7184(3)
H17_5 H 0.3019 0.5719 0.6981
H18_5 H 0.2937 0.5932 0.7396
H19_5 H 0.2396 0.4068 0.7937
H20_5 H 0.2604 0.5932 0.7063
O6_10 O 0.55865(14) 0.5000 0.60818(14)
C25_13 C 0.59467(17) 0.5000 0.59467(17)
C26_13 C 0.62760(16) 0.5000 0.62760(16)
C27_13 C 0.6166(2) 0.5000 0.66871(19)
H21_13 H 0.5885 0.5000 0.6762
C28_13 C 0.6470(2) 0.5000 0.6992(2)
H22_13 H 0.6396 0.5000 0.7274
C29_13 C 0.6876(2) 0.5000 0.6876(2)
C30_13 C 0.72033(18) 0.5000 0.72033(18)
C31_8 C 0.73495(7) 0.46282(17) 0.73495(7)
C32_8 C 0.7184(3) 0.4223(4) 0.7184(3)
H23_8 H 0.6981 0.4281 0.6981
H24_8 H 0.7396 0.4068 0.7063
C33_13 C 0.90533(17) 0.5000 0.90533(17)
C34_13 C 0.87240(16) 0.5000 0.87240(16)
C35_13 C 0.8834(2) 0.5000 0.83129(19)
H25_13 H 0.9115 0.5000 0.8238
C36_13 C 0.8530(2) 0.5000 0.8008(2)
H26_13 H 0.8604 0.5000 0.7726
C37_13 C 0.8124(2) 0.5000 0.8124(2)
C38_13 C 0.77967(18) 0.5000 0.77967(18)
C39_8 C 0.76505(7) 0.46282(17) 0.76505(7)
C40_8 C 0.7816(3) 0.4223(4) 0.7816(3)
H27_8 H 0.8019 0.4281 0.8019
H28_8 H 0.7604 0.4068 0.7937
O8_12 O 0.60818(14) 0.5000 0.55865(14)
C41_13 C 0.66871(19) 0.5000 0.6166(2)
H29_13 H 0.6762 0.5000 0.5885
C42_13 C 0.6992(2) 0.5000 0.6470(2)
H30_13 H 0.7274 0.5000 0.6396
C43_8 C 0.73495(7) 0.53718(17) 0.73495(7)
C44_8 C 0.7184(3) 0.5777(4) 0.7184(3)
H31_8 H 0.6981 0.5719 0.6981
H32_8 H 0.7063 0.5932 0.7396
H33_8 H 0.7396 0.5932 0.7063
C45_13 C 0.83129(19) 0.5000 0.8834(2)
H34_13 H 0.8238 0.5000 0.9115
C46_13 C 0.8008(2) 0.5000 0.8530(2)
H35_13 H 0.7726 0.5000 0.8604
H36_8 H 0.7937 0.4068 0.7604
C47_8 C 0.76505(7) 0.53718(17) 0.76505(7)
C48_8 C 0.7816(3) 0.5777(4) 0.7816(3)
H37_8 H 0.8019 0.5719 0.8019
H38_8 H 0.7604 0.5932 0.7937
H39_8 H 0.7063 0.4068 0.7396
H40_8 H 0.7937 0.5932 0.7604
O28_6 O 0.5000 0.55865(14) 0.60818(14)
O31_6 O 0.5000 0.44135(14) 0.60818(14)
C25_14 C 0.59467(17) 0.5000 0.40533(17)
C26_14 C 0.62760(16) 0.5000 0.37240(16)
C27_14 C 0.6166(2) 0.5000 0.33129(19)
H21_14 H 0.5885 0.5000 0.3238
C28_14 C 0.6470(2) 0.5000 0.3008(2)
H22_14 H 0.6396 0.5000 0.2726
C29_14 C 0.6876(2) 0.5000 0.3124(2)
C30_14 C 0.72033(18) 0.5000 0.27967(18)
C31_9 C 0.73495(7) 0.53718(17) 0.26505(7)
C32_9 C 0.7184(3) 0.5777(4) 0.2816(3)
H23_9 H 0.6981 0.5719 0.3019
H24_9 H 0.7396 0.5932 0.2937
C33_14 C 0.90533(17) 0.5000 0.09467(17)
C34_14 C 0.87240(16) 0.5000 0.12760(16)
C35_14 C 0.8834(2) 0.5000 0.16871(19)
H25_14 H 0.9115 0.5000 0.1762
C36_14 C 0.8530(2) 0.5000 0.1992(2)
H26_14 H 0.8604 0.5000 0.2274
C37_14 C 0.8124(2) 0.5000 0.1876(2)
C38_14 C 0.77967(18) 0.5000 0.22033(18)
C39_9 C 0.76505(7) 0.53718(17) 0.23495(7)
C40_9 C 0.7816(3) 0.5777(4) 0.2184(3)
H27_9 H 0.8019 0.5719 0.1981
H28_9 H 0.7604 0.5932 0.2063
O8_13 O 0.60818(14) 0.5000 0.44135(14)
C41_14 C 0.66871(19) 0.5000 0.3834(2)
H29_14 H 0.6762 0.5000 0.4115
C42_14 C 0.6992(2) 0.5000 0.3530(2)
H30_14 H 0.7274 0.5000 0.3604
C43_9 C 0.73495(7) 0.46282(17) 0.26505(7)
C44_9 C 0.7184(3) 0.4223(4) 0.2816(3)
H31_9 H 0.6981 0.4281 0.3019
H32_9 H 0.7063 0.4068 0.2604
H33_9 H 0.7396 0.4068 0.2937
C45_14 C 0.83129(19) 0.5000 0.1166(2)
H34_14 H 0.8238 0.5000 0.0885
C46_14 C 0.8008(2) 0.5000 0.1470(2)
H35_14 H 0.7726 0.5000 0.1396
H36_9 H 0.7937 0.5932 0.2396
C47_9 C 0.76505(7) 0.46282(17) 0.23495(7)
C48_9 C 0.7816(3) 0.4223(4) 0.2184(3)
H37_9 H 0.8019 0.4281 0.1981
H38_9 H 0.7604 0.4068 0.2063
H39_9 H 0.7063 0.5932 0.2604
H40_9 H 0.7937 0.4068 0.2396
C1_9 C 0.5000 0.40533(17) 0.40533(17)
C2_9 C 0.5000 0.37240(16) 0.37240(16)
C3_9 C 0.5000 0.3834(2) 0.33129(19)
H1_9 H 0.5000 0.4115 0.3238
C4_9 C 0.5000 0.3530(2) 0.3008(2)
H2_9 H 0.5000 0.3604 0.2726
C5_9 C 0.5000 0.3124(2) 0.3124(2)
C6_9 C 0.5000 0.27967(18) 0.27967(18)
C7_6 C 0.53718(17) 0.26505(7) 0.26505(7)
C8_6 C 0.5777(4) 0.2816(3) 0.2816(3)
H3_6 H 0.5719 0.3019 0.3019
H4_6 H 0.5932 0.2604 0.2937
C9_9 C 0.5000 0.09467(17) 0.09467(17)
C10_9 C 0.5000 0.12760(16) 0.12760(16)
C11_9 C 0.5000 0.1166(2) 0.16871(19)
H5_9 H 0.5000 0.0885 0.1762
C12_9 C 0.5000 0.1470(2) 0.1992(2)
H6_9 H 0.5000 0.1396 0.2274
C13_9 C 0.5000 0.1876(2) 0.1876(2)
C14_9 C 0.5000 0.22033(18) 0.22033(18)
C15_6 C 0.53718(17) 0.23495(7) 0.23495(7)
C16_6 C 0.5777(4) 0.2184(3) 0.2184(3)
H7_6 H 0.5719 0.1981 0.1981
H8_6 H 0.5932 0.2396 0.2063
C17_9 C 0.5000 0.33129(19) 0.3834(2)
H9_9 H 0.5000 0.3238 0.4115
C18_9 C 0.5000 0.3008(2) 0.3530(2)
H10_9 H 0.5000 0.2726 0.3604
C19_6 C 0.46282(17) 0.26505(7) 0.26505(7)
C20_6 C 0.4223(4) 0.2816(3) 0.2816(3)
H11_6 H 0.4281 0.3019 0.3019
H12_6 H 0.4068 0.2937 0.2604
H13_6 H 0.4068 0.2604 0.2937
C21_9 C 0.5000 0.16871(19) 0.1166(2)
H14_9 H 0.5000 0.1762 0.0885
C22_9 C 0.5000 0.1992(2) 0.1470(2)
H15_9 H 0.5000 0.2274 0.1396
H16_6 H 0.5932 0.2063 0.2396
C23_6 C 0.46282(17) 0.23495(7) 0.23495(7)
C24_6 C 0.4223(4) 0.2184(3) 0.2184(3)
H17_6 H 0.4281 0.1981 0.1981
H18_6 H 0.4068 0.2396 0.2063
H19_6 H 0.5932 0.2937 0.2604
H20_6 H 0.4068 0.2063 0.2396
C49_11 C 0.5000 0.90533(17) 0.09467(17)
C50_11 C 0.5000 0.87240(16) 0.12760(16)
C51_11 C 0.5000 0.83129(19) 0.1166(2)
H41_11 H 0.5000 0.8238 0.0885
C52_11 C 0.5000 0.8008(2) 0.1470(2)
H42_11 H 0.5000 0.7726 0.1396
C53_11 C 0.5000 0.8124(2) 0.1876(2)
C54_11 C 0.5000 0.77967(18) 0.22033(18)
C55_7 C 0.53718(17) 0.76505(7) 0.23495(7)
C56_7 C 0.5777(4) 0.7816(3) 0.2184(3)
H43_7 H 0.5719 0.8019 0.1981
H44_7 H 0.5932 0.7937 0.2396
C57_11 C 0.5000 0.59467(17) 0.40533(17)
C58_11 C 0.5000 0.62760(16) 0.37240(16)
C59_11 C 0.5000 0.66871(19) 0.3834(2)
H45_11 H 0.5000 0.6762 0.4115
C60_11 C 0.5000 0.6992(2) 0.3530(2)
H46_11 H 0.5000 0.7274 0.3604
C61_11 C 0.5000 0.6876(2) 0.3124(2)
C62_11 C 0.5000 0.72033(18) 0.27967(18)
C63_7 C 0.53718(17) 0.73495(7) 0.26505(7)
C64_7 C 0.5777(4) 0.7184(3) 0.2816(3)
H47_7 H 0.5719 0.6981 0.3019
H48_7 H 0.5932 0.7063 0.2604
C65_11 C 0.5000 0.8834(2) 0.16871(19)
H49_11 H 0.5000 0.9115 0.1762
C66_11 C 0.5000 0.8530(2) 0.1992(2)
H50_11 H 0.5000 0.8604 0.2274
C67_7 C 0.46282(17) 0.76505(7) 0.23495(7)
C68_7 C 0.4223(4) 0.7816(3) 0.2184(3)
H51_7 H 0.4281 0.8019 0.1981
H52_7 H 0.4068 0.7604 0.2063
H53_7 H 0.4068 0.7937 0.2396
C69_11 C 0.5000 0.6166(2) 0.33129(19)
H54_11 H 0.5000 0.5885 0.3238
C70_11 C 0.5000 0.6470(2) 0.3008(2)
H55_11 H 0.5000 0.6396 0.2726
H56_7 H 0.5932 0.7396 0.2937
C71_7 C 0.46282(17) 0.73495(7) 0.26505(7)
C72_7 C 0.4223(4) 0.7184(3) 0.2816(3)
H57_7 H 0.4281 0.6981 0.3019
H58_7 H 0.4068 0.7063 0.2604
H59_7 H 0.5932 0.7604 0.2063
H60_7 H 0.4068 0.7396 0.2937
C25_15 C 0.5000 0.09467(17) 0.90533(17)
C26_15 C 0.5000 0.12760(16) 0.87240(16)
C27_15 C 0.5000 0.16871(19) 0.8834(2)
H21_15 H 0.5000 0.1762 0.9115
C28_15 C 0.5000 0.1992(2) 0.8530(2)
H22_15 H 0.5000 0.2274 0.8604
C29_15 C 0.5000 0.1876(2) 0.8124(2)
C30_15 C 0.5000 0.22033(18) 0.77967(18)
C31_10 C 0.53718(17) 0.23495(7) 0.76505(7)
C32_10 C 0.5777(4) 0.2184(3) 0.7816(3)
H23_10 H 0.5719 0.1981 0.8019
H24_10 H 0.5932 0.2063 0.7604
C33_15 C 0.5000 0.40533(17) 0.59467(17)
C34_15 C 0.5000 0.37240(16) 0.62760(16)
C35_15 C 0.5000 0.33129(19) 0.6166(2)
H25_15 H 0.5000 0.3238 0.5885
C36_15 C 0.5000 0.3008(2) 0.6470(2)
H26_15 H 0.5000 0.2726 0.6396
C37_15 C 0.5000 0.3124(2) 0.6876(2)
C38_15 C 0.5000 0.27967(18) 0.72033(18)
C39_10 C 0.53718(17) 0.26505(7) 0.73495(7)
C40_10 C 0.5777(4) 0.2816(3) 0.7184(3)
H27_10 H 0.5719 0.3019 0.6981
H28_10 H 0.5932 0.2937 0.7396
C41_15 C 0.5000 0.1166(2) 0.83129(19)
H29_15 H 0.5000 0.0885 0.8238
C42_15 C 0.5000 0.1470(2) 0.8008(2)
H30_15 H 0.5000 0.1396 0.7726
C43_10 C 0.46282(17) 0.23495(7) 0.76505(7)
C44_10 C 0.4223(4) 0.2184(3) 0.7816(3)
H31_10 H 0.4281 0.1981 0.8019
H32_10 H 0.4068 0.2396 0.7937
H33_10 H 0.4068 0.2063 0.7604
C45_15 C 0.5000 0.3834(2) 0.66871(19)
H34_15 H 0.5000 0.4115 0.6762
C46_15 C 0.5000 0.3530(2) 0.6992(2)
H35_15 H 0.5000 0.3604 0.7274
H36_10 H 0.5932 0.2604 0.7063
C47_10 C 0.46282(17) 0.26505(7) 0.73495(7)
C48_10 C 0.4223(4) 0.2816(3) 0.7184(3)
H37_10 H 0.4281 0.3019 0.6981
H38_10 H 0.4068 0.2937 0.7396
H39_10 H 0.5932 0.2396 0.7937
H40_10 H 0.4068 0.2604 0.7063
C49_12 C 0.5000 0.90533(17) 0.90533(17)
C50_12 C 0.5000 0.87240(16) 0.87240(16)
C51_12 C 0.5000 0.83129(19) 0.8834(2)
H41_12 H 0.5000 0.8238 0.9115
C52_12 C 0.5000 0.8008(2) 0.8530(2)
H42_12 H 0.5000 0.7726 0.8604
C53_12 C 0.5000 0.8124(2) 0.8124(2)
C54_12 C 0.5000 0.77967(18) 0.77967(18)
C55_8 C 0.46282(17) 0.76505(7) 0.76505(7)
C56_8 C 0.4223(4) 0.7816(3) 0.7816(3)
H43_8 H 0.4281 0.8019 0.8019
H44_8 H 0.4068 0.7937 0.7604
C57_12 C 0.5000 0.59467(17) 0.59467(17)
C58_12 C 0.5000 0.62760(16) 0.62760(16)
C59_12 C 0.5000 0.66871(19) 0.6166(2)
H45_12 H 0.5000 0.6762 0.5885
C60_12 C 0.5000 0.6992(2) 0.6470(2)
H46_12 H 0.5000 0.7274 0.6396
C61_12 C 0.5000 0.6876(2) 0.6876(2)
C62_12 C 0.5000 0.72033(18) 0.72033(18)
C63_8 C 0.46282(17) 0.73495(7) 0.73495(7)
C64_8 C 0.4223(4) 0.7184(3) 0.7184(3)
H47_8 H 0.4281 0.6981 0.6981
H48_8 H 0.4068 0.7063 0.7396
C65_12 C 0.5000 0.8834(2) 0.83129(19)
H49_12 H 0.5000 0.9115 0.8238
C66_12 C 0.5000 0.8530(2) 0.8008(2)
H50_12 H 0.5000 0.8604 0.7726
C67_8 C 0.53718(17) 0.76505(7) 0.76505(7)
C68_8 C 0.5777(4) 0.7816(3) 0.7816(3)
H51_8 H 0.5719 0.8019 0.8019
H52_8 H 0.5932 0.7604 0.7937
H53_8 H 0.5932 0.7937 0.7604
C69_12 C 0.5000 0.6166(2) 0.66871(19)
H54_12 H 0.5000 0.5885 0.6762
C70_12 C 0.5000 0.6470(2) 0.6992(2)
H55_12 H 0.5000 0.6396 0.7274
H56_8 H 0.4068 0.7396 0.7063
C71_8 C 0.53718(17) 0.73495(7) 0.73495(7)
C72_8 C 0.5777(4) 0.7184(3) 0.7184(3)
H57_8 H 0.5719 0.6981 0.6981
H58_8 H 0.5932 0.7063 0.7396
H59_8 H 0.4068 0.7604 0.7937
H60_8 H 0.5932 0.7396 0.7063
loop_
_geom_bond_atom_site_label_1
_geom_bond_atom_site_label_2
_geom_bond_site_symmetry_1
_geom_bond_site_symmetry_2
O2 Zr1 1_555 1_555
C1 O2 1_555 1_555
C2 C1 1_555 1_555
C3 C2 1_555 1_555
H1 C3 1_555 1_555
C4 C3 1_555 1_555
H2 C4 1_555 1_555
C5 C4 1_555 1_555
C6 C5 1_555 1_555
C7 C6 1_555 1_555
C8 C7 1_555 1_555
H3 C8 1_555 1_555
H4 C8 1_555 1_555
O3 C9 1_555 1_555
C9 C10 1_555 1_555
C10 C11 1_555 1_555
C11 H5 1_555 1_555
C12 C11 1_555 1_555
H6 C12 1_555 1_555
C13 C12 1_555 1_555
C14 C13 1_555 1_555
C15 C7 1_555 1_555
C16 C15 1_555 1_555
H7 C16 1_555 1_555
H8 C16 1_555 1_555
O4 C1 1_555 1_555
C17 C2 1_555 1_555
H9 C17 1_555 1_555
C18 C5 1_555 1_555
H10 C18 1_555 1_555
O5 C9 1_555 1_555
C21 C10 1_555 1_555
H14 C21 1_555 1_555
C22 C13 1_555 1_555
H15 C22 1_555 1_555
H16 C16 1_555 1_555
H19 C8 1_555 1_555
Zr2 O5 1_555 1_555
O6 Zr2 1_555 1_555
C25 O6 1_555 1_555
C26 C25 1_555 1_555
C27 C26 1_555 1_555
H21 C27 1_555 1_555
C28 C27 1_555 1_555
H22 C28 1_555 1_555
C29 C28 1_555 1_555
C30 C29 1_555 1_555
C31 C30 1_555 1_555
C32 C31 1_555 1_555
H23 C32 1_555 1_555
H24 C32 1_555 1_555
O7 C33 1_555 1_555
C33 C34 1_555 1_555
C34 C35 1_555 1_555
C35 H25 1_555 1_555
C36 C35 1_555 1_555
H26 C36 1_555 1_555
C37 C36 1_555 1_555
C38 C37 1_555 1_555
C39 C31 1_555 1_555
C40 C39 1_555 1_555
H27 C40 1_555 1_555
H28 C40 1_555 1_555
O8 C25 1_555 1_555
C41 C26 1_555 1_555
H29 C41 1_555 1_555
C42 C29 1_555 1_555
H30 C42 1_555 1_555
O9 C33 1_555 1_555
C45 C34 1_555 1_555
H34 C45 1_555 1_555
C46 C37 1_555 1_555
H35 C46 1_555 1_555
H36 C40 1_555 1_555
H39 C32 1_555 1_555
Zr3 O10 1_555 1_555
O10 C49 1_555 1_555
C49 C50 1_555 1_555
C50 C51 1_555 1_555
C51 H41 1_555 1_555
C52 C51 1_555 1_555
H42 C52 1_555 1_555
C53 C52 1_555 1_555
C54 C53 1_555 1_555
C55 C54 1_555 1_555
C56 C55 1_555 1_555
H43 C56 1_555 1_555
H44 C56 1_555 1_555
O11 C57 1_555 1_555
C57 C58 1_555 1_555
C58 C59 1_555 1_555
C59 H45 1_555 1_555
C60 C59 1_555 1_555
H46 C60 1_555 1_555
C61 C60 1_555 1_555
C62 C61 1_555 1_555
C63 C55 1_555 1_555
C64 C63 1_555 1_555
H47 C64 1_555 1_555
H48 C64 1_555 1_555
O12 C49 1_555 1_555
C65 C50 1_555 1_555
H49 C65 1_555 1_555
C66 C53 1_555 1_555
H50 C66 1_555 1_555
O13 Zr1 1_555 1_555
C69 C58 1_555 1_555
H54 C69 1_555 1_555
C70 C61 1_555 1_555
H55 C70 1_555 1_555
H56 C64 1_555 1_555
H59 C56 1_555 1_555
O14 Zr1 1_555 1_555
O16 Zr1 1_555 1_555
Zr4 O9 1_555 1_555
Zr6 O14 1_555 1_555
Zr7 O11 1_555 1_555
Zr9_3 O7 1_555 1_555
Zr10 O8 1_555 1_555
Zr12 O3 1_555 1_555
Zr12_3 O12 1_555 1_555
O19 Zr3 1_555 1_555
O20 Zr2 1_555 1_555
O23 Zr2 1_555 1_555
O24 Zr3 1_555 1_555
O25 Zr3 1_555 1_555
O27 Zr1 1_555 1_555
O29 Zr3 1_555 1_555
O31 Zr2 1_555 1_555
C14 C15 1_555 1_555
O4 Zr9 1_555 1_555
C17 C18 1_555 1_555
C21 C22 1_555 1_555
C38 C39 1_555 1_555
C41 C42 1_555 1_555
C45 C46 1_555 1_555
C57 O13 1_555 1_555
C62 C63 1_555 1_555
C65 C66 1_555 1_555
C69 C70 1_555 1_555
O14 Zr7 1_555 1_555
O16 Zr6 1_555 1_555
O16 Zr9 1_555 1_555
Zr10 O20 1_555 1_555
Zr12 O23 1_555 1_555
Zr12_3 O19 1_555 1_555
Zr1_2 O1 1_555 1_555
O1 Zr5 1_555 1_555
O2_2 Zr1_2 1_555 1_555
C1_2 O2_2 1_555 1_555
C2_2 C1_2 1_555 1_555
C3_2 C2_2 1_555 1_555
H1_2 C3_2 1_555 1_555
C4_2 C3_2 1_555 1_555
H2_2 C4_2 1_555 1_555
C5_2 C4_2 1_555 1_555
C6_2 C5_2 1_555 1_555
O3_2 C9_2 1_555 1_555
C9_2 C10_2 1_555 1_555
C10_2 C11_2 1_555 1_555
C11_2 H5_2 1_555 1_555
C12_2 C11_2 1_555 1_555
H6_2 C12_2 1_555 1_555
C13_2 C12_2 1_555 1_555
C14_2 C13_2 1_555 1_555
O4_2 C1_2 1_555 1_555
C17_2 C2_2 1_555 1_555
H9_2 C17_2 1_555 1_555
C18_2 C5_2 1_555 1_555
H10_2 C18_2 1_555 1_555
C19 C6_2 1_555 1_555
C20 C19 1_555 1_555
H11 C20 1_555 1_555
H12 C20 1_555 1_555
H13 C20 1_555 1_555
O5_2 C9_2 1_555 1_555
C21_2 C10_2 1_555 1_555
H14_2 C21_2 1_555 1_555
C22_2 C13_2 1_555 1_555
H15_2 C22_2 1_555 1_555
C23 C14_2 1_555 1_555
C24 C23 1_555 1_555
H17 C24 1_555 1_555
H18 C24 1_555 1_555
H20 C24 1_555 1_555
Zr2_2 O5_2 1_555 1_555
O6_2 Zr2_2 1_555 1_555
C25_2 O6_2 1_555 1_555
C26_2 C25_2 1_555 1_555
C27_2 C26_2 1_555 1_555
H21_2 C27_2 1_555 1_555
C28_2 C27_2 1_555 1_555
H22_2 C28_2 1_555 1_555
C29_2 C28_2 1_555 1_555
C30_2 C29_2 1_555 1_555
O7_2 C33_2 1_555 1_555
C33_2 C34_2 1_555 1_555
C34_2 C35_2 1_555 1_555
C35_2 H25_2 1_555 1_555
C36_2 C35_2 1_555 1_555
H26_2 C36_2 1_555 1_555
C37_2 C36_2 1_555 1_555
C38_2 C37_2 1_555 1_555
O8_2 C25_2 1_555 1_555
C41_2 C26_2 1_555 1_555
H29_2 C41_2 1_555 1_555
C42_2 C29_2 1_555 1_555
H30_2 C42_2 1_555 1_555
C43 C30_2 1_555 1_555
C44 C43 1_555 1_555
H31 C44 1_555 1_555
H32 C44 1_555 1_555
H33 C44 1_555 1_555
O9_2 C33_2 1_555 1_555
C45_2 C34_2 1_555 1_555
H34_2 C45_2 1_555 1_555
C46_2 C37_2 1_555 1_555
H35_2 C46_2 1_555 1_555
C47 C38_2 1_555 1_555
C48 C47 1_555 1_555
H37 C48 1_555 1_555
H38 C48 1_555 1_555
H40 C48 1_555 1_555
Zr3_2 O10_2 1_555 1_555
O10_2 C49_2 1_555 1_555
C49_2 C50_2 1_555 1_555
C50_2 C51_2 1_555 1_555
C51_2 H41_2 1_555 1_555
C52_2 C51_2 1_555 1_555
H42_2 C52_2 1_555 1_555
C53_2 C52_2 1_555 1_555
C54_2 C53_2 1_555 1_555
O11_2 C57_2 1_555 1_555
C57_2 C58_2 1_555 1_555
C58_2 C59_2 1_555 1_555
C59_2 H45_2 1_555 1_555
C60_2 C59_2 1_555 1_555
H46_2 C60_2 1_555 1_555
C61_2 C60_2 1_555 1_555
C62_2 C61_2 1_555 1_555
O12_2 C49_2 1_555 1_555
C65_2 C50_2 1_555 1_555
H49_2 C65_2 1_555 1_555
C66_2 C53_2 1_555 1_555
H50_2 C66_2 1_555 1_555
C67 C54_2 1_555 1_555
C68 C67 1_555 1_555
H51 C68 1_555 1_555
H52 C68 1_555 1_555
H53 C68 1_555 1_555
O13_2 Zr1_2 1_555 1_555
C69_2 C58_2 1_555 1_555
H54_2 C69_2 1_555 1_555
C70_2 C61_2 1_555 1_555
H55_2 C70_2 1_555 1_555
C71 C62_2 1_555 1_555
C72 C71 1_555 1_555
H57 C72 1_555 1_555
H58 C72 1_555 1_555
H60 C72 1_555 1_555
O15 Zr1_2 1_555 1_555
Zr4_2 O9_2 1_555 1_555
Zr5 O15 1_555 1_555
Zr7_2 O11_2 1_555 1_555
Zr9_2 O1 1_555 1_555
Zr9_4 O7_2 1_555 1_555
Zr10_2 O8_2 1_555 1_555
Zr12_2 O3_2 1_555 1_555
Zr12_4 O12_2 1_555 1_555
O17 Zr2_2 1_555 1_555
O18 Zr3_2 1_555 1_555
O21 Zr3_2 1_555 1_555
O22 Zr2_2 1_555 1_555
O25_2 Zr3_2 1_555 1_555
O26 Zr1_2 1_555 1_555
O28 Zr2_2 1_555 1_555
O30 Zr3_2 1_555 1_555
O4_2 Zr9_2 1_555 1_555
C17_2 C18_2 1_555 1_555
C19 C23 1_555 1_555
C21_2 C22_2 1_555 1_555
C41_2 C42_2 1_555 1_555
C43 C47 1_555 1_555
C45_2 C46_2 1_555 1_555
C57_2 O13_2 1_555 1_555
C65_2 C66_2 1_555 1_555
C67 C71 1_555 1_555
C69_2 C70_2 1_555 1_555
O15 Zr7_2 1_555 1_555
Zr10_2 O17 1_555 1_555
Zr12_2 O22 1_555 1_555
Zr12_4 O18 1_555 1_555
O6_3 Zr4 1_555 1_555
C25_3 O6_3 1_555 1_555
C26_3 C25_3 1_555 1_555
C27_3 C26_3 1_555 1_555
H21_3 C27_3 1_555 1_555
C28_3 C27_3 1_555 1_555
H22_3 C28_3 1_555 1_555
C29_3 C28_3 1_555 1_555
C30_3 C29_3 1_555 1_555
C31_2 C30_3 1_555 1_555
C32_2 C31_2 1_555 1_555
H23_2 C32_2 1_555 1_555
H24_2 C32_2 1_555 1_555
O7_3 C33_3 1_555 1_555
C33_3 C34_3 1_555 1_555
C34_3 C35_3 1_555 1_555
C35_3 H25_3 1_555 1_555
C36_3 C35_3 1_555 1_555
H26_3 C36_3 1_555 1_555
C37_3 C36_3 1_555 1_555
C38_3 C37_3 1_555 1_555
C39_2 C31_2 1_555 1_555
C40_2 C39_2 1_555 1_555
H27_2 C40_2 1_555 1_555
H28_2 C40_2 1_555 1_555
O8_3 C25_3 1_555 1_555
C41_3 C26_3 1_555 1_555
H29_3 C41_3 1_555 1_555
C42_3 C29_3 1_555 1_555
H30_3 C42_3 1_555 1_555
O25 C33_3 1_555 1_555
C45_3 C34_3 1_555 1_555
H34_3 C45_3 1_555 1_555
C46_3 C37_3 1_555 1_555
H35_3 C46_3 1_555 1_555
H36_2 C40_2 1_555 1_555
H39_2 C32_2 1_555 1_555
Zr6_3 O23 1_555 1_555
Zr10_3 O7_3 1_555 1_555
Zr7_3 O8_3 1_555 1_555
O20_2 Zr4 1_555 1_555
O23_2 Zr4 1_555 1_555
O31_2 Zr4 1_555 1_555
C38_3 C39_2 1_555 1_555
C41_3 C42_3 1_555 1_555
C45_3 C46_3 1_555 1_555
O20 Zr6_3 1_555 1_555
Zr7_3 O20_2 1_555 1_555
Zr9_3 O23_2 1_555 1_555
O17 Zr5_3 1_555 1_555
O6_4 Zr4_2 1_555 1_555
C25_4 O6_4 1_555 1_555
C26_4 C25_4 1_555 1_555
C27_4 C26_4 1_555 1_555
H21_4 C27_4 1_555 1_555
C28_4 C27_4 1_555 1_555
H22_4 C28_4 1_555 1_555
C29_4 C28_4 1_555 1_555
C30_4 C29_4 1_555 1_555
O7_4 C33_4 1_555 1_555
C33_4 C34_4 1_555 1_555
C34_4 C35_4 1_555 1_555
C35_4 H25_4 1_555 1_555
C36_4 C35_4 1_555 1_555
H26_4 C36_4 1_555 1_555
C37_4 C36_4 1_555 1_555
C38_4 C37_4 1_555 1_555
O8_4 C25_4 1_555 1_555
C41_4 C26_4 1_555 1_555
H29_4 C41_4 1_555 1_555
C42_4 C29_4 1_555 1_555
H30_4 C42_4 1_555 1_555
C43_2 C30_4 1_555 1_555
C44_2 C43_2 1_555 1_555
H31_2 C44_2 1_555 1_555
H32_2 C44_2 1_555 1_555
H33_2 C44_2 1_555 1_555
O25_2 C33_4 1_555 1_555
C45_4 C34_4 1_555 1_555
H34_4 C45_4 1_555 1_555
C46_4 C37_4 1_555 1_555
H35_4 C46_4 1_555 1_555
C47_2 C38_4 1_555 1_555
C48_2 C47_2 1_555 1_555
H37_2 C48_2 1_555 1_555
H38_2 C48_2 1_555 1_555
H40_2 C48_2 1_555 1_555
Zr5_3 O22 1_555 1_555
Zr10_4 O7_4 1_555 1_555
Zr7_4 O8_4 1_555 1_555
O17_2 Zr4_2 1_555 1_555
O22_2 Zr4_2 1_555 1_555
O28_2 Zr4_2 1_555 1_555
C41_4 C42_4 1_555 1_555
C43_2 C47_2 1_555 1_555
C45_4 C46_4 1_555 1_555
Zr7_4 O17_2 1_555 1_555
Zr9_4 O22_2 1_555 1_555
Zr6_2 O23_2 1_555 1_555
O20_2 Zr6_2 1_555 1_555
Zr10_3 O24 1_555 1_555
O17_2 Zr5_2 1_555 1_555
Zr5_2 O22_2 1_555 1_555
Zr10_4 O21 1_555 1_555
Zr6_4 O24 1_555 1_555
O19 Zr6_4 1_555 1_555
O18 Zr5_4 1_555 1_555
Zr5_4 O21 1_555 1_555
Zr1_3 O1_2 1_555 1_555
O1_2 Zr5_5 1_555 1_555
O2_3 Zr1_3 1_555 1_555
C1_3 O2_3 1_555 1_555
C2_3 C1_3 1_555 1_555
C3_3 C2_3 1_555 1_555
H1_3 C3_3 1_555 1_555
C4_3 C3_3 1_555 1_555
H2_3 C4_3 1_555 1_555
C5_3 C4_3 1_555 1_555
C6_3 C5_3 1_555 1_555
O3_3 C9_3 1_555 1_555
C9_3 C10_3 1_555 1_555
C10_3 C11_3 1_555 1_555
C11_3 H5_3 1_555 1_555
C12_3 C11_3 1_555 1_555
H6_3 C12_3 1_555 1_555
C13_3 C12_3 1_555 1_555
C14_3 C13_3 1_555 1_555
O4_3 C1_3 1_555 1_555
C17_3 C2_3 1_555 1_555
H9_3 C17_3 1_555 1_555
C18_3 C5_3 1_555 1_555
H10_3 C18_3 1_555 1_555
C19_2 C6_3 1_555 1_555
C20_2 C19_2 1_555 1_555
H11_2 C20_2 1_555 1_555
H12_2 C20_2 1_555 1_555
H13_2 C20_2 1_555 1_555
O5_3 C9_3 1_555 1_555
C21_3 C10_3 1_555 1_555
H14_3 C21_3 1_555 1_555
C22_3 C13_3 1_555 1_555
H15_3 C22_3 1_555 1_555
C23_2 C14_3 1_555 1_555
C24_2 C23_2 1_555 1_555
H17_2 C24_2 1_555 1_555
H18_2 C24_2 1_555 1_555
H20_2 C24_2 1_555 1_555
Zr6_3 O5_3 1_555 1_555
O6_5 Zr6_3 1_555 1_555
C25_5 O6_5 1_555 1_555
C26_5 C25_5 1_555 1_555
C27_5 C26_5 1_555 1_555
H21_5 C27_5 1_555 1_555
C28_5 C27_5 1_555 1_555
H22_5 C28_5 1_555 1_555
C29_5 C28_5 1_555 1_555
C30_5 C29_5 1_555 1_555
O7_5 C33_5 1_555 1_555
C33_5 C34_5 1_555 1_555
C34_5 C35_5 1_555 1_555
C35_5 H25_5 1_555 1_555
C36_5 C35_5 1_555 1_555
H26_5 C36_5 1_555 1_555
C37_5 C36_5 1_555 1_555
C38_5 C37_5 1_555 1_555
O8_5 C25_5 1_555 1_555
C41_5 C26_5 1_555 1_555
H29_5 C41_5 1_555 1_555
C42_5 C29_5 1_555 1_555
H30_5 C42_5 1_555 1_555
C43_3 C30_5 1_555 1_555
C44_3 C43_3 1_555 1_555
H31_3 C44_3 1_555 1_555
H32_3 C44_3 1_555 1_555
H33_3 C44_3 1_555 1_555
O9_3 C33_5 1_555 1_555
C45_5 C34_5 1_555 1_555
H34_5 C45_5 1_555 1_555
C46_5 C37_5 1_555 1_555
H35_5 C46_5 1_555 1_555
C47_3 C38_5 1_555 1_555
C48_3 C47_3 1_555 1_555
H37_3 C48_3 1_555 1_555
H38_3 C48_3 1_555 1_555
H40_3 C48_3 1_555 1_555
Zr5_3 O10_3 1_555 1_555
O10_3 C49_3 1_555 1_555
C49_3 C50_3 1_555 1_555
C50_3 C51_3 1_555 1_555
C51_3 H41_3 1_555 1_555
C52_3 C51_3 1_555 1_555
H42_3 C52_3 1_555 1_555
C53_3 C52_3 1_555 1_555
C54_3 C53_3 1_555 1_555
O11_3 C57_3 1_555 1_555
C57_3 C58_3 1_555 1_555
C58_3 C59_3 1_555 1_555
C59_3 H45_3 1_555 1_555
C60_3 C59_3 1_555 1_555
H46_3 C60_3 1_555 1_555
C61_3 C60_3 1_555 1_555
C62_3 C61_3 1_555 1_555
O12_3 C49_3 1_555 1_555
C65_3 C50_3 1_555 1_555
H49_3 C65_3 1_555 1_555
C66_3 C53_3 1_555 1_555
H50_3 C66_3 1_555 1_555
C67_2 C54_3 1_555 1_555
C68_2 C67_2 1_555 1_555
H51_2 C68_2 1_555 1_555
H52_2 C68_2 1_555 1_555
H53_2 C68_2 1_555 1_555
O13_3 Zr1_3 1_555 1_555
C69_3 C58_3 1_555 1_555
H54_3 C69_3 1_555 1_555
C70_3 C61_3 1_555 1_555
H55_3 C70_3 1_555 1_555
C71_2 C62_3 1_555 1_555
C72_2 C71_2 1_555 1_555
H57_2 C72_2 1_555 1_555
H58_2 C72_2 1_555 1_555
H60_2 C72_2 1_555 1_555
O15_2 Zr1_3 1_555 1_555
Zr4_3 O9_3 1_555 1_555
Zr5_5 O15_2 1_555 1_555
Zr7_5 O11_3 1_555 1_555
Zr9_5 O1_2 1_555 1_555
Zr9_7 O7_5 1_555 1_555
Zr10 O8_5 1_555 1_555
Zr12 O3_3 1_555 1_555
Zr12_2 O12_3 1_555 1_555
O25_3 Zr5_3 1_555 1_555
O26_2 Zr1_3 1_555 1_555
O28_3 Zr6_3 1_555 1_555
O30_2 Zr5_3 1_555 1_555
O4_3 Zr9_5 1_555 1_555
C17_3 C18_3 1_555 1_555
C19_2 C23_2 1_555 1_555
C21_3 C22_3 1_555 1_555
C41_5 C42_5 1_555 1_555
C43_3 C47_3 1_555 1_555
C45_5 C46_5 1_555 1_555
C57_3 O13_3 1_555 1_555
C65_3 C66_3 1_555 1_555
C67_2 C71_2 1_555 1_555
C69_3 C70_3 1_555 1_555
O15_2 Zr7_5 1_555 1_555
O2_4 Zr1_4 1_555 1_555
C1_4 O2_4 1_555 1_555
C2_4 C1_4 1_555 1_555
C3_4 C2_4 1_555 1_555
H1_4 C3_4 1_555 1_555
C4_4 C3_4 1_555 1_555
H2_4 C4_4 1_555 1_555
C5_4 C4_4 1_555 1_555
C6_4 C5_4 1_555 1_555
C7_2 C6_4 1_555 1_555
C8_2 C7_2 1_555 1_555
H3_2 C8_2 1_555 1_555
H4_2 C8_2 1_555 1_555
O3_4 C9_4 1_555 1_555
C9_4 C10_4 1_555 1_555
C10_4 C11_4 1_555 1_555
C11_4 H5_4 1_555 1_555
C12_4 C11_4 1_555 1_555
H6_4 C12_4 1_555 1_555
C13_4 C12_4 1_555 1_555
C14_4 C13_4 1_555 1_555
C15_2 C7_2 1_555 1_555
C16_2 C15_2 1_555 1_555
H7_2 C16_2 1_555 1_555
H8_2 C16_2 1_555 1_555
O4_4 C1_4 1_555 1_555
C17_4 C2_4 1_555 1_555
H9_4 C17_4 1_555 1_555
C18_4 C5_4 1_555 1_555
H10_4 C18_4 1_555 1_555
O5_4 C9_4 1_555 1_555
C21_4 C10_4 1_555 1_555
H14_4 C21_4 1_555 1_555
C22_4 C13_4 1_555 1_555
H15_4 C22_4 1_555 1_555
H16_2 C16_2 1_555 1_555
H19_2 C8_2 1_555 1_555
Zr6_4 O5_4 1_555 1_555
O6_6 Zr6_4 1_555 1_555
C25_6 O6_6 1_555 1_555
C26_6 C25_6 1_555 1_555
C27_6 C26_6 1_555 1_555
H21_6 C27_6 1_555 1_555
C28_6 C27_6 1_555 1_555
H22_6 C28_6 1_555 1_555
C29_6 C28_6 1_555 1_555
C30_6 C29_6 1_555 1_555
C31_3 C30_6 1_555 1_555
C32_3 C31_3 1_555 1_555
H23_3 C32_3 1_555 1_555
H24_3 C32_3 1_555 1_555
O7_6 C33_6 1_555 1_555
C33_6 C34_6 1_555 1_555
C34_6 C35_6 1_555 1_555
C35_6 H25_6 1_555 1_555
C36_6 C35_6 1_555 1_555
H26_6 C36_6 1_555 1_555
C37_6 C36_6 1_555 1_555
C38_6 C37_6 1_555 1_555
C39_3 C31_3 1_555 1_555
C40_3 C39_3 1_555 1_555
H27_3 C40_3 1_555 1_555
H28_3 C40_3 1_555 1_555
O8_6 C25_6 1_555 1_555
C41_6 C26_6 1_555 1_555
H29_6 C41_6 1_555 1_555
C42_6 C29_6 1_555 1_555
H30_6 C42_6 1_555 1_555
O9_4 C33_6 1_555 1_555
C45_6 C34_6 1_555 1_555
H34_6 C45_6 1_555 1_555
C46_6 C37_6 1_555 1_555
H35_6 C46_6 1_555 1_555
H36_3 C40_3 1_555 1_555
H39_3 C32_3 1_555 1_555
Zr5_4 O10_4 1_555 1_555
O10_4 C49_4 1_555 1_555
C49_4 C50_4 1_555 1_555
C50_4 C51_4 1_555 1_555
C51_4 H41_4 1_555 1_555
C52_4 C51_4 1_555 1_555
H42_4 C52_4 1_555 1_555
C53_4 C52_4 1_555 1_555
C54_4 C53_4 1_555 1_555
C55_2 C54_4 1_555 1_555
C56_2 C55_2 1_555 1_555
H43_2 C56_2 1_555 1_555
H44_2 C56_2 1_555 1_555
O11_4 C57_4 1_555 1_555
C57_4 C58_4 1_555 1_555
C58_4 C59_4 1_555 1_555
C59_4 H45_4 1_555 1_555
C60_4 C59_4 1_555 1_555
H46_4 C60_4 1_555 1_555
C61_4 C60_4 1_555 1_555
C62_4 C61_4 1_555 1_555
C63_2 C55_2 1_555 1_555
C64_2 C63_2 1_555 1_555
H47_2 C64_2 1_555 1_555
H48_2 C64_2 1_555 1_555
O12_4 C49_4 1_555 1_555
C65_4 C50_4 1_555 1_555
H49_4 C65_4 1_555 1_555
C66_4 C53_4 1_555 1_555
H50_4 C66_4 1_555 1_555
O13_4 Zr1_4 1_555 1_555
C69_4 C58_4 1_555 1_555
H54_4 C69_4 1_555 1_555
C70_4 C61_4 1_555 1_555
H55_4 C70_4 1_555 1_555
H56_2 C64_2 1_555 1_555
H59_2 C56_2 1_555 1_555
O14_2 Zr1_4 1_555 1_555
O16_2 Zr1_4 1_555 1_555
Zr4_4 O9_4 1_555 1_555
Zr6_5 O14_2 1_555 1_555
Zr7_6 O11_4 1_555 1_555
Zr9_8 O7_6 1_555 1_555
Zr10_3 O8_6 1_555 1_555
Zr12_3 O3_4 1_555 1_555
Zr12_4 O12_4 1_555 1_555
O25_4 Zr5_4 1_555 1_555
O27_2 Zr1_4 1_555 1_555
O29_2 Zr5_4 1_555 1_555
O31_3 Zr6_4 1_555 1_555
C14_4 C15_2 1_555 1_555
O4_4 Zr9_6 1_555 1_555
C17_4 C18_4 1_555 1_555
C21_4 C22_4 1_555 1_555
C38_6 C39_3 1_555 1_555
C41_6 C42_6 1_555 1_555
C45_6 C46_6 1_555 1_555
C57_4 O13_4 1_555 1_555
C62_4 C63_2 1_555 1_555
C65_4 C66_4 1_555 1_555
C69_4 C70_4 1_555 1_555
O14_2 Zr7_6 1_555 1_555
O16_2 Zr6_5 1_555 1_555
O16_2 Zr9_6 1_555 1_555
C25_7 O25_3 1_555 1_555
C26_7 C25_7 1_555 1_555
C27_7 C26_7 1_555 1_555
H21_7 C27_7 1_555 1_555
C28_7 C27_7 1_555 1_555
H22_7 C28_7 1_555 1_555
C29_7 C28_7 1_555 1_555
C30_7 C29_7 1_555 1_555
C31_4 C30_7 1_555 1_555
C32_4 C31_4 1_555 1_555
H23_4 C32_4 1_555 1_555
H24_4 C32_4 1_555 1_555
O7_7 C33_7 1_555 1_555
C33_7 C34_7 1_555 1_555
C34_7 C35_7 1_555 1_555
C35_7 H25_7 1_555 1_555
C36_7 C35_7 1_555 1_555
H26_7 C36_7 1_555 1_555
C37_7 C36_7 1_555 1_555
C38_7 C37_7 1_555 1_555
C39_4 C31_4 1_555 1_555
C40_4 C39_4 1_555 1_555
H27_4 C40_4 1_555 1_555
H28_4 C40_4 1_555 1_555
O8_7 C25_7 1_555 1_555
C41_7 C26_7 1_555 1_555
H29_7 C41_7 1_555 1_555
C42_7 C29_7 1_555 1_555
H30_7 C42_7 1_555 1_555
O9_5 C33_7 1_555 1_555
C45_7 C34_7 1_555 1_555
H34_7 C45_7 1_555 1_555
C46_7 C37_7 1_555 1_555
H35_7 C46_7 1_555 1_555
H36_4 C40_4 1_555 1_555
H39_4 C32_4 1_555 1_555
Zr4_3 O9_5 1_555 1_555
Zr7_7 O7_7 1_555 1_555
Zr10_2 O8_7 1_555 1_555
C38_7 C39_4 1_555 1_555
C41_7 C42_7 1_555 1_555
C45_7 C46_7 1_555 1_555
C25_8 O25_4 1_555 1_555
C26_8 C25_8 1_555 1_555
C27_8 C26_8 1_555 1_555
H21_8 C27_8 1_555 1_555
C28_8 C27_8 1_555 1_555
H22_8 C28_8 1_555 1_555
C29_8 C28_8 1_555 1_555
C30_8 C29_8 1_555 1_555
O7_8 C33_8 1_555 1_555
C33_8 C34_8 1_555 1_555
C34_8 C35_8 1_555 1_555
C35_8 H25_8 1_555 1_555
C36_8 C35_8 1_555 1_555
H26_8 C36_8 1_555 1_555
C37_8 C36_8 1_555 1_555
C38_8 C37_8 1_555 1_555
O8_8 C25_8 1_555 1_555
C41_8 C26_8 1_555 1_555
H29_8 C41_8 1_555 1_555
C42_8 C29_8 1_555 1_555
H30_8 C42_8 1_555 1_555
C43_4 C30_8 1_555 1_555
C44_4 C43_4 1_555 1_555
H31_4 C44_4 1_555 1_555
H32_4 C44_4 1_555 1_555
H33_4 C44_4 1_555 1_555
O9_6 C33_8 1_555 1_555
C45_8 C34_8 1_555 1_555
H34_8 C45_8 1_555 1_555
C46_8 C37_8 1_555 1_555
H35_8 C46_8 1_555 1_555
C47_4 C38_8 1_555 1_555
C48_4 C47_4 1_555 1_555
H37_4 C48_4 1_555 1_555
H38_4 C48_4 1_555 1_555
H40_4 C48_4 1_555 1_555
Zr4_4 O9_6 1_555 1_555
Zr7_8 O7_8 1_555 1_555
Zr10_4 O8_8 1_555 1_555
C41_8 C42_8 1_555 1_555
C43_4 C47_4 1_555 1_555
C45_8 C46_8 1_555 1_555
O2_5 Zr5 1_555 1_555
C1_5 O2_5 1_555 1_555
C2_5 C1_5 1_555 1_555
C3_5 C2_5 1_555 1_555
H1_5 C3_5 1_555 1_555
C4_5 C3_5 1_555 1_555
H2_5 C4_5 1_555 1_555
C5_5 C4_5 1_555 1_555
C6_5 C5_5 1_555 1_555
C7_3 C6_5 1_555 1_555
C8_3 C7_3 1_555 1_555
H3_3 C8_3 1_555 1_555
H4_3 C8_3 1_555 1_555
O3_5 C9_5 1_555 1_555
C9_5 C10_5 1_555 1_555
C10_5 C11_5 1_555 1_555
C11_5 H5_5 1_555 1_555
C12_5 C11_5 1_555 1_555
H6_5 C12_5 1_555 1_555
C13_5 C12_5 1_555 1_555
C14_5 C13_5 1_555 1_555
C15_3 C7_3 1_555 1_555
C16_3 C15_3 1_555 1_555
H7_3 C16_3 1_555 1_555
H8_3 C16_3 1_555 1_555
O4_5 C1_5 1_555 1_555
C17_5 C2_5 1_555 1_555
H9_5 C17_5 1_555 1_555
C18_5 C5_5 1_555 1_555
H10_5 C18_5 1_555 1_555
O5_5 C9_5 1_555 1_555
C21_5 C10_5 1_555 1_555
H14_5 C21_5 1_555 1_555
C22_5 C13_5 1_555 1_555
H15_5 C22_5 1_555 1_555
H16_3 C16_3 1_555 1_555
H19_3 C8_3 1_555 1_555
Zr5_5 O5_5 1_555 1_555
O6_7 Zr5_5 1_555 1_555
C25_9 O6_7 1_555 1_555
C26_9 C25_9 1_555 1_555
C27_9 C26_9 1_555 1_555
H21_9 C27_9 1_555 1_555
C28_9 C27_9 1_555 1_555
H22_9 C28_9 1_555 1_555
C29_9 C28_9 1_555 1_555
C30_9 C29_9 1_555 1_555
C31_5 C30_9 1_555 1_555
C32_5 C31_5 1_555 1_555
H23_5 C32_5 1_555 1_555
H24_5 C32_5 1_555 1_555
O7_9 C33_9 1_555 1_555
C33_9 C34_9 1_555 1_555
C34_9 C35_9 1_555 1_555
C35_9 H25_9 1_555 1_555
C36_9 C35_9 1_555 1_555
H26_9 C36_9 1_555 1_555
C37_9 C36_9 1_555 1_555
C38_9 C37_9 1_555 1_555
C39_5 C31_5 1_555 1_555
C40_5 C39_5 1_555 1_555
H27_5 C40_5 1_555 1_555
H28_5 C40_5 1_555 1_555
O8_9 C25_9 1_555 1_555
C41_9 C26_9 1_555 1_555
H29_9 C41_9 1_555 1_555
C42_9 C29_9 1_555 1_555
H30_9 C42_9 1_555 1_555
O9_7 C33_9 1_555 1_555
C45_9 C34_9 1_555 1_555
H34_9 C45_9 1_555 1_555
C46_9 C37_9 1_555 1_555
H35_9 C46_9 1_555 1_555
H36_5 C40_5 1_555 1_555
H39_5 C32_5 1_555 1_555
Zr6_5 O10_5 1_555 1_555
O10_5 C49_5 1_555 1_555
C49_5 C50_5 1_555 1_555
C50_5 C51_5 1_555 1_555
C51_5 H41_5 1_555 1_555
C52_5 C51_5 1_555 1_555
H42_5 C52_5 1_555 1_555
C53_5 C52_5 1_555 1_555
C54_5 C53_5 1_555 1_555
C55_3 C54_5 1_555 1_555
C56_3 C55_3 1_555 1_555
H43_3 C56_3 1_555 1_555
H44_3 C56_3 1_555 1_555
O11_5 C57_5 1_555 1_555
C57_5 C58_5 1_555 1_555
C58_5 C59_5 1_555 1_555
C59_5 H45_5 1_555 1_555
C60_5 C59_5 1_555 1_555
H46_5 C60_5 1_555 1_555
C61_5 C60_5 1_555 1_555
C62_5 C61_5 1_555 1_555
C63_3 C55_3 1_555 1_555
C64_3 C63_3 1_555 1_555
H47_3 C64_3 1_555 1_555
H48_3 C64_3 1_555 1_555
O12_5 C49_5 1_555 1_555
C65_5 C50_5 1_555 1_555
H49_5 C65_5 1_555 1_555
C66_5 C53_5 1_555 1_555
H50_5 C66_5 1_555 1_555
O13_5 Zr5 1_555 1_555
C69_5 C58_5 1_555 1_555
H54_5 C69_5 1_555 1_555
C70_5 C61_5 1_555 1_555
H55_5 C70_5 1_555 1_555
H56_3 C64_3 1_555 1_555
H59_3 C56_3 1_555 1_555
Zr6 O9_7 1_555 1_555
Zr7_2 O11_5 1_555 1_555
Zr9 O7_9 1_555 1_555
Zr9_5 O8_9 1_555 1_555
Zr7_5 O3_5 1_555 1_555
Zr7_6 O12_5 1_555 1_555
O25_5 Zr6_5 1_555 1_555
O27_3 Zr5 1_555 1_555
O29_3 Zr6_5 1_555 1_555
O31_4 Zr5_5 1_555 1_555
C14_5 C15_3 1_555 1_555
O4_5 Zr9_2 1_555 1_555
C17_5 C18_5 1_555 1_555
C21_5 C22_5 1_555 1_555
C38_9 C39_5 1_555 1_555
C41_9 C42_9 1_555 1_555
C45_9 C46_9 1_555 1_555
C57_5 O13_5 1_555 1_555
C62_5 C63_3 1_555 1_555
C65_5 C66_5 1_555 1_555
C69_5 C70_5 1_555 1_555
O2_6 Zr5_2 1_555 1_555
C1_6 O2_6 1_555 1_555
C2_6 C1_6 1_555 1_555
C3_6 C2_6 1_555 1_555
H1_6 C3_6 1_555 1_555
C4_6 C3_6 1_555 1_555
H2_6 C4_6 1_555 1_555
C5_6 C4_6 1_555 1_555
C6_6 C5_6 1_555 1_555
O3_6 C9_6 1_555 1_555
C9_6 C10_6 1_555 1_555
C10_6 C11_6 1_555 1_555
C11_6 H5_6 1_555 1_555
C12_6 C11_6 1_555 1_555
H6_6 C12_6 1_555 1_555
C13_6 C12_6 1_555 1_555
C14_6 C13_6 1_555 1_555
O4_6 C1_6 1_555 1_555
C17_6 C2_6 1_555 1_555
H9_6 C17_6 1_555 1_555
C18_6 C5_6 1_555 1_555
H10_6 C18_6 1_555 1_555
C19_3 C6_6 1_555 1_555
C20_3 C19_3 1_555 1_555
H11_3 C20_3 1_555 1_555
H12_3 C20_3 1_555 1_555
H13_3 C20_3 1_555 1_555
O5_6 C9_6 1_555 1_555
C21_6 C10_6 1_555 1_555
H14_6 C21_6 1_555 1_555
C22_6 C13_6 1_555 1_555
H15_6 C22_6 1_555 1_555
C23_3 C14_6 1_555 1_555
C24_3 C23_3 1_555 1_555
H17_3 C24_3 1_555 1_555
H18_3 C24_3 1_555 1_555
H20_3 C24_3 1_555 1_555
Zr5_6 O5_6 1_555 1_555
O6_8 Zr5_6 1_555 1_555
C25_10 O6_8 1_555 1_555
C26_10 C25_10 1_555 1_555
C27_10 C26_10 1_555 1_555
H21_10 C27_10 1_555 1_555
C28_10 C27_10 1_555 1_555
H22_10 C28_10 1_555 1_555
C29_10 C28_10 1_555 1_555
C30_10 C29_10 1_555 1_555
O7_10 C33_10 1_555 1_555
C33_10 C34_10 1_555 1_555
C34_10 C35_10 1_555 1_555
C35_10 H25_10 1_555 1_555
C36_10 C35_10 1_555 1_555
H26_10 C36_10 1_555 1_555
C37_10 C36_10 1_555 1_555
C38_10 C37_10 1_555 1_555
O8_10 C25_10 1_555 1_555
C41_10 C26_10 1_555 1_555
H29_10 C41_10 1_555 1_555
C42_10 C29_10 1_555 1_555
H30_10 C42_10 1_555 1_555
C43_5 C30_10 1_555 1_555
C44_5 C43_5 1_555 1_555
H31_5 C44_5 1_555 1_555
H32_5 C44_5 1_555 1_555
H33_5 C44_5 1_555 1_555
O9_8 C33_10 1_555 1_555
C45_10 C34_10 1_555 1_555
H34_10 C45_10 1_555 1_555
C46_10 C37_10 1_555 1_555
H35_10 C46_10 1_555 1_555
C47_5 C38_10 1_555 1_555
C48_5 C47_5 1_555 1_555
H37_5 C48_5 1_555 1_555
H38_5 C48_5 1_555 1_555
H40_5 C48_5 1_555 1_555
Zr6_6 O10_6 1_555 1_555
O10_6 C49_6 1_555 1_555
C49_6 C50_6 1_555 1_555
C50_6 C51_6 1_555 1_555
C51_6 H41_6 1_555 1_555
C52_6 C51_6 1_555 1_555
H42_6 C52_6 1_555 1_555
C53_6 C52_6 1_555 1_555
C54_6 C53_6 1_555 1_555
O11_6 C57_6 1_555 1_555
C57_6 C58_6 1_555 1_555
C58_6 C59_6 1_555 1_555
C59_6 H45_6 1_555 1_555
C60_6 C59_6 1_555 1_555
H46_6 C60_6 1_555 1_555
C61_6 C60_6 1_555 1_555
C62_6 C61_6 1_555 1_555
O12_6 C49_6 1_555 1_555
C65_6 C50_6 1_555 1_555
H49_6 C65_6 1_555 1_555
C66_6 C53_6 1_555 1_555
H50_6 C66_6 1_555 1_555
C67_3 C54_6 1_555 1_555
C68_3 C67_3 1_555 1_555
H51_3 C68_3 1_555 1_555
H52_3 C68_3 1_555 1_555
H53_3 C68_3 1_555 1_555
O13_6 Zr5_2 1_555 1_555
C69_6 C58_6 1_555 1_555
H54_6 C69_6 1_555 1_555
C70_6 C61_6 1_555 1_555
H55_6 C70_6 1_555 1_555
C71_3 C62_6 1_555 1_555
C72_3 C71_3 1_555 1_555
H57_3 C72_3 1_555 1_555
H58_3 C72_3 1_555 1_555
H60_3 C72_3 1_555 1_555
Zr6_2 O9_8 1_555 1_555
Zr7_4 O11_6 1_555 1_555
Zr9_3 O7_10 1_555 1_555
Zr9_7 O8_10 1_555 1_555
Zr7_7 O3_6 1_555 1_555
Zr7_8 O12_6 1_555 1_555
O17_3 Zr5_6 1_555 1_555
O18_2 Zr6_6 1_555 1_555
O21_2 Zr6_6 1_555 1_555
O22_3 Zr5_6 1_555 1_555
O25_6 Zr6_6 1_555 1_555
O26_3 Zr5_2 1_555 1_555
O28_4 Zr5_6 1_555 1_555
O30_3 Zr6_6 1_555 1_555
O4_6 Zr9_4 1_555 1_555
C17_6 C18_6 1_555 1_555
C19_3 C23_3 1_555 1_555
C21_6 C22_6 1_555 1_555
C41_10 C42_10 1_555 1_555
C43_5 C47_5 1_555 1_555
C45_10 C46_10 1_555 1_555
C57_6 O13_6 1_555 1_555
C65_6 C66_6 1_555 1_555
C67_3 C71_3 1_555 1_555
C69_6 C70_6 1_555 1_555
Zr9_7 O17_3 1_555 1_555
Zr7_7 O22_3 1_555 1_555
Zr7_8 O18_2 1_555 1_555
O25_5 C49_7 1_555 1_555
C49_7 C50_7 1_555 1_555
C50_7 C51_7 1_555 1_555
C51_7 H41_7 1_555 1_555
C52_7 C51_7 1_555 1_555
H42_7 C52_7 1_555 1_555
C53_7 C52_7 1_555 1_555
C54_7 C53_7 1_555 1_555
O11_7 C57_7 1_555 1_555
C57_7 C58_7 1_555 1_555
C58_7 C59_7 1_555 1_555
C59_7 H45_7 1_555 1_555
C60_7 C59_7 1_555 1_555
H46_7 C60_7 1_555 1_555
C61_7 C60_7 1_555 1_555
C62_7 C61_7 1_555 1_555
O12_7 C49_7 1_555 1_555
C65_7 C50_7 1_555 1_555
H49_7 C65_7 1_555 1_555
C66_7 C53_7 1_555 1_555
H50_7 C66_7 1_555 1_555
C67_4 C54_7 1_555 1_555
C68_4 C67_4 1_555 1_555
H51_4 C68_4 1_555 1_555
H52_4 C68_4 1_555 1_555
H53_4 C68_4 1_555 1_555
O13_7 Zr6 1_555 1_555
C69_7 C58_7 1_555 1_555
H54_7 C69_7 1_555 1_555
C70_7 C61_7 1_555 1_555
H55_7 C70_7 1_555 1_555
C71_4 C62_7 1_555 1_555
C72_4 C71_4 1_555 1_555
H57_4 C72_4 1_555 1_555
H58_4 C72_4 1_555 1_555
H60_4 C72_4 1_555 1_555
Zr7 O11_7 1_555 1_555
Zr9_6 O12_7 1_555 1_555
O26_4 Zr6 1_555 1_555
C57_7 O13_7 1_555 1_555
C65_7 C66_7 1_555 1_555
C67_4 C71_4 1_555 1_555
C69_7 C70_7 1_555 1_555
O25_6 C49_8 1_555 1_555
C49_8 C50_8 1_555 1_555
C50_8 C51_8 1_555 1_555
C51_8 H41_8 1_555 1_555
C52_8 C51_8 1_555 1_555
H42_8 C52_8 1_555 1_555
C53_8 C52_8 1_555 1_555
C54_8 C53_8 1_555 1_555
C55_4 C54_8 1_555 1_555
C56_4 C55_4 1_555 1_555
H43_4 C56_4 1_555 1_555
H44_4 C56_4 1_555 1_555
O11_8 C57_8 1_555 1_555
C57_8 C58_8 1_555 1_555
C58_8 C59_8 1_555 1_555
C59_8 H45_8 1_555 1_555
C60_8 C59_8 1_555 1_555
H46_8 C60_8 1_555 1_555
C61_8 C60_8 1_555 1_555
C62_8 C61_8 1_555 1_555
C63_4 C55_4 1_555 1_555
C64_4 C63_4 1_555 1_555
H47_4 C64_4 1_555 1_555
H48_4 C64_4 1_555 1_555
O12_8 C49_8 1_555 1_555
C65_8 C50_8 1_555 1_555
H49_8 C65_8 1_555 1_555
C66_8 C53_8 1_555 1_555
H50_8 C66_8 1_555 1_555
O13_8 Zr6_2 1_555 1_555
C69_8 C58_8 1_555 1_555
H54_8 C69_8 1_555 1_555
C70_8 C61_8 1_555 1_555
H55_8 C70_8 1_555 1_555
H56_4 C64_4 1_555 1_555
H59_4 C56_4 1_555 1_555
Zr7_3 O11_8 1_555 1_555
Zr9_8 O12_8 1_555 1_555
O27_4 Zr6_2 1_555 1_555
C57_8 O13_8 1_555 1_555
C62_8 C63_4 1_555 1_555
C65_8 C66_8 1_555 1_555
C69_8 C70_8 1_555 1_555
Zr9_8 O21_2 1_555 1_555
O17_3 Zr4_3 1_555 1_555
Zr4_3 O22_3 1_555 1_555
O29_4 Zr4_3 1_555 1_555
O21_2 Zr4_4 1_555 1_555
O18_2 Zr4_4 1_555 1_555
O30_4 Zr4_4 1_555 1_555
Zr3_3 O10_7 1_555 1_555
O10_7 C49_9 1_555 1_555
C49_9 C50_9 1_555 1_555
C50_9 C51_9 1_555 1_555
C51_9 H41_9 1_555 1_555
C52_9 C51_9 1_555 1_555
H42_9 C52_9 1_555 1_555
C53_9 C52_9 1_555 1_555
C54_9 C53_9 1_555 1_555
C55_5 C54_9 1_555 1_555
C56_5 C55_5 1_555 1_555
H43_5 C56_5 1_555 1_555
H44_5 C56_5 1_555 1_555
O31_4 C57_9 1_555 1_555
C57_9 C58_9 1_555 1_555
C58_9 C59_9 1_555 1_555
C59_9 H45_9 1_555 1_555
C60_9 C59_9 1_555 1_555
H46_9 C60_9 1_555 1_555
C61_9 C60_9 1_555 1_555
C62_9 C61_9 1_555 1_555
C63_5 C55_5 1_555 1_555
C64_5 C63_5 1_555 1_555
H47_5 C64_5 1_555 1_555
H48_5 C64_5 1_555 1_555
O12_9 C49_9 1_555 1_555
C65_9 C50_9 1_555 1_555
H49_9 C65_9 1_555 1_555
C66_9 C53_9 1_555 1_555
H50_9 C66_9 1_555 1_555
C67_5 C54_9 1_555 1_555
C68_5 C67_5 1_555 1_555
H51_5 C68_5 1_555 1_555
H52_5 C68_5 1_555 1_555
H53_5 C68_5 1_555 1_555
C69_9 C58_9 1_555 1_555
H54_9 C69_9 1_555 1_555
C70_9 C61_9 1_555 1_555
H55_9 C70_9 1_555 1_555
H56_5 C64_5 1_555 1_555
C71_5 C62_9 1_555 1_555
C72_5 C71_5 1_555 1_555
H57_5 C72_5 1_555 1_555
H58_5 C72_5 1_555 1_555
H59_5 C56_5 1_555 1_555
H60_5 C72_5 1_555 1_555
Zr12_5 O12_9 1_555 1_555
O18_3 Zr3_3 1_555 1_555
O19_2 Zr3_3 1_555 1_555
O21_3 Zr3_3 1_555 1_555
O24_2 Zr3_3 1_555 1_555
O25_7 Zr3_3 1_555 1_555
O29_5 Zr3_3 1_555 1_555
O30_5 Zr3_3 1_555 1_555
C57_9 O26_2 1_555 1_555
C62_9 C63_5 1_555 1_555
C65_9 C66_9 1_555 1_555
C67_5 C71_5 1_555 1_555
C69_9 C70_9 1_555 1_555
Zr12_5 O18_3 1_555 1_555
Zr12_5 O19_2 1_555 1_555
C1_7 O27_2 1_555 1_555
C2_7 C1_7 1_555 1_555
C3_7 C2_7 1_555 1_555
H1_7 C3_7 1_555 1_555
C4_7 C3_7 1_555 1_555
H2_7 C4_7 1_555 1_555
C5_7 C4_7 1_555 1_555
C6_7 C5_7 1_555 1_555
C7_4 C6_7 1_555 1_555
C8_4 C7_4 1_555 1_555
H3_4 C8_4 1_555 1_555
H4_4 C8_4 1_555 1_555
O3_7 C9_7 1_555 1_555
C9_7 C10_7 1_555 1_555
C10_7 C11_7 1_555 1_555
C11_7 H5_7 1_555 1_555
C12_7 C11_7 1_555 1_555
H6_7 C12_7 1_555 1_555
C13_7 C12_7 1_555 1_555
C14_7 C13_7 1_555 1_555
C15_4 C7_4 1_555 1_555
C16_4 C15_4 1_555 1_555
H7_4 C16_4 1_555 1_555
H8_4 C16_4 1_555 1_555
O29_3 C1_7 1_555 1_555
C17_7 C2_7 1_555 1_555
H9_7 C17_7 1_555 1_555
C18_7 C5_7 1_555 1_555
H10_7 C18_7 1_555 1_555
C19_4 C6_7 1_555 1_555
C20_4 C19_4 1_555 1_555
H11_4 C20_4 1_555 1_555
H12_4 C20_4 1_555 1_555
H13_4 C20_4 1_555 1_555
O5_7 C9_7 1_555 1_555
C21_7 C10_7 1_555 1_555
H14_7 C21_7 1_555 1_555
C22_7 C13_7 1_555 1_555
H15_7 C22_7 1_555 1_555
H16_4 C16_4 1_555 1_555
C23_4 C14_7 1_555 1_555
C24_4 C23_4 1_555 1_555
H17_4 C24_4 1_555 1_555
H18_4 C24_4 1_555 1_555
H19_4 C8_4 1_555 1_555
H20_4 C24_4 1_555 1_555
Zr2_3 O5_7 1_555 1_555
O6_9 Zr2_3 1_555 1_555
C25_11 O6_9 1_555 1_555
C26_11 C25_11 1_555 1_555
C27_11 C26_11 1_555 1_555
H21_11 C27_11 1_555 1_555
C28_11 C27_11 1_555 1_555
H22_11 C28_11 1_555 1_555
C29_11 C28_11 1_555 1_555
C30_11 C29_11 1_555 1_555
C31_6 C30_11 1_555 1_555
C32_6 C31_6 1_555 1_555
H23_6 C32_6 1_555 1_555
H24_6 C32_6 1_555 1_555
O30_3 C33_11 1_555 1_555
C33_11 C34_11 1_555 1_555
C34_11 C35_11 1_555 1_555
C35_11 H25_11 1_555 1_555
C36_11 C35_11 1_555 1_555
H26_11 C36_11 1_555 1_555
C37_11 C36_11 1_555 1_555
C38_11 C37_11 1_555 1_555
C39_6 C31_6 1_555 1_555
C40_6 C39_6 1_555 1_555
H27_6 C40_6 1_555 1_555
H28_6 C40_6 1_555 1_555
O8_11 C25_11 1_555 1_555
C41_11 C26_11 1_555 1_555
H29_11 C41_11 1_555 1_555
C42_11 C29_11 1_555 1_555
H30_11 C42_11 1_555 1_555
C43_6 C30_11 1_555 1_555
C44_6 C43_6 1_555 1_555
H31_6 C44_6 1_555 1_555
H32_6 C44_6 1_555 1_555
H33_6 C44_6 1_555 1_555
O30_4 C33_11 1_555 1_555
C45_11 C34_11 1_555 1_555
H34_11 C45_11 1_555 1_555
C46_11 C37_11 1_555 1_555
H35_11 C46_11 1_555 1_555
H36_6 C40_6 1_555 1_555
C47_6 C38_11 1_555 1_555
C48_6 C47_6 1_555 1_555
H37_6 C48_6 1_555 1_555
H38_6 C48_6 1_555 1_555
H39_6 C32_6 1_555 1_555
H40_6 C48_6 1_555 1_555
Zr10_5 O8_11 1_555 1_555
Zr12_5 O3_7 1_555 1_555
O17_4 Zr2_3 1_555 1_555
O20_3 Zr2_3 1_555 1_555
O22_4 Zr2_3 1_555 1_555
O23_3 Zr2_3 1_555 1_555
O28_5 Zr2_3 1_555 1_555
O31_5 Zr2_3 1_555 1_555
C14_7 C15_4 1_555 1_555
C17_7 C18_7 1_555 1_555
C19_4 C23_4 1_555 1_555
C21_7 C22_7 1_555 1_555
C38_11 C39_6 1_555 1_555
C41_11 C42_11 1_555 1_555
C43_6 C47_6 1_555 1_555
C45_11 C46_11 1_555 1_555
Zr10_5 O17_4 1_555 1_555
Zr10_5 O20_3 1_555 1_555
Zr12_5 O22_4 1_555 1_555
Zr12_5 O23_3 1_555 1_555
C25_12 O29_4 1_555 1_555
C26_12 C25_12 1_555 1_555
C27_12 C26_12 1_555 1_555
H21_12 C27_12 1_555 1_555
C28_12 C27_12 1_555 1_555
H22_12 C28_12 1_555 1_555
C29_12 C28_12 1_555 1_555
C30_12 C29_12 1_555 1_555
C31_7 C30_12 1_555 1_555
C32_7 C31_7 1_555 1_555
H23_7 C32_7 1_555 1_555
H24_7 C32_7 1_555 1_555
O7_11 C33_12 1_555 1_555
C33_12 C34_12 1_555 1_555
C34_12 C35_12 1_555 1_555
C35_12 H25_12 1_555 1_555
C36_12 C35_12 1_555 1_555
H26_12 C36_12 1_555 1_555
C37_12 C36_12 1_555 1_555
C38_12 C37_12 1_555 1_555
C39_7 C31_7 1_555 1_555
C40_7 C39_7 1_555 1_555
H27_7 C40_7 1_555 1_555
H28_7 C40_7 1_555 1_555
O28_4 C25_12 1_555 1_555
C41_12 C26_12 1_555 1_555
H29_12 C41_12 1_555 1_555
C42_12 C29_12 1_555 1_555
H30_12 C42_12 1_555 1_555
C43_7 C30_12 1_555 1_555
C44_7 C43_7 1_555 1_555
H31_7 C44_7 1_555 1_555
H32_7 C44_7 1_555 1_555
H33_7 C44_7 1_555 1_555
O25_7 C33_12 1_555 1_555
C45_12 C34_12 1_555 1_555
H34_12 C45_12 1_555 1_555
C46_12 C37_12 1_555 1_555
H35_12 C46_12 1_555 1_555
H36_7 C40_7 1_555 1_555
C47_7 C38_12 1_555 1_555
C48_7 C47_7 1_555 1_555
H37_7 C48_7 1_555 1_555
H38_7 C48_7 1_555 1_555
H39_7 C32_7 1_555 1_555
H40_7 C48_7 1_555 1_555
Zr10_5 O7_11 1_555 1_555
C38_12 C39_7 1_555 1_555
C41_12 C42_12 1_555 1_555
C43_7 C47_7 1_555 1_555
C45_12 C46_12 1_555 1_555
O17_4 Zr5_7 1_555 1_555
Zr5_7 O22_4 1_555 1_555
Zr6_7 O23_3 1_555 1_555
O20_3 Zr6_7 1_555 1_555
Zr10_5 O21_3 1_555 1_555
Zr10_5 O24_2 1_555 1_555
O18_3 Zr5_7 1_555 1_555
Zr5_7 O21_3 1_555 1_555
Zr6_7 O24_2 1_555 1_555
O19_2 Zr6_7 1_555 1_555
Zr5_7 O10_8 1_555 1_555
O10_8 C49_10 1_555 1_555
C49_10 C50_10 1_555 1_555
C50_10 C51_10 1_555 1_555
C51_10 H41_10 1_555 1_555
C52_10 C51_10 1_555 1_555
H42_10 C52_10 1_555 1_555
C53_10 C52_10 1_555 1_555
C54_10 C53_10 1_555 1_555
C55_6 C54_10 1_555 1_555
C56_6 C55_6 1_555 1_555
H43_6 C56_6 1_555 1_555
H44_6 C56_6 1_555 1_555
O26_4 C57_10 1_555 1_555
C57_10 C58_10 1_555 1_555
C58_10 C59_10 1_555 1_555
C59_10 H45_10 1_555 1_555
C60_10 C59_10 1_555 1_555
H46_10 C60_10 1_555 1_555
C61_10 C60_10 1_555 1_555
C62_10 C61_10 1_555 1_555
C63_6 C55_6 1_555 1_555
C64_6 C63_6 1_555 1_555
H47_6 C64_6 1_555 1_555
H48_6 C64_6 1_555 1_555
O12_10 C49_10 1_555 1_555
C65_10 C50_10 1_555 1_555
H49_10 C65_10 1_555 1_555
C66_10 C53_10 1_555 1_555
H50_10 C66_10 1_555 1_555
C67_6 C54_10 1_555 1_555
C68_6 C67_6 1_555 1_555
H51_6 C68_6 1_555 1_555
H52_6 C68_6 1_555 1_555
H53_6 C68_6 1_555 1_555
C69_10 C58_10 1_555 1_555
H54_10 C69_10 1_555 1_555
C70_10 C61_10 1_555 1_555
H55_10 C70_10 1_555 1_555
H56_6 C64_6 1_555 1_555
C71_6 C62_10 1_555 1_555
C72_6 C71_6 1_555 1_555
H57_6 C72_6 1_555 1_555
H58_6 C72_6 1_555 1_555
H59_6 C56_6 1_555 1_555
H60_6 C72_6 1_555 1_555
Zr12_5 O12_10 1_555 1_555
O25_8 Zr5_7 1_555 1_555
O29_6 Zr5_7 1_555 1_555
O30_6 Zr5_7 1_555 1_555
C57_10 O27 1_555 1_555
C62_10 C63_6 1_555 1_555
C65_10 C66_10 1_555 1_555
C67_6 C71_6 1_555 1_555
C69_10 C70_10 1_555 1_555
C1_8 O26 1_555 1_555
C2_8 C1_8 1_555 1_555
C3_8 C2_8 1_555 1_555
H1_8 C3_8 1_555 1_555
C4_8 C3_8 1_555 1_555
H2_8 C4_8 1_555 1_555
C5_8 C4_8 1_555 1_555
C6_8 C5_8 1_555 1_555
C7_5 C6_8 1_555 1_555
C8_5 C7_5 1_555 1_555
H3_5 C8_5 1_555 1_555
H4_5 C8_5 1_555 1_555
O3_8 C9_8 1_555 1_555
C9_8 C10_8 1_555 1_555
C10_8 C11_8 1_555 1_555
C11_8 H5_8 1_555 1_555
C12_8 C11_8 1_555 1_555
H6_8 C12_8 1_555 1_555
C13_8 C12_8 1_555 1_555
C14_8 C13_8 1_555 1_555
C15_5 C7_5 1_555 1_555
C16_5 C15_5 1_555 1_555
H7_5 C16_5 1_555 1_555
H8_5 C16_5 1_555 1_555
O27_3 C1_8 1_555 1_555
C17_8 C2_8 1_555 1_555
H9_8 C17_8 1_555 1_555
C18_8 C5_8 1_555 1_555
H10_8 C18_8 1_555 1_555
C19_5 C6_8 1_555 1_555
C20_5 C19_5 1_555 1_555
H11_5 C20_5 1_555 1_555
H12_5 C20_5 1_555 1_555
H13_5 C20_5 1_555 1_555
O5_8 C9_8 1_555 1_555
C21_8 C10_8 1_555 1_555
H14_8 C21_8 1_555 1_555
C22_8 C13_8 1_555 1_555
H15_8 C22_8 1_555 1_555
H16_5 C16_5 1_555 1_555
C23_5 C14_8 1_555 1_555
C24_5 C23_5 1_555 1_555
H17_5 C24_5 1_555 1_555
H18_5 C24_5 1_555 1_555
H19_5 C8_5 1_555 1_555
H20_5 C24_5 1_555 1_555
Zr6_7 O5_8 1_555 1_555
O6_10 Zr6_7 1_555 1_555
C25_13 O6_10 1_555 1_555
C26_13 C25_13 1_555 1_555
C27_13 C26_13 1_555 1_555
H21_13 C27_13 1_555 1_555
C28_13 C27_13 1_555 1_555
H22_13 C28_13 1_555 1_555
C29_13 C28_13 1_555 1_555
C30_13 C29_13 1_555 1_555
C31_8 C30_13 1_555 1_555
C32_8 C31_8 1_555 1_555
H23_8 C32_8 1_555 1_555
H24_8 C32_8 1_555 1_555
O26_3 C33_13 1_555 1_555
C33_13 C34_13 1_555 1_555
C34_13 C35_13 1_555 1_555
C35_13 H25_13 1_555 1_555
C36_13 C35_13 1_555 1_555
H26_13 C36_13 1_555 1_555
C37_13 C36_13 1_555 1_555
C38_13 C37_13 1_555 1_555
C39_8 C31_8 1_555 1_555
C40_8 C39_8 1_555 1_555
H27_8 C40_8 1_555 1_555
H28_8 C40_8 1_555 1_555
O8_12 C25_13 1_555 1_555
C41_13 C26_13 1_555 1_555
H29_13 C41_13 1_555 1_555
C42_13 C29_13 1_555 1_555
H30_13 C42_13 1_555 1_555
C43_8 C30_13 1_555 1_555
C44_8 C43_8 1_555 1_555
H31_8 C44_8 1_555 1_555
H32_8 C44_8 1_555 1_555
H33_8 C44_8 1_555 1_555
O28_2 C33_13 1_555 1_555
C45_13 C34_13 1_555 1_555
H34_13 C45_13 1_555 1_555
C46_13 C37_13 1_555 1_555
H35_13 C46_13 1_555 1_555
H36_8 C40_8 1_555 1_555
C47_8 C38_13 1_555 1_555
C48_8 C47_8 1_555 1_555
H37_8 C48_8 1_555 1_555
H38_8 C48_8 1_555 1_555
H39_8 C32_8 1_555 1_555
H40_8 C48_8 1_555 1_555
Zr10_5 O8_12 1_555 1_555
Zr12_5 O3_8 1_555 1_555
O28_6 Zr6_7 1_555 1_555
O31_6 Zr6_7 1_555 1_555
C14_8 C15_5 1_555 1_555
C17_8 C18_8 1_555 1_555
C19_5 C23_5 1_555 1_555
C21_8 C22_8 1_555 1_555
C38_13 C39_8 1_555 1_555
C41_13 C42_13 1_555 1_555
C43_8 C47_8 1_555 1_555
C45_13 C46_13 1_555 1_555
C25_14 O25_8 1_555 1_555
C26_14 C25_14 1_555 1_555
C27_14 C26_14 1_555 1_555
H21_14 C27_14 1_555 1_555
C28_14 C27_14 1_555 1_555
H22_14 C28_14 1_555 1_555
C29_14 C28_14 1_555 1_555
C30_14 C29_14 1_555 1_555
C31_9 C30_14 1_555 1_555
C32_9 C31_9 1_555 1_555
H23_9 C32_9 1_555 1_555
H24_9 C32_9 1_555 1_555
O27_4 C33_14 1_555 1_555
C33_14 C34_14 1_555 1_555
C34_14 C35_14 1_555 1_555
C35_14 H25_14 1_555 1_555
C36_14 C35_14 1_555 1_555
H26_14 C36_14 1_555 1_555
C37_14 C36_14 1_555 1_555
C38_14 C37_14 1_555 1_555
C39_9 C31_9 1_555 1_555
C40_9 C39_9 1_555 1_555
H27_9 C40_9 1_555 1_555
H28_9 C40_9 1_555 1_555
O8_13 C25_14 1_555 1_555
C41_14 C26_14 1_555 1_555
H29_14 C41_14 1_555 1_555
C42_14 C29_14 1_555 1_555
H30_14 C42_14 1_555 1_555
C43_9 C30_14 1_555 1_555
C44_9 C43_9 1_555 1_555
H31_9 C44_9 1_555 1_555
H32_9 C44_9 1_555 1_555
H33_9 C44_9 1_555 1_555
O31_2 C33_14 1_555 1_555
C45_14 C34_14 1_555 1_555
H34_14 C45_14 1_555 1_555
C46_14 C37_14 1_555 1_555
H35_14 C46_14 1_555 1_555
H36_9 C40_9 1_555 1_555
C47_9 C38_14 1_555 1_555
C48_9 C47_9 1_555 1_555
H37_9 C48_9 1_555 1_555
H38_9 C48_9 1_555 1_555
H39_9 C32_9 1_555 1_555
H40_9 C48_9 1_555 1_555
Zr10_5 O8_13 1_555 1_555
C38_14 C39_9 1_555 1_555
C41_14 C42_14 1_555 1_555
C43_9 C47_9 1_555 1_555
C45_14 C46_14 1_555 1_555
C1_9 O29_6 1_555 1_555
C2_9 C1_9 1_555 1_555
C3_9 C2_9 1_555 1_555
H1_9 C3_9 1_555 1_555
C4_9 C3_9 1_555 1_555
H2_9 C4_9 1_555 1_555
C5_9 C4_9 1_555 1_555
C6_9 C5_9 1_555 1_555
C7_6 C6_9 1_555 1_555
C8_6 C7_6 1_555 1_555
H3_6 C8_6 1_555 1_555
H4_6 C8_6 1_555 1_555
O28_3 C9_9 1_555 1_555
C9_9 C10_9 1_555 1_555
C10_9 C11_9 1_555 1_555
C11_9 H5_9 1_555 1_555
C12_9 C11_9 1_555 1_555
H6_9 C12_9 1_555 1_555
C13_9 C12_9 1_555 1_555
C14_9 C13_9 1_555 1_555
C15_6 C7_6 1_555 1_555
C16_6 C15_6 1_555 1_555
H7_6 C16_6 1_555 1_555
H8_6 C16_6 1_555 1_555
O30_5 C1_9 1_555 1_555
C17_9 C2_9 1_555 1_555
H9_9 C17_9 1_555 1_555
C18_9 C5_9 1_555 1_555
H10_9 C18_9 1_555 1_555
C19_6 C6_9 1_555 1_555
C20_6 C19_6 1_555 1_555
H11_6 C20_6 1_555 1_555
H12_6 C20_6 1_555 1_555
H13_6 C20_6 1_555 1_555
O31 C9_9 1_555 1_555
C21_9 C10_9 1_555 1_555
H14_9 C21_9 1_555 1_555
C22_9 C13_9 1_555 1_555
H15_9 C22_9 1_555 1_555
H16_6 C16_6 1_555 1_555
C23_6 C14_9 1_555 1_555
C24_6 C23_6 1_555 1_555
H17_6 C24_6 1_555 1_555
H18_6 C24_6 1_555 1_555
H19_6 C8_6 1_555 1_555
H20_6 C24_6 1_555 1_555
O29 C49_11 1_555 1_555
C49_11 C50_11 1_555 1_555
C50_11 C51_11 1_555 1_555
C51_11 H41_11 1_555 1_555
C52_11 C51_11 1_555 1_555
H42_11 C52_11 1_555 1_555
C53_11 C52_11 1_555 1_555
C54_11 C53_11 1_555 1_555
C55_7 C54_11 1_555 1_555
C56_7 C55_7 1_555 1_555
H43_7 C56_7 1_555 1_555
H44_7 C56_7 1_555 1_555
O28_5 C57_11 1_555 1_555
C57_11 C58_11 1_555 1_555
C58_11 C59_11 1_555 1_555
C59_11 H45_11 1_555 1_555
C60_11 C59_11 1_555 1_555
H46_11 C60_11 1_555 1_555
C61_11 C60_11 1_555 1_555
C62_11 C61_11 1_555 1_555
C63_7 C55_7 1_555 1_555
C64_7 C63_7 1_555 1_555
H47_7 C64_7 1_555 1_555
H48_7 C64_7 1_555 1_555
O31_3 C49_11 1_555 1_555
C65_11 C50_11 1_555 1_555
H49_11 C65_11 1_555 1_555
C66_11 C53_11 1_555 1_555
H50_11 C66_11 1_555 1_555
C67_7 C54_11 1_555 1_555
C68_7 C67_7 1_555 1_555
H51_7 C68_7 1_555 1_555
H52_7 C68_7 1_555 1_555
H53_7 C68_7 1_555 1_555
C69_11 C58_11 1_555 1_555
H54_11 C69_11 1_555 1_555
C70_11 C61_11 1_555 1_555
H55_11 C70_11 1_555 1_555
H56_7 C64_7 1_555 1_555
C71_7 C62_11 1_555 1_555
C72_7 C71_7 1_555 1_555
H57_7 C72_7 1_555 1_555
H58_7 C72_7 1_555 1_555
H59_7 C56_7 1_555 1_555
H60_7 C72_7 1_555 1_555
C14_9 C15_6 1_555 1_555
C17_9 C18_9 1_555 1_555
C19_6 C23_6 1_555 1_555
C21_9 C22_9 1_555 1_555
C57_11 O30_6 1_555 1_555
C62_11 C63_7 1_555 1_555
C65_11 C66_11 1_555 1_555
C67_7 C71_7 1_555 1_555
C69_11 C70_11 1_555 1_555
C25_15 O28 1_555 1_555
C26_15 C25_15 1_555 1_555
C27_15 C26_15 1_555 1_555
H21_15 C27_15 1_555 1_555
C28_15 C27_15 1_555 1_555
H22_15 C28_15 1_555 1_555
C29_15 C28_15 1_555 1_555
C30_15 C29_15 1_555 1_555
C31_10 C30_15 1_555 1_555
C32_10 C31_10 1_555 1_555
H23_10 C32_10 1_555 1_555
H24_10 C32_10 1_555 1_555
O29_5 C33_15 1_555 1_555
C33_15 C34_15 1_555 1_555
C34_15 C35_15 1_555 1_555
C35_15 H25_15 1_555 1_555
C36_15 C35_15 1_555 1_555
H26_15 C36_15 1_555 1_555
C37_15 C36_15 1_555 1_555
C38_15 C37_15 1_555 1_555
C39_10 C31_10 1_555 1_555
C40_10 C39_10 1_555 1_555
H27_10 C40_10 1_555 1_555
H28_10 C40_10 1_555 1_555
O30_2 C25_15 1_555 1_555
C41_15 C26_15 1_555 1_555
H29_15 C41_15 1_555 1_555
C42_15 C29_15 1_555 1_555
H30_15 C42_15 1_555 1_555
C43_10 C30_15 1_555 1_555
C44_10 C43_10 1_555 1_555
H31_10 C44_10 1_555 1_555
H32_10 C44_10 1_555 1_555
H33_10 C44_10 1_555 1_555
O31_6 C33_15 1_555 1_555
C45_15 C34_15 1_555 1_555
H34_15 C45_15 1_555 1_555
C46_15 C37_15 1_555 1_555
H35_15 C46_15 1_555 1_555
H36_10 C40_10 1_555 1_555
C47_10 C38_15 1_555 1_555
C48_10 C47_10 1_555 1_555
H37_10 C48_10 1_555 1_555
H38_10 C48_10 1_555 1_555
H39_10 C32_10 1_555 1_555
H40_10 C48_10 1_555 1_555
C38_15 C39_10 1_555 1_555
C41_15 C42_15 1_555 1_555
C43_10 C47_10 1_555 1_555
C45_15 C46_15 1_555 1_555
O30 C49_12 1_555 1_555
C49_12 C50_12 1_555 1_555
C50_12 C51_12 1_555 1_555
C51_12 H41_12 1_555 1_555
C52_12 C51_12 1_555 1_555
H42_12 C52_12 1_555 1_555
C53_12 C52_12 1_555 1_555
C54_12 C53_12 1_555 1_555
C55_8 C54_12 1_555 1_555
C56_8 C55_8 1_555 1_555
H43_8 C56_8 1_555 1_555
H44_8 C56_8 1_555 1_555
O31_5 C57_12 1_555 1_555
C57_12 C58_12 1_555 1_555
C58_12 C59_12 1_555 1_555
C59_12 H45_12 1_555 1_555
C60_12 C59_12 1_555 1_555
H46_12 C60_12 1_555 1_555
C61_12 C60_12 1_555 1_555
C62_12 C61_12 1_555 1_555
C63_8 C55_8 1_555 1_555
C64_8 C63_8 1_555 1_555
H47_8 C64_8 1_555 1_555
H48_8 C64_8 1_555 1_555
O29_2 C49_12 1_555 1_555
C65_12 C50_12 1_555 1_555
H49_12 C65_12 1_555 1_555
C66_12 C53_12 1_555 1_555
H50_12 C66_12 1_555 1_555
C67_8 C54_12 1_555 1_555
C68_8 C67_8 1_555 1_555
H51_8 C68_8 1_555 1_555
H52_8 C68_8 1_555 1_555
H53_8 C68_8 1_555 1_555
C69_12 C58_12 1_555 1_555
H54_12 C69_12 1_555 1_555
C70_12 C61_12 1_555 1_555
H55_12 C70_12 1_555 1_555
H56_8 C64_8 1_555 1_555
C71_8 C62_12 1_555 1_555
C72_8 C71_8 1_555 1_555
H57_8 C72_8 1_555 1_555
H58_8 C72_8 1_555 1_555
H59_8 C56_8 1_555 1_555
H60_8 C72_8 1_555 1_555
C57_12 O28_6 1_555 1_555
C62_12 C63_8 1_555 1_555
C65_12 C66_12 1_555 1_555
C67_8 C71_8 1_555 1_555
C69_12 C70_12 1_555 1_555

#END
