
###############################################################################
#
# This file contains modified crystal structure data generated from the
# MOF subset of the Cambridge Structural Database (CSD) v543 
# hosted by the Cambridge Crystallographic Data Centre (CCDC).
#
# This work is licensed under the Creative Commons
# Attribution-NonCommercial-ShareAlike 4.0 International License.
# To view a copy of this license, visit
# http://creativecommons.org/licenses/by-nc-sa/4.0/
# or send a letter to
# Creative Commons, PO Box 1866, Mountain View, CA 94042, USA.
#
# CIF created using the CSD Python API on 29 September 2022
# The structure has been converted into the P1 space group
# The structure has a 3D framework
# The original CSD entry YEYRAY is in the monoclinic crystal system
# The framework has been calculated to contain at least 10.0% void space
# The void calculation uses a probe of radius 1.32A, grid spacing 0.4
#
###############################################################################

data_YEYRAY
_chemical_formula_moiety         '(C44 H44 Cd4 N4 O24)n'
_symmetry_cell_setting           triclinic
_symmetry_space_group_name_H-M   'P 1'
_symmetry_Int_Tables_number      1
_space_group_name_Hall           'P 1'
loop_
_symmetry_equiv_pos_site_id
_symmetry_equiv_pos_as_xyz
1 x,y,z
_cell_length_a                   10.0583(6)
_cell_length_b                   14.4667(9)
_cell_length_c                   13.6582(13)
_cell_angle_alpha                90
_cell_angle_beta                 117.923(6)
_cell_angle_gamma                90
_cell_volume                     1756.03
loop_
_atom_site_label
_atom_site_type_symbol
_atom_site_fract_x
_atom_site_fract_y
_atom_site_fract_z
N1 N 0.2762(5) 0.3902(3) 0.3341(4)
H1 H 0.1825 0.4062 0.2835
H2 H 0.2954 0.4179 0.3984
C1 C 0.3846(8) 0.4245(4) 0.2973(6)
H3 H 0.3696 0.3919 0.2317
H4 H 0.4854 0.4143 0.3549
H5 H 0.3689 0.4894 0.2815
C2 C 0.2828(6) 0.2883(4) 0.3498(4)
H6 H 0.2480 0.2583 0.2793
H7 H 0.2200 0.2708 0.3822
H8 H 0.3847 0.2700 0.3979
N1_2 N 0.7238(5) 0.8902(3) 0.1659(4)
H1_2 H 0.8175 0.9062 0.2165
H2_2 H 0.7046 0.9179 0.1016
C1_2 C 0.6154(8) 0.9245(4) 0.2027(6)
H3_2 H 0.6304 0.8919 0.2683
H4_2 H 0.5146 0.9143 0.1451
H5_2 H 0.6311 0.9894 0.2185
C2_2 C 0.7172(6) 0.7883(4) 0.1502(4)
H6_2 H 0.7520 0.7583 0.2207
H7_2 H 0.7800 0.7708 0.1178
H8_2 H 0.6153 0.7700 0.1021
N1_3 N 0.7238(5) 0.6098(3) 0.6659(4)
H1_3 H 0.8175 0.5938 0.7165
H2_3 H 0.7046 0.5821 0.6016
C1_3 C 0.6154(8) 0.5755(4) 0.7027(6)
H3_3 H 0.6304 0.6081 0.7683
H4_3 H 0.5146 0.5857 0.6451
H5_3 H 0.6311 0.5106 0.7185
C2_3 C 0.7172(6) 0.7117(4) 0.6502(4)
H6_3 H 0.7520 0.7417 0.7207
H7_3 H 0.7800 0.7292 0.6178
H8_3 H 0.6153 0.7300 0.6021
N1_4 N 0.2762(5) 0.1098(3) 0.8341(4)
H1_4 H 0.1825 0.0938 0.7835
H2_4 H 0.2954 0.0821 0.8984
C1_4 C 0.3846(8) 0.0755(4) 0.7973(6)
H3_4 H 0.3696 0.1081 0.7317
H4_4 H 0.4854 0.0857 0.8549
H5_4 H 0.3689 0.0106 0.7815
C2_4 C 0.2828(6) 0.2117(4) 0.8498(4)
H6_4 H 0.2480 0.2417 0.7793
H7_4 H 0.2200 0.2292 0.8822
H8_4 H 0.3847 0.2300 0.8979
Cd5 Cd 0.15153(3) 0.06673(2) 0.06141(2)
Cd1 Cd 0.15153(3) 0.43327(2) 0.56141(2)
O1 O 0.0315(4) 0.3609(3) 0.6389(3)
O7 O 0.1644(5) 0.5430(3) 0.4448(3)
O8 O 0.3705(4) 0.4016(3) 0.5664(3)
O9 O 0.3381(6) 0.2797(5) 0.6461(5)
O10 O 0.2247(6) 0.5534(3) 0.6763(3)
O2 O 0.8356(5) 0.4570(3) 0.5552(3)
O5 O 0.7753(6) 0.0534(3) 0.8237(3)
O6 O 0.9963(5) 0.1294(3) 0.8965(3)
C3 C 0.8087(5) 0.3290(3) 0.6491(4)
C4 C 0.6592(5) 0.3506(3) 0.6152(4)
H9 H 0.6160 0.4016 0.5698
C5 C 0.5736(5) 0.2967(4) 0.6485(4)
C6 C 0.6373(5) 0.2198(4) 0.7142(4)
H10 H 0.5789 0.1822 0.7342
C7 C 0.7871(5) 0.1984(3) 0.7505(4)
C8 C 0.8726(5) 0.2535(3) 0.7181(4)
H11 H 0.9736 0.2397 0.7428
C9 C 0.8996(6) 0.3874(4) 0.6119(4)
C10 C 0.4160(6) 0.3257(5) 0.6183(4)
C11 C 0.8593(7) 0.1197(4) 0.8298(4)
Cd4 Cd 0.84847(3) 0.56673(2) 0.43859(2)
O11 O 0.9963(5) 0.3706(3) 0.3965(3)
Cd3 Cd 0.84847(3) 0.93327(2) 0.93859(2)
O11_2 O 0.0037(5) 0.8706(3) 0.1035(3)
O2_2 O 0.1644(5) 0.9570(3) 0.9448(3)
O3 O 0.6295(4) 0.9016(3) 0.9336(3)
O4 O 0.6619(6) 0.7797(5) 0.8539(5)
O6_2 O 0.0037(5) 0.6294(3) 0.6035(3)
C3_2 C 0.1913(5) 0.8290(3) 0.8509(4)
C4_2 C 0.3408(5) 0.8506(3) 0.8848(4)
H9_2 H 0.3840 0.9016 0.9302
C5_2 C 0.4264(5) 0.7967(4) 0.8515(4)
C6_2 C 0.3627(5) 0.7198(4) 0.7858(4)
H10_2 H 0.4211 0.6822 0.7658
C7_2 C 0.2129(5) 0.6984(3) 0.7495(4)
C8_2 C 0.1274(5) 0.7535(3) 0.7819(4)
H11_2 H 0.0264 0.7397 0.7572
C9_2 C 0.1004(6) 0.8874(4) 0.8881(4)
C10_2 C 0.5840(6) 0.8257(5) 0.8817(4)
C11_2 C 0.1407(7) 0.6197(4) 0.6702(4)
O7_2 O 0.8356(5) 0.0430(3) 0.0552(3)
O1_2 O 0.9685(4) 0.8609(3) 0.8611(3)
O3_2 O 0.6295(4) 0.5984(3) 0.4336(3)
O4_2 O 0.6619(6) 0.7203(5) 0.3539(5)
O5_2 O 0.2247(6) 0.9466(3) 0.1763(3)
C3_3 C 0.1913(5) 0.6710(3) 0.3509(4)
C4_3 C 0.3408(5) 0.6494(3) 0.3848(4)
H9_3 H 0.3840 0.5984 0.4302
C5_3 C 0.4264(5) 0.7033(4) 0.3515(4)
C6_3 C 0.3627(5) 0.7802(4) 0.2858(4)
H10_3 H 0.4211 0.8178 0.2658
C7_3 C 0.2129(5) 0.8016(3) 0.2495(4)
C8_3 C 0.1274(5) 0.7465(3) 0.2819(4)
H11_3 H 0.0264 0.7603 0.2572
C9_3 C 0.1004(6) 0.6126(4) 0.3881(4)
C10_3 C 0.5840(6) 0.6743(5) 0.3817(4)
C11_3 C 0.1407(7) 0.8803(4) 0.1702(4)
O1_3 O 0.9685(4) 0.6391(3) 0.3611(3)
O10_2 O 0.7753(6) 0.4466(3) 0.3237(3)
O1_4 O 0.0315(4) 0.1391(3) 0.1389(3)
O8_2 O 0.3705(4) 0.0984(3) 0.0664(3)
O9_2 O 0.3381(6) 0.2203(5) 0.1461(5)
C3_4 C 0.8087(5) 0.1710(3) 0.1491(4)
C4_4 C 0.6592(5) 0.1494(3) 0.1152(4)
H9_4 H 0.6160 0.0984 0.0698
C5_4 C 0.5736(5) 0.2033(4) 0.1485(4)
C6_4 C 0.6373(5) 0.2802(4) 0.2142(4)
H10_4 H 0.5789 0.3178 0.2342
C7_4 C 0.7871(5) 0.3016(3) 0.2505(4)
C8_4 C 0.8726(5) 0.2465(3) 0.2181(4)
H11_4 H 0.9736 0.2603 0.2428
C9_4 C 0.8996(6) 0.1126(4) 0.1119(4)
C10_4 C 0.4160(6) 0.1743(5) 0.1183(4)
C11_4 C 0.8593(7) 0.3803(4) 0.3298(4)
loop_
_geom_bond_atom_site_label_1
_geom_bond_atom_site_label_2
_geom_bond_site_symmetry_1
_geom_bond_site_symmetry_2
N1 H1 1_555 1_555
H2 N1 1_555 1_555
C1 N1 1_555 1_555
H3 C1 1_555 1_555
H4 C1 1_555 1_555
H5 C1 1_555 1_555
C2 N1 1_555 1_555
H6 C2 1_555 1_555
H7 C2 1_555 1_555
H8 C2 1_555 1_555
N1_2 H1_2 1_555 1_555
H2_2 N1_2 1_555 1_555
C1_2 N1_2 1_555 1_555
H3_2 C1_2 1_555 1_555
H4_2 C1_2 1_555 1_555
H5_2 C1_2 1_555 1_555
C2_2 N1_2 1_555 1_555
H6_2 C2_2 1_555 1_555
H7_2 C2_2 1_555 1_555
H8_2 C2_2 1_555 1_555
N1_3 H1_3 1_555 1_555
H2_3 N1_3 1_555 1_555
C1_3 N1_3 1_555 1_555
H3_3 C1_3 1_555 1_555
H4_3 C1_3 1_555 1_555
H5_3 C1_3 1_555 1_555
C2_3 N1_3 1_555 1_555
H6_3 C2_3 1_555 1_555
H7_3 C2_3 1_555 1_555
H8_3 C2_3 1_555 1_555
N1_4 H1_4 1_555 1_555
H2_4 N1_4 1_555 1_555
C1_4 N1_4 1_555 1_555
H3_4 C1_4 1_555 1_555
H4_4 C1_4 1_555 1_555
H5_4 C1_4 1_555 1_555
C2_4 N1_4 1_555 1_555
H6_4 C2_4 1_555 1_555
H7_4 C2_4 1_555 1_555
H8_4 C2_4 1_555 1_555
Cd1 O1 1_555 1_555
O7 Cd1 1_555 1_555
O8 Cd1 1_555 1_555
O9 Cd1 1_555 1_555
O10 Cd1 1_555 1_555
O2 C9 1_555 1_555
O8 C10 1_555 1_555
O9 C10 1_555 1_555
O5 C11 1_555 1_555
O6 C11 1_555 1_555
C3 C4 1_555 1_555
C4 H9 1_555 1_555
C5 C4 1_555 1_555
C6 C5 1_555 1_555
H10 C6 1_555 1_555
C7 C6 1_555 1_555
C8 C3 1_555 1_555
H11 C8 1_555 1_555
C9 C3 1_555 1_555
C10 C5 1_555 1_555
C11 C7 1_555 1_555
Cd4 O2 1_555 1_555
C7 C8 1_555 1_555
O2_2 C9_2 1_555 1_555
O3 C10_2 1_555 1_555
O4 C10_2 1_555 1_555
O10 C11_2 1_555 1_555
O6_2 C11_2 1_555 1_555
C3_2 C4_2 1_555 1_555
C4_2 H9_2 1_555 1_555
C5_2 C4_2 1_555 1_555
C6_2 C5_2 1_555 1_555
H10_2 C6_2 1_555 1_555
C7_2 C6_2 1_555 1_555
C8_2 C3_2 1_555 1_555
H11_2 C8_2 1_555 1_555
C9_2 C3_2 1_555 1_555
C10_2 C5_2 1_555 1_555
C11_2 C7_2 1_555 1_555
Cd3 O3 1_555 1_555
O4 Cd3 1_555 1_555
C7_2 C8_2 1_555 1_555
Cd3 O1_2 1_555 1_555
O7 C9_3 1_555 1_555
O3_2 C10_3 1_555 1_555
O4_2 C10_3 1_555 1_555
O5_2 C11_3 1_555 1_555
O11_2 C11_3 1_555 1_555
C3_3 C4_3 1_555 1_555
C4_3 H9_3 1_555 1_555
C5_3 C4_3 1_555 1_555
C6_3 C5_3 1_555 1_555
H10_3 C6_3 1_555 1_555
C7_3 C6_3 1_555 1_555
C8_3 C3_3 1_555 1_555
H11_3 C8_3 1_555 1_555
C9_3 C3_3 1_555 1_555
C10_3 C5_3 1_555 1_555
C11_3 C7_3 1_555 1_555
Cd4 O3_2 1_555 1_555
O4_2 Cd4 1_555 1_555
C7_3 C8_3 1_555 1_555
Cd4 O1_3 1_555 1_555
O10_2 Cd4 1_555 1_555
Cd5 O1_4 1_555 1_555
O8_2 Cd5 1_555 1_555
O9_2 Cd5 1_555 1_555
O7_2 C9_4 1_555 1_555
O8_2 C10_4 1_555 1_555
O9_2 C10_4 1_555 1_555
O10_2 C11_4 1_555 1_555
O11 C11_4 1_555 1_555
C3_4 C4_4 1_555 1_555
C4_4 H9_4 1_555 1_555
C5_4 C4_4 1_555 1_555
C6_4 C5_4 1_555 1_555
H10_4 C6_4 1_555 1_555
C7_4 C6_4 1_555 1_555
C8_4 C3_4 1_555 1_555
H11_4 C8_4 1_555 1_555
C9_4 C3_4 1_555 1_555
C10_4 C5_4 1_555 1_555
C11_4 C7_4 1_555 1_555
C7_4 C8_4 1_555 1_555

#END
