
###############################################################################
#
# This file contains modified crystal structure data generated from the
# MOF subset of the Cambridge Structural Database (CSD) v543 
# hosted by the Cambridge Crystallographic Data Centre (CCDC).
#
# This work is licensed under the Creative Commons
# Attribution-NonCommercial-ShareAlike 4.0 International License.
# To view a copy of this license, visit
# http://creativecommons.org/licenses/by-nc-sa/4.0/
# or send a letter to
# Creative Commons, PO Box 1866, Mountain View, CA 94042, USA.
#
# CIF created using the CSD Python API on 29 September 2022
# The structure has been converted into the P1 space group
# The structure has a 3D framework
# The original CSD entry YEYVII is in the cubic crystal system
# The framework has been calculated to contain at least 10.0% void space
# The void calculation uses a probe of radius 1.32A, grid spacing 0.4
#
###############################################################################

data_YEYVII
_chemical_formula_moiety         '(C480 H576 Ag84 N192)n'
_symmetry_cell_setting           triclinic
_symmetry_space_group_name_H-M   'P 1'
_symmetry_Int_Tables_number      1
_space_group_name_Hall           'P 1'
loop_
_symmetry_equiv_pos_site_id
_symmetry_equiv_pos_as_xyz
1 x,y,z
_cell_length_a                   27.2326(15)
_cell_length_b                   27.2326(15)
_cell_length_c                   27.2326(15)
_cell_angle_alpha                90
_cell_angle_beta                 90
_cell_angle_gamma                90
_cell_volume                     20196.1
loop_
_atom_site_label
_atom_site_type_symbol
_atom_site_fract_x
_atom_site_fract_y
_atom_site_fract_z
Ag2 Ag 0.22598(3) 0.14060(3) 0.23274(3)
N1 N 0.4179(4) 0.0271(3) 0.0612(3)
N2 N 0.4501(3) 0.0654(3) 0.0700(4)
N3 N 0.2778(3) 0.1359(4) 0.1799(3)
N4 N 0.2812(4) 0.1690(4) 0.1411(4)
C1 C 0.3311(4) 0.0056(5) 0.0820(5)
H2 H 0.3034 0.0220 0.0667
C2 C 0.3751(4) 0.0404(4) 0.0830(4)
C3 C 0.3797(5) 0.0854(4) 0.1064(4)
C4 C 0.4271(5) 0.0993(5) 0.0959(4)
C5 C 0.4523(5) 0.1464(5) 0.1093(5)
H4 H 0.4858 0.1459 0.0970
H5 H 0.4528 0.1500 0.1447
H6 H 0.4348 0.1738 0.0948
C6 C 0.3198(5) 0.0605(4) 0.2080(4)
H7 H 0.2964 0.0648 0.2346
H8 H 0.3528 0.0598 0.2213
H9 H 0.3130 0.0299 0.1911
C7 C 0.3152(4) 0.1023(4) 0.1728(4)
C8 C 0.3396(4) 0.1139(5) 0.1300(5)
C9 C 0.3172(5) 0.1561(5) 0.1133(6)
C10 C 0.3279(5) 0.1841(5) 0.0679(5)
H10 H 0.3059 0.2121 0.0658
H11 H 0.3231 0.1631 0.0396
H12 H 0.3616 0.1955 0.0686
Ag3 Ag 0.51033(3) 0.06984(3) 0.02548(4)
Ag4 Ag 0.23274(3) 0.22598(3) 0.14060(3)
N6 N 0.1690(4) 0.1411(4) 0.2812(4)
Ag1 Ag 0.06984(3) 0.02548(4) 0.51033(3)
H1 H 0.1605 0.0235 0.5633
H3 H 0.1774 0.0037 0.6153
N5 N 0.0654(3) 0.0700(4) 0.4501(3)
N1_2 N 0.0612(3) 0.4179(4) 0.0271(3)
N2_2 N 0.0700(4) 0.4501(3) 0.0654(3)
N3_2 N 0.1799(3) 0.2778(3) 0.1359(4)
N4_2 N 0.1411(4) 0.2812(4) 0.1690(4)
C1_2 C 0.0820(5) 0.3311(4) 0.0056(5)
H2_2 H 0.0667 0.3034 0.0220
C2_2 C 0.0830(4) 0.3751(4) 0.0404(4)
C3_2 C 0.1064(4) 0.3797(5) 0.0854(4)
C4_2 C 0.0959(4) 0.4271(5) 0.0993(5)
C5_2 C 0.1093(5) 0.4523(5) 0.1464(5)
H4_2 H 0.0970 0.4858 0.1459
H5_2 H 0.1447 0.4528 0.1500
H6_2 H 0.0948 0.4348 0.1738
C6_2 C 0.2080(4) 0.3198(5) 0.0605(4)
H7_2 H 0.2346 0.2964 0.0648
H8_2 H 0.2213 0.3528 0.0598
H9_2 H 0.1911 0.3130 0.0299
C7_2 C 0.1728(4) 0.3152(4) 0.1023(4)
C8_2 C 0.1300(5) 0.3396(4) 0.1139(5)
C9_2 C 0.1133(6) 0.3172(5) 0.1561(5)
C10_2 C 0.0679(5) 0.3279(5) 0.1841(5)
H10_2 H 0.0658 0.3059 0.2121
H11_2 H 0.0396 0.3231 0.1631
H12_2 H 0.0686 0.3616 0.1955
Ag3_2 Ag 0.02548(4) 0.51033(3) 0.06984(3)
Ag4_2 Ag 0.14060(3) 0.23274(3) 0.22598(3)
H1_2 H 0.5633 0.1605 0.0235
H3_2 H 0.6153 0.1774 0.0037
N1_3 N 0.0271(3) 0.0612(3) 0.4179(4)
N3_3 N 0.1359(4) 0.1799(3) 0.2778(3)
C1_3 C 0.0056(5) 0.0820(5) 0.3311(4)
H2_3 H 0.0220 0.0667 0.3034
C2_3 C 0.0404(4) 0.0830(4) 0.3751(4)
C3_3 C 0.0854(4) 0.1064(4) 0.3797(5)
C4_3 C 0.0993(5) 0.0959(4) 0.4271(5)
C5_3 C 0.1464(5) 0.1093(5) 0.4523(5)
H4_3 H 0.1459 0.0970 0.4858
H5_3 H 0.1500 0.1447 0.4528
H6_3 H 0.1738 0.0948 0.4348
C6_3 C 0.0605(4) 0.2080(4) 0.3198(5)
H7_3 H 0.0648 0.2346 0.2964
H8_3 H 0.0598 0.2213 0.3528
H9_3 H 0.0299 0.1911 0.3130
C7_3 C 0.1023(4) 0.1728(4) 0.3152(4)
C8_3 C 0.1139(5) 0.1300(5) 0.3396(4)
C9_3 C 0.1561(5) 0.1133(6) 0.3172(5)
C10_3 C 0.1841(5) 0.0679(5) 0.3279(5)
H10_3 H 0.2121 0.0658 0.3059
H11_3 H 0.1631 0.0396 0.3231
H12_3 H 0.1955 0.0686 0.3616
H1_3 H 0.0235 0.5633 0.1605
H3_3 H 0.0037 0.6153 0.1774
Ag1_2 Ag 0.43016(3) 0.97452(4) 0.01033(3)
H1_4 H 0.3395 0.9765 0.0633
H3_4 H 0.3226 0.9963 0.1153
N5_2 N 0.4346(3) 0.9300(4) 0.9501(3)
Ag2_2 Ag 0.27402(3) 0.85940(3) 0.73274(3)
N1_4 N 0.0821(4) 0.9729(3) 0.5612(3)
N2_3 N 0.0499(3) 0.9346(3) 0.5700(4)
N3_4 N 0.2222(3) 0.8641(4) 0.6799(3)
N4_3 N 0.2188(4) 0.8310(4) 0.6411(4)
C1_4 C 0.1689(4) 0.9944(5) 0.5820(5)
H2_4 H 0.1966 0.9780 0.5667
C2_4 C 0.1249(4) 0.9596(4) 0.5830(4)
C3_4 C 0.1203(5) 0.9146(4) 0.6064(4)
C4_4 C 0.0729(5) 0.9007(5) 0.5959(4)
C5_4 C 0.0477(5) 0.8536(5) 0.6093(5)
H4_4 H 0.0142 0.8541 0.5970
H5_4 H 0.0472 0.8500 0.6447
H6_4 H 0.0652 0.8262 0.5948
C6_4 C 0.1802(5) 0.9395(4) 0.7080(4)
H7_4 H 0.2036 0.9352 0.7346
H8_4 H 0.1472 0.9402 0.7213
H9_4 H 0.1870 0.9701 0.6911
C7_4 C 0.1848(4) 0.8977(4) 0.6728(4)
C8_4 C 0.1604(4) 0.8861(5) 0.6300(5)
C9_4 C 0.1828(5) 0.8439(5) 0.6133(6)
C10_4 C 0.1721(5) 0.8159(5) 0.5679(5)
H10_4 H 0.1941 0.7879 0.5658
H11_4 H 0.1769 0.8369 0.5396
H12_4 H 0.1384 0.8045 0.5686
Ag4_3 Ag 0.26726(3) 0.77402(3) 0.64060(3)
N6_2 N 0.3310(4) 0.8589(4) 0.7812(4)
Ag3_3 Ag 0.98967(3) 0.93016(3) 0.52548(4)
Ag1_3 Ag 0.56984(3) 0.47452(4) 0.48967(3)
Ag2_3 Ag 0.77402(3) 0.64060(3) 0.26726(3)
N1_5 N 0.5821(4) 0.5271(3) 0.4388(3)
N2_4 N 0.5499(3) 0.5654(3) 0.4300(4)
N3_5 N 0.7222(3) 0.6359(4) 0.3201(3)
N4_4 N 0.7188(4) 0.6690(4) 0.3589(4)
C1_5 C 0.6689(4) 0.5056(5) 0.4180(5)
H1_5 H 0.6605 0.4765 0.4367
H2_5 H 0.6966 0.5220 0.4333
H3_5 H 0.6774 0.4963 0.3847
C2_5 C 0.6249(4) 0.5404(4) 0.4170(4)
C3_5 C 0.6203(5) 0.5854(4) 0.3936(4)
C4_5 C 0.5729(5) 0.5993(5) 0.4041(4)
C5_5 C 0.5477(5) 0.6464(5) 0.3907(5)
H4_5 H 0.5142 0.6459 0.4030
H5_5 H 0.5472 0.6500 0.3553
H6_5 H 0.5652 0.6738 0.4052
C6_5 C 0.6802(5) 0.5605(4) 0.2920(4)
H7_5 H 0.7036 0.5648 0.2654
H8_5 H 0.6472 0.5598 0.2787
H9_5 H 0.6870 0.5299 0.3089
C7_5 C 0.6848(4) 0.6023(4) 0.3272(4)
C8_5 C 0.6604(4) 0.6139(5) 0.3700(5)
C9_5 C 0.6828(5) 0.6561(5) 0.3867(6)
C10_5 C 0.6721(5) 0.6841(5) 0.4321(5)
H10_5 H 0.6941 0.7121 0.4342
H11_5 H 0.6769 0.6631 0.4604
H12_5 H 0.6384 0.6955 0.4314
Ag3_4 Ag 0.48967(3) 0.56984(3) 0.47452(4)
Ag4_4 Ag 0.76726(3) 0.72598(3) 0.35940(3)
N5_3 N 0.5654(3) 0.4300(4) 0.5499(3)
N6_3 N 0.8310(4) 0.6411(4) 0.2188(4)
N5_4 N 0.9346(3) 0.5700(4) 0.0499(3)
Ag1_4 Ag 0.93016(3) 0.52548(4) 0.98967(3)
Ag2_4 Ag 0.72598(3) 0.35940(3) 0.76726(3)
N1_6 N 0.9179(4) 0.4729(3) 0.9388(3)
N2_5 N 0.9501(3) 0.4346(3) 0.9300(4)
N3_6 N 0.7778(3) 0.3641(4) 0.8201(3)
N4_5 N 0.7812(4) 0.3310(4) 0.8589(4)
C1_6 C 0.8311(4) 0.4944(5) 0.9180(5)
H1_6 H 0.8395 0.5235 0.9367
H2_6 H 0.8034 0.4780 0.9333
H3_6 H 0.8226 0.5037 0.8847
C2_6 C 0.8751(4) 0.4596(4) 0.9170(4)
C3_6 C 0.8797(5) 0.4146(4) 0.8936(4)
C4_6 C 0.9271(5) 0.4007(5) 0.9041(4)
C5_6 C 0.9523(5) 0.3536(5) 0.8907(5)
H4_6 H 0.9858 0.3541 0.9030
H5_6 H 0.9528 0.3500 0.8553
H6_6 H 0.9348 0.3262 0.9052
C6_6 C 0.8198(5) 0.4395(4) 0.7920(4)
H7_6 H 0.7964 0.4352 0.7654
H8_6 H 0.8528 0.4402 0.7787
H9_6 H 0.8130 0.4701 0.8089
C7_6 C 0.8152(4) 0.3977(4) 0.8272(4)
C8_6 C 0.8396(4) 0.3861(5) 0.8700(5)
C9_6 C 0.8172(5) 0.3439(5) 0.8867(6)
C10_6 C 0.8279(5) 0.3159(5) 0.9321(5)
H10_6 H 0.8059 0.2879 0.9342
H11_6 H 0.8231 0.3369 0.9604
H12_6 H 0.8616 0.3045 0.9314
Ag4_5 Ag 0.73274(3) 0.27402(3) 0.85940(3)
N6_4 N 0.6690(4) 0.3589(4) 0.7188(4)
N1_7 N 0.5612(3) 0.0821(4) 0.9729(3)
N2_6 N 0.5700(4) 0.0499(3) 0.9346(3)
N3_7 N 0.6799(3) 0.2222(3) 0.8641(4)
N4_6 N 0.6411(4) 0.2188(4) 0.8310(4)
C1_7 C 0.5820(5) 0.1689(4) 0.9944(5)
H2_7 H 0.5667 0.1966 0.9780
C2_7 C 0.5830(4) 0.1249(4) 0.9596(4)
C3_7 C 0.6064(4) 0.1203(5) 0.9146(4)
C4_7 C 0.5959(4) 0.0729(5) 0.9007(5)
C5_7 C 0.6093(5) 0.0477(5) 0.8536(5)
H4_7 H 0.5970 0.0142 0.8541
H5_7 H 0.6447 0.0472 0.8500
H6_7 H 0.5948 0.0652 0.8262
C6_7 C 0.7080(4) 0.1802(5) 0.9395(4)
H7_7 H 0.7346 0.2036 0.9352
H8_7 H 0.7213 0.1472 0.9402
H9_7 H 0.6911 0.1870 0.9701
C7_7 C 0.6728(4) 0.1848(4) 0.8977(4)
C8_7 C 0.6300(5) 0.1604(4) 0.8861(5)
C9_7 C 0.6133(6) 0.1828(5) 0.8439(5)
C10_7 C 0.5679(5) 0.1721(5) 0.8159(5)
H10_7 H 0.5658 0.1941 0.7879
H11_7 H 0.5396 0.1769 0.8369
H12_7 H 0.5686 0.1384 0.8045
Ag4_6 Ag 0.64060(3) 0.26726(3) 0.77402(3)
Ag3_5 Ag 0.52548(4) 0.98967(3) 0.93016(3)
N1_8 N 0.4388(3) 0.5821(4) 0.5271(3)
N2_7 N 0.4300(4) 0.5499(3) 0.5654(3)
N3_8 N 0.3201(3) 0.7222(3) 0.6359(4)
N4_7 N 0.3589(4) 0.7188(4) 0.6690(4)
C1_8 C 0.4180(5) 0.6689(4) 0.5056(5)
H1_7 H 0.4367 0.6605 0.4765
H2_8 H 0.4333 0.6966 0.5220
H3_7 H 0.3847 0.6774 0.4963
C2_8 C 0.4170(4) 0.6249(4) 0.5404(4)
C3_8 C 0.3936(4) 0.6203(5) 0.5854(4)
C4_8 C 0.4041(4) 0.5729(5) 0.5993(5)
C5_8 C 0.3907(5) 0.5477(5) 0.6464(5)
H4_8 H 0.4030 0.5142 0.6459
H5_8 H 0.3553 0.5472 0.6500
H6_8 H 0.4052 0.5652 0.6738
C6_8 C 0.2920(4) 0.6802(5) 0.5605(4)
H7_8 H 0.2654 0.7036 0.5648
H8_8 H 0.2787 0.6472 0.5598
H9_8 H 0.3089 0.6870 0.5299
C7_8 C 0.3272(4) 0.6848(4) 0.6023(4)
C8_8 C 0.3700(5) 0.6604(4) 0.6139(5)
C9_8 C 0.3867(6) 0.6828(5) 0.6561(5)
C10_8 C 0.4321(5) 0.6721(5) 0.6841(5)
H10_8 H 0.4342 0.6941 0.7121
H11_8 H 0.4604 0.6769 0.6631
H12_8 H 0.4314 0.6384 0.6955
Ag3_6 Ag 0.47452(4) 0.48967(3) 0.56984(3)
Ag4_7 Ag 0.35940(3) 0.76726(3) 0.72598(3)
N1_9 N 0.9388(3) 0.9179(4) 0.4729(3)
N2_8 N 0.9300(4) 0.9501(3) 0.4346(3)
N3_9 N 0.8201(3) 0.7778(3) 0.3641(4)
N4_8 N 0.8589(4) 0.7812(4) 0.3310(4)
C1_9 C 0.9180(5) 0.8311(4) 0.4944(5)
H1_8 H 0.9367 0.8395 0.5235
H2_9 H 0.9333 0.8034 0.4780
H3_8 H 0.8847 0.8226 0.5037
C2_9 C 0.9170(4) 0.8751(4) 0.4596(4)
C3_9 C 0.8936(4) 0.8797(5) 0.4146(4)
C4_9 C 0.9041(4) 0.9271(5) 0.4007(5)
C5_9 C 0.8907(5) 0.9523(5) 0.3536(5)
H4_9 H 0.9030 0.9858 0.3541
H5_9 H 0.8553 0.9528 0.3500
H6_9 H 0.9052 0.9348 0.3262
C6_9 C 0.7920(4) 0.8198(5) 0.4395(4)
H7_9 H 0.7654 0.7964 0.4352
H8_9 H 0.7787 0.8528 0.4402
H9_9 H 0.8089 0.8130 0.4701
C7_9 C 0.8272(4) 0.8152(4) 0.3977(4)
C8_9 C 0.8700(5) 0.8396(4) 0.3861(5)
C9_9 C 0.8867(6) 0.8172(5) 0.3439(5)
C10_9 C 0.9321(5) 0.8279(5) 0.3159(5)
H10_9 H 0.9342 0.8059 0.2879
H11_9 H 0.9604 0.8231 0.3369
H12_9 H 0.9314 0.8616 0.3045
Ag4_8 Ag 0.85940(3) 0.73274(3) 0.27402(3)
N1_10 N 0.9729(3) 0.5612(3) 0.0821(4)
N3_10 N 0.8641(4) 0.6799(3) 0.2222(3)
C1_10 C 0.9944(5) 0.5820(5) 0.1689(4)
H2_10 H 0.9780 0.5667 0.1966
C2_10 C 0.9596(4) 0.5830(4) 0.1249(4)
C3_10 C 0.9146(4) 0.6064(4) 0.1203(5)
C4_10 C 0.9007(5) 0.5959(4) 0.0729(5)
C5_10 C 0.8536(5) 0.6093(5) 0.0477(5)
H4_10 H 0.8541 0.5970 0.0142
H5_10 H 0.8500 0.6447 0.0472
H6_10 H 0.8262 0.5948 0.0652
C6_10 C 0.9395(4) 0.7080(4) 0.1802(5)
H7_10 H 0.9352 0.7346 0.2036
H8_10 H 0.9402 0.7213 0.1472
H9_10 H 0.9701 0.6911 0.1870
C7_10 C 0.8977(4) 0.6728(4) 0.1848(4)
C8_10 C 0.8861(5) 0.6300(5) 0.1604(4)
C9_10 C 0.8439(5) 0.6133(6) 0.1828(5)
C10_10 C 0.8159(5) 0.5679(5) 0.1721(5)
H10_10 H 0.7879 0.5658 0.1941
H11_10 H 0.8369 0.5396 0.1769
H12_10 H 0.8045 0.5686 0.1384
N1_11 N 0.5271(3) 0.4388(3) 0.5821(4)
N3_11 N 0.6359(4) 0.3201(3) 0.7222(3)
C1_11 C 0.5056(5) 0.4180(5) 0.6689(4)
H1_9 H 0.4765 0.4367 0.6605
H2_11 H 0.5220 0.4333 0.6966
H3_9 H 0.4963 0.3847 0.6774
C2_11 C 0.5404(4) 0.4170(4) 0.6249(4)
C3_11 C 0.5854(4) 0.3936(4) 0.6203(5)
C4_11 C 0.5993(5) 0.4041(4) 0.5729(5)
C5_11 C 0.6464(5) 0.3907(5) 0.5477(5)
H4_11 H 0.6459 0.4030 0.5142
H5_11 H 0.6500 0.3553 0.5472
H6_11 H 0.6738 0.4052 0.5652
C6_11 C 0.5605(4) 0.2920(4) 0.6802(5)
H7_11 H 0.5648 0.2654 0.7036
H8_11 H 0.5598 0.2787 0.6472
H9_11 H 0.5299 0.3089 0.6870
C7_11 C 0.6023(4) 0.3272(4) 0.6848(4)
C8_11 C 0.6139(5) 0.3700(5) 0.6604(4)
C9_11 C 0.6561(5) 0.3867(6) 0.6828(5)
C10_11 C 0.6841(5) 0.4321(5) 0.6721(5)
H10_11 H 0.7121 0.4342 0.6941
H11_11 H 0.6631 0.4604 0.6769
H12_11 H 0.6955 0.4314 0.6384
N1_12 N 0.4729(3) 0.9388(3) 0.9179(4)
N3_12 N 0.3641(4) 0.8201(3) 0.7778(3)
C1_12 C 0.4944(5) 0.9180(5) 0.8311(4)
H1_10 H 0.5235 0.9367 0.8395
H2_12 H 0.4780 0.9333 0.8034
H3_10 H 0.5037 0.8847 0.8226
C2_12 C 0.4596(4) 0.9170(4) 0.8751(4)
C3_12 C 0.4146(4) 0.8936(4) 0.8797(5)
C4_12 C 0.4007(5) 0.9041(4) 0.9271(5)
C5_12 C 0.3536(5) 0.8907(5) 0.9523(5)
H4_12 H 0.3541 0.9030 0.9858
H5_12 H 0.3500 0.8553 0.9528
H6_12 H 0.3262 0.9052 0.9348
C6_12 C 0.4395(4) 0.7920(4) 0.8198(5)
H7_12 H 0.4352 0.7654 0.7964
H8_12 H 0.4402 0.7787 0.8528
H9_12 H 0.4701 0.8089 0.8130
C7_12 C 0.3977(4) 0.8272(4) 0.8152(4)
C8_12 C 0.3861(5) 0.8700(5) 0.8396(4)
C9_12 C 0.3439(5) 0.8867(6) 0.8172(5)
C10_12 C 0.3159(5) 0.9321(5) 0.8279(5)
H10_12 H 0.2879 0.9342 0.8059
H11_12 H 0.3369 0.9604 0.8231
H12_12 H 0.3045 0.9314 0.8616
Ag3_7 Ag 0.01033(3) 0.43016(3) 0.97452(4)
H1_11 H 0.0633 0.3395 0.9765
H3_11 H 0.1153 0.3226 0.9963
Ag3_8 Ag 0.97452(4) 0.01033(3) 0.43016(3)
H1_12 H 0.9765 0.0633 0.3395
H3_12 H 0.9963 0.1153 0.3226
Ag1_5 Ag 0.22452(4) 0.68016(3) 0.26033(3)
Ag2_5 Ag 0.39060(3) 0.47598(3) 0.48274(3)
N1_13 N 0.2771(3) 0.6679(4) 0.3112(3)
N2_9 N 0.3154(3) 0.7001(3) 0.3200(4)
N3_13 N 0.3859(4) 0.5278(3) 0.4299(3)
N4_9 N 0.4190(4) 0.5312(4) 0.3911(4)
C1_13 C 0.2556(5) 0.5811(4) 0.3320(5)
H1_13 H 0.2265 0.5895 0.3133
H2_13 H 0.2720 0.5534 0.3167
H3_13 H 0.2463 0.5726 0.3653
C2_13 C 0.2904(4) 0.6251(4) 0.3330(4)
C3_13 C 0.3354(4) 0.6297(5) 0.3564(4)
C4_13 C 0.3493(5) 0.6771(5) 0.3459(4)
C5_13 C 0.3964(5) 0.7023(5) 0.3593(5)
H4_13 H 0.3959 0.7358 0.3470
H5_13 H 0.4000 0.7028 0.3947
H6_13 H 0.4238 0.6848 0.3448
C6_13 C 0.3105(4) 0.5698(5) 0.4580(4)
H7_13 H 0.3148 0.5464 0.4846
H8_13 H 0.3098 0.6028 0.4713
H9_13 H 0.2799 0.5630 0.4411
C7_13 C 0.3523(4) 0.5652(4) 0.4228(4)
C8_13 C 0.3639(5) 0.5896(4) 0.3800(5)
C9_13 C 0.4061(5) 0.5672(5) 0.3633(6)
C10_13 C 0.4341(5) 0.5779(5) 0.3179(5)
H10_13 H 0.4621 0.5559 0.3158
H11_13 H 0.4131 0.5731 0.2896
H12_13 H 0.4455 0.6116 0.3186
Ag3_9 Ag 0.31984(3) 0.76033(3) 0.27548(4)
Ag4_9 Ag 0.47598(3) 0.48274(3) 0.39060(3)
N5_5 N 0.1800(4) 0.6846(3) 0.2001(3)
N6_5 N 0.3911(4) 0.4190(4) 0.5312(4)
N6_6 N 0.1089(4) 0.5810(4) 0.0312(4)
Ag1_6 Ag 0.27548(4) 0.31984(3) 0.76033(3)
Ag2_6 Ag 0.10940(3) 0.52402(3) 0.98274(3)
N1_14 N 0.2229(3) 0.3321(4) 0.8112(3)
N2_10 N 0.1846(3) 0.2999(3) 0.8200(4)
N3_14 N 0.1141(4) 0.4722(3) 0.9299(3)
N4_10 N 0.0810(4) 0.4688(4) 0.8911(4)
C1_14 C 0.2444(5) 0.4189(4) 0.8320(5)
H1_14 H 0.2735 0.4105 0.8133
H2_14 H 0.2280 0.4466 0.8167
H3_14 H 0.2537 0.4274 0.8653
C2_14 C 0.2096(4) 0.3749(4) 0.8330(4)
C3_14 C 0.1646(4) 0.3703(5) 0.8564(4)
C4_14 C 0.1507(5) 0.3229(5) 0.8459(4)
C5_14 C 0.1036(5) 0.2977(5) 0.8593(5)
H4_14 H 0.1041 0.2642 0.8470
H5_14 H 0.1000 0.2972 0.8947
H6_14 H 0.0762 0.3152 0.8448
C6_14 C 0.1895(4) 0.4302(5) 0.9580(4)
H7_14 H 0.1852 0.4536 0.9846
H8_14 H 0.1902 0.3972 0.9713
H9_14 H 0.2201 0.4370 0.9411
C7_14 C 0.1477(4) 0.4348(4) 0.9228(4)
C8_14 C 0.1361(5) 0.4104(4) 0.8800(5)
C9_14 C 0.0939(5) 0.4328(5) 0.8633(6)
C10_14 C 0.0659(5) 0.4221(5) 0.8179(5)
H10_14 H 0.0379 0.4441 0.8158
H11_14 H 0.0869 0.4269 0.7896
H12_14 H 0.0545 0.3884 0.8186
Ag3_10 Ag 0.18016(3) 0.23967(3) 0.77548(4)
Ag4_10 Ag 0.02402(3) 0.51726(3) 0.89060(3)
N5_6 N 0.3200(4) 0.3154(3) 0.7001(3)
Ag2_7 Ag 0.89060(3) 0.02402(3) 0.51726(3)
Ag4_11 Ag 0.97598(3) 0.01726(3) 0.60940(3)
N6_7 N 0.8911(4) 0.0810(4) 0.4688(4)
Ag1_7 Ag 0.77548(4) 0.18016(3) 0.23967(3)
N1_15 N 0.7229(3) 0.1679(4) 0.1888(3)
N2_11 N 0.6846(3) 0.2001(3) 0.1800(4)
N3_15 N 0.6141(4) 0.0278(3) 0.0701(3)
N4_11 N 0.5810(4) 0.0312(4) 0.1089(4)
C1_15 C 0.7444(5) 0.0811(4) 0.1680(5)
H1_15 H 0.7735 0.0895 0.1867
H2_15 H 0.7280 0.0534 0.1833
H3_15 H 0.7537 0.0726 0.1347
C2_15 C 0.7096(4) 0.1251(4) 0.1670(4)
C3_15 C 0.6646(4) 0.1297(5) 0.1436(4)
C4_15 C 0.6507(5) 0.1771(5) 0.1541(4)
C5_15 C 0.6036(5) 0.2023(5) 0.1407(5)
H4_15 H 0.6041 0.2358 0.1530
H5_15 H 0.6000 0.2028 0.1053
H6_15 H 0.5762 0.1848 0.1552
C6_15 C 0.6895(4) 0.0698(5) 0.0420(4)
H7_15 H 0.6852 0.0464 0.0154
H8_15 H 0.6902 0.1028 0.0287
H9_15 H 0.7201 0.0630 0.0589
C7_15 C 0.6477(4) 0.0652(4) 0.0772(4)
C8_15 C 0.6361(5) 0.0896(4) 0.1200(5)
C9_15 C 0.5939(5) 0.0672(5) 0.1367(6)
C10_15 C 0.5659(5) 0.0779(5) 0.1821(5)
H10_15 H 0.5379 0.0559 0.1842
H11_15 H 0.5869 0.0731 0.2104
H12_15 H 0.5545 0.1116 0.1814
Ag3_11 Ag 0.68016(3) 0.26033(3) 0.22452(4)
N5_7 N 0.8200(4) 0.1846(3) 0.2999(3)
Ag2_8 Ag 0.60940(3) 0.97598(3) 0.01726(3)
Ag4_12 Ag 0.52402(3) 0.98274(3) 0.10940(3)
N1_16 N 0.6679(4) 0.3112(3) 0.2771(3)
N2_12 N 0.7001(3) 0.3200(4) 0.3154(3)
N3_16 N 0.5278(3) 0.4299(3) 0.3859(4)
N4_12 N 0.5312(4) 0.3911(4) 0.4190(4)
C1_16 C 0.5811(4) 0.3320(5) 0.2556(5)
H1_16 H 0.5895 0.3133 0.2265
H2_16 H 0.5534 0.3167 0.2720
H3_16 H 0.5726 0.3653 0.2463
C2_16 C 0.6251(4) 0.3330(4) 0.2904(4)
C3_16 C 0.6297(5) 0.3564(4) 0.3354(4)
C4_16 C 0.6771(5) 0.3459(4) 0.3493(5)
C5_16 C 0.7023(5) 0.3593(5) 0.3964(5)
H4_16 H 0.7358 0.3470 0.3959
H5_16 H 0.7028 0.3947 0.4000
H6_16 H 0.6848 0.3448 0.4238
C6_16 C 0.5698(5) 0.4580(4) 0.3105(4)
H7_16 H 0.5464 0.4846 0.3148
H8_16 H 0.6028 0.4713 0.3098
H9_16 H 0.5630 0.4411 0.2799
C7_16 C 0.5652(4) 0.4228(4) 0.3523(4)
C8_16 C 0.5896(4) 0.3800(5) 0.3639(5)
C9_16 C 0.5672(5) 0.3633(6) 0.4061(5)
C10_16 C 0.5779(5) 0.3179(5) 0.4341(5)
H10_16 H 0.5559 0.3158 0.4621
H11_16 H 0.5731 0.2896 0.4131
H12_16 H 0.6116 0.3186 0.4455
Ag3_12 Ag 0.76033(3) 0.27548(4) 0.31984(3)
Ag4_13 Ag 0.48274(3) 0.39060(3) 0.47598(3)
N1_17 N 0.3321(4) 0.8112(3) 0.2229(3)
N2_13 N 0.2999(3) 0.8200(4) 0.1846(3)
N3_17 N 0.4722(3) 0.9299(3) 0.1141(4)
N4_13 N 0.4688(4) 0.8911(4) 0.0810(4)
C1_17 C 0.4189(4) 0.8320(5) 0.2444(5)
H1_17 H 0.4105 0.8133 0.2735
H2_17 H 0.4466 0.8167 0.2280
H3_17 H 0.4274 0.8653 0.2537
C2_17 C 0.3749(4) 0.8330(4) 0.2096(4)
C3_17 C 0.3703(5) 0.8564(4) 0.1646(4)
C4_17 C 0.3229(5) 0.8459(4) 0.1507(5)
C5_17 C 0.2977(5) 0.8593(5) 0.1036(5)
H4_17 H 0.2642 0.8470 0.1041
H5_17 H 0.2972 0.8947 0.1000
H6_17 H 0.3152 0.8448 0.0762
C6_17 C 0.4302(5) 0.9580(4) 0.1895(4)
H7_17 H 0.4536 0.9846 0.1852
H8_17 H 0.3972 0.9713 0.1902
H9_17 H 0.4370 0.9411 0.2201
C7_17 C 0.4348(4) 0.9228(4) 0.1477(4)
C8_17 C 0.4104(4) 0.8800(5) 0.1361(5)
C9_17 C 0.4328(5) 0.8633(6) 0.0939(5)
C10_17 C 0.4221(5) 0.8179(5) 0.0659(5)
H10_17 H 0.4441 0.8158 0.0379
H11_17 H 0.4269 0.7896 0.0869
H12_17 H 0.3884 0.8186 0.0545
Ag3_13 Ag 0.23967(3) 0.77548(4) 0.18016(3)
Ag4_14 Ag 0.51726(3) 0.89060(3) 0.02402(3)
Ag4_15 Ag 0.01726(3) 0.60940(3) 0.97598(3)
N1_18 N 0.1679(4) 0.1888(3) 0.7229(3)
N2_14 N 0.2001(3) 0.1800(4) 0.6846(3)
N3_18 N 0.0278(3) 0.0701(3) 0.6141(4)
N4_14 N 0.0312(4) 0.1089(4) 0.5810(4)
C1_18 C 0.0811(4) 0.1680(5) 0.7444(5)
H1_18 H 0.0895 0.1867 0.7735
H2_18 H 0.0534 0.1833 0.7280
H3_18 H 0.0726 0.1347 0.7537
C2_18 C 0.1251(4) 0.1670(4) 0.7096(4)
C3_18 C 0.1297(5) 0.1436(4) 0.6646(4)
C4_18 C 0.1771(5) 0.1541(4) 0.6507(5)
C5_18 C 0.2023(5) 0.1407(5) 0.6036(5)
H4_18 H 0.2358 0.1530 0.6041
H5_18 H 0.2028 0.1053 0.6000
H6_18 H 0.1848 0.1552 0.5762
C6_18 C 0.0698(5) 0.0420(4) 0.6895(4)
H7_18 H 0.0464 0.0154 0.6852
H8_18 H 0.1028 0.0287 0.6902
H9_18 H 0.0630 0.0589 0.7201
C7_18 C 0.0652(4) 0.0772(4) 0.6477(4)
C8_18 C 0.0896(4) 0.1200(5) 0.6361(5)
C9_18 C 0.0672(5) 0.1367(6) 0.5939(5)
C10_18 C 0.0779(5) 0.1821(5) 0.5659(5)
H10_18 H 0.0559 0.1842 0.5379
H11_18 H 0.0731 0.2104 0.5869
H12_18 H 0.1116 0.1814 0.5545
Ag3_14 Ag 0.26033(3) 0.22452(4) 0.68016(3)
Ag4_16 Ag 0.98274(3) 0.10940(3) 0.52402(3)
N1_19 N 0.3112(3) 0.2771(3) 0.6679(4)
N3_19 N 0.4299(3) 0.3859(4) 0.5278(3)
C1_19 C 0.3320(5) 0.2556(5) 0.5811(4)
H1_19 H 0.3133 0.2265 0.5895
H2_19 H 0.3167 0.2720 0.5534
H3_19 H 0.3653 0.2463 0.5726
C2_19 C 0.3330(4) 0.2904(4) 0.6251(4)
C3_19 C 0.3564(4) 0.3354(4) 0.6297(5)
C4_19 C 0.3459(4) 0.3493(5) 0.6771(5)
C5_19 C 0.3593(5) 0.3964(5) 0.7023(5)
H4_19 H 0.3470 0.3959 0.7358
H5_19 H 0.3947 0.4000 0.7028
H6_19 H 0.3448 0.4238 0.6848
C6_19 C 0.4580(4) 0.3105(4) 0.5698(5)
H7_19 H 0.4846 0.3148 0.5464
H8_19 H 0.4713 0.3098 0.6028
H9_19 H 0.4411 0.2799 0.5630
C7_19 C 0.4228(4) 0.3523(4) 0.5652(4)
C8_19 C 0.3800(5) 0.3639(5) 0.5896(4)
C9_19 C 0.3633(6) 0.4061(5) 0.5672(5)
C10_19 C 0.3179(5) 0.4341(5) 0.5779(5)
H10_19 H 0.3158 0.4621 0.5559
H11_19 H 0.2896 0.4131 0.5731
H12_19 H 0.3186 0.4455 0.6116
N1_20 N 0.8112(3) 0.2229(3) 0.3321(4)
N3_20 N 0.9299(3) 0.1141(4) 0.4722(3)
C1_20 C 0.8320(5) 0.2444(5) 0.4189(4)
H1_20 H 0.8133 0.2735 0.4105
H2_20 H 0.8167 0.2280 0.4466
H3_20 H 0.8653 0.2537 0.4274
C2_20 C 0.8330(4) 0.2096(4) 0.3749(4)
C3_20 C 0.8564(4) 0.1646(4) 0.3703(5)
C4_20 C 0.8459(4) 0.1507(5) 0.3229(5)
C5_20 C 0.8593(5) 0.1036(5) 0.2977(5)
H4_20 H 0.8470 0.1041 0.2642
H5_20 H 0.8947 0.1000 0.2972
H6_20 H 0.8448 0.0762 0.3152
C6_20 C 0.9580(4) 0.1895(4) 0.4302(5)
H7_20 H 0.9846 0.1852 0.4536
H8_20 H 0.9713 0.1902 0.3972
H9_20 H 0.9411 0.2201 0.4370
C7_20 C 0.9228(4) 0.1477(4) 0.4348(4)
C8_20 C 0.8800(5) 0.1361(5) 0.4104(4)
C9_20 C 0.8633(6) 0.0939(5) 0.4328(5)
C10_20 C 0.8179(5) 0.0659(5) 0.4221(5)
H10_20 H 0.8158 0.0379 0.4441
H11_20 H 0.7896 0.0869 0.4269
H12_20 H 0.8186 0.0545 0.3884
N1_21 N 0.1888(3) 0.7229(3) 0.1679(4)
N3_21 N 0.0701(3) 0.6141(4) 0.0278(3)
C1_21 C 0.1680(5) 0.7444(5) 0.0811(4)
H1_21 H 0.1867 0.7735 0.0895
H2_21 H 0.1833 0.7280 0.0534
H3_21 H 0.1347 0.7537 0.0726
C2_21 C 0.1670(4) 0.7096(4) 0.1251(4)
C3_21 C 0.1436(4) 0.6646(4) 0.1297(5)
C4_21 C 0.1541(4) 0.6507(5) 0.1771(5)
C5_21 C 0.1407(5) 0.6036(5) 0.2023(5)
H4_21 H 0.1530 0.6041 0.2358
H5_21 H 0.1053 0.6000 0.2028
H6_21 H 0.1552 0.5762 0.1848
C6_21 C 0.0420(4) 0.6895(4) 0.0698(5)
H7_21 H 0.0154 0.6852 0.0464
H8_21 H 0.0287 0.6902 0.1028
H9_21 H 0.0589 0.7201 0.0630
C7_21 C 0.0772(4) 0.6477(4) 0.0652(4)
C8_21 C 0.1200(5) 0.6361(5) 0.0896(4)
C9_21 C 0.1367(6) 0.5939(5) 0.0672(5)
C10_21 C 0.1821(5) 0.5659(5) 0.0779(5)
H10_21 H 0.1842 0.5379 0.0559
H11_21 H 0.2104 0.5869 0.0731
H12_21 H 0.1814 0.5545 0.1116
Ag1_8 Ag 0.72452(4) 0.81984(3) 0.73967(3)
N1_22 N 0.7771(3) 0.8321(4) 0.6888(3)
N2_15 N 0.8154(3) 0.7999(3) 0.6800(4)
N3_22 N 0.8859(4) 0.9722(3) 0.5701(3)
N4_15 N 0.9190(4) 0.9688(4) 0.6089(4)
C1_22 C 0.7556(5) 0.9189(4) 0.6680(5)
H1_22 H 0.7265 0.9105 0.6867
H2_22 H 0.7720 0.9466 0.6833
H3_22 H 0.7463 0.9274 0.6347
C2_22 C 0.7904(4) 0.8749(4) 0.6670(4)
C3_22 C 0.8354(4) 0.8703(5) 0.6436(4)
C4_22 C 0.8493(5) 0.8229(5) 0.6541(4)
C5_22 C 0.8964(5) 0.7977(5) 0.6407(5)
H4_22 H 0.8959 0.7642 0.6530
H5_22 H 0.9000 0.7972 0.6053
H6_22 H 0.9238 0.8152 0.6552
C6_22 C 0.8105(4) 0.9302(5) 0.5420(4)
H7_22 H 0.8148 0.9536 0.5154
H8_22 H 0.8098 0.8972 0.5287
H9_22 H 0.7799 0.9370 0.5589
C7_22 C 0.8523(4) 0.9348(4) 0.5772(4)
C8_22 C 0.8639(5) 0.9104(4) 0.6200(5)
C9_22 C 0.9061(5) 0.9328(5) 0.6367(6)
C10_22 C 0.9341(5) 0.9221(5) 0.6821(5)
H10_22 H 0.9621 0.9441 0.6842
H11_22 H 0.9131 0.9269 0.7104
H12_22 H 0.9455 0.8884 0.6814
Ag3_15 Ag 0.81984(3) 0.73967(3) 0.72452(4)
N5_8 N 0.6800(4) 0.8154(3) 0.7999(3)
N6_8 N 0.6089(4) 0.9190(4) 0.9688(4)
N1_23 N 0.8321(4) 0.6888(3) 0.7771(3)
N2_16 N 0.7999(3) 0.6800(4) 0.8154(3)
N3_23 N 0.9722(3) 0.5701(3) 0.8859(4)
N4_16 N 0.9688(4) 0.6089(4) 0.9190(4)
C1_23 C 0.9189(4) 0.6680(5) 0.7556(5)
H1_23 H 0.9105 0.6867 0.7265
H2_23 H 0.9466 0.6833 0.7720
H3_23 H 0.9274 0.6347 0.7463
C2_23 C 0.8749(4) 0.6670(4) 0.7904(4)
C3_23 C 0.8703(5) 0.6436(4) 0.8354(4)
C4_23 C 0.8229(5) 0.6541(4) 0.8493(5)
C5_23 C 0.7977(5) 0.6407(5) 0.8964(5)
H4_23 H 0.7642 0.6530 0.8959
H5_23 H 0.7972 0.6053 0.9000
H6_23 H 0.8152 0.6552 0.9238
C6_23 C 0.9302(5) 0.5420(4) 0.8105(4)
H7_23 H 0.9536 0.5154 0.8148
H8_23 H 0.8972 0.5287 0.8098
H9_23 H 0.9370 0.5589 0.7799
C7_23 C 0.9348(4) 0.5772(4) 0.8523(4)
C8_23 C 0.9104(4) 0.6200(5) 0.8639(5)
C9_23 C 0.9328(5) 0.6367(6) 0.9061(5)
C10_23 C 0.9221(5) 0.6821(5) 0.9341(5)
H10_23 H 0.9441 0.6842 0.9621
H11_23 H 0.9269 0.7104 0.9131
H12_23 H 0.8884 0.6814 0.9455
Ag3_16 Ag 0.73967(3) 0.72452(4) 0.81984(3)
N1_24 N 0.6888(3) 0.7771(3) 0.8321(4)
N3_24 N 0.5701(3) 0.8859(4) 0.9722(3)
C1_24 C 0.6680(5) 0.7556(5) 0.9189(4)
H1_24 H 0.6867 0.7265 0.9105
H2_24 H 0.6833 0.7720 0.9466
H3_24 H 0.6347 0.7463 0.9274
C2_24 C 0.6670(4) 0.7904(4) 0.8749(4)
C3_24 C 0.6436(4) 0.8354(4) 0.8703(5)
C4_24 C 0.6541(4) 0.8493(5) 0.8229(5)
C5_24 C 0.6407(5) 0.8964(5) 0.7977(5)
H4_24 H 0.6530 0.8959 0.7642
H5_24 H 0.6053 0.9000 0.7972
H6_24 H 0.6552 0.9238 0.8152
C6_24 C 0.5420(4) 0.8105(4) 0.9302(5)
H7_24 H 0.5154 0.8148 0.9536
H8_24 H 0.5287 0.8098 0.8972
H9_24 H 0.5589 0.7799 0.9370
C7_24 C 0.5772(4) 0.8523(4) 0.9348(4)
C8_24 C 0.6200(5) 0.8639(5) 0.9104(4)
C9_24 C 0.6367(6) 0.9061(5) 0.9328(5)
C10_24 C 0.6821(5) 0.9341(5) 0.9221(5)
H10_24 H 0.6842 0.9621 0.9441
H11_24 H 0.7104 0.9131 0.9269
H12_24 H 0.6814 0.9455 0.8884
Ag3_17 Ag 0.01033(3) 0.56984(3) 0.52548(4)
Ag1_9 Ag 0.93016(3) 0.47452(4) 0.51033(3)
Ag2_9 Ag 0.72598(3) 0.64060(3) 0.73274(3)
N1_25 N 0.9179(4) 0.5271(3) 0.5612(3)
N2_17 N 0.9501(3) 0.5654(3) 0.5700(4)
N3_25 N 0.7778(3) 0.6359(4) 0.6799(3)
N4_17 N 0.7812(4) 0.6690(4) 0.6411(4)
C1_25 C 0.8311(4) 0.5056(5) 0.5820(5)
H1_25 H 0.8395 0.4765 0.5633
H2_25 H 0.8034 0.5220 0.5667
H3_25 H 0.8226 0.4963 0.6153
C2_25 C 0.8751(4) 0.5404(4) 0.5830(4)
C3_25 C 0.8797(5) 0.5854(4) 0.6064(4)
C4_25 C 0.9271(5) 0.5993(5) 0.5959(4)
C5_25 C 0.9523(5) 0.6464(5) 0.6093(5)
H4_25 H 0.9858 0.6459 0.5970
H5_25 H 0.9528 0.6500 0.6447
H6_25 H 0.9348 0.6738 0.5948
C6_25 C 0.8198(5) 0.5605(4) 0.7080(4)
H7_25 H 0.7964 0.5648 0.7346
H8_25 H 0.8528 0.5598 0.7213
H9_25 H 0.8130 0.5299 0.6911
C7_25 C 0.8152(4) 0.6023(4) 0.6728(4)
C8_25 C 0.8396(4) 0.6139(5) 0.6300(5)
C9_25 C 0.8172(5) 0.6561(5) 0.6133(6)
C10_25 C 0.8279(5) 0.6841(5) 0.5679(5)
H10_25 H 0.8059 0.7121 0.5658
H11_25 H 0.8231 0.6631 0.5396
H12_25 H 0.8616 0.6955 0.5686
Ag4_17 Ag 0.73274(3) 0.72598(3) 0.64060(3)
N5_9 N 0.9346(3) 0.4300(4) 0.4501(3)
N6_9 N 0.6690(4) 0.6411(4) 0.7812(4)
Ag1_10 Ag 0.56984(3) 0.52548(4) 0.01033(3)
Ag2_10 Ag 0.77402(3) 0.35940(3) 0.23274(3)
N1_26 N 0.5821(4) 0.4729(3) 0.0612(3)
N2_18 N 0.5499(3) 0.4346(3) 0.0700(4)
N3_26 N 0.7222(3) 0.3641(4) 0.1799(3)
N4_18 N 0.7188(4) 0.3310(4) 0.1411(4)
C1_26 C 0.6689(4) 0.4944(5) 0.0820(5)
H1_26 H 0.6605 0.5235 0.0633
H2_26 H 0.6966 0.4780 0.0667
H3_26 H 0.6774 0.5037 0.1153
C2_26 C 0.6249(4) 0.4596(4) 0.0830(4)
C3_26 C 0.6203(5) 0.4146(4) 0.1064(4)
C4_26 C 0.5729(5) 0.4007(5) 0.0959(4)
C5_26 C 0.5477(5) 0.3536(5) 0.1093(5)
H4_26 H 0.5142 0.3541 0.0970
H5_26 H 0.5472 0.3500 0.1447
H6_26 H 0.5652 0.3262 0.0948
C6_26 C 0.6802(5) 0.4395(4) 0.2080(4)
H7_26 H 0.7036 0.4352 0.2346
H8_26 H 0.6472 0.4402 0.2213
H9_26 H 0.6870 0.4701 0.1911
C7_26 C 0.6848(4) 0.3977(4) 0.1728(4)
C8_26 C 0.6604(4) 0.3861(5) 0.1300(5)
C9_26 C 0.6828(5) 0.3439(5) 0.1133(6)
C10_26 C 0.6721(5) 0.3159(5) 0.0679(5)
H10_26 H 0.6941 0.2879 0.0658
H11_26 H 0.6769 0.3369 0.0396
H12_26 H 0.6384 0.3045 0.0686
Ag3_18 Ag 0.48967(3) 0.43016(3) 0.02548(4)
Ag4_18 Ag 0.76726(3) 0.27402(3) 0.14060(3)
N6_10 N 0.8310(4) 0.3589(4) 0.2812(4)
N5_10 N 0.5654(3) 0.5700(4) 0.9501(3)
Ag2_11 Ag 0.27402(3) 0.14060(3) 0.76726(3)
N1_27 N 0.0821(4) 0.0271(3) 0.9388(3)
N2_19 N 0.0499(3) 0.0654(3) 0.9300(4)
N3_27 N 0.2222(3) 0.1359(4) 0.8201(3)
N4_19 N 0.2188(4) 0.1690(4) 0.8589(4)
C1_27 C 0.1689(4) 0.0056(5) 0.9180(5)
H2_27 H 0.1966 0.0220 0.9333
C2_27 C 0.1249(4) 0.0404(4) 0.9170(4)
C3_27 C 0.1203(5) 0.0854(4) 0.8936(4)
C4_27 C 0.0729(5) 0.0993(5) 0.9041(4)
C5_27 C 0.0477(5) 0.1464(5) 0.8907(5)
H4_27 H 0.0142 0.1459 0.9030
H5_27 H 0.0472 0.1500 0.8553
H6_27 H 0.0652 0.1738 0.9052
C6_27 C 0.1802(5) 0.0605(4) 0.7920(4)
H7_27 H 0.2036 0.0648 0.7654
H8_27 H 0.1472 0.0598 0.7787
H9_27 H 0.1870 0.0299 0.8089
C7_27 C 0.1848(4) 0.1023(4) 0.8272(4)
C8_27 C 0.1604(4) 0.1139(5) 0.8700(5)
C9_27 C 0.1828(5) 0.1561(5) 0.8867(6)
C10_27 C 0.1721(5) 0.1841(5) 0.9321(5)
H10_27 H 0.1941 0.2121 0.9342
H11_27 H 0.1769 0.1631 0.9604
H12_27 H 0.1384 0.1955 0.9314
Ag4_19 Ag 0.26726(3) 0.22598(3) 0.85940(3)
N6_11 N 0.3310(4) 0.1411(4) 0.7188(4)
N5_11 N 0.0654(3) 0.9300(4) 0.0499(3)
Ag1_11 Ag 0.43016(3) 0.02548(4) 0.48967(3)
H1_27 H 0.3395 0.0235 0.4367
H3_27 H 0.3226 0.0037 0.3847
N5_12 N 0.4346(3) 0.0700(4) 0.5499(3)
Ag2_12 Ag 0.22598(3) 0.85940(3) 0.26726(3)
N1_28 N 0.4179(4) 0.9729(3) 0.4388(3)
N2_20 N 0.4501(3) 0.9346(3) 0.4300(4)
N3_28 N 0.2778(3) 0.8641(4) 0.3201(3)
N4_20 N 0.2812(4) 0.8310(4) 0.3589(4)
C1_28 C 0.3311(4) 0.9944(5) 0.4180(5)
H2_28 H 0.3034 0.9780 0.4333
C2_28 C 0.3751(4) 0.9596(4) 0.4170(4)
C3_28 C 0.3797(5) 0.9146(4) 0.3936(4)
C4_28 C 0.4271(5) 0.9007(5) 0.4041(4)
C5_28 C 0.4523(5) 0.8536(5) 0.3907(5)
H4_28 H 0.4858 0.8541 0.4030
H5_28 H 0.4528 0.8500 0.3553
H6_28 H 0.4348 0.8262 0.4052
C6_28 C 0.3198(5) 0.9395(4) 0.2920(4)
H7_28 H 0.2964 0.9352 0.2654
H8_28 H 0.3528 0.9402 0.2787
H9_28 H 0.3130 0.9701 0.3089
C7_28 C 0.3152(4) 0.8977(4) 0.3272(4)
C8_28 C 0.3396(4) 0.8861(5) 0.3700(5)
C9_28 C 0.3172(5) 0.8439(5) 0.3867(6)
C10_28 C 0.3279(5) 0.8159(5) 0.4321(5)
H10_28 H 0.3059 0.7879 0.4342
H11_28 H 0.3231 0.8369 0.4604
H12_28 H 0.3616 0.8045 0.4314
Ag3_19 Ag 0.51033(3) 0.93016(3) 0.47452(4)
Ag4_20 Ag 0.23274(3) 0.77402(3) 0.35940(3)
N6_12 N 0.1690(4) 0.8589(4) 0.2188(4)
Ag3_20 Ag 0.52548(4) 0.01033(3) 0.56984(3)
N1_29 N 0.5612(3) 0.9179(4) 0.5271(3)
N2_21 N 0.5700(4) 0.9501(3) 0.5654(3)
N3_29 N 0.6799(3) 0.7778(3) 0.6359(4)
N4_21 N 0.6411(4) 0.7812(4) 0.6690(4)
C1_29 C 0.5820(5) 0.8311(4) 0.5056(5)
H1_28 H 0.5633 0.8395 0.4765
H2_29 H 0.5667 0.8034 0.5220
H3_28 H 0.6153 0.8226 0.4963
C2_29 C 0.5830(4) 0.8751(4) 0.5404(4)
C3_29 C 0.6064(4) 0.8797(5) 0.5854(4)
C4_29 C 0.5959(4) 0.9271(5) 0.5993(5)
C5_29 C 0.6093(5) 0.9523(5) 0.6464(5)
H4_29 H 0.5970 0.9858 0.6459
H5_29 H 0.6447 0.9528 0.6500
H6_29 H 0.5948 0.9348 0.6738
C6_29 C 0.7080(4) 0.8198(5) 0.5605(4)
H7_29 H 0.7346 0.7964 0.5648
H8_29 H 0.7213 0.8528 0.5598
H9_29 H 0.6911 0.8130 0.5299
C7_29 C 0.6728(4) 0.8152(4) 0.6023(4)
C8_29 C 0.6300(5) 0.8396(4) 0.6139(5)
C9_29 C 0.6133(6) 0.8172(5) 0.6561(5)
C10_29 C 0.5679(5) 0.8279(5) 0.6841(5)
H10_29 H 0.5658 0.8059 0.7121
H11_29 H 0.5396 0.8231 0.6631
H12_29 H 0.5686 0.8616 0.6955
Ag4_21 Ag 0.64060(3) 0.73274(3) 0.72598(3)
N1_30 N 0.0612(3) 0.5821(4) 0.4729(3)
N2_22 N 0.0700(4) 0.5499(3) 0.4346(3)
N3_30 N 0.1799(3) 0.7222(3) 0.3641(4)
N4_22 N 0.1411(4) 0.7188(4) 0.3310(4)
C1_30 C 0.0820(5) 0.6689(4) 0.4944(5)
H1_29 H 0.0633 0.6605 0.5235
H2_30 H 0.0667 0.6966 0.4780
H3_29 H 0.1153 0.6774 0.5037
C2_30 C 0.0830(4) 0.6249(4) 0.4596(4)
C3_30 C 0.1064(4) 0.6203(5) 0.4146(4)
C4_30 C 0.0959(4) 0.5729(5) 0.4007(5)
C5_30 C 0.1093(5) 0.5477(5) 0.3536(5)
H4_30 H 0.0970 0.5142 0.3541
H5_30 H 0.1447 0.5472 0.3500
H6_30 H 0.0948 0.5652 0.3262
C6_30 C 0.2080(4) 0.6802(5) 0.4395(4)
H7_30 H 0.2346 0.7036 0.4352
H8_30 H 0.2213 0.6472 0.4402
H9_30 H 0.1911 0.6870 0.4701
C7_30 C 0.1728(4) 0.6848(4) 0.3977(4)
C8_30 C 0.1300(5) 0.6604(4) 0.3861(5)
C9_30 C 0.1133(6) 0.6828(5) 0.3439(5)
C10_30 C 0.0679(5) 0.6721(5) 0.3159(5)
H10_30 H 0.0658 0.6941 0.2879
H11_30 H 0.0396 0.6769 0.3369
H12_30 H 0.0686 0.6384 0.3045
Ag3_21 Ag 0.02548(4) 0.48967(3) 0.43016(3)
Ag4_22 Ag 0.14060(3) 0.76726(3) 0.27402(3)
N1_31 N 0.9388(3) 0.0821(4) 0.0271(3)
N2_23 N 0.9300(4) 0.0499(3) 0.0654(3)
N3_31 N 0.8201(3) 0.2222(3) 0.1359(4)
N4_23 N 0.8589(4) 0.2188(4) 0.1690(4)
C1_31 C 0.9180(5) 0.1689(4) 0.0056(5)
H2_31 H 0.9333 0.1966 0.0220
C2_31 C 0.9170(4) 0.1249(4) 0.0404(4)
C3_31 C 0.8936(4) 0.1203(5) 0.0854(4)
C4_31 C 0.9041(4) 0.0729(5) 0.0993(5)
C5_31 C 0.8907(5) 0.0477(5) 0.1464(5)
H4_31 H 0.9030 0.0142 0.1459
H5_31 H 0.8553 0.0472 0.1500
H6_31 H 0.9052 0.0652 0.1738
C6_31 C 0.7920(4) 0.1802(5) 0.0605(4)
H7_31 H 0.7654 0.2036 0.0648
H8_31 H 0.7787 0.1472 0.0598
H9_31 H 0.8089 0.1870 0.0299
C7_31 C 0.8272(4) 0.1848(4) 0.1023(4)
C8_31 C 0.8700(5) 0.1604(4) 0.1139(5)
C9_31 C 0.8867(6) 0.1828(5) 0.1561(5)
C10_31 C 0.9321(5) 0.1721(5) 0.1841(5)
H10_31 H 0.9342 0.1941 0.2121
H11_31 H 0.9604 0.1769 0.1631
H12_31 H 0.9314 0.1384 0.1955
Ag4_23 Ag 0.85940(3) 0.26726(3) 0.22598(3)
H1_30 H 0.4367 0.3395 0.0235
H3_30 H 0.3847 0.3226 0.0037
N1_32 N 0.4388(3) 0.4179(4) 0.9729(3)
N2_24 N 0.4300(4) 0.4501(3) 0.9346(3)
N3_32 N 0.3201(3) 0.2778(3) 0.8641(4)
N4_24 N 0.3589(4) 0.2812(4) 0.8310(4)
C1_32 C 0.4180(5) 0.3311(4) 0.9944(5)
H2_32 H 0.4333 0.3034 0.9780
C2_32 C 0.4170(4) 0.3751(4) 0.9596(4)
C3_32 C 0.3936(4) 0.3797(5) 0.9146(4)
C4_32 C 0.4041(4) 0.4271(5) 0.9007(5)
C5_32 C 0.3907(5) 0.4523(5) 0.8536(5)
H4_32 H 0.4030 0.4858 0.8541
H5_32 H 0.3553 0.4528 0.8500
H6_32 H 0.4052 0.4348 0.8262
C6_32 C 0.2920(4) 0.3198(5) 0.9395(4)
H7_32 H 0.2654 0.2964 0.9352
H8_32 H 0.2787 0.3528 0.9402
H9_32 H 0.3089 0.3130 0.9701
C7_32 C 0.3272(4) 0.3152(4) 0.8977(4)
C8_32 C 0.3700(5) 0.3396(4) 0.8861(5)
C9_32 C 0.3867(6) 0.3172(5) 0.8439(5)
C10_32 C 0.4321(5) 0.3279(5) 0.8159(5)
H10_32 H 0.4342 0.3059 0.7879
H11_32 H 0.4604 0.3231 0.8369
H12_32 H 0.4314 0.3616 0.8045
Ag3_22 Ag 0.47452(4) 0.51033(3) 0.93016(3)
Ag4_24 Ag 0.35940(3) 0.23274(3) 0.77402(3)
N1_33 N 0.5271(3) 0.5612(3) 0.9179(4)
N3_33 N 0.6359(4) 0.6799(3) 0.7778(3)
C1_33 C 0.5056(5) 0.5820(5) 0.8311(4)
H1_31 H 0.4765 0.5633 0.8395
H2_33 H 0.5220 0.5667 0.8034
H3_31 H 0.4963 0.6153 0.8226
C2_33 C 0.5404(4) 0.5830(4) 0.8751(4)
C3_33 C 0.5854(4) 0.6064(4) 0.8797(5)
C4_33 C 0.5993(5) 0.5959(4) 0.9271(5)
C5_33 C 0.6464(5) 0.6093(5) 0.9523(5)
H4_33 H 0.6459 0.5970 0.9858
H5_33 H 0.6500 0.6447 0.9528
H6_33 H 0.6738 0.5948 0.9348
C6_33 C 0.5605(4) 0.7080(4) 0.8198(5)
H7_33 H 0.5648 0.7346 0.7964
H8_33 H 0.5598 0.7213 0.8528
H9_33 H 0.5299 0.6911 0.8130
C7_33 C 0.6023(4) 0.6728(4) 0.8152(4)
C8_33 C 0.6139(5) 0.6300(5) 0.8396(4)
C9_33 C 0.6561(5) 0.6133(6) 0.8172(5)
C10_33 C 0.6841(5) 0.5679(5) 0.8279(5)
H10_33 H 0.7121 0.5658 0.8059
H11_33 H 0.6631 0.5396 0.8231
H12_33 H 0.6955 0.5686 0.8616
N1_34 N 0.4729(3) 0.0612(3) 0.5821(4)
N3_34 N 0.3641(4) 0.1799(3) 0.7222(3)
C1_34 C 0.4944(5) 0.0820(5) 0.6689(4)
H1_32 H 0.5235 0.0633 0.6605
H2_34 H 0.4780 0.0667 0.6966
H3_32 H 0.5037 0.1153 0.6774
C2_34 C 0.4596(4) 0.0830(4) 0.6249(4)
C3_34 C 0.4146(4) 0.1064(4) 0.6203(5)
C4_34 C 0.4007(5) 0.0959(4) 0.5729(5)
C5_34 C 0.3536(5) 0.1093(5) 0.5477(5)
H4_34 H 0.3541 0.0970 0.5142
H5_34 H 0.3500 0.1447 0.5472
H6_34 H 0.3262 0.0948 0.5652
C6_34 C 0.4395(4) 0.2080(4) 0.6802(5)
H7_34 H 0.4352 0.2346 0.7036
H8_34 H 0.4402 0.2213 0.6472
H9_34 H 0.4701 0.1911 0.6870
C7_34 C 0.3977(4) 0.1728(4) 0.6848(4)
C8_34 C 0.3861(5) 0.1300(5) 0.6604(4)
C9_34 C 0.3439(5) 0.1133(6) 0.6828(5)
C10_34 C 0.3159(5) 0.0679(5) 0.6721(5)
H10_34 H 0.2879 0.0658 0.6941
H11_34 H 0.3369 0.0396 0.6769
H12_34 H 0.3045 0.0686 0.6384
N1_35 N 0.0271(3) 0.9388(3) 0.0821(4)
N3_35 N 0.1359(4) 0.8201(3) 0.2222(3)
C1_35 C 0.0056(5) 0.9180(5) 0.1689(4)
H2_35 H 0.0220 0.9333 0.1966
C2_35 C 0.0404(4) 0.9170(4) 0.1249(4)
C3_35 C 0.0854(4) 0.8936(4) 0.1203(5)
C4_35 C 0.0993(5) 0.9041(4) 0.0729(5)
C5_35 C 0.1464(5) 0.8907(5) 0.0477(5)
H4_35 H 0.1459 0.9030 0.0142
H5_35 H 0.1500 0.8553 0.0472
H6_35 H 0.1738 0.9052 0.0652
C6_35 C 0.0605(4) 0.7920(4) 0.1802(5)
H7_35 H 0.0648 0.7654 0.2036
H8_35 H 0.0598 0.7787 0.1472
H9_35 H 0.0299 0.8089 0.1870
C7_35 C 0.1023(4) 0.8272(4) 0.1848(4)
C8_35 C 0.1139(5) 0.8700(5) 0.1604(4)
C9_35 C 0.1561(5) 0.8867(6) 0.1828(5)
C10_35 C 0.1841(5) 0.9321(5) 0.1721(5)
H10_35 H 0.2121 0.9342 0.1941
H11_35 H 0.1631 0.9604 0.1769
H12_35 H 0.1955 0.9314 0.1384
H1_33 H 0.0235 0.4367 0.3395
H3_33 H 0.0037 0.3847 0.3226
N1_36 N 0.9729(3) 0.4388(3) 0.4179(4)
N3_36 N 0.8641(4) 0.3201(3) 0.2778(3)
C1_36 C 0.9944(5) 0.4180(5) 0.3311(4)
H2_36 H 0.9780 0.4333 0.3034
C2_36 C 0.9596(4) 0.4170(4) 0.3751(4)
C3_36 C 0.9146(4) 0.3936(4) 0.3797(5)
C4_36 C 0.9007(5) 0.4041(4) 0.4271(5)
C5_36 C 0.8536(5) 0.3907(5) 0.4523(5)
H4_36 H 0.8541 0.4030 0.4858
H5_36 H 0.8500 0.3553 0.4528
H6_36 H 0.8262 0.4052 0.4348
C6_36 C 0.9395(4) 0.2920(4) 0.3198(5)
H7_36 H 0.9352 0.2654 0.2964
H8_36 H 0.9402 0.2787 0.3528
H9_36 H 0.9701 0.3089 0.3130
C7_36 C 0.8977(4) 0.3272(4) 0.3152(4)
C8_36 C 0.8861(5) 0.3700(5) 0.3396(4)
C9_36 C 0.8439(5) 0.3867(6) 0.3172(5)
C10_36 C 0.8159(5) 0.4321(5) 0.3279(5)
H10_36 H 0.7879 0.4342 0.3059
H11_36 H 0.8369 0.4604 0.3231
H12_36 H 0.8045 0.4314 0.3616
Ag1_12 Ag 0.06984(3) 0.97452(4) 0.98967(3)
H1_34 H 0.1605 0.9765 0.9367
H3_34 H 0.1774 0.9963 0.8847
Ag3_23 Ag 0.98967(3) 0.06984(3) 0.97452(4)
H1_35 H 0.9367 0.1605 0.9765
H3_35 H 0.8847 0.1774 0.9963
Ag3_24 Ag 0.97452(4) 0.98967(3) 0.06984(3)
H1_36 H 0.9765 0.9367 0.1605
H3_36 H 0.9963 0.8847 0.1774
Ag1_13 Ag 0.72452(4) 0.18016(3) 0.76033(3)
N1_37 N 0.7771(3) 0.1679(4) 0.8112(3)
N2_25 N 0.8154(3) 0.2001(3) 0.8200(4)
N3_37 N 0.8859(4) 0.0278(3) 0.9299(3)
N4_25 N 0.9190(4) 0.0312(4) 0.8911(4)
C1_37 C 0.7556(5) 0.0811(4) 0.8320(5)
H1_37 H 0.7265 0.0895 0.8133
H2_37 H 0.7720 0.0534 0.8167
H3_37 H 0.7463 0.0726 0.8653
C2_37 C 0.7904(4) 0.1251(4) 0.8330(4)
C3_37 C 0.8354(4) 0.1297(5) 0.8564(4)
C4_37 C 0.8493(5) 0.1771(5) 0.8459(4)
C5_37 C 0.8964(5) 0.2023(5) 0.8593(5)
H4_37 H 0.8959 0.2358 0.8470
H5_37 H 0.9000 0.2028 0.8947
H6_37 H 0.9238 0.1848 0.8448
C6_37 C 0.8105(4) 0.0698(5) 0.9580(4)
H7_37 H 0.8148 0.0464 0.9846
H8_37 H 0.8098 0.1028 0.9713
H9_37 H 0.7799 0.0630 0.9411
C7_37 C 0.8523(4) 0.0652(4) 0.9228(4)
C8_37 C 0.8639(5) 0.0896(4) 0.8800(5)
C9_37 C 0.9061(5) 0.0672(5) 0.8633(6)
C10_37 C 0.9341(5) 0.0779(5) 0.8179(5)
H10_37 H 0.9621 0.0559 0.8158
H11_37 H 0.9131 0.0731 0.7896
H12_37 H 0.9455 0.1116 0.8186
Ag3_25 Ag 0.81984(3) 0.26033(3) 0.77548(4)
N5_13 N 0.6800(4) 0.1846(3) 0.7001(3)
N6_13 N 0.8911(4) 0.9190(4) 0.0312(4)
Ag2_13 Ag 0.60940(3) 0.02402(3) 0.48274(3)
Ag4_25 Ag 0.52402(3) 0.01726(3) 0.39060(3)
N6_14 N 0.6089(4) 0.0810(4) 0.5312(4)
Ag1_14 Ag 0.77548(4) 0.81984(3) 0.26033(3)
N1_38 N 0.7229(3) 0.8321(4) 0.3112(3)
N2_26 N 0.6846(3) 0.7999(3) 0.3200(4)
N3_38 N 0.6141(4) 0.9722(3) 0.4299(3)
N4_26 N 0.5810(4) 0.9688(4) 0.3911(4)
C1_38 C 0.7444(5) 0.9189(4) 0.3320(5)
H1_38 H 0.7735 0.9105 0.3133
H2_38 H 0.7280 0.9466 0.3167
H3_38 H 0.7537 0.9274 0.3653
C2_38 C 0.7096(4) 0.8749(4) 0.3330(4)
C3_38 C 0.6646(4) 0.8703(5) 0.3564(4)
C4_38 C 0.6507(5) 0.8229(5) 0.3459(4)
C5_38 C 0.6036(5) 0.7977(5) 0.3593(5)
H4_38 H 0.6041 0.7642 0.3470
H5_38 H 0.6000 0.7972 0.3947
H6_38 H 0.5762 0.8152 0.3448
C6_38 C 0.6895(4) 0.9302(5) 0.4580(4)
H7_38 H 0.6852 0.9536 0.4846
H8_38 H 0.6902 0.8972 0.4713
H9_38 H 0.7201 0.9370 0.4411
C7_38 C 0.6477(4) 0.9348(4) 0.4228(4)
C8_38 C 0.6361(5) 0.9104(4) 0.3800(5)
C9_38 C 0.5939(5) 0.9328(5) 0.3633(6)
C10_38 C 0.5659(5) 0.9221(5) 0.3179(5)
H10_38 H 0.5379 0.9441 0.3158
H11_38 H 0.5869 0.9269 0.2896
H12_38 H 0.5545 0.8884 0.3186
Ag3_26 Ag 0.68016(3) 0.73967(3) 0.27548(4)
N5_14 N 0.8200(4) 0.8154(3) 0.2001(3)
Ag1_15 Ag 0.22452(4) 0.31984(3) 0.23967(3)
Ag2_14 Ag 0.39060(3) 0.52402(3) 0.01726(3)
N1_39 N 0.2771(3) 0.3321(4) 0.1888(3)
N2_27 N 0.3154(3) 0.2999(3) 0.1800(4)
N3_39 N 0.3859(4) 0.4722(3) 0.0701(3)
N4_27 N 0.4190(4) 0.4688(4) 0.1089(4)
C1_39 C 0.2556(5) 0.4189(4) 0.1680(5)
H1_39 H 0.2265 0.4105 0.1867
H2_39 H 0.2720 0.4466 0.1833
H3_39 H 0.2463 0.4274 0.1347
C2_39 C 0.2904(4) 0.3749(4) 0.1670(4)
C3_39 C 0.3354(4) 0.3703(5) 0.1436(4)
C4_39 C 0.3493(5) 0.3229(5) 0.1541(4)
C5_39 C 0.3964(5) 0.2977(5) 0.1407(5)
H4_39 H 0.3959 0.2642 0.1530
H5_39 H 0.4000 0.2972 0.1053
H6_39 H 0.4238 0.3152 0.1552
C6_39 C 0.3105(4) 0.4302(5) 0.0420(4)
H7_39 H 0.3148 0.4536 0.0154
H8_39 H 0.3098 0.3972 0.0287
H9_39 H 0.2799 0.4370 0.0589
C7_39 C 0.3523(4) 0.4348(4) 0.0772(4)
C8_39 C 0.3639(5) 0.4104(4) 0.1200(5)
C9_39 C 0.4061(5) 0.4328(5) 0.1367(6)
C10_39 C 0.4341(5) 0.4221(5) 0.1821(5)
H10_39 H 0.4621 0.4441 0.1842
H11_39 H 0.4131 0.4269 0.2104
H12_39 H 0.4455 0.3884 0.1814
Ag3_27 Ag 0.31984(3) 0.23967(3) 0.22452(4)
Ag4_26 Ag 0.47598(3) 0.51726(3) 0.10940(3)
N5_15 N 0.1800(4) 0.3154(3) 0.2999(3)
N6_15 N 0.3911(4) 0.5810(4) 0.9688(4)
Ag1_16 Ag 0.27548(4) 0.68016(3) 0.73967(3)
Ag2_15 Ag 0.10940(3) 0.47598(3) 0.51726(3)
N1_40 N 0.2229(3) 0.6679(4) 0.6888(3)
N2_28 N 0.1846(3) 0.7001(3) 0.6800(4)
N3_40 N 0.1141(4) 0.5278(3) 0.5701(3)
N4_28 N 0.0810(4) 0.5312(4) 0.6089(4)
C1_40 C 0.2444(5) 0.5811(4) 0.6680(5)
H1_40 H 0.2735 0.5895 0.6867
H2_40 H 0.2280 0.5534 0.6833
H3_40 H 0.2537 0.5726 0.6347
C2_40 C 0.2096(4) 0.6251(4) 0.6670(4)
C3_40 C 0.1646(4) 0.6297(5) 0.6436(4)
C4_40 C 0.1507(5) 0.6771(5) 0.6541(4)
C5_40 C 0.1036(5) 0.7023(5) 0.6407(5)
H4_40 H 0.1041 0.7358 0.6530
H5_40 H 0.1000 0.7028 0.6053
H6_40 H 0.0762 0.6848 0.6552
C6_40 C 0.1895(4) 0.5698(5) 0.5420(4)
H7_40 H 0.1852 0.5464 0.5154
H8_40 H 0.1902 0.6028 0.5287
H9_40 H 0.2201 0.5630 0.5589
C7_40 C 0.1477(4) 0.5652(4) 0.5772(4)
C8_40 C 0.1361(5) 0.5896(4) 0.6200(5)
C9_40 C 0.0939(5) 0.5672(5) 0.6367(6)
C10_40 C 0.0659(5) 0.5779(5) 0.6821(5)
H10_40 H 0.0379 0.5559 0.6842
H11_40 H 0.0869 0.5731 0.7104
H12_40 H 0.0545 0.6116 0.6814
Ag3_28 Ag 0.18016(3) 0.76033(3) 0.72452(4)
Ag4_27 Ag 0.02402(3) 0.48274(3) 0.60940(3)
N5_16 N 0.3200(4) 0.6846(3) 0.7999(3)
N6_16 N 0.1089(4) 0.4190(4) 0.4688(4)
N1_41 N 0.1679(4) 0.8112(3) 0.7771(3)
N2_29 N 0.2001(3) 0.8200(4) 0.8154(3)
N3_41 N 0.0278(3) 0.9299(3) 0.8859(4)
N4_29 N 0.0312(4) 0.8911(4) 0.9190(4)
C1_41 C 0.0811(4) 0.8320(5) 0.7556(5)
H1_41 H 0.0895 0.8133 0.7265
H2_41 H 0.0534 0.8167 0.7720
H3_41 H 0.0726 0.8653 0.7463
C2_41 C 0.1251(4) 0.8330(4) 0.7904(4)
C3_41 C 0.1297(5) 0.8564(4) 0.8354(4)
C4_41 C 0.1771(5) 0.8459(4) 0.8493(5)
C5_41 C 0.2023(5) 0.8593(5) 0.8964(5)
H4_41 H 0.2358 0.8470 0.8959
H5_41 H 0.2028 0.8947 0.9000
H6_41 H 0.1848 0.8448 0.9238
C6_41 C 0.0698(5) 0.9580(4) 0.8105(4)
H7_41 H 0.0464 0.9846 0.8148
H8_41 H 0.1028 0.9713 0.8098
H9_41 H 0.0630 0.9411 0.7799
C7_41 C 0.0652(4) 0.9228(4) 0.8523(4)
C8_41 C 0.0896(4) 0.8800(5) 0.8639(5)
C9_41 C 0.0672(5) 0.8633(6) 0.9061(5)
C10_41 C 0.0779(5) 0.8179(5) 0.9341(5)
H10_41 H 0.0559 0.8158 0.9621
H11_41 H 0.0731 0.7896 0.9131
H12_41 H 0.1116 0.8186 0.9455
Ag3_29 Ag 0.26033(3) 0.77548(4) 0.81984(3)
Ag4_28 Ag 0.01726(3) 0.39060(3) 0.52402(3)
N1_42 N 0.8321(4) 0.3112(3) 0.7229(3)
N2_30 N 0.7999(3) 0.3200(4) 0.6846(3)
N3_42 N 0.9722(3) 0.4299(3) 0.6141(4)
N4_30 N 0.9688(4) 0.3911(4) 0.5810(4)
C1_42 C 0.9189(4) 0.3320(5) 0.7444(5)
H1_42 H 0.9105 0.3133 0.7735
H2_42 H 0.9466 0.3167 0.7280
H3_42 H 0.9274 0.3653 0.7537
C2_42 C 0.8749(4) 0.3330(4) 0.7096(4)
C3_42 C 0.8703(5) 0.3564(4) 0.6646(4)
C4_42 C 0.8229(5) 0.3459(4) 0.6507(5)
C5_42 C 0.7977(5) 0.3593(5) 0.6036(5)
H4_42 H 0.7642 0.3470 0.6041
H5_42 H 0.7972 0.3947 0.6000
H6_42 H 0.8152 0.3448 0.5762
C6_42 C 0.9302(5) 0.4580(4) 0.6895(4)
H7_42 H 0.9536 0.4846 0.6852
H8_42 H 0.8972 0.4713 0.6902
H9_42 H 0.9370 0.4411 0.7201
C7_42 C 0.9348(4) 0.4228(4) 0.6477(4)
C8_42 C 0.9104(4) 0.3800(5) 0.6361(5)
C9_42 C 0.9328(5) 0.3633(6) 0.5939(5)
C10_42 C 0.9221(5) 0.3179(5) 0.5659(5)
H10_42 H 0.9441 0.3158 0.5379
H11_42 H 0.9269 0.2896 0.5869
H12_42 H 0.8884 0.3186 0.5545
Ag3_30 Ag 0.73967(3) 0.27548(4) 0.68016(3)
N1_43 N 0.3321(4) 0.1888(3) 0.2771(3)
N2_31 N 0.2999(3) 0.1800(4) 0.3154(3)
N3_43 N 0.4722(3) 0.0701(3) 0.3859(4)
N4_31 N 0.4688(4) 0.1089(4) 0.4190(4)
C1_43 C 0.4189(4) 0.1680(5) 0.2556(5)
H1_43 H 0.4105 0.1867 0.2265
H2_43 H 0.4466 0.1833 0.2720
H3_43 H 0.4274 0.1347 0.2463
C2_43 C 0.3749(4) 0.1670(4) 0.2904(4)
C3_43 C 0.3703(5) 0.1436(4) 0.3354(4)
C4_43 C 0.3229(5) 0.1541(4) 0.3493(5)
C5_43 C 0.2977(5) 0.1407(5) 0.3964(5)
H4_43 H 0.2642 0.1530 0.3959
H5_43 H 0.2972 0.1053 0.4000
H6_43 H 0.3152 0.1552 0.4238
C6_43 C 0.4302(5) 0.0420(4) 0.3105(4)
H7_43 H 0.4536 0.0154 0.3148
H8_43 H 0.3972 0.0287 0.3098
H9_43 H 0.4370 0.0589 0.2799
C7_43 C 0.4348(4) 0.0772(4) 0.3523(4)
C8_43 C 0.4104(4) 0.1200(5) 0.3639(5)
C9_43 C 0.4328(5) 0.1367(6) 0.4061(5)
C10_43 C 0.4221(5) 0.1821(5) 0.4341(5)
H10_43 H 0.4441 0.1842 0.4621
H11_43 H 0.4269 0.2104 0.4131
H12_43 H 0.3884 0.1814 0.4455
Ag3_31 Ag 0.23967(3) 0.22452(4) 0.31984(3)
Ag4_29 Ag 0.51726(3) 0.10940(3) 0.47598(3)
N1_44 N 0.6679(4) 0.6888(3) 0.2229(3)
N2_32 N 0.7001(3) 0.6800(4) 0.1846(3)
N3_44 N 0.5278(3) 0.5701(3) 0.1141(4)
N4_32 N 0.5312(4) 0.6089(4) 0.0810(4)
C1_44 C 0.5811(4) 0.6680(5) 0.2444(5)
H1_44 H 0.5895 0.6867 0.2735
H2_44 H 0.5534 0.6833 0.2280
H3_44 H 0.5726 0.6347 0.2537
C2_44 C 0.6251(4) 0.6670(4) 0.2096(4)
C3_44 C 0.6297(5) 0.6436(4) 0.1646(4)
C4_44 C 0.6771(5) 0.6541(4) 0.1507(5)
C5_44 C 0.7023(5) 0.6407(5) 0.1036(5)
H4_44 H 0.7358 0.6530 0.1041
H5_44 H 0.7028 0.6053 0.1000
H6_44 H 0.6848 0.6552 0.0762
C6_44 C 0.5698(5) 0.5420(4) 0.1895(4)
H7_44 H 0.5464 0.5154 0.1852
H8_44 H 0.6028 0.5287 0.1902
H9_44 H 0.5630 0.5589 0.2201
C7_44 C 0.5652(4) 0.5772(4) 0.1477(4)
C8_44 C 0.5896(4) 0.6200(5) 0.1361(5)
C9_44 C 0.5672(5) 0.6367(6) 0.0939(5)
C10_44 C 0.5779(5) 0.6821(5) 0.0659(5)
H10_44 H 0.5559 0.6842 0.0379
H11_44 H 0.5731 0.7104 0.0869
H12_44 H 0.6116 0.6814 0.0545
Ag3_32 Ag 0.76033(3) 0.72452(4) 0.18016(3)
Ag4_30 Ag 0.48274(3) 0.60940(3) 0.02402(3)
N1_45 N 0.8112(3) 0.7771(3) 0.1679(4)
N3_45 N 0.9299(3) 0.8859(4) 0.0278(3)
C1_45 C 0.8320(5) 0.7556(5) 0.0811(4)
H1_45 H 0.8133 0.7265 0.0895
H2_45 H 0.8167 0.7720 0.0534
H3_45 H 0.8653 0.7463 0.0726
C2_45 C 0.8330(4) 0.7904(4) 0.1251(4)
C3_45 C 0.8564(4) 0.8354(4) 0.1297(5)
C4_45 C 0.8459(4) 0.8493(5) 0.1771(5)
C5_45 C 0.8593(5) 0.8964(5) 0.2023(5)
H4_45 H 0.8470 0.8959 0.2358
H5_45 H 0.8947 0.9000 0.2028
H6_45 H 0.8448 0.9238 0.1848
C6_45 C 0.9580(4) 0.8105(4) 0.0698(5)
H7_45 H 0.9846 0.8148 0.0464
H8_45 H 0.9713 0.8098 0.1028
H9_45 H 0.9411 0.7799 0.0630
C7_45 C 0.9228(4) 0.8523(4) 0.0652(4)
C8_45 C 0.8800(5) 0.8639(5) 0.0896(4)
C9_45 C 0.8633(6) 0.9061(5) 0.0672(5)
C10_45 C 0.8179(5) 0.9341(5) 0.0779(5)
H10_45 H 0.8158 0.9621 0.0559
H11_45 H 0.7896 0.9131 0.0731
H12_45 H 0.8186 0.9455 0.1116
N1_46 N 0.3112(3) 0.7229(3) 0.8321(4)
N3_46 N 0.4299(3) 0.6141(4) 0.9722(3)
C1_46 C 0.3320(5) 0.7444(5) 0.9189(4)
H1_46 H 0.3133 0.7735 0.9105
H2_46 H 0.3167 0.7280 0.9466
H3_46 H 0.3653 0.7537 0.9274
C2_46 C 0.3330(4) 0.7096(4) 0.8749(4)
C3_46 C 0.3564(4) 0.6646(4) 0.8703(5)
C4_46 C 0.3459(4) 0.6507(5) 0.8229(5)
C5_46 C 0.3593(5) 0.6036(5) 0.7977(5)
H4_46 H 0.3470 0.6041 0.7642
H5_46 H 0.3947 0.6000 0.7972
H6_46 H 0.3448 0.5762 0.8152
C6_46 C 0.4580(4) 0.6895(4) 0.9302(5)
H7_46 H 0.4846 0.6852 0.9536
H8_46 H 0.4713 0.6902 0.8972
H9_46 H 0.4411 0.7201 0.9370
C7_46 C 0.4228(4) 0.6477(4) 0.9348(4)
C8_46 C 0.3800(5) 0.6361(5) 0.9104(4)
C9_46 C 0.3633(6) 0.5939(5) 0.9328(5)
C10_46 C 0.3179(5) 0.5659(5) 0.9221(5)
H10_46 H 0.3158 0.5379 0.9441
H11_46 H 0.2896 0.5869 0.9269
H12_46 H 0.3186 0.5545 0.8884
N1_47 N 0.1888(3) 0.2771(3) 0.3321(4)
N3_47 N 0.0701(3) 0.3859(4) 0.4722(3)
C1_47 C 0.1680(5) 0.2556(5) 0.4189(4)
H1_47 H 0.1867 0.2265 0.4105
H2_47 H 0.1833 0.2720 0.4466
H3_47 H 0.1347 0.2463 0.4274
C2_47 C 0.1670(4) 0.2904(4) 0.3749(4)
C3_47 C 0.1436(4) 0.3354(4) 0.3703(5)
C4_47 C 0.1541(4) 0.3493(5) 0.3229(5)
C5_47 C 0.1407(5) 0.3964(5) 0.2977(5)
H4_47 H 0.1530 0.3959 0.2642
H5_47 H 0.1053 0.4000 0.2972
H6_47 H 0.1552 0.4238 0.3152
C6_47 C 0.0420(4) 0.3105(4) 0.4302(5)
H7_47 H 0.0154 0.3148 0.4536
H8_47 H 0.0287 0.3098 0.3972
H9_47 H 0.0589 0.2799 0.4370
C7_47 C 0.0772(4) 0.3523(4) 0.4348(4)
C8_47 C 0.1200(5) 0.3639(5) 0.4104(4)
C9_47 C 0.1367(6) 0.4061(5) 0.4328(5)
C10_47 C 0.1821(5) 0.4341(5) 0.4221(5)
H10_47 H 0.1842 0.4621 0.4441
H11_47 H 0.2104 0.4131 0.4269
H12_47 H 0.1814 0.4455 0.3884
N1_48 N 0.6888(3) 0.2229(3) 0.6679(4)
N3_48 N 0.5701(3) 0.1141(4) 0.5278(3)
C1_48 C 0.6680(5) 0.2444(5) 0.5811(4)
H1_48 H 0.6867 0.2735 0.5895
H2_48 H 0.6833 0.2280 0.5534
H3_48 H 0.6347 0.2537 0.5726
C2_48 C 0.6670(4) 0.2096(4) 0.6251(4)
C3_48 C 0.6436(4) 0.1646(4) 0.6297(5)
C4_48 C 0.6541(4) 0.1507(5) 0.6771(5)
C5_48 C 0.6407(5) 0.1036(5) 0.7023(5)
H4_48 H 0.6530 0.1041 0.7358
H5_48 H 0.6053 0.1000 0.7028
H6_48 H 0.6552 0.0762 0.6848
C6_48 C 0.5420(4) 0.1895(4) 0.5698(5)
H7_48 H 0.5154 0.1852 0.5464
H8_48 H 0.5287 0.1902 0.6028
H9_48 H 0.5589 0.2201 0.5630
C7_48 C 0.5772(4) 0.1477(4) 0.5652(4)
C8_48 C 0.6200(5) 0.1361(5) 0.5896(4)
C9_48 C 0.6367(6) 0.0939(5) 0.5672(5)
C10_48 C 0.6821(5) 0.0659(5) 0.5779(5)
H10_48 H 0.6842 0.0379 0.5559
H11_48 H 0.7104 0.0869 0.5731
H12_48 H 0.6814 0.0545 0.6116
Ag2_16 Ag 0.89060(3) 0.97598(3) 0.98274(3)
Ag4_31 Ag 0.97598(3) 0.98274(3) 0.89060(3)
Ag4_32 Ag 0.98274(3) 0.89060(3) 0.97598(3)
loop_
_geom_bond_atom_site_label_1
_geom_bond_atom_site_label_2
_geom_bond_site_symmetry_1
_geom_bond_site_symmetry_2
Ag2 N3 1_555 1_555
N1 N2 1_555 1_555
N2 C4 1_555 1_555
N3 N4 1_555 1_555
N4 C9 1_555 1_555
H2 C1 1_555 1_555
C2 N1 1_555 1_555
C3 C2 1_555 1_555
C4 C3 1_555 1_555
C5 C4 1_555 1_555
H4 C5 1_555 1_555
H5 C5 1_555 1_555
H6 C5 1_555 1_555
C6 H7 1_555 1_555
H8 C6 1_555 1_555
H9 C6 1_555 1_555
C7 N3 1_555 1_555
C8 C3 1_555 1_555
C9 C8 1_555 1_555
C10 C9 1_555 1_555
H10 C10 1_555 1_555
H11 C10 1_555 1_555
H12 C10 1_555 1_555
Ag3 N2 1_555 1_555
Ag4 N4 1_555 1_555
N6 Ag2 1_555 1_555
C1 C2 1_555 1_555
C6 C7 1_555 1_555
C7 C8 1_555 1_555
N5 Ag1 1_555 1_555
Ag4 N3_2 1_555 1_555
N1_2 N2_2 1_555 1_555
N2_2 C4_2 1_555 1_555
N3_2 N4_2 1_555 1_555
N4_2 C9_2 1_555 1_555
H2_2 C1_2 1_555 1_555
C2_2 N1_2 1_555 1_555
C3_2 C2_2 1_555 1_555
C4_2 C3_2 1_555 1_555
C5_2 C4_2 1_555 1_555
H4_2 C5_2 1_555 1_555
H5_2 C5_2 1_555 1_555
H6_2 C5_2 1_555 1_555
C6_2 H7_2 1_555 1_555
H8_2 C6_2 1_555 1_555
H9_2 C6_2 1_555 1_555
C7_2 N3_2 1_555 1_555
C8_2 C3_2 1_555 1_555
C9_2 C8_2 1_555 1_555
C10_2 C9_2 1_555 1_555
H10_2 C10_2 1_555 1_555
H11_2 C10_2 1_555 1_555
H12_2 C10_2 1_555 1_555
Ag3_2 N2_2 1_555 1_555
Ag4_2 N4_2 1_555 1_555
C1_2 C2_2 1_555 1_555
C6_2 C7_2 1_555 1_555
C7_2 C8_2 1_555 1_555
Ag4_2 N3_3 1_555 1_555
N1_3 N5 1_555 1_555
N5 C4_3 1_555 1_555
N3_3 N6 1_555 1_555
N6 C9_3 1_555 1_555
H2_3 C1_3 1_555 1_555
C2_3 N1_3 1_555 1_555
C3_3 C2_3 1_555 1_555
C4_3 C3_3 1_555 1_555
C5_3 C4_3 1_555 1_555
H4_3 C5_3 1_555 1_555
H5_3 C5_3 1_555 1_555
H6_3 C5_3 1_555 1_555
C6_3 H7_3 1_555 1_555
H8_3 C6_3 1_555 1_555
H9_3 C6_3 1_555 1_555
C7_3 N3_3 1_555 1_555
C8_3 C3_3 1_555 1_555
C9_3 C8_3 1_555 1_555
C10_3 C9_3 1_555 1_555
H10_3 C10_3 1_555 1_555
H11_3 C10_3 1_555 1_555
H12_3 C10_3 1_555 1_555
C1_3 C2_3 1_555 1_555
C6_3 C7_3 1_555 1_555
C7_3 C8_3 1_555 1_555
Ag2_2 N3_4 1_555 1_555
N1_4 N2_3 1_555 1_555
N2_3 C4_4 1_555 1_555
N3_4 N4_3 1_555 1_555
N4_3 C9_4 1_555 1_555
H2_4 C1_4 1_555 1_555
C2_4 N1_4 1_555 1_555
C3_4 C2_4 1_555 1_555
C4_4 C3_4 1_555 1_555
C5_4 C4_4 1_555 1_555
H4_4 C5_4 1_555 1_555
H5_4 C5_4 1_555 1_555
H6_4 C5_4 1_555 1_555
C6_4 H7_4 1_555 1_555
H8_4 C6_4 1_555 1_555
H9_4 C6_4 1_555 1_555
C7_4 N3_4 1_555 1_555
C8_4 C3_4 1_555 1_555
C9_4 C8_4 1_555 1_555
C10_4 C9_4 1_555 1_555
H10_4 C10_4 1_555 1_555
H11_4 C10_4 1_555 1_555
H12_4 C10_4 1_555 1_555
Ag4_3 N4_3 1_555 1_555
N6_2 Ag2_2 1_555 1_555
C1_4 C2_4 1_555 1_555
C6_4 C7_4 1_555 1_555
C7_4 C8_4 1_555 1_555
Ag1_3 N1_5 1_555 1_555
Ag2_3 N3_5 1_555 1_555
N1_5 N2_4 1_555 1_555
N2_4 C4_5 1_555 1_555
N3_5 N4_4 1_555 1_555
N4_4 C9_5 1_555 1_555
C1_5 H1_5 1_555 1_555
H2_5 C1_5 1_555 1_555
H3_5 C1_5 1_555 1_555
C2_5 N1_5 1_555 1_555
C3_5 C2_5 1_555 1_555
C4_5 C3_5 1_555 1_555
C5_5 C4_5 1_555 1_555
H4_5 C5_5 1_555 1_555
H5_5 C5_5 1_555 1_555
H6_5 C5_5 1_555 1_555
C6_5 H7_5 1_555 1_555
H8_5 C6_5 1_555 1_555
H9_5 C6_5 1_555 1_555
C7_5 N3_5 1_555 1_555
C8_5 C3_5 1_555 1_555
C9_5 C8_5 1_555 1_555
C10_5 C9_5 1_555 1_555
H10_5 C10_5 1_555 1_555
H11_5 C10_5 1_555 1_555
H12_5 C10_5 1_555 1_555
Ag3_4 N2_4 1_555 1_555
Ag4_4 N4_4 1_555 1_555
N5_3 Ag1_3 1_555 1_555
N6_3 Ag2_3 1_555 1_555
C1_5 C2_5 1_555 1_555
C6_5 C7_5 1_555 1_555
C7_5 C8_5 1_555 1_555
Ag1_4 N1_6 1_555 1_555
Ag2_4 N3_6 1_555 1_555
N1_6 N2_5 1_555 1_555
N2_5 C4_6 1_555 1_555
N3_6 N4_5 1_555 1_555
N4_5 C9_6 1_555 1_555
C1_6 H1_6 1_555 1_555
H2_6 C1_6 1_555 1_555
H3_6 C1_6 1_555 1_555
C2_6 N1_6 1_555 1_555
C3_6 C2_6 1_555 1_555
C4_6 C3_6 1_555 1_555
C5_6 C4_6 1_555 1_555
H4_6 C5_6 1_555 1_555
H5_6 C5_6 1_555 1_555
H6_6 C5_6 1_555 1_555
C6_6 H7_6 1_555 1_555
H8_6 C6_6 1_555 1_555
H9_6 C6_6 1_555 1_555
C7_6 N3_6 1_555 1_555
C8_6 C3_6 1_555 1_555
C9_6 C8_6 1_555 1_555
C10_6 C9_6 1_555 1_555
H10_6 C10_6 1_555 1_555
H11_6 C10_6 1_555 1_555
H12_6 C10_6 1_555 1_555
Ag4_5 N4_5 1_555 1_555
N6_4 Ag2_4 1_555 1_555
C1_6 C2_6 1_555 1_555
C6_6 C7_6 1_555 1_555
C7_6 C8_6 1_555 1_555
Ag4_5 N3_7 1_555 1_555
N1_7 N2_6 1_555 1_555
N2_6 C4_7 1_555 1_555
N3_7 N4_6 1_555 1_555
N4_6 C9_7 1_555 1_555
H2_7 C1_7 1_555 1_555
C2_7 N1_7 1_555 1_555
C3_7 C2_7 1_555 1_555
C4_7 C3_7 1_555 1_555
C5_7 C4_7 1_555 1_555
H4_7 C5_7 1_555 1_555
H5_7 C5_7 1_555 1_555
H6_7 C5_7 1_555 1_555
C6_7 H7_7 1_555 1_555
H8_7 C6_7 1_555 1_555
H9_7 C6_7 1_555 1_555
C7_7 N3_7 1_555 1_555
C8_7 C3_7 1_555 1_555
C9_7 C8_7 1_555 1_555
C10_7 C9_7 1_555 1_555
H10_7 C10_7 1_555 1_555
H11_7 C10_7 1_555 1_555
H12_7 C10_7 1_555 1_555
Ag4_6 N4_6 1_555 1_555
C1_7 C2_7 1_555 1_555
C6_7 C7_7 1_555 1_555
C7_7 C8_7 1_555 1_555
Ag3_4 N1_8 1_555 1_555
Ag4_3 N3_8 1_555 1_555
N1_8 N2_7 1_555 1_555
N2_7 C4_8 1_555 1_555
N3_8 N4_7 1_555 1_555
N4_7 C9_8 1_555 1_555
C1_8 H1_7 1_555 1_555
H2_8 C1_8 1_555 1_555
H3_7 C1_8 1_555 1_555
C2_8 N1_8 1_555 1_555
C3_8 C2_8 1_555 1_555
C4_8 C3_8 1_555 1_555
C5_8 C4_8 1_555 1_555
H4_8 C5_8 1_555 1_555
H5_8 C5_8 1_555 1_555
H6_8 C5_8 1_555 1_555
C6_8 H7_8 1_555 1_555
H8_8 C6_8 1_555 1_555
H9_8 C6_8 1_555 1_555
C7_8 N3_8 1_555 1_555
C8_8 C3_8 1_555 1_555
C9_8 C8_8 1_555 1_555
C10_8 C9_8 1_555 1_555
H10_8 C10_8 1_555 1_555
H11_8 C10_8 1_555 1_555
H12_8 C10_8 1_555 1_555
Ag3_6 N2_7 1_555 1_555
Ag4_7 N4_7 1_555 1_555
C1_8 C2_8 1_555 1_555
C6_8 C7_8 1_555 1_555
C7_8 C8_8 1_555 1_555
Ag3_3 N1_9 1_555 1_555
Ag4_4 N3_9 1_555 1_555
N1_9 N2_8 1_555 1_555
N2_8 C4_9 1_555 1_555
N3_9 N4_8 1_555 1_555
N4_8 C9_9 1_555 1_555
C1_9 H1_8 1_555 1_555
H2_9 C1_9 1_555 1_555
H3_8 C1_9 1_555 1_555
C2_9 N1_9 1_555 1_555
C3_9 C2_9 1_555 1_555
C4_9 C3_9 1_555 1_555
C5_9 C4_9 1_555 1_555
H4_9 C5_9 1_555 1_555
H5_9 C5_9 1_555 1_555
H6_9 C5_9 1_555 1_555
C6_9 H7_9 1_555 1_555
H8_9 C6_9 1_555 1_555
H9_9 C6_9 1_555 1_555
C7_9 N3_9 1_555 1_555
C8_9 C3_9 1_555 1_555
C9_9 C8_9 1_555 1_555
C10_9 C9_9 1_555 1_555
H10_9 C10_9 1_555 1_555
H11_9 C10_9 1_555 1_555
H12_9 C10_9 1_555 1_555
Ag4_8 N4_8 1_555 1_555
C1_9 C2_9 1_555 1_555
C6_9 C7_9 1_555 1_555
C7_9 C8_9 1_555 1_555
Ag4_8 N3_10 1_555 1_555
N1_10 N5_4 1_555 1_555
N5_4 C4_10 1_555 1_555
N3_10 N6_3 1_555 1_555
N6_3 C9_10 1_555 1_555
H2_10 C1_10 1_555 1_555
C2_10 N1_10 1_555 1_555
C3_10 C2_10 1_555 1_555
C4_10 C3_10 1_555 1_555
C5_10 C4_10 1_555 1_555
H4_10 C5_10 1_555 1_555
H5_10 C5_10 1_555 1_555
H6_10 C5_10 1_555 1_555
C6_10 H7_10 1_555 1_555
H8_10 C6_10 1_555 1_555
H9_10 C6_10 1_555 1_555
C7_10 N3_10 1_555 1_555
C8_10 C3_10 1_555 1_555
C9_10 C8_10 1_555 1_555
C10_10 C9_10 1_555 1_555
H10_10 C10_10 1_555 1_555
H11_10 C10_10 1_555 1_555
H12_10 C10_10 1_555 1_555
C1_10 C2_10 1_555 1_555
C6_10 C7_10 1_555 1_555
C7_10 C8_10 1_555 1_555
Ag3_6 N1_11 1_555 1_555
Ag4_6 N3_11 1_555 1_555
N1_11 N5_3 1_555 1_555
N5_3 C4_11 1_555 1_555
N3_11 N6_4 1_555 1_555
N6_4 C9_11 1_555 1_555
C1_11 H1_9 1_555 1_555
H2_11 C1_11 1_555 1_555
H3_9 C1_11 1_555 1_555
C2_11 N1_11 1_555 1_555
C3_11 C2_11 1_555 1_555
C4_11 C3_11 1_555 1_555
C5_11 C4_11 1_555 1_555
H4_11 C5_11 1_555 1_555
H5_11 C5_11 1_555 1_555
H6_11 C5_11 1_555 1_555
C6_11 H7_11 1_555 1_555
H8_11 C6_11 1_555 1_555
H9_11 C6_11 1_555 1_555
C7_11 N3_11 1_555 1_555
C8_11 C3_11 1_555 1_555
C9_11 C8_11 1_555 1_555
C10_11 C9_11 1_555 1_555
H10_11 C10_11 1_555 1_555
H11_11 C10_11 1_555 1_555
H12_11 C10_11 1_555 1_555
C1_11 C2_11 1_555 1_555
C6_11 C7_11 1_555 1_555
C7_11 C8_11 1_555 1_555
Ag3_5 N1_12 1_555 1_555
Ag4_7 N3_12 1_555 1_555
N1_12 N5_2 1_555 1_555
N5_2 C4_12 1_555 1_555
N3_12 N6_2 1_555 1_555
N6_2 C9_12 1_555 1_555
C1_12 H1_10 1_555 1_555
H2_12 C1_12 1_555 1_555
H3_10 C1_12 1_555 1_555
C2_12 N1_12 1_555 1_555
C3_12 C2_12 1_555 1_555
C4_12 C3_12 1_555 1_555
C5_12 C4_12 1_555 1_555
H4_12 C5_12 1_555 1_555
H5_12 C5_12 1_555 1_555
H6_12 C5_12 1_555 1_555
C6_12 H7_12 1_555 1_555
H8_12 C6_12 1_555 1_555
H9_12 C6_12 1_555 1_555
C7_12 N3_12 1_555 1_555
C8_12 C3_12 1_555 1_555
C9_12 C8_12 1_555 1_555
C10_12 C9_12 1_555 1_555
H10_12 C10_12 1_555 1_555
H11_12 C10_12 1_555 1_555
H12_12 C10_12 1_555 1_555
C1_12 C2_12 1_555 1_555
C6_12 C7_12 1_555 1_555
C7_12 C8_12 1_555 1_555
Ag1_5 N1_13 1_555 1_555
Ag2_5 N3_13 1_555 1_555
N1_13 N2_9 1_555 1_555
N2_9 C4_13 1_555 1_555
N3_13 N4_9 1_555 1_555
N4_9 C9_13 1_555 1_555
C1_13 H1_13 1_555 1_555
H2_13 C1_13 1_555 1_555
H3_13 C1_13 1_555 1_555
C2_13 N1_13 1_555 1_555
C3_13 C2_13 1_555 1_555
C4_13 C3_13 1_555 1_555
C5_13 C4_13 1_555 1_555
H4_13 C5_13 1_555 1_555
H5_13 C5_13 1_555 1_555
H6_13 C5_13 1_555 1_555
C6_13 H7_13 1_555 1_555
H8_13 C6_13 1_555 1_555
H9_13 C6_13 1_555 1_555
C7_13 N3_13 1_555 1_555
C8_13 C3_13 1_555 1_555
C9_13 C8_13 1_555 1_555
C10_13 C9_13 1_555 1_555
H10_13 C10_13 1_555 1_555
H11_13 C10_13 1_555 1_555
H12_13 C10_13 1_555 1_555
Ag3_9 N2_9 1_555 1_555
Ag4_9 N4_9 1_555 1_555
N5_5 Ag1_5 1_555 1_555
N6_5 Ag2_5 1_555 1_555
C1_13 C2_13 1_555 1_555
C6_13 C7_13 1_555 1_555
C7_13 C8_13 1_555 1_555
Ag1_6 N1_14 1_555 1_555
Ag2_6 N3_14 1_555 1_555
N1_14 N2_10 1_555 1_555
N2_10 C4_14 1_555 1_555
N3_14 N4_10 1_555 1_555
N4_10 C9_14 1_555 1_555
C1_14 H1_14 1_555 1_555
H2_14 C1_14 1_555 1_555
H3_14 C1_14 1_555 1_555
C2_14 N1_14 1_555 1_555
C3_14 C2_14 1_555 1_555
C4_14 C3_14 1_555 1_555
C5_14 C4_14 1_555 1_555
H4_14 C5_14 1_555 1_555
H5_14 C5_14 1_555 1_555
H6_14 C5_14 1_555 1_555
C6_14 H7_14 1_555 1_555
H8_14 C6_14 1_555 1_555
H9_14 C6_14 1_555 1_555
C7_14 N3_14 1_555 1_555
C8_14 C3_14 1_555 1_555
C9_14 C8_14 1_555 1_555
C10_14 C9_14 1_555 1_555
H10_14 C10_14 1_555 1_555
H11_14 C10_14 1_555 1_555
H12_14 C10_14 1_555 1_555
Ag3_10 N2_10 1_555 1_555
Ag4_10 N4_10 1_555 1_555
N5_6 Ag1_6 1_555 1_555
C1_14 C2_14 1_555 1_555
C6_14 C7_14 1_555 1_555
C7_14 C8_14 1_555 1_555
N6_7 Ag2_7 1_555 1_555
Ag1_7 N1_15 1_555 1_555
N1_15 N2_11 1_555 1_555
N2_11 C4_15 1_555 1_555
N3_15 N4_11 1_555 1_555
N4_11 C9_15 1_555 1_555
C1_15 H1_15 1_555 1_555
H2_15 C1_15 1_555 1_555
H3_15 C1_15 1_555 1_555
C2_15 N1_15 1_555 1_555
C3_15 C2_15 1_555 1_555
C4_15 C3_15 1_555 1_555
C5_15 C4_15 1_555 1_555
H4_15 C5_15 1_555 1_555
H5_15 C5_15 1_555 1_555
H6_15 C5_15 1_555 1_555
C6_15 H7_15 1_555 1_555
H8_15 C6_15 1_555 1_555
H9_15 C6_15 1_555 1_555
C7_15 N3_15 1_555 1_555
C8_15 C3_15 1_555 1_555
C9_15 C8_15 1_555 1_555
C10_15 C9_15 1_555 1_555
H10_15 C10_15 1_555 1_555
H11_15 C10_15 1_555 1_555
H12_15 C10_15 1_555 1_555
Ag3_11 N2_11 1_555 1_555
N5_7 Ag1_7 1_555 1_555
C1_15 C2_15 1_555 1_555
C6_15 C7_15 1_555 1_555
C7_15 C8_15 1_555 1_555
Ag3_11 N1_16 1_555 1_555
Ag4_9 N3_16 1_555 1_555
N1_16 N2_12 1_555 1_555
N2_12 C4_16 1_555 1_555
N3_16 N4_12 1_555 1_555
N4_12 C9_16 1_555 1_555
C1_16 H1_16 1_555 1_555
H2_16 C1_16 1_555 1_555
H3_16 C1_16 1_555 1_555
C2_16 N1_16 1_555 1_555
C3_16 C2_16 1_555 1_555
C4_16 C3_16 1_555 1_555
C5_16 C4_16 1_555 1_555
H4_16 C5_16 1_555 1_555
H5_16 C5_16 1_555 1_555
H6_16 C5_16 1_555 1_555
C6_16 H7_16 1_555 1_555
H8_16 C6_16 1_555 1_555
H9_16 C6_16 1_555 1_555
C7_16 N3_16 1_555 1_555
C8_16 C3_16 1_555 1_555
C9_16 C8_16 1_555 1_555
C10_16 C9_16 1_555 1_555
H10_16 C10_16 1_555 1_555
H11_16 C10_16 1_555 1_555
H12_16 C10_16 1_555 1_555
Ag3_12 N2_12 1_555 1_555
Ag4_13 N4_12 1_555 1_555
C1_16 C2_16 1_555 1_555
C6_16 C7_16 1_555 1_555
C7_16 C8_16 1_555 1_555
Ag3_9 N1_17 1_555 1_555
Ag4_12 N3_17 1_555 1_555
N1_17 N2_13 1_555 1_555
N2_13 C4_17 1_555 1_555
N3_17 N4_13 1_555 1_555
N4_13 C9_17 1_555 1_555
C1_17 H1_17 1_555 1_555
H2_17 C1_17 1_555 1_555
H3_17 C1_17 1_555 1_555
C2_17 N1_17 1_555 1_555
C3_17 C2_17 1_555 1_555
C4_17 C3_17 1_555 1_555
C5_17 C4_17 1_555 1_555
H4_17 C5_17 1_555 1_555
H5_17 C5_17 1_555 1_555
H6_17 C5_17 1_555 1_555
C6_17 H7_17 1_555 1_555
H8_17 C6_17 1_555 1_555
H9_17 C6_17 1_555 1_555
C7_17 N3_17 1_555 1_555
C8_17 C3_17 1_555 1_555
C9_17 C8_17 1_555 1_555
C10_17 C9_17 1_555 1_555
H10_17 C10_17 1_555 1_555
H11_17 C10_17 1_555 1_555
H12_17 C10_17 1_555 1_555
Ag3_13 N2_13 1_555 1_555
Ag4_14 N4_13 1_555 1_555
C1_17 C2_17 1_555 1_555
C6_17 C7_17 1_555 1_555
C7_17 C8_17 1_555 1_555
Ag3_10 N1_18 1_555 1_555
N1_18 N2_14 1_555 1_555
N2_14 C4_18 1_555 1_555
N3_18 N4_14 1_555 1_555
N4_14 C9_18 1_555 1_555
C1_18 H1_18 1_555 1_555
H2_18 C1_18 1_555 1_555
H3_18 C1_18 1_555 1_555
C2_18 N1_18 1_555 1_555
C3_18 C2_18 1_555 1_555
C4_18 C3_18 1_555 1_555
C5_18 C4_18 1_555 1_555
H4_18 C5_18 1_555 1_555
H5_18 C5_18 1_555 1_555
H6_18 C5_18 1_555 1_555
C6_18 H7_18 1_555 1_555
H8_18 C6_18 1_555 1_555
H9_18 C6_18 1_555 1_555
C7_18 N3_18 1_555 1_555
C8_18 C3_18 1_555 1_555
C9_18 C8_18 1_555 1_555
C10_18 C9_18 1_555 1_555
H10_18 C10_18 1_555 1_555
H11_18 C10_18 1_555 1_555
H12_18 C10_18 1_555 1_555
Ag3_14 N2_14 1_555 1_555
C1_18 C2_18 1_555 1_555
C6_18 C7_18 1_555 1_555
C7_18 C8_18 1_555 1_555
Ag3_14 N1_19 1_555 1_555
Ag4_13 N3_19 1_555 1_555
N1_19 N5_6 1_555 1_555
N5_6 C4_19 1_555 1_555
N3_19 N6_5 1_555 1_555
N6_5 C9_19 1_555 1_555
C1_19 H1_19 1_555 1_555
H2_19 C1_19 1_555 1_555
H3_19 C1_19 1_555 1_555
C2_19 N1_19 1_555 1_555
C3_19 C2_19 1_555 1_555
C4_19 C3_19 1_555 1_555
C5_19 C4_19 1_555 1_555
H4_19 C5_19 1_555 1_555
H5_19 C5_19 1_555 1_555
H6_19 C5_19 1_555 1_555
C6_19 H7_19 1_555 1_555
H8_19 C6_19 1_555 1_555
H9_19 C6_19 1_555 1_555
C7_19 N3_19 1_555 1_555
C8_19 C3_19 1_555 1_555
C9_19 C8_19 1_555 1_555
C10_19 C9_19 1_555 1_555
H10_19 C10_19 1_555 1_555
H11_19 C10_19 1_555 1_555
H12_19 C10_19 1_555 1_555
C1_19 C2_19 1_555 1_555
C6_19 C7_19 1_555 1_555
C7_19 C8_19 1_555 1_555
Ag3_12 N1_20 1_555 1_555
Ag4_16 N3_20 1_555 1_555
N1_20 N5_7 1_555 1_555
N5_7 C4_20 1_555 1_555
N3_20 N6_7 1_555 1_555
N6_7 C9_20 1_555 1_555
C1_20 H1_20 1_555 1_555
H2_20 C1_20 1_555 1_555
H3_20 C1_20 1_555 1_555
C2_20 N1_20 1_555 1_555
C3_20 C2_20 1_555 1_555
C4_20 C3_20 1_555 1_555
C5_20 C4_20 1_555 1_555
H4_20 C5_20 1_555 1_555
H5_20 C5_20 1_555 1_555
H6_20 C5_20 1_555 1_555
C6_20 H7_20 1_555 1_555
H8_20 C6_20 1_555 1_555
H9_20 C6_20 1_555 1_555
C7_20 N3_20 1_555 1_555
C8_20 C3_20 1_555 1_555
C9_20 C8_20 1_555 1_555
C10_20 C9_20 1_555 1_555
H10_20 C10_20 1_555 1_555
H11_20 C10_20 1_555 1_555
H12_20 C10_20 1_555 1_555
C1_20 C2_20 1_555 1_555
C6_20 C7_20 1_555 1_555
C7_20 C8_20 1_555 1_555
Ag3_13 N1_21 1_555 1_555
N1_21 N5_5 1_555 1_555
N5_5 C4_21 1_555 1_555
N3_21 N6_6 1_555 1_555
N6_6 C9_21 1_555 1_555
C1_21 H1_21 1_555 1_555
H2_21 C1_21 1_555 1_555
H3_21 C1_21 1_555 1_555
C2_21 N1_21 1_555 1_555
C3_21 C2_21 1_555 1_555
C4_21 C3_21 1_555 1_555
C5_21 C4_21 1_555 1_555
H4_21 C5_21 1_555 1_555
H5_21 C5_21 1_555 1_555
H6_21 C5_21 1_555 1_555
C6_21 H7_21 1_555 1_555
H8_21 C6_21 1_555 1_555
H9_21 C6_21 1_555 1_555
C7_21 N3_21 1_555 1_555
C8_21 C3_21 1_555 1_555
C9_21 C8_21 1_555 1_555
C10_21 C9_21 1_555 1_555
H10_21 C10_21 1_555 1_555
H11_21 C10_21 1_555 1_555
H12_21 C10_21 1_555 1_555
C1_21 C2_21 1_555 1_555
C6_21 C7_21 1_555 1_555
C7_21 C8_21 1_555 1_555
Ag1_8 N1_22 1_555 1_555
N1_22 N2_15 1_555 1_555
N2_15 C4_22 1_555 1_555
N3_22 N4_15 1_555 1_555
N4_15 C9_22 1_555 1_555
C1_22 H1_22 1_555 1_555
H2_22 C1_22 1_555 1_555
H3_22 C1_22 1_555 1_555
C2_22 N1_22 1_555 1_555
C3_22 C2_22 1_555 1_555
C4_22 C3_22 1_555 1_555
C5_22 C4_22 1_555 1_555
H4_22 C5_22 1_555 1_555
H5_22 C5_22 1_555 1_555
H6_22 C5_22 1_555 1_555
C6_22 H7_22 1_555 1_555
H8_22 C6_22 1_555 1_555
H9_22 C6_22 1_555 1_555
C7_22 N3_22 1_555 1_555
C8_22 C3_22 1_555 1_555
C9_22 C8_22 1_555 1_555
C10_22 C9_22 1_555 1_555
H10_22 C10_22 1_555 1_555
H11_22 C10_22 1_555 1_555
H12_22 C10_22 1_555 1_555
Ag3_15 N2_15 1_555 1_555
N5_8 Ag1_8 1_555 1_555
C1_22 C2_22 1_555 1_555
C6_22 C7_22 1_555 1_555
C7_22 C8_22 1_555 1_555
Ag3_15 N1_23 1_555 1_555
N1_23 N2_16 1_555 1_555
N2_16 C4_23 1_555 1_555
N3_23 N4_16 1_555 1_555
N4_16 C9_23 1_555 1_555
C1_23 H1_23 1_555 1_555
H2_23 C1_23 1_555 1_555
H3_23 C1_23 1_555 1_555
C2_23 N1_23 1_555 1_555
C3_23 C2_23 1_555 1_555
C4_23 C3_23 1_555 1_555
C5_23 C4_23 1_555 1_555
H4_23 C5_23 1_555 1_555
H5_23 C5_23 1_555 1_555
H6_23 C5_23 1_555 1_555
C6_23 H7_23 1_555 1_555
H8_23 C6_23 1_555 1_555
H9_23 C6_23 1_555 1_555
C7_23 N3_23 1_555 1_555
C8_23 C3_23 1_555 1_555
C9_23 C8_23 1_555 1_555
C10_23 C9_23 1_555 1_555
H10_23 C10_23 1_555 1_555
H11_23 C10_23 1_555 1_555
H12_23 C10_23 1_555 1_555
Ag3_16 N2_16 1_555 1_555
C1_23 C2_23 1_555 1_555
C6_23 C7_23 1_555 1_555
C7_23 C8_23 1_555 1_555
Ag3_16 N1_24 1_555 1_555
N1_24 N5_8 1_555 1_555
N5_8 C4_24 1_555 1_555
N3_24 N6_8 1_555 1_555
N6_8 C9_24 1_555 1_555
C1_24 H1_24 1_555 1_555
H2_24 C1_24 1_555 1_555
H3_24 C1_24 1_555 1_555
C2_24 N1_24 1_555 1_555
C3_24 C2_24 1_555 1_555
C4_24 C3_24 1_555 1_555
C5_24 C4_24 1_555 1_555
H4_24 C5_24 1_555 1_555
H5_24 C5_24 1_555 1_555
H6_24 C5_24 1_555 1_555
C6_24 H7_24 1_555 1_555
H8_24 C6_24 1_555 1_555
H9_24 C6_24 1_555 1_555
C7_24 N3_24 1_555 1_555
C8_24 C3_24 1_555 1_555
C9_24 C8_24 1_555 1_555
C10_24 C9_24 1_555 1_555
H10_24 C10_24 1_555 1_555
H11_24 C10_24 1_555 1_555
H12_24 C10_24 1_555 1_555
C1_24 C2_24 1_555 1_555
C6_24 C7_24 1_555 1_555
C7_24 C8_24 1_555 1_555
Ag1_9 N1_25 1_555 1_555
Ag2_9 N3_25 1_555 1_555
N1_25 N2_17 1_555 1_555
N2_17 C4_25 1_555 1_555
N3_25 N4_17 1_555 1_555
N4_17 C9_25 1_555 1_555
C1_25 H1_25 1_555 1_555
H2_25 C1_25 1_555 1_555
H3_25 C1_25 1_555 1_555
C2_25 N1_25 1_555 1_555
C3_25 C2_25 1_555 1_555
C4_25 C3_25 1_555 1_555
C5_25 C4_25 1_555 1_555
H4_25 C5_25 1_555 1_555
H5_25 C5_25 1_555 1_555
H6_25 C5_25 1_555 1_555
C6_25 H7_25 1_555 1_555
H8_25 C6_25 1_555 1_555
H9_25 C6_25 1_555 1_555
C7_25 N3_25 1_555 1_555
C8_25 C3_25 1_555 1_555
C9_25 C8_25 1_555 1_555
C10_25 C9_25 1_555 1_555
H10_25 C10_25 1_555 1_555
H11_25 C10_25 1_555 1_555
H12_25 C10_25 1_555 1_555
Ag4_17 N4_17 1_555 1_555
N5_9 Ag1_9 1_555 1_555
N6_9 Ag2_9 1_555 1_555
C1_25 C2_25 1_555 1_555
C6_25 C7_25 1_555 1_555
C7_25 C8_25 1_555 1_555
Ag1_10 N1_26 1_555 1_555
Ag2_10 N3_26 1_555 1_555
N1_26 N2_18 1_555 1_555
N2_18 C4_26 1_555 1_555
N3_26 N4_18 1_555 1_555
N4_18 C9_26 1_555 1_555
C1_26 H1_26 1_555 1_555
H2_26 C1_26 1_555 1_555
H3_26 C1_26 1_555 1_555
C2_26 N1_26 1_555 1_555
C3_26 C2_26 1_555 1_555
C4_26 C3_26 1_555 1_555
C5_26 C4_26 1_555 1_555
H4_26 C5_26 1_555 1_555
H5_26 C5_26 1_555 1_555
H6_26 C5_26 1_555 1_555
C6_26 H7_26 1_555 1_555
H8_26 C6_26 1_555 1_555
H9_26 C6_26 1_555 1_555
C7_26 N3_26 1_555 1_555
C8_26 C3_26 1_555 1_555
C9_26 C8_26 1_555 1_555
C10_26 C9_26 1_555 1_555
H10_26 C10_26 1_555 1_555
H11_26 C10_26 1_555 1_555
H12_26 C10_26 1_555 1_555
Ag3_18 N2_18 1_555 1_555
Ag4_18 N4_18 1_555 1_555
N6_10 Ag2_10 1_555 1_555
C1_26 C2_26 1_555 1_555
C6_26 C7_26 1_555 1_555
C7_26 C8_26 1_555 1_555
Ag2_11 N3_27 1_555 1_555
N1_27 N2_19 1_555 1_555
N2_19 C4_27 1_555 1_555
N3_27 N4_19 1_555 1_555
N4_19 C9_27 1_555 1_555
H2_27 C1_27 1_555 1_555
C2_27 N1_27 1_555 1_555
C3_27 C2_27 1_555 1_555
C4_27 C3_27 1_555 1_555
C5_27 C4_27 1_555 1_555
H4_27 C5_27 1_555 1_555
H5_27 C5_27 1_555 1_555
H6_27 C5_27 1_555 1_555
C6_27 H7_27 1_555 1_555
H8_27 C6_27 1_555 1_555
H9_27 C6_27 1_555 1_555
C7_27 N3_27 1_555 1_555
C8_27 C3_27 1_555 1_555
C9_27 C8_27 1_555 1_555
C10_27 C9_27 1_555 1_555
H10_27 C10_27 1_555 1_555
H11_27 C10_27 1_555 1_555
H12_27 C10_27 1_555 1_555
Ag4_19 N4_19 1_555 1_555
N6_11 Ag2_11 1_555 1_555
C1_27 C2_27 1_555 1_555
C6_27 C7_27 1_555 1_555
C7_27 C8_27 1_555 1_555
N5_12 Ag1_11 1_555 1_555
Ag2_12 N3_28 1_555 1_555
N1_28 N2_20 1_555 1_555
N2_20 C4_28 1_555 1_555
N3_28 N4_20 1_555 1_555
N4_20 C9_28 1_555 1_555
H2_28 C1_28 1_555 1_555
C2_28 N1_28 1_555 1_555
C3_28 C2_28 1_555 1_555
C4_28 C3_28 1_555 1_555
C5_28 C4_28 1_555 1_555
H4_28 C5_28 1_555 1_555
H5_28 C5_28 1_555 1_555
H6_28 C5_28 1_555 1_555
C6_28 H7_28 1_555 1_555
H8_28 C6_28 1_555 1_555
H9_28 C6_28 1_555 1_555
C7_28 N3_28 1_555 1_555
C8_28 C3_28 1_555 1_555
C9_28 C8_28 1_555 1_555
C10_28 C9_28 1_555 1_555
H10_28 C10_28 1_555 1_555
H11_28 C10_28 1_555 1_555
H12_28 C10_28 1_555 1_555
Ag3_19 N2_20 1_555 1_555
Ag4_20 N4_20 1_555 1_555
N6_12 Ag2_12 1_555 1_555
C1_28 C2_28 1_555 1_555
C6_28 C7_28 1_555 1_555
C7_28 C8_28 1_555 1_555
Ag3_19 N1_29 1_555 1_555
Ag4_17 N3_29 1_555 1_555
N1_29 N2_21 1_555 1_555
N2_21 C4_29 1_555 1_555
N3_29 N4_21 1_555 1_555
N4_21 C9_29 1_555 1_555
C1_29 H1_28 1_555 1_555
H2_29 C1_29 1_555 1_555
H3_28 C1_29 1_555 1_555
C2_29 N1_29 1_555 1_555
C3_29 C2_29 1_555 1_555
C4_29 C3_29 1_555 1_555
C5_29 C4_29 1_555 1_555
H4_29 C5_29 1_555 1_555
H5_29 C5_29 1_555 1_555
H6_29 C5_29 1_555 1_555
C6_29 H7_29 1_555 1_555
H8_29 C6_29 1_555 1_555
H9_29 C6_29 1_555 1_555
C7_29 N3_29 1_555 1_555
C8_29 C3_29 1_555 1_555
C9_29 C8_29 1_555 1_555
C10_29 C9_29 1_555 1_555
H10_29 C10_29 1_555 1_555
H11_29 C10_29 1_555 1_555
H12_29 C10_29 1_555 1_555
Ag4_21 N4_21 1_555 1_555
C1_29 C2_29 1_555 1_555
C6_29 C7_29 1_555 1_555
C7_29 C8_29 1_555 1_555
Ag3_17 N1_30 1_555 1_555
Ag4_20 N3_30 1_555 1_555
N1_30 N2_22 1_555 1_555
N2_22 C4_30 1_555 1_555
N3_30 N4_22 1_555 1_555
N4_22 C9_30 1_555 1_555
C1_30 H1_29 1_555 1_555
H2_30 C1_30 1_555 1_555
H3_29 C1_30 1_555 1_555
C2_30 N1_30 1_555 1_555
C3_30 C2_30 1_555 1_555
C4_30 C3_30 1_555 1_555
C5_30 C4_30 1_555 1_555
H4_30 C5_30 1_555 1_555
H5_30 C5_30 1_555 1_555
H6_30 C5_30 1_555 1_555
C6_30 H7_30 1_555 1_555
H8_30 C6_30 1_555 1_555
H9_30 C6_30 1_555 1_555
C7_30 N3_30 1_555 1_555
C8_30 C3_30 1_555 1_555
C9_30 C8_30 1_555 1_555
C10_30 C9_30 1_555 1_555
H10_30 C10_30 1_555 1_555
H11_30 C10_30 1_555 1_555
H12_30 C10_30 1_555 1_555
Ag3_21 N2_22 1_555 1_555
Ag4_22 N4_22 1_555 1_555
C1_30 C2_30 1_555 1_555
C6_30 C7_30 1_555 1_555
C7_30 C8_30 1_555 1_555
Ag4_18 N3_31 1_555 1_555
N1_31 N2_23 1_555 1_555
N2_23 C4_31 1_555 1_555
N3_31 N4_23 1_555 1_555
N4_23 C9_31 1_555 1_555
H2_31 C1_31 1_555 1_555
C2_31 N1_31 1_555 1_555
C3_31 C2_31 1_555 1_555
C4_31 C3_31 1_555 1_555
C5_31 C4_31 1_555 1_555
H4_31 C5_31 1_555 1_555
H5_31 C5_31 1_555 1_555
H6_31 C5_31 1_555 1_555
C6_31 H7_31 1_555 1_555
H8_31 C6_31 1_555 1_555
H9_31 C6_31 1_555 1_555
C7_31 N3_31 1_555 1_555
C8_31 C3_31 1_555 1_555
C9_31 C8_31 1_555 1_555
C10_31 C9_31 1_555 1_555
H10_31 C10_31 1_555 1_555
H11_31 C10_31 1_555 1_555
H12_31 C10_31 1_555 1_555
Ag4_23 N4_23 1_555 1_555
C1_31 C2_31 1_555 1_555
C6_31 C7_31 1_555 1_555
C7_31 C8_31 1_555 1_555
Ag4_19 N3_32 1_555 1_555
N1_32 N2_24 1_555 1_555
N2_24 C4_32 1_555 1_555
N3_32 N4_24 1_555 1_555
N4_24 C9_32 1_555 1_555
H2_32 C1_32 1_555 1_555
C2_32 N1_32 1_555 1_555
C3_32 C2_32 1_555 1_555
C4_32 C3_32 1_555 1_555
C5_32 C4_32 1_555 1_555
H4_32 C5_32 1_555 1_555
H5_32 C5_32 1_555 1_555
H6_32 C5_32 1_555 1_555
C6_32 H7_32 1_555 1_555
H8_32 C6_32 1_555 1_555
H9_32 C6_32 1_555 1_555
C7_32 N3_32 1_555 1_555
C8_32 C3_32 1_555 1_555
C9_32 C8_32 1_555 1_555
C10_32 C9_32 1_555 1_555
H10_32 C10_32 1_555 1_555
H11_32 C10_32 1_555 1_555
H12_32 C10_32 1_555 1_555
Ag3_22 N2_24 1_555 1_555
Ag4_24 N4_24 1_555 1_555
C1_32 C2_32 1_555 1_555
C6_32 C7_32 1_555 1_555
C7_32 C8_32 1_555 1_555
Ag3_22 N1_33 1_555 1_555
Ag4_21 N3_33 1_555 1_555
N1_33 N5_10 1_555 1_555
N5_10 C4_33 1_555 1_555
N3_33 N6_9 1_555 1_555
N6_9 C9_33 1_555 1_555
C1_33 H1_31 1_555 1_555
H2_33 C1_33 1_555 1_555
H3_31 C1_33 1_555 1_555
C2_33 N1_33 1_555 1_555
C3_33 C2_33 1_555 1_555
C4_33 C3_33 1_555 1_555
C5_33 C4_33 1_555 1_555
H4_33 C5_33 1_555 1_555
H5_33 C5_33 1_555 1_555
H6_33 C5_33 1_555 1_555
C6_33 H7_33 1_555 1_555
H8_33 C6_33 1_555 1_555
H9_33 C6_33 1_555 1_555
C7_33 N3_33 1_555 1_555
C8_33 C3_33 1_555 1_555
C9_33 C8_33 1_555 1_555
C10_33 C9_33 1_555 1_555
H10_33 C10_33 1_555 1_555
H11_33 C10_33 1_555 1_555
H12_33 C10_33 1_555 1_555
C1_33 C2_33 1_555 1_555
C6_33 C7_33 1_555 1_555
C7_33 C8_33 1_555 1_555
Ag3_20 N1_34 1_555 1_555
Ag4_24 N3_34 1_555 1_555
N1_34 N5_12 1_555 1_555
N5_12 C4_34 1_555 1_555
N3_34 N6_11 1_555 1_555
N6_11 C9_34 1_555 1_555
C1_34 H1_32 1_555 1_555
H2_34 C1_34 1_555 1_555
H3_32 C1_34 1_555 1_555
C2_34 N1_34 1_555 1_555
C3_34 C2_34 1_555 1_555
C4_34 C3_34 1_555 1_555
C5_34 C4_34 1_555 1_555
H4_34 C5_34 1_555 1_555
H5_34 C5_34 1_555 1_555
H6_34 C5_34 1_555 1_555
C6_34 H7_34 1_555 1_555
H8_34 C6_34 1_555 1_555
H9_34 C6_34 1_555 1_555
C7_34 N3_34 1_555 1_555
C8_34 C3_34 1_555 1_555
C9_34 C8_34 1_555 1_555
C10_34 C9_34 1_555 1_555
H10_34 C10_34 1_555 1_555
H11_34 C10_34 1_555 1_555
H12_34 C10_34 1_555 1_555
C1_34 C2_34 1_555 1_555
C6_34 C7_34 1_555 1_555
C7_34 C8_34 1_555 1_555
Ag4_22 N3_35 1_555 1_555
N1_35 N5_11 1_555 1_555
N5_11 C4_35 1_555 1_555
N3_35 N6_12 1_555 1_555
N6_12 C9_35 1_555 1_555
H2_35 C1_35 1_555 1_555
C2_35 N1_35 1_555 1_555
C3_35 C2_35 1_555 1_555
C4_35 C3_35 1_555 1_555
C5_35 C4_35 1_555 1_555
H4_35 C5_35 1_555 1_555
H5_35 C5_35 1_555 1_555
H6_35 C5_35 1_555 1_555
C6_35 H7_35 1_555 1_555
H8_35 C6_35 1_555 1_555
H9_35 C6_35 1_555 1_555
C7_35 N3_35 1_555 1_555
C8_35 C3_35 1_555 1_555
C9_35 C8_35 1_555 1_555
C10_35 C9_35 1_555 1_555
H10_35 C10_35 1_555 1_555
H11_35 C10_35 1_555 1_555
H12_35 C10_35 1_555 1_555
C1_35 C2_35 1_555 1_555
C6_35 C7_35 1_555 1_555
C7_35 C8_35 1_555 1_555
Ag4_23 N3_36 1_555 1_555
N1_36 N5_9 1_555 1_555
N5_9 C4_36 1_555 1_555
N3_36 N6_10 1_555 1_555
N6_10 C9_36 1_555 1_555
H2_36 C1_36 1_555 1_555
C2_36 N1_36 1_555 1_555
C3_36 C2_36 1_555 1_555
C4_36 C3_36 1_555 1_555
C5_36 C4_36 1_555 1_555
H4_36 C5_36 1_555 1_555
H5_36 C5_36 1_555 1_555
H6_36 C5_36 1_555 1_555
C6_36 H7_36 1_555 1_555
H8_36 C6_36 1_555 1_555
H9_36 C6_36 1_555 1_555
C7_36 N3_36 1_555 1_555
C8_36 C3_36 1_555 1_555
C9_36 C8_36 1_555 1_555
C10_36 C9_36 1_555 1_555
H10_36 C10_36 1_555 1_555
H11_36 C10_36 1_555 1_555
H12_36 C10_36 1_555 1_555
C1_36 C2_36 1_555 1_555
C6_36 C7_36 1_555 1_555
C7_36 C8_36 1_555 1_555
Ag1_13 N1_37 1_555 1_555
N1_37 N2_25 1_555 1_555
N2_25 C4_37 1_555 1_555
N3_37 N4_25 1_555 1_555
N4_25 C9_37 1_555 1_555
C1_37 H1_37 1_555 1_555
H2_37 C1_37 1_555 1_555
H3_37 C1_37 1_555 1_555
C2_37 N1_37 1_555 1_555
C3_37 C2_37 1_555 1_555
C4_37 C3_37 1_555 1_555
C5_37 C4_37 1_555 1_555
H4_37 C5_37 1_555 1_555
H5_37 C5_37 1_555 1_555
H6_37 C5_37 1_555 1_555
C6_37 H7_37 1_555 1_555
H8_37 C6_37 1_555 1_555
H9_37 C6_37 1_555 1_555
C7_37 N3_37 1_555 1_555
C8_37 C3_37 1_555 1_555
C9_37 C8_37 1_555 1_555
C10_37 C9_37 1_555 1_555
H10_37 C10_37 1_555 1_555
H11_37 C10_37 1_555 1_555
H12_37 C10_37 1_555 1_555
Ag3_25 N2_25 1_555 1_555
N5_13 Ag1_13 1_555 1_555
C1_37 C2_37 1_555 1_555
C6_37 C7_37 1_555 1_555
C7_37 C8_37 1_555 1_555
N6_14 Ag2_13 1_555 1_555
Ag1_14 N1_38 1_555 1_555
N1_38 N2_26 1_555 1_555
N2_26 C4_38 1_555 1_555
N3_38 N4_26 1_555 1_555
N4_26 C9_38 1_555 1_555
C1_38 H1_38 1_555 1_555
H2_38 C1_38 1_555 1_555
H3_38 C1_38 1_555 1_555
C2_38 N1_38 1_555 1_555
C3_38 C2_38 1_555 1_555
C4_38 C3_38 1_555 1_555
C5_38 C4_38 1_555 1_555
H4_38 C5_38 1_555 1_555
H5_38 C5_38 1_555 1_555
H6_38 C5_38 1_555 1_555
C6_38 H7_38 1_555 1_555
H8_38 C6_38 1_555 1_555
H9_38 C6_38 1_555 1_555
C7_38 N3_38 1_555 1_555
C8_38 C3_38 1_555 1_555
C9_38 C8_38 1_555 1_555
C10_38 C9_38 1_555 1_555
H10_38 C10_38 1_555 1_555
H11_38 C10_38 1_555 1_555
H12_38 C10_38 1_555 1_555
Ag3_26 N2_26 1_555 1_555
N5_14 Ag1_14 1_555 1_555
C1_38 C2_38 1_555 1_555
C6_38 C7_38 1_555 1_555
C7_38 C8_38 1_555 1_555
Ag1_15 N1_39 1_555 1_555
Ag2_14 N3_39 1_555 1_555
N1_39 N2_27 1_555 1_555
N2_27 C4_39 1_555 1_555
N3_39 N4_27 1_555 1_555
N4_27 C9_39 1_555 1_555
C1_39 H1_39 1_555 1_555
H2_39 C1_39 1_555 1_555
H3_39 C1_39 1_555 1_555
C2_39 N1_39 1_555 1_555
C3_39 C2_39 1_555 1_555
C4_39 C3_39 1_555 1_555
C5_39 C4_39 1_555 1_555
H4_39 C5_39 1_555 1_555
H5_39 C5_39 1_555 1_555
H6_39 C5_39 1_555 1_555
C6_39 H7_39 1_555 1_555
H8_39 C6_39 1_555 1_555
H9_39 C6_39 1_555 1_555
C7_39 N3_39 1_555 1_555
C8_39 C3_39 1_555 1_555
C9_39 C8_39 1_555 1_555
C10_39 C9_39 1_555 1_555
H10_39 C10_39 1_555 1_555
H11_39 C10_39 1_555 1_555
H12_39 C10_39 1_555 1_555
Ag3_27 N2_27 1_555 1_555
Ag4_26 N4_27 1_555 1_555
N5_15 Ag1_15 1_555 1_555
C1_39 C2_39 1_555 1_555
C6_39 C7_39 1_555 1_555
C7_39 C8_39 1_555 1_555
Ag1_16 N1_40 1_555 1_555
Ag2_15 N3_40 1_555 1_555
N1_40 N2_28 1_555 1_555
N2_28 C4_40 1_555 1_555
N3_40 N4_28 1_555 1_555
N4_28 C9_40 1_555 1_555
C1_40 H1_40 1_555 1_555
H2_40 C1_40 1_555 1_555
H3_40 C1_40 1_555 1_555
C2_40 N1_40 1_555 1_555
C3_40 C2_40 1_555 1_555
C4_40 C3_40 1_555 1_555
C5_40 C4_40 1_555 1_555
H4_40 C5_40 1_555 1_555
H5_40 C5_40 1_555 1_555
H6_40 C5_40 1_555 1_555
C6_40 H7_40 1_555 1_555
H8_40 C6_40 1_555 1_555
H9_40 C6_40 1_555 1_555
C7_40 N3_40 1_555 1_555
C8_40 C3_40 1_555 1_555
C9_40 C8_40 1_555 1_555
C10_40 C9_40 1_555 1_555
H10_40 C10_40 1_555 1_555
H11_40 C10_40 1_555 1_555
H12_40 C10_40 1_555 1_555
Ag3_28 N2_28 1_555 1_555
Ag4_27 N4_28 1_555 1_555
N5_16 Ag1_16 1_555 1_555
N6_16 Ag2_15 1_555 1_555
C1_40 C2_40 1_555 1_555
C6_40 C7_40 1_555 1_555
C7_40 C8_40 1_555 1_555
Ag3_28 N1_41 1_555 1_555
N1_41 N2_29 1_555 1_555
N2_29 C4_41 1_555 1_555
N3_41 N4_29 1_555 1_555
N4_29 C9_41 1_555 1_555
C1_41 H1_41 1_555 1_555
H2_41 C1_41 1_555 1_555
H3_41 C1_41 1_555 1_555
C2_41 N1_41 1_555 1_555
C3_41 C2_41 1_555 1_555
C4_41 C3_41 1_555 1_555
C5_41 C4_41 1_555 1_555
H4_41 C5_41 1_555 1_555
H5_41 C5_41 1_555 1_555
H6_41 C5_41 1_555 1_555
C6_41 H7_41 1_555 1_555
H8_41 C6_41 1_555 1_555
H9_41 C6_41 1_555 1_555
C7_41 N3_41 1_555 1_555
C8_41 C3_41 1_555 1_555
C9_41 C8_41 1_555 1_555
C10_41 C9_41 1_555 1_555
H10_41 C10_41 1_555 1_555
H11_41 C10_41 1_555 1_555
H12_41 C10_41 1_555 1_555
Ag3_29 N2_29 1_555 1_555
C1_41 C2_41 1_555 1_555
C6_41 C7_41 1_555 1_555
C7_41 C8_41 1_555 1_555
Ag3_25 N1_42 1_555 1_555
N1_42 N2_30 1_555 1_555
N2_30 C4_42 1_555 1_555
N3_42 N4_30 1_555 1_555
N4_30 C9_42 1_555 1_555
C1_42 H1_42 1_555 1_555
H2_42 C1_42 1_555 1_555
H3_42 C1_42 1_555 1_555
C2_42 N1_42 1_555 1_555
C3_42 C2_42 1_555 1_555
C4_42 C3_42 1_555 1_555
C5_42 C4_42 1_555 1_555
H4_42 C5_42 1_555 1_555
H5_42 C5_42 1_555 1_555
H6_42 C5_42 1_555 1_555
C6_42 H7_42 1_555 1_555
H8_42 C6_42 1_555 1_555
H9_42 C6_42 1_555 1_555
C7_42 N3_42 1_555 1_555
C8_42 C3_42 1_555 1_555
C9_42 C8_42 1_555 1_555
C10_42 C9_42 1_555 1_555
H10_42 C10_42 1_555 1_555
H11_42 C10_42 1_555 1_555
H12_42 C10_42 1_555 1_555
Ag3_30 N2_30 1_555 1_555
C1_42 C2_42 1_555 1_555
C6_42 C7_42 1_555 1_555
C7_42 C8_42 1_555 1_555
Ag3_27 N1_43 1_555 1_555
Ag4_25 N3_43 1_555 1_555
N1_43 N2_31 1_555 1_555
N2_31 C4_43 1_555 1_555
N3_43 N4_31 1_555 1_555
N4_31 C9_43 1_555 1_555
C1_43 H1_43 1_555 1_555
H2_43 C1_43 1_555 1_555
H3_43 C1_43 1_555 1_555
C2_43 N1_43 1_555 1_555
C3_43 C2_43 1_555 1_555
C4_43 C3_43 1_555 1_555
C5_43 C4_43 1_555 1_555
H4_43 C5_43 1_555 1_555
H5_43 C5_43 1_555 1_555
H6_43 C5_43 1_555 1_555
C6_43 H7_43 1_555 1_555
H8_43 C6_43 1_555 1_555
H9_43 C6_43 1_555 1_555
C7_43 N3_43 1_555 1_555
C8_43 C3_43 1_555 1_555
C9_43 C8_43 1_555 1_555
C10_43 C9_43 1_555 1_555
H10_43 C10_43 1_555 1_555
H11_43 C10_43 1_555 1_555
H12_43 C10_43 1_555 1_555
Ag3_31 N2_31 1_555 1_555
Ag4_29 N4_31 1_555 1_555
C1_43 C2_43 1_555 1_555
C6_43 C7_43 1_555 1_555
C7_43 C8_43 1_555 1_555
Ag3_26 N1_44 1_555 1_555
Ag4_26 N3_44 1_555 1_555
N1_44 N2_32 1_555 1_555
N2_32 C4_44 1_555 1_555
N3_44 N4_32 1_555 1_555
N4_32 C9_44 1_555 1_555
C1_44 H1_44 1_555 1_555
H2_44 C1_44 1_555 1_555
H3_44 C1_44 1_555 1_555
C2_44 N1_44 1_555 1_555
C3_44 C2_44 1_555 1_555
C4_44 C3_44 1_555 1_555
C5_44 C4_44 1_555 1_555
H4_44 C5_44 1_555 1_555
H5_44 C5_44 1_555 1_555
H6_44 C5_44 1_555 1_555
C6_44 H7_44 1_555 1_555
H8_44 C6_44 1_555 1_555
H9_44 C6_44 1_555 1_555
C7_44 N3_44 1_555 1_555
C8_44 C3_44 1_555 1_555
C9_44 C8_44 1_555 1_555
C10_44 C9_44 1_555 1_555
H10_44 C10_44 1_555 1_555
H11_44 C10_44 1_555 1_555
H12_44 C10_44 1_555 1_555
Ag3_32 N2_32 1_555 1_555
Ag4_30 N4_32 1_555 1_555
C1_44 C2_44 1_555 1_555
C6_44 C7_44 1_555 1_555
C7_44 C8_44 1_555 1_555
Ag3_32 N1_45 1_555 1_555
N1_45 N5_14 1_555 1_555
N5_14 C4_45 1_555 1_555
N3_45 N6_13 1_555 1_555
N6_13 C9_45 1_555 1_555
C1_45 H1_45 1_555 1_555
H2_45 C1_45 1_555 1_555
H3_45 C1_45 1_555 1_555
C2_45 N1_45 1_555 1_555
C3_45 C2_45 1_555 1_555
C4_45 C3_45 1_555 1_555
C5_45 C4_45 1_555 1_555
H4_45 C5_45 1_555 1_555
H5_45 C5_45 1_555 1_555
H6_45 C5_45 1_555 1_555
C6_45 H7_45 1_555 1_555
H8_45 C6_45 1_555 1_555
H9_45 C6_45 1_555 1_555
C7_45 N3_45 1_555 1_555
C8_45 C3_45 1_555 1_555
C9_45 C8_45 1_555 1_555
C10_45 C9_45 1_555 1_555
H10_45 C10_45 1_555 1_555
H11_45 C10_45 1_555 1_555
H12_45 C10_45 1_555 1_555
C1_45 C2_45 1_555 1_555
C6_45 C7_45 1_555 1_555
C7_45 C8_45 1_555 1_555
Ag3_29 N1_46 1_555 1_555
N1_46 N5_16 1_555 1_555
N5_16 C4_46 1_555 1_555
N3_46 N6_15 1_555 1_555
N6_15 C9_46 1_555 1_555
C1_46 H1_46 1_555 1_555
H2_46 C1_46 1_555 1_555
H3_46 C1_46 1_555 1_555
C2_46 N1_46 1_555 1_555
C3_46 C2_46 1_555 1_555
C4_46 C3_46 1_555 1_555
C5_46 C4_46 1_555 1_555
H4_46 C5_46 1_555 1_555
H5_46 C5_46 1_555 1_555
H6_46 C5_46 1_555 1_555
C6_46 H7_46 1_555 1_555
H8_46 C6_46 1_555 1_555
H9_46 C6_46 1_555 1_555
C7_46 N3_46 1_555 1_555
C8_46 C3_46 1_555 1_555
C9_46 C8_46 1_555 1_555
C10_46 C9_46 1_555 1_555
H10_46 C10_46 1_555 1_555
H11_46 C10_46 1_555 1_555
H12_46 C10_46 1_555 1_555
C1_46 C2_46 1_555 1_555
C6_46 C7_46 1_555 1_555
C7_46 C8_46 1_555 1_555
Ag3_31 N1_47 1_555 1_555
Ag4_28 N3_47 1_555 1_555
N1_47 N5_15 1_555 1_555
N5_15 C4_47 1_555 1_555
N3_47 N6_16 1_555 1_555
N6_16 C9_47 1_555 1_555
C1_47 H1_47 1_555 1_555
H2_47 C1_47 1_555 1_555
H3_47 C1_47 1_555 1_555
C2_47 N1_47 1_555 1_555
C3_47 C2_47 1_555 1_555
C4_47 C3_47 1_555 1_555
C5_47 C4_47 1_555 1_555
H4_47 C5_47 1_555 1_555
H5_47 C5_47 1_555 1_555
H6_47 C5_47 1_555 1_555
C6_47 H7_47 1_555 1_555
H8_47 C6_47 1_555 1_555
H9_47 C6_47 1_555 1_555
C7_47 N3_47 1_555 1_555
C8_47 C3_47 1_555 1_555
C9_47 C8_47 1_555 1_555
C10_47 C9_47 1_555 1_555
H10_47 C10_47 1_555 1_555
H11_47 C10_47 1_555 1_555
H12_47 C10_47 1_555 1_555
C1_47 C2_47 1_555 1_555
C6_47 C7_47 1_555 1_555
C7_47 C8_47 1_555 1_555
Ag3_30 N1_48 1_555 1_555
Ag4_29 N3_48 1_555 1_555
N1_48 N5_13 1_555 1_555
N5_13 C4_48 1_555 1_555
N3_48 N6_14 1_555 1_555
N6_14 C9_48 1_555 1_555
C1_48 H1_48 1_555 1_555
H2_48 C1_48 1_555 1_555
H3_48 C1_48 1_555 1_555
C2_48 N1_48 1_555 1_555
C3_48 C2_48 1_555 1_555
C4_48 C3_48 1_555 1_555
C5_48 C4_48 1_555 1_555
H4_48 C5_48 1_555 1_555
H5_48 C5_48 1_555 1_555
H6_48 C5_48 1_555 1_555
C6_48 H7_48 1_555 1_555
H8_48 C6_48 1_555 1_555
H9_48 C6_48 1_555 1_555
C7_48 N3_48 1_555 1_555
C8_48 C3_48 1_555 1_555
C9_48 C8_48 1_555 1_555
C10_48 C9_48 1_555 1_555
H10_48 C10_48 1_555 1_555
H11_48 C10_48 1_555 1_555
H12_48 C10_48 1_555 1_555
C1_48 C2_48 1_555 1_555
C6_48 C7_48 1_555 1_555
C7_48 C8_48 1_555 1_555

#END
