
###############################################################################
#
# This file contains modified crystal structure data generated from the
# MOF subset of the Cambridge Structural Database (CSD) v543 
# hosted by the Cambridge Crystallographic Data Centre (CCDC).
#
# This work is licensed under the Creative Commons
# Attribution-NonCommercial-ShareAlike 4.0 International License.
# To view a copy of this license, visit
# http://creativecommons.org/licenses/by-nc-sa/4.0/
# or send a letter to
# Creative Commons, PO Box 1866, Mountain View, CA 94042, USA.
#
# CIF created using the CSD Python API on 29 September 2022
# The structure has been converted into the P1 space group
# The structure has a 3D framework
# The original CSD entry YEYVOO is in the tetragonal crystal system
# The framework has been calculated to contain at least 10.0% void space
# The void calculation uses a probe of radius 1.32A, grid spacing 0.4
#
###############################################################################

data_YEYVOO
_chemical_formula_moiety         '(C2400 H2880 Ag464 N956)n'
_symmetry_cell_setting           triclinic
_symmetry_space_group_name_H-M   'P 1'
_symmetry_Int_Tables_number      1
_space_group_name_Hall           'P 1'
loop_
_symmetry_equiv_pos_site_id
_symmetry_equiv_pos_as_xyz
1 x,y,z
_cell_length_a                   62.030(2)
_cell_length_b                   62.030(2)
_cell_length_c                   26.5872(15)
_cell_angle_alpha                90
_cell_angle_beta                 90
_cell_angle_gamma                90
_cell_volume                     102300
loop_
_atom_site_label
_atom_site_type_symbol
_atom_site_fract_x
_atom_site_fract_y
_atom_site_fract_z
N29 N 0.14286(19) 0.66945(17) 0.0835(4)
N30 N 0.12212(17) 0.6642(2) 0.0845(4)
N51 N 0.14524(17) 0.58980(18) 0.2010(4)
N52 N 0.15920(15) 0.58421(17) 0.1633(4)
C71 C 0.1782(3) 0.6563(2) 0.1102(7)
C72 C 0.15478(19) 0.65448(19) 0.1062(4)
C73 C 0.1416(2) 0.6383(2) 0.1224(5)
C74 C 0.1203(2) 0.6456(2) 0.1083(5)
C75 C 0.0999(2) 0.6339(3) 0.1142(7)
C126 C 0.1226(3) 0.6203(3) 0.2295(7)
C127 C 0.13810(19) 0.6100(2) 0.1939(5)
C128 C 0.1458(2) 0.6176(2) 0.1477(5)
C129 C 0.15960(19) 0.6010(3) 0.1298(5)
C130 C 0.1736(3) 0.5994(3) 0.0829(6)
Ag13 Ag 0.100140(18) 0.674990(18) 0.03173(4)
Ag15 Ag 0.151630(18) 0.693830(17) 0.03196(4)
Ag27 Ag 0.167670(16) 0.552490(18) 0.15582(4)
H73 H 0.0590 0.6505 0.0193
H84 H 0.2008 0.7182 0.0119
H85 H 0.1828 0.6696 0.0953
H86 H 0.1849 0.6444 0.0929
H87 H 0.1823 0.6560 0.1450
H88 H 0.0882 0.6425 0.1016
H89 H 0.0975 0.6308 0.1492
H90 H 0.1005 0.6206 0.0957
H151 H 0.1202 0.6109 0.2576
H152 H 0.1092 0.6230 0.2126
H153 H 0.1285 0.6337 0.2412
H154 H 0.1807 0.5857 0.0822
H155 H 0.1842 0.6107 0.0834
H156 H 0.1647 0.6010 0.0535
N66 N 0.1728(2) 0.52007(18) 0.1452(5)
Ag36 Ag 0.134870(16) 0.567590(18) 0.25309(4)
N2 N 0.01658(16) 0.54484(18) 0.5584(4)
N3 N 0.05433(18) 0.52137(17) 0.4424(4)
N4 N 0.04599(18) 0.50981(17) 0.4038(4)
N7 N 0.08527(18) 0.8693(2) 0.2493(5)
N8 N 0.0824(2) 0.8556(2) 0.2881(5)
N9 N 0.0227(2) 0.82928(19) 0.3129(5)
N10 N 0.0052(2) 0.8335(2) 0.2823(5)
N11 N 0.01517(17) 0.87262(18) 0.1580(4)
N12 N 0.0361(2) 0.8802(2) 0.1479(5)
N21 N 0.00926(16) 0.66978(16) 0.8271(4)
N22 N 0.01758(19) 0.64988(18) 0.8247(4)
N25 N 0.08004(17) 0.68007(19) 0.9728(4)
N26 N 0.08503(19) 0.69501(19) 0.9358(4)
N27 N 0.14629(19) 0.72088(17) 0.9389(4)
N28 N 0.16122(19) 0.71315(18) 0.9720(4)
N43 N 0.23466(17) 0.92416(19) 0.3969(5)
N44 N 0.22663(19) 0.9112(2) 0.3588(5)
N45 N 0.16277(19) 0.8940(2) 0.3579(5)
N46 N 0.1486(2) 0.9024(2) 0.3940(5)
N47 N 0.30550(19) 0.9216(2) 0.2493(5)
N48 N 0.3005(2) 0.9437(2) 0.2521(5)
N49 N 0.12617(18) 0.52396(17) 0.2953(4)
N50 N 0.12027(17) 0.54572(18) 0.3006(4)
N55 N 0.0001(2) 0.9586(2) 0.0718(5)
N59 N 0.2167(2) 0.7257(2) 0.7988(4)
N60 N 0.2277(2) 0.7392(2) 0.8333(5)
C3 C 0.00097(19) 0.5672(2) 0.6116(4)
C4 C 0.0197(2) 0.56179(19) 0.5904(5)
C5 C 0.0419(2) 0.5708(3) 0.5975(6)
C6 C 0.0878(2) 0.5428(2) 0.4593(5)
C7 C 0.0737(2) 0.5292(2) 0.4274(5)
C8 C 0.07830(19) 0.52120(18) 0.3783(5)
C9 C 0.0604(2) 0.5093(2) 0.3657(5)
C10 C 0.0555(2) 0.4979(3) 0.3171(6)
C16 C 0.1100(2) 0.8994(2) 0.2264(6)
C17 C 0.1020(2) 0.8820(2) 0.2600(5)
C18 C 0.1108(3) 0.8764(2) 0.3078(6)
C19 C 0.0977(2) 0.8598(3) 0.3229(6)
C20 C 0.0983(3) 0.8465(3) 0.3709(6)
C21 C 0.0314(2) 0.8169(3) 0.3971(6)
C22 C 0.0154(2) 0.8235(2) 0.3589(6)
C27 C 0.0018(2) 0.8870(3) 0.1372(5)
C28 C 0.0124(2) 0.9033(2) 0.1147(5)
C29 C 0.0340(2) 0.8978(3) 0.1232(6)
C30 C 0.0549(2) 0.9096(3) 0.1059(7)
C51 C 0.0167(2) 0.7056(3) 0.8656(6)
C52 C 0.0223(2) 0.6821(2) 0.8573(6)
C53 C 0.0389(2) 0.6694(2) 0.8741(5)
C54 C 0.0349(2) 0.6490(2) 0.8540(6)
C55 C 0.0485(3) 0.6287(3) 0.8607(7)
C56 C 0.0212(2) 0.5792(2) 0.7228(5)
C57 C 0.0060(2) 0.59100(19) 0.6912(5)
C61 C 0.0517(2) 0.6516(3) 0.9875(5)
C62 C 0.0622(2) 0.6693(2) 0.9561(6)
C63 C 0.0570(2) 0.6770(2) 0.9058(6)
C64 C 0.0715(2) 0.6926(2) 0.8967(5)
C65 C 0.0745(3) 0.7059(3) 0.8511(5)
C66 C 0.1445(3) 0.7372(3) 0.8553(6)
C67 C 0.1564(2) 0.7278(3) 0.8986(5)
C68 C 0.1787(3) 0.7256(2) 0.9057(5)
C69 C 0.1806(2) 0.7166(2) 0.9511(6)
C70 C 0.2006(3) 0.7104(3) 0.9807(7)
C106 C 0.2684(3) 0.9443(3) 0.4149(7)
C107 C 0.2546(2) 0.9301(2) 0.3829(5)
C108 C 0.2591(2) 0.9222(2) 0.3353(5)
C109 C 0.2409(2) 0.9099(3) 0.3212(5)
C110 C 0.2362(3) 0.8980(3) 0.2754(7)
C111 C 0.1610(2) 0.8739(2) 0.2779(5)
C112 C 0.1508(2) 0.8845(2) 0.3224(5)
C113 C 0.12935(18) 0.8856(2) 0.3347(5)
C114 C 0.1287(2) 0.8975(3) 0.3789(5)
C115 C 0.1103(3) 0.9053(4) 0.4096(6)
C116 C 0.2931(3) 0.8884(3) 0.2859(7)
C117 C 0.2910(3) 0.9115(3) 0.2800(6)
C118 C 0.2775(3) 0.9262(3) 0.3029(7)
C119 C 0.2839(3) 0.9460(2) 0.2836(6)
C120 C 0.2752(3) 0.9679(3) 0.2927(6)
C121 C 0.1140(2) 0.4886(3) 0.3297(6)
C122 C 0.11170(19) 0.5130(2) 0.3249(4)
C123 C 0.0969(2) 0.5272(2) 0.3472(5)
C124 C 0.1025(2) 0.5472(2) 0.3289(5)
C125 C 0.0931(2) 0.5684(2) 0.3392(5)
C136 C 0.0210(3) 0.9526(3) 0.1496(7)
C137 C 0.0094(4) 0.9432(3) 0.1039(6)
C138 C 0.0055(3) 0.9225(2) 0.0897(6)
C146 C 0.1836(3) 0.7051(3) 0.7938(6)
C147 C 0.1980(3) 0.7200(3) 0.8215(6)
C148 C 0.1958(2) 0.7301(2) 0.8691(5)
C149 C 0.2147(2) 0.7415(2) 0.8724(6)
C150 C 0.2220(2) 0.75565(19) 0.9164(5)
Ag2 Ag 0.035695(15) 0.531094(16) 0.50266(4)
Ag3 Ag 0.013079(16) 0.504559(17) 0.40188(4)
Ag4 Ag 0.061280(18) 0.87195(2) 0.19583(5)
Ag5 Ag 0.053030(18) 0.84025(2) 0.29410(5)
Ag6 Ag 0.010180(19) 0.85050(2) 0.21591(5)
Ag12 Ag 0.006730(16) 0.629090(16) 0.76915(4)
Ag14 Ag 0.114910(18) 0.709510(18) 0.94154(4)
Ag22 Ag 0.214330(19) 0.935310(19) 0.45140(5)
Ag23 Ag 0.194790(18) 0.90152(2) 0.36281(5)
Ag24 Ag 0.16022(2) 0.92321(2) 0.44737(4)
Ag25 Ag 0.148750(17) 0.515290(18) 0.24362(4)
Ag30 Ag 0.23284(2) 0.71305(2) 0.73801(5)
H4 H 0.0413 0.5825 0.6211
H5 H 0.0473 0.5759 0.5658
H6 H 0.0512 0.5597 0.6102
H7 H 0.0807 0.5456 0.4907
H8 H 0.0906 0.5561 0.4424
H9 H 0.1011 0.5353 0.4654
H10 H 0.0418 0.4908 0.3197
H11 H 0.0665 0.4874 0.3104
H12 H 0.0550 0.5082 0.2902
H19 H 0.1013 0.9000 0.1965
H20 H 0.1247 0.8966 0.2173
H21 H 0.1092 0.9130 0.2436
H22 H 0.0868 0.8361 0.3704
H23 H 0.0967 0.8558 0.3995
H24 H 0.1119 0.8390 0.3731
H25 H 0.0457 0.8185 0.3836
H26 H 0.0291 0.8021 0.4061
H27 H 0.0299 0.8258 0.4264
H34 H 0.0673 0.9017 0.1175
H35 H 0.0551 0.9239 0.1196
H36 H 0.0551 0.9103 0.0698
H42 H 0.0038 0.7809 0.4236
H61 H 0.0274 0.7121 0.8871
H62 H 0.0165 0.7130 0.8339
H63 H 0.0028 0.7067 0.8812
H64 H 0.0420 0.6170 0.8423
H65 H 0.0628 0.6313 0.8482
H66 H 0.0491 0.6250 0.8957
H67 H 0.0245 0.5876 0.7521
H68 H 0.0149 0.5657 0.7329
H69 H 0.0341 0.5765 0.7042
H74 H 0.0528 0.6381 0.9700
H75 H 0.0368 0.6550 0.9930
H76 H 0.0863 0.7157 0.8561
H77 H 0.0616 0.7140 0.8446
H78 H 0.0775 0.6968 0.8229
H79 H 0.1293 0.7363 0.8615
H80 H 0.1479 0.7293 0.8252
H81 H 0.1485 0.7520 0.8512
H82 H 0.2132 0.7140 0.9616
H83 H 0.2004 0.6952 0.9874
H127 H 0.2612 0.9470 0.4464
H128 H 0.2819 0.9373 0.4211
H129 H 0.2708 0.9577 0.3979
H130 H 0.2222 0.8915 0.2779
H131 H 0.2366 0.9077 0.2472
H132 H 0.2469 0.8869 0.2708
H133 H 0.1764 0.8754 0.2799
H134 H 0.1573 0.8589 0.2775
H135 H 0.1559 0.8806 0.2476
H136 H 0.1156 0.9129 0.4385
H137 H 0.1015 0.9148 0.3897
H138 H 0.1017 0.8932 0.4204
H139 H 0.3043 0.8832 0.2643
H140 H 0.2965 0.8851 0.3202
H141 H 0.2797 0.8816 0.2770
H142 H 0.2836 0.9783 0.2744
H143 H 0.2605 0.9685 0.2815
H144 H 0.2758 0.9711 0.3280
H145 H 0.1258 0.4837 0.3093
H146 H 0.1009 0.4818 0.3185
H147 H 0.1166 0.4849 0.3642
H148 H 0.1009 0.5793 0.3211
H149 H 0.0939 0.5714 0.3746
H150 H 0.0783 0.5685 0.3287
H163 H 0.0211 0.9680 0.1473
H164 H 0.0356 0.9474 0.1503
H165 H 0.0137 0.9483 0.1797
H175 H 0.1900 0.7014 0.7621
H176 H 0.1699 0.7120 0.7880
H177 H 0.1814 0.6922 0.8133
H178 H 0.2358 0.7619 0.9088
H179 H 0.2232 0.7470 0.9463
H180 H 0.2117 0.7669 0.9218
N63 N 0.1716(2) 0.94450(19) 0.4993(5)
N64 N 0.1937(2) 0.9495(2) 0.5021(5)
N67 N 0.1674(2) 0.50567(17) 0.1836(5)
N69 N 0.2508(2) 0.6982(2) 0.6842(5)
Ag33 Ag 0.314690(19) 0.964330(19) 0.20140(5)
Ag34 Ag 0.32679(2) 0.91022(2) 0.19737(4)
Ag38 Ag 0.25936(2) 0.74621(2) 0.82441(5)
C144 C 0.9308(3) 0.0020(2) 0.9024(6)
C145 C 0.9214(3) 0.0243(3) 0.8978(7)
H92 H 0.8768 0.0041 0.9008
H172 H 0.9292 0.0340 0.9193
H173 H 0.9066 0.0240 0.9076
H174 H 0.9226 0.0291 0.8635
N70 N 0.9892(2) 0.0223(2) 0.0833(5)
Ag40 Ag 0.96305(2) 0.01716(2) 0.98801(5)
N1 N 0.99474(17) 0.53977(17) 0.5590(4)
N5 N 0.97966(18) 0.50446(18) 0.3952(4)
N6 N 0.96826(17) 0.51089(19) 0.4372(5)
N13 N 0.95766(16) 0.82554(17) 0.4693(5)
N14 N 0.96460(19) 0.8042(2) 0.4701(5)
N15 N 0.94691(17) 0.76164(18) 0.5809(4)
N16 N 0.93335(18) 0.76712(17) 0.6193(4)
N17 N 0.91176(18) 0.83032(17) 0.6246(4)
N18 N 0.91750(18) 0.84298(16) 0.5852(4)
N19 N 0.96050(17) 0.68001(17) 0.6792(4)
N20 N 0.96890(16) 0.69236(17) 0.7168(4)
N23 N 0.99846(16) 0.61070(16) 0.7074(4)
N24 N 0.98480(17) 0.6179(2) 0.6725(4)
N31 N 0.87447(18) 0.97035(18) 0.8157(4)
N32 N 0.88972(17) 0.96302(18) 0.7799(5)
N33 N 0.87576(17) 0.91261(18) 0.6876(4)
N34 N 0.85682(15) 0.90144(17) 0.6893(4)
N35 N 0.80889(16) 0.92803(18) 0.7757(4)
N36 N 0.81333(16) 0.94480(17) 0.8067(5)
N37 N 0.83381(18) 0.45781(17) 0.3473(4)
N38 N 0.81669(15) 0.46506(16) 0.3181(4)
N39 N 0.76238(16) 0.42393(17) 0.4635(4)
N40 N 0.77172(16) 0.40411(17) 0.4517(4)
N41 N 0.89629(17) 0.50391(17) 0.2954(4)
N42 N 0.89123(17) 0.48869(18) 0.3304(4)
N53 N 0.72993(18) 0.9228(2) 0.8952(5)
N54 N 0.74433(17) 0.9174(2) 0.9336(5)
N56 N 0.9899(2) 0.9462(2) 0.0358(4)
N57 N 0.9535(2) 0.97780(18) 0.9288(5)
N58 N 0.9482(2) 0.9992(2) 0.9342(5)
C1 C 0.9616(2) 0.5520(2) 0.6011(5)
C2 C 0.9853(2) 0.5542(2) 0.5916(5)
C11 C 0.9742(2) 0.4917(3) 0.3095(6)
C12 C 0.9653(2) 0.4997(2) 0.3579(5)
C13 C 0.9451(2) 0.5038(2) 0.3743(5)
C14 C 0.9468(2) 0.5107(2) 0.4243(5)
C15 C 0.9300(2) 0.5184(3) 0.4593(6)
C23 C 0.9931(2) 0.8241(3) 0.3598(6)
C24 C 0.9877(2) 0.8304(2) 0.3108(6)
C25 C 0.9649(3) 0.8338(3) 0.2897(7)
C26 C 0.9776(3) 0.8827(3) 0.1423(7)
C31 C 0.9628(3) 0.8579(3) 0.4183(7)
C32 C 0.9667(2) 0.8346(2) 0.4286(6)
C33 C 0.9796(2) 0.8198(2) 0.4037(6)
C34 C 0.9781(2) 0.8012(2) 0.4309(5)
C35 C 0.9884(3) 0.7794(3) 0.4231(6)
C36 C 0.9694(3) 0.7306(3) 0.5559(7)
C37 C 0.9538(2) 0.7416(2) 0.5901(5)
C38 C 0.9458(2) 0.7340(2) 0.6352(5)
C39 C 0.9321(2) 0.7505(2) 0.6514(7)
C40 C 0.9188(3) 0.7522(3) 0.6978(7)
C41 C 0.8921(3) 0.8301(3) 0.7043(6)
C42 C 0.8987(2) 0.8407(2) 0.6558(5)
C43 C 0.8953(2) 0.8617(2) 0.6365(5)
C44 C 0.90690(18) 0.86197(19) 0.5917(5)
C45 C 0.9093(2) 0.8794(2) 0.5537(6)
C46 C 0.9404(2) 0.6838(2) 0.5996(5)
C47 C 0.9505(2) 0.6931(2) 0.6451(5)
C48 C 0.9518(2) 0.7143(2) 0.6610(6)
C49 C 0.9636(2) 0.7128(2) 0.7063(5)
C50 C 0.9701(3) 0.7312(3) 0.7408(7)
C58 C 0.9962(2) 0.58610(19) 0.6437(5)
C59 C 0.98314(18) 0.60340(19) 0.6342(4)
C60 C 0.9692(2) 0.6079(3) 0.5896(6)
C76 C 0.8735(2) 0.9890(3) 0.8982(6)
C77 C 0.8854(2) 0.9795(2) 0.8539(5)
C78 C 0.9069(2) 0.9781(2) 0.8436(6)
C79 C 0.9092(2) 0.9678(2) 0.7983(6)
C80 C 0.9284(3) 0.9620(3) 0.7673(7)
C81 C 0.9135(2) 0.9081(2) 0.6643(6)
C82 C 0.8910(2) 0.9001(2) 0.6686(5)
C83 C 0.8833(2) 0.8793(2) 0.6591(5)
C84 C 0.8615(2) 0.88081(19) 0.6727(5)
C85 C 0.8443(2) 0.8640(2) 0.6722(5)
C86 C 0.7796(2) 0.9009(3) 0.7655(7)
C87 C 0.7897(2) 0.9197(2) 0.7910(5)
C88 C 0.7818(2) 0.9313(2) 0.8337(6)
C89 C 0.7980(2) 0.9468(2) 0.8415(5)
C90 C 0.7992(3) 0.9639(3) 0.8808(6)
C91 C 0.8418(2) 0.4334(2) 0.4188(5)
C92 C 0.8262(2) 0.44369(19) 0.3817(5)
C93 C 0.8040(2) 0.4416(2) 0.3770(5)
C94 C 0.7989(2) 0.4546(2) 0.3359(5)
C95 C 0.7773(2) 0.4593(2) 0.3109(6)
C96 C 0.7682(2) 0.4621(3) 0.4448(6)
C97 C 0.77297(18) 0.43974(19) 0.4391(5)
C98 C 0.7886(2) 0.43000(19) 0.4098(5)
C99 C 0.7872(2) 0.4082(2) 0.4190(5)
C100 C 0.8002(2) 0.3895(3) 0.3991(7)
C101 C 0.9263(2) 0.5281(3) 0.2724(7)
C102 C 0.9163(2) 0.5110(2) 0.3048(6)
C103 C 0.92432(18) 0.5007(2) 0.3487(5)
C104 C 0.90783(19) 0.48676(19) 0.3616(5)
C105 C 0.9078(2) 0.4707(3) 0.4049(6)
C131 C 0.7315(2) 0.9339(2) 0.8066(6)
C132 C 0.74184(18) 0.92831(18) 0.8545(5)
C133 C 0.7635(2) 0.9275(2) 0.8659(5)
C134 C 0.7644(2) 0.9207(2) 0.9166(6)
C135 C 0.7835(2) 0.9168(3) 0.9488(6)
C139 C 0.9923(2) 0.9252(2) 0.0473(5)
C140 C 0.9826(3) 0.9077(2) 0.0160(6)
C141 C 0.9420(3) 0.9449(3) 0.8880(6)
C142 C 0.9399(3) 0.9680(3) 0.8968(6)
C143 C 0.9249(2) 0.9826(2) 0.8789(5)
Ag1 Ag 0.982519(16) 0.522799(16) 0.50013(4)
Ag7 Ag 0.936790(18) 0.833880(18) 0.52616(5)
Ag8 Ag 0.954410(17) 0.782900(18) 0.52454(4)
Ag9 Ag 0.921930(17) 0.798270(18) 0.62238(5)
Ag10 Ag 0.971560(16) 0.648650(16) 0.67713(4)
Ag11 Ag 0.987040(17) 0.679730(17) 0.77355(4)
Ag16 Ag 0.843720(16) 0.959080(17) 0.80796(4)
Ag17 Ag 0.880450(16) 0.939820(16) 0.73019(4)
Ag18 Ag 0.831810(15) 0.915170(16) 0.72853(4)
Ag19 Ag 0.862410(15) 0.473230(16) 0.33636(4)
Ag20 Ag 0.821950(16) 0.488440(16) 0.26632(4)
Ag21 Ag 0.872090(16) 0.512150(16) 0.24487(4)
Ag28 Ag 0.99621(2) 0.99064(2) 0.07441(5)
H1 H 0.9558 0.5410 0.5798
H2 H 0.9546 0.5655 0.5939
H3 H 0.9592 0.5482 0.6356
H13 H 0.9626 0.4891 0.2864
H14 H 0.9820 0.4786 0.3151
H15 H 0.9838 0.5023 0.2956
H16 H 0.9365 0.5217 0.4912
H17 H 0.9193 0.5074 0.4636
H18 H 0.9234 0.5311 0.4459
H28 H 0.9659 0.8379 0.2550
H29 H 0.9578 0.8450 0.3084
H30 H 0.9569 0.8207 0.2926
H31 H 0.9697 0.8939 0.1257
H32 H 0.9737 0.8823 0.1772
H33 H 0.9742 0.8691 0.1270
H37 H 0.9531 0.8636 0.4431
H38 H 0.9762 0.8656 0.4197
H39 H 0.9565 0.8595 0.3855
H40 H 0.9840 0.7698 0.4495
H41 H 0.9840 0.7737 0.3913
H43 H 0.9719 0.7395 0.5270
H44 H 0.9827 0.7283 0.5734
H45 H 0.9636 0.7170 0.5454
H46 H 0.9110 0.7656 0.6973
H47 H 0.9089 0.7404 0.6992
H48 H 0.9281 0.7519 0.7267
H49 H 0.8970 0.8154 0.7047
H50 H 0.8983 0.8378 0.7321
H51 H 0.8766 0.8304 0.7072
H52 H 0.9185 0.8746 0.5271
H53 H 0.8954 0.8830 0.5403
H54 H 0.9154 0.8919 0.5694
H55 H 0.9422 0.6684 0.5999
H56 H 0.9253 0.6873 0.5993
H57 H 0.9472 0.6897 0.5701
H58 H 0.9779 0.7256 0.7691
H59 H 0.9791 0.7411 0.7227
H60 H 0.9574 0.7386 0.7523
H70 H 0.9700 0.5960 0.5666
H71 H 0.9546 0.6098 0.6004
H72 H 0.9742 0.6208 0.5732
H91 H 0.8582 0.9872 0.8933
H93 H 0.8778 0.9818 0.9285
H94 H 0.9238 0.9547 0.7374
H95 H 0.9378 0.9528 0.7863
H96 H 0.9360 0.9750 0.7581
H97 H 0.9140 0.9230 0.6738
H98 H 0.9183 0.9066 0.6301
H99 H 0.9227 0.8998 0.6860
H100 H 0.8310 0.8701 0.6843
H101 H 0.8485 0.8522 0.6934
H102 H 0.8423 0.8589 0.6384
H103 H 0.7885 0.8965 0.7378
H104 H 0.7656 0.9049 0.7532
H105 H 0.7782 0.8892 0.7889
H106 H 0.8120 0.9722 0.8760
H107 H 0.7994 0.9573 0.9135
H108 H 0.7868 0.9731 0.8782
H109 H 0.8562 0.4382 0.4119
H110 H 0.8378 0.4374 0.4524
H111 H 0.8411 0.4180 0.4156
H112 H 0.7794 0.4692 0.2835
H113 H 0.7712 0.4462 0.2984
H114 H 0.7677 0.4656 0.3351
H115 H 0.7562 0.4638 0.4674
H116 H 0.7805 0.4694 0.4582
H117 H 0.7645 0.4681 0.4126
H118 H 0.7951 0.3764 0.4137
H119 H 0.7988 0.3889 0.3632
H120 H 0.8151 0.3915 0.4078
H121 H 0.9166 0.5315 0.2453
H122 H 0.9288 0.5408 0.2922
H123 H 0.9397 0.5229 0.2590
H124 H 0.8944 0.4629 0.4050
H125 H 0.9195 0.4607 0.4007
H126 H 0.9094 0.4782 0.4361
H157 H 0.7423 0.9374 0.7822
H158 H 0.7221 0.9460 0.8114
H159 H 0.7232 0.9218 0.7948
H160 H 0.7788 0.9124 0.9817
H161 H 0.7918 0.9298 0.9514
H162 H 0.7921 0.9056 0.9341
H167 H 0.9734 0.8990 0.0365
H168 H 0.9939 0.8990 0.0020
H169 H 0.9542 0.9395 0.9062
H170 H 0.9439 0.9423 0.8527
H171 H 0.9292 0.9377 0.8994
N61 N 0.82607(17) 0.51238(16) 0.2135(4)
N62 N 0.84589(17) 0.52172(16) 0.2017(4)
Ag31 Ag 0.738440(16) 0.428050(16) 0.51632(4)
Ag32 Ag 0.762150(16) 0.377910(16) 0.49487(4)
Ag35 Ag 0.734710(18) 0.898750(17) 0.99362(4)
Ag37 Ag 0.697510(18) 0.917670(16) 0.90582(4)
Ag39 Ag 0.97339(2) 0.96270(2) 0.98110(5)
H166 H 0.9744 0.9140 0.9892
N48_2 N 0.3063(2) 0.0505(2) 0.0021(5)
C106_2 C 0.3057(3) 0.0184(3) 0.1649(7)
C107_2 C 0.3199(2) 0.0046(2) 0.1329(5)
C108_2 C 0.3278(2) 0.0091(2) 0.0853(5)
C116_2 C 0.3616(3) 0.0431(3) 0.0359(7)
C117_2 C 0.3385(3) 0.0410(3) 0.0300(6)
C118_2 C 0.3238(3) 0.0275(3) 0.0529(7)
C119_2 C 0.3040(2) 0.0339(3) 0.0336(6)
C120_2 C 0.2821(3) 0.0252(3) 0.0427(6)
H127_2 H 0.3030 0.0112 0.1964
H128_2 H 0.3127 0.0319 0.1711
H129_2 H 0.2923 0.0208 0.1479
H139_2 H 0.3668 0.0543 0.0143
H140_2 H 0.3649 0.0465 0.0702
H141_2 H 0.3684 0.0297 0.0270
H142_2 H 0.2717 0.0336 0.0244
H143_2 H 0.2815 0.0105 0.0315
H144_2 H 0.2789 0.0258 0.0780
N69_2 N 0.5518(2) 0.0008(2) 0.4342(5)
Ag38_2 Ag 0.50379(2) 0.00936(2) 0.57441(5)
N47_2 N 0.3284(2) 0.05550(19) 0.9993(5)
Ag33_2 Ag 0.285670(19) 0.064690(19) 0.95140(5)
Ag34_2 Ag 0.33978(2) 0.07679(2) 0.94737(4)
H151_2 H 0.6391 0.8702 0.0076
Ag36_2 Ag 0.682410(18) 0.884870(16) 0.00309(4)
N1_2 N 0.71023(17) 0.74474(17) 0.3090(4)
N2_2 N 0.70516(18) 0.76658(16) 0.3084(4)
N3_2 N 0.72863(17) 0.80433(18) 0.1924(4)
N4_2 N 0.74019(17) 0.79599(18) 0.1538(4)
N5_2 N 0.74554(18) 0.72966(18) 0.1452(4)
N6_2 N 0.73911(19) 0.71826(17) 0.1872(5)
N8_2 N 0.3944(2) 0.8324(2) 0.0381(5)
N9_2 N 0.42072(19) 0.7727(2) 0.0629(5)
N10_2 N 0.4165(2) 0.7552(2) 0.0323(5)
N13_2 N 0.42446(17) 0.70766(16) 0.2193(5)
N14_2 N 0.4458(2) 0.71460(19) 0.2201(5)
N15_2 N 0.48836(18) 0.69691(17) 0.3309(4)
N16_2 N 0.48288(17) 0.68335(18) 0.3693(4)
N17_2 N 0.41968(17) 0.66176(18) 0.3746(4)
N18_2 N 0.40702(16) 0.66750(18) 0.3352(4)
N19_2 N 0.56999(17) 0.71050(17) 0.4292(4)
N20_2 N 0.55764(17) 0.71890(16) 0.4668(4)
N21_2 N 0.58022(16) 0.75926(16) 0.5771(4)
N22_2 N 0.60012(18) 0.76758(19) 0.5747(4)
N23_2 N 0.63930(16) 0.74846(16) 0.4574(4)
N24_2 N 0.6321(2) 0.73480(17) 0.4225(4)
N25_2 N 0.56993(19) 0.83004(17) 0.7228(4)
N26_2 N 0.55499(19) 0.83503(19) 0.6858(4)
N27_2 N 0.52912(17) 0.89629(19) 0.6889(4)
N28_2 N 0.53685(18) 0.91122(19) 0.7220(4)
N29_2 N 0.58055(17) 0.89286(19) 0.8335(4)
N30_2 N 0.5858(2) 0.87212(17) 0.8345(4)
N31_2 N 0.27965(18) 0.62447(18) 0.5657(4)
N32_2 N 0.28698(18) 0.63972(17) 0.5299(5)
N33_2 N 0.33739(18) 0.62576(17) 0.4376(4)
N34_2 N 0.34856(17) 0.60682(15) 0.4393(4)
N35_2 N 0.32197(18) 0.55889(16) 0.5257(4)
N36_2 N 0.30520(17) 0.56333(16) 0.5567(5)
N37_2 N 0.79219(17) 0.58381(18) 0.0973(4)
N38_2 N 0.78494(16) 0.56669(15) 0.0681(4)
N41_2 N 0.74609(17) 0.64629(17) 0.0454(4)
N42_2 N 0.76131(18) 0.64123(17) 0.0804(4)
N43_2 N 0.32584(19) 0.98466(17) 0.1469(5)
N44_2 N 0.3388(2) 0.97663(19) 0.1088(5)
N45_2 N 0.3560(2) 0.91277(19) 0.1079(5)
N46_2 N 0.3476(2) 0.8986(2) 0.1440(5)
N49_2 N 0.72604(17) 0.87617(18) 0.0453(4)
N50_2 N 0.70428(18) 0.87027(17) 0.0506(4)
N51_2 N 0.66020(18) 0.89524(17) 0.9510(4)
N52_2 N 0.66579(17) 0.90920(15) 0.9133(4)
N53_2 N 0.3272(2) 0.47993(18) 0.6452(5)
N54_2 N 0.3326(2) 0.49433(17) 0.6836(5)
N57_2 N 0.27220(18) 0.7035(2) 0.6788(5)
N59_2 N 0.5243(2) 0.9667(2) 0.5488(4)
N60_2 N 0.5108(2) 0.9777(2) 0.5833(5)
C1_2 C 0.6980(2) 0.7116(2) 0.3511(5)
C2_2 C 0.6958(2) 0.7353(2) 0.3416(5)
C3_2 C 0.6828(2) 0.75097(19) 0.3616(4)
C4_2 C 0.68821(19) 0.7697(2) 0.3404(5)
C5_2 C 0.6792(3) 0.7919(2) 0.3475(6)
C6_2 C 0.7072(2) 0.8378(2) 0.2093(5)
C7_2 C 0.7208(2) 0.8237(2) 0.1774(5)
C8_2 C 0.72880(18) 0.82830(19) 0.1283(5)
C9_2 C 0.7407(2) 0.8104(2) 0.1157(5)
C10_2 C 0.7521(3) 0.8055(2) 0.0671(6)
C11_2 C 0.7583(3) 0.7242(2) 0.0595(6)
C12_2 C 0.7503(2) 0.7153(2) 0.1079(5)
C13_2 C 0.7462(2) 0.6951(2) 0.1243(5)
C14_2 C 0.7393(2) 0.6968(2) 0.1743(5)
C15_2 C 0.7316(3) 0.6800(2) 0.2093(6)
C17_2 C 0.3680(2) 0.8520(2) 0.0100(5)
C18_2 C 0.3736(2) 0.8608(3) 0.0578(6)
C19_2 C 0.3902(3) 0.8477(2) 0.0729(6)
C20_2 C 0.4035(3) 0.8483(3) 0.1209(6)
C21_2 C 0.4331(3) 0.7814(2) 0.1471(6)
C22_2 C 0.4265(2) 0.7654(2) 0.1089(6)
C23_2 C 0.4259(3) 0.7431(2) 0.1098(6)
C24_2 C 0.4196(2) 0.7377(2) 0.0608(6)
C25_2 C 0.4162(3) 0.7149(3) 0.0397(7)
C31_2 C 0.3921(3) 0.7128(3) 0.1683(7)
C32_2 C 0.4154(2) 0.7167(2) 0.1786(6)
C33_2 C 0.4302(2) 0.7296(2) 0.1537(6)
C34_2 C 0.4488(2) 0.7281(2) 0.1809(5)
C35_2 C 0.4706(3) 0.7384(3) 0.1731(6)
C36_2 C 0.5194(3) 0.7194(3) 0.3059(7)
C37_2 C 0.5084(2) 0.7038(2) 0.3401(5)
C38_2 C 0.5160(2) 0.6958(2) 0.3852(5)
C39_2 C 0.4995(2) 0.6821(2) 0.4014(7)
C40_2 C 0.4978(3) 0.6688(3) 0.4478(7)
C41_2 C 0.4199(3) 0.6421(3) 0.4543(6)
C42_2 C 0.4093(2) 0.6487(2) 0.4058(5)
C43_2 C 0.3883(2) 0.6453(2) 0.3865(5)
C44_2 C 0.38803(19) 0.65690(18) 0.3417(5)
C45_2 C 0.3706(2) 0.6593(2) 0.3037(6)
C46_2 C 0.5662(2) 0.6904(2) 0.3496(5)
C47_2 C 0.5569(2) 0.7005(2) 0.3951(5)
C48_2 C 0.5357(2) 0.7018(2) 0.4110(6)
C49_2 C 0.5372(2) 0.7136(2) 0.4563(5)
C50_2 C 0.5188(3) 0.7201(3) 0.4908(7)
C51_2 C 0.5444(3) 0.7667(2) 0.6156(6)
C52_2 C 0.5679(2) 0.7723(2) 0.6073(6)
C53_2 C 0.5806(2) 0.7889(2) 0.6241(5)
C54_2 C 0.6010(2) 0.7849(2) 0.6040(6)
C55_2 C 0.6213(3) 0.7985(3) 0.6107(7)
C56_2 C 0.6708(2) 0.7712(2) 0.4728(5)
C57_2 C 0.65900(19) 0.7560(2) 0.4412(5)
C58_2 C 0.66390(19) 0.7462(2) 0.3937(5)
C59_2 C 0.64660(19) 0.73314(18) 0.3842(4)
C60_2 C 0.6421(3) 0.7192(2) 0.3396(6)
C61_2 C 0.5984(3) 0.8017(2) 0.7375(5)
C62_2 C 0.5807(2) 0.8122(2) 0.7061(6)
C63_2 C 0.5730(2) 0.8070(2) 0.6558(6)
C64_2 C 0.5574(2) 0.8215(2) 0.6467(5)
C65_2 C 0.5441(3) 0.8245(3) 0.6011(5)
C66_2 C 0.5128(3) 0.8945(3) 0.6053(6)
C67_2 C 0.5222(3) 0.9064(2) 0.6486(5)
C68_2 C 0.5244(2) 0.9287(3) 0.6557(5)
C69_2 C 0.5334(2) 0.9306(2) 0.7011(6)
C70_2 C 0.5396(3) 0.9506(3) 0.7307(7)
C71_2 C 0.5937(2) 0.9282(3) 0.8602(7)
C72_2 C 0.59552(19) 0.90478(19) 0.8562(4)
C73_2 C 0.6117(2) 0.8916(2) 0.8724(5)
C74_2 C 0.6044(2) 0.8703(2) 0.8583(5)
C75_2 C 0.6161(3) 0.8499(2) 0.8642(7)
C76_2 C 0.2610(3) 0.6235(2) 0.6482(6)
C77_2 C 0.2705(2) 0.6354(2) 0.6039(5)
C78_2 C 0.2719(2) 0.6569(2) 0.5936(6)
C79_2 C 0.2822(2) 0.6592(2) 0.5483(6)
C80_2 C 0.2880(3) 0.6784(3) 0.5173(7)
C81_2 C 0.3419(2) 0.6635(2) 0.4143(6)
C82_2 C 0.3499(2) 0.6410(2) 0.4186(5)
C83_2 C 0.3707(2) 0.6333(2) 0.4091(5)
C84_2 C 0.36919(19) 0.6115(2) 0.4227(5)
C85_2 C 0.3860(2) 0.5943(2) 0.4222(5)
C86_2 C 0.3491(3) 0.5296(2) 0.5155(7)
C87_2 C 0.3303(2) 0.5397(2) 0.5410(5)
C88_2 C 0.3187(2) 0.5318(2) 0.5837(6)
C89_2 C 0.3032(2) 0.5480(2) 0.5915(5)
C90_2 C 0.2861(3) 0.5492(3) 0.6308(6)
C91_2 C 0.8166(2) 0.5918(2) 0.1688(5)
C92_2 C 0.80631(19) 0.5762(2) 0.1317(5)
C93_2 C 0.8084(2) 0.5540(2) 0.1270(5)
C94_2 C 0.7954(2) 0.5489(2) 0.0859(5)
C95_2 C 0.7907(2) 0.5273(2) 0.0609(6)
C96_2 C 0.7879(3) 0.5182(2) 0.1948(6)
C97_2 C 0.81026(19) 0.52297(18) 0.1891(5)
C98_2 C 0.82000(19) 0.5386(2) 0.1598(5)
C99_2 C 0.8418(2) 0.5372(2) 0.1690(5)
C100_2 C 0.8605(3) 0.5502(2) 0.1491(7)
C101_2 C 0.7219(3) 0.6763(2) 0.0224(7)
C102_2 C 0.7390(2) 0.6663(2) 0.0548(6)
C103_2 C 0.7493(2) 0.67432(18) 0.0987(5)
C104_2 C 0.76324(19) 0.65783(19) 0.1116(5)
C105_2 C 0.7793(3) 0.6578(2) 0.1549(6)
C109_2 C 0.3401(3) 0.9909(2) 0.0712(5)
C110_2 C 0.3520(3) 0.9862(3) 0.0254(7)
C111_2 C 0.3761(2) 0.9110(2) 0.0279(5)
C112_2 C 0.3655(2) 0.9008(2) 0.0724(5)
C113_2 C 0.3644(2) 0.87935(18) 0.0847(5)
C114_2 C 0.3525(3) 0.8787(2) 0.1289(5)
C115_2 C 0.3447(4) 0.8603(3) 0.1596(6)
C121_2 C 0.7614(3) 0.8640(2) 0.0797(6)
C122_2 C 0.7370(2) 0.86170(19) 0.0749(4)
C123_2 C 0.7228(2) 0.8469(2) 0.0972(5)
C124_2 C 0.7028(2) 0.8525(2) 0.0789(5)
C125_2 C 0.6816(2) 0.8431(2) 0.0892(5)
C126_2 C 0.6297(3) 0.8726(3) 0.9795(7)
C127_2 C 0.6400(2) 0.88810(19) 0.9439(5)
C128_2 C 0.6324(2) 0.8958(2) 0.8977(5)
C129_2 C 0.6490(3) 0.90960(19) 0.8798(5)
C130_2 C 0.6506(3) 0.9236(3) 0.8329(6)
C131_2 C 0.3161(2) 0.4815(2) 0.5566(6)
C132_2 C 0.32169(18) 0.49184(18) 0.6045(5)
C133_2 C 0.3225(2) 0.5135(2) 0.6159(5)
C134_2 C 0.3293(2) 0.5144(2) 0.6666(6)
C135_2 C 0.3332(3) 0.5335(2) 0.6988(6)
C141_2 C 0.3051(3) 0.6920(3) 0.6380(6)
C142_2 C 0.2820(3) 0.6899(3) 0.6468(6)
C143_2 C 0.2674(2) 0.6749(2) 0.6289(5)
C144_2 C 0.2480(2) 0.6808(3) 0.6524(6)
C145_2 C 0.2257(3) 0.6714(3) 0.6478(7)
C146_2 C 0.5449(3) 0.9336(3) 0.5438(6)
C147_2 C 0.5300(3) 0.9480(3) 0.5715(6)
C148_2 C 0.5199(2) 0.9458(2) 0.6191(5)
C149_2 C 0.5085(2) 0.9647(2) 0.6224(6)
C150_2 C 0.49435(19) 0.9720(2) 0.6664(5)
Ag1_2 Ag 0.727201(16) 0.732519(16) 0.25013(4)
Ag2_2 Ag 0.718906(16) 0.785695(15) 0.25266(4)
Ag3_2 Ag 0.745441(17) 0.763079(16) 0.15188(4)
Ag5_2 Ag 0.40975(2) 0.803030(18) 0.04410(5)
Ag7_2 Ag 0.416120(18) 0.686790(18) 0.27616(5)
Ag8_2 Ag 0.467100(18) 0.704410(17) 0.27454(4)
Ag9_2 Ag 0.451730(18) 0.671930(17) 0.37238(5)
Ag10_2 Ag 0.601350(16) 0.721560(16) 0.42713(4)
Ag11_2 Ag 0.570270(17) 0.737040(17) 0.52355(4)
Ag12_2 Ag 0.620910(16) 0.756730(16) 0.51915(4)
Ag13_2 Ag 0.575010(18) 0.850140(18) 0.78173(4)
Ag14_2 Ag 0.540490(18) 0.864910(18) 0.69154(4)
Ag15_2 Ag 0.556170(17) 0.901630(18) 0.78196(4)
Ag16_2 Ag 0.290920(17) 0.593720(16) 0.55796(4)
Ag17_2 Ag 0.310180(16) 0.630450(16) 0.48019(4)
Ag18_2 Ag 0.334830(16) 0.581810(15) 0.47853(4)
Ag19_2 Ag 0.776770(16) 0.612410(15) 0.08636(4)
Ag20_2 Ag 0.761560(16) 0.571950(16) 0.01632(4)
Ag23_2 Ag 0.34848(2) 0.944790(18) 0.11281(5)
Ag30_2 Ag 0.53695(2) 0.98284(2) 0.48801(5)
H1_2 H 0.7090 0.7058 0.3298
H2_2 H 0.6845 0.7046 0.3439
H3_2 H 0.7018 0.7092 0.3856
H4_2 H 0.6675 0.7913 0.3711
H5_2 H 0.6741 0.7973 0.3158
H6_2 H 0.6903 0.8012 0.3602
H7_2 H 0.7044 0.8307 0.2407
H8_2 H 0.6939 0.8406 0.1924
H9_2 H 0.7147 0.8511 0.2154
H10_2 H 0.7592 0.7918 0.0697
H11_2 H 0.7626 0.8165 0.0604
H12_2 H 0.7418 0.8050 0.0402
H13_2 H 0.7609 0.7126 0.0364
H14_2 H 0.7714 0.7320 0.0651
H15_2 H 0.7477 0.7338 0.0456
H16_2 H 0.7283 0.6865 0.2412
H17_2 H 0.7426 0.6693 0.2136
H18_2 H 0.7189 0.6734 0.1959
H22_2 H 0.4139 0.8368 0.1204
H23_2 H 0.3942 0.8467 0.1495
H24_2 H 0.4110 0.8619 0.1231
H25_2 H 0.4315 0.7957 0.1336
H26_2 H 0.4479 0.7791 0.1561
H27_2 H 0.4242 0.7799 0.1764
H28_2 H 0.4121 0.7159 0.0050
H29_2 H 0.4050 0.7078 0.0584
H30_2 H 0.4293 0.7069 0.0426
H37_2 H 0.3864 0.7031 0.1931
H38_2 H 0.3844 0.7262 0.1697
H39_2 H 0.3905 0.7065 0.1355
H40_2 H 0.4802 0.7340 0.1995
H41_2 H 0.4763 0.7340 0.1413
H42_2 H 0.4691 0.7538 0.1736
H43_2 H 0.5105 0.7219 0.2770
H44_2 H 0.5217 0.7327 0.3234
H45_2 H 0.5330 0.7136 0.2954
H46_2 H 0.4844 0.6610 0.4473
H47_2 H 0.5096 0.6589 0.4492
H48_2 H 0.4981 0.6781 0.4767
H49_2 H 0.4346 0.6470 0.4547
H50_2 H 0.4122 0.6483 0.4821
H51_2 H 0.4196 0.6266 0.4572
H52_2 H 0.3754 0.6685 0.2771
H53_2 H 0.3670 0.6454 0.2903
H54_2 H 0.3581 0.6654 0.3194
H55_2 H 0.5816 0.6922 0.3499
H56_2 H 0.5627 0.6753 0.3493
H57_2 H 0.5603 0.6972 0.3201
H58_2 H 0.5244 0.7279 0.5191
H59_2 H 0.5089 0.7291 0.4727
H60_2 H 0.5114 0.7074 0.5023
H61_2 H 0.5379 0.7774 0.6371
H62_2 H 0.5370 0.7665 0.5839
H63_2 H 0.5433 0.7528 0.6312
H64_2 H 0.6330 0.7920 0.5923
H65_2 H 0.6187 0.8128 0.5982
H66_2 H 0.6250 0.7991 0.6457
H67_2 H 0.6624 0.7745 0.5021
H68_2 H 0.6843 0.7649 0.4829
H69_2 H 0.6735 0.7841 0.4542
H70_2 H 0.6540 0.7200 0.3166
H71_2 H 0.6402 0.7046 0.3504
H72_2 H 0.6292 0.7242 0.3232
H73_2 H 0.5995 0.8090 0.7693
H74_2 H 0.6119 0.8028 0.7200
H75_2 H 0.5950 0.7868 0.7430
H76_2 H 0.5343 0.8363 0.6061
H77_2 H 0.5360 0.8116 0.5946
H78_2 H 0.5532 0.8275 0.5729
H79_2 H 0.5137 0.8793 0.6115
H80_2 H 0.5207 0.8979 0.5752
H81_2 H 0.4980 0.8985 0.6012
H82_2 H 0.5360 0.9632 0.7116
H83_2 H 0.5548 0.9504 0.7374
H84_2 H 0.5318 0.9508 0.7619
H85_2 H 0.5804 0.9328 0.8453
H86_2 H 0.6056 0.9349 0.8429
H87_2 H 0.5940 0.9323 0.8950
H88_2 H 0.6075 0.8382 0.8516
H89_2 H 0.6192 0.8475 0.8992
H90_2 H 0.6294 0.8505 0.8457
H91_2 H 0.2628 0.6082 0.6433
H92_2 H 0.2459 0.6268 0.6508
H93_2 H 0.2682 0.6278 0.6785
H94_2 H 0.2953 0.6738 0.4874
H95_2 H 0.2972 0.6878 0.5363
H96_2 H 0.2750 0.6860 0.5081
H97_2 H 0.3270 0.6640 0.4238
H98_2 H 0.3434 0.6683 0.3801
H99_2 H 0.3502 0.6727 0.4360
H100_2 H 0.3799 0.5810 0.4343
H101_2 H 0.3978 0.5985 0.4434
H102_2 H 0.3911 0.5923 0.3884
H103_2 H 0.3535 0.5385 0.4878
H104_2 H 0.3451 0.5156 0.5032
H105_2 H 0.3608 0.5282 0.5389
H106_2 H 0.2778 0.5620 0.6260
H107_2 H 0.2927 0.5494 0.6635
H108_2 H 0.2769 0.5368 0.6282
H109_2 H 0.8118 0.6062 0.1619
H110_2 H 0.8126 0.5878 0.2024
H111_2 H 0.8320 0.5911 0.1656
H112_2 H 0.7808 0.5294 0.0335
H113_2 H 0.8038 0.5212 0.0484
H114_2 H 0.7844 0.5177 0.0851
H115_2 H 0.7862 0.5062 0.2174
H116_2 H 0.7806 0.5305 0.2082
H117_2 H 0.7819 0.5145 0.1626
H118_2 H 0.8736 0.5451 0.1637
H119_2 H 0.8611 0.5488 0.1132
H120_2 H 0.8585 0.5651 0.1578
H122_2 H 0.7092 0.6788 0.0422
H123_2 H 0.7271 0.6897 0.0090
H124_2 H 0.7871 0.6444 0.1550
H125_2 H 0.7893 0.6695 0.1507
H126_2 H 0.7718 0.6594 0.1861
H130_2 H 0.3585 0.9722 0.0279
H132_2 H 0.3631 0.9969 0.0208
H133_2 H 0.3746 0.9264 0.0299
H134_2 H 0.3911 0.9073 0.0275
H136_2 H 0.3371 0.8656 0.1885
H137_2 H 0.3352 0.8515 0.1397
H138_2 H 0.3568 0.8517 0.1704
H145_2 H 0.7663 0.8758 0.0593
H146_2 H 0.7682 0.8509 0.0685
H147_2 H 0.7651 0.8666 0.1142
H148_2 H 0.6707 0.8509 0.0711
H149_2 H 0.6786 0.8439 0.1246
H150_2 H 0.6815 0.8283 0.0787
H152_2 H 0.6270 0.8592 0.9626
H153_2 H 0.6163 0.8785 0.9912
H154_2 H 0.6643 0.9307 0.8322
H155_2 H 0.6393 0.9342 0.8334
H156_2 H 0.6490 0.9147 0.8035
H157_2 H 0.3126 0.4923 0.5322
H158_2 H 0.3040 0.4721 0.5614
H159_2 H 0.3282 0.4732 0.5448
H160_2 H 0.3376 0.5288 0.7317
H161_2 H 0.3202 0.5418 0.7014
H162_2 H 0.3444 0.5421 0.6841
H169_2 H 0.3105 0.7042 0.6562
H170_2 H 0.3077 0.6939 0.6027
H171_2 H 0.3123 0.6792 0.6494
H172_2 H 0.2160 0.6792 0.6693
H173_2 H 0.2260 0.6566 0.6576
H174_2 H 0.2209 0.6726 0.6135
H175_2 H 0.5486 0.9400 0.5121
H176_2 H 0.5380 0.9199 0.5380
H177_2 H 0.5578 0.9314 0.5633
H178_2 H 0.4881 0.9858 0.6588
H179_2 H 0.5030 0.9732 0.6963
H180_2 H 0.4831 0.9617 0.6718
Ag35_2 Ag 0.351250(17) 0.484710(18) 0.74362(4)
Ag37_2 Ag 0.332330(16) 0.447510(18) 0.65582(4)
Ag39_2 Ag 0.28730(2) 0.72339(2) 0.73110(5)
N7_2 N 0.3807(2) 0.83527(18) 0.9993(5)
N11_2 N 0.37738(18) 0.76517(17) 0.9080(4)
N12_2 N 0.3698(2) 0.7861(2) 0.8979(5)
N55_2 N 0.2914(2) 0.7501(2) 0.8218(5)
N56_2 N 0.3038(2) 0.7399(2) 0.7858(4)
C16_2 C 0.3506(2) 0.8600(2) 0.9764(6)
C26_2 C 0.3673(3) 0.7276(3) 0.8923(7)
C27_2 C 0.3630(3) 0.7518(2) 0.8872(5)
C28_2 C 0.3467(2) 0.7624(2) 0.8647(5)
C29_2 C 0.3522(3) 0.7840(2) 0.8732(6)
C30_2 C 0.3404(3) 0.8049(2) 0.8559(7)
C136_2 C 0.2974(3) 0.7710(3) 0.8996(7)
C137_2 C 0.3068(3) 0.7594(4) 0.8539(6)
C138_2 C 0.3275(2) 0.7555(3) 0.8397(6)
C139_2 C 0.3248(2) 0.7423(2) 0.7973(5)
C140_2 C 0.3423(2) 0.7326(3) 0.7660(6)
Ag4_2 Ag 0.37805(2) 0.811280(18) 0.94583(5)
Ag6_2 Ag 0.39950(2) 0.760180(19) 0.96591(5)
Ag21_2 Ag 0.737850(16) 0.622090(16) 0.99487(4)
H19_2 H 0.3500 0.8513 0.9465
H20_2 H 0.3534 0.8747 0.9673
H21_2 H 0.3370 0.8592 0.9936
H31_2 H 0.3561 0.7197 0.8757
H32_2 H 0.3677 0.7237 0.9272
H33_2 H 0.3809 0.7242 0.8770
H34_2 H 0.3483 0.8173 0.8675
H35_2 H 0.3261 0.8051 0.8696
H36_2 H 0.3397 0.8051 0.8198
H121_2 H 0.7185 0.6666 0.9953
H131_2 H 0.3423 0.9866 0.9972
H135_2 H 0.3694 0.9059 0.9976
H163_2 H 0.2820 0.7711 0.8973
H164_2 H 0.3026 0.7856 0.9003
H165_2 H 0.3017 0.7637 0.9297
H166_2 H 0.3360 0.7244 0.7392
H167_2 H 0.3510 0.7234 0.7865
H168_2 H 0.3510 0.7439 0.7520
N61_2 N 0.73762(16) 0.57607(17) 0.9635(4)
N62_2 N 0.72828(16) 0.59589(17) 0.9517(4)
N31_3 N 0.22035(18) 0.37553(18) 0.0657(4)
N32_3 N 0.21302(18) 0.36028(17) 0.0299(5)
N35_3 N 0.17803(18) 0.44111(16) 0.0257(4)
N36_3 N 0.19480(17) 0.43667(16) 0.0567(5)
N57_3 N 0.22780(18) 0.2965(2) 0.1788(5)
N58_2 N 0.2492(2) 0.3018(2) 0.1842(5)
C76_3 C 0.2390(3) 0.3765(2) 0.1482(6)
C77_3 C 0.2295(2) 0.3646(2) 0.1039(5)
C78_3 C 0.2281(2) 0.3431(2) 0.0936(6)
C79_3 C 0.2178(2) 0.3408(2) 0.0483(6)
C80_3 C 0.2120(3) 0.3216(3) 0.0173(7)
C86_3 C 0.1509(3) 0.4704(2) 0.0155(7)
C87_3 C 0.1697(2) 0.4603(2) 0.0410(5)
C88_3 C 0.1813(2) 0.4682(2) 0.0837(6)
C89_3 C 0.1968(2) 0.4520(2) 0.0915(5)
C90_3 C 0.2139(3) 0.4508(3) 0.1308(6)
C131_3 C 0.1839(2) 0.5185(2) 0.0566(6)
C132_3 C 0.17831(18) 0.50816(18) 0.1045(5)
C133_3 C 0.1775(2) 0.4865(2) 0.1159(5)
C134_3 C 0.1707(2) 0.4856(2) 0.1666(6)
C135_3 C 0.1668(3) 0.4665(2) 0.1988(6)
C141_3 C 0.1949(3) 0.3080(3) 0.1380(6)
C142_3 C 0.2180(3) 0.3101(3) 0.1468(6)
C143_3 C 0.2326(2) 0.3251(2) 0.1289(5)
C144_3 C 0.2520(2) 0.3192(3) 0.1524(6)
C145_3 C 0.2743(3) 0.3286(3) 0.1478(7)
C150_3 C 0.00565(19) 0.0280(2) 0.1664(5)
Ag16_3 Ag 0.209080(17) 0.406280(16) 0.05796(4)
H81_3 H 0.0020 0.1015 0.1012
H91_3 H 0.2372 0.3918 0.1433
H92_3 H 0.2541 0.3732 0.1508
H93_3 H 0.2318 0.3722 0.1785
H95_3 H 0.2028 0.3122 0.0363
H96_3 H 0.2250 0.3140 0.0081
H104_3 H 0.1549 0.4844 0.0032
H105_3 H 0.1392 0.4718 0.0389
H106_3 H 0.2222 0.4380 0.1260
H107_3 H 0.2073 0.4506 0.1635
H108_3 H 0.2231 0.4632 0.1282
H157_3 H 0.1874 0.5077 0.0322
H158_3 H 0.1960 0.5279 0.0614
H159_3 H 0.1718 0.5268 0.0448
H160_3 H 0.1624 0.4712 0.2317
H161_3 H 0.1798 0.4582 0.2014
H162_3 H 0.1556 0.4579 0.1841
H169_3 H 0.1895 0.2958 0.1562
H170_3 H 0.1923 0.3061 0.1027
H171_3 H 0.1877 0.3208 0.1494
H172_3 H 0.2840 0.3208 0.1693
H173_3 H 0.2740 0.3434 0.1576
H174_3 H 0.2791 0.3274 0.1135
H178_3 H 0.0119 0.0142 0.1588
H180_3 H 0.0169 0.0383 0.1718
Ag39_3 Ag 0.21270(2) 0.27661(2) 0.23110(5)
Ag40_2 Ag 0.26716(2) 0.28695(2) 0.23801(5)
N7_3 N 0.1193(2) 0.16473(18) 0.4993(5)
N8_3 N 0.1056(2) 0.1676(2) 0.5381(5)
N9_3 N 0.07928(19) 0.2273(2) 0.5629(5)
N10_3 N 0.0835(2) 0.2448(2) 0.5323(5)
N11_3 N 0.12262(18) 0.23483(17) 0.4080(4)
N12_3 N 0.1302(2) 0.2139(2) 0.3979(5)
N13_3 N 0.07554(17) 0.29234(16) 0.7193(5)
N14_3 N 0.0542(2) 0.28540(19) 0.7201(5)
N15_3 N 0.01164(18) 0.30309(17) 0.8309(4)
N16_3 N 0.01712(17) 0.31665(18) 0.8693(4)
N17_3 N 0.08032(17) 0.33824(18) 0.8746(4)
N18_3 N 0.09298(16) 0.33250(18) 0.8352(4)
N33_3 N 0.16261(18) 0.37424(17) 0.9376(4)
N34_3 N 0.15144(17) 0.39318(15) 0.9393(4)
N43_3 N 0.17416(19) 0.01534(17) 0.6469(5)
N44_3 N 0.1612(2) 0.02337(19) 0.6088(5)
N45_3 N 0.1440(2) 0.08723(19) 0.6079(5)
N46_3 N 0.1524(2) 0.1014(2) 0.6440(5)
N55_3 N 0.2086(2) 0.2499(2) 0.3218(5)
N56_3 N 0.1962(2) 0.2601(2) 0.2858(4)
C16_3 C 0.1494(2) 0.1400(2) 0.4764(6)
C17_3 C 0.1320(2) 0.1480(2) 0.5100(5)
C18_3 C 0.1264(2) 0.1392(3) 0.5578(6)
C19_3 C 0.1098(3) 0.1523(2) 0.5729(6)
C20_3 C 0.0965(3) 0.1517(3) 0.6209(6)
C21_3 C 0.0669(3) 0.2186(2) 0.6471(6)
C22_3 C 0.0735(2) 0.2346(2) 0.6089(6)
C23_3 C 0.0741(3) 0.2569(2) 0.6098(6)
C24_3 C 0.0804(2) 0.2623(2) 0.5608(6)
C25_3 C 0.0838(3) 0.2851(3) 0.5397(7)
C26_3 C 0.1327(3) 0.2724(3) 0.3923(7)
C27_3 C 0.1370(3) 0.2482(2) 0.3872(5)
C28_3 C 0.1533(2) 0.2376(2) 0.3647(5)
C29_3 C 0.1478(3) 0.2160(2) 0.3732(6)
C30_3 C 0.1596(3) 0.1951(2) 0.3559(7)
C31_3 C 0.1079(3) 0.2872(3) 0.6683(7)
C32_3 C 0.0846(2) 0.2833(2) 0.6786(6)
C33_3 C 0.0698(2) 0.2704(2) 0.6537(6)
C34_3 C 0.0512(2) 0.2719(2) 0.6809(5)
C35_3 C 0.0294(3) 0.2616(3) 0.6731(6)
C39_3 C 0.0005(2) 0.3179(2) 0.9014(7)
C40_3 C 0.0022(3) 0.3312(3) 0.9478(7)
C41_3 C 0.0801(3) 0.3579(3) 0.9543(6)
C42_3 C 0.0907(2) 0.3513(2) 0.9058(5)
C43_3 C 0.1117(2) 0.3547(2) 0.8865(5)
C44_3 C 0.11197(19) 0.34310(18) 0.8417(5)
C45_3 C 0.1294(2) 0.3407(2) 0.8037(6)
C81_3 C 0.1581(2) 0.3365(2) 0.9143(6)
C82_3 C 0.1501(2) 0.3590(2) 0.9186(5)
C83_3 C 0.1293(2) 0.3667(2) 0.9091(5)
C84_3 C 0.13081(19) 0.3885(2) 0.9227(5)
C85_3 C 0.1140(2) 0.4057(2) 0.9222(5)
C109_3 C 0.1599(3) 0.0091(2) 0.5712(5)
C110_3 C 0.1480(3) 0.0138(3) 0.5254(7)
C111_3 C 0.1239(2) 0.0890(2) 0.5279(5)
C112_3 C 0.1345(2) 0.0992(2) 0.5724(5)
C113_3 C 0.1356(2) 0.12065(18) 0.5847(5)
C114_3 C 0.1475(3) 0.1213(2) 0.6289(5)
C115_3 C 0.1553(4) 0.1397(3) 0.6596(6)
C136_3 C 0.2026(3) 0.2290(3) 0.3996(7)
C137_3 C 0.1932(3) 0.2406(4) 0.3539(6)
C138_3 C 0.1725(2) 0.2445(3) 0.3397(6)
C139_3 C 0.1752(2) 0.2577(2) 0.2973(5)
C140_3 C 0.1577(2) 0.2674(3) 0.2660(6)
Ag4_3 Ag 0.12195(2) 0.188720(18) 0.44583(5)
Ag5_3 Ag 0.09025(2) 0.196970(18) 0.54410(5)
Ag6_3 Ag 0.10050(2) 0.239820(19) 0.46591(5)
Ag7_3 Ag 0.083880(18) 0.313210(18) 0.77616(5)
Ag8_3 Ag 0.032900(18) 0.295590(17) 0.77454(4)
Ag9_3 Ag 0.048270(18) 0.328070(17) 0.87238(5)
Ag17_3 Ag 0.189820(16) 0.369550(16) 0.98019(4)
Ag18_3 Ag 0.165170(16) 0.418190(15) 0.97853(4)
Ag22_2 Ag 0.185310(19) 0.035670(19) 0.70140(5)
Ag23_3 Ag 0.15152(2) 0.055210(18) 0.61281(5)
Ag24_2 Ag 0.17321(2) 0.08978(2) 0.69737(4)
Ag28_2 Ag 0.24064(2) 0.25379(2) 0.32441(5)
H19_3 H 0.1500 0.1487 0.4465
H20_3 H 0.1466 0.1253 0.4673
H21_3 H 0.1630 0.1408 0.4936
H22_3 H 0.0861 0.1632 0.6204
H23_3 H 0.1058 0.1533 0.6495
H24_3 H 0.0890 0.1381 0.6231
H25_3 H 0.0685 0.2043 0.6336
H26_3 H 0.0521 0.2209 0.6561
H27_3 H 0.0758 0.2201 0.6764
H28_3 H 0.0879 0.2841 0.5050
H29_3 H 0.0950 0.2922 0.5584
H30_3 H 0.0707 0.2931 0.5426
H31_3 H 0.1439 0.2803 0.3757
H32_3 H 0.1323 0.2763 0.4272
H33_3 H 0.1191 0.2758 0.3770
H34_3 H 0.1517 0.1827 0.3675
H35_3 H 0.1739 0.1949 0.3696
H36_3 H 0.1603 0.1949 0.3198
H37_3 H 0.1136 0.2969 0.6931
H38_3 H 0.1156 0.2738 0.6697
H39_3 H 0.1095 0.2935 0.6355
H40_3 H 0.0198 0.2660 0.6995
H41_3 H 0.0237 0.2660 0.6413
H42_3 H 0.0309 0.2462 0.6736
H46_3 H 0.0156 0.3390 0.9473
H48_3 H 0.0019 0.3219 0.9767
H49_3 H 0.0654 0.3530 0.9547
H50_3 H 0.0878 0.3517 0.9821
H51_3 H 0.0804 0.3734 0.9572
H52_3 H 0.1246 0.3315 0.7771
H53_3 H 0.1330 0.3546 0.7903
H54_3 H 0.1419 0.3346 0.8194
H94_3 H 0.2047 0.3262 0.9874
H97_3 H 0.1730 0.3360 0.9238
H98_3 H 0.1566 0.3317 0.8801
H99_3 H 0.1498 0.3273 0.9360
H100_3 H 0.1201 0.4190 0.9343
H101_3 H 0.1022 0.4015 0.9434
H102_3 H 0.1089 0.4077 0.8884
H103_3 H 0.1465 0.4615 0.9878
H130_3 H 0.1415 0.0278 0.5279
H131_3 H 0.1577 0.0134 0.4972
H132_3 H 0.1369 0.0031 0.5208
H133_3 H 0.1254 0.0736 0.5299
H134_3 H 0.1089 0.0927 0.5275
H135_3 H 0.1306 0.0941 0.4976
H136_3 H 0.1629 0.1344 0.6885
H137_3 H 0.1648 0.1485 0.6397
H138_3 H 0.1432 0.1483 0.6704
H163_3 H 0.2180 0.2289 0.3973
H164_3 H 0.1974 0.2144 0.4003
H165_3 H 0.1983 0.2363 0.4297
H166_3 H 0.1640 0.2756 0.2392
H167_3 H 0.1490 0.2766 0.2865
H168_3 H 0.1490 0.2561 0.2520
N63_2 N 0.19450(19) 0.0784(2) 0.7493(5)
N64_2 N 0.1995(2) 0.0563(2) 0.7521(5)
N70_2 N 0.2723(2) 0.2608(2) 0.3333(5)
C106_3 C 0.1943(3) 0.9816(3) 0.6649(7)
C107_3 C 0.1801(2) 0.9954(2) 0.6329(5)
C108_3 C 0.1722(2) 0.9909(2) 0.5853(5)
C116_3 C 0.1384(3) 0.9569(3) 0.5359(7)
C117_3 C 0.1615(3) 0.9590(3) 0.5300(6)
C118_3 C 0.1762(3) 0.9725(3) 0.5529(7)
C119_3 C 0.1960(2) 0.9661(3) 0.5336(6)
C120_3 C 0.2179(3) 0.9748(3) 0.5427(6)
H127_3 H 0.1970 0.9888 0.6964
H128_3 H 0.1873 0.9681 0.6711
H129_3 H 0.2077 0.9792 0.6479
H139_3 H 0.1332 0.9457 0.5143
H140_3 H 0.1351 0.9535 0.5702
H141_3 H 0.1316 0.9703 0.5270
H142_3 H 0.2283 0.9664 0.5244
H143_3 H 0.2185 0.9895 0.5315
H144_3 H 0.2211 0.9742 0.5780
N21_3 N 0.91978(16) 0.24074(16) 0.0771(4)
N22_3 N 0.89988(18) 0.23242(19) 0.0747(4)
N25_3 N 0.93007(19) 0.16996(17) 0.2228(4)
N26_3 N 0.94501(19) 0.16497(19) 0.1858(4)
N27_3 N 0.97088(17) 0.10371(19) 0.1889(4)
N28_3 N 0.96315(18) 0.08878(19) 0.2220(4)
N29_3 N 0.91945(17) 0.10714(19) 0.3335(4)
N30_3 N 0.9142(2) 0.12788(17) 0.3345(4)
N51_3 N 0.83980(18) 0.10476(17) 0.4510(4)
N52_3 N 0.83421(17) 0.09080(15) 0.4133(4)
N59_3 N 0.9757(2) 0.0333(2) 0.0488(4)
C51_3 C 0.9556(3) 0.2333(2) 0.1156(6)
C52_3 C 0.9321(2) 0.2277(2) 0.1073(6)
C53_3 C 0.9194(2) 0.2111(2) 0.1241(5)
C54_3 C 0.8990(2) 0.2151(2) 0.1040(6)
C55_3 C 0.8787(3) 0.2015(3) 0.1107(7)
C61_3 C 0.9016(3) 0.1983(2) 0.2375(5)
C62_3 C 0.9193(2) 0.1878(2) 0.2061(6)
C63_3 C 0.9270(2) 0.1930(2) 0.1558(6)
C64_3 C 0.9426(2) 0.1785(2) 0.1467(5)
C65_3 C 0.9559(3) 0.1755(3) 0.1011(5)
C66_3 C 0.9872(3) 0.1055(3) 0.1053(6)
C67_3 C 0.9778(3) 0.0936(2) 0.1486(5)
C68_3 C 0.9756(2) 0.0713(3) 0.1557(5)
C69_3 C 0.9666(2) 0.0694(2) 0.2011(6)
C70_3 C 0.9604(3) 0.0494(3) 0.2307(7)
C71_3 C 0.9063(2) 0.0718(3) 0.3602(7)
C72_3 C 0.90448(19) 0.09522(19) 0.3562(4)
C73_3 C 0.8883(2) 0.1084(2) 0.3724(5)
C74_3 C 0.8956(2) 0.1297(2) 0.3583(5)
C75_3 C 0.8839(3) 0.1501(2) 0.3642(7)
C126_3 C 0.8703(3) 0.1274(3) 0.4795(7)
C127_3 C 0.8600(2) 0.11190(19) 0.4439(5)
C128_3 C 0.8676(2) 0.1042(2) 0.3977(5)
C129_3 C 0.8510(3) 0.09040(19) 0.3798(5)
C130_3 C 0.8494(3) 0.0764(3) 0.3329(6)
C146_3 C 0.9551(3) 0.0664(3) 0.0438(6)
C147_3 C 0.9700(3) 0.0520(3) 0.0715(6)
C148_3 C 0.9801(2) 0.0542(2) 0.1191(5)
C149_3 C 0.9915(2) 0.0353(2) 0.1224(6)
Ag11_3 Ag 0.929730(17) 0.262960(17) 0.02355(4)
Ag12_3 Ag 0.879090(16) 0.243270(16) 0.01915(4)
Ag13_3 Ag 0.924990(18) 0.149860(18) 0.28173(4)
Ag14_3 Ag 0.959510(18) 0.135090(18) 0.19154(4)
Ag15_3 Ag 0.943830(17) 0.098370(18) 0.28196(4)
Ag27_2 Ag 0.802490(18) 0.082330(16) 0.40582(4)
H58_3 H 0.9756 0.2721 0.0191
H60_3 H 0.9886 0.2926 0.0023
H61_3 H 0.9621 0.2226 0.1371
H62_3 H 0.9630 0.2335 0.0839
H63_3 H 0.9567 0.2472 0.1312
H64_3 H 0.8670 0.2080 0.0923
H65_3 H 0.8813 0.1872 0.0982
H66_3 H 0.8750 0.2009 0.1457
H67_3 H 0.8376 0.2255 0.0021
H73_3 H 0.9005 0.1910 0.2693
H74_3 H 0.8881 0.1972 0.2200
H75_3 H 0.9050 0.2132 0.2430
H76_3 H 0.9657 0.1637 0.1061
H77_3 H 0.9640 0.1884 0.0946
H78_3 H 0.9468 0.1725 0.0729
H79_3 H 0.9863 0.1207 0.1115
H80_3 H 0.9793 0.1021 0.0752
H82_3 H 0.9640 0.0368 0.2116
H83_3 H 0.9452 0.0496 0.2374
H84_3 H 0.9682 0.0492 0.2619
H85_3 H 0.9196 0.0672 0.3453
H86_3 H 0.8944 0.0651 0.3429
H87_3 H 0.9060 0.0677 0.3950
H88_3 H 0.8925 0.1618 0.3516
H89_3 H 0.8808 0.1525 0.3992
H90_3 H 0.8706 0.1495 0.3457
H151_3 H 0.8609 0.1298 0.5076
H152_3 H 0.8730 0.1408 0.4626
H153_3 H 0.8837 0.1215 0.4912
H154_3 H 0.8357 0.0693 0.3322
H155_3 H 0.8607 0.0658 0.3334
H156_3 H 0.8510 0.0853 0.3035
H175_3 H 0.9514 0.0600 0.0121
H176_3 H 0.9620 0.0801 0.0380
H177_3 H 0.9422 0.0686 0.0633
H179_3 H 0.9970 0.0268 0.1963
N66_2 N 0.77007(18) 0.0772(2) 0.3952(5)
Ag36_3 Ag 0.817590(18) 0.115130(16) 0.50309(4)
N1_3 N 0.78977(17) 0.25526(17) 0.8090(4)
N2_3 N 0.79484(18) 0.23342(16) 0.8084(4)
N3_3 N 0.77137(17) 0.19567(18) 0.6924(4)
N4_3 N 0.75981(17) 0.20401(18) 0.6538(4)
N5_3 N 0.75446(18) 0.27034(18) 0.6452(4)
N6_3 N 0.76089(19) 0.28174(17) 0.6872(5)
N19_3 N 0.93001(17) 0.28950(17) 0.9292(4)
N20_3 N 0.94236(17) 0.28110(16) 0.9668(4)
N23_3 N 0.86070(16) 0.25154(16) 0.9574(4)
N24_3 N 0.8679(2) 0.26520(17) 0.9225(4)
N37_3 N 0.70781(17) 0.41619(18) 0.5973(4)
N38_3 N 0.71506(16) 0.43331(15) 0.5681(4)
N39_2 N 0.67393(17) 0.48762(16) 0.7135(4)
N40_2 N 0.65411(17) 0.47828(16) 0.7017(4)
N41_3 N 0.75391(17) 0.35371(17) 0.5454(4)
N42_3 N 0.73869(18) 0.35877(17) 0.5804(4)
N49_3 N 0.77396(17) 0.12383(18) 0.5453(4)
N50_3 N 0.79572(18) 0.12973(17) 0.5506(4)
C1_3 C 0.8020(2) 0.2884(2) 0.8511(5)
C2_3 C 0.8042(2) 0.2647(2) 0.8416(5)
C3_3 C 0.8172(2) 0.24903(19) 0.8616(4)
C4_3 C 0.81179(19) 0.2303(2) 0.8404(5)
C5_3 C 0.8208(3) 0.2081(2) 0.8475(6)
C6_3 C 0.7928(2) 0.1622(2) 0.7093(5)
C7_3 C 0.7792(2) 0.1763(2) 0.6774(5)
C8_3 C 0.77120(18) 0.17170(19) 0.6283(5)
C9_3 C 0.7593(2) 0.1896(2) 0.6157(5)
C10_3 C 0.7479(3) 0.1945(2) 0.5671(6)
C11_3 C 0.7417(3) 0.2758(2) 0.5595(6)
C12_3 C 0.7497(2) 0.2847(2) 0.6079(5)
C13_3 C 0.7538(2) 0.3049(2) 0.6243(5)
C14_3 C 0.7607(2) 0.3032(2) 0.6743(5)
C15_3 C 0.7684(3) 0.3200(2) 0.7093(6)
C36_3 C 0.9806(3) 0.2806(3) 0.8059(7)
C37_3 C 0.9916(2) 0.2962(2) 0.8401(5)
C38_3 C 0.9840(2) 0.3042(2) 0.8852(5)
C46_3 C 0.9338(2) 0.3096(2) 0.8496(5)
C47_3 C 0.9431(2) 0.2995(2) 0.8951(5)
C48_3 C 0.9643(2) 0.2982(2) 0.9110(6)
C49_3 C 0.9628(2) 0.2864(2) 0.9563(5)
C50_3 C 0.9812(3) 0.2799(3) 0.9908(7)
C56_3 C 0.8292(2) 0.2288(2) 0.9728(5)
C57_3 C 0.84100(19) 0.2440(2) 0.9412(5)
C58_3 C 0.83610(19) 0.2538(2) 0.8937(5)
C59_3 C 0.85340(19) 0.26686(18) 0.8842(4)
C60_3 C 0.8579(3) 0.2808(2) 0.8396(6)
C91_3 C 0.6834(2) 0.4082(2) 0.6688(5)
C92_3 C 0.69369(19) 0.4238(2) 0.6317(5)
C93_3 C 0.6916(2) 0.4460(2) 0.6270(5)
C94_3 C 0.7046(2) 0.4511(2) 0.5859(5)
C95_3 C 0.7093(2) 0.4727(2) 0.5609(6)
C96_3 C 0.7121(3) 0.4818(2) 0.6948(6)
C97_3 C 0.68974(19) 0.47703(18) 0.6891(5)
C98_3 C 0.68000(19) 0.4614(2) 0.6598(5)
C99_3 C 0.6582(2) 0.4628(2) 0.6690(5)
C100_3 C 0.6395(3) 0.4498(2) 0.6491(7)
C101_3 C 0.7781(3) 0.3237(2) 0.5224(7)
C102_3 C 0.7610(2) 0.3337(2) 0.5548(6)
C103_3 C 0.7507(2) 0.32568(18) 0.5987(5)
C104_3 C 0.73676(19) 0.34217(19) 0.6116(5)
C105_3 C 0.7207(3) 0.3422(2) 0.6549(6)
C121_3 C 0.7386(3) 0.1360(2) 0.5797(6)
C122_3 C 0.7630(2) 0.13830(19) 0.5749(4)
C123_3 C 0.7772(2) 0.1531(2) 0.5972(5)
C124_3 C 0.7972(2) 0.1475(2) 0.5789(5)
C125_3 C 0.8184(2) 0.1569(2) 0.5892(5)
Ag1_3 Ag 0.772799(16) 0.267481(16) 0.75013(4)
Ag2_3 Ag 0.781094(16) 0.214305(15) 0.75266(4)
Ag3_3 Ag 0.754559(17) 0.236921(16) 0.65188(4)
Ag10_3 Ag 0.898650(16) 0.278440(16) 0.92713(4)
Ag19_3 Ag 0.723230(16) 0.387590(15) 0.58636(4)
Ag25_2 Ag 0.765290(18) 0.101250(17) 0.49362(4)
H1_3 H 0.7910 0.2942 0.8298
H2_3 H 0.8155 0.2954 0.8439
H3_3 H 0.7982 0.2908 0.8856
H4_3 H 0.8325 0.2087 0.8711
H5_3 H 0.8259 0.2027 0.8158
H6_3 H 0.8097 0.1988 0.8602
H7_3 H 0.7956 0.1693 0.7407
H8_3 H 0.8061 0.1594 0.6924
H9_3 H 0.7853 0.1489 0.7154
H10_3 H 0.7408 0.2082 0.5697
H11_3 H 0.7374 0.1835 0.5604
H12_3 H 0.7582 0.1950 0.5402
H13_3 H 0.7391 0.2874 0.5364
H14_3 H 0.7286 0.2680 0.5651
H15_3 H 0.7523 0.2662 0.5456
H16_3 H 0.7717 0.3135 0.7412
H17_3 H 0.7574 0.3307 0.7136
H18_3 H 0.7811 0.3266 0.6959
H43_3 H 0.9895 0.2781 0.7770
H44_3 H 0.9783 0.2673 0.8234
H45_3 H 0.9670 0.2864 0.7954
H47_3 H 0.9904 0.3411 0.9492
H55_3 H 0.9184 0.3078 0.8499
H56_3 H 0.9373 0.3247 0.8493
H57_3 H 0.9397 0.3028 0.8201
H59_3 H 0.9911 0.2709 0.9727
H68_3 H 0.8157 0.2351 0.9829
H69_3 H 0.8265 0.2159 0.9542
H70_3 H 0.8460 0.2800 0.8166
H71_3 H 0.8598 0.2954 0.8504
H72_3 H 0.8708 0.2758 0.8232
H109_3 H 0.6882 0.3938 0.6619
H110_3 H 0.6874 0.4122 0.7024
H111_3 H 0.6680 0.4089 0.6656
H112_3 H 0.7192 0.4706 0.5335
H113_3 H 0.6962 0.4788 0.5484
H114_3 H 0.7156 0.4823 0.5851
H115_3 H 0.7138 0.4938 0.7174
H116_3 H 0.7194 0.4695 0.7082
H117_3 H 0.7181 0.4855 0.6626
H118_3 H 0.6264 0.4549 0.6637
H119_3 H 0.6389 0.4512 0.6132
H120_3 H 0.6415 0.4349 0.6578
H121_3 H 0.7815 0.3334 0.4953
H122_3 H 0.7908 0.3212 0.5422
H123_3 H 0.7729 0.3103 0.5090
H124_3 H 0.7129 0.3556 0.6550
H125_3 H 0.7107 0.3305 0.6507
H126_3 H 0.7282 0.3406 0.6861
H145_3 H 0.7337 0.1242 0.5593
H146_3 H 0.7318 0.1491 0.5685
H147_3 H 0.7349 0.1334 0.6142
H148_3 H 0.8293 0.1491 0.5711
H149_3 H 0.8214 0.1561 0.6246
H150_3 H 0.8185 0.1717 0.5787
N67_2 N 0.75567(17) 0.0826(2) 0.4336(5)
Ag31_2 Ag 0.678050(16) 0.511560(16) 0.76632(4)
Ag32_2 Ag 0.627910(16) 0.487850(16) 0.74487(4)
N1_4 N 0.50526(17) 0.46023(17) 0.0590(4)
N2_4 N 0.48342(16) 0.45516(18) 0.0584(4)
N15_4 N 0.55309(17) 0.23836(18) 0.0809(4)
N16_4 N 0.56665(18) 0.23288(17) 0.1193(4)
N17_4 N 0.58824(18) 0.16968(17) 0.1246(4)
N18_4 N 0.58250(18) 0.15702(16) 0.0852(4)
N19_4 N 0.53950(17) 0.31999(17) 0.1792(4)
N20_4 N 0.53110(16) 0.30764(17) 0.2168(4)
N21_4 N 0.49074(16) 0.33022(16) 0.3271(4)
N22_4 N 0.48242(19) 0.35012(18) 0.3247(4)
N23_4 N 0.50154(16) 0.38930(16) 0.2074(4)
N24_4 N 0.51520(17) 0.3821(2) 0.1725(4)
N25_4 N 0.41996(17) 0.31993(19) 0.4728(4)
N26_4 N 0.41497(19) 0.30499(19) 0.4358(4)
N27_4 N 0.35371(19) 0.27912(17) 0.4389(4)
N28_4 N 0.33878(19) 0.28685(18) 0.4720(4)
N29_4 N 0.35714(19) 0.33055(17) 0.5835(4)
N30_4 N 0.37788(17) 0.3358(2) 0.5845(4)
N31_4 N 0.62553(18) 0.02965(18) 0.3157(4)
N32_4 N 0.61028(17) 0.03698(18) 0.2799(5)
N33_4 N 0.62424(17) 0.08739(18) 0.1876(4)
N34_4 N 0.64318(15) 0.09856(17) 0.1893(4)
N35_4 N 0.69111(16) 0.07197(18) 0.2757(4)
N36_4 N 0.68667(16) 0.05520(17) 0.3067(5)
N51_4 N 0.35476(17) 0.41020(18) 0.7010(4)
N52_4 N 0.34080(15) 0.41579(17) 0.6633(4)
N57_4 N 0.5465(2) 0.02220(18) 0.4288(5)
N59_4 N 0.2833(2) 0.2743(2) 0.2988(4)
C1_4 C 0.5384(2) 0.4480(2) 0.1011(5)
C2_4 C 0.5147(2) 0.4458(2) 0.0916(5)
C3_4 C 0.49903(19) 0.4328(2) 0.1116(4)
C4_4 C 0.4803(2) 0.43821(19) 0.0904(5)
C5_4 C 0.4581(2) 0.4292(3) 0.0975(6)
C36_4 C 0.5306(3) 0.2694(3) 0.0559(7)
C37_4 C 0.5462(2) 0.2584(2) 0.0901(5)
C38_4 C 0.5542(2) 0.2660(2) 0.1352(5)
C39_4 C 0.5679(2) 0.2495(2) 0.1514(7)
C40_4 C 0.5812(3) 0.2478(3) 0.1978(7)
C41_4 C 0.6079(3) 0.1699(3) 0.2043(6)
C42_4 C 0.6013(2) 0.1593(2) 0.1558(5)
C43_4 C 0.6047(2) 0.1383(2) 0.1365(5)
C44_4 C 0.59310(18) 0.13803(19) 0.0917(5)
C45_4 C 0.5907(2) 0.1206(2) 0.0537(6)
C46_4 C 0.5596(2) 0.3162(2) 0.0996(5)
C47_4 C 0.5495(2) 0.3069(2) 0.1451(5)
C48_4 C 0.5482(2) 0.2857(2) 0.1610(6)
C49_4 C 0.5364(2) 0.2872(2) 0.2063(5)
C50_4 C 0.5299(3) 0.2688(3) 0.2408(7)
C51_4 C 0.4833(2) 0.2944(3) 0.3656(6)
C52_4 C 0.4777(2) 0.3179(2) 0.3573(6)
C53_4 C 0.4611(2) 0.3306(2) 0.3741(5)
C54_4 C 0.4651(2) 0.3510(2) 0.3540(6)
C55_4 C 0.4515(3) 0.3713(3) 0.3607(7)
C56_4 C 0.4788(2) 0.4208(2) 0.2228(5)
C57_4 C 0.4940(2) 0.40900(19) 0.1912(5)
C58_4 C 0.5038(2) 0.41390(19) 0.1437(5)
C59_4 C 0.51686(18) 0.39660(19) 0.1342(4)
C60_4 C 0.5308(2) 0.3921(3) 0.0896(6)
C61_4 C 0.4483(2) 0.3484(3) 0.4875(5)
C62_4 C 0.4378(2) 0.3307(2) 0.4561(6)
C63_4 C 0.4430(2) 0.3230(2) 0.4058(6)
C64_4 C 0.4285(2) 0.3074(2) 0.3967(5)
C65_4 C 0.4255(3) 0.2941(3) 0.3511(5)
C66_4 C 0.3555(3) 0.2628(3) 0.3553(6)
C67_4 C 0.3436(2) 0.2722(3) 0.3986(5)
C68_4 C 0.3213(3) 0.2744(2) 0.4057(5)
C69_4 C 0.3194(2) 0.2834(2) 0.4511(6)
C70_4 C 0.2994(3) 0.2896(3) 0.4807(7)
C71_4 C 0.3218(3) 0.3437(2) 0.6102(7)
C72_4 C 0.34522(19) 0.34552(19) 0.6062(4)
C73_4 C 0.3584(2) 0.3617(2) 0.6224(5)
C74_4 C 0.3797(2) 0.3544(2) 0.6083(5)
C75_4 C 0.4001(2) 0.3661(3) 0.6142(7)
C76_4 C 0.6265(2) 0.0110(3) 0.3982(6)
C77_4 C 0.6146(2) 0.0205(2) 0.3539(5)
C78_4 C 0.5931(2) 0.0219(2) 0.3436(6)
C79_4 C 0.5908(2) 0.0322(2) 0.2983(6)
C80_4 C 0.5716(3) 0.0380(3) 0.2673(7)
C81_4 C 0.5865(2) 0.0919(2) 0.1643(6)
C82_4 C 0.6090(2) 0.0999(2) 0.1686(5)
C83_4 C 0.6167(2) 0.1207(2) 0.1591(5)
C84_4 C 0.6385(2) 0.11919(19) 0.1727(5)
C85_4 C 0.6557(2) 0.1360(2) 0.1722(5)
C86_4 C 0.7204(2) 0.0991(3) 0.2655(7)
C87_4 C 0.7103(2) 0.0803(2) 0.2910(5)
C88_4 C 0.7182(2) 0.0687(2) 0.3337(6)
C89_4 C 0.7020(2) 0.0532(2) 0.3415(5)
C90_4 C 0.7008(3) 0.0361(3) 0.3808(6)
C126_4 C 0.3774(3) 0.3797(3) 0.7295(7)
C127_4 C 0.36190(19) 0.3900(2) 0.6939(5)
C128_4 C 0.3542(2) 0.3824(2) 0.6477(5)
C129_4 C 0.34040(19) 0.3990(3) 0.6298(5)
C130_4 C 0.3264(3) 0.4006(3) 0.5829(6)
C131_4 C 0.7685(2) 0.0661(2) 0.3066(6)
C132_4 C 0.75816(18) 0.07169(18) 0.3545(5)
C133_4 C 0.7365(2) 0.0725(2) 0.3659(5)
C134_4 C 0.7356(2) 0.0793(2) 0.4166(6)
C135_4 C 0.7165(2) 0.0832(3) 0.4488(6)
C141_4 C 0.5580(3) 0.0551(3) 0.3880(6)
C142_4 C 0.5601(3) 0.0320(3) 0.3968(6)
C143_4 C 0.5751(2) 0.0174(2) 0.3789(5)
C146_4 C 0.3164(3) 0.2949(3) 0.2938(6)
C147_4 C 0.3020(3) 0.2800(3) 0.3215(6)
C148_4 C 0.3042(2) 0.2699(2) 0.3691(5)
C149_4 C 0.2853(2) 0.2585(2) 0.3724(6)
C150_4 C 0.2780(2) 0.24435(19) 0.4164(5)
Ag1_4 Ag 0.517481(16) 0.477201(16) 0.00013(4)
Ag2_4 Ag 0.464305(15) 0.468906(16) 0.00266(4)
Ag7_4 Ag 0.563210(18) 0.166120(18) 0.02616(5)
Ag8_4 Ag 0.545590(17) 0.217100(18) 0.02454(4)
Ag9_4 Ag 0.578070(17) 0.201730(18) 0.12238(5)
Ag10_4 Ag 0.528440(16) 0.351350(16) 0.17713(4)
Ag11_4 Ag 0.512960(17) 0.320270(17) 0.27355(4)
Ag12_4 Ag 0.493270(16) 0.370910(16) 0.26915(4)
Ag13_4 Ag 0.399860(18) 0.325010(18) 0.53173(4)
Ag14_4 Ag 0.385090(18) 0.290490(18) 0.44154(4)
Ag15_4 Ag 0.348370(18) 0.306170(17) 0.53196(4)
Ag16_4 Ag 0.656280(16) 0.040920(17) 0.30796(4)
Ag17_4 Ag 0.619550(16) 0.060180(16) 0.23019(4)
Ag18_4 Ag 0.668190(15) 0.084830(16) 0.22853(4)
H1_4 H 0.5442 0.4590 0.0798
H2_4 H 0.5454 0.4345 0.0939
H3_4 H 0.5408 0.4518 0.1356
H4_4 H 0.4587 0.4175 0.1211
H5_4 H 0.4527 0.4241 0.0658
H6_4 H 0.4488 0.4403 0.1102
H43_4 H 0.5281 0.2605 0.0270
H44_4 H 0.5173 0.2717 0.0734
H45_4 H 0.5364 0.2830 0.0454
H46_4 H 0.5890 0.2344 0.1973
H47_4 H 0.5911 0.2596 0.1992
H48_4 H 0.5719 0.2481 0.2267
H49_4 H 0.6030 0.1846 0.2047
H50_4 H 0.6017 0.1622 0.2321
H51_4 H 0.6234 0.1696 0.2072
H52_4 H 0.5815 0.1254 0.0271
H53_4 H 0.6046 0.1170 0.0403
H54_4 H 0.5846 0.1081 0.0694
H55_4 H 0.5578 0.3316 0.0999
H56_4 H 0.5747 0.3127 0.0993
H57_4 H 0.5528 0.3103 0.0701
H58_4 H 0.5221 0.2744 0.2691
H59_4 H 0.5209 0.2589 0.2227
H60_4 H 0.5426 0.2614 0.2523
H61_4 H 0.4726 0.2879 0.3871
H62_4 H 0.4835 0.2870 0.3339
H63_4 H 0.4972 0.2933 0.3812
H64_4 H 0.4580 0.3830 0.3423
H65_4 H 0.4372 0.3687 0.3482
H66_4 H 0.4509 0.3750 0.3957
H67_4 H 0.4755 0.4124 0.2521
H68_4 H 0.4851 0.4343 0.2329
H69_4 H 0.4659 0.4235 0.2042
H70_4 H 0.5300 0.4040 0.0666
H71_4 H 0.5454 0.3902 0.1004
H72_4 H 0.5258 0.3792 0.0732
H73_4 H 0.4410 0.3495 0.5193
H74_4 H 0.4472 0.3619 0.4700
H75_4 H 0.4632 0.3450 0.4930
H76_4 H 0.4137 0.2843 0.3561
H77_4 H 0.4384 0.2860 0.3446
H78_4 H 0.4225 0.3032 0.3229
H79_4 H 0.3707 0.2637 0.3615
H80_4 H 0.3521 0.2707 0.3252
H81_4 H 0.3515 0.2480 0.3512
H82_4 H 0.2868 0.2860 0.4616
H83_4 H 0.2996 0.3048 0.4874
H84_4 H 0.2992 0.2818 0.5119
H85_4 H 0.3172 0.3304 0.5953
H86_4 H 0.3151 0.3556 0.5929
H87_4 H 0.3177 0.3440 0.6450
H88_4 H 0.4118 0.3575 0.6016
H89_4 H 0.4025 0.3692 0.6492
H90_4 H 0.3995 0.3794 0.5957
H91_4 H 0.6418 0.0128 0.3933
H93_4 H 0.6222 0.0182 0.4285
H94_4 H 0.5762 0.0453 0.2374
H95_4 H 0.5622 0.0472 0.2863
H96_4 H 0.5640 0.0250 0.2581
H97_4 H 0.5860 0.0770 0.1738
H98_4 H 0.5817 0.0934 0.1301
H99_4 H 0.5773 0.1002 0.1860
H100_4 H 0.6690 0.1299 0.1843
H101_4 H 0.6515 0.1478 0.1934
H102_4 H 0.6577 0.1411 0.1384
H103_4 H 0.7115 0.1035 0.2378
H104_4 H 0.7344 0.0951 0.2532
H105_4 H 0.7218 0.1108 0.2889
H106_4 H 0.6880 0.0278 0.3760
H107_4 H 0.7006 0.0427 0.4135
H108_4 H 0.7132 0.0269 0.3782
H151_4 H 0.3798 0.3891 0.7576
H152_4 H 0.3908 0.3770 0.7126
H153_4 H 0.3715 0.3663 0.7412
H154_4 H 0.3193 0.4143 0.5822
H155_4 H 0.3158 0.3893 0.5834
H156_4 H 0.3353 0.3990 0.5535
H157_4 H 0.7577 0.0626 0.2822
H158_4 H 0.7779 0.0540 0.3114
H159_4 H 0.7768 0.0782 0.2948
H160_4 H 0.7212 0.0876 0.4817
H161_4 H 0.7082 0.0702 0.4514
H162_4 H 0.7079 0.0944 0.4341
H169_4 H 0.5458 0.0605 0.4062
H170_4 H 0.5561 0.0577 0.3527
H171_4 H 0.5708 0.0623 0.3994
H175_4 H 0.3100 0.2986 0.2621
H176_4 H 0.3301 0.2880 0.2880
H177_4 H 0.3186 0.3078 0.3133
H178_4 H 0.2642 0.2381 0.4088
H179_4 H 0.2768 0.2530 0.4463
H180_4 H 0.2883 0.2331 0.4218
Ag36_4 Ag 0.365130(16) 0.432410(18) 0.75309(4)
Ag39_4 Ag 0.52661(2) 0.03730(2) 0.48110(5)
N3_4 N 0.44567(18) 0.47863(17) 0.9424(4)
N4_4 N 0.45401(18) 0.49019(17) 0.9038(4)
N5_4 N 0.52034(18) 0.49554(18) 0.8952(4)
N6_4 N 0.53174(17) 0.48911(19) 0.9372(5)
N7_4 N 0.41473(18) 0.1307(2) 0.7493(5)
N8_4 N 0.4176(2) 0.1444(2) 0.7881(5)
N9_4 N 0.4773(2) 0.17072(19) 0.8129(5)
N10_4 N 0.4948(2) 0.1665(2) 0.7823(5)
N11_4 N 0.48483(17) 0.12738(18) 0.6580(4)
N12_4 N 0.4639(2) 0.1198(2) 0.6479(5)
N13_4 N 0.54234(16) 0.17446(17) 0.9693(5)
N14_4 N 0.53540(19) 0.1958(2) 0.9701(5)
N37_4 N 0.66619(18) 0.54219(17) 0.8473(4)
N38_4 N 0.68331(15) 0.53494(16) 0.8181(4)
N41_4 N 0.60371(17) 0.49609(17) 0.7954(4)
N42_4 N 0.60877(17) 0.51131(18) 0.8304(4)
N43_4 N 0.26534(17) 0.07584(19) 0.8969(5)
N44_4 N 0.27337(19) 0.0888(2) 0.8588(5)
N45_4 N 0.33723(19) 0.1060(2) 0.8579(5)
N46_4 N 0.3514(2) 0.0976(2) 0.8940(5)
N49_4 N 0.37383(18) 0.47604(17) 0.7953(4)
N50_4 N 0.37973(17) 0.45428(18) 0.8006(4)
N55_4 N 0.4999(2) 0.0414(2) 0.5718(5)
N56_4 N 0.5101(2) 0.0538(2) 0.5358(4)
C6_4 C 0.4122(2) 0.4572(2) 0.9593(5)
C7_4 C 0.4263(2) 0.4708(2) 0.9274(5)
C8_4 C 0.42170(19) 0.47880(18) 0.8783(5)
C9_4 C 0.4396(2) 0.4907(2) 0.8657(5)
C10_4 C 0.4445(2) 0.5021(3) 0.8171(6)
C11_4 C 0.5258(2) 0.5083(3) 0.8095(6)
C12_4 C 0.5347(2) 0.5003(2) 0.8579(5)
C13_4 C 0.5549(2) 0.4962(2) 0.8743(5)
C14_4 C 0.5532(2) 0.4893(2) 0.9243(5)
C15_4 C 0.5700(2) 0.4816(3) 0.9593(6)
C16_4 C 0.3900(2) 0.1006(2) 0.7264(6)
C17_4 C 0.3980(2) 0.1180(2) 0.7600(5)
C18_4 C 0.3892(3) 0.1236(2) 0.8078(6)
C19_4 C 0.4023(2) 0.1402(3) 0.8229(6)
C20_4 C 0.4017(3) 0.1535(3) 0.8709(6)
C21_4 C 0.4686(2) 0.1831(3) 0.8971(6)
C22_4 C 0.4846(2) 0.1765(2) 0.8589(6)
C23_4 C 0.5069(2) 0.1759(3) 0.8598(6)
C24_4 C 0.5123(2) 0.1696(2) 0.8108(6)
C25_4 C 0.5351(3) 0.1662(3) 0.7897(7)
C26_4 C 0.5224(3) 0.1173(3) 0.6423(7)
C27_4 C 0.4982(2) 0.1130(3) 0.6372(5)
C28_4 C 0.4876(2) 0.0967(2) 0.6147(5)
C29_4 C 0.4660(2) 0.1022(3) 0.6232(6)
C30_4 C 0.4451(2) 0.0904(3) 0.6059(7)
C31_4 C 0.5372(3) 0.1421(3) 0.9183(7)
C32_4 C 0.5333(2) 0.1654(2) 0.9286(6)
C33_4 C 0.5204(2) 0.1802(2) 0.9037(6)
C34_4 C 0.5219(2) 0.1988(2) 0.9309(5)
C35_4 C 0.5116(3) 0.2206(3) 0.9231(6)
C91_4 C 0.6582(2) 0.5666(2) 0.9188(5)
C92_4 C 0.6738(2) 0.55631(19) 0.8817(5)
C93_4 C 0.6960(2) 0.5584(2) 0.8770(5)
C94_4 C 0.7011(2) 0.5454(2) 0.8359(5)
C95_4 C 0.7227(2) 0.5407(2) 0.8109(6)
C96_4 C 0.7318(2) 0.5379(3) 0.9448(6)
C97_4 C 0.72703(18) 0.56026(19) 0.9391(5)
C98_4 C 0.7114(2) 0.57000(19) 0.9098(5)
C99_4 C 0.7128(2) 0.5918(2) 0.9190(5)
C100_4 C 0.6998(2) 0.6105(3) 0.8991(7)
C101_4 C 0.5737(2) 0.4719(3) 0.7724(7)
C102_4 C 0.5837(2) 0.4890(2) 0.8048(6)
C103_4 C 0.57568(18) 0.4993(2) 0.8487(5)
C104_4 C 0.59217(19) 0.51324(19) 0.8616(5)
C105_4 C 0.5922(2) 0.5293(3) 0.9049(6)
C106_4 C 0.2316(3) 0.0557(3) 0.9149(7)
C107_4 C 0.2454(2) 0.0699(2) 0.8829(5)
C108_4 C 0.2409(2) 0.0778(2) 0.8353(5)
C109_4 C 0.2591(2) 0.0901(3) 0.8212(5)
C110_4 C 0.2638(3) 0.1020(3) 0.7754(7)
C111_4 C 0.3390(2) 0.1261(2) 0.7779(5)
C112_4 C 0.3492(2) 0.1155(2) 0.8224(5)
C113_4 C 0.37065(18) 0.1144(2) 0.8347(5)
C114_4 C 0.3713(2) 0.1025(3) 0.8789(5)
C115_4 C 0.3897(3) 0.0947(4) 0.9096(6)
C116_4 C 0.2069(3) 0.1116(3) 0.7859(7)
C117_4 C 0.2090(3) 0.0885(3) 0.7800(6)
C118_4 C 0.2225(3) 0.0738(3) 0.8029(7)
C119_4 C 0.2161(3) 0.0540(2) 0.7836(6)
C120_4 C 0.2248(3) 0.0321(3) 0.7927(6)
C121_4 C 0.3860(2) 0.5114(3) 0.8297(6)
C122_4 C 0.38830(19) 0.4870(2) 0.8249(4)
C123_4 C 0.4031(2) 0.4728(2) 0.8472(5)
C124_4 C 0.3975(2) 0.4528(2) 0.8289(5)
C125_4 C 0.4069(2) 0.4316(2) 0.8392(5)
C136_4 C 0.4790(3) 0.0474(3) 0.6496(7)
C137_4 C 0.4906(4) 0.0568(3) 0.6039(6)
C138_4 C 0.4945(3) 0.0775(2) 0.5897(6)
C139_4 C 0.5077(2) 0.0748(2) 0.5473(5)
C140_4 C 0.5174(3) 0.0923(2) 0.5160(6)
Ag3_4 Ag 0.486921(16) 0.495441(17) 0.90188(4)
Ag4_4 Ag 0.438720(18) 0.12805(2) 0.69583(5)
Ag5_4 Ag 0.446970(18) 0.15975(2) 0.79410(5)
Ag6_4 Ag 0.489820(19) 0.14950(2) 0.71591(5)
Ag19_4 Ag 0.637590(15) 0.526770(16) 0.83636(4)
Ag23_4 Ag 0.305210(18) 0.09848(2) 0.86281(5)
H7_4 H 0.4193 0.4544 0.9907
H8_4 H 0.4094 0.4439 0.9424
H9_4 H 0.3989 0.4647 0.9654
H10_4 H 0.4582 0.5092 0.8197
H11_4 H 0.4335 0.5126 0.8104
H12_4 H 0.4450 0.4918 0.7902
H13_4 H 0.5374 0.5109 0.7864
H14_4 H 0.5180 0.5214 0.8151
H15_4 H 0.5162 0.4977 0.7956
H16_4 H 0.5635 0.4783 0.9912
H17_4 H 0.5807 0.4926 0.9636
H18_4 H 0.5766 0.4689 0.9459
H19_4 H 0.3987 0.1000 0.6965
H20_4 H 0.3753 0.1034 0.7173
H21_4 H 0.3908 0.0870 0.7436
H22_4 H 0.4132 0.1639 0.8704
H23_4 H 0.4033 0.1442 0.8995
H24_4 H 0.3881 0.1610 0.8731
H25_4 H 0.4543 0.1815 0.8836
H26_4 H 0.4709 0.1979 0.9061
H27_4 H 0.4701 0.1742 0.9264
H28_4 H 0.5341 0.1621 0.7550
H29_4 H 0.5422 0.1550 0.8084
H30_4 H 0.5431 0.1793 0.7926
H31_4 H 0.5303 0.1061 0.6257
H32_4 H 0.5263 0.1177 0.6772
H33_4 H 0.5258 0.1309 0.6270
H34_4 H 0.4327 0.0983 0.6175
H35_4 H 0.4449 0.0761 0.6196
H36_4 H 0.4449 0.0897 0.5698
H37_4 H 0.5469 0.1364 0.9431
H38_4 H 0.5238 0.1344 0.9197
H39_4 H 0.5435 0.1405 0.8855
H40_4 H 0.5160 0.2302 0.9495
H41_4 H 0.5160 0.2263 0.8913
H42_4 H 0.4962 0.2191 0.9236
H109_4 H 0.6438 0.5618 0.9119
H110_4 H 0.6622 0.5626 0.9524
H111_4 H 0.6589 0.5820 0.9156
H112_4 H 0.7206 0.5308 0.7835
H113_4 H 0.7288 0.5538 0.7984
H114_4 H 0.7323 0.5344 0.8351
H115_4 H 0.7438 0.5362 0.9674
H116_4 H 0.7195 0.5306 0.9582
H117_4 H 0.7355 0.5319 0.9126
H118_4 H 0.7049 0.6236 0.9137
H119_4 H 0.7012 0.6111 0.8632
H120_4 H 0.6849 0.6085 0.9078
H121_4 H 0.5834 0.4685 0.7453
H122_4 H 0.5712 0.4592 0.7922
H123_4 H 0.5603 0.4771 0.7590
H124_4 H 0.6056 0.5371 0.9050
H125_4 H 0.5805 0.5393 0.9007
H126_4 H 0.5906 0.5218 0.9361
H127_4 H 0.2388 0.0530 0.9464
H128_4 H 0.2181 0.0627 0.9211
H129_4 H 0.2292 0.0423 0.8979
H130_4 H 0.2778 0.1085 0.7779
H131_4 H 0.2634 0.0923 0.7472
H132_4 H 0.2531 0.1131 0.7708
H133_4 H 0.3236 0.1246 0.7799
H134_4 H 0.3427 0.1411 0.7775
H135_4 H 0.3441 0.1194 0.7476
H136_4 H 0.3844 0.0871 0.9385
H137_4 H 0.3985 0.0852 0.8897
H138_4 H 0.3983 0.1068 0.9204
H139_4 H 0.1957 0.1168 0.7643
H140_4 H 0.2035 0.1149 0.8202
H141_4 H 0.2203 0.1184 0.7770
H142_4 H 0.2164 0.0217 0.7744
H143_4 H 0.2395 0.0315 0.7815
H144_4 H 0.2242 0.0289 0.8280
H145_4 H 0.3742 0.5163 0.8093
H146_4 H 0.3991 0.5182 0.8185
H147_4 H 0.3834 0.5151 0.8642
H148_4 H 0.3991 0.4207 0.8211
H149_4 H 0.4061 0.4286 0.8746
H150_4 H 0.4217 0.4315 0.8287
H163_4 H 0.4789 0.0320 0.6473
H164_4 H 0.4644 0.0526 0.6503
H165_4 H 0.4863 0.0517 0.6797
H166_4 H 0.5256 0.0860 0.4892
H167_4 H 0.5266 0.1010 0.5365
H168_4 H 0.5061 0.1010 0.5020
C144_4 C 0.5692(3) 0.9980(2) 0.4024(6)
C145_4 C 0.5786(3) 0.9757(3) 0.3978(7)
H92_4 H 0.6232 0.9959 0.4008
H172_4 H 0.5708 0.9660 0.4193
H173_4 H 0.5934 0.9760 0.4076
H174_4 H 0.5774 0.9709 0.3635
N21_5 N 0.08022(16) 0.25926(16) 0.0771(4)
N22_5 N 0.10012(18) 0.26758(19) 0.0747(4)
N25_5 N 0.06993(19) 0.33004(17) 0.2228(4)
N26_5 N 0.05499(19) 0.33503(19) 0.1858(4)
N27_5 N 0.02912(17) 0.39629(19) 0.1889(4)
N28_5 N 0.03685(18) 0.41122(19) 0.2220(4)
N29_5 N 0.08055(17) 0.39286(19) 0.3335(4)
N30_5 N 0.0858(2) 0.37212(17) 0.3345(4)
N51_5 N 0.16020(18) 0.39524(17) 0.4510(4)
N52_5 N 0.16579(17) 0.40920(15) 0.4133(4)
N59_5 N 0.0243(2) 0.4667(2) 0.0488(4)
N60_3 N 0.0108(2) 0.4777(2) 0.0833(5)
C51_5 C 0.0444(3) 0.2667(2) 0.1156(6)
C52_5 C 0.0679(2) 0.2723(2) 0.1073(6)
C53_5 C 0.0806(2) 0.2889(2) 0.1241(5)
C54_5 C 0.1010(2) 0.2849(2) 0.1040(6)
C55_5 C 0.1213(3) 0.2985(3) 0.1107(7)
C61_5 C 0.0984(3) 0.3017(2) 0.2375(5)
C62_5 C 0.0807(2) 0.3122(2) 0.2061(6)
C63_5 C 0.0730(2) 0.3070(2) 0.1558(6)
C64_5 C 0.0574(2) 0.3215(2) 0.1467(5)
C65_5 C 0.0441(3) 0.3245(3) 0.1011(5)
C66_5 C 0.0128(3) 0.3945(3) 0.1053(6)
C67_5 C 0.0222(3) 0.4064(2) 0.1486(5)
C68_5 C 0.0244(2) 0.4287(3) 0.1557(5)
C69_5 C 0.0334(2) 0.4306(2) 0.2011(6)
C70_5 C 0.0396(3) 0.4506(3) 0.2307(7)
C71_5 C 0.0937(2) 0.4282(3) 0.3602(7)
C72_5 C 0.09552(19) 0.40478(19) 0.3562(4)
C73_5 C 0.1117(2) 0.3916(2) 0.3724(5)
C74_5 C 0.1044(2) 0.3703(2) 0.3583(5)
C75_5 C 0.1161(3) 0.3499(2) 0.3642(7)
C126_5 C 0.1297(3) 0.3726(3) 0.4795(7)
C127_5 C 0.1400(2) 0.38810(19) 0.4439(5)
C128_5 C 0.1324(2) 0.3958(2) 0.3977(5)
C129_5 C 0.1490(3) 0.40960(19) 0.3798(5)
C130_5 C 0.1506(3) 0.4236(3) 0.3329(6)
C146_5 C 0.0449(3) 0.4336(3) 0.0438(6)
C147_5 C 0.0300(3) 0.4480(3) 0.0715(6)
C148_5 C 0.0199(2) 0.4458(2) 0.1191(5)
C149_5 C 0.0085(2) 0.4647(2) 0.1224(6)
Ag11_5 Ag 0.070270(17) 0.237040(17) 0.02355(4)
Ag12_5 Ag 0.120910(16) 0.256730(16) 0.01915(4)
Ag13_5 Ag 0.075010(18) 0.350140(18) 0.28173(4)
Ag14_5 Ag 0.040490(18) 0.364910(18) 0.19154(4)
Ag15_5 Ag 0.056170(17) 0.401630(18) 0.28196(4)
Ag27_3 Ag 0.197510(18) 0.417670(16) 0.40582(4)
H58_5 H 0.0244 0.2279 0.0191
H60_5 H 0.0114 0.2074 0.0023
H61_5 H 0.0379 0.2774 0.1371
H62_5 H 0.0370 0.2665 0.0839
H63_5 H 0.0433 0.2528 0.1312
H64_5 H 0.1330 0.2920 0.0923
H65_5 H 0.1187 0.3128 0.0982
H66_5 H 0.1250 0.2991 0.1457
H67_5 H 0.1624 0.2745 0.0021
H73_5 H 0.0995 0.3090 0.2693
H74_5 H 0.1119 0.3028 0.2200
H75_5 H 0.0950 0.2868 0.2430
H76_5 H 0.0343 0.3363 0.1061
H77_5 H 0.0360 0.3116 0.0946
H78_5 H 0.0532 0.3275 0.0729
H79_5 H 0.0137 0.3793 0.1115
H80_5 H 0.0207 0.3979 0.0752
H82_5 H 0.0360 0.4632 0.2116
H83_5 H 0.0548 0.4504 0.2374
H84_5 H 0.0318 0.4508 0.2619
H85_5 H 0.0804 0.4328 0.3453
H86_5 H 0.1056 0.4349 0.3429
H87_5 H 0.0940 0.4323 0.3950
H88_5 H 0.1075 0.3382 0.3516
H89_5 H 0.1192 0.3475 0.3992
H90_5 H 0.1294 0.3505 0.3457
H151_5 H 0.1391 0.3702 0.5076
H152_5 H 0.1270 0.3592 0.4626
H153_5 H 0.1163 0.3785 0.4912
H154_5 H 0.1643 0.4307 0.3322
H155_5 H 0.1393 0.4342 0.3334
H156_5 H 0.1490 0.4147 0.3035
H175_5 H 0.0486 0.4400 0.0121
H176_5 H 0.0380 0.4199 0.0380
H177_5 H 0.0578 0.4314 0.0633
H179_5 H 0.0030 0.4732 0.1963
N66_3 N 0.22993(18) 0.4228(2) 0.3952(5)
Ag36_5 Ag 0.182410(18) 0.384870(16) 0.50309(4)
Ag38_3 Ag 0.00379(2) 0.50936(2) 0.07441(5)
N1_5 N 0.21023(17) 0.24474(17) 0.8090(4)
N2_5 N 0.20516(18) 0.26658(16) 0.8084(4)
N3_5 N 0.22863(17) 0.30433(18) 0.6924(4)
N4_5 N 0.24019(17) 0.29599(18) 0.6538(4)
N5_5 N 0.24554(18) 0.22966(18) 0.6452(4)
N6_5 N 0.23911(19) 0.21826(17) 0.6872(5)
N19_5 N 0.06999(17) 0.21050(17) 0.9292(4)
N20_5 N 0.05764(17) 0.21890(16) 0.9668(4)
N23_5 N 0.13930(16) 0.24846(16) 0.9574(4)
N24_5 N 0.1321(2) 0.23480(17) 0.9225(4)
N37_5 N 0.29219(17) 0.08381(18) 0.5973(4)
N38_5 N 0.28494(16) 0.06669(15) 0.5681(4)
N39_3 N 0.32607(17) 0.01238(16) 0.7135(4)
N40_3 N 0.34589(17) 0.02172(16) 0.7017(4)
N41_5 N 0.24609(17) 0.14629(17) 0.5454(4)
N42_5 N 0.26131(18) 0.14123(17) 0.5804(4)
N49_5 N 0.22604(17) 0.37617(18) 0.5453(4)
N50_5 N 0.20428(18) 0.37027(17) 0.5506(4)
C1_5 C 0.1980(2) 0.2116(2) 0.8511(5)
C2_5 C 0.1958(2) 0.2353(2) 0.8416(5)
C3_5 C 0.1828(2) 0.25097(19) 0.8616(4)
C4_5 C 0.18821(19) 0.2697(2) 0.8404(5)
C5_5 C 0.1792(3) 0.2919(2) 0.8475(6)
C6_5 C 0.2072(2) 0.3378(2) 0.7093(5)
C7_5 C 0.2208(2) 0.3237(2) 0.6774(5)
C8_5 C 0.22880(18) 0.32830(19) 0.6283(5)
C9_5 C 0.2407(2) 0.3104(2) 0.6157(5)
C10_5 C 0.2521(3) 0.3055(2) 0.5671(6)
C11_5 C 0.2583(3) 0.2242(2) 0.5595(6)
C12_5 C 0.2503(2) 0.2153(2) 0.6079(5)
C13_5 C 0.2462(2) 0.1951(2) 0.6243(5)
C14_5 C 0.2393(2) 0.1968(2) 0.6743(5)
C15_5 C 0.2316(3) 0.1800(2) 0.7093(6)
C36_5 C 0.0194(3) 0.2194(3) 0.8059(7)
C37_5 C 0.0084(2) 0.2038(2) 0.8401(5)
C38_5 C 0.0160(2) 0.1958(2) 0.8852(5)
C46_5 C 0.0662(2) 0.1904(2) 0.8496(5)
C47_5 C 0.0569(2) 0.2005(2) 0.8951(5)
C48_5 C 0.0357(2) 0.2018(2) 0.9110(6)
C49_5 C 0.0372(2) 0.2136(2) 0.9563(5)
C50_5 C 0.0188(3) 0.2201(3) 0.9908(7)
C56_5 C 0.1708(2) 0.2712(2) 0.9728(5)
C57_5 C 0.15900(19) 0.2560(2) 0.9412(5)
C58_5 C 0.16390(19) 0.2462(2) 0.8937(5)
C59_5 C 0.14660(19) 0.23314(18) 0.8842(4)
C60_5 C 0.1421(3) 0.2192(2) 0.8396(6)
C91_5 C 0.3166(2) 0.0918(2) 0.6688(5)
C92_5 C 0.30631(19) 0.0762(2) 0.6317(5)
C93_5 C 0.3084(2) 0.0540(2) 0.6270(5)
C94_5 C 0.2954(2) 0.0489(2) 0.5859(5)
C95_5 C 0.2907(2) 0.0273(2) 0.5609(6)
C96_5 C 0.2879(3) 0.0182(2) 0.6948(6)
C97_5 C 0.31026(19) 0.02297(18) 0.6891(5)
C98_5 C 0.32000(19) 0.0386(2) 0.6598(5)
C99_5 C 0.3418(2) 0.0372(2) 0.6690(5)
C100_5 C 0.3605(3) 0.0502(2) 0.6491(7)
C101_5 C 0.2219(3) 0.1763(2) 0.5224(7)
C102_5 C 0.2390(2) 0.1663(2) 0.5548(6)
C103_5 C 0.2493(2) 0.17432(18) 0.5987(5)
C104_5 C 0.26324(19) 0.15783(19) 0.6116(5)
C105_5 C 0.2793(3) 0.1578(2) 0.6549(6)
C121_5 C 0.2614(3) 0.3640(2) 0.5797(6)
C122_5 C 0.2370(2) 0.36170(19) 0.5749(4)
C123_5 C 0.2228(2) 0.3469(2) 0.5972(5)
C124_5 C 0.2028(2) 0.3525(2) 0.5789(5)
C125_5 C 0.1816(2) 0.3431(2) 0.5892(5)
Ag1_5 Ag 0.227201(16) 0.232519(16) 0.75013(4)
Ag2_5 Ag 0.218906(16) 0.285695(15) 0.75266(4)
Ag3_5 Ag 0.245441(17) 0.263079(16) 0.65188(4)
Ag10_5 Ag 0.101350(16) 0.221560(16) 0.92713(4)
Ag19_5 Ag 0.276770(16) 0.112410(15) 0.58636(4)
Ag20_3 Ag 0.261560(16) 0.071950(16) 0.51632(4)
Ag21_3 Ag 0.237850(16) 0.122090(16) 0.49487(4)
Ag25_3 Ag 0.234710(18) 0.398750(17) 0.49362(4)
Ag30_3 Ag 0.03695(2) 0.48284(2) 0.98801(5)
H1_5 H 0.2090 0.2058 0.8298
H2_5 H 0.1845 0.2046 0.8439
H3_5 H 0.2018 0.2092 0.8856
H4_5 H 0.1675 0.2913 0.8711
H5_5 H 0.1741 0.2973 0.8158
H6_5 H 0.1903 0.3012 0.8602
H7_5 H 0.2044 0.3307 0.7407
H8_5 H 0.1939 0.3406 0.6924
H9_5 H 0.2147 0.3511 0.7154
H10_5 H 0.2592 0.2918 0.5697
H11_5 H 0.2626 0.3165 0.5604
H12_5 H 0.2418 0.3050 0.5402
H13_5 H 0.2609 0.2126 0.5364
H14_5 H 0.2714 0.2320 0.5651
H15_5 H 0.2477 0.2338 0.5456
H16_5 H 0.2283 0.1865 0.7412
H17_5 H 0.2426 0.1693 0.7136
H18_5 H 0.2189 0.1734 0.6959
H43_5 H 0.0105 0.2219 0.7770
H44_5 H 0.0217 0.2327 0.8234
H45_5 H 0.0330 0.2136 0.7954
H47_5 H 0.0096 0.1589 0.9492
H55_5 H 0.0816 0.1922 0.8499
H56_5 H 0.0627 0.1753 0.8493
H57_5 H 0.0603 0.1972 0.8201
H59_5 H 0.0089 0.2291 0.9727
H68_5 H 0.1843 0.2649 0.9829
H69_5 H 0.1735 0.2841 0.9542
H70_5 H 0.1540 0.2200 0.8166
H71_5 H 0.1402 0.2046 0.8504
H72_5 H 0.1292 0.2242 0.8232
H109_5 H 0.3118 0.1062 0.6619
H110_5 H 0.3126 0.0878 0.7024
H111_5 H 0.3320 0.0911 0.6656
H112_5 H 0.2808 0.0294 0.5335
H113_5 H 0.3038 0.0212 0.5484
H114_5 H 0.2844 0.0177 0.5851
H115_5 H 0.2862 0.0062 0.7174
H116_5 H 0.2806 0.0305 0.7082
H117_5 H 0.2819 0.0145 0.6626
H118_5 H 0.3736 0.0451 0.6637
H119_5 H 0.3611 0.0488 0.6132
H120_5 H 0.3585 0.0651 0.6578
H121_5 H 0.2185 0.1666 0.4953
H122_5 H 0.2092 0.1788 0.5422
H123_5 H 0.2271 0.1897 0.5090
H124_5 H 0.2871 0.1444 0.6550
H125_5 H 0.2893 0.1695 0.6507
H126_5 H 0.2718 0.1594 0.6861
H145_5 H 0.2663 0.3758 0.5593
H146_5 H 0.2682 0.3509 0.5685
H147_5 H 0.2651 0.3666 0.6142
H148_5 H 0.1707 0.3509 0.5711
H149_5 H 0.1786 0.3439 0.6246
H150_5 H 0.1815 0.3283 0.5787
N61_3 N 0.23762(16) 0.07607(17) 0.4635(4)
N62_3 N 0.22828(16) 0.09589(17) 0.4517(4)
N67_3 N 0.24433(17) 0.4174(2) 0.4336(5)
N69_3 N 0.0518(2) 0.5008(2) 0.9342(5)
Ag32_3 Ag 0.372090(16) 0.012150(16) 0.74487(4)
Ag31_3 Ag 0.321950(16) 0.988440(16) 0.76632(4)
N31_5 N 0.77965(18) 0.12447(18) 0.0657(4)
N32_5 N 0.78698(18) 0.13972(17) 0.0299(5)
N35_5 N 0.82197(18) 0.05889(16) 0.0257(4)
N36_5 N 0.80520(17) 0.06333(16) 0.0567(5)
N57_5 N 0.77220(18) 0.2035(2) 0.1788(5)
N58_3 N 0.7508(2) 0.1982(2) 0.1842(5)
C76_5 C 0.7610(3) 0.1235(2) 0.1482(6)
C77_5 C 0.7705(2) 0.1354(2) 0.1039(5)
C78_5 C 0.7719(2) 0.1569(2) 0.0936(6)
C79_5 C 0.7822(2) 0.1592(2) 0.0483(6)
C80_5 C 0.7880(3) 0.1784(3) 0.0173(7)
C86_5 C 0.8491(3) 0.0296(2) 0.0155(7)
C87_5 C 0.8303(2) 0.0397(2) 0.0410(5)
C88_5 C 0.8187(2) 0.0318(2) 0.0837(6)
C89_5 C 0.8032(2) 0.0480(2) 0.0915(5)
C90_5 C 0.7861(3) 0.0492(3) 0.1308(6)
C133_5 C 0.8225(2) 0.0135(2) 0.1159(5)
C134_5 C 0.8293(2) 0.0144(2) 0.1666(6)
C135_5 C 0.8332(3) 0.0335(2) 0.1988(6)
C141_5 C 0.8051(3) 0.1920(3) 0.1380(6)
C142_5 C 0.7820(3) 0.1899(3) 0.1468(6)
C143_5 C 0.7674(2) 0.1749(2) 0.1289(5)
C144_5 C 0.7480(2) 0.1808(3) 0.1524(6)
C145_5 C 0.7257(3) 0.1714(3) 0.1478(7)
C150_5 C 0.99435(19) 0.4720(2) 0.1664(5)
Ag16_5 Ag 0.790920(17) 0.093720(16) 0.05796(4)
H81_5 H 0.9980 0.3985 0.1012
H91_5 H 0.7628 0.1082 0.1433
H92_5 H 0.7459 0.1268 0.1508
H93_5 H 0.7682 0.1278 0.1785
H95_5 H 0.7972 0.1878 0.0363
H96_5 H 0.7750 0.1860 0.0081
H104_5 H 0.8451 0.0156 0.0032
H105_5 H 0.8608 0.0282 0.0389
H106_5 H 0.7778 0.0620 0.1260
H107_5 H 0.7927 0.0494 0.1635
H108_5 H 0.7769 0.0368 0.1282
H160_5 H 0.8376 0.0288 0.2317
H161_5 H 0.8202 0.0418 0.2014
H162_5 H 0.8444 0.0421 0.1841
H169_5 H 0.8105 0.2042 0.1562
H170_5 H 0.8077 0.1939 0.1027
H171_5 H 0.8123 0.1792 0.1494
H172_5 H 0.7160 0.1792 0.1693
H173_5 H 0.7260 0.1566 0.1576
H174_5 H 0.7209 0.1726 0.1135
H178_5 H 0.9881 0.4858 0.1588
H180_5 H 0.9831 0.4617 0.1718
Ag39_5 Ag 0.78730(2) 0.22339(2) 0.23110(5)
Ag40_3 Ag 0.73284(2) 0.21305(2) 0.23801(5)
N7_5 N 0.8807(2) 0.33527(18) 0.4993(5)
N8_5 N 0.8944(2) 0.3324(2) 0.5381(5)
N9_5 N 0.92072(19) 0.2727(2) 0.5629(5)
N10_5 N 0.9165(2) 0.2552(2) 0.5323(5)
N11_5 N 0.87738(18) 0.26517(17) 0.4080(4)
N12_5 N 0.8698(2) 0.2861(2) 0.3979(5)
N13_5 N 0.92446(17) 0.20766(16) 0.7193(5)
N14_5 N 0.9458(2) 0.21460(19) 0.7201(5)
N15_5 N 0.98836(18) 0.19691(17) 0.8309(4)
N16_5 N 0.98288(17) 0.18335(18) 0.8693(4)
N17_5 N 0.91968(17) 0.16176(18) 0.8746(4)
N18_5 N 0.90702(16) 0.16750(18) 0.8352(4)
N33_5 N 0.83739(18) 0.12576(17) 0.9376(4)
N34_5 N 0.84856(17) 0.10682(15) 0.9393(4)
N43_5 N 0.82584(19) 0.48466(17) 0.6469(5)
N44_5 N 0.8388(2) 0.47663(19) 0.6088(5)
N45_5 N 0.8560(2) 0.41277(19) 0.6079(5)
N46_5 N 0.8476(2) 0.3986(2) 0.6440(5)
N47_3 N 0.8284(2) 0.55550(19) 0.4993(5)
N48_3 N 0.8063(2) 0.5505(2) 0.5021(5)
N55_5 N 0.7914(2) 0.2501(2) 0.3218(5)
N56_5 N 0.8038(2) 0.2399(2) 0.2858(4)
C16_5 C 0.8506(2) 0.3600(2) 0.4764(6)
C17_5 C 0.8680(2) 0.3520(2) 0.5100(5)
C18_5 C 0.8736(2) 0.3608(3) 0.5578(6)
C19_5 C 0.8902(3) 0.3477(2) 0.5729(6)
C20_5 C 0.9035(3) 0.3483(3) 0.6209(6)
C21_5 C 0.9331(3) 0.2814(2) 0.6471(6)
C22_5 C 0.9265(2) 0.2654(2) 0.6089(6)
C23_5 C 0.9259(3) 0.2431(2) 0.6098(6)
C24_5 C 0.9196(2) 0.2377(2) 0.5608(6)
C25_5 C 0.9162(3) 0.2149(3) 0.5397(7)
C26_5 C 0.8673(3) 0.2276(3) 0.3923(7)
C27_5 C 0.8630(3) 0.2518(2) 0.3872(5)
C28_5 C 0.8467(2) 0.2624(2) 0.3647(5)
C29_5 C 0.8522(3) 0.2840(2) 0.3732(6)
C30_5 C 0.8404(3) 0.3049(2) 0.3559(7)
C31_5 C 0.8921(3) 0.2128(3) 0.6683(7)
C32_5 C 0.9154(2) 0.2167(2) 0.6786(6)
C33_5 C 0.9302(2) 0.2296(2) 0.6537(6)
C34_5 C 0.9488(2) 0.2281(2) 0.6809(5)
C35_5 C 0.9706(3) 0.2384(3) 0.6731(6)
C39_5 C 0.9995(2) 0.1821(2) 0.9014(7)
C40_5 C 0.9978(3) 0.1688(3) 0.9478(7)
C41_5 C 0.9199(3) 0.1421(3) 0.9543(6)
C42_5 C 0.9093(2) 0.1487(2) 0.9058(5)
C43_5 C 0.8883(2) 0.1453(2) 0.8865(5)
C44_5 C 0.88803(19) 0.15690(18) 0.8417(5)
C45_5 C 0.8706(2) 0.1593(2) 0.8037(6)
C81_5 C 0.8419(2) 0.1635(2) 0.9143(6)
C82_5 C 0.8499(2) 0.1410(2) 0.9186(5)
C83_5 C 0.8707(2) 0.1333(2) 0.9091(5)
C84_5 C 0.86919(19) 0.1115(2) 0.9227(5)
C85_5 C 0.8860(2) 0.0943(2) 0.9222(5)
C106_5 C 0.8057(3) 0.5184(3) 0.6649(7)
C107_5 C 0.8199(2) 0.5046(2) 0.6329(5)
C108_5 C 0.8278(2) 0.5091(2) 0.5853(5)
C109_5 C 0.8401(3) 0.4909(2) 0.5712(5)
C110_5 C 0.8520(3) 0.4862(3) 0.5254(7)
C111_5 C 0.8761(2) 0.4110(2) 0.5279(5)
C112_5 C 0.8655(2) 0.4008(2) 0.5724(5)
C113_5 C 0.8644(2) 0.37935(18) 0.5847(5)
C114_5 C 0.8525(3) 0.3787(2) 0.6289(5)
C115_5 C 0.8447(4) 0.3603(3) 0.6596(6)
C116_5 C 0.8616(3) 0.5431(3) 0.5359(7)
C117_5 C 0.8385(3) 0.5410(3) 0.5300(6)
C118_5 C 0.8238(3) 0.5275(3) 0.5529(7)
C119_5 C 0.8040(2) 0.5339(3) 0.5336(6)
C120_5 C 0.7821(3) 0.5252(3) 0.5427(6)
C136_5 C 0.7974(3) 0.2710(3) 0.3996(7)
C137_5 C 0.8068(3) 0.2594(4) 0.3539(6)
C138_5 C 0.8275(2) 0.2555(3) 0.3397(6)
C139_5 C 0.8248(2) 0.2423(2) 0.2973(5)
C140_5 C 0.8423(2) 0.2326(3) 0.2660(6)
Ag4_5 Ag 0.87805(2) 0.311280(18) 0.44583(5)
Ag5_5 Ag 0.90975(2) 0.303030(18) 0.54410(5)
Ag6_5 Ag 0.89950(2) 0.260180(19) 0.46591(5)
Ag7_5 Ag 0.916120(18) 0.186790(18) 0.77616(5)
Ag8_5 Ag 0.967100(18) 0.204410(17) 0.77454(4)
Ag9_5 Ag 0.951730(18) 0.171930(17) 0.87238(5)
Ag17_5 Ag 0.810180(16) 0.130450(16) 0.98019(4)
Ag18_5 Ag 0.834830(16) 0.081810(15) 0.97853(4)
Ag22_3 Ag 0.814690(19) 0.464330(19) 0.70140(5)
Ag23_5 Ag 0.84848(2) 0.444790(18) 0.61281(5)
Ag24_3 Ag 0.82679(2) 0.41022(2) 0.69737(4)
Ag28_3 Ag 0.75936(2) 0.24621(2) 0.32441(5)
H19_5 H 0.8500 0.3513 0.4465
H20_5 H 0.8534 0.3747 0.4673
H21_5 H 0.8370 0.3592 0.4936
H22_5 H 0.9139 0.3368 0.6204
H23_5 H 0.8942 0.3467 0.6495
H24_5 H 0.9110 0.3619 0.6231
H25_5 H 0.9315 0.2957 0.6336
H26_5 H 0.9479 0.2791 0.6561
H27_5 H 0.9242 0.2799 0.6764
H28_5 H 0.9121 0.2159 0.5050
H29_5 H 0.9050 0.2078 0.5584
H30_5 H 0.9293 0.2069 0.5426
H31_5 H 0.8561 0.2197 0.3757
H32_5 H 0.8677 0.2237 0.4272
H33_5 H 0.8809 0.2242 0.3770
H34_5 H 0.8483 0.3173 0.3675
H35_5 H 0.8261 0.3051 0.3696
H36_5 H 0.8397 0.3051 0.3198
H37_5 H 0.8864 0.2031 0.6931
H38_5 H 0.8844 0.2262 0.6697
H39_5 H 0.8905 0.2065 0.6355
H40_5 H 0.9802 0.2340 0.6995
H41_5 H 0.9763 0.2340 0.6413
H42_5 H 0.9691 0.2538 0.6736
H46_5 H 0.9844 0.1610 0.9473
H48_5 H 0.9981 0.1781 0.9767
H49_5 H 0.9346 0.1470 0.9547
H50_5 H 0.9122 0.1483 0.9821
H51_5 H 0.9196 0.1266 0.9572
H52_5 H 0.8754 0.1685 0.7771
H53_5 H 0.8670 0.1454 0.7903
H54_5 H 0.8581 0.1654 0.8194
H94_5 H 0.7953 0.1738 0.9874
H97_5 H 0.8270 0.1640 0.9238
H98_5 H 0.8434 0.1683 0.8801
H99_5 H 0.8502 0.1727 0.9360
H100_5 H 0.8799 0.0810 0.9343
H101_5 H 0.8978 0.0985 0.9434
H102_5 H 0.8911 0.0923 0.8884
H103_5 H 0.8535 0.0385 0.9878
H127_5 H 0.8030 0.5112 0.6964
H128_5 H 0.8127 0.5319 0.6711
H129_5 H 0.7923 0.5208 0.6479
H130_5 H 0.8585 0.4722 0.5279
H131_5 H 0.8423 0.4866 0.4972
H132_5 H 0.8631 0.4969 0.5208
H133_5 H 0.8746 0.4264 0.5299
H134_5 H 0.8911 0.4073 0.5275
H135_5 H 0.8694 0.4059 0.4976
H136_5 H 0.8371 0.3656 0.6885
H137_5 H 0.8352 0.3515 0.6397
H138_5 H 0.8568 0.3517 0.6704
H139_5 H 0.8668 0.5543 0.5143
H140_5 H 0.8649 0.5465 0.5702
H141_5 H 0.8684 0.5297 0.5270
H142_5 H 0.7717 0.5336 0.5244
H143_5 H 0.7815 0.5105 0.5315
H144_5 H 0.7789 0.5258 0.5780
H163_5 H 0.7820 0.2711 0.3973
H164_5 H 0.8026 0.2856 0.4003
H165_5 H 0.8017 0.2637 0.4297
H166_5 H 0.8360 0.2244 0.2392
H167_5 H 0.8510 0.2234 0.2865
H168_5 H 0.8510 0.2439 0.2520
N63_3 N 0.80550(19) 0.4216(2) 0.7493(5)
N64_3 N 0.8005(2) 0.4437(2) 0.7521(5)
N70_3 N 0.7277(2) 0.2392(2) 0.3333(5)
Ag33_3 Ag 0.785670(19) 0.564690(19) 0.45140(5)
Ag34_3 Ag 0.83978(2) 0.57679(2) 0.44737(4)
N53_3 N 0.8272(2) 0.97993(18) 0.1452(5)
N54_3 N 0.8326(2) 0.99433(17) 0.1836(5)
C131_5 C 0.8161(2) 0.9815(2) 0.0566(6)
C132_5 C 0.82169(18) 0.99184(18) 0.1045(5)
H157_5 H 0.8126 0.9923 0.0322
H158_5 H 0.8040 0.9721 0.0614
H159_5 H 0.8282 0.9732 0.0448
Ag35_3 Ag 0.851250(17) 0.984710(18) 0.24362(4)
Ag37_3 Ag 0.832330(16) 0.947510(18) 0.15582(4)
N1_6 N 0.49474(17) 0.03977(17) 0.0590(4)
N2_6 N 0.51658(16) 0.04484(18) 0.0584(4)
N15_6 N 0.44691(17) 0.26164(18) 0.0809(4)
N16_6 N 0.43335(18) 0.26712(17) 0.1193(4)
N17_6 N 0.41176(18) 0.33032(17) 0.1246(4)
N18_6 N 0.41750(18) 0.34298(16) 0.0852(4)
N19_6 N 0.46050(17) 0.18001(17) 0.1792(4)
N20_6 N 0.46890(16) 0.19236(17) 0.2168(4)
N21_6 N 0.50926(16) 0.16978(16) 0.3271(4)
N22_6 N 0.51758(19) 0.14988(18) 0.3247(4)
N23_6 N 0.49846(16) 0.11070(16) 0.2074(4)
N24_6 N 0.48480(17) 0.1179(2) 0.1725(4)
N25_6 N 0.58004(17) 0.18007(19) 0.4728(4)
N26_6 N 0.58503(19) 0.19501(19) 0.4358(4)
N27_6 N 0.64629(19) 0.22088(17) 0.4389(4)
N28_6 N 0.66122(19) 0.21315(18) 0.4720(4)
N29_6 N 0.64286(19) 0.16945(17) 0.5835(4)
N30_6 N 0.62212(17) 0.1642(2) 0.5845(4)
N31_6 N 0.37447(18) 0.47035(18) 0.3157(4)
N32_6 N 0.38972(17) 0.46302(18) 0.2799(5)
N33_6 N 0.37576(17) 0.41261(18) 0.1876(4)
N34_6 N 0.35682(15) 0.40144(17) 0.1893(4)
N35_6 N 0.30889(16) 0.42803(18) 0.2757(4)
N36_6 N 0.31333(16) 0.44480(17) 0.3067(5)
N51_6 N 0.64524(17) 0.08980(18) 0.7010(4)
N52_6 N 0.65920(15) 0.08421(17) 0.6633(4)
N57_6 N 0.4535(2) 0.47780(18) 0.4288(5)
N58_4 N 0.4482(2) 0.4992(2) 0.4342(5)
N59_6 N 0.7167(2) 0.2257(2) 0.2988(4)
C1_6 C 0.4616(2) 0.0520(2) 0.1011(5)
C2_6 C 0.4853(2) 0.0542(2) 0.0916(5)
C3_6 C 0.50097(19) 0.0672(2) 0.1116(4)
C4_6 C 0.5197(2) 0.06179(19) 0.0904(5)
C5_6 C 0.5419(2) 0.0708(3) 0.0975(6)
C36_6 C 0.4694(3) 0.2306(3) 0.0559(7)
C37_6 C 0.4538(2) 0.2416(2) 0.0901(5)
C38_6 C 0.4458(2) 0.2340(2) 0.1352(5)
C39_6 C 0.4321(2) 0.2505(2) 0.1514(7)
C40_6 C 0.4188(3) 0.2522(3) 0.1978(7)
C41_6 C 0.3921(3) 0.3301(3) 0.2043(6)
C42_6 C 0.3987(2) 0.3407(2) 0.1558(5)
C43_6 C 0.3953(2) 0.3617(2) 0.1365(5)
C44_6 C 0.40690(18) 0.36197(19) 0.0917(5)
C45_6 C 0.4093(2) 0.3794(2) 0.0537(6)
C46_6 C 0.4404(2) 0.1838(2) 0.0996(5)
C47_6 C 0.4505(2) 0.1931(2) 0.1451(5)
C48_6 C 0.4518(2) 0.2143(2) 0.1610(6)
C49_6 C 0.4636(2) 0.2128(2) 0.2063(5)
C50_6 C 0.4701(3) 0.2312(3) 0.2408(7)
C51_6 C 0.5167(2) 0.2056(3) 0.3656(6)
C52_6 C 0.5223(2) 0.1821(2) 0.3573(6)
C53_6 C 0.5389(2) 0.1694(2) 0.3741(5)
C54_6 C 0.5349(2) 0.1490(2) 0.3540(6)
C55_6 C 0.5485(3) 0.1287(3) 0.3607(7)
C56_6 C 0.5212(2) 0.0792(2) 0.2228(5)
C57_6 C 0.5060(2) 0.09100(19) 0.1912(5)
C58_6 C 0.4962(2) 0.08610(19) 0.1437(5)
C59_6 C 0.48314(18) 0.10340(19) 0.1342(4)
C60_6 C 0.4692(2) 0.1079(3) 0.0896(6)
C61_6 C 0.5517(2) 0.1516(3) 0.4875(5)
C62_6 C 0.5622(2) 0.1693(2) 0.4561(6)
C63_6 C 0.5570(2) 0.1770(2) 0.4058(6)
C64_6 C 0.5715(2) 0.1926(2) 0.3967(5)
C65_6 C 0.5745(3) 0.2059(3) 0.3511(5)
C66_6 C 0.6445(3) 0.2372(3) 0.3553(6)
C67_6 C 0.6564(2) 0.2278(3) 0.3986(5)
C68_6 C 0.6787(3) 0.2256(2) 0.4057(5)
C69_6 C 0.6806(2) 0.2166(2) 0.4511(6)
C70_6 C 0.7006(3) 0.2104(3) 0.4807(7)
C71_6 C 0.6782(3) 0.1563(2) 0.6102(7)
C72_6 C 0.65478(19) 0.15448(19) 0.6062(4)
C73_6 C 0.6416(2) 0.1383(2) 0.6224(5)
C74_6 C 0.6203(2) 0.1456(2) 0.6083(5)
C75_6 C 0.5999(2) 0.1339(3) 0.6142(7)
C76_6 C 0.3735(2) 0.4890(3) 0.3982(6)
C77_6 C 0.3854(2) 0.4795(2) 0.3539(5)
C78_6 C 0.4069(2) 0.4781(2) 0.3436(6)
C79_6 C 0.4092(2) 0.4678(2) 0.2983(6)
C80_6 C 0.4284(3) 0.4620(3) 0.2673(7)
C81_6 C 0.4135(2) 0.4081(2) 0.1643(6)
C82_6 C 0.3910(2) 0.4001(2) 0.1686(5)
C83_6 C 0.3833(2) 0.3793(2) 0.1591(5)
C84_6 C 0.3615(2) 0.38081(19) 0.1727(5)
C85_6 C 0.3443(2) 0.3640(2) 0.1722(5)
C86_6 C 0.2796(2) 0.4009(3) 0.2655(7)
C87_6 C 0.2897(2) 0.4197(2) 0.2910(5)
C88_6 C 0.2818(2) 0.4313(2) 0.3337(6)
C89_6 C 0.2980(2) 0.4468(2) 0.3415(5)
C90_6 C 0.2992(3) 0.4639(3) 0.3808(6)
C126_6 C 0.6226(3) 0.1203(3) 0.7295(7)
C127_6 C 0.63810(19) 0.1100(2) 0.6939(5)
C128_6 C 0.6458(2) 0.1176(2) 0.6477(5)
C129_6 C 0.65960(19) 0.1010(3) 0.6298(5)
C130_6 C 0.6736(3) 0.0994(3) 0.5829(6)
C131_6 C 0.2315(2) 0.4339(2) 0.3066(6)
C132_6 C 0.24184(18) 0.42831(18) 0.3545(5)
C133_6 C 0.2635(2) 0.4275(2) 0.3659(5)
C134_6 C 0.2644(2) 0.4207(2) 0.4166(6)
C135_6 C 0.2835(2) 0.4168(3) 0.4488(6)
C141_6 C 0.4420(3) 0.4449(3) 0.3880(6)
C142_6 C 0.4399(3) 0.4680(3) 0.3968(6)
C143_6 C 0.4249(2) 0.4826(2) 0.3789(5)
C144_6 C 0.4308(3) 0.5020(2) 0.4024(6)
C145_6 C 0.4214(3) 0.5243(3) 0.3978(7)
C146_6 C 0.6836(3) 0.2051(3) 0.2938(6)
C147_6 C 0.6980(3) 0.2200(3) 0.3215(6)
C148_6 C 0.6958(2) 0.2301(2) 0.3691(5)
C149_6 C 0.7147(2) 0.2415(2) 0.3724(6)
C150_6 C 0.7220(2) 0.25565(19) 0.4164(5)
Ag1_6 Ag 0.482519(16) 0.022799(16) 0.00013(4)
Ag2_6 Ag 0.535695(15) 0.031094(16) 0.00266(4)
Ag7_6 Ag 0.436790(18) 0.333880(18) 0.02616(5)
Ag8_6 Ag 0.454410(17) 0.282900(18) 0.02454(4)
Ag9_6 Ag 0.421930(17) 0.298270(18) 0.12238(5)
Ag10_6 Ag 0.471560(16) 0.148650(16) 0.17713(4)
Ag11_6 Ag 0.487040(17) 0.179730(17) 0.27355(4)
Ag12_6 Ag 0.506730(16) 0.129090(16) 0.26915(4)
Ag13_6 Ag 0.600140(18) 0.174990(18) 0.53173(4)
Ag14_6 Ag 0.614910(18) 0.209510(18) 0.44154(4)
Ag15_6 Ag 0.651630(18) 0.193830(17) 0.53196(4)
Ag16_6 Ag 0.343720(16) 0.459080(17) 0.30796(4)
Ag17_6 Ag 0.380450(16) 0.439820(16) 0.23019(4)
Ag18_6 Ag 0.331810(15) 0.415170(16) 0.22853(4)
Ag27_4 Ag 0.667670(16) 0.052490(18) 0.65582(4)
H1_6 H 0.4558 0.0410 0.0798
H2_6 H 0.4546 0.0655 0.0939
H3_6 H 0.4592 0.0482 0.1356
H4_6 H 0.5413 0.0825 0.1211
H5_6 H 0.5473 0.0759 0.0658
H6_6 H 0.5512 0.0597 0.1102
H43_6 H 0.4719 0.2395 0.0270
H44_6 H 0.4827 0.2283 0.0734
H45_6 H 0.4636 0.2170 0.0454
H46_6 H 0.4110 0.2656 0.1973
H47_6 H 0.4089 0.2404 0.1992
H48_6 H 0.4281 0.2519 0.2267
H49_6 H 0.3970 0.3154 0.2047
H50_6 H 0.3983 0.3378 0.2321
H51_6 H 0.3766 0.3304 0.2072
H52_6 H 0.4185 0.3746 0.0271
H53_6 H 0.3954 0.3830 0.0403
H54_6 H 0.4154 0.3919 0.0694
H55_6 H 0.4422 0.1684 0.0999
H56_6 H 0.4253 0.1873 0.0993
H57_6 H 0.4472 0.1897 0.0701
H58_6 H 0.4779 0.2256 0.2691
H59_6 H 0.4791 0.2411 0.2227
H60_6 H 0.4574 0.2386 0.2523
H61_6 H 0.5274 0.2121 0.3871
H62_6 H 0.5165 0.2130 0.3339
H63_6 H 0.5028 0.2067 0.3812
H64_6 H 0.5420 0.1170 0.3423
H65_6 H 0.5628 0.1313 0.3482
H66_6 H 0.5491 0.1250 0.3957
H67_6 H 0.5245 0.0876 0.2521
H68_6 H 0.5149 0.0657 0.2329
H69_6 H 0.5341 0.0765 0.2042
H70_6 H 0.4700 0.0960 0.0666
H71_6 H 0.4546 0.1098 0.1004
H72_6 H 0.4742 0.1208 0.0732
H73_6 H 0.5590 0.1505 0.5193
H74_6 H 0.5528 0.1381 0.4700
H75_6 H 0.5368 0.1550 0.4930
H76_6 H 0.5863 0.2157 0.3561
H77_6 H 0.5616 0.2140 0.3446
H78_6 H 0.5775 0.1968 0.3229
H79_6 H 0.6293 0.2363 0.3615
H80_6 H 0.6479 0.2293 0.3252
H81_6 H 0.6485 0.2520 0.3512
H82_6 H 0.7132 0.2140 0.4616
H83_6 H 0.7004 0.1952 0.4874
H84_6 H 0.7008 0.2182 0.5119
H85_6 H 0.6828 0.1696 0.5953
H86_6 H 0.6849 0.1444 0.5929
H87_6 H 0.6823 0.1560 0.6450
H88_6 H 0.5882 0.1425 0.6016
H89_6 H 0.5975 0.1308 0.6492
H90_6 H 0.6005 0.1206 0.5957
H91_6 H 0.3582 0.4872 0.3933
H92_6 H 0.3768 0.5041 0.4008
H93_6 H 0.3778 0.4818 0.4285
H94_6 H 0.4238 0.4547 0.2374
H95_6 H 0.4378 0.4528 0.2863
H96_6 H 0.4360 0.4750 0.2581
H97_6 H 0.4140 0.4230 0.1738
H98_6 H 0.4183 0.4066 0.1301
H99_6 H 0.4227 0.3998 0.1860
H100_6 H 0.3310 0.3701 0.1843
H101_6 H 0.3485 0.3522 0.1934
H102_6 H 0.3423 0.3589 0.1384
H103_6 H 0.2885 0.3965 0.2378
H104_6 H 0.2656 0.4049 0.2532
H105_6 H 0.2782 0.3892 0.2889
H106_6 H 0.3120 0.4722 0.3760
H107_6 H 0.2994 0.4573 0.4135
H108_6 H 0.2868 0.4731 0.3782
H151_6 H 0.6202 0.1109 0.7576
H152_6 H 0.6092 0.1230 0.7126
H153_6 H 0.6285 0.1337 0.7412
H154_6 H 0.6807 0.0857 0.5822
H155_6 H 0.6842 0.1107 0.5834
H156_6 H 0.6647 0.1010 0.5535
H157_6 H 0.2423 0.4374 0.2822
H158_6 H 0.2221 0.4460 0.3114
H159_6 H 0.2232 0.4218 0.2948
H160_6 H 0.2788 0.4124 0.4817
H161_6 H 0.2918 0.4298 0.4514
H162_6 H 0.2921 0.4056 0.4341
H169_6 H 0.4542 0.4395 0.4062
H170_6 H 0.4439 0.4423 0.3527
H171_6 H 0.4292 0.4377 0.3994
H172_6 H 0.4292 0.5340 0.4193
H173_6 H 0.4066 0.5240 0.4076
H174_6 H 0.4226 0.5291 0.3635
H175_6 H 0.6900 0.2014 0.2621
H176_6 H 0.6699 0.2120 0.2880
H177_6 H 0.6814 0.1922 0.3133
H178_6 H 0.7358 0.2619 0.4088
H179_6 H 0.7232 0.2470 0.4463
H180_6 H 0.7117 0.2669 0.4218
N64_4 N 0.6937(2) 0.4495(2) 0.0021(5)
N66_4 N 0.6728(2) 0.02007(18) 0.6452(5)
Ag36_6 Ag 0.634870(16) 0.067590(18) 0.75309(4)
Ag39_6 Ag 0.47339(2) 0.46270(2) 0.48110(5)
Ag40_4 Ag 0.46305(2) 0.51716(2) 0.48801(5)
N3_6 N 0.55433(18) 0.02137(17) 0.9424(4)
N4_6 N 0.54599(18) 0.00981(17) 0.9038(4)
N5_6 N 0.47966(18) 0.00446(18) 0.8952(4)
N6_6 N 0.46826(17) 0.01089(19) 0.9372(5)
N7_6 N 0.58527(18) 0.3693(2) 0.7493(5)
N8_6 N 0.5824(2) 0.3556(2) 0.7881(5)
N9_6 N 0.5227(2) 0.32928(19) 0.8129(5)
N10_6 N 0.5052(2) 0.3335(2) 0.7823(5)
N11_6 N 0.51517(17) 0.37262(18) 0.6580(4)
N12_6 N 0.5361(2) 0.3802(2) 0.6479(5)
N13_6 N 0.45766(16) 0.32554(17) 0.9693(5)
N14_6 N 0.46460(19) 0.3042(2) 0.9701(5)
N41_6 N 0.39629(17) 0.00391(17) 0.7954(4)
N43_6 N 0.73466(17) 0.42416(19) 0.8969(5)
N44_6 N 0.72663(19) 0.4112(2) 0.8588(5)
N45_6 N 0.66277(19) 0.3940(2) 0.8579(5)
N46_6 N 0.6486(2) 0.4024(2) 0.8940(5)
N49_6 N 0.62617(18) 0.02396(17) 0.7953(4)
N50_6 N 0.62027(17) 0.04572(18) 0.8006(4)
N55_6 N 0.5001(2) 0.4586(2) 0.5718(5)
N56_6 N 0.4899(2) 0.4462(2) 0.5358(4)
C6_6 C 0.5878(2) 0.0428(2) 0.9593(5)
C7_6 C 0.5737(2) 0.0292(2) 0.9274(5)
C8_6 C 0.57830(19) 0.02120(18) 0.8783(5)
C9_6 C 0.5604(2) 0.0093(2) 0.8657(5)
C13_6 C 0.4451(2) 0.0038(2) 0.8743(5)
C14_6 C 0.4468(2) 0.0107(2) 0.9243(5)
C15_6 C 0.4300(2) 0.0184(3) 0.9593(6)
C16_6 C 0.6100(2) 0.3994(2) 0.7264(6)
C17_6 C 0.6020(2) 0.3820(2) 0.7600(5)
C18_6 C 0.6108(3) 0.3764(2) 0.8078(6)
C19_6 C 0.5977(2) 0.3598(3) 0.8229(6)
C20_6 C 0.5983(3) 0.3465(3) 0.8709(6)
C21_6 C 0.5314(2) 0.3169(3) 0.8971(6)
C22_6 C 0.5154(2) 0.3235(2) 0.8589(6)
C23_6 C 0.4931(2) 0.3241(3) 0.8598(6)
C24_6 C 0.4877(2) 0.3304(2) 0.8108(6)
C25_6 C 0.4649(3) 0.3338(3) 0.7897(7)
C26_6 C 0.4776(3) 0.3827(3) 0.6423(7)
C27_6 C 0.5018(2) 0.3870(3) 0.6372(5)
C28_6 C 0.5124(2) 0.4033(2) 0.6147(5)
C29_6 C 0.5340(2) 0.3978(3) 0.6232(6)
C30_6 C 0.5549(2) 0.4096(3) 0.6059(7)
C31_6 C 0.4628(3) 0.3579(3) 0.9183(7)
C32_6 C 0.4667(2) 0.3346(2) 0.9286(6)
C33_6 C 0.4796(2) 0.3198(2) 0.9037(6)
C34_6 C 0.4781(2) 0.3012(2) 0.9309(5)
C35_6 C 0.4884(3) 0.2794(3) 0.9231(6)
C101_6 C 0.4263(2) 0.0281(3) 0.7724(7)
C102_6 C 0.4163(2) 0.0110(2) 0.8048(6)
C103_6 C 0.42432(18) 0.0007(2) 0.8487(5)
C106_6 C 0.7684(3) 0.4443(3) 0.9149(7)
C107_6 C 0.7546(2) 0.4301(2) 0.8829(5)
C108_6 C 0.7591(2) 0.4222(2) 0.8353(5)
C109_6 C 0.7409(2) 0.4099(3) 0.8212(5)
C110_6 C 0.7362(3) 0.3980(3) 0.7754(7)
C111_6 C 0.6610(2) 0.3739(2) 0.7779(5)
C112_6 C 0.6508(2) 0.3845(2) 0.8224(5)
C113_6 C 0.62935(18) 0.3856(2) 0.8347(5)
C114_6 C 0.6287(2) 0.3975(3) 0.8789(5)
C115_6 C 0.6103(3) 0.4053(4) 0.9096(6)
C116_6 C 0.7931(3) 0.3884(3) 0.7859(7)
C117_6 C 0.7910(3) 0.4115(3) 0.7800(6)
C118_6 C 0.7775(3) 0.4262(3) 0.8029(7)
C119_6 C 0.7839(3) 0.4460(2) 0.7836(6)
C120_6 C 0.7752(3) 0.4679(3) 0.7927(6)
C122_6 C 0.61170(19) 0.0130(2) 0.8249(4)
C123_6 C 0.5969(2) 0.0272(2) 0.8472(5)
C124_6 C 0.6025(2) 0.0472(2) 0.8289(5)
C125_6 C 0.5931(2) 0.0684(2) 0.8392(5)
C136_6 C 0.5210(3) 0.4526(3) 0.6496(7)
C137_6 C 0.5094(4) 0.4432(3) 0.6039(6)
C138_6 C 0.5055(3) 0.4225(2) 0.5897(6)
C139_6 C 0.4923(2) 0.4252(2) 0.5473(5)
C140_6 C 0.4826(3) 0.4077(2) 0.5160(6)
Ag3_6 Ag 0.513079(16) 0.004559(17) 0.90188(4)
Ag4_6 Ag 0.561280(18) 0.37195(2) 0.69583(5)
Ag5_6 Ag 0.553030(18) 0.34025(2) 0.79410(5)
Ag6_6 Ag 0.510180(19) 0.35050(2) 0.71591(5)
Ag22_4 Ag 0.714330(19) 0.435310(19) 0.95140(5)
Ag23_6 Ag 0.694790(18) 0.40152(2) 0.86281(5)
Ag24_4 Ag 0.66022(2) 0.42321(2) 0.94737(4)
Ag25_4 Ag 0.648750(17) 0.015290(18) 0.74362(4)
Ag28_4 Ag 0.49621(2) 0.49064(2) 0.57441(5)
H7_6 H 0.5807 0.0456 0.9907
H8_6 H 0.5906 0.0561 0.9424
H9_6 H 0.6011 0.0353 0.9654
H12_6 H 0.5550 0.0082 0.7902
H15_6 H 0.4838 0.0023 0.7956
H16_6 H 0.4365 0.0217 0.9912
H17_6 H 0.4193 0.0074 0.9636
H18_6 H 0.4234 0.0311 0.9459
H19_6 H 0.6013 0.4000 0.6965
H20_6 H 0.6247 0.3966 0.7173
H21_6 H 0.6092 0.4130 0.7436
H22_6 H 0.5868 0.3361 0.8704
H23_6 H 0.5967 0.3558 0.8995
H24_6 H 0.6119 0.3390 0.8731
H25_6 H 0.5457 0.3185 0.8836
H26_6 H 0.5291 0.3021 0.9061
H27_6 H 0.5299 0.3258 0.9264
H28_6 H 0.4659 0.3379 0.7550
H29_6 H 0.4578 0.3450 0.8084
H30_6 H 0.4569 0.3207 0.7926
H31_6 H 0.4697 0.3939 0.6257
H32_6 H 0.4737 0.3823 0.6772
H33_6 H 0.4742 0.3691 0.6270
H34_6 H 0.5673 0.4017 0.6175
H35_6 H 0.5551 0.4239 0.6196
H36_6 H 0.5551 0.4103 0.5698
H37_6 H 0.4531 0.3636 0.9431
H38_6 H 0.4762 0.3656 0.9197
H39_6 H 0.4565 0.3595 0.8855
H40_6 H 0.4840 0.2698 0.9495
H41_6 H 0.4840 0.2737 0.8913
H42_6 H 0.5038 0.2809 0.9236
H121_6 H 0.4166 0.0315 0.7453
H122_6 H 0.4288 0.0408 0.7922
H123_6 H 0.4397 0.0229 0.7590
H127_6 H 0.7612 0.4470 0.9464
H128_6 H 0.7819 0.4373 0.9211
H129_6 H 0.7708 0.4577 0.8979
H130_6 H 0.7222 0.3915 0.7779
H131_6 H 0.7366 0.4077 0.7472
H132_6 H 0.7469 0.3869 0.7708
H133_6 H 0.6764 0.3754 0.7799
H134_6 H 0.6573 0.3589 0.7775
H135_6 H 0.6559 0.3806 0.7476
H136_6 H 0.6156 0.4129 0.9385
H137_6 H 0.6015 0.4148 0.8897
H138_6 H 0.6017 0.3932 0.9204
H139_6 H 0.8043 0.3832 0.7643
H140_6 H 0.7965 0.3851 0.8202
H141_6 H 0.7797 0.3816 0.7770
H142_6 H 0.7836 0.4783 0.7744
H143_6 H 0.7605 0.4685 0.7815
H144_6 H 0.7758 0.4711 0.8280
H148_6 H 0.6009 0.0793 0.8211
H149_6 H 0.5939 0.0714 0.8746
H150_6 H 0.5783 0.0685 0.8287
H163_6 H 0.5211 0.4680 0.6473
H164_6 H 0.5356 0.4474 0.6503
H165_6 H 0.5137 0.4483 0.6797
H166_6 H 0.4744 0.4140 0.4892
H167_6 H 0.4734 0.3990 0.5365
H168_6 H 0.4939 0.3990 0.5020
N63_4 N 0.6716(2) 0.44450(19) 0.9993(5)
N67_4 N 0.6674(2) 0.00567(17) 0.6836(5)
N70_4 N 0.4892(2) 0.5223(2) 0.5833(5)
Ag31_4 Ag 0.238440(16) 0.928050(16) 0.01632(4)
N37_6 N 0.33381(18) 0.95781(17) 0.8473(4)
N38_6 N 0.31669(15) 0.96506(16) 0.8181(4)
N39_4 N 0.26238(16) 0.92393(17) 0.9635(4)
N40_4 N 0.27172(16) 0.90411(17) 0.9517(4)
N42_6 N 0.39123(17) 0.98869(18) 0.8304(4)
C10_6 C 0.5555(2) 0.9979(3) 0.8171(6)
C11_6 C 0.4742(2) 0.9917(3) 0.8095(6)
C12_6 C 0.4653(2) 0.9997(2) 0.8579(5)
C91_6 C 0.3418(2) 0.9334(2) 0.9188(5)
C92_6 C 0.3262(2) 0.94369(19) 0.8817(5)
C93_6 C 0.3040(2) 0.9416(2) 0.8770(5)
C94_6 C 0.2989(2) 0.9546(2) 0.8359(5)
C95_6 C 0.2773(2) 0.9593(2) 0.8109(6)
C96_6 C 0.2682(2) 0.9621(3) 0.9448(6)
C97_6 C 0.27297(18) 0.93974(19) 0.9391(5)
C98_6 C 0.2886(2) 0.93000(19) 0.9098(5)
C99_6 C 0.2872(2) 0.9082(2) 0.9190(5)
C100_6 C 0.3002(2) 0.8895(3) 0.8991(7)
C104_6 C 0.40783(19) 0.98676(19) 0.8616(5)
C105_6 C 0.4078(2) 0.9707(3) 0.9049(6)
C121_6 C 0.6140(2) 0.9886(3) 0.8297(6)
Ag19_6 Ag 0.362410(15) 0.973230(16) 0.83636(4)
H10_6 H 0.5418 0.9908 0.8197
H11_6 H 0.5665 0.9874 0.8104
H13_6 H 0.4626 0.9891 0.7864
H14_6 H 0.4820 0.9786 0.8151
H109_6 H 0.3562 0.9382 0.9119
H110_6 H 0.3378 0.9374 0.9524
H111_6 H 0.3411 0.9180 0.9156
H112_6 H 0.2794 0.9692 0.7835
H113_6 H 0.2712 0.9462 0.7984
H114_6 H 0.2677 0.9656 0.8351
H115_6 H 0.2562 0.9638 0.9674
H116_6 H 0.2805 0.9694 0.9582
H117_6 H 0.2645 0.9681 0.9126
H118_6 H 0.2951 0.8764 0.9137
H119_6 H 0.2988 0.8889 0.8632
H120_6 H 0.3151 0.8915 0.9078
H124_6 H 0.3944 0.9629 0.9050
H125_6 H 0.4195 0.9607 0.9007
H126_6 H 0.4094 0.9782 0.9361
H145_6 H 0.6258 0.9837 0.8093
H146_6 H 0.6009 0.9818 0.8185
H147_6 H 0.6166 0.9849 0.8642
Ag32_4 Ag 0.262150(16) 0.877910(16) 0.99487(4)
C131_7 C 0.6839(2) 0.0185(2) 0.5566(6)
C132_7 C 0.67831(18) 0.00816(18) 0.6045(5)
H157_7 H 0.6874 0.0077 0.5322
H158_7 H 0.6960 0.0279 0.5614
H159_7 H 0.6718 0.0268 0.5448
Ag31_5 Ag 0.178050(16) 0.011560(16) 0.26632(4)
H151_7 H 0.3609 0.6298 0.0076
Ag36_7 Ag 0.317590(18) 0.615130(16) 0.00309(4)
N1_7 N 0.28977(17) 0.75526(17) 0.3090(4)
N2_7 N 0.29484(18) 0.73342(16) 0.3084(4)
N3_7 N 0.27137(17) 0.69567(18) 0.1924(4)
N4_7 N 0.25981(17) 0.70401(18) 0.1538(4)
N5_7 N 0.25446(18) 0.77034(18) 0.1452(4)
N6_7 N 0.26089(19) 0.78174(17) 0.1872(5)
N8_7 N 0.6056(2) 0.6676(2) 0.0381(5)
N9_7 N 0.57928(19) 0.7273(2) 0.0629(5)
N10_7 N 0.5835(2) 0.7448(2) 0.0323(5)
N13_7 N 0.57554(17) 0.79234(16) 0.2193(5)
N14_7 N 0.5542(2) 0.78540(19) 0.2201(5)
N15_7 N 0.51164(18) 0.80309(17) 0.3309(4)
N16_7 N 0.51712(17) 0.81665(18) 0.3693(4)
N17_7 N 0.58032(17) 0.83824(18) 0.3746(4)
N18_7 N 0.59298(16) 0.83250(18) 0.3352(4)
N19_7 N 0.43001(17) 0.78950(17) 0.4292(4)
N20_7 N 0.44236(17) 0.78110(16) 0.4668(4)
N21_7 N 0.41978(16) 0.74074(16) 0.5771(4)
N22_7 N 0.39988(18) 0.73242(19) 0.5747(4)
N23_7 N 0.36070(16) 0.75154(16) 0.4574(4)
N24_7 N 0.3679(2) 0.76520(17) 0.4225(4)
N25_7 N 0.43007(19) 0.66996(17) 0.7228(4)
N26_7 N 0.44501(19) 0.66497(19) 0.6858(4)
N27_7 N 0.47088(17) 0.60371(19) 0.6889(4)
N28_7 N 0.46315(18) 0.58878(19) 0.7220(4)
N29_7 N 0.41945(17) 0.60714(19) 0.8335(4)
N30_7 N 0.4142(2) 0.62788(17) 0.8345(4)
N31_7 N 0.72035(18) 0.87553(18) 0.5657(4)
N32_7 N 0.71302(18) 0.86028(17) 0.5299(5)
N33_7 N 0.66261(18) 0.87424(17) 0.4376(4)
N34_7 N 0.65144(17) 0.89318(15) 0.4393(4)
N35_7 N 0.67803(18) 0.94111(16) 0.5257(4)
N36_7 N 0.69480(17) 0.93667(16) 0.5567(5)
N37_7 N 0.20781(17) 0.91619(18) 0.0973(4)
N38_7 N 0.21506(16) 0.93331(15) 0.0681(4)
N39_5 N 0.17393(17) 0.98762(16) 0.2135(4)
N40_5 N 0.15411(17) 0.97828(16) 0.2017(4)
N41_7 N 0.25391(17) 0.85371(17) 0.0454(4)
N42_7 N 0.23869(18) 0.85877(17) 0.0804(4)
N43_7 N 0.67416(19) 0.51534(17) 0.1469(5)
N44_7 N 0.6612(2) 0.52337(19) 0.1088(5)
N45_7 N 0.6440(2) 0.58723(19) 0.1079(5)
N46_7 N 0.6524(2) 0.6014(2) 0.1440(5)
N49_7 N 0.27396(17) 0.62383(18) 0.0453(4)
N50_7 N 0.29572(18) 0.62973(17) 0.0506(4)
N51_7 N 0.33980(18) 0.60476(17) 0.9510(4)
N52_7 N 0.33421(17) 0.59080(15) 0.9133(4)
N57_7 N 0.72780(18) 0.7965(2) 0.6788(5)
N58_5 N 0.7492(2) 0.8018(2) 0.6842(5)
N59_7 N 0.4757(2) 0.5333(2) 0.5488(4)
C1_7 C 0.3020(2) 0.7884(2) 0.3511(5)
C2_7 C 0.3042(2) 0.7647(2) 0.3416(5)
C3_7 C 0.3172(2) 0.74903(19) 0.3616(4)
C4_7 C 0.31179(19) 0.7303(2) 0.3404(5)
C5_7 C 0.3208(3) 0.7081(2) 0.3475(6)
C6_7 C 0.2928(2) 0.6622(2) 0.2093(5)
C7_7 C 0.2792(2) 0.6763(2) 0.1774(5)
C8_7 C 0.27120(18) 0.67170(19) 0.1283(5)
C9_7 C 0.2593(2) 0.6896(2) 0.1157(5)
C10_7 C 0.2479(3) 0.6945(2) 0.0671(6)
C11_7 C 0.2417(3) 0.7758(2) 0.0595(6)
C12_7 C 0.2497(2) 0.7847(2) 0.1079(5)
C13_7 C 0.2538(2) 0.8049(2) 0.1243(5)
C14_7 C 0.2607(2) 0.8032(2) 0.1743(5)
C15_7 C 0.2684(3) 0.8200(2) 0.2093(6)
C17_7 C 0.6320(2) 0.6480(2) 0.0100(5)
C18_7 C 0.6264(2) 0.6392(3) 0.0578(6)
C19_7 C 0.6098(3) 0.6523(2) 0.0729(6)
C20_7 C 0.5965(3) 0.6517(3) 0.1209(6)
C21_7 C 0.5669(3) 0.7186(2) 0.1471(6)
C22_7 C 0.5735(2) 0.7346(2) 0.1089(6)
C23_7 C 0.5741(3) 0.7569(2) 0.1098(6)
C24_7 C 0.5804(2) 0.7623(2) 0.0608(6)
C25_7 C 0.5838(3) 0.7851(3) 0.0397(7)
C31_7 C 0.6079(3) 0.7872(3) 0.1683(7)
C32_7 C 0.5846(2) 0.7833(2) 0.1786(6)
C33_7 C 0.5698(2) 0.7704(2) 0.1537(6)
C34_7 C 0.5512(2) 0.7719(2) 0.1809(5)
C35_7 C 0.5294(3) 0.7616(3) 0.1731(6)
C36_7 C 0.4806(3) 0.7806(3) 0.3059(7)
C37_7 C 0.4916(2) 0.7962(2) 0.3401(5)
C38_7 C 0.4840(2) 0.8042(2) 0.3852(5)
C39_7 C 0.5005(2) 0.8179(2) 0.4014(7)
C40_7 C 0.5022(3) 0.8312(3) 0.4478(7)
C41_7 C 0.5801(3) 0.8579(3) 0.4543(6)
C42_7 C 0.5907(2) 0.8513(2) 0.4058(5)
C43_7 C 0.6117(2) 0.8547(2) 0.3865(5)
C44_7 C 0.61197(19) 0.84310(18) 0.3417(5)
C45_7 C 0.6294(2) 0.8407(2) 0.3037(6)
C46_7 C 0.4338(2) 0.8096(2) 0.3496(5)
C47_7 C 0.4431(2) 0.7995(2) 0.3951(5)
C48_7 C 0.4643(2) 0.7982(2) 0.4110(6)
C49_7 C 0.4628(2) 0.7864(2) 0.4563(5)
C50_7 C 0.4812(3) 0.7799(3) 0.4908(7)
C51_7 C 0.4556(3) 0.7333(2) 0.6156(6)
C52_7 C 0.4321(2) 0.7277(2) 0.6073(6)
C53_7 C 0.4194(2) 0.7111(2) 0.6241(5)
C54_7 C 0.3990(2) 0.7151(2) 0.6040(6)
C55_7 C 0.3787(3) 0.7015(3) 0.6107(7)
C56_7 C 0.3292(2) 0.7288(2) 0.4728(5)
C57_7 C 0.34100(19) 0.7440(2) 0.4412(5)
C58_7 C 0.33610(19) 0.7538(2) 0.3937(5)
C59_7 C 0.35340(19) 0.76686(18) 0.3842(4)
C60_7 C 0.3579(3) 0.7808(2) 0.3396(6)
C61_7 C 0.4016(3) 0.6983(2) 0.7375(5)
C62_7 C 0.4193(2) 0.6878(2) 0.7061(6)
C63_7 C 0.4270(2) 0.6930(2) 0.6558(6)
C64_7 C 0.4426(2) 0.6785(2) 0.6467(5)
C65_7 C 0.4559(3) 0.6755(3) 0.6011(5)
C66_7 C 0.4872(3) 0.6055(3) 0.6053(6)
C67_7 C 0.4778(3) 0.5936(2) 0.6486(5)
C68_7 C 0.4756(2) 0.5713(3) 0.6557(5)
C69_7 C 0.4666(2) 0.5694(2) 0.7011(6)
C70_7 C 0.4604(3) 0.5494(3) 0.7307(7)
C71_7 C 0.4063(2) 0.5718(3) 0.8602(7)
C72_7 C 0.40448(19) 0.59522(19) 0.8562(4)
C73_7 C 0.3883(2) 0.6084(2) 0.8724(5)
C74_7 C 0.3956(2) 0.6297(2) 0.8583(5)
C75_7 C 0.3839(3) 0.6501(2) 0.8642(7)
C76_7 C 0.7390(3) 0.8765(2) 0.6482(6)
C77_7 C 0.7295(2) 0.8646(2) 0.6039(5)
C78_7 C 0.7281(2) 0.8431(2) 0.5936(6)
C79_7 C 0.7178(2) 0.8408(2) 0.5483(6)
C80_7 C 0.7120(3) 0.8216(3) 0.5173(7)
C81_7 C 0.6581(2) 0.8365(2) 0.4143(6)
C82_7 C 0.6501(2) 0.8590(2) 0.4186(5)
C83_7 C 0.6293(2) 0.8667(2) 0.4091(5)
C84_7 C 0.63081(19) 0.8885(2) 0.4227(5)
C85_7 C 0.6140(2) 0.9057(2) 0.4222(5)
C86_7 C 0.6509(3) 0.9704(2) 0.5155(7)
C87_7 C 0.6697(2) 0.9603(2) 0.5410(5)
C88_7 C 0.6813(2) 0.9682(2) 0.5837(6)
C89_7 C 0.6968(2) 0.9520(2) 0.5915(5)
C90_7 C 0.7139(3) 0.9508(3) 0.6308(6)
C91_7 C 0.1834(2) 0.9082(2) 0.1688(5)
C92_7 C 0.19369(19) 0.9238(2) 0.1317(5)
C93_7 C 0.1916(2) 0.9460(2) 0.1270(5)
C94_7 C 0.2046(2) 0.9511(2) 0.0859(5)
C95_7 C 0.2093(2) 0.9727(2) 0.0609(6)
C96_7 C 0.2121(3) 0.9818(2) 0.1948(6)
C97_7 C 0.18974(19) 0.97703(18) 0.1891(5)
C98_7 C 0.18000(19) 0.9614(2) 0.1598(5)
C99_7 C 0.1582(2) 0.9628(2) 0.1690(5)
C100_7 C 0.1395(3) 0.9498(2) 0.1491(7)
C101_7 C 0.2781(3) 0.8237(2) 0.0224(7)
C102_7 C 0.2610(2) 0.8337(2) 0.0548(6)
C103_7 C 0.2507(2) 0.82568(18) 0.0987(5)
C104_7 C 0.23676(19) 0.84217(19) 0.1116(5)
C105_7 C 0.2207(3) 0.8422(2) 0.1549(6)
C106_7 C 0.6943(3) 0.4816(3) 0.1649(7)
C107_7 C 0.6801(2) 0.4954(2) 0.1329(5)
C108_7 C 0.6722(2) 0.4909(2) 0.0853(5)
C109_7 C 0.6599(3) 0.5091(2) 0.0712(5)
C110_7 C 0.6480(3) 0.5138(3) 0.0254(7)
C111_7 C 0.6239(2) 0.5890(2) 0.0279(5)
C112_7 C 0.6345(2) 0.5992(2) 0.0724(5)
C113_7 C 0.6356(2) 0.62065(18) 0.0847(5)
C114_7 C 0.6475(3) 0.6213(2) 0.1289(5)
C115_7 C 0.6553(4) 0.6397(3) 0.1596(6)
C116_7 C 0.6384(3) 0.4569(3) 0.0359(7)
C117_7 C 0.6615(3) 0.4590(3) 0.0300(6)
C118_7 C 0.6762(3) 0.4725(3) 0.0529(7)
C119_7 C 0.6960(2) 0.4661(3) 0.0336(6)
C120_7 C 0.7179(3) 0.4748(3) 0.0427(6)
C121_7 C 0.2386(3) 0.6360(2) 0.0797(6)
C122_7 C 0.2630(2) 0.63830(19) 0.0749(4)
C123_7 C 0.2772(2) 0.6531(2) 0.0972(5)
C124_7 C 0.2972(2) 0.6475(2) 0.0789(5)
C125_7 C 0.3184(2) 0.6569(2) 0.0892(5)
C126_7 C 0.3703(3) 0.6274(3) 0.9795(7)
C127_7 C 0.3600(2) 0.61190(19) 0.9439(5)
C128_7 C 0.3676(2) 0.6042(2) 0.8977(5)
C129_7 C 0.3510(3) 0.59040(19) 0.8798(5)
C130_7 C 0.3494(3) 0.5764(3) 0.8329(6)
C133_7 C 0.6775(2) 0.9865(2) 0.6159(5)
C134_7 C 0.6707(2) 0.9856(2) 0.6666(6)
C135_7 C 0.6668(3) 0.9665(2) 0.6988(6)
C141_7 C 0.6949(3) 0.8080(3) 0.6380(6)
C142_7 C 0.7180(3) 0.8101(3) 0.6468(6)
C143_7 C 0.7326(2) 0.8251(2) 0.6289(5)
C144_7 C 0.7520(2) 0.8192(3) 0.6524(6)
C145_7 C 0.7743(3) 0.8286(3) 0.6478(7)
C146_7 C 0.4551(3) 0.5664(3) 0.5438(6)
C147_7 C 0.4700(3) 0.5520(3) 0.5715(6)
C148_7 C 0.4801(2) 0.5542(2) 0.6191(5)
C149_7 C 0.4915(2) 0.5353(2) 0.6224(6)
C150_7 C 0.50565(19) 0.5280(2) 0.6664(5)
Ag1_7 Ag 0.272799(16) 0.767481(16) 0.25013(4)
Ag2_7 Ag 0.281094(16) 0.714305(15) 0.25266(4)
Ag3_7 Ag 0.254559(17) 0.736921(16) 0.15188(4)
Ag5_7 Ag 0.59025(2) 0.696970(18) 0.04410(5)
Ag7_7 Ag 0.583880(18) 0.813210(18) 0.27616(5)
Ag8_7 Ag 0.532900(18) 0.795590(17) 0.27454(4)
Ag9_7 Ag 0.548270(18) 0.828070(17) 0.37238(5)
Ag10_7 Ag 0.398650(16) 0.778440(16) 0.42713(4)
Ag11_7 Ag 0.429730(17) 0.762960(17) 0.52355(4)
Ag12_7 Ag 0.379090(16) 0.743270(16) 0.51915(4)
Ag13_7 Ag 0.424990(18) 0.649860(18) 0.78173(4)
Ag14_7 Ag 0.459510(18) 0.635090(18) 0.69154(4)
Ag15_7 Ag 0.443830(17) 0.598370(18) 0.78196(4)
Ag16_7 Ag 0.709080(17) 0.906280(16) 0.55796(4)
Ag17_7 Ag 0.689820(16) 0.869550(16) 0.48019(4)
Ag18_7 Ag 0.665170(16) 0.918190(15) 0.47853(4)
Ag19_7 Ag 0.223230(16) 0.887590(15) 0.08636(4)
Ag22_5 Ag 0.685310(19) 0.535670(19) 0.20140(5)
Ag23_7 Ag 0.65152(2) 0.555210(18) 0.11281(5)
Ag24_5 Ag 0.67321(2) 0.58978(2) 0.19737(4)
Ag27_5 Ag 0.302490(18) 0.582330(16) 0.90582(4)
H1_7 H 0.2910 0.7942 0.3298
H2_7 H 0.3155 0.7954 0.3439
H3_7 H 0.2982 0.7908 0.3856
H4_7 H 0.3325 0.7087 0.3711
H5_7 H 0.3259 0.7027 0.3158
H6_7 H 0.3097 0.6988 0.3602
H7_7 H 0.2956 0.6693 0.2407
H8_7 H 0.3061 0.6594 0.1924
H9_7 H 0.2853 0.6489 0.2154
H10_7 H 0.2408 0.7082 0.0697
H11_7 H 0.2374 0.6835 0.0604
H12_7 H 0.2582 0.6950 0.0402
H13_7 H 0.2391 0.7874 0.0364
H14_7 H 0.2286 0.7680 0.0651
H15_7 H 0.2523 0.7662 0.0456
H16_7 H 0.2717 0.8135 0.2412
H17_7 H 0.2574 0.8307 0.2136
H18_7 H 0.2811 0.8266 0.1959
H22_7 H 0.5861 0.6632 0.1204
H23_7 H 0.6058 0.6533 0.1495
H24_7 H 0.5890 0.6381 0.1231
H25_7 H 0.5685 0.7043 0.1336
H26_7 H 0.5521 0.7209 0.1561
H27_7 H 0.5758 0.7201 0.1764
H28_7 H 0.5879 0.7841 0.0050
H29_7 H 0.5950 0.7922 0.0584
H30_7 H 0.5707 0.7931 0.0426
H37_7 H 0.6136 0.7969 0.1931
H38_7 H 0.6156 0.7738 0.1697
H39_7 H 0.6095 0.7935 0.1355
H40_7 H 0.5198 0.7660 0.1995
H41_7 H 0.5237 0.7660 0.1413
H42_7 H 0.5309 0.7462 0.1736
H43_7 H 0.4895 0.7781 0.2770
H44_7 H 0.4783 0.7673 0.3234
H45_7 H 0.4670 0.7864 0.2954
H46_7 H 0.5156 0.8390 0.4473
H47_7 H 0.4904 0.8411 0.4492
H48_7 H 0.5019 0.8219 0.4767
H49_7 H 0.5654 0.8530 0.4547
H50_7 H 0.5878 0.8517 0.4821
H51_7 H 0.5804 0.8734 0.4572
H52_7 H 0.6246 0.8315 0.2771
H53_7 H 0.6330 0.8546 0.2903
H54_7 H 0.6419 0.8346 0.3194
H55_7 H 0.4184 0.8078 0.3499
H56_7 H 0.4373 0.8247 0.3493
H57_7 H 0.4397 0.8028 0.3201
H58_7 H 0.4756 0.7721 0.5191
H59_7 H 0.4911 0.7709 0.4727
H60_7 H 0.4886 0.7926 0.5023
H61_7 H 0.4621 0.7226 0.6371
H62_7 H 0.4630 0.7335 0.5839
H63_7 H 0.4567 0.7472 0.6312
H64_7 H 0.3670 0.7080 0.5923
H65_7 H 0.3813 0.6872 0.5982
H66_7 H 0.3750 0.7009 0.6457
H67_7 H 0.3376 0.7255 0.5021
H68_7 H 0.3157 0.7351 0.4829
H69_7 H 0.3265 0.7159 0.4542
H70_7 H 0.3460 0.7800 0.3166
H71_7 H 0.3598 0.7954 0.3504
H72_7 H 0.3708 0.7758 0.3232
H73_7 H 0.4005 0.6910 0.7693
H74_7 H 0.3881 0.6972 0.7200
H75_7 H 0.4050 0.7132 0.7430
H76_7 H 0.4657 0.6637 0.6061
H77_7 H 0.4640 0.6884 0.5946
H78_7 H 0.4468 0.6725 0.5729
H79_7 H 0.4863 0.6207 0.6115
H80_7 H 0.4793 0.6021 0.5752
H81_7 H 0.5020 0.6015 0.6012
H82_7 H 0.4640 0.5368 0.7116
H83_7 H 0.4452 0.5496 0.7374
H84_7 H 0.4682 0.5492 0.7619
H85_7 H 0.4196 0.5672 0.8453
H86_7 H 0.3944 0.5651 0.8429
H87_7 H 0.4060 0.5677 0.8950
H88_7 H 0.3925 0.6618 0.8516
H89_7 H 0.3808 0.6525 0.8992
H90_7 H 0.3706 0.6495 0.8457
H91_7 H 0.7372 0.8918 0.6433
H92_7 H 0.7541 0.8732 0.6508
H93_7 H 0.7318 0.8722 0.6785
H94_7 H 0.7047 0.8262 0.4874
H95_7 H 0.7028 0.8122 0.5363
H96_7 H 0.7250 0.8140 0.5081
H97_7 H 0.6730 0.8360 0.4238
H98_7 H 0.6566 0.8317 0.3801
H99_7 H 0.6498 0.8273 0.4360
H100_7 H 0.6201 0.9190 0.4343
H101_7 H 0.6022 0.9015 0.4434
H102_7 H 0.6089 0.9077 0.3884
H103_7 H 0.6465 0.9615 0.4878
H104_7 H 0.6549 0.9844 0.5032
H105_7 H 0.6392 0.9718 0.5389
H106_7 H 0.7222 0.9380 0.6260
H107_7 H 0.7073 0.9506 0.6635
H108_7 H 0.7231 0.9632 0.6282
H109_7 H 0.1882 0.8938 0.1619
H110_7 H 0.1874 0.9122 0.2024
H111_7 H 0.1680 0.9089 0.1656
H112_7 H 0.2192 0.9706 0.0335
H113_7 H 0.1962 0.9788 0.0484
H114_7 H 0.2156 0.9823 0.0851
H115_7 H 0.2138 0.9938 0.2174
H116_7 H 0.2194 0.9695 0.2082
H117_7 H 0.2181 0.9855 0.1626
H118_7 H 0.1264 0.9549 0.1637
H119_7 H 0.1389 0.9512 0.1132
H120_7 H 0.1415 0.9349 0.1578
H122_7 H 0.2908 0.8212 0.0422
H123_7 H 0.2729 0.8103 0.0090
H124_7 H 0.2129 0.8556 0.1550
H125_7 H 0.2107 0.8305 0.1507
H126_7 H 0.2282 0.8406 0.1861
H127_7 H 0.6970 0.4888 0.1964
H128_7 H 0.6873 0.4681 0.1711
H129_7 H 0.7077 0.4792 0.1479
H130_7 H 0.6415 0.5278 0.0279
H132_7 H 0.6369 0.5031 0.0208
H133_7 H 0.6254 0.5736 0.0299
H134_7 H 0.6089 0.5927 0.0275
H136_7 H 0.6629 0.6344 0.1885
H137_7 H 0.6648 0.6485 0.1397
H138_7 H 0.6432 0.6483 0.1704
H139_7 H 0.6332 0.4457 0.0143
H140_7 H 0.6351 0.4535 0.0702
H141_7 H 0.6316 0.4703 0.0270
H142_7 H 0.7283 0.4664 0.0244
H143_7 H 0.7185 0.4895 0.0315
H144_7 H 0.7211 0.4742 0.0780
H145_7 H 0.2337 0.6242 0.0593
H146_7 H 0.2318 0.6491 0.0685
H147_7 H 0.2349 0.6334 0.1142
H148_7 H 0.3293 0.6491 0.0711
H149_7 H 0.3214 0.6561 0.1246
H150_7 H 0.3185 0.6717 0.0787
H152_7 H 0.3730 0.6408 0.9626
H153_7 H 0.3837 0.6215 0.9912
H154_7 H 0.3357 0.5693 0.8322
H155_7 H 0.3607 0.5658 0.8334
H156_7 H 0.3510 0.5853 0.8035
H160_7 H 0.6624 0.9712 0.7317
H161_7 H 0.6798 0.9582 0.7014
H162_7 H 0.6556 0.9579 0.6841
H169_7 H 0.6895 0.7958 0.6562
H170_7 H 0.6923 0.8061 0.6027
H171_7 H 0.6877 0.8208 0.6494
H172_7 H 0.7840 0.8208 0.6693
H173_7 H 0.7740 0.8434 0.6576
H174_7 H 0.7791 0.8274 0.6135
H175_7 H 0.4514 0.5600 0.5121
H176_7 H 0.4620 0.5801 0.5380
H177_7 H 0.4422 0.5686 0.5633
H178_7 H 0.5119 0.5142 0.6588
H179_7 H 0.4970 0.5268 0.6963
H180_7 H 0.5169 0.5383 0.6718
N63_5 N 0.69450(19) 0.5784(2) 0.2493(5)
N64_5 N 0.6995(2) 0.5563(2) 0.2521(5)
N66_5 N 0.27007(18) 0.5772(2) 0.8952(5)
Ag32_5 Ag 0.127910(16) 0.987850(16) 0.24487(4)
Ag39_7 Ag 0.71270(2) 0.77661(2) 0.73110(5)
Ag40_5 Ag 0.76716(2) 0.78695(2) 0.73801(5)
N7_7 N 0.6193(2) 0.66473(18) 0.9993(5)
N11_7 N 0.62262(18) 0.73483(17) 0.9080(4)
N12_7 N 0.6302(2) 0.7139(2) 0.8979(5)
N55_7 N 0.7086(2) 0.7499(2) 0.8218(5)
N56_7 N 0.6962(2) 0.7601(2) 0.7858(4)
C16_7 C 0.6494(2) 0.6400(2) 0.9764(6)
C26_7 C 0.6327(3) 0.7724(3) 0.8923(7)
C27_7 C 0.6370(3) 0.7482(2) 0.8872(5)
C28_7 C 0.6533(2) 0.7376(2) 0.8647(5)
C29_7 C 0.6478(3) 0.7160(2) 0.8732(6)
C30_7 C 0.6596(3) 0.6951(2) 0.8559(7)
C136_7 C 0.7026(3) 0.7290(3) 0.8996(7)
C137_7 C 0.6932(3) 0.7406(4) 0.8539(6)
C138_7 C 0.6725(2) 0.7445(3) 0.8397(6)
C139_7 C 0.6752(2) 0.7577(2) 0.7973(5)
C140_7 C 0.6577(2) 0.7674(3) 0.7660(6)
Ag4_7 Ag 0.62195(2) 0.688720(18) 0.94583(5)
Ag6_7 Ag 0.60050(2) 0.739820(19) 0.96591(5)
Ag25_5 Ag 0.265290(18) 0.601250(17) 0.99362(4)
Ag28_5 Ag 0.74064(2) 0.75379(2) 0.82441(5)
H19_7 H 0.6500 0.6487 0.9465
H20_7 H 0.6466 0.6253 0.9673
H21_7 H 0.6630 0.6408 0.9936
H31_7 H 0.6439 0.7803 0.8757
H32_7 H 0.6323 0.7763 0.9272
H33_7 H 0.6191 0.7758 0.8770
H34_7 H 0.6517 0.6827 0.8675
H35_7 H 0.6739 0.6949 0.8696
H36_7 H 0.6603 0.6949 0.8198
H121_7 H 0.2815 0.8334 0.9953
H131_7 H 0.6577 0.5134 0.9972
H135_7 H 0.6306 0.5941 0.9976
H163_7 H 0.7180 0.7289 0.8973
H164_7 H 0.6974 0.7144 0.9003
H165_7 H 0.6983 0.7363 0.9297
H166_7 H 0.6640 0.7756 0.7392
H167_7 H 0.6490 0.7766 0.7865
H168_7 H 0.6490 0.7561 0.7520
N67_5 N 0.25567(17) 0.5826(2) 0.9336(5)
N70_5 N 0.7723(2) 0.7608(2) 0.8333(5)
N37_8 N 0.16619(18) 0.04219(17) 0.3473(4)
N38_8 N 0.18331(15) 0.03494(16) 0.3181(4)
N42_8 N 0.10877(17) 0.01131(18) 0.3304(4)
C11_8 C 0.0258(2) 0.0083(3) 0.3095(6)
C12_8 C 0.0347(2) 0.0003(2) 0.3579(5)
C91_8 C 0.1582(2) 0.0666(2) 0.4188(5)
C92_8 C 0.1738(2) 0.05631(19) 0.3817(5)
C93_8 C 0.1960(2) 0.0584(2) 0.3770(5)
C94_8 C 0.2011(2) 0.0454(2) 0.3359(5)
C95_8 C 0.2227(2) 0.0407(2) 0.3109(6)
C96_8 C 0.2318(2) 0.0379(3) 0.4448(6)
C97_8 C 0.22703(18) 0.06026(19) 0.4391(5)
C98_8 C 0.2114(2) 0.07000(19) 0.4098(5)
C99_8 C 0.2128(2) 0.0918(2) 0.4190(5)
C100_8 C 0.1998(2) 0.1105(3) 0.3991(7)
C104_8 C 0.09217(19) 0.01324(19) 0.3616(5)
C105_8 C 0.0922(2) 0.0293(3) 0.4049(6)
Ag19_8 Ag 0.137590(15) 0.026770(16) 0.33636(4)
H13_8 H 0.0374 0.0109 0.2864
H14_8 H 0.0180 0.0214 0.3151
H109_8 H 0.1438 0.0618 0.4119
H110_8 H 0.1622 0.0626 0.4524
H111_8 H 0.1589 0.0820 0.4156
H112_8 H 0.2206 0.0308 0.2835
H113_8 H 0.2288 0.0538 0.2984
H114_8 H 0.2323 0.0344 0.3351
H115_8 H 0.2438 0.0362 0.4674
H116_8 H 0.2195 0.0306 0.4582
H117_8 H 0.2355 0.0319 0.4126
H118_8 H 0.2049 0.1236 0.4137
H119_8 H 0.2012 0.1111 0.3632
H120_8 H 0.1849 0.1085 0.4078
H124_8 H 0.1056 0.0371 0.4050
H125_8 H 0.0805 0.0393 0.4007
H126_8 H 0.0906 0.0218 0.4361
N1_8 N 0.00526(17) 0.96023(17) 0.5590(4)
N5_8 N 0.02034(18) 0.99554(18) 0.3952(4)
N6_8 N 0.03174(17) 0.98911(19) 0.4372(5)
N13_8 N 0.04234(16) 0.67446(17) 0.4693(5)
N14_8 N 0.03540(19) 0.6958(2) 0.4701(5)
N15_8 N 0.05309(17) 0.73836(18) 0.5809(4)
N16_8 N 0.06665(18) 0.73288(17) 0.6193(4)
N17_8 N 0.08824(18) 0.66968(17) 0.6246(4)
N18_8 N 0.08250(18) 0.65702(16) 0.5852(4)
N19_8 N 0.03950(17) 0.81999(17) 0.6792(4)
N20_8 N 0.03110(16) 0.80764(17) 0.7168(4)
N23_8 N 0.00154(16) 0.88930(16) 0.7074(4)
N24_8 N 0.01520(17) 0.8821(2) 0.6725(4)
N31_8 N 0.12553(18) 0.52965(18) 0.8157(4)
N32_8 N 0.11028(17) 0.53698(18) 0.7799(5)
N33_8 N 0.12424(17) 0.58739(18) 0.6876(4)
N34_8 N 0.14318(15) 0.59856(17) 0.6893(4)
N35_8 N 0.19111(16) 0.57197(18) 0.7757(4)
N36_8 N 0.18667(16) 0.55520(17) 0.8067(5)
N41_8 N 0.10371(17) 0.99609(17) 0.2954(4)
N56_8 N 0.0101(2) 0.5538(2) 0.0358(4)
N57_8 N 0.0465(2) 0.52220(18) 0.9288(5)
C1_8 C 0.0384(2) 0.9480(2) 0.6011(5)
C2_8 C 0.0147(2) 0.9458(2) 0.5916(5)
C13_8 C 0.0549(2) 0.9962(2) 0.3743(5)
C14_8 C 0.0532(2) 0.9893(2) 0.4243(5)
C15_8 C 0.0700(2) 0.9816(3) 0.4593(6)
C23_8 C 0.0069(2) 0.6759(3) 0.3598(6)
C24_8 C 0.0123(2) 0.6696(2) 0.3108(6)
C25_8 C 0.0351(3) 0.6662(3) 0.2897(7)
C26_8 C 0.0224(3) 0.6173(3) 0.1423(7)
C31_8 C 0.0372(3) 0.6421(3) 0.4183(7)
C32_8 C 0.0333(2) 0.6654(2) 0.4286(6)
C33_8 C 0.0204(2) 0.6802(2) 0.4037(6)
C34_8 C 0.0219(2) 0.6988(2) 0.4309(5)
C35_8 C 0.0116(3) 0.7206(3) 0.4231(6)
C36_8 C 0.0306(3) 0.7694(3) 0.5559(7)
C37_8 C 0.0462(2) 0.7584(2) 0.5901(5)
C38_8 C 0.0542(2) 0.7660(2) 0.6352(5)
C39_8 C 0.0679(2) 0.7495(2) 0.6514(7)
C40_8 C 0.0812(3) 0.7478(3) 0.6978(7)
C41_8 C 0.1079(3) 0.6699(3) 0.7043(6)
C42_8 C 0.1013(2) 0.6593(2) 0.6558(5)
C43_8 C 0.1047(2) 0.6383(2) 0.6365(5)
C44_8 C 0.09310(18) 0.63803(19) 0.5917(5)
C45_8 C 0.0907(2) 0.6206(2) 0.5537(6)
C46_8 C 0.0596(2) 0.8162(2) 0.5996(5)
C47_8 C 0.0495(2) 0.8069(2) 0.6451(5)
C48_8 C 0.0482(2) 0.7857(2) 0.6610(6)
C49_8 C 0.0364(2) 0.7872(2) 0.7063(5)
C50_8 C 0.0299(3) 0.7688(3) 0.7408(7)
C58_8 C 0.0038(2) 0.91390(19) 0.6437(5)
C59_8 C 0.01686(18) 0.89660(19) 0.6342(4)
C60_8 C 0.0308(2) 0.8921(3) 0.5896(6)
C76_8 C 0.1265(2) 0.5110(3) 0.8982(6)
C77_8 C 0.1146(2) 0.5205(2) 0.8539(5)
C78_8 C 0.0931(2) 0.5219(2) 0.8436(6)
C79_8 C 0.0908(2) 0.5322(2) 0.7983(6)
C80_8 C 0.0716(3) 0.5380(3) 0.7673(7)
C81_8 C 0.0865(2) 0.5919(2) 0.6643(6)
C82_8 C 0.1090(2) 0.5999(2) 0.6686(5)
C83_8 C 0.1167(2) 0.6207(2) 0.6591(5)
C84_8 C 0.1385(2) 0.61919(19) 0.6727(5)
C85_8 C 0.1557(2) 0.6360(2) 0.6722(5)
C86_8 C 0.2204(2) 0.5991(3) 0.7655(7)
C87_8 C 0.2103(2) 0.5803(2) 0.7910(5)
C88_8 C 0.2182(2) 0.5687(2) 0.8337(6)
C89_8 C 0.2020(2) 0.5532(2) 0.8415(5)
C90_8 C 0.2008(3) 0.5361(3) 0.8808(6)
C101_8 C 0.0737(2) 0.9719(3) 0.2724(7)
C102_8 C 0.0837(2) 0.9890(2) 0.3048(6)
C103_8 C 0.07568(18) 0.9993(2) 0.3487(5)
C131_8 C 0.2685(2) 0.5661(2) 0.8066(6)
C132_8 C 0.25816(18) 0.57169(18) 0.8545(5)
C133_8 C 0.2365(2) 0.5725(2) 0.8659(5)
C134_8 C 0.2356(2) 0.5793(2) 0.9166(6)
C135_8 C 0.2165(2) 0.5832(3) 0.9488(6)
C139_8 C 0.0077(2) 0.5748(2) 0.0473(5)
C140_8 C 0.0174(3) 0.5923(2) 0.0160(6)
C141_8 C 0.0580(3) 0.5551(3) 0.8880(6)
C142_8 C 0.0601(3) 0.5320(3) 0.8968(6)
C143_8 C 0.0751(2) 0.5174(2) 0.8789(5)
C144_8 C 0.0692(3) 0.4980(2) 0.9024(6)
C145_8 C 0.0786(3) 0.4757(3) 0.8978(7)
Ag1_8 Ag 0.017481(16) 0.977201(16) 0.50013(4)
Ag7_8 Ag 0.063210(18) 0.666120(18) 0.52616(5)
Ag8_8 Ag 0.045590(17) 0.717100(18) 0.52454(4)
Ag9_8 Ag 0.078070(17) 0.701730(18) 0.62238(5)
Ag10_8 Ag 0.028440(16) 0.851350(16) 0.67713(4)
Ag11_8 Ag 0.012960(17) 0.820270(17) 0.77355(4)
Ag16_8 Ag 0.156280(16) 0.540920(17) 0.80796(4)
Ag17_8 Ag 0.119550(16) 0.560180(16) 0.73019(4)
Ag18_8 Ag 0.168190(15) 0.584830(16) 0.72853(4)
H1_8 H 0.0442 0.9590 0.5798
H2_8 H 0.0454 0.9345 0.5939
H3_8 H 0.0408 0.9518 0.6356
H15_8 H 0.0162 0.9977 0.2956
H16_8 H 0.0635 0.9783 0.4912
H17_8 H 0.0807 0.9926 0.4636
H18_8 H 0.0766 0.9689 0.4459
H28_8 H 0.0341 0.6621 0.2550
H29_8 H 0.0422 0.6550 0.3084
H30_8 H 0.0431 0.6793 0.2926
H31_8 H 0.0303 0.6061 0.1257
H32_8 H 0.0263 0.6177 0.1772
H33_8 H 0.0258 0.6309 0.1270
H37_8 H 0.0469 0.6364 0.4431
H38_8 H 0.0238 0.6344 0.4197
H39_8 H 0.0435 0.6405 0.3855
H40_8 H 0.0160 0.7302 0.4495
H41_8 H 0.0160 0.7263 0.3913
H43_8 H 0.0281 0.7605 0.5270
H44_8 H 0.0173 0.7717 0.5734
H45_8 H 0.0364 0.7830 0.5454
H46_8 H 0.0890 0.7344 0.6973
H47_8 H 0.0911 0.7596 0.6992
H48_8 H 0.0719 0.7481 0.7267
H49_8 H 0.1030 0.6846 0.7047
H50_8 H 0.1017 0.6622 0.7321
H51_8 H 0.1234 0.6696 0.7072
H52_8 H 0.0815 0.6254 0.5271
H53_8 H 0.1046 0.6170 0.5403
H54_8 H 0.0846 0.6081 0.5694
H55_8 H 0.0578 0.8316 0.5999
H56_8 H 0.0747 0.8127 0.5993
H57_8 H 0.0528 0.8103 0.5701
H58_8 H 0.0221 0.7744 0.7691
H59_8 H 0.0209 0.7589 0.7227
H60_8 H 0.0426 0.7614 0.7523
H70_8 H 0.0300 0.9040 0.5666
H71_8 H 0.0454 0.8902 0.6004
H72_8 H 0.0258 0.8792 0.5732
H91_8 H 0.1418 0.5128 0.8933
H92_8 H 0.1232 0.4959 0.9008
H93_8 H 0.1222 0.5182 0.9285
H94_8 H 0.0762 0.5453 0.7374
H95_8 H 0.0622 0.5472 0.7863
H96_8 H 0.0640 0.5250 0.7581
H97_8 H 0.0860 0.5770 0.6738
H98_8 H 0.0817 0.5934 0.6301
H99_8 H 0.0773 0.6002 0.6860
H100_8 H 0.1690 0.6299 0.6843
H101_8 H 0.1515 0.6478 0.6934
H102_8 H 0.1577 0.6411 0.6384
H103_8 H 0.2115 0.6035 0.7378
H104_8 H 0.2344 0.5951 0.7532
H105_8 H 0.2218 0.6108 0.7889
H106_8 H 0.1880 0.5278 0.8760
H107_8 H 0.2006 0.5427 0.9135
H108_8 H 0.2132 0.5269 0.8782
H121_8 H 0.0834 0.9685 0.2453
H122_8 H 0.0712 0.9592 0.2922
H123_8 H 0.0603 0.9771 0.2590
H157_8 H 0.2577 0.5626 0.7822
H158_8 H 0.2779 0.5540 0.8114
H159_8 H 0.2768 0.5782 0.7948
H160_8 H 0.2212 0.5876 0.9817
H161_8 H 0.2082 0.5702 0.9514
H162_8 H 0.2079 0.5944 0.9341
H167_8 H 0.0266 0.6010 0.0365
H168_8 H 0.0061 0.6010 0.0020
H169_8 H 0.0458 0.5605 0.9062
H170_8 H 0.0561 0.5577 0.8527
H171_8 H 0.0708 0.5623 0.8994
H172_8 H 0.0708 0.4660 0.9193
H173_8 H 0.0934 0.4760 0.9076
H174_8 H 0.0774 0.4709 0.8635
Ag39_8 Ag 0.02661(2) 0.53730(2) 0.98110(5)
H166_8 H 0.0256 0.5860 0.9892
N29_8 N 0.85714(19) 0.83055(17) 0.0835(4)
N30_8 N 0.87788(17) 0.8358(2) 0.0845(4)
N51_8 N 0.85476(17) 0.91020(18) 0.2010(4)
N52_8 N 0.84080(15) 0.91579(17) 0.1633(4)
C71_8 C 0.8218(3) 0.8437(2) 0.1102(7)
C72_8 C 0.84522(19) 0.84552(19) 0.1062(4)
C73_8 C 0.8584(2) 0.8617(2) 0.1224(5)
C74_8 C 0.8797(2) 0.8544(2) 0.1083(5)
C75_8 C 0.9001(2) 0.8661(3) 0.1142(7)
C126_8 C 0.8774(3) 0.8797(3) 0.2295(7)
C127_8 C 0.86190(19) 0.8900(2) 0.1939(5)
C128_8 C 0.8542(2) 0.8824(2) 0.1477(5)
C129_8 C 0.84040(19) 0.8990(3) 0.1298(5)
C130_8 C 0.8264(3) 0.9006(3) 0.0829(6)
Ag13_8 Ag 0.899860(18) 0.825010(18) 0.03173(4)
Ag15_8 Ag 0.848370(18) 0.806170(17) 0.03196(4)
H73_8 H 0.9410 0.8495 0.0193
H84_8 H 0.7992 0.7818 0.0119
H85_8 H 0.8172 0.8304 0.0953
H86_8 H 0.8151 0.8556 0.0929
H87_8 H 0.8177 0.8440 0.1450
H88_8 H 0.9118 0.8575 0.1016
H89_8 H 0.9025 0.8692 0.1492
H90_8 H 0.8995 0.8794 0.0957
H151_8 H 0.8798 0.8891 0.2576
H152_8 H 0.8908 0.8770 0.2126
H153_8 H 0.8715 0.8663 0.2412
H154_8 H 0.8193 0.9143 0.0822
H155_8 H 0.8158 0.8893 0.0834
H156_8 H 0.8353 0.8990 0.0535
Ag36_8 Ag 0.865130(16) 0.932410(18) 0.25309(4)
N2_8 N 0.98342(16) 0.95516(18) 0.5584(4)
N3_8 N 0.94567(18) 0.97863(17) 0.4424(4)
N4_8 N 0.95401(18) 0.99019(17) 0.4038(4)
N7_8 N 0.91473(18) 0.6307(2) 0.2493(5)
N8_8 N 0.9176(2) 0.6444(2) 0.2881(5)
N9_8 N 0.9773(2) 0.67072(19) 0.3129(5)
N10_8 N 0.9948(2) 0.6665(2) 0.2823(5)
N11_8 N 0.98483(17) 0.62738(18) 0.1580(4)
N12_8 N 0.9639(2) 0.6198(2) 0.1479(5)
N21_8 N 0.99074(16) 0.83022(16) 0.8271(4)
N22_8 N 0.98242(19) 0.85012(18) 0.8247(4)
N25_8 N 0.91996(17) 0.81993(19) 0.9728(4)
N26_8 N 0.91497(19) 0.80499(19) 0.9358(4)
N27_8 N 0.85371(19) 0.77912(17) 0.9389(4)
N28_8 N 0.83878(19) 0.78685(18) 0.9720(4)
N43_8 N 0.76534(17) 0.57584(19) 0.3969(5)
N44_8 N 0.77337(19) 0.5888(2) 0.3588(5)
N45_8 N 0.83723(19) 0.6060(2) 0.3579(5)
N46_8 N 0.8514(2) 0.5976(2) 0.3940(5)
N49_8 N 0.87383(18) 0.97604(17) 0.2953(4)
N50_8 N 0.87973(17) 0.95428(18) 0.3006(4)
N55_8 N 0.9999(2) 0.5414(2) 0.0718(5)
N59_8 N 0.7833(2) 0.7743(2) 0.7988(4)
C3_8 C 0.99903(19) 0.9328(2) 0.6116(4)
C4_8 C 0.9803(2) 0.93821(19) 0.5904(5)
C5_8 C 0.9581(2) 0.9292(3) 0.5975(6)
C6_8 C 0.9122(2) 0.9572(2) 0.4593(5)
C7_8 C 0.9263(2) 0.9708(2) 0.4274(5)
C8_8 C 0.92170(19) 0.97880(18) 0.3783(5)
C9_8 C 0.9396(2) 0.9907(2) 0.3657(5)
C16_8 C 0.8900(2) 0.6006(2) 0.2264(6)
C17_8 C 0.8980(2) 0.6180(2) 0.2600(5)
C18_8 C 0.8892(3) 0.6236(2) 0.3078(6)
C19_8 C 0.9023(2) 0.6402(3) 0.3229(6)
C20_8 C 0.9017(3) 0.6535(3) 0.3709(6)
C21_8 C 0.9686(2) 0.6831(3) 0.3971(6)
C22_8 C 0.9846(2) 0.6765(2) 0.3589(6)
C27_8 C 0.9982(2) 0.6130(3) 0.1372(5)
C28_8 C 0.9876(2) 0.5967(2) 0.1147(5)
C29_8 C 0.9660(2) 0.6022(3) 0.1232(6)
C30_8 C 0.9451(2) 0.5904(3) 0.1059(7)
C51_8 C 0.9833(2) 0.7944(3) 0.8656(6)
C52_8 C 0.9777(2) 0.8179(2) 0.8573(6)
C53_8 C 0.9611(2) 0.8306(2) 0.8741(5)
C54_8 C 0.9651(2) 0.8510(2) 0.8540(6)
C55_8 C 0.9515(3) 0.8713(3) 0.8607(7)
C56_8 C 0.9788(2) 0.9208(2) 0.7228(5)
C57_8 C 0.9940(2) 0.90900(19) 0.6912(5)
C61_8 C 0.9483(2) 0.8484(3) 0.9875(5)
C62_8 C 0.9378(2) 0.8307(2) 0.9561(6)
C63_8 C 0.9430(2) 0.8230(2) 0.9058(6)
C64_8 C 0.9285(2) 0.8074(2) 0.8967(5)
C65_8 C 0.9255(3) 0.7941(3) 0.8511(5)
C66_8 C 0.8555(3) 0.7628(3) 0.8553(6)
C67_8 C 0.8436(2) 0.7722(3) 0.8986(5)
C68_8 C 0.8213(3) 0.7744(2) 0.9057(5)
C69_8 C 0.8194(2) 0.7834(2) 0.9511(6)
C70_8 C 0.7994(3) 0.7896(3) 0.9807(7)
C106_8 C 0.7316(3) 0.5557(3) 0.4149(7)
C107_8 C 0.7454(2) 0.5699(2) 0.3829(5)
C108_8 C 0.7409(2) 0.5778(2) 0.3353(5)
C109_8 C 0.7591(2) 0.5901(3) 0.3212(5)
C110_8 C 0.7638(3) 0.6020(3) 0.2754(7)
C111_8 C 0.8390(2) 0.6261(2) 0.2779(5)
C112_8 C 0.8492(2) 0.6155(2) 0.3224(5)
C113_8 C 0.87065(18) 0.6144(2) 0.3347(5)
C114_8 C 0.8713(2) 0.6025(3) 0.3789(5)
C115_8 C 0.8897(3) 0.5947(4) 0.4096(6)
C116_8 C 0.7069(3) 0.6116(3) 0.2859(7)
C117_8 C 0.7090(3) 0.5885(3) 0.2800(6)
C118_8 C 0.7225(3) 0.5738(3) 0.3029(7)
C119_8 C 0.7161(3) 0.5540(2) 0.2836(6)
C120_8 C 0.7248(3) 0.5321(3) 0.2927(6)
C122_8 C 0.88830(19) 0.9870(2) 0.3249(4)
C123_8 C 0.9031(2) 0.9728(2) 0.3472(5)
C124_8 C 0.8975(2) 0.9528(2) 0.3289(5)
C125_8 C 0.9069(2) 0.9316(2) 0.3392(5)
C136_8 C 0.9790(3) 0.5474(3) 0.1496(7)
C137_8 C 0.9906(4) 0.5568(3) 0.1039(6)
C138_8 C 0.9945(3) 0.5775(2) 0.0897(6)
C146_8 C 0.8164(3) 0.7949(3) 0.7938(6)
C147_8 C 0.8020(3) 0.7800(3) 0.8215(6)
C148_8 C 0.8042(2) 0.7699(2) 0.8691(5)
C149_8 C 0.7853(2) 0.7585(2) 0.8724(6)
C150_8 C 0.7780(2) 0.74435(19) 0.9164(5)
Ag2_8 Ag 0.964305(15) 0.968906(16) 0.50266(4)
Ag3_8 Ag 0.986921(16) 0.995441(17) 0.40188(4)
Ag4_8 Ag 0.938720(18) 0.62805(2) 0.19583(5)
Ag5_8 Ag 0.946970(18) 0.65975(2) 0.29410(5)
Ag6_8 Ag 0.989820(19) 0.64950(2) 0.21591(5)
Ag12_8 Ag 0.993270(16) 0.870910(16) 0.76915(4)
Ag14_8 Ag 0.885090(18) 0.790490(18) 0.94154(4)
Ag23_8 Ag 0.805210(18) 0.59848(2) 0.36281(5)
H4_8 H 0.9587 0.9175 0.6211
H5_8 H 0.9527 0.9241 0.5658
H6_8 H 0.9488 0.9403 0.6102
H7_8 H 0.9193 0.9544 0.4907
H8_8 H 0.9094 0.9439 0.4424
H9_8 H 0.8989 0.9647 0.4654
H12_8 H 0.9450 0.9918 0.2902
H19_8 H 0.8987 0.6000 0.1965
H20_8 H 0.8753 0.6034 0.2173
H21_8 H 0.8908 0.5870 0.2436
H22_8 H 0.9132 0.6639 0.3704
H23_8 H 0.9033 0.6442 0.3995
H24_8 H 0.8881 0.6610 0.3731
H25_8 H 0.9543 0.6815 0.3836
H26_8 H 0.9709 0.6979 0.4061
H27_8 H 0.9701 0.6742 0.4264
H34_8 H 0.9327 0.5983 0.1175
H35_8 H 0.9449 0.5761 0.1196
H36_8 H 0.9449 0.5897 0.0698
H42_8 H 0.9962 0.7191 0.4236
H61_8 H 0.9726 0.7879 0.8871
H62_8 H 0.9835 0.7870 0.8339
H63_8 H 0.9972 0.7933 0.8812
H64_8 H 0.9580 0.8830 0.8423
H65_8 H 0.9372 0.8687 0.8482
H66_8 H 0.9509 0.8750 0.8957
H67_8 H 0.9755 0.9124 0.7521
H68_8 H 0.9851 0.9343 0.7329
H69_8 H 0.9659 0.9235 0.7042
H74_8 H 0.9472 0.8619 0.9700
H75_8 H 0.9632 0.8450 0.9930
H76_8 H 0.9137 0.7843 0.8561
H77_8 H 0.9384 0.7860 0.8446
H78_8 H 0.9225 0.8032 0.8229
H79_8 H 0.8707 0.7637 0.8615
H80_8 H 0.8521 0.7707 0.8252
H81_8 H 0.8515 0.7480 0.8512
H82_8 H 0.7868 0.7860 0.9616
H83_8 H 0.7996 0.8048 0.9874
H127_8 H 0.7388 0.5530 0.4464
H128_8 H 0.7181 0.5627 0.4211
H129_8 H 0.7292 0.5423 0.3979
H130_8 H 0.7778 0.6085 0.2779
H131_8 H 0.7634 0.5923 0.2472
H132_8 H 0.7531 0.6131 0.2708
H133_8 H 0.8236 0.6246 0.2799
H134_8 H 0.8427 0.6411 0.2775
H135_8 H 0.8441 0.6194 0.2476
H136_8 H 0.8844 0.5871 0.4385
H137_8 H 0.8985 0.5852 0.3897
H138_8 H 0.8983 0.6068 0.4204
H139_8 H 0.6957 0.6168 0.2643
H140_8 H 0.7035 0.6149 0.3202
H141_8 H 0.7203 0.6184 0.2770
H142_8 H 0.7164 0.5217 0.2744
H143_8 H 0.7395 0.5315 0.2815
H144_8 H 0.7242 0.5289 0.3280
H148_8 H 0.8991 0.9207 0.3211
H149_8 H 0.9061 0.9286 0.3746
H150_8 H 0.9217 0.9315 0.3287
H163_8 H 0.9789 0.5320 0.1473
H164_8 H 0.9644 0.5526 0.1503
H165_8 H 0.9863 0.5517 0.1797
H175_8 H 0.8100 0.7986 0.7621
H176_8 H 0.8301 0.7880 0.7880
H177_8 H 0.8186 0.8078 0.8133
H178_8 H 0.7642 0.7381 0.9088
H179_8 H 0.7768 0.7530 0.9463
H180_8 H 0.7883 0.7331 0.9218
C10_8 C 0.9445(2) 0.0021(3) 0.3171(6)
C121_8 C 0.8860(2) 0.0114(3) 0.3297(6)
H10_8 H 0.9582 0.0092 0.3197
H11_8 H 0.9335 0.0126 0.3104
H145_8 H 0.8742 0.0163 0.3093
H146_8 H 0.8991 0.0182 0.3185
H147_8 H 0.8834 0.0151 0.3642
Ag29 Ag 0.02661(2) 0.03730(2) 0.01890(5)
H166_9 H 0.0256 0.0860 0.0108
N68 N 0.0465(2) 0.02220(18) 0.0712(5)
N1_9 N 0.00526(17) 0.46023(17) 0.4410(4)
N5_9 N 0.02034(18) 0.49554(18) 0.6048(4)
N6_9 N 0.03174(17) 0.48911(19) 0.5628(5)
N13_9 N 0.04234(16) 0.17446(17) 0.5307(5)
N14_9 N 0.03540(19) 0.1958(2) 0.5299(5)
N15_9 N 0.05309(17) 0.23836(18) 0.4191(4)
N16_9 N 0.06665(18) 0.23288(17) 0.3807(4)
N17_9 N 0.08824(18) 0.16968(17) 0.3754(4)
N18_9 N 0.08250(18) 0.15702(16) 0.4148(4)
N19_9 N 0.03950(17) 0.31999(17) 0.3208(4)
N20_9 N 0.03110(16) 0.30764(17) 0.2832(4)
N23_9 N 0.00154(16) 0.38930(16) 0.2926(4)
N24_9 N 0.01520(17) 0.3821(2) 0.3275(4)
N31_9 N 0.12553(18) 0.02965(18) 0.1843(4)
N32_9 N 0.11028(17) 0.03698(18) 0.2201(5)
N33_9 N 0.12424(17) 0.08739(18) 0.3124(4)
N34_9 N 0.14318(15) 0.09856(17) 0.3107(4)
N35_9 N 0.19111(16) 0.07197(18) 0.2243(4)
N36_9 N 0.18667(16) 0.05520(17) 0.1933(5)
N37_9 N 0.16619(18) 0.54219(17) 0.6527(4)
N38_9 N 0.18331(15) 0.53494(16) 0.6819(4)
N39_6 N 0.23762(16) 0.57607(17) 0.5365(4)
N40_6 N 0.22828(16) 0.59589(17) 0.5483(4)
N41_9 N 0.10371(17) 0.49609(17) 0.7046(4)
N42_9 N 0.10877(17) 0.51131(18) 0.6696(4)
N53_4 N 0.27007(18) 0.0772(2) 0.1048(5)
N54_4 N 0.25567(17) 0.0826(2) 0.0664(5)
N56_9 N 0.0101(2) 0.0538(2) 0.9642(4)
N58_6 N 0.0518(2) 0.0008(2) 0.0658(5)
C1_9 C 0.0384(2) 0.4480(2) 0.3989(5)
C2_9 C 0.0147(2) 0.4458(2) 0.4084(5)
C11_9 C 0.0258(2) 0.5083(3) 0.6905(6)
C12_9 C 0.0347(2) 0.5003(2) 0.6421(5)
C13_9 C 0.0549(2) 0.4962(2) 0.6257(5)
C14_9 C 0.0532(2) 0.4893(2) 0.5757(5)
C15_9 C 0.0700(2) 0.4816(3) 0.5407(6)
C23_9 C 0.0069(2) 0.1759(3) 0.6402(6)
C24_9 C 0.0123(2) 0.1696(2) 0.6892(6)
C25_9 C 0.0351(3) 0.1662(3) 0.7103(7)
C26_9 C 0.0224(3) 0.1173(3) 0.8577(7)
C31_9 C 0.0372(3) 0.1421(3) 0.5817(7)
C32_9 C 0.0333(2) 0.1654(2) 0.5714(6)
C33_9 C 0.0204(2) 0.1802(2) 0.5963(6)
C34_9 C 0.0219(2) 0.1988(2) 0.5691(5)
C35_9 C 0.0116(3) 0.2206(3) 0.5769(6)
C36_9 C 0.0306(3) 0.2694(3) 0.4441(7)
C37_9 C 0.0462(2) 0.2584(2) 0.4099(5)
C38_9 C 0.0542(2) 0.2660(2) 0.3648(5)
C39_9 C 0.0679(2) 0.2495(2) 0.3486(7)
C40_9 C 0.0812(3) 0.2478(3) 0.3022(7)
C41_9 C 0.1079(3) 0.1699(3) 0.2957(6)
C42_9 C 0.1013(2) 0.1593(2) 0.3442(5)
C43_9 C 0.1047(2) 0.1383(2) 0.3635(5)
C44_9 C 0.09310(18) 0.13803(19) 0.4083(5)
C45_9 C 0.0907(2) 0.1206(2) 0.4463(6)
C46_9 C 0.0596(2) 0.3162(2) 0.4004(5)
C47_9 C 0.0495(2) 0.3069(2) 0.3549(5)
C48_9 C 0.0482(2) 0.2857(2) 0.3390(6)
C49_9 C 0.0364(2) 0.2872(2) 0.2937(5)
C50_9 C 0.0299(3) 0.2688(3) 0.2592(7)
C58_9 C 0.0038(2) 0.41390(19) 0.3563(5)
C59_9 C 0.01686(18) 0.39660(19) 0.3658(4)
C60_9 C 0.0308(2) 0.3921(3) 0.4104(6)
C76_9 C 0.1265(2) 0.0110(3) 0.1018(6)
C77_9 C 0.1146(2) 0.0205(2) 0.1461(5)
C78_9 C 0.0931(2) 0.0219(2) 0.1564(6)
C79_9 C 0.0908(2) 0.0322(2) 0.2017(6)
C80_9 C 0.0716(3) 0.0380(3) 0.2327(7)
C81_9 C 0.0865(2) 0.0919(2) 0.3357(6)
C82_9 C 0.1090(2) 0.0999(2) 0.3314(5)
C83_9 C 0.1167(2) 0.1207(2) 0.3409(5)
C84_9 C 0.1385(2) 0.11919(19) 0.3273(5)
C85_9 C 0.1557(2) 0.1360(2) 0.3278(5)
C86_9 C 0.2204(2) 0.0991(3) 0.2345(7)
C87_9 C 0.2103(2) 0.0803(2) 0.2090(5)
C88_9 C 0.2182(2) 0.0687(2) 0.1663(6)
C89_9 C 0.2020(2) 0.0532(2) 0.1585(5)
C90_9 C 0.2008(3) 0.0361(3) 0.1192(6)
C91_9 C 0.1582(2) 0.5666(2) 0.5812(5)
C92_9 C 0.1738(2) 0.55631(19) 0.6183(5)
C93_9 C 0.1960(2) 0.5584(2) 0.6230(5)
C94_9 C 0.2011(2) 0.5454(2) 0.6641(5)
C95_9 C 0.2227(2) 0.5407(2) 0.6891(6)
C96_9 C 0.2318(2) 0.5379(3) 0.5552(6)
C97_9 C 0.22703(18) 0.56026(19) 0.5609(5)
C98_9 C 0.2114(2) 0.57000(19) 0.5902(5)
C99_9 C 0.2128(2) 0.5918(2) 0.5810(5)
C100_9 C 0.1998(2) 0.6105(3) 0.6009(7)
C101_9 C 0.0737(2) 0.4719(3) 0.7276(7)
C102_9 C 0.0837(2) 0.4890(2) 0.6952(6)
C103_9 C 0.07568(18) 0.4993(2) 0.6513(5)
C104_9 C 0.09217(19) 0.51324(19) 0.6384(5)
C105_9 C 0.0922(2) 0.5293(3) 0.5951(6)
C131_9 C 0.2685(2) 0.0661(2) 0.1934(6)
C132_9 C 0.25816(18) 0.07169(18) 0.1455(5)
C133_9 C 0.2365(2) 0.0725(2) 0.1341(5)
C134_9 C 0.2356(2) 0.0793(2) 0.0834(6)
C135_9 C 0.2165(2) 0.0832(3) 0.0512(6)
C139_9 C 0.0077(2) 0.0748(2) 0.9527(5)
C140_9 C 0.0174(3) 0.0923(2) 0.9840(6)
C141_9 C 0.0580(3) 0.0551(3) 0.1120(6)
C142_9 C 0.0601(3) 0.0320(3) 0.1032(6)
C143_9 C 0.0751(2) 0.0174(2) 0.1211(5)
Ag1_9 Ag 0.017481(16) 0.477201(16) 0.49987(4)
Ag7_9 Ag 0.063210(18) 0.166120(18) 0.47384(5)
Ag8_9 Ag 0.045590(17) 0.217100(18) 0.47546(4)
Ag9_9 Ag 0.078070(17) 0.201730(18) 0.37762(5)
Ag10_9 Ag 0.028440(16) 0.351350(16) 0.32287(4)
Ag11_9 Ag 0.012960(17) 0.320270(17) 0.22645(4)
Ag16_9 Ag 0.156280(16) 0.040920(17) 0.19204(4)
Ag17_9 Ag 0.119550(16) 0.060180(16) 0.26981(4)
Ag18_9 Ag 0.168190(15) 0.084830(16) 0.27147(4)
Ag19_9 Ag 0.137590(15) 0.526770(16) 0.66364(4)
Ag20_4 Ag 0.178050(16) 0.511560(16) 0.73368(4)
Ag21_4 Ag 0.127910(16) 0.487850(16) 0.75513(4)
Ag28_6 Ag 0.00379(2) 0.00936(2) 0.92559(5)
H1_9 H 0.0442 0.4590 0.4202
H2_9 H 0.0454 0.4345 0.4061
H3_9 H 0.0408 0.4518 0.3644
H13_9 H 0.0374 0.5109 0.7136
H14_9 H 0.0180 0.5214 0.6849
H15_9 H 0.0162 0.4977 0.7044
H16_9 H 0.0635 0.4783 0.5088
H17_9 H 0.0807 0.4926 0.5364
H18_9 H 0.0766 0.4689 0.5541
H28_9 H 0.0341 0.1621 0.7450
H29_9 H 0.0422 0.1550 0.6916
H30_9 H 0.0431 0.1793 0.7074
H31_9 H 0.0303 0.1061 0.8743
H32_9 H 0.0263 0.1177 0.8228
H33_9 H 0.0258 0.1309 0.8730
H37_9 H 0.0469 0.1364 0.5569
H38_9 H 0.0238 0.1344 0.5803
H39_9 H 0.0435 0.1405 0.6145
H40_9 H 0.0160 0.2302 0.5505
H41_9 H 0.0160 0.2263 0.6087
H43_9 H 0.0281 0.2605 0.4730
H44_9 H 0.0173 0.2717 0.4266
H45_9 H 0.0364 0.2830 0.4546
H46_9 H 0.0890 0.2344 0.3027
H47_9 H 0.0911 0.2596 0.3008
H48_9 H 0.0719 0.2481 0.2733
H49_9 H 0.1030 0.1846 0.2953
H50_9 H 0.1017 0.1622 0.2679
H51_9 H 0.1234 0.1696 0.2928
H52_9 H 0.0815 0.1254 0.4729
H53_9 H 0.1046 0.1170 0.4597
H54_9 H 0.0846 0.1081 0.4306
H55_9 H 0.0578 0.3316 0.4001
H56_9 H 0.0747 0.3127 0.4007
H57_9 H 0.0528 0.3103 0.4299
H58_9 H 0.0221 0.2744 0.2309
H59_9 H 0.0209 0.2589 0.2773
H60_9 H 0.0426 0.2614 0.2477
H70_9 H 0.0300 0.4040 0.4334
H71_9 H 0.0454 0.3902 0.3996
H72_9 H 0.0258 0.3792 0.4268
H91_9 H 0.1418 0.0128 0.1067
H93_9 H 0.1222 0.0182 0.0715
H94_9 H 0.0762 0.0453 0.2626
H95_9 H 0.0622 0.0472 0.2137
H96_9 H 0.0640 0.0250 0.2419
H97_9 H 0.0860 0.0770 0.3262
H98_9 H 0.0817 0.0934 0.3699
H99_9 H 0.0773 0.1002 0.3140
H100_9 H 0.1690 0.1299 0.3157
H101_9 H 0.1515 0.1478 0.3066
H102_9 H 0.1577 0.1411 0.3616
H103_9 H 0.2115 0.1035 0.2622
H104_9 H 0.2344 0.0951 0.2468
H105_9 H 0.2218 0.1108 0.2111
H106_9 H 0.1880 0.0278 0.1240
H107_9 H 0.2006 0.0427 0.0865
H108_9 H 0.2132 0.0269 0.1218
H109_9 H 0.1438 0.5618 0.5881
H110_9 H 0.1622 0.5626 0.5476
H111_9 H 0.1589 0.5820 0.5844
H112_9 H 0.2206 0.5308 0.7165
H113_9 H 0.2288 0.5538 0.7016
H114_9 H 0.2323 0.5344 0.6649
H115_9 H 0.2438 0.5362 0.5326
H116_9 H 0.2195 0.5306 0.5418
H117_9 H 0.2355 0.5319 0.5874
H118_9 H 0.2049 0.6236 0.5863
H119_9 H 0.2012 0.6111 0.6368
H120_9 H 0.1849 0.6085 0.5922
H121_9 H 0.0834 0.4685 0.7547
H122_9 H 0.0712 0.4592 0.7078
H123_9 H 0.0603 0.4771 0.7410
H124_9 H 0.1056 0.5371 0.5950
H125_9 H 0.0805 0.5393 0.5993
H126_9 H 0.0906 0.5218 0.5639
H157_9 H 0.2577 0.0626 0.2178
H158_9 H 0.2779 0.0540 0.1886
H159_9 H 0.2768 0.0782 0.2052
H160_9 H 0.2212 0.0876 0.0183
H161_9 H 0.2082 0.0702 0.0486
H162_9 H 0.2079 0.0944 0.0659
H167_9 H 0.0266 0.1010 0.9635
H168_9 H 0.0061 0.1010 0.9980
H169_9 H 0.0458 0.0605 0.0938
H170_9 H 0.0561 0.0577 0.1473
H171_9 H 0.0708 0.0623 0.1006
N61_4 N 0.17393(17) 0.48762(16) 0.7865(4)
N62_4 N 0.15411(17) 0.47828(16) 0.7983(4)
Ag31_6 Ag 0.261560(16) 0.571950(16) 0.48368(4)
Ag32_6 Ag 0.237850(16) 0.622090(16) 0.50513(4)
Ag35_4 Ag 0.265290(18) 0.101250(17) 0.00638(4)
Ag37_4 Ag 0.302490(18) 0.082330(16) 0.09418(4)
C144_9 C 0.0692(3) 0.9980(2) 0.0976(6)
C145_9 C 0.0786(3) 0.9757(3) 0.1022(7)
H92_9 H 0.1232 0.9959 0.0992
H172_9 H 0.0708 0.9660 0.0807
H173_9 H 0.0934 0.9760 0.0924
H174_9 H 0.0774 0.9709 0.1365
N70_6 N 0.0108(2) 0.9777(2) 0.9167(5)
Ag40_6 Ag 0.03695(2) 0.98284(2) 0.01199(5)
N2_9 N 0.98342(16) 0.45516(18) 0.4416(4)
N3_9 N 0.94567(18) 0.47863(17) 0.5576(4)
N4_9 N 0.95401(18) 0.49019(17) 0.5962(4)
N7_9 N 0.91473(18) 0.1307(2) 0.7507(5)
N8_9 N 0.9176(2) 0.1444(2) 0.7119(5)
N9_9 N 0.9773(2) 0.17072(19) 0.6871(5)
N10_9 N 0.9948(2) 0.1665(2) 0.7177(5)
N11_9 N 0.98483(17) 0.12738(18) 0.8420(4)
N12_9 N 0.9639(2) 0.1198(2) 0.8521(5)
N21_9 N 0.99074(16) 0.33022(16) 0.1729(4)
N22_9 N 0.98242(19) 0.35012(18) 0.1753(4)
N25_9 N 0.91996(17) 0.31993(19) 0.0272(4)
N26_9 N 0.91497(19) 0.30499(19) 0.0642(4)
N27_9 N 0.85371(19) 0.27912(17) 0.0611(4)
N28_9 N 0.83878(19) 0.28685(18) 0.0280(4)
N43_9 N 0.76534(17) 0.07584(19) 0.6031(5)
N44_9 N 0.77337(19) 0.0888(2) 0.6412(5)
N45_9 N 0.83723(19) 0.1060(2) 0.6421(5)
N46_9 N 0.8514(2) 0.0976(2) 0.6060(5)
N47_4 N 0.69450(19) 0.0784(2) 0.7507(5)
N48_4 N 0.6995(2) 0.0563(2) 0.7479(5)
N49_9 N 0.87383(18) 0.47604(17) 0.7047(4)
N50_9 N 0.87973(17) 0.45428(18) 0.6994(4)
N55_9 N 0.9999(2) 0.0414(2) 0.9282(5)
N59_9 N 0.7833(2) 0.2743(2) 0.2012(4)
N60_4 N 0.7723(2) 0.2608(2) 0.1667(5)
C3_9 C 0.99903(19) 0.4328(2) 0.3884(4)
C4_9 C 0.9803(2) 0.43821(19) 0.4096(5)
C5_9 C 0.9581(2) 0.4292(3) 0.4025(6)
C6_9 C 0.9122(2) 0.4572(2) 0.5407(5)
C7_9 C 0.9263(2) 0.4708(2) 0.5726(5)
C8_9 C 0.92170(19) 0.47880(18) 0.6217(5)
C9_9 C 0.9396(2) 0.4907(2) 0.6343(5)
C10_9 C 0.9445(2) 0.5021(3) 0.6829(6)
C16_9 C 0.8900(2) 0.1006(2) 0.7736(6)
C17_9 C 0.8980(2) 0.1180(2) 0.7400(5)
C18_9 C 0.8892(3) 0.1236(2) 0.6922(6)
C19_9 C 0.9023(2) 0.1402(3) 0.6771(6)
C20_9 C 0.9017(3) 0.1535(3) 0.6291(6)
C21_9 C 0.9686(2) 0.1831(3) 0.6029(6)
C22_9 C 0.9846(2) 0.1765(2) 0.6411(6)
C27_9 C 0.9982(2) 0.1130(3) 0.8628(5)
C28_9 C 0.9876(2) 0.0967(2) 0.8853(5)
C29_9 C 0.9660(2) 0.1022(3) 0.8768(6)
C30_9 C 0.9451(2) 0.0904(3) 0.8941(7)
C51_9 C 0.9833(2) 0.2944(3) 0.1344(6)
C52_9 C 0.9777(2) 0.3179(2) 0.1427(6)
C53_9 C 0.9611(2) 0.3306(2) 0.1259(5)
C54_9 C 0.9651(2) 0.3510(2) 0.1460(6)
C55_9 C 0.9515(3) 0.3713(3) 0.1393(7)
C56_9 C 0.9788(2) 0.4208(2) 0.2772(5)
C57_9 C 0.9940(2) 0.40900(19) 0.3088(5)
C61_9 C 0.9483(2) 0.3484(3) 0.0125(5)
C62_9 C 0.9378(2) 0.3307(2) 0.0439(6)
C63_9 C 0.9430(2) 0.3230(2) 0.0942(6)
C64_9 C 0.9285(2) 0.3074(2) 0.1033(5)
C65_9 C 0.9255(3) 0.2941(3) 0.1489(5)
C66_9 C 0.8555(3) 0.2628(3) 0.1447(6)
C67_9 C 0.8436(2) 0.2722(3) 0.1014(5)
C68_9 C 0.8213(3) 0.2744(2) 0.0943(5)
C69_9 C 0.8194(2) 0.2834(2) 0.0489(6)
C70_9 C 0.7994(3) 0.2896(3) 0.0193(7)
C106_9 C 0.7316(3) 0.0557(3) 0.5851(7)
C107_9 C 0.7454(2) 0.0699(2) 0.6171(5)
C108_9 C 0.7409(2) 0.0778(2) 0.6647(5)
C109_9 C 0.7591(2) 0.0901(3) 0.6788(5)
C110_9 C 0.7638(3) 0.1020(3) 0.7246(7)
C111_9 C 0.8390(2) 0.1261(2) 0.7221(5)
C112_9 C 0.8492(2) 0.1155(2) 0.6776(5)
C113_9 C 0.87065(18) 0.1144(2) 0.6653(5)
C114_9 C 0.8713(2) 0.1025(3) 0.6211(5)
C115_9 C 0.8897(3) 0.0947(4) 0.5904(6)
C116_9 C 0.7069(3) 0.1116(3) 0.7141(7)
C117_9 C 0.7090(3) 0.0885(3) 0.7200(6)
C118_9 C 0.7225(3) 0.0738(3) 0.6971(7)
C119_9 C 0.7161(3) 0.0540(2) 0.7164(6)
C120_9 C 0.7248(3) 0.0321(3) 0.7073(6)
C121_9 C 0.8860(2) 0.5114(3) 0.6703(6)
C122_9 C 0.88830(19) 0.4870(2) 0.6751(4)
C123_9 C 0.9031(2) 0.4728(2) 0.6528(5)
C124_9 C 0.8975(2) 0.4528(2) 0.6711(5)
C125_9 C 0.9069(2) 0.4316(2) 0.6608(5)
C136_9 C 0.9790(3) 0.0474(3) 0.8504(7)
C137_9 C 0.9906(4) 0.0568(3) 0.8961(6)
C138_9 C 0.9945(3) 0.0775(2) 0.9103(6)
C146_9 C 0.8164(3) 0.2949(3) 0.2062(6)
C147_9 C 0.8020(3) 0.2800(3) 0.1785(6)
C148_9 C 0.8042(2) 0.2699(2) 0.1309(5)
C149_9 C 0.7853(2) 0.2585(2) 0.1276(6)
C150_9 C 0.7780(2) 0.24435(19) 0.0836(5)
Ag2_9 Ag 0.964305(15) 0.468906(16) 0.49734(4)
Ag3_9 Ag 0.986921(16) 0.495441(17) 0.59812(4)
Ag4_9 Ag 0.938720(18) 0.12805(2) 0.80417(5)
Ag5_9 Ag 0.946970(18) 0.15975(2) 0.70590(5)
Ag6_9 Ag 0.989820(19) 0.14950(2) 0.78409(5)
Ag12_9 Ag 0.993270(16) 0.370910(16) 0.23085(4)
Ag14_9 Ag 0.885090(18) 0.290490(18) 0.05846(4)
Ag22_6 Ag 0.785670(19) 0.064690(19) 0.54860(5)
Ag23_9 Ag 0.805210(18) 0.09848(2) 0.63719(5)
Ag24_6 Ag 0.83978(2) 0.07679(2) 0.55263(4)
Ag25_6 Ag 0.851250(17) 0.484710(18) 0.75638(4)
Ag26 Ag 0.865130(16) 0.432410(18) 0.74691(4)
Ag30_4 Ag 0.76716(2) 0.28695(2) 0.26199(5)
H4_9 H 0.9587 0.4175 0.3789
H5_9 H 0.9527 0.4241 0.4342
H6_9 H 0.9488 0.4403 0.3898
H7_9 H 0.9193 0.4544 0.5093
H8_9 H 0.9094 0.4439 0.5576
H9_9 H 0.8989 0.4647 0.5346
H10_9 H 0.9582 0.5092 0.6803
H11_9 H 0.9335 0.5126 0.6896
H12_9 H 0.9450 0.4918 0.7098
H19_9 H 0.8987 0.1000 0.8035
H20_9 H 0.8753 0.1034 0.7827
H21_9 H 0.8908 0.0870 0.7564
H22_9 H 0.9132 0.1639 0.6296
H23_9 H 0.9033 0.1442 0.6005
H24_9 H 0.8881 0.1610 0.6269
H25_9 H 0.9543 0.1815 0.6164
H26_9 H 0.9709 0.1979 0.5939
H27_9 H 0.9701 0.1742 0.5736
H34_9 H 0.9327 0.0983 0.8825
H35_9 H 0.9449 0.0761 0.8804
H36_9 H 0.9449 0.0897 0.9302
H42_9 H 0.9962 0.2191 0.5764
H61_9 H 0.9726 0.2879 0.1129
H62_9 H 0.9835 0.2870 0.1661
H63_9 H 0.9972 0.2933 0.1188
H64_9 H 0.9580 0.3830 0.1577
H65_9 H 0.9372 0.3687 0.1518
H66_9 H 0.9509 0.3750 0.1043
H67_9 H 0.9755 0.4124 0.2479
H68_9 H 0.9851 0.4343 0.2671
H69_9 H 0.9659 0.4235 0.2958
H74_9 H 0.9472 0.3619 0.0300
H75_9 H 0.9632 0.3450 0.0070
H76_9 H 0.9137 0.2843 0.1439
H77_9 H 0.9384 0.2860 0.1554
H78_9 H 0.9225 0.3032 0.1771
H79_9 H 0.8707 0.2637 0.1385
H80_9 H 0.8521 0.2707 0.1748
H81_9 H 0.8515 0.2480 0.1488
H82_9 H 0.7868 0.2860 0.0384
H83_9 H 0.7996 0.3048 0.0126
H127_9 H 0.7388 0.0530 0.5536
H128_9 H 0.7181 0.0627 0.5789
H129_9 H 0.7292 0.0423 0.6021
H130_9 H 0.7778 0.1085 0.7221
H131_9 H 0.7634 0.0923 0.7528
H132_9 H 0.7531 0.1131 0.7292
H133_9 H 0.8236 0.1246 0.7201
H134_9 H 0.8427 0.1411 0.7225
H135_9 H 0.8441 0.1194 0.7524
H136_9 H 0.8844 0.0871 0.5615
H137_9 H 0.8985 0.0852 0.6103
H138_9 H 0.8983 0.1068 0.5796
H139_9 H 0.6957 0.1168 0.7357
H140_9 H 0.7035 0.1149 0.6798
H141_9 H 0.7203 0.1184 0.7230
H142_9 H 0.7164 0.0217 0.7256
H143_9 H 0.7395 0.0315 0.7185
H144_9 H 0.7242 0.0289 0.6720
H145_9 H 0.8742 0.5163 0.6907
H146_9 H 0.8991 0.5182 0.6815
H147_9 H 0.8834 0.5151 0.6358
H148_9 H 0.8991 0.4207 0.6789
H149_9 H 0.9061 0.4286 0.6254
H150_9 H 0.9217 0.4315 0.6713
H163_9 H 0.9789 0.0320 0.8527
H164_9 H 0.9644 0.0526 0.8497
H165_9 H 0.9863 0.0517 0.8203
H175_9 H 0.8100 0.2986 0.2379
H176_9 H 0.8301 0.2880 0.2120
H177_9 H 0.8186 0.3078 0.1867
H178_9 H 0.7642 0.2381 0.0912
H179_9 H 0.7768 0.2530 0.0537
H180_9 H 0.7883 0.2331 0.0782
N63_6 N 0.8284(2) 0.05550(19) 0.5007(5)
N64_6 N 0.8063(2) 0.0505(2) 0.4979(5)
N65 N 0.85476(17) 0.41020(18) 0.7990(4)
N67_6 N 0.8326(2) 0.49433(17) 0.8164(5)
N69_4 N 0.7492(2) 0.3018(2) 0.3158(5)
Ag33_4 Ag 0.685310(19) 0.035670(19) 0.79860(5)
Ag34_4 Ag 0.67321(2) 0.08978(2) 0.80263(4)
Ag38_4 Ag 0.74064(2) 0.25379(2) 0.17559(5)
N29_9 N 0.85714(19) 0.33055(17) 0.9165(4)
N30_9 N 0.87788(17) 0.3358(2) 0.9155(4)
N52_9 N 0.84080(15) 0.41579(17) 0.8367(4)
C71_9 C 0.8218(3) 0.3437(2) 0.8898(7)
C72_9 C 0.84522(19) 0.34552(19) 0.8938(4)
C73_9 C 0.8584(2) 0.3617(2) 0.8776(5)
C74_9 C 0.8797(2) 0.3544(2) 0.8917(5)
C75_9 C 0.9001(2) 0.3661(3) 0.8858(7)
C126_9 C 0.8774(3) 0.3797(3) 0.7705(7)
C127_9 C 0.86190(19) 0.3900(2) 0.8061(5)
C128_9 C 0.8542(2) 0.3824(2) 0.8523(5)
C129_9 C 0.84040(19) 0.3990(3) 0.8702(5)
C130_9 C 0.8264(3) 0.4006(3) 0.9171(6)
Ag13_9 Ag 0.899860(18) 0.325010(18) 0.96827(4)
Ag15_9 Ag 0.848370(18) 0.306170(17) 0.96804(4)
Ag27_6 Ag 0.832330(16) 0.447510(18) 0.84418(4)
H73_9 H 0.9410 0.3495 0.9807
H84_9 H 0.7992 0.2818 0.9881
H85_9 H 0.8172 0.3304 0.9047
H86_9 H 0.8151 0.3556 0.9071
H87_9 H 0.8177 0.3440 0.8550
H88_9 H 0.9118 0.3575 0.8984
H89_9 H 0.9025 0.3692 0.8508
H90_9 H 0.8995 0.3794 0.9043
H151_9 H 0.8798 0.3891 0.7424
H152_9 H 0.8908 0.3770 0.7874
H153_9 H 0.8715 0.3663 0.7588
H154_9 H 0.8193 0.4143 0.9178
H155_9 H 0.8158 0.3893 0.9166
H156_9 H 0.8353 0.3990 0.9465
N66_6 N 0.8272(2) 0.47993(18) 0.8548(5)
N7_10 N 0.6193(2) 0.16473(18) 0.0007(5)
N11_10 N 0.62262(18) 0.23483(17) 0.0920(4)
N12_10 N 0.6302(2) 0.2139(2) 0.1021(5)
N55_10 N 0.7086(2) 0.2499(2) 0.1782(5)
N56_10 N 0.6962(2) 0.2601(2) 0.2142(4)
C16_10 C 0.6494(2) 0.1400(2) 0.0236(6)
C26_10 C 0.6327(3) 0.2724(3) 0.1077(7)
C27_10 C 0.6370(3) 0.2482(2) 0.1128(5)
C28_10 C 0.6533(2) 0.2376(2) 0.1353(5)
C29_10 C 0.6478(3) 0.2160(2) 0.1268(6)
C30_10 C 0.6596(3) 0.1951(2) 0.1441(7)
C136_10 C 0.7026(3) 0.2290(3) 0.1004(7)
C137_10 C 0.6932(3) 0.2406(4) 0.1461(6)
C138_10 C 0.6725(2) 0.2445(3) 0.1603(6)
C139_10 C 0.6752(2) 0.2577(2) 0.2027(5)
C140_10 C 0.6577(2) 0.2674(3) 0.2340(6)
Ag4_10 Ag 0.62195(2) 0.188720(18) 0.05417(5)
Ag6_10 Ag 0.60050(2) 0.239820(19) 0.03409(5)
Ag21_5 Ag 0.262150(16) 0.377910(16) 0.00513(4)
Ag29_2 Ag 0.71270(2) 0.27661(2) 0.26890(5)
H19_10 H 0.6500 0.1487 0.0535
H20_10 H 0.6466 0.1253 0.0327
H21_10 H 0.6630 0.1408 0.0064
H31_10 H 0.6439 0.2803 0.1243
H32_10 H 0.6323 0.2763 0.0728
H33_10 H 0.6191 0.2758 0.1230
H34_10 H 0.6517 0.1827 0.1325
H35_10 H 0.6739 0.1949 0.1304
H36_10 H 0.6603 0.1949 0.1802
H121_10 H 0.2815 0.3334 0.0047
H131_10 H 0.6577 0.0134 0.0028
H135_10 H 0.6306 0.0941 0.0024
H163_10 H 0.7180 0.2289 0.1027
H164_10 H 0.6974 0.2144 0.0997
H165_10 H 0.6983 0.2363 0.0703
H166_10 H 0.6640 0.2756 0.2608
H167_10 H 0.6490 0.2766 0.2135
H168_10 H 0.6490 0.2561 0.2480
N61_5 N 0.26238(16) 0.42393(17) 0.0365(4)
N62_5 N 0.27172(16) 0.40411(17) 0.0483(4)
N65_2 N 0.33980(18) 0.10476(17) 0.0490(4)
N68_2 N 0.72780(18) 0.2965(2) 0.3212(5)
N1_10 N 0.28977(17) 0.25526(17) 0.6910(4)
N2_10 N 0.29484(18) 0.23342(16) 0.6916(4)
N3_10 N 0.27137(17) 0.19567(18) 0.8076(4)
N4_10 N 0.25981(17) 0.20401(18) 0.8462(4)
N5_10 N 0.25446(18) 0.27034(18) 0.8548(4)
N6_10 N 0.26089(19) 0.28174(17) 0.8128(5)
N8_10 N 0.6056(2) 0.1676(2) 0.9619(5)
N9_10 N 0.57928(19) 0.2273(2) 0.9371(5)
N10_10 N 0.5835(2) 0.2448(2) 0.9677(5)
N13_10 N 0.57554(17) 0.29234(16) 0.7807(5)
N14_10 N 0.5542(2) 0.28540(19) 0.7799(5)
N15_10 N 0.51164(18) 0.30309(17) 0.6691(4)
N16_10 N 0.51712(17) 0.31665(18) 0.6307(4)
N17_10 N 0.58032(17) 0.33824(18) 0.6254(4)
N18_10 N 0.59298(16) 0.33250(18) 0.6648(4)
N19_10 N 0.43001(17) 0.28950(17) 0.5708(4)
N20_10 N 0.44236(17) 0.28110(16) 0.5332(4)
N21_10 N 0.41978(16) 0.24074(16) 0.4229(4)
N22_10 N 0.39988(18) 0.23242(19) 0.4253(4)
N23_10 N 0.36070(16) 0.25154(16) 0.5426(4)
N24_10 N 0.3679(2) 0.26520(17) 0.5775(4)
N25_10 N 0.43007(19) 0.16996(17) 0.2772(4)
N26_10 N 0.44501(19) 0.16497(19) 0.3142(4)
N27_10 N 0.47088(17) 0.10371(19) 0.3111(4)
N28_10 N 0.46315(18) 0.08878(19) 0.2780(4)
N29_10 N 0.41945(17) 0.10714(19) 0.1665(4)
N30_10 N 0.4142(2) 0.12788(17) 0.1655(4)
N31_10 N 0.72035(18) 0.37553(18) 0.4343(4)
N32_10 N 0.71302(18) 0.36028(17) 0.4701(5)
N33_10 N 0.66261(18) 0.37424(17) 0.5624(4)
N34_10 N 0.65144(17) 0.39318(15) 0.5607(4)
N35_10 N 0.67803(18) 0.44111(16) 0.4743(4)
N36_10 N 0.69480(17) 0.43667(16) 0.4433(5)
N37_10 N 0.20781(17) 0.41619(18) 0.9027(4)
N38_10 N 0.21506(16) 0.43331(15) 0.9319(4)
N41_10 N 0.25391(17) 0.35371(17) 0.9546(4)
N42_10 N 0.23869(18) 0.35877(17) 0.9196(4)
N43_10 N 0.67416(19) 0.01534(17) 0.8531(5)
N44_10 N 0.6612(2) 0.02337(19) 0.8912(5)
N45_10 N 0.6440(2) 0.08723(19) 0.8921(5)
N46_10 N 0.6524(2) 0.1014(2) 0.8560(5)
N49_10 N 0.27396(17) 0.12383(18) 0.9547(4)
N50_10 N 0.29572(18) 0.12973(17) 0.9494(4)
N52_10 N 0.33421(17) 0.09080(15) 0.0867(4)
N53_5 N 0.6728(2) 0.52007(18) 0.3548(5)
N54_5 N 0.6674(2) 0.50567(17) 0.3164(5)
N59_10 N 0.4757(2) 0.0333(2) 0.4512(4)
N60_5 N 0.4892(2) 0.0223(2) 0.4167(5)
C1_10 C 0.3020(2) 0.2884(2) 0.6489(5)
C2_10 C 0.3042(2) 0.2647(2) 0.6584(5)
C3_10 C 0.3172(2) 0.24903(19) 0.6384(4)
C4_10 C 0.31179(19) 0.2303(2) 0.6596(5)
C5_10 C 0.3208(3) 0.2081(2) 0.6525(6)
C6_10 C 0.2928(2) 0.1622(2) 0.7907(5)
C7_10 C 0.2792(2) 0.1763(2) 0.8226(5)
C8_10 C 0.27120(18) 0.17170(19) 0.8717(5)
C9_10 C 0.2593(2) 0.1896(2) 0.8843(5)
C10_10 C 0.2479(3) 0.1945(2) 0.9329(6)
C11_10 C 0.2417(3) 0.2758(2) 0.9405(6)
C12_10 C 0.2497(2) 0.2847(2) 0.8921(5)
C13_10 C 0.2538(2) 0.3049(2) 0.8757(5)
C14_10 C 0.2607(2) 0.3032(2) 0.8257(5)
C15_10 C 0.2684(3) 0.3200(2) 0.7907(6)
C17_10 C 0.6320(2) 0.1480(2) 0.9900(5)
C18_10 C 0.6264(2) 0.1392(3) 0.9422(6)
C19_10 C 0.6098(3) 0.1523(2) 0.9271(6)
C20_10 C 0.5965(3) 0.1517(3) 0.8791(6)
C21_10 C 0.5669(3) 0.2186(2) 0.8529(6)
C22_10 C 0.5735(2) 0.2346(2) 0.8911(6)
C23_10 C 0.5741(3) 0.2569(2) 0.8902(6)
C24_10 C 0.5804(2) 0.2623(2) 0.9392(6)
C25_10 C 0.5838(3) 0.2851(3) 0.9603(7)
C31_10 C 0.6079(3) 0.2872(3) 0.8317(7)
C32_10 C 0.5846(2) 0.2833(2) 0.8214(6)
C33_10 C 0.5698(2) 0.2704(2) 0.8463(6)
C34_10 C 0.5512(2) 0.2719(2) 0.8191(5)
C35_10 C 0.5294(3) 0.2616(3) 0.8269(6)
C36_10 C 0.4806(3) 0.2806(3) 0.6941(7)
C37_10 C 0.4916(2) 0.2962(2) 0.6599(5)
C38_10 C 0.4840(2) 0.3042(2) 0.6148(5)
C39_10 C 0.5005(2) 0.3179(2) 0.5986(7)
C40_10 C 0.5022(3) 0.3312(3) 0.5522(7)
C41_10 C 0.5801(3) 0.3579(3) 0.5457(6)
C42_10 C 0.5907(2) 0.3513(2) 0.5942(5)
C43_10 C 0.6117(2) 0.3547(2) 0.6135(5)
C44_10 C 0.61197(19) 0.34310(18) 0.6583(5)
C45_10 C 0.6294(2) 0.3407(2) 0.6963(6)
C46_10 C 0.4338(2) 0.3096(2) 0.6504(5)
C47_10 C 0.4431(2) 0.2995(2) 0.6049(5)
C48_10 C 0.4643(2) 0.2982(2) 0.5890(6)
C49_10 C 0.4628(2) 0.2864(2) 0.5437(5)
C50_10 C 0.4812(3) 0.2799(3) 0.5092(7)
C51_10 C 0.4556(3) 0.2333(2) 0.3844(6)
C52_10 C 0.4321(2) 0.2277(2) 0.3927(6)
C53_10 C 0.4194(2) 0.2111(2) 0.3759(5)
C54_10 C 0.3990(2) 0.2151(2) 0.3960(6)
C55_10 C 0.3787(3) 0.2015(3) 0.3893(7)
C56_10 C 0.3292(2) 0.2288(2) 0.5272(5)
C57_10 C 0.34100(19) 0.2440(2) 0.5588(5)
C58_10 C 0.33610(19) 0.2538(2) 0.6063(5)
C59_10 C 0.35340(19) 0.26686(18) 0.6158(4)
C60_10 C 0.3579(3) 0.2808(2) 0.6604(6)
C61_10 C 0.4016(3) 0.1983(2) 0.2625(5)
C62_10 C 0.4193(2) 0.1878(2) 0.2939(6)
C63_10 C 0.4270(2) 0.1930(2) 0.3442(6)
C64_10 C 0.4426(2) 0.1785(2) 0.3533(5)
C65_10 C 0.4559(3) 0.1755(3) 0.3989(5)
C66_10 C 0.4872(3) 0.1055(3) 0.3947(6)
C67_10 C 0.4778(3) 0.0936(2) 0.3514(5)
C68_10 C 0.4756(2) 0.0713(3) 0.3443(5)
C69_10 C 0.4666(2) 0.0694(2) 0.2989(6)
C70_10 C 0.4604(3) 0.0494(3) 0.2693(7)
C71_10 C 0.4063(2) 0.0718(3) 0.1398(7)
C72_10 C 0.40448(19) 0.09522(19) 0.1438(4)
C73_10 C 0.3883(2) 0.1084(2) 0.1276(5)
C74_10 C 0.3956(2) 0.1297(2) 0.1417(5)
C75_10 C 0.3839(3) 0.1501(2) 0.1358(7)
C76_10 C 0.7390(3) 0.3765(2) 0.3518(6)
C77_10 C 0.7295(2) 0.3646(2) 0.3961(5)
C78_10 C 0.7281(2) 0.3431(2) 0.4064(6)
C79_10 C 0.7178(2) 0.3408(2) 0.4517(6)
C80_10 C 0.7120(3) 0.3216(3) 0.4827(7)
C81_10 C 0.6581(2) 0.3365(2) 0.5857(6)
C82_10 C 0.6501(2) 0.3590(2) 0.5814(5)
C83_10 C 0.6293(2) 0.3667(2) 0.5909(5)
C84_10 C 0.63081(19) 0.3885(2) 0.5773(5)
C85_10 C 0.6140(2) 0.4057(2) 0.5778(5)
C86_10 C 0.6509(3) 0.4704(2) 0.4845(7)
C87_10 C 0.6697(2) 0.4603(2) 0.4590(5)
C88_10 C 0.6813(2) 0.4682(2) 0.4163(6)
C89_10 C 0.6968(2) 0.4520(2) 0.4085(5)
C90_10 C 0.7139(3) 0.4508(3) 0.3692(6)
C91_10 C 0.1834(2) 0.4082(2) 0.8312(5)
C92_10 C 0.19369(19) 0.4238(2) 0.8683(5)
C93_10 C 0.1916(2) 0.4460(2) 0.8730(5)
C94_10 C 0.2046(2) 0.4511(2) 0.9141(5)
C95_10 C 0.2093(2) 0.4727(2) 0.9391(6)
C96_10 C 0.2121(3) 0.4818(2) 0.8052(6)
C97_10 C 0.18974(19) 0.47703(18) 0.8109(5)
C98_10 C 0.18000(19) 0.4614(2) 0.8402(5)
C99_10 C 0.1582(2) 0.4628(2) 0.8310(5)
C100_10 C 0.1395(3) 0.4498(2) 0.8509(7)
C101_10 C 0.2781(3) 0.3237(2) 0.9776(7)
C102_10 C 0.2610(2) 0.3337(2) 0.9452(6)
C103_10 C 0.2507(2) 0.32568(18) 0.9013(5)
C104_10 C 0.23676(19) 0.34217(19) 0.8884(5)
C105_10 C 0.2207(3) 0.3422(2) 0.8451(6)
C109_10 C 0.6599(3) 0.0091(2) 0.9288(5)
C110_10 C 0.6480(3) 0.0138(3) 0.9746(7)
C111_10 C 0.6239(2) 0.0890(2) 0.9721(5)
C112_10 C 0.6345(2) 0.0992(2) 0.9276(5)
C113_10 C 0.6356(2) 0.12065(18) 0.9153(5)
C114_10 C 0.6475(3) 0.1213(2) 0.8711(5)
C115_10 C 0.6553(4) 0.1397(3) 0.8404(6)
C121_10 C 0.2386(3) 0.1360(2) 0.9203(6)
C122_10 C 0.2630(2) 0.13830(19) 0.9251(4)
C123_10 C 0.2772(2) 0.1531(2) 0.9028(5)
C124_10 C 0.2972(2) 0.1475(2) 0.9211(5)
C125_10 C 0.3184(2) 0.1569(2) 0.9108(5)
C126_10 C 0.3703(3) 0.1274(3) 0.0205(7)
C127_10 C 0.3600(2) 0.11190(19) 0.0561(5)
C128_10 C 0.3676(2) 0.1042(2) 0.1023(5)
C129_10 C 0.3510(3) 0.09040(19) 0.1202(5)
C130_10 C 0.3494(3) 0.0764(3) 0.1671(6)
C131_10 C 0.6839(2) 0.5185(2) 0.4434(6)
C132_10 C 0.67831(18) 0.50816(18) 0.3955(5)
C133_10 C 0.6775(2) 0.4865(2) 0.3841(5)
C134_10 C 0.6707(2) 0.4856(2) 0.3334(6)
C135_10 C 0.6668(3) 0.4665(2) 0.3012(6)
C141_10 C 0.6949(3) 0.3080(3) 0.3620(6)
C142_10 C 0.7180(3) 0.3101(3) 0.3532(6)
C143_10 C 0.7326(2) 0.3251(2) 0.3711(5)
C144_10 C 0.7520(2) 0.3192(3) 0.3476(6)
C145_10 C 0.7743(3) 0.3286(3) 0.3522(7)
C146_10 C 0.4551(3) 0.0664(3) 0.4562(6)
C147_10 C 0.4700(3) 0.0520(3) 0.4285(6)
C148_10 C 0.4801(2) 0.0542(2) 0.3809(5)
C149_10 C 0.4915(2) 0.0353(2) 0.3776(6)
C150_10 C 0.50565(19) 0.0280(2) 0.3336(5)
Ag1_10 Ag 0.272799(16) 0.267481(16) 0.74987(4)
Ag2_10 Ag 0.281094(16) 0.214305(15) 0.74734(4)
Ag3_10 Ag 0.254559(17) 0.236921(16) 0.84812(4)
Ag5_10 Ag 0.59025(2) 0.196970(18) 0.95590(5)
Ag7_10 Ag 0.583880(18) 0.313210(18) 0.72384(5)
Ag8_10 Ag 0.532900(18) 0.295590(17) 0.72546(4)
Ag9_10 Ag 0.548270(18) 0.328070(17) 0.62762(5)
Ag10_10 Ag 0.398650(16) 0.278440(16) 0.57287(4)
Ag11_10 Ag 0.429730(17) 0.262960(17) 0.47645(4)
Ag12_10 Ag 0.379090(16) 0.243270(16) 0.48085(4)
Ag13_10 Ag 0.424990(18) 0.149860(18) 0.21827(4)
Ag14_10 Ag 0.459510(18) 0.135090(18) 0.30846(4)
Ag15_10 Ag 0.443830(17) 0.098370(18) 0.21804(4)
Ag16_10 Ag 0.709080(17) 0.406280(16) 0.44204(4)
Ag17_10 Ag 0.689820(16) 0.369550(16) 0.51981(4)
Ag18_10 Ag 0.665170(16) 0.418190(15) 0.52147(4)
Ag19_10 Ag 0.223230(16) 0.387590(15) 0.91364(4)
Ag20_5 Ag 0.238440(16) 0.428050(16) 0.98368(4)
Ag23_10 Ag 0.65152(2) 0.055210(18) 0.88719(5)
Ag26_2 Ag 0.317590(18) 0.115130(16) 0.99691(4)
Ag30_5 Ag 0.46305(2) 0.01716(2) 0.51199(5)
H1_10 H 0.2910 0.2942 0.6702
H2_10 H 0.3155 0.2954 0.6561
H3_10 H 0.2982 0.2908 0.6144
H4_10 H 0.3325 0.2087 0.6289
H5_10 H 0.3259 0.2027 0.6842
H6_10 H 0.3097 0.1988 0.6398
H7_10 H 0.2956 0.1693 0.7593
H8_10 H 0.3061 0.1594 0.8076
H9_10 H 0.2853 0.1489 0.7846
H10_10 H 0.2408 0.2082 0.9303
H11_10 H 0.2374 0.1835 0.9396
H12_10 H 0.2582 0.1950 0.9598
H13_10 H 0.2391 0.2874 0.9636
H14_10 H 0.2286 0.2680 0.9349
H15_10 H 0.2523 0.2662 0.9544
H16_10 H 0.2717 0.3135 0.7588
H17_10 H 0.2574 0.3307 0.7864
H18_10 H 0.2811 0.3266 0.8041
H22_10 H 0.5861 0.1632 0.8796
H23_10 H 0.6058 0.1533 0.8505
H24_10 H 0.5890 0.1381 0.8769
H25_10 H 0.5685 0.2043 0.8664
H26_10 H 0.5521 0.2209 0.8439
H27_10 H 0.5758 0.2201 0.8236
H28_10 H 0.5879 0.2841 0.9950
H29_10 H 0.5950 0.2922 0.9416
H30_10 H 0.5707 0.2931 0.9574
H37_10 H 0.6136 0.2969 0.8069
H38_10 H 0.6156 0.2738 0.8303
H39_10 H 0.6095 0.2935 0.8645
H40_10 H 0.5198 0.2660 0.8005
H41_10 H 0.5237 0.2660 0.8587
H42_10 H 0.5309 0.2462 0.8264
H43_10 H 0.4895 0.2781 0.7230
H44_10 H 0.4783 0.2673 0.6766
H45_10 H 0.4670 0.2864 0.7046
H46_10 H 0.5156 0.3390 0.5527
H47_10 H 0.4904 0.3411 0.5508
H48_10 H 0.5019 0.3219 0.5233
H49_10 H 0.5654 0.3530 0.5453
H50_10 H 0.5878 0.3517 0.5179
H51_10 H 0.5804 0.3734 0.5428
H52_10 H 0.6246 0.3315 0.7229
H53_10 H 0.6330 0.3546 0.7097
H54_10 H 0.6419 0.3346 0.6806
H55_10 H 0.4184 0.3078 0.6501
H56_10 H 0.4373 0.3247 0.6507
H57_10 H 0.4397 0.3028 0.6799
H58_10 H 0.4756 0.2721 0.4809
H59_10 H 0.4911 0.2709 0.5273
H60_10 H 0.4886 0.2926 0.4977
H61_10 H 0.4621 0.2226 0.3629
H62_10 H 0.4630 0.2335 0.4161
H63_10 H 0.4567 0.2472 0.3688
H64_10 H 0.3670 0.2080 0.4077
H65_10 H 0.3813 0.1872 0.4018
H66_10 H 0.3750 0.2009 0.3543
H67_10 H 0.3376 0.2255 0.4979
H68_10 H 0.3157 0.2351 0.5171
H69_10 H 0.3265 0.2159 0.5458
H70_10 H 0.3460 0.2800 0.6834
H71_10 H 0.3598 0.2954 0.6496
H72_10 H 0.3708 0.2758 0.6768
H73_10 H 0.4005 0.1910 0.2307
H74_10 H 0.3881 0.1972 0.2800
H75_10 H 0.4050 0.2132 0.2570
H76_10 H 0.4657 0.1637 0.3939
H77_10 H 0.4640 0.1884 0.4054
H78_10 H 0.4468 0.1725 0.4271
H79_10 H 0.4863 0.1207 0.3885
H80_10 H 0.4793 0.1021 0.4248
H81_10 H 0.5020 0.1015 0.3988
H82_10 H 0.4640 0.0368 0.2884
H83_10 H 0.4452 0.0496 0.2626
H84_10 H 0.4682 0.0492 0.2381
H85_10 H 0.4196 0.0672 0.1547
H86_10 H 0.3944 0.0651 0.1571
H87_10 H 0.4060 0.0677 0.1050
H88_10 H 0.3925 0.1618 0.1484
H89_10 H 0.3808 0.1525 0.1008
H90_10 H 0.3706 0.1495 0.1543
H91_10 H 0.7372 0.3918 0.3567
H92_10 H 0.7541 0.3732 0.3492
H93_10 H 0.7318 0.3722 0.3215
H94_10 H 0.7047 0.3262 0.5126
H95_10 H 0.7028 0.3122 0.4637
H96_10 H 0.7250 0.3140 0.4919
H97_10 H 0.6730 0.3360 0.5762
H98_10 H 0.6566 0.3317 0.6199
H99_10 H 0.6498 0.3273 0.5640
H100_10 H 0.6201 0.4190 0.5657
H101_10 H 0.6022 0.4015 0.5566
H102_10 H 0.6089 0.4077 0.6116
H103_10 H 0.6465 0.4615 0.5122
H104_10 H 0.6549 0.4844 0.4968
H105_10 H 0.6392 0.4718 0.4611
H106_10 H 0.7222 0.4380 0.3740
H107_10 H 0.7073 0.4506 0.3365
H108_10 H 0.7231 0.4632 0.3718
H109_10 H 0.1882 0.3938 0.8381
H110_10 H 0.1874 0.4122 0.7976
H111_10 H 0.1680 0.4089 0.8344
H112_10 H 0.2192 0.4706 0.9665
H113_10 H 0.1962 0.4788 0.9516
H114_10 H 0.2156 0.4823 0.9149
H115_10 H 0.2138 0.4938 0.7826
H116_10 H 0.2194 0.4695 0.7918
H117_10 H 0.2181 0.4855 0.8374
H118_10 H 0.1264 0.4549 0.8363
H119_10 H 0.1389 0.4512 0.8868
H120_10 H 0.1415 0.4349 0.8422
H122_10 H 0.2908 0.3212 0.9578
H123_10 H 0.2729 0.3103 0.9910
H124_10 H 0.2129 0.3556 0.8450
H125_10 H 0.2107 0.3305 0.8493
H126_10 H 0.2282 0.3406 0.8139
H130_10 H 0.6415 0.0278 0.9721
H132_10 H 0.6369 0.0031 0.9792
H133_10 H 0.6254 0.0736 0.9701
H134_10 H 0.6089 0.0927 0.9725
H136_10 H 0.6629 0.1344 0.8115
H137_10 H 0.6648 0.1485 0.8603
H138_10 H 0.6432 0.1483 0.8296
H145_10 H 0.2337 0.1242 0.9407
H146_10 H 0.2318 0.1491 0.9315
H147_10 H 0.2349 0.1334 0.8858
H148_10 H 0.3293 0.1491 0.9289
H149_10 H 0.3214 0.1561 0.8754
H150_10 H 0.3185 0.1717 0.9213
H152_10 H 0.3730 0.1408 0.0374
H153_10 H 0.3837 0.1215 0.0088
H154_10 H 0.3357 0.0693 0.1678
H155_10 H 0.3607 0.0658 0.1666
H156_10 H 0.3510 0.0853 0.1965
H157_10 H 0.6874 0.5077 0.4678
H158_10 H 0.6960 0.5279 0.4386
H159_10 H 0.6718 0.5268 0.4552
H160_10 H 0.6624 0.4712 0.2683
H161_10 H 0.6798 0.4582 0.2986
H162_10 H 0.6556 0.4579 0.3159
H169_10 H 0.6895 0.2958 0.3438
H170_10 H 0.6923 0.3061 0.3973
H171_10 H 0.6877 0.3208 0.3506
H172_10 H 0.7840 0.3208 0.3307
H173_10 H 0.7740 0.3434 0.3424
H174_10 H 0.7791 0.3274 0.3865
H175_10 H 0.4514 0.0600 0.4879
H176_10 H 0.4620 0.0801 0.4620
H177_10 H 0.4422 0.0686 0.4367
H178_10 H 0.5119 0.0142 0.3412
H179_10 H 0.4970 0.0268 0.3037
H180_10 H 0.5169 0.0383 0.3282
Ag35_5 Ag 0.648750(17) 0.515290(18) 0.25638(4)
Ag37_5 Ag 0.667670(16) 0.552490(18) 0.34418(4)
H151_10 H 0.3609 0.1298 0.9924
N47_5 N 0.6716(2) 0.94450(19) 0.0007(5)
Ag33_5 Ag 0.714330(19) 0.935310(19) 0.04860(5)
Ag34_5 Ag 0.66022(2) 0.92321(2) 0.05263(4)
N48_5 N 0.6937(2) 0.9495(2) 0.9979(5)
C106_10 C 0.6943(3) 0.9816(3) 0.8351(7)
C107_10 C 0.6801(2) 0.9954(2) 0.8671(5)
C108_10 C 0.6722(2) 0.9909(2) 0.9147(5)
C116_10 C 0.6384(3) 0.9569(3) 0.9641(7)
C117_10 C 0.6615(3) 0.9590(3) 0.9700(6)
C118_10 C 0.6762(3) 0.9725(3) 0.9471(7)
C119_10 C 0.6960(2) 0.9661(3) 0.9664(6)
C120_10 C 0.7179(3) 0.9748(3) 0.9573(6)
H127_10 H 0.6970 0.9888 0.8036
H128_10 H 0.6873 0.9681 0.8289
H129_10 H 0.7077 0.9792 0.8521
H139_10 H 0.6332 0.9457 0.9857
H140_10 H 0.6351 0.9535 0.9298
H141_10 H 0.6316 0.9703 0.9730
H142_10 H 0.7283 0.9664 0.9756
H143_10 H 0.7185 0.9895 0.9685
H144_10 H 0.7211 0.9742 0.9220
N69_5 N 0.4482(2) 0.9992(2) 0.5658(5)
Ag38_5 Ag 0.49621(2) 0.99064(2) 0.42559(5)
N1_11 N 0.21023(17) 0.74474(17) 0.1910(4)
N2_11 N 0.20516(18) 0.76658(16) 0.1916(4)
N3_11 N 0.22863(17) 0.80433(18) 0.3076(4)
N4_11 N 0.24019(17) 0.79599(18) 0.3462(4)
N5_11 N 0.24554(18) 0.72966(18) 0.3548(4)
N6_11 N 0.23911(19) 0.71826(17) 0.3128(5)
N19_11 N 0.06999(17) 0.71050(17) 0.0708(4)
N20_11 N 0.05764(17) 0.71890(16) 0.0332(4)
N23_11 N 0.13930(16) 0.74846(16) 0.0426(4)
N24_11 N 0.1321(2) 0.73480(17) 0.0775(4)
N37_11 N 0.29219(17) 0.58381(18) 0.4027(4)
N38_11 N 0.28494(16) 0.56669(15) 0.4319(4)
N39_7 N 0.32607(17) 0.51238(16) 0.2865(4)
N40_7 N 0.34589(17) 0.52172(16) 0.2983(4)
N41_11 N 0.24609(17) 0.64629(17) 0.4546(4)
N42_11 N 0.26131(18) 0.64123(17) 0.4196(4)
N49_11 N 0.22604(17) 0.87617(18) 0.4547(4)
N50_11 N 0.20428(18) 0.87027(17) 0.4494(4)
C1_11 C 0.1980(2) 0.7116(2) 0.1489(5)
C2_11 C 0.1958(2) 0.7353(2) 0.1584(5)
C3_11 C 0.1828(2) 0.75097(19) 0.1384(4)
C4_11 C 0.18821(19) 0.7697(2) 0.1596(5)
C5_11 C 0.1792(3) 0.7919(2) 0.1525(6)
C6_11 C 0.2072(2) 0.8378(2) 0.2907(5)
C7_11 C 0.2208(2) 0.8237(2) 0.3226(5)
C8_11 C 0.22880(18) 0.82830(19) 0.3717(5)
C9_11 C 0.2407(2) 0.8104(2) 0.3843(5)
C10_11 C 0.2521(3) 0.8055(2) 0.4329(6)
C11_11 C 0.2583(3) 0.7242(2) 0.4405(6)
C12_11 C 0.2503(2) 0.7153(2) 0.3921(5)
C13_11 C 0.2462(2) 0.6951(2) 0.3757(5)
C14_11 C 0.2393(2) 0.6968(2) 0.3257(5)
C15_11 C 0.2316(3) 0.6800(2) 0.2907(6)
C36_11 C 0.0194(3) 0.7194(3) 0.1941(7)
C37_11 C 0.0084(2) 0.7038(2) 0.1599(5)
C38_11 C 0.0160(2) 0.6958(2) 0.1148(5)
C46_11 C 0.0662(2) 0.6904(2) 0.1504(5)
C47_11 C 0.0569(2) 0.7005(2) 0.1049(5)
C48_11 C 0.0357(2) 0.7018(2) 0.0890(6)
C49_11 C 0.0372(2) 0.7136(2) 0.0437(5)
C50_11 C 0.0188(3) 0.7201(3) 0.0092(7)
C56_11 C 0.1708(2) 0.7712(2) 0.0272(5)
C57_11 C 0.15900(19) 0.7560(2) 0.0588(5)
C58_11 C 0.16390(19) 0.7462(2) 0.1063(5)
C59_11 C 0.14660(19) 0.73314(18) 0.1158(4)
C60_11 C 0.1421(3) 0.7192(2) 0.1604(6)
C91_11 C 0.3166(2) 0.5918(2) 0.3312(5)
C92_11 C 0.30631(19) 0.5762(2) 0.3683(5)
C93_11 C 0.3084(2) 0.5540(2) 0.3730(5)
C94_11 C 0.2954(2) 0.5489(2) 0.4141(5)
C95_11 C 0.2907(2) 0.5273(2) 0.4391(6)
C96_11 C 0.2879(3) 0.5182(2) 0.3052(6)
C97_11 C 0.31026(19) 0.52297(18) 0.3109(5)
C98_11 C 0.32000(19) 0.5386(2) 0.3402(5)
C99_11 C 0.3418(2) 0.5372(2) 0.3310(5)
C100_11 C 0.3605(3) 0.5502(2) 0.3509(7)
C101_11 C 0.2219(3) 0.6763(2) 0.4776(7)
C102_11 C 0.2390(2) 0.6663(2) 0.4452(6)
C103_11 C 0.2493(2) 0.67432(18) 0.4013(5)
C104_11 C 0.26324(19) 0.65783(19) 0.3884(5)
C105_11 C 0.2793(3) 0.6578(2) 0.3451(6)
C121_11 C 0.2614(3) 0.8640(2) 0.4203(6)
C122_11 C 0.2370(2) 0.86170(19) 0.4251(4)
C123_11 C 0.2228(2) 0.8469(2) 0.4028(5)
C124_11 C 0.2028(2) 0.8525(2) 0.4211(5)
C125_11 C 0.1816(2) 0.8431(2) 0.4108(5)
Ag1_11 Ag 0.227201(16) 0.732519(16) 0.24987(4)
Ag2_11 Ag 0.218906(16) 0.785695(15) 0.24734(4)
Ag3_11 Ag 0.245441(17) 0.763079(16) 0.34812(4)
Ag10_11 Ag 0.101350(16) 0.721560(16) 0.07287(4)
Ag19_11 Ag 0.276770(16) 0.612410(15) 0.41364(4)
Ag25_7 Ag 0.234710(18) 0.898750(17) 0.50638(4)
Ag26_3 Ag 0.182410(18) 0.884870(16) 0.49691(4)
H1_11 H 0.2090 0.7058 0.1702
H2_11 H 0.1845 0.7046 0.1561
H3_11 H 0.2018 0.7092 0.1144
H4_11 H 0.1675 0.7913 0.1289
H5_11 H 0.1741 0.7973 0.1842
H6_11 H 0.1903 0.8012 0.1398
H7_11 H 0.2044 0.8307 0.2593
H8_11 H 0.1939 0.8406 0.3076
H9_11 H 0.2147 0.8511 0.2846
H10_11 H 0.2592 0.7918 0.4303
H11_11 H 0.2626 0.8165 0.4396
H12_11 H 0.2418 0.8050 0.4598
H13_11 H 0.2609 0.7126 0.4636
H14_11 H 0.2714 0.7320 0.4349
H15_11 H 0.2477 0.7338 0.4544
H16_11 H 0.2283 0.6865 0.2588
H17_11 H 0.2426 0.6693 0.2864
H18_11 H 0.2189 0.6734 0.3041
H43_11 H 0.0105 0.7219 0.2230
H44_11 H 0.0217 0.7327 0.1766
H45_11 H 0.0330 0.7136 0.2046
H47_11 H 0.0096 0.6589 0.0508
H55_11 H 0.0816 0.6922 0.1501
H56_11 H 0.0627 0.6753 0.1507
H57_11 H 0.0603 0.6972 0.1799
H59_11 H 0.0089 0.7291 0.0273
H68_11 H 0.1843 0.7649 0.0171
H69_11 H 0.1735 0.7841 0.0458
H70_11 H 0.1540 0.7200 0.1834
H71_11 H 0.1402 0.7046 0.1496
H72_11 H 0.1292 0.7242 0.1768
H109_11 H 0.3118 0.6062 0.3381
H110_11 H 0.3126 0.5878 0.2976
H111_11 H 0.3320 0.5911 0.3344
H112_11 H 0.2808 0.5294 0.4665
H113_11 H 0.3038 0.5212 0.4516
H114_11 H 0.2844 0.5177 0.4149
H115_11 H 0.2862 0.5062 0.2826
H116_11 H 0.2806 0.5305 0.2918
H117_11 H 0.2819 0.5145 0.3374
H118_11 H 0.3736 0.5451 0.3363
H119_11 H 0.3611 0.5488 0.3868
H120_11 H 0.3585 0.5651 0.3422
H121_11 H 0.2185 0.6666 0.5047
H122_11 H 0.2092 0.6788 0.4578
H123_11 H 0.2271 0.6897 0.4910
H124_11 H 0.2871 0.6444 0.3450
H125_11 H 0.2893 0.6695 0.3493
H126_11 H 0.2718 0.6594 0.3139
H145_11 H 0.2663 0.8758 0.4407
H146_11 H 0.2682 0.8509 0.4315
H147_11 H 0.2651 0.8666 0.3858
H148_11 H 0.1707 0.8509 0.4289
H149_11 H 0.1786 0.8439 0.3754
H150_11 H 0.1815 0.8283 0.4213
N65_3 N 0.16020(18) 0.89524(17) 0.5490(4)
N67_7 N 0.24433(17) 0.9174(2) 0.5664(5)
Ag31_7 Ag 0.321950(16) 0.488440(16) 0.23368(4)
Ag32_7 Ag 0.372090(16) 0.512150(16) 0.25513(4)
N21_11 N 0.08022(16) 0.75926(16) 0.9229(4)
N22_11 N 0.10012(18) 0.76758(19) 0.9253(4)
N25_11 N 0.06993(19) 0.83004(17) 0.7772(4)
N26_11 N 0.05499(19) 0.83503(19) 0.8142(4)
N27_11 N 0.02912(17) 0.89629(19) 0.8111(4)
N28_11 N 0.03685(18) 0.91122(19) 0.7780(4)
N29_11 N 0.08055(17) 0.89286(19) 0.6665(4)
N30_11 N 0.0858(2) 0.87212(17) 0.6655(4)
N52_11 N 0.16579(17) 0.90920(15) 0.5867(4)
N59_11 N 0.0243(2) 0.9667(2) 0.9512(4)
C51_11 C 0.0444(3) 0.7667(2) 0.8844(6)
C52_11 C 0.0679(2) 0.7723(2) 0.8927(6)
C53_11 C 0.0806(2) 0.7889(2) 0.8759(5)
C54_11 C 0.1010(2) 0.7849(2) 0.8960(6)
C55_11 C 0.1213(3) 0.7985(3) 0.8893(7)
C61_11 C 0.0984(3) 0.8017(2) 0.7625(5)
C62_11 C 0.0807(2) 0.8122(2) 0.7939(6)
C63_11 C 0.0730(2) 0.8070(2) 0.8442(6)
C64_11 C 0.0574(2) 0.8215(2) 0.8533(5)
C65_11 C 0.0441(3) 0.8245(3) 0.8989(5)
C66_11 C 0.0128(3) 0.8945(3) 0.8947(6)
C67_11 C 0.0222(3) 0.9064(2) 0.8514(5)
C68_11 C 0.0244(2) 0.9287(3) 0.8443(5)
C69_11 C 0.0334(2) 0.9306(2) 0.7989(6)
C70_11 C 0.0396(3) 0.9506(3) 0.7693(7)
C71_11 C 0.0937(2) 0.9282(3) 0.6398(7)
C72_11 C 0.09552(19) 0.90478(19) 0.6438(4)
C73_11 C 0.1117(2) 0.8916(2) 0.6276(5)
C74_11 C 0.1044(2) 0.8703(2) 0.6417(5)
C75_11 C 0.1161(3) 0.8499(2) 0.6358(7)
C126_11 C 0.1297(3) 0.8726(3) 0.5205(7)
C127_11 C 0.1400(2) 0.88810(19) 0.5561(5)
C128_11 C 0.1324(2) 0.8958(2) 0.6023(5)
C129_11 C 0.1490(3) 0.90960(19) 0.6202(5)
C130_11 C 0.1506(3) 0.9236(3) 0.6671(6)
C146_11 C 0.0449(3) 0.9336(3) 0.9562(6)
C147_11 C 0.0300(3) 0.9480(3) 0.9285(6)
C148_11 C 0.0199(2) 0.9458(2) 0.8809(5)
C149_11 C 0.0085(2) 0.9647(2) 0.8776(6)
Ag11_11 Ag 0.070270(17) 0.737040(17) 0.97645(4)
Ag12_11 Ag 0.120910(16) 0.756730(16) 0.98085(4)
Ag13_11 Ag 0.075010(18) 0.850140(18) 0.71827(4)
Ag14_11 Ag 0.040490(18) 0.864910(18) 0.80846(4)
Ag15_11 Ag 0.056170(17) 0.901630(18) 0.71804(4)
Ag27_7 Ag 0.197510(18) 0.917670(16) 0.59418(4)
H58_11 H 0.0244 0.7279 0.9809
H60_11 H 0.0114 0.7074 0.9977
H61_11 H 0.0379 0.7774 0.8629
H62_11 H 0.0370 0.7665 0.9161
H63_11 H 0.0433 0.7528 0.8688
H64_11 H 0.1330 0.7920 0.9077
H65_11 H 0.1187 0.8128 0.9018
H66_11 H 0.1250 0.7991 0.8543
H67_11 H 0.1624 0.7745 0.9979
H73_11 H 0.0995 0.8090 0.7307
H74_11 H 0.1119 0.8028 0.7800
H75_11 H 0.0950 0.7868 0.7570
H76_11 H 0.0343 0.8363 0.8939
H77_11 H 0.0360 0.8116 0.9054
H78_11 H 0.0532 0.8275 0.9271
H79_11 H 0.0137 0.8793 0.8885
H80_11 H 0.0207 0.8979 0.9248
H82_11 H 0.0360 0.9632 0.7884
H83_11 H 0.0548 0.9504 0.7626
H84_11 H 0.0318 0.9508 0.7381
H85_11 H 0.0804 0.9328 0.6547
H86_11 H 0.1056 0.9349 0.6571
H87_11 H 0.0940 0.9323 0.6050
H88_11 H 0.1075 0.8382 0.6484
H89_11 H 0.1192 0.8475 0.6008
H90_11 H 0.1294 0.8505 0.6543
H151_11 H 0.1391 0.8702 0.4924
H152_11 H 0.1270 0.8592 0.5374
H153_11 H 0.1163 0.8785 0.5088
H154_11 H 0.1643 0.9307 0.6678
H155_11 H 0.1393 0.9342 0.6666
H156_11 H 0.1490 0.9147 0.6965
H175_11 H 0.0486 0.9400 0.9879
H176_11 H 0.0380 0.9199 0.9620
H177_11 H 0.0578 0.9314 0.9367
H179_11 H 0.0030 0.9732 0.8037
N66_7 N 0.22993(18) 0.9228(2) 0.6048(5)
C106_11 C 0.8057(3) 0.0184(3) 0.3351(7)
C107_11 C 0.8199(2) 0.0046(2) 0.3671(5)
C108_11 C 0.8278(2) 0.0091(2) 0.4147(5)
C116_11 C 0.8616(3) 0.0431(3) 0.4641(7)
C117_11 C 0.8385(3) 0.0410(3) 0.4700(6)
C118_11 C 0.8238(3) 0.0275(3) 0.4471(7)
C119_11 C 0.8040(2) 0.0339(3) 0.4664(6)
C120_11 C 0.7821(3) 0.0252(3) 0.4573(6)
H127_11 H 0.8030 0.0112 0.3036
H128_11 H 0.8127 0.0319 0.3289
H129_11 H 0.7923 0.0208 0.3521
H139_11 H 0.8668 0.0543 0.4857
H140_11 H 0.8649 0.0465 0.4298
H141_11 H 0.8684 0.0297 0.4730
H142_11 H 0.7717 0.0336 0.4756
H143_11 H 0.7815 0.0105 0.4685
H144_11 H 0.7789 0.0258 0.4220
N7_11 N 0.8807(2) 0.83527(18) 0.5007(5)
N8_11 N 0.8944(2) 0.8324(2) 0.4619(5)
N9_11 N 0.92072(19) 0.7727(2) 0.4371(5)
N10_11 N 0.9165(2) 0.7552(2) 0.4677(5)
N11_11 N 0.87738(18) 0.76517(17) 0.5920(4)
N12_11 N 0.8698(2) 0.7861(2) 0.6021(5)
N13_11 N 0.92446(17) 0.70766(16) 0.2807(5)
N14_11 N 0.9458(2) 0.71460(19) 0.2799(5)
N15_11 N 0.98836(18) 0.69691(17) 0.1691(4)
N16_11 N 0.98288(17) 0.68335(18) 0.1307(4)
N17_11 N 0.91968(17) 0.66176(18) 0.1254(4)
N18_11 N 0.90702(16) 0.66750(18) 0.1648(4)
N33_11 N 0.83739(18) 0.62576(17) 0.0624(4)
N34_11 N 0.84856(17) 0.60682(15) 0.0607(4)
N43_11 N 0.82584(19) 0.98466(17) 0.3531(5)
N44_11 N 0.8388(2) 0.97663(19) 0.3912(5)
N45_11 N 0.8560(2) 0.91277(19) 0.3921(5)
N46_11 N 0.8476(2) 0.8986(2) 0.3560(5)
N55_11 N 0.7914(2) 0.7501(2) 0.6782(5)
N56_11 N 0.8038(2) 0.7399(2) 0.7142(4)
C16_11 C 0.8506(2) 0.8600(2) 0.5236(6)
C17_11 C 0.8680(2) 0.8520(2) 0.4900(5)
C18_11 C 0.8736(2) 0.8608(3) 0.4422(6)
C19_11 C 0.8902(3) 0.8477(2) 0.4271(6)
C20_11 C 0.9035(3) 0.8483(3) 0.3791(6)
C21_11 C 0.9331(3) 0.7814(2) 0.3529(6)
C22_11 C 0.9265(2) 0.7654(2) 0.3911(6)
C23_11 C 0.9259(3) 0.7431(2) 0.3902(6)
C24_11 C 0.9196(2) 0.7377(2) 0.4392(6)
C25_11 C 0.9162(3) 0.7149(3) 0.4603(7)
C26_11 C 0.8673(3) 0.7276(3) 0.6077(7)
C27_11 C 0.8630(3) 0.7518(2) 0.6128(5)
C28_11 C 0.8467(2) 0.7624(2) 0.6353(5)
C29_11 C 0.8522(3) 0.7840(2) 0.6268(6)
C30_11 C 0.8404(3) 0.8049(2) 0.6441(7)
C31_11 C 0.8921(3) 0.7128(3) 0.3317(7)
C32_11 C 0.9154(2) 0.7167(2) 0.3214(6)
C33_11 C 0.9302(2) 0.7296(2) 0.3463(6)
C34_11 C 0.9488(2) 0.7281(2) 0.3191(5)
C35_11 C 0.9706(3) 0.7384(3) 0.3269(6)
C39_11 C 0.9995(2) 0.6821(2) 0.0986(7)
C40_11 C 0.9978(3) 0.6688(3) 0.0522(7)
C41_11 C 0.9199(3) 0.6421(3) 0.0457(6)
C42_11 C 0.9093(2) 0.6487(2) 0.0942(5)
C43_11 C 0.8883(2) 0.6453(2) 0.1135(5)
C44_11 C 0.88803(19) 0.65690(18) 0.1583(5)
C45_11 C 0.8706(2) 0.6593(2) 0.1963(6)
C81_11 C 0.8419(2) 0.6635(2) 0.0857(6)
C82_11 C 0.8499(2) 0.6410(2) 0.0814(5)
C83_11 C 0.8707(2) 0.6333(2) 0.0909(5)
C84_11 C 0.86919(19) 0.6115(2) 0.0773(5)
C85_11 C 0.8860(2) 0.5943(2) 0.0778(5)
C109_11 C 0.8401(3) 0.9909(2) 0.4288(5)
C110_11 C 0.8520(3) 0.9862(3) 0.4746(7)
C111_11 C 0.8761(2) 0.9110(2) 0.4721(5)
C112_11 C 0.8655(2) 0.9008(2) 0.4276(5)
C113_11 C 0.8644(2) 0.87935(18) 0.4153(5)
C114_11 C 0.8525(3) 0.8787(2) 0.3711(5)
C115_11 C 0.8447(4) 0.8603(3) 0.3404(6)
C136_11 C 0.7974(3) 0.7710(3) 0.6004(7)
C137_11 C 0.8068(3) 0.7594(4) 0.6461(6)
C138_11 C 0.8275(2) 0.7555(3) 0.6603(6)
C139_11 C 0.8248(2) 0.7423(2) 0.7027(5)
C140_11 C 0.8423(2) 0.7326(3) 0.7340(6)
Ag4_11 Ag 0.87805(2) 0.811280(18) 0.55417(5)
Ag5_11 Ag 0.90975(2) 0.803030(18) 0.45590(5)
Ag6_11 Ag 0.89950(2) 0.760180(19) 0.53409(5)
Ag7_11 Ag 0.916120(18) 0.686790(18) 0.22384(5)
Ag8_11 Ag 0.967100(18) 0.704410(17) 0.22546(4)
Ag9_11 Ag 0.951730(18) 0.671930(17) 0.12762(5)
Ag17_11 Ag 0.810180(16) 0.630450(16) 0.01981(4)
Ag18_11 Ag 0.834830(16) 0.581810(15) 0.02147(4)
Ag22_7 Ag 0.814690(19) 0.964330(19) 0.29860(5)
Ag23_11 Ag 0.84848(2) 0.944790(18) 0.38719(5)
Ag24_7 Ag 0.82679(2) 0.91022(2) 0.30263(4)
Ag28_7 Ag 0.75936(2) 0.74621(2) 0.67559(5)
Ag29_3 Ag 0.78730(2) 0.72339(2) 0.76890(5)
H19_11 H 0.8500 0.8513 0.5535
H20_11 H 0.8534 0.8747 0.5327
H21_11 H 0.8370 0.8592 0.5064
H22_11 H 0.9139 0.8368 0.3796
H23_11 H 0.8942 0.8467 0.3505
H24_11 H 0.9110 0.8619 0.3769
H25_11 H 0.9315 0.7957 0.3664
H26_11 H 0.9479 0.7791 0.3439
H27_11 H 0.9242 0.7799 0.3236
H28_11 H 0.9121 0.7159 0.4950
H29_11 H 0.9050 0.7078 0.4416
H30_11 H 0.9293 0.7069 0.4574
H31_11 H 0.8561 0.7197 0.6243
H32_11 H 0.8677 0.7237 0.5728
H33_11 H 0.8809 0.7242 0.6230
H34_11 H 0.8483 0.8173 0.6325
H35_11 H 0.8261 0.8051 0.6304
H36_11 H 0.8397 0.8051 0.6802
H37_11 H 0.8864 0.7031 0.3069
H38_11 H 0.8844 0.7262 0.3303
H39_11 H 0.8905 0.7065 0.3645
H40_11 H 0.9802 0.7340 0.3005
H41_11 H 0.9763 0.7340 0.3587
H42_11 H 0.9691 0.7538 0.3264
H46_11 H 0.9844 0.6610 0.0527
H48_11 H 0.9981 0.6781 0.0233
H49_11 H 0.9346 0.6470 0.0453
H50_11 H 0.9122 0.6483 0.0179
H51_11 H 0.9196 0.6266 0.0428
H52_11 H 0.8754 0.6685 0.2229
H53_11 H 0.8670 0.6454 0.2097
H54_11 H 0.8581 0.6654 0.1806
H94_11 H 0.7953 0.6738 0.0126
H97_11 H 0.8270 0.6640 0.0762
H98_11 H 0.8434 0.6683 0.1199
H99_11 H 0.8502 0.6727 0.0640
H100_11 H 0.8799 0.5810 0.0657
H101_11 H 0.8978 0.5985 0.0566
H102_11 H 0.8911 0.5923 0.1116
H103_11 H 0.8535 0.5385 0.0122
H130_11 H 0.8585 0.9722 0.4721
H131_11 H 0.8423 0.9866 0.5028
H132_11 H 0.8631 0.9969 0.4792
H133_11 H 0.8746 0.9264 0.4701
H134_11 H 0.8911 0.9073 0.4725
H135_11 H 0.8694 0.9059 0.5024
H136_11 H 0.8371 0.8656 0.3115
H137_11 H 0.8352 0.8515 0.3603
H138_11 H 0.8568 0.8517 0.3296
H163_11 H 0.7820 0.7711 0.6027
H164_11 H 0.8026 0.7856 0.5997
H165_11 H 0.8017 0.7637 0.5703
H166_11 H 0.8360 0.7244 0.7608
H167_11 H 0.8510 0.7234 0.7135
H168_11 H 0.8510 0.7439 0.7480
N63_7 N 0.80550(19) 0.9216(2) 0.2507(5)
N64_7 N 0.8005(2) 0.9437(2) 0.2479(5)
N68_3 N 0.77220(18) 0.7035(2) 0.8212(5)
N70_7 N 0.7277(2) 0.7392(2) 0.6667(5)
N31_11 N 0.77965(18) 0.62447(18) 0.9343(4)
N32_11 N 0.78698(18) 0.63972(17) 0.9701(5)
N35_11 N 0.82197(18) 0.55889(16) 0.9743(4)
N36_11 N 0.80520(17) 0.56333(16) 0.9433(5)
N58_7 N 0.7508(2) 0.6982(2) 0.8158(5)
C76_11 C 0.7610(3) 0.6235(2) 0.8518(6)
C77_11 C 0.7705(2) 0.6354(2) 0.8961(5)
C78_11 C 0.7719(2) 0.6569(2) 0.9064(6)
C79_11 C 0.7822(2) 0.6592(2) 0.9517(6)
C80_11 C 0.7880(3) 0.6784(3) 0.9827(7)
C86_11 C 0.8491(3) 0.5296(2) 0.9845(7)
C87_11 C 0.8303(2) 0.5397(2) 0.9590(5)
C88_11 C 0.8187(2) 0.5318(2) 0.9163(6)
C89_11 C 0.8032(2) 0.5480(2) 0.9085(5)
C90_11 C 0.7861(3) 0.5492(3) 0.8692(6)
C131_11 C 0.8161(2) 0.4815(2) 0.9434(6)
C132_11 C 0.82169(18) 0.49184(18) 0.8955(5)
C133_11 C 0.8225(2) 0.5135(2) 0.8841(5)
C134_11 C 0.8293(2) 0.5144(2) 0.8334(6)
C135_11 C 0.8332(3) 0.5335(2) 0.8012(6)
C141_11 C 0.8051(3) 0.6920(3) 0.8620(6)
C142_11 C 0.7820(3) 0.6899(3) 0.8532(6)
C143_11 C 0.7674(2) 0.6749(2) 0.8711(5)
C144_11 C 0.7480(2) 0.6808(3) 0.8476(6)
C145_11 C 0.7257(3) 0.6714(3) 0.8522(7)
C150_11 C 0.99435(19) 0.9720(2) 0.8336(5)
Ag16_11 Ag 0.790920(17) 0.593720(16) 0.94204(4)
H81_11 H 0.9980 0.8985 0.8988
H91_11 H 0.7628 0.6082 0.8567
H92_11 H 0.7459 0.6268 0.8492
H93_11 H 0.7682 0.6278 0.8215
H95_11 H 0.7972 0.6878 0.9637
H96_11 H 0.7750 0.6860 0.9919
H104_11 H 0.8451 0.5156 0.9968
H105_11 H 0.8608 0.5282 0.9611
H106_11 H 0.7778 0.5620 0.8740
H107_11 H 0.7927 0.5494 0.8365
H108_11 H 0.7769 0.5368 0.8718
H157_11 H 0.8126 0.4923 0.9678
H158_11 H 0.8040 0.4721 0.9386
H159_11 H 0.8282 0.4732 0.9552
H160_11 H 0.8376 0.5288 0.7683
H161_11 H 0.8202 0.5418 0.7986
H162_11 H 0.8444 0.5421 0.8159
H169_11 H 0.8105 0.7042 0.8438
H170_11 H 0.8077 0.6939 0.8973
H171_11 H 0.8123 0.6792 0.8506
H172_11 H 0.7160 0.6792 0.8307
H173_11 H 0.7260 0.6566 0.8424
H174_11 H 0.7209 0.6726 0.8865
H178_11 H 0.9881 0.9858 0.8412
H180_11 H 0.9831 0.9617 0.8282
Ag40_7 Ag 0.73284(2) 0.71305(2) 0.76199(5)
C144_12 C 0.4308(3) 0.0020(2) 0.5976(6)
C145_12 C 0.4214(3) 0.0243(3) 0.6022(7)
H92_12 H 0.3768 0.0041 0.5992
H172_12 H 0.4292 0.0340 0.5807
H173_12 H 0.4066 0.0240 0.5924
H174_12 H 0.4226 0.0291 0.6365
N3_12 N 0.55433(18) 0.52137(17) 0.0576(4)
N4_12 N 0.54599(18) 0.50981(17) 0.0962(4)
N5_12 N 0.47966(18) 0.50446(18) 0.1048(4)
N6_12 N 0.46826(17) 0.51089(19) 0.0628(5)
N7_12 N 0.58527(18) 0.8693(2) 0.2507(5)
N8_12 N 0.5824(2) 0.8556(2) 0.2119(5)
N9_12 N 0.5227(2) 0.82928(19) 0.1871(5)
N10_12 N 0.5052(2) 0.8335(2) 0.2177(5)
N11_12 N 0.51517(17) 0.87262(18) 0.3420(4)
N12_12 N 0.5361(2) 0.8802(2) 0.3521(5)
N13_12 N 0.45766(16) 0.82554(17) 0.0307(5)
N14_12 N 0.46460(19) 0.8042(2) 0.0299(5)
N37_12 N 0.33381(18) 0.45781(17) 0.1527(4)
N38_12 N 0.31669(15) 0.46506(16) 0.1819(4)
N41_12 N 0.39629(17) 0.50391(17) 0.2046(4)
N42_12 N 0.39123(17) 0.48869(18) 0.1696(4)
N43_12 N 0.73466(17) 0.92416(19) 0.1031(5)
N44_12 N 0.72663(19) 0.9112(2) 0.1412(5)
N45_12 N 0.66277(19) 0.8940(2) 0.1421(5)
N46_12 N 0.6486(2) 0.9024(2) 0.1060(5)
N49_12 N 0.62617(18) 0.52396(17) 0.2047(4)
N50_12 N 0.62027(17) 0.54572(18) 0.1994(4)
N55_12 N 0.5001(2) 0.9586(2) 0.4282(5)
N56_12 N 0.4899(2) 0.9462(2) 0.4642(4)
C6_12 C 0.5878(2) 0.5428(2) 0.0407(5)
C7_12 C 0.5737(2) 0.5292(2) 0.0726(5)
C8_12 C 0.57830(19) 0.52120(18) 0.1217(5)
C9_12 C 0.5604(2) 0.5093(2) 0.1343(5)
C10_12 C 0.5555(2) 0.4979(3) 0.1829(6)
C11_12 C 0.4742(2) 0.4917(3) 0.1905(6)
C12_12 C 0.4653(2) 0.4997(2) 0.1421(5)
C13_12 C 0.4451(2) 0.5038(2) 0.1257(5)
C14_12 C 0.4468(2) 0.5107(2) 0.0757(5)
C15_12 C 0.4300(2) 0.5184(3) 0.0407(6)
C16_12 C 0.6100(2) 0.8994(2) 0.2736(6)
C17_12 C 0.6020(2) 0.8820(2) 0.2400(5)
C18_12 C 0.6108(3) 0.8764(2) 0.1922(6)
C19_12 C 0.5977(2) 0.8598(3) 0.1771(6)
C20_12 C 0.5983(3) 0.8465(3) 0.1291(6)
C21_12 C 0.5314(2) 0.8169(3) 0.1029(6)
C22_12 C 0.5154(2) 0.8235(2) 0.1411(6)
C23_12 C 0.4931(2) 0.8241(3) 0.1402(6)
C24_12 C 0.4877(2) 0.8304(2) 0.1892(6)
C25_12 C 0.4649(3) 0.8338(3) 0.2103(7)
C26_12 C 0.4776(3) 0.8827(3) 0.3577(7)
C27_12 C 0.5018(2) 0.8870(3) 0.3628(5)
C28_12 C 0.5124(2) 0.9033(2) 0.3853(5)
C29_12 C 0.5340(2) 0.8978(3) 0.3768(6)
C30_12 C 0.5549(2) 0.9096(3) 0.3941(7)
C31_12 C 0.4628(3) 0.8579(3) 0.0817(7)
C32_12 C 0.4667(2) 0.8346(2) 0.0714(6)
C33_12 C 0.4796(2) 0.8198(2) 0.0963(6)
C34_12 C 0.4781(2) 0.8012(2) 0.0691(5)
C35_12 C 0.4884(3) 0.7794(3) 0.0769(6)
C91_12 C 0.3418(2) 0.4334(2) 0.0812(5)
C92_12 C 0.3262(2) 0.44369(19) 0.1183(5)
C93_12 C 0.3040(2) 0.4416(2) 0.1230(5)
C94_12 C 0.2989(2) 0.4546(2) 0.1641(5)
C95_12 C 0.2773(2) 0.4593(2) 0.1891(6)
C96_12 C 0.2682(2) 0.4621(3) 0.0552(6)
C97_12 C 0.27297(18) 0.43974(19) 0.0609(5)
C98_12 C 0.2886(2) 0.43000(19) 0.0902(5)
C99_12 C 0.2872(2) 0.4082(2) 0.0810(5)
C100_12 C 0.3002(2) 0.3895(3) 0.1009(7)
C101_12 C 0.4263(2) 0.5281(3) 0.2276(7)
C102_12 C 0.4163(2) 0.5110(2) 0.1952(6)
C103_12 C 0.42432(18) 0.5007(2) 0.1513(5)
C104_12 C 0.40783(19) 0.48676(19) 0.1384(5)
C105_12 C 0.4078(2) 0.4707(3) 0.0951(6)
C106_12 C 0.7684(3) 0.9443(3) 0.0851(7)
C107_12 C 0.7546(2) 0.9301(2) 0.1171(5)
C108_12 C 0.7591(2) 0.9222(2) 0.1647(5)
C109_12 C 0.7409(2) 0.9099(3) 0.1788(5)
C110_12 C 0.7362(3) 0.8980(3) 0.2246(7)
C111_12 C 0.6610(2) 0.8739(2) 0.2221(5)
C112_12 C 0.6508(2) 0.8845(2) 0.1776(5)
C113_12 C 0.62935(18) 0.8856(2) 0.1653(5)
C114_12 C 0.6287(2) 0.8975(3) 0.1211(5)
C115_12 C 0.6103(3) 0.9053(4) 0.0904(6)
C116_12 C 0.7931(3) 0.8884(3) 0.2141(7)
C117_12 C 0.7910(3) 0.9115(3) 0.2200(6)
C118_12 C 0.7775(3) 0.9262(3) 0.1971(7)
C119_12 C 0.7839(3) 0.9460(2) 0.2164(6)
C120_12 C 0.7752(3) 0.9679(3) 0.2073(6)
C121_12 C 0.6140(2) 0.4886(3) 0.1703(6)
C122_12 C 0.61170(19) 0.5130(2) 0.1751(4)
C123_12 C 0.5969(2) 0.5272(2) 0.1528(5)
C124_12 C 0.6025(2) 0.5472(2) 0.1711(5)
C125_12 C 0.5931(2) 0.5684(2) 0.1608(5)
C136_12 C 0.5210(3) 0.9526(3) 0.3504(7)
C137_12 C 0.5094(4) 0.9432(3) 0.3961(6)
C138_12 C 0.5055(3) 0.9225(2) 0.4103(6)
C139_12 C 0.4923(2) 0.9252(2) 0.4527(5)
C140_12 C 0.4826(3) 0.9077(2) 0.4840(6)
Ag3_12 Ag 0.513079(16) 0.504559(17) 0.09812(4)
Ag4_12 Ag 0.561280(18) 0.87195(2) 0.30417(5)
Ag5_12 Ag 0.553030(18) 0.84025(2) 0.20590(5)
Ag6_12 Ag 0.510180(19) 0.85050(2) 0.28409(5)
Ag19_12 Ag 0.362410(15) 0.473230(16) 0.16364(4)
Ag23_12 Ag 0.694790(18) 0.90152(2) 0.13719(5)
Ag26_4 Ag 0.634870(16) 0.567590(18) 0.24691(4)
Ag29_4 Ag 0.47339(2) 0.96270(2) 0.51890(5)
H7_12 H 0.5807 0.5456 0.0093
H8_12 H 0.5906 0.5561 0.0576
H9_12 H 0.6011 0.5353 0.0346
H10_12 H 0.5418 0.4908 0.1803
H11_12 H 0.5665 0.4874 0.1896
H12_12 H 0.5550 0.5082 0.2098
H13_12 H 0.4626 0.4891 0.2136
H14_12 H 0.4820 0.4786 0.1849
H15_12 H 0.4838 0.5023 0.2044
H16_12 H 0.4365 0.5217 0.0088
H17_12 H 0.4193 0.5074 0.0364
H18_12 H 0.4234 0.5311 0.0541
H19_12 H 0.6013 0.9000 0.3035
H20_12 H 0.6247 0.8966 0.2827
H21_12 H 0.6092 0.9130 0.2564
H22_12 H 0.5868 0.8361 0.1296
H23_12 H 0.5967 0.8558 0.1005
H24_12 H 0.6119 0.8390 0.1269
H25_12 H 0.5457 0.8185 0.1164
H26_12 H 0.5291 0.8021 0.0939
H27_12 H 0.5299 0.8258 0.0736
H28_12 H 0.4659 0.8379 0.2450
H29_12 H 0.4578 0.8450 0.1916
H30_12 H 0.4569 0.8207 0.2074
H31_12 H 0.4697 0.8939 0.3743
H32_12 H 0.4737 0.8823 0.3228
H33_12 H 0.4742 0.8691 0.3730
H34_12 H 0.5673 0.9017 0.3825
H35_12 H 0.5551 0.9239 0.3804
H36_12 H 0.5551 0.9103 0.4302
H37_12 H 0.4531 0.8636 0.0569
H38_12 H 0.4762 0.8656 0.0803
H39_12 H 0.4565 0.8595 0.1145
H40_12 H 0.4840 0.7698 0.0505
H41_12 H 0.4840 0.7737 0.1087
H42_12 H 0.5038 0.7809 0.0764
H109_12 H 0.3562 0.4382 0.0881
H110_12 H 0.3378 0.4374 0.0476
H111_12 H 0.3411 0.4180 0.0844
H112_12 H 0.2794 0.4692 0.2165
H113_12 H 0.2712 0.4462 0.2016
H114_12 H 0.2677 0.4656 0.1649
H115_12 H 0.2562 0.4638 0.0326
H116_12 H 0.2805 0.4694 0.0418
H117_12 H 0.2645 0.4681 0.0874
H118_12 H 0.2951 0.3764 0.0863
H119_12 H 0.2988 0.3889 0.1368
H120_12 H 0.3151 0.3915 0.0922
H121_12 H 0.4166 0.5315 0.2547
H122_12 H 0.4288 0.5408 0.2078
H123_12 H 0.4397 0.5229 0.2410
H124_12 H 0.3944 0.4629 0.0950
H125_12 H 0.4195 0.4607 0.0993
H126_12 H 0.4094 0.4782 0.0639
H127_12 H 0.7612 0.9470 0.0536
H128_12 H 0.7819 0.9373 0.0789
H129_12 H 0.7708 0.9577 0.1021
H130_12 H 0.7222 0.8915 0.2221
H131_12 H 0.7366 0.9077 0.2528
H132_12 H 0.7469 0.8869 0.2292
H133_12 H 0.6764 0.8754 0.2201
H134_12 H 0.6573 0.8589 0.2225
H135_12 H 0.6559 0.8806 0.2524
H136_12 H 0.6156 0.9129 0.0615
H137_12 H 0.6015 0.9148 0.1103
H138_12 H 0.6017 0.8932 0.0796
H139_12 H 0.8043 0.8832 0.2357
H140_12 H 0.7965 0.8851 0.1798
H141_12 H 0.7797 0.8816 0.2230
H142_12 H 0.7836 0.9783 0.2256
H143_12 H 0.7605 0.9685 0.2185
H144_12 H 0.7758 0.9711 0.1720
H145_12 H 0.6258 0.4837 0.1907
H146_12 H 0.6009 0.4818 0.1815
H147_12 H 0.6166 0.4849 0.1358
H148_12 H 0.6009 0.5793 0.1789
H149_12 H 0.5939 0.5714 0.1254
H150_12 H 0.5783 0.5685 0.1713
H163_12 H 0.5211 0.9680 0.3527
H164_12 H 0.5356 0.9474 0.3497
H165_12 H 0.5137 0.9483 0.3203
H166_12 H 0.4744 0.9140 0.5108
H167_12 H 0.4734 0.8990 0.4635
H168_12 H 0.4939 0.8990 0.4980
N65_4 N 0.64524(17) 0.58980(18) 0.2990(4)
N68_4 N 0.4535(2) 0.97780(18) 0.5712(5)
N1_12 N 0.49474(17) 0.53977(17) 0.9410(4)
N2_12 N 0.51658(16) 0.54484(18) 0.9416(4)
N15_12 N 0.44691(17) 0.76164(18) 0.9191(4)
N16_12 N 0.43335(18) 0.76712(17) 0.8807(4)
N17_12 N 0.41176(18) 0.83032(17) 0.8754(4)
N18_12 N 0.41750(18) 0.84298(16) 0.9148(4)
N19_12 N 0.46050(17) 0.68001(17) 0.8208(4)
N20_12 N 0.46890(16) 0.69236(17) 0.7832(4)
N21_12 N 0.50926(16) 0.66978(16) 0.6729(4)
N22_12 N 0.51758(19) 0.64988(18) 0.6753(4)
N23_12 N 0.49846(16) 0.61070(16) 0.7926(4)
N24_12 N 0.48480(17) 0.6179(2) 0.8275(4)
N25_12 N 0.58004(17) 0.68007(19) 0.5272(4)
N26_12 N 0.58503(19) 0.69501(19) 0.5642(4)
N27_12 N 0.64629(19) 0.72088(17) 0.5611(4)
N28_12 N 0.66122(19) 0.71315(18) 0.5280(4)
N29_12 N 0.64286(19) 0.66945(17) 0.4165(4)
N30_12 N 0.62212(17) 0.6642(2) 0.4155(4)
N31_12 N 0.37447(18) 0.97035(18) 0.6843(4)
N32_12 N 0.38972(17) 0.96302(18) 0.7201(5)
N33_12 N 0.37576(17) 0.91261(18) 0.8124(4)
N34_12 N 0.35682(15) 0.90144(17) 0.8107(4)
N35_12 N 0.30889(16) 0.92803(18) 0.7243(4)
N36_12 N 0.31333(16) 0.94480(17) 0.6933(5)
N52_12 N 0.65920(15) 0.58421(17) 0.3367(4)
N59_12 N 0.7167(2) 0.7257(2) 0.7012(4)
C1_12 C 0.4616(2) 0.5520(2) 0.8989(5)
C2_12 C 0.4853(2) 0.5542(2) 0.9084(5)
C3_12 C 0.50097(19) 0.5672(2) 0.8884(4)
C4_12 C 0.5197(2) 0.56179(19) 0.9096(5)
C5_12 C 0.5419(2) 0.5708(3) 0.9025(6)
C36_12 C 0.4694(3) 0.7306(3) 0.9441(7)
C37_12 C 0.4538(2) 0.7416(2) 0.9099(5)
C38_12 C 0.4458(2) 0.7340(2) 0.8648(5)
C39_12 C 0.4321(2) 0.7505(2) 0.8486(7)
C40_12 C 0.4188(3) 0.7522(3) 0.8022(7)
C41_12 C 0.3921(3) 0.8301(3) 0.7957(6)
C42_12 C 0.3987(2) 0.8407(2) 0.8442(5)
C43_12 C 0.3953(2) 0.8617(2) 0.8635(5)
C44_12 C 0.40690(18) 0.86197(19) 0.9083(5)
C45_12 C 0.4093(2) 0.8794(2) 0.9463(6)
C46_12 C 0.4404(2) 0.6838(2) 0.9004(5)
C47_12 C 0.4505(2) 0.6931(2) 0.8549(5)
C48_12 C 0.4518(2) 0.7143(2) 0.8390(6)
C49_12 C 0.4636(2) 0.7128(2) 0.7937(5)
C50_12 C 0.4701(3) 0.7312(3) 0.7592(7)
C51_12 C 0.5167(2) 0.7056(3) 0.6344(6)
C52_12 C 0.5223(2) 0.6821(2) 0.6427(6)
C53_12 C 0.5389(2) 0.6694(2) 0.6259(5)
C54_12 C 0.5349(2) 0.6490(2) 0.6460(6)
C55_12 C 0.5485(3) 0.6287(3) 0.6393(7)
C56_12 C 0.5212(2) 0.5792(2) 0.7772(5)
C57_12 C 0.5060(2) 0.59100(19) 0.8088(5)
C58_12 C 0.4962(2) 0.58610(19) 0.8563(5)
C59_12 C 0.48314(18) 0.60340(19) 0.8658(4)
C60_12 C 0.4692(2) 0.6079(3) 0.9104(6)
C61_12 C 0.5517(2) 0.6516(3) 0.5125(5)
C62_12 C 0.5622(2) 0.6693(2) 0.5439(6)
C63_12 C 0.5570(2) 0.6770(2) 0.5942(6)
C64_12 C 0.5715(2) 0.6926(2) 0.6033(5)
C65_12 C 0.5745(3) 0.7059(3) 0.6489(5)
C66_12 C 0.6445(3) 0.7372(3) 0.6447(6)
C67_12 C 0.6564(2) 0.7278(3) 0.6014(5)
C68_12 C 0.6787(3) 0.7256(2) 0.5943(5)
C69_12 C 0.6806(2) 0.7166(2) 0.5489(6)
C70_12 C 0.7006(3) 0.7104(3) 0.5193(7)
C71_12 C 0.6782(3) 0.6563(2) 0.3898(7)
C72_12 C 0.65478(19) 0.65448(19) 0.3938(4)
C73_12 C 0.6416(2) 0.6383(2) 0.3776(5)
C74_12 C 0.6203(2) 0.6456(2) 0.3917(5)
C75_12 C 0.5999(2) 0.6339(3) 0.3858(7)
C76_12 C 0.3735(2) 0.9890(3) 0.6018(6)
C77_12 C 0.3854(2) 0.9795(2) 0.6461(5)
C78_12 C 0.4069(2) 0.9781(2) 0.6564(6)
C79_12 C 0.4092(2) 0.9678(2) 0.7017(6)
C80_12 C 0.4284(3) 0.9620(3) 0.7327(7)
C81_12 C 0.4135(2) 0.9081(2) 0.8357(6)
C82_12 C 0.3910(2) 0.9001(2) 0.8314(5)
C83_12 C 0.3833(2) 0.8793(2) 0.8409(5)
C84_12 C 0.3615(2) 0.88081(19) 0.8273(5)
C85_12 C 0.3443(2) 0.8640(2) 0.8278(5)
C86_12 C 0.2796(2) 0.9009(3) 0.7345(7)
C87_12 C 0.2897(2) 0.9197(2) 0.7090(5)
C88_12 C 0.2818(2) 0.9313(2) 0.6663(6)
C89_12 C 0.2980(2) 0.9468(2) 0.6585(5)
C90_12 C 0.2992(3) 0.9639(3) 0.6192(6)
C126_12 C 0.6226(3) 0.6203(3) 0.2705(7)
C127_12 C 0.63810(19) 0.6100(2) 0.3061(5)
C128_12 C 0.6458(2) 0.6176(2) 0.3523(5)
C129_12 C 0.65960(19) 0.6010(3) 0.3702(5)
C130_12 C 0.6736(3) 0.5994(3) 0.4171(6)
C131_12 C 0.2315(2) 0.9339(2) 0.6934(6)
C132_12 C 0.24184(18) 0.92831(18) 0.6455(5)
C133_12 C 0.2635(2) 0.9275(2) 0.6341(5)
C134_12 C 0.2644(2) 0.9207(2) 0.5834(6)
C135_12 C 0.2835(2) 0.9168(3) 0.5512(6)
C141_12 C 0.4420(3) 0.9449(3) 0.6120(6)
C142_12 C 0.4399(3) 0.9680(3) 0.6032(6)
C143_12 C 0.4249(2) 0.9826(2) 0.6211(5)
C146_12 C 0.6836(3) 0.7051(3) 0.7062(6)
C147_12 C 0.6980(3) 0.7200(3) 0.6785(6)
C148_12 C 0.6958(2) 0.7301(2) 0.6309(5)
C149_12 C 0.7147(2) 0.7415(2) 0.6276(6)
C150_12 C 0.7220(2) 0.75565(19) 0.5836(5)
Ag1_12 Ag 0.482519(16) 0.522799(16) 0.99987(4)
Ag2_12 Ag 0.535695(15) 0.531094(16) 0.99734(4)
Ag7_12 Ag 0.436790(18) 0.833880(18) 0.97384(5)
Ag8_12 Ag 0.454410(17) 0.782900(18) 0.97546(4)
Ag9_12 Ag 0.421930(17) 0.798270(18) 0.87762(5)
Ag10_12 Ag 0.471560(16) 0.648650(16) 0.82287(4)
Ag11_12 Ag 0.487040(17) 0.679730(17) 0.72645(4)
Ag12_12 Ag 0.506730(16) 0.629090(16) 0.73085(4)
Ag13_12 Ag 0.600140(18) 0.674990(18) 0.46827(4)
Ag14_12 Ag 0.614910(18) 0.709510(18) 0.55846(4)
Ag15_12 Ag 0.651630(18) 0.693830(17) 0.46804(4)
Ag16_12 Ag 0.343720(16) 0.959080(17) 0.69204(4)
Ag17_12 Ag 0.380450(16) 0.939820(16) 0.76981(4)
Ag18_12 Ag 0.331810(15) 0.915170(16) 0.77147(4)
H1_12 H 0.4558 0.5410 0.9202
H2_12 H 0.4546 0.5655 0.9061
H3_12 H 0.4592 0.5482 0.8644
H4_12 H 0.5413 0.5825 0.8789
H5_12 H 0.5473 0.5759 0.9342
H6_12 H 0.5512 0.5597 0.8898
H43_12 H 0.4719 0.7395 0.9730
H44_12 H 0.4827 0.7283 0.9266
H45_12 H 0.4636 0.7170 0.9546
H46_12 H 0.4110 0.7656 0.8027
H47_12 H 0.4089 0.7404 0.8008
H48_12 H 0.4281 0.7519 0.7733
H49_12 H 0.3970 0.8154 0.7953
H50_12 H 0.3983 0.8378 0.7679
H51_12 H 0.3766 0.8304 0.7928
H52_12 H 0.4185 0.8746 0.9729
H53_12 H 0.3954 0.8830 0.9597
H54_12 H 0.4154 0.8919 0.9306
H55_12 H 0.4422 0.6684 0.9001
H56_12 H 0.4253 0.6873 0.9007
H57_12 H 0.4472 0.6897 0.9299
H58_12 H 0.4779 0.7256 0.7309
H59_12 H 0.4791 0.7411 0.7773
H60_12 H 0.4574 0.7386 0.7477
H61_12 H 0.5274 0.7121 0.6129
H62_12 H 0.5165 0.7130 0.6661
H63_12 H 0.5028 0.7067 0.6188
H64_12 H 0.5420 0.6170 0.6577
H65_12 H 0.5628 0.6313 0.6518
H66_12 H 0.5491 0.6250 0.6043
H67_12 H 0.5245 0.5876 0.7479
H68_12 H 0.5149 0.5657 0.7671
H69_12 H 0.5341 0.5765 0.7958
H70_12 H 0.4700 0.5960 0.9334
H71_12 H 0.4546 0.6098 0.8996
H72_12 H 0.4742 0.6208 0.9268
H73_12 H 0.5590 0.6505 0.4807
H74_12 H 0.5528 0.6381 0.5300
H75_12 H 0.5368 0.6550 0.5070
H76_12 H 0.5863 0.7157 0.6439
H77_12 H 0.5616 0.7140 0.6554
H78_12 H 0.5775 0.6968 0.6771
H79_12 H 0.6293 0.7363 0.6385
H80_12 H 0.6479 0.7293 0.6748
H81_12 H 0.6485 0.7520 0.6488
H82_12 H 0.7132 0.7140 0.5384
H83_12 H 0.7004 0.6952 0.5126
H84_12 H 0.7008 0.7182 0.4881
H85_12 H 0.6828 0.6696 0.4047
H86_12 H 0.6849 0.6444 0.4071
H87_12 H 0.6823 0.6560 0.3550
H88_12 H 0.5882 0.6425 0.3984
H89_12 H 0.5975 0.6308 0.3508
H90_12 H 0.6005 0.6206 0.4043
H91_12 H 0.3582 0.9872 0.6067
H93_12 H 0.3778 0.9818 0.5715
H94_12 H 0.4238 0.9547 0.7626
H95_12 H 0.4378 0.9528 0.7137
H96_12 H 0.4360 0.9750 0.7419
H97_12 H 0.4140 0.9230 0.8262
H98_12 H 0.4183 0.9066 0.8699
H99_12 H 0.4227 0.8998 0.8140
H100_12 H 0.3310 0.8701 0.8157
H101_12 H 0.3485 0.8522 0.8066
H102_12 H 0.3423 0.8589 0.8616
H103_12 H 0.2885 0.8965 0.7622
H104_12 H 0.2656 0.9049 0.7468
H105_12 H 0.2782 0.8892 0.7111
H106_12 H 0.3120 0.9722 0.6240
H107_12 H 0.2994 0.9573 0.5865
H108_12 H 0.2868 0.9731 0.6218
H151_12 H 0.6202 0.6109 0.2424
H152_12 H 0.6092 0.6230 0.2874
H153_12 H 0.6285 0.6337 0.2588
H154_12 H 0.6807 0.5857 0.4178
H155_12 H 0.6842 0.6107 0.4166
H156_12 H 0.6647 0.6010 0.4465
H157_12 H 0.2423 0.9374 0.7178
H158_12 H 0.2221 0.9460 0.6886
H159_12 H 0.2232 0.9218 0.7052
H160_12 H 0.2788 0.9124 0.5183
H161_12 H 0.2918 0.9298 0.5486
H162_12 H 0.2921 0.9056 0.5659
H169_12 H 0.4542 0.9395 0.5938
H170_12 H 0.4439 0.9423 0.6473
H171_12 H 0.4292 0.9377 0.6006
H175_12 H 0.6900 0.7014 0.7379
H176_12 H 0.6699 0.7120 0.7120
H177_12 H 0.6814 0.6922 0.6867
H178_12 H 0.7358 0.7619 0.5912
H179_12 H 0.7232 0.7470 0.5537
H180_12 H 0.7117 0.7669 0.5782
N53_6 N 0.1728(2) 0.02007(18) 0.8548(5)
N54_6 N 0.1674(2) 0.00567(17) 0.8164(5)
C131_13 C 0.1839(2) 0.0185(2) 0.9434(6)
C132_13 C 0.17831(18) 0.00816(18) 0.8955(5)
H157_13 H 0.1874 0.0077 0.9678
H158_13 H 0.1960 0.0279 0.9386
H159_13 H 0.1718 0.0268 0.9552
Ag35_6 Ag 0.148750(17) 0.015290(18) 0.75638(4)
Ag37_6 Ag 0.167670(16) 0.052490(18) 0.84418(4)
N7_13 N 0.1193(2) 0.66473(18) 0.5007(5)
N8_13 N 0.1056(2) 0.6676(2) 0.4619(5)
N9_13 N 0.07928(19) 0.7273(2) 0.4371(5)
N10_13 N 0.0835(2) 0.7448(2) 0.4677(5)
N11_13 N 0.12262(18) 0.73483(17) 0.5920(4)
N12_13 N 0.1302(2) 0.7139(2) 0.6021(5)
N13_13 N 0.07554(17) 0.79234(16) 0.2807(5)
N14_13 N 0.0542(2) 0.78540(19) 0.2799(5)
N15_13 N 0.01164(18) 0.80309(17) 0.1691(4)
N16_13 N 0.01712(17) 0.81665(18) 0.1307(4)
N17_13 N 0.08032(17) 0.83824(18) 0.1254(4)
N18_13 N 0.09298(16) 0.83250(18) 0.1648(4)
N33_13 N 0.16261(18) 0.87424(17) 0.0624(4)
N34_13 N 0.15144(17) 0.89318(15) 0.0607(4)
N43_13 N 0.17416(19) 0.51534(17) 0.3531(5)
N44_13 N 0.1612(2) 0.52337(19) 0.3912(5)
N45_13 N 0.1440(2) 0.58723(19) 0.3921(5)
N46_13 N 0.1524(2) 0.6014(2) 0.3560(5)
N47_6 N 0.1716(2) 0.44450(19) 0.5007(5)
N48_6 N 0.1937(2) 0.4495(2) 0.4979(5)
N55_13 N 0.2086(2) 0.7499(2) 0.6782(5)
N56_13 N 0.1962(2) 0.7601(2) 0.7142(4)
C16_13 C 0.1494(2) 0.6400(2) 0.5236(6)
C17_13 C 0.1320(2) 0.6480(2) 0.4900(5)
C18_13 C 0.1264(2) 0.6392(3) 0.4422(6)
C19_13 C 0.1098(3) 0.6523(2) 0.4271(6)
C20_13 C 0.0965(3) 0.6517(3) 0.3791(6)
C21_13 C 0.0669(3) 0.7186(2) 0.3529(6)
C22_13 C 0.0735(2) 0.7346(2) 0.3911(6)
C23_13 C 0.0741(3) 0.7569(2) 0.3902(6)
C24_13 C 0.0804(2) 0.7623(2) 0.4392(6)
C25_13 C 0.0838(3) 0.7851(3) 0.4603(7)
C26_13 C 0.1327(3) 0.7724(3) 0.6077(7)
C27_13 C 0.1370(3) 0.7482(2) 0.6128(5)
C28_13 C 0.1533(2) 0.7376(2) 0.6353(5)
C29_13 C 0.1478(3) 0.7160(2) 0.6268(6)
C30_13 C 0.1596(3) 0.6951(2) 0.6441(7)
C31_13 C 0.1079(3) 0.7872(3) 0.3317(7)
C32_13 C 0.0846(2) 0.7833(2) 0.3214(6)
C33_13 C 0.0698(2) 0.7704(2) 0.3463(6)
C34_13 C 0.0512(2) 0.7719(2) 0.3191(5)
C35_13 C 0.0294(3) 0.7616(3) 0.3269(6)
C39_13 C 0.0005(2) 0.8179(2) 0.0986(7)
C40_13 C 0.0022(3) 0.8312(3) 0.0522(7)
C41_13 C 0.0801(3) 0.8579(3) 0.0457(6)
C42_13 C 0.0907(2) 0.8513(2) 0.0942(5)
C43_13 C 0.1117(2) 0.8547(2) 0.1135(5)
C44_13 C 0.11197(19) 0.84310(18) 0.1583(5)
C45_13 C 0.1294(2) 0.8407(2) 0.1963(6)
C81_13 C 0.1581(2) 0.8365(2) 0.0857(6)
C82_13 C 0.1501(2) 0.8590(2) 0.0814(5)
C83_13 C 0.1293(2) 0.8667(2) 0.0909(5)
C84_13 C 0.13081(19) 0.8885(2) 0.0773(5)
C85_13 C 0.1140(2) 0.9057(2) 0.0778(5)
C106_13 C 0.1943(3) 0.4816(3) 0.3351(7)
C107_13 C 0.1801(2) 0.4954(2) 0.3671(5)
C108_13 C 0.1722(2) 0.4909(2) 0.4147(5)
C109_13 C 0.1599(3) 0.5091(2) 0.4288(5)
C110_13 C 0.1480(3) 0.5138(3) 0.4746(7)
C111_13 C 0.1239(2) 0.5890(2) 0.4721(5)
C112_13 C 0.1345(2) 0.5992(2) 0.4276(5)
C113_13 C 0.1356(2) 0.62065(18) 0.4153(5)
C114_13 C 0.1475(3) 0.6213(2) 0.3711(5)
C115_13 C 0.1553(4) 0.6397(3) 0.3404(6)
C116_13 C 0.1384(3) 0.4569(3) 0.4641(7)
C117_13 C 0.1615(3) 0.4590(3) 0.4700(6)
C118_13 C 0.1762(3) 0.4725(3) 0.4471(7)
C119_13 C 0.1960(2) 0.4661(3) 0.4664(6)
C120_13 C 0.2179(3) 0.4748(3) 0.4573(6)
C136_13 C 0.2026(3) 0.7290(3) 0.6004(7)
C137_13 C 0.1932(3) 0.7406(4) 0.6461(6)
C138_13 C 0.1725(2) 0.7445(3) 0.6603(6)
C139_13 C 0.1752(2) 0.7577(2) 0.7027(5)
C140_13 C 0.1577(2) 0.7674(3) 0.7340(6)
Ag4_13 Ag 0.12195(2) 0.688720(18) 0.55417(5)
Ag5_13 Ag 0.09025(2) 0.696970(18) 0.45590(5)
Ag6_13 Ag 0.10050(2) 0.739820(19) 0.53409(5)
Ag7_13 Ag 0.083880(18) 0.813210(18) 0.22384(5)
Ag8_13 Ag 0.032900(18) 0.795590(17) 0.22546(4)
Ag9_13 Ag 0.048270(18) 0.828070(17) 0.12762(5)
Ag17_13 Ag 0.189820(16) 0.869550(16) 0.01981(4)
Ag18_13 Ag 0.165170(16) 0.918190(15) 0.02147(4)
Ag22_8 Ag 0.185310(19) 0.535670(19) 0.29860(5)
Ag23_13 Ag 0.15152(2) 0.555210(18) 0.38719(5)
Ag24_8 Ag 0.17321(2) 0.58978(2) 0.30263(4)
Ag28_8 Ag 0.24064(2) 0.75379(2) 0.67559(5)
Ag29_5 Ag 0.21270(2) 0.77661(2) 0.76890(5)
H19_13 H 0.1500 0.6487 0.5535
H20_13 H 0.1466 0.6253 0.5327
H21_13 H 0.1630 0.6408 0.5064
H22_13 H 0.0861 0.6632 0.3796
H23_13 H 0.1058 0.6533 0.3505
H24_13 H 0.0890 0.6381 0.3769
H25_13 H 0.0685 0.7043 0.3664
H26_13 H 0.0521 0.7209 0.3439
H27_13 H 0.0758 0.7201 0.3236
H28_13 H 0.0879 0.7841 0.4950
H29_13 H 0.0950 0.7922 0.4416
H30_13 H 0.0707 0.7931 0.4574
H31_13 H 0.1439 0.7803 0.6243
H32_13 H 0.1323 0.7763 0.5728
H33_13 H 0.1191 0.7758 0.6230
H34_13 H 0.1517 0.6827 0.6325
H35_13 H 0.1739 0.6949 0.6304
H36_13 H 0.1603 0.6949 0.6802
H37_13 H 0.1136 0.7969 0.3069
H38_13 H 0.1156 0.7738 0.3303
H39_13 H 0.1095 0.7935 0.3645
H40_13 H 0.0198 0.7660 0.3005
H41_13 H 0.0237 0.7660 0.3587
H42_13 H 0.0309 0.7462 0.3264
H46_13 H 0.0156 0.8390 0.0527
H48_13 H 0.0019 0.8219 0.0233
H49_13 H 0.0654 0.8530 0.0453
H50_13 H 0.0878 0.8517 0.0179
H51_13 H 0.0804 0.8734 0.0428
H52_13 H 0.1246 0.8315 0.2229
H53_13 H 0.1330 0.8546 0.2097
H54_13 H 0.1419 0.8346 0.1806
H94_13 H 0.2047 0.8262 0.0126
H97_13 H 0.1730 0.8360 0.0762
H98_13 H 0.1566 0.8317 0.1199
H99_13 H 0.1498 0.8273 0.0640
H100_13 H 0.1201 0.9190 0.0657
H101_13 H 0.1022 0.9015 0.0566
H102_13 H 0.1089 0.9077 0.1116
H103_13 H 0.1465 0.9615 0.0122
H127_13 H 0.1970 0.4888 0.3036
H128_13 H 0.1873 0.4681 0.3289
H129_13 H 0.2077 0.4792 0.3521
H130_13 H 0.1415 0.5278 0.4721
H131_13 H 0.1577 0.5134 0.5028
H132_13 H 0.1369 0.5031 0.4792
H133_13 H 0.1254 0.5736 0.4701
H134_13 H 0.1089 0.5927 0.4725
H135_13 H 0.1306 0.5941 0.5024
H136_13 H 0.1629 0.6344 0.3115
H137_13 H 0.1648 0.6485 0.3603
H138_13 H 0.1432 0.6483 0.3296
H139_13 H 0.1332 0.4457 0.4857
H140_13 H 0.1351 0.4535 0.4298
H141_13 H 0.1316 0.4703 0.4730
H142_13 H 0.2283 0.4664 0.4756
H143_13 H 0.2185 0.4895 0.4685
H144_13 H 0.2211 0.4742 0.4220
H163_13 H 0.2180 0.7289 0.6027
H164_13 H 0.1974 0.7144 0.5997
H165_13 H 0.1983 0.7363 0.5703
H166_13 H 0.1640 0.7756 0.7608
H167_13 H 0.1490 0.7766 0.7135
H168_13 H 0.1490 0.7561 0.7480
N63_8 N 0.19450(19) 0.5784(2) 0.2507(5)
N64_8 N 0.1995(2) 0.5563(2) 0.2479(5)
N68_5 N 0.22780(18) 0.7965(2) 0.8212(5)
N70_8 N 0.2723(2) 0.7608(2) 0.6667(5)
Ag33_6 Ag 0.214330(19) 0.435310(19) 0.54860(5)
Ag34_6 Ag 0.16022(2) 0.42321(2) 0.55263(4)
N31_13 N 0.22035(18) 0.87553(18) 0.9343(4)
N32_13 N 0.21302(18) 0.86028(17) 0.9701(5)
N35_13 N 0.17803(18) 0.94111(16) 0.9743(4)
N36_13 N 0.19480(17) 0.93667(16) 0.9433(5)
N58_8 N 0.2492(2) 0.8018(2) 0.8158(5)
C76_13 C 0.2390(3) 0.8765(2) 0.8518(6)
C77_13 C 0.2295(2) 0.8646(2) 0.8961(5)
C78_13 C 0.2281(2) 0.8431(2) 0.9064(6)
C79_13 C 0.2178(2) 0.8408(2) 0.9517(6)
C80_13 C 0.2120(3) 0.8216(3) 0.9827(7)
C86_13 C 0.1509(3) 0.9704(2) 0.9845(7)
C87_13 C 0.1697(2) 0.9603(2) 0.9590(5)
C88_13 C 0.1813(2) 0.9682(2) 0.9163(6)
C89_13 C 0.1968(2) 0.9520(2) 0.9085(5)
C90_13 C 0.2139(3) 0.9508(3) 0.8692(6)
C133_13 C 0.1775(2) 0.9865(2) 0.8841(5)
C134_13 C 0.1707(2) 0.9856(2) 0.8334(6)
C135_13 C 0.1668(3) 0.9665(2) 0.8012(6)
C141_13 C 0.1949(3) 0.8080(3) 0.8620(6)
C142_13 C 0.2180(3) 0.8101(3) 0.8532(6)
C143_13 C 0.2326(2) 0.8251(2) 0.8711(5)
C144_13 C 0.2520(2) 0.8192(3) 0.8476(6)
C145_13 C 0.2743(3) 0.8286(3) 0.8522(7)
C150_13 C 0.00565(19) 0.5280(2) 0.8336(5)
Ag16_13 Ag 0.209080(17) 0.906280(16) 0.94204(4)
H81_13 H 0.0020 0.6015 0.8988
H91_13 H 0.2372 0.8918 0.8567
H92_13 H 0.2541 0.8732 0.8492
H93_13 H 0.2318 0.8722 0.8215
H95_13 H 0.2028 0.8122 0.9637
H96_13 H 0.2250 0.8140 0.9919
H104_13 H 0.1549 0.9844 0.9968
H105_13 H 0.1392 0.9718 0.9611
H106_13 H 0.2222 0.9380 0.8740
H107_13 H 0.2073 0.9506 0.8365
H108_13 H 0.2231 0.9632 0.8718
H160_13 H 0.1624 0.9712 0.7683
H161_13 H 0.1798 0.9582 0.7986
H162_13 H 0.1556 0.9579 0.8159
H169_13 H 0.1895 0.7958 0.8438
H170_13 H 0.1923 0.8061 0.8973
H171_13 H 0.1877 0.8208 0.8506
H172_13 H 0.2840 0.8208 0.8307
H173_13 H 0.2740 0.8434 0.8424
H174_13 H 0.2791 0.8274 0.8865
H178_13 H 0.0119 0.5142 0.8412
H180_13 H 0.0169 0.5383 0.8282
Ag40_8 Ag 0.26716(2) 0.78695(2) 0.76199(5)
Ag31_8 Ag 0.678050(16) 0.011560(16) 0.23368(4)
N1_13 N 0.78977(17) 0.75526(17) 0.1910(4)
N2_13 N 0.79484(18) 0.73342(16) 0.1916(4)
N3_13 N 0.77137(17) 0.69567(18) 0.3076(4)
N4_13 N 0.75981(17) 0.70401(18) 0.3462(4)
N5_13 N 0.75446(18) 0.77034(18) 0.3548(4)
N6_13 N 0.76089(19) 0.78174(17) 0.3128(5)
N19_13 N 0.93001(17) 0.78950(17) 0.0708(4)
N20_13 N 0.94236(17) 0.78110(16) 0.0332(4)
N23_13 N 0.86070(16) 0.75154(16) 0.0426(4)
N24_13 N 0.8679(2) 0.76520(17) 0.0775(4)
N37_13 N 0.70781(17) 0.91619(18) 0.4027(4)
N38_13 N 0.71506(16) 0.93331(15) 0.4319(4)
N39_8 N 0.67393(17) 0.98762(16) 0.2865(4)
N40_8 N 0.65411(17) 0.97828(16) 0.2983(4)
N41_13 N 0.75391(17) 0.85371(17) 0.4546(4)
N42_13 N 0.73869(18) 0.85877(17) 0.4196(4)
N49_13 N 0.77396(17) 0.62383(18) 0.4547(4)
N50_13 N 0.79572(18) 0.62973(17) 0.4494(4)
C1_13 C 0.8020(2) 0.7884(2) 0.1489(5)
C2_13 C 0.8042(2) 0.7647(2) 0.1584(5)
C3_13 C 0.8172(2) 0.74903(19) 0.1384(4)
C4_13 C 0.81179(19) 0.7303(2) 0.1596(5)
C5_13 C 0.8208(3) 0.7081(2) 0.1525(6)
C6_13 C 0.7928(2) 0.6622(2) 0.2907(5)
C7_13 C 0.7792(2) 0.6763(2) 0.3226(5)
C8_13 C 0.77120(18) 0.67170(19) 0.3717(5)
C9_13 C 0.7593(2) 0.6896(2) 0.3843(5)
C10_13 C 0.7479(3) 0.6945(2) 0.4329(6)
C11_13 C 0.7417(3) 0.7758(2) 0.4405(6)
C12_13 C 0.7497(2) 0.7847(2) 0.3921(5)
C13_13 C 0.7538(2) 0.8049(2) 0.3757(5)
C14_13 C 0.7607(2) 0.8032(2) 0.3257(5)
C15_13 C 0.7684(3) 0.8200(2) 0.2907(6)
C36_13 C 0.9806(3) 0.7806(3) 0.1941(7)
C37_13 C 0.9916(2) 0.7962(2) 0.1599(5)
C38_13 C 0.9840(2) 0.8042(2) 0.1148(5)
C46_13 C 0.9338(2) 0.8096(2) 0.1504(5)
C47_13 C 0.9431(2) 0.7995(2) 0.1049(5)
C48_13 C 0.9643(2) 0.7982(2) 0.0890(6)
C49_13 C 0.9628(2) 0.7864(2) 0.0437(5)
C50_13 C 0.9812(3) 0.7799(3) 0.0092(7)
C56_13 C 0.8292(2) 0.7288(2) 0.0272(5)
C57_13 C 0.84100(19) 0.7440(2) 0.0588(5)
C58_13 C 0.83610(19) 0.7538(2) 0.1063(5)
C59_13 C 0.85340(19) 0.76686(18) 0.1158(4)
C60_13 C 0.8579(3) 0.7808(2) 0.1604(6)
C91_13 C 0.6834(2) 0.9082(2) 0.3312(5)
C92_13 C 0.69369(19) 0.9238(2) 0.3683(5)
C93_13 C 0.6916(2) 0.9460(2) 0.3730(5)
C94_13 C 0.7046(2) 0.9511(2) 0.4141(5)
C95_13 C 0.7093(2) 0.9727(2) 0.4391(6)
C96_13 C 0.7121(3) 0.9818(2) 0.3052(6)
C97_13 C 0.68974(19) 0.97703(18) 0.3109(5)
C98_13 C 0.68000(19) 0.9614(2) 0.3402(5)
C99_13 C 0.6582(2) 0.9628(2) 0.3310(5)
C100_13 C 0.6395(3) 0.9498(2) 0.3509(7)
C101_13 C 0.7781(3) 0.8237(2) 0.4776(7)
C102_13 C 0.7610(2) 0.8337(2) 0.4452(6)
C103_13 C 0.7507(2) 0.82568(18) 0.4013(5)
C104_13 C 0.73676(19) 0.84217(19) 0.3884(5)
C105_13 C 0.7207(3) 0.8422(2) 0.3451(6)
C121_13 C 0.7386(3) 0.6360(2) 0.4203(6)
C122_13 C 0.7630(2) 0.63830(19) 0.4251(4)
C123_13 C 0.7772(2) 0.6531(2) 0.4028(5)
C124_13 C 0.7972(2) 0.6475(2) 0.4211(5)
C125_13 C 0.8184(2) 0.6569(2) 0.4108(5)
Ag1_13 Ag 0.772799(16) 0.767481(16) 0.24987(4)
Ag2_13 Ag 0.781094(16) 0.714305(15) 0.24734(4)
Ag3_13 Ag 0.754559(17) 0.736921(16) 0.34812(4)
Ag10_13 Ag 0.898650(16) 0.778440(16) 0.07287(4)
Ag19_13 Ag 0.723230(16) 0.887590(15) 0.41364(4)
Ag20_6 Ag 0.738440(16) 0.928050(16) 0.48368(4)
Ag21_6 Ag 0.762150(16) 0.877910(16) 0.50513(4)
Ag25_8 Ag 0.765290(18) 0.601250(17) 0.50638(4)
Ag26_5 Ag 0.817590(18) 0.615130(16) 0.49691(4)
Ag30_6 Ag 0.96305(2) 0.51716(2) 0.01199(5)
H1_13 H 0.7910 0.7942 0.1702
H2_13 H 0.8155 0.7954 0.1561
H3_13 H 0.7982 0.7908 0.1144
H4_13 H 0.8325 0.7087 0.1289
H5_13 H 0.8259 0.7027 0.1842
H6_13 H 0.8097 0.6988 0.1398
H7_13 H 0.7956 0.6693 0.2593
H8_13 H 0.8061 0.6594 0.3076
H9_13 H 0.7853 0.6489 0.2846
H10_13 H 0.7408 0.7082 0.4303
H11_13 H 0.7374 0.6835 0.4396
H12_13 H 0.7582 0.6950 0.4598
H13_13 H 0.7391 0.7874 0.4636
H14_13 H 0.7286 0.7680 0.4349
H15_13 H 0.7523 0.7662 0.4544
H16_13 H 0.7717 0.8135 0.2588
H17_13 H 0.7574 0.8307 0.2864
H18_13 H 0.7811 0.8266 0.3041
H43_13 H 0.9895 0.7781 0.2230
H44_13 H 0.9783 0.7673 0.1766
H45_13 H 0.9670 0.7864 0.2046
H47_13 H 0.9904 0.8411 0.0508
H55_13 H 0.9184 0.8078 0.1501
H56_13 H 0.9373 0.8247 0.1507
H57_13 H 0.9397 0.8028 0.1799
H59_13 H 0.9911 0.7709 0.0273
H68_13 H 0.8157 0.7351 0.0171
H69_13 H 0.8265 0.7159 0.0458
H70_13 H 0.8460 0.7800 0.1834
H71_13 H 0.8598 0.7954 0.1496
H72_13 H 0.8708 0.7758 0.1768
H109_13 H 0.6882 0.8938 0.3381
H110_13 H 0.6874 0.9122 0.2976
H111_13 H 0.6680 0.9089 0.3344
H112_13 H 0.7192 0.9706 0.4665
H113_13 H 0.6962 0.9788 0.4516
H114_13 H 0.7156 0.9823 0.4149
H115_13 H 0.7138 0.9938 0.2826
H116_13 H 0.7194 0.9695 0.2918
H117_13 H 0.7181 0.9855 0.3374
H118_13 H 0.6264 0.9549 0.3363
H119_13 H 0.6389 0.9512 0.3868
H120_13 H 0.6415 0.9349 0.3422
H121_13 H 0.7815 0.8334 0.5047
H122_13 H 0.7908 0.8212 0.4578
H123_13 H 0.7729 0.8103 0.4910
H124_13 H 0.7129 0.8556 0.3450
H125_13 H 0.7107 0.8305 0.3493
H126_13 H 0.7282 0.8406 0.3139
H145_13 H 0.7337 0.6242 0.4407
H146_13 H 0.7318 0.6491 0.4315
H147_13 H 0.7349 0.6334 0.3858
H148_13 H 0.8293 0.6491 0.4289
H149_13 H 0.8214 0.6561 0.3754
H150_13 H 0.8185 0.6717 0.4213
N61_6 N 0.76238(16) 0.92393(17) 0.5365(4)
N62_6 N 0.77172(16) 0.90411(17) 0.5483(4)
N65_5 N 0.83980(18) 0.60476(17) 0.5490(4)
N67_8 N 0.75567(17) 0.5826(2) 0.5664(5)
N69_6 N 0.9482(2) 0.4992(2) 0.0658(5)
Ag32_8 Ag 0.627910(16) 0.987850(16) 0.25513(4)
N21_13 N 0.91978(16) 0.74074(16) 0.9229(4)
N22_13 N 0.89988(18) 0.73242(19) 0.9253(4)
N25_13 N 0.93007(19) 0.66996(17) 0.7772(4)
N26_13 N 0.94501(19) 0.66497(19) 0.8142(4)
N27_13 N 0.97088(17) 0.60371(19) 0.8111(4)
N28_13 N 0.96315(18) 0.58878(19) 0.7780(4)
N29_13 N 0.91945(17) 0.60714(19) 0.6665(4)
N30_13 N 0.9142(2) 0.62788(17) 0.6655(4)
N52_13 N 0.83421(17) 0.59080(15) 0.5867(4)
N59_13 N 0.9757(2) 0.5333(2) 0.9512(4)
N60_6 N 0.9892(2) 0.5223(2) 0.9167(5)
C51_13 C 0.9556(3) 0.7333(2) 0.8844(6)
C52_13 C 0.9321(2) 0.7277(2) 0.8927(6)
C53_13 C 0.9194(2) 0.7111(2) 0.8759(5)
C54_13 C 0.8990(2) 0.7151(2) 0.8960(6)
C55_13 C 0.8787(3) 0.7015(3) 0.8893(7)
C61_13 C 0.9016(3) 0.6983(2) 0.7625(5)
C62_13 C 0.9193(2) 0.6878(2) 0.7939(6)
C63_13 C 0.9270(2) 0.6930(2) 0.8442(6)
C64_13 C 0.9426(2) 0.6785(2) 0.8533(5)
C65_13 C 0.9559(3) 0.6755(3) 0.8989(5)
C66_13 C 0.9872(3) 0.6055(3) 0.8947(6)
C67_13 C 0.9778(3) 0.5936(2) 0.8514(5)
C68_13 C 0.9756(2) 0.5713(3) 0.8443(5)
C69_13 C 0.9666(2) 0.5694(2) 0.7989(6)
C70_13 C 0.9604(3) 0.5494(3) 0.7693(7)
C71_13 C 0.9063(2) 0.5718(3) 0.6398(7)
C72_13 C 0.90448(19) 0.59522(19) 0.6438(4)
C73_13 C 0.8883(2) 0.6084(2) 0.6276(5)
C74_13 C 0.8956(2) 0.6297(2) 0.6417(5)
C75_13 C 0.8839(3) 0.6501(2) 0.6358(7)
C126_13 C 0.8703(3) 0.6274(3) 0.5205(7)
C127_13 C 0.8600(2) 0.61190(19) 0.5561(5)
C128_13 C 0.8676(2) 0.6042(2) 0.6023(5)
C129_13 C 0.8510(3) 0.59040(19) 0.6202(5)
C130_13 C 0.8494(3) 0.5764(3) 0.6671(6)
C146_13 C 0.9551(3) 0.5664(3) 0.9562(6)
C147_13 C 0.9700(3) 0.5520(3) 0.9285(6)
C148_13 C 0.9801(2) 0.5542(2) 0.8809(5)
C149_13 C 0.9915(2) 0.5353(2) 0.8776(6)
Ag11_13 Ag 0.929730(17) 0.762960(17) 0.97645(4)
Ag12_13 Ag 0.879090(16) 0.743270(16) 0.98085(4)
Ag13_13 Ag 0.924990(18) 0.649860(18) 0.71827(4)
Ag14_13 Ag 0.959510(18) 0.635090(18) 0.80846(4)
Ag15_13 Ag 0.943830(17) 0.598370(18) 0.71804(4)
Ag27_8 Ag 0.802490(18) 0.582330(16) 0.59418(4)
H58_13 H 0.9756 0.7721 0.9809
H60_13 H 0.9886 0.7926 0.9977
H61_13 H 0.9621 0.7226 0.8629
H62_13 H 0.9630 0.7335 0.9161
H63_13 H 0.9567 0.7472 0.8688
H64_13 H 0.8670 0.7080 0.9077
H65_13 H 0.8813 0.6872 0.9018
H66_13 H 0.8750 0.7009 0.8543
H67_13 H 0.8376 0.7255 0.9979
H73_13 H 0.9005 0.6910 0.7307
H74_13 H 0.8881 0.6972 0.7800
H75_13 H 0.9050 0.7132 0.7570
H76_13 H 0.9657 0.6637 0.8939
H77_13 H 0.9640 0.6884 0.9054
H78_13 H 0.9468 0.6725 0.9271
H79_13 H 0.9863 0.6207 0.8885
H80_13 H 0.9793 0.6021 0.9248
H82_13 H 0.9640 0.5368 0.7884
H83_13 H 0.9452 0.5496 0.7626
H84_13 H 0.9682 0.5492 0.7381
H85_13 H 0.9196 0.5672 0.6547
H86_13 H 0.8944 0.5651 0.6571
H87_13 H 0.9060 0.5677 0.6050
H88_13 H 0.8925 0.6618 0.6484
H89_13 H 0.8808 0.6525 0.6008
H90_13 H 0.8706 0.6495 0.6543
H151_13 H 0.8609 0.6298 0.4924
H152_13 H 0.8730 0.6408 0.5374
H153_13 H 0.8837 0.6215 0.5088
H154_13 H 0.8357 0.5693 0.6678
H155_13 H 0.8607 0.5658 0.6666
H156_13 H 0.8510 0.5853 0.6965
H175_13 H 0.9514 0.5600 0.9879
H176_13 H 0.9620 0.5801 0.9620
H177_13 H 0.9422 0.5686 0.9367
H179_13 H 0.9970 0.5268 0.8037
N66_8 N 0.77007(18) 0.5772(2) 0.6048(5)
Ag38_6 Ag 0.99621(2) 0.49064(2) 0.92559(5)
N37_14 N 0.66619(18) 0.04219(17) 0.1527(4)
N38_14 N 0.68331(15) 0.03494(16) 0.1819(4)
N39_9 N 0.73762(16) 0.07607(17) 0.0365(4)
N40_9 N 0.72828(16) 0.09589(17) 0.0483(4)
N42_14 N 0.60877(17) 0.01131(18) 0.1696(4)
C10_14 C 0.4445(2) 0.0021(3) 0.1829(6)
C11_14 C 0.5258(2) 0.0083(3) 0.1905(6)
C12_14 C 0.5347(2) 0.0003(2) 0.1421(5)
C91_14 C 0.6582(2) 0.0666(2) 0.0812(5)
C92_14 C 0.6738(2) 0.05631(19) 0.1183(5)
C93_14 C 0.6960(2) 0.0584(2) 0.1230(5)
C94_14 C 0.7011(2) 0.0454(2) 0.1641(5)
C95_14 C 0.7227(2) 0.0407(2) 0.1891(6)
C96_14 C 0.7318(2) 0.0379(3) 0.0552(6)
C97_14 C 0.72703(18) 0.06026(19) 0.0609(5)
C98_14 C 0.7114(2) 0.07000(19) 0.0902(5)
C99_14 C 0.7128(2) 0.0918(2) 0.0810(5)
C100_14 C 0.6998(2) 0.1105(3) 0.1009(7)
C104_14 C 0.59217(19) 0.01324(19) 0.1384(5)
C105_14 C 0.5922(2) 0.0293(3) 0.0951(6)
C121_14 C 0.3860(2) 0.0114(3) 0.1703(6)
Ag19_14 Ag 0.637590(15) 0.026770(16) 0.16364(4)
H10_14 H 0.4582 0.0092 0.1803
H11_14 H 0.4335 0.0126 0.1896
H13_14 H 0.5374 0.0109 0.2136
H14_14 H 0.5180 0.0214 0.1849
H109_14 H 0.6438 0.0618 0.0881
H110_14 H 0.6622 0.0626 0.0476
H111_14 H 0.6589 0.0820 0.0844
H112_14 H 0.7206 0.0308 0.2165
H113_14 H 0.7288 0.0538 0.2016
H114_14 H 0.7323 0.0344 0.1649
H115_14 H 0.7438 0.0362 0.0326
H116_14 H 0.7195 0.0306 0.0418
H117_14 H 0.7355 0.0319 0.0874
H118_14 H 0.7049 0.1236 0.0863
H119_14 H 0.7012 0.1111 0.1368
H120_14 H 0.6849 0.1085 0.0922
H124_14 H 0.6056 0.0371 0.0950
H125_14 H 0.5805 0.0393 0.0993
H126_14 H 0.5906 0.0218 0.0639
H145_14 H 0.3742 0.0163 0.1907
H146_14 H 0.3991 0.0182 0.1815
H147_14 H 0.3834 0.0151 0.1358
Ag32_9 Ag 0.737850(16) 0.122090(16) 0.00513(4)
Ag31_9 Ag 0.761560(16) 0.071950(16) 0.98368(4)
N3_14 N 0.44567(18) 0.97863(17) 0.0576(4)
N4_14 N 0.45401(18) 0.99019(17) 0.0962(4)
N5_14 N 0.52034(18) 0.99554(18) 0.1048(4)
N6_14 N 0.53174(17) 0.98911(19) 0.0628(5)
N7_14 N 0.41473(18) 0.6307(2) 0.2507(5)
N8_14 N 0.4176(2) 0.6444(2) 0.2119(5)
N9_14 N 0.4773(2) 0.67072(19) 0.1871(5)
N10_14 N 0.4948(2) 0.6665(2) 0.2177(5)
N11_14 N 0.48483(17) 0.62738(18) 0.3420(4)
N12_14 N 0.4639(2) 0.6198(2) 0.3521(5)
N13_14 N 0.54234(16) 0.67446(17) 0.0307(5)
N14_14 N 0.53540(19) 0.6958(2) 0.0299(5)
N41_14 N 0.60371(17) 0.99609(17) 0.2046(4)
N43_14 N 0.26534(17) 0.57584(19) 0.1031(5)
N44_14 N 0.27337(19) 0.5888(2) 0.1412(5)
N45_14 N 0.33723(19) 0.6060(2) 0.1421(5)
N46_14 N 0.3514(2) 0.5976(2) 0.1060(5)
N49_14 N 0.37383(18) 0.97604(17) 0.2047(4)
N50_14 N 0.37973(17) 0.95428(18) 0.1994(4)
N55_14 N 0.4999(2) 0.5414(2) 0.4282(5)
N56_14 N 0.5101(2) 0.5538(2) 0.4642(4)
C6_14 C 0.4122(2) 0.9572(2) 0.0407(5)
C7_14 C 0.4263(2) 0.9708(2) 0.0726(5)
C8_14 C 0.42170(19) 0.97880(18) 0.1217(5)
C9_14 C 0.4396(2) 0.9907(2) 0.1343(5)
C13_14 C 0.5549(2) 0.9962(2) 0.1257(5)
C14_14 C 0.5532(2) 0.9893(2) 0.0757(5)
C15_14 C 0.5700(2) 0.9816(3) 0.0407(6)
C16_14 C 0.3900(2) 0.6006(2) 0.2736(6)
C17_14 C 0.3980(2) 0.6180(2) 0.2400(5)
C18_14 C 0.3892(3) 0.6236(2) 0.1922(6)
C19_14 C 0.4023(2) 0.6402(3) 0.1771(6)
C20_14 C 0.4017(3) 0.6535(3) 0.1291(6)
C21_14 C 0.4686(2) 0.6831(3) 0.1029(6)
C22_14 C 0.4846(2) 0.6765(2) 0.1411(6)
C23_14 C 0.5069(2) 0.6759(3) 0.1402(6)
C24_14 C 0.5123(2) 0.6696(2) 0.1892(6)
C25_14 C 0.5351(3) 0.6662(3) 0.2103(7)
C26_14 C 0.5224(3) 0.6173(3) 0.3577(7)
C27_14 C 0.4982(2) 0.6130(3) 0.3628(5)
C28_14 C 0.4876(2) 0.5967(2) 0.3853(5)
C29_14 C 0.4660(2) 0.6022(3) 0.3768(6)
C30_14 C 0.4451(2) 0.5904(3) 0.3941(7)
C31_14 C 0.5372(3) 0.6421(3) 0.0817(7)
C32_14 C 0.5333(2) 0.6654(2) 0.0714(6)
C33_14 C 0.5204(2) 0.6802(2) 0.0963(6)
C34_14 C 0.5219(2) 0.6988(2) 0.0691(5)
C35_14 C 0.5116(3) 0.7206(3) 0.0769(6)
C101_14 C 0.5737(2) 0.9719(3) 0.2276(7)
C102_14 C 0.5837(2) 0.9890(2) 0.1952(6)
C103_14 C 0.57568(18) 0.9993(2) 0.1513(5)
C106_14 C 0.2316(3) 0.5557(3) 0.0851(7)
C107_14 C 0.2454(2) 0.5699(2) 0.1171(5)
C108_14 C 0.2409(2) 0.5778(2) 0.1647(5)
C109_14 C 0.2591(2) 0.5901(3) 0.1788(5)
C110_14 C 0.2638(3) 0.6020(3) 0.2246(7)
C111_14 C 0.3390(2) 0.6261(2) 0.2221(5)
C112_14 C 0.3492(2) 0.6155(2) 0.1776(5)
C113_14 C 0.37065(18) 0.6144(2) 0.1653(5)
C114_14 C 0.3713(2) 0.6025(3) 0.1211(5)
C115_14 C 0.3897(3) 0.5947(4) 0.0904(6)
C116_14 C 0.2069(3) 0.6116(3) 0.2141(7)
C117_14 C 0.2090(3) 0.5885(3) 0.2200(6)
C118_14 C 0.2225(3) 0.5738(3) 0.1971(7)
C119_14 C 0.2161(3) 0.5540(2) 0.2164(6)
C120_14 C 0.2248(3) 0.5321(3) 0.2073(6)
C122_14 C 0.38830(19) 0.9870(2) 0.1751(4)
C123_14 C 0.4031(2) 0.9728(2) 0.1528(5)
C124_14 C 0.3975(2) 0.9528(2) 0.1711(5)
C125_14 C 0.4069(2) 0.9316(2) 0.1608(5)
C136_14 C 0.4790(3) 0.5474(3) 0.3504(7)
C137_14 C 0.4906(4) 0.5568(3) 0.3961(6)
C138_14 C 0.4945(3) 0.5775(2) 0.4103(6)
C139_14 C 0.5077(2) 0.5748(2) 0.4527(5)
C140_14 C 0.5174(3) 0.5923(2) 0.4840(6)
Ag3_14 Ag 0.486921(16) 0.995441(17) 0.09812(4)
Ag4_14 Ag 0.438720(18) 0.62805(2) 0.30417(5)
Ag5_14 Ag 0.446970(18) 0.65975(2) 0.20590(5)
Ag6_14 Ag 0.489820(19) 0.64950(2) 0.28409(5)
Ag22_9 Ag 0.285670(19) 0.564690(19) 0.04860(5)
Ag23_14 Ag 0.305210(18) 0.59848(2) 0.13719(5)
Ag24_9 Ag 0.33978(2) 0.57679(2) 0.05263(4)
Ag25_9 Ag 0.351250(17) 0.984710(18) 0.25638(4)
Ag26_6 Ag 0.365130(16) 0.932410(18) 0.24691(4)
Ag28_9 Ag 0.50379(2) 0.50936(2) 0.42559(5)
Ag29_6 Ag 0.52661(2) 0.53730(2) 0.51890(5)
H7_14 H 0.4193 0.9544 0.0093
H8_14 H 0.4094 0.9439 0.0576
H9_14 H 0.3989 0.9647 0.0346
H12_14 H 0.4450 0.9918 0.2098
H15_14 H 0.5162 0.9977 0.2044
H16_14 H 0.5635 0.9783 0.0088
H17_14 H 0.5807 0.9926 0.0364
H18_14 H 0.5766 0.9689 0.0541
H19_14 H 0.3987 0.6000 0.3035
H20_14 H 0.3753 0.6034 0.2827
H21_14 H 0.3908 0.5870 0.2564
H22_14 H 0.4132 0.6639 0.1296
H23_14 H 0.4033 0.6442 0.1005
H24_14 H 0.3881 0.6610 0.1269
H25_14 H 0.4543 0.6815 0.1164
H26_14 H 0.4709 0.6979 0.0939
H27_14 H 0.4701 0.6742 0.0736
H28_14 H 0.5341 0.6621 0.2450
H29_14 H 0.5422 0.6550 0.1916
H30_14 H 0.5431 0.6793 0.2074
H31_14 H 0.5303 0.6061 0.3743
H32_14 H 0.5263 0.6177 0.3228
H33_14 H 0.5258 0.6309 0.3730
H34_14 H 0.4327 0.5983 0.3825
H35_14 H 0.4449 0.5761 0.3804
H36_14 H 0.4449 0.5897 0.4302
H37_14 H 0.5469 0.6364 0.0569
H38_14 H 0.5238 0.6344 0.0803
H39_14 H 0.5435 0.6405 0.1145
H40_14 H 0.5160 0.7302 0.0505
H41_14 H 0.5160 0.7263 0.1087
H42_14 H 0.4962 0.7191 0.0764
H121_14 H 0.5834 0.9685 0.2547
H122_14 H 0.5712 0.9592 0.2078
H123_14 H 0.5603 0.9771 0.2410
H127_14 H 0.2388 0.5530 0.0536
H128_14 H 0.2181 0.5627 0.0789
H129_14 H 0.2292 0.5423 0.1021
H130_14 H 0.2778 0.6085 0.2221
H131_14 H 0.2634 0.5923 0.2528
H132_14 H 0.2531 0.6131 0.2292
H133_14 H 0.3236 0.6246 0.2201
H134_14 H 0.3427 0.6411 0.2225
H135_14 H 0.3441 0.6194 0.2524
H136_14 H 0.3844 0.5871 0.0615
H137_14 H 0.3985 0.5852 0.1103
H138_14 H 0.3983 0.6068 0.0796
H139_14 H 0.1957 0.6168 0.2357
H140_14 H 0.2035 0.6149 0.1798
H141_14 H 0.2203 0.6184 0.2230
H142_14 H 0.2164 0.5217 0.2256
H143_14 H 0.2395 0.5315 0.2185
H144_14 H 0.2242 0.5289 0.1720
H148_14 H 0.3991 0.9207 0.1789
H149_14 H 0.4061 0.9286 0.1254
H150_14 H 0.4217 0.9315 0.1713
H163_14 H 0.4789 0.5320 0.3527
H164_14 H 0.4644 0.5526 0.3497
H165_14 H 0.4863 0.5517 0.3203
H166_14 H 0.5256 0.5860 0.5108
H167_14 H 0.5266 0.6010 0.4635
H168_14 H 0.5061 0.6010 0.4980
N63_9 N 0.3284(2) 0.55550(19) 0.0007(5)
N65_6 N 0.35476(17) 0.91020(18) 0.2990(4)
N67_9 N 0.3326(2) 0.99433(17) 0.3164(5)
N68_6 N 0.5465(2) 0.52220(18) 0.5712(5)
N70_9 N 0.5108(2) 0.4777(2) 0.4167(5)
N1_14 N 0.50526(17) 0.96023(17) 0.9410(4)
N2_14 N 0.48342(16) 0.95516(18) 0.9416(4)
N15_14 N 0.55309(17) 0.73836(18) 0.9191(4)
N16_14 N 0.56665(18) 0.73288(17) 0.8807(4)
N17_14 N 0.58824(18) 0.66968(17) 0.8754(4)
N18_14 N 0.58250(18) 0.65702(16) 0.9148(4)
N19_14 N 0.53950(17) 0.81999(17) 0.8208(4)
N20_14 N 0.53110(16) 0.80764(17) 0.7832(4)
N21_14 N 0.49074(16) 0.83022(16) 0.6729(4)
N22_14 N 0.48242(19) 0.85012(18) 0.6753(4)
N23_14 N 0.50154(16) 0.88930(16) 0.7926(4)
N24_14 N 0.51520(17) 0.8821(2) 0.8275(4)
N25_14 N 0.41996(17) 0.81993(19) 0.5272(4)
N26_14 N 0.41497(19) 0.80499(19) 0.5642(4)
N27_14 N 0.35371(19) 0.77912(17) 0.5611(4)
N28_14 N 0.33878(19) 0.78685(18) 0.5280(4)
N29_14 N 0.35714(19) 0.83055(17) 0.4165(4)
N30_14 N 0.37788(17) 0.8358(2) 0.4155(4)
N31_14 N 0.62553(18) 0.52965(18) 0.6843(4)
N32_14 N 0.61028(17) 0.53698(18) 0.7201(5)
N33_14 N 0.62424(17) 0.58739(18) 0.8124(4)
N34_14 N 0.64318(15) 0.59856(17) 0.8107(4)
N35_14 N 0.69111(16) 0.57197(18) 0.7243(4)
N36_14 N 0.68667(16) 0.55520(17) 0.6933(5)
N52_14 N 0.34080(15) 0.91579(17) 0.3367(4)
N58_9 N 0.5518(2) 0.5008(2) 0.5658(5)
N59_14 N 0.2833(2) 0.7743(2) 0.7012(4)
C1_14 C 0.5384(2) 0.9480(2) 0.8989(5)
C2_14 C 0.5147(2) 0.9458(2) 0.9084(5)
C3_14 C 0.49903(19) 0.9328(2) 0.8884(4)
C4_14 C 0.4803(2) 0.93821(19) 0.9096(5)
C5_14 C 0.4581(2) 0.9292(3) 0.9025(6)
C36_14 C 0.5306(3) 0.7694(3) 0.9441(7)
C37_14 C 0.5462(2) 0.7584(2) 0.9099(5)
C38_14 C 0.5542(2) 0.7660(2) 0.8648(5)
C39_14 C 0.5679(2) 0.7495(2) 0.8486(7)
C40_14 C 0.5812(3) 0.7478(3) 0.8022(7)
C41_14 C 0.6079(3) 0.6699(3) 0.7957(6)
C42_14 C 0.6013(2) 0.6593(2) 0.8442(5)
C43_14 C 0.6047(2) 0.6383(2) 0.8635(5)
C44_14 C 0.59310(18) 0.63803(19) 0.9083(5)
C45_14 C 0.5907(2) 0.6206(2) 0.9463(6)
C46_14 C 0.5596(2) 0.8162(2) 0.9004(5)
C47_14 C 0.5495(2) 0.8069(2) 0.8549(5)
C48_14 C 0.5482(2) 0.7857(2) 0.8390(6)
C49_14 C 0.5364(2) 0.7872(2) 0.7937(5)
C50_14 C 0.5299(3) 0.7688(3) 0.7592(7)
C51_14 C 0.4833(2) 0.7944(3) 0.6344(6)
C52_14 C 0.4777(2) 0.8179(2) 0.6427(6)
C53_14 C 0.4611(2) 0.8306(2) 0.6259(5)
C54_14 C 0.4651(2) 0.8510(2) 0.6460(6)
C55_14 C 0.4515(3) 0.8713(3) 0.6393(7)
C56_14 C 0.4788(2) 0.9208(2) 0.7772(5)
C57_14 C 0.4940(2) 0.90900(19) 0.8088(5)
C58_14 C 0.5038(2) 0.91390(19) 0.8563(5)
C59_14 C 0.51686(18) 0.89660(19) 0.8658(4)
C60_14 C 0.5308(2) 0.8921(3) 0.9104(6)
C61_14 C 0.4483(2) 0.8484(3) 0.5125(5)
C62_14 C 0.4378(2) 0.8307(2) 0.5439(6)
C63_14 C 0.4430(2) 0.8230(2) 0.5942(6)
C64_14 C 0.4285(2) 0.8074(2) 0.6033(5)
C65_14 C 0.4255(3) 0.7941(3) 0.6489(5)
C66_14 C 0.3555(3) 0.7628(3) 0.6447(6)
C67_14 C 0.3436(2) 0.7722(3) 0.6014(5)
C68_14 C 0.3213(3) 0.7744(2) 0.5943(5)
C69_14 C 0.3194(2) 0.7834(2) 0.5489(6)
C70_14 C 0.2994(3) 0.7896(3) 0.5193(7)
C71_14 C 0.3218(3) 0.8437(2) 0.3898(7)
C72_14 C 0.34522(19) 0.84552(19) 0.3938(4)
C73_14 C 0.3584(2) 0.8617(2) 0.3776(5)
C74_14 C 0.3797(2) 0.8544(2) 0.3917(5)
C75_14 C 0.4001(2) 0.8661(3) 0.3858(7)
C76_14 C 0.6265(2) 0.5110(3) 0.6018(6)
C77_14 C 0.6146(2) 0.5205(2) 0.6461(5)
C78_14 C 0.5931(2) 0.5219(2) 0.6564(6)
C79_14 C 0.5908(2) 0.5322(2) 0.7017(6)
C80_14 C 0.5716(3) 0.5380(3) 0.7327(7)
C81_14 C 0.5865(2) 0.5919(2) 0.8357(6)
C82_14 C 0.6090(2) 0.5999(2) 0.8314(5)
C83_14 C 0.6167(2) 0.6207(2) 0.8409(5)
C84_14 C 0.6385(2) 0.61919(19) 0.8273(5)
C85_14 C 0.6557(2) 0.6360(2) 0.8278(5)
C86_14 C 0.7204(2) 0.5991(3) 0.7345(7)
C87_14 C 0.7103(2) 0.5803(2) 0.7090(5)
C88_14 C 0.7182(2) 0.5687(2) 0.6663(6)
C89_14 C 0.7020(2) 0.5532(2) 0.6585(5)
C90_14 C 0.7008(3) 0.5361(3) 0.6192(6)
C126_14 C 0.3774(3) 0.8797(3) 0.2705(7)
C127_14 C 0.36190(19) 0.8900(2) 0.3061(5)
C128_14 C 0.3542(2) 0.8824(2) 0.3523(5)
C129_14 C 0.34040(19) 0.8990(3) 0.3702(5)
C130_14 C 0.3264(3) 0.9006(3) 0.4171(6)
C131_14 C 0.7685(2) 0.5661(2) 0.6934(6)
C132_14 C 0.75816(18) 0.57169(18) 0.6455(5)
C133_14 C 0.7365(2) 0.5725(2) 0.6341(5)
C134_14 C 0.7356(2) 0.5793(2) 0.5834(6)
C135_14 C 0.7165(2) 0.5832(3) 0.5512(6)
C141_14 C 0.5580(3) 0.5551(3) 0.6120(6)
C142_14 C 0.5601(3) 0.5320(3) 0.6032(6)
C143_14 C 0.5751(2) 0.5174(2) 0.6211(5)
C144_14 C 0.5692(3) 0.4980(2) 0.5976(6)
C145_14 C 0.5786(3) 0.4757(3) 0.6022(7)
C146_14 C 0.3164(3) 0.7949(3) 0.7062(6)
C147_14 C 0.3020(3) 0.7800(3) 0.6785(6)
C148_14 C 0.3042(2) 0.7699(2) 0.6309(5)
C149_14 C 0.2853(2) 0.7585(2) 0.6276(6)
C150_14 C 0.2780(2) 0.74435(19) 0.5836(5)
Ag1_14 Ag 0.517481(16) 0.977201(16) 0.99987(4)
Ag2_14 Ag 0.464305(15) 0.968906(16) 0.99734(4)
Ag7_14 Ag 0.563210(18) 0.666120(18) 0.97384(5)
Ag8_14 Ag 0.545590(17) 0.717100(18) 0.97546(4)
Ag9_14 Ag 0.578070(17) 0.701730(18) 0.87762(5)
Ag10_14 Ag 0.528440(16) 0.851350(16) 0.82287(4)
Ag11_14 Ag 0.512960(17) 0.820270(17) 0.72645(4)
Ag12_14 Ag 0.493270(16) 0.870910(16) 0.73085(4)
Ag13_14 Ag 0.399860(18) 0.825010(18) 0.46827(4)
Ag14_14 Ag 0.385090(18) 0.790490(18) 0.55846(4)
Ag15_14 Ag 0.348370(18) 0.806170(17) 0.46804(4)
Ag16_14 Ag 0.656280(16) 0.540920(17) 0.69204(4)
Ag17_14 Ag 0.619550(16) 0.560180(16) 0.76981(4)
Ag18_14 Ag 0.668190(15) 0.584830(16) 0.77147(4)
Ag27_9 Ag 0.332330(16) 0.947510(18) 0.34418(4)
H1_14 H 0.5442 0.9590 0.9202
H2_14 H 0.5454 0.9345 0.9061
H3_14 H 0.5408 0.9518 0.8644
H4_14 H 0.4587 0.9175 0.8789
H5_14 H 0.4527 0.9241 0.9342
H6_14 H 0.4488 0.9403 0.8898
H43_14 H 0.5281 0.7605 0.9730
H44_14 H 0.5173 0.7717 0.9266
H45_14 H 0.5364 0.7830 0.9546
H46_14 H 0.5890 0.7344 0.8027
H47_14 H 0.5911 0.7596 0.8008
H48_14 H 0.5719 0.7481 0.7733
H49_14 H 0.6030 0.6846 0.7953
H50_14 H 0.6017 0.6622 0.7679
H51_14 H 0.6234 0.6696 0.7928
H52_14 H 0.5815 0.6254 0.9729
H53_14 H 0.6046 0.6170 0.9597
H54_14 H 0.5846 0.6081 0.9306
H55_14 H 0.5578 0.8316 0.9001
H56_14 H 0.5747 0.8127 0.9007
H57_14 H 0.5528 0.8103 0.9299
H58_14 H 0.5221 0.7744 0.7309
H59_14 H 0.5209 0.7589 0.7773
H60_14 H 0.5426 0.7614 0.7477
H61_14 H 0.4726 0.7879 0.6129
H62_14 H 0.4835 0.7870 0.6661
H63_14 H 0.4972 0.7933 0.6188
H64_14 H 0.4580 0.8830 0.6577
H65_14 H 0.4372 0.8687 0.6518
H66_14 H 0.4509 0.8750 0.6043
H67_14 H 0.4755 0.9124 0.7479
H68_14 H 0.4851 0.9343 0.7671
H69_14 H 0.4659 0.9235 0.7958
H70_14 H 0.5300 0.9040 0.9334
H71_14 H 0.5454 0.8902 0.8996
H72_14 H 0.5258 0.8792 0.9268
H73_14 H 0.4410 0.8495 0.4807
H74_14 H 0.4472 0.8619 0.5300
H75_14 H 0.4632 0.8450 0.5070
H76_14 H 0.4137 0.7843 0.6439
H77_14 H 0.4384 0.7860 0.6554
H78_14 H 0.4225 0.8032 0.6771
H79_14 H 0.3707 0.7637 0.6385
H80_14 H 0.3521 0.7707 0.6748
H81_14 H 0.3515 0.7480 0.6488
H82_14 H 0.2868 0.7860 0.5384
H83_14 H 0.2996 0.8048 0.5126
H84_14 H 0.2992 0.7818 0.4881
H85_14 H 0.3172 0.8304 0.4047
H86_14 H 0.3151 0.8556 0.4071
H87_14 H 0.3177 0.8440 0.3550
H88_14 H 0.4118 0.8575 0.3984
H89_14 H 0.4025 0.8692 0.3508
H90_14 H 0.3995 0.8794 0.4043
H91_14 H 0.6418 0.5128 0.6067
H92_14 H 0.6232 0.4959 0.5992
H93_14 H 0.6222 0.5182 0.5715
H94_14 H 0.5762 0.5453 0.7626
H95_14 H 0.5622 0.5472 0.7137
H96_14 H 0.5640 0.5250 0.7419
H97_14 H 0.5860 0.5770 0.8262
H98_14 H 0.5817 0.5934 0.8699
H99_14 H 0.5773 0.6002 0.8140
H100_14 H 0.6690 0.6299 0.8157
H101_14 H 0.6515 0.6478 0.8066
H102_14 H 0.6577 0.6411 0.8616
H103_14 H 0.7115 0.6035 0.7622
H104_14 H 0.7344 0.5951 0.7468
H105_14 H 0.7218 0.6108 0.7111
H106_14 H 0.6880 0.5278 0.6240
H107_14 H 0.7006 0.5427 0.5865
H108_14 H 0.7132 0.5269 0.6218
H151_14 H 0.3798 0.8891 0.2424
H152_14 H 0.3908 0.8770 0.2874
H153_14 H 0.3715 0.8663 0.2588
H154_14 H 0.3193 0.9143 0.4178
H155_14 H 0.3158 0.8893 0.4166
H156_14 H 0.3353 0.8990 0.4465
H157_14 H 0.7577 0.5626 0.7178
H158_14 H 0.7779 0.5540 0.6886
H159_14 H 0.7768 0.5782 0.7052
H160_14 H 0.7212 0.5876 0.5183
H161_14 H 0.7082 0.5702 0.5486
H162_14 H 0.7079 0.5944 0.5659
H169_14 H 0.5458 0.5605 0.5938
H170_14 H 0.5561 0.5577 0.6473
H171_14 H 0.5708 0.5623 0.6006
H172_14 H 0.5708 0.4660 0.5807
H173_14 H 0.5934 0.4760 0.5924
H174_14 H 0.5774 0.4709 0.6365
H175_14 H 0.3100 0.7986 0.7379
H176_14 H 0.3301 0.7880 0.7120
H177_14 H 0.3186 0.8078 0.6867
H178_14 H 0.2642 0.7381 0.5912
H179_14 H 0.2768 0.7530 0.5537
H180_14 H 0.2883 0.7331 0.5782
N64_9 N 0.3063(2) 0.5505(2) 0.9979(5)
N66_9 N 0.3272(2) 0.97993(18) 0.3548(5)
Ag40_9 Ag 0.53695(2) 0.48284(2) 0.51199(5)
N7_15 N 0.3807(2) 0.33527(18) 0.0007(5)
N11_15 N 0.37738(18) 0.26517(17) 0.0920(4)
N12_15 N 0.3698(2) 0.2861(2) 0.1021(5)
N55_15 N 0.2914(2) 0.2501(2) 0.1782(5)
N56_15 N 0.3038(2) 0.2399(2) 0.2142(4)
C16_15 C 0.3506(2) 0.3600(2) 0.0236(6)
C26_15 C 0.3673(3) 0.2276(3) 0.1077(7)
C27_15 C 0.3630(3) 0.2518(2) 0.1128(5)
C28_15 C 0.3467(2) 0.2624(2) 0.1353(5)
C29_15 C 0.3522(3) 0.2840(2) 0.1268(6)
C30_15 C 0.3404(3) 0.3049(2) 0.1441(7)
C136_15 C 0.2974(3) 0.2710(3) 0.1004(7)
C137_15 C 0.3068(3) 0.2594(4) 0.1461(6)
C138_15 C 0.3275(2) 0.2555(3) 0.1603(6)
C139_15 C 0.3248(2) 0.2423(2) 0.2027(5)
C140_15 C 0.3423(2) 0.2326(3) 0.2340(6)
Ag4_15 Ag 0.37805(2) 0.311280(18) 0.05417(5)
Ag6_15 Ag 0.39950(2) 0.260180(19) 0.03409(5)
Ag25_10 Ag 0.734710(18) 0.398750(17) 0.00638(4)
Ag28_10 Ag 0.25936(2) 0.24621(2) 0.17559(5)
Ag29_7 Ag 0.28730(2) 0.22339(2) 0.26890(5)
H19_15 H 0.3500 0.3513 0.0535
H20_15 H 0.3534 0.3747 0.0327
H21_15 H 0.3370 0.3592 0.0064
H31_15 H 0.3561 0.2197 0.1243
H32_15 H 0.3677 0.2237 0.0728
H33_15 H 0.3809 0.2242 0.1230
H34_15 H 0.3483 0.3173 0.1325
H35_15 H 0.3261 0.3051 0.1304
H36_15 H 0.3397 0.3051 0.1802
H121_15 H 0.7185 0.1666 0.0047
H131_15 H 0.3423 0.4866 0.0028
H135_15 H 0.3694 0.4059 0.0024
H163_15 H 0.2820 0.2711 0.1027
H164_15 H 0.3026 0.2856 0.0997
H165_15 H 0.3017 0.2637 0.0703
H166_15 H 0.3360 0.2244 0.2608
H167_15 H 0.3510 0.2234 0.2135
H168_15 H 0.3510 0.2439 0.2480
N65_7 N 0.66020(18) 0.39524(17) 0.0490(4)
N67_10 N 0.74433(17) 0.4174(2) 0.0664(5)
N68_7 N 0.27220(18) 0.2035(2) 0.3212(5)
N70_10 N 0.2277(2) 0.2392(2) 0.1667(5)
N1_15 N 0.71023(17) 0.24474(17) 0.6910(4)
N2_15 N 0.70516(18) 0.26658(16) 0.6916(4)
N3_15 N 0.72863(17) 0.30433(18) 0.8076(4)
N4_15 N 0.74019(17) 0.29599(18) 0.8462(4)
N5_15 N 0.74554(18) 0.22966(18) 0.8548(4)
N6_15 N 0.73911(19) 0.21826(17) 0.8128(5)
N8_15 N 0.3944(2) 0.3324(2) 0.9619(5)
N9_15 N 0.42072(19) 0.2727(2) 0.9371(5)
N10_15 N 0.4165(2) 0.2552(2) 0.9677(5)
N13_15 N 0.42446(17) 0.20766(16) 0.7807(5)
N14_15 N 0.4458(2) 0.21460(19) 0.7799(5)
N15_15 N 0.48836(18) 0.19691(17) 0.6691(4)
N16_15 N 0.48288(17) 0.18335(18) 0.6307(4)
N17_15 N 0.41968(17) 0.16176(18) 0.6254(4)
N18_15 N 0.40702(16) 0.16750(18) 0.6648(4)
N19_15 N 0.56999(17) 0.21050(17) 0.5708(4)
N20_15 N 0.55764(17) 0.21890(16) 0.5332(4)
N21_15 N 0.58022(16) 0.25926(16) 0.4229(4)
N22_15 N 0.60012(18) 0.26758(19) 0.4253(4)
N23_15 N 0.63930(16) 0.24846(16) 0.5426(4)
N24_15 N 0.6321(2) 0.23480(17) 0.5775(4)
N25_15 N 0.56993(19) 0.33004(17) 0.2772(4)
N26_15 N 0.55499(19) 0.33503(19) 0.3142(4)
N27_15 N 0.52912(17) 0.39629(19) 0.3111(4)
N28_15 N 0.53685(18) 0.41122(19) 0.2780(4)
N29_15 N 0.58055(17) 0.39286(19) 0.1665(4)
N30_15 N 0.5858(2) 0.37212(17) 0.1655(4)
N31_15 N 0.27965(18) 0.12447(18) 0.4343(4)
N32_15 N 0.28698(18) 0.13972(17) 0.4701(5)
N33_15 N 0.33739(18) 0.12576(17) 0.5624(4)
N34_15 N 0.34856(17) 0.10682(15) 0.5607(4)
N35_15 N 0.32197(18) 0.05889(16) 0.4743(4)
N36_15 N 0.30520(17) 0.06333(16) 0.4433(5)
N37_15 N 0.79219(17) 0.08381(18) 0.9027(4)
N38_15 N 0.78494(16) 0.06669(15) 0.9319(4)
N39_10 N 0.82607(17) 0.01238(16) 0.7865(4)
N40_10 N 0.84589(17) 0.02172(16) 0.7983(4)
N41_15 N 0.74609(17) 0.14629(17) 0.9546(4)
N42_15 N 0.76131(18) 0.14123(17) 0.9196(4)
N43_15 N 0.32584(19) 0.48466(17) 0.8531(5)
N44_15 N 0.3388(2) 0.47663(19) 0.8912(5)
N45_15 N 0.3560(2) 0.41277(19) 0.8921(5)
N46_15 N 0.3476(2) 0.3986(2) 0.8560(5)
N49_15 N 0.72604(17) 0.37617(18) 0.9547(4)
N50_15 N 0.70428(18) 0.37027(17) 0.9494(4)
N52_15 N 0.66579(17) 0.40920(15) 0.0867(4)
N58_10 N 0.2508(2) 0.1982(2) 0.3158(5)
N59_15 N 0.5243(2) 0.4667(2) 0.4512(4)
C1_15 C 0.6980(2) 0.2116(2) 0.6489(5)
C2_15 C 0.6958(2) 0.2353(2) 0.6584(5)
C3_15 C 0.6828(2) 0.25097(19) 0.6384(4)
C4_15 C 0.68821(19) 0.2697(2) 0.6596(5)
C5_15 C 0.6792(3) 0.2919(2) 0.6525(6)
C6_15 C 0.7072(2) 0.3378(2) 0.7907(5)
C7_15 C 0.7208(2) 0.3237(2) 0.8226(5)
C8_15 C 0.72880(18) 0.32830(19) 0.8717(5)
C9_15 C 0.7407(2) 0.3104(2) 0.8843(5)
C10_15 C 0.7521(3) 0.3055(2) 0.9329(6)
C11_15 C 0.7583(3) 0.2242(2) 0.9405(6)
C12_15 C 0.7503(2) 0.2153(2) 0.8921(5)
C13_15 C 0.7462(2) 0.1951(2) 0.8757(5)
C14_15 C 0.7393(2) 0.1968(2) 0.8257(5)
C15_15 C 0.7316(3) 0.1800(2) 0.7907(6)
C17_15 C 0.3680(2) 0.3520(2) 0.9900(5)
C18_15 C 0.3736(2) 0.3608(3) 0.9422(6)
C19_15 C 0.3902(3) 0.3477(2) 0.9271(6)
C20_15 C 0.4035(3) 0.3483(3) 0.8791(6)
C21_15 C 0.4331(3) 0.2814(2) 0.8529(6)
C22_15 C 0.4265(2) 0.2654(2) 0.8911(6)
C23_15 C 0.4259(3) 0.2431(2) 0.8902(6)
C24_15 C 0.4196(2) 0.2377(2) 0.9392(6)
C25_15 C 0.4162(3) 0.2149(3) 0.9603(7)
C31_15 C 0.3921(3) 0.2128(3) 0.8317(7)
C32_15 C 0.4154(2) 0.2167(2) 0.8214(6)
C33_15 C 0.4302(2) 0.2296(2) 0.8463(6)
C34_15 C 0.4488(2) 0.2281(2) 0.8191(5)
C35_15 C 0.4706(3) 0.2384(3) 0.8269(6)
C36_15 C 0.5194(3) 0.2194(3) 0.6941(7)
C37_15 C 0.5084(2) 0.2038(2) 0.6599(5)
C38_15 C 0.5160(2) 0.1958(2) 0.6148(5)
C39_15 C 0.4995(2) 0.1821(2) 0.5986(7)
C40_15 C 0.4978(3) 0.1688(3) 0.5522(7)
C41_15 C 0.4199(3) 0.1421(3) 0.5457(6)
C42_15 C 0.4093(2) 0.1487(2) 0.5942(5)
C43_15 C 0.3883(2) 0.1453(2) 0.6135(5)
C44_15 C 0.38803(19) 0.15690(18) 0.6583(5)
C45_15 C 0.3706(2) 0.1593(2) 0.6963(6)
C46_15 C 0.5662(2) 0.1904(2) 0.6504(5)
C47_15 C 0.5569(2) 0.2005(2) 0.6049(5)
C48_15 C 0.5357(2) 0.2018(2) 0.5890(6)
C49_15 C 0.5372(2) 0.2136(2) 0.5437(5)
C50_15 C 0.5188(3) 0.2201(3) 0.5092(7)
C51_15 C 0.5444(3) 0.2667(2) 0.3844(6)
C52_15 C 0.5679(2) 0.2723(2) 0.3927(6)
C53_15 C 0.5806(2) 0.2889(2) 0.3759(5)
C54_15 C 0.6010(2) 0.2849(2) 0.3960(6)
C55_15 C 0.6213(3) 0.2985(3) 0.3893(7)
C56_15 C 0.6708(2) 0.2712(2) 0.5272(5)
C57_15 C 0.65900(19) 0.2560(2) 0.5588(5)
C58_15 C 0.66390(19) 0.2462(2) 0.6063(5)
C59_15 C 0.64660(19) 0.23314(18) 0.6158(4)
C60_15 C 0.6421(3) 0.2192(2) 0.6604(6)
C61_15 C 0.5984(3) 0.3017(2) 0.2625(5)
C62_15 C 0.5807(2) 0.3122(2) 0.2939(6)
C63_15 C 0.5730(2) 0.3070(2) 0.3442(6)
C64_15 C 0.5574(2) 0.3215(2) 0.3533(5)
C65_15 C 0.5441(3) 0.3245(3) 0.3989(5)
C66_15 C 0.5128(3) 0.3945(3) 0.3947(6)
C67_15 C 0.5222(3) 0.4064(2) 0.3514(5)
C68_15 C 0.5244(2) 0.4287(3) 0.3443(5)
C69_15 C 0.5334(2) 0.4306(2) 0.2989(6)
C70_15 C 0.5396(3) 0.4506(3) 0.2693(7)
C71_15 C 0.5937(2) 0.4282(3) 0.1398(7)
C72_15 C 0.59552(19) 0.40478(19) 0.1438(4)
C73_15 C 0.6117(2) 0.3916(2) 0.1276(5)
C74_15 C 0.6044(2) 0.3703(2) 0.1417(5)
C75_15 C 0.6161(3) 0.3499(2) 0.1358(7)
C76_15 C 0.2610(3) 0.1235(2) 0.3518(6)
C77_15 C 0.2705(2) 0.1354(2) 0.3961(5)
C78_15 C 0.2719(2) 0.1569(2) 0.4064(6)
C79_15 C 0.2822(2) 0.1592(2) 0.4517(6)
C80_15 C 0.2880(3) 0.1784(3) 0.4827(7)
C81_15 C 0.3419(2) 0.1635(2) 0.5857(6)
C82_15 C 0.3499(2) 0.1410(2) 0.5814(5)
C83_15 C 0.3707(2) 0.1333(2) 0.5909(5)
C84_15 C 0.36919(19) 0.1115(2) 0.5773(5)
C85_15 C 0.3860(2) 0.0943(2) 0.5778(5)
C86_15 C 0.3491(3) 0.0296(2) 0.4845(7)
C87_15 C 0.3303(2) 0.0397(2) 0.4590(5)
C88_15 C 0.3187(2) 0.0318(2) 0.4163(6)
C89_15 C 0.3032(2) 0.0480(2) 0.4085(5)
C90_15 C 0.2861(3) 0.0492(3) 0.3692(6)
C91_15 C 0.8166(2) 0.0918(2) 0.8312(5)
C92_15 C 0.80631(19) 0.0762(2) 0.8683(5)
C93_15 C 0.8084(2) 0.0540(2) 0.8730(5)
C94_15 C 0.7954(2) 0.0489(2) 0.9141(5)
C95_15 C 0.7907(2) 0.0273(2) 0.9391(6)
C96_15 C 0.7879(3) 0.0182(2) 0.8052(6)
C97_15 C 0.81026(19) 0.02297(18) 0.8109(5)
C98_15 C 0.82000(19) 0.0386(2) 0.8402(5)
C99_15 C 0.8418(2) 0.0372(2) 0.8310(5)
C100_15 C 0.8605(3) 0.0502(2) 0.8509(7)
C101_15 C 0.7219(3) 0.1763(2) 0.9776(7)
C102_15 C 0.7390(2) 0.1663(2) 0.9452(6)
C103_15 C 0.7493(2) 0.17432(18) 0.9013(5)
C104_15 C 0.76324(19) 0.15783(19) 0.8884(5)
C105_15 C 0.7793(3) 0.1578(2) 0.8451(6)
C106_15 C 0.3057(3) 0.5184(3) 0.8351(7)
C107_15 C 0.3199(2) 0.5046(2) 0.8671(5)
C108_15 C 0.3278(2) 0.5091(2) 0.9147(5)
C109_15 C 0.3401(3) 0.4909(2) 0.9288(5)
C110_15 C 0.3520(3) 0.4862(3) 0.9746(7)
C111_15 C 0.3761(2) 0.4110(2) 0.9721(5)
C112_15 C 0.3655(2) 0.4008(2) 0.9276(5)
C113_15 C 0.3644(2) 0.37935(18) 0.9153(5)
C114_15 C 0.3525(3) 0.3787(2) 0.8711(5)
C115_15 C 0.3447(4) 0.3603(3) 0.8404(6)
C116_15 C 0.3616(3) 0.5431(3) 0.9641(7)
C117_15 C 0.3385(3) 0.5410(3) 0.9700(6)
C118_15 C 0.3238(3) 0.5275(3) 0.9471(7)
C119_15 C 0.3040(2) 0.5339(3) 0.9664(6)
C120_15 C 0.2821(3) 0.5252(3) 0.9573(6)
C121_15 C 0.7614(3) 0.3640(2) 0.9203(6)
C122_15 C 0.7370(2) 0.36170(19) 0.9251(4)
C123_15 C 0.7228(2) 0.3469(2) 0.9028(5)
C124_15 C 0.7028(2) 0.3525(2) 0.9211(5)
C125_15 C 0.6816(2) 0.3431(2) 0.9108(5)
C126_15 C 0.6297(3) 0.3726(3) 0.0205(7)
C127_15 C 0.6400(2) 0.38810(19) 0.0561(5)
C128_15 C 0.6324(2) 0.3958(2) 0.1023(5)
C129_15 C 0.6490(3) 0.40960(19) 0.1202(5)
C130_15 C 0.6506(3) 0.4236(3) 0.1671(6)
C133_15 C 0.3225(2) 0.0135(2) 0.3841(5)
C134_15 C 0.3293(2) 0.0144(2) 0.3334(6)
C135_15 C 0.3332(3) 0.0335(2) 0.3012(6)
C141_15 C 0.3051(3) 0.1920(3) 0.3620(6)
C142_15 C 0.2820(3) 0.1899(3) 0.3532(6)
C143_15 C 0.2674(2) 0.1749(2) 0.3711(5)
C144_15 C 0.2480(2) 0.1808(3) 0.3476(6)
C145_15 C 0.2257(3) 0.1714(3) 0.3522(7)
C146_15 C 0.5449(3) 0.4336(3) 0.4562(6)
C147_15 C 0.5300(3) 0.4480(3) 0.4285(6)
C148_15 C 0.5199(2) 0.4458(2) 0.3809(5)
C149_15 C 0.5085(2) 0.4647(2) 0.3776(6)
C150_15 C 0.49435(19) 0.4720(2) 0.3336(5)
Ag1_15 Ag 0.727201(16) 0.232519(16) 0.74987(4)
Ag2_15 Ag 0.718906(16) 0.285695(15) 0.74734(4)
Ag3_15 Ag 0.745441(17) 0.263079(16) 0.84812(4)
Ag5_15 Ag 0.40975(2) 0.303030(18) 0.95590(5)
Ag7_15 Ag 0.416120(18) 0.186790(18) 0.72384(5)
Ag8_15 Ag 0.467100(18) 0.204410(17) 0.72546(4)
Ag9_15 Ag 0.451730(18) 0.171930(17) 0.62762(5)
Ag10_15 Ag 0.601350(16) 0.221560(16) 0.57287(4)
Ag11_15 Ag 0.570270(17) 0.237040(17) 0.47645(4)
Ag12_15 Ag 0.620910(16) 0.256730(16) 0.48085(4)
Ag13_15 Ag 0.575010(18) 0.350140(18) 0.21827(4)
Ag14_15 Ag 0.540490(18) 0.364910(18) 0.30846(4)
Ag15_15 Ag 0.556170(17) 0.401630(18) 0.21804(4)
Ag16_15 Ag 0.290920(17) 0.093720(16) 0.44204(4)
Ag17_15 Ag 0.310180(16) 0.130450(16) 0.51981(4)
Ag18_15 Ag 0.334830(16) 0.081810(15) 0.52147(4)
Ag19_15 Ag 0.776770(16) 0.112410(15) 0.91364(4)
Ag22_10 Ag 0.314690(19) 0.464330(19) 0.79860(5)
Ag23_15 Ag 0.34848(2) 0.444790(18) 0.88719(5)
Ag24_10 Ag 0.32679(2) 0.41022(2) 0.80263(4)
Ag26_7 Ag 0.682410(18) 0.384870(16) 0.99691(4)
Ag27_10 Ag 0.697510(18) 0.417670(16) 0.09418(4)
H1_15 H 0.7090 0.2058 0.6702
H2_15 H 0.6845 0.2046 0.6561
H3_15 H 0.7018 0.2092 0.6144
H4_15 H 0.6675 0.2913 0.6289
H5_15 H 0.6741 0.2973 0.6842
H6_15 H 0.6903 0.3012 0.6398
H7_15 H 0.7044 0.3307 0.7593
H8_15 H 0.6939 0.3406 0.8076
H9_15 H 0.7147 0.3511 0.7846
H10_15 H 0.7592 0.2918 0.9303
H11_15 H 0.7626 0.3165 0.9396
H12_15 H 0.7418 0.3050 0.9598
H13_15 H 0.7609 0.2126 0.9636
H14_15 H 0.7714 0.2320 0.9349
H15_15 H 0.7477 0.2338 0.9544
H16_15 H 0.7283 0.1865 0.7588
H17_15 H 0.7426 0.1693 0.7864
H18_15 H 0.7189 0.1734 0.8041
H22_15 H 0.4139 0.3368 0.8796
H23_15 H 0.3942 0.3467 0.8505
H24_15 H 0.4110 0.3619 0.8769
H25_15 H 0.4315 0.2957 0.8664
H26_15 H 0.4479 0.2791 0.8439
H27_15 H 0.4242 0.2799 0.8236
H28_15 H 0.4121 0.2159 0.9950
H29_15 H 0.4050 0.2078 0.9416
H30_15 H 0.4293 0.2069 0.9574
H37_15 H 0.3864 0.2031 0.8069
H38_15 H 0.3844 0.2262 0.8303
H39_15 H 0.3905 0.2065 0.8645
H40_15 H 0.4802 0.2340 0.8005
H41_15 H 0.4763 0.2340 0.8587
H42_15 H 0.4691 0.2538 0.8264
H43_15 H 0.5105 0.2219 0.7230
H44_15 H 0.5217 0.2327 0.6766
H45_15 H 0.5330 0.2136 0.7046
H46_15 H 0.4844 0.1610 0.5527
H47_15 H 0.5096 0.1589 0.5508
H48_15 H 0.4981 0.1781 0.5233
H49_15 H 0.4346 0.1470 0.5453
H50_15 H 0.4122 0.1483 0.5179
H51_15 H 0.4196 0.1266 0.5428
H52_15 H 0.3754 0.1685 0.7229
H53_15 H 0.3670 0.1454 0.7097
H54_15 H 0.3581 0.1654 0.6806
H55_15 H 0.5816 0.1922 0.6501
H56_15 H 0.5627 0.1753 0.6507
H57_15 H 0.5603 0.1972 0.6799
H58_15 H 0.5244 0.2279 0.4809
H59_15 H 0.5089 0.2291 0.5273
H60_15 H 0.5114 0.2074 0.4977
H61_15 H 0.5379 0.2774 0.3629
H62_15 H 0.5370 0.2665 0.4161
H63_15 H 0.5433 0.2528 0.3688
H64_15 H 0.6330 0.2920 0.4077
H65_15 H 0.6187 0.3128 0.4018
H66_15 H 0.6250 0.2991 0.3543
H67_15 H 0.6624 0.2745 0.4979
H68_15 H 0.6843 0.2649 0.5171
H69_15 H 0.6735 0.2841 0.5458
H70_15 H 0.6540 0.2200 0.6834
H71_15 H 0.6402 0.2046 0.6496
H72_15 H 0.6292 0.2242 0.6768
H73_15 H 0.5995 0.3090 0.2307
H74_15 H 0.6119 0.3028 0.2800
H75_15 H 0.5950 0.2868 0.2570
H76_15 H 0.5343 0.3363 0.3939
H77_15 H 0.5360 0.3116 0.4054
H78_15 H 0.5532 0.3275 0.4271
H79_15 H 0.5137 0.3793 0.3885
H80_15 H 0.5207 0.3979 0.4248
H81_15 H 0.4980 0.3985 0.3988
H82_15 H 0.5360 0.4632 0.2884
H83_15 H 0.5548 0.4504 0.2626
H84_15 H 0.5318 0.4508 0.2381
H85_15 H 0.5804 0.4328 0.1547
H86_15 H 0.6056 0.4349 0.1571
H87_15 H 0.5940 0.4323 0.1050
H88_15 H 0.6075 0.3382 0.1484
H89_15 H 0.6192 0.3475 0.1008
H90_15 H 0.6294 0.3505 0.1543
H91_15 H 0.2628 0.1082 0.3567
H92_15 H 0.2459 0.1268 0.3492
H93_15 H 0.2682 0.1278 0.3215
H94_15 H 0.2953 0.1738 0.5126
H95_15 H 0.2972 0.1878 0.4637
H96_15 H 0.2750 0.1860 0.4919
H97_15 H 0.3270 0.1640 0.5762
H98_15 H 0.3434 0.1683 0.6199
H99_15 H 0.3502 0.1727 0.5640
H100_15 H 0.3799 0.0810 0.5657
H101_15 H 0.3978 0.0985 0.5566
H102_15 H 0.3911 0.0923 0.6116
H103_15 H 0.3535 0.0385 0.5122
H104_15 H 0.3451 0.0156 0.4968
H105_15 H 0.3608 0.0282 0.4611
H106_15 H 0.2778 0.0620 0.3740
H107_15 H 0.2927 0.0494 0.3365
H108_15 H 0.2769 0.0368 0.3718
H109_15 H 0.8118 0.1062 0.8381
H110_15 H 0.8126 0.0878 0.7976
H111_15 H 0.8320 0.0911 0.8344
H112_15 H 0.7808 0.0294 0.9665
H113_15 H 0.8038 0.0212 0.9516
H114_15 H 0.7844 0.0177 0.9149
H115_15 H 0.7862 0.0062 0.7826
H116_15 H 0.7806 0.0305 0.7918
H117_15 H 0.7819 0.0145 0.8374
H118_15 H 0.8736 0.0451 0.8363
H119_15 H 0.8611 0.0488 0.8868
H120_15 H 0.8585 0.0651 0.8422
H122_15 H 0.7092 0.1788 0.9578
H123_15 H 0.7271 0.1897 0.9910
H124_15 H 0.7871 0.1444 0.8450
H125_15 H 0.7893 0.1695 0.8493
H126_15 H 0.7718 0.1594 0.8139
H127_15 H 0.3030 0.5112 0.8036
H128_15 H 0.3127 0.5319 0.8289
H129_15 H 0.2923 0.5208 0.8521
H130_15 H 0.3585 0.4722 0.9721
H132_15 H 0.3631 0.4969 0.9792
H133_15 H 0.3746 0.4264 0.9701
H134_15 H 0.3911 0.4073 0.9725
H136_15 H 0.3371 0.3656 0.8115
H137_15 H 0.3352 0.3515 0.8603
H138_15 H 0.3568 0.3517 0.8296
H139_15 H 0.3668 0.5543 0.9857
H140_15 H 0.3649 0.5465 0.9298
H141_15 H 0.3684 0.5297 0.9730
H142_15 H 0.2717 0.5336 0.9756
H143_15 H 0.2815 0.5105 0.9685
H144_15 H 0.2789 0.5258 0.9220
H145_15 H 0.7663 0.3758 0.9407
H146_15 H 0.7682 0.3509 0.9315
H147_15 H 0.7651 0.3666 0.8858
H148_15 H 0.6707 0.3509 0.9289
H149_15 H 0.6786 0.3439 0.8754
H150_15 H 0.6815 0.3283 0.9213
H152_15 H 0.6270 0.3592 0.0374
H153_15 H 0.6163 0.3785 0.0088
H154_15 H 0.6643 0.4307 0.1678
H155_15 H 0.6393 0.4342 0.1666
H156_15 H 0.6490 0.4147 0.1965
H160_15 H 0.3376 0.0288 0.2683
H161_15 H 0.3202 0.0418 0.2986
H162_15 H 0.3444 0.0421 0.3159
H169_15 H 0.3105 0.2042 0.3438
H170_15 H 0.3077 0.1939 0.3973
H171_15 H 0.3123 0.1792 0.3506
H172_15 H 0.2160 0.1792 0.3307
H173_15 H 0.2260 0.1566 0.3424
H174_15 H 0.2209 0.1726 0.3865
H175_15 H 0.5486 0.4400 0.4879
H176_15 H 0.5380 0.4199 0.4620
H177_15 H 0.5578 0.4314 0.4367
H178_15 H 0.4881 0.4858 0.3412
H179_15 H 0.5030 0.4732 0.3037
H180_15 H 0.4831 0.4617 0.3282
N63_10 N 0.30550(19) 0.4216(2) 0.7507(5)
N64_10 N 0.3005(2) 0.4437(2) 0.7479(5)
N66_10 N 0.72993(18) 0.4228(2) 0.1048(5)
Ag32_10 Ag 0.872090(16) 0.012150(16) 0.75513(4)
Ag40_10 Ag 0.23284(2) 0.21305(2) 0.26199(5)
H151_15 H 0.6391 0.3702 0.9924
C131_15 C 0.3161(2) 0.9815(2) 0.4434(6)
C132_15 C 0.32169(18) 0.99184(18) 0.3955(5)
H157_15 H 0.3126 0.9923 0.4678
H158_15 H 0.3040 0.9721 0.4386
H159_15 H 0.3282 0.9732 0.4552
Ag31_10 Ag 0.821950(16) 0.988440(16) 0.73368(4)
N2_16 N 0.01658(16) 0.04484(18) 0.4416(4)
N3_16 N 0.05433(18) 0.02137(17) 0.5576(4)
N4_16 N 0.04599(18) 0.00981(17) 0.5962(4)
N7_16 N 0.08527(18) 0.3693(2) 0.7507(5)
N8_16 N 0.0824(2) 0.3556(2) 0.7119(5)
N9_16 N 0.0227(2) 0.32928(19) 0.6871(5)
N10_16 N 0.0052(2) 0.3335(2) 0.7177(5)
N11_16 N 0.01517(17) 0.37262(18) 0.8420(4)
N12_16 N 0.0361(2) 0.3802(2) 0.8521(5)
N21_16 N 0.00926(16) 0.16978(16) 0.1729(4)
N22_16 N 0.01758(19) 0.14988(18) 0.1753(4)
N25_16 N 0.08004(17) 0.18007(19) 0.0272(4)
N26_16 N 0.08503(19) 0.19501(19) 0.0642(4)
N27_16 N 0.14629(19) 0.22088(17) 0.0611(4)
N28_16 N 0.16122(19) 0.21315(18) 0.0280(4)
N43_16 N 0.23466(17) 0.42416(19) 0.6031(5)
N44_16 N 0.22663(19) 0.4112(2) 0.6412(5)
N45_16 N 0.16277(19) 0.3940(2) 0.6421(5)
N46_16 N 0.1486(2) 0.4024(2) 0.6060(5)
N49_16 N 0.12617(18) 0.02396(17) 0.7047(4)
N50_16 N 0.12027(17) 0.04572(18) 0.6994(4)
N55_16 N 0.0001(2) 0.4586(2) 0.9282(5)
N59_16 N 0.2167(2) 0.2257(2) 0.2012(4)
C3_16 C 0.00097(19) 0.0672(2) 0.3884(4)
C4_16 C 0.0197(2) 0.06179(19) 0.4096(5)
C5_16 C 0.0419(2) 0.0708(3) 0.4025(6)
C6_16 C 0.0878(2) 0.0428(2) 0.5407(5)
C7_16 C 0.0737(2) 0.0292(2) 0.5726(5)
C8_16 C 0.07830(19) 0.02120(18) 0.6217(5)
C9_16 C 0.0604(2) 0.0093(2) 0.6343(5)
C16_16 C 0.1100(2) 0.3994(2) 0.7736(6)
C17_16 C 0.1020(2) 0.3820(2) 0.7400(5)
C18_16 C 0.1108(3) 0.3764(2) 0.6922(6)
C19_16 C 0.0977(2) 0.3598(3) 0.6771(6)
C20_16 C 0.0983(3) 0.3465(3) 0.6291(6)
C21_16 C 0.0314(2) 0.3169(3) 0.6029(6)
C22_16 C 0.0154(2) 0.3235(2) 0.6411(6)
C27_16 C 0.0018(2) 0.3870(3) 0.8628(5)
C28_16 C 0.0124(2) 0.4033(2) 0.8853(5)
C29_16 C 0.0340(2) 0.3978(3) 0.8768(6)
C30_16 C 0.0549(2) 0.4096(3) 0.8941(7)
C51_16 C 0.0167(2) 0.2056(3) 0.1344(6)
C52_16 C 0.0223(2) 0.1821(2) 0.1427(6)
C53_16 C 0.0389(2) 0.1694(2) 0.1259(5)
C54_16 C 0.0349(2) 0.1490(2) 0.1460(6)
C55_16 C 0.0485(3) 0.1287(3) 0.1393(7)
C56_16 C 0.0212(2) 0.0792(2) 0.2772(5)
C57_16 C 0.0060(2) 0.09100(19) 0.3088(5)
C61_16 C 0.0517(2) 0.1516(3) 0.0125(5)
C62_16 C 0.0622(2) 0.1693(2) 0.0439(6)
C63_16 C 0.0570(2) 0.1770(2) 0.0942(6)
C64_16 C 0.0715(2) 0.1926(2) 0.1033(5)
C65_16 C 0.0745(3) 0.2059(3) 0.1489(5)
C66_16 C 0.1445(3) 0.2372(3) 0.1447(6)
C67_16 C 0.1564(2) 0.2278(3) 0.1014(5)
C68_16 C 0.1787(3) 0.2256(2) 0.0943(5)
C69_16 C 0.1806(2) 0.2166(2) 0.0489(6)
C70_16 C 0.2006(3) 0.2104(3) 0.0193(7)
C106_16 C 0.2684(3) 0.4443(3) 0.5851(7)
C107_16 C 0.2546(2) 0.4301(2) 0.6171(5)
C108_16 C 0.2591(2) 0.4222(2) 0.6647(5)
C109_16 C 0.2409(2) 0.4099(3) 0.6788(5)
C110_16 C 0.2362(3) 0.3980(3) 0.7246(7)
C111_16 C 0.1610(2) 0.3739(2) 0.7221(5)
C112_16 C 0.1508(2) 0.3845(2) 0.6776(5)
C113_16 C 0.12935(18) 0.3856(2) 0.6653(5)
C114_16 C 0.1287(2) 0.3975(3) 0.6211(5)
C115_16 C 0.1103(3) 0.4053(4) 0.5904(6)
C116_16 C 0.2931(3) 0.3884(3) 0.7141(7)
C117_16 C 0.2910(3) 0.4115(3) 0.7200(6)
C118_16 C 0.2775(3) 0.4262(3) 0.6971(7)
C119_16 C 0.2839(3) 0.4460(2) 0.7164(6)
C120_16 C 0.2752(3) 0.4679(3) 0.7073(6)
C122_16 C 0.11170(19) 0.0130(2) 0.6751(4)
C123_16 C 0.0969(2) 0.0272(2) 0.6528(5)
C124_16 C 0.1025(2) 0.0472(2) 0.6711(5)
C125_16 C 0.0931(2) 0.0684(2) 0.6608(5)
C136_16 C 0.0210(3) 0.4526(3) 0.8504(7)
C137_16 C 0.0094(4) 0.4432(3) 0.8961(6)
C138_16 C 0.0055(3) 0.4225(2) 0.9103(6)
C146_16 C 0.1836(3) 0.2051(3) 0.2062(6)
C147_16 C 0.1980(3) 0.2200(3) 0.1785(6)
C148_16 C 0.1958(2) 0.2301(2) 0.1309(5)
C149_16 C 0.2147(2) 0.2415(2) 0.1276(6)
C150_16 C 0.2220(2) 0.25565(19) 0.0836(5)
Ag2_16 Ag 0.035695(15) 0.031094(16) 0.49734(4)
Ag3_16 Ag 0.013079(16) 0.004559(17) 0.59812(4)
Ag4_16 Ag 0.061280(18) 0.37195(2) 0.80417(5)
Ag5_16 Ag 0.053030(18) 0.34025(2) 0.70590(5)
Ag6_16 Ag 0.010180(19) 0.35050(2) 0.78409(5)
Ag12_16 Ag 0.006730(16) 0.129090(16) 0.23085(4)
Ag14_16 Ag 0.114910(18) 0.209510(18) 0.05846(4)
Ag23_16 Ag 0.194790(18) 0.40152(2) 0.63719(5)
Ag26_8 Ag 0.134870(16) 0.067590(18) 0.74691(4)
H4_16 H 0.0413 0.0825 0.3789
H5_16 H 0.0473 0.0759 0.4342
H6_16 H 0.0512 0.0597 0.3898
H7_16 H 0.0807 0.0456 0.5093
H8_16 H 0.0906 0.0561 0.5576
H9_16 H 0.1011 0.0353 0.5346
H12_16 H 0.0550 0.0082 0.7098
H19_16 H 0.1013 0.4000 0.8035
H20_16 H 0.1247 0.3966 0.7827
H21_16 H 0.1092 0.4130 0.7564
H22_16 H 0.0868 0.3361 0.6296
H23_16 H 0.0967 0.3558 0.6005
H24_16 H 0.1119 0.3390 0.6269
H25_16 H 0.0457 0.3185 0.6164
H26_16 H 0.0291 0.3021 0.5939
H27_16 H 0.0299 0.3258 0.5736
H34_16 H 0.0673 0.4017 0.8825
H35_16 H 0.0551 0.4239 0.8804
H36_16 H 0.0551 0.4103 0.9302
H42_16 H 0.0038 0.2809 0.5764
H61_16 H 0.0274 0.2121 0.1129
H62_16 H 0.0165 0.2130 0.1661
H63_16 H 0.0028 0.2067 0.1188
H64_16 H 0.0420 0.1170 0.1577
H65_16 H 0.0628 0.1313 0.1518
H66_16 H 0.0491 0.1250 0.1043
H67_16 H 0.0245 0.0876 0.2479
H68_16 H 0.0149 0.0657 0.2671
H69_16 H 0.0341 0.0765 0.2958
H74_16 H 0.0528 0.1381 0.0300
H75_16 H 0.0368 0.1550 0.0070
H76_16 H 0.0863 0.2157 0.1439
H77_16 H 0.0616 0.2140 0.1554
H78_16 H 0.0775 0.1968 0.1771
H79_16 H 0.1293 0.2363 0.1385
H80_16 H 0.1479 0.2293 0.1748
H81_16 H 0.1485 0.2520 0.1488
H82_16 H 0.2132 0.2140 0.0384
H83_16 H 0.2004 0.1952 0.0126
H127_16 H 0.2612 0.4470 0.5536
H128_16 H 0.2819 0.4373 0.5789
H129_16 H 0.2708 0.4577 0.6021
H130_16 H 0.2222 0.3915 0.7221
H131_16 H 0.2366 0.4077 0.7528
H132_16 H 0.2469 0.3869 0.7292
H133_16 H 0.1764 0.3754 0.7201
H134_16 H 0.1573 0.3589 0.7225
H135_16 H 0.1559 0.3806 0.7524
H136_16 H 0.1156 0.4129 0.5615
H137_16 H 0.1015 0.4148 0.6103
H138_16 H 0.1017 0.3932 0.5796
H139_16 H 0.3043 0.3832 0.7357
H140_16 H 0.2965 0.3851 0.6798
H141_16 H 0.2797 0.3816 0.7230
H142_16 H 0.2836 0.4783 0.7256
H143_16 H 0.2605 0.4685 0.7185
H144_16 H 0.2758 0.4711 0.6720
H148_16 H 0.1009 0.0793 0.6789
H149_16 H 0.0939 0.0714 0.6254
H150_16 H 0.0783 0.0685 0.6713
H163_16 H 0.0211 0.4680 0.8527
H164_16 H 0.0356 0.4474 0.8497
H165_16 H 0.0137 0.4483 0.8203
H175_16 H 0.1900 0.2014 0.2379
H176_16 H 0.1699 0.2120 0.2120
H177_16 H 0.1814 0.1922 0.1867
H178_16 H 0.2358 0.2619 0.0912
H179_16 H 0.2232 0.2470 0.0537
H180_16 H 0.2117 0.2669 0.0782
N65_8 N 0.14524(17) 0.08980(18) 0.7990(4)
N29_16 N 0.14286(19) 0.16945(17) 0.9165(4)
N30_16 N 0.12212(17) 0.1642(2) 0.9155(4)
N52_16 N 0.15920(15) 0.08421(17) 0.8367(4)
C71_16 C 0.1782(3) 0.1563(2) 0.8898(7)
C72_16 C 0.15478(19) 0.15448(19) 0.8938(4)
C73_16 C 0.1416(2) 0.1383(2) 0.8776(5)
C74_16 C 0.1203(2) 0.1456(2) 0.8917(5)
C75_16 C 0.0999(2) 0.1339(3) 0.8858(7)
C126_16 C 0.1226(3) 0.1203(3) 0.7705(7)
C127_16 C 0.13810(19) 0.1100(2) 0.8061(5)
C128_16 C 0.1458(2) 0.1176(2) 0.8523(5)
C129_16 C 0.15960(19) 0.1010(3) 0.8702(5)
C130_16 C 0.1736(3) 0.0994(3) 0.9171(6)
Ag13_16 Ag 0.100140(18) 0.174990(18) 0.96827(4)
Ag15_16 Ag 0.151630(18) 0.193830(17) 0.96804(4)
H73_16 H 0.0590 0.1505 0.9807
H84_16 H 0.2008 0.2182 0.9881
H85_16 H 0.1828 0.1696 0.9047
H86_16 H 0.1849 0.1444 0.9071
H87_16 H 0.1823 0.1560 0.8550
H88_16 H 0.0882 0.1425 0.8984
H89_16 H 0.0975 0.1308 0.8508
H90_16 H 0.1005 0.1206 0.9043
H151_16 H 0.1202 0.1109 0.7424
H152_16 H 0.1092 0.1230 0.7874
H153_16 H 0.1285 0.1337 0.7588
H154_16 H 0.1807 0.0857 0.9178
H155_16 H 0.1842 0.1107 0.9166
H156_16 H 0.1647 0.1010 0.9465
Ag29_8 Ag 0.97339(2) 0.46270(2) 0.01890(5)
H166_16 H 0.9744 0.4140 0.0108
N68_8 N 0.9535(2) 0.47780(18) 0.0712(5)
N1_16 N 0.99474(17) 0.03977(17) 0.4410(4)
N5_16 N 0.97966(18) 0.00446(18) 0.6048(4)
N6_16 N 0.96826(17) 0.01089(19) 0.5628(5)
N13_16 N 0.95766(16) 0.32554(17) 0.5307(5)
N14_16 N 0.96460(19) 0.3042(2) 0.5299(5)
N15_16 N 0.94691(17) 0.26164(18) 0.4191(4)
N16_16 N 0.93335(18) 0.26712(17) 0.3807(4)
N17_16 N 0.91176(18) 0.33032(17) 0.3754(4)
N18_16 N 0.91750(18) 0.34298(16) 0.4148(4)
N19_16 N 0.96050(17) 0.18001(17) 0.3208(4)
N20_16 N 0.96890(16) 0.19236(17) 0.2832(4)
N23_16 N 0.99846(16) 0.11070(16) 0.2926(4)
N24_16 N 0.98480(17) 0.1179(2) 0.3275(4)
N31_16 N 0.87447(18) 0.47035(18) 0.1843(4)
N32_16 N 0.88972(17) 0.46302(18) 0.2201(5)
N33_16 N 0.87576(17) 0.41261(18) 0.3124(4)
N34_16 N 0.85682(15) 0.40144(17) 0.3107(4)
N35_16 N 0.80889(16) 0.42803(18) 0.2243(4)
N36_16 N 0.81333(16) 0.44480(17) 0.1933(5)
N41_16 N 0.89629(17) 0.00391(17) 0.7046(4)
N56_16 N 0.9899(2) 0.4462(2) 0.9642(4)
C1_16 C 0.9616(2) 0.0520(2) 0.3989(5)
C2_16 C 0.9853(2) 0.0542(2) 0.4084(5)
C13_16 C 0.9451(2) 0.0038(2) 0.6257(5)
C14_16 C 0.9468(2) 0.0107(2) 0.5757(5)
C15_16 C 0.9300(2) 0.0184(3) 0.5407(6)
C23_16 C 0.9931(2) 0.3241(3) 0.6402(6)
C24_16 C 0.9877(2) 0.3304(2) 0.6892(6)
C25_16 C 0.9649(3) 0.3338(3) 0.7103(7)
C26_16 C 0.9776(3) 0.3827(3) 0.8577(7)
C31_16 C 0.9628(3) 0.3579(3) 0.5817(7)
C32_16 C 0.9667(2) 0.3346(2) 0.5714(6)
C33_16 C 0.9796(2) 0.3198(2) 0.5963(6)
C34_16 C 0.9781(2) 0.3012(2) 0.5691(5)
C35_16 C 0.9884(3) 0.2794(3) 0.5769(6)
C36_16 C 0.9694(3) 0.2306(3) 0.4441(7)
C37_16 C 0.9538(2) 0.2416(2) 0.4099(5)
C38_16 C 0.9458(2) 0.2340(2) 0.3648(5)
C39_16 C 0.9321(2) 0.2505(2) 0.3486(7)
C40_16 C 0.9188(3) 0.2522(3) 0.3022(7)
C41_16 C 0.8921(3) 0.3301(3) 0.2957(6)
C42_16 C 0.8987(2) 0.3407(2) 0.3442(5)
C43_16 C 0.8953(2) 0.3617(2) 0.3635(5)
C44_16 C 0.90690(18) 0.36197(19) 0.4083(5)
C45_16 C 0.9093(2) 0.3794(2) 0.4463(6)
C46_16 C 0.9404(2) 0.1838(2) 0.4004(5)
C47_16 C 0.9505(2) 0.1931(2) 0.3549(5)
C48_16 C 0.9518(2) 0.2143(2) 0.3390(6)
C49_16 C 0.9636(2) 0.2128(2) 0.2937(5)
C50_16 C 0.9701(3) 0.2312(3) 0.2592(7)
C58_16 C 0.9962(2) 0.08610(19) 0.3563(5)
C59_16 C 0.98314(18) 0.10340(19) 0.3658(4)
C60_16 C 0.9692(2) 0.1079(3) 0.4104(6)
C76_16 C 0.8735(2) 0.4890(3) 0.1018(6)
C77_16 C 0.8854(2) 0.4795(2) 0.1461(5)
C78_16 C 0.9069(2) 0.4781(2) 0.1564(6)
C79_16 C 0.9092(2) 0.4678(2) 0.2017(6)
C80_16 C 0.9284(3) 0.4620(3) 0.2327(7)
C81_16 C 0.9135(2) 0.4081(2) 0.3357(6)
C82_16 C 0.8910(2) 0.4001(2) 0.3314(5)
C83_16 C 0.8833(2) 0.3793(2) 0.3409(5)
C84_16 C 0.8615(2) 0.38081(19) 0.3273(5)
C85_16 C 0.8443(2) 0.3640(2) 0.3278(5)
C86_16 C 0.7796(2) 0.4009(3) 0.2345(7)
C87_16 C 0.7897(2) 0.4197(2) 0.2090(5)
C88_16 C 0.7818(2) 0.4313(2) 0.1663(6)
C89_16 C 0.7980(2) 0.4468(2) 0.1585(5)
C90_16 C 0.7992(3) 0.4639(3) 0.1192(6)
C101_16 C 0.9263(2) 0.0281(3) 0.7276(7)
C102_16 C 0.9163(2) 0.0110(2) 0.6952(6)
C103_16 C 0.92432(18) 0.0007(2) 0.6513(5)
C131_16 C 0.7315(2) 0.4339(2) 0.1934(6)
C132_16 C 0.74184(18) 0.42831(18) 0.1455(5)
C133_16 C 0.7635(2) 0.4275(2) 0.1341(5)
C134_16 C 0.7644(2) 0.4207(2) 0.0834(6)
C135_16 C 0.7835(2) 0.4168(3) 0.0512(6)
C139_16 C 0.9923(2) 0.4252(2) 0.9527(5)
C140_16 C 0.9826(3) 0.4077(2) 0.9840(6)
C141_16 C 0.9420(3) 0.4449(3) 0.1120(6)
C142_16 C 0.9399(3) 0.4680(3) 0.1032(6)
C143_16 C 0.9249(2) 0.4826(2) 0.1211(5)
C144_16 C 0.9308(3) 0.5020(2) 0.0976(6)
C145_16 C 0.9214(3) 0.5243(3) 0.1022(7)
Ag1_16 Ag 0.982519(16) 0.022799(16) 0.49987(4)
Ag7_16 Ag 0.936790(18) 0.333880(18) 0.47384(5)
Ag8_16 Ag 0.954410(17) 0.282900(18) 0.47546(4)
Ag9_16 Ag 0.921930(17) 0.298270(18) 0.37762(5)
Ag10_16 Ag 0.971560(16) 0.148650(16) 0.32287(4)
Ag11_16 Ag 0.987040(17) 0.179730(17) 0.22645(4)
Ag16_16 Ag 0.843720(16) 0.459080(17) 0.19204(4)
Ag17_16 Ag 0.880450(16) 0.439820(16) 0.26981(4)
Ag18_16 Ag 0.831810(15) 0.415170(16) 0.27147(4)
H1_16 H 0.9558 0.0410 0.4202
H2_16 H 0.9546 0.0655 0.4061
H3_16 H 0.9592 0.0482 0.3644
H15_16 H 0.9838 0.0023 0.7044
H16_16 H 0.9365 0.0217 0.5088
H17_16 H 0.9193 0.0074 0.5364
H18_16 H 0.9234 0.0311 0.5541
H28_16 H 0.9659 0.3379 0.7450
H29_16 H 0.9578 0.3450 0.6916
H30_16 H 0.9569 0.3207 0.7074
H31_16 H 0.9697 0.3939 0.8743
H32_16 H 0.9737 0.3823 0.8228
H33_16 H 0.9742 0.3691 0.8730
H37_16 H 0.9531 0.3636 0.5569
H38_16 H 0.9762 0.3656 0.5803
H39_16 H 0.9565 0.3595 0.6145
H40_16 H 0.9840 0.2698 0.5505
H41_16 H 0.9840 0.2737 0.6087
H43_16 H 0.9719 0.2395 0.4730
H44_16 H 0.9827 0.2283 0.4266
H45_16 H 0.9636 0.2170 0.4546
H46_16 H 0.9110 0.2656 0.3027
H47_16 H 0.9089 0.2404 0.3008
H48_16 H 0.9281 0.2519 0.2733
H49_16 H 0.8970 0.3154 0.2953
H50_16 H 0.8983 0.3378 0.2679
H51_16 H 0.8766 0.3304 0.2928
H52_16 H 0.9185 0.3746 0.4729
H53_16 H 0.8954 0.3830 0.4597
H54_16 H 0.9154 0.3919 0.4306
H55_16 H 0.9422 0.1684 0.4001
H56_16 H 0.9253 0.1873 0.4007
H57_16 H 0.9472 0.1897 0.4299
H58_16 H 0.9779 0.2256 0.2309
H59_16 H 0.9791 0.2411 0.2773
H60_16 H 0.9574 0.2386 0.2477
H70_16 H 0.9700 0.0960 0.4334
H71_16 H 0.9546 0.1098 0.3996
H72_16 H 0.9742 0.1208 0.4268
H91_16 H 0.8582 0.4872 0.1067
H92_16 H 0.8768 0.5041 0.0992
H93_16 H 0.8778 0.4818 0.0715
H94_16 H 0.9238 0.4547 0.2626
H95_16 H 0.9378 0.4528 0.2137
H96_16 H 0.9360 0.4750 0.2419
H97_16 H 0.9140 0.4230 0.3262
H98_16 H 0.9183 0.4066 0.3699
H99_16 H 0.9227 0.3998 0.3140
H100_16 H 0.8310 0.3701 0.3157
H101_16 H 0.8485 0.3522 0.3066
H102_16 H 0.8423 0.3589 0.3616
H103_16 H 0.7885 0.3965 0.2622
H104_16 H 0.7656 0.4049 0.2468
H105_16 H 0.7782 0.3892 0.2111
H106_16 H 0.8120 0.4722 0.1240
H107_16 H 0.7994 0.4573 0.0865
H108_16 H 0.7868 0.4731 0.1218
H121_16 H 0.9166 0.0315 0.7547
H122_16 H 0.9288 0.0408 0.7078
H123_16 H 0.9397 0.0229 0.7410
H157_16 H 0.7423 0.4374 0.2178
H158_16 H 0.7221 0.4460 0.1886
H159_16 H 0.7232 0.4218 0.2052
H160_16 H 0.7788 0.4124 0.0183
H161_16 H 0.7918 0.4298 0.0486
H162_16 H 0.7921 0.4056 0.0659
H167_16 H 0.9734 0.3990 0.9635
H168_16 H 0.9939 0.3990 0.9980
H169_16 H 0.9542 0.4395 0.0938
H170_16 H 0.9439 0.4423 0.1473
H171_16 H 0.9292 0.4377 0.1006
H172_16 H 0.9292 0.5340 0.0807
H173_16 H 0.9066 0.5240 0.0924
H174_16 H 0.9226 0.5291 0.1365
N37_16 N 0.83381(18) 0.95781(17) 0.6527(4)
N38_16 N 0.81669(15) 0.96506(16) 0.6819(4)
N42_16 N 0.89123(17) 0.98869(18) 0.6696(4)
C11_16 C 0.9742(2) 0.9917(3) 0.6905(6)
C12_16 C 0.9653(2) 0.9997(2) 0.6421(5)
C91_16 C 0.8418(2) 0.9334(2) 0.5812(5)
C92_16 C 0.8262(2) 0.94369(19) 0.6183(5)
C93_16 C 0.8040(2) 0.9416(2) 0.6230(5)
C94_16 C 0.7989(2) 0.9546(2) 0.6641(5)
C95_16 C 0.7773(2) 0.9593(2) 0.6891(6)
C96_16 C 0.7682(2) 0.9621(3) 0.5552(6)
C97_16 C 0.77297(18) 0.93974(19) 0.5609(5)
C98_16 C 0.7886(2) 0.93000(19) 0.5902(5)
C99_16 C 0.7872(2) 0.9082(2) 0.5810(5)
C100_16 C 0.8002(2) 0.8895(3) 0.6009(7)
C104_16 C 0.90783(19) 0.98676(19) 0.6384(5)
C105_16 C 0.9078(2) 0.9707(3) 0.5951(6)
Ag19_16 Ag 0.862410(15) 0.973230(16) 0.66364(4)
H13_16 H 0.9626 0.9891 0.7136
H14_16 H 0.9820 0.9786 0.6849
H109_16 H 0.8562 0.9382 0.5881
H110_16 H 0.8378 0.9374 0.5476
H111_16 H 0.8411 0.9180 0.5844
H112_16 H 0.7794 0.9692 0.7165
H113_16 H 0.7712 0.9462 0.7016
H114_16 H 0.7677 0.9656 0.6649
H115_16 H 0.7562 0.9638 0.5326
H116_16 H 0.7805 0.9694 0.5418
H117_16 H 0.7645 0.9681 0.5874
H118_16 H 0.7951 0.8764 0.5863
H119_16 H 0.7988 0.8889 0.6368
H120_16 H 0.8151 0.8915 0.5922
H124_16 H 0.8944 0.9629 0.5950
H125_16 H 0.9195 0.9607 0.5993
H126_16 H 0.9094 0.9782 0.5639
C10_16 C 0.0555(2) 0.9979(3) 0.6829(6)
C121_16 C 0.1140(2) 0.9886(3) 0.6703(6)
H10_16 H 0.0418 0.9908 0.6803
H11_16 H 0.0665 0.9874 0.6896
H145_16 H 0.1258 0.9837 0.6907
H146_16 H 0.1009 0.9818 0.6815
H147_16 H 0.1166 0.9849 0.6358
loop_
_geom_bond_atom_site_label_1
_geom_bond_atom_site_label_2
_geom_bond_site_symmetry_1
_geom_bond_site_symmetry_2
N29 N30 1_555 1_555
N30 C74 1_555 1_555
N51 N52 1_555 1_555
N52 C129 1_555 1_555
C71 C72 1_555 1_555
C72 N29 1_555 1_555
C73 C72 1_555 1_555
C74 C73 1_555 1_555
C75 C74 1_555 1_555
C126 C127 1_555 1_555
C127 N51 1_555 1_555
C128 C73 1_555 1_555
C129 C128 1_555 1_555
C130 C129 1_555 1_555
Ag27 N52 1_555 1_555
H85 C71 1_555 1_555
H86 C71 1_555 1_555
H87 C71 1_555 1_555
H88 C75 1_555 1_555
H89 C75 1_555 1_555
H90 C75 1_555 1_555
H151 C126 1_555 1_555
H152 C126 1_555 1_555
H153 C126 1_555 1_555
H154 C130 1_555 1_555
H155 C130 1_555 1_555
H156 C130 1_555 1_555
N66 Ag27 1_555 1_555
Ag36 N51 1_555 1_555
N29 Ag15 1_555 1_555
N30 Ag13 1_555 1_555
C127 C128 1_555 1_555
N2 C4 1_555 1_555
N3 N4 1_555 1_555
N4 C9 1_555 1_555
N7 N8 1_555 1_555
N8 C19 1_555 1_555
N9 N10 1_555 1_555
N11 N12 1_555 1_555
N12 C29 1_555 1_555
N21 N22 1_555 1_555
N22 C54 1_555 1_555
N25 N26 1_555 1_555
N26 C64 1_555 1_555
N27 N28 1_555 1_555
N28 C69 1_555 1_555
N43 N44 1_555 1_555
N44 C109 1_555 1_555
N45 N46 1_555 1_555
N46 C114 1_555 1_555
N47 N48 1_555 1_555
N48 C119 1_555 1_555
N49 N50 1_555 1_555
N50 C124 1_555 1_555
N59 N60 1_555 1_555
N60 C149 1_555 1_555
C4 C3 1_555 1_555
C5 C4 1_555 1_555
C6 C7 1_555 1_555
C7 N3 1_555 1_555
C8 C7 1_555 1_555
C9 C8 1_555 1_555
C10 C9 1_555 1_555
C16 C17 1_555 1_555
C17 N7 1_555 1_555
C18 C17 1_555 1_555
C19 C18 1_555 1_555
C20 C19 1_555 1_555
C21 C22 1_555 1_555
C22 N9 1_555 1_555
C27 N11 1_555 1_555
C28 C27 1_555 1_555
C29 C28 1_555 1_555
C30 C29 1_555 1_555
C51 C52 1_555 1_555
C52 N21 1_555 1_555
C53 C52 1_555 1_555
C54 C53 1_555 1_555
C55 C54 1_555 1_555
C56 C57 1_555 1_555
C61 C62 1_555 1_555
C62 N25 1_555 1_555
C63 C53 1_555 1_555
C64 C63 1_555 1_555
C65 C64 1_555 1_555
C66 C67 1_555 1_555
C67 N27 1_555 1_555
C68 C67 1_555 1_555
C69 C68 1_555 1_555
C70 C69 1_555 1_555
C106 C107 1_555 1_555
C107 N43 1_555 1_555
C108 C107 1_555 1_555
C109 C108 1_555 1_555
C110 C109 1_555 1_555
C111 C112 1_555 1_555
C112 N45 1_555 1_555
C113 C18 1_555 1_555
C114 C113 1_555 1_555
C115 C114 1_555 1_555
C116 C117 1_555 1_555
C117 N47 1_555 1_555
C118 C108 1_555 1_555
C119 C118 1_555 1_555
C120 C119 1_555 1_555
C121 C122 1_555 1_555
C122 N49 1_555 1_555
C123 C8 1_555 1_555
C124 C123 1_555 1_555
C125 C124 1_555 1_555
C136 C137 1_555 1_555
C137 N55 1_555 1_555
C138 C28 1_555 1_555
C146 C147 1_555 1_555
C147 N59 1_555 1_555
C148 C68 1_555 1_555
C149 C148 1_555 1_555
C150 C149 1_555 1_555
Ag2 N2 1_555 1_555
Ag3 N4 1_555 1_555
Ag4 N7 1_555 1_555
Ag5 N8 1_555 1_555
Ag6 N10 1_555 1_555
Ag12 N22 1_555 1_555
Ag14 N26 1_555 1_555
Ag22 N43 1_555 1_555
Ag23 N44 1_555 1_555
Ag24 N46 1_555 1_555
Ag25 N49 1_555 1_555
Ag36 N50 1_555 1_555
Ag30 N59 1_555 1_555
H4 C5 1_555 1_555
H5 C5 1_555 1_555
H6 C5 1_555 1_555
H7 C6 1_555 1_555
H8 C6 1_555 1_555
H9 C6 1_555 1_555
H10 C10 1_555 1_555
H11 C10 1_555 1_555
H12 C10 1_555 1_555
H19 C16 1_555 1_555
H20 C16 1_555 1_555
H21 C16 1_555 1_555
H22 C20 1_555 1_555
H23 C20 1_555 1_555
H24 C20 1_555 1_555
H25 C21 1_555 1_555
H26 C21 1_555 1_555
H27 C21 1_555 1_555
H34 C30 1_555 1_555
H35 C30 1_555 1_555
H36 C30 1_555 1_555
H61 C51 1_555 1_555
H62 C51 1_555 1_555
H63 C51 1_555 1_555
H64 C55 1_555 1_555
H65 C55 1_555 1_555
H66 C55 1_555 1_555
H67 C56 1_555 1_555
H68 C56 1_555 1_555
H69 C56 1_555 1_555
H74 C61 1_555 1_555
H75 C61 1_555 1_555
H76 C65 1_555 1_555
H77 C65 1_555 1_555
H78 C65 1_555 1_555
H79 C66 1_555 1_555
H80 C66 1_555 1_555
H81 C66 1_555 1_555
H82 C70 1_555 1_555
H83 C70 1_555 1_555
H127 C106 1_555 1_555
H128 C106 1_555 1_555
H129 C106 1_555 1_555
H130 C110 1_555 1_555
H131 C110 1_555 1_555
H132 C110 1_555 1_555
H133 C111 1_555 1_555
H134 C111 1_555 1_555
H135 C111 1_555 1_555
H136 C115 1_555 1_555
H137 C115 1_555 1_555
H138 C115 1_555 1_555
H139 C116 1_555 1_555
H140 C116 1_555 1_555
H141 C116 1_555 1_555
H142 C120 1_555 1_555
H143 C120 1_555 1_555
H144 C120 1_555 1_555
H145 C121 1_555 1_555
H146 C121 1_555 1_555
H147 C121 1_555 1_555
H148 C125 1_555 1_555
H149 C125 1_555 1_555
H150 C125 1_555 1_555
H163 C136 1_555 1_555
H164 C136 1_555 1_555
H165 C136 1_555 1_555
H175 C146 1_555 1_555
H176 C146 1_555 1_555
H177 C146 1_555 1_555
H178 C150 1_555 1_555
H179 C150 1_555 1_555
H180 C150 1_555 1_555
N63 Ag24 1_555 1_555
N64 Ag22 1_555 1_555
N67 Ag25 1_555 1_555
N69 Ag30 1_555 1_555
Ag33 N48 1_555 1_555
Ag34 N47 1_555 1_555
Ag38 N60 1_555 1_555
N3 Ag2 1_555 1_555
N9 Ag5 1_555 1_555
N11 Ag6 1_555 1_555
N12 Ag4 1_555 1_555
N27 Ag14 1_555 1_555
N45 Ag23 1_555 1_555
C62 C63 1_555 1_555
C112 C113 1_555 1_555
C117 C118 1_555 1_555
C122 C123 1_555 1_555
C137 C138 1_555 1_555
C147 C148 1_555 1_555
N63 N64 1_555 1_555
C145 C144 1_555 1_555
H172 C145 1_555 1_555
H173 C145 1_555 1_555
H174 C145 1_555 1_555
N5 N6 1_555 1_555
N6 C14 1_555 1_555
N13 N14 1_555 1_555
N14 C34 1_555 1_555
N15 N16 1_555 1_555
N16 C39 1_555 1_555
N17 N18 1_555 1_555
N18 C44 1_555 1_555
N19 N20 1_555 1_555
N20 C49 1_555 1_555
N23 N24 1_555 1_555
N24 C59 1_555 1_555
N31 N32 1_555 1_555
N32 C79 1_555 1_555
N33 N34 1_555 1_555
N34 C84 1_555 1_555
N35 N36 1_555 1_555
N36 C89 1_555 1_555
N37 N38 1_555 1_555
N38 C94 1_555 1_555
N39 N40 1_555 1_555
N40 C99 1_555 1_555
N41 N42 1_555 1_555
N42 C104 1_555 1_555
N53 N54 1_555 1_555
N54 C134 1_555 1_555
N56 C139 1_555 1_555
N57 N58 1_555 1_555
C1 C2 1_555 1_555
C2 N1 1_555 1_555
C11 C12 1_555 1_555
C12 N5 1_555 1_555
C13 C12 1_555 1_555
C14 C13 1_555 1_555
C15 C14 1_555 1_555
C24 C23 1_555 1_555
C25 C24 1_555 1_555
C31 C32 1_555 1_555
C32 N13 1_555 1_555
C33 C23 1_555 1_555
C34 C33 1_555 1_555
C35 C34 1_555 1_555
C36 C37 1_555 1_555
C37 N15 1_555 1_555
C38 C37 1_555 1_555
C39 C38 1_555 1_555
C40 C39 1_555 1_555
C41 C42 1_555 1_555
C42 N17 1_555 1_555
C43 C42 1_555 1_555
C44 C43 1_555 1_555
C45 C44 1_555 1_555
C46 C47 1_555 1_555
C47 N19 1_555 1_555
C48 C38 1_555 1_555
C49 C48 1_555 1_555
C50 C49 1_555 1_555
C59 C58 1_555 1_555
C60 C59 1_555 1_555
C76 C77 1_555 1_555
C77 N31 1_555 1_555
C78 C77 1_555 1_555
C79 C78 1_555 1_555
C80 C79 1_555 1_555
C81 C82 1_555 1_555
C82 N33 1_555 1_555
C83 C43 1_555 1_555
C84 C83 1_555 1_555
C85 C84 1_555 1_555
C86 C87 1_555 1_555
C87 N35 1_555 1_555
C88 C87 1_555 1_555
C89 C88 1_555 1_555
C90 C89 1_555 1_555
C91 C92 1_555 1_555
C92 N37 1_555 1_555
C93 C92 1_555 1_555
C94 C93 1_555 1_555
C95 C94 1_555 1_555
C96 C97 1_555 1_555
C97 N39 1_555 1_555
C98 C93 1_555 1_555
C99 C98 1_555 1_555
C100 C99 1_555 1_555
C101 C102 1_555 1_555
C102 N41 1_555 1_555
C103 C13 1_555 1_555
C104 C103 1_555 1_555
C105 C104 1_555 1_555
C131 C132 1_555 1_555
C132 N53 1_555 1_555
C133 C88 1_555 1_555
C134 C133 1_555 1_555
C135 C134 1_555 1_555
C140 C139 1_555 1_555
C141 C142 1_555 1_555
C142 N57 1_555 1_555
C143 C78 1_555 1_555
Ag1 N1 1_555 1_555
Ag7 N13 1_555 1_555
Ag8 N14 1_555 1_555
Ag9 N16 1_555 1_555
Ag10 N19 1_555 1_555
Ag11 N20 1_555 1_555
Ag16 N31 1_555 1_555
Ag17 N32 1_555 1_555
Ag18 N34 1_555 1_555
Ag19 N37 1_555 1_555
Ag20 N38 1_555 1_555
Ag21 N41 1_555 1_555
H1 C1 1_555 1_555
H2 C1 1_555 1_555
H3 C1 1_555 1_555
H13 C11 1_555 1_555
H14 C11 1_555 1_555
H15 C11 1_555 1_555
H16 C15 1_555 1_555
H17 C15 1_555 1_555
H18 C15 1_555 1_555
H28 C25 1_555 1_555
H29 C25 1_555 1_555
H30 C25 1_555 1_555
H31 C26 1_555 1_555
H32 C26 1_555 1_555
H33 C26 1_555 1_555
H37 C31 1_555 1_555
H38 C31 1_555 1_555
H39 C31 1_555 1_555
H40 C35 1_555 1_555
H41 C35 1_555 1_555
H43 C36 1_555 1_555
H44 C36 1_555 1_555
H45 C36 1_555 1_555
H46 C40 1_555 1_555
H47 C40 1_555 1_555
H48 C40 1_555 1_555
H49 C41 1_555 1_555
H50 C41 1_555 1_555
H51 C41 1_555 1_555
H52 C45 1_555 1_555
H53 C45 1_555 1_555
H54 C45 1_555 1_555
H55 C46 1_555 1_555
H56 C46 1_555 1_555
H57 C46 1_555 1_555
H58 C50 1_555 1_555
H59 C50 1_555 1_555
H60 C50 1_555 1_555
H70 C60 1_555 1_555
H71 C60 1_555 1_555
H72 C60 1_555 1_555
H91 C76 1_555 1_555
H93 C76 1_555 1_555
H94 C80 1_555 1_555
H95 C80 1_555 1_555
H96 C80 1_555 1_555
H97 C81 1_555 1_555
H98 C81 1_555 1_555
H99 C81 1_555 1_555
H100 C85 1_555 1_555
H101 C85 1_555 1_555
H102 C85 1_555 1_555
H103 C86 1_555 1_555
H104 C86 1_555 1_555
H105 C86 1_555 1_555
H106 C90 1_555 1_555
H107 C90 1_555 1_555
H108 C90 1_555 1_555
H109 C91 1_555 1_555
H110 C91 1_555 1_555
H111 C91 1_555 1_555
H112 C95 1_555 1_555
H113 C95 1_555 1_555
H114 C95 1_555 1_555
H115 C96 1_555 1_555
H116 C96 1_555 1_555
H117 C96 1_555 1_555
H118 C100 1_555 1_555
H119 C100 1_555 1_555
H120 C100 1_555 1_555
H121 C101 1_555 1_555
H122 C101 1_555 1_555
H123 C101 1_555 1_555
H124 C105 1_555 1_555
H125 C105 1_555 1_555
H126 C105 1_555 1_555
H157 C131 1_555 1_555
H158 C131 1_555 1_555
H159 C131 1_555 1_555
H160 C135 1_555 1_555
H161 C135 1_555 1_555
H162 C135 1_555 1_555
H167 C140 1_555 1_555
H168 C140 1_555 1_555
H169 C141 1_555 1_555
H170 C141 1_555 1_555
H171 C141 1_555 1_555
N61 Ag20 1_555 1_555
N62 Ag21 1_555 1_555
Ag31 N39 1_555 1_555
Ag32 N40 1_555 1_555
Ag35 N54 1_555 1_555
Ag37 N53 1_555 1_555
Ag39 N57 1_555 1_555
N6 Ag1 1_555 1_555
N15 Ag8 1_555 1_555
N17 Ag9 1_555 1_555
N18 Ag7 1_555 1_555
N24 Ag10 1_555 1_555
N33 Ag17 1_555 1_555
N35 Ag18 1_555 1_555
N36 Ag16 1_555 1_555
N42 Ag19 1_555 1_555
C32 C33 1_555 1_555
C47 C48 1_555 1_555
C82 C83 1_555 1_555
C97 C98 1_555 1_555
C102 C103 1_555 1_555
C132 C133 1_555 1_555
C142 C143 1_555 1_555
N61 N62 1_555 1_555
N48_2 C119_2 1_555 1_555
C106_2 C107_2 1_555 1_555
C108_2 C107_2 1_555 1_555
C116_2 C117_2 1_555 1_555
C118_2 C108_2 1_555 1_555
C119_2 C118_2 1_555 1_555
C120_2 C119_2 1_555 1_555
H127_2 C106_2 1_555 1_555
H128_2 C106_2 1_555 1_555
H129_2 C106_2 1_555 1_555
H139_2 C116_2 1_555 1_555
H140_2 C116_2 1_555 1_555
H141_2 C116_2 1_555 1_555
H142_2 C120_2 1_555 1_555
H143_2 C120_2 1_555 1_555
H144_2 C120_2 1_555 1_555
C117_2 C118_2 1_555 1_555
Ag34_2 N47_2 1_555 1_555
N1_2 N2_2 1_555 1_555
N2_2 C4_2 1_555 1_555
N3_2 N4_2 1_555 1_555
N4_2 C9_2 1_555 1_555
N5_2 N6_2 1_555 1_555
N6_2 C14_2 1_555 1_555
N8_2 C19_2 1_555 1_555
N9_2 N10_2 1_555 1_555
N10_2 C24_2 1_555 1_555
N13_2 N14_2 1_555 1_555
N14_2 C34_2 1_555 1_555
N15_2 N16_2 1_555 1_555
N16_2 C39_2 1_555 1_555
N17_2 N18_2 1_555 1_555
N18_2 C44_2 1_555 1_555
N19_2 N20_2 1_555 1_555
N20_2 C49_2 1_555 1_555
N21_2 N22_2 1_555 1_555
N22_2 C54_2 1_555 1_555
N23_2 N24_2 1_555 1_555
N24_2 C59_2 1_555 1_555
N25_2 N26_2 1_555 1_555
N26_2 C64_2 1_555 1_555
N27_2 N28_2 1_555 1_555
N28_2 C69_2 1_555 1_555
N29_2 N30_2 1_555 1_555
N30_2 C74_2 1_555 1_555
N31_2 N32_2 1_555 1_555
N32_2 C79_2 1_555 1_555
N33_2 N34_2 1_555 1_555
N34_2 C84_2 1_555 1_555
N35_2 N36_2 1_555 1_555
N36_2 C89_2 1_555 1_555
N37_2 N38_2 1_555 1_555
N38_2 C94_2 1_555 1_555
N62 C99_2 1_555 1_555
N41_2 N42_2 1_555 1_555
N42_2 C104_2 1_555 1_555
N43_2 N44_2 1_555 1_555
N44_2 C109_2 1_555 1_555
N45_2 N46_2 1_555 1_555
N46_2 C114_2 1_555 1_555
N49_2 N50_2 1_555 1_555
N50_2 C124_2 1_555 1_555
N51_2 N52_2 1_555 1_555
N52_2 C129_2 1_555 1_555
N53_2 N54_2 1_555 1_555
N54_2 C134_2 1_555 1_555
N57_2 N69 1_555 1_555
N69 C144_2 1_555 1_555
N59_2 N60_2 1_555 1_555
N60_2 C149_2 1_555 1_555
C1_2 C2_2 1_555 1_555
C2_2 N1_2 1_555 1_555
C3_2 C2_2 1_555 1_555
C4_2 C3_2 1_555 1_555
C5_2 C4_2 1_555 1_555
C6_2 C7_2 1_555 1_555
C7_2 N3_2 1_555 1_555
C8_2 C7_2 1_555 1_555
C9_2 C8_2 1_555 1_555
C10_2 C9_2 1_555 1_555
C11_2 C12_2 1_555 1_555
C12_2 N5_2 1_555 1_555
C13_2 C12_2 1_555 1_555
C14_2 C13_2 1_555 1_555
C15_2 C14_2 1_555 1_555
C18_2 C17_2 1_555 1_555
C19_2 C18_2 1_555 1_555
C20_2 C19_2 1_555 1_555
C21_2 C22_2 1_555 1_555
C22_2 N9_2 1_555 1_555
C23_2 C22_2 1_555 1_555
C24_2 C23_2 1_555 1_555
C25_2 C24_2 1_555 1_555
C31_2 C32_2 1_555 1_555
C32_2 N13_2 1_555 1_555
C33_2 C23_2 1_555 1_555
C34_2 C33_2 1_555 1_555
C35_2 C34_2 1_555 1_555
C36_2 C37_2 1_555 1_555
C37_2 N15_2 1_555 1_555
C38_2 C37_2 1_555 1_555
C39_2 C38_2 1_555 1_555
C40_2 C39_2 1_555 1_555
C41_2 C42_2 1_555 1_555
C42_2 N17_2 1_555 1_555
C43_2 C42_2 1_555 1_555
C44_2 C43_2 1_555 1_555
C45_2 C44_2 1_555 1_555
C46_2 C47_2 1_555 1_555
C47_2 N19_2 1_555 1_555
C48_2 C38_2 1_555 1_555
C49_2 C48_2 1_555 1_555
C50_2 C49_2 1_555 1_555
C51_2 C52_2 1_555 1_555
C52_2 N21_2 1_555 1_555
C53_2 C52_2 1_555 1_555
C54_2 C53_2 1_555 1_555
C55_2 C54_2 1_555 1_555
C56_2 C57_2 1_555 1_555
C57_2 N23_2 1_555 1_555
C58_2 C3_2 1_555 1_555
C59_2 C58_2 1_555 1_555
C60_2 C59_2 1_555 1_555
C61_2 C62_2 1_555 1_555
C62_2 N25_2 1_555 1_555
C63_2 C53_2 1_555 1_555
C64_2 C63_2 1_555 1_555
C65_2 C64_2 1_555 1_555
C66_2 C67_2 1_555 1_555
C67_2 N27_2 1_555 1_555
C68_2 C67_2 1_555 1_555
C69_2 C68_2 1_555 1_555
C70_2 C69_2 1_555 1_555
C71_2 C72_2 1_555 1_555
C72_2 N29_2 1_555 1_555
C73_2 C72_2 1_555 1_555
C74_2 C73_2 1_555 1_555
C75_2 C74_2 1_555 1_555
C76_2 C77_2 1_555 1_555
C77_2 N31_2 1_555 1_555
C78_2 C77_2 1_555 1_555
C79_2 C78_2 1_555 1_555
C80_2 C79_2 1_555 1_555
C81_2 C82_2 1_555 1_555
C82_2 N33_2 1_555 1_555
C83_2 C43_2 1_555 1_555
C84_2 C83_2 1_555 1_555
C85_2 C84_2 1_555 1_555
C86_2 C87_2 1_555 1_555
C87_2 N35_2 1_555 1_555
C88_2 C87_2 1_555 1_555
C89_2 C88_2 1_555 1_555
C90_2 C89_2 1_555 1_555
C91_2 C92_2 1_555 1_555
C92_2 N37_2 1_555 1_555
C93_2 C92_2 1_555 1_555
C94_2 C93_2 1_555 1_555
C95_2 C94_2 1_555 1_555
C96_2 C97_2 1_555 1_555
C97_2 N61 1_555 1_555
C98_2 C93_2 1_555 1_555
C99_2 C98_2 1_555 1_555
C100_2 C99_2 1_555 1_555
C101_2 C102_2 1_555 1_555
C102_2 N41_2 1_555 1_555
C103_2 C13_2 1_555 1_555
C104_2 C103_2 1_555 1_555
C105_2 C104_2 1_555 1_555
C110_2 C109_2 1_555 1_555
C111_2 C112_2 1_555 1_555
C112_2 N45_2 1_555 1_555
C113_2 C18_2 1_555 1_555
C114_2 C113_2 1_555 1_555
C115_2 C114_2 1_555 1_555
C121_2 C122_2 1_555 1_555
C122_2 N49_2 1_555 1_555
C123_2 C8_2 1_555 1_555
C124_2 C123_2 1_555 1_555
C125_2 C124_2 1_555 1_555
C126_2 C127_2 1_555 1_555
C127_2 N51_2 1_555 1_555
C128_2 C73_2 1_555 1_555
C129_2 C128_2 1_555 1_555
C130_2 C129_2 1_555 1_555
C131_2 C132_2 1_555 1_555
C132_2 N53_2 1_555 1_555
C133_2 C88_2 1_555 1_555
C134_2 C133_2 1_555 1_555
C135_2 C134_2 1_555 1_555
C141_2 C142_2 1_555 1_555
C142_2 N57_2 1_555 1_555
C143_2 C78_2 1_555 1_555
C144_2 C143_2 1_555 1_555
C145_2 C144_2 1_555 1_555
C146_2 C147_2 1_555 1_555
C147_2 N59_2 1_555 1_555
C148_2 C68_2 1_555 1_555
C149_2 C148_2 1_555 1_555
C150_2 C149_2 1_555 1_555
Ag1_2 N1_2 1_555 1_555
Ag2_2 N2_2 1_555 1_555
Ag3_2 N4_2 1_555 1_555
Ag5_2 N8_2 1_555 1_555
Ag7_2 N13_2 1_555 1_555
Ag8_2 N14_2 1_555 1_555
Ag9_2 N16_2 1_555 1_555
Ag10_2 N19_2 1_555 1_555
Ag11_2 N20_2 1_555 1_555
Ag12_2 N22_2 1_555 1_555
Ag13_2 N25_2 1_555 1_555
Ag14_2 N26_2 1_555 1_555
Ag15_2 N28_2 1_555 1_555
Ag16_2 N31_2 1_555 1_555
Ag17_2 N32_2 1_555 1_555
Ag18_2 N34_2 1_555 1_555
Ag19_2 N37_2 1_555 1_555
Ag20_2 N38_2 1_555 1_555
Ag33 N43_2 1_555 1_555
Ag23_2 N44_2 1_555 1_555
Ag34 N46_2 1_555 1_555
Ag36_2 N50_2 1_555 1_555
Ag37 N52_2 1_555 1_555
Ag30_2 N59_2 1_555 1_555
H1_2 C1_2 1_555 1_555
H2_2 C1_2 1_555 1_555
H3_2 C1_2 1_555 1_555
H4_2 C5_2 1_555 1_555
H5_2 C5_2 1_555 1_555
H6_2 C5_2 1_555 1_555
H7_2 C6_2 1_555 1_555
H8_2 C6_2 1_555 1_555
H9_2 C6_2 1_555 1_555
H10_2 C10_2 1_555 1_555
H11_2 C10_2 1_555 1_555
H12_2 C10_2 1_555 1_555
H13_2 C11_2 1_555 1_555
H14_2 C11_2 1_555 1_555
H15_2 C11_2 1_555 1_555
H16_2 C15_2 1_555 1_555
H17_2 C15_2 1_555 1_555
H18_2 C15_2 1_555 1_555
H22_2 C20_2 1_555 1_555
H23_2 C20_2 1_555 1_555
H24_2 C20_2 1_555 1_555
H25_2 C21_2 1_555 1_555
H26_2 C21_2 1_555 1_555
H27_2 C21_2 1_555 1_555
H28_2 C25_2 1_555 1_555
H29_2 C25_2 1_555 1_555
H30_2 C25_2 1_555 1_555
H37_2 C31_2 1_555 1_555
H38_2 C31_2 1_555 1_555
H39_2 C31_2 1_555 1_555
H40_2 C35_2 1_555 1_555
H41_2 C35_2 1_555 1_555
H42_2 C35_2 1_555 1_555
H43_2 C36_2 1_555 1_555
H44_2 C36_2 1_555 1_555
H45_2 C36_2 1_555 1_555
H46_2 C40_2 1_555 1_555
H47_2 C40_2 1_555 1_555
H48_2 C40_2 1_555 1_555
H49_2 C41_2 1_555 1_555
H50_2 C41_2 1_555 1_555
H51_2 C41_2 1_555 1_555
H52_2 C45_2 1_555 1_555
H53_2 C45_2 1_555 1_555
H54_2 C45_2 1_555 1_555
H55_2 C46_2 1_555 1_555
H56_2 C46_2 1_555 1_555
H57_2 C46_2 1_555 1_555
H58_2 C50_2 1_555 1_555
H59_2 C50_2 1_555 1_555
H60_2 C50_2 1_555 1_555
H61_2 C51_2 1_555 1_555
H62_2 C51_2 1_555 1_555
H63_2 C51_2 1_555 1_555
H64_2 C55_2 1_555 1_555
H65_2 C55_2 1_555 1_555
H66_2 C55_2 1_555 1_555
H67_2 C56_2 1_555 1_555
H68_2 C56_2 1_555 1_555
H69_2 C56_2 1_555 1_555
H70_2 C60_2 1_555 1_555
H71_2 C60_2 1_555 1_555
H72_2 C60_2 1_555 1_555
H73_2 C61_2 1_555 1_555
H74_2 C61_2 1_555 1_555
H75_2 C61_2 1_555 1_555
H76_2 C65_2 1_555 1_555
H77_2 C65_2 1_555 1_555
H78_2 C65_2 1_555 1_555
H79_2 C66_2 1_555 1_555
H80_2 C66_2 1_555 1_555
H81_2 C66_2 1_555 1_555
H82_2 C70_2 1_555 1_555
H83_2 C70_2 1_555 1_555
H84_2 C70_2 1_555 1_555
H85_2 C71_2 1_555 1_555
H86_2 C71_2 1_555 1_555
H87_2 C71_2 1_555 1_555
H88_2 C75_2 1_555 1_555
H89_2 C75_2 1_555 1_555
H90_2 C75_2 1_555 1_555
H91_2 C76_2 1_555 1_555
H92_2 C76_2 1_555 1_555
H93_2 C76_2 1_555 1_555
H94_2 C80_2 1_555 1_555
H95_2 C80_2 1_555 1_555
H96_2 C80_2 1_555 1_555
H97_2 C81_2 1_555 1_555
H98_2 C81_2 1_555 1_555
H99_2 C81_2 1_555 1_555
H100_2 C85_2 1_555 1_555
H101_2 C85_2 1_555 1_555
H102_2 C85_2 1_555 1_555
H103_2 C86_2 1_555 1_555
H104_2 C86_2 1_555 1_555
H105_2 C86_2 1_555 1_555
H106_2 C90_2 1_555 1_555
H107_2 C90_2 1_555 1_555
H108_2 C90_2 1_555 1_555
H109_2 C91_2 1_555 1_555
H110_2 C91_2 1_555 1_555
H111_2 C91_2 1_555 1_555
H112_2 C95_2 1_555 1_555
H113_2 C95_2 1_555 1_555
H114_2 C95_2 1_555 1_555
H115_2 C96_2 1_555 1_555
H116_2 C96_2 1_555 1_555
H117_2 C96_2 1_555 1_555
H118_2 C100_2 1_555 1_555
H119_2 C100_2 1_555 1_555
H120_2 C100_2 1_555 1_555
H122_2 C101_2 1_555 1_555
H123_2 C101_2 1_555 1_555
H124_2 C105_2 1_555 1_555
H125_2 C105_2 1_555 1_555
H126_2 C105_2 1_555 1_555
H130_2 C110_2 1_555 1_555
H132_2 C110_2 1_555 1_555
H133_2 C111_2 1_555 1_555
H134_2 C111_2 1_555 1_555
H136_2 C115_2 1_555 1_555
H137_2 C115_2 1_555 1_555
H138_2 C115_2 1_555 1_555
H145_2 C121_2 1_555 1_555
H146_2 C121_2 1_555 1_555
H147_2 C121_2 1_555 1_555
H148_2 C125_2 1_555 1_555
H149_2 C125_2 1_555 1_555
H150_2 C125_2 1_555 1_555
H152_2 C126_2 1_555 1_555
H153_2 C126_2 1_555 1_555
H154_2 C130_2 1_555 1_555
H155_2 C130_2 1_555 1_555
H156_2 C130_2 1_555 1_555
H157_2 C131_2 1_555 1_555
H158_2 C131_2 1_555 1_555
H159_2 C131_2 1_555 1_555
H160_2 C135_2 1_555 1_555
H161_2 C135_2 1_555 1_555
H162_2 C135_2 1_555 1_555
H169_2 C141_2 1_555 1_555
H170_2 C141_2 1_555 1_555
H171_2 C141_2 1_555 1_555
H172_2 C145_2 1_555 1_555
H173_2 C145_2 1_555 1_555
H174_2 C145_2 1_555 1_555
H175_2 C146_2 1_555 1_555
H176_2 C146_2 1_555 1_555
H177_2 C146_2 1_555 1_555
H178_2 C150_2 1_555 1_555
H179_2 C150_2 1_555 1_555
H180_2 C150_2 1_555 1_555
Ag35_2 N54_2 1_555 1_555
Ag37_2 N53_2 1_555 1_555
Ag39_2 N57_2 1_555 1_555
N3_2 Ag2_2 1_555 1_555
N5_2 Ag3_2 1_555 1_555
N6_2 Ag1_2 1_555 1_555
N9_2 Ag5_2 1_555 1_555
N15_2 Ag8_2 1_555 1_555
N17_2 Ag9_2 1_555 1_555
N18_2 Ag7_2 1_555 1_555
N21_2 Ag11_2 1_555 1_555
N23_2 Ag12_2 1_555 1_555
N24_2 Ag10_2 1_555 1_555
N27_2 Ag14_2 1_555 1_555
N29_2 Ag15_2 1_555 1_555
N30_2 Ag13_2 1_555 1_555
N33_2 Ag17_2 1_555 1_555
N35_2 Ag18_2 1_555 1_555
N36_2 Ag16_2 1_555 1_555
N42_2 Ag19_2 1_555 1_555
N45_2 Ag23_2 1_555 1_555
C32_2 C33_2 1_555 1_555
C47_2 C48_2 1_555 1_555
C57_2 C58_2 1_555 1_555
C62_2 C63_2 1_555 1_555
C82_2 C83_2 1_555 1_555
C97_2 C98_2 1_555 1_555
C102_2 C103_2 1_555 1_555
C112_2 C113_2 1_555 1_555
C122_2 C123_2 1_555 1_555
C127_2 C128_2 1_555 1_555
C132_2 C133_2 1_555 1_555
C142_2 C143_2 1_555 1_555
C147_2 C148_2 1_555 1_555
N11_2 N12_2 1_555 1_555
N12_2 C29_2 1_555 1_555
N55_2 N56_2 1_555 1_555
N56_2 C139_2 1_555 1_555
C26_2 C27_2 1_555 1_555
C27_2 N11_2 1_555 1_555
C28_2 C27_2 1_555 1_555
C29_2 C28_2 1_555 1_555
C30_2 C29_2 1_555 1_555
C136_2 C137_2 1_555 1_555
C137_2 N55_2 1_555 1_555
C138_2 C28_2 1_555 1_555
C139_2 C138_2 1_555 1_555
C140_2 C139_2 1_555 1_555
Ag4_2 N7_2 1_555 1_555
Ag38 N55_2 1_555 1_555
Ag39_2 N56_2 1_555 1_555
H19_2 C16_2 1_555 1_555
H20_2 C16_2 1_555 1_555
H21_2 C16_2 1_555 1_555
H31_2 C26_2 1_555 1_555
H32_2 C26_2 1_555 1_555
H33_2 C26_2 1_555 1_555
H34_2 C30_2 1_555 1_555
H35_2 C30_2 1_555 1_555
H36_2 C30_2 1_555 1_555
H163_2 C136_2 1_555 1_555
H164_2 C136_2 1_555 1_555
H165_2 C136_2 1_555 1_555
H166_2 C140_2 1_555 1_555
H167_2 C140_2 1_555 1_555
H168_2 C140_2 1_555 1_555
N62_2 Ag21_2 1_555 1_555
N11_2 Ag6_2 1_555 1_555
N12_2 Ag4_2 1_555 1_555
C137_2 C138_2 1_555 1_555
N61_2 N62_2 1_555 1_555
N31_3 N32_3 1_555 1_555
N32_3 C79_3 1_555 1_555
N35_3 N36_3 1_555 1_555
N36_3 C89_3 1_555 1_555
N66 N67 1_555 1_555
N67 C134_3 1_555 1_555
N57_3 N58_2 1_555 1_555
N58_2 C144_3 1_555 1_555
C76_3 C77_3 1_555 1_555
C77_3 N31_3 1_555 1_555
C78_3 C77_3 1_555 1_555
C79_3 C78_3 1_555 1_555
C80_3 C79_3 1_555 1_555
C86_3 C87_3 1_555 1_555
C87_3 N35_3 1_555 1_555
C88_3 C87_3 1_555 1_555
C89_3 C88_3 1_555 1_555
C90_3 C89_3 1_555 1_555
C131_3 C132_3 1_555 1_555
C132_3 N66 1_555 1_555
C133_3 C88_3 1_555 1_555
C134_3 C133_3 1_555 1_555
C135_3 C134_3 1_555 1_555
C141_3 C142_3 1_555 1_555
C142_3 N57_3 1_555 1_555
C143_3 C78_3 1_555 1_555
C144_3 C143_3 1_555 1_555
C145_3 C144_3 1_555 1_555
Ag16_3 N31_3 1_555 1_555
H91_3 C76_3 1_555 1_555
H92_3 C76_3 1_555 1_555
H93_3 C76_3 1_555 1_555
H95_3 C80_3 1_555 1_555
H96_3 C80_3 1_555 1_555
H104_3 C86_3 1_555 1_555
H105_3 C86_3 1_555 1_555
H106_3 C90_3 1_555 1_555
H107_3 C90_3 1_555 1_555
H108_3 C90_3 1_555 1_555
H157_3 C131_3 1_555 1_555
H158_3 C131_3 1_555 1_555
H159_3 C131_3 1_555 1_555
H160_3 C135_3 1_555 1_555
H161_3 C135_3 1_555 1_555
H162_3 C135_3 1_555 1_555
H169_3 C141_3 1_555 1_555
H170_3 C141_3 1_555 1_555
H171_3 C141_3 1_555 1_555
H172_3 C145_3 1_555 1_555
H173_3 C145_3 1_555 1_555
H174_3 C145_3 1_555 1_555
H178_3 C150_3 1_555 1_555
H180_3 C150_3 1_555 1_555
Ag39_3 N57_3 1_555 1_555
Ag40_2 N58_2 1_555 1_555
N36_3 Ag16_3 1_555 1_555
C132_3 C133_3 1_555 1_555
C142_3 C143_3 1_555 1_555
N7_3 N8_3 1_555 1_555
N8_3 C19_3 1_555 1_555
N9_3 N10_3 1_555 1_555
N10_3 C24_3 1_555 1_555
N11_3 N12_3 1_555 1_555
N12_3 C29_3 1_555 1_555
N13_3 N14_3 1_555 1_555
N14_3 C34_3 1_555 1_555
N15_3 N16_3 1_555 1_555
N16_3 C39_3 1_555 1_555
N17_3 N18_3 1_555 1_555
N18_3 C44_3 1_555 1_555
N33_3 N34_3 1_555 1_555
N34_3 C84_3 1_555 1_555
N43_3 N44_3 1_555 1_555
N44_3 C109_3 1_555 1_555
N45_3 N46_3 1_555 1_555
N46_3 C114_3 1_555 1_555
N55_3 N56_3 1_555 1_555
N56_3 C139_3 1_555 1_555
C16_3 C17_3 1_555 1_555
C17_3 N7_3 1_555 1_555
C18_3 C17_3 1_555 1_555
C19_3 C18_3 1_555 1_555
C20_3 C19_3 1_555 1_555
C21_3 C22_3 1_555 1_555
C22_3 N9_3 1_555 1_555
C23_3 C22_3 1_555 1_555
C24_3 C23_3 1_555 1_555
C25_3 C24_3 1_555 1_555
C26_3 C27_3 1_555 1_555
C27_3 N11_3 1_555 1_555
C28_3 C27_3 1_555 1_555
C29_3 C28_3 1_555 1_555
C30_3 C29_3 1_555 1_555
C31_3 C32_3 1_555 1_555
C32_3 N13_3 1_555 1_555
C33_3 C23_3 1_555 1_555
C34_3 C33_3 1_555 1_555
C35_3 C34_3 1_555 1_555
C40_3 C39_3 1_555 1_555
C41_3 C42_3 1_555 1_555
C42_3 N17_3 1_555 1_555
C43_3 C42_3 1_555 1_555
C44_3 C43_3 1_555 1_555
C45_3 C44_3 1_555 1_555
C81_3 C82_3 1_555 1_555
C82_3 N33_3 1_555 1_555
C83_3 C43_3 1_555 1_555
C84_3 C83_3 1_555 1_555
C85_3 C84_3 1_555 1_555
C110_3 C109_3 1_555 1_555
C111_3 C112_3 1_555 1_555
C112_3 N45_3 1_555 1_555
C113_3 C18_3 1_555 1_555
C114_3 C113_3 1_555 1_555
C115_3 C114_3 1_555 1_555
C136_3 C137_3 1_555 1_555
C137_3 N55_3 1_555 1_555
C138_3 C28_3 1_555 1_555
C139_3 C138_3 1_555 1_555
C140_3 C139_3 1_555 1_555
Ag4_3 N7_3 1_555 1_555
Ag5_3 N8_3 1_555 1_555
Ag6_3 N10_3 1_555 1_555
Ag7_3 N13_3 1_555 1_555
Ag8_3 N14_3 1_555 1_555
Ag9_3 N16_3 1_555 1_555
Ag18_3 N34_3 1_555 1_555
Ag22_2 N43_3 1_555 1_555
Ag23_3 N44_3 1_555 1_555
Ag24_2 N46_3 1_555 1_555
Ag28_2 N55_3 1_555 1_555
Ag39_3 N56_3 1_555 1_555
H19_3 C16_3 1_555 1_555
H20_3 C16_3 1_555 1_555
H21_3 C16_3 1_555 1_555
H22_3 C20_3 1_555 1_555
H23_3 C20_3 1_555 1_555
H24_3 C20_3 1_555 1_555
H25_3 C21_3 1_555 1_555
H26_3 C21_3 1_555 1_555
H27_3 C21_3 1_555 1_555
H28_3 C25_3 1_555 1_555
H29_3 C25_3 1_555 1_555
H30_3 C25_3 1_555 1_555
H31_3 C26_3 1_555 1_555
H32_3 C26_3 1_555 1_555
H33_3 C26_3 1_555 1_555
H34_3 C30_3 1_555 1_555
H35_3 C30_3 1_555 1_555
H36_3 C30_3 1_555 1_555
H37_3 C31_3 1_555 1_555
H38_3 C31_3 1_555 1_555
H39_3 C31_3 1_555 1_555
H40_3 C35_3 1_555 1_555
H41_3 C35_3 1_555 1_555
H42_3 C35_3 1_555 1_555
H46_3 C40_3 1_555 1_555
H48_3 C40_3 1_555 1_555
H49_3 C41_3 1_555 1_555
H50_3 C41_3 1_555 1_555
H51_3 C41_3 1_555 1_555
H52_3 C45_3 1_555 1_555
H53_3 C45_3 1_555 1_555
H54_3 C45_3 1_555 1_555
H97_3 C81_3 1_555 1_555
H98_3 C81_3 1_555 1_555
H99_3 C81_3 1_555 1_555
H100_3 C85_3 1_555 1_555
H101_3 C85_3 1_555 1_555
H102_3 C85_3 1_555 1_555
H130_3 C110_3 1_555 1_555
H131_3 C110_3 1_555 1_555
H132_3 C110_3 1_555 1_555
H133_3 C111_3 1_555 1_555
H134_3 C111_3 1_555 1_555
H135_3 C111_3 1_555 1_555
H136_3 C115_3 1_555 1_555
H137_3 C115_3 1_555 1_555
H138_3 C115_3 1_555 1_555
H163_3 C136_3 1_555 1_555
H164_3 C136_3 1_555 1_555
H165_3 C136_3 1_555 1_555
H166_3 C140_3 1_555 1_555
H167_3 C140_3 1_555 1_555
H168_3 C140_3 1_555 1_555
N63_2 Ag24_2 1_555 1_555
N64_2 Ag22_2 1_555 1_555
N70_2 Ag28_2 1_555 1_555
N9_3 Ag5_3 1_555 1_555
N11_3 Ag6_3 1_555 1_555
N12_3 Ag4_3 1_555 1_555
N15_3 Ag8_3 1_555 1_555
N17_3 Ag9_3 1_555 1_555
N18_3 Ag7_3 1_555 1_555
N33_3 Ag17_3 1_555 1_555
N45_3 Ag23_3 1_555 1_555
C32_3 C33_3 1_555 1_555
C82_3 C83_3 1_555 1_555
C112_3 C113_3 1_555 1_555
C137_3 C138_3 1_555 1_555
N63_2 N64_2 1_555 1_555
N64 C119_3 1_555 1_555
C106_3 C107_3 1_555 1_555
C108_3 C107_3 1_555 1_555
C116_3 C117_3 1_555 1_555
C117_3 N63 1_555 1_555
C118_3 C108_3 1_555 1_555
C119_3 C118_3 1_555 1_555
C120_3 C119_3 1_555 1_555
H127_3 C106_3 1_555 1_555
H128_3 C106_3 1_555 1_555
H129_3 C106_3 1_555 1_555
H139_3 C116_3 1_555 1_555
H140_3 C116_3 1_555 1_555
H141_3 C116_3 1_555 1_555
H142_3 C120_3 1_555 1_555
H143_3 C120_3 1_555 1_555
H144_3 C120_3 1_555 1_555
C117_3 C118_3 1_555 1_555
N21_3 N22_3 1_555 1_555
N22_3 C54_3 1_555 1_555
N25_3 N26_3 1_555 1_555
N26_3 C64_3 1_555 1_555
N27_3 N28_3 1_555 1_555
N28_3 C69_3 1_555 1_555
N29_3 N30_3 1_555 1_555
N30_3 C74_3 1_555 1_555
N51_3 N52_3 1_555 1_555
N52_3 C129_3 1_555 1_555
N59_3 N70 1_555 1_555
N70 C149_3 1_555 1_555
C51_3 C52_3 1_555 1_555
C52_3 N21_3 1_555 1_555
C53_3 C52_3 1_555 1_555
C54_3 C53_3 1_555 1_555
C55_3 C54_3 1_555 1_555
C61_3 C62_3 1_555 1_555
C62_3 N25_3 1_555 1_555
C63_3 C53_3 1_555 1_555
C64_3 C63_3 1_555 1_555
C65_3 C64_3 1_555 1_555
C66_3 C67_3 1_555 1_555
C67_3 N27_3 1_555 1_555
C68_3 C67_3 1_555 1_555
C69_3 C68_3 1_555 1_555
C70_3 C69_3 1_555 1_555
C71_3 C72_3 1_555 1_555
C72_3 N29_3 1_555 1_555
C73_3 C72_3 1_555 1_555
C74_3 C73_3 1_555 1_555
C75_3 C74_3 1_555 1_555
C126_3 C127_3 1_555 1_555
C127_3 N51_3 1_555 1_555
C128_3 C73_3 1_555 1_555
C129_3 C128_3 1_555 1_555
C130_3 C129_3 1_555 1_555
C146_3 C147_3 1_555 1_555
C147_3 N59_3 1_555 1_555
C148_3 C68_3 1_555 1_555
C149_3 C148_3 1_555 1_555
Ag12_3 N22_3 1_555 1_555
Ag13_3 N25_3 1_555 1_555
Ag14_3 N26_3 1_555 1_555
Ag15_3 N28_3 1_555 1_555
Ag27_2 N52_3 1_555 1_555
H61_3 C51_3 1_555 1_555
H62_3 C51_3 1_555 1_555
H63_3 C51_3 1_555 1_555
H64_3 C55_3 1_555 1_555
H65_3 C55_3 1_555 1_555
H66_3 C55_3 1_555 1_555
H73_3 C61_3 1_555 1_555
H74_3 C61_3 1_555 1_555
H75_3 C61_3 1_555 1_555
H76_3 C65_3 1_555 1_555
H77_3 C65_3 1_555 1_555
H78_3 C65_3 1_555 1_555
H79_3 C66_3 1_555 1_555
H80_3 C66_3 1_555 1_555
H82_3 C70_3 1_555 1_555
H83_3 C70_3 1_555 1_555
H84_3 C70_3 1_555 1_555
H85_3 C71_3 1_555 1_555
H86_3 C71_3 1_555 1_555
H87_3 C71_3 1_555 1_555
H88_3 C75_3 1_555 1_555
H89_3 C75_3 1_555 1_555
H90_3 C75_3 1_555 1_555
H151_3 C126_3 1_555 1_555
H152_3 C126_3 1_555 1_555
H153_3 C126_3 1_555 1_555
H154_3 C130_3 1_555 1_555
H155_3 C130_3 1_555 1_555
H156_3 C130_3 1_555 1_555
H175_3 C146_3 1_555 1_555
H176_3 C146_3 1_555 1_555
H177_3 C146_3 1_555 1_555
N66_2 Ag27_2 1_555 1_555
Ag36_3 N51_3 1_555 1_555
N21_3 Ag11_3 1_555 1_555
N27_3 Ag14_3 1_555 1_555
N29_3 Ag15_3 1_555 1_555
N30_3 Ag13_3 1_555 1_555
C62_3 C63_3 1_555 1_555
C127_3 C128_3 1_555 1_555
C147_3 C148_3 1_555 1_555
N1_3 N2_3 1_555 1_555
N2_3 C4_3 1_555 1_555
N3_3 N4_3 1_555 1_555
N4_3 C9_3 1_555 1_555
N5_3 N6_3 1_555 1_555
N6_3 C14_3 1_555 1_555
N19_3 N20_3 1_555 1_555
N20_3 C49_3 1_555 1_555
N23_3 N24_3 1_555 1_555
N24_3 C59_3 1_555 1_555
N37_3 N38_3 1_555 1_555
N38_3 C94_3 1_555 1_555
N39_2 N40_2 1_555 1_555
N40_2 C99_3 1_555 1_555
N41_3 N42_3 1_555 1_555
N42_3 C104_3 1_555 1_555
N49_3 N50_3 1_555 1_555
N50_3 C124_3 1_555 1_555
C1_3 C2_3 1_555 1_555
C2_3 N1_3 1_555 1_555
C3_3 C2_3 1_555 1_555
C4_3 C3_3 1_555 1_555
C5_3 C4_3 1_555 1_555
C6_3 C7_3 1_555 1_555
C7_3 N3_3 1_555 1_555
C8_3 C7_3 1_555 1_555
C9_3 C8_3 1_555 1_555
C10_3 C9_3 1_555 1_555
C11_3 C12_3 1_555 1_555
C12_3 N5_3 1_555 1_555
C13_3 C12_3 1_555 1_555
C14_3 C13_3 1_555 1_555
C15_3 C14_3 1_555 1_555
C36_3 C37_3 1_555 1_555
C38_3 C37_3 1_555 1_555
C46_3 C47_3 1_555 1_555
C47_3 N19_3 1_555 1_555
C48_3 C38_3 1_555 1_555
C49_3 C48_3 1_555 1_555
C50_3 C49_3 1_555 1_555
C56_3 C57_3 1_555 1_555
C57_3 N23_3 1_555 1_555
C58_3 C3_3 1_555 1_555
C59_3 C58_3 1_555 1_555
C60_3 C59_3 1_555 1_555
C91_3 C92_3 1_555 1_555
C92_3 N37_3 1_555 1_555
C93_3 C92_3 1_555 1_555
C94_3 C93_3 1_555 1_555
C95_3 C94_3 1_555 1_555
C96_3 C97_3 1_555 1_555
C97_3 N39_2 1_555 1_555
C98_3 C93_3 1_555 1_555
C99_3 C98_3 1_555 1_555
C100_3 C99_3 1_555 1_555
C101_3 C102_3 1_555 1_555
C102_3 N41_3 1_555 1_555
C103_3 C13_3 1_555 1_555
C104_3 C103_3 1_555 1_555
C105_3 C104_3 1_555 1_555
C121_3 C122_3 1_555 1_555
C122_3 N49_3 1_555 1_555
C123_3 C8_3 1_555 1_555
C124_3 C123_3 1_555 1_555
C125_3 C124_3 1_555 1_555
Ag1_3 N1_3 1_555 1_555
Ag2_3 N2_3 1_555 1_555
Ag3_3 N4_3 1_555 1_555
Ag10_3 N19_3 1_555 1_555
Ag19_3 N37_3 1_555 1_555
Ag31 N38_3 1_555 1_555
Ag32 N41_3 1_555 1_555
Ag25_2 N49_3 1_555 1_555
Ag36_3 N50_3 1_555 1_555
H1_3 C1_3 1_555 1_555
H2_3 C1_3 1_555 1_555
H3_3 C1_3 1_555 1_555
H4_3 C5_3 1_555 1_555
H5_3 C5_3 1_555 1_555
H6_3 C5_3 1_555 1_555
H7_3 C6_3 1_555 1_555
H8_3 C6_3 1_555 1_555
H9_3 C6_3 1_555 1_555
H10_3 C10_3 1_555 1_555
H11_3 C10_3 1_555 1_555
H12_3 C10_3 1_555 1_555
H13_3 C11_3 1_555 1_555
H14_3 C11_3 1_555 1_555
H15_3 C11_3 1_555 1_555
H16_3 C15_3 1_555 1_555
H17_3 C15_3 1_555 1_555
H18_3 C15_3 1_555 1_555
H43_3 C36_3 1_555 1_555
H44_3 C36_3 1_555 1_555
H45_3 C36_3 1_555 1_555
H55_3 C46_3 1_555 1_555
H56_3 C46_3 1_555 1_555
H57_3 C46_3 1_555 1_555
H59_3 C50_3 1_555 1_555
H68_3 C56_3 1_555 1_555
H69_3 C56_3 1_555 1_555
H70_3 C60_3 1_555 1_555
H71_3 C60_3 1_555 1_555
H72_3 C60_3 1_555 1_555
H109_3 C91_3 1_555 1_555
H110_3 C91_3 1_555 1_555
H111_3 C91_3 1_555 1_555
H112_3 C95_3 1_555 1_555
H113_3 C95_3 1_555 1_555
H114_3 C95_3 1_555 1_555
H115_3 C96_3 1_555 1_555
H116_3 C96_3 1_555 1_555
H117_3 C96_3 1_555 1_555
H118_3 C100_3 1_555 1_555
H119_3 C100_3 1_555 1_555
H120_3 C100_3 1_555 1_555
H121_3 C101_3 1_555 1_555
H122_3 C101_3 1_555 1_555
H123_3 C101_3 1_555 1_555
H124_3 C105_3 1_555 1_555
H125_3 C105_3 1_555 1_555
H126_3 C105_3 1_555 1_555
H145_3 C121_3 1_555 1_555
H146_3 C121_3 1_555 1_555
H147_3 C121_3 1_555 1_555
H148_3 C125_3 1_555 1_555
H149_3 C125_3 1_555 1_555
H150_3 C125_3 1_555 1_555
N67_2 Ag25_2 1_555 1_555
Ag31_2 N39_2 1_555 1_555
Ag32_2 N40_2 1_555 1_555
N3_3 Ag2_3 1_555 1_555
N5_3 Ag3_3 1_555 1_555
N6_3 Ag1_3 1_555 1_555
N24_3 Ag10_3 1_555 1_555
N42_3 Ag19_3 1_555 1_555
C47_3 C48_3 1_555 1_555
C57_3 C58_3 1_555 1_555
C97_3 C98_3 1_555 1_555
C102_3 C103_3 1_555 1_555
C122_3 C123_3 1_555 1_555
N1_4 N2_4 1_555 1_555
N2_4 C4_4 1_555 1_555
N15_4 N16_4 1_555 1_555
N16_4 C39_4 1_555 1_555
N17_4 N18_4 1_555 1_555
N18_4 C44_4 1_555 1_555
N19_4 N20_4 1_555 1_555
N20_4 C49_4 1_555 1_555
N21_4 N22_4 1_555 1_555
N22_4 C54_4 1_555 1_555
N23_4 N24_4 1_555 1_555
N24_4 C59_4 1_555 1_555
N25_4 N26_4 1_555 1_555
N26_4 C64_4 1_555 1_555
N27_4 N28_4 1_555 1_555
N28_4 C69_4 1_555 1_555
N29_4 N30_4 1_555 1_555
N30_4 C74_4 1_555 1_555
N31_4 N32_4 1_555 1_555
N32_4 C79_4 1_555 1_555
N33_4 N34_4 1_555 1_555
N34_4 C84_4 1_555 1_555
N35_4 N36_4 1_555 1_555
N36_4 C89_4 1_555 1_555
N51_4 N52_4 1_555 1_555
N52_4 C129_4 1_555 1_555
N66_2 N67_2 1_555 1_555
N67_2 C134_4 1_555 1_555
N57_4 N69_2 1_555 1_555
N59_4 N70_2 1_555 1_555
N70_2 C149_4 1_555 1_555
C1_4 C2_4 1_555 1_555
C2_4 N1_4 1_555 1_555
C3_4 C2_4 1_555 1_555
C4_4 C3_4 1_555 1_555
C5_4 C4_4 1_555 1_555
C36_4 C37_4 1_555 1_555
C37_4 N15_4 1_555 1_555
C38_4 C37_4 1_555 1_555
C39_4 C38_4 1_555 1_555
C40_4 C39_4 1_555 1_555
C41_4 C42_4 1_555 1_555
C42_4 N17_4 1_555 1_555
C43_4 C42_4 1_555 1_555
C44_4 C43_4 1_555 1_555
C45_4 C44_4 1_555 1_555
C46_4 C47_4 1_555 1_555
C47_4 N19_4 1_555 1_555
C48_4 C38_4 1_555 1_555
C49_4 C48_4 1_555 1_555
C50_4 C49_4 1_555 1_555
C51_4 C52_4 1_555 1_555
C52_4 N21_4 1_555 1_555
C53_4 C52_4 1_555 1_555
C54_4 C53_4 1_555 1_555
C55_4 C54_4 1_555 1_555
C56_4 C57_4 1_555 1_555
C57_4 N23_4 1_555 1_555
C58_4 C3_4 1_555 1_555
C59_4 C58_4 1_555 1_555
C60_4 C59_4 1_555 1_555
C61_4 C62_4 1_555 1_555
C62_4 N25_4 1_555 1_555
C63_4 C53_4 1_555 1_555
C64_4 C63_4 1_555 1_555
C65_4 C64_4 1_555 1_555
C66_4 C67_4 1_555 1_555
C67_4 N27_4 1_555 1_555
C68_4 C67_4 1_555 1_555
C69_4 C68_4 1_555 1_555
C70_4 C69_4 1_555 1_555
C71_4 C72_4 1_555 1_555
C72_4 N29_4 1_555 1_555
C73_4 C72_4 1_555 1_555
C74_4 C73_4 1_555 1_555
C75_4 C74_4 1_555 1_555
C76_4 C77_4 1_555 1_555
C77_4 N31_4 1_555 1_555
C78_4 C77_4 1_555 1_555
C79_4 C78_4 1_555 1_555
C80_4 C79_4 1_555 1_555
C81_4 C82_4 1_555 1_555
C82_4 N33_4 1_555 1_555
C83_4 C43_4 1_555 1_555
C84_4 C83_4 1_555 1_555
C85_4 C84_4 1_555 1_555
C86_4 C87_4 1_555 1_555
C87_4 N35_4 1_555 1_555
C88_4 C87_4 1_555 1_555
C89_4 C88_4 1_555 1_555
C90_4 C89_4 1_555 1_555
C126_4 C127_4 1_555 1_555
C127_4 N51_4 1_555 1_555
C128_4 C73_4 1_555 1_555
C129_4 C128_4 1_555 1_555
C130_4 C129_4 1_555 1_555
C131_4 C132_4 1_555 1_555
C132_4 N66_2 1_555 1_555
C133_4 C88_4 1_555 1_555
C134_4 C133_4 1_555 1_555
C135_4 C134_4 1_555 1_555
C141_4 C142_4 1_555 1_555
C142_4 N57_4 1_555 1_555
C143_4 C78_4 1_555 1_555
C146_4 C147_4 1_555 1_555
C147_4 N59_4 1_555 1_555
C148_4 C68_4 1_555 1_555
C149_4 C148_4 1_555 1_555
C150_4 C149_4 1_555 1_555
Ag1_4 N1_4 1_555 1_555
Ag2_4 N2_4 1_555 1_555
Ag9_4 N16_4 1_555 1_555
Ag10_4 N19_4 1_555 1_555
Ag11_4 N20_4 1_555 1_555
Ag12_4 N22_4 1_555 1_555
Ag13_4 N25_4 1_555 1_555
Ag14_4 N26_4 1_555 1_555
Ag15_4 N28_4 1_555 1_555
Ag16_4 N31_4 1_555 1_555
Ag17_4 N32_4 1_555 1_555
Ag18_4 N34_4 1_555 1_555
Ag37_2 N52_4 1_555 1_555
Ag40_2 N59_4 1_555 1_555
H1_4 C1_4 1_555 1_555
H2_4 C1_4 1_555 1_555
H3_4 C1_4 1_555 1_555
H4_4 C5_4 1_555 1_555
H5_4 C5_4 1_555 1_555
H6_4 C5_4 1_555 1_555
H43_4 C36_4 1_555 1_555
H44_4 C36_4 1_555 1_555
H45_4 C36_4 1_555 1_555
H46_4 C40_4 1_555 1_555
H47_4 C40_4 1_555 1_555
H48_4 C40_4 1_555 1_555
H49_4 C41_4 1_555 1_555
H50_4 C41_4 1_555 1_555
H51_4 C41_4 1_555 1_555
H52_4 C45_4 1_555 1_555
H53_4 C45_4 1_555 1_555
H54_4 C45_4 1_555 1_555
H55_4 C46_4 1_555 1_555
H56_4 C46_4 1_555 1_555
H57_4 C46_4 1_555 1_555
H58_4 C50_4 1_555 1_555
H59_4 C50_4 1_555 1_555
H60_4 C50_4 1_555 1_555
H61_4 C51_4 1_555 1_555
H62_4 C51_4 1_555 1_555
H63_4 C51_4 1_555 1_555
H64_4 C55_4 1_555 1_555
H65_4 C55_4 1_555 1_555
H66_4 C55_4 1_555 1_555
H67_4 C56_4 1_555 1_555
H68_4 C56_4 1_555 1_555
H69_4 C56_4 1_555 1_555
H70_4 C60_4 1_555 1_555
H71_4 C60_4 1_555 1_555
H72_4 C60_4 1_555 1_555
H73_4 C61_4 1_555 1_555
H74_4 C61_4 1_555 1_555
H75_4 C61_4 1_555 1_555
H76_4 C65_4 1_555 1_555
H77_4 C65_4 1_555 1_555
H78_4 C65_4 1_555 1_555
H79_4 C66_4 1_555 1_555
H80_4 C66_4 1_555 1_555
H81_4 C66_4 1_555 1_555
H82_4 C70_4 1_555 1_555
H83_4 C70_4 1_555 1_555
H84_4 C70_4 1_555 1_555
H85_4 C71_4 1_555 1_555
H86_4 C71_4 1_555 1_555
H87_4 C71_4 1_555 1_555
H88_4 C75_4 1_555 1_555
H89_4 C75_4 1_555 1_555
H90_4 C75_4 1_555 1_555
H91_4 C76_4 1_555 1_555
H93_4 C76_4 1_555 1_555
H94_4 C80_4 1_555 1_555
H95_4 C80_4 1_555 1_555
H96_4 C80_4 1_555 1_555
H97_4 C81_4 1_555 1_555
H98_4 C81_4 1_555 1_555
H99_4 C81_4 1_555 1_555
H100_4 C85_4 1_555 1_555
H101_4 C85_4 1_555 1_555
H102_4 C85_4 1_555 1_555
H103_4 C86_4 1_555 1_555
H104_4 C86_4 1_555 1_555
H105_4 C86_4 1_555 1_555
H106_4 C90_4 1_555 1_555
H107_4 C90_4 1_555 1_555
H108_4 C90_4 1_555 1_555
H151_4 C126_4 1_555 1_555
H152_4 C126_4 1_555 1_555
H153_4 C126_4 1_555 1_555
H154_4 C130_4 1_555 1_555
H155_4 C130_4 1_555 1_555
H156_4 C130_4 1_555 1_555
H157_4 C131_4 1_555 1_555
H158_4 C131_4 1_555 1_555
H159_4 C131_4 1_555 1_555
H160_4 C135_4 1_555 1_555
H161_4 C135_4 1_555 1_555
H162_4 C135_4 1_555 1_555
H169_4 C141_4 1_555 1_555
H170_4 C141_4 1_555 1_555
H171_4 C141_4 1_555 1_555
H175_4 C146_4 1_555 1_555
H176_4 C146_4 1_555 1_555
H177_4 C146_4 1_555 1_555
H178_4 C150_4 1_555 1_555
H179_4 C150_4 1_555 1_555
H180_4 C150_4 1_555 1_555
Ag36_4 N51_4 1_555 1_555
Ag39_4 N57_4 1_555 1_555
N15_4 Ag8_4 1_555 1_555
N17_4 Ag9_4 1_555 1_555
N18_4 Ag7_4 1_555 1_555
N21_4 Ag11_4 1_555 1_555
N23_4 Ag12_4 1_555 1_555
N24_4 Ag10_4 1_555 1_555
N27_4 Ag14_4 1_555 1_555
N29_4 Ag15_4 1_555 1_555
N30_4 Ag13_4 1_555 1_555
N33_4 Ag17_4 1_555 1_555
N35_4 Ag18_4 1_555 1_555
N36_4 Ag16_4 1_555 1_555
C47_4 C48_4 1_555 1_555
C57_4 C58_4 1_555 1_555
C62_4 C63_4 1_555 1_555
C82_4 C83_4 1_555 1_555
C127_4 C128_4 1_555 1_555
C132_4 C133_4 1_555 1_555
C142_4 C143_4 1_555 1_555
C147_4 C148_4 1_555 1_555
N3_4 N4_4 1_555 1_555
N4_4 C9_4 1_555 1_555
N5_4 N6_4 1_555 1_555
N6_4 C14_4 1_555 1_555
N7_4 N8_4 1_555 1_555
N8_4 C19_4 1_555 1_555
N9_4 N10_4 1_555 1_555
N10_4 C24_4 1_555 1_555
N11_4 N12_4 1_555 1_555
N12_4 C29_4 1_555 1_555
N13_4 N14_4 1_555 1_555
N14_4 C34_4 1_555 1_555
N37_4 N38_4 1_555 1_555
N38_4 C94_4 1_555 1_555
N62_2 C99_4 1_555 1_555
N41_4 N42_4 1_555 1_555
N42_4 C104_4 1_555 1_555
N43_4 N44_4 1_555 1_555
N44_4 C109_4 1_555 1_555
N45_4 N46_4 1_555 1_555
N46_4 C114_4 1_555 1_555
N64_2 C119_4 1_555 1_555
N49_4 N50_4 1_555 1_555
N50_4 C124_4 1_555 1_555
N55_4 N56_4 1_555 1_555
N56_4 C139_4 1_555 1_555
C6_4 C7_4 1_555 1_555
C7_4 N3_4 1_555 1_555
C8_4 C7_4 1_555 1_555
C9_4 C8_4 1_555 1_555
C10_4 C9_4 1_555 1_555
C11_4 C12_4 1_555 1_555
C12_4 N5_4 1_555 1_555
C13_4 C12_4 1_555 1_555
C14_4 C13_4 1_555 1_555
C15_4 C14_4 1_555 1_555
C16_4 C17_4 1_555 1_555
C17_4 N7_4 1_555 1_555
C18_4 C17_4 1_555 1_555
C19_4 C18_4 1_555 1_555
C20_4 C19_4 1_555 1_555
C21_4 C22_4 1_555 1_555
C22_4 N9_4 1_555 1_555
C23_4 C22_4 1_555 1_555
C24_4 C23_4 1_555 1_555
C25_4 C24_4 1_555 1_555
C26_4 C27_4 1_555 1_555
C27_4 N11_4 1_555 1_555
C28_4 C27_4 1_555 1_555
C29_4 C28_4 1_555 1_555
C30_4 C29_4 1_555 1_555
C31_4 C32_4 1_555 1_555
C32_4 N13_4 1_555 1_555
C33_4 C23_4 1_555 1_555
C34_4 C33_4 1_555 1_555
C35_4 C34_4 1_555 1_555
C91_4 C92_4 1_555 1_555
C92_4 N37_4 1_555 1_555
C93_4 C92_4 1_555 1_555
C94_4 C93_4 1_555 1_555
C95_4 C94_4 1_555 1_555
C96_4 C97_4 1_555 1_555
C97_4 N61_2 1_555 1_555
C98_4 C93_4 1_555 1_555
C99_4 C98_4 1_555 1_555
C100_4 C99_4 1_555 1_555
C101_4 C102_4 1_555 1_555
C102_4 N41_4 1_555 1_555
C103_4 C13_4 1_555 1_555
C104_4 C103_4 1_555 1_555
C105_4 C104_4 1_555 1_555
C106_4 C107_4 1_555 1_555
C107_4 N43_4 1_555 1_555
C108_4 C107_4 1_555 1_555
C109_4 C108_4 1_555 1_555
C110_4 C109_4 1_555 1_555
C111_4 C112_4 1_555 1_555
C112_4 N45_4 1_555 1_555
C113_4 C18_4 1_555 1_555
C114_4 C113_4 1_555 1_555
C115_4 C114_4 1_555 1_555
C116_4 C117_4 1_555 1_555
C117_4 N63_2 1_555 1_555
C118_4 C108_4 1_555 1_555
C119_4 C118_4 1_555 1_555
C120_4 C119_4 1_555 1_555
C121_4 C122_4 1_555 1_555
C122_4 N49_4 1_555 1_555
C123_4 C8_4 1_555 1_555
C124_4 C123_4 1_555 1_555
C125_4 C124_4 1_555 1_555
C136_4 C137_4 1_555 1_555
C137_4 N55_4 1_555 1_555
C138_4 C28_4 1_555 1_555
C139_4 C138_4 1_555 1_555
C140_4 C139_4 1_555 1_555
Ag3_4 N4_4 1_555 1_555
Ag4_4 N7_4 1_555 1_555
Ag5_4 N8_4 1_555 1_555
Ag6_4 N10_4 1_555 1_555
Ag19_4 N37_4 1_555 1_555
Ag31_2 N38_4 1_555 1_555
Ag32_2 N41_4 1_555 1_555
Ag33_2 N43_4 1_555 1_555
Ag23_4 N44_4 1_555 1_555
Ag34_2 N46_4 1_555 1_555
Ag35_2 N49_4 1_555 1_555
Ag36_4 N50_4 1_555 1_555
Ag38_2 N55_4 1_555 1_555
Ag39_4 N56_4 1_555 1_555
H7_4 C6_4 1_555 1_555
H8_4 C6_4 1_555 1_555
H9_4 C6_4 1_555 1_555
H10_4 C10_4 1_555 1_555
H11_4 C10_4 1_555 1_555
H12_4 C10_4 1_555 1_555
H13_4 C11_4 1_555 1_555
H14_4 C11_4 1_555 1_555
H15_4 C11_4 1_555 1_555
H16_4 C15_4 1_555 1_555
H17_4 C15_4 1_555 1_555
H18_4 C15_4 1_555 1_555
H19_4 C16_4 1_555 1_555
H20_4 C16_4 1_555 1_555
H21_4 C16_4 1_555 1_555
H22_4 C20_4 1_555 1_555
H23_4 C20_4 1_555 1_555
H24_4 C20_4 1_555 1_555
H25_4 C21_4 1_555 1_555
H26_4 C21_4 1_555 1_555
H27_4 C21_4 1_555 1_555
H28_4 C25_4 1_555 1_555
H29_4 C25_4 1_555 1_555
H30_4 C25_4 1_555 1_555
H31_4 C26_4 1_555 1_555
H32_4 C26_4 1_555 1_555
H33_4 C26_4 1_555 1_555
H34_4 C30_4 1_555 1_555
H35_4 C30_4 1_555 1_555
H36_4 C30_4 1_555 1_555
H37_4 C31_4 1_555 1_555
H38_4 C31_4 1_555 1_555
H39_4 C31_4 1_555 1_555
H40_4 C35_4 1_555 1_555
H41_4 C35_4 1_555 1_555
H42_4 C35_4 1_555 1_555
H109_4 C91_4 1_555 1_555
H110_4 C91_4 1_555 1_555
H111_4 C91_4 1_555 1_555
H112_4 C95_4 1_555 1_555
H113_4 C95_4 1_555 1_555
H114_4 C95_4 1_555 1_555
H115_4 C96_4 1_555 1_555
H116_4 C96_4 1_555 1_555
H117_4 C96_4 1_555 1_555
H118_4 C100_4 1_555 1_555
H119_4 C100_4 1_555 1_555
H120_4 C100_4 1_555 1_555
H121_4 C101_4 1_555 1_555
H122_4 C101_4 1_555 1_555
H123_4 C101_4 1_555 1_555
H124_4 C105_4 1_555 1_555
H125_4 C105_4 1_555 1_555
H126_4 C105_4 1_555 1_555
H127_4 C106_4 1_555 1_555
H128_4 C106_4 1_555 1_555
H129_4 C106_4 1_555 1_555
H130_4 C110_4 1_555 1_555
H131_4 C110_4 1_555 1_555
H132_4 C110_4 1_555 1_555
H133_4 C111_4 1_555 1_555
H134_4 C111_4 1_555 1_555
H135_4 C111_4 1_555 1_555
H136_4 C115_4 1_555 1_555
H137_4 C115_4 1_555 1_555
H138_4 C115_4 1_555 1_555
H139_4 C116_4 1_555 1_555
H140_4 C116_4 1_555 1_555
H141_4 C116_4 1_555 1_555
H142_4 C120_4 1_555 1_555
H143_4 C120_4 1_555 1_555
H144_4 C120_4 1_555 1_555
H145_4 C121_4 1_555 1_555
H146_4 C121_4 1_555 1_555
H147_4 C121_4 1_555 1_555
H148_4 C125_4 1_555 1_555
H149_4 C125_4 1_555 1_555
H150_4 C125_4 1_555 1_555
H163_4 C136_4 1_555 1_555
H164_4 C136_4 1_555 1_555
H165_4 C136_4 1_555 1_555
H166_4 C140_4 1_555 1_555
H167_4 C140_4 1_555 1_555
H168_4 C140_4 1_555 1_555
N5_4 Ag3_4 1_555 1_555
N9_4 Ag5_4 1_555 1_555
N11_4 Ag6_4 1_555 1_555
N12_4 Ag4_4 1_555 1_555
N42_4 Ag19_4 1_555 1_555
N45_4 Ag23_4 1_555 1_555
C32_4 C33_4 1_555 1_555
C97_4 C98_4 1_555 1_555
C102_4 C103_4 1_555 1_555
C112_4 C113_4 1_555 1_555
C117_4 C118_4 1_555 1_555
C122_4 C123_4 1_555 1_555
C137_4 C138_4 1_555 1_555
C145_4 C144_4 1_555 1_555
H172_4 C145_4 1_555 1_555
H173_4 C145_4 1_555 1_555
H174_4 C145_4 1_555 1_555
N21_5 N22_5 1_555 1_555
N22_5 C54_5 1_555 1_555
N25_5 N26_5 1_555 1_555
N26_5 C64_5 1_555 1_555
N27_5 N28_5 1_555 1_555
N28_5 C69_5 1_555 1_555
N29_5 N30_5 1_555 1_555
N30_5 C74_5 1_555 1_555
N51_5 N52_5 1_555 1_555
N52_5 C129_5 1_555 1_555
N59_5 N60_3 1_555 1_555
N60_3 C149_5 1_555 1_555
C51_5 C52_5 1_555 1_555
C52_5 N21_5 1_555 1_555
C53_5 C52_5 1_555 1_555
C54_5 C53_5 1_555 1_555
C55_5 C54_5 1_555 1_555
C61_5 C62_5 1_555 1_555
C62_5 N25_5 1_555 1_555
C63_5 C53_5 1_555 1_555
C64_5 C63_5 1_555 1_555
C65_5 C64_5 1_555 1_555
C66_5 C67_5 1_555 1_555
C67_5 N27_5 1_555 1_555
C68_5 C67_5 1_555 1_555
C69_5 C68_5 1_555 1_555
C70_5 C69_5 1_555 1_555
C71_5 C72_5 1_555 1_555
C72_5 N29_5 1_555 1_555
C73_5 C72_5 1_555 1_555
C74_5 C73_5 1_555 1_555
C75_5 C74_5 1_555 1_555
C126_5 C127_5 1_555 1_555
C127_5 N51_5 1_555 1_555
C128_5 C73_5 1_555 1_555
C129_5 C128_5 1_555 1_555
C130_5 C129_5 1_555 1_555
C146_5 C147_5 1_555 1_555
C147_5 N59_5 1_555 1_555
C148_5 C68_5 1_555 1_555
C149_5 C148_5 1_555 1_555
Ag12_5 N22_5 1_555 1_555
Ag13_5 N25_5 1_555 1_555
Ag14_5 N26_5 1_555 1_555
Ag15_5 N28_5 1_555 1_555
Ag27_3 N52_5 1_555 1_555
H61_5 C51_5 1_555 1_555
H62_5 C51_5 1_555 1_555
H63_5 C51_5 1_555 1_555
H64_5 C55_5 1_555 1_555
H65_5 C55_5 1_555 1_555
H66_5 C55_5 1_555 1_555
H73_5 C61_5 1_555 1_555
H74_5 C61_5 1_555 1_555
H75_5 C61_5 1_555 1_555
H76_5 C65_5 1_555 1_555
H77_5 C65_5 1_555 1_555
H78_5 C65_5 1_555 1_555
H79_5 C66_5 1_555 1_555
H80_5 C66_5 1_555 1_555
H82_5 C70_5 1_555 1_555
H83_5 C70_5 1_555 1_555
H84_5 C70_5 1_555 1_555
H85_5 C71_5 1_555 1_555
H86_5 C71_5 1_555 1_555
H87_5 C71_5 1_555 1_555
H88_5 C75_5 1_555 1_555
H89_5 C75_5 1_555 1_555
H90_5 C75_5 1_555 1_555
H151_5 C126_5 1_555 1_555
H152_5 C126_5 1_555 1_555
H153_5 C126_5 1_555 1_555
H154_5 C130_5 1_555 1_555
H155_5 C130_5 1_555 1_555
H156_5 C130_5 1_555 1_555
H175_5 C146_5 1_555 1_555
H176_5 C146_5 1_555 1_555
H177_5 C146_5 1_555 1_555
N66_3 Ag27_3 1_555 1_555
Ag36_5 N51_5 1_555 1_555
Ag38_3 N60_3 1_555 1_555
N21_5 Ag11_5 1_555 1_555
N27_5 Ag14_5 1_555 1_555
N29_5 Ag15_5 1_555 1_555
N30_5 Ag13_5 1_555 1_555
C62_5 C63_5 1_555 1_555
C127_5 C128_5 1_555 1_555
C147_5 C148_5 1_555 1_555
N1_5 N2_5 1_555 1_555
N2_5 C4_5 1_555 1_555
N3_5 N4_5 1_555 1_555
N4_5 C9_5 1_555 1_555
N5_5 N6_5 1_555 1_555
N6_5 C14_5 1_555 1_555
N19_5 N20_5 1_555 1_555
N20_5 C49_5 1_555 1_555
N23_5 N24_5 1_555 1_555
N24_5 C59_5 1_555 1_555
N37_5 N38_5 1_555 1_555
N38_5 C94_5 1_555 1_555
N39_3 N40_3 1_555 1_555
N40_3 C99_5 1_555 1_555
N41_5 N42_5 1_555 1_555
N42_5 C104_5 1_555 1_555
N49_5 N50_5 1_555 1_555
N50_5 C124_5 1_555 1_555
C1_5 C2_5 1_555 1_555
C2_5 N1_5 1_555 1_555
C3_5 C2_5 1_555 1_555
C4_5 C3_5 1_555 1_555
C5_5 C4_5 1_555 1_555
C6_5 C7_5 1_555 1_555
C7_5 N3_5 1_555 1_555
C8_5 C7_5 1_555 1_555
C9_5 C8_5 1_555 1_555
C10_5 C9_5 1_555 1_555
C11_5 C12_5 1_555 1_555
C12_5 N5_5 1_555 1_555
C13_5 C12_5 1_555 1_555
C14_5 C13_5 1_555 1_555
C15_5 C14_5 1_555 1_555
C36_5 C37_5 1_555 1_555
C38_5 C37_5 1_555 1_555
C46_5 C47_5 1_555 1_555
C47_5 N19_5 1_555 1_555
C48_5 C38_5 1_555 1_555
C49_5 C48_5 1_555 1_555
C50_5 C49_5 1_555 1_555
C56_5 C57_5 1_555 1_555
C57_5 N23_5 1_555 1_555
C58_5 C3_5 1_555 1_555
C59_5 C58_5 1_555 1_555
C60_5 C59_5 1_555 1_555
C91_5 C92_5 1_555 1_555
C92_5 N37_5 1_555 1_555
C93_5 C92_5 1_555 1_555
C94_5 C93_5 1_555 1_555
C95_5 C94_5 1_555 1_555
C96_5 C97_5 1_555 1_555
C97_5 N39_3 1_555 1_555
C98_5 C93_5 1_555 1_555
C99_5 C98_5 1_555 1_555
C100_5 C99_5 1_555 1_555
C101_5 C102_5 1_555 1_555
C102_5 N41_5 1_555 1_555
C103_5 C13_5 1_555 1_555
C104_5 C103_5 1_555 1_555
C105_5 C104_5 1_555 1_555
C121_5 C122_5 1_555 1_555
C122_5 N49_5 1_555 1_555
C123_5 C8_5 1_555 1_555
C124_5 C123_5 1_555 1_555
C125_5 C124_5 1_555 1_555
Ag1_5 N1_5 1_555 1_555
Ag2_5 N2_5 1_555 1_555
Ag3_5 N4_5 1_555 1_555
Ag10_5 N19_5 1_555 1_555
Ag19_5 N37_5 1_555 1_555
Ag20_3 N38_5 1_555 1_555
Ag21_3 N41_5 1_555 1_555
Ag25_3 N49_5 1_555 1_555
Ag36_5 N50_5 1_555 1_555
H1_5 C1_5 1_555 1_555
H2_5 C1_5 1_555 1_555
H3_5 C1_5 1_555 1_555
H4_5 C5_5 1_555 1_555
H5_5 C5_5 1_555 1_555
H6_5 C5_5 1_555 1_555
H7_5 C6_5 1_555 1_555
H8_5 C6_5 1_555 1_555
H9_5 C6_5 1_555 1_555
H10_5 C10_5 1_555 1_555
H11_5 C10_5 1_555 1_555
H12_5 C10_5 1_555 1_555
H13_5 C11_5 1_555 1_555
H14_5 C11_5 1_555 1_555
H15_5 C11_5 1_555 1_555
H16_5 C15_5 1_555 1_555
H17_5 C15_5 1_555 1_555
H18_5 C15_5 1_555 1_555
H43_5 C36_5 1_555 1_555
H44_5 C36_5 1_555 1_555
H45_5 C36_5 1_555 1_555
H55_5 C46_5 1_555 1_555
H56_5 C46_5 1_555 1_555
H57_5 C46_5 1_555 1_555
H59_5 C50_5 1_555 1_555
H68_5 C56_5 1_555 1_555
H69_5 C56_5 1_555 1_555
H70_5 C60_5 1_555 1_555
H71_5 C60_5 1_555 1_555
H72_5 C60_5 1_555 1_555
H109_5 C91_5 1_555 1_555
H110_5 C91_5 1_555 1_555
H111_5 C91_5 1_555 1_555
H112_5 C95_5 1_555 1_555
H113_5 C95_5 1_555 1_555
H114_5 C95_5 1_555 1_555
H115_5 C96_5 1_555 1_555
H116_5 C96_5 1_555 1_555
H117_5 C96_5 1_555 1_555
H118_5 C100_5 1_555 1_555
H119_5 C100_5 1_555 1_555
H120_5 C100_5 1_555 1_555
H121_5 C101_5 1_555 1_555
H122_5 C101_5 1_555 1_555
H123_5 C101_5 1_555 1_555
H124_5 C105_5 1_555 1_555
H125_5 C105_5 1_555 1_555
H126_5 C105_5 1_555 1_555
H145_5 C121_5 1_555 1_555
H146_5 C121_5 1_555 1_555
H147_5 C121_5 1_555 1_555
H148_5 C125_5 1_555 1_555
H149_5 C125_5 1_555 1_555
H150_5 C125_5 1_555 1_555
N61_3 Ag20_3 1_555 1_555
N62_3 Ag21_3 1_555 1_555
N67_3 Ag25_3 1_555 1_555
N69_3 Ag30_3 1_555 1_555
Ag32_3 N40_3 1_555 1_555
N3_5 Ag2_5 1_555 1_555
N5_5 Ag3_5 1_555 1_555
N6_5 Ag1_5 1_555 1_555
N24_5 Ag10_5 1_555 1_555
N42_5 Ag19_5 1_555 1_555
C47_5 C48_5 1_555 1_555
C57_5 C58_5 1_555 1_555
C97_5 C98_5 1_555 1_555
C102_5 C103_5 1_555 1_555
C122_5 C123_5 1_555 1_555
N61_3 N62_3 1_555 1_555
N31_5 N32_5 1_555 1_555
N32_5 C79_5 1_555 1_555
N35_5 N36_5 1_555 1_555
N36_5 C89_5 1_555 1_555
N57_5 N58_3 1_555 1_555
N58_3 C144_5 1_555 1_555
C76_5 C77_5 1_555 1_555
C77_5 N31_5 1_555 1_555
C78_5 C77_5 1_555 1_555
C79_5 C78_5 1_555 1_555
C80_5 C79_5 1_555 1_555
C86_5 C87_5 1_555 1_555
C87_5 N35_5 1_555 1_555
C88_5 C87_5 1_555 1_555
C89_5 C88_5 1_555 1_555
C90_5 C89_5 1_555 1_555
C133_5 C88_5 1_555 1_555
C134_5 C133_5 1_555 1_555
C135_5 C134_5 1_555 1_555
C141_5 C142_5 1_555 1_555
C142_5 N57_5 1_555 1_555
C143_5 C78_5 1_555 1_555
C144_5 C143_5 1_555 1_555
C145_5 C144_5 1_555 1_555
Ag16_5 N31_5 1_555 1_555
H91_5 C76_5 1_555 1_555
H92_5 C76_5 1_555 1_555
H93_5 C76_5 1_555 1_555
H95_5 C80_5 1_555 1_555
H96_5 C80_5 1_555 1_555
H104_5 C86_5 1_555 1_555
H105_5 C86_5 1_555 1_555
H106_5 C90_5 1_555 1_555
H107_5 C90_5 1_555 1_555
H108_5 C90_5 1_555 1_555
H160_5 C135_5 1_555 1_555
H161_5 C135_5 1_555 1_555
H162_5 C135_5 1_555 1_555
H169_5 C141_5 1_555 1_555
H170_5 C141_5 1_555 1_555
H171_5 C141_5 1_555 1_555
H172_5 C145_5 1_555 1_555
H173_5 C145_5 1_555 1_555
H174_5 C145_5 1_555 1_555
H178_5 C150_5 1_555 1_555
H180_5 C150_5 1_555 1_555
Ag39_5 N57_5 1_555 1_555
Ag40_3 N58_3 1_555 1_555
N36_5 Ag16_5 1_555 1_555
C142_5 C143_5 1_555 1_555
N7_5 N8_5 1_555 1_555
N8_5 C19_5 1_555 1_555
N9_5 N10_5 1_555 1_555
N10_5 C24_5 1_555 1_555
N11_5 N12_5 1_555 1_555
N12_5 C29_5 1_555 1_555
N13_5 N14_5 1_555 1_555
N14_5 C34_5 1_555 1_555
N15_5 N16_5 1_555 1_555
N16_5 C39_5 1_555 1_555
N17_5 N18_5 1_555 1_555
N18_5 C44_5 1_555 1_555
N33_5 N34_5 1_555 1_555
N34_5 C84_5 1_555 1_555
N43_5 N44_5 1_555 1_555
N44_5 C109_5 1_555 1_555
N45_5 N46_5 1_555 1_555
N46_5 C114_5 1_555 1_555
N47_3 N48_3 1_555 1_555
N48_3 C119_5 1_555 1_555
N55_5 N56_5 1_555 1_555
N56_5 C139_5 1_555 1_555
C16_5 C17_5 1_555 1_555
C17_5 N7_5 1_555 1_555
C18_5 C17_5 1_555 1_555
C19_5 C18_5 1_555 1_555
C20_5 C19_5 1_555 1_555
C21_5 C22_5 1_555 1_555
C22_5 N9_5 1_555 1_555
C23_5 C22_5 1_555 1_555
C24_5 C23_5 1_555 1_555
C25_5 C24_5 1_555 1_555
C26_5 C27_5 1_555 1_555
C27_5 N11_5 1_555 1_555
C28_5 C27_5 1_555 1_555
C29_5 C28_5 1_555 1_555
C30_5 C29_5 1_555 1_555
C31_5 C32_5 1_555 1_555
C32_5 N13_5 1_555 1_555
C33_5 C23_5 1_555 1_555
C34_5 C33_5 1_555 1_555
C35_5 C34_5 1_555 1_555
C40_5 C39_5 1_555 1_555
C41_5 C42_5 1_555 1_555
C42_5 N17_5 1_555 1_555
C43_5 C42_5 1_555 1_555
C44_5 C43_5 1_555 1_555
C45_5 C44_5 1_555 1_555
C81_5 C82_5 1_555 1_555
C82_5 N33_5 1_555 1_555
C83_5 C43_5 1_555 1_555
C84_5 C83_5 1_555 1_555
C85_5 C84_5 1_555 1_555
C106_5 C107_5 1_555 1_555
C107_5 N43_5 1_555 1_555
C108_5 C107_5 1_555 1_555
C109_5 C108_5 1_555 1_555
C110_5 C109_5 1_555 1_555
C111_5 C112_5 1_555 1_555
C112_5 N45_5 1_555 1_555
C113_5 C18_5 1_555 1_555
C114_5 C113_5 1_555 1_555
C115_5 C114_5 1_555 1_555
C116_5 C117_5 1_555 1_555
C117_5 N47_3 1_555 1_555
C118_5 C108_5 1_555 1_555
C119_5 C118_5 1_555 1_555
C120_5 C119_5 1_555 1_555
C136_5 C137_5 1_555 1_555
C137_5 N55_5 1_555 1_555
C138_5 C28_5 1_555 1_555
C139_5 C138_5 1_555 1_555
C140_5 C139_5 1_555 1_555
Ag4_5 N7_5 1_555 1_555
Ag5_5 N8_5 1_555 1_555
Ag6_5 N10_5 1_555 1_555
Ag7_5 N13_5 1_555 1_555
Ag8_5 N14_5 1_555 1_555
Ag9_5 N16_5 1_555 1_555
Ag18_5 N34_5 1_555 1_555
Ag22_3 N43_5 1_555 1_555
Ag23_5 N44_5 1_555 1_555
Ag24_3 N46_5 1_555 1_555
Ag28_3 N55_5 1_555 1_555
Ag39_5 N56_5 1_555 1_555
H19_5 C16_5 1_555 1_555
H20_5 C16_5 1_555 1_555
H21_5 C16_5 1_555 1_555
H22_5 C20_5 1_555 1_555
H23_5 C20_5 1_555 1_555
H24_5 C20_5 1_555 1_555
H25_5 C21_5 1_555 1_555
H26_5 C21_5 1_555 1_555
H27_5 C21_5 1_555 1_555
H28_5 C25_5 1_555 1_555
H29_5 C25_5 1_555 1_555
H30_5 C25_5 1_555 1_555
H31_5 C26_5 1_555 1_555
H32_5 C26_5 1_555 1_555
H33_5 C26_5 1_555 1_555
H34_5 C30_5 1_555 1_555
H35_5 C30_5 1_555 1_555
H36_5 C30_5 1_555 1_555
H37_5 C31_5 1_555 1_555
H38_5 C31_5 1_555 1_555
H39_5 C31_5 1_555 1_555
H40_5 C35_5 1_555 1_555
H41_5 C35_5 1_555 1_555
H42_5 C35_5 1_555 1_555
H46_5 C40_5 1_555 1_555
H48_5 C40_5 1_555 1_555
H49_5 C41_5 1_555 1_555
H50_5 C41_5 1_555 1_555
H51_5 C41_5 1_555 1_555
H52_5 C45_5 1_555 1_555
H53_5 C45_5 1_555 1_555
H54_5 C45_5 1_555 1_555
H97_5 C81_5 1_555 1_555
H98_5 C81_5 1_555 1_555
H99_5 C81_5 1_555 1_555
H100_5 C85_5 1_555 1_555
H101_5 C85_5 1_555 1_555
H102_5 C85_5 1_555 1_555
H127_5 C106_5 1_555 1_555
H128_5 C106_5 1_555 1_555
H129_5 C106_5 1_555 1_555
H130_5 C110_5 1_555 1_555
H131_5 C110_5 1_555 1_555
H132_5 C110_5 1_555 1_555
H133_5 C111_5 1_555 1_555
H134_5 C111_5 1_555 1_555
H135_5 C111_5 1_555 1_555
H136_5 C115_5 1_555 1_555
H137_5 C115_5 1_555 1_555
H138_5 C115_5 1_555 1_555
H139_5 C116_5 1_555 1_555
H140_5 C116_5 1_555 1_555
H141_5 C116_5 1_555 1_555
H142_5 C120_5 1_555 1_555
H143_5 C120_5 1_555 1_555
H144_5 C120_5 1_555 1_555
H163_5 C136_5 1_555 1_555
H164_5 C136_5 1_555 1_555
H165_5 C136_5 1_555 1_555
H166_5 C140_5 1_555 1_555
H167_5 C140_5 1_555 1_555
H168_5 C140_5 1_555 1_555
N63_3 Ag24_3 1_555 1_555
N64_3 Ag22_3 1_555 1_555
N70_3 Ag28_3 1_555 1_555
Ag33_3 N48_3 1_555 1_555
Ag34_3 N47_3 1_555 1_555
N9_5 Ag5_5 1_555 1_555
N11_5 Ag6_5 1_555 1_555
N12_5 Ag4_5 1_555 1_555
N15_5 Ag8_5 1_555 1_555
N17_5 Ag9_5 1_555 1_555
N18_5 Ag7_5 1_555 1_555
N33_5 Ag17_5 1_555 1_555
N45_5 Ag23_5 1_555 1_555
C32_5 C33_5 1_555 1_555
C82_5 C83_5 1_555 1_555
C112_5 C113_5 1_555 1_555
C117_5 C118_5 1_555 1_555
C137_5 C138_5 1_555 1_555
N63_3 N64_3 1_555 1_555
N53_3 N54_3 1_555 1_555
C131_5 C132_5 1_555 1_555
C132_5 N53_3 1_555 1_555
H157_5 C131_5 1_555 1_555
H158_5 C131_5 1_555 1_555
H159_5 C131_5 1_555 1_555
Ag35_3 N54_3 1_555 1_555
Ag37_3 N53_3 1_555 1_555
N1_6 N2_6 1_555 1_555
N2_6 C4_6 1_555 1_555
N15_6 N16_6 1_555 1_555
N16_6 C39_6 1_555 1_555
N17_6 N18_6 1_555 1_555
N18_6 C44_6 1_555 1_555
N19_6 N20_6 1_555 1_555
N20_6 C49_6 1_555 1_555
N21_6 N22_6 1_555 1_555
N22_6 C54_6 1_555 1_555
N23_6 N24_6 1_555 1_555
N24_6 C59_6 1_555 1_555
N25_6 N26_6 1_555 1_555
N26_6 C64_6 1_555 1_555
N27_6 N28_6 1_555 1_555
N28_6 C69_6 1_555 1_555
N29_6 N30_6 1_555 1_555
N30_6 C74_6 1_555 1_555
N31_6 N32_6 1_555 1_555
N32_6 C79_6 1_555 1_555
N33_6 N34_6 1_555 1_555
N34_6 C84_6 1_555 1_555
N35_6 N36_6 1_555 1_555
N36_6 C89_6 1_555 1_555
N51_6 N52_6 1_555 1_555
N52_6 C129_6 1_555 1_555
N66_3 N67_3 1_555 1_555
N67_3 C134_6 1_555 1_555
N57_6 N58_4 1_555 1_555
N58_4 C144_6 1_555 1_555
N59_6 N70_3 1_555 1_555
N70_3 C149_6 1_555 1_555
C1_6 C2_6 1_555 1_555
C2_6 N1_6 1_555 1_555
C3_6 C2_6 1_555 1_555
C4_6 C3_6 1_555 1_555
C5_6 C4_6 1_555 1_555
C36_6 C37_6 1_555 1_555
C37_6 N15_6 1_555 1_555
C38_6 C37_6 1_555 1_555
C39_6 C38_6 1_555 1_555
C40_6 C39_6 1_555 1_555
C41_6 C42_6 1_555 1_555
C42_6 N17_6 1_555 1_555
C43_6 C42_6 1_555 1_555
C44_6 C43_6 1_555 1_555
C45_6 C44_6 1_555 1_555
C46_6 C47_6 1_555 1_555
C47_6 N19_6 1_555 1_555
C48_6 C38_6 1_555 1_555
C49_6 C48_6 1_555 1_555
C50_6 C49_6 1_555 1_555
C51_6 C52_6 1_555 1_555
C52_6 N21_6 1_555 1_555
C53_6 C52_6 1_555 1_555
C54_6 C53_6 1_555 1_555
C55_6 C54_6 1_555 1_555
C56_6 C57_6 1_555 1_555
C57_6 N23_6 1_555 1_555
C58_6 C3_6 1_555 1_555
C59_6 C58_6 1_555 1_555
C60_6 C59_6 1_555 1_555
C61_6 C62_6 1_555 1_555
C62_6 N25_6 1_555 1_555
C63_6 C53_6 1_555 1_555
C64_6 C63_6 1_555 1_555
C65_6 C64_6 1_555 1_555
C66_6 C67_6 1_555 1_555
C67_6 N27_6 1_555 1_555
C68_6 C67_6 1_555 1_555
C69_6 C68_6 1_555 1_555
C70_6 C69_6 1_555 1_555
C71_6 C72_6 1_555 1_555
C72_6 N29_6 1_555 1_555
C73_6 C72_6 1_555 1_555
C74_6 C73_6 1_555 1_555
C75_6 C74_6 1_555 1_555
C76_6 C77_6 1_555 1_555
C77_6 N31_6 1_555 1_555
C78_6 C77_6 1_555 1_555
C79_6 C78_6 1_555 1_555
C80_6 C79_6 1_555 1_555
C81_6 C82_6 1_555 1_555
C82_6 N33_6 1_555 1_555
C83_6 C43_6 1_555 1_555
C84_6 C83_6 1_555 1_555
C85_6 C84_6 1_555 1_555
C86_6 C87_6 1_555 1_555
C87_6 N35_6 1_555 1_555
C88_6 C87_6 1_555 1_555
C89_6 C88_6 1_555 1_555
C90_6 C89_6 1_555 1_555
C126_6 C127_6 1_555 1_555
C127_6 N51_6 1_555 1_555
C128_6 C73_6 1_555 1_555
C129_6 C128_6 1_555 1_555
C130_6 C129_6 1_555 1_555
C131_6 C132_6 1_555 1_555
C132_6 N66_3 1_555 1_555
C133_6 C88_6 1_555 1_555
C134_6 C133_6 1_555 1_555
C135_6 C134_6 1_555 1_555
C141_6 C142_6 1_555 1_555
C142_6 N57_6 1_555 1_555
C143_6 C78_6 1_555 1_555
C144_6 C143_6 1_555 1_555
C145_6 C144_6 1_555 1_555
C146_6 C147_6 1_555 1_555
C147_6 N59_6 1_555 1_555
C148_6 C68_6 1_555 1_555
C149_6 C148_6 1_555 1_555
C150_6 C149_6 1_555 1_555
Ag1_6 N1_6 1_555 1_555
Ag2_6 N2_6 1_555 1_555
Ag9_6 N16_6 1_555 1_555
Ag10_6 N19_6 1_555 1_555
Ag11_6 N20_6 1_555 1_555
Ag12_6 N22_6 1_555 1_555
Ag13_6 N25_6 1_555 1_555
Ag14_6 N26_6 1_555 1_555
Ag15_6 N28_6 1_555 1_555
Ag16_6 N31_6 1_555 1_555
Ag17_6 N32_6 1_555 1_555
Ag18_6 N34_6 1_555 1_555
Ag27_4 N52_6 1_555 1_555
Ag40_3 N59_6 1_555 1_555
H1_6 C1_6 1_555 1_555
H2_6 C1_6 1_555 1_555
H3_6 C1_6 1_555 1_555
H4_6 C5_6 1_555 1_555
H5_6 C5_6 1_555 1_555
H6_6 C5_6 1_555 1_555
H43_6 C36_6 1_555 1_555
H44_6 C36_6 1_555 1_555
H45_6 C36_6 1_555 1_555
H46_6 C40_6 1_555 1_555
H47_6 C40_6 1_555 1_555
H48_6 C40_6 1_555 1_555
H49_6 C41_6 1_555 1_555
H50_6 C41_6 1_555 1_555
H51_6 C41_6 1_555 1_555
H52_6 C45_6 1_555 1_555
H53_6 C45_6 1_555 1_555
H54_6 C45_6 1_555 1_555
H55_6 C46_6 1_555 1_555
H56_6 C46_6 1_555 1_555
H57_6 C46_6 1_555 1_555
H58_6 C50_6 1_555 1_555
H59_6 C50_6 1_555 1_555
H60_6 C50_6 1_555 1_555
H61_6 C51_6 1_555 1_555
H62_6 C51_6 1_555 1_555
H63_6 C51_6 1_555 1_555
H64_6 C55_6 1_555 1_555
H65_6 C55_6 1_555 1_555
H66_6 C55_6 1_555 1_555
H67_6 C56_6 1_555 1_555
H68_6 C56_6 1_555 1_555
H69_6 C56_6 1_555 1_555
H70_6 C60_6 1_555 1_555
H71_6 C60_6 1_555 1_555
H72_6 C60_6 1_555 1_555
H73_6 C61_6 1_555 1_555
H74_6 C61_6 1_555 1_555
H75_6 C61_6 1_555 1_555
H76_6 C65_6 1_555 1_555
H77_6 C65_6 1_555 1_555
H78_6 C65_6 1_555 1_555
H79_6 C66_6 1_555 1_555
H80_6 C66_6 1_555 1_555
H81_6 C66_6 1_555 1_555
H82_6 C70_6 1_555 1_555
H83_6 C70_6 1_555 1_555
H84_6 C70_6 1_555 1_555
H85_6 C71_6 1_555 1_555
H86_6 C71_6 1_555 1_555
H87_6 C71_6 1_555 1_555
H88_6 C75_6 1_555 1_555
H89_6 C75_6 1_555 1_555
H90_6 C75_6 1_555 1_555
H91_6 C76_6 1_555 1_555
H92_6 C76_6 1_555 1_555
H93_6 C76_6 1_555 1_555
H94_6 C80_6 1_555 1_555
H95_6 C80_6 1_555 1_555
H96_6 C80_6 1_555 1_555
H97_6 C81_6 1_555 1_555
H98_6 C81_6 1_555 1_555
H99_6 C81_6 1_555 1_555
H100_6 C85_6 1_555 1_555
H101_6 C85_6 1_555 1_555
H102_6 C85_6 1_555 1_555
H103_6 C86_6 1_555 1_555
H104_6 C86_6 1_555 1_555
H105_6 C86_6 1_555 1_555
H106_6 C90_6 1_555 1_555
H107_6 C90_6 1_555 1_555
H108_6 C90_6 1_555 1_555
H151_6 C126_6 1_555 1_555
H152_6 C126_6 1_555 1_555
H153_6 C126_6 1_555 1_555
H154_6 C130_6 1_555 1_555
H155_6 C130_6 1_555 1_555
H156_6 C130_6 1_555 1_555
H157_6 C131_6 1_555 1_555
H158_6 C131_6 1_555 1_555
H159_6 C131_6 1_555 1_555
H160_6 C135_6 1_555 1_555
H161_6 C135_6 1_555 1_555
H162_6 C135_6 1_555 1_555
H169_6 C141_6 1_555 1_555
H170_6 C141_6 1_555 1_555
H171_6 C141_6 1_555 1_555
H172_6 C145_6 1_555 1_555
H173_6 C145_6 1_555 1_555
H174_6 C145_6 1_555 1_555
H175_6 C146_6 1_555 1_555
H176_6 C146_6 1_555 1_555
H177_6 C146_6 1_555 1_555
H178_6 C150_6 1_555 1_555
H179_6 C150_6 1_555 1_555
H180_6 C150_6 1_555 1_555
N66_4 Ag27_4 1_555 1_555
Ag36_6 N51_6 1_555 1_555
Ag39_6 N57_6 1_555 1_555
Ag40_4 N58_4 1_555 1_555
N15_6 Ag8_6 1_555 1_555
N17_6 Ag9_6 1_555 1_555
N18_6 Ag7_6 1_555 1_555
N21_6 Ag11_6 1_555 1_555
N23_6 Ag12_6 1_555 1_555
N24_6 Ag10_6 1_555 1_555
N27_6 Ag14_6 1_555 1_555
N29_6 Ag15_6 1_555 1_555
N30_6 Ag13_6 1_555 1_555
N33_6 Ag17_6 1_555 1_555
N35_6 Ag18_6 1_555 1_555
N36_6 Ag16_6 1_555 1_555
C47_6 C48_6 1_555 1_555
C57_6 C58_6 1_555 1_555
C62_6 C63_6 1_555 1_555
C82_6 C83_6 1_555 1_555
C127_6 C128_6 1_555 1_555
C132_6 C133_6 1_555 1_555
C142_6 C143_6 1_555 1_555
C147_6 C148_6 1_555 1_555
N3_6 N4_6 1_555 1_555
N4_6 C9_6 1_555 1_555
N5_6 N6_6 1_555 1_555
N6_6 C14_6 1_555 1_555
N7_6 N8_6 1_555 1_555
N8_6 C19_6 1_555 1_555
N9_6 N10_6 1_555 1_555
N10_6 C24_6 1_555 1_555
N11_6 N12_6 1_555 1_555
N12_6 C29_6 1_555 1_555
N13_6 N14_6 1_555 1_555
N14_6 C34_6 1_555 1_555
N43_6 N44_6 1_555 1_555
N44_6 C109_6 1_555 1_555
N45_6 N46_6 1_555 1_555
N46_6 C114_6 1_555 1_555
N64_3 C119_6 1_555 1_555
N49_6 N50_6 1_555 1_555
N50_6 C124_6 1_555 1_555
N55_6 N56_6 1_555 1_555
N56_6 C139_6 1_555 1_555
C6_6 C7_6 1_555 1_555
C7_6 N3_6 1_555 1_555
C8_6 C7_6 1_555 1_555
C9_6 C8_6 1_555 1_555
C14_6 C13_6 1_555 1_555
C15_6 C14_6 1_555 1_555
C16_6 C17_6 1_555 1_555
C17_6 N7_6 1_555 1_555
C18_6 C17_6 1_555 1_555
C19_6 C18_6 1_555 1_555
C20_6 C19_6 1_555 1_555
C21_6 C22_6 1_555 1_555
C22_6 N9_6 1_555 1_555
C23_6 C22_6 1_555 1_555
C24_6 C23_6 1_555 1_555
C25_6 C24_6 1_555 1_555
C26_6 C27_6 1_555 1_555
C27_6 N11_6 1_555 1_555
C28_6 C27_6 1_555 1_555
C29_6 C28_6 1_555 1_555
C30_6 C29_6 1_555 1_555
C31_6 C32_6 1_555 1_555
C32_6 N13_6 1_555 1_555
C33_6 C23_6 1_555 1_555
C34_6 C33_6 1_555 1_555
C35_6 C34_6 1_555 1_555
C101_6 C102_6 1_555 1_555
C102_6 N41_6 1_555 1_555
C103_6 C13_6 1_555 1_555
C106_6 C107_6 1_555 1_555
C107_6 N43_6 1_555 1_555
C108_6 C107_6 1_555 1_555
C109_6 C108_6 1_555 1_555
C110_6 C109_6 1_555 1_555
C111_6 C112_6 1_555 1_555
C112_6 N45_6 1_555 1_555
C113_6 C18_6 1_555 1_555
C114_6 C113_6 1_555 1_555
C115_6 C114_6 1_555 1_555
C116_6 C117_6 1_555 1_555
C117_6 N63_3 1_555 1_555
C118_6 C108_6 1_555 1_555
C119_6 C118_6 1_555 1_555
C120_6 C119_6 1_555 1_555
C122_6 N49_6 1_555 1_555
C123_6 C8_6 1_555 1_555
C124_6 C123_6 1_555 1_555
C125_6 C124_6 1_555 1_555
C136_6 C137_6 1_555 1_555
C137_6 N55_6 1_555 1_555
C138_6 C28_6 1_555 1_555
C139_6 C138_6 1_555 1_555
C140_6 C139_6 1_555 1_555
Ag3_6 N4_6 1_555 1_555
Ag4_6 N7_6 1_555 1_555
Ag5_6 N8_6 1_555 1_555
Ag6_6 N10_6 1_555 1_555
Ag32_3 N41_6 1_555 1_555
Ag22_4 N43_6 1_555 1_555
Ag23_6 N44_6 1_555 1_555
Ag24_4 N46_6 1_555 1_555
Ag25_4 N49_6 1_555 1_555
Ag36_6 N50_6 1_555 1_555
Ag28_4 N55_6 1_555 1_555
Ag39_6 N56_6 1_555 1_555
H7_6 C6_6 1_555 1_555
H8_6 C6_6 1_555 1_555
H9_6 C6_6 1_555 1_555
H16_6 C15_6 1_555 1_555
H17_6 C15_6 1_555 1_555
H18_6 C15_6 1_555 1_555
H19_6 C16_6 1_555 1_555
H20_6 C16_6 1_555 1_555
H21_6 C16_6 1_555 1_555
H22_6 C20_6 1_555 1_555
H23_6 C20_6 1_555 1_555
H24_6 C20_6 1_555 1_555
H25_6 C21_6 1_555 1_555
H26_6 C21_6 1_555 1_555
H27_6 C21_6 1_555 1_555
H28_6 C25_6 1_555 1_555
H29_6 C25_6 1_555 1_555
H30_6 C25_6 1_555 1_555
H31_6 C26_6 1_555 1_555
H32_6 C26_6 1_555 1_555
H33_6 C26_6 1_555 1_555
H34_6 C30_6 1_555 1_555
H35_6 C30_6 1_555 1_555
H36_6 C30_6 1_555 1_555
H37_6 C31_6 1_555 1_555
H38_6 C31_6 1_555 1_555
H39_6 C31_6 1_555 1_555
H40_6 C35_6 1_555 1_555
H41_6 C35_6 1_555 1_555
H42_6 C35_6 1_555 1_555
H121_6 C101_6 1_555 1_555
H122_6 C101_6 1_555 1_555
H123_6 C101_6 1_555 1_555
H127_6 C106_6 1_555 1_555
H128_6 C106_6 1_555 1_555
H129_6 C106_6 1_555 1_555
H130_6 C110_6 1_555 1_555
H131_6 C110_6 1_555 1_555
H132_6 C110_6 1_555 1_555
H133_6 C111_6 1_555 1_555
H134_6 C111_6 1_555 1_555
H135_6 C111_6 1_555 1_555
H136_6 C115_6 1_555 1_555
H137_6 C115_6 1_555 1_555
H138_6 C115_6 1_555 1_555
H139_6 C116_6 1_555 1_555
H140_6 C116_6 1_555 1_555
H141_6 C116_6 1_555 1_555
H142_6 C120_6 1_555 1_555
H143_6 C120_6 1_555 1_555
H144_6 C120_6 1_555 1_555
H148_6 C125_6 1_555 1_555
H149_6 C125_6 1_555 1_555
H150_6 C125_6 1_555 1_555
H163_6 C136_6 1_555 1_555
H164_6 C136_6 1_555 1_555
H165_6 C136_6 1_555 1_555
H166_6 C140_6 1_555 1_555
H167_6 C140_6 1_555 1_555
H168_6 C140_6 1_555 1_555
N63_4 Ag24_4 1_555 1_555
N67_4 Ag25_4 1_555 1_555
N70_4 Ag28_4 1_555 1_555
N5_6 Ag3_6 1_555 1_555
N9_6 Ag5_6 1_555 1_555
N11_6 Ag6_6 1_555 1_555
N12_6 Ag4_6 1_555 1_555
N45_6 Ag23_6 1_555 1_555
C32_6 C33_6 1_555 1_555
C102_6 C103_6 1_555 1_555
C112_6 C113_6 1_555 1_555
C117_6 C118_6 1_555 1_555
C122_6 C123_6 1_555 1_555
C137_6 C138_6 1_555 1_555
N37_6 N38_6 1_555 1_555
N38_6 C94_6 1_555 1_555
N39_4 N40_4 1_555 1_555
N40_4 C99_6 1_555 1_555
N42_6 C104_6 1_555 1_555
C11_6 C12_6 1_555 1_555
C91_6 C92_6 1_555 1_555
C92_6 N37_6 1_555 1_555
C93_6 C92_6 1_555 1_555
C94_6 C93_6 1_555 1_555
C95_6 C94_6 1_555 1_555
C96_6 C97_6 1_555 1_555
C97_6 N39_4 1_555 1_555
C98_6 C93_6 1_555 1_555
C99_6 C98_6 1_555 1_555
C100_6 C99_6 1_555 1_555
C105_6 C104_6 1_555 1_555
Ag19_6 N37_6 1_555 1_555
Ag31_3 N38_6 1_555 1_555
H10_6 C10_6 1_555 1_555
H11_6 C10_6 1_555 1_555
H13_6 C11_6 1_555 1_555
H14_6 C11_6 1_555 1_555
H109_6 C91_6 1_555 1_555
H110_6 C91_6 1_555 1_555
H111_6 C91_6 1_555 1_555
H112_6 C95_6 1_555 1_555
H113_6 C95_6 1_555 1_555
H114_6 C95_6 1_555 1_555
H115_6 C96_6 1_555 1_555
H116_6 C96_6 1_555 1_555
H117_6 C96_6 1_555 1_555
H118_6 C100_6 1_555 1_555
H119_6 C100_6 1_555 1_555
H120_6 C100_6 1_555 1_555
H124_6 C105_6 1_555 1_555
H125_6 C105_6 1_555 1_555
H126_6 C105_6 1_555 1_555
H145_6 C121_6 1_555 1_555
H146_6 C121_6 1_555 1_555
H147_6 C121_6 1_555 1_555
Ag32_4 N40_4 1_555 1_555
N42_6 Ag19_6 1_555 1_555
C97_6 C98_6 1_555 1_555
N66_4 N67_4 1_555 1_555
C131_7 C132_7 1_555 1_555
C132_7 N66_4 1_555 1_555
H157_7 C131_7 1_555 1_555
H158_7 C131_7 1_555 1_555
H159_7 C131_7 1_555 1_555
N1_7 N2_7 1_555 1_555
N2_7 C4_7 1_555 1_555
N3_7 N4_7 1_555 1_555
N4_7 C9_7 1_555 1_555
N5_7 N6_7 1_555 1_555
N6_7 C14_7 1_555 1_555
N8_7 C19_7 1_555 1_555
N9_7 N10_7 1_555 1_555
N10_7 C24_7 1_555 1_555
N13_7 N14_7 1_555 1_555
N14_7 C34_7 1_555 1_555
N15_7 N16_7 1_555 1_555
N16_7 C39_7 1_555 1_555
N17_7 N18_7 1_555 1_555
N18_7 C44_7 1_555 1_555
N19_7 N20_7 1_555 1_555
N20_7 C49_7 1_555 1_555
N21_7 N22_7 1_555 1_555
N22_7 C54_7 1_555 1_555
N23_7 N24_7 1_555 1_555
N24_7 C59_7 1_555 1_555
N25_7 N26_7 1_555 1_555
N26_7 C64_7 1_555 1_555
N27_7 N28_7 1_555 1_555
N28_7 C69_7 1_555 1_555
N29_7 N30_7 1_555 1_555
N30_7 C74_7 1_555 1_555
N31_7 N32_7 1_555 1_555
N32_7 C79_7 1_555 1_555
N33_7 N34_7 1_555 1_555
N34_7 C84_7 1_555 1_555
N35_7 N36_7 1_555 1_555
N36_7 C89_7 1_555 1_555
N37_7 N38_7 1_555 1_555
N38_7 C94_7 1_555 1_555
N39_5 N40_5 1_555 1_555
N40_5 C99_7 1_555 1_555
N41_7 N42_7 1_555 1_555
N42_7 C104_7 1_555 1_555
N43_7 N44_7 1_555 1_555
N44_7 C109_7 1_555 1_555
N45_7 N46_7 1_555 1_555
N46_7 C114_7 1_555 1_555
N64_4 C119_7 1_555 1_555
N49_7 N50_7 1_555 1_555
N50_7 C124_7 1_555 1_555
N51_7 N52_7 1_555 1_555
N52_7 C129_7 1_555 1_555
N57_7 N58_5 1_555 1_555
N58_5 C144_7 1_555 1_555
N59_7 N70_4 1_555 1_555
N70_4 C149_7 1_555 1_555
C1_7 C2_7 1_555 1_555
C2_7 N1_7 1_555 1_555
C3_7 C2_7 1_555 1_555
C4_7 C3_7 1_555 1_555
C5_7 C4_7 1_555 1_555
C6_7 C7_7 1_555 1_555
C7_7 N3_7 1_555 1_555
C8_7 C7_7 1_555 1_555
C9_7 C8_7 1_555 1_555
C10_7 C9_7 1_555 1_555
C11_7 C12_7 1_555 1_555
C12_7 N5_7 1_555 1_555
C13_7 C12_7 1_555 1_555
C14_7 C13_7 1_555 1_555
C15_7 C14_7 1_555 1_555
C18_7 C17_7 1_555 1_555
C19_7 C18_7 1_555 1_555
C20_7 C19_7 1_555 1_555
C21_7 C22_7 1_555 1_555
C22_7 N9_7 1_555 1_555
C23_7 C22_7 1_555 1_555
C24_7 C23_7 1_555 1_555
C25_7 C24_7 1_555 1_555
C31_7 C32_7 1_555 1_555
C32_7 N13_7 1_555 1_555
C33_7 C23_7 1_555 1_555
C34_7 C33_7 1_555 1_555
C35_7 C34_7 1_555 1_555
C36_7 C37_7 1_555 1_555
C37_7 N15_7 1_555 1_555
C38_7 C37_7 1_555 1_555
C39_7 C38_7 1_555 1_555
C40_7 C39_7 1_555 1_555
C41_7 C42_7 1_555 1_555
C42_7 N17_7 1_555 1_555
C43_7 C42_7 1_555 1_555
C44_7 C43_7 1_555 1_555
C45_7 C44_7 1_555 1_555
C46_7 C47_7 1_555 1_555
C47_7 N19_7 1_555 1_555
C48_7 C38_7 1_555 1_555
C49_7 C48_7 1_555 1_555
C50_7 C49_7 1_555 1_555
C51_7 C52_7 1_555 1_555
C52_7 N21_7 1_555 1_555
C53_7 C52_7 1_555 1_555
C54_7 C53_7 1_555 1_555
C55_7 C54_7 1_555 1_555
C56_7 C57_7 1_555 1_555
C57_7 N23_7 1_555 1_555
C58_7 C3_7 1_555 1_555
C59_7 C58_7 1_555 1_555
C60_7 C59_7 1_555 1_555
C61_7 C62_7 1_555 1_555
C62_7 N25_7 1_555 1_555
C63_7 C53_7 1_555 1_555
C64_7 C63_7 1_555 1_555
C65_7 C64_7 1_555 1_555
C66_7 C67_7 1_555 1_555
C67_7 N27_7 1_555 1_555
C68_7 C67_7 1_555 1_555
C69_7 C68_7 1_555 1_555
C70_7 C69_7 1_555 1_555
C71_7 C72_7 1_555 1_555
C72_7 N29_7 1_555 1_555
C73_7 C72_7 1_555 1_555
C74_7 C73_7 1_555 1_555
C75_7 C74_7 1_555 1_555
C76_7 C77_7 1_555 1_555
C77_7 N31_7 1_555 1_555
C78_7 C77_7 1_555 1_555
C79_7 C78_7 1_555 1_555
C80_7 C79_7 1_555 1_555
C81_7 C82_7 1_555 1_555
C82_7 N33_7 1_555 1_555
C83_7 C43_7 1_555 1_555
C84_7 C83_7 1_555 1_555
C85_7 C84_7 1_555 1_555
C86_7 C87_7 1_555 1_555
C87_7 N35_7 1_555 1_555
C88_7 C87_7 1_555 1_555
C89_7 C88_7 1_555 1_555
C90_7 C89_7 1_555 1_555
C91_7 C92_7 1_555 1_555
C92_7 N37_7 1_555 1_555
C93_7 C92_7 1_555 1_555
C94_7 C93_7 1_555 1_555
C95_7 C94_7 1_555 1_555
C96_7 C97_7 1_555 1_555
C97_7 N39_5 1_555 1_555
C98_7 C93_7 1_555 1_555
C99_7 C98_7 1_555 1_555
C100_7 C99_7 1_555 1_555
C101_7 C102_7 1_555 1_555
C102_7 N41_7 1_555 1_555
C103_7 C13_7 1_555 1_555
C104_7 C103_7 1_555 1_555
C105_7 C104_7 1_555 1_555
C106_7 C107_7 1_555 1_555
C107_7 N43_7 1_555 1_555
C108_7 C107_7 1_555 1_555
C109_7 C108_7 1_555 1_555
C110_7 C109_7 1_555 1_555
C111_7 C112_7 1_555 1_555
C112_7 N45_7 1_555 1_555
C113_7 C18_7 1_555 1_555
C114_7 C113_7 1_555 1_555
C115_7 C114_7 1_555 1_555
C116_7 C117_7 1_555 1_555
C118_7 C108_7 1_555 1_555
C119_7 C118_7 1_555 1_555
C120_7 C119_7 1_555 1_555
C121_7 C122_7 1_555 1_555
C122_7 N49_7 1_555 1_555
C123_7 C8_7 1_555 1_555
C124_7 C123_7 1_555 1_555
C125_7 C124_7 1_555 1_555
C126_7 C127_7 1_555 1_555
C127_7 N51_7 1_555 1_555
C128_7 C73_7 1_555 1_555
C129_7 C128_7 1_555 1_555
C130_7 C129_7 1_555 1_555
C133_7 C88_7 1_555 1_555
C134_7 C133_7 1_555 1_555
C135_7 C134_7 1_555 1_555
C141_7 C142_7 1_555 1_555
C142_7 N57_7 1_555 1_555
C143_7 C78_7 1_555 1_555
C144_7 C143_7 1_555 1_555
C145_7 C144_7 1_555 1_555
C146_7 C147_7 1_555 1_555
C147_7 N59_7 1_555 1_555
C148_7 C68_7 1_555 1_555
C149_7 C148_7 1_555 1_555
C150_7 C149_7 1_555 1_555
Ag1_7 N1_7 1_555 1_555
Ag2_7 N2_7 1_555 1_555
Ag3_7 N4_7 1_555 1_555
Ag5_7 N8_7 1_555 1_555
Ag7_7 N13_7 1_555 1_555
Ag8_7 N14_7 1_555 1_555
Ag9_7 N16_7 1_555 1_555
Ag10_7 N19_7 1_555 1_555
Ag11_7 N20_7 1_555 1_555
Ag12_7 N22_7 1_555 1_555
Ag13_7 N25_7 1_555 1_555
Ag14_7 N26_7 1_555 1_555
Ag15_7 N28_7 1_555 1_555
Ag16_7 N31_7 1_555 1_555
Ag17_7 N32_7 1_555 1_555
Ag18_7 N34_7 1_555 1_555
Ag19_7 N37_7 1_555 1_555
Ag31_4 N38_7 1_555 1_555
Ag22_5 N43_7 1_555 1_555
Ag23_7 N44_7 1_555 1_555
Ag24_5 N46_7 1_555 1_555
Ag36_7 N50_7 1_555 1_555
Ag27_5 N52_7 1_555 1_555
Ag40_4 N59_7 1_555 1_555
H1_7 C1_7 1_555 1_555
H2_7 C1_7 1_555 1_555
H3_7 C1_7 1_555 1_555
H4_7 C5_7 1_555 1_555
H5_7 C5_7 1_555 1_555
H6_7 C5_7 1_555 1_555
H7_7 C6_7 1_555 1_555
H8_7 C6_7 1_555 1_555
H9_7 C6_7 1_555 1_555
H10_7 C10_7 1_555 1_555
H11_7 C10_7 1_555 1_555
H12_7 C10_7 1_555 1_555
H13_7 C11_7 1_555 1_555
H14_7 C11_7 1_555 1_555
H15_7 C11_7 1_555 1_555
H16_7 C15_7 1_555 1_555
H17_7 C15_7 1_555 1_555
H18_7 C15_7 1_555 1_555
H22_7 C20_7 1_555 1_555
H23_7 C20_7 1_555 1_555
H24_7 C20_7 1_555 1_555
H25_7 C21_7 1_555 1_555
H26_7 C21_7 1_555 1_555
H27_7 C21_7 1_555 1_555
H28_7 C25_7 1_555 1_555
H29_7 C25_7 1_555 1_555
H30_7 C25_7 1_555 1_555
H37_7 C31_7 1_555 1_555
H38_7 C31_7 1_555 1_555
H39_7 C31_7 1_555 1_555
H40_7 C35_7 1_555 1_555
H41_7 C35_7 1_555 1_555
H42_7 C35_7 1_555 1_555
H43_7 C36_7 1_555 1_555
H44_7 C36_7 1_555 1_555
H45_7 C36_7 1_555 1_555
H46_7 C40_7 1_555 1_555
H47_7 C40_7 1_555 1_555
H48_7 C40_7 1_555 1_555
H49_7 C41_7 1_555 1_555
H50_7 C41_7 1_555 1_555
H51_7 C41_7 1_555 1_555
H52_7 C45_7 1_555 1_555
H53_7 C45_7 1_555 1_555
H54_7 C45_7 1_555 1_555
H55_7 C46_7 1_555 1_555
H56_7 C46_7 1_555 1_555
H57_7 C46_7 1_555 1_555
H58_7 C50_7 1_555 1_555
H59_7 C50_7 1_555 1_555
H60_7 C50_7 1_555 1_555
H61_7 C51_7 1_555 1_555
H62_7 C51_7 1_555 1_555
H63_7 C51_7 1_555 1_555
H64_7 C55_7 1_555 1_555
H65_7 C55_7 1_555 1_555
H66_7 C55_7 1_555 1_555
H67_7 C56_7 1_555 1_555
H68_7 C56_7 1_555 1_555
H69_7 C56_7 1_555 1_555
H70_7 C60_7 1_555 1_555
H71_7 C60_7 1_555 1_555
H72_7 C60_7 1_555 1_555
H73_7 C61_7 1_555 1_555
H74_7 C61_7 1_555 1_555
H75_7 C61_7 1_555 1_555
H76_7 C65_7 1_555 1_555
H77_7 C65_7 1_555 1_555
H78_7 C65_7 1_555 1_555
H79_7 C66_7 1_555 1_555
H80_7 C66_7 1_555 1_555
H81_7 C66_7 1_555 1_555
H82_7 C70_7 1_555 1_555
H83_7 C70_7 1_555 1_555
H84_7 C70_7 1_555 1_555
H85_7 C71_7 1_555 1_555
H86_7 C71_7 1_555 1_555
H87_7 C71_7 1_555 1_555
H88_7 C75_7 1_555 1_555
H89_7 C75_7 1_555 1_555
H90_7 C75_7 1_555 1_555
H91_7 C76_7 1_555 1_555
H92_7 C76_7 1_555 1_555
H93_7 C76_7 1_555 1_555
H94_7 C80_7 1_555 1_555
H95_7 C80_7 1_555 1_555
H96_7 C80_7 1_555 1_555
H97_7 C81_7 1_555 1_555
H98_7 C81_7 1_555 1_555
H99_7 C81_7 1_555 1_555
H100_7 C85_7 1_555 1_555
H101_7 C85_7 1_555 1_555
H102_7 C85_7 1_555 1_555
H103_7 C86_7 1_555 1_555
H104_7 C86_7 1_555 1_555
H105_7 C86_7 1_555 1_555
H106_7 C90_7 1_555 1_555
H107_7 C90_7 1_555 1_555
H108_7 C90_7 1_555 1_555
H109_7 C91_7 1_555 1_555
H110_7 C91_7 1_555 1_555
H111_7 C91_7 1_555 1_555
H112_7 C95_7 1_555 1_555
H113_7 C95_7 1_555 1_555
H114_7 C95_7 1_555 1_555
H115_7 C96_7 1_555 1_555
H116_7 C96_7 1_555 1_555
H117_7 C96_7 1_555 1_555
H118_7 C100_7 1_555 1_555
H119_7 C100_7 1_555 1_555
H120_7 C100_7 1_555 1_555
H122_7 C101_7 1_555 1_555
H123_7 C101_7 1_555 1_555
H124_7 C105_7 1_555 1_555
H125_7 C105_7 1_555 1_555
H126_7 C105_7 1_555 1_555
H127_7 C106_7 1_555 1_555
H128_7 C106_7 1_555 1_555
H129_7 C106_7 1_555 1_555
H130_7 C110_7 1_555 1_555
H132_7 C110_7 1_555 1_555
H133_7 C111_7 1_555 1_555
H134_7 C111_7 1_555 1_555
H136_7 C115_7 1_555 1_555
H137_7 C115_7 1_555 1_555
H138_7 C115_7 1_555 1_555
H139_7 C116_7 1_555 1_555
H140_7 C116_7 1_555 1_555
H141_7 C116_7 1_555 1_555
H142_7 C120_7 1_555 1_555
H143_7 C120_7 1_555 1_555
H144_7 C120_7 1_555 1_555
H145_7 C121_7 1_555 1_555
H146_7 C121_7 1_555 1_555
H147_7 C121_7 1_555 1_555
H148_7 C125_7 1_555 1_555
H149_7 C125_7 1_555 1_555
H150_7 C125_7 1_555 1_555
H152_7 C126_7 1_555 1_555
H153_7 C126_7 1_555 1_555
H154_7 C130_7 1_555 1_555
H155_7 C130_7 1_555 1_555
H156_7 C130_7 1_555 1_555
H160_7 C135_7 1_555 1_555
H161_7 C135_7 1_555 1_555
H162_7 C135_7 1_555 1_555
H169_7 C141_7 1_555 1_555
H170_7 C141_7 1_555 1_555
H171_7 C141_7 1_555 1_555
H172_7 C145_7 1_555 1_555
H173_7 C145_7 1_555 1_555
H174_7 C145_7 1_555 1_555
H175_7 C146_7 1_555 1_555
H176_7 C146_7 1_555 1_555
H177_7 C146_7 1_555 1_555
H178_7 C150_7 1_555 1_555
H179_7 C150_7 1_555 1_555
H180_7 C150_7 1_555 1_555
N63_5 Ag24_5 1_555 1_555
N64_5 Ag22_5 1_555 1_555
N66_5 Ag27_5 1_555 1_555
Ag32_5 N40_5 1_555 1_555
Ag39_7 N57_7 1_555 1_555
Ag40_5 N58_5 1_555 1_555
N3_7 Ag2_7 1_555 1_555
N5_7 Ag3_7 1_555 1_555
N6_7 Ag1_7 1_555 1_555
N9_7 Ag5_7 1_555 1_555
N15_7 Ag8_7 1_555 1_555
N17_7 Ag9_7 1_555 1_555
N18_7 Ag7_7 1_555 1_555
N21_7 Ag11_7 1_555 1_555
N23_7 Ag12_7 1_555 1_555
N24_7 Ag10_7 1_555 1_555
N27_7 Ag14_7 1_555 1_555
N29_7 Ag15_7 1_555 1_555
N30_7 Ag13_7 1_555 1_555
N33_7 Ag17_7 1_555 1_555
N35_7 Ag18_7 1_555 1_555
N36_7 Ag16_7 1_555 1_555
N42_7 Ag19_7 1_555 1_555
N45_7 Ag23_7 1_555 1_555
C32_7 C33_7 1_555 1_555
C47_7 C48_7 1_555 1_555
C57_7 C58_7 1_555 1_555
C62_7 C63_7 1_555 1_555
C82_7 C83_7 1_555 1_555
C97_7 C98_7 1_555 1_555
C102_7 C103_7 1_555 1_555
C112_7 C113_7 1_555 1_555
C117_7 C118_7 1_555 1_555
C122_7 C123_7 1_555 1_555
C127_7 C128_7 1_555 1_555
C142_7 C143_7 1_555 1_555
C147_7 C148_7 1_555 1_555
N63_5 N64_5 1_555 1_555
N11_7 N12_7 1_555 1_555
N12_7 C29_7 1_555 1_555
N55_7 N56_7 1_555 1_555
N56_7 C139_7 1_555 1_555
C26_7 C27_7 1_555 1_555
C27_7 N11_7 1_555 1_555
C28_7 C27_7 1_555 1_555
C29_7 C28_7 1_555 1_555
C30_7 C29_7 1_555 1_555
C136_7 C137_7 1_555 1_555
C137_7 N55_7 1_555 1_555
C138_7 C28_7 1_555 1_555
C139_7 C138_7 1_555 1_555
C140_7 C139_7 1_555 1_555
Ag4_7 N7_7 1_555 1_555
Ag28_5 N55_7 1_555 1_555
Ag39_7 N56_7 1_555 1_555
H19_7 C16_7 1_555 1_555
H20_7 C16_7 1_555 1_555
H21_7 C16_7 1_555 1_555
H31_7 C26_7 1_555 1_555
H32_7 C26_7 1_555 1_555
H33_7 C26_7 1_555 1_555
H34_7 C30_7 1_555 1_555
H35_7 C30_7 1_555 1_555
H36_7 C30_7 1_555 1_555
H163_7 C136_7 1_555 1_555
H164_7 C136_7 1_555 1_555
H165_7 C136_7 1_555 1_555
H166_7 C140_7 1_555 1_555
H167_7 C140_7 1_555 1_555
H168_7 C140_7 1_555 1_555
N67_5 Ag25_5 1_555 1_555
N70_5 Ag28_5 1_555 1_555
N11_7 Ag6_7 1_555 1_555
N12_7 Ag4_7 1_555 1_555
C137_7 C138_7 1_555 1_555
N37_8 N38_8 1_555 1_555
N38_8 C94_8 1_555 1_555
N62_3 C99_8 1_555 1_555
N42_8 C104_8 1_555 1_555
C11_8 C12_8 1_555 1_555
C91_8 C92_8 1_555 1_555
C92_8 N37_8 1_555 1_555
C93_8 C92_8 1_555 1_555
C94_8 C93_8 1_555 1_555
C95_8 C94_8 1_555 1_555
C96_8 C97_8 1_555 1_555
C97_8 N61_3 1_555 1_555
C98_8 C93_8 1_555 1_555
C99_8 C98_8 1_555 1_555
C100_8 C99_8 1_555 1_555
C105_8 C104_8 1_555 1_555
Ag19_8 N37_8 1_555 1_555
Ag31_5 N38_8 1_555 1_555
H13_8 C11_8 1_555 1_555
H14_8 C11_8 1_555 1_555
H109_8 C91_8 1_555 1_555
H110_8 C91_8 1_555 1_555
H111_8 C91_8 1_555 1_555
H112_8 C95_8 1_555 1_555
H113_8 C95_8 1_555 1_555
H114_8 C95_8 1_555 1_555
H115_8 C96_8 1_555 1_555
H116_8 C96_8 1_555 1_555
H117_8 C96_8 1_555 1_555
H118_8 C100_8 1_555 1_555
H119_8 C100_8 1_555 1_555
H120_8 C100_8 1_555 1_555
H124_8 C105_8 1_555 1_555
H125_8 C105_8 1_555 1_555
H126_8 C105_8 1_555 1_555
N42_8 Ag19_8 1_555 1_555
C97_8 C98_8 1_555 1_555
N5_8 N6_8 1_555 1_555
N6_8 C14_8 1_555 1_555
N13_8 N14_8 1_555 1_555
N14_8 C34_8 1_555 1_555
N15_8 N16_8 1_555 1_555
N16_8 C39_8 1_555 1_555
N17_8 N18_8 1_555 1_555
N18_8 C44_8 1_555 1_555
N19_8 N20_8 1_555 1_555
N20_8 C49_8 1_555 1_555
N23_8 N24_8 1_555 1_555
N24_8 C59_8 1_555 1_555
N31_8 N32_8 1_555 1_555
N32_8 C79_8 1_555 1_555
N33_8 N34_8 1_555 1_555
N34_8 C84_8 1_555 1_555
N35_8 N36_8 1_555 1_555
N36_8 C89_8 1_555 1_555
N66_5 N67_5 1_555 1_555
N67_5 C134_8 1_555 1_555
N56_8 C139_8 1_555 1_555
N57_8 N69_3 1_555 1_555
N69_3 C144_8 1_555 1_555
C1_8 C2_8 1_555 1_555
C2_8 N1_8 1_555 1_555
C14_8 C13_8 1_555 1_555
C15_8 C14_8 1_555 1_555
C24_8 C23_8 1_555 1_555
C25_8 C24_8 1_555 1_555
C31_8 C32_8 1_555 1_555
C32_8 N13_8 1_555 1_555
C33_8 C23_8 1_555 1_555
C34_8 C33_8 1_555 1_555
C35_8 C34_8 1_555 1_555
C36_8 C37_8 1_555 1_555
C37_8 N15_8 1_555 1_555
C38_8 C37_8 1_555 1_555
C39_8 C38_8 1_555 1_555
C40_8 C39_8 1_555 1_555
C41_8 C42_8 1_555 1_555
C42_8 N17_8 1_555 1_555
C43_8 C42_8 1_555 1_555
C44_8 C43_8 1_555 1_555
C45_8 C44_8 1_555 1_555
C46_8 C47_8 1_555 1_555
C47_8 N19_8 1_555 1_555
C48_8 C38_8 1_555 1_555
C49_8 C48_8 1_555 1_555
C50_8 C49_8 1_555 1_555
C59_8 C58_8 1_555 1_555
C60_8 C59_8 1_555 1_555
C76_8 C77_8 1_555 1_555
C77_8 N31_8 1_555 1_555
C78_8 C77_8 1_555 1_555
C79_8 C78_8 1_555 1_555
C80_8 C79_8 1_555 1_555
C81_8 C82_8 1_555 1_555
C82_8 N33_8 1_555 1_555
C83_8 C43_8 1_555 1_555
C84_8 C83_8 1_555 1_555
C85_8 C84_8 1_555 1_555
C86_8 C87_8 1_555 1_555
C87_8 N35_8 1_555 1_555
C88_8 C87_8 1_555 1_555
C89_8 C88_8 1_555 1_555
C90_8 C89_8 1_555 1_555
C101_8 C102_8 1_555 1_555
C102_8 N41_8 1_555 1_555
C103_8 C13_8 1_555 1_555
C131_8 C132_8 1_555 1_555
C132_8 N66_5 1_555 1_555
C133_8 C88_8 1_555 1_555
C134_8 C133_8 1_555 1_555
C135_8 C134_8 1_555 1_555
C140_8 C139_8 1_555 1_555
C141_8 C142_8 1_555 1_555
C142_8 N57_8 1_555 1_555
C143_8 C78_8 1_555 1_555
C144_8 C143_8 1_555 1_555
C145_8 C144_8 1_555 1_555
Ag1_8 N1_8 1_555 1_555
Ag7_8 N13_8 1_555 1_555
Ag8_8 N14_8 1_555 1_555
Ag9_8 N16_8 1_555 1_555
Ag10_8 N19_8 1_555 1_555
Ag11_8 N20_8 1_555 1_555
Ag16_8 N31_8 1_555 1_555
Ag17_8 N32_8 1_555 1_555
Ag18_8 N34_8 1_555 1_555
Ag32_5 N41_8 1_555 1_555
H1_8 C1_8 1_555 1_555
H2_8 C1_8 1_555 1_555
H3_8 C1_8 1_555 1_555
H16_8 C15_8 1_555 1_555
H17_8 C15_8 1_555 1_555
H18_8 C15_8 1_555 1_555
H28_8 C25_8 1_555 1_555
H29_8 C25_8 1_555 1_555
H30_8 C25_8 1_555 1_555
H31_8 C26_8 1_555 1_555
H32_8 C26_8 1_555 1_555
H33_8 C26_8 1_555 1_555
H37_8 C31_8 1_555 1_555
H38_8 C31_8 1_555 1_555
H39_8 C31_8 1_555 1_555
H40_8 C35_8 1_555 1_555
H41_8 C35_8 1_555 1_555
H43_8 C36_8 1_555 1_555
H44_8 C36_8 1_555 1_555
H45_8 C36_8 1_555 1_555
H46_8 C40_8 1_555 1_555
H47_8 C40_8 1_555 1_555
H48_8 C40_8 1_555 1_555
H49_8 C41_8 1_555 1_555
H50_8 C41_8 1_555 1_555
H51_8 C41_8 1_555 1_555
H52_8 C45_8 1_555 1_555
H53_8 C45_8 1_555 1_555
H54_8 C45_8 1_555 1_555
H55_8 C46_8 1_555 1_555
H56_8 C46_8 1_555 1_555
H57_8 C46_8 1_555 1_555
H58_8 C50_8 1_555 1_555
H59_8 C50_8 1_555 1_555
H60_8 C50_8 1_555 1_555
H70_8 C60_8 1_555 1_555
H71_8 C60_8 1_555 1_555
H72_8 C60_8 1_555 1_555
H91_8 C76_8 1_555 1_555
H92_8 C76_8 1_555 1_555
H93_8 C76_8 1_555 1_555
H94_8 C80_8 1_555 1_555
H95_8 C80_8 1_555 1_555
H96_8 C80_8 1_555 1_555
H97_8 C81_8 1_555 1_555
H98_8 C81_8 1_555 1_555
H99_8 C81_8 1_555 1_555
H100_8 C85_8 1_555 1_555
H101_8 C85_8 1_555 1_555
H102_8 C85_8 1_555 1_555
H103_8 C86_8 1_555 1_555
H104_8 C86_8 1_555 1_555
H105_8 C86_8 1_555 1_555
H106_8 C90_8 1_555 1_555
H107_8 C90_8 1_555 1_555
H108_8 C90_8 1_555 1_555
H121_8 C101_8 1_555 1_555
H122_8 C101_8 1_555 1_555
H123_8 C101_8 1_555 1_555
H157_8 C131_8 1_555 1_555
H158_8 C131_8 1_555 1_555
H159_8 C131_8 1_555 1_555
H160_8 C135_8 1_555 1_555
H161_8 C135_8 1_555 1_555
H162_8 C135_8 1_555 1_555
H167_8 C140_8 1_555 1_555
H168_8 C140_8 1_555 1_555
H169_8 C141_8 1_555 1_555
H170_8 C141_8 1_555 1_555
H171_8 C141_8 1_555 1_555
H172_8 C145_8 1_555 1_555
H173_8 C145_8 1_555 1_555
H174_8 C145_8 1_555 1_555
Ag39_8 N57_8 1_555 1_555
N6_8 Ag1_8 1_555 1_555
N15_8 Ag8_8 1_555 1_555
N17_8 Ag9_8 1_555 1_555
N18_8 Ag7_8 1_555 1_555
N24_8 Ag10_8 1_555 1_555
N33_8 Ag17_8 1_555 1_555
N35_8 Ag18_8 1_555 1_555
N36_8 Ag16_8 1_555 1_555
C32_8 C33_8 1_555 1_555
C47_8 C48_8 1_555 1_555
C82_8 C83_8 1_555 1_555
C102_8 C103_8 1_555 1_555
C132_8 C133_8 1_555 1_555
C142_8 C143_8 1_555 1_555
N29_8 N30_8 1_555 1_555
N30_8 C74_8 1_555 1_555
N51_8 N52_8 1_555 1_555
N52_8 C129_8 1_555 1_555
C71_8 C72_8 1_555 1_555
C72_8 N29_8 1_555 1_555
C73_8 C72_8 1_555 1_555
C74_8 C73_8 1_555 1_555
C75_8 C74_8 1_555 1_555
C126_8 C127_8 1_555 1_555
C127_8 N51_8 1_555 1_555
C128_8 C73_8 1_555 1_555
C129_8 C128_8 1_555 1_555
C130_8 C129_8 1_555 1_555
Ag37_3 N52_8 1_555 1_555
H85_8 C71_8 1_555 1_555
H86_8 C71_8 1_555 1_555
H87_8 C71_8 1_555 1_555
H88_8 C75_8 1_555 1_555
H89_8 C75_8 1_555 1_555
H90_8 C75_8 1_555 1_555
H151_8 C126_8 1_555 1_555
H152_8 C126_8 1_555 1_555
H153_8 C126_8 1_555 1_555
H154_8 C130_8 1_555 1_555
H155_8 C130_8 1_555 1_555
H156_8 C130_8 1_555 1_555
Ag36_8 N51_8 1_555 1_555
N29_8 Ag15_8 1_555 1_555
N30_8 Ag13_8 1_555 1_555
C127_8 C128_8 1_555 1_555
N2_8 C4_8 1_555 1_555
N3_8 N4_8 1_555 1_555
N4_8 C9_8 1_555 1_555
N7_8 N8_8 1_555 1_555
N8_8 C19_8 1_555 1_555
N9_8 N10_8 1_555 1_555
N11_8 N12_8 1_555 1_555
N12_8 C29_8 1_555 1_555
N21_8 N22_8 1_555 1_555
N22_8 C54_8 1_555 1_555
N25_8 N26_8 1_555 1_555
N26_8 C64_8 1_555 1_555
N27_8 N28_8 1_555 1_555
N28_8 C69_8 1_555 1_555
N43_8 N44_8 1_555 1_555
N44_8 C109_8 1_555 1_555
N45_8 N46_8 1_555 1_555
N46_8 C114_8 1_555 1_555
N64_5 C119_8 1_555 1_555
N49_8 N50_8 1_555 1_555
N50_8 C124_8 1_555 1_555
N59_8 N70_5 1_555 1_555
N70_5 C149_8 1_555 1_555
C4_8 C3_8 1_555 1_555
C5_8 C4_8 1_555 1_555
C6_8 C7_8 1_555 1_555
C7_8 N3_8 1_555 1_555
C8_8 C7_8 1_555 1_555
C9_8 C8_8 1_555 1_555
C16_8 C17_8 1_555 1_555
C17_8 N7_8 1_555 1_555
C18_8 C17_8 1_555 1_555
C19_8 C18_8 1_555 1_555
C20_8 C19_8 1_555 1_555
C21_8 C22_8 1_555 1_555
C22_8 N9_8 1_555 1_555
C27_8 N11_8 1_555 1_555
C28_8 C27_8 1_555 1_555
C29_8 C28_8 1_555 1_555
C30_8 C29_8 1_555 1_555
C51_8 C52_8 1_555 1_555
C52_8 N21_8 1_555 1_555
C53_8 C52_8 1_555 1_555
C54_8 C53_8 1_555 1_555
C55_8 C54_8 1_555 1_555
C56_8 C57_8 1_555 1_555
C61_8 C62_8 1_555 1_555
C62_8 N25_8 1_555 1_555
C63_8 C53_8 1_555 1_555
C64_8 C63_8 1_555 1_555
C65_8 C64_8 1_555 1_555
C66_8 C67_8 1_555 1_555
C67_8 N27_8 1_555 1_555
C68_8 C67_8 1_555 1_555
C69_8 C68_8 1_555 1_555
C70_8 C69_8 1_555 1_555
C106_8 C107_8 1_555 1_555
C107_8 N43_8 1_555 1_555
C108_8 C107_8 1_555 1_555
C109_8 C108_8 1_555 1_555
C110_8 C109_8 1_555 1_555
C111_8 C112_8 1_555 1_555
C112_8 N45_8 1_555 1_555
C113_8 C18_8 1_555 1_555
C114_8 C113_8 1_555 1_555
C115_8 C114_8 1_555 1_555
C116_8 C117_8 1_555 1_555
C117_8 N63_5 1_555 1_555
C118_8 C108_8 1_555 1_555
C119_8 C118_8 1_555 1_555
C120_8 C119_8 1_555 1_555
C122_8 N49_8 1_555 1_555
C123_8 C8_8 1_555 1_555
C124_8 C123_8 1_555 1_555
C125_8 C124_8 1_555 1_555
C136_8 C137_8 1_555 1_555
C137_8 N55_8 1_555 1_555
C138_8 C28_8 1_555 1_555
C146_8 C147_8 1_555 1_555
C147_8 N59_8 1_555 1_555
C148_8 C68_8 1_555 1_555
C149_8 C148_8 1_555 1_555
C150_8 C149_8 1_555 1_555
Ag2_8 N2_8 1_555 1_555
Ag3_8 N4_8 1_555 1_555
Ag4_8 N7_8 1_555 1_555
Ag5_8 N8_8 1_555 1_555
Ag6_8 N10_8 1_555 1_555
Ag12_8 N22_8 1_555 1_555
Ag14_8 N26_8 1_555 1_555
Ag33_3 N43_8 1_555 1_555
Ag23_8 N44_8 1_555 1_555
Ag34_3 N46_8 1_555 1_555
Ag35_3 N49_8 1_555 1_555
Ag36_8 N50_8 1_555 1_555
Ag40_5 N59_8 1_555 1_555
H4_8 C5_8 1_555 1_555
H5_8 C5_8 1_555 1_555
H6_8 C5_8 1_555 1_555
H7_8 C6_8 1_555 1_555
H8_8 C6_8 1_555 1_555
H9_8 C6_8 1_555 1_555
H19_8 C16_8 1_555 1_555
H20_8 C16_8 1_555 1_555
H21_8 C16_8 1_555 1_555
H22_8 C20_8 1_555 1_555
H23_8 C20_8 1_555 1_555
H24_8 C20_8 1_555 1_555
H25_8 C21_8 1_555 1_555
H26_8 C21_8 1_555 1_555
H27_8 C21_8 1_555 1_555
H34_8 C30_8 1_555 1_555
H35_8 C30_8 1_555 1_555
H36_8 C30_8 1_555 1_555
H61_8 C51_8 1_555 1_555
H62_8 C51_8 1_555 1_555
H63_8 C51_8 1_555 1_555
H64_8 C55_8 1_555 1_555
H65_8 C55_8 1_555 1_555
H66_8 C55_8 1_555 1_555
H67_8 C56_8 1_555 1_555
H68_8 C56_8 1_555 1_555
H69_8 C56_8 1_555 1_555
H74_8 C61_8 1_555 1_555
H75_8 C61_8 1_555 1_555
H76_8 C65_8 1_555 1_555
H77_8 C65_8 1_555 1_555
H78_8 C65_8 1_555 1_555
H79_8 C66_8 1_555 1_555
H80_8 C66_8 1_555 1_555
H81_8 C66_8 1_555 1_555
H82_8 C70_8 1_555 1_555
H83_8 C70_8 1_555 1_555
H127_8 C106_8 1_555 1_555
H128_8 C106_8 1_555 1_555
H129_8 C106_8 1_555 1_555
H130_8 C110_8 1_555 1_555
H131_8 C110_8 1_555 1_555
H132_8 C110_8 1_555 1_555
H133_8 C111_8 1_555 1_555
H134_8 C111_8 1_555 1_555
H135_8 C111_8 1_555 1_555
H136_8 C115_8 1_555 1_555
H137_8 C115_8 1_555 1_555
H138_8 C115_8 1_555 1_555
H139_8 C116_8 1_555 1_555
H140_8 C116_8 1_555 1_555
H141_8 C116_8 1_555 1_555
H142_8 C120_8 1_555 1_555
H143_8 C120_8 1_555 1_555
H144_8 C120_8 1_555 1_555
H148_8 C125_8 1_555 1_555
H149_8 C125_8 1_555 1_555
H150_8 C125_8 1_555 1_555
H163_8 C136_8 1_555 1_555
H164_8 C136_8 1_555 1_555
H165_8 C136_8 1_555 1_555
H175_8 C146_8 1_555 1_555
H176_8 C146_8 1_555 1_555
H177_8 C146_8 1_555 1_555
H178_8 C150_8 1_555 1_555
H179_8 C150_8 1_555 1_555
H180_8 C150_8 1_555 1_555
N3_8 Ag2_8 1_555 1_555
N9_8 Ag5_8 1_555 1_555
N11_8 Ag6_8 1_555 1_555
N12_8 Ag4_8 1_555 1_555
N27_8 Ag14_8 1_555 1_555
N45_8 Ag23_8 1_555 1_555
C62_8 C63_8 1_555 1_555
C112_8 C113_8 1_555 1_555
C117_8 C118_8 1_555 1_555
C122_8 C123_8 1_555 1_555
C137_8 C138_8 1_555 1_555
C147_8 C148_8 1_555 1_555
H10_8 C10_8 1_555 1_555
H11_8 C10_8 1_555 1_555
H145_8 C121_8 1_555 1_555
H146_8 C121_8 1_555 1_555
H147_8 C121_8 1_555 1_555
N68 Ag29 1_555 1_555
N5_9 N6_9 1_555 1_555
N6_9 C14_9 1_555 1_555
N13_9 N14_9 1_555 1_555
N14_9 C34_9 1_555 1_555
N15_9 N16_9 1_555 1_555
N16_9 C39_9 1_555 1_555
N17_9 N18_9 1_555 1_555
N18_9 C44_9 1_555 1_555
N19_9 N20_9 1_555 1_555
N20_9 C49_9 1_555 1_555
N23_9 N24_9 1_555 1_555
N24_9 C59_9 1_555 1_555
N31_9 N32_9 1_555 1_555
N32_9 C79_9 1_555 1_555
N33_9 N34_9 1_555 1_555
N34_9 C84_9 1_555 1_555
N35_9 N36_9 1_555 1_555
N36_9 C89_9 1_555 1_555
N37_9 N38_9 1_555 1_555
N38_9 C94_9 1_555 1_555
N39_6 N40_6 1_555 1_555
N40_6 C99_9 1_555 1_555
N41_9 N42_9 1_555 1_555
N42_9 C104_9 1_555 1_555
N53_4 N54_4 1_555 1_555
N54_4 C134_9 1_555 1_555
N56_9 C139_9 1_555 1_555
N68 N58_6 1_555 1_555
C1_9 C2_9 1_555 1_555
C2_9 N1_9 1_555 1_555
C11_9 C12_9 1_555 1_555
C12_9 N5_9 1_555 1_555
C13_9 C12_9 1_555 1_555
C14_9 C13_9 1_555 1_555
C15_9 C14_9 1_555 1_555
C24_9 C23_9 1_555 1_555
C25_9 C24_9 1_555 1_555
C31_9 C32_9 1_555 1_555
C32_9 N13_9 1_555 1_555
C33_9 C23_9 1_555 1_555
C34_9 C33_9 1_555 1_555
C35_9 C34_9 1_555 1_555
C36_9 C37_9 1_555 1_555
C37_9 N15_9 1_555 1_555
C38_9 C37_9 1_555 1_555
C39_9 C38_9 1_555 1_555
C40_9 C39_9 1_555 1_555
C41_9 C42_9 1_555 1_555
C42_9 N17_9 1_555 1_555
C43_9 C42_9 1_555 1_555
C44_9 C43_9 1_555 1_555
C45_9 C44_9 1_555 1_555
C46_9 C47_9 1_555 1_555
C47_9 N19_9 1_555 1_555
C48_9 C38_9 1_555 1_555
C49_9 C48_9 1_555 1_555
C50_9 C49_9 1_555 1_555
C59_9 C58_9 1_555 1_555
C60_9 C59_9 1_555 1_555
C76_9 C77_9 1_555 1_555
C77_9 N31_9 1_555 1_555
C78_9 C77_9 1_555 1_555
C79_9 C78_9 1_555 1_555
C80_9 C79_9 1_555 1_555
C81_9 C82_9 1_555 1_555
C82_9 N33_9 1_555 1_555
C83_9 C43_9 1_555 1_555
C84_9 C83_9 1_555 1_555
C85_9 C84_9 1_555 1_555
C86_9 C87_9 1_555 1_555
C87_9 N35_9 1_555 1_555
C88_9 C87_9 1_555 1_555
C89_9 C88_9 1_555 1_555
C90_9 C89_9 1_555 1_555
C91_9 C92_9 1_555 1_555
C92_9 N37_9 1_555 1_555
C93_9 C92_9 1_555 1_555
C94_9 C93_9 1_555 1_555
C95_9 C94_9 1_555 1_555
C96_9 C97_9 1_555 1_555
C97_9 N39_6 1_555 1_555
C98_9 C93_9 1_555 1_555
C99_9 C98_9 1_555 1_555
C100_9 C99_9 1_555 1_555
C101_9 C102_9 1_555 1_555
C102_9 N41_9 1_555 1_555
C103_9 C13_9 1_555 1_555
C104_9 C103_9 1_555 1_555
C105_9 C104_9 1_555 1_555
C131_9 C132_9 1_555 1_555
C132_9 N53_4 1_555 1_555
C133_9 C88_9 1_555 1_555
C134_9 C133_9 1_555 1_555
C135_9 C134_9 1_555 1_555
C140_9 C139_9 1_555 1_555
C141_9 C142_9 1_555 1_555
C142_9 N68 1_555 1_555
C143_9 C78_9 1_555 1_555
Ag1_9 N1_9 1_555 1_555
Ag7_9 N13_9 1_555 1_555
Ag8_9 N14_9 1_555 1_555
Ag9_9 N16_9 1_555 1_555
Ag10_9 N19_9 1_555 1_555
Ag11_9 N20_9 1_555 1_555
Ag16_9 N31_9 1_555 1_555
Ag17_9 N32_9 1_555 1_555
Ag18_9 N34_9 1_555 1_555
Ag19_9 N37_9 1_555 1_555
Ag20_4 N38_9 1_555 1_555
Ag21_4 N41_9 1_555 1_555
H1_9 C1_9 1_555 1_555
H2_9 C1_9 1_555 1_555
H3_9 C1_9 1_555 1_555
H13_9 C11_9 1_555 1_555
H14_9 C11_9 1_555 1_555
H15_9 C11_9 1_555 1_555
H16_9 C15_9 1_555 1_555
H17_9 C15_9 1_555 1_555
H18_9 C15_9 1_555 1_555
H28_9 C25_9 1_555 1_555
H29_9 C25_9 1_555 1_555
H30_9 C25_9 1_555 1_555
H31_9 C26_9 1_555 1_555
H32_9 C26_9 1_555 1_555
H33_9 C26_9 1_555 1_555
H37_9 C31_9 1_555 1_555
H38_9 C31_9 1_555 1_555
H39_9 C31_9 1_555 1_555
H40_9 C35_9 1_555 1_555
H41_9 C35_9 1_555 1_555
H43_9 C36_9 1_555 1_555
H44_9 C36_9 1_555 1_555
H45_9 C36_9 1_555 1_555
H46_9 C40_9 1_555 1_555
H47_9 C40_9 1_555 1_555
H48_9 C40_9 1_555 1_555
H49_9 C41_9 1_555 1_555
H50_9 C41_9 1_555 1_555
H51_9 C41_9 1_555 1_555
H52_9 C45_9 1_555 1_555
H53_9 C45_9 1_555 1_555
H54_9 C45_9 1_555 1_555
H55_9 C46_9 1_555 1_555
H56_9 C46_9 1_555 1_555
H57_9 C46_9 1_555 1_555
H58_9 C50_9 1_555 1_555
H59_9 C50_9 1_555 1_555
H60_9 C50_9 1_555 1_555
H70_9 C60_9 1_555 1_555
H71_9 C60_9 1_555 1_555
H72_9 C60_9 1_555 1_555
H91_9 C76_9 1_555 1_555
H93_9 C76_9 1_555 1_555
H94_9 C80_9 1_555 1_555
H95_9 C80_9 1_555 1_555
H96_9 C80_9 1_555 1_555
H97_9 C81_9 1_555 1_555
H98_9 C81_9 1_555 1_555
H99_9 C81_9 1_555 1_555
H100_9 C85_9 1_555 1_555
H101_9 C85_9 1_555 1_555
H102_9 C85_9 1_555 1_555
H103_9 C86_9 1_555 1_555
H104_9 C86_9 1_555 1_555
H105_9 C86_9 1_555 1_555
H106_9 C90_9 1_555 1_555
H107_9 C90_9 1_555 1_555
H108_9 C90_9 1_555 1_555
H109_9 C91_9 1_555 1_555
H110_9 C91_9 1_555 1_555
H111_9 C91_9 1_555 1_555
H112_9 C95_9 1_555 1_555
H113_9 C95_9 1_555 1_555
H114_9 C95_9 1_555 1_555
H115_9 C96_9 1_555 1_555
H116_9 C96_9 1_555 1_555
H117_9 C96_9 1_555 1_555
H118_9 C100_9 1_555 1_555
H119_9 C100_9 1_555 1_555
H120_9 C100_9 1_555 1_555
H121_9 C101_9 1_555 1_555
H122_9 C101_9 1_555 1_555
H123_9 C101_9 1_555 1_555
H124_9 C105_9 1_555 1_555
H125_9 C105_9 1_555 1_555
H126_9 C105_9 1_555 1_555
H157_9 C131_9 1_555 1_555
H158_9 C131_9 1_555 1_555
H159_9 C131_9 1_555 1_555
H160_9 C135_9 1_555 1_555
H161_9 C135_9 1_555 1_555
H162_9 C135_9 1_555 1_555
H167_9 C140_9 1_555 1_555
H168_9 C140_9 1_555 1_555
H169_9 C141_9 1_555 1_555
H170_9 C141_9 1_555 1_555
H171_9 C141_9 1_555 1_555
N61_4 Ag20_4 1_555 1_555
N62_4 Ag21_4 1_555 1_555
Ag31_6 N39_6 1_555 1_555
Ag32_6 N40_6 1_555 1_555
Ag35_4 N54_4 1_555 1_555
Ag37_4 N53_4 1_555 1_555
N6_9 Ag1_9 1_555 1_555
N15_9 Ag8_9 1_555 1_555
N17_9 Ag9_9 1_555 1_555
N18_9 Ag7_9 1_555 1_555
N24_9 Ag10_9 1_555 1_555
N33_9 Ag17_9 1_555 1_555
N35_9 Ag18_9 1_555 1_555
N36_9 Ag16_9 1_555 1_555
N42_9 Ag19_9 1_555 1_555
C32_9 C33_9 1_555 1_555
C47_9 C48_9 1_555 1_555
C82_9 C83_9 1_555 1_555
C97_9 C98_9 1_555 1_555
C102_9 C103_9 1_555 1_555
C132_9 C133_9 1_555 1_555
C142_9 C143_9 1_555 1_555
N61_4 N62_4 1_555 1_555
C145_9 C144_9 1_555 1_555
H172_9 C145_9 1_555 1_555
H173_9 C145_9 1_555 1_555
H174_9 C145_9 1_555 1_555
N2_9 C4_9 1_555 1_555
N3_9 N4_9 1_555 1_555
N4_9 C9_9 1_555 1_555
N7_9 N8_9 1_555 1_555
N8_9 C19_9 1_555 1_555
N9_9 N10_9 1_555 1_555
N11_9 N12_9 1_555 1_555
N12_9 C29_9 1_555 1_555
N21_9 N22_9 1_555 1_555
N22_9 C54_9 1_555 1_555
N25_9 N26_9 1_555 1_555
N26_9 C64_9 1_555 1_555
N27_9 N28_9 1_555 1_555
N28_9 C69_9 1_555 1_555
N43_9 N44_9 1_555 1_555
N44_9 C109_9 1_555 1_555
N45_9 N46_9 1_555 1_555
N46_9 C114_9 1_555 1_555
N47_4 N48_4 1_555 1_555
N48_4 C119_9 1_555 1_555
N49_9 N50_9 1_555 1_555
N50_9 C124_9 1_555 1_555
N59_9 N60_4 1_555 1_555
N60_4 C149_9 1_555 1_555
C4_9 C3_9 1_555 1_555
C5_9 C4_9 1_555 1_555
C6_9 C7_9 1_555 1_555
C7_9 N3_9 1_555 1_555
C8_9 C7_9 1_555 1_555
C9_9 C8_9 1_555 1_555
C10_9 C9_9 1_555 1_555
C16_9 C17_9 1_555 1_555
C17_9 N7_9 1_555 1_555
C18_9 C17_9 1_555 1_555
C19_9 C18_9 1_555 1_555
C20_9 C19_9 1_555 1_555
C21_9 C22_9 1_555 1_555
C22_9 N9_9 1_555 1_555
C27_9 N11_9 1_555 1_555
C28_9 C27_9 1_555 1_555
C29_9 C28_9 1_555 1_555
C30_9 C29_9 1_555 1_555
C51_9 C52_9 1_555 1_555
C52_9 N21_9 1_555 1_555
C53_9 C52_9 1_555 1_555
C54_9 C53_9 1_555 1_555
C55_9 C54_9 1_555 1_555
C56_9 C57_9 1_555 1_555
C61_9 C62_9 1_555 1_555
C62_9 N25_9 1_555 1_555
C63_9 C53_9 1_555 1_555
C64_9 C63_9 1_555 1_555
C65_9 C64_9 1_555 1_555
C66_9 C67_9 1_555 1_555
C67_9 N27_9 1_555 1_555
C68_9 C67_9 1_555 1_555
C69_9 C68_9 1_555 1_555
C70_9 C69_9 1_555 1_555
C106_9 C107_9 1_555 1_555
C107_9 N43_9 1_555 1_555
C108_9 C107_9 1_555 1_555
C109_9 C108_9 1_555 1_555
C110_9 C109_9 1_555 1_555
C111_9 C112_9 1_555 1_555
C112_9 N45_9 1_555 1_555
C113_9 C18_9 1_555 1_555
C114_9 C113_9 1_555 1_555
C115_9 C114_9 1_555 1_555
C116_9 C117_9 1_555 1_555
C117_9 N47_4 1_555 1_555
C118_9 C108_9 1_555 1_555
C119_9 C118_9 1_555 1_555
C120_9 C119_9 1_555 1_555
C121_9 C122_9 1_555 1_555
C122_9 N49_9 1_555 1_555
C123_9 C8_9 1_555 1_555
C124_9 C123_9 1_555 1_555
C125_9 C124_9 1_555 1_555
C136_9 C137_9 1_555 1_555
C137_9 N55_9 1_555 1_555
C138_9 C28_9 1_555 1_555
C146_9 C147_9 1_555 1_555
C147_9 N59_9 1_555 1_555
C148_9 C68_9 1_555 1_555
C149_9 C148_9 1_555 1_555
C150_9 C149_9 1_555 1_555
Ag2_9 N2_9 1_555 1_555
Ag3_9 N4_9 1_555 1_555
Ag4_9 N7_9 1_555 1_555
Ag5_9 N8_9 1_555 1_555
Ag6_9 N10_9 1_555 1_555
Ag12_9 N22_9 1_555 1_555
Ag14_9 N26_9 1_555 1_555
Ag22_6 N43_9 1_555 1_555
Ag23_9 N44_9 1_555 1_555
Ag24_6 N46_9 1_555 1_555
Ag25_6 N49_9 1_555 1_555
Ag26 N50_9 1_555 1_555
Ag30_4 N59_9 1_555 1_555
H4_9 C5_9 1_555 1_555
H5_9 C5_9 1_555 1_555
H6_9 C5_9 1_555 1_555
H7_9 C6_9 1_555 1_555
H8_9 C6_9 1_555 1_555
H9_9 C6_9 1_555 1_555
H10_9 C10_9 1_555 1_555
H11_9 C10_9 1_555 1_555
H12_9 C10_9 1_555 1_555
H19_9 C16_9 1_555 1_555
H20_9 C16_9 1_555 1_555
H21_9 C16_9 1_555 1_555
H22_9 C20_9 1_555 1_555
H23_9 C20_9 1_555 1_555
H24_9 C20_9 1_555 1_555
H25_9 C21_9 1_555 1_555
H26_9 C21_9 1_555 1_555
H27_9 C21_9 1_555 1_555
H34_9 C30_9 1_555 1_555
H35_9 C30_9 1_555 1_555
H36_9 C30_9 1_555 1_555
H61_9 C51_9 1_555 1_555
H62_9 C51_9 1_555 1_555
H63_9 C51_9 1_555 1_555
H64_9 C55_9 1_555 1_555
H65_9 C55_9 1_555 1_555
H66_9 C55_9 1_555 1_555
H67_9 C56_9 1_555 1_555
H68_9 C56_9 1_555 1_555
H69_9 C56_9 1_555 1_555
H74_9 C61_9 1_555 1_555
H75_9 C61_9 1_555 1_555
H76_9 C65_9 1_555 1_555
H77_9 C65_9 1_555 1_555
H78_9 C65_9 1_555 1_555
H79_9 C66_9 1_555 1_555
H80_9 C66_9 1_555 1_555
H81_9 C66_9 1_555 1_555
H82_9 C70_9 1_555 1_555
H83_9 C70_9 1_555 1_555
H127_9 C106_9 1_555 1_555
H128_9 C106_9 1_555 1_555
H129_9 C106_9 1_555 1_555
H130_9 C110_9 1_555 1_555
H131_9 C110_9 1_555 1_555
H132_9 C110_9 1_555 1_555
H133_9 C111_9 1_555 1_555
H134_9 C111_9 1_555 1_555
H135_9 C111_9 1_555 1_555
H136_9 C115_9 1_555 1_555
H137_9 C115_9 1_555 1_555
H138_9 C115_9 1_555 1_555
H139_9 C116_9 1_555 1_555
H140_9 C116_9 1_555 1_555
H141_9 C116_9 1_555 1_555
H142_9 C120_9 1_555 1_555
H143_9 C120_9 1_555 1_555
H144_9 C120_9 1_555 1_555
H145_9 C121_9 1_555 1_555
H146_9 C121_9 1_555 1_555
H147_9 C121_9 1_555 1_555
H148_9 C125_9 1_555 1_555
H149_9 C125_9 1_555 1_555
H150_9 C125_9 1_555 1_555
H163_9 C136_9 1_555 1_555
H164_9 C136_9 1_555 1_555
H165_9 C136_9 1_555 1_555
H175_9 C146_9 1_555 1_555
H176_9 C146_9 1_555 1_555
H177_9 C146_9 1_555 1_555
H178_9 C150_9 1_555 1_555
H179_9 C150_9 1_555 1_555
H180_9 C150_9 1_555 1_555
N63_6 Ag24_6 1_555 1_555
N64_6 Ag22_6 1_555 1_555
N65 Ag26 1_555 1_555
N67_6 Ag25_6 1_555 1_555
N69_4 Ag30_4 1_555 1_555
Ag33_4 N48_4 1_555 1_555
Ag34_4 N47_4 1_555 1_555
Ag38_4 N60_4 1_555 1_555
N3_9 Ag2_9 1_555 1_555
N9_9 Ag5_9 1_555 1_555
N11_9 Ag6_9 1_555 1_555
N12_9 Ag4_9 1_555 1_555
N27_9 Ag14_9 1_555 1_555
N45_9 Ag23_9 1_555 1_555
C62_9 C63_9 1_555 1_555
C112_9 C113_9 1_555 1_555
C117_9 C118_9 1_555 1_555
C122_9 C123_9 1_555 1_555
C137_9 C138_9 1_555 1_555
C147_9 C148_9 1_555 1_555
N63_6 N64_6 1_555 1_555
N29_9 N30_9 1_555 1_555
N30_9 C74_9 1_555 1_555
N65 N52_9 1_555 1_555
N52_9 C129_9 1_555 1_555
C71_9 C72_9 1_555 1_555
C72_9 N29_9 1_555 1_555
C73_9 C72_9 1_555 1_555
C74_9 C73_9 1_555 1_555
C75_9 C74_9 1_555 1_555
C126_9 C127_9 1_555 1_555
C127_9 N65 1_555 1_555
C128_9 C73_9 1_555 1_555
C129_9 C128_9 1_555 1_555
C130_9 C129_9 1_555 1_555
Ag27_6 N52_9 1_555 1_555
H85_9 C71_9 1_555 1_555
H86_9 C71_9 1_555 1_555
H87_9 C71_9 1_555 1_555
H88_9 C75_9 1_555 1_555
H89_9 C75_9 1_555 1_555
H90_9 C75_9 1_555 1_555
H151_9 C126_9 1_555 1_555
H152_9 C126_9 1_555 1_555
H153_9 C126_9 1_555 1_555
H154_9 C130_9 1_555 1_555
H155_9 C130_9 1_555 1_555
H156_9 C130_9 1_555 1_555
N66_6 Ag27_6 1_555 1_555
N29_9 Ag15_9 1_555 1_555
N30_9 Ag13_9 1_555 1_555
C127_9 C128_9 1_555 1_555
N11_10 N12_10 1_555 1_555
N12_10 C29_10 1_555 1_555
N55_10 N56_10 1_555 1_555
N56_10 C139_10 1_555 1_555
C26_10 C27_10 1_555 1_555
C27_10 N11_10 1_555 1_555
C28_10 C27_10 1_555 1_555
C29_10 C28_10 1_555 1_555
C30_10 C29_10 1_555 1_555
C136_10 C137_10 1_555 1_555
C137_10 N55_10 1_555 1_555
C138_10 C28_10 1_555 1_555
C139_10 C138_10 1_555 1_555
C140_10 C139_10 1_555 1_555
Ag4_10 N7_10 1_555 1_555
Ag38_4 N55_10 1_555 1_555
Ag29_2 N56_10 1_555 1_555
H19_10 C16_10 1_555 1_555
H20_10 C16_10 1_555 1_555
H21_10 C16_10 1_555 1_555
H31_10 C26_10 1_555 1_555
H32_10 C26_10 1_555 1_555
H33_10 C26_10 1_555 1_555
H34_10 C30_10 1_555 1_555
H35_10 C30_10 1_555 1_555
H36_10 C30_10 1_555 1_555
H163_10 C136_10 1_555 1_555
H164_10 C136_10 1_555 1_555
H165_10 C136_10 1_555 1_555
H166_10 C140_10 1_555 1_555
H167_10 C140_10 1_555 1_555
H168_10 C140_10 1_555 1_555
N62_5 Ag21_5 1_555 1_555
N68_2 Ag29_2 1_555 1_555
N11_10 Ag6_10 1_555 1_555
N12_10 Ag4_10 1_555 1_555
C137_10 C138_10 1_555 1_555
N61_5 N62_5 1_555 1_555
N1_10 N2_10 1_555 1_555
N2_10 C4_10 1_555 1_555
N3_10 N4_10 1_555 1_555
N4_10 C9_10 1_555 1_555
N5_10 N6_10 1_555 1_555
N6_10 C14_10 1_555 1_555
N8_10 C19_10 1_555 1_555
N9_10 N10_10 1_555 1_555
N10_10 C24_10 1_555 1_555
N13_10 N14_10 1_555 1_555
N14_10 C34_10 1_555 1_555
N15_10 N16_10 1_555 1_555
N16_10 C39_10 1_555 1_555
N17_10 N18_10 1_555 1_555
N18_10 C44_10 1_555 1_555
N19_10 N20_10 1_555 1_555
N20_10 C49_10 1_555 1_555
N21_10 N22_10 1_555 1_555
N22_10 C54_10 1_555 1_555
N23_10 N24_10 1_555 1_555
N24_10 C59_10 1_555 1_555
N25_10 N26_10 1_555 1_555
N26_10 C64_10 1_555 1_555
N27_10 N28_10 1_555 1_555
N28_10 C69_10 1_555 1_555
N29_10 N30_10 1_555 1_555
N30_10 C74_10 1_555 1_555
N31_10 N32_10 1_555 1_555
N32_10 C79_10 1_555 1_555
N33_10 N34_10 1_555 1_555
N34_10 C84_10 1_555 1_555
N35_10 N36_10 1_555 1_555
N36_10 C89_10 1_555 1_555
N37_10 N38_10 1_555 1_555
N38_10 C94_10 1_555 1_555
N62_4 C99_10 1_555 1_555
N41_10 N42_10 1_555 1_555
N42_10 C104_10 1_555 1_555
N43_10 N44_10 1_555 1_555
N44_10 C109_10 1_555 1_555
N45_10 N46_10 1_555 1_555
N46_10 C114_10 1_555 1_555
N49_10 N50_10 1_555 1_555
N50_10 C124_10 1_555 1_555
N65_2 N52_10 1_555 1_555
N52_10 C129_10 1_555 1_555
N53_5 N54_5 1_555 1_555
N54_5 C134_10 1_555 1_555
N68_2 N69_4 1_555 1_555
N69_4 C144_10 1_555 1_555
N59_10 N60_5 1_555 1_555
N60_5 C149_10 1_555 1_555
C1_10 C2_10 1_555 1_555
C2_10 N1_10 1_555 1_555
C3_10 C2_10 1_555 1_555
C4_10 C3_10 1_555 1_555
C5_10 C4_10 1_555 1_555
C6_10 C7_10 1_555 1_555
C7_10 N3_10 1_555 1_555
C8_10 C7_10 1_555 1_555
C9_10 C8_10 1_555 1_555
C10_10 C9_10 1_555 1_555
C11_10 C12_10 1_555 1_555
C12_10 N5_10 1_555 1_555
C13_10 C12_10 1_555 1_555
C14_10 C13_10 1_555 1_555
C15_10 C14_10 1_555 1_555
C18_10 C17_10 1_555 1_555
C19_10 C18_10 1_555 1_555
C20_10 C19_10 1_555 1_555
C21_10 C22_10 1_555 1_555
C22_10 N9_10 1_555 1_555
C23_10 C22_10 1_555 1_555
C24_10 C23_10 1_555 1_555
C25_10 C24_10 1_555 1_555
C31_10 C32_10 1_555 1_555
C32_10 N13_10 1_555 1_555
C33_10 C23_10 1_555 1_555
C34_10 C33_10 1_555 1_555
C35_10 C34_10 1_555 1_555
C36_10 C37_10 1_555 1_555
C37_10 N15_10 1_555 1_555
C38_10 C37_10 1_555 1_555
C39_10 C38_10 1_555 1_555
C40_10 C39_10 1_555 1_555
C41_10 C42_10 1_555 1_555
C42_10 N17_10 1_555 1_555
C43_10 C42_10 1_555 1_555
C44_10 C43_10 1_555 1_555
C45_10 C44_10 1_555 1_555
C46_10 C47_10 1_555 1_555
C47_10 N19_10 1_555 1_555
C48_10 C38_10 1_555 1_555
C49_10 C48_10 1_555 1_555
C50_10 C49_10 1_555 1_555
C51_10 C52_10 1_555 1_555
C52_10 N21_10 1_555 1_555
C53_10 C52_10 1_555 1_555
C54_10 C53_10 1_555 1_555
C55_10 C54_10 1_555 1_555
C56_10 C57_10 1_555 1_555
C57_10 N23_10 1_555 1_555
C58_10 C3_10 1_555 1_555
C59_10 C58_10 1_555 1_555
C60_10 C59_10 1_555 1_555
C61_10 C62_10 1_555 1_555
C62_10 N25_10 1_555 1_555
C63_10 C53_10 1_555 1_555
C64_10 C63_10 1_555 1_555
C65_10 C64_10 1_555 1_555
C66_10 C67_10 1_555 1_555
C67_10 N27_10 1_555 1_555
C68_10 C67_10 1_555 1_555
C69_10 C68_10 1_555 1_555
C70_10 C69_10 1_555 1_555
C71_10 C72_10 1_555 1_555
C72_10 N29_10 1_555 1_555
C73_10 C72_10 1_555 1_555
C74_10 C73_10 1_555 1_555
C75_10 C74_10 1_555 1_555
C76_10 C77_10 1_555 1_555
C77_10 N31_10 1_555 1_555
C78_10 C77_10 1_555 1_555
C79_10 C78_10 1_555 1_555
C80_10 C79_10 1_555 1_555
C81_10 C82_10 1_555 1_555
C82_10 N33_10 1_555 1_555
C83_10 C43_10 1_555 1_555
C84_10 C83_10 1_555 1_555
C85_10 C84_10 1_555 1_555
C86_10 C87_10 1_555 1_555
C87_10 N35_10 1_555 1_555
C88_10 C87_10 1_555 1_555
C89_10 C88_10 1_555 1_555
C90_10 C89_10 1_555 1_555
C91_10 C92_10 1_555 1_555
C92_10 N37_10 1_555 1_555
C93_10 C92_10 1_555 1_555
C94_10 C93_10 1_555 1_555
C95_10 C94_10 1_555 1_555
C96_10 C97_10 1_555 1_555
C97_10 N61_4 1_555 1_555
C98_10 C93_10 1_555 1_555
C99_10 C98_10 1_555 1_555
C100_10 C99_10 1_555 1_555
C101_10 C102_10 1_555 1_555
C102_10 N41_10 1_555 1_555
C103_10 C13_10 1_555 1_555
C104_10 C103_10 1_555 1_555
C105_10 C104_10 1_555 1_555
C110_10 C109_10 1_555 1_555
C111_10 C112_10 1_555 1_555
C112_10 N45_10 1_555 1_555
C113_10 C18_10 1_555 1_555
C114_10 C113_10 1_555 1_555
C115_10 C114_10 1_555 1_555
C121_10 C122_10 1_555 1_555
C122_10 N49_10 1_555 1_555
C123_10 C8_10 1_555 1_555
C124_10 C123_10 1_555 1_555
C125_10 C124_10 1_555 1_555
C126_10 C127_10 1_555 1_555
C127_10 N65_2 1_555 1_555
C128_10 C73_10 1_555 1_555
C129_10 C128_10 1_555 1_555
C130_10 C129_10 1_555 1_555
C131_10 C132_10 1_555 1_555
C132_10 N53_5 1_555 1_555
C133_10 C88_10 1_555 1_555
C134_10 C133_10 1_555 1_555
C135_10 C134_10 1_555 1_555
C141_10 C142_10 1_555 1_555
C142_10 N68_2 1_555 1_555
C143_10 C78_10 1_555 1_555
C144_10 C143_10 1_555 1_555
C145_10 C144_10 1_555 1_555
C146_10 C147_10 1_555 1_555
C147_10 N59_10 1_555 1_555
C148_10 C68_10 1_555 1_555
C149_10 C148_10 1_555 1_555
C150_10 C149_10 1_555 1_555
Ag1_10 N1_10 1_555 1_555
Ag2_10 N2_10 1_555 1_555
Ag3_10 N4_10 1_555 1_555
Ag5_10 N8_10 1_555 1_555
Ag7_10 N13_10 1_555 1_555
Ag8_10 N14_10 1_555 1_555
Ag9_10 N16_10 1_555 1_555
Ag10_10 N19_10 1_555 1_555
Ag11_10 N20_10 1_555 1_555
Ag12_10 N22_10 1_555 1_555
Ag13_10 N25_10 1_555 1_555
Ag14_10 N26_10 1_555 1_555
Ag15_10 N28_10 1_555 1_555
Ag16_10 N31_10 1_555 1_555
Ag17_10 N32_10 1_555 1_555
Ag18_10 N34_10 1_555 1_555
Ag19_10 N37_10 1_555 1_555
Ag20_5 N38_10 1_555 1_555
Ag33_4 N43_10 1_555 1_555
Ag23_10 N44_10 1_555 1_555
Ag34_4 N46_10 1_555 1_555
Ag26_2 N50_10 1_555 1_555
Ag37_4 N52_10 1_555 1_555
Ag30_5 N59_10 1_555 1_555
H1_10 C1_10 1_555 1_555
H2_10 C1_10 1_555 1_555
H3_10 C1_10 1_555 1_555
H4_10 C5_10 1_555 1_555
H5_10 C5_10 1_555 1_555
H6_10 C5_10 1_555 1_555
H7_10 C6_10 1_555 1_555
H8_10 C6_10 1_555 1_555
H9_10 C6_10 1_555 1_555
H10_10 C10_10 1_555 1_555
H11_10 C10_10 1_555 1_555
H12_10 C10_10 1_555 1_555
H13_10 C11_10 1_555 1_555
H14_10 C11_10 1_555 1_555
H15_10 C11_10 1_555 1_555
H16_10 C15_10 1_555 1_555
H17_10 C15_10 1_555 1_555
H18_10 C15_10 1_555 1_555
H22_10 C20_10 1_555 1_555
H23_10 C20_10 1_555 1_555
H24_10 C20_10 1_555 1_555
H25_10 C21_10 1_555 1_555
H26_10 C21_10 1_555 1_555
H27_10 C21_10 1_555 1_555
H28_10 C25_10 1_555 1_555
H29_10 C25_10 1_555 1_555
H30_10 C25_10 1_555 1_555
H37_10 C31_10 1_555 1_555
H38_10 C31_10 1_555 1_555
H39_10 C31_10 1_555 1_555
H40_10 C35_10 1_555 1_555
H41_10 C35_10 1_555 1_555
H42_10 C35_10 1_555 1_555
H43_10 C36_10 1_555 1_555
H44_10 C36_10 1_555 1_555
H45_10 C36_10 1_555 1_555
H46_10 C40_10 1_555 1_555
H47_10 C40_10 1_555 1_555
H48_10 C40_10 1_555 1_555
H49_10 C41_10 1_555 1_555
H50_10 C41_10 1_555 1_555
H51_10 C41_10 1_555 1_555
H52_10 C45_10 1_555 1_555
H53_10 C45_10 1_555 1_555
H54_10 C45_10 1_555 1_555
H55_10 C46_10 1_555 1_555
H56_10 C46_10 1_555 1_555
H57_10 C46_10 1_555 1_555
H58_10 C50_10 1_555 1_555
H59_10 C50_10 1_555 1_555
H60_10 C50_10 1_555 1_555
H61_10 C51_10 1_555 1_555
H62_10 C51_10 1_555 1_555
H63_10 C51_10 1_555 1_555
H64_10 C55_10 1_555 1_555
H65_10 C55_10 1_555 1_555
H66_10 C55_10 1_555 1_555
H67_10 C56_10 1_555 1_555
H68_10 C56_10 1_555 1_555
H69_10 C56_10 1_555 1_555
H70_10 C60_10 1_555 1_555
H71_10 C60_10 1_555 1_555
H72_10 C60_10 1_555 1_555
H73_10 C61_10 1_555 1_555
H74_10 C61_10 1_555 1_555
H75_10 C61_10 1_555 1_555
H76_10 C65_10 1_555 1_555
H77_10 C65_10 1_555 1_555
H78_10 C65_10 1_555 1_555
H79_10 C66_10 1_555 1_555
H80_10 C66_10 1_555 1_555
H81_10 C66_10 1_555 1_555
H82_10 C70_10 1_555 1_555
H83_10 C70_10 1_555 1_555
H84_10 C70_10 1_555 1_555
H85_10 C71_10 1_555 1_555
H86_10 C71_10 1_555 1_555
H87_10 C71_10 1_555 1_555
H88_10 C75_10 1_555 1_555
H89_10 C75_10 1_555 1_555
H90_10 C75_10 1_555 1_555
H91_10 C76_10 1_555 1_555
H92_10 C76_10 1_555 1_555
H93_10 C76_10 1_555 1_555
H94_10 C80_10 1_555 1_555
H95_10 C80_10 1_555 1_555
H96_10 C80_10 1_555 1_555
H97_10 C81_10 1_555 1_555
H98_10 C81_10 1_555 1_555
H99_10 C81_10 1_555 1_555
H100_10 C85_10 1_555 1_555
H101_10 C85_10 1_555 1_555
H102_10 C85_10 1_555 1_555
H103_10 C86_10 1_555 1_555
H104_10 C86_10 1_555 1_555
H105_10 C86_10 1_555 1_555
H106_10 C90_10 1_555 1_555
H107_10 C90_10 1_555 1_555
H108_10 C90_10 1_555 1_555
H109_10 C91_10 1_555 1_555
H110_10 C91_10 1_555 1_555
H111_10 C91_10 1_555 1_555
H112_10 C95_10 1_555 1_555
H113_10 C95_10 1_555 1_555
H114_10 C95_10 1_555 1_555
H115_10 C96_10 1_555 1_555
H116_10 C96_10 1_555 1_555
H117_10 C96_10 1_555 1_555
H118_10 C100_10 1_555 1_555
H119_10 C100_10 1_555 1_555
H120_10 C100_10 1_555 1_555
H122_10 C101_10 1_555 1_555
H123_10 C101_10 1_555 1_555
H124_10 C105_10 1_555 1_555
H125_10 C105_10 1_555 1_555
H126_10 C105_10 1_555 1_555
H130_10 C110_10 1_555 1_555
H132_10 C110_10 1_555 1_555
H133_10 C111_10 1_555 1_555
H134_10 C111_10 1_555 1_555
H136_10 C115_10 1_555 1_555
H137_10 C115_10 1_555 1_555
H138_10 C115_10 1_555 1_555
H145_10 C121_10 1_555 1_555
H146_10 C121_10 1_555 1_555
H147_10 C121_10 1_555 1_555
H148_10 C125_10 1_555 1_555
H149_10 C125_10 1_555 1_555
H150_10 C125_10 1_555 1_555
H152_10 C126_10 1_555 1_555
H153_10 C126_10 1_555 1_555
H154_10 C130_10 1_555 1_555
H155_10 C130_10 1_555 1_555
H156_10 C130_10 1_555 1_555
H157_10 C131_10 1_555 1_555
H158_10 C131_10 1_555 1_555
H159_10 C131_10 1_555 1_555
H160_10 C135_10 1_555 1_555
H161_10 C135_10 1_555 1_555
H162_10 C135_10 1_555 1_555
H169_10 C141_10 1_555 1_555
H170_10 C141_10 1_555 1_555
H171_10 C141_10 1_555 1_555
H172_10 C145_10 1_555 1_555
H173_10 C145_10 1_555 1_555
H174_10 C145_10 1_555 1_555
H175_10 C146_10 1_555 1_555
H176_10 C146_10 1_555 1_555
H177_10 C146_10 1_555 1_555
H178_10 C150_10 1_555 1_555
H179_10 C150_10 1_555 1_555
H180_10 C150_10 1_555 1_555
Ag35_5 N54_5 1_555 1_555
Ag37_5 N53_5 1_555 1_555
N3_10 Ag2_10 1_555 1_555
N5_10 Ag3_10 1_555 1_555
N6_10 Ag1_10 1_555 1_555
N9_10 Ag5_10 1_555 1_555
N15_10 Ag8_10 1_555 1_555
N17_10 Ag9_10 1_555 1_555
N18_10 Ag7_10 1_555 1_555
N21_10 Ag11_10 1_555 1_555
N23_10 Ag12_10 1_555 1_555
N24_10 Ag10_10 1_555 1_555
N27_10 Ag14_10 1_555 1_555
N29_10 Ag15_10 1_555 1_555
N30_10 Ag13_10 1_555 1_555
N33_10 Ag17_10 1_555 1_555
N35_10 Ag18_10 1_555 1_555
N36_10 Ag16_10 1_555 1_555
N42_10 Ag19_10 1_555 1_555
N45_10 Ag23_10 1_555 1_555
C32_10 C33_10 1_555 1_555
C47_10 C48_10 1_555 1_555
C57_10 C58_10 1_555 1_555
C62_10 C63_10 1_555 1_555
C82_10 C83_10 1_555 1_555
C97_10 C98_10 1_555 1_555
C102_10 C103_10 1_555 1_555
C112_10 C113_10 1_555 1_555
C122_10 C123_10 1_555 1_555
C127_10 C128_10 1_555 1_555
C132_10 C133_10 1_555 1_555
C142_10 C143_10 1_555 1_555
C147_10 C148_10 1_555 1_555
Ag34_5 N47_5 1_555 1_555
N48_5 C119_10 1_555 1_555
C106_10 C107_10 1_555 1_555
C108_10 C107_10 1_555 1_555
C116_10 C117_10 1_555 1_555
C118_10 C108_10 1_555 1_555
C119_10 C118_10 1_555 1_555
C120_10 C119_10 1_555 1_555
H127_10 C106_10 1_555 1_555
H128_10 C106_10 1_555 1_555
H129_10 C106_10 1_555 1_555
H139_10 C116_10 1_555 1_555
H140_10 C116_10 1_555 1_555
H141_10 C116_10 1_555 1_555
H142_10 C120_10 1_555 1_555
H143_10 C120_10 1_555 1_555
H144_10 C120_10 1_555 1_555
C117_10 C118_10 1_555 1_555
N1_11 N2_11 1_555 1_555
N2_11 C4_11 1_555 1_555
N3_11 N4_11 1_555 1_555
N4_11 C9_11 1_555 1_555
N5_11 N6_11 1_555 1_555
N6_11 C14_11 1_555 1_555
N19_11 N20_11 1_555 1_555
N20_11 C49_11 1_555 1_555
N23_11 N24_11 1_555 1_555
N24_11 C59_11 1_555 1_555
N37_11 N38_11 1_555 1_555
N38_11 C94_11 1_555 1_555
N39_7 N40_7 1_555 1_555
N40_7 C99_11 1_555 1_555
N41_11 N42_11 1_555 1_555
N42_11 C104_11 1_555 1_555
N49_11 N50_11 1_555 1_555
N50_11 C124_11 1_555 1_555
C1_11 C2_11 1_555 1_555
C2_11 N1_11 1_555 1_555
C3_11 C2_11 1_555 1_555
C4_11 C3_11 1_555 1_555
C5_11 C4_11 1_555 1_555
C6_11 C7_11 1_555 1_555
C7_11 N3_11 1_555 1_555
C8_11 C7_11 1_555 1_555
C9_11 C8_11 1_555 1_555
C10_11 C9_11 1_555 1_555
C11_11 C12_11 1_555 1_555
C12_11 N5_11 1_555 1_555
C13_11 C12_11 1_555 1_555
C14_11 C13_11 1_555 1_555
C15_11 C14_11 1_555 1_555
C36_11 C37_11 1_555 1_555
C38_11 C37_11 1_555 1_555
C46_11 C47_11 1_555 1_555
C47_11 N19_11 1_555 1_555
C48_11 C38_11 1_555 1_555
C49_11 C48_11 1_555 1_555
C50_11 C49_11 1_555 1_555
C56_11 C57_11 1_555 1_555
C57_11 N23_11 1_555 1_555
C58_11 C3_11 1_555 1_555
C59_11 C58_11 1_555 1_555
C60_11 C59_11 1_555 1_555
C91_11 C92_11 1_555 1_555
C92_11 N37_11 1_555 1_555
C93_11 C92_11 1_555 1_555
C94_11 C93_11 1_555 1_555
C95_11 C94_11 1_555 1_555
C96_11 C97_11 1_555 1_555
C97_11 N39_7 1_555 1_555
C98_11 C93_11 1_555 1_555
C99_11 C98_11 1_555 1_555
C100_11 C99_11 1_555 1_555
C101_11 C102_11 1_555 1_555
C102_11 N41_11 1_555 1_555
C103_11 C13_11 1_555 1_555
C104_11 C103_11 1_555 1_555
C105_11 C104_11 1_555 1_555
C121_11 C122_11 1_555 1_555
C122_11 N49_11 1_555 1_555
C123_11 C8_11 1_555 1_555
C124_11 C123_11 1_555 1_555
C125_11 C124_11 1_555 1_555
Ag1_11 N1_11 1_555 1_555
Ag2_11 N2_11 1_555 1_555
Ag3_11 N4_11 1_555 1_555
Ag10_11 N19_11 1_555 1_555
Ag19_11 N37_11 1_555 1_555
Ag31_6 N38_11 1_555 1_555
Ag32_6 N41_11 1_555 1_555
Ag25_7 N49_11 1_555 1_555
Ag26_3 N50_11 1_555 1_555
H1_11 C1_11 1_555 1_555
H2_11 C1_11 1_555 1_555
H3_11 C1_11 1_555 1_555
H4_11 C5_11 1_555 1_555
H5_11 C5_11 1_555 1_555
H6_11 C5_11 1_555 1_555
H7_11 C6_11 1_555 1_555
H8_11 C6_11 1_555 1_555
H9_11 C6_11 1_555 1_555
H10_11 C10_11 1_555 1_555
H11_11 C10_11 1_555 1_555
H12_11 C10_11 1_555 1_555
H13_11 C11_11 1_555 1_555
H14_11 C11_11 1_555 1_555
H15_11 C11_11 1_555 1_555
H16_11 C15_11 1_555 1_555
H17_11 C15_11 1_555 1_555
H18_11 C15_11 1_555 1_555
H43_11 C36_11 1_555 1_555
H44_11 C36_11 1_555 1_555
H45_11 C36_11 1_555 1_555
H55_11 C46_11 1_555 1_555
H56_11 C46_11 1_555 1_555
H57_11 C46_11 1_555 1_555
H59_11 C50_11 1_555 1_555
H68_11 C56_11 1_555 1_555
H69_11 C56_11 1_555 1_555
H70_11 C60_11 1_555 1_555
H71_11 C60_11 1_555 1_555
H72_11 C60_11 1_555 1_555
H109_11 C91_11 1_555 1_555
H110_11 C91_11 1_555 1_555
H111_11 C91_11 1_555 1_555
H112_11 C95_11 1_555 1_555
H113_11 C95_11 1_555 1_555
H114_11 C95_11 1_555 1_555
H115_11 C96_11 1_555 1_555
H116_11 C96_11 1_555 1_555
H117_11 C96_11 1_555 1_555
H118_11 C100_11 1_555 1_555
H119_11 C100_11 1_555 1_555
H120_11 C100_11 1_555 1_555
H121_11 C101_11 1_555 1_555
H122_11 C101_11 1_555 1_555
H123_11 C101_11 1_555 1_555
H124_11 C105_11 1_555 1_555
H125_11 C105_11 1_555 1_555
H126_11 C105_11 1_555 1_555
H145_11 C121_11 1_555 1_555
H146_11 C121_11 1_555 1_555
H147_11 C121_11 1_555 1_555
H148_11 C125_11 1_555 1_555
H149_11 C125_11 1_555 1_555
H150_11 C125_11 1_555 1_555
N65_3 Ag26_3 1_555 1_555
N67_7 Ag25_7 1_555 1_555
Ag31_7 N39_7 1_555 1_555
Ag32_7 N40_7 1_555 1_555
N3_11 Ag2_11 1_555 1_555
N5_11 Ag3_11 1_555 1_555
N6_11 Ag1_11 1_555 1_555
N24_11 Ag10_11 1_555 1_555
N42_11 Ag19_11 1_555 1_555
C47_11 C48_11 1_555 1_555
C57_11 C58_11 1_555 1_555
C97_11 C98_11 1_555 1_555
C102_11 C103_11 1_555 1_555
C122_11 C123_11 1_555 1_555
N21_11 N22_11 1_555 1_555
N22_11 C54_11 1_555 1_555
N25_11 N26_11 1_555 1_555
N26_11 C64_11 1_555 1_555
N27_11 N28_11 1_555 1_555
N28_11 C69_11 1_555 1_555
N29_11 N30_11 1_555 1_555
N30_11 C74_11 1_555 1_555
N65_3 N52_11 1_555 1_555
N52_11 C129_11 1_555 1_555
N59_11 N70_6 1_555 1_555
N70_6 C149_11 1_555 1_555
C51_11 C52_11 1_555 1_555
C52_11 N21_11 1_555 1_555
C53_11 C52_11 1_555 1_555
C54_11 C53_11 1_555 1_555
C55_11 C54_11 1_555 1_555
C61_11 C62_11 1_555 1_555
C62_11 N25_11 1_555 1_555
C63_11 C53_11 1_555 1_555
C64_11 C63_11 1_555 1_555
C65_11 C64_11 1_555 1_555
C66_11 C67_11 1_555 1_555
C67_11 N27_11 1_555 1_555
C68_11 C67_11 1_555 1_555
C69_11 C68_11 1_555 1_555
C70_11 C69_11 1_555 1_555
C71_11 C72_11 1_555 1_555
C72_11 N29_11 1_555 1_555
C73_11 C72_11 1_555 1_555
C74_11 C73_11 1_555 1_555
C75_11 C74_11 1_555 1_555
C126_11 C127_11 1_555 1_555
C127_11 N65_3 1_555 1_555
C128_11 C73_11 1_555 1_555
C129_11 C128_11 1_555 1_555
C130_11 C129_11 1_555 1_555
C146_11 C147_11 1_555 1_555
C147_11 N59_11 1_555 1_555
C148_11 C68_11 1_555 1_555
C149_11 C148_11 1_555 1_555
Ag12_11 N22_11 1_555 1_555
Ag13_11 N25_11 1_555 1_555
Ag14_11 N26_11 1_555 1_555
Ag15_11 N28_11 1_555 1_555
Ag27_7 N52_11 1_555 1_555
H61_11 C51_11 1_555 1_555
H62_11 C51_11 1_555 1_555
H63_11 C51_11 1_555 1_555
H64_11 C55_11 1_555 1_555
H65_11 C55_11 1_555 1_555
H66_11 C55_11 1_555 1_555
H73_11 C61_11 1_555 1_555
H74_11 C61_11 1_555 1_555
H75_11 C61_11 1_555 1_555
H76_11 C65_11 1_555 1_555
H77_11 C65_11 1_555 1_555
H78_11 C65_11 1_555 1_555
H79_11 C66_11 1_555 1_555
H80_11 C66_11 1_555 1_555
H82_11 C70_11 1_555 1_555
H83_11 C70_11 1_555 1_555
H84_11 C70_11 1_555 1_555
H85_11 C71_11 1_555 1_555
H86_11 C71_11 1_555 1_555
H87_11 C71_11 1_555 1_555
H88_11 C75_11 1_555 1_555
H89_11 C75_11 1_555 1_555
H90_11 C75_11 1_555 1_555
H151_11 C126_11 1_555 1_555
H152_11 C126_11 1_555 1_555
H153_11 C126_11 1_555 1_555
H154_11 C130_11 1_555 1_555
H155_11 C130_11 1_555 1_555
H156_11 C130_11 1_555 1_555
H175_11 C146_11 1_555 1_555
H176_11 C146_11 1_555 1_555
H177_11 C146_11 1_555 1_555
N66_7 Ag27_7 1_555 1_555
N21_11 Ag11_11 1_555 1_555
N27_11 Ag14_11 1_555 1_555
N29_11 Ag15_11 1_555 1_555
N30_11 Ag13_11 1_555 1_555
C62_11 C63_11 1_555 1_555
C127_11 C128_11 1_555 1_555
C147_11 C148_11 1_555 1_555
N64_6 C119_11 1_555 1_555
C106_11 C107_11 1_555 1_555
C108_11 C107_11 1_555 1_555
C116_11 C117_11 1_555 1_555
C117_11 N63_6 1_555 1_555
C118_11 C108_11 1_555 1_555
C119_11 C118_11 1_555 1_555
C120_11 C119_11 1_555 1_555
H127_11 C106_11 1_555 1_555
H128_11 C106_11 1_555 1_555
H129_11 C106_11 1_555 1_555
H139_11 C116_11 1_555 1_555
H140_11 C116_11 1_555 1_555
H141_11 C116_11 1_555 1_555
H142_11 C120_11 1_555 1_555
H143_11 C120_11 1_555 1_555
H144_11 C120_11 1_555 1_555
C117_11 C118_11 1_555 1_555
N7_11 N8_11 1_555 1_555
N8_11 C19_11 1_555 1_555
N9_11 N10_11 1_555 1_555
N10_11 C24_11 1_555 1_555
N11_11 N12_11 1_555 1_555
N12_11 C29_11 1_555 1_555
N13_11 N14_11 1_555 1_555
N14_11 C34_11 1_555 1_555
N15_11 N16_11 1_555 1_555
N16_11 C39_11 1_555 1_555
N17_11 N18_11 1_555 1_555
N18_11 C44_11 1_555 1_555
N33_11 N34_11 1_555 1_555
N34_11 C84_11 1_555 1_555
N43_11 N44_11 1_555 1_555
N44_11 C109_11 1_555 1_555
N45_11 N46_11 1_555 1_555
N46_11 C114_11 1_555 1_555
N55_11 N56_11 1_555 1_555
N56_11 C139_11 1_555 1_555
C16_11 C17_11 1_555 1_555
C17_11 N7_11 1_555 1_555
C18_11 C17_11 1_555 1_555
C19_11 C18_11 1_555 1_555
C20_11 C19_11 1_555 1_555
C21_11 C22_11 1_555 1_555
C22_11 N9_11 1_555 1_555
C23_11 C22_11 1_555 1_555
C24_11 C23_11 1_555 1_555
C25_11 C24_11 1_555 1_555
C26_11 C27_11 1_555 1_555
C27_11 N11_11 1_555 1_555
C28_11 C27_11 1_555 1_555
C29_11 C28_11 1_555 1_555
C30_11 C29_11 1_555 1_555
C31_11 C32_11 1_555 1_555
C32_11 N13_11 1_555 1_555
C33_11 C23_11 1_555 1_555
C34_11 C33_11 1_555 1_555
C35_11 C34_11 1_555 1_555
C40_11 C39_11 1_555 1_555
C41_11 C42_11 1_555 1_555
C42_11 N17_11 1_555 1_555
C43_11 C42_11 1_555 1_555
C44_11 C43_11 1_555 1_555
C45_11 C44_11 1_555 1_555
C81_11 C82_11 1_555 1_555
C82_11 N33_11 1_555 1_555
C83_11 C43_11 1_555 1_555
C84_11 C83_11 1_555 1_555
C85_11 C84_11 1_555 1_555
C110_11 C109_11 1_555 1_555
C111_11 C112_11 1_555 1_555
C112_11 N45_11 1_555 1_555
C113_11 C18_11 1_555 1_555
C114_11 C113_11 1_555 1_555
C115_11 C114_11 1_555 1_555
C136_11 C137_11 1_555 1_555
C137_11 N55_11 1_555 1_555
C138_11 C28_11 1_555 1_555
C139_11 C138_11 1_555 1_555
C140_11 C139_11 1_555 1_555
Ag4_11 N7_11 1_555 1_555
Ag5_11 N8_11 1_555 1_555
Ag6_11 N10_11 1_555 1_555
Ag7_11 N13_11 1_555 1_555
Ag8_11 N14_11 1_555 1_555
Ag9_11 N16_11 1_555 1_555
Ag18_11 N34_11 1_555 1_555
Ag22_7 N43_11 1_555 1_555
Ag23_11 N44_11 1_555 1_555
Ag24_7 N46_11 1_555 1_555
Ag28_7 N55_11 1_555 1_555
Ag29_3 N56_11 1_555 1_555
H19_11 C16_11 1_555 1_555
H20_11 C16_11 1_555 1_555
H21_11 C16_11 1_555 1_555
H22_11 C20_11 1_555 1_555
H23_11 C20_11 1_555 1_555
H24_11 C20_11 1_555 1_555
H25_11 C21_11 1_555 1_555
H26_11 C21_11 1_555 1_555
H27_11 C21_11 1_555 1_555
H28_11 C25_11 1_555 1_555
H29_11 C25_11 1_555 1_555
H30_11 C25_11 1_555 1_555
H31_11 C26_11 1_555 1_555
H32_11 C26_11 1_555 1_555
H33_11 C26_11 1_555 1_555
H34_11 C30_11 1_555 1_555
H35_11 C30_11 1_555 1_555
H36_11 C30_11 1_555 1_555
H37_11 C31_11 1_555 1_555
H38_11 C31_11 1_555 1_555
H39_11 C31_11 1_555 1_555
H40_11 C35_11 1_555 1_555
H41_11 C35_11 1_555 1_555
H42_11 C35_11 1_555 1_555
H46_11 C40_11 1_555 1_555
H48_11 C40_11 1_555 1_555
H49_11 C41_11 1_555 1_555
H50_11 C41_11 1_555 1_555
H51_11 C41_11 1_555 1_555
H52_11 C45_11 1_555 1_555
H53_11 C45_11 1_555 1_555
H54_11 C45_11 1_555 1_555
H97_11 C81_11 1_555 1_555
H98_11 C81_11 1_555 1_555
H99_11 C81_11 1_555 1_555
H100_11 C85_11 1_555 1_555
H101_11 C85_11 1_555 1_555
H102_11 C85_11 1_555 1_555
H130_11 C110_11 1_555 1_555
H131_11 C110_11 1_555 1_555
H132_11 C110_11 1_555 1_555
H133_11 C111_11 1_555 1_555
H134_11 C111_11 1_555 1_555
H135_11 C111_11 1_555 1_555
H136_11 C115_11 1_555 1_555
H137_11 C115_11 1_555 1_555
H138_11 C115_11 1_555 1_555
H163_11 C136_11 1_555 1_555
H164_11 C136_11 1_555 1_555
H165_11 C136_11 1_555 1_555
H166_11 C140_11 1_555 1_555
H167_11 C140_11 1_555 1_555
H168_11 C140_11 1_555 1_555
N63_7 Ag24_7 1_555 1_555
N64_7 Ag22_7 1_555 1_555
N68_3 Ag29_3 1_555 1_555
N70_7 Ag28_7 1_555 1_555
N9_11 Ag5_11 1_555 1_555
N11_11 Ag6_11 1_555 1_555
N12_11 Ag4_11 1_555 1_555
N15_11 Ag8_11 1_555 1_555
N17_11 Ag9_11 1_555 1_555
N18_11 Ag7_11 1_555 1_555
N33_11 Ag17_11 1_555 1_555
N45_11 Ag23_11 1_555 1_555
C32_11 C33_11 1_555 1_555
C82_11 C83_11 1_555 1_555
C112_11 C113_11 1_555 1_555
C137_11 C138_11 1_555 1_555
N63_7 N64_7 1_555 1_555
N31_11 N32_11 1_555 1_555
N32_11 C79_11 1_555 1_555
N35_11 N36_11 1_555 1_555
N36_11 C89_11 1_555 1_555
N66_6 N67_6 1_555 1_555
N67_6 C134_11 1_555 1_555
N68_3 N58_7 1_555 1_555
N58_7 C144_11 1_555 1_555
C76_11 C77_11 1_555 1_555
C77_11 N31_11 1_555 1_555
C78_11 C77_11 1_555 1_555
C79_11 C78_11 1_555 1_555
C80_11 C79_11 1_555 1_555
C86_11 C87_11 1_555 1_555
C87_11 N35_11 1_555 1_555
C88_11 C87_11 1_555 1_555
C89_11 C88_11 1_555 1_555
C90_11 C89_11 1_555 1_555
C131_11 C132_11 1_555 1_555
C132_11 N66_6 1_555 1_555
C133_11 C88_11 1_555 1_555
C134_11 C133_11 1_555 1_555
C135_11 C134_11 1_555 1_555
C141_11 C142_11 1_555 1_555
C142_11 N68_3 1_555 1_555
C143_11 C78_11 1_555 1_555
C144_11 C143_11 1_555 1_555
C145_11 C144_11 1_555 1_555
Ag16_11 N31_11 1_555 1_555
H91_11 C76_11 1_555 1_555
H92_11 C76_11 1_555 1_555
H93_11 C76_11 1_555 1_555
H95_11 C80_11 1_555 1_555
H96_11 C80_11 1_555 1_555
H104_11 C86_11 1_555 1_555
H105_11 C86_11 1_555 1_555
H106_11 C90_11 1_555 1_555
H107_11 C90_11 1_555 1_555
H108_11 C90_11 1_555 1_555
H157_11 C131_11 1_555 1_555
H158_11 C131_11 1_555 1_555
H159_11 C131_11 1_555 1_555
H160_11 C135_11 1_555 1_555
H161_11 C135_11 1_555 1_555
H162_11 C135_11 1_555 1_555
H169_11 C141_11 1_555 1_555
H170_11 C141_11 1_555 1_555
H171_11 C141_11 1_555 1_555
H172_11 C145_11 1_555 1_555
H173_11 C145_11 1_555 1_555
H174_11 C145_11 1_555 1_555
H178_11 C150_11 1_555 1_555
H180_11 C150_11 1_555 1_555
Ag40_7 N58_7 1_555 1_555
N36_11 Ag16_11 1_555 1_555
C132_11 C133_11 1_555 1_555
C142_11 C143_11 1_555 1_555
C145_12 C144_12 1_555 1_555
H172_12 C145_12 1_555 1_555
H173_12 C145_12 1_555 1_555
H174_12 C145_12 1_555 1_555
N3_12 N4_12 1_555 1_555
N4_12 C9_12 1_555 1_555
N5_12 N6_12 1_555 1_555
N6_12 C14_12 1_555 1_555
N7_12 N8_12 1_555 1_555
N8_12 C19_12 1_555 1_555
N9_12 N10_12 1_555 1_555
N10_12 C24_12 1_555 1_555
N11_12 N12_12 1_555 1_555
N12_12 C29_12 1_555 1_555
N13_12 N14_12 1_555 1_555
N14_12 C34_12 1_555 1_555
N37_12 N38_12 1_555 1_555
N38_12 C94_12 1_555 1_555
N62_5 C99_12 1_555 1_555
N41_12 N42_12 1_555 1_555
N42_12 C104_12 1_555 1_555
N43_12 N44_12 1_555 1_555
N44_12 C109_12 1_555 1_555
N45_12 N46_12 1_555 1_555
N46_12 C114_12 1_555 1_555
N64_7 C119_12 1_555 1_555
N49_12 N50_12 1_555 1_555
N50_12 C124_12 1_555 1_555
N55_12 N56_12 1_555 1_555
N56_12 C139_12 1_555 1_555
C6_12 C7_12 1_555 1_555
C7_12 N3_12 1_555 1_555
C8_12 C7_12 1_555 1_555
C9_12 C8_12 1_555 1_555
C10_12 C9_12 1_555 1_555
C11_12 C12_12 1_555 1_555
C12_12 N5_12 1_555 1_555
C13_12 C12_12 1_555 1_555
C14_12 C13_12 1_555 1_555
C15_12 C14_12 1_555 1_555
C16_12 C17_12 1_555 1_555
C17_12 N7_12 1_555 1_555
C18_12 C17_12 1_555 1_555
C19_12 C18_12 1_555 1_555
C20_12 C19_12 1_555 1_555
C21_12 C22_12 1_555 1_555
C22_12 N9_12 1_555 1_555
C23_12 C22_12 1_555 1_555
C24_12 C23_12 1_555 1_555
C25_12 C24_12 1_555 1_555
C26_12 C27_12 1_555 1_555
C27_12 N11_12 1_555 1_555
C28_12 C27_12 1_555 1_555
C29_12 C28_12 1_555 1_555
C30_12 C29_12 1_555 1_555
C31_12 C32_12 1_555 1_555
C32_12 N13_12 1_555 1_555
C33_12 C23_12 1_555 1_555
C34_12 C33_12 1_555 1_555
C35_12 C34_12 1_555 1_555
C91_12 C92_12 1_555 1_555
C92_12 N37_12 1_555 1_555
C93_12 C92_12 1_555 1_555
C94_12 C93_12 1_555 1_555
C95_12 C94_12 1_555 1_555
C96_12 C97_12 1_555 1_555
C97_12 N61_5 1_555 1_555
C98_12 C93_12 1_555 1_555
C99_12 C98_12 1_555 1_555
C100_12 C99_12 1_555 1_555
C101_12 C102_12 1_555 1_555
C102_12 N41_12 1_555 1_555
C103_12 C13_12 1_555 1_555
C104_12 C103_12 1_555 1_555
C105_12 C104_12 1_555 1_555
C106_12 C107_12 1_555 1_555
C107_12 N43_12 1_555 1_555
C108_12 C107_12 1_555 1_555
C109_12 C108_12 1_555 1_555
C110_12 C109_12 1_555 1_555
C111_12 C112_12 1_555 1_555
C112_12 N45_12 1_555 1_555
C113_12 C18_12 1_555 1_555
C114_12 C113_12 1_555 1_555
C115_12 C114_12 1_555 1_555
C116_12 C117_12 1_555 1_555
C117_12 N63_7 1_555 1_555
C118_12 C108_12 1_555 1_555
C119_12 C118_12 1_555 1_555
C120_12 C119_12 1_555 1_555
C121_12 C122_12 1_555 1_555
C122_12 N49_12 1_555 1_555
C123_12 C8_12 1_555 1_555
C124_12 C123_12 1_555 1_555
C125_12 C124_12 1_555 1_555
C136_12 C137_12 1_555 1_555
C137_12 N55_12 1_555 1_555
C138_12 C28_12 1_555 1_555
C139_12 C138_12 1_555 1_555
C140_12 C139_12 1_555 1_555
Ag3_12 N4_12 1_555 1_555
Ag4_12 N7_12 1_555 1_555
Ag5_12 N8_12 1_555 1_555
Ag6_12 N10_12 1_555 1_555
Ag19_12 N37_12 1_555 1_555
Ag31_7 N38_12 1_555 1_555
Ag32_7 N41_12 1_555 1_555
Ag33_5 N43_12 1_555 1_555
Ag23_12 N44_12 1_555 1_555
Ag34_5 N46_12 1_555 1_555
Ag35_5 N49_12 1_555 1_555
Ag26_4 N50_12 1_555 1_555
Ag38_5 N55_12 1_555 1_555
Ag29_4 N56_12 1_555 1_555
H7_12 C6_12 1_555 1_555
H8_12 C6_12 1_555 1_555
H9_12 C6_12 1_555 1_555
H10_12 C10_12 1_555 1_555
H11_12 C10_12 1_555 1_555
H12_12 C10_12 1_555 1_555
H13_12 C11_12 1_555 1_555
H14_12 C11_12 1_555 1_555
H15_12 C11_12 1_555 1_555
H16_12 C15_12 1_555 1_555
H17_12 C15_12 1_555 1_555
H18_12 C15_12 1_555 1_555
H19_12 C16_12 1_555 1_555
H20_12 C16_12 1_555 1_555
H21_12 C16_12 1_555 1_555
H22_12 C20_12 1_555 1_555
H23_12 C20_12 1_555 1_555
H24_12 C20_12 1_555 1_555
H25_12 C21_12 1_555 1_555
H26_12 C21_12 1_555 1_555
H27_12 C21_12 1_555 1_555
H28_12 C25_12 1_555 1_555
H29_12 C25_12 1_555 1_555
H30_12 C25_12 1_555 1_555
H31_12 C26_12 1_555 1_555
H32_12 C26_12 1_555 1_555
H33_12 C26_12 1_555 1_555
H34_12 C30_12 1_555 1_555
H35_12 C30_12 1_555 1_555
H36_12 C30_12 1_555 1_555
H37_12 C31_12 1_555 1_555
H38_12 C31_12 1_555 1_555
H39_12 C31_12 1_555 1_555
H40_12 C35_12 1_555 1_555
H41_12 C35_12 1_555 1_555
H42_12 C35_12 1_555 1_555
H109_12 C91_12 1_555 1_555
H110_12 C91_12 1_555 1_555
H111_12 C91_12 1_555 1_555
H112_12 C95_12 1_555 1_555
H113_12 C95_12 1_555 1_555
H114_12 C95_12 1_555 1_555
H115_12 C96_12 1_555 1_555
H116_12 C96_12 1_555 1_555
H117_12 C96_12 1_555 1_555
H118_12 C100_12 1_555 1_555
H119_12 C100_12 1_555 1_555
H120_12 C100_12 1_555 1_555
H121_12 C101_12 1_555 1_555
H122_12 C101_12 1_555 1_555
H123_12 C101_12 1_555 1_555
H124_12 C105_12 1_555 1_555
H125_12 C105_12 1_555 1_555
H126_12 C105_12 1_555 1_555
H127_12 C106_12 1_555 1_555
H128_12 C106_12 1_555 1_555
H129_12 C106_12 1_555 1_555
H130_12 C110_12 1_555 1_555
H131_12 C110_12 1_555 1_555
H132_12 C110_12 1_555 1_555
H133_12 C111_12 1_555 1_555
H134_12 C111_12 1_555 1_555
H135_12 C111_12 1_555 1_555
H136_12 C115_12 1_555 1_555
H137_12 C115_12 1_555 1_555
H138_12 C115_12 1_555 1_555
H139_12 C116_12 1_555 1_555
H140_12 C116_12 1_555 1_555
H141_12 C116_12 1_555 1_555
H142_12 C120_12 1_555 1_555
H143_12 C120_12 1_555 1_555
H144_12 C120_12 1_555 1_555
H145_12 C121_12 1_555 1_555
H146_12 C121_12 1_555 1_555
H147_12 C121_12 1_555 1_555
H148_12 C125_12 1_555 1_555
H149_12 C125_12 1_555 1_555
H150_12 C125_12 1_555 1_555
H163_12 C136_12 1_555 1_555
H164_12 C136_12 1_555 1_555
H165_12 C136_12 1_555 1_555
H166_12 C140_12 1_555 1_555
H167_12 C140_12 1_555 1_555
H168_12 C140_12 1_555 1_555
N65_4 Ag26_4 1_555 1_555
N68_4 Ag29_4 1_555 1_555
N5_12 Ag3_12 1_555 1_555
N9_12 Ag5_12 1_555 1_555
N11_12 Ag6_12 1_555 1_555
N12_12 Ag4_12 1_555 1_555
N42_12 Ag19_12 1_555 1_555
N45_12 Ag23_12 1_555 1_555
C32_12 C33_12 1_555 1_555
C97_12 C98_12 1_555 1_555
C102_12 C103_12 1_555 1_555
C112_12 C113_12 1_555 1_555
C117_12 C118_12 1_555 1_555
C122_12 C123_12 1_555 1_555
C137_12 C138_12 1_555 1_555
N1_12 N2_12 1_555 1_555
N2_12 C4_12 1_555 1_555
N15_12 N16_12 1_555 1_555
N16_12 C39_12 1_555 1_555
N17_12 N18_12 1_555 1_555
N18_12 C44_12 1_555 1_555
N19_12 N20_12 1_555 1_555
N20_12 C49_12 1_555 1_555
N21_12 N22_12 1_555 1_555
N22_12 C54_12 1_555 1_555
N23_12 N24_12 1_555 1_555
N24_12 C59_12 1_555 1_555
N25_12 N26_12 1_555 1_555
N26_12 C64_12 1_555 1_555
N27_12 N28_12 1_555 1_555
N28_12 C69_12 1_555 1_555
N29_12 N30_12 1_555 1_555
N30_12 C74_12 1_555 1_555
N31_12 N32_12 1_555 1_555
N32_12 C79_12 1_555 1_555
N33_12 N34_12 1_555 1_555
N34_12 C84_12 1_555 1_555
N35_12 N36_12 1_555 1_555
N36_12 C89_12 1_555 1_555
N65_4 N52_12 1_555 1_555
N52_12 C129_12 1_555 1_555
N66_7 N67_7 1_555 1_555
N67_7 C134_12 1_555 1_555
N68_4 N69_5 1_555 1_555
N59_12 N70_7 1_555 1_555
N70_7 C149_12 1_555 1_555
C1_12 C2_12 1_555 1_555
C2_12 N1_12 1_555 1_555
C3_12 C2_12 1_555 1_555
C4_12 C3_12 1_555 1_555
C5_12 C4_12 1_555 1_555
C36_12 C37_12 1_555 1_555
C37_12 N15_12 1_555 1_555
C38_12 C37_12 1_555 1_555
C39_12 C38_12 1_555 1_555
C40_12 C39_12 1_555 1_555
C41_12 C42_12 1_555 1_555
C42_12 N17_12 1_555 1_555
C43_12 C42_12 1_555 1_555
C44_12 C43_12 1_555 1_555
C45_12 C44_12 1_555 1_555
C46_12 C47_12 1_555 1_555
C47_12 N19_12 1_555 1_555
C48_12 C38_12 1_555 1_555
C49_12 C48_12 1_555 1_555
C50_12 C49_12 1_555 1_555
C51_12 C52_12 1_555 1_555
C52_12 N21_12 1_555 1_555
C53_12 C52_12 1_555 1_555
C54_12 C53_12 1_555 1_555
C55_12 C54_12 1_555 1_555
C56_12 C57_12 1_555 1_555
C57_12 N23_12 1_555 1_555
C58_12 C3_12 1_555 1_555
C59_12 C58_12 1_555 1_555
C60_12 C59_12 1_555 1_555
C61_12 C62_12 1_555 1_555
C62_12 N25_12 1_555 1_555
C63_12 C53_12 1_555 1_555
C64_12 C63_12 1_555 1_555
C65_12 C64_12 1_555 1_555
C66_12 C67_12 1_555 1_555
C67_12 N27_12 1_555 1_555
C68_12 C67_12 1_555 1_555
C69_12 C68_12 1_555 1_555
C70_12 C69_12 1_555 1_555
C71_12 C72_12 1_555 1_555
C72_12 N29_12 1_555 1_555
C73_12 C72_12 1_555 1_555
C74_12 C73_12 1_555 1_555
C75_12 C74_12 1_555 1_555
C76_12 C77_12 1_555 1_555
C77_12 N31_12 1_555 1_555
C78_12 C77_12 1_555 1_555
C79_12 C78_12 1_555 1_555
C80_12 C79_12 1_555 1_555
C81_12 C82_12 1_555 1_555
C82_12 N33_12 1_555 1_555
C83_12 C43_12 1_555 1_555
C84_12 C83_12 1_555 1_555
C85_12 C84_12 1_555 1_555
C86_12 C87_12 1_555 1_555
C87_12 N35_12 1_555 1_555
C88_12 C87_12 1_555 1_555
C89_12 C88_12 1_555 1_555
C90_12 C89_12 1_555 1_555
C126_12 C127_12 1_555 1_555
C127_12 N65_4 1_555 1_555
C128_12 C73_12 1_555 1_555
C129_12 C128_12 1_555 1_555
C130_12 C129_12 1_555 1_555
C131_12 C132_12 1_555 1_555
C132_12 N66_7 1_555 1_555
C133_12 C88_12 1_555 1_555
C134_12 C133_12 1_555 1_555
C135_12 C134_12 1_555 1_555
C141_12 C142_12 1_555 1_555
C142_12 N68_4 1_555 1_555
C143_12 C78_12 1_555 1_555
C146_12 C147_12 1_555 1_555
C147_12 N59_12 1_555 1_555
C148_12 C68_12 1_555 1_555
C149_12 C148_12 1_555 1_555
C150_12 C149_12 1_555 1_555
Ag1_12 N1_12 1_555 1_555
Ag2_12 N2_12 1_555 1_555
Ag9_12 N16_12 1_555 1_555
Ag10_12 N19_12 1_555 1_555
Ag11_12 N20_12 1_555 1_555
Ag12_12 N22_12 1_555 1_555
Ag13_12 N25_12 1_555 1_555
Ag14_12 N26_12 1_555 1_555
Ag15_12 N28_12 1_555 1_555
Ag16_12 N31_12 1_555 1_555
Ag17_12 N32_12 1_555 1_555
Ag18_12 N34_12 1_555 1_555
Ag37_5 N52_12 1_555 1_555
Ag40_7 N59_12 1_555 1_555
H1_12 C1_12 1_555 1_555
H2_12 C1_12 1_555 1_555
H3_12 C1_12 1_555 1_555
H4_12 C5_12 1_555 1_555
H5_12 C5_12 1_555 1_555
H6_12 C5_12 1_555 1_555
H43_12 C36_12 1_555 1_555
H44_12 C36_12 1_555 1_555
H45_12 C36_12 1_555 1_555
H46_12 C40_12 1_555 1_555
H47_12 C40_12 1_555 1_555
H48_12 C40_12 1_555 1_555
H49_12 C41_12 1_555 1_555
H50_12 C41_12 1_555 1_555
H51_12 C41_12 1_555 1_555
H52_12 C45_12 1_555 1_555
H53_12 C45_12 1_555 1_555
H54_12 C45_12 1_555 1_555
H55_12 C46_12 1_555 1_555
H56_12 C46_12 1_555 1_555
H57_12 C46_12 1_555 1_555
H58_12 C50_12 1_555 1_555
H59_12 C50_12 1_555 1_555
H60_12 C50_12 1_555 1_555
H61_12 C51_12 1_555 1_555
H62_12 C51_12 1_555 1_555
H63_12 C51_12 1_555 1_555
H64_12 C55_12 1_555 1_555
H65_12 C55_12 1_555 1_555
H66_12 C55_12 1_555 1_555
H67_12 C56_12 1_555 1_555
H68_12 C56_12 1_555 1_555
H69_12 C56_12 1_555 1_555
H70_12 C60_12 1_555 1_555
H71_12 C60_12 1_555 1_555
H72_12 C60_12 1_555 1_555
H73_12 C61_12 1_555 1_555
H74_12 C61_12 1_555 1_555
H75_12 C61_12 1_555 1_555
H76_12 C65_12 1_555 1_555
H77_12 C65_12 1_555 1_555
H78_12 C65_12 1_555 1_555
H79_12 C66_12 1_555 1_555
H80_12 C66_12 1_555 1_555
H81_12 C66_12 1_555 1_555
H82_12 C70_12 1_555 1_555
H83_12 C70_12 1_555 1_555
H84_12 C70_12 1_555 1_555
H85_12 C71_12 1_555 1_555
H86_12 C71_12 1_555 1_555
H87_12 C71_12 1_555 1_555
H88_12 C75_12 1_555 1_555
H89_12 C75_12 1_555 1_555
H90_12 C75_12 1_555 1_555
H91_12 C76_12 1_555 1_555
H93_12 C76_12 1_555 1_555
H94_12 C80_12 1_555 1_555
H95_12 C80_12 1_555 1_555
H96_12 C80_12 1_555 1_555
H97_12 C81_12 1_555 1_555
H98_12 C81_12 1_555 1_555
H99_12 C81_12 1_555 1_555
H100_12 C85_12 1_555 1_555
H101_12 C85_12 1_555 1_555
H102_12 C85_12 1_555 1_555
H103_12 C86_12 1_555 1_555
H104_12 C86_12 1_555 1_555
H105_12 C86_12 1_555 1_555
H106_12 C90_12 1_555 1_555
H107_12 C90_12 1_555 1_555
H108_12 C90_12 1_555 1_555
H151_12 C126_12 1_555 1_555
H152_12 C126_12 1_555 1_555
H153_12 C126_12 1_555 1_555
H154_12 C130_12 1_555 1_555
H155_12 C130_12 1_555 1_555
H156_12 C130_12 1_555 1_555
H157_12 C131_12 1_555 1_555
H158_12 C131_12 1_555 1_555
H159_12 C131_12 1_555 1_555
H160_12 C135_12 1_555 1_555
H161_12 C135_12 1_555 1_555
H162_12 C135_12 1_555 1_555
H169_12 C141_12 1_555 1_555
H170_12 C141_12 1_555 1_555
H171_12 C141_12 1_555 1_555
H175_12 C146_12 1_555 1_555
H176_12 C146_12 1_555 1_555
H177_12 C146_12 1_555 1_555
H178_12 C150_12 1_555 1_555
H179_12 C150_12 1_555 1_555
H180_12 C150_12 1_555 1_555
N15_12 Ag8_12 1_555 1_555
N17_12 Ag9_12 1_555 1_555
N18_12 Ag7_12 1_555 1_555
N21_12 Ag11_12 1_555 1_555
N23_12 Ag12_12 1_555 1_555
N24_12 Ag10_12 1_555 1_555
N27_12 Ag14_12 1_555 1_555
N29_12 Ag15_12 1_555 1_555
N30_12 Ag13_12 1_555 1_555
N33_12 Ag17_12 1_555 1_555
N35_12 Ag18_12 1_555 1_555
N36_12 Ag16_12 1_555 1_555
C47_12 C48_12 1_555 1_555
C57_12 C58_12 1_555 1_555
C62_12 C63_12 1_555 1_555
C82_12 C83_12 1_555 1_555
C127_12 C128_12 1_555 1_555
C132_12 C133_12 1_555 1_555
C142_12 C143_12 1_555 1_555
C147_12 C148_12 1_555 1_555
N53_6 N54_6 1_555 1_555
C131_13 C132_13 1_555 1_555
C132_13 N53_6 1_555 1_555
H157_13 C131_13 1_555 1_555
H158_13 C131_13 1_555 1_555
H159_13 C131_13 1_555 1_555
Ag35_6 N54_6 1_555 1_555
Ag37_6 N53_6 1_555 1_555
N7_13 N8_13 1_555 1_555
N8_13 C19_13 1_555 1_555
N9_13 N10_13 1_555 1_555
N10_13 C24_13 1_555 1_555
N11_13 N12_13 1_555 1_555
N12_13 C29_13 1_555 1_555
N13_13 N14_13 1_555 1_555
N14_13 C34_13 1_555 1_555
N15_13 N16_13 1_555 1_555
N16_13 C39_13 1_555 1_555
N17_13 N18_13 1_555 1_555
N18_13 C44_13 1_555 1_555
N33_13 N34_13 1_555 1_555
N34_13 C84_13 1_555 1_555
N43_13 N44_13 1_555 1_555
N44_13 C109_13 1_555 1_555
N45_13 N46_13 1_555 1_555
N46_13 C114_13 1_555 1_555
N47_6 N48_6 1_555 1_555
N48_6 C119_13 1_555 1_555
N55_13 N56_13 1_555 1_555
N56_13 C139_13 1_555 1_555
C16_13 C17_13 1_555 1_555
C17_13 N7_13 1_555 1_555
C18_13 C17_13 1_555 1_555
C19_13 C18_13 1_555 1_555
C20_13 C19_13 1_555 1_555
C21_13 C22_13 1_555 1_555
C22_13 N9_13 1_555 1_555
C23_13 C22_13 1_555 1_555
C24_13 C23_13 1_555 1_555
C25_13 C24_13 1_555 1_555
C26_13 C27_13 1_555 1_555
C27_13 N11_13 1_555 1_555
C28_13 C27_13 1_555 1_555
C29_13 C28_13 1_555 1_555
C30_13 C29_13 1_555 1_555
C31_13 C32_13 1_555 1_555
C32_13 N13_13 1_555 1_555
C33_13 C23_13 1_555 1_555
C34_13 C33_13 1_555 1_555
C35_13 C34_13 1_555 1_555
C40_13 C39_13 1_555 1_555
C41_13 C42_13 1_555 1_555
C42_13 N17_13 1_555 1_555
C43_13 C42_13 1_555 1_555
C44_13 C43_13 1_555 1_555
C45_13 C44_13 1_555 1_555
C81_13 C82_13 1_555 1_555
C82_13 N33_13 1_555 1_555
C83_13 C43_13 1_555 1_555
C84_13 C83_13 1_555 1_555
C85_13 C84_13 1_555 1_555
C106_13 C107_13 1_555 1_555
C107_13 N43_13 1_555 1_555
C108_13 C107_13 1_555 1_555
C109_13 C108_13 1_555 1_555
C110_13 C109_13 1_555 1_555
C111_13 C112_13 1_555 1_555
C112_13 N45_13 1_555 1_555
C113_13 C18_13 1_555 1_555
C114_13 C113_13 1_555 1_555
C115_13 C114_13 1_555 1_555
C116_13 C117_13 1_555 1_555
C117_13 N47_6 1_555 1_555
C118_13 C108_13 1_555 1_555
C119_13 C118_13 1_555 1_555
C120_13 C119_13 1_555 1_555
C136_13 C137_13 1_555 1_555
C137_13 N55_13 1_555 1_555
C138_13 C28_13 1_555 1_555
C139_13 C138_13 1_555 1_555
C140_13 C139_13 1_555 1_555
Ag4_13 N7_13 1_555 1_555
Ag5_13 N8_13 1_555 1_555
Ag6_13 N10_13 1_555 1_555
Ag7_13 N13_13 1_555 1_555
Ag8_13 N14_13 1_555 1_555
Ag9_13 N16_13 1_555 1_555
Ag18_13 N34_13 1_555 1_555
Ag22_8 N43_13 1_555 1_555
Ag23_13 N44_13 1_555 1_555
Ag24_8 N46_13 1_555 1_555
Ag28_8 N55_13 1_555 1_555
Ag29_5 N56_13 1_555 1_555
H19_13 C16_13 1_555 1_555
H20_13 C16_13 1_555 1_555
H21_13 C16_13 1_555 1_555
H22_13 C20_13 1_555 1_555
H23_13 C20_13 1_555 1_555
H24_13 C20_13 1_555 1_555
H25_13 C21_13 1_555 1_555
H26_13 C21_13 1_555 1_555
H27_13 C21_13 1_555 1_555
H28_13 C25_13 1_555 1_555
H29_13 C25_13 1_555 1_555
H30_13 C25_13 1_555 1_555
H31_13 C26_13 1_555 1_555
H32_13 C26_13 1_555 1_555
H33_13 C26_13 1_555 1_555
H34_13 C30_13 1_555 1_555
H35_13 C30_13 1_555 1_555
H36_13 C30_13 1_555 1_555
H37_13 C31_13 1_555 1_555
H38_13 C31_13 1_555 1_555
H39_13 C31_13 1_555 1_555
H40_13 C35_13 1_555 1_555
H41_13 C35_13 1_555 1_555
H42_13 C35_13 1_555 1_555
H46_13 C40_13 1_555 1_555
H48_13 C40_13 1_555 1_555
H49_13 C41_13 1_555 1_555
H50_13 C41_13 1_555 1_555
H51_13 C41_13 1_555 1_555
H52_13 C45_13 1_555 1_555
H53_13 C45_13 1_555 1_555
H54_13 C45_13 1_555 1_555
H97_13 C81_13 1_555 1_555
H98_13 C81_13 1_555 1_555
H99_13 C81_13 1_555 1_555
H100_13 C85_13 1_555 1_555
H101_13 C85_13 1_555 1_555
H102_13 C85_13 1_555 1_555
H127_13 C106_13 1_555 1_555
H128_13 C106_13 1_555 1_555
H129_13 C106_13 1_555 1_555
H130_13 C110_13 1_555 1_555
H131_13 C110_13 1_555 1_555
H132_13 C110_13 1_555 1_555
H133_13 C111_13 1_555 1_555
H134_13 C111_13 1_555 1_555
H135_13 C111_13 1_555 1_555
H136_13 C115_13 1_555 1_555
H137_13 C115_13 1_555 1_555
H138_13 C115_13 1_555 1_555
H139_13 C116_13 1_555 1_555
H140_13 C116_13 1_555 1_555
H141_13 C116_13 1_555 1_555
H142_13 C120_13 1_555 1_555
H143_13 C120_13 1_555 1_555
H144_13 C120_13 1_555 1_555
H163_13 C136_13 1_555 1_555
H164_13 C136_13 1_555 1_555
H165_13 C136_13 1_555 1_555
H166_13 C140_13 1_555 1_555
H167_13 C140_13 1_555 1_555
H168_13 C140_13 1_555 1_555
N63_8 Ag24_8 1_555 1_555
N64_8 Ag22_8 1_555 1_555
N68_5 Ag29_5 1_555 1_555
N70_8 Ag28_8 1_555 1_555
Ag33_6 N48_6 1_555 1_555
Ag34_6 N47_6 1_555 1_555
N9_13 Ag5_13 1_555 1_555
N11_13 Ag6_13 1_555 1_555
N12_13 Ag4_13 1_555 1_555
N15_13 Ag8_13 1_555 1_555
N17_13 Ag9_13 1_555 1_555
N18_13 Ag7_13 1_555 1_555
N33_13 Ag17_13 1_555 1_555
N45_13 Ag23_13 1_555 1_555
C32_13 C33_13 1_555 1_555
C82_13 C83_13 1_555 1_555
C112_13 C113_13 1_555 1_555
C117_13 C118_13 1_555 1_555
C137_13 C138_13 1_555 1_555
N63_8 N64_8 1_555 1_555
N31_13 N32_13 1_555 1_555
N32_13 C79_13 1_555 1_555
N35_13 N36_13 1_555 1_555
N36_13 C89_13 1_555 1_555
N68_5 N58_8 1_555 1_555
N58_8 C144_13 1_555 1_555
C76_13 C77_13 1_555 1_555
C77_13 N31_13 1_555 1_555
C78_13 C77_13 1_555 1_555
C79_13 C78_13 1_555 1_555
C80_13 C79_13 1_555 1_555
C86_13 C87_13 1_555 1_555
C87_13 N35_13 1_555 1_555
C88_13 C87_13 1_555 1_555
C89_13 C88_13 1_555 1_555
C90_13 C89_13 1_555 1_555
C133_13 C88_13 1_555 1_555
C134_13 C133_13 1_555 1_555
C135_13 C134_13 1_555 1_555
C141_13 C142_13 1_555 1_555
C142_13 N68_5 1_555 1_555
C143_13 C78_13 1_555 1_555
C144_13 C143_13 1_555 1_555
C145_13 C144_13 1_555 1_555
Ag16_13 N31_13 1_555 1_555
H91_13 C76_13 1_555 1_555
H92_13 C76_13 1_555 1_555
H93_13 C76_13 1_555 1_555
H95_13 C80_13 1_555 1_555
H96_13 C80_13 1_555 1_555
H104_13 C86_13 1_555 1_555
H105_13 C86_13 1_555 1_555
H106_13 C90_13 1_555 1_555
H107_13 C90_13 1_555 1_555
H108_13 C90_13 1_555 1_555
H160_13 C135_13 1_555 1_555
H161_13 C135_13 1_555 1_555
H162_13 C135_13 1_555 1_555
H169_13 C141_13 1_555 1_555
H170_13 C141_13 1_555 1_555
H171_13 C141_13 1_555 1_555
H172_13 C145_13 1_555 1_555
H173_13 C145_13 1_555 1_555
H174_13 C145_13 1_555 1_555
H178_13 C150_13 1_555 1_555
H180_13 C150_13 1_555 1_555
Ag40_8 N58_8 1_555 1_555
N36_13 Ag16_13 1_555 1_555
C142_13 C143_13 1_555 1_555
N1_13 N2_13 1_555 1_555
N2_13 C4_13 1_555 1_555
N3_13 N4_13 1_555 1_555
N4_13 C9_13 1_555 1_555
N5_13 N6_13 1_555 1_555
N6_13 C14_13 1_555 1_555
N19_13 N20_13 1_555 1_555
N20_13 C49_13 1_555 1_555
N23_13 N24_13 1_555 1_555
N24_13 C59_13 1_555 1_555
N37_13 N38_13 1_555 1_555
N38_13 C94_13 1_555 1_555
N39_8 N40_8 1_555 1_555
N40_8 C99_13 1_555 1_555
N41_13 N42_13 1_555 1_555
N42_13 C104_13 1_555 1_555
N49_13 N50_13 1_555 1_555
N50_13 C124_13 1_555 1_555
C1_13 C2_13 1_555 1_555
C2_13 N1_13 1_555 1_555
C3_13 C2_13 1_555 1_555
C4_13 C3_13 1_555 1_555
C5_13 C4_13 1_555 1_555
C6_13 C7_13 1_555 1_555
C7_13 N3_13 1_555 1_555
C8_13 C7_13 1_555 1_555
C9_13 C8_13 1_555 1_555
C10_13 C9_13 1_555 1_555
C11_13 C12_13 1_555 1_555
C12_13 N5_13 1_555 1_555
C13_13 C12_13 1_555 1_555
C14_13 C13_13 1_555 1_555
C15_13 C14_13 1_555 1_555
C36_13 C37_13 1_555 1_555
C38_13 C37_13 1_555 1_555
C46_13 C47_13 1_555 1_555
C47_13 N19_13 1_555 1_555
C48_13 C38_13 1_555 1_555
C49_13 C48_13 1_555 1_555
C50_13 C49_13 1_555 1_555
C56_13 C57_13 1_555 1_555
C57_13 N23_13 1_555 1_555
C58_13 C3_13 1_555 1_555
C59_13 C58_13 1_555 1_555
C60_13 C59_13 1_555 1_555
C91_13 C92_13 1_555 1_555
C92_13 N37_13 1_555 1_555
C93_13 C92_13 1_555 1_555
C94_13 C93_13 1_555 1_555
C95_13 C94_13 1_555 1_555
C96_13 C97_13 1_555 1_555
C97_13 N39_8 1_555 1_555
C98_13 C93_13 1_555 1_555
C99_13 C98_13 1_555 1_555
C100_13 C99_13 1_555 1_555
C101_13 C102_13 1_555 1_555
C102_13 N41_13 1_555 1_555
C103_13 C13_13 1_555 1_555
C104_13 C103_13 1_555 1_555
C105_13 C104_13 1_555 1_555
C121_13 C122_13 1_555 1_555
C122_13 N49_13 1_555 1_555
C123_13 C8_13 1_555 1_555
C124_13 C123_13 1_555 1_555
C125_13 C124_13 1_555 1_555
Ag1_13 N1_13 1_555 1_555
Ag2_13 N2_13 1_555 1_555
Ag3_13 N4_13 1_555 1_555
Ag10_13 N19_13 1_555 1_555
Ag19_13 N37_13 1_555 1_555
Ag20_6 N38_13 1_555 1_555
Ag21_6 N41_13 1_555 1_555
Ag25_8 N49_13 1_555 1_555
Ag26_5 N50_13 1_555 1_555
H1_13 C1_13 1_555 1_555
H2_13 C1_13 1_555 1_555
H3_13 C1_13 1_555 1_555
H4_13 C5_13 1_555 1_555
H5_13 C5_13 1_555 1_555
H6_13 C5_13 1_555 1_555
H7_13 C6_13 1_555 1_555
H8_13 C6_13 1_555 1_555
H9_13 C6_13 1_555 1_555
H10_13 C10_13 1_555 1_555
H11_13 C10_13 1_555 1_555
H12_13 C10_13 1_555 1_555
H13_13 C11_13 1_555 1_555
H14_13 C11_13 1_555 1_555
H15_13 C11_13 1_555 1_555
H16_13 C15_13 1_555 1_555
H17_13 C15_13 1_555 1_555
H18_13 C15_13 1_555 1_555
H43_13 C36_13 1_555 1_555
H44_13 C36_13 1_555 1_555
H45_13 C36_13 1_555 1_555
H55_13 C46_13 1_555 1_555
H56_13 C46_13 1_555 1_555
H57_13 C46_13 1_555 1_555
H59_13 C50_13 1_555 1_555
H68_13 C56_13 1_555 1_555
H69_13 C56_13 1_555 1_555
H70_13 C60_13 1_555 1_555
H71_13 C60_13 1_555 1_555
H72_13 C60_13 1_555 1_555
H109_13 C91_13 1_555 1_555
H110_13 C91_13 1_555 1_555
H111_13 C91_13 1_555 1_555
H112_13 C95_13 1_555 1_555
H113_13 C95_13 1_555 1_555
H114_13 C95_13 1_555 1_555
H115_13 C96_13 1_555 1_555
H116_13 C96_13 1_555 1_555
H117_13 C96_13 1_555 1_555
H118_13 C100_13 1_555 1_555
H119_13 C100_13 1_555 1_555
H120_13 C100_13 1_555 1_555
H121_13 C101_13 1_555 1_555
H122_13 C101_13 1_555 1_555
H123_13 C101_13 1_555 1_555
H124_13 C105_13 1_555 1_555
H125_13 C105_13 1_555 1_555
H126_13 C105_13 1_555 1_555
H145_13 C121_13 1_555 1_555
H146_13 C121_13 1_555 1_555
H147_13 C121_13 1_555 1_555
H148_13 C125_13 1_555 1_555
H149_13 C125_13 1_555 1_555
H150_13 C125_13 1_555 1_555
N61_6 Ag20_6 1_555 1_555
N62_6 Ag21_6 1_555 1_555
N65_5 Ag26_5 1_555 1_555
N67_8 Ag25_8 1_555 1_555
N69_6 Ag30_6 1_555 1_555
Ag32_8 N40_8 1_555 1_555
N3_13 Ag2_13 1_555 1_555
N5_13 Ag3_13 1_555 1_555
N6_13 Ag1_13 1_555 1_555
N24_13 Ag10_13 1_555 1_555
N42_13 Ag19_13 1_555 1_555
C47_13 C48_13 1_555 1_555
C57_13 C58_13 1_555 1_555
C97_13 C98_13 1_555 1_555
C102_13 C103_13 1_555 1_555
C122_13 C123_13 1_555 1_555
N61_6 N62_6 1_555 1_555
N21_13 N22_13 1_555 1_555
N22_13 C54_13 1_555 1_555
N25_13 N26_13 1_555 1_555
N26_13 C64_13 1_555 1_555
N27_13 N28_13 1_555 1_555
N28_13 C69_13 1_555 1_555
N29_13 N30_13 1_555 1_555
N30_13 C74_13 1_555 1_555
N65_5 N52_13 1_555 1_555
N52_13 C129_13 1_555 1_555
N59_13 N60_6 1_555 1_555
N60_6 C149_13 1_555 1_555
C51_13 C52_13 1_555 1_555
C52_13 N21_13 1_555 1_555
C53_13 C52_13 1_555 1_555
C54_13 C53_13 1_555 1_555
C55_13 C54_13 1_555 1_555
C61_13 C62_13 1_555 1_555
C62_13 N25_13 1_555 1_555
C63_13 C53_13 1_555 1_555
C64_13 C63_13 1_555 1_555
C65_13 C64_13 1_555 1_555
C66_13 C67_13 1_555 1_555
C67_13 N27_13 1_555 1_555
C68_13 C67_13 1_555 1_555
C69_13 C68_13 1_555 1_555
C70_13 C69_13 1_555 1_555
C71_13 C72_13 1_555 1_555
C72_13 N29_13 1_555 1_555
C73_13 C72_13 1_555 1_555
C74_13 C73_13 1_555 1_555
C75_13 C74_13 1_555 1_555
C126_13 C127_13 1_555 1_555
C127_13 N65_5 1_555 1_555
C128_13 C73_13 1_555 1_555
C129_13 C128_13 1_555 1_555
C130_13 C129_13 1_555 1_555
C146_13 C147_13 1_555 1_555
C147_13 N59_13 1_555 1_555
C148_13 C68_13 1_555 1_555
C149_13 C148_13 1_555 1_555
Ag12_13 N22_13 1_555 1_555
Ag13_13 N25_13 1_555 1_555
Ag14_13 N26_13 1_555 1_555
Ag15_13 N28_13 1_555 1_555
Ag27_8 N52_13 1_555 1_555
H61_13 C51_13 1_555 1_555
H62_13 C51_13 1_555 1_555
H63_13 C51_13 1_555 1_555
H64_13 C55_13 1_555 1_555
H65_13 C55_13 1_555 1_555
H66_13 C55_13 1_555 1_555
H73_13 C61_13 1_555 1_555
H74_13 C61_13 1_555 1_555
H75_13 C61_13 1_555 1_555
H76_13 C65_13 1_555 1_555
H77_13 C65_13 1_555 1_555
H78_13 C65_13 1_555 1_555
H79_13 C66_13 1_555 1_555
H80_13 C66_13 1_555 1_555
H82_13 C70_13 1_555 1_555
H83_13 C70_13 1_555 1_555
H84_13 C70_13 1_555 1_555
H85_13 C71_13 1_555 1_555
H86_13 C71_13 1_555 1_555
H87_13 C71_13 1_555 1_555
H88_13 C75_13 1_555 1_555
H89_13 C75_13 1_555 1_555
H90_13 C75_13 1_555 1_555
H151_13 C126_13 1_555 1_555
H152_13 C126_13 1_555 1_555
H153_13 C126_13 1_555 1_555
H154_13 C130_13 1_555 1_555
H155_13 C130_13 1_555 1_555
H156_13 C130_13 1_555 1_555
H175_13 C146_13 1_555 1_555
H176_13 C146_13 1_555 1_555
H177_13 C146_13 1_555 1_555
N66_8 Ag27_8 1_555 1_555
Ag38_6 N60_6 1_555 1_555
N21_13 Ag11_13 1_555 1_555
N27_13 Ag14_13 1_555 1_555
N29_13 Ag15_13 1_555 1_555
N30_13 Ag13_13 1_555 1_555
C62_13 C63_13 1_555 1_555
C127_13 C128_13 1_555 1_555
C147_13 C148_13 1_555 1_555
N37_14 N38_14 1_555 1_555
N38_14 C94_14 1_555 1_555
N39_9 N40_9 1_555 1_555
N40_9 C99_14 1_555 1_555
N42_14 C104_14 1_555 1_555
C11_14 C12_14 1_555 1_555
C91_14 C92_14 1_555 1_555
C92_14 N37_14 1_555 1_555
C93_14 C92_14 1_555 1_555
C94_14 C93_14 1_555 1_555
C95_14 C94_14 1_555 1_555
C96_14 C97_14 1_555 1_555
C97_14 N39_9 1_555 1_555
C98_14 C93_14 1_555 1_555
C99_14 C98_14 1_555 1_555
C100_14 C99_14 1_555 1_555
C105_14 C104_14 1_555 1_555
Ag19_14 N37_14 1_555 1_555
Ag31_8 N38_14 1_555 1_555
H10_14 C10_14 1_555 1_555
H11_14 C10_14 1_555 1_555
H13_14 C11_14 1_555 1_555
H14_14 C11_14 1_555 1_555
H109_14 C91_14 1_555 1_555
H110_14 C91_14 1_555 1_555
H111_14 C91_14 1_555 1_555
H112_14 C95_14 1_555 1_555
H113_14 C95_14 1_555 1_555
H114_14 C95_14 1_555 1_555
H115_14 C96_14 1_555 1_555
H116_14 C96_14 1_555 1_555
H117_14 C96_14 1_555 1_555
H118_14 C100_14 1_555 1_555
H119_14 C100_14 1_555 1_555
H120_14 C100_14 1_555 1_555
H124_14 C105_14 1_555 1_555
H125_14 C105_14 1_555 1_555
H126_14 C105_14 1_555 1_555
H145_14 C121_14 1_555 1_555
H146_14 C121_14 1_555 1_555
H147_14 C121_14 1_555 1_555
Ag32_9 N40_9 1_555 1_555
N42_14 Ag19_14 1_555 1_555
C97_14 C98_14 1_555 1_555
N3_14 N4_14 1_555 1_555
N4_14 C9_14 1_555 1_555
N5_14 N6_14 1_555 1_555
N6_14 C14_14 1_555 1_555
N7_14 N8_14 1_555 1_555
N8_14 C19_14 1_555 1_555
N9_14 N10_14 1_555 1_555
N10_14 C24_14 1_555 1_555
N11_14 N12_14 1_555 1_555
N12_14 C29_14 1_555 1_555
N13_14 N14_14 1_555 1_555
N14_14 C34_14 1_555 1_555
N43_14 N44_14 1_555 1_555
N44_14 C109_14 1_555 1_555
N45_14 N46_14 1_555 1_555
N46_14 C114_14 1_555 1_555
N64_8 C119_14 1_555 1_555
N49_14 N50_14 1_555 1_555
N50_14 C124_14 1_555 1_555
N55_14 N56_14 1_555 1_555
N56_14 C139_14 1_555 1_555
C6_14 C7_14 1_555 1_555
C7_14 N3_14 1_555 1_555
C8_14 C7_14 1_555 1_555
C9_14 C8_14 1_555 1_555
C14_14 C13_14 1_555 1_555
C15_14 C14_14 1_555 1_555
C16_14 C17_14 1_555 1_555
C17_14 N7_14 1_555 1_555
C18_14 C17_14 1_555 1_555
C19_14 C18_14 1_555 1_555
C20_14 C19_14 1_555 1_555
C21_14 C22_14 1_555 1_555
C22_14 N9_14 1_555 1_555
C23_14 C22_14 1_555 1_555
C24_14 C23_14 1_555 1_555
C25_14 C24_14 1_555 1_555
C26_14 C27_14 1_555 1_555
C27_14 N11_14 1_555 1_555
C28_14 C27_14 1_555 1_555
C29_14 C28_14 1_555 1_555
C30_14 C29_14 1_555 1_555
C31_14 C32_14 1_555 1_555
C32_14 N13_14 1_555 1_555
C33_14 C23_14 1_555 1_555
C34_14 C33_14 1_555 1_555
C35_14 C34_14 1_555 1_555
C101_14 C102_14 1_555 1_555
C102_14 N41_14 1_555 1_555
C103_14 C13_14 1_555 1_555
C106_14 C107_14 1_555 1_555
C107_14 N43_14 1_555 1_555
C108_14 C107_14 1_555 1_555
C109_14 C108_14 1_555 1_555
C110_14 C109_14 1_555 1_555
C111_14 C112_14 1_555 1_555
C112_14 N45_14 1_555 1_555
C113_14 C18_14 1_555 1_555
C114_14 C113_14 1_555 1_555
C115_14 C114_14 1_555 1_555
C116_14 C117_14 1_555 1_555
C117_14 N63_8 1_555 1_555
C118_14 C108_14 1_555 1_555
C119_14 C118_14 1_555 1_555
C120_14 C119_14 1_555 1_555
C122_14 N49_14 1_555 1_555
C123_14 C8_14 1_555 1_555
C124_14 C123_14 1_555 1_555
C125_14 C124_14 1_555 1_555
C136_14 C137_14 1_555 1_555
C137_14 N55_14 1_555 1_555
C138_14 C28_14 1_555 1_555
C139_14 C138_14 1_555 1_555
C140_14 C139_14 1_555 1_555
Ag3_14 N4_14 1_555 1_555
Ag4_14 N7_14 1_555 1_555
Ag5_14 N8_14 1_555 1_555
Ag6_14 N10_14 1_555 1_555
Ag32_8 N41_14 1_555 1_555
Ag22_9 N43_14 1_555 1_555
Ag23_14 N44_14 1_555 1_555
Ag24_9 N46_14 1_555 1_555
Ag25_9 N49_14 1_555 1_555
Ag26_6 N50_14 1_555 1_555
Ag28_9 N55_14 1_555 1_555
Ag29_6 N56_14 1_555 1_555
H7_14 C6_14 1_555 1_555
H8_14 C6_14 1_555 1_555
H9_14 C6_14 1_555 1_555
H16_14 C15_14 1_555 1_555
H17_14 C15_14 1_555 1_555
H18_14 C15_14 1_555 1_555
H19_14 C16_14 1_555 1_555
H20_14 C16_14 1_555 1_555
H21_14 C16_14 1_555 1_555
H22_14 C20_14 1_555 1_555
H23_14 C20_14 1_555 1_555
H24_14 C20_14 1_555 1_555
H25_14 C21_14 1_555 1_555
H26_14 C21_14 1_555 1_555
H27_14 C21_14 1_555 1_555
H28_14 C25_14 1_555 1_555
H29_14 C25_14 1_555 1_555
H30_14 C25_14 1_555 1_555
H31_14 C26_14 1_555 1_555
H32_14 C26_14 1_555 1_555
H33_14 C26_14 1_555 1_555
H34_14 C30_14 1_555 1_555
H35_14 C30_14 1_555 1_555
H36_14 C30_14 1_555 1_555
H37_14 C31_14 1_555 1_555
H38_14 C31_14 1_555 1_555
H39_14 C31_14 1_555 1_555
H40_14 C35_14 1_555 1_555
H41_14 C35_14 1_555 1_555
H42_14 C35_14 1_555 1_555
H121_14 C101_14 1_555 1_555
H122_14 C101_14 1_555 1_555
H123_14 C101_14 1_555 1_555
H127_14 C106_14 1_555 1_555
H128_14 C106_14 1_555 1_555
H129_14 C106_14 1_555 1_555
H130_14 C110_14 1_555 1_555
H131_14 C110_14 1_555 1_555
H132_14 C110_14 1_555 1_555
H133_14 C111_14 1_555 1_555
H134_14 C111_14 1_555 1_555
H135_14 C111_14 1_555 1_555
H136_14 C115_14 1_555 1_555
H137_14 C115_14 1_555 1_555
H138_14 C115_14 1_555 1_555
H139_14 C116_14 1_555 1_555
H140_14 C116_14 1_555 1_555
H141_14 C116_14 1_555 1_555
H142_14 C120_14 1_555 1_555
H143_14 C120_14 1_555 1_555
H144_14 C120_14 1_555 1_555
H148_14 C125_14 1_555 1_555
H149_14 C125_14 1_555 1_555
H150_14 C125_14 1_555 1_555
H163_14 C136_14 1_555 1_555
H164_14 C136_14 1_555 1_555
H165_14 C136_14 1_555 1_555
H166_14 C140_14 1_555 1_555
H167_14 C140_14 1_555 1_555
H168_14 C140_14 1_555 1_555
N63_9 Ag24_9 1_555 1_555
N65_6 Ag26_6 1_555 1_555
N67_9 Ag25_9 1_555 1_555
N68_6 Ag29_6 1_555 1_555
N70_9 Ag28_9 1_555 1_555
N5_14 Ag3_14 1_555 1_555
N9_14 Ag5_14 1_555 1_555
N11_14 Ag6_14 1_555 1_555
N12_14 Ag4_14 1_555 1_555
N45_14 Ag23_14 1_555 1_555
C32_14 C33_14 1_555 1_555
C102_14 C103_14 1_555 1_555
C112_14 C113_14 1_555 1_555
C117_14 C118_14 1_555 1_555
C122_14 C123_14 1_555 1_555
C137_14 C138_14 1_555 1_555
N1_14 N2_14 1_555 1_555
N2_14 C4_14 1_555 1_555
N15_14 N16_14 1_555 1_555
N16_14 C39_14 1_555 1_555
N17_14 N18_14 1_555 1_555
N18_14 C44_14 1_555 1_555
N19_14 N20_14 1_555 1_555
N20_14 C49_14 1_555 1_555
N21_14 N22_14 1_555 1_555
N22_14 C54_14 1_555 1_555
N23_14 N24_14 1_555 1_555
N24_14 C59_14 1_555 1_555
N25_14 N26_14 1_555 1_555
N26_14 C64_14 1_555 1_555
N27_14 N28_14 1_555 1_555
N28_14 C69_14 1_555 1_555
N29_14 N30_14 1_555 1_555
N30_14 C74_14 1_555 1_555
N31_14 N32_14 1_555 1_555
N32_14 C79_14 1_555 1_555
N33_14 N34_14 1_555 1_555
N34_14 C84_14 1_555 1_555
N35_14 N36_14 1_555 1_555
N36_14 C89_14 1_555 1_555
N65_6 N52_14 1_555 1_555
N52_14 C129_14 1_555 1_555
N66_8 N67_8 1_555 1_555
N67_8 C134_14 1_555 1_555
N68_6 N58_9 1_555 1_555
N58_9 C144_14 1_555 1_555
N59_14 N70_8 1_555 1_555
N70_8 C149_14 1_555 1_555
C1_14 C2_14 1_555 1_555
C2_14 N1_14 1_555 1_555
C3_14 C2_14 1_555 1_555
C4_14 C3_14 1_555 1_555
C5_14 C4_14 1_555 1_555
C36_14 C37_14 1_555 1_555
C37_14 N15_14 1_555 1_555
C38_14 C37_14 1_555 1_555
C39_14 C38_14 1_555 1_555
C40_14 C39_14 1_555 1_555
C41_14 C42_14 1_555 1_555
C42_14 N17_14 1_555 1_555
C43_14 C42_14 1_555 1_555
C44_14 C43_14 1_555 1_555
C45_14 C44_14 1_555 1_555
C46_14 C47_14 1_555 1_555
C47_14 N19_14 1_555 1_555
C48_14 C38_14 1_555 1_555
C49_14 C48_14 1_555 1_555
C50_14 C49_14 1_555 1_555
C51_14 C52_14 1_555 1_555
C52_14 N21_14 1_555 1_555
C53_14 C52_14 1_555 1_555
C54_14 C53_14 1_555 1_555
C55_14 C54_14 1_555 1_555
C56_14 C57_14 1_555 1_555
C57_14 N23_14 1_555 1_555
C58_14 C3_14 1_555 1_555
C59_14 C58_14 1_555 1_555
C60_14 C59_14 1_555 1_555
C61_14 C62_14 1_555 1_555
C62_14 N25_14 1_555 1_555
C63_14 C53_14 1_555 1_555
C64_14 C63_14 1_555 1_555
C65_14 C64_14 1_555 1_555
C66_14 C67_14 1_555 1_555
C67_14 N27_14 1_555 1_555
C68_14 C67_14 1_555 1_555
C69_14 C68_14 1_555 1_555
C70_14 C69_14 1_555 1_555
C71_14 C72_14 1_555 1_555
C72_14 N29_14 1_555 1_555
C73_14 C72_14 1_555 1_555
C74_14 C73_14 1_555 1_555
C75_14 C74_14 1_555 1_555
C76_14 C77_14 1_555 1_555
C77_14 N31_14 1_555 1_555
C78_14 C77_14 1_555 1_555
C79_14 C78_14 1_555 1_555
C80_14 C79_14 1_555 1_555
C81_14 C82_14 1_555 1_555
C82_14 N33_14 1_555 1_555
C83_14 C43_14 1_555 1_555
C84_14 C83_14 1_555 1_555
C85_14 C84_14 1_555 1_555
C86_14 C87_14 1_555 1_555
C87_14 N35_14 1_555 1_555
C88_14 C87_14 1_555 1_555
C89_14 C88_14 1_555 1_555
C90_14 C89_14 1_555 1_555
C126_14 C127_14 1_555 1_555
C127_14 N65_6 1_555 1_555
C128_14 C73_14 1_555 1_555
C129_14 C128_14 1_555 1_555
C130_14 C129_14 1_555 1_555
C131_14 C132_14 1_555 1_555
C132_14 N66_8 1_555 1_555
C133_14 C88_14 1_555 1_555
C134_14 C133_14 1_555 1_555
C135_14 C134_14 1_555 1_555
C141_14 C142_14 1_555 1_555
C142_14 N68_6 1_555 1_555
C143_14 C78_14 1_555 1_555
C144_14 C143_14 1_555 1_555
C145_14 C144_14 1_555 1_555
C146_14 C147_14 1_555 1_555
C147_14 N59_14 1_555 1_555
C148_14 C68_14 1_555 1_555
C149_14 C148_14 1_555 1_555
C150_14 C149_14 1_555 1_555
Ag1_14 N1_14 1_555 1_555
Ag2_14 N2_14 1_555 1_555
Ag9_14 N16_14 1_555 1_555
Ag10_14 N19_14 1_555 1_555
Ag11_14 N20_14 1_555 1_555
Ag12_14 N22_14 1_555 1_555
Ag13_14 N25_14 1_555 1_555
Ag14_14 N26_14 1_555 1_555
Ag15_14 N28_14 1_555 1_555
Ag16_14 N31_14 1_555 1_555
Ag17_14 N32_14 1_555 1_555
Ag18_14 N34_14 1_555 1_555
Ag27_9 N52_14 1_555 1_555
Ag40_8 N59_14 1_555 1_555
H1_14 C1_14 1_555 1_555
H2_14 C1_14 1_555 1_555
H3_14 C1_14 1_555 1_555
H4_14 C5_14 1_555 1_555
H5_14 C5_14 1_555 1_555
H6_14 C5_14 1_555 1_555
H43_14 C36_14 1_555 1_555
H44_14 C36_14 1_555 1_555
H45_14 C36_14 1_555 1_555
H46_14 C40_14 1_555 1_555
H47_14 C40_14 1_555 1_555
H48_14 C40_14 1_555 1_555
H49_14 C41_14 1_555 1_555
H50_14 C41_14 1_555 1_555
H51_14 C41_14 1_555 1_555
H52_14 C45_14 1_555 1_555
H53_14 C45_14 1_555 1_555
H54_14 C45_14 1_555 1_555
H55_14 C46_14 1_555 1_555
H56_14 C46_14 1_555 1_555
H57_14 C46_14 1_555 1_555
H58_14 C50_14 1_555 1_555
H59_14 C50_14 1_555 1_555
H60_14 C50_14 1_555 1_555
H61_14 C51_14 1_555 1_555
H62_14 C51_14 1_555 1_555
H63_14 C51_14 1_555 1_555
H64_14 C55_14 1_555 1_555
H65_14 C55_14 1_555 1_555
H66_14 C55_14 1_555 1_555
H67_14 C56_14 1_555 1_555
H68_14 C56_14 1_555 1_555
H69_14 C56_14 1_555 1_555
H70_14 C60_14 1_555 1_555
H71_14 C60_14 1_555 1_555
H72_14 C60_14 1_555 1_555
H73_14 C61_14 1_555 1_555
H74_14 C61_14 1_555 1_555
H75_14 C61_14 1_555 1_555
H76_14 C65_14 1_555 1_555
H77_14 C65_14 1_555 1_555
H78_14 C65_14 1_555 1_555
H79_14 C66_14 1_555 1_555
H80_14 C66_14 1_555 1_555
H81_14 C66_14 1_555 1_555
H82_14 C70_14 1_555 1_555
H83_14 C70_14 1_555 1_555
H84_14 C70_14 1_555 1_555
H85_14 C71_14 1_555 1_555
H86_14 C71_14 1_555 1_555
H87_14 C71_14 1_555 1_555
H88_14 C75_14 1_555 1_555
H89_14 C75_14 1_555 1_555
H90_14 C75_14 1_555 1_555
H91_14 C76_14 1_555 1_555
H92_14 C76_14 1_555 1_555
H93_14 C76_14 1_555 1_555
H94_14 C80_14 1_555 1_555
H95_14 C80_14 1_555 1_555
H96_14 C80_14 1_555 1_555
H97_14 C81_14 1_555 1_555
H98_14 C81_14 1_555 1_555
H99_14 C81_14 1_555 1_555
H100_14 C85_14 1_555 1_555
H101_14 C85_14 1_555 1_555
H102_14 C85_14 1_555 1_555
H103_14 C86_14 1_555 1_555
H104_14 C86_14 1_555 1_555
H105_14 C86_14 1_555 1_555
H106_14 C90_14 1_555 1_555
H107_14 C90_14 1_555 1_555
H108_14 C90_14 1_555 1_555
H151_14 C126_14 1_555 1_555
H152_14 C126_14 1_555 1_555
H153_14 C126_14 1_555 1_555
H154_14 C130_14 1_555 1_555
H155_14 C130_14 1_555 1_555
H156_14 C130_14 1_555 1_555
H157_14 C131_14 1_555 1_555
H158_14 C131_14 1_555 1_555
H159_14 C131_14 1_555 1_555
H160_14 C135_14 1_555 1_555
H161_14 C135_14 1_555 1_555
H162_14 C135_14 1_555 1_555
H169_14 C141_14 1_555 1_555
H170_14 C141_14 1_555 1_555
H171_14 C141_14 1_555 1_555
H172_14 C145_14 1_555 1_555
H173_14 C145_14 1_555 1_555
H174_14 C145_14 1_555 1_555
H175_14 C146_14 1_555 1_555
H176_14 C146_14 1_555 1_555
H177_14 C146_14 1_555 1_555
H178_14 C150_14 1_555 1_555
H179_14 C150_14 1_555 1_555
H180_14 C150_14 1_555 1_555
N66_9 Ag27_9 1_555 1_555
Ag40_9 N58_9 1_555 1_555
N15_14 Ag8_14 1_555 1_555
N17_14 Ag9_14 1_555 1_555
N18_14 Ag7_14 1_555 1_555
N21_14 Ag11_14 1_555 1_555
N23_14 Ag12_14 1_555 1_555
N24_14 Ag10_14 1_555 1_555
N27_14 Ag14_14 1_555 1_555
N29_14 Ag15_14 1_555 1_555
N30_14 Ag13_14 1_555 1_555
N33_14 Ag17_14 1_555 1_555
N35_14 Ag18_14 1_555 1_555
N36_14 Ag16_14 1_555 1_555
C47_14 C48_14 1_555 1_555
C57_14 C58_14 1_555 1_555
C62_14 C63_14 1_555 1_555
C82_14 C83_14 1_555 1_555
C127_14 C128_14 1_555 1_555
C132_14 C133_14 1_555 1_555
C142_14 C143_14 1_555 1_555
C147_14 C148_14 1_555 1_555
N11_15 N12_15 1_555 1_555
N12_15 C29_15 1_555 1_555
N55_15 N56_15 1_555 1_555
N56_15 C139_15 1_555 1_555
C26_15 C27_15 1_555 1_555
C27_15 N11_15 1_555 1_555
C28_15 C27_15 1_555 1_555
C29_15 C28_15 1_555 1_555
C30_15 C29_15 1_555 1_555
C136_15 C137_15 1_555 1_555
C137_15 N55_15 1_555 1_555
C138_15 C28_15 1_555 1_555
C139_15 C138_15 1_555 1_555
C140_15 C139_15 1_555 1_555
Ag4_15 N7_15 1_555 1_555
Ag28_10 N55_15 1_555 1_555
Ag29_7 N56_15 1_555 1_555
H19_15 C16_15 1_555 1_555
H20_15 C16_15 1_555 1_555
H21_15 C16_15 1_555 1_555
H31_15 C26_15 1_555 1_555
H32_15 C26_15 1_555 1_555
H33_15 C26_15 1_555 1_555
H34_15 C30_15 1_555 1_555
H35_15 C30_15 1_555 1_555
H36_15 C30_15 1_555 1_555
H163_15 C136_15 1_555 1_555
H164_15 C136_15 1_555 1_555
H165_15 C136_15 1_555 1_555
H166_15 C140_15 1_555 1_555
H167_15 C140_15 1_555 1_555
H168_15 C140_15 1_555 1_555
N67_10 Ag25_10 1_555 1_555
N68_7 Ag29_7 1_555 1_555
N70_10 Ag28_10 1_555 1_555
N11_15 Ag6_15 1_555 1_555
N12_15 Ag4_15 1_555 1_555
C137_15 C138_15 1_555 1_555
N1_15 N2_15 1_555 1_555
N2_15 C4_15 1_555 1_555
N3_15 N4_15 1_555 1_555
N4_15 C9_15 1_555 1_555
N5_15 N6_15 1_555 1_555
N6_15 C14_15 1_555 1_555
N8_15 C19_15 1_555 1_555
N9_15 N10_15 1_555 1_555
N10_15 C24_15 1_555 1_555
N13_15 N14_15 1_555 1_555
N14_15 C34_15 1_555 1_555
N15_15 N16_15 1_555 1_555
N16_15 C39_15 1_555 1_555
N17_15 N18_15 1_555 1_555
N18_15 C44_15 1_555 1_555
N19_15 N20_15 1_555 1_555
N20_15 C49_15 1_555 1_555
N21_15 N22_15 1_555 1_555
N22_15 C54_15 1_555 1_555
N23_15 N24_15 1_555 1_555
N24_15 C59_15 1_555 1_555
N25_15 N26_15 1_555 1_555
N26_15 C64_15 1_555 1_555
N27_15 N28_15 1_555 1_555
N28_15 C69_15 1_555 1_555
N29_15 N30_15 1_555 1_555
N30_15 C74_15 1_555 1_555
N31_15 N32_15 1_555 1_555
N32_15 C79_15 1_555 1_555
N33_15 N34_15 1_555 1_555
N34_15 C84_15 1_555 1_555
N35_15 N36_15 1_555 1_555
N36_15 C89_15 1_555 1_555
N37_15 N38_15 1_555 1_555
N38_15 C94_15 1_555 1_555
N39_10 N40_10 1_555 1_555
N40_10 C99_15 1_555 1_555
N41_15 N42_15 1_555 1_555
N42_15 C104_15 1_555 1_555
N43_15 N44_15 1_555 1_555
N44_15 C109_15 1_555 1_555
N45_15 N46_15 1_555 1_555
N46_15 C114_15 1_555 1_555
N64_9 C119_15 1_555 1_555
N49_15 N50_15 1_555 1_555
N50_15 C124_15 1_555 1_555
N65_7 N52_15 1_555 1_555
N52_15 C129_15 1_555 1_555
N68_7 N58_10 1_555 1_555
N58_10 C144_15 1_555 1_555
N59_15 N70_9 1_555 1_555
N70_9 C149_15 1_555 1_555
C1_15 C2_15 1_555 1_555
C2_15 N1_15 1_555 1_555
C3_15 C2_15 1_555 1_555
C4_15 C3_15 1_555 1_555
C5_15 C4_15 1_555 1_555
C6_15 C7_15 1_555 1_555
C7_15 N3_15 1_555 1_555
C8_15 C7_15 1_555 1_555
C9_15 C8_15 1_555 1_555
C10_15 C9_15 1_555 1_555
C11_15 C12_15 1_555 1_555
C12_15 N5_15 1_555 1_555
C13_15 C12_15 1_555 1_555
C14_15 C13_15 1_555 1_555
C15_15 C14_15 1_555 1_555
C18_15 C17_15 1_555 1_555
C19_15 C18_15 1_555 1_555
C20_15 C19_15 1_555 1_555
C21_15 C22_15 1_555 1_555
C22_15 N9_15 1_555 1_555
C23_15 C22_15 1_555 1_555
C24_15 C23_15 1_555 1_555
C25_15 C24_15 1_555 1_555
C31_15 C32_15 1_555 1_555
C32_15 N13_15 1_555 1_555
C33_15 C23_15 1_555 1_555
C34_15 C33_15 1_555 1_555
C35_15 C34_15 1_555 1_555
C36_15 C37_15 1_555 1_555
C37_15 N15_15 1_555 1_555
C38_15 C37_15 1_555 1_555
C39_15 C38_15 1_555 1_555
C40_15 C39_15 1_555 1_555
C41_15 C42_15 1_555 1_555
C42_15 N17_15 1_555 1_555
C43_15 C42_15 1_555 1_555
C44_15 C43_15 1_555 1_555
C45_15 C44_15 1_555 1_555
C46_15 C47_15 1_555 1_555
C47_15 N19_15 1_555 1_555
C48_15 C38_15 1_555 1_555
C49_15 C48_15 1_555 1_555
C50_15 C49_15 1_555 1_555
C51_15 C52_15 1_555 1_555
C52_15 N21_15 1_555 1_555
C53_15 C52_15 1_555 1_555
C54_15 C53_15 1_555 1_555
C55_15 C54_15 1_555 1_555
C56_15 C57_15 1_555 1_555
C57_15 N23_15 1_555 1_555
C58_15 C3_15 1_555 1_555
C59_15 C58_15 1_555 1_555
C60_15 C59_15 1_555 1_555
C61_15 C62_15 1_555 1_555
C62_15 N25_15 1_555 1_555
C63_15 C53_15 1_555 1_555
C64_15 C63_15 1_555 1_555
C65_15 C64_15 1_555 1_555
C66_15 C67_15 1_555 1_555
C67_15 N27_15 1_555 1_555
C68_15 C67_15 1_555 1_555
C69_15 C68_15 1_555 1_555
C70_15 C69_15 1_555 1_555
C71_15 C72_15 1_555 1_555
C72_15 N29_15 1_555 1_555
C73_15 C72_15 1_555 1_555
C74_15 C73_15 1_555 1_555
C75_15 C74_15 1_555 1_555
C76_15 C77_15 1_555 1_555
C77_15 N31_15 1_555 1_555
C78_15 C77_15 1_555 1_555
C79_15 C78_15 1_555 1_555
C80_15 C79_15 1_555 1_555
C81_15 C82_15 1_555 1_555
C82_15 N33_15 1_555 1_555
C83_15 C43_15 1_555 1_555
C84_15 C83_15 1_555 1_555
C85_15 C84_15 1_555 1_555
C86_15 C87_15 1_555 1_555
C87_15 N35_15 1_555 1_555
C88_15 C87_15 1_555 1_555
C89_15 C88_15 1_555 1_555
C90_15 C89_15 1_555 1_555
C91_15 C92_15 1_555 1_555
C92_15 N37_15 1_555 1_555
C93_15 C92_15 1_555 1_555
C94_15 C93_15 1_555 1_555
C95_15 C94_15 1_555 1_555
C96_15 C97_15 1_555 1_555
C97_15 N39_10 1_555 1_555
C98_15 C93_15 1_555 1_555
C99_15 C98_15 1_555 1_555
C100_15 C99_15 1_555 1_555
C101_15 C102_15 1_555 1_555
C102_15 N41_15 1_555 1_555
C103_15 C13_15 1_555 1_555
C104_15 C103_15 1_555 1_555
C105_15 C104_15 1_555 1_555
C106_15 C107_15 1_555 1_555
C107_15 N43_15 1_555 1_555
C108_15 C107_15 1_555 1_555
C109_15 C108_15 1_555 1_555
C110_15 C109_15 1_555 1_555
C111_15 C112_15 1_555 1_555
C112_15 N45_15 1_555 1_555
C113_15 C18_15 1_555 1_555
C114_15 C113_15 1_555 1_555
C115_15 C114_15 1_555 1_555
C116_15 C117_15 1_555 1_555
C118_15 C108_15 1_555 1_555
C119_15 C118_15 1_555 1_555
C120_15 C119_15 1_555 1_555
C121_15 C122_15 1_555 1_555
C122_15 N49_15 1_555 1_555
C123_15 C8_15 1_555 1_555
C124_15 C123_15 1_555 1_555
C125_15 C124_15 1_555 1_555
C126_15 C127_15 1_555 1_555
C127_15 N65_7 1_555 1_555
C128_15 C73_15 1_555 1_555
C129_15 C128_15 1_555 1_555
C130_15 C129_15 1_555 1_555
C133_15 C88_15 1_555 1_555
C134_15 C133_15 1_555 1_555
C135_15 C134_15 1_555 1_555
C141_15 C142_15 1_555 1_555
C142_15 N68_7 1_555 1_555
C143_15 C78_15 1_555 1_555
C144_15 C143_15 1_555 1_555
C145_15 C144_15 1_555 1_555
C146_15 C147_15 1_555 1_555
C147_15 N59_15 1_555 1_555
C148_15 C68_15 1_555 1_555
C149_15 C148_15 1_555 1_555
C150_15 C149_15 1_555 1_555
Ag1_15 N1_15 1_555 1_555
Ag2_15 N2_15 1_555 1_555
Ag3_15 N4_15 1_555 1_555
Ag5_15 N8_15 1_555 1_555
Ag7_15 N13_15 1_555 1_555
Ag8_15 N14_15 1_555 1_555
Ag9_15 N16_15 1_555 1_555
Ag10_15 N19_15 1_555 1_555
Ag11_15 N20_15 1_555 1_555
Ag12_15 N22_15 1_555 1_555
Ag13_15 N25_15 1_555 1_555
Ag14_15 N26_15 1_555 1_555
Ag15_15 N28_15 1_555 1_555
Ag16_15 N31_15 1_555 1_555
Ag17_15 N32_15 1_555 1_555
Ag18_15 N34_15 1_555 1_555
Ag19_15 N37_15 1_555 1_555
Ag31_9 N38_15 1_555 1_555
Ag22_10 N43_15 1_555 1_555
Ag23_15 N44_15 1_555 1_555
Ag24_10 N46_15 1_555 1_555
Ag26_7 N50_15 1_555 1_555
Ag27_10 N52_15 1_555 1_555
Ag40_9 N59_15 1_555 1_555
H1_15 C1_15 1_555 1_555
H2_15 C1_15 1_555 1_555
H3_15 C1_15 1_555 1_555
H4_15 C5_15 1_555 1_555
H5_15 C5_15 1_555 1_555
H6_15 C5_15 1_555 1_555
H7_15 C6_15 1_555 1_555
H8_15 C6_15 1_555 1_555
H9_15 C6_15 1_555 1_555
H10_15 C10_15 1_555 1_555
H11_15 C10_15 1_555 1_555
H12_15 C10_15 1_555 1_555
H13_15 C11_15 1_555 1_555
H14_15 C11_15 1_555 1_555
H15_15 C11_15 1_555 1_555
H16_15 C15_15 1_555 1_555
H17_15 C15_15 1_555 1_555
H18_15 C15_15 1_555 1_555
H22_15 C20_15 1_555 1_555
H23_15 C20_15 1_555 1_555
H24_15 C20_15 1_555 1_555
H25_15 C21_15 1_555 1_555
H26_15 C21_15 1_555 1_555
H27_15 C21_15 1_555 1_555
H28_15 C25_15 1_555 1_555
H29_15 C25_15 1_555 1_555
H30_15 C25_15 1_555 1_555
H37_15 C31_15 1_555 1_555
H38_15 C31_15 1_555 1_555
H39_15 C31_15 1_555 1_555
H40_15 C35_15 1_555 1_555
H41_15 C35_15 1_555 1_555
H42_15 C35_15 1_555 1_555
H43_15 C36_15 1_555 1_555
H44_15 C36_15 1_555 1_555
H45_15 C36_15 1_555 1_555
H46_15 C40_15 1_555 1_555
H47_15 C40_15 1_555 1_555
H48_15 C40_15 1_555 1_555
H49_15 C41_15 1_555 1_555
H50_15 C41_15 1_555 1_555
H51_15 C41_15 1_555 1_555
H52_15 C45_15 1_555 1_555
H53_15 C45_15 1_555 1_555
H54_15 C45_15 1_555 1_555
H55_15 C46_15 1_555 1_555
H56_15 C46_15 1_555 1_555
H57_15 C46_15 1_555 1_555
H58_15 C50_15 1_555 1_555
H59_15 C50_15 1_555 1_555
H60_15 C50_15 1_555 1_555
H61_15 C51_15 1_555 1_555
H62_15 C51_15 1_555 1_555
H63_15 C51_15 1_555 1_555
H64_15 C55_15 1_555 1_555
H65_15 C55_15 1_555 1_555
H66_15 C55_15 1_555 1_555
H67_15 C56_15 1_555 1_555
H68_15 C56_15 1_555 1_555
H69_15 C56_15 1_555 1_555
H70_15 C60_15 1_555 1_555
H71_15 C60_15 1_555 1_555
H72_15 C60_15 1_555 1_555
H73_15 C61_15 1_555 1_555
H74_15 C61_15 1_555 1_555
H75_15 C61_15 1_555 1_555
H76_15 C65_15 1_555 1_555
H77_15 C65_15 1_555 1_555
H78_15 C65_15 1_555 1_555
H79_15 C66_15 1_555 1_555
H80_15 C66_15 1_555 1_555
H81_15 C66_15 1_555 1_555
H82_15 C70_15 1_555 1_555
H83_15 C70_15 1_555 1_555
H84_15 C70_15 1_555 1_555
H85_15 C71_15 1_555 1_555
H86_15 C71_15 1_555 1_555
H87_15 C71_15 1_555 1_555
H88_15 C75_15 1_555 1_555
H89_15 C75_15 1_555 1_555
H90_15 C75_15 1_555 1_555
H91_15 C76_15 1_555 1_555
H92_15 C76_15 1_555 1_555
H93_15 C76_15 1_555 1_555
H94_15 C80_15 1_555 1_555
H95_15 C80_15 1_555 1_555
H96_15 C80_15 1_555 1_555
H97_15 C81_15 1_555 1_555
H98_15 C81_15 1_555 1_555
H99_15 C81_15 1_555 1_555
H100_15 C85_15 1_555 1_555
H101_15 C85_15 1_555 1_555
H102_15 C85_15 1_555 1_555
H103_15 C86_15 1_555 1_555
H104_15 C86_15 1_555 1_555
H105_15 C86_15 1_555 1_555
H106_15 C90_15 1_555 1_555
H107_15 C90_15 1_555 1_555
H108_15 C90_15 1_555 1_555
H109_15 C91_15 1_555 1_555
H110_15 C91_15 1_555 1_555
H111_15 C91_15 1_555 1_555
H112_15 C95_15 1_555 1_555
H113_15 C95_15 1_555 1_555
H114_15 C95_15 1_555 1_555
H115_15 C96_15 1_555 1_555
H116_15 C96_15 1_555 1_555
H117_15 C96_15 1_555 1_555
H118_15 C100_15 1_555 1_555
H119_15 C100_15 1_555 1_555
H120_15 C100_15 1_555 1_555
H122_15 C101_15 1_555 1_555
H123_15 C101_15 1_555 1_555
H124_15 C105_15 1_555 1_555
H125_15 C105_15 1_555 1_555
H126_15 C105_15 1_555 1_555
H127_15 C106_15 1_555 1_555
H128_15 C106_15 1_555 1_555
H129_15 C106_15 1_555 1_555
H130_15 C110_15 1_555 1_555
H132_15 C110_15 1_555 1_555
H133_15 C111_15 1_555 1_555
H134_15 C111_15 1_555 1_555
H136_15 C115_15 1_555 1_555
H137_15 C115_15 1_555 1_555
H138_15 C115_15 1_555 1_555
H139_15 C116_15 1_555 1_555
H140_15 C116_15 1_555 1_555
H141_15 C116_15 1_555 1_555
H142_15 C120_15 1_555 1_555
H143_15 C120_15 1_555 1_555
H144_15 C120_15 1_555 1_555
H145_15 C121_15 1_555 1_555
H146_15 C121_15 1_555 1_555
H147_15 C121_15 1_555 1_555
H148_15 C125_15 1_555 1_555
H149_15 C125_15 1_555 1_555
H150_15 C125_15 1_555 1_555
H152_15 C126_15 1_555 1_555
H153_15 C126_15 1_555 1_555
H154_15 C130_15 1_555 1_555
H155_15 C130_15 1_555 1_555
H156_15 C130_15 1_555 1_555
H160_15 C135_15 1_555 1_555
H161_15 C135_15 1_555 1_555
H162_15 C135_15 1_555 1_555
H169_15 C141_15 1_555 1_555
H170_15 C141_15 1_555 1_555
H171_15 C141_15 1_555 1_555
H172_15 C145_15 1_555 1_555
H173_15 C145_15 1_555 1_555
H174_15 C145_15 1_555 1_555
H175_15 C146_15 1_555 1_555
H176_15 C146_15 1_555 1_555
H177_15 C146_15 1_555 1_555
H178_15 C150_15 1_555 1_555
H179_15 C150_15 1_555 1_555
H180_15 C150_15 1_555 1_555
N63_10 Ag24_10 1_555 1_555
N64_10 Ag22_10 1_555 1_555
N66_10 Ag27_10 1_555 1_555
Ag32_10 N40_10 1_555 1_555
Ag40_10 N58_10 1_555 1_555
N3_15 Ag2_15 1_555 1_555
N5_15 Ag3_15 1_555 1_555
N6_15 Ag1_15 1_555 1_555
N9_15 Ag5_15 1_555 1_555
N15_15 Ag8_15 1_555 1_555
N17_15 Ag9_15 1_555 1_555
N18_15 Ag7_15 1_555 1_555
N21_15 Ag11_15 1_555 1_555
N23_15 Ag12_15 1_555 1_555
N24_15 Ag10_15 1_555 1_555
N27_15 Ag14_15 1_555 1_555
N29_15 Ag15_15 1_555 1_555
N30_15 Ag13_15 1_555 1_555
N33_15 Ag17_15 1_555 1_555
N35_15 Ag18_15 1_555 1_555
N36_15 Ag16_15 1_555 1_555
N42_15 Ag19_15 1_555 1_555
N45_15 Ag23_15 1_555 1_555
C32_15 C33_15 1_555 1_555
C47_15 C48_15 1_555 1_555
C57_15 C58_15 1_555 1_555
C62_15 C63_15 1_555 1_555
C82_15 C83_15 1_555 1_555
C97_15 C98_15 1_555 1_555
C102_15 C103_15 1_555 1_555
C112_15 C113_15 1_555 1_555
C117_15 C118_15 1_555 1_555
C122_15 C123_15 1_555 1_555
C127_15 C128_15 1_555 1_555
C142_15 C143_15 1_555 1_555
C147_15 C148_15 1_555 1_555
N63_10 N64_10 1_555 1_555
N66_9 N67_9 1_555 1_555
C131_15 C132_15 1_555 1_555
C132_15 N66_9 1_555 1_555
H157_15 C131_15 1_555 1_555
H158_15 C131_15 1_555 1_555
H159_15 C131_15 1_555 1_555
N2_16 C4_16 1_555 1_555
N3_16 N4_16 1_555 1_555
N4_16 C9_16 1_555 1_555
N7_16 N8_16 1_555 1_555
N8_16 C19_16 1_555 1_555
N9_16 N10_16 1_555 1_555
N11_16 N12_16 1_555 1_555
N12_16 C29_16 1_555 1_555
N21_16 N22_16 1_555 1_555
N22_16 C54_16 1_555 1_555
N25_16 N26_16 1_555 1_555
N26_16 C64_16 1_555 1_555
N27_16 N28_16 1_555 1_555
N28_16 C69_16 1_555 1_555
N43_16 N44_16 1_555 1_555
N44_16 C109_16 1_555 1_555
N45_16 N46_16 1_555 1_555
N46_16 C114_16 1_555 1_555
N64_10 C119_16 1_555 1_555
N49_16 N50_16 1_555 1_555
N50_16 C124_16 1_555 1_555
N59_16 N70_10 1_555 1_555
N70_10 C149_16 1_555 1_555
C4_16 C3_16 1_555 1_555
C5_16 C4_16 1_555 1_555
C6_16 C7_16 1_555 1_555
C7_16 N3_16 1_555 1_555
C8_16 C7_16 1_555 1_555
C9_16 C8_16 1_555 1_555
C16_16 C17_16 1_555 1_555
C17_16 N7_16 1_555 1_555
C18_16 C17_16 1_555 1_555
C19_16 C18_16 1_555 1_555
C20_16 C19_16 1_555 1_555
C21_16 C22_16 1_555 1_555
C22_16 N9_16 1_555 1_555
C27_16 N11_16 1_555 1_555
C28_16 C27_16 1_555 1_555
C29_16 C28_16 1_555 1_555
C30_16 C29_16 1_555 1_555
C51_16 C52_16 1_555 1_555
C52_16 N21_16 1_555 1_555
C53_16 C52_16 1_555 1_555
C54_16 C53_16 1_555 1_555
C55_16 C54_16 1_555 1_555
C56_16 C57_16 1_555 1_555
C61_16 C62_16 1_555 1_555
C62_16 N25_16 1_555 1_555
C63_16 C53_16 1_555 1_555
C64_16 C63_16 1_555 1_555
C65_16 C64_16 1_555 1_555
C66_16 C67_16 1_555 1_555
C67_16 N27_16 1_555 1_555
C68_16 C67_16 1_555 1_555
C69_16 C68_16 1_555 1_555
C70_16 C69_16 1_555 1_555
C106_16 C107_16 1_555 1_555
C107_16 N43_16 1_555 1_555
C108_16 C107_16 1_555 1_555
C109_16 C108_16 1_555 1_555
C110_16 C109_16 1_555 1_555
C111_16 C112_16 1_555 1_555
C112_16 N45_16 1_555 1_555
C113_16 C18_16 1_555 1_555
C114_16 C113_16 1_555 1_555
C115_16 C114_16 1_555 1_555
C116_16 C117_16 1_555 1_555
C117_16 N63_10 1_555 1_555
C118_16 C108_16 1_555 1_555
C119_16 C118_16 1_555 1_555
C120_16 C119_16 1_555 1_555
C122_16 N49_16 1_555 1_555
C123_16 C8_16 1_555 1_555
C124_16 C123_16 1_555 1_555
C125_16 C124_16 1_555 1_555
C136_16 C137_16 1_555 1_555
C137_16 N55_16 1_555 1_555
C138_16 C28_16 1_555 1_555
C146_16 C147_16 1_555 1_555
C147_16 N59_16 1_555 1_555
C148_16 C68_16 1_555 1_555
C149_16 C148_16 1_555 1_555
C150_16 C149_16 1_555 1_555
Ag2_16 N2_16 1_555 1_555
Ag3_16 N4_16 1_555 1_555
Ag4_16 N7_16 1_555 1_555
Ag5_16 N8_16 1_555 1_555
Ag6_16 N10_16 1_555 1_555
Ag12_16 N22_16 1_555 1_555
Ag14_16 N26_16 1_555 1_555
Ag33_6 N43_16 1_555 1_555
Ag23_16 N44_16 1_555 1_555
Ag34_6 N46_16 1_555 1_555
Ag35_6 N49_16 1_555 1_555
Ag26_8 N50_16 1_555 1_555
Ag40_10 N59_16 1_555 1_555
H4_16 C5_16 1_555 1_555
H5_16 C5_16 1_555 1_555
H6_16 C5_16 1_555 1_555
H7_16 C6_16 1_555 1_555
H8_16 C6_16 1_555 1_555
H9_16 C6_16 1_555 1_555
H19_16 C16_16 1_555 1_555
H20_16 C16_16 1_555 1_555
H21_16 C16_16 1_555 1_555
H22_16 C20_16 1_555 1_555
H23_16 C20_16 1_555 1_555
H24_16 C20_16 1_555 1_555
H25_16 C21_16 1_555 1_555
H26_16 C21_16 1_555 1_555
H27_16 C21_16 1_555 1_555
H34_16 C30_16 1_555 1_555
H35_16 C30_16 1_555 1_555
H36_16 C30_16 1_555 1_555
H61_16 C51_16 1_555 1_555
H62_16 C51_16 1_555 1_555
H63_16 C51_16 1_555 1_555
H64_16 C55_16 1_555 1_555
H65_16 C55_16 1_555 1_555
H66_16 C55_16 1_555 1_555
H67_16 C56_16 1_555 1_555
H68_16 C56_16 1_555 1_555
H69_16 C56_16 1_555 1_555
H74_16 C61_16 1_555 1_555
H75_16 C61_16 1_555 1_555
H76_16 C65_16 1_555 1_555
H77_16 C65_16 1_555 1_555
H78_16 C65_16 1_555 1_555
H79_16 C66_16 1_555 1_555
H80_16 C66_16 1_555 1_555
H81_16 C66_16 1_555 1_555
H82_16 C70_16 1_555 1_555
H83_16 C70_16 1_555 1_555
H127_16 C106_16 1_555 1_555
H128_16 C106_16 1_555 1_555
H129_16 C106_16 1_555 1_555
H130_16 C110_16 1_555 1_555
H131_16 C110_16 1_555 1_555
H132_16 C110_16 1_555 1_555
H133_16 C111_16 1_555 1_555
H134_16 C111_16 1_555 1_555
H135_16 C111_16 1_555 1_555
H136_16 C115_16 1_555 1_555
H137_16 C115_16 1_555 1_555
H138_16 C115_16 1_555 1_555
H139_16 C116_16 1_555 1_555
H140_16 C116_16 1_555 1_555
H141_16 C116_16 1_555 1_555
H142_16 C120_16 1_555 1_555
H143_16 C120_16 1_555 1_555
H144_16 C120_16 1_555 1_555
H148_16 C125_16 1_555 1_555
H149_16 C125_16 1_555 1_555
H150_16 C125_16 1_555 1_555
H163_16 C136_16 1_555 1_555
H164_16 C136_16 1_555 1_555
H165_16 C136_16 1_555 1_555
H175_16 C146_16 1_555 1_555
H176_16 C146_16 1_555 1_555
H177_16 C146_16 1_555 1_555
H178_16 C150_16 1_555 1_555
H179_16 C150_16 1_555 1_555
H180_16 C150_16 1_555 1_555
N65_8 Ag26_8 1_555 1_555
N3_16 Ag2_16 1_555 1_555
N9_16 Ag5_16 1_555 1_555
N11_16 Ag6_16 1_555 1_555
N12_16 Ag4_16 1_555 1_555
N27_16 Ag14_16 1_555 1_555
N45_16 Ag23_16 1_555 1_555
C62_16 C63_16 1_555 1_555
C112_16 C113_16 1_555 1_555
C117_16 C118_16 1_555 1_555
C122_16 C123_16 1_555 1_555
C137_16 C138_16 1_555 1_555
C147_16 C148_16 1_555 1_555
N29_16 N30_16 1_555 1_555
N30_16 C74_16 1_555 1_555
N65_8 N52_16 1_555 1_555
N52_16 C129_16 1_555 1_555
C71_16 C72_16 1_555 1_555
C72_16 N29_16 1_555 1_555
C73_16 C72_16 1_555 1_555
C74_16 C73_16 1_555 1_555
C75_16 C74_16 1_555 1_555
C126_16 C127_16 1_555 1_555
C127_16 N65_8 1_555 1_555
C128_16 C73_16 1_555 1_555
C129_16 C128_16 1_555 1_555
C130_16 C129_16 1_555 1_555
Ag37_6 N52_16 1_555 1_555
H85_16 C71_16 1_555 1_555
H86_16 C71_16 1_555 1_555
H87_16 C71_16 1_555 1_555
H88_16 C75_16 1_555 1_555
H89_16 C75_16 1_555 1_555
H90_16 C75_16 1_555 1_555
H151_16 C126_16 1_555 1_555
H152_16 C126_16 1_555 1_555
H153_16 C126_16 1_555 1_555
H154_16 C130_16 1_555 1_555
H155_16 C130_16 1_555 1_555
H156_16 C130_16 1_555 1_555
N29_16 Ag15_16 1_555 1_555
N30_16 Ag13_16 1_555 1_555
C127_16 C128_16 1_555 1_555
N68_8 Ag29_8 1_555 1_555
N5_16 N6_16 1_555 1_555
N6_16 C14_16 1_555 1_555
N13_16 N14_16 1_555 1_555
N14_16 C34_16 1_555 1_555
N15_16 N16_16 1_555 1_555
N16_16 C39_16 1_555 1_555
N17_16 N18_16 1_555 1_555
N18_16 C44_16 1_555 1_555
N19_16 N20_16 1_555 1_555
N20_16 C49_16 1_555 1_555
N23_16 N24_16 1_555 1_555
N24_16 C59_16 1_555 1_555
N31_16 N32_16 1_555 1_555
N32_16 C79_16 1_555 1_555
N33_16 N34_16 1_555 1_555
N34_16 C84_16 1_555 1_555
N35_16 N36_16 1_555 1_555
N36_16 C89_16 1_555 1_555
N66_10 N67_10 1_555 1_555
N67_10 C134_16 1_555 1_555
N56_16 C139_16 1_555 1_555
N68_8 N69_6 1_555 1_555
N69_6 C144_16 1_555 1_555
C1_16 C2_16 1_555 1_555
C2_16 N1_16 1_555 1_555
C14_16 C13_16 1_555 1_555
C15_16 C14_16 1_555 1_555
C24_16 C23_16 1_555 1_555
C25_16 C24_16 1_555 1_555
C31_16 C32_16 1_555 1_555
C32_16 N13_16 1_555 1_555
C33_16 C23_16 1_555 1_555
C34_16 C33_16 1_555 1_555
C35_16 C34_16 1_555 1_555
C36_16 C37_16 1_555 1_555
C37_16 N15_16 1_555 1_555
C38_16 C37_16 1_555 1_555
C39_16 C38_16 1_555 1_555
C40_16 C39_16 1_555 1_555
C41_16 C42_16 1_555 1_555
C42_16 N17_16 1_555 1_555
C43_16 C42_16 1_555 1_555
C44_16 C43_16 1_555 1_555
C45_16 C44_16 1_555 1_555
C46_16 C47_16 1_555 1_555
C47_16 N19_16 1_555 1_555
C48_16 C38_16 1_555 1_555
C49_16 C48_16 1_555 1_555
C50_16 C49_16 1_555 1_555
C59_16 C58_16 1_555 1_555
C60_16 C59_16 1_555 1_555
C76_16 C77_16 1_555 1_555
C77_16 N31_16 1_555 1_555
C78_16 C77_16 1_555 1_555
C79_16 C78_16 1_555 1_555
C80_16 C79_16 1_555 1_555
C81_16 C82_16 1_555 1_555
C82_16 N33_16 1_555 1_555
C83_16 C43_16 1_555 1_555
C84_16 C83_16 1_555 1_555
C85_16 C84_16 1_555 1_555
C86_16 C87_16 1_555 1_555
C87_16 N35_16 1_555 1_555
C88_16 C87_16 1_555 1_555
C89_16 C88_16 1_555 1_555
C90_16 C89_16 1_555 1_555
C101_16 C102_16 1_555 1_555
C102_16 N41_16 1_555 1_555
C103_16 C13_16 1_555 1_555
C131_16 C132_16 1_555 1_555
C132_16 N66_10 1_555 1_555
C133_16 C88_16 1_555 1_555
C134_16 C133_16 1_555 1_555
C135_16 C134_16 1_555 1_555
C140_16 C139_16 1_555 1_555
C141_16 C142_16 1_555 1_555
C142_16 N68_8 1_555 1_555
C143_16 C78_16 1_555 1_555
C144_16 C143_16 1_555 1_555
C145_16 C144_16 1_555 1_555
Ag1_16 N1_16 1_555 1_555
Ag7_16 N13_16 1_555 1_555
Ag8_16 N14_16 1_555 1_555
Ag9_16 N16_16 1_555 1_555
Ag10_16 N19_16 1_555 1_555
Ag11_16 N20_16 1_555 1_555
Ag16_16 N31_16 1_555 1_555
Ag17_16 N32_16 1_555 1_555
Ag18_16 N34_16 1_555 1_555
Ag32_10 N41_16 1_555 1_555
H1_16 C1_16 1_555 1_555
H2_16 C1_16 1_555 1_555
H3_16 C1_16 1_555 1_555
H16_16 C15_16 1_555 1_555
H17_16 C15_16 1_555 1_555
H18_16 C15_16 1_555 1_555
H28_16 C25_16 1_555 1_555
H29_16 C25_16 1_555 1_555
H30_16 C25_16 1_555 1_555
H31_16 C26_16 1_555 1_555
H32_16 C26_16 1_555 1_555
H33_16 C26_16 1_555 1_555
H37_16 C31_16 1_555 1_555
H38_16 C31_16 1_555 1_555
H39_16 C31_16 1_555 1_555
H40_16 C35_16 1_555 1_555
H41_16 C35_16 1_555 1_555
H43_16 C36_16 1_555 1_555
H44_16 C36_16 1_555 1_555
H45_16 C36_16 1_555 1_555
H46_16 C40_16 1_555 1_555
H47_16 C40_16 1_555 1_555
H48_16 C40_16 1_555 1_555
H49_16 C41_16 1_555 1_555
H50_16 C41_16 1_555 1_555
H51_16 C41_16 1_555 1_555
H52_16 C45_16 1_555 1_555
H53_16 C45_16 1_555 1_555
H54_16 C45_16 1_555 1_555
H55_16 C46_16 1_555 1_555
H56_16 C46_16 1_555 1_555
H57_16 C46_16 1_555 1_555
H58_16 C50_16 1_555 1_555
H59_16 C50_16 1_555 1_555
H60_16 C50_16 1_555 1_555
H70_16 C60_16 1_555 1_555
H71_16 C60_16 1_555 1_555
H72_16 C60_16 1_555 1_555
H91_16 C76_16 1_555 1_555
H92_16 C76_16 1_555 1_555
H93_16 C76_16 1_555 1_555
H94_16 C80_16 1_555 1_555
H95_16 C80_16 1_555 1_555
H96_16 C80_16 1_555 1_555
H97_16 C81_16 1_555 1_555
H98_16 C81_16 1_555 1_555
H99_16 C81_16 1_555 1_555
H100_16 C85_16 1_555 1_555
H101_16 C85_16 1_555 1_555
H102_16 C85_16 1_555 1_555
H103_16 C86_16 1_555 1_555
H104_16 C86_16 1_555 1_555
H105_16 C86_16 1_555 1_555
H106_16 C90_16 1_555 1_555
H107_16 C90_16 1_555 1_555
H108_16 C90_16 1_555 1_555
H121_16 C101_16 1_555 1_555
H122_16 C101_16 1_555 1_555
H123_16 C101_16 1_555 1_555
H157_16 C131_16 1_555 1_555
H158_16 C131_16 1_555 1_555
H159_16 C131_16 1_555 1_555
H160_16 C135_16 1_555 1_555
H161_16 C135_16 1_555 1_555
H162_16 C135_16 1_555 1_555
H167_16 C140_16 1_555 1_555
H168_16 C140_16 1_555 1_555
H169_16 C141_16 1_555 1_555
H170_16 C141_16 1_555 1_555
H171_16 C141_16 1_555 1_555
H172_16 C145_16 1_555 1_555
H173_16 C145_16 1_555 1_555
H174_16 C145_16 1_555 1_555
N6_16 Ag1_16 1_555 1_555
N15_16 Ag8_16 1_555 1_555
N17_16 Ag9_16 1_555 1_555
N18_16 Ag7_16 1_555 1_555
N24_16 Ag10_16 1_555 1_555
N33_16 Ag17_16 1_555 1_555
N35_16 Ag18_16 1_555 1_555
N36_16 Ag16_16 1_555 1_555
C32_16 C33_16 1_555 1_555
C47_16 C48_16 1_555 1_555
C82_16 C83_16 1_555 1_555
C102_16 C103_16 1_555 1_555
C132_16 C133_16 1_555 1_555
C142_16 C143_16 1_555 1_555
N37_16 N38_16 1_555 1_555
N38_16 C94_16 1_555 1_555
N62_6 C99_16 1_555 1_555
N42_16 C104_16 1_555 1_555
C11_16 C12_16 1_555 1_555
C91_16 C92_16 1_555 1_555
C92_16 N37_16 1_555 1_555
C93_16 C92_16 1_555 1_555
C94_16 C93_16 1_555 1_555
C95_16 C94_16 1_555 1_555
C96_16 C97_16 1_555 1_555
C97_16 N61_6 1_555 1_555
C98_16 C93_16 1_555 1_555
C99_16 C98_16 1_555 1_555
C100_16 C99_16 1_555 1_555
C105_16 C104_16 1_555 1_555
Ag19_16 N37_16 1_555 1_555
Ag31_10 N38_16 1_555 1_555
H13_16 C11_16 1_555 1_555
H14_16 C11_16 1_555 1_555
H109_16 C91_16 1_555 1_555
H110_16 C91_16 1_555 1_555
H111_16 C91_16 1_555 1_555
H112_16 C95_16 1_555 1_555
H113_16 C95_16 1_555 1_555
H114_16 C95_16 1_555 1_555
H115_16 C96_16 1_555 1_555
H116_16 C96_16 1_555 1_555
H117_16 C96_16 1_555 1_555
H118_16 C100_16 1_555 1_555
H119_16 C100_16 1_555 1_555
H120_16 C100_16 1_555 1_555
H124_16 C105_16 1_555 1_555
H125_16 C105_16 1_555 1_555
H126_16 C105_16 1_555 1_555
N42_16 Ag19_16 1_555 1_555
C97_16 C98_16 1_555 1_555
H10_16 C10_16 1_555 1_555
H11_16 C10_16 1_555 1_555
H145_16 C121_16 1_555 1_555
H146_16 C121_16 1_555 1_555
H147_16 C121_16 1_555 1_555

#END
