
###############################################################################
#
# This file contains modified crystal structure data generated from the
# MOF subset of the Cambridge Structural Database (CSD) v543 
# hosted by the Cambridge Crystallographic Data Centre (CCDC).
#
# This work is licensed under the Creative Commons
# Attribution-NonCommercial-ShareAlike 4.0 International License.
# To view a copy of this license, visit
# http://creativecommons.org/licenses/by-nc-sa/4.0/
# or send a letter to
# Creative Commons, PO Box 1866, Mountain View, CA 94042, USA.
#
# CIF created using the CSD Python API on 29 September 2022
# The structure has been converted into the P1 space group
# The structure has a 3D framework
# The original CSD entry YEYYAC is in the hexagonal crystal system
# The original CSD entry YEYYAC is in a Sohncke space group
# The framework has been calculated to contain at least 10.0% void space
# The void calculation uses a probe of radius 1.32A, grid spacing 0.4
#
###############################################################################

data_YEYYAC
_chemical_formula_moiety         '(C108 H144 Co10 O72 P12)n'
_symmetry_cell_setting           triclinic
_symmetry_space_group_name_H-M   'P 1'
_symmetry_Int_Tables_number      1
_space_group_name_Hall           'P 1'
loop_
_symmetry_equiv_pos_site_id
_symmetry_equiv_pos_as_xyz
1 x,y,z
_cell_length_a                   11.431(2)
_cell_length_b                   11.431(2)
_cell_length_c                   46.600(4)
_cell_angle_alpha                90
_cell_angle_beta                 90
_cell_angle_gamma                120
_cell_volume                     5273.33
loop_
_atom_site_label
_atom_site_type_symbol
_atom_site_fract_x
_atom_site_fract_y
_atom_site_fract_z
Co7 Co 0.00061(11) 0.98999(8) 0.1667
O1 O 0.4747(4) 0.2302(5) 0.0621(1)
O2 O 0.4168(5) 0.0518(5) 0.0890(1)
C1 C 0.1569(6) 0.0785(7) 0.0678(2)
C2 C 0.2548(6) 0.0384(7) 0.0547(1)
C3 C 0.3903(6) 0.1087(7) 0.0701(1)
Co2 Co 0.65932(9) 0.31911(8) 0.07924(2)
P2 P 0.6678(2) 0.3199(2) 0.13059(4)
O8 O 0.9428(4) 0.1765(5) 0.1700(1)
O9 O 0.1626(4) 0.1395(4) 0.1467(1)
O10 O 0.2536(5) 0.0484(5) 0.1733(1)
O11 O 0.9875(4) 0.8294(5) 0.1470(1)
O12 O 0.8122(5) 0.7294(5) 0.1758(1)
C10 C 0.7852(6) 0.2746(6) 0.1464(1)
C11 C 0.7536(7) 0.1329(7) 0.1403(2)
C12 C 0.8536(6) 0.0988(6) 0.1533(2)
C13 C 0.5093(6) 0.2023(6) 0.1483(2)
C14 C 0.3995(6) 0.2368(6) 0.1432(2)
C15 C 0.2647(7) 0.1322(7) 0.1555(2)
C16 C 0.7112(6) 0.4775(6) 0.1488(2)
C17 C 0.8537(7) 0.5928(6) 0.1422(2)
C18 C 0.8826(6) 0.7243(6) 0.1562(2)
H1 H 0.1946 0.1751 0.0657
H2 H 0.1480 0.0583 0.0882
H4 H 0.2680 0.0627 0.0345
H11 H 0.0318 0.2693 0.0560
H13 H 0.8753 0.3366 0.1393
H14 H 0.7861 0.2864 0.1670
H15 H 0.7519 0.1203 0.1196
H16 H 0.6643 0.0704 0.1476
H17 H 0.4791 0.1117 0.1413
H18 H 0.5250 0.2030 0.1688
H19 H 0.3897 0.2444 0.1227
H20 H 0.4261 0.3239 0.1518
H21 H 0.6466 0.5050 0.1433
H22 H 0.7030 0.4616 0.1693
H23 H 0.9190 0.5685 0.1489
H24 H 0.8642 0.6057 0.1216
O13 O 0.7439(5) 0.4952(5) 0.0579(1)
O14 O 0.7305(5) 0.2078(5) 0.0616(1)
O7 O 0.8441(4) 0.9870(5) 0.1459(1)
H3 H 0.2162 0.9413 0.0561
O16 O 0.1395(4) 0.9769(6) 0.9800(1)
O6 O 0.9127(5) 0.3734(5) 0.0796(1)
C7 C 0.9029(6) 0.0728(6) 0.0677(2)
C8 C 0.9361(8) 0.2059(7) 0.0537(2)
C9 C 0.8577(7) 0.2671(7) 0.0658(2)
H9 H 0.8062 0.0117 0.0667
H10 H 0.9275 0.0889 0.0879
H12 H 0.9178 0.1911 0.0333
O15 O 0.9870(5) 0.1429(6) 0.9792(1)
Co1 Co 0.98999(8) 0.98938(8) 0.0000
P1 P 0.9894(2) 0.9911(2) 0.05127(3)
O4 O 0.6384(5) 0.5586(5) 0.0882(1)
C4 C 0.9104(7) 0.8244(6) 0.0685(2)
C5 C 0.7806(6) 0.7207(6) 0.0526(2)
C6 C 0.7152(6) 0.5828(6) 0.0676(2)
H5 H 0.9742 0.7919 0.0688
H6 H 0.8881 0.8327 0.0882
H7 H 0.7169 0.7534 0.0520
H8 H 0.8028 0.7109 0.0330
Co1_2 Co 0.98999(8) 0.98938(8) 1.0000
O17 O 0.8294(5) 0.8419(6) 0.9803(1)
Co5 Co 0.01001(8) 0.01062(14) 0.5000
Co1_3 Co 0.01062(8) 0.00061(11) 0.3333
O3 O 0.5048(5) 0.2487(7) 0.3912(1)
O4_2 O 0.4414(5) 0.0798(7) 0.4215(1)
C4_2 C 0.1756(6) 0.0860(9) 0.4018(2)
C5_2 C 0.2793(6) 0.0599(8) 0.3859(2)
C6_2 C 0.4172(6) 0.1324(8) 0.4009(2)
O7_2 O 0.0130(5) 0.8571(6) 0.4792(1)
H3_2 H 0.0587 0.2749 0.3894
H5_2 H 0.2081 0.1823 0.4021
H6_2 H 0.1673 0.0554 0.4215
H8_2 H 0.2891 0.0919 0.3663
Co3 Co 0.68089(8) 0.34021(12) 0.41257(2)
O16_2 O 0.0231(6) 0.1626(7) 0.3134(1)
P1_2 P 0.0089(2) 0.9983(3) 0.38460(3)
H7_2 H 0.2466 0.9635 0.3853
O17_2 O 0.1581(6) 0.9875(8) 0.3137(1)
O1_2 O 0.7698(5) 0.2445(6) 0.3954(1)
O2_2 O 0.9482(5) 0.3650(7) 0.4223(1)
C1_2 C 0.9215(7) 0.0784(9) 0.4011(2)
C2_2 C 0.9616(7) 0.2164(9) 0.3880(1)
C3_2 C 0.8913(7) 0.2816(9) 0.4034(1)
P2_2 P 0.6801(2) 0.3479(3) 0.46392(4)
O8_2 O 0.8235(5) 0.7663(6) 0.5033(1)
O9_2 O 0.8605(4) 0.0231(6) 0.4800(1)
O10_2 O 0.9516(5) 0.2052(7) 0.5066(1)
O11_2 O 0.1706(5) 0.1581(6) 0.4803(1)
O12_2 O 0.2706(5) 0.0828(7) 0.5091(1)
C10_2 C 0.7254(6) 0.5106(8) 0.4797(1)
C11_2 C 0.8671(7) 0.6207(10) 0.4736(2)
C12_2 C 0.9012(6) 0.7548(8) 0.4866(2)
C13_2 C 0.7977(6) 0.3070(8) 0.4816(2)
C14_2 C 0.7632(6) 0.1627(8) 0.4765(2)
C15_2 C 0.8678(7) 0.1325(10) 0.4888(2)
C16_2 C 0.5225(6) 0.2337(8) 0.4821(2)
C17_2 C 0.4072(6) 0.2609(9) 0.4755(2)
C18_2 C 0.2757(6) 0.1583(8) 0.4895(2)
H1_2 H 0.8249 0.0195 0.3990
H2_2 H 0.9417 0.0897 0.4215
H4_2 H 0.9373 0.2053 0.3678
H13_2 H 0.6634 0.5387 0.4726
H14_2 H 0.7136 0.4997 0.5003
H15_2 H 0.8797 0.6316 0.4529
H16_2 H 0.9296 0.5939 0.4809
H17_2 H 0.8883 0.3674 0.4746
H18_2 H 0.7970 0.3220 0.5021
H19_2 H 0.7556 0.1453 0.4560
H20_2 H 0.6761 0.1022 0.4851
H21_2 H 0.4950 0.1416 0.4766
H22_2 H 0.5384 0.2414 0.5026
H23_2 H 0.4315 0.3505 0.4822
H24_2 H 0.3943 0.2585 0.4549
O14_2 O 0.7922(5) 0.5227(7) 0.3949(1)
O6_2 O 0.6266(5) 0.5393(7) 0.4129(1)
C7_2 C 0.9272(6) 0.8301(8) 0.4010(2)
C8_2 C 0.7941(7) 0.7302(11) 0.3870(2)
C9_2 C 0.7329(7) 0.5906(10) 0.3991(2)
H9_2 H 0.9883 0.7945 0.4000
H10_2 H 0.9111 0.8386 0.4212
H11_2 H 0.7307 0.7625 0.3893
H12_2 H 0.8089 0.7267 0.3666
O15_2 O 0.8571(6) 0.8441(8) 0.3126(1)
P1_3 P 0.0017(3) 0.0106(2) 0.71794(3)
O5 O 0.4773(7) 0.2695(5) 0.7283(1)
O6_3 O 0.4607(7) 0.0873(5) 0.7463(1)
C7_3 C 0.1699(8) 0.0971(6) 0.7344(2)
C8_3 C 0.2698(11) 0.0639(8) 0.7204(2)
C9_3 C 0.4094(10) 0.1423(7) 0.7325(2)
H7_3 H 0.0365 0.2831 0.7187
H9_3 H 0.2055 0.1938 0.7334
H10_3 H 0.1614 0.0725 0.7546
H12_3 H 0.2733 0.0822 0.7000
Co4 Co 0.65979(12) 0.34068(9) 0.74591(2)
O15_3 O 0.1559(8) 0.0130(5) 0.6459(1)
O17_3 O 0.0125(8) 0.1706(5) 0.6470(1)
Co1_4 Co 0.99939(11) 0.01001(8) 0.6667
O3_2 O 0.7513(7) 0.2561(5) 0.7246(1)
O4_3 O 0.9202(7) 0.3616(5) 0.7549(1)
C4_3 C 0.9140(9) 0.0896(7) 0.7352(2)
C5_3 C 0.9401(8) 0.2194(6) 0.7193(2)
C6_3 C 0.8676(8) 0.2848(6) 0.7343(2)
H5_3 H 0.8177 0.0258 0.7355
H6_3 H 0.9446 0.1119 0.7549
H8_3 H 0.9081 0.1972 0.6997
O1_3 O 0.7555(6) 0.5253(4) 0.7288(1)
O2_3 O 0.6350(7) 0.5832(5) 0.7557(1)
C1_3 C 0.9216(9) 0.8431(6) 0.7345(2)
C2_3 C 0.7836(9) 0.7452(6) 0.7214(1)
C3_3 C 0.7184(9) 0.6097(6) 0.7368(1)
P2_3 P 0.6521(3) 0.3322(2) 0.79726(4)
O7_3 O 0.1429(6) 0.1559(4) 0.8126(1)
O8_3 O 0.2337(6) 0.0572(4) 0.8367(1)
O9_3 O 0.9769(6) 0.8374(4) 0.8134(1)
O10_3 O 0.7948(7) 0.7464(5) 0.8400(1)
O11_3 O 0.8419(6) 0.0125(4) 0.8137(1)
O12_3 O 0.9172(7) 0.1878(5) 0.8425(1)
C10_3 C 0.4894(8) 0.2148(6) 0.8131(1)
C11_3 C 0.3793(10) 0.2464(7) 0.8070(2)
C12_3 C 0.2452(8) 0.1464(6) 0.8200(2)
C13_3 C 0.6930(8) 0.4907(6) 0.8150(2)
C14_3 C 0.8373(8) 0.6005(6) 0.8099(2)
C15_3 C 0.8675(10) 0.7353(7) 0.8222(2)
C16_3 C 0.7663(8) 0.2888(6) 0.8155(2)
C17_3 C 0.7391(9) 0.1463(7) 0.8089(2)
C18_3 C 0.8417(8) 0.1174(6) 0.8229(2)
H1_3 H 0.9805 0.8054 0.7324
H2_3 H 0.9103 0.8520 0.7549
H3_3 H 0.7251 0.7838 0.7228
H4_3 H 0.7947 0.7320 0.7012
H13_3 H 0.4613 0.1247 0.8060
H14_3 H 0.5003 0.2139 0.8337
H15_3 H 0.3684 0.2481 0.7863
H16_3 H 0.4061 0.3357 0.8143
H17_3 H 0.6326 0.5209 0.8080
H18_3 H 0.6780 0.4750 0.8355
H19_3 H 0.8547 0.6103 0.7894
H20_3 H 0.8978 0.5739 0.8185
H21_3 H 0.8584 0.3534 0.8100
H22_3 H 0.7586 0.2970 0.8360
H23_3 H 0.6495 0.0810 0.8156
H24_3 H 0.7415 0.1358 0.7883
O16_3 O 0.8374(7) 0.8605(4) 0.6467(1)
Co6 Co 0.98938(14) 0.99939(11) 0.8333
P1_4 P 0.0106(2) 0.0089(2) 0.55127(3)
O3_3 O 0.2561(5) 0.5048(5) 0.5579(1)
O4_4 O 0.3616(5) 0.4414(5) 0.5882(1)
C4_4 C 0.0896(7) 0.1756(6) 0.5685(2)
C5_4 C 0.2194(6) 0.2793(6) 0.5526(2)
C6_4 C 0.2848(6) 0.4172(6) 0.5676(2)
H5_4 H 0.0258 0.2081 0.5688
H6_4 H 0.1119 0.1673 0.5882
H7_4 H 0.2831 0.2466 0.5520
H8_4 H 0.1972 0.2891 0.5330
Co3_2 Co 0.34068(9) 0.68089(8) 0.57924(2)
O5_2 O 0.2695(5) 0.7922(5) 0.5616(1)
O6_4 O 0.0873(5) 0.6266(5) 0.5796(1)
C7_4 C 0.0971(6) 0.9272(6) 0.5677(2)
C8_4 C 0.0639(8) 0.7941(7) 0.5537(2)
C9_4 C 0.1423(7) 0.7329(7) 0.5658(2)
H9_4 H 0.1938 0.9883 0.5667
H10_4 H 0.0725 0.9111 0.5879
H12_4 H 0.0822 0.8089 0.5333
H3_4 H 0.7838 0.0587 0.5561
O1_4 O 0.5253(4) 0.7698(5) 0.5621(1)
O2_4 O 0.5832(5) 0.9482(5) 0.5890(1)
C1_4 C 0.8431(6) 0.9215(7) 0.5678(2)
C2_4 C 0.7452(6) 0.9616(7) 0.5547(1)
C3_4 C 0.6097(6) 0.8913(7) 0.5701(1)
P2_4 P 0.3322(2) 0.6801(2) 0.63059(4)
O8_4 O 0.0572(4) 0.8235(5) 0.6700(1)
O10_4 O 0.7464(5) 0.9516(5) 0.6733(1)
O12_4 O 0.1878(5) 0.2706(5) 0.6758(1)
C10_4 C 0.2148(6) 0.7254(6) 0.6464(1)
C11_4 C 0.2464(7) 0.8671(7) 0.6403(2)
C12_4 C 0.1464(6) 0.9012(6) 0.6533(2)
C13_4 C 0.4907(6) 0.7977(6) 0.6483(2)
C14_4 C 0.6005(6) 0.7632(6) 0.6432(2)
C15_4 C 0.7353(7) 0.8678(7) 0.6555(2)
C16_4 C 0.2888(6) 0.5225(6) 0.6488(2)
C17_4 C 0.1463(7) 0.4072(6) 0.6422(2)
C18_4 C 0.1174(6) 0.2757(6) 0.6562(2)
H1_4 H 0.8054 0.8249 0.5657
H2_4 H 0.8520 0.9417 0.5882
H4_4 H 0.7320 0.9373 0.5345
H11_3 H 0.9682 0.7307 0.5560
H13_4 H 0.1247 0.6634 0.6393
H14_4 H 0.2139 0.7136 0.6670
H15_4 H 0.2481 0.8797 0.6196
H16_4 H 0.3357 0.9296 0.6476
H17_4 H 0.5209 0.8883 0.6413
H18_4 H 0.4750 0.7970 0.6688
H19_4 H 0.6103 0.7556 0.6227
H20_4 H 0.5739 0.6761 0.6518
H21_4 H 0.3534 0.4950 0.6433
H22_4 H 0.2970 0.5384 0.6693
H23_4 H 0.0810 0.4315 0.6489
H24_4 H 0.1358 0.3943 0.6216
O5_3 O 0.2078(5) 0.4773(7) 0.8949(1)
O6_5 O 0.3734(5) 0.4607(7) 0.9129(1)
C7_5 C 0.0728(6) 0.1699(8) 0.9010(2)
C8_5 C 0.2059(7) 0.2698(11) 0.8870(2)
C9_5 C 0.2671(7) 0.4094(10) 0.8991(2)
H9_5 H 0.0117 0.2055 0.9000
H10_5 H 0.0889 0.1614 0.9212
H11_4 H 0.2693 0.2375 0.8893
H12_5 H 0.1911 0.2733 0.8666
Co4_2 Co 0.31911(8) 0.65979(12) 0.91257(2)
O8_5 O 0.1765(5) 0.2337(6) 0.0033(1)
O10_5 O 0.0484(5) 0.7948(7) 0.0066(1)
O12_5 O 0.7294(5) 0.9172(7) 0.0091(1)
H14_5 H 0.2864 0.5003 0.0003
H18_5 H 0.2030 0.6780 0.0021
H22_5 H 0.4616 0.7586 0.0026
O1_5 O 0.2302(5) 0.7555(6) 0.8954(1)
O2_5 O 0.0518(5) 0.6350(7) 0.9223(1)
C1_5 C 0.0785(7) 0.9216(9) 0.9011(2)
C2_5 C 0.0384(7) 0.7836(9) 0.8880(1)
C3_5 C 0.1087(7) 0.7184(9) 0.9034(1)
P2_5 P 0.3199(2) 0.6521(3) 0.96392(4)
C10_5 C 0.2746(6) 0.4894(8) 0.9797(1)
C11_5 C 0.1329(7) 0.3793(10) 0.9736(2)
C12_5 C 0.0988(6) 0.2452(8) 0.9866(2)
C13_5 C 0.2023(6) 0.6930(8) 0.9816(2)
C14_5 C 0.2368(6) 0.8373(8) 0.9765(2)
C15_5 C 0.1322(7) 0.8675(10) 0.9888(2)
C16_5 C 0.4775(6) 0.7663(8) 0.9821(2)
C17_5 C 0.5928(6) 0.7391(9) 0.9755(2)
C18_5 C 0.7243(6) 0.8417(8) 0.9895(2)
H1_5 H 0.1751 0.9805 0.8990
H2_5 H 0.0583 0.9103 0.9215
H4_5 H 0.0627 0.7947 0.8678
H13_5 H 0.3366 0.4613 0.9726
H15_5 H 0.1203 0.3684 0.9529
H16_5 H 0.0704 0.4061 0.9809
H17_5 H 0.1117 0.6326 0.9746
H19_5 H 0.2444 0.8547 0.9560
H20_5 H 0.3239 0.8978 0.9851
H21_5 H 0.5050 0.8584 0.9766
H23_5 H 0.5685 0.6495 0.9822
H24_5 H 0.6057 0.7415 0.9549
O13_2 O 0.4952(5) 0.7513(7) 0.8912(1)
P1_5 P 0.9911(2) 0.0017(3) 0.88460(3)
H7_5 H 0.7534 0.0365 0.8853
O4_5 O 0.5586(5) 0.9202(7) 0.9215(1)
C4_5 C 0.8244(6) 0.9140(9) 0.9018(2)
C5_5 C 0.7207(6) 0.9401(8) 0.8859(2)
C6_5 C 0.5828(6) 0.8676(8) 0.9009(2)
H3_5 H 0.9413 0.7251 0.8894
H5_5 H 0.7919 0.8177 0.9021
H6_5 H 0.8327 0.9446 0.9215
H8_5 H 0.7109 0.9081 0.8663
O1_6 O 0.2445(6) 0.4747(4) 0.2288(1)
O2_6 O 0.3650(7) 0.4168(5) 0.2557(1)
C1_6 C 0.0784(9) 0.1569(6) 0.2345(2)
C2_6 C 0.2164(9) 0.2548(6) 0.2214(1)
C3_6 C 0.2816(9) 0.3903(6) 0.2368(1)
Co2_2 Co 0.34021(12) 0.65932(9) 0.24591(2)
P2_6 P 0.3479(3) 0.6678(2) 0.29726(4)
O8_6 O 0.7663(6) 0.9428(4) 0.3367(1)
O10_6 O 0.2052(7) 0.2536(5) 0.3400(1)
O12_6 O 0.0828(7) 0.8122(5) 0.3425(1)
C10_6 C 0.5106(8) 0.7852(6) 0.3131(1)
C11_6 C 0.6207(10) 0.7536(7) 0.3070(2)
C12_6 C 0.7548(8) 0.8536(6) 0.3200(2)
C13_6 C 0.3070(8) 0.5093(6) 0.3150(2)
C14_6 C 0.1627(8) 0.3995(6) 0.3099(2)
C15_6 C 0.1325(10) 0.2647(7) 0.3222(2)
C16_6 C 0.2337(8) 0.7112(6) 0.3155(2)
C17_6 C 0.2609(9) 0.8537(7) 0.3089(2)
C18_6 C 0.1583(8) 0.8826(6) 0.3229(2)
H1_6 H 0.0195 0.1946 0.2324
H2_6 H 0.0897 0.1480 0.2549
H3_6 H 0.2749 0.2162 0.2228
H4_6 H 0.2053 0.2680 0.2012
H13_6 H 0.5387 0.8753 0.3060
H14_6 H 0.4997 0.7861 0.3337
H15_6 H 0.6316 0.7519 0.2863
H16_6 H 0.5939 0.6643 0.3143
H17_6 H 0.3674 0.4791 0.3080
H18_6 H 0.3220 0.5250 0.3355
H19_6 H 0.1453 0.3897 0.2894
H20_6 H 0.1022 0.4261 0.3185
H21_6 H 0.1416 0.6466 0.3100
H22_6 H 0.2414 0.7030 0.3360
H23_6 H 0.3505 0.9190 0.3156
H24_6 H 0.2585 0.8642 0.2883
O13_3 O 0.2487(7) 0.7439(5) 0.2246(1)
O14_3 O 0.5227(7) 0.7305(5) 0.2283(1)
O4_6 O 0.0798(7) 0.6384(5) 0.2549(1)
C4_6 C 0.0860(9) 0.9104(7) 0.2352(2)
C5_6 C 0.0599(8) 0.7806(6) 0.2193(2)
C6_6 C 0.1324(8) 0.7152(6) 0.2343(2)
H5_6 H 0.1823 0.9742 0.2355
H6_6 H 0.0554 0.8881 0.2549
H8_6 H 0.0919 0.8028 0.1997
P1_6 P 0.9983(3) 0.9894(2) 0.21794(3)
O6_6 O 0.5393(7) 0.9127(5) 0.2463(1)
C7_6 C 0.8301(8) 0.9029(6) 0.2344(2)
C8_6 C 0.7302(11) 0.9361(8) 0.2204(2)
C9_6 C 0.5906(10) 0.8577(7) 0.2325(2)
H7_6 H 0.9635 0.7169 0.2187
H9_6 H 0.7945 0.8062 0.2334
H10_6 H 0.8386 0.9275 0.2546
H12_6 H 0.7267 0.9178 0.2000
H11_5 H 0.2375 0.9682 0.7227
H11_6 H 0.7625 0.0318 0.2227
loop_
_geom_bond_atom_site_label_1
_geom_bond_atom_site_label_2
_geom_bond_site_symmetry_1
_geom_bond_site_symmetry_2
O1 C3 1_555 1_555
O2 C3 1_555 1_555
C1 C2 1_555 1_555
C2 C3 1_555 1_555
Co2 O1 1_555 1_555
P2 Co2 1_555 1_555
O8 C12 1_555 1_555
O9 C15 1_555 1_555
O10 C15 1_555 1_555
O11 C18 1_555 1_555
O12 C18 1_555 1_555
C10 P2 1_555 1_555
C11 C10 1_555 1_555
C12 C11 1_555 1_555
C13 P2 1_555 1_555
C14 C13 1_555 1_555
C15 C14 1_555 1_555
C16 P2 1_555 1_555
C17 C16 1_555 1_555
C18 C17 1_555 1_555
H1 C1 1_555 1_555
H2 C1 1_555 1_555
H4 C2 1_555 1_555
H13 C10 1_555 1_555
H14 C10 1_555 1_555
H15 C11 1_555 1_555
H16 C11 1_555 1_555
H17 C13 1_555 1_555
H18 C13 1_555 1_555
H19 C14 1_555 1_555
H20 C14 1_555 1_555
H21 C16 1_555 1_555
H22 C16 1_555 1_555
H23 C17 1_555 1_555
H24 C17 1_555 1_555
O13 Co2 1_555 1_555
O14 Co2 1_555 1_555
O14 C9 1_555 1_555
O6 C9 1_555 1_555
C8 C7 1_555 1_555
C9 C8 1_555 1_555
H9 C7 1_555 1_555
H10 C7 1_555 1_555
H12 C8 1_555 1_555
Co1 P1 1_555 1_555
O13 C6 1_555 1_555
O4 C6 1_555 1_555
C4 P1 1_555 1_555
C5 C4 1_555 1_555
C6 C5 1_555 1_555
H5 C4 1_555 1_555
H6 C4 1_555 1_555
H7 C5 1_555 1_555
H8 C5 1_555 1_555
O17 Co1_2 1_555 1_555
O3 C6_2 1_555 1_555
O4_2 C6_2 1_555 1_555
C5_2 C4_2 1_555 1_555
C6_2 C5_2 1_555 1_555
H5_2 C4_2 1_555 1_555
H6_2 C4_2 1_555 1_555
H8_2 C5_2 1_555 1_555
Co3 O3 1_555 1_555
O16_2 Co1_3 1_555 1_555
O1_2 C3_2 1_555 1_555
O2_2 C3_2 1_555 1_555
C1_2 C2_2 1_555 1_555
C2_2 C3_2 1_555 1_555
Co3 O1_2 1_555 1_555
P2_2 Co3 1_555 1_555
O8_2 C12_2 1_555 1_555
O9_2 C15_2 1_555 1_555
O10_2 C15_2 1_555 1_555
O11_2 C18_2 1_555 1_555
O12_2 C18_2 1_555 1_555
C10_2 P2_2 1_555 1_555
C11_2 C10_2 1_555 1_555
C12_2 C11_2 1_555 1_555
C13_2 P2_2 1_555 1_555
C14_2 C13_2 1_555 1_555
C15_2 C14_2 1_555 1_555
C16_2 P2_2 1_555 1_555
C17_2 C16_2 1_555 1_555
C18_2 C17_2 1_555 1_555
H1_2 C1_2 1_555 1_555
H2_2 C1_2 1_555 1_555
H4_2 C2_2 1_555 1_555
H13_2 C10_2 1_555 1_555
H14_2 C10_2 1_555 1_555
H15_2 C11_2 1_555 1_555
H16_2 C11_2 1_555 1_555
H17_2 C13_2 1_555 1_555
H18_2 C13_2 1_555 1_555
H19_2 C14_2 1_555 1_555
H20_2 C14_2 1_555 1_555
H21_2 C16_2 1_555 1_555
H22_2 C16_2 1_555 1_555
H23_2 C17_2 1_555 1_555
H24_2 C17_2 1_555 1_555
O14_2 Co3 1_555 1_555
Co5 O11_2 1_555 1_555
O14_2 C9_2 1_555 1_555
O6_2 C9_2 1_555 1_555
C8_2 C7_2 1_555 1_555
C9_2 C8_2 1_555 1_555
H9_2 C7_2 1_555 1_555
H10_2 C7_2 1_555 1_555
H11_2 C8_2 1_555 1_555
H12_2 C8_2 1_555 1_555
O5 C9_3 1_555 1_555
O6_3 C9_3 1_555 1_555
C7_3 P1_3 1_555 1_555
C8_3 C7_3 1_555 1_555
C9_3 C8_3 1_555 1_555
H9_3 C7_3 1_555 1_555
H10_3 C7_3 1_555 1_555
H12_3 C8_3 1_555 1_555
Co4 O5 1_555 1_555
O3_2 C6_3 1_555 1_555
O4_3 C6_3 1_555 1_555
C5_3 C4_3 1_555 1_555
C6_3 C5_3 1_555 1_555
H5_3 C4_3 1_555 1_555
H6_3 C4_3 1_555 1_555
H8_3 C5_3 1_555 1_555
Co4 O3_2 1_555 1_555
O1_3 C3_3 1_555 1_555
O2_3 C3_3 1_555 1_555
C1_3 C2_3 1_555 1_555
C2_3 C3_3 1_555 1_555
Co4 O1_3 1_555 1_555
P2_3 Co4 1_555 1_555
O7_3 C12_3 1_555 1_555
O8_3 C12_3 1_555 1_555
O9_3 C15_3 1_555 1_555
O10_3 C15_3 1_555 1_555
O11_3 C18_3 1_555 1_555
O12_3 C18_3 1_555 1_555
C10_3 P2_3 1_555 1_555
C11_3 C10_3 1_555 1_555
C12_3 C11_3 1_555 1_555
C13_3 P2_3 1_555 1_555
C14_3 C13_3 1_555 1_555
C15_3 C14_3 1_555 1_555
C16_3 P2_3 1_555 1_555
C17_3 C16_3 1_555 1_555
C18_3 C17_3 1_555 1_555
H1_3 C1_3 1_555 1_555
H2_3 C1_3 1_555 1_555
H3_3 C2_3 1_555 1_555
H4_3 C2_3 1_555 1_555
H13_3 C10_3 1_555 1_555
H14_3 C10_3 1_555 1_555
H15_3 C11_3 1_555 1_555
H16_3 C11_3 1_555 1_555
H17_3 C13_3 1_555 1_555
H18_3 C13_3 1_555 1_555
H19_3 C14_3 1_555 1_555
H20_3 C14_3 1_555 1_555
H21_3 C16_3 1_555 1_555
H22_3 C16_3 1_555 1_555
H23_3 C17_3 1_555 1_555
H24_3 C17_3 1_555 1_555
Co6 O9_3 1_555 1_555
Co5 P1_4 1_555 1_555
O3_3 C6_4 1_555 1_555
O4_4 C6_4 1_555 1_555
C4_4 P1_4 1_555 1_555
C5_4 C4_4 1_555 1_555
C6_4 C5_4 1_555 1_555
H5_4 C4_4 1_555 1_555
H6_4 C4_4 1_555 1_555
H7_4 C5_4 1_555 1_555
H8_4 C5_4 1_555 1_555
Co3_2 O3_3 1_555 1_555
O5_2 C9_4 1_555 1_555
O6_4 C9_4 1_555 1_555
C8_4 C7_4 1_555 1_555
C9_4 C8_4 1_555 1_555
H9_4 C7_4 1_555 1_555
H10_4 C7_4 1_555 1_555
H12_4 C8_4 1_555 1_555
Co3_2 O5_2 1_555 1_555
O1_4 C3_4 1_555 1_555
O2_4 C3_4 1_555 1_555
C1_4 C2_4 1_555 1_555
C2_4 C3_4 1_555 1_555
Co3_2 O1_4 1_555 1_555
P2_4 Co3_2 1_555 1_555
O8_4 C12_4 1_555 1_555
O16_3 C15_4 1_555 1_555
O10_4 C15_4 1_555 1_555
O17_3 C18_4 1_555 1_555
O12_4 C18_4 1_555 1_555
C10_4 P2_4 1_555 1_555
C11_4 C10_4 1_555 1_555
C12_4 C11_4 1_555 1_555
C13_4 P2_4 1_555 1_555
C14_4 C13_4 1_555 1_555
C15_4 C14_4 1_555 1_555
C16_4 P2_4 1_555 1_555
C17_4 C16_4 1_555 1_555
C18_4 C17_4 1_555 1_555
H1_4 C1_4 1_555 1_555
H2_4 C1_4 1_555 1_555
H4_4 C2_4 1_555 1_555
H13_4 C10_4 1_555 1_555
H14_4 C10_4 1_555 1_555
H15_4 C11_4 1_555 1_555
H16_4 C11_4 1_555 1_555
H17_4 C13_4 1_555 1_555
H18_4 C13_4 1_555 1_555
H19_4 C14_4 1_555 1_555
H20_4 C14_4 1_555 1_555
H21_4 C16_4 1_555 1_555
H22_4 C16_4 1_555 1_555
H23_4 C17_4 1_555 1_555
H24_4 C17_4 1_555 1_555
O5_3 C9_5 1_555 1_555
O6_5 C9_5 1_555 1_555
C8_5 C7_5 1_555 1_555
C9_5 C8_5 1_555 1_555
H9_5 C7_5 1_555 1_555
H10_5 C7_5 1_555 1_555
H11_4 C8_5 1_555 1_555
H12_5 C8_5 1_555 1_555
Co4_2 O5_3 1_555 1_555
O1_5 C3_5 1_555 1_555
O2_5 C3_5 1_555 1_555
C1_5 C2_5 1_555 1_555
C2_5 C3_5 1_555 1_555
Co4_2 O1_5 1_555 1_555
P2_5 Co4_2 1_555 1_555
O16 C15_5 1_555 1_555
O17 C18_5 1_555 1_555
C10_5 P2_5 1_555 1_555
C11_5 C10_5 1_555 1_555
C12_5 C11_5 1_555 1_555
C13_5 P2_5 1_555 1_555
C14_5 C13_5 1_555 1_555
C15_5 C14_5 1_555 1_555
C16_5 P2_5 1_555 1_555
C17_5 C16_5 1_555 1_555
C18_5 C17_5 1_555 1_555
H1_5 C1_5 1_555 1_555
H2_5 C1_5 1_555 1_555
H4_5 C2_5 1_555 1_555
H13_5 C10_5 1_555 1_555
H15_5 C11_5 1_555 1_555
H16_5 C11_5 1_555 1_555
H17_5 C13_5 1_555 1_555
H19_5 C14_5 1_555 1_555
H20_5 C14_5 1_555 1_555
H21_5 C16_5 1_555 1_555
H23_5 C17_5 1_555 1_555
H24_5 C17_5 1_555 1_555
O13_2 Co4_2 1_555 1_555
O13_2 C6_5 1_555 1_555
O4_5 C6_5 1_555 1_555
C5_5 C4_5 1_555 1_555
C6_5 C5_5 1_555 1_555
H5_5 C4_5 1_555 1_555
H6_5 C4_5 1_555 1_555
H8_5 C5_5 1_555 1_555
O1_6 C3_6 1_555 1_555
O2_6 C3_6 1_555 1_555
C1_6 C2_6 1_555 1_555
C2_6 C3_6 1_555 1_555
Co2_2 O1_6 1_555 1_555
P2_6 Co2_2 1_555 1_555
O15_2 C12_6 1_555 1_555
O8_6 C12_6 1_555 1_555
O16_2 C15_6 1_555 1_555
O10_6 C15_6 1_555 1_555
O17_2 C18_6 1_555 1_555
O12_6 C18_6 1_555 1_555
C10_6 P2_6 1_555 1_555
C11_6 C10_6 1_555 1_555
C12_6 C11_6 1_555 1_555
C13_6 P2_6 1_555 1_555
C14_6 C13_6 1_555 1_555
C15_6 C14_6 1_555 1_555
C16_6 P2_6 1_555 1_555
C17_6 C16_6 1_555 1_555
C18_6 C17_6 1_555 1_555
H1_6 C1_6 1_555 1_555
H2_6 C1_6 1_555 1_555
H3_6 C2_6 1_555 1_555
H4_6 C2_6 1_555 1_555
H13_6 C10_6 1_555 1_555
H14_6 C10_6 1_555 1_555
H15_6 C11_6 1_555 1_555
H16_6 C11_6 1_555 1_555
H17_6 C13_6 1_555 1_555
H18_6 C13_6 1_555 1_555
H19_6 C14_6 1_555 1_555
H20_6 C14_6 1_555 1_555
H21_6 C16_6 1_555 1_555
H22_6 C16_6 1_555 1_555
H23_6 C17_6 1_555 1_555
H24_6 C17_6 1_555 1_555
O13_3 Co2_2 1_555 1_555
O14_3 Co2_2 1_555 1_555
O13_3 C6_6 1_555 1_555
O4_6 C6_6 1_555 1_555
C5_6 C4_6 1_555 1_555
C6_6 C5_6 1_555 1_555
H5_6 C4_6 1_555 1_555
H6_6 C4_6 1_555 1_555
H8_6 C5_6 1_555 1_555
O14_3 C9_6 1_555 1_555
O6_6 C9_6 1_555 1_555
C7_6 P1_6 1_555 1_555
C8_6 C7_6 1_555 1_555
C9_6 C8_6 1_555 1_555
H9_6 C7_6 1_555 1_555
H10_6 C7_6 1_555 1_555
H12_6 C8_6 1_555 1_555

#END
