
###############################################################################
#
# This file contains modified crystal structure data generated from the
# MOF subset of the Cambridge Structural Database (CSD) v543 
# hosted by the Cambridge Crystallographic Data Centre (CCDC).
#
# This work is licensed under the Creative Commons
# Attribution-NonCommercial-ShareAlike 4.0 International License.
# To view a copy of this license, visit
# http://creativecommons.org/licenses/by-nc-sa/4.0/
# or send a letter to
# Creative Commons, PO Box 1866, Mountain View, CA 94042, USA.
#
# CIF created using the CSD Python API on 29 September 2022
# The structure has been converted into the P1 space group
# The structure has a 3D framework
# The original CSD entry YEZDAL is in the tetragonal crystal system
# The framework has been calculated to contain at least 10.0% void space
# The void calculation uses a probe of radius 1.32A, grid spacing 0.4
# The framework is charged, counterions have been retained in the structure
#
###############################################################################

data_YEZDAL
_chemical_formula_moiety         '(C304 H240 Cl16 Eu10 N32 O60 2-)n'
_symmetry_cell_setting           triclinic
_symmetry_space_group_name_H-M   'P 1'
_symmetry_Int_Tables_number      1
_space_group_name_Hall           'P 1'
loop_
_symmetry_equiv_pos_site_id
_symmetry_equiv_pos_as_xyz
1 x,y,z
_cell_length_a                   24.0818(8)
_cell_length_b                   24.0818(8)
_cell_length_c                   13.5997(9)
_cell_angle_alpha                90
_cell_angle_beta                 90
_cell_angle_gamma                90
_cell_volume                     7886.92
loop_
_atom_site_label
_atom_site_type_symbol
_atom_site_fract_x
_atom_site_fract_y
_atom_site_fract_z
Eu1 Eu 0.0000 0.2500 0.472008(15)
O5 O 0.09466(10) 0.22652(11) 0.51935(18)
O6 O 0.07529(9) 0.23662(11) 0.67787(19)
O7 O 0.43698(10) 0.19166(10) 0.13163(17)
O8 O 0.52644(10) 0.18830(11) 0.16264(19)
N3 N 0.34791(12) 0.11075(12) 0.6798(2)
N4 N 0.39402(13) 0.05536(12) 0.5853(2)
C20 C 0.39071(15) 0.10649(15) 0.6203(3)
H16 H 0.4151 0.1352 0.6051
C21 C 0.3519(2) 0.02557(19) 0.6271(5)
C22 C 0.3231(2) 0.0601(2) 0.6868(5)
H18 H 0.2924 0.0511 0.7250
C23 C 0.32978(15) 0.16158(18) 0.7300(3)
H19 H 0.3555 0.1915 0.7156
H20 H 0.3298 0.1555 0.8006
C24 C 0.27191(14) 0.17789(15) 0.6968(3)
C25 C 0.22746(16) 0.17118(17) 0.7590(3)
H21 H 0.2329 0.1563 0.8214
C26 C 0.17473(15) 0.18635(17) 0.7295(3)
H22 H 0.1450 0.1822 0.7726
C27 C 0.16571(13) 0.20761(14) 0.6370(2)
C28 C 0.21009(14) 0.21445(17) 0.5734(3)
H23 H 0.2043 0.2287 0.5107
C29 C 0.26335(15) 0.19988(19) 0.6035(3)
H24 H 0.2933 0.2049 0.5612
C30 C 0.10785(13) 0.22476(14) 0.6078(3)
C31 C 0.43827(19) 0.03435(16) 0.5214(3)
H26 H 0.4724 0.0315 0.5591
C32 C 0.44802(17) 0.07128(14) 0.4338(3)
C33 C 0.40927(17) 0.07412(17) 0.3580(3)
H27 H 0.3771 0.0529 0.3615
C34 C 0.41795(16) 0.10794(16) 0.2782(3)
H28 H 0.3911 0.1106 0.2293
C35 C 0.46685(14) 0.13818(14) 0.2703(2)
C36 C 0.50609(16) 0.13497(16) 0.3437(3)
H29 H 0.5392 0.1547 0.3381
C37 C 0.49624(17) 0.10204(16) 0.4267(3)
H30 H 0.5222 0.1009 0.4772
C38 C 0.47709(14) 0.17477(13) 0.1830(2)
Eu3 Eu 0.5000 0.2500 0.027992(15)
Eu4 Eu -0.0000 0.2500 0.777992(15)
O10 O 0.01338(11) 0.32529(9) 0.57213(19)
O11 O 0.06302(10) 0.30834(10) 0.36837(17)
O14 O 0.02644(10) 0.18830(11) 0.33736(19)
Eu1_2 Eu 1.0000 0.2500 0.472008(15)
O1 O 0.90534(10) 0.27348(11) 0.51935(18)
O2 O 0.92471(9) 0.26338(11) 0.67787(19)
O3 O 0.56302(10) 0.30834(10) 0.13163(17)
O4 O 0.47356(10) 0.31170(11) 0.16264(19)
N1 N 0.65209(12) 0.38925(12) 0.6798(2)
N2 N 0.60598(13) 0.44464(12) 0.5853(2)
C1 C 0.60929(15) 0.39351(15) 0.6203(3)
H1 H 0.5849 0.3648 0.6051
C2 C 0.6481(2) 0.47443(19) 0.6271(5)
H2 H 0.6557 0.5118 0.6163
C3 C 0.6769(2) 0.4399(2) 0.6868(5)
H3 H 0.7076 0.4489 0.7250
C4 C 0.67022(15) 0.33842(18) 0.7300(3)
H4 H 0.6445 0.3085 0.7156
H5 H 0.6702 0.3445 0.8006
C5 C 0.72809(14) 0.32211(15) 0.6968(3)
C6 C 0.77254(16) 0.32882(17) 0.7590(3)
H6 H 0.7671 0.3437 0.8214
C7 C 0.82527(15) 0.31365(17) 0.7295(3)
H7 H 0.8550 0.3178 0.7726
C8 C 0.83429(13) 0.29239(14) 0.6370(2)
C9 C 0.78991(14) 0.28555(17) 0.5734(3)
H8 H 0.7957 0.2713 0.5107
C10 C 0.73665(15) 0.30012(19) 0.6035(3)
H9 H 0.7067 0.2951 0.5612
C11 C 0.89215(13) 0.27524(14) 0.6078(3)
C12 C 0.56173(19) 0.46565(16) 0.5214(3)
H10 H 0.5715 0.5026 0.4988
H11 H 0.5276 0.4685 0.5591
C13 C 0.55198(17) 0.42872(14) 0.4338(3)
C14 C 0.59073(17) 0.42588(17) 0.3580(3)
H12 H 0.6229 0.4471 0.3615
C15 C 0.58205(16) 0.39206(16) 0.2782(3)
H13 H 0.6089 0.3894 0.2293
C16 C 0.53315(14) 0.36182(14) 0.2703(2)
C17 C 0.49391(16) 0.36503(16) 0.3437(3)
H14 H 0.4608 0.3453 0.3381
C18 C 0.50376(17) 0.39796(16) 0.4267(3)
H15 H 0.4778 0.3991 0.4772
C19 C 0.52291(14) 0.32523(13) 0.1830(2)
Eu4_2 Eu 1.0000 0.2500 0.777992(15)
O9 O 0.98662(11) 0.17471(9) 0.57213(19)
O12 O 0.93698(10) 0.19166(10) 0.36837(17)
O13 O 0.97356(10) 0.31170(11) 0.33736(19)
C6_2 C 0.42118(17) 0.02254(16) 0.0090(3)
H6_2 H 0.4063 0.0171 0.0714
H7_2 H 0.4322 0.1050 0.0226
H20_2 H 0.5945 0.5798 0.0506
C25_2 C 0.57882(17) 0.47746(16) 0.0090(3)
H21_2 H 0.5937 0.4829 0.0714
H22_2 H 0.5678 0.3950 0.0226
O3_2 O 0.05834(10) 0.18698(10) 0.88163(17)
O4_2 O 0.06170(11) 0.27644(10) 0.91264(19)
H13_2 H 0.1394 0.1411 0.9793
C19_2 C 0.07523(13) 0.22709(14) 0.9330(2)
O7_2 O 0.94166(10) 0.31302(10) 0.88163(17)
O8_2 O 0.93830(11) 0.22356(10) 0.91264(19)
H28_2 H 0.8606 0.3589 0.9793
C38_2 C 0.92477(13) 0.27291(14) 0.9330(2)
C36_2 C 0.00609(16) 0.13497(16) 0.1563(3)
H29_2 H 0.0392 0.1547 0.1619
H30_2 H 0.0222 0.1009 0.0228
H10_2 H 0.0715 0.5026 0.0012
C13_2 C 0.05198(17) 0.42872(14) 0.0662(3)
C14_2 C 0.09073(17) 0.42588(17) 0.1420(3)
H12_2 H 0.1229 0.4471 0.1385
C15_2 C 0.08205(16) 0.39206(16) 0.2218(3)
H13_3 H 0.1089 0.3894 0.2707
C16_2 C 0.03315(14) 0.36182(14) 0.2297(2)
C18_2 C 0.00376(17) 0.39796(16) 0.0733(3)
C19_3 C 0.02291(14) 0.32523(13) 0.3170(2)
C32_2 C 0.94802(17) 0.07128(14) 0.0662(3)
C33_2 C 0.90927(17) 0.07412(17) 0.1420(3)
H27_2 H 0.8771 0.0529 0.1385
C34_2 C 0.91795(16) 0.10794(16) 0.2218(3)
H28_3 H 0.8911 0.1106 0.2707
C35_2 C 0.96685(14) 0.13818(14) 0.2297(2)
C37_2 C 0.99624(17) 0.10204(16) 0.0733(3)
C38_3 C 0.97709(14) 0.17477(13) 0.3170(2)
C17_2 C 0.99391(16) 0.36503(16) 0.1563(3)
H14_2 H 0.9608 0.3453 0.1619
H15_2 H 0.9778 0.3991 0.0228
O5_2 O 0.02348(11) 0.34466(10) 0.73065(18)
N3_2 N 0.13925(12) 0.59791(12) 0.5702(2)
N4_2 N 0.19464(12) 0.64402(13) 0.6647(2)
C20_2 C 0.14351(15) 0.64071(15) 0.6297(3)
H16_2 H 0.1148 0.6651 0.6449
C21_2 C 0.22443(19) 0.6019(2) 0.6229(5)
H17 H 0.2618 0.5943 0.6337
C22_2 C 0.1899(2) 0.5731(2) 0.5632(5)
H18_2 H 0.1989 0.5424 0.5250
C23_2 C 0.08842(18) 0.57978(15) 0.5200(3)
H19_2 H 0.0585 0.6055 0.5344
H20_3 H 0.0945 0.5798 0.4494
C24_2 C 0.07211(15) 0.52191(14) 0.5532(3)
C25_3 C 0.07882(17) 0.47746(16) 0.4910(3)
H21_3 H 0.0937 0.4829 0.4286
C26_2 C 0.06365(17) 0.42473(15) 0.5205(3)
H22_3 H 0.0678 0.3950 0.4774
C27_2 C 0.04239(14) 0.41571(13) 0.6130(2)
C28_2 C 0.03555(17) 0.46009(14) 0.6766(3)
H23_2 H 0.0213 0.4543 0.7393
C29_2 C 0.05012(19) 0.51335(15) 0.6465(3)
H24_2 H 0.0451 0.5433 0.6888
C30_2 C 0.02524(14) 0.35785(13) 0.6422(3)
C31_2 C 0.21565(16) 0.68827(19) 0.7286(3)
H25 H 0.2526 0.6785 0.7512
H26_2 H 0.2185 0.7224 0.6909
C32_3 C 0.17872(14) 0.69802(17) 0.8162(3)
C33_3 C 0.17588(17) 0.65927(17) 0.8920(3)
H27_3 H 0.1971 0.6271 0.8885
C34_3 C 0.14206(16) 0.66795(16) 0.9718(3)
C35_3 C 0.11182(14) 0.71685(14) 0.9797(2)
C36_3 C 0.11503(16) 0.75609(16) 0.9063(3)
H29_3 H 0.0953 0.7892 0.9119
C37_3 C 0.14796(16) 0.74624(17) 0.8233(3)
H30_3 H 0.1491 0.7722 0.7728
O1_2 O 0.97652(11) 0.15534(10) 0.73065(18)
C6_3 C 0.92118(17) 0.02254(16) 0.4910(3)
H6_3 H 0.9063 0.0171 0.4286
C7_2 C 0.93635(17) 0.07527(15) 0.5205(3)
H7_3 H 0.9322 0.1050 0.4774
C8_2 C 0.95761(14) 0.08429(13) 0.6130(2)
C9_2 C 0.96445(17) 0.03991(14) 0.6766(3)
H8_2 H 0.9787 0.0457 0.7393
C11_2 C 0.97476(14) 0.14215(13) 0.6422(3)
H17_2 H 0.3443 0.9882 0.6163
H25_2 H 0.4285 0.9974 0.4988
O4_3 O 0.02644(10) 0.68830(11) 0.66264(19)
C17_3 C 0.00609(16) 0.63497(16) 0.8437(3)
H14_3 H 0.0392 0.6547 0.8381
H15_3 H 0.0222 0.6009 0.9772
Eu2 Eu -0.0000 0.7500 0.527992(15)
Eu1_3 Eu 0.5000 0.7500 0.972008(15)
O3_3 O 0.93698(10) 0.69166(10) 0.63163(17)
H10_3 H 0.9285 0.4974 0.9988
C13_3 C 0.94802(17) 0.57128(14) 0.9338(3)
C14_3 C 0.90927(17) 0.57412(17) 0.8580(3)
H12_3 H 0.8771 0.5529 0.8615
C15_3 C 0.91795(16) 0.60794(16) 0.7782(3)
H13_4 H 0.8911 0.6106 0.7293
C16_3 C 0.96685(14) 0.63818(14) 0.7703(2)
C18_3 C 0.99624(17) 0.60204(16) 0.9267(3)
C19_4 C 0.97709(14) 0.67477(13) 0.6830(2)
O7_3 O 0.06302(10) 0.80834(10) 0.63163(17)
C32_4 C 0.05198(17) 0.92872(14) 0.9338(3)
C33_4 C 0.09073(17) 0.92588(17) 0.8580(3)
H27_4 H 0.1229 0.9471 0.8615
C34_4 C 0.08205(16) 0.89206(16) 0.7782(3)
H28_4 H 0.1089 0.8894 0.7293
C35_4 C 0.03315(14) 0.86182(14) 0.7703(2)
C37_4 C 0.00376(17) 0.89796(16) 0.9267(3)
C38_4 C 0.02291(14) 0.82523(13) 0.6830(2)
Eu2_2 Eu 1.0000 0.7500 0.527992(15)
O11_2 O 0.43698(10) 0.69166(10) 0.86837(17)
O12_2 O 0.56302(10) 0.80834(10) 0.86837(17)
O13_2 O 0.52644(10) 0.68830(11) 0.83736(19)
O14_2 O 0.47356(10) 0.81170(11) 0.83736(19)
O8_3 O 0.97356(10) 0.81170(11) 0.66264(19)
C36_4 C 0.99391(16) 0.86503(16) 0.8437(3)
H29_4 H 0.9608 0.8453 0.8381
H30_4 H 0.9778 0.8991 0.9772
Eu1_4 Eu -0.0000 0.7500 0.222008(15)
O1_3 O 0.02348(11) 0.84466(10) 0.26935(18)
O2_2 O 0.01338(11) 0.82529(9) 0.42787(19)
C6_4 C 0.07882(17) 0.97746(16) 0.5090(3)
H6_4 H 0.0937 0.9829 0.5714
C7_3 C 0.06365(17) 0.92473(15) 0.4795(3)
H7_4 H 0.0678 0.8950 0.5226
C8_3 C 0.04239(14) 0.91571(13) 0.3870(2)
C9_3 C 0.03555(17) 0.96009(14) 0.3234(3)
H8_3 H 0.0213 0.9543 0.2607
C11_3 C 0.02524(14) 0.85785(13) 0.3578(3)
O10_2 O 0.07529(9) 0.73662(11) 0.32213(19)
O11_3 O 0.05834(10) 0.68698(10) 0.11837(17)
O13_3 O 0.06170(11) 0.77644(10) 0.08736(19)
Eu1_5 Eu 1.0000 0.7500 0.222008(15)
O5_3 O 0.97652(11) 0.65534(10) 0.26935(18)
O6_2 O 0.98662(11) 0.67471(9) 0.42787(19)
N3_3 N 0.86075(12) 0.40209(12) 0.4298(2)
N4_3 N 0.80536(12) 0.35598(13) 0.3353(2)
C20_3 C 0.85649(15) 0.35929(15) 0.3703(3)
H16_3 H 0.8852 0.3349 0.3551
C21_3 C 0.77557(19) 0.3981(2) 0.3771(5)
H17_3 H 0.7382 0.4057 0.3663
C22_3 C 0.8101(2) 0.4269(2) 0.4368(5)
H18_3 H 0.8011 0.4576 0.4750
C23_3 C 0.91158(18) 0.42022(15) 0.4800(3)
H19_3 H 0.9415 0.3945 0.4656
H20_4 H 0.9055 0.4202 0.5506
C24_3 C 0.92789(15) 0.47809(14) 0.4468(3)
C25_4 C 0.92118(17) 0.52254(16) 0.5090(3)
H21_4 H 0.9063 0.5171 0.5714
C26_3 C 0.93635(17) 0.57527(15) 0.4795(3)
H22_4 H 0.9322 0.6050 0.5226
C27_3 C 0.95761(14) 0.58429(13) 0.3870(2)
C28_3 C 0.96445(17) 0.53991(14) 0.3234(3)
H23_3 H 0.9787 0.5457 0.2607
C29_3 C 0.94988(19) 0.48665(15) 0.3535(3)
H24_3 H 0.9549 0.4567 0.3112
C30_3 C 0.97476(14) 0.64215(13) 0.3578(3)
C31_3 C 0.78435(16) 0.31173(19) 0.2714(3)
H25_3 H 0.7474 0.3215 0.2488
H26_3 H 0.7815 0.2776 0.3091
C32_5 C 0.82128(14) 0.30198(17) 0.1838(3)
C33_5 C 0.82412(17) 0.34073(17) 0.1080(3)
H27_5 H 0.8029 0.3729 0.1115
C34_5 C 0.85794(16) 0.33205(16) 0.0282(3)
C35_5 C 0.88818(14) 0.28315(14) 0.0203(2)
C36_5 C 0.88497(16) 0.24391(16) 0.0937(3)
H29_5 H 0.9047 0.2108 0.0881
C37_5 C 0.85204(16) 0.25376(17) 0.1767(3)
H30_5 H 0.8509 0.2278 0.2272
O9_2 O 0.92471(9) 0.76338(11) 0.32213(19)
O12_3 O 0.94166(10) 0.81302(10) 0.11837(17)
O14_3 O 0.93830(11) 0.72356(10) 0.08736(19)
O1_4 O 0.09466(10) 0.72652(11) 0.48065(18)
N1_2 N 0.34791(12) 0.61075(12) 0.3202(2)
N2_2 N 0.39402(13) 0.55536(12) 0.4147(2)
C1_2 C 0.39071(15) 0.60649(15) 0.3797(3)
H1_2 H 0.4151 0.6352 0.3949
C2_2 C 0.3519(2) 0.52557(19) 0.3729(5)
H2_2 H 0.3443 0.4882 0.3837
C3_2 C 0.3231(2) 0.5601(2) 0.3132(5)
H3_2 H 0.2924 0.5511 0.2750
C4_2 C 0.32978(15) 0.66158(18) 0.2700(3)
H4_2 H 0.3555 0.6915 0.2844
H5_2 H 0.3298 0.6555 0.1994
C5_2 C 0.27191(14) 0.67789(15) 0.3032(3)
C6_5 C 0.22746(16) 0.67118(17) 0.2410(3)
H6_5 H 0.2329 0.6563 0.1786
C7_4 C 0.17473(15) 0.68635(17) 0.2705(3)
H7_5 H 0.1450 0.6822 0.2274
C8_4 C 0.16571(13) 0.70761(14) 0.3630(2)
C9_4 C 0.21009(14) 0.71445(17) 0.4266(3)
H8_4 H 0.2043 0.7287 0.4893
C10_2 C 0.26335(15) 0.69988(19) 0.3965(3)
H9_2 H 0.2933 0.7049 0.4388
C11_4 C 0.10785(13) 0.72476(14) 0.3922(3)
C12_2 C 0.43827(19) 0.53435(16) 0.4786(3)
H10_4 H 0.4285 0.4974 0.5012
H11_2 H 0.4724 0.5315 0.4409
C13_4 C 0.44802(17) 0.57128(14) 0.5662(3)
C14_4 C 0.40927(17) 0.57412(17) 0.6420(3)
H12_4 H 0.3771 0.5529 0.6385
C15_4 C 0.41795(16) 0.60794(16) 0.7218(3)
H13_5 H 0.3911 0.6106 0.7707
C16_4 C 0.46685(14) 0.63818(14) 0.7297(2)
C17_4 C 0.50609(16) 0.63497(16) 0.6563(3)
H14_4 H 0.5392 0.6547 0.6619
C18_4 C 0.49624(17) 0.60204(16) 0.5733(3)
H15_4 H 0.5222 0.6009 0.5228
C19_5 C 0.47709(14) 0.67477(13) 0.8170(2)
O5_4 O 0.90534(10) 0.77348(11) 0.48065(18)
N3_4 N 0.65209(12) 0.88925(12) 0.3202(2)
N4_4 N 0.60598(13) 0.94464(12) 0.4147(2)
C20_4 C 0.60929(15) 0.89351(15) 0.3797(3)
H16_4 H 0.5849 0.8648 0.3949
C21_4 C 0.6481(2) 0.97443(19) 0.3729(5)
C22_4 C 0.6769(2) 0.9399(2) 0.3132(5)
H18_4 H 0.7076 0.9489 0.2750
C23_4 C 0.67022(15) 0.83842(18) 0.2700(3)
H19_4 H 0.6445 0.8085 0.2844
H20_5 H 0.6702 0.8445 0.1994
C24_4 C 0.72809(14) 0.82211(15) 0.3032(3)
C25_5 C 0.77254(16) 0.82882(17) 0.2410(3)
H21_5 H 0.7671 0.8437 0.1786
C26_4 C 0.82527(15) 0.81365(17) 0.2705(3)
H22_5 H 0.8550 0.8178 0.2274
C27_4 C 0.83429(13) 0.79239(14) 0.3630(2)
C28_4 C 0.78991(14) 0.78555(17) 0.4266(3)
H23_4 H 0.7957 0.7713 0.4893
C29_4 C 0.73665(15) 0.80012(19) 0.3965(3)
H24_4 H 0.7067 0.7951 0.4388
C30_4 C 0.89215(13) 0.77524(14) 0.3922(3)
C31_4 C 0.56173(19) 0.96565(16) 0.4786(3)
H26_4 H 0.5276 0.9685 0.4409
C32_6 C 0.55198(17) 0.92872(14) 0.5662(3)
C33_6 C 0.59073(17) 0.92588(17) 0.6420(3)
H27_6 H 0.6229 0.9471 0.6385
C34_6 C 0.58205(16) 0.89206(16) 0.7218(3)
H28_5 H 0.6089 0.8894 0.7707
C35_6 C 0.53315(14) 0.86182(14) 0.7297(2)
C36_6 C 0.49391(16) 0.86503(16) 0.6563(3)
H29_6 H 0.4608 0.8453 0.6619
C37_6 C 0.50376(17) 0.89796(16) 0.5733(3)
H30_6 H 0.4778 0.8991 0.5228
C38_5 C 0.52291(14) 0.82523(13) 0.8170(2)
C6_6 C 0.57882(17) 0.97746(16) 0.9910(3)
H6_6 H 0.5937 0.9829 0.9286
H7_6 H 0.5678 0.8950 0.9774
H20_6 H 0.4055 0.4202 0.9494
C25_6 C 0.42118(17) 0.52254(16) 0.9910(3)
H21_6 H 0.4063 0.5171 0.9286
H22_6 H 0.4322 0.6050 0.9774
H28_6 H 0.1394 0.6411 0.0207
C38_6 C 0.07523(13) 0.72709(14) 0.0670(2)
H13_6 H 0.8606 0.8589 0.0207
C19_6 C 0.92477(13) 0.77291(14) 0.0670(2)
H17_4 H 0.1557 0.0118 0.1163
H25_4 H 0.0715 0.0026 0.9988
O1_5 O 0.59466(10) 0.72652(11) 0.01935(18)
O2_3 O 0.57529(9) 0.73662(11) 0.17787(19)
N1_3 N 0.84791(12) 0.61075(12) 0.1798(2)
N2_3 N 0.89402(13) 0.55536(12) 0.0853(2)
C1_3 C 0.89071(15) 0.60649(15) 0.1203(3)
H1_3 H 0.9151 0.6352 0.1051
C2_3 C 0.8519(2) 0.52557(19) 0.1271(5)
H2_3 H 0.8443 0.4882 0.1163
C3_3 C 0.8231(2) 0.5601(2) 0.1868(5)
H3_3 H 0.7924 0.5511 0.2250
C4_3 C 0.82978(15) 0.66158(18) 0.2300(3)
H4_3 H 0.8555 0.6915 0.2156
H5_3 H 0.8298 0.6555 0.3006
C5_3 C 0.77191(14) 0.67789(15) 0.1968(3)
C6_7 C 0.72746(16) 0.67118(17) 0.2590(3)
H6_7 H 0.7329 0.6563 0.3214
C7_5 C 0.67473(15) 0.68635(17) 0.2295(3)
H7_7 H 0.6450 0.6822 0.2726
C8_5 C 0.66571(13) 0.70761(14) 0.1370(2)
C9_5 C 0.71009(14) 0.71445(17) 0.0734(3)
H8_5 H 0.7043 0.7287 0.0107
C10_3 C 0.76335(15) 0.69988(19) 0.1035(3)
H9_3 H 0.7933 0.7049 0.0612
C11_5 C 0.60785(13) 0.72476(14) 0.1078(3)
C12_3 C 0.93827(19) 0.53435(16) 0.0214(3)
H11_3 H 0.9724 0.5315 0.0591
O5_5 O 0.40534(10) 0.77348(11) 0.01935(18)
O6_3 O 0.42471(9) 0.76338(11) 0.17787(19)
N3_5 N 0.15209(12) 0.88925(12) 0.1798(2)
N4_5 N 0.10598(13) 0.94464(12) 0.0853(2)
C20_5 C 0.10929(15) 0.89351(15) 0.1203(3)
H16_5 H 0.0849 0.8648 0.1051
C21_5 C 0.1481(2) 0.97443(19) 0.1271(5)
C22_5 C 0.1769(2) 0.9399(2) 0.1868(5)
H18_5 H 0.2076 0.9489 0.2250
C23_5 C 0.17022(15) 0.83842(18) 0.2300(3)
H19_5 H 0.1445 0.8085 0.2156
H20_7 H 0.1702 0.8445 0.3006
C24_5 C 0.22809(14) 0.82211(15) 0.1968(3)
C25_7 C 0.27254(16) 0.82882(17) 0.2590(3)
H21_7 H 0.2671 0.8437 0.3214
C26_5 C 0.32527(15) 0.81365(17) 0.2295(3)
H22_7 H 0.3550 0.8178 0.2726
C27_5 C 0.33429(13) 0.79239(14) 0.1370(2)
C28_5 C 0.28991(14) 0.78555(17) 0.0734(3)
H23_5 H 0.2957 0.7713 0.0107
C29_5 C 0.23665(15) 0.80012(19) 0.1035(3)
H24_5 H 0.2067 0.7951 0.0612
C30_5 C 0.39215(13) 0.77524(14) 0.1078(3)
C31_5 C 0.06173(19) 0.96565(16) 0.0214(3)
H26_5 H 0.0276 0.9685 0.0591
Eu4_3 Eu 0.5000 0.7500 0.277992(15)
O9_3 O 0.51338(11) 0.82529(9) 0.07213(19)
O10_3 O 0.48662(11) 0.67471(9) 0.07213(19)
Eu1_6 Eu 0.5000 0.2500 0.722008(15)
O1_6 O 0.47652(11) 0.15534(10) 0.76935(18)
O2_4 O 0.48662(11) 0.17471(9) 0.92787(19)
C7_6 C 0.43635(17) 0.07527(15) 0.9795(3)
C8_6 C 0.45761(14) 0.08429(13) 0.8870(2)
C9_6 C 0.46445(17) 0.03991(14) 0.8234(3)
H8_6 H 0.4787 0.0457 0.7607
C11_6 C 0.47476(14) 0.14215(13) 0.8578(3)
O5_6 O 0.52348(11) 0.34466(10) 0.76935(18)
O6_4 O 0.51338(11) 0.32529(9) 0.92787(19)
O7_4 O 0.55834(10) 0.68698(10) 0.38163(17)
O8_4 O 0.56170(11) 0.77644(10) 0.41264(19)
N3_6 N 0.63925(12) 0.59791(12) 0.9298(2)
N4_6 N 0.69464(12) 0.64402(13) 0.8353(2)
C20_6 C 0.64351(15) 0.64071(15) 0.8703(3)
H16_6 H 0.6148 0.6651 0.8551
C21_6 C 0.72443(19) 0.6019(2) 0.8771(5)
H17_5 H 0.7618 0.5943 0.8663
C22_6 C 0.6899(2) 0.5731(2) 0.9368(5)
H18_6 H 0.6989 0.5424 0.9750
C23_6 C 0.58842(18) 0.57978(15) 0.9800(3)
H19_6 H 0.5585 0.6055 0.9656
C24_6 C 0.57211(15) 0.52191(14) 0.9468(3)
C26_6 C 0.56365(17) 0.42473(15) 0.9795(3)
C27_6 C 0.54239(14) 0.41571(13) 0.8870(2)
C28_6 C 0.53555(17) 0.46009(14) 0.8234(3)
H23_6 H 0.5213 0.4543 0.7607
C29_6 C 0.55012(19) 0.51335(15) 0.8535(3)
H24_6 H 0.5451 0.5433 0.8112
C30_6 C 0.52524(14) 0.35785(13) 0.8578(3)
C31_6 C 0.71565(16) 0.68827(19) 0.7714(3)
H25_5 H 0.7526 0.6785 0.7488
H26_6 H 0.7185 0.7224 0.8091
C32_7 C 0.67872(14) 0.69802(17) 0.6838(3)
C33_7 C 0.67588(17) 0.65927(17) 0.6080(3)
H27_7 H 0.6971 0.6271 0.6115
C34_7 C 0.64206(16) 0.66795(16) 0.5282(3)
H28_7 H 0.6394 0.6411 0.4793
C35_7 C 0.61182(14) 0.71685(14) 0.5203(2)
C36_7 C 0.61503(16) 0.75609(16) 0.5937(3)
H29_7 H 0.5953 0.7892 0.5881
C37_7 C 0.64796(16) 0.74624(17) 0.6767(3)
H30_7 H 0.6491 0.7722 0.7272
C38_7 C 0.57523(13) 0.72709(14) 0.4330(2)
O9_4 O 0.57529(9) 0.23662(11) 0.82213(19)
O10_4 O 0.42471(9) 0.26338(11) 0.82213(19)
O11_4 O 0.44166(10) 0.31302(10) 0.61837(17)
O12_4 O 0.55834(10) 0.18698(10) 0.61837(17)
O13_4 O 0.43830(11) 0.22356(10) 0.58736(19)
O14_4 O 0.56170(11) 0.27644(10) 0.58736(19)
O3_4 O 0.44166(10) 0.81302(10) 0.38163(17)
O4_4 O 0.43830(11) 0.72356(10) 0.41264(19)
N1_4 N 0.36075(12) 0.90209(12) 0.9298(2)
N2_4 N 0.30536(12) 0.85598(13) 0.8353(2)
C1_4 C 0.35649(15) 0.85929(15) 0.8703(3)
H1_4 H 0.3852 0.8349 0.8551
C2_4 C 0.27557(19) 0.8981(2) 0.8771(5)
H2_4 H 0.2382 0.9057 0.8663
C3_4 C 0.3101(2) 0.9269(2) 0.9368(5)
H3_4 H 0.3011 0.9576 0.9750
C4_4 C 0.41158(18) 0.92022(15) 0.9800(3)
H4_4 H 0.4415 0.8945 0.9656
C5_4 C 0.42789(15) 0.97809(14) 0.9468(3)
C10_4 C 0.44988(19) 0.98665(15) 0.8535(3)
H9_4 H 0.4549 0.9567 0.8112
C12_4 C 0.28435(16) 0.81173(19) 0.7714(3)
H10_5 H 0.2474 0.8215 0.7488
H11_4 H 0.2815 0.7776 0.8091
C13_5 C 0.32128(14) 0.80198(17) 0.6838(3)
C14_5 C 0.32412(17) 0.84073(17) 0.6080(3)
H12_5 H 0.3029 0.8729 0.6115
C15_5 C 0.35794(16) 0.83205(16) 0.5282(3)
H13_7 H 0.3606 0.8589 0.4793
C16_5 C 0.38818(14) 0.78315(14) 0.5203(2)
C17_5 C 0.38497(16) 0.74391(16) 0.5937(3)
H14_5 H 0.4047 0.7108 0.5881
C18_5 C 0.35204(16) 0.75376(17) 0.6767(3)
H15_5 H 0.3509 0.7278 0.7272
C19_7 C 0.42477(13) 0.77291(14) 0.4330(2)
O1_7 O 0.40534(10) 0.27348(11) 0.98065(18)
N1_5 N 0.15209(12) 0.38925(12) 0.8202(2)
N2_5 N 0.10598(13) 0.44464(12) 0.9147(2)
C1_5 C 0.10929(15) 0.39351(15) 0.8797(3)
H1_5 H 0.0849 0.3648 0.8949
C2_5 C 0.1481(2) 0.47443(19) 0.8729(5)
H2_5 H 0.1557 0.5118 0.8837
C3_5 C 0.1769(2) 0.4399(2) 0.8132(5)
H3_5 H 0.2076 0.4489 0.7750
C4_5 C 0.17022(15) 0.33842(18) 0.7700(3)
H4_5 H 0.1445 0.3085 0.7844
H5_4 H 0.1702 0.3445 0.6994
C5_5 C 0.22809(14) 0.32211(15) 0.8032(3)
C6_8 C 0.27254(16) 0.32882(17) 0.7410(3)
H6_8 H 0.2671 0.3437 0.6786
C7_7 C 0.32527(15) 0.31365(17) 0.7705(3)
H7_8 H 0.3550 0.3178 0.7274
C8_7 C 0.33429(13) 0.29239(14) 0.8630(2)
C9_7 C 0.28991(14) 0.28555(17) 0.9266(3)
H8_7 H 0.2957 0.2713 0.9893
C10_5 C 0.23665(15) 0.30012(19) 0.8965(3)
H9_5 H 0.2067 0.2951 0.9388
C11_7 C 0.39215(13) 0.27524(14) 0.8922(3)
C12_5 C 0.06173(19) 0.46565(16) 0.9786(3)
H11_5 H 0.0276 0.4685 0.9409
O5_7 O 0.59466(10) 0.22652(11) 0.98065(18)
N3_7 N 0.84791(12) 0.11075(12) 0.8202(2)
N4_7 N 0.89402(13) 0.05536(12) 0.9147(2)
C20_7 C 0.89071(15) 0.10649(15) 0.8797(3)
H16_7 H 0.9151 0.1352 0.8949
C21_7 C 0.8519(2) 0.02557(19) 0.8729(5)
C22_7 C 0.8231(2) 0.0601(2) 0.8132(5)
H18_7 H 0.7924 0.0511 0.7750
C23_7 C 0.82978(15) 0.16158(18) 0.7700(3)
H19_7 H 0.8555 0.1915 0.7844
H20_8 H 0.8298 0.1555 0.6994
C24_7 C 0.77191(14) 0.17789(15) 0.8032(3)
C25_8 C 0.72746(16) 0.17118(17) 0.7410(3)
H21_8 H 0.7329 0.1563 0.6786
C26_7 C 0.67473(15) 0.18635(17) 0.7705(3)
H22_8 H 0.6450 0.1822 0.7274
C27_7 C 0.66571(13) 0.20761(14) 0.8630(2)
C28_7 C 0.71009(14) 0.21445(17) 0.9266(3)
H23_7 H 0.7043 0.2287 0.9893
C29_7 C 0.76335(15) 0.19988(19) 0.8965(3)
H24_7 H 0.7933 0.2049 0.9388
C30_7 C 0.60785(13) 0.22476(14) 0.8922(3)
C31_7 C 0.93827(19) 0.03435(16) 0.9786(3)
H26_7 H 0.9724 0.0315 0.9409
N1_6 N 0.63925(12) 0.09791(12) 0.0702(2)
N2_6 N 0.69464(12) 0.14402(13) 0.1647(2)
C1_6 C 0.64351(15) 0.14071(15) 0.1297(3)
H1_6 H 0.6148 0.1651 0.1449
C2_6 C 0.72443(19) 0.1019(2) 0.1229(5)
H2_6 H 0.7618 0.0943 0.1337
C3_6 C 0.6899(2) 0.0731(2) 0.0632(5)
H3_6 H 0.6989 0.0424 0.0250
C4_6 C 0.58842(18) 0.07978(15) 0.0200(3)
H4_6 H 0.5585 0.1055 0.0344
C5_6 C 0.57211(15) 0.02191(14) 0.0532(3)
C10_6 C 0.55012(19) 0.01335(15) 0.1465(3)
H9_6 H 0.5451 0.0433 0.1888
C12_6 C 0.71565(16) 0.18827(19) 0.2286(3)
H10_6 H 0.7526 0.1785 0.2512
H11_6 H 0.7185 0.2224 0.1909
C13_6 C 0.67872(14) 0.19802(17) 0.3162(3)
C14_6 C 0.67588(17) 0.15927(17) 0.3920(3)
H12_6 H 0.6971 0.1271 0.3885
C15_6 C 0.64206(16) 0.16795(16) 0.4718(3)
H13_8 H 0.6394 0.1411 0.5207
C16_6 C 0.61182(14) 0.21685(14) 0.4797(2)
C17_6 C 0.61503(16) 0.25609(16) 0.4063(3)
H14_6 H 0.5953 0.2892 0.4119
C18_6 C 0.64796(16) 0.24624(17) 0.3233(3)
H15_6 H 0.6491 0.2722 0.2728
C19_8 C 0.57523(13) 0.22709(14) 0.5670(2)
O1_8 O 0.52348(11) 0.84466(10) 0.23065(18)
C7_8 C 0.56365(17) 0.92473(15) 0.0205(3)
C8_8 C 0.54239(14) 0.91571(13) 0.1130(2)
C9_8 C 0.53555(17) 0.96009(14) 0.1766(3)
H8_8 H 0.5213 0.9543 0.2393
C11_8 C 0.52524(14) 0.85785(13) 0.1422(3)
O5_8 O 0.47652(11) 0.65534(10) 0.23065(18)
N3_8 N 0.36075(12) 0.40209(12) 0.0702(2)
N4_8 N 0.30536(12) 0.35598(13) 0.1647(2)
C20_8 C 0.35649(15) 0.35929(15) 0.1297(3)
H16_8 H 0.3852 0.3349 0.1449
C21_8 C 0.27557(19) 0.3981(2) 0.1229(5)
H17_6 H 0.2382 0.4057 0.1337
C22_8 C 0.3101(2) 0.4269(2) 0.0632(5)
H18_8 H 0.3011 0.4576 0.0250
C23_8 C 0.41158(18) 0.42022(15) 0.0200(3)
H19_8 H 0.4415 0.3945 0.0344
C24_8 C 0.42789(15) 0.47809(14) 0.0532(3)
C26_8 C 0.43635(17) 0.57527(15) 0.0205(3)
C27_8 C 0.45761(14) 0.58429(13) 0.1130(2)
C28_8 C 0.46445(17) 0.53991(14) 0.1766(3)
H23_8 H 0.4787 0.5457 0.2393
C29_8 C 0.44988(19) 0.48665(15) 0.1465(3)
H24_8 H 0.4549 0.4567 0.1888
C30_8 C 0.47476(14) 0.64215(13) 0.1422(3)
C31_8 C 0.28435(16) 0.31173(19) 0.2286(3)
H25_6 H 0.2474 0.3215 0.2512
H26_8 H 0.2815 0.2776 0.1909
C32_8 C 0.32128(14) 0.30198(17) 0.3162(3)
C33_8 C 0.32412(17) 0.34073(17) 0.3920(3)
H27_8 H 0.3029 0.3729 0.3885
C34_8 C 0.35794(16) 0.33205(16) 0.4718(3)
H28_8 H 0.3606 0.3589 0.5207
C35_8 C 0.38818(14) 0.28315(14) 0.4797(2)
C36_8 C 0.38497(16) 0.24391(16) 0.4063(3)
H29_8 H 0.4047 0.2108 0.4119
C37_8 C 0.35204(16) 0.25376(17) 0.3233(3)
H30_8 H 0.3509 0.2278 0.2728
C38_8 C 0.42477(13) 0.27291(14) 0.5670(2)
H5_5 H 0.4055 0.9202 0.0506
N1_7 N 0.13925(12) 0.09791(12) 0.4298(2)
N2_7 N 0.19464(12) 0.14402(13) 0.3353(2)
C1_7 C 0.14351(15) 0.14071(15) 0.3703(3)
H1_7 H 0.1148 0.1651 0.3551
C2_7 C 0.22443(19) 0.1019(2) 0.3771(5)
H2_7 H 0.2618 0.0943 0.3663
C3_7 C 0.1899(2) 0.0731(2) 0.4368(5)
H3_7 H 0.1989 0.0424 0.4750
C4_7 C 0.08842(18) 0.07978(15) 0.4800(3)
H4_7 H 0.0585 0.1055 0.4656
H5_6 H 0.0945 0.0798 0.5506
C5_7 C 0.07211(15) 0.02191(14) 0.4468(3)
C10_7 C 0.05012(19) 0.01335(15) 0.3535(3)
H9_7 H 0.0451 0.0433 0.3112
C12_7 C 0.21565(16) 0.18827(19) 0.2714(3)
H10_7 H 0.2526 0.1785 0.2488
H11_7 H 0.2185 0.2224 0.3091
C13_7 C 0.17872(14) 0.19802(17) 0.1838(3)
C14_7 C 0.17588(17) 0.15927(17) 0.1080(3)
H12_7 H 0.1971 0.1271 0.1115
C15_7 C 0.14206(16) 0.16795(16) 0.0282(3)
C16_7 C 0.11182(14) 0.21685(14) 0.0203(2)
C17_7 C 0.11503(16) 0.25609(16) 0.0937(3)
H14_7 H 0.0953 0.2892 0.0881
C18_7 C 0.14796(16) 0.24624(17) 0.1767(3)
H15_7 H 0.1491 0.2722 0.2272
H17_7 H 0.6557 0.0118 0.3837
H25_7 H 0.5715 0.0026 0.5012
H25_8 H 0.9285 0.9974 0.0012
H17_8 H 0.8443 0.9882 0.8837
H5_7 H 0.5945 0.0798 0.9494
N1_8 N 0.86075(12) 0.90209(12) 0.5702(2)
N2_8 N 0.80536(12) 0.85598(13) 0.6647(2)
C1_8 C 0.85649(15) 0.85929(15) 0.6297(3)
H1_8 H 0.8852 0.8349 0.6449
C2_8 C 0.77557(19) 0.8981(2) 0.6229(5)
H2_8 H 0.7382 0.9057 0.6337
C3_8 C 0.8101(2) 0.9269(2) 0.5632(5)
H3_8 H 0.8011 0.9576 0.5250
C4_8 C 0.91158(18) 0.92022(15) 0.5200(3)
H4_8 H 0.9415 0.8945 0.5344
H5_8 H 0.9055 0.9202 0.4494
C5_8 C 0.92789(15) 0.97809(14) 0.5532(3)
C10_8 C 0.94988(19) 0.98665(15) 0.6465(3)
H9_8 H 0.9549 0.9567 0.6888
C12_8 C 0.78435(16) 0.81173(19) 0.7286(3)
H10_8 H 0.7474 0.8215 0.7512
H11_8 H 0.7815 0.7776 0.6909
C13_8 C 0.82128(14) 0.80198(17) 0.8162(3)
C14_8 C 0.82412(17) 0.84073(17) 0.8920(3)
H12_8 H 0.8029 0.8729 0.8885
C15_8 C 0.85794(16) 0.83205(16) 0.9718(3)
C16_8 C 0.88818(14) 0.78315(14) 0.9797(2)
C17_8 C 0.88497(16) 0.74391(16) 0.9063(3)
H14_8 H 0.9047 0.7108 0.9119
C18_8 C 0.85204(16) 0.75376(17) 0.8233(3)
H15_8 H 0.8509 0.7278 0.7728
Cl1 Cl 0.68067(15) 0.3194(2) 0.1036(3)
Cl1_2 Cl 0.81933(15) 0.6806(2) 0.6036(3)
Cl1_3 Cl 0.4306(2) 0.93067(15) 0.3536(3)
Cl1_4 Cl 0.0694(2) 0.06933(15) 0.8536(3)
Cl1_5 Cl 0.18067(15) 0.8194(2) 0.6036(3)
Cl1_6 Cl 0.31933(15) 0.1806(2) 0.1036(3)
Cl1_7 Cl 0.9306(2) 0.43067(15) 0.8536(3)
Cl1_8 Cl 0.5694(2) 0.56933(15) 0.3536(3)
Cl1_9 Cl 0.31933(15) 0.6806(2) 0.8964(3)
Cl1_10 Cl 0.18067(15) 0.3194(2) 0.3964(3)
Cl1_11 Cl 0.5694(2) 0.06933(15) 0.6464(3)
Cl1_12 Cl 0.9306(2) 0.93067(15) 0.1464(3)
Cl1_13 Cl 0.81933(15) 0.1806(2) 0.3964(3)
Cl1_14 Cl 0.68067(15) 0.8194(2) 0.8964(3)
Cl1_15 Cl 0.0694(2) 0.56933(15) 0.1464(3)
Cl1_16 Cl 0.4306(2) 0.43067(15) 0.6464(3)
loop_
_geom_bond_atom_site_label_1
_geom_bond_atom_site_label_2
_geom_bond_site_symmetry_1
_geom_bond_site_symmetry_2
O5 Eu1 1_555 1_555
O6 C30 1_555 1_555
O7 C38 1_555 1_555
O8 C38 1_555 1_555
N3 C20 1_555 1_555
N4 C20 1_555 1_555
C20 H16 1_555 1_555
C21 N4 1_555 1_555
C22 N3 1_555 1_555
H18 C22 1_555 1_555
C23 N3 1_555 1_555
H19 C23 1_555 1_555
H20 C23 1_555 1_555
C24 C23 1_555 1_555
C25 C24 1_555 1_555
H21 C25 1_555 1_555
C26 C25 1_555 1_555
H22 C26 1_555 1_555
C27 C26 1_555 1_555
C28 C27 1_555 1_555
H23 C28 1_555 1_555
C29 C24 1_555 1_555
H24 C29 1_555 1_555
C30 O5 1_555 1_555
C31 N4 1_555 1_555
H26 C31 1_555 1_555
C32 C31 1_555 1_555
C33 C32 1_555 1_555
H27 C33 1_555 1_555
C34 C33 1_555 1_555
H28 C34 1_555 1_555
C35 C34 1_555 1_555
C36 C35 1_555 1_555
H29 C36 1_555 1_555
C37 C32 1_555 1_555
H30 C37 1_555 1_555
C38 C35 1_555 1_555
Eu3 O7 1_555 1_555
O10 Eu1 1_555 1_555
O11 Eu1 1_555 1_555
O14 Eu1 1_555 1_555
O6 Eu4 1_555 1_555
O8 Eu3 1_555 1_555
C21 C22 1_555 1_555
C27 C30 1_555 1_555
C28 C29 1_555 1_555
C36 C37 1_555 1_555
Eu1_2 O1 1_555 1_555
O1 C11 1_555 1_555
O2 C11 1_555 1_555
O3 C19 1_555 1_555
O4 C19 1_555 1_555
N1 C1 1_555 1_555
N2 C1 1_555 1_555
C1 H1 1_555 1_555
C2 N2 1_555 1_555
H2 C2 1_555 1_555
C3 N1 1_555 1_555
H3 C3 1_555 1_555
C4 N1 1_555 1_555
H4 C4 1_555 1_555
H5 C4 1_555 1_555
C5 C4 1_555 1_555
C6 C5 1_555 1_555
H6 C6 1_555 1_555
C7 C6 1_555 1_555
H7 C7 1_555 1_555
C8 C7 1_555 1_555
C9 C8 1_555 1_555
H8 C9 1_555 1_555
C10 C5 1_555 1_555
H9 C10 1_555 1_555
C11 C8 1_555 1_555
C12 N2 1_555 1_555
H10 C12 1_555 1_555
H11 C12 1_555 1_555
C13 C12 1_555 1_555
C14 C13 1_555 1_555
H12 C14 1_555 1_555
C15 C14 1_555 1_555
H13 C15 1_555 1_555
C16 C15 1_555 1_555
C17 C16 1_555 1_555
H14 C17 1_555 1_555
C18 C13 1_555 1_555
H15 C18 1_555 1_555
C19 C16 1_555 1_555
Eu3 O3 1_555 1_555
Eu4_2 O2 1_555 1_555
O9 Eu1_2 1_555 1_555
O12 Eu1_2 1_555 1_555
O13 Eu1_2 1_555 1_555
O4 Eu3 1_555 1_555
C2 C3 1_555 1_555
C9 C10 1_555 1_555
C17 C18 1_555 1_555
H6_2 C6_2 1_555 1_555
H21_2 C25_2 1_555 1_555
O3_2 C19_2 1_555 1_555
O4_2 C19_2 1_555 1_555
Eu4 O3_2 1_555 1_555
O4_2 Eu4 1_555 1_555
O7_2 C38_2 1_555 1_555
O8_2 C38_2 1_555 1_555
Eu4_2 O7_2 1_555 1_555
O8_2 Eu4_2 1_555 1_555
H29_2 C36_2 1_555 1_555
O11 C19_3 1_555 1_555
C14_2 C13_2 1_555 1_555
H12_2 C14_2 1_555 1_555
C15_2 C14_2 1_555 1_555
H13_3 C15_2 1_555 1_555
C16_2 C15_2 1_555 1_555
C18_2 C13_2 1_555 1_555
C19_3 C16_2 1_555 1_555
O12 C38_3 1_555 1_555
C33_2 C32_2 1_555 1_555
H27_2 C33_2 1_555 1_555
C34_2 C33_2 1_555 1_555
H28_3 C34_2 1_555 1_555
C35_2 C34_2 1_555 1_555
C37_2 C32_2 1_555 1_555
C38_3 C35_2 1_555 1_555
H14_2 C17_2 1_555 1_555
O5_2 Eu4 1_555 1_555
O10 C30_2 1_555 1_555
N3_2 C20_2 1_555 1_555
N4_2 C20_2 1_555 1_555
C20_2 H16_2 1_555 1_555
C21_2 N4_2 1_555 1_555
H17 C21_2 1_555 1_555
C22_2 N3_2 1_555 1_555
H18_2 C22_2 1_555 1_555
C23_2 N3_2 1_555 1_555
H19_2 C23_2 1_555 1_555
H20_3 C23_2 1_555 1_555
C24_2 C23_2 1_555 1_555
C25_3 C24_2 1_555 1_555
H21_3 C25_3 1_555 1_555
C26_2 C25_3 1_555 1_555
H22_3 C26_2 1_555 1_555
C27_2 C26_2 1_555 1_555
C28_2 C27_2 1_555 1_555
H23_2 C28_2 1_555 1_555
C29_2 C24_2 1_555 1_555
H24_2 C29_2 1_555 1_555
C30_2 O5_2 1_555 1_555
C31_2 N4_2 1_555 1_555
H25 C31_2 1_555 1_555
H26_2 C31_2 1_555 1_555
C32_3 C31_2 1_555 1_555
C33_3 C32_3 1_555 1_555
H27_3 C33_3 1_555 1_555
C34_3 C33_3 1_555 1_555
C35_3 C34_3 1_555 1_555
C36_3 C35_3 1_555 1_555
H29_3 C36_3 1_555 1_555
C37_3 C32_3 1_555 1_555
H30_3 C37_3 1_555 1_555
C21_2 C22_2 1_555 1_555
C27_2 C30_2 1_555 1_555
C28_2 C29_2 1_555 1_555
C36_3 C37_3 1_555 1_555
Eu4_2 O1_2 1_555 1_555
O1_2 C11_2 1_555 1_555
O9 C11_2 1_555 1_555
H6_3 C6_3 1_555 1_555
C7_2 C6_3 1_555 1_555
H7_3 C7_2 1_555 1_555
C8_2 C7_2 1_555 1_555
C9_2 C8_2 1_555 1_555
H8_2 C9_2 1_555 1_555
C11_2 C8_2 1_555 1_555
H14_3 C17_3 1_555 1_555
O4_3 Eu2 1_555 1_555
O3_3 C19_4 1_555 1_555
C14_3 C13_3 1_555 1_555
H12_3 C14_3 1_555 1_555
C15_3 C14_3 1_555 1_555
H13_4 C15_3 1_555 1_555
C16_3 C15_3 1_555 1_555
C18_3 C13_3 1_555 1_555
C19_4 C16_3 1_555 1_555
O7_3 C38_4 1_555 1_555
C33_4 C32_4 1_555 1_555
H27_4 C33_4 1_555 1_555
C34_4 C33_4 1_555 1_555
H28_4 C34_4 1_555 1_555
C35_4 C34_4 1_555 1_555
C37_4 C32_4 1_555 1_555
C38_4 C35_4 1_555 1_555
Eu2_2 O3_3 1_555 1_555
Eu2 O7_3 1_555 1_555
O11_2 Eu1_3 1_555 1_555
O12_2 Eu1_3 1_555 1_555
O13_2 Eu1_3 1_555 1_555
O14_2 Eu1_3 1_555 1_555
H29_4 C36_4 1_555 1_555
O8_3 Eu2_2 1_555 1_555
Eu1_4 O1_3 1_555 1_555
O1_3 C11_3 1_555 1_555
O2_2 C11_3 1_555 1_555
H6_4 C6_4 1_555 1_555
C7_3 C6_4 1_555 1_555
H7_4 C7_3 1_555 1_555
C8_3 C7_3 1_555 1_555
C9_3 C8_3 1_555 1_555
H8_3 C9_3 1_555 1_555
C11_3 C8_3 1_555 1_555
Eu2 O2_2 1_555 1_555
O10_2 Eu1_4 1_555 1_555
O11_3 Eu1_4 1_555 1_555
O13_3 Eu1_4 1_555 1_555
O5_3 Eu1_5 1_555 1_555
O6_2 C30_3 1_555 1_555
N3_3 C20_3 1_555 1_555
N4_3 C20_3 1_555 1_555
C20_3 H16_3 1_555 1_555
C21_3 N4_3 1_555 1_555
H17_3 C21_3 1_555 1_555
C22_3 N3_3 1_555 1_555
H18_3 C22_3 1_555 1_555
C23_3 N3_3 1_555 1_555
H19_3 C23_3 1_555 1_555
H20_4 C23_3 1_555 1_555
C24_3 C23_3 1_555 1_555
C25_4 C24_3 1_555 1_555
H21_4 C25_4 1_555 1_555
C26_3 C25_4 1_555 1_555
H22_4 C26_3 1_555 1_555
C27_3 C26_3 1_555 1_555
C28_3 C27_3 1_555 1_555
H23_3 C28_3 1_555 1_555
C29_3 C24_3 1_555 1_555
H24_3 C29_3 1_555 1_555
C30_3 O5_3 1_555 1_555
C31_3 N4_3 1_555 1_555
H25_3 C31_3 1_555 1_555
H26_3 C31_3 1_555 1_555
C32_5 C31_3 1_555 1_555
C33_5 C32_5 1_555 1_555
H27_5 C33_5 1_555 1_555
C34_5 C33_5 1_555 1_555
C35_5 C34_5 1_555 1_555
C36_5 C35_5 1_555 1_555
H29_5 C36_5 1_555 1_555
C37_5 C32_5 1_555 1_555
H30_5 C37_5 1_555 1_555
O9_2 Eu1_5 1_555 1_555
O12_3 Eu1_5 1_555 1_555
O14_3 Eu1_5 1_555 1_555
O6_2 Eu2_2 1_555 1_555
C21_3 C22_3 1_555 1_555
C27_3 C30_3 1_555 1_555
C28_3 C29_3 1_555 1_555
C36_5 C37_5 1_555 1_555
Eu2 O1_4 1_555 1_555
O1_4 C11_4 1_555 1_555
O10_2 C11_4 1_555 1_555
O11_2 C19_5 1_555 1_555
O13_2 C19_5 1_555 1_555
N1_2 C1_2 1_555 1_555
N2_2 C1_2 1_555 1_555
C1_2 H1_2 1_555 1_555
C2_2 N2_2 1_555 1_555
H2_2 C2_2 1_555 1_555
C3_2 N1_2 1_555 1_555
H3_2 C3_2 1_555 1_555
C4_2 N1_2 1_555 1_555
H4_2 C4_2 1_555 1_555
H5_2 C4_2 1_555 1_555
C5_2 C4_2 1_555 1_555
C6_5 C5_2 1_555 1_555
H6_5 C6_5 1_555 1_555
C7_4 C6_5 1_555 1_555
H7_5 C7_4 1_555 1_555
C8_4 C7_4 1_555 1_555
C9_4 C8_4 1_555 1_555
H8_4 C9_4 1_555 1_555
C10_2 C5_2 1_555 1_555
H9_2 C10_2 1_555 1_555
C11_4 C8_4 1_555 1_555
C12_2 N2_2 1_555 1_555
H10_4 C12_2 1_555 1_555
H11_2 C12_2 1_555 1_555
C13_4 C12_2 1_555 1_555
C14_4 C13_4 1_555 1_555
H12_4 C14_4 1_555 1_555
C15_4 C14_4 1_555 1_555
H13_5 C15_4 1_555 1_555
C16_4 C15_4 1_555 1_555
C17_4 C16_4 1_555 1_555
H14_4 C17_4 1_555 1_555
C18_4 C13_4 1_555 1_555
H15_4 C18_4 1_555 1_555
C19_5 C16_4 1_555 1_555
C2_2 C3_2 1_555 1_555
C9_4 C10_2 1_555 1_555
C17_4 C18_4 1_555 1_555
O5_4 Eu2_2 1_555 1_555
O9_2 C30_4 1_555 1_555
O12_2 C38_5 1_555 1_555
O14_2 C38_5 1_555 1_555
N3_4 C20_4 1_555 1_555
N4_4 C20_4 1_555 1_555
C20_4 H16_4 1_555 1_555
C21_4 N4_4 1_555 1_555
C22_4 N3_4 1_555 1_555
H18_4 C22_4 1_555 1_555
C23_4 N3_4 1_555 1_555
H19_4 C23_4 1_555 1_555
H20_5 C23_4 1_555 1_555
C24_4 C23_4 1_555 1_555
C25_5 C24_4 1_555 1_555
H21_5 C25_5 1_555 1_555
C26_4 C25_5 1_555 1_555
H22_5 C26_4 1_555 1_555
C27_4 C26_4 1_555 1_555
C28_4 C27_4 1_555 1_555
H23_4 C28_4 1_555 1_555
C29_4 C24_4 1_555 1_555
H24_4 C29_4 1_555 1_555
C30_4 O5_4 1_555 1_555
C31_4 N4_4 1_555 1_555
H26_4 C31_4 1_555 1_555
C32_6 C31_4 1_555 1_555
C33_6 C32_6 1_555 1_555
H27_6 C33_6 1_555 1_555
C34_6 C33_6 1_555 1_555
H28_5 C34_6 1_555 1_555
C35_6 C34_6 1_555 1_555
C36_6 C35_6 1_555 1_555
H29_6 C36_6 1_555 1_555
C37_6 C32_6 1_555 1_555
H30_6 C37_6 1_555 1_555
C38_5 C35_6 1_555 1_555
C21_4 C22_4 1_555 1_555
C27_4 C30_4 1_555 1_555
C28_4 C29_4 1_555 1_555
C36_6 C37_6 1_555 1_555
H6_6 C6_6 1_555 1_555
H21_6 C25_6 1_555 1_555
O11_3 C38_6 1_555 1_555
O13_3 C38_6 1_555 1_555
O12_3 C19_6 1_555 1_555
O14_3 C19_6 1_555 1_555
O1_5 C11_5 1_555 1_555
O2_3 C11_5 1_555 1_555
N1_3 C1_3 1_555 1_555
N2_3 C1_3 1_555 1_555
C1_3 H1_3 1_555 1_555
C2_3 N2_3 1_555 1_555
H2_3 C2_3 1_555 1_555
C3_3 N1_3 1_555 1_555
H3_3 C3_3 1_555 1_555
C4_3 N1_3 1_555 1_555
H4_3 C4_3 1_555 1_555
H5_3 C4_3 1_555 1_555
C5_3 C4_3 1_555 1_555
C6_7 C5_3 1_555 1_555
H6_7 C6_7 1_555 1_555
C7_5 C6_7 1_555 1_555
H7_7 C7_5 1_555 1_555
C8_5 C7_5 1_555 1_555
C9_5 C8_5 1_555 1_555
H8_5 C9_5 1_555 1_555
C10_3 C5_3 1_555 1_555
H9_3 C10_3 1_555 1_555
C11_5 C8_5 1_555 1_555
C12_3 N2_3 1_555 1_555
H11_3 C12_3 1_555 1_555
O6_3 C30_5 1_555 1_555
N3_5 C20_5 1_555 1_555
N4_5 C20_5 1_555 1_555
C20_5 H16_5 1_555 1_555
C21_5 N4_5 1_555 1_555
C22_5 N3_5 1_555 1_555
H18_5 C22_5 1_555 1_555
C23_5 N3_5 1_555 1_555
H19_5 C23_5 1_555 1_555
H20_7 C23_5 1_555 1_555
C24_5 C23_5 1_555 1_555
C25_7 C24_5 1_555 1_555
H21_7 C25_7 1_555 1_555
C26_5 C25_7 1_555 1_555
H22_7 C26_5 1_555 1_555
C27_5 C26_5 1_555 1_555
C28_5 C27_5 1_555 1_555
H23_5 C28_5 1_555 1_555
C29_5 C24_5 1_555 1_555
H24_5 C29_5 1_555 1_555
C30_5 O5_5 1_555 1_555
C31_5 N4_5 1_555 1_555
H26_5 C31_5 1_555 1_555
Eu4_3 O2_3 1_555 1_555
C2_3 C3_3 1_555 1_555
C9_5 C10_3 1_555 1_555
O6_3 Eu4_3 1_555 1_555
C21_5 C22_5 1_555 1_555
C27_5 C30_5 1_555 1_555
C28_5 C29_5 1_555 1_555
Eu1_6 O1_6 1_555 1_555
O1_6 C11_6 1_555 1_555
O2_4 C11_6 1_555 1_555
C8_6 C7_6 1_555 1_555
C9_6 C8_6 1_555 1_555
H8_6 C9_6 1_555 1_555
C11_6 C8_6 1_555 1_555
O5_6 Eu1_6 1_555 1_555
O6_4 C30_6 1_555 1_555
O7_4 C38_7 1_555 1_555
O8_4 C38_7 1_555 1_555
N3_6 C20_6 1_555 1_555
N4_6 C20_6 1_555 1_555
C20_6 H16_6 1_555 1_555
C21_6 N4_6 1_555 1_555
H17_5 C21_6 1_555 1_555
C22_6 N3_6 1_555 1_555
H18_6 C22_6 1_555 1_555
C23_6 N3_6 1_555 1_555
H19_6 C23_6 1_555 1_555
C24_6 C23_6 1_555 1_555
C27_6 C26_6 1_555 1_555
C28_6 C27_6 1_555 1_555
H23_6 C28_6 1_555 1_555
C29_6 C24_6 1_555 1_555
H24_6 C29_6 1_555 1_555
C30_6 O5_6 1_555 1_555
C31_6 N4_6 1_555 1_555
H25_5 C31_6 1_555 1_555
H26_6 C31_6 1_555 1_555
C32_7 C31_6 1_555 1_555
C33_7 C32_7 1_555 1_555
H27_7 C33_7 1_555 1_555
C34_7 C33_7 1_555 1_555
H28_7 C34_7 1_555 1_555
C35_7 C34_7 1_555 1_555
C36_7 C35_7 1_555 1_555
H29_7 C36_7 1_555 1_555
C37_7 C32_7 1_555 1_555
H30_7 C37_7 1_555 1_555
C38_7 C35_7 1_555 1_555
Eu4_3 O7_4 1_555 1_555
O9_4 Eu1_6 1_555 1_555
O10_4 Eu1_6 1_555 1_555
O11_4 Eu1_6 1_555 1_555
O12_4 Eu1_6 1_555 1_555
O13_4 Eu1_6 1_555 1_555
O14_4 Eu1_6 1_555 1_555
O8_4 Eu4_3 1_555 1_555
C21_6 C22_6 1_555 1_555
C27_6 C30_6 1_555 1_555
C28_6 C29_6 1_555 1_555
C36_7 C37_7 1_555 1_555
O3_4 C19_7 1_555 1_555
O4_4 C19_7 1_555 1_555
N1_4 C1_4 1_555 1_555
N2_4 C1_4 1_555 1_555
C1_4 H1_4 1_555 1_555
C2_4 N2_4 1_555 1_555
H2_4 C2_4 1_555 1_555
C3_4 N1_4 1_555 1_555
H3_4 C3_4 1_555 1_555
C4_4 N1_4 1_555 1_555
H4_4 C4_4 1_555 1_555
C5_4 C4_4 1_555 1_555
C10_4 C5_4 1_555 1_555
H9_4 C10_4 1_555 1_555
C12_4 N2_4 1_555 1_555
H10_5 C12_4 1_555 1_555
H11_4 C12_4 1_555 1_555
C13_5 C12_4 1_555 1_555
C14_5 C13_5 1_555 1_555
H12_5 C14_5 1_555 1_555
C15_5 C14_5 1_555 1_555
H13_7 C15_5 1_555 1_555
C16_5 C15_5 1_555 1_555
C17_5 C16_5 1_555 1_555
H14_5 C17_5 1_555 1_555
C18_5 C13_5 1_555 1_555
H15_5 C18_5 1_555 1_555
C19_7 C16_5 1_555 1_555
Eu4_3 O3_4 1_555 1_555
O4_4 Eu4_3 1_555 1_555
C2_4 C3_4 1_555 1_555
C17_5 C18_5 1_555 1_555
O1_7 C11_7 1_555 1_555
O10_4 C11_7 1_555 1_555
N1_5 C1_5 1_555 1_555
N2_5 C1_5 1_555 1_555
C1_5 H1_5 1_555 1_555
C2_5 N2_5 1_555 1_555
H2_5 C2_5 1_555 1_555
C3_5 N1_5 1_555 1_555
H3_5 C3_5 1_555 1_555
C4_5 N1_5 1_555 1_555
H4_5 C4_5 1_555 1_555
H5_4 C4_5 1_555 1_555
C5_5 C4_5 1_555 1_555
C6_8 C5_5 1_555 1_555
H6_8 C6_8 1_555 1_555
C7_7 C6_8 1_555 1_555
H7_8 C7_7 1_555 1_555
C8_7 C7_7 1_555 1_555
C9_7 C8_7 1_555 1_555
H8_7 C9_7 1_555 1_555
C10_5 C5_5 1_555 1_555
H9_5 C10_5 1_555 1_555
C11_7 C8_7 1_555 1_555
C12_5 N2_5 1_555 1_555
H11_5 C12_5 1_555 1_555
O9_4 C30_7 1_555 1_555
N3_7 C20_7 1_555 1_555
N4_7 C20_7 1_555 1_555
C20_7 H16_7 1_555 1_555
C21_7 N4_7 1_555 1_555
C22_7 N3_7 1_555 1_555
H18_7 C22_7 1_555 1_555
C23_7 N3_7 1_555 1_555
H19_7 C23_7 1_555 1_555
H20_8 C23_7 1_555 1_555
C24_7 C23_7 1_555 1_555
C25_8 C24_7 1_555 1_555
H21_8 C25_8 1_555 1_555
C26_7 C25_8 1_555 1_555
H22_8 C26_7 1_555 1_555
C27_7 C26_7 1_555 1_555
C28_7 C27_7 1_555 1_555
H23_7 C28_7 1_555 1_555
C29_7 C24_7 1_555 1_555
H24_7 C29_7 1_555 1_555
C30_7 O5_7 1_555 1_555
C31_7 N4_7 1_555 1_555
H26_7 C31_7 1_555 1_555
C2_5 C3_5 1_555 1_555
C9_7 C10_5 1_555 1_555
C21_7 C22_7 1_555 1_555
C27_7 C30_7 1_555 1_555
C28_7 C29_7 1_555 1_555
O12_4 C19_8 1_555 1_555
O14_4 C19_8 1_555 1_555
N1_6 C1_6 1_555 1_555
N2_6 C1_6 1_555 1_555
C1_6 H1_6 1_555 1_555
C2_6 N2_6 1_555 1_555
H2_6 C2_6 1_555 1_555
C3_6 N1_6 1_555 1_555
H3_6 C3_6 1_555 1_555
C4_6 N1_6 1_555 1_555
H4_6 C4_6 1_555 1_555
C5_6 C4_6 1_555 1_555
C10_6 C5_6 1_555 1_555
H9_6 C10_6 1_555 1_555
C12_6 N2_6 1_555 1_555
H10_6 C12_6 1_555 1_555
H11_6 C12_6 1_555 1_555
C13_6 C12_6 1_555 1_555
C14_6 C13_6 1_555 1_555
H12_6 C14_6 1_555 1_555
C15_6 C14_6 1_555 1_555
H13_8 C15_6 1_555 1_555
C16_6 C15_6 1_555 1_555
C17_6 C16_6 1_555 1_555
H14_6 C17_6 1_555 1_555
C18_6 C13_6 1_555 1_555
H15_6 C18_6 1_555 1_555
C19_8 C16_6 1_555 1_555
C2_6 C3_6 1_555 1_555
C17_6 C18_6 1_555 1_555
Eu4_3 O1_8 1_555 1_555
O1_8 C11_8 1_555 1_555
O9_3 C11_8 1_555 1_555
C8_8 C7_8 1_555 1_555
C9_8 C8_8 1_555 1_555
H8_8 C9_8 1_555 1_555
C11_8 C8_8 1_555 1_555
O5_8 Eu4_3 1_555 1_555
O10_3 C30_8 1_555 1_555
O11_4 C38_8 1_555 1_555
O13_4 C38_8 1_555 1_555
N3_8 C20_8 1_555 1_555
N4_8 C20_8 1_555 1_555
C20_8 H16_8 1_555 1_555
C21_8 N4_8 1_555 1_555
H17_6 C21_8 1_555 1_555
C22_8 N3_8 1_555 1_555
H18_8 C22_8 1_555 1_555
C23_8 N3_8 1_555 1_555
H19_8 C23_8 1_555 1_555
C24_8 C23_8 1_555 1_555
C27_8 C26_8 1_555 1_555
C28_8 C27_8 1_555 1_555
H23_8 C28_8 1_555 1_555
C29_8 C24_8 1_555 1_555
H24_8 C29_8 1_555 1_555
C30_8 O5_8 1_555 1_555
C31_8 N4_8 1_555 1_555
H25_6 C31_8 1_555 1_555
H26_8 C31_8 1_555 1_555
C32_8 C31_8 1_555 1_555
C33_8 C32_8 1_555 1_555
H27_8 C33_8 1_555 1_555
C34_8 C33_8 1_555 1_555
H28_8 C34_8 1_555 1_555
C35_8 C34_8 1_555 1_555
C36_8 C35_8 1_555 1_555
H29_8 C36_8 1_555 1_555
C37_8 C32_8 1_555 1_555
H30_8 C37_8 1_555 1_555
C38_8 C35_8 1_555 1_555
C21_8 C22_8 1_555 1_555
C27_8 C30_8 1_555 1_555
C28_8 C29_8 1_555 1_555
C36_8 C37_8 1_555 1_555
N1_7 C1_7 1_555 1_555
N2_7 C1_7 1_555 1_555
C1_7 H1_7 1_555 1_555
C2_7 N2_7 1_555 1_555
H2_7 C2_7 1_555 1_555
C3_7 N1_7 1_555 1_555
H3_7 C3_7 1_555 1_555
C4_7 N1_7 1_555 1_555
H4_7 C4_7 1_555 1_555
H5_6 C4_7 1_555 1_555
C5_7 C4_7 1_555 1_555
C10_7 C5_7 1_555 1_555
H9_7 C10_7 1_555 1_555
C12_7 N2_7 1_555 1_555
H10_7 C12_7 1_555 1_555
H11_7 C12_7 1_555 1_555
C13_7 C12_7 1_555 1_555
C14_7 C13_7 1_555 1_555
H12_7 C14_7 1_555 1_555
C15_7 C14_7 1_555 1_555
C16_7 C15_7 1_555 1_555
C17_7 C16_7 1_555 1_555
H14_7 C17_7 1_555 1_555
C18_7 C13_7 1_555 1_555
H15_7 C18_7 1_555 1_555
C2_7 C3_7 1_555 1_555
C17_7 C18_7 1_555 1_555
N1_8 C1_8 1_555 1_555
N2_8 C1_8 1_555 1_555
C1_8 H1_8 1_555 1_555
C2_8 N2_8 1_555 1_555
H2_8 C2_8 1_555 1_555
C3_8 N1_8 1_555 1_555
H3_8 C3_8 1_555 1_555
C4_8 N1_8 1_555 1_555
H4_8 C4_8 1_555 1_555
H5_8 C4_8 1_555 1_555
C5_8 C4_8 1_555 1_555
C10_8 C5_8 1_555 1_555
H9_8 C10_8 1_555 1_555
C12_8 N2_8 1_555 1_555
H10_8 C12_8 1_555 1_555
H11_8 C12_8 1_555 1_555
C13_8 C12_8 1_555 1_555
C14_8 C13_8 1_555 1_555
H12_8 C14_8 1_555 1_555
C15_8 C14_8 1_555 1_555
C16_8 C15_8 1_555 1_555
C17_8 C16_8 1_555 1_555
H14_8 C17_8 1_555 1_555
C18_8 C13_8 1_555 1_555
H15_8 C18_8 1_555 1_555
C2_8 C3_8 1_555 1_555
C17_8 C18_8 1_555 1_555

#END
