
###############################################################################
#
# This file contains modified crystal structure data generated from the
# MOF subset of the Cambridge Structural Database (CSD) v543 
# hosted by the Cambridge Crystallographic Data Centre (CCDC).
#
# This work is licensed under the Creative Commons
# Attribution-NonCommercial-ShareAlike 4.0 International License.
# To view a copy of this license, visit
# http://creativecommons.org/licenses/by-nc-sa/4.0/
# or send a letter to
# Creative Commons, PO Box 1866, Mountain View, CA 94042, USA.
#
# CIF created using the CSD Python API on 29 September 2022
# The structure has been converted into the P1 space group
# The structure has a 3D framework
# The original CSD entry YEZFIU is in the rhombohedral crystal system
# The framework has been calculated to contain at least 10.0% void space
# The void calculation uses a probe of radius 1.32A, grid spacing 0.4
#
###############################################################################

data_YEZFIU
_chemical_formula_moiety         '(C108 H150 N144 O18 Zn18)n'
_symmetry_cell_setting           triclinic
_symmetry_space_group_name_H-M   'P 1'
_symmetry_Int_Tables_number      1
_space_group_name_Hall           'P 1'
loop_
_symmetry_equiv_pos_site_id
_symmetry_equiv_pos_as_xyz
1 x,y,z
_cell_length_a                   24.990(4)
_cell_length_b                   24.990(4)
_cell_length_c                   13.0478(16)
_cell_angle_alpha                90
_cell_angle_beta                 90
_cell_angle_gamma                120
_cell_volume                     7056.68
loop_
_atom_site_label
_atom_site_type_symbol
_atom_site_fract_x
_atom_site_fract_y
_atom_site_fract_z
N5 N 0.1419(2) 0.2444(2) 0.0387(3)
N6 N 0.1400(2) 0.2828(2) 0.1111(3)
N7 N 0.0849(2) 0.2746(2) 0.1133(3)
N8 N 0.04945(19) 0.2303(2) 0.0434(3)
N9 N 0.27069(19) 0.27075(28) 0.1330(3)
Zn1 Zn 0.22263(3) 0.25407(3) 0.99869(4)
C1 C 0.2894(2) 0.3378(2) 0.8152(4)
C2 C 0.2579(2) 0.2903(2) 0.7323(4)
H1 H 0.2655 0.2563 0.7436
H2 H 0.2758 0.3088 0.6666
C3 C 0.1882(3) 0.2652(2) 0.7283(4)
H3 H 0.1798 0.2991 0.7234
H4 H 0.1707 0.2390 0.6686
C4 C 0.0953(2) 0.1999(3) 0.8116(4)
H5 H 0.0812 0.1696 0.7568
H6 H 0.0821 0.2295 0.7964
C5 C 0.0678(3) 0.1680(3) 0.9127(4)
H7 H 0.0231 0.1448 0.9069
H8 H 0.0819 0.1391 0.9280
C6 C 0.0858(2) 0.2136(2) 0.9982(4)
N1 N 0.2774(2) 0.3281(2) 0.9157(3)
N2 N 0.3163(2) 0.3832(2) 0.9625(3)
N3 N 0.3493(2) 0.4235(2) 0.8943(3)
N4 N 0.3334(2) 0.39598(19) 0.7997(3)
O1 O 0.16107(16) 0.23068(17) 0.8185(3)
Zn2 Zn 0.36477(4) 0.44404(3) 0.66536(4)
N10 N 0.2303(2) 0.18085(28) 0.9566(3)
Zn3 Zn 0.96856(4) 0.22263(3) 0.00131(4)
N5_2 N 0.7556(2) 0.8975(3) 0.0387(3)
N6_2 N 0.7172(2) 0.8572(3) 0.1111(3)
N7_2 N 0.7254(2) 0.8103(3) 0.1133(3)
N8_2 N 0.7697(2) 0.81915(28) 0.0434(3)
Zn3_2 Zn 0.77737(3) 0.74593(5) 0.00131(4)
N9_2 N 0.72925(28) 0.99993(34) 0.1330(3)
Zn1_2 Zn 0.74593(3) 0.96856(4) 0.99869(4)
C1_2 C 0.6622(2) 0.9516(3) 0.8152(4)
C2_2 C 0.7097(2) 0.9676(3) 0.7323(4)
H2_2 H 0.6912 0.9670 0.6666
C3_2 C 0.7348(2) 0.9230(4) 0.7283(4)
H3_2 H 0.7009 0.8807 0.7234
H4_2 H 0.7610 0.9317 0.6686
C4_2 C 0.8001(3) 0.8954(4) 0.8116(4)
H5_2 H 0.8304 0.9116 0.7568
H6_2 H 0.7705 0.8526 0.7964
C5_2 C 0.8320(3) 0.8998(4) 0.9127(4)
H7_2 H 0.8552 0.8783 0.9069
H8_2 H 0.8609 0.9428 0.9280
C6_2 C 0.7864(2) 0.8722(3) 0.9982(4)
N1_2 N 0.6719(2) 0.9493(3) 0.9157(3)
N2_2 N 0.6168(2) 0.9331(3) 0.9625(3)
N3_2 N 0.5765(2) 0.9258(3) 0.8943(3)
N4_2 N 0.60402(19) 0.93742(28) 0.7997(3)
O1_2 O 0.76932(17) 0.93039(23) 0.8185(3)
Zn2_2 Zn 0.55596(3) 0.92074(5) 0.66536(4)
Zn3_3 Zn 0.25407(5) 0.03144(4) 0.00131(4)
Zn1_3 Zn 0.03144(4) 0.77737(3) 0.99869(4)
C1_3 C 0.0484(3) 0.7106(2) 0.8152(4)
C2_3 C 0.0324(3) 0.7421(2) 0.7323(4)
H2_3 H 0.0330 0.7242 0.6666
C3_3 C 0.0770(4) 0.8118(3) 0.7283(4)
H3_3 H 0.1193 0.8202 0.7234
H4_3 H 0.0683 0.8293 0.6686
C4_3 C 0.1046(4) 0.9047(2) 0.8116(4)
H5_3 H 0.0884 0.9188 0.7568
H6_3 H 0.1474 0.9179 0.7964
C5_3 C 0.1002(4) 0.9322(3) 0.9127(4)
H7_3 H 0.1217 0.9769 0.9069
H8_3 H 0.0572 0.9181 0.9280
C6_3 C 0.1278(3) 0.9142(2) 0.9982(4)
N1_3 N 0.0507(3) 0.7226(2) 0.9157(3)
N2_3 N 0.0669(3) 0.6837(2) 0.9625(3)
N3_3 N 0.0742(3) 0.6507(2) 0.8943(3)
N4_3 N 0.06258(28) 0.6666(2) 0.7997(3)
O1_3 O 0.06961(23) 0.83893(16) 0.8185(3)
Zn2_3 Zn 0.07926(5) 0.63523(4) 0.66536(4)
H1_2 H 0.9908 0.7345 0.7436
N10_2 N 0.95055(34) 0.7697(2) 0.9566(3)
Zn1_4 Zn 0.88930(3) 0.58740(3) 0.33202(4)
C1_4 C 0.9561(2) 0.6711(2) 0.1485(4)
C2_4 C 0.9246(2) 0.6236(2) 0.0656(4)
H1_3 H 0.9322 0.5896 0.0769
H2_4 H 0.9425 0.6421 -0.0001
C3_4 C 0.8549(3) 0.5985(2) 0.0616(4)
H3_4 H 0.8465 0.6324 0.0567
H4_4 H 0.8374 0.5723 0.0019
C4_4 C 0.7620(2) 0.5332(3) 0.1449(4)
H5_4 H 0.7479 0.5029 0.0901
H6_4 H 0.7488 0.5628 0.1297
C5_4 C 0.7345(3) 0.5013(3) 0.2460(4)
H7_4 H 0.6898 0.4781 0.2402
H8_4 H 0.7486 0.4724 0.2613
C6_4 C 0.7525(2) 0.5469(2) 0.3315(4)
N1_4 N 0.9441(2) 0.6614(2) 0.2490(3)
N2_4 N 0.9830(2) 0.7165(2) 0.2958(3)
N5_3 N 0.8086(2) 0.5777(2) 0.3720(3)
N6_3 N 0.8067(2) 0.6161(2) 0.4444(3)
N7_3 N 0.7516(2) 0.6079(2) 0.4466(3)
N8_3 N 0.71612(19) 0.5636(2) 0.3767(3)
O1_4 O 0.82774(16) 0.56401(17) 0.1518(3)
Zn3_4 Zn 0.63523(4) 0.55596(3) 0.33464(4)
N9_3 N 0.93735(19) 0.60409(28) 0.4664(3)
N10_3 N 0.8970(2) 0.51418(28) 0.2899(3)
Zn1_5 Zn 0.41260(3) 0.30189(4) 0.33202(4)
C1_5 C 0.3289(2) 0.2849(3) 0.1485(4)
C2_5 C 0.3764(2) 0.3009(3) 0.0656(4)
H1_4 H 0.4104 0.3425 0.0769
H2_5 H 0.3579 0.3003 -0.0001
C3_5 C 0.4015(2) 0.2563(4) 0.0616(4)
H3_5 H 0.3676 0.2140 0.0567
H4_5 H 0.4277 0.2650 0.0019
C4_5 C 0.4668(3) 0.2287(4) 0.1449(4)
H5_5 H 0.4971 0.2449 0.0901
H6_5 H 0.4372 0.1859 0.1297
C5_5 C 0.4987(3) 0.2331(4) 0.2460(4)
H7_5 H 0.5219 0.2116 0.2402
H8_5 H 0.5276 0.2761 0.2613
C6_5 C 0.4531(2) 0.2055(3) 0.3315(4)
N1_5 N 0.3386(2) 0.2826(3) 0.2490(3)
N2_5 N 0.2835(2) 0.2664(3) 0.2958(3)
N3_4 N 0.2432(2) 0.2591(3) 0.2276(3)
N5_4 N 0.4223(2) 0.2308(3) 0.3720(3)
N6_4 N 0.3839(2) 0.1905(3) 0.4444(3)
N7_4 N 0.3921(2) 0.1436(3) 0.4466(3)
N8_4 N 0.4364(2) 0.15248(28) 0.3767(3)
O1_5 O 0.43599(17) 0.26372(23) 0.1518(3)
Zn3_5 Zn 0.44404(3) 0.07926(5) 0.33464(4)
N9_4 N 0.39591(28) 0.33327(34) 0.4664(3)
N10_4 N 0.48582(28) 0.38278(34) 0.2899(3)
H2_6 H 0.3579 0.3003 0.9999
Zn1_6 Zn 0.69811(4) 0.11070(3) 0.33202(4)
C1_6 C 0.7151(3) 0.0439(2) 0.1485(4)
C2_6 C 0.6991(3) 0.0754(2) 0.0656(4)
H1_5 H 0.6575 0.0678 0.0769
H2_7 H 0.6997 0.0575 -0.0001
C3_6 C 0.7437(4) 0.1451(3) 0.0616(4)
H3_6 H 0.7860 0.1535 0.0567
H4_6 H 0.7350 0.1626 0.0019
C4_6 C 0.7713(4) 0.2380(2) 0.1449(4)
H5_6 H 0.7551 0.2521 0.0901
H6_6 H 0.8141 0.2512 0.1297
C5_6 C 0.7669(4) 0.2655(3) 0.2460(4)
H7_6 H 0.7884 0.3102 0.2402
H8_6 H 0.7239 0.2514 0.2613
C6_6 C 0.7945(3) 0.2475(2) 0.3315(4)
N1_6 N 0.7174(3) 0.0559(2) 0.2490(3)
N2_6 N 0.7336(3) 0.0170(2) 0.2958(3)
N5_5 N 0.7692(3) 0.1914(2) 0.3720(3)
N6_5 N 0.8095(3) 0.1933(2) 0.4444(3)
N7_5 N 0.8564(3) 0.2484(2) 0.4466(3)
N8_5 N 0.84752(28) 0.28388(19) 0.3767(3)
O1_6 O 0.73628(23) 0.17226(16) 0.1518(3)
Zn3_6 Zn 0.92074(5) 0.36477(4) 0.33464(4)
N9_5 N 0.66673(34) 0.06265(19) 0.4664(3)
N10_5 N 0.61722(34) 0.1030(2) 0.2899(3)
N3_5 N 0.7409(3) 0.9840(2) 0.2276(3)
C1_7 C 0.6227(2) 0.0045(2) 0.4819(4)
N2_7 N 0.6496(2) 0.0499(2) 0.6292(3)
N3_6 N 0.6826(2) 0.0902(2) 0.5610(3)
C2_7 C 0.5912(2) 0.9570(2) 0.3990(4)
H1_6 H 0.5988 0.9230 0.4103
H2_8 H 0.6091 0.9755 0.3333
C3_7 C 0.5215(3) 0.9319(2) 0.3950(4)
H3_7 H 0.5131 0.9658 0.3901
H4_7 H 0.5040 0.9057 0.3353
C4_7 C 0.4286(2) 0.8666(3) 0.4783(4)
H5_7 H 0.4145 0.8363 0.4235
H6_7 H 0.4154 0.8962 0.4631
C5_7 C 0.4011(3) 0.8347(3) 0.5794(4)
H7_7 H 0.3564 0.8115 0.5736
H8_7 H 0.4152 0.8058 0.5947
C6_7 C 0.4191(2) 0.8803(2) 0.6649(4)
N1_7 N 0.6107(2) 0.9948(2) 0.5824(3)
N5_6 N 0.4752(2) 0.9111(2) 0.7054(3)
N6_6 N 0.4733(2) 0.9495(2) 0.7778(3)
N7_6 N 0.4182(2) 0.9413(2) 0.7800(3)
N8_6 N 0.38278(19) 0.8970(2) 0.7101(3)
O1_7 O 0.49440(16) 0.89735(17) 0.4852(3)
Zn3_7 Zn 0.30189(4) 0.88930(3) 0.66798(4)
N10_6 N 0.5636(2) 0.84752(28) 0.6233(3)
C2_8 C 0.0430(2) 0.6343(3) 0.3990(4)
H1_7 H 0.0770 0.6759 0.4103
H2_9 H 0.0245 0.6337 0.3333
C3_8 C 0.0681(2) 0.5897(4) 0.3950(4)
H3_8 H 0.0342 0.5474 0.3901
H4_8 H 0.0943 0.5984 0.3353
C4_8 C 0.1334(3) 0.5621(4) 0.4783(4)
H5_8 H 0.1637 0.5783 0.4235
H6_8 H 0.1038 0.5193 0.4631
C5_8 C 0.1653(3) 0.5665(4) 0.5794(4)
H7_8 H 0.1885 0.5450 0.5736
H8_8 H 0.1942 0.6095 0.5947
C6_8 C 0.1197(2) 0.5389(3) 0.6649(4)
N1_8 N 0.0052(2) 0.6160(3) 0.5824(3)
N5_7 N 0.0889(2) 0.5642(3) 0.7054(3)
N6_7 N 0.0505(2) 0.5239(3) 0.7778(3)
N7_7 N 0.0587(2) 0.4770(3) 0.7800(3)
N8_7 N 0.1030(2) 0.48582(28) 0.7101(3)
O1_8 O 0.10265(17) 0.59706(23) 0.4852(3)
Zn3_8 Zn 0.11070(3) 0.41260(5) 0.66798(4)
N10_7 N 0.15248(28) 0.71612(34) 0.6233(3)
C1_8 C 0.9955(2) 0.6183(3) 0.4819(4)
N2_8 N 0.9501(2) 0.5998(3) 0.6292(3)
N3_7 N 0.9098(2) 0.5925(3) 0.5610(3)
C1_9 C 0.3817(3) 0.3773(2) 0.4819(4)
C2_9 C 0.3657(3) 0.4088(2) 0.3990(4)
H1_8 H 0.3241 0.4012 0.4103
H2_10 H 0.3663 0.3909 0.3333
C3_9 C 0.4103(4) 0.4785(3) 0.3950(4)
H3_9 H 0.4526 0.4869 0.3901
H4_9 H 0.4016 0.4960 0.3353
C4_9 C 0.4379(4) 0.5714(2) 0.4783(4)
H5_9 H 0.4217 0.5855 0.4235
H6_9 H 0.4807 0.5846 0.4631
C5_9 C 0.4335(4) 0.5989(3) 0.5794(4)
H7_9 H 0.4550 0.6436 0.5736
H8_9 H 0.3905 0.5848 0.5947
C6_9 C 0.4611(3) 0.5809(2) 0.6649(4)
N1_9 N 0.3840(3) 0.3893(2) 0.5824(3)
N2_9 N 0.4002(3) 0.3504(2) 0.6292(3)
N3_8 N 0.4075(3) 0.3174(2) 0.5610(3)
N5_8 N 0.4358(3) 0.5248(2) 0.7054(3)
N6_8 N 0.4761(3) 0.5267(2) 0.7778(3)
N7_8 N 0.5230(3) 0.5818(2) 0.7800(3)
N8_8 N 0.51418(28) 0.61722(19) 0.7101(3)
O1_9 O 0.40294(23) 0.50560(16) 0.4852(3)
Zn3_9 Zn 0.58740(5) 0.69811(4) 0.66798(4)
N10_8 N 0.28388(34) 0.4364(2) 0.6233(3)
C1_10 C 0.7106(2) 0.6622(2) 0.1848(4)
C2_10 C 0.7421(2) 0.7097(2) 0.2677(4)
H1_9 H 0.7345 0.7437 0.2564
H2_11 H 0.7242 0.6912 0.3334
C3_10 C 0.8118(3) 0.7348(2) 0.2717(4)
H3_10 H 0.8202 0.7009 0.2766
H4_10 H 0.8293 0.7610 0.3314
C4_10 C 0.9047(2) 0.8001(3) 0.1884(4)
H5_10 H 0.9188 0.8304 0.2432
H6_10 H 0.9179 0.7705 0.2036
C5_10 C 0.9322(3) 0.8320(3) 0.0873(4)
H7_10 H 0.9769 0.8552 0.0931
H8_10 H 0.9181 0.8609 0.0720
C6_10 C 0.9142(2) 0.7864(2) 0.0018(4)
N1_10 N 0.7226(2) 0.6719(2) 0.0843(3)
N2_10 N 0.6837(2) 0.6168(2) 0.0375(3)
N3_9 N 0.6507(2) 0.5765(2) 0.1057(3)
N4_4 N 0.6666(2) 0.60402(19) 0.2003(3)
O1_10 O 0.83893(16) 0.76932(17) 0.1815(3)
N5_9 N 0.8581(2) 0.7556(2) 0.9613(3)
N6_9 N 0.8600(2) 0.7172(2) 0.8889(3)
N7_9 N 0.9151(2) 0.7254(2) 0.8867(3)
N9_6 N 0.72931(19) 0.72925(28) 0.8670(3)
C1_11 C 0.3378(2) 0.0484(3) 0.1848(4)
C2_11 C 0.2903(2) 0.0324(3) 0.2677(4)
H2_12 H 0.3088 0.0330 0.3334
C3_11 C 0.2652(2) 0.0770(4) 0.2717(4)
H3_11 H 0.2991 0.1193 0.2766
H4_11 H 0.2390 0.0683 0.3314
C4_11 C 0.1999(3) 0.1046(4) 0.1884(4)
H5_11 H 0.1696 0.0884 0.2432
H6_11 H 0.2295 0.1474 0.2036
C5_11 C 0.1680(3) 0.1002(4) 0.0873(4)
H7_11 H 0.1448 0.1217 0.0931
H8_11 H 0.1391 0.0572 0.0720
C6_11 C 0.2136(2) 0.1278(3) 0.0018(4)
N1_11 N 0.3281(2) 0.0507(3) 0.0843(3)
N2_11 N 0.3832(2) 0.0669(3) 0.0375(3)
N3_10 N 0.4235(2) 0.0742(3) 0.1057(3)
N4_5 N 0.39598(19) 0.06258(28) 0.2003(3)
O1_11 O 0.23068(17) 0.06961(23) 0.1815(3)
N5_10 N 0.2444(2) 0.1025(3) 0.9613(3)
N6_10 N 0.2828(2) 0.1428(3) 0.8889(3)
N7_10 N 0.2746(2) 0.1897(3) 0.8867(3)
N9_7 N 0.27075(28) 0.00007(34) 0.8670(3)
H1_10 H 0.0092 0.2655 0.2564
C1_12 C 0.9516(3) 0.2894(2) 0.1848(4)
C2_12 C 0.9676(3) 0.2579(2) 0.2677(4)
H2_13 H 0.9670 0.2758 0.3334
C3_12 C 0.9230(4) 0.1882(3) 0.2717(4)
H3_12 H 0.8807 0.1798 0.2766
H4_12 H 0.9317 0.1707 0.3314
C4_12 C 0.8954(4) 0.0953(2) 0.1884(4)
H5_12 H 0.9116 0.0812 0.2432
H6_12 H 0.8526 0.0821 0.2036
C5_12 C 0.8998(4) 0.0678(3) 0.0873(4)
H7_12 H 0.8783 0.0231 0.0931
H8_12 H 0.9428 0.0819 0.0720
C6_12 C 0.8722(3) 0.0858(2) 0.0018(4)
N1_12 N 0.9493(3) 0.2774(2) 0.0843(3)
N2_12 N 0.9331(3) 0.3163(2) 0.0375(3)
N3_11 N 0.9258(3) 0.3493(2) 0.1057(3)
N4_6 N 0.93742(28) 0.3334(2) 0.2003(3)
O1_12 O 0.93039(23) 0.16107(16) 0.1815(3)
C1_13 C 0.0439(2) 0.3289(2) 0.8515(4)
C2_13 C 0.0754(2) 0.3764(2) 0.9344(4)
H1_11 H 0.0678 0.4104 0.9231
H2_14 H 0.0575 0.3579 1.0001
C3_13 C 0.1451(3) 0.4015(2) 0.9384(4)
H3_13 H 0.1535 0.3676 0.9433
H4_13 H 0.1626 0.4277 0.9981
C4_13 C 0.2380(2) 0.4668(3) 0.8551(4)
H5_13 H 0.2521 0.4971 0.9099
H6_13 H 0.2512 0.4372 0.8703
C5_13 C 0.2655(3) 0.4987(3) 0.7540(4)
H7_13 H 0.3102 0.5219 0.7598
H8_13 H 0.2514 0.5276 0.7387
C6_13 C 0.2475(2) 0.4531(2) 0.6685(4)
N1_13 N 0.0559(2) 0.3386(2) 0.7510(3)
N2_13 N 0.0170(2) 0.2835(2) 0.7042(3)
N5_11 N 0.1914(2) 0.4223(2) 0.6280(3)
N6_11 N 0.1933(2) 0.3839(2) 0.5556(3)
N7_11 N 0.2484(2) 0.3921(2) 0.5534(3)
O1_13 O 0.17226(16) 0.43599(17) 0.8482(3)
N9_8 N 0.06265(19) 0.39591(28) 0.5336(3)
H2_15 H 0.6421 0.6997 0.0001
C1_14 C 0.6711(2) 0.7151(3) 0.8515(4)
C2_14 C 0.6236(2) 0.6991(3) 0.9344(4)
H1_12 H 0.5896 0.6575 0.9231
H2_16 H 0.6421 0.6997 1.0001
C3_14 C 0.5985(2) 0.7437(4) 0.9384(4)
H3_14 H 0.6324 0.7860 0.9433
H4_14 H 0.5723 0.7350 0.9981
C4_14 C 0.5332(3) 0.7713(4) 0.8551(4)
H5_14 H 0.5029 0.7551 0.9099
H6_14 H 0.5628 0.8141 0.8703
C5_14 C 0.5013(3) 0.7669(4) 0.7540(4)
H7_14 H 0.4781 0.7884 0.7598
H8_14 H 0.4724 0.7239 0.7387
C6_14 C 0.5469(2) 0.7945(3) 0.6685(4)
N1_14 N 0.6614(2) 0.7174(3) 0.7510(3)
N2_14 N 0.7165(2) 0.7336(3) 0.7042(3)
N3_12 N 0.7568(2) 0.7409(3) 0.7724(3)
N5_12 N 0.5777(2) 0.7692(3) 0.6280(3)
N6_12 N 0.6161(2) 0.8095(3) 0.5556(3)
N7_12 N 0.6079(2) 0.8564(3) 0.5534(3)
O1_14 O 0.56401(17) 0.73628(23) 0.8482(3)
N9_9 N 0.60409(28) 0.66673(34) 0.5336(3)
N3_13 N 0.2591(3) 0.0160(2) 0.7724(3)
C1_15 C 0.2849(3) 0.9561(2) 0.8515(4)
C2_15 C 0.3009(3) 0.9246(2) 0.9344(4)
H1_13 H 0.3425 0.9322 0.9231
H2_17 H 0.3003 0.9425 1.0001
C3_15 C 0.2563(4) 0.8549(3) 0.9384(4)
H3_15 H 0.2140 0.8465 0.9433
H4_15 H 0.2650 0.8374 0.9981
C4_15 C 0.2287(4) 0.7620(2) 0.8551(4)
H5_15 H 0.2449 0.7479 0.9099
H6_15 H 0.1859 0.7488 0.8703
C5_15 C 0.2331(4) 0.7345(3) 0.7540(4)
H7_15 H 0.2116 0.6898 0.7598
H8_15 H 0.2761 0.7486 0.7387
C6_15 C 0.2055(3) 0.7525(2) 0.6685(4)
N1_15 N 0.2826(3) 0.9441(2) 0.7510(3)
N2_15 N 0.2664(3) 0.9830(2) 0.7042(3)
N5_13 N 0.2308(3) 0.8086(2) 0.6280(3)
N6_13 N 0.1905(3) 0.8067(2) 0.5556(3)
N7_13 N 0.1436(3) 0.7516(2) 0.5534(3)
O1_15 O 0.26372(23) 0.82774(16) 0.8482(3)
N9_10 N 0.33327(34) 0.93735(19) 0.5336(3)
C2_16 C 0.4088(2) 0.0430(2) 0.6010(4)
H1_14 H 0.4012 0.0770 0.5897
H2_18 H 0.3909 0.0245 0.6667
C3_16 C 0.4785(3) 0.0681(2) 0.6050(4)
H3_16 H 0.4869 0.0342 0.6099
H4_16 H 0.4960 0.0943 0.6647
C4_16 C 0.5714(2) 0.1334(3) 0.5217(4)
H5_16 H 0.5855 0.1637 0.5765
H6_16 H 0.5846 0.1038 0.5369
C5_16 C 0.5989(3) 0.1653(3) 0.4206(4)
H7_16 H 0.6436 0.1885 0.4264
H8_16 H 0.5848 0.1942 0.4053
C6_16 C 0.5809(2) 0.1197(2) 0.3351(4)
N1_16 N 0.3893(2) 0.0052(2) 0.4176(3)
N5_14 N 0.5248(2) 0.0889(2) 0.2946(3)
N6_14 N 0.5267(2) 0.0505(2) 0.2222(3)
N7_14 N 0.5818(2) 0.0587(2) 0.2200(3)
O1_16 O 0.50560(16) 0.10265(17) 0.5148(3)
C1_16 C 0.3773(2) 0.9955(2) 0.5181(4)
N2_16 N 0.3504(2) 0.9501(2) 0.3708(3)
N3_14 N 0.3174(2) 0.9098(2) 0.4390(3)
C1_17 C 0.0045(2) 0.3817(3) 0.5181(4)
N2_17 N 0.0499(2) 0.4002(3) 0.3708(3)
N3_15 N 0.0902(2) 0.4075(3) 0.4390(3)
C2_17 C 0.9570(2) 0.3657(3) 0.6010(4)
H1_15 H 0.9230 0.3241 0.5897
H2_19 H 0.9755 0.3663 0.6667
C3_17 C 0.9319(2) 0.4103(4) 0.6050(4)
H3_17 H 0.9658 0.4526 0.6099
H4_17 H 0.9057 0.4016 0.6647
C4_17 C 0.8666(3) 0.4379(4) 0.5217(4)
H5_17 H 0.8363 0.4217 0.5765
H6_17 H 0.8962 0.4807 0.5369
C5_17 C 0.8347(3) 0.4335(4) 0.4206(4)
H7_17 H 0.8115 0.4550 0.4264
H8_17 H 0.8058 0.3905 0.4053
C6_17 C 0.8803(2) 0.4611(3) 0.3351(4)
N1_17 N 0.9948(2) 0.3840(3) 0.4176(3)
N5_15 N 0.9111(2) 0.4358(3) 0.2946(3)
N6_15 N 0.9495(2) 0.4761(3) 0.2222(3)
N7_15 N 0.9413(2) 0.5230(3) 0.2200(3)
O1_17 O 0.89735(17) 0.40294(23) 0.5148(3)
C1_18 C 0.6183(3) 0.6227(2) 0.5181(4)
C2_18 C 0.6343(3) 0.5912(2) 0.6010(4)
H1_16 H 0.6759 0.5988 0.5897
H2_20 H 0.6337 0.6091 0.6667
C3_18 C 0.5897(4) 0.5215(3) 0.6050(4)
H3_18 H 0.5474 0.5131 0.6099
H4_18 H 0.5984 0.5040 0.6647
C4_18 C 0.5621(4) 0.4286(2) 0.5217(4)
H5_18 H 0.5783 0.4145 0.5765
H6_18 H 0.5193 0.4154 0.5369
C5_18 C 0.5665(4) 0.4011(3) 0.4206(4)
H7_18 H 0.5450 0.3564 0.4264
H8_18 H 0.6095 0.4152 0.4053
C6_18 C 0.5389(3) 0.4191(2) 0.3351(4)
N1_18 N 0.6160(3) 0.6107(2) 0.4176(3)
N2_18 N 0.5998(3) 0.6496(2) 0.3708(3)
N3_16 N 0.5925(3) 0.6826(2) 0.4390(3)
N5_16 N 0.5642(3) 0.4752(2) 0.2946(3)
N6_16 N 0.5239(3) 0.4733(2) 0.2222(3)
N7_16 N 0.4770(3) 0.4182(2) 0.2200(3)
O1_18 O 0.59706(23) 0.49440(16) 0.5148(3)
H1_17 H 0.7437 0.0092 0.7436
N10_9 N 0.81915(28) 0.04945(34) 0.9566(3)
N5_17 N 0.8975(3) 0.1419(2) 0.9613(3)
N6_17 N 0.8572(3) 0.1400(2) 0.8889(3)
N7_17 N 0.8103(3) 0.0849(2) 0.8867(3)
N9_11 N 0.99993(34) 0.27069(19) 0.8670(3)
N3_17 N 0.9840(2) 0.2432(2) 0.7724(3)
N5_18 N 0.1025(3) 0.8581(2) 0.0387(3)
N6_18 N 0.1428(3) 0.8600(2) 0.1111(3)
N7_18 N 0.1897(3) 0.9151(2) 0.1133(3)
N8_9 N 0.18085(28) 0.95055(19) 0.0434(3)
N9_12 N 0.00007(34) 0.72931(19) 0.1330(3)
N3_18 N 0.0160(2) 0.7568(2) 0.2276(3)
H1_18 H 0.2563 0.9908 0.2564
H2_21 H 0.9425 0.6421 0.9999
H2_22 H 0.6997 0.0575 0.9999
H2_23 H 0.0575 0.3579 0.0001
H2_24 H 0.3003 0.9425 0.0001
loop_
_geom_bond_atom_site_label_1
_geom_bond_atom_site_label_2
_geom_bond_site_symmetry_1
_geom_bond_site_symmetry_2
N6 N5 1_555 1_555
N7 N6 1_555 1_555
N7 N8 1_555 1_555
Zn1 N1 1_555 1_555
C1 C2 1_555 1_555
C2 H1 1_555 1_555
H2 C2 1_555 1_555
C3 C2 1_555 1_555
H3 C3 1_555 1_555
H4 C3 1_555 1_555
C4 H5 1_555 1_555
H6 C4 1_555 1_555
C5 C4 1_555 1_555
H7 C5 1_555 1_555
H8 C5 1_555 1_555
C6 C5 1_555 1_555
N1 C1 1_555 1_555
N2 N1 1_555 1_555
N3 N2 1_555 1_555
N4 C1 1_555 1_555
O1 C3 1_555 1_555
Zn2 N4 1_555 1_555
N10 Zn1 1_555 1_555
C4 O1 1_555 1_555
N3 N4 1_555 1_555
N6_2 N5_2 1_555 1_555
N7_2 N6_2 1_555 1_555
Zn3_2 N8_2 1_555 1_555
N7_2 N8_2 1_555 1_555
Zn1_2 N1_2 1_555 1_555
C1_2 C2_2 1_555 1_555
H2_2 C2_2 1_555 1_555
C3_2 C2_2 1_555 1_555
H3_2 C3_2 1_555 1_555
H4_2 C3_2 1_555 1_555
C4_2 H5_2 1_555 1_555
H6_2 C4_2 1_555 1_555
C5_2 C4_2 1_555 1_555
H7_2 C5_2 1_555 1_555
H8_2 C5_2 1_555 1_555
C6_2 C5_2 1_555 1_555
N1_2 C1_2 1_555 1_555
N2_2 N1_2 1_555 1_555
N3_2 N2_2 1_555 1_555
N4_2 C1_2 1_555 1_555
O1_2 C3_2 1_555 1_555
Zn2_2 N4_2 1_555 1_555
C4_2 O1_2 1_555 1_555
N3_2 N4_2 1_555 1_555
Zn1_3 N1_3 1_555 1_555
C1_3 C2_3 1_555 1_555
H2_3 C2_3 1_555 1_555
C3_3 C2_3 1_555 1_555
H3_3 C3_3 1_555 1_555
H4_3 C3_3 1_555 1_555
C4_3 H5_3 1_555 1_555
H6_3 C4_3 1_555 1_555
C5_3 C4_3 1_555 1_555
H7_3 C5_3 1_555 1_555
H8_3 C5_3 1_555 1_555
C6_3 C5_3 1_555 1_555
N1_3 C1_3 1_555 1_555
N2_3 N1_3 1_555 1_555
N3_3 N2_3 1_555 1_555
N4_3 C1_3 1_555 1_555
O1_3 C3_3 1_555 1_555
Zn2_3 N4_3 1_555 1_555
C4_3 O1_3 1_555 1_555
N3_3 N4_3 1_555 1_555
Zn1_4 N1_4 1_555 1_555
C1_4 C2_4 1_555 1_555
C2_4 H1_3 1_555 1_555
H2_4 C2_4 1_555 1_555
C3_4 C2_4 1_555 1_555
H3_4 C3_4 1_555 1_555
H4_4 C3_4 1_555 1_555
C4_4 H5_4 1_555 1_555
H6_4 C4_4 1_555 1_555
C5_4 C4_4 1_555 1_555
H7_4 C5_4 1_555 1_555
H8_4 C5_4 1_555 1_555
C6_4 C5_4 1_555 1_555
N1_4 C1_4 1_555 1_555
N2_4 N1_4 1_555 1_555
N5_3 Zn1_4 1_555 1_555
N6_3 N5_3 1_555 1_555
N7_3 N6_3 1_555 1_555
N8_3 C6_4 1_555 1_555
O1_4 C3_4 1_555 1_555
Zn3_4 N8_3 1_555 1_555
N9_3 Zn1_4 1_555 1_555
N10_3 Zn1_4 1_555 1_555
C4_4 O1_4 1_555 1_555
C6_4 N5_3 1_555 1_555
N7_3 N8_3 1_555 1_555
Zn1_5 N1_5 1_555 1_555
C1_5 C2_5 1_555 1_555
C2_5 H1_4 1_555 1_555
H2_5 C2_5 1_555 1_555
C3_5 C2_5 1_555 1_555
H3_5 C3_5 1_555 1_555
H4_5 C3_5 1_555 1_555
C4_5 H5_5 1_555 1_555
H6_5 C4_5 1_555 1_555
C5_5 C4_5 1_555 1_555
H7_5 C5_5 1_555 1_555
H8_5 C5_5 1_555 1_555
C6_5 C5_5 1_555 1_555
N1_5 C1_5 1_555 1_555
N2_5 N1_5 1_555 1_555
N3_4 N2_5 1_555 1_555
N9 C1_5 1_555 1_555
N5_4 Zn1_5 1_555 1_555
N6_4 N5_4 1_555 1_555
N7_4 N6_4 1_555 1_555
N8_4 C6_5 1_555 1_555
O1_5 C3_5 1_555 1_555
Zn3_5 N8_4 1_555 1_555
N9_4 Zn1_5 1_555 1_555
N10_4 Zn1_5 1_555 1_555
C4_5 O1_5 1_555 1_555
C6_5 N5_4 1_555 1_555
N3_4 N9 1_555 1_555
N7_4 N8_4 1_555 1_555
Zn1_6 N1_6 1_555 1_555
C1_6 C2_6 1_555 1_555
C2_6 H1_5 1_555 1_555
H2_7 C2_6 1_555 1_555
C3_6 C2_6 1_555 1_555
H3_6 C3_6 1_555 1_555
H4_6 C3_6 1_555 1_555
C4_6 H5_6 1_555 1_555
H6_6 C4_6 1_555 1_555
C5_6 C4_6 1_555 1_555
H7_6 C5_6 1_555 1_555
H8_6 C5_6 1_555 1_555
C6_6 C5_6 1_555 1_555
N1_6 C1_6 1_555 1_555
N2_6 N1_6 1_555 1_555
N5_5 Zn1_6 1_555 1_555
N6_5 N5_5 1_555 1_555
N7_5 N6_5 1_555 1_555
N8_5 C6_6 1_555 1_555
O1_6 C3_6 1_555 1_555
Zn3_6 N8_5 1_555 1_555
N9_5 Zn1_6 1_555 1_555
N10_5 Zn1_6 1_555 1_555
C4_6 O1_6 1_555 1_555
C6_6 N5_5 1_555 1_555
N7_5 N8_5 1_555 1_555
N3_5 N9_2 1_555 1_555
N3_6 N2_7 1_555 1_555
N9_5 C1_7 1_555 1_555
N3_6 N9_5 1_555 1_555
Zn2_2 N1_7 1_555 1_555
C2_7 H1_6 1_555 1_555
H2_8 C2_7 1_555 1_555
C3_7 C2_7 1_555 1_555
H3_7 C3_7 1_555 1_555
H4_7 C3_7 1_555 1_555
C4_7 H5_7 1_555 1_555
H6_7 C4_7 1_555 1_555
C5_7 C4_7 1_555 1_555
H7_7 C5_7 1_555 1_555
H8_7 C5_7 1_555 1_555
C6_7 C5_7 1_555 1_555
N5_6 Zn2_2 1_555 1_555
N6_6 N5_6 1_555 1_555
N7_6 N6_6 1_555 1_555
N8_6 C6_7 1_555 1_555
O1_7 C3_7 1_555 1_555
Zn3_7 N8_6 1_555 1_555
N10_6 Zn2_2 1_555 1_555
C4_7 O1_7 1_555 1_555
C6_7 N5_6 1_555 1_555
N7_6 N8_6 1_555 1_555
Zn2_3 N1_8 1_555 1_555
C2_8 H1_7 1_555 1_555
H2_9 C2_8 1_555 1_555
C3_8 C2_8 1_555 1_555
H3_8 C3_8 1_555 1_555
H4_8 C3_8 1_555 1_555
C4_8 H5_8 1_555 1_555
H6_8 C4_8 1_555 1_555
C5_8 C4_8 1_555 1_555
H7_8 C5_8 1_555 1_555
H8_8 C5_8 1_555 1_555
C6_8 C5_8 1_555 1_555
N5_7 Zn2_3 1_555 1_555
N6_7 N5_7 1_555 1_555
N7_7 N6_7 1_555 1_555
N8_7 C6_8 1_555 1_555
O1_8 C3_8 1_555 1_555
Zn3_8 N8_7 1_555 1_555
N10_7 Zn2_3 1_555 1_555
C4_8 O1_8 1_555 1_555
C6_8 N5_7 1_555 1_555
N7_7 N8_7 1_555 1_555
N3_7 N2_8 1_555 1_555
N9_3 C1_8 1_555 1_555
N3_7 N9_3 1_555 1_555
Zn2 N1_9 1_555 1_555
C1_9 C2_9 1_555 1_555
C2_9 H1_8 1_555 1_555
H2_10 C2_9 1_555 1_555
C3_9 C2_9 1_555 1_555
H3_9 C3_9 1_555 1_555
H4_9 C3_9 1_555 1_555
C4_9 H5_9 1_555 1_555
H6_9 C4_9 1_555 1_555
C5_9 C4_9 1_555 1_555
H7_9 C5_9 1_555 1_555
H8_9 C5_9 1_555 1_555
C6_9 C5_9 1_555 1_555
N1_9 C1_9 1_555 1_555
N2_9 N1_9 1_555 1_555
N3_8 N2_9 1_555 1_555
N9_4 C1_9 1_555 1_555
N5_8 Zn2 1_555 1_555
N6_8 N5_8 1_555 1_555
N7_8 N6_8 1_555 1_555
N8_8 C6_9 1_555 1_555
O1_9 C3_9 1_555 1_555
Zn3_9 N8_8 1_555 1_555
N10_8 Zn2 1_555 1_555
C4_9 O1_9 1_555 1_555
C6_9 N5_8 1_555 1_555
N3_8 N9_4 1_555 1_555
N7_8 N8_8 1_555 1_555
Zn3_2 N1_10 1_555 1_555
C1_10 C2_10 1_555 1_555
C2_10 H1_9 1_555 1_555
H2_11 C2_10 1_555 1_555
C3_10 C2_10 1_555 1_555
H3_10 C3_10 1_555 1_555
H4_10 C3_10 1_555 1_555
C4_10 H5_10 1_555 1_555
H6_10 C4_10 1_555 1_555
C5_10 C4_10 1_555 1_555
H7_10 C5_10 1_555 1_555
H8_10 C5_10 1_555 1_555
C6_10 C5_10 1_555 1_555
N1_10 C1_10 1_555 1_555
N2_10 N1_10 1_555 1_555
N3_9 N2_10 1_555 1_555
N4_4 C1_10 1_555 1_555
O1_10 C3_10 1_555 1_555
Zn3_4 N4_4 1_555 1_555
C4_10 O1_10 1_555 1_555
N3_9 N4_4 1_555 1_555
N6_9 N5_9 1_555 1_555
N7_9 N6_9 1_555 1_555
N7_9 N10_2 1_555 1_555
Zn3_3 N1_11 1_555 1_555
C1_11 C2_11 1_555 1_555
H2_12 C2_11 1_555 1_555
C3_11 C2_11 1_555 1_555
H3_11 C3_11 1_555 1_555
H4_11 C3_11 1_555 1_555
C4_11 H5_11 1_555 1_555
H6_11 C4_11 1_555 1_555
C5_11 C4_11 1_555 1_555
H7_11 C5_11 1_555 1_555
H8_11 C5_11 1_555 1_555
C6_11 C5_11 1_555 1_555
N1_11 C1_11 1_555 1_555
N2_11 N1_11 1_555 1_555
N3_10 N2_11 1_555 1_555
N4_5 C1_11 1_555 1_555
O1_11 C3_11 1_555 1_555
Zn3_5 N4_5 1_555 1_555
C4_11 O1_11 1_555 1_555
N3_10 N4_5 1_555 1_555
N6_10 N5_10 1_555 1_555
N7_10 N6_10 1_555 1_555
N7_10 N10 1_555 1_555
Zn3 N1_12 1_555 1_555
C1_12 C2_12 1_555 1_555
H2_13 C2_12 1_555 1_555
C3_12 C2_12 1_555 1_555
H3_12 C3_12 1_555 1_555
H4_12 C3_12 1_555 1_555
C4_12 H5_12 1_555 1_555
H6_12 C4_12 1_555 1_555
C5_12 C4_12 1_555 1_555
H7_12 C5_12 1_555 1_555
H8_12 C5_12 1_555 1_555
C6_12 C5_12 1_555 1_555
N1_12 C1_12 1_555 1_555
N2_12 N1_12 1_555 1_555
N3_11 N2_12 1_555 1_555
N4_6 C1_12 1_555 1_555
O1_12 C3_12 1_555 1_555
Zn3_6 N4_6 1_555 1_555
C4_12 O1_12 1_555 1_555
N3_11 N4_6 1_555 1_555
Zn3_8 N1_13 1_555 1_555
C1_13 C2_13 1_555 1_555
C2_13 H1_11 1_555 1_555
H2_14 C2_13 1_555 1_555
C3_13 C2_13 1_555 1_555
H3_13 C3_13 1_555 1_555
H4_13 C3_13 1_555 1_555
C4_13 H5_13 1_555 1_555
H6_13 C4_13 1_555 1_555
C5_13 C4_13 1_555 1_555
H7_13 C5_13 1_555 1_555
H8_13 C5_13 1_555 1_555
C6_13 C5_13 1_555 1_555
N1_13 C1_13 1_555 1_555
N2_13 N1_13 1_555 1_555
N5_11 Zn3_8 1_555 1_555
N6_11 N5_11 1_555 1_555
N7_11 N6_11 1_555 1_555
N10_8 C6_13 1_555 1_555
O1_13 C3_13 1_555 1_555
N9_8 Zn3_8 1_555 1_555
C4_13 O1_13 1_555 1_555
C6_13 N5_11 1_555 1_555
N7_11 N10_8 1_555 1_555
Zn3_9 N1_14 1_555 1_555
C1_14 C2_14 1_555 1_555
C2_14 H1_12 1_555 1_555
H2_16 C2_14 1_555 1_555
C3_14 C2_14 1_555 1_555
H3_14 C3_14 1_555 1_555
H4_14 C3_14 1_555 1_555
C4_14 H5_14 1_555 1_555
H6_14 C4_14 1_555 1_555
C5_14 C4_14 1_555 1_555
H7_14 C5_14 1_555 1_555
H8_14 C5_14 1_555 1_555
C6_14 C5_14 1_555 1_555
N1_14 C1_14 1_555 1_555
N2_14 N1_14 1_555 1_555
N3_12 N2_14 1_555 1_555
N9_6 C1_14 1_555 1_555
N5_12 Zn3_9 1_555 1_555
N6_12 N5_12 1_555 1_555
N7_12 N6_12 1_555 1_555
N10_6 C6_14 1_555 1_555
O1_14 C3_14 1_555 1_555
N9_9 Zn3_9 1_555 1_555
C4_14 O1_14 1_555 1_555
C6_14 N5_12 1_555 1_555
N3_12 N9_6 1_555 1_555
N7_12 N10_6 1_555 1_555
N3_13 N9_7 1_555 1_555
Zn3_7 N1_15 1_555 1_555
C1_15 C2_15 1_555 1_555
C2_15 H1_13 1_555 1_555
H2_17 C2_15 1_555 1_555
C3_15 C2_15 1_555 1_555
H3_15 C3_15 1_555 1_555
H4_15 C3_15 1_555 1_555
C4_15 H5_15 1_555 1_555
H6_15 C4_15 1_555 1_555
C5_15 C4_15 1_555 1_555
H7_15 C5_15 1_555 1_555
H8_15 C5_15 1_555 1_555
C6_15 C5_15 1_555 1_555
N1_15 C1_15 1_555 1_555
N2_15 N1_15 1_555 1_555
N5_13 Zn3_7 1_555 1_555
N6_13 N5_13 1_555 1_555
N7_13 N6_13 1_555 1_555
N10_7 C6_15 1_555 1_555
O1_15 C3_15 1_555 1_555
N9_10 Zn3_7 1_555 1_555
C4_15 O1_15 1_555 1_555
C6_15 N5_13 1_555 1_555
N7_13 N10_7 1_555 1_555
Zn3_5 N1_16 1_555 1_555
C2_16 H1_14 1_555 1_555
H2_18 C2_16 1_555 1_555
C3_16 C2_16 1_555 1_555
H3_16 C3_16 1_555 1_555
H4_16 C3_16 1_555 1_555
C4_16 H5_16 1_555 1_555
H6_16 C4_16 1_555 1_555
C5_16 C4_16 1_555 1_555
H7_16 C5_16 1_555 1_555
H8_16 C5_16 1_555 1_555
C6_16 C5_16 1_555 1_555
N5_14 Zn3_5 1_555 1_555
N6_14 N5_14 1_555 1_555
N7_14 N6_14 1_555 1_555
N10_5 C6_16 1_555 1_555
O1_16 C3_16 1_555 1_555
C4_16 O1_16 1_555 1_555
C6_16 N5_14 1_555 1_555
N7_14 N10_5 1_555 1_555
N3_14 N2_16 1_555 1_555
N9_10 C1_16 1_555 1_555
N3_14 N9_10 1_555 1_555
N3_15 N2_17 1_555 1_555
N9_8 C1_17 1_555 1_555
N3_15 N9_8 1_555 1_555
Zn3_6 N1_17 1_555 1_555
C2_17 H1_15 1_555 1_555
H2_19 C2_17 1_555 1_555
C3_17 C2_17 1_555 1_555
H3_17 C3_17 1_555 1_555
H4_17 C3_17 1_555 1_555
C4_17 H5_17 1_555 1_555
H6_17 C4_17 1_555 1_555
C5_17 C4_17 1_555 1_555
H7_17 C5_17 1_555 1_555
H8_17 C5_17 1_555 1_555
C6_17 C5_17 1_555 1_555
N5_15 Zn3_6 1_555 1_555
N6_15 N5_15 1_555 1_555
N7_15 N6_15 1_555 1_555
N10_3 C6_17 1_555 1_555
O1_17 C3_17 1_555 1_555
C4_17 O1_17 1_555 1_555
C6_17 N5_15 1_555 1_555
N7_15 N10_3 1_555 1_555
Zn3_4 N1_18 1_555 1_555
C1_18 C2_18 1_555 1_555
C2_18 H1_16 1_555 1_555
H2_20 C2_18 1_555 1_555
C3_18 C2_18 1_555 1_555
H3_18 C3_18 1_555 1_555
H4_18 C3_18 1_555 1_555
C4_18 H5_18 1_555 1_555
H6_18 C4_18 1_555 1_555
C5_18 C4_18 1_555 1_555
H7_18 C5_18 1_555 1_555
H8_18 C5_18 1_555 1_555
C6_18 C5_18 1_555 1_555
N1_18 C1_18 1_555 1_555
N2_18 N1_18 1_555 1_555
N3_16 N2_18 1_555 1_555
N9_9 C1_18 1_555 1_555
N5_16 Zn3_4 1_555 1_555
N6_16 N5_16 1_555 1_555
N7_16 N6_16 1_555 1_555
N10_4 C6_18 1_555 1_555
O1_18 C3_18 1_555 1_555
C4_18 O1_18 1_555 1_555
C6_18 N5_16 1_555 1_555
N3_16 N9_9 1_555 1_555
N7_16 N10_4 1_555 1_555
N6_17 N5_17 1_555 1_555
N7_17 N6_17 1_555 1_555
N7_17 N10_9 1_555 1_555
N3_17 N9_11 1_555 1_555
N6_18 N5_18 1_555 1_555
N7_18 N6_18 1_555 1_555
N7_18 N8_9 1_555 1_555
N3_18 N9_12 1_555 1_555

#END
