
###############################################################################
#
# This file contains modified crystal structure data generated from the
# MOF subset of the Cambridge Structural Database (CSD) v543 
# hosted by the Cambridge Crystallographic Data Centre (CCDC).
#
# This work is licensed under the Creative Commons
# Attribution-NonCommercial-ShareAlike 4.0 International License.
# To view a copy of this license, visit
# http://creativecommons.org/licenses/by-nc-sa/4.0/
# or send a letter to
# Creative Commons, PO Box 1866, Mountain View, CA 94042, USA.
#
# CIF created using the CSD Python API on 29 September 2022
# The structure has been converted into the P1 space group
# The structure has a 3D framework
# The original CSD entry YEZJUL is in the monoclinic crystal system
# The framework has been calculated to contain at least 10.0% void space
# The void calculation uses a probe of radius 1.32A, grid spacing 0.4
# The framework is charged, counterions have been retained in the structure
#
###############################################################################

data_YEZJUL
_chemical_formula_moiety         '(C64 H96 In8 N8 O68 S4 4+)n'
_symmetry_cell_setting           triclinic
_symmetry_space_group_name_H-M   'P 1'
_symmetry_Int_Tables_number      1
_space_group_name_Hall           'P 1'
loop_
_symmetry_equiv_pos_site_id
_symmetry_equiv_pos_as_xyz
1 x,y,z
_cell_length_a                   10.75810(11)
_cell_length_b                   12.99846(13)
_cell_length_c                   19.9093(2)
_cell_angle_alpha                90
_cell_angle_beta                 92.8759(10)
_cell_angle_gamma                90
_cell_volume                     2780.58
loop_
_atom_site_label
_atom_site_type_symbol
_atom_site_fract_x
_atom_site_fract_y
_atom_site_fract_z
In1 In 0.24856(2) 0.59194(2) 0.64926(2)
In2 In 0.24830(2) 0.56987(2) 0.33752(2)
S1 S 0.24269(10) 0.54062(9) 0.49594(5)
O1 O 0.1964(3) 0.6173(3) 0.54547(16)
O2 O 0.2939(3) 0.6050(3) 0.44124(16)
O3 O 0.3406(4) 0.4807(3) 0.52956(18)
O4 O 0.1412(3) 0.4787(3) 0.46734(17)
O5 O 0.2381(3) 0.7660(3) 0.65372(15)
O6 O 0.2187(3) 0.8937(3) 0.72758(16)
O7 O 0.2811(3) 0.6330(3) 0.75584(15)
O8 O 0.2599(3) 0.7589(2) 0.82919(15)
O9 O 0.4434(3) 0.6368(2) 0.62638(16)
O10 O 0.6375(3) 0.5754(3) 0.63183(18)
O11 O 0.3662(3) 0.4640(3) 0.68558(16)
O12 O 0.5596(3) 0.4045(3) 0.69087(19)
O13 O 0.0552(3) 0.6188(2) 0.35674(17)
O15 O 0.1329(3) 0.4386(2) 0.30652(17)
C1 C 0.2374(4) 0.8022(3) 0.7123(2)
C2 C 0.2616(4) 0.7244(3) 0.7711(2)
C3 C 0.5246(4) 0.5696(3) 0.6415(2)
C4 C 0.4791(4) 0.4714(3) 0.6754(2)
C6 C 0.0229(4) 0.4441(4) 0.3235(2)
In4 In 0.75170(2) 0.43013(2) 0.66248(2)
In5 In 0.24830(2) 0.93013(2) 0.83752(2)
O17 O 0.2187(3) 0.6063(3) 0.22758(16)
O18 O 0.2599(3) 0.7411(2) 0.32919(15)
O19 O 0.3625(3) 0.4246(3) 0.36817(18)
O20 O 0.4404(3) 0.5955(3) 0.30913(19)
O21 O 0.1345(3) 0.4476(3) 0.63516(19)
O22 O 0.0554(3) 0.6271(3) 0.68083(19)
O14 O 0.8655(3) 0.5524(3) 0.36484(19)
O16 O 0.9446(3) 0.3729(3) 0.31917(19)
C5 C 0.9767(4) 0.5480(4) 0.3513(2)
In3 In 0.75144(2) 0.40806(2) 0.35074(2)
O14_2 O 0.1345(3) 0.0524(3) 0.13516(19)
C5_2 C 0.0233(4) 0.0480(4) 0.1487(2)
O16_2 O 0.0554(3) 0.8729(3) 0.18083(19)
In3_2 In 0.24856(2) 0.90806(2) 0.14926(2)
In2_2 In 0.75170(2) 0.06987(2) 0.16248(2)
S1_2 S 0.75731(10) 0.04062(9) 0.00406(5)
O2_2 O 0.7061(3) 0.1050(3) 0.05876(16)
O13_2 O 0.9448(3) 0.1188(2) 0.14326(17)
O17_2 O 0.7813(3) 0.1063(3) 0.27242(16)
O18_2 O 0.7401(3) 0.2411(2) 0.17081(15)
O20_2 O 0.5596(3) 0.0955(3) 0.19087(19)
In1_2 In 0.75144(2) 0.09194(2) 0.85074(2)
O1_2 O 0.8036(3) 0.1173(3) 0.95453(16)
O5_2 O 0.7619(3) 0.2660(3) 0.84628(15)
O6_2 O 0.7813(3) 0.3937(3) 0.77242(16)
O7_2 O 0.7189(3) 0.1330(3) 0.74416(15)
O8_2 O 0.7401(3) 0.2589(2) 0.67081(15)
O9_2 O 0.5566(3) 0.1368(2) 0.87362(16)
O10_2 O 0.3625(3) 0.0754(3) 0.86817(18)
C1_2 C 0.7626(4) 0.3022(3) 0.7877(2)
C2_2 C 0.7384(4) 0.2244(3) 0.7289(2)
C3_2 C 0.4754(4) 0.0696(3) 0.8585(2)
O22_2 O 0.9446(3) 0.1271(3) 0.81917(19)
O4_2 O 0.8588(3) 0.9787(3) 0.03266(17)
O15_2 O 0.8671(3) 0.9386(2) 0.19348(17)
C6_2 C 0.9771(4) 0.9441(4) 0.1765(2)
O19_2 O 0.6375(3) 0.9246(3) 0.13183(18)
O3_2 O 0.6594(4) 0.9807(3) 0.97044(18)
O11_2 O 0.6338(3) 0.9640(3) 0.81442(16)
O12_2 O 0.4404(3) 0.9045(3) 0.80913(19)
C4_2 C 0.5209(4) 0.9714(3) 0.8246(2)
O21_2 O 0.8655(3) 0.9476(3) 0.86484(19)
C5_3 C 0.0233(4) 0.4520(4) 0.6487(2)
S1_3 S 0.75731(10) 0.45938(9) 0.50406(5)
O1_3 O 0.8036(3) 0.3827(3) 0.45453(16)
O2_3 O 0.7061(3) 0.3950(3) 0.55876(16)
O3_3 O 0.6594(4) 0.5193(3) 0.47044(18)
O4_3 O 0.8588(3) 0.5213(3) 0.53266(17)
O5_3 O 0.7619(3) 0.2340(3) 0.34628(15)
O7_3 O 0.7189(3) 0.3670(3) 0.24416(15)
O9_3 O 0.5566(3) 0.3632(2) 0.37362(16)
O11_3 O 0.6338(3) 0.5360(3) 0.31442(16)
O13_3 O 0.9448(3) 0.3812(2) 0.64326(17)
O15_3 O 0.8671(3) 0.5614(2) 0.69348(17)
C1_3 C 0.7626(4) 0.1978(3) 0.2877(2)
C2_3 C 0.7384(4) 0.2756(3) 0.2289(2)
C3_3 C 0.4754(4) 0.4304(3) 0.3585(2)
C4_3 C 0.5209(4) 0.5286(3) 0.3246(2)
C6_3 C 0.9771(4) 0.5559(4) 0.6765(2)
O3_4 O 0.3406(4) 0.0193(3) 0.02956(18)
O11_4 O 0.3662(3) 0.0360(3) 0.18558(16)
C4_4 C 0.4791(4) 0.0286(3) 0.1754(2)
O4_4 O 0.1412(3) 0.0213(3) 0.96734(17)
O15_4 O 0.1329(3) 0.0614(2) 0.80652(17)
C6_4 C 0.0229(4) 0.0559(4) 0.8235(2)
O1_4 O 0.1964(3) 0.8827(3) 0.04547(16)
O5_4 O 0.2381(3) 0.7340(3) 0.15372(15)
O7_4 O 0.2811(3) 0.8670(3) 0.25584(15)
O9_4 O 0.4434(3) 0.8632(2) 0.12638(16)
C1_4 C 0.2374(4) 0.6978(3) 0.2123(2)
C2_4 C 0.2616(4) 0.7756(3) 0.2711(2)
C3_4 C 0.5246(4) 0.9304(3) 0.1415(2)
S1_4 S 0.24269(10) 0.95938(9) 0.99594(5)
O2_4 O 0.2939(3) 0.8950(3) 0.94124(16)
O13_4 O 0.0552(3) 0.8812(2) 0.85674(17)
C5_4 C 0.9767(4) 0.9520(4) 0.8513(2)
O23 O 0.2913(4) 0.2210(4) 0.5966(2)
C7 C 0.4980(6) 0.2179(5) 0.5616(3)
H1 H 0.5325 0.2576 0.5994
H2 H 0.5632 0.1733 0.5463
C8 C 0.3926(5) 0.1530(4) 0.5845(3)
H3 H 0.3677 0.1022 0.5501
C9 C 0.4243(7) 0.0997(5) 0.6518(4)
H4 H 0.3830 0.0336 0.6539
H5 H 0.5134 0.0896 0.6585
C10 C 0.3777(7) 0.1716(6) 0.7025(3)
H6 H 0.4400 0.2228 0.7153
H7 H 0.3545 0.1349 0.7424
C11 C 0.2651(6) 0.2209(6) 0.6670(3)
H8 H 0.1905 0.1814 0.6744
H9 H 0.2535 0.2905 0.6830
N1 N 0.4586(5) 0.2890(4) 0.5066(3)
H10 H 0.4033 0.2578 0.4788
H11 H 0.5246 0.3072 0.4841
H12 H 0.4243 0.3448 0.5238
H10_2 H 0.5967 0.7578 0.0212
H11_2 H 0.4754 0.8072 0.0159
O23_2 O 0.7087(4) 0.7210(4) 0.9034(2)
C7_2 C 0.5020(6) 0.7179(5) 0.9384(3)
H1_2 H 0.4675 0.7576 0.9006
H2_2 H 0.4368 0.6733 0.9537
C8_2 C 0.6074(5) 0.6530(4) 0.9155(3)
H3_2 H 0.6323 0.6022 0.9499
C9_2 C 0.5757(7) 0.5997(5) 0.8482(4)
H4_2 H 0.6170 0.5336 0.8461
H5_2 H 0.4866 0.5896 0.8415
C10_2 C 0.6223(7) 0.6716(6) 0.7975(3)
H6_2 H 0.5600 0.7228 0.7847
H7_2 H 0.6455 0.6349 0.7576
C11_2 C 0.7349(6) 0.7209(6) 0.8330(3)
H8_2 H 0.8095 0.6814 0.8256
H9_2 H 0.7465 0.7905 0.8170
N1_2 N 0.5414(5) 0.7890(4) 0.9934(3)
H12_2 H 0.5757 0.8448 0.9762
O23_3 O 0.7087(4) 0.7790(4) 0.4034(2)
C7_3 C 0.5020(6) 0.7821(5) 0.4384(3)
H1_3 H 0.4675 0.7424 0.4006
H2_3 H 0.4368 0.8267 0.4537
C8_3 C 0.6074(5) 0.8470(4) 0.4155(3)
H3_3 H 0.6323 0.8978 0.4499
C9_3 C 0.5757(7) 0.9003(5) 0.3482(4)
H4_3 H 0.6170 0.9664 0.3461
H5_3 H 0.4866 0.9104 0.3415
C10_3 C 0.6223(7) 0.8284(6) 0.2975(3)
H6_3 H 0.5600 0.7772 0.2847
H7_3 H 0.6455 0.8651 0.2576
C11_3 C 0.7349(6) 0.7791(6) 0.3330(3)
H8_3 H 0.8095 0.8186 0.3256
H9_3 H 0.7465 0.7095 0.3170
N1_3 N 0.5414(5) 0.7110(4) 0.4934(3)
H10_3 H 0.5967 0.7422 0.5212
H11_3 H 0.4754 0.6928 0.5159
H12_3 H 0.5757 0.6552 0.4762
O23_4 O 0.2913(4) 0.2790(4) 0.0966(2)
C7_4 C 0.4980(6) 0.2821(5) 0.0616(3)
H1_4 H 0.5325 0.2424 0.0994
H2_4 H 0.5632 0.3267 0.0463
C8_4 C 0.3926(5) 0.3470(4) 0.0845(3)
H3_4 H 0.3677 0.3978 0.0501
C9_4 C 0.4243(7) 0.4003(5) 0.1518(4)
H4_4 H 0.3830 0.4664 0.1539
H5_4 H 0.5134 0.4104 0.1585
C10_4 C 0.3777(7) 0.3284(6) 0.2025(3)
H6_4 H 0.4400 0.2772 0.2153
H7_4 H 0.3545 0.3651 0.2424
C11_4 C 0.2651(6) 0.2791(6) 0.1670(3)
H8_4 H 0.1905 0.3186 0.1744
H9_4 H 0.2535 0.2095 0.1830
N1_4 N 0.4586(5) 0.2110(4) 0.0066(3)
H12_4 H 0.4243 0.1552 0.0238
H10_4 H 0.4033 0.2422 0.9788
H11_4 H 0.5246 0.1928 0.9841
O24 O 0.2742(4) 0.1796(4) 0.4364(2)
C12 C 0.0588(5) 0.2184(4) 0.4502(3)
H14 H 0.0463 0.1467 0.4616
C13 C 0.1648(6) 0.2265(5) 0.4046(3)
H15 H 0.1817 0.2992 0.3957
C14 C 0.1403(8) 0.1704(6) 0.3381(3)
H16 H 0.0645 0.1301 0.3386
H17 H 0.1334 0.2186 0.3009
C15 C 0.2483(15) 0.1042(11) 0.3326(5)
H18 H 0.2215 0.0352 0.3202
H19 H 0.3003 0.1301 0.2980
C16 C 0.3171(11) 0.1016(9) 0.3953(6)
H20 H 0.3068 0.0353 0.4166
H21 H 0.4049 0.1116 0.3883
N2 N 0.0810(4) 0.2791(4) 0.5135(2)
H22 H 0.0918 0.3451 0.5032
H23 H 0.1488 0.2555 0.5359
H24 H 0.0157 0.2729 0.5389
H13 H 0.9833 0.2429 0.4266
H13_2 H 0.0167 0.7429 0.0734
O24_2 O 0.7258(4) 0.6796(4) 0.0636(2)
C12_2 C 0.9412(5) 0.7184(4) 0.0498(3)
H14_2 H 0.9537 0.6467 0.0384
C13_2 C 0.8352(6) 0.7265(5) 0.0954(3)
H15_2 H 0.8183 0.7992 0.1043
C14_2 C 0.8597(8) 0.6704(6) 0.1619(3)
H16_2 H 0.9355 0.6301 0.1614
H17_2 H 0.8666 0.7186 0.1991
C15_2 C 0.7517(15) 0.6042(11) 0.1674(5)
H18_2 H 0.7785 0.5352 0.1798
H19_2 H 0.6997 0.6301 0.2020
C16_2 C 0.6829(11) 0.6016(9) 0.1047(6)
H20_2 H 0.6932 0.5353 0.0834
H21_2 H 0.5951 0.6116 0.1117
N2_2 N 0.9190(4) 0.7791(4) 0.9865(2)
H22_2 H 0.9082 0.8451 0.9968
H23_2 H 0.8512 0.7555 0.9641
H24_2 H 0.9843 0.7729 0.9611
H13_3 H 0.0167 0.7571 0.5734
O24_3 O 0.7258(4) 0.8204(4) 0.5636(2)
C12_3 C 0.9412(5) 0.7816(4) 0.5498(3)
H14_3 H 0.9537 0.8533 0.5384
C13_3 C 0.8352(6) 0.7735(5) 0.5954(3)
H15_3 H 0.8183 0.7008 0.6043
C14_3 C 0.8597(8) 0.8296(6) 0.6619(3)
H16_3 H 0.9355 0.8699 0.6614
H17_3 H 0.8666 0.7814 0.6991
C15_3 C 0.7517(15) 0.8958(11) 0.6674(5)
H18_3 H 0.7785 0.9648 0.6798
H19_3 H 0.6997 0.8699 0.7020
C16_3 C 0.6829(11) 0.8984(9) 0.6047(6)
H20_3 H 0.6932 0.9647 0.5834
H21_3 H 0.5951 0.8884 0.6117
N2_3 N 0.9190(4) 0.7209(4) 0.4865(2)
H22_3 H 0.9082 0.6549 0.4968
H23_3 H 0.8512 0.7445 0.4641
H24_3 H 0.9843 0.7271 0.4611
N2_4 N 0.0810(4) 0.2209(4) 0.0135(2)
H22_4 H 0.0918 0.1549 0.0032
H23_4 H 0.1488 0.2445 0.0359
H24_4 H 0.0157 0.2271 0.0389
O24_4 O 0.2742(4) 0.3204(4) 0.9364(2)
C12_4 C 0.0588(5) 0.2816(4) 0.9502(3)
H14_4 H 0.0463 0.3533 0.9616
C13_4 C 0.1648(6) 0.2735(5) 0.9046(3)
H15_4 H 0.1817 0.2008 0.8957
C14_4 C 0.1403(8) 0.3296(6) 0.8381(3)
H16_4 H 0.0645 0.3699 0.8386
H17_4 H 0.1334 0.2814 0.8009
C15_4 C 0.2483(15) 0.3958(11) 0.8326(5)
H18_4 H 0.2215 0.4648 0.8202
H19_4 H 0.3003 0.3699 0.7980
C16_4 C 0.3171(11) 0.3984(9) 0.8953(6)
H20_4 H 0.3068 0.4647 0.9166
H21_4 H 0.4049 0.3884 0.8883
H13_4 H 0.9833 0.2571 0.9266
loop_
_geom_bond_atom_site_label_1
_geom_bond_atom_site_label_2
_geom_bond_site_symmetry_1
_geom_bond_site_symmetry_2
In1 O1 1_555 1_555
In2 O2 1_555 1_555
S1 O1 1_555 1_555
O2 S1 1_555 1_555
O3 S1 1_555 1_555
O4 S1 1_555 1_555
O5 In1 1_555 1_555
O6 C1 1_555 1_555
O7 In1 1_555 1_555
O8 C2 1_555 1_555
O9 In1 1_555 1_555
O10 C3 1_555 1_555
O11 In1 1_555 1_555
O12 C4 1_555 1_555
O13 In2 1_555 1_555
O15 In2 1_555 1_555
C1 O5 1_555 1_555
C2 O7 1_555 1_555
C3 O9 1_555 1_555
C4 O11 1_555 1_555
C6 O15 1_555 1_555
In4 O10 1_555 1_555
In5 O6 1_555 1_555
O17 In2 1_555 1_555
O18 In2 1_555 1_555
O19 In2 1_555 1_555
O20 In2 1_555 1_555
O21 In1 1_555 1_555
O22 In1 1_555 1_555
O8 In5 1_555 1_555
O12 In4 1_555 1_555
C1 C2 1_555 1_555
C3 C4 1_555 1_555
O14 C5 1_555 1_555
In3 O14 1_555 1_555
O16 In3 1_555 1_555
O14_2 C5_2 1_555 1_555
O16_2 In3_2 1_555 1_555
In2_2 O2_2 1_555 1_555
O2_2 S1_2 1_555 1_555
O13_2 In2_2 1_555 1_555
O17_2 In2_2 1_555 1_555
O18_2 In2_2 1_555 1_555
O20_2 In2_2 1_555 1_555
In1_2 O1_2 1_555 1_555
O5_2 In1_2 1_555 1_555
O6_2 C1_2 1_555 1_555
O7_2 In1_2 1_555 1_555
O8_2 C2_2 1_555 1_555
O9_2 In1_2 1_555 1_555
O10_2 C3_2 1_555 1_555
C1_2 O5_2 1_555 1_555
C2_2 O7_2 1_555 1_555
C3_2 O9_2 1_555 1_555
In4 O6_2 1_555 1_555
O22_2 In1_2 1_555 1_555
O8_2 In4 1_555 1_555
C1_2 C2_2 1_555 1_555
C6_2 O15_2 1_555 1_555
O12_2 C4_2 1_555 1_555
C4_2 O11_2 1_555 1_555
O12_2 In5 1_555 1_555
O21 C5_3 1_555 1_555
In3 O1_3 1_555 1_555
In4 O2_3 1_555 1_555
S1_3 O1_3 1_555 1_555
O2_3 S1_3 1_555 1_555
O3_3 S1_3 1_555 1_555
O4_3 S1_3 1_555 1_555
O5_3 In3 1_555 1_555
O17_2 C1_3 1_555 1_555
O7_3 In3 1_555 1_555
O18_2 C2_3 1_555 1_555
O9_3 In3 1_555 1_555
O19 C3_3 1_555 1_555
O11_3 In3 1_555 1_555
O20 C4_3 1_555 1_555
O13_3 In4 1_555 1_555
O15_3 In4 1_555 1_555
C1_3 O5_3 1_555 1_555
C2_3 O7_3 1_555 1_555
C3_3 O9_3 1_555 1_555
C4_3 O11_3 1_555 1_555
C6_3 O15_3 1_555 1_555
C1_3 C2_3 1_555 1_555
C3_3 C4_3 1_555 1_555
O20_2 C4_4 1_555 1_555
C4_4 O11_4 1_555 1_555
C6_4 O15_4 1_555 1_555
In3_2 O1_4 1_555 1_555
O5_4 In3_2 1_555 1_555
O17 C1_4 1_555 1_555
O7_4 In3_2 1_555 1_555
O18 C2_4 1_555 1_555
O9_4 In3_2 1_555 1_555
O19_2 C3_4 1_555 1_555
C1_4 O5_4 1_555 1_555
C2_4 O7_4 1_555 1_555
C3_4 O9_4 1_555 1_555
C1_4 C2_4 1_555 1_555
In5 O2_4 1_555 1_555
O2_4 S1_4 1_555 1_555
O13_4 In5 1_555 1_555
O21_2 C5_4 1_555 1_555
O23 C8 1_555 1_555
C7 H1 1_555 1_555
H2 C7 1_555 1_555
C8 C7 1_555 1_555
H3 C8 1_555 1_555
C9 C8 1_555 1_555
H4 C9 1_555 1_555
H5 C9 1_555 1_555
C10 C9 1_555 1_555
H6 C10 1_555 1_555
H7 C10 1_555 1_555
C11 O23 1_555 1_555
H8 C11 1_555 1_555
H9 C11 1_555 1_555
N1 C7 1_555 1_555
H10 N1 1_555 1_555
H11 N1 1_555 1_555
H12 N1 1_555 1_555
C10 C11 1_555 1_555
O23_2 C8_2 1_555 1_555
C7_2 H1_2 1_555 1_555
H2_2 C7_2 1_555 1_555
C8_2 C7_2 1_555 1_555
H3_2 C8_2 1_555 1_555
C9_2 C8_2 1_555 1_555
H4_2 C9_2 1_555 1_555
H5_2 C9_2 1_555 1_555
C10_2 C9_2 1_555 1_555
H6_2 C10_2 1_555 1_555
H7_2 C10_2 1_555 1_555
C11_2 O23_2 1_555 1_555
H8_2 C11_2 1_555 1_555
H9_2 C11_2 1_555 1_555
N1_2 C7_2 1_555 1_555
H12_2 N1_2 1_555 1_555
C10_2 C11_2 1_555 1_555
O23_3 C8_3 1_555 1_555
C7_3 H1_3 1_555 1_555
H2_3 C7_3 1_555 1_555
C8_3 C7_3 1_555 1_555
H3_3 C8_3 1_555 1_555
C9_3 C8_3 1_555 1_555
H4_3 C9_3 1_555 1_555
H5_3 C9_3 1_555 1_555
C10_3 C9_3 1_555 1_555
H6_3 C10_3 1_555 1_555
H7_3 C10_3 1_555 1_555
C11_3 O23_3 1_555 1_555
H8_3 C11_3 1_555 1_555
H9_3 C11_3 1_555 1_555
N1_3 C7_3 1_555 1_555
H10_3 N1_3 1_555 1_555
H11_3 N1_3 1_555 1_555
H12_3 N1_3 1_555 1_555
C10_3 C11_3 1_555 1_555
O23_4 C8_4 1_555 1_555
C7_4 H1_4 1_555 1_555
H2_4 C7_4 1_555 1_555
C8_4 C7_4 1_555 1_555
H3_4 C8_4 1_555 1_555
C9_4 C8_4 1_555 1_555
H4_4 C9_4 1_555 1_555
H5_4 C9_4 1_555 1_555
C10_4 C9_4 1_555 1_555
H6_4 C10_4 1_555 1_555
H7_4 C10_4 1_555 1_555
C11_4 O23_4 1_555 1_555
H8_4 C11_4 1_555 1_555
H9_4 C11_4 1_555 1_555
N1_4 C7_4 1_555 1_555
H12_4 N1_4 1_555 1_555
C10_4 C11_4 1_555 1_555
O24 C13 1_555 1_555
H14 C12 1_555 1_555
C13 C12 1_555 1_555
H15 C13 1_555 1_555
C14 C13 1_555 1_555
H16 C14 1_555 1_555
H17 C14 1_555 1_555
C15 C14 1_555 1_555
H18 C15 1_555 1_555
H19 C15 1_555 1_555
C16 O24 1_555 1_555
H20 C16 1_555 1_555
H21 C16 1_555 1_555
N2 C12 1_555 1_555
H22 N2 1_555 1_555
H23 N2 1_555 1_555
H24 N2 1_555 1_555
C15 C16 1_555 1_555
O24_2 C13_2 1_555 1_555
H14_2 C12_2 1_555 1_555
C13_2 C12_2 1_555 1_555
H15_2 C13_2 1_555 1_555
C14_2 C13_2 1_555 1_555
H16_2 C14_2 1_555 1_555
H17_2 C14_2 1_555 1_555
C15_2 C14_2 1_555 1_555
H18_2 C15_2 1_555 1_555
H19_2 C15_2 1_555 1_555
C16_2 O24_2 1_555 1_555
H20_2 C16_2 1_555 1_555
H21_2 C16_2 1_555 1_555
C15_2 C16_2 1_555 1_555
H22_2 N2_2 1_555 1_555
H23_2 N2_2 1_555 1_555
H24_2 N2_2 1_555 1_555
O24_3 C13_3 1_555 1_555
H14_3 C12_3 1_555 1_555
C13_3 C12_3 1_555 1_555
H15_3 C13_3 1_555 1_555
C14_3 C13_3 1_555 1_555
H16_3 C14_3 1_555 1_555
H17_3 C14_3 1_555 1_555
C15_3 C14_3 1_555 1_555
H18_3 C15_3 1_555 1_555
H19_3 C15_3 1_555 1_555
C16_3 O24_3 1_555 1_555
H20_3 C16_3 1_555 1_555
H21_3 C16_3 1_555 1_555
N2_3 C12_3 1_555 1_555
H22_3 N2_3 1_555 1_555
H23_3 N2_3 1_555 1_555
H24_3 N2_3 1_555 1_555
C15_3 C16_3 1_555 1_555
H22_4 N2_4 1_555 1_555
H23_4 N2_4 1_555 1_555
H24_4 N2_4 1_555 1_555
O24_4 C13_4 1_555 1_555
H14_4 C12_4 1_555 1_555
C13_4 C12_4 1_555 1_555
H15_4 C13_4 1_555 1_555
C14_4 C13_4 1_555 1_555
H16_4 C14_4 1_555 1_555
H17_4 C14_4 1_555 1_555
C15_4 C14_4 1_555 1_555
H18_4 C15_4 1_555 1_555
H19_4 C15_4 1_555 1_555
C16_4 O24_4 1_555 1_555
H20_4 C16_4 1_555 1_555
H21_4 C16_4 1_555 1_555
C15_4 C16_4 1_555 1_555

#END
