
###############################################################################
#
# This file contains modified crystal structure data generated from the
# MOF subset of the Cambridge Structural Database (CSD) v543 
# hosted by the Cambridge Crystallographic Data Centre (CCDC).
#
# This work is licensed under the Creative Commons
# Attribution-NonCommercial-ShareAlike 4.0 International License.
# To view a copy of this license, visit
# http://creativecommons.org/licenses/by-nc-sa/4.0/
# or send a letter to
# Creative Commons, PO Box 1866, Mountain View, CA 94042, USA.
#
# CIF created using the CSD Python API on 29 September 2022
# The structure has been converted into the P1 space group
# The structure has a 3D framework
# The original CSD entry YEZKOF is in the rhombohedral crystal system
# The original CSD entry YEZKOF is in a Sohncke space group
# The framework has been calculated to contain at least 10.0% void space
# The void calculation uses a probe of radius 1.32A, grid spacing 0.4
#
###############################################################################

data_YEZKOF
_chemical_formula_moiety         '(C216 H180 Co6 Mo16 N36 O36)n'
_symmetry_cell_setting           triclinic
_symmetry_space_group_name_H-M   'P 1'
_symmetry_Int_Tables_number      1
_space_group_name_Hall           'P 1'
loop_
_symmetry_equiv_pos_site_id
_symmetry_equiv_pos_as_xyz
1 x,y,z
_cell_length_a                   21.3191(3)
_cell_length_b                   21.3191(3)
_cell_length_c                   17.9250(3)
_cell_angle_alpha                90
_cell_angle_beta                 90
_cell_angle_gamma                120
_cell_volume                     7055.5
loop_
_atom_site_label
_atom_site_type_symbol
_atom_site_fract_x
_atom_site_fract_y
_atom_site_fract_z
Mo1 Mo 0.207209(13) 0.0000 0.0000
O4 O 0.26397(17) 0.01694(12) 0.07828(10)
Co2 Co 0.33334(4) 0.04959(3) 0.1667
C1 C 0.31171(17) 0.10758(17) 0.80976(17)
H1 H 0.2739 0.0928 0.8445
C2 C 0.34584(19) 0.17830(19) 0.78540(18)
H2 H 0.3312 0.2105 0.8032
C3 C 0.40209(18) 0.20175(17) 0.73422(17)
C4 C 0.42201(18) 0.15174(18) 0.71190(18)
H3 H 0.4609 0.1657 0.6787
C5 C 0.38497(15) 0.08207(18) 0.73826(14)
H4 H 0.3989 0.0490 0.7218
C6 C 0.4360(2) 0.27595(18) 0.7054(2)
H5 H 0.4187 0.3057 0.7238
C7 C 0.4890(2) 0.3047(2) 0.6557(2)
H6 H 0.5088 0.2762 0.6400
C8 C 0.5195(2) 0.37752(19) 0.6230(2)
C9 C 0.5814(2) 0.4047(2) 0.5786(2)
H7 H 0.6050 0.3778 0.5715
C10 C 0.60746(19) 0.47159(18) 0.5454(2)
H8 H 0.6492 0.4893 0.5156
C11 C 0.51813(19) 0.48615(18) 0.59667(18)
H9 H 0.4957 0.5141 0.6033
C12 C 0.4887(2) 0.4203(2) 0.6322(2)
H10 H 0.4477 0.4046 0.6627
Mo1_2 Mo 0.207209(13) 0.0000 1.0000
N1 N 0.57689(14) 0.51261(13) 0.55326(13)
N2 N 0.32949(12) 0.05897(13) 0.78672(11)
O1 O 0.19724(14) 0.07499(14) 0.98144(14)
Co4 Co 0.61708(3) 0.61708(3) 0.5000
Mo1_3 Mo 0.207209(13) 1.0000 0.0000
O3 O 0.12225(20) 0.92501(14) 0.01856(14)
Co1 Co 0.28375(3) 0.95041(3) 0.8333
Mo1_4 Mo 0.207209(13) 1.0000 1.0000
O2 O 0.24703(12) 0.98306(12) 0.92172(10)
C20 C 0.04419(19) 0.8528(2) 0.7103(2)
C21 C 0.0714(2) 0.9147(2) 0.7547(2)
H17 H 0.0445 0.9383 0.7618
C22 C 0.13826(18) 0.94079(19) 0.7879(2)
H18 H 0.1560 0.9825 0.8177
C23 C 0.15282(18) 0.85146(19) 0.73666(18)
H19 H 0.1808 0.8290 0.7300
C24 C 0.0870(2) 0.8220(2) 0.7011(2)
H20 H 0.0713 0.7810 0.6706
N3 N 0.17928(13) 0.91022(14) 0.78007(13)
N5 N 0.24356(14) 0.84594(13) 0.88659(13)
N6 N 0.39230(13) 0.99616(12) 0.87995(11)
O5 O 0.31639(12) 0.91370(12) 0.74495(10)
C13 C 0.77425(17) 0.64504(17) 0.52357(17)
H11 H 0.7595 0.6072 0.4888
C14 C 0.84497(19) 0.67917(19) 0.54793(18)
H12 H 0.8772 0.6645 0.5301
C15 C 0.86842(17) 0.73542(18) 0.59911(17)
C16 C 0.81841(18) 0.75534(18) 0.62143(18)
H13 H 0.8324 0.7942 0.6546
C17 C 0.74874(18) 0.71830(15) 0.59507(14)
H14 H 0.7157 0.7322 0.6115
C18 C 0.94262(18) 0.7693(2) 0.6279(2)
H15 H 0.9724 0.7520 0.6095
C19 C 0.9714(2) 0.8223(2) 0.6776(2)
H16 H 0.9429 0.8421 0.6933
N4 N 0.72564(13) 0.66282(12) 0.54661(11)
Mo1_5 Mo 0.0000 0.207209(13) 0.0000
O3_2 O 0.07499(14) 0.19724(24) 0.01856(14)
Co1_2 Co 0.04959(3) 0.33334(4) 0.8333
Mo1_6 Mo -0.0000 0.207209(13) 1.0000
O2_2 O 0.01694(12) 0.26397(17) 0.92172(10)
C13_2 C 0.35496(17) 0.12920(24) 0.52357(17)
H11_2 H 0.3928 0.1522 0.4888
C14_2 C 0.32083(19) 0.16579(27) 0.54793(18)
H12_2 H 0.3355 0.2126 0.5301
C15_2 C 0.26458(18) 0.13299(25) 0.59911(17)
C16_2 C 0.24466(18) 0.06306(25) 0.62143(18)
H13_2 H 0.2058 0.0381 0.6546
C17_2 C 0.28170(15) 0.03043(23) 0.59507(14)
C18_2 C 0.2307(2) 0.17328(27) 0.6279(2)
H15_2 H 0.2480 0.2203 0.6095
C19_2 C 0.1777(2) 0.1490(3) 0.6776(2)
H16_2 H 0.1579 0.1007 0.6933
C20_2 C 0.1472(2) 0.19135(28) 0.7103(2)
C21_2 C 0.0853(2) 0.1566(3) 0.7547(2)
H17_2 H 0.0617 0.1061 0.7618
C22_2 C 0.05921(19) 0.19746(26) 0.7879(2)
H18_2 H 0.0175 0.1734 0.8177
C23_2 C 0.14854(19) 0.30135(26) 0.73666(18)
H19_2 H 0.1710 0.3517 0.7300
C24_2 C 0.1780(2) 0.2649(3) 0.7011(2)
H20_2 H 0.2190 0.2902 0.6706
N3_2 N 0.08978(14) 0.26905(19) 0.78007(13)
N4_2 N 0.33718(12) 0.06281(18) 0.54661(11)
Co3 Co 0.38292(3) -0.00001(4) 0.5000
N5_2 N 0.15406(13) 0.39761(19) 0.88659(13)
N6_2 N 0.00384(12) 0.39615(18) 0.87995(11)
O5_2 O 0.08630(12) 0.40270(17) 0.74495(10)
H14_2 H 0.2678 0.9834 0.6115
Co3_2 Co 0.38292(3) 0.99999(4) 0.5000
Mo1_7 Mo 1.0000 0.207209(13) 0.0000
O4_2 O 0.98306(12) 0.24703(21) 0.07828(10)
Co2_2 Co 0.95041(3) 0.28375(5) 0.1667
C1_2 C 0.89242(17) 0.20413(24) 0.80976(17)
H1_2 H 0.9072 0.1811 0.8445
C2_2 C 0.82170(19) 0.16754(27) 0.78540(18)
H2_2 H 0.7895 0.1207 0.8032
C3_2 C 0.79825(17) 0.20034(25) 0.73422(17)
C4_2 C 0.84826(18) 0.27027(25) 0.71190(18)
H3_2 H 0.8343 0.2952 0.6787
C5_2 C 0.91793(18) 0.30290(23) 0.73826(14)
H4_2 H 0.9510 0.3499 0.7218
C6_2 C 0.72405(18) 0.16005(27) 0.7054(2)
H5_2 H 0.6943 0.1130 0.7238
C7_2 C 0.6953(2) 0.1843(3) 0.6557(2)
H6_2 H 0.7238 0.2326 0.6400
C8_2 C 0.62248(19) 0.14198(28) 0.6230(2)
C9_2 C 0.5953(2) 0.1767(3) 0.5786(2)
H7_2 H 0.6222 0.2272 0.5715
C10_2 C 0.52841(18) 0.13587(26) 0.5454(2)
H8_2 H 0.5107 0.1599 0.5156
C11_2 C 0.51385(18) 0.03198(26) 0.59667(18)
C12_2 C 0.5797(2) 0.0684(3) 0.6322(2)
H10_2 H 0.5954 0.0431 0.6627
Mo1_8 Mo 1.0000 0.207209(13) 1.0000
N1_2 N 0.48739(13) 0.06428(19) 0.55326(13)
N2_2 N 0.94103(13) 0.27052(18) 0.78672(11)
O1_2 O 0.92501(14) 0.12225(20) 0.98144(14)
H9_2 H 0.4859 0.9816 0.6033
H14_3 H 0.0166 0.2843 0.6115
Co3_3 Co 0.00001(4) 0.38292(3) 0.5000
H9_3 H 0.0184 0.5043 0.6033
C13_3 C 0.87080(24) 0.22575(17) 0.52357(17)
H11_3 H 0.8478 0.2405 0.4888
C14_3 C 0.83421(27) 0.15503(19) 0.54793(18)
H12_3 H 0.7874 0.1228 0.5301
C15_3 C 0.86701(25) 0.13158(17) 0.59911(17)
C16_3 C 0.93694(25) 0.18159(18) 0.62143(18)
H13_3 H 0.9619 0.1676 0.6546
C17_3 C 0.96957(23) 0.25126(18) 0.59507(14)
C18_3 C 0.82672(27) 0.05738(18) 0.6279(2)
H15_3 H 0.7797 0.0276 0.6095
C19_3 C 0.8510(3) 0.0286(2) 0.6776(2)
H16_3 H 0.8993 0.0571 0.6933
N4_3 N 0.93719(18) 0.27436(13) 0.54661(11)
Co3_4 Co 1.00001(4) 0.38292(3) 0.5000
Mo1_9 Mo 0.792791(13) 0.792791(13) 0.0000
O3_3 O 0.80276(24) 0.87775(20) 0.01856(14)
O4_3 O 0.75297(21) 0.73603(17) 0.07828(10)
Co2_3 Co 0.71625(5) 0.66666(4) 0.1667
C1_3 C 0.79587(24) 0.68829(17) 0.80976(17)
H1_3 H 0.8189 0.7261 0.8445
C2_3 C 0.83246(27) 0.65416(19) 0.78540(18)
H2_3 H 0.8793 0.6688 0.8032
C3_3 C 0.79966(25) 0.59791(18) 0.73422(17)
C4_3 C 0.72973(25) 0.57799(18) 0.71190(18)
H3_3 H 0.7048 0.5391 0.6787
C5_3 C 0.69710(23) 0.61503(15) 0.73826(14)
H4_3 H 0.6501 0.6011 0.7218
C6_3 C 0.83995(27) 0.5640(2) 0.7054(2)
H5_3 H 0.8870 0.5813 0.7238
C7_3 C 0.8157(3) 0.5110(2) 0.6557(2)
H6_3 H 0.7674 0.4912 0.6400
C8_3 C 0.85802(28) 0.4805(2) 0.6230(2)
C9_3 C 0.8233(3) 0.4186(2) 0.5786(2)
H7_3 H 0.7728 0.3950 0.5715
C10_3 C 0.86413(26) 0.39254(19) 0.5454(2)
H8_3 H 0.8401 0.3508 0.5156
C11_3 C 0.96802(26) 0.48187(19) 0.59667(18)
C12_3 C 0.9316(3) 0.5113(2) 0.6322(2)
H10_3 H 0.9569 0.5523 0.6627
Co1_3 Co 0.66666(4) 0.71625(3) 0.8333
Mo1_10 Mo 0.792791(13) 0.792791(13) 1.0000
N1_3 N 0.93572(19) 0.42311(14) 0.55326(13)
N2_3 N 0.72948(18) 0.67051(12) 0.78672(11)
O1_3 O 0.87775(20) 0.80276(14) 0.98144(14)
O2_3 O 0.73603(17) 0.75297(12) 0.92172(10)
C20_3 C 0.80865(28) 0.95581(19) 0.7103(2)
C21_3 C 0.8434(3) 0.9286(2) 0.7547(2)
H17_3 H 0.8939 0.9555 0.7618
C22_3 C 0.80254(26) 0.86174(18) 0.7879(2)
H18_3 H 0.8266 0.8440 0.8177
C23_3 C 0.69865(26) 0.84718(18) 0.73666(18)
H19_3 H 0.6483 0.8192 0.7300
C24_3 C 0.7351(3) 0.9130(2) 0.7011(2)
H20_3 H 0.7098 0.9287 0.6706
N3_3 N 0.73095(19) 0.82072(13) 0.78007(13)
N5_3 N 0.60239(19) 0.75644(14) 0.88659(13)
N6_3 N 0.60385(18) 0.60770(13) 0.87995(11)
O5_3 O 0.59730(17) 0.68361(12) 0.74495(10)
C13_4 C 0.12920(24) 0.35496(17) 0.47643(17)
H11_4 H 0.1522 0.3928 0.5112
C14_4 C 0.16579(27) 0.32083(19) 0.45207(18)
H12_4 H 0.2126 0.3355 0.4699
C15_4 C 0.13299(25) 0.26458(18) 0.40089(17)
C16_4 C 0.06306(25) 0.24466(18) 0.37857(18)
H13_4 H 0.0381 0.2058 0.3454
C17_4 C 0.03043(23) 0.28170(15) 0.40493(14)
C18_4 C 0.17328(27) 0.2307(2) 0.3721(2)
H15_4 H 0.2203 0.2480 0.3905
C19_4 C 0.1490(3) 0.1777(2) 0.3224(2)
H16_4 H 0.1007 0.1579 0.3067
C20_4 C 0.19135(28) 0.1472(2) 0.2897(2)
C21_4 C 0.1566(3) 0.0853(2) 0.2453(2)
H17_4 H 0.1061 0.0617 0.2382
C22_4 C 0.19746(26) 0.05921(19) 0.2121(2)
H18_4 H 0.1734 0.0175 0.1823
C23_4 C 0.30135(26) 0.14854(19) 0.26334(18)
H19_4 H 0.3517 0.1710 0.2700
C24_4 C 0.2649(3) 0.1780(2) 0.2989(2)
H20_4 H 0.2902 0.2190 0.3294
N3_4 N 0.26905(19) 0.08978(14) 0.21993(13)
N4_4 N 0.06281(18) 0.33718(12) 0.45339(11)
N5_4 N 0.39761(19) 0.15406(13) 0.11341(13)
N6_4 N 0.39615(18) 0.00384(12) 0.12005(11)
O5_4 O 0.40270(17) 0.08630(12) 0.25505(10)
C1_4 C 0.20413(24) 0.89242(17) 0.19024(17)
H1_4 H 0.1811 0.9072 0.1555
C2_4 C 0.16754(27) 0.82170(19) 0.21460(18)
H2_4 H 0.1207 0.7895 0.1968
C3_4 C 0.20034(25) 0.79825(17) 0.26578(17)
C4_4 C 0.27027(25) 0.84826(18) 0.28810(18)
H3_4 H 0.2952 0.8343 0.3213
C5_4 C 0.30290(23) 0.91793(18) 0.26174(14)
H4_4 H 0.3499 0.9510 0.2782
C6_4 C 0.16005(27) 0.72405(18) 0.2946(2)
H5_4 H 0.1130 0.6943 0.2762
C7_4 C 0.1843(3) 0.6953(2) 0.3443(2)
H6_4 H 0.2326 0.7238 0.3600
C8_4 C 0.14198(28) 0.62248(19) 0.3770(2)
C9_4 C 0.1767(3) 0.5953(2) 0.4214(2)
H7_4 H 0.2272 0.6222 0.4285
C10_4 C 0.13587(26) 0.52841(18) 0.4546(2)
H8_4 H 0.1599 0.5107 0.4844
C11_4 C 0.03198(26) 0.51385(18) 0.40333(18)
C12_4 C 0.0684(3) 0.5797(2) 0.3678(2)
H10_4 H 0.0431 0.5954 0.3373
N1_4 N 0.06428(19) 0.48739(13) 0.44674(13)
N2_4 N 0.27052(18) 0.94103(13) 0.21328(11)
H14_4 H 0.9834 0.2678 0.3885
H9_4 H 0.9816 0.4859 0.3967
H14_5 H 0.2843 0.0166 0.3885
C13_5 C 0.22575(17) 0.87080(24) 0.47643(17)
H11_5 H 0.2405 0.8478 0.5112
C14_5 C 0.15503(19) 0.83421(27) 0.45207(18)
H12_5 H 0.1228 0.7874 0.4699
C15_5 C 0.13158(17) 0.86701(25) 0.40089(17)
C16_5 C 0.18159(18) 0.93694(25) 0.37857(18)
H13_5 H 0.1676 0.9619 0.3454
C17_5 C 0.25126(18) 0.96957(23) 0.40493(14)
C18_5 C 0.05738(18) 0.82672(27) 0.3721(2)
H15_5 H 0.0276 0.7797 0.3905
C19_5 C 0.0286(2) 0.8510(3) 0.3224(2)
H16_5 H 0.0571 0.8993 0.3067
N4_5 N 0.27436(13) 0.93719(18) 0.45339(11)
H9_5 H 0.5043 0.0184 0.3967
C1_5 C 0.68829(17) 0.79587(24) 0.19024(17)
H1_5 H 0.7261 0.8189 0.1555
C2_5 C 0.65416(19) 0.83246(27) 0.21460(18)
H2_5 H 0.6688 0.8793 0.1968
C3_5 C 0.59791(18) 0.79966(25) 0.26578(17)
C4_5 C 0.57799(18) 0.72973(25) 0.28810(18)
H3_5 H 0.5391 0.7048 0.3213
C5_5 C 0.61503(15) 0.69710(23) 0.26174(14)
H4_5 H 0.6011 0.6501 0.2782
C6_5 C 0.5640(2) 0.83995(27) 0.2946(2)
H5_5 H 0.5813 0.8870 0.2762
C7_5 C 0.5110(2) 0.8157(3) 0.3443(2)
H6_5 H 0.4912 0.7674 0.3600
C8_5 C 0.4805(2) 0.85802(28) 0.3770(2)
C9_5 C 0.4186(2) 0.8233(3) 0.4214(2)
H7_5 H 0.3950 0.7728 0.4285
C10_5 C 0.39254(19) 0.86413(26) 0.4546(2)
H8_5 H 0.3508 0.8401 0.4844
C11_5 C 0.48187(19) 0.96802(26) 0.40333(18)
C12_5 C 0.5113(2) 0.9316(3) 0.3678(2)
H10_5 H 0.5523 0.9569 0.3373
N1_5 N 0.42311(14) 0.93572(19) 0.44674(13)
N2_5 N 0.67051(12) 0.72948(18) 0.21328(11)
C20_5 C 0.95581(19) 0.80865(28) 0.2897(2)
C21_5 C 0.9286(2) 0.8434(3) 0.2453(2)
H17_5 H 0.9555 0.8939 0.2382
C22_5 C 0.86174(18) 0.80254(26) 0.2121(2)
H18_5 H 0.8440 0.8266 0.1823
C23_5 C 0.84718(18) 0.69865(26) 0.26334(18)
H19_5 H 0.8192 0.6483 0.2700
C24_5 C 0.9130(2) 0.7351(3) 0.2989(2)
H20_5 H 0.9287 0.7098 0.3294
N3_5 N 0.82072(13) 0.73095(19) 0.21993(13)
N5_5 N 0.75644(14) 0.60239(19) 0.11341(13)
N6_5 N 0.60770(13) 0.60385(18) 0.12005(11)
O5_5 O 0.68361(12) 0.59730(17) 0.25505(10)
C1_6 C 0.10758(17) 0.31171(17) 0.19024(17)
H1_6 H 0.0928 0.2739 0.1555
C2_6 C 0.17830(19) 0.34584(19) 0.21460(18)
H2_6 H 0.2105 0.3312 0.1968
C3_6 C 0.20175(17) 0.40209(18) 0.26578(17)
C4_6 C 0.15174(18) 0.42201(18) 0.28810(18)
H3_6 H 0.1657 0.4609 0.3213
C5_6 C 0.08207(18) 0.38497(15) 0.26174(14)
H4_6 H 0.0490 0.3989 0.2782
C6_6 C 0.27595(18) 0.4360(2) 0.2946(2)
H5_6 H 0.3057 0.4187 0.2762
C7_6 C 0.3047(2) 0.4890(2) 0.3443(2)
H6_6 H 0.2762 0.5088 0.3600
C8_6 C 0.37752(19) 0.5195(2) 0.3770(2)
C9_6 C 0.4047(2) 0.5814(2) 0.4214(2)
H7_6 H 0.3778 0.6050 0.4285
C10_6 C 0.47159(18) 0.60746(19) 0.4546(2)
H8_6 H 0.4893 0.6492 0.4844
C11_6 C 0.48615(18) 0.51813(19) 0.40333(18)
H9_6 H 0.5141 0.4957 0.3967
C12_6 C 0.4203(2) 0.4887(2) 0.3678(2)
H10_6 H 0.4046 0.4477 0.3373
N1_6 N 0.51261(13) 0.57689(14) 0.44674(13)
N2_6 N 0.05897(13) 0.32949(12) 0.21328(11)
C20_6 C 0.8528(2) 0.04419(19) 0.2897(2)
C21_6 C 0.9147(2) 0.0714(2) 0.2453(2)
H17_6 H 0.9383 0.0445 0.2382
C22_6 C 0.94079(19) 0.13826(18) 0.2121(2)
H18_6 H 0.9825 0.1560 0.1823
C23_6 C 0.85146(19) 0.15282(18) 0.26334(18)
H19_6 H 0.8290 0.1808 0.2700
C24_6 C 0.8220(2) 0.0870(2) 0.2989(2)
H20_6 H 0.7810 0.0713 0.3294
N3_6 N 0.91022(14) 0.17928(13) 0.21993(13)
N5_6 N 0.84594(13) 0.24356(14) 0.11341(13)
N6_6 N 0.99616(12) 0.39230(13) 0.12005(11)
O5_6 O 0.91370(12) 0.31639(12) 0.25505(10)
C13_6 C 0.64504(17) 0.77425(17) 0.47643(17)
H11_6 H 0.6072 0.7595 0.5112
C14_6 C 0.67917(19) 0.84497(19) 0.45207(18)
H12_6 H 0.6645 0.8772 0.4699
C15_6 C 0.73542(18) 0.86842(17) 0.40089(17)
C16_6 C 0.75534(18) 0.81841(18) 0.37857(18)
H13_6 H 0.7942 0.8324 0.3454
C17_6 C 0.71830(15) 0.74874(18) 0.40493(14)
H14_6 H 0.7322 0.7157 0.3885
C18_6 C 0.7693(2) 0.94262(18) 0.3721(2)
H15_6 H 0.7520 0.9724 0.3905
C19_6 C 0.8223(2) 0.9714(2) 0.3224(2)
H16_6 H 0.8421 0.9429 0.3067
N4_6 N 0.66282(12) 0.72564(13) 0.45339(11)
C2_7 C 0.01251(19) 0.51163(19) 0.11873(18)
C3_7 C 0.06876(18) 0.53508(17) 0.06755(17)
C4_7 C 0.08868(18) 0.48507(18) 0.04523(18)
H3_7 H 0.1276 0.4990 0.0120
C5_7 C 0.05164(15) 0.41540(18) 0.07159(14)
H4_7 H 0.0656 0.3823 0.0551
C6_7 C 0.1027(2) 0.60928(18) 0.0387(2)
H5_7 H 0.0854 0.6390 0.0571
C7_7 C 0.1557(2) 0.6380(2) 0.9890(2)
H6_7 H 0.1755 0.6095 0.9733
C8_7 C 0.1862(2) 0.71085(19) 0.9563(2)
C9_7 C 0.2481(2) 0.7380(2) 0.9119(2)
H7_7 H 0.2717 0.7111 0.9048
C10_7 C 0.27413(19) 0.80492(18) 0.8787(2)
H8_7 H 0.3159 0.8226 0.8489
C11_7 C 0.18480(19) 0.81948(18) 0.93000(18)
H9_7 H 0.1624 0.8474 0.9366
C12_7 C 0.1554(2) 0.7536(2) 0.9655(2)
H10_7 H 0.1144 0.7379 0.9960
C1_7 C 0.97838(17) 0.44091(17) 0.14309(17)
H1_7 H 0.9406 0.4261 0.1778
H2_7 H 0.9979 0.5438 0.1365
Mo1_11 Mo 0.873876(13) 0.3333 0.3333
O1_4 O 0.86391(14) 0.40832(14) 0.31477(14)
O3_4 O 0.78892(20) 0.25834(14) 0.35189(14)
O4_4 O 0.93064(17) 0.35027(12) 0.41161(10)
C19_7 C 0.6380(2) 0.1557(2) 0.0110(2)
H16_7 H 0.6095 0.1755 0.0267
C20_7 C 0.71085(19) 0.1862(2) 0.0437(2)
C21_7 C 0.7380(2) 0.2481(2) 0.0881(2)
H17_7 H 0.7111 0.2717 0.0952
C22_7 C 0.80492(18) 0.27413(19) 0.1213(2)
H18_7 H 0.8226 0.3159 0.1511
C23_7 C 0.81948(18) 0.18480(19) 0.07000(18)
H19_7 H 0.8474 0.1624 0.0634
C24_7 C 0.7536(2) 0.1554(2) 0.0345(2)
H20_7 H 0.7379 0.1144 0.0040
C14_7 C 0.51163(19) 0.01251(19) 0.88127(18)
C15_7 C 0.53508(17) 0.06876(18) 0.93245(17)
C16_7 C 0.48507(18) 0.08868(18) 0.95477(18)
H13_7 H 0.4990 0.1276 0.9880
C17_7 C 0.41540(18) 0.05164(15) 0.92841(14)
H14_7 H 0.3823 0.0656 0.9449
C18_7 C 0.60928(18) 0.1027(2) 0.9613(2)
H15_7 H 0.6390 0.0854 0.9429
C13_7 C 0.44091(17) 0.97838(17) 0.85691(17)
H11_7 H 0.4261 0.9406 0.8222
H12_7 H 0.5438 0.9979 0.8635
C13_8 C 0.02162(17) 0.46254(24) 0.85691(17)
H11_8 H 0.0594 0.4856 0.8222
H12_8 H 0.0021 0.5460 0.8635
C1_8 C 0.55909(17) 0.53746(24) 0.14309(17)
H1_8 H 0.5739 0.5144 0.1778
C2_8 C 0.48837(19) 0.50087(27) 0.11873(18)
H2_8 H 0.4562 0.4540 0.1365
C3_8 C 0.46492(17) 0.53367(25) 0.06755(17)
C4_8 C 0.51493(18) 0.60360(25) 0.04523(18)
H3_8 H 0.5010 0.6285 0.0120
C5_8 C 0.58460(18) 0.63623(23) 0.07159(14)
H4_8 H 0.6177 0.6832 0.0551
C6_8 C 0.39072(18) 0.49338(27) 0.0387(2)
H5_8 H 0.3610 0.4463 0.0571
Mo1_12 Mo 0.6667 0.540542(13) 0.3333
O1_5 O 0.59168(14) 0.45558(20) 0.31477(14)
O3_5 O 0.74166(14) 0.53057(24) 0.35189(14)
O4_5 O 0.64973(12) 0.58036(21) 0.41161(10)
C19_8 C 0.8443(2) 0.4824(3) 0.0110(2)
H16_8 H 0.8245 0.4341 0.0267
C20_8 C 0.8138(2) 0.52469(28) 0.0437(2)
C21_8 C 0.7519(2) 0.4900(3) 0.0881(2)
H17_8 H 0.7283 0.4395 0.0952
C22_8 C 0.72587(19) 0.53080(26) 0.1213(2)
H18_8 H 0.6841 0.5068 0.1511
C23_8 C 0.81520(19) 0.63469(26) 0.07000(18)
H19_8 H 0.8376 0.6851 0.0634
C24_8 C 0.8446(2) 0.5983(3) 0.0345(2)
H20_8 H 0.8856 0.6236 0.0040
C7_8 C 0.3620(2) 0.5176(3) 0.9890(2)
H6_8 H 0.3905 0.5659 0.9733
C8_8 C 0.28915(19) 0.47531(28) 0.9563(2)
C9_8 C 0.2620(2) 0.5100(3) 0.9119(2)
H7_8 H 0.2889 0.5605 0.9048
C10_8 C 0.19508(18) 0.46920(26) 0.8787(2)
H8_8 H 0.1774 0.4932 0.8489
C11_8 C 0.18052(18) 0.36531(26) 0.93000(18)
H9_8 H 0.1526 0.3149 0.9366
C12_8 C 0.2464(2) 0.4017(3) 0.9655(2)
H10_8 H 0.2621 0.3764 0.9960
C14_8 C 0.98749(19) 0.49913(27) 0.88127(18)
C15_8 C 0.93124(18) 0.46633(25) 0.93245(17)
C16_8 C 0.91132(18) 0.39640(25) 0.95477(18)
H13_8 H 0.8724 0.3715 0.9880
C17_8 C 0.94836(15) 0.36377(23) 0.92841(14)
H14_8 H 0.9344 0.3168 0.9449
C18_8 C 0.8973(2) 0.50662(27) 0.9613(2)
H15_8 H 0.9146 0.5537 0.9429
C1_9 C 0.46254(24) 0.02162(17) 0.14309(17)
H1_9 H 0.4856 0.0594 0.1778
H2_9 H 0.5460 0.0021 0.1365
Mo1_13 Mo 0.459458(13) 0.126124(13) 0.3333
O1_6 O 0.54442(20) 0.13609(14) 0.31477(14)
O3_6 O 0.46943(24) 0.21108(20) 0.35189(14)
O4_6 O 0.41964(21) 0.06936(17) 0.41161(10)
C19_9 C 0.5176(3) 0.3620(2) 0.0110(2)
H16_9 H 0.5659 0.3905 0.0267
C20_9 C 0.47531(28) 0.28915(19) 0.0437(2)
C21_9 C 0.5100(3) 0.2620(2) 0.0881(2)
H17_9 H 0.5605 0.2889 0.0952
C22_9 C 0.46920(26) 0.19508(18) 0.1213(2)
H18_9 H 0.4932 0.1774 0.1511
C23_9 C 0.36531(26) 0.18052(18) 0.07000(18)
H19_9 H 0.3149 0.1526 0.0634
C24_9 C 0.4017(3) 0.2464(2) 0.0345(2)
H20_9 H 0.3764 0.2621 0.0040
C13_9 C 0.53746(24) 0.55909(17) 0.85691(17)
H11_9 H 0.5144 0.5739 0.8222
C14_9 C 0.50087(27) 0.48837(19) 0.88127(18)
H12_9 H 0.4540 0.4562 0.8635
C15_9 C 0.53367(25) 0.46492(17) 0.93245(17)
C16_9 C 0.60360(25) 0.51493(18) 0.95477(18)
H13_9 H 0.6285 0.5010 0.9880
C17_9 C 0.63623(23) 0.58460(18) 0.92841(14)
H14_9 H 0.6832 0.6177 0.9449
C18_9 C 0.49338(27) 0.39072(18) 0.9613(2)
H15_9 H 0.4463 0.3610 0.9429
C2_9 C 0.49913(27) 0.98749(19) 0.11873(18)
C3_9 C 0.46633(25) 0.93124(18) 0.06755(17)
C4_9 C 0.39640(25) 0.91132(18) 0.04523(18)
H3_9 H 0.3715 0.8724 0.0120
C5_9 C 0.36377(23) 0.94836(15) 0.07159(14)
H4_9 H 0.3168 0.9344 0.0551
C6_9 C 0.50662(27) 0.8973(2) 0.0387(2)
H5_9 H 0.5537 0.9146 0.0571
C7_9 C 0.4824(3) 0.8443(2) 0.9890(2)
H6_9 H 0.4341 0.8245 0.9733
C8_9 C 0.52469(28) 0.8138(2) 0.9563(2)
C9_9 C 0.4900(3) 0.7519(2) 0.9119(2)
H7_9 H 0.4395 0.7283 0.9048
C10_9 C 0.53080(26) 0.72587(19) 0.8787(2)
H8_9 H 0.5068 0.6841 0.8489
C11_9 C 0.63469(26) 0.81520(19) 0.93000(18)
H9_9 H 0.6851 0.8376 0.9366
C12_9 C 0.5983(3) 0.8446(2) 0.9655(2)
H10_9 H 0.6236 0.8856 0.9960
O5_7 O 0.06936(17) 0.41964(12) 0.58839(10)
O5_8 O 0.35027(12) 0.93064(17) 0.58839(10)
O5_9 O 0.58036(12) 0.64973(12) 0.58839(10)
Mo1_14 Mo 0.540542(13) 0.6667 0.6667
O1_7 O 0.53057(14) 0.74166(14) 0.64811(14)
O3_7 O 0.45558(20) 0.59168(14) 0.68523(14)
Mo1_15 Mo 0.3333 0.873876(13) 0.6667
O1_8 O 0.25834(14) 0.78892(20) 0.64811(14)
O3_8 O 0.40832(14) 0.86391(24) 0.68523(14)
Mo1_16 Mo 0.126124(13) 0.459458(13) 0.6667
O1_9 O 0.21108(20) 0.46943(14) 0.64811(14)
O3_9 O 0.13609(24) 0.54442(20) 0.68523(14)
loop_
_geom_bond_atom_site_label_1
_geom_bond_atom_site_label_2
_geom_bond_site_symmetry_1
_geom_bond_site_symmetry_2
O4 Mo1 1_555 1_555
Co2 O4 1_555 1_555
C1 H1 1_555 1_555
C2 C1 1_555 1_555
H2 C2 1_555 1_555
C3 C2 1_555 1_555
C4 C3 1_555 1_555
H3 C4 1_555 1_555
C5 C4 1_555 1_555
H4 C5 1_555 1_555
C6 C3 1_555 1_555
H5 C6 1_555 1_555
C7 C6 1_555 1_555
H6 C7 1_555 1_555
C8 C7 1_555 1_555
C9 C8 1_555 1_555
H7 C9 1_555 1_555
C10 C9 1_555 1_555
H8 C10 1_555 1_555
C11 H9 1_555 1_555
C12 C8 1_555 1_555
H10 C12 1_555 1_555
Mo1_2 O1 1_555 1_555
N1 C10 1_555 1_555
N2 C1 1_555 1_555
Co4 N1 1_555 1_555
C5 N2 1_555 1_555
C11 C12 1_555 1_555
C11 N1 1_555 1_555
O3 Mo1_3 1_555 1_555
O2 Co1 1_555 1_555
C21 C20 1_555 1_555
H17 C21 1_555 1_555
C22 C21 1_555 1_555
H18 C22 1_555 1_555
C23 H19 1_555 1_555
C24 C20 1_555 1_555
H20 C24 1_555 1_555
N3 Co1 1_555 1_555
N5 Co1 1_555 1_555
N6 Co1 1_555 1_555
O5 Co1 1_555 1_555
Mo1_4 O2 1_555 1_555
C22 N3 1_555 1_555
C23 C24 1_555 1_555
C23 N3 1_555 1_555
C13 H11 1_555 1_555
C14 C13 1_555 1_555
H12 C14 1_555 1_555
C15 C14 1_555 1_555
C16 C15 1_555 1_555
H13 C16 1_555 1_555
C17 C16 1_555 1_555
H14 C17 1_555 1_555
C18 C15 1_555 1_555
H15 C18 1_555 1_555
C19 C18 1_555 1_555
H16 C19 1_555 1_555
N4 C13 1_555 1_555
Co4 N4 1_555 1_555
C17 N4 1_555 1_555
O3_2 Mo1_5 1_555 1_555
O2_2 Co1_2 1_555 1_555
C13_2 H11_2 1_555 1_555
C14_2 C13_2 1_555 1_555
H12_2 C14_2 1_555 1_555
C15_2 C14_2 1_555 1_555
C16_2 C15_2 1_555 1_555
H13_2 C16_2 1_555 1_555
C17_2 C16_2 1_555 1_555
C18_2 C15_2 1_555 1_555
H15_2 C18_2 1_555 1_555
C19_2 C18_2 1_555 1_555
H16_2 C19_2 1_555 1_555
C20_2 C19_2 1_555 1_555
C21_2 C20_2 1_555 1_555
H17_2 C21_2 1_555 1_555
C22_2 C21_2 1_555 1_555
H18_2 C22_2 1_555 1_555
C23_2 H19_2 1_555 1_555
C24_2 C20_2 1_555 1_555
H20_2 C24_2 1_555 1_555
N3_2 Co1_2 1_555 1_555
N4_2 C13_2 1_555 1_555
Co3 N4_2 1_555 1_555
N5_2 Co1_2 1_555 1_555
N6_2 Co1_2 1_555 1_555
O5_2 Co1_2 1_555 1_555
Mo1_6 O2_2 1_555 1_555
C17_2 N4_2 1_555 1_555
C22_2 N3_2 1_555 1_555
C23_2 C24_2 1_555 1_555
C23_2 N3_2 1_555 1_555
O4_2 Mo1_7 1_555 1_555
Co2_2 O4_2 1_555 1_555
C1_2 H1_2 1_555 1_555
C2_2 C1_2 1_555 1_555
H2_2 C2_2 1_555 1_555
C3_2 C2_2 1_555 1_555
C4_2 C3_2 1_555 1_555
H3_2 C4_2 1_555 1_555
C5_2 C4_2 1_555 1_555
H4_2 C5_2 1_555 1_555
C6_2 C3_2 1_555 1_555
H5_2 C6_2 1_555 1_555
C7_2 C6_2 1_555 1_555
H6_2 C7_2 1_555 1_555
C8_2 C7_2 1_555 1_555
C9_2 C8_2 1_555 1_555
H7_2 C9_2 1_555 1_555
C10_2 C9_2 1_555 1_555
H8_2 C10_2 1_555 1_555
C12_2 C8_2 1_555 1_555
H10_2 C12_2 1_555 1_555
Mo1_8 O1_2 1_555 1_555
N1_2 C10_2 1_555 1_555
N2_2 C1_2 1_555 1_555
Co3 N1_2 1_555 1_555
C5_2 N2_2 1_555 1_555
C11_2 C12_2 1_555 1_555
C11_2 N1_2 1_555 1_555
C13_3 H11_3 1_555 1_555
C14_3 C13_3 1_555 1_555
H12_3 C14_3 1_555 1_555
C15_3 C14_3 1_555 1_555
C16_3 C15_3 1_555 1_555
H13_3 C16_3 1_555 1_555
C17_3 C16_3 1_555 1_555
C18_3 C15_3 1_555 1_555
H15_3 C18_3 1_555 1_555
C19_3 C18_3 1_555 1_555
H16_3 C19_3 1_555 1_555
N4_3 C13_3 1_555 1_555
Co3_4 N4_3 1_555 1_555
C17_3 N4_3 1_555 1_555
O3_3 Mo1_9 1_555 1_555
O4_3 Mo1_9 1_555 1_555
Co2_3 O4_3 1_555 1_555
C1_3 H1_3 1_555 1_555
C2_3 C1_3 1_555 1_555
H2_3 C2_3 1_555 1_555
C3_3 C2_3 1_555 1_555
C4_3 C3_3 1_555 1_555
H3_3 C4_3 1_555 1_555
C5_3 C4_3 1_555 1_555
H4_3 C5_3 1_555 1_555
C6_3 C3_3 1_555 1_555
H5_3 C6_3 1_555 1_555
C7_3 C6_3 1_555 1_555
H6_3 C7_3 1_555 1_555
C8_3 C7_3 1_555 1_555
C9_3 C8_3 1_555 1_555
H7_3 C9_3 1_555 1_555
C10_3 C9_3 1_555 1_555
H8_3 C10_3 1_555 1_555
C12_3 C8_3 1_555 1_555
H10_3 C12_3 1_555 1_555
Co1_3 N2_3 1_555 1_555
Mo1_10 O1_3 1_555 1_555
N1_3 C10_3 1_555 1_555
N2_3 C1_3 1_555 1_555
O2_3 Co1_3 1_555 1_555
C21_3 C20_3 1_555 1_555
H17_3 C21_3 1_555 1_555
C22_3 C21_3 1_555 1_555
H18_3 C22_3 1_555 1_555
C23_3 H19_3 1_555 1_555
C24_3 C20_3 1_555 1_555
H20_3 C24_3 1_555 1_555
N3_3 Co1_3 1_555 1_555
Co3_4 N1_3 1_555 1_555
N5_3 Co1_3 1_555 1_555
N6_3 Co1_3 1_555 1_555
O5_3 Co1_3 1_555 1_555
C5_3 N2_3 1_555 1_555
C11_3 C12_3 1_555 1_555
C11_3 N1_3 1_555 1_555
Mo1_10 O2_3 1_555 1_555
C22_3 N3_3 1_555 1_555
C23_3 C24_3 1_555 1_555
C23_3 N3_3 1_555 1_555
C13_4 H11_4 1_555 1_555
C14_4 C13_4 1_555 1_555
H12_4 C14_4 1_555 1_555
C15_4 C14_4 1_555 1_555
C16_4 C15_4 1_555 1_555
H13_4 C16_4 1_555 1_555
C17_4 C16_4 1_555 1_555
C18_4 C15_4 1_555 1_555
H15_4 C18_4 1_555 1_555
C19_4 C18_4 1_555 1_555
H16_4 C19_4 1_555 1_555
C20_4 C19_4 1_555 1_555
C21_4 C20_4 1_555 1_555
H17_4 C21_4 1_555 1_555
C22_4 C21_4 1_555 1_555
H18_4 C22_4 1_555 1_555
C23_4 H19_4 1_555 1_555
C24_4 C20_4 1_555 1_555
H20_4 C24_4 1_555 1_555
N3_4 Co2 1_555 1_555
N4_4 C13_4 1_555 1_555
Co3_3 N4_4 1_555 1_555
N5_4 Co2 1_555 1_555
N6_4 Co2 1_555 1_555
O5_4 Co2 1_555 1_555
C17_4 N4_4 1_555 1_555
C22_4 N3_4 1_555 1_555
C23_4 C24_4 1_555 1_555
C23_4 N3_4 1_555 1_555
C1_4 H1_4 1_555 1_555
C2_4 C1_4 1_555 1_555
H2_4 C2_4 1_555 1_555
C3_4 C2_4 1_555 1_555
C4_4 C3_4 1_555 1_555
H3_4 C4_4 1_555 1_555
C5_4 C4_4 1_555 1_555
H4_4 C5_4 1_555 1_555
C6_4 C3_4 1_555 1_555
H5_4 C6_4 1_555 1_555
C7_4 C6_4 1_555 1_555
H6_4 C7_4 1_555 1_555
C8_4 C7_4 1_555 1_555
C9_4 C8_4 1_555 1_555
H7_4 C9_4 1_555 1_555
C10_4 C9_4 1_555 1_555
H8_4 C10_4 1_555 1_555
C12_4 C8_4 1_555 1_555
H10_4 C12_4 1_555 1_555
N1_4 C10_4 1_555 1_555
N2_4 C1_4 1_555 1_555
Co3_3 N1_4 1_555 1_555
C5_4 N2_4 1_555 1_555
C11_4 C12_4 1_555 1_555
C11_4 N1_4 1_555 1_555
C13_5 H11_5 1_555 1_555
C14_5 C13_5 1_555 1_555
H12_5 C14_5 1_555 1_555
C15_5 C14_5 1_555 1_555
C16_5 C15_5 1_555 1_555
H13_5 C16_5 1_555 1_555
C17_5 C16_5 1_555 1_555
C18_5 C15_5 1_555 1_555
H15_5 C18_5 1_555 1_555
C19_5 C18_5 1_555 1_555
H16_5 C19_5 1_555 1_555
N4_5 C13_5 1_555 1_555
Co3_2 N4_5 1_555 1_555
C17_5 N4_5 1_555 1_555
C1_5 H1_5 1_555 1_555
C2_5 C1_5 1_555 1_555
H2_5 C2_5 1_555 1_555
C3_5 C2_5 1_555 1_555
C4_5 C3_5 1_555 1_555
H3_5 C4_5 1_555 1_555
C5_5 C4_5 1_555 1_555
H4_5 C5_5 1_555 1_555
C6_5 C3_5 1_555 1_555
H5_5 C6_5 1_555 1_555
C7_5 C6_5 1_555 1_555
H6_5 C7_5 1_555 1_555
C8_5 C7_5 1_555 1_555
C9_5 C8_5 1_555 1_555
H7_5 C9_5 1_555 1_555
C10_5 C9_5 1_555 1_555
H8_5 C10_5 1_555 1_555
C12_5 C8_5 1_555 1_555
H10_5 C12_5 1_555 1_555
Co2_3 N2_5 1_555 1_555
N1_5 C10_5 1_555 1_555
N2_5 C1_5 1_555 1_555
C21_5 C20_5 1_555 1_555
H17_5 C21_5 1_555 1_555
C22_5 C21_5 1_555 1_555
H18_5 C22_5 1_555 1_555
C23_5 H19_5 1_555 1_555
C24_5 C20_5 1_555 1_555
H20_5 C24_5 1_555 1_555
N3_5 Co2_3 1_555 1_555
Co3_2 N1_5 1_555 1_555
N5_5 Co2_3 1_555 1_555
N6_5 Co2_3 1_555 1_555
O5_5 Co2_3 1_555 1_555
C5_5 N2_5 1_555 1_555
C11_5 C12_5 1_555 1_555
C11_5 N1_5 1_555 1_555
C22_5 N3_5 1_555 1_555
C23_5 C24_5 1_555 1_555
C23_5 N3_5 1_555 1_555
C1_6 H1_6 1_555 1_555
C2_6 C1_6 1_555 1_555
H2_6 C2_6 1_555 1_555
C3_6 C2_6 1_555 1_555
C4_6 C3_6 1_555 1_555
H3_6 C4_6 1_555 1_555
C5_6 C4_6 1_555 1_555
H4_6 C5_6 1_555 1_555
C6_6 C3_6 1_555 1_555
H5_6 C6_6 1_555 1_555
C7_6 C6_6 1_555 1_555
H6_6 C7_6 1_555 1_555
C8_6 C7_6 1_555 1_555
C9_6 C8_6 1_555 1_555
H7_6 C9_6 1_555 1_555
C10_6 C9_6 1_555 1_555
H8_6 C10_6 1_555 1_555
C11_6 H9_6 1_555 1_555
C12_6 C8_6 1_555 1_555
H10_6 C12_6 1_555 1_555
N1_6 C10_6 1_555 1_555
N2_6 C1_6 1_555 1_555
Co4 N1_6 1_555 1_555
C5_6 N2_6 1_555 1_555
C11_6 C12_6 1_555 1_555
C11_6 N1_6 1_555 1_555
C21_6 C20_6 1_555 1_555
H17_6 C21_6 1_555 1_555
C22_6 C21_6 1_555 1_555
H18_6 C22_6 1_555 1_555
C23_6 H19_6 1_555 1_555
C24_6 C20_6 1_555 1_555
H20_6 C24_6 1_555 1_555
N3_6 Co2_2 1_555 1_555
N5_6 Co2_2 1_555 1_555
N6_6 Co2_2 1_555 1_555
O5_6 Co2_2 1_555 1_555
C22_6 N3_6 1_555 1_555
C23_6 C24_6 1_555 1_555
C23_6 N3_6 1_555 1_555
C13_6 H11_6 1_555 1_555
C14_6 C13_6 1_555 1_555
H12_6 C14_6 1_555 1_555
C15_6 C14_6 1_555 1_555
C16_6 C15_6 1_555 1_555
H13_6 C16_6 1_555 1_555
C17_6 C16_6 1_555 1_555
H14_6 C17_6 1_555 1_555
C18_6 C15_6 1_555 1_555
H15_6 C18_6 1_555 1_555
C19_6 C18_6 1_555 1_555
H16_6 C19_6 1_555 1_555
N4_6 C13_6 1_555 1_555
Co4 N4_6 1_555 1_555
C17_6 N4_6 1_555 1_555
C3_7 C2_7 1_555 1_555
C4_7 C3_7 1_555 1_555
H3_7 C4_7 1_555 1_555
C5_7 C4_7 1_555 1_555
H4_7 C5_7 1_555 1_555
C6_7 C3_7 1_555 1_555
H5_7 C6_7 1_555 1_555
H6_7 C7_7 1_555 1_555
C8_7 C7_7 1_555 1_555
C9_7 C8_7 1_555 1_555
H7_7 C9_7 1_555 1_555
C10_7 C9_7 1_555 1_555
H8_7 C10_7 1_555 1_555
C11_7 H9_7 1_555 1_555
C12_7 C8_7 1_555 1_555
H10_7 C12_7 1_555 1_555
N5 C10_7 1_555 1_555
C11_7 C12_7 1_555 1_555
C11_7 N5 1_555 1_555
C1_7 H1_7 1_555 1_555
Mo1_11 O1_4 1_555 1_555
N6_6 C1_7 1_555 1_555
O3_4 Mo1_11 1_555 1_555
O4_4 Mo1_11 1_555 1_555
H16_7 C19_7 1_555 1_555
C20_7 C19_7 1_555 1_555
C21_7 C20_7 1_555 1_555
H17_7 C21_7 1_555 1_555
C22_7 C21_7 1_555 1_555
H18_7 C22_7 1_555 1_555
C23_7 H19_7 1_555 1_555
C24_7 C20_7 1_555 1_555
H20_7 C24_7 1_555 1_555
Co3_4 O4_4 1_555 1_555
Mo1_11 O5_6 1_555 1_555
C22_7 N5_6 1_555 1_555
C23_7 C24_7 1_555 1_555
C23_7 N5_6 1_555 1_555
C15_7 C14_7 1_555 1_555
C16_7 C15_7 1_555 1_555
H13_7 C16_7 1_555 1_555
C17_7 C16_7 1_555 1_555
H14_7 C17_7 1_555 1_555
C18_7 C15_7 1_555 1_555
H15_7 C18_7 1_555 1_555
C13_7 H11_7 1_555 1_555
N6 C13_7 1_555 1_555
C13_8 H11_8 1_555 1_555
N6_2 C13_8 1_555 1_555
C1_8 H1_8 1_555 1_555
C2_8 C1_8 1_555 1_555
H2_8 C2_8 1_555 1_555
C3_8 C2_8 1_555 1_555
C4_8 C3_8 1_555 1_555
H3_8 C4_8 1_555 1_555
C5_8 C4_8 1_555 1_555
H4_8 C5_8 1_555 1_555
C6_8 C3_8 1_555 1_555
H5_8 C6_8 1_555 1_555
Mo1_12 O1_5 1_555 1_555
N6_5 C1_8 1_555 1_555
O3_5 Mo1_12 1_555 1_555
O4_5 Mo1_12 1_555 1_555
H16_8 C19_8 1_555 1_555
C20_8 C19_8 1_555 1_555
C21_8 C20_8 1_555 1_555
H17_8 C21_8 1_555 1_555
C22_8 C21_8 1_555 1_555
H18_8 C22_8 1_555 1_555
C23_8 H19_8 1_555 1_555
C24_8 C20_8 1_555 1_555
H20_8 C24_8 1_555 1_555
Co4 O4_5 1_555 1_555
C5_8 N6_5 1_555 1_555
Mo1_12 O5_5 1_555 1_555
C22_8 N5_5 1_555 1_555
C23_8 C24_8 1_555 1_555
C23_8 N5_5 1_555 1_555
H6_8 C7_8 1_555 1_555
C8_8 C7_8 1_555 1_555
C9_8 C8_8 1_555 1_555
H7_8 C9_8 1_555 1_555
C10_8 C9_8 1_555 1_555
H8_8 C10_8 1_555 1_555
C11_8 H9_8 1_555 1_555
C12_8 C8_8 1_555 1_555
H10_8 C12_8 1_555 1_555
N5_2 C10_8 1_555 1_555
C15_8 C14_8 1_555 1_555
C16_8 C15_8 1_555 1_555
H13_8 C16_8 1_555 1_555
C17_8 C16_8 1_555 1_555
H14_8 C17_8 1_555 1_555
C18_8 C15_8 1_555 1_555
H15_8 C18_8 1_555 1_555
C11_8 C12_8 1_555 1_555
C11_8 N5_2 1_555 1_555
C1_9 H1_9 1_555 1_555
Mo1_13 O1_6 1_555 1_555
N6_4 C1_9 1_555 1_555
O3_6 Mo1_13 1_555 1_555
O4_6 Mo1_13 1_555 1_555
H16_9 C19_9 1_555 1_555
C20_9 C19_9 1_555 1_555
C21_9 C20_9 1_555 1_555
H17_9 C21_9 1_555 1_555
C22_9 C21_9 1_555 1_555
H18_9 C22_9 1_555 1_555
C23_9 H19_9 1_555 1_555
C24_9 C20_9 1_555 1_555
H20_9 C24_9 1_555 1_555
Co3 O4_6 1_555 1_555
Mo1_13 O5_4 1_555 1_555
C22_9 N5_4 1_555 1_555
C23_9 C24_9 1_555 1_555
C23_9 N5_4 1_555 1_555
C13_9 H11_9 1_555 1_555
C14_9 C13_9 1_555 1_555
H12_9 C14_9 1_555 1_555
C15_9 C14_9 1_555 1_555
C16_9 C15_9 1_555 1_555
H13_9 C16_9 1_555 1_555
C17_9 C16_9 1_555 1_555
H14_9 C17_9 1_555 1_555
C18_9 C15_9 1_555 1_555
H15_9 C18_9 1_555 1_555
N6_3 C13_9 1_555 1_555
C17_9 N6_3 1_555 1_555
C3_9 C2_9 1_555 1_555
C4_9 C3_9 1_555 1_555
H3_9 C4_9 1_555 1_555
C5_9 C4_9 1_555 1_555
H4_9 C5_9 1_555 1_555
C6_9 C3_9 1_555 1_555
H5_9 C6_9 1_555 1_555
H6_9 C7_9 1_555 1_555
C8_9 C7_9 1_555 1_555
C9_9 C8_9 1_555 1_555
H7_9 C9_9 1_555 1_555
C10_9 C9_9 1_555 1_555
H8_9 C10_9 1_555 1_555
C11_9 H9_9 1_555 1_555
C12_9 C8_9 1_555 1_555
H10_9 C12_9 1_555 1_555
N5_3 C10_9 1_555 1_555
C11_9 C12_9 1_555 1_555
C11_9 N5_3 1_555 1_555
O5_7 Co3_3 1_555 1_555
O5_8 Co3_2 1_555 1_555
O5_9 Co4 1_555 1_555
Mo1_14 O1_7 1_555 1_555
O3_7 Mo1_14 1_555 1_555
O5_3 Mo1_14 1_555 1_555
Mo1_14 O5_9 1_555 1_555
Mo1_15 O1_8 1_555 1_555
O3_8 Mo1_15 1_555 1_555
O5 Mo1_15 1_555 1_555
Mo1_15 O5_8 1_555 1_555
Mo1_16 O1_9 1_555 1_555
O3_9 Mo1_16 1_555 1_555
O5_2 Mo1_16 1_555 1_555
Mo1_16 O5_7 1_555 1_555

#END
