
###############################################################################
#
# This file contains modified crystal structure data generated from the
# MOF subset of the Cambridge Structural Database (CSD) v543 
# hosted by the Cambridge Crystallographic Data Centre (CCDC).
#
# This work is licensed under the Creative Commons
# Attribution-NonCommercial-ShareAlike 4.0 International License.
# To view a copy of this license, visit
# http://creativecommons.org/licenses/by-nc-sa/4.0/
# or send a letter to
# Creative Commons, PO Box 1866, Mountain View, CA 94042, USA.
#
# CIF created using the CSD Python API on 29 September 2022
# The structure has been converted into the P1 space group
# The structure has a 3D framework
# The original CSD entry YEZKUL is in the rhombohedral crystal system
# The original CSD entry YEZKUL is in a Sohncke space group
# The framework has been calculated to contain at least 10.0% void space
# The void calculation uses a probe of radius 1.32A, grid spacing 0.4
#
###############################################################################

data_YEZKUL
_chemical_formula_moiety         '(C216 H180 Mo16 N36 Ni11 O36)n'
_symmetry_cell_setting           triclinic
_symmetry_space_group_name_H-M   'P 1'
_symmetry_Int_Tables_number      1
_space_group_name_Hall           'P 1'
loop_
_symmetry_equiv_pos_site_id
_symmetry_equiv_pos_as_xyz
1 x,y,z
_cell_length_a                   21.0856(9)
_cell_length_b                   21.0856(9)
_cell_length_c                   17.9678(8)
_cell_angle_alpha                90
_cell_angle_beta                 90
_cell_angle_gamma                120
_cell_volume                     6918.27
loop_
_atom_site_label
_atom_site_type_symbol
_atom_site_fract_x
_atom_site_fract_y
_atom_site_fract_z
Mo1 Mo 0.791668(9) 0.0000 0.0000
Ni1 Ni 0.712629(16) 0.045962(16) 0.1667
O2 O 0.74924(9) 0.01283(9) 0.07876(8)
H17 H 0.4526 0.0002 0.1367
C22 C 0.55683(12) 0.01949(12) 0.14399(13)
H18 H 0.5716 0.0574 0.1799
N3 N 0.60643(10) 0.00168(9) 0.12055(9)
N5 N 0.75205(11) 0.14878(10) 0.11519(11)
N6 N 0.81544(10) 0.08539(11) 0.21815(11)
O5 O 0.67950(9) 0.08257(9) 0.25457(8)
Mo1_2 Mo 0.791668(9) -0.0000 1.0000
O1 O 0.87773(10) 0.07732(12) 0.98560(14)
C1 C 0.38697(13) 0.52344(13) 0.45564(15)
H1 H 0.3442 0.5055 0.4856
C2 C 0.41319(16) 0.59053(15) 0.42178(18)
H2 H 0.3889 0.6178 0.4291
C3 C 0.47551(16) 0.61850(16) 0.37670(18)
C4 C 0.50853(17) 0.57537(15) 0.36946(19)
H3 H 0.5514 0.5920 0.3401
C5 C 0.47837(14) 0.50878(14) 0.40517(14)
H4 H 0.5011 0.4801 0.3987
C6 C 0.50617(17) 0.69154(16) 0.3439(2)
H5 H 0.4844 0.7199 0.3573
C7 C 0.56225(15) 0.72102(13) 0.29682(17)
H6 H 0.5819 0.6914 0.2810
C8 C 0.59611(12) 0.79576(12) 0.26739(13)
C9 C 0.65224(13) 0.81898(12) 0.21474(15)
H7 H 0.6669 0.7859 0.1966
C10 C 0.68616(12) 0.89016(12) 0.18934(13)
H8 H 0.7241 0.9049 0.1534
C11 C 0.61371(11) 0.91762(12) 0.26325(12)
H9 H 0.6004 0.9520 0.2805
C12 C 0.57644(13) 0.84690(13) 0.29064(13)
H10 H 0.5376 0.8331 0.3252
Mo1_3 Mo 0.791668(9) 1.0000 0.0000
N1 N 0.66835(9) 0.93976(10) 0.21278(9)
N2 N 0.41872(11) 0.48211(10) 0.44852(11)
O3 O 0.80041(16) 0.92268(12) 0.01440(14)
C19 C 0.38769(13) 0.89558(15) 0.03651(17)
H16 H 0.3581 0.9152 0.0523
C20 C 0.46243(12) 0.92944(12) 0.06594(13)
C21 C 0.48565(12) 0.98557(13) 0.11859(15)
C23 C 0.58429(12) 0.94704(11) 0.07008(12)
H19 H 0.6187 0.9337 0.0528
C24 C 0.51357(13) 0.90977(13) 0.04269(13)
H20 H 0.4998 0.8709 0.0081
Ni4 Ni 0.379296(16) 0.379295(16) 0.5000
Mo1_4 Mo 0.791668(9) 1.0000 1.0000
O4 O 0.73641(13) 0.98717(9) 0.92124(8)
C13 C 0.19011(13) 0.72030(13) 0.87769(15)
H11 H 0.1722 0.6775 0.8477
C14 C 0.25720(15) 0.74652(16) 0.91155(18)
H12 H 0.2845 0.7222 0.9042
C15 C 0.28517(16) 0.80884(16) 0.95663(18)
C16 C 0.24204(15) 0.84186(17) 0.96387(19)
H13 H 0.2587 0.8847 0.9932
C17 C 0.17545(14) 0.81170(14) 0.92816(14)
H14 H 0.1468 0.8344 0.9346
C18 C 0.35821(16) 0.83950(17) 0.9894(2)
H15 H 0.3866 0.8177 0.9760
N4 N 0.14878(10) 0.75205(11) 0.88481(11)
Ni2 Ni 0.666667(23) 0.954038(16) 0.8333
Ni3 Ni 0.045962(16) 0.712629(16) 0.8333
H4_2 H 0.5199 0.0210 0.3987
Ni4_2 Ni 0.620705(16) 0.000000(23) 0.5000
C1_2 C 0.47656(13) 0.86353(18) 0.45564(15)
H1_2 H 0.4945 0.8387 0.4856
C2_2 C 0.40947(15) 0.82266(22) 0.42178(18)
H2_2 H 0.3822 0.7711 0.4291
C3_2 C 0.38150(16) 0.85701(23) 0.37670(18)
C4_2 C 0.42463(15) 0.93316(23) 0.36946(19)
H3_2 H 0.4080 0.9594 0.3401
C5_2 C 0.49122(14) 0.96959(20) 0.40517(14)
C6_2 C 0.30846(16) 0.81463(23) 0.3439(2)
H5_2 H 0.2801 0.7645 0.3573
C7_2 C 0.27898(13) 0.84123(20) 0.29682(17)
H6_2 H 0.3086 0.8905 0.2810
C8_2 C 0.20424(12) 0.80035(17) 0.26739(13)
C9_2 C 0.18102(12) 0.83326(18) 0.21474(15)
H7_2 H 0.2141 0.8810 0.1966
C10_2 C 0.10984(12) 0.79600(17) 0.18934(13)
H8_2 H 0.0951 0.8192 0.1534
C11_2 C 0.08238(12) 0.69609(16) 0.26325(12)
H9_2 H 0.0480 0.6484 0.2805
C12_2 C 0.15310(13) 0.72954(18) 0.29064(13)
H10_2 H 0.1669 0.7045 0.3252
Mo1_5 Mo 0.0000 0.791668(9) 0.0000
N1_2 N 0.06024(10) 0.72859(13) 0.21278(9)
N2_2 N 0.51789(10) 0.93661(15) 0.44852(11)
O3_2 O 0.07732(12) 0.87773(20) 0.01440(14)
C19_2 C 0.10442(15) 0.49210(20) 0.03651(17)
H16_2 H 0.0848 0.4428 0.0523
C20_2 C 0.07056(12) 0.53298(17) 0.06594(13)
C21_2 C 0.01443(13) 0.50007(18) 0.11859(15)
C23_2 C 0.05296(11) 0.63724(16) 0.07008(12)
H19_2 H 0.0663 0.6849 0.0528
C24_2 C 0.09023(13) 0.60379(18) 0.04269(13)
H20_2 H 0.1291 0.6288 0.0081
Ni4_3 Ni 0.620705(16) 1.000000(23) 0.5000
Mo1_6 Mo 0.0000 0.791668(9) 1.0000
O4_2 O 0.01283(9) 0.74924(16) 0.92124(8)
C13_2 C 0.27970(13) 0.46980(18) 0.87769(15)
H11_2 H 0.3225 0.4946 0.8477
C14_2 C 0.25348(16) 0.51067(22) 0.91155(18)
H12_2 H 0.2778 0.5622 0.9042
C15_2 C 0.19116(16) 0.47632(23) 0.95663(18)
C16_2 C 0.15814(17) 0.40017(23) 0.96387(19)
H13_2 H 0.1153 0.3739 0.9932
C17_2 C 0.18830(14) 0.36374(20) 0.92816(14)
H14_2 H 0.1656 0.3123 0.9346
C18_2 C 0.16050(17) 0.51870(23) 0.9894(2)
H15_2 H 0.1823 0.5688 0.9760
N4_2 N 0.24795(11) 0.39672(15) 0.88481(11)
Ni3_2 Ni 0.287371(16) 0.333333(23) 0.8333
Mo1_7 Mo 1.0000 0.791668(9) 0.0000
Ni1_2 Ni 0.954038(16) 0.666667(23) 0.1667
O2_2 O 0.98717(9) 0.73641(13) 0.07876(8)
H17_2 H 0.9998 0.4523 0.1367
C22_2 C 0.98051(12) 0.53733(17) 0.14399(13)
H18_2 H 0.9426 0.5141 0.1799
N3_2 N 0.99832(9) 0.60474(13) 0.12055(9)
N5_2 N 0.85122(10) 0.60328(15) 0.11519(11)
N6_2 N 0.91461(11) 0.73006(15) 0.21815(11)
O5_2 O 0.91743(9) 0.59692(13) 0.25457(8)
Mo1_8 Mo 1.0000 0.791668(9) 1.0000
O1_2 O 0.92268(12) 0.80041(16) 0.98560(14)
C1_3 C 0.13647(18) 0.61303(13) 0.45564(15)
H1_3 H 0.1613 0.6558 0.4856
C2_3 C 0.17734(22) 0.58681(16) 0.42178(18)
H2_3 H 0.2289 0.6111 0.4291
C3_3 C 0.14299(23) 0.52449(16) 0.37670(18)
C4_3 C 0.06684(23) 0.49147(17) 0.36946(19)
H3_3 H 0.0406 0.4486 0.3401
C5_3 C 0.03041(20) 0.52163(14) 0.40517(14)
C6_3 C 0.18537(23) 0.49383(17) 0.3439(2)
H5_3 H 0.2355 0.5156 0.3573
C7_3 C 0.15877(20) 0.43775(15) 0.29682(17)
H6_3 H 0.1095 0.4181 0.2810
C8_3 C 0.19965(17) 0.40389(12) 0.26739(13)
C9_3 C 0.16674(18) 0.34776(13) 0.21474(15)
H7_3 H 0.1190 0.3331 0.1966
C10_3 C 0.20400(17) 0.31384(12) 0.18934(13)
H8_3 H 0.1808 0.2759 0.1534
C11_3 C 0.30391(16) 0.38629(11) 0.26325(12)
H9_3 H 0.3516 0.3996 0.2805
C12_3 C 0.27046(18) 0.42356(13) 0.29064(13)
H10_3 H 0.2955 0.4624 0.3252
Mo1_9 Mo 0.208332(9) 0.208332(9) 0.0000
N1_3 N 0.27141(13) 0.33165(9) 0.21278(9)
N2_3 N 0.06339(15) 0.58128(11) 0.44852(11)
Ni1_3 Ni 0.333333(23) 0.287371(16) 0.1667
O2_3 O 0.26359(13) 0.25076(9) 0.07876(8)
O3_3 O 0.12227(20) 0.19959(16) 0.01440(14)
C19_3 C 0.50790(20) 0.61231(13) 0.03651(17)
H16_3 H 0.5572 0.6419 0.0523
C20_3 C 0.46702(17) 0.53757(12) 0.06594(13)
C21_3 C 0.49993(18) 0.51435(12) 0.11859(15)
H17_3 H 0.5477 0.5474 0.1367
C22_3 C 0.46267(17) 0.44317(12) 0.14399(13)
H18_3 H 0.4859 0.4284 0.1799
C23_3 C 0.36276(16) 0.41571(12) 0.07008(12)
H19_3 H 0.3151 0.3813 0.0528
C24_3 C 0.39621(18) 0.48643(13) 0.04269(13)
H20_3 H 0.3712 0.5002 0.0081
N3_3 N 0.39526(13) 0.39357(10) 0.12055(9)
N5_3 N 0.39672(15) 0.24795(11) 0.11519(11)
N6_3 N 0.26994(15) 0.18456(10) 0.21815(11)
Ni4_4 Ni -0.000000(23) 0.620704(16) 0.5000
O5_3 O 0.40308(13) 0.32050(9) 0.25457(8)
Mo1_10 Mo 0.208332(9) 0.208332(9) 1.0000
O1_3 O 0.19959(16) 0.12227(10) 0.98560(14)
O4_3 O 0.25076(16) 0.26359(13) 0.92124(8)
C13_3 C 0.53020(18) 0.80989(13) 0.87769(15)
H11_3 H 0.5054 0.8278 0.8477
C14_3 C 0.48933(22) 0.74280(15) 0.91155(18)
H12_3 H 0.4378 0.7155 0.9042
C15_3 C 0.52368(23) 0.71483(16) 0.95663(18)
C16_3 C 0.59983(23) 0.75796(15) 0.96387(19)
H13_3 H 0.6261 0.7413 0.9932
C17_3 C 0.63626(20) 0.82455(14) 0.92816(14)
H14_3 H 0.6877 0.8532 0.9346
C18_3 C 0.48130(23) 0.64179(16) 0.9894(2)
H15_3 H 0.4312 0.6134 0.9760
N4_3 N 0.60328(15) 0.85122(10) 0.88481(11)
H4_3 H 0.9790 0.4989 0.3987
Ni4_5 Ni 1.000000(23) 0.620704(16) 0.5000
H4_4 H 0.0210 0.5199 0.6013
C13_4 C 0.46980(18) 0.27970(13) 0.12231(15)
H11_4 H 0.4946 0.3225 0.1523
C14_4 C 0.51067(22) 0.25348(16) 0.08845(18)
H12_4 H 0.5622 0.2778 0.0958
C15_4 C 0.47632(23) 0.19116(16) 0.04337(18)
C16_4 C 0.40017(23) 0.15814(17) 0.03613(19)
H13_4 H 0.3739 0.1153 0.0068
C17_4 C 0.36374(20) 0.18830(14) 0.07184(14)
H14_4 H 0.3123 0.1656 0.0654
C18_4 C 0.51870(23) 0.16050(17) 0.0106(2)
H15_4 H 0.5688 0.1823 0.0240
C1_4 C 0.86353(18) 0.47656(13) 0.54436(15)
H1_4 H 0.8387 0.4945 0.5144
C2_4 C 0.82266(22) 0.40947(15) 0.57822(18)
H2_4 H 0.7711 0.3822 0.5709
C3_4 C 0.85701(23) 0.38150(16) 0.62330(18)
C4_4 C 0.93316(23) 0.42463(15) 0.63054(19)
H3_4 H 0.9594 0.4080 0.6599
C5_4 C 0.96959(20) 0.49122(14) 0.59483(14)
C6_4 C 0.81463(23) 0.30846(16) 0.6561(2)
H5_4 H 0.7645 0.2801 0.6427
C7_4 C 0.84123(20) 0.27898(13) 0.70318(17)
H6_4 H 0.8905 0.3086 0.7190
C8_4 C 0.80035(17) 0.20424(12) 0.73261(13)
C9_4 C 0.83326(18) 0.18102(12) 0.78526(15)
H7_4 H 0.8810 0.2141 0.8034
C10_4 C 0.79600(17) 0.10984(12) 0.81066(13)
H8_4 H 0.8192 0.0951 0.8466
C11_4 C 0.69609(16) 0.08238(12) 0.73675(12)
H9_4 H 0.6484 0.0480 0.7195
C12_4 C 0.72954(18) 0.15310(13) 0.70936(13)
H10_4 H 0.7045 0.1669 0.6748
N1_4 N 0.72859(13) 0.06024(10) 0.78722(9)
N2_4 N 0.93661(15) 0.51789(10) 0.55148(11)
C19_4 C 0.49210(20) 0.10442(15) 0.96349(17)
H16_4 H 0.4428 0.0848 0.9477
C20_4 C 0.53298(17) 0.07056(12) 0.93406(13)
C21_4 C 0.50007(18) 0.01443(13) 0.88141(15)
C23_4 C 0.63724(16) 0.05296(11) 0.92992(12)
H19_4 H 0.6849 0.0663 0.9472
C24_4 C 0.60379(18) 0.09023(13) 0.95731(13)
H20_4 H 0.6288 0.1291 0.9919
H17_4 H 0.4523 0.9998 0.8633
C22_4 C 0.53733(17) 0.98051(12) 0.85601(13)
H18_4 H 0.5141 0.9426 0.8201
N3_4 N 0.60474(13) 0.99832(9) 0.87945(9)
N6_4 N 0.73006(15) 0.91461(11) 0.78185(11)
O5_4 O 0.59692(13) 0.91743(9) 0.74543(8)
C13_5 C 0.80989(13) 0.53020(18) 0.12231(15)
H11_5 H 0.8278 0.5054 0.1523
C14_5 C 0.74280(15) 0.48933(22) 0.08845(18)
H12_5 H 0.7155 0.4378 0.0958
C15_5 C 0.71483(16) 0.52368(23) 0.04337(18)
C16_5 C 0.75796(15) 0.59983(23) 0.03613(19)
H13_5 H 0.7413 0.6261 0.0068
C17_5 C 0.82455(14) 0.63626(20) 0.07184(14)
H14_5 H 0.8532 0.6877 0.0654
C18_5 C 0.64179(16) 0.48130(23) 0.0106(2)
H15_5 H 0.6134 0.4312 0.0240
C1_5 C 0.61303(13) 0.13647(18) 0.54436(15)
H1_5 H 0.6558 0.1613 0.5144
C2_5 C 0.58681(16) 0.17734(22) 0.57822(18)
H2_5 H 0.6111 0.2289 0.5709
C3_5 C 0.52449(16) 0.14299(23) 0.62330(18)
C4_5 C 0.49147(17) 0.06684(23) 0.63054(19)
H3_5 H 0.4486 0.0406 0.6599
C5_5 C 0.52163(14) 0.03041(20) 0.59483(14)
C6_5 C 0.49383(17) 0.18537(23) 0.6561(2)
H5_5 H 0.5156 0.2355 0.6427
C7_5 C 0.43775(15) 0.15877(20) 0.70318(17)
H6_5 H 0.4181 0.1095 0.7190
C8_5 C 0.40389(12) 0.19965(17) 0.73261(13)
C9_5 C 0.34776(13) 0.16674(18) 0.78526(15)
H7_5 H 0.3331 0.1190 0.8034
C10_5 C 0.31384(12) 0.20400(17) 0.81066(13)
H8_5 H 0.2759 0.1808 0.8466
C11_5 C 0.38629(11) 0.30391(16) 0.73675(12)
H9_5 H 0.3996 0.3516 0.7195
C12_5 C 0.42356(13) 0.27046(18) 0.70936(13)
H10_5 H 0.4624 0.2955 0.6748
N1_5 N 0.33165(9) 0.27141(13) 0.78722(9)
N2_5 N 0.58128(11) 0.06339(15) 0.55148(11)
C19_5 C 0.61231(13) 0.50790(20) 0.96349(17)
H16_5 H 0.6419 0.5572 0.9477
C20_5 C 0.53757(12) 0.46702(17) 0.93406(13)
C21_5 C 0.51435(12) 0.49993(18) 0.88141(15)
H17_5 H 0.5474 0.5477 0.8633
C22_5 C 0.44317(12) 0.46267(17) 0.85601(13)
H18_5 H 0.4284 0.4859 0.8201
C23_5 C 0.41571(12) 0.36276(16) 0.92992(12)
H19_5 H 0.3813 0.3151 0.9472
C24_5 C 0.48643(13) 0.39621(18) 0.95731(13)
H20_5 H 0.5002 0.3712 0.9919
N3_5 N 0.39357(10) 0.39526(13) 0.87945(9)
N6_5 N 0.18456(10) 0.26994(15) 0.78185(11)
O5_5 O 0.32050(9) 0.40308(13) 0.74543(8)
H4_5 H 0.4989 0.9790 0.6013
H17_6 H 0.0002 0.4526 0.8633
C22_6 C 0.01949(12) 0.55683(12) 0.85601(13)
H18_6 H 0.0574 0.5716 0.8201
N3_6 N 0.00168(9) 0.60643(10) 0.87945(9)
N6_6 N 0.08539(11) 0.81544(10) 0.78185(11)
O5_6 O 0.08257(9) 0.67950(9) 0.74543(8)
C13_6 C 0.72030(13) 0.19011(13) 0.12231(15)
H11_6 H 0.6775 0.1722 0.1523
C14_6 C 0.74652(16) 0.25720(15) 0.08845(18)
H12_6 H 0.7222 0.2845 0.0958
C15_6 C 0.80884(16) 0.28517(16) 0.04337(18)
C16_6 C 0.84186(17) 0.24204(15) 0.03613(19)
H13_6 H 0.8847 0.2587 0.0068
C17_6 C 0.81170(14) 0.17545(14) 0.07184(14)
H14_6 H 0.8344 0.1468 0.0654
C18_6 C 0.83950(17) 0.35821(16) 0.0106(2)
H15_6 H 0.8177 0.3866 0.0240
C1_6 C 0.52344(13) 0.38697(13) 0.54436(15)
H1_6 H 0.5055 0.3442 0.5144
C2_6 C 0.59053(15) 0.41319(16) 0.57822(18)
H2_6 H 0.6178 0.3889 0.5709
C3_6 C 0.61850(16) 0.47551(16) 0.62330(18)
C4_6 C 0.57537(15) 0.50853(17) 0.63054(19)
H3_6 H 0.5920 0.5514 0.6599
C5_6 C 0.50878(14) 0.47837(14) 0.59483(14)
H4_6 H 0.4801 0.5011 0.6013
C6_6 C 0.69154(16) 0.50617(17) 0.6561(2)
H5_6 H 0.7199 0.4844 0.6427
C7_6 C 0.72102(13) 0.56225(15) 0.70318(17)
H6_6 H 0.6914 0.5819 0.7190
C8_6 C 0.79576(12) 0.59611(12) 0.73261(13)
C9_6 C 0.81898(12) 0.65224(13) 0.78526(15)
H7_6 H 0.7859 0.6669 0.8034
C10_6 C 0.89016(12) 0.68616(12) 0.81066(13)
H8_6 H 0.9049 0.7241 0.8466
C11_6 C 0.91762(12) 0.61371(11) 0.73675(12)
H9_6 H 0.9520 0.6004 0.7195
C12_6 C 0.84690(13) 0.57644(13) 0.70936(13)
H10_6 H 0.8331 0.5376 0.6748
N1_6 N 0.93976(10) 0.66835(9) 0.78722(9)
N2_6 N 0.48211(10) 0.41872(11) 0.55148(11)
C19_6 C 0.89558(15) 0.38769(13) 0.96349(17)
H16_6 H 0.9152 0.3581 0.9477
C20_6 C 0.92944(12) 0.46243(12) 0.93406(13)
C21_6 C 0.98557(13) 0.48565(12) 0.88141(15)
C23_6 C 0.94704(11) 0.58429(12) 0.92992(12)
H19_6 H 0.9337 0.6187 0.9472
C24_6 C 0.90977(13) 0.51357(13) 0.95731(13)
H20_6 H 0.8709 0.4998 0.9919
C6_7 C 0.17284(17) 0.02487(16) 0.6772(2)
H5_7 H 0.1511 0.0532 0.6906
C7_7 C 0.22892(15) 0.05435(13) 0.63015(17)
H6_7 H 0.2486 0.0247 0.6143
C8_7 C 0.26278(12) 0.12909(12) 0.60072(13)
C9_7 C 0.31891(13) 0.15231(12) 0.54807(15)
H7_7 H 0.3336 0.1192 0.5299
C10_7 C 0.35283(12) 0.22349(12) 0.52267(13)
H8_7 H 0.3908 0.2382 0.4867
C11_7 C 0.28038(11) 0.25095(12) 0.59658(12)
H9_7 H 0.2671 0.2853 0.6138
C12_7 C 0.24311(13) 0.18023(13) 0.62397(13)
H10_7 H 0.2043 0.1664 0.6585
Mo1_11 Mo 0.458335(9) 0.3333 0.3333
N1_7 N 0.33502(9) 0.27309(10) 0.54611(9)
O1_4 O 0.54440(10) 0.41065(12) 0.31893(14)
O2_4 O 0.41591(9) 0.34616(9) 0.41209(8)
O3_4 O 0.46708(16) 0.25601(12) 0.34773(14)
C18_7 C 0.02487(16) 0.17284(17) 0.3228(2)
H15_7 H 0.0532 0.1511 0.3094
C19_7 C 0.05435(13) 0.22892(15) 0.36985(17)
H16_7 H 0.0247 0.2486 0.3857
C20_7 C 0.12909(12) 0.26278(12) 0.39928(13)
C21_7 C 0.15231(12) 0.31891(13) 0.45193(15)
H17_7 H 0.1192 0.3336 0.4701
C22_7 C 0.22349(12) 0.35283(12) 0.47733(13)
H18_7 H 0.2382 0.3908 0.5133
C23_7 C 0.25095(12) 0.28038(11) 0.40342(12)
H19_7 H 0.2853 0.2671 0.3862
C24_7 C 0.18023(13) 0.24311(13) 0.37603(13)
H20_7 H 0.1664 0.2043 0.3415
N3_7 N 0.27309(10) 0.33502(9) 0.45389(9)
O5_7 O 0.34616(9) 0.41591(9) 0.58791(8)
C1_7 C 0.05364(13) 0.85677(13) 0.78897(15)
H1_7 H 0.0109 0.8388 0.8189
C2_7 C 0.07986(16) 0.92386(15) 0.75511(18)
H2_7 H 0.0556 0.9511 0.7624
C3_7 C 0.14218(16) 0.95183(16) 0.71003(18)
C4_7 C 0.17520(17) 0.90870(15) 0.70279(19)
H3_7 H 0.2181 0.9253 0.6734
C5_7 C 0.14504(14) 0.84211(14) 0.73850(14)
H4_7 H 0.1678 0.8134 0.7320
C13_7 C 0.85677(13) 0.05364(13) 0.21103(15)
H11_7 H 0.8388 0.0109 0.1811
C14_7 C 0.92386(15) 0.07986(16) 0.24489(18)
H12_7 H 0.9511 0.0556 0.2376
C15_7 C 0.95183(16) 0.14218(16) 0.28997(18)
C16_7 C 0.90870(15) 0.17520(17) 0.29721(19)
H13_7 H 0.9253 0.2181 0.3266
C17_7 C 0.84211(14) 0.14504(14) 0.26150(14)
H14_7 H 0.8134 0.1678 0.2680
C1_8 C 0.14323(13) 0.19686(18) 0.78897(15)
H1_8 H 0.1612 0.1720 0.8189
C2_8 C 0.07614(15) 0.15599(22) 0.75511(18)
H2_8 H 0.0489 0.1044 0.7624
C3_8 C 0.04817(16) 0.19034(23) 0.71003(18)
C4_8 C 0.09130(15) 0.26649(23) 0.70279(19)
H3_8 H 0.0747 0.2927 0.6734
C5_8 C 0.15789(14) 0.30292(20) 0.73850(14)
H4_8 H 0.1866 0.3543 0.7320
C6_8 C 0.97513(16) 0.14796(23) 0.6772(2)
H5_8 H 0.9468 0.0978 0.6906
C7_8 C 0.94565(13) 0.17456(20) 0.63015(17)
H6_8 H 0.9753 0.2238 0.6143
C8_8 C 0.87091(12) 0.13368(17) 0.60072(13)
C9_8 C 0.84769(12) 0.16659(18) 0.54807(15)
H7_8 H 0.8808 0.2143 0.5299
C10_8 C 0.77651(12) 0.12933(17) 0.52267(13)
H8_8 H 0.7618 0.1525 0.4867
C11_8 C 0.74905(12) 0.02942(16) 0.59658(12)
C12_8 C 0.81977(13) 0.06287(18) 0.62397(13)
H10_8 H 0.8336 0.0378 0.6585
Mo1_12 Mo 0.6667 0.125001(9) 0.3333
N1_8 N 0.72691(10) 0.06192(13) 0.54611(9)
O1_5 O 0.58935(12) 0.13374(16) 0.31893(14)
O2_5 O 0.65384(9) 0.06974(13) 0.41209(8)
O3_5 O 0.74399(12) 0.21106(20) 0.34773(14)
H19_8 H 0.7329 0.0183 0.3862
H9_8 H 0.7147 0.9817 0.6138
C13_8 C 0.94636(13) 0.80314(18) 0.21103(15)
H11_8 H 0.9891 0.8280 0.1811
C14_8 C 0.92014(16) 0.84401(22) 0.24489(18)
H12_8 H 0.9444 0.8956 0.2376
C15_8 C 0.85782(16) 0.80966(23) 0.28997(18)
C16_8 C 0.82480(17) 0.73351(23) 0.29721(19)
H13_8 H 0.7819 0.7073 0.3266
C17_8 C 0.85496(14) 0.69708(20) 0.26150(14)
H14_8 H 0.8322 0.6457 0.2680
C18_8 C 0.82716(17) 0.85204(23) 0.3228(2)
H15_8 H 0.8489 0.9022 0.3094
C19_8 C 0.77108(15) 0.82544(20) 0.36985(17)
H16_8 H 0.7514 0.7762 0.3857
C20_8 C 0.73722(12) 0.86632(17) 0.39928(13)
C21_8 C 0.68109(13) 0.83341(18) 0.45193(15)
H17_8 H 0.6664 0.7857 0.4701
C22_8 C 0.64717(12) 0.87067(17) 0.47733(13)
H18_8 H 0.6092 0.8475 0.5133
C23_8 C 0.71962(11) 0.97058(16) 0.40342(12)
C24_8 C 0.75689(13) 0.93713(18) 0.37603(13)
H20_8 H 0.7957 0.9622 0.3415
N3_8 N 0.66498(9) 0.93808(13) 0.45389(9)
O5_8 O 0.58409(9) 0.93026(13) 0.58791(8)
C13_9 C 0.19686(18) 0.14323(13) 0.21103(15)
H11_9 H 0.1720 0.1612 0.1811
C14_9 C 0.15599(22) 0.07614(15) 0.24489(18)
H12_9 H 0.1044 0.0489 0.2376
C15_9 C 0.19034(23) 0.04817(16) 0.28997(18)
C16_9 C 0.26649(23) 0.09130(15) 0.29721(19)
H13_9 H 0.2927 0.0747 0.3266
C17_9 C 0.30292(20) 0.15789(14) 0.26150(14)
H14_9 H 0.3543 0.1866 0.2680
H9_9 H 0.0183 0.7329 0.6138
C18_9 C 0.14796(23) 0.97513(16) 0.3228(2)
H15_9 H 0.0978 0.9468 0.3094
C19_9 C 0.17456(20) 0.94565(13) 0.36985(17)
H16_9 H 0.2238 0.9753 0.3857
C20_9 C 0.13368(17) 0.87091(12) 0.39928(13)
C21_9 C 0.16659(18) 0.84769(12) 0.45193(15)
H17_9 H 0.2143 0.8808 0.4701
C22_9 C 0.12933(17) 0.77651(12) 0.47733(13)
H18_9 H 0.1525 0.7618 0.5133
C23_9 C 0.02942(16) 0.74905(12) 0.40342(12)
C24_9 C 0.06287(18) 0.81977(13) 0.37603(13)
H20_9 H 0.0378 0.8336 0.3415
N3_9 N 0.06192(13) 0.72691(10) 0.45389(9)
O5_9 O 0.06974(13) 0.65384(9) 0.58791(8)
C1_9 C 0.80314(18) 0.94636(13) 0.78897(15)
H1_9 H 0.8280 0.9891 0.8189
C2_9 C 0.84401(22) 0.92014(16) 0.75511(18)
H2_9 H 0.8956 0.9444 0.7624
C3_9 C 0.80966(23) 0.85782(16) 0.71003(18)
C4_9 C 0.73351(23) 0.82480(17) 0.70279(19)
H3_9 H 0.7073 0.7819 0.6734
C5_9 C 0.69708(20) 0.85496(14) 0.73850(14)
H4_9 H 0.6457 0.8322 0.7320
C6_9 C 0.85204(23) 0.82716(17) 0.6772(2)
H5_9 H 0.9022 0.8489 0.6906
C7_9 C 0.82544(20) 0.77108(15) 0.63015(17)
H6_9 H 0.7762 0.7514 0.6143
C8_9 C 0.86632(17) 0.73722(12) 0.60072(13)
C9_9 C 0.83341(18) 0.68109(13) 0.54807(15)
H7_9 H 0.7857 0.6664 0.5299
C10_9 C 0.87067(17) 0.64717(12) 0.52267(13)
H8_9 H 0.8475 0.6092 0.4867
C11_9 C 0.97058(16) 0.71962(11) 0.59658(12)
C12_9 C 0.93713(18) 0.75689(13) 0.62397(13)
H10_9 H 0.9622 0.7957 0.6585
Mo1_13 Mo 0.874999(9) 0.541665(9) 0.3333
N1_9 N 0.93808(13) 0.66498(9) 0.54611(9)
O1_6 O 0.86626(16) 0.45560(10) 0.31893(14)
O2_6 O 0.93026(13) 0.58409(9) 0.41209(8)
O3_6 O 0.78894(20) 0.53292(16) 0.34773(14)
H19_9 H 0.9817 0.7147 0.3862
Mo1_14 Mo 0.125001(9) 0.6667 0.6667
O1_7 O 0.21106(10) 0.74399(12) 0.65227(14)
O3_7 O 0.13374(16) 0.58935(12) 0.68107(14)
Mo1_15 Mo 0.3333 0.458335(9) 0.6667
O1_8 O 0.25601(12) 0.46708(16) 0.65227(14)
O3_8 O 0.41065(12) 0.54440(20) 0.68107(14)
Mo1_16 Mo 0.541665(9) 0.874999(9) 0.6667
O1_9 O 0.53292(16) 0.78894(10) 0.65227(14)
O3_9 O 0.45560(20) 0.86626(16) 0.68107(14)
loop_
_geom_bond_atom_site_label_1
_geom_bond_atom_site_label_2
_geom_bond_site_symmetry_1
_geom_bond_site_symmetry_2
O2 Mo1 1_555 1_555
H18 C22 1_555 1_555
N3 Ni1 1_555 1_555
N5 Ni1 1_555 1_555
N6 Ni1 1_555 1_555
O5 Ni1 1_555 1_555
Ni1 O2 1_555 1_555
C22 N3 1_555 1_555
Mo1_2 O1 1_555 1_555
C1 H1 1_555 1_555
C2 C1 1_555 1_555
H2 C2 1_555 1_555
C3 C2 1_555 1_555
C4 C3 1_555 1_555
H3 C4 1_555 1_555
C5 C4 1_555 1_555
H4 C5 1_555 1_555
C6 C3 1_555 1_555
H5 C6 1_555 1_555
C7 C6 1_555 1_555
H6 C7 1_555 1_555
C8 C7 1_555 1_555
C9 C8 1_555 1_555
H7 C9 1_555 1_555
C10 C9 1_555 1_555
H8 C10 1_555 1_555
C11 H9 1_555 1_555
C12 C8 1_555 1_555
H10 C12 1_555 1_555
N1 C10 1_555 1_555
N2 C1 1_555 1_555
O3 Mo1_3 1_555 1_555
H16 C19 1_555 1_555
C20 C19 1_555 1_555
C21 C20 1_555 1_555
C23 H19 1_555 1_555
C24 C20 1_555 1_555
H20 C24 1_555 1_555
Ni4 N2 1_555 1_555
C5 N2 1_555 1_555
C11 C12 1_555 1_555
C11 N1 1_555 1_555
C23 C24 1_555 1_555
O4 Mo1_4 1_555 1_555
C13 H11 1_555 1_555
C14 C13 1_555 1_555
H12 C14 1_555 1_555
C15 C14 1_555 1_555
C16 C15 1_555 1_555
H13 C16 1_555 1_555
C17 C16 1_555 1_555
H14 C17 1_555 1_555
C18 C15 1_555 1_555
H15 C18 1_555 1_555
N4 C13 1_555 1_555
Ni2 O4 1_555 1_555
Ni3 N4 1_555 1_555
C17 N4 1_555 1_555
C1_2 H1_2 1_555 1_555
C2_2 C1_2 1_555 1_555
H2_2 C2_2 1_555 1_555
C3_2 C2_2 1_555 1_555
C4_2 C3_2 1_555 1_555
H3_2 C4_2 1_555 1_555
C5_2 C4_2 1_555 1_555
C6_2 C3_2 1_555 1_555
H5_2 C6_2 1_555 1_555
C7_2 C6_2 1_555 1_555
H6_2 C7_2 1_555 1_555
C8_2 C7_2 1_555 1_555
C9_2 C8_2 1_555 1_555
H7_2 C9_2 1_555 1_555
C10_2 C9_2 1_555 1_555
H8_2 C10_2 1_555 1_555
C11_2 H9_2 1_555 1_555
C12_2 C8_2 1_555 1_555
H10_2 C12_2 1_555 1_555
N1_2 C10_2 1_555 1_555
N2_2 C1_2 1_555 1_555
O3_2 Mo1_5 1_555 1_555
H16_2 C19_2 1_555 1_555
C20_2 C19_2 1_555 1_555
C21_2 C20_2 1_555 1_555
C23_2 H19_2 1_555 1_555
C24_2 C20_2 1_555 1_555
H20_2 C24_2 1_555 1_555
Ni4_3 N2_2 1_555 1_555
C5_2 N2_2 1_555 1_555
C11_2 C12_2 1_555 1_555
C11_2 N1_2 1_555 1_555
C23_2 C24_2 1_555 1_555
O4_2 Mo1_6 1_555 1_555
C13_2 H11_2 1_555 1_555
C14_2 C13_2 1_555 1_555
H12_2 C14_2 1_555 1_555
C15_2 C14_2 1_555 1_555
C16_2 C15_2 1_555 1_555
H13_2 C16_2 1_555 1_555
C17_2 C16_2 1_555 1_555
H14_2 C17_2 1_555 1_555
C18_2 C15_2 1_555 1_555
H15_2 C18_2 1_555 1_555
N4_2 C13_2 1_555 1_555
Ni3 O4_2 1_555 1_555
Ni3_2 N4_2 1_555 1_555
C17_2 N4_2 1_555 1_555
O2_2 Mo1_7 1_555 1_555
H18_2 C22_2 1_555 1_555
N3_2 Ni1_2 1_555 1_555
N5_2 Ni1_2 1_555 1_555
N6_2 Ni1_2 1_555 1_555
O5_2 Ni1_2 1_555 1_555
Ni1_2 O2_2 1_555 1_555
C22_2 N3_2 1_555 1_555
Mo1_8 O1_2 1_555 1_555
C1_3 H1_3 1_555 1_555
C2_3 C1_3 1_555 1_555
H2_3 C2_3 1_555 1_555
C3_3 C2_3 1_555 1_555
C4_3 C3_3 1_555 1_555
H3_3 C4_3 1_555 1_555
C5_3 C4_3 1_555 1_555
C6_3 C3_3 1_555 1_555
H5_3 C6_3 1_555 1_555
C7_3 C6_3 1_555 1_555
H6_3 C7_3 1_555 1_555
C8_3 C7_3 1_555 1_555
C9_3 C8_3 1_555 1_555
H7_3 C9_3 1_555 1_555
C10_3 C9_3 1_555 1_555
H8_3 C10_3 1_555 1_555
C11_3 H9_3 1_555 1_555
C12_3 C8_3 1_555 1_555
H10_3 C12_3 1_555 1_555
N1_3 C10_3 1_555 1_555
N2_3 C1_3 1_555 1_555
Ni1_3 N1_3 1_555 1_555
O2_3 Mo1_9 1_555 1_555
O3_3 Mo1_9 1_555 1_555
H16_3 C19_3 1_555 1_555
C20_3 C19_3 1_555 1_555
C21_3 C20_3 1_555 1_555
H17_3 C21_3 1_555 1_555
C22_3 C21_3 1_555 1_555
H18_3 C22_3 1_555 1_555
C23_3 H19_3 1_555 1_555
C24_3 C20_3 1_555 1_555
H20_3 C24_3 1_555 1_555
N3_3 Ni1_3 1_555 1_555
N5_3 Ni1_3 1_555 1_555
N6_3 Ni1_3 1_555 1_555
Ni4_4 N2_3 1_555 1_555
O5_3 Ni1_3 1_555 1_555
C5_3 N2_3 1_555 1_555
C11_3 C12_3 1_555 1_555
C11_3 N1_3 1_555 1_555
Ni1_3 O2_3 1_555 1_555
C22_3 N3_3 1_555 1_555
C23_3 C24_3 1_555 1_555
C23_3 N3_3 1_555 1_555
Mo1_10 O1_3 1_555 1_555
O4_3 Mo1_10 1_555 1_555
C13_3 H11_3 1_555 1_555
C14_3 C13_3 1_555 1_555
H12_3 C14_3 1_555 1_555
C15_3 C14_3 1_555 1_555
C16_3 C15_3 1_555 1_555
H13_3 C16_3 1_555 1_555
C17_3 C16_3 1_555 1_555
H14_3 C17_3 1_555 1_555
C18_3 C15_3 1_555 1_555
H15_3 C18_3 1_555 1_555
N4_3 C13_3 1_555 1_555
Ni3_2 O4_3 1_555 1_555
Ni2 N4_3 1_555 1_555
C17_3 N4_3 1_555 1_555
C13_4 H11_4 1_555 1_555
C14_4 C13_4 1_555 1_555
H12_4 C14_4 1_555 1_555
C15_4 C14_4 1_555 1_555
C16_4 C15_4 1_555 1_555
H13_4 C16_4 1_555 1_555
C17_4 C16_4 1_555 1_555
H14_4 C17_4 1_555 1_555
C18_4 C15_4 1_555 1_555
H15_4 C18_4 1_555 1_555
N5_3 C13_4 1_555 1_555
C17_4 N5_3 1_555 1_555
C1_4 H1_4 1_555 1_555
C2_4 C1_4 1_555 1_555
H2_4 C2_4 1_555 1_555
C3_4 C2_4 1_555 1_555
C4_4 C3_4 1_555 1_555
H3_4 C4_4 1_555 1_555
C5_4 C4_4 1_555 1_555
C6_4 C3_4 1_555 1_555
H5_4 C6_4 1_555 1_555
C7_4 C6_4 1_555 1_555
H6_4 C7_4 1_555 1_555
C8_4 C7_4 1_555 1_555
C9_4 C8_4 1_555 1_555
H7_4 C9_4 1_555 1_555
C10_4 C9_4 1_555 1_555
H8_4 C10_4 1_555 1_555
C11_4 H9_4 1_555 1_555
C12_4 C8_4 1_555 1_555
H10_4 C12_4 1_555 1_555
N1_4 C10_4 1_555 1_555
N2_4 C1_4 1_555 1_555
H16_4 C19_4 1_555 1_555
C20_4 C19_4 1_555 1_555
C21_4 C20_4 1_555 1_555
C23_4 H19_4 1_555 1_555
C24_4 C20_4 1_555 1_555
H20_4 C24_4 1_555 1_555
Ni4_5 N2_4 1_555 1_555
C5_4 N2_4 1_555 1_555
C11_4 C12_4 1_555 1_555
C11_4 N1_4 1_555 1_555
C23_4 C24_4 1_555 1_555
H18_4 C22_4 1_555 1_555
N3_4 Ni2 1_555 1_555
N6_4 Ni2 1_555 1_555
O5_4 Ni2 1_555 1_555
C22_4 N3_4 1_555 1_555
C13_5 H11_5 1_555 1_555
C14_5 C13_5 1_555 1_555
H12_5 C14_5 1_555 1_555
C15_5 C14_5 1_555 1_555
C16_5 C15_5 1_555 1_555
H13_5 C16_5 1_555 1_555
C17_5 C16_5 1_555 1_555
H14_5 C17_5 1_555 1_555
C18_5 C15_5 1_555 1_555
H15_5 C18_5 1_555 1_555
N5_2 C13_5 1_555 1_555
C17_5 N5_2 1_555 1_555
C1_5 H1_5 1_555 1_555
C2_5 C1_5 1_555 1_555
H2_5 C2_5 1_555 1_555
C3_5 C2_5 1_555 1_555
C4_5 C3_5 1_555 1_555
H3_5 C4_5 1_555 1_555
C5_5 C4_5 1_555 1_555
C6_5 C3_5 1_555 1_555
H5_5 C6_5 1_555 1_555
C7_5 C6_5 1_555 1_555
H6_5 C7_5 1_555 1_555
C8_5 C7_5 1_555 1_555
C9_5 C8_5 1_555 1_555
H7_5 C9_5 1_555 1_555
C10_5 C9_5 1_555 1_555
H8_5 C10_5 1_555 1_555
C11_5 H9_5 1_555 1_555
C12_5 C8_5 1_555 1_555
H10_5 C12_5 1_555 1_555
N1_5 C10_5 1_555 1_555
N2_5 C1_5 1_555 1_555
Ni3_2 N1_5 1_555 1_555
H16_5 C19_5 1_555 1_555
C20_5 C19_5 1_555 1_555
C21_5 C20_5 1_555 1_555
H17_5 C21_5 1_555 1_555
C22_5 C21_5 1_555 1_555
H18_5 C22_5 1_555 1_555
C23_5 H19_5 1_555 1_555
C24_5 C20_5 1_555 1_555
H20_5 C24_5 1_555 1_555
N3_5 Ni3_2 1_555 1_555
N6_5 Ni3_2 1_555 1_555
Ni4_2 N2_5 1_555 1_555
O5_5 Ni3_2 1_555 1_555
C5_5 N2_5 1_555 1_555
C11_5 C12_5 1_555 1_555
C11_5 N1_5 1_555 1_555
C22_5 N3_5 1_555 1_555
C23_5 C24_5 1_555 1_555
C23_5 N3_5 1_555 1_555
H18_6 C22_6 1_555 1_555
N3_6 Ni3 1_555 1_555
N6_6 Ni3 1_555 1_555
O5_6 Ni3 1_555 1_555
C22_6 N3_6 1_555 1_555
C13_6 H11_6 1_555 1_555
C14_6 C13_6 1_555 1_555
H12_6 C14_6 1_555 1_555
C15_6 C14_6 1_555 1_555
C16_6 C15_6 1_555 1_555
H13_6 C16_6 1_555 1_555
C17_6 C16_6 1_555 1_555
H14_6 C17_6 1_555 1_555
C18_6 C15_6 1_555 1_555
H15_6 C18_6 1_555 1_555
N5 C13_6 1_555 1_555
C17_6 N5 1_555 1_555
C1_6 H1_6 1_555 1_555
C2_6 C1_6 1_555 1_555
H2_6 C2_6 1_555 1_555
C3_6 C2_6 1_555 1_555
C4_6 C3_6 1_555 1_555
H3_6 C4_6 1_555 1_555
C5_6 C4_6 1_555 1_555
H4_6 C5_6 1_555 1_555
C6_6 C3_6 1_555 1_555
H5_6 C6_6 1_555 1_555
C7_6 C6_6 1_555 1_555
H6_6 C7_6 1_555 1_555
C8_6 C7_6 1_555 1_555
C9_6 C8_6 1_555 1_555
H7_6 C9_6 1_555 1_555
C10_6 C9_6 1_555 1_555
H8_6 C10_6 1_555 1_555
C11_6 H9_6 1_555 1_555
C12_6 C8_6 1_555 1_555
H10_6 C12_6 1_555 1_555
N1_6 C10_6 1_555 1_555
N2_6 C1_6 1_555 1_555
H16_6 C19_6 1_555 1_555
C20_6 C19_6 1_555 1_555
C21_6 C20_6 1_555 1_555
C23_6 H19_6 1_555 1_555
C24_6 C20_6 1_555 1_555
H20_6 C24_6 1_555 1_555
Ni4 N2_6 1_555 1_555
C5_6 N2_6 1_555 1_555
C11_6 C12_6 1_555 1_555
C11_6 N1_6 1_555 1_555
C23_6 C24_6 1_555 1_555
H5_7 C6_7 1_555 1_555
C7_7 C6_7 1_555 1_555
H6_7 C7_7 1_555 1_555
C8_7 C7_7 1_555 1_555
C9_7 C8_7 1_555 1_555
H7_7 C9_7 1_555 1_555
C10_7 C9_7 1_555 1_555
H8_7 C10_7 1_555 1_555
C11_7 H9_7 1_555 1_555
C12_7 C8_7 1_555 1_555
H10_7 C12_7 1_555 1_555
Mo1_11 O1_4 1_555 1_555
N1_7 C10_7 1_555 1_555
Ni4 N1_7 1_555 1_555
O2_4 Mo1_11 1_555 1_555
O3_4 Mo1_11 1_555 1_555
O5_3 Mo1_11 1_555 1_555
H15_7 C18_7 1_555 1_555
C19_7 C18_7 1_555 1_555
H16_7 C19_7 1_555 1_555
C20_7 C19_7 1_555 1_555
C21_7 C20_7 1_555 1_555
H17_7 C21_7 1_555 1_555
C22_7 C21_7 1_555 1_555
H18_7 C22_7 1_555 1_555
C23_7 H19_7 1_555 1_555
C24_7 C20_7 1_555 1_555
H20_7 C24_7 1_555 1_555
N3_7 Ni4 1_555 1_555
O5_7 Ni4 1_555 1_555
C11_7 C12_7 1_555 1_555
C11_7 N1_7 1_555 1_555
Ni4 O2_4 1_555 1_555
C22_7 N3_7 1_555 1_555
C23_7 C24_7 1_555 1_555
C23_7 N3_7 1_555 1_555
C1_7 H1_7 1_555 1_555
C2_7 C1_7 1_555 1_555
H2_7 C2_7 1_555 1_555
C3_7 C2_7 1_555 1_555
C4_7 C3_7 1_555 1_555
H3_7 C4_7 1_555 1_555
C5_7 C4_7 1_555 1_555
H4_7 C5_7 1_555 1_555
N6_6 C1_7 1_555 1_555
C5_7 N6_6 1_555 1_555
C13_7 H11_7 1_555 1_555
C14_7 C13_7 1_555 1_555
H12_7 C14_7 1_555 1_555
C15_7 C14_7 1_555 1_555
C16_7 C15_7 1_555 1_555
H13_7 C16_7 1_555 1_555
C17_7 C16_7 1_555 1_555
H14_7 C17_7 1_555 1_555
N6 C13_7 1_555 1_555
C17_7 N6 1_555 1_555
C1_8 H1_8 1_555 1_555
C2_8 C1_8 1_555 1_555
H2_8 C2_8 1_555 1_555
C3_8 C2_8 1_555 1_555
C4_8 C3_8 1_555 1_555
H3_8 C4_8 1_555 1_555
C5_8 C4_8 1_555 1_555
H4_8 C5_8 1_555 1_555
N6_5 C1_8 1_555 1_555
C5_8 N6_5 1_555 1_555
H5_8 C6_8 1_555 1_555
C7_8 C6_8 1_555 1_555
H6_8 C7_8 1_555 1_555
C8_8 C7_8 1_555 1_555
C9_8 C8_8 1_555 1_555
H7_8 C9_8 1_555 1_555
C10_8 C9_8 1_555 1_555
H8_8 C10_8 1_555 1_555
C12_8 C8_8 1_555 1_555
H10_8 C12_8 1_555 1_555
Mo1_12 O1_5 1_555 1_555
N1_8 C10_8 1_555 1_555
Ni4_2 N1_8 1_555 1_555
O2_5 Mo1_12 1_555 1_555
O3_5 Mo1_12 1_555 1_555
O5 Mo1_12 1_555 1_555
C11_8 C12_8 1_555 1_555
C11_8 N1_8 1_555 1_555
Ni4_2 O2_5 1_555 1_555
C13_8 H11_8 1_555 1_555
C14_8 C13_8 1_555 1_555
H12_8 C14_8 1_555 1_555
C15_8 C14_8 1_555 1_555
C16_8 C15_8 1_555 1_555
H13_8 C16_8 1_555 1_555
C17_8 C16_8 1_555 1_555
H14_8 C17_8 1_555 1_555
C18_8 C15_8 1_555 1_555
H15_8 C18_8 1_555 1_555
C19_8 C18_8 1_555 1_555
H16_8 C19_8 1_555 1_555
C20_8 C19_8 1_555 1_555
C21_8 C20_8 1_555 1_555
H17_8 C21_8 1_555 1_555
C22_8 C21_8 1_555 1_555
H18_8 C22_8 1_555 1_555
C24_8 C20_8 1_555 1_555
H20_8 C24_8 1_555 1_555
N3_8 Ni4_3 1_555 1_555
N6_2 C13_8 1_555 1_555
O5_8 Ni4_3 1_555 1_555
C17_8 N6_2 1_555 1_555
C22_8 N3_8 1_555 1_555
C23_8 C24_8 1_555 1_555
C23_8 N3_8 1_555 1_555
C13_9 H11_9 1_555 1_555
C14_9 C13_9 1_555 1_555
H12_9 C14_9 1_555 1_555
C15_9 C14_9 1_555 1_555
C16_9 C15_9 1_555 1_555
H13_9 C16_9 1_555 1_555
C17_9 C16_9 1_555 1_555
H14_9 C17_9 1_555 1_555
N6_3 C13_9 1_555 1_555
C17_9 N6_3 1_555 1_555
H15_9 C18_9 1_555 1_555
C19_9 C18_9 1_555 1_555
H16_9 C19_9 1_555 1_555
C20_9 C19_9 1_555 1_555
C21_9 C20_9 1_555 1_555
H17_9 C21_9 1_555 1_555
C22_9 C21_9 1_555 1_555
H18_9 C22_9 1_555 1_555
C24_9 C20_9 1_555 1_555
H20_9 C24_9 1_555 1_555
N3_9 Ni4_4 1_555 1_555
O5_9 Ni4_4 1_555 1_555
C22_9 N3_9 1_555 1_555
C23_9 C24_9 1_555 1_555
C23_9 N3_9 1_555 1_555
C1_9 H1_9 1_555 1_555
C2_9 C1_9 1_555 1_555
H2_9 C2_9 1_555 1_555
C3_9 C2_9 1_555 1_555
C4_9 C3_9 1_555 1_555
H3_9 C4_9 1_555 1_555
C5_9 C4_9 1_555 1_555
H4_9 C5_9 1_555 1_555
C6_9 C3_9 1_555 1_555
H5_9 C6_9 1_555 1_555
C7_9 C6_9 1_555 1_555
H6_9 C7_9 1_555 1_555
C8_9 C7_9 1_555 1_555
C9_9 C8_9 1_555 1_555
H7_9 C9_9 1_555 1_555
C10_9 C9_9 1_555 1_555
H8_9 C10_9 1_555 1_555
C12_9 C8_9 1_555 1_555
H10_9 C12_9 1_555 1_555
Mo1_13 O1_6 1_555 1_555
N1_9 C10_9 1_555 1_555
N6_4 C1_9 1_555 1_555
Ni4_5 N1_9 1_555 1_555
O2_6 Mo1_13 1_555 1_555
O3_6 Mo1_13 1_555 1_555
O5_2 Mo1_13 1_555 1_555
C5_9 N6_4 1_555 1_555
C11_9 C12_9 1_555 1_555
C11_9 N1_9 1_555 1_555
Ni4_5 O2_6 1_555 1_555
Mo1_14 O1_7 1_555 1_555
O5_6 Mo1_14 1_555 1_555
O3_7 Mo1_14 1_555 1_555
O5_9 Mo1_14 1_555 1_555
Mo1_15 O1_8 1_555 1_555
O5_5 Mo1_15 1_555 1_555
O3_8 Mo1_15 1_555 1_555
O5_7 Mo1_15 1_555 1_555
Mo1_16 O1_9 1_555 1_555
O5_4 Mo1_16 1_555 1_555
O3_9 Mo1_16 1_555 1_555
O5_8 Mo1_16 1_555 1_555

#END
