
###############################################################################
#
# This file contains modified crystal structure data generated from the
# MOF subset of the Cambridge Structural Database (CSD) v543 
# hosted by the Cambridge Crystallographic Data Centre (CCDC).
#
# This work is licensed under the Creative Commons
# Attribution-NonCommercial-ShareAlike 4.0 International License.
# To view a copy of this license, visit
# http://creativecommons.org/licenses/by-nc-sa/4.0/
# or send a letter to
# Creative Commons, PO Box 1866, Mountain View, CA 94042, USA.
#
# CIF created using the CSD Python API on 29 September 2022
# The structure has been converted into the P1 space group
# The structure has a 3D framework
# The original CSD entry YEZKEV is in the rhombohedral crystal system
# The original CSD entry YEZKEV is in a Sohncke space group
# The framework has been calculated to contain at least 10.0% void space
# The void calculation uses a probe of radius 1.32A, grid spacing 0.4
#
###############################################################################

data_YEZKEV
_chemical_formula_moiety         '(C216 H180 Co16 Cr11 N36 O36)n'
_symmetry_cell_setting           triclinic
_symmetry_space_group_name_H-M   'P 1'
_symmetry_Int_Tables_number      1
_space_group_name_Hall           'P 1'
loop_
_symmetry_equiv_pos_site_id
_symmetry_equiv_pos_as_xyz
1 x,y,z
_cell_length_a                   21.4198(8)
_cell_length_b                   21.4198(8)
_cell_length_c                   17.4178(8)
_cell_angle_alpha                90
_cell_angle_beta                 90
_cell_angle_gamma                120
_cell_volume                     6920.78
loop_
_atom_site_label
_atom_site_type_symbol
_atom_site_fract_x
_atom_site_fract_y
_atom_site_fract_z
Co3 Co 0.38193(4) 0.0000 0.0000
H18 H 0.4937 0.0139 0.8840
Co3_2 Co 0.38193(4) 0.0000 1.0000
Co3_3 Co 0.38193(4) 1.0000 0.0000
Co1 Co 0.71526(4) 0.6667 0.6667
Cr1 Cr 0.6667 0.54637(5) 0.8333
O1 O 0.68300(19) 0.59876(19) 0.75858(14)
N1 N 0.1530(2) 0.3984(2) 0.38708(19)
O2 O 0.5974(2) 0.4679(2) 0.8156(3)
N2 N 0.60647(19) 0.6035(2) 0.62040(16)
C1 C 0.3894(3) 0.4945(3) 0.5406(3)
H1 H 0.3594 0.4484 0.5612
C2 C 0.2423(3) 0.4043(3) 0.4721(3)
H2 H 0.2563 0.3801 0.5068
C3 C 0.2613(3) 0.5082(4) 0.4070(3)
H3 H 0.2883 0.5580 0.3973
C4 C 0.2884(3) 0.4766(3) 0.4564(3)
C5 C 0.4879(3) 0.5010(3) 0.6205(2)
H4 H 0.4565 0.4544 0.6391
C6 C 0.5588(2) 0.5385(3) 0.6446(2)
H5 H 0.5741 0.5162 0.6806
C7 C 0.1957(3) 0.4677(3) 0.3724(3)
H6 H 0.1803 0.4901 0.3367
C8 C 0.4633(3) 0.5332(3) 0.5683(2)
C9 C 0.3604(3) 0.5175(3) 0.4897(3)
H7 H 0.3890 0.5654 0.4730
C10 C 0.1766(3) 0.3683(3) 0.4372(3)
H8 H 0.1464 0.3194 0.4493
C11 C 0.5135(3) 0.6041(3) 0.5440(3)
H9 H 0.4992 0.6291 0.5105
C12 C 0.5848(3) 0.6365(3) 0.5705(2)
H10 H 0.6184 0.6827 0.5528
O3 O 0.75091(27) 0.73457(19) 0.57475(14)
N3 N 0.4213(3) 0.9349(2) 0.94625(19)
N4 N 0.66964(28) 0.7298(2) 0.71293(16)
C13 C 0.5616(4) 0.8388(3) 0.7927(3)
H11 H 0.5777 0.8849 0.7721
C14 C 0.5047(4) 0.9290(3) 0.8612(3)
H12 H 0.5429 0.9532 0.8265
C15 C 0.4198(5) 0.8251(4) 0.9263(3)
H13 H 0.3970 0.7753 0.9360
C16 C 0.4785(4) 0.8567(3) 0.8769(3)
C17 C 0.6536(4) 0.8323(3) 0.7128(2)
H14 H 0.6688 0.8789 0.6942
C18 C 0.6870(4) 0.7948(3) 0.6887(2)
H15 H 0.7246 0.8171 0.6527
C19 C 0.3947(4) 0.8656(3) 0.9609(3)
H16 H 0.3569 0.8432 0.9966
C20 C 0.5968(4) 0.8001(3) 0.7650(2)
C21 C 0.5096(4) 0.8158(3) 0.8436(3)
H17 H 0.4903 0.7679 0.8603
C22 C 0.4750(4) 0.9650(3) 0.8961(3)
C23 C 0.5761(4) 0.7292(3) 0.7893(3)
H19 H 0.5368 0.7042 0.8228
C24 C 0.6150(4) 0.6968(3) 0.7628(2)
H20 H 0.6024 0.6506 0.7805
O4 O 0.7359(2) 0.5372(3) 0.8511(3)
Co2 Co 0.04856(4) 0.3333 0.3333
Co3_4 Co 0.38193(4) 1.0000 1.0000
Cr2 Cr 0.78700(5) 0.78696(5) 0.5000
O5 O 0.65033(19) 0.58243(27) 0.90809(14)
N5 N 0.7546(3) 0.6016(2) 0.61292(19)
N6 N 0.8197(2) 0.7317(2) 0.72041(19)
Co1_2 Co 0.3333 0.04856(4) 0.6667
Cr1_2 Cr 0.45363(5) 0.12033(5) 0.8333
O1_2 O 0.40124(19) 0.08424(27) 0.75858(14)
O2_2 O 0.5321(2) 0.1295(3) 0.8156(3)
N2_2 N 0.3965(2) 0.00297(28) 0.62040(16)
H4_2 H 0.5456 0.0021 0.6391
C6_2 C 0.4615(3) 0.0203(4) 0.6446(2)
H5_2 H 0.4838 0.0579 0.6806
O3_2 O 0.26543(19) 0.01633(33) 0.57475(14)
O4_2 O 0.4628(3) 0.1988(4) 0.8511(3)
Cr2_2 Cr 0.21304(5) 0.00003(7) 0.5000
O5_2 O 0.41757(27) 0.06791(33) 0.90809(14)
N5_2 N 0.3984(2) 0.1530(4) 0.61292(19)
N6_2 N 0.2683(2) 0.0879(3) 0.72041(19)
Co3_5 Co -0.0000 0.38189(4) 0.0000
N1_2 N 0.6016(2) 0.7546(3) 0.38708(19)
C1_2 C 0.5055(3) 0.8949(4) 0.5406(3)
H1_2 H 0.5516 0.9110 0.5612
C2_2 C 0.5957(3) 0.8380(4) 0.4721(3)
H2_2 H 0.6199 0.8762 0.5068
C3_2 C 0.4918(4) 0.7531(5) 0.4070(3)
H3_2 H 0.4420 0.7303 0.3973
C4_2 C 0.5234(3) 0.8118(4) 0.4564(3)
C5_2 C 0.4990(3) 0.9869(4) 0.6205(2)
C7_2 C 0.5323(3) 0.7280(4) 0.3724(3)
H6_2 H 0.5099 0.6902 0.3367
C8_2 C 0.4668(3) 0.9301(4) 0.5683(2)
C9_2 C 0.4825(3) 0.8429(4) 0.4897(3)
H7_2 H 0.4346 0.8236 0.4730
C10_2 C 0.6317(3) 0.8083(4) 0.4372(3)
H8_2 H 0.6806 0.8270 0.4493
C11_2 C 0.3959(3) 0.9094(4) 0.5440(3)
H9_2 H 0.3709 0.8701 0.5105
C12_2 C 0.3635(3) 0.9483(4) 0.5705(2)
H10_2 H 0.3173 0.9357 0.5528
N3_2 N 0.0651(2) 0.4863(4) 0.94625(19)
N4_2 N 0.2702(2) 0.93980(34) 0.71293(16)
C13_2 C 0.1612(3) 0.7227(5) 0.7927(3)
H11_2 H 0.1151 0.6927 0.7721
C14_2 C 0.0710(3) 0.5756(5) 0.8612(3)
H12_2 H 0.0468 0.5896 0.8265
C15_2 C 0.1749(4) 0.5946(6) 0.9263(3)
H13_2 H 0.2247 0.6216 0.9360
C16_2 C 0.1433(3) 0.6217(5) 0.8769(3)
C17_2 C 0.1677(3) 0.8212(5) 0.7128(2)
H14_2 H 0.1211 0.7898 0.6942
C18_2 C 0.2052(3) 0.8921(5) 0.6887(2)
H15_2 H 0.1829 0.9074 0.6527
C19_2 C 0.1344(3) 0.5290(5) 0.9609(3)
H16_2 H 0.1568 0.5136 0.9966
C20_2 C 0.1999(3) 0.7966(5) 0.7650(2)
C21_2 C 0.1842(3) 0.6937(5) 0.8436(3)
H17_2 H 0.2321 0.7223 0.8603
C22_2 C 0.0350(3) 0.5099(5) 0.8961(3)
C23_2 C 0.2708(3) 0.8468(5) 0.7893(3)
H19_2 H 0.2958 0.8325 0.8228
C24_2 C 0.3032(3) 0.9181(5) 0.7628(2)
H20_2 H 0.3494 0.9517 0.7805
Co2_2 Co 0.6667 0.71526(4) 0.3333
Co3_6 Co -0.0000 0.38189(4) 1.0000
Cr2_3 Cr 0.21304(5) 1.00003(7) 0.5000
Co3_7 Co 1.0000 0.38189(4) 0.0000
H18_2 H 0.9861 0.4797 0.8840
Co3_8 Co 1.0000 0.38189(4) 1.0000
Co3_9 Co 0.61811(4) 0.61807(4) 0.0000
N1_3 N 0.2454(3) 0.8470(2) 0.38708(19)
C1_3 C 0.1051(4) 0.6106(3) 0.5406(3)
H1_3 H 0.0890 0.6406 0.5612
C2_3 C 0.1620(4) 0.7577(3) 0.4721(3)
H2_3 H 0.1238 0.7437 0.5068
C3_3 C 0.2469(5) 0.7387(3) 0.4070(3)
H3_3 H 0.2697 0.7117 0.3973
C4_3 C 0.1882(4) 0.7116(3) 0.4564(3)
C5_3 C 0.0131(4) 0.5121(3) 0.6205(2)
C7_3 C 0.2720(4) 0.8043(3) 0.3724(3)
H6_3 H 0.3098 0.8197 0.3367
C8_3 C 0.0699(4) 0.5367(3) 0.5683(2)
C9_3 C 0.1571(4) 0.6396(3) 0.4897(3)
H7_3 H 0.1764 0.6110 0.4730
C10_3 C 0.1917(4) 0.8234(3) 0.4372(3)
H8_3 H 0.1730 0.8536 0.4493
C11_3 C 0.0906(4) 0.4865(3) 0.5440(3)
H9_3 H 0.1299 0.5008 0.5105
C12_3 C 0.0517(4) 0.4152(3) 0.5705(2)
H10_3 H 0.0643 0.3816 0.5528
N3_3 N 0.5137(4) 0.5787(3) 0.94625(19)
N4_3 N 0.06020(34) 0.33036(28) 0.71293(16)
C13_3 C 0.2773(5) 0.4384(4) 0.7927(3)
H11_3 H 0.3073 0.4223 0.7721
C14_3 C 0.4244(5) 0.4953(4) 0.8612(3)
H12_3 H 0.4104 0.4571 0.8265
C15_3 C 0.4054(6) 0.5802(5) 0.9263(3)
H13_3 H 0.3784 0.6030 0.9360
C16_3 C 0.3783(5) 0.5215(4) 0.8769(3)
C17_3 C 0.1788(5) 0.3464(4) 0.7128(2)
H14_3 H 0.2102 0.3312 0.6942
C18_3 C 0.1079(5) 0.3130(4) 0.6887(2)
H15_3 H 0.0926 0.2754 0.6527
C19_3 C 0.4710(5) 0.6053(4) 0.9609(3)
H16_3 H 0.4864 0.6431 0.9966
C20_3 C 0.2034(5) 0.4032(4) 0.7650(2)
C21_3 C 0.3063(5) 0.4904(4) 0.8436(3)
H17_3 H 0.2777 0.5097 0.8603
C22_3 C 0.4901(5) 0.5250(4) 0.8961(3)
H18_3 H 0.5203 0.5063 0.8840
C23_3 C 0.1532(5) 0.4239(4) 0.7893(3)
H19_3 H 0.1675 0.4632 0.8228
C24_3 C 0.0819(5) 0.3850(4) 0.7628(2)
H20_3 H 0.0483 0.3976 0.7805
Co2_3 Co 0.28474(4) 0.95144(4) 0.3333
Co3_10 Co 0.61811(4) 0.61807(4) 1.0000
Cr2_4 Cr -0.00003(7) 0.21300(5) 0.5000
Co1_3 Co 0.95144(4) 0.28474(4) 0.6667
Cr1_3 Cr 0.87967(5) 0.3333 0.8333
O1_3 O 0.91576(27) 0.31700(19) 0.75858(14)
O2_3 O 0.8705(3) 0.4026(2) 0.8156(3)
N2_3 N 0.99703(28) 0.39353(19) 0.62040(16)
H4_3 H 0.9979 0.5435 0.6391
C6_3 C 0.9797(4) 0.4412(2) 0.6446(2)
H5_3 H 0.9421 0.4259 0.6806
O3_3 O 0.98367(33) 0.24909(27) 0.57475(14)
O4_3 O 0.8012(4) 0.2641(2) 0.8511(3)
Cr2_5 Cr 0.99997(7) 0.21300(5) 0.5000
O5_3 O 0.93209(33) 0.34967(19) 0.90809(14)
N5_3 N 0.8470(4) 0.2454(3) 0.61292(19)
N6_3 N 0.9121(3) 0.1803(2) 0.72041(19)
Cr1_4 Cr 0.12033(5) 0.45363(5) 0.1667
O1_4 O 0.08424(27) 0.40124(19) 0.24142(14)
O2_4 O 0.1295(3) 0.5321(2) 0.1844(3)
N2_4 N 0.00297(28) 0.3965(2) 0.37960(16)
H4_4 H 0.0021 0.5456 0.3609
C6_4 C 0.0203(4) 0.4615(3) 0.3554(2)
H5_4 H 0.0579 0.4838 0.3194
O3_4 O 0.01633(33) 0.26543(19) 0.42525(14)
O4_4 O 0.1988(4) 0.4628(3) 0.1489(3)
O5_4 O 0.06791(33) 0.41757(27) 0.09191(14)
N6_4 N 0.0879(3) 0.2683(2) 0.27959(19)
C1_4 C 0.8949(4) 0.5055(3) 0.4594(3)
H1_4 H 0.9110 0.5516 0.4388
C2_4 C 0.8380(4) 0.5957(3) 0.5279(3)
H2_4 H 0.8762 0.6199 0.4932
C3_4 C 0.7531(5) 0.4918(4) 0.5930(3)
H3_4 H 0.7303 0.4420 0.6027
C4_4 C 0.8118(4) 0.5234(3) 0.5436(3)
C5_4 C 0.9869(4) 0.4990(3) 0.3795(2)
C7_4 C 0.7280(4) 0.5323(3) 0.6276(3)
H6_4 H 0.6902 0.5099 0.6633
C8_4 C 0.9301(4) 0.4668(3) 0.4317(2)
C9_4 C 0.8429(4) 0.4825(3) 0.5103(3)
H7_4 H 0.8236 0.4346 0.5270
C10_4 C 0.8083(4) 0.6317(3) 0.5628(3)
H8_4 H 0.8270 0.6806 0.5507
C11_4 C 0.9094(4) 0.3959(3) 0.4560(3)
H9_4 H 0.8701 0.3709 0.4895
C12_4 C 0.9483(4) 0.3635(3) 0.4295(2)
H10_4 H 0.9357 0.3173 0.4472
N3_4 N 0.4863(4) 0.0651(2) 0.05375(19)
N4_4 N 0.93980(34) 0.2702(2) 0.28707(16)
C13_4 C 0.7227(5) 0.1612(3) 0.2073(3)
H11_4 H 0.6927 0.1151 0.2279
C14_4 C 0.5756(5) 0.0710(3) 0.1388(3)
H12_4 H 0.5896 0.0468 0.1735
C15_4 C 0.5946(6) 0.1749(4) 0.0737(3)
H13_4 H 0.6216 0.2247 0.0640
C16_4 C 0.6217(5) 0.1433(3) 0.1231(3)
C17_4 C 0.8212(5) 0.1677(3) 0.2872(2)
H14_4 H 0.7898 0.1211 0.3058
C18_4 C 0.8921(5) 0.2052(3) 0.3113(2)
H15_4 H 0.9074 0.1829 0.3473
C19_4 C 0.5290(5) 0.1344(3) 0.0391(3)
H16_4 H 0.5136 0.1568 0.0034
C20_4 C 0.7966(5) 0.1999(3) 0.2350(2)
C21_4 C 0.6937(5) 0.1842(3) 0.1564(3)
H17_4 H 0.7223 0.2321 0.1397
C22_4 C 0.5099(5) 0.0350(3) 0.1039(3)
C23_4 C 0.8468(5) 0.2708(3) 0.2107(3)
H19_4 H 0.8325 0.2958 0.1772
C24_4 C 0.9181(5) 0.3032(3) 0.2372(2)
H20_4 H 0.9517 0.3494 0.2195
H18_4 H 0.4797 0.9861 0.1160
C1_5 C 0.6106(3) 0.1051(4) 0.4594(3)
H1_5 H 0.6406 0.0890 0.4388
C2_5 C 0.7577(3) 0.1620(4) 0.5279(3)
H2_5 H 0.7437 0.1238 0.4932
C3_5 C 0.7387(3) 0.2469(5) 0.5930(3)
H3_5 H 0.7117 0.2697 0.6027
C4_5 C 0.7116(3) 0.1882(4) 0.5436(3)
C5_5 C 0.5121(3) 0.0131(4) 0.3795(2)
C7_5 C 0.8043(3) 0.2720(4) 0.6276(3)
H6_5 H 0.8197 0.3098 0.6633
C8_5 C 0.5367(3) 0.0699(4) 0.4317(2)
C9_5 C 0.6396(3) 0.1571(4) 0.5103(3)
H7_5 H 0.6110 0.1764 0.5270
C10_5 C 0.8234(3) 0.1917(4) 0.5628(3)
H8_5 H 0.8536 0.1730 0.5507
C11_5 C 0.4865(3) 0.0906(4) 0.4560(3)
H9_5 H 0.5008 0.1299 0.4895
C12_5 C 0.4152(3) 0.0517(4) 0.4295(2)
H10_5 H 0.3816 0.0643 0.4472
N3_5 N 0.5787(3) 0.5137(4) 0.05375(19)
N4_5 N 0.33036(28) 0.06020(34) 0.28707(16)
C13_5 C 0.4384(4) 0.2773(5) 0.2073(3)
H11_5 H 0.4223 0.3073 0.2279
C14_5 C 0.4953(4) 0.4244(5) 0.1388(3)
H12_5 H 0.4571 0.4104 0.1735
C15_5 C 0.5802(5) 0.4054(6) 0.0737(3)
H13_5 H 0.6030 0.3784 0.0640
C16_5 C 0.5215(4) 0.3783(5) 0.1231(3)
C17_5 C 0.3464(4) 0.1788(5) 0.2872(2)
H14_5 H 0.3312 0.2102 0.3058
C18_5 C 0.3130(4) 0.1079(5) 0.3113(2)
H15_5 H 0.2754 0.0926 0.3473
C19_5 C 0.6053(4) 0.4710(5) 0.0391(3)
H16_5 H 0.6431 0.4864 0.0034
C20_5 C 0.4032(4) 0.2034(5) 0.2350(2)
C21_5 C 0.4904(4) 0.3063(5) 0.1564(3)
H17_5 H 0.5097 0.2777 0.1397
C22_5 C 0.5250(4) 0.4901(5) 0.1039(3)
H18_5 H 0.5063 0.5203 0.1160
C23_5 C 0.4239(4) 0.1532(5) 0.2107(3)
H19_5 H 0.4632 0.1675 0.1772
C24_5 C 0.3850(4) 0.0819(5) 0.2372(2)
H20_5 H 0.3976 0.0483 0.2195
Cr1_5 Cr 0.3333 0.87967(5) 0.1667
O1_5 O 0.31700(19) 0.91576(27) 0.24142(14)
O2_5 O 0.4026(2) 0.8705(3) 0.1844(3)
N2_5 N 0.39353(19) 0.99703(28) 0.37960(16)
H4_5 H 0.5435 0.9979 0.3609
C6_5 C 0.4412(2) 0.9797(4) 0.3554(2)
H5_5 H 0.4259 0.9421 0.3194
O3_5 O 0.24909(27) 0.98367(33) 0.42525(14)
O4_5 O 0.2641(2) 0.8012(4) 0.1489(3)
O5_5 O 0.34967(19) 0.93209(33) 0.09191(14)
N6_5 N 0.1803(2) 0.9121(3) 0.27959(19)
H18_6 H 0.0139 0.4937 0.1160
Cr1_6 Cr 0.54637(5) 0.6667 0.1667
O1_6 O 0.59876(19) 0.68300(19) 0.24142(14)
O2_6 O 0.4679(2) 0.5974(2) 0.1844(3)
N2_6 N 0.6035(2) 0.60647(19) 0.37960(16)
C1_6 C 0.4945(3) 0.3894(3) 0.4594(3)
H1_6 H 0.4484 0.3594 0.4388
C2_6 C 0.4043(3) 0.2423(3) 0.5279(3)
H2_6 H 0.3801 0.2563 0.4932
C3_6 C 0.5082(4) 0.2613(3) 0.5930(3)
H3_6 H 0.5580 0.2883 0.6027
C4_6 C 0.4766(3) 0.2884(3) 0.5436(3)
C5_6 C 0.5010(3) 0.4879(3) 0.3795(2)
H4_6 H 0.4544 0.4565 0.3609
C6_6 C 0.5385(3) 0.5588(2) 0.3554(2)
H5_6 H 0.5162 0.5741 0.3194
C7_6 C 0.4677(3) 0.1957(3) 0.6276(3)
H6_6 H 0.4901 0.1803 0.6633
C8_6 C 0.5332(3) 0.4633(3) 0.4317(2)
C9_6 C 0.5175(3) 0.3604(3) 0.5103(3)
H7_6 H 0.5654 0.3890 0.5270
C10_6 C 0.3683(3) 0.1766(3) 0.5628(3)
H8_6 H 0.3194 0.1464 0.5507
C11_6 C 0.6041(3) 0.5135(3) 0.4560(3)
H9_6 H 0.6291 0.4992 0.4895
C12_6 C 0.6365(3) 0.5848(3) 0.4295(2)
H10_6 H 0.6827 0.6184 0.4472
O3_6 O 0.73457(19) 0.75091(27) 0.42525(14)
N3_6 N 0.9349(2) 0.4213(3) 0.05375(19)
N4_6 N 0.7298(2) 0.66964(28) 0.28707(16)
C13_6 C 0.8388(3) 0.5616(4) 0.2073(3)
H11_6 H 0.8849 0.5777 0.2279
C14_6 C 0.9290(3) 0.5047(4) 0.1388(3)
H12_6 H 0.9532 0.5429 0.1735
C15_6 C 0.8251(4) 0.4198(5) 0.0737(3)
H13_6 H 0.7753 0.3970 0.0640
C16_6 C 0.8567(3) 0.4785(4) 0.1231(3)
C17_6 C 0.8323(3) 0.6536(4) 0.2872(2)
H14_6 H 0.8789 0.6688 0.3058
C18_6 C 0.7948(3) 0.6870(4) 0.3113(2)
H15_6 H 0.8171 0.7246 0.3473
C19_6 C 0.8656(3) 0.3947(4) 0.0391(3)
H16_6 H 0.8432 0.3569 0.0034
C20_6 C 0.8001(3) 0.5968(4) 0.2350(2)
C21_6 C 0.8158(3) 0.5096(4) 0.1564(3)
H17_6 H 0.7679 0.4903 0.1397
C22_6 C 0.9650(3) 0.4750(4) 0.1039(3)
C23_6 C 0.7292(3) 0.5761(4) 0.2107(3)
H19_6 H 0.7042 0.5368 0.1772
C24_6 C 0.6968(3) 0.6150(4) 0.2372(2)
H20_6 H 0.6506 0.6024 0.2195
O4_6 O 0.5372(3) 0.7359(2) 0.1489(3)
O5_6 O 0.58243(27) 0.65033(19) 0.09191(14)
N6_6 N 0.7317(2) 0.8197(2) 0.27959(19)
N4_7 N 0.33630(28) 0.0632(2) 0.04627(16)
C13_7 C 0.2282(4) 0.1722(3) 0.1261(3)
H11_7 H 0.2443 0.2183 0.1055
C14_7 C 0.1713(4) 0.2624(3) 0.1946(3)
H12_7 H 0.2095 0.2866 0.1599
C15_7 C 0.0864(5) 0.1585(4) 0.2597(3)
H13_7 H 0.0636 0.1087 0.2694
C16_7 C 0.1451(4) 0.1901(3) 0.2103(3)
C17_7 C 0.3202(4) 0.1657(3) 0.0462(2)
H14_7 H 0.3354 0.2123 0.0276
C18_7 C 0.3536(4) 0.1282(3) 0.0221(2)
C19_7 C 0.0613(4) 0.1990(3) 0.2943(3)
H16_7 H 0.0235 0.1766 0.3300
C20_7 C 0.2634(4) 0.1335(3) 0.0984(2)
C21_7 C 0.1762(4) 0.1492(3) 0.1770(3)
H17_7 H 0.1569 0.1013 0.1937
C22_7 C 0.1416(4) 0.2984(3) 0.2295(3)
H18_7 H 0.1603 0.3473 0.2174
C23_7 C 0.2427(4) 0.0626(3) 0.1227(3)
H19_7 H 0.2034 0.0376 0.1562
C24_7 C 0.2816(4) 0.0302(3) 0.0962(2)
H10_7 H 0.2851 0.0160 0.8861
H15_7 H 0.3912 0.1505 0.9861
H5_7 H 0.2408 0.8495 0.0139
H20_7 H 0.2690 0.9840 0.1139
N2_7 N 0.27314(19) 0.9368(2) 0.95373(16)
C1_7 C 0.0561(3) 0.8278(3) 0.8739(3)
H1_7 H 0.0261 0.7817 0.8945
C5_7 C 0.1546(3) 0.8343(3) 0.9538(2)
H4_7 H 0.1232 0.7877 0.9724
C6_7 C 0.2255(2) 0.8718(3) 0.9779(2)
C8_7 C 0.1300(3) 0.8665(3) 0.9016(2)
C9_7 C 0.0271(3) 0.8508(3) 0.8230(3)
H7_7 H 0.0557 0.8987 0.8063
C11_7 C 0.1802(3) 0.9374(3) 0.8773(3)
H9_7 H 0.1659 0.9624 0.8438
C12_7 C 0.2515(3) 0.9698(3) 0.9038(2)
C2_7 C 0.9090(3) 0.7376(3) 0.8054(3)
H2_7 H 0.9230 0.7134 0.8401
C3_7 C 0.9280(3) 0.8415(4) 0.7403(3)
H3_7 H 0.9550 0.8913 0.7306
C4_7 C 0.9551(3) 0.8099(3) 0.7897(3)
C7_7 C 0.8624(3) 0.8010(3) 0.7057(3)
H6_7 H 0.8470 0.8234 0.6700
C10_7 C 0.8433(3) 0.7016(3) 0.7705(3)
H8_7 H 0.8131 0.6527 0.7826
H5_8 H 0.1505 0.3912 0.0139
H20_8 H 0.0160 0.2851 0.1139
N2_8 N 0.0632(2) 0.33630(28) 0.95373(16)
C1_8 C 0.1722(3) 0.2282(4) 0.8739(3)
H1_8 H 0.2183 0.2443 0.8945
C2_8 C 0.2624(3) 0.1713(4) 0.8054(3)
H2_8 H 0.2866 0.2095 0.8401
C3_8 C 0.1585(4) 0.0864(5) 0.7403(3)
H3_8 H 0.1087 0.0636 0.7306
C4_8 C 0.1901(3) 0.1451(4) 0.7897(3)
C5_8 C 0.1657(3) 0.3202(4) 0.9538(2)
H4_8 H 0.2123 0.3354 0.9724
C6_8 C 0.1282(3) 0.3536(4) 0.9779(2)
C7_8 C 0.1990(3) 0.0613(4) 0.7057(3)
H6_8 H 0.1766 0.0235 0.6700
C8_8 C 0.1335(3) 0.2634(4) 0.9016(2)
C9_8 C 0.1492(3) 0.1762(4) 0.8230(3)
H7_8 H 0.1013 0.1569 0.8063
C10_8 C 0.2984(3) 0.1416(4) 0.7705(3)
H8_8 H 0.3473 0.1603 0.7826
C11_8 C 0.0626(3) 0.2427(4) 0.8773(3)
H9_8 H 0.0376 0.2034 0.8438
C12_8 C 0.0302(3) 0.2816(4) 0.9038(2)
N4_8 N 0.9368(2) 0.27314(34) 0.04627(16)
C13_8 C 0.8278(3) 0.0561(5) 0.1261(3)
H11_8 H 0.7817 0.0261 0.1055
C17_8 C 0.8343(3) 0.1546(5) 0.0462(2)
H14_8 H 0.7877 0.1232 0.0276
C18_8 C 0.8718(3) 0.2255(5) 0.0221(2)
C20_8 C 0.8665(3) 0.1300(5) 0.0984(2)
C21_8 C 0.8508(3) 0.0271(5) 0.1770(3)
H17_8 H 0.8987 0.0557 0.1937
C23_8 C 0.9374(3) 0.1802(5) 0.1227(3)
H19_8 H 0.9624 0.1659 0.1562
C24_8 C 0.9698(3) 0.2515(5) 0.0962(2)
H10_8 H 0.9840 0.2690 0.8861
H15_8 H 0.8495 0.2408 0.9861
C14_8 C 0.7376(3) 0.9090(5) 0.1946(3)
H12_8 H 0.7134 0.9230 0.1599
C15_8 C 0.8415(4) 0.9280(6) 0.2597(3)
H13_8 H 0.8913 0.9550 0.2694
C16_8 C 0.8099(3) 0.9551(5) 0.2103(3)
C19_8 C 0.8010(3) 0.8624(5) 0.2943(3)
H16_8 H 0.8234 0.8470 0.3300
C22_8 C 0.7016(3) 0.8433(5) 0.2295(3)
H18_8 H 0.6527 0.8131 0.2174
C14_9 C 0.0910(5) 0.8287(4) 0.1946(3)
H12_9 H 0.0770 0.7905 0.1599
C15_9 C 0.0720(6) 0.9136(5) 0.2597(3)
H13_9 H 0.0450 0.9364 0.2694
C16_9 C 0.0449(5) 0.8549(4) 0.2103(3)
C19_9 C 0.1376(5) 0.9387(4) 0.2943(3)
H16_9 H 0.1530 0.9765 0.3300
C22_9 C 0.1567(5) 0.8584(4) 0.2295(3)
H18_9 H 0.1869 0.8397 0.2174
C2_9 C 0.8287(4) 0.0910(3) 0.8054(3)
H2_9 H 0.7905 0.0770 0.8401
C3_9 C 0.9136(5) 0.0720(3) 0.7403(3)
H3_9 H 0.9364 0.0450 0.7306
C4_9 C 0.8549(4) 0.0449(3) 0.7897(3)
C7_9 C 0.9387(4) 0.1376(3) 0.7057(3)
H6_9 H 0.9765 0.1530 0.6700
C10_9 C 0.8584(4) 0.1567(3) 0.7705(3)
H8_9 H 0.8397 0.1869 0.7826
H5_9 H 0.6088 0.7592 0.0139
N4_9 N 0.72686(34) 0.66370(28) 0.04627(16)
C13_9 C 0.9439(5) 0.7718(4) 0.1261(3)
H11_9 H 0.9739 0.7557 0.1055
C17_9 C 0.8454(5) 0.6798(4) 0.0462(2)
H14_9 H 0.8768 0.6646 0.0276
C18_9 C 0.7745(5) 0.6464(4) 0.0221(2)
C20_9 C 0.8700(5) 0.7366(4) 0.0984(2)
C21_9 C 0.9729(5) 0.8238(4) 0.1770(3)
H17_9 H 0.9443 0.8431 0.1937
C23_9 C 0.8198(5) 0.7573(4) 0.1227(3)
H19_9 H 0.8341 0.7966 0.1562
C24_9 C 0.7485(5) 0.7184(4) 0.0962(2)
H20_9 H 0.7149 0.7310 0.1139
N2_9 N 0.66370(28) 0.72686(19) 0.95373(16)
C1_9 C 0.7718(4) 0.9439(3) 0.8739(3)
H1_9 H 0.7557 0.9739 0.8945
C5_9 C 0.6798(4) 0.8454(3) 0.9538(2)
H4_9 H 0.6646 0.8768 0.9724
C6_9 C 0.6464(4) 0.7745(2) 0.9779(2)
C8_9 C 0.7366(4) 0.8700(3) 0.9016(2)
C9_9 C 0.8238(4) 0.9729(3) 0.8230(3)
H7_9 H 0.8431 0.9443 0.8063
C11_9 C 0.7573(4) 0.8198(3) 0.8773(3)
H9_9 H 0.7966 0.8341 0.8438
C12_9 C 0.7184(4) 0.7485(3) 0.9038(2)
H10_9 H 0.7310 0.7149 0.8861
H15_9 H 0.7592 0.6088 0.9861
O2_7 O 0.7962(3) 0.8654(2) 0.5177(3)
O4_7 O 0.8654(4) 0.7962(3) 0.4823(3)
O2_8 O 0.0693(2) 0.2038(3) 0.5177(3)
O4_8 O 0.9307(2) 0.1346(4) 0.4823(3)
O4_9 O 0.2038(3) 0.0693(2) 0.4823(3)
O2_9 O 0.1346(2) 0.9307(2) 0.5177(3)
loop_
_geom_bond_atom_site_label_1
_geom_bond_atom_site_label_2
_geom_bond_site_symmetry_1
_geom_bond_site_symmetry_2
Co1 O1 1_555 1_555
Cr1 O1 1_555 1_555
N1 C7 1_555 1_555
O2 Cr1 1_555 1_555
N2 Co1 1_555 1_555
C1 H1 1_555 1_555
C2 H2 1_555 1_555
C3 H3 1_555 1_555
C4 C2 1_555 1_555
C5 H4 1_555 1_555
C6 N2 1_555 1_555
H5 C6 1_555 1_555
C7 C3 1_555 1_555
H6 C7 1_555 1_555
C8 C1 1_555 1_555
C9 C1 1_555 1_555
H7 C9 1_555 1_555
C10 N1 1_555 1_555
H8 C10 1_555 1_555
C11 C8 1_555 1_555
H9 C11 1_555 1_555
C12 N2 1_555 1_555
H10 C12 1_555 1_555
O3 Co1 1_555 1_555
N3 C19 1_555 1_555
N4 Co1 1_555 1_555
C13 H11 1_555 1_555
C14 H12 1_555 1_555
C15 H13 1_555 1_555
C16 C14 1_555 1_555
C17 H14 1_555 1_555
C18 N4 1_555 1_555
H15 C18 1_555 1_555
C19 C15 1_555 1_555
H16 C19 1_555 1_555
C20 C13 1_555 1_555
C21 C13 1_555 1_555
H17 C21 1_555 1_555
C22 N3 1_555 1_555
C23 C20 1_555 1_555
H19 C23 1_555 1_555
C24 N4 1_555 1_555
H20 C24 1_555 1_555
O4 Cr1 1_555 1_555
Co2 N1 1_555 1_555
Co3_4 N3 1_555 1_555
Cr2 O3 1_555 1_555
O5 Cr1 1_555 1_555
N5 Co1 1_555 1_555
N6 Co1 1_555 1_555
C2 C10 1_555 1_555
C3 C4 1_555 1_555
C4 C9 1_555 1_555
C5 C6 1_555 1_555
C5 C8 1_555 1_555
C11 C12 1_555 1_555
C14 C22 1_555 1_555
C15 C16 1_555 1_555
C16 C21 1_555 1_555
C17 C18 1_555 1_555
C17 C20 1_555 1_555
C23 C24 1_555 1_555
Co1_2 O1_2 1_555 1_555
Cr1_2 O1_2 1_555 1_555
O2_2 Cr1_2 1_555 1_555
N2_2 Co1_2 1_555 1_555
C6_2 N2_2 1_555 1_555
H5_2 C6_2 1_555 1_555
O3_2 Co1_2 1_555 1_555
O4_2 Cr1_2 1_555 1_555
Cr2_2 O3_2 1_555 1_555
O5_2 Cr1_2 1_555 1_555
N5_2 Co1_2 1_555 1_555
N6_2 Co1_2 1_555 1_555
N1_2 C7_2 1_555 1_555
C1_2 H1_2 1_555 1_555
C2_2 H2_2 1_555 1_555
C3_2 H3_2 1_555 1_555
C4_2 C2_2 1_555 1_555
C7_2 C3_2 1_555 1_555
H6_2 C7_2 1_555 1_555
C8_2 C1_2 1_555 1_555
C9_2 C1_2 1_555 1_555
H7_2 C9_2 1_555 1_555
C10_2 N1_2 1_555 1_555
H8_2 C10_2 1_555 1_555
C11_2 C8_2 1_555 1_555
H9_2 C11_2 1_555 1_555
H10_2 C12_2 1_555 1_555
N3_2 C19_2 1_555 1_555
C13_2 H11_2 1_555 1_555
C14_2 H12_2 1_555 1_555
C15_2 H13_2 1_555 1_555
C16_2 C14_2 1_555 1_555
C17_2 H14_2 1_555 1_555
C18_2 N4_2 1_555 1_555
H15_2 C18_2 1_555 1_555
C19_2 C15_2 1_555 1_555
H16_2 C19_2 1_555 1_555
C20_2 C13_2 1_555 1_555
C21_2 C13_2 1_555 1_555
H17_2 C21_2 1_555 1_555
C22_2 N3_2 1_555 1_555
C23_2 C20_2 1_555 1_555
H19_2 C23_2 1_555 1_555
C24_2 N4_2 1_555 1_555
H20_2 C24_2 1_555 1_555
Co2_2 N1_2 1_555 1_555
Co3_6 N3_2 1_555 1_555
C2_2 C10_2 1_555 1_555
C3_2 C4_2 1_555 1_555
C4_2 C9_2 1_555 1_555
C5_2 C8_2 1_555 1_555
C11_2 C12_2 1_555 1_555
C14_2 C22_2 1_555 1_555
C15_2 C16_2 1_555 1_555
C16_2 C21_2 1_555 1_555
C17_2 C18_2 1_555 1_555
C17_2 C20_2 1_555 1_555
C23_2 C24_2 1_555 1_555
N1_3 C7_3 1_555 1_555
C1_3 H1_3 1_555 1_555
C2_3 H2_3 1_555 1_555
C3_3 H3_3 1_555 1_555
C4_3 C2_3 1_555 1_555
C7_3 C3_3 1_555 1_555
H6_3 C7_3 1_555 1_555
C8_3 C1_3 1_555 1_555
C9_3 C1_3 1_555 1_555
H7_3 C9_3 1_555 1_555
C10_3 N1_3 1_555 1_555
H8_3 C10_3 1_555 1_555
C11_3 C8_3 1_555 1_555
H9_3 C11_3 1_555 1_555
H10_3 C12_3 1_555 1_555
N3_3 C19_3 1_555 1_555
C13_3 H11_3 1_555 1_555
C14_3 H12_3 1_555 1_555
C15_3 H13_3 1_555 1_555
C16_3 C14_3 1_555 1_555
C17_3 H14_3 1_555 1_555
C18_3 N4_3 1_555 1_555
H15_3 C18_3 1_555 1_555
C19_3 C15_3 1_555 1_555
H16_3 C19_3 1_555 1_555
C20_3 C13_3 1_555 1_555
C21_3 C13_3 1_555 1_555
H17_3 C21_3 1_555 1_555
C22_3 N3_3 1_555 1_555
H18_3 C22_3 1_555 1_555
C23_3 C20_3 1_555 1_555
H19_3 C23_3 1_555 1_555
C24_3 N4_3 1_555 1_555
H20_3 C24_3 1_555 1_555
Co2_3 N1_3 1_555 1_555
Co3_10 N3_3 1_555 1_555
C2_3 C10_3 1_555 1_555
C3_3 C4_3 1_555 1_555
C4_3 C9_3 1_555 1_555
C5_3 C8_3 1_555 1_555
C11_3 C12_3 1_555 1_555
C14_3 C22_3 1_555 1_555
C15_3 C16_3 1_555 1_555
C16_3 C21_3 1_555 1_555
C17_3 C18_3 1_555 1_555
C17_3 C20_3 1_555 1_555
C23_3 C24_3 1_555 1_555
Co1_3 O1_3 1_555 1_555
Cr1_3 O1_3 1_555 1_555
O2_3 Cr1_3 1_555 1_555
N2_3 Co1_3 1_555 1_555
C6_3 N2_3 1_555 1_555
H5_3 C6_3 1_555 1_555
O3_3 Co1_3 1_555 1_555
O4_3 Cr1_3 1_555 1_555
Cr2_5 O3_3 1_555 1_555
O5_3 Cr1_3 1_555 1_555
N5_3 Co1_3 1_555 1_555
N6_3 Co1_3 1_555 1_555
Co2 O1_4 1_555 1_555
Cr1_4 O1_4 1_555 1_555
O2_4 Cr1_4 1_555 1_555
N2_4 Co2 1_555 1_555
C6_4 N2_4 1_555 1_555
H5_4 C6_4 1_555 1_555
O3_4 Co2 1_555 1_555
O4_4 Cr1_4 1_555 1_555
Cr2_4 O3_4 1_555 1_555
O5_4 Cr1_4 1_555 1_555
N6_4 Co2 1_555 1_555
N5 C7_4 1_555 1_555
C1_4 H1_4 1_555 1_555
C2_4 H2_4 1_555 1_555
C3_4 H3_4 1_555 1_555
C4_4 C2_4 1_555 1_555
C7_4 C3_4 1_555 1_555
H6_4 C7_4 1_555 1_555
C8_4 C1_4 1_555 1_555
C9_4 C1_4 1_555 1_555
H7_4 C9_4 1_555 1_555
C10_4 N5 1_555 1_555
H8_4 C10_4 1_555 1_555
C11_4 C8_4 1_555 1_555
H9_4 C11_4 1_555 1_555
H10_4 C12_4 1_555 1_555
N3_4 C19_4 1_555 1_555
C13_4 H11_4 1_555 1_555
C14_4 H12_4 1_555 1_555
C15_4 H13_4 1_555 1_555
C16_4 C14_4 1_555 1_555
C17_4 H14_4 1_555 1_555
C18_4 N4_4 1_555 1_555
H15_4 C18_4 1_555 1_555
C19_4 C15_4 1_555 1_555
H16_4 C19_4 1_555 1_555
C20_4 C13_4 1_555 1_555
C21_4 C13_4 1_555 1_555
H17_4 C21_4 1_555 1_555
C22_4 N3_4 1_555 1_555
C23_4 C20_4 1_555 1_555
H19_4 C23_4 1_555 1_555
C24_4 N4_4 1_555 1_555
H20_4 C24_4 1_555 1_555
Co3 N3_4 1_555 1_555
C2_4 C10_4 1_555 1_555
C3_4 C4_4 1_555 1_555
C4_4 C9_4 1_555 1_555
C5_4 C8_4 1_555 1_555
C11_4 C12_4 1_555 1_555
C14_4 C22_4 1_555 1_555
C15_4 C16_4 1_555 1_555
C16_4 C21_4 1_555 1_555
C17_4 C18_4 1_555 1_555
C17_4 C20_4 1_555 1_555
C23_4 C24_4 1_555 1_555
N5_3 C7_5 1_555 1_555
C1_5 H1_5 1_555 1_555
C2_5 H2_5 1_555 1_555
C3_5 H3_5 1_555 1_555
C4_5 C2_5 1_555 1_555
C7_5 C3_5 1_555 1_555
H6_5 C7_5 1_555 1_555
C8_5 C1_5 1_555 1_555
C9_5 C1_5 1_555 1_555
H7_5 C9_5 1_555 1_555
C10_5 N5_3 1_555 1_555
H8_5 C10_5 1_555 1_555
C11_5 C8_5 1_555 1_555
H9_5 C11_5 1_555 1_555
H10_5 C12_5 1_555 1_555
N3_5 C19_5 1_555 1_555
C13_5 H11_5 1_555 1_555
C14_5 H12_5 1_555 1_555
C15_5 H13_5 1_555 1_555
C16_5 C14_5 1_555 1_555
C17_5 H14_5 1_555 1_555
C18_5 N4_5 1_555 1_555
H15_5 C18_5 1_555 1_555
C19_5 C15_5 1_555 1_555
H16_5 C19_5 1_555 1_555
C20_5 C13_5 1_555 1_555
C21_5 C13_5 1_555 1_555
H17_5 C21_5 1_555 1_555
C22_5 N3_5 1_555 1_555
H18_5 C22_5 1_555 1_555
C23_5 C20_5 1_555 1_555
H19_5 C23_5 1_555 1_555
C24_5 N4_5 1_555 1_555
H20_5 C24_5 1_555 1_555
Co3_9 N3_5 1_555 1_555
C2_5 C10_5 1_555 1_555
C3_5 C4_5 1_555 1_555
C4_5 C9_5 1_555 1_555
C5_5 C8_5 1_555 1_555
C11_5 C12_5 1_555 1_555
C14_5 C22_5 1_555 1_555
C15_5 C16_5 1_555 1_555
C16_5 C21_5 1_555 1_555
C17_5 C18_5 1_555 1_555
C17_5 C20_5 1_555 1_555
C23_5 C24_5 1_555 1_555
Co2_3 O1_5 1_555 1_555
Cr1_5 O1_5 1_555 1_555
O2_5 Cr1_5 1_555 1_555
N2_5 Co2_3 1_555 1_555
C6_5 N2_5 1_555 1_555
H5_5 C6_5 1_555 1_555
O3_5 Co2_3 1_555 1_555
O4_5 Cr1_5 1_555 1_555
Cr2_3 O3_5 1_555 1_555
O5_5 Cr1_5 1_555 1_555
N6_5 Co2_3 1_555 1_555
Co2_2 O1_6 1_555 1_555
Cr1_6 O1_6 1_555 1_555
N5_2 C7_6 1_555 1_555
O2_6 Cr1_6 1_555 1_555
N2_6 Co2_2 1_555 1_555
C1_6 H1_6 1_555 1_555
C2_6 H2_6 1_555 1_555
C3_6 H3_6 1_555 1_555
C4_6 C2_6 1_555 1_555
C5_6 H4_6 1_555 1_555
C6_6 N2_6 1_555 1_555
H5_6 C6_6 1_555 1_555
C7_6 C3_6 1_555 1_555
H6_6 C7_6 1_555 1_555
C8_6 C1_6 1_555 1_555
C9_6 C1_6 1_555 1_555
H7_6 C9_6 1_555 1_555
C10_6 N5_2 1_555 1_555
H8_6 C10_6 1_555 1_555
C11_6 C8_6 1_555 1_555
H9_6 C11_6 1_555 1_555
C12_6 N2_6 1_555 1_555
H10_6 C12_6 1_555 1_555
O3_6 Co2_2 1_555 1_555
N3_6 C19_6 1_555 1_555
N4_6 Co2_2 1_555 1_555
C13_6 H11_6 1_555 1_555
C14_6 H12_6 1_555 1_555
C15_6 H13_6 1_555 1_555
C16_6 C14_6 1_555 1_555
C17_6 H14_6 1_555 1_555
C18_6 N4_6 1_555 1_555
H15_6 C18_6 1_555 1_555
C19_6 C15_6 1_555 1_555
H16_6 C19_6 1_555 1_555
C20_6 C13_6 1_555 1_555
C21_6 C13_6 1_555 1_555
H17_6 C21_6 1_555 1_555
C22_6 N3_6 1_555 1_555
C23_6 C20_6 1_555 1_555
H19_6 C23_6 1_555 1_555
C24_6 N4_6 1_555 1_555
H20_6 C24_6 1_555 1_555
O4_6 Cr1_6 1_555 1_555
Co3_7 N3_6 1_555 1_555
Cr2 O3_6 1_555 1_555
O5_6 Cr1_6 1_555 1_555
N6_6 Co2_2 1_555 1_555
C2_6 C10_6 1_555 1_555
C3_6 C4_6 1_555 1_555
C4_6 C9_6 1_555 1_555
C5_6 C6_6 1_555 1_555
C5_6 C8_6 1_555 1_555
C11_6 C12_6 1_555 1_555
C14_6 C22_6 1_555 1_555
C15_6 C16_6 1_555 1_555
C16_6 C21_6 1_555 1_555
C17_6 C18_6 1_555 1_555
C17_6 C20_6 1_555 1_555
C23_6 C24_6 1_555 1_555
N6_4 C19_7 1_555 1_555
N4_7 Co3 1_555 1_555
C13_7 H11_7 1_555 1_555
C14_7 H12_7 1_555 1_555
C15_7 H13_7 1_555 1_555
C16_7 C14_7 1_555 1_555
C17_7 H14_7 1_555 1_555
C18_7 N4_7 1_555 1_555
C19_7 C15_7 1_555 1_555
H16_7 C19_7 1_555 1_555
C20_7 C13_7 1_555 1_555
C21_7 C13_7 1_555 1_555
H17_7 C21_7 1_555 1_555
C22_7 N6_4 1_555 1_555
H18_7 C22_7 1_555 1_555
C23_7 C20_7 1_555 1_555
H19_7 C23_7 1_555 1_555
C24_7 N4_7 1_555 1_555
C14_7 C22_7 1_555 1_555
C15_7 C16_7 1_555 1_555
C16_7 C21_7 1_555 1_555
C17_7 C18_7 1_555 1_555
C17_7 C20_7 1_555 1_555
C23_7 C24_7 1_555 1_555
O5_2 Co3_2 1_555 1_555
Co3_3 O5_5 1_555 1_555
N2_7 Co3_4 1_555 1_555
C1_7 H1_7 1_555 1_555
C5_7 H4_7 1_555 1_555
C6_7 N2_7 1_555 1_555
C8_7 C1_7 1_555 1_555
C9_7 C1_7 1_555 1_555
H7_7 C9_7 1_555 1_555
C11_7 C8_7 1_555 1_555
H9_7 C11_7 1_555 1_555
C12_7 N2_7 1_555 1_555
C5_7 C6_7 1_555 1_555
C5_7 C8_7 1_555 1_555
C11_7 C12_7 1_555 1_555
N6 C7_7 1_555 1_555
C2_7 H2_7 1_555 1_555
C3_7 H3_7 1_555 1_555
C4_7 C2_7 1_555 1_555
C7_7 C3_7 1_555 1_555
H6_7 C7_7 1_555 1_555
C10_7 N6 1_555 1_555
H8_7 C10_7 1_555 1_555
C2_7 C10_7 1_555 1_555
C3_7 C4_7 1_555 1_555
Co3_5 O5_4 1_555 1_555
N6_2 C7_8 1_555 1_555
N2_8 Co3_6 1_555 1_555
C1_8 H1_8 1_555 1_555
C2_8 H2_8 1_555 1_555
C3_8 H3_8 1_555 1_555
C4_8 C2_8 1_555 1_555
C5_8 H4_8 1_555 1_555
C6_8 N2_8 1_555 1_555
C7_8 C3_8 1_555 1_555
H6_8 C7_8 1_555 1_555
C8_8 C1_8 1_555 1_555
C9_8 C1_8 1_555 1_555
H7_8 C9_8 1_555 1_555
C10_8 N6_2 1_555 1_555
H8_8 C10_8 1_555 1_555
C11_8 C8_8 1_555 1_555
H9_8 C11_8 1_555 1_555
C12_8 N2_8 1_555 1_555
C2_8 C10_8 1_555 1_555
C3_8 C4_8 1_555 1_555
C4_8 C9_8 1_555 1_555
C5_8 C6_8 1_555 1_555
C5_8 C8_8 1_555 1_555
C11_8 C12_8 1_555 1_555
N4_8 Co3_7 1_555 1_555
C13_8 H11_8 1_555 1_555
C17_8 H14_8 1_555 1_555
C18_8 N4_8 1_555 1_555
C20_8 C13_8 1_555 1_555
C21_8 C13_8 1_555 1_555
H17_8 C21_8 1_555 1_555
C23_8 C20_8 1_555 1_555
H19_8 C23_8 1_555 1_555
C24_8 N4_8 1_555 1_555
C17_8 C18_8 1_555 1_555
C17_8 C20_8 1_555 1_555
C23_8 C24_8 1_555 1_555
O5_3 Co3_8 1_555 1_555
N6_6 C19_8 1_555 1_555
C14_8 H12_8 1_555 1_555
C15_8 H13_8 1_555 1_555
C16_8 C14_8 1_555 1_555
C19_8 C15_8 1_555 1_555
H16_8 C19_8 1_555 1_555
C22_8 N6_6 1_555 1_555
H18_8 C22_8 1_555 1_555
C14_8 C22_8 1_555 1_555
C15_8 C16_8 1_555 1_555
N6_5 C19_9 1_555 1_555
C14_9 H12_9 1_555 1_555
C15_9 H13_9 1_555 1_555
C16_9 C14_9 1_555 1_555
C19_9 C15_9 1_555 1_555
H16_9 C19_9 1_555 1_555
C22_9 N6_5 1_555 1_555
H18_9 C22_9 1_555 1_555
C14_9 C22_9 1_555 1_555
C15_9 C16_9 1_555 1_555
N6_3 C7_9 1_555 1_555
C2_9 H2_9 1_555 1_555
C3_9 H3_9 1_555 1_555
C4_9 C2_9 1_555 1_555
C7_9 C3_9 1_555 1_555
H6_9 C7_9 1_555 1_555
C10_9 N6_3 1_555 1_555
H8_9 C10_9 1_555 1_555
C2_9 C10_9 1_555 1_555
C3_9 C4_9 1_555 1_555
Co3_9 O5_6 1_555 1_555
N4_9 Co3_9 1_555 1_555
C13_9 H11_9 1_555 1_555
C17_9 H14_9 1_555 1_555
C18_9 N4_9 1_555 1_555
C20_9 C13_9 1_555 1_555
C21_9 C13_9 1_555 1_555
H17_9 C21_9 1_555 1_555
C23_9 C20_9 1_555 1_555
H19_9 C23_9 1_555 1_555
C24_9 N4_9 1_555 1_555
H20_9 C24_9 1_555 1_555
C17_9 C18_9 1_555 1_555
C17_9 C20_9 1_555 1_555
C23_9 C24_9 1_555 1_555
N2_9 Co3_10 1_555 1_555
C1_9 H1_9 1_555 1_555
C5_9 H4_9 1_555 1_555
C6_9 N2_9 1_555 1_555
C8_9 C1_9 1_555 1_555
C9_9 C1_9 1_555 1_555
H7_9 C9_9 1_555 1_555
C11_9 C8_9 1_555 1_555
H9_9 C11_9 1_555 1_555
C12_9 N2_9 1_555 1_555
H10_9 C12_9 1_555 1_555
O5 Co3_10 1_555 1_555
C5_9 C6_9 1_555 1_555
C5_9 C8_9 1_555 1_555
C11_9 C12_9 1_555 1_555
O2_7 Cr2 1_555 1_555
O4_7 Cr2 1_555 1_555
O2_8 Cr2_4 1_555 1_555
O4_8 Cr2_5 1_555 1_555
O4_9 Cr2_2 1_555 1_555
O2_9 Cr2_3 1_555 1_555

#END
