
###############################################################################
#
# This file contains modified crystal structure data generated from the
# MOF subset of the Cambridge Structural Database (CSD) v543 
# hosted by the Cambridge Crystallographic Data Centre (CCDC).
#
# This work is licensed under the Creative Commons
# Attribution-NonCommercial-ShareAlike 4.0 International License.
# To view a copy of this license, visit
# http://creativecommons.org/licenses/by-nc-sa/4.0/
# or send a letter to
# Creative Commons, PO Box 1866, Mountain View, CA 94042, USA.
#
# CIF created using the CSD Python API on 29 September 2022
# The structure has been converted into the P1 space group
# The structure has a 3D framework
# The original CSD entry YEZYEK is in the cubic crystal system
# The framework has been calculated to contain at least 10.0% void space
# The void calculation uses a probe of radius 1.32A, grid spacing 0.4
# The framework is charged, counterions have been retained in the structure
#
###############################################################################

data_YEZYEK
_chemical_formula_moiety         '(C864 H576 Cu54 Dy42 I4 N336 O336 38-)n'
_symmetry_cell_setting           triclinic
_symmetry_space_group_name_H-M   'P 1'
_symmetry_Int_Tables_number      1
_space_group_name_Hall           'P 1'
loop_
_symmetry_equiv_pos_site_id
_symmetry_equiv_pos_as_xyz
1 x,y,z
_cell_length_a                   32.7252(4)
_cell_length_b                   32.7252(4)
_cell_length_c                   32.7252(4)
_cell_angle_alpha                90
_cell_angle_beta                 90
_cell_angle_gamma                90
_cell_volume                     35046.7
loop_
_atom_site_label
_atom_site_type_symbol
_atom_site_fract_x
_atom_site_fract_y
_atom_site_fract_z
N1 N 0.4304(4) 0.6363(3) 0.7753(5)
O1 O 0.4455(5) 0.6659(4) 0.7910(5)
O2 O 0.4000(4) 0.6391(4) 0.7565(5)
O3 O 0.4444(5) 0.6028(4) 0.7831(6)
N1_2 N 0.5696(4) 0.8637(3) 0.7753(5)
O1_2 O 0.5545(5) 0.8341(4) 0.7910(5)
O2_2 O 0.6000(4) 0.8609(4) 0.7565(5)
O3_2 O 0.5556(5) 0.8972(4) 0.7831(6)
N1_3 N 0.4304(4) 0.3637(3) 0.7247(5)
O1_3 O 0.4455(5) 0.3341(4) 0.7090(5)
O2_3 O 0.4000(4) 0.3609(4) 0.7435(5)
O3_3 O 0.4444(5) 0.3972(4) 0.7169(6)
N1_4 N 0.7753(5) 0.4304(4) 0.6363(3)
O1_4 O 0.7910(5) 0.4455(5) 0.6659(4)
O2_4 O 0.7565(5) 0.4000(4) 0.6391(4)
O3_4 O 0.7831(6) 0.4444(5) 0.6028(4)
N1_5 N 0.5696(4) 0.1363(3) 0.7247(5)
O1_5 O 0.5545(5) 0.1659(4) 0.7090(5)
O2_5 O 0.6000(4) 0.1391(4) 0.7435(5)
O3_5 O 0.5556(5) 0.1028(4) 0.7169(6)
N1_6 N 0.7753(5) 0.5696(4) 0.8637(3)
O1_6 O 0.7910(5) 0.5545(5) 0.8341(4)
O2_6 O 0.7565(5) 0.6000(4) 0.8609(4)
O3_6 O 0.7831(6) 0.5556(5) 0.8972(4)
N1_7 N 0.2247(5) 0.0696(4) 0.6363(3)
O1_7 O 0.2090(5) 0.0545(5) 0.6659(4)
O2_7 O 0.2435(5) 0.1000(4) 0.6391(4)
O3_7 O 0.2169(6) 0.0556(5) 0.6028(4)
N1_8 N 0.7247(5) 0.4304(4) 0.3637(3)
O1_8 O 0.7090(5) 0.4455(5) 0.3341(4)
O2_8 O 0.7435(5) 0.4000(4) 0.3609(4)
O3_8 O 0.7169(6) 0.4444(5) 0.3972(4)
N1_9 N 0.6363(3) 0.7753(5) 0.4304(4)
O1_9 O 0.6659(4) 0.7910(5) 0.4455(5)
O2_9 O 0.6391(4) 0.7565(5) 0.4000(4)
O3_9 O 0.6028(4) 0.7831(6) 0.4444(5)
N1_10 N 0.8637(3) 0.7753(5) 0.5696(4)
O1_10 O 0.8341(4) 0.7910(5) 0.5545(5)
O2_10 O 0.8609(4) 0.7565(5) 0.6000(4)
O3_10 O 0.8972(4) 0.7831(6) 0.5556(5)
N1_11 N 0.3637(3) 0.7247(5) 0.4304(4)
O1_11 O 0.3341(4) 0.7090(5) 0.4455(5)
O2_11 O 0.3609(4) 0.7435(5) 0.4000(4)
O3_11 O 0.3972(4) 0.7169(6) 0.4444(5)
N1_12 N 0.6363(3) 0.2247(5) 0.0696(4)
O1_12 O 0.6659(4) 0.2090(5) 0.0545(5)
O2_12 O 0.6391(4) 0.2435(5) 0.1000(4)
O3_12 O 0.6028(4) 0.2169(6) 0.0556(5)
N1_13 N 0.9304(4) 0.1363(3) 0.2753(5)
O1_13 O 0.9455(5) 0.1659(4) 0.2910(5)
O2_13 O 0.9000(4) 0.1391(4) 0.2565(5)
O3_13 O 0.9444(5) 0.1028(4) 0.2831(6)
N1_14 N 0.0696(4) 0.3637(3) 0.2753(5)
O1_14 O 0.0545(5) 0.3341(4) 0.2910(5)
O2_14 O 0.1000(4) 0.3609(4) 0.2565(5)
O3_14 O 0.0556(5) 0.3972(4) 0.2831(6)
N1_15 N 0.9304(4) 0.8637(3) 0.2247(5)
O1_15 O 0.9455(5) 0.8341(4) 0.2090(5)
O2_15 O 0.9000(4) 0.8609(4) 0.2435(5)
O3_15 O 0.9444(5) 0.8972(4) 0.2169(6)
N1_16 N 0.2753(5) 0.9304(4) 0.1363(3)
O1_16 O 0.2910(5) 0.9455(5) 0.1659(4)
O2_16 O 0.2565(5) 0.9000(4) 0.1391(4)
O3_16 O 0.2831(6) 0.9444(5) 0.1028(4)
N1_17 N 0.0696(4) 0.6363(3) 0.2247(5)
O1_17 O 0.0545(5) 0.6659(4) 0.2090(5)
O2_17 O 0.1000(4) 0.6391(4) 0.2435(5)
O3_17 O 0.0556(5) 0.6028(4) 0.2169(6)
N1_18 N 0.2753(5) 0.0696(4) 0.3637(3)
O1_18 O 0.2910(5) 0.0545(5) 0.3341(4)
O2_18 O 0.2565(5) 0.1000(4) 0.3609(4)
O3_18 O 0.2831(6) 0.0556(5) 0.3972(4)
N1_19 N 0.7247(5) 0.5696(4) 0.1363(3)
O1_19 O 0.7090(5) 0.5545(5) 0.1659(4)
O2_19 O 0.7435(5) 0.6000(4) 0.1391(4)
O3_19 O 0.7169(6) 0.5556(5) 0.1028(4)
N1_20 N 0.2247(5) 0.9304(4) 0.8637(3)
O1_20 O 0.2090(5) 0.9455(5) 0.8341(4)
O2_20 O 0.2435(5) 0.9000(4) 0.8609(4)
O3_20 O 0.2169(6) 0.9444(5) 0.8972(4)
N1_21 N 0.1363(3) 0.2753(5) 0.9304(4)
O1_21 O 0.1659(4) 0.2910(5) 0.9455(5)
O2_21 O 0.1391(4) 0.2565(5) 0.9000(4)
O3_21 O 0.1028(4) 0.2831(6) 0.9444(5)
N1_22 N 0.3637(3) 0.2753(5) 0.0696(4)
O1_22 O 0.3341(4) 0.2910(5) 0.0545(5)
O2_22 O 0.3609(4) 0.2565(5) 0.1000(4)
O3_22 O 0.3972(4) 0.2831(6) 0.0556(5)
N1_23 N 0.8637(3) 0.2247(5) 0.9304(4)
O1_23 O 0.8341(4) 0.2090(5) 0.9455(5)
O2_23 O 0.8609(4) 0.2435(5) 0.9000(4)
O3_23 O 0.8972(4) 0.2169(6) 0.9444(5)
N1_24 N 0.1363(3) 0.7247(5) 0.5696(4)
O1_24 O 0.1659(4) 0.7090(5) 0.5545(5)
O2_24 O 0.1391(4) 0.7435(5) 0.6000(4)
O3_24 O 0.1028(4) 0.7169(6) 0.5556(5)
N1_25 N 0.5696(4) 0.3637(3) 0.2247(5)
O1_25 O 0.5545(5) 0.3341(4) 0.2090(5)
O2_25 O 0.6000(4) 0.3609(4) 0.2435(5)
O3_25 O 0.5556(5) 0.3972(4) 0.2169(6)
N1_26 N 0.4304(4) 0.1363(3) 0.2247(5)
O1_26 O 0.4455(5) 0.1659(4) 0.2090(5)
O2_26 O 0.4000(4) 0.1391(4) 0.2435(5)
O3_26 O 0.4444(5) 0.1028(4) 0.2169(6)
N1_27 N 0.5696(4) 0.6363(3) 0.2753(5)
O1_27 O 0.5545(5) 0.6659(4) 0.2910(5)
O2_27 O 0.6000(4) 0.6391(4) 0.2565(5)
O3_27 O 0.5556(5) 0.6028(4) 0.2831(6)
N1_28 N 0.2247(5) 0.5696(4) 0.3637(3)
O1_28 O 0.2090(5) 0.5545(5) 0.3341(4)
O2_28 O 0.2435(5) 0.6000(4) 0.3609(4)
O3_28 O 0.2169(6) 0.5556(5) 0.3972(4)
N1_29 N 0.4304(4) 0.8637(3) 0.2753(5)
O1_29 O 0.4455(5) 0.8341(4) 0.2910(5)
O2_29 O 0.4000(4) 0.8609(4) 0.2565(5)
O3_29 O 0.4444(5) 0.8972(4) 0.2831(6)
N1_30 N 0.2247(5) 0.4304(4) 0.1363(3)
O1_30 O 0.2090(5) 0.4455(5) 0.1659(4)
O2_30 O 0.2435(5) 0.4000(4) 0.1391(4)
O3_30 O 0.2169(6) 0.4444(5) 0.1028(4)
N1_31 N 0.7753(5) 0.9304(4) 0.3637(3)
O1_31 O 0.7910(5) 0.9455(5) 0.3341(4)
O2_31 O 0.7565(5) 0.9000(4) 0.3609(4)
O3_31 O 0.7831(6) 0.9444(5) 0.3972(4)
N1_32 N 0.2753(5) 0.5696(4) 0.6363(3)
O1_32 O 0.2910(5) 0.5545(5) 0.6659(4)
O2_32 O 0.2565(5) 0.6000(4) 0.6391(4)
O3_32 O 0.2831(6) 0.5556(5) 0.6028(4)
N1_33 N 0.3637(3) 0.2247(5) 0.5696(4)
O1_33 O 0.3341(4) 0.2090(5) 0.5545(5)
O2_33 O 0.3609(4) 0.2435(5) 0.6000(4)
O3_33 O 0.3972(4) 0.2169(6) 0.5556(5)
N1_34 N 0.1363(3) 0.2247(5) 0.4304(4)
O1_34 O 0.1659(4) 0.2090(5) 0.4455(5)
O2_34 O 0.1391(4) 0.2435(5) 0.4000(4)
O3_34 O 0.1028(4) 0.2169(6) 0.4444(5)
N1_35 N 0.6363(3) 0.2753(5) 0.5696(4)
O1_35 O 0.6659(4) 0.2910(5) 0.5545(5)
O2_35 O 0.6391(4) 0.2565(5) 0.6000(4)
O3_35 O 0.6028(4) 0.2831(6) 0.5556(5)
N1_36 N 0.3637(3) 0.7753(5) 0.9304(4)
O1_36 O 0.3341(4) 0.7910(5) 0.9455(5)
O2_36 O 0.3609(4) 0.7565(5) 0.9000(4)
O3_36 O 0.3972(4) 0.7831(6) 0.9444(5)
N1_37 N 0.0696(4) 0.8637(3) 0.7247(5)
O1_37 O 0.0545(5) 0.8341(4) 0.7090(5)
O2_37 O 0.1000(4) 0.8609(4) 0.7435(5)
O3_37 O 0.0556(5) 0.8972(4) 0.7169(6)
N1_38 N 0.9304(4) 0.6363(3) 0.7247(5)
O1_38 O 0.9455(5) 0.6659(4) 0.7090(5)
O2_38 O 0.9000(4) 0.6391(4) 0.7435(5)
O3_38 O 0.9444(5) 0.6028(4) 0.7169(6)
N1_39 N 0.0696(4) 0.1363(3) 0.7753(5)
O1_39 O 0.0545(5) 0.1659(4) 0.7910(5)
O2_39 O 0.1000(4) 0.1391(4) 0.7565(5)
O3_39 O 0.0556(5) 0.1028(4) 0.7831(6)
N1_40 N 0.7247(5) 0.0696(4) 0.8637(3)
O1_40 O 0.7090(5) 0.0545(5) 0.8341(4)
O2_40 O 0.7435(5) 0.1000(4) 0.8609(4)
O3_40 O 0.7169(6) 0.0556(5) 0.8972(4)
N1_41 N 0.9304(4) 0.3637(3) 0.7753(5)
O1_41 O 0.9455(5) 0.3341(4) 0.7910(5)
O2_41 O 0.9000(4) 0.3609(4) 0.7565(5)
O3_41 O 0.9444(5) 0.3972(4) 0.7831(6)
N1_42 N 0.7247(5) 0.9304(4) 0.6363(3)
O1_42 O 0.7090(5) 0.9455(5) 0.6659(4)
O2_42 O 0.7435(5) 0.9000(4) 0.6391(4)
O3_42 O 0.7169(6) 0.9444(5) 0.6028(4)
N1_43 N 0.2753(5) 0.4304(4) 0.8637(3)
O1_43 O 0.2910(5) 0.4455(5) 0.8341(4)
O2_43 O 0.2565(5) 0.4000(4) 0.8609(4)
O3_43 O 0.2831(6) 0.4444(5) 0.8972(4)
N1_44 N 0.7753(5) 0.0696(4) 0.1363(3)
O1_44 O 0.7910(5) 0.0545(5) 0.1659(4)
O2_44 O 0.7565(5) 0.1000(4) 0.1391(4)
O3_44 O 0.7831(6) 0.0556(5) 0.1028(4)
N1_45 N 0.8637(3) 0.7247(5) 0.0696(4)
O1_45 O 0.8341(4) 0.7090(5) 0.0545(5)
O2_45 O 0.8609(4) 0.7435(5) 0.1000(4)
O3_45 O 0.8972(4) 0.7169(6) 0.0556(5)
N1_46 N 0.6363(3) 0.7247(5) 0.9304(4)
O1_46 O 0.6659(4) 0.7090(5) 0.9455(5)
O2_46 O 0.6391(4) 0.7435(5) 0.9000(4)
O3_46 O 0.6028(4) 0.7169(6) 0.9444(5)
N1_47 N 0.1363(3) 0.7753(5) 0.0696(4)
O1_47 O 0.1659(4) 0.7910(5) 0.0545(5)
O2_47 O 0.1391(4) 0.7565(5) 0.1000(4)
O3_47 O 0.1028(4) 0.7831(6) 0.0556(5)
N1_48 N 0.8637(3) 0.2753(5) 0.4304(4)
O1_48 O 0.8341(4) 0.2910(5) 0.4455(5)
O2_48 O 0.8609(4) 0.2565(5) 0.4000(4)
O3_48 O 0.8972(4) 0.2831(6) 0.4444(5)
Dy2 Dy 0.500000 -0.000000 -0.000000
O12 O 0.45391(16) 0.06879(17) 0.00127(15)
N14 N 0.31171(19) 0.17222(18) 0.19526(18)
C37 C 0.3794(3) 0.1346(3) 0.1184(2)
N15 N 0.3562(2) 0.1581(2) 0.14746(19)
C38 C 0.3939(3) 0.1526(3) 0.0844(3)
H25 H 0.389121 0.180160 0.079206
C39 C 0.4067(4) 0.0701(4) 0.0999(3)
H26 H 0.410575 0.042389 0.104915
C40 C 0.4169(3) 0.1280(3) 0.0567(3)
H27 H 0.427609 0.139219 0.032970
C41 C 0.3853(3) 0.0934(3) 0.1266(3)
H28 H 0.374510 0.081864 0.150266
C42 C 0.4228(3) 0.0879(3) 0.0655(3)
C43 C 0.3238(2) 0.1442(2) 0.1692(2)
H29 H 0.311853 0.118589 0.166109
C44 C 0.3641(2) 0.1959(2) 0.1620(2)
H30 H 0.385176 0.212688 0.153048
O13 O 0.4433(5) 0.0184(4) 0.0429(4)
C45 C 0.4385(7) 0.0554(7) 0.0336(7)
N16 N 0.33769(17) 0.20550(17) 0.19063(17)
O16 O 0.56879(17) 0.00127(15) 0.04609(16)
N20 N 0.67222(18) 0.19526(18) 0.18829(19)
C55 C 0.6346(3) 0.1184(2) 0.1206(3)
N21 N 0.6581(2) 0.14746(19) 0.1438(2)
C56 C 0.6526(3) 0.0844(3) 0.1061(3)
H37 H 0.680160 0.079206 0.110879
C57 C 0.5701(4) 0.0999(3) 0.0933(4)
H38 H 0.542389 0.104915 0.089425
C58 C 0.6280(3) 0.0567(3) 0.0831(3)
H39 H 0.639219 0.032970 0.072391
C59 C 0.5934(3) 0.1266(3) 0.1147(3)
H40 H 0.581864 0.150266 0.125490
C60 C 0.5879(3) 0.0655(3) 0.0772(3)
C61 C 0.6442(2) 0.1692(2) 0.1762(2)
H41 H 0.618589 0.166109 0.188147
C62 C 0.6959(2) 0.1620(2) 0.1359(2)
H42 H 0.712688 0.153048 0.114824
O17 O 0.5184(4) 0.0429(4) 0.0567(5)
C63 C 0.5554(7) 0.0336(7) 0.0615(7)
N22 N 0.70550(17) 0.19063(17) 0.16231(17)
Cu4 Cu 0.27497(3) 0.16822(3) 0.24307(3)
N26 N 0.19187(18) 0.13764(17) 0.22080(18)
N27 N 0.22587(18) 0.13380(17) 0.24608(17)
N28 N 0.18166(19) 0.08617(18) 0.26196(18)
C73 C 0.2186(2) 0.1029(2) 0.2704(2)
H49 H 0.236316 0.093675 0.290610
C74 C 0.1613(2) 0.0538(2) 0.2839(2)
C75 C 0.1845(3) 0.0237(2) 0.3009(3)
H50 H 0.212577 0.022546 0.296597
C76 C 0.1664(2) 0.1086(2) 0.2309(2)
H51 H 0.141291 0.104088 0.218373
C77 C 0.1203(2) 0.0546(3) 0.2876(3)
H52 H 0.105367 0.074658 0.274108
C79 C 0.1002(3) 0.0259(3) 0.3115(3)
H54 H 0.071893 0.026307 0.314190
Cu6 Cu 0.24307(3) 0.27497(3) 0.16822(3)
N32 N 0.22080(18) 0.19187(18) 0.13764(17)
N33 N 0.24608(17) 0.22587(18) 0.13380(17)
N34 N 0.26196(18) 0.18166(19) 0.08617(18)
C91 C 0.2704(2) 0.2186(2) 0.1029(2)
H61 H 0.290610 0.236316 0.093675
C92 C 0.2839(2) 0.1613(2) 0.0538(2)
C93 C 0.3009(3) 0.1845(3) 0.0237(2)
H62 H 0.296597 0.212577 0.022546
C94 C 0.2309(2) 0.1664(2) 0.1086(2)
H63 H 0.218373 0.141291 0.104088
C95 C 0.2876(3) 0.1203(2) 0.0546(3)
H64 H 0.274108 0.105367 0.074658
C97 C 0.3115(3) 0.1002(3) 0.0259(3)
H66 H 0.314190 0.071893 0.026307
I4 I 0.250000 0.250000 0.250000
Cu10 Cu 0.18341(3) 0.18341(3) 0.18341(3)
Cu11 Cu 0.75693(3) 0.22503(3) 0.16822(3)
Cu15 Cu 0.66822(3) 0.24307(3) 0.22503(3)
Cu16 Cu 0.33178(3) 0.25693(3) 0.22503(3)
N41 N 0.29450(17) 0.30937(17) 0.16231(17)
N43 N 0.30937(17) 0.16231(17) 0.29450(17)
N49 N 0.19526(18) 0.31171(19) 0.17222(18)
Dy1 Dy 0.43102(2) 0.06898(2) 0.93102(2)
Dy2_2 Dy 0.500000 -0.000000 1.000000
O14 O 0.50127(15) 0.04609(16) 0.93121(17)
N17 N 0.69526(18) 0.18829(19) 0.82778(18)
C46 C 0.6184(2) 0.1206(3) 0.8654(3)
N18 N 0.64746(19) 0.1438(2) 0.8419(2)
C47 C 0.5844(3) 0.1061(3) 0.8474(3)
H31 H 0.579206 0.110879 0.819840
C48 C 0.5999(3) 0.0933(4) 0.9299(4)
H32 H 0.604915 0.089425 0.957611
C49 C 0.5567(3) 0.0831(3) 0.8720(3)
H33 H 0.532970 0.072391 0.860781
C50 C 0.6266(3) 0.1147(3) 0.9066(3)
H34 H 0.650266 0.125490 0.918136
C51 C 0.5655(3) 0.0772(3) 0.9121(3)
C52 C 0.6692(2) 0.1762(2) 0.8558(2)
H35 H 0.666109 0.188147 0.881411
C53 C 0.6620(2) 0.1359(2) 0.8041(2)
H36 H 0.653048 0.114824 0.787312
O15 O 0.5429(4) 0.0567(5) 0.9816(4)
C54 C 0.5336(7) 0.0615(7) 0.9446(7)
N19 N 0.69063(17) 0.16231(17) 0.79450(17)
Cu5 Cu 0.66822(3) 0.25693(3) 0.72503(3)
O22 O 0.44519(15) 0.11716(16) 0.87607(16)
O23 O 0.47281(16) 0.13117(16) 0.93510(15)
N29 N 0.63764(17) 0.27920(18) 0.80813(18)
N30 N 0.63380(17) 0.25392(17) 0.77413(18)
N31 N 0.58617(18) 0.23804(18) 0.81834(19)
C82 C 0.6029(2) 0.2296(2) 0.7814(2)
H55 H 0.593675 0.209390 0.763684
C83 C 0.5538(2) 0.2161(2) 0.8387(2)
C84 C 0.5237(2) 0.1991(3) 0.8155(3)
H56 H 0.522546 0.203403 0.787423
C85 C 0.6086(2) 0.2691(2) 0.8336(2)
H57 H 0.604088 0.281627 0.858709
C86 C 0.5546(3) 0.2124(3) 0.8797(2)
H58 H 0.574658 0.225892 0.894633
C87 C 0.4944(2) 0.1750(3) 0.8355(3)
H59 H 0.473332 0.163041 0.820643
C88 C 0.5259(3) 0.1885(3) 0.8998(3)
H60 H 0.526307 0.185810 0.928107
C89 C 0.4969(2) 0.1690(2) 0.8767(2)
C90 C 0.4695(2) 0.1379(2) 0.8968(2)
O24 O 0.38284(16) 0.12393(16) 0.94519(15)
O25 O 0.36883(16) 0.06490(15) 0.97281(16)
C96 C 0.3250(3) 0.1645(3) 0.9944(2)
H65 H 0.336959 0.179357 0.973332
C98 C 0.3310(2) 0.1233(2) 0.9969(2)
C99 C 0.3621(2) 0.1032(2) 0.9695(2)
O26 O 0.37607(16) 0.05481(15) 0.88284(16)
O27 O 0.43510(15) 0.02719(16) 0.86883(16)
C105 C 0.3355(3) 0.0056(2) 0.8250(3)
H71 H 0.320643 0.026668 0.836959
C107 C 0.3767(2) 0.0031(2) 0.8310(2)
C108 C 0.3968(2) 0.0305(2) 0.8621(2)
I3 I 0.750000 0.250000 0.750000
Cu9 Cu 0.68341(3) 0.31659(3) 0.81659(3)
Cu13 Cu 0.74307(3) 0.22503(3) 0.83178(3)
Cu20 Cu 0.72503(3) 0.16822(3) 0.74307(3)
N45 N 0.66231(17) 0.20550(17) 0.69063(17)
N47 N 0.67222(18) 0.30474(18) 0.68829(19)
Dy2_3 Dy 0.500000 1.000000 -0.000000
O10 O 0.49873(15) 0.95391(16) 0.06879(17)
N11 N 0.30474(18) 0.81171(19) 0.17222(18)
C28 C 0.3816(2) 0.8794(3) 0.1346(3)
N12 N 0.35254(19) 0.8562(2) 0.1581(2)
C29 C 0.4156(3) 0.8939(3) 0.1526(3)
H19 H 0.420794 0.889121 0.180160
C30 C 0.4001(3) 0.9067(4) 0.0701(4)
H20 H 0.395085 0.910575 0.042389
C31 C 0.4433(3) 0.9169(3) 0.1280(3)
H21 H 0.467030 0.927609 0.139219
C32 C 0.3734(3) 0.8853(3) 0.0934(3)
H22 H 0.349734 0.874510 0.081864
C33 C 0.4345(3) 0.9228(3) 0.0879(3)
C34 C 0.3308(2) 0.8238(2) 0.1442(2)
H23 H 0.333891 0.811853 0.118589
C35 C 0.3380(2) 0.8641(2) 0.1959(2)
H24 H 0.346952 0.885176 0.212688
O11 O 0.4571(4) 0.9433(5) 0.0184(4)
C36 C 0.4664(7) 0.9385(7) 0.0554(7)
N13 N 0.30937(17) 0.83769(17) 0.20550(17)
O20 O 0.12393(16) 0.94519(15) 0.38284(16)
O21 O 0.06490(15) 0.97281(16) 0.36883(16)
C78 C 0.1645(3) 0.9944(2) 0.3250(3)
H53 H 0.179357 0.973332 0.336959
C80 C 0.1233(2) 0.9969(2) 0.3310(2)
C81 C 0.1032(2) 0.9695(2) 0.3621(2)
Dy3 Dy 0.56898(2) 0.93102(2) 0.06898(2)
Dy6 Dy 0.06898(2) 0.93102(2) 0.43102(2)
Cu12 Cu 0.27497(3) 0.83178(3) 0.25693(3)
Cu22 Cu 0.25693(3) 0.77497(3) 0.16822(3)
O28 O 0.55481(15) 0.88284(16) 0.12393(16)
O29 O 0.62393(16) 0.94519(15) 0.11716(16)
O30 O 0.61716(16) 0.87607(16) 0.05481(15)
O31 O 0.52719(16) 0.86883(16) 0.06490(15)
O32 O 0.56490(15) 0.97281(16) 0.13117(16)
O33 O 0.63117(16) 0.93510(15) 0.02719(16)
Dy2_4 Dy 0.500000 1.000000 1.000000
I1 I 0.250000 0.750000 0.750000
Cu1 Cu 0.31659(3) 0.81659(3) 0.68341(3)
Cu2 Cu 0.33178(3) 0.75693(3) 0.77497(3)
O4 O 0.55481(15) 0.61716(16) 0.62393(16)
O5 O 0.52719(16) 0.63117(16) 0.56490(15)
N2 N 0.36236(17) 0.77920(18) 0.69187(18)
O6 O 0.43121(17) 0.99873(15) 0.95391(16)
N3 N 0.29450(17) 0.80937(17) 0.83769(17)
N4 N 0.36620(17) 0.75392(17) 0.72587(18)
N5 N 0.32778(18) 0.80474(18) 0.81171(19)
N6 N 0.41383(18) 0.73804(18) 0.68166(19)
C1 C 0.3654(3) 0.8816(2) 0.8794(3)
N7 N 0.3419(2) 0.85254(19) 0.8562(2)
C2 C 0.3971(2) 0.7296(2) 0.7186(2)
H1 H 0.406325 0.709390 0.736316
C3 C 0.4462(2) 0.7161(2) 0.6613(2)
C4 C 0.4763(2) 0.6991(3) 0.6845(3)
H2 H 0.477454 0.703403 0.712577
C5 C 0.3914(2) 0.7691(2) 0.6664(2)
H3 H 0.395912 0.781627 0.641291
C6 C 0.4454(3) 0.7124(3) 0.6203(2)
H4 H 0.425342 0.725892 0.605367
C7 C 0.5056(2) 0.6750(3) 0.6645(3)
H5 H 0.526668 0.663041 0.679357
C8 C 0.4741(3) 0.6885(3) 0.6002(3)
H6 H 0.473693 0.685810 0.571893
C9 C 0.3474(3) 0.9156(3) 0.8939(3)
H7 H 0.319840 0.920794 0.889121
C10 C 0.4299(4) 0.9001(3) 0.9067(4)
H8 H 0.457611 0.895085 0.910575
C11 C 0.3720(3) 0.9433(3) 0.9169(3)
H9 H 0.360781 0.967030 0.927609
C12 C 0.4066(3) 0.8734(3) 0.8853(3)
H10 H 0.418136 0.849734 0.874510
C13 C 0.5031(2) 0.6690(2) 0.6233(2)
C14 C 0.4121(3) 0.9345(3) 0.9228(3)
C15 C 0.5305(2) 0.6379(2) 0.6032(2)
C16 C 0.3558(2) 0.8308(2) 0.8238(2)
H11 H 0.381411 0.833891 0.811853
C17 C 0.3041(2) 0.8380(2) 0.8641(2)
H12 H 0.287312 0.846952 0.885176
O7 O 0.4816(4) 0.9571(4) 0.9433(5)
C18 C 0.4446(7) 0.9664(7) 0.9385(7)
O8 O 0.54609(16) 0.93121(17) 0.99873(15)
N8 N 0.68829(19) 0.82778(18) 0.80474(18)
C19 C 0.6206(3) 0.8654(3) 0.8816(2)
N9 N 0.6438(2) 0.8419(2) 0.85254(19)
C20 C 0.6061(3) 0.8474(3) 0.9156(3)
H13 H 0.610879 0.819840 0.920794
C21 C 0.5933(4) 0.9299(4) 0.9001(3)
H14 H 0.589425 0.957611 0.895085
C22 C 0.5831(3) 0.8720(3) 0.9433(3)
H15 H 0.572391 0.860781 0.967030
C23 C 0.6147(3) 0.9066(3) 0.8734(3)
H16 H 0.625490 0.918136 0.849734
C24 C 0.5772(3) 0.9121(3) 0.9345(3)
C25 C 0.6762(2) 0.8558(2) 0.8308(2)
H17 H 0.688147 0.881411 0.833891
C26 C 0.6359(2) 0.8041(2) 0.8380(2)
H18 H 0.614824 0.787312 0.846952
O9 O 0.5567(5) 0.9816(4) 0.9571(4)
C27 C 0.5615(7) 0.9446(7) 0.9664(7)
N10 N 0.66231(17) 0.79450(17) 0.80937(17)
Cu3 Cu 0.66822(3) 0.74307(3) 0.77497(3)
O18 O 0.44519(15) 0.88284(16) 0.62393(16)
O19 O 0.47281(16) 0.86883(16) 0.56490(15)
N23 N 0.63764(17) 0.72080(18) 0.69187(18)
N24 N 0.63380(17) 0.74608(17) 0.72587(18)
N25 N 0.58617(18) 0.76196(18) 0.68166(19)
C64 C 0.6029(2) 0.7704(2) 0.7186(2)
H43 H 0.593675 0.790610 0.736316
C65 C 0.5538(2) 0.7839(2) 0.6613(2)
C66 C 0.5237(2) 0.8009(3) 0.6845(3)
H44 H 0.522546 0.796597 0.712577
C67 C 0.6086(2) 0.7309(2) 0.6664(2)
H45 H 0.604088 0.718373 0.641291
C68 C 0.5546(3) 0.7876(3) 0.6203(2)
H46 H 0.574658 0.774108 0.605367
C69 C 0.4944(2) 0.8250(3) 0.6645(3)
H47 H 0.473332 0.836959 0.679357
C70 C 0.5259(3) 0.8115(3) 0.6002(3)
H48 H 0.526307 0.814190 0.571893
C71 C 0.4969(2) 0.8310(2) 0.6233(2)
C72 C 0.4695(2) 0.8621(2) 0.6032(2)
Cu7 Cu 0.22503(3) 0.83178(3) 0.74307(3)
N35 N 0.30813(18) 0.86236(17) 0.72080(18)
N36 N 0.27413(18) 0.86620(17) 0.74608(17)
N37 N 0.31834(19) 0.91383(18) 0.76196(18)
C100 C 0.2814(2) 0.8971(2) 0.7704(2)
H67 H 0.263684 0.906325 0.790610
C101 C 0.3387(2) 0.9462(2) 0.7839(2)
C102 C 0.3155(3) 0.9763(2) 0.8009(3)
H68 H 0.287423 0.977454 0.796597
C103 C 0.3336(2) 0.8914(2) 0.7309(2)
H69 H 0.358709 0.895912 0.718373
C104 C 0.3797(2) 0.9454(3) 0.7876(3)
H70 H 0.394633 0.925342 0.774108
C106 C 0.3998(3) 0.9741(3) 0.8115(3)
H72 H 0.428107 0.973693 0.814190
Cu8 Cu 0.68341(3) 0.68341(3) 0.68341(3)
Dy4 Dy 0.43102(2) 0.93102(2) 0.56898(2)
Dy5 Dy 0.56898(2) 0.56898(2) 0.56898(2)
I2 I 0.750000 0.750000 0.750000
Cu14 Cu 0.25693(3) 0.72503(3) 0.66822(3)
Cu17 Cu 0.27497(3) 0.66822(3) 0.75693(3)
Cu18 Cu 0.24307(3) 0.77497(3) 0.83178(3)
Cu19 Cu 0.16822(3) 0.74307(3) 0.72503(3)
Cu21 Cu 0.72503(3) 0.83178(3) 0.75693(3)
N38 N 0.69187(18) 0.63764(17) 0.72080(18)
N39 N 0.72080(18) 0.69187(18) 0.63764(17)
N40 N 0.27920(18) 0.80813(18) 0.63764(17)
N42 N 0.33769(17) 0.70550(17) 0.80937(17)
N44 N 0.19063(17) 0.83769(17) 0.79450(17)
N46 N 0.67222(18) 0.69526(18) 0.81171(19)
N48 N 0.18829(19) 0.82778(18) 0.69526(18)
Dy2_5 Dy 0.500000 0.500000 -0.000000
O10_2 O 0.50127(15) 0.54609(16) 0.06879(17)
N11_2 N 0.69526(18) 0.68829(19) 0.17222(18)
C28_2 C 0.6184(2) 0.6206(3) 0.1346(3)
N12_2 N 0.64746(19) 0.6438(2) 0.1581(2)
C29_2 C 0.5844(3) 0.6061(3) 0.1526(3)
H19_2 H 0.579206 0.610879 0.180160
C30_2 C 0.5999(3) 0.5933(4) 0.0701(4)
H20_2 H 0.604915 0.589425 0.042389
C31_2 C 0.5567(3) 0.5831(3) 0.1280(3)
H21_2 H 0.532970 0.572391 0.139219
C32_2 C 0.6266(3) 0.6147(3) 0.0934(3)
H22_2 H 0.650266 0.625490 0.081864
C33_2 C 0.5655(3) 0.5772(3) 0.0879(3)
C34_2 C 0.6692(2) 0.6762(2) 0.1442(2)
H23_2 H 0.666109 0.688147 0.118589
C35_2 C 0.6620(2) 0.6359(2) 0.1959(2)
H24_2 H 0.653048 0.614824 0.212688
O11_2 O 0.5429(4) 0.5567(5) 0.0184(4)
C36_2 C 0.5336(7) 0.5615(7) 0.0554(7)
N13_2 N 0.69063(17) 0.66231(17) 0.20550(17)
O12_2 O 0.54609(16) 0.43121(17) 0.00127(15)
N14_2 N 0.68829(19) 0.32778(18) 0.19526(18)
C37_2 C 0.6206(3) 0.3654(3) 0.1184(2)
N15_2 N 0.6438(2) 0.3419(2) 0.14746(19)
C38_2 C 0.6061(3) 0.3474(3) 0.0844(3)
H25_2 H 0.610879 0.319840 0.079206
C39_2 C 0.5933(4) 0.4299(4) 0.0999(3)
H26_2 H 0.589425 0.457611 0.104915
C40_2 C 0.5831(3) 0.3720(3) 0.0567(3)
H27_2 H 0.572391 0.360781 0.032970
C41_2 C 0.6147(3) 0.4066(3) 0.1266(3)
H28_2 H 0.625490 0.418136 0.150266
C42_2 C 0.5772(3) 0.4121(3) 0.0655(3)
C43_2 C 0.6762(2) 0.3558(2) 0.1692(2)
H29_2 H 0.688147 0.381411 0.166109
C44_2 C 0.6359(2) 0.3041(2) 0.1620(2)
H30_2 H 0.614824 0.287312 0.153048
O13_2 O 0.5567(5) 0.4816(4) 0.0429(4)
C45_2 C 0.5615(7) 0.4446(7) 0.0336(7)
N16_2 N 0.66231(17) 0.29450(17) 0.19063(17)
O16_2 O 0.43121(17) 0.49873(15) 0.04609(16)
N20_2 N 0.32778(18) 0.30474(18) 0.18829(19)
C55_2 C 0.3654(3) 0.3816(2) 0.1206(3)
N21_2 N 0.3419(2) 0.35254(19) 0.1438(2)
C56_2 C 0.3474(3) 0.4156(3) 0.1061(3)
H37_2 H 0.319840 0.420794 0.110879
C57_2 C 0.4299(4) 0.4001(3) 0.0933(4)
H38_2 H 0.457611 0.395085 0.089425
C58_2 C 0.3720(3) 0.4433(3) 0.0831(3)
H39_2 H 0.360781 0.467030 0.072391
C59_2 C 0.4066(3) 0.3734(3) 0.1147(3)
H40_2 H 0.418136 0.349734 0.125490
C60_2 C 0.4121(3) 0.4345(3) 0.0772(3)
C61_2 C 0.3558(2) 0.3308(2) 0.1762(2)
H41_2 H 0.381411 0.333891 0.188147
C62_2 C 0.3041(2) 0.3380(2) 0.1359(2)
H42_2 H 0.287312 0.346952 0.114824
O17_2 O 0.4816(4) 0.4571(4) 0.0567(5)
C63_2 C 0.4446(7) 0.4664(7) 0.0615(7)
Cu4_2 Cu 0.72503(3) 0.33178(3) 0.24307(3)
O20_2 O 0.87607(16) 0.55481(15) 0.38284(16)
O21_2 O 0.93510(15) 0.52719(16) 0.36883(16)
N26_2 N 0.80813(18) 0.36236(17) 0.22080(18)
N27_2 N 0.77413(18) 0.36620(17) 0.24608(17)
N28_2 N 0.81834(19) 0.41383(18) 0.26196(18)
C73_2 C 0.7814(2) 0.3971(2) 0.2704(2)
H49_2 H 0.763684 0.406325 0.290610
C74_2 C 0.8387(2) 0.4462(2) 0.2839(2)
C75_2 C 0.8155(3) 0.4763(2) 0.3009(3)
H50_2 H 0.787423 0.477454 0.296597
C76_2 C 0.8336(2) 0.3914(2) 0.2309(2)
H51_2 H 0.858709 0.395912 0.218373
C77_2 C 0.8797(2) 0.4454(3) 0.2876(3)
H52_2 H 0.894633 0.425342 0.274108
C78_2 C 0.8355(3) 0.5056(2) 0.3250(3)
H53_2 H 0.820643 0.526668 0.336959
C79_2 C 0.8998(3) 0.4741(3) 0.3115(3)
H54_2 H 0.928107 0.473693 0.314190
C80_2 C 0.8767(2) 0.5031(2) 0.3310(2)
C81_2 C 0.8968(2) 0.5305(2) 0.3621(2)
Dy3_2 Dy 0.43102(2) 0.56898(2) 0.06898(2)
N32_2 N 0.77920(18) 0.30813(18) 0.13764(17)
N33_2 N 0.75392(17) 0.27413(18) 0.13380(17)
N34_2 N 0.73804(18) 0.31834(19) 0.08617(18)
C91_2 C 0.7296(2) 0.2814(2) 0.1029(2)
H61_2 H 0.709390 0.263684 0.093675
C92_2 C 0.7161(2) 0.3387(2) 0.0538(2)
C93_2 C 0.6991(3) 0.3155(3) 0.0237(2)
H62_2 H 0.703403 0.287423 0.022546
C94_2 C 0.7691(2) 0.3336(2) 0.1086(2)
H63_2 H 0.781627 0.358709 0.104088
C95_2 C 0.7124(3) 0.3797(2) 0.0546(3)
H64_2 H 0.725892 0.394633 0.074658
C97_2 C 0.6885(3) 0.3998(3) 0.0259(3)
H66_2 H 0.685810 0.428107 0.026307
Dy6_2 Dy 0.93102(2) 0.56898(2) 0.43102(2)
I4_2 I 0.750000 0.250000 0.250000
Cu10_2 Cu 0.81659(3) 0.31659(3) 0.18341(3)
Cu12_2 Cu 0.72503(3) 0.66822(3) 0.25693(3)
Cu22_2 Cu 0.74307(3) 0.72503(3) 0.16822(3)
O28_2 O 0.44519(15) 0.61716(16) 0.12393(16)
O29_2 O 0.37607(16) 0.55481(15) 0.11716(16)
O30_2 O 0.38284(16) 0.62393(16) 0.05481(15)
O31_2 O 0.47281(16) 0.63117(16) 0.06490(15)
O32_2 O 0.43510(15) 0.52719(16) 0.13117(16)
O33_2 O 0.36883(16) 0.56490(15) 0.02719(16)
N43_2 N 0.69063(17) 0.33769(17) 0.29450(17)
N49_2 N 0.80474(18) 0.18829(19) 0.17222(18)
Dy1_2 Dy 0.56898(2) 0.43102(2) 0.93102(2)
Dy2_6 Dy 0.500000 0.500000 1.000000
O6_2 O 0.56879(17) 0.50127(15) 0.95391(16)
N3_2 N 0.70550(17) 0.69063(17) 0.83769(17)
C1_2 C 0.6346(3) 0.6184(2) 0.8794(3)
N7_2 N 0.6581(2) 0.64746(19) 0.8562(2)
C9_2 C 0.6526(3) 0.5844(3) 0.8939(3)
H7_2 H 0.680160 0.579206 0.889121
C10_2 C 0.5701(4) 0.5999(3) 0.9067(4)
H8_2 H 0.542389 0.604915 0.910575
C11_2 C 0.6280(3) 0.5567(3) 0.9169(3)
H9_2 H 0.639219 0.532970 0.927609
C12_2 C 0.5934(3) 0.6266(3) 0.8853(3)
H10_2 H 0.581864 0.650266 0.874510
C14_2 C 0.5879(3) 0.5655(3) 0.9228(3)
C16_2 C 0.6442(2) 0.6692(2) 0.8238(2)
H11_2 H 0.618589 0.666109 0.811853
C17_2 C 0.6959(2) 0.6620(2) 0.8641(2)
H12_2 H 0.712688 0.653048 0.885176
O7_2 O 0.5184(4) 0.5429(4) 0.9433(5)
C18_2 C 0.5554(7) 0.5336(7) 0.9385(7)
O8_2 O 0.45391(16) 0.56879(17) 0.99873(15)
N8_2 N 0.31171(19) 0.67222(18) 0.80474(18)
C19_2 C 0.3794(3) 0.6346(3) 0.8816(2)
N9_2 N 0.3562(2) 0.6581(2) 0.85254(19)
C20_2 C 0.3939(3) 0.6526(3) 0.9156(3)
H13_2 H 0.389121 0.680160 0.920794
C21_2 C 0.4067(4) 0.5701(4) 0.9001(3)
H14_2 H 0.410575 0.542389 0.895085
C22_2 C 0.4169(3) 0.6280(3) 0.9433(3)
H15_2 H 0.427609 0.639219 0.967030
C23_2 C 0.3853(3) 0.5934(3) 0.8734(3)
H16_2 H 0.374510 0.581864 0.849734
C24_2 C 0.4228(3) 0.5879(3) 0.9345(3)
C25_2 C 0.3238(2) 0.6442(2) 0.8308(2)
H17_2 H 0.311853 0.618589 0.833891
C26_2 C 0.3641(2) 0.6959(2) 0.8380(2)
H18_2 H 0.385176 0.712688 0.846952
O9_2 O 0.4433(5) 0.5184(4) 0.9571(4)
C27_2 C 0.4385(7) 0.5554(7) 0.9664(7)
O14_2 O 0.49873(15) 0.45391(16) 0.93121(17)
N17_2 N 0.30474(18) 0.31171(19) 0.82778(18)
C46_2 C 0.3816(2) 0.3794(3) 0.8654(3)
N18_2 N 0.35254(19) 0.3562(2) 0.8419(2)
C47_2 C 0.4156(3) 0.3939(3) 0.8474(3)
H31_2 H 0.420794 0.389121 0.819840
C48_2 C 0.4001(3) 0.4067(4) 0.9299(4)
H32_2 H 0.395085 0.410575 0.957611
C49_2 C 0.4433(3) 0.4169(3) 0.8720(3)
H33_2 H 0.467030 0.427609 0.860781
C50_2 C 0.3734(3) 0.3853(3) 0.9066(3)
H34_2 H 0.349734 0.374510 0.918136
C51_2 C 0.4345(3) 0.4228(3) 0.9121(3)
C52_2 C 0.3308(2) 0.3238(2) 0.8558(2)
H35_2 H 0.333891 0.311853 0.881411
C53_2 C 0.3380(2) 0.3641(2) 0.8041(2)
H36_2 H 0.346952 0.385176 0.787312
O15_2 O 0.4571(4) 0.4433(5) 0.9816(4)
C54_2 C 0.4664(7) 0.4385(7) 0.9446(7)
N19_2 N 0.30937(17) 0.33769(17) 0.79450(17)
Cu5_2 Cu 0.33178(3) 0.24307(3) 0.72503(3)
O22_2 O 0.55481(15) 0.38284(16) 0.87607(16)
O23_2 O 0.52719(16) 0.36883(16) 0.93510(15)
N29_2 N 0.36236(17) 0.22080(18) 0.80813(18)
N30_2 N 0.36620(17) 0.24608(17) 0.77413(18)
N31_2 N 0.41383(18) 0.26196(18) 0.81834(19)
C82_2 C 0.3971(2) 0.2704(2) 0.7814(2)
H55_2 H 0.406325 0.290610 0.763684
C83_2 C 0.4462(2) 0.2839(2) 0.8387(2)
C84_2 C 0.4763(2) 0.3009(3) 0.8155(3)
H56_2 H 0.477454 0.296597 0.787423
C85_2 C 0.3914(2) 0.2309(2) 0.8336(2)
H57_2 H 0.395912 0.218373 0.858709
C86_2 C 0.4454(3) 0.2876(3) 0.8797(2)
H58_2 H 0.425342 0.274108 0.894633
C87_2 C 0.5056(2) 0.3250(3) 0.8355(3)
H59_2 H 0.526668 0.336959 0.820643
C88_2 C 0.4741(3) 0.3115(3) 0.8998(3)
H60_2 H 0.473693 0.314190 0.928107
C89_2 C 0.5031(2) 0.3310(2) 0.8767(2)
C90_2 C 0.5305(2) 0.3621(2) 0.8968(2)
O24_2 O 0.61716(16) 0.37607(16) 0.94519(15)
O25_2 O 0.63117(16) 0.43510(15) 0.97281(16)
C96_2 C 0.6750(3) 0.3355(3) 0.9944(2)
H65_2 H 0.663041 0.320643 0.973332
C98_2 C 0.6690(2) 0.3767(2) 0.9969(2)
C99_2 C 0.6379(2) 0.3968(2) 0.9695(2)
Cu7_2 Cu 0.77497(3) 0.66822(3) 0.74307(3)
O26_2 O 0.62393(16) 0.44519(15) 0.88284(16)
O27_2 O 0.56490(15) 0.47281(16) 0.86883(16)
N36_2 N 0.72587(18) 0.63380(17) 0.74608(17)
N37_2 N 0.68166(19) 0.58617(18) 0.76196(18)
C100_2 C 0.7186(2) 0.6029(2) 0.7704(2)
H67_2 H 0.736316 0.593675 0.790610
C101_2 C 0.6613(2) 0.5538(2) 0.7839(2)
C102_2 C 0.6845(3) 0.5237(2) 0.8009(3)
H68_2 H 0.712577 0.522546 0.796597
C103_2 C 0.6664(2) 0.6086(2) 0.7309(2)
H69_2 H 0.641291 0.604088 0.718373
C104_2 C 0.6203(2) 0.5546(3) 0.7876(3)
H70_2 H 0.605367 0.574658 0.774108
C105_2 C 0.6645(3) 0.4944(2) 0.8250(3)
H71_2 H 0.679357 0.473332 0.836959
C106_2 C 0.6002(3) 0.5259(3) 0.8115(3)
H72_2 H 0.571893 0.526307 0.814190
C107_2 C 0.6233(2) 0.4969(2) 0.8310(2)
C108_2 C 0.6032(2) 0.4695(2) 0.8621(2)
I3_2 I 0.250000 0.250000 0.750000
Cu9_2 Cu 0.31659(3) 0.18341(3) 0.81659(3)
Cu13_2 Cu 0.25693(3) 0.27497(3) 0.83178(3)
Cu14_2 Cu 0.74307(3) 0.77497(3) 0.66822(3)
Cu18_2 Cu 0.75693(3) 0.72503(3) 0.83178(3)
Cu19_2 Cu 0.83178(3) 0.75693(3) 0.72503(3)
Cu20_2 Cu 0.27497(3) 0.33178(3) 0.74307(3)
N44_2 N 0.80937(17) 0.66231(17) 0.79450(17)
N45_2 N 0.33769(17) 0.29450(17) 0.69063(17)
N47_2 N 0.32778(18) 0.19526(18) 0.68829(19)
N48_2 N 0.81171(19) 0.67222(18) 0.69526(18)
Dy2_7 Dy 0.500000 0.000000 0.500000
O6_3 O 0.43121(17) 0.00127(15) 0.54609(16)
N3_3 N 0.29450(17) 0.19063(17) 0.66231(17)
C1_3 C 0.3654(3) 0.1184(2) 0.6206(3)
N7_3 N 0.3419(2) 0.14746(19) 0.6438(2)
C9_3 C 0.3474(3) 0.0844(3) 0.6061(3)
H7_3 H 0.319840 0.079206 0.610879
C10_3 C 0.4299(4) 0.0999(3) 0.5933(4)
H8_3 H 0.457611 0.104915 0.589425
C11_3 C 0.3720(3) 0.0567(3) 0.5831(3)
H9_3 H 0.360781 0.032970 0.572391
C12_3 C 0.4066(3) 0.1266(3) 0.6147(3)
H10_3 H 0.418136 0.150266 0.625490
C14_3 C 0.4121(3) 0.0655(3) 0.5772(3)
C16_3 C 0.3558(2) 0.1692(2) 0.6762(2)
H11_3 H 0.381411 0.166109 0.688147
C17_3 C 0.3041(2) 0.1620(2) 0.6359(2)
H12_3 H 0.287312 0.153048 0.614824
O7_3 O 0.4816(4) 0.0429(4) 0.5567(5)
C18_3 C 0.4446(7) 0.0336(7) 0.5615(7)
O8_3 O 0.54609(16) 0.06879(17) 0.50127(15)
N8_3 N 0.68829(19) 0.17222(18) 0.69526(18)
C19_3 C 0.6206(3) 0.1346(3) 0.6184(2)
N9_3 N 0.6438(2) 0.1581(2) 0.64746(19)
C20_3 C 0.6061(3) 0.1526(3) 0.5844(3)
H13_3 H 0.610879 0.180160 0.579206
C21_3 C 0.5933(4) 0.0701(4) 0.5999(3)
H14_3 H 0.589425 0.042389 0.604915
C22_3 C 0.5831(3) 0.1280(3) 0.5567(3)
H15_3 H 0.572391 0.139219 0.532970
C23_3 C 0.6147(3) 0.0934(3) 0.6266(3)
H16_3 H 0.625490 0.081864 0.650266
C24_3 C 0.5772(3) 0.0879(3) 0.5655(3)
C25_3 C 0.6762(2) 0.1442(2) 0.6692(2)
H17_3 H 0.688147 0.118589 0.666109
C26_3 C 0.6359(2) 0.1959(2) 0.6620(2)
H18_3 H 0.614824 0.212688 0.653048
O9_3 O 0.5567(5) 0.0184(4) 0.5429(4)
C27_3 C 0.5615(7) 0.0554(7) 0.5336(7)
O10_3 O 0.49873(15) 0.04609(16) 0.43121(17)
N11_3 N 0.30474(18) 0.18829(19) 0.32778(18)
C28_3 C 0.3816(2) 0.1206(3) 0.3654(3)
N12_3 N 0.35254(19) 0.1438(2) 0.3419(2)
C29_3 C 0.4156(3) 0.1061(3) 0.3474(3)
H19_3 H 0.420794 0.110879 0.319840
C30_3 C 0.4001(3) 0.0933(4) 0.4299(4)
H20_3 H 0.395085 0.089425 0.457611
C31_3 C 0.4433(3) 0.0831(3) 0.3720(3)
H21_3 H 0.467030 0.072391 0.360781
C32_3 C 0.3734(3) 0.1147(3) 0.4066(3)
H22_3 H 0.349734 0.125490 0.418136
C33_3 C 0.4345(3) 0.0772(3) 0.4121(3)
C34_3 C 0.3308(2) 0.1762(2) 0.3558(2)
H23_3 H 0.333891 0.188147 0.381411
C35_3 C 0.3380(2) 0.1359(2) 0.3041(2)
H24_3 H 0.346952 0.114824 0.287312
O11_3 O 0.4571(4) 0.0567(5) 0.4816(4)
C36_3 C 0.4664(7) 0.0615(7) 0.4446(7)
O20_3 O 0.12393(16) 0.05481(15) 0.11716(16)
O21_3 O 0.06490(15) 0.02719(16) 0.13117(16)
C78_3 C 0.1645(3) 0.0056(2) 0.1750(3)
H53_3 H 0.179357 0.026668 0.163041
C80_3 C 0.1233(2) 0.0031(2) 0.1690(2)
C81_3 C 0.1032(2) 0.0305(2) 0.1379(2)
Dy3_3 Dy 0.56898(2) 0.06898(2) 0.43102(2)
Cu7_3 Cu 0.22503(3) 0.16822(3) 0.75693(3)
N35_2 N 0.30813(18) 0.13764(17) 0.77920(18)
N36_3 N 0.27413(18) 0.13380(17) 0.75392(17)
N37_3 N 0.31834(19) 0.08617(18) 0.73804(18)
C100_3 C 0.2814(2) 0.1029(2) 0.7296(2)
H67_3 H 0.263684 0.093675 0.709390
C101_3 C 0.3387(2) 0.0538(2) 0.7161(2)
C102_3 C 0.3155(3) 0.0237(2) 0.6991(3)
H68_3 H 0.287423 0.022546 0.703403
C103_3 C 0.3336(2) 0.1086(2) 0.7691(2)
H69_3 H 0.358709 0.104088 0.781627
C104_3 C 0.3797(2) 0.0546(3) 0.7124(3)
H70_3 H 0.394633 0.074658 0.725892
C106_3 C 0.3998(3) 0.0259(3) 0.6885(3)
H72_3 H 0.428107 0.026307 0.685810
Dy6_3 Dy 0.06898(2) 0.06898(2) 0.06898(2)
Cu18_3 Cu 0.24307(3) 0.22503(3) 0.66822(3)
Cu19_3 Cu 0.16822(3) 0.25693(3) 0.77497(3)
Cu22_3 Cu 0.25693(3) 0.22503(3) 0.33178(3)
O28_3 O 0.55481(15) 0.11716(16) 0.37607(16)
O29_3 O 0.62393(16) 0.05481(15) 0.38284(16)
O30_3 O 0.61716(16) 0.12393(16) 0.44519(15)
O31_3 O 0.52719(16) 0.13117(16) 0.43510(15)
O32_3 O 0.56490(15) 0.02719(16) 0.36883(16)
O33_3 O 0.63117(16) 0.06490(15) 0.47281(16)
N38_2 N 0.69187(18) 0.36236(17) 0.77920(18)
N39_2 N 0.72080(18) 0.30813(18) 0.86236(17)
N40_2 N 0.27920(18) 0.19187(18) 0.86236(17)
N44_3 N 0.19063(17) 0.16231(17) 0.70550(17)
N48_3 N 0.18829(19) 0.17222(18) 0.80474(18)
Dy2_8 Dy 0.500000 1.000000 0.500000
O12_3 O 0.45391(16) 0.93121(17) 0.49873(15)
N14_3 N 0.31171(19) 0.82778(18) 0.30474(18)
C37_3 C 0.3794(3) 0.8654(3) 0.3816(2)
N15_3 N 0.3562(2) 0.8419(2) 0.35254(19)
C38_3 C 0.3939(3) 0.8474(3) 0.4156(3)
H25_3 H 0.389121 0.819840 0.420794
C39_3 C 0.4067(4) 0.9299(4) 0.4001(3)
H26_3 H 0.410575 0.957611 0.395085
C40_3 C 0.4169(3) 0.8720(3) 0.4433(3)
H27_3 H 0.427609 0.860781 0.467030
C41_3 C 0.3853(3) 0.9066(3) 0.3734(3)
H28_3 H 0.374510 0.918136 0.349734
C42_3 C 0.4228(3) 0.9121(3) 0.4345(3)
C43_3 C 0.3238(2) 0.8558(2) 0.3308(2)
H29_3 H 0.311853 0.881411 0.333891
C44_3 C 0.3641(2) 0.8041(2) 0.3380(2)
H30_3 H 0.385176 0.787312 0.346952
O13_3 O 0.4433(5) 0.9816(4) 0.4571(4)
C45_3 C 0.4385(7) 0.9446(7) 0.4664(7)
N16_3 N 0.33769(17) 0.79450(17) 0.30937(17)
O14_3 O 0.50127(15) 0.95391(16) 0.56879(17)
N17_3 N 0.69526(18) 0.81171(19) 0.67222(18)
C46_3 C 0.6184(2) 0.8794(3) 0.6346(3)
N18_3 N 0.64746(19) 0.8562(2) 0.6581(2)
C47_3 C 0.5844(3) 0.8939(3) 0.6526(3)
H31_3 H 0.579206 0.889121 0.680160
C48_3 C 0.5999(3) 0.9067(4) 0.5701(4)
H32_3 H 0.604915 0.910575 0.542389
C49_3 C 0.5567(3) 0.9169(3) 0.6280(3)
H33_3 H 0.532970 0.927609 0.639219
C50_3 C 0.6266(3) 0.8853(3) 0.5934(3)
H34_3 H 0.650266 0.874510 0.581864
C51_3 C 0.5655(3) 0.9228(3) 0.5879(3)
C52_3 C 0.6692(2) 0.8238(2) 0.6442(2)
H35_3 H 0.666109 0.811853 0.618589
C53_3 C 0.6620(2) 0.8641(2) 0.6959(2)
H36_3 H 0.653048 0.885176 0.712688
O15_3 O 0.5429(4) 0.9433(5) 0.5184(4)
C54_3 C 0.5336(7) 0.9385(7) 0.5554(7)
N19_3 N 0.69063(17) 0.83769(17) 0.70550(17)
O16_3 O 0.56879(17) 0.99873(15) 0.45391(16)
N20_3 N 0.67222(18) 0.80474(18) 0.31171(19)
C55_3 C 0.6346(3) 0.8816(2) 0.3794(3)
N21_3 N 0.6581(2) 0.85254(19) 0.3562(2)
C56_3 C 0.6526(3) 0.9156(3) 0.3939(3)
H37_3 H 0.680160 0.920794 0.389121
C57_3 C 0.5701(4) 0.9001(3) 0.4067(4)
H38_3 H 0.542389 0.895085 0.410575
C58_3 C 0.6280(3) 0.9433(3) 0.4169(3)
H39_3 H 0.639219 0.967030 0.427609
C59_3 C 0.5934(3) 0.8734(3) 0.3853(3)
H40_3 H 0.581864 0.849734 0.374510
C60_3 C 0.5879(3) 0.9345(3) 0.4228(3)
C61_3 C 0.6442(2) 0.8308(2) 0.3238(2)
H41_3 H 0.618589 0.833891 0.311853
C62_3 C 0.6959(2) 0.8380(2) 0.3641(2)
H42_3 H 0.712688 0.846952 0.385176
O17_3 O 0.5184(4) 0.9571(4) 0.4433(5)
C63_3 C 0.5554(7) 0.9664(7) 0.4385(7)
N22_2 N 0.70550(17) 0.80937(17) 0.33769(17)
N26_3 N 0.19187(18) 0.86236(17) 0.27920(18)
N27_3 N 0.22587(18) 0.86620(17) 0.25392(17)
N28_3 N 0.18166(19) 0.91383(18) 0.23804(18)
C73_3 C 0.2186(2) 0.8971(2) 0.2296(2)
H49_3 H 0.236316 0.906325 0.209390
C74_3 C 0.1613(2) 0.9462(2) 0.2161(2)
C75_3 C 0.1845(3) 0.9763(2) 0.1991(3)
H50_3 H 0.212577 0.977454 0.203403
C76_3 C 0.1664(2) 0.8914(2) 0.2691(2)
H51_3 H 0.141291 0.895912 0.281627
C77_3 C 0.1203(2) 0.9454(3) 0.2124(3)
H52_3 H 0.105367 0.925342 0.225892
C79_3 C 0.1002(3) 0.9741(3) 0.1885(3)
H54_3 H 0.071893 0.973693 0.185810
Cu6_2 Cu 0.24307(3) 0.72503(3) 0.33178(3)
O24_3 O 0.38284(16) 0.87607(16) 0.55481(15)
O25_3 O 0.36883(16) 0.93510(15) 0.52719(16)
N32_3 N 0.22080(18) 0.80813(18) 0.36236(17)
N33_3 N 0.24608(17) 0.77413(18) 0.36620(17)
N34_3 N 0.26196(18) 0.81834(19) 0.41383(18)
C91_3 C 0.2704(2) 0.7814(2) 0.3971(2)
H61_3 H 0.290610 0.763684 0.406325
C92_3 C 0.2839(2) 0.8387(2) 0.4462(2)
C93_3 C 0.3009(3) 0.8155(3) 0.4763(2)
H62_3 H 0.296597 0.787423 0.477454
C94_3 C 0.2309(2) 0.8336(2) 0.3914(2)
H63_3 H 0.218373 0.858709 0.395912
C95_3 C 0.2876(3) 0.8797(2) 0.4454(3)
H64_3 H 0.274108 0.894633 0.425342
C96_3 C 0.3250(3) 0.8355(3) 0.5056(2)
H65_3 H 0.336959 0.820643 0.526668
C97_3 C 0.3115(3) 0.8998(3) 0.4741(3)
H66_3 H 0.314190 0.928107 0.473693
C98_3 C 0.3310(2) 0.8767(2) 0.5031(2)
C99_3 C 0.3621(2) 0.8968(2) 0.5305(2)
O26_3 O 0.37607(16) 0.94519(15) 0.61716(16)
O27_3 O 0.43510(15) 0.97281(16) 0.63117(16)
C105_3 C 0.3355(3) 0.9944(2) 0.6750(3)
H71_3 H 0.320643 0.973332 0.663041
C107_3 C 0.3767(2) 0.9969(2) 0.6690(2)
C108_3 C 0.3968(2) 0.9695(2) 0.6379(2)
I4_3 I 0.250000 0.750000 0.250000
Cu10_3 Cu 0.18341(3) 0.81659(3) 0.31659(3)
Cu11_2 Cu 0.75693(3) 0.77497(3) 0.33178(3)
Cu15_2 Cu 0.66822(3) 0.75693(3) 0.27497(3)
Cu16_2 Cu 0.33178(3) 0.74307(3) 0.27497(3)
N41_2 N 0.29450(17) 0.69063(17) 0.33769(17)
N49_3 N 0.19526(18) 0.68829(19) 0.32778(18)
Dy2_9 Dy -0.000000 0.500000 -0.000000
O12_4 O 0.00127(15) 0.45391(16) 0.06879(17)
C37_4 C 0.1184(2) 0.3794(3) 0.1346(3)
N15_4 N 0.14746(19) 0.3562(2) 0.1581(2)
C38_4 C 0.0844(3) 0.3939(3) 0.1526(3)
H25_4 H 0.079206 0.389121 0.180160
C39_4 C 0.0999(3) 0.4067(4) 0.0701(4)
H26_4 H 0.104915 0.410575 0.042389
C40_4 C 0.0567(3) 0.4169(3) 0.1280(3)
H27_4 H 0.032970 0.427609 0.139219
C41_4 C 0.1266(3) 0.3853(3) 0.0934(3)
H28_4 H 0.150266 0.374510 0.081864
C42_4 C 0.0655(3) 0.4228(3) 0.0879(3)
C43_4 C 0.1692(2) 0.3238(2) 0.1442(2)
H29_4 H 0.166109 0.311853 0.118589
C44_4 C 0.1620(2) 0.3641(2) 0.1959(2)
H30_4 H 0.153048 0.385176 0.212688
O13_4 O 0.0429(4) 0.4433(5) 0.0184(4)
C45_4 C 0.0336(7) 0.4385(7) 0.0554(7)
N16_4 N 0.19063(17) 0.33769(17) 0.20550(17)
O16_4 O 0.04609(16) 0.56879(17) 0.00127(15)
N20_4 N 0.18829(19) 0.67222(18) 0.19526(18)
C55_4 C 0.1206(3) 0.6346(3) 0.1184(2)
N21_4 N 0.1438(2) 0.6581(2) 0.14746(19)
C56_4 C 0.1061(3) 0.6526(3) 0.0844(3)
H37_4 H 0.110879 0.680160 0.079206
C57_4 C 0.0933(4) 0.5701(4) 0.0999(3)
H38_4 H 0.089425 0.542389 0.104915
C58_4 C 0.0831(3) 0.6280(3) 0.0567(3)
H39_4 H 0.072391 0.639219 0.032970
C59_4 C 0.1147(3) 0.5934(3) 0.1266(3)
H40_4 H 0.125490 0.581864 0.150266
C60_4 C 0.0772(3) 0.5879(3) 0.0655(3)
C61_4 C 0.1762(2) 0.6442(2) 0.1692(2)
H41_4 H 0.188147 0.618589 0.166109
C62_4 C 0.1359(2) 0.6959(2) 0.1620(2)
H42_4 H 0.114824 0.712688 0.153048
O17_4 O 0.0567(5) 0.5184(4) 0.0429(4)
C63_4 C 0.0615(7) 0.5554(7) 0.0336(7)
N22_3 N 0.16231(17) 0.70550(17) 0.19063(17)
Cu6_3 Cu 0.16822(3) 0.24307(3) 0.27497(3)
N32_4 N 0.13764(17) 0.22080(18) 0.19187(18)
N33_4 N 0.13380(17) 0.24608(17) 0.22587(18)
N34_4 N 0.08617(18) 0.26196(18) 0.18166(19)
C91_4 C 0.1029(2) 0.2704(2) 0.2186(2)
H61_4 H 0.093675 0.290610 0.236316
C92_4 C 0.0538(2) 0.2839(2) 0.1613(2)
C93_4 C 0.0237(2) 0.3009(3) 0.1845(3)
H62_4 H 0.022546 0.296597 0.212577
C94_4 C 0.1086(2) 0.2309(2) 0.1664(2)
H63_4 H 0.104088 0.218373 0.141291
C95_4 C 0.0546(3) 0.2876(3) 0.1203(2)
H64_4 H 0.074658 0.274108 0.105367
C97_4 C 0.0259(3) 0.3115(3) 0.1002(3)
H66_4 H 0.026307 0.314190 0.071893
Cu11_3 Cu 0.16822(3) 0.75693(3) 0.22503(3)
Cu15_3 Cu 0.22503(3) 0.66822(3) 0.24307(3)
Cu16_3 Cu 0.22503(3) 0.33178(3) 0.25693(3)
N41_3 N 0.16231(17) 0.29450(17) 0.30937(17)
N49_4 N 0.17222(18) 0.19526(18) 0.31171(19)
Dy2_10 Dy -0.000000 0.500000 1.000000
O10_4 O 0.06879(17) 0.49873(15) 0.95391(16)
N11_4 N 0.17222(18) 0.30474(18) 0.81171(19)
C28_4 C 0.1346(3) 0.3816(2) 0.8794(3)
N12_4 N 0.1581(2) 0.35254(19) 0.8562(2)
C29_4 C 0.1526(3) 0.4156(3) 0.8939(3)
H19_4 H 0.180160 0.420794 0.889121
C30_4 C 0.0701(4) 0.4001(3) 0.9067(4)
H20_4 H 0.042389 0.395085 0.910575
C31_4 C 0.1280(3) 0.4433(3) 0.9169(3)
H21_4 H 0.139219 0.467030 0.927609
C32_4 C 0.0934(3) 0.3734(3) 0.8853(3)
H22_4 H 0.081864 0.349734 0.874510
C33_4 C 0.0879(3) 0.4345(3) 0.9228(3)
C34_4 C 0.1442(2) 0.3308(2) 0.8238(2)
H23_4 H 0.118589 0.333891 0.811853
C35_4 C 0.1959(2) 0.3380(2) 0.8641(2)
H24_4 H 0.212688 0.346952 0.885176
O11_4 O 0.0184(4) 0.4571(4) 0.9433(5)
C36_4 C 0.0554(7) 0.4664(7) 0.9385(7)
N13_3 N 0.20550(17) 0.30937(17) 0.83769(17)
Dy3_4 Dy 0.06898(2) 0.56898(2) 0.93102(2)
O28_4 O 0.12393(16) 0.55481(15) 0.88284(16)
O29_4 O 0.11716(16) 0.62393(16) 0.94519(15)
O30_4 O 0.05481(15) 0.61716(16) 0.87607(16)
O31_4 O 0.06490(15) 0.52719(16) 0.86883(16)
O32_4 O 0.13117(16) 0.56490(15) 0.97281(16)
O33_4 O 0.02719(16) 0.63117(16) 0.93510(15)
Dy1_3 Dy 0.93102(2) 0.43102(2) 0.06898(2)
Dy2_11 Dy 1.000000 0.500000 -0.000000
O14_4 O 0.93121(17) 0.50127(15) 0.04609(16)
N17_4 N 0.82778(18) 0.69526(18) 0.18829(19)
C46_4 C 0.8654(3) 0.6184(2) 0.1206(3)
N18_4 N 0.8419(2) 0.64746(19) 0.1438(2)
C47_4 C 0.8474(3) 0.5844(3) 0.1061(3)
H31_4 H 0.819840 0.579206 0.110879
C48_4 C 0.9299(4) 0.5999(3) 0.0933(4)
H32_4 H 0.957611 0.604915 0.089425
C49_4 C 0.8720(3) 0.5567(3) 0.0831(3)
H33_4 H 0.860781 0.532970 0.072391
C50_4 C 0.9066(3) 0.6266(3) 0.1147(3)
H34_4 H 0.918136 0.650266 0.125490
C51_4 C 0.9121(3) 0.5655(3) 0.0772(3)
C52_4 C 0.8558(2) 0.6692(2) 0.1762(2)
H35_4 H 0.881411 0.666109 0.188147
C53_4 C 0.8041(2) 0.6620(2) 0.1359(2)
H36_4 H 0.787312 0.653048 0.114824
O15_4 O 0.9816(4) 0.5429(4) 0.0567(5)
C54_4 C 0.9446(7) 0.5336(7) 0.0615(7)
N19_4 N 0.79450(17) 0.69063(17) 0.16231(17)
O22_3 O 0.87607(16) 0.44519(15) 0.11716(16)
O23_3 O 0.93510(15) 0.47281(16) 0.13117(16)
N29_3 N 0.80813(18) 0.63764(17) 0.27920(18)
N30_3 N 0.77413(18) 0.63380(17) 0.25392(17)
N31_3 N 0.81834(19) 0.58617(18) 0.23804(18)
C82_3 C 0.7814(2) 0.6029(2) 0.2296(2)
H55_3 H 0.763684 0.593675 0.209390
C83_3 C 0.8387(2) 0.5538(2) 0.2161(2)
C84_3 C 0.8155(3) 0.5237(2) 0.1991(3)
H56_3 H 0.787423 0.522546 0.203403
C85_3 C 0.8336(2) 0.6086(2) 0.2691(2)
H57_3 H 0.858709 0.604088 0.281627
C86_3 C 0.8797(2) 0.5546(3) 0.2124(3)
H58_3 H 0.894633 0.574658 0.225892
C87_3 C 0.8355(3) 0.4944(2) 0.1750(3)
H59_3 H 0.820643 0.473332 0.163041
C88_3 C 0.8998(3) 0.5259(3) 0.1885(3)
H60_3 H 0.928107 0.526307 0.185810
C89_3 C 0.8767(2) 0.4969(2) 0.1690(2)
C90_3 C 0.8968(2) 0.4695(2) 0.1379(2)
O24_4 O 0.94519(15) 0.38284(16) 0.12393(16)
O25_4 O 0.97281(16) 0.36883(16) 0.06490(15)
C96_4 C 0.9944(2) 0.3250(3) 0.1645(3)
H65_4 H 0.973332 0.336959 0.179357
C98_4 C 0.9969(2) 0.3310(2) 0.1233(2)
C99_4 C 0.9695(2) 0.3621(2) 0.1032(2)
O26_4 O 0.88284(16) 0.37607(16) 0.05481(15)
O27_4 O 0.86883(16) 0.43510(15) 0.02719(16)
C105_4 C 0.8250(3) 0.3355(3) 0.0056(2)
H71_4 H 0.836959 0.320643 0.026668
C107_4 C 0.8310(2) 0.3767(2) 0.0031(2)
C108_4 C 0.8621(2) 0.3968(2) 0.0305(2)
I3_3 I 0.750000 0.750000 0.250000
Cu9_3 Cu 0.81659(3) 0.68341(3) 0.31659(3)
Cu13_3 Cu 0.83178(3) 0.74307(3) 0.22503(3)
N47_3 N 0.68829(19) 0.67222(18) 0.30474(18)
Dy2_12 Dy 1.000000 0.500000 1.000000
Cu2_2 Cu 0.77497(3) 0.33178(3) 0.75693(3)
O4_2 O 0.62393(16) 0.55481(15) 0.61716(16)
O5_2 O 0.56490(15) 0.52719(16) 0.63117(16)
O6_4 O 0.95391(16) 0.43121(17) 0.99873(15)
N3_4 N 0.83769(17) 0.29450(17) 0.80937(17)
N4_2 N 0.72587(18) 0.36620(17) 0.75392(17)
N5_2 N 0.81171(19) 0.32778(18) 0.80474(18)
N6_2 N 0.68166(19) 0.41383(18) 0.73804(18)
C1_4 C 0.8794(3) 0.3654(3) 0.8816(2)
N7_4 N 0.8562(2) 0.3419(2) 0.85254(19)
C2_2 C 0.7186(2) 0.3971(2) 0.7296(2)
H1_2 H 0.736316 0.406325 0.709390
C3_2 C 0.6613(2) 0.4462(2) 0.7161(2)
C4_2 C 0.6845(3) 0.4763(2) 0.6991(3)
H2_2 H 0.712577 0.477454 0.703403
C5_2 C 0.6664(2) 0.3914(2) 0.7691(2)
H3_2 H 0.641291 0.395912 0.781627
C6_2 C 0.6203(2) 0.4454(3) 0.7124(3)
H4_2 H 0.605367 0.425342 0.725892
C7_2 C 0.6645(3) 0.5056(2) 0.6750(3)
H5_2 H 0.679357 0.526668 0.663041
C8_2 C 0.6002(3) 0.4741(3) 0.6885(3)
H6_2 H 0.571893 0.473693 0.685810
C9_4 C 0.8939(3) 0.3474(3) 0.9156(3)
H7_4 H 0.889121 0.319840 0.920794
C10_4 C 0.9067(4) 0.4299(4) 0.9001(3)
H8_4 H 0.910575 0.457611 0.895085
C11_4 C 0.9169(3) 0.3720(3) 0.9433(3)
H9_4 H 0.927609 0.360781 0.967030
C12_4 C 0.8853(3) 0.4066(3) 0.8734(3)
H10_4 H 0.874510 0.418136 0.849734
C13_2 C 0.6233(2) 0.5031(2) 0.6690(2)
C14_4 C 0.9228(3) 0.4121(3) 0.9345(3)
C15_2 C 0.6032(2) 0.5305(2) 0.6379(2)
C16_4 C 0.8238(2) 0.3558(2) 0.8308(2)
H11_4 H 0.811853 0.381411 0.833891
C17_4 C 0.8641(2) 0.3041(2) 0.8380(2)
H12_4 H 0.885176 0.287312 0.846952
O7_4 O 0.9433(5) 0.4816(4) 0.9571(4)
C18_4 C 0.9385(7) 0.4446(7) 0.9664(7)
O8_4 O 0.99873(15) 0.54609(16) 0.93121(17)
N8_4 N 0.80474(18) 0.68829(19) 0.82778(18)
C19_4 C 0.8816(2) 0.6206(3) 0.8654(3)
N9_4 N 0.85254(19) 0.6438(2) 0.8419(2)
C20_4 C 0.9156(3) 0.6061(3) 0.8474(3)
H13_4 H 0.920794 0.610879 0.819840
C21_4 C 0.9001(3) 0.5933(4) 0.9299(4)
H14_4 H 0.895085 0.589425 0.957611
C22_4 C 0.9433(3) 0.5831(3) 0.8720(3)
H15_4 H 0.967030 0.572391 0.860781
C23_4 C 0.8734(3) 0.6147(3) 0.9066(3)
H16_4 H 0.849734 0.625490 0.918136
C24_4 C 0.9345(3) 0.5772(3) 0.9121(3)
C25_4 C 0.8308(2) 0.6762(2) 0.8558(2)
H17_4 H 0.833891 0.688147 0.881411
C26_4 C 0.8380(2) 0.6359(2) 0.8041(2)
H18_4 H 0.846952 0.614824 0.787312
O9_4 O 0.9571(4) 0.5567(5) 0.9816(4)
C27_4 C 0.9664(7) 0.5615(7) 0.9446(7)
N36_4 N 0.74608(17) 0.27413(18) 0.86620(17)
N37_4 N 0.76196(18) 0.31834(19) 0.91383(18)
C100_4 C 0.7704(2) 0.2814(2) 0.8971(2)
H67_4 H 0.790610 0.263684 0.906325
C101_4 C 0.7839(2) 0.3387(2) 0.9462(2)
C102_4 C 0.8009(3) 0.3155(3) 0.9763(2)
H68_4 H 0.796597 0.287423 0.977454
C103_4 C 0.7309(2) 0.3336(2) 0.8914(2)
H69_4 H 0.718373 0.358709 0.895912
C104_4 C 0.7876(3) 0.3797(2) 0.9454(3)
H70_4 H 0.774108 0.394633 0.925342
C106_4 C 0.8115(3) 0.3998(3) 0.9741(3)
H72_4 H 0.814190 0.428107 0.973693
Cu17_2 Cu 0.75693(3) 0.27497(3) 0.66822(3)
Cu18_4 Cu 0.83178(3) 0.24307(3) 0.77497(3)
N42_2 N 0.80937(17) 0.33769(17) 0.70550(17)
N44_4 N 0.79450(17) 0.19063(17) 0.83769(17)
Dy2_13 Dy 0.500000 0.500000 0.500000
O6_5 O 0.56879(17) 0.49873(15) 0.54609(16)
N3_5 N 0.70550(17) 0.30937(17) 0.66231(17)
C1_5 C 0.6346(3) 0.3816(2) 0.6206(3)
N7_5 N 0.6581(2) 0.35254(19) 0.6438(2)
C9_5 C 0.6526(3) 0.4156(3) 0.6061(3)
H7_5 H 0.680160 0.420794 0.610879
C10_5 C 0.5701(4) 0.4001(3) 0.5933(4)
H8_5 H 0.542389 0.395085 0.589425
C11_5 C 0.6280(3) 0.4433(3) 0.5831(3)
H9_5 H 0.639219 0.467030 0.572391
C12_5 C 0.5934(3) 0.3734(3) 0.6147(3)
H10_5 H 0.581864 0.349734 0.625490
C14_5 C 0.5879(3) 0.4345(3) 0.5772(3)
C16_5 C 0.6442(2) 0.3308(2) 0.6762(2)
H11_5 H 0.618589 0.333891 0.688147
C17_5 C 0.6959(2) 0.3380(2) 0.6359(2)
H12_5 H 0.712688 0.346952 0.614824
O7_5 O 0.5184(4) 0.4571(4) 0.5567(5)
C18_5 C 0.5554(7) 0.4664(7) 0.5615(7)
O8_5 O 0.45391(16) 0.43121(17) 0.50127(15)
N8_5 N 0.31171(19) 0.32778(18) 0.69526(18)
C19_5 C 0.3794(3) 0.3654(3) 0.6184(2)
N9_5 N 0.3562(2) 0.3419(2) 0.64746(19)
C20_5 C 0.3939(3) 0.3474(3) 0.5844(3)
H13_5 H 0.389121 0.319840 0.579206
C21_5 C 0.4067(4) 0.4299(4) 0.5999(3)
H14_5 H 0.410575 0.457611 0.604915
C22_5 C 0.4169(3) 0.3720(3) 0.5567(3)
H15_5 H 0.427609 0.360781 0.532970
C23_5 C 0.3853(3) 0.4066(3) 0.6266(3)
H16_5 H 0.374510 0.418136 0.650266
C24_5 C 0.4228(3) 0.4121(3) 0.5655(3)
C25_5 C 0.3238(2) 0.3558(2) 0.6692(2)
H17_5 H 0.311853 0.381411 0.666109
C26_5 C 0.3641(2) 0.3041(2) 0.6620(2)
H18_5 H 0.385176 0.287312 0.653048
O9_5 O 0.4433(5) 0.4816(4) 0.5429(4)
C27_5 C 0.4385(7) 0.4446(7) 0.5336(7)
O10_5 O 0.50127(15) 0.45391(16) 0.43121(17)
N11_5 N 0.69526(18) 0.31171(19) 0.32778(18)
C28_5 C 0.6184(2) 0.3794(3) 0.3654(3)
N12_5 N 0.64746(19) 0.3562(2) 0.3419(2)
C29_5 C 0.5844(3) 0.3939(3) 0.3474(3)
H19_5 H 0.579206 0.389121 0.319840
C30_5 C 0.5999(3) 0.4067(4) 0.4299(4)
H20_5 H 0.604915 0.410575 0.457611
C31_5 C 0.5567(3) 0.4169(3) 0.3720(3)
H21_5 H 0.532970 0.427609 0.360781
C32_5 C 0.6266(3) 0.3853(3) 0.4066(3)
H22_5 H 0.650266 0.374510 0.418136
C33_5 C 0.5655(3) 0.4228(3) 0.4121(3)
C34_5 C 0.6692(2) 0.3238(2) 0.3558(2)
H23_5 H 0.666109 0.311853 0.381411
C35_5 C 0.6620(2) 0.3641(2) 0.3041(2)
H24_5 H 0.653048 0.385176 0.287312
O11_5 O 0.5429(4) 0.4433(5) 0.4816(4)
C36_5 C 0.5336(7) 0.4385(7) 0.4446(7)
O12_5 O 0.54609(16) 0.56879(17) 0.49873(15)
C37_5 C 0.6206(3) 0.6346(3) 0.3816(2)
N15_5 N 0.6438(2) 0.6581(2) 0.35254(19)
C38_5 C 0.6061(3) 0.6526(3) 0.4156(3)
H25_5 H 0.610879 0.680160 0.420794
C39_5 C 0.5933(4) 0.5701(4) 0.4001(3)
H26_5 H 0.589425 0.542389 0.395085
C40_5 C 0.5831(3) 0.6280(3) 0.4433(3)
H27_5 H 0.572391 0.639219 0.467030
C41_5 C 0.6147(3) 0.5934(3) 0.3734(3)
H28_5 H 0.625490 0.581864 0.349734
C42_5 C 0.5772(3) 0.5879(3) 0.4345(3)
C43_5 C 0.6762(2) 0.6442(2) 0.3308(2)
H29_5 H 0.688147 0.618589 0.333891
C44_5 C 0.6359(2) 0.6959(2) 0.3380(2)
H30_5 H 0.614824 0.712688 0.346952
O13_5 O 0.5567(5) 0.5184(4) 0.4571(4)
C45_5 C 0.5615(7) 0.5554(7) 0.4664(7)
N16_5 N 0.66231(17) 0.70550(17) 0.30937(17)
O14_5 O 0.49873(15) 0.54609(16) 0.56879(17)
N17_5 N 0.30474(18) 0.68829(19) 0.67222(18)
C46_5 C 0.3816(2) 0.6206(3) 0.6346(3)
N18_5 N 0.35254(19) 0.6438(2) 0.6581(2)
C47_5 C 0.4156(3) 0.6061(3) 0.6526(3)
H31_5 H 0.420794 0.610879 0.680160
C48_5 C 0.4001(3) 0.5933(4) 0.5701(4)
H32_5 H 0.395085 0.589425 0.542389
C49_5 C 0.4433(3) 0.5831(3) 0.6280(3)
H33_5 H 0.467030 0.572391 0.639219
C50_5 C 0.3734(3) 0.6147(3) 0.5934(3)
H34_5 H 0.349734 0.625490 0.581864
C51_5 C 0.4345(3) 0.5772(3) 0.5879(3)
C52_5 C 0.3308(2) 0.6762(2) 0.6442(2)
H35_5 H 0.333891 0.688147 0.618589
C53_5 C 0.3380(2) 0.6359(2) 0.6959(2)
H36_5 H 0.346952 0.614824 0.712688
O15_5 O 0.4571(4) 0.5567(5) 0.5184(4)
C54_5 C 0.4664(7) 0.5615(7) 0.5554(7)
N19_5 N 0.30937(17) 0.66231(17) 0.70550(17)
O16_5 O 0.43121(17) 0.50127(15) 0.45391(16)
N20_5 N 0.32778(18) 0.69526(18) 0.31171(19)
C55_5 C 0.3654(3) 0.6184(2) 0.3794(3)
N21_5 N 0.3419(2) 0.64746(19) 0.3562(2)
C56_5 C 0.3474(3) 0.5844(3) 0.3939(3)
H37_5 H 0.319840 0.579206 0.389121
C57_5 C 0.4299(4) 0.5999(3) 0.4067(4)
H38_5 H 0.457611 0.604915 0.410575
C58_5 C 0.3720(3) 0.5567(3) 0.4169(3)
H39_5 H 0.360781 0.532970 0.427609
C59_5 C 0.4066(3) 0.6266(3) 0.3853(3)
H40_5 H 0.418136 0.650266 0.374510
C60_5 C 0.4121(3) 0.5655(3) 0.4228(3)
C61_5 C 0.3558(2) 0.6692(2) 0.3238(2)
H41_5 H 0.381411 0.666109 0.311853
C62_5 C 0.3041(2) 0.6620(2) 0.3641(2)
H42_5 H 0.287312 0.653048 0.385176
O17_5 O 0.4816(4) 0.5429(4) 0.4433(5)
C63_5 C 0.4446(7) 0.5336(7) 0.4385(7)
Dy3_5 Dy 0.43102(2) 0.43102(2) 0.43102(2)
O24_5 O 0.61716(16) 0.62393(16) 0.55481(15)
O25_5 O 0.63117(16) 0.56490(15) 0.52719(16)
N32_5 N 0.77920(18) 0.69187(18) 0.36236(17)
N33_5 N 0.75392(17) 0.72587(18) 0.36620(17)
N34_5 N 0.73804(18) 0.68166(19) 0.41383(18)
C91_5 C 0.7296(2) 0.7186(2) 0.3971(2)
H61_5 H 0.709390 0.736316 0.406325
C92_5 C 0.7161(2) 0.6613(2) 0.4462(2)
C93_5 C 0.6991(3) 0.6845(3) 0.4763(2)
H62_5 H 0.703403 0.712577 0.477454
C94_5 C 0.7691(2) 0.6664(2) 0.3914(2)
H63_5 H 0.781627 0.641291 0.395912
C95_5 C 0.7124(3) 0.6203(2) 0.4454(3)
H64_5 H 0.725892 0.605367 0.425342
C96_5 C 0.6750(3) 0.6645(3) 0.5056(2)
H65_5 H 0.663041 0.679357 0.526668
C97_5 C 0.6885(3) 0.6002(3) 0.4741(3)
H66_5 H 0.685810 0.571893 0.473693
C98_5 C 0.6690(2) 0.6233(2) 0.5031(2)
C99_5 C 0.6379(2) 0.6032(2) 0.5305(2)
Cu22_4 Cu 0.74307(3) 0.27497(3) 0.33178(3)
O28_5 O 0.44519(15) 0.38284(16) 0.37607(16)
O29_5 O 0.37607(16) 0.44519(15) 0.38284(16)
O30_5 O 0.38284(16) 0.37607(16) 0.44519(15)
O31_5 O 0.47281(16) 0.36883(16) 0.43510(15)
O32_5 O 0.43510(15) 0.47281(16) 0.36883(16)
O33_5 O 0.36883(16) 0.43510(15) 0.47281(16)
N49_5 N 0.80474(18) 0.81171(19) 0.32778(18)
Dy2_14 Dy -0.000000 0.500000 0.500000
O10_6 O 0.06879(17) 0.50127(15) 0.54609(16)
N11_6 N 0.17222(18) 0.69526(18) 0.68829(19)
C28_6 C 0.1346(3) 0.6184(2) 0.6206(3)
N12_6 N 0.1581(2) 0.64746(19) 0.6438(2)
C29_6 C 0.1526(3) 0.5844(3) 0.6061(3)
H19_6 H 0.180160 0.579206 0.610879
C30_6 C 0.0701(4) 0.5999(3) 0.5933(4)
H20_6 H 0.042389 0.604915 0.589425
C31_6 C 0.1280(3) 0.5567(3) 0.5831(3)
H21_6 H 0.139219 0.532970 0.572391
C32_6 C 0.0934(3) 0.6266(3) 0.6147(3)
H22_6 H 0.081864 0.650266 0.625490
C33_6 C 0.0879(3) 0.5655(3) 0.5772(3)
C34_6 C 0.1442(2) 0.6692(2) 0.6762(2)
H23_6 H 0.118589 0.666109 0.688147
C35_6 C 0.1959(2) 0.6620(2) 0.6359(2)
H24_6 H 0.212688 0.653048 0.614824
O11_6 O 0.0184(4) 0.5429(4) 0.5567(5)
C36_6 C 0.0554(7) 0.5336(7) 0.5615(7)
N13_4 N 0.20550(17) 0.69063(17) 0.66231(17)
O12_6 O 0.00127(15) 0.54609(16) 0.43121(17)
C37_6 C 0.1184(2) 0.6206(3) 0.3654(3)
N15_6 N 0.14746(19) 0.6438(2) 0.3419(2)
C38_6 C 0.0844(3) 0.6061(3) 0.3474(3)
H25_6 H 0.079206 0.610879 0.319840
C39_6 C 0.0999(3) 0.5933(4) 0.4299(4)
H26_6 H 0.104915 0.589425 0.457611
C40_6 C 0.0567(3) 0.5831(3) 0.3720(3)
H27_6 H 0.032970 0.572391 0.360781
C41_6 C 0.1266(3) 0.6147(3) 0.4066(3)
H28_6 H 0.150266 0.625490 0.418136
C42_6 C 0.0655(3) 0.5772(3) 0.4121(3)
C43_6 C 0.1692(2) 0.6762(2) 0.3558(2)
H29_6 H 0.166109 0.688147 0.381411
C44_6 C 0.1620(2) 0.6359(2) 0.3041(2)
H30_6 H 0.153048 0.614824 0.287312
O13_6 O 0.0429(4) 0.5567(5) 0.4816(4)
C45_6 C 0.0336(7) 0.5615(7) 0.4446(7)
N16_6 N 0.19063(17) 0.66231(17) 0.29450(17)
O16_6 O 0.04609(16) 0.43121(17) 0.49873(15)
N20_6 N 0.18829(19) 0.32778(18) 0.30474(18)
C55_6 C 0.1206(3) 0.3654(3) 0.3816(2)
N21_6 N 0.1438(2) 0.3419(2) 0.35254(19)
C56_6 C 0.1061(3) 0.3474(3) 0.4156(3)
H37_6 H 0.110879 0.319840 0.420794
C57_6 C 0.0933(4) 0.4299(4) 0.4001(3)
H38_6 H 0.089425 0.457611 0.395085
C58_6 C 0.0831(3) 0.3720(3) 0.4433(3)
H39_6 H 0.072391 0.360781 0.467030
C59_6 C 0.1147(3) 0.4066(3) 0.3734(3)
H40_6 H 0.125490 0.418136 0.349734
C60_6 C 0.0772(3) 0.4121(3) 0.4345(3)
C61_6 C 0.1762(2) 0.3558(2) 0.3308(2)
H41_6 H 0.188147 0.381411 0.333891
C62_6 C 0.1359(2) 0.3041(2) 0.3380(2)
H42_6 H 0.114824 0.287312 0.346952
O17_6 O 0.0567(5) 0.4816(4) 0.4571(4)
C63_6 C 0.0615(7) 0.4446(7) 0.4664(7)
Dy3_6 Dy 0.06898(2) 0.43102(2) 0.56898(2)
N32_6 N 0.13764(17) 0.77920(18) 0.30813(18)
N33_6 N 0.13380(17) 0.75392(17) 0.27413(18)
N34_6 N 0.08617(18) 0.73804(18) 0.31834(19)
C91_6 C 0.1029(2) 0.7296(2) 0.2814(2)
H61_6 H 0.093675 0.709390 0.263684
C92_6 C 0.0538(2) 0.7161(2) 0.3387(2)
C93_6 C 0.0237(2) 0.6991(3) 0.3155(3)
H62_6 H 0.022546 0.703403 0.287423
C94_6 C 0.1086(2) 0.7691(2) 0.3336(2)
H63_6 H 0.104088 0.781627 0.358709
C95_6 C 0.0546(3) 0.7124(3) 0.3797(2)
H64_6 H 0.074658 0.725892 0.394633
C97_6 C 0.0259(3) 0.6885(3) 0.3998(3)
H66_6 H 0.026307 0.685810 0.428107
O28_6 O 0.12393(16) 0.44519(15) 0.61716(16)
O29_6 O 0.11716(16) 0.37607(16) 0.55481(15)
O30_6 O 0.05481(15) 0.38284(16) 0.62393(16)
O31_6 O 0.06490(15) 0.47281(16) 0.63117(16)
O32_6 O 0.13117(16) 0.43510(15) 0.52719(16)
O33_6 O 0.02719(16) 0.36883(16) 0.56490(15)
N49_6 N 0.17222(18) 0.80474(18) 0.18829(19)
Dy2_15 Dy 1.000000 0.500000 0.500000
O6_6 O 0.95391(16) 0.56879(17) 0.50127(15)
N3_6 N 0.83769(17) 0.70550(17) 0.69063(17)
C1_6 C 0.8794(3) 0.6346(3) 0.6184(2)
N7_6 N 0.8562(2) 0.6581(2) 0.64746(19)
C9_6 C 0.8939(3) 0.6526(3) 0.5844(3)
H7_6 H 0.889121 0.680160 0.579206
C10_6 C 0.9067(4) 0.5701(4) 0.5999(3)
H8_6 H 0.910575 0.542389 0.604915
C11_6 C 0.9169(3) 0.6280(3) 0.5567(3)
H9_6 H 0.927609 0.639219 0.532970
C12_6 C 0.8853(3) 0.5934(3) 0.6266(3)
H10_6 H 0.874510 0.581864 0.650266
C14_6 C 0.9228(3) 0.5879(3) 0.5655(3)
C16_6 C 0.8238(2) 0.6442(2) 0.6692(2)
H11_6 H 0.811853 0.618589 0.666109
C17_6 C 0.8641(2) 0.6959(2) 0.6620(2)
H12_6 H 0.885176 0.712688 0.653048
O7_6 O 0.9433(5) 0.5184(4) 0.5429(4)
C18_6 C 0.9385(7) 0.5554(7) 0.5336(7)
O8_6 O 0.99873(15) 0.45391(16) 0.56879(17)
N8_6 N 0.80474(18) 0.31171(19) 0.67222(18)
C19_6 C 0.8816(2) 0.3794(3) 0.6346(3)
N9_6 N 0.85254(19) 0.3562(2) 0.6581(2)
C20_6 C 0.9156(3) 0.3939(3) 0.6526(3)
H13_6 H 0.920794 0.389121 0.680160
C21_6 C 0.9001(3) 0.4067(4) 0.5701(4)
H14_6 H 0.895085 0.410575 0.542389
C22_6 C 0.9433(3) 0.4169(3) 0.6280(3)
H15_6 H 0.967030 0.427609 0.639219
C23_6 C 0.8734(3) 0.3853(3) 0.5934(3)
H16_6 H 0.849734 0.374510 0.581864
C24_6 C 0.9345(3) 0.4228(3) 0.5879(3)
C25_6 C 0.8308(2) 0.3238(2) 0.6442(2)
H17_6 H 0.833891 0.311853 0.618589
C26_6 C 0.8380(2) 0.3641(2) 0.6959(2)
H18_6 H 0.846952 0.385176 0.712688
O9_6 O 0.9571(4) 0.4433(5) 0.5184(4)
C27_6 C 0.9664(7) 0.4385(7) 0.5554(7)
O14_6 O 0.93121(17) 0.49873(15) 0.45391(16)
N17_6 N 0.82778(18) 0.30474(18) 0.31171(19)
C46_6 C 0.8654(3) 0.3816(2) 0.3794(3)
N18_6 N 0.8419(2) 0.35254(19) 0.3562(2)
C47_6 C 0.8474(3) 0.4156(3) 0.3939(3)
H31_6 H 0.819840 0.420794 0.389121
C48_6 C 0.9299(4) 0.4001(3) 0.4067(4)
H32_6 H 0.957611 0.395085 0.410575
C49_6 C 0.8720(3) 0.4433(3) 0.4169(3)
H33_6 H 0.860781 0.467030 0.427609
C50_6 C 0.9066(3) 0.3734(3) 0.3853(3)
H34_6 H 0.918136 0.349734 0.374510
C51_6 C 0.9121(3) 0.4345(3) 0.4228(3)
C52_6 C 0.8558(2) 0.3308(2) 0.3238(2)
H35_6 H 0.881411 0.333891 0.311853
C53_6 C 0.8041(2) 0.3380(2) 0.3641(2)
H36_6 H 0.787312 0.346952 0.385176
O15_6 O 0.9816(4) 0.4571(4) 0.4433(5)
C54_6 C 0.9446(7) 0.4664(7) 0.4385(7)
N19_6 N 0.79450(17) 0.30937(17) 0.33769(17)
O24_6 O 0.94519(15) 0.61716(16) 0.37607(16)
O25_6 O 0.97281(16) 0.63117(16) 0.43510(15)
C96_6 C 0.9944(2) 0.6750(3) 0.3355(3)
H65_6 H 0.973332 0.663041 0.320643
C98_6 C 0.9969(2) 0.6690(2) 0.3767(2)
C99_6 C 0.9695(2) 0.6379(2) 0.3968(2)
O26_5 O 0.88284(16) 0.62393(16) 0.44519(15)
O27_5 O 0.86883(16) 0.56490(15) 0.47281(16)
N36_5 N 0.74608(17) 0.72587(18) 0.63380(17)
N37_5 N 0.76196(18) 0.68166(19) 0.58617(18)
C100_5 C 0.7704(2) 0.7186(2) 0.6029(2)
H67_5 H 0.790610 0.736316 0.593675
C101_5 C 0.7839(2) 0.6613(2) 0.5538(2)
C102_5 C 0.8009(3) 0.6845(3) 0.5237(2)
H68_5 H 0.796597 0.712577 0.522546
C103_5 C 0.7309(2) 0.6664(2) 0.6086(2)
H69_5 H 0.718373 0.641291 0.604088
C104_5 C 0.7876(3) 0.6203(2) 0.5546(3)
H70_5 H 0.774108 0.605367 0.574658
C105_5 C 0.8250(3) 0.6645(3) 0.4944(2)
H71_5 H 0.836959 0.679357 0.473332
C106_5 C 0.8115(3) 0.6002(3) 0.5259(3)
H72_5 H 0.814190 0.571893 0.526307
C107_5 C 0.8310(2) 0.6233(2) 0.4969(2)
C108_5 C 0.8621(2) 0.6032(2) 0.4695(2)
Cu13_4 Cu 0.83178(3) 0.25693(3) 0.27497(3)
N44_5 N 0.79450(17) 0.80937(17) 0.66231(17)
Dy2_16 Dy 0.000000 0.000000 -0.000000
O24_7 O 0.05481(15) 0.11716(16) 0.12393(16)
O25_7 O 0.02719(16) 0.13117(16) 0.06490(15)
C96_7 C 0.0056(2) 0.1750(3) 0.1645(3)
H65_7 H 0.026668 0.163041 0.179357
C98_7 C 0.0031(2) 0.1690(2) 0.1233(2)
C99_7 C 0.0305(2) 0.1379(2) 0.1032(2)
O26_6 O 0.11716(16) 0.12393(16) 0.05481(15)
O27_6 O 0.13117(16) 0.06490(15) 0.02719(16)
C105_6 C 0.1750(3) 0.1645(3) 0.0056(2)
H71_6 H 0.163041 0.179357 0.026668
C107_6 C 0.1690(2) 0.1233(2) 0.0031(2)
C108_6 C 0.1379(2) 0.1032(2) 0.0305(2)
Dy2_17 Dy 0.000000 0.000000 1.000000
O6_7 O 0.04609(16) 0.06879(17) 0.99873(15)
N3_7 N 0.16231(17) 0.20550(17) 0.80937(17)
C1_7 C 0.1206(3) 0.1346(3) 0.8816(2)
N7_7 N 0.1438(2) 0.1581(2) 0.85254(19)
C9_7 C 0.1061(3) 0.1526(3) 0.9156(3)
H7_7 H 0.110879 0.180160 0.920794
C10_7 C 0.0933(4) 0.0701(4) 0.9001(3)
H8_7 H 0.089425 0.042389 0.895085
C11_7 C 0.0831(3) 0.1280(3) 0.9433(3)
H9_7 H 0.072391 0.139219 0.967030
C12_7 C 0.1147(3) 0.0934(3) 0.8734(3)
H10_7 H 0.125490 0.081864 0.849734
C14_7 C 0.0772(3) 0.0879(3) 0.9345(3)
C16_7 C 0.1762(2) 0.1442(2) 0.8308(2)
H11_7 H 0.188147 0.118589 0.833891
C17_7 C 0.1359(2) 0.1959(2) 0.8380(2)
H12_7 H 0.114824 0.212688 0.846952
O7_7 O 0.0567(5) 0.0184(4) 0.9571(4)
C18_7 C 0.0615(7) 0.0554(7) 0.9664(7)
N36_6 N 0.25392(17) 0.22587(18) 0.86620(17)
N37_6 N 0.23804(18) 0.18166(19) 0.91383(18)
C100_6 C 0.2296(2) 0.2186(2) 0.8971(2)
H67_6 H 0.209390 0.236316 0.906325
C101_6 C 0.2161(2) 0.1613(2) 0.9462(2)
C102_6 C 0.1991(3) 0.1845(3) 0.9763(2)
H68_6 H 0.203403 0.212577 0.977454
C103_6 C 0.2691(2) 0.1664(2) 0.8914(2)
H69_6 H 0.281627 0.141291 0.895912
C104_6 C 0.2124(3) 0.1203(2) 0.9454(3)
H70_6 H 0.225892 0.105367 0.925342
C106_6 C 0.1885(3) 0.1002(3) 0.9741(3)
H72_6 H 0.185810 0.071893 0.973693
Dy2_18 Dy 0.000000 1.000000 -0.000000
O14_7 O 0.06879(17) 0.99873(15) 0.04609(16)
C46_7 C 0.1346(3) 0.8816(2) 0.1206(3)
N18_7 N 0.1581(2) 0.85254(19) 0.1438(2)
C47_7 C 0.1526(3) 0.9156(3) 0.1061(3)
H31_7 H 0.180160 0.920794 0.110879
C48_7 C 0.0701(4) 0.9001(3) 0.0933(4)
H32_7 H 0.042389 0.895085 0.089425
C49_7 C 0.1280(3) 0.9433(3) 0.0831(3)
H33_7 H 0.139219 0.967030 0.072391
C50_7 C 0.0934(3) 0.8734(3) 0.1147(3)
H34_7 H 0.081864 0.849734 0.125490
C51_7 C 0.0879(3) 0.9345(3) 0.0772(3)
C52_7 C 0.1442(2) 0.8308(2) 0.1762(2)
H35_7 H 0.118589 0.833891 0.188147
C53_7 C 0.1959(2) 0.8380(2) 0.1359(2)
H36_7 H 0.212688 0.846952 0.114824
O15_7 O 0.0184(4) 0.9571(4) 0.0567(5)
C54_7 C 0.0554(7) 0.9664(7) 0.0615(7)
N19_7 N 0.20550(17) 0.80937(17) 0.16231(17)
Dy2_19 Dy 0.000000 1.000000 1.000000
O8_7 O 0.00127(15) 0.95391(16) 0.93121(17)
N8_7 N 0.19526(18) 0.81171(19) 0.82778(18)
C19_7 C 0.1184(2) 0.8794(3) 0.8654(3)
N9_7 N 0.14746(19) 0.8562(2) 0.8419(2)
C20_7 C 0.0844(3) 0.8939(3) 0.8474(3)
H13_7 H 0.079206 0.889121 0.819840
C21_7 C 0.0999(3) 0.9067(4) 0.9299(4)
H14_7 H 0.104915 0.910575 0.957611
C22_7 C 0.0567(3) 0.9169(3) 0.8720(3)
H15_7 H 0.032970 0.927609 0.860781
C23_7 C 0.1266(3) 0.8853(3) 0.9066(3)
H16_7 H 0.150266 0.874510 0.918136
C24_7 C 0.0655(3) 0.9228(3) 0.9121(3)
C25_7 C 0.1692(2) 0.8238(2) 0.8558(2)
H17_7 H 0.166109 0.811853 0.881411
C26_7 C 0.1620(2) 0.8641(2) 0.8041(2)
H18_7 H 0.153048 0.885176 0.787312
O9_7 O 0.0429(4) 0.9433(5) 0.9816(4)
C27_7 C 0.0336(7) 0.9385(7) 0.9446(7)
Dy2_20 Dy 1.000000 0.000000 -0.000000
O12_7 O 0.99873(15) 0.04609(16) 0.06879(17)
C37_7 C 0.8816(2) 0.1206(3) 0.1346(3)
N15_7 N 0.85254(19) 0.1438(2) 0.1581(2)
C38_7 C 0.9156(3) 0.1061(3) 0.1526(3)
H25_7 H 0.920794 0.110879 0.180160
C39_7 C 0.9001(3) 0.0933(4) 0.0701(4)
H26_7 H 0.895085 0.089425 0.042389
C40_7 C 0.9433(3) 0.0831(3) 0.1280(3)
H27_7 H 0.967030 0.072391 0.139219
C41_7 C 0.8734(3) 0.1147(3) 0.0934(3)
H28_7 H 0.849734 0.125490 0.081864
C42_7 C 0.9345(3) 0.0772(3) 0.0879(3)
C43_7 C 0.8308(2) 0.1762(2) 0.1442(2)
H29_7 H 0.833891 0.188147 0.118589
C44_7 C 0.8380(2) 0.1359(2) 0.1959(2)
H30_7 H 0.846952 0.114824 0.212688
O13_7 O 0.9571(4) 0.0567(5) 0.0184(4)
C45_7 C 0.9664(7) 0.0615(7) 0.0554(7)
N16_7 N 0.80937(17) 0.16231(17) 0.20550(17)
N32_7 N 0.86236(17) 0.27920(18) 0.19187(18)
N33_7 N 0.86620(17) 0.25392(17) 0.22587(18)
N34_7 N 0.91383(18) 0.23804(18) 0.18166(19)
C91_7 C 0.8971(2) 0.2296(2) 0.2186(2)
H61_7 H 0.906325 0.209390 0.236316
C92_7 C 0.9462(2) 0.2161(2) 0.1613(2)
C93_7 C 0.9763(2) 0.1991(3) 0.1845(3)
H62_7 H 0.977454 0.203403 0.212577
C94_7 C 0.8914(2) 0.2691(2) 0.1664(2)
H63_7 H 0.895912 0.281627 0.141291
C95_7 C 0.9454(3) 0.2124(3) 0.1203(2)
H64_7 H 0.925342 0.225892 0.105367
C97_7 C 0.9741(3) 0.1885(3) 0.1002(3)
H66_7 H 0.973693 0.185810 0.071893
Cu16_4 Cu 0.77497(3) 0.16822(3) 0.25693(3)
N41_4 N 0.83769(17) 0.20550(17) 0.30937(17)
Dy2_21 Dy 1.000000 0.000000 1.000000
O10_7 O 0.93121(17) 0.00127(15) 0.95391(16)
N11_7 N 0.82778(18) 0.19526(18) 0.81171(19)
C28_7 C 0.8654(3) 0.1184(2) 0.8794(3)
N12_7 N 0.8419(2) 0.14746(19) 0.8562(2)
C29_7 C 0.8474(3) 0.0844(3) 0.8939(3)
H19_7 H 0.819840 0.079206 0.889121
C30_7 C 0.9299(4) 0.0999(3) 0.9067(4)
H20_7 H 0.957611 0.104915 0.910575
C31_7 C 0.8720(3) 0.0567(3) 0.9169(3)
H21_7 H 0.860781 0.032970 0.927609
C32_7 C 0.9066(3) 0.1266(3) 0.8853(3)
H22_7 H 0.918136 0.150266 0.874510
C33_7 C 0.9121(3) 0.0655(3) 0.9228(3)
C34_7 C 0.8558(2) 0.1692(2) 0.8238(2)
H23_7 H 0.881411 0.166109 0.811853
C35_7 C 0.8041(2) 0.1620(2) 0.8641(2)
H24_7 H 0.787312 0.153048 0.885176
O11_7 O 0.9816(4) 0.0429(4) 0.9433(5)
C36_7 C 0.9446(7) 0.0336(7) 0.9385(7)
Dy2_22 Dy 1.000000 1.000000 -0.000000
O16_7 O 0.95391(16) 0.93121(17) 0.00127(15)
N20_7 N 0.81171(19) 0.82778(18) 0.19526(18)
C55_7 C 0.8794(3) 0.8654(3) 0.1184(2)
N21_7 N 0.8562(2) 0.8419(2) 0.14746(19)
C56_7 C 0.8939(3) 0.8474(3) 0.0844(3)
H37_7 H 0.889121 0.819840 0.079206
C57_7 C 0.9067(4) 0.9299(4) 0.0999(3)
H38_7 H 0.910575 0.957611 0.104915
C58_7 C 0.9169(3) 0.8720(3) 0.0567(3)
H39_7 H 0.927609 0.860781 0.032970
C59_7 C 0.8853(3) 0.9066(3) 0.1266(3)
H40_7 H 0.874510 0.918136 0.150266
C60_7 C 0.9228(3) 0.9121(3) 0.0655(3)
C61_7 C 0.8238(2) 0.8558(2) 0.1692(2)
H41_7 H 0.811853 0.881411 0.166109
C62_7 C 0.8641(2) 0.8041(2) 0.1620(2)
H42_7 H 0.885176 0.787312 0.153048
O17_7 O 0.9433(5) 0.9816(4) 0.0429(4)
C63_7 C 0.9385(7) 0.9446(7) 0.0336(7)
N22_4 N 0.83769(17) 0.79450(17) 0.19063(17)
Cu15_4 Cu 0.77497(3) 0.83178(3) 0.24307(3)
Dy2_23 Dy 1.000000 1.000000 1.000000
Dy3_7 Dy 0.93102(2) 0.93102(2) 0.93102(2)
O28_7 O 0.87607(16) 0.94519(15) 0.88284(16)
O29_7 O 0.88284(16) 0.87607(16) 0.94519(15)
O30_7 O 0.94519(15) 0.88284(16) 0.87607(16)
O31_7 O 0.93510(15) 0.97281(16) 0.86883(16)
O32_7 O 0.86883(16) 0.93510(15) 0.97281(16)
O33_7 O 0.97281(16) 0.86883(16) 0.93510(15)
N39_3 N 0.86236(17) 0.72080(18) 0.30813(18)
Dy2_24 Dy -0.000000 -0.000000 0.500000
O12_8 O 0.06879(17) 0.00127(15) 0.45391(16)
C37_8 C 0.1346(3) 0.1184(2) 0.3794(3)
N15_8 N 0.1581(2) 0.14746(19) 0.3562(2)
C38_8 C 0.1526(3) 0.0844(3) 0.3939(3)
H25_8 H 0.180160 0.079206 0.389121
C39_8 C 0.0701(4) 0.0999(3) 0.4067(4)
H26_8 H 0.042389 0.104915 0.410575
C40_8 C 0.1280(3) 0.0567(3) 0.4169(3)
H27_8 H 0.139219 0.032970 0.427609
C41_8 C 0.0934(3) 0.1266(3) 0.3853(3)
H28_8 H 0.081864 0.150266 0.374510
C42_8 C 0.0879(3) 0.0655(3) 0.4228(3)
C43_8 C 0.1442(2) 0.1692(2) 0.3238(2)
H29_8 H 0.118589 0.166109 0.311853
C44_8 C 0.1959(2) 0.1620(2) 0.3641(2)
H30_8 H 0.212688 0.153048 0.385176
O13_8 O 0.0184(4) 0.0429(4) 0.4433(5)
C45_8 C 0.0554(7) 0.0336(7) 0.4385(7)
N16_8 N 0.20550(17) 0.19063(17) 0.33769(17)
O16_8 O 0.00127(15) 0.04609(16) 0.56879(17)
N20_8 N 0.19526(18) 0.18829(19) 0.67222(18)
C55_8 C 0.1184(2) 0.1206(3) 0.6346(3)
N21_8 N 0.14746(19) 0.1438(2) 0.6581(2)
C56_8 C 0.0844(3) 0.1061(3) 0.6526(3)
H37_8 H 0.079206 0.110879 0.680160
C57_8 C 0.0999(3) 0.0933(4) 0.5701(4)
H38_8 H 0.104915 0.089425 0.542389
C58_8 C 0.0567(3) 0.0831(3) 0.6280(3)
H39_8 H 0.032970 0.072391 0.639219
C59_8 C 0.1266(3) 0.1147(3) 0.5934(3)
H40_8 H 0.150266 0.125490 0.581864
C60_8 C 0.0655(3) 0.0772(3) 0.5879(3)
C61_8 C 0.1692(2) 0.1762(2) 0.6442(2)
H41_8 H 0.166109 0.188147 0.618589
C62_8 C 0.1620(2) 0.1359(2) 0.6959(2)
H42_8 H 0.153048 0.114824 0.712688
O17_8 O 0.0429(4) 0.0567(5) 0.5184(4)
C63_8 C 0.0336(7) 0.0615(7) 0.5554(7)
Dy2_25 Dy -0.000000 1.000000 0.500000
O14_8 O 0.04609(16) 0.93121(17) 0.50127(15)
C46_8 C 0.1206(3) 0.8654(3) 0.6184(2)
N18_8 N 0.1438(2) 0.8419(2) 0.64746(19)
C47_8 C 0.1061(3) 0.8474(3) 0.5844(3)
H31_8 H 0.110879 0.819840 0.579206
C48_8 C 0.0933(4) 0.9299(4) 0.5999(3)
H32_8 H 0.089425 0.957611 0.604915
C49_8 C 0.0831(3) 0.8720(3) 0.5567(3)
H33_8 H 0.072391 0.860781 0.532970
C50_8 C 0.1147(3) 0.9066(3) 0.6266(3)
H34_8 H 0.125490 0.918136 0.650266
C51_8 C 0.0772(3) 0.9121(3) 0.5655(3)
C52_8 C 0.1762(2) 0.8558(2) 0.6692(2)
H35_8 H 0.188147 0.881411 0.666109
C53_8 C 0.1359(2) 0.8041(2) 0.6620(2)
H36_8 H 0.114824 0.787312 0.653048
O15_8 O 0.0567(5) 0.9816(4) 0.5429(4)
C54_8 C 0.0615(7) 0.9446(7) 0.5336(7)
N19_8 N 0.16231(17) 0.79450(17) 0.69063(17)
O22_4 O 0.11716(16) 0.87607(16) 0.44519(15)
O23_4 O 0.13117(16) 0.93510(15) 0.47281(16)
N30_4 N 0.25392(17) 0.77413(18) 0.63380(17)
N31_4 N 0.23804(18) 0.81834(19) 0.58617(18)
C82_4 C 0.2296(2) 0.7814(2) 0.6029(2)
H55_4 H 0.209390 0.763684 0.593675
C83_4 C 0.2161(2) 0.8387(2) 0.5538(2)
C84_4 C 0.1991(3) 0.8155(3) 0.5237(2)
H56_4 H 0.203403 0.787423 0.522546
C85_4 C 0.2691(2) 0.8336(2) 0.6086(2)
H57_4 H 0.281627 0.858709 0.604088
C86_4 C 0.2124(3) 0.8797(2) 0.5546(3)
H58_4 H 0.225892 0.894633 0.574658
C87_4 C 0.1750(3) 0.8355(3) 0.4944(2)
H59_4 H 0.163041 0.820643 0.473332
C88_4 C 0.1885(3) 0.8998(3) 0.5259(3)
H60_4 H 0.185810 0.928107 0.526307
C89_4 C 0.1690(2) 0.8767(2) 0.4969(2)
C90_4 C 0.1379(2) 0.8968(2) 0.4695(2)
O26_7 O 0.05481(15) 0.88284(16) 0.37607(16)
O27_7 O 0.02719(16) 0.86883(16) 0.43510(15)
C105_7 C 0.0056(2) 0.8250(3) 0.3355(3)
H71_7 H 0.026668 0.836959 0.320643
C107_7 C 0.0031(2) 0.8310(2) 0.3767(2)
C108_7 C 0.0305(2) 0.8621(2) 0.3968(2)
Dy2_26 Dy 1.000000 -0.000000 0.500000
O10_8 O 0.95391(16) 0.06879(17) 0.49873(15)
N11_8 N 0.81171(19) 0.17222(18) 0.30474(18)
C28_8 C 0.8794(3) 0.1346(3) 0.3816(2)
N12_8 N 0.8562(2) 0.1581(2) 0.35254(19)
C29_8 C 0.8939(3) 0.1526(3) 0.4156(3)
H19_8 H 0.889121 0.180160 0.420794
C30_8 C 0.9067(4) 0.0701(4) 0.4001(3)
H20_8 H 0.910575 0.042389 0.395085
C31_8 C 0.9169(3) 0.1280(3) 0.4433(3)
H21_8 H 0.927609 0.139219 0.467030
C32_8 C 0.8853(3) 0.0934(3) 0.3734(3)
H22_8 H 0.874510 0.081864 0.349734
C33_8 C 0.9228(3) 0.0879(3) 0.4345(3)
C34_8 C 0.8238(2) 0.1442(2) 0.3308(2)
H23_8 H 0.811853 0.118589 0.333891
C35_8 C 0.8641(2) 0.1959(2) 0.3380(2)
H24_8 H 0.885176 0.212688 0.346952
O11_8 O 0.9433(5) 0.0184(4) 0.4571(4)
C36_8 C 0.9385(7) 0.0554(7) 0.4664(7)
Dy3_8 Dy 0.93102(2) 0.06898(2) 0.56898(2)
O28_8 O 0.88284(16) 0.12393(16) 0.55481(15)
O29_8 O 0.94519(15) 0.11716(16) 0.62393(16)
O30_8 O 0.87607(16) 0.05481(15) 0.61716(16)
O31_8 O 0.86883(16) 0.06490(15) 0.52719(16)
O32_8 O 0.97281(16) 0.13117(16) 0.56490(15)
O33_8 O 0.93510(15) 0.02719(16) 0.63117(16)
Dy2_27 Dy 1.000000 1.000000 0.500000
O6_8 O 0.99873(15) 0.95391(16) 0.43121(17)
N3_8 N 0.80937(17) 0.83769(17) 0.29450(17)
C1_8 C 0.8816(2) 0.8794(3) 0.3654(3)
N7_8 N 0.85254(19) 0.8562(2) 0.3419(2)
C9_8 C 0.9156(3) 0.8939(3) 0.3474(3)
H7_8 H 0.920794 0.889121 0.319840
C10_8 C 0.9001(3) 0.9067(4) 0.4299(4)
H8_8 H 0.895085 0.910575 0.457611
C11_8 C 0.9433(3) 0.9169(3) 0.3720(3)
H9_8 H 0.967030 0.927609 0.360781
C12_8 C 0.8734(3) 0.8853(3) 0.4066(3)
H10_8 H 0.849734 0.874510 0.418136
C14_8 C 0.9345(3) 0.9228(3) 0.4121(3)
C16_8 C 0.8308(2) 0.8238(2) 0.3558(2)
H11_8 H 0.833891 0.811853 0.381411
C17_8 C 0.8380(2) 0.8641(2) 0.3041(2)
H12_8 H 0.846952 0.885176 0.287312
O7_8 O 0.9571(4) 0.9433(5) 0.4816(4)
C18_8 C 0.9664(7) 0.9385(7) 0.4446(7)
O8_8 O 0.93121(17) 0.99873(15) 0.54609(16)
N8_8 N 0.82778(18) 0.80474(18) 0.68829(19)
C19_8 C 0.8654(3) 0.8816(2) 0.6206(3)
N9_8 N 0.8419(2) 0.85254(19) 0.6438(2)
C20_8 C 0.8474(3) 0.9156(3) 0.6061(3)
H13_8 H 0.819840 0.920794 0.610879
C21_8 C 0.9299(4) 0.9001(3) 0.5933(4)
H14_8 H 0.957611 0.895085 0.589425
C22_8 C 0.8720(3) 0.9433(3) 0.5831(3)
H15_8 H 0.860781 0.967030 0.572391
C23_8 C 0.9066(3) 0.8734(3) 0.6147(3)
H16_8 H 0.918136 0.849734 0.625490
C24_8 C 0.9121(3) 0.9345(3) 0.5772(3)
C25_8 C 0.8558(2) 0.8308(2) 0.6762(2)
H17_8 H 0.881411 0.833891 0.688147
C26_8 C 0.8041(2) 0.8380(2) 0.6359(2)
H18_8 H 0.787312 0.846952 0.614824
O9_8 O 0.9816(4) 0.9571(4) 0.5567(5)
C27_8 C 0.9446(7) 0.9664(7) 0.5615(7)
N36_7 N 0.86620(17) 0.74608(17) 0.27413(18)
N37_7 N 0.91383(18) 0.76196(18) 0.31834(19)
C100_7 C 0.8971(2) 0.7704(2) 0.2814(2)
H67_7 H 0.906325 0.790610 0.263684
C101_7 C 0.9462(2) 0.7839(2) 0.3387(2)
C102_7 C 0.9763(2) 0.8009(3) 0.3155(3)
H68_7 H 0.977454 0.796597 0.287423
C103_7 C 0.8914(2) 0.7309(2) 0.3336(2)
H69_7 H 0.895912 0.718373 0.358709
C104_7 C 0.9454(3) 0.7876(3) 0.3797(2)
H70_7 H 0.925342 0.774108 0.394633
C106_7 C 0.9741(3) 0.8115(3) 0.3998(3)
H72_7 H 0.973693 0.814190 0.428107
Cu1_2 Cu 0.68341(3) 0.18341(3) 0.31659(3)
N2_2 N 0.63764(17) 0.22080(18) 0.30813(18)
N4_3 N 0.63380(17) 0.24608(17) 0.27413(18)
N6_3 N 0.58617(18) 0.26196(18) 0.31834(19)
C2_3 C 0.6029(2) 0.2704(2) 0.2814(2)
H1_3 H 0.593675 0.290610 0.263684
C3_3 C 0.5538(2) 0.2839(2) 0.3387(2)
C4_3 C 0.5237(2) 0.3009(3) 0.3155(3)
H2_3 H 0.522546 0.296597 0.287423
C5_3 C 0.6086(2) 0.2309(2) 0.3336(2)
H3_3 H 0.604088 0.218373 0.358709
C6_3 C 0.5546(3) 0.2876(3) 0.3797(2)
H4_3 H 0.574658 0.274108 0.394633
C7_3 C 0.4944(2) 0.3250(3) 0.3355(3)
H5_3 H 0.473332 0.336959 0.320643
C8_3 C 0.5259(3) 0.3115(3) 0.3998(3)
H6_3 H 0.526307 0.314190 0.428107
C13_3 C 0.4969(2) 0.3310(2) 0.3767(2)
C15_3 C 0.4695(2) 0.3621(2) 0.3968(2)
N23_2 N 0.36236(17) 0.27920(18) 0.30813(18)
N24_2 N 0.36620(17) 0.25392(17) 0.27413(18)
N25_2 N 0.41383(18) 0.23804(18) 0.31834(19)
C64_2 C 0.3971(2) 0.2296(2) 0.2814(2)
H43_2 H 0.406325 0.209390 0.263684
C65_2 C 0.4462(2) 0.2161(2) 0.3387(2)
C66_2 C 0.4763(2) 0.1991(3) 0.3155(3)
H44_2 H 0.477454 0.203403 0.287423
C67_2 C 0.3914(2) 0.2691(2) 0.3336(2)
H45_2 H 0.395912 0.281627 0.358709
C68_2 C 0.4454(3) 0.2124(3) 0.3797(2)
H46_2 H 0.425342 0.225892 0.394633
C69_2 C 0.5056(2) 0.1750(3) 0.3355(3)
H47_2 H 0.526668 0.163041 0.320643
C70_2 C 0.4741(3) 0.1885(3) 0.3998(3)
H48_2 H 0.473693 0.185810 0.428107
C71_2 C 0.5031(2) 0.1690(2) 0.3767(2)
C72_2 C 0.5305(2) 0.1379(2) 0.3968(2)
N35_3 N 0.69187(18) 0.13764(17) 0.27920(18)
N36_8 N 0.72587(18) 0.13380(17) 0.25392(17)
N37_8 N 0.68166(19) 0.08617(18) 0.23804(18)
C100_8 C 0.7186(2) 0.1029(2) 0.2296(2)
H67_8 H 0.736316 0.093675 0.209390
C101_8 C 0.6613(2) 0.0538(2) 0.2161(2)
C102_8 C 0.6845(3) 0.0237(2) 0.1991(3)
H68_8 H 0.712577 0.022546 0.203403
C103_8 C 0.6664(2) 0.1086(2) 0.2691(2)
H69_8 H 0.641291 0.104088 0.281627
C104_8 C 0.6203(2) 0.0546(3) 0.2124(3)
H70_8 H 0.605367 0.074658 0.225892
C106_8 C 0.6002(3) 0.0259(3) 0.1885(3)
H72_8 H 0.571893 0.026307 0.185810
Cu8_2 Cu 0.31659(3) 0.31659(3) 0.31659(3)
N38_3 N 0.30813(18) 0.36236(17) 0.27920(18)
N39_4 N 0.27920(18) 0.30813(18) 0.36236(17)
N40_3 N 0.72080(18) 0.19187(18) 0.36236(17)
C78_4 C 0.8355(3) 0.0056(2) 0.6750(3)
H53_4 H 0.820643 0.026668 0.663041
C80_4 C 0.8767(2) 0.0031(2) 0.6690(2)
C81_4 C 0.8968(2) 0.0305(2) 0.6379(2)
N29_4 N 0.36236(17) 0.72080(18) 0.19187(18)
N30_5 N 0.36620(17) 0.74608(17) 0.22587(18)
N31_5 N 0.41383(18) 0.76196(18) 0.18166(19)
C82_5 C 0.3971(2) 0.7704(2) 0.2186(2)
H55_5 H 0.406325 0.790610 0.236316
C83_5 C 0.4462(2) 0.7839(2) 0.1613(2)
C84_5 C 0.4763(2) 0.8009(3) 0.1845(3)
H56_5 H 0.477454 0.796597 0.212577
C85_5 C 0.3914(2) 0.7309(2) 0.1664(2)
H57_5 H 0.395912 0.718373 0.141291
C86_5 C 0.4454(3) 0.7876(3) 0.1203(2)
H58_5 H 0.425342 0.774108 0.105367
C87_5 C 0.5056(2) 0.8250(3) 0.1645(3)
H59_5 H 0.526668 0.836959 0.179357
C88_5 C 0.4741(3) 0.8115(3) 0.1002(3)
H60_5 H 0.473693 0.814190 0.071893
C89_5 C 0.5031(2) 0.8310(2) 0.1233(2)
C90_5 C 0.5305(2) 0.8621(2) 0.1032(2)
C96_8 C 0.6750(3) 0.8355(3) 0.0056(2)
H65_8 H 0.663041 0.820643 0.026668
C98_8 C 0.6690(2) 0.8767(2) 0.0031(2)
C99_8 C 0.6379(2) 0.8968(2) 0.0305(2)
C105_8 C 0.6645(3) 0.9944(2) 0.1750(3)
H71_8 H 0.679357 0.973332 0.163041
C107_8 C 0.6233(2) 0.9969(2) 0.1690(2)
C108_8 C 0.6032(2) 0.9695(2) 0.1379(2)
Cu9_4 Cu 0.31659(3) 0.68341(3) 0.18341(3)
N26_4 N 0.80813(18) 0.86236(17) 0.77920(18)
N27_4 N 0.77413(18) 0.86620(17) 0.75392(17)
N28_4 N 0.81834(19) 0.91383(18) 0.73804(18)
C73_4 C 0.7814(2) 0.8971(2) 0.7296(2)
H49_4 H 0.763684 0.906325 0.709390
C74_4 C 0.8387(2) 0.9462(2) 0.7161(2)
C75_4 C 0.8155(3) 0.9763(2) 0.6991(3)
H50_4 H 0.787423 0.977454 0.703403
C76_4 C 0.8336(2) 0.8914(2) 0.7691(2)
H51_4 H 0.858709 0.895912 0.781627
C77_4 C 0.8797(2) 0.9454(3) 0.7124(3)
H52_4 H 0.894633 0.925342 0.725892
C79_4 C 0.8998(3) 0.9741(3) 0.6885(3)
H54_4 H 0.928107 0.973693 0.685810
N32_8 N 0.77920(18) 0.80813(18) 0.86236(17)
N33_8 N 0.75392(17) 0.77413(18) 0.86620(17)
N34_8 N 0.73804(18) 0.81834(19) 0.91383(18)
C91_8 C 0.7296(2) 0.7814(2) 0.8971(2)
H61_8 H 0.709390 0.763684 0.906325
C92_8 C 0.7161(2) 0.8387(2) 0.9462(2)
C93_8 C 0.6991(3) 0.8155(3) 0.9763(2)
H62_8 H 0.703403 0.787423 0.977454
C94_8 C 0.7691(2) 0.8336(2) 0.8914(2)
H63_8 H 0.781627 0.858709 0.895912
C95_8 C 0.7124(3) 0.8797(2) 0.9454(3)
H64_8 H 0.725892 0.894633 0.925342
C97_8 C 0.6885(3) 0.8998(3) 0.9741(3)
H66_8 H 0.685810 0.928107 0.973693
Cu10_4 Cu 0.81659(3) 0.81659(3) 0.81659(3)
N29_5 N 0.63764(17) 0.77920(18) 0.19187(18)
N30_6 N 0.63380(17) 0.75392(17) 0.22587(18)
N31_6 N 0.58617(18) 0.73804(18) 0.18166(19)
C82_6 C 0.6029(2) 0.7296(2) 0.2186(2)
H55_6 H 0.593675 0.709390 0.236316
C83_6 C 0.5538(2) 0.7161(2) 0.1613(2)
C84_6 C 0.5237(2) 0.6991(3) 0.1845(3)
H56_6 H 0.522546 0.703403 0.212577
C85_6 C 0.6086(2) 0.7691(2) 0.1664(2)
H57_6 H 0.604088 0.781627 0.141291
C86_6 C 0.5546(3) 0.7124(3) 0.1203(2)
H58_6 H 0.574658 0.725892 0.105367
C87_6 C 0.4944(2) 0.6750(3) 0.1645(3)
H59_6 H 0.473332 0.663041 0.179357
C88_6 C 0.5259(3) 0.6885(3) 0.1002(3)
H60_6 H 0.526307 0.685810 0.071893
C89_6 C 0.4969(2) 0.6690(2) 0.1233(2)
C90_6 C 0.4695(2) 0.6379(2) 0.1032(2)
C96_9 C 0.3250(3) 0.6645(3) 0.0056(2)
H65_9 H 0.336959 0.679357 0.026668
C98_9 C 0.3310(2) 0.6233(2) 0.0031(2)
C99_9 C 0.3621(2) 0.6032(2) 0.0305(2)
N36_9 N 0.27413(18) 0.36620(17) 0.25392(17)
N37_9 N 0.31834(19) 0.41383(18) 0.23804(18)
C100_9 C 0.2814(2) 0.3971(2) 0.2296(2)
H67_9 H 0.263684 0.406325 0.209390
C101_9 C 0.3387(2) 0.4462(2) 0.2161(2)
C102_9 C 0.3155(3) 0.4763(2) 0.1991(3)
H68_9 H 0.287423 0.477454 0.203403
C103_9 C 0.3336(2) 0.3914(2) 0.2691(2)
H69_9 H 0.358709 0.395912 0.281627
C104_9 C 0.3797(2) 0.4454(3) 0.2124(3)
H70_9 H 0.394633 0.425342 0.225892
C105_9 C 0.3355(3) 0.5056(2) 0.1750(3)
H71_9 H 0.320643 0.526668 0.163041
C106_9 C 0.3998(3) 0.4741(3) 0.1885(3)
H72_9 H 0.428107 0.473693 0.185810
C107_9 C 0.3767(2) 0.5031(2) 0.1690(2)
C108_9 C 0.3968(2) 0.5305(2) 0.1379(2)
Cu9_5 Cu 0.68341(3) 0.81659(3) 0.18341(3)
N26_5 N 0.19187(18) 0.63764(17) 0.77920(18)
N27_5 N 0.22587(18) 0.63380(17) 0.75392(17)
N28_5 N 0.18166(19) 0.58617(18) 0.73804(18)
C73_5 C 0.2186(2) 0.6029(2) 0.7296(2)
H49_5 H 0.236316 0.593675 0.709390
C74_5 C 0.1613(2) 0.5538(2) 0.7161(2)
C75_5 C 0.1845(3) 0.5237(2) 0.6991(3)
H50_5 H 0.212577 0.522546 0.703403
C76_5 C 0.1664(2) 0.6086(2) 0.7691(2)
H51_5 H 0.141291 0.604088 0.781627
C77_5 C 0.1203(2) 0.5546(3) 0.7124(3)
H52_5 H 0.105367 0.574658 0.725892
C78_5 C 0.1645(3) 0.4944(2) 0.6750(3)
H53_5 H 0.179357 0.473332 0.663041
C79_5 C 0.1002(3) 0.5259(3) 0.6885(3)
H54_5 H 0.071893 0.526307 0.685810
C80_5 C 0.1233(2) 0.4969(2) 0.6690(2)
C81_5 C 0.1032(2) 0.4695(2) 0.6379(2)
N32_9 N 0.22080(18) 0.69187(18) 0.86236(17)
N33_9 N 0.24608(17) 0.72587(18) 0.86620(17)
N34_9 N 0.26196(18) 0.68166(19) 0.91383(18)
C91_9 C 0.2704(2) 0.7186(2) 0.8971(2)
H61_9 H 0.290610 0.736316 0.906325
C92_9 C 0.2839(2) 0.6613(2) 0.9462(2)
C93_9 C 0.3009(3) 0.6845(3) 0.9763(2)
H62_9 H 0.296597 0.712577 0.977454
C94_9 C 0.2309(2) 0.6664(2) 0.8914(2)
H63_9 H 0.218373 0.641291 0.895912
C95_9 C 0.2876(3) 0.6203(2) 0.9454(3)
H64_9 H 0.274108 0.605367 0.925342
C97_9 C 0.3115(3) 0.6002(3) 0.9741(3)
H66_9 H 0.314190 0.571893 0.973693
Cu10_5 Cu 0.18341(3) 0.68341(3) 0.81659(3)
N26_6 N 0.80813(18) 0.13764(17) 0.72080(18)
N27_6 N 0.77413(18) 0.13380(17) 0.74608(17)
N28_6 N 0.81834(19) 0.08617(18) 0.76196(18)
C73_6 C 0.7814(2) 0.1029(2) 0.7704(2)
H49_6 H 0.763684 0.093675 0.790610
C74_6 C 0.8387(2) 0.0538(2) 0.7839(2)
C75_6 C 0.8155(3) 0.0237(2) 0.8009(3)
H50_6 H 0.787423 0.022546 0.796597
C76_6 C 0.8336(2) 0.1086(2) 0.7309(2)
H51_6 H 0.858709 0.104088 0.718373
C77_6 C 0.8797(2) 0.0546(3) 0.7876(3)
H52_6 H 0.894633 0.074658 0.774108
C79_6 C 0.8998(3) 0.0259(3) 0.8115(3)
H54_6 H 0.928107 0.026307 0.814190
N32_10 N 0.77920(18) 0.19187(18) 0.63764(17)
N33_10 N 0.75392(17) 0.22587(18) 0.63380(17)
N34_10 N 0.73804(18) 0.18166(19) 0.58617(18)
C91_10 C 0.7296(2) 0.2186(2) 0.6029(2)
H61_10 H 0.709390 0.236316 0.593675
C92_10 C 0.7161(2) 0.1613(2) 0.5538(2)
C93_10 C 0.6991(3) 0.1845(3) 0.5237(2)
H62_10 H 0.703403 0.212577 0.522546
C94_10 C 0.7691(2) 0.1664(2) 0.6086(2)
H63_10 H 0.781627 0.141291 0.604088
C95_10 C 0.7124(3) 0.1203(2) 0.5546(3)
H64_10 H 0.725892 0.105367 0.574658
C96_10 C 0.6750(3) 0.1645(3) 0.4944(2)
H65_10 H 0.663041 0.179357 0.473332
C97_10 C 0.6885(3) 0.1002(3) 0.5259(3)
H66_10 H 0.685810 0.071893 0.526307
C98_10 C 0.6690(2) 0.1233(2) 0.4969(2)
C99_10 C 0.6379(2) 0.1032(2) 0.4695(2)
C105_10 C 0.6645(3) 0.0056(2) 0.3250(3)
H71_10 H 0.679357 0.026668 0.336959
C107_10 C 0.6233(2) 0.0031(2) 0.3310(2)
C108_10 C 0.6032(2) 0.0305(2) 0.3621(2)
Cu10_6 Cu 0.81659(3) 0.18341(3) 0.68341(3)
C78_6 C 0.8355(3) 0.9944(2) 0.8250(3)
H53_6 H 0.820643 0.973332 0.836959
C80_6 C 0.8767(2) 0.9969(2) 0.8310(2)
C81_6 C 0.8968(2) 0.9695(2) 0.8621(2)
N35_4 N 0.69187(18) 0.86236(17) 0.22080(18)
N36_10 N 0.72587(18) 0.86620(17) 0.24608(17)
N37_10 N 0.68166(19) 0.91383(18) 0.26196(18)
C100_10 C 0.7186(2) 0.8971(2) 0.2704(2)
H67_10 H 0.736316 0.906325 0.290610
C101_10 C 0.6613(2) 0.9462(2) 0.2839(2)
C102_10 C 0.6845(3) 0.9763(2) 0.3009(3)
H68_10 H 0.712577 0.977454 0.296597
C103_10 C 0.6664(2) 0.8914(2) 0.2309(2)
H69_10 H 0.641291 0.895912 0.218373
C104_10 C 0.6203(2) 0.9454(3) 0.2876(3)
H70_10 H 0.605367 0.925342 0.274108
C106_10 C 0.6002(3) 0.9741(3) 0.3115(3)
H72_10 H 0.571893 0.973693 0.314190
N38_4 N 0.30813(18) 0.63764(17) 0.22080(18)
N39_5 N 0.27920(18) 0.69187(18) 0.13764(17)
N40_4 N 0.72080(18) 0.80813(18) 0.13764(17)
N4_4 N 0.27413(18) 0.63380(17) 0.24608(17)
N6_4 N 0.31834(19) 0.58617(18) 0.26196(18)
C2_4 C 0.2814(2) 0.6029(2) 0.2704(2)
H1_4 H 0.263684 0.593675 0.290610
C3_4 C 0.3387(2) 0.5538(2) 0.2839(2)
C4_4 C 0.3155(3) 0.5237(2) 0.3009(3)
H2_4 H 0.287423 0.522546 0.296597
C5_4 C 0.3336(2) 0.6086(2) 0.2309(2)
H3_4 H 0.358709 0.604088 0.218373
C6_4 C 0.3797(2) 0.5546(3) 0.2876(3)
H4_4 H 0.394633 0.574658 0.274108
C7_4 C 0.3355(3) 0.4944(2) 0.3250(3)
H5_4 H 0.320643 0.473332 0.336959
C8_4 C 0.3998(3) 0.5259(3) 0.3115(3)
H6_4 H 0.428107 0.526307 0.314190
C13_4 C 0.3767(2) 0.4969(2) 0.3310(2)
C15_4 C 0.3968(2) 0.4695(2) 0.3621(2)
N36_11 N 0.25392(17) 0.72587(18) 0.13380(17)
N37_11 N 0.23804(18) 0.68166(19) 0.08617(18)
C100_11 C 0.2296(2) 0.7186(2) 0.1029(2)
H67_11 H 0.209390 0.736316 0.093675
C101_11 C 0.2161(2) 0.6613(2) 0.0538(2)
C102_11 C 0.1991(3) 0.6845(3) 0.0237(2)
H68_11 H 0.203403 0.712577 0.022546
C103_11 C 0.2691(2) 0.6664(2) 0.1086(2)
H69_11 H 0.281627 0.641291 0.104088
C104_11 C 0.2124(3) 0.6203(2) 0.0546(3)
H70_11 H 0.225892 0.605367 0.074658
C106_11 C 0.1885(3) 0.6002(3) 0.0259(3)
H72_11 H 0.185810 0.571893 0.026307
N29_6 N 0.19187(18) 0.36236(17) 0.72080(18)
N30_7 N 0.22587(18) 0.36620(17) 0.74608(17)
N31_7 N 0.18166(19) 0.41383(18) 0.76196(18)
C82_7 C 0.2186(2) 0.3971(2) 0.7704(2)
H55_7 H 0.236316 0.406325 0.790610
C83_7 C 0.1613(2) 0.4462(2) 0.7839(2)
C84_7 C 0.1845(3) 0.4763(2) 0.8009(3)
H56_7 H 0.212577 0.477454 0.796597
C85_7 C 0.1664(2) 0.3914(2) 0.7309(2)
H57_7 H 0.141291 0.395912 0.718373
C86_7 C 0.1203(2) 0.4454(3) 0.7876(3)
H58_7 H 0.105367 0.425342 0.774108
C87_7 C 0.1645(3) 0.5056(2) 0.8250(3)
H59_7 H 0.179357 0.526668 0.836959
C88_7 C 0.1002(3) 0.4741(3) 0.8115(3)
H60_7 H 0.071893 0.473693 0.814190
C89_7 C 0.1233(2) 0.5031(2) 0.8310(2)
C90_7 C 0.1032(2) 0.5305(2) 0.8621(2)
C96_11 C 0.0056(2) 0.6750(3) 0.8355(3)
H65_11 H 0.026668 0.663041 0.820643
C98_11 C 0.0031(2) 0.6690(2) 0.8767(2)
C99_11 C 0.0305(2) 0.6379(2) 0.8968(2)
C105_11 C 0.1750(3) 0.6645(3) 0.9944(2)
H71_11 H 0.163041 0.679357 0.973332
C107_11 C 0.1690(2) 0.6233(2) 0.9969(2)
C108_11 C 0.1379(2) 0.6032(2) 0.9695(2)
Cu9_6 Cu 0.18341(3) 0.31659(3) 0.68341(3)
N32_11 N 0.86236(17) 0.77920(18) 0.80813(18)
N33_11 N 0.86620(17) 0.75392(17) 0.77413(18)
N34_11 N 0.91383(18) 0.73804(18) 0.81834(19)
C91_11 C 0.8971(2) 0.7296(2) 0.7814(2)
H61_11 H 0.906325 0.709390 0.763684
C92_11 C 0.9462(2) 0.7161(2) 0.8387(2)
C93_11 C 0.9763(2) 0.6991(3) 0.8155(3)
H62_11 H 0.977454 0.703403 0.787423
C94_11 C 0.8914(2) 0.7691(2) 0.8336(2)
H63_11 H 0.895912 0.781627 0.858709
C95_11 C 0.9454(3) 0.7124(3) 0.8797(2)
H64_11 H 0.925342 0.725892 0.894633
C97_11 C 0.9741(3) 0.6885(3) 0.8998(3)
H66_11 H 0.973693 0.685810 0.928107
N32_12 N 0.22080(18) 0.30813(18) 0.63764(17)
N33_12 N 0.24608(17) 0.27413(18) 0.63380(17)
N34_12 N 0.26196(18) 0.31834(19) 0.58617(18)
C91_12 C 0.2704(2) 0.2814(2) 0.6029(2)
H61_12 H 0.290610 0.263684 0.593675
C92_12 C 0.2839(2) 0.3387(2) 0.5538(2)
C93_12 C 0.3009(3) 0.3155(3) 0.5237(2)
H62_12 H 0.296597 0.287423 0.522546
C94_12 C 0.2309(2) 0.3336(2) 0.6086(2)
H63_12 H 0.218373 0.358709 0.604088
C95_12 C 0.2876(3) 0.3797(2) 0.5546(3)
H64_12 H 0.274108 0.394633 0.574658
C96_12 C 0.3250(3) 0.3355(3) 0.4944(2)
H65_12 H 0.336959 0.320643 0.473332
C97_12 C 0.3115(3) 0.3998(3) 0.5259(3)
H66_12 H 0.314190 0.428107 0.526307
C98_12 C 0.3310(2) 0.3767(2) 0.4969(2)
C99_12 C 0.3621(2) 0.3968(2) 0.4695(2)
C96_13 C 0.0056(2) 0.3250(3) 0.6645(3)
H65_13 H 0.026668 0.336959 0.679357
C98_13 C 0.0031(2) 0.3310(2) 0.6233(2)
C99_13 C 0.0305(2) 0.3621(2) 0.6032(2)
N36_12 N 0.25392(17) 0.27413(18) 0.36620(17)
N37_12 N 0.23804(18) 0.31834(19) 0.41383(18)
C100_12 C 0.2296(2) 0.2814(2) 0.3971(2)
H67_12 H 0.209390 0.263684 0.406325
C101_12 C 0.2161(2) 0.3387(2) 0.4462(2)
C102_12 C 0.1991(3) 0.3155(3) 0.4763(2)
H68_12 H 0.203403 0.287423 0.477454
C103_12 C 0.2691(2) 0.3336(2) 0.3914(2)
H69_12 H 0.281627 0.358709 0.395912
C104_12 C 0.2124(3) 0.3797(2) 0.4454(3)
H70_12 H 0.225892 0.394633 0.425342
C105_12 C 0.1750(3) 0.3355(3) 0.5056(2)
H71_12 H 0.163041 0.320643 0.526668
C106_12 C 0.1885(3) 0.3998(3) 0.4741(3)
H72_12 H 0.185810 0.428107 0.473693
C107_12 C 0.1690(2) 0.3767(2) 0.5031(2)
C108_12 C 0.1379(2) 0.3968(2) 0.5305(2)
N32_13 N 0.86236(17) 0.22080(18) 0.69187(18)
N33_13 N 0.86620(17) 0.24608(17) 0.72587(18)
N34_13 N 0.91383(18) 0.26196(18) 0.68166(19)
C91_13 C 0.8971(2) 0.2704(2) 0.7186(2)
H61_13 H 0.906325 0.290610 0.736316
C92_13 C 0.9462(2) 0.2839(2) 0.6613(2)
C93_13 C 0.9763(2) 0.3009(3) 0.6845(3)
H62_13 H 0.977454 0.296597 0.712577
C94_13 C 0.8914(2) 0.2309(2) 0.6664(2)
H63_13 H 0.895912 0.218373 0.641291
C95_13 C 0.9454(3) 0.2876(3) 0.6203(2)
H64_13 H 0.925342 0.274108 0.605367
C97_13 C 0.9741(3) 0.3115(3) 0.6002(3)
H66_13 H 0.973693 0.314190 0.571893
N32_14 N 0.13764(17) 0.72080(18) 0.80813(18)
N33_14 N 0.13380(17) 0.74608(17) 0.77413(18)
N34_14 N 0.08617(18) 0.76196(18) 0.81834(19)
C91_14 C 0.1029(2) 0.7704(2) 0.7814(2)
H61_14 H 0.093675 0.790610 0.763684
C92_14 C 0.0538(2) 0.7839(2) 0.8387(2)
C93_14 C 0.0237(2) 0.8009(3) 0.8155(3)
H62_14 H 0.022546 0.796597 0.787423
C94_14 C 0.1086(2) 0.7309(2) 0.8336(2)
H63_14 H 0.104088 0.718373 0.858709
C95_14 C 0.0546(3) 0.7876(3) 0.8797(2)
H64_14 H 0.074658 0.774108 0.894633
C97_14 C 0.0259(3) 0.8115(3) 0.8998(3)
H66_14 H 0.026307 0.814190 0.928107
N36_13 N 0.74608(17) 0.77413(18) 0.13380(17)
N37_13 N 0.76196(18) 0.81834(19) 0.08617(18)
C100_13 C 0.7704(2) 0.7814(2) 0.1029(2)
H67_13 H 0.790610 0.763684 0.093675
C101_13 C 0.7839(2) 0.8387(2) 0.0538(2)
C102_13 C 0.8009(3) 0.8155(3) 0.0237(2)
H68_13 H 0.796597 0.787423 0.022546
C103_13 C 0.7309(2) 0.8336(2) 0.1086(2)
H69_13 H 0.718373 0.858709 0.104088
C104_13 C 0.7876(3) 0.8797(2) 0.0546(3)
H70_13 H 0.774108 0.894633 0.074658
C106_13 C 0.8115(3) 0.8998(3) 0.0259(3)
H72_13 H 0.814190 0.928107 0.026307
C96_14 C 0.9944(2) 0.8250(3) 0.8355(3)
H65_14 H 0.973332 0.836959 0.820643
C98_14 C 0.9969(2) 0.8310(2) 0.8767(2)
C99_14 C 0.9695(2) 0.8621(2) 0.8968(2)
C105_13 C 0.8250(3) 0.8355(3) 0.9944(2)
H71_13 H 0.836959 0.820643 0.973332
C107_13 C 0.8310(2) 0.8767(2) 0.9969(2)
C108_13 C 0.8621(2) 0.8968(2) 0.9695(2)
N39_6 N 0.13764(17) 0.27920(18) 0.69187(18)
N36_14 N 0.13380(17) 0.25392(17) 0.72587(18)
N37_14 N 0.08617(18) 0.23804(18) 0.68166(19)
C100_14 C 0.1029(2) 0.2296(2) 0.7186(2)
H67_14 H 0.093675 0.209390 0.736316
C101_14 C 0.0538(2) 0.2161(2) 0.6613(2)
C102_14 C 0.0237(2) 0.1991(3) 0.6845(3)
H68_14 H 0.022546 0.203403 0.712577
C103_14 C 0.1086(2) 0.2691(2) 0.6664(2)
H69_14 H 0.104088 0.281627 0.641291
C104_14 C 0.0546(3) 0.2124(3) 0.6203(2)
H70_14 H 0.074658 0.225892 0.605367
C106_14 C 0.0259(3) 0.1885(3) 0.6002(3)
H72_14 H 0.026307 0.185810 0.571893
N30_8 N 0.74608(17) 0.22587(18) 0.36620(17)
N31_8 N 0.76196(18) 0.18166(19) 0.41383(18)
C82_8 C 0.7704(2) 0.2186(2) 0.3971(2)
H55_8 H 0.790610 0.236316 0.406325
C83_8 C 0.7839(2) 0.1613(2) 0.4462(2)
C84_8 C 0.8009(3) 0.1845(3) 0.4763(2)
H56_8 H 0.796597 0.212577 0.477454
C85_8 C 0.7309(2) 0.1664(2) 0.3914(2)
H57_8 H 0.718373 0.141291 0.395912
C86_8 C 0.7876(3) 0.1203(2) 0.4454(3)
H58_8 H 0.774108 0.105367 0.425342
C87_8 C 0.8250(3) 0.1645(3) 0.5056(2)
H59_8 H 0.836959 0.179357 0.526668
C88_8 C 0.8115(3) 0.1002(3) 0.4741(3)
H60_8 H 0.814190 0.071893 0.473693
C89_8 C 0.8310(2) 0.1233(2) 0.5031(2)
C90_8 C 0.8621(2) 0.1032(2) 0.5305(2)
C105_14 C 0.9944(2) 0.1750(3) 0.6645(3)
H71_14 H 0.973332 0.163041 0.679357
C107_14 C 0.9969(2) 0.1690(2) 0.6233(2)
C108_14 C 0.9695(2) 0.1379(2) 0.6032(2)
loop_
_geom_bond_atom_site_label_1
_geom_bond_atom_site_label_2
_geom_bond_site_symmetry_1
_geom_bond_site_symmetry_2
N1 O1 1_555 1_555
O2 N1 1_555 1_555
O3 N1 1_555 1_555
N1_2 O1_2 1_555 1_555
O2_2 N1_2 1_555 1_555
O3_2 N1_2 1_555 1_555
N1_3 O1_3 1_555 1_555
O2_3 N1_3 1_555 1_555
O3_3 N1_3 1_555 1_555
N1_4 O1_4 1_555 1_555
O2_4 N1_4 1_555 1_555
O3_4 N1_4 1_555 1_555
N1_5 O1_5 1_555 1_555
O2_5 N1_5 1_555 1_555
O3_5 N1_5 1_555 1_555
N1_6 O1_6 1_555 1_555
O2_6 N1_6 1_555 1_555
O3_6 N1_6 1_555 1_555
N1_7 O1_7 1_555 1_555
O2_7 N1_7 1_555 1_555
O3_7 N1_7 1_555 1_555
N1_8 O1_8 1_555 1_555
O2_8 N1_8 1_555 1_555
O3_8 N1_8 1_555 1_555
N1_9 O1_9 1_555 1_555
O2_9 N1_9 1_555 1_555
O3_9 N1_9 1_555 1_555
N1_10 O1_10 1_555 1_555
O2_10 N1_10 1_555 1_555
O3_10 N1_10 1_555 1_555
N1_11 O1_11 1_555 1_555
O2_11 N1_11 1_555 1_555
O3_11 N1_11 1_555 1_555
N1_12 O1_12 1_555 1_555
O2_12 N1_12 1_555 1_555
O3_12 N1_12 1_555 1_555
N1_13 O1_13 1_555 1_555
O2_13 N1_13 1_555 1_555
O3_13 N1_13 1_555 1_555
N1_14 O1_14 1_555 1_555
O2_14 N1_14 1_555 1_555
O3_14 N1_14 1_555 1_555
N1_15 O1_15 1_555 1_555
O2_15 N1_15 1_555 1_555
O3_15 N1_15 1_555 1_555
N1_16 O1_16 1_555 1_555
O2_16 N1_16 1_555 1_555
O3_16 N1_16 1_555 1_555
N1_17 O1_17 1_555 1_555
O2_17 N1_17 1_555 1_555
O3_17 N1_17 1_555 1_555
N1_18 O1_18 1_555 1_555
O2_18 N1_18 1_555 1_555
O3_18 N1_18 1_555 1_555
N1_19 O1_19 1_555 1_555
O2_19 N1_19 1_555 1_555
O3_19 N1_19 1_555 1_555
N1_20 O1_20 1_555 1_555
O2_20 N1_20 1_555 1_555
O3_20 N1_20 1_555 1_555
N1_21 O1_21 1_555 1_555
O2_21 N1_21 1_555 1_555
O3_21 N1_21 1_555 1_555
N1_22 O1_22 1_555 1_555
O2_22 N1_22 1_555 1_555
O3_22 N1_22 1_555 1_555
N1_23 O1_23 1_555 1_555
O2_23 N1_23 1_555 1_555
O3_23 N1_23 1_555 1_555
N1_24 O1_24 1_555 1_555
O2_24 N1_24 1_555 1_555
O3_24 N1_24 1_555 1_555
N1_25 O1_25 1_555 1_555
O2_25 N1_25 1_555 1_555
O3_25 N1_25 1_555 1_555
N1_26 O1_26 1_555 1_555
O2_26 N1_26 1_555 1_555
O3_26 N1_26 1_555 1_555
N1_27 O1_27 1_555 1_555
O2_27 N1_27 1_555 1_555
O3_27 N1_27 1_555 1_555
N1_28 O1_28 1_555 1_555
O2_28 N1_28 1_555 1_555
O3_28 N1_28 1_555 1_555
N1_29 O1_29 1_555 1_555
O2_29 N1_29 1_555 1_555
O3_29 N1_29 1_555 1_555
N1_30 O1_30 1_555 1_555
O2_30 N1_30 1_555 1_555
O3_30 N1_30 1_555 1_555
N1_31 O1_31 1_555 1_555
O2_31 N1_31 1_555 1_555
O3_31 N1_31 1_555 1_555
N1_32 O1_32 1_555 1_555
O2_32 N1_32 1_555 1_555
O3_32 N1_32 1_555 1_555
N1_33 O1_33 1_555 1_555
O2_33 N1_33 1_555 1_555
O3_33 N1_33 1_555 1_555
N1_34 O1_34 1_555 1_555
O2_34 N1_34 1_555 1_555
O3_34 N1_34 1_555 1_555
N1_35 O1_35 1_555 1_555
O2_35 N1_35 1_555 1_555
O3_35 N1_35 1_555 1_555
N1_36 O1_36 1_555 1_555
O2_36 N1_36 1_555 1_555
O3_36 N1_36 1_555 1_555
N1_37 O1_37 1_555 1_555
O2_37 N1_37 1_555 1_555
O3_37 N1_37 1_555 1_555
N1_38 O1_38 1_555 1_555
O2_38 N1_38 1_555 1_555
O3_38 N1_38 1_555 1_555
N1_39 O1_39 1_555 1_555
O2_39 N1_39 1_555 1_555
O3_39 N1_39 1_555 1_555
N1_40 O1_40 1_555 1_555
O2_40 N1_40 1_555 1_555
O3_40 N1_40 1_555 1_555
N1_41 O1_41 1_555 1_555
O2_41 N1_41 1_555 1_555
O3_41 N1_41 1_555 1_555
N1_42 O1_42 1_555 1_555
O2_42 N1_42 1_555 1_555
O3_42 N1_42 1_555 1_555
N1_43 O1_43 1_555 1_555
O2_43 N1_43 1_555 1_555
O3_43 N1_43 1_555 1_555
N1_44 O1_44 1_555 1_555
O2_44 N1_44 1_555 1_555
O3_44 N1_44 1_555 1_555
N1_45 O1_45 1_555 1_555
O2_45 N1_45 1_555 1_555
O3_45 N1_45 1_555 1_555
N1_46 O1_46 1_555 1_555
O2_46 N1_46 1_555 1_555
O3_46 N1_46 1_555 1_555
N1_47 O1_47 1_555 1_555
O2_47 N1_47 1_555 1_555
O3_47 N1_47 1_555 1_555
N1_48 O1_48 1_555 1_555
O2_48 N1_48 1_555 1_555
O3_48 N1_48 1_555 1_555
N14 C43 1_555 1_555
C37 N15 1_555 1_555
N15 C43 1_555 1_555
C38 C37 1_555 1_555
H25 C38 1_555 1_555
C39 H26 1_555 1_555
C40 C38 1_555 1_555
H27 C40 1_555 1_555
C41 C37 1_555 1_555
H28 C41 1_555 1_555
C42 C39 1_555 1_555
C43 H29 1_555 1_555
C44 N15 1_555 1_555
H30 C44 1_555 1_555
O13 Dy2 1_555 1_555
C45 O12 1_555 1_555
N16 N14 1_555 1_555
O16 Dy2 1_555 1_555
N20 C61 1_555 1_555
C55 N21 1_555 1_555
N21 C61 1_555 1_555
C56 C55 1_555 1_555
H37 C56 1_555 1_555
C57 H38 1_555 1_555
C58 C56 1_555 1_555
H39 C58 1_555 1_555
C59 C55 1_555 1_555
H40 C59 1_555 1_555
C60 C57 1_555 1_555
C61 H41 1_555 1_555
C62 N21 1_555 1_555
H42 C62 1_555 1_555
O17 Dy2 1_555 1_555
C63 O16 1_555 1_555
N22 N20 1_555 1_555
Cu4 N14 1_555 1_555
N26 N27 1_555 1_555
N27 Cu4 1_555 1_555
N28 C73 1_555 1_555
C73 N27 1_555 1_555
H49 C73 1_555 1_555
C74 N28 1_555 1_555
C75 C74 1_555 1_555
H50 C75 1_555 1_555
C76 N26 1_555 1_555
H51 C76 1_555 1_555
C77 C74 1_555 1_555
H52 C77 1_555 1_555
C79 C77 1_555 1_555
H54 C79 1_555 1_555
Cu6 N33 1_555 1_555
N32 N33 1_555 1_555
N33 C91 1_555 1_555
N34 C91 1_555 1_555
C91 H61 1_555 1_555
C92 N34 1_555 1_555
C93 C92 1_555 1_555
H62 C93 1_555 1_555
C94 N32 1_555 1_555
H63 C94 1_555 1_555
C95 C92 1_555 1_555
H64 C95 1_555 1_555
C97 C95 1_555 1_555
H66 C97 1_555 1_555
I4 Cu4 1_555 1_555
Cu10 N26 1_555 1_555
Cu11 N22 1_555 1_555
Cu15 N20 1_555 1_555
Cu16 N16 1_555 1_555
N41 Cu6 1_555 1_555
N43 Cu4 1_555 1_555
N49 Cu6 1_555 1_555
Dy2 O12 1_555 1_555
C39 C41 1_555 1_555
C40 C42 1_555 1_555
C42 C45 1_555 1_555
C44 N16 1_555 1_555
O13 C45 1_555 1_555
C57 C59 1_555 1_555
C58 C60 1_555 1_555
C60 C63 1_555 1_555
C62 N22 1_555 1_555
O17 C63 1_555 1_555
N28 C76 1_555 1_555
Cu6 I4 1_555 1_555
N32 Cu10 1_555 1_555
N34 C94 1_555 1_555
I4 Cu16 1_555 1_555
O14 Dy1 1_555 1_555
N17 C52 1_555 1_555
C46 N18 1_555 1_555
N18 C52 1_555 1_555
C47 C46 1_555 1_555
H31 C47 1_555 1_555
C48 H32 1_555 1_555
C49 C47 1_555 1_555
H33 C49 1_555 1_555
C50 C46 1_555 1_555
H34 C50 1_555 1_555
C51 C48 1_555 1_555
C52 H35 1_555 1_555
C53 N18 1_555 1_555
H36 C53 1_555 1_555
O15 Dy2_2 1_555 1_555
C54 O14 1_555 1_555
N19 N17 1_555 1_555
Cu5 N30 1_555 1_555
O22 Dy1 1_555 1_555
O23 Dy1 1_555 1_555
N29 N30 1_555 1_555
N30 C82 1_555 1_555
N31 C82 1_555 1_555
C82 H55 1_555 1_555
C83 N31 1_555 1_555
C84 C83 1_555 1_555
H56 C84 1_555 1_555
C85 N29 1_555 1_555
H57 C85 1_555 1_555
C86 C83 1_555 1_555
H58 C86 1_555 1_555
C87 C84 1_555 1_555
H59 C87 1_555 1_555
C88 C86 1_555 1_555
H60 C88 1_555 1_555
C89 C87 1_555 1_555
C90 O22 1_555 1_555
O24 Dy1 1_555 1_555
O25 Dy1 1_555 1_555
H65 C96 1_555 1_555
C98 C96 1_555 1_555
C99 O24 1_555 1_555
O26 Dy1 1_555 1_555
O27 Dy1 1_555 1_555
H71 C105 1_555 1_555
C107 C105 1_555 1_555
C108 O26 1_555 1_555
I3 Cu5 1_555 1_555
Cu9 N29 1_555 1_555
Cu13 N17 1_555 1_555
Cu20 N19 1_555 1_555
N45 Cu5 1_555 1_555
N47 Cu5 1_555 1_555
Dy2_2 O14 1_555 1_555
C48 C50 1_555 1_555
C49 C51 1_555 1_555
C51 C54 1_555 1_555
C53 N19 1_555 1_555
O15 C54 1_555 1_555
O23 C90 1_555 1_555
N31 C85 1_555 1_555
C88 C89 1_555 1_555
C89 C90 1_555 1_555
O25 C99 1_555 1_555
C98 C99 1_555 1_555
O27 C108 1_555 1_555
C107 C108 1_555 1_555
I3 Cu13 1_555 1_555
I3 Cu20 1_555 1_555
O10 Dy2_3 1_555 1_555
N11 C34 1_555 1_555
C28 N12 1_555 1_555
N12 C34 1_555 1_555
C29 C28 1_555 1_555
H19 C29 1_555 1_555
C30 H20 1_555 1_555
C31 C29 1_555 1_555
H21 C31 1_555 1_555
C32 C28 1_555 1_555
H22 C32 1_555 1_555
C33 C30 1_555 1_555
C34 H23 1_555 1_555
C35 N12 1_555 1_555
H24 C35 1_555 1_555
O11 Dy2_3 1_555 1_555
C36 O10 1_555 1_555
N13 N11 1_555 1_555
O20 C81 1_555 1_555
O21 C81 1_555 1_555
H53 C78 1_555 1_555
C80 C78 1_555 1_555
C81 C80 1_555 1_555
Dy6 O20 1_555 1_555
Cu12 N13 1_555 1_555
Cu22 N11 1_555 1_555
O28 Dy3 1_555 1_555
O29 Dy3 1_555 1_555
O30 Dy3 1_555 1_555
O31 Dy3 1_555 1_555
O32 Dy3 1_555 1_555
O33 Dy3 1_555 1_555
O10 Dy3 1_555 1_555
C30 C32 1_555 1_555
C31 C33 1_555 1_555
C33 C36 1_555 1_555
C35 N13 1_555 1_555
O11 C36 1_555 1_555
O21 Dy6 1_555 1_555
Dy2_4 O6 1_555 1_555
I1 Cu2 1_555 1_555
Cu1 N2 1_555 1_555
Cu2 N4 1_555 1_555
O4 C15 1_555 1_555
O5 C15 1_555 1_555
N2 N4 1_555 1_555
O6 C18 1_555 1_555
N3 N5 1_555 1_555
N4 C2 1_555 1_555
N5 Cu2 1_555 1_555
N6 C2 1_555 1_555
C1 N7 1_555 1_555
N7 C16 1_555 1_555
C2 H1 1_555 1_555
C3 N6 1_555 1_555
C4 C3 1_555 1_555
H2 C4 1_555 1_555
C5 N2 1_555 1_555
H3 C5 1_555 1_555
C6 C3 1_555 1_555
H4 C6 1_555 1_555
C7 C4 1_555 1_555
H5 C7 1_555 1_555
C8 C6 1_555 1_555
H6 C8 1_555 1_555
C9 C1 1_555 1_555
H7 C9 1_555 1_555
C10 H8 1_555 1_555
C11 C9 1_555 1_555
H9 C11 1_555 1_555
C12 C1 1_555 1_555
H10 C12 1_555 1_555
C13 C7 1_555 1_555
C14 C10 1_555 1_555
C15 C13 1_555 1_555
C16 N5 1_555 1_555
H11 C16 1_555 1_555
C17 N3 1_555 1_555
H12 C17 1_555 1_555
O7 Dy2_4 1_555 1_555
C18 C14 1_555 1_555
O8 Dy2_4 1_555 1_555
N8 C25 1_555 1_555
C19 N9 1_555 1_555
N9 C25 1_555 1_555
C20 C19 1_555 1_555
H13 C20 1_555 1_555
C21 H14 1_555 1_555
C22 C20 1_555 1_555
H15 C22 1_555 1_555
C23 C19 1_555 1_555
H16 C23 1_555 1_555
C24 C21 1_555 1_555
C25 H17 1_555 1_555
C26 N9 1_555 1_555
H18 C26 1_555 1_555
O9 Dy2_4 1_555 1_555
C27 O8 1_555 1_555
N10 N8 1_555 1_555
Cu3 N10 1_555 1_555
O18 C72 1_555 1_555
O19 C72 1_555 1_555
N23 N24 1_555 1_555
N24 Cu3 1_555 1_555
N25 C64 1_555 1_555
C64 N24 1_555 1_555
H43 C64 1_555 1_555
C65 N25 1_555 1_555
C66 C65 1_555 1_555
H44 C66 1_555 1_555
C67 N23 1_555 1_555
H45 C67 1_555 1_555
C68 C65 1_555 1_555
H46 C68 1_555 1_555
C69 C66 1_555 1_555
H47 C69 1_555 1_555
C70 C68 1_555 1_555
H48 C70 1_555 1_555
C71 C69 1_555 1_555
C72 C71 1_555 1_555
Cu7 I1 1_555 1_555
N35 Cu1 1_555 1_555
N36 Cu7 1_555 1_555
N37 C100 1_555 1_555
C100 N36 1_555 1_555
H67 C100 1_555 1_555
C101 N37 1_555 1_555
C102 C101 1_555 1_555
H68 C102 1_555 1_555
C103 N35 1_555 1_555
H69 C103 1_555 1_555
C104 C101 1_555 1_555
H70 C104 1_555 1_555
C106 C104 1_555 1_555
H72 C106 1_555 1_555
Cu8 N23 1_555 1_555
Dy4 O18 1_555 1_555
Dy5 O4 1_555 1_555
I2 Cu3 1_555 1_555
Cu14 I1 1_555 1_555
Cu17 I1 1_555 1_555
Cu18 I1 1_555 1_555
Cu19 I1 1_555 1_555
Cu21 N8 1_555 1_555
N38 Cu8 1_555 1_555
N39 Cu8 1_555 1_555
N40 Cu1 1_555 1_555
N42 Cu2 1_555 1_555
N44 Cu7 1_555 1_555
N46 Cu3 1_555 1_555
N48 Cu7 1_555 1_555
O5 Dy5 1_555 1_555
N3 Cu18 1_555 1_555
N6 C5 1_555 1_555
N7 C17 1_555 1_555
C8 C13 1_555 1_555
C10 C12 1_555 1_555
C11 C14 1_555 1_555
O7 C18 1_555 1_555
C21 C23 1_555 1_555
C22 C24 1_555 1_555
C24 C27 1_555 1_555
C26 N10 1_555 1_555
O9 C27 1_555 1_555
O19 Dy4 1_555 1_555
N25 C67 1_555 1_555
C70 C71 1_555 1_555
N35 N36 1_555 1_555
N37 C103 1_555 1_555
I2 Cu21 1_555 1_555
O10_2 Dy2_5 1_555 1_555
N11_2 C34_2 1_555 1_555
C28_2 N12_2 1_555 1_555
N12_2 C34_2 1_555 1_555
C29_2 C28_2 1_555 1_555
H19_2 C29_2 1_555 1_555
C30_2 H20_2 1_555 1_555
C31_2 C29_2 1_555 1_555
H21_2 C31_2 1_555 1_555
C32_2 C28_2 1_555 1_555
H22_2 C32_2 1_555 1_555
C33_2 C30_2 1_555 1_555
C34_2 H23_2 1_555 1_555
C35_2 N12_2 1_555 1_555
H24_2 C35_2 1_555 1_555
O11_2 Dy2_5 1_555 1_555
C36_2 O10_2 1_555 1_555
N13_2 N11_2 1_555 1_555
N14_2 C43_2 1_555 1_555
C37_2 N15_2 1_555 1_555
N15_2 C43_2 1_555 1_555
C38_2 C37_2 1_555 1_555
H25_2 C38_2 1_555 1_555
C39_2 H26_2 1_555 1_555
C40_2 C38_2 1_555 1_555
H27_2 C40_2 1_555 1_555
C41_2 C37_2 1_555 1_555
H28_2 C41_2 1_555 1_555
C42_2 C39_2 1_555 1_555
C43_2 H29_2 1_555 1_555
C44_2 N15_2 1_555 1_555
H30_2 C44_2 1_555 1_555
O13_2 Dy2_5 1_555 1_555
C45_2 O12_2 1_555 1_555
N16_2 N14_2 1_555 1_555
O16_2 Dy2_5 1_555 1_555
N20_2 C61_2 1_555 1_555
C55_2 N21_2 1_555 1_555
N21_2 C61_2 1_555 1_555
C56_2 C55_2 1_555 1_555
H37_2 C56_2 1_555 1_555
C57_2 H38_2 1_555 1_555
C58_2 C56_2 1_555 1_555
H39_2 C58_2 1_555 1_555
C59_2 C55_2 1_555 1_555
H40_2 C59_2 1_555 1_555
C60_2 C57_2 1_555 1_555
C61_2 H41_2 1_555 1_555
C62_2 N21_2 1_555 1_555
H42_2 C62_2 1_555 1_555
O17_2 Dy2_5 1_555 1_555
C63_2 O16_2 1_555 1_555
N41 N20_2 1_555 1_555
Cu4_2 N14_2 1_555 1_555
O20_2 C81_2 1_555 1_555
O21_2 C81_2 1_555 1_555
N26_2 N27_2 1_555 1_555
N27_2 Cu4_2 1_555 1_555
N28_2 C73_2 1_555 1_555
C73_2 N27_2 1_555 1_555
H49_2 C73_2 1_555 1_555
C74_2 N28_2 1_555 1_555
C75_2 C74_2 1_555 1_555
H50_2 C75_2 1_555 1_555
C76_2 N26_2 1_555 1_555
H51_2 C76_2 1_555 1_555
C77_2 C74_2 1_555 1_555
H52_2 C77_2 1_555 1_555
C78_2 C75_2 1_555 1_555
H53_2 C78_2 1_555 1_555
C79_2 C77_2 1_555 1_555
H54_2 C79_2 1_555 1_555
C80_2 C78_2 1_555 1_555
C81_2 C80_2 1_555 1_555
Cu11 N33_2 1_555 1_555
N32_2 N33_2 1_555 1_555
N33_2 C91_2 1_555 1_555
N34_2 C91_2 1_555 1_555
C91_2 H61_2 1_555 1_555
C92_2 N34_2 1_555 1_555
C93_2 C92_2 1_555 1_555
H62_2 C93_2 1_555 1_555
C94_2 N32_2 1_555 1_555
H63_2 C94_2 1_555 1_555
C95_2 C92_2 1_555 1_555
H64_2 C95_2 1_555 1_555
C97_2 C95_2 1_555 1_555
H66_2 C97_2 1_555 1_555
Dy6_2 O20_2 1_555 1_555
I4_2 Cu4_2 1_555 1_555
Cu10_2 N26_2 1_555 1_555
Cu12_2 N13_2 1_555 1_555
Cu16 N20_2 1_555 1_555
Cu15 N16_2 1_555 1_555
Cu22_2 N11_2 1_555 1_555
O28_2 Dy3_2 1_555 1_555
O29_2 Dy3_2 1_555 1_555
O30_2 Dy3_2 1_555 1_555
O31_2 Dy3_2 1_555 1_555
O32_2 Dy3_2 1_555 1_555
O33_2 Dy3_2 1_555 1_555
N43_2 Cu4_2 1_555 1_555
N49_2 Cu11 1_555 1_555
Dy2_5 O12_2 1_555 1_555
O10_2 Dy3_2 1_555 1_555
C30_2 C32_2 1_555 1_555
C31_2 C33_2 1_555 1_555
C33_2 C36_2 1_555 1_555
C35_2 N13_2 1_555 1_555
O11_2 C36_2 1_555 1_555
C39_2 C41_2 1_555 1_555
C40_2 C42_2 1_555 1_555
C42_2 C45_2 1_555 1_555
C44_2 N16_2 1_555 1_555
O13_2 C45_2 1_555 1_555
O16_2 Dy3_2 1_555 1_555
C57_2 C59_2 1_555 1_555
C58_2 C60_2 1_555 1_555
C60_2 C63_2 1_555 1_555
C62_2 N41 1_555 1_555
O17_2 C63_2 1_555 1_555
O21_2 Dy6_2 1_555 1_555
N28_2 C76_2 1_555 1_555
C79_2 C80_2 1_555 1_555
Cu11 I4_2 1_555 1_555
N32_2 Cu10_2 1_555 1_555
N34_2 C94_2 1_555 1_555
I4_2 Cu15 1_555 1_555
Dy1_2 O6_2 1_555 1_555
Dy2_6 O6_2 1_555 1_555
O6_2 C18_2 1_555 1_555
N3_2 N46 1_555 1_555
C1_2 N7_2 1_555 1_555
N7_2 C16_2 1_555 1_555
C9_2 C1_2 1_555 1_555
H7_2 C9_2 1_555 1_555
C10_2 H8_2 1_555 1_555
C11_2 C9_2 1_555 1_555
H9_2 C11_2 1_555 1_555
C12_2 C1_2 1_555 1_555
H10_2 C12_2 1_555 1_555
C14_2 C10_2 1_555 1_555
C16_2 N46 1_555 1_555
H11_2 C16_2 1_555 1_555
C17_2 N3_2 1_555 1_555
H12_2 C17_2 1_555 1_555
O7_2 Dy2_6 1_555 1_555
C18_2 C14_2 1_555 1_555
O8_2 Dy2_6 1_555 1_555
N8_2 C25_2 1_555 1_555
C19_2 N9_2 1_555 1_555
N9_2 C25_2 1_555 1_555
C20_2 C19_2 1_555 1_555
H13_2 C20_2 1_555 1_555
C21_2 H14_2 1_555 1_555
C22_2 C20_2 1_555 1_555
H15_2 C22_2 1_555 1_555
C23_2 C19_2 1_555 1_555
H16_2 C23_2 1_555 1_555
C24_2 C21_2 1_555 1_555
C25_2 H17_2 1_555 1_555
C26_2 N9_2 1_555 1_555
H18_2 C26_2 1_555 1_555
O9_2 Dy2_6 1_555 1_555
C27_2 O8_2 1_555 1_555
N42 N8_2 1_555 1_555
O14_2 Dy1_2 1_555 1_555
N17_2 C52_2 1_555 1_555
C46_2 N18_2 1_555 1_555
N18_2 C52_2 1_555 1_555
C47_2 C46_2 1_555 1_555
H31_2 C47_2 1_555 1_555
C48_2 H32_2 1_555 1_555
C49_2 C47_2 1_555 1_555
H33_2 C49_2 1_555 1_555
C50_2 C46_2 1_555 1_555
H34_2 C50_2 1_555 1_555
C51_2 C48_2 1_555 1_555
C52_2 H35_2 1_555 1_555
C53_2 N18_2 1_555 1_555
H36_2 C53_2 1_555 1_555
O15_2 Dy2_6 1_555 1_555
C54_2 O14_2 1_555 1_555
N19_2 N17_2 1_555 1_555
Cu5_2 N30_2 1_555 1_555
O22_2 Dy1_2 1_555 1_555
O23_2 Dy1_2 1_555 1_555
N29_2 N30_2 1_555 1_555
N30_2 C82_2 1_555 1_555
N31_2 C82_2 1_555 1_555
C82_2 H55_2 1_555 1_555
C83_2 N31_2 1_555 1_555
C84_2 C83_2 1_555 1_555
H56_2 C84_2 1_555 1_555
C85_2 N29_2 1_555 1_555
H57_2 C85_2 1_555 1_555
C86_2 C83_2 1_555 1_555
H58_2 C86_2 1_555 1_555
C87_2 C84_2 1_555 1_555
H59_2 C87_2 1_555 1_555
C88_2 C86_2 1_555 1_555
H60_2 C88_2 1_555 1_555
C89_2 C87_2 1_555 1_555
C90_2 O22_2 1_555 1_555
O24_2 Dy1_2 1_555 1_555
O25_2 Dy1_2 1_555 1_555
H65_2 C96_2 1_555 1_555
C98_2 C96_2 1_555 1_555
C99_2 O24_2 1_555 1_555
Cu7_2 I2 1_555 1_555
O26_2 Dy1_2 1_555 1_555
O27_2 Dy1_2 1_555 1_555
N36_2 Cu7_2 1_555 1_555
N37_2 C100_2 1_555 1_555
C100_2 N36_2 1_555 1_555
H67_2 C100_2 1_555 1_555
C101_2 N37_2 1_555 1_555
C102_2 C101_2 1_555 1_555
H68_2 C102_2 1_555 1_555
C103_2 N38 1_555 1_555
H69_2 C103_2 1_555 1_555
C104_2 C101_2 1_555 1_555
H70_2 C104_2 1_555 1_555
C105_2 C102_2 1_555 1_555
H71_2 C105_2 1_555 1_555
C106_2 C104_2 1_555 1_555
H72_2 C106_2 1_555 1_555
C107_2 C105_2 1_555 1_555
C108_2 O26_2 1_555 1_555
I3_2 Cu5_2 1_555 1_555
Cu9_2 N29_2 1_555 1_555
Cu13_2 N17_2 1_555 1_555
Cu14_2 I2 1_555 1_555
Cu18_2 I2 1_555 1_555
Cu19_2 I2 1_555 1_555
Cu20_2 N19_2 1_555 1_555
Cu17 N8_2 1_555 1_555
N44_2 Cu7_2 1_555 1_555
N45_2 Cu5_2 1_555 1_555
N47_2 Cu5_2 1_555 1_555
N48_2 Cu7_2 1_555 1_555
Dy2_6 O14_2 1_555 1_555
N3_2 Cu18_2 1_555 1_555
N7_2 C17_2 1_555 1_555
C10_2 C12_2 1_555 1_555
C11_2 C14_2 1_555 1_555
O7_2 C18_2 1_555 1_555
C21_2 C23_2 1_555 1_555
C22_2 C24_2 1_555 1_555
C24_2 C27_2 1_555 1_555
C26_2 N42 1_555 1_555
O9_2 C27_2 1_555 1_555
C48_2 C50_2 1_555 1_555
C49_2 C51_2 1_555 1_555
C51_2 C54_2 1_555 1_555
C53_2 N19_2 1_555 1_555
O15_2 C54_2 1_555 1_555
O23_2 C90_2 1_555 1_555
N31_2 C85_2 1_555 1_555
C88_2 C89_2 1_555 1_555
C89_2 C90_2 1_555 1_555
O25_2 C99_2 1_555 1_555
C98_2 C99_2 1_555 1_555
O27_2 C108_2 1_555 1_555
N38 N36_2 1_555 1_555
N37_2 C103_2 1_555 1_555
C106_2 C107_2 1_555 1_555
C107_2 C108_2 1_555 1_555
I3_2 Cu13_2 1_555 1_555
I3_2 Cu20_2 1_555 1_555
Dy2_7 O6_3 1_555 1_555
O6_3 C18_3 1_555 1_555
N3_3 N47_2 1_555 1_555
C1_3 N7_3 1_555 1_555
N7_3 C16_3 1_555 1_555
C9_3 C1_3 1_555 1_555
H7_3 C9_3 1_555 1_555
C10_3 H8_3 1_555 1_555
C11_3 C9_3 1_555 1_555
H9_3 C11_3 1_555 1_555
C12_3 C1_3 1_555 1_555
H10_3 C12_3 1_555 1_555
C14_3 C10_3 1_555 1_555
C16_3 N47_2 1_555 1_555
H11_3 C16_3 1_555 1_555
C17_3 N3_3 1_555 1_555
H12_3 C17_3 1_555 1_555
O7_3 Dy2_7 1_555 1_555
C18_3 C14_3 1_555 1_555
O8_3 Dy2_7 1_555 1_555
N8_3 C25_3 1_555 1_555
C19_3 N9_3 1_555 1_555
N9_3 C25_3 1_555 1_555
C20_3 C19_3 1_555 1_555
H13_3 C20_3 1_555 1_555
C21_3 H14_3 1_555 1_555
C22_3 C20_3 1_555 1_555
H15_3 C22_3 1_555 1_555
C23_3 C19_3 1_555 1_555
H16_3 C23_3 1_555 1_555
C24_3 C21_3 1_555 1_555
C25_3 H17_3 1_555 1_555
C26_3 N9_3 1_555 1_555
H18_3 C26_3 1_555 1_555
O9_3 Dy2_7 1_555 1_555
C27_3 O8_3 1_555 1_555
N45 N8_3 1_555 1_555
O10_3 Dy2_7 1_555 1_555
N11_3 C34_3 1_555 1_555
C28_3 N12_3 1_555 1_555
N12_3 C34_3 1_555 1_555
C29_3 C28_3 1_555 1_555
H19_3 C29_3 1_555 1_555
C30_3 H20_3 1_555 1_555
C31_3 C29_3 1_555 1_555
H21_3 C31_3 1_555 1_555
C32_3 C28_3 1_555 1_555
H22_3 C32_3 1_555 1_555
C33_3 C30_3 1_555 1_555
C34_3 H23_3 1_555 1_555
C35_3 N12_3 1_555 1_555
H24_3 C35_3 1_555 1_555
O11_3 Dy2_7 1_555 1_555
C36_3 O10_3 1_555 1_555
N43 N11_3 1_555 1_555
O20_3 C81_3 1_555 1_555
O21_3 C81_3 1_555 1_555
H53_3 C78_3 1_555 1_555
C80_3 C78_3 1_555 1_555
C81_3 C80_3 1_555 1_555
Dy3_3 O8_3 1_555 1_555
Cu7_3 I3_2 1_555 1_555
N35_2 Cu9_2 1_555 1_555
N36_3 Cu7_3 1_555 1_555
N37_3 C100_3 1_555 1_555
C100_3 N36_3 1_555 1_555
H67_3 C100_3 1_555 1_555
C101_3 N37_3 1_555 1_555
C102_3 C101_3 1_555 1_555
H68_3 C102_3 1_555 1_555
C103_3 N35_2 1_555 1_555
H69_3 C103_3 1_555 1_555
C104_3 C101_3 1_555 1_555
H70_3 C104_3 1_555 1_555
C106_3 C104_3 1_555 1_555
H72_3 C106_3 1_555 1_555
Dy6_3 O20_3 1_555 1_555
Cu18_3 I3_2 1_555 1_555
Cu19_3 I3_2 1_555 1_555
Cu20 N8_3 1_555 1_555
Cu22_3 N11_3 1_555 1_555
O28_3 Dy3_3 1_555 1_555
O29_3 Dy3_3 1_555 1_555
O30_3 Dy3_3 1_555 1_555
O31_3 Dy3_3 1_555 1_555
O32_3 Dy3_3 1_555 1_555
O33_3 Dy3_3 1_555 1_555
N38_2 Cu9 1_555 1_555
N39_2 Cu9 1_555 1_555
N40_2 Cu9_2 1_555 1_555
N44_3 Cu7_3 1_555 1_555
N48_3 Cu7_3 1_555 1_555
N3_3 Cu18_3 1_555 1_555
N7_3 C17_3 1_555 1_555
C10_3 C12_3 1_555 1_555
C11_3 C14_3 1_555 1_555
O7_3 C18_3 1_555 1_555
C21_3 C23_3 1_555 1_555
C22_3 C24_3 1_555 1_555
C24_3 C27_3 1_555 1_555
C26_3 N45 1_555 1_555
O9_3 C27_3 1_555 1_555
O10_3 Dy3_3 1_555 1_555
C30_3 C32_3 1_555 1_555
C31_3 C33_3 1_555 1_555
C33_3 C36_3 1_555 1_555
C35_3 N43 1_555 1_555
O11_3 C36_3 1_555 1_555
O21_3 Dy6_3 1_555 1_555
N35_2 N36_3 1_555 1_555
N37_3 C103_3 1_555 1_555
O12_3 Dy4 1_555 1_555
N14_3 C43_3 1_555 1_555
C37_3 N15_3 1_555 1_555
N15_3 C43_3 1_555 1_555
C38_3 C37_3 1_555 1_555
H25_3 C38_3 1_555 1_555
C39_3 H26_3 1_555 1_555
C40_3 C38_3 1_555 1_555
H27_3 C40_3 1_555 1_555
C41_3 C37_3 1_555 1_555
H28_3 C41_3 1_555 1_555
C42_3 C39_3 1_555 1_555
C43_3 H29_3 1_555 1_555
C44_3 N15_3 1_555 1_555
H30_3 C44_3 1_555 1_555
O13_3 Dy2_8 1_555 1_555
C45_3 O12_3 1_555 1_555
N16_3 N14_3 1_555 1_555
O14_3 Dy4 1_555 1_555
N17_3 C52_3 1_555 1_555
C46_3 N18_3 1_555 1_555
N18_3 C52_3 1_555 1_555
C47_3 C46_3 1_555 1_555
H31_3 C47_3 1_555 1_555
C48_3 H32_3 1_555 1_555
C49_3 C47_3 1_555 1_555
H33_3 C49_3 1_555 1_555
C50_3 C46_3 1_555 1_555
H34_3 C50_3 1_555 1_555
C51_3 C48_3 1_555 1_555
C52_3 H35_3 1_555 1_555
C53_3 N18_3 1_555 1_555
H36_3 C53_3 1_555 1_555
O15_3 Dy2_8 1_555 1_555
C54_3 O14_3 1_555 1_555
N19_3 N17_3 1_555 1_555
O16_3 Dy2_8 1_555 1_555
N20_3 C61_3 1_555 1_555
C55_3 N21_3 1_555 1_555
N21_3 C61_3 1_555 1_555
C56_3 C55_3 1_555 1_555
H37_3 C56_3 1_555 1_555
C57_3 H38_3 1_555 1_555
C58_3 C56_3 1_555 1_555
H39_3 C58_3 1_555 1_555
C59_3 C55_3 1_555 1_555
H40_3 C59_3 1_555 1_555
C60_3 C57_3 1_555 1_555
C61_3 H41_3 1_555 1_555
C62_3 N21_3 1_555 1_555
H42_3 C62_3 1_555 1_555
O17_3 Dy2_8 1_555 1_555
C63_3 O16_3 1_555 1_555
N22_2 N20_3 1_555 1_555
Cu12 N14_3 1_555 1_555
N26_3 N27_3 1_555 1_555
N27_3 Cu12 1_555 1_555
N28_3 C73_3 1_555 1_555
C73_3 N27_3 1_555 1_555
H49_3 C73_3 1_555 1_555
C74_3 N28_3 1_555 1_555
C75_3 C74_3 1_555 1_555
H50_3 C75_3 1_555 1_555
C76_3 N26_3 1_555 1_555
H51_3 C76_3 1_555 1_555
C77_3 C74_3 1_555 1_555
H52_3 C77_3 1_555 1_555
C79_3 C77_3 1_555 1_555
H54_3 C79_3 1_555 1_555
Cu6_2 N33_3 1_555 1_555
O24_3 Dy4 1_555 1_555
O25_3 Dy4 1_555 1_555
N32_3 N33_3 1_555 1_555
N33_3 C91_3 1_555 1_555
N34_3 C91_3 1_555 1_555
C91_3 H61_3 1_555 1_555
C92_3 N34_3 1_555 1_555
C93_3 C92_3 1_555 1_555
H62_3 C93_3 1_555 1_555
C94_3 N32_3 1_555 1_555
H63_3 C94_3 1_555 1_555
C95_3 C92_3 1_555 1_555
H64_3 C95_3 1_555 1_555
C96_3 C93_3 1_555 1_555
H65_3 C96_3 1_555 1_555
C97_3 C95_3 1_555 1_555
H66_3 C97_3 1_555 1_555
C98_3 C96_3 1_555 1_555
C99_3 O24_3 1_555 1_555
O26_3 Dy4 1_555 1_555
O27_3 Dy4 1_555 1_555
H71_3 C105_3 1_555 1_555
C107_3 C105_3 1_555 1_555
C108_3 O26_3 1_555 1_555
I4_3 Cu12 1_555 1_555
Cu10_3 N26_3 1_555 1_555
Cu11_2 N22_2 1_555 1_555
Cu14_2 N17_3 1_555 1_555
Cu15_2 N20_3 1_555 1_555
Cu16_2 N16_3 1_555 1_555
Cu21 N19_3 1_555 1_555
N41_2 Cu6_2 1_555 1_555
N49_3 Cu6_2 1_555 1_555
Dy2_8 O12_3 1_555 1_555
Dy2_8 O14_3 1_555 1_555
C39_3 C41_3 1_555 1_555
C40_3 C42_3 1_555 1_555
C42_3 C45_3 1_555 1_555
C44_3 N16_3 1_555 1_555
O13_3 C45_3 1_555 1_555
C48_3 C50_3 1_555 1_555
C49_3 C51_3 1_555 1_555
C51_3 C54_3 1_555 1_555
C53_3 N19_3 1_555 1_555
O15_3 C54_3 1_555 1_555
C57_3 C59_3 1_555 1_555
C58_3 C60_3 1_555 1_555
C60_3 C63_3 1_555 1_555
C62_3 N22_2 1_555 1_555
O17_3 C63_3 1_555 1_555
N28_3 C76_3 1_555 1_555
Cu6_2 I4_3 1_555 1_555
O25_3 C99_3 1_555 1_555
N32_3 Cu10_3 1_555 1_555
N34_3 C94_3 1_555 1_555
C97_3 C98_3 1_555 1_555
C98_3 C99_3 1_555 1_555
O27_3 C108_3 1_555 1_555
C107_3 C108_3 1_555 1_555
I4_3 Cu16_2 1_555 1_555
N49 C43_4 1_555 1_555
C37_4 N15_4 1_555 1_555
N15_4 C43_4 1_555 1_555
C38_4 C37_4 1_555 1_555
H25_4 C38_4 1_555 1_555
C39_4 H26_4 1_555 1_555
C40_4 C38_4 1_555 1_555
H27_4 C40_4 1_555 1_555
C41_4 C37_4 1_555 1_555
H28_4 C41_4 1_555 1_555
C42_4 C39_4 1_555 1_555
C43_4 H29_4 1_555 1_555
C44_4 N15_4 1_555 1_555
H30_4 C44_4 1_555 1_555
O13_4 Dy2_9 1_555 1_555
C45_4 O12_4 1_555 1_555
N16_4 N49 1_555 1_555
O16_4 Dy2_9 1_555 1_555
N20_4 C61_4 1_555 1_555
C55_4 N21_4 1_555 1_555
N21_4 C61_4 1_555 1_555
C56_4 C55_4 1_555 1_555
H37_4 C56_4 1_555 1_555
C57_4 H38_4 1_555 1_555
C58_4 C56_4 1_555 1_555
H39_4 C58_4 1_555 1_555
C59_4 C55_4 1_555 1_555
H40_4 C59_4 1_555 1_555
C60_4 C57_4 1_555 1_555
C61_4 H41_4 1_555 1_555
C62_4 N21_4 1_555 1_555
H42_4 C62_4 1_555 1_555
O17_4 Dy2_9 1_555 1_555
C63_4 O16_4 1_555 1_555
N22_3 N20_4 1_555 1_555
Cu6_3 N33_4 1_555 1_555
N32_4 N33_4 1_555 1_555
N33_4 C91_4 1_555 1_555
N34_4 C91_4 1_555 1_555
C91_4 H61_4 1_555 1_555
C92_4 N34_4 1_555 1_555
C93_4 C92_4 1_555 1_555
H62_4 C93_4 1_555 1_555
C94_4 N32_4 1_555 1_555
H63_4 C94_4 1_555 1_555
C95_4 C92_4 1_555 1_555
H64_4 C95_4 1_555 1_555
C97_4 C95_4 1_555 1_555
H66_4 C97_4 1_555 1_555
Cu11_3 N22_3 1_555 1_555
Cu15_3 N20_4 1_555 1_555
Cu16_3 N16_4 1_555 1_555
N41_3 Cu6_3 1_555 1_555
N49_4 Cu6_3 1_555 1_555
Dy2_9 O12_4 1_555 1_555
C39_4 C41_4 1_555 1_555
C40_4 C42_4 1_555 1_555
C42_4 C45_4 1_555 1_555
C44_4 N16_4 1_555 1_555
O13_4 C45_4 1_555 1_555
C57_4 C59_4 1_555 1_555
C58_4 C60_4 1_555 1_555
C60_4 C63_4 1_555 1_555
C62_4 N22_3 1_555 1_555
O17_4 C63_4 1_555 1_555
Cu6_3 I4 1_555 1_555
N32_4 Cu10 1_555 1_555
N34_4 C94_4 1_555 1_555
I4 Cu16_3 1_555 1_555
O10_4 Dy2_10 1_555 1_555
N11_4 C34_4 1_555 1_555
C28_4 N12_4 1_555 1_555
N12_4 C34_4 1_555 1_555
C29_4 C28_4 1_555 1_555
H19_4 C29_4 1_555 1_555
C30_4 H20_4 1_555 1_555
C31_4 C29_4 1_555 1_555
H21_4 C31_4 1_555 1_555
C32_4 C28_4 1_555 1_555
H22_4 C32_4 1_555 1_555
C33_4 C30_4 1_555 1_555
C34_4 H23_4 1_555 1_555
C35_4 N12_4 1_555 1_555
H24_4 C35_4 1_555 1_555
O11_4 Dy2_10 1_555 1_555
C36_4 O10_4 1_555 1_555
N13_3 N11_4 1_555 1_555
Cu13_2 N13_3 1_555 1_555
Cu19_3 N11_4 1_555 1_555
O28_4 Dy3_4 1_555 1_555
O29_4 Dy3_4 1_555 1_555
O30_4 Dy3_4 1_555 1_555
O31_4 Dy3_4 1_555 1_555
O32_4 Dy3_4 1_555 1_555
O33_4 Dy3_4 1_555 1_555
O10_4 Dy3_4 1_555 1_555
C30_4 C32_4 1_555 1_555
C31_4 C33_4 1_555 1_555
C33_4 C36_4 1_555 1_555
C35_4 N13_3 1_555 1_555
O11_4 C36_4 1_555 1_555
O14_4 Dy1_3 1_555 1_555
N17_4 C52_4 1_555 1_555
C46_4 N18_4 1_555 1_555
N18_4 C52_4 1_555 1_555
C47_4 C46_4 1_555 1_555
H31_4 C47_4 1_555 1_555
C48_4 H32_4 1_555 1_555
C49_4 C47_4 1_555 1_555
H33_4 C49_4 1_555 1_555
C50_4 C46_4 1_555 1_555
H34_4 C50_4 1_555 1_555
C51_4 C48_4 1_555 1_555
C52_4 H35_4 1_555 1_555
C53_4 N18_4 1_555 1_555
H36_4 C53_4 1_555 1_555
O15_4 Dy2_11 1_555 1_555
C54_4 O14_4 1_555 1_555
N19_4 N17_4 1_555 1_555
Cu12_2 N30_3 1_555 1_555
O22_3 Dy1_3 1_555 1_555
O23_3 Dy1_3 1_555 1_555
N29_3 N30_3 1_555 1_555
N30_3 C82_3 1_555 1_555
N31_3 C82_3 1_555 1_555
C82_3 H55_3 1_555 1_555
C83_3 N31_3 1_555 1_555
C84_3 C83_3 1_555 1_555
H56_3 C84_3 1_555 1_555
C85_3 N29_3 1_555 1_555
H57_3 C85_3 1_555 1_555
C86_3 C83_3 1_555 1_555
H58_3 C86_3 1_555 1_555
C87_3 C84_3 1_555 1_555
H59_3 C87_3 1_555 1_555
C88_3 C86_3 1_555 1_555
H60_3 C88_3 1_555 1_555
C89_3 C87_3 1_555 1_555
C90_3 O22_3 1_555 1_555
O24_4 Dy1_3 1_555 1_555
O25_4 Dy1_3 1_555 1_555
H65_4 C96_4 1_555 1_555
C98_4 C96_4 1_555 1_555
C99_4 O24_4 1_555 1_555
O26_4 Dy1_3 1_555 1_555
O27_4 Dy1_3 1_555 1_555
H71_4 C105_4 1_555 1_555
C107_4 C105_4 1_555 1_555
C108_4 O26_4 1_555 1_555
I3_3 Cu12_2 1_555 1_555
Cu9_3 N29_3 1_555 1_555
Cu13_3 N17_4 1_555 1_555
Cu22_2 N19_4 1_555 1_555
N47_3 Cu12_2 1_555 1_555
Dy2_11 O14_4 1_555 1_555
C48_4 C50_4 1_555 1_555
C49_4 C51_4 1_555 1_555
C51_4 C54_4 1_555 1_555
C53_4 N19_4 1_555 1_555
O15_4 C54_4 1_555 1_555
O23_3 C90_3 1_555 1_555
N31_3 C85_3 1_555 1_555
C88_3 C89_3 1_555 1_555
C89_3 C90_3 1_555 1_555
O25_4 C99_4 1_555 1_555
C98_4 C99_4 1_555 1_555
O27_4 C108_4 1_555 1_555
C107_4 C108_4 1_555 1_555
I3_3 Cu13_3 1_555 1_555
I3_3 Cu22_2 1_555 1_555
Dy2_12 O6_4 1_555 1_555
I3 Cu2_2 1_555 1_555
Cu2_2 N4_2 1_555 1_555
O4_2 C15_2 1_555 1_555
O5_2 C15_2 1_555 1_555
N38_2 N4_2 1_555 1_555
O6_4 C18_4 1_555 1_555
N3_4 N5_2 1_555 1_555
N4_2 C2_2 1_555 1_555
N5_2 Cu2_2 1_555 1_555
N6_2 C2_2 1_555 1_555
C1_4 N7_4 1_555 1_555
N7_4 C16_4 1_555 1_555
C2_2 H1_2 1_555 1_555
C3_2 N6_2 1_555 1_555
C4_2 C3_2 1_555 1_555
H2_2 C4_2 1_555 1_555
C5_2 N38_2 1_555 1_555
H3_2 C5_2 1_555 1_555
C6_2 C3_2 1_555 1_555
H4_2 C6_2 1_555 1_555
C7_2 C4_2 1_555 1_555
H5_2 C7_2 1_555 1_555
C8_2 C6_2 1_555 1_555
H6_2 C8_2 1_555 1_555
C9_4 C1_4 1_555 1_555
H7_4 C9_4 1_555 1_555
C10_4 H8_4 1_555 1_555
C11_4 C9_4 1_555 1_555
H9_4 C11_4 1_555 1_555
C12_4 C1_4 1_555 1_555
H10_4 C12_4 1_555 1_555
C13_2 C7_2 1_555 1_555
C14_4 C10_4 1_555 1_555
C15_2 C13_2 1_555 1_555
C16_4 N5_2 1_555 1_555
H11_4 C16_4 1_555 1_555
C17_4 N3_4 1_555 1_555
H12_4 C17_4 1_555 1_555
O7_4 Dy2_12 1_555 1_555
C18_4 C14_4 1_555 1_555
O8_4 Dy2_12 1_555 1_555
N8_4 C25_4 1_555 1_555
C19_4 N9_4 1_555 1_555
N9_4 C25_4 1_555 1_555
C20_4 C19_4 1_555 1_555
H13_4 C20_4 1_555 1_555
C21_4 H14_4 1_555 1_555
C22_4 C20_4 1_555 1_555
H15_4 C22_4 1_555 1_555
C23_4 C19_4 1_555 1_555
H16_4 C23_4 1_555 1_555
C24_4 C21_4 1_555 1_555
C25_4 H17_4 1_555 1_555
C26_4 N9_4 1_555 1_555
H18_4 C26_4 1_555 1_555
O9_4 Dy2_12 1_555 1_555
C27_4 O8_4 1_555 1_555
N44_2 N8_4 1_555 1_555
N36_4 Cu13 1_555 1_555
N37_4 C100_4 1_555 1_555
C100_4 N36_4 1_555 1_555
H67_4 C100_4 1_555 1_555
C101_4 N37_4 1_555 1_555
C102_4 C101_4 1_555 1_555
H68_4 C102_4 1_555 1_555
C103_4 N39_2 1_555 1_555
H69_4 C103_4 1_555 1_555
C104_4 C101_4 1_555 1_555
H70_4 C104_4 1_555 1_555
C106_4 C104_4 1_555 1_555
H72_4 C106_4 1_555 1_555
Dy5 O4_2 1_555 1_555
Cu17_2 I3 1_555 1_555
Cu18_4 I3 1_555 1_555
Cu18_2 N8_4 1_555 1_555
N42_2 Cu2_2 1_555 1_555
N44_4 Cu13 1_555 1_555
O5_2 Dy5 1_555 1_555
N3_4 Cu18_4 1_555 1_555
N6_2 C5_2 1_555 1_555
N7_4 C17_4 1_555 1_555
C8_2 C13_2 1_555 1_555
C10_4 C12_4 1_555 1_555
C11_4 C14_4 1_555 1_555
O7_4 C18_4 1_555 1_555
C21_4 C23_4 1_555 1_555
C22_4 C24_4 1_555 1_555
C24_4 C27_4 1_555 1_555
C26_4 N44_2 1_555 1_555
O9_4 C27_4 1_555 1_555
N39_2 N36_4 1_555 1_555
N37_4 C103_4 1_555 1_555
Dy5 O6_5 1_555 1_555
Dy2_13 O6_5 1_555 1_555
O6_5 C18_5 1_555 1_555
N3_5 N47 1_555 1_555
C1_5 N7_5 1_555 1_555
N7_5 C16_5 1_555 1_555
C9_5 C1_5 1_555 1_555
H7_5 C9_5 1_555 1_555
C10_5 H8_5 1_555 1_555
C11_5 C9_5 1_555 1_555
H9_5 C11_5 1_555 1_555
C12_5 C1_5 1_555 1_555
H10_5 C12_5 1_555 1_555
C14_5 C10_5 1_555 1_555
C16_5 N47 1_555 1_555
H11_5 C16_5 1_555 1_555
C17_5 N3_5 1_555 1_555
H12_5 C17_5 1_555 1_555
O7_5 Dy2_13 1_555 1_555
C18_5 C14_5 1_555 1_555
O8_5 Dy2_13 1_555 1_555
N8_5 C25_5 1_555 1_555
C19_5 N9_5 1_555 1_555
N9_5 C25_5 1_555 1_555
C20_5 C19_5 1_555 1_555
H13_5 C20_5 1_555 1_555
C21_5 H14_5 1_555 1_555
C22_5 C20_5 1_555 1_555
H15_5 C22_5 1_555 1_555
C23_5 C19_5 1_555 1_555
H16_5 C23_5 1_555 1_555
C24_5 C21_5 1_555 1_555
C25_5 H17_5 1_555 1_555
C26_5 N9_5 1_555 1_555
H18_5 C26_5 1_555 1_555
O9_5 Dy2_13 1_555 1_555
C27_5 O8_5 1_555 1_555
N45_2 N8_5 1_555 1_555
O10_5 Dy2_13 1_555 1_555
N11_5 C34_5 1_555 1_555
C28_5 N12_5 1_555 1_555
N12_5 C34_5 1_555 1_555
C29_5 C28_5 1_555 1_555
H19_5 C29_5 1_555 1_555
C30_5 H20_5 1_555 1_555
C31_5 C29_5 1_555 1_555
H21_5 C31_5 1_555 1_555
C32_5 C28_5 1_555 1_555
H22_5 C32_5 1_555 1_555
C33_5 C30_5 1_555 1_555
C34_5 H23_5 1_555 1_555
C35_5 N12_5 1_555 1_555
H24_5 C35_5 1_555 1_555
O11_5 Dy2_13 1_555 1_555
C36_5 O10_5 1_555 1_555
N43_2 N11_5 1_555 1_555
O12_5 Dy5 1_555 1_555
N47_3 C43_5 1_555 1_555
C37_5 N15_5 1_555 1_555
N15_5 C43_5 1_555 1_555
C38_5 C37_5 1_555 1_555
H25_5 C38_5 1_555 1_555
C39_5 H26_5 1_555 1_555
C40_5 C38_5 1_555 1_555
H27_5 C40_5 1_555 1_555
C41_5 C37_5 1_555 1_555
H28_5 C41_5 1_555 1_555
C42_5 C39_5 1_555 1_555
C43_5 H29_5 1_555 1_555
C44_5 N15_5 1_555 1_555
H30_5 C44_5 1_555 1_555
O13_5 Dy2_13 1_555 1_555
C45_5 O12_5 1_555 1_555
N16_5 N47_3 1_555 1_555
O14_5 Dy5 1_555 1_555
N17_5 C52_5 1_555 1_555
C46_5 N18_5 1_555 1_555
N18_5 C52_5 1_555 1_555
C47_5 C46_5 1_555 1_555
H31_5 C47_5 1_555 1_555
C48_5 H32_5 1_555 1_555
C49_5 C47_5 1_555 1_555
H33_5 C49_5 1_555 1_555
C50_5 C46_5 1_555 1_555
H34_5 C50_5 1_555 1_555
C51_5 C48_5 1_555 1_555
C52_5 H35_5 1_555 1_555
C53_5 N18_5 1_555 1_555
H36_5 C53_5 1_555 1_555
O15_5 Dy2_13 1_555 1_555
C54_5 O14_5 1_555 1_555
N19_5 N17_5 1_555 1_555
O16_5 Dy2_13 1_555 1_555
N20_5 C61_5 1_555 1_555
C55_5 N21_5 1_555 1_555
N21_5 C61_5 1_555 1_555
C56_5 C55_5 1_555 1_555
H37_5 C56_5 1_555 1_555
C57_5 H38_5 1_555 1_555
C58_5 C56_5 1_555 1_555
H39_5 C58_5 1_555 1_555
C59_5 C55_5 1_555 1_555
H40_5 C59_5 1_555 1_555
C60_5 C57_5 1_555 1_555
C61_5 H41_5 1_555 1_555
C62_5 N21_5 1_555 1_555
H42_5 C62_5 1_555 1_555
O17_5 Dy2_13 1_555 1_555
C63_5 O16_5 1_555 1_555
N41_2 N20_5 1_555 1_555
Dy3_5 O8_5 1_555 1_555
Cu11_2 N33_5 1_555 1_555
O24_5 Dy5 1_555 1_555
O25_5 Dy5 1_555 1_555
N32_5 N33_5 1_555 1_555
N33_5 C91_5 1_555 1_555
N34_5 C91_5 1_555 1_555
C91_5 H61_5 1_555 1_555
C92_5 N34_5 1_555 1_555
C93_5 C92_5 1_555 1_555
H62_5 C93_5 1_555 1_555
C94_5 N32_5 1_555 1_555
H63_5 C94_5 1_555 1_555
C95_5 C92_5 1_555 1_555
H64_5 C95_5 1_555 1_555
C96_5 C93_5 1_555 1_555
H65_5 C96_5 1_555 1_555
C97_5 C95_5 1_555 1_555
H66_5 C97_5 1_555 1_555
C98_5 C96_5 1_555 1_555
C99_5 O24_5 1_555 1_555
Cu14 N17_5 1_555 1_555
Cu16_2 N20_5 1_555 1_555
Cu15_2 N16_5 1_555 1_555
Cu17 N19_5 1_555 1_555
Cu20_2 N8_5 1_555 1_555
Cu22_4 N11_5 1_555 1_555
O28_5 Dy3_5 1_555 1_555
O29_5 Dy3_5 1_555 1_555
O30_5 Dy3_5 1_555 1_555
O31_5 Dy3_5 1_555 1_555
O32_5 Dy3_5 1_555 1_555
O33_5 Dy3_5 1_555 1_555
N49_5 Cu11_2 1_555 1_555
Dy2_13 O12_5 1_555 1_555
Dy2_13 O14_5 1_555 1_555
N3_5 Cu17_2 1_555 1_555
N7_5 C17_5 1_555 1_555
C10_5 C12_5 1_555 1_555
C11_5 C14_5 1_555 1_555
O7_5 C18_5 1_555 1_555
C21_5 C23_5 1_555 1_555
C22_5 C24_5 1_555 1_555
C24_5 C27_5 1_555 1_555
C26_5 N45_2 1_555 1_555
O9_5 C27_5 1_555 1_555
O10_5 Dy3_5 1_555 1_555
C30_5 C32_5 1_555 1_555
C31_5 C33_5 1_555 1_555
C33_5 C36_5 1_555 1_555
C35_5 N43_2 1_555 1_555
O11_5 C36_5 1_555 1_555
C39_5 C41_5 1_555 1_555
C40_5 C42_5 1_555 1_555
C42_5 C45_5 1_555 1_555
C44_5 N16_5 1_555 1_555
O13_5 C45_5 1_555 1_555
C48_5 C50_5 1_555 1_555
C49_5 C51_5 1_555 1_555
C51_5 C54_5 1_555 1_555
C53_5 N19_5 1_555 1_555
O15_5 C54_5 1_555 1_555
O16_5 Dy3_5 1_555 1_555
C57_5 C59_5 1_555 1_555
C58_5 C60_5 1_555 1_555
C60_5 C63_5 1_555 1_555
C62_5 N41_2 1_555 1_555
O17_5 C63_5 1_555 1_555
Cu11_2 I3_3 1_555 1_555
O25_5 C99_5 1_555 1_555
N32_5 Cu9_3 1_555 1_555
N34_5 C94_5 1_555 1_555
C97_5 C98_5 1_555 1_555
C98_5 C99_5 1_555 1_555
I3_3 Cu15_2 1_555 1_555
O10_6 Dy2_14 1_555 1_555
N11_6 C34_6 1_555 1_555
C28_6 N12_6 1_555 1_555
N12_6 C34_6 1_555 1_555
C29_6 C28_6 1_555 1_555
H19_6 C29_6 1_555 1_555
C30_6 H20_6 1_555 1_555
C31_6 C29_6 1_555 1_555
H21_6 C31_6 1_555 1_555
C32_6 C28_6 1_555 1_555
H22_6 C32_6 1_555 1_555
C33_6 C30_6 1_555 1_555
C34_6 H23_6 1_555 1_555
C35_6 N12_6 1_555 1_555
H24_6 C35_6 1_555 1_555
O11_6 Dy2_14 1_555 1_555
C36_6 O10_6 1_555 1_555
N13_4 N11_6 1_555 1_555
N49_3 C43_6 1_555 1_555
C37_6 N15_6 1_555 1_555
N15_6 C43_6 1_555 1_555
C38_6 C37_6 1_555 1_555
H25_6 C38_6 1_555 1_555
C39_6 H26_6 1_555 1_555
C40_6 C38_6 1_555 1_555
H27_6 C40_6 1_555 1_555
C41_6 C37_6 1_555 1_555
H28_6 C41_6 1_555 1_555
C42_6 C39_6 1_555 1_555
C43_6 H29_6 1_555 1_555
C44_6 N15_6 1_555 1_555
H30_6 C44_6 1_555 1_555
O13_6 Dy2_14 1_555 1_555
C45_6 O12_6 1_555 1_555
N16_6 N49_3 1_555 1_555
O16_6 Dy2_14 1_555 1_555
N20_6 C61_6 1_555 1_555
C55_6 N21_6 1_555 1_555
N21_6 C61_6 1_555 1_555
C56_6 C55_6 1_555 1_555
H37_6 C56_6 1_555 1_555
C57_6 H38_6 1_555 1_555
C58_6 C56_6 1_555 1_555
H39_6 C58_6 1_555 1_555
C59_6 C55_6 1_555 1_555
H40_6 C59_6 1_555 1_555
C60_6 C57_6 1_555 1_555
C61_6 H41_6 1_555 1_555
C62_6 N21_6 1_555 1_555
H42_6 C62_6 1_555 1_555
O17_6 Dy2_14 1_555 1_555
C63_6 O16_6 1_555 1_555
N41_3 N20_6 1_555 1_555
Cu11_3 N33_6 1_555 1_555
N32_6 N33_6 1_555 1_555
N33_6 C91_6 1_555 1_555
N34_6 C91_6 1_555 1_555
C91_6 H61_6 1_555 1_555
C92_6 N34_6 1_555 1_555
C93_6 C92_6 1_555 1_555
H62_6 C93_6 1_555 1_555
C94_6 N32_6 1_555 1_555
H63_6 C94_6 1_555 1_555
C95_6 C92_6 1_555 1_555
H64_6 C95_6 1_555 1_555
C97_6 C95_6 1_555 1_555
H66_6 C97_6 1_555 1_555
Cu14 N13_4 1_555 1_555
Cu16_3 N20_6 1_555 1_555
Cu15_3 N16_6 1_555 1_555
Cu19 N11_6 1_555 1_555
O28_6 Dy3_6 1_555 1_555
O29_6 Dy3_6 1_555 1_555
O30_6 Dy3_6 1_555 1_555
O31_6 Dy3_6 1_555 1_555
O32_6 Dy3_6 1_555 1_555
O33_6 Dy3_6 1_555 1_555
N49_6 Cu11_3 1_555 1_555
Dy2_14 O12_6 1_555 1_555
O10_6 Dy3_6 1_555 1_555
C30_6 C32_6 1_555 1_555
C31_6 C33_6 1_555 1_555
C33_6 C36_6 1_555 1_555
C35_6 N13_4 1_555 1_555
O11_6 C36_6 1_555 1_555
C39_6 C41_6 1_555 1_555
C40_6 C42_6 1_555 1_555
C42_6 C45_6 1_555 1_555
C44_6 N16_6 1_555 1_555
O13_6 C45_6 1_555 1_555
O16_6 Dy3_6 1_555 1_555
C57_6 C59_6 1_555 1_555
C58_6 C60_6 1_555 1_555
C60_6 C63_6 1_555 1_555
C62_6 N41_3 1_555 1_555
O17_6 C63_6 1_555 1_555
Cu11_3 I4_3 1_555 1_555
N32_6 Cu10_3 1_555 1_555
N34_6 C94_6 1_555 1_555
I4_3 Cu15_3 1_555 1_555
Dy6_2 O6_6 1_555 1_555
Dy2_15 O6_6 1_555 1_555
O6_6 C18_6 1_555 1_555
N3_6 N48_2 1_555 1_555
C1_6 N7_6 1_555 1_555
N7_6 C16_6 1_555 1_555
C9_6 C1_6 1_555 1_555
H7_6 C9_6 1_555 1_555
C10_6 H8_6 1_555 1_555
C11_6 C9_6 1_555 1_555
H9_6 C11_6 1_555 1_555
C12_6 C1_6 1_555 1_555
H10_6 C12_6 1_555 1_555
C14_6 C10_6 1_555 1_555
C16_6 N48_2 1_555 1_555
H11_6 C16_6 1_555 1_555
C17_6 N3_6 1_555 1_555
H12_6 C17_6 1_555 1_555
O7_6 Dy2_15 1_555 1_555
C18_6 C14_6 1_555 1_555
O8_6 Dy2_15 1_555 1_555
N8_6 C25_6 1_555 1_555
C19_6 N9_6 1_555 1_555
N9_6 C25_6 1_555 1_555
C20_6 C19_6 1_555 1_555
H13_6 C20_6 1_555 1_555
C21_6 H14_6 1_555 1_555
C22_6 C20_6 1_555 1_555
H15_6 C22_6 1_555 1_555
C23_6 C19_6 1_555 1_555
H16_6 C23_6 1_555 1_555
C24_6 C21_6 1_555 1_555
C25_6 H17_6 1_555 1_555
C26_6 N9_6 1_555 1_555
H18_6 C26_6 1_555 1_555
O9_6 Dy2_15 1_555 1_555
C27_6 O8_6 1_555 1_555
N42_2 N8_6 1_555 1_555
O14_6 Dy6_2 1_555 1_555
N17_6 C52_6 1_555 1_555
C46_6 N18_6 1_555 1_555
N18_6 C52_6 1_555 1_555
C47_6 C46_6 1_555 1_555
H31_6 C47_6 1_555 1_555
C48_6 H32_6 1_555 1_555
C49_6 C47_6 1_555 1_555
H33_6 C49_6 1_555 1_555
C50_6 C46_6 1_555 1_555
H34_6 C50_6 1_555 1_555
C51_6 C48_6 1_555 1_555
C52_6 H35_6 1_555 1_555
C53_6 N18_6 1_555 1_555
H36_6 C53_6 1_555 1_555
O15_6 Dy2_15 1_555 1_555
C54_6 O14_6 1_555 1_555
N19_6 N17_6 1_555 1_555
O24_6 Dy6_2 1_555 1_555
O25_6 Dy6_2 1_555 1_555
H65_6 C96_6 1_555 1_555
C98_6 C96_6 1_555 1_555
C99_6 O24_6 1_555 1_555
O26_5 Dy6_2 1_555 1_555
O27_5 Dy6_2 1_555 1_555
N36_5 Cu14_2 1_555 1_555
N37_5 C100_5 1_555 1_555
C100_5 N36_5 1_555 1_555
H67_5 C100_5 1_555 1_555
C101_5 N37_5 1_555 1_555
C102_5 C101_5 1_555 1_555
H68_5 C102_5 1_555 1_555
C103_5 N39 1_555 1_555
H69_5 C103_5 1_555 1_555
C104_5 C101_5 1_555 1_555
H70_5 C104_5 1_555 1_555
C105_5 C102_5 1_555 1_555
H71_5 C105_5 1_555 1_555
C106_5 C104_5 1_555 1_555
H72_5 C106_5 1_555 1_555
C107_5 C105_5 1_555 1_555
C108_5 O26_5 1_555 1_555
Cu13_4 N17_6 1_555 1_555
Cu22_4 N19_6 1_555 1_555
Cu17_2 N8_6 1_555 1_555
N44_5 Cu14_2 1_555 1_555
Dy2_15 O14_6 1_555 1_555
N3_6 Cu19_2 1_555 1_555
N7_6 C17_6 1_555 1_555
C10_6 C12_6 1_555 1_555
C11_6 C14_6 1_555 1_555
O7_6 C18_6 1_555 1_555
C21_6 C23_6 1_555 1_555
C22_6 C24_6 1_555 1_555
C24_6 C27_6 1_555 1_555
C26_6 N42_2 1_555 1_555
O9_6 C27_6 1_555 1_555
C48_6 C50_6 1_555 1_555
C49_6 C51_6 1_555 1_555
C51_6 C54_6 1_555 1_555
C53_6 N19_6 1_555 1_555
O15_6 C54_6 1_555 1_555
O25_6 C99_6 1_555 1_555
C98_6 C99_6 1_555 1_555
O27_5 C108_5 1_555 1_555
N39 N36_5 1_555 1_555
N37_5 C103_5 1_555 1_555
C106_5 C107_5 1_555 1_555
C107_5 C108_5 1_555 1_555
I4_2 Cu13_4 1_555 1_555
I4_2 Cu22_4 1_555 1_555
O24_7 Dy6_3 1_555 1_555
O25_7 Dy6_3 1_555 1_555
H65_7 C96_7 1_555 1_555
C98_7 C96_7 1_555 1_555
C99_7 O24_7 1_555 1_555
O26_6 Dy6_3 1_555 1_555
O27_6 Dy6_3 1_555 1_555
H71_6 C105_6 1_555 1_555
C107_6 C105_6 1_555 1_555
C108_6 O26_6 1_555 1_555
O25_7 C99_7 1_555 1_555
C98_7 C99_7 1_555 1_555
O27_6 C108_6 1_555 1_555
C107_6 C108_6 1_555 1_555
Dy2_17 O6_7 1_555 1_555
O6_7 C18_7 1_555 1_555
N3_7 N48_3 1_555 1_555
C1_7 N7_7 1_555 1_555
N7_7 C16_7 1_555 1_555
C9_7 C1_7 1_555 1_555
H7_7 C9_7 1_555 1_555
C10_7 H8_7 1_555 1_555
C11_7 C9_7 1_555 1_555
H9_7 C11_7 1_555 1_555
C12_7 C1_7 1_555 1_555
H10_7 C12_7 1_555 1_555
C14_7 C10_7 1_555 1_555
C16_7 N48_3 1_555 1_555
H11_7 C16_7 1_555 1_555
C17_7 N3_7 1_555 1_555
H12_7 C17_7 1_555 1_555
O7_7 Dy2_17 1_555 1_555
C18_7 C14_7 1_555 1_555
N36_6 Cu13_2 1_555 1_555
N37_6 C100_6 1_555 1_555
C100_6 N36_6 1_555 1_555
H67_6 C100_6 1_555 1_555
C101_6 N37_6 1_555 1_555
C102_6 C101_6 1_555 1_555
H68_6 C102_6 1_555 1_555
C103_6 N40_2 1_555 1_555
H69_6 C103_6 1_555 1_555
C104_6 C101_6 1_555 1_555
H70_6 C104_6 1_555 1_555
C106_6 C104_6 1_555 1_555
H72_6 C106_6 1_555 1_555
N3_7 Cu19_3 1_555 1_555
N7_7 C17_7 1_555 1_555
C10_7 C12_7 1_555 1_555
C11_7 C14_7 1_555 1_555
O7_7 C18_7 1_555 1_555
N40_2 N36_6 1_555 1_555
N37_6 C103_6 1_555 1_555
N49_6 C52_7 1_555 1_555
C46_7 N18_7 1_555 1_555
N18_7 C52_7 1_555 1_555
C47_7 C46_7 1_555 1_555
H31_7 C47_7 1_555 1_555
C48_7 H32_7 1_555 1_555
C49_7 C47_7 1_555 1_555
H33_7 C49_7 1_555 1_555
C50_7 C46_7 1_555 1_555
H34_7 C50_7 1_555 1_555
C51_7 C48_7 1_555 1_555
C52_7 H35_7 1_555 1_555
C53_7 N18_7 1_555 1_555
H36_7 C53_7 1_555 1_555
O15_7 Dy2_18 1_555 1_555
C54_7 O14_7 1_555 1_555
N19_7 N49_6 1_555 1_555
Cu22 N19_7 1_555 1_555
Dy2_18 O14_7 1_555 1_555
C48_7 C50_7 1_555 1_555
C49_7 C51_7 1_555 1_555
C51_7 C54_7 1_555 1_555
C53_7 N19_7 1_555 1_555
O15_7 C54_7 1_555 1_555
I4_3 Cu22 1_555 1_555
O8_7 Dy2_19 1_555 1_555
N8_7 C25_7 1_555 1_555
C19_7 N9_7 1_555 1_555
N9_7 C25_7 1_555 1_555
C20_7 C19_7 1_555 1_555
H13_7 C20_7 1_555 1_555
C21_7 H14_7 1_555 1_555
C22_7 C20_7 1_555 1_555
H15_7 C22_7 1_555 1_555
C23_7 C19_7 1_555 1_555
H16_7 C23_7 1_555 1_555
C24_7 C21_7 1_555 1_555
C25_7 H17_7 1_555 1_555
C26_7 N9_7 1_555 1_555
H18_7 C26_7 1_555 1_555
O9_7 Dy2_19 1_555 1_555
C27_7 O8_7 1_555 1_555
N44 N8_7 1_555 1_555
Cu18 N8_7 1_555 1_555
C21_7 C23_7 1_555 1_555
C22_7 C24_7 1_555 1_555
C24_7 C27_7 1_555 1_555
C26_7 N44 1_555 1_555
O9_7 C27_7 1_555 1_555
N49_2 C43_7 1_555 1_555
C37_7 N15_7 1_555 1_555
N15_7 C43_7 1_555 1_555
C38_7 C37_7 1_555 1_555
H25_7 C38_7 1_555 1_555
C39_7 H26_7 1_555 1_555
C40_7 C38_7 1_555 1_555
H27_7 C40_7 1_555 1_555
C41_7 C37_7 1_555 1_555
H28_7 C41_7 1_555 1_555
C42_7 C39_7 1_555 1_555
C43_7 H29_7 1_555 1_555
C44_7 N15_7 1_555 1_555
H30_7 C44_7 1_555 1_555
O13_7 Dy2_20 1_555 1_555
C45_7 O12_7 1_555 1_555
N16_7 N49_2 1_555 1_555
Cu13_4 N33_7 1_555 1_555
N32_7 N33_7 1_555 1_555
N33_7 C91_7 1_555 1_555
N34_7 C91_7 1_555 1_555
C91_7 H61_7 1_555 1_555
C92_7 N34_7 1_555 1_555
C93_7 C92_7 1_555 1_555
H62_7 C93_7 1_555 1_555
C94_7 N32_7 1_555 1_555
H63_7 C94_7 1_555 1_555
C95_7 C92_7 1_555 1_555
H64_7 C95_7 1_555 1_555
C97_7 C95_7 1_555 1_555
H66_7 C97_7 1_555 1_555
Cu16_4 N16_7 1_555 1_555
N41_4 Cu13_4 1_555 1_555
Dy2_20 O12_7 1_555 1_555
C39_7 C41_7 1_555 1_555
C40_7 C42_7 1_555 1_555
C42_7 C45_7 1_555 1_555
C44_7 N16_7 1_555 1_555
O13_7 C45_7 1_555 1_555
N32_7 Cu10_2 1_555 1_555
N34_7 C94_7 1_555 1_555
I4_2 Cu16_4 1_555 1_555
O10_7 Dy2_21 1_555 1_555
N11_7 C34_7 1_555 1_555
C28_7 N12_7 1_555 1_555
N12_7 C34_7 1_555 1_555
C29_7 C28_7 1_555 1_555
H19_7 C29_7 1_555 1_555
C30_7 H20_7 1_555 1_555
C31_7 C29_7 1_555 1_555
H21_7 C31_7 1_555 1_555
C32_7 C28_7 1_555 1_555
H22_7 C32_7 1_555 1_555
C33_7 C30_7 1_555 1_555
C34_7 H23_7 1_555 1_555
C35_7 N12_7 1_555 1_555
H24_7 C35_7 1_555 1_555
O11_7 Dy2_21 1_555 1_555
C36_7 O10_7 1_555 1_555
N44_4 N11_7 1_555 1_555
Cu18_4 N11_7 1_555 1_555
C30_7 C32_7 1_555 1_555
C31_7 C33_7 1_555 1_555
C33_7 C36_7 1_555 1_555
C35_7 N44_4 1_555 1_555
O11_7 C36_7 1_555 1_555
O16_7 Dy2_22 1_555 1_555
N20_7 C61_7 1_555 1_555
C55_7 N21_7 1_555 1_555
N21_7 C61_7 1_555 1_555
C56_7 C55_7 1_555 1_555
H37_7 C56_7 1_555 1_555
C57_7 H38_7 1_555 1_555
C58_7 C56_7 1_555 1_555
H39_7 C58_7 1_555 1_555
C59_7 C55_7 1_555 1_555
H40_7 C59_7 1_555 1_555
C60_7 C57_7 1_555 1_555
C61_7 H41_7 1_555 1_555
C62_7 N21_7 1_555 1_555
H42_7 C62_7 1_555 1_555
O17_7 Dy2_22 1_555 1_555
C63_7 O16_7 1_555 1_555
N22_4 N20_7 1_555 1_555
Cu13_3 N22_4 1_555 1_555
Cu15_4 N20_7 1_555 1_555
C57_7 C59_7 1_555 1_555
C58_7 C60_7 1_555 1_555
C60_7 C63_7 1_555 1_555
C62_7 N22_4 1_555 1_555
O17_7 C63_7 1_555 1_555
O28_7 Dy3_7 1_555 1_555
O29_7 Dy3_7 1_555 1_555
O30_7 Dy3_7 1_555 1_555
O31_7 Dy3_7 1_555 1_555
O32_7 Dy3_7 1_555 1_555
O33_7 Dy3_7 1_555 1_555
N39_3 Cu9_3 1_555 1_555
N49_4 C43_8 1_555 1_555
C37_8 N15_8 1_555 1_555
N15_8 C43_8 1_555 1_555
C38_8 C37_8 1_555 1_555
H25_8 C38_8 1_555 1_555
C39_8 H26_8 1_555 1_555
C40_8 C38_8 1_555 1_555
H27_8 C40_8 1_555 1_555
C41_8 C37_8 1_555 1_555
H28_8 C41_8 1_555 1_555
C42_8 C39_8 1_555 1_555
C43_8 H29_8 1_555 1_555
C44_8 N15_8 1_555 1_555
H30_8 C44_8 1_555 1_555
O13_8 Dy2_24 1_555 1_555
C45_8 O12_8 1_555 1_555
N16_8 N49_4 1_555 1_555
O16_8 Dy2_24 1_555 1_555
N20_8 C61_8 1_555 1_555
C55_8 N21_8 1_555 1_555
N21_8 C61_8 1_555 1_555
C56_8 C55_8 1_555 1_555
H37_8 C56_8 1_555 1_555
C57_8 H38_8 1_555 1_555
C58_8 C56_8 1_555 1_555
H39_8 C58_8 1_555 1_555
C59_8 C55_8 1_555 1_555
H40_8 C59_8 1_555 1_555
C60_8 C57_8 1_555 1_555
C61_8 H41_8 1_555 1_555
C62_8 N21_8 1_555 1_555
H42_8 C62_8 1_555 1_555
O17_8 Dy2_24 1_555 1_555
C63_8 O16_8 1_555 1_555
N44_3 N20_8 1_555 1_555
Cu18_3 N20_8 1_555 1_555
Cu22_3 N16_8 1_555 1_555
Dy2_24 O12_8 1_555 1_555
C39_8 C41_8 1_555 1_555
C40_8 C42_8 1_555 1_555
C42_8 C45_8 1_555 1_555
C44_8 N16_8 1_555 1_555
O13_8 C45_8 1_555 1_555
C57_8 C59_8 1_555 1_555
C58_8 C60_8 1_555 1_555
C60_8 C63_8 1_555 1_555
C62_8 N44_3 1_555 1_555
O17_8 C63_8 1_555 1_555
I4 Cu22_3 1_555 1_555
O14_8 Dy6 1_555 1_555
N48 C52_8 1_555 1_555
C46_8 N18_8 1_555 1_555
N18_8 C52_8 1_555 1_555
C47_8 C46_8 1_555 1_555
H31_8 C47_8 1_555 1_555
C48_8 H32_8 1_555 1_555
C49_8 C47_8 1_555 1_555
H33_8 C49_8 1_555 1_555
C50_8 C46_8 1_555 1_555
H34_8 C50_8 1_555 1_555
C51_8 C48_8 1_555 1_555
C52_8 H35_8 1_555 1_555
C53_8 N18_8 1_555 1_555
H36_8 C53_8 1_555 1_555
O15_8 Dy2_25 1_555 1_555
C54_8 O14_8 1_555 1_555
N19_8 N48 1_555 1_555
Cu14 N30_4 1_555 1_555
O22_4 Dy6 1_555 1_555
O23_4 Dy6 1_555 1_555
N40 N30_4 1_555 1_555
N30_4 C82_4 1_555 1_555
N31_4 C82_4 1_555 1_555
C82_4 H55_4 1_555 1_555
C83_4 N31_4 1_555 1_555
C84_4 C83_4 1_555 1_555
H56_4 C84_4 1_555 1_555
C85_4 N40 1_555 1_555
H57_4 C85_4 1_555 1_555
C86_4 C83_4 1_555 1_555
H58_4 C86_4 1_555 1_555
C87_4 C84_4 1_555 1_555
H59_4 C87_4 1_555 1_555
C88_4 C86_4 1_555 1_555
H60_4 C88_4 1_555 1_555
C89_4 C87_4 1_555 1_555
C90_4 O22_4 1_555 1_555
O26_7 Dy6 1_555 1_555
O27_7 Dy6 1_555 1_555
H71_7 C105_7 1_555 1_555
C107_7 C105_7 1_555 1_555
C108_7 O26_7 1_555 1_555
Cu19 N19_8 1_555 1_555
Dy2_25 O14_8 1_555 1_555
C48_8 C50_8 1_555 1_555
C49_8 C51_8 1_555 1_555
C51_8 C54_8 1_555 1_555
C53_8 N19_8 1_555 1_555
O15_8 C54_8 1_555 1_555
O23_4 C90_4 1_555 1_555
N31_4 C85_4 1_555 1_555
C88_4 C89_4 1_555 1_555
C89_4 C90_4 1_555 1_555
O27_7 C108_7 1_555 1_555
C107_7 C108_7 1_555 1_555
O10_8 Dy2_26 1_555 1_555
N11_8 C34_8 1_555 1_555
C28_8 N12_8 1_555 1_555
N12_8 C34_8 1_555 1_555
C29_8 C28_8 1_555 1_555
H19_8 C29_8 1_555 1_555
C30_8 H20_8 1_555 1_555
C31_8 C29_8 1_555 1_555
H21_8 C31_8 1_555 1_555
C32_8 C28_8 1_555 1_555
H22_8 C32_8 1_555 1_555
C33_8 C30_8 1_555 1_555
C34_8 H23_8 1_555 1_555
C35_8 N12_8 1_555 1_555
H24_8 C35_8 1_555 1_555
O11_8 Dy2_26 1_555 1_555
C36_8 O10_8 1_555 1_555
N41_4 N11_8 1_555 1_555
Cu16_4 N11_8 1_555 1_555
O28_8 Dy3_8 1_555 1_555
O29_8 Dy3_8 1_555 1_555
O30_8 Dy3_8 1_555 1_555
O31_8 Dy3_8 1_555 1_555
O32_8 Dy3_8 1_555 1_555
O33_8 Dy3_8 1_555 1_555
O10_8 Dy3_8 1_555 1_555
C30_8 C32_8 1_555 1_555
C31_8 C33_8 1_555 1_555
C33_8 C36_8 1_555 1_555
C35_8 N41_4 1_555 1_555
O11_8 C36_8 1_555 1_555
Dy2_27 O6_8 1_555 1_555
O6_8 C18_8 1_555 1_555
N3_8 N49_5 1_555 1_555
C1_8 N7_8 1_555 1_555
N7_8 C16_8 1_555 1_555
C9_8 C1_8 1_555 1_555
H7_8 C9_8 1_555 1_555
C10_8 H8_8 1_555 1_555
C11_8 C9_8 1_555 1_555
H9_8 C11_8 1_555 1_555
C12_8 C1_8 1_555 1_555
H10_8 C12_8 1_555 1_555
C14_8 C10_8 1_555 1_555
C16_8 N49_5 1_555 1_555
H11_8 C16_8 1_555 1_555
C17_8 N3_8 1_555 1_555
H12_8 C17_8 1_555 1_555
O7_8 Dy2_27 1_555 1_555
C18_8 C14_8 1_555 1_555
O8_8 Dy2_27 1_555 1_555
N8_8 C25_8 1_555 1_555
C19_8 N9_8 1_555 1_555
N9_8 C25_8 1_555 1_555
C20_8 C19_8 1_555 1_555
H13_8 C20_8 1_555 1_555
C21_8 H14_8 1_555 1_555
C22_8 C20_8 1_555 1_555
H15_8 C22_8 1_555 1_555
C23_8 C19_8 1_555 1_555
H16_8 C23_8 1_555 1_555
C24_8 C21_8 1_555 1_555
C25_8 H17_8 1_555 1_555
C26_8 N9_8 1_555 1_555
H18_8 C26_8 1_555 1_555
O9_8 Dy2_27 1_555 1_555
C27_8 O8_8 1_555 1_555
N44_5 N8_8 1_555 1_555
N36_7 Cu13_3 1_555 1_555
N37_7 C100_7 1_555 1_555
C100_7 N36_7 1_555 1_555
H67_7 C100_7 1_555 1_555
C101_7 N37_7 1_555 1_555
C102_7 C101_7 1_555 1_555
H68_7 C102_7 1_555 1_555
C103_7 N39_3 1_555 1_555
H69_7 C103_7 1_555 1_555
C104_7 C101_7 1_555 1_555
H70_7 C104_7 1_555 1_555
C106_7 C104_7 1_555 1_555
H72_7 C106_7 1_555 1_555
Cu15_4 I3_3 1_555 1_555
Cu19_2 N8_8 1_555 1_555
N3_8 Cu15_4 1_555 1_555
N7_8 C17_8 1_555 1_555
C10_8 C12_8 1_555 1_555
C11_8 C14_8 1_555 1_555
O7_8 C18_8 1_555 1_555
C21_8 C23_8 1_555 1_555
C22_8 C24_8 1_555 1_555
C24_8 C27_8 1_555 1_555
C26_8 N44_5 1_555 1_555
O9_8 C27_8 1_555 1_555
N39_3 N36_7 1_555 1_555
N37_7 C103_7 1_555 1_555
Cu1_2 N2_2 1_555 1_555
Cu15 N4_3 1_555 1_555
O28_5 C15_3 1_555 1_555
O31_5 C15_3 1_555 1_555
N2_2 N4_3 1_555 1_555
N4_3 C2_3 1_555 1_555
N6_3 C2_3 1_555 1_555
C2_3 H1_3 1_555 1_555
C3_3 N6_3 1_555 1_555
C4_3 C3_3 1_555 1_555
H2_3 C4_3 1_555 1_555
C5_3 N2_2 1_555 1_555
H3_3 C5_3 1_555 1_555
C6_3 C3_3 1_555 1_555
H4_3 C6_3 1_555 1_555
C7_3 C4_3 1_555 1_555
H5_3 C7_3 1_555 1_555
C8_3 C6_3 1_555 1_555
H6_3 C8_3 1_555 1_555
C13_3 C7_3 1_555 1_555
C15_3 C13_3 1_555 1_555
O28_3 C72_2 1_555 1_555
O31_3 C72_2 1_555 1_555
N23_2 N24_2 1_555 1_555
N24_2 Cu16 1_555 1_555
N25_2 C64_2 1_555 1_555
C64_2 N24_2 1_555 1_555
H43_2 C64_2 1_555 1_555
C65_2 N25_2 1_555 1_555
C66_2 C65_2 1_555 1_555
H44_2 C66_2 1_555 1_555
C67_2 N23_2 1_555 1_555
H45_2 C67_2 1_555 1_555
C68_2 C65_2 1_555 1_555
H46_2 C68_2 1_555 1_555
C69_2 C66_2 1_555 1_555
H47_2 C69_2 1_555 1_555
C70_2 C68_2 1_555 1_555
H48_2 C70_2 1_555 1_555
C71_2 C69_2 1_555 1_555
C72_2 C71_2 1_555 1_555
N35_3 Cu1_2 1_555 1_555
N36_8 Cu16_4 1_555 1_555
N37_8 C100_8 1_555 1_555
C100_8 N36_8 1_555 1_555
H67_8 C100_8 1_555 1_555
C101_8 N37_8 1_555 1_555
C102_8 C101_8 1_555 1_555
H68_8 C102_8 1_555 1_555
C103_8 N35_3 1_555 1_555
H69_8 C103_8 1_555 1_555
C104_8 C101_8 1_555 1_555
H70_8 C104_8 1_555 1_555
C106_8 C104_8 1_555 1_555
H72_8 C106_8 1_555 1_555
Cu8_2 N23_2 1_555 1_555
N38_3 Cu8_2 1_555 1_555
N39_4 Cu8_2 1_555 1_555
N40_3 Cu1_2 1_555 1_555
N6_3 C5_3 1_555 1_555
C8_3 C13_3 1_555 1_555
N25_2 C67_2 1_555 1_555
C70_2 C71_2 1_555 1_555
N35_3 N36_8 1_555 1_555
N37_8 C103_8 1_555 1_555
O30_8 C81_4 1_555 1_555
O33_8 C81_4 1_555 1_555
H53_4 C78_4 1_555 1_555
C80_4 C78_4 1_555 1_555
C81_4 C80_4 1_555 1_555
Cu16_2 N30_5 1_555 1_555
N29_4 N30_5 1_555 1_555
N30_5 C82_5 1_555 1_555
N31_5 C82_5 1_555 1_555
C82_5 H55_5 1_555 1_555
C83_5 N31_5 1_555 1_555
C84_5 C83_5 1_555 1_555
H56_5 C84_5 1_555 1_555
C85_5 N29_4 1_555 1_555
H57_5 C85_5 1_555 1_555
C86_5 C83_5 1_555 1_555
H58_5 C86_5 1_555 1_555
C87_5 C84_5 1_555 1_555
H59_5 C87_5 1_555 1_555
C88_5 C86_5 1_555 1_555
H60_5 C88_5 1_555 1_555
C89_5 C87_5 1_555 1_555
C90_5 O28 1_555 1_555
H65_8 C96_8 1_555 1_555
C98_8 C96_8 1_555 1_555
C99_8 O30 1_555 1_555
H71_8 C105_8 1_555 1_555
C107_8 C105_8 1_555 1_555
C108_8 O29 1_555 1_555
Cu9_4 N29_4 1_555 1_555
O31 C90_5 1_555 1_555
N31_5 C85_5 1_555 1_555
C88_5 C89_5 1_555 1_555
C89_5 C90_5 1_555 1_555
O33 C99_8 1_555 1_555
C98_8 C99_8 1_555 1_555
O32 C108_8 1_555 1_555
C107_8 C108_8 1_555 1_555
N26_4 N27_4 1_555 1_555
N27_4 Cu21 1_555 1_555
N28_4 C73_4 1_555 1_555
C73_4 N27_4 1_555 1_555
H49_4 C73_4 1_555 1_555
C74_4 N28_4 1_555 1_555
C75_4 C74_4 1_555 1_555
H50_4 C75_4 1_555 1_555
C76_4 N26_4 1_555 1_555
H51_4 C76_4 1_555 1_555
C77_4 C74_4 1_555 1_555
H52_4 C77_4 1_555 1_555
C79_4 C77_4 1_555 1_555
H54_4 C79_4 1_555 1_555
Cu18_2 N33_8 1_555 1_555
N32_8 N33_8 1_555 1_555
N33_8 C91_8 1_555 1_555
N34_8 C91_8 1_555 1_555
C91_8 H61_8 1_555 1_555
C92_8 N34_8 1_555 1_555
C93_8 C92_8 1_555 1_555
H62_8 C93_8 1_555 1_555
C94_8 N32_8 1_555 1_555
H63_8 C94_8 1_555 1_555
C95_8 C92_8 1_555 1_555
H64_8 C95_8 1_555 1_555
C97_8 C95_8 1_555 1_555
H66_8 C97_8 1_555 1_555
Cu10_4 N26_4 1_555 1_555
N28_4 C76_4 1_555 1_555
N32_8 Cu10_4 1_555 1_555
N34_8 C94_8 1_555 1_555
Cu15_2 N30_6 1_555 1_555
N29_5 N30_6 1_555 1_555
N30_6 C82_6 1_555 1_555
N31_6 C82_6 1_555 1_555
C82_6 H55_6 1_555 1_555
C83_6 N31_6 1_555 1_555
C84_6 C83_6 1_555 1_555
H56_6 C84_6 1_555 1_555
C85_6 N29_5 1_555 1_555
H57_6 C85_6 1_555 1_555
C86_6 C83_6 1_555 1_555
H58_6 C86_6 1_555 1_555
C87_6 C84_6 1_555 1_555
H59_6 C87_6 1_555 1_555
C88_6 C86_6 1_555 1_555
H60_6 C88_6 1_555 1_555
C89_6 C87_6 1_555 1_555
C90_6 O28_2 1_555 1_555
H65_9 C96_9 1_555 1_555
C98_9 C96_9 1_555 1_555
C99_9 O30_2 1_555 1_555
N36_9 Cu16_3 1_555 1_555
N37_9 C100_9 1_555 1_555
C100_9 N36_9 1_555 1_555
H67_9 C100_9 1_555 1_555
C101_9 N37_9 1_555 1_555
C102_9 C101_9 1_555 1_555
H68_9 C102_9 1_555 1_555
C103_9 N38_3 1_555 1_555
H69_9 C103_9 1_555 1_555
C104_9 C101_9 1_555 1_555
H70_9 C104_9 1_555 1_555
C105_9 C102_9 1_555 1_555
H71_9 C105_9 1_555 1_555
C106_9 C104_9 1_555 1_555
H72_9 C106_9 1_555 1_555
C107_9 C105_9 1_555 1_555
C108_9 O29_2 1_555 1_555
Cu9_5 N29_5 1_555 1_555
O31_2 C90_6 1_555 1_555
N31_6 C85_6 1_555 1_555
C88_6 C89_6 1_555 1_555
C89_6 C90_6 1_555 1_555
O33_2 C99_9 1_555 1_555
C98_9 C99_9 1_555 1_555
O32_2 C108_9 1_555 1_555
N38_3 N36_9 1_555 1_555
N37_9 C103_9 1_555 1_555
C106_9 C107_9 1_555 1_555
C107_9 C108_9 1_555 1_555
O28_6 C81_5 1_555 1_555
O31_6 C81_5 1_555 1_555
N26_5 N27_5 1_555 1_555
N27_5 Cu17 1_555 1_555
N28_5 C73_5 1_555 1_555
C73_5 N27_5 1_555 1_555
H49_5 C73_5 1_555 1_555
C74_5 N28_5 1_555 1_555
C75_5 C74_5 1_555 1_555
H50_5 C75_5 1_555 1_555
C76_5 N26_5 1_555 1_555
H51_5 C76_5 1_555 1_555
C77_5 C74_5 1_555 1_555
H52_5 C77_5 1_555 1_555
C78_5 C75_5 1_555 1_555
H53_5 C78_5 1_555 1_555
C79_5 C77_5 1_555 1_555
H54_5 C79_5 1_555 1_555
C80_5 C78_5 1_555 1_555
C81_5 C80_5 1_555 1_555
Cu18 N33_9 1_555 1_555
N32_9 N33_9 1_555 1_555
N33_9 C91_9 1_555 1_555
N34_9 C91_9 1_555 1_555
C91_9 H61_9 1_555 1_555
C92_9 N34_9 1_555 1_555
C93_9 C92_9 1_555 1_555
H62_9 C93_9 1_555 1_555
C94_9 N32_9 1_555 1_555
H63_9 C94_9 1_555 1_555
C95_9 C92_9 1_555 1_555
H64_9 C95_9 1_555 1_555
C97_9 C95_9 1_555 1_555
H66_9 C97_9 1_555 1_555
Cu10_5 N26_5 1_555 1_555
N28_5 C76_5 1_555 1_555
C79_5 C80_5 1_555 1_555
N32_9 Cu10_5 1_555 1_555
N34_9 C94_9 1_555 1_555
N26_6 N27_6 1_555 1_555
N27_6 Cu20 1_555 1_555
N28_6 C73_6 1_555 1_555
C73_6 N27_6 1_555 1_555
H49_6 C73_6 1_555 1_555
C74_6 N28_6 1_555 1_555
C75_6 C74_6 1_555 1_555
H50_6 C75_6 1_555 1_555
C76_6 N26_6 1_555 1_555
H51_6 C76_6 1_555 1_555
C77_6 C74_6 1_555 1_555
H52_6 C77_6 1_555 1_555
C79_6 C77_6 1_555 1_555
H54_6 C79_6 1_555 1_555
Cu17_2 N33_10 1_555 1_555
N32_10 N33_10 1_555 1_555
N33_10 C91_10 1_555 1_555
N34_10 C91_10 1_555 1_555
C91_10 H61_10 1_555 1_555
C92_10 N34_10 1_555 1_555
C93_10 C92_10 1_555 1_555
H62_10 C93_10 1_555 1_555
C94_10 N32_10 1_555 1_555
H63_10 C94_10 1_555 1_555
C95_10 C92_10 1_555 1_555
H64_10 C95_10 1_555 1_555
C96_10 C93_10 1_555 1_555
H65_10 C96_10 1_555 1_555
C97_10 C95_10 1_555 1_555
H66_10 C97_10 1_555 1_555
C98_10 C96_10 1_555 1_555
C99_10 O30_3 1_555 1_555
H71_10 C105_10 1_555 1_555
C107_10 C105_10 1_555 1_555
C108_10 O29_3 1_555 1_555
Cu10_6 N26_6 1_555 1_555
N28_6 C76_6 1_555 1_555
O33_3 C99_10 1_555 1_555
N32_10 Cu10_6 1_555 1_555
N34_10 C94_10 1_555 1_555
C97_10 C98_10 1_555 1_555
C98_10 C99_10 1_555 1_555
O32_3 C108_10 1_555 1_555
C107_10 C108_10 1_555 1_555
O28_7 C81_6 1_555 1_555
O31_7 C81_6 1_555 1_555
H53_6 C78_6 1_555 1_555
C80_6 C78_6 1_555 1_555
C81_6 C80_6 1_555 1_555
N35_4 Cu9_5 1_555 1_555
N36_10 Cu15_4 1_555 1_555
N37_10 C100_10 1_555 1_555
C100_10 N36_10 1_555 1_555
H67_10 C100_10 1_555 1_555
C101_10 N37_10 1_555 1_555
C102_10 C101_10 1_555 1_555
H68_10 C102_10 1_555 1_555
C103_10 N35_4 1_555 1_555
H69_10 C103_10 1_555 1_555
C104_10 C101_10 1_555 1_555
H70_10 C104_10 1_555 1_555
C106_10 C104_10 1_555 1_555
H72_10 C106_10 1_555 1_555
N38_4 Cu9_4 1_555 1_555
N39_5 Cu9_4 1_555 1_555
N40_4 Cu9_5 1_555 1_555
N35_4 N36_10 1_555 1_555
N37_10 C103_10 1_555 1_555
Cu15_3 N4_4 1_555 1_555
O29_5 C15_4 1_555 1_555
O32_5 C15_4 1_555 1_555
N38_4 N4_4 1_555 1_555
N4_4 C2_4 1_555 1_555
N6_4 C2_4 1_555 1_555
C2_4 H1_4 1_555 1_555
C3_4 N6_4 1_555 1_555
C4_4 C3_4 1_555 1_555
H2_4 C4_4 1_555 1_555
C5_4 N38_4 1_555 1_555
H3_4 C5_4 1_555 1_555
C6_4 C3_4 1_555 1_555
H4_4 C6_4 1_555 1_555
C7_4 C4_4 1_555 1_555
H5_4 C7_4 1_555 1_555
C8_4 C6_4 1_555 1_555
H6_4 C8_4 1_555 1_555
C13_4 C7_4 1_555 1_555
C15_4 C13_4 1_555 1_555
N36_11 Cu22 1_555 1_555
N37_11 C100_11 1_555 1_555
C100_11 N36_11 1_555 1_555
H67_11 C100_11 1_555 1_555
C101_11 N37_11 1_555 1_555
C102_11 C101_11 1_555 1_555
H68_11 C102_11 1_555 1_555
C103_11 N39_5 1_555 1_555
H69_11 C103_11 1_555 1_555
C104_11 C101_11 1_555 1_555
H70_11 C104_11 1_555 1_555
C106_11 C104_11 1_555 1_555
H72_11 C106_11 1_555 1_555
N6_4 C5_4 1_555 1_555
C8_4 C13_4 1_555 1_555
N39_5 N36_11 1_555 1_555
N37_11 C103_11 1_555 1_555
Cu20_2 N30_7 1_555 1_555
N29_6 N30_7 1_555 1_555
N30_7 C82_7 1_555 1_555
N31_7 C82_7 1_555 1_555
C82_7 H55_7 1_555 1_555
C83_7 N31_7 1_555 1_555
C84_7 C83_7 1_555 1_555
H56_7 C84_7 1_555 1_555
C85_7 N29_6 1_555 1_555
H57_7 C85_7 1_555 1_555
C86_7 C83_7 1_555 1_555
H58_7 C86_7 1_555 1_555
C87_7 C84_7 1_555 1_555
H59_7 C87_7 1_555 1_555
C88_7 C86_7 1_555 1_555
H60_7 C88_7 1_555 1_555
C89_7 C87_7 1_555 1_555
C90_7 O28_4 1_555 1_555
H65_11 C96_11 1_555 1_555
C98_11 C96_11 1_555 1_555
C99_11 O30_4 1_555 1_555
H71_11 C105_11 1_555 1_555
C107_11 C105_11 1_555 1_555
C108_11 O29_4 1_555 1_555
Cu9_6 N29_6 1_555 1_555
O31_4 C90_7 1_555 1_555
N31_7 C85_7 1_555 1_555
C88_7 C89_7 1_555 1_555
C89_7 C90_7 1_555 1_555
O33_4 C99_11 1_555 1_555
C98_11 C99_11 1_555 1_555
O32_4 C108_11 1_555 1_555
C107_11 C108_11 1_555 1_555
Cu19_2 N33_11 1_555 1_555
N32_11 N33_11 1_555 1_555
N33_11 C91_11 1_555 1_555
N34_11 C91_11 1_555 1_555
C91_11 H61_11 1_555 1_555
C92_11 N34_11 1_555 1_555
C93_11 C92_11 1_555 1_555
H62_11 C93_11 1_555 1_555
C94_11 N32_11 1_555 1_555
H63_11 C94_11 1_555 1_555
C95_11 C92_11 1_555 1_555
H64_11 C95_11 1_555 1_555
C97_11 C95_11 1_555 1_555
H66_11 C97_11 1_555 1_555
N32_11 Cu10_4 1_555 1_555
N34_11 C94_11 1_555 1_555
Cu18_3 N33_12 1_555 1_555
N32_12 N33_12 1_555 1_555
N33_12 C91_12 1_555 1_555
N34_12 C91_12 1_555 1_555
C91_12 H61_12 1_555 1_555
C92_12 N34_12 1_555 1_555
C93_12 C92_12 1_555 1_555
H62_12 C93_12 1_555 1_555
C94_12 N32_12 1_555 1_555
H63_12 C94_12 1_555 1_555
C95_12 C92_12 1_555 1_555
H64_12 C95_12 1_555 1_555
C96_12 C93_12 1_555 1_555
H65_12 C96_12 1_555 1_555
C97_12 C95_12 1_555 1_555
H66_12 C97_12 1_555 1_555
C98_12 C96_12 1_555 1_555
C99_12 O30_5 1_555 1_555
O33_5 C99_12 1_555 1_555
N32_12 Cu9_6 1_555 1_555
N34_12 C94_12 1_555 1_555
C97_12 C98_12 1_555 1_555
C98_12 C99_12 1_555 1_555
H65_13 C96_13 1_555 1_555
C98_13 C96_13 1_555 1_555
C99_13 O30_6 1_555 1_555
N36_12 Cu22_3 1_555 1_555
N37_12 C100_12 1_555 1_555
C100_12 N36_12 1_555 1_555
H67_12 C100_12 1_555 1_555
C101_12 N37_12 1_555 1_555
C102_12 C101_12 1_555 1_555
H68_12 C102_12 1_555 1_555
C103_12 N39_4 1_555 1_555
H69_12 C103_12 1_555 1_555
C104_12 C101_12 1_555 1_555
H70_12 C104_12 1_555 1_555
C105_12 C102_12 1_555 1_555
H71_12 C105_12 1_555 1_555
C106_12 C104_12 1_555 1_555
H72_12 C106_12 1_555 1_555
C107_12 C105_12 1_555 1_555
C108_12 O29_6 1_555 1_555
O33_6 C99_13 1_555 1_555
C98_13 C99_13 1_555 1_555
O32_6 C108_12 1_555 1_555
N39_4 N36_12 1_555 1_555
N37_12 C103_12 1_555 1_555
C106_12 C107_12 1_555 1_555
C107_12 C108_12 1_555 1_555
Cu18_4 N33_13 1_555 1_555
N32_13 N33_13 1_555 1_555
N33_13 C91_13 1_555 1_555
N34_13 C91_13 1_555 1_555
C91_13 H61_13 1_555 1_555
C92_13 N34_13 1_555 1_555
C93_13 C92_13 1_555 1_555
H62_13 C93_13 1_555 1_555
C94_13 N32_13 1_555 1_555
H63_13 C94_13 1_555 1_555
C95_13 C92_13 1_555 1_555
H64_13 C95_13 1_555 1_555
C97_13 C95_13 1_555 1_555
H66_13 C97_13 1_555 1_555
N32_13 Cu10_6 1_555 1_555
N34_13 C94_13 1_555 1_555
Cu19 N33_14 1_555 1_555
N32_14 N33_14 1_555 1_555
N33_14 C91_14 1_555 1_555
N34_14 C91_14 1_555 1_555
C91_14 H61_14 1_555 1_555
C92_14 N34_14 1_555 1_555
C93_14 C92_14 1_555 1_555
H62_14 C93_14 1_555 1_555
C94_14 N32_14 1_555 1_555
H63_14 C94_14 1_555 1_555
C95_14 C92_14 1_555 1_555
H64_14 C95_14 1_555 1_555
C97_14 C95_14 1_555 1_555
H66_14 C97_14 1_555 1_555
N32_14 Cu10_5 1_555 1_555
N34_14 C94_14 1_555 1_555
N36_13 Cu22_2 1_555 1_555
N37_13 C100_13 1_555 1_555
C100_13 N36_13 1_555 1_555
H67_13 C100_13 1_555 1_555
C101_13 N37_13 1_555 1_555
C102_13 C101_13 1_555 1_555
H68_13 C102_13 1_555 1_555
C103_13 N40_4 1_555 1_555
H69_13 C103_13 1_555 1_555
C104_13 C101_13 1_555 1_555
H70_13 C104_13 1_555 1_555
C106_13 C104_13 1_555 1_555
H72_13 C106_13 1_555 1_555
N40_4 N36_13 1_555 1_555
N37_13 C103_13 1_555 1_555
H65_14 C96_14 1_555 1_555
C98_14 C96_14 1_555 1_555
C99_14 O30_7 1_555 1_555
H71_13 C105_13 1_555 1_555
C107_13 C105_13 1_555 1_555
C108_13 O29_7 1_555 1_555
O33_7 C99_14 1_555 1_555
C98_14 C99_14 1_555 1_555
O32_7 C108_13 1_555 1_555
C107_13 C108_13 1_555 1_555
N39_6 Cu9_6 1_555 1_555
N36_14 Cu19_3 1_555 1_555
N37_14 C100_14 1_555 1_555
C100_14 N36_14 1_555 1_555
H67_14 C100_14 1_555 1_555
C101_14 N37_14 1_555 1_555
C102_14 C101_14 1_555 1_555
H68_14 C102_14 1_555 1_555
C103_14 N39_6 1_555 1_555
H69_14 C103_14 1_555 1_555
C104_14 C101_14 1_555 1_555
H70_14 C104_14 1_555 1_555
C106_14 C104_14 1_555 1_555
H72_14 C106_14 1_555 1_555
N39_6 N36_14 1_555 1_555
N37_14 C103_14 1_555 1_555
Cu22_4 N30_8 1_555 1_555
N40_3 N30_8 1_555 1_555
N30_8 C82_8 1_555 1_555
N31_8 C82_8 1_555 1_555
C82_8 H55_8 1_555 1_555
C83_8 N31_8 1_555 1_555
C84_8 C83_8 1_555 1_555
H56_8 C84_8 1_555 1_555
C85_8 N40_3 1_555 1_555
H57_8 C85_8 1_555 1_555
C86_8 C83_8 1_555 1_555
H58_8 C86_8 1_555 1_555
C87_8 C84_8 1_555 1_555
H59_8 C87_8 1_555 1_555
C88_8 C86_8 1_555 1_555
H60_8 C88_8 1_555 1_555
C89_8 C87_8 1_555 1_555
C90_8 O28_8 1_555 1_555
H71_14 C105_14 1_555 1_555
C107_14 C105_14 1_555 1_555
C108_14 O29_8 1_555 1_555
O31_8 C90_8 1_555 1_555
N31_8 C85_8 1_555 1_555
C88_8 C89_8 1_555 1_555
C89_8 C90_8 1_555 1_555
O32_8 C108_14 1_555 1_555
C107_14 C108_14 1_555 1_555

#END
