
###############################################################################
#
# This file contains modified crystal structure data generated from the
# MOF subset of the Cambridge Structural Database (CSD) v543 
# hosted by the Cambridge Crystallographic Data Centre (CCDC).
#
# This work is licensed under the Creative Commons
# Attribution-NonCommercial-ShareAlike 4.0 International License.
# To view a copy of this license, visit
# http://creativecommons.org/licenses/by-nc-sa/4.0/
# or send a letter to
# Creative Commons, PO Box 1866, Mountain View, CA 94042, USA.
#
# CIF created using the CSD Python API on 29 September 2022
# The structure has been converted into the P1 space group
# The structure has a 3D framework
# The original CSD entry YIBMUT is in the monoclinic crystal system
# The framework has been calculated to contain at least 10.0% void space
# The void calculation uses a probe of radius 1.32A, grid spacing 0.4
#
###############################################################################

data_YIBMUT
_chemical_formula_moiety         '(C70 H60 Cd2 N4 O20)n'
_symmetry_cell_setting           triclinic
_symmetry_space_group_name_H-M   'P 1'
_symmetry_Int_Tables_number      1
_space_group_name_Hall           'P 1'
loop_
_symmetry_equiv_pos_site_id
_symmetry_equiv_pos_as_xyz
1 x,y,z
_cell_length_a                   13.9411(8)
_cell_length_b                   17.0817(12)
_cell_length_c                   7.6680(18)
_cell_angle_alpha                90
_cell_angle_beta                 91.974(9)
_cell_angle_gamma                90
_cell_volume                     1824.96
loop_
_atom_site_label
_atom_site_type_symbol
_atom_site_fract_x
_atom_site_fract_y
_atom_site_fract_z
H6 H 0.1136 0.6117 0.0415
N1 N 0.1354(15) 0.6208(11) 0.783(3)
H1 H 0.1802 0.5923 0.7296
H2 H 0.0803 0.6106 0.7223
C1 C 0.1577(18) 0.7014(12) 0.725(4)
H3 H 0.1056 0.7209 0.6524
H4 H 0.2154 0.7008 0.6599
H5 H 0.1667 0.7346 0.8251
C2 C 0.1225(16) 0.5759(14) 0.947(3)
H7 H 0.1785 0.5445 0.9714
H8 H 0.0673 0.5427 0.9334
N1_2 N 0.8646(15) 0.1208(11) 0.717(3)
H1_2 H 0.8198 0.0923 0.7704
H2_2 H 0.9197 0.1106 0.7777
C1_2 C 0.8423(18) 0.2014(12) 0.775(4)
H3_2 H 0.8944 0.2209 0.8476
H4_2 H 0.7846 0.2008 0.8401
H5_2 H 0.8333 0.2346 0.6749
C2_2 C 0.8775(16) 0.0759(14) 0.553(3)
H6_2 H 0.8864 0.1117 0.4585
H7_2 H 0.8215 0.0445 0.5286
H8_2 H 0.9327 0.0427 0.5666
N1_3 N 0.8646(15) 0.3792(11) 0.217(3)
H1_3 H 0.8198 0.4077 0.2704
H2_3 H 0.9197 0.3894 0.2777
C1_3 C 0.8423(18) 0.2986(12) 0.275(4)
H3_3 H 0.8944 0.2791 0.3476
H4_3 H 0.7846 0.2992 0.3401
H5_3 H 0.8333 0.2654 0.1749
C2_3 C 0.8775(16) 0.4241(14) 0.053(3)
H7_3 H 0.8215 0.4555 0.0286
H8_3 H 0.9327 0.4573 0.0666
H6_3 H 0.8864 0.3883 0.9585
N1_4 N 0.1354(15) 0.8792(11) 0.283(3)
H1_4 H 0.1802 0.9077 0.2296
H2_4 H 0.0803 0.8894 0.2223
C1_4 C 0.1577(18) 0.7986(12) 0.225(4)
H3_4 H 0.1056 0.7791 0.1524
H4_4 H 0.2154 0.7992 0.1599
H5_4 H 0.1667 0.7654 0.3251
C2_4 C 0.1225(16) 0.9241(14) 0.447(3)
H6_4 H 0.1136 0.8883 0.5415
H7_4 H 0.1785 0.9555 0.4714
H8_4 H 0.0673 0.9573 0.4334
Cd1 Cd 0.12674(6) 0.52202(5) 0.35893(19)
O1 O 0.0862(6) 0.4716(5) 0.6247(16)
O3 O 0.0733(5) 0.1024(5) 0.7502(13)
O4 O 0.2237(5) 0.0706(4) 0.7314(12)
O5 O 0.7596(5) 0.3820(5) 0.7113(12)
O6 O 0.7262(5) 0.4436(5) 0.4667(13)
C3 C 0.0639(8) 0.4023(7) 0.6511(18)
C4 C 0.1601(7) 0.1208(6) 0.7205(17)
C5 C 0.1388(7) 0.3402(6) 0.6542(17)
C6 C 0.1139(7) 0.2619(6) 0.6805(17)
H9 H 0.0500 0.2484 0.6945
C7 C 0.1846(7) 0.2039(6) 0.6858(17)
C8 C 0.2795(7) 0.2252(6) 0.6627(16)
H10 H 0.3266 0.1866 0.6636
C9 C 0.3059(7) 0.3032(6) 0.6382(16)
C10 C 0.2338(7) 0.3597(7) 0.6342(17)
H11 H 0.2502 0.4118 0.6177
C11 C 0.7014(8) 0.4004(6) 0.5871(18)
C12 C 0.6011(7) 0.3707(6) 0.5932(16)
C13 C 0.5295(8) 0.4054(6) 0.4913(17)
H12 H 0.5462 0.4446 0.4138
C14 C 0.4336(7) 0.3842(6) 0.5000(16)
H13 H 0.3867 0.4085 0.4298
C15 C 0.4093(7) 0.3248(6) 0.6181(16)
C16 C 0.4809(7) 0.2873(6) 0.7166(17)
H14 H 0.4651 0.2461 0.7895
C17 C 0.5755(7) 0.3108(7) 0.7070(17)
H15 H 0.6225 0.2866 0.7769
Cd3 Cd 0.87326(6) 0.47798(5) 0.64107(19)
O7 O 0.0231(5) 0.6183(5) 0.3268(13)
O8 O 0.0733(5) 0.3976(5) 0.2502(13)
O9 O 0.2237(5) 0.4294(4) 0.2314(12)
O10 O 0.2404(5) 0.6180(5) 0.2887(12)
O11 O 0.2738(5) 0.5564(5) 0.5333(13)
Cd4 Cd 0.12674(6) 0.97798(5) 0.85893(19)
O2 O 0.9769(5) 0.3817(5) 0.6732(13)
O2_2 O 0.0231(5) 0.8817(5) 0.8268(13)
Cd1_2 Cd 0.87326(6) 0.02202(5) 0.14107(19)
O7_2 O 0.9769(5) 0.1183(5) 0.1732(13)
O10_2 O 0.7596(5) 0.1180(5) 0.2113(12)
O11_2 O 0.7262(5) 0.0564(5) 0.9667(13)
O6_2 O 0.2738(5) 0.9436(5) 0.0333(13)
C13_2 C 0.4705(8) 0.9054(6) 0.0087(17)
H12_2 H 0.4538 0.9446 0.0862
C14_2 C 0.5664(7) 0.8842(6) 0.0000(16)
H13_2 H 0.6133 0.9085 0.0702
O8_2 O 0.9267(5) 0.8976(5) 0.2498(13)
O9_2 O 0.7763(5) 0.9294(4) 0.2686(12)
O1_2 O 0.9138(6) 0.9716(5) 0.8753(16)
O3_2 O 0.9267(5) 0.6024(5) 0.7498(13)
O4_2 O 0.7763(5) 0.5706(4) 0.7686(12)
O5_2 O 0.2404(5) 0.8820(5) 0.7887(12)
C3_2 C 0.9361(8) 0.9023(7) 0.8489(18)
C4_2 C 0.8399(7) 0.6208(6) 0.7795(17)
C5_2 C 0.8612(7) 0.8402(6) 0.8458(17)
C6_2 C 0.8861(7) 0.7619(6) 0.8195(17)
H9_2 H 0.9500 0.7484 0.8055
C7_2 C 0.8154(7) 0.7039(6) 0.8142(17)
C8_2 C 0.7205(7) 0.7252(6) 0.8373(16)
H10_2 H 0.6734 0.6866 0.8364
C9_2 C 0.6941(7) 0.8032(6) 0.8618(16)
C10_2 C 0.7662(7) 0.8597(7) 0.8658(17)
H11_2 H 0.7498 0.9118 0.8823
C11_2 C 0.2986(8) 0.9004(6) 0.9129(18)
C12_2 C 0.3989(7) 0.8707(6) 0.9068(16)
C14_3 C 0.5664(7) 0.8842(6) 1.0000(16)
C15_2 C 0.5907(7) 0.8248(6) 0.8819(16)
C16_2 C 0.5191(7) 0.7873(6) 0.7834(17)
H14_2 H 0.5349 0.7461 0.7105
C17_2 C 0.4245(7) 0.8108(7) 0.7930(17)
H15_2 H 0.3775 0.7866 0.7231
O1_3 O 0.9138(6) 0.5284(5) 0.3753(16)
C3_3 C 0.9361(8) 0.5977(7) 0.3489(18)
C4_3 C 0.8399(7) 0.8792(6) 0.2795(17)
C5_3 C 0.8612(7) 0.6598(6) 0.3458(17)
C6_3 C 0.8861(7) 0.7381(6) 0.3195(17)
H9_3 H 0.9500 0.7516 0.3055
C7_3 C 0.8154(7) 0.7961(6) 0.3142(17)
C8_3 C 0.7205(7) 0.7748(6) 0.3373(16)
H10_3 H 0.6734 0.8134 0.3364
C9_3 C 0.6941(7) 0.6968(6) 0.3618(16)
C10_3 C 0.7662(7) 0.6403(7) 0.3658(17)
H11_3 H 0.7498 0.5882 0.3823
C11_3 C 0.2986(8) 0.5996(6) 0.4129(18)
C12_3 C 0.3989(7) 0.6293(6) 0.4068(16)
C13_3 C 0.4705(8) 0.5946(6) 0.5087(17)
H12_3 H 0.4538 0.5554 0.5862
C14_4 C 0.5664(7) 0.6158(6) 0.5000(16)
H13_3 H 0.6133 0.5915 0.5702
C15_3 C 0.5907(7) 0.6752(6) 0.3819(16)
C16_3 C 0.5191(7) 0.7127(6) 0.2834(17)
H14_3 H 0.5349 0.7539 0.2105
C17_3 C 0.4245(7) 0.6892(7) 0.2930(17)
H15_3 H 0.3775 0.7134 0.2231
O1_4 O 0.0862(6) 0.0284(5) 0.1247(16)
C3_4 C 0.0639(8) 0.0977(7) 0.1511(18)
C4_4 C 0.1601(7) 0.3792(6) 0.2205(17)
C5_4 C 0.1388(7) 0.1598(6) 0.1542(17)
C6_4 C 0.1139(7) 0.2381(6) 0.1805(17)
H9_4 H 0.0500 0.2516 0.1945
C7_4 C 0.1846(7) 0.2961(6) 0.1858(17)
C8_4 C 0.2795(7) 0.2748(6) 0.1627(16)
H10_4 H 0.3266 0.3134 0.1636
C9_4 C 0.3059(7) 0.1968(6) 0.1382(16)
C10_4 C 0.2338(7) 0.1403(7) 0.1342(17)
H11_4 H 0.2502 0.0882 0.1177
C11_4 C 0.7014(8) 0.0996(6) 0.0871(18)
C12_4 C 0.6011(7) 0.1293(6) 0.0932(16)
C14_5 C 0.4336(7) 0.1158(6) -0.0000(16)
C15_4 C 0.4093(7) 0.1752(6) 0.1181(16)
C16_4 C 0.4809(7) 0.2127(6) 0.2166(17)
H14_4 H 0.4651 0.2539 0.2895
C17_4 C 0.5755(7) 0.1892(7) 0.2070(17)
H15_4 H 0.6225 0.2134 0.2769
C13_4 C 0.5295(8) 0.0946(6) 0.9913(17)
H12_4 H 0.5462 0.0554 0.9138
C14_6 C 0.4336(7) 0.1158(6) 1.0000(16)
H13_4 H 0.3867 0.0915 0.9298
loop_
_geom_bond_atom_site_label_1
_geom_bond_atom_site_label_2
_geom_bond_site_symmetry_1
_geom_bond_site_symmetry_2
N1 H1 1_555 1_555
H2 N1 1_555 1_555
C1 N1 1_555 1_555
H3 C1 1_555 1_555
H4 C1 1_555 1_555
H5 C1 1_555 1_555
C2 N1 1_555 1_555
H7 C2 1_555 1_555
H8 C2 1_555 1_555
N1_2 H1_2 1_555 1_555
H2_2 N1_2 1_555 1_555
C1_2 N1_2 1_555 1_555
H3_2 C1_2 1_555 1_555
H4_2 C1_2 1_555 1_555
H5_2 C1_2 1_555 1_555
C2_2 N1_2 1_555 1_555
H6_2 C2_2 1_555 1_555
H7_2 C2_2 1_555 1_555
H8_2 C2_2 1_555 1_555
N1_3 H1_3 1_555 1_555
H2_3 N1_3 1_555 1_555
C1_3 N1_3 1_555 1_555
H3_3 C1_3 1_555 1_555
H4_3 C1_3 1_555 1_555
H5_3 C1_3 1_555 1_555
C2_3 N1_3 1_555 1_555
H7_3 C2_3 1_555 1_555
H8_3 C2_3 1_555 1_555
N1_4 H1_4 1_555 1_555
H2_4 N1_4 1_555 1_555
C1_4 N1_4 1_555 1_555
H3_4 C1_4 1_555 1_555
H4_4 C1_4 1_555 1_555
H5_4 C1_4 1_555 1_555
C2_4 N1_4 1_555 1_555
H6_4 C2_4 1_555 1_555
H7_4 C2_4 1_555 1_555
H8_4 C2_4 1_555 1_555
Cd1 O1 1_555 1_555
O1 C3 1_555 1_555
O3 C4 1_555 1_555
O4 C4 1_555 1_555
O5 C11 1_555 1_555
O6 C11 1_555 1_555
C3 C5 1_555 1_555
C4 C7 1_555 1_555
C5 C6 1_555 1_555
C6 H9 1_555 1_555
C7 C6 1_555 1_555
C8 C7 1_555 1_555
H10 C8 1_555 1_555
C9 C8 1_555 1_555
C10 C5 1_555 1_555
H11 C10 1_555 1_555
C11 C12 1_555 1_555
C12 C13 1_555 1_555
C13 H12 1_555 1_555
C14 C13 1_555 1_555
H13 C14 1_555 1_555
C15 C9 1_555 1_555
C16 C15 1_555 1_555
H14 C16 1_555 1_555
C17 C12 1_555 1_555
H15 C17 1_555 1_555
Cd3 O5 1_555 1_555
O7 Cd1 1_555 1_555
O8 Cd1 1_555 1_555
O9 Cd1 1_555 1_555
O10 Cd1 1_555 1_555
O11 Cd1 1_555 1_555
O6 Cd3 1_555 1_555
C9 C10 1_555 1_555
C14 C15 1_555 1_555
C16 C17 1_555 1_555
Cd3 O2 1_555 1_555
Cd4 O2_2 1_555 1_555
O7_2 Cd1_2 1_555 1_555
O10_2 Cd1_2 1_555 1_555
C13_2 H12_2 1_555 1_555
C14_2 C13_2 1_555 1_555
H13_2 C14_2 1_555 1_555
O1_2 C3_2 1_555 1_555
O3_2 C4_2 1_555 1_555
O4_2 C4_2 1_555 1_555
O5_2 C11_2 1_555 1_555
C3_2 C5_2 1_555 1_555
C4_2 C7_2 1_555 1_555
C5_2 C6_2 1_555 1_555
C6_2 H9_2 1_555 1_555
C7_2 C6_2 1_555 1_555
C8_2 C7_2 1_555 1_555
H10_2 C8_2 1_555 1_555
C9_2 C8_2 1_555 1_555
C10_2 C5_2 1_555 1_555
H11_2 C10_2 1_555 1_555
C11_2 C12_2 1_555 1_555
C15_2 C9_2 1_555 1_555
C16_2 C15_2 1_555 1_555
H14_2 C16_2 1_555 1_555
C17_2 C12_2 1_555 1_555
H15_2 C17_2 1_555 1_555
Cd4 O5_2 1_555 1_555
Cd3 O3_2 1_555 1_555
O4_2 Cd3 1_555 1_555
C9_2 C10_2 1_555 1_555
C14_3 C15_2 1_555 1_555
C16_2 C17_2 1_555 1_555
Cd3 O1_3 1_555 1_555
O1_3 C3_3 1_555 1_555
O8_2 C4_3 1_555 1_555
O9_2 C4_3 1_555 1_555
O10 C11_3 1_555 1_555
O11 C11_3 1_555 1_555
C3_3 C5_3 1_555 1_555
C4_3 C7_3 1_555 1_555
C5_3 C6_3 1_555 1_555
C6_3 H9_3 1_555 1_555
C7_3 C6_3 1_555 1_555
C8_3 C7_3 1_555 1_555
H10_3 C8_3 1_555 1_555
C9_3 C8_3 1_555 1_555
C10_3 C5_3 1_555 1_555
H11_3 C10_3 1_555 1_555
C11_3 C12_3 1_555 1_555
C12_3 C13_3 1_555 1_555
C13_3 H12_3 1_555 1_555
C14_4 C13_3 1_555 1_555
H13_3 C14_4 1_555 1_555
C15_3 C9_3 1_555 1_555
C16_3 C15_3 1_555 1_555
H14_3 C16_3 1_555 1_555
C17_3 C12_3 1_555 1_555
H15_3 C17_3 1_555 1_555
C9_3 C10_3 1_555 1_555
C14_4 C15_3 1_555 1_555
C16_3 C17_3 1_555 1_555
O1_4 C3_4 1_555 1_555
O8 C4_4 1_555 1_555
O9 C4_4 1_555 1_555
O10_2 C11_4 1_555 1_555
C3_4 C5_4 1_555 1_555
C4_4 C7_4 1_555 1_555
C5_4 C6_4 1_555 1_555
C6_4 H9_4 1_555 1_555
C7_4 C6_4 1_555 1_555
C8_4 C7_4 1_555 1_555
H10_4 C8_4 1_555 1_555
C9_4 C8_4 1_555 1_555
C10_4 C5_4 1_555 1_555
H11_4 C10_4 1_555 1_555
C11_4 C12_4 1_555 1_555
C15_4 C9_4 1_555 1_555
C16_4 C15_4 1_555 1_555
H14_4 C16_4 1_555 1_555
C17_4 C12_4 1_555 1_555
H15_4 C17_4 1_555 1_555
C9_4 C10_4 1_555 1_555
C14_5 C15_4 1_555 1_555
C16_4 C17_4 1_555 1_555
C13_4 H12_4 1_555 1_555
C14_6 C13_4 1_555 1_555
H13_4 C14_6 1_555 1_555

#END
