
###############################################################################
#
# This file contains modified crystal structure data generated from the
# MOF subset of the Cambridge Structural Database (CSD) v543 
# hosted by the Cambridge Crystallographic Data Centre (CCDC).
#
# This work is licensed under the Creative Commons
# Attribution-NonCommercial-ShareAlike 4.0 International License.
# To view a copy of this license, visit
# http://creativecommons.org/licenses/by-nc-sa/4.0/
# or send a letter to
# Creative Commons, PO Box 1866, Mountain View, CA 94042, USA.
#
# CIF created using the CSD Python API on 29 September 2022
# The structure has been converted into the P1 space group
# The structure has a 3D framework
# The original CSD entry YICPEI is in the monoclinic crystal system
# The framework has been calculated to contain at least 10.0% void space
# The void calculation uses a probe of radius 1.32A, grid spacing 0.4
# The framework is charged, counterions have been retained in the structure
#
###############################################################################

data_YICPEI
_chemical_formula_moiety         '(C352 H192 In8 N16 O64 8-)n'
_symmetry_cell_setting           triclinic
_symmetry_space_group_name_H-M   'P 1'
_symmetry_Int_Tables_number      1
_space_group_name_Hall           'P 1'
loop_
_symmetry_equiv_pos_site_id
_symmetry_equiv_pos_as_xyz
1 x,y,z
_cell_length_a                   19.3403(9)
_cell_length_b                   27.6449(6)
_cell_length_c                   36.2362(6)
_cell_angle_alpha                90
_cell_angle_beta                 94.606(3)
_cell_angle_gamma                90
_cell_volume                     19311.5
loop_
_atom_site_label
_atom_site_type_symbol
_atom_site_fract_x
_atom_site_fract_y
_atom_site_fract_z
In1 In 0.118466(18) 0.481581(9) 0.102393(7)
O1 O 0.0460(2) 0.40547(12) 0.09420(9)
O2 O 0.05992(19) 0.45071(10) 0.14414(8)
O3 O 0.04927(19) 0.48824(10) 0.55844(9)
O4 O 0.0436(2) 0.44701(12) 0.60983(9)
C1 C 0.0353(3) 0.41291(15) 0.12694(13)
C29 C 0.0288(3) 0.45160(17) 0.57564(13)
In3 In 0.118466(18) 0.518419(9) 0.602393(7)
O9 O 0.04927(19) 0.51176(10) 0.05844(9)
O10 O 0.0436(2) 0.55299(12) 0.10983(9)
O11 O 0.1997(2) 0.41609(12) 0.10944(9)
O12 O 0.17283(18) 0.45250(9) 0.05759(8)
O13 O 0.1772(2) 0.51371(10) 0.15028(9)
O14 O 0.1933(2) 0.54920(13) 0.09801(9)
O5 O 0.6997(2) 0.08391(12) 0.60944(9)
O6 O 0.67283(18) 0.04750(9) 0.55759(8)
O7 O 0.6772(2) 0.01371(10) 0.15028(9)
O8 O 0.6933(2) 0.04920(13) 0.09801(9)
N1 N 0.8669(3) 0.23812(15) 0.19650(11)
N2 N 0.8655(2) 0.26272(12) 0.50932(10)
C2 C 0.9952(3) 0.37883(15) 0.14871(12)
C3 C 0.9819(3) 0.38962(16) 0.18469(13)
H1 H 0.9963 0.4199 0.1950
C4 C 0.7019(3) 0.04778(19) 0.13270(15)
C5 C 0.9481(3) 0.35727(17) 0.20584(13)
H2 H 0.9382 0.3658 0.2303
C6 C 0.9284(3) 0.31209(17) 0.19169(12)
C7 C 0.9432(4) 0.30073(18) 0.15529(13)
H3 H 0.9310 0.2698 0.1453
C8 C 0.9751(3) 0.33394(18) 0.13406(13)
H4 H 0.9835 0.3262 0.1093
C9 C 0.8951(3) 0.27525(17) 0.21453(13)
C10 C 0.8963(4) 0.28044(18) 0.25294(13)
H5 H 0.9173 0.3079 0.2649
C11 C 0.8660(4) 0.24455(19) 0.27330(13)
C12 C 0.8353(4) 0.2068(2) 0.25410(14)
H6 H 0.8125 0.1824 0.2670
C13 C 0.8369(3) 0.20368(19) 0.21611(13)
C14 C 0.8667(4) 0.24886(19) 0.31430(13)
C15 C 0.8603(4) 0.29364(18) 0.33122(13)
H7 H 0.8565 0.3221 0.3165
C16 C 0.8593(4) 0.29706(17) 0.36981(13)
H8 H 0.8546 0.3278 0.3811
C17 C 0.8652(3) 0.25559(17) 0.39159(12)
C18 C 0.8709(4) 0.21000(18) 0.37450(14)
H9 H 0.8755 0.1814 0.3891
C19 C 0.8695(4) 0.20741(19) 0.33610(14)
H10 H 0.8706 0.1766 0.3245
C20 C 0.8662(3) 0.25792(16) 0.43243(12)
C21 C 0.8931(3) 0.29762(16) 0.45189(12)
H11 H 0.9121 0.3240 0.4393
C22 C 0.8919(3) 0.29849(15) 0.49019(12)
C23 C 0.8388(3) 0.22444(15) 0.49083(12)
C24 C 0.8376(3) 0.22108(16) 0.45240(12)
H12 H 0.8172 0.1937 0.4399
C25 C 0.9239(3) 0.33977(14) 0.51260(11)
C26 C 0.9412(3) 0.38288(15) 0.49634(12)
H13 H 0.9308 0.3873 0.4705
C27 C 0.9730(3) 0.41949(15) 0.51692(12)
H14 H 0.9837 0.4490 0.5052
C28 C 0.9896(3) 0.41406(15) 0.55403(12)
C30 C 0.9697(3) 0.37085(19) 0.57067(12)
H15 H 0.9785 0.3669 0.5967
C31 C 0.9385(3) 0.33502(17) 0.55064(12)
H16 H 0.9262 0.3060 0.5626
C32 C 0.8068(3) 0.18579(15) 0.51298(12)
C33 C 0.8073(3) 0.19072(19) 0.55092(13)
H17 H 0.8294 0.2179 0.5628
C34 C 0.7760(3) 0.15629(18) 0.57183(13)
H18 H 0.7762 0.1603 0.5979
C35 C 0.7445(3) 0.11640(15) 0.55510(12)
C36 C 0.7454(3) 0.11123(17) 0.51721(14)
H19 H 0.7252 0.0834 0.5054
C37 C 0.7755(3) 0.14645(17) 0.49621(13)
H20 H 0.7743 0.1431 0.4701
C38 C 0.7037(3) 0.08124(15) 0.57534(13)
C39 C 0.8037(4) 0.1627(2) 0.19455(14)
C40 C 0.7783(4) 0.1227(2) 0.21158(15)
H21 H 0.7830 0.1207 0.2378
C41 C 0.7462(4) 0.0856(2) 0.19174(15)
H22 H 0.7280 0.0590 0.2044
C42 C 0.7404(3) 0.08667(18) 0.15355(14)
C43 C 0.7689(4) 0.1246(2) 0.13594(15)
H23 H 0.7683 0.1246 0.1097
C44 C 0.7988(4) 0.1633(2) 0.15630(15)
H24 H 0.8160 0.1903 0.1437
In4 In 0.618466(18) 0.018419(9) 0.602393(7)
In2 In 0.618466(18) 0.981581(9) 0.102393(7)
O9_2 O 0.54927(19) 0.01176(10) 0.05844(9)
O10_2 O 0.5436(2) 0.05299(12) 0.10983(9)
O1_2 O 0.5460(2) 0.90547(12) 0.09420(9)
O2_2 O 0.55992(19) 0.95071(10) 0.14414(8)
O3_2 O 0.54927(19) 0.98824(10) 0.55844(9)
O4_2 O 0.5436(2) 0.94701(12) 0.60983(9)
O5_2 O 0.1997(2) 0.58391(12) 0.60944(9)
O6_2 O 0.17283(18) 0.54750(9) 0.55759(8)
N1_2 N 0.3669(3) 0.73812(15) 0.19650(11)
N2_2 N 0.3655(2) 0.76272(12) 0.50932(10)
C1_2 C 0.5353(3) 0.91291(15) 0.12694(13)
C2_2 C 0.4952(3) 0.87883(15) 0.14871(12)
C3_2 C 0.4819(3) 0.88962(16) 0.18469(13)
H1_2 H 0.4963 0.9199 0.1950
C4_2 C 0.2019(3) 0.54778(19) 0.13270(15)
C5_2 C 0.4481(3) 0.85727(17) 0.20584(13)
H2_2 H 0.4382 0.8658 0.2303
C6_2 C 0.4284(3) 0.81209(17) 0.19169(12)
C7_2 C 0.4432(4) 0.80073(18) 0.15529(13)
H3_2 H 0.4310 0.7698 0.1453
C8_2 C 0.4751(3) 0.83394(18) 0.13406(13)
H4_2 H 0.4835 0.8262 0.1093
C9_2 C 0.3951(3) 0.77525(17) 0.21453(13)
C10_2 C 0.3963(4) 0.78044(18) 0.25294(13)
H5_2 H 0.4173 0.8079 0.2649
C11_2 C 0.3660(4) 0.74455(19) 0.27330(13)
C12_2 C 0.3353(4) 0.7068(2) 0.25410(14)
H6_2 H 0.3125 0.6824 0.2670
C13_2 C 0.3369(3) 0.70368(19) 0.21611(13)
C14_2 C 0.3667(4) 0.74886(19) 0.31430(13)
C15_2 C 0.3603(4) 0.79364(18) 0.33122(13)
H7_2 H 0.3565 0.8221 0.3165
C16_2 C 0.3593(4) 0.79706(17) 0.36981(13)
H8_2 H 0.3546 0.8278 0.3811
C17_2 C 0.3652(3) 0.75559(17) 0.39159(12)
C18_2 C 0.3709(4) 0.71000(18) 0.37450(14)
H9_2 H 0.3755 0.6814 0.3891
C19_2 C 0.3695(4) 0.70741(19) 0.33610(14)
H10_2 H 0.3706 0.6766 0.3245
C20_2 C 0.3662(3) 0.75792(16) 0.43243(12)
C21_2 C 0.3931(3) 0.79762(16) 0.45189(12)
H11_2 H 0.4121 0.8240 0.4393
C22_2 C 0.3919(3) 0.79849(15) 0.49019(12)
C23_2 C 0.3388(3) 0.72444(15) 0.49083(12)
C24_2 C 0.3376(3) 0.72108(16) 0.45240(12)
H12_2 H 0.3172 0.6937 0.4399
C25_2 C 0.4239(3) 0.83977(14) 0.51260(11)
C26_2 C 0.4412(3) 0.88288(15) 0.49634(12)
H13_2 H 0.4308 0.8873 0.4705
C27_2 C 0.4730(3) 0.91949(15) 0.51692(12)
H14_2 H 0.4837 0.9490 0.5052
C28_2 C 0.4896(3) 0.91406(15) 0.55403(12)
C29_2 C 0.5288(3) 0.95160(17) 0.57564(13)
C30_2 C 0.4697(3) 0.87085(19) 0.57067(12)
H15_2 H 0.4785 0.8669 0.5967
C31_2 C 0.4385(3) 0.83502(17) 0.55064(12)
H16_2 H 0.4262 0.8060 0.5626
C32_2 C 0.3068(3) 0.68579(15) 0.51298(12)
C33_2 C 0.3073(3) 0.69072(19) 0.55092(13)
H17_2 H 0.3294 0.7179 0.5628
C34_2 C 0.2760(3) 0.65629(18) 0.57183(13)
H18_2 H 0.2762 0.6603 0.5979
C35_2 C 0.2445(3) 0.61640(15) 0.55510(12)
C36_2 C 0.2454(3) 0.61123(17) 0.51721(14)
H19_2 H 0.2252 0.5834 0.5054
C37_2 C 0.2755(3) 0.64645(17) 0.49621(13)
H20_2 H 0.2743 0.6431 0.4701
C38_2 C 0.2037(3) 0.58124(15) 0.57534(13)
C39_2 C 0.3037(4) 0.6627(2) 0.19455(14)
C40_2 C 0.2783(4) 0.6227(2) 0.21158(15)
H21_2 H 0.2830 0.6207 0.2378
C41_2 C 0.2462(4) 0.5856(2) 0.19174(15)
H22_2 H 0.2280 0.5590 0.2044
C42_2 C 0.2404(3) 0.58667(18) 0.15355(14)
C43_2 C 0.2689(4) 0.6246(2) 0.13594(15)
H23_2 H 0.2683 0.6246 0.1097
C44_2 C 0.2988(4) 0.6633(2) 0.15630(15)
H24_2 H 0.3160 0.6903 0.1437
O11_2 O 0.6997(2) 0.91609(12) 0.10944(9)
O12_2 O 0.67283(18) 0.95250(9) 0.05759(8)
C29_3 C 0.0288(3) 0.54840(17) 0.07564(13)
O1_3 O 0.0460(2) 0.59453(12) 0.59420(9)
O2_3 O 0.05992(19) 0.54929(10) 0.64414(8)
C1_3 C 0.0353(3) 0.58709(15) 0.62694(13)
O13_2 O 0.1772(2) 0.48629(10) 0.65028(9)
O14_2 O 0.1933(2) 0.45080(13) 0.59801(9)
N2_3 N 0.8655(2) 0.73728(12) 0.00932(10)
C25_3 C 0.9239(3) 0.66023(14) 0.01260(11)
C27_3 C 0.9730(3) 0.58051(15) 0.01692(12)
H14_3 H 0.9837 0.5510 0.0052
C28_3 C 0.9896(3) 0.58594(15) 0.05403(12)
C30_3 C 0.9697(3) 0.62915(19) 0.07067(12)
H15_3 H 0.9785 0.6331 0.0967
C31_3 C 0.9385(3) 0.66498(17) 0.05064(12)
H16_3 H 0.9262 0.6940 0.0626
C32_3 C 0.8068(3) 0.81421(15) 0.01298(12)
C33_3 C 0.8073(3) 0.80928(19) 0.05092(13)
H17_3 H 0.8294 0.7821 0.0628
C34_3 C 0.7760(3) 0.84371(18) 0.07183(13)
H18_3 H 0.7762 0.8397 0.0979
C35_3 C 0.7445(3) 0.88360(15) 0.05510(12)
C36_3 C 0.7454(3) 0.88877(17) 0.01721(14)
H19_3 H 0.7252 0.9166 0.0054
C38_3 C 0.7037(3) 0.91876(15) 0.07534(13)
O7_2 O 0.6772(2) 0.98629(10) 0.65028(9)
O8_2 O 0.6933(2) 0.95080(13) 0.59801(9)
N1_3 N 0.8669(3) 0.76188(15) 0.69650(11)
C2_3 C 0.9952(3) 0.62117(15) 0.64871(12)
C3_3 C 0.9819(3) 0.61038(16) 0.68469(13)
H1_3 H 0.9963 0.5801 0.6950
C4_3 C 0.7019(3) 0.95222(19) 0.63270(15)
C5_3 C 0.9481(3) 0.64273(17) 0.70584(13)
H2_3 H 0.9382 0.6342 0.7303
C6_3 C 0.9284(3) 0.68791(17) 0.69169(12)
C7_3 C 0.9432(4) 0.69927(18) 0.65529(13)
H3_3 H 0.9310 0.7302 0.6453
C8_3 C 0.9751(3) 0.66606(18) 0.63406(13)
H4_3 H 0.9835 0.6738 0.6093
C9_3 C 0.8951(3) 0.72475(17) 0.71453(13)
C10_3 C 0.8963(4) 0.71956(18) 0.75294(13)
H5_3 H 0.9173 0.6921 0.7649
C11_3 C 0.8660(4) 0.75545(19) 0.77330(13)
C12_3 C 0.8353(4) 0.7932(2) 0.75410(14)
H6_3 H 0.8125 0.8176 0.7670
C13_3 C 0.8369(3) 0.79632(19) 0.71611(13)
C14_3 C 0.8667(4) 0.75114(19) 0.81430(13)
C15_3 C 0.8603(4) 0.70636(18) 0.83122(13)
H7_3 H 0.8565 0.6779 0.8165
C16_3 C 0.8593(4) 0.70294(17) 0.86981(13)
H8_3 H 0.8546 0.6722 0.8811
C17_3 C 0.8652(3) 0.74441(17) 0.89159(12)
C18_3 C 0.8709(4) 0.79000(18) 0.87450(14)
H9_3 H 0.8755 0.8186 0.8891
C19_3 C 0.8695(4) 0.79259(19) 0.83610(14)
H10_3 H 0.8706 0.8234 0.8245
C20_3 C 0.8662(3) 0.74208(16) 0.93243(12)
C21_3 C 0.8931(3) 0.70238(16) 0.95189(12)
H11_3 H 0.9121 0.6760 0.9393
C22_3 C 0.8919(3) 0.70151(15) 0.99019(12)
C23_3 C 0.8388(3) 0.77556(15) 0.99083(12)
C24_3 C 0.8376(3) 0.77892(16) 0.95240(12)
H12_3 H 0.8172 0.8063 0.9399
C26_3 C 0.9412(3) 0.61712(15) 0.99634(12)
H13_3 H 0.9308 0.6127 0.9705
C37_3 C 0.7755(3) 0.85355(17) 0.99621(13)
H20_3 H 0.7743 0.8569 0.9701
C39_3 C 0.8037(4) 0.8373(2) 0.69455(14)
C40_3 C 0.7783(4) 0.8773(2) 0.71158(15)
H21_3 H 0.7830 0.8793 0.7378
C41_3 C 0.7462(4) 0.9144(2) 0.69174(15)
H22_3 H 0.7280 0.9410 0.7044
C42_3 C 0.7404(3) 0.91333(18) 0.65355(14)
C43_3 C 0.7689(4) 0.8754(2) 0.63594(15)
H23_3 H 0.7683 0.8754 0.6097
C44_3 C 0.7988(4) 0.8367(2) 0.65630(15)
H24_3 H 0.8160 0.8097 0.6437
N2_4 N 0.3655(2) 0.23728(12) 0.00932(10)
C25_4 C 0.4239(3) 0.16023(14) 0.01260(11)
C27_4 C 0.4730(3) 0.08051(15) 0.01692(12)
H14_4 H 0.4837 0.0510 0.0052
C28_4 C 0.4896(3) 0.08594(15) 0.05403(12)
C29_4 C 0.5288(3) 0.04840(17) 0.07564(13)
C30_4 C 0.4697(3) 0.12915(19) 0.07067(12)
H15_4 H 0.4785 0.1331 0.0967
C31_4 C 0.4385(3) 0.16498(17) 0.05064(12)
H16_4 H 0.4262 0.1940 0.0626
C32_4 C 0.3068(3) 0.31421(15) 0.01298(12)
C33_4 C 0.3073(3) 0.30928(19) 0.05092(13)
H17_4 H 0.3294 0.2821 0.0628
C34_4 C 0.2760(3) 0.34371(18) 0.07183(13)
H18_4 H 0.2762 0.3397 0.0979
C35_4 C 0.2445(3) 0.38360(15) 0.05510(12)
C36_4 C 0.2454(3) 0.38877(17) 0.01721(14)
H19_4 H 0.2252 0.4166 0.0054
C38_4 C 0.2037(3) 0.41876(15) 0.07534(13)
O1_4 O 0.5460(2) 0.09453(12) 0.59420(9)
O2_4 O 0.55992(19) 0.04929(10) 0.64414(8)
N1_4 N 0.3669(3) 0.26188(15) 0.69650(11)
C1_4 C 0.5353(3) 0.08709(15) 0.62694(13)
C2_4 C 0.4952(3) 0.12117(15) 0.64871(12)
C3_4 C 0.4819(3) 0.11038(16) 0.68469(13)
H1_4 H 0.4963 0.0801 0.6950
C4_4 C 0.2019(3) 0.45222(19) 0.63270(15)
C5_4 C 0.4481(3) 0.14273(17) 0.70584(13)
H2_4 H 0.4382 0.1342 0.7303
C6_4 C 0.4284(3) 0.18791(17) 0.69169(12)
C7_4 C 0.4432(4) 0.19927(18) 0.65529(13)
H3_4 H 0.4310 0.2302 0.6453
C8_4 C 0.4751(3) 0.16606(18) 0.63406(13)
H4_4 H 0.4835 0.1738 0.6093
C9_4 C 0.3951(3) 0.22475(17) 0.71453(13)
C10_4 C 0.3963(4) 0.21956(18) 0.75294(13)
H5_4 H 0.4173 0.1921 0.7649
C11_4 C 0.3660(4) 0.25545(19) 0.77330(13)
C12_4 C 0.3353(4) 0.2932(2) 0.75410(14)
H6_4 H 0.3125 0.3176 0.7670
C13_4 C 0.3369(3) 0.29632(19) 0.71611(13)
C14_4 C 0.3667(4) 0.25114(19) 0.81430(13)
C15_4 C 0.3603(4) 0.20636(18) 0.83122(13)
H7_4 H 0.3565 0.1779 0.8165
C16_4 C 0.3593(4) 0.20294(17) 0.86981(13)
H8_4 H 0.3546 0.1722 0.8811
C17_4 C 0.3652(3) 0.24441(17) 0.89159(12)
C18_4 C 0.3709(4) 0.29000(18) 0.87450(14)
H9_4 H 0.3755 0.3186 0.8891
C19_4 C 0.3695(4) 0.29259(19) 0.83610(14)
H10_4 H 0.3706 0.3234 0.8245
C20_4 C 0.3662(3) 0.24208(16) 0.93243(12)
C21_4 C 0.3931(3) 0.20238(16) 0.95189(12)
H11_4 H 0.4121 0.1760 0.9393
C22_4 C 0.3919(3) 0.20151(15) 0.99019(12)
C23_4 C 0.3388(3) 0.27556(15) 0.99083(12)
C24_4 C 0.3376(3) 0.27892(16) 0.95240(12)
H12_4 H 0.3172 0.3063 0.9399
C26_4 C 0.4412(3) 0.11712(15) 0.99634(12)
H13_4 H 0.4308 0.1127 0.9705
C37_4 C 0.2755(3) 0.35355(17) 0.99621(13)
H20_4 H 0.2743 0.3569 0.9701
C39_4 C 0.3037(4) 0.3373(2) 0.69455(14)
C40_4 C 0.2783(4) 0.3773(2) 0.71158(15)
H21_4 H 0.2830 0.3793 0.7378
C41_4 C 0.2462(4) 0.4144(2) 0.69174(15)
H22_4 H 0.2280 0.4410 0.7044
C42_4 C 0.2404(3) 0.41333(18) 0.65355(14)
C43_4 C 0.2689(4) 0.3754(2) 0.63594(15)
H23_4 H 0.2683 0.3754 0.6097
C44_4 C 0.2988(4) 0.3367(2) 0.65630(15)
H24_4 H 0.3160 0.3097 0.6437
O7_3 O 0.3228(2) 0.01371(10) 0.34972(9)
O8_3 O 0.3067(2) 0.04920(13) 0.40199(9)
N1_5 N 0.1331(3) 0.23812(15) 0.30350(11)
C2_5 C 0.0048(3) 0.37883(15) 0.35129(12)
C3_5 C 0.0181(3) 0.38962(16) 0.31531(13)
H1_5 H 0.0037 0.4199 0.3050
C4_5 C 0.2981(3) 0.04778(19) 0.36730(15)
C5_5 C 0.0519(3) 0.35727(17) 0.29416(13)
H2_5 H 0.0618 0.3658 0.2697
C6_5 C 0.0716(3) 0.31209(17) 0.30831(12)
C7_5 C 0.0568(4) 0.30073(18) 0.34471(13)
H3_5 H 0.0690 0.2698 0.3547
C8_5 C 0.0249(3) 0.33394(18) 0.36594(13)
H4_5 H 0.0165 0.3262 0.3907
C9_5 C 0.1049(3) 0.27525(17) 0.28547(13)
C10_5 C 0.1037(4) 0.28044(18) 0.24706(13)
H5_5 H 0.0827 0.3079 0.2351
C11_5 C 0.1340(4) 0.24455(19) 0.22670(13)
C12_5 C 0.1647(4) 0.2068(2) 0.24590(14)
H6_5 H 0.1875 0.1824 0.2330
C13_5 C 0.1631(3) 0.20368(19) 0.28389(13)
C14_5 C 0.1333(4) 0.24886(19) 0.18570(13)
C15_5 C 0.1397(4) 0.29364(18) 0.16878(13)
H7_5 H 0.1435 0.3221 0.1835
C16_5 C 0.1407(4) 0.29706(17) 0.13019(13)
H8_5 H 0.1454 0.3278 0.1189
C17_5 C 0.1348(3) 0.25559(17) 0.10841(12)
C18_5 C 0.1291(4) 0.21000(18) 0.12550(14)
H9_5 H 0.1245 0.1814 0.1109
C19_5 C 0.1305(4) 0.20741(19) 0.16390(14)
H10_5 H 0.1294 0.1766 0.1755
C20_5 C 0.1338(3) 0.25792(16) 0.06757(12)
C21_5 C 0.1069(3) 0.29762(16) 0.04811(12)
H11_5 H 0.0879 0.3240 0.0607
C22_5 C 0.1081(3) 0.29849(15) 0.00981(12)
C23_5 C 0.1612(3) 0.22444(15) 0.00917(12)
C24_5 C 0.1624(3) 0.22108(16) 0.04760(12)
H12_5 H 0.1828 0.1937 0.0601
C26_5 C 0.0588(3) 0.38288(15) 0.00366(12)
H13_5 H 0.0692 0.3873 0.0295
C37_5 C 0.2245(3) 0.14645(17) 0.00379(13)
H20_5 H 0.2257 0.1431 0.0299
C39_5 C 0.1963(4) 0.1627(2) 0.30545(14)
C40_5 C 0.2217(4) 0.1227(2) 0.28842(15)
H21_5 H 0.2170 0.1207 0.2622
C41_5 C 0.2538(4) 0.0856(2) 0.30826(15)
H22_5 H 0.2720 0.0590 0.2956
C42_5 C 0.2596(3) 0.08667(18) 0.34645(14)
C43_5 C 0.2311(4) 0.1246(2) 0.36406(15)
H23_5 H 0.2317 0.1246 0.3903
C44_5 C 0.2012(4) 0.1633(2) 0.34370(15)
H24_5 H 0.1840 0.1903 0.3563
O5_3 O 0.3003(2) 0.08391(12) 0.89056(9)
O6_3 O 0.32717(18) 0.04750(9) 0.94241(8)
N2_5 N 0.1345(2) 0.26272(12) 0.99068(10)
C25_5 C 0.0761(3) 0.33977(14) 0.98740(11)
C27_5 C 0.0270(3) 0.41949(15) 0.98308(12)
H14_5 H 0.0163 0.4490 0.9948
C28_5 C 0.0104(3) 0.41406(15) 0.94597(12)
C30_5 C 0.0303(3) 0.37085(19) 0.92933(12)
H15_5 H 0.0215 0.3669 0.9033
C31_5 C 0.0615(3) 0.33502(17) 0.94936(12)
H16_5 H 0.0738 0.3060 0.9374
C32_5 C 0.1932(3) 0.18579(15) 0.98702(12)
C33_5 C 0.1927(3) 0.19072(19) 0.94908(13)
H17_5 H 0.1706 0.2179 0.9372
C34_5 C 0.2240(3) 0.15629(18) 0.92817(13)
H18_5 H 0.2238 0.1603 0.9021
C35_5 C 0.2555(3) 0.11640(15) 0.94490(12)
C36_5 C 0.2546(3) 0.11123(17) 0.98279(14)
H19_5 H 0.2748 0.0834 0.9946
C38_5 C 0.2963(3) 0.08124(15) 0.92466(13)
In4_2 In 0.381534(18) 0.018419(9) 0.897607(7)
In2_2 In 0.381534(18) 0.981581(9) 0.397607(7)
In1_2 In 0.881534(18) 0.481581(9) 0.397607(7)
O1_5 O 0.9540(2) 0.40547(12) 0.40580(9)
O2_5 O 0.94008(19) 0.45071(10) 0.35586(8)
C1_5 C 0.9647(3) 0.41291(15) 0.37306(13)
O9_3 O 0.95073(19) 0.51176(10) 0.44156(9)
O10_3 O 0.9564(2) 0.55299(12) 0.39017(9)
O11_3 O 0.8003(2) 0.41609(12) 0.39056(9)
O12_3 O 0.82717(18) 0.45250(9) 0.44241(8)
O13_3 O 0.8228(2) 0.51371(10) 0.34972(9)
O14_3 O 0.8067(2) 0.54920(13) 0.40199(9)
O3_3 O 0.95073(19) 0.48824(10) 0.94156(9)
O4_3 O 0.9564(2) 0.44701(12) 0.89017(9)
C29_5 C 0.9712(3) 0.45160(17) 0.92436(13)
In3_2 In 0.881534(18) 0.518419(9) 0.897607(7)
O9_4 O 0.45073(19) 0.01176(10) 0.44156(9)
O10_4 O 0.4564(2) 0.05299(12) 0.39017(9)
O1_6 O 0.4540(2) 0.90547(12) 0.40580(9)
O2_6 O 0.44008(19) 0.95071(10) 0.35586(8)
N1_6 N 0.6331(3) 0.73812(15) 0.30350(11)
C1_6 C 0.4647(3) 0.91291(15) 0.37306(13)
C2_6 C 0.5048(3) 0.87883(15) 0.35129(12)
C3_6 C 0.5181(3) 0.88962(16) 0.31531(13)
H1_6 H 0.5037 0.9199 0.3050
C4_6 C 0.7981(3) 0.54778(19) 0.36730(15)
C5_6 C 0.5519(3) 0.85727(17) 0.29416(13)
H2_6 H 0.5618 0.8658 0.2697
C6_6 C 0.5716(3) 0.81209(17) 0.30831(12)
C7_6 C 0.5568(4) 0.80073(18) 0.34471(13)
H3_6 H 0.5690 0.7698 0.3547
C8_6 C 0.5249(3) 0.83394(18) 0.36594(13)
H4_6 H 0.5165 0.8262 0.3907
C9_6 C 0.6049(3) 0.77525(17) 0.28547(13)
C10_6 C 0.6037(4) 0.78044(18) 0.24706(13)
H5_6 H 0.5827 0.8079 0.2351
C11_6 C 0.6340(4) 0.74455(19) 0.22670(13)
C12_6 C 0.6647(4) 0.7068(2) 0.24590(14)
H6_6 H 0.6875 0.6824 0.2330
C13_6 C 0.6631(3) 0.70368(19) 0.28389(13)
C14_6 C 0.6333(4) 0.74886(19) 0.18570(13)
C15_6 C 0.6397(4) 0.79364(18) 0.16878(13)
H7_6 H 0.6435 0.8221 0.1835
C16_6 C 0.6407(4) 0.79706(17) 0.13019(13)
H8_6 H 0.6454 0.8278 0.1189
C17_6 C 0.6348(3) 0.75559(17) 0.10841(12)
C18_6 C 0.6291(4) 0.71000(18) 0.12550(14)
H9_6 H 0.6245 0.6814 0.1109
C19_6 C 0.6305(4) 0.70741(19) 0.16390(14)
H10_6 H 0.6294 0.6766 0.1755
C20_6 C 0.6338(3) 0.75792(16) 0.06757(12)
C21_6 C 0.6069(3) 0.79762(16) 0.04811(12)
H11_6 H 0.5879 0.8240 0.0607
C22_6 C 0.6081(3) 0.79849(15) 0.00981(12)
C23_6 C 0.6612(3) 0.72444(15) 0.00917(12)
C24_6 C 0.6624(3) 0.72108(16) 0.04760(12)
H12_6 H 0.6828 0.6937 0.0601
C26_6 C 0.5588(3) 0.88288(15) 0.00366(12)
H13_6 H 0.5692 0.8873 0.0295
C37_6 C 0.7245(3) 0.64645(17) 0.00379(13)
H20_6 H 0.7257 0.6431 0.0299
C39_6 C 0.6963(4) 0.6627(2) 0.30545(14)
C40_6 C 0.7217(4) 0.6227(2) 0.28842(15)
H21_6 H 0.7170 0.6207 0.2622
C41_6 C 0.7538(4) 0.5856(2) 0.30826(15)
H22_6 H 0.7720 0.5590 0.2956
C42_6 C 0.7596(3) 0.58667(18) 0.34645(14)
C43_6 C 0.7311(4) 0.6246(2) 0.36406(15)
H23_6 H 0.7317 0.6246 0.3903
C44_6 C 0.7012(4) 0.6633(2) 0.34370(15)
H24_6 H 0.6840 0.6903 0.3563
O11_4 O 0.3003(2) 0.91609(12) 0.39056(9)
O12_4 O 0.32717(18) 0.95250(9) 0.44241(8)
O3_4 O 0.45073(19) 0.98824(10) 0.94156(9)
O4_4 O 0.4564(2) 0.94701(12) 0.89017(9)
O5_4 O 0.8003(2) 0.58391(12) 0.89056(9)
O6_4 O 0.82717(18) 0.54750(9) 0.94241(8)
N2_6 N 0.6345(2) 0.76272(12) 0.99068(10)
C25_6 C 0.5761(3) 0.83977(14) 0.98740(11)
C27_6 C 0.5270(3) 0.91949(15) 0.98308(12)
H14_6 H 0.5163 0.9490 0.9948
C28_6 C 0.5104(3) 0.91406(15) 0.94597(12)
C29_6 C 0.4712(3) 0.95160(17) 0.92436(13)
C30_6 C 0.5303(3) 0.87085(19) 0.92933(12)
H15_6 H 0.5215 0.8669 0.9033
C31_6 C 0.5615(3) 0.83502(17) 0.94936(12)
H16_6 H 0.5738 0.8060 0.9374
C32_6 C 0.6932(3) 0.68579(15) 0.98702(12)
C33_6 C 0.6927(3) 0.69072(19) 0.94908(13)
H17_6 H 0.6706 0.7179 0.9372
C34_6 C 0.7240(3) 0.65629(18) 0.92817(13)
H18_6 H 0.7238 0.6603 0.9021
C35_6 C 0.7555(3) 0.61640(15) 0.94490(12)
C36_6 C 0.7546(3) 0.61123(17) 0.98279(14)
H19_6 H 0.7748 0.5834 0.9946
C38_6 C 0.7963(3) 0.58124(15) 0.92466(13)
O7_4 O 0.3228(2) 0.98629(10) 0.84972(9)
O8_4 O 0.3067(2) 0.95080(13) 0.90199(9)
N1_7 N 0.1331(3) 0.76188(15) 0.80350(11)
N2_7 N 0.1345(2) 0.73728(12) 0.49068(10)
C2_7 C 0.0048(3) 0.62117(15) 0.85129(12)
C3_7 C 0.0181(3) 0.61038(16) 0.81531(13)
H1_7 H 0.0037 0.5801 0.8050
C4_7 C 0.2981(3) 0.95222(19) 0.86730(15)
C5_7 C 0.0519(3) 0.64273(17) 0.79416(13)
H2_7 H 0.0618 0.6342 0.7697
C6_7 C 0.0716(3) 0.68791(17) 0.80831(12)
C7_7 C 0.0568(4) 0.69927(18) 0.84471(13)
H3_7 H 0.0690 0.7302 0.8547
C8_7 C 0.0249(3) 0.66606(18) 0.86594(13)
H4_7 H 0.0165 0.6738 0.8907
C9_7 C 0.1049(3) 0.72475(17) 0.78547(13)
C10_7 C 0.1037(4) 0.71956(18) 0.74706(13)
H5_7 H 0.0827 0.6921 0.7351
C11_7 C 0.1340(4) 0.75545(19) 0.72670(13)
C12_7 C 0.1647(4) 0.7932(2) 0.74590(14)
H6_7 H 0.1875 0.8176 0.7330
C13_7 C 0.1631(3) 0.79632(19) 0.78389(13)
C14_7 C 0.1333(4) 0.75114(19) 0.68570(13)
C15_7 C 0.1397(4) 0.70636(18) 0.66878(13)
H7_7 H 0.1435 0.6779 0.6835
C16_7 C 0.1407(4) 0.70294(17) 0.63019(13)
H8_7 H 0.1454 0.6722 0.6189
C17_7 C 0.1348(3) 0.74441(17) 0.60841(12)
C18_7 C 0.1291(4) 0.79000(18) 0.62550(14)
H9_7 H 0.1245 0.8186 0.6109
C19_7 C 0.1305(4) 0.79259(19) 0.66390(14)
H10_7 H 0.1294 0.8234 0.6755
C20_7 C 0.1338(3) 0.74208(16) 0.56757(12)
C21_7 C 0.1069(3) 0.70238(16) 0.54811(12)
H11_7 H 0.0879 0.6760 0.5607
C22_7 C 0.1081(3) 0.70151(15) 0.50981(12)
C23_7 C 0.1612(3) 0.77556(15) 0.50917(12)
C24_7 C 0.1624(3) 0.77892(16) 0.54760(12)
H12_7 H 0.1828 0.8063 0.5601
C25_7 C 0.0761(3) 0.66023(14) 0.48740(11)
C26_7 C 0.0588(3) 0.61712(15) 0.50366(12)
H13_7 H 0.0692 0.6127 0.5295
C27_7 C 0.0270(3) 0.58051(15) 0.48308(12)
H14_7 H 0.0163 0.5510 0.4948
C28_7 C 0.0104(3) 0.58594(15) 0.44597(12)
C30_7 C 0.0303(3) 0.62915(19) 0.42933(12)
H15_7 H 0.0215 0.6331 0.4033
C31_7 C 0.0615(3) 0.66498(17) 0.44936(12)
H16_7 H 0.0738 0.6940 0.4374
C32_7 C 0.1932(3) 0.81421(15) 0.48702(12)
C33_7 C 0.1927(3) 0.80928(19) 0.44908(13)
H17_7 H 0.1706 0.7821 0.4372
C34_7 C 0.2240(3) 0.84371(18) 0.42817(13)
H18_7 H 0.2238 0.8397 0.4021
C35_7 C 0.2555(3) 0.88360(15) 0.44490(12)
C36_7 C 0.2546(3) 0.88877(17) 0.48279(14)
H19_7 H 0.2748 0.9166 0.4946
C37_7 C 0.2245(3) 0.85355(17) 0.50379(13)
H20_7 H 0.2257 0.8569 0.5299
C38_7 C 0.2963(3) 0.91876(15) 0.42466(13)
C39_7 C 0.1963(4) 0.8373(2) 0.80545(14)
C40_7 C 0.2217(4) 0.8773(2) 0.78842(15)
H21_7 H 0.2170 0.8793 0.7622
C41_7 C 0.2538(4) 0.9144(2) 0.80826(15)
H22_7 H 0.2720 0.9410 0.7956
C42_7 C 0.2596(3) 0.91333(18) 0.84645(14)
C43_7 C 0.2311(4) 0.8754(2) 0.86406(15)
H23_7 H 0.2317 0.8754 0.8903
C44_7 C 0.2012(4) 0.8367(2) 0.84370(15)
H24_7 H 0.1840 0.8097 0.8563
O1_7 O 0.9540(2) 0.59453(12) 0.90580(9)
O2_7 O 0.94008(19) 0.54929(10) 0.85586(8)
C1_7 C 0.9647(3) 0.58709(15) 0.87306(13)
C29_7 C 0.9712(3) 0.54840(17) 0.42436(13)
O13_4 O 0.8228(2) 0.48629(10) 0.84972(9)
O14_4 O 0.8067(2) 0.45080(13) 0.90199(9)
O1_8 O 0.4540(2) 0.09453(12) 0.90580(9)
O2_8 O 0.44008(19) 0.04929(10) 0.85586(8)
N1_8 N 0.6331(3) 0.26188(15) 0.80350(11)
N2_8 N 0.6345(2) 0.23728(12) 0.49068(10)
C1_8 C 0.4647(3) 0.08709(15) 0.87306(13)
C2_8 C 0.5048(3) 0.12117(15) 0.85129(12)
C3_8 C 0.5181(3) 0.11038(16) 0.81531(13)
H1_8 H 0.5037 0.0801 0.8050
C4_8 C 0.7981(3) 0.45222(19) 0.86730(15)
C5_8 C 0.5519(3) 0.14273(17) 0.79416(13)
H2_8 H 0.5618 0.1342 0.7697
C6_8 C 0.5716(3) 0.18791(17) 0.80831(12)
C7_8 C 0.5568(4) 0.19927(18) 0.84471(13)
H3_8 H 0.5690 0.2302 0.8547
C8_8 C 0.5249(3) 0.16606(18) 0.86594(13)
H4_8 H 0.5165 0.1738 0.8907
C9_8 C 0.6049(3) 0.22475(17) 0.78547(13)
C10_8 C 0.6037(4) 0.21956(18) 0.74706(13)
H5_8 H 0.5827 0.1921 0.7351
C11_8 C 0.6340(4) 0.25545(19) 0.72670(13)
C12_8 C 0.6647(4) 0.2932(2) 0.74590(14)
H6_8 H 0.6875 0.3176 0.7330
C13_8 C 0.6631(3) 0.29632(19) 0.78389(13)
C14_8 C 0.6333(4) 0.25114(19) 0.68570(13)
C15_8 C 0.6397(4) 0.20636(18) 0.66878(13)
H7_8 H 0.6435 0.1779 0.6835
C16_8 C 0.6407(4) 0.20294(17) 0.63019(13)
H8_8 H 0.6454 0.1722 0.6189
C17_8 C 0.6348(3) 0.24441(17) 0.60841(12)
C18_8 C 0.6291(4) 0.29000(18) 0.62550(14)
H9_8 H 0.6245 0.3186 0.6109
C19_8 C 0.6305(4) 0.29259(19) 0.66390(14)
H10_8 H 0.6294 0.3234 0.6755
C20_8 C 0.6338(3) 0.24208(16) 0.56757(12)
C21_8 C 0.6069(3) 0.20238(16) 0.54811(12)
H11_8 H 0.5879 0.1760 0.5607
C22_8 C 0.6081(3) 0.20151(15) 0.50981(12)
C23_8 C 0.6612(3) 0.27556(15) 0.50917(12)
C24_8 C 0.6624(3) 0.27892(16) 0.54760(12)
H12_8 H 0.6828 0.3063 0.5601
C25_8 C 0.5761(3) 0.16023(14) 0.48740(11)
C26_8 C 0.5588(3) 0.11712(15) 0.50366(12)
H13_8 H 0.5692 0.1127 0.5295
C27_8 C 0.5270(3) 0.08051(15) 0.48308(12)
H14_8 H 0.5163 0.0510 0.4948
C28_8 C 0.5104(3) 0.08594(15) 0.44597(12)
C29_8 C 0.4712(3) 0.04840(17) 0.42436(13)
C30_8 C 0.5303(3) 0.12915(19) 0.42933(12)
H15_8 H 0.5215 0.1331 0.4033
C31_8 C 0.5615(3) 0.16498(17) 0.44936(12)
H16_8 H 0.5738 0.1940 0.4374
C32_8 C 0.6932(3) 0.31421(15) 0.48702(12)
C33_8 C 0.6927(3) 0.30928(19) 0.44908(13)
H17_8 H 0.6706 0.2821 0.4372
C34_8 C 0.7240(3) 0.34371(18) 0.42817(13)
H18_8 H 0.7238 0.3397 0.4021
C35_8 C 0.7555(3) 0.38360(15) 0.44490(12)
C36_8 C 0.7546(3) 0.38877(17) 0.48279(14)
H19_8 H 0.7748 0.4166 0.4946
C37_8 C 0.7245(3) 0.35355(17) 0.50379(13)
H20_8 H 0.7257 0.3569 0.5299
C38_8 C 0.7963(3) 0.41876(15) 0.42466(13)
C39_8 C 0.6963(4) 0.3373(2) 0.80545(14)
C40_8 C 0.7217(4) 0.3773(2) 0.78842(15)
H21_8 H 0.7170 0.3793 0.7622
C41_8 C 0.7538(4) 0.4144(2) 0.80826(15)
H22_8 H 0.7720 0.4410 0.7956
C42_8 C 0.7596(3) 0.41333(18) 0.84645(14)
C43_8 C 0.7311(4) 0.3754(2) 0.86406(15)
H23_8 H 0.7317 0.3754 0.8903
C44_8 C 0.7012(4) 0.3367(2) 0.84370(15)
H24_8 H 0.6840 0.3097 0.8563
loop_
_geom_bond_atom_site_label_1
_geom_bond_atom_site_label_2
_geom_bond_site_symmetry_1
_geom_bond_site_symmetry_2
In1 O1 1_555 1_555
O1 C1 1_555 1_555
O2 In1 1_555 1_555
O3 C29 1_555 1_555
O4 C29 1_555 1_555
C1 O2 1_555 1_555
In3 O3 1_555 1_555
O9 In1 1_555 1_555
O10 In1 1_555 1_555
O11 In1 1_555 1_555
O12 In1 1_555 1_555
O13 In1 1_555 1_555
O14 In1 1_555 1_555
O4 In3 1_555 1_555
O5 C38 1_555 1_555
O6 C38 1_555 1_555
O7 C4 1_555 1_555
O8 C4 1_555 1_555
N1 C9 1_555 1_555
N2 C22 1_555 1_555
C3 C2 1_555 1_555
H1 C3 1_555 1_555
C4 C42 1_555 1_555
C5 C3 1_555 1_555
H2 C5 1_555 1_555
C6 C5 1_555 1_555
C7 C6 1_555 1_555
H3 C7 1_555 1_555
C8 C2 1_555 1_555
H4 C8 1_555 1_555
C9 C6 1_555 1_555
C10 C9 1_555 1_555
H5 C10 1_555 1_555
C11 C10 1_555 1_555
C12 C11 1_555 1_555
H6 C12 1_555 1_555
C13 N1 1_555 1_555
C14 C11 1_555 1_555
C15 C14 1_555 1_555
H7 C15 1_555 1_555
C16 C15 1_555 1_555
H8 C16 1_555 1_555
C17 C16 1_555 1_555
C18 C17 1_555 1_555
H9 C18 1_555 1_555
C19 C14 1_555 1_555
H10 C19 1_555 1_555
C20 C17 1_555 1_555
C21 C20 1_555 1_555
H11 C21 1_555 1_555
C22 C21 1_555 1_555
C23 N2 1_555 1_555
C24 C20 1_555 1_555
H12 C24 1_555 1_555
C25 C22 1_555 1_555
C26 C25 1_555 1_555
H13 C26 1_555 1_555
C27 C26 1_555 1_555
H14 C27 1_555 1_555
C28 C27 1_555 1_555
C30 C28 1_555 1_555
H15 C30 1_555 1_555
C31 C25 1_555 1_555
H16 C31 1_555 1_555
C32 C23 1_555 1_555
C33 C32 1_555 1_555
H17 C33 1_555 1_555
C34 C33 1_555 1_555
H18 C34 1_555 1_555
C35 C34 1_555 1_555
C36 C35 1_555 1_555
H19 C36 1_555 1_555
C37 C32 1_555 1_555
H20 C37 1_555 1_555
C38 C35 1_555 1_555
C39 C13 1_555 1_555
C40 C39 1_555 1_555
H21 C40 1_555 1_555
C41 C40 1_555 1_555
H22 C41 1_555 1_555
C42 C41 1_555 1_555
C43 C42 1_555 1_555
H23 C43 1_555 1_555
C44 C39 1_555 1_555
H24 C44 1_555 1_555
In4 O5 1_555 1_555
O6 In4 1_555 1_555
C7 C8 1_555 1_555
C12 C13 1_555 1_555
C18 C19 1_555 1_555
C23 C24 1_555 1_555
C30 C31 1_555 1_555
C36 C37 1_555 1_555
C43 C44 1_555 1_555
In2 O1_2 1_555 1_555
O1_2 C1_2 1_555 1_555
O2_2 In2 1_555 1_555
O3_2 C29_2 1_555 1_555
O4_2 C29_2 1_555 1_555
O5_2 C38_2 1_555 1_555
O6_2 C38_2 1_555 1_555
O13 C4_2 1_555 1_555
O14 C4_2 1_555 1_555
N1_2 C9_2 1_555 1_555
N2_2 C22_2 1_555 1_555
C1_2 O2_2 1_555 1_555
C2_2 C1_2 1_555 1_555
C3_2 C2_2 1_555 1_555
H1_2 C3_2 1_555 1_555
C4_2 C42_2 1_555 1_555
C5_2 C3_2 1_555 1_555
H2_2 C5_2 1_555 1_555
C6_2 C5_2 1_555 1_555
C7_2 C6_2 1_555 1_555
H3_2 C7_2 1_555 1_555
C8_2 C2_2 1_555 1_555
H4_2 C8_2 1_555 1_555
C9_2 C6_2 1_555 1_555
C10_2 C9_2 1_555 1_555
H5_2 C10_2 1_555 1_555
C11_2 C10_2 1_555 1_555
C12_2 C11_2 1_555 1_555
H6_2 C12_2 1_555 1_555
C13_2 N1_2 1_555 1_555
C14_2 C11_2 1_555 1_555
C15_2 C14_2 1_555 1_555
H7_2 C15_2 1_555 1_555
C16_2 C15_2 1_555 1_555
H8_2 C16_2 1_555 1_555
C17_2 C16_2 1_555 1_555
C18_2 C17_2 1_555 1_555
H9_2 C18_2 1_555 1_555
C19_2 C14_2 1_555 1_555
H10_2 C19_2 1_555 1_555
C20_2 C17_2 1_555 1_555
C21_2 C20_2 1_555 1_555
H11_2 C21_2 1_555 1_555
C22_2 C21_2 1_555 1_555
C23_2 N2_2 1_555 1_555
C24_2 C20_2 1_555 1_555
H12_2 C24_2 1_555 1_555
C25_2 C22_2 1_555 1_555
C26_2 C25_2 1_555 1_555
H13_2 C26_2 1_555 1_555
C27_2 C26_2 1_555 1_555
H14_2 C27_2 1_555 1_555
C28_2 C27_2 1_555 1_555
C29_2 C28_2 1_555 1_555
C30_2 C28_2 1_555 1_555
H15_2 C30_2 1_555 1_555
C31_2 C25_2 1_555 1_555
H16_2 C31_2 1_555 1_555
C32_2 C23_2 1_555 1_555
C33_2 C32_2 1_555 1_555
H17_2 C33_2 1_555 1_555
C34_2 C33_2 1_555 1_555
H18_2 C34_2 1_555 1_555
C35_2 C34_2 1_555 1_555
C36_2 C35_2 1_555 1_555
H19_2 C36_2 1_555 1_555
C37_2 C32_2 1_555 1_555
H20_2 C37_2 1_555 1_555
C38_2 C35_2 1_555 1_555
C39_2 C13_2 1_555 1_555
C40_2 C39_2 1_555 1_555
H21_2 C40_2 1_555 1_555
C41_2 C40_2 1_555 1_555
H22_2 C41_2 1_555 1_555
C42_2 C41_2 1_555 1_555
C43_2 C42_2 1_555 1_555
H23_2 C43_2 1_555 1_555
C44_2 C39_2 1_555 1_555
H24_2 C44_2 1_555 1_555
In3 O5_2 1_555 1_555
O11_2 In2 1_555 1_555
O12_2 In2 1_555 1_555
O6_2 In3 1_555 1_555
C7_2 C8_2 1_555 1_555
C12_2 C13_2 1_555 1_555
C18_2 C19_2 1_555 1_555
C23_2 C24_2 1_555 1_555
C30_2 C31_2 1_555 1_555
C36_2 C37_2 1_555 1_555
C43_2 C44_2 1_555 1_555
O9 C29_3 1_555 1_555
O10 C29_3 1_555 1_555
In3 O1_3 1_555 1_555
O1_3 C1_3 1_555 1_555
O2_3 In3 1_555 1_555
C1_3 O2_3 1_555 1_555
O13_2 In3 1_555 1_555
O14_2 In3 1_555 1_555
O11_2 C38_3 1_555 1_555
O12_2 C38_3 1_555 1_555
H14_3 C27_3 1_555 1_555
C28_3 C27_3 1_555 1_555
C30_3 C28_3 1_555 1_555
H15_3 C30_3 1_555 1_555
C31_3 C25_3 1_555 1_555
H16_3 C31_3 1_555 1_555
C33_3 C32_3 1_555 1_555
H17_3 C33_3 1_555 1_555
C34_3 C33_3 1_555 1_555
H18_3 C34_3 1_555 1_555
C35_3 C34_3 1_555 1_555
C36_3 C35_3 1_555 1_555
H19_3 C36_3 1_555 1_555
C38_3 C35_3 1_555 1_555
C30_3 C31_3 1_555 1_555
O7_2 C4_3 1_555 1_555
O8_2 C4_3 1_555 1_555
N1_3 C9_3 1_555 1_555
C3_3 C2_3 1_555 1_555
H1_3 C3_3 1_555 1_555
C4_3 C42_3 1_555 1_555
C5_3 C3_3 1_555 1_555
H2_3 C5_3 1_555 1_555
C6_3 C5_3 1_555 1_555
C7_3 C6_3 1_555 1_555
H3_3 C7_3 1_555 1_555
C8_3 C2_3 1_555 1_555
H4_3 C8_3 1_555 1_555
C9_3 C6_3 1_555 1_555
C10_3 C9_3 1_555 1_555
H5_3 C10_3 1_555 1_555
C11_3 C10_3 1_555 1_555
C12_3 C11_3 1_555 1_555
H6_3 C12_3 1_555 1_555
C13_3 N1_3 1_555 1_555
C14_3 C11_3 1_555 1_555
C15_3 C14_3 1_555 1_555
H7_3 C15_3 1_555 1_555
C16_3 C15_3 1_555 1_555
H8_3 C16_3 1_555 1_555
C17_3 C16_3 1_555 1_555
C18_3 C17_3 1_555 1_555
H9_3 C18_3 1_555 1_555
C19_3 C14_3 1_555 1_555
H10_3 C19_3 1_555 1_555
C20_3 C17_3 1_555 1_555
C21_3 C20_3 1_555 1_555
H11_3 C21_3 1_555 1_555
C22_3 C21_3 1_555 1_555
C24_3 C20_3 1_555 1_555
H12_3 C24_3 1_555 1_555
H13_3 C26_3 1_555 1_555
H20_3 C37_3 1_555 1_555
C39_3 C13_3 1_555 1_555
C40_3 C39_3 1_555 1_555
H21_3 C40_3 1_555 1_555
C41_3 C40_3 1_555 1_555
H22_3 C41_3 1_555 1_555
C42_3 C41_3 1_555 1_555
C43_3 C42_3 1_555 1_555
H23_3 C43_3 1_555 1_555
C44_3 C39_3 1_555 1_555
H24_3 C44_3 1_555 1_555
C7_3 C8_3 1_555 1_555
C12_3 C13_3 1_555 1_555
C18_3 C19_3 1_555 1_555
C23_3 C24_3 1_555 1_555
C43_3 C44_3 1_555 1_555
O9_2 C29_4 1_555 1_555
O10_2 C29_4 1_555 1_555
O11 C38_4 1_555 1_555
O12 C38_4 1_555 1_555
H14_4 C27_4 1_555 1_555
C28_4 C27_4 1_555 1_555
C29_4 C28_4 1_555 1_555
C30_4 C28_4 1_555 1_555
H15_4 C30_4 1_555 1_555
C31_4 C25_4 1_555 1_555
H16_4 C31_4 1_555 1_555
C33_4 C32_4 1_555 1_555
H17_4 C33_4 1_555 1_555
C34_4 C33_4 1_555 1_555
H18_4 C34_4 1_555 1_555
C35_4 C34_4 1_555 1_555
C36_4 C35_4 1_555 1_555
H19_4 C36_4 1_555 1_555
C38_4 C35_4 1_555 1_555
C30_4 C31_4 1_555 1_555
In4 O1_4 1_555 1_555
O1_4 C1_4 1_555 1_555
O2_4 In4 1_555 1_555
O13_2 C4_4 1_555 1_555
O14_2 C4_4 1_555 1_555
N1_4 C9_4 1_555 1_555
C1_4 O2_4 1_555 1_555
C2_4 C1_4 1_555 1_555
C3_4 C2_4 1_555 1_555
H1_4 C3_4 1_555 1_555
C4_4 C42_4 1_555 1_555
C5_4 C3_4 1_555 1_555
H2_4 C5_4 1_555 1_555
C6_4 C5_4 1_555 1_555
C7_4 C6_4 1_555 1_555
H3_4 C7_4 1_555 1_555
C8_4 C2_4 1_555 1_555
H4_4 C8_4 1_555 1_555
C9_4 C6_4 1_555 1_555
C10_4 C9_4 1_555 1_555
H5_4 C10_4 1_555 1_555
C11_4 C10_4 1_555 1_555
C12_4 C11_4 1_555 1_555
H6_4 C12_4 1_555 1_555
C13_4 N1_4 1_555 1_555
C14_4 C11_4 1_555 1_555
C15_4 C14_4 1_555 1_555
H7_4 C15_4 1_555 1_555
C16_4 C15_4 1_555 1_555
H8_4 C16_4 1_555 1_555
C17_4 C16_4 1_555 1_555
C18_4 C17_4 1_555 1_555
H9_4 C18_4 1_555 1_555
C19_4 C14_4 1_555 1_555
H10_4 C19_4 1_555 1_555
C20_4 C17_4 1_555 1_555
C21_4 C20_4 1_555 1_555
H11_4 C21_4 1_555 1_555
C22_4 C21_4 1_555 1_555
C24_4 C20_4 1_555 1_555
H12_4 C24_4 1_555 1_555
H13_4 C26_4 1_555 1_555
H20_4 C37_4 1_555 1_555
C39_4 C13_4 1_555 1_555
C40_4 C39_4 1_555 1_555
H21_4 C40_4 1_555 1_555
C41_4 C40_4 1_555 1_555
H22_4 C41_4 1_555 1_555
C42_4 C41_4 1_555 1_555
C43_4 C42_4 1_555 1_555
H23_4 C43_4 1_555 1_555
C44_4 C39_4 1_555 1_555
H24_4 C44_4 1_555 1_555
C7_4 C8_4 1_555 1_555
C12_4 C13_4 1_555 1_555
C18_4 C19_4 1_555 1_555
C23_4 C24_4 1_555 1_555
C43_4 C44_4 1_555 1_555
O7_3 C4_5 1_555 1_555
O8_3 C4_5 1_555 1_555
N1_5 C9_5 1_555 1_555
C3_5 C2_5 1_555 1_555
H1_5 C3_5 1_555 1_555
C4_5 C42_5 1_555 1_555
C5_5 C3_5 1_555 1_555
H2_5 C5_5 1_555 1_555
C6_5 C5_5 1_555 1_555
C7_5 C6_5 1_555 1_555
H3_5 C7_5 1_555 1_555
C8_5 C2_5 1_555 1_555
H4_5 C8_5 1_555 1_555
C9_5 C6_5 1_555 1_555
C10_5 C9_5 1_555 1_555
H5_5 C10_5 1_555 1_555
C11_5 C10_5 1_555 1_555
C12_5 C11_5 1_555 1_555
H6_5 C12_5 1_555 1_555
C13_5 N1_5 1_555 1_555
C14_5 C11_5 1_555 1_555
C15_5 C14_5 1_555 1_555
H7_5 C15_5 1_555 1_555
C16_5 C15_5 1_555 1_555
H8_5 C16_5 1_555 1_555
C17_5 C16_5 1_555 1_555
C18_5 C17_5 1_555 1_555
H9_5 C18_5 1_555 1_555
C19_5 C14_5 1_555 1_555
H10_5 C19_5 1_555 1_555
C20_5 C17_5 1_555 1_555
C21_5 C20_5 1_555 1_555
H11_5 C21_5 1_555 1_555
C22_5 C21_5 1_555 1_555
C24_5 C20_5 1_555 1_555
H12_5 C24_5 1_555 1_555
H13_5 C26_5 1_555 1_555
H20_5 C37_5 1_555 1_555
C39_5 C13_5 1_555 1_555
C40_5 C39_5 1_555 1_555
H21_5 C40_5 1_555 1_555
C41_5 C40_5 1_555 1_555
H22_5 C41_5 1_555 1_555
C42_5 C41_5 1_555 1_555
C43_5 C42_5 1_555 1_555
H23_5 C43_5 1_555 1_555
C44_5 C39_5 1_555 1_555
H24_5 C44_5 1_555 1_555
C7_5 C8_5 1_555 1_555
C12_5 C13_5 1_555 1_555
C18_5 C19_5 1_555 1_555
C23_5 C24_5 1_555 1_555
C43_5 C44_5 1_555 1_555
O5_3 C38_5 1_555 1_555
O6_3 C38_5 1_555 1_555
H14_5 C27_5 1_555 1_555
C28_5 C27_5 1_555 1_555
C30_5 C28_5 1_555 1_555
H15_5 C30_5 1_555 1_555
C31_5 C25_5 1_555 1_555
H16_5 C31_5 1_555 1_555
C33_5 C32_5 1_555 1_555
H17_5 C33_5 1_555 1_555
C34_5 C33_5 1_555 1_555
H18_5 C34_5 1_555 1_555
C35_5 C34_5 1_555 1_555
C36_5 C35_5 1_555 1_555
H19_5 C36_5 1_555 1_555
C38_5 C35_5 1_555 1_555
In4_2 O5_3 1_555 1_555
O6_3 In4_2 1_555 1_555
C30_5 C31_5 1_555 1_555
In1_2 O1_5 1_555 1_555
O1_5 C1_5 1_555 1_555
O2_5 In1_2 1_555 1_555
C1_5 O2_5 1_555 1_555
O9_3 In1_2 1_555 1_555
O10_3 In1_2 1_555 1_555
O11_3 In1_2 1_555 1_555
O12_3 In1_2 1_555 1_555
O13_3 In1_2 1_555 1_555
O14_3 In1_2 1_555 1_555
O3_3 C29_5 1_555 1_555
O4_3 C29_5 1_555 1_555
In3_2 O3_3 1_555 1_555
O4_3 In3_2 1_555 1_555
In2_2 O1_6 1_555 1_555
O1_6 C1_6 1_555 1_555
O2_6 In2_2 1_555 1_555
O13_3 C4_6 1_555 1_555
O14_3 C4_6 1_555 1_555
N1_6 C9_6 1_555 1_555
C1_6 O2_6 1_555 1_555
C2_6 C1_6 1_555 1_555
C3_6 C2_6 1_555 1_555
H1_6 C3_6 1_555 1_555
C4_6 C42_6 1_555 1_555
C5_6 C3_6 1_555 1_555
H2_6 C5_6 1_555 1_555
C6_6 C5_6 1_555 1_555
C7_6 C6_6 1_555 1_555
H3_6 C7_6 1_555 1_555
C8_6 C2_6 1_555 1_555
H4_6 C8_6 1_555 1_555
C9_6 C6_6 1_555 1_555
C10_6 C9_6 1_555 1_555
H5_6 C10_6 1_555 1_555
C11_6 C10_6 1_555 1_555
C12_6 C11_6 1_555 1_555
H6_6 C12_6 1_555 1_555
C13_6 N1_6 1_555 1_555
C14_6 C11_6 1_555 1_555
C15_6 C14_6 1_555 1_555
H7_6 C15_6 1_555 1_555
C16_6 C15_6 1_555 1_555
H8_6 C16_6 1_555 1_555
C17_6 C16_6 1_555 1_555
C18_6 C17_6 1_555 1_555
H9_6 C18_6 1_555 1_555
C19_6 C14_6 1_555 1_555
H10_6 C19_6 1_555 1_555
C20_6 C17_6 1_555 1_555
C21_6 C20_6 1_555 1_555
H11_6 C21_6 1_555 1_555
C22_6 C21_6 1_555 1_555
C24_6 C20_6 1_555 1_555
H12_6 C24_6 1_555 1_555
H13_6 C26_6 1_555 1_555
H20_6 C37_6 1_555 1_555
C39_6 C13_6 1_555 1_555
C40_6 C39_6 1_555 1_555
H21_6 C40_6 1_555 1_555
C41_6 C40_6 1_555 1_555
H22_6 C41_6 1_555 1_555
C42_6 C41_6 1_555 1_555
C43_6 C42_6 1_555 1_555
H23_6 C43_6 1_555 1_555
C44_6 C39_6 1_555 1_555
H24_6 C44_6 1_555 1_555
O11_4 In2_2 1_555 1_555
O12_4 In2_2 1_555 1_555
C7_6 C8_6 1_555 1_555
C12_6 C13_6 1_555 1_555
C18_6 C19_6 1_555 1_555
C23_6 C24_6 1_555 1_555
C43_6 C44_6 1_555 1_555
O3_4 C29_6 1_555 1_555
O4_4 C29_6 1_555 1_555
O5_4 C38_6 1_555 1_555
O6_4 C38_6 1_555 1_555
H14_6 C27_6 1_555 1_555
C28_6 C27_6 1_555 1_555
C29_6 C28_6 1_555 1_555
C30_6 C28_6 1_555 1_555
H15_6 C30_6 1_555 1_555
C31_6 C25_6 1_555 1_555
H16_6 C31_6 1_555 1_555
C33_6 C32_6 1_555 1_555
H17_6 C33_6 1_555 1_555
C34_6 C33_6 1_555 1_555
H18_6 C34_6 1_555 1_555
C35_6 C34_6 1_555 1_555
C36_6 C35_6 1_555 1_555
H19_6 C36_6 1_555 1_555
C38_6 C35_6 1_555 1_555
In3_2 O5_4 1_555 1_555
O6_4 In3_2 1_555 1_555
C30_6 C31_6 1_555 1_555
O11_4 C38_7 1_555 1_555
O12_4 C38_7 1_555 1_555
O7_4 C4_7 1_555 1_555
O8_4 C4_7 1_555 1_555
N1_7 C9_7 1_555 1_555
N2_7 C22_7 1_555 1_555
C3_7 C2_7 1_555 1_555
H1_7 C3_7 1_555 1_555
C4_7 C42_7 1_555 1_555
C5_7 C3_7 1_555 1_555
H2_7 C5_7 1_555 1_555
C6_7 C5_7 1_555 1_555
C7_7 C6_7 1_555 1_555
H3_7 C7_7 1_555 1_555
C8_7 C2_7 1_555 1_555
H4_7 C8_7 1_555 1_555
C9_7 C6_7 1_555 1_555
C10_7 C9_7 1_555 1_555
H5_7 C10_7 1_555 1_555
C11_7 C10_7 1_555 1_555
C12_7 C11_7 1_555 1_555
H6_7 C12_7 1_555 1_555
C13_7 N1_7 1_555 1_555
C14_7 C11_7 1_555 1_555
C15_7 C14_7 1_555 1_555
H7_7 C15_7 1_555 1_555
C16_7 C15_7 1_555 1_555
H8_7 C16_7 1_555 1_555
C17_7 C16_7 1_555 1_555
C18_7 C17_7 1_555 1_555
H9_7 C18_7 1_555 1_555
C19_7 C14_7 1_555 1_555
H10_7 C19_7 1_555 1_555
C20_7 C17_7 1_555 1_555
C21_7 C20_7 1_555 1_555
H11_7 C21_7 1_555 1_555
C22_7 C21_7 1_555 1_555
C23_7 N2_7 1_555 1_555
C24_7 C20_7 1_555 1_555
H12_7 C24_7 1_555 1_555
C25_7 C22_7 1_555 1_555
C26_7 C25_7 1_555 1_555
H13_7 C26_7 1_555 1_555
C27_7 C26_7 1_555 1_555
H14_7 C27_7 1_555 1_555
C28_7 C27_7 1_555 1_555
C30_7 C28_7 1_555 1_555
H15_7 C30_7 1_555 1_555
C31_7 C25_7 1_555 1_555
H16_7 C31_7 1_555 1_555
C32_7 C23_7 1_555 1_555
C33_7 C32_7 1_555 1_555
H17_7 C33_7 1_555 1_555
C34_7 C33_7 1_555 1_555
H18_7 C34_7 1_555 1_555
C35_7 C34_7 1_555 1_555
C36_7 C35_7 1_555 1_555
H19_7 C36_7 1_555 1_555
C37_7 C32_7 1_555 1_555
H20_7 C37_7 1_555 1_555
C38_7 C35_7 1_555 1_555
C39_7 C13_7 1_555 1_555
C40_7 C39_7 1_555 1_555
H21_7 C40_7 1_555 1_555
C41_7 C40_7 1_555 1_555
H22_7 C41_7 1_555 1_555
C42_7 C41_7 1_555 1_555
C43_7 C42_7 1_555 1_555
H23_7 C43_7 1_555 1_555
C44_7 C39_7 1_555 1_555
H24_7 C44_7 1_555 1_555
C7_7 C8_7 1_555 1_555
C12_7 C13_7 1_555 1_555
C18_7 C19_7 1_555 1_555
C23_7 C24_7 1_555 1_555
C30_7 C31_7 1_555 1_555
C36_7 C37_7 1_555 1_555
C43_7 C44_7 1_555 1_555
In3_2 O1_7 1_555 1_555
O1_7 C1_7 1_555 1_555
O2_7 In3_2 1_555 1_555
O9_3 C29_7 1_555 1_555
O10_3 C29_7 1_555 1_555
C1_7 O2_7 1_555 1_555
O13_4 In3_2 1_555 1_555
O14_4 In3_2 1_555 1_555
In4_2 O1_8 1_555 1_555
O1_8 C1_8 1_555 1_555
O2_8 In4_2 1_555 1_555
O9_4 C29_8 1_555 1_555
O10_4 C29_8 1_555 1_555
O11_3 C38_8 1_555 1_555
O12_3 C38_8 1_555 1_555
O13_4 C4_8 1_555 1_555
O14_4 C4_8 1_555 1_555
N1_8 C9_8 1_555 1_555
N2_8 C22_8 1_555 1_555
C1_8 O2_8 1_555 1_555
C2_8 C1_8 1_555 1_555
C3_8 C2_8 1_555 1_555
H1_8 C3_8 1_555 1_555
C4_8 C42_8 1_555 1_555
C5_8 C3_8 1_555 1_555
H2_8 C5_8 1_555 1_555
C6_8 C5_8 1_555 1_555
C7_8 C6_8 1_555 1_555
H3_8 C7_8 1_555 1_555
C8_8 C2_8 1_555 1_555
H4_8 C8_8 1_555 1_555
C9_8 C6_8 1_555 1_555
C10_8 C9_8 1_555 1_555
H5_8 C10_8 1_555 1_555
C11_8 C10_8 1_555 1_555
C12_8 C11_8 1_555 1_555
H6_8 C12_8 1_555 1_555
C13_8 N1_8 1_555 1_555
C14_8 C11_8 1_555 1_555
C15_8 C14_8 1_555 1_555
H7_8 C15_8 1_555 1_555
C16_8 C15_8 1_555 1_555
H8_8 C16_8 1_555 1_555
C17_8 C16_8 1_555 1_555
C18_8 C17_8 1_555 1_555
H9_8 C18_8 1_555 1_555
C19_8 C14_8 1_555 1_555
H10_8 C19_8 1_555 1_555
C20_8 C17_8 1_555 1_555
C21_8 C20_8 1_555 1_555
H11_8 C21_8 1_555 1_555
C22_8 C21_8 1_555 1_555
C23_8 N2_8 1_555 1_555
C24_8 C20_8 1_555 1_555
H12_8 C24_8 1_555 1_555
C25_8 C22_8 1_555 1_555
C26_8 C25_8 1_555 1_555
H13_8 C26_8 1_555 1_555
C27_8 C26_8 1_555 1_555
H14_8 C27_8 1_555 1_555
C28_8 C27_8 1_555 1_555
C29_8 C28_8 1_555 1_555
C30_8 C28_8 1_555 1_555
H15_8 C30_8 1_555 1_555
C31_8 C25_8 1_555 1_555
H16_8 C31_8 1_555 1_555
C32_8 C23_8 1_555 1_555
C33_8 C32_8 1_555 1_555
H17_8 C33_8 1_555 1_555
C34_8 C33_8 1_555 1_555
H18_8 C34_8 1_555 1_555
C35_8 C34_8 1_555 1_555
C36_8 C35_8 1_555 1_555
H19_8 C36_8 1_555 1_555
C37_8 C32_8 1_555 1_555
H20_8 C37_8 1_555 1_555
C38_8 C35_8 1_555 1_555
C39_8 C13_8 1_555 1_555
C40_8 C39_8 1_555 1_555
H21_8 C40_8 1_555 1_555
C41_8 C40_8 1_555 1_555
H22_8 C41_8 1_555 1_555
C42_8 C41_8 1_555 1_555
C43_8 C42_8 1_555 1_555
H23_8 C43_8 1_555 1_555
C44_8 C39_8 1_555 1_555
H24_8 C44_8 1_555 1_555
C7_8 C8_8 1_555 1_555
C12_8 C13_8 1_555 1_555
C18_8 C19_8 1_555 1_555
C23_8 C24_8 1_555 1_555
C30_8 C31_8 1_555 1_555
C36_8 C37_8 1_555 1_555
C43_8 C44_8 1_555 1_555

#END
