
###############################################################################
#
# This file contains modified crystal structure data generated from the
# MOF subset of the Cambridge Structural Database (CSD) v543 
# hosted by the Cambridge Crystallographic Data Centre (CCDC).
#
# This work is licensed under the Creative Commons
# Attribution-NonCommercial-ShareAlike 4.0 International License.
# To view a copy of this license, visit
# http://creativecommons.org/licenses/by-nc-sa/4.0/
# or send a letter to
# Creative Commons, PO Box 1866, Mountain View, CA 94042, USA.
#
# CIF created using the CSD Python API on 29 September 2022
# The structure has been converted into the P1 space group
# The structure has a 3D framework
# The original CSD entry YICRIM is in the tetragonal crystal system
# The framework has been calculated to contain at least 10.0% void space
# The void calculation uses a probe of radius 1.32A, grid spacing 0.4
#
###############################################################################

data_YICRIM
_chemical_formula_moiety         '(C128 H160 O60 Pb16)n'
_symmetry_cell_setting           triclinic
_symmetry_space_group_name_H-M   'P 1'
_symmetry_Int_Tables_number      1
_space_group_name_Hall           'P 1'
loop_
_symmetry_equiv_pos_site_id
_symmetry_equiv_pos_as_xyz
1 x,y,z
_cell_length_a                   19.603(3)
_cell_length_b                   19.603(3)
_cell_length_c                   12.331(3)
_cell_angle_alpha                90
_cell_angle_beta                 90
_cell_angle_gamma                90
_cell_volume                     4738.53
loop_
_atom_site_label
_atom_site_type_symbol
_atom_site_fract_x
_atom_site_fract_y
_atom_site_fract_z
O9 O 0.2694(5) 0.9028(5) 0.0146(7)
O11 O 0.2183(4) 0.9271(4) 0.1728(6)
O13 O 0.1430(6) 0.8050(5) 0.0691(9)
C1 C 0.0567(6) 0.6998(8) 0.6297(9)
C2 C 0.0580(7) 0.6289(7) 0.5803(9)
H1 H 0.0108 0.6130 0.5750
C3 C 0.0866(7) 0.6337(8) 0.4633(9)
H2 H 0.0644 0.6710 0.4254
H3 H 0.0765 0.5918 0.4246
C4 C 0.1649(6) 0.6456(8) 0.4637(8)
H4 H 0.1819 0.6468 0.3898
H5 H 0.1752 0.6891 0.4977
C5 C 0.1989(6) 0.5889(7) 0.5253(10)
H6 H 0.1869 0.5458 0.4896
C6 C 0.1741(6) 0.5854(7) 0.6379(10)
H7 H 0.1869 0.6269 0.6756
H8 H 0.1959 0.5474 0.6745
C7 C 0.0970(7) 0.5767(8) 0.6436(12)
H9 H 0.0853 0.5317 0.6167
H10 H 0.0829 0.5790 0.7189
C8 C 0.2757(6) 0.5978(7) 0.5166(11)
C9 C 0.2687(6) 0.8745(6) 0.7280(10)
H11 H 0.2765 0.9179 0.7656
C10 C 0.3063(6) 0.8190(7) 0.7905(9)
H12 H 0.2994 0.7753 0.7554
H13 H 0.2885 0.8161 0.8637
C11 C 0.3828(6) 0.8359(7) 0.7939(8)
H14 H 0.4066 0.8007 0.8343
H15 H 0.3895 0.8789 0.8313
C12 C 0.4133(7) 0.8408(7) 0.6780(9)
H16 H 0.4609 0.8555 0.6843
C13 C 0.4119(7) 0.7727(7) 0.6187(10)
C14 C 0.3741(6) 0.8951(7) 0.6113(10)
H17 H 0.3827 0.9399 0.6417
H18 H 0.3907 0.8950 0.5372
C15 C 0.2976(7) 0.8814(8) 0.6114(10)
H19 H 0.2886 0.8398 0.5716
H20 H 0.2745 0.9185 0.5745
C16 C 0.1921(6) 0.8606(6) 0.7288(11)
O1 O 0.1597(6) 0.8495(7) 0.6412(7)
O2 O 0.1615(5) 0.8580(7) 0.8160(8)
O3 O 0.0378(5) 0.7527(5) 0.5737(7)
O4 O 0.0715(4) 0.7072(5) 0.7288(6)
O5 O 0.4028(5) 0.7694(5) 0.5146(7)
O6 O 0.4271(4) 0.7183(4) 0.6728(6)
O7 O 0.3093(5) 0.5560(5) 0.4560(7)
O8 O 0.3050(5) 0.6430(6) 0.5691(9)
Pb1 Pb 0.04839(2) 0.82685(2) 0.74418(4)
Pb2 Pb 0.14807(2) 0.91771(2) 0.99968(4)
O12 O 0.0560(5) 0.8093(5) 0.9560(7)
Pb3 Pb 0.54839(2) 0.67315(2) 0.75582(4)
Pb4 Pb 0.32685(2) 0.54839(2) 0.24418(4)
Pb5 Pb 0.41771(2) 0.64807(2) 0.49968(4)
O10 O 0.9271(4) 0.7817(4) 0.8272(6)
O10_2 O 0.7817(4) 0.0729(4) 0.1728(6)
C1_2 C 0.6998(8) 0.9433(6) 0.3703(9)
C2_2 C 0.6289(7) 0.9420(7) 0.4197(9)
H1_2 H 0.6130 0.9892 0.4250
C3_2 C 0.6337(8) 0.9134(7) 0.5367(9)
H2_2 H 0.6710 0.9356 0.5746
H3_2 H 0.5918 0.9235 0.5754
C4_2 C 0.6456(8) 0.8351(6) 0.5363(8)
H4_2 H 0.6468 0.8181 0.6102
H5_2 H 0.6891 0.8248 0.5023
C5_2 C 0.5889(7) 0.8011(6) 0.4747(10)
H6_2 H 0.5458 0.8131 0.5104
C6_2 C 0.5854(7) 0.8259(6) 0.3621(10)
H7_2 H 0.6269 0.8131 0.3244
H8_2 H 0.5474 0.8041 0.3255
C7_2 C 0.5767(8) 0.9030(7) 0.3564(12)
H9_2 H 0.5317 0.9147 0.3833
H10_2 H 0.5790 0.9171 0.2811
C8_2 C 0.5978(7) 0.7243(6) 0.4834(11)
C9_2 C 0.8745(6) 0.7313(6) 0.2720(10)
H11_2 H 0.9179 0.7235 0.2344
C10_2 C 0.8190(7) 0.6937(6) 0.2095(9)
H12_2 H 0.7753 0.7006 0.2446
H13_2 H 0.8161 0.7115 0.1363
C11_2 C 0.8359(7) 0.6172(6) 0.2061(8)
H14_2 H 0.8007 0.5934 0.1657
H15_2 H 0.8789 0.6105 0.1687
C12_2 C 0.8408(7) 0.5867(7) 0.3220(9)
H16_2 H 0.8555 0.5391 0.3157
C13_2 C 0.7727(7) 0.5881(7) 0.3813(10)
C14_2 C 0.8951(7) 0.6259(6) 0.3887(10)
H17_2 H 0.9399 0.6173 0.3583
H18_2 H 0.8950 0.6093 0.4628
C15_2 C 0.8814(8) 0.7024(7) 0.3886(10)
H19_2 H 0.8398 0.7114 0.4284
H20_2 H 0.9185 0.7255 0.4255
C16_2 C 0.8606(6) 0.8079(6) 0.2712(11)
O1_2 O 0.8495(7) 0.8403(6) 0.3588(7)
O2_2 O 0.8580(7) 0.8385(5) 0.1840(8)
O3_2 O 0.7527(5) 0.9622(5) 0.4263(7)
O4_2 O 0.7072(5) 0.9285(4) 0.2712(6)
O5_2 O 0.7694(5) 0.5972(5) 0.4854(7)
O6_2 O 0.7183(4) 0.5729(4) 0.3272(6)
O7_2 O 0.5560(5) 0.6907(5) 0.5440(7)
O8_2 O 0.6430(6) 0.6950(5) 0.4309(9)
Pb1_2 Pb 0.82685(2) 0.95161(2) 0.25582(4)
Pb2_2 Pb 0.91771(2) 0.85193(2) 0.00032(4)
O12_2 O 0.8093(5) 0.9440(5) 0.0440(7)
Pb3_2 Pb 0.67315(2) 0.45161(2) 0.24418(4)
Pb5_2 Pb 0.64807(2) 0.58229(2) 0.50032(4)
O9_2 O 0.9028(5) 0.7306(5) 0.9854(7)
O13_2 O 0.8050(5) 0.8570(6) 0.9309(9)
C3_3 C 0.5866(7) 0.8663(8) 0.0367(9)
H2_3 H 0.5644 0.8290 0.0746
H3_3 H 0.5765 0.9082 0.0754
C4_3 C 0.6649(6) 0.8544(8) 0.0363(8)
H4_3 H 0.6819 0.8532 0.1102
H5_3 H 0.6752 0.8109 0.0023
H6_3 H 0.6869 0.9542 0.0104
C1_3 C 0.5567(6) 0.8002(8) 0.8703(9)
C2_3 C 0.5580(7) 0.8711(7) 0.9197(9)
H1_3 H 0.5108 0.8870 0.9250
C5_3 C 0.6989(6) 0.9111(7) 0.9747(10)
C6_3 C 0.6741(6) 0.9146(7) 0.8621(10)
H7_3 H 0.6869 0.8731 0.8244
H8_3 H 0.6959 0.9526 0.8255
C7_3 C 0.5970(7) 0.9233(8) 0.8564(12)
H9_3 H 0.5853 0.9683 0.8833
H10_3 H 0.5829 0.9210 0.7811
C8_3 C 0.7757(6) 0.9022(7) 0.9834(11)
C9_3 C 0.7687(6) 0.6255(6) 0.7720(10)
H11_3 H 0.7765 0.5821 0.7344
C10_3 C 0.8063(6) 0.6810(7) 0.7095(9)
H12_3 H 0.7994 0.7247 0.7446
H13_3 H 0.7885 0.6839 0.6363
C11_3 C 0.8828(6) 0.6641(7) 0.7061(8)
H14_3 H 0.9066 0.6993 0.6657
H15_3 H 0.8895 0.6211 0.6687
C12_3 C 0.9133(7) 0.6592(7) 0.8220(9)
H16_3 H 0.9609 0.6445 0.8157
C13_3 C 0.9119(7) 0.7273(7) 0.8813(10)
C14_3 C 0.8741(6) 0.6049(7) 0.8887(10)
H17_3 H 0.8827 0.5601 0.8583
H18_3 H 0.8907 0.6050 0.9628
C15_3 C 0.7976(7) 0.6186(8) 0.8886(10)
H19_3 H 0.7886 0.6602 0.9284
H20_3 H 0.7745 0.5815 0.9255
C16_3 C 0.6921(6) 0.6394(6) 0.7712(11)
O1_3 O 0.6597(6) 0.6505(7) 0.8588(7)
O2_3 O 0.6615(5) 0.6420(7) 0.6840(8)
O3_3 O 0.5378(5) 0.7473(5) 0.9263(7)
O4_3 O 0.5715(4) 0.7928(5) 0.7712(6)
O10_3 O 0.0729(4) 0.2183(4) 0.8272(6)
O9_3 O 0.7306(5) 0.0972(5) 0.0146(7)
O13_3 O 0.8570(6) 0.1950(5) 0.0691(9)
C1_4 C 0.9433(6) 0.3002(8) 0.6297(9)
C2_4 C 0.9420(7) 0.3711(7) 0.5803(9)
H1_4 H 0.9892 0.3870 0.5750
C3_4 C 0.9134(7) 0.3663(8) 0.4633(9)
H2_4 H 0.9356 0.3290 0.4254
H3_4 H 0.9235 0.4082 0.4246
C4_4 C 0.8351(6) 0.3544(8) 0.4637(8)
H4_4 H 0.8181 0.3532 0.3898
H5_4 H 0.8248 0.3109 0.4977
C5_4 C 0.8011(6) 0.4111(7) 0.5253(10)
H6_4 H 0.8131 0.4542 0.4896
C6_4 C 0.8259(6) 0.4146(7) 0.6379(10)
H7_4 H 0.8131 0.3731 0.6756
H8_4 H 0.8041 0.4526 0.6745
C7_4 C 0.9030(7) 0.4233(8) 0.6436(12)
H9_4 H 0.9147 0.4683 0.6167
H10_4 H 0.9171 0.4210 0.7189
C8_4 C 0.7243(6) 0.4022(7) 0.5166(11)
C9_4 C 0.7313(6) 0.1255(6) 0.7280(10)
H11_4 H 0.7235 0.0821 0.7656
C10_4 C 0.6937(6) 0.1810(7) 0.7905(9)
H12_4 H 0.7006 0.2247 0.7554
H13_4 H 0.7115 0.1839 0.8637
C11_4 C 0.6172(6) 0.1641(7) 0.7939(8)
H14_4 H 0.5934 0.1993 0.8343
H15_4 H 0.6105 0.1211 0.8313
C12_4 C 0.5867(7) 0.1592(7) 0.6780(9)
H16_4 H 0.5391 0.1445 0.6843
C13_4 C 0.5881(7) 0.2273(7) 0.6187(10)
C14_4 C 0.6259(6) 0.1049(7) 0.6113(10)
H17_4 H 0.6173 0.0601 0.6417
H18_4 H 0.6093 0.1050 0.5372
C15_4 C 0.7024(7) 0.1186(8) 0.6114(10)
H19_4 H 0.7114 0.1602 0.5716
H20_4 H 0.7255 0.0815 0.5745
C16_4 C 0.8079(6) 0.1394(6) 0.7288(11)
O1_4 O 0.8403(6) 0.1505(7) 0.6412(7)
O2_4 O 0.8385(5) 0.1420(7) 0.8160(8)
O3_4 O 0.9622(5) 0.2473(5) 0.5737(7)
O4_4 O 0.9285(4) 0.2928(5) 0.7288(6)
O5_3 O 0.5972(5) 0.2306(5) 0.5146(7)
O6_3 O 0.5729(4) 0.2817(4) 0.6728(6)
O7_3 O 0.6907(5) 0.4440(5) 0.4560(7)
O8_3 O 0.6950(5) 0.3570(6) 0.5691(9)
Pb1_3 Pb 0.95161(2) 0.17315(2) 0.74418(4)
Pb2_3 Pb 0.85193(2) 0.08229(2) 0.99968(4)
O12_3 O 0.9440(5) 0.1907(5) 0.9560(7)
Pb3_3 Pb 0.45161(2) 0.32685(2) 0.75582(4)
Pb5_3 Pb 0.58229(2) 0.35193(2) 0.49968(4)
C1_5 C 0.8002(8) 0.4433(6) 0.1297(9)
C2_5 C 0.8711(7) 0.4420(7) 0.0803(9)
H1_5 H 0.8870 0.4892 0.0750
C5_5 C 0.9111(7) 0.3011(6) 0.0253(10)
C6_5 C 0.9146(7) 0.3259(6) 0.1379(10)
H7_5 H 0.8731 0.3131 0.1756
H8_5 H 0.9526 0.3041 0.1745
C7_5 C 0.9233(8) 0.4030(7) 0.1436(12)
H9_5 H 0.9683 0.4147 0.1167
H10_5 H 0.9210 0.4171 0.2189
C8_5 C 0.9022(7) 0.2243(6) 0.0166(11)
C9_5 C 0.6255(6) 0.2313(6) 0.2280(10)
H11_5 H 0.5821 0.2235 0.2656
C10_5 C 0.6810(7) 0.1937(6) 0.2905(9)
H12_5 H 0.7247 0.2006 0.2554
H13_5 H 0.6839 0.2115 0.3637
C11_5 C 0.6641(7) 0.1172(6) 0.2939(8)
H14_5 H 0.6993 0.0934 0.3343
H15_5 H 0.6211 0.1105 0.3313
C12_5 C 0.6592(7) 0.0867(7) 0.1780(9)
H16_5 H 0.6445 0.0391 0.1843
C13_5 C 0.7273(7) 0.0881(7) 0.1187(10)
C14_5 C 0.6049(7) 0.1259(6) 0.1113(10)
H17_5 H 0.5601 0.1173 0.1417
H18_5 H 0.6050 0.1093 0.0372
C15_5 C 0.6186(8) 0.2024(7) 0.1114(10)
H19_5 H 0.6602 0.2114 0.0716
H20_5 H 0.5815 0.2255 0.0745
C16_5 C 0.6394(6) 0.3079(6) 0.2288(11)
O1_5 O 0.6505(7) 0.3403(6) 0.1412(7)
O2_5 O 0.6420(7) 0.3385(5) 0.3160(8)
O3_5 O 0.7473(5) 0.4622(5) 0.0737(7)
O4_5 O 0.7928(5) 0.4285(4) 0.2288(6)
C3_5 C 0.8663(8) 0.4134(7) 0.9633(9)
H2_5 H 0.8290 0.4356 0.9254
H3_5 H 0.9082 0.4235 0.9246
C4_5 C 0.8544(8) 0.3351(6) 0.9637(8)
H4_5 H 0.8532 0.3181 0.8898
H5_5 H 0.8109 0.3248 0.9977
H6_5 H 0.9542 0.3131 0.9896
C1_6 C 0.3002(8) 0.0567(6) 0.3703(9)
C2_6 C 0.3711(7) 0.0580(7) 0.4197(9)
H1_6 H 0.3870 0.0108 0.4250
C3_6 C 0.3663(8) 0.0866(7) 0.5367(9)
H2_6 H 0.3290 0.0644 0.5746
H3_6 H 0.4082 0.0765 0.5754
C4_6 C 0.3544(8) 0.1649(6) 0.5363(8)
H4_6 H 0.3532 0.1819 0.6102
H5_6 H 0.3109 0.1752 0.5023
C5_6 C 0.4111(7) 0.1989(6) 0.4747(10)
H6_6 H 0.4542 0.1869 0.5104
C6_6 C 0.4146(7) 0.1741(6) 0.3621(10)
H7_6 H 0.3731 0.1869 0.3244
H8_6 H 0.4526 0.1959 0.3255
C7_6 C 0.4233(8) 0.0970(7) 0.3564(12)
H9_6 H 0.4683 0.0853 0.3833
H10_6 H 0.4210 0.0829 0.2811
C8_6 C 0.4022(7) 0.2757(6) 0.4834(11)
C9_6 C 0.1255(6) 0.2687(6) 0.2720(10)
H11_6 H 0.0821 0.2765 0.2344
C10_6 C 0.1810(7) 0.3063(6) 0.2095(9)
H12_6 H 0.2247 0.2994 0.2446
H13_6 H 0.1839 0.2885 0.1363
C11_6 C 0.1641(7) 0.3828(6) 0.2061(8)
H14_6 H 0.1993 0.4066 0.1657
H15_6 H 0.1211 0.3895 0.1687
C12_6 C 0.1592(7) 0.4133(7) 0.3220(9)
H16_6 H 0.1445 0.4609 0.3157
C13_6 C 0.2273(7) 0.4119(7) 0.3813(10)
C14_6 C 0.1049(7) 0.3741(6) 0.3887(10)
H17_6 H 0.0601 0.3827 0.3583
H18_6 H 0.1050 0.3907 0.4628
C15_6 C 0.1186(8) 0.2976(7) 0.3886(10)
H19_6 H 0.1602 0.2886 0.4284
H20_6 H 0.0815 0.2745 0.4255
C16_6 C 0.1394(6) 0.1921(6) 0.2712(11)
O1_6 O 0.1505(7) 0.1597(6) 0.3588(7)
O2_6 O 0.1420(7) 0.1615(5) 0.1840(8)
O3_6 O 0.2473(5) 0.0378(5) 0.4263(7)
O4_6 O 0.2928(5) 0.0715(4) 0.2712(6)
O5_4 O 0.2306(5) 0.4028(5) 0.4854(7)
O6_4 O 0.2817(4) 0.4271(4) 0.3272(6)
O7_4 O 0.4440(5) 0.3093(5) 0.5440(7)
O8_4 O 0.3570(6) 0.3050(5) 0.4309(9)
Pb1_4 Pb 0.17315(2) 0.04839(2) 0.25582(4)
Pb2_4 Pb 0.08229(2) 0.14807(2) 0.00032(4)
O12_4 O 0.1907(5) 0.0560(5) 0.0440(7)
Pb5_4 Pb 0.35193(2) 0.41771(2) 0.50032(4)
O9_4 O 0.0972(5) 0.2694(5) 0.9854(7)
O13_4 O 0.1950(5) 0.1430(6) 0.9309(9)
C3_7 C 0.4134(7) 0.1337(8) 0.0367(9)
H2_7 H 0.4356 0.1710 0.0746
H3_7 H 0.4235 0.0918 0.0754
C4_7 C 0.3351(6) 0.1456(8) 0.0363(8)
H4_7 H 0.3181 0.1468 0.1102
H5_7 H 0.3248 0.1891 0.0023
H6_7 H 0.3131 0.0458 0.0104
C1_7 C 0.4433(6) 0.1998(8) 0.8703(9)
C2_7 C 0.4420(7) 0.1289(7) 0.9197(9)
H1_7 H 0.4892 0.1130 0.9250
C5_7 C 0.3011(6) 0.0889(7) 0.9747(10)
C6_7 C 0.3259(6) 0.0854(7) 0.8621(10)
H7_7 H 0.3131 0.1269 0.8244
H8_7 H 0.3041 0.0474 0.8255
C7_7 C 0.4030(7) 0.0767(8) 0.8564(12)
H9_7 H 0.4147 0.0317 0.8833
H10_7 H 0.4171 0.0790 0.7811
C8_7 C 0.2243(6) 0.0978(7) 0.9834(11)
C9_7 C 0.2313(6) 0.3745(6) 0.7720(10)
H11_7 H 0.2235 0.4179 0.7344
C10_7 C 0.1937(6) 0.3190(7) 0.7095(9)
H12_7 H 0.2006 0.2753 0.7446
H13_7 H 0.2115 0.3161 0.6363
C11_7 C 0.1172(6) 0.3359(7) 0.7061(8)
H14_7 H 0.0934 0.3007 0.6657
H15_7 H 0.1105 0.3789 0.6687
C12_7 C 0.0867(7) 0.3408(7) 0.8220(9)
H16_7 H 0.0391 0.3555 0.8157
C13_7 C 0.0881(7) 0.2727(7) 0.8813(10)
C14_7 C 0.1259(6) 0.3951(7) 0.8887(10)
H17_7 H 0.1173 0.4399 0.8583
H18_7 H 0.1093 0.3950 0.9628
C15_7 C 0.2024(7) 0.3814(8) 0.8886(10)
H19_7 H 0.2114 0.3398 0.9284
H20_7 H 0.2255 0.4185 0.9255
C16_7 C 0.3079(6) 0.3606(6) 0.7712(11)
O1_7 O 0.3403(6) 0.3495(7) 0.8588(7)
O2_7 O 0.3385(5) 0.3580(7) 0.6840(8)
O3_7 O 0.4622(5) 0.2527(5) 0.9263(7)
O4_7 O 0.4285(4) 0.2072(5) 0.7712(6)
C1_8 C 0.1998(8) 0.5567(6) 0.1297(9)
C2_8 C 0.1289(7) 0.5580(7) 0.0803(9)
H1_8 H 0.1130 0.5108 0.0750
C5_8 C 0.0889(7) 0.6989(6) 0.0253(10)
C6_8 C 0.0854(7) 0.6741(6) 0.1379(10)
H7_8 H 0.1269 0.6869 0.1756
H8_8 H 0.0474 0.6959 0.1745
C7_8 C 0.0767(8) 0.5970(7) 0.1436(12)
H9_8 H 0.0317 0.5853 0.1167
H10_8 H 0.0790 0.5829 0.2189
C8_8 C 0.0978(7) 0.7757(6) 0.0166(11)
C9_8 C 0.3745(6) 0.7687(6) 0.2280(10)
H11_8 H 0.4179 0.7765 0.2656
C10_8 C 0.3190(7) 0.8063(6) 0.2905(9)
H12_8 H 0.2753 0.7994 0.2554
H13_8 H 0.3161 0.7885 0.3637
C11_8 C 0.3359(7) 0.8828(6) 0.2939(8)
H14_8 H 0.3007 0.9066 0.3343
H15_8 H 0.3789 0.8895 0.3313
C12_8 C 0.3408(7) 0.9133(7) 0.1780(9)
H16_8 H 0.3555 0.9609 0.1843
C13_8 C 0.2727(7) 0.9119(7) 0.1187(10)
C14_8 C 0.3951(7) 0.8741(6) 0.1113(10)
H17_8 H 0.4399 0.8827 0.1417
H18_8 H 0.3950 0.8907 0.0372
C15_8 C 0.3814(8) 0.7976(7) 0.1114(10)
H19_8 H 0.3398 0.7886 0.0716
H20_8 H 0.4185 0.7745 0.0745
C16_8 C 0.3606(6) 0.6921(6) 0.2288(11)
O1_8 O 0.3495(7) 0.6597(6) 0.1412(7)
O2_8 O 0.3580(7) 0.6615(5) 0.3160(8)
O3_8 O 0.2527(5) 0.5378(5) 0.0737(7)
O4_8 O 0.2072(5) 0.5715(4) 0.2288(6)
C3_8 C 0.1337(8) 0.5866(7) 0.9633(9)
H2_8 H 0.1710 0.5644 0.9254
H3_8 H 0.0918 0.5765 0.9246
C4_8 C 0.1456(8) 0.6649(6) 0.9637(8)
H4_8 H 0.1468 0.6819 0.8898
H5_8 H 0.1891 0.6752 0.9977
H6_8 H 0.0458 0.6869 0.9896
loop_
_geom_bond_atom_site_label_1
_geom_bond_atom_site_label_2
_geom_bond_site_symmetry_1
_geom_bond_site_symmetry_2
C1 C2 1_555 1_555
C2 H1 1_555 1_555
C3 C2 1_555 1_555
H2 C3 1_555 1_555
H3 C3 1_555 1_555
C4 C3 1_555 1_555
H4 C4 1_555 1_555
H5 C4 1_555 1_555
C5 C4 1_555 1_555
H6 C5 1_555 1_555
C6 C5 1_555 1_555
H7 C6 1_555 1_555
H8 C6 1_555 1_555
C7 C2 1_555 1_555
H9 C7 1_555 1_555
H10 C7 1_555 1_555
C8 C5 1_555 1_555
C9 H11 1_555 1_555
C10 C9 1_555 1_555
H12 C10 1_555 1_555
H13 C10 1_555 1_555
C11 C10 1_555 1_555
H14 C11 1_555 1_555
H15 C11 1_555 1_555
C12 C11 1_555 1_555
H16 C12 1_555 1_555
C13 C12 1_555 1_555
C14 C12 1_555 1_555
H17 C14 1_555 1_555
H18 C14 1_555 1_555
C15 C9 1_555 1_555
H19 C15 1_555 1_555
H20 C15 1_555 1_555
C16 C9 1_555 1_555
O1 C16 1_555 1_555
O2 C16 1_555 1_555
O3 C1 1_555 1_555
O4 C1 1_555 1_555
O5 C13 1_555 1_555
O6 C13 1_555 1_555
O7 C8 1_555 1_555
O8 C8 1_555 1_555
Pb1 O1 1_555 1_555
Pb2 O2 1_555 1_555
O12 Pb1 1_555 1_555
Pb3 O6 1_555 1_555
Pb4 O7 1_555 1_555
Pb5 O5 1_555 1_555
C6 C7 1_555 1_555
C14 C15 1_555 1_555
O2 Pb1 1_555 1_555
O3 Pb1 1_555 1_555
O4 Pb1 1_555 1_555
O6 Pb5 1_555 1_555
O8 Pb5 1_555 1_555
C1_2 C2_2 1_555 1_555
C2_2 H1_2 1_555 1_555
C3_2 C2_2 1_555 1_555
H2_2 C3_2 1_555 1_555
H3_2 C3_2 1_555 1_555
C4_2 C3_2 1_555 1_555
H4_2 C4_2 1_555 1_555
H5_2 C4_2 1_555 1_555
C5_2 C4_2 1_555 1_555
H6_2 C5_2 1_555 1_555
C6_2 C5_2 1_555 1_555
H7_2 C6_2 1_555 1_555
H8_2 C6_2 1_555 1_555
C7_2 C2_2 1_555 1_555
H9_2 C7_2 1_555 1_555
H10_2 C7_2 1_555 1_555
C8_2 C5_2 1_555 1_555
C9_2 H11_2 1_555 1_555
C10_2 C9_2 1_555 1_555
H12_2 C10_2 1_555 1_555
H13_2 C10_2 1_555 1_555
C11_2 C10_2 1_555 1_555
H14_2 C11_2 1_555 1_555
H15_2 C11_2 1_555 1_555
C12_2 C11_2 1_555 1_555
H16_2 C12_2 1_555 1_555
C13_2 C12_2 1_555 1_555
C14_2 C12_2 1_555 1_555
H17_2 C14_2 1_555 1_555
H18_2 C14_2 1_555 1_555
C15_2 C9_2 1_555 1_555
H19_2 C15_2 1_555 1_555
H20_2 C15_2 1_555 1_555
C16_2 C9_2 1_555 1_555
O1_2 C16_2 1_555 1_555
O2_2 C16_2 1_555 1_555
O3_2 C1_2 1_555 1_555
O4_2 C1_2 1_555 1_555
O5_2 C13_2 1_555 1_555
O6_2 C13_2 1_555 1_555
O7_2 C8_2 1_555 1_555
O8_2 C8_2 1_555 1_555
Pb1_2 O1_2 1_555 1_555
Pb2_2 O2_2 1_555 1_555
O12_2 Pb1_2 1_555 1_555
Pb3_2 O6_2 1_555 1_555
Pb3 O7_2 1_555 1_555
Pb5_2 O5_2 1_555 1_555
C6_2 C7_2 1_555 1_555
C14_2 C15_2 1_555 1_555
O2_2 Pb1_2 1_555 1_555
O3_2 Pb1_2 1_555 1_555
O4_2 Pb1_2 1_555 1_555
O6_2 Pb5_2 1_555 1_555
O8_2 Pb5_2 1_555 1_555
H2_3 C3_3 1_555 1_555
H3_3 C3_3 1_555 1_555
C4_3 C3_3 1_555 1_555
H4_3 C4_3 1_555 1_555
H5_3 C4_3 1_555 1_555
C1_3 C2_3 1_555 1_555
C2_3 H1_3 1_555 1_555
C6_3 C5_3 1_555 1_555
H7_3 C6_3 1_555 1_555
H8_3 C6_3 1_555 1_555
C7_3 C2_3 1_555 1_555
H9_3 C7_3 1_555 1_555
H10_3 C7_3 1_555 1_555
C8_3 C5_3 1_555 1_555
C9_3 H11_3 1_555 1_555
C10_3 C9_3 1_555 1_555
H12_3 C10_3 1_555 1_555
H13_3 C10_3 1_555 1_555
C11_3 C10_3 1_555 1_555
H14_3 C11_3 1_555 1_555
H15_3 C11_3 1_555 1_555
C12_3 C11_3 1_555 1_555
H16_3 C12_3 1_555 1_555
C13_3 C12_3 1_555 1_555
C14_3 C12_3 1_555 1_555
H17_3 C14_3 1_555 1_555
H18_3 C14_3 1_555 1_555
C15_3 C9_3 1_555 1_555
H19_3 C15_3 1_555 1_555
H20_3 C15_3 1_555 1_555
C16_3 C9_3 1_555 1_555
O1_3 C16_3 1_555 1_555
O2_3 C16_3 1_555 1_555
O3_3 C1_3 1_555 1_555
O4_3 C1_3 1_555 1_555
O9_2 C13_3 1_555 1_555
O10 C13_3 1_555 1_555
O13_2 C8_3 1_555 1_555
Pb3 O1_3 1_555 1_555
Pb5_2 O2_3 1_555 1_555
C6_3 C7_3 1_555 1_555
C14_3 C15_3 1_555 1_555
O2_3 Pb3 1_555 1_555
O3_3 Pb3 1_555 1_555
O4_3 Pb3 1_555 1_555
C1_4 C2_4 1_555 1_555
C2_4 H1_4 1_555 1_555
C3_4 C2_4 1_555 1_555
H2_4 C3_4 1_555 1_555
H3_4 C3_4 1_555 1_555
C4_4 C3_4 1_555 1_555
H4_4 C4_4 1_555 1_555
H5_4 C4_4 1_555 1_555
C5_4 C4_4 1_555 1_555
H6_4 C5_4 1_555 1_555
C6_4 C5_4 1_555 1_555
H7_4 C6_4 1_555 1_555
H8_4 C6_4 1_555 1_555
C7_4 C2_4 1_555 1_555
H9_4 C7_4 1_555 1_555
H10_4 C7_4 1_555 1_555
C8_4 C5_4 1_555 1_555
C9_4 H11_4 1_555 1_555
C10_4 C9_4 1_555 1_555
H12_4 C10_4 1_555 1_555
H13_4 C10_4 1_555 1_555
C11_4 C10_4 1_555 1_555
H14_4 C11_4 1_555 1_555
H15_4 C11_4 1_555 1_555
C12_4 C11_4 1_555 1_555
H16_4 C12_4 1_555 1_555
C13_4 C12_4 1_555 1_555
C14_4 C12_4 1_555 1_555
H17_4 C14_4 1_555 1_555
H18_4 C14_4 1_555 1_555
C15_4 C9_4 1_555 1_555
H19_4 C15_4 1_555 1_555
H20_4 C15_4 1_555 1_555
C16_4 C9_4 1_555 1_555
O1_4 C16_4 1_555 1_555
O2_4 C16_4 1_555 1_555
O3_4 C1_4 1_555 1_555
O4_4 C1_4 1_555 1_555
O5_3 C13_4 1_555 1_555
O6_3 C13_4 1_555 1_555
O7_3 C8_4 1_555 1_555
O8_3 C8_4 1_555 1_555
Pb1_3 O1_4 1_555 1_555
Pb2_3 O2_4 1_555 1_555
O12_3 Pb1_3 1_555 1_555
Pb3_3 O6_3 1_555 1_555
Pb3_2 O7_3 1_555 1_555
Pb5_3 O5_3 1_555 1_555
C6_4 C7_4 1_555 1_555
C14_4 C15_4 1_555 1_555
O2_4 Pb1_3 1_555 1_555
O3_4 Pb1_3 1_555 1_555
O4_4 Pb1_3 1_555 1_555
O6_3 Pb5_3 1_555 1_555
O8_3 Pb5_3 1_555 1_555
C1_5 C2_5 1_555 1_555
C2_5 H1_5 1_555 1_555
C6_5 C5_5 1_555 1_555
H7_5 C6_5 1_555 1_555
H8_5 C6_5 1_555 1_555
C7_5 C2_5 1_555 1_555
H9_5 C7_5 1_555 1_555
H10_5 C7_5 1_555 1_555
C8_5 C5_5 1_555 1_555
C9_5 H11_5 1_555 1_555
C10_5 C9_5 1_555 1_555
H12_5 C10_5 1_555 1_555
H13_5 C10_5 1_555 1_555
C11_5 C10_5 1_555 1_555
H14_5 C11_5 1_555 1_555
H15_5 C11_5 1_555 1_555
C12_5 C11_5 1_555 1_555
H16_5 C12_5 1_555 1_555
C13_5 C12_5 1_555 1_555
C14_5 C12_5 1_555 1_555
H17_5 C14_5 1_555 1_555
H18_5 C14_5 1_555 1_555
C15_5 C9_5 1_555 1_555
H19_5 C15_5 1_555 1_555
H20_5 C15_5 1_555 1_555
C16_5 C9_5 1_555 1_555
O1_5 C16_5 1_555 1_555
O2_5 C16_5 1_555 1_555
O3_5 C1_5 1_555 1_555
O4_5 C1_5 1_555 1_555
O9_3 C13_5 1_555 1_555
O10_2 C13_5 1_555 1_555
O13_3 C8_5 1_555 1_555
Pb3_2 O1_5 1_555 1_555
Pb5_3 O2_5 1_555 1_555
C6_5 C7_5 1_555 1_555
C14_5 C15_5 1_555 1_555
O2_5 Pb3_2 1_555 1_555
O3_5 Pb3_2 1_555 1_555
O4_5 Pb3_2 1_555 1_555
H2_5 C3_5 1_555 1_555
H3_5 C3_5 1_555 1_555
C4_5 C3_5 1_555 1_555
H4_5 C4_5 1_555 1_555
H5_5 C4_5 1_555 1_555
C1_6 C2_6 1_555 1_555
C2_6 H1_6 1_555 1_555
C3_6 C2_6 1_555 1_555
H2_6 C3_6 1_555 1_555
H3_6 C3_6 1_555 1_555
C4_6 C3_6 1_555 1_555
H4_6 C4_6 1_555 1_555
H5_6 C4_6 1_555 1_555
C5_6 C4_6 1_555 1_555
H6_6 C5_6 1_555 1_555
C6_6 C5_6 1_555 1_555
H7_6 C6_6 1_555 1_555
H8_6 C6_6 1_555 1_555
C7_6 C2_6 1_555 1_555
H9_6 C7_6 1_555 1_555
H10_6 C7_6 1_555 1_555
C8_6 C5_6 1_555 1_555
C9_6 H11_6 1_555 1_555
C10_6 C9_6 1_555 1_555
H12_6 C10_6 1_555 1_555
H13_6 C10_6 1_555 1_555
C11_6 C10_6 1_555 1_555
H14_6 C11_6 1_555 1_555
H15_6 C11_6 1_555 1_555
C12_6 C11_6 1_555 1_555
H16_6 C12_6 1_555 1_555
C13_6 C12_6 1_555 1_555
C14_6 C12_6 1_555 1_555
H17_6 C14_6 1_555 1_555
H18_6 C14_6 1_555 1_555
C15_6 C9_6 1_555 1_555
H19_6 C15_6 1_555 1_555
H20_6 C15_6 1_555 1_555
C16_6 C9_6 1_555 1_555
O1_6 C16_6 1_555 1_555
O2_6 C16_6 1_555 1_555
O3_6 C1_6 1_555 1_555
O4_6 C1_6 1_555 1_555
O5_4 C13_6 1_555 1_555
O6_4 C13_6 1_555 1_555
O7_4 C8_6 1_555 1_555
O8_4 C8_6 1_555 1_555
Pb1_4 O1_6 1_555 1_555
Pb2_4 O2_6 1_555 1_555
O12_4 Pb1_4 1_555 1_555
Pb4 O6_4 1_555 1_555
Pb3_3 O7_4 1_555 1_555
Pb5_4 O5_4 1_555 1_555
C6_6 C7_6 1_555 1_555
C14_6 C15_6 1_555 1_555
O2_6 Pb1_4 1_555 1_555
O3_6 Pb1_4 1_555 1_555
O4_6 Pb1_4 1_555 1_555
O6_4 Pb5_4 1_555 1_555
O8_4 Pb5_4 1_555 1_555
H2_7 C3_7 1_555 1_555
H3_7 C3_7 1_555 1_555
C4_7 C3_7 1_555 1_555
H4_7 C4_7 1_555 1_555
H5_7 C4_7 1_555 1_555
C1_7 C2_7 1_555 1_555
C2_7 H1_7 1_555 1_555
C6_7 C5_7 1_555 1_555
H7_7 C6_7 1_555 1_555
H8_7 C6_7 1_555 1_555
C7_7 C2_7 1_555 1_555
H9_7 C7_7 1_555 1_555
H10_7 C7_7 1_555 1_555
C8_7 C5_7 1_555 1_555
C9_7 H11_7 1_555 1_555
C10_7 C9_7 1_555 1_555
H12_7 C10_7 1_555 1_555
H13_7 C10_7 1_555 1_555
C11_7 C10_7 1_555 1_555
H14_7 C11_7 1_555 1_555
H15_7 C11_7 1_555 1_555
C12_7 C11_7 1_555 1_555
H16_7 C12_7 1_555 1_555
C13_7 C12_7 1_555 1_555
C14_7 C12_7 1_555 1_555
H17_7 C14_7 1_555 1_555
H18_7 C14_7 1_555 1_555
C15_7 C9_7 1_555 1_555
H19_7 C15_7 1_555 1_555
H20_7 C15_7 1_555 1_555
C16_7 C9_7 1_555 1_555
O1_7 C16_7 1_555 1_555
O2_7 C16_7 1_555 1_555
O3_7 C1_7 1_555 1_555
O4_7 C1_7 1_555 1_555
O9_4 C13_7 1_555 1_555
O10_3 C13_7 1_555 1_555
O13_4 C8_7 1_555 1_555
Pb3_3 O1_7 1_555 1_555
Pb5_4 O2_7 1_555 1_555
C6_7 C7_7 1_555 1_555
C14_7 C15_7 1_555 1_555
O2_7 Pb3_3 1_555 1_555
O3_7 Pb3_3 1_555 1_555
O4_7 Pb3_3 1_555 1_555
C1_8 C2_8 1_555 1_555
C2_8 H1_8 1_555 1_555
C6_8 C5_8 1_555 1_555
H7_8 C6_8 1_555 1_555
H8_8 C6_8 1_555 1_555
C7_8 C2_8 1_555 1_555
H9_8 C7_8 1_555 1_555
H10_8 C7_8 1_555 1_555
C8_8 C5_8 1_555 1_555
C9_8 H11_8 1_555 1_555
C10_8 C9_8 1_555 1_555
H12_8 C10_8 1_555 1_555
H13_8 C10_8 1_555 1_555
C11_8 C10_8 1_555 1_555
H14_8 C11_8 1_555 1_555
H15_8 C11_8 1_555 1_555
C12_8 C11_8 1_555 1_555
H16_8 C12_8 1_555 1_555
C13_8 C12_8 1_555 1_555
C14_8 C12_8 1_555 1_555
H17_8 C14_8 1_555 1_555
H18_8 C14_8 1_555 1_555
C15_8 C9_8 1_555 1_555
H19_8 C15_8 1_555 1_555
H20_8 C15_8 1_555 1_555
C16_8 C9_8 1_555 1_555
O1_8 C16_8 1_555 1_555
O2_8 C16_8 1_555 1_555
O3_8 C1_8 1_555 1_555
O4_8 C1_8 1_555 1_555
O9 C13_8 1_555 1_555
O11 C13_8 1_555 1_555
O13 C8_8 1_555 1_555
Pb4 O1_8 1_555 1_555
Pb5 O2_8 1_555 1_555
C6_8 C7_8 1_555 1_555
C14_8 C15_8 1_555 1_555
O2_8 Pb4 1_555 1_555
O3_8 Pb4 1_555 1_555
O4_8 Pb4 1_555 1_555
H2_8 C3_8 1_555 1_555
H3_8 C3_8 1_555 1_555
C4_8 C3_8 1_555 1_555
H4_8 C4_8 1_555 1_555
H5_8 C4_8 1_555 1_555

#END
