
###############################################################################
#
# This file contains modified crystal structure data generated from the
# MOF subset of the Cambridge Structural Database (CSD) v543 
# hosted by the Cambridge Crystallographic Data Centre (CCDC).
#
# This work is licensed under the Creative Commons
# Attribution-NonCommercial-ShareAlike 4.0 International License.
# To view a copy of this license, visit
# http://creativecommons.org/licenses/by-nc-sa/4.0/
# or send a letter to
# Creative Commons, PO Box 1866, Mountain View, CA 94042, USA.
#
# CIF created using the CSD Python API on 29 September 2022
# The structure has been converted into the P1 space group
# The structure has a 3D framework
# The original CSD entry YICYUH is in the monoclinic crystal system
# The framework has been calculated to contain at least 10.0% void space
# The void calculation uses a probe of radius 1.32A, grid spacing 0.4
#
###############################################################################

data_YICYUH
_chemical_formula_moiety         '(C104 H92 N8 O26 Sm2)n'
_symmetry_cell_setting           triclinic
_symmetry_space_group_name_H-M   'P 1'
_symmetry_Int_Tables_number      1
_space_group_name_Hall           'P 1'
loop_
_symmetry_equiv_pos_site_id
_symmetry_equiv_pos_as_xyz
1 x,y,z
_cell_length_a                   15.709(3)
_cell_length_b                   9.8734(16)
_cell_length_c                   21.052(4)
_cell_angle_alpha                90
_cell_angle_beta                 107.544(4)
_cell_angle_gamma                90
_cell_volume                     3113.31
loop_
_atom_site_label
_atom_site_type_symbol
_atom_site_fract_x
_atom_site_fract_y
_atom_site_fract_z
Sm2 Sm 0.39377(2) 0.04141(2) 0.53434(2)
O1 O 0.39111(13) 0.1699(2) 0.43771(10)
O2 O 0.49356(13) 0.0904(2) 0.39314(10)
O4 O 0.31342(14) 0.1206(2) 0.08644(10)
O7 O 0.43087(13) 0.8843(2) 0.46450(10)
O8 O 0.50971(13) 0.7792(2) 0.40877(10)
N1 N 0.15623(14) 0.3663(2) 0.23564(12)
C1 C 0.41812(18) 0.1395(3) 0.38897(14)
C2 C 0.35651(17) 0.1624(3) 0.31946(14)
C3 C 0.37520(18) 0.1004(3) 0.26541(14)
H1 H 0.4256 0.0427 0.2722
C4 C 0.31849(17) 0.1250(3) 0.20154(13)
C5 C 0.33728(17) 0.0600(3) 0.14263(14)
C6 C 0.24586(17) 0.2129(3) 0.19171(14)
H2 H 0.2083 0.2295 0.1477
C7 C 0.22742(17) 0.2769(3) 0.24556(14)
C8 C 0.28334(17) 0.2468(3) 0.31008(14)
H3 H 0.2707 0.2850 0.3477
C9 C 0.11041(18) 0.4176(3) 0.16924(14)
H4 H 0.1521 0.4140 0.1422
H5 H 0.0950 0.5139 0.1730
C10 C 0.02576(17) 0.3412(3) 0.13256(14)
C11 C 0.00078(18) 0.2199(3) 0.15570(15)
H6 H 0.0379 0.1805 0.1956
C17 C 0.14406(17) 0.4415(3) 0.29137(14)
H10 H 0.1409 0.3765 0.3264
H11 H 0.0862 0.4896 0.2763
C18 C 0.21715(17) 0.5441(3) 0.32178(14)
C19 C 0.2223(2) 0.6010(4) 0.38266(17)
H12 H 0.1780 0.5802 0.4035
C20 C 0.2915(2) 0.6884(4) 0.41387(17)
H13 H 0.2932 0.7291 0.4551
C21 C 0.35763(18) 0.7162(3) 0.38531(14)
C22 C 0.43748(18) 0.7985(3) 0.42147(14)
C23 C 0.3501(2) 0.6653(3) 0.32266(16)
H14 H 0.3930 0.6894 0.3010
C24 C 0.2808(2) 0.5799(3) 0.29140(15)
H15 H 0.2766 0.5450 0.2485
Sm5 Sm 0.60623(2) 0.95859(2) 0.46566(2)
O10 O 0.37655(13) 0.0523(2) 0.64918(10)
O12 O 0.23825(13) 0.0302(2) 0.45747(11)
O13 O 0.27486(13) 0.2082(2) 0.52334(10)
O15 O 0.56913(13) 0.1157(2) 0.53550(10)
O16 O 0.49029(13) 0.2208(2) 0.59123(10)
O3 O 0.37655(13) 0.9477(2) 0.14918(10)
Sm6 Sm 0.39377(2) 0.95859(2) 0.03434(2)
O9 O 0.50644(13) 0.9096(2) 0.60686(10)
O11 O 0.31342(14) 0.8794(2) 0.58644(10)
O5 O 0.76175(13) 0.0302(2) 0.04253(11)
C12 C 0.92127(18) 0.1562(3) 0.12029(15)
H7 H 0.9048 0.0733 0.1363
C13 C 0.86589(18) 0.2125(3) 0.06185(14)
C14 C 0.77959(18) 0.1458(3) 0.02504(14)
C15 C 0.89214(19) 0.3338(3) 0.03911(15)
C16 C 0.9707(2) 0.3970(3) 0.07359(15)
H9 H 0.9874 0.4791 0.0571
O6 O 0.72514(13) 0.2082(2) 0.97666(10)
H8 H 0.8552 0.3734 0.9992
Sm3 Sm 0.60623(2) 0.04141(2) 0.96566(2)
C12_2 C 0.07873(18) 0.1562(3) 0.37971(15)
H7_2 H 0.0952 0.0733 0.3637
C13_2 C 0.13411(18) 0.2125(3) 0.43815(14)
C14_2 C 0.22041(18) 0.1458(3) 0.47496(14)
C15_2 C 0.10786(19) 0.3338(3) 0.46089(15)
H8_2 H 0.1448 0.3734 0.5008
C16_2 C 0.0293(2) 0.3970(3) 0.42641(15)
H9_2 H 0.0126 0.4791 0.4429
O1_2 O 0.60889(13) 0.1699(2) 0.06229(10)
O2_2 O 0.50644(13) 0.0904(2) 0.10686(10)
O4_2 O 0.68658(14) 0.1206(2) 0.41356(10)
O7_2 O 0.56913(13) 0.8843(2) 0.03550(10)
O8_2 O 0.49029(13) 0.7792(2) 0.09123(10)
N1_2 N 0.84377(14) 0.3663(2) 0.26436(12)
C1_2 C 0.58188(18) 0.1395(3) 0.11103(14)
C2_2 C 0.64349(17) 0.1624(3) 0.18054(14)
C3_2 C 0.62480(18) 0.1004(3) 0.23459(14)
H1_2 H 0.5744 0.0427 0.2278
C4_2 C 0.68151(17) 0.1250(3) 0.29846(13)
C5_2 C 0.66272(17) 0.0600(3) 0.35737(14)
C6_2 C 0.75414(17) 0.2129(3) 0.30829(14)
H2_2 H 0.7917 0.2295 0.3523
C7_2 C 0.77258(17) 0.2769(3) 0.25444(14)
C8_2 C 0.71666(17) 0.2468(3) 0.18992(14)
H3_2 H 0.7293 0.2850 0.1523
C9_2 C 0.88959(18) 0.4176(3) 0.33076(14)
H4_2 H 0.8479 0.4140 0.3578
H5_2 H 0.9050 0.5139 0.3270
C10_2 C 0.97424(17) 0.3412(3) 0.36744(14)
C11_2 C 0.99922(18) 0.2199(3) 0.34430(15)
H6_2 H 0.9621 0.1805 0.3044
C17_2 C 0.85594(17) 0.4415(3) 0.20863(14)
H10_2 H 0.8591 0.3765 0.1736
H11_2 H 0.9138 0.4896 0.2237
C18_2 C 0.78285(17) 0.5441(3) 0.17822(14)
C19_2 C 0.7777(2) 0.6010(4) 0.11734(17)
H12_2 H 0.8220 0.5802 0.0965
C20_2 C 0.7085(2) 0.6884(4) 0.08613(17)
H13_2 H 0.7068 0.7291 0.0449
C21_2 C 0.64237(18) 0.7162(3) 0.11469(14)
C22_2 C 0.56252(18) 0.7985(3) 0.07853(14)
C23_2 C 0.6499(2) 0.6653(3) 0.17734(16)
H14_2 H 0.6070 0.6894 0.1990
C24_2 C 0.7192(2) 0.5799(3) 0.20860(15)
H15_2 H 0.7234 0.5450 0.2515
O10_2 O 0.62345(13) 0.0523(2) 0.85082(10)
O15_2 O 0.43087(13) 0.1157(2) 0.96450(10)
O16_2 O 0.50971(13) 0.2208(2) 0.90877(10)
O3_2 O 0.62345(13) 0.9477(2) 0.35082(10)
O9_2 O 0.49356(13) 0.9096(2) 0.89314(10)
O11_2 O 0.68658(14) 0.8794(2) 0.91356(10)
O6_2 O 0.27486(13) 0.7918(2) 0.02334(10)
H8_3 H 0.1448 0.6266 0.0008
O5_2 O 0.23825(13) 0.9698(2) 0.95747(11)
C12_3 C 0.07873(18) 0.8438(3) 0.87971(15)
H7_3 H 0.0952 0.9267 0.8637
C13_3 C 0.13411(18) 0.7875(3) 0.93815(14)
C14_3 C 0.22041(18) 0.8542(3) 0.97496(14)
C15_3 C 0.10786(19) 0.6662(3) 0.96089(15)
C16_3 C 0.0293(2) 0.6030(3) 0.92641(15)
H9_3 H 0.0126 0.5209 0.9429
O1_3 O 0.60889(13) 0.8301(2) 0.56229(10)
N1_3 N 0.84377(14) 0.6337(2) 0.76436(12)
C1_3 C 0.58188(18) 0.8605(3) 0.61103(14)
C2_3 C 0.64349(17) 0.8376(3) 0.68054(14)
C3_3 C 0.62480(18) 0.8996(3) 0.73459(14)
H1_3 H 0.5744 0.9573 0.7278
C4_3 C 0.68151(17) 0.8750(3) 0.79846(13)
C5_3 C 0.66272(17) 0.9400(3) 0.85737(14)
C6_3 C 0.75414(17) 0.7871(3) 0.80829(14)
H2_3 H 0.7917 0.7705 0.8523
C7_3 C 0.77258(17) 0.7231(3) 0.75444(14)
C8_3 C 0.71666(17) 0.7532(3) 0.68992(14)
H3_3 H 0.7293 0.7150 0.6523
C9_3 C 0.88959(18) 0.5824(3) 0.83076(14)
H4_3 H 0.8479 0.5860 0.8578
H5_3 H 0.9050 0.4861 0.8270
C10_3 C 0.97424(17) 0.6588(3) 0.86744(14)
C11_3 C 0.99922(18) 0.7801(3) 0.84430(15)
H6_3 H 0.9621 0.8195 0.8044
C17_3 C 0.85594(17) 0.5585(3) 0.70863(14)
H10_3 H 0.8591 0.6235 0.6736
H11_3 H 0.9138 0.5104 0.7237
C18_3 C 0.78285(17) 0.4559(3) 0.67822(14)
C19_3 C 0.7777(2) 0.3990(4) 0.61734(17)
H12_3 H 0.8220 0.4198 0.5965
C20_3 C 0.7085(2) 0.3116(4) 0.58613(17)
H13_3 H 0.7068 0.2709 0.5449
C21_3 C 0.64237(18) 0.2838(3) 0.61469(14)
C22_3 C 0.56252(18) 0.2015(3) 0.57853(14)
C23_3 C 0.6499(2) 0.3347(3) 0.67734(16)
H14_3 H 0.6070 0.3106 0.6990
C24_3 C 0.7192(2) 0.4201(3) 0.70860(15)
H15_3 H 0.7234 0.4550 0.7515
O12_2 O 0.76175(13) 0.9698(2) 0.54253(11)
O13_2 O 0.72514(13) 0.7918(2) 0.47666(10)
O1_4 O 0.39111(13) 0.8301(2) 0.93771(10)
N1_4 N 0.15623(14) 0.6337(2) 0.73564(12)
C1_4 C 0.41812(18) 0.8605(3) 0.88897(14)
C2_4 C 0.35651(17) 0.8376(3) 0.81946(14)
C3_4 C 0.37520(18) 0.8996(3) 0.76541(14)
H1_4 H 0.4256 0.9573 0.7722
C4_4 C 0.31849(17) 0.8750(3) 0.70154(13)
C5_4 C 0.33728(17) 0.9400(3) 0.64263(14)
C6_4 C 0.24586(17) 0.7871(3) 0.69171(14)
H2_4 H 0.2083 0.7705 0.6477
C7_4 C 0.22742(17) 0.7231(3) 0.74556(14)
C8_4 C 0.28334(17) 0.7532(3) 0.81008(14)
H3_4 H 0.2707 0.7150 0.8477
C9_4 C 0.11041(18) 0.5824(3) 0.66924(14)
H4_4 H 0.1521 0.5860 0.6422
H5_4 H 0.0950 0.4861 0.6730
C10_4 C 0.02576(17) 0.6588(3) 0.63256(14)
C11_4 C 0.00078(18) 0.7801(3) 0.65570(15)
H6_4 H 0.0379 0.8195 0.6956
C17_4 C 0.14406(17) 0.5585(3) 0.79137(14)
H10_4 H 0.1409 0.6235 0.8264
H11_4 H 0.0862 0.5104 0.7763
C18_4 C 0.21715(17) 0.4559(3) 0.82178(14)
C19_4 C 0.2223(2) 0.3990(4) 0.88266(17)
H12_4 H 0.1780 0.4198 0.9035
C20_4 C 0.2915(2) 0.3116(4) 0.91387(17)
H13_4 H 0.2932 0.2709 0.9551
C21_4 C 0.35763(18) 0.2838(3) 0.88531(14)
C22_4 C 0.43748(18) 0.2015(3) 0.92147(14)
C23_4 C 0.3501(2) 0.3347(3) 0.82266(16)
H14_4 H 0.3930 0.3106 0.8010
C24_4 C 0.2808(2) 0.4201(3) 0.79140(15)
H15_4 H 0.2766 0.4550 0.7485
C12_4 C 0.92127(18) 0.8438(3) 0.62029(15)
H7_4 H 0.9048 0.9267 0.6363
C13_4 C 0.86589(18) 0.7875(3) 0.56185(14)
C14_4 C 0.77959(18) 0.8542(3) 0.52504(14)
C15_4 C 0.89214(19) 0.6662(3) 0.53911(15)
H8_4 H 0.8552 0.6266 0.4992
C16_4 C 0.9707(2) 0.6030(3) 0.57359(15)
H9_4 H 0.9874 0.5209 0.5571
N2 N 0.6539(5) 0.5328(7) 0.4370(4)
H16 H 0.6977 0.4922 0.4699
H17 H 0.6462 0.6151 0.4540
C25 C 0.5817(7) 0.4662(13) 0.4399(7)
H18 H 0.5297 0.5264 0.4264
H19 H 0.5903 0.4349 0.4856
H20 H 0.5717 0.3880 0.4099
C26 C 0.7003(6) 0.5684(8) 0.3902(4)
H21 H 0.6604 0.6204 0.3535
H22 H 0.7194 0.4858 0.3725
H23 H 0.7527 0.6233 0.4125
N2_2 N 0.3461(5) 0.5328(7) 0.0630(4)
H16_2 H 0.3023 0.4922 0.0301
H17_2 H 0.3538 0.6151 0.0460
C25_2 C 0.4183(7) 0.4662(13) 0.0601(7)
H18_2 H 0.4703 0.5264 0.0736
H19_2 H 0.4097 0.4349 0.0144
H20_2 H 0.4283 0.3880 0.0901
C26_2 C 0.2997(6) 0.5684(8) 0.1098(4)
H21_2 H 0.3396 0.6204 0.1465
H22_2 H 0.2806 0.4858 0.1275
H23_2 H 0.2473 0.6233 0.0875
N2_3 N 0.3461(5) 0.4672(7) 0.5630(4)
H16_3 H 0.3023 0.5078 0.5301
H17_3 H 0.3538 0.3849 0.5460
C25_3 C 0.4183(7) 0.5338(13) 0.5601(7)
H18_3 H 0.4703 0.4736 0.5736
H19_3 H 0.4097 0.5651 0.5144
H20_3 H 0.4283 0.6120 0.5901
C26_3 C 0.2997(6) 0.4316(8) 0.6098(4)
H21_3 H 0.3396 0.3796 0.6465
H22_3 H 0.2806 0.5142 0.6275
H23_3 H 0.2473 0.3767 0.5875
N2_4 N 0.6539(5) 0.4672(7) 0.9370(4)
H16_4 H 0.6977 0.5078 0.9699
H17_4 H 0.6462 0.3849 0.9540
C25_4 C 0.5817(7) 0.5338(13) 0.9399(7)
H18_4 H 0.5297 0.4736 0.9264
H19_4 H 0.5903 0.5651 0.9856
H20_4 H 0.5717 0.6120 0.9099
C26_4 C 0.7003(6) 0.4316(8) 0.8902(4)
H21_4 H 0.6604 0.3796 0.8535
H22_4 H 0.7194 0.5142 0.8725
H23_4 H 0.7527 0.3767 0.9125
loop_
_geom_bond_atom_site_label_1
_geom_bond_atom_site_label_2
_geom_bond_site_symmetry_1
_geom_bond_site_symmetry_2
Sm2 O1 1_555 1_555
O1 C1 1_555 1_555
O2 C1 1_555 1_555
O4 C5 1_555 1_555
O7 C22 1_555 1_555
O8 C22 1_555 1_555
N1 C7 1_555 1_555
C1 C2 1_555 1_555
C2 C3 1_555 1_555
C3 H1 1_555 1_555
C4 C3 1_555 1_555
C5 C4 1_555 1_555
C6 C4 1_555 1_555
H2 C6 1_555 1_555
C7 C6 1_555 1_555
C8 C2 1_555 1_555
H3 C8 1_555 1_555
C9 N1 1_555 1_555
H4 C9 1_555 1_555
H5 C9 1_555 1_555
C10 C9 1_555 1_555
C11 C10 1_555 1_555
H6 C11 1_555 1_555
C17 N1 1_555 1_555
H10 C17 1_555 1_555
H11 C17 1_555 1_555
C18 C17 1_555 1_555
C19 C18 1_555 1_555
H12 C19 1_555 1_555
C20 C19 1_555 1_555
H13 C20 1_555 1_555
C21 C20 1_555 1_555
C22 C21 1_555 1_555
C23 C21 1_555 1_555
H14 C23 1_555 1_555
C24 C18 1_555 1_555
H15 C24 1_555 1_555
Sm5 O7 1_555 1_555
O10 Sm2 1_555 1_555
O12 Sm2 1_555 1_555
O13 Sm2 1_555 1_555
O15 Sm2 1_555 1_555
O16 Sm2 1_555 1_555
O8 Sm5 1_555 1_555
C7 C8 1_555 1_555
C23 C24 1_555 1_555
Sm6 O3 1_555 1_555
O5 C14 1_555 1_555
H7 C12 1_555 1_555
C13 C12 1_555 1_555
C14 C13 1_555 1_555
C15 C13 1_555 1_555
H9 C16 1_555 1_555
C15 C16 1_555 1_555
O6 Sm3 1_555 1_555
O12 C14_2 1_555 1_555
O13 C14_2 1_555 1_555
H7_2 C12_2 1_555 1_555
C13_2 C12_2 1_555 1_555
C14_2 C13_2 1_555 1_555
C15_2 C13_2 1_555 1_555
H8_2 C15_2 1_555 1_555
H9_2 C16_2 1_555 1_555
C15_2 C16_2 1_555 1_555
O1_2 C1_2 1_555 1_555
O2_2 C1_2 1_555 1_555
O4_2 C5_2 1_555 1_555
O7_2 C22_2 1_555 1_555
O8_2 C22_2 1_555 1_555
N1_2 C7_2 1_555 1_555
C1_2 C2_2 1_555 1_555
C2_2 C3_2 1_555 1_555
C3_2 H1_2 1_555 1_555
C4_2 C3_2 1_555 1_555
C5_2 C4_2 1_555 1_555
C6_2 C4_2 1_555 1_555
H2_2 C6_2 1_555 1_555
C7_2 C6_2 1_555 1_555
C8_2 C2_2 1_555 1_555
H3_2 C8_2 1_555 1_555
C9_2 N1_2 1_555 1_555
H4_2 C9_2 1_555 1_555
H5_2 C9_2 1_555 1_555
C10_2 C9_2 1_555 1_555
C11_2 C10_2 1_555 1_555
H6_2 C11_2 1_555 1_555
C17_2 N1_2 1_555 1_555
H10_2 C17_2 1_555 1_555
H11_2 C17_2 1_555 1_555
C18_2 C17_2 1_555 1_555
C19_2 C18_2 1_555 1_555
H12_2 C19_2 1_555 1_555
C20_2 C19_2 1_555 1_555
H13_2 C20_2 1_555 1_555
C21_2 C20_2 1_555 1_555
C22_2 C21_2 1_555 1_555
C23_2 C21_2 1_555 1_555
H14_2 C23_2 1_555 1_555
C24_2 C18_2 1_555 1_555
H15_2 C24_2 1_555 1_555
Sm6 O7_2 1_555 1_555
O8_2 Sm6 1_555 1_555
C7_2 C8_2 1_555 1_555
C23_2 C24_2 1_555 1_555
O10_2 Sm3 1_555 1_555
O15_2 Sm3 1_555 1_555
O16_2 Sm3 1_555 1_555
Sm5 O3_2 1_555 1_555
O6_2 Sm6 1_555 1_555
O5_2 C14_3 1_555 1_555
H7_3 C12_3 1_555 1_555
C13_3 C12_3 1_555 1_555
C14_3 C13_3 1_555 1_555
C15_3 C13_3 1_555 1_555
H9_3 C16_3 1_555 1_555
C15_3 C16_3 1_555 1_555
Sm5 O1_3 1_555 1_555
O1_3 C1_3 1_555 1_555
O9 C1_3 1_555 1_555
O11_2 C5_3 1_555 1_555
O15 C22_3 1_555 1_555
O16 C22_3 1_555 1_555
N1_3 C7_3 1_555 1_555
C1_3 C2_3 1_555 1_555
C2_3 C3_3 1_555 1_555
C3_3 H1_3 1_555 1_555
C4_3 C3_3 1_555 1_555
C5_3 C4_3 1_555 1_555
C6_3 C4_3 1_555 1_555
H2_3 C6_3 1_555 1_555
C7_3 C6_3 1_555 1_555
C8_3 C2_3 1_555 1_555
H3_3 C8_3 1_555 1_555
C9_3 N1_3 1_555 1_555
H4_3 C9_3 1_555 1_555
H5_3 C9_3 1_555 1_555
C10_3 C9_3 1_555 1_555
C11_3 C10_3 1_555 1_555
H6_3 C11_3 1_555 1_555
C17_3 N1_3 1_555 1_555
H10_3 C17_3 1_555 1_555
H11_3 C17_3 1_555 1_555
C18_3 C17_3 1_555 1_555
C19_3 C18_3 1_555 1_555
H12_3 C19_3 1_555 1_555
C20_3 C19_3 1_555 1_555
H13_3 C20_3 1_555 1_555
C21_3 C20_3 1_555 1_555
C22_3 C21_3 1_555 1_555
C23_3 C21_3 1_555 1_555
H14_3 C23_3 1_555 1_555
C24_3 C18_3 1_555 1_555
H15_3 C24_3 1_555 1_555
O12_2 Sm5 1_555 1_555
O13_2 Sm5 1_555 1_555
C7_3 C8_3 1_555 1_555
C23_3 C24_3 1_555 1_555
O1_4 C1_4 1_555 1_555
O9_2 C1_4 1_555 1_555
O11 C5_4 1_555 1_555
O15_2 C22_4 1_555 1_555
O16_2 C22_4 1_555 1_555
N1_4 C7_4 1_555 1_555
C1_4 C2_4 1_555 1_555
C2_4 C3_4 1_555 1_555
C3_4 H1_4 1_555 1_555
C4_4 C3_4 1_555 1_555
C5_4 C4_4 1_555 1_555
C6_4 C4_4 1_555 1_555
H2_4 C6_4 1_555 1_555
C7_4 C6_4 1_555 1_555
C8_4 C2_4 1_555 1_555
H3_4 C8_4 1_555 1_555
C9_4 N1_4 1_555 1_555
H4_4 C9_4 1_555 1_555
H5_4 C9_4 1_555 1_555
C10_4 C9_4 1_555 1_555
C11_4 C10_4 1_555 1_555
H6_4 C11_4 1_555 1_555
C17_4 N1_4 1_555 1_555
H10_4 C17_4 1_555 1_555
H11_4 C17_4 1_555 1_555
C18_4 C17_4 1_555 1_555
C19_4 C18_4 1_555 1_555
H12_4 C19_4 1_555 1_555
C20_4 C19_4 1_555 1_555
H13_4 C20_4 1_555 1_555
C21_4 C20_4 1_555 1_555
C22_4 C21_4 1_555 1_555
C23_4 C21_4 1_555 1_555
H14_4 C23_4 1_555 1_555
C24_4 C18_4 1_555 1_555
H15_4 C24_4 1_555 1_555
C7_4 C8_4 1_555 1_555
C23_4 C24_4 1_555 1_555
O12_2 C14_4 1_555 1_555
O13_2 C14_4 1_555 1_555
H7_4 C12_4 1_555 1_555
C13_4 C12_4 1_555 1_555
C14_4 C13_4 1_555 1_555
C15_4 C13_4 1_555 1_555
H8_4 C15_4 1_555 1_555
H9_4 C16_4 1_555 1_555
C15_4 C16_4 1_555 1_555
N2 H16 1_555 1_555
H17 N2 1_555 1_555
C25 N2 1_555 1_555
H18 C25 1_555 1_555
H19 C25 1_555 1_555
H20 C25 1_555 1_555
C26 N2 1_555 1_555
H21 C26 1_555 1_555
H22 C26 1_555 1_555
H23 C26 1_555 1_555
N2_2 H16_2 1_555 1_555
H17_2 N2_2 1_555 1_555
C25_2 N2_2 1_555 1_555
H18_2 C25_2 1_555 1_555
H19_2 C25_2 1_555 1_555
H20_2 C25_2 1_555 1_555
C26_2 N2_2 1_555 1_555
H21_2 C26_2 1_555 1_555
H22_2 C26_2 1_555 1_555
H23_2 C26_2 1_555 1_555
N2_3 H16_3 1_555 1_555
H17_3 N2_3 1_555 1_555
C25_3 N2_3 1_555 1_555
H18_3 C25_3 1_555 1_555
H19_3 C25_3 1_555 1_555
H20_3 C25_3 1_555 1_555
C26_3 N2_3 1_555 1_555
H21_3 C26_3 1_555 1_555
H22_3 C26_3 1_555 1_555
H23_3 C26_3 1_555 1_555
N2_4 H16_4 1_555 1_555
H17_4 N2_4 1_555 1_555
C25_4 N2_4 1_555 1_555
H18_4 C25_4 1_555 1_555
H19_4 C25_4 1_555 1_555
H20_4 C25_4 1_555 1_555
C26_4 N2_4 1_555 1_555
H21_4 C26_4 1_555 1_555
H22_4 C26_4 1_555 1_555
H23_4 C26_4 1_555 1_555

#END
