
###############################################################################
#
# This file contains modified crystal structure data generated from the
# MOF subset of the Cambridge Structural Database (CSD) v543 
# hosted by the Cambridge Crystallographic Data Centre (CCDC).
#
# This work is licensed under the Creative Commons
# Attribution-NonCommercial-ShareAlike 4.0 International License.
# To view a copy of this license, visit
# http://creativecommons.org/licenses/by-nc-sa/4.0/
# or send a letter to
# Creative Commons, PO Box 1866, Mountain View, CA 94042, USA.
#
# CIF created using the CSD Python API on 29 September 2022
# The structure has been converted into the P1 space group
# The structure has a 3D framework
# The original CSD entry YICZES is in the monoclinic crystal system
# The framework has been calculated to contain at least 10.0% void space
# The void calculation uses a probe of radius 1.32A, grid spacing 0.4
#
###############################################################################

data_YICZES
_chemical_formula_moiety         '(C104 H92 Dy2 N8 O26)n'
_symmetry_cell_setting           triclinic
_symmetry_space_group_name_H-M   'P 1'
_symmetry_Int_Tables_number      1
_space_group_name_Hall           'P 1'
loop_
_symmetry_equiv_pos_site_id
_symmetry_equiv_pos_as_xyz
1 x,y,z
_cell_length_a                   15.7583(13)
_cell_length_b                   9.7867(10)
_cell_length_c                   20.9550(18)
_cell_angle_alpha                90
_cell_angle_beta                 108.100(3)
_cell_angle_gamma                90
_cell_volume                     3071.8
loop_
_atom_site_label
_atom_site_type_symbol
_atom_site_fract_x
_atom_site_fract_y
_atom_site_fract_z
Dy2 Dy 0.39557(2) 0.04476(2) 0.53369(2)
O1 O 0.39094(13) 0.1671(2) 0.43620(10)
O2 O 0.50889(12) 0.7774(2) 0.41215(10)
O3 O 0.42876(13) 0.8829(2) 0.46701(10)
O4 O 0.49130(13) 0.0799(2) 0.39153(10)
O8 O 0.31862(14) 0.1219(2) 0.08438(10)
N1 N 0.15677(14) 0.3656(2) 0.23145(12)
C1 C 0.11093(17) 0.4184(3) 0.16475(15)
H1 H 0.1515 0.4114 0.1371
H2 H 0.0979 0.5165 0.1686
C2 C 0.43586(18) 0.7977(3) 0.42356(14)
C3 C 0.28208(17) 0.2432(3) 0.30724(14)
H3 H 0.2695 0.2824 0.3448
C4 C 0.33817(17) 0.0571(3) 0.13985(14)
C5 C 0.02409(17) 0.3449(3) 0.12865(14)
C6 C 0.41693(17) 0.1329(3) 0.38735(14)
C8 C 0.21585(18) 0.5441(3) 0.31867(16)
C9 C 0.14353(18) 0.4402(3) 0.28720(16)
H5 H 0.1404 0.3741 0.3221
H6 H 0.0854 0.4881 0.2714
C11 C 0.22667(16) 0.2735(3) 0.24153(14)
C12 C 0.35457(18) 0.6566(3) 0.32502(15)
H7 H 0.4018 0.6729 0.3067
C13 C 0.35494(17) 0.1564(3) 0.31727(13)
C16 C 0.35629(17) 0.7164(3) 0.38520(14)
C17 C 0.2839(2) 0.5727(3) 0.29141(16)
H9 H 0.2819 0.5343 0.2493
C18 C 0.37306(17) 0.0936(3) 0.26329(14)
H10 H 0.4224 0.0332 0.2707
C19 C 0.00009(18) 0.2216(3) 0.15147(15)
H11 H 0.0389 0.1801 0.1907
C20 C 0.2158(2) 0.6101(3) 0.37708(17)
H12 H 0.1681 0.5951 0.3949
C21 C 0.31796(17) 0.1204(3) 0.19843(13)
C23 C 0.24578(17) 0.2102(3) 0.18777(14)
H14 H 0.2091 0.2284 0.1432
C24 C 0.2851(2) 0.6982(4) 0.40995(17)
H15 H 0.2835 0.7455 0.4491
Dy5 Dy 0.60443(2) 0.95524(2) 0.46631(2)
O9 O 0.49111(12) 0.2226(2) 0.58785(10)
O11 O 0.57124(13) 0.1171(2) 0.53299(10)
O13 O 0.24167(13) 0.0343(2) 0.46016(12)
O14 O 0.37487(14) 0.05815(19) 0.64564(11)
O15 O 0.28237(13) 0.2179(2) 0.52314(10)
O6 O 0.37487(14) 0.94185(19) 0.14564(11)
Dy6 Dy 0.39557(2) 0.95524(2) 0.03369(2)
O12 O 0.50870(13) 0.9201(2) 0.60847(10)
O16 O 0.31862(14) 0.8781(2) 0.58438(10)
O5 O 0.75833(13) 0.0343(2) 0.03984(12)
C7 C 0.96646(19) 0.4041(3) 0.07124(15)
H4 H 0.9824 0.4880 0.0552
C10 C 0.77457(17) 0.1527(3) 0.02366(14)
C14 C 0.86194(17) 0.2191(3) 0.05983(14)
C15 C 0.88601(19) 0.3427(3) 0.03707(15)
C22 C 0.91945(18) 0.1588(3) 0.11704(15)
H13 H 0.9037 0.0744 0.1328
O7 O 0.71763(13) 0.2179(2) 0.97686(10)
H8 H 0.8471 0.3847 0.9980
Dy3 Dy 0.60443(2) 0.04476(2) 0.96631(2)
C7_2 C 0.03354(19) 0.4041(3) 0.42876(15)
H4_2 H 0.0176 0.4880 0.4448
C10_2 C 0.22543(17) 0.1527(3) 0.47634(14)
C14_2 C 0.13806(17) 0.2191(3) 0.44017(14)
C15_2 C 0.11399(19) 0.3427(3) 0.46293(15)
H8_2 H 0.1529 0.3847 0.5020
C22_2 C 0.08055(18) 0.1588(3) 0.38296(15)
H13_2 H 0.0963 0.0744 0.3672
O1_2 O 0.60906(13) 0.1671(2) 0.06380(10)
O2_2 O 0.49111(12) 0.7774(2) 0.08785(10)
O3_2 O 0.57124(13) 0.8829(2) 0.03299(10)
O4_2 O 0.50870(13) 0.0799(2) 0.10847(10)
O8_2 O 0.68138(14) 0.1219(2) 0.41562(10)
N1_2 N 0.84323(14) 0.3656(2) 0.26855(12)
C1_2 C 0.88907(17) 0.4184(3) 0.33525(15)
H1_2 H 0.8485 0.4114 0.3629
H2_2 H 0.9021 0.5165 0.3314
C2_2 C 0.56414(18) 0.7977(3) 0.07644(14)
C3_2 C 0.71792(17) 0.2432(3) 0.19276(14)
H3_2 H 0.7305 0.2824 0.1552
C4_2 C 0.66183(17) 0.0571(3) 0.36015(14)
C5_2 C 0.97591(17) 0.3449(3) 0.37135(14)
C6_2 C 0.58307(17) 0.1329(3) 0.11265(14)
C8_2 C 0.78415(18) 0.5441(3) 0.18133(16)
C9_2 C 0.85647(18) 0.4402(3) 0.21280(16)
H5_2 H 0.8596 0.3741 0.1779
H6_2 H 0.9146 0.4881 0.2286
C11_2 C 0.77333(16) 0.2735(3) 0.25847(14)
C12_2 C 0.64543(18) 0.6566(3) 0.17498(15)
H7_2 H 0.5982 0.6729 0.1933
C13_2 C 0.64506(17) 0.1564(3) 0.18273(13)
C16_2 C 0.64371(17) 0.7164(3) 0.11480(14)
C17_2 C 0.7161(2) 0.5727(3) 0.20859(16)
H9_2 H 0.7181 0.5343 0.2507
C18_2 C 0.62694(17) 0.0936(3) 0.23671(14)
H10_2 H 0.5776 0.0332 0.2293
C19_2 C 0.99991(18) 0.2216(3) 0.34853(15)
H11_2 H 0.9611 0.1801 0.3093
C20_2 C 0.7842(2) 0.6101(3) 0.12292(17)
H12_2 H 0.8319 0.5951 0.1051
C21_2 C 0.68204(17) 0.1204(3) 0.30157(13)
C23_2 C 0.75422(17) 0.2102(3) 0.31223(14)
H14_2 H 0.7909 0.2284 0.3568
C24_2 C 0.7149(2) 0.6982(4) 0.09005(17)
H15_2 H 0.7165 0.7455 0.0509
O9_2 O 0.50889(12) 0.2226(2) 0.91215(10)
O11_2 O 0.42876(13) 0.1171(2) 0.96701(10)
O14_2 O 0.62513(14) 0.05815(19) 0.85436(11)
O6_2 O 0.62513(14) 0.94185(19) 0.35436(11)
O12_2 O 0.49130(13) 0.9201(2) 0.89153(10)
O16_2 O 0.68138(14) 0.8781(2) 0.91562(10)
O7_2 O 0.28237(13) 0.7821(2) 0.02314(10)
H8_3 H 0.1529 0.6153 0.0020
O5_2 O 0.24167(13) 0.9657(2) 0.96016(12)
C7_3 C 0.03354(19) 0.5959(3) 0.92876(15)
H4_3 H 0.0176 0.5120 0.9448
C10_3 C 0.22543(17) 0.8473(3) 0.97634(14)
C14_3 C 0.13806(17) 0.7809(3) 0.94017(14)
C15_3 C 0.11399(19) 0.6573(3) 0.96293(15)
C22_3 C 0.08055(18) 0.8412(3) 0.88296(15)
H13_3 H 0.0963 0.9256 0.8672
O1_3 O 0.60906(13) 0.8329(2) 0.56380(10)
N1_3 N 0.84323(14) 0.6344(2) 0.76855(12)
C1_3 C 0.88907(17) 0.5816(3) 0.83525(15)
H1_3 H 0.8485 0.5886 0.8629
H2_3 H 0.9021 0.4835 0.8314
C2_3 C 0.56414(18) 0.2023(3) 0.57644(14)
C3_3 C 0.71792(17) 0.7568(3) 0.69276(14)
H3_3 H 0.7305 0.7176 0.6552
C4_3 C 0.66183(17) 0.9429(3) 0.86015(14)
C5_3 C 0.97591(17) 0.6551(3) 0.87135(14)
C6_3 C 0.58307(17) 0.8671(3) 0.61265(14)
C8_3 C 0.78415(18) 0.4559(3) 0.68133(16)
C9_3 C 0.85647(18) 0.5598(3) 0.71280(16)
H5_3 H 0.8596 0.6259 0.6779
H6_3 H 0.9146 0.5119 0.7286
C11_3 C 0.77333(16) 0.7265(3) 0.75847(14)
C12_3 C 0.64543(18) 0.3434(3) 0.67498(15)
H7_3 H 0.5982 0.3271 0.6933
C13_3 C 0.64506(17) 0.8436(3) 0.68273(13)
C16_3 C 0.64371(17) 0.2836(3) 0.61480(14)
C17_3 C 0.7161(2) 0.4273(3) 0.70859(16)
H9_3 H 0.7181 0.4657 0.7507
C18_3 C 0.62694(17) 0.9064(3) 0.73671(14)
H10_3 H 0.5776 0.9668 0.7293
C19_3 C 0.99991(18) 0.7784(3) 0.84853(15)
H11_3 H 0.9611 0.8199 0.8093
C20_3 C 0.7842(2) 0.3899(3) 0.62292(17)
H12_3 H 0.8319 0.4049 0.6051
C21_3 C 0.68204(17) 0.8796(3) 0.80157(13)
C23_3 C 0.75422(17) 0.7898(3) 0.81223(14)
H14_3 H 0.7909 0.7716 0.8568
C24_3 C 0.7149(2) 0.3018(4) 0.59005(17)
H15_3 H 0.7165 0.2545 0.5509
O13_2 O 0.75833(13) 0.9657(2) 0.53984(12)
O15_2 O 0.71763(13) 0.7821(2) 0.47686(10)
O1_4 O 0.39094(13) 0.8329(2) 0.93620(10)
N1_4 N 0.15677(14) 0.6344(2) 0.73145(12)
C1_4 C 0.11093(17) 0.5816(3) 0.66475(15)
H1_4 H 0.1515 0.5886 0.6371
H2_4 H 0.0979 0.4835 0.6686
C2_4 C 0.43586(18) 0.2023(3) 0.92356(14)
C3_4 C 0.28208(17) 0.7568(3) 0.80724(14)
H3_4 H 0.2695 0.7176 0.8448
C4_4 C 0.33817(17) 0.9429(3) 0.63985(14)
C5_4 C 0.02409(17) 0.6551(3) 0.62865(14)
C6_4 C 0.41693(17) 0.8671(3) 0.88735(14)
C8_4 C 0.21585(18) 0.4559(3) 0.81867(16)
C9_4 C 0.14353(18) 0.5598(3) 0.78720(16)
H5_4 H 0.1404 0.6259 0.8221
H6_4 H 0.0854 0.5119 0.7714
C11_4 C 0.22667(16) 0.7265(3) 0.74153(14)
C12_4 C 0.35457(18) 0.3434(3) 0.82502(15)
H7_4 H 0.4018 0.3271 0.8067
C13_4 C 0.35494(17) 0.8436(3) 0.81727(13)
C16_4 C 0.35629(17) 0.2836(3) 0.88520(14)
C17_4 C 0.2839(2) 0.4273(3) 0.79141(16)
H9_4 H 0.2819 0.4657 0.7493
C18_4 C 0.37306(17) 0.9064(3) 0.76329(14)
H10_4 H 0.4224 0.9668 0.7707
C19_4 C 0.00009(18) 0.7784(3) 0.65147(15)
H11_4 H 0.0389 0.8199 0.6907
C20_4 C 0.2158(2) 0.3899(3) 0.87708(17)
H12_4 H 0.1681 0.4049 0.8949
C21_4 C 0.31796(17) 0.8796(3) 0.69843(13)
C23_4 C 0.24578(17) 0.7898(3) 0.68777(14)
H14_4 H 0.2091 0.7716 0.6432
C24_4 C 0.2851(2) 0.3018(4) 0.90995(17)
H15_4 H 0.2835 0.2545 0.9491
C7_4 C 0.96646(19) 0.5959(3) 0.57124(15)
H4_4 H 0.9824 0.5120 0.5552
C10_4 C 0.77457(17) 0.8473(3) 0.52366(14)
C14_4 C 0.86194(17) 0.7809(3) 0.55983(14)
C15_4 C 0.88601(19) 0.6573(3) 0.53707(15)
H8_4 H 0.8471 0.6153 0.4980
C22_4 C 0.91945(18) 0.8412(3) 0.61704(15)
H13_4 H 0.9037 0.9256 0.6328
C25 C 0.5748(7) 0.4544(11) 0.4428(6)
H16 H 0.5204 0.5021 0.4167
H17 H 0.5790 0.4558 0.4905
H18 H 0.5727 0.3596 0.4274
N2 N 0.6504(5) 0.5207(7) 0.4339(4)
H19 H 0.6937 0.4559 0.4479
H20 H 0.6638 0.5842 0.4673
C26 C 0.6771(10) 0.5934(14) 0.3784(6)
H21 H 0.6286 0.5854 0.3359
H22 H 0.7313 0.5511 0.3737
H23 H 0.6885 0.6901 0.3900
C25_2 C 0.4252(7) 0.4544(11) 0.0572(6)
H16_2 H 0.4796 0.5021 0.0833
H17_2 H 0.4210 0.4558 0.0095
H18_2 H 0.4273 0.3596 0.0726
N2_2 N 0.3496(5) 0.5207(7) 0.0661(4)
H19_2 H 0.3063 0.4559 0.0521
H20_2 H 0.3362 0.5842 0.0327
C26_2 C 0.3229(10) 0.5934(14) 0.1216(6)
H21_2 H 0.3714 0.5854 0.1641
H22_2 H 0.2687 0.5511 0.1263
H23_2 H 0.3115 0.6901 0.1100
C25_3 C 0.4252(7) 0.5456(11) 0.5572(6)
H16_3 H 0.4796 0.4979 0.5833
H17_3 H 0.4210 0.5442 0.5095
H18_3 H 0.4273 0.6404 0.5726
N2_3 N 0.3496(5) 0.4793(7) 0.5661(4)
H19_3 H 0.3063 0.5441 0.5521
H20_3 H 0.3362 0.4158 0.5327
C26_3 C 0.3229(10) 0.4066(14) 0.6216(6)
H21_3 H 0.3714 0.4146 0.6641
H22_3 H 0.2687 0.4489 0.6263
H23_3 H 0.3115 0.3099 0.6100
C25_4 C 0.5748(7) 0.5456(11) 0.9428(6)
H16_4 H 0.5204 0.4979 0.9167
H17_4 H 0.5790 0.5442 0.9905
H18_4 H 0.5727 0.6404 0.9274
N2_4 N 0.6504(5) 0.4793(7) 0.9339(4)
H19_4 H 0.6937 0.5441 0.9479
H20_4 H 0.6638 0.4158 0.9673
C26_4 C 0.6771(10) 0.4066(14) 0.8784(6)
H21_4 H 0.6286 0.4146 0.8359
H22_4 H 0.7313 0.4489 0.8737
H23_4 H 0.6885 0.3099 0.8900
loop_
_geom_bond_atom_site_label_1
_geom_bond_atom_site_label_2
_geom_bond_site_symmetry_1
_geom_bond_site_symmetry_2
Dy2 O1 1_555 1_555
O1 C6 1_555 1_555
O2 C2 1_555 1_555
O3 C2 1_555 1_555
O4 C6 1_555 1_555
O8 C4 1_555 1_555
N1 C1 1_555 1_555
C1 H1 1_555 1_555
H2 C1 1_555 1_555
C2 C16 1_555 1_555
C3 H3 1_555 1_555
C4 C21 1_555 1_555
C5 C1 1_555 1_555
C6 C13 1_555 1_555
C8 C9 1_555 1_555
C9 N1 1_555 1_555
H5 C9 1_555 1_555
H6 C9 1_555 1_555
C11 N1 1_555 1_555
C12 H7 1_555 1_555
C13 C3 1_555 1_555
C16 C12 1_555 1_555
C17 C8 1_555 1_555
H9 C17 1_555 1_555
C18 C13 1_555 1_555
H10 C18 1_555 1_555
C19 C5 1_555 1_555
H11 C19 1_555 1_555
C20 C8 1_555 1_555
H12 C20 1_555 1_555
C21 C18 1_555 1_555
C23 C11 1_555 1_555
H14 C23 1_555 1_555
C24 C16 1_555 1_555
H15 C24 1_555 1_555
Dy5 O2 1_555 1_555
O9 Dy2 1_555 1_555
O11 Dy2 1_555 1_555
O13 Dy2 1_555 1_555
O14 Dy2 1_555 1_555
O15 Dy2 1_555 1_555
O3 Dy5 1_555 1_555
C3 C11 1_555 1_555
C12 C17 1_555 1_555
C20 C24 1_555 1_555
C21 C23 1_555 1_555
Dy6 O6 1_555 1_555
O5 C10 1_555 1_555
H4 C7 1_555 1_555
C10 C14 1_555 1_555
C14 C15 1_555 1_555
C15 C7 1_555 1_555
C22 C14 1_555 1_555
H13 C22 1_555 1_555
O7 Dy3 1_555 1_555
O13 C10_2 1_555 1_555
O15 C10_2 1_555 1_555
H4_2 C7_2 1_555 1_555
C10_2 C14_2 1_555 1_555
C14_2 C15_2 1_555 1_555
C15_2 C7_2 1_555 1_555
H8_2 C15_2 1_555 1_555
C22_2 C14_2 1_555 1_555
H13_2 C22_2 1_555 1_555
O1_2 C6_2 1_555 1_555
O2_2 C2_2 1_555 1_555
O3_2 C2_2 1_555 1_555
O4_2 C6_2 1_555 1_555
O8_2 C4_2 1_555 1_555
N1_2 C1_2 1_555 1_555
C1_2 H1_2 1_555 1_555
H2_2 C1_2 1_555 1_555
C2_2 C16_2 1_555 1_555
C3_2 H3_2 1_555 1_555
C4_2 C21_2 1_555 1_555
C5_2 C1_2 1_555 1_555
C6_2 C13_2 1_555 1_555
C8_2 C9_2 1_555 1_555
C9_2 N1_2 1_555 1_555
H5_2 C9_2 1_555 1_555
H6_2 C9_2 1_555 1_555
C11_2 N1_2 1_555 1_555
C12_2 H7_2 1_555 1_555
C13_2 C3_2 1_555 1_555
C16_2 C12_2 1_555 1_555
C17_2 C8_2 1_555 1_555
H9_2 C17_2 1_555 1_555
C18_2 C13_2 1_555 1_555
H10_2 C18_2 1_555 1_555
C19_2 C5_2 1_555 1_555
H11_2 C19_2 1_555 1_555
C20_2 C8_2 1_555 1_555
H12_2 C20_2 1_555 1_555
C21_2 C18_2 1_555 1_555
C23_2 C11_2 1_555 1_555
H14_2 C23_2 1_555 1_555
C24_2 C16_2 1_555 1_555
H15_2 C24_2 1_555 1_555
Dy6 O2_2 1_555 1_555
O3_2 Dy6 1_555 1_555
C3_2 C11_2 1_555 1_555
C12_2 C17_2 1_555 1_555
C20_2 C24_2 1_555 1_555
C21_2 C23_2 1_555 1_555
O9_2 Dy3 1_555 1_555
O11_2 Dy3 1_555 1_555
O14_2 Dy3 1_555 1_555
Dy5 O6_2 1_555 1_555
O7_2 Dy6 1_555 1_555
O5_2 C10_3 1_555 1_555
H4_3 C7_3 1_555 1_555
C10_3 C14_3 1_555 1_555
C14_3 C15_3 1_555 1_555
C15_3 C7_3 1_555 1_555
C22_3 C14_3 1_555 1_555
H13_3 C22_3 1_555 1_555
Dy5 O1_3 1_555 1_555
O1_3 C6_3 1_555 1_555
O9 C2_3 1_555 1_555
O11 C2_3 1_555 1_555
O12 C6_3 1_555 1_555
O16_2 C4_3 1_555 1_555
N1_3 C1_3 1_555 1_555
C1_3 H1_3 1_555 1_555
H2_3 C1_3 1_555 1_555
C2_3 C16_3 1_555 1_555
C3_3 H3_3 1_555 1_555
C4_3 C21_3 1_555 1_555
C5_3 C1_3 1_555 1_555
C6_3 C13_3 1_555 1_555
C8_3 C9_3 1_555 1_555
C9_3 N1_3 1_555 1_555
H5_3 C9_3 1_555 1_555
H6_3 C9_3 1_555 1_555
C11_3 N1_3 1_555 1_555
C12_3 H7_3 1_555 1_555
C13_3 C3_3 1_555 1_555
C16_3 C12_3 1_555 1_555
C17_3 C8_3 1_555 1_555
H9_3 C17_3 1_555 1_555
C18_3 C13_3 1_555 1_555
H10_3 C18_3 1_555 1_555
C19_3 C5_3 1_555 1_555
H11_3 C19_3 1_555 1_555
C20_3 C8_3 1_555 1_555
H12_3 C20_3 1_555 1_555
C21_3 C18_3 1_555 1_555
C23_3 C11_3 1_555 1_555
H14_3 C23_3 1_555 1_555
C24_3 C16_3 1_555 1_555
H15_3 C24_3 1_555 1_555
O13_2 Dy5 1_555 1_555
O15_2 Dy5 1_555 1_555
C3_3 C11_3 1_555 1_555
C12_3 C17_3 1_555 1_555
C20_3 C24_3 1_555 1_555
C21_3 C23_3 1_555 1_555
O1_4 C6_4 1_555 1_555
O9_2 C2_4 1_555 1_555
O11_2 C2_4 1_555 1_555
O12_2 C6_4 1_555 1_555
O16 C4_4 1_555 1_555
N1_4 C1_4 1_555 1_555
C1_4 H1_4 1_555 1_555
H2_4 C1_4 1_555 1_555
C2_4 C16_4 1_555 1_555
C3_4 H3_4 1_555 1_555
C4_4 C21_4 1_555 1_555
C5_4 C1_4 1_555 1_555
C6_4 C13_4 1_555 1_555
C8_4 C9_4 1_555 1_555
C9_4 N1_4 1_555 1_555
H5_4 C9_4 1_555 1_555
H6_4 C9_4 1_555 1_555
C11_4 N1_4 1_555 1_555
C12_4 H7_4 1_555 1_555
C13_4 C3_4 1_555 1_555
C16_4 C12_4 1_555 1_555
C17_4 C8_4 1_555 1_555
H9_4 C17_4 1_555 1_555
C18_4 C13_4 1_555 1_555
H10_4 C18_4 1_555 1_555
C19_4 C5_4 1_555 1_555
H11_4 C19_4 1_555 1_555
C20_4 C8_4 1_555 1_555
H12_4 C20_4 1_555 1_555
C21_4 C18_4 1_555 1_555
C23_4 C11_4 1_555 1_555
H14_4 C23_4 1_555 1_555
C24_4 C16_4 1_555 1_555
H15_4 C24_4 1_555 1_555
C3_4 C11_4 1_555 1_555
C12_4 C17_4 1_555 1_555
C20_4 C24_4 1_555 1_555
C21_4 C23_4 1_555 1_555
O13_2 C10_4 1_555 1_555
O15_2 C10_4 1_555 1_555
H4_4 C7_4 1_555 1_555
C10_4 C14_4 1_555 1_555
C14_4 C15_4 1_555 1_555
C15_4 C7_4 1_555 1_555
H8_4 C15_4 1_555 1_555
C22_4 C14_4 1_555 1_555
H13_4 C22_4 1_555 1_555
C25 H16 1_555 1_555
H17 C25 1_555 1_555
H18 C25 1_555 1_555
N2 C25 1_555 1_555
H19 N2 1_555 1_555
H20 N2 1_555 1_555
C26 N2 1_555 1_555
H21 C26 1_555 1_555
H22 C26 1_555 1_555
H23 C26 1_555 1_555
C25_2 H16_2 1_555 1_555
H17_2 C25_2 1_555 1_555
H18_2 C25_2 1_555 1_555
N2_2 C25_2 1_555 1_555
H19_2 N2_2 1_555 1_555
H20_2 N2_2 1_555 1_555
C26_2 N2_2 1_555 1_555
H21_2 C26_2 1_555 1_555
H22_2 C26_2 1_555 1_555
H23_2 C26_2 1_555 1_555
C25_3 H16_3 1_555 1_555
H17_3 C25_3 1_555 1_555
H18_3 C25_3 1_555 1_555
N2_3 C25_3 1_555 1_555
H19_3 N2_3 1_555 1_555
H20_3 N2_3 1_555 1_555
C26_3 N2_3 1_555 1_555
H21_3 C26_3 1_555 1_555
H22_3 C26_3 1_555 1_555
H23_3 C26_3 1_555 1_555
C25_4 H16_4 1_555 1_555
H17_4 C25_4 1_555 1_555
H18_4 C25_4 1_555 1_555
N2_4 C25_4 1_555 1_555
H19_4 N2_4 1_555 1_555
H20_4 N2_4 1_555 1_555
C26_4 N2_4 1_555 1_555
H21_4 C26_4 1_555 1_555
H22_4 C26_4 1_555 1_555
H23_4 C26_4 1_555 1_555

#END
