
###############################################################################
#
# This file contains modified crystal structure data generated from the
# MOF subset of the Cambridge Structural Database (CSD) v543 
# hosted by the Cambridge Crystallographic Data Centre (CCDC).
#
# This work is licensed under the Creative Commons
# Attribution-NonCommercial-ShareAlike 4.0 International License.
# To view a copy of this license, visit
# http://creativecommons.org/licenses/by-nc-sa/4.0/
# or send a letter to
# Creative Commons, PO Box 1866, Mountain View, CA 94042, USA.
#
# CIF created using the CSD Python API on 29 September 2022
# The structure has been converted into the P1 space group
# The structure has a 3D framework
# The original CSD entry YICZAO is in the monoclinic crystal system
# The framework has been calculated to contain at least 10.0% void space
# The void calculation uses a probe of radius 1.32A, grid spacing 0.4
#
###############################################################################

data_YICZAO
_chemical_formula_moiety         '(C108 H92 N8 O26 Tb2)n'
_symmetry_cell_setting           triclinic
_symmetry_space_group_name_H-M   'P 1'
_symmetry_Int_Tables_number      1
_space_group_name_Hall           'P 1'
loop_
_symmetry_equiv_pos_site_id
_symmetry_equiv_pos_as_xyz
1 x,y,z
_cell_length_a                   15.7666(14)
_cell_length_b                   9.7926(8)
_cell_length_c                   20.9867(19)
_cell_angle_alpha                90
_cell_angle_beta                 107.985(2)
_cell_angle_gamma                90
_cell_volume                     3081.93
loop_
_atom_site_label
_atom_site_type_symbol
_atom_site_fract_x
_atom_site_fract_y
_atom_site_fract_z
Tb2 Tb 0.39557(2) 0.04475(2) 0.53369(2)
O1 O 0.39092(12) 0.1671(2) 0.43620(9)
O2 O 0.49128(13) 0.0798(2) 0.39155(10)
O4 O 0.31862(13) 0.1219(2) 0.08441(10)
O7 O 0.42878(13) 0.88281(19) 0.46701(10)
O8 O 0.50889(12) 0.7774(2) 0.41216(10)
N1 N 0.15676(13) 0.3657(2) 0.23137(11)
C1 C 0.41690(17) 0.1328(3) 0.38739(13)
C2 C 0.35497(16) 0.1564(3) 0.31724(13)
C3 C 0.37300(16) 0.0936(3) 0.26320(13)
H1 H 0.4222 0.0332 0.2704
C4 C 0.31796(16) 0.1205(3) 0.19847(13)
C5 C 0.33826(17) 0.0570(3) 0.13983(14)
C6 C 0.24578(16) 0.2102(3) 0.18771(13)
H2 H 0.2092 0.2284 0.1433
C7 C 0.22665(15) 0.2734(3) 0.24158(13)
C8 C 0.28200(16) 0.2432(3) 0.30718(13)
H3 H 0.2693 0.2823 0.3446
C9 C 0.11090(17) 0.4186(3) 0.16496(15)
H4 H 0.1515 0.4123 0.1373
H5 H 0.0976 0.5165 0.1690
C10 C 0.02407(16) 0.3449(3) 0.12867(14)
C11 C 0.00002(17) 0.2217(3) 0.15149(14)
H6 H 0.0386 0.1803 0.1907
C17 C 0.14352(17) 0.4403(3) 0.28722(15)
H10 H 0.1404 0.3741 0.3221
H11 H 0.0855 0.4882 0.2716
C18 C 0.21586(17) 0.5441(2) 0.31862(15)
C19 C 0.2159(2) 0.6102(3) 0.37715(16)
H12 H 0.1682 0.5952 0.3950
C20 C 0.2850(2) 0.6981(3) 0.41002(16)
H13 H 0.2834 0.7453 0.4492
C21 C 0.35636(16) 0.7164(3) 0.38516(14)
C22 C 0.43592(17) 0.7977(3) 0.42352(13)
C23 C 0.35453(17) 0.6565(3) 0.32498(14)
H14 H 0.4016 0.6729 0.3066
C24 C 0.28394(19) 0.5727(3) 0.29160(15)
H15 H 0.2821 0.5342 0.2497
Tb5 Tb 0.60443(2) 0.95525(2) 0.46631(2)
O10 O 0.37491(13) 0.05827(18) 0.64561(10)
O12 O 0.24165(13) 0.0344(2) 0.46011(11)
O13 O 0.28234(12) 0.2179(2) 0.52308(9)
O15 O 0.57122(13) 0.11719(19) 0.53299(10)
O16 O 0.49111(12) 0.2226(2) 0.58784(10)
O3 O 0.37491(13) 0.94173(18) 0.14561(10)
Tb6 Tb 0.39557(2) 0.95525(2) 0.03369(2)
O9 O 0.50872(13) 0.9202(2) 0.60845(10)
O11 O 0.31862(13) 0.8781(2) 0.58441(10)
O5 O 0.75835(13) 0.0344(2) 0.03989(11)
C11_2 C 1.00002(17) 0.2217(3) 0.15149(14)
C12 C 0.91941(17) 0.1588(3) 0.11703(14)
H7 H 0.9037 0.0744 0.1327
C13 C 0.86190(16) 0.2190(3) 0.05986(13)
C14 C 0.77451(16) 0.1526(3) 0.02365(14)
C15 C 0.88591(18) 0.3427(3) 0.03703(14)
C16 C 0.96650(19) 0.4043(3) 0.07123(15)
H9 H 0.9825 0.4881 0.0552
O6 O 0.71766(12) 0.2179(2) 0.97692(9)
H8 H 0.8471 0.3848 0.9981
Tb3 Tb 0.60443(2) 0.04475(2) 0.96631(2)
C11_3 C -0.00002(17) 0.2217(3) 0.34851(14)
C12_2 C 0.08059(17) 0.1588(3) 0.38297(14)
H7_2 H 0.0963 0.0744 0.3673
C13_2 C 0.13810(16) 0.2190(3) 0.44014(13)
C14_2 C 0.22549(16) 0.1526(3) 0.47635(14)
C15_2 C 0.11409(18) 0.3427(3) 0.46297(14)
H8_2 H 0.1529 0.3848 0.5019
C16_2 C 0.03350(19) 0.4043(3) 0.42877(15)
H9_2 H 0.0175 0.4881 0.4448
O1_2 O 0.60908(12) 0.1671(2) 0.06380(9)
O2_2 O 0.50872(13) 0.0798(2) 0.10845(10)
O4_2 O 0.68138(13) 0.1219(2) 0.41559(10)
O7_2 O 0.57122(13) 0.88281(19) 0.03299(10)
O8_2 O 0.49111(12) 0.7774(2) 0.08784(10)
N1_2 N 0.84324(13) 0.3657(2) 0.26863(11)
C1_2 C 0.58310(17) 0.1328(3) 0.11261(13)
C2_2 C 0.64503(16) 0.1564(3) 0.18276(13)
C3_2 C 0.62700(16) 0.0936(3) 0.23680(13)
H1_2 H 0.5778 0.0332 0.2296
C4_2 C 0.68204(16) 0.1205(3) 0.30153(13)
C5_2 C 0.66174(17) 0.0570(3) 0.36017(14)
C6_2 C 0.75422(16) 0.2102(3) 0.31229(13)
H2_2 H 0.7908 0.2284 0.3567
C7_2 C 0.77335(15) 0.2734(3) 0.25842(13)
C8_2 C 0.71800(16) 0.2432(3) 0.19282(13)
H3_2 H 0.7307 0.2823 0.1554
C9_2 C 0.88910(17) 0.4186(3) 0.33504(15)
H4_2 H 0.8485 0.4123 0.3627
H5_2 H 0.9024 0.5165 0.3310
C10_2 C 0.97593(16) 0.3449(3) 0.37133(14)
C11_4 C 0.99998(17) 0.2217(3) 0.34851(14)
H6_2 H 0.9614 0.1803 0.3093
C17_2 C 0.85648(17) 0.4403(3) 0.21278(15)
H10_2 H 0.8596 0.3741 0.1779
H11_2 H 0.9145 0.4882 0.2284
C18_2 C 0.78414(17) 0.5441(2) 0.18138(15)
C19_2 C 0.7841(2) 0.6102(3) 0.12285(16)
H12_2 H 0.8318 0.5952 0.1050
C20_2 C 0.7150(2) 0.6981(3) 0.08998(16)
H13_2 H 0.7166 0.7453 0.0508
C21_2 C 0.64364(16) 0.7164(3) 0.11484(14)
C22_2 C 0.56408(17) 0.7977(3) 0.07648(13)
C23_2 C 0.64547(17) 0.6565(3) 0.17502(14)
H14_2 H 0.5984 0.6729 0.1934
C24_2 C 0.71606(19) 0.5727(3) 0.20840(15)
H15_2 H 0.7179 0.5342 0.2503
O10_2 O 0.62509(13) 0.05827(18) 0.85439(10)
O15_2 O 0.42878(13) 0.11719(19) 0.96701(10)
O16_2 O 0.50889(12) 0.2226(2) 0.91216(10)
O3_2 O 0.62509(13) 0.94173(18) 0.35439(10)
O9_2 O 0.49128(13) 0.9202(2) 0.89155(10)
O11_2 O 0.68138(13) 0.8781(2) 0.91559(10)
O6_2 O 0.28234(12) 0.7821(2) 0.02308(9)
H8_3 H 0.1529 0.6152 0.0019
O5_2 O 0.24165(13) 0.9656(2) 0.96011(11)
C11_5 C -0.00002(17) 0.7783(3) 0.84851(14)
C12_3 C 0.08059(17) 0.8412(3) 0.88297(14)
H7_3 H 0.0963 0.9256 0.8673
C13_3 C 0.13810(16) 0.7810(3) 0.94014(13)
C14_3 C 0.22549(16) 0.8474(3) 0.97635(14)
C15_3 C 0.11409(18) 0.6573(3) 0.96297(14)
C16_3 C 0.03350(19) 0.5957(3) 0.92877(15)
H9_3 H 0.0175 0.5119 0.9448
O1_3 O 0.60908(12) 0.8329(2) 0.56380(9)
N1_3 N 0.84324(13) 0.6343(2) 0.76863(11)
C1_3 C 0.58310(17) 0.8672(3) 0.61261(13)
C2_3 C 0.64503(16) 0.8436(3) 0.68276(13)
C3_3 C 0.62700(16) 0.9064(3) 0.73680(13)
H1_3 H 0.5778 0.9668 0.7296
C4_3 C 0.68204(16) 0.8795(3) 0.80153(13)
C5_3 C 0.66174(17) 0.9430(3) 0.86017(14)
C6_3 C 0.75422(16) 0.7898(3) 0.81229(13)
H2_3 H 0.7908 0.7716 0.8567
C7_3 C 0.77335(15) 0.7266(3) 0.75842(13)
C8_3 C 0.71800(16) 0.7568(3) 0.69282(13)
H3_3 H 0.7307 0.7177 0.6554
C9_3 C 0.88910(17) 0.5814(3) 0.83504(15)
H4_3 H 0.8485 0.5877 0.8627
H5_3 H 0.9024 0.4835 0.8310
C10_3 C 0.97593(16) 0.6551(3) 0.87133(14)
C11_6 C 0.99998(17) 0.7783(3) 0.84851(14)
H6_3 H 0.9614 0.8197 0.8093
C17_3 C 0.85648(17) 0.5597(3) 0.71278(15)
H10_3 H 0.8596 0.6259 0.6779
H11_3 H 0.9145 0.5118 0.7284
C18_3 C 0.78414(17) 0.4559(2) 0.68138(15)
C19_3 C 0.7841(2) 0.3898(3) 0.62285(16)
H12_3 H 0.8318 0.4048 0.6050
C20_3 C 0.7150(2) 0.3019(3) 0.58998(16)
H13_3 H 0.7166 0.2547 0.5508
C21_3 C 0.64364(16) 0.2836(3) 0.61484(14)
C22_3 C 0.56408(17) 0.2023(3) 0.57648(13)
C23_3 C 0.64547(17) 0.3435(3) 0.67502(14)
H14_3 H 0.5984 0.3271 0.6934
C24_3 C 0.71606(19) 0.4273(3) 0.70840(15)
H15_3 H 0.7179 0.4658 0.7503
O12_2 O 0.75835(13) 0.9656(2) 0.53989(11)
O13_2 O 0.71766(12) 0.7821(2) 0.47692(9)
O1_4 O 0.39092(12) 0.8329(2) 0.93620(9)
N1_4 N 0.15676(13) 0.6343(2) 0.73137(11)
C1_4 C 0.41690(17) 0.8672(3) 0.88739(13)
C2_4 C 0.35497(16) 0.8436(3) 0.81724(13)
C3_4 C 0.37300(16) 0.9064(3) 0.76320(13)
H1_4 H 0.4222 0.9668 0.7704
C4_4 C 0.31796(16) 0.8795(3) 0.69847(13)
C5_4 C 0.33826(17) 0.9430(3) 0.63983(14)
C6_4 C 0.24578(16) 0.7898(3) 0.68771(13)
H2_4 H 0.2092 0.7716 0.6433
C7_4 C 0.22665(15) 0.7266(3) 0.74158(13)
C8_4 C 0.28200(16) 0.7568(3) 0.80718(13)
H3_4 H 0.2693 0.7177 0.8446
C9_4 C 0.11090(17) 0.5814(3) 0.66496(15)
H4_4 H 0.1515 0.5877 0.6373
H5_4 H 0.0976 0.4835 0.6690
C10_4 C 0.02407(16) 0.6551(3) 0.62867(14)
C11_7 C 0.00002(17) 0.7783(3) 0.65149(14)
H6_4 H 0.0386 0.8197 0.6907
C17_4 C 0.14352(17) 0.5597(3) 0.78722(15)
H10_4 H 0.1404 0.6259 0.8221
H11_4 H 0.0855 0.5118 0.7716
C18_4 C 0.21586(17) 0.4559(2) 0.81862(15)
C19_4 C 0.2159(2) 0.3898(3) 0.87715(16)
H12_4 H 0.1682 0.4048 0.8950
C20_4 C 0.2850(2) 0.3019(3) 0.91002(16)
H13_4 H 0.2834 0.2547 0.9492
C21_4 C 0.35636(16) 0.2836(3) 0.88516(14)
C22_4 C 0.43592(17) 0.2023(3) 0.92352(13)
C23_4 C 0.35453(17) 0.3435(3) 0.82498(14)
H14_4 H 0.4016 0.3271 0.8066
C24_4 C 0.28394(19) 0.4273(3) 0.79160(15)
H15_4 H 0.2821 0.4658 0.7497
C11_8 C 1.00002(17) 0.7783(3) 0.65149(14)
C12_4 C 0.91941(17) 0.8412(3) 0.61703(14)
H7_4 H 0.9037 0.9256 0.6327
C13_4 C 0.86190(16) 0.7810(3) 0.55986(13)
C14_4 C 0.77451(16) 0.8474(3) 0.52365(14)
C15_4 C 0.88591(18) 0.6573(3) 0.53703(14)
H8_4 H 0.8471 0.6152 0.4981
C16_4 C 0.96650(19) 0.5957(3) 0.57123(15)
H9_4 H 0.9825 0.5119 0.5552
N2 N 0.6490(5) 0.5175(7) 0.4349(4)
H16 H 0.6929 0.4553 0.4524
H17 H 0.6572 0.5840 0.4665
C25 C 0.5632(5) 0.4438(5) 0.4373(4)
H18 H 0.5114 0.4840 0.4038
H19 H 0.5567 0.4542 0.4820
H20 H 0.5672 0.3466 0.4275
C26 C 0.6790(9) 0.5900(12) 0.3756(6)
H21 H 0.6451 0.5504 0.3323
H22 H 0.7429 0.5750 0.3834
H23 H 0.6670 0.6882 0.3753
N2_2 N 0.3510(5) 0.5175(7) 0.0651(4)
H16_2 H 0.3071 0.4553 0.0476
H17_2 H 0.3428 0.5840 0.0335
C25_2 C 0.4368(5) 0.4438(5) 0.0627(4)
H18_2 H 0.4886 0.4840 0.0962
H19_2 H 0.4433 0.4542 0.0180
H20_2 H 0.4328 0.3466 0.0725
C26_2 C 0.3210(9) 0.5900(12) 0.1244(6)
H21_2 H 0.3549 0.5504 0.1677
H22_2 H 0.2571 0.5750 0.1166
H23_2 H 0.3330 0.6882 0.1247
N2_3 N 0.3510(5) 0.4825(7) 0.5651(4)
H16_3 H 0.3071 0.5447 0.5476
H17_3 H 0.3428 0.4160 0.5335
C25_3 C 0.4368(5) 0.5562(5) 0.5627(4)
H18_3 H 0.4886 0.5160 0.5962
H19_3 H 0.4433 0.5458 0.5180
H20_3 H 0.4328 0.6534 0.5725
C26_3 C 0.3210(9) 0.4100(12) 0.6244(6)
H21_3 H 0.3549 0.4496 0.6677
H22_3 H 0.2571 0.4250 0.6166
H23_3 H 0.3330 0.3118 0.6247
N2_4 N 0.6490(5) 0.4825(7) 0.9349(4)
H16_4 H 0.6929 0.5447 0.9524
H17_4 H 0.6572 0.4160 0.9665
C25_4 C 0.5632(5) 0.5562(5) 0.9373(4)
H18_4 H 0.5114 0.5160 0.9038
H19_4 H 0.5567 0.5458 0.9820
H20_4 H 0.5672 0.6534 0.9275
C26_4 C 0.6790(9) 0.4100(12) 0.8756(6)
H21_4 H 0.6451 0.4496 0.8323
H22_4 H 0.7429 0.4250 0.8834
H23_4 H 0.6670 0.3118 0.8753
loop_
_geom_bond_atom_site_label_1
_geom_bond_atom_site_label_2
_geom_bond_site_symmetry_1
_geom_bond_site_symmetry_2
Tb2 O1 1_555 1_555
O1 C1 1_555 1_555
O2 C1 1_555 1_555
O4 C5 1_555 1_555
O7 C22 1_555 1_555
O8 C22 1_555 1_555
N1 C7 1_555 1_555
C1 C2 1_555 1_555
C2 C3 1_555 1_555
C3 H1 1_555 1_555
C4 C3 1_555 1_555
C5 C4 1_555 1_555
C6 C4 1_555 1_555
H2 C6 1_555 1_555
C7 C6 1_555 1_555
C8 C2 1_555 1_555
H3 C8 1_555 1_555
C9 N1 1_555 1_555
H4 C9 1_555 1_555
H5 C9 1_555 1_555
C10 C9 1_555 1_555
C11 C10 1_555 1_555
H6 C11 1_555 1_555
C17 N1 1_555 1_555
H10 C17 1_555 1_555
H11 C17 1_555 1_555
C18 C17 1_555 1_555
C19 C18 1_555 1_555
H12 C19 1_555 1_555
C20 C19 1_555 1_555
H13 C20 1_555 1_555
C21 C20 1_555 1_555
C22 C21 1_555 1_555
C23 C21 1_555 1_555
H14 C23 1_555 1_555
C24 C18 1_555 1_555
H15 C24 1_555 1_555
Tb5 O7 1_555 1_555
O10 Tb2 1_555 1_555
O12 Tb2 1_555 1_555
O13 Tb2 1_555 1_555
O15 Tb2 1_555 1_555
O16 Tb2 1_555 1_555
O8 Tb5 1_555 1_555
C7 C8 1_555 1_555
C23 C24 1_555 1_555
Tb6 O3 1_555 1_555
O5 C14 1_555 1_555
C12 C11_2 1_555 1_555
H7 C12 1_555 1_555
C13 C12 1_555 1_555
C14 C13 1_555 1_555
C15 C13 1_555 1_555
H9 C16 1_555 1_555
C15 C16 1_555 1_555
O6 Tb3 1_555 1_555
O12 C14_2 1_555 1_555
O13 C14_2 1_555 1_555
C12_2 C11_3 1_555 1_555
H7_2 C12_2 1_555 1_555
C13_2 C12_2 1_555 1_555
C14_2 C13_2 1_555 1_555
C15_2 C13_2 1_555 1_555
H8_2 C15_2 1_555 1_555
H9_2 C16_2 1_555 1_555
C15_2 C16_2 1_555 1_555
O1_2 C1_2 1_555 1_555
O2_2 C1_2 1_555 1_555
O4_2 C5_2 1_555 1_555
O7_2 C22_2 1_555 1_555
O8_2 C22_2 1_555 1_555
N1_2 C7_2 1_555 1_555
C1_2 C2_2 1_555 1_555
C2_2 C3_2 1_555 1_555
C3_2 H1_2 1_555 1_555
C4_2 C3_2 1_555 1_555
C5_2 C4_2 1_555 1_555
C6_2 C4_2 1_555 1_555
H2_2 C6_2 1_555 1_555
C7_2 C6_2 1_555 1_555
C8_2 C2_2 1_555 1_555
H3_2 C8_2 1_555 1_555
C9_2 N1_2 1_555 1_555
H4_2 C9_2 1_555 1_555
H5_2 C9_2 1_555 1_555
C10_2 C9_2 1_555 1_555
C11_4 C10_2 1_555 1_555
H6_2 C11_4 1_555 1_555
C17_2 N1_2 1_555 1_555
H10_2 C17_2 1_555 1_555
H11_2 C17_2 1_555 1_555
C18_2 C17_2 1_555 1_555
C19_2 C18_2 1_555 1_555
H12_2 C19_2 1_555 1_555
C20_2 C19_2 1_555 1_555
H13_2 C20_2 1_555 1_555
C21_2 C20_2 1_555 1_555
C22_2 C21_2 1_555 1_555
C23_2 C21_2 1_555 1_555
H14_2 C23_2 1_555 1_555
C24_2 C18_2 1_555 1_555
H15_2 C24_2 1_555 1_555
Tb6 O7_2 1_555 1_555
O8_2 Tb6 1_555 1_555
C7_2 C8_2 1_555 1_555
C23_2 C24_2 1_555 1_555
O10_2 Tb3 1_555 1_555
O15_2 Tb3 1_555 1_555
O16_2 Tb3 1_555 1_555
Tb5 O3_2 1_555 1_555
O6_2 Tb6 1_555 1_555
O5_2 C14_3 1_555 1_555
C12_3 C11_5 1_555 1_555
H7_3 C12_3 1_555 1_555
C13_3 C12_3 1_555 1_555
C14_3 C13_3 1_555 1_555
C15_3 C13_3 1_555 1_555
H9_3 C16_3 1_555 1_555
C15_3 C16_3 1_555 1_555
Tb5 O1_3 1_555 1_555
O1_3 C1_3 1_555 1_555
O9 C1_3 1_555 1_555
O11_2 C5_3 1_555 1_555
O15 C22_3 1_555 1_555
O16 C22_3 1_555 1_555
N1_3 C7_3 1_555 1_555
C1_3 C2_3 1_555 1_555
C2_3 C3_3 1_555 1_555
C3_3 H1_3 1_555 1_555
C4_3 C3_3 1_555 1_555
C5_3 C4_3 1_555 1_555
C6_3 C4_3 1_555 1_555
H2_3 C6_3 1_555 1_555
C7_3 C6_3 1_555 1_555
C8_3 C2_3 1_555 1_555
H3_3 C8_3 1_555 1_555
C9_3 N1_3 1_555 1_555
H4_3 C9_3 1_555 1_555
H5_3 C9_3 1_555 1_555
C10_3 C9_3 1_555 1_555
C11_6 C10_3 1_555 1_555
H6_3 C11_6 1_555 1_555
C17_3 N1_3 1_555 1_555
H10_3 C17_3 1_555 1_555
H11_3 C17_3 1_555 1_555
C18_3 C17_3 1_555 1_555
C19_3 C18_3 1_555 1_555
H12_3 C19_3 1_555 1_555
C20_3 C19_3 1_555 1_555
H13_3 C20_3 1_555 1_555
C21_3 C20_3 1_555 1_555
C22_3 C21_3 1_555 1_555
C23_3 C21_3 1_555 1_555
H14_3 C23_3 1_555 1_555
C24_3 C18_3 1_555 1_555
H15_3 C24_3 1_555 1_555
O12_2 Tb5 1_555 1_555
O13_2 Tb5 1_555 1_555
C7_3 C8_3 1_555 1_555
C23_3 C24_3 1_555 1_555
O1_4 C1_4 1_555 1_555
O9_2 C1_4 1_555 1_555
O11 C5_4 1_555 1_555
O15_2 C22_4 1_555 1_555
O16_2 C22_4 1_555 1_555
N1_4 C7_4 1_555 1_555
C1_4 C2_4 1_555 1_555
C2_4 C3_4 1_555 1_555
C3_4 H1_4 1_555 1_555
C4_4 C3_4 1_555 1_555
C5_4 C4_4 1_555 1_555
C6_4 C4_4 1_555 1_555
H2_4 C6_4 1_555 1_555
C7_4 C6_4 1_555 1_555
C8_4 C2_4 1_555 1_555
H3_4 C8_4 1_555 1_555
C9_4 N1_4 1_555 1_555
H4_4 C9_4 1_555 1_555
H5_4 C9_4 1_555 1_555
C10_4 C9_4 1_555 1_555
C11_7 C10_4 1_555 1_555
H6_4 C11_7 1_555 1_555
C17_4 N1_4 1_555 1_555
H10_4 C17_4 1_555 1_555
H11_4 C17_4 1_555 1_555
C18_4 C17_4 1_555 1_555
C19_4 C18_4 1_555 1_555
H12_4 C19_4 1_555 1_555
C20_4 C19_4 1_555 1_555
H13_4 C20_4 1_555 1_555
C21_4 C20_4 1_555 1_555
C22_4 C21_4 1_555 1_555
C23_4 C21_4 1_555 1_555
H14_4 C23_4 1_555 1_555
C24_4 C18_4 1_555 1_555
H15_4 C24_4 1_555 1_555
C7_4 C8_4 1_555 1_555
C23_4 C24_4 1_555 1_555
O12_2 C14_4 1_555 1_555
O13_2 C14_4 1_555 1_555
C12_4 C11_8 1_555 1_555
H7_4 C12_4 1_555 1_555
C13_4 C12_4 1_555 1_555
C14_4 C13_4 1_555 1_555
C15_4 C13_4 1_555 1_555
H8_4 C15_4 1_555 1_555
H9_4 C16_4 1_555 1_555
C15_4 C16_4 1_555 1_555
N2 H16 1_555 1_555
H17 N2 1_555 1_555
C25 N2 1_555 1_555
H18 C25 1_555 1_555
H19 C25 1_555 1_555
H20 C25 1_555 1_555
C26 N2 1_555 1_555
H21 C26 1_555 1_555
H22 C26 1_555 1_555
H23 C26 1_555 1_555
N2_2 H16_2 1_555 1_555
H17_2 N2_2 1_555 1_555
C25_2 N2_2 1_555 1_555
H18_2 C25_2 1_555 1_555
H19_2 C25_2 1_555 1_555
H20_2 C25_2 1_555 1_555
C26_2 N2_2 1_555 1_555
H21_2 C26_2 1_555 1_555
H22_2 C26_2 1_555 1_555
H23_2 C26_2 1_555 1_555
N2_3 H16_3 1_555 1_555
H17_3 N2_3 1_555 1_555
C25_3 N2_3 1_555 1_555
H18_3 C25_3 1_555 1_555
H19_3 C25_3 1_555 1_555
H20_3 C25_3 1_555 1_555
C26_3 N2_3 1_555 1_555
H21_3 C26_3 1_555 1_555
H22_3 C26_3 1_555 1_555
H23_3 C26_3 1_555 1_555
N2_4 H16_4 1_555 1_555
H17_4 N2_4 1_555 1_555
C25_4 N2_4 1_555 1_555
H18_4 C25_4 1_555 1_555
H19_4 C25_4 1_555 1_555
H20_4 C25_4 1_555 1_555
C26_4 N2_4 1_555 1_555
H21_4 C26_4 1_555 1_555
H22_4 C26_4 1_555 1_555
H23_4 C26_4 1_555 1_555

#END
