
###############################################################################
#
# This file contains modified crystal structure data generated from the
# MOF subset of the Cambridge Structural Database (CSD) v543 
# hosted by the Cambridge Crystallographic Data Centre (CCDC).
#
# This work is licensed under the Creative Commons
# Attribution-NonCommercial-ShareAlike 4.0 International License.
# To view a copy of this license, visit
# http://creativecommons.org/licenses/by-nc-sa/4.0/
# or send a letter to
# Creative Commons, PO Box 1866, Mountain View, CA 94042, USA.
#
# CIF created using the CSD Python API on 29 September 2022
# The structure has been converted into the P1 space group
# The structure has a 3D framework
# The original CSD entry YIGKAD is in the hexagonal crystal system
# The original CSD entry YIGKAD is in a Sohncke space group
# The framework has been calculated to contain at least 10.0% void space
# The void calculation uses a probe of radius 1.32A, grid spacing 0.4
# The framework is charged, counterions have been retained in the structure
#
###############################################################################

data_YIGKAD
_chemical_formula_moiety         '(C120 H168 In6 O48 6-)n'
_symmetry_cell_setting           triclinic
_symmetry_space_group_name_H-M   'P 1'
_symmetry_Int_Tables_number      1
_space_group_name_Hall           'P 1'
loop_
_symmetry_equiv_pos_site_id
_symmetry_equiv_pos_as_xyz
1 x,y,z
_cell_length_a                   12.361(9)
_cell_length_b                   12.361(9)
_cell_length_c                   37.86(3)
_cell_angle_alpha                90
_cell_angle_beta                 90
_cell_angle_gamma                120
_cell_volume                     5009.78
loop_
_atom_site_label
_atom_site_type_symbol
_atom_site_fract_x
_atom_site_fract_y
_atom_site_fract_z
O3 O 0.6806(4) 0.0252(5) 0.27299(12)
H11 H 0.8788 0.0403 0.2976
In1 In 0.50668(2) 0.49332(2) 0.4167
O1 O 0.5347(4) 0.8313(4) 0.26409(9)
O2 O 0.5864(4) 0.5408(4) 0.36096(11)
O4 O 0.4814(4) 0.6271(4) 0.38002(10)
C1 C 0.5458(6) 0.6126(6) 0.35597(14)
C2 C 0.5777(6) 0.6916(6) 0.32272(13)
H1 H 0.5074 0.7049 0.3177
C3 C 0.6421(6) 0.9079(8) 0.27408(14)
C4 C 0.6951(5) 0.8214(7) 0.32751(14)
C5 C 0.7311(6) 0.8648(9) 0.28779(16)
C6 C 0.7006(8) 0.7426(9) 0.2684(2)
H2 H 0.6709 0.7426 0.2447
H3 H 0.7748 0.7349 0.2668
C7 C 0.5992(9) 0.6336(8) 0.28981(17)
H4 H 0.5228 0.5894 0.2762
H5 H 0.6267 0.5752 0.2963
C8 C 0.7980(8) 0.8085(9) 0.3459(2)
H6 H 0.8161 0.7536 0.3325
H7 H 0.8719 0.8891 0.3477
H8 H 0.7706 0.7747 0.3692
C9 C 0.8663(8) 0.9691(9) 0.2841(2)
H9 H 0.9208 0.9407 0.2928
H10 H 0.8845 0.9920 0.2597
C10 C 0.6719(9) 0.9065(8) 0.3494(2)
H12 H 0.6075 0.9173 0.3387
H13 H 0.6459 0.8716 0.3726
H14 H 0.7472 0.9860 0.3511
O5 O 0.1687(4) 0.4653(4) 0.56924(9)
O6 O 0.4592(4) 0.4136(4) 0.47237(11)
O8 O 0.3729(4) 0.5186(4) 0.45331(10)
C11 C 0.3874(6) 0.4542(6) 0.47736(14)
C12 C 0.3084(6) 0.4223(6) 0.51061(13)
H15 H 0.2951 0.4926 0.5156
C13 C 0.0921(8) 0.3579(6) 0.55925(14)
C14 C 0.1786(7) 0.3049(5) 0.50582(14)
C15 C 0.1352(9) 0.2689(6) 0.54554(16)
C16 C 0.2574(9) 0.2994(8) 0.5649(2)
H16 H 0.2574 0.3291 0.5886
H17 H 0.2651 0.2252 0.5665
C17 C 0.3664(8) 0.4008(9) 0.54352(17)
H18 H 0.4106 0.4772 0.5571
H19 H 0.4248 0.3733 0.5370
C18 C 0.1915(9) 0.2020(8) 0.4874(2)
H20 H 0.2464 0.1839 0.5008
H21 H 0.1109 0.1281 0.4856
H22 H 0.2253 0.2294 0.4641
C19 C 0.0309(9) 0.1337(8) 0.5492(2)
H23 H 0.0593 0.0792 0.5405
H24 H 0.0080 0.1155 0.5736
C20 C 0.0935(8) 0.3281(9) 0.4839(2)
H26 H 0.0827 0.3925 0.4946
H27 H 0.1284 0.3541 0.4607
H28 H 0.0140 0.2528 0.4822
In2 In 0.49332(2) 0.98664(3) 0.2500
In3 In 0.01336(3) 0.50668(2) 0.5834
O9 O 0.7034(6) 0.5347(4) 0.43076(9)
O10 O 0.4653(4) 0.2966(6) 0.40258(9)
O11 O 0.6554(6) 0.6806(4) 0.43966(12)
O12 O 0.3194(4) 0.3446(6) 0.39368(12)
O7 O 0.9748(5) 0.3194(4) 0.56034(12)
H25 H 0.9597 0.1212 0.5357
In1_2 In 0.50668(2) 0.01336(3) 0.7500
O2_2 O 0.4592(4) 0.0456(6) 0.69429(11)
H3_2 H 0.2651 0.0399 0.6001
H5_2 H 0.4248 0.0515 0.6296
H6_2 H 0.2464 0.0625 0.6658
O6_2 O 0.5864(4) 0.0456(6) 0.80571(11)
H17_2 H 0.7748 0.0399 0.8999
H19_2 H 0.6267 0.0515 0.8704
H20_2 H 0.8161 0.0625 0.8342
O9_2 O 0.4653(4) 0.1687(7) 0.76409(9)
O10_2 O 0.7034(6) 0.1687(7) 0.73591(9)
O1_2 O 0.1687(4) 0.7034(6) 0.59742(9)
O4_2 O 0.3729(4) 0.8543(6) 0.71335(10)
C1_2 C 0.3874(6) 0.9332(8) 0.68930(14)
C2_2 C 0.3084(6) 0.8861(8) 0.65605(13)
H1_2 H 0.2951 0.8025 0.6510
C3_2 C 0.0921(8) 0.7342(10) 0.60741(14)
C4_2 C 0.1786(7) 0.8737(9) 0.66084(14)
C5_2 C 0.1352(9) 0.8663(11) 0.62112(16)
C6_2 C 0.2574(9) 0.9580(12) 0.6017(2)
H2_2 H 0.2574 0.9283 0.5780
C7_2 C 0.3664(8) 0.9656(12) 0.62314(17)
H4_2 H 0.4106 0.9334 0.6095
C8_2 C 0.1915(9) 0.9895(12) 0.6792(2)
H7_2 H 0.1109 0.9828 0.6810
H8_2 H 0.2253 0.9959 0.7025
C9_2 C 0.0309(9) 0.8972(12) 0.6174(2)
H9_2 H 0.0593 0.9801 0.6261
H10_2 H 0.0080 0.8925 0.5930
C10_2 C 0.0935(8) 0.7654(12) 0.6827(2)
H12_2 H 0.0827 0.6902 0.6720
H13_2 H 0.1284 0.7743 0.7059
H14_2 H 0.0140 0.7612 0.6844
O5_2 O 0.5347(4) 0.7034(6) 0.90258(9)
O7_2 O 0.6806(4) 0.6554(6) 0.89368(12)
O8_2 O 0.4814(4) 0.8543(6) 0.78665(10)
C11_2 C 0.5458(6) 0.9332(8) 0.81070(14)
C12_2 C 0.5777(6) 0.8861(8) 0.84395(13)
H15_2 H 0.5074 0.8025 0.8490
C13_2 C 0.6421(6) 0.7342(10) 0.89259(14)
C14_2 C 0.6951(5) 0.8737(9) 0.83916(14)
C15_2 C 0.7311(6) 0.8663(11) 0.87888(16)
C16_2 C 0.7006(8) 0.9580(12) 0.8983(2)
H16_2 H 0.6709 0.9283 0.9220
C17_2 C 0.5992(9) 0.9656(12) 0.87686(17)
H18_2 H 0.5228 0.9334 0.8905
C18_2 C 0.7980(8) 0.9895(12) 0.8208(2)
H21_2 H 0.8719 0.9828 0.8190
H22_2 H 0.7706 0.9959 0.7975
C19_2 C 0.8663(8) 0.8972(12) 0.8826(2)
H23_2 H 0.9208 0.9801 0.8739
H24_2 H 0.8845 0.8925 0.9070
H25_2 H 0.8788 0.8385 0.8691
C20_2 C 0.6719(9) 0.7654(12) 0.8173(2)
H26_2 H 0.6075 0.6902 0.8280
H27_2 H 0.6459 0.7743 0.7941
H28_2 H 0.7472 0.7612 0.8156
In3_2 In 0.49332(2) 0.50668(4) 0.9167
O11_2 O 0.3194(4) 0.9748(7) 0.77299(12)
O12_2 O 0.6554(6) 0.9748(7) 0.72701(12)
O3_2 O 0.9748(5) 0.6554(6) 0.60632(12)
H11_2 H 0.9597 0.8385 0.6309
O7_3 O 0.3446(6) 0.0252(5) 0.22701(12)
H25_3 H 0.1615 0.0403 0.2024
O4_3 O 0.1457(6) 0.5186(4) 0.04669(10)
C1_3 C 0.0668(8) 0.4542(6) 0.02264(14)
C8_3 C 0.0105(12) 0.2020(8) 0.0126(2)
H7_3 H 0.0172 0.1281 0.0144
H8_3 H 0.0041 0.2294 0.0359
C10_3 C 0.2346(12) 0.3281(9) 0.0161(2)
H12_3 H 0.3098 0.3925 0.0054
H13_3 H 0.2257 0.3541 0.0393
H14_3 H 0.2388 0.2528 0.0178
O5_3 O 0.2966(6) 0.8313(4) 0.23591(9)
O8_3 O 0.1457(6) 0.6271(4) 0.11998(10)
C11_3 C 0.0668(8) 0.6126(6) 0.14403(14)
C12_3 C 0.1139(8) 0.6916(6) 0.17728(13)
H15_3 H 0.1975 0.7049 0.1823
C13_3 C 0.2658(10) 0.9079(8) 0.22592(14)
C14_3 C 0.1263(9) 0.8214(7) 0.17249(14)
C15_3 C 0.1337(11) 0.8648(9) 0.21221(16)
C16_3 C 0.0420(12) 0.7426(9) 0.2316(2)
H16_3 H 0.0717 0.7426 0.2553
C17_3 C 0.0344(12) 0.6336(8) 0.21019(17)
H18_3 H 0.0666 0.5894 0.2238
C18_3 C 0.0105(12) 0.8085(9) 0.1541(2)
H21_3 H 0.0172 0.8891 0.1523
H22_3 H 0.0041 0.7747 0.1308
C19_3 C 0.1028(12) 0.9691(9) 0.2159(2)
H23_3 H 0.0199 0.9407 0.2072
H24_3 H 0.1075 0.9920 0.2403
C20_3 C 0.2346(12) 0.9065(8) 0.1506(2)
H26_3 H 0.3098 0.9173 0.1613
H27_3 H 0.2257 0.8716 0.1274
H28_3 H 0.2388 0.9860 0.1489
O11_3 O 0.0252(7) 0.3446(6) 0.10632(12)
O12_3 O 0.0252(7) 0.6806(4) 0.06034(12)
O1_3 O 0.2966(6) 0.4653(4) 0.93076(9)
O3_3 O 0.3446(6) 0.3194(4) 0.93966(12)
C2_3 C 0.1139(8) 0.4223(6) 0.98939(13)
H1_3 H 0.1975 0.4926 0.9844
C3_3 C 0.2658(10) 0.3579(6) 0.94075(14)
C4_3 C 0.1263(9) 0.3049(5) 0.99418(14)
C5_3 C 0.1337(11) 0.2689(6) 0.95446(16)
C6_3 C 0.0420(12) 0.2994(8) 0.9351(2)
H2_3 H 0.0717 0.3291 0.9114
C7_3 C 0.0344(12) 0.4008(9) 0.95648(17)
H4_3 H 0.0666 0.4772 0.9429
C9_3 C 0.1028(12) 0.1337(8) 0.9508(2)
H9_3 H 0.0199 0.0792 0.9595
H10_3 H 0.1075 0.1155 0.9264
H11_3 H 0.1615 0.1212 0.9643
In1_3 In 0.98664(3) 0.49332(2) 0.0834
O2_3 O 0.9544(6) 0.4136(4) 0.02763(11)
O6_3 O 0.9544(6) 0.5408(4) 0.13904(11)
H17_3 H 0.9601 0.7349 0.2332
H19_3 H 0.9485 0.5752 0.2037
H20_3 H 0.9375 0.7536 0.1675
O9_3 O 0.8313(7) 0.2966(6) 0.09742(9)
O10_3 O 0.8313(7) 0.5347(4) 0.06924(9)
H25_4 H 0.0403 0.8788 0.0357
C12_4 C 0.6916(6) 0.5777(6) 0.01061(13)
H15_4 H 0.7049 0.5074 0.0156
C13_4 C 0.9079(8) 0.6421(6) 0.05925(14)
C14_4 C 0.8214(7) 0.6951(5) 0.00582(14)
C15_4 C 0.8648(9) 0.7311(6) 0.04554(16)
C16_4 C 0.7426(9) 0.7006(8) 0.0649(2)
H16_4 H 0.7426 0.6709 0.0886
H17_4 H 0.7349 0.7748 0.0665
C17_4 C 0.6336(8) 0.5992(9) 0.04352(17)
H18_4 H 0.5894 0.5228 0.0571
H19_4 H 0.5752 0.6267 0.0370
H20_4 H 0.7536 0.8161 0.0008
C19_4 C 0.9691(9) 0.8663(8) 0.0492(2)
H23_4 H 0.9407 0.9208 0.0405
H24_4 H 0.9920 0.8845 0.0736
O2_4 O 0.4136(4) 0.4592(4) 0.86096(11)
O4_4 O 0.5186(4) 0.3729(4) 0.88002(10)
C1_4 C 0.4542(6) 0.3874(6) 0.85597(14)
C2_4 C 0.4223(6) 0.3084(6) 0.82272(13)
H1_4 H 0.4926 0.2951 0.8177
C3_4 C 0.3579(6) 0.0921(8) 0.77408(14)
C4_4 C 0.3049(5) 0.1786(7) 0.82751(14)
C5_4 C 0.2689(6) 0.1352(9) 0.78779(16)
C6_4 C 0.2994(8) 0.2574(9) 0.7684(2)
H2_4 H 0.3291 0.2574 0.7447
H3_3 H 0.2252 0.2651 0.7668
C7_4 C 0.4008(9) 0.3664(8) 0.78981(17)
H4_4 H 0.4772 0.4106 0.7762
H5_3 H 0.3733 0.4248 0.7963
C8_4 C 0.2020(8) 0.1915(9) 0.8459(2)
H6_3 H 0.1839 0.2464 0.8325
H7_4 H 0.1281 0.1109 0.8477
H8_4 H 0.2294 0.2253 0.8692
C9_4 C 0.1337(8) 0.0309(9) 0.7841(2)
H9_4 H 0.0792 0.0593 0.7928
H10_4 H 0.1155 0.0080 0.7597
C10_4 C 0.3281(9) 0.0935(8) 0.8494(2)
H12_4 H 0.3925 0.0827 0.8387
H13_4 H 0.3541 0.1284 0.8726
H14_4 H 0.2528 0.0140 0.8511
O6_4 O 0.5408(4) 0.5864(4) 0.97237(11)
O8_4 O 0.6271(4) 0.4814(4) 0.95331(10)
C11_4 C 0.6126(6) 0.5458(6) 0.97736(14)
C18_4 C 0.8085(9) 0.7980(8) 0.9874(2)
H21_4 H 0.8891 0.8719 0.9856
H22_4 H 0.7747 0.7706 0.9641
C20_4 C 0.9065(8) 0.6719(9) 0.9839(2)
H26_4 H 0.9173 0.6075 0.9946
H27_4 H 0.8716 0.6459 0.9607
H28_4 H 0.9860 0.7472 0.9822
H11_4 H 0.1212 0.9597 0.7976
H11_5 H 0.0403 0.1615 0.1309
O4_5 O 0.6271(4) 0.1457(6) 0.21335(10)
C1_5 C 0.6126(6) 0.0668(8) 0.18930(14)
C2_5 C 0.6916(6) 0.1139(8) 0.15605(13)
H1_5 H 0.7049 0.1975 0.1510
C3_5 C 0.9079(8) 0.2658(10) 0.10741(14)
C4_5 C 0.8214(7) 0.1263(9) 0.16084(14)
C5_5 C 0.8648(9) 0.1337(11) 0.12112(16)
C6_5 C 0.7426(9) 0.0420(12) 0.1017(2)
H2_5 H 0.7426 0.0717 0.0780
C7_5 C 0.6336(8) 0.0344(12) 0.12314(17)
H4_5 H 0.5894 0.0666 0.1095
C8_5 C 0.8085(9) 0.0105(12) 0.1792(2)
H7_5 H 0.8891 0.0172 0.1810
H8_5 H 0.7747 0.0041 0.2025
C9_5 C 0.9691(9) 0.1028(12) 0.1174(2)
H9_5 H 0.9407 0.0199 0.1261
H10_5 H 0.9920 0.1075 0.0930
C10_5 C 0.9065(8) 0.2346(12) 0.1827(2)
H12_5 H 0.9173 0.3098 0.1720
H13_5 H 0.8716 0.2257 0.2059
H14_5 H 0.9860 0.2388 0.1844
O8_5 O 0.5186(4) 0.1457(6) 0.28665(10)
C11_5 C 0.4542(6) 0.0668(8) 0.31070(14)
C12_5 C 0.4223(6) 0.1139(8) 0.34395(13)
H15_5 H 0.4926 0.1975 0.3490
C13_5 C 0.3579(6) 0.2658(10) 0.39259(14)
C14_5 C 0.3049(5) 0.1263(9) 0.33916(14)
C15_5 C 0.2689(6) 0.1337(11) 0.37888(16)
C16_5 C 0.2994(8) 0.0420(12) 0.3983(2)
H16_5 H 0.3291 0.0717 0.4220
C17_5 C 0.4008(9) 0.0344(12) 0.37686(17)
H18_5 H 0.4772 0.0666 0.3905
C18_5 C 0.2020(8) 0.0105(12) 0.3208(2)
H21_5 H 0.1281 0.0172 0.3190
H22_5 H 0.2294 0.0041 0.2975
C19_5 C 0.1337(8) 0.1028(12) 0.3826(2)
H23_5 H 0.0792 0.0199 0.3739
H24_5 H 0.1155 0.1075 0.4070
H25_5 H 0.1212 0.1615 0.3691
C20_5 C 0.3281(9) 0.2346(12) 0.3173(2)
H26_5 H 0.3925 0.3098 0.3280
H27_5 H 0.3541 0.2257 0.2941
H28_5 H 0.2528 0.2388 0.3156
O2_5 O 0.5408(4) 0.9544(6) 0.19429(11)
H3_4 H 0.7349 0.9601 0.1001
H5_4 H 0.5752 0.9485 0.1296
H6_4 H 0.7536 0.9375 0.1658
O6_5 O 0.4136(4) 0.9544(6) 0.30571(11)
H17_5 H 0.2252 0.9601 0.3999
H19_5 H 0.3733 0.9485 0.3704
H20_5 H 0.1839 0.9375 0.3342
O2_6 O 0.0456(6) 0.5864(4) 0.52763(11)
H3_5 H 0.0399 0.7748 0.4335
H5_5 H 0.0515 0.6267 0.4630
H6_5 H 0.0625 0.8161 0.4992
O6_6 O 0.0456(6) 0.4592(4) 0.63904(11)
H17_6 H 0.0399 0.2651 0.7332
H19_6 H 0.0515 0.4248 0.7037
H20_6 H 0.0625 0.2464 0.6675
O4_6 O 0.8543(6) 0.4814(4) 0.54669(10)
C1_6 C 0.9332(8) 0.5458(6) 0.52264(14)
C2_6 C 0.8861(8) 0.5777(6) 0.48939(13)
H1_6 H 0.8025 0.5074 0.4844
C3_6 C 0.7342(10) 0.6421(6) 0.44075(14)
C4_6 C 0.8737(9) 0.6951(5) 0.49418(14)
C5_6 C 0.8663(11) 0.7311(6) 0.45446(16)
C6_6 C 0.9580(12) 0.7006(8) 0.4351(2)
H2_6 H 0.9283 0.6709 0.4114
C7_6 C 0.9656(12) 0.5992(9) 0.45648(17)
H4_6 H 0.9334 0.5228 0.4429
C8_6 C 0.9895(12) 0.7980(8) 0.5126(2)
H7_6 H 0.9828 0.8719 0.5144
H8_6 H 0.9959 0.7706 0.5359
C9_6 C 0.8972(12) 0.8663(8) 0.4508(2)
H9_6 H 0.9801 0.9208 0.4595
H10_6 H 0.8925 0.8845 0.4264
H11_6 H 0.8385 0.8788 0.4643
C10_6 C 0.7654(12) 0.6719(9) 0.5161(2)
H12_6 H 0.6902 0.6075 0.5054
H13_6 H 0.7743 0.6459 0.5393
H14_6 H 0.7612 0.7472 0.5178
O8_6 O 0.8543(6) 0.3729(4) 0.61998(10)
C11_6 C 0.9332(8) 0.3874(6) 0.64403(14)
C12_6 C 0.8861(8) 0.3084(6) 0.67728(13)
H15_6 H 0.8025 0.2951 0.6823
C13_6 C 0.7342(10) 0.0921(8) 0.72592(14)
C14_6 C 0.8737(9) 0.1786(7) 0.67249(14)
C15_6 C 0.8663(11) 0.1352(9) 0.71221(16)
C16_6 C 0.9580(12) 0.2574(9) 0.7316(2)
H16_6 H 0.9283 0.2574 0.7553
C17_6 C 0.9656(12) 0.3664(8) 0.71019(17)
H18_6 H 0.9334 0.4106 0.7238
C18_6 C 0.9895(12) 0.1915(9) 0.6541(2)
H21_6 H 0.9828 0.1109 0.6523
H22_6 H 0.9959 0.2253 0.6308
C19_6 C 0.8972(12) 0.0309(9) 0.7159(2)
H23_6 H 0.9801 0.0593 0.7072
H24_6 H 0.8925 0.0080 0.7403
C20_6 C 0.7654(12) 0.0935(8) 0.6506(2)
H26_6 H 0.6902 0.0827 0.6613
H27_6 H 0.7743 0.1284 0.6274
H28_6 H 0.7612 0.0140 0.6489
H25_6 H 0.8385 0.9597 0.7024
H3_6 H 0.9601 0.2252 0.9335
H5_6 H 0.9485 0.3733 0.9630
H6_6 H 0.9375 0.1839 0.9992
loop_
_geom_bond_atom_site_label_1
_geom_bond_atom_site_label_2
_geom_bond_site_symmetry_1
_geom_bond_site_symmetry_2
In1 O2 1_555 1_555
O1 C3 1_555 1_555
O2 C1 1_555 1_555
O4 In1 1_555 1_555
C1 O4 1_555 1_555
C2 C1 1_555 1_555
H1 C2 1_555 1_555
C3 C5 1_555 1_555
C4 C2 1_555 1_555
C5 C4 1_555 1_555
C6 C5 1_555 1_555
H2 C6 1_555 1_555
H3 C6 1_555 1_555
C7 C2 1_555 1_555
H4 C7 1_555 1_555
H5 C7 1_555 1_555
C8 C4 1_555 1_555
H6 C8 1_555 1_555
H7 C8 1_555 1_555
H8 C8 1_555 1_555
C9 C5 1_555 1_555
H9 C9 1_555 1_555
H10 C9 1_555 1_555
C10 C4 1_555 1_555
H12 C10 1_555 1_555
H13 C10 1_555 1_555
H14 C10 1_555 1_555
O5 C13 1_555 1_555
O6 In1 1_555 1_555
O8 In1 1_555 1_555
C11 O6 1_555 1_555
C12 C11 1_555 1_555
H15 C12 1_555 1_555
C13 C15 1_555 1_555
C14 C12 1_555 1_555
C15 C14 1_555 1_555
C16 C15 1_555 1_555
H16 C16 1_555 1_555
H17 C16 1_555 1_555
C17 C12 1_555 1_555
H18 C17 1_555 1_555
H19 C17 1_555 1_555
C18 C14 1_555 1_555
H20 C18 1_555 1_555
H21 C18 1_555 1_555
H22 C18 1_555 1_555
C19 C15 1_555 1_555
H23 C19 1_555 1_555
H24 C19 1_555 1_555
C20 C14 1_555 1_555
H26 C20 1_555 1_555
H27 C20 1_555 1_555
H28 C20 1_555 1_555
In2 O1 1_555 1_555
In3 O5 1_555 1_555
O9 In1 1_555 1_555
O10 In1 1_555 1_555
O11 In1 1_555 1_555
O12 In1 1_555 1_555
C6 C7 1_555 1_555
O8 C11 1_555 1_555
C16 C17 1_555 1_555
In1_2 O2_2 1_555 1_555
O6_2 In1_2 1_555 1_555
O9_2 In1_2 1_555 1_555
O10_2 In1_2 1_555 1_555
O1_2 C3_2 1_555 1_555
C1_2 O4_2 1_555 1_555
C2_2 C1_2 1_555 1_555
H1_2 C2_2 1_555 1_555
C3_2 C5_2 1_555 1_555
C4_2 C2_2 1_555 1_555
C5_2 C4_2 1_555 1_555
C6_2 C5_2 1_555 1_555
H2_2 C6_2 1_555 1_555
C7_2 C2_2 1_555 1_555
H4_2 C7_2 1_555 1_555
C8_2 C4_2 1_555 1_555
H7_2 C8_2 1_555 1_555
H8_2 C8_2 1_555 1_555
C9_2 C5_2 1_555 1_555
H9_2 C9_2 1_555 1_555
H10_2 C9_2 1_555 1_555
C10_2 C4_2 1_555 1_555
H12_2 C10_2 1_555 1_555
H13_2 C10_2 1_555 1_555
H14_2 C10_2 1_555 1_555
O5_2 C13_2 1_555 1_555
O7_2 C13_2 1_555 1_555
C12_2 C11_2 1_555 1_555
H15_2 C12_2 1_555 1_555
C13_2 C15_2 1_555 1_555
C14_2 C12_2 1_555 1_555
C15_2 C14_2 1_555 1_555
C16_2 C15_2 1_555 1_555
H16_2 C16_2 1_555 1_555
C17_2 C12_2 1_555 1_555
H18_2 C17_2 1_555 1_555
C18_2 C14_2 1_555 1_555
H21_2 C18_2 1_555 1_555
H22_2 C18_2 1_555 1_555
C19_2 C15_2 1_555 1_555
H23_2 C19_2 1_555 1_555
H24_2 C19_2 1_555 1_555
H25_2 C19_2 1_555 1_555
C20_2 C14_2 1_555 1_555
H26_2 C20_2 1_555 1_555
H27_2 C20_2 1_555 1_555
H28_2 C20_2 1_555 1_555
In3 O1_2 1_555 1_555
In3_2 O5_2 1_555 1_555
C6_2 C7_2 1_555 1_555
O7_2 In3_2 1_555 1_555
O8_2 C11_2 1_555 1_555
C16_2 C17_2 1_555 1_555
C1_3 O4_3 1_555 1_555
H7_3 C8_3 1_555 1_555
H8_3 C8_3 1_555 1_555
H12_3 C10_3 1_555 1_555
H13_3 C10_3 1_555 1_555
H14_3 C10_3 1_555 1_555
O5_3 C13_3 1_555 1_555
C12_3 C11_3 1_555 1_555
H15_3 C12_3 1_555 1_555
C13_3 C15_3 1_555 1_555
C14_3 C12_3 1_555 1_555
C15_3 C14_3 1_555 1_555
C16_3 C15_3 1_555 1_555
H16_3 C16_3 1_555 1_555
C17_3 C12_3 1_555 1_555
H18_3 C17_3 1_555 1_555
C18_3 C14_3 1_555 1_555
H21_3 C18_3 1_555 1_555
H22_3 C18_3 1_555 1_555
C19_3 C15_3 1_555 1_555
H23_3 C19_3 1_555 1_555
H24_3 C19_3 1_555 1_555
C20_3 C14_3 1_555 1_555
H26_3 C20_3 1_555 1_555
H27_3 C20_3 1_555 1_555
H28_3 C20_3 1_555 1_555
In2 O5_3 1_555 1_555
O8_3 C11_3 1_555 1_555
C16_3 C17_3 1_555 1_555
O1_3 C3_3 1_555 1_555
O3_3 C3_3 1_555 1_555
H1_3 C2_3 1_555 1_555
C3_3 C5_3 1_555 1_555
C4_3 C2_3 1_555 1_555
C5_3 C4_3 1_555 1_555
C6_3 C5_3 1_555 1_555
H2_3 C6_3 1_555 1_555
C7_3 C2_3 1_555 1_555
H4_3 C7_3 1_555 1_555
C9_3 C5_3 1_555 1_555
H9_3 C9_3 1_555 1_555
H10_3 C9_3 1_555 1_555
H11_3 C9_3 1_555 1_555
In3_2 O1_3 1_555 1_555
O3_3 In3_2 1_555 1_555
C6_3 C7_3 1_555 1_555
In1_3 O2_3 1_555 1_555
O6_3 In1_3 1_555 1_555
O9_3 In1_3 1_555 1_555
O10_3 In1_3 1_555 1_555
O10_3 C13_4 1_555 1_555
H15_4 C12_4 1_555 1_555
C13_4 C15_4 1_555 1_555
C14_4 C12_4 1_555 1_555
C15_4 C14_4 1_555 1_555
C16_4 C15_4 1_555 1_555
H16_4 C16_4 1_555 1_555
H17_4 C16_4 1_555 1_555
C17_4 C12_4 1_555 1_555
H18_4 C17_4 1_555 1_555
H19_4 C17_4 1_555 1_555
C19_4 C15_4 1_555 1_555
H23_4 C19_4 1_555 1_555
H24_4 C19_4 1_555 1_555
C16_4 C17_4 1_555 1_555
In3_2 O2_4 1_555 1_555
O9_2 C3_4 1_555 1_555
O2_4 C1_4 1_555 1_555
O4_4 In3_2 1_555 1_555
C1_4 O4_4 1_555 1_555
C2_4 C1_4 1_555 1_555
H1_4 C2_4 1_555 1_555
C3_4 C5_4 1_555 1_555
C4_4 C2_4 1_555 1_555
C5_4 C4_4 1_555 1_555
C6_4 C5_4 1_555 1_555
H2_4 C6_4 1_555 1_555
H3_3 C6_4 1_555 1_555
C7_4 C2_4 1_555 1_555
H4_4 C7_4 1_555 1_555
H5_3 C7_4 1_555 1_555
C8_4 C4_4 1_555 1_555
H6_3 C8_4 1_555 1_555
H7_4 C8_4 1_555 1_555
H8_4 C8_4 1_555 1_555
C9_4 C5_4 1_555 1_555
H9_4 C9_4 1_555 1_555
H10_4 C9_4 1_555 1_555
C10_4 C4_4 1_555 1_555
H12_4 C10_4 1_555 1_555
H13_4 C10_4 1_555 1_555
H14_4 C10_4 1_555 1_555
O6_4 In3_2 1_555 1_555
O8_4 In3_2 1_555 1_555
C11_4 O6_4 1_555 1_555
H21_4 C18_4 1_555 1_555
H22_4 C18_4 1_555 1_555
H26_4 C20_4 1_555 1_555
H27_4 C20_4 1_555 1_555
H28_4 C20_4 1_555 1_555
C6_4 C7_4 1_555 1_555
O8_4 C11_4 1_555 1_555
O9_3 C3_5 1_555 1_555
C1_5 O4_5 1_555 1_555
C2_5 C1_5 1_555 1_555
H1_5 C2_5 1_555 1_555
C3_5 C5_5 1_555 1_555
C4_5 C2_5 1_555 1_555
C5_5 C4_5 1_555 1_555
C6_5 C5_5 1_555 1_555
H2_5 C6_5 1_555 1_555
C7_5 C2_5 1_555 1_555
H4_5 C7_5 1_555 1_555
C8_5 C4_5 1_555 1_555
H7_5 C8_5 1_555 1_555
H8_5 C8_5 1_555 1_555
C9_5 C5_5 1_555 1_555
H9_5 C9_5 1_555 1_555
H10_5 C9_5 1_555 1_555
C10_5 C4_5 1_555 1_555
H12_5 C10_5 1_555 1_555
H13_5 C10_5 1_555 1_555
H14_5 C10_5 1_555 1_555
O10 C13_5 1_555 1_555
O12 C13_5 1_555 1_555
C12_5 C11_5 1_555 1_555
H15_5 C12_5 1_555 1_555
C13_5 C15_5 1_555 1_555
C14_5 C12_5 1_555 1_555
C15_5 C14_5 1_555 1_555
C16_5 C15_5 1_555 1_555
H16_5 C16_5 1_555 1_555
C17_5 C12_5 1_555 1_555
H18_5 C17_5 1_555 1_555
C18_5 C14_5 1_555 1_555
H21_5 C18_5 1_555 1_555
H22_5 C18_5 1_555 1_555
C19_5 C15_5 1_555 1_555
H23_5 C19_5 1_555 1_555
H24_5 C19_5 1_555 1_555
H25_5 C19_5 1_555 1_555
C20_5 C14_5 1_555 1_555
H26_5 C20_5 1_555 1_555
H27_5 C20_5 1_555 1_555
H28_5 C20_5 1_555 1_555
C6_5 C7_5 1_555 1_555
O8_5 C11_5 1_555 1_555
C16_5 C17_5 1_555 1_555
In2 O2_5 1_555 1_555
O6_5 In2 1_555 1_555
In3 O2_6 1_555 1_555
O6_6 In3 1_555 1_555
O9 C3_6 1_555 1_555
O11 C3_6 1_555 1_555
C1_6 O4_6 1_555 1_555
C2_6 C1_6 1_555 1_555
H1_6 C2_6 1_555 1_555
C3_6 C5_6 1_555 1_555
C4_6 C2_6 1_555 1_555
C5_6 C4_6 1_555 1_555
C6_6 C5_6 1_555 1_555
H2_6 C6_6 1_555 1_555
C7_6 C2_6 1_555 1_555
H4_6 C7_6 1_555 1_555
C8_6 C4_6 1_555 1_555
H7_6 C8_6 1_555 1_555
H8_6 C8_6 1_555 1_555
C9_6 C5_6 1_555 1_555
H9_6 C9_6 1_555 1_555
H10_6 C9_6 1_555 1_555
H11_6 C9_6 1_555 1_555
C10_6 C4_6 1_555 1_555
H12_6 C10_6 1_555 1_555
H13_6 C10_6 1_555 1_555
H14_6 C10_6 1_555 1_555
O10_2 C13_6 1_555 1_555
C12_6 C11_6 1_555 1_555
H15_6 C12_6 1_555 1_555
C13_6 C15_6 1_555 1_555
C14_6 C12_6 1_555 1_555
C15_6 C14_6 1_555 1_555
C16_6 C15_6 1_555 1_555
H16_6 C16_6 1_555 1_555
C17_6 C12_6 1_555 1_555
H18_6 C17_6 1_555 1_555
C18_6 C14_6 1_555 1_555
H21_6 C18_6 1_555 1_555
H22_6 C18_6 1_555 1_555
C19_6 C15_6 1_555 1_555
H23_6 C19_6 1_555 1_555
H24_6 C19_6 1_555 1_555
C20_6 C14_6 1_555 1_555
H26_6 C20_6 1_555 1_555
H27_6 C20_6 1_555 1_555
H28_6 C20_6 1_555 1_555
C6_6 C7_6 1_555 1_555
O8_6 C11_6 1_555 1_555
C16_6 C17_6 1_555 1_555

#END
