
###############################################################################
#
# This file contains modified crystal structure data generated from the
# MOF subset of the Cambridge Structural Database (CSD) v543 
# hosted by the Cambridge Crystallographic Data Centre (CCDC).
#
# This work is licensed under the Creative Commons
# Attribution-NonCommercial-ShareAlike 4.0 International License.
# To view a copy of this license, visit
# http://creativecommons.org/licenses/by-nc-sa/4.0/
# or send a letter to
# Creative Commons, PO Box 1866, Mountain View, CA 94042, USA.
#
# CIF created using the CSD Python API on 29 September 2022
# The structure has been converted into the P1 space group
# The structure has a 3D framework
# The original CSD entry YIHBOI is in the monoclinic crystal system
# The framework has been calculated to contain at least 10.0% void space
# The void calculation uses a probe of radius 1.32A, grid spacing 0.4
#
###############################################################################

data_YIHBOI
_chemical_formula_moiety         '(C192 H120 Cd8 F24 N24 O32)n'
_symmetry_cell_setting           triclinic
_symmetry_space_group_name_H-M   'P 1'
_symmetry_Int_Tables_number      1
_space_group_name_Hall           'P 1'
loop_
_symmetry_equiv_pos_site_id
_symmetry_equiv_pos_as_xyz
1 x,y,z
_cell_length_a                   20.769(2)
_cell_length_b                   11.6795(12)
_cell_length_c                   20.382(2)
_cell_angle_alpha                90
_cell_angle_beta                 105.5720(10)
_cell_angle_gamma                90
_cell_volume                     4762.61
loop_
_atom_site_label
_atom_site_type_symbol
_atom_site_fract_x
_atom_site_fract_y
_atom_site_fract_z
C25 C 0.2532(3) 0.0036(4) 0.9605(3)
H16 H 0.2646 0.0759 0.9792
Cd2 Cd 0.248824(14) 0.14312(2) 0.824166(15)
F4 F 0.0905(2) 0.3174(4) 0.4778(4)
F5 F 0.0036(2) 0.2709(4) 0.4991(3)
F6 F 0.0203(4) 0.2119(5) 0.4118(2)
N5 N 0.15256(18) 0.2369(3) 0.8521(2)
O5 O 0.2502(2) 0.1005(4) 0.7015(3)
O6 O 0.1600(3) 0.0720(5) 0.7335(2)
C30 C 0.0954(2) 0.1796(4) 0.8414(2)
H20 H 0.0958 0.1016 0.8324
C31 C 0.0351(2) 0.2295(4) 0.8429(2)
C32 C 0.0326(2) 0.3459(4) 0.8562(2)
C33 C 0.0935(2) 0.4058(5) 0.8703(3)
H22 H 0.0951 0.4832 0.8814
C34 C 0.1510(2) 0.3483(4) 0.8676(3)
H23 H 0.1908 0.3893 0.8772
H27 H 0.0044 0.5256 0.9253
C40 C 0.1907(3) 0.0719(4) 0.6898(3)
C41 C 0.1529(2) 0.0474(4) 0.6163(2)
C42 C 0.1210(2) 0.1405(4) 0.5794(2)
H28 H 0.1239 0.2120 0.6001
C43 C 0.0847(2) 0.1281(4) 0.5115(2)
C44 C 0.0807(2) 0.0232(4) 0.4798(2)
H29 H 0.0566 0.0151 0.4345
C48 C 0.0512(3) 0.2305(5) 0.4740(3)
N8 N 0.35094(17) 0.0315(3) 0.83835(19)
O10 O 0.29212(17) 0.3349(3) 0.81726(17)
O12 O 0.31210(16) 0.2508(3) 0.91740(17)
Cd1 Cd 0.251176(14) 0.35688(2) 0.175834(15)
F1 F 0.4095(2) 0.1826(4) 0.5222(4)
F2 F 0.4964(2) 0.2291(4) 0.5009(3)
F3 F 0.4797(4) 0.2881(5) 0.5882(2)
N1 N 0.34744(18) 0.2631(3) 0.1479(2)
N2 N 0.26983(19) 0.5057(3) 0.1070(2)
O1 O 0.2498(2) 0.3995(4) 0.2985(3)
O2 O 0.3400(3) 0.4280(5) 0.2665(2)
O3 O 0.29212(17) 0.6651(3) 0.31726(17)
O4 O 0.31210(16) 0.7492(3) 0.41740(17)
C1 C 0.4046(2) 0.3204(4) 0.1586(2)
H1 H 0.4042 0.3984 0.1676
C2 C 0.4649(2) 0.2705(4) 0.1571(2)
H2 H 0.5034 0.3148 0.1649
C3 C 0.4674(2) 0.1541(4) 0.1438(2)
C4 C 0.4065(2) 0.0942(5) 0.1297(3)
H3 H 0.4049 0.0168 0.1186
C5 C 0.3490(2) 0.1517(4) 0.1324(3)
H4 H 0.3092 0.1107 0.1228
C6 C 0.5306(2) 0.0934(4) 0.1473(2)
C7 C 0.5901(2) 0.1255(4) 0.1927(2)
H5 H 0.5918 0.1906 0.2194
C8 C 0.6467(2) 0.0616(4) 0.1986(2)
H6 H 0.6858 0.0846 0.2303
C11 C 0.2468(3) 0.4964(4) 0.0395(3)
H9 H 0.2354 0.4241 0.0208
C13 C 0.2547(2) 0.6988(4) 0.0224(2)
C14 C 0.2793(3) 0.7070(4) 0.0927(3)
H11 H 0.2915 0.7779 0.1130
C15 C 0.2855(3) 0.6102(4) 0.1319(3)
H12 H 0.3017 0.6182 0.1789
C16 C 0.3093(3) 0.4281(4) 0.3102(3)
C17 C 0.3471(2) 0.4526(4) 0.3837(2)
C18 C 0.3790(2) 0.3595(4) 0.4206(2)
H13 H 0.3761 0.2880 0.3999
C19 C 0.4153(2) 0.3719(4) 0.4885(2)
C20 C 0.4193(2) 0.4768(4) 0.5202(2)
H14 H 0.4434 0.4849 0.5655
C21 C 0.3870(2) 0.5699(4) 0.4838(2)
H15 H 0.3895 0.6407 0.5051
C22 C 0.3508(2) 0.5596(4) 0.4156(2)
C23 C 0.3161(2) 0.6652(4) 0.3809(2)
C24 C 0.4488(3) 0.2695(5) 0.5260(3)
C26 C 0.2609(3) 0.9106(4) 0.0040(3)
H17 H 0.2766 0.9213 0.0508
Cd4 Cd 0.248824(14) 0.85688(2) 0.324166(15)
N7 N 0.14906(17) 0.4685(3) 0.16165(19)
O9 O 0.20788(17) 0.1651(3) 0.18274(17)
O11 O 0.18790(16) 0.2492(3) 0.08260(17)
C12 C 0.2391(3) 0.5894(4) 0.9960(3)
H10 H 0.2234 0.5787 0.9492
N4 N 0.23017(19) 0.9943(3) 0.8930(2)
C27 C 0.2453(2) 0.8012(4) 0.9776(2)
C28 C 0.2207(3) 0.7930(4) 0.9073(3)
H18 H 0.2085 0.7221 0.8870
C29 C 0.2145(3) 0.8898(4) 0.8681(3)
H19 H 0.1983 0.8818 0.8211
O7 O 0.20788(17) 0.8349(3) 0.68274(17)
O8 O 0.18790(16) 0.7508(3) 0.58260(17)
C45 C 0.1130(2) 0.9301(4) 0.5162(2)
H30 H 0.1105 0.8593 0.4949
C46 C 0.1492(2) 0.9404(4) 0.5844(2)
C47 C 0.1839(2) 0.8348(4) 0.6191(2)
Cd6 Cd 0.251176(14) 0.64312(2) 0.675834(15)
N6 N 0.14906(17) 0.5315(3) 0.66165(19)
H21 H 0.0034 0.1852 0.6649
C35 C 0.0306(2) 0.4066(4) 0.6473(2)
C36 C 0.0901(2) 0.3745(4) 0.6927(2)
H24 H 0.0918 0.3094 0.7194
C37 C 0.1467(2) 0.4384(4) 0.6986(2)
H25 H 0.1858 0.4154 0.7303
C38 C 0.0928(2) 0.5590(4) 0.6149(3)
H26 H 0.0936 0.6204 0.5862
C39 C 0.0338(2) 0.5012(4) 0.6071(3)
N3 N 0.35094(17) 0.9685(3) 0.33835(19)
C9 C 0.4072(2) 0.9410(4) 0.3851(3)
H7 H 0.4064 0.8796 0.4138
C10 C 0.4662(2) 0.9988(4) 0.3929(3)
H8 H 0.5044 0.9744 0.4253
H2_2 H 0.0034 0.8148 0.1649
C6_2 C 0.0306(2) 0.5934(4) 0.1473(2)
C7_2 C 0.0901(2) 0.6255(4) 0.1927(2)
H5_2 H 0.0918 0.6906 0.2194
C8_2 C 0.1467(2) 0.5616(4) 0.1986(2)
H6_2 H 0.1858 0.5846 0.2303
C9_2 C 0.0928(2) 0.4410(4) 0.1149(3)
H7_2 H 0.0936 0.3796 0.0862
C10_2 C 0.0338(2) 0.4988(4) 0.1071(3)
C38_2 C 0.4072(2) 0.0590(4) 0.8851(3)
H26_2 H 0.4064 0.1204 0.9138
C39_2 C 0.4662(2) 0.0012(4) 0.8929(3)
H27_2 H 0.5044 0.0256 0.9253
N2_2 N 0.23017(19) 0.0057(3) 0.3930(2)
C12_2 C 0.2609(3) 0.0894(4) 0.5040(3)
H10_2 H 0.2766 0.0787 0.5508
C13_2 C 0.2453(2) 0.1988(4) 0.4776(2)
C14_2 C 0.2207(3) 0.2070(4) 0.4073(3)
H11_2 H 0.2085 0.2779 0.3870
C15_2 C 0.2145(3) 0.1102(4) 0.3681(3)
H12_2 H 0.1983 0.1182 0.3211
C21_2 C 0.1130(2) 0.0699(4) 0.0162(2)
C22_2 C 0.1492(2) 0.0596(4) 0.0844(2)
C23_2 C 0.1839(2) 0.1652(4) 0.1191(2)
N4_2 N 0.26983(19) 0.4943(3) 0.6070(2)
C25_2 C 0.2468(3) 0.5036(4) 0.5395(3)
H16_2 H 0.2354 0.5759 0.5208
C26_2 C 0.2391(3) 0.4106(4) 0.4960(3)
H17_2 H 0.2234 0.4213 0.4492
C27_2 C 0.2547(2) 0.3012(4) 0.5224(2)
C28_2 C 0.2793(3) 0.2930(4) 0.5927(3)
H18_2 H 0.2915 0.2221 0.6130
C29_2 C 0.2855(3) 0.3898(4) 0.6319(3)
H19_2 H 0.3017 0.3818 0.6789
N5_2 N 0.34744(18) 0.7369(3) 0.6479(2)
O5_2 O 0.2498(2) 0.6005(4) 0.7985(3)
O6_2 O 0.3400(3) 0.5720(5) 0.7665(2)
C30_2 C 0.4046(2) 0.6796(4) 0.6586(2)
H20_2 H 0.4042 0.6016 0.6676
C31_2 C 0.4649(2) 0.7295(4) 0.6571(2)
H21_2 H 0.5034 0.6852 0.6649
C32_2 C 0.4674(2) 0.8459(4) 0.6438(2)
C33_2 C 0.4065(2) 0.9058(5) 0.6297(3)
H22_2 H 0.4049 0.9832 0.6186
C34_2 C 0.3490(2) 0.8483(4) 0.6324(3)
H23_2 H 0.3092 0.8893 0.6228
C35_2 C 0.5306(2) 0.9066(4) 0.6473(2)
C36_2 C 0.5901(2) 0.8745(4) 0.6927(2)
H24_2 H 0.5918 0.8094 0.7194
C37_2 C 0.6467(2) 0.9384(4) 0.6986(2)
H25_2 H 0.6858 0.9154 0.7303
C40_2 C 0.3093(3) 0.5719(4) 0.8102(3)
C41_2 C 0.3471(2) 0.5474(4) 0.8837(2)
C42_2 C 0.3790(2) 0.6405(4) 0.9206(2)
H28_2 H 0.3761 0.7120 0.8999
C43_2 C 0.4153(2) 0.6281(4) 0.9885(2)
C45_2 C 0.3870(2) 0.4301(4) 0.9838(2)
C46_2 C 0.3508(2) 0.4404(4) 0.9156(2)
C47_2 C 0.3161(2) 0.3348(4) 0.8809(2)
N1_2 N 0.15256(18) 0.7631(3) 0.3521(2)
O1_2 O 0.2502(2) 0.8995(4) 0.2015(3)
O2_2 O 0.1600(3) 0.9280(5) 0.2335(2)
C1_2 C 0.0954(2) 0.8204(4) 0.3414(2)
H1_2 H 0.0958 0.8984 0.3324
C2_2 C 0.0351(2) 0.7705(4) 0.3429(2)
C3_2 C 0.0326(2) 0.6541(4) 0.3562(2)
C4_2 C 0.0935(2) 0.5942(5) 0.3703(3)
H3_2 H 0.0951 0.5168 0.3814
C5_2 C 0.1510(2) 0.6517(4) 0.3676(3)
H4_2 H 0.1908 0.6107 0.3772
H8_2 H 0.0044 0.4744 0.4253
C11_2 C 0.2532(3) 0.9964(4) 0.4605(3)
H9_2 H 0.2646 0.9241 0.4792
C16_2 C 0.1907(3) 0.9281(4) 0.1898(3)
C17_2 C 0.1529(2) 0.9526(4) 0.1163(2)
C18_2 C 0.1210(2) 0.8595(4) 0.0794(2)
H13_2 H 0.1239 0.7880 0.1001
C19_2 C 0.0847(2) 0.8719(4) 0.0115(2)
N3_2 N 0.64906(17) 0.9685(3) 0.16165(19)
C9_3 C 0.5928(2) 0.9410(4) 0.1149(3)
H7_3 H 0.5936 0.8796 0.0862
C10_3 C 0.5338(2) 0.9988(4) 0.1071(3)
H8_3 H 0.4956 0.9744 0.0747
Cd3 Cd 0.751176(14) 0.85688(2) 0.175834(15)
N6_2 N 0.85094(17) 0.5315(3) 0.83835(19)
H21_3 H 0.9966 0.1852 0.8351
C35_3 C 0.9694(2) 0.4066(4) 0.8527(2)
C36_3 C 0.9099(2) 0.3745(4) 0.8073(2)
H24_3 H 0.9082 0.3094 0.7806
C37_3 C 0.8533(2) 0.4384(4) 0.8014(2)
H25_3 H 0.8142 0.4154 0.7697
C38_3 C 0.9072(2) 0.5590(4) 0.8851(3)
H26_3 H 0.9064 0.6204 0.9138
C39_3 C 0.9662(2) 0.5012(4) 0.8929(3)
Cd5 Cd 0.748824(14) 0.64312(2) 0.824166(15)
C25_3 C 0.7468(3) 0.0036(4) 0.5395(3)
H16_3 H 0.7354 0.0759 0.5208
Cd2_2 Cd 0.751176(14) 0.14312(2) 0.675834(15)
N5_3 N 0.84744(18) 0.2369(3) 0.6479(2)
O5_3 O 0.7498(2) 0.1005(4) 0.7985(3)
O6_3 O 0.8400(3) 0.0720(5) 0.7665(2)
C30_3 C 0.9046(2) 0.1796(4) 0.6586(2)
H20_3 H 0.9042 0.1016 0.6676
C31_3 C 0.9649(2) 0.2295(4) 0.6571(2)
C32_3 C 0.9674(2) 0.3459(4) 0.6438(2)
C33_3 C 0.9065(2) 0.4058(5) 0.6297(3)
H22_3 H 0.9049 0.4832 0.6186
C34_3 C 0.8490(2) 0.3483(4) 0.6324(3)
H23_3 H 0.8092 0.3893 0.6228
H27_3 H 0.9956 0.5256 0.5747
C40_3 C 0.8093(3) 0.0719(4) 0.8102(3)
C41_3 C 0.8471(2) 0.0474(4) 0.8837(2)
C42_3 C 0.8790(2) 0.1405(4) 0.9206(2)
H28_3 H 0.8761 0.2120 0.8999
C43_3 C 0.9153(2) 0.1281(4) 0.9885(2)
N8_2 N 0.64906(17) 0.0315(3) 0.66165(19)
O10_2 O 0.70788(17) 0.3349(3) 0.68274(17)
O12_2 O 0.68790(16) 0.2508(3) 0.58260(17)
Cd1_2 Cd 0.748824(14) 0.35688(2) 0.324166(15)
N1_3 N 0.65256(18) 0.2631(3) 0.3521(2)
N2_3 N 0.73017(19) 0.5057(3) 0.3930(2)
O1_3 O 0.7502(2) 0.3995(4) 0.2015(3)
O2_3 O 0.6600(3) 0.4280(5) 0.2335(2)
O3_2 O 0.70788(17) 0.6651(3) 0.18274(17)
O4_2 O 0.68790(16) 0.7492(3) 0.08260(17)
C1_3 C 0.5954(2) 0.3204(4) 0.3414(2)
H1_3 H 0.5958 0.3984 0.3324
C2_3 C 0.5351(2) 0.2705(4) 0.3429(2)
H2_3 H 0.4966 0.3148 0.3351
C3_3 C 0.5326(2) 0.1541(4) 0.3562(2)
C4_3 C 0.5935(2) 0.0942(5) 0.3703(3)
H3_3 H 0.5951 0.0168 0.3814
C5_3 C 0.6510(2) 0.1517(4) 0.3676(3)
H4_3 H 0.6908 0.1107 0.3772
C6_3 C 0.4694(2) 0.0934(4) 0.3527(2)
C7_3 C 0.4099(2) 0.1255(4) 0.3073(2)
H5_3 H 0.4082 0.1906 0.2806
C8_3 C 0.3533(2) 0.0616(4) 0.3014(2)
H6_3 H 0.3142 0.0846 0.2697
C11_3 C 0.7532(3) 0.4964(4) 0.4605(3)
H9_3 H 0.7646 0.4241 0.4792
C12_3 C 0.7609(3) 0.5894(4) 0.5040(3)
H10_3 H 0.7766 0.5787 0.5508
C13_3 C 0.7453(2) 0.6988(4) 0.4776(2)
C14_3 C 0.7207(3) 0.7070(4) 0.4073(3)
H11_3 H 0.7085 0.7779 0.3870
C15_3 C 0.7145(3) 0.6102(4) 0.3681(3)
H12_3 H 0.6983 0.6182 0.3211
C16_3 C 0.6907(3) 0.4281(4) 0.1898(3)
C17_3 C 0.6529(2) 0.4526(4) 0.1163(2)
C18_3 C 0.6210(2) 0.3595(4) 0.0794(2)
H13_3 H 0.6239 0.2880 0.1001
C19_3 C 0.5847(2) 0.3719(4) 0.0115(2)
C21_3 C 0.6130(2) 0.5699(4) 0.0162(2)
C22_3 C 0.6492(2) 0.5596(4) 0.0844(2)
C23_3 C 0.6839(2) 0.6652(4) 0.1191(2)
N4_3 N 0.76983(19) 0.9943(3) 0.6070(2)
C26_3 C 0.7391(3) 0.9106(4) 0.4960(3)
H17_3 H 0.7234 0.9213 0.4492
C27_3 C 0.7547(2) 0.8012(4) 0.5224(2)
C28_3 C 0.7793(3) 0.7930(4) 0.5927(3)
H18_3 H 0.7915 0.7221 0.6130
C29_3 C 0.7855(3) 0.8898(4) 0.6319(3)
H19_3 H 0.8017 0.8818 0.6789
O7_2 O 0.79212(17) 0.8349(3) 0.81726(17)
O8_2 O 0.81210(16) 0.7508(3) 0.91740(17)
C45_3 C 0.8870(2) 0.9301(4) 0.9838(2)
C46_3 C 0.8508(2) 0.9404(4) 0.9156(2)
C47_3 C 0.8161(2) 0.8348(4) 0.8809(2)
N7_2 N 0.85094(17) 0.4685(3) 0.33835(19)
O9_2 O 0.79212(17) 0.1651(3) 0.31726(17)
O11_2 O 0.81210(16) 0.2492(3) 0.41740(17)
N2_4 N 0.76983(19) 0.0057(3) 0.1070(2)
C13_4 C 0.7547(2) 0.1988(4) 0.0224(2)
C14_4 C 0.7793(3) 0.2070(4) 0.0927(3)
H11_4 H 0.7915 0.2779 0.1130
C15_4 C 0.7855(3) 0.1102(4) 0.1319(3)
H12_4 H 0.8017 0.1182 0.1789
C21_4 C 0.8870(2) 0.0699(4) 0.4838(2)
H15_2 H 0.8895 0.1407 0.5051
C22_4 C 0.8508(2) 0.0596(4) 0.4156(2)
C23_4 C 0.8161(2) 0.1652(4) 0.3809(2)
C26_4 C 0.7609(3) 0.4106(4) 0.0040(3)
H17_4 H 0.7766 0.4213 0.0508
C12_4 C 0.7391(3) 0.0894(4) 0.9960(3)
H10_4 H 0.7234 0.0787 0.9492
N4_4 N 0.73017(19) 0.4943(3) 0.8930(2)
C25_4 C 0.7532(3) 0.5036(4) 0.9605(3)
H16_4 H 0.7646 0.5759 0.9792
C27_4 C 0.7453(2) 0.3012(4) 0.9776(2)
C28_4 C 0.7207(3) 0.2930(4) 0.9073(3)
H18_4 H 0.7085 0.2221 0.8870
C29_4 C 0.7145(3) 0.3898(4) 0.8681(3)
H19_4 H 0.6983 0.3818 0.8211
F4_2 F 0.5905(2) 0.8174(4) 0.4778(4)
F5_2 F 0.5036(2) 0.7709(4) 0.4991(3)
F6_2 F 0.5203(4) 0.7119(5) 0.4118(2)
N5_4 N 0.65256(18) 0.7369(3) 0.8521(2)
O5_4 O 0.7502(2) 0.6005(4) 0.7015(3)
O6_4 O 0.6600(3) 0.5720(5) 0.7335(2)
C30_4 C 0.5954(2) 0.6796(4) 0.8414(2)
H20_4 H 0.5958 0.6016 0.8324
C31_4 C 0.5351(2) 0.7295(4) 0.8429(2)
H21_4 H 0.4966 0.6852 0.8351
C32_4 C 0.5326(2) 0.8459(4) 0.8562(2)
C33_4 C 0.5935(2) 0.9058(5) 0.8703(3)
H22_4 H 0.5951 0.9832 0.8814
C34_4 C 0.6510(2) 0.8483(4) 0.8676(3)
H23_4 H 0.6908 0.8893 0.8772
C35_4 C 0.4694(2) 0.9066(4) 0.8527(2)
C36_4 C 0.4099(2) 0.8745(4) 0.8073(2)
H24_4 H 0.4082 0.8094 0.7806
C37_4 C 0.3533(2) 0.9384(4) 0.8014(2)
H25_4 H 0.3142 0.9154 0.7697
C40_4 C 0.6907(3) 0.5719(4) 0.6898(3)
C41_4 C 0.6529(2) 0.5474(4) 0.6163(2)
C42_4 C 0.6210(2) 0.6405(4) 0.5794(2)
H28_4 H 0.6239 0.7120 0.6001
C43_4 C 0.5847(2) 0.6281(4) 0.5115(2)
C44_2 C 0.5807(2) 0.5232(4) 0.4798(2)
H29_2 H 0.5566 0.5151 0.4345
C45_4 C 0.6130(2) 0.4301(4) 0.5162(2)
H30_2 H 0.6105 0.3593 0.4949
C46_4 C 0.6492(2) 0.4404(4) 0.5844(2)
C47_4 C 0.6839(2) 0.3348(4) 0.6191(2)
C48_2 C 0.5512(3) 0.7305(5) 0.4740(3)
F1_2 F 0.9095(2) 0.6826(4) 0.5222(4)
F2_2 F 0.9964(2) 0.7291(4) 0.5009(3)
F3_2 F 0.9797(4) 0.7881(5) 0.5882(2)
N1_4 N 0.84744(18) 0.7631(3) 0.1479(2)
O1_4 O 0.7498(2) 0.8995(4) 0.2985(3)
O2_4 O 0.8400(3) 0.9280(5) 0.2665(2)
C1_4 C 0.9046(2) 0.8204(4) 0.1586(2)
H1_4 H 0.9042 0.8984 0.1676
C2_4 C 0.9649(2) 0.7705(4) 0.1571(2)
C3_4 C 0.9674(2) 0.6541(4) 0.1438(2)
C4_4 C 0.9065(2) 0.5942(5) 0.1297(3)
H3_4 H 0.9049 0.5168 0.1186
C5_4 C 0.8490(2) 0.6517(4) 0.1324(3)
H4_4 H 0.8092 0.6107 0.1228
H8_4 H 0.9956 0.4744 0.0747
C11_4 C 0.7468(3) 0.9964(4) 0.0395(3)
H9_4 H 0.7354 0.9241 0.0208
C16_4 C 0.8093(3) 0.9281(4) 0.3102(3)
C17_4 C 0.8471(2) 0.9526(4) 0.3837(2)
C18_4 C 0.8790(2) 0.8595(4) 0.4206(2)
H13_4 H 0.8761 0.7880 0.3999
C19_4 C 0.9153(2) 0.8719(4) 0.4885(2)
C20_2 C 0.9193(2) 0.9768(4) 0.5202(2)
H14_2 H 0.9434 0.9849 0.5655
C24_2 C 0.9488(3) 0.7695(5) 0.5260(3)
C38_4 C 0.5928(2) 0.0590(4) 0.6149(3)
H26_4 H 0.5936 0.1204 0.5862
C39_4 C 0.5338(2) 0.0012(4) 0.6071(3)
H27_4 H 0.4956 0.0256 0.5747
H2_4 H 0.9966 0.8148 0.3351
C6_4 C 0.9694(2) 0.5934(4) 0.3527(2)
C7_4 C 0.9099(2) 0.6255(4) 0.3073(2)
H5_4 H 0.9082 0.6906 0.2806
C8_4 C 0.8533(2) 0.5616(4) 0.3014(2)
H6_4 H 0.8142 0.5846 0.2697
C9_4 C 0.9072(2) 0.4410(4) 0.3851(3)
H7_4 H 0.9064 0.3796 0.4138
C10_4 C 0.9662(2) 0.4988(4) 0.3929(3)
F4_3 F 0.9095(2) 0.3174(4) 0.0222(4)
F5_3 F 0.9964(2) 0.2709(4) 0.0009(3)
F6_3 F 0.9797(4) 0.2119(5) 0.0882(2)
C44_3 C 0.9193(2) 0.0232(4) 0.0202(2)
H29_3 H 0.9434 0.0151 0.0655
C48_3 C 0.9488(3) 0.2305(5) 0.0260(3)
H30_3 H 0.8895 0.8593 0.0051
F1_3 F 0.5905(2) 0.1826(4) 0.9778(4)
F2_3 F 0.5036(2) 0.2291(4) 0.9991(3)
F3_3 F 0.5203(4) 0.2881(5) 0.9118(2)
C20_3 C 0.5807(2) 0.4768(4) 0.9798(2)
H14_3 H 0.5566 0.4849 0.9345
H15_3 H 0.6105 0.6407 0.9949
C24_3 C 0.5512(3) 0.2695(5) 0.9740(3)
F4_4 F 0.4095(2) 0.8174(4) 0.0222(4)
F5_4 F 0.4964(2) 0.7709(4) 0.0009(3)
F6_4 F 0.4797(4) 0.7119(5) 0.0882(2)
C44_4 C 0.4193(2) 0.5232(4) 0.0202(2)
H29_4 H 0.4434 0.5151 0.0655
H30_4 H 0.3895 0.3593 0.0051
C48_4 C 0.4488(3) 0.7305(5) 0.0260(3)
H15_4 H 0.1105 0.1407 0.9949
F1_4 F 0.0905(2) 0.6826(4) 0.9778(4)
F2_4 F 0.0036(2) 0.7291(4) 0.9991(3)
F3_4 F 0.0203(4) 0.7881(5) 0.9118(2)
C20_4 C 0.0807(2) 0.9768(4) 0.9798(2)
H14_4 H 0.0566 0.9849 0.9345
C24_4 C 0.0512(3) 0.7695(5) 0.9740(3)
loop_
_geom_bond_atom_site_label_1
_geom_bond_atom_site_label_2
_geom_bond_site_symmetry_1
_geom_bond_site_symmetry_2
C25 H16 1_555 1_555
F4 C48 1_555 1_555
F5 C48 1_555 1_555
F6 C48 1_555 1_555
N5 Cd2 1_555 1_555
O5 Cd2 1_555 1_555
O6 Cd2 1_555 1_555
C30 N5 1_555 1_555
H20 C30 1_555 1_555
C31 C30 1_555 1_555
C32 C31 1_555 1_555
C33 C32 1_555 1_555
H22 C33 1_555 1_555
C34 N5 1_555 1_555
H23 C34 1_555 1_555
C40 O5 1_555 1_555
C41 C40 1_555 1_555
C42 C41 1_555 1_555
H28 C42 1_555 1_555
C43 C42 1_555 1_555
C44 C43 1_555 1_555
H29 C44 1_555 1_555
C48 C43 1_555 1_555
N8 Cd2 1_555 1_555
O10 Cd2 1_555 1_555
O12 Cd2 1_555 1_555
O6 C40 1_555 1_555
C33 C34 1_555 1_555
Cd1 N1 1_555 1_555
F1 C24 1_555 1_555
F2 C24 1_555 1_555
F3 C24 1_555 1_555
N1 C1 1_555 1_555
N2 Cd1 1_555 1_555
O1 Cd1 1_555 1_555
O2 Cd1 1_555 1_555
O3 C23 1_555 1_555
O4 C23 1_555 1_555
C1 H1 1_555 1_555
C2 C1 1_555 1_555
H2 C2 1_555 1_555
C3 C2 1_555 1_555
C4 C3 1_555 1_555
H3 C4 1_555 1_555
C5 N1 1_555 1_555
H4 C5 1_555 1_555
C6 C3 1_555 1_555
C7 C6 1_555 1_555
H5 C7 1_555 1_555
C8 C7 1_555 1_555
H6 C8 1_555 1_555
C11 N2 1_555 1_555
H9 C11 1_555 1_555
C14 C13 1_555 1_555
H11 C14 1_555 1_555
C15 N2 1_555 1_555
H12 C15 1_555 1_555
C16 O1 1_555 1_555
C17 C16 1_555 1_555
C18 C17 1_555 1_555
H13 C18 1_555 1_555
C19 C18 1_555 1_555
C20 C19 1_555 1_555
H14 C20 1_555 1_555
C21 C20 1_555 1_555
H15 C21 1_555 1_555
C22 C17 1_555 1_555
C23 C22 1_555 1_555
C24 C19 1_555 1_555
H17 C26 1_555 1_555
Cd4 O3 1_555 1_555
N7 Cd1 1_555 1_555
O9 Cd1 1_555 1_555
O11 Cd1 1_555 1_555
O2 C16 1_555 1_555
O4 Cd4 1_555 1_555
C4 C5 1_555 1_555
C14 C15 1_555 1_555
C21 C22 1_555 1_555
H10 C12 1_555 1_555
C28 C27 1_555 1_555
H18 C28 1_555 1_555
C29 N4 1_555 1_555
H19 C29 1_555 1_555
O7 C47 1_555 1_555
O8 C47 1_555 1_555
H30 C45 1_555 1_555
C47 C46 1_555 1_555
Cd6 O7 1_555 1_555
C28 C29 1_555 1_555
O8 Cd6 1_555 1_555
C45 C46 1_555 1_555
N6 C37 1_555 1_555
C36 C35 1_555 1_555
H24 C36 1_555 1_555
C37 C36 1_555 1_555
H25 C37 1_555 1_555
C38 N6 1_555 1_555
H26 C38 1_555 1_555
C39 C35 1_555 1_555
Cd6 N6 1_555 1_555
C38 C39 1_555 1_555
C9 N3 1_555 1_555
H7 C9 1_555 1_555
H8 C10 1_555 1_555
Cd4 N3 1_555 1_555
C9 C10 1_555 1_555
N7 C8_2 1_555 1_555
C7_2 C6_2 1_555 1_555
H5_2 C7_2 1_555 1_555
C8_2 C7_2 1_555 1_555
H6_2 C8_2 1_555 1_555
C9_2 N7 1_555 1_555
H7_2 C9_2 1_555 1_555
C10_2 C6_2 1_555 1_555
C9_2 C10_2 1_555 1_555
C38_2 N8 1_555 1_555
H26_2 C38_2 1_555 1_555
H27_2 C39_2 1_555 1_555
C38_2 C39_2 1_555 1_555
O9 C23_2 1_555 1_555
O11 C23_2 1_555 1_555
H10_2 C12_2 1_555 1_555
C13_2 C12_2 1_555 1_555
C14_2 C13_2 1_555 1_555
H11_2 C14_2 1_555 1_555
C15_2 N2_2 1_555 1_555
H12_2 C15_2 1_555 1_555
C23_2 C22_2 1_555 1_555
N4_2 C25_2 1_555 1_555
C25_2 H16_2 1_555 1_555
C26_2 C25_2 1_555 1_555
H17_2 C26_2 1_555 1_555
C27_2 C13_2 1_555 1_555
C28_2 C27_2 1_555 1_555
H18_2 C28_2 1_555 1_555
C29_2 N4_2 1_555 1_555
H19_2 C29_2 1_555 1_555
Cd6 N4_2 1_555 1_555
N5_2 Cd6 1_555 1_555
O5_2 Cd6 1_555 1_555
O6_2 Cd6 1_555 1_555
O10 C47_2 1_555 1_555
O12 C47_2 1_555 1_555
C30_2 N5_2 1_555 1_555
H20_2 C30_2 1_555 1_555
C31_2 C30_2 1_555 1_555
H21_2 C31_2 1_555 1_555
C32_2 C31_2 1_555 1_555
C33_2 C32_2 1_555 1_555
H22_2 C33_2 1_555 1_555
C34_2 N5_2 1_555 1_555
H23_2 C34_2 1_555 1_555
C35_2 C32_2 1_555 1_555
C36_2 C35_2 1_555 1_555
H24_2 C36_2 1_555 1_555
C37_2 C36_2 1_555 1_555
H25_2 C37_2 1_555 1_555
C40_2 O5_2 1_555 1_555
C41_2 C40_2 1_555 1_555
C42_2 C41_2 1_555 1_555
H28_2 C42_2 1_555 1_555
C43_2 C42_2 1_555 1_555
C46_2 C41_2 1_555 1_555
C47_2 C46_2 1_555 1_555
C14_2 C15_2 1_555 1_555
C21_2 C22_2 1_555 1_555
C26_2 C27_2 1_555 1_555
C28_2 C29_2 1_555 1_555
O6_2 C40_2 1_555 1_555
C33_2 C34_2 1_555 1_555
C45_2 C46_2 1_555 1_555
Cd4 N1_2 1_555 1_555
N1_2 C1_2 1_555 1_555
O1_2 Cd4 1_555 1_555
O2_2 Cd4 1_555 1_555
C1_2 H1_2 1_555 1_555
C2_2 C1_2 1_555 1_555
C3_2 C2_2 1_555 1_555
C4_2 C3_2 1_555 1_555
H3_2 C4_2 1_555 1_555
C5_2 N1_2 1_555 1_555
H4_2 C5_2 1_555 1_555
H9_2 C11_2 1_555 1_555
C16_2 O1_2 1_555 1_555
C17_2 C16_2 1_555 1_555
C18_2 C17_2 1_555 1_555
H13_2 C18_2 1_555 1_555
C19_2 C18_2 1_555 1_555
O2_2 C16_2 1_555 1_555
C4_2 C5_2 1_555 1_555
C9_3 N3_2 1_555 1_555
H7_3 C9_3 1_555 1_555
H8_3 C10_3 1_555 1_555
Cd3 N3_2 1_555 1_555
C9_3 C10_3 1_555 1_555
N6_2 C37_3 1_555 1_555
C36_3 C35_3 1_555 1_555
H24_3 C36_3 1_555 1_555
C37_3 C36_3 1_555 1_555
H25_3 C37_3 1_555 1_555
C38_3 N6_2 1_555 1_555
H26_3 C38_3 1_555 1_555
C39_3 C35_3 1_555 1_555
Cd5 N6_2 1_555 1_555
C38_3 C39_3 1_555 1_555
C25_3 H16_3 1_555 1_555
N5_3 Cd2_2 1_555 1_555
O5_3 Cd2_2 1_555 1_555
O6_3 Cd2_2 1_555 1_555
C30_3 N5_3 1_555 1_555
H20_3 C30_3 1_555 1_555
C31_3 C30_3 1_555 1_555
C32_3 C31_3 1_555 1_555
C33_3 C32_3 1_555 1_555
H22_3 C33_3 1_555 1_555
C34_3 N5_3 1_555 1_555
H23_3 C34_3 1_555 1_555
C40_3 O5_3 1_555 1_555
C41_3 C40_3 1_555 1_555
C42_3 C41_3 1_555 1_555
H28_3 C42_3 1_555 1_555
C43_3 C42_3 1_555 1_555
N8_2 Cd2_2 1_555 1_555
O10_2 Cd2_2 1_555 1_555
O12_2 Cd2_2 1_555 1_555
O6_3 C40_3 1_555 1_555
C33_3 C34_3 1_555 1_555
Cd1_2 N1_3 1_555 1_555
N1_3 C1_3 1_555 1_555
N2_3 Cd1_2 1_555 1_555
O1_3 Cd1_2 1_555 1_555
O2_3 Cd1_2 1_555 1_555
O3_2 C23_3 1_555 1_555
O4_2 C23_3 1_555 1_555
C1_3 H1_3 1_555 1_555
C2_3 C1_3 1_555 1_555
H2_3 C2_3 1_555 1_555
C3_3 C2_3 1_555 1_555
C4_3 C3_3 1_555 1_555
H3_3 C4_3 1_555 1_555
C5_3 N1_3 1_555 1_555
H4_3 C5_3 1_555 1_555
C6_3 C3_3 1_555 1_555
C7_3 C6_3 1_555 1_555
H5_3 C7_3 1_555 1_555
C8_3 C7_3 1_555 1_555
H6_3 C8_3 1_555 1_555
C11_3 N2_3 1_555 1_555
H9_3 C11_3 1_555 1_555
C12_3 C11_3 1_555 1_555
H10_3 C12_3 1_555 1_555
C13_3 C12_3 1_555 1_555
C14_3 C13_3 1_555 1_555
H11_3 C14_3 1_555 1_555
C15_3 N2_3 1_555 1_555
H12_3 C15_3 1_555 1_555
C16_3 O1_3 1_555 1_555
C17_3 C16_3 1_555 1_555
C18_3 C17_3 1_555 1_555
H13_3 C18_3 1_555 1_555
C19_3 C18_3 1_555 1_555
C22_3 C17_3 1_555 1_555
C23_3 C22_3 1_555 1_555
H17_3 C26_3 1_555 1_555
C27_3 C13_3 1_555 1_555
C28_3 C27_3 1_555 1_555
H18_3 C28_3 1_555 1_555
C29_3 N4_3 1_555 1_555
H19_3 C29_3 1_555 1_555
O7_2 C47_3 1_555 1_555
O8_2 C47_3 1_555 1_555
C47_3 C46_3 1_555 1_555
Cd3 O3_2 1_555 1_555
Cd5 O7_2 1_555 1_555
N7_2 Cd1_2 1_555 1_555
O9_2 Cd1_2 1_555 1_555
O11_2 Cd1_2 1_555 1_555
O2_3 C16_3 1_555 1_555
O4_2 Cd3 1_555 1_555
C4_3 C5_3 1_555 1_555
C14_3 C15_3 1_555 1_555
C21_3 C22_3 1_555 1_555
C26_3 C27_3 1_555 1_555
C28_3 C29_3 1_555 1_555
O8_2 Cd5 1_555 1_555
C45_3 C46_3 1_555 1_555
O9_2 C23_4 1_555 1_555
O11_2 C23_4 1_555 1_555
C14_4 C13_4 1_555 1_555
H11_4 C14_4 1_555 1_555
C15_4 N2_4 1_555 1_555
H12_4 C15_4 1_555 1_555
H15_2 C21_4 1_555 1_555
C23_4 C22_4 1_555 1_555
H17_4 C26_4 1_555 1_555
C14_4 C15_4 1_555 1_555
C21_4 C22_4 1_555 1_555
H10_4 C12_4 1_555 1_555
N4_4 C25_4 1_555 1_555
C25_4 H16_4 1_555 1_555
C28_4 C27_4 1_555 1_555
H18_4 C28_4 1_555 1_555
C29_4 N4_4 1_555 1_555
H19_4 C29_4 1_555 1_555
Cd5 N4_4 1_555 1_555
F4_2 C48_2 1_555 1_555
F5_2 C48_2 1_555 1_555
F6_2 C48_2 1_555 1_555
N5_4 Cd5 1_555 1_555
O5_4 Cd5 1_555 1_555
O6_4 Cd5 1_555 1_555
O10_2 C47_4 1_555 1_555
O12_2 C47_4 1_555 1_555
C30_4 N5_4 1_555 1_555
H20_4 C30_4 1_555 1_555
C31_4 C30_4 1_555 1_555
H21_4 C31_4 1_555 1_555
C32_4 C31_4 1_555 1_555
C33_4 C32_4 1_555 1_555
H22_4 C33_4 1_555 1_555
C34_4 N5_4 1_555 1_555
H23_4 C34_4 1_555 1_555
C35_4 C32_4 1_555 1_555
C36_4 C35_4 1_555 1_555
H24_4 C36_4 1_555 1_555
C37_4 C36_4 1_555 1_555
H25_4 C37_4 1_555 1_555
C40_4 O5_4 1_555 1_555
C41_4 C40_4 1_555 1_555
C42_4 C41_4 1_555 1_555
H28_4 C42_4 1_555 1_555
C43_4 C42_4 1_555 1_555
C44_2 C43_4 1_555 1_555
H29_2 C44_2 1_555 1_555
C45_4 C44_2 1_555 1_555
H30_2 C45_4 1_555 1_555
C46_4 C41_4 1_555 1_555
C47_4 C46_4 1_555 1_555
C48_2 C43_4 1_555 1_555
C28_4 C29_4 1_555 1_555
O6_4 C40_4 1_555 1_555
C33_4 C34_4 1_555 1_555
C45_4 C46_4 1_555 1_555
Cd3 N1_4 1_555 1_555
F1_2 C24_2 1_555 1_555
F2_2 C24_2 1_555 1_555
F3_2 C24_2 1_555 1_555
N1_4 C1_4 1_555 1_555
O1_4 Cd3 1_555 1_555
O2_4 Cd3 1_555 1_555
C1_4 H1_4 1_555 1_555
C2_4 C1_4 1_555 1_555
C3_4 C2_4 1_555 1_555
C4_4 C3_4 1_555 1_555
H3_4 C4_4 1_555 1_555
C5_4 N1_4 1_555 1_555
H4_4 C5_4 1_555 1_555
H9_4 C11_4 1_555 1_555
C16_4 O1_4 1_555 1_555
C17_4 C16_4 1_555 1_555
C18_4 C17_4 1_555 1_555
H13_4 C18_4 1_555 1_555
C19_4 C18_4 1_555 1_555
C20_2 C19_4 1_555 1_555
H14_2 C20_2 1_555 1_555
C24_2 C19_4 1_555 1_555
O2_4 C16_4 1_555 1_555
C4_4 C5_4 1_555 1_555
C38_4 N8_2 1_555 1_555
H26_4 C38_4 1_555 1_555
H27_4 C39_4 1_555 1_555
C38_4 C39_4 1_555 1_555
N7_2 C8_4 1_555 1_555
C7_4 C6_4 1_555 1_555
H5_4 C7_4 1_555 1_555
C8_4 C7_4 1_555 1_555
H6_4 C8_4 1_555 1_555
C9_4 N7_2 1_555 1_555
H7_4 C9_4 1_555 1_555
C10_4 C6_4 1_555 1_555
C9_4 C10_4 1_555 1_555
F4_3 C48_3 1_555 1_555
F5_3 C48_3 1_555 1_555
F6_3 C48_3 1_555 1_555
H29_3 C44_3 1_555 1_555
F1_3 C24_3 1_555 1_555
F2_3 C24_3 1_555 1_555
F3_3 C24_3 1_555 1_555
H14_3 C20_3 1_555 1_555
F4_4 C48_4 1_555 1_555
F5_4 C48_4 1_555 1_555
F6_4 C48_4 1_555 1_555
H29_4 C44_4 1_555 1_555
F1_4 C24_4 1_555 1_555
F2_4 C24_4 1_555 1_555
F3_4 C24_4 1_555 1_555
H14_4 C20_4 1_555 1_555

#END
