
###############################################################################
#
# This file contains modified crystal structure data generated from the
# MOF subset of the Cambridge Structural Database (CSD) v543 
# hosted by the Cambridge Crystallographic Data Centre (CCDC).
#
# This work is licensed under the Creative Commons
# Attribution-NonCommercial-ShareAlike 4.0 International License.
# To view a copy of this license, visit
# http://creativecommons.org/licenses/by-nc-sa/4.0/
# or send a letter to
# Creative Commons, PO Box 1866, Mountain View, CA 94042, USA.
#
# CIF created using the CSD Python API on 29 September 2022
# The structure has been converted into the P1 space group
# The structure has a 3D framework
# The original CSD entry YIHBIC is in the monoclinic crystal system
# The framework has been calculated to contain at least 10.0% void space
# The void calculation uses a probe of radius 1.32A, grid spacing 0.4
#
###############################################################################

data_YIHBIC
_chemical_formula_moiety         '(C192 H120 Cd8 F24 N24 O32)n'
_symmetry_cell_setting           triclinic
_symmetry_space_group_name_H-M   'P 1'
_symmetry_Int_Tables_number      1
_space_group_name_Hall           'P 1'
loop_
_symmetry_equiv_pos_site_id
_symmetry_equiv_pos_as_xyz
1 x,y,z
_cell_length_a                   20.750(4)
_cell_length_b                   11.660(2)
_cell_length_c                   20.045(4)
_cell_angle_alpha                90
_cell_angle_beta                 105.057(2)
_cell_angle_gamma                90
_cell_volume                     4683.28
loop_
_atom_site_label
_atom_site_type_symbol
_atom_site_fract_x
_atom_site_fract_y
_atom_site_fract_z
C25 C 0.2507(3) 0.0031(4) 0.9580(3)
H16 H 0.2603 0.0762 0.9765
Cd2 Cd 0.248339(15) 0.14427(3) 0.820694(16)
F4 F 0.0888(2) 0.3043(4) 0.4622(3)
F5 F 0.0046(2) 0.2707(3) 0.4956(2)
F6 F 0.0119(3) 0.1971(4) 0.4050(2)
N5 N 0.15180(19) 0.2353(3) 0.8535(2)
O5 O 0.2463(2) 0.0967(4) 0.7002(2)
O6 O 0.1549(3) 0.0782(5) 0.7312(2)
C30 C 0.0934(2) 0.1796(4) 0.8395(2)
H20 H 0.0931 0.1022 0.8281
C31 C 0.0344(2) 0.2298(4) 0.8409(2)
C32 C 0.0321(2) 0.3447(4) 0.8577(2)
C33 C 0.0933(2) 0.4019(5) 0.8760(3)
H22 H 0.0955 0.4781 0.8902
C34 C 0.1505(3) 0.3446(5) 0.8729(3)
H23 H 0.1906 0.3845 0.8851
H27 H 0.0023 0.5239 0.9289
C40 C 0.1862(3) 0.0723(4) 0.6880(3)
C41 C 0.1495(2) 0.0448(4) 0.6144(2)
C42 C 0.1166(2) 0.1361(4) 0.5755(2)
H28 H 0.1176 0.2080 0.5959
C43 C 0.0823(2) 0.1215(4) 0.5066(2)
C44 C 0.0792(3) 0.0156(5) 0.4759(3)
H29 H 0.0549 0.0051 0.4303
C48 C 0.0483(3) 0.2226(5) 0.4672(3)
N8 N 0.35130(18) 0.0348(3) 0.8365(2)
O10 O 0.29192(17) 0.3357(3) 0.81691(17)
O12 O 0.31017(17) 0.2486(3) 0.91738(17)
Cd1 Cd 0.251661(15) 0.35573(3) 0.179306(16)
F1 F 0.4112(2) 0.1957(4) 0.5378(3)
F2 F 0.4954(2) 0.2293(3) 0.5044(2)
F3 F 0.4881(3) 0.3029(4) 0.5950(2)
N1 N 0.34820(19) 0.2647(3) 0.1465(2)
N2 N 0.27047(19) 0.5074(3) 0.11043(19)
O1 O 0.2537(2) 0.4033(4) 0.2998(2)
O2 O 0.3451(3) 0.4218(5) 0.2688(2)
O3 O 0.29192(17) 0.6643(3) 0.31691(17)
O4 O 0.31017(17) 0.7514(3) 0.41738(17)
C1 C 0.4066(2) 0.3204(4) 0.1605(2)
H1 H 0.4069 0.3978 0.1719
C2 C 0.4656(2) 0.2702(4) 0.1591(2)
H2 H 0.5046 0.3135 0.1696
C3 C 0.4679(2) 0.1553(4) 0.1423(2)
C4 C 0.4067(2) 0.0981(5) 0.1240(3)
H3 H 0.4045 0.0219 0.1098
C5 C 0.3495(3) 0.1554(5) 0.1271(3)
H4 H 0.3094 0.1155 0.1149
C6 C 0.5311(2) 0.0928(4) 0.1467(2)
C7 C 0.5894(2) 0.1228(4) 0.1937(3)
H5 H 0.5907 0.1881 0.2207
C8 C 0.6459(2) 0.0578(5) 0.2014(3)
H6 H 0.6842 0.0795 0.2347
C11 C 0.2493(3) 0.4969(4) 0.0420(3)
H9 H 0.2397 0.4238 0.0235
C13 C 0.2547(2) 0.6986(4) 0.0233(2)
C14 C 0.2777(3) 0.7091(4) 0.0943(2)
H11 H 0.2885 0.7809 0.1143
C15 C 0.2845(3) 0.6130(4) 0.1351(3)
H12 H 0.2997 0.6223 0.1826
C16 C 0.3138(3) 0.4277(4) 0.3120(3)
C17 C 0.3505(2) 0.4552(4) 0.3856(2)
C18 C 0.3834(2) 0.3639(4) 0.4245(2)
H13 H 0.3824 0.2920 0.4041
C19 C 0.4177(2) 0.3785(4) 0.4934(2)
C20 C 0.4208(3) 0.4844(5) 0.5241(3)
H14 H 0.4451 0.4949 0.5697
C21 C 0.3872(2) 0.5749(4) 0.4862(2)
H15 H 0.3882 0.6463 0.5072
C22 C 0.3519(2) 0.5622(4) 0.4174(2)
C23 C 0.3157(2) 0.6667(4) 0.3809(2)
C24 C 0.4517(3) 0.2774(5) 0.5328(3)
C26 C 0.2593(2) 0.9112(4) 0.0029(2)
H17 H 0.2743 0.9229 0.0503
Cd4 Cd 0.248339(15) 0.85573(3) 0.320694(16)
N7 N 0.14870(18) 0.4652(3) 0.1635(2)
O9 O 0.20808(17) 0.1643(3) 0.18309(17)
O11 O 0.18983(17) 0.2514(3) 0.08262(17)
C12 C 0.2407(2) 0.5888(4) 0.9971(2)
H10 H 0.2257 0.5771 0.9497
N4 N 0.22953(19) 0.9926(3) 0.88957(19)
C27 C 0.2453(2) 0.8014(4) 0.9767(2)
C28 C 0.2223(3) 0.7909(4) 0.9057(2)
H18 H 0.2115 0.7191 0.8857
C29 C 0.2155(3) 0.8870(4) 0.8649(3)
H19 H 0.2003 0.8777 0.8174
O7 O 0.20808(17) 0.8357(3) 0.68309(17)
O8 O 0.18983(17) 0.7486(3) 0.58262(17)
C45 C 0.1128(2) 0.9251(4) 0.5138(2)
H30 H 0.1118 0.8537 0.4928
C46 C 0.1481(2) 0.9378(4) 0.5826(2)
C47 C 0.1843(2) 0.8333(4) 0.6191(2)
Cd6 Cd 0.251661(15) 0.64427(3) 0.679306(16)
N6 N 0.14870(18) 0.5348(3) 0.6635(2)
H21 H 0.0046 0.1865 0.6696
C35 C 0.0311(2) 0.4072(4) 0.6467(2)
C36 C 0.0894(2) 0.3772(4) 0.6937(3)
H24 H 0.0907 0.3119 0.7207
C37 C 0.1459(2) 0.4422(5) 0.7014(3)
H25 H 0.1842 0.4205 0.7347
C38 C 0.0935(2) 0.5608(5) 0.6153(3)
H26 H 0.0947 0.6230 0.5865
C39 C 0.0350(2) 0.5013(5) 0.6055(3)
N3 N 0.35130(18) 0.9652(3) 0.3365(2)
C9 C 0.4065(2) 0.9392(5) 0.3847(3)
H7 H 0.4053 0.8770 0.4135
C10 C 0.4650(2) 0.9987(5) 0.3945(3)
H8 H 0.5023 0.9761 0.4289
H2_2 H 0.0046 0.8135 0.1696
C6_2 C 0.0311(2) 0.5928(4) 0.1467(2)
C7_2 C 0.0894(2) 0.6228(4) 0.1937(3)
H5_2 H 0.0907 0.6881 0.2207
C8_2 C 0.1459(2) 0.5578(5) 0.2014(3)
H6_2 H 0.1842 0.5795 0.2347
C9_2 C 0.0935(2) 0.4392(5) 0.1153(3)
H7_2 H 0.0947 0.3770 0.0865
C10_2 C 0.0350(2) 0.4987(5) 0.1055(3)
C38_2 C 0.4065(2) 0.0608(5) 0.8847(3)
H26_2 H 0.4053 0.1230 0.9135
C39_2 C 0.4650(2) 0.0013(5) 0.8945(3)
H27_2 H 0.5023 0.0239 0.9289
N2_2 N 0.22953(19) 0.0074(3) 0.38957(19)
C12_2 C 0.2593(2) 0.0888(4) 0.5029(2)
H10_2 H 0.2743 0.0771 0.5503
C13_2 C 0.2453(2) 0.1986(4) 0.4767(2)
C14_2 C 0.2223(3) 0.2091(4) 0.4057(2)
H11_2 H 0.2115 0.2809 0.3857
C15_2 C 0.2155(3) 0.1130(4) 0.3649(3)
H12_2 H 0.2003 0.1223 0.3174
C21_2 C 0.1128(2) 0.0749(4) 0.0138(2)
C22_2 C 0.1481(2) 0.0622(4) 0.0826(2)
C23_2 C 0.1843(2) 0.1667(4) 0.1191(2)
N4_2 N 0.27047(19) 0.4926(3) 0.61043(19)
C25_2 C 0.2493(3) 0.5031(4) 0.5420(3)
H16_2 H 0.2397 0.5762 0.5235
C26_2 C 0.2407(2) 0.4112(4) 0.4971(2)
H17_2 H 0.2257 0.4229 0.4497
C27_2 C 0.2547(2) 0.3014(4) 0.5233(2)
C28_2 C 0.2777(3) 0.2909(4) 0.5943(2)
H18_2 H 0.2885 0.2191 0.6143
C29_2 C 0.2845(3) 0.3870(4) 0.6351(3)
H19_2 H 0.2997 0.3777 0.6826
N5_2 N 0.34820(19) 0.7353(3) 0.6465(2)
O5_2 O 0.2537(2) 0.5967(4) 0.7998(2)
O6_2 O 0.3451(3) 0.5782(5) 0.7688(2)
C30_2 C 0.4066(2) 0.6796(4) 0.6605(2)
H20_2 H 0.4069 0.6022 0.6719
C31_2 C 0.4656(2) 0.7298(4) 0.6591(2)
H21_2 H 0.5046 0.6865 0.6696
C32_2 C 0.4679(2) 0.8447(4) 0.6423(2)
C33_2 C 0.4067(2) 0.9019(5) 0.6240(3)
H22_2 H 0.4045 0.9781 0.6098
C34_2 C 0.3495(3) 0.8446(5) 0.6271(3)
H23_2 H 0.3094 0.8845 0.6149
C35_2 C 0.5311(2) 0.9072(4) 0.6467(2)
C36_2 C 0.5894(2) 0.8772(4) 0.6937(3)
H24_2 H 0.5907 0.8119 0.7207
C37_2 C 0.6459(2) 0.9422(5) 0.7014(3)
H25_2 H 0.6842 0.9205 0.7347
C40_2 C 0.3138(3) 0.5723(4) 0.8120(3)
C41_2 C 0.3505(2) 0.5448(4) 0.8856(2)
C42_2 C 0.3834(2) 0.6361(4) 0.9245(2)
H28_2 H 0.3824 0.7080 0.9041
C43_2 C 0.4177(2) 0.6215(4) 0.9934(2)
C45_2 C 0.3872(2) 0.4251(4) 0.9862(2)
C46_2 C 0.3519(2) 0.4378(4) 0.9174(2)
C47_2 C 0.3157(2) 0.3333(4) 0.8809(2)
N1_2 N 0.15180(19) 0.7647(3) 0.3535(2)
O1_2 O 0.2463(2) 0.9033(4) 0.2002(2)
O2_2 O 0.1549(3) 0.9218(5) 0.2312(2)
C1_2 C 0.0934(2) 0.8204(4) 0.3395(2)
H1_2 H 0.0931 0.8978 0.3281
C2_2 C 0.0344(2) 0.7702(4) 0.3409(2)
C3_2 C 0.0321(2) 0.6553(4) 0.3577(2)
C4_2 C 0.0933(2) 0.5981(5) 0.3760(3)
H3_2 H 0.0955 0.5219 0.3902
C5_2 C 0.1505(3) 0.6554(5) 0.3729(3)
H4_2 H 0.1906 0.6155 0.3851
H8_2 H 0.0023 0.4761 0.4289
C11_2 C 0.2507(3) 0.9969(4) 0.4580(3)
H9_2 H 0.2603 0.9238 0.4765
C16_2 C 0.1862(3) 0.9277(4) 0.1880(3)
C17_2 C 0.1495(2) 0.9552(4) 0.1144(2)
C18_2 C 0.1166(2) 0.8639(4) 0.0755(2)
H13_2 H 0.1176 0.7920 0.0959
C19_2 C 0.0823(2) 0.8785(4) 0.0066(2)
N3_2 N 0.64870(18) 0.9652(3) 0.1635(2)
C9_3 C 0.5935(2) 0.9392(5) 0.1153(3)
H7_3 H 0.5947 0.8770 0.0865
C10_3 C 0.5350(2) 0.9987(5) 0.1055(3)
H8_3 H 0.4977 0.9761 0.0711
Cd3 Cd 0.751661(15) 0.85573(3) 0.179306(16)
N6_2 N 0.85130(18) 0.5348(3) 0.8365(2)
H21_3 H 0.9954 0.1865 0.8304
C35_3 C 0.9689(2) 0.4072(4) 0.8533(2)
C36_3 C 0.9106(2) 0.3772(4) 0.8063(3)
H24_3 H 0.9093 0.3119 0.7793
C37_3 C 0.8541(2) 0.4422(5) 0.7986(3)
H25_3 H 0.8158 0.4205 0.7653
C38_3 C 0.9065(2) 0.5608(5) 0.8847(3)
H26_3 H 0.9053 0.6230 0.9135
C39_3 C 0.9650(2) 0.5013(5) 0.8945(3)
Cd5 Cd 0.748339(15) 0.64427(3) 0.820694(16)
C25_3 C 0.7493(3) 0.0031(4) 0.5420(3)
H16_3 H 0.7397 0.0762 0.5235
Cd2_2 Cd 0.751661(15) 0.14427(3) 0.679306(16)
N5_3 N 0.84820(19) 0.2353(3) 0.6465(2)
O5_3 O 0.7537(2) 0.0967(4) 0.7998(2)
O6_3 O 0.8451(3) 0.0782(5) 0.7688(2)
C30_3 C 0.9066(2) 0.1796(4) 0.6605(2)
H20_3 H 0.9069 0.1022 0.6719
C31_3 C 0.9656(2) 0.2298(4) 0.6591(2)
C32_3 C 0.9679(2) 0.3447(4) 0.6423(2)
C33_3 C 0.9067(2) 0.4019(5) 0.6240(3)
H22_3 H 0.9045 0.4781 0.6098
C34_3 C 0.8495(3) 0.3446(5) 0.6271(3)
H23_3 H 0.8094 0.3845 0.6149
H27_3 H 0.9977 0.5239 0.5711
C40_3 C 0.8138(3) 0.0723(4) 0.8120(3)
C41_3 C 0.8505(2) 0.0448(4) 0.8856(2)
C42_3 C 0.8834(2) 0.1361(4) 0.9245(2)
H28_3 H 0.8824 0.2080 0.9041
C43_3 C 0.9177(2) 0.1215(4) 0.9934(2)
N8_2 N 0.64870(18) 0.0348(3) 0.6635(2)
O10_2 O 0.70808(17) 0.3357(3) 0.68309(17)
O12_2 O 0.68983(17) 0.2486(3) 0.58262(17)
Cd1_2 Cd 0.748339(15) 0.35573(3) 0.320694(16)
N1_3 N 0.65180(19) 0.2647(3) 0.3535(2)
N2_3 N 0.72953(19) 0.5074(3) 0.38957(19)
O1_3 O 0.7463(2) 0.4033(4) 0.2002(2)
O2_3 O 0.6549(3) 0.4218(5) 0.2312(2)
O3_2 O 0.70808(17) 0.6643(3) 0.18309(17)
O4_2 O 0.68983(17) 0.7514(3) 0.08262(17)
C1_3 C 0.5934(2) 0.3204(4) 0.3395(2)
H1_3 H 0.5931 0.3978 0.3281
C2_3 C 0.5344(2) 0.2702(4) 0.3409(2)
H2_3 H 0.4954 0.3135 0.3304
C3_3 C 0.5321(2) 0.1553(4) 0.3577(2)
C4_3 C 0.5933(2) 0.0981(5) 0.3760(3)
H3_3 H 0.5955 0.0219 0.3902
C5_3 C 0.6505(3) 0.1554(5) 0.3729(3)
H4_3 H 0.6906 0.1155 0.3851
C6_3 C 0.4689(2) 0.0928(4) 0.3533(2)
C7_3 C 0.4106(2) 0.1228(4) 0.3063(3)
H5_3 H 0.4093 0.1881 0.2793
C8_3 C 0.3541(2) 0.0578(5) 0.2986(3)
H6_3 H 0.3158 0.0795 0.2653
C11_3 C 0.7507(3) 0.4969(4) 0.4580(3)
H9_3 H 0.7603 0.4238 0.4765
C12_3 C 0.7593(2) 0.5888(4) 0.5029(2)
H10_3 H 0.7743 0.5771 0.5503
C13_3 C 0.7453(2) 0.6986(4) 0.4767(2)
C14_3 C 0.7223(3) 0.7091(4) 0.4057(2)
H11_3 H 0.7115 0.7809 0.3857
C15_3 C 0.7155(3) 0.6130(4) 0.3649(3)
H12_3 H 0.7003 0.6223 0.3174
C16_3 C 0.6862(3) 0.4277(4) 0.1880(3)
C17_3 C 0.6495(2) 0.4552(4) 0.1144(2)
C18_3 C 0.6166(2) 0.3639(4) 0.0755(2)
H13_3 H 0.6176 0.2920 0.0959
C19_3 C 0.5823(2) 0.3785(4) 0.0066(2)
C21_3 C 0.6128(2) 0.5749(4) 0.0138(2)
C22_3 C 0.6481(2) 0.5622(4) 0.0826(2)
C23_3 C 0.6843(2) 0.6667(4) 0.1191(2)
N4_3 N 0.77047(19) 0.9926(3) 0.61043(19)
C26_3 C 0.7407(2) 0.9112(4) 0.4971(2)
H17_3 H 0.7257 0.9229 0.4497
C27_3 C 0.7547(2) 0.8014(4) 0.5233(2)
C28_3 C 0.7777(3) 0.7909(4) 0.5943(2)
H18_3 H 0.7885 0.7191 0.6143
C29_3 C 0.7845(3) 0.8870(4) 0.6351(3)
H19_3 H 0.7997 0.8777 0.6826
O7_2 O 0.79192(17) 0.8357(3) 0.81691(17)
O8_2 O 0.81017(17) 0.7486(3) 0.91738(17)
C45_3 C 0.8872(2) 0.9251(4) 0.9862(2)
C46_3 C 0.8519(2) 0.9378(4) 0.9174(2)
C47_3 C 0.8157(2) 0.8333(4) 0.8809(2)
N7_2 N 0.85130(18) 0.4652(3) 0.3365(2)
O9_2 O 0.79192(17) 0.1643(3) 0.31691(17)
O11_2 O 0.81017(17) 0.2514(3) 0.41738(17)
N2_4 N 0.77047(19) 0.0074(3) 0.11043(19)
C13_4 C 0.7547(2) 0.1986(4) 0.0233(2)
C14_4 C 0.7777(3) 0.2091(4) 0.0943(2)
H11_4 H 0.7885 0.2809 0.1143
C15_4 C 0.7845(3) 0.1130(4) 0.1351(3)
H12_4 H 0.7997 0.1223 0.1826
C21_4 C 0.8872(2) 0.0749(4) 0.4862(2)
H15_2 H 0.8882 0.1463 0.5072
C22_4 C 0.8519(2) 0.0622(4) 0.4174(2)
C23_4 C 0.8157(2) 0.1667(4) 0.3809(2)
C26_4 C 0.7593(2) 0.4112(4) 0.0029(2)
H17_4 H 0.7743 0.4229 0.0503
C12_4 C 0.7407(2) 0.0888(4) 0.9971(2)
H10_4 H 0.7257 0.0771 0.9497
N4_4 N 0.72953(19) 0.4926(3) 0.88957(19)
C25_4 C 0.7507(3) 0.5031(4) 0.9580(3)
H16_4 H 0.7603 0.5762 0.9765
C27_4 C 0.7453(2) 0.3014(4) 0.9767(2)
C28_4 C 0.7223(3) 0.2909(4) 0.9057(2)
H18_4 H 0.7115 0.2191 0.8857
C29_4 C 0.7155(3) 0.3870(4) 0.8649(3)
H19_4 H 0.7003 0.3777 0.8174
F4_2 F 0.5888(2) 0.8043(4) 0.4622(3)
F5_2 F 0.5046(2) 0.7707(3) 0.4956(2)
F6_2 F 0.5119(3) 0.6971(4) 0.4050(2)
N5_4 N 0.65180(19) 0.7353(3) 0.8535(2)
O5_4 O 0.7463(2) 0.5967(4) 0.7002(2)
O6_4 O 0.6549(3) 0.5782(5) 0.7312(2)
C30_4 C 0.5934(2) 0.6796(4) 0.8395(2)
H20_4 H 0.5931 0.6022 0.8281
C31_4 C 0.5344(2) 0.7298(4) 0.8409(2)
H21_4 H 0.4954 0.6865 0.8304
C32_4 C 0.5321(2) 0.8447(4) 0.8577(2)
C33_4 C 0.5933(2) 0.9019(5) 0.8760(3)
H22_4 H 0.5955 0.9781 0.8902
C34_4 C 0.6505(3) 0.8446(5) 0.8729(3)
H23_4 H 0.6906 0.8845 0.8851
C35_4 C 0.4689(2) 0.9072(4) 0.8533(2)
C36_4 C 0.4106(2) 0.8772(4) 0.8063(3)
H24_4 H 0.4093 0.8119 0.7793
C37_4 C 0.3541(2) 0.9422(5) 0.7986(3)
H25_4 H 0.3158 0.9205 0.7653
C40_4 C 0.6862(3) 0.5723(4) 0.6880(3)
C41_4 C 0.6495(2) 0.5448(4) 0.6144(2)
C42_4 C 0.6166(2) 0.6361(4) 0.5755(2)
H28_4 H 0.6176 0.7080 0.5959
C43_4 C 0.5823(2) 0.6215(4) 0.5066(2)
C44_2 C 0.5792(3) 0.5156(5) 0.4759(3)
H29_2 H 0.5549 0.5051 0.4303
C45_4 C 0.6128(2) 0.4251(4) 0.5138(2)
H30_2 H 0.6118 0.3537 0.4928
C46_4 C 0.6481(2) 0.4378(4) 0.5826(2)
C47_4 C 0.6843(2) 0.3333(4) 0.6191(2)
C48_2 C 0.5483(3) 0.7226(5) 0.4672(3)
F1_2 F 0.9112(2) 0.6957(4) 0.5378(3)
F2_2 F 0.9954(2) 0.7293(3) 0.5044(2)
F3_2 F 0.9881(3) 0.8029(4) 0.5950(2)
N1_4 N 0.84820(19) 0.7647(3) 0.1465(2)
O1_4 O 0.7537(2) 0.9033(4) 0.2998(2)
O2_4 O 0.8451(3) 0.9218(5) 0.2688(2)
C1_4 C 0.9066(2) 0.8204(4) 0.1605(2)
H1_4 H 0.9069 0.8978 0.1719
C2_4 C 0.9656(2) 0.7702(4) 0.1591(2)
C3_4 C 0.9679(2) 0.6553(4) 0.1423(2)
C4_4 C 0.9067(2) 0.5981(5) 0.1240(3)
H3_4 H 0.9045 0.5219 0.1098
C5_4 C 0.8495(3) 0.6554(5) 0.1271(3)
H4_4 H 0.8094 0.6155 0.1149
H8_4 H 0.9977 0.4761 0.0711
C11_4 C 0.7493(3) 0.9969(4) 0.0420(3)
H9_4 H 0.7397 0.9238 0.0235
C16_4 C 0.8138(3) 0.9277(4) 0.3120(3)
C17_4 C 0.8505(2) 0.9552(4) 0.3856(2)
C18_4 C 0.8834(2) 0.8639(4) 0.4245(2)
H13_4 H 0.8824 0.7920 0.4041
C19_4 C 0.9177(2) 0.8785(4) 0.4934(2)
C20_2 C 0.9208(3) 0.9844(5) 0.5241(3)
H14_2 H 0.9451 0.9949 0.5697
C24_2 C 0.9517(3) 0.7774(5) 0.5328(3)
C38_4 C 0.5935(2) 0.0608(5) 0.6153(3)
H26_4 H 0.5947 0.1230 0.5865
C39_4 C 0.5350(2) 0.0013(5) 0.6055(3)
H27_4 H 0.4977 0.0239 0.5711
H2_4 H 0.9954 0.8135 0.3304
C6_4 C 0.9689(2) 0.5928(4) 0.3533(2)
C7_4 C 0.9106(2) 0.6228(4) 0.3063(3)
H5_4 H 0.9093 0.6881 0.2793
C8_4 C 0.8541(2) 0.5578(5) 0.2986(3)
H6_4 H 0.8158 0.5795 0.2653
C9_4 C 0.9065(2) 0.4392(5) 0.3847(3)
H7_4 H 0.9053 0.3770 0.4135
C10_4 C 0.9650(2) 0.4987(5) 0.3945(3)
F4_3 F 0.9112(2) 0.3043(4) 0.0378(3)
F5_3 F 0.9954(2) 0.2707(3) 0.0044(2)
F6_3 F 0.9881(3) 0.1971(4) 0.0950(2)
C44_3 C 0.9208(3) 0.0156(5) 0.0241(3)
H29_3 H 0.9451 0.0051 0.0697
C48_3 C 0.9517(3) 0.2226(5) 0.0328(3)
H30_3 H 0.8882 0.8537 0.0072
F1_3 F 0.5888(2) 0.1957(4) 0.9622(3)
F2_3 F 0.5046(2) 0.2293(3) 0.9956(2)
F3_3 F 0.5119(3) 0.3029(4) 0.9050(2)
C20_3 C 0.5792(3) 0.4844(5) 0.9759(3)
H14_3 H 0.5549 0.4949 0.9303
H15_3 H 0.6118 0.6463 0.9928
C24_3 C 0.5483(3) 0.2774(5) 0.9672(3)
F4_4 F 0.4112(2) 0.8043(4) 0.0378(3)
F5_4 F 0.4954(2) 0.7707(3) 0.0044(2)
F6_4 F 0.4881(3) 0.6971(4) 0.0950(2)
C44_4 C 0.4208(3) 0.5156(5) 0.0241(3)
H29_4 H 0.4451 0.5051 0.0697
H30_4 H 0.3882 0.3537 0.0072
C48_4 C 0.4517(3) 0.7226(5) 0.0328(3)
H15_4 H 0.1118 0.1463 0.9928
F1_4 F 0.0888(2) 0.6957(4) 0.9622(3)
F2_4 F 0.0046(2) 0.7293(3) 0.9956(2)
F3_4 F 0.0119(3) 0.8029(4) 0.9050(2)
C20_4 C 0.0792(3) 0.9844(5) 0.9759(3)
H14_4 H 0.0549 0.9949 0.9303
C24_4 C 0.0483(3) 0.7774(5) 0.9672(3)
loop_
_geom_bond_atom_site_label_1
_geom_bond_atom_site_label_2
_geom_bond_site_symmetry_1
_geom_bond_site_symmetry_2
C25 H16 1_555 1_555
F4 C48 1_555 1_555
F5 C48 1_555 1_555
F6 C48 1_555 1_555
N5 Cd2 1_555 1_555
O5 Cd2 1_555 1_555
O6 Cd2 1_555 1_555
C30 N5 1_555 1_555
H20 C30 1_555 1_555
C31 C30 1_555 1_555
C32 C31 1_555 1_555
C33 C32 1_555 1_555
H22 C33 1_555 1_555
C34 N5 1_555 1_555
H23 C34 1_555 1_555
C40 O5 1_555 1_555
C41 C40 1_555 1_555
C42 C41 1_555 1_555
H28 C42 1_555 1_555
C43 C42 1_555 1_555
C44 C43 1_555 1_555
H29 C44 1_555 1_555
C48 C43 1_555 1_555
N8 Cd2 1_555 1_555
O10 Cd2 1_555 1_555
O12 Cd2 1_555 1_555
O6 C40 1_555 1_555
C33 C34 1_555 1_555
Cd1 N1 1_555 1_555
F1 C24 1_555 1_555
F2 C24 1_555 1_555
F3 C24 1_555 1_555
N1 C1 1_555 1_555
N2 Cd1 1_555 1_555
O1 Cd1 1_555 1_555
O2 Cd1 1_555 1_555
O3 C23 1_555 1_555
O4 C23 1_555 1_555
C1 H1 1_555 1_555
C2 C1 1_555 1_555
H2 C2 1_555 1_555
C3 C2 1_555 1_555
C4 C3 1_555 1_555
H3 C4 1_555 1_555
C5 N1 1_555 1_555
H4 C5 1_555 1_555
C6 C3 1_555 1_555
C7 C6 1_555 1_555
H5 C7 1_555 1_555
C8 C7 1_555 1_555
H6 C8 1_555 1_555
C11 N2 1_555 1_555
H9 C11 1_555 1_555
C14 C13 1_555 1_555
H11 C14 1_555 1_555
C15 N2 1_555 1_555
H12 C15 1_555 1_555
C16 O1 1_555 1_555
C17 C16 1_555 1_555
C18 C17 1_555 1_555
H13 C18 1_555 1_555
C19 C18 1_555 1_555
C20 C19 1_555 1_555
H14 C20 1_555 1_555
C21 C20 1_555 1_555
H15 C21 1_555 1_555
C22 C17 1_555 1_555
C23 C22 1_555 1_555
C24 C19 1_555 1_555
H17 C26 1_555 1_555
Cd4 O3 1_555 1_555
N7 Cd1 1_555 1_555
O9 Cd1 1_555 1_555
O11 Cd1 1_555 1_555
O2 C16 1_555 1_555
O4 Cd4 1_555 1_555
C4 C5 1_555 1_555
C14 C15 1_555 1_555
C21 C22 1_555 1_555
H10 C12 1_555 1_555
C28 C27 1_555 1_555
H18 C28 1_555 1_555
C29 N4 1_555 1_555
H19 C29 1_555 1_555
O7 C47 1_555 1_555
O8 C47 1_555 1_555
H30 C45 1_555 1_555
C47 C46 1_555 1_555
Cd6 O7 1_555 1_555
C28 C29 1_555 1_555
O8 Cd6 1_555 1_555
C45 C46 1_555 1_555
N6 C37 1_555 1_555
C36 C35 1_555 1_555
H24 C36 1_555 1_555
C37 C36 1_555 1_555
H25 C37 1_555 1_555
C38 N6 1_555 1_555
H26 C38 1_555 1_555
C39 C35 1_555 1_555
Cd6 N6 1_555 1_555
C38 C39 1_555 1_555
C9 N3 1_555 1_555
H7 C9 1_555 1_555
H8 C10 1_555 1_555
Cd4 N3 1_555 1_555
C9 C10 1_555 1_555
N7 C8_2 1_555 1_555
C7_2 C6_2 1_555 1_555
H5_2 C7_2 1_555 1_555
C8_2 C7_2 1_555 1_555
H6_2 C8_2 1_555 1_555
C9_2 N7 1_555 1_555
H7_2 C9_2 1_555 1_555
C10_2 C6_2 1_555 1_555
C9_2 C10_2 1_555 1_555
C38_2 N8 1_555 1_555
H26_2 C38_2 1_555 1_555
H27_2 C39_2 1_555 1_555
C38_2 C39_2 1_555 1_555
O9 C23_2 1_555 1_555
O11 C23_2 1_555 1_555
H10_2 C12_2 1_555 1_555
C13_2 C12_2 1_555 1_555
C14_2 C13_2 1_555 1_555
H11_2 C14_2 1_555 1_555
C15_2 N2_2 1_555 1_555
H12_2 C15_2 1_555 1_555
C23_2 C22_2 1_555 1_555
N4_2 C25_2 1_555 1_555
C25_2 H16_2 1_555 1_555
C26_2 C25_2 1_555 1_555
H17_2 C26_2 1_555 1_555
C27_2 C13_2 1_555 1_555
C28_2 C27_2 1_555 1_555
H18_2 C28_2 1_555 1_555
C29_2 N4_2 1_555 1_555
H19_2 C29_2 1_555 1_555
Cd6 N4_2 1_555 1_555
N5_2 Cd6 1_555 1_555
O5_2 Cd6 1_555 1_555
O6_2 Cd6 1_555 1_555
O10 C47_2 1_555 1_555
O12 C47_2 1_555 1_555
C30_2 N5_2 1_555 1_555
H20_2 C30_2 1_555 1_555
C31_2 C30_2 1_555 1_555
H21_2 C31_2 1_555 1_555
C32_2 C31_2 1_555 1_555
C33_2 C32_2 1_555 1_555
H22_2 C33_2 1_555 1_555
C34_2 N5_2 1_555 1_555
H23_2 C34_2 1_555 1_555
C35_2 C32_2 1_555 1_555
C36_2 C35_2 1_555 1_555
H24_2 C36_2 1_555 1_555
C37_2 C36_2 1_555 1_555
H25_2 C37_2 1_555 1_555
C40_2 O5_2 1_555 1_555
C41_2 C40_2 1_555 1_555
C42_2 C41_2 1_555 1_555
H28_2 C42_2 1_555 1_555
C43_2 C42_2 1_555 1_555
C46_2 C41_2 1_555 1_555
C47_2 C46_2 1_555 1_555
C14_2 C15_2 1_555 1_555
C21_2 C22_2 1_555 1_555
C26_2 C27_2 1_555 1_555
C28_2 C29_2 1_555 1_555
O6_2 C40_2 1_555 1_555
C33_2 C34_2 1_555 1_555
C45_2 C46_2 1_555 1_555
Cd4 N1_2 1_555 1_555
N1_2 C1_2 1_555 1_555
O1_2 Cd4 1_555 1_555
O2_2 Cd4 1_555 1_555
C1_2 H1_2 1_555 1_555
C2_2 C1_2 1_555 1_555
C3_2 C2_2 1_555 1_555
C4_2 C3_2 1_555 1_555
H3_2 C4_2 1_555 1_555
C5_2 N1_2 1_555 1_555
H4_2 C5_2 1_555 1_555
H9_2 C11_2 1_555 1_555
C16_2 O1_2 1_555 1_555
C17_2 C16_2 1_555 1_555
C18_2 C17_2 1_555 1_555
H13_2 C18_2 1_555 1_555
C19_2 C18_2 1_555 1_555
O2_2 C16_2 1_555 1_555
C4_2 C5_2 1_555 1_555
C9_3 N3_2 1_555 1_555
H7_3 C9_3 1_555 1_555
H8_3 C10_3 1_555 1_555
Cd3 N3_2 1_555 1_555
C9_3 C10_3 1_555 1_555
N6_2 C37_3 1_555 1_555
C36_3 C35_3 1_555 1_555
H24_3 C36_3 1_555 1_555
C37_3 C36_3 1_555 1_555
H25_3 C37_3 1_555 1_555
C38_3 N6_2 1_555 1_555
H26_3 C38_3 1_555 1_555
C39_3 C35_3 1_555 1_555
Cd5 N6_2 1_555 1_555
C38_3 C39_3 1_555 1_555
C25_3 H16_3 1_555 1_555
N5_3 Cd2_2 1_555 1_555
O5_3 Cd2_2 1_555 1_555
O6_3 Cd2_2 1_555 1_555
C30_3 N5_3 1_555 1_555
H20_3 C30_3 1_555 1_555
C31_3 C30_3 1_555 1_555
C32_3 C31_3 1_555 1_555
C33_3 C32_3 1_555 1_555
H22_3 C33_3 1_555 1_555
C34_3 N5_3 1_555 1_555
H23_3 C34_3 1_555 1_555
C40_3 O5_3 1_555 1_555
C41_3 C40_3 1_555 1_555
C42_3 C41_3 1_555 1_555
H28_3 C42_3 1_555 1_555
C43_3 C42_3 1_555 1_555
N8_2 Cd2_2 1_555 1_555
O10_2 Cd2_2 1_555 1_555
O12_2 Cd2_2 1_555 1_555
O6_3 C40_3 1_555 1_555
C33_3 C34_3 1_555 1_555
Cd1_2 N1_3 1_555 1_555
N1_3 C1_3 1_555 1_555
N2_3 Cd1_2 1_555 1_555
O1_3 Cd1_2 1_555 1_555
O2_3 Cd1_2 1_555 1_555
O3_2 C23_3 1_555 1_555
O4_2 C23_3 1_555 1_555
C1_3 H1_3 1_555 1_555
C2_3 C1_3 1_555 1_555
H2_3 C2_3 1_555 1_555
C3_3 C2_3 1_555 1_555
C4_3 C3_3 1_555 1_555
H3_3 C4_3 1_555 1_555
C5_3 N1_3 1_555 1_555
H4_3 C5_3 1_555 1_555
C6_3 C3_3 1_555 1_555
C7_3 C6_3 1_555 1_555
H5_3 C7_3 1_555 1_555
C8_3 C7_3 1_555 1_555
H6_3 C8_3 1_555 1_555
C11_3 N2_3 1_555 1_555
H9_3 C11_3 1_555 1_555
C12_3 C11_3 1_555 1_555
H10_3 C12_3 1_555 1_555
C13_3 C12_3 1_555 1_555
C14_3 C13_3 1_555 1_555
H11_3 C14_3 1_555 1_555
C15_3 N2_3 1_555 1_555
H12_3 C15_3 1_555 1_555
C16_3 O1_3 1_555 1_555
C17_3 C16_3 1_555 1_555
C18_3 C17_3 1_555 1_555
H13_3 C18_3 1_555 1_555
C19_3 C18_3 1_555 1_555
C22_3 C17_3 1_555 1_555
C23_3 C22_3 1_555 1_555
H17_3 C26_3 1_555 1_555
C27_3 C13_3 1_555 1_555
C28_3 C27_3 1_555 1_555
H18_3 C28_3 1_555 1_555
C29_3 N4_3 1_555 1_555
H19_3 C29_3 1_555 1_555
O7_2 C47_3 1_555 1_555
O8_2 C47_3 1_555 1_555
C47_3 C46_3 1_555 1_555
Cd3 O3_2 1_555 1_555
Cd5 O7_2 1_555 1_555
N7_2 Cd1_2 1_555 1_555
O9_2 Cd1_2 1_555 1_555
O11_2 Cd1_2 1_555 1_555
O2_3 C16_3 1_555 1_555
O4_2 Cd3 1_555 1_555
C4_3 C5_3 1_555 1_555
C14_3 C15_3 1_555 1_555
C21_3 C22_3 1_555 1_555
C26_3 C27_3 1_555 1_555
C28_3 C29_3 1_555 1_555
O8_2 Cd5 1_555 1_555
C45_3 C46_3 1_555 1_555
O9_2 C23_4 1_555 1_555
O11_2 C23_4 1_555 1_555
C14_4 C13_4 1_555 1_555
H11_4 C14_4 1_555 1_555
C15_4 N2_4 1_555 1_555
H12_4 C15_4 1_555 1_555
H15_2 C21_4 1_555 1_555
C23_4 C22_4 1_555 1_555
H17_4 C26_4 1_555 1_555
C14_4 C15_4 1_555 1_555
C21_4 C22_4 1_555 1_555
H10_4 C12_4 1_555 1_555
N4_4 C25_4 1_555 1_555
C25_4 H16_4 1_555 1_555
C28_4 C27_4 1_555 1_555
H18_4 C28_4 1_555 1_555
C29_4 N4_4 1_555 1_555
H19_4 C29_4 1_555 1_555
Cd5 N4_4 1_555 1_555
F4_2 C48_2 1_555 1_555
F5_2 C48_2 1_555 1_555
F6_2 C48_2 1_555 1_555
N5_4 Cd5 1_555 1_555
O5_4 Cd5 1_555 1_555
O6_4 Cd5 1_555 1_555
O10_2 C47_4 1_555 1_555
O12_2 C47_4 1_555 1_555
C30_4 N5_4 1_555 1_555
H20_4 C30_4 1_555 1_555
C31_4 C30_4 1_555 1_555
H21_4 C31_4 1_555 1_555
C32_4 C31_4 1_555 1_555
C33_4 C32_4 1_555 1_555
H22_4 C33_4 1_555 1_555
C34_4 N5_4 1_555 1_555
H23_4 C34_4 1_555 1_555
C35_4 C32_4 1_555 1_555
C36_4 C35_4 1_555 1_555
H24_4 C36_4 1_555 1_555
C37_4 C36_4 1_555 1_555
H25_4 C37_4 1_555 1_555
C40_4 O5_4 1_555 1_555
C41_4 C40_4 1_555 1_555
C42_4 C41_4 1_555 1_555
H28_4 C42_4 1_555 1_555
C43_4 C42_4 1_555 1_555
C44_2 C43_4 1_555 1_555
H29_2 C44_2 1_555 1_555
C45_4 C44_2 1_555 1_555
H30_2 C45_4 1_555 1_555
C46_4 C41_4 1_555 1_555
C47_4 C46_4 1_555 1_555
C48_2 C43_4 1_555 1_555
C28_4 C29_4 1_555 1_555
O6_4 C40_4 1_555 1_555
C33_4 C34_4 1_555 1_555
C45_4 C46_4 1_555 1_555
Cd3 N1_4 1_555 1_555
F1_2 C24_2 1_555 1_555
F2_2 C24_2 1_555 1_555
F3_2 C24_2 1_555 1_555
N1_4 C1_4 1_555 1_555
O1_4 Cd3 1_555 1_555
O2_4 Cd3 1_555 1_555
C1_4 H1_4 1_555 1_555
C2_4 C1_4 1_555 1_555
C3_4 C2_4 1_555 1_555
C4_4 C3_4 1_555 1_555
H3_4 C4_4 1_555 1_555
C5_4 N1_4 1_555 1_555
H4_4 C5_4 1_555 1_555
H9_4 C11_4 1_555 1_555
C16_4 O1_4 1_555 1_555
C17_4 C16_4 1_555 1_555
C18_4 C17_4 1_555 1_555
H13_4 C18_4 1_555 1_555
C19_4 C18_4 1_555 1_555
C20_2 C19_4 1_555 1_555
H14_2 C20_2 1_555 1_555
C24_2 C19_4 1_555 1_555
O2_4 C16_4 1_555 1_555
C4_4 C5_4 1_555 1_555
C38_4 N8_2 1_555 1_555
H26_4 C38_4 1_555 1_555
H27_4 C39_4 1_555 1_555
C38_4 C39_4 1_555 1_555
N7_2 C8_4 1_555 1_555
C7_4 C6_4 1_555 1_555
H5_4 C7_4 1_555 1_555
C8_4 C7_4 1_555 1_555
H6_4 C8_4 1_555 1_555
C9_4 N7_2 1_555 1_555
H7_4 C9_4 1_555 1_555
C10_4 C6_4 1_555 1_555
C9_4 C10_4 1_555 1_555
F4_3 C48_3 1_555 1_555
F5_3 C48_3 1_555 1_555
F6_3 C48_3 1_555 1_555
H29_3 C44_3 1_555 1_555
F1_3 C24_3 1_555 1_555
F2_3 C24_3 1_555 1_555
F3_3 C24_3 1_555 1_555
H14_3 C20_3 1_555 1_555
F4_4 C48_4 1_555 1_555
F5_4 C48_4 1_555 1_555
F6_4 C48_4 1_555 1_555
H29_4 C44_4 1_555 1_555
F1_4 C24_4 1_555 1_555
F2_4 C24_4 1_555 1_555
F3_4 C24_4 1_555 1_555
H14_4 C20_4 1_555 1_555

#END
