
###############################################################################
#
# This file contains modified crystal structure data generated from the
# MOF subset of the Cambridge Structural Database (CSD) v543 
# hosted by the Cambridge Crystallographic Data Centre (CCDC).
#
# This work is licensed under the Creative Commons
# Attribution-NonCommercial-ShareAlike 4.0 International License.
# To view a copy of this license, visit
# http://creativecommons.org/licenses/by-nc-sa/4.0/
# or send a letter to
# Creative Commons, PO Box 1866, Mountain View, CA 94042, USA.
#
# CIF created using the CSD Python API on 29 September 2022
# The structure has been converted into the P1 space group
# The structure has a 3D framework
# The original CSD entry YIHVIX is in the tetragonal crystal system
# The framework has been calculated to contain at least 10.0% void space
# The void calculation uses a probe of radius 1.32A, grid spacing 0.4
#
###############################################################################

data_YIHVIX
_chemical_formula_moiety         '(C336 H128 F80 N44 Zn16)n'
_symmetry_cell_setting           triclinic
_symmetry_space_group_name_H-M   'P 1'
_symmetry_Int_Tables_number      1
_space_group_name_Hall           'P 1'
loop_
_symmetry_equiv_pos_site_id
_symmetry_equiv_pos_as_xyz
1 x,y,z
_cell_length_a                   25.1335(3)
_cell_length_b                   25.1335(3)
_cell_length_c                   17.5874(2)
_cell_angle_alpha                90
_cell_angle_beta                 90
_cell_angle_gamma                90
_cell_volume                     11109.8
loop_
_atom_site_label
_atom_site_type_symbol
_atom_site_fract_x
_atom_site_fract_y
_atom_site_fract_z
Zn1 Zn 0.5000 0.0000 0.0000
F1 F 0.55631(8) 0.09795(9) 0.27916(11)
N1 N 0.56326(9) 0.05039(9) 0.01405(12)
F2 F 0.62339(10) 0.11242(11) 0.39628(12)
C3 C 0.63593(12) 0.09332(12) 0.06465(16)
H2 H 0.6611 0.1049 0.0997
F3 F 0.72214(10) 0.06862(12) 0.39386(12)
C4 C 0.59184(11) 0.05826(11) 0.07944(15)
F4 F 0.75252(9) 0.00854(11) 0.27330(13)
C5 C 0.58071(11) 0.03392(11) 0.14980(14)
C6 C 0.61892(12) 0.04471(12) 0.21383(15)
C7 C 0.66918(12) 0.02344(13) 0.21483(16)
C8 C 0.70401(14) 0.03076(15) 0.27478(19)
C9 C 0.68831(15) 0.06037(16) 0.33538(18)
C10 C 0.63907(16) 0.08299(15) 0.33668(17)
C11 C 0.60485(13) 0.07487(13) 0.27620(17)
N7 N 0.43170(10) 0.07438(10) 0.00195(13)
F4_2 F 0.74146(11) 0.00252(9) 0.52330(13)
F1_2 F 0.15205(9) 0.30631(8) 0.02916(11)
F2_2 F 0.13758(11) 0.37339(10) 0.14628(12)
F3_2 F 0.18138(12) 0.47214(10) 0.14386(12)
F4_3 F 0.24146(11) 0.50252(9) 0.02330(13)
C8_2 C 0.21924(15) 0.45401(14) 0.02478(19)
C9_2 C 0.18963(16) 0.43831(15) 0.08538(18)
C10_2 C 0.16701(15) 0.38907(16) 0.08668(17)
C11_2 C 0.17513(13) 0.35485(13) 0.02620(17)
H3 H 0.2721 0.2991 0.0325
H4 H 0.3282 0.2200 0.0178
H7 H 0.3666 0.0325 0.0133
Zn1_2 Zn 0.5000 -0.0000 1.0000
C1 C 0.58856(11) 0.07866(11) 0.95801(15)
C2 C 0.63374(12) 0.10624(12) 0.98998(16)
H1 H 0.6570 0.1287 0.9641
N5 N 0.49878(9) 0.01755(9) 0.88529(12)
N6 N 0.67562(10) 0.18170(10) 0.74805(13)
F10 F 0.31354(7) 0.00618(8) 0.84385(10)
C33 C 0.46117(10) 0.00105(11) 0.83395(14)
C34 C 0.47083(12) 0.02642(12) 0.76158(15)
H11 H 0.4509 0.0221 0.7175
C35 C 0.51410(11) 0.05756(12) 0.76973(15)
H12 H 0.5300 0.0782 0.7322
C36 C 0.53122(11) 0.05275(11) 0.84798(15)
C37 C 0.57375(11) 0.08014(11) 0.88096(15)
C38 C 0.60743(11) 0.11477(12) 0.83043(15)
C39 C 0.59576(13) 0.16755(13) 0.8193(2)
H13 H 0.5648 0.1822 0.8394
C40 C 0.63069(13) 0.19873(13) 0.77769(19)
H14 H 0.6217 0.2342 0.7702
C41 C 0.68627(14) 0.13002(13) 0.75755(18)
H15 H 0.7175 0.1166 0.7367
C42 C 0.65325(13) 0.09540(13) 0.79689(17)
H16 H 0.6619 0.0595 0.8007
Zn2 Zn 0.7500 0.2500 0.7500
Zn1_3 Zn 0.5000 1.0000 0.0000
N2 N 0.50122(9) 0.98245(9) 0.11471(12)
N3 N 0.32438(10) 0.81830(10) 0.25195(13)
F5 F 0.68646(7) 0.99382(8) 0.15615(10)
C12 C 0.53883(10) 0.99895(11) 0.16605(14)
C13 C 0.52917(12) 0.97358(12) 0.23842(15)
H3_2 H 0.5491 0.9779 0.2825
C14 C 0.48590(11) 0.94244(12) 0.23027(15)
H4_2 H 0.4700 0.9218 0.2678
C15 C 0.46878(11) 0.94725(11) 0.15202(15)
C16 C 0.42625(11) 0.91986(11) 0.11904(15)
C17 C 0.39257(11) 0.88523(12) 0.16957(15)
C18 C 0.40424(13) 0.83245(13) 0.1807(2)
H5 H 0.4352 0.8178 0.1606
C19 C 0.36931(13) 0.80127(13) 0.22231(19)
H6 H 0.3783 0.7658 0.2298
C20 C 0.31373(14) 0.86998(13) 0.24245(18)
H7_2 H 0.2825 0.8834 0.2633
C21 C 0.34675(13) 0.90460(13) 0.20311(17)
H8 H 0.3381 0.9405 0.1993
C22 C 0.41144(11) 0.92134(11) 0.04199(15)
C23 C 0.36626(12) 0.89376(12) 0.01002(16)
H9 H 0.3430 0.8713 0.0359
Zn3 Zn 0.2500 0.7500 0.2500
Zn1_4 Zn 0.0000 -0.0000 0.5000
N3_2 N 0.17562(10) 0.18170(10) 0.75195(13)
C14_2 C 0.01410(11) 0.05756(12) 0.73027(15)
H4_3 H 0.0300 0.0782 0.7678
C15_2 C 0.03122(11) 0.05275(11) 0.65202(15)
C16_2 C 0.07375(11) 0.08014(11) 0.61904(15)
C17_2 C 0.10743(11) 0.11477(12) 0.66957(15)
C18_2 C 0.09576(13) 0.16755(13) 0.6807(2)
H5_2 H 0.0648 0.1822 0.6606
C19_2 C 0.13069(13) 0.19873(13) 0.72231(19)
H6_2 H 0.1217 0.2342 0.7298
C20_2 C 0.18627(14) 0.13002(13) 0.74245(18)
H7_3 H 0.2175 0.1166 0.7633
C21_2 C 0.15325(13) 0.09540(13) 0.70311(17)
H8_2 H 0.1619 0.0595 0.6993
F6 F 0.05631(8) 0.09795(9) 0.22084(11)
N4 N 0.06326(9) 0.05039(9) 0.48595(12)
C22_2 C 0.08856(11) 0.07866(11) 0.54199(15)
C23_2 C 0.13374(12) 0.10624(12) 0.51002(16)
H9_2 H 0.1570 0.1287 0.5359
F7 F 0.12339(10) 0.11242(11) 0.10372(12)
C24 C 0.13593(12) 0.09332(12) 0.43535(16)
H10 H 0.1611 0.1049 0.4003
F8 F 0.22214(10) 0.06862(12) 0.10614(12)
C25 C 0.09184(11) 0.05826(11) 0.42056(15)
F9 F 0.25252(9) 0.00854(11) 0.22670(13)
C26 C 0.08071(11) 0.03392(11) 0.35020(14)
C27 C 0.11892(12) 0.04471(12) 0.28617(15)
C28 C 0.16918(12) 0.02344(13) 0.28517(16)
C29 C 0.20401(14) 0.03076(15) 0.22522(19)
C30 C 0.18831(15) 0.06037(16) 0.16462(18)
C31 C 0.13907(16) 0.08299(15) 0.16332(17)
C32 C 0.10485(13) 0.07487(13) 0.22380(17)
Zn3_2 Zn 0.2500 0.2500 0.7500
Zn1_5 Zn 0.0000 1.0000 0.5000
N5_2 N 0.00122(9) 0.98245(9) 0.38529(12)
F10_2 F 0.18646(7) 0.99382(8) 0.34385(10)
C33_2 C 0.03883(10) 0.99895(11) 0.33395(14)
C34_2 C 0.02917(12) 0.97358(12) 0.26158(15)
H11_2 H 0.0491 0.9779 0.2175
N7_2 N 0.06830(10) 0.92562(10) 0.50195(13)
Zn1_6 Zn 1.0000 -0.0000 0.5000
N2_2 N 0.99878(9) 0.01755(9) 0.61471(12)
F5_2 F 0.81354(7) 0.00618(8) 0.65615(10)
C12_2 C 0.96117(10) 0.00105(11) 0.66605(14)
C13_2 C 0.97083(12) 0.02642(12) 0.73842(15)
H3_3 H 0.9509 0.0221 0.7825
N8 N 0.93170(10) 0.07438(10) 0.49805(13)
Zn1_7 Zn 1.0000 1.0000 0.5000
F1_3 F 0.94369(8) 0.90205(9) 0.77916(11)
N1_2 N 0.93674(9) 0.94961(9) 0.51405(12)
C1_2 C 0.91144(11) 0.92134(11) 0.45801(15)
C2_2 C 0.86626(12) 0.89376(12) 0.48998(16)
H1_2 H 0.8430 0.8713 0.4641
F2_3 F 0.87661(10) 0.88758(11) 0.89628(12)
C3_2 C 0.86407(12) 0.90668(12) 0.56465(16)
H2_2 H 0.8389 0.8951 0.5997
F3_3 F 0.77786(10) 0.93138(12) 0.89386(12)
C4_2 C 0.90816(11) 0.94174(11) 0.57944(15)
F4_4 F 0.74748(9) 0.99146(11) 0.77330(13)
C5_2 C 0.91929(11) 0.96608(11) 0.64980(14)
C6_2 C 0.88108(12) 0.95529(12) 0.71383(15)
C7_2 C 0.83082(12) 0.97656(13) 0.71483(16)
C8_3 C 0.79599(14) 0.96924(15) 0.77478(19)
C9_3 C 0.81169(15) 0.93963(16) 0.83538(18)
C10_3 C 0.86093(16) 0.91701(15) 0.83668(17)
C11_3 C 0.89515(13) 0.92513(13) 0.77620(17)
N6_2 N 0.82438(10) 0.81830(10) 0.24805(13)
C35_2 C 0.98590(11) 0.94244(12) 0.26973(15)
H12_2 H 0.9700 0.9218 0.2322
C36_2 C 0.96878(11) 0.94725(11) 0.34798(15)
C37_2 C 0.92625(11) 0.91986(11) 0.38096(15)
C38_2 C 0.89257(11) 0.88523(12) 0.33043(15)
C39_2 C 0.90424(13) 0.83245(13) 0.3193(2)
H13_2 H 0.9352 0.8178 0.3394
C40_2 C 0.86931(13) 0.80127(13) 0.27769(19)
H14_2 H 0.8783 0.7658 0.2702
C41_2 C 0.81373(14) 0.86998(13) 0.25755(18)
H15_2 H 0.7825 0.8834 0.2367
C42_2 C 0.84675(13) 0.90460(13) 0.29689(17)
H16_2 H 0.8381 0.9405 0.3007
Zn2_2 Zn 0.7500 0.7500 0.2500
Zn3_3 Zn -0.0000 0.5000 0.5000
F1_4 F 0.65205(9) 0.80631(8) 0.52916(11)
N1_3 N 0.69961(9) 0.81326(9) 0.26405(12)
C1_3 C 0.67134(11) 0.83856(11) 0.20801(15)
N2_3 N 0.76755(9) 0.75122(9) 0.36471(12)
C2_3 C 0.64376(12) 0.88374(12) 0.23998(16)
H1_3 H 0.6213 0.9070 0.2141
F2_4 F 0.63758(11) 0.87339(10) 0.64628(12)
C3_3 C 0.65668(12) 0.88593(12) 0.31465(16)
H2_3 H 0.6451 0.9111 0.3497
N3_3 N 0.93170(10) 0.57438(10) 0.50195(13)
F3_4 F 0.68138(12) 0.97214(10) 0.64386(12)
C4_3 C 0.69174(11) 0.84184(11) 0.32944(15)
F5_3 F 0.75618(8) 0.93646(7) 0.40615(10)
C5_3 C 0.71608(11) 0.83071(11) 0.39980(14)
C6_3 C 0.70529(12) 0.86892(12) 0.46383(15)
C7_3 C 0.72656(13) 0.91918(12) 0.46483(16)
C8_4 C 0.71924(15) 0.95401(14) 0.52478(19)
C9_4 C 0.68963(16) 0.93831(15) 0.58538(18)
C10_4 C 0.66701(15) 0.88907(16) 0.58668(17)
C11_4 C 0.67513(13) 0.85485(13) 0.52620(17)
C12_3 C 0.75105(11) 0.78883(10) 0.41605(14)
C13_3 C 0.77642(12) 0.77917(12) 0.48842(15)
H3_4 H 0.7721 0.7991 0.5325
C14_3 C 0.80756(12) 0.73590(11) 0.48027(15)
H4_4 H 0.8282 0.7200 0.5178
C15_3 C 0.80275(11) 0.71878(11) 0.40202(15)
C16_3 C 0.83014(11) 0.67625(11) 0.36904(15)
C17_3 C 0.86477(12) 0.64257(11) 0.41957(15)
C18_3 C 0.91755(13) 0.65424(13) 0.4307(2)
H5_3 H 0.9322 0.6852 0.4106
C19_3 C 0.94873(13) 0.61931(13) 0.47231(19)
H6_3 H 0.9842 0.6283 0.4798
C20_3 C 0.88002(13) 0.56373(14) 0.49245(18)
H7_4 H 0.8666 0.5325 0.5133
C21_3 C 0.84540(13) 0.59675(13) 0.45311(17)
H8_3 H 0.8095 0.5881 0.4493
N4_2 N 0.80039(9) 0.68674(9) 0.23595(12)
C22_3 C 0.82866(11) 0.66144(11) 0.29199(15)
N5_3 N 0.73245(9) 0.74878(9) 0.13529(12)
C23_3 C 0.85624(12) 0.61626(12) 0.26002(16)
H9_3 H 0.8787 0.5930 0.2859
C24_2 C 0.84332(12) 0.61407(12) 0.18535(16)
H10_2 H 0.8549 0.5889 0.1503
C25_2 C 0.80826(11) 0.65816(11) 0.17056(15)
F10_3 F 0.74382(8) 0.56354(7) 0.09385(10)
C26_2 C 0.78392(11) 0.66929(11) 0.10020(14)
C27_2 C 0.79471(12) 0.63108(12) 0.03617(15)
C28_2 C 0.77344(13) 0.58082(12) 0.03517(16)
C33_3 C 0.74895(11) 0.71117(10) 0.08395(14)
C34_3 C 0.72358(12) 0.72083(12) 0.01158(15)
C35_3 C 0.69244(12) 0.76410(11) 0.01973(15)
C36_3 C 0.69725(11) 0.78122(11) 0.09798(15)
C37_3 C 0.66986(11) 0.82375(11) 0.13096(15)
C38_3 C 0.63523(12) 0.85743(11) 0.08043(15)
C39_3 C 0.58245(13) 0.84576(13) 0.0693(2)
H13_3 H 0.5678 0.8148 0.0894
C40_3 C 0.55127(13) 0.88069(13) 0.02769(19)
H14_3 H 0.5158 0.8717 0.0202
C41_3 C 0.61998(13) 0.93627(14) 0.00755(18)
C42_3 C 0.65460(13) 0.90325(13) 0.04689(17)
H16_3 H 0.6905 0.9119 0.0507
Zn3_4 Zn 1.0000 0.5000 0.5000
N7_3 N 0.67562(10) 0.68170(10) 0.25195(13)
F1_5 F 0.84795(9) 0.19369(8) 0.02916(11)
F2_5 F 0.86242(11) 0.12661(10) 0.14628(12)
N3_4 N 0.56830(10) 0.42562(10) 0.00195(13)
F3_5 F 0.81862(12) 0.02786(10) 0.14386(12)
C8_5 C 0.78076(15) 0.04599(14) 0.02478(19)
C9_5 C 0.81037(16) 0.06169(15) 0.08538(18)
C10_5 C 0.83299(15) 0.11093(16) 0.08668(17)
C11_5 C 0.82487(13) 0.14515(13) 0.02620(17)
H3_5 H 0.7279 0.2009 0.0325
H4_5 H 0.6718 0.2800 0.0178
H7_5 H 0.6334 0.4675 0.0133
Zn3_5 Zn 0.5000 0.5000 0.0000
N1_4 N 0.80039(9) 0.18674(9) 0.76405(12)
C1_4 C 0.82866(11) 0.16144(11) 0.70801(15)
N2_4 N 0.73245(9) 0.24878(9) 0.86471(12)
C2_4 C 0.85624(12) 0.11626(12) 0.73998(16)
H1_4 H 0.8787 0.0930 0.7141
C3_4 C 0.84332(12) 0.11407(12) 0.81465(16)
H2_4 H 0.8549 0.0889 0.8497
C4_4 C 0.80826(11) 0.15816(11) 0.82944(15)
F5_4 F 0.74382(8) 0.06354(7) 0.90615(10)
C5_4 C 0.78392(11) 0.16929(11) 0.89980(14)
C6_4 C 0.79471(12) 0.13108(12) 0.96383(15)
C7_4 C 0.77344(13) 0.08082(12) 0.96483(16)
C12_4 C 0.74895(11) 0.21117(10) 0.91605(14)
C13_4 C 0.72358(12) 0.22083(12) 0.98842(15)
C14_4 C 0.69244(12) 0.26410(11) 0.98027(15)
C15_4 C 0.69725(11) 0.28122(11) 0.90202(15)
C16_4 C 0.66986(11) 0.32375(11) 0.86904(15)
C17_4 C 0.63523(12) 0.35743(11) 0.91957(15)
C18_4 C 0.58245(13) 0.34576(13) 0.9307(2)
H5_4 H 0.5678 0.3148 0.9106
C19_4 C 0.55127(13) 0.38069(13) 0.97231(19)
H6_4 H 0.5158 0.3717 0.9798
C20_4 C 0.61998(13) 0.43627(14) 0.99245(18)
C21_4 C 0.65460(13) 0.40325(13) 0.95311(17)
H8_4 H 0.6905 0.4119 0.9493
F6_2 F 0.65205(9) 0.30631(8) 0.47084(11)
N4_3 N 0.69961(9) 0.31326(9) 0.73595(12)
C22_4 C 0.67134(11) 0.33856(11) 0.79199(15)
N5_4 N 0.76755(9) 0.25122(9) 0.63529(12)
C23_4 C 0.64376(12) 0.38374(12) 0.76002(16)
H9_4 H 0.6213 0.4070 0.7859
F7_2 F 0.63758(11) 0.37339(10) 0.35372(12)
C24_3 C 0.65668(12) 0.38593(12) 0.68535(16)
H10_3 H 0.6451 0.4111 0.6503
F8_2 F 0.68138(12) 0.47214(10) 0.35614(12)
C25_3 C 0.69174(11) 0.34184(11) 0.67056(15)
F9_2 F 0.74146(11) 0.50252(9) 0.47670(13)
F10_4 F 0.75618(8) 0.43646(7) 0.59385(10)
C26_3 C 0.71608(11) 0.33071(11) 0.60020(14)
C27_3 C 0.70529(12) 0.36892(12) 0.53617(15)
C28_3 C 0.72656(13) 0.41918(12) 0.53517(16)
C29_2 C 0.71924(15) 0.45401(14) 0.47522(19)
C30_2 C 0.68963(16) 0.43831(15) 0.41462(18)
C31_2 C 0.66701(15) 0.38907(16) 0.41332(17)
C32_2 C 0.67513(13) 0.35485(13) 0.47380(17)
C33_4 C 0.75105(11) 0.28883(10) 0.58395(14)
C34_4 C 0.77642(12) 0.27917(12) 0.51158(15)
H11_3 H 0.7721 0.2991 0.4675
C35_4 C 0.80756(12) 0.23590(11) 0.51973(15)
H12_3 H 0.8282 0.2200 0.4822
C36_4 C 0.80275(11) 0.21878(11) 0.59798(15)
C37_4 C 0.83014(11) 0.17625(11) 0.63096(15)
C38_4 C 0.86477(12) 0.14257(11) 0.58043(15)
C39_4 C 0.91755(13) 0.15424(13) 0.5693(2)
H13_4 H 0.9322 0.1852 0.5894
C40_4 C 0.94873(13) 0.11931(13) 0.52769(19)
H14_4 H 0.9842 0.1283 0.5202
C41_4 C 0.88002(13) 0.06373(14) 0.50755(18)
H15_3 H 0.8666 0.0325 0.4867
C42_4 C 0.84540(13) 0.09675(13) 0.54689(17)
H16_4 H 0.8095 0.0881 0.5507
Zn3_6 Zn 0.5000 0.5000 1.0000
N7_4 N 0.82438(10) 0.31830(10) 0.75195(13)
F1_6 F 0.05631(8) 0.59795(9) 0.77916(11)
N1_5 N 0.06326(9) 0.55039(9) 0.51405(12)
C1_5 C 0.08856(11) 0.57866(11) 0.45801(15)
N2_5 N 0.00122(9) 0.48245(9) 0.61471(12)
C2_5 C 0.13374(12) 0.60624(12) 0.48998(16)
H1_5 H 0.1570 0.6287 0.4641
F2_6 F 0.12339(10) 0.61242(11) 0.89628(12)
C3_5 C 0.13593(12) 0.59332(12) 0.56465(16)
H2_5 H 0.1611 0.6049 0.5997
F3_6 F 0.22214(10) 0.56862(12) 0.89386(12)
C4_5 C 0.09184(11) 0.55826(11) 0.57944(15)
F4_5 F 0.25252(9) 0.50854(11) 0.77330(13)
F5_5 F 0.18646(7) 0.49382(8) 0.65615(10)
C5_5 C 0.08071(11) 0.53392(11) 0.64980(14)
C6_5 C 0.11892(12) 0.54471(12) 0.71383(15)
C7_5 C 0.16918(12) 0.52344(13) 0.71483(16)
C8_6 C 0.20401(14) 0.53076(15) 0.77478(19)
C9_6 C 0.18831(15) 0.56037(16) 0.83538(18)
C10_6 C 0.13907(16) 0.58299(15) 0.83668(17)
C11_6 C 0.10485(13) 0.57487(13) 0.77620(17)
C12_5 C 0.03883(10) 0.49895(11) 0.66605(14)
C13_5 C 0.02917(12) 0.47358(12) 0.73842(15)
H3_6 H 0.0491 0.4779 0.7825
N6_3 N 0.17562(10) 0.68170(10) 0.24805(13)
C35_5 C 0.01410(11) 0.55756(12) 0.26973(15)
H12_4 H 0.0300 0.5782 0.2322
C36_5 C 0.03122(11) 0.55275(11) 0.34798(15)
C37_5 C 0.07375(11) 0.58014(11) 0.38096(15)
C38_5 C 0.10743(11) 0.61477(12) 0.33043(15)
C39_5 C 0.09576(13) 0.66755(13) 0.3193(2)
H13_5 H 0.0648 0.6822 0.3394
C40_5 C 0.13069(13) 0.69873(13) 0.27769(19)
H14_5 H 0.1217 0.7342 0.2702
C41_5 C 0.18627(14) 0.63002(13) 0.25755(18)
H15_4 H 0.2175 0.6166 0.2367
C42_5 C 0.15325(13) 0.59540(13) 0.29689(17)
H16_5 H 0.1619 0.5595 0.3007
N8_2 N 0.06830(10) 0.42562(10) 0.49805(13)
C14_5 C 0.98590(11) 0.44244(12) 0.73027(15)
H4_6 H 0.9700 0.4218 0.7678
C15_5 C 0.96878(11) 0.44725(11) 0.65202(15)
C16_5 C 0.92625(11) 0.41986(11) 0.61904(15)
C17_5 C 0.89257(11) 0.38523(12) 0.66957(15)
C18_5 C 0.90424(13) 0.33245(13) 0.6807(2)
H5_5 H 0.9352 0.3178 0.6606
C19_5 C 0.86931(13) 0.30127(13) 0.72231(19)
H6_5 H 0.8783 0.2658 0.7298
C20_5 C 0.81373(14) 0.36998(13) 0.74245(18)
H7_6 H 0.7825 0.3834 0.7633
C21_5 C 0.84675(13) 0.40460(13) 0.70311(17)
H8_5 H 0.8381 0.4405 0.6993
F6_3 F 0.94369(8) 0.40205(9) 0.22084(11)
N4_4 N 0.93674(9) 0.44961(9) 0.48595(12)
C22_5 C 0.91144(11) 0.42134(11) 0.54199(15)
N5_5 N 0.99878(9) 0.51755(9) 0.38529(12)
C23_5 C 0.86626(12) 0.39376(12) 0.51002(16)
H9_5 H 0.8430 0.3713 0.5359
F7_3 F 0.87661(10) 0.38758(11) 0.10372(12)
C24_4 C 0.86407(12) 0.40668(12) 0.43535(16)
H10_4 H 0.8389 0.3951 0.4003
F8_3 F 0.77786(10) 0.43138(12) 0.10614(12)
C25_4 C 0.90816(11) 0.44174(11) 0.42056(15)
F9_3 F 0.74748(9) 0.49146(11) 0.22670(13)
F10_5 F 0.81354(7) 0.50618(8) 0.34385(10)
C26_4 C 0.91929(11) 0.46608(11) 0.35020(14)
C27_4 C 0.88108(12) 0.45529(12) 0.28617(15)
C28_4 C 0.83082(12) 0.47656(13) 0.28517(16)
C29_3 C 0.79599(14) 0.46924(15) 0.22522(19)
C30_3 C 0.81169(15) 0.43963(16) 0.16462(18)
C31_3 C 0.86093(16) 0.41701(15) 0.16332(17)
C32_3 C 0.89515(13) 0.42513(13) 0.22380(17)
C33_5 C 0.96117(10) 0.50105(11) 0.33395(14)
C34_5 C 0.97083(12) 0.52642(12) 0.26158(15)
H11_4 H 0.9509 0.5221 0.2175
F1_7 F 0.44369(8) 0.40205(9) 0.27916(11)
N1_6 N 0.43674(9) 0.44961(9) 0.01405(12)
N2_6 N 0.49878(9) 0.51755(9) 0.11471(12)
F2_7 F 0.37661(10) 0.38758(11) 0.39628(12)
C3_6 C 0.36407(12) 0.40668(12) 0.06465(16)
H2_6 H 0.3389 0.3951 0.0997
F3_7 F 0.27786(10) 0.43138(12) 0.39386(12)
C4_6 C 0.40816(11) 0.44174(11) 0.07944(15)
F4_6 F 0.24748(9) 0.49146(11) 0.27330(13)
F5_6 F 0.31354(7) 0.50618(8) 0.15615(10)
C5_6 C 0.41929(11) 0.46608(11) 0.14980(14)
C6_6 C 0.38108(12) 0.45529(12) 0.21383(15)
C7_6 C 0.33082(12) 0.47656(13) 0.21483(16)
C8_7 C 0.29599(14) 0.46924(15) 0.27478(19)
C9_7 C 0.31169(15) 0.43963(16) 0.33538(18)
C10_7 C 0.36093(16) 0.41701(15) 0.33668(17)
C11_7 C 0.39515(13) 0.42513(13) 0.27620(17)
C12_6 C 0.46117(10) 0.50105(11) 0.16605(14)
C13_6 C 0.47083(12) 0.52642(12) 0.23842(15)
H3_7 H 0.4509 0.5221 0.2825
C14_6 C 0.51410(11) 0.55756(12) 0.23027(15)
H4_7 H 0.5300 0.5782 0.2678
C15_6 C 0.53122(11) 0.55275(11) 0.15202(15)
C16_6 C 0.57375(11) 0.58014(11) 0.11904(15)
C17_6 C 0.60743(11) 0.61477(12) 0.16957(15)
C18_6 C 0.59576(13) 0.66755(13) 0.1807(2)
H5_6 H 0.5648 0.6822 0.1606
C19_6 C 0.63069(13) 0.69873(13) 0.22231(19)
H6_6 H 0.6217 0.7342 0.2298
C20_6 C 0.68627(14) 0.63002(13) 0.24245(18)
H7_7 H 0.7175 0.6166 0.2633
C21_6 C 0.65325(13) 0.59540(13) 0.20311(17)
H8_6 H 0.6619 0.5595 0.1993
C22_6 C 0.58856(11) 0.57866(11) 0.04199(15)
C23_6 C 0.63374(12) 0.60624(12) 0.01002(16)
H9_6 H 0.6570 0.6287 0.0359
C1_6 C 0.41144(11) 0.42134(11) 0.95801(15)
C2_6 C 0.36626(12) 0.39376(12) 0.98998(16)
H1_6 H 0.3430 0.3713 0.9641
F6_4 F 0.55631(8) 0.59795(9) 0.72084(11)
N4_5 N 0.56326(9) 0.55039(9) 0.98595(12)
N5_6 N 0.50122(9) 0.48245(9) 0.88529(12)
F7_4 F 0.62339(10) 0.61242(11) 0.60372(12)
C24_5 C 0.63593(12) 0.59332(12) 0.93535(16)
H10_5 H 0.6611 0.6049 0.9003
N6_4 N 0.32438(10) 0.31830(10) 0.74805(13)
F8_4 F 0.72214(10) 0.56862(12) 0.60614(12)
C25_5 C 0.59184(11) 0.55826(11) 0.92056(15)
F9_4 F 0.75252(9) 0.50854(11) 0.72670(13)
F10_6 F 0.68646(7) 0.49382(8) 0.84385(10)
C26_5 C 0.58071(11) 0.53392(11) 0.85020(14)
C27_5 C 0.61892(12) 0.54471(12) 0.78617(15)
C28_5 C 0.66918(12) 0.52344(13) 0.78517(16)
C29_4 C 0.70401(14) 0.53076(15) 0.72522(19)
C30_4 C 0.68831(15) 0.56037(16) 0.66462(18)
C31_4 C 0.63907(16) 0.58299(15) 0.66332(17)
C32_4 C 0.60485(13) 0.57487(13) 0.72380(17)
C33_6 C 0.53883(10) 0.49895(11) 0.83395(14)
C34_6 C 0.52917(12) 0.47358(12) 0.76158(15)
H11_5 H 0.5491 0.4779 0.7175
C35_6 C 0.48590(11) 0.44244(12) 0.76973(15)
H12_5 H 0.4700 0.4218 0.7322
C36_6 C 0.46878(11) 0.44725(11) 0.84798(15)
C37_6 C 0.42625(11) 0.41986(11) 0.88096(15)
C38_6 C 0.39257(11) 0.38523(12) 0.83043(15)
C39_6 C 0.40424(13) 0.33245(13) 0.8193(2)
H13_6 H 0.4352 0.3178 0.8394
C40_6 C 0.36931(13) 0.30127(13) 0.77769(19)
H14_6 H 0.3783 0.2658 0.7702
C41_6 C 0.31373(14) 0.36998(13) 0.75755(18)
H15_5 H 0.2825 0.3834 0.7367
C42_6 C 0.34675(13) 0.40460(13) 0.79689(17)
H16_6 H 0.3381 0.4405 0.8007
N8_3 N 0.43170(10) 0.57438(10) 0.99805(13)
N1_7 N 0.19961(9) 0.31326(9) 0.76405(12)
C1_7 C 0.17134(11) 0.33856(11) 0.70801(15)
N2_7 N 0.26755(9) 0.25122(9) 0.86471(12)
C2_7 C 0.14376(12) 0.38374(12) 0.73998(16)
H1_7 H 0.1213 0.4070 0.7141
C3_7 C 0.15668(12) 0.38593(12) 0.81465(16)
H2_7 H 0.1451 0.4111 0.8497
C4_7 C 0.19174(11) 0.34184(11) 0.82944(15)
F5_7 F 0.25618(8) 0.43646(7) 0.90615(10)
C5_7 C 0.21608(11) 0.33071(11) 0.89980(14)
C6_7 C 0.20529(12) 0.36892(12) 0.96383(15)
C7_7 C 0.22656(13) 0.41918(12) 0.96483(16)
C12_7 C 0.25105(11) 0.28883(10) 0.91605(14)
C13_7 C 0.27642(12) 0.27917(12) 0.98842(15)
C14_7 C 0.30756(12) 0.23590(11) 0.98027(15)
C15_7 C 0.30275(11) 0.21878(11) 0.90202(15)
C16_7 C 0.33014(11) 0.17625(11) 0.86904(15)
C17_7 C 0.36477(12) 0.14257(11) 0.91957(15)
C18_7 C 0.41755(13) 0.15424(13) 0.9307(2)
H5_7 H 0.4322 0.1852 0.9106
C19_7 C 0.44873(13) 0.11931(13) 0.97231(19)
H6_7 H 0.4842 0.1283 0.9798
C20_7 C 0.38002(13) 0.06373(14) 0.99245(18)
C21_7 C 0.34540(13) 0.09675(13) 0.95311(17)
H8_7 H 0.3095 0.0881 0.9493
F6_5 F 0.34795(9) 0.19369(8) 0.47084(11)
N4_6 N 0.30039(9) 0.18674(9) 0.73595(12)
C22_7 C 0.32866(11) 0.16144(11) 0.79199(15)
N5_7 N 0.23245(9) 0.24878(9) 0.63529(12)
C23_7 C 0.35624(12) 0.11626(12) 0.76002(16)
H9_7 H 0.3787 0.0930 0.7859
F7_5 F 0.36242(11) 0.12661(10) 0.35372(12)
C24_6 C 0.34332(12) 0.11407(12) 0.68535(16)
H10_6 H 0.3549 0.0889 0.6503
F8_5 F 0.31862(12) 0.02786(10) 0.35614(12)
C25_6 C 0.30826(11) 0.15816(11) 0.67056(15)
F10_7 F 0.24382(8) 0.06354(7) 0.59385(10)
C26_6 C 0.28392(11) 0.16929(11) 0.60020(14)
C27_6 C 0.29471(12) 0.13108(12) 0.53617(15)
C28_6 C 0.27344(13) 0.08082(12) 0.53517(16)
C29_5 C 0.28076(15) 0.04599(14) 0.47522(19)
C30_5 C 0.31037(16) 0.06169(15) 0.41462(18)
C31_5 C 0.33299(15) 0.11093(16) 0.41332(17)
C32_5 C 0.32487(13) 0.14515(13) 0.47380(17)
C33_7 C 0.24895(11) 0.21117(10) 0.58395(14)
C34_7 C 0.22358(12) 0.22083(12) 0.51158(15)
H11_6 H 0.2279 0.2009 0.4675
C35_7 C 0.19244(12) 0.26410(11) 0.51973(15)
H12_6 H 0.1718 0.2800 0.4822
C36_7 C 0.19725(11) 0.28122(11) 0.59798(15)
C37_7 C 0.16986(11) 0.32375(11) 0.63096(15)
C38_7 C 0.13523(12) 0.35743(11) 0.58043(15)
C39_7 C 0.08245(13) 0.34576(13) 0.5693(2)
H13_7 H 0.0678 0.3148 0.5894
C40_7 C 0.05127(13) 0.38069(13) 0.52769(19)
H14_7 H 0.0158 0.3717 0.5202
C41_7 C 0.11998(13) 0.43627(14) 0.50755(18)
H15_6 H 0.1334 0.4675 0.4867
C42_7 C 0.15460(13) 0.40325(13) 0.54689(17)
H16_7 H 0.1905 0.4119 0.5507
F1_8 F 0.34795(9) 0.69369(8) 0.52916(11)
N1_8 N 0.30039(9) 0.68674(9) 0.26405(12)
C1_8 C 0.32866(11) 0.66144(11) 0.20801(15)
N2_8 N 0.23245(9) 0.74878(9) 0.36471(12)
C2_8 C 0.35624(12) 0.61626(12) 0.23998(16)
H1_8 H 0.3787 0.5930 0.2141
F2_8 F 0.36242(11) 0.62661(10) 0.64628(12)
C3_8 C 0.34332(12) 0.61407(12) 0.31465(16)
H2_8 H 0.3549 0.5889 0.3497
F3_8 F 0.31862(12) 0.52786(10) 0.64386(12)
C4_8 C 0.30826(11) 0.65816(11) 0.32944(15)
F4_7 F 0.25854(11) 0.49748(9) 0.52330(13)
F5_8 F 0.24382(8) 0.56354(7) 0.40615(10)
C5_8 C 0.28392(11) 0.66929(11) 0.39980(14)
C6_8 C 0.29471(12) 0.63108(12) 0.46383(15)
C7_8 C 0.27344(13) 0.58082(12) 0.46483(16)
C8_8 C 0.28076(15) 0.54599(14) 0.52478(19)
C9_8 C 0.31037(16) 0.56169(15) 0.58538(18)
C10_8 C 0.33299(15) 0.61093(16) 0.58668(17)
C11_8 C 0.32487(13) 0.64515(13) 0.52620(17)
C12_8 C 0.24895(11) 0.71117(10) 0.41605(14)
C13_8 C 0.22358(12) 0.72083(12) 0.48842(15)
H3_8 H 0.2279 0.7009 0.5325
C14_8 C 0.19244(12) 0.76410(11) 0.48027(15)
H4_8 H 0.1718 0.7800 0.5178
C15_8 C 0.19725(11) 0.78122(11) 0.40202(15)
C16_8 C 0.16986(11) 0.82375(11) 0.36904(15)
C17_8 C 0.13523(12) 0.85743(11) 0.41957(15)
C18_8 C 0.08245(13) 0.84576(13) 0.4307(2)
H5_8 H 0.0678 0.8148 0.4106
C19_8 C 0.05127(13) 0.88069(13) 0.47231(19)
H6_8 H 0.0158 0.8717 0.4798
C20_8 C 0.11998(13) 0.93627(14) 0.49245(18)
H7_8 H 0.1334 0.9675 0.5133
C21_8 C 0.15460(13) 0.90325(13) 0.45311(17)
H8_8 H 0.1905 0.9119 0.4493
N4_7 N 0.19961(9) 0.81326(9) 0.23595(12)
C22_8 C 0.17134(11) 0.83856(11) 0.29199(15)
N5_8 N 0.26755(9) 0.75122(9) 0.13529(12)
C23_8 C 0.14376(12) 0.88374(12) 0.26002(16)
H9_8 H 0.1213 0.9070 0.2859
C24_7 C 0.15668(12) 0.88593(12) 0.18535(16)
H10_7 H 0.1451 0.9111 0.1503
C25_7 C 0.19174(11) 0.84184(11) 0.17056(15)
F10_8 F 0.25618(8) 0.93646(7) 0.09385(10)
C26_7 C 0.21608(11) 0.83071(11) 0.10020(14)
C27_7 C 0.20529(12) 0.86892(12) 0.03617(15)
C28_7 C 0.22656(13) 0.91918(12) 0.03517(16)
C33_8 C 0.25105(11) 0.78883(10) 0.08395(14)
C34_8 C 0.27642(12) 0.77917(12) 0.01158(15)
C35_8 C 0.30756(12) 0.73590(11) 0.01973(15)
C36_8 C 0.30275(11) 0.71878(11) 0.09798(15)
C37_8 C 0.33014(11) 0.67625(11) 0.13096(15)
C38_8 C 0.36477(12) 0.64257(11) 0.08043(15)
C39_8 C 0.41755(13) 0.65424(13) 0.0693(2)
H13_8 H 0.4322 0.6852 0.0894
C40_8 C 0.44873(13) 0.61931(13) 0.02769(19)
H14_8 H 0.4842 0.6283 0.0202
C41_8 C 0.38002(13) 0.56373(14) 0.00755(18)
C42_8 C 0.34540(13) 0.59675(13) 0.04689(17)
H16_8 H 0.3095 0.5881 0.0507
F6_6 F 0.15205(9) 0.80631(8) 0.97084(11)
F7_6 F 0.13758(11) 0.87339(10) 0.85372(12)
F8_6 F 0.18138(12) 0.97214(10) 0.85614(12)
C29_6 C 0.21924(15) 0.95401(14) 0.97522(19)
C30_6 C 0.18963(16) 0.93831(15) 0.91462(18)
C31_6 C 0.16701(15) 0.88907(16) 0.91332(17)
C32_6 C 0.17513(13) 0.85485(13) 0.97380(17)
H11_7 H 0.2721 0.7991 0.9675
H12_7 H 0.3282 0.7200 0.9822
H15_7 H 0.3666 0.5325 0.9867
Zn1_8 Zn 0.5000 1.0000 1.0000
F6_7 F 0.44369(8) 0.90205(9) 0.72084(11)
N4_8 N 0.43674(9) 0.94961(9) 0.98595(12)
F7_7 F 0.37661(10) 0.88758(11) 0.60372(12)
C24_8 C 0.36407(12) 0.90668(12) 0.93535(16)
H10_8 H 0.3389 0.8951 0.9003
F8_7 F 0.27786(10) 0.93138(12) 0.60614(12)
C25_8 C 0.40816(11) 0.94174(11) 0.92056(15)
F9_5 F 0.24748(9) 0.99146(11) 0.72670(13)
C26_8 C 0.41929(11) 0.96608(11) 0.85020(14)
C27_8 C 0.38108(12) 0.95529(12) 0.78617(15)
C28_8 C 0.33082(12) 0.97656(13) 0.78517(16)
C29_7 C 0.29599(14) 0.96924(15) 0.72522(19)
C30_7 C 0.31169(15) 0.93963(16) 0.66462(18)
C31_7 C 0.36093(16) 0.91701(15) 0.66332(17)
C32_7 C 0.39515(13) 0.92513(13) 0.72380(17)
N8_4 N 0.56830(10) 0.92562(10) 0.99805(13)
F6_8 F 0.84795(9) 0.69369(8) 0.97084(11)
F7_8 F 0.86242(11) 0.62661(10) 0.85372(12)
F8_8 F 0.81862(12) 0.52786(10) 0.85614(12)
F9_6 F 0.75854(11) 0.49748(9) 0.97670(13)
C29_8 C 0.78076(15) 0.54599(14) 0.97522(19)
C30_8 C 0.81037(16) 0.56169(15) 0.91462(18)
C31_8 C 0.83299(15) 0.61093(16) 0.91332(17)
C32_8 C 0.82487(13) 0.64515(13) 0.97380(17)
H11_8 H 0.7279 0.7009 0.9675
H12_8 H 0.6718 0.7800 0.9822
H15_8 H 0.6334 0.9675 0.9867
F9_7 F 0.25854(11) 0.99748(9) 0.47670(13)
F4_8 F 0.75854(11) 0.99748(9) 0.02330(13)
F9_8 F 0.24146(11) 0.00252(9) 0.97670(13)
loop_
_geom_bond_atom_site_label_1
_geom_bond_atom_site_label_2
_geom_bond_site_symmetry_1
_geom_bond_site_symmetry_2
Zn1 N1 1_555 1_555
F1 C11 1_555 1_555
F2 C10 1_555 1_555
H2 C3 1_555 1_555
F3 C9 1_555 1_555
C4 N1 1_555 1_555
F4 C8 1_555 1_555
C5 C4 1_555 1_555
C6 C5 1_555 1_555
C7 C6 1_555 1_555
C8 C7 1_555 1_555
C9 C8 1_555 1_555
C10 C9 1_555 1_555
C11 C6 1_555 1_555
N7 Zn1 1_555 1_555
C3 C4 1_555 1_555
C10 C11 1_555 1_555
F1_2 C11_2 1_555 1_555
F2_2 C10_2 1_555 1_555
F3_2 C9_2 1_555 1_555
F4_3 C8_2 1_555 1_555
C9_2 C8_2 1_555 1_555
C10_2 C9_2 1_555 1_555
C10_2 C11_2 1_555 1_555
C1 C2 1_555 1_555
C2 H1 1_555 1_555
N5 Zn1_2 1_555 1_555
N6 C40 1_555 1_555
C33 N5 1_555 1_555
C34 C33 1_555 1_555
H11 C34 1_555 1_555
C35 C34 1_555 1_555
H12 C35 1_555 1_555
C36 N5 1_555 1_555
C37 C1 1_555 1_555
C38 C37 1_555 1_555
C39 C38 1_555 1_555
H13 C39 1_555 1_555
C40 C39 1_555 1_555
H14 C40 1_555 1_555
C41 N6 1_555 1_555
H15 C41 1_555 1_555
C42 C38 1_555 1_555
H16 C42 1_555 1_555
Zn2 N6 1_555 1_555
C35 C36 1_555 1_555
C36 C37 1_555 1_555
C41 C42 1_555 1_555
N2 Zn1_3 1_555 1_555
N3 C19 1_555 1_555
C12 N2 1_555 1_555
C13 C12 1_555 1_555
H3_2 C13 1_555 1_555
C14 C13 1_555 1_555
H4_2 C14 1_555 1_555
C15 N2 1_555 1_555
C16 C15 1_555 1_555
C17 C16 1_555 1_555
C18 C17 1_555 1_555
H5 C18 1_555 1_555
C19 C18 1_555 1_555
H6 C19 1_555 1_555
C20 N3 1_555 1_555
H7_2 C20 1_555 1_555
C21 C17 1_555 1_555
H8 C21 1_555 1_555
C22 C16 1_555 1_555
C23 C22 1_555 1_555
H9 C23 1_555 1_555
Zn3 N3 1_555 1_555
C14 C15 1_555 1_555
C20 C21 1_555 1_555
N3_2 C19_2 1_555 1_555
H4_3 C14_2 1_555 1_555
C16_2 C15_2 1_555 1_555
C17_2 C16_2 1_555 1_555
C18_2 C17_2 1_555 1_555
H5_2 C18_2 1_555 1_555
C19_2 C18_2 1_555 1_555
H6_2 C19_2 1_555 1_555
C20_2 N3_2 1_555 1_555
H7_3 C20_2 1_555 1_555
C21_2 C17_2 1_555 1_555
H8_2 C21_2 1_555 1_555
F6 C32 1_555 1_555
N4 Zn1_4 1_555 1_555
C22_2 C16_2 1_555 1_555
C23_2 C22_2 1_555 1_555
H9_2 C23_2 1_555 1_555
F7 C31 1_555 1_555
C24 C23_2 1_555 1_555
H10 C24 1_555 1_555
F8 C30 1_555 1_555
C25 N4 1_555 1_555
F9 C29 1_555 1_555
C26 C25 1_555 1_555
C27 C26 1_555 1_555
C28 C27 1_555 1_555
C29 C28 1_555 1_555
C30 C29 1_555 1_555
C31 C30 1_555 1_555
C32 C27 1_555 1_555
Zn3_2 N3_2 1_555 1_555
C14_2 C15_2 1_555 1_555
C20_2 C21_2 1_555 1_555
N4 C22_2 1_555 1_555
C24 C25 1_555 1_555
C31 C32 1_555 1_555
N5_2 Zn1_5 1_555 1_555
C33_2 N5_2 1_555 1_555
C34_2 C33_2 1_555 1_555
H11_2 C34_2 1_555 1_555
N7_2 Zn1_5 1_555 1_555
N2_2 Zn1_6 1_555 1_555
C12_2 N2_2 1_555 1_555
C13_2 C12_2 1_555 1_555
H3_3 C13_2 1_555 1_555
N8 Zn1_6 1_555 1_555
Zn1_7 N1_2 1_555 1_555
F1_3 C11_3 1_555 1_555
N1_2 C1_2 1_555 1_555
C1_2 C2_2 1_555 1_555
C2_2 H1_2 1_555 1_555
F2_3 C10_3 1_555 1_555
C3_2 C2_2 1_555 1_555
H2_2 C3_2 1_555 1_555
F3_3 C9_3 1_555 1_555
C4_2 N1_2 1_555 1_555
F4_4 C8_3 1_555 1_555
C5_2 C4_2 1_555 1_555
C6_2 C5_2 1_555 1_555
C7_2 C6_2 1_555 1_555
C8_3 C7_2 1_555 1_555
C9_3 C8_3 1_555 1_555
C10_3 C9_3 1_555 1_555
C11_3 C6_2 1_555 1_555
N6_2 C40_2 1_555 1_555
H12_2 C35_2 1_555 1_555
C37_2 C1_2 1_555 1_555
C38_2 C37_2 1_555 1_555
C39_2 C38_2 1_555 1_555
H13_2 C39_2 1_555 1_555
C40_2 C39_2 1_555 1_555
H14_2 C40_2 1_555 1_555
C41_2 N6_2 1_555 1_555
H15_2 C41_2 1_555 1_555
C42_2 C38_2 1_555 1_555
H16_2 C42_2 1_555 1_555
Zn2_2 N6_2 1_555 1_555
C3_2 C4_2 1_555 1_555
C10_3 C11_3 1_555 1_555
C35_2 C36_2 1_555 1_555
C36_2 C37_2 1_555 1_555
C41_2 C42_2 1_555 1_555
Zn2_2 N1_3 1_555 1_555
F1_4 C11_4 1_555 1_555
N1_3 C1_3 1_555 1_555
C1_3 C2_3 1_555 1_555
N2_3 Zn2_2 1_555 1_555
C2_3 H1_3 1_555 1_555
F2_4 C10_4 1_555 1_555
C3_3 C2_3 1_555 1_555
H2_3 C3_3 1_555 1_555
N3_3 C19_3 1_555 1_555
F3_4 C9_4 1_555 1_555
C4_3 N1_3 1_555 1_555
F5_3 C7_3 1_555 1_555
C5_3 C4_3 1_555 1_555
C6_3 C5_3 1_555 1_555
C7_3 C6_3 1_555 1_555
C8_4 C7_3 1_555 1_555
C9_4 C8_4 1_555 1_555
C10_4 C9_4 1_555 1_555
C11_4 C6_3 1_555 1_555
C12_3 N2_3 1_555 1_555
C13_3 C12_3 1_555 1_555
H3_4 C13_3 1_555 1_555
C14_3 C13_3 1_555 1_555
H4_4 C14_3 1_555 1_555
C15_3 N2_3 1_555 1_555
C16_3 C15_3 1_555 1_555
C17_3 C16_3 1_555 1_555
C18_3 C17_3 1_555 1_555
H5_3 C18_3 1_555 1_555
C19_3 C18_3 1_555 1_555
H6_3 C19_3 1_555 1_555
C20_3 N3_3 1_555 1_555
H7_4 C20_3 1_555 1_555
C21_3 C17_3 1_555 1_555
H8_3 C21_3 1_555 1_555
N4_2 Zn2_2 1_555 1_555
C22_3 C16_3 1_555 1_555
N5_3 Zn2_2 1_555 1_555
C23_3 C22_3 1_555 1_555
H9_3 C23_3 1_555 1_555
C24_2 C23_3 1_555 1_555
H10_2 C24_2 1_555 1_555
C25_2 N4_2 1_555 1_555
F10_3 C28_2 1_555 1_555
C26_2 C25_2 1_555 1_555
C27_2 C26_2 1_555 1_555
C28_2 C27_2 1_555 1_555
C33_3 N5_3 1_555 1_555
C34_3 C33_3 1_555 1_555
C35_3 C34_3 1_555 1_555
C36_3 N5_3 1_555 1_555
C37_3 C1_3 1_555 1_555
C38_3 C37_3 1_555 1_555
C39_3 C38_3 1_555 1_555
H13_3 C39_3 1_555 1_555
C40_3 C39_3 1_555 1_555
H14_3 C40_3 1_555 1_555
C42_3 C38_3 1_555 1_555
H16_3 C42_3 1_555 1_555
Zn3_4 N3_3 1_555 1_555
N7_3 Zn2_2 1_555 1_555
C3_3 C4_3 1_555 1_555
C5_3 C12_3 1_555 1_555
C10_4 C11_4 1_555 1_555
C14_3 C15_3 1_555 1_555
C20_3 C21_3 1_555 1_555
N4_2 C22_3 1_555 1_555
C24_2 C25_2 1_555 1_555
C26_2 C33_3 1_555 1_555
C35_3 C36_3 1_555 1_555
C36_3 C37_3 1_555 1_555
C41_3 C42_3 1_555 1_555
F1_5 C11_5 1_555 1_555
F2_5 C10_5 1_555 1_555
F3_5 C9_5 1_555 1_555
C9_5 C8_5 1_555 1_555
C10_5 C9_5 1_555 1_555
Zn3_5 N3_4 1_555 1_555
C10_5 C11_5 1_555 1_555
Zn2 N1_4 1_555 1_555
N1_4 C1_4 1_555 1_555
C1_4 C2_4 1_555 1_555
N2_4 Zn2 1_555 1_555
C2_4 H1_4 1_555 1_555
C3_4 C2_4 1_555 1_555
H2_4 C3_4 1_555 1_555
C4_4 N1_4 1_555 1_555
F5_4 C7_4 1_555 1_555
C5_4 C4_4 1_555 1_555
C6_4 C5_4 1_555 1_555
C7_4 C6_4 1_555 1_555
C12_4 N2_4 1_555 1_555
C13_4 C12_4 1_555 1_555
C14_4 C13_4 1_555 1_555
C15_4 N2_4 1_555 1_555
C16_4 C15_4 1_555 1_555
C17_4 C16_4 1_555 1_555
C18_4 C17_4 1_555 1_555
H5_4 C18_4 1_555 1_555
C19_4 C18_4 1_555 1_555
H6_4 C19_4 1_555 1_555
C21_4 C17_4 1_555 1_555
H8_4 C21_4 1_555 1_555
F6_2 C32_2 1_555 1_555
N4_3 Zn2 1_555 1_555
C22_4 C16_4 1_555 1_555
N5_4 Zn2 1_555 1_555
C23_4 C22_4 1_555 1_555
H9_4 C23_4 1_555 1_555
F7_2 C31_2 1_555 1_555
C24_3 C23_4 1_555 1_555
H10_3 C24_3 1_555 1_555
N8 C40_4 1_555 1_555
F8_2 C30_2 1_555 1_555
C25_3 N4_3 1_555 1_555
F9_2 C29_2 1_555 1_555
F10_4 C28_3 1_555 1_555
C26_3 C25_3 1_555 1_555
C27_3 C26_3 1_555 1_555
C28_3 C27_3 1_555 1_555
C29_2 C28_3 1_555 1_555
C30_2 C29_2 1_555 1_555
C31_2 C30_2 1_555 1_555
C32_2 C27_3 1_555 1_555
C33_4 N5_4 1_555 1_555
C34_4 C33_4 1_555 1_555
H11_3 C34_4 1_555 1_555
C35_4 C34_4 1_555 1_555
H12_3 C35_4 1_555 1_555
C36_4 N5_4 1_555 1_555
C37_4 C1_4 1_555 1_555
C38_4 C37_4 1_555 1_555
C39_4 C38_4 1_555 1_555
H13_4 C39_4 1_555 1_555
C40_4 C39_4 1_555 1_555
H14_4 C40_4 1_555 1_555
C41_4 N8 1_555 1_555
H15_3 C41_4 1_555 1_555
C42_4 C38_4 1_555 1_555
H16_4 C42_4 1_555 1_555
N7_4 Zn2 1_555 1_555
C3_4 C4_4 1_555 1_555
C5_4 C12_4 1_555 1_555
C14_4 C15_4 1_555 1_555
C20_4 C21_4 1_555 1_555
N4_3 C22_4 1_555 1_555
C24_3 C25_3 1_555 1_555
C26_3 C33_4 1_555 1_555
C31_2 C32_2 1_555 1_555
C35_4 C36_4 1_555 1_555
C36_4 C37_4 1_555 1_555
C41_4 C42_4 1_555 1_555
Zn3_3 N1_5 1_555 1_555
F1_6 C11_6 1_555 1_555
N1_5 C1_5 1_555 1_555
C1_5 C2_5 1_555 1_555
N2_5 Zn3_3 1_555 1_555
C2_5 H1_5 1_555 1_555
F2_6 C10_6 1_555 1_555
C3_5 C2_5 1_555 1_555
H2_5 C3_5 1_555 1_555
F3_6 C9_6 1_555 1_555
C4_5 N1_5 1_555 1_555
F4_5 C8_6 1_555 1_555
F5_5 C7_5 1_555 1_555
C5_5 C4_5 1_555 1_555
C6_5 C5_5 1_555 1_555
C7_5 C6_5 1_555 1_555
C8_6 C7_5 1_555 1_555
C9_6 C8_6 1_555 1_555
C10_6 C9_6 1_555 1_555
C11_6 C6_5 1_555 1_555
C12_5 N2_5 1_555 1_555
C13_5 C12_5 1_555 1_555
H3_6 C13_5 1_555 1_555
N6_3 C40_5 1_555 1_555
H12_4 C35_5 1_555 1_555
C37_5 C1_5 1_555 1_555
C38_5 C37_5 1_555 1_555
C39_5 C38_5 1_555 1_555
H13_5 C39_5 1_555 1_555
C40_5 C39_5 1_555 1_555
H14_5 C40_5 1_555 1_555
C41_5 N6_3 1_555 1_555
H15_4 C41_5 1_555 1_555
C42_5 C38_5 1_555 1_555
H16_5 C42_5 1_555 1_555
Zn3 N6_3 1_555 1_555
N8_2 Zn3_3 1_555 1_555
C3_5 C4_5 1_555 1_555
C5_5 C12_5 1_555 1_555
C10_6 C11_6 1_555 1_555
C35_5 C36_5 1_555 1_555
C36_5 C37_5 1_555 1_555
C41_5 C42_5 1_555 1_555
N7_4 C19_5 1_555 1_555
H4_6 C14_5 1_555 1_555
C16_5 C15_5 1_555 1_555
C17_5 C16_5 1_555 1_555
C18_5 C17_5 1_555 1_555
H5_5 C18_5 1_555 1_555
C19_5 C18_5 1_555 1_555
H6_5 C19_5 1_555 1_555
C20_5 N7_4 1_555 1_555
H7_6 C20_5 1_555 1_555
C21_5 C17_5 1_555 1_555
H8_5 C21_5 1_555 1_555
F6_3 C32_3 1_555 1_555
N4_4 Zn3_4 1_555 1_555
C22_5 C16_5 1_555 1_555
N5_5 Zn3_4 1_555 1_555
C23_5 C22_5 1_555 1_555
H9_5 C23_5 1_555 1_555
F7_3 C31_3 1_555 1_555
C24_4 C23_5 1_555 1_555
H10_4 C24_4 1_555 1_555
F8_3 C30_3 1_555 1_555
C25_4 N4_4 1_555 1_555
F9_3 C29_3 1_555 1_555
F10_5 C28_4 1_555 1_555
C26_4 C25_4 1_555 1_555
C27_4 C26_4 1_555 1_555
C28_4 C27_4 1_555 1_555
C29_3 C28_4 1_555 1_555
C30_3 C29_3 1_555 1_555
C31_3 C30_3 1_555 1_555
C32_3 C27_4 1_555 1_555
C33_5 N5_5 1_555 1_555
C34_5 C33_5 1_555 1_555
H11_4 C34_5 1_555 1_555
C14_5 C15_5 1_555 1_555
C20_5 C21_5 1_555 1_555
N4_4 C22_5 1_555 1_555
C24_4 C25_4 1_555 1_555
C26_4 C33_5 1_555 1_555
C31_3 C32_3 1_555 1_555
Zn3_5 N1_6 1_555 1_555
F1_7 C11_7 1_555 1_555
N2_6 Zn3_5 1_555 1_555
F2_7 C10_7 1_555 1_555
H2_6 C3_6 1_555 1_555
N7_3 C19_6 1_555 1_555
F3_7 C9_7 1_555 1_555
C4_6 N1_6 1_555 1_555
F4_6 C8_7 1_555 1_555
F5_6 C7_6 1_555 1_555
C5_6 C4_6 1_555 1_555
C6_6 C5_6 1_555 1_555
C7_6 C6_6 1_555 1_555
C8_7 C7_6 1_555 1_555
C9_7 C8_7 1_555 1_555
C10_7 C9_7 1_555 1_555
C11_7 C6_6 1_555 1_555
C12_6 N2_6 1_555 1_555
C13_6 C12_6 1_555 1_555
H3_7 C13_6 1_555 1_555
C14_6 C13_6 1_555 1_555
H4_7 C14_6 1_555 1_555
C15_6 N2_6 1_555 1_555
C16_6 C15_6 1_555 1_555
C17_6 C16_6 1_555 1_555
C18_6 C17_6 1_555 1_555
H5_6 C18_6 1_555 1_555
C19_6 C18_6 1_555 1_555
H6_6 C19_6 1_555 1_555
C20_6 N7_3 1_555 1_555
H7_7 C20_6 1_555 1_555
C21_6 C17_6 1_555 1_555
H8_6 C21_6 1_555 1_555
C22_6 C16_6 1_555 1_555
C23_6 C22_6 1_555 1_555
H9_6 C23_6 1_555 1_555
C3_6 C4_6 1_555 1_555
C5_6 C12_6 1_555 1_555
C10_7 C11_7 1_555 1_555
C14_6 C15_6 1_555 1_555
C20_6 C21_6 1_555 1_555
C1_6 C2_6 1_555 1_555
C2_6 H1_6 1_555 1_555
F6_4 C32_4 1_555 1_555
N4_5 Zn3_6 1_555 1_555
N5_6 Zn3_6 1_555 1_555
F7_4 C31_4 1_555 1_555
H10_5 C24_5 1_555 1_555
N6_4 C40_6 1_555 1_555
F8_4 C30_4 1_555 1_555
C25_5 N4_5 1_555 1_555
F9_4 C29_4 1_555 1_555
F10_6 C28_5 1_555 1_555
C26_5 C25_5 1_555 1_555
C27_5 C26_5 1_555 1_555
C28_5 C27_5 1_555 1_555
C29_4 C28_5 1_555 1_555
C30_4 C29_4 1_555 1_555
C31_4 C30_4 1_555 1_555
C32_4 C27_5 1_555 1_555
C33_6 N5_6 1_555 1_555
C34_6 C33_6 1_555 1_555
H11_5 C34_6 1_555 1_555
C35_6 C34_6 1_555 1_555
H12_5 C35_6 1_555 1_555
C36_6 N5_6 1_555 1_555
C37_6 C1_6 1_555 1_555
C38_6 C37_6 1_555 1_555
C39_6 C38_6 1_555 1_555
H13_6 C39_6 1_555 1_555
C40_6 C39_6 1_555 1_555
H14_6 C40_6 1_555 1_555
C41_6 N6_4 1_555 1_555
H15_5 C41_6 1_555 1_555
C42_6 C38_6 1_555 1_555
H16_6 C42_6 1_555 1_555
Zn3_2 N6_4 1_555 1_555
N8_3 Zn3_6 1_555 1_555
C24_5 C25_5 1_555 1_555
C26_5 C33_6 1_555 1_555
C31_4 C32_4 1_555 1_555
C35_6 C36_6 1_555 1_555
C36_6 C37_6 1_555 1_555
C41_6 C42_6 1_555 1_555
Zn3_2 N1_7 1_555 1_555
N1_7 C1_7 1_555 1_555
C1_7 C2_7 1_555 1_555
N2_7 Zn3_2 1_555 1_555
C2_7 H1_7 1_555 1_555
C3_7 C2_7 1_555 1_555
H2_7 C3_7 1_555 1_555
C4_7 N1_7 1_555 1_555
F5_7 C7_7 1_555 1_555
C5_7 C4_7 1_555 1_555
C6_7 C5_7 1_555 1_555
C7_7 C6_7 1_555 1_555
C12_7 N2_7 1_555 1_555
C13_7 C12_7 1_555 1_555
C14_7 C13_7 1_555 1_555
C15_7 N2_7 1_555 1_555
C16_7 C15_7 1_555 1_555
C17_7 C16_7 1_555 1_555
C18_7 C17_7 1_555 1_555
H5_7 C18_7 1_555 1_555
C19_7 C18_7 1_555 1_555
H6_7 C19_7 1_555 1_555
C21_7 C17_7 1_555 1_555
H8_7 C21_7 1_555 1_555
F6_5 C32_5 1_555 1_555
N4_6 Zn3_2 1_555 1_555
C22_7 C16_7 1_555 1_555
N5_7 Zn3_2 1_555 1_555
C23_7 C22_7 1_555 1_555
H9_7 C23_7 1_555 1_555
F7_5 C31_5 1_555 1_555
C24_6 C23_7 1_555 1_555
H10_6 C24_6 1_555 1_555
N8_2 C40_7 1_555 1_555
F8_5 C30_5 1_555 1_555
C25_6 N4_6 1_555 1_555
F10_7 C28_6 1_555 1_555
C26_6 C25_6 1_555 1_555
C27_6 C26_6 1_555 1_555
C28_6 C27_6 1_555 1_555
C29_5 C28_6 1_555 1_555
C30_5 C29_5 1_555 1_555
C31_5 C30_5 1_555 1_555
C32_5 C27_6 1_555 1_555
C33_7 N5_7 1_555 1_555
C34_7 C33_7 1_555 1_555
H11_6 C34_7 1_555 1_555
C35_7 C34_7 1_555 1_555
H12_6 C35_7 1_555 1_555
C36_7 N5_7 1_555 1_555
C37_7 C1_7 1_555 1_555
C38_7 C37_7 1_555 1_555
C39_7 C38_7 1_555 1_555
H13_7 C39_7 1_555 1_555
C40_7 C39_7 1_555 1_555
H14_7 C40_7 1_555 1_555
C41_7 N8_2 1_555 1_555
H15_6 C41_7 1_555 1_555
C42_7 C38_7 1_555 1_555
H16_7 C42_7 1_555 1_555
C3_7 C4_7 1_555 1_555
C5_7 C12_7 1_555 1_555
C14_7 C15_7 1_555 1_555
C20_7 C21_7 1_555 1_555
N4_6 C22_7 1_555 1_555
C24_6 C25_6 1_555 1_555
C26_6 C33_7 1_555 1_555
C31_5 C32_5 1_555 1_555
C35_7 C36_7 1_555 1_555
C36_7 C37_7 1_555 1_555
C41_7 C42_7 1_555 1_555
Zn3 N1_8 1_555 1_555
F1_8 C11_8 1_555 1_555
N1_8 C1_8 1_555 1_555
C1_8 C2_8 1_555 1_555
N2_8 Zn3 1_555 1_555
C2_8 H1_8 1_555 1_555
F2_8 C10_8 1_555 1_555
C3_8 C2_8 1_555 1_555
H2_8 C3_8 1_555 1_555
N7_2 C19_8 1_555 1_555
F3_8 C9_8 1_555 1_555
C4_8 N1_8 1_555 1_555
F4_7 C8_8 1_555 1_555
F5_8 C7_8 1_555 1_555
C5_8 C4_8 1_555 1_555
C6_8 C5_8 1_555 1_555
C7_8 C6_8 1_555 1_555
C8_8 C7_8 1_555 1_555
C9_8 C8_8 1_555 1_555
C10_8 C9_8 1_555 1_555
C11_8 C6_8 1_555 1_555
C12_8 N2_8 1_555 1_555
C13_8 C12_8 1_555 1_555
H3_8 C13_8 1_555 1_555
C14_8 C13_8 1_555 1_555
H4_8 C14_8 1_555 1_555
C15_8 N2_8 1_555 1_555
C16_8 C15_8 1_555 1_555
C17_8 C16_8 1_555 1_555
C18_8 C17_8 1_555 1_555
H5_8 C18_8 1_555 1_555
C19_8 C18_8 1_555 1_555
H6_8 C19_8 1_555 1_555
C20_8 N7_2 1_555 1_555
H7_8 C20_8 1_555 1_555
C21_8 C17_8 1_555 1_555
H8_8 C21_8 1_555 1_555
N4_7 Zn3 1_555 1_555
C22_8 C16_8 1_555 1_555
N5_8 Zn3 1_555 1_555
C23_8 C22_8 1_555 1_555
H9_8 C23_8 1_555 1_555
C24_7 C23_8 1_555 1_555
H10_7 C24_7 1_555 1_555
C25_7 N4_7 1_555 1_555
F10_8 C28_7 1_555 1_555
C26_7 C25_7 1_555 1_555
C27_7 C26_7 1_555 1_555
C28_7 C27_7 1_555 1_555
C33_8 N5_8 1_555 1_555
C34_8 C33_8 1_555 1_555
C35_8 C34_8 1_555 1_555
C36_8 N5_8 1_555 1_555
C37_8 C1_8 1_555 1_555
C38_8 C37_8 1_555 1_555
C39_8 C38_8 1_555 1_555
H13_8 C39_8 1_555 1_555
C40_8 C39_8 1_555 1_555
H14_8 C40_8 1_555 1_555
C42_8 C38_8 1_555 1_555
H16_8 C42_8 1_555 1_555
C3_8 C4_8 1_555 1_555
C5_8 C12_8 1_555 1_555
C10_8 C11_8 1_555 1_555
C14_8 C15_8 1_555 1_555
C20_8 C21_8 1_555 1_555
N4_7 C22_8 1_555 1_555
C24_7 C25_7 1_555 1_555
C26_7 C33_8 1_555 1_555
C35_8 C36_8 1_555 1_555
C36_8 C37_8 1_555 1_555
C41_8 C42_8 1_555 1_555
F6_6 C32_6 1_555 1_555
F7_6 C31_6 1_555 1_555
F8_6 C30_6 1_555 1_555
C30_6 C29_6 1_555 1_555
C31_6 C30_6 1_555 1_555
C31_6 C32_6 1_555 1_555
F6_7 C32_7 1_555 1_555
N4_8 Zn1_8 1_555 1_555
F7_7 C31_7 1_555 1_555
H10_8 C24_8 1_555 1_555
F8_7 C30_7 1_555 1_555
C25_8 N4_8 1_555 1_555
F9_5 C29_7 1_555 1_555
C26_8 C25_8 1_555 1_555
C27_8 C26_8 1_555 1_555
C28_8 C27_8 1_555 1_555
C29_7 C28_8 1_555 1_555
C30_7 C29_7 1_555 1_555
C31_7 C30_7 1_555 1_555
C32_7 C27_8 1_555 1_555
N8_4 Zn1_8 1_555 1_555
C24_8 C25_8 1_555 1_555
C31_7 C32_7 1_555 1_555
F6_8 C32_8 1_555 1_555
F7_8 C31_8 1_555 1_555
F8_8 C30_8 1_555 1_555
F9_6 C29_8 1_555 1_555
C30_8 C29_8 1_555 1_555
C31_8 C30_8 1_555 1_555
C31_8 C32_8 1_555 1_555

#END
