
###############################################################################
#
# This file contains modified crystal structure data generated from the
# MOF subset of the Cambridge Structural Database (CSD) v543 
# hosted by the Cambridge Crystallographic Data Centre (CCDC).
#
# This work is licensed under the Creative Commons
# Attribution-NonCommercial-ShareAlike 4.0 International License.
# To view a copy of this license, visit
# http://creativecommons.org/licenses/by-nc-sa/4.0/
# or send a letter to
# Creative Commons, PO Box 1866, Mountain View, CA 94042, USA.
#
# CIF created using the CSD Python API on 29 September 2022
# The structure has been converted into the P1 space group
# The structure has a 3D framework
# The original CSD entry YIJTAP is in the monoclinic crystal system
# The framework has been calculated to contain at least 10.0% void space
# The void calculation uses a probe of radius 1.32A, grid spacing 0.4
#
###############################################################################

data_YIJTAP
_chemical_formula_moiety         '(C164 H176 Co8 N32 O40)n'
_symmetry_cell_setting           triclinic
_symmetry_space_group_name_H-M   'P 1'
_symmetry_Int_Tables_number      1
_space_group_name_Hall           'P 1'
loop_
_symmetry_equiv_pos_site_id
_symmetry_equiv_pos_as_xyz
1 x,y,z
_cell_length_a                   17.7303(9)
_cell_length_b                   17.0357(9)
_cell_length_c                   18.0262(9)
_cell_angle_alpha                90
_cell_angle_beta                 109.0620(10)
_cell_angle_gamma                90
_cell_volume                     5146.22
loop_
_atom_site_label
_atom_site_type_symbol
_atom_site_fract_x
_atom_site_fract_y
_atom_site_fract_z
Co1 Co 0.22754(4) 0.31692(3) 0.26952(4)
O2 O 0.1086(2) 0.3866(2) 0.30008(19)
O3 O 0.2066(2) 0.3116(2) 0.37164(19)
O4 O 0.2237(2) 0.2387(2) 0.6437(2)
O8 O 0.1179(2) 0.2538(2) 0.67945(18)
N1 N 0.3261(3) 0.2466(3) 0.3060(3)
C1 C 0.1084(3) 0.3485(3) 0.4272(3)
C2 C 0.1475(3) 0.3097(2) 0.4972(3)
H1 H 0.1970 0.2867 0.5046
C5 C 0.1133(3) 0.3053(3) 0.5552(3)
C7 C 0.1426(3) 0.3500(3) 0.3616(3)
C8 C 0.1551(3) 0.2631(3) 0.6295(3)
C10 C 0.0346(3) 0.3827(3) 0.4166(3)
H4 H 0.0089 0.4096 0.3703
C14 C 0.0378(3) 0.3382(3) 0.5435(3)
H10 H 0.0138 0.3339 0.5821
C22 C 0.3575(4) 0.2171(4) 0.3795(4)
H17 H 0.3374 0.2247 0.4205
C23 C 0.3714(5) 0.2206(5) 0.2662(5)
H18 H 0.3634 0.2310 0.2135
N2 N 0.4306(6) 0.1772(6) 0.3130(6)
C24 C 0.6522(6) 0.0569(6) 0.3061(6)
H19 H 0.6489 0.0320 0.3533
H20 H 0.6695 0.1108 0.3185
C25 C 0.5753(6) 0.0553(6) 0.2457(6)
H21 H 0.5651 0.0021 0.2257
H22 H 0.5778 0.0884 0.2027
C26 C 0.4234(6) 0.1744(6) 0.3832(7)
H23 H 0.4568 0.1482 0.4268
C27 C 0.5017(7) 0.0832(6) 0.2717(7)
H24 H 0.4530 0.0786 0.2273
H25 H 0.4970 0.0488 0.3129
C28 C 0.5102(7) 0.1633(7) 0.2997(10)
H26 H 0.5175 0.1991 0.2609
H27 H 0.5545 0.1686 0.3482
N3 N 0.7107(4) 0.0138(4) 0.2768(5)
C30 C 0.7683(5) 0.0474(4) 0.2529(5)
H29 H 0.7763 0.1006 0.2467
Co2 Co 0.80948(4) 0.80835(3) 0.23401(3)
N5 N 0.2695(2) 0.4242(2) 0.2564(2)
N6 N 0.7073(2) 0.7545(2) 0.1709(3)
N7 N 0.3573(3) 0.5135(3) 0.2551(3)
N8 N 0.5861(3) 0.7079(4) 0.1332(4)
C32 C 0.2374(4) 0.4966(3) 0.2615(4)
H31 H 0.1870 0.5052 0.2654
C33 C 0.3412(3) 0.4376(3) 0.2528(3)
H32 H 0.3764 0.3985 0.2490
C34 C 0.6875(4) 0.7279(4) 0.0958(3)
H33 H 0.7209 0.7294 0.0654
C35 C 0.2905(4) 0.5539(3) 0.2599(5)
H34 H 0.2838 0.6079 0.2617
C36 C 0.4351(4) 0.5471(5) 0.2579(4)
H35 H 0.4699 0.5050 0.2529
H36 H 0.4596 0.5718 0.3086
C37 C 0.6130(5) 0.6992(4) 0.0717(4)
H37 H 0.5855 0.6778 0.0228
C38 C 0.4282(4) 0.6035(5) 0.1975(5)
H38 H 0.3971 0.5814 0.1473
H39 H 0.4003 0.6494 0.2070
C39 C 0.6442(4) 0.7413(4) 0.1928(4)
H40 H 0.6404 0.7533 0.2418
C40 C 0.5106(4) 0.6281(5) 0.1945(5)
H41 H 0.5361 0.5826 0.1807
H42 H 0.5432 0.6447 0.2466
C41 C 0.5091(7) 0.6887(5) 0.1413(6)
H43 H 0.4728 0.6739 0.0901
H44 H 0.4878 0.7355 0.1578
O11 O 0.8555(2) 0.8119(2) 0.1488(2)
O12 O 0.8821(2) 0.7462(2) 0.32055(18)
O13 O 0.1421(2) 0.2589(2) 0.1917(2)
N9 N 0.7802(3) 0.9181(2) 0.2539(3)
Co5 Co 0.19052(4) 0.19165(3) 0.76599(3)
C29 C 0.7186(5) 0.9372(4) 0.2776(5)
H28 H 0.6863 0.9016 0.2923
C31 C 0.8111(4) 0.9871(3) 0.2402(4)
H30 H 0.8558 0.9919 0.2242
O10 O 0.2189(3) 0.2884(3) 0.1225(3)
C13 C 0.0352(3) 0.1788(3) 0.0701(3)
H9 H 0.0240 0.1859 0.1166
C15 C 0.1024(3) 0.2127(3) 0.0608(3)
C20 C 0.1590(3) 0.2572(3) 0.1288(3)
O1 O 0.1445(2) 0.1881(2) 0.8512(2)
O7 O 0.0352(2) 0.1178(3) 0.7982(2)
C4 C 0.1177(3) 0.2048(3) 0.9906(3)
H3 H 0.1624 0.2284 0.9841
C6 C 0.0661(3) 0.1615(3) 0.9300(2)
C21 C 0.0817(3) 0.1546(3) 0.8527(3)
C29_2 C 0.2814(5) 0.0628(4) 0.7224(5)
H28_2 H 0.3137 0.0984 0.7077
N4 N 0.2198(3) 0.0819(2) 0.7461(3)
C31_2 C 0.1889(4) 0.0129(3) 0.7598(4)
H30_2 H 0.1442 0.0081 0.7758
Co1_2 Co 0.77246(4) 0.68308(3) 0.73048(4)
O2_2 O 0.8914(2) 0.6134(2) 0.69992(19)
O3_2 O 0.7934(2) 0.6884(2) 0.62836(19)
O4_2 O 0.7763(2) 0.7613(2) 0.3563(2)
N1_2 N 0.6739(3) 0.7534(3) 0.6940(3)
C1_2 C 0.8916(3) 0.6515(3) 0.5728(3)
C2_2 C 0.8525(3) 0.6903(2) 0.5028(3)
H1_2 H 0.8030 0.7133 0.4954
C5_2 C 0.8867(3) 0.6947(3) 0.4448(3)
C7_2 C 0.8574(3) 0.6500(3) 0.6384(3)
C8_2 C 0.8449(3) 0.7369(3) 0.3705(3)
C10_2 C 0.9654(3) 0.6173(3) 0.5834(3)
H4_2 H 0.9911 0.5904 0.6297
C14_2 C 0.9622(3) 0.6618(3) 0.4565(3)
H10_2 H 0.9862 0.6661 0.4179
C22_2 C 0.6425(4) 0.7829(4) 0.6205(4)
H17_2 H 0.6626 0.7753 0.5795
C23_2 C 0.6286(5) 0.7794(5) 0.7338(5)
H18_2 H 0.6366 0.7690 0.7865
N2_2 N 0.5694(6) 0.8228(6) 0.6870(6)
C24_2 C 0.3478(6) 0.9431(6) 0.6939(6)
H19_2 H 0.3511 0.9680 0.6467
H20_2 H 0.3305 0.8892 0.6815
C25_2 C 0.4247(6) 0.9447(6) 0.7543(6)
H21_2 H 0.4349 0.9979 0.7743
H22_2 H 0.4222 0.9116 0.7973
C26_2 C 0.5766(6) 0.8256(6) 0.6168(7)
H23_2 H 0.5432 0.8518 0.5732
C27_2 C 0.4983(7) 0.9168(6) 0.7283(7)
H24_2 H 0.5470 0.9214 0.7727
H25_2 H 0.5030 0.9512 0.6871
C28_2 C 0.4898(7) 0.8367(7) 0.7003(10)
H26_2 H 0.4825 0.8009 0.7391
H27_2 H 0.4455 0.8314 0.6518
N3_2 N 0.2893(4) 0.9862(4) 0.7232(5)
C30_2 C 0.2317(5) 0.9526(4) 0.7471(5)
H29_2 H 0.2237 0.8994 0.7533
N5_2 N 0.7305(2) 0.5758(2) 0.7436(2)
N6_2 N 0.2927(2) 0.2455(2) 0.8291(3)
N7_2 N 0.6427(3) 0.4865(3) 0.7449(3)
N8_2 N 0.4139(3) 0.2921(4) 0.8668(4)
C32_2 C 0.7626(4) 0.5034(3) 0.7385(4)
H31_2 H 0.8130 0.4948 0.7346
C33_2 C 0.6588(3) 0.5624(3) 0.7472(3)
H32_2 H 0.6236 0.6015 0.7510
C34_2 C 0.3125(4) 0.2721(4) 0.9042(3)
H33_2 H 0.2791 0.2706 0.9346
C35_2 C 0.7095(4) 0.4461(3) 0.7401(5)
H34_2 H 0.7162 0.3921 0.7383
C36_2 C 0.5649(4) 0.4529(5) 0.7421(4)
H35_2 H 0.5301 0.4950 0.7471
H36_2 H 0.5404 0.4282 0.6914
C37_2 C 0.3870(5) 0.3008(4) 0.9283(4)
H37_2 H 0.4145 0.3222 0.9772
C38_2 C 0.5718(4) 0.3965(5) 0.8025(5)
H38_2 H 0.6029 0.4186 0.8527
H39_2 H 0.5997 0.3506 0.7930
C39_2 C 0.3558(4) 0.2587(4) 0.8072(4)
H40_2 H 0.3596 0.2467 0.7582
C40_2 C 0.4894(4) 0.3719(5) 0.8055(5)
H41_2 H 0.4639 0.4174 0.8193
H42_2 H 0.4568 0.3553 0.7534
C41_2 C 0.4909(7) 0.3113(5) 0.8587(6)
H43_2 H 0.5272 0.3261 0.9099
H44_2 H 0.5122 0.2645 0.8422
O13_2 O 0.8579(2) 0.7411(2) 0.8083(2)
O7_2 O 0.9648(2) 0.8822(3) 0.2018(2)
C4_2 C 0.8823(3) 0.7952(3) 0.0094(3)
H3_2 H 0.8376 0.7716 0.0159
C6_2 C 0.9339(3) 0.8385(3) 0.0700(2)
C21_2 C 0.9183(3) 0.8454(3) 0.1473(3)
O10_2 O 0.7811(3) 0.7116(3) 0.8775(3)
C13_2 C 0.9648(3) 0.8212(3) 0.9299(3)
H9_2 H 0.9760 0.8141 0.8834
C15_2 C 0.8976(3) 0.7873(3) 0.9392(3)
C20_2 C 0.8410(3) 0.7428(3) 0.8712(3)
O1_2 O 0.3555(2) 0.6881(2) 0.6488(2)
O5 O 0.9264(2) 0.4129(2) 0.4557(2)
O6 O 0.5789(2) 0.6038(3) 0.4724(2)
O7_3 O 0.4648(2) 0.6178(3) 0.7018(2)
O9 O 0.3579(2) 0.7589(2) 0.3083(2)
O10_3 O 0.2811(3) 0.7884(3) 0.3775(3)
C3 C 0.5014(3) 0.6257(3) 0.5602(3)
H2 H 0.5361 0.5966 0.6008
C4_3 C 0.3823(3) 0.7048(3) 0.5094(3)
H3_3 H 0.3376 0.7284 0.5159
C6_3 C 0.4339(3) 0.6615(3) 0.5700(2)
C9 C 0.9989(3) 0.3773(3) 0.4738(3)
C11 C 0.6349(3) 0.5525(3) 0.5252(3)
H5 H 0.6081 0.5079 0.5389
H6 H 0.6649 0.5800 0.5729
C12 C 0.6885(3) 0.5267(3) 0.4806(3)
H7 H 0.7090 0.5731 0.4624
H8 H 0.6569 0.4978 0.4346
C13_3 C 0.4648(3) 0.6788(3) 0.4299(3)
H9_3 H 0.4760 0.6859 0.3834
C15_3 C 0.3976(3) 0.7127(3) 0.4392(3)
C16 C 0.8872(3) 0.4160(3) 0.5136(3)
H11 H 0.9193 0.4444 0.5598
H12 H 0.8771 0.3636 0.5291
C17 C 0.8100(3) 0.4587(3) 0.4737(3)
H13 H 0.7785 0.4276 0.4292
H14 H 0.8221 0.5082 0.4534
C18 C 0.7597(3) 0.4753(3) 0.5266(3)
H15 H 0.7915 0.5023 0.5738
H16 H 0.7407 0.4264 0.5418
C19 C 0.5154(3) 0.6341(3) 0.4898(3)
C20_3 C 0.3410(3) 0.7572(3) 0.3712(3)
C21_3 C 0.4183(3) 0.6546(3) 0.6473(3)
Co3 Co 0.27246(4) 0.81692(3) 0.23048(4)
Co6 Co 0.30948(4) 0.69165(3) 0.73401(3)
O2_3 O 0.3914(2) 0.8866(2) 0.19992(19)
O3_3 O 0.2934(2) 0.8116(2) 0.12836(19)
O5_2 O 0.5736(2) 0.9129(2) 0.0443(2)
N1_3 N 0.1739(3) 0.7466(3) 0.1940(3)
C1_3 C 0.3916(3) 0.8485(3) 0.0728(3)
C2_3 C 0.3525(3) 0.8097(2) 0.0028(3)
C7_3 C 0.3574(3) 0.8500(3) 0.1384(3)
C9_2 C 0.5011(3) 0.8773(3) 0.0262(3)
C10_3 C 0.4654(3) 0.8827(3) 0.0834(3)
H4_3 H 0.4911 0.9096 0.1297
H8_2 H 0.8431 0.9978 0.0654
C17_2 C 0.6900(3) 0.9587(3) 0.0263(3)
H13_2 H 0.7215 0.9276 0.0708
C22_3 C 0.1425(4) 0.7171(4) 0.1205(4)
H17_3 H 0.1626 0.7247 0.0795
C23_3 C 0.1286(5) 0.7206(5) 0.2338(5)
H18_3 H 0.1366 0.7310 0.2865
N2_3 N 0.0694(6) 0.6772(6) 0.1870(6)
C26_3 C 0.0766(6) 0.6744(6) 0.1168(7)
H23_3 H 0.0432 0.6482 0.0732
H24_3 H 0.0470 0.5786 0.2727
H25_3 H 0.0030 0.5488 0.1871
N5_3 N 0.2305(2) 0.9242(2) 0.2436(2)
C32_3 C 0.2626(4) 0.9966(3) 0.2385(4)
C33_3 C 0.1588(3) 0.9376(3) 0.2472(3)
H32_3 H 0.1236 0.8985 0.2510
O4_3 O 0.2763(2) 0.7387(2) 0.8563(2)
O8_2 O 0.3821(2) 0.7538(2) 0.82055(18)
H1_3 H 0.3030 0.7867 0.9954
C5_3 C 0.3867(3) 0.8053(3) 0.9448(3)
C8_3 C 0.3449(3) 0.7631(3) 0.8705(3)
C14_3 C 0.4622(3) 0.8382(3) 0.9565(3)
H10_3 H 0.4862 0.8339 0.9179
C16_2 C 0.6128(3) 0.9160(3) 0.9864(3)
H11_2 H 0.5807 0.9444 0.9402
H12_2 H 0.6229 0.8636 0.9709
C18_2 C 0.7403(3) 0.9753(3) 0.9734(3)
H16_2 H 0.7593 0.9264 0.9582
C24_3 C 0.1522(6) 0.4431(6) 0.8061(6)
H19_3 H 0.1489 0.4680 0.8533
H20_3 H 0.1695 0.3892 0.8185
C25_3 C 0.0753(6) 0.4447(6) 0.7457(6)
H21_3 H 0.0651 0.4979 0.7257
H22_3 H 0.0778 0.4116 0.7027
C27_3 C 0.0017(7) 0.4168(6) 0.7717(7)
C28_3 C 0.0102(7) 0.3367(7) 0.7997(10)
H26_3 H 0.0175 0.3009 0.7609
H27_3 H 0.0545 0.3314 0.8482
N3_3 N 0.2107(4) 0.4862(4) 0.7768(5)
C29_3 C 0.2186(5) 0.5628(4) 0.7776(5)
H28_3 H 0.1863 0.5984 0.7923
C30_3 C 0.2683(5) 0.4526(4) 0.7529(5)
H29_3 H 0.2763 0.3994 0.7467
N4_2 N 0.2802(3) 0.5819(2) 0.7539(3)
C31_3 C 0.3111(4) 0.5129(3) 0.7402(4)
H30_3 H 0.3558 0.5081 0.7242
N6_3 N 0.2073(2) 0.7455(2) 0.6709(3)
N8_3 N 0.0861(3) 0.7921(4) 0.6332(4)
C34_3 C 0.1875(4) 0.7721(4) 0.5958(3)
H33_3 H 0.2209 0.7706 0.5654
C37_3 C 0.1130(5) 0.8008(4) 0.5717(4)
H37_3 H 0.0855 0.8222 0.5228
C39_3 C 0.1442(4) 0.7587(4) 0.6928(4)
H40_3 H 0.1404 0.7467 0.7418
C40_3 C 0.0106(4) 0.8719(5) 0.6945(5)
H41_3 H 0.0361 0.9174 0.6807
H42_3 H 0.0432 0.8553 0.7466
C41_3 C 0.0091(7) 0.8113(5) 0.6413(6)
O6_2 O 0.9211(2) 0.1038(3) 0.0276(2)
C12_2 C 0.8115(3) 0.0267(3) 0.0194(3)
H7_2 H 0.7910 0.0731 0.0376
H14_2 H 0.6779 0.0082 0.0466
C19_2 C 0.9846(3) 0.1341(3) 0.0102(3)
N7_3 N 0.1427(3) 0.0135(3) 0.2449(3)
H31_3 H 0.3130 0.0052 0.2346
C35_3 C 0.2095(4) 0.0539(3) 0.2401(5)
H34_3 H 0.2162 0.1079 0.2383
C36_3 C 0.0649(4) 0.0471(5) 0.2421(4)
H35_3 H 0.0301 0.0050 0.2471
H36_3 H 0.0404 0.0718 0.1914
C38_3 C 0.0718(4) 0.1035(5) 0.3025(5)
H38_3 H 0.1029 0.0814 0.3527
H39_3 H 0.0997 0.1494 0.2930
H43_3 H 0.0272 0.1739 0.4099
H44_3 H 0.0122 0.2355 0.3422
C3_2 C 0.9986(3) 0.1257(3) 0.9398(3)
H2_2 H 0.9639 0.0966 0.8992
C11_2 C 0.8651(3) 0.0525(3) 0.9748(3)
H5_2 H 0.8919 0.0079 0.9611
H6_2 H 0.8351 0.0800 0.9271
H15_2 H 0.7085 0.0023 0.9262
Co2_2 Co 0.69052(4) 0.30835(3) 0.26599(3)
N6_4 N 0.7927(2) 0.2545(2) 0.3291(3)
N8_4 N 0.9139(3) 0.2079(4) 0.3668(4)
C34_4 C 0.8125(4) 0.2279(4) 0.4042(3)
H33_4 H 0.7791 0.2294 0.4346
C37_4 C 0.8870(5) 0.1992(4) 0.4283(4)
H37_4 H 0.9145 0.1778 0.4772
C39_4 C 0.8558(4) 0.2413(4) 0.3072(4)
H40_4 H 0.8596 0.2533 0.2582
C40_4 C 0.9894(4) 0.1281(5) 0.3055(5)
H41_4 H 0.9639 0.0826 0.3193
H42_4 H 0.9568 0.1447 0.2534
C41_4 C 0.9909(7) 0.1887(5) 0.3587(6)
O11_2 O 0.6445(2) 0.3119(2) 0.3512(2)
O12_2 O 0.6179(2) 0.2462(2) 0.17945(18)
N9_2 N 0.7198(3) 0.4181(2) 0.2461(3)
C24_4 C 0.8478(6) 0.5569(6) 0.1939(6)
H19_4 H 0.8511 0.5320 0.1467
H20_4 H 0.8305 0.6108 0.1815
C25_4 C 0.9247(6) 0.5553(6) 0.2543(6)
H21_4 H 0.9349 0.5021 0.2743
H22_4 H 0.9222 0.5884 0.2973
C27_4 C 0.9983(7) 0.5832(6) 0.2283(7)
C28_4 C 0.9898(7) 0.6633(7) 0.2003(10)
H26_4 H 0.9825 0.6991 0.2391
H27_4 H 0.9455 0.6686 0.1518
N3_4 N 0.7893(4) 0.5138(4) 0.2232(5)
C29_4 C 0.7814(5) 0.4372(4) 0.2224(5)
H28_4 H 0.8137 0.4016 0.2077
C30_4 C 0.7317(5) 0.5474(4) 0.2471(5)
H29_4 H 0.7237 0.6006 0.2533
C31_4 C 0.6889(4) 0.4871(3) 0.2598(4)
H30_4 H 0.6442 0.4919 0.2758
O5_3 O 0.0736(2) 0.5871(2) 0.5443(2)
O6_3 O 0.4211(2) 0.3962(3) 0.5276(2)
O7_4 O 0.5352(2) 0.3822(3) 0.2982(2)
O9_2 O 0.6421(2) 0.2411(2) 0.6917(2)
O10_4 O 0.7189(3) 0.2116(3) 0.6225(3)
C3_3 C 0.4986(3) 0.3743(3) 0.4398(3)
H2_3 H 0.4639 0.4034 0.3992
C4_4 C 0.6177(3) 0.2952(3) 0.4906(3)
H3_4 H 0.6624 0.2716 0.4841
C6_4 C 0.5661(3) 0.3385(3) 0.4300(2)
C9_3 C 0.0011(3) 0.6227(3) 0.5262(3)
C11_3 C 0.3651(3) 0.4475(3) 0.4748(3)
H5_3 H 0.3919 0.4921 0.4611
H6_3 H 0.3351 0.4200 0.4271
C12_3 C 0.3115(3) 0.4733(3) 0.5194(3)
H7_3 H 0.2910 0.4269 0.5376
H8_3 H 0.3431 0.5022 0.5654
C13_4 C 0.5352(3) 0.3212(3) 0.5701(3)
H9_4 H 0.5240 0.3141 0.6166
C15_4 C 0.6024(3) 0.2873(3) 0.5608(3)
C16_3 C 0.1128(3) 0.5840(3) 0.4864(3)
H11_3 H 0.0807 0.5556 0.4402
H12_3 H 0.1229 0.6364 0.4709
C17_3 C 0.1900(3) 0.5413(3) 0.5263(3)
H13_3 H 0.2215 0.5724 0.5708
H14_3 H 0.1779 0.4918 0.5466
C18_3 C 0.2403(3) 0.5247(3) 0.4734(3)
H15_3 H 0.2085 0.4977 0.4262
H16_3 H 0.2593 0.5736 0.4582
C19_3 C 0.4846(3) 0.3659(3) 0.5102(3)
C20_4 C 0.6590(3) 0.2428(3) 0.6288(3)
C21_4 C 0.5817(3) 0.3454(3) 0.3527(3)
Co3_2 Co 0.72754(4) 0.18308(3) 0.76952(4)
O4_4 O 0.7237(2) 0.2613(2) 0.1437(2)
H1_4 H 0.6970 0.2133 0.0046
C5_4 C 0.6133(3) 0.1947(3) 0.0552(3)
C8_4 C 0.6551(3) 0.2369(3) 0.1295(3)
C14_4 C 0.5378(3) 0.1618(3) 0.0435(3)
H10_4 H 0.5138 0.1661 0.0821
C16_4 C 0.3872(3) 0.0840(3) 0.0136(3)
H11_4 H 0.4193 0.0556 0.0598
H12_4 H 0.3771 0.1364 0.0291
C18_4 C 0.2597(3) 0.0247(3) 0.0266(3)
H16_4 H 0.2407 0.0736 0.0418
O2_4 O 0.6086(2) 0.1134(2) 0.80008(19)
O3_4 O 0.7066(2) 0.1884(2) 0.87164(19)
O5_4 O 0.4264(2) 0.0871(2) 0.9557(2)
N1_4 N 0.8261(3) 0.2534(3) 0.8060(3)
C1_4 C 0.6084(3) 0.1515(3) 0.9272(3)
C2_4 C 0.6475(3) 0.1903(2) 0.9972(3)
C7_4 C 0.6426(3) 0.1500(3) 0.8616(3)
C9_4 C 0.4989(3) 0.1227(3) 0.9738(3)
C10_4 C 0.5346(3) 0.1173(3) 0.9166(3)
H4_4 H 0.5089 0.0904 0.8703
H8_4 H 0.1569 0.0022 0.9346
C17_4 C 0.3100(3) 0.0413(3) 0.9737(3)
H13_4 H 0.2785 0.0724 0.9292
C22_4 C 0.8575(4) 0.2829(4) 0.8795(4)
H17_4 H 0.8374 0.2753 0.9205
C23_4 C 0.8714(5) 0.2794(5) 0.7662(5)
H18_4 H 0.8634 0.2690 0.7135
N2_4 N 0.9306(6) 0.3228(6) 0.8130(6)
C26_4 C 0.9234(6) 0.3256(6) 0.8832(7)
H23_4 H 0.9568 0.3518 0.9268
H24_4 H 0.9530 0.4214 0.7273
H25_4 H 0.9970 0.4512 0.8129
N5_4 N 0.7695(2) 0.0758(2) 0.7564(2)
C32_4 C 0.7374(4) 0.0034(3) 0.7615(4)
C33_4 C 0.8412(3) 0.0624(3) 0.7528(3)
H32_4 H 0.8764 0.1015 0.7490
C3_4 C 0.0014(3) 0.8743(3) 0.0602(3)
H2_4 H 0.0361 0.9034 0.1008
C11_4 C 0.1349(3) 0.9475(3) 0.0252(3)
H5_4 H 0.1081 0.9921 0.0389
H6_4 H 0.1649 0.9200 0.0729
H15_4 H 0.2915 0.9977 0.0738
O6_4 O 0.0789(2) 0.8962(3) 0.9724(2)
C12_4 C 0.1885(3) 0.9733(3) 0.9806(3)
H7_4 H 0.2090 0.9269 0.9624
H14_4 H 0.3221 0.9918 0.9534
C19_4 C 0.0154(3) 0.8659(3) 0.9898(3)
N7_4 N 0.8573(3) 0.9865(3) 0.7551(3)
H31_4 H 0.6870 0.9948 0.7654
C35_4 C 0.7905(4) 0.9461(3) 0.7599(5)
H34_4 H 0.7838 0.8921 0.7617
C36_4 C 0.9351(4) 0.9529(5) 0.7579(4)
H35_4 H 0.9699 0.9950 0.7529
H36_4 H 0.9596 0.9282 0.8086
C38_4 C 0.9282(4) 0.8965(5) 0.6975(5)
H38_4 H 0.8971 0.9186 0.6473
H39_4 H 0.9003 0.8506 0.7070
H43_4 H 0.9728 0.8261 0.5901
H44_4 H 0.9878 0.7645 0.6578
loop_
_geom_bond_atom_site_label_1
_geom_bond_atom_site_label_2
_geom_bond_site_symmetry_1
_geom_bond_site_symmetry_2
Co1 O3 1_555 1_555
O2 C7 1_555 1_555
O3 C7 1_555 1_555
O4 C8 1_555 1_555
O8 C8 1_555 1_555
N1 Co1 1_555 1_555
C1 C2 1_555 1_555
C2 H1 1_555 1_555
C5 C2 1_555 1_555
C7 C1 1_555 1_555
C8 C5 1_555 1_555
C10 C1 1_555 1_555
H4 C10 1_555 1_555
C14 C5 1_555 1_555
H10 C14 1_555 1_555
C22 N1 1_555 1_555
H17 C22 1_555 1_555
C23 N1 1_555 1_555
H18 C23 1_555 1_555
N2 C23 1_555 1_555
C24 H19 1_555 1_555
H20 C24 1_555 1_555
C25 C24 1_555 1_555
H21 C25 1_555 1_555
H22 C25 1_555 1_555
C26 C22 1_555 1_555
H23 C26 1_555 1_555
C27 C25 1_555 1_555
H24 C27 1_555 1_555
H25 C27 1_555 1_555
C28 N2 1_555 1_555
H26 C28 1_555 1_555
H27 C28 1_555 1_555
N3 C24 1_555 1_555
C30 N3 1_555 1_555
H29 C30 1_555 1_555
Co2 N6 1_555 1_555
N5 Co1 1_555 1_555
N6 C34 1_555 1_555
N7 C33 1_555 1_555
N8 C37 1_555 1_555
C32 N5 1_555 1_555
H31 C32 1_555 1_555
C33 N5 1_555 1_555
H32 C33 1_555 1_555
C34 H33 1_555 1_555
C35 N7 1_555 1_555
H34 C35 1_555 1_555
C36 N7 1_555 1_555
H35 C36 1_555 1_555
H36 C36 1_555 1_555
C37 C34 1_555 1_555
H37 C37 1_555 1_555
C38 C36 1_555 1_555
H38 C38 1_555 1_555
H39 C38 1_555 1_555
C39 N6 1_555 1_555
H40 C39 1_555 1_555
C40 C38 1_555 1_555
H41 C40 1_555 1_555
H42 C40 1_555 1_555
C41 N8 1_555 1_555
H43 C41 1_555 1_555
H44 C41 1_555 1_555
O11 Co2 1_555 1_555
O12 Co2 1_555 1_555
O13 Co1 1_555 1_555
N9 Co2 1_555 1_555
Co5 O8 1_555 1_555
N2 C26 1_555 1_555
C27 C28 1_555 1_555
N8 C39 1_555 1_555
C32 C35 1_555 1_555
C40 C41 1_555 1_555
H28 C29 1_555 1_555
N9 C29 1_555 1_555
H30 C31 1_555 1_555
N9 C31 1_555 1_555
O13 C20 1_555 1_555
O10 C20 1_555 1_555
C13 H9 1_555 1_555
C20 C15 1_555 1_555
C13 C15 1_555 1_555
O1 C21 1_555 1_555
O7 C21 1_555 1_555
C4 H3 1_555 1_555
C21 C6 1_555 1_555
Co5 O1 1_555 1_555
C4 C6 1_555 1_555
H28_2 C29_2 1_555 1_555
N4 C29_2 1_555 1_555
H30_2 C31_2 1_555 1_555
Co5 N4 1_555 1_555
N4 C31_2 1_555 1_555
Co1_2 O3_2 1_555 1_555
O2_2 C7_2 1_555 1_555
O3_2 C7_2 1_555 1_555
O4_2 C8_2 1_555 1_555
O12 C8_2 1_555 1_555
N1_2 Co1_2 1_555 1_555
C1_2 C2_2 1_555 1_555
C2_2 H1_2 1_555 1_555
C5_2 C2_2 1_555 1_555
C7_2 C1_2 1_555 1_555
C8_2 C5_2 1_555 1_555
C10_2 C1_2 1_555 1_555
H4_2 C10_2 1_555 1_555
C14_2 C5_2 1_555 1_555
H10_2 C14_2 1_555 1_555
C22_2 N1_2 1_555 1_555
H17_2 C22_2 1_555 1_555
C23_2 N1_2 1_555 1_555
H18_2 C23_2 1_555 1_555
N2_2 C23_2 1_555 1_555
C24_2 H19_2 1_555 1_555
H20_2 C24_2 1_555 1_555
C25_2 C24_2 1_555 1_555
H21_2 C25_2 1_555 1_555
H22_2 C25_2 1_555 1_555
C26_2 C22_2 1_555 1_555
H23_2 C26_2 1_555 1_555
C27_2 C25_2 1_555 1_555
H24_2 C27_2 1_555 1_555
H25_2 C27_2 1_555 1_555
C28_2 N2_2 1_555 1_555
H26_2 C28_2 1_555 1_555
H27_2 C28_2 1_555 1_555
N3_2 C24_2 1_555 1_555
C30_2 N3_2 1_555 1_555
H29_2 C30_2 1_555 1_555
Co5 N6_2 1_555 1_555
N5_2 Co1_2 1_555 1_555
N6_2 C34_2 1_555 1_555
N7_2 C33_2 1_555 1_555
N8_2 C37_2 1_555 1_555
C32_2 N5_2 1_555 1_555
H31_2 C32_2 1_555 1_555
C33_2 N5_2 1_555 1_555
H32_2 C33_2 1_555 1_555
C34_2 H33_2 1_555 1_555
C35_2 N7_2 1_555 1_555
H34_2 C35_2 1_555 1_555
C36_2 N7_2 1_555 1_555
H35_2 C36_2 1_555 1_555
H36_2 C36_2 1_555 1_555
C37_2 C34_2 1_555 1_555
H37_2 C37_2 1_555 1_555
C38_2 C36_2 1_555 1_555
H38_2 C38_2 1_555 1_555
H39_2 C38_2 1_555 1_555
C39_2 N6_2 1_555 1_555
H40_2 C39_2 1_555 1_555
C40_2 C38_2 1_555 1_555
H41_2 C40_2 1_555 1_555
H42_2 C40_2 1_555 1_555
C41_2 N8_2 1_555 1_555
H43_2 C41_2 1_555 1_555
H44_2 C41_2 1_555 1_555
O13_2 Co1_2 1_555 1_555
N2_2 C26_2 1_555 1_555
C27_2 C28_2 1_555 1_555
N8_2 C39_2 1_555 1_555
C32_2 C35_2 1_555 1_555
C40_2 C41_2 1_555 1_555
O11 C21_2 1_555 1_555
O7_2 C21_2 1_555 1_555
C4_2 H3_2 1_555 1_555
C21_2 C6_2 1_555 1_555
C4_2 C6_2 1_555 1_555
O13_2 C20_2 1_555 1_555
O10_2 C20_2 1_555 1_555
C13_2 H9_2 1_555 1_555
C20_2 C15_2 1_555 1_555
C13_2 C15_2 1_555 1_555
O1_2 C21_3 1_555 1_555
O5 C9 1_555 1_555
O6 C11 1_555 1_555
O7_3 C21_3 1_555 1_555
O9 C20_3 1_555 1_555
O10_3 C20_3 1_555 1_555
C3 H2 1_555 1_555
C4_3 H3_3 1_555 1_555
C6_3 C3 1_555 1_555
C11 H5 1_555 1_555
H6 C11 1_555 1_555
C12 C11 1_555 1_555
H7 C12 1_555 1_555
H8 C12 1_555 1_555
C13_3 H9_3 1_555 1_555
C15_3 C4_3 1_555 1_555
C16 O5 1_555 1_555
H11 C16 1_555 1_555
H12 C16 1_555 1_555
C17 C16 1_555 1_555
H13 C17 1_555 1_555
H14 C17 1_555 1_555
C18 C12 1_555 1_555
H15 C18 1_555 1_555
H16 C18 1_555 1_555
C19 O6 1_555 1_555
C20_3 C15_3 1_555 1_555
C21_3 C6_3 1_555 1_555
Co3 O9 1_555 1_555
Co6 O1_2 1_555 1_555
C3 C19 1_555 1_555
C4_3 C6_3 1_555 1_555
C13_3 C15_3 1_555 1_555
C13_3 C19 1_555 1_555
C17 C18 1_555 1_555
Co3 O3_3 1_555 1_555
O2_3 C7_3 1_555 1_555
O3_3 C7_3 1_555 1_555
O5_2 C9_2 1_555 1_555
N1_3 Co3 1_555 1_555
C1_3 C2_3 1_555 1_555
C7_3 C1_3 1_555 1_555
C9_2 C10_3 1_555 1_555
C10_3 C1_3 1_555 1_555
H4_3 C10_3 1_555 1_555
H13_2 C17_2 1_555 1_555
C22_3 N1_3 1_555 1_555
H17_3 C22_3 1_555 1_555
C23_3 N1_3 1_555 1_555
H18_3 C23_3 1_555 1_555
N2_3 C23_3 1_555 1_555
C26_3 C22_3 1_555 1_555
H23_3 C26_3 1_555 1_555
N5_3 Co3 1_555 1_555
C32_3 N5_3 1_555 1_555
C33_3 N5_3 1_555 1_555
H32_3 C33_3 1_555 1_555
N2_3 C26_3 1_555 1_555
O4_3 C8_3 1_555 1_555
O8_2 C8_3 1_555 1_555
C8_3 C5_3 1_555 1_555
C14_3 C5_3 1_555 1_555
H10_3 C14_3 1_555 1_555
H11_2 C16_2 1_555 1_555
H12_2 C16_2 1_555 1_555
H16_2 C18_2 1_555 1_555
Co6 O8_2 1_555 1_555
C24_3 H19_3 1_555 1_555
H20_3 C24_3 1_555 1_555
C25_3 C24_3 1_555 1_555
H21_3 C25_3 1_555 1_555
H22_3 C25_3 1_555 1_555
C27_3 C25_3 1_555 1_555
H26_3 C28_3 1_555 1_555
H27_3 C28_3 1_555 1_555
N3_3 C24_3 1_555 1_555
C29_3 N3_3 1_555 1_555
H28_3 C29_3 1_555 1_555
C30_3 N3_3 1_555 1_555
H29_3 C30_3 1_555 1_555
N4_2 C29_3 1_555 1_555
C31_3 C30_3 1_555 1_555
H30_3 C31_3 1_555 1_555
Co6 N4_2 1_555 1_555
C27_3 C28_3 1_555 1_555
N4_2 C31_3 1_555 1_555
Co6 N6_3 1_555 1_555
N6_3 C34_3 1_555 1_555
N8_3 C37_3 1_555 1_555
C34_3 H33_3 1_555 1_555
C37_3 C34_3 1_555 1_555
H37_3 C37_3 1_555 1_555
C39_3 N6_3 1_555 1_555
H40_3 C39_3 1_555 1_555
H41_3 C40_3 1_555 1_555
H42_3 C40_3 1_555 1_555
C41_3 N8_3 1_555 1_555
N8_3 C39_3 1_555 1_555
C40_3 C41_3 1_555 1_555
H7_2 C12_2 1_555 1_555
C19_2 O6_2 1_555 1_555
C35_3 N7_3 1_555 1_555
H34_3 C35_3 1_555 1_555
C36_3 N7_3 1_555 1_555
H35_3 C36_3 1_555 1_555
H36_3 C36_3 1_555 1_555
C38_3 C36_3 1_555 1_555
H38_3 C38_3 1_555 1_555
H39_3 C38_3 1_555 1_555
C3_2 H2_2 1_555 1_555
C11_2 H5_2 1_555 1_555
H6_2 C11_2 1_555 1_555
Co2_2 N6_4 1_555 1_555
N6_4 C34_4 1_555 1_555
N8_4 C37_4 1_555 1_555
C34_4 H33_4 1_555 1_555
C37_4 C34_4 1_555 1_555
H37_4 C37_4 1_555 1_555
C39_4 N6_4 1_555 1_555
H40_4 C39_4 1_555 1_555
H41_4 C40_4 1_555 1_555
H42_4 C40_4 1_555 1_555
C41_4 N8_4 1_555 1_555
O11_2 Co2_2 1_555 1_555
O12_2 Co2_2 1_555 1_555
N9_2 Co2_2 1_555 1_555
N8_4 C39_4 1_555 1_555
C40_4 C41_4 1_555 1_555
C24_4 H19_4 1_555 1_555
H20_4 C24_4 1_555 1_555
C25_4 C24_4 1_555 1_555
H21_4 C25_4 1_555 1_555
H22_4 C25_4 1_555 1_555
C27_4 C25_4 1_555 1_555
H26_4 C28_4 1_555 1_555
H27_4 C28_4 1_555 1_555
N3_4 C24_4 1_555 1_555
C29_4 N3_4 1_555 1_555
H28_4 C29_4 1_555 1_555
C30_4 N3_4 1_555 1_555
H29_4 C30_4 1_555 1_555
N9_2 C29_4 1_555 1_555
C31_4 C30_4 1_555 1_555
H30_4 C31_4 1_555 1_555
C27_4 C28_4 1_555 1_555
N9_2 C31_4 1_555 1_555
O11_2 C21_4 1_555 1_555
O5_3 C9_3 1_555 1_555
O6_3 C11_3 1_555 1_555
O7_4 C21_4 1_555 1_555
O9_2 C20_4 1_555 1_555
O10_4 C20_4 1_555 1_555
C3_3 H2_3 1_555 1_555
C4_4 H3_4 1_555 1_555
C6_4 C3_3 1_555 1_555
C11_3 H5_3 1_555 1_555
H6_3 C11_3 1_555 1_555
C12_3 C11_3 1_555 1_555
H7_3 C12_3 1_555 1_555
H8_3 C12_3 1_555 1_555
C13_4 H9_4 1_555 1_555
C15_4 C4_4 1_555 1_555
C16_3 O5_3 1_555 1_555
H11_3 C16_3 1_555 1_555
H12_3 C16_3 1_555 1_555
C17_3 C16_3 1_555 1_555
H13_3 C17_3 1_555 1_555
H14_3 C17_3 1_555 1_555
C18_3 C12_3 1_555 1_555
H15_3 C18_3 1_555 1_555
H16_3 C18_3 1_555 1_555
C19_3 O6_3 1_555 1_555
C20_4 C15_4 1_555 1_555
C21_4 C6_4 1_555 1_555
Co3_2 O9_2 1_555 1_555
C3_3 C19_3 1_555 1_555
C4_4 C6_4 1_555 1_555
C13_4 C15_4 1_555 1_555
C13_4 C19_3 1_555 1_555
C17_3 C18_3 1_555 1_555
O4_4 C8_4 1_555 1_555
O12_2 C8_4 1_555 1_555
C8_4 C5_4 1_555 1_555
C14_4 C5_4 1_555 1_555
H10_4 C14_4 1_555 1_555
H11_4 C16_4 1_555 1_555
H12_4 C16_4 1_555 1_555
H16_4 C18_4 1_555 1_555
Co3_2 O3_4 1_555 1_555
O2_4 C7_4 1_555 1_555
O3_4 C7_4 1_555 1_555
O5_4 C9_4 1_555 1_555
N1_4 Co3_2 1_555 1_555
C1_4 C2_4 1_555 1_555
C7_4 C1_4 1_555 1_555
C9_4 C10_4 1_555 1_555
C10_4 C1_4 1_555 1_555
H4_4 C10_4 1_555 1_555
H13_4 C17_4 1_555 1_555
C22_4 N1_4 1_555 1_555
H17_4 C22_4 1_555 1_555
C23_4 N1_4 1_555 1_555
H18_4 C23_4 1_555 1_555
N2_4 C23_4 1_555 1_555
C26_4 C22_4 1_555 1_555
H23_4 C26_4 1_555 1_555
N5_4 Co3_2 1_555 1_555
C32_4 N5_4 1_555 1_555
C33_4 N5_4 1_555 1_555
H32_4 C33_4 1_555 1_555
N2_4 C26_4 1_555 1_555
C3_4 H2_4 1_555 1_555
C11_4 H5_4 1_555 1_555
H6_4 C11_4 1_555 1_555
H7_4 C12_4 1_555 1_555
C19_4 O6_4 1_555 1_555
C35_4 N7_4 1_555 1_555
H34_4 C35_4 1_555 1_555
C36_4 N7_4 1_555 1_555
H35_4 C36_4 1_555 1_555
H36_4 C36_4 1_555 1_555
C38_4 C36_4 1_555 1_555
H38_4 C38_4 1_555 1_555
H39_4 C38_4 1_555 1_555

#END
