
###############################################################################
#
# This file contains modified crystal structure data generated from the
# MOF subset of the Cambridge Structural Database (CSD) v543 
# hosted by the Cambridge Crystallographic Data Centre (CCDC).
#
# This work is licensed under the Creative Commons
# Attribution-NonCommercial-ShareAlike 4.0 International License.
# To view a copy of this license, visit
# http://creativecommons.org/licenses/by-nc-sa/4.0/
# or send a letter to
# Creative Commons, PO Box 1866, Mountain View, CA 94042, USA.
#
# CIF created using the CSD Python API on 29 September 2022
# The structure has been converted into the P1 space group
# The structure has a 3D framework
# The original CSD entry YIJZIC is in the cubic crystal system
# The original CSD entry YIJZIC is in a Sohncke space group
# The framework has been calculated to contain at least 10.0% void space
# The void calculation uses a probe of radius 1.32A, grid spacing 0.4
#
###############################################################################

data_YIJZIC
_chemical_formula_moiety         '(C24 O44 Zn8)n'
_symmetry_cell_setting           triclinic
_symmetry_space_group_name_H-M   'P 1'
_symmetry_Int_Tables_number      1
_space_group_name_Hall           'P 1'
loop_
_symmetry_equiv_pos_site_id
_symmetry_equiv_pos_as_xyz
1 x,y,z
_cell_length_a                   15.2853(5)
_cell_length_b                   15.2853(5)
_cell_length_c                   15.2853(5)
_cell_angle_alpha                90
_cell_angle_beta                 90
_cell_angle_gamma                90
_cell_volume                     3571.26
loop_
_atom_site_label
_atom_site_type_symbol
_atom_site_fract_x
_atom_site_fract_y
_atom_site_fract_z
O9 O 0.03640(10) 0.38750(10) 0.10837(10)
C6 C 0.06141(13) 0.31141(13) 0.1250
O11 O 0.13750(10) 0.28640(10) 0.14163(10)
O12 O 0.01339(9) 0.16169(9) 0.13602(10)
Zn3 Zn 0.149858(18) 0.149858(18) 0.149858(18)
Zn1 Zn 0.899858(18) 0.399858(18) 0.100142(18)
O1 O 0.89163(10) 0.53640(10) 0.11250(10)
O2 O 0.88602(10) 0.41169(9) 0.23661(9)
C1 C 0.8750 0.48913(13) 0.26087(13)
C2 C 0.8750 0.56141(13) 0.18859(13)
O3 O 0.85837(10) 0.63750(10) 0.21360(10)
O4 O 0.86398(10) 0.51339(9) 0.33831(9)
O6 O 0.76339(9) 0.38602(10) 0.08831(9)
C3 C 0.73913(13) 0.3750 0.01087(13)
O10 O 0.91169(9) 0.26339(9) 0.11398(10)
C5 C 0.98913(13) 0.23913(13) 0.1250
Zn2 Zn 0.850142(18) 0.649858(18) 0.350142(18)
O13 O 0.71360(10) 0.64163(10) 0.36250(10)
O14 O 0.86250(10) 0.78640(10) 0.35837(10)
O15 O 0.83831(9) 0.63602(10) 0.48661(9)
O16 O 0.98661(9) 0.66169(9) 0.36398(10)
O5 O 0.88750(10) 0.39163(10) 0.96360(10)
C4 C 0.81141(13) 0.3750 0.93859(13)
O7 O 0.78640(10) 0.35837(10) 0.86250(10)
O8 O 0.66169(9) 0.36398(10) 0.98661(9)
Zn4 Zn 0.649858(18) 0.350142(18) 0.850142(18)
Zn1_2 Zn 0.600142(18) 0.600142(18) 0.600142(18)
O1_2 O 0.60837(10) 0.46360(10) 0.61250(10)
O2_2 O 0.61398(10) 0.58831(9) 0.73661(9)
C1_2 C 0.6250 0.51087(13) 0.76087(13)
C2_2 C 0.6250 0.43859(13) 0.68859(13)
O3_2 O 0.64163(10) 0.36250(10) 0.71360(10)
O4_2 O 0.63602(10) 0.48661(9) 0.83831(9)
O5_2 O 0.61250(10) 0.60837(10) 0.46360(10)
O6_2 O 0.73661(9) 0.61398(10) 0.58831(9)
C3_2 C 0.76087(13) 0.6250 0.51087(13)
C4_2 C 0.68859(13) 0.6250 0.43859(13)
O9_2 O 0.46360(10) 0.61250(10) 0.60837(10)
O10_2 O 0.58831(9) 0.73661(9) 0.61398(10)
C5_2 C 0.51087(13) 0.76087(13) 0.6250
C6_2 C 0.43859(13) 0.68859(13) 0.6250
O11_2 O 0.36250(10) 0.71360(10) 0.64163(10)
O12_2 O 0.48661(9) 0.83831(9) 0.63602(10)
Zn3_2 Zn 0.350142(18) 0.850142(18) 0.649858(18)
O14_2 O 0.63750(10) 0.21360(10) 0.85837(10)
O16_2 O 0.51339(9) 0.33831(9) 0.86398(10)
O1_3 O 0.10837(10) 0.03640(10) 0.38750(10)
C2_3 C 0.1250 0.06141(13) 0.31141(13)
O3_3 O 0.14163(10) 0.13750(10) 0.28640(10)
O4_3 O 0.13602(10) 0.01339(9) 0.16169(9)
O13_2 O 0.28640(10) 0.14163(10) 0.13750(10)
O15_2 O 0.16169(9) 0.13602(10) 0.01339(9)
Zn1_3 Zn 0.100142(18) 0.899858(18) 0.399858(18)
O2_3 O 0.11398(10) 0.91169(9) 0.26339(9)
C1_3 C 0.1250 0.98913(13) 0.23913(13)
O5_3 O 0.11250(10) 0.89163(10) 0.53640(10)
O6_3 O 0.23661(9) 0.88602(10) 0.41169(9)
C3_3 C 0.26087(13) 0.8750 0.48913(13)
C4_3 C 0.18859(13) 0.8750 0.56141(13)
O7_2 O 0.21360(10) 0.85837(10) 0.63750(10)
O8_2 O 0.33831(9) 0.86398(10) 0.51339(9)
O10_3 O 0.08831(9) 0.76339(9) 0.38602(10)
C5_3 C 0.01087(13) 0.73913(13) 0.3750
O9_3 O 0.96360(10) 0.88750(10) 0.39163(10)
C6_3 C 0.93859(13) 0.81141(13) 0.3750
O5_4 O 0.38750(10) 0.10837(10) 0.03640(10)
C4_4 C 0.31141(13) 0.1250 0.06141(13)
Zn1_4 Zn 0.399858(18) 0.100142(18) 0.899858(18)
O2_4 O 0.38602(10) 0.08831(9) 0.76339(9)
C1_4 C 0.3750 0.01087(13) 0.73913(13)
O6_4 O 0.26339(9) 0.11398(10) 0.91169(9)
C3_4 C 0.23913(13) 0.1250 0.98913(13)
O9_4 O 0.53640(10) 0.11250(10) 0.89163(10)
O10_4 O 0.41169(9) 0.23661(9) 0.88602(10)
C5_4 C 0.48913(13) 0.26087(13) 0.8750
C6_4 C 0.56141(13) 0.18859(13) 0.8750
O1_4 O 0.39163(10) 0.96360(10) 0.88750(10)
C2_4 C 0.3750 0.93859(13) 0.81141(13)
O3_4 O 0.35837(10) 0.86250(10) 0.78640(10)
O4_4 O 0.36398(10) 0.98661(9) 0.66169(9)
loop_
_geom_bond_atom_site_label_1
_geom_bond_atom_site_label_2
_geom_bond_site_symmetry_1
_geom_bond_site_symmetry_2
C6 O9 1_555 1_555
O11 C6 1_555 1_555
Zn3 O11 1_555 1_555
O12 Zn3 1_555 1_555
Zn1 O1 1_555 1_555
O1 C2 1_555 1_555
O2 Zn1 1_555 1_555
C1 O2 1_555 1_555
C2 C1 1_555 1_555
O3 C2 1_555 1_555
O4 C1 1_555 1_555
O6 Zn1 1_555 1_555
C3 O6 1_555 1_555
O10 Zn1 1_555 1_555
C5 O10 1_555 1_555
Zn2 O3 1_555 1_555
O13 Zn2 1_555 1_555
O14 Zn2 1_555 1_555
O15 Zn2 1_555 1_555
O16 Zn2 1_555 1_555
O4 Zn2 1_555 1_555
C4 O5 1_555 1_555
O7 C4 1_555 1_555
Zn4 O7 1_555 1_555
O8 Zn4 1_555 1_555
Zn1_2 O1_2 1_555 1_555
O1_2 C2_2 1_555 1_555
O2_2 Zn1_2 1_555 1_555
C1_2 O2_2 1_555 1_555
C2_2 C1_2 1_555 1_555
O3_2 C2_2 1_555 1_555
O4_2 C1_2 1_555 1_555
O5_2 Zn1_2 1_555 1_555
O6_2 Zn1_2 1_555 1_555
C3_2 O6_2 1_555 1_555
C4_2 O5_2 1_555 1_555
O13 C4_2 1_555 1_555
O15 C3_2 1_555 1_555
O9_2 Zn1_2 1_555 1_555
O10_2 Zn1_2 1_555 1_555
C5_2 O10_2 1_555 1_555
C6_2 O9_2 1_555 1_555
O11_2 C6_2 1_555 1_555
O12_2 C5_2 1_555 1_555
Zn4 O3_2 1_555 1_555
Zn3_2 O11_2 1_555 1_555
O14_2 Zn4 1_555 1_555
O16_2 Zn4 1_555 1_555
O4_2 Zn4 1_555 1_555
C3_2 C4_2 1_555 1_555
C5_2 C6_2 1_555 1_555
O12_2 Zn3_2 1_555 1_555
O1_3 C2_3 1_555 1_555
O3_3 C2_3 1_555 1_555
Zn3 O3_3 1_555 1_555
O13_2 Zn3 1_555 1_555
O15_2 Zn3 1_555 1_555
O4_3 Zn3 1_555 1_555
O2_3 Zn1_3 1_555 1_555
C1_3 O2_3 1_555 1_555
O5_3 Zn1_3 1_555 1_555
O6_3 Zn1_3 1_555 1_555
C3_3 O6_3 1_555 1_555
C4_3 O5_3 1_555 1_555
O7_2 C4_3 1_555 1_555
O8_2 C3_3 1_555 1_555
O10_3 Zn1_3 1_555 1_555
C5_3 O10_3 1_555 1_555
Zn3_2 O7_2 1_555 1_555
C3_3 C4_3 1_555 1_555
O8_2 Zn3_2 1_555 1_555
C6_3 O9_3 1_555 1_555
O14 C6_3 1_555 1_555
C4_4 O5_4 1_555 1_555
O13_2 C4_4 1_555 1_555
O2_4 Zn1_4 1_555 1_555
C1_4 O2_4 1_555 1_555
O6_4 Zn1_4 1_555 1_555
C3_4 O6_4 1_555 1_555
O9_4 Zn1_4 1_555 1_555
O10_4 Zn1_4 1_555 1_555
C5_4 O10_4 1_555 1_555
C6_4 O9_4 1_555 1_555
O14_2 C6_4 1_555 1_555
O16_2 C5_4 1_555 1_555
C5_4 C6_4 1_555 1_555
O1_4 C2_4 1_555 1_555
O3_4 C2_4 1_555 1_555
Zn3_2 O3_4 1_555 1_555
O4_4 Zn3_2 1_555 1_555

#END
