
###############################################################################
#
# This file contains modified crystal structure data generated from the
# MOF subset of the Cambridge Structural Database (CSD) v543 
# hosted by the Cambridge Crystallographic Data Centre (CCDC).
#
# This work is licensed under the Creative Commons
# Attribution-NonCommercial-ShareAlike 4.0 International License.
# To view a copy of this license, visit
# http://creativecommons.org/licenses/by-nc-sa/4.0/
# or send a letter to
# Creative Commons, PO Box 1866, Mountain View, CA 94042, USA.
#
# CIF created using the CSD Python API on 29 September 2022
# The structure has been converted into the P1 space group
# The structure has a 3D framework
# The original CSD entry YIJZIC05 is in the cubic crystal system
# The original CSD entry YIJZIC05 is in a Sohncke space group
# The framework has been calculated to contain at least 10.0% void space
# The void calculation uses a probe of radius 1.32A, grid spacing 0.4
#
###############################################################################

data_YIJZIC05
_chemical_formula_moiety         '(C24 O46 Zn8)n'
_symmetry_cell_setting           triclinic
_symmetry_space_group_name_H-M   'P 1'
_symmetry_Int_Tables_number      1
_space_group_name_Hall           'P 1'
loop_
_symmetry_equiv_pos_site_id
_symmetry_equiv_pos_as_xyz
1 x,y,z
_cell_length_a                   15.3625(4)
_cell_length_b                   15.3625(4)
_cell_length_c                   15.3625(4)
_cell_angle_alpha                90
_cell_angle_beta                 90
_cell_angle_gamma                90
_cell_volume                     3625.65
loop_
_atom_site_label
_atom_site_type_symbol
_atom_site_fract_x
_atom_site_fract_y
_atom_site_fract_z
O5 O 0.0279(4) 0.3803(4) 0.1118(4)
C4 C 0.0524(5) 0.3024(5) 0.1250
O7 O 0.1303(4) 0.2779(4) 0.1382(4)
O8 O 0.0063(4) 0.1546(4) 0.1302(5)
Zn4 Zn 0.14212(6) 0.14212(6) 0.14212(6)
Zn1 Zn 0.89212(6) 0.39212(6) 0.10788(6)
O2 O 0.7563(4) 0.3802(5) 0.0954(4)
C1 C 0.7315(5) 0.3750 0.0185(5)
O6 O 0.9046(4) 0.2563(4) 0.1198(5)
C3 C 0.9815(5) 0.2315(5) 0.1250
O9 O 0.8882(4) 0.5279(4) 0.1197(4)
O10 O 0.8802(5) 0.4046(4) 0.2437(4)
C5 C 0.8750 0.4815(5) 0.2685(5)
C6 C 0.8750 0.5524(5) 0.1976(5)
O11 O 0.8618(4) 0.6303(4) 0.2221(4)
O12 O 0.8698(5) 0.5063(4) 0.3454(4)
Zn3 Zn 0.85788(6) 0.64212(6) 0.35788(6)
O1 O 0.8803(4) 0.3882(4) 0.9721(4)
C2 C 0.8024(5) 0.3750 0.9476(5)
O3 O 0.7779(4) 0.3618(4) 0.8697(4)
O4 O 0.6546(4) 0.3698(5) 0.9937(4)
Zn2 Zn 0.64212(6) 0.35788(6) 0.85788(6)
O13 O 0.6382(4) 0.3697(4) 0.7221(4)
O14 O 0.6303(4) 0.2221(4) 0.8618(4)
O15 O 0.6302(5) 0.4937(4) 0.8454(4)
O16 O 0.5063(4) 0.3454(4) 0.8698(5)
C3_2 C 0.0185(5) 0.7315(5) 0.3750
O8_2 O 0.0954(4) 0.7563(4) 0.3802(5)
Zn4_2 Zn 0.10788(6) 0.89212(6) 0.39212(6)
O5_2 O 0.8697(4) 0.7779(4) 0.3618(4)
O6_2 O 0.9937(4) 0.6546(4) 0.3698(5)
C4_2 C 0.9476(5) 0.8024(5) 0.3750
O7_2 O 0.9721(4) 0.8803(4) 0.3882(4)
O9_2 O 0.7221(4) 0.6382(4) 0.3697(4)
O10_2 O 0.8454(4) 0.6302(5) 0.4937(4)
C5_2 C 0.7685(5) 0.6250 0.5185(5)
C6_2 C 0.6976(5) 0.6250 0.4476(5)
O11_2 O 0.6197(4) 0.6118(4) 0.4721(4)
O12_2 O 0.7437(4) 0.6198(5) 0.5954(4)
Zn3_2 Zn 0.60788(6) 0.60788(6) 0.60788(6)
O5_3 O 0.4721(4) 0.6197(4) 0.6118(4)
O6_3 O 0.5954(4) 0.7437(4) 0.6198(5)
C3_3 C 0.5185(5) 0.7685(5) 0.6250
C4_3 C 0.4476(5) 0.6976(5) 0.6250
O7_3 O 0.3697(4) 0.7221(4) 0.6382(4)
O8_3 O 0.4937(4) 0.8454(4) 0.6302(5)
O9_3 O 0.6118(4) 0.4721(4) 0.6197(4)
O10_3 O 0.6198(5) 0.5954(4) 0.7437(4)
C5_3 C 0.6250 0.5185(5) 0.7685(5)
C6_3 C 0.6250 0.4476(5) 0.6976(5)
Zn4_3 Zn 0.35788(6) 0.85788(6) 0.64212(6)
C3_4 C 0.4815(5) 0.2685(5) 0.8750
C4_4 C 0.5524(5) 0.1976(5) 0.8750
O7_4 O 0.5279(4) 0.1197(4) 0.8882(4)
O8_4 O 0.4046(4) 0.2437(4) 0.8802(5)
Zn4_4 Zn 0.39212(6) 0.10788(6) 0.89212(6)
O5_4 O 0.2779(4) 0.1382(4) 0.1303(4)
O6_4 O 0.1546(4) 0.1302(5) 0.0063(4)
C4_5 C 0.3024(5) 0.1250 0.0524(5)
O7_5 O 0.3803(4) 0.1118(4) 0.0279(4)
O9_4 O 0.1382(4) 0.1303(4) 0.2779(4)
O10_4 O 0.1302(5) 0.0063(4) 0.1546(4)
C6_4 C 0.1250 0.0524(5) 0.3024(5)
O11_3 O 0.1118(4) 0.0279(4) 0.3803(4)
C3_5 C 0.2315(5) 0.1250 0.9815(5)
O8_5 O 0.2563(4) 0.1198(5) 0.9046(4)
C5_4 C 0.1250 0.9815(5) 0.2315(5)
O12_3 O 0.1198(5) 0.9046(4) 0.2563(4)
O10_5 O 0.3802(5) 0.0954(4) 0.7563(4)
C5_5 C 0.3750 0.0185(5) 0.7315(5)
O9_5 O 0.3882(4) 0.9721(4) 0.8803(4)
C6_5 C 0.3750 0.9476(5) 0.8024(5)
O11_4 O 0.3618(4) 0.8697(4) 0.7779(4)
O12_4 O 0.3698(5) 0.9937(4) 0.6546(4)
O1_2 O 0.1197(4) 0.8882(4) 0.5279(4)
O2_2 O 0.2437(4) 0.8802(5) 0.4046(4)
C1_2 C 0.2685(5) 0.8750 0.4815(5)
C2_2 C 0.1976(5) 0.8750 0.5524(5)
O3_2 O 0.2221(4) 0.8618(4) 0.6303(4)
O4_2 O 0.3454(4) 0.8698(5) 0.5063(4)
loop_
_geom_bond_atom_site_label_1
_geom_bond_atom_site_label_2
_geom_bond_site_symmetry_1
_geom_bond_site_symmetry_2
C4 O5 1_555 1_555
O7 C4 1_555 1_555
Zn4 O7 1_555 1_555
O8 Zn4 1_555 1_555
O2 Zn1 1_555 1_555
C1 O2 1_555 1_555
O6 Zn1 1_555 1_555
C3 O6 1_555 1_555
O9 Zn1 1_555 1_555
O10 Zn1 1_555 1_555
C5 O10 1_555 1_555
C6 O9 1_555 1_555
O11 C6 1_555 1_555
O12 C5 1_555 1_555
Zn3 O11 1_555 1_555
C5 C6 1_555 1_555
O12 Zn3 1_555 1_555
O1 C2 1_555 1_555
O3 C2 1_555 1_555
Zn2 O3 1_555 1_555
O13 Zn2 1_555 1_555
O14 Zn2 1_555 1_555
O15 Zn2 1_555 1_555
O16 Zn2 1_555 1_555
O4 Zn2 1_555 1_555
O8_2 C3_2 1_555 1_555
O8_2 Zn4_2 1_555 1_555
O5_2 Zn3 1_555 1_555
O6_2 Zn3 1_555 1_555
C4_2 O5_2 1_555 1_555
O7_2 C4_2 1_555 1_555
O9_2 Zn3 1_555 1_555
O10_2 Zn3 1_555 1_555
C5_2 O10_2 1_555 1_555
C6_2 O9_2 1_555 1_555
O11_2 C6_2 1_555 1_555
O12_2 C5_2 1_555 1_555
Zn3_2 O11_2 1_555 1_555
C5_2 C6_2 1_555 1_555
O12_2 Zn3_2 1_555 1_555
O5_3 Zn3_2 1_555 1_555
O6_3 Zn3_2 1_555 1_555
C3_3 O6_3 1_555 1_555
C4_3 O5_3 1_555 1_555
O7_3 C4_3 1_555 1_555
O8_3 C3_3 1_555 1_555
O9_3 Zn3_2 1_555 1_555
O10_3 Zn3_2 1_555 1_555
C5_3 O10_3 1_555 1_555
C6_3 O9_3 1_555 1_555
O13 C6_3 1_555 1_555
O15 C5_3 1_555 1_555
Zn4_3 O7_3 1_555 1_555
C3_3 C4_3 1_555 1_555
O8_3 Zn4_3 1_555 1_555
C5_3 C6_3 1_555 1_555
C3_4 O16 1_555 1_555
C4_4 O14 1_555 1_555
O7_4 C4_4 1_555 1_555
O8_4 C3_4 1_555 1_555
Zn4_4 O7_4 1_555 1_555
C3_4 C4_4 1_555 1_555
O8_4 Zn4_4 1_555 1_555
O5_4 Zn4 1_555 1_555
O6_4 Zn4 1_555 1_555
C4_5 O5_4 1_555 1_555
O7_5 C4_5 1_555 1_555
O9_4 Zn4 1_555 1_555
O10_4 Zn4 1_555 1_555
C6_4 O9_4 1_555 1_555
O11_3 C6_4 1_555 1_555
O8_5 C3_5 1_555 1_555
O8_5 Zn4_4 1_555 1_555
O12_3 C5_4 1_555 1_555
O12_3 Zn4_2 1_555 1_555
O10_5 Zn4_4 1_555 1_555
C5_5 O10_5 1_555 1_555
C6_5 O9_5 1_555 1_555
O11_4 C6_5 1_555 1_555
Zn4_3 O11_4 1_555 1_555
O12_4 Zn4_3 1_555 1_555
Zn4_2 O1_2 1_555 1_555
O1_2 C2_2 1_555 1_555
O2_2 Zn4_2 1_555 1_555
C1_2 O2_2 1_555 1_555
C2_2 C1_2 1_555 1_555
O3_2 C2_2 1_555 1_555
O4_2 C1_2 1_555 1_555
Zn4_3 O3_2 1_555 1_555
O4_2 Zn4_3 1_555 1_555

#END
