
###############################################################################
#
# This file contains modified crystal structure data generated from the
# MOF subset of the Cambridge Structural Database (CSD) v543 
# hosted by the Cambridge Crystallographic Data Centre (CCDC).
#
# This work is licensed under the Creative Commons
# Attribution-NonCommercial-ShareAlike 4.0 International License.
# To view a copy of this license, visit
# http://creativecommons.org/licenses/by-nc-sa/4.0/
# or send a letter to
# Creative Commons, PO Box 1866, Mountain View, CA 94042, USA.
#
# CIF created using the CSD Python API on 29 September 2022
# The structure has been converted into the P1 space group
# The structure has a 3D framework
# The original CSD entry YIKJOT is in the cubic crystal system
# The framework has been calculated to contain at least 10.0% void space
# The void calculation uses a probe of radius 1.32A, grid spacing 0.4
# The framework is charged, counterions have been retained in the structure
# H atom positions have been added when not included in the experimental data
#
###############################################################################

data_YIKJOT
_chemical_formula_moiety         '(C1536 H1920 Ag384 Cr192 N2304 O696 192+)n'
_symmetry_cell_setting           triclinic
_symmetry_space_group_name_H-M   'P 1'
_symmetry_Int_Tables_number      1
_space_group_name_Hall           'P 1'
loop_
_symmetry_equiv_pos_site_id
_symmetry_equiv_pos_as_xyz
1 x,y,z
_cell_length_a                   49.869(2)
_cell_length_b                   49.869(2)
_cell_length_c                   49.869(2)
_cell_angle_alpha                90
_cell_angle_beta                 90
_cell_angle_gamma                90
_cell_volume                     124020
loop_
_atom_site_label
_atom_site_type_symbol
_atom_site_fract_x
_atom_site_fract_y
_atom_site_fract_z
Cr1 Cr 0.51961(3) 0.32260(3) 0.10968(3)
O1 O 0.5047(3) 0.3054(3) 0.1307(4)
O2 O 0.5460(2) 0.3341(4) 0.1186(3)
O3 O 0.5243(3) 0.3010(2) 0.0865(2)
O4 O 0.5000 0.35107(18) 0.10107(18)
Cr2 Cr 0.48039(3) 0.35968(3) 0.07260(3)
O5 O 0.4953(3) 0.3807(4) 0.0554(3)
O6 O 0.4540(2) 0.3686(3) 0.0841(4)
O7 O 0.4757(3) 0.3365(2) 0.0510(2)
H9 H 0.506714 0.294134 0.0801689
H10 H 0.466358 0.321178 0.0596291
H9_2 H 0.493286 0.330169 0.0441337
H10_2 H 0.533642 0.309629 0.0711779
Cr1_2 Cr 0.67740(3) 0.76961(3) 0.85968(3)
O1_2 O 0.6946(3) 0.7547(3) 0.8807(4)
O2_2 O 0.6659(4) 0.7960(2) 0.8686(3)
O3_2 O 0.6990(2) 0.7743(3) 0.8365(2)
O4_2 O 0.64893(18) 0.7500 0.85107(18)
Cr2_2 Cr 0.64032(3) 0.73039(3) 0.82260(3)
O5_2 O 0.6193(4) 0.7453(3) 0.8054(3)
O6_2 O 0.6314(3) 0.7040(2) 0.8341(4)
O7_2 O 0.6635(2) 0.7257(3) 0.8010(2)
H9_3 H 0.705866 0.756714 0.830169
H10_3 H 0.678822 0.716358 0.809629
H9_4 H 0.669831 0.743286 0.794134
H10_4 H 0.690371 0.783642 0.821178
Cr1_3 Cr 0.73039(3) 0.92740(3) 0.10968(3)
O1_3 O 0.7453(3) 0.9446(3) 0.1307(4)
O2_3 O 0.7040(2) 0.9159(4) 0.1186(3)
O3_3 O 0.7257(3) 0.9490(2) 0.0865(2)
O4_3 O 0.7500 0.89893(18) 0.10107(18)
Cr2_3 Cr 0.76961(3) 0.89032(3) 0.07260(3)
O5_3 O 0.7547(3) 0.8693(4) 0.0554(3)
O6_3 O 0.7960(2) 0.8814(3) 0.0841(4)
O7_3 O 0.7743(3) 0.9135(2) 0.0510(2)
H9_5 H 0.743286 0.955866 0.0801689
H10_5 H 0.783642 0.928822 0.0596291
H9_6 H 0.756714 0.919831 0.0441337
H10_6 H 0.716358 0.940371 0.0711779
Cr1_4 Cr 0.57260(3) 0.48039(3) 0.85968(3)
O1_4 O 0.5554(3) 0.4953(3) 0.8807(4)
O2_4 O 0.5841(4) 0.4540(2) 0.8686(3)
O3_4 O 0.5510(2) 0.4757(3) 0.8365(2)
O4_4 O 0.60107(18) 0.5000 0.85107(18)
Cr2_4 Cr 0.60968(3) 0.51961(3) 0.82260(3)
O5_4 O 0.6307(4) 0.5047(3) 0.8054(3)
O6_4 O 0.6186(3) 0.5460(2) 0.8341(4)
O7_4 O 0.5865(2) 0.5243(3) 0.8010(2)
H9_7 H 0.544134 0.493286 0.830169
H10_7 H 0.571178 0.533642 0.809629
H9_8 H 0.580169 0.506714 0.794134
H10_8 H 0.559629 0.466358 0.821178
Cr1_5 Cr 0.51961(3) 0.92740(3) 0.14032(3)
O1_5 O 0.5047(3) 0.9446(3) 0.1193(4)
O2_5 O 0.5460(2) 0.9159(4) 0.1314(3)
O3_5 O 0.5243(3) 0.9490(2) 0.1635(2)
O4_5 O 0.5000 0.89893(18) 0.14893(18)
Cr2_5 Cr 0.48039(3) 0.89032(3) 0.17740(3)
O5_5 O 0.4953(3) 0.8693(4) 0.1946(3)
O6_5 O 0.4540(2) 0.8814(3) 0.1659(4)
O7_5 O 0.4757(3) 0.9135(2) 0.1990(2)
H9_9 H 0.506714 0.955866 0.169831
H10_9 H 0.466358 0.928822 0.190371
H9_10 H 0.493286 0.919831 0.205866
H10_10 H 0.533642 0.940371 0.178822
Cr1_6 Cr 0.76961(3) 0.85968(3) 0.67740(3)
O1_6 O 0.7547(3) 0.8807(4) 0.6946(3)
O2_6 O 0.7960(2) 0.8686(3) 0.6659(4)
O3_6 O 0.7743(3) 0.8365(2) 0.6990(2)
O4_6 O 0.7500 0.85107(18) 0.64893(18)
Cr2_6 Cr 0.73039(3) 0.82260(3) 0.64032(3)
O5_6 O 0.7453(3) 0.8054(3) 0.6193(4)
O6_6 O 0.7040(2) 0.8341(4) 0.6314(3)
O7_6 O 0.7257(3) 0.8010(2) 0.6635(2)
H9_11 H 0.756714 0.830169 0.705866
H10_11 H 0.716358 0.809629 0.678822
H9_12 H 0.743286 0.794134 0.669831
H10_12 H 0.783642 0.821178 0.690371
Cr1_7 Cr 0.35968(3) 0.07260(3) 0.48039(3)
O1_7 O 0.3807(4) 0.0554(3) 0.4953(3)
O2_7 O 0.3686(3) 0.0841(4) 0.4540(2)
O3_7 O 0.3365(2) 0.0510(2) 0.4757(3)
O4_7 O 0.35107(18) 0.10107(18) 0.5000
Cr2_7 Cr 0.32260(3) 0.10968(3) 0.51961(3)
O5_7 O 0.3054(3) 0.1307(4) 0.5047(3)
O6_7 O 0.3341(4) 0.1186(3) 0.5460(2)
O7_7 O 0.3010(2) 0.0865(2) 0.5243(3)
H9_13 H 0.330169 0.0441337 0.493286
H10_13 H 0.309629 0.0711779 0.533642
H9_14 H 0.294134 0.0801689 0.506714
H10_14 H 0.321178 0.0596291 0.466358
Cr1_8 Cr 0.73039(3) 0.32260(3) 0.14032(3)
O1_8 O 0.7453(3) 0.3054(3) 0.1193(4)
O2_8 O 0.7040(2) 0.3341(4) 0.1314(3)
O3_8 O 0.7257(3) 0.3010(2) 0.1635(2)
O4_8 O 0.7500 0.35107(18) 0.14893(18)
Cr2_8 Cr 0.76961(3) 0.35968(3) 0.17740(3)
O5_8 O 0.7547(3) 0.3807(4) 0.1946(3)
O6_8 O 0.7960(2) 0.3686(3) 0.1659(4)
O7_8 O 0.7743(3) 0.3365(2) 0.1990(2)
H9_15 H 0.743286 0.294134 0.169831
H10_15 H 0.783642 0.321178 0.190371
H9_16 H 0.756714 0.330169 0.205866
H10_16 H 0.716358 0.309629 0.178822
Cr1_9 Cr 0.89032(3) 0.57260(3) 0.26961(3)
O1_9 O 0.8693(4) 0.5554(3) 0.2547(3)
O2_9 O 0.8814(3) 0.5841(4) 0.2960(2)
O3_9 O 0.9135(2) 0.5510(2) 0.2743(3)
O4_9 O 0.89893(18) 0.60107(18) 0.2500
Cr2_9 Cr 0.92740(3) 0.60968(3) 0.23039(3)
O5_9 O 0.9446(3) 0.6307(4) 0.2453(3)
O6_9 O 0.9159(4) 0.6186(3) 0.2040(2)
O7_9 O 0.9490(2) 0.5865(2) 0.2257(3)
H9_17 H 0.919831 0.544134 0.256714
H10_17 H 0.940371 0.571178 0.216358
H9_18 H 0.955866 0.580169 0.243286
H10_18 H 0.928822 0.559629 0.283642
Cr1_10 Cr 0.10968(3) 0.51961(3) 0.32260(3)
O1_10 O 0.1307(4) 0.5047(3) 0.3054(3)
O2_10 O 0.1186(3) 0.5460(2) 0.3341(4)
O3_10 O 0.0865(2) 0.5243(3) 0.3010(2)
O4_10 O 0.10107(18) 0.5000 0.35107(18)
Cr2_10 Cr 0.07260(3) 0.48039(3) 0.35968(3)
O5_10 O 0.0554(3) 0.4953(3) 0.3807(4)
O6_10 O 0.0841(4) 0.4540(2) 0.3686(3)
O7_10 O 0.0510(2) 0.4757(3) 0.3365(2)
H9_19 H 0.0801689 0.506714 0.294134
H10_19 H 0.0596291 0.466358 0.321178
H9_20 H 0.0441337 0.493286 0.330169
H10_20 H 0.0711779 0.533642 0.309629
Cr1_11 Cr 0.92740(3) 0.14032(3) 0.51961(3)
O1_11 O 0.9446(3) 0.1193(4) 0.5047(3)
O2_11 O 0.9159(4) 0.1314(3) 0.5460(2)
O3_11 O 0.9490(2) 0.1635(2) 0.5243(3)
O4_11 O 0.89893(18) 0.14893(18) 0.5000
Cr2_11 Cr 0.89032(3) 0.17740(3) 0.48039(3)
O5_11 O 0.8693(4) 0.1946(3) 0.4953(3)
O6_11 O 0.8814(3) 0.1659(4) 0.4540(2)
O7_11 O 0.9135(2) 0.1990(2) 0.4757(3)
H9_21 H 0.955866 0.169831 0.506714
H10_21 H 0.928822 0.190371 0.466358
H9_22 H 0.919831 0.205866 0.493286
H10_22 H 0.940371 0.178822 0.533642
Cr1_12 Cr 0.10968(3) 0.73039(3) 0.92740(3)
O1_12 O 0.1307(4) 0.7453(3) 0.9446(3)
O2_12 O 0.1186(3) 0.7040(2) 0.9159(4)
O3_12 O 0.0865(2) 0.7257(3) 0.9490(2)
O4_12 O 0.10107(18) 0.7500 0.89893(18)
Cr2_12 Cr 0.07260(3) 0.76961(3) 0.89032(3)
O5_12 O 0.0554(3) 0.7547(3) 0.8693(4)
O6_12 O 0.0841(4) 0.7960(2) 0.8814(3)
O7_12 O 0.0510(2) 0.7743(3) 0.9135(2)
H9_23 H 0.0801689 0.743286 0.955866
H10_23 H 0.0596291 0.783642 0.928822
H9_24 H 0.0441337 0.756714 0.919831
H10_24 H 0.0711779 0.716358 0.940371
Cr1_13 Cr 0.92740(3) 0.10968(3) 0.73039(3)
O1_13 O 0.9446(3) 0.1307(4) 0.7453(3)
O2_13 O 0.9159(4) 0.1186(3) 0.7040(2)
O3_13 O 0.9490(2) 0.0865(2) 0.7257(3)
O4_13 O 0.89893(18) 0.10107(18) 0.7500
Cr2_13 Cr 0.89032(3) 0.07260(3) 0.76961(3)
O5_13 O 0.8693(4) 0.0554(3) 0.7547(3)
O6_13 O 0.8814(3) 0.0841(4) 0.7960(2)
O7_13 O 0.9135(2) 0.0510(2) 0.7743(3)
H9_25 H 0.955866 0.0801689 0.743286
H10_25 H 0.928822 0.0596291 0.783642
H9_26 H 0.919831 0.0441337 0.756714
H10_26 H 0.940371 0.0711779 0.716358
Cr1_14 Cr 0.14032(3) 0.73039(3) 0.32260(3)
O1_14 O 0.1193(4) 0.7453(3) 0.3054(3)
O2_14 O 0.1314(3) 0.7040(2) 0.3341(4)
O3_14 O 0.1635(2) 0.7257(3) 0.3010(2)
O4_14 O 0.14893(18) 0.7500 0.35107(18)
Cr2_14 Cr 0.17740(3) 0.76961(3) 0.35968(3)
O5_14 O 0.1946(3) 0.7547(3) 0.3807(4)
O6_14 O 0.1659(4) 0.7960(2) 0.3686(3)
O7_14 O 0.1990(2) 0.7743(3) 0.3365(2)
H9_27 H 0.169831 0.743286 0.294134
H10_27 H 0.190371 0.783642 0.321178
H9_28 H 0.205866 0.756714 0.330169
H10_28 H 0.178822 0.716358 0.309629
Cr1_15 Cr 0.14032(3) 0.51961(3) 0.92740(3)
O1_15 O 0.1193(4) 0.5047(3) 0.9446(3)
O2_15 O 0.1314(3) 0.5460(2) 0.9159(4)
O3_15 O 0.1635(2) 0.5243(3) 0.9490(2)
O4_15 O 0.14893(18) 0.5000 0.89893(18)
Cr2_15 Cr 0.17740(3) 0.48039(3) 0.89032(3)
O5_15 O 0.1946(3) 0.4953(3) 0.8693(4)
O6_15 O 0.1659(4) 0.4540(2) 0.8814(3)
O7_15 O 0.1990(2) 0.4757(3) 0.9135(2)
H9_29 H 0.169831 0.506714 0.955866
H10_29 H 0.190371 0.466358 0.928822
H9_30 H 0.205866 0.493286 0.919831
H10_30 H 0.178822 0.533642 0.940371
Cr1_16 Cr 0.32260(3) 0.14032(3) 0.73039(3)
O1_16 O 0.3054(3) 0.1193(4) 0.7453(3)
O2_16 O 0.3341(4) 0.1314(3) 0.7040(2)
O3_16 O 0.3010(2) 0.1635(2) 0.7257(3)
O4_16 O 0.35107(18) 0.14893(18) 0.7500
Cr2_16 Cr 0.35968(3) 0.17740(3) 0.76961(3)
O5_16 O 0.3807(4) 0.1946(3) 0.7547(3)
O6_16 O 0.3686(3) 0.1659(4) 0.7960(2)
O7_16 O 0.3365(2) 0.1990(2) 0.7743(3)
H9_31 H 0.294134 0.169831 0.743286
H10_31 H 0.321178 0.190371 0.783642
H9_32 H 0.330169 0.205866 0.756714
H10_32 H 0.309629 0.178822 0.716358
Cr1_17 Cr 0.57260(3) 0.26961(3) 0.89032(3)
O1_17 O 0.5554(3) 0.2547(3) 0.8693(4)
O2_17 O 0.5841(4) 0.2960(2) 0.8814(3)
O3_17 O 0.5510(2) 0.2743(3) 0.9135(2)
O4_17 O 0.60107(18) 0.2500 0.89893(18)
Cr2_17 Cr 0.60968(3) 0.23039(3) 0.92740(3)
O5_17 O 0.6307(4) 0.2453(3) 0.9446(3)
O6_17 O 0.6186(3) 0.2040(2) 0.9159(4)
O7_17 O 0.5865(2) 0.2257(3) 0.9490(2)
H9_33 H 0.544134 0.256714 0.919831
H10_33 H 0.571178 0.216358 0.940371
H9_34 H 0.580169 0.243286 0.955866
H10_34 H 0.559629 0.283642 0.928822
Cr1_18 Cr 0.67740(3) 0.48039(3) 0.39032(3)
O1_18 O 0.6946(3) 0.4953(3) 0.3693(4)
O2_18 O 0.6659(4) 0.4540(2) 0.3814(3)
O3_18 O 0.6990(2) 0.4757(3) 0.4135(2)
O4_18 O 0.64893(18) 0.5000 0.39893(18)
Cr2_18 Cr 0.64032(3) 0.51961(3) 0.42740(3)
O5_18 O 0.6193(4) 0.5047(3) 0.4446(3)
O6_18 O 0.6314(3) 0.5460(2) 0.4159(4)
O7_18 O 0.6635(2) 0.5243(3) 0.4490(2)
H9_35 H 0.705866 0.493286 0.419831
H10_35 H 0.678822 0.533642 0.440371
H9_36 H 0.669831 0.506714 0.455866
H10_36 H 0.690371 0.466358 0.428822
Cr1_19 Cr 0.35968(3) 0.67740(3) 0.26961(3)
O1_19 O 0.3807(4) 0.6946(3) 0.2547(3)
O2_19 O 0.3686(3) 0.6659(4) 0.2960(2)
O3_19 O 0.3365(2) 0.6990(2) 0.2743(3)
O4_19 O 0.35107(18) 0.64893(18) 0.2500
Cr2_19 Cr 0.32260(3) 0.64032(3) 0.23039(3)
O5_19 O 0.3054(3) 0.6193(4) 0.2453(3)
O6_19 O 0.3341(4) 0.6314(3) 0.2040(2)
O7_19 O 0.3010(2) 0.6635(2) 0.2257(3)
H9_37 H 0.330169 0.705866 0.256714
H10_37 H 0.309629 0.678822 0.216358
H9_38 H 0.294134 0.669831 0.243286
H10_38 H 0.321178 0.690371 0.283642
O4_20 O 0.89893(18) 0.64893(18) 0.0000
Cr2_20 Cr 0.92740(3) 0.64032(3) 0.01961(3)
O5_20 O 0.9446(3) 0.6193(4) 0.0047(3)
O6_20 O 0.9159(4) 0.6314(3) 0.0460(2)
O7_20 O 0.9490(2) 0.6635(2) 0.0243(3)
H10_39 H 0.940371 0.678822 0.0336417
H9_39 H 0.955866 0.669831 0.00671407
Cr1_20 Cr 0.89032(3) 0.67740(3) 0.98039(3)
O1_20 O 0.8693(4) 0.6946(3) 0.9953(3)
O2_20 O 0.8814(3) 0.6659(4) 0.9540(2)
O3_20 O 0.9135(2) 0.6990(2) 0.9757(3)
O4_21 O 0.89893(18) 0.64893(18) 1.0000
H9_40 H 0.919831 0.705866 0.993286
H10_40 H 0.928822 0.690371 0.966358
Cr1_21 Cr 0.51961(3) 0.82260(3) 0.60968(3)
O1_21 O 0.5047(3) 0.8054(3) 0.6307(4)
O2_21 O 0.5460(2) 0.8341(4) 0.6186(3)
O3_21 O 0.5243(3) 0.8010(2) 0.5865(2)
O4_22 O 0.5000 0.85107(18) 0.60107(18)
Cr2_21 Cr 0.48039(3) 0.85968(3) 0.57260(3)
O5_21 O 0.4953(3) 0.8807(4) 0.5554(3)
O6_21 O 0.4540(2) 0.8686(3) 0.5841(4)
O7_21 O 0.4757(3) 0.8365(2) 0.5510(2)
H9_41 H 0.506714 0.794134 0.580169
H10_41 H 0.466358 0.821178 0.559629
H9_42 H 0.493286 0.830169 0.544134
H10_42 H 0.533642 0.809629 0.571178
Cr1_22 Cr 0.67740(3) 0.26961(3) 0.35968(3)
O1_22 O 0.6946(3) 0.2547(3) 0.3807(4)
O2_22 O 0.6659(4) 0.2960(2) 0.3686(3)
O3_22 O 0.6990(2) 0.2743(3) 0.3365(2)
O4_23 O 0.64893(18) 0.2500 0.35107(18)
Cr2_22 Cr 0.64032(3) 0.23039(3) 0.32260(3)
O5_22 O 0.6193(4) 0.2453(3) 0.3054(3)
O6_22 O 0.6314(3) 0.2040(2) 0.3341(4)
O7_22 O 0.6635(2) 0.2257(3) 0.3010(2)
H9_43 H 0.705866 0.256714 0.330169
H10_43 H 0.678822 0.216358 0.309629
H9_44 H 0.669831 0.243286 0.294134
H10_44 H 0.690371 0.283642 0.321178
Cr1_23 Cr 0.73039(3) 0.42740(3) 0.60968(3)
O1_23 O 0.7453(3) 0.4446(3) 0.6307(4)
O2_23 O 0.7040(2) 0.4159(4) 0.6186(3)
O3_23 O 0.7257(3) 0.4490(2) 0.5865(2)
O4_24 O 0.7500 0.39893(18) 0.60107(18)
Cr2_23 Cr 0.76961(3) 0.39032(3) 0.57260(3)
O5_23 O 0.7547(3) 0.3693(4) 0.5554(3)
O6_23 O 0.7960(2) 0.3814(3) 0.5841(4)
O7_23 O 0.7743(3) 0.4135(2) 0.5510(2)
H9_45 H 0.743286 0.455866 0.580169
H10_45 H 0.783642 0.428822 0.559629
H9_46 H 0.756714 0.419831 0.544134
H10_46 H 0.716358 0.440371 0.571178
O4_25 O 0.60107(18) -0.0000 0.35107(18)
Cr2_24 Cr 0.60968(3) 0.01961(3) 0.32260(3)
O5_24 O 0.6307(4) 0.0047(3) 0.3054(3)
O6_24 O 0.6186(3) 0.0460(2) 0.3341(4)
O7_24 O 0.5865(2) 0.0243(3) 0.3010(2)
H10_47 H 0.571178 0.0336417 0.309629
H9_47 H 0.580169 0.00671407 0.294134
Cr1_24 Cr 0.57260(3) 0.98039(3) 0.35968(3)
O1_24 O 0.5554(3) 0.9953(3) 0.3807(4)
O2_24 O 0.5841(4) 0.9540(2) 0.3686(3)
O3_24 O 0.5510(2) 0.9757(3) 0.3365(2)
O4_26 O 0.60107(18) 1.0000 0.35107(18)
H9_48 H 0.544134 0.993286 0.330169
H10_48 H 0.559629 0.966358 0.321178
Cr1_25 Cr 0.51961(3) 0.42740(3) 0.64032(3)
O1_25 O 0.5047(3) 0.4446(3) 0.6193(4)
O2_25 O 0.5460(2) 0.4159(4) 0.6314(3)
O3_25 O 0.5243(3) 0.4490(2) 0.6635(2)
O4_27 O 0.5000 0.39893(18) 0.64893(18)
Cr2_25 Cr 0.48039(3) 0.39032(3) 0.67740(3)
O5_25 O 0.4953(3) 0.3693(4) 0.6946(3)
O6_25 O 0.4540(2) 0.3814(3) 0.6659(4)
O7_25 O 0.4757(3) 0.4135(2) 0.6990(2)
H9_49 H 0.506714 0.455866 0.669831
H10_49 H 0.466358 0.428822 0.690371
H9_50 H 0.493286 0.419831 0.705866
H10_50 H 0.533642 0.440371 0.678822
O4_28 O 0.35107(18) 0.60107(18) 0.0000
Cr2_26 Cr 0.32260(3) 0.60968(3) 0.01961(3)
O5_26 O 0.3054(3) 0.6307(4) 0.0047(3)
O6_26 O 0.3341(4) 0.6186(3) 0.0460(2)
O7_26 O 0.3010(2) 0.5865(2) 0.0243(3)
H10_51 H 0.309629 0.571178 0.0336417
H9_51 H 0.294134 0.580169 0.00671407
Cr1_26 Cr 0.35968(3) 0.57260(3) 0.98039(3)
O1_26 O 0.3807(4) 0.5554(3) 0.9953(3)
O2_26 O 0.3686(3) 0.5841(4) 0.9540(2)
O3_26 O 0.3365(2) 0.5510(2) 0.9757(3)
O4_29 O 0.35107(18) 0.60107(18) 1.0000
H9_52 H 0.330169 0.544134 0.993286
H10_52 H 0.321178 0.559629 0.966358
Cr1_27 Cr 0.10968(3) 0.01961(3) 0.82260(3)
O1_27 O 0.1307(4) 0.0047(3) 0.8054(3)
O2_27 O 0.1186(3) 0.0460(2) 0.8341(4)
O3_27 O 0.0865(2) 0.0243(3) 0.8010(2)
O4_30 O 0.10107(18) 0.0000 0.85107(18)
H9_53 H 0.0801689 0.00671407 0.794134
H10_53 H 0.0711779 0.0336417 0.809629
O4_31 O 0.10107(18) 1.0000 0.85107(18)
Cr2_27 Cr 0.07260(3) 0.98039(3) 0.85968(3)
O5_27 O 0.0554(3) 0.9953(3) 0.8807(4)
O6_27 O 0.0841(4) 0.9540(2) 0.8686(3)
O7_27 O 0.0510(2) 0.9757(3) 0.8365(2)
H10_54 H 0.0596291 0.966358 0.821178
H9_54 H 0.0441337 0.993286 0.830169
Cr1_28 Cr 0.10968(3) 0.23039(3) 0.42740(3)
O1_28 O 0.1307(4) 0.2453(3) 0.4446(3)
O2_28 O 0.1186(3) 0.2040(2) 0.4159(4)
O3_28 O 0.0865(2) 0.2257(3) 0.4490(2)
O4_32 O 0.10107(18) 0.2500 0.39893(18)
Cr2_28 Cr 0.07260(3) 0.26961(3) 0.39032(3)
O5_28 O 0.0554(3) 0.2547(3) 0.3693(4)
O6_28 O 0.0841(4) 0.2960(2) 0.3814(3)
O7_28 O 0.0510(2) 0.2743(3) 0.4135(2)
H9_55 H 0.0801689 0.243286 0.455866
H10_55 H 0.0596291 0.283642 0.428822
H9_56 H 0.0441337 0.256714 0.419831
H10_56 H 0.0711779 0.216358 0.440371
Cr1_29 Cr 0.14032(3) 0.23039(3) 0.82260(3)
O1_29 O 0.1193(4) 0.2453(3) 0.8054(3)
O2_29 O 0.1314(3) 0.2040(2) 0.8341(4)
O3_29 O 0.1635(2) 0.2257(3) 0.8010(2)
O4_33 O 0.14893(18) 0.2500 0.85107(18)
Cr2_29 Cr 0.17740(3) 0.26961(3) 0.85968(3)
O5_29 O 0.1946(3) 0.2547(3) 0.8807(4)
O6_29 O 0.1659(4) 0.2960(2) 0.8686(3)
O7_29 O 0.1990(2) 0.2743(3) 0.8365(2)
H9_57 H 0.169831 0.243286 0.794134
H10_57 H 0.190371 0.283642 0.821178
H9_58 H 0.205866 0.256714 0.830169
H10_58 H 0.178822 0.216358 0.809629
Cr1_30 Cr 0.14032(3) 0.01961(3) 0.42740(3)
O1_30 O 0.1193(4) 0.0047(3) 0.4446(3)
O2_30 O 0.1314(3) 0.0460(2) 0.4159(4)
O3_30 O 0.1635(2) 0.0243(3) 0.4490(2)
O4_34 O 0.14893(18) -0.0000 0.39893(18)
H9_59 H 0.169831 0.00671407 0.455866
H10_59 H 0.178822 0.0336417 0.440371
O4_35 O 0.14893(18) 1.0000 0.39893(18)
Cr2_30 Cr 0.17740(3) 0.98039(3) 0.39032(3)
O5_30 O 0.1946(3) 0.9953(3) 0.3693(4)
O6_30 O 0.1659(4) 0.9540(2) 0.3814(3)
O7_30 O 0.1990(2) 0.9757(3) 0.4135(2)
H10_60 H 0.190371 0.966358 0.428822
H9_60 H 0.205866 0.993286 0.419831
Cr1_31 Cr 0.57260(3) 0.76961(3) 0.39032(3)
O1_31 O 0.5554(3) 0.7547(3) 0.3693(4)
O2_31 O 0.5841(4) 0.7960(2) 0.3814(3)
O3_31 O 0.5510(2) 0.7743(3) 0.4135(2)
O4_36 O 0.60107(18) 0.7500 0.39893(18)
Cr2_31 Cr 0.60968(3) 0.73039(3) 0.42740(3)
O5_31 O 0.6307(4) 0.7453(3) 0.4446(3)
O6_31 O 0.6186(3) 0.7040(2) 0.4159(4)
O7_31 O 0.5865(2) 0.7257(3) 0.4490(2)
H9_61 H 0.544134 0.756714 0.419831
H10_61 H 0.571178 0.716358 0.440371
H9_62 H 0.580169 0.743286 0.455866
H10_62 H 0.559629 0.783642 0.428822
O4_37 O 0.64893(18) -0.0000 0.89893(18)
Cr2_32 Cr 0.64032(3) 0.01961(3) 0.92740(3)
O5_32 O 0.6193(4) 0.0047(3) 0.9446(3)
O6_32 O 0.6314(3) 0.0460(2) 0.9159(4)
O7_32 O 0.6635(2) 0.0243(3) 0.9490(2)
H10_63 H 0.678822 0.0336417 0.940371
H9_63 H 0.669831 0.00671407 0.955866
Cr1_32 Cr 0.67740(3) 0.98039(3) 0.89032(3)
O1_32 O 0.6946(3) 0.9953(3) 0.8693(4)
O2_32 O 0.6659(4) 0.9540(2) 0.8814(3)
O3_32 O 0.6990(2) 0.9757(3) 0.9135(2)
O4_38 O 0.64893(18) 1.0000 0.89893(18)
H9_64 H 0.705866 0.993286 0.919831
H10_64 H 0.690371 0.966358 0.928822
Cr1_33 Cr 0.01961(3) 0.32260(3) 0.60968(3)
O1_33 O 0.0047(3) 0.3054(3) 0.6307(4)
O2_33 O 0.0460(2) 0.3341(4) 0.6186(3)
O3_33 O 0.0243(3) 0.3010(2) 0.5865(2)
O4_39 O -0.0000 0.35107(18) 0.60107(18)
H9_65 H 0.00671407 0.294134 0.580169
H10_65 H 0.0336417 0.309629 0.571178
O4_40 O 1.0000 0.35107(18) 0.60107(18)
Cr2_33 Cr 0.98039(3) 0.35968(3) 0.57260(3)
O5_33 O 0.9953(3) 0.3807(4) 0.5554(3)
O6_33 O 0.9540(2) 0.3686(3) 0.5841(4)
O7_33 O 0.9757(3) 0.3365(2) 0.5510(2)
H10_66 H 0.966358 0.321178 0.559629
H9_66 H 0.993286 0.330169 0.544134
Cr1_34 Cr 0.23039(3) 0.92740(3) 0.60968(3)
O1_34 O 0.2453(3) 0.9446(3) 0.6307(4)
O2_34 O 0.2040(2) 0.9159(4) 0.6186(3)
O3_34 O 0.2257(3) 0.9490(2) 0.5865(2)
O4_41 O 0.2500 0.89893(18) 0.60107(18)
Cr2_34 Cr 0.26961(3) 0.89032(3) 0.57260(3)
O5_34 O 0.2547(3) 0.8693(4) 0.5554(3)
O6_34 O 0.2960(2) 0.8814(3) 0.5841(4)
O7_34 O 0.2743(3) 0.9135(2) 0.5510(2)
H9_67 H 0.243286 0.955866 0.580169
H10_67 H 0.283642 0.928822 0.559629
H9_68 H 0.256714 0.919831 0.544134
H10_68 H 0.216358 0.940371 0.571178
Cr1_35 Cr 0.01961(3) 0.92740(3) 0.64032(3)
O1_35 O 0.0047(3) 0.9446(3) 0.6193(4)
O2_35 O 0.0460(2) 0.9159(4) 0.6314(3)
O3_35 O 0.0243(3) 0.9490(2) 0.6635(2)
O4_42 O -0.0000 0.89893(18) 0.64893(18)
H9_69 H 0.00671407 0.955866 0.669831
H10_69 H 0.0336417 0.940371 0.678822
O4_43 O 1.0000 0.89893(18) 0.64893(18)
Cr2_35 Cr 0.98039(3) 0.89032(3) 0.67740(3)
O5_35 O 0.9953(3) 0.8693(4) 0.6946(3)
O6_35 O 0.9540(2) 0.8814(3) 0.6659(4)
O7_35 O 0.9757(3) 0.9135(2) 0.6990(2)
H10_70 H 0.966358 0.928822 0.690371
H9_70 H 0.993286 0.919831 0.705866
Cr1_36 Cr 0.26961(3) 0.85968(3) 0.17740(3)
O1_36 O 0.2547(3) 0.8807(4) 0.1946(3)
O2_36 O 0.2960(2) 0.8686(3) 0.1659(4)
O3_36 O 0.2743(3) 0.8365(2) 0.1990(2)
O4_44 O 0.2500 0.85107(18) 0.14893(18)
Cr2_36 Cr 0.23039(3) 0.82260(3) 0.14032(3)
O5_36 O 0.2453(3) 0.8054(3) 0.1193(4)
O6_36 O 0.2040(2) 0.8341(4) 0.1314(3)
O7_36 O 0.2257(3) 0.8010(2) 0.1635(2)
H9_71 H 0.256714 0.830169 0.205866
H10_71 H 0.216358 0.809629 0.178822
H9_72 H 0.243286 0.794134 0.169831
H10_72 H 0.283642 0.821178 0.190371
O4_45 O 0.85107(18) 0.10107(18) 0.0000
Cr2_37 Cr 0.82260(3) 0.10968(3) 0.01961(3)
O5_37 O 0.8054(3) 0.1307(4) 0.0047(3)
O6_37 O 0.8341(4) 0.1186(3) 0.0460(2)
O7_37 O 0.8010(2) 0.0865(2) 0.0243(3)
H10_73 H 0.809629 0.0711779 0.0336417
H9_73 H 0.794134 0.0801689 0.00671407
Cr1_37 Cr 0.85968(3) 0.07260(3) 0.98039(3)
O1_37 O 0.8807(4) 0.0554(3) 0.9953(3)
O2_37 O 0.8686(3) 0.0841(4) 0.9540(2)
O3_37 O 0.8365(2) 0.0510(2) 0.9757(3)
O4_46 O 0.85107(18) 0.10107(18) 1.0000
H9_74 H 0.830169 0.0441337 0.993286
H10_74 H 0.821178 0.0596291 0.966358
Cr1_38 Cr 0.23039(3) 0.32260(3) 0.64032(3)
O1_38 O 0.2453(3) 0.3054(3) 0.6193(4)
O2_38 O 0.2040(2) 0.3341(4) 0.6314(3)
O3_38 O 0.2257(3) 0.3010(2) 0.6635(2)
O4_47 O 0.2500 0.35107(18) 0.64893(18)
Cr2_38 Cr 0.26961(3) 0.35968(3) 0.67740(3)
O5_38 O 0.2547(3) 0.3807(4) 0.6946(3)
O6_38 O 0.2960(2) 0.3686(3) 0.6659(4)
O7_38 O 0.2743(3) 0.3365(2) 0.6990(2)
H9_75 H 0.243286 0.294134 0.669831
H10_75 H 0.283642 0.321178 0.690371
H9_76 H 0.256714 0.330169 0.705866
H10_76 H 0.216358 0.309629 0.678822
Cr1_39 Cr 0.39032(3) 0.57260(3) 0.76961(3)
O1_39 O 0.3693(4) 0.5554(3) 0.7547(3)
O2_39 O 0.3814(3) 0.5841(4) 0.7960(2)
O3_39 O 0.4135(2) 0.5510(2) 0.7743(3)
O4_48 O 0.39893(18) 0.60107(18) 0.7500
Cr2_39 Cr 0.42740(3) 0.60968(3) 0.73039(3)
O5_39 O 0.4446(3) 0.6307(4) 0.7453(3)
O6_39 O 0.4159(4) 0.6186(3) 0.7040(2)
O7_39 O 0.4490(2) 0.5865(2) 0.7257(3)
H9_77 H 0.419831 0.544134 0.756714
H10_77 H 0.440371 0.571178 0.716358
H9_78 H 0.455866 0.580169 0.743286
H10_78 H 0.428822 0.559629 0.783642
Cr1_40 Cr 0.42740(3) 0.14032(3) 0.01961(3)
O1_40 O 0.4446(3) 0.1193(4) 0.0047(3)
O2_40 O 0.4159(4) 0.1314(3) 0.0460(2)
O3_40 O 0.4490(2) 0.1635(2) 0.0243(3)
O4_49 O 0.39893(18) 0.14893(18) 0.0000
H9_79 H 0.455866 0.169831 0.00671407
H10_79 H 0.440371 0.178822 0.0336417
O4_50 O 0.39893(18) 0.14893(18) 1.0000
Cr2_40 Cr 0.39032(3) 0.17740(3) 0.98039(3)
O5_40 O 0.3693(4) 0.1946(3) 0.9953(3)
O6_40 O 0.3814(3) 0.1659(4) 0.9540(2)
O7_40 O 0.4135(2) 0.1990(2) 0.9757(3)
H10_80 H 0.428822 0.190371 0.966358
H9_80 H 0.419831 0.205866 0.993286
Cr1_41 Cr 0.42740(3) 0.10968(3) 0.23039(3)
O1_41 O 0.4446(3) 0.1307(4) 0.2453(3)
O2_41 O 0.4159(4) 0.1186(3) 0.2040(2)
O3_41 O 0.4490(2) 0.0865(2) 0.2257(3)
O4_51 O 0.39893(18) 0.10107(18) 0.2500
Cr2_41 Cr 0.39032(3) 0.07260(3) 0.26961(3)
O5_41 O 0.3693(4) 0.0554(3) 0.2547(3)
O6_41 O 0.3814(3) 0.0841(4) 0.2960(2)
O7_41 O 0.4135(2) 0.0510(2) 0.2743(3)
H9_81 H 0.455866 0.0801689 0.243286
H10_81 H 0.428822 0.0596291 0.283642
H9_82 H 0.419831 0.0441337 0.256714
H10_82 H 0.440371 0.0711779 0.216358
Cr1_42 Cr 0.82260(3) 0.14032(3) 0.23039(3)
O1_42 O 0.8054(3) 0.1193(4) 0.2453(3)
O2_42 O 0.8341(4) 0.1314(3) 0.2040(2)
O3_42 O 0.8010(2) 0.1635(2) 0.2257(3)
O4_52 O 0.85107(18) 0.14893(18) 0.2500
Cr2_42 Cr 0.85968(3) 0.17740(3) 0.26961(3)
O5_42 O 0.8807(4) 0.1946(3) 0.2547(3)
O6_42 O 0.8686(3) 0.1659(4) 0.2960(2)
O7_42 O 0.8365(2) 0.1990(2) 0.2743(3)
H9_83 H 0.794134 0.169831 0.243286
H10_83 H 0.821178 0.190371 0.283642
H9_84 H 0.830169 0.205866 0.256714
H10_84 H 0.809629 0.178822 0.216358
Cr1_43 Cr 0.85968(3) 0.67740(3) 0.76961(3)
O1_43 O 0.8807(4) 0.6946(3) 0.7547(3)
O2_43 O 0.8686(3) 0.6659(4) 0.7960(2)
O3_43 O 0.8365(2) 0.6990(2) 0.7743(3)
O4_53 O 0.85107(18) 0.64893(18) 0.7500
Cr2_43 Cr 0.82260(3) 0.64032(3) 0.73039(3)
O5_43 O 0.8054(3) 0.6193(4) 0.7453(3)
O6_43 O 0.8341(4) 0.6314(3) 0.7040(2)
O7_43 O 0.8010(2) 0.6635(2) 0.7257(3)
H9_85 H 0.830169 0.705866 0.756714
H10_85 H 0.809629 0.678822 0.716358
H9_86 H 0.794134 0.669831 0.743286
H10_86 H 0.821178 0.690371 0.783642
Cr1_44 Cr 0.39032(3) 0.67740(3) 0.48039(3)
O1_44 O 0.3693(4) 0.6946(3) 0.4953(3)
O2_44 O 0.3814(3) 0.6659(4) 0.4540(2)
O3_44 O 0.4135(2) 0.6990(2) 0.4757(3)
O4_54 O 0.39893(18) 0.64893(18) 0.5000
Cr2_44 Cr 0.42740(3) 0.64032(3) 0.51961(3)
O5_44 O 0.4446(3) 0.6193(4) 0.5047(3)
O6_44 O 0.4159(4) 0.6314(3) 0.5460(2)
O7_44 O 0.4490(2) 0.6635(2) 0.5243(3)
H9_87 H 0.419831 0.705866 0.493286
H10_87 H 0.440371 0.678822 0.533642
H9_88 H 0.455866 0.669831 0.506714
H10_88 H 0.428822 0.690371 0.466358
Cr1_45 Cr 0.01961(3) 0.82260(3) 0.10968(3)
O1_45 O 0.0047(3) 0.8054(3) 0.1307(4)
O2_45 O 0.0460(2) 0.8341(4) 0.1186(3)
O3_45 O 0.0243(3) 0.8010(2) 0.0865(2)
O4_55 O -0.0000 0.85107(18) 0.10107(18)
H9_89 H 0.00671407 0.794134 0.0801689
H10_89 H 0.0336417 0.809629 0.0711779
O4_56 O 1.0000 0.85107(18) 0.10107(18)
Cr2_45 Cr 0.98039(3) 0.85968(3) 0.07260(3)
O5_45 O 0.9953(3) 0.8807(4) 0.0554(3)
O6_45 O 0.9540(2) 0.8686(3) 0.0841(4)
O7_45 O 0.9757(3) 0.8365(2) 0.0510(2)
H10_90 H 0.966358 0.821178 0.0596291
H9_90 H 0.993286 0.830169 0.0441337
Cr1_46 Cr 0.23039(3) 0.42740(3) 0.10968(3)
O1_46 O 0.2453(3) 0.4446(3) 0.1307(4)
O2_46 O 0.2040(2) 0.4159(4) 0.1186(3)
O3_46 O 0.2257(3) 0.4490(2) 0.0865(2)
O4_57 O 0.2500 0.39893(18) 0.10107(18)
Cr2_46 Cr 0.26961(3) 0.39032(3) 0.07260(3)
O5_46 O 0.2547(3) 0.3693(4) 0.0554(3)
O6_46 O 0.2960(2) 0.3814(3) 0.0841(4)
O7_46 O 0.2743(3) 0.4135(2) 0.0510(2)
H9_91 H 0.243286 0.455866 0.0801689
H10_91 H 0.283642 0.428822 0.0596291
H9_92 H 0.256714 0.419831 0.0441337
H10_92 H 0.216358 0.440371 0.0711779
Cr1_47 Cr 0.01961(3) 0.42740(3) 0.14032(3)
O1_47 O 0.0047(3) 0.4446(3) 0.1193(4)
O2_47 O 0.0460(2) 0.4159(4) 0.1314(3)
O3_47 O 0.0243(3) 0.4490(2) 0.1635(2)
O4_58 O 0.0000 0.39893(18) 0.14893(18)
H9_93 H 0.00671407 0.455866 0.169831
H10_93 H 0.0336417 0.440371 0.178822
O4_59 O 1.0000 0.39893(18) 0.14893(18)
Cr2_47 Cr 0.98039(3) 0.39032(3) 0.17740(3)
O5_47 O 0.9953(3) 0.3693(4) 0.1946(3)
O6_47 O 0.9540(2) 0.3814(3) 0.1659(4)
O7_47 O 0.9757(3) 0.4135(2) 0.1990(2)
H10_94 H 0.966358 0.428822 0.190371
H9_94 H 0.993286 0.419831 0.205866
Cr1_48 Cr 0.85968(3) 0.57260(3) 0.48039(3)
O1_48 O 0.8807(4) 0.5554(3) 0.4953(3)
O2_48 O 0.8686(3) 0.5841(4) 0.4540(2)
O3_48 O 0.8365(2) 0.5510(2) 0.4757(3)
O4_60 O 0.85107(18) 0.60107(18) 0.5000
Cr2_48 Cr 0.82260(3) 0.60968(3) 0.51961(3)
O5_48 O 0.8054(3) 0.6307(4) 0.5047(3)
O6_48 O 0.8341(4) 0.6186(3) 0.5460(2)
O7_48 O 0.8010(2) 0.5865(2) 0.5243(3)
H9_95 H 0.830169 0.544134 0.493286
H10_95 H 0.809629 0.571178 0.533642
H9_96 H 0.794134 0.580169 0.506714
H10_96 H 0.821178 0.559629 0.466358
Cr1_49 Cr 0.48039(3) 0.67740(3) 0.89032(3)
O1_49 O 0.4953(3) 0.6946(3) 0.8693(4)
O2_49 O 0.4540(2) 0.6659(4) 0.8814(3)
O3_49 O 0.4757(3) 0.6990(2) 0.9135(2)
O4_61 O 0.5000 0.64893(18) 0.89893(18)
Cr2_49 Cr 0.51961(3) 0.64032(3) 0.92740(3)
O5_49 O 0.5047(3) 0.6193(4) 0.9446(3)
O6_49 O 0.5460(2) 0.6314(3) 0.9159(4)
O7_49 O 0.5243(3) 0.6635(2) 0.9490(2)
H9_97 H 0.493286 0.705866 0.919831
H10_97 H 0.533642 0.678822 0.940371
H9_98 H 0.506714 0.669831 0.955866
H10_98 H 0.466358 0.690371 0.928822
Cr1_50 Cr 0.32260(3) 0.23039(3) 0.14032(3)
O1_50 O 0.3054(3) 0.2453(3) 0.1193(4)
O2_50 O 0.3341(4) 0.2040(2) 0.1314(3)
O3_50 O 0.3010(2) 0.2257(3) 0.1635(2)
O4_62 O 0.35107(18) 0.2500 0.14893(18)
Cr2_50 Cr 0.35968(3) 0.26961(3) 0.17740(3)
O5_50 O 0.3807(4) 0.2547(3) 0.1946(3)
O6_50 O 0.3686(3) 0.2960(2) 0.1659(4)
O7_50 O 0.3365(2) 0.2743(3) 0.1990(2)
H9_99 H 0.294134 0.243286 0.169831
H10_99 H 0.321178 0.283642 0.190371
H9_100 H 0.330169 0.256714 0.205866
H10_100 H 0.309629 0.216358 0.178822
Cr1_51 Cr 0.26961(3) 0.07260(3) 0.89032(3)
O1_51 O 0.2547(3) 0.0554(3) 0.8693(4)
O2_51 O 0.2960(2) 0.0841(4) 0.8814(3)
O3_51 O 0.2743(3) 0.0510(2) 0.9135(2)
O4_63 O 0.2500 0.10107(18) 0.89893(18)
Cr2_51 Cr 0.23039(3) 0.10968(3) 0.92740(3)
O5_51 O 0.2453(3) 0.1307(4) 0.9446(3)
O6_51 O 0.2040(2) 0.1186(3) 0.9159(4)
O7_51 O 0.2257(3) 0.0865(2) 0.9490(2)
H9_101 H 0.256714 0.0441337 0.919831
H10_101 H 0.216358 0.0711779 0.940371
H9_102 H 0.243286 0.0801689 0.955866
H10_102 H 0.283642 0.0596291 0.928822
Cr1_52 Cr 0.42740(3) 0.51961(3) 0.14032(3)
O1_52 O 0.4446(3) 0.5047(3) 0.1193(4)
O2_52 O 0.4159(4) 0.5460(2) 0.1314(3)
O3_52 O 0.4490(2) 0.5243(3) 0.1635(2)
O4_64 O 0.39893(18) 0.5000 0.14893(18)
Cr2_52 Cr 0.39032(3) 0.48039(3) 0.17740(3)
O5_52 O 0.3693(4) 0.4953(3) 0.1946(3)
O6_52 O 0.3814(3) 0.4540(2) 0.1659(4)
O7_52 O 0.4135(2) 0.4757(3) 0.1990(2)
H9_103 H 0.455866 0.506714 0.169831
H10_103 H 0.428822 0.466358 0.190371
H9_104 H 0.419831 0.493286 0.205866
H10_104 H 0.440371 0.533642 0.178822
Cr1_53 Cr 0.48039(3) 0.07260(3) 0.85968(3)
O1_53 O 0.4953(3) 0.0554(3) 0.8807(4)
O2_53 O 0.4540(2) 0.0841(4) 0.8686(3)
O3_53 O 0.4757(3) 0.0510(2) 0.8365(2)
O4_65 O 0.5000 0.10107(18) 0.85107(18)
Cr2_53 Cr 0.51961(3) 0.10968(3) 0.82260(3)
O5_53 O 0.5047(3) 0.1307(4) 0.8054(3)
O6_53 O 0.5460(2) 0.1186(3) 0.8341(4)
O7_53 O 0.5243(3) 0.0865(2) 0.8010(2)
H9_105 H 0.493286 0.0441337 0.830169
H10_105 H 0.533642 0.0711779 0.809629
H9_106 H 0.506714 0.0801689 0.794134
H10_106 H 0.466358 0.0596291 0.821178
Cr1_54 Cr 0.23039(3) 0.14032(3) 0.32260(3)
O1_54 O 0.2453(3) 0.1193(4) 0.3054(3)
O2_54 O 0.2040(2) 0.1314(3) 0.3341(4)
O3_54 O 0.2257(3) 0.1635(2) 0.3010(2)
O4_66 O 0.2500 0.14893(18) 0.35107(18)
Cr2_54 Cr 0.26961(3) 0.17740(3) 0.35968(3)
O5_54 O 0.2547(3) 0.1946(3) 0.3807(4)
O6_54 O 0.2960(2) 0.1659(4) 0.3686(3)
O7_54 O 0.2743(3) 0.1990(2) 0.3365(2)
H9_107 H 0.243286 0.169831 0.294134
H10_107 H 0.283642 0.190371 0.321178
H9_108 H 0.256714 0.205866 0.330169
H10_108 H 0.216358 0.178822 0.309629
Cr1_55 Cr 0.64032(3) 0.92740(3) 0.51961(3)
O1_55 O 0.6193(4) 0.9446(3) 0.5047(3)
O2_55 O 0.6314(3) 0.9159(4) 0.5460(2)
O3_55 O 0.6635(2) 0.9490(2) 0.5243(3)
O4_67 O 0.64893(18) 0.89893(18) 0.5000
Cr2_55 Cr 0.67740(3) 0.89032(3) 0.48039(3)
O5_55 O 0.6946(3) 0.8693(4) 0.4953(3)
O6_55 O 0.6659(4) 0.8814(3) 0.4540(2)
O7_55 O 0.6990(2) 0.9135(2) 0.4757(3)
H9_109 H 0.669831 0.955866 0.506714
H10_109 H 0.690371 0.928822 0.466358
H9_110 H 0.705866 0.919831 0.493286
H10_110 H 0.678822 0.940371 0.533642
Cr1_56 Cr 0.26961(3) 0.67740(3) 0.85968(3)
O1_56 O 0.2547(3) 0.6946(3) 0.8807(4)
O2_56 O 0.2960(2) 0.6659(4) 0.8686(3)
O3_56 O 0.2743(3) 0.6990(2) 0.8365(2)
O4_68 O 0.2500 0.64893(18) 0.85107(18)
Cr2_56 Cr 0.23039(3) 0.64032(3) 0.82260(3)
O5_56 O 0.2453(3) 0.6193(4) 0.8054(3)
O6_56 O 0.2040(2) 0.6314(3) 0.8341(4)
O7_56 O 0.2257(3) 0.6635(2) 0.8010(2)
H9_111 H 0.256714 0.705866 0.830169
H10_111 H 0.216358 0.678822 0.809629
H9_112 H 0.243286 0.669831 0.794134
H10_112 H 0.283642 0.690371 0.821178
Cr1_57 Cr 0.10968(3) 0.42740(3) 0.73039(3)
O1_57 O 0.1307(4) 0.4446(3) 0.7453(3)
O2_57 O 0.1186(3) 0.4159(4) 0.7040(2)
O3_57 O 0.0865(2) 0.4490(2) 0.7257(3)
O4_69 O 0.10107(18) 0.39893(18) 0.7500
Cr2_57 Cr 0.07260(3) 0.39032(3) 0.76961(3)
O5_57 O 0.0554(3) 0.3693(4) 0.7547(3)
O6_57 O 0.0841(4) 0.3814(3) 0.7960(2)
O7_57 O 0.0510(2) 0.4135(2) 0.7743(3)
H9_113 H 0.0801689 0.455866 0.743286
H10_113 H 0.0596291 0.428822 0.783642
H9_114 H 0.0441337 0.419831 0.756714
H10_114 H 0.0711779 0.440371 0.716358
Cr1_58 Cr 0.89032(3) 0.48039(3) 0.67740(3)
O1_58 O 0.8693(4) 0.4953(3) 0.6946(3)
O2_58 O 0.8814(3) 0.4540(2) 0.6659(4)
O3_58 O 0.9135(2) 0.4757(3) 0.6990(2)
O4_70 O 0.89893(18) 0.5000 0.64893(18)
Cr2_58 Cr 0.92740(3) 0.51961(3) 0.64032(3)
O5_58 O 0.9446(3) 0.5047(3) 0.6193(4)
O6_58 O 0.9159(4) 0.5460(2) 0.6314(3)
O7_58 O 0.9490(2) 0.5243(3) 0.6635(2)
H9_115 H 0.919831 0.493286 0.705866
H10_115 H 0.940371 0.533642 0.678822
H9_116 H 0.955866 0.506714 0.669831
H10_116 H 0.928822 0.466358 0.690371
Cr1_59 Cr 0.07260(3) 0.85968(3) 0.48039(3)
O1_59 O 0.0554(3) 0.8807(4) 0.4953(3)
O2_59 O 0.0841(4) 0.8686(3) 0.4540(2)
O3_59 O 0.0510(2) 0.8365(2) 0.4757(3)
O4_71 O 0.10107(18) 0.85107(18) 0.5000
Cr2_59 Cr 0.10968(3) 0.82260(3) 0.51961(3)
O5_59 O 0.1307(4) 0.8054(3) 0.5047(3)
O6_59 O 0.1186(3) 0.8341(4) 0.5460(2)
O7_59 O 0.0865(2) 0.8010(2) 0.5243(3)
H9_117 H 0.0441337 0.830169 0.493286
H10_117 H 0.0711779 0.809629 0.533642
H9_118 H 0.0801689 0.794134 0.506714
H10_118 H 0.0596291 0.821178 0.466358
Cr1_60 Cr 0.89032(3) 0.26961(3) 0.07260(3)
O1_60 O 0.8693(4) 0.2547(3) 0.0554(3)
O2_60 O 0.8814(3) 0.2960(2) 0.0841(4)
O3_60 O 0.9135(2) 0.2743(3) 0.0510(2)
O4_72 O 0.89893(18) 0.2500 0.10107(18)
Cr2_60 Cr 0.92740(3) 0.23039(3) 0.10968(3)
O5_60 O 0.9446(3) 0.2453(3) 0.1307(4)
O6_60 O 0.9159(4) 0.2040(2) 0.1186(3)
O7_60 O 0.9490(2) 0.2257(3) 0.0865(2)
H9_119 H 0.919831 0.256714 0.0441337
H10_119 H 0.940371 0.216358 0.0711779
H9_120 H 0.955866 0.243286 0.0801689
H10_120 H 0.928822 0.283642 0.0596291
Cr1_61 Cr 0.07260(3) 0.89032(3) 0.26961(3)
O1_61 O 0.0554(3) 0.8693(4) 0.2547(3)
O2_61 O 0.0841(4) 0.8814(3) 0.2960(2)
O3_61 O 0.0510(2) 0.9135(2) 0.2743(3)
O4_73 O 0.10107(18) 0.89893(18) 0.2500
Cr2_61 Cr 0.10968(3) 0.92740(3) 0.23039(3)
O5_61 O 0.1307(4) 0.9446(3) 0.2453(3)
O6_61 O 0.1186(3) 0.9159(4) 0.2040(2)
O7_61 O 0.0865(2) 0.9490(2) 0.2257(3)
H9_121 H 0.0441337 0.919831 0.256714
H10_121 H 0.0711779 0.940371 0.216358
H9_122 H 0.0801689 0.955866 0.243286
H10_122 H 0.0596291 0.928822 0.283642
Cr1_62 Cr 0.85968(3) 0.26961(3) 0.67740(3)
O1_62 O 0.8807(4) 0.2547(3) 0.6946(3)
O2_62 O 0.8686(3) 0.2960(2) 0.6659(4)
O3_62 O 0.8365(2) 0.2743(3) 0.6990(2)
O4_74 O 0.85107(18) 0.2500 0.64893(18)
Cr2_62 Cr 0.82260(3) 0.23039(3) 0.64032(3)
O5_62 O 0.8054(3) 0.2453(3) 0.6193(4)
O6_62 O 0.8341(4) 0.2040(2) 0.6314(3)
O7_62 O 0.8010(2) 0.2257(3) 0.6635(2)
H9_123 H 0.830169 0.256714 0.705866
H10_123 H 0.809629 0.216358 0.678822
H9_124 H 0.794134 0.243286 0.669831
H10_124 H 0.821178 0.283642 0.690371
Cr1_63 Cr 0.85968(3) 0.48039(3) 0.07260(3)
O1_63 O 0.8807(4) 0.4953(3) 0.0554(3)
O2_63 O 0.8686(3) 0.4540(2) 0.0841(4)
O3_63 O 0.8365(2) 0.4757(3) 0.0510(2)
O4_75 O 0.85107(18) 0.5000 0.10107(18)
Cr2_63 Cr 0.82260(3) 0.51961(3) 0.10968(3)
O5_63 O 0.8054(3) 0.5047(3) 0.1307(4)
O6_63 O 0.8341(4) 0.5460(2) 0.1186(3)
O7_63 O 0.8010(2) 0.5243(3) 0.0865(2)
H9_125 H 0.830169 0.493286 0.0441337
H10_125 H 0.809629 0.533642 0.0711779
H9_126 H 0.794134 0.506714 0.0801689
H10_126 H 0.821178 0.466358 0.0596291
Cr1_64 Cr 0.67740(3) 0.85968(3) 0.26961(3)
O1_64 O 0.6946(3) 0.8807(4) 0.2547(3)
O2_64 O 0.6659(4) 0.8686(3) 0.2960(2)
O3_64 O 0.6990(2) 0.8365(2) 0.2743(3)
O4_76 O 0.64893(18) 0.85107(18) 0.2500
Cr2_64 Cr 0.64032(3) 0.82260(3) 0.23039(3)
O5_64 O 0.6193(4) 0.8054(3) 0.2453(3)
O6_64 O 0.6314(3) 0.8341(4) 0.2040(2)
O7_64 O 0.6635(2) 0.8010(2) 0.2257(3)
H9_127 H 0.705866 0.830169 0.256714
H10_127 H 0.678822 0.809629 0.216358
H9_128 H 0.669831 0.794134 0.243286
H10_128 H 0.690371 0.821178 0.283642
Cr1_65 Cr 0.42740(3) 0.73039(3) 0.10968(3)
O1_65 O 0.4446(3) 0.7453(3) 0.1307(4)
O2_65 O 0.4159(4) 0.7040(2) 0.1186(3)
O3_65 O 0.4490(2) 0.7257(3) 0.0865(2)
O4_77 O 0.39893(18) 0.7500 0.10107(18)
Cr2_65 Cr 0.39032(3) 0.76961(3) 0.07260(3)
O5_65 O 0.3693(4) 0.7547(3) 0.0554(3)
O6_65 O 0.3814(3) 0.7960(2) 0.0841(4)
O7_65 O 0.4135(2) 0.7743(3) 0.0510(2)
H9_129 H 0.455866 0.743286 0.0801689
H10_129 H 0.428822 0.783642 0.0596291
H9_130 H 0.419831 0.756714 0.0441337
H10_130 H 0.440371 0.716358 0.0711779
Cr1_66 Cr 0.32260(3) 0.51961(3) 0.60968(3)
O1_66 O 0.3054(3) 0.5047(3) 0.6307(4)
O2_66 O 0.3341(4) 0.5460(2) 0.6186(3)
O3_66 O 0.3010(2) 0.5243(3) 0.5865(2)
O4_78 O 0.35107(18) 0.5000 0.60107(18)
Cr2_66 Cr 0.35968(3) 0.48039(3) 0.57260(3)
O5_66 O 0.3807(4) 0.4953(3) 0.5554(3)
O6_66 O 0.3686(3) 0.4540(2) 0.5841(4)
O7_66 O 0.3365(2) 0.4757(3) 0.5510(2)
H9_131 H 0.294134 0.506714 0.580169
H10_131 H 0.321178 0.466358 0.559629
H9_132 H 0.330169 0.493286 0.544134
H10_132 H 0.309629 0.533642 0.571178
Cr1_67 Cr 0.64032(3) 0.32260(3) 0.73039(3)
O1_67 O 0.6193(4) 0.3054(3) 0.7453(3)
O2_67 O 0.6314(3) 0.3341(4) 0.7040(2)
O3_67 O 0.6635(2) 0.3010(2) 0.7257(3)
O4_79 O 0.64893(18) 0.35107(18) 0.7500
Cr2_67 Cr 0.67740(3) 0.35968(3) 0.76961(3)
O5_67 O 0.6946(3) 0.3807(4) 0.7547(3)
O6_67 O 0.6659(4) 0.3686(3) 0.7960(2)
O7_67 O 0.6990(2) 0.3365(2) 0.7743(3)
H9_133 H 0.669831 0.294134 0.743286
H10_133 H 0.690371 0.321178 0.783642
H9_134 H 0.705866 0.330169 0.756714
H10_134 H 0.678822 0.309629 0.716358
Cr1_68 Cr 0.10968(3) 0.32260(3) 0.01961(3)
O1_68 O 0.1307(4) 0.3054(3) 0.0047(3)
O2_68 O 0.1186(3) 0.3341(4) 0.0460(2)
O3_68 O 0.0865(2) 0.3010(2) 0.0243(3)
O4_80 O 0.10107(18) 0.35107(18) 0.0000
H9_135 H 0.0801689 0.294134 0.00671407
H10_135 H 0.0711779 0.309629 0.0336417
O4_81 O 0.10107(18) 0.35107(18) 1.0000
Cr2_68 Cr 0.07260(3) 0.35968(3) 0.98039(3)
O5_68 O 0.0554(3) 0.3807(4) 0.9953(3)
O6_68 O 0.0841(4) 0.3686(3) 0.9540(2)
O7_68 O 0.0510(2) 0.3365(2) 0.9757(3)
H10_136 H 0.0596291 0.321178 0.966358
H9_136 H 0.0441337 0.330169 0.993286
Cr1_69 Cr 0.48039(3) 0.17740(3) 0.39032(3)
O1_69 O 0.4953(3) 0.1946(3) 0.3693(4)
O2_69 O 0.4540(2) 0.1659(4) 0.3814(3)
O3_69 O 0.4757(3) 0.1990(2) 0.4135(2)
O4_82 O 0.5000 0.14893(18) 0.39893(18)
Cr2_69 Cr 0.51961(3) 0.14032(3) 0.42740(3)
O5_69 O 0.5047(3) 0.1193(4) 0.4446(3)
O6_69 O 0.5460(2) 0.1314(3) 0.4159(4)
O7_69 O 0.5243(3) 0.1635(2) 0.4490(2)
H9_137 H 0.493286 0.205866 0.419831
H10_137 H 0.533642 0.178822 0.440371
H9_138 H 0.506714 0.169831 0.455866
H10_138 H 0.466358 0.190371 0.428822
Cr1_70 Cr 0.32260(3) 0.73039(3) 0.64032(3)
O1_70 O 0.3054(3) 0.7453(3) 0.6193(4)
O2_70 O 0.3341(4) 0.7040(2) 0.6314(3)
O3_70 O 0.3010(2) 0.7257(3) 0.6635(2)
O4_83 O 0.35107(18) 0.7500 0.64893(18)
Cr2_70 Cr 0.35968(3) 0.76961(3) 0.67740(3)
O5_70 O 0.3807(4) 0.7547(3) 0.6946(3)
O6_70 O 0.3686(3) 0.7960(2) 0.6659(4)
O7_70 O 0.3365(2) 0.7743(3) 0.6990(2)
H9_139 H 0.294134 0.743286 0.669831
H10_139 H 0.321178 0.783642 0.690371
H9_140 H 0.330169 0.756714 0.705866
H10_140 H 0.309629 0.716358 0.678822
Cr1_71 Cr 0.26961(3) 0.57260(3) 0.39032(3)
O1_71 O 0.2547(3) 0.5554(3) 0.3693(4)
O2_71 O 0.2960(2) 0.5841(4) 0.3814(3)
O3_71 O 0.2743(3) 0.5510(2) 0.4135(2)
O4_84 O 0.2500 0.60107(18) 0.39893(18)
Cr2_71 Cr 0.23039(3) 0.60968(3) 0.42740(3)
O5_71 O 0.2453(3) 0.6307(4) 0.4446(3)
O6_71 O 0.2040(2) 0.6186(3) 0.4159(4)
O7_71 O 0.2257(3) 0.5865(2) 0.4490(2)
H9_141 H 0.256714 0.544134 0.419831
H10_141 H 0.216358 0.571178 0.440371
H9_142 H 0.243286 0.580169 0.455866
H10_142 H 0.283642 0.559629 0.428822
Cr1_72 Cr 0.42740(3) 0.01961(3) 0.64032(3)
O1_72 O 0.4446(3) 0.0047(3) 0.6193(4)
O2_72 O 0.4159(4) 0.0460(2) 0.6314(3)
O3_72 O 0.4490(2) 0.0243(3) 0.6635(2)
O4_85 O 0.39893(18) -0.0000 0.64893(18)
H9_143 H 0.455866 0.00671407 0.669831
H10_143 H 0.440371 0.0336417 0.678822
O4_86 O 0.39893(18) 1.0000 0.64893(18)
Cr2_72 Cr 0.39032(3) 0.98039(3) 0.67740(3)
O5_72 O 0.3693(4) 0.9953(3) 0.6946(3)
O6_72 O 0.3814(3) 0.9540(2) 0.6659(4)
O7_72 O 0.4135(2) 0.9757(3) 0.6990(2)
H10_144 H 0.428822 0.966358 0.690371
H9_144 H 0.419831 0.993286 0.705866
Cr1_73 Cr 0.48039(3) 0.57260(3) 0.35968(3)
O1_73 O 0.4953(3) 0.5554(3) 0.3807(4)
O2_73 O 0.4540(2) 0.5841(4) 0.3686(3)
O3_73 O 0.4757(3) 0.5510(2) 0.3365(2)
O4_87 O 0.5000 0.60107(18) 0.35107(18)
Cr2_73 Cr 0.51961(3) 0.60968(3) 0.32260(3)
O5_73 O 0.5047(3) 0.6307(4) 0.3054(3)
O6_73 O 0.5460(2) 0.6186(3) 0.3341(4)
O7_73 O 0.5243(3) 0.5865(2) 0.3010(2)
H9_145 H 0.493286 0.544134 0.330169
H10_145 H 0.533642 0.571178 0.309629
H9_146 H 0.506714 0.580169 0.294134
H10_146 H 0.466358 0.559629 0.321178
Cr1_74 Cr 0.64032(3) 0.42740(3) 0.01961(3)
O1_74 O 0.6193(4) 0.4446(3) 0.0047(3)
O2_74 O 0.6314(3) 0.4159(4) 0.0460(2)
O3_74 O 0.6635(2) 0.4490(2) 0.0243(3)
O4_88 O 0.64893(18) 0.39893(18) 0.0000
H9_147 H 0.669831 0.455866 0.00671407
H10_147 H 0.678822 0.440371 0.0336417
O4_89 O 0.64893(18) 0.39893(18) 1.0000
Cr2_74 Cr 0.67740(3) 0.39032(3) 0.98039(3)
O5_74 O 0.6946(3) 0.3693(4) 0.9953(3)
O6_74 O 0.6659(4) 0.3814(3) 0.9540(2)
O7_74 O 0.6990(2) 0.4135(2) 0.9757(3)
H10_148 H 0.690371 0.428822 0.966358
H9_148 H 0.705866 0.419831 0.993286
O4_90 O 0.89893(18) 0.0000 0.14893(18)
Cr2_75 Cr 0.92740(3) 0.01961(3) 0.14032(3)
O5_75 O 0.9446(3) 0.0047(3) 0.1193(4)
O6_75 O 0.9159(4) 0.0460(2) 0.1314(3)
O7_75 O 0.9490(2) 0.0243(3) 0.1635(2)
H10_149 H 0.940371 0.0336417 0.178822
H9_149 H 0.955866 0.00671407 0.169831
Cr1_75 Cr 0.89032(3) 0.98039(3) 0.17740(3)
O1_75 O 0.8693(4) 0.9953(3) 0.1946(3)
O2_75 O 0.8814(3) 0.9540(2) 0.1659(4)
O3_75 O 0.9135(2) 0.9757(3) 0.1990(2)
O4_91 O 0.89893(18) 1.0000 0.14893(18)
H9_150 H 0.919831 0.993286 0.205866
H10_150 H 0.928822 0.966358 0.190371
Cr1_76 Cr 0.89032(3) 0.76961(3) 0.57260(3)
O1_76 O 0.8693(4) 0.7547(3) 0.5554(3)
O2_76 O 0.8814(3) 0.7960(2) 0.5841(4)
O3_76 O 0.9135(2) 0.7743(3) 0.5510(2)
O4_92 O 0.89893(18) 0.7500 0.60107(18)
Cr2_76 Cr 0.92740(3) 0.73039(3) 0.60968(3)
O5_76 O 0.9446(3) 0.7453(3) 0.6307(4)
O6_76 O 0.9159(4) 0.7040(2) 0.6186(3)
O7_76 O 0.9490(2) 0.7257(3) 0.5865(2)
H9_151 H 0.919831 0.756714 0.544134
H10_151 H 0.940371 0.716358 0.571178
H9_152 H 0.955866 0.743286 0.580169
H10_152 H 0.928822 0.783642 0.559629
Cr1_77 Cr 0.85968(3) 0.76961(3) 0.17740(3)
O1_77 O 0.8807(4) 0.7547(3) 0.1946(3)
O2_77 O 0.8686(3) 0.7960(2) 0.1659(4)
O3_77 O 0.8365(2) 0.7743(3) 0.1990(2)
O4_93 O 0.85107(18) 0.7500 0.14893(18)
Cr2_77 Cr 0.82260(3) 0.73039(3) 0.14032(3)
O5_77 O 0.8054(3) 0.7453(3) 0.1193(4)
O6_77 O 0.8341(4) 0.7040(2) 0.1314(3)
O7_77 O 0.8010(2) 0.7257(3) 0.1635(2)
H9_153 H 0.830169 0.756714 0.205866
H10_153 H 0.809629 0.716358 0.178822
H9_154 H 0.794134 0.743286 0.169831
H10_154 H 0.821178 0.783642 0.190371
O4_94 O 0.85107(18) -0.0000 0.60107(18)
Cr2_78 Cr 0.82260(3) 0.01961(3) 0.60968(3)
O5_78 O 0.8054(3) 0.0047(3) 0.6307(4)
O6_78 O 0.8341(4) 0.0460(2) 0.6186(3)
O7_78 O 0.8010(2) 0.0243(3) 0.5865(2)
H10_155 H 0.809629 0.0336417 0.571178
H9_155 H 0.794134 0.00671407 0.580169
Cr1_78 Cr 0.85968(3) 0.98039(3) 0.57260(3)
O1_78 O 0.8807(4) 0.9953(3) 0.5554(3)
O2_78 O 0.8686(3) 0.9540(2) 0.5841(4)
O3_78 O 0.8365(2) 0.9757(3) 0.5510(2)
O4_95 O 0.85107(18) 1.0000 0.60107(18)
H9_156 H 0.830169 0.993286 0.544134
H10_156 H 0.821178 0.966358 0.559629
Cr1_79 Cr 0.42740(3) 0.23039(3) 0.60968(3)
O1_79 O 0.4446(3) 0.2453(3) 0.6307(4)
O2_79 O 0.4159(4) 0.2040(2) 0.6186(3)
O3_79 O 0.4490(2) 0.2257(3) 0.5865(2)
O4_96 O 0.39893(18) 0.2500 0.60107(18)
Cr2_79 Cr 0.39032(3) 0.26961(3) 0.57260(3)
O5_79 O 0.3693(4) 0.2547(3) 0.5554(3)
O6_79 O 0.3814(3) 0.2960(2) 0.5841(4)
O7_79 O 0.4135(2) 0.2743(3) 0.5510(2)
H9_157 H 0.455866 0.243286 0.580169
H10_157 H 0.428822 0.283642 0.559629
H9_158 H 0.419831 0.256714 0.544134
H10_158 H 0.440371 0.216358 0.571178
Cr1_80 Cr 0.32260(3) 0.01961(3) 0.10968(3)
O1_80 O 0.3054(3) 0.0047(3) 0.1307(4)
O2_80 O 0.3341(4) 0.0460(2) 0.1186(3)
O3_80 O 0.3010(2) 0.0243(3) 0.0865(2)
O4_97 O 0.35107(18) 0.0000 0.10107(18)
H9_159 H 0.294134 0.00671407 0.0801689
H10_159 H 0.309629 0.0336417 0.0711779
O4_98 O 0.35107(18) 1.0000 0.10107(18)
Cr2_80 Cr 0.35968(3) 0.98039(3) 0.07260(3)
O5_80 O 0.3807(4) 0.9953(3) 0.0554(3)
O6_80 O 0.3686(3) 0.9540(2) 0.0841(4)
O7_80 O 0.3365(2) 0.9757(3) 0.0510(2)
H10_160 H 0.321178 0.966358 0.0596291
H9_160 H 0.330169 0.993286 0.0441337
O4_99 O 0.0000 0.64893(18) 0.39893(18)
Cr2_81 Cr 0.01961(3) 0.64032(3) 0.42740(3)
O5_81 O 0.0047(3) 0.6193(4) 0.4446(3)
O6_81 O 0.0460(2) 0.6314(3) 0.4159(4)
O7_81 O 0.0243(3) 0.6635(2) 0.4490(2)
H10_161 H 0.0336417 0.678822 0.440371
H9_161 H 0.00671407 0.669831 0.455866
Cr1_81 Cr 0.98039(3) 0.67740(3) 0.39032(3)
O1_81 O 0.9953(3) 0.6946(3) 0.3693(4)
O2_81 O 0.9540(2) 0.6659(4) 0.3814(3)
O3_81 O 0.9757(3) 0.6990(2) 0.4135(2)
O4_100 O 1.0000 0.64893(18) 0.39893(18)
H9_162 H 0.993286 0.705866 0.419831
H10_162 H 0.966358 0.690371 0.428822
Cr1_82 Cr 0.76961(3) 0.07260(3) 0.39032(3)
O1_82 O 0.7547(3) 0.0554(3) 0.3693(4)
O2_82 O 0.7960(2) 0.0841(4) 0.3814(3)
O3_82 O 0.7743(3) 0.0510(2) 0.4135(2)
O4_101 O 0.7500 0.10107(18) 0.39893(18)
Cr2_82 Cr 0.73039(3) 0.10968(3) 0.42740(3)
O5_82 O 0.7453(3) 0.1307(4) 0.4446(3)
O6_82 O 0.7040(2) 0.1186(3) 0.4159(4)
O7_82 O 0.7257(3) 0.0865(2) 0.4490(2)
H9_163 H 0.756714 0.0441337 0.419831
H10_163 H 0.716358 0.0711779 0.440371
H9_164 H 0.743286 0.0801689 0.455866
H10_164 H 0.783642 0.0596291 0.428822
O4_102 O -0.0000 0.10107(18) 0.35107(18)
Cr2_83 Cr 0.01961(3) 0.10968(3) 0.32260(3)
O5_83 O 0.0047(3) 0.1307(4) 0.3054(3)
O6_83 O 0.0460(2) 0.1186(3) 0.3341(4)
O7_83 O 0.0243(3) 0.0865(2) 0.3010(2)
H10_165 H 0.0336417 0.0711779 0.309629
H9_165 H 0.00671407 0.0801689 0.294134
Cr1_83 Cr 0.98039(3) 0.07260(3) 0.35968(3)
O1_83 O 0.9953(3) 0.0554(3) 0.3807(4)
O2_83 O 0.9540(2) 0.0841(4) 0.3686(3)
O3_83 O 0.9757(3) 0.0510(2) 0.3365(2)
O4_103 O 1.0000 0.10107(18) 0.35107(18)
H9_166 H 0.993286 0.0441337 0.330169
H10_166 H 0.966358 0.0596291 0.321178
Cr1_84 Cr 0.73039(3) 0.14032(3) 0.82260(3)
O1_84 O 0.7453(3) 0.1193(4) 0.8054(3)
O2_84 O 0.7040(2) 0.1314(3) 0.8341(4)
O3_84 O 0.7257(3) 0.1635(2) 0.8010(2)
O4_104 O 0.7500 0.14893(18) 0.85107(18)
Cr2_84 Cr 0.76961(3) 0.17740(3) 0.85968(3)
O5_84 O 0.7547(3) 0.1946(3) 0.8807(4)
O6_84 O 0.7960(2) 0.1659(4) 0.8686(3)
O7_84 O 0.7743(3) 0.1990(2) 0.8365(2)
H9_167 H 0.743286 0.169831 0.794134
H10_167 H 0.783642 0.190371 0.821178
H9_168 H 0.756714 0.205866 0.830169
H10_168 H 0.716358 0.178822 0.809629
Cr1_85 Cr 0.14032(3) 0.92740(3) 0.01961(3)
O1_85 O 0.1193(4) 0.9446(3) 0.0047(3)
O2_85 O 0.1314(3) 0.9159(4) 0.0460(2)
O3_85 O 0.1635(2) 0.9490(2) 0.0243(3)
O4_105 O 0.14893(18) 0.89893(18) 0.0000
H9_169 H 0.169831 0.955866 0.00671407
H10_169 H 0.178822 0.940371 0.0336417
O4_106 O 0.14893(18) 0.89893(18) 1.0000
Cr2_85 Cr 0.17740(3) 0.89032(3) 0.98039(3)
O5_85 O 0.1946(3) 0.8693(4) 0.9953(3)
O6_85 O 0.1659(4) 0.8814(3) 0.9540(2)
O7_85 O 0.1990(2) 0.9135(2) 0.9757(3)
H10_170 H 0.190371 0.928822 0.966358
H9_170 H 0.205866 0.919831 0.993286
Cr1_86 Cr 0.76961(3) 0.67740(3) 0.35968(3)
O1_86 O 0.7547(3) 0.6946(3) 0.3807(4)
O2_86 O 0.7960(2) 0.6659(4) 0.3686(3)
O3_86 O 0.7743(3) 0.6990(2) 0.3365(2)
O4_107 O 0.7500 0.64893(18) 0.35107(18)
Cr2_86 Cr 0.73039(3) 0.64032(3) 0.32260(3)
O5_86 O 0.7453(3) 0.6193(4) 0.3054(3)
O6_86 O 0.7040(2) 0.6314(3) 0.3341(4)
O7_86 O 0.7257(3) 0.6635(2) 0.3010(2)
H9_171 H 0.756714 0.705866 0.330169
H10_171 H 0.716358 0.678822 0.309629
H9_172 H 0.743286 0.669831 0.294134
H10_172 H 0.783642 0.690371 0.321178
Cr1_87 Cr 0.60968(3) 0.42740(3) 0.23039(3)
O1_87 O 0.6307(4) 0.4446(3) 0.2453(3)
O2_87 O 0.6186(3) 0.4159(4) 0.2040(2)
O3_87 O 0.5865(2) 0.4490(2) 0.2257(3)
O4_108 O 0.60107(18) 0.39893(18) 0.2500
Cr2_87 Cr 0.57260(3) 0.39032(3) 0.26961(3)
O5_87 O 0.5554(3) 0.3693(4) 0.2547(3)
O6_87 O 0.5841(4) 0.3814(3) 0.2960(2)
O7_87 O 0.5510(2) 0.4135(2) 0.2743(3)
H9_173 H 0.580169 0.455866 0.243286
H10_173 H 0.559629 0.428822 0.283642
H9_174 H 0.544134 0.419831 0.256714
H10_174 H 0.571178 0.440371 0.216358
O4_109 O 0.60107(18) 0.85107(18) 0.0000
Cr2_88 Cr 0.60968(3) 0.82260(3) 0.01961(3)
O5_88 O 0.6307(4) 0.8054(3) 0.0047(3)
O6_88 O 0.6186(3) 0.8341(4) 0.0460(2)
O7_88 O 0.5865(2) 0.8010(2) 0.0243(3)
H10_175 H 0.571178 0.809629 0.0336417
H9_175 H 0.580169 0.794134 0.00671407
Cr1_88 Cr 0.57260(3) 0.85968(3) 0.98039(3)
O1_88 O 0.5554(3) 0.8807(4) 0.9953(3)
O2_88 O 0.5841(4) 0.8686(3) 0.9540(2)
O3_88 O 0.5510(2) 0.8365(2) 0.9757(3)
O4_110 O 0.60107(18) 0.85107(18) 1.0000
H9_176 H 0.544134 0.830169 0.993286
H10_176 H 0.559629 0.821178 0.966358
Cr1_89 Cr 0.57260(3) 0.89032(3) 0.76961(3)
O1_89 O 0.5554(3) 0.8693(4) 0.7547(3)
O2_89 O 0.5841(4) 0.8814(3) 0.7960(2)
O3_89 O 0.5510(2) 0.9135(2) 0.7743(3)
O4_111 O 0.60107(18) 0.89893(18) 0.7500
Cr2_89 Cr 0.60968(3) 0.92740(3) 0.73039(3)
O5_89 O 0.6307(4) 0.9446(3) 0.7453(3)
O6_89 O 0.6186(3) 0.9159(4) 0.7040(2)
O7_89 O 0.5865(2) 0.9490(2) 0.7257(3)
H9_177 H 0.544134 0.919831 0.756714
H10_177 H 0.571178 0.940371 0.716358
H9_178 H 0.580169 0.955866 0.743286
H10_178 H 0.559629 0.928822 0.783642
Cr1_90 Cr 0.17740(3) 0.85968(3) 0.76961(3)
O1_90 O 0.1946(3) 0.8807(4) 0.7547(3)
O2_90 O 0.1659(4) 0.8686(3) 0.7960(2)
O3_90 O 0.1990(2) 0.8365(2) 0.7743(3)
O4_112 O 0.14893(18) 0.85107(18) 0.7500
Cr2_90 Cr 0.14032(3) 0.82260(3) 0.73039(3)
O5_90 O 0.1193(4) 0.8054(3) 0.7453(3)
O6_90 O 0.1314(3) 0.8341(4) 0.7040(2)
O7_90 O 0.1635(2) 0.8010(2) 0.7257(3)
H9_179 H 0.205866 0.830169 0.756714
H10_179 H 0.178822 0.809629 0.716358
H9_180 H 0.169831 0.794134 0.743286
H10_180 H 0.190371 0.821178 0.783642
Cr1_91 Cr 0.14032(3) 0.32260(3) 0.23039(3)
O1_91 O 0.1193(4) 0.3054(3) 0.2453(3)
O2_91 O 0.1314(3) 0.3341(4) 0.2040(2)
O3_91 O 0.1635(2) 0.3010(2) 0.2257(3)
O4_113 O 0.14893(18) 0.35107(18) 0.2500
Cr2_91 Cr 0.17740(3) 0.35968(3) 0.26961(3)
O5_91 O 0.1946(3) 0.3807(4) 0.2547(3)
O6_91 O 0.1659(4) 0.3686(3) 0.2960(2)
O7_91 O 0.1990(2) 0.3365(2) 0.2743(3)
H9_181 H 0.169831 0.294134 0.243286
H10_181 H 0.190371 0.321178 0.283642
H9_182 H 0.205866 0.330169 0.256714
H10_182 H 0.178822 0.309629 0.216358
Cr1_92 Cr 0.60968(3) 0.32260(3) 0.51961(3)
O1_92 O 0.6307(4) 0.3054(3) 0.5047(3)
O2_92 O 0.6186(3) 0.3341(4) 0.5460(2)
O3_92 O 0.5865(2) 0.3010(2) 0.5243(3)
O4_114 O 0.60107(18) 0.35107(18) 0.5000
Cr2_92 Cr 0.57260(3) 0.35968(3) 0.48039(3)
O5_92 O 0.5554(3) 0.3807(4) 0.4953(3)
O6_92 O 0.5841(4) 0.3686(3) 0.4540(2)
O7_92 O 0.5510(2) 0.3365(2) 0.4757(3)
H9_183 H 0.580169 0.294134 0.506714
H10_183 H 0.559629 0.321178 0.466358
H9_184 H 0.544134 0.330169 0.493286
H10_184 H 0.571178 0.309629 0.533642
O4_115 O -0.0000 0.14893(18) 0.89893(18)
Cr2_93 Cr 0.01961(3) 0.14032(3) 0.92740(3)
O5_93 O 0.0047(3) 0.1193(4) 0.9446(3)
O6_93 O 0.0460(2) 0.1314(3) 0.9159(4)
O7_93 O 0.0243(3) 0.1635(2) 0.9490(2)
H10_185 H 0.0336417 0.178822 0.940371
H9_185 H 0.00671407 0.169831 0.955866
Cr1_93 Cr 0.98039(3) 0.17740(3) 0.89032(3)
O1_93 O 0.9953(3) 0.1946(3) 0.8693(4)
O2_93 O 0.9540(2) 0.1659(4) 0.8814(3)
O3_93 O 0.9757(3) 0.1990(2) 0.9135(2)
O4_116 O 1.0000 0.14893(18) 0.89893(18)
H9_186 H 0.993286 0.205866 0.919831
H10_186 H 0.966358 0.190371 0.928822
Cr1_94 Cr 0.76961(3) 0.57260(3) 0.89032(3)
O1_94 O 0.7547(3) 0.5554(3) 0.8693(4)
O2_94 O 0.7960(2) 0.5841(4) 0.8814(3)
O3_94 O 0.7743(3) 0.5510(2) 0.9135(2)
O4_117 O 0.7500 0.60107(18) 0.89893(18)
Cr2_94 Cr 0.73039(3) 0.60968(3) 0.92740(3)
O5_94 O 0.7453(3) 0.6307(4) 0.9446(3)
O6_94 O 0.7040(2) 0.6186(3) 0.9159(4)
O7_94 O 0.7257(3) 0.5865(2) 0.9490(2)
H9_187 H 0.756714 0.544134 0.919831
H10_187 H 0.716358 0.571178 0.940371
H9_188 H 0.743286 0.580169 0.955866
H10_188 H 0.783642 0.559629 0.928822
O4_118 O 0.0000 0.60107(18) 0.85107(18)
Cr2_95 Cr 0.01961(3) 0.60968(3) 0.82260(3)
O5_95 O 0.0047(3) 0.6307(4) 0.8054(3)
O6_95 O 0.0460(2) 0.6186(3) 0.8341(4)
O7_95 O 0.0243(3) 0.5865(2) 0.8010(2)
H10_189 H 0.0336417 0.571178 0.809629
H9_189 H 0.00671407 0.580169 0.794134
Cr1_95 Cr 0.98039(3) 0.57260(3) 0.85968(3)
O1_95 O 0.9953(3) 0.5554(3) 0.8807(4)
O2_95 O 0.9540(2) 0.5841(4) 0.8686(3)
O3_95 O 0.9757(3) 0.5510(2) 0.8365(2)
O4_119 O 1.0000 0.60107(18) 0.85107(18)
H9_190 H 0.993286 0.544134 0.830169
H10_190 H 0.966358 0.559629 0.821178
Cr1_96 Cr 0.14032(3) 0.42740(3) 0.51961(3)
O1_96 O 0.1193(4) 0.4446(3) 0.5047(3)
O2_96 O 0.1314(3) 0.4159(4) 0.5460(2)
O3_96 O 0.1635(2) 0.4490(2) 0.5243(3)
O4_120 O 0.14893(18) 0.39893(18) 0.5000
Cr2_96 Cr 0.17740(3) 0.39032(3) 0.48039(3)
O5_96 O 0.1946(3) 0.3693(4) 0.4953(3)
O6_96 O 0.1659(4) 0.3814(3) 0.4540(2)
O7_96 O 0.1990(2) 0.4135(2) 0.4757(3)
H9_191 H 0.169831 0.455866 0.506714
H10_191 H 0.190371 0.428822 0.466358
H9_192 H 0.205866 0.419831 0.493286
H10_192 H 0.178822 0.440371 0.533642
Ag1 Ag 0.599022(9) 0.307975(8) 0.023934(8)
Ag2 Ag 0.625951(9) 0.278389(10) 0.087350(9)
N1 N 0.64545(10) 0.31597(10) 0.07123(11)
N2 N 0.63754(12) 0.32688(11) 0.04684(12)
N3 N 0.61857(15) 0.25137(10) 0.04930(11)
N4 N 0.60837(14) 0.26339(10) 0.02607(10)
N7 N 0.70994(10) 0.40629(10) 0.07525(12)
N8 N 0.72860(10) 0.38901(12) 0.06370(13)
N9 N 0.61780(13) 0.22252(9) 0.01637(11)
N10 N 0.61955(12) 0.19883(9) 0.00268(11)
N11 N 0.67036(10) 0.34995(10) 0.06289(10)
N12 N 0.69020(10) 0.36901(10) 0.06577(11)
C1 C 0.60887(18) 0.24616(12) 0.00707(13)
C2 C 0.62331(18) 0.22624(12) 0.04263(14)
H2 H 0.6297 0.2128 0.0545
C3 C 0.65288(14) 0.34729(13) 0.04286(14)
H3 H 0.6519 0.3588 0.0277
C4 C 0.66494(13) 0.33005(13) 0.08027(14)
H4 H 0.6741 0.3269 0.0967
C7 C 0.71551(14) 0.36653(16) 0.05866(19)
H7 H 0.7232 0.3509 0.0510
C8 C 0.68692(12) 0.39427(13) 0.07619(15)
H8 H 0.6707 0.4016 0.0829
Ag3 Ag 0.773934(8) 0.400978(9) 0.057975(8)
Ag4 Ag 0.726066(8) 0.442025(8) 0.099022(9)
N13 N 0.66381(11) 0.26722(15) 0.11300(12)
N14 N 0.58832(9) 0.26672(11) 0.10922(10)
N15 N 0.57525(12) 0.34371(10) 0.04006(10)
N5 N 0.63700(12) 0.16381(11) 0.98278(15)
N6 N 0.60922(10) 0.16168(9) 0.98328(11)
H1 H 0.6037 0.2496 0.9891
C5 C 0.64196(16) 0.18663(14) 0.9941(2)
H5 H 0.6595 0.1939 0.9961
C6 C 0.59993(14) 0.18297(11) 0.99496(14)
H6 H 0.5814 0.1866 0.9976
Ag5 Ag 0.587350(9) 0.124049(9) 0.971611(10)
Ag6 Ag 0.662650(9) 0.125951(9) 0.971611(10)
N16 N 0.61099(12) 0.31370(13) 0.97860(10)
Ag3_2 Ag 0.599022(9) 0.023934(8) 0.807975(8)
Ag1_2 Ag 0.692025(8) 0.849022(9) 0.773934(8)
Ag2_2 Ag 0.721611(10) 0.875951(9) 0.837350(9)
N1_2 N 0.68403(10) 0.89545(10) 0.82123(11)
N2_2 N 0.67312(11) 0.88754(12) 0.79684(12)
N3_2 N 0.74863(10) 0.86857(15) 0.79930(11)
N4_2 N 0.73661(10) 0.85837(14) 0.77607(10)
N5_2 N 0.83619(11) 0.88700(12) 0.73278(15)
N6_2 N 0.83832(9) 0.85922(10) 0.73328(11)
N7_2 N 0.59371(10) 0.95994(10) 0.82525(12)
N8_2 N 0.61099(12) 0.97860(10) 0.81370(13)
N9_2 N 0.77748(9) 0.86780(13) 0.76637(11)
N10_2 N 0.80117(9) 0.86955(12) 0.75268(11)
N11_2 N 0.65005(10) 0.92036(10) 0.81289(10)
N12_2 N 0.63099(10) 0.94020(10) 0.81577(11)
C1_2 C 0.75384(12) 0.85887(18) 0.75707(13)
H1_2 H 0.7504 0.8537 0.7391
C2_2 C 0.77376(12) 0.87331(18) 0.79263(14)
H2_2 H 0.7872 0.8797 0.8045
C3_2 C 0.65271(13) 0.90288(14) 0.79286(14)
H3_2 H 0.6412 0.9019 0.7777
C4_2 C 0.66995(13) 0.91494(13) 0.83027(14)
H4_2 H 0.6731 0.9241 0.8467
C5_2 C 0.81337(14) 0.89196(16) 0.7441(2)
H5_2 H 0.8061 0.9095 0.7461
C6_2 C 0.81703(11) 0.84993(14) 0.74496(14)
H6_2 H 0.8134 0.8314 0.7476
C7_2 C 0.63347(16) 0.96551(14) 0.80866(19)
H7_2 H 0.6491 0.9732 0.8010
C8_2 C 0.60573(13) 0.93692(12) 0.82619(15)
H8_2 H 0.5984 0.9207 0.8329
Ag4_2 Ag 0.557975(8) 0.976066(8) 0.849022(9)
Ag5_2 Ag 0.875951(9) 0.837350(9) 0.721611(10)
Ag6_2 Ag 0.874049(9) 0.912650(9) 0.721611(10)
N13_2 N 0.73278(15) 0.91381(11) 0.86300(12)
N14_2 N 0.73328(11) 0.83832(9) 0.85922(10)
N15_2 N 0.65629(10) 0.82525(12) 0.79006(10)
N16_2 N 0.68630(13) 0.86099(12) 0.72860(10)
N5_3 N 0.61300(12) 0.08619(11) 0.98278(15)
N6_3 N 0.64078(10) 0.08832(9) 0.98328(11)
H1_3 H 0.6463 0.0004 0.9891
C5_3 C 0.60804(16) 0.06337(14) 0.9941(2)
H5_3 H 0.5905 0.0561 0.9961
C6_3 C 0.65007(14) 0.06703(11) 0.99496(14)
H6_3 H 0.6686 0.0634 0.9976
Ag1_3 Ag 0.650978(9) 0.942025(8) 0.023934(8)
Ag2_3 Ag 0.624049(9) 0.971611(10) 0.087350(9)
N1_3 N 0.60455(10) 0.93403(10) 0.07123(11)
N2_3 N 0.61246(12) 0.92312(11) 0.04684(12)
N3_3 N 0.63143(15) 0.99863(10) 0.04930(11)
N4_3 N 0.64163(14) 0.98661(10) 0.02607(10)
N7_3 N 0.54006(10) 0.84371(10) 0.07525(12)
N8_3 N 0.52140(10) 0.86099(12) 0.06370(13)
N11_3 N 0.57964(10) 0.90005(10) 0.06289(10)
N12_3 N 0.55980(10) 0.88099(10) 0.06577(11)
C3_3 C 0.59712(14) 0.90271(13) 0.04286(14)
H3_3 H 0.5981 0.8912 0.0277
C4_3 C 0.58506(13) 0.91995(13) 0.08027(14)
H4_3 H 0.5759 0.9231 0.0967
C7_3 C 0.53449(14) 0.88347(16) 0.05866(19)
H7_3 H 0.5268 0.8991 0.0510
C8_3 C 0.56308(12) 0.85573(13) 0.07619(15)
H8_3 H 0.5793 0.8484 0.0829
Ag3_3 Ag 0.476066(8) 0.849022(9) 0.057975(8)
Ag4_3 Ag 0.523934(8) 0.807975(8) 0.099022(9)
N13_3 N 0.58619(11) 0.98278(15) 0.11300(12)
N14_3 N 0.66168(9) 0.98328(11) 0.10922(10)
N15_3 N 0.67475(12) 0.90629(10) 0.04006(10)
N16_3 N 0.63901(12) 0.93630(13) 0.97860(10)
Ag1_4 Ag 0.557975(8) 0.400978(9) 0.773934(8)
Ag2_4 Ag 0.528389(10) 0.374049(9) 0.837350(9)
N1_4 N 0.56597(10) 0.35455(10) 0.82123(11)
N2_4 N 0.57688(11) 0.36246(12) 0.79684(12)
N3_4 N 0.50137(10) 0.38143(15) 0.79930(11)
N4_4 N 0.51339(10) 0.39163(14) 0.77607(10)
N5_4 N 0.41381(11) 0.36300(12) 0.73278(15)
N6_4 N 0.41168(9) 0.39078(10) 0.73328(11)
N7_4 N 0.65629(10) 0.29006(10) 0.82525(12)
N8_4 N 0.63901(12) 0.27140(10) 0.81370(13)
N9_3 N 0.47252(9) 0.38220(13) 0.76637(11)
N10_3 N 0.44883(9) 0.38045(12) 0.75268(11)
N11_4 N 0.59995(10) 0.32964(10) 0.81289(10)
N12_4 N 0.61901(10) 0.30980(10) 0.81577(11)
C1_3 C 0.49616(12) 0.39113(18) 0.75707(13)
H1_4 H 0.4996 0.3963 0.7391
C2_3 C 0.47624(12) 0.37669(18) 0.79263(14)
H2_3 H 0.4628 0.3703 0.8045
C3_4 C 0.59729(13) 0.34712(14) 0.79286(14)
H3_4 H 0.6088 0.3481 0.7777
C4_4 C 0.58005(13) 0.33506(13) 0.83027(14)
H4_4 H 0.5769 0.3259 0.8467
C5_4 C 0.43663(14) 0.35804(16) 0.7441(2)
H5_4 H 0.4439 0.3405 0.7461
C6_4 C 0.43297(11) 0.40007(14) 0.74496(14)
H6_4 H 0.4366 0.4186 0.7476
C7_4 C 0.61653(16) 0.28449(14) 0.80866(19)
H7_4 H 0.6009 0.2768 0.8010
C8_4 C 0.64427(13) 0.31308(12) 0.82619(15)
H8_4 H 0.6516 0.3293 0.8329
Ag3_4 Ag 0.650978(9) 0.226066(8) 0.807975(8)
Ag4_4 Ag 0.692025(8) 0.273934(8) 0.849022(9)
Ag5_3 Ag 0.374049(9) 0.412650(9) 0.721611(10)
Ag6_3 Ag 0.375951(9) 0.337350(9) 0.721611(10)
N13_4 N 0.51722(15) 0.33619(11) 0.86300(12)
N14_4 N 0.51672(11) 0.41168(9) 0.85922(10)
N15_4 N 0.59371(10) 0.42475(12) 0.79006(10)
N16_4 N 0.56370(13) 0.38901(12) 0.72860(10)
Ag3_5 Ag 0.023934(8) 0.942025(8) 0.150978(9)
N16_5 N 0.86099(12) 0.02140(10) 0.06370(13)
N5_5 N 0.88700(12) 0.01722(15) 0.91381(11)
N6_5 N 0.85922(10) 0.01672(11) 0.91168(9)
H1_5 H 0.8537 0.0109 0.9996
C5_5 C 0.89196(16) 0.0059(2) 0.93663(14)
H5_5 H 0.9095 0.0039 0.9439
C6_5 C 0.84993(14) 0.00504(14) 0.93297(11)
H6_5 H 0.8314 0.0024 0.9366
Ag5_4 Ag 0.837350(9) 0.028389(10) 0.874049(9)
Ag6_4 Ag 0.912650(9) 0.028389(10) 0.875951(9)
Ag1_5 Ag 0.849022(9) 0.976066(8) 0.057975(8)
Ag2_5 Ag 0.875951(9) 0.912650(9) 0.028389(10)
N1_5 N 0.89545(10) 0.92877(11) 0.06597(10)
N2_5 N 0.88754(12) 0.95316(12) 0.07688(11)
N3_5 N 0.86857(15) 0.95070(11) 0.00137(10)
N4_5 N 0.85837(14) 0.97393(10) 0.01339(10)
N7_5 N 0.95994(10) 0.92475(12) 0.15629(10)
N8_5 N 0.97860(10) 0.93630(13) 0.13901(12)
N11_5 N 0.92036(10) 0.93711(10) 0.09995(10)
N12_5 N 0.94020(10) 0.93423(11) 0.11901(10)
C3_5 C 0.90288(14) 0.95714(14) 0.09729(13)
H3_5 H 0.9019 0.9723 0.1088
C4_5 C 0.91494(13) 0.91973(14) 0.08005(13)
H4_5 H 0.9241 0.9033 0.0769
C7_5 C 0.96551(14) 0.94134(19) 0.11653(16)
H7_5 H 0.9732 0.9490 0.1009
C8_5 C 0.93692(12) 0.92381(15) 0.14427(13)
H8_5 H 0.9207 0.9171 0.1516
Ag4_5 Ag 0.976066(8) 0.900978(9) 0.192025(8)
N13_5 N 0.91381(11) 0.88700(12) 0.01722(15)
N14_5 N 0.83832(9) 0.89078(10) 0.01672(11)
N15_5 N 0.82525(12) 0.95994(10) 0.09371(10)
N5_6 N 0.63700(12) 0.08619(11) 0.26722(15)
N6_6 N 0.60922(10) 0.08832(9) 0.26672(11)
N9_4 N 0.61780(13) 0.02748(9) 0.23363(11)
N10_4 N 0.61955(12) 0.05117(9) 0.24732(11)
C1_4 C 0.60887(18) 0.00384(12) 0.24293(13)
H1_6 H 0.6037 0.0004 0.2609
C2_4 C 0.62331(18) 0.02376(12) 0.20737(14)
H2_4 H 0.6297 0.0372 0.1955
C5_6 C 0.64196(16) 0.06337(14) 0.2559(2)
H5_6 H 0.6595 0.0561 0.2539
C6_6 C 0.59993(14) 0.06703(11) 0.25504(14)
H6_6 H 0.5814 0.0634 0.2524
Ag5_5 Ag 0.587350(9) 0.125951(9) 0.278389(10)
Ag6_5 Ag 0.662650(9) 0.124049(9) 0.278389(10)
Ag1_6 Ag 0.599022(9) 0.942025(8) 0.226066(8)
Ag2_6 Ag 0.625951(9) 0.971611(10) 0.162650(9)
N1_6 N 0.64545(10) 0.93403(10) 0.17877(11)
N2_6 N 0.63754(12) 0.92312(11) 0.20316(12)
N3_6 N 0.61857(15) 0.99863(10) 0.20070(11)
N4_6 N 0.60837(14) 0.98661(10) 0.22393(10)
N7_6 N 0.70994(10) 0.84371(10) 0.17475(12)
N8_6 N 0.72860(10) 0.86099(12) 0.18630(13)
N11_6 N 0.67036(10) 0.90005(10) 0.18711(10)
N12_6 N 0.69020(10) 0.88099(10) 0.18423(11)
C3_6 C 0.65288(14) 0.90271(13) 0.20714(14)
H3_6 H 0.6519 0.8912 0.2223
C4_6 C 0.66494(13) 0.91995(13) 0.16973(14)
H4_6 H 0.6741 0.9231 0.1533
C7_6 C 0.71551(14) 0.88347(16) 0.19134(19)
H7_6 H 0.7232 0.8991 0.1990
C8_6 C 0.68692(12) 0.85573(13) 0.17381(15)
H8_6 H 0.6707 0.8484 0.1671
Ag3_6 Ag 0.773934(8) 0.849022(9) 0.192025(8)
Ag4_6 Ag 0.726066(8) 0.807975(8) 0.150978(9)
N13_6 N 0.66381(11) 0.98278(15) 0.13700(12)
N14_6 N 0.58832(9) 0.98328(11) 0.14078(10)
N15_6 N 0.57525(12) 0.90629(10) 0.20994(10)
N16_6 N 0.61099(12) 0.93630(13) 0.27140(10)
Ag3_7 Ag 0.023934(8) 0.807975(8) 0.599022(9)
Ag1_7 Ag 0.849022(9) 0.773934(8) 0.692025(8)
N1_7 N 0.89545(10) 0.82123(11) 0.68403(10)
N2_7 N 0.88754(12) 0.79684(12) 0.67312(11)
N3_7 N 0.86857(15) 0.79930(11) 0.74863(10)
N4_7 N 0.85837(14) 0.77607(10) 0.73661(10)
N5_7 N 0.88700(12) 0.73278(15) 0.83619(11)
N6_7 N 0.85922(10) 0.73328(11) 0.83832(9)
N7_7 N 0.95994(10) 0.82525(12) 0.59371(10)
N8_7 N 0.97860(10) 0.81370(13) 0.61099(12)
N9_5 N 0.86780(13) 0.76637(11) 0.77748(9)
N10_5 N 0.86955(12) 0.75268(11) 0.80117(9)
N11_7 N 0.92036(10) 0.81289(10) 0.65005(10)
N12_7 N 0.94020(10) 0.81577(11) 0.63099(10)
C1_5 C 0.85887(18) 0.75707(13) 0.75384(12)
H1_7 H 0.8537 0.7391 0.7504
C2_5 C 0.87331(18) 0.79263(14) 0.77376(12)
H2_5 H 0.8797 0.8045 0.7872
C3_7 C 0.90288(14) 0.79286(14) 0.65271(13)
H3_7 H 0.9019 0.7777 0.6412
C4_7 C 0.91494(13) 0.83027(14) 0.66995(13)
H4_7 H 0.9241 0.8467 0.6731
C5_7 C 0.89196(16) 0.7441(2) 0.81337(14)
H5_7 H 0.9095 0.7461 0.8061
C6_7 C 0.84993(14) 0.74496(14) 0.81703(11)
H6_7 H 0.8314 0.7476 0.8134
C7_7 C 0.96551(14) 0.80866(19) 0.63347(16)
H7_7 H 0.9732 0.8010 0.6491
C8_7 C 0.93692(12) 0.82619(15) 0.60573(13)
H8_7 H 0.9207 0.8329 0.5984
Ag4_7 Ag 0.976066(8) 0.849022(9) 0.557975(8)
Ag5_6 Ag 0.837350(9) 0.721611(10) 0.875951(9)
Ag6_6 Ag 0.912650(9) 0.721611(10) 0.874049(9)
N13_7 N 0.91381(11) 0.86300(12) 0.73278(15)
N15_7 N 0.82525(12) 0.79006(10) 0.65629(10)
N16_7 N 0.86099(12) 0.72860(10) 0.68630(13)
Ag1_8 Ag 0.273934(8) 0.057975(8) 0.400978(9)
Ag2_7 Ag 0.337350(9) 0.028389(10) 0.374049(9)
N1_8 N 0.32123(11) 0.06597(10) 0.35455(10)
N2_8 N 0.29684(12) 0.07688(11) 0.36246(12)
N3_8 N 0.29930(11) 0.00137(10) 0.38143(15)
N4_8 N 0.27607(10) 0.01339(10) 0.39163(14)
N7_8 N 0.32525(12) 0.15629(10) 0.29006(10)
N8_8 N 0.31370(13) 0.13901(12) 0.27140(10)
N11_8 N 0.31289(10) 0.09995(10) 0.32964(10)
N12_8 N 0.31577(11) 0.11901(10) 0.30980(10)
C3_8 C 0.29286(14) 0.09729(13) 0.34712(14)
H3_8 H 0.2777 0.1088 0.3481
C4_8 C 0.33027(14) 0.08005(13) 0.33506(13)
H4_8 H 0.3467 0.0769 0.3259
C7_8 C 0.30866(19) 0.11653(16) 0.28449(14)
H7_8 H 0.3010 0.1009 0.2768
C8_8 C 0.32619(15) 0.14427(13) 0.31308(12)
H8_8 H 0.3329 0.1516 0.3293
Ag3_8 Ag 0.307975(8) 0.150978(9) 0.226066(8)
Ag4_8 Ag 0.349022(9) 0.192025(8) 0.273934(8)
N13_8 N 0.36300(12) 0.01722(15) 0.33619(11)
N14_7 N 0.35922(10) 0.01672(11) 0.41168(9)
N15_8 N 0.29006(10) 0.09371(10) 0.42475(12)
N16_8 N 0.22860(10) 0.06370(13) 0.38901(12)
N5_8 N 0.23278(15) 0.91381(11) 0.36300(12)
N6_8 N 0.23328(11) 0.91168(9) 0.39078(10)
N9_6 N 0.26637(11) 0.97252(9) 0.38220(13)
N10_6 N 0.25268(11) 0.94883(9) 0.38045(12)
C1_6 C 0.25707(13) 0.99616(12) 0.39113(18)
H1_8 H 0.2391 0.9996 0.3963
C2_6 C 0.29263(14) 0.97624(12) 0.37669(18)
H2_6 H 0.3045 0.9628 0.3703
C5_8 C 0.2441(2) 0.93663(14) 0.35804(16)
H5_8 H 0.2461 0.9439 0.3405
C6_8 C 0.24496(14) 0.93297(11) 0.40007(14)
H6_8 H 0.2476 0.9366 0.4186
Ag5_7 Ag 0.221611(10) 0.874049(9) 0.412650(9)
Ag6_7 Ag 0.221611(10) 0.875951(9) 0.337350(9)
Ag1_9 Ag 0.650978(9) 0.307975(8) 0.226066(8)
Ag2_8 Ag 0.624049(9) 0.278389(10) 0.162650(9)
N1_9 N 0.60455(10) 0.31597(10) 0.17877(11)
N2_9 N 0.61246(12) 0.32688(11) 0.20316(12)
N3_9 N 0.63143(15) 0.25137(10) 0.20070(11)
N4_9 N 0.64163(14) 0.26339(10) 0.22393(10)
N5_9 N 0.61300(12) 0.16381(11) 0.26722(15)
N6_9 N 0.64078(10) 0.16168(9) 0.26672(11)
N7_9 N 0.54006(10) 0.40629(10) 0.17475(12)
N8_9 N 0.52140(10) 0.38901(12) 0.18630(13)
N9_7 N 0.63220(13) 0.22252(9) 0.23363(11)
N10_7 N 0.63045(12) 0.19883(9) 0.24732(11)
N11_9 N 0.57964(10) 0.34995(10) 0.18711(10)
N12_9 N 0.55980(10) 0.36901(10) 0.18423(11)
C1_7 C 0.64113(18) 0.24616(12) 0.24293(13)
H1_9 H 0.6463 0.2496 0.2609
C2_7 C 0.62669(18) 0.22624(12) 0.20737(14)
H2_7 H 0.6203 0.2128 0.1955
C3_9 C 0.59712(14) 0.34729(13) 0.20714(14)
H3_9 H 0.5981 0.3588 0.2223
C4_9 C 0.58506(13) 0.33005(13) 0.16973(14)
H4_9 H 0.5759 0.3269 0.1533
C5_9 C 0.60804(16) 0.18663(14) 0.2559(2)
H5_9 H 0.5905 0.1939 0.2539
C6_9 C 0.65007(14) 0.18297(11) 0.25504(14)
H6_9 H 0.6686 0.1866 0.2524
C7_9 C 0.53449(14) 0.36653(16) 0.19134(19)
H7_9 H 0.5268 0.3509 0.1990
C8_9 C 0.56308(12) 0.39427(13) 0.17381(15)
H8_9 H 0.5793 0.4016 0.1671
Ag3_9 Ag 0.476066(8) 0.400978(9) 0.192025(8)
Ag4_9 Ag 0.523934(8) 0.442025(8) 0.150978(9)
N13_9 N 0.58619(11) 0.26722(15) 0.13700(12)
N14_8 N 0.66168(9) 0.26672(11) 0.14078(10)
N15_9 N 0.67475(12) 0.34371(10) 0.20994(10)
N16_9 N 0.63901(12) 0.31370(13) 0.27140(10)
N5_10 N 0.01722(15) 0.41381(11) 0.38700(12)
N6_10 N 0.01672(11) 0.41168(9) 0.35922(10)
H1_10 H 0.0109 0.4996 0.3537
C5_10 C 0.0059(2) 0.43663(14) 0.39196(16)
H5_10 H 0.0039 0.4439 0.4095
C6_10 C 0.00504(14) 0.43297(11) 0.34993(14)
H6_10 H 0.0024 0.4366 0.3314
Ag5_8 Ag 0.028389(10) 0.374049(9) 0.337350(9)
Ag6_8 Ag 0.028389(10) 0.375951(9) 0.412650(9)
N16_10 N 0.02140(10) 0.56370(13) 0.36099(12)
Ag1_10 Ag 0.976066(8) 0.557975(8) 0.349022(9)
Ag2_9 Ag 0.912650(9) 0.528389(10) 0.375951(9)
N1_10 N 0.92877(11) 0.56597(10) 0.39545(10)
N2_10 N 0.95316(12) 0.57688(11) 0.38754(12)
N3_10 N 0.95070(11) 0.50137(10) 0.36857(15)
N4_10 N 0.97393(10) 0.51339(10) 0.35837(14)
N7_10 N 0.92475(12) 0.65629(10) 0.45994(10)
N8_10 N 0.93630(13) 0.63901(12) 0.47860(10)
N9_8 N 0.98363(11) 0.47252(9) 0.36780(13)
N10_8 N 0.99732(11) 0.44883(9) 0.36955(12)
N11_10 N 0.93711(10) 0.59995(10) 0.42036(10)
N12_10 N 0.93423(11) 0.61901(10) 0.44020(10)
C1_8 C 0.99293(13) 0.49616(12) 0.35887(18)
C2_8 C 0.95737(14) 0.47624(12) 0.37331(18)
H2_8 H 0.9455 0.4628 0.3797
C3_10 C 0.95714(14) 0.59729(13) 0.40288(14)
H3_10 H 0.9723 0.6088 0.4019
C4_10 C 0.91973(14) 0.58005(13) 0.41494(13)
H4_10 H 0.9033 0.5769 0.4241
C7_10 C 0.94134(19) 0.61653(16) 0.46551(14)
H7_10 H 0.9490 0.6009 0.4732
C8_10 C 0.92381(15) 0.64427(13) 0.43692(12)
H8_10 H 0.9171 0.6516 0.4207
Ag3_10 Ag 0.942025(8) 0.650978(9) 0.523934(8)
Ag4_10 Ag 0.900978(9) 0.692025(8) 0.476066(8)
N13_10 N 0.88700(12) 0.51722(15) 0.41381(11)
N14_9 N 0.89078(10) 0.51672(11) 0.33832(9)
N15_10 N 0.95994(10) 0.59371(10) 0.32525(12)
Ag1_11 Ag 0.023934(8) 0.599022(9) 0.307975(8)
Ag2_10 Ag 0.087350(9) 0.625951(9) 0.278389(10)
N1_11 N 0.07123(11) 0.64545(10) 0.31597(10)
N2_11 N 0.04684(12) 0.63754(12) 0.32688(11)
N3_11 N 0.04930(11) 0.61857(15) 0.25137(10)
N4_11 N 0.02607(10) 0.60837(14) 0.26339(10)
N7_11 N 0.07525(12) 0.70994(10) 0.40629(10)
N8_11 N 0.06370(13) 0.72860(10) 0.38901(12)
N9_9 N 0.01637(11) 0.61780(13) 0.22252(9)
N10_9 N 0.00268(11) 0.61955(12) 0.19883(9)
N11_11 N 0.06289(10) 0.67036(10) 0.34995(10)
N12_11 N 0.06577(11) 0.69020(10) 0.36901(10)
C1_9 C 0.00707(13) 0.60887(18) 0.24616(12)
C2_9 C 0.04263(14) 0.62331(18) 0.22624(12)
H2_9 H 0.0545 0.6297 0.2128
C3_11 C 0.04286(14) 0.65288(14) 0.34729(13)
H3_11 H 0.0277 0.6519 0.3588
C4_11 C 0.08027(14) 0.66494(13) 0.33005(13)
H4_11 H 0.0967 0.6741 0.3269
C7_11 C 0.05866(19) 0.71551(14) 0.36653(16)
H7_11 H 0.0510 0.7232 0.3509
C8_11 C 0.07619(15) 0.68692(12) 0.39427(13)
H8_11 H 0.0829 0.6707 0.4016
Ag3_11 Ag 0.057975(8) 0.773934(8) 0.400978(9)
Ag4_11 Ag 0.099022(9) 0.726066(8) 0.442025(8)
N13_11 N 0.11300(12) 0.66381(11) 0.26722(15)
N14_10 N 0.10922(10) 0.58832(9) 0.26672(11)
N15_11 N 0.04006(10) 0.57525(12) 0.34371(10)
N5_11 N 0.98278(15) 0.63700(12) 0.16381(11)
N6_11 N 0.98328(11) 0.60922(10) 0.16168(9)
H1_11 H 0.9891 0.6037 0.2496
C5_11 C 0.9941(2) 0.64196(16) 0.18663(14)
H5_11 H 0.9961 0.6595 0.1939
C6_11 C 0.99496(14) 0.59993(14) 0.18297(11)
H6_11 H 0.9976 0.5814 0.1866
Ag5_9 Ag 0.971611(10) 0.587350(9) 0.124049(9)
Ag6_9 Ag 0.971611(10) 0.662650(9) 0.125951(9)
N16_11 N 0.97860(10) 0.61099(12) 0.31370(13)
Ag1_12 Ag 0.307975(8) 0.023934(8) 0.599022(9)
Ag2_11 Ag 0.278389(10) 0.087350(9) 0.625951(9)
N1_12 N 0.31597(10) 0.07123(11) 0.64545(10)
N2_12 N 0.32688(11) 0.04684(12) 0.63754(12)
N3_12 N 0.25137(10) 0.04930(11) 0.61857(15)
N4_12 N 0.26339(10) 0.02607(10) 0.60837(14)
N7_12 N 0.40629(10) 0.07525(12) 0.70994(10)
N8_12 N 0.38901(12) 0.06370(13) 0.72860(10)
N9_10 N 0.22252(9) 0.01637(11) 0.61780(13)
N10_10 N 0.19883(9) 0.00268(11) 0.61955(12)
N11_12 N 0.34995(10) 0.06289(10) 0.67036(10)
N12_12 N 0.36901(10) 0.06577(11) 0.69020(10)
C1_10 C 0.24616(12) 0.00707(13) 0.60887(18)
C2_10 C 0.22624(12) 0.04263(14) 0.62331(18)
H2_10 H 0.2128 0.0545 0.6297
C3_12 C 0.34729(13) 0.04286(14) 0.65288(14)
H3_12 H 0.3588 0.0277 0.6519
C4_12 C 0.33005(13) 0.08027(14) 0.66494(13)
H4_12 H 0.3269 0.0967 0.6741
C7_12 C 0.36653(16) 0.05866(19) 0.71551(14)
H7_12 H 0.3509 0.0510 0.7232
C8_12 C 0.39427(13) 0.07619(15) 0.68692(12)
H8_12 H 0.4016 0.0829 0.6707
Ag3_12 Ag 0.400978(9) 0.057975(8) 0.773934(8)
Ag4_12 Ag 0.442025(8) 0.099022(9) 0.726066(8)
N13_12 N 0.26722(15) 0.11300(12) 0.66381(11)
N14_11 N 0.26672(11) 0.10922(10) 0.58832(9)
N15_12 N 0.34371(10) 0.04006(10) 0.57525(12)
N5_12 N 0.16381(11) 0.98278(15) 0.63700(12)
N6_12 N 0.16168(9) 0.98328(11) 0.60922(10)
H1_12 H 0.2496 0.9891 0.6037
C5_12 C 0.18663(14) 0.9941(2) 0.64196(16)
H5_12 H 0.1939 0.9961 0.6595
C6_12 C 0.18297(11) 0.99496(14) 0.59993(14)
H6_12 H 0.1866 0.9976 0.5814
Ag5_10 Ag 0.124049(9) 0.971611(10) 0.587350(9)
Ag6_10 Ag 0.125951(9) 0.971611(10) 0.662650(9)
N16_12 N 0.31370(13) 0.97860(10) 0.61099(12)
N5_13 N 0.08619(11) 0.26722(15) 0.63700(12)
N6_13 N 0.08832(9) 0.26672(11) 0.60922(10)
N9_11 N 0.02748(9) 0.23363(11) 0.61780(13)
N10_11 N 0.05117(9) 0.24732(11) 0.61955(12)
C1_11 C 0.00384(12) 0.24293(13) 0.60887(18)
H1_13 H 0.0004 0.2609 0.6037
C2_11 C 0.02376(12) 0.20737(14) 0.62331(18)
H2_11 H 0.0372 0.1955 0.6297
C5_13 C 0.06337(14) 0.2559(2) 0.64196(16)
H5_13 H 0.0561 0.2539 0.6595
C6_13 C 0.06703(11) 0.25504(14) 0.59993(14)
H6_13 H 0.0634 0.2524 0.5814
Ag5_11 Ag 0.125951(9) 0.278389(10) 0.587350(9)
Ag6_11 Ag 0.124049(9) 0.278389(10) 0.662650(9)
Ag1_13 Ag 0.942025(8) 0.226066(8) 0.599022(9)
Ag2_12 Ag 0.971611(10) 0.162650(9) 0.625951(9)
N1_13 N 0.93403(10) 0.17877(11) 0.64545(10)
N2_13 N 0.92312(11) 0.20316(12) 0.63754(12)
N3_13 N 0.99863(10) 0.20070(11) 0.61857(15)
N4_13 N 0.98661(10) 0.22393(10) 0.60837(14)
N7_13 N 0.84371(10) 0.17475(12) 0.70994(10)
N8_13 N 0.86099(12) 0.18630(13) 0.72860(10)
N11_13 N 0.90005(10) 0.18711(10) 0.67036(10)
N12_13 N 0.88099(10) 0.18423(11) 0.69020(10)
C3_13 C 0.90271(13) 0.20714(14) 0.65288(14)
H3_13 H 0.8912 0.2223 0.6519
C4_13 C 0.91995(13) 0.16973(14) 0.66494(13)
H4_13 H 0.9231 0.1533 0.6741
C7_13 C 0.88347(16) 0.19134(19) 0.71551(14)
H7_13 H 0.8991 0.1990 0.7232
C8_13 C 0.85573(13) 0.17381(15) 0.68692(12)
H8_13 H 0.8484 0.1671 0.6707
Ag3_13 Ag 0.849022(9) 0.192025(8) 0.773934(8)
Ag4_13 Ag 0.807975(8) 0.150978(9) 0.726066(8)
N13_13 N 0.98278(15) 0.13700(12) 0.66381(11)
N14_12 N 0.98328(11) 0.14078(10) 0.58832(9)
N15_13 N 0.90629(10) 0.20994(10) 0.57525(12)
N16_13 N 0.93630(13) 0.27140(10) 0.61099(12)
Ag1_14 Ag 0.023934(8) 0.650978(9) 0.942025(8)
Ag2_13 Ag 0.087350(9) 0.624049(9) 0.971611(10)
N1_14 N 0.07123(11) 0.60455(10) 0.93403(10)
N2_14 N 0.04684(12) 0.61246(12) 0.92312(11)
N3_14 N 0.04930(11) 0.63143(15) 0.99863(10)
N4_14 N 0.02607(10) 0.64163(14) 0.98661(10)
N7_14 N 0.07525(12) 0.54006(10) 0.84371(10)
N8_14 N 0.06370(13) 0.52140(10) 0.86099(12)
N11_14 N 0.06289(10) 0.57964(10) 0.90005(10)
N12_14 N 0.06577(11) 0.55980(10) 0.88099(10)
C3_14 C 0.04286(14) 0.59712(14) 0.90271(13)
H3_14 H 0.0277 0.5981 0.8912
C4_14 C 0.08027(14) 0.58506(13) 0.91995(13)
H4_14 H 0.0967 0.5759 0.9231
C7_14 C 0.05866(19) 0.53449(14) 0.88347(16)
H7_14 H 0.0510 0.5268 0.8991
C8_14 C 0.07619(15) 0.56308(12) 0.85573(13)
H8_14 H 0.0829 0.5793 0.8484
Ag3_14 Ag 0.057975(8) 0.476066(8) 0.849022(9)
Ag4_14 Ag 0.099022(9) 0.523934(8) 0.807975(8)
N13_14 N 0.11300(12) 0.58619(11) 0.98278(15)
N14_13 N 0.10922(10) 0.66168(9) 0.98328(11)
N15_14 N 0.04006(10) 0.67475(12) 0.90629(10)
N5_14 N 0.98278(15) 0.61300(12) 0.08619(11)
N6_14 N 0.98328(11) 0.64078(10) 0.08832(9)
H1_14 H 0.9891 0.6463 0.0004
C5_14 C 0.9941(2) 0.60804(16) 0.06337(14)
H5_14 H 0.9961 0.5905 0.0561
C6_14 C 0.99496(14) 0.65007(14) 0.06703(11)
H6_14 H 0.9976 0.6686 0.0634
N16_14 N 0.97860(10) 0.63901(12) 0.93630(13)
N5_15 N 0.08619(11) 0.98278(15) 0.61300(12)
N6_15 N 0.08832(9) 0.98328(11) 0.64078(10)
H1_15 H 0.0004 0.9891 0.6463
C5_15 C 0.06337(14) 0.9941(2) 0.60804(16)
H5_15 H 0.0561 0.9961 0.5905
C6_15 C 0.06703(11) 0.99496(14) 0.65007(14)
H6_15 H 0.0634 0.9976 0.6686
Ag1_15 Ag 0.942025(8) 0.023934(8) 0.650978(9)
Ag2_14 Ag 0.971611(10) 0.087350(9) 0.624049(9)
N1_15 N 0.93403(10) 0.07123(11) 0.60455(10)
N2_15 N 0.92312(11) 0.04684(12) 0.61246(12)
N3_15 N 0.99863(10) 0.04930(11) 0.63143(15)
N4_15 N 0.98661(10) 0.02607(10) 0.64163(14)
N7_15 N 0.84371(10) 0.07525(12) 0.54006(10)
N8_15 N 0.86099(12) 0.06370(13) 0.52140(10)
N11_15 N 0.90005(10) 0.06289(10) 0.57964(10)
N12_15 N 0.88099(10) 0.06577(11) 0.55980(10)
C3_15 C 0.90271(13) 0.04286(14) 0.59712(14)
H3_15 H 0.8912 0.0277 0.5981
C4_15 C 0.91995(13) 0.08027(14) 0.58506(13)
H4_15 H 0.9231 0.0967 0.5759
C7_15 C 0.88347(16) 0.05866(19) 0.53449(14)
H7_15 H 0.8991 0.0510 0.5268
C8_15 C 0.85573(13) 0.07619(15) 0.56308(12)
H8_15 H 0.8484 0.0829 0.5793
Ag3_15 Ag 0.849022(9) 0.057975(8) 0.476066(8)
Ag4_15 Ag 0.807975(8) 0.099022(9) 0.523934(8)
N13_15 N 0.98278(15) 0.11300(12) 0.58619(11)
N14_14 N 0.98328(11) 0.10922(10) 0.66168(9)
N15_15 N 0.90629(10) 0.04006(10) 0.67475(12)
N16_15 N 0.93630(13) 0.97860(10) 0.63901(12)
Ag1_16 Ag 0.226066(8) 0.650978(9) 0.307975(8)
Ag2_15 Ag 0.162650(9) 0.624049(9) 0.278389(10)
N1_16 N 0.17877(11) 0.60455(10) 0.31597(10)
N2_16 N 0.20316(12) 0.61246(12) 0.32688(11)
N3_16 N 0.20070(11) 0.63143(15) 0.25137(10)
N4_16 N 0.22393(10) 0.64163(14) 0.26339(10)
N5_16 N 0.26722(15) 0.61300(12) 0.16381(11)
N6_16 N 0.26672(11) 0.64078(10) 0.16168(9)
N7_16 N 0.17475(12) 0.54006(10) 0.40629(10)
N8_16 N 0.18630(13) 0.52140(10) 0.38901(12)
N9_12 N 0.23363(11) 0.63220(13) 0.22252(9)
N10_12 N 0.24732(11) 0.63045(12) 0.19883(9)
N11_16 N 0.18711(10) 0.57964(10) 0.34995(10)
N12_16 N 0.18423(11) 0.55980(10) 0.36901(10)
C1_12 C 0.24293(13) 0.64113(18) 0.24616(12)
H1_16 H 0.2609 0.6463 0.2496
C2_12 C 0.20737(14) 0.62669(18) 0.22624(12)
H2_12 H 0.1955 0.6203 0.2128
C3_16 C 0.20714(14) 0.59712(14) 0.34729(13)
H3_16 H 0.2223 0.5981 0.3588
C4_16 C 0.16973(14) 0.58506(13) 0.33005(13)
H4_16 H 0.1533 0.5759 0.3269
C5_16 C 0.2559(2) 0.60804(16) 0.18663(14)
H5_16 H 0.2539 0.5905 0.1939
C6_16 C 0.25504(14) 0.65007(14) 0.18297(11)
H6_16 H 0.2524 0.6686 0.1866
C7_16 C 0.19134(19) 0.53449(14) 0.36653(16)
H7_16 H 0.1990 0.5268 0.3509
C8_16 C 0.17381(15) 0.56308(12) 0.39427(13)
H8_16 H 0.1671 0.5793 0.4016
Ag3_16 Ag 0.192025(8) 0.476066(8) 0.400978(9)
Ag4_16 Ag 0.150978(9) 0.523934(8) 0.442025(8)
Ag5_12 Ag 0.278389(10) 0.662650(9) 0.124049(9)
Ag6_12 Ag 0.278389(10) 0.587350(9) 0.125951(9)
N13_16 N 0.13700(12) 0.58619(11) 0.26722(15)
N14_15 N 0.14078(10) 0.66168(9) 0.26672(11)
N15_16 N 0.20994(10) 0.67475(12) 0.34371(10)
N16_16 N 0.27140(10) 0.63901(12) 0.31370(13)
N5_17 N 0.26722(15) 0.63700(12) 0.08619(11)
N6_17 N 0.26672(11) 0.60922(10) 0.08832(9)
N9_13 N 0.23363(11) 0.61780(13) 0.02748(9)
N10_13 N 0.24732(11) 0.61955(12) 0.05117(9)
C1_13 C 0.24293(13) 0.60887(18) 0.00384(12)
H1_17 H 0.2609 0.6037 0.0004
C2_13 C 0.20737(14) 0.62331(18) 0.02376(12)
H2_13 H 0.1955 0.6297 0.0372
C5_17 C 0.2559(2) 0.64196(16) 0.06337(14)
H5_17 H 0.2539 0.6595 0.0561
C6_17 C 0.25504(14) 0.59993(14) 0.06703(11)
H6_17 H 0.2524 0.5814 0.0634
Ag1_17 Ag 0.226066(8) 0.599022(9) 0.942025(8)
Ag2_16 Ag 0.162650(9) 0.625951(9) 0.971611(10)
N1_17 N 0.17877(11) 0.64545(10) 0.93403(10)
N2_17 N 0.20316(12) 0.63754(12) 0.92312(11)
N3_17 N 0.20070(11) 0.61857(15) 0.99863(10)
N4_17 N 0.22393(10) 0.60837(14) 0.98661(10)
N7_17 N 0.17475(12) 0.70994(10) 0.84371(10)
N8_17 N 0.18630(13) 0.72860(10) 0.86099(12)
N11_17 N 0.18711(10) 0.67036(10) 0.90005(10)
N12_17 N 0.18423(11) 0.69020(10) 0.88099(10)
C3_17 C 0.20714(14) 0.65288(14) 0.90271(13)
H3_17 H 0.2223 0.6519 0.8912
C4_17 C 0.16973(14) 0.66494(13) 0.91995(13)
H4_17 H 0.1533 0.6741 0.9231
C7_17 C 0.19134(19) 0.71551(14) 0.88347(16)
H7_17 H 0.1990 0.7232 0.8991
C8_17 C 0.17381(15) 0.68692(12) 0.85573(13)
H8_17 H 0.1671 0.6707 0.8484
Ag3_17 Ag 0.192025(8) 0.773934(8) 0.849022(9)
Ag4_17 Ag 0.150978(9) 0.726066(8) 0.807975(8)
N13_17 N 0.13700(12) 0.66381(11) 0.98278(15)
N14_16 N 0.14078(10) 0.58832(9) 0.98328(11)
N15_17 N 0.20994(10) 0.57525(12) 0.90629(10)
N16_17 N 0.27140(10) 0.61099(12) 0.93630(13)
Ag1_18 Ag 0.307975(8) 0.226066(8) 0.650978(9)
Ag2_17 Ag 0.278389(10) 0.162650(9) 0.624049(9)
N1_18 N 0.31597(10) 0.17877(11) 0.60455(10)
N2_18 N 0.32688(11) 0.20316(12) 0.61246(12)
N3_18 N 0.25137(10) 0.20070(11) 0.63143(15)
N4_18 N 0.26339(10) 0.22393(10) 0.64163(14)
N5_18 N 0.16381(11) 0.26722(15) 0.61300(12)
N6_18 N 0.16168(9) 0.26672(11) 0.64078(10)
N7_18 N 0.40629(10) 0.17475(12) 0.54006(10)
N8_18 N 0.38901(12) 0.18630(13) 0.52140(10)
N9_14 N 0.22252(9) 0.23363(11) 0.63220(13)
N10_14 N 0.19883(9) 0.24732(11) 0.63045(12)
N11_18 N 0.34995(10) 0.18711(10) 0.57964(10)
N12_18 N 0.36901(10) 0.18423(11) 0.55980(10)
C1_14 C 0.24616(12) 0.24293(13) 0.64113(18)
H1_18 H 0.2496 0.2609 0.6463
C2_14 C 0.22624(12) 0.20737(14) 0.62669(18)
H2_14 H 0.2128 0.1955 0.6203
C3_18 C 0.34729(13) 0.20714(14) 0.59712(14)
H3_18 H 0.3588 0.2223 0.5981
C4_18 C 0.33005(13) 0.16973(14) 0.58506(13)
H4_18 H 0.3269 0.1533 0.5759
C5_18 C 0.18663(14) 0.2559(2) 0.60804(16)
H5_18 H 0.1939 0.2539 0.5905
C6_18 C 0.18297(11) 0.25504(14) 0.65007(14)
H6_18 H 0.1866 0.2524 0.6686
C7_18 C 0.36653(16) 0.19134(19) 0.53449(14)
H7_18 H 0.3509 0.1990 0.5268
C8_18 C 0.39427(13) 0.17381(15) 0.56308(12)
H8_18 H 0.4016 0.1671 0.5793
Ag3_18 Ag 0.400978(9) 0.192025(8) 0.476066(8)
Ag4_18 Ag 0.442025(8) 0.150978(9) 0.523934(8)
N13_18 N 0.26722(15) 0.13700(12) 0.58619(11)
N14_17 N 0.26672(11) 0.14078(10) 0.66168(9)
N15_18 N 0.34371(10) 0.20994(10) 0.67475(12)
N16_18 N 0.31370(13) 0.27140(10) 0.63901(12)
N5_19 N 0.41381(11) 0.38700(12) 0.01722(15)
N6_19 N 0.41168(9) 0.35922(10) 0.01672(11)
H1_19 H 0.4996 0.3537 0.0109
C5_19 C 0.43663(14) 0.39196(16) 0.0059(2)
H5_19 H 0.4439 0.4095 0.0039
C6_19 C 0.43297(11) 0.34993(14) 0.00504(14)
H6_19 H 0.4366 0.3314 0.0024
Ag5_13 Ag 0.374049(9) 0.337350(9) 0.028389(10)
Ag6_13 Ag 0.375951(9) 0.412650(9) 0.028389(10)
N16_19 N 0.56370(13) 0.36099(12) 0.02140(10)
Ag1_19 Ag 0.557975(8) 0.349022(9) 0.976066(8)
Ag2_18 Ag 0.528389(10) 0.375951(9) 0.912650(9)
N1_19 N 0.56597(10) 0.39545(10) 0.92877(11)
N2_19 N 0.57688(11) 0.38754(12) 0.95316(12)
N3_19 N 0.50137(10) 0.36857(15) 0.95070(11)
N4_19 N 0.51339(10) 0.35837(14) 0.97393(10)
N7_19 N 0.65629(10) 0.45994(10) 0.92475(12)
N8_19 N 0.63901(12) 0.47860(10) 0.93630(13)
N9_15 N 0.47252(9) 0.36780(13) 0.98363(11)
N10_15 N 0.44883(9) 0.36955(12) 0.99732(11)
N11_19 N 0.59995(10) 0.42036(10) 0.93711(10)
N12_19 N 0.61901(10) 0.44020(10) 0.93423(11)
C1_15 C 0.49616(12) 0.35887(18) 0.99293(13)
C2_15 C 0.47624(12) 0.37331(18) 0.95737(14)
H2_15 H 0.4628 0.3797 0.9455
C3_19 C 0.59729(13) 0.40288(14) 0.95714(14)
H3_19 H 0.6088 0.4019 0.9723
C4_19 C 0.58005(13) 0.41494(13) 0.91973(14)
H4_19 H 0.5769 0.4241 0.9033
C7_19 C 0.61653(16) 0.46551(14) 0.94134(19)
H7_19 H 0.6009 0.4732 0.9490
C8_19 C 0.64427(13) 0.43692(12) 0.92381(15)
H8_19 H 0.6516 0.4207 0.9171
Ag3_19 Ag 0.650978(9) 0.523934(8) 0.942025(8)
Ag4_19 Ag 0.692025(8) 0.476066(8) 0.900978(9)
N13_19 N 0.51722(15) 0.41381(11) 0.88700(12)
N14_18 N 0.51672(11) 0.33832(9) 0.89078(10)
N15_19 N 0.59371(10) 0.32525(12) 0.95994(10)
Ag1_20 Ag 0.692025(8) 0.400978(9) 0.476066(8)
Ag2_19 Ag 0.721611(10) 0.374049(9) 0.412650(9)
N1_20 N 0.68403(10) 0.35455(10) 0.42877(11)
N2_20 N 0.67312(11) 0.36246(12) 0.45316(12)
N3_20 N 0.74863(10) 0.38143(15) 0.45070(11)
N4_20 N 0.73661(10) 0.39163(14) 0.47393(10)
N5_20 N 0.83619(11) 0.36300(12) 0.51722(15)
N6_20 N 0.83832(9) 0.39078(10) 0.51672(11)
N7_20 N 0.59371(10) 0.29006(10) 0.42475(12)
N8_20 N 0.61099(12) 0.27140(10) 0.43630(13)
N9_16 N 0.77748(9) 0.38220(13) 0.48363(11)
N10_16 N 0.80117(9) 0.38045(12) 0.49732(11)
N11_20 N 0.65005(10) 0.32964(10) 0.43711(10)
N12_20 N 0.63099(10) 0.30980(10) 0.43423(11)
C1_16 C 0.75384(12) 0.39113(18) 0.49293(13)
H1_20 H 0.7504 0.3963 0.5109
C2_16 C 0.77376(12) 0.37669(18) 0.45737(14)
H2_16 H 0.7872 0.3703 0.4455
C3_20 C 0.65271(13) 0.34712(14) 0.45714(14)
H3_20 H 0.6412 0.3481 0.4723
C4_20 C 0.66995(13) 0.33506(13) 0.41973(14)
H4_20 H 0.6731 0.3259 0.4033
C5_20 C 0.81337(14) 0.35804(16) 0.5059(2)
H5_20 H 0.8061 0.3405 0.5039
C6_20 C 0.81703(11) 0.40007(14) 0.50504(14)
H6_20 H 0.8134 0.4186 0.5024
C7_20 C 0.63347(16) 0.28449(14) 0.44134(19)
H7_20 H 0.6491 0.2768 0.4490
C8_20 C 0.60573(13) 0.31308(12) 0.42381(15)
H8_20 H 0.5984 0.3293 0.4171
Ag3_20 Ag 0.599022(9) 0.226066(8) 0.442025(8)
Ag4_20 Ag 0.557975(8) 0.273934(8) 0.400978(9)
Ag5_14 Ag 0.875951(9) 0.412650(9) 0.528389(10)
Ag6_14 Ag 0.874049(9) 0.337350(9) 0.528389(10)
N13_20 N 0.73278(15) 0.33619(11) 0.38700(12)
N14_19 N 0.73328(11) 0.41168(9) 0.39078(10)
N15_20 N 0.65629(10) 0.42475(12) 0.45994(10)
N16_20 N 0.68630(13) 0.38901(12) 0.52140(10)
Ag1_21 Ag 0.400978(9) 0.273934(8) 0.057975(8)
N1_21 N 0.35455(10) 0.32123(11) 0.06597(10)
N2_21 N 0.36246(12) 0.29684(12) 0.07688(11)
N3_21 N 0.38143(15) 0.29930(11) 0.00137(10)
N4_21 N 0.39163(14) 0.27607(10) 0.01339(10)
N7_21 N 0.29006(10) 0.32525(12) 0.15629(10)
N8_21 N 0.27140(10) 0.31370(13) 0.13901(12)
N11_21 N 0.32964(10) 0.31289(10) 0.09995(10)
N12_21 N 0.30980(10) 0.31577(11) 0.11901(10)
C3_21 C 0.34712(14) 0.29286(14) 0.09729(13)
H3_21 H 0.3481 0.2777 0.1088
C4_21 C 0.33506(13) 0.33027(14) 0.08005(13)
H4_21 H 0.3259 0.3467 0.0769
C7_21 C 0.28449(14) 0.30866(19) 0.11653(16)
H7_21 H 0.2768 0.3010 0.1009
C8_21 C 0.31308(12) 0.32619(15) 0.14427(13)
H8_21 H 0.3293 0.3329 0.1516
Ag3_21 Ag 0.226066(8) 0.307975(8) 0.150978(9)
Ag4_21 Ag 0.273934(8) 0.349022(9) 0.192025(8)
N13_21 N 0.33619(11) 0.36300(12) 0.01722(15)
N15_21 N 0.42475(12) 0.29006(10) 0.09371(10)
N16_21 N 0.38901(12) 0.22860(10) 0.06370(13)
N5_21 N 0.36300(12) 0.23278(15) 0.91381(11)
N6_21 N 0.39078(10) 0.23328(11) 0.91168(9)
N9_17 N 0.38220(13) 0.26637(11) 0.97252(9)
N10_17 N 0.38045(12) 0.25268(11) 0.94883(9)
C1_17 C 0.39113(18) 0.25707(13) 0.99616(12)
H1_21 H 0.3963 0.2391 0.9996
C2_17 C 0.37669(18) 0.29263(14) 0.97624(12)
H2_17 H 0.3703 0.3045 0.9628
C5_21 C 0.35804(16) 0.2441(2) 0.93663(14)
H5_21 H 0.3405 0.2461 0.9439
C6_21 C 0.40007(14) 0.24496(14) 0.93297(11)
H6_21 H 0.4186 0.2476 0.9366
Ag5_15 Ag 0.412650(9) 0.221611(10) 0.874049(9)
Ag6_15 Ag 0.337350(9) 0.221611(10) 0.875951(9)
N6_22 N 0.39078(10) 0.01672(11) 0.33832(9)
H1_22 H 0.3963 0.0109 0.2504
C5_22 C 0.35804(16) 0.0059(2) 0.31337(14)
H5_22 H 0.3405 0.0039 0.3061
C6_22 C 0.40007(14) 0.00504(14) 0.31703(11)
H6_22 H 0.4186 0.0024 0.3134
Ag5_16 Ag 0.412650(9) 0.028389(10) 0.375951(9)
N16_22 N 0.38901(12) 0.02140(10) 0.18630(13)
Ag1_22 Ag 0.400978(9) 0.976066(8) 0.192025(8)
Ag2_20 Ag 0.374049(9) 0.912650(9) 0.221611(10)
N1_22 N 0.35455(10) 0.92877(11) 0.18403(10)
N2_22 N 0.36246(12) 0.95316(12) 0.17312(11)
N3_22 N 0.38143(15) 0.95070(11) 0.24863(10)
N4_22 N 0.39163(14) 0.97393(10) 0.23661(10)
N7_22 N 0.29006(10) 0.92475(12) 0.09371(10)
N8_22 N 0.27140(10) 0.93630(13) 0.11099(12)
N9_18 N 0.38220(13) 0.98363(11) 0.27748(9)
N10_18 N 0.38045(12) 0.99732(11) 0.30117(9)
N11_22 N 0.32964(10) 0.93711(10) 0.15005(10)
N12_22 N 0.30980(10) 0.93423(11) 0.13099(10)
C1_18 C 0.39113(18) 0.99293(13) 0.25384(12)
C2_18 C 0.37669(18) 0.95737(14) 0.27376(12)
H2_18 H 0.3703 0.9455 0.2872
C3_22 C 0.34712(14) 0.95714(14) 0.15271(13)
H3_22 H 0.3481 0.9723 0.1412
C4_22 C 0.33506(13) 0.91973(14) 0.16995(13)
H4_22 H 0.3259 0.9033 0.1731
C7_22 C 0.28449(14) 0.94134(19) 0.13347(16)
H7_22 H 0.2768 0.9490 0.1491
C8_22 C 0.31308(12) 0.92381(15) 0.10573(13)
H8_22 H 0.3293 0.9171 0.0984
Ag3_22 Ag 0.226066(8) 0.942025(8) 0.099022(9)
Ag4_22 Ag 0.273934(8) 0.900978(9) 0.057975(8)
N13_22 N 0.33619(11) 0.88700(12) 0.23278(15)
N14_20 N 0.41168(9) 0.89078(10) 0.23328(11)
N15_22 N 0.42475(12) 0.95994(10) 0.15629(10)
Ag1_23 Ag 0.273934(8) 0.692025(8) 0.349022(9)
Ag2_21 Ag 0.337350(9) 0.721611(10) 0.375951(9)
N1_23 N 0.32123(11) 0.68403(10) 0.39545(10)
N2_23 N 0.29684(12) 0.67312(11) 0.38754(12)
N3_23 N 0.29930(11) 0.74863(10) 0.36857(15)
N4_23 N 0.27607(10) 0.73661(10) 0.35837(14)
N5_22 N 0.23278(15) 0.83619(11) 0.38700(12)
N6_23 N 0.23328(11) 0.83832(9) 0.35922(10)
N7_23 N 0.32525(12) 0.59371(10) 0.45994(10)
N8_23 N 0.31370(13) 0.61099(12) 0.47860(10)
N9_19 N 0.26637(11) 0.77748(9) 0.36780(13)
N10_19 N 0.25268(11) 0.80117(9) 0.36955(12)
N11_23 N 0.31289(10) 0.65005(10) 0.42036(10)
N12_23 N 0.31577(11) 0.63099(10) 0.44020(10)
C1_19 C 0.25707(13) 0.75384(12) 0.35887(18)
H1_23 H 0.2391 0.7504 0.3537
C2_19 C 0.29263(14) 0.77376(12) 0.37331(18)
H2_19 H 0.3045 0.7872 0.3797
C3_23 C 0.29286(14) 0.65271(13) 0.40288(14)
H3_23 H 0.2777 0.6412 0.4019
C4_23 C 0.33027(14) 0.66995(13) 0.41494(13)
H4_23 H 0.3467 0.6731 0.4241
C5_23 C 0.2441(2) 0.81337(14) 0.39196(16)
H5_23 H 0.2461 0.8061 0.4095
C6_23 C 0.24496(14) 0.81703(11) 0.34993(14)
H6_23 H 0.2476 0.8134 0.3314
C7_23 C 0.30866(19) 0.63347(16) 0.46551(14)
H7_23 H 0.3010 0.6491 0.4732
C8_23 C 0.32619(15) 0.60573(13) 0.43692(12)
H8_23 H 0.3329 0.5984 0.4207
Ag3_23 Ag 0.307975(8) 0.599022(9) 0.523934(8)
Ag4_23 Ag 0.349022(9) 0.557975(8) 0.476066(8)
N13_23 N 0.36300(12) 0.73278(15) 0.41381(11)
N14_21 N 0.35922(10) 0.73328(11) 0.33832(9)
N15_23 N 0.29006(10) 0.65629(10) 0.32525(12)
N16_23 N 0.22860(10) 0.68630(13) 0.36099(12)
N5_23 N 0.01722(15) 0.83619(11) 0.86300(12)
N6_24 N 0.01672(11) 0.83832(9) 0.89078(10)
H1_24 H 0.0109 0.7504 0.8963
C5_24 C 0.0059(2) 0.81337(14) 0.85804(16)
H5_24 H 0.0039 0.8061 0.8405
C6_24 C 0.00504(14) 0.81703(11) 0.90007(14)
H6_24 H 0.0024 0.8134 0.9186
Ag5_17 Ag 0.028389(10) 0.875951(9) 0.912650(9)
Ag6_16 Ag 0.028389(10) 0.874049(9) 0.837350(9)
N16_24 N 0.02140(10) 0.68630(13) 0.88901(12)
Ag1_24 Ag 0.976066(8) 0.692025(8) 0.900978(9)
N1_24 N 0.92877(11) 0.68403(10) 0.85455(10)
N2_24 N 0.95316(12) 0.67312(11) 0.86246(12)
N3_24 N 0.95070(11) 0.74863(10) 0.88143(15)
N4_24 N 0.97393(10) 0.73661(10) 0.89163(14)
N7_24 N 0.92475(12) 0.59371(10) 0.79006(10)
N8_24 N 0.93630(13) 0.61099(12) 0.77140(10)
N9_20 N 0.98363(11) 0.77748(9) 0.88220(13)
N10_20 N 0.99732(11) 0.80117(9) 0.88045(12)
N11_24 N 0.93711(10) 0.65005(10) 0.82964(10)
N12_24 N 0.93423(11) 0.63099(10) 0.80980(10)
C1_20 C 0.99293(13) 0.75384(12) 0.89113(18)
C2_20 C 0.95737(14) 0.77376(12) 0.87669(18)
H2_20 H 0.9455 0.7872 0.8703
C3_24 C 0.95714(14) 0.65271(13) 0.84712(14)
H3_24 H 0.9723 0.6412 0.8481
C4_24 C 0.91973(14) 0.66995(13) 0.83506(13)
H4_24 H 0.9033 0.6731 0.8259
C7_24 C 0.94134(19) 0.63347(16) 0.78449(14)
H7_24 H 0.9490 0.6491 0.7768
C8_24 C 0.92381(15) 0.60573(13) 0.81308(12)
H8_24 H 0.9171 0.5984 0.8293
Ag3_24 Ag 0.942025(8) 0.599022(9) 0.726066(8)
Ag4_24 Ag 0.900978(9) 0.557975(8) 0.773934(8)
N14_22 N 0.89078(10) 0.73328(11) 0.91168(9)
N15_24 N 0.95994(10) 0.65629(10) 0.92475(12)
Ag1_25 Ag 0.599022(9) 0.807975(8) 0.523934(8)
Ag2_22 Ag 0.625951(9) 0.778389(10) 0.587350(9)
N1_25 N 0.64545(10) 0.81597(10) 0.57123(11)
N2_25 N 0.63754(12) 0.82688(11) 0.54684(12)
N3_25 N 0.61857(15) 0.75137(10) 0.54930(11)
N4_25 N 0.60837(14) 0.76339(10) 0.52607(10)
N5_24 N 0.63700(12) 0.66381(11) 0.48278(15)
N6_25 N 0.60922(10) 0.66168(9) 0.48328(11)
N7_25 N 0.70994(10) 0.90629(10) 0.57525(12)
N8_25 N 0.72860(10) 0.88901(12) 0.56370(13)
N9_21 N 0.61780(13) 0.72252(9) 0.51637(11)
N10_21 N 0.61955(12) 0.69883(9) 0.50268(11)
N11_25 N 0.67036(10) 0.84995(10) 0.56289(10)
N12_25 N 0.69020(10) 0.86901(10) 0.56577(11)
C1_21 C 0.60887(18) 0.74616(12) 0.50707(13)
H1_25 H 0.6037 0.7496 0.4891
C2_21 C 0.62331(18) 0.72624(12) 0.54263(14)
H2_21 H 0.6297 0.7128 0.5545
C3_25 C 0.65288(14) 0.84729(13) 0.54286(14)
H3_25 H 0.6519 0.8588 0.5277
C4_25 C 0.66494(13) 0.83005(13) 0.58027(14)
H4_25 H 0.6741 0.8269 0.5967
C5_25 C 0.64196(16) 0.68663(14) 0.4941(2)
H5_25 H 0.6595 0.6939 0.4961
C6_25 C 0.59993(14) 0.68297(11) 0.49496(14)
H6_25 H 0.5814 0.6866 0.4976
C7_25 C 0.71551(14) 0.86653(16) 0.55866(19)
H7_25 H 0.7232 0.8509 0.5510
C8_25 C 0.68692(12) 0.89427(13) 0.57619(15)
H8_25 H 0.6707 0.9016 0.5829
Ag3_25 Ag 0.773934(8) 0.900978(9) 0.557975(8)
Ag4_25 Ag 0.726066(8) 0.942025(8) 0.599022(9)
Ag5_18 Ag 0.587350(9) 0.624049(9) 0.471611(10)
Ag6_17 Ag 0.662650(9) 0.625951(9) 0.471611(10)
N13_24 N 0.66381(11) 0.76722(15) 0.61300(12)
N14_23 N 0.58832(9) 0.76672(11) 0.60922(10)
N15_25 N 0.57525(12) 0.84371(10) 0.54006(10)
N16_25 N 0.61099(12) 0.81370(13) 0.47860(10)
Ag1_26 Ag 0.692025(8) 0.349022(9) 0.273934(8)
Ag2_23 Ag 0.721611(10) 0.375951(9) 0.337350(9)
N1_26 N 0.68403(10) 0.39545(10) 0.32123(11)
N2_26 N 0.67312(11) 0.38754(12) 0.29684(12)
N3_26 N 0.74863(10) 0.36857(15) 0.29930(11)
N4_26 N 0.73661(10) 0.35837(14) 0.27607(10)
N5_25 N 0.83619(11) 0.38700(12) 0.23278(15)
N6_26 N 0.83832(9) 0.35922(10) 0.23328(11)
N7_26 N 0.59371(10) 0.45994(10) 0.32525(12)
N8_26 N 0.61099(12) 0.47860(10) 0.31370(13)
N9_22 N 0.77748(9) 0.36780(13) 0.26637(11)
N10_22 N 0.80117(9) 0.36955(12) 0.25268(11)
N11_26 N 0.65005(10) 0.42036(10) 0.31289(10)
N12_26 N 0.63099(10) 0.44020(10) 0.31577(11)
C1_22 C 0.75384(12) 0.35887(18) 0.25707(13)
H1_26 H 0.7504 0.3537 0.2391
C2_22 C 0.77376(12) 0.37331(18) 0.29263(14)
H2_22 H 0.7872 0.3797 0.3045
C3_26 C 0.65271(13) 0.40288(14) 0.29286(14)
H3_26 H 0.6412 0.4019 0.2777
C4_26 C 0.66995(13) 0.41494(13) 0.33027(14)
H4_26 H 0.6731 0.4241 0.3467
C5_26 C 0.81337(14) 0.39196(16) 0.2441(2)
H5_26 H 0.8061 0.4095 0.2461
C6_26 C 0.81703(11) 0.34993(14) 0.24496(14)
H6_26 H 0.8134 0.3314 0.2476
C7_26 C 0.63347(16) 0.46551(14) 0.30866(19)
H7_26 H 0.6491 0.4732 0.3010
C8_26 C 0.60573(13) 0.43692(12) 0.32619(15)
H8_26 H 0.5984 0.4207 0.3329
Ag3_26 Ag 0.599022(9) 0.523934(8) 0.307975(8)
Ag4_26 Ag 0.557975(8) 0.476066(8) 0.349022(9)
Ag5_19 Ag 0.875951(9) 0.337350(9) 0.221611(10)
Ag6_18 Ag 0.874049(9) 0.412650(9) 0.221611(10)
N13_25 N 0.73278(15) 0.41381(11) 0.36300(12)
N14_24 N 0.73328(11) 0.33832(9) 0.35922(10)
N15_26 N 0.65629(10) 0.32525(12) 0.29006(10)
N16_26 N 0.68630(13) 0.36099(12) 0.22860(10)
Ag1_27 Ag 0.650978(9) 0.442025(8) 0.523934(8)
Ag2_24 Ag 0.624049(9) 0.471611(10) 0.587350(9)
N1_27 N 0.60455(10) 0.43403(10) 0.57123(11)
N2_27 N 0.61246(12) 0.42312(11) 0.54684(12)
N3_27 N 0.63143(15) 0.49863(10) 0.54930(11)
N4_27 N 0.64163(14) 0.48661(10) 0.52607(10)
N5_26 N 0.61300(12) 0.58619(11) 0.48278(15)
N6_27 N 0.64078(10) 0.58832(9) 0.48328(11)
N7_27 N 0.54006(10) 0.34371(10) 0.57525(12)
N8_27 N 0.52140(10) 0.36099(12) 0.56370(13)
N9_23 N 0.63220(13) 0.52748(9) 0.51637(11)
N10_23 N 0.63045(12) 0.55117(9) 0.50268(11)
N11_27 N 0.57964(10) 0.40005(10) 0.56289(10)
N12_27 N 0.55980(10) 0.38099(10) 0.56577(11)
C1_23 C 0.64113(18) 0.50384(12) 0.50707(13)
H1_27 H 0.6463 0.5004 0.4891
C2_23 C 0.62669(18) 0.52376(12) 0.54263(14)
H2_23 H 0.6203 0.5372 0.5545
C3_27 C 0.59712(14) 0.40271(13) 0.54286(14)
H3_27 H 0.5981 0.3912 0.5277
C4_27 C 0.58506(13) 0.41995(13) 0.58027(14)
H4_27 H 0.5759 0.4231 0.5967
C5_27 C 0.60804(16) 0.56337(14) 0.4941(2)
H5_27 H 0.5905 0.5561 0.4961
C6_27 C 0.65007(14) 0.56703(11) 0.49496(14)
H6_27 H 0.6686 0.5634 0.4976
C7_27 C 0.53449(14) 0.38347(16) 0.55866(19)
H7_27 H 0.5268 0.3991 0.5510
C8_27 C 0.56308(12) 0.35573(13) 0.57619(15)
H8_27 H 0.5793 0.3484 0.5829
Ag3_27 Ag 0.476066(8) 0.349022(9) 0.557975(8)
Ag4_27 Ag 0.523934(8) 0.307975(8) 0.599022(9)
N13_26 N 0.58619(11) 0.48278(15) 0.61300(12)
N14_25 N 0.66168(9) 0.48328(11) 0.60922(10)
N15_27 N 0.67475(12) 0.40629(10) 0.54006(10)
N16_27 N 0.63901(12) 0.43630(13) 0.47860(10)
Ag1_28 Ag 0.557975(8) 0.900978(9) 0.273934(8)
Ag2_25 Ag 0.528389(10) 0.874049(9) 0.337350(9)
N1_28 N 0.56597(10) 0.85455(10) 0.32123(11)
N2_28 N 0.57688(11) 0.86246(12) 0.29684(12)
N3_28 N 0.50137(10) 0.88143(15) 0.29930(11)
N4_28 N 0.51339(10) 0.89163(14) 0.27607(10)
N5_27 N 0.41381(11) 0.86300(12) 0.23278(15)
N7_28 N 0.65629(10) 0.79006(10) 0.32525(12)
N8_28 N 0.63901(12) 0.77140(10) 0.31370(13)
N9_24 N 0.47252(9) 0.88220(13) 0.26637(11)
N10_24 N 0.44883(9) 0.88045(12) 0.25268(11)
N11_28 N 0.59995(10) 0.82964(10) 0.31289(10)
N12_28 N 0.61901(10) 0.80980(10) 0.31577(11)
C1_24 C 0.49616(12) 0.89113(18) 0.25707(13)
H1_28 H 0.4996 0.8963 0.2391
C2_24 C 0.47624(12) 0.87669(18) 0.29263(14)
H2_24 H 0.4628 0.8703 0.3045
C3_28 C 0.59729(13) 0.84712(14) 0.29286(14)
H3_28 H 0.6088 0.8481 0.2777
C4_28 C 0.58005(13) 0.83506(13) 0.33027(14)
H4_28 H 0.5769 0.8259 0.3467
C5_28 C 0.43663(14) 0.85804(16) 0.2441(2)
H5_28 H 0.4439 0.8405 0.2461
C6_28 C 0.43297(11) 0.90007(14) 0.24496(14)
H6_28 H 0.4366 0.9186 0.2476
C7_28 C 0.61653(16) 0.78449(14) 0.30866(19)
H7_28 H 0.6009 0.7768 0.3010
C8_28 C 0.64427(13) 0.81308(12) 0.32619(15)
H8_28 H 0.6516 0.8293 0.3329
Ag3_28 Ag 0.650978(9) 0.726066(8) 0.307975(8)
Ag4_28 Ag 0.692025(8) 0.773934(8) 0.349022(9)
Ag6_19 Ag 0.375951(9) 0.837350(9) 0.221611(10)
N13_27 N 0.51722(15) 0.83619(11) 0.36300(12)
N14_26 N 0.51672(11) 0.91168(9) 0.35922(10)
N15_28 N 0.59371(10) 0.92475(12) 0.29006(10)
N16_28 N 0.56370(13) 0.88901(12) 0.22860(10)
Ag3_29 Ag 0.023934(8) 0.442025(8) 0.650978(9)
Ag1_29 Ag 0.849022(9) 0.476066(8) 0.557975(8)
N1_29 N 0.89545(10) 0.42877(11) 0.56597(10)
N2_29 N 0.88754(12) 0.45316(12) 0.57688(11)
N3_29 N 0.86857(15) 0.45070(11) 0.50137(10)
N4_29 N 0.85837(14) 0.47393(10) 0.51339(10)
N6_28 N 0.85922(10) 0.51672(11) 0.41168(9)
N7_29 N 0.95994(10) 0.42475(12) 0.65629(10)
N8_29 N 0.97860(10) 0.43630(13) 0.63901(12)
N9_25 N 0.86780(13) 0.48363(11) 0.47252(9)
N10_25 N 0.86955(12) 0.49732(11) 0.44883(9)
N11_29 N 0.92036(10) 0.43711(10) 0.59995(10)
N12_29 N 0.94020(10) 0.43423(11) 0.61901(10)
C1_25 C 0.85887(18) 0.49293(13) 0.49616(12)
H1_29 H 0.8537 0.5109 0.4996
C2_25 C 0.87331(18) 0.45737(14) 0.47624(12)
H2_25 H 0.8797 0.4455 0.4628
C3_29 C 0.90288(14) 0.45714(14) 0.59729(13)
H3_29 H 0.9019 0.4723 0.6088
C4_29 C 0.91494(13) 0.41973(14) 0.58005(13)
H4_29 H 0.9241 0.4033 0.5769
C5_29 C 0.89196(16) 0.5059(2) 0.43663(14)
H5_29 H 0.9095 0.5039 0.4439
C6_29 C 0.84993(14) 0.50504(14) 0.43297(11)
H6_29 H 0.8314 0.5024 0.4366
C7_29 C 0.96551(14) 0.44134(19) 0.61653(16)
H7_29 H 0.9732 0.4490 0.6009
C8_29 C 0.93692(12) 0.42381(15) 0.64427(13)
H8_29 H 0.9207 0.4171 0.6516
Ag4_29 Ag 0.976066(8) 0.400978(9) 0.692025(8)
Ag5_20 Ag 0.837350(9) 0.528389(10) 0.374049(9)
N13_28 N 0.91381(11) 0.38700(12) 0.51722(15)
N15_29 N 0.82525(12) 0.45994(10) 0.59371(10)
N16_29 N 0.86099(12) 0.52140(10) 0.56370(13)
Ag1_30 Ag 0.599022(9) 0.442025(8) 0.726066(8)
Ag2_26 Ag 0.625951(9) 0.471611(10) 0.662650(9)
N1_30 N 0.64545(10) 0.43403(10) 0.67877(11)
N2_30 N 0.63754(12) 0.42312(11) 0.70316(12)
N3_30 N 0.61857(15) 0.49863(10) 0.70070(11)
N4_30 N 0.60837(14) 0.48661(10) 0.72393(10)
N5_28 N 0.63700(12) 0.58619(11) 0.76722(15)
N6_29 N 0.60922(10) 0.58832(9) 0.76672(11)
N7_30 N 0.70994(10) 0.34371(10) 0.67475(12)
N8_30 N 0.72860(10) 0.36099(12) 0.68630(13)
N9_26 N 0.61780(13) 0.52748(9) 0.73363(11)
N10_26 N 0.61955(12) 0.55117(9) 0.74732(11)
N11_30 N 0.67036(10) 0.40005(10) 0.68711(10)
N12_30 N 0.69020(10) 0.38099(10) 0.68423(11)
C1_26 C 0.60887(18) 0.50384(12) 0.74293(13)
H1_30 H 0.6037 0.5004 0.7609
C2_26 C 0.62331(18) 0.52376(12) 0.70737(14)
H2_26 H 0.6297 0.5372 0.6955
C3_30 C 0.65288(14) 0.40271(13) 0.70714(14)
H3_30 H 0.6519 0.3912 0.7223
C4_30 C 0.66494(13) 0.41995(13) 0.66973(14)
H4_30 H 0.6741 0.4231 0.6533
C5_30 C 0.64196(16) 0.56337(14) 0.7559(2)
H5_30 H 0.6595 0.5561 0.7539
C6_30 C 0.59993(14) 0.56703(11) 0.75504(14)
H6_30 H 0.5814 0.5634 0.7524
C7_30 C 0.71551(14) 0.38347(16) 0.69134(19)
H7_30 H 0.7232 0.3991 0.6990
C8_30 C 0.68692(12) 0.35573(13) 0.67381(15)
H8_30 H 0.6707 0.3484 0.6671
Ag3_30 Ag 0.773934(8) 0.349022(9) 0.692025(8)
Ag4_30 Ag 0.726066(8) 0.307975(8) 0.650978(9)
Ag5_21 Ag 0.587350(9) 0.625951(9) 0.778389(10)
Ag6_20 Ag 0.662650(9) 0.624049(9) 0.778389(10)
N13_29 N 0.66381(11) 0.48278(15) 0.63700(12)
N14_27 N 0.58832(9) 0.48328(11) 0.64078(10)
N15_30 N 0.57525(12) 0.40629(10) 0.70994(10)
N16_30 N 0.61099(12) 0.43630(13) 0.77140(10)
Ag3_31 Ag 0.023934(8) 0.307975(8) 0.099022(9)
Ag1_31 Ag 0.849022(9) 0.273934(8) 0.192025(8)
N1_31 N 0.89545(10) 0.32123(11) 0.18403(10)
N2_31 N 0.88754(12) 0.29684(12) 0.17312(11)
N3_31 N 0.86857(15) 0.29930(11) 0.24863(10)
N4_31 N 0.85837(14) 0.27607(10) 0.23661(10)
N5_29 N 0.88700(12) 0.23278(15) 0.33619(11)
N6_30 N 0.85922(10) 0.23328(11) 0.33832(9)
N7_31 N 0.95994(10) 0.32525(12) 0.09371(10)
N8_31 N 0.97860(10) 0.31370(13) 0.11099(12)
N9_27 N 0.86780(13) 0.26637(11) 0.27748(9)
N10_27 N 0.86955(12) 0.25268(11) 0.30117(9)
N11_31 N 0.92036(10) 0.31289(10) 0.15005(10)
N12_31 N 0.94020(10) 0.31577(11) 0.13099(10)
C1_27 C 0.85887(18) 0.25707(13) 0.25384(12)
H1_31 H 0.8537 0.2391 0.2504
C2_27 C 0.87331(18) 0.29263(14) 0.27376(12)
H2_27 H 0.8797 0.3045 0.2872
C3_31 C 0.90288(14) 0.29286(14) 0.15271(13)
H3_31 H 0.9019 0.2777 0.1412
C4_31 C 0.91494(13) 0.33027(14) 0.16995(13)
H4_31 H 0.9241 0.3467 0.1731
C5_31 C 0.89196(16) 0.2441(2) 0.31337(14)
H5_31 H 0.9095 0.2461 0.3061
C6_31 C 0.84993(14) 0.24496(14) 0.31703(11)
H6_31 H 0.8314 0.2476 0.3134
C7_31 C 0.96551(14) 0.30866(19) 0.13347(16)
H7_31 H 0.9732 0.3010 0.1491
C8_31 C 0.93692(12) 0.32619(15) 0.10573(13)
H8_31 H 0.9207 0.3329 0.0984
Ag4_31 Ag 0.976066(8) 0.349022(9) 0.057975(8)
Ag5_22 Ag 0.837350(9) 0.221611(10) 0.375951(9)
Ag6_21 Ag 0.912650(9) 0.221611(10) 0.374049(9)
N13_30 N 0.91381(11) 0.36300(12) 0.23278(15)
N15_31 N 0.82525(12) 0.29006(10) 0.15629(10)
N16_31 N 0.86099(12) 0.22860(10) 0.18630(13)
Ag1_32 Ag 0.273934(8) 0.557975(8) 0.900978(9)
Ag2_27 Ag 0.337350(9) 0.528389(10) 0.874049(9)
N1_32 N 0.32123(11) 0.56597(10) 0.85455(10)
N2_32 N 0.29684(12) 0.57688(11) 0.86246(12)
N3_32 N 0.29930(11) 0.50137(10) 0.88143(15)
N4_32 N 0.27607(10) 0.51339(10) 0.89163(14)
N5_30 N 0.23278(15) 0.41381(11) 0.86300(12)
N6_31 N 0.23328(11) 0.41168(9) 0.89078(10)
N7_32 N 0.32525(12) 0.65629(10) 0.79006(10)
N8_32 N 0.31370(13) 0.63901(12) 0.77140(10)
N9_28 N 0.26637(11) 0.47252(9) 0.88220(13)
N10_28 N 0.25268(11) 0.44883(9) 0.88045(12)
N11_32 N 0.31289(10) 0.59995(10) 0.82964(10)
N12_32 N 0.31577(11) 0.61901(10) 0.80980(10)
C1_28 C 0.25707(13) 0.49616(12) 0.89113(18)
H1_32 H 0.2391 0.4996 0.8963
C2_28 C 0.29263(14) 0.47624(12) 0.87669(18)
H2_28 H 0.3045 0.4628 0.8703
C3_32 C 0.29286(14) 0.59729(13) 0.84712(14)
H3_32 H 0.2777 0.6088 0.8481
C4_32 C 0.33027(14) 0.58005(13) 0.83506(13)
H4_32 H 0.3467 0.5769 0.8259
C5_32 C 0.2441(2) 0.43663(14) 0.85804(16)
H5_32 H 0.2461 0.4439 0.8405
C6_32 C 0.24496(14) 0.43297(11) 0.90007(14)
H6_32 H 0.2476 0.4366 0.9186
C7_32 C 0.30866(19) 0.61653(16) 0.78449(14)
H7_32 H 0.3010 0.6009 0.7768
C8_32 C 0.32619(15) 0.64427(13) 0.81308(12)
H8_32 H 0.3329 0.6516 0.8293
Ag3_32 Ag 0.307975(8) 0.650978(9) 0.726066(8)
Ag4_32 Ag 0.349022(9) 0.692025(8) 0.773934(8)
Ag5_23 Ag 0.221611(10) 0.374049(9) 0.912650(9)
Ag6_22 Ag 0.221611(10) 0.375951(9) 0.837350(9)
N13_31 N 0.36300(12) 0.51722(15) 0.83619(11)
N14_28 N 0.35922(10) 0.51672(11) 0.91168(9)
N15_32 N 0.29006(10) 0.59371(10) 0.92475(12)
N16_32 N 0.22860(10) 0.56370(13) 0.88901(12)
Ag1_33 Ag 0.650978(9) 0.807975(8) 0.726066(8)
Ag2_28 Ag 0.624049(9) 0.778389(10) 0.662650(9)
N1_33 N 0.60455(10) 0.81597(10) 0.67877(11)
N2_33 N 0.61246(12) 0.82688(11) 0.70316(12)
N3_33 N 0.63143(15) 0.75137(10) 0.70070(11)
N4_33 N 0.64163(14) 0.76339(10) 0.72393(10)
N5_31 N 0.61300(12) 0.66381(11) 0.76722(15)
N6_32 N 0.64078(10) 0.66168(9) 0.76672(11)
N7_33 N 0.54006(10) 0.90629(10) 0.67475(12)
N8_33 N 0.52140(10) 0.88901(12) 0.68630(13)
N9_29 N 0.63220(13) 0.72252(9) 0.73363(11)
N10_29 N 0.63045(12) 0.69883(9) 0.74732(11)
N11_33 N 0.57964(10) 0.84995(10) 0.68711(10)
N12_33 N 0.55980(10) 0.86901(10) 0.68423(11)
C1_29 C 0.64113(18) 0.74616(12) 0.74293(13)
H1_33 H 0.6463 0.7496 0.7609
C2_29 C 0.62669(18) 0.72624(12) 0.70737(14)
H2_29 H 0.6203 0.7128 0.6955
C3_33 C 0.59712(14) 0.84729(13) 0.70714(14)
H3_33 H 0.5981 0.8588 0.7223
C4_33 C 0.58506(13) 0.83005(13) 0.66973(14)
H4_33 H 0.5759 0.8269 0.6533
C5_33 C 0.60804(16) 0.68663(14) 0.7559(2)
H5_33 H 0.5905 0.6939 0.7539
C6_33 C 0.65007(14) 0.68297(11) 0.75504(14)
H6_33 H 0.6686 0.6866 0.7524
C7_33 C 0.53449(14) 0.86653(16) 0.69134(19)
H7_33 H 0.5268 0.8509 0.6990
C8_33 C 0.56308(12) 0.89427(13) 0.67381(15)
H8_33 H 0.5793 0.9016 0.6671
Ag3_33 Ag 0.476066(8) 0.900978(9) 0.692025(8)
Ag4_33 Ag 0.523934(8) 0.942025(8) 0.650978(9)
N13_32 N 0.58619(11) 0.76722(15) 0.63700(12)
N14_29 N 0.66168(9) 0.76672(11) 0.64078(10)
N15_33 N 0.67475(12) 0.84371(10) 0.70994(10)
N16_33 N 0.63901(12) 0.81370(13) 0.77140(10)
N16_34 N 0.02140(10) 0.06370(13) 0.86099(12)
N5_32 N 0.01722(15) 0.91381(11) 0.88700(12)
N6_33 N 0.01672(11) 0.91168(9) 0.85922(10)
H1_34 H 0.0109 0.9996 0.8537
C5_34 C 0.0059(2) 0.93663(14) 0.89196(16)
H5_34 H 0.0039 0.9439 0.9095
C6_34 C 0.00504(14) 0.93297(11) 0.84993(14)
H6_34 H 0.0024 0.9366 0.8314
Ag3_34 Ag 0.942025(8) 0.150978(9) 0.023934(8)
Ag1_34 Ag 0.976066(8) 0.057975(8) 0.849022(9)
N1_34 N 0.92877(11) 0.06597(10) 0.89545(10)
N2_34 N 0.95316(12) 0.07688(11) 0.88754(12)
N3_34 N 0.95070(11) 0.00137(10) 0.86857(15)
N4_34 N 0.97393(10) 0.01339(10) 0.85837(14)
N7_34 N 0.92475(12) 0.15629(10) 0.95994(10)
N8_34 N 0.93630(13) 0.13901(12) 0.97860(10)
N11_34 N 0.93711(10) 0.09995(10) 0.92036(10)
N12_34 N 0.93423(11) 0.11901(10) 0.94020(10)
C3_34 C 0.95714(14) 0.09729(13) 0.90288(14)
H3_34 H 0.9723 0.1088 0.9019
C4_34 C 0.91973(14) 0.08005(13) 0.91494(13)
H4_34 H 0.9033 0.0769 0.9241
C7_34 C 0.94134(19) 0.11653(16) 0.96551(14)
H7_34 H 0.9490 0.1009 0.9732
C8_34 C 0.92381(15) 0.14427(13) 0.93692(12)
H8_34 H 0.9171 0.1516 0.9207
Ag4_34 Ag 0.900978(9) 0.192025(8) 0.976066(8)
N14_30 N 0.89078(10) 0.01672(11) 0.83832(9)
N15_34 N 0.95994(10) 0.09371(10) 0.82525(12)
Ag1_35 Ag 0.023934(8) 0.099022(9) 0.807975(8)
Ag2_29 Ag 0.087350(9) 0.125951(9) 0.778389(10)
N1_35 N 0.07123(11) 0.14545(10) 0.81597(10)
N2_35 N 0.04684(12) 0.13754(12) 0.82688(11)
N3_35 N 0.04930(11) 0.11857(15) 0.75137(10)
N4_35 N 0.02607(10) 0.10837(14) 0.76339(10)
N7_35 N 0.07525(12) 0.20994(10) 0.90629(10)
N8_35 N 0.06370(13) 0.22860(10) 0.88901(12)
N9_30 N 0.01637(11) 0.11780(13) 0.72252(9)
N10_30 N 0.00268(11) 0.11955(12) 0.69883(9)
N11_35 N 0.06289(10) 0.17036(10) 0.84995(10)
N12_35 N 0.06577(11) 0.19020(10) 0.86901(10)
C1_30 C 0.00707(13) 0.10887(18) 0.74616(12)
C2_30 C 0.04263(14) 0.12331(18) 0.72624(12)
H2_30 H 0.0545 0.1297 0.7128
C3_35 C 0.04286(14) 0.15288(14) 0.84729(13)
H3_35 H 0.0277 0.1519 0.8588
C4_35 C 0.08027(14) 0.16494(13) 0.83005(13)
H4_35 H 0.0967 0.1741 0.8269
C7_35 C 0.05866(19) 0.21551(14) 0.86653(16)
H7_35 H 0.0510 0.2232 0.8509
C8_35 C 0.07619(15) 0.18692(12) 0.89427(13)
H8_35 H 0.0829 0.1707 0.9016
Ag3_35 Ag 0.057975(8) 0.273934(8) 0.900978(9)
Ag4_35 Ag 0.099022(9) 0.226066(8) 0.942025(8)
N13_33 N 0.11300(12) 0.16381(11) 0.76722(15)
N14_31 N 0.10922(10) 0.08832(9) 0.76672(11)
N15_35 N 0.04006(10) 0.07525(12) 0.84371(10)
H1_35 H 0.9891 0.1037 0.7496
C5_35 C 0.9941(2) 0.14196(16) 0.68663(14)
H5_35 H 0.9961 0.1595 0.6939
C6_35 C 0.99496(14) 0.09993(14) 0.68297(11)
H6_35 H 0.9976 0.0814 0.6866
N16_35 N 0.97860(10) 0.11099(12) 0.81370(13)
Ag1_36 Ag 0.307975(8) 0.523934(8) 0.099022(9)
N1_36 N 0.31597(10) 0.57123(11) 0.14545(10)
N2_36 N 0.32688(11) 0.54684(12) 0.13754(12)
N3_36 N 0.25137(10) 0.54930(11) 0.11857(15)
N4_36 N 0.26339(10) 0.52607(10) 0.10837(14)
N5_33 N 0.16381(11) 0.48278(15) 0.13700(12)
N6_34 N 0.16168(9) 0.48328(11) 0.10922(10)
N7_36 N 0.40629(10) 0.57525(12) 0.20994(10)
N8_36 N 0.38901(12) 0.56370(13) 0.22860(10)
N9_31 N 0.22252(9) 0.51637(11) 0.11780(13)
N10_31 N 0.19883(9) 0.50268(11) 0.11955(12)
N11_36 N 0.34995(10) 0.56289(10) 0.17036(10)
N12_36 N 0.36901(10) 0.56577(11) 0.19020(10)
C1_31 C 0.24616(12) 0.50707(13) 0.10887(18)
H1_36 H 0.2496 0.4891 0.1037
C2_31 C 0.22624(12) 0.54263(14) 0.12331(18)
H2_31 H 0.2128 0.5545 0.1297
C3_36 C 0.34729(13) 0.54286(14) 0.15288(14)
H3_36 H 0.3588 0.5277 0.1519
C4_36 C 0.33005(13) 0.58027(14) 0.16494(13)
H4_36 H 0.3269 0.5967 0.1741
C5_36 C 0.18663(14) 0.4941(2) 0.14196(16)
H5_36 H 0.1939 0.4961 0.1595
C6_36 C 0.18297(11) 0.49496(14) 0.09993(14)
H6_36 H 0.1866 0.4976 0.0814
C7_36 C 0.36653(16) 0.55866(19) 0.21551(14)
H7_36 H 0.3509 0.5510 0.2232
C8_36 C 0.39427(13) 0.57619(15) 0.18692(12)
H8_36 H 0.4016 0.5829 0.1707
Ag3_36 Ag 0.400978(9) 0.557975(8) 0.273934(8)
Ag4_36 Ag 0.442025(8) 0.599022(9) 0.226066(8)
Ag5_24 Ag 0.124049(9) 0.471611(10) 0.087350(9)
Ag6_23 Ag 0.125951(9) 0.471611(10) 0.162650(9)
N15_36 N 0.34371(10) 0.54006(10) 0.07525(12)
N16_36 N 0.31370(13) 0.47860(10) 0.11099(12)
N5_34 N 0.08619(11) 0.76722(15) 0.13700(12)
N6_35 N 0.08832(9) 0.76672(11) 0.10922(10)
N9_32 N 0.02748(9) 0.73363(11) 0.11780(13)
N10_32 N 0.05117(9) 0.74732(11) 0.11955(12)
C1_32 C 0.00384(12) 0.74293(13) 0.10887(18)
H1_37 H 0.0004 0.7609 0.1037
C2_32 C 0.02376(12) 0.70737(14) 0.12331(18)
H2_32 H 0.0372 0.6955 0.1297
C5_37 C 0.06337(14) 0.7559(2) 0.14196(16)
H5_37 H 0.0561 0.7539 0.1595
C6_37 C 0.06703(11) 0.75504(14) 0.09993(14)
H6_37 H 0.0634 0.7524 0.0814
Ag5_25 Ag 0.125951(9) 0.778389(10) 0.087350(9)
Ag6_24 Ag 0.124049(9) 0.778389(10) 0.162650(9)
Ag1_37 Ag 0.942025(8) 0.726066(8) 0.099022(9)
N1_37 N 0.93403(10) 0.67877(11) 0.14545(10)
N2_37 N 0.92312(11) 0.70316(12) 0.13754(12)
N3_37 N 0.99863(10) 0.70070(11) 0.11857(15)
N4_37 N 0.98661(10) 0.72393(10) 0.10837(14)
N7_37 N 0.84371(10) 0.67475(12) 0.20994(10)
N8_37 N 0.86099(12) 0.68630(13) 0.22860(10)
N11_37 N 0.90005(10) 0.68711(10) 0.17036(10)
N12_37 N 0.88099(10) 0.68423(11) 0.19020(10)
C3_37 C 0.90271(13) 0.70714(14) 0.15288(14)
H3_37 H 0.8912 0.7223 0.1519
C4_37 C 0.91995(13) 0.66973(14) 0.16494(13)
H4_37 H 0.9231 0.6533 0.1741
C7_37 C 0.88347(16) 0.69134(19) 0.21551(14)
H7_37 H 0.8991 0.6990 0.2232
C8_37 C 0.85573(13) 0.67381(15) 0.18692(12)
H8_37 H 0.8484 0.6671 0.1707
Ag3_37 Ag 0.849022(9) 0.692025(8) 0.273934(8)
Ag4_37 Ag 0.807975(8) 0.650978(9) 0.226066(8)
N15_37 N 0.90629(10) 0.70994(10) 0.07525(12)
N16_37 N 0.93630(13) 0.77140(10) 0.11099(12)
Ag1_38 Ag 0.023934(8) 0.150978(9) 0.442025(8)
Ag2_30 Ag 0.087350(9) 0.124049(9) 0.471611(10)
N1_38 N 0.07123(11) 0.10455(10) 0.43403(10)
N2_38 N 0.04684(12) 0.11246(12) 0.42312(11)
N3_38 N 0.04930(11) 0.13143(15) 0.49863(10)
N4_38 N 0.02607(10) 0.14163(14) 0.48661(10)
N7_38 N 0.07525(12) 0.04006(10) 0.34371(10)
N8_38 N 0.06370(13) 0.02140(10) 0.36099(12)
N9_33 N 0.01637(11) 0.13220(13) 0.52748(9)
N10_33 N 0.00268(11) 0.13045(12) 0.55117(9)
N11_38 N 0.06289(10) 0.07964(10) 0.40005(10)
N12_38 N 0.06577(11) 0.05980(10) 0.38099(10)
C1_33 C 0.00707(13) 0.14113(18) 0.50384(12)
C2_33 C 0.04263(14) 0.12669(18) 0.52376(12)
H2_33 H 0.0545 0.1203 0.5372
C3_38 C 0.04286(14) 0.09712(14) 0.40271(13)
H3_38 H 0.0277 0.0981 0.3912
C4_38 C 0.08027(14) 0.08506(13) 0.41995(13)
H4_38 H 0.0967 0.0759 0.4231
C7_38 C 0.05866(19) 0.03449(14) 0.38347(16)
H7_38 H 0.0510 0.0268 0.3991
C8_38 C 0.07619(15) 0.06308(12) 0.35573(13)
H8_38 H 0.0829 0.0793 0.3484
Ag4_38 Ag 0.099022(9) 0.023934(8) 0.307975(8)
N13_34 N 0.11300(12) 0.08619(11) 0.48278(15)
N14_32 N 0.10922(10) 0.16168(9) 0.48328(11)
N15_38 N 0.04006(10) 0.17475(12) 0.40629(10)
Ag3_38 Ag 0.057975(8) 0.976066(8) 0.349022(9)
H1_38 H 0.9891 0.1463 0.5004
C5_38 C 0.9941(2) 0.10804(16) 0.56337(14)
H5_38 H 0.9961 0.0905 0.5561
C6_38 C 0.99496(14) 0.15007(14) 0.56703(11)
H6_38 H 0.9976 0.1686 0.5634
N16_38 N 0.97860(10) 0.13901(12) 0.43630(13)
N5_35 N 0.08619(11) 0.48278(15) 0.11300(12)
N6_36 N 0.08832(9) 0.48328(11) 0.14078(10)
N9_34 N 0.02748(9) 0.51637(11) 0.13220(13)
N10_34 N 0.05117(9) 0.50268(11) 0.13045(12)
C1_34 C 0.00384(12) 0.50707(13) 0.14113(18)
H1_39 H 0.0004 0.4891 0.1463
C2_34 C 0.02376(12) 0.54263(14) 0.12669(18)
H2_34 H 0.0372 0.5545 0.1203
C5_39 C 0.06337(14) 0.4941(2) 0.10804(16)
H5_39 H 0.0561 0.4961 0.0905
C6_39 C 0.06703(11) 0.49496(14) 0.15007(14)
H6_39 H 0.0634 0.4976 0.1686
Ag1_39 Ag 0.942025(8) 0.523934(8) 0.150978(9)
N1_39 N 0.93403(10) 0.57123(11) 0.10455(10)
N2_39 N 0.92312(11) 0.54684(12) 0.11246(12)
N3_39 N 0.99863(10) 0.54930(11) 0.13143(15)
N4_39 N 0.98661(10) 0.52607(10) 0.14163(14)
N7_39 N 0.84371(10) 0.57525(12) 0.04006(10)
N8_39 N 0.86099(12) 0.56370(13) 0.02140(10)
N11_39 N 0.90005(10) 0.56289(10) 0.07964(10)
N12_39 N 0.88099(10) 0.56577(11) 0.05980(10)
C3_39 C 0.90271(13) 0.54286(14) 0.09712(14)
H3_39 H 0.8912 0.5277 0.0981
C4_39 C 0.91995(13) 0.58027(14) 0.08506(13)
H4_39 H 0.9231 0.5967 0.0759
C7_39 C 0.88347(16) 0.55866(19) 0.03449(14)
H7_39 H 0.8991 0.5510 0.0268
C8_39 C 0.85573(13) 0.57619(15) 0.06308(12)
H8_39 H 0.8484 0.5829 0.0793
Ag4_39 Ag 0.807975(8) 0.599022(9) 0.023934(8)
N15_39 N 0.90629(10) 0.54006(10) 0.17475(12)
N16_39 N 0.93630(13) 0.47860(10) 0.13901(12)
Ag3_39 Ag 0.849022(9) 0.557975(8) 0.976066(8)
Ag1_40 Ag 0.226066(8) 0.150978(9) 0.807975(8)
Ag2_31 Ag 0.162650(9) 0.124049(9) 0.778389(10)
N1_40 N 0.17877(11) 0.10455(10) 0.81597(10)
N2_40 N 0.20316(12) 0.11246(12) 0.82688(11)
N3_40 N 0.20070(11) 0.13143(15) 0.75137(10)
N4_40 N 0.22393(10) 0.14163(14) 0.76339(10)
N7_40 N 0.17475(12) 0.04006(10) 0.90629(10)
N8_40 N 0.18630(13) 0.02140(10) 0.88901(12)
N9_35 N 0.23363(11) 0.13220(13) 0.72252(9)
N10_35 N 0.24732(11) 0.13045(12) 0.69883(9)
N11_40 N 0.18711(10) 0.07964(10) 0.84995(10)
N12_40 N 0.18423(11) 0.05980(10) 0.86901(10)
C1_35 C 0.24293(13) 0.14113(18) 0.74616(12)
H1_40 H 0.2609 0.1463 0.7496
C2_35 C 0.20737(14) 0.12669(18) 0.72624(12)
H2_35 H 0.1955 0.1203 0.7128
C3_40 C 0.20714(14) 0.09712(14) 0.84729(13)
H3_40 H 0.2223 0.0981 0.8588
C4_40 C 0.16973(14) 0.08506(13) 0.83005(13)
H4_40 H 0.1533 0.0759 0.8269
C5_40 C 0.2559(2) 0.10804(16) 0.68663(14)
H5_40 H 0.2539 0.0905 0.6939
C6_40 C 0.25504(14) 0.15007(14) 0.68297(11)
H6_40 H 0.2524 0.1686 0.6866
C7_40 C 0.19134(19) 0.03449(14) 0.86653(16)
H7_40 H 0.1990 0.0268 0.8509
C8_40 C 0.17381(15) 0.06308(12) 0.89427(13)
H8_40 H 0.1671 0.0793 0.9016
Ag4_40 Ag 0.150978(9) 0.023934(8) 0.942025(8)
N13_35 N 0.13700(12) 0.08619(11) 0.76722(15)
N14_33 N 0.14078(10) 0.16168(9) 0.76672(11)
N15_40 N 0.20994(10) 0.17475(12) 0.84371(10)
N16_40 N 0.27140(10) 0.13901(12) 0.81370(13)
Ag3_40 Ag 0.192025(8) 0.976066(8) 0.900978(9)
Ag1_41 Ag 0.226066(8) 0.099022(9) 0.442025(8)
Ag2_32 Ag 0.162650(9) 0.125951(9) 0.471611(10)
N1_41 N 0.17877(11) 0.14545(10) 0.43403(10)
N2_41 N 0.20316(12) 0.13754(12) 0.42312(11)
N3_41 N 0.20070(11) 0.11857(15) 0.49863(10)
N4_41 N 0.22393(10) 0.10837(14) 0.48661(10)
N7_41 N 0.17475(12) 0.20994(10) 0.34371(10)
N8_41 N 0.18630(13) 0.22860(10) 0.36099(12)
N9_36 N 0.23363(11) 0.11780(13) 0.52748(9)
N10_36 N 0.24732(11) 0.11955(12) 0.55117(9)
N11_41 N 0.18711(10) 0.17036(10) 0.40005(10)
N12_41 N 0.18423(11) 0.19020(10) 0.38099(10)
C1_36 C 0.24293(13) 0.10887(18) 0.50384(12)
H1_41 H 0.2609 0.1037 0.5004
C2_36 C 0.20737(14) 0.12331(18) 0.52376(12)
H2_36 H 0.1955 0.1297 0.5372
C3_41 C 0.20714(14) 0.15288(14) 0.40271(13)
H3_41 H 0.2223 0.1519 0.3912
C4_41 C 0.16973(14) 0.16494(13) 0.41995(13)
H4_41 H 0.1533 0.1741 0.4231
C5_41 C 0.2559(2) 0.14196(16) 0.56337(14)
H5_41 H 0.2539 0.1595 0.5561
C6_41 C 0.25504(14) 0.09993(14) 0.56703(11)
H6_41 H 0.2524 0.0814 0.5634
C7_41 C 0.19134(19) 0.21551(14) 0.38347(16)
H7_41 H 0.1990 0.2232 0.3991
C8_41 C 0.17381(15) 0.18692(12) 0.35573(13)
H8_41 H 0.1671 0.1707 0.3484
Ag3_41 Ag 0.192025(8) 0.273934(8) 0.349022(9)
Ag4_41 Ag 0.150978(9) 0.226066(8) 0.307975(8)
N13_36 N 0.13700(12) 0.16381(11) 0.48278(15)
N14_34 N 0.14078(10) 0.08832(9) 0.48328(11)
N15_41 N 0.20994(10) 0.07525(12) 0.40629(10)
N16_41 N 0.27140(10) 0.11099(12) 0.43630(13)
Ag1_42 Ag 0.307975(8) 0.726066(8) 0.150978(9)
N1_42 N 0.31597(10) 0.67877(11) 0.10455(10)
N2_42 N 0.32688(11) 0.70316(12) 0.11246(12)
N3_42 N 0.25137(10) 0.70070(11) 0.13143(15)
N4_42 N 0.26339(10) 0.72393(10) 0.14163(14)
N5_36 N 0.16381(11) 0.76722(15) 0.11300(12)
N6_37 N 0.16168(9) 0.76672(11) 0.14078(10)
N7_42 N 0.40629(10) 0.67475(12) 0.04006(10)
N8_42 N 0.38901(12) 0.68630(13) 0.02140(10)
N9_37 N 0.22252(9) 0.73363(11) 0.13220(13)
N10_37 N 0.19883(9) 0.74732(11) 0.13045(12)
N11_42 N 0.34995(10) 0.68711(10) 0.07964(10)
N12_42 N 0.36901(10) 0.68423(11) 0.05980(10)
C1_37 C 0.24616(12) 0.74293(13) 0.14113(18)
H1_42 H 0.2496 0.7609 0.1463
C2_37 C 0.22624(12) 0.70737(14) 0.12669(18)
H2_37 H 0.2128 0.6955 0.1203
C3_42 C 0.34729(13) 0.70714(14) 0.09712(14)
H3_42 H 0.3588 0.7223 0.0981
C4_42 C 0.33005(13) 0.66973(14) 0.08506(13)
H4_42 H 0.3269 0.6533 0.0759
C5_42 C 0.18663(14) 0.7559(2) 0.10804(16)
H5_42 H 0.1939 0.7539 0.0905
C6_42 C 0.18297(11) 0.75504(14) 0.15007(14)
H6_42 H 0.1866 0.7524 0.1686
C7_42 C 0.36653(16) 0.69134(19) 0.03449(14)
H7_42 H 0.3509 0.6990 0.0268
C8_42 C 0.39427(13) 0.67381(15) 0.06308(12)
H8_42 H 0.4016 0.6671 0.0793
Ag4_42 Ag 0.442025(8) 0.650978(9) 0.023934(8)
N15_42 N 0.34371(10) 0.70994(10) 0.17475(12)
N16_42 N 0.31370(13) 0.77140(10) 0.13901(12)
Ag3_42 Ag 0.400978(9) 0.692025(8) 0.976066(8)
Ag3_43 Ag 0.650978(9) 0.023934(8) 0.442025(8)
Ag1_43 Ag 0.557975(8) 0.849022(9) 0.476066(8)
Ag2_33 Ag 0.528389(10) 0.875951(9) 0.412650(9)
N1_43 N 0.56597(10) 0.89545(10) 0.42877(11)
N2_43 N 0.57688(11) 0.88754(12) 0.45316(12)
N3_43 N 0.50137(10) 0.86857(15) 0.45070(11)
N4_43 N 0.51339(10) 0.85837(14) 0.47393(10)
N5_37 N 0.41381(11) 0.88700(12) 0.51722(15)
N6_38 N 0.41168(9) 0.85922(10) 0.51672(11)
N7_43 N 0.65629(10) 0.95994(10) 0.42475(12)
N8_43 N 0.63901(12) 0.97860(10) 0.43630(13)
N9_38 N 0.47252(9) 0.86780(13) 0.48363(11)
N10_38 N 0.44883(9) 0.86955(12) 0.49732(11)
N11_43 N 0.59995(10) 0.92036(10) 0.43711(10)
N12_43 N 0.61901(10) 0.94020(10) 0.43423(11)
C1_38 C 0.49616(12) 0.85887(18) 0.49293(13)
H1_43 H 0.4996 0.8537 0.5109
C2_38 C 0.47624(12) 0.87331(18) 0.45737(14)
H2_38 H 0.4628 0.8797 0.4455
C3_43 C 0.59729(13) 0.90288(14) 0.45714(14)
H3_43 H 0.6088 0.9019 0.4723
C4_43 C 0.58005(13) 0.91494(13) 0.41973(14)
H4_43 H 0.5769 0.9241 0.4033
C5_43 C 0.43663(14) 0.89196(16) 0.5059(2)
H5_43 H 0.4439 0.9095 0.5039
C6_43 C 0.43297(11) 0.84993(14) 0.50504(14)
H6_43 H 0.4366 0.8314 0.5024
C7_43 C 0.61653(16) 0.96551(14) 0.44134(19)
H7_43 H 0.6009 0.9732 0.4490
C8_43 C 0.64427(13) 0.93692(12) 0.42381(15)
H8_43 H 0.6516 0.9207 0.4171
Ag4_43 Ag 0.692025(8) 0.976066(8) 0.400978(9)
Ag5_26 Ag 0.374049(9) 0.837350(9) 0.528389(10)
Ag6_25 Ag 0.375951(9) 0.912650(9) 0.528389(10)
N13_37 N 0.51722(15) 0.91381(11) 0.38700(12)
N14_35 N 0.51672(11) 0.83832(9) 0.39078(10)
N15_43 N 0.59371(10) 0.82525(12) 0.45994(10)
N16_43 N 0.56370(13) 0.86099(12) 0.52140(10)
N5_38 N 0.83619(11) 0.86300(12) 0.01722(15)
H1_44 H 0.7504 0.8963 0.0109
C5_44 C 0.81337(14) 0.85804(16) 0.0059(2)
H5_44 H 0.8061 0.8405 0.0039
C6_44 C 0.81703(11) 0.90007(14) 0.00504(14)
H6_44 H 0.8134 0.9186 0.0024
Ag6_26 Ag 0.874049(9) 0.837350(9) 0.028389(10)
N16_44 N 0.68630(13) 0.88901(12) 0.02140(10)
Ag1_44 Ag 0.692025(8) 0.900978(9) 0.976066(8)
Ag2_34 Ag 0.721611(10) 0.874049(9) 0.912650(9)
N1_44 N 0.68403(10) 0.85455(10) 0.92877(11)
N2_44 N 0.67312(11) 0.86246(12) 0.95316(12)
N3_44 N 0.74863(10) 0.88143(15) 0.95070(11)
N4_44 N 0.73661(10) 0.89163(14) 0.97393(10)
N7_44 N 0.59371(10) 0.79006(10) 0.92475(12)
N8_44 N 0.61099(12) 0.77140(10) 0.93630(13)
N9_39 N 0.77748(9) 0.88220(13) 0.98363(11)
N10_39 N 0.80117(9) 0.88045(12) 0.99732(11)
N11_44 N 0.65005(10) 0.82964(10) 0.93711(10)
N12_44 N 0.63099(10) 0.80980(10) 0.93423(11)
C1_39 C 0.75384(12) 0.89113(18) 0.99293(13)
C2_39 C 0.77376(12) 0.87669(18) 0.95737(14)
H2_39 H 0.7872 0.8703 0.9455
C3_44 C 0.65271(13) 0.84712(14) 0.95714(14)
H3_44 H 0.6412 0.8481 0.9723
C4_44 C 0.66995(13) 0.83506(13) 0.91973(14)
H4_44 H 0.6731 0.8259 0.9033
C7_44 C 0.63347(16) 0.78449(14) 0.94134(19)
H7_44 H 0.6491 0.7768 0.9490
C8_44 C 0.60573(13) 0.81308(12) 0.92381(15)
H8_44 H 0.5984 0.8293 0.9171
Ag3_44 Ag 0.599022(9) 0.726066(8) 0.942025(8)
Ag4_44 Ag 0.557975(8) 0.773934(8) 0.900978(9)
N13_38 N 0.73278(15) 0.83619(11) 0.88700(12)
N14_36 N 0.73328(11) 0.91168(9) 0.89078(10)
N15_44 N 0.65629(10) 0.92475(12) 0.95994(10)
Ag1_45 Ag 0.400978(9) 0.773934(8) 0.557975(8)
N1_45 N 0.35455(10) 0.82123(11) 0.56597(10)
N2_45 N 0.36246(12) 0.79684(12) 0.57688(11)
N3_45 N 0.38143(15) 0.79930(11) 0.50137(10)
N4_45 N 0.39163(14) 0.77607(10) 0.51339(10)
N6_39 N 0.39078(10) 0.73328(11) 0.41168(9)
N7_45 N 0.29006(10) 0.82525(12) 0.65629(10)
N8_45 N 0.27140(10) 0.81370(13) 0.63901(12)
N9_40 N 0.38220(13) 0.76637(11) 0.47252(9)
N10_40 N 0.38045(12) 0.75268(11) 0.44883(9)
N11_45 N 0.32964(10) 0.81289(10) 0.59995(10)
N12_45 N 0.30980(10) 0.81577(11) 0.61901(10)
C1_40 C 0.39113(18) 0.75707(13) 0.49616(12)
H1_45 H 0.3963 0.7391 0.4996
C2_40 C 0.37669(18) 0.79263(14) 0.47624(12)
H2_40 H 0.3703 0.8045 0.4628
C3_45 C 0.34712(14) 0.79286(14) 0.59729(13)
H3_45 H 0.3481 0.7777 0.6088
C4_45 C 0.33506(13) 0.83027(14) 0.58005(13)
H4_45 H 0.3259 0.8467 0.5769
C5_45 C 0.35804(16) 0.7441(2) 0.43663(14)
H5_45 H 0.3405 0.7461 0.4439
C6_45 C 0.40007(14) 0.74496(14) 0.43297(11)
H6_45 H 0.4186 0.7476 0.4366
C7_45 C 0.28449(14) 0.80866(19) 0.61653(16)
H7_45 H 0.2768 0.8010 0.6009
C8_45 C 0.31308(12) 0.82619(15) 0.64427(13)
H8_45 H 0.3293 0.8329 0.6516
Ag3_45 Ag 0.226066(8) 0.807975(8) 0.650978(9)
Ag4_45 Ag 0.273934(8) 0.849022(9) 0.692025(8)
Ag5_27 Ag 0.412650(9) 0.721611(10) 0.374049(9)
N13_39 N 0.33619(11) 0.86300(12) 0.51722(15)
N15_45 N 0.42475(12) 0.79006(10) 0.59371(10)
N16_45 N 0.38901(12) 0.72860(10) 0.56370(13)
Ag1_46 Ag 0.400978(9) 0.476066(8) 0.692025(8)
N1_46 N 0.35455(10) 0.42877(11) 0.68403(10)
N2_46 N 0.36246(12) 0.45316(12) 0.67312(11)
N3_46 N 0.38143(15) 0.45070(11) 0.74863(10)
N4_46 N 0.39163(14) 0.47393(10) 0.73661(10)
N6_40 N 0.39078(10) 0.51672(11) 0.83832(9)
N7_46 N 0.29006(10) 0.42475(12) 0.59371(10)
N8_46 N 0.27140(10) 0.43630(13) 0.61099(12)
N9_41 N 0.38220(13) 0.48363(11) 0.77748(9)
N10_41 N 0.38045(12) 0.49732(11) 0.80117(9)
N11_46 N 0.32964(10) 0.43711(10) 0.65005(10)
N12_46 N 0.30980(10) 0.43423(11) 0.63099(10)
C1_41 C 0.39113(18) 0.49293(13) 0.75384(12)
H1_46 H 0.3963 0.5109 0.7504
C2_41 C 0.37669(18) 0.45737(14) 0.77376(12)
H2_41 H 0.3703 0.4455 0.7872
C3_46 C 0.34712(14) 0.45714(14) 0.65271(13)
H3_46 H 0.3481 0.4723 0.6412
C4_46 C 0.33506(13) 0.41973(14) 0.66995(13)
H4_46 H 0.3259 0.4033 0.6731
C5_46 C 0.35804(16) 0.5059(2) 0.81337(14)
H5_46 H 0.3405 0.5039 0.8061
C6_46 C 0.40007(14) 0.50504(14) 0.81703(11)
H6_46 H 0.4186 0.5024 0.8134
C7_46 C 0.28449(14) 0.44134(19) 0.63347(16)
H7_46 H 0.2768 0.4490 0.6491
C8_46 C 0.31308(12) 0.42381(15) 0.60573(13)
H8_46 H 0.3293 0.4171 0.5984
Ag3_46 Ag 0.226066(8) 0.442025(8) 0.599022(9)
Ag4_46 Ag 0.273934(8) 0.400978(9) 0.557975(8)
Ag5_28 Ag 0.412650(9) 0.528389(10) 0.875951(9)
N13_40 N 0.33619(11) 0.38700(12) 0.73278(15)
N15_46 N 0.42475(12) 0.45994(10) 0.65629(10)
N16_46 N 0.38901(12) 0.52140(10) 0.68630(13)
Ag3_47 Ag 0.307975(8) 0.099022(9) 0.023934(8)
Ag1_47 Ag 0.273934(8) 0.192025(8) 0.849022(9)
N1_47 N 0.32123(11) 0.18403(10) 0.89545(10)
N2_47 N 0.29684(12) 0.17312(11) 0.88754(12)
N3_47 N 0.29930(11) 0.24863(10) 0.86857(15)
N4_47 N 0.27607(10) 0.23661(10) 0.85837(14)
N5_39 N 0.23278(15) 0.33619(11) 0.88700(12)
N6_41 N 0.23328(11) 0.33832(9) 0.85922(10)
N7_47 N 0.32525(12) 0.09371(10) 0.95994(10)
N8_47 N 0.31370(13) 0.11099(12) 0.97860(10)
N9_42 N 0.26637(11) 0.27748(9) 0.86780(13)
N10_42 N 0.25268(11) 0.30117(9) 0.86955(12)
N11_47 N 0.31289(10) 0.15005(10) 0.92036(10)
N12_47 N 0.31577(11) 0.13099(10) 0.94020(10)
C1_42 C 0.25707(13) 0.25384(12) 0.85887(18)
H1_47 H 0.2391 0.2504 0.8537
C2_42 C 0.29263(14) 0.27376(12) 0.87331(18)
H2_42 H 0.3045 0.2872 0.8797
C3_47 C 0.29286(14) 0.15271(13) 0.90288(14)
H3_47 H 0.2777 0.1412 0.9019
C4_47 C 0.33027(14) 0.16995(13) 0.91494(13)
H4_47 H 0.3467 0.1731 0.9241
C5_47 C 0.2441(2) 0.31337(14) 0.89196(16)
H5_47 H 0.2461 0.3061 0.9095
C6_47 C 0.24496(14) 0.31703(11) 0.84993(14)
H6_47 H 0.2476 0.3134 0.8314
C7_47 C 0.30866(19) 0.13347(16) 0.96551(14)
H7_47 H 0.3010 0.1491 0.9732
C8_47 C 0.32619(15) 0.10573(13) 0.93692(12)
H8_47 H 0.3329 0.0984 0.9207
Ag4_47 Ag 0.349022(9) 0.057975(8) 0.976066(8)
N14_37 N 0.35922(10) 0.23328(11) 0.83832(9)
N15_47 N 0.29006(10) 0.15629(10) 0.82525(12)
N16_47 N 0.22860(10) 0.18630(13) 0.86099(12)
N5_40 N 0.01722(15) 0.33619(11) 0.36300(12)
N6_42 N 0.01672(11) 0.33832(9) 0.39078(10)
H1_48 H 0.0109 0.2504 0.3963
C5_48 C 0.0059(2) 0.31337(14) 0.35804(16)
H5_48 H 0.0039 0.3061 0.3405
C6_48 C 0.00504(14) 0.31703(11) 0.40007(14)
H6_48 H 0.0024 0.3134 0.4186
N16_48 N 0.02140(10) 0.18630(13) 0.38901(12)
Ag1_48 Ag 0.976066(8) 0.192025(8) 0.400978(9)
N1_48 N 0.92877(11) 0.18403(10) 0.35455(10)
N2_48 N 0.95316(12) 0.17312(11) 0.36246(12)
N3_48 N 0.95070(11) 0.24863(10) 0.38143(15)
N4_48 N 0.97393(10) 0.23661(10) 0.39163(14)
N7_48 N 0.92475(12) 0.09371(10) 0.29006(10)
N8_48 N 0.93630(13) 0.11099(12) 0.27140(10)
N9_43 N 0.98363(11) 0.27748(9) 0.38220(13)
N10_43 N 0.99732(11) 0.30117(9) 0.38045(12)
N11_48 N 0.93711(10) 0.15005(10) 0.32964(10)
N12_48 N 0.93423(11) 0.13099(10) 0.30980(10)
C1_43 C 0.99293(13) 0.25384(12) 0.39113(18)
C2_43 C 0.95737(14) 0.27376(12) 0.37669(18)
H2_43 H 0.9455 0.2872 0.3703
C3_48 C 0.95714(14) 0.15271(13) 0.34712(14)
H3_48 H 0.9723 0.1412 0.3481
C4_48 C 0.91973(14) 0.16995(13) 0.33506(13)
H4_48 H 0.9033 0.1731 0.3259
C7_48 C 0.94134(19) 0.13347(16) 0.28449(14)
H7_48 H 0.9490 0.1491 0.2768
C8_48 C 0.92381(15) 0.10573(13) 0.31308(12)
H8_48 H 0.9171 0.0984 0.3293
Ag3_48 Ag 0.942025(8) 0.099022(9) 0.226066(8)
Ag4_48 Ag 0.900978(9) 0.057975(8) 0.273934(8)
N14_38 N 0.89078(10) 0.23328(11) 0.41168(9)
N15_48 N 0.95994(10) 0.15629(10) 0.42475(12)
Ag1_49 Ag 0.099022(9) 0.307975(8) 0.523934(8)
N1_49 N 0.14545(10) 0.31597(10) 0.57123(11)
N2_49 N 0.13754(12) 0.32688(11) 0.54684(12)
N3_49 N 0.11857(15) 0.25137(10) 0.54930(11)
N4_49 N 0.10837(14) 0.26339(10) 0.52607(10)
N7_49 N 0.20994(10) 0.40629(10) 0.57525(12)
N8_49 N 0.22860(10) 0.38901(12) 0.56370(13)
N9_44 N 0.11780(13) 0.22252(9) 0.51637(11)
N10_44 N 0.11955(12) 0.19883(9) 0.50268(11)
N11_49 N 0.17036(10) 0.34995(10) 0.56289(10)
N12_49 N 0.19020(10) 0.36901(10) 0.56577(11)
C1_44 C 0.10887(18) 0.24616(12) 0.50707(13)
H1_49 H 0.1037 0.2496 0.4891
C2_44 C 0.12331(18) 0.22624(12) 0.54263(14)
H2_44 H 0.1297 0.2128 0.5545
C3_49 C 0.15288(14) 0.34729(13) 0.54286(14)
H3_49 H 0.1519 0.3588 0.5277
C4_49 C 0.16494(13) 0.33005(13) 0.58027(14)
H4_49 H 0.1741 0.3269 0.5967
C5_49 C 0.14196(16) 0.18663(14) 0.4941(2)
H5_49 H 0.1595 0.1939 0.4961
C6_49 C 0.09993(14) 0.18297(11) 0.49496(14)
H6_49 H 0.0814 0.1866 0.4976
C7_49 C 0.21551(14) 0.36653(16) 0.55866(19)
H7_49 H 0.2232 0.3509 0.5510
C8_49 C 0.18692(12) 0.39427(13) 0.57619(15)
H8_49 H 0.1707 0.4016 0.5829
N15_49 N 0.07525(12) 0.34371(10) 0.54006(10)
N16_49 N 0.11099(12) 0.31370(13) 0.47860(10)
Ag1_50 Ag 0.192025(8) 0.849022(9) 0.273934(8)
N1_50 N 0.18403(10) 0.89545(10) 0.32123(11)
N2_50 N 0.17312(11) 0.88754(12) 0.29684(12)
N3_50 N 0.24863(10) 0.86857(15) 0.29930(11)
N4_50 N 0.23661(10) 0.85837(14) 0.27607(10)
N6_43 N 0.33832(9) 0.85922(10) 0.23328(11)
N7_50 N 0.09371(10) 0.95994(10) 0.32525(12)
N8_50 N 0.11099(12) 0.97860(10) 0.31370(13)
N9_45 N 0.27748(9) 0.86780(13) 0.26637(11)
N10_45 N 0.30117(9) 0.86955(12) 0.25268(11)
N11_50 N 0.15005(10) 0.92036(10) 0.31289(10)
N12_50 N 0.13099(10) 0.94020(10) 0.31577(11)
C1_45 C 0.25384(12) 0.85887(18) 0.25707(13)
H1_50 H 0.2504 0.8537 0.2391
C2_45 C 0.27376(12) 0.87331(18) 0.29263(14)
H2_45 H 0.2872 0.8797 0.3045
C3_50 C 0.15271(13) 0.90288(14) 0.29286(14)
H3_50 H 0.1412 0.9019 0.2777
C4_50 C 0.16995(13) 0.91494(13) 0.33027(14)
H4_50 H 0.1731 0.9241 0.3467
C5_50 C 0.31337(14) 0.89196(16) 0.2441(2)
H5_50 H 0.3061 0.9095 0.2461
C6_50 C 0.31703(11) 0.84993(14) 0.24496(14)
H6_50 H 0.3134 0.8314 0.2476
C7_50 C 0.13347(16) 0.96551(14) 0.30866(19)
H7_50 H 0.1491 0.9732 0.3010
C8_50 C 0.10573(13) 0.93692(12) 0.32619(15)
H8_50 H 0.0984 0.9207 0.3329
N15_50 N 0.15629(10) 0.82525(12) 0.29006(10)
N16_50 N 0.18630(13) 0.86099(12) 0.22860(10)
N9_46 N 0.13220(13) 0.02748(9) 0.51637(11)
N10_46 N 0.13045(12) 0.05117(9) 0.50268(11)
C1_46 C 0.14113(18) 0.00384(12) 0.50707(13)
H1_51 H 0.1463 0.0004 0.4891
C2_46 C 0.12669(18) 0.02376(12) 0.54263(14)
H2_46 H 0.1203 0.0372 0.5545
C5_51 C 0.10804(16) 0.06337(14) 0.4941(2)
H5_51 H 0.0905 0.0561 0.4961
C6_51 C 0.15007(14) 0.06703(11) 0.49496(14)
H6_51 H 0.1686 0.0634 0.4976
Ag1_51 Ag 0.150978(9) 0.942025(8) 0.523934(8)
N1_51 N 0.10455(10) 0.93403(10) 0.57123(11)
N2_51 N 0.11246(12) 0.92312(11) 0.54684(12)
N3_51 N 0.13143(15) 0.99863(10) 0.54930(11)
N4_51 N 0.14163(14) 0.98661(10) 0.52607(10)
N7_51 N 0.04006(10) 0.84371(10) 0.57525(12)
N8_51 N 0.02140(10) 0.86099(12) 0.56370(13)
N11_51 N 0.07964(10) 0.90005(10) 0.56289(10)
N12_51 N 0.05980(10) 0.88099(10) 0.56577(11)
C3_51 C 0.09712(14) 0.90271(13) 0.54286(14)
H3_51 H 0.0981 0.8912 0.5277
C4_51 C 0.08506(13) 0.91995(13) 0.58027(14)
H4_51 H 0.0759 0.9231 0.5967
C7_51 C 0.03449(14) 0.88347(16) 0.55866(19)
H7_51 H 0.0268 0.8991 0.5510
C8_51 C 0.06308(12) 0.85573(13) 0.57619(15)
H8_51 H 0.0793 0.8484 0.5829
N15_51 N 0.17475(12) 0.90629(10) 0.54006(10)
N16_51 N 0.13901(12) 0.93630(13) 0.47860(10)
Ag1_52 Ag 0.057975(8) 0.400978(9) 0.273934(8)
N1_52 N 0.06597(10) 0.35455(10) 0.32123(11)
N2_52 N 0.07688(11) 0.36246(12) 0.29684(12)
N3_52 N 0.00137(10) 0.38143(15) 0.29930(11)
N4_52 N 0.01339(10) 0.39163(14) 0.27607(10)
N7_52 N 0.15629(10) 0.29006(10) 0.32525(12)
N8_52 N 0.13901(12) 0.27140(10) 0.31370(13)
N11_52 N 0.09995(10) 0.32964(10) 0.31289(10)
N12_52 N 0.11901(10) 0.30980(10) 0.31577(11)
C3_52 C 0.09729(13) 0.34712(14) 0.29286(14)
H3_52 H 0.1088 0.3481 0.2777
C4_52 C 0.08005(13) 0.33506(13) 0.33027(14)
H4_52 H 0.0769 0.3259 0.3467
C7_52 C 0.11653(16) 0.28449(14) 0.30866(19)
H7_52 H 0.1009 0.2768 0.3010
C8_52 C 0.14427(13) 0.31308(12) 0.32619(15)
H8_52 H 0.1516 0.3293 0.3329
N15_52 N 0.09371(10) 0.42475(12) 0.29006(10)
N16_52 N 0.06370(13) 0.38901(12) 0.22860(10)
N6_44 N 0.91168(9) 0.39078(10) 0.23328(11)
N9_47 N 0.97252(9) 0.38220(13) 0.26637(11)
N10_47 N 0.94883(9) 0.38045(12) 0.25268(11)
C1_47 C 0.99616(12) 0.39113(18) 0.25707(13)
H1_52 H 0.9996 0.3963 0.2391
C2_47 C 0.97624(12) 0.37669(18) 0.29263(14)
H2_47 H 0.9628 0.3703 0.3045
C5_52 C 0.93663(14) 0.35804(16) 0.2441(2)
H5_52 H 0.9439 0.3405 0.2461
C6_52 C 0.93297(11) 0.40007(14) 0.24496(14)
H6_52 H 0.9366 0.4186 0.2476
N5_41 N 0.38700(12) 0.01722(15) 0.41381(11)
H1_53 H 0.3537 0.0109 0.4996
C5_53 C 0.39196(16) 0.0059(2) 0.43663(14)
H5_53 H 0.4095 0.0039 0.4439
C6_53 C 0.34993(14) 0.00504(14) 0.43297(11)
H6_53 H 0.3314 0.0024 0.4366
N16_53 N 0.36099(12) 0.02140(10) 0.56370(13)
Ag1_53 Ag 0.349022(9) 0.976066(8) 0.557975(8)
N1_53 N 0.39545(10) 0.92877(11) 0.56597(10)
N2_53 N 0.38754(12) 0.95316(12) 0.57688(11)
N3_53 N 0.36857(15) 0.95070(11) 0.50137(10)
N4_53 N 0.35837(14) 0.97393(10) 0.51339(10)
N7_53 N 0.45994(10) 0.92475(12) 0.65629(10)
N8_53 N 0.47860(10) 0.93630(13) 0.63901(12)
N9_48 N 0.36780(13) 0.98363(11) 0.47252(9)
N10_48 N 0.36955(12) 0.99732(11) 0.44883(9)
N11_53 N 0.42036(10) 0.93711(10) 0.59995(10)
N12_53 N 0.44020(10) 0.93423(11) 0.61901(10)
C1_48 C 0.35887(18) 0.99293(13) 0.49616(12)
C2_48 C 0.37331(18) 0.95737(14) 0.47624(12)
H2_48 H 0.3797 0.9455 0.4628
C3_53 C 0.40288(14) 0.95714(14) 0.59729(13)
H3_53 H 0.4019 0.9723 0.6088
C4_53 C 0.41494(13) 0.91973(14) 0.58005(13)
H4_53 H 0.4241 0.9033 0.5769
C7_53 C 0.46551(14) 0.94134(19) 0.61653(16)
H7_53 H 0.4732 0.9490 0.6009
C8_53 C 0.43692(12) 0.92381(15) 0.64427(13)
H8_53 H 0.4207 0.9171 0.6516
N14_39 N 0.33832(9) 0.89078(10) 0.51672(11)
N15_53 N 0.32525(12) 0.95994(10) 0.59371(10)
N9_49 N 0.11780(13) 0.02748(9) 0.73363(11)
N10_49 N 0.11955(12) 0.05117(9) 0.74732(11)
C1_49 C 0.10887(18) 0.00384(12) 0.74293(13)
H1_54 H 0.1037 0.0004 0.7609
C2_49 C 0.12331(18) 0.02376(12) 0.70737(14)
H2_49 H 0.1297 0.0372 0.6955
C5_54 C 0.14196(16) 0.06337(14) 0.7559(2)
H5_54 H 0.1595 0.0561 0.7539
C6_54 C 0.09993(14) 0.06703(11) 0.75504(14)
H6_54 H 0.0814 0.0634 0.7524
Ag1_54 Ag 0.099022(9) 0.942025(8) 0.726066(8)
N1_54 N 0.14545(10) 0.93403(10) 0.67877(11)
N2_54 N 0.13754(12) 0.92312(11) 0.70316(12)
N3_54 N 0.11857(15) 0.99863(10) 0.70070(11)
N4_54 N 0.10837(14) 0.98661(10) 0.72393(10)
N7_54 N 0.20994(10) 0.84371(10) 0.67475(12)
N8_54 N 0.22860(10) 0.86099(12) 0.68630(13)
N11_54 N 0.17036(10) 0.90005(10) 0.68711(10)
N12_54 N 0.19020(10) 0.88099(10) 0.68423(11)
C3_54 C 0.15288(14) 0.90271(13) 0.70714(14)
H3_54 H 0.1519 0.8912 0.7223
C4_54 C 0.16494(13) 0.91995(13) 0.66973(14)
H4_54 H 0.1741 0.9231 0.6533
C7_54 C 0.21551(14) 0.88347(16) 0.69134(19)
H7_54 H 0.2232 0.8991 0.6990
C8_54 C 0.18692(12) 0.85573(13) 0.67381(15)
H8_54 H 0.1707 0.8484 0.6671
N15_54 N 0.07525(12) 0.90629(10) 0.70994(10)
N16_54 N 0.11099(12) 0.93630(13) 0.77140(10)
Ag1_55 Ag 0.349022(9) 0.773934(8) 0.192025(8)
N1_55 N 0.39545(10) 0.82123(11) 0.18403(10)
N2_55 N 0.38754(12) 0.79684(12) 0.17312(11)
N3_55 N 0.36857(15) 0.79930(11) 0.24863(10)
N4_55 N 0.35837(14) 0.77607(10) 0.23661(10)
N5_42 N 0.38700(12) 0.73278(15) 0.33619(11)
N7_55 N 0.45994(10) 0.82525(12) 0.09371(10)
N8_55 N 0.47860(10) 0.81370(13) 0.11099(12)
N9_50 N 0.36780(13) 0.76637(11) 0.27748(9)
N10_50 N 0.36955(12) 0.75268(11) 0.30117(9)
N11_55 N 0.42036(10) 0.81289(10) 0.15005(10)
N12_55 N 0.44020(10) 0.81577(11) 0.13099(10)
C1_50 C 0.35887(18) 0.75707(13) 0.25384(12)
H1_55 H 0.3537 0.7391 0.2504
C2_50 C 0.37331(18) 0.79263(14) 0.27376(12)
H2_50 H 0.3797 0.8045 0.2872
C3_55 C 0.40288(14) 0.79286(14) 0.15271(13)
H3_55 H 0.4019 0.7777 0.1412
C4_55 C 0.41494(13) 0.83027(14) 0.16995(13)
H4_55 H 0.4241 0.8467 0.1731
C5_55 C 0.39196(16) 0.7441(2) 0.31337(14)
H5_55 H 0.4095 0.7461 0.3061
C6_55 C 0.34993(14) 0.74496(14) 0.31703(11)
H6_55 H 0.3314 0.7476 0.3134
C7_55 C 0.46551(14) 0.80866(19) 0.13347(16)
H7_55 H 0.4732 0.8010 0.1491
C8_55 C 0.43692(12) 0.82619(15) 0.10573(13)
H8_55 H 0.4207 0.8329 0.0984
N15_55 N 0.32525(12) 0.79006(10) 0.15629(10)
N16_55 N 0.36099(12) 0.72860(10) 0.18630(13)
Ag1_56 Ag 0.773934(8) 0.057975(8) 0.900978(9)
N1_56 N 0.82123(11) 0.06597(10) 0.85455(10)
N2_56 N 0.79684(12) 0.07688(11) 0.86246(12)
N3_56 N 0.79930(11) 0.00137(10) 0.88143(15)
N4_56 N 0.77607(10) 0.01339(10) 0.89163(14)
N7_56 N 0.82525(12) 0.15629(10) 0.79006(10)
N8_56 N 0.81370(13) 0.13901(12) 0.77140(10)
N11_56 N 0.81289(10) 0.09995(10) 0.82964(10)
N12_56 N 0.81577(11) 0.11901(10) 0.80980(10)
C3_56 C 0.79286(14) 0.09729(13) 0.84712(14)
H3_56 H 0.7777 0.1088 0.8481
C4_56 C 0.83027(14) 0.08005(13) 0.83506(13)
H4_56 H 0.8467 0.0769 0.8259
C7_56 C 0.80866(19) 0.11653(16) 0.78449(14)
H7_56 H 0.8010 0.1009 0.7768
C8_56 C 0.82619(15) 0.14427(13) 0.81308(12)
H8_56 H 0.8329 0.1516 0.8293
N13_41 N 0.86300(12) 0.01722(15) 0.83619(11)
N15_56 N 0.79006(10) 0.09371(10) 0.92475(12)
N16_56 N 0.72860(10) 0.06370(13) 0.88901(12)
N9_51 N 0.76637(11) 0.97252(9) 0.88220(13)
N10_51 N 0.75268(11) 0.94883(9) 0.88045(12)
C1_51 C 0.75707(13) 0.99616(12) 0.89113(18)
H1_56 H 0.7391 0.9996 0.8963
C2_51 C 0.79263(14) 0.97624(12) 0.87669(18)
H2_51 H 0.8045 0.9628 0.8703
C5_56 C 0.7441(2) 0.93663(14) 0.85804(16)
H5_56 H 0.7461 0.9439 0.8405
C6_56 C 0.74496(14) 0.93297(11) 0.90007(14)
H6_56 H 0.7476 0.9366 0.9186
Ag1_57 Ag 0.150978(9) 0.307975(8) 0.726066(8)
N1_57 N 0.10455(10) 0.31597(10) 0.67877(11)
N2_57 N 0.11246(12) 0.32688(11) 0.70316(12)
N3_57 N 0.13143(15) 0.25137(10) 0.70070(11)
N4_57 N 0.14163(14) 0.26339(10) 0.72393(10)
N7_57 N 0.04006(10) 0.40629(10) 0.67475(12)
N8_57 N 0.02140(10) 0.38901(12) 0.68630(13)
N9_52 N 0.13220(13) 0.22252(9) 0.73363(11)
N10_52 N 0.13045(12) 0.19883(9) 0.74732(11)
N11_57 N 0.07964(10) 0.34995(10) 0.68711(10)
N12_57 N 0.05980(10) 0.36901(10) 0.68423(11)
C1_52 C 0.14113(18) 0.24616(12) 0.74293(13)
H1_57 H 0.1463 0.2496 0.7609
C2_52 C 0.12669(18) 0.22624(12) 0.70737(14)
H2_52 H 0.1203 0.2128 0.6955
C3_57 C 0.09712(14) 0.34729(13) 0.70714(14)
H3_57 H 0.0981 0.3588 0.7223
C4_57 C 0.08506(13) 0.33005(13) 0.66973(14)
H4_57 H 0.0759 0.3269 0.6533
C5_57 C 0.10804(16) 0.18663(14) 0.7559(2)
H5_57 H 0.0905 0.1939 0.7539
C6_57 C 0.15007(14) 0.18297(11) 0.75504(14)
H6_57 H 0.1686 0.1866 0.7524
C7_57 C 0.03449(14) 0.36653(16) 0.69134(19)
H7_57 H 0.0268 0.3509 0.6990
C8_57 C 0.06308(12) 0.39427(13) 0.67381(15)
H8_57 H 0.0793 0.4016 0.6671
N15_57 N 0.17475(12) 0.34371(10) 0.70994(10)
N16_57 N 0.13901(12) 0.31370(13) 0.77140(10)
Ag1_58 Ag 0.476066(8) 0.557975(8) 0.849022(9)
N1_58 N 0.42877(11) 0.56597(10) 0.89545(10)
N2_58 N 0.45316(12) 0.57688(11) 0.88754(12)
N3_58 N 0.45070(11) 0.50137(10) 0.86857(15)
N4_58 N 0.47393(10) 0.51339(10) 0.85837(14)
N7_58 N 0.42475(12) 0.65629(10) 0.95994(10)
N8_58 N 0.43630(13) 0.63901(12) 0.97860(10)
N9_53 N 0.48363(11) 0.47252(9) 0.86780(13)
N10_53 N 0.49732(11) 0.44883(9) 0.86955(12)
N11_58 N 0.43711(10) 0.59995(10) 0.92036(10)
N12_58 N 0.43423(11) 0.61901(10) 0.94020(10)
C1_53 C 0.49293(13) 0.49616(12) 0.85887(18)
H1_58 H 0.5109 0.4996 0.8537
C2_53 C 0.45737(14) 0.47624(12) 0.87331(18)
H2_53 H 0.4455 0.4628 0.8797
C3_58 C 0.45714(14) 0.59729(13) 0.90288(14)
H3_58 H 0.4723 0.6088 0.9019
C4_58 C 0.41973(14) 0.58005(13) 0.91494(13)
H4_58 H 0.4033 0.5769 0.9241
C5_58 C 0.5059(2) 0.43663(14) 0.89196(16)
H5_58 H 0.5039 0.4439 0.9095
C6_58 C 0.50504(14) 0.43297(11) 0.84993(14)
H6_58 H 0.5024 0.4366 0.8314
C7_58 C 0.44134(19) 0.61653(16) 0.96551(14)
H7_58 H 0.4490 0.6009 0.9732
C8_58 C 0.42381(15) 0.64427(13) 0.93692(12)
H8_58 H 0.4171 0.6516 0.9207
N13_42 N 0.38700(12) 0.51722(15) 0.91381(11)
N15_58 N 0.45994(10) 0.59371(10) 0.82525(12)
N16_58 N 0.52140(10) 0.56370(13) 0.86099(12)
Ag1_59 Ag 0.523934(8) 0.599022(9) 0.807975(8)
N1_59 N 0.57123(11) 0.64545(10) 0.81597(10)
N2_59 N 0.54684(12) 0.63754(12) 0.82688(11)
N3_59 N 0.54930(11) 0.61857(15) 0.75137(10)
N4_59 N 0.52607(10) 0.60837(14) 0.76339(10)
N5_43 N 0.48278(15) 0.63700(12) 0.66381(11)
N6_45 N 0.48328(11) 0.60922(10) 0.66168(9)
N7_59 N 0.57525(12) 0.70994(10) 0.90629(10)
N8_59 N 0.56370(13) 0.72860(10) 0.88901(12)
N9_54 N 0.51637(11) 0.61780(13) 0.72252(9)
N10_54 N 0.50268(11) 0.61955(12) 0.69883(9)
N11_59 N 0.56289(10) 0.67036(10) 0.84995(10)
N12_59 N 0.56577(11) 0.69020(10) 0.86901(10)
C1_54 C 0.50707(13) 0.60887(18) 0.74616(12)
H1_59 H 0.4891 0.6037 0.7496
C2_54 C 0.54263(14) 0.62331(18) 0.72624(12)
H2_54 H 0.5545 0.6297 0.7128
C3_59 C 0.54286(14) 0.65288(14) 0.84729(13)
H3_59 H 0.5277 0.6519 0.8588
C4_59 C 0.58027(14) 0.66494(13) 0.83005(13)
H4_59 H 0.5967 0.6741 0.8269
C5_59 C 0.4941(2) 0.64196(16) 0.68663(14)
H5_59 H 0.4961 0.6595 0.6939
C6_59 C 0.49496(14) 0.59993(14) 0.68297(11)
H6_59 H 0.4976 0.5814 0.6866
C7_59 C 0.55866(19) 0.71551(14) 0.86653(16)
H7_59 H 0.5510 0.7232 0.8509
C8_59 C 0.57619(15) 0.68692(12) 0.89427(13)
H8_59 H 0.5829 0.6707 0.9016
Ag5_29 Ag 0.471611(10) 0.587350(9) 0.624049(9)
Ag6_27 Ag 0.471611(10) 0.662650(9) 0.625951(9)
N15_59 N 0.54006(10) 0.57525(12) 0.84371(10)
N16_59 N 0.47860(10) 0.61099(12) 0.81370(13)
Ag1_60 Ag 0.807975(8) 0.023934(8) 0.099022(9)
Ag2_35 Ag 0.778389(10) 0.087350(9) 0.125951(9)
N1_60 N 0.81597(10) 0.07123(11) 0.14545(10)
N2_60 N 0.82688(11) 0.04684(12) 0.13754(12)
N3_60 N 0.75137(10) 0.04930(11) 0.11857(15)
N4_60 N 0.76339(10) 0.02607(10) 0.10837(14)
N7_60 N 0.90629(10) 0.07525(12) 0.20994(10)
N8_60 N 0.88901(12) 0.06370(13) 0.22860(10)
N9_55 N 0.72252(9) 0.01637(11) 0.11780(13)
N10_55 N 0.69883(9) 0.00268(11) 0.11955(12)
N11_60 N 0.84995(10) 0.06289(10) 0.17036(10)
N12_60 N 0.86901(10) 0.06577(11) 0.19020(10)
C1_55 C 0.74616(12) 0.00707(13) 0.10887(18)
C2_55 C 0.72624(12) 0.04263(14) 0.12331(18)
H2_55 H 0.7128 0.0545 0.1297
C3_60 C 0.84729(13) 0.04286(14) 0.15288(14)
H3_60 H 0.8588 0.0277 0.1519
C4_60 C 0.83005(13) 0.08027(14) 0.16494(13)
H4_60 H 0.8269 0.0967 0.1741
C7_60 C 0.86653(16) 0.05866(19) 0.21551(14)
H7_60 H 0.8509 0.0510 0.2232
C8_60 C 0.89427(13) 0.07619(15) 0.18692(12)
H8_60 H 0.9016 0.0829 0.1707
N13_43 N 0.76722(15) 0.11300(12) 0.16381(11)
N14_40 N 0.76672(11) 0.10922(10) 0.08832(9)
N15_60 N 0.84371(10) 0.04006(10) 0.07525(12)
H1_60 H 0.7496 0.9891 0.1037
C5_60 C 0.68663(14) 0.9941(2) 0.14196(16)
H5_60 H 0.6939 0.9961 0.1595
C6_60 C 0.68297(11) 0.99496(14) 0.09993(14)
H6_60 H 0.6866 0.9976 0.0814
N16_60 N 0.81370(13) 0.97860(10) 0.11099(12)
Ag1_61 Ag 0.442025(8) 0.226066(8) 0.099022(9)
Ag2_36 Ag 0.471611(10) 0.162650(9) 0.125951(9)
N1_61 N 0.43403(10) 0.17877(11) 0.14545(10)
N2_61 N 0.42312(11) 0.20316(12) 0.13754(12)
N3_61 N 0.49863(10) 0.20070(11) 0.11857(15)
N4_61 N 0.48661(10) 0.22393(10) 0.10837(14)
N7_61 N 0.34371(10) 0.17475(12) 0.20994(10)
N8_61 N 0.36099(12) 0.18630(13) 0.22860(10)
N9_56 N 0.52748(9) 0.23363(11) 0.11780(13)
N10_56 N 0.55117(9) 0.24732(11) 0.11955(12)
N11_61 N 0.40005(10) 0.18711(10) 0.17036(10)
N12_61 N 0.38099(10) 0.18423(11) 0.19020(10)
C1_56 C 0.50384(12) 0.24293(13) 0.10887(18)
H1_61 H 0.5004 0.2609 0.1037
C2_56 C 0.52376(12) 0.20737(14) 0.12331(18)
H2_56 H 0.5372 0.1955 0.1297
C3_61 C 0.40271(13) 0.20714(14) 0.15288(14)
H3_61 H 0.3912 0.2223 0.1519
C4_61 C 0.41995(13) 0.16973(14) 0.16494(13)
H4_61 H 0.4231 0.1533 0.1741
C5_61 C 0.56337(14) 0.2559(2) 0.14196(16)
H5_61 H 0.5561 0.2539 0.1595
C6_61 C 0.56703(11) 0.25504(14) 0.09993(14)
H6_61 H 0.5634 0.2524 0.0814
C7_61 C 0.38347(16) 0.19134(19) 0.21551(14)
H7_61 H 0.3991 0.1990 0.2232
C8_61 C 0.35573(13) 0.17381(15) 0.18692(12)
H8_61 H 0.3484 0.1671 0.1707
N13_44 N 0.48278(15) 0.13700(12) 0.16381(11)
N14_41 N 0.48328(11) 0.14078(10) 0.08832(9)
N15_61 N 0.40629(10) 0.20994(10) 0.07525(12)
N16_61 N 0.43630(13) 0.27140(10) 0.11099(12)
Ag1_62 Ag 0.523934(8) 0.650978(9) 0.442025(8)
N1_62 N 0.57123(11) 0.60455(10) 0.43403(10)
N2_62 N 0.54684(12) 0.61246(12) 0.42312(11)
N3_62 N 0.54930(11) 0.63143(15) 0.49863(10)
N4_62 N 0.52607(10) 0.64163(14) 0.48661(10)
N5_44 N 0.48278(15) 0.61300(12) 0.58619(11)
N6_46 N 0.48328(11) 0.64078(10) 0.58832(9)
N7_62 N 0.57525(12) 0.54006(10) 0.34371(10)
N8_62 N 0.56370(13) 0.52140(10) 0.36099(12)
N9_57 N 0.51637(11) 0.63220(13) 0.52748(9)
N10_57 N 0.50268(11) 0.63045(12) 0.55117(9)
N11_62 N 0.56289(10) 0.57964(10) 0.40005(10)
N12_62 N 0.56577(11) 0.55980(10) 0.38099(10)
C1_57 C 0.50707(13) 0.64113(18) 0.50384(12)
H1_62 H 0.4891 0.6463 0.5004
C2_57 C 0.54263(14) 0.62669(18) 0.52376(12)
H2_57 H 0.5545 0.6203 0.5372
C3_62 C 0.54286(14) 0.59712(14) 0.40271(13)
H3_62 H 0.5277 0.5981 0.3912
C4_62 C 0.58027(14) 0.58506(13) 0.41995(13)
H4_62 H 0.5967 0.5759 0.4231
C5_62 C 0.4941(2) 0.60804(16) 0.56337(14)
H5_62 H 0.4961 0.5905 0.5561
C6_62 C 0.49496(14) 0.65007(14) 0.56703(11)
H6_62 H 0.4976 0.6686 0.5634
C7_62 C 0.55866(19) 0.53449(14) 0.38347(16)
H7_62 H 0.5510 0.5268 0.3991
C8_62 C 0.57619(15) 0.56308(12) 0.35573(13)
H8_62 H 0.5829 0.5793 0.3484
N15_62 N 0.54006(10) 0.67475(12) 0.40629(10)
N16_62 N 0.47860(10) 0.63901(12) 0.43630(13)
Ag1_63 Ag 0.442025(8) 0.023934(8) 0.150978(9)
Ag2_37 Ag 0.471611(10) 0.087350(9) 0.124049(9)
N1_63 N 0.43403(10) 0.07123(11) 0.10455(10)
N2_63 N 0.42312(11) 0.04684(12) 0.11246(12)
N3_63 N 0.49863(10) 0.04930(11) 0.13143(15)
N4_63 N 0.48661(10) 0.02607(10) 0.14163(14)
N7_63 N 0.34371(10) 0.07525(12) 0.04006(10)
N8_63 N 0.36099(12) 0.06370(13) 0.02140(10)
N9_58 N 0.52748(9) 0.01637(11) 0.13220(13)
N10_58 N 0.55117(9) 0.00268(11) 0.13045(12)
N11_63 N 0.40005(10) 0.06289(10) 0.07964(10)
N12_63 N 0.38099(10) 0.06577(11) 0.05980(10)
C1_58 C 0.50384(12) 0.00707(13) 0.14113(18)
C2_58 C 0.52376(12) 0.04263(14) 0.12669(18)
H2_58 H 0.5372 0.0545 0.1203
C3_63 C 0.40271(13) 0.04286(14) 0.09712(14)
H3_63 H 0.3912 0.0277 0.0981
C4_63 C 0.41995(13) 0.08027(14) 0.08506(13)
H4_63 H 0.4231 0.0967 0.0759
C7_63 C 0.38347(16) 0.05866(19) 0.03449(14)
H7_63 H 0.3991 0.0510 0.0268
C8_63 C 0.35573(13) 0.07619(15) 0.06308(12)
H8_63 H 0.3484 0.0829 0.0793
N13_45 N 0.48278(15) 0.11300(12) 0.08619(11)
N14_42 N 0.48328(11) 0.10922(10) 0.16168(9)
N15_63 N 0.40629(10) 0.04006(10) 0.17475(12)
H1_63 H 0.5004 0.9891 0.1463
C5_63 C 0.56337(14) 0.9941(2) 0.10804(16)
H5_63 H 0.5561 0.9961 0.0905
C6_63 C 0.56703(11) 0.99496(14) 0.15007(14)
H6_63 H 0.5634 0.9976 0.1686
N16_63 N 0.43630(13) 0.97860(10) 0.13901(12)
Ag1_64 Ag 0.726066(8) 0.650978(9) 0.807975(8)
N1_64 N 0.67877(11) 0.60455(10) 0.81597(10)
N2_64 N 0.70316(12) 0.61246(12) 0.82688(11)
N3_64 N 0.70070(11) 0.63143(15) 0.75137(10)
N4_64 N 0.72393(10) 0.64163(14) 0.76339(10)
N5_45 N 0.76722(15) 0.61300(12) 0.66381(11)
N6_47 N 0.76672(11) 0.64078(10) 0.66168(9)
N7_64 N 0.67475(12) 0.54006(10) 0.90629(10)
N8_64 N 0.68630(13) 0.52140(10) 0.88901(12)
N9_59 N 0.73363(11) 0.63220(13) 0.72252(9)
N10_59 N 0.74732(11) 0.63045(12) 0.69883(9)
N11_64 N 0.68711(10) 0.57964(10) 0.84995(10)
N12_64 N 0.68423(11) 0.55980(10) 0.86901(10)
C1_59 C 0.74293(13) 0.64113(18) 0.74616(12)
H1_64 H 0.7609 0.6463 0.7496
C2_59 C 0.70737(14) 0.62669(18) 0.72624(12)
H2_59 H 0.6955 0.6203 0.7128
C3_64 C 0.70714(14) 0.59712(14) 0.84729(13)
H3_64 H 0.7223 0.5981 0.8588
C4_64 C 0.66973(14) 0.58506(13) 0.83005(13)
H4_64 H 0.6533 0.5759 0.8269
C5_64 C 0.7559(2) 0.60804(16) 0.68663(14)
H5_64 H 0.7539 0.5905 0.6939
C6_64 C 0.75504(14) 0.65007(14) 0.68297(11)
H6_64 H 0.7524 0.6686 0.6866
C7_64 C 0.69134(19) 0.53449(14) 0.86653(16)
H7_64 H 0.6990 0.5268 0.8509
C8_64 C 0.67381(15) 0.56308(12) 0.89427(13)
H8_64 H 0.6671 0.5793 0.9016
Ag5_30 Ag 0.778389(10) 0.662650(9) 0.624049(9)
Ag6_28 Ag 0.778389(10) 0.587350(9) 0.625951(9)
N15_64 N 0.70994(10) 0.67475(12) 0.84371(10)
N16_64 N 0.77140(10) 0.63901(12) 0.81370(13)
Ag1_65 Ag 0.726066(8) 0.599022(9) 0.442025(8)
N1_65 N 0.67877(11) 0.64545(10) 0.43403(10)
N2_65 N 0.70316(12) 0.63754(12) 0.42312(11)
N3_65 N 0.70070(11) 0.61857(15) 0.49863(10)
N4_65 N 0.72393(10) 0.60837(14) 0.48661(10)
N5_46 N 0.76722(15) 0.63700(12) 0.58619(11)
N6_48 N 0.76672(11) 0.60922(10) 0.58832(9)
N7_65 N 0.67475(12) 0.70994(10) 0.34371(10)
N8_65 N 0.68630(13) 0.72860(10) 0.36099(12)
N9_60 N 0.73363(11) 0.61780(13) 0.52748(9)
N10_60 N 0.74732(11) 0.61955(12) 0.55117(9)
N11_65 N 0.68711(10) 0.67036(10) 0.40005(10)
N12_65 N 0.68423(11) 0.69020(10) 0.38099(10)
C1_60 C 0.74293(13) 0.60887(18) 0.50384(12)
H1_65 H 0.7609 0.6037 0.5004
C2_60 C 0.70737(14) 0.62331(18) 0.52376(12)
H2_60 H 0.6955 0.6297 0.5372
C3_65 C 0.70714(14) 0.65288(14) 0.40271(13)
H3_65 H 0.7223 0.6519 0.3912
C4_65 C 0.66973(14) 0.66494(13) 0.41995(13)
H4_65 H 0.6533 0.6741 0.4231
C5_65 C 0.7559(2) 0.64196(16) 0.56337(14)
H5_65 H 0.7539 0.6595 0.5561
C6_65 C 0.75504(14) 0.59993(14) 0.56703(11)
H6_65 H 0.7524 0.5814 0.5634
C7_65 C 0.69134(19) 0.71551(14) 0.38347(16)
H7_65 H 0.6990 0.7232 0.3991
C8_65 C 0.67381(15) 0.68692(12) 0.35573(13)
H8_65 H 0.6671 0.6707 0.3484
N15_65 N 0.70994(10) 0.57525(12) 0.40629(10)
N16_65 N 0.77140(10) 0.61099(12) 0.43630(13)
Ag1_66 Ag 0.807975(8) 0.226066(8) 0.150978(9)
Ag2_38 Ag 0.778389(10) 0.162650(9) 0.124049(9)
N1_66 N 0.81597(10) 0.17877(11) 0.10455(10)
N2_66 N 0.82688(11) 0.20316(12) 0.11246(12)
N3_66 N 0.75137(10) 0.20070(11) 0.13143(15)
N4_66 N 0.76339(10) 0.22393(10) 0.14163(14)
N7_66 N 0.90629(10) 0.17475(12) 0.04006(10)
N8_66 N 0.88901(12) 0.18630(13) 0.02140(10)
N9_61 N 0.72252(9) 0.23363(11) 0.13220(13)
N10_61 N 0.69883(9) 0.24732(11) 0.13045(12)
N11_66 N 0.84995(10) 0.18711(10) 0.07964(10)
N12_66 N 0.86901(10) 0.18423(11) 0.05980(10)
C1_61 C 0.74616(12) 0.24293(13) 0.14113(18)
H1_66 H 0.7496 0.2609 0.1463
C2_61 C 0.72624(12) 0.20737(14) 0.12669(18)
H2_61 H 0.7128 0.1955 0.1203
C3_66 C 0.84729(13) 0.20714(14) 0.09712(14)
H3_66 H 0.8588 0.2223 0.0981
C4_66 C 0.83005(13) 0.16973(14) 0.08506(13)
H4_66 H 0.8269 0.1533 0.0759
C5_66 C 0.68663(14) 0.2559(2) 0.10804(16)
H5_66 H 0.6939 0.2539 0.0905
C6_66 C 0.68297(11) 0.25504(14) 0.15007(14)
H6_66 H 0.6866 0.2524 0.1686
C7_66 C 0.86653(16) 0.19134(19) 0.03449(14)
H7_66 H 0.8509 0.1990 0.0268
C8_66 C 0.89427(13) 0.17381(15) 0.06308(12)
H8_66 H 0.9016 0.1671 0.0793
N13_46 N 0.76722(15) 0.13700(12) 0.08619(11)
N14_43 N 0.76672(11) 0.14078(10) 0.16168(9)
N15_66 N 0.84371(10) 0.20994(10) 0.17475(12)
N16_66 N 0.81370(13) 0.27140(10) 0.13901(12)
Ag1_67 Ag 0.057975(8) 0.349022(9) 0.476066(8)
N1_67 N 0.06597(10) 0.39545(10) 0.42877(11)
N2_67 N 0.07688(11) 0.38754(12) 0.45316(12)
N3_67 N 0.00137(10) 0.36857(15) 0.45070(11)
N4_67 N 0.01339(10) 0.35837(14) 0.47393(10)
N7_67 N 0.15629(10) 0.45994(10) 0.42475(12)
N8_67 N 0.13901(12) 0.47860(10) 0.43630(13)
N11_67 N 0.09995(10) 0.42036(10) 0.43711(10)
N12_67 N 0.11901(10) 0.44020(10) 0.43423(11)
C3_67 C 0.09729(13) 0.40288(14) 0.45714(14)
H3_67 H 0.1088 0.4019 0.4723
C4_67 C 0.08005(13) 0.41494(13) 0.41973(14)
H4_67 H 0.0769 0.4241 0.4033
C7_67 C 0.11653(16) 0.46551(14) 0.44134(19)
H7_67 H 0.1009 0.4732 0.4490
C8_67 C 0.14427(13) 0.43692(12) 0.42381(15)
H8_67 H 0.1516 0.4207 0.4171
N15_67 N 0.09371(10) 0.32525(12) 0.45994(10)
N16_67 N 0.06370(13) 0.36099(12) 0.52140(10)
N6_49 N 0.91168(9) 0.35922(10) 0.51672(11)
N9_62 N 0.97252(9) 0.36780(13) 0.48363(11)
N10_62 N 0.94883(9) 0.36955(12) 0.49732(11)
C1_62 C 0.99616(12) 0.35887(18) 0.49293(13)
H1_67 H 0.9996 0.3537 0.5109
C2_62 C 0.97624(12) 0.37331(18) 0.45737(14)
H2_62 H 0.9628 0.3797 0.4455
C5_67 C 0.93663(14) 0.39196(16) 0.5059(2)
H5_67 H 0.9439 0.4095 0.5039
C6_67 C 0.93297(11) 0.34993(14) 0.50504(14)
H6_67 H 0.9366 0.3314 0.5024
N6_50 N 0.33832(9) 0.39078(10) 0.01672(11)
H1_68 H 0.2504 0.3963 0.0109
C5_68 C 0.31337(14) 0.35804(16) 0.0059(2)
H5_68 H 0.3061 0.3405 0.0039
C6_68 C 0.31703(11) 0.40007(14) 0.00504(14)
H6_68 H 0.3134 0.4186 0.0024
N16_68 N 0.18630(13) 0.38901(12) 0.02140(10)
Ag1_68 Ag 0.192025(8) 0.400978(9) 0.976066(8)
N1_68 N 0.18403(10) 0.35455(10) 0.92877(11)
N2_68 N 0.17312(11) 0.36246(12) 0.95316(12)
N3_68 N 0.24863(10) 0.38143(15) 0.95070(11)
N4_68 N 0.23661(10) 0.39163(14) 0.97393(10)
N7_68 N 0.09371(10) 0.29006(10) 0.92475(12)
N8_68 N 0.11099(12) 0.27140(10) 0.93630(13)
N9_63 N 0.27748(9) 0.38220(13) 0.98363(11)
N10_63 N 0.30117(9) 0.38045(12) 0.99732(11)
N11_68 N 0.15005(10) 0.32964(10) 0.93711(10)
N12_68 N 0.13099(10) 0.30980(10) 0.93423(11)
C1_63 C 0.25384(12) 0.39113(18) 0.99293(13)
C2_63 C 0.27376(12) 0.37669(18) 0.95737(14)
H2_63 H 0.2872 0.3703 0.9455
C3_68 C 0.15271(13) 0.34712(14) 0.95714(14)
H3_68 H 0.1412 0.3481 0.9723
C4_68 C 0.16995(13) 0.33506(13) 0.91973(14)
H4_68 H 0.1731 0.3259 0.9033
C7_68 C 0.13347(16) 0.28449(14) 0.94134(19)
H7_68 H 0.1491 0.2768 0.9490
C8_68 C 0.10573(13) 0.31308(12) 0.92381(15)
H8_68 H 0.0984 0.3293 0.9171
N15_68 N 0.15629(10) 0.42475(12) 0.95994(10)
Ag1_69 Ag 0.900978(9) 0.273934(8) 0.557975(8)
N1_69 N 0.85455(10) 0.32123(11) 0.56597(10)
N2_69 N 0.86246(12) 0.29684(12) 0.57688(11)
N3_69 N 0.88143(15) 0.29930(11) 0.50137(10)
N4_69 N 0.89163(14) 0.27607(10) 0.51339(10)
N5_47 N 0.86300(12) 0.23278(15) 0.41381(11)
N7_69 N 0.79006(10) 0.32525(12) 0.65629(10)
N8_69 N 0.77140(10) 0.31370(13) 0.63901(12)
N9_64 N 0.88220(13) 0.26637(11) 0.47252(9)
N10_64 N 0.88045(12) 0.25268(11) 0.44883(9)
N11_69 N 0.82964(10) 0.31289(10) 0.59995(10)
N12_69 N 0.80980(10) 0.31577(11) 0.61901(10)
C1_64 C 0.89113(18) 0.25707(13) 0.49616(12)
H1_69 H 0.8963 0.2391 0.4996
C2_64 C 0.87669(18) 0.29263(14) 0.47624(12)
H2_64 H 0.8703 0.3045 0.4628
C3_69 C 0.84712(14) 0.29286(14) 0.59729(13)
H3_69 H 0.8481 0.2777 0.6088
C4_69 C 0.83506(13) 0.33027(14) 0.58005(13)
H4_69 H 0.8259 0.3467 0.5769
C5_69 C 0.85804(16) 0.2441(2) 0.43663(14)
H5_69 H 0.8405 0.2461 0.4439
C6_69 C 0.90007(14) 0.24496(14) 0.43297(11)
H6_69 H 0.9186 0.2476 0.4366
C7_69 C 0.78449(14) 0.30866(19) 0.61653(16)
H7_69 H 0.7768 0.3010 0.6009
C8_69 C 0.81308(12) 0.32619(15) 0.64427(13)
H8_69 H 0.8293 0.3329 0.6516
N15_69 N 0.92475(12) 0.29006(10) 0.59371(10)
N16_69 N 0.88901(12) 0.22860(10) 0.56370(13)
H1_70 H 0.8963 0.0109 0.7504
C5_70 C 0.85804(16) 0.0059(2) 0.81337(14)
H5_70 H 0.8405 0.0039 0.8061
C6_70 C 0.90007(14) 0.00504(14) 0.81703(11)
H6_70 H 0.9186 0.0024 0.8134
N16_70 N 0.88901(12) 0.02140(10) 0.68630(13)
Ag1_70 Ag 0.900978(9) 0.976066(8) 0.692025(8)
N1_70 N 0.85455(10) 0.92877(11) 0.68403(10)
N2_70 N 0.86246(12) 0.95316(12) 0.67312(11)
N3_70 N 0.88143(15) 0.95070(11) 0.74863(10)
N4_70 N 0.89163(14) 0.97393(10) 0.73661(10)
N7_70 N 0.79006(10) 0.92475(12) 0.59371(10)
N8_70 N 0.77140(10) 0.93630(13) 0.61099(12)
N9_65 N 0.88220(13) 0.98363(11) 0.77748(9)
N10_65 N 0.88045(12) 0.99732(11) 0.80117(9)
N11_70 N 0.82964(10) 0.93711(10) 0.65005(10)
N12_70 N 0.80980(10) 0.93423(11) 0.63099(10)
C1_65 C 0.89113(18) 0.99293(13) 0.75384(12)
C2_65 C 0.87669(18) 0.95737(14) 0.77376(12)
H2_65 H 0.8703 0.9455 0.7872
C3_70 C 0.84712(14) 0.95714(14) 0.65271(13)
H3_70 H 0.8481 0.9723 0.6412
C4_70 C 0.83506(13) 0.91973(14) 0.66995(13)
H4_70 H 0.8259 0.9033 0.6731
C7_70 C 0.78449(14) 0.94134(19) 0.63347(16)
H7_70 H 0.7768 0.9490 0.6491
C8_70 C 0.81308(12) 0.92381(15) 0.60573(13)
H8_70 H 0.8293 0.9171 0.5984
N14_44 N 0.91168(9) 0.89078(10) 0.73328(11)
N15_70 N 0.92475(12) 0.95994(10) 0.65629(10)
Ag1_71 Ag 0.773934(8) 0.692025(8) 0.849022(9)
N1_71 N 0.82123(11) 0.68403(10) 0.89545(10)
N2_71 N 0.79684(12) 0.67312(11) 0.88754(12)
N3_71 N 0.79930(11) 0.74863(10) 0.86857(15)
N4_71 N 0.77607(10) 0.73661(10) 0.85837(14)
N7_71 N 0.82525(12) 0.59371(10) 0.95994(10)
N8_71 N 0.81370(13) 0.61099(12) 0.97860(10)
N9_66 N 0.76637(11) 0.77748(9) 0.86780(13)
N10_66 N 0.75268(11) 0.80117(9) 0.86955(12)
N11_71 N 0.81289(10) 0.65005(10) 0.92036(10)
N12_71 N 0.81577(11) 0.63099(10) 0.94020(10)
C1_66 C 0.75707(13) 0.75384(12) 0.85887(18)
H1_71 H 0.7391 0.7504 0.8537
C2_66 C 0.79263(14) 0.77376(12) 0.87331(18)
H2_66 H 0.8045 0.7872 0.8797
C3_71 C 0.79286(14) 0.65271(13) 0.90288(14)
H3_71 H 0.7777 0.6412 0.9019
C4_71 C 0.83027(14) 0.66995(13) 0.91494(13)
H4_71 H 0.8467 0.6731 0.9241
C5_71 C 0.7441(2) 0.81337(14) 0.89196(16)
H5_71 H 0.7461 0.8061 0.9095
C6_71 C 0.74496(14) 0.81703(11) 0.84993(14)
H6_71 H 0.7476 0.8134 0.8314
C7_71 C 0.80866(19) 0.63347(16) 0.96551(14)
H7_71 H 0.8010 0.6491 0.9732
C8_71 C 0.82619(15) 0.60573(13) 0.93692(12)
H8_71 H 0.8329 0.5984 0.9207
N13_47 N 0.86300(12) 0.73278(15) 0.91381(11)
N15_71 N 0.79006(10) 0.65629(10) 0.82525(12)
N16_71 N 0.72860(10) 0.68630(13) 0.86099(12)
Ag1_72 Ag 0.476066(8) 0.692025(8) 0.400978(9)
N1_72 N 0.42877(11) 0.68403(10) 0.35455(10)
N2_72 N 0.45316(12) 0.67312(11) 0.36246(12)
N3_72 N 0.45070(11) 0.74863(10) 0.38143(15)
N4_72 N 0.47393(10) 0.73661(10) 0.39163(14)
N7_72 N 0.42475(12) 0.59371(10) 0.29006(10)
N8_72 N 0.43630(13) 0.61099(12) 0.27140(10)
N9_67 N 0.48363(11) 0.77748(9) 0.38220(13)
N10_67 N 0.49732(11) 0.80117(9) 0.38045(12)
N11_72 N 0.43711(10) 0.65005(10) 0.32964(10)
N12_72 N 0.43423(11) 0.63099(10) 0.30980(10)
C1_67 C 0.49293(13) 0.75384(12) 0.39113(18)
H1_72 H 0.5109 0.7504 0.3963
C2_67 C 0.45737(14) 0.77376(12) 0.37669(18)
H2_67 H 0.4455 0.7872 0.3703
C3_72 C 0.45714(14) 0.65271(13) 0.34712(14)
H3_72 H 0.4723 0.6412 0.3481
C4_72 C 0.41973(14) 0.66995(13) 0.33506(13)
H4_72 H 0.4033 0.6731 0.3259
C5_72 C 0.5059(2) 0.81337(14) 0.35804(16)
H5_72 H 0.5039 0.8061 0.3405
C6_72 C 0.50504(14) 0.81703(11) 0.40007(14)
H6_72 H 0.5024 0.8134 0.4186
C7_72 C 0.44134(19) 0.63347(16) 0.28449(14)
H7_72 H 0.4490 0.6491 0.2768
C8_72 C 0.42381(15) 0.60573(13) 0.31308(12)
H8_72 H 0.4171 0.5984 0.3293
N15_72 N 0.45994(10) 0.65629(10) 0.42475(12)
N16_72 N 0.52140(10) 0.68630(13) 0.38901(12)
Ag1_73 Ag 0.099022(9) 0.807975(8) 0.023934(8)
N1_73 N 0.14545(10) 0.81597(10) 0.07123(11)
N2_73 N 0.13754(12) 0.82688(11) 0.04684(12)
N3_73 N 0.11857(15) 0.75137(10) 0.04930(11)
N4_73 N 0.10837(14) 0.76339(10) 0.02607(10)
N7_73 N 0.20994(10) 0.90629(10) 0.07525(12)
N8_73 N 0.22860(10) 0.88901(12) 0.06370(13)
N9_68 N 0.11780(13) 0.72252(9) 0.01637(11)
N10_68 N 0.11955(12) 0.69883(9) 0.00268(11)
N11_73 N 0.17036(10) 0.84995(10) 0.06289(10)
N12_73 N 0.19020(10) 0.86901(10) 0.06577(11)
C1_68 C 0.10887(18) 0.74616(12) 0.00707(13)
C2_68 C 0.12331(18) 0.72624(12) 0.04263(14)
H2_68 H 0.1297 0.7128 0.0545
C3_73 C 0.15288(14) 0.84729(13) 0.04286(14)
H3_73 H 0.1519 0.8588 0.0277
C4_73 C 0.16494(13) 0.83005(13) 0.08027(14)
H4_73 H 0.1741 0.8269 0.0967
C7_73 C 0.21551(14) 0.86653(16) 0.05866(19)
H7_73 H 0.2232 0.8509 0.0510
C8_73 C 0.18692(12) 0.89427(13) 0.07619(15)
H8_73 H 0.1707 0.9016 0.0829
N15_73 N 0.07525(12) 0.84371(10) 0.04006(10)
H1_73 H 0.1037 0.7496 0.9891
C5_73 C 0.14196(16) 0.68663(14) 0.9941(2)
H5_73 H 0.1595 0.6939 0.9961
C6_73 C 0.09993(14) 0.68297(11) 0.99496(14)
H6_73 H 0.0814 0.6866 0.9976
N16_73 N 0.11099(12) 0.81370(13) 0.97860(10)
Ag1_74 Ag 0.192025(8) 0.349022(9) 0.773934(8)
N1_74 N 0.18403(10) 0.39545(10) 0.82123(11)
N2_74 N 0.17312(11) 0.38754(12) 0.79684(12)
N3_74 N 0.24863(10) 0.36857(15) 0.79930(11)
N4_74 N 0.23661(10) 0.35837(14) 0.77607(10)
N6_51 N 0.33832(9) 0.35922(10) 0.73328(11)
N7_74 N 0.09371(10) 0.45994(10) 0.82525(12)
N8_74 N 0.11099(12) 0.47860(10) 0.81370(13)
N9_69 N 0.27748(9) 0.36780(13) 0.76637(11)
N10_69 N 0.30117(9) 0.36955(12) 0.75268(11)
N11_74 N 0.15005(10) 0.42036(10) 0.81289(10)
N12_74 N 0.13099(10) 0.44020(10) 0.81577(11)
C1_69 C 0.25384(12) 0.35887(18) 0.75707(13)
H1_74 H 0.2504 0.3537 0.7391
C2_69 C 0.27376(12) 0.37331(18) 0.79263(14)
H2_69 H 0.2872 0.3797 0.8045
C3_74 C 0.15271(13) 0.40288(14) 0.79286(14)
H3_74 H 0.1412 0.4019 0.7777
C4_74 C 0.16995(13) 0.41494(13) 0.83027(14)
H4_74 H 0.1731 0.4241 0.8467
C5_74 C 0.31337(14) 0.39196(16) 0.7441(2)
H5_74 H 0.3061 0.4095 0.7461
C6_74 C 0.31703(11) 0.34993(14) 0.74496(14)
H6_74 H 0.3134 0.3314 0.7476
C7_74 C 0.13347(16) 0.46551(14) 0.80866(19)
H7_74 H 0.1491 0.4732 0.8010
C8_74 C 0.10573(13) 0.43692(12) 0.82619(15)
H8_74 H 0.0984 0.4207 0.8329
N15_74 N 0.15629(10) 0.32525(12) 0.79006(10)
N16_74 N 0.18630(13) 0.36099(12) 0.72860(10)
Ag1_75 Ag 0.150978(9) 0.442025(8) 0.023934(8)
N1_75 N 0.10455(10) 0.43403(10) 0.07123(11)
N2_75 N 0.11246(12) 0.42312(11) 0.04684(12)
N3_75 N 0.13143(15) 0.49863(10) 0.04930(11)
N4_75 N 0.14163(14) 0.48661(10) 0.02607(10)
N7_75 N 0.04006(10) 0.34371(10) 0.07525(12)
N8_75 N 0.02140(10) 0.36099(12) 0.06370(13)
N9_70 N 0.13220(13) 0.52748(9) 0.01637(11)
N10_70 N 0.13045(12) 0.55117(9) 0.00268(11)
N11_75 N 0.07964(10) 0.40005(10) 0.06289(10)
N12_75 N 0.05980(10) 0.38099(10) 0.06577(11)
C1_70 C 0.14113(18) 0.50384(12) 0.00707(13)
C2_70 C 0.12669(18) 0.52376(12) 0.04263(14)
H2_70 H 0.1203 0.5372 0.0545
C3_75 C 0.09712(14) 0.40271(13) 0.04286(14)
H3_75 H 0.0981 0.3912 0.0277
C4_75 C 0.08506(13) 0.41995(13) 0.08027(14)
H4_75 H 0.0759 0.4231 0.0967
C7_75 C 0.03449(14) 0.38347(16) 0.05866(19)
H7_75 H 0.0268 0.3991 0.0510
C8_75 C 0.06308(12) 0.35573(13) 0.07619(15)
H8_75 H 0.0793 0.3484 0.0829
N15_75 N 0.17475(12) 0.40629(10) 0.04006(10)
H1_75 H 0.1463 0.5004 0.9891
C5_75 C 0.10804(16) 0.56337(14) 0.9941(2)
H5_75 H 0.0905 0.5561 0.9961
C6_75 C 0.15007(14) 0.56703(11) 0.99496(14)
H6_75 H 0.1686 0.5634 0.9976
N16_75 N 0.13901(12) 0.43630(13) 0.97860(10)
Ag1_76 Ag 0.057975(8) 0.900978(9) 0.773934(8)
N1_76 N 0.06597(10) 0.85455(10) 0.82123(11)
N2_76 N 0.07688(11) 0.86246(12) 0.79684(12)
N3_76 N 0.00137(10) 0.88143(15) 0.79930(11)
N4_76 N 0.01339(10) 0.89163(14) 0.77607(10)
N7_76 N 0.15629(10) 0.79006(10) 0.82525(12)
N8_76 N 0.13901(12) 0.77140(10) 0.81370(13)
N11_76 N 0.09995(10) 0.82964(10) 0.81289(10)
N12_76 N 0.11901(10) 0.80980(10) 0.81577(11)
C3_76 C 0.09729(13) 0.84712(14) 0.79286(14)
H3_76 H 0.1088 0.8481 0.7777
C4_76 C 0.08005(13) 0.83506(13) 0.83027(14)
H4_76 H 0.0769 0.8259 0.8467
C7_76 C 0.11653(16) 0.78449(14) 0.80866(19)
H7_76 H 0.1009 0.7768 0.8010
C8_76 C 0.14427(13) 0.81308(12) 0.82619(15)
H8_76 H 0.1516 0.8293 0.8329
N15_76 N 0.09371(10) 0.92475(12) 0.79006(10)
N16_76 N 0.06370(13) 0.88901(12) 0.72860(10)
N9_71 N 0.97252(9) 0.88220(13) 0.76637(11)
N10_71 N 0.94883(9) 0.88045(12) 0.75268(11)
C1_71 C 0.99616(12) 0.89113(18) 0.75707(13)
H1_76 H 0.9996 0.8963 0.7391
C2_71 C 0.97624(12) 0.87669(18) 0.79263(14)
H2_71 H 0.9628 0.8703 0.8045
C5_76 C 0.93663(14) 0.85804(16) 0.7441(2)
H5_76 H 0.9439 0.8405 0.7461
C6_76 C 0.93297(11) 0.90007(14) 0.74496(14)
H6_76 H 0.9366 0.9186 0.7476
Ag1_77 Ag 0.349022(9) 0.476066(8) 0.057975(8)
N1_77 N 0.39545(10) 0.42877(11) 0.06597(10)
N2_77 N 0.38754(12) 0.45316(12) 0.07688(11)
N3_77 N 0.36857(15) 0.45070(11) 0.00137(10)
N4_77 N 0.35837(14) 0.47393(10) 0.01339(10)
N7_77 N 0.45994(10) 0.42475(12) 0.15629(10)
N8_77 N 0.47860(10) 0.43630(13) 0.13901(12)
N11_77 N 0.42036(10) 0.43711(10) 0.09995(10)
N12_77 N 0.44020(10) 0.43423(11) 0.11901(10)
C3_77 C 0.40288(14) 0.45714(14) 0.09729(13)
H3_77 H 0.4019 0.4723 0.1088
C4_77 C 0.41494(13) 0.41973(14) 0.08005(13)
H4_77 H 0.4241 0.4033 0.0769
C7_77 C 0.46551(14) 0.44134(19) 0.11653(16)
H7_77 H 0.4732 0.4490 0.1009
C8_77 C 0.43692(12) 0.42381(15) 0.14427(13)
H8_77 H 0.4207 0.4171 0.1516
N15_77 N 0.32525(12) 0.45994(10) 0.09371(10)
N16_77 N 0.36099(12) 0.52140(10) 0.06370(13)
N9_72 N 0.36780(13) 0.48363(11) 0.97252(9)
N10_72 N 0.36955(12) 0.49732(11) 0.94883(9)
C1_72 C 0.35887(18) 0.49293(13) 0.99616(12)
H1_77 H 0.3537 0.5109 0.9996
C2_72 C 0.37331(18) 0.45737(14) 0.97624(12)
H2_72 H 0.3797 0.4455 0.9628
C5_77 C 0.39196(16) 0.5059(2) 0.93663(14)
H5_77 H 0.4095 0.5039 0.9439
C6_77 C 0.34993(14) 0.50504(14) 0.93297(11)
H6_77 H 0.3314 0.5024 0.9366
Ag1_78 Ag 0.099022(9) 0.442025(8) 0.226066(8)
N1_78 N 0.14545(10) 0.43403(10) 0.17877(11)
N2_78 N 0.13754(12) 0.42312(11) 0.20316(12)
N3_78 N 0.11857(15) 0.49863(10) 0.20070(11)
N4_78 N 0.10837(14) 0.48661(10) 0.22393(10)
N7_78 N 0.20994(10) 0.34371(10) 0.17475(12)
N8_78 N 0.22860(10) 0.36099(12) 0.18630(13)
N9_73 N 0.11780(13) 0.52748(9) 0.23363(11)
N10_73 N 0.11955(12) 0.55117(9) 0.24732(11)
N11_78 N 0.17036(10) 0.40005(10) 0.18711(10)
N12_78 N 0.19020(10) 0.38099(10) 0.18423(11)
C1_73 C 0.10887(18) 0.50384(12) 0.24293(13)
H1_78 H 0.1037 0.5004 0.2609
C2_73 C 0.12331(18) 0.52376(12) 0.20737(14)
H2_73 H 0.1297 0.5372 0.1955
C3_78 C 0.15288(14) 0.40271(13) 0.20714(14)
H3_78 H 0.1519 0.3912 0.2223
C4_78 C 0.16494(13) 0.41995(13) 0.16973(14)
H4_78 H 0.1741 0.4231 0.1533
C5_78 C 0.14196(16) 0.56337(14) 0.2559(2)
H5_78 H 0.1595 0.5561 0.2539
C6_78 C 0.09993(14) 0.56703(11) 0.25504(14)
H6_78 H 0.0814 0.5634 0.2524
C7_78 C 0.21551(14) 0.38347(16) 0.19134(19)
H7_78 H 0.2232 0.3991 0.1990
C8_78 C 0.18692(12) 0.35573(13) 0.17381(15)
H8_78 H 0.1707 0.3484 0.1671
N15_78 N 0.07525(12) 0.40629(10) 0.20994(10)
N16_78 N 0.11099(12) 0.43630(13) 0.27140(10)
Ag1_79 Ag 0.349022(9) 0.273934(8) 0.692025(8)
N1_79 N 0.39545(10) 0.32123(11) 0.68403(10)
N2_79 N 0.38754(12) 0.29684(12) 0.67312(11)
N3_79 N 0.36857(15) 0.29930(11) 0.74863(10)
N4_79 N 0.35837(14) 0.27607(10) 0.73661(10)
N5_48 N 0.38700(12) 0.23278(15) 0.83619(11)
N7_79 N 0.45994(10) 0.32525(12) 0.59371(10)
N8_79 N 0.47860(10) 0.31370(13) 0.61099(12)
N9_74 N 0.36780(13) 0.26637(11) 0.77748(9)
N10_74 N 0.36955(12) 0.25268(11) 0.80117(9)
N11_79 N 0.42036(10) 0.31289(10) 0.65005(10)
N12_79 N 0.44020(10) 0.31577(11) 0.63099(10)
C1_74 C 0.35887(18) 0.25707(13) 0.75384(12)
H1_79 H 0.3537 0.2391 0.7504
C2_74 C 0.37331(18) 0.29263(14) 0.77376(12)
H2_74 H 0.3797 0.3045 0.7872
C3_79 C 0.40288(14) 0.29286(14) 0.65271(13)
H3_79 H 0.4019 0.2777 0.6412
C4_79 C 0.41494(13) 0.33027(14) 0.66995(13)
H4_79 H 0.4241 0.3467 0.6731
C5_79 C 0.39196(16) 0.2441(2) 0.81337(14)
H5_79 H 0.4095 0.2461 0.8061
C6_79 C 0.34993(14) 0.24496(14) 0.81703(11)
H6_79 H 0.3314 0.2476 0.8134
C7_79 C 0.46551(14) 0.30866(19) 0.63347(16)
H7_79 H 0.4732 0.3010 0.6491
C8_79 C 0.43692(12) 0.32619(15) 0.60573(13)
H8_79 H 0.4207 0.3329 0.5984
N15_79 N 0.32525(12) 0.29006(10) 0.65629(10)
N16_79 N 0.36099(12) 0.22860(10) 0.68630(13)
Ag1_80 Ag 0.773934(8) 0.557975(8) 0.400978(9)
N1_80 N 0.82123(11) 0.56597(10) 0.35455(10)
N2_80 N 0.79684(12) 0.57688(11) 0.36246(12)
N3_80 N 0.79930(11) 0.50137(10) 0.38143(15)
N4_80 N 0.77607(10) 0.51339(10) 0.39163(14)
N7_80 N 0.82525(12) 0.65629(10) 0.29006(10)
N8_80 N 0.81370(13) 0.63901(12) 0.27140(10)
N9_75 N 0.76637(11) 0.47252(9) 0.38220(13)
N10_75 N 0.75268(11) 0.44883(9) 0.38045(12)
N11_80 N 0.81289(10) 0.59995(10) 0.32964(10)
N12_80 N 0.81577(11) 0.61901(10) 0.30980(10)
C1_75 C 0.75707(13) 0.49616(12) 0.39113(18)
H1_80 H 0.7391 0.4996 0.3963
C2_75 C 0.79263(14) 0.47624(12) 0.37669(18)
H2_75 H 0.8045 0.4628 0.3703
C3_80 C 0.79286(14) 0.59729(13) 0.34712(14)
H3_80 H 0.7777 0.6088 0.3481
C4_80 C 0.83027(14) 0.58005(13) 0.33506(13)
H4_80 H 0.8467 0.5769 0.3259
C5_80 C 0.7441(2) 0.43663(14) 0.35804(16)
H5_80 H 0.7461 0.4439 0.3405
C6_80 C 0.74496(14) 0.43297(11) 0.40007(14)
H6_80 H 0.7476 0.4366 0.4186
C7_80 C 0.80866(19) 0.61653(16) 0.28449(14)
H7_80 H 0.8010 0.6009 0.2768
C8_80 C 0.82619(15) 0.64427(13) 0.31308(12)
H8_80 H 0.8329 0.6516 0.3293
N13_48 N 0.86300(12) 0.51722(15) 0.33619(11)
N15_80 N 0.79006(10) 0.59371(10) 0.42475(12)
N16_80 N 0.72860(10) 0.56370(13) 0.38901(12)
Ag1_81 Ag 0.150978(9) 0.807975(8) 0.226066(8)
N1_81 N 0.10455(10) 0.81597(10) 0.17877(11)
N2_81 N 0.11246(12) 0.82688(11) 0.20316(12)
N3_81 N 0.13143(15) 0.75137(10) 0.20070(11)
N4_81 N 0.14163(14) 0.76339(10) 0.22393(10)
N7_81 N 0.04006(10) 0.90629(10) 0.17475(12)
N8_81 N 0.02140(10) 0.88901(12) 0.18630(13)
N9_76 N 0.13220(13) 0.72252(9) 0.23363(11)
N10_76 N 0.13045(12) 0.69883(9) 0.24732(11)
N11_81 N 0.07964(10) 0.84995(10) 0.18711(10)
N12_81 N 0.05980(10) 0.86901(10) 0.18423(11)
C1_76 C 0.14113(18) 0.74616(12) 0.24293(13)
H1_81 H 0.1463 0.7496 0.2609
C2_76 C 0.12669(18) 0.72624(12) 0.20737(14)
H2_76 H 0.1203 0.7128 0.1955
C3_81 C 0.09712(14) 0.84729(13) 0.20714(14)
H3_81 H 0.0981 0.8588 0.2223
C4_81 C 0.08506(13) 0.83005(13) 0.16973(14)
H4_81 H 0.0759 0.8269 0.1533
C5_81 C 0.10804(16) 0.68663(14) 0.2559(2)
H5_81 H 0.0905 0.6939 0.2539
C6_81 C 0.15007(14) 0.68297(11) 0.25504(14)
H6_81 H 0.1686 0.6866 0.2524
C7_81 C 0.03449(14) 0.86653(16) 0.19134(19)
H7_81 H 0.0268 0.8509 0.1990
C8_81 C 0.06308(12) 0.89427(13) 0.17381(15)
H8_81 H 0.0793 0.9016 0.1671
N15_81 N 0.17475(12) 0.84371(10) 0.20994(10)
N16_81 N 0.13901(12) 0.81370(13) 0.27140(10)
Ag1_82 Ag 0.476066(8) 0.057975(8) 0.349022(9)
N1_82 N 0.42877(11) 0.06597(10) 0.39545(10)
N2_82 N 0.45316(12) 0.07688(11) 0.38754(12)
N3_82 N 0.45070(11) 0.00137(10) 0.36857(15)
N4_82 N 0.47393(10) 0.01339(10) 0.35837(14)
N7_82 N 0.42475(12) 0.15629(10) 0.45994(10)
N8_82 N 0.43630(13) 0.13901(12) 0.47860(10)
N11_82 N 0.43711(10) 0.09995(10) 0.42036(10)
N12_82 N 0.43423(11) 0.11901(10) 0.44020(10)
C3_82 C 0.45714(14) 0.09729(13) 0.40288(14)
H3_82 H 0.4723 0.1088 0.4019
C4_82 C 0.41973(14) 0.08005(13) 0.41494(13)
H4_82 H 0.4033 0.0769 0.4241
C7_82 C 0.44134(19) 0.11653(16) 0.46551(14)
H7_82 H 0.4490 0.1009 0.4732
C8_82 C 0.42381(15) 0.14427(13) 0.43692(12)
H8_82 H 0.4171 0.1516 0.4207
N15_82 N 0.45994(10) 0.09371(10) 0.32525(12)
N16_82 N 0.52140(10) 0.06370(13) 0.36099(12)
N9_77 N 0.48363(11) 0.97252(9) 0.36780(13)
N10_77 N 0.49732(11) 0.94883(9) 0.36955(12)
C1_77 C 0.49293(13) 0.99616(12) 0.35887(18)
H1_82 H 0.5109 0.9996 0.3537
C2_77 C 0.45737(14) 0.97624(12) 0.37331(18)
H2_77 H 0.4455 0.9628 0.3797
C5_82 C 0.5059(2) 0.93663(14) 0.39196(16)
H5_82 H 0.5039 0.9439 0.4095
C6_82 C 0.50504(14) 0.93297(11) 0.34993(14)
H6_82 H 0.5024 0.9366 0.3314
Ag1_83 Ag 0.523934(8) 0.099022(9) 0.307975(8)
N1_83 N 0.57123(11) 0.14545(10) 0.31597(10)
N2_83 N 0.54684(12) 0.13754(12) 0.32688(11)
N3_83 N 0.54930(11) 0.11857(15) 0.25137(10)
N4_83 N 0.52607(10) 0.10837(14) 0.26339(10)
N7_83 N 0.57525(12) 0.20994(10) 0.40629(10)
N8_83 N 0.56370(13) 0.22860(10) 0.38901(12)
N9_78 N 0.51637(11) 0.11780(13) 0.22252(9)
N10_78 N 0.50268(11) 0.11955(12) 0.19883(9)
N11_83 N 0.56289(10) 0.17036(10) 0.34995(10)
N12_83 N 0.56577(11) 0.19020(10) 0.36901(10)
C1_78 C 0.50707(13) 0.10887(18) 0.24616(12)
H1_83 H 0.4891 0.1037 0.2496
C2_78 C 0.54263(14) 0.12331(18) 0.22624(12)
H2_78 H 0.5545 0.1297 0.2128
C3_83 C 0.54286(14) 0.15288(14) 0.34729(13)
H3_83 H 0.5277 0.1519 0.3588
C4_83 C 0.58027(14) 0.16494(13) 0.33005(13)
H4_83 H 0.5967 0.1741 0.3269
C5_83 C 0.4941(2) 0.14196(16) 0.18663(14)
H5_83 H 0.4961 0.1595 0.1939
C6_83 C 0.49496(14) 0.09993(14) 0.18297(11)
H6_83 H 0.4976 0.0814 0.1866
C7_83 C 0.55866(19) 0.21551(14) 0.36653(16)
H7_83 H 0.5510 0.2232 0.3509
C8_83 C 0.57619(15) 0.18692(12) 0.39427(13)
H8_83 H 0.5829 0.1707 0.4016
N15_83 N 0.54006(10) 0.07525(12) 0.34371(10)
N16_83 N 0.47860(10) 0.11099(12) 0.31370(13)
Ag1_84 Ag 0.807975(8) 0.523934(8) 0.599022(9)
N1_84 N 0.81597(10) 0.57123(11) 0.64545(10)
N2_84 N 0.82688(11) 0.54684(12) 0.63754(12)
N3_84 N 0.75137(10) 0.54930(11) 0.61857(15)
N4_84 N 0.76339(10) 0.52607(10) 0.60837(14)
N7_84 N 0.90629(10) 0.57525(12) 0.70994(10)
N8_84 N 0.88901(12) 0.56370(13) 0.72860(10)
N9_79 N 0.72252(9) 0.51637(11) 0.61780(13)
N10_79 N 0.69883(9) 0.50268(11) 0.61955(12)
N11_84 N 0.84995(10) 0.56289(10) 0.67036(10)
N12_84 N 0.86901(10) 0.56577(11) 0.69020(10)
C1_79 C 0.74616(12) 0.50707(13) 0.60887(18)
H1_84 H 0.7496 0.4891 0.6037
C2_79 C 0.72624(12) 0.54263(14) 0.62331(18)
H2_79 H 0.7128 0.5545 0.6297
C3_84 C 0.84729(13) 0.54286(14) 0.65288(14)
H3_84 H 0.8588 0.5277 0.6519
C4_84 C 0.83005(13) 0.58027(14) 0.66494(13)
H4_84 H 0.8269 0.5967 0.6741
C5_84 C 0.68663(14) 0.4941(2) 0.64196(16)
H5_84 H 0.6939 0.4961 0.6595
C6_84 C 0.68297(11) 0.49496(14) 0.59993(14)
H6_84 H 0.6866 0.4976 0.5814
C7_84 C 0.86653(16) 0.55866(19) 0.71551(14)
H7_84 H 0.8509 0.5510 0.7232
C8_84 C 0.89427(13) 0.57619(15) 0.68692(12)
H8_84 H 0.9016 0.5829 0.6707
N15_84 N 0.84371(10) 0.54006(10) 0.57525(12)
N16_84 N 0.81370(13) 0.47860(10) 0.61099(12)
Ag1_85 Ag 0.442025(8) 0.726066(8) 0.599022(9)
N1_85 N 0.43403(10) 0.67877(11) 0.64545(10)
N2_85 N 0.42312(11) 0.70316(12) 0.63754(12)
N3_85 N 0.49863(10) 0.70070(11) 0.61857(15)
N4_85 N 0.48661(10) 0.72393(10) 0.60837(14)
N7_85 N 0.34371(10) 0.67475(12) 0.70994(10)
N8_85 N 0.36099(12) 0.68630(13) 0.72860(10)
N9_80 N 0.52748(9) 0.73363(11) 0.61780(13)
N10_80 N 0.55117(9) 0.74732(11) 0.61955(12)
N11_85 N 0.40005(10) 0.68711(10) 0.67036(10)
N12_85 N 0.38099(10) 0.68423(11) 0.69020(10)
C1_80 C 0.50384(12) 0.74293(13) 0.60887(18)
H1_85 H 0.5004 0.7609 0.6037
C2_80 C 0.52376(12) 0.70737(14) 0.62331(18)
H2_80 H 0.5372 0.6955 0.6297
C3_85 C 0.40271(13) 0.70714(14) 0.65288(14)
H3_85 H 0.3912 0.7223 0.6519
C4_85 C 0.41995(13) 0.66973(14) 0.66494(13)
H4_85 H 0.4231 0.6533 0.6741
C5_85 C 0.56337(14) 0.7559(2) 0.64196(16)
H5_85 H 0.5561 0.7539 0.6595
C6_85 C 0.56703(11) 0.75504(14) 0.59993(14)
H6_85 H 0.5634 0.7524 0.5814
C7_85 C 0.38347(16) 0.69134(19) 0.71551(14)
H7_85 H 0.3991 0.6990 0.7232
C8_85 C 0.35573(13) 0.67381(15) 0.68692(12)
H8_85 H 0.3484 0.6671 0.6707
N15_85 N 0.40629(10) 0.70994(10) 0.57525(12)
N16_85 N 0.43630(13) 0.77140(10) 0.61099(12)
N9_81 N 0.51637(11) 0.13220(13) 0.02748(9)
N10_81 N 0.50268(11) 0.13045(12) 0.05117(9)
C1_81 C 0.50707(13) 0.14113(18) 0.00384(12)
H1_86 H 0.4891 0.1463 0.0004
C2_81 C 0.54263(14) 0.12669(18) 0.02376(12)
H2_81 H 0.5545 0.1203 0.0372
C5_86 C 0.4941(2) 0.10804(16) 0.06337(14)
H5_86 H 0.4961 0.0905 0.0561
C6_86 C 0.49496(14) 0.15007(14) 0.06703(11)
H6_86 H 0.4976 0.1686 0.0634
Ag1_86 Ag 0.523934(8) 0.150978(9) 0.942025(8)
N1_86 N 0.57123(11) 0.10455(10) 0.93403(10)
N2_86 N 0.54684(12) 0.11246(12) 0.92312(11)
N3_86 N 0.54930(11) 0.13143(15) 0.99863(10)
N4_86 N 0.52607(10) 0.14163(14) 0.98661(10)
N7_86 N 0.57525(12) 0.04006(10) 0.84371(10)
N8_86 N 0.56370(13) 0.02140(10) 0.86099(12)
N11_86 N 0.56289(10) 0.07964(10) 0.90005(10)
N12_86 N 0.56577(11) 0.05980(10) 0.88099(10)
C3_86 C 0.54286(14) 0.09712(14) 0.90271(13)
H3_86 H 0.5277 0.0981 0.8912
C4_86 C 0.58027(14) 0.08506(13) 0.91995(13)
H4_86 H 0.5967 0.0759 0.9231
C7_86 C 0.55866(19) 0.03449(14) 0.88347(16)
H7_86 H 0.5510 0.0268 0.8991
C8_86 C 0.57619(15) 0.06308(12) 0.85573(13)
H8_86 H 0.5829 0.0793 0.8484
N15_86 N 0.54006(10) 0.17475(12) 0.90629(10)
N16_86 N 0.47860(10) 0.13901(12) 0.93630(13)
Ag1_87 Ag 0.442025(8) 0.523934(8) 0.650978(9)
N1_87 N 0.43403(10) 0.57123(11) 0.60455(10)
N2_87 N 0.42312(11) 0.54684(12) 0.61246(12)
N3_87 N 0.49863(10) 0.54930(11) 0.63143(15)
N4_87 N 0.48661(10) 0.52607(10) 0.64163(14)
N7_87 N 0.34371(10) 0.57525(12) 0.54006(10)
N8_87 N 0.36099(12) 0.56370(13) 0.52140(10)
N9_82 N 0.52748(9) 0.51637(11) 0.63220(13)
N10_82 N 0.55117(9) 0.50268(11) 0.63045(12)
N11_87 N 0.40005(10) 0.56289(10) 0.57964(10)
N12_87 N 0.38099(10) 0.56577(11) 0.55980(10)
C1_82 C 0.50384(12) 0.50707(13) 0.64113(18)
H1_87 H 0.5004 0.4891 0.6463
C2_82 C 0.52376(12) 0.54263(14) 0.62669(18)
H2_82 H 0.5372 0.5545 0.6203
C3_87 C 0.40271(13) 0.54286(14) 0.59712(14)
H3_87 H 0.3912 0.5277 0.5981
C4_87 C 0.41995(13) 0.58027(14) 0.58506(13)
H4_87 H 0.4231 0.5967 0.5759
C5_87 C 0.56337(14) 0.4941(2) 0.60804(16)
H5_87 H 0.5561 0.4961 0.5905
C6_87 C 0.56703(11) 0.49496(14) 0.65007(14)
H6_87 H 0.5634 0.4976 0.6686
C7_87 C 0.38347(16) 0.55866(19) 0.53449(14)
H7_87 H 0.3991 0.5510 0.5268
C8_87 C 0.35573(13) 0.57619(15) 0.56308(12)
H8_87 H 0.3484 0.5829 0.5793
N15_87 N 0.40629(10) 0.54006(10) 0.67475(12)
N16_87 N 0.43630(13) 0.47860(10) 0.63901(12)
Ag1_88 Ag 0.726066(8) 0.150978(9) 0.307975(8)
N1_88 N 0.67877(11) 0.10455(10) 0.31597(10)
N2_88 N 0.70316(12) 0.11246(12) 0.32688(11)
N3_88 N 0.70070(11) 0.13143(15) 0.25137(10)
N4_88 N 0.72393(10) 0.14163(14) 0.26339(10)
N7_88 N 0.67475(12) 0.04006(10) 0.40629(10)
N8_88 N 0.68630(13) 0.02140(10) 0.38901(12)
N9_83 N 0.73363(11) 0.13220(13) 0.22252(9)
N10_83 N 0.74732(11) 0.13045(12) 0.19883(9)
N11_88 N 0.68711(10) 0.07964(10) 0.34995(10)
N12_88 N 0.68423(11) 0.05980(10) 0.36901(10)
C1_83 C 0.74293(13) 0.14113(18) 0.24616(12)
H1_88 H 0.7609 0.1463 0.2496
C2_83 C 0.70737(14) 0.12669(18) 0.22624(12)
H2_83 H 0.6955 0.1203 0.2128
C3_88 C 0.70714(14) 0.09712(14) 0.34729(13)
H3_88 H 0.7223 0.0981 0.3588
C4_88 C 0.66973(14) 0.08506(13) 0.33005(13)
H4_88 H 0.6533 0.0759 0.3269
C5_88 C 0.7559(2) 0.10804(16) 0.18663(14)
H5_88 H 0.7539 0.0905 0.1939
C6_88 C 0.75504(14) 0.15007(14) 0.18297(11)
H6_88 H 0.7524 0.1686 0.1866
C7_88 C 0.69134(19) 0.03449(14) 0.36653(16)
H7_88 H 0.6990 0.0268 0.3509
C8_88 C 0.67381(15) 0.06308(12) 0.39427(13)
H8_88 H 0.6671 0.0793 0.4016
N15_88 N 0.70994(10) 0.17475(12) 0.34371(10)
N16_88 N 0.77140(10) 0.13901(12) 0.31370(13)
N9_84 N 0.73363(11) 0.11780(13) 0.02748(9)
N10_84 N 0.74732(11) 0.11955(12) 0.05117(9)
C1_84 C 0.74293(13) 0.10887(18) 0.00384(12)
H1_89 H 0.7609 0.1037 0.0004
C2_84 C 0.70737(14) 0.12331(18) 0.02376(12)
H2_84 H 0.6955 0.1297 0.0372
C5_89 C 0.7559(2) 0.14196(16) 0.06337(14)
H5_89 H 0.7539 0.1595 0.0561
C6_89 C 0.75504(14) 0.09993(14) 0.06703(11)
H6_89 H 0.7524 0.0814 0.0634
Ag1_89 Ag 0.726066(8) 0.099022(9) 0.942025(8)
N1_89 N 0.67877(11) 0.14545(10) 0.93403(10)
N2_89 N 0.70316(12) 0.13754(12) 0.92312(11)
N3_89 N 0.70070(11) 0.11857(15) 0.99863(10)
N4_89 N 0.72393(10) 0.10837(14) 0.98661(10)
N7_89 N 0.67475(12) 0.20994(10) 0.84371(10)
N8_89 N 0.68630(13) 0.22860(10) 0.86099(12)
N11_89 N 0.68711(10) 0.17036(10) 0.90005(10)
N12_89 N 0.68423(11) 0.19020(10) 0.88099(10)
C3_89 C 0.70714(14) 0.15288(14) 0.90271(13)
H3_89 H 0.7223 0.1519 0.8912
C4_89 C 0.66973(14) 0.16494(13) 0.91995(13)
H4_89 H 0.6533 0.1741 0.9231
C7_89 C 0.69134(19) 0.21551(14) 0.88347(16)
H7_89 H 0.6990 0.2232 0.8991
C8_89 C 0.67381(15) 0.18692(12) 0.85573(13)
H8_89 H 0.6671 0.1707 0.8484
N15_89 N 0.70994(10) 0.07525(12) 0.90629(10)
N16_89 N 0.77140(10) 0.11099(12) 0.93630(13)
Ag1_90 Ag 0.807975(8) 0.726066(8) 0.650978(9)
N1_90 N 0.81597(10) 0.67877(11) 0.60455(10)
N2_90 N 0.82688(11) 0.70316(12) 0.61246(12)
N3_90 N 0.75137(10) 0.70070(11) 0.63143(15)
N4_90 N 0.76339(10) 0.72393(10) 0.64163(14)
N7_90 N 0.90629(10) 0.67475(12) 0.54006(10)
N8_90 N 0.88901(12) 0.68630(13) 0.52140(10)
N9_85 N 0.72252(9) 0.73363(11) 0.63220(13)
N10_85 N 0.69883(9) 0.74732(11) 0.63045(12)
N11_90 N 0.84995(10) 0.68711(10) 0.57964(10)
N12_90 N 0.86901(10) 0.68423(11) 0.55980(10)
C1_85 C 0.74616(12) 0.74293(13) 0.64113(18)
H1_90 H 0.7496 0.7609 0.6463
C2_85 C 0.72624(12) 0.70737(14) 0.62669(18)
H2_85 H 0.7128 0.6955 0.6203
C3_90 C 0.84729(13) 0.70714(14) 0.59712(14)
H3_90 H 0.8588 0.7223 0.5981
C4_90 C 0.83005(13) 0.66973(14) 0.58506(13)
H4_90 H 0.8269 0.6533 0.5759
C5_90 C 0.68663(14) 0.7559(2) 0.60804(16)
H5_90 H 0.6939 0.7539 0.5905
C6_90 C 0.68297(11) 0.75504(14) 0.65007(14)
H6_90 H 0.6866 0.7524 0.6686
C7_90 C 0.86653(16) 0.69134(19) 0.53449(14)
H7_90 H 0.8509 0.6990 0.5268
C8_90 C 0.89427(13) 0.67381(15) 0.56308(12)
H8_90 H 0.9016 0.6671 0.5793
N15_90 N 0.84371(10) 0.70994(10) 0.67475(12)
N16_90 N 0.81370(13) 0.77140(10) 0.63901(12)
N16_91 N 0.06370(13) 0.86099(12) 0.02140(10)
Ag1_91 Ag 0.057975(8) 0.849022(9) 0.976066(8)
N1_91 N 0.06597(10) 0.89545(10) 0.92877(11)
N2_91 N 0.07688(11) 0.88754(12) 0.95316(12)
N3_91 N 0.00137(10) 0.86857(15) 0.95070(11)
N4_91 N 0.01339(10) 0.85837(14) 0.97393(10)
N7_91 N 0.15629(10) 0.95994(10) 0.92475(12)
N8_91 N 0.13901(12) 0.97860(10) 0.93630(13)
N11_91 N 0.09995(10) 0.92036(10) 0.93711(10)
N12_91 N 0.11901(10) 0.94020(10) 0.93423(11)
C3_91 C 0.09729(13) 0.90288(14) 0.95714(14)
H3_91 H 0.1088 0.9019 0.9723
C4_91 C 0.08005(13) 0.91494(13) 0.91973(14)
H4_91 H 0.0769 0.9241 0.9033
C7_91 C 0.11653(16) 0.96551(14) 0.94134(19)
H7_91 H 0.1009 0.9732 0.9490
C8_91 C 0.14427(13) 0.93692(12) 0.92381(15)
H8_91 H 0.1516 0.9207 0.9171
N15_91 N 0.09371(10) 0.82525(12) 0.95994(10)
N6_52 N 0.91168(9) 0.85922(10) 0.01672(11)
H1_91 H 0.9996 0.8537 0.0109
C5_91 C 0.93663(14) 0.89196(16) 0.0059(2)
H5_91 H 0.9439 0.9095 0.0039
C6_91 C 0.93297(11) 0.84993(14) 0.00504(14)
H6_91 H 0.9366 0.8314 0.0024
Ag1_92 Ag 0.192025(8) 0.900978(9) 0.476066(8)
N1_92 N 0.18403(10) 0.85455(10) 0.42877(11)
N2_92 N 0.17312(11) 0.86246(12) 0.45316(12)
N3_92 N 0.24863(10) 0.88143(15) 0.45070(11)
N4_92 N 0.23661(10) 0.89163(14) 0.47393(10)
N7_92 N 0.09371(10) 0.79006(10) 0.42475(12)
N8_92 N 0.11099(12) 0.77140(10) 0.43630(13)
N9_86 N 0.27748(9) 0.88220(13) 0.48363(11)
N10_86 N 0.30117(9) 0.88045(12) 0.49732(11)
N11_92 N 0.15005(10) 0.82964(10) 0.43711(10)
N12_92 N 0.13099(10) 0.80980(10) 0.43423(11)
C1_86 C 0.25384(12) 0.89113(18) 0.49293(13)
H1_92 H 0.2504 0.8963 0.5109
C2_86 C 0.27376(12) 0.87669(18) 0.45737(14)
H2_86 H 0.2872 0.8703 0.4455
C3_92 C 0.15271(13) 0.84712(14) 0.45714(14)
H3_92 H 0.1412 0.8481 0.4723
C4_92 C 0.16995(13) 0.83506(13) 0.41973(14)
H4_92 H 0.1731 0.8259 0.4033
C5_92 C 0.31337(14) 0.85804(16) 0.5059(2)
H5_92 H 0.3061 0.8405 0.5039
C6_92 C 0.31703(11) 0.90007(14) 0.50504(14)
H6_92 H 0.3134 0.9186 0.5024
C7_92 C 0.13347(16) 0.78449(14) 0.44134(19)
H7_92 H 0.1491 0.7768 0.4490
C8_92 C 0.10573(13) 0.81308(12) 0.42381(15)
H8_92 H 0.0984 0.8293 0.4171
N15_92 N 0.15629(10) 0.92475(12) 0.45994(10)
N16_92 N 0.18630(13) 0.88901(12) 0.52140(10)
Ag1_93 Ag 0.900978(9) 0.773934(8) 0.057975(8)
N1_93 N 0.85455(10) 0.82123(11) 0.06597(10)
N2_93 N 0.86246(12) 0.79684(12) 0.07688(11)
N3_93 N 0.88143(15) 0.79930(11) 0.00137(10)
N4_93 N 0.89163(14) 0.77607(10) 0.01339(10)
N7_93 N 0.79006(10) 0.82525(12) 0.15629(10)
N8_93 N 0.77140(10) 0.81370(13) 0.13901(12)
N11_93 N 0.82964(10) 0.81289(10) 0.09995(10)
N12_93 N 0.80980(10) 0.81577(11) 0.11901(10)
C3_93 C 0.84712(14) 0.79286(14) 0.09729(13)
H3_93 H 0.8481 0.7777 0.1088
C4_93 C 0.83506(13) 0.83027(14) 0.08005(13)
H4_93 H 0.8259 0.8467 0.0769
C7_93 C 0.78449(14) 0.80866(19) 0.11653(16)
H7_93 H 0.7768 0.8010 0.1009
C8_93 C 0.81308(12) 0.82619(15) 0.14427(13)
H8_93 H 0.8293 0.8329 0.1516
N15_93 N 0.92475(12) 0.79006(10) 0.09371(10)
N16_93 N 0.88901(12) 0.72860(10) 0.06370(13)
N9_87 N 0.88220(13) 0.76637(11) 0.97252(9)
N10_87 N 0.88045(12) 0.75268(11) 0.94883(9)
C1_87 C 0.89113(18) 0.75707(13) 0.99616(12)
H1_93 H 0.8963 0.7391 0.9996
C2_87 C 0.87669(18) 0.79263(14) 0.97624(12)
H2_87 H 0.8703 0.8045 0.9628
C5_93 C 0.85804(16) 0.7441(2) 0.93663(14)
H5_93 H 0.8405 0.7461 0.9439
C6_93 C 0.90007(14) 0.74496(14) 0.93297(11)
H6_93 H 0.9186 0.7476 0.9366
Ag1_94 Ag 0.900978(9) 0.476066(8) 0.192025(8)
N1_94 N 0.85455(10) 0.42877(11) 0.18403(10)
N2_94 N 0.86246(12) 0.45316(12) 0.17312(11)
N3_94 N 0.88143(15) 0.45070(11) 0.24863(10)
N4_94 N 0.89163(14) 0.47393(10) 0.23661(10)
N7_94 N 0.79006(10) 0.42475(12) 0.09371(10)
N8_94 N 0.77140(10) 0.43630(13) 0.11099(12)
N9_88 N 0.88220(13) 0.48363(11) 0.27748(9)
N10_88 N 0.88045(12) 0.49732(11) 0.30117(9)
N11_94 N 0.82964(10) 0.43711(10) 0.15005(10)
N12_94 N 0.80980(10) 0.43423(11) 0.13099(10)
C1_88 C 0.89113(18) 0.49293(13) 0.25384(12)
H1_94 H 0.8963 0.5109 0.2504
C2_88 C 0.87669(18) 0.45737(14) 0.27376(12)
H2_88 H 0.8703 0.4455 0.2872
C3_94 C 0.84712(14) 0.45714(14) 0.15271(13)
H3_94 H 0.8481 0.4723 0.1412
C4_94 C 0.83506(13) 0.41973(14) 0.16995(13)
H4_94 H 0.8259 0.4033 0.1731
C5_94 C 0.85804(16) 0.5059(2) 0.31337(14)
H5_94 H 0.8405 0.5039 0.3061
C6_94 C 0.90007(14) 0.50504(14) 0.31703(11)
H6_94 H 0.9186 0.5024 0.3134
C7_94 C 0.78449(14) 0.44134(19) 0.13347(16)
H7_94 H 0.7768 0.4490 0.1491
C8_94 C 0.81308(12) 0.42381(15) 0.10573(13)
H8_94 H 0.8293 0.4171 0.0984
N15_94 N 0.92475(12) 0.45994(10) 0.15629(10)
N16_94 N 0.88901(12) 0.52140(10) 0.18630(13)
Ag1_95 Ag 0.773934(8) 0.192025(8) 0.349022(9)
N1_95 N 0.82123(11) 0.18403(10) 0.39545(10)
N2_95 N 0.79684(12) 0.17312(11) 0.38754(12)
N3_95 N 0.79930(11) 0.24863(10) 0.36857(15)
N4_95 N 0.77607(10) 0.23661(10) 0.35837(14)
N7_95 N 0.82525(12) 0.09371(10) 0.45994(10)
N8_95 N 0.81370(13) 0.11099(12) 0.47860(10)
N9_89 N 0.76637(11) 0.27748(9) 0.36780(13)
N10_89 N 0.75268(11) 0.30117(9) 0.36955(12)
N11_95 N 0.81289(10) 0.15005(10) 0.42036(10)
N12_95 N 0.81577(11) 0.13099(10) 0.44020(10)
C1_89 C 0.75707(13) 0.25384(12) 0.35887(18)
H1_95 H 0.7391 0.2504 0.3537
C2_89 C 0.79263(14) 0.27376(12) 0.37331(18)
H2_89 H 0.8045 0.2872 0.3797
C3_95 C 0.79286(14) 0.15271(13) 0.40288(14)
H3_95 H 0.7777 0.1412 0.4019
C4_95 C 0.83027(14) 0.16995(13) 0.41494(13)
H4_95 H 0.8467 0.1731 0.4241
C5_95 C 0.7441(2) 0.31337(14) 0.39196(16)
H5_95 H 0.7461 0.3061 0.4095
C6_95 C 0.74496(14) 0.31703(11) 0.34993(14)
H6_95 H 0.7476 0.3134 0.3314
C7_95 C 0.80866(19) 0.13347(16) 0.46551(14)
H7_95 H 0.8010 0.1491 0.4732
C8_95 C 0.82619(15) 0.10573(13) 0.43692(12)
H8_95 H 0.8329 0.0984 0.4207
N15_95 N 0.79006(10) 0.15629(10) 0.32525(12)
N16_95 N 0.72860(10) 0.18630(13) 0.36099(12)
Ag1_96 Ag 0.476066(8) 0.192025(8) 0.900978(9)
N1_96 N 0.42877(11) 0.18403(10) 0.85455(10)
N2_96 N 0.45316(12) 0.17312(11) 0.86246(12)
N3_96 N 0.45070(11) 0.24863(10) 0.88143(15)
N4_96 N 0.47393(10) 0.23661(10) 0.89163(14)
N7_96 N 0.42475(12) 0.09371(10) 0.79006(10)
N8_96 N 0.43630(13) 0.11099(12) 0.77140(10)
N9_90 N 0.48363(11) 0.27748(9) 0.88220(13)
N10_90 N 0.49732(11) 0.30117(9) 0.88045(12)
N11_96 N 0.43711(10) 0.15005(10) 0.82964(10)
N12_96 N 0.43423(11) 0.13099(10) 0.80980(10)
C1_90 C 0.49293(13) 0.25384(12) 0.89113(18)
H1_96 H 0.5109 0.2504 0.8963
C2_90 C 0.45737(14) 0.27376(12) 0.87669(18)
H2_90 H 0.4455 0.2872 0.8703
C3_96 C 0.45714(14) 0.15271(13) 0.84712(14)
H3_96 H 0.4723 0.1412 0.8481
C4_96 C 0.41973(14) 0.16995(13) 0.83506(13)
H4_96 H 0.4033 0.1731 0.8259
C5_96 C 0.5059(2) 0.31337(14) 0.85804(16)
H5_96 H 0.5039 0.3061 0.8405
C6_96 C 0.50504(14) 0.31703(11) 0.90007(14)
H6_96 H 0.5024 0.3134 0.9186
C7_96 C 0.44134(19) 0.13347(16) 0.78449(14)
H7_96 H 0.4490 0.1491 0.7768
C8_96 C 0.42381(15) 0.10573(13) 0.81308(12)
H8_96 H 0.4171 0.0984 0.8293
N15_96 N 0.45994(10) 0.15629(10) 0.92475(12)
N16_96 N 0.52140(10) 0.18630(13) 0.88901(12)
N5_49 N 0.36300(12) 0.83619(11) 0.01722(15)
N6_53 N 0.39078(10) 0.83832(9) 0.01672(11)
H1_97 H 0.3963 0.7504 0.0109
C5_97 C 0.35804(16) 0.81337(14) 0.0059(2)
H5_97 H 0.3405 0.8061 0.0039
C6_97 C 0.40007(14) 0.81703(11) 0.00504(14)
H6_97 H 0.4186 0.8134 0.0024
Ag5_31 Ag 0.412650(9) 0.875951(9) 0.028389(10)
Ag6_29 Ag 0.337350(9) 0.874049(9) 0.028389(10)
Ag2_39 Ag 0.374049(9) 0.721611(10) 0.912650(9)
N1_97 N 0.35455(10) 0.68403(10) 0.92877(11)
N2_97 N 0.36246(12) 0.67312(11) 0.95316(12)
N3_97 N 0.38143(15) 0.74863(10) 0.95070(11)
N4_97 N 0.39163(14) 0.73661(10) 0.97393(10)
N9_91 N 0.38220(13) 0.77748(9) 0.98363(11)
N10_91 N 0.38045(12) 0.80117(9) 0.99732(11)
N11_97 N 0.32964(10) 0.65005(10) 0.93711(10)
N12_97 N 0.30980(10) 0.63099(10) 0.93423(11)
C1_91 C 0.39113(18) 0.75384(12) 0.99293(13)
C2_91 C 0.37669(18) 0.77376(12) 0.95737(14)
H2_91 H 0.3703 0.7872 0.9455
C3_97 C 0.34712(14) 0.65271(13) 0.95714(14)
H3_97 H 0.3481 0.6412 0.9723
C4_97 C 0.33506(13) 0.66995(13) 0.91973(14)
H4_97 H 0.3259 0.6731 0.9033
C7_97 C 0.28449(14) 0.63347(16) 0.94134(19)
H7_97 H 0.2768 0.6491 0.9490
C8_97 C 0.31308(12) 0.60573(13) 0.92381(15)
H8_97 H 0.3293 0.5984 0.9171
N13_49 N 0.33619(11) 0.73278(15) 0.88700(12)
N14_45 N 0.41168(9) 0.73328(11) 0.89078(10)
Ag2_40 Ag 0.278389(10) 0.124049(9) 0.162650(9)
N1_98 N 0.31597(10) 0.10455(10) 0.17877(11)
N2_98 N 0.32688(11) 0.11246(12) 0.20316(12)
N3_98 N 0.25137(10) 0.13143(15) 0.20070(11)
N4_98 N 0.26339(10) 0.14163(14) 0.22393(10)
N5_50 N 0.16381(11) 0.11300(12) 0.26722(15)
N6_54 N 0.16168(9) 0.14078(10) 0.26672(11)
N9_92 N 0.22252(9) 0.13220(13) 0.23363(11)
N10_92 N 0.19883(9) 0.13045(12) 0.24732(11)
N11_98 N 0.34995(10) 0.07964(10) 0.18711(10)
N12_98 N 0.36901(10) 0.05980(10) 0.18423(11)
C1_92 C 0.24616(12) 0.14113(18) 0.24293(13)
H1_98 H 0.2496 0.1463 0.2609
C2_92 C 0.22624(12) 0.12669(18) 0.20737(14)
H2_92 H 0.2128 0.1203 0.1955
C3_98 C 0.34729(13) 0.09712(14) 0.20714(14)
H3_98 H 0.3588 0.0981 0.2223
C4_98 C 0.33005(13) 0.08506(13) 0.16973(14)
H4_98 H 0.3269 0.0759 0.1533
C5_98 C 0.18663(14) 0.10804(16) 0.2559(2)
H5_98 H 0.1939 0.0905 0.2539
C6_98 C 0.18297(11) 0.15007(14) 0.25504(14)
H6_98 H 0.1866 0.1686 0.2524
C7_98 C 0.36653(16) 0.03449(14) 0.19134(19)
H7_98 H 0.3509 0.0268 0.1990
C8_98 C 0.39427(13) 0.06308(12) 0.17381(15)
H8_98 H 0.4016 0.0793 0.1671
Ag5_32 Ag 0.124049(9) 0.162650(9) 0.278389(10)
Ag6_30 Ag 0.125951(9) 0.087350(9) 0.278389(10)
N13_50 N 0.26722(15) 0.08619(11) 0.13700(12)
N14_46 N 0.26672(11) 0.16168(9) 0.14078(10)
Ag2_41 Ag 0.375951(9) 0.028389(10) 0.912650(9)
N1_99 N 0.39545(10) 0.06597(10) 0.92877(11)
N2_99 N 0.38754(12) 0.07688(11) 0.95316(12)
N3_99 N 0.36857(15) 0.00137(10) 0.95070(11)
N4_99 N 0.35837(14) 0.01339(10) 0.97393(10)
N11_99 N 0.42036(10) 0.09995(10) 0.93711(10)
N12_99 N 0.44020(10) 0.11901(10) 0.93423(11)
C3_99 C 0.40288(14) 0.09729(13) 0.95714(14)
H3_99 H 0.4019 0.1088 0.9723
C4_99 C 0.41494(13) 0.08005(13) 0.91973(14)
H4_99 H 0.4241 0.0769 0.9033
C7_99 C 0.46551(14) 0.11653(16) 0.94134(19)
H7_99 H 0.4732 0.1009 0.9490
C8_99 C 0.43692(12) 0.14427(13) 0.92381(15)
H8_99 H 0.4207 0.1516 0.9171
N13_51 N 0.41381(11) 0.01722(15) 0.88700(12)
N14_47 N 0.33832(9) 0.01672(11) 0.89078(10)
N5_51 N 0.38700(12) 0.91381(11) 0.01722(15)
N6_55 N 0.35922(10) 0.91168(9) 0.01672(11)
H1_99 H 0.3537 0.9996 0.0109
C5_99 C 0.39196(16) 0.93663(14) 0.0059(2)
H5_99 H 0.4095 0.9439 0.0039
C6_99 C 0.34993(14) 0.93297(11) 0.00504(14)
H6_99 H 0.3314 0.9366 0.0024
Ag2_42 Ag 0.471611(10) 0.625951(9) 0.162650(9)
N1_100 N 0.43403(10) 0.64545(10) 0.17877(11)
N2_100 N 0.42312(11) 0.63754(12) 0.20316(12)
N3_100 N 0.49863(10) 0.61857(15) 0.20070(11)
N4_100 N 0.48661(10) 0.60837(14) 0.22393(10)
N5_52 N 0.58619(11) 0.63700(12) 0.26722(15)
N6_56 N 0.58832(9) 0.60922(10) 0.26672(11)
N9_93 N 0.52748(9) 0.61780(13) 0.23363(11)
N10_93 N 0.55117(9) 0.61955(12) 0.24732(11)
N11_100 N 0.40005(10) 0.67036(10) 0.18711(10)
N12_100 N 0.38099(10) 0.69020(10) 0.18423(11)
C1_93 C 0.50384(12) 0.60887(18) 0.24293(13)
H1_100 H 0.5004 0.6037 0.2609
C2_93 C 0.52376(12) 0.62331(18) 0.20737(14)
H2_93 H 0.5372 0.6297 0.1955
C3_100 C 0.40271(13) 0.65288(14) 0.20714(14)
H3_100 H 0.3912 0.6519 0.2223
C4_100 C 0.41995(13) 0.66494(13) 0.16973(14)
H4_100 H 0.4231 0.6741 0.1533
C5_100 C 0.56337(14) 0.64196(16) 0.2559(2)
H5_100 H 0.5561 0.6595 0.2539
C6_100 C 0.56703(11) 0.59993(14) 0.25504(14)
H6_100 H 0.5634 0.5814 0.2524
C7_100 C 0.38347(16) 0.71551(14) 0.19134(19)
H7_100 H 0.3991 0.7232 0.1990
C8_100 C 0.35573(13) 0.68692(12) 0.17381(15)
H8_100 H 0.3484 0.6707 0.1671
Ag5_33 Ag 0.625951(9) 0.587350(9) 0.278389(10)
Ag6_31 Ag 0.624049(9) 0.662650(9) 0.278389(10)
N13_52 N 0.48278(15) 0.66381(11) 0.13700(12)
N14_48 N 0.48328(11) 0.58832(9) 0.14078(10)
Ag2_43 Ag 0.124049(9) 0.087350(9) 0.971611(10)
N1_101 N 0.10455(10) 0.07123(11) 0.93403(10)
N2_101 N 0.11246(12) 0.04684(12) 0.92312(11)
N3_101 N 0.13143(15) 0.04930(11) 0.99863(10)
N4_101 N 0.14163(14) 0.02607(10) 0.98661(10)
N11_101 N 0.07964(10) 0.06289(10) 0.90005(10)
N12_101 N 0.05980(10) 0.06577(11) 0.88099(10)
C3_101 C 0.09712(14) 0.04286(14) 0.90271(13)
H3_101 H 0.0981 0.0277 0.8912
C4_101 C 0.08506(13) 0.08027(14) 0.91995(13)
H4_101 H 0.0759 0.0967 0.9231
C7_101 C 0.03449(14) 0.05866(19) 0.88347(16)
H7_101 H 0.0268 0.0510 0.8991
C8_101 C 0.06308(12) 0.07619(15) 0.85573(13)
H8_101 H 0.0793 0.0829 0.8484
N13_53 N 0.08619(11) 0.11300(12) 0.98278(15)
N14_49 N 0.16168(9) 0.10922(10) 0.98328(11)
N5_53 N 0.11300(12) 0.98278(15) 0.08619(11)
N6_57 N 0.14078(10) 0.98328(11) 0.08832(9)
H1_101 H 0.1463 0.9891 0.0004
C5_101 C 0.10804(16) 0.9941(2) 0.06337(14)
H5_101 H 0.0905 0.9961 0.0561
C6_101 C 0.15007(14) 0.99496(14) 0.06703(11)
H6_101 H 0.1686 0.9976 0.0634
Ag5_34 Ag 0.162650(9) 0.971611(10) 0.125951(9)
Ag6_32 Ag 0.087350(9) 0.971611(10) 0.124049(9)
Ag2_44 Ag 0.374049(9) 0.028389(10) 0.837350(9)
N1_102 N 0.35455(10) 0.06597(10) 0.82123(11)
N2_102 N 0.36246(12) 0.07688(11) 0.79684(12)
N3_102 N 0.38143(15) 0.00137(10) 0.79930(11)
N4_102 N 0.39163(14) 0.01339(10) 0.77607(10)
N11_102 N 0.32964(10) 0.09995(10) 0.81289(10)
N12_102 N 0.30980(10) 0.11901(10) 0.81577(11)
C3_102 C 0.34712(14) 0.09729(13) 0.79286(14)
H3_102 H 0.3481 0.1088 0.7777
C4_102 C 0.33506(13) 0.08005(13) 0.83027(14)
H4_102 H 0.3259 0.0769 0.8467
C7_102 C 0.28449(14) 0.11653(16) 0.80866(19)
H7_102 H 0.2768 0.1009 0.8010
C8_102 C 0.31308(12) 0.14427(13) 0.82619(15)
H8_102 H 0.3293 0.1516 0.8329
N13_54 N 0.33619(11) 0.01722(15) 0.86300(12)
N14_50 N 0.41168(9) 0.01672(11) 0.85922(10)
N5_54 N 0.36300(12) 0.91381(11) 0.73278(15)
N6_58 N 0.39078(10) 0.91168(9) 0.73328(11)
N9_94 N 0.38220(13) 0.97252(9) 0.76637(11)
N10_94 N 0.38045(12) 0.94883(9) 0.75268(11)
C1_94 C 0.39113(18) 0.99616(12) 0.75707(13)
H1_102 H 0.3963 0.9996 0.7391
C2_94 C 0.37669(18) 0.97624(12) 0.79263(14)
H2_94 H 0.3703 0.9628 0.8045
C5_102 C 0.35804(16) 0.93663(14) 0.7441(2)
H5_102 H 0.3405 0.9439 0.7461
C6_102 C 0.40007(14) 0.93297(11) 0.74496(14)
H6_102 H 0.4186 0.9366 0.7476
Ag5_35 Ag 0.412650(9) 0.874049(9) 0.721611(10)
Ag6_33 Ag 0.337350(9) 0.875951(9) 0.721611(10)
N1_103 N 0.10455(10) 0.17877(11) 0.31597(10)
N2_103 N 0.11246(12) 0.20316(12) 0.32688(11)
N3_103 N 0.13143(15) 0.20070(11) 0.25137(10)
N4_103 N 0.14163(14) 0.22393(10) 0.26339(10)
N5_55 N 0.11300(12) 0.26722(15) 0.16381(11)
N6_59 N 0.14078(10) 0.26672(11) 0.16168(9)
N9_95 N 0.13220(13) 0.23363(11) 0.22252(9)
N10_95 N 0.13045(12) 0.24732(11) 0.19883(9)
N11_103 N 0.07964(10) 0.18711(10) 0.34995(10)
N12_103 N 0.05980(10) 0.18423(11) 0.36901(10)
C1_95 C 0.14113(18) 0.24293(13) 0.24616(12)
H1_103 H 0.1463 0.2609 0.2496
C2_95 C 0.12669(18) 0.20737(14) 0.22624(12)
H2_95 H 0.1203 0.1955 0.2128
C3_103 C 0.09712(14) 0.20714(14) 0.34729(13)
H3_103 H 0.0981 0.2223 0.3588
C4_103 C 0.08506(13) 0.16973(14) 0.33005(13)
H4_103 H 0.0759 0.1533 0.3269
C5_103 C 0.10804(16) 0.2559(2) 0.18663(14)
H5_103 H 0.0905 0.2539 0.1939
C6_103 C 0.15007(14) 0.25504(14) 0.18297(11)
H6_103 H 0.1686 0.2524 0.1866
C7_103 C 0.03449(14) 0.19134(19) 0.36653(16)
H7_103 H 0.0268 0.1990 0.3509
C8_103 C 0.06308(12) 0.17381(15) 0.39427(13)
H8_103 H 0.0793 0.1671 0.4016
Ag5_36 Ag 0.162650(9) 0.278389(10) 0.124049(9)
Ag6_34 Ag 0.087350(9) 0.278389(10) 0.125951(9)
N13_55 N 0.08619(11) 0.13700(12) 0.26722(15)
N5_56 N 0.76722(15) 0.08619(11) 0.63700(12)
N6_60 N 0.76672(11) 0.08832(9) 0.60922(10)
N9_96 N 0.73363(11) 0.02748(9) 0.61780(13)
N10_96 N 0.74732(11) 0.05117(9) 0.61955(12)
C1_96 C 0.74293(13) 0.00384(12) 0.60887(18)
H1_104 H 0.7609 0.0004 0.6037
C2_96 C 0.70737(14) 0.02376(12) 0.62331(18)
H2_96 H 0.6955 0.0372 0.6297
C5_104 C 0.7559(2) 0.06337(14) 0.64196(16)
H5_104 H 0.7539 0.0561 0.6595
C6_104 C 0.75504(14) 0.06703(11) 0.59993(14)
H6_104 H 0.7524 0.0634 0.5814
Ag5_37 Ag 0.778389(10) 0.125951(9) 0.587350(9)
Ag6_35 Ag 0.778389(10) 0.124049(9) 0.662650(9)
Ag2_45 Ag 0.662650(9) 0.971611(10) 0.625951(9)
N1_104 N 0.67877(11) 0.93403(10) 0.64545(10)
N2_104 N 0.70316(12) 0.92312(11) 0.63754(12)
N3_104 N 0.70070(11) 0.99863(10) 0.61857(15)
N4_104 N 0.72393(10) 0.98661(10) 0.60837(14)
N11_104 N 0.68711(10) 0.90005(10) 0.67036(10)
N12_104 N 0.68423(11) 0.88099(10) 0.69020(10)
C3_104 C 0.70714(14) 0.90271(13) 0.65288(14)
H3_104 H 0.7223 0.8912 0.6519
C4_104 C 0.66973(14) 0.91995(13) 0.66494(13)
H4_104 H 0.6533 0.9231 0.6741
C7_104 C 0.69134(19) 0.88347(16) 0.71551(14)
H7_104 H 0.6990 0.8991 0.7232
C8_104 C 0.67381(15) 0.85573(13) 0.68692(12)
H8_104 H 0.6671 0.8484 0.6707
N13_56 N 0.63700(12) 0.98278(15) 0.66381(11)
N14_51 N 0.64078(10) 0.98328(11) 0.58832(9)
Ag2_46 Ag 0.375951(9) 0.721611(10) 0.837350(9)
N1_105 N 0.39545(10) 0.68403(10) 0.82123(11)
N2_105 N 0.38754(12) 0.67312(11) 0.79684(12)
N3_105 N 0.36857(15) 0.74863(10) 0.79930(11)
N4_105 N 0.35837(14) 0.73661(10) 0.77607(10)
N5_57 N 0.38700(12) 0.83619(11) 0.73278(15)
N6_61 N 0.35922(10) 0.83832(9) 0.73328(11)
N9_97 N 0.36780(13) 0.77748(9) 0.76637(11)
N10_97 N 0.36955(12) 0.80117(9) 0.75268(11)
N11_105 N 0.42036(10) 0.65005(10) 0.81289(10)
N12_105 N 0.44020(10) 0.63099(10) 0.81577(11)
C1_97 C 0.35887(18) 0.75384(12) 0.75707(13)
H1_105 H 0.3537 0.7504 0.7391
C2_97 C 0.37331(18) 0.77376(12) 0.79263(14)
H2_97 H 0.3797 0.7872 0.8045
C3_105 C 0.40288(14) 0.65271(13) 0.79286(14)
H3_105 H 0.4019 0.6412 0.7777
C4_105 C 0.41494(13) 0.66995(13) 0.83027(14)
H4_105 H 0.4241 0.6731 0.8467
C5_105 C 0.39196(16) 0.81337(14) 0.7441(2)
H5_105 H 0.4095 0.8061 0.7461
C6_105 C 0.34993(14) 0.81703(11) 0.74496(14)
H6_105 H 0.3314 0.8134 0.7476
C7_105 C 0.46551(14) 0.63347(16) 0.80866(19)
H7_105 H 0.4732 0.6491 0.8010
C8_105 C 0.43692(12) 0.60573(13) 0.82619(15)
H8_105 H 0.4207 0.5984 0.8329
N13_57 N 0.41381(11) 0.73278(15) 0.86300(12)
N14_52 N 0.33832(9) 0.73328(11) 0.85922(10)
Ag2_47 Ag 0.087350(9) 0.471611(10) 0.624049(9)
N1_106 N 0.07123(11) 0.43403(10) 0.60455(10)
N2_106 N 0.04684(12) 0.42312(11) 0.61246(12)
N3_106 N 0.04930(11) 0.49863(10) 0.63143(15)
N4_106 N 0.02607(10) 0.48661(10) 0.64163(14)
N9_98 N 0.01637(11) 0.52748(9) 0.63220(13)
N10_98 N 0.00268(11) 0.55117(9) 0.63045(12)
N11_106 N 0.06289(10) 0.40005(10) 0.57964(10)
N12_106 N 0.06577(11) 0.38099(10) 0.55980(10)
C1_98 C 0.00707(13) 0.50384(12) 0.64113(18)
C2_98 C 0.04263(14) 0.52376(12) 0.62669(18)
H2_98 H 0.0545 0.5372 0.6203
C3_106 C 0.04286(14) 0.40271(13) 0.59712(14)
H3_106 H 0.0277 0.3912 0.5981
C4_106 C 0.08027(14) 0.41995(13) 0.58506(13)
H4_106 H 0.0967 0.4231 0.5759
C7_106 C 0.05866(19) 0.38347(16) 0.53449(14)
H7_106 H 0.0510 0.3991 0.5268
C8_106 C 0.07619(15) 0.35573(13) 0.56308(12)
H8_106 H 0.0829 0.3484 0.5793
N13_58 N 0.11300(12) 0.48278(15) 0.58619(11)
N14_53 N 0.10922(10) 0.48328(11) 0.66168(9)
N5_58 N 0.98278(15) 0.58619(11) 0.61300(12)
N6_62 N 0.98328(11) 0.58832(9) 0.64078(10)
H1_106 H 0.9891 0.5004 0.6463
C5_106 C 0.9941(2) 0.56337(14) 0.60804(16)
H5_106 H 0.9961 0.5561 0.5905
C6_106 C 0.99496(14) 0.56703(11) 0.65007(14)
H6_106 H 0.9976 0.5634 0.6686
Ag5_38 Ag 0.971611(10) 0.625951(9) 0.662650(9)
Ag6_36 Ag 0.971611(10) 0.624049(9) 0.587350(9)
N5_59 N 0.01722(15) 0.36300(12) 0.83619(11)
N6_63 N 0.01672(11) 0.39078(10) 0.83832(9)
H1_107 H 0.0109 0.3963 0.7504
C5_107 C 0.0059(2) 0.35804(16) 0.81337(14)
H5_107 H 0.0039 0.3405 0.8061
C6_107 C 0.00504(14) 0.40007(14) 0.81703(11)
H6_107 H 0.0024 0.4186 0.8134
Ag5_39 Ag 0.028389(10) 0.412650(9) 0.875951(9)
Ag6_37 Ag 0.028389(10) 0.337350(9) 0.874049(9)
Ag2_48 Ag 0.912650(9) 0.374049(9) 0.721611(10)
N1_107 N 0.92877(11) 0.35455(10) 0.68403(10)
N2_107 N 0.95316(12) 0.36246(12) 0.67312(11)
N3_107 N 0.95070(11) 0.38143(15) 0.74863(10)
N4_107 N 0.97393(10) 0.39163(14) 0.73661(10)
N9_99 N 0.98363(11) 0.38220(13) 0.77748(9)
N10_99 N 0.99732(11) 0.38045(12) 0.80117(9)
N11_107 N 0.93711(10) 0.32964(10) 0.65005(10)
N12_107 N 0.93423(11) 0.30980(10) 0.63099(10)
C1_99 C 0.99293(13) 0.39113(18) 0.75384(12)
C2_99 C 0.95737(14) 0.37669(18) 0.77376(12)
H2_99 H 0.9455 0.3703 0.7872
C3_107 C 0.95714(14) 0.34712(14) 0.65271(13)
H3_107 H 0.9723 0.3481 0.6412
C4_107 C 0.91973(14) 0.33506(13) 0.66995(13)
H4_107 H 0.9033 0.3259 0.6731
C7_107 C 0.94134(19) 0.28449(14) 0.63347(16)
H7_107 H 0.9490 0.2768 0.6491
C8_107 C 0.92381(15) 0.31308(12) 0.60573(13)
H8_107 H 0.9171 0.3293 0.5984
N13_59 N 0.88700(12) 0.33619(11) 0.73278(15)
N14_54 N 0.89078(10) 0.41168(9) 0.73328(11)
N5_60 N 0.83619(11) 0.01722(15) 0.36300(12)
N6_64 N 0.83832(9) 0.01672(11) 0.39078(10)
H1_108 H 0.7504 0.0109 0.3963
C5_108 C 0.81337(14) 0.0059(2) 0.35804(16)
H5_108 H 0.8061 0.0039 0.3405
C6_108 C 0.81703(11) 0.00504(14) 0.40007(14)
H6_108 H 0.8134 0.0024 0.4186
Ag5_40 Ag 0.875951(9) 0.028389(10) 0.412650(9)
Ag6_38 Ag 0.874049(9) 0.028389(10) 0.337350(9)
Ag2_49 Ag 0.721611(10) 0.912650(9) 0.374049(9)
N1_108 N 0.68403(10) 0.92877(11) 0.35455(10)
N2_108 N 0.67312(11) 0.95316(12) 0.36246(12)
N3_108 N 0.74863(10) 0.95070(11) 0.38143(15)
N4_108 N 0.73661(10) 0.97393(10) 0.39163(14)
N9_100 N 0.77748(9) 0.98363(11) 0.38220(13)
N10_100 N 0.80117(9) 0.99732(11) 0.38045(12)
N11_108 N 0.65005(10) 0.93711(10) 0.32964(10)
N12_108 N 0.63099(10) 0.93423(11) 0.30980(10)
C1_100 C 0.75384(12) 0.99293(13) 0.39113(18)
C2_100 C 0.77376(12) 0.95737(14) 0.37669(18)
H2_100 H 0.7872 0.9455 0.3703
C3_108 C 0.65271(13) 0.95714(14) 0.34712(14)
H3_108 H 0.6412 0.9723 0.3481
C4_108 C 0.66995(13) 0.91973(14) 0.33506(13)
H4_108 H 0.6731 0.9033 0.3259
C7_108 C 0.63347(16) 0.94134(19) 0.28449(14)
H7_108 H 0.6491 0.9490 0.2768
C8_108 C 0.60573(13) 0.92381(15) 0.31308(12)
H8_108 H 0.5984 0.9171 0.3293
N13_60 N 0.73278(15) 0.88700(12) 0.33619(11)
N14_55 N 0.73328(11) 0.89078(10) 0.41168(9)
Ag2_50 Ag 0.028389(10) 0.837350(9) 0.374049(9)
N1_109 N 0.06597(10) 0.82123(11) 0.35455(10)
N2_109 N 0.07688(11) 0.79684(12) 0.36246(12)
N3_109 N 0.00137(10) 0.79930(11) 0.38143(15)
N4_109 N 0.01339(10) 0.77607(10) 0.39163(14)
N11_109 N 0.09995(10) 0.81289(10) 0.32964(10)
N12_109 N 0.11901(10) 0.81577(11) 0.30980(10)
C3_109 C 0.09729(13) 0.79286(14) 0.34712(14)
H3_109 H 0.1088 0.7777 0.3481
C4_109 C 0.08005(13) 0.83027(14) 0.33506(13)
H4_109 H 0.0769 0.8467 0.3259
C7_109 C 0.11653(16) 0.80866(19) 0.28449(14)
H7_109 H 0.1009 0.8010 0.2768
C8_109 C 0.14427(13) 0.82619(15) 0.31308(12)
H8_109 H 0.1516 0.8329 0.3293
N13_61 N 0.01722(15) 0.86300(12) 0.33619(11)
N14_56 N 0.01672(11) 0.85922(10) 0.41168(9)
N5_61 N 0.91381(11) 0.73278(15) 0.36300(12)
N6_65 N 0.91168(9) 0.73328(11) 0.39078(10)
N9_101 N 0.97252(9) 0.76637(11) 0.38220(13)
N10_101 N 0.94883(9) 0.75268(11) 0.38045(12)
C1_101 C 0.99616(12) 0.75707(13) 0.39113(18)
H1_109 H 0.9996 0.7391 0.3963
C2_101 C 0.97624(12) 0.79263(14) 0.37669(18)
H2_101 H 0.9628 0.8045 0.3703
C5_109 C 0.93663(14) 0.7441(2) 0.35804(16)
H5_109 H 0.9439 0.7461 0.3405
C6_109 C 0.93297(11) 0.74496(14) 0.40007(14)
H6_109 H 0.9366 0.7476 0.4186
Ag5_41 Ag 0.874049(9) 0.721611(10) 0.412650(9)
Ag6_39 Ag 0.875951(9) 0.721611(10) 0.337350(9)
N5_62 N 0.01722(15) 0.38700(12) 0.91381(11)
N6_66 N 0.01672(11) 0.35922(10) 0.91168(9)
H1_110 H 0.0109 0.3537 0.9996
C5_110 C 0.0059(2) 0.39196(16) 0.93663(14)
H5_110 H 0.0039 0.4095 0.9439
C6_110 C 0.00504(14) 0.34993(14) 0.93297(11)
H6_110 H 0.0024 0.3314 0.9366
Ag2_51 Ag 0.912650(9) 0.375951(9) 0.028389(10)
N1_110 N 0.92877(11) 0.39545(10) 0.06597(10)
N2_110 N 0.95316(12) 0.38754(12) 0.07688(11)
N3_110 N 0.95070(11) 0.36857(15) 0.00137(10)
N4_110 N 0.97393(10) 0.35837(14) 0.01339(10)
N11_110 N 0.93711(10) 0.42036(10) 0.09995(10)
N12_110 N 0.93423(11) 0.44020(10) 0.11901(10)
C3_110 C 0.95714(14) 0.40288(14) 0.09729(13)
H3_110 H 0.9723 0.4019 0.1088
C4_110 C 0.91973(14) 0.41494(13) 0.08005(13)
H4_110 H 0.9033 0.4241 0.0769
C7_110 C 0.94134(19) 0.46551(14) 0.11653(16)
H7_110 H 0.9490 0.4732 0.1009
C8_110 C 0.92381(15) 0.43692(12) 0.14427(13)
H8_110 H 0.9171 0.4207 0.1516
N13_62 N 0.88700(12) 0.41381(11) 0.01722(15)
N14_57 N 0.89078(10) 0.33832(9) 0.01672(11)
Ag2_52 Ag 0.028389(10) 0.912650(9) 0.375951(9)
N1_111 N 0.06597(10) 0.92877(11) 0.39545(10)
N2_111 N 0.07688(11) 0.95316(12) 0.38754(12)
N3_111 N 0.00137(10) 0.95070(11) 0.36857(15)
N4_111 N 0.01339(10) 0.97393(10) 0.35837(14)
N11_111 N 0.09995(10) 0.93711(10) 0.42036(10)
N12_111 N 0.11901(10) 0.93423(11) 0.44020(10)
C3_111 C 0.09729(13) 0.95714(14) 0.40288(14)
H3_111 H 0.1088 0.9723 0.4019
C4_111 C 0.08005(13) 0.91973(14) 0.41494(13)
H4_111 H 0.0769 0.9033 0.4241
C7_111 C 0.11653(16) 0.94134(19) 0.46551(14)
H7_111 H 0.1009 0.9490 0.4732
C8_111 C 0.14427(13) 0.92381(15) 0.43692(12)
H8_111 H 0.1516 0.9171 0.4207
N13_63 N 0.01722(15) 0.88700(12) 0.41381(11)
N14_58 N 0.01672(11) 0.89078(10) 0.33832(9)
N5_63 N 0.91381(11) 0.01722(15) 0.38700(12)
N6_67 N 0.91168(9) 0.01672(11) 0.35922(10)
H1_111 H 0.9996 0.0109 0.3537
C5_111 C 0.93663(14) 0.0059(2) 0.39196(16)
H5_111 H 0.9439 0.0039 0.4095
C6_111 C 0.93297(11) 0.00504(14) 0.34993(14)
H6_111 H 0.9366 0.0024 0.3314
Ag2_53 Ag 0.837350(9) 0.375951(9) 0.721611(10)
N1_112 N 0.82123(11) 0.39545(10) 0.68403(10)
N2_112 N 0.79684(12) 0.38754(12) 0.67312(11)
N3_112 N 0.79930(11) 0.36857(15) 0.74863(10)
N4_112 N 0.77607(10) 0.35837(14) 0.73661(10)
N5_64 N 0.73278(15) 0.38700(12) 0.83619(11)
N6_68 N 0.73328(11) 0.35922(10) 0.83832(9)
N9_102 N 0.76637(11) 0.36780(13) 0.77748(9)
N10_102 N 0.75268(11) 0.36955(12) 0.80117(9)
N11_112 N 0.81289(10) 0.42036(10) 0.65005(10)
N12_112 N 0.81577(11) 0.44020(10) 0.63099(10)
C1_102 C 0.75707(13) 0.35887(18) 0.75384(12)
H1_112 H 0.7391 0.3537 0.7504
C2_102 C 0.79263(14) 0.37331(18) 0.77376(12)
H2_102 H 0.8045 0.3797 0.7872
C3_112 C 0.79286(14) 0.40288(14) 0.65271(13)
H3_112 H 0.7777 0.4019 0.6412
C4_112 C 0.83027(14) 0.41494(13) 0.66995(13)
H4_112 H 0.8467 0.4241 0.6731
C5_112 C 0.7441(2) 0.39196(16) 0.81337(14)
H5_112 H 0.7461 0.4095 0.8061
C6_112 C 0.74496(14) 0.34993(14) 0.81703(11)
H6_112 H 0.7476 0.3314 0.8134
C7_112 C 0.80866(19) 0.46551(14) 0.63347(16)
H7_112 H 0.8010 0.4732 0.6491
C8_112 C 0.82619(15) 0.43692(12) 0.60573(13)
H8_112 H 0.8329 0.4207 0.5984
Ag5_42 Ag 0.721611(10) 0.337350(9) 0.875951(9)
Ag6_40 Ag 0.721611(10) 0.412650(9) 0.874049(9)
N13_64 N 0.86300(12) 0.41381(11) 0.73278(15)
N14_59 N 0.85922(10) 0.33832(9) 0.73328(11)
Ag2_54 Ag 0.837350(9) 0.374049(9) 0.028389(10)
N1_113 N 0.82123(11) 0.35455(10) 0.06597(10)
N2_113 N 0.79684(12) 0.36246(12) 0.07688(11)
N3_113 N 0.79930(11) 0.38143(15) 0.00137(10)
N4_113 N 0.77607(10) 0.39163(14) 0.01339(10)
N11_113 N 0.81289(10) 0.32964(10) 0.09995(10)
N12_113 N 0.81577(11) 0.30980(10) 0.11901(10)
C3_113 C 0.79286(14) 0.34712(14) 0.09729(13)
H3_113 H 0.7777 0.3481 0.1088
C4_113 C 0.83027(14) 0.33506(13) 0.08005(13)
H4_113 H 0.8467 0.3259 0.0769
C7_113 C 0.80866(19) 0.28449(14) 0.11653(16)
H7_113 H 0.8010 0.2768 0.1009
C8_113 C 0.82619(15) 0.31308(12) 0.14427(13)
H8_113 H 0.8329 0.3293 0.1516
N13_65 N 0.86300(12) 0.33619(11) 0.01722(15)
N14_60 N 0.85922(10) 0.41168(9) 0.01672(11)
N5_65 N 0.73278(15) 0.36300(12) 0.91381(11)
N6_69 N 0.73328(11) 0.39078(10) 0.91168(9)
N9_103 N 0.76637(11) 0.38220(13) 0.97252(9)
N10_103 N 0.75268(11) 0.38045(12) 0.94883(9)
C1_103 C 0.75707(13) 0.39113(18) 0.99616(12)
H1_113 H 0.7391 0.3963 0.9996
C2_103 C 0.79263(14) 0.37669(18) 0.97624(12)
H2_103 H 0.8045 0.3703 0.9628
C5_113 C 0.7441(2) 0.35804(16) 0.93663(14)
H5_113 H 0.7461 0.3405 0.9439
C6_113 C 0.74496(14) 0.40007(14) 0.93297(11)
H6_113 H 0.7476 0.4186 0.9366
Ag2_55 Ag 0.721611(10) 0.837350(9) 0.375951(9)
N1_114 N 0.68403(10) 0.82123(11) 0.39545(10)
N2_114 N 0.67312(11) 0.79684(12) 0.38754(12)
N3_114 N 0.74863(10) 0.79930(11) 0.36857(15)
N4_114 N 0.73661(10) 0.77607(10) 0.35837(14)
N5_66 N 0.83619(11) 0.73278(15) 0.38700(12)
N6_70 N 0.83832(9) 0.73328(11) 0.35922(10)
N9_104 N 0.77748(9) 0.76637(11) 0.36780(13)
N10_104 N 0.80117(9) 0.75268(11) 0.36955(12)
N11_114 N 0.65005(10) 0.81289(10) 0.42036(10)
N12_114 N 0.63099(10) 0.81577(11) 0.44020(10)
C1_104 C 0.75384(12) 0.75707(13) 0.35887(18)
H1_114 H 0.7504 0.7391 0.3537
C2_104 C 0.77376(12) 0.79263(14) 0.37331(18)
H2_104 H 0.7872 0.8045 0.3797
C3_114 C 0.65271(13) 0.79286(14) 0.40288(14)
H3_114 H 0.6412 0.7777 0.4019
C4_114 C 0.66995(13) 0.83027(14) 0.41494(13)
H4_114 H 0.6731 0.8467 0.4241
C5_114 C 0.81337(14) 0.7441(2) 0.39196(16)
H5_114 H 0.8061 0.7461 0.4095
C6_114 C 0.81703(11) 0.74496(14) 0.34993(14)
H6_114 H 0.8134 0.7476 0.3314
C7_114 C 0.63347(16) 0.80866(19) 0.46551(14)
H7_114 H 0.6491 0.8010 0.4732
C8_114 C 0.60573(13) 0.82619(15) 0.43692(12)
H8_114 H 0.5984 0.8329 0.4207
N13_66 N 0.73278(15) 0.86300(12) 0.41381(11)
N14_61 N 0.73328(11) 0.85922(10) 0.33832(9)
Ag2_56 Ag 0.471611(10) 0.624049(9) 0.087350(9)
N1_115 N 0.43403(10) 0.60455(10) 0.07123(11)
N2_115 N 0.42312(11) 0.61246(12) 0.04684(12)
N3_115 N 0.49863(10) 0.63143(15) 0.04930(11)
N4_115 N 0.48661(10) 0.64163(14) 0.02607(10)
N9_105 N 0.52748(9) 0.63220(13) 0.01637(11)
N10_105 N 0.55117(9) 0.63045(12) 0.00268(11)
N11_115 N 0.40005(10) 0.57964(10) 0.06289(10)
N12_115 N 0.38099(10) 0.55980(10) 0.06577(11)
C1_105 C 0.50384(12) 0.64113(18) 0.00707(13)
C2_105 C 0.52376(12) 0.62669(18) 0.04263(14)
H2_105 H 0.5372 0.6203 0.0545
C3_115 C 0.40271(13) 0.59712(14) 0.04286(14)
H3_115 H 0.3912 0.5981 0.0277
C4_115 C 0.41995(13) 0.58506(13) 0.08027(14)
H4_115 H 0.4231 0.5759 0.0967
C7_115 C 0.38347(16) 0.53449(14) 0.05866(19)
H7_115 H 0.3991 0.5268 0.0510
C8_115 C 0.35573(13) 0.56308(12) 0.07619(15)
H8_115 H 0.3484 0.5793 0.0829
N13_67 N 0.48278(15) 0.58619(11) 0.11300(12)
N14_62 N 0.48328(11) 0.66168(9) 0.10922(10)
N5_67 N 0.58619(11) 0.61300(12) 0.98278(15)
N6_71 N 0.58832(9) 0.64078(10) 0.98328(11)
H1_115 H 0.5004 0.6463 0.9891
C5_115 C 0.56337(14) 0.60804(16) 0.9941(2)
H5_115 H 0.5561 0.5905 0.9961
C6_115 C 0.56703(11) 0.65007(14) 0.99496(14)
H6_115 H 0.5634 0.6686 0.9976
Ag5_43 Ag 0.625951(9) 0.662650(9) 0.971611(10)
Ag6_41 Ag 0.624049(9) 0.587350(9) 0.971611(10)
Ag2_57 Ag 0.278389(10) 0.625951(9) 0.587350(9)
N1_116 N 0.31597(10) 0.64545(10) 0.57123(11)
N2_116 N 0.32688(11) 0.63754(12) 0.54684(12)
N3_116 N 0.25137(10) 0.61857(15) 0.54930(11)
N4_116 N 0.26339(10) 0.60837(14) 0.52607(10)
N5_68 N 0.16381(11) 0.63700(12) 0.48278(15)
N6_72 N 0.16168(9) 0.60922(10) 0.48328(11)
N9_106 N 0.22252(9) 0.61780(13) 0.51637(11)
N10_106 N 0.19883(9) 0.61955(12) 0.50268(11)
N11_116 N 0.34995(10) 0.67036(10) 0.56289(10)
N12_116 N 0.36901(10) 0.69020(10) 0.56577(11)
C1_106 C 0.24616(12) 0.60887(18) 0.50707(13)
H1_116 H 0.2496 0.6037 0.4891
C2_106 C 0.22624(12) 0.62331(18) 0.54263(14)
H2_106 H 0.2128 0.6297 0.5545
C3_116 C 0.34729(13) 0.65288(14) 0.54286(14)
H3_116 H 0.3588 0.6519 0.5277
C4_116 C 0.33005(13) 0.66494(13) 0.58027(14)
H4_116 H 0.3269 0.6741 0.5967
C5_116 C 0.18663(14) 0.64196(16) 0.4941(2)
H5_116 H 0.1939 0.6595 0.4961
C6_116 C 0.18297(11) 0.59993(14) 0.49496(14)
H6_116 H 0.1866 0.5814 0.4976
C7_116 C 0.36653(16) 0.71551(14) 0.55866(19)
H7_116 H 0.3509 0.7232 0.5510
C8_116 C 0.39427(13) 0.68692(12) 0.57619(15)
H8_116 H 0.4016 0.6707 0.5829
Ag5_44 Ag 0.124049(9) 0.587350(9) 0.471611(10)
Ag6_42 Ag 0.125951(9) 0.662650(9) 0.471611(10)
N13_68 N 0.26722(15) 0.66381(11) 0.61300(12)
N14_63 N 0.26672(11) 0.58832(9) 0.60922(10)
N5_69 N 0.63700(12) 0.76722(15) 0.08619(11)
N6_73 N 0.60922(10) 0.76672(11) 0.08832(9)
N9_107 N 0.61780(13) 0.73363(11) 0.02748(9)
N10_107 N 0.61955(12) 0.74732(11) 0.05117(9)
C1_107 C 0.60887(18) 0.74293(13) 0.00384(12)
H1_117 H 0.6037 0.7609 0.0004
C2_107 C 0.62331(18) 0.70737(14) 0.02376(12)
H2_107 H 0.6297 0.6955 0.0372
C5_117 C 0.64196(16) 0.7559(2) 0.06337(14)
H5_117 H 0.6595 0.7539 0.0561
C6_117 C 0.59993(14) 0.75504(14) 0.06703(11)
H6_117 H 0.5814 0.7524 0.0634
Ag5_45 Ag 0.587350(9) 0.778389(10) 0.125951(9)
Ag6_43 Ag 0.662650(9) 0.778389(10) 0.124049(9)
N1_117 N 0.64545(10) 0.67877(11) 0.93403(10)
N2_117 N 0.63754(12) 0.70316(12) 0.92312(11)
N3_117 N 0.61857(15) 0.70070(11) 0.99863(10)
N4_117 N 0.60837(14) 0.72393(10) 0.98661(10)
N11_117 N 0.67036(10) 0.68711(10) 0.90005(10)
N12_117 N 0.69020(10) 0.68423(11) 0.88099(10)
C3_117 C 0.65288(14) 0.70714(14) 0.90271(13)
H3_117 H 0.6519 0.7223 0.8912
C4_117 C 0.66494(13) 0.66973(14) 0.91995(13)
H4_117 H 0.6741 0.6533 0.9231
C7_117 C 0.71551(14) 0.69134(19) 0.88347(16)
H7_117 H 0.7232 0.6990 0.8991
C8_117 C 0.68692(12) 0.67381(15) 0.85573(13)
H8_117 H 0.6707 0.6671 0.8484
N13_69 N 0.66381(11) 0.63700(12) 0.98278(15)
Ag2_58 Ag 0.625951(9) 0.087350(9) 0.778389(10)
N1_118 N 0.64545(10) 0.07123(11) 0.81597(10)
N2_118 N 0.63754(12) 0.04684(12) 0.82688(11)
N3_118 N 0.61857(15) 0.04930(11) 0.75137(10)
N4_118 N 0.60837(14) 0.02607(10) 0.76339(10)
N9_108 N 0.61780(13) 0.01637(11) 0.72252(9)
N10_108 N 0.61955(12) 0.00268(11) 0.69883(9)
N11_118 N 0.67036(10) 0.06289(10) 0.84995(10)
N12_118 N 0.69020(10) 0.06577(11) 0.86901(10)
C1_108 C 0.60887(18) 0.00707(13) 0.74616(12)
C2_108 C 0.62331(18) 0.04263(14) 0.72624(12)
H2_108 H 0.6297 0.0545 0.7128
C3_118 C 0.65288(14) 0.04286(14) 0.84729(13)
H3_118 H 0.6519 0.0277 0.8588
C4_118 C 0.66494(13) 0.08027(14) 0.83005(13)
H4_118 H 0.6741 0.0967 0.8269
C7_118 C 0.71551(14) 0.05866(19) 0.86653(16)
H7_118 H 0.7232 0.0510 0.8509
C8_118 C 0.68692(12) 0.07619(15) 0.89427(13)
H8_118 H 0.6707 0.0829 0.9016
N13_70 N 0.66381(11) 0.11300(12) 0.76722(15)
N14_64 N 0.58832(9) 0.10922(10) 0.76672(11)
N6_74 N 0.60922(10) 0.98328(11) 0.66168(9)
H1_118 H 0.6037 0.9891 0.7496
C5_118 C 0.64196(16) 0.9941(2) 0.68663(14)
H5_118 H 0.6595 0.9961 0.6939
C6_118 C 0.59993(14) 0.99496(14) 0.68297(11)
H6_118 H 0.5814 0.9976 0.6866
Ag5_46 Ag 0.587350(9) 0.971611(10) 0.624049(9)
Ag2_59 Ag 0.662650(9) 0.278389(10) 0.624049(9)
N1_119 N 0.67877(11) 0.31597(10) 0.60455(10)
N2_119 N 0.70316(12) 0.32688(11) 0.61246(12)
N3_119 N 0.70070(11) 0.25137(10) 0.63143(15)
N4_119 N 0.72393(10) 0.26339(10) 0.64163(14)
N5_70 N 0.76722(15) 0.16381(11) 0.61300(12)
N6_75 N 0.76672(11) 0.16168(9) 0.64078(10)
N9_109 N 0.73363(11) 0.22252(9) 0.63220(13)
N10_109 N 0.74732(11) 0.19883(9) 0.63045(12)
N11_119 N 0.68711(10) 0.34995(10) 0.57964(10)
N12_119 N 0.68423(11) 0.36901(10) 0.55980(10)
C1_109 C 0.74293(13) 0.24616(12) 0.64113(18)
H1_119 H 0.7609 0.2496 0.6463
C2_109 C 0.70737(14) 0.22624(12) 0.62669(18)
H2_109 H 0.6955 0.2128 0.6203
C3_119 C 0.70714(14) 0.34729(13) 0.59712(14)
H3_119 H 0.7223 0.3588 0.5981
C4_119 C 0.66973(14) 0.33005(13) 0.58506(13)
H4_119 H 0.6533 0.3269 0.5759
C5_119 C 0.7559(2) 0.18663(14) 0.60804(16)
H5_119 H 0.7539 0.1939 0.5905
C6_119 C 0.75504(14) 0.18297(11) 0.65007(14)
H6_119 H 0.7524 0.1866 0.6686
C7_119 C 0.69134(19) 0.36653(16) 0.53449(14)
H7_119 H 0.6990 0.3509 0.5268
C8_119 C 0.67381(15) 0.39427(13) 0.56308(12)
H8_119 H 0.6671 0.4016 0.5793
N13_71 N 0.63700(12) 0.26722(15) 0.58619(11)
N14_65 N 0.64078(10) 0.26672(11) 0.66168(9)
N1_120 N 0.07123(11) 0.31597(10) 0.14545(10)
N2_120 N 0.04684(12) 0.32688(11) 0.13754(12)
N3_120 N 0.04930(11) 0.25137(10) 0.11857(15)
N4_120 N 0.02607(10) 0.26339(10) 0.10837(14)
N9_110 N 0.01637(11) 0.22252(9) 0.11780(13)
N10_110 N 0.00268(11) 0.19883(9) 0.11955(12)
N11_120 N 0.06289(10) 0.34995(10) 0.17036(10)
N12_120 N 0.06577(11) 0.36901(10) 0.19020(10)
C1_110 C 0.00707(13) 0.24616(12) 0.10887(18)
C2_110 C 0.04263(14) 0.22624(12) 0.12331(18)
H2_110 H 0.0545 0.2128 0.1297
C3_120 C 0.04286(14) 0.34729(13) 0.15288(14)
H3_120 H 0.0277 0.3588 0.1519
C4_120 C 0.08027(14) 0.33005(13) 0.16494(13)
H4_120 H 0.0967 0.3269 0.1741
C7_120 C 0.05866(19) 0.36653(16) 0.21551(14)
H7_120 H 0.0510 0.3509 0.2232
C8_120 C 0.07619(15) 0.39427(13) 0.18692(12)
H8_120 H 0.0829 0.4016 0.1707
N14_66 N 0.10922(10) 0.26672(11) 0.08832(9)
N5_71 N 0.98278(15) 0.16381(11) 0.13700(12)
N6_76 N 0.98328(11) 0.16168(9) 0.10922(10)
H1_120 H 0.9891 0.2496 0.1037
C5_120 C 0.9941(2) 0.18663(14) 0.14196(16)
H5_120 H 0.9961 0.1939 0.1595
C6_120 C 0.99496(14) 0.18297(11) 0.09993(14)
H6_120 H 0.9976 0.1866 0.0814
Ag5_47 Ag 0.971611(10) 0.124049(9) 0.087350(9)
Ag6_44 Ag 0.971611(10) 0.125951(9) 0.162650(9)
Ag2_60 Ag 0.374049(9) 0.221611(10) 0.412650(9)
N1_121 N 0.35455(10) 0.18403(10) 0.42877(11)
N2_121 N 0.36246(12) 0.17312(11) 0.45316(12)
N3_121 N 0.38143(15) 0.24863(10) 0.45070(11)
N4_121 N 0.39163(14) 0.23661(10) 0.47393(10)
N5_72 N 0.36300(12) 0.33619(11) 0.51722(15)
N6_77 N 0.39078(10) 0.33832(9) 0.51672(11)
N9_111 N 0.38220(13) 0.27748(9) 0.48363(11)
N10_111 N 0.38045(12) 0.30117(9) 0.49732(11)
N11_121 N 0.32964(10) 0.15005(10) 0.43711(10)
N12_121 N 0.30980(10) 0.13099(10) 0.43423(11)
C1_111 C 0.39113(18) 0.25384(12) 0.49293(13)
H1_121 H 0.3963 0.2504 0.5109
C2_111 C 0.37669(18) 0.27376(12) 0.45737(14)
H2_111 H 0.3703 0.2872 0.4455
C3_121 C 0.34712(14) 0.15271(13) 0.45714(14)
H3_121 H 0.3481 0.1412 0.4723
C4_121 C 0.33506(13) 0.16995(13) 0.41973(14)
H4_121 H 0.3259 0.1731 0.4033
C5_121 C 0.35804(16) 0.31337(14) 0.5059(2)
H5_121 H 0.3405 0.3061 0.5039
C6_121 C 0.40007(14) 0.31703(11) 0.50504(14)
H6_121 H 0.4186 0.3134 0.5024
C7_121 C 0.28449(14) 0.13347(16) 0.44134(19)
H7_121 H 0.2768 0.1491 0.4490
C8_121 C 0.31308(12) 0.10573(13) 0.42381(15)
H8_121 H 0.3293 0.0984 0.4171
Ag5_48 Ag 0.412650(9) 0.375951(9) 0.528389(10)
Ag6_45 Ag 0.337350(9) 0.374049(9) 0.528389(10)
N13_72 N 0.33619(11) 0.23278(15) 0.38700(12)
N14_67 N 0.41168(9) 0.23328(11) 0.39078(10)
Ag2_61 Ag 0.278389(10) 0.624049(9) 0.662650(9)
N1_122 N 0.31597(10) 0.60455(10) 0.67877(11)
N2_122 N 0.32688(11) 0.61246(12) 0.70316(12)
N3_122 N 0.25137(10) 0.63143(15) 0.70070(11)
N4_122 N 0.26339(10) 0.64163(14) 0.72393(10)
N5_73 N 0.16381(11) 0.61300(12) 0.76722(15)
N6_78 N 0.16168(9) 0.64078(10) 0.76672(11)
N9_112 N 0.22252(9) 0.63220(13) 0.73363(11)
N10_112 N 0.19883(9) 0.63045(12) 0.74732(11)
N11_122 N 0.34995(10) 0.57964(10) 0.68711(10)
N12_122 N 0.36901(10) 0.55980(10) 0.68423(11)
C1_112 C 0.24616(12) 0.64113(18) 0.74293(13)
H1_122 H 0.2496 0.6463 0.7609
C2_112 C 0.22624(12) 0.62669(18) 0.70737(14)
H2_112 H 0.2128 0.6203 0.6955
C3_122 C 0.34729(13) 0.59712(14) 0.70714(14)
H3_122 H 0.3588 0.5981 0.7223
C4_122 C 0.33005(13) 0.58506(13) 0.66973(14)
H4_122 H 0.3269 0.5759 0.6533
C5_122 C 0.18663(14) 0.60804(16) 0.7559(2)
H5_122 H 0.1939 0.5905 0.7539
C6_122 C 0.18297(11) 0.65007(14) 0.75504(14)
H6_122 H 0.1866 0.6686 0.7524
C7_122 C 0.36653(16) 0.53449(14) 0.69134(19)
H7_122 H 0.3509 0.5268 0.6990
C8_122 C 0.39427(13) 0.56308(12) 0.67381(15)
H8_122 H 0.4016 0.5793 0.6671
Ag5_49 Ag 0.124049(9) 0.662650(9) 0.778389(10)
Ag6_46 Ag 0.125951(9) 0.587350(9) 0.778389(10)
N13_73 N 0.26722(15) 0.58619(11) 0.63700(12)
N14_68 N 0.26672(11) 0.66168(9) 0.64078(10)
Ag2_62 Ag 0.375951(9) 0.528389(10) 0.412650(9)
N1_123 N 0.39545(10) 0.56597(10) 0.42877(11)
N2_123 N 0.38754(12) 0.57688(11) 0.45316(12)
N3_123 N 0.36857(15) 0.50137(10) 0.45070(11)
N4_123 N 0.35837(14) 0.51339(10) 0.47393(10)
N5_74 N 0.38700(12) 0.41381(11) 0.51722(15)
N6_79 N 0.35922(10) 0.41168(9) 0.51672(11)
N9_113 N 0.36780(13) 0.47252(9) 0.48363(11)
N10_113 N 0.36955(12) 0.44883(9) 0.49732(11)
N11_123 N 0.42036(10) 0.59995(10) 0.43711(10)
N12_123 N 0.44020(10) 0.61901(10) 0.43423(11)
C1_113 C 0.35887(18) 0.49616(12) 0.49293(13)
H1_123 H 0.3537 0.4996 0.5109
C2_113 C 0.37331(18) 0.47624(12) 0.45737(14)
H2_113 H 0.3797 0.4628 0.4455
C3_123 C 0.40288(14) 0.59729(13) 0.45714(14)
H3_123 H 0.4019 0.6088 0.4723
C4_123 C 0.41494(13) 0.58005(13) 0.41973(14)
H4_123 H 0.4241 0.5769 0.4033
C5_123 C 0.39196(16) 0.43663(14) 0.5059(2)
H5_123 H 0.4095 0.4439 0.5039
C6_123 C 0.34993(14) 0.43297(11) 0.50504(14)
H6_123 H 0.3314 0.4366 0.5024
C7_123 C 0.46551(14) 0.61653(16) 0.44134(19)
H7_123 H 0.4732 0.6009 0.4490
C8_123 C 0.43692(12) 0.64427(13) 0.42381(15)
H8_123 H 0.4207 0.6516 0.4171
N13_74 N 0.41381(11) 0.51722(15) 0.38700(12)
N14_69 N 0.33832(9) 0.51672(11) 0.39078(10)
Ag2_63 Ag 0.471611(10) 0.125951(9) 0.662650(9)
N1_124 N 0.43403(10) 0.14545(10) 0.67877(11)
N2_124 N 0.42312(11) 0.13754(12) 0.70316(12)
N3_124 N 0.49863(10) 0.11857(15) 0.70070(11)
N4_124 N 0.48661(10) 0.10837(14) 0.72393(10)
N5_75 N 0.58619(11) 0.13700(12) 0.76722(15)
N9_114 N 0.52748(9) 0.11780(13) 0.73363(11)
N10_114 N 0.55117(9) 0.11955(12) 0.74732(11)
N11_124 N 0.40005(10) 0.17036(10) 0.68711(10)
N12_124 N 0.38099(10) 0.19020(10) 0.68423(11)
C1_114 C 0.50384(12) 0.10887(18) 0.74293(13)
H1_124 H 0.5004 0.1037 0.7609
C2_114 C 0.52376(12) 0.12331(18) 0.70737(14)
H2_114 H 0.5372 0.1297 0.6955
C3_124 C 0.40271(13) 0.15288(14) 0.70714(14)
H3_124 H 0.3912 0.1519 0.7223
C4_124 C 0.41995(13) 0.16494(13) 0.66973(14)
H4_124 H 0.4231 0.1741 0.6533
C5_124 C 0.56337(14) 0.14196(16) 0.7559(2)
H5_124 H 0.5561 0.1595 0.7539
C6_124 C 0.56703(11) 0.09993(14) 0.75504(14)
H6_124 H 0.5634 0.0814 0.7524
C7_124 C 0.38347(16) 0.21551(14) 0.69134(19)
H7_124 H 0.3991 0.2232 0.6990
C8_124 C 0.35573(13) 0.18692(12) 0.67381(15)
H8_124 H 0.3484 0.1707 0.6671
Ag6_47 Ag 0.624049(9) 0.162650(9) 0.778389(10)
N13_75 N 0.48278(15) 0.16381(11) 0.63700(12)
N14_70 N 0.48328(11) 0.08832(9) 0.64078(10)
N1_125 N 0.10455(10) 0.57123(11) 0.43403(10)
N2_125 N 0.11246(12) 0.54684(12) 0.42312(11)
N3_125 N 0.13143(15) 0.54930(11) 0.49863(10)
N4_125 N 0.14163(14) 0.52607(10) 0.48661(10)
N6_80 N 0.14078(10) 0.48328(11) 0.58832(9)
N9_115 N 0.13220(13) 0.51637(11) 0.52748(9)
N10_115 N 0.13045(12) 0.50268(11) 0.55117(9)
N11_125 N 0.07964(10) 0.56289(10) 0.40005(10)
N12_125 N 0.05980(10) 0.56577(11) 0.38099(10)
C1_115 C 0.14113(18) 0.50707(13) 0.50384(12)
H1_125 H 0.1463 0.4891 0.5004
C2_115 C 0.12669(18) 0.54263(14) 0.52376(12)
H2_115 H 0.1203 0.5545 0.5372
C3_125 C 0.09712(14) 0.54286(14) 0.40271(13)
H3_125 H 0.0981 0.5277 0.3912
C4_125 C 0.08506(13) 0.58027(14) 0.41995(13)
H4_125 H 0.0759 0.5967 0.4231
C5_125 C 0.10804(16) 0.4941(2) 0.56337(14)
H5_125 H 0.0905 0.4961 0.5561
C6_125 C 0.15007(14) 0.49496(14) 0.56703(11)
H6_125 H 0.1686 0.4976 0.5634
C7_125 C 0.03449(14) 0.55866(19) 0.38347(16)
H7_125 H 0.0268 0.5510 0.3991
C8_125 C 0.06308(12) 0.57619(15) 0.35573(13)
H8_125 H 0.0793 0.5829 0.3484
Ag5_50 Ag 0.162650(9) 0.471611(10) 0.625951(9)
N13_76 N 0.08619(11) 0.61300(12) 0.48278(15)
Ag2_64 Ag 0.374049(9) 0.528389(10) 0.337350(9)
N1_126 N 0.35455(10) 0.56597(10) 0.32123(11)
N2_126 N 0.36246(12) 0.57688(11) 0.29684(12)
N3_126 N 0.38143(15) 0.50137(10) 0.29930(11)
N4_126 N 0.39163(14) 0.51339(10) 0.27607(10)
N5_76 N 0.36300(12) 0.41381(11) 0.23278(15)
N6_81 N 0.39078(10) 0.41168(9) 0.23328(11)
N9_116 N 0.38220(13) 0.47252(9) 0.26637(11)
N10_116 N 0.38045(12) 0.44883(9) 0.25268(11)
N11_126 N 0.32964(10) 0.59995(10) 0.31289(10)
N12_126 N 0.30980(10) 0.61901(10) 0.31577(11)
C1_116 C 0.39113(18) 0.49616(12) 0.25707(13)
H1_126 H 0.3963 0.4996 0.2391
C2_116 C 0.37669(18) 0.47624(12) 0.29263(14)
H2_116 H 0.3703 0.4628 0.3045
C3_126 C 0.34712(14) 0.59729(13) 0.29286(14)
H3_126 H 0.3481 0.6088 0.2777
C4_126 C 0.33506(13) 0.58005(13) 0.33027(14)
H4_126 H 0.3259 0.5769 0.3467
C5_126 C 0.35804(16) 0.43663(14) 0.2441(2)
H5_126 H 0.3405 0.4439 0.2461
C6_126 C 0.40007(14) 0.43297(11) 0.24496(14)
H6_126 H 0.4186 0.4366 0.2476
C7_126 C 0.28449(14) 0.61653(16) 0.30866(19)
H7_126 H 0.2768 0.6009 0.3010
C8_126 C 0.31308(12) 0.64427(13) 0.32619(15)
H8_126 H 0.3293 0.6516 0.3329
Ag5_51 Ag 0.412650(9) 0.374049(9) 0.221611(10)
Ag6_48 Ag 0.337350(9) 0.375951(9) 0.221611(10)
N13_77 N 0.33619(11) 0.51722(15) 0.36300(12)
N14_71 N 0.41168(9) 0.51672(11) 0.35922(10)
N1_127 N 0.10455(10) 0.67877(11) 0.81597(10)
N2_127 N 0.11246(12) 0.70316(12) 0.82688(11)
N3_127 N 0.13143(15) 0.70070(11) 0.75137(10)
N4_127 N 0.14163(14) 0.72393(10) 0.76339(10)
N5_77 N 0.11300(12) 0.76722(15) 0.66381(11)
N6_82 N 0.14078(10) 0.76672(11) 0.66168(9)
N9_117 N 0.13220(13) 0.73363(11) 0.72252(9)
N10_117 N 0.13045(12) 0.74732(11) 0.69883(9)
N11_127 N 0.07964(10) 0.68711(10) 0.84995(10)
N12_127 N 0.05980(10) 0.68423(11) 0.86901(10)
C1_117 C 0.14113(18) 0.74293(13) 0.74616(12)
H1_127 H 0.1463 0.7609 0.7496
C2_117 C 0.12669(18) 0.70737(14) 0.72624(12)
H2_117 H 0.1203 0.6955 0.7128
C3_127 C 0.09712(14) 0.70714(14) 0.84729(13)
H3_127 H 0.0981 0.7223 0.8588
C4_127 C 0.08506(13) 0.66973(14) 0.83005(13)
H4_127 H 0.0759 0.6533 0.8269
C5_127 C 0.10804(16) 0.7559(2) 0.68663(14)
H5_127 H 0.0905 0.7539 0.6939
C6_127 C 0.15007(14) 0.75504(14) 0.68297(11)
H6_127 H 0.1686 0.7524 0.6866
C7_127 C 0.03449(14) 0.69134(19) 0.86653(16)
H7_127 H 0.0268 0.6990 0.8509
C8_127 C 0.06308(12) 0.67381(15) 0.89427(13)
H8_127 H 0.0793 0.6671 0.9016
Ag5_52 Ag 0.162650(9) 0.778389(10) 0.624049(9)
Ag6_49 Ag 0.087350(9) 0.778389(10) 0.625951(9)
N13_78 N 0.08619(11) 0.63700(12) 0.76722(15)
Ag2_65 Ag 0.662650(9) 0.471611(10) 0.125951(9)
N1_128 N 0.67877(11) 0.43403(10) 0.14545(10)
N2_128 N 0.70316(12) 0.42312(11) 0.13754(12)
N3_128 N 0.70070(11) 0.49863(10) 0.11857(15)
N4_128 N 0.72393(10) 0.48661(10) 0.10837(14)
N5_78 N 0.76722(15) 0.58619(11) 0.13700(12)
N6_83 N 0.76672(11) 0.58832(9) 0.10922(10)
N9_118 N 0.73363(11) 0.52748(9) 0.11780(13)
N10_118 N 0.74732(11) 0.55117(9) 0.11955(12)
N11_128 N 0.68711(10) 0.40005(10) 0.17036(10)
N12_128 N 0.68423(11) 0.38099(10) 0.19020(10)
C1_118 C 0.74293(13) 0.50384(12) 0.10887(18)
H1_128 H 0.7609 0.5004 0.1037
C2_118 C 0.70737(14) 0.52376(12) 0.12331(18)
H2_118 H 0.6955 0.5372 0.1297
C3_128 C 0.70714(14) 0.40271(13) 0.15288(14)
H3_128 H 0.7223 0.3912 0.1519
C4_128 C 0.66973(14) 0.41995(13) 0.16494(13)
H4_128 H 0.6533 0.4231 0.1741
C5_128 C 0.7559(2) 0.56337(14) 0.14196(16)
H5_128 H 0.7539 0.5561 0.1595
C6_128 C 0.75504(14) 0.56703(11) 0.09993(14)
H6_128 H 0.7524 0.5634 0.0814
C7_128 C 0.69134(19) 0.38347(16) 0.21551(14)
H7_128 H 0.6990 0.3991 0.2232
C8_128 C 0.67381(15) 0.35573(13) 0.18692(12)
H8_128 H 0.6671 0.3484 0.1707
Ag5_53 Ag 0.778389(10) 0.625951(9) 0.087350(9)
Ag6_50 Ag 0.778389(10) 0.624049(9) 0.162650(9)
N13_79 N 0.63700(12) 0.48278(15) 0.16381(11)
N14_72 N 0.64078(10) 0.48328(11) 0.08832(9)
Ag2_66 Ag 0.375951(9) 0.221611(10) 0.337350(9)
N1_129 N 0.39545(10) 0.18403(10) 0.32123(11)
N2_129 N 0.38754(12) 0.17312(11) 0.29684(12)
N3_129 N 0.36857(15) 0.24863(10) 0.29930(11)
N4_129 N 0.35837(14) 0.23661(10) 0.27607(10)
N5_79 N 0.38700(12) 0.33619(11) 0.23278(15)
N6_84 N 0.35922(10) 0.33832(9) 0.23328(11)
N9_119 N 0.36780(13) 0.27748(9) 0.26637(11)
N10_119 N 0.36955(12) 0.30117(9) 0.25268(11)
N11_129 N 0.42036(10) 0.15005(10) 0.31289(10)
N12_129 N 0.44020(10) 0.13099(10) 0.31577(11)
C1_119 C 0.35887(18) 0.25384(12) 0.25707(13)
H1_129 H 0.3537 0.2504 0.2391
C2_119 C 0.37331(18) 0.27376(12) 0.29263(14)
H2_119 H 0.3797 0.2872 0.3045
C3_129 C 0.40288(14) 0.15271(13) 0.29286(14)
H3_129 H 0.4019 0.1412 0.2777
C4_129 C 0.41494(13) 0.16995(13) 0.33027(14)
H4_129 H 0.4241 0.1731 0.3467
C5_129 C 0.39196(16) 0.31337(14) 0.2441(2)
H5_129 H 0.4095 0.3061 0.2461
C6_129 C 0.34993(14) 0.31703(11) 0.24496(14)
H6_129 H 0.3314 0.3134 0.2476
C7_129 C 0.46551(14) 0.13347(16) 0.30866(19)
H7_129 H 0.4732 0.1491 0.3010
C8_129 C 0.43692(12) 0.10573(13) 0.32619(15)
H8_129 H 0.4207 0.0984 0.3329
N13_80 N 0.41381(11) 0.23278(15) 0.36300(12)
N14_73 N 0.33832(9) 0.23328(11) 0.35922(10)
N1_130 N 0.07123(11) 0.93403(10) 0.10455(10)
N2_130 N 0.04684(12) 0.92312(11) 0.11246(12)
N3_130 N 0.04930(11) 0.99863(10) 0.13143(15)
N4_130 N 0.02607(10) 0.98661(10) 0.14163(14)
N11_130 N 0.06289(10) 0.90005(10) 0.07964(10)
N12_130 N 0.06577(11) 0.88099(10) 0.05980(10)
C3_130 C 0.04286(14) 0.90271(13) 0.09712(14)
H3_130 H 0.0277 0.8912 0.0981
C4_130 C 0.08027(14) 0.91995(13) 0.08506(13)
H4_130 H 0.0967 0.9231 0.0759
C7_130 C 0.05866(19) 0.88347(16) 0.03449(14)
H7_130 H 0.0510 0.8991 0.0268
C8_130 C 0.07619(15) 0.85573(13) 0.06308(12)
H8_130 H 0.0829 0.8484 0.0793
N14_74 N 0.10922(10) 0.98328(11) 0.16168(9)
N5_80 N 0.98278(15) 0.08619(11) 0.11300(12)
N6_85 N 0.98328(11) 0.08832(9) 0.14078(10)
H1_130 H 0.9891 0.0004 0.1463
C5_130 C 0.9941(2) 0.06337(14) 0.10804(16)
H5_130 H 0.9961 0.0561 0.0905
C6_130 C 0.99496(14) 0.06703(11) 0.15007(14)
H6_130 H 0.9976 0.0634 0.1686
H1_131 H 0.0109 0.8963 0.2504
C5_131 C 0.0059(2) 0.85804(16) 0.31337(14)
H5_131 H 0.0039 0.8405 0.3061
C6_131 C 0.00504(14) 0.90007(14) 0.31703(11)
H6_131 H 0.0024 0.9186 0.3134
Ag2_67 Ag 0.912650(9) 0.874049(9) 0.221611(10)
N1_131 N 0.92877(11) 0.85455(10) 0.18403(10)
N2_131 N 0.95316(12) 0.86246(12) 0.17312(11)
N3_131 N 0.95070(11) 0.88143(15) 0.24863(10)
N4_131 N 0.97393(10) 0.89163(14) 0.23661(10)
N9_120 N 0.98363(11) 0.88220(13) 0.27748(9)
N10_120 N 0.99732(11) 0.88045(12) 0.30117(9)
N11_131 N 0.93711(10) 0.82964(10) 0.15005(10)
N12_131 N 0.93423(11) 0.80980(10) 0.13099(10)
C1_120 C 0.99293(13) 0.89113(18) 0.25384(12)
C2_120 C 0.95737(14) 0.87669(18) 0.27376(12)
H2_120 H 0.9455 0.8703 0.2872
C3_131 C 0.95714(14) 0.84712(14) 0.15271(13)
H3_131 H 0.9723 0.8481 0.1412
C4_131 C 0.91973(14) 0.83506(13) 0.16995(13)
H4_131 H 0.9033 0.8259 0.1731
C7_131 C 0.94134(19) 0.78449(14) 0.13347(16)
H7_131 H 0.9490 0.7768 0.1491
C8_131 C 0.92381(15) 0.81308(12) 0.10573(13)
H8_131 H 0.9171 0.8293 0.0984
N13_81 N 0.88700(12) 0.83619(11) 0.23278(15)
N14_75 N 0.89078(10) 0.91168(9) 0.23328(11)
N1_132 N 0.68403(10) 0.42877(11) 0.85455(10)
N2_132 N 0.67312(11) 0.45316(12) 0.86246(12)
N3_132 N 0.74863(10) 0.45070(11) 0.88143(15)
N4_132 N 0.73661(10) 0.47393(10) 0.89163(14)
N5_81 N 0.83619(11) 0.51722(15) 0.86300(12)
N6_86 N 0.83832(9) 0.51672(11) 0.89078(10)
N9_121 N 0.77748(9) 0.48363(11) 0.88220(13)
N10_121 N 0.80117(9) 0.49732(11) 0.88045(12)
N11_132 N 0.65005(10) 0.43711(10) 0.82964(10)
N12_132 N 0.63099(10) 0.43423(11) 0.80980(10)
C1_121 C 0.75384(12) 0.49293(13) 0.89113(18)
H1_132 H 0.7504 0.5109 0.8963
C2_121 C 0.77376(12) 0.45737(14) 0.87669(18)
H2_121 H 0.7872 0.4455 0.8703
C3_132 C 0.65271(13) 0.45714(14) 0.84712(14)
H3_132 H 0.6412 0.4723 0.8481
C4_132 C 0.66995(13) 0.41973(14) 0.83506(13)
H4_132 H 0.6731 0.4033 0.8259
C5_132 C 0.81337(14) 0.5059(2) 0.85804(16)
H5_132 H 0.8061 0.5039 0.8405
C6_132 C 0.81703(11) 0.50504(14) 0.90007(14)
H6_132 H 0.8134 0.5024 0.9186
C7_132 C 0.63347(16) 0.44134(19) 0.78449(14)
H7_132 H 0.6491 0.4490 0.7768
C8_132 C 0.60573(13) 0.42381(15) 0.81308(12)
H8_132 H 0.5984 0.4171 0.8293
Ag5_54 Ag 0.875951(9) 0.528389(10) 0.912650(9)
Ag6_51 Ag 0.874049(9) 0.528389(10) 0.837350(9)
N1_133 N 0.06597(10) 0.32123(11) 0.85455(10)
N2_133 N 0.07688(11) 0.29684(12) 0.86246(12)
N3_133 N 0.00137(10) 0.29930(11) 0.88143(15)
N4_133 N 0.01339(10) 0.27607(10) 0.89163(14)
N11_133 N 0.09995(10) 0.31289(10) 0.82964(10)
N12_133 N 0.11901(10) 0.31577(11) 0.80980(10)
C3_133 C 0.09729(13) 0.29286(14) 0.84712(14)
H3_133 H 0.1088 0.2777 0.8481
C4_133 C 0.08005(13) 0.33027(14) 0.83506(13)
H4_133 H 0.0769 0.3467 0.8259
C7_133 C 0.11653(16) 0.30866(19) 0.78449(14)
H7_133 H 0.1009 0.3010 0.7768
C8_133 C 0.14427(13) 0.32619(15) 0.81308(12)
H8_133 H 0.1516 0.3329 0.8293
N5_82 N 0.91381(11) 0.23278(15) 0.86300(12)
N6_87 N 0.91168(9) 0.23328(11) 0.89078(10)
N9_122 N 0.97252(9) 0.26637(11) 0.88220(13)
N10_122 N 0.94883(9) 0.25268(11) 0.88045(12)
C1_122 C 0.99616(12) 0.25707(13) 0.89113(18)
H1_133 H 0.9996 0.2391 0.8963
C2_122 C 0.97624(12) 0.29263(14) 0.87669(18)
H2_122 H 0.9628 0.3045 0.8703
C5_133 C 0.93663(14) 0.2441(2) 0.85804(16)
H5_133 H 0.9439 0.2461 0.8405
C6_133 C 0.93297(11) 0.24496(14) 0.90007(14)
H6_133 H 0.9366 0.2476 0.9186
Ag5_55 Ag 0.874049(9) 0.221611(10) 0.912650(9)
Ag6_52 Ag 0.875951(9) 0.221611(10) 0.837350(9)
H1_134 H 0.0109 0.8537 0.4996
C5_134 C 0.0059(2) 0.89196(16) 0.43663(14)
H5_134 H 0.0039 0.9095 0.4439
C6_134 C 0.00504(14) 0.84993(14) 0.43297(11)
H6_134 H 0.0024 0.8314 0.4366
Ag2_68 Ag 0.912650(9) 0.875951(9) 0.528389(10)
N1_134 N 0.92877(11) 0.89545(10) 0.56597(10)
N2_134 N 0.95316(12) 0.88754(12) 0.57688(11)
N3_134 N 0.95070(11) 0.86857(15) 0.50137(10)
N4_134 N 0.97393(10) 0.85837(14) 0.51339(10)
N9_123 N 0.98363(11) 0.86780(13) 0.47252(9)
N10_123 N 0.99732(11) 0.86955(12) 0.44883(9)
N11_134 N 0.93711(10) 0.92036(10) 0.59995(10)
N12_134 N 0.93423(11) 0.94020(10) 0.61901(10)
C1_123 C 0.99293(13) 0.85887(18) 0.49616(12)
C2_123 C 0.95737(14) 0.87331(18) 0.47624(12)
H2_123 H 0.9455 0.8797 0.4628
C3_134 C 0.95714(14) 0.90288(14) 0.59729(13)
H3_134 H 0.9723 0.9019 0.6088
C4_134 C 0.91973(14) 0.91494(13) 0.58005(13)
H4_134 H 0.9033 0.9241 0.5769
C7_134 C 0.94134(19) 0.96551(14) 0.61653(16)
H7_134 H 0.9490 0.9732 0.6009
C8_134 C 0.92381(15) 0.93692(12) 0.64427(13)
H8_134 H 0.9171 0.9207 0.6516
N13_82 N 0.88700(12) 0.91381(11) 0.51722(15)
N14_76 N 0.89078(10) 0.83832(9) 0.51672(11)
N1_135 N 0.06597(10) 0.42877(11) 0.89545(10)
N2_135 N 0.07688(11) 0.45316(12) 0.88754(12)
N3_135 N 0.00137(10) 0.45070(11) 0.86857(15)
N4_135 N 0.01339(10) 0.47393(10) 0.85837(14)
N11_135 N 0.09995(10) 0.43711(10) 0.92036(10)
N12_135 N 0.11901(10) 0.43423(11) 0.94020(10)
C3_135 C 0.09729(13) 0.45714(14) 0.90288(14)
H3_135 H 0.1088 0.4723 0.9019
C4_135 C 0.08005(13) 0.41973(14) 0.91494(13)
H4_135 H 0.0769 0.4033 0.9241
C7_135 C 0.11653(16) 0.44134(19) 0.96551(14)
H7_135 H 0.1009 0.4490 0.9732
C8_135 C 0.14427(13) 0.42381(15) 0.93692(12)
H8_135 H 0.1516 0.4171 0.9207
N5_83 N 0.91381(11) 0.51722(15) 0.88700(12)
N6_88 N 0.91168(9) 0.51672(11) 0.85922(10)
N9_124 N 0.97252(9) 0.48363(11) 0.86780(13)
N10_124 N 0.94883(9) 0.49732(11) 0.86955(12)
C1_124 C 0.99616(12) 0.49293(13) 0.85887(18)
H1_135 H 0.9996 0.5109 0.8537
C2_124 C 0.97624(12) 0.45737(14) 0.87331(18)
H2_124 H 0.9628 0.4455 0.8797
C5_135 C 0.93663(14) 0.5059(2) 0.89196(16)
H5_135 H 0.9439 0.5039 0.9095
C6_135 C 0.93297(11) 0.50504(14) 0.84993(14)
H6_135 H 0.9366 0.5024 0.8314
Ag2_69 Ag 0.837350(9) 0.875951(9) 0.221611(10)
N1_136 N 0.82123(11) 0.89545(10) 0.18403(10)
N2_136 N 0.79684(12) 0.88754(12) 0.17312(11)
N3_136 N 0.79930(11) 0.86857(15) 0.24863(10)
N4_136 N 0.77607(10) 0.85837(14) 0.23661(10)
N9_125 N 0.76637(11) 0.86780(13) 0.27748(9)
N10_125 N 0.75268(11) 0.86955(12) 0.30117(9)
N11_136 N 0.81289(10) 0.92036(10) 0.15005(10)
N12_136 N 0.81577(11) 0.94020(10) 0.13099(10)
C1_125 C 0.75707(13) 0.85887(18) 0.25384(12)
H1_136 H 0.7391 0.8537 0.2504
C2_125 C 0.79263(14) 0.87331(18) 0.27376(12)
H2_125 H 0.8045 0.8797 0.2872
C3_136 C 0.79286(14) 0.90288(14) 0.15271(13)
H3_136 H 0.7777 0.9019 0.1412
C4_136 C 0.83027(14) 0.91494(13) 0.16995(13)
H4_136 H 0.8467 0.9241 0.1731
C5_136 C 0.7441(2) 0.89196(16) 0.31337(14)
H5_136 H 0.7461 0.9095 0.3061
C6_136 C 0.74496(14) 0.84993(14) 0.31703(11)
H6_136 H 0.7476 0.8314 0.3134
C7_136 C 0.80866(19) 0.96551(14) 0.13347(16)
H7_136 H 0.8010 0.9732 0.1491
C8_136 C 0.82619(15) 0.93692(12) 0.10573(13)
H8_136 H 0.8329 0.9207 0.0984
N13_83 N 0.86300(12) 0.91381(11) 0.23278(15)
N14_77 N 0.85922(10) 0.83832(9) 0.23328(11)
Ag2_70 Ag 0.837350(9) 0.874049(9) 0.528389(10)
N1_137 N 0.82123(11) 0.85455(10) 0.56597(10)
N2_137 N 0.79684(12) 0.86246(12) 0.57688(11)
N3_137 N 0.79930(11) 0.88143(15) 0.50137(10)
N4_137 N 0.77607(10) 0.89163(14) 0.51339(10)
N9_126 N 0.76637(11) 0.88220(13) 0.47252(9)
N10_126 N 0.75268(11) 0.88045(12) 0.44883(9)
N11_137 N 0.81289(10) 0.82964(10) 0.59995(10)
N12_137 N 0.81577(11) 0.80980(10) 0.61901(10)
C1_126 C 0.75707(13) 0.89113(18) 0.49616(12)
H1_137 H 0.7391 0.8963 0.4996
C2_126 C 0.79263(14) 0.87669(18) 0.47624(12)
H2_126 H 0.8045 0.8703 0.4628
C3_137 C 0.79286(14) 0.84712(14) 0.59729(13)
H3_137 H 0.7777 0.8481 0.6088
C4_137 C 0.83027(14) 0.83506(13) 0.58005(13)
H4_137 H 0.8467 0.8259 0.5769
C5_137 C 0.7441(2) 0.85804(16) 0.43663(14)
H5_137 H 0.7461 0.8405 0.4439
C6_137 C 0.74496(14) 0.90007(14) 0.43297(11)
H6_137 H 0.7476 0.9186 0.4366
C7_137 C 0.80866(19) 0.78449(14) 0.61653(16)
H7_137 H 0.8010 0.7768 0.6009
C8_137 C 0.82619(15) 0.81308(12) 0.64427(13)
H8_137 H 0.8329 0.8293 0.6516
N13_84 N 0.86300(12) 0.83619(11) 0.51722(15)
N14_78 N 0.85922(10) 0.91168(9) 0.51672(11)
N1_138 N 0.68403(10) 0.32123(11) 0.89545(10)
N2_138 N 0.67312(11) 0.29684(12) 0.88754(12)
N3_138 N 0.74863(10) 0.29930(11) 0.86857(15)
N4_138 N 0.73661(10) 0.27607(10) 0.85837(14)
N5_84 N 0.83619(11) 0.23278(15) 0.88700(12)
N6_89 N 0.83832(9) 0.23328(11) 0.85922(10)
N9_127 N 0.77748(9) 0.26637(11) 0.86780(13)
N10_127 N 0.80117(9) 0.25268(11) 0.86955(12)
N11_138 N 0.65005(10) 0.31289(10) 0.92036(10)
N12_138 N 0.63099(10) 0.31577(11) 0.94020(10)
C1_127 C 0.75384(12) 0.25707(13) 0.85887(18)
H1_138 H 0.7504 0.2391 0.8537
C2_127 C 0.77376(12) 0.29263(14) 0.87331(18)
H2_127 H 0.7872 0.3045 0.8797
C3_138 C 0.65271(13) 0.29286(14) 0.90288(14)
H3_138 H 0.6412 0.2777 0.9019
C4_138 C 0.66995(13) 0.33027(14) 0.91494(13)
H4_138 H 0.6731 0.3467 0.9241
C5_138 C 0.81337(14) 0.2441(2) 0.89196(16)
H5_138 H 0.8061 0.2461 0.9095
C6_138 C 0.81703(11) 0.24496(14) 0.84993(14)
H6_138 H 0.8134 0.2476 0.8314
C7_138 C 0.63347(16) 0.30866(19) 0.96551(14)
H7_138 H 0.6491 0.3010 0.9732
C8_138 C 0.60573(13) 0.32619(15) 0.93692(12)
H8_138 H 0.5984 0.3329 0.9207
Ag2_71 Ag 0.471611(10) 0.124049(9) 0.587350(9)
N1_139 N 0.43403(10) 0.10455(10) 0.57123(11)
N2_139 N 0.42312(11) 0.11246(12) 0.54684(12)
N3_139 N 0.49863(10) 0.13143(15) 0.54930(11)
N4_139 N 0.48661(10) 0.14163(14) 0.52607(10)
N5_85 N 0.58619(11) 0.11300(12) 0.48278(15)
N6_90 N 0.58832(9) 0.14078(10) 0.48328(11)
N9_128 N 0.52748(9) 0.13220(13) 0.51637(11)
N10_128 N 0.55117(9) 0.13045(12) 0.50268(11)
N11_139 N 0.40005(10) 0.07964(10) 0.56289(10)
N12_139 N 0.38099(10) 0.05980(10) 0.56577(11)
C1_128 C 0.50384(12) 0.14113(18) 0.50707(13)
H1_139 H 0.5004 0.1463 0.4891
C2_128 C 0.52376(12) 0.12669(18) 0.54263(14)
H2_128 H 0.5372 0.1203 0.5545
C3_139 C 0.40271(13) 0.09712(14) 0.54286(14)
H3_139 H 0.3912 0.0981 0.5277
C4_139 C 0.41995(13) 0.08506(13) 0.58027(14)
H4_139 H 0.4231 0.0759 0.5967
C5_139 C 0.56337(14) 0.10804(16) 0.4941(2)
H5_139 H 0.5561 0.0905 0.4961
C6_139 C 0.56703(11) 0.15007(14) 0.49496(14)
H6_139 H 0.5634 0.1686 0.4976
C7_139 C 0.38347(16) 0.03449(14) 0.55866(19)
H7_139 H 0.3991 0.0268 0.5510
C8_139 C 0.35573(13) 0.06308(12) 0.57619(15)
H8_139 H 0.3484 0.0793 0.5829
Ag5_56 Ag 0.625951(9) 0.162650(9) 0.471611(10)
Ag6_53 Ag 0.624049(9) 0.087350(9) 0.471611(10)
N13_85 N 0.48278(15) 0.08619(11) 0.61300(12)
N14_79 N 0.48328(11) 0.16168(9) 0.60922(10)
Ag2_72 Ag 0.278389(10) 0.125951(9) 0.087350(9)
N1_140 N 0.31597(10) 0.14545(10) 0.07123(11)
N2_140 N 0.32688(11) 0.13754(12) 0.04684(12)
N3_140 N 0.25137(10) 0.11857(15) 0.04930(11)
N4_140 N 0.26339(10) 0.10837(14) 0.02607(10)
N9_129 N 0.22252(9) 0.11780(13) 0.01637(11)
N10_129 N 0.19883(9) 0.11955(12) 0.00268(11)
N11_140 N 0.34995(10) 0.17036(10) 0.06289(10)
N12_140 N 0.36901(10) 0.19020(10) 0.06577(11)
C1_129 C 0.24616(12) 0.10887(18) 0.00707(13)
C2_129 C 0.22624(12) 0.12331(18) 0.04263(14)
H2_129 H 0.2128 0.1297 0.0545
C3_140 C 0.34729(13) 0.15288(14) 0.04286(14)
H3_140 H 0.3588 0.1519 0.0277
C4_140 C 0.33005(13) 0.16494(13) 0.08027(14)
H4_140 H 0.3269 0.1741 0.0967
C7_140 C 0.36653(16) 0.21551(14) 0.05866(19)
H7_140 H 0.3509 0.2232 0.0510
C8_140 C 0.39427(13) 0.18692(12) 0.07619(15)
H8_140 H 0.4016 0.1707 0.0829
N13_86 N 0.26722(15) 0.16381(11) 0.11300(12)
N14_80 N 0.26672(11) 0.08832(9) 0.10922(10)
N5_86 N 0.16381(11) 0.13700(12) 0.98278(15)
H1_140 H 0.2496 0.1037 0.9891
C5_140 C 0.18663(14) 0.14196(16) 0.9941(2)
H5_140 H 0.1939 0.1595 0.9961
C6_140 C 0.18297(11) 0.09993(14) 0.99496(14)
H6_140 H 0.1866 0.0814 0.9976
Ag6_54 Ag 0.125951(9) 0.162650(9) 0.971611(10)
N1_141 N 0.64545(10) 0.17877(11) 0.43403(10)
N2_141 N 0.63754(12) 0.20316(12) 0.42312(11)
N3_141 N 0.61857(15) 0.20070(11) 0.49863(10)
N4_141 N 0.60837(14) 0.22393(10) 0.48661(10)
N6_91 N 0.60922(10) 0.26672(11) 0.58832(9)
N9_130 N 0.61780(13) 0.23363(11) 0.52748(9)
N10_130 N 0.61955(12) 0.24732(11) 0.55117(9)
N11_141 N 0.67036(10) 0.18711(10) 0.40005(10)
N12_141 N 0.69020(10) 0.18423(11) 0.38099(10)
C1_130 C 0.60887(18) 0.24293(13) 0.50384(12)
H1_141 H 0.6037 0.2609 0.5004
C2_130 C 0.62331(18) 0.20737(14) 0.52376(12)
H2_130 H 0.6297 0.1955 0.5372
C3_141 C 0.65288(14) 0.20714(14) 0.40271(13)
H3_141 H 0.6519 0.2223 0.3912
C4_141 C 0.66494(13) 0.16973(14) 0.41995(13)
H4_141 H 0.6741 0.1533 0.4231
C5_141 C 0.64196(16) 0.2559(2) 0.56337(14)
H5_141 H 0.6595 0.2539 0.5561
C6_141 C 0.59993(14) 0.25504(14) 0.56703(11)
H6_141 H 0.5814 0.2524 0.5634
C7_141 C 0.71551(14) 0.19134(19) 0.38347(16)
H7_141 H 0.7232 0.1990 0.3991
C8_141 C 0.68692(12) 0.17381(15) 0.35573(13)
H8_141 H 0.6707 0.1671 0.3484
Ag5_57 Ag 0.587350(9) 0.278389(10) 0.625951(9)
N13_87 N 0.66381(11) 0.13700(12) 0.48278(15)
N1_142 N 0.64545(10) 0.57123(11) 0.31597(10)
N2_142 N 0.63754(12) 0.54684(12) 0.32688(11)
N3_142 N 0.61857(15) 0.54930(11) 0.25137(10)
N4_142 N 0.60837(14) 0.52607(10) 0.26339(10)
N6_92 N 0.60922(10) 0.48328(11) 0.16168(9)
N9_131 N 0.61780(13) 0.51637(11) 0.22252(9)
N10_131 N 0.61955(12) 0.50268(11) 0.19883(9)
N11_142 N 0.67036(10) 0.56289(10) 0.34995(10)
N12_142 N 0.69020(10) 0.56577(11) 0.36901(10)
C1_131 C 0.60887(18) 0.50707(13) 0.24616(12)
H1_142 H 0.6037 0.4891 0.2496
C2_131 C 0.62331(18) 0.54263(14) 0.22624(12)
H2_131 H 0.6297 0.5545 0.2128
C3_142 C 0.65288(14) 0.54286(14) 0.34729(13)
H3_142 H 0.6519 0.5277 0.3588
C4_142 C 0.66494(13) 0.58027(14) 0.33005(13)
H4_142 H 0.6741 0.5967 0.3269
C5_142 C 0.64196(16) 0.4941(2) 0.18663(14)
H5_142 H 0.6595 0.4961 0.1939
C6_142 C 0.59993(14) 0.49496(14) 0.18297(11)
H6_142 H 0.5814 0.4976 0.1866
C7_142 C 0.71551(14) 0.55866(19) 0.36653(16)
H7_142 H 0.7232 0.5510 0.3509
C8_142 C 0.68692(12) 0.57619(15) 0.39427(13)
H8_142 H 0.6707 0.5829 0.4016
Ag5_58 Ag 0.587350(9) 0.471611(10) 0.124049(9)
N13_88 N 0.66381(11) 0.61300(12) 0.26722(15)
N1_143 N 0.67877(11) 0.81597(10) 0.10455(10)
N2_143 N 0.70316(12) 0.82688(11) 0.11246(12)
N3_143 N 0.70070(11) 0.75137(10) 0.13143(15)
N4_143 N 0.72393(10) 0.76339(10) 0.14163(14)
N5_87 N 0.76722(15) 0.66381(11) 0.11300(12)
N6_93 N 0.76672(11) 0.66168(9) 0.14078(10)
N9_132 N 0.73363(11) 0.72252(9) 0.13220(13)
N10_132 N 0.74732(11) 0.69883(9) 0.13045(12)
N11_143 N 0.68711(10) 0.84995(10) 0.07964(10)
N12_143 N 0.68423(11) 0.86901(10) 0.05980(10)
C1_132 C 0.74293(13) 0.74616(12) 0.14113(18)
H1_143 H 0.7609 0.7496 0.1463
C2_132 C 0.70737(14) 0.72624(12) 0.12669(18)
H2_132 H 0.6955 0.7128 0.1203
C3_143 C 0.70714(14) 0.84729(13) 0.09712(14)
H3_143 H 0.7223 0.8588 0.0981
C4_143 C 0.66973(14) 0.83005(13) 0.08506(13)
H4_143 H 0.6533 0.8269 0.0759
C5_143 C 0.7559(2) 0.68663(14) 0.10804(16)
H5_143 H 0.7539 0.6939 0.0905
C6_143 C 0.75504(14) 0.68297(11) 0.15007(14)
H6_143 H 0.7524 0.6866 0.1686
C7_143 C 0.69134(19) 0.86653(16) 0.03449(14)
H7_143 H 0.6990 0.8509 0.0268
C8_143 C 0.67381(15) 0.89427(13) 0.06308(12)
H8_143 H 0.6671 0.9016 0.0793
N14_81 N 0.64078(10) 0.76672(11) 0.16168(9)
N1_144 N 0.07123(11) 0.81597(10) 0.64545(10)
N2_144 N 0.04684(12) 0.82688(11) 0.63754(12)
N3_144 N 0.04930(11) 0.75137(10) 0.61857(15)
N4_144 N 0.02607(10) 0.76339(10) 0.60837(14)
N9_133 N 0.01637(11) 0.72252(9) 0.61780(13)
N10_133 N 0.00268(11) 0.69883(9) 0.61955(12)
N11_144 N 0.06289(10) 0.84995(10) 0.67036(10)
N12_144 N 0.06577(11) 0.86901(10) 0.69020(10)
C1_133 C 0.00707(13) 0.74616(12) 0.60887(18)
C2_133 C 0.04263(14) 0.72624(12) 0.62331(18)
H2_133 H 0.0545 0.7128 0.6297
C3_144 C 0.04286(14) 0.84729(13) 0.65288(14)
H3_144 H 0.0277 0.8588 0.6519
C4_144 C 0.08027(14) 0.83005(13) 0.66494(13)
H4_144 H 0.0967 0.8269 0.6741
C7_144 C 0.05866(19) 0.86653(16) 0.71551(14)
H7_144 H 0.0510 0.8509 0.7232
C8_144 C 0.07619(15) 0.89427(13) 0.68692(12)
H8_144 H 0.0829 0.9016 0.6707
N14_82 N 0.10922(10) 0.76672(11) 0.58832(9)
N5_88 N 0.98278(15) 0.66381(11) 0.63700(12)
N6_94 N 0.98328(11) 0.66168(9) 0.60922(10)
H1_144 H 0.9891 0.7496 0.6037
C5_144 C 0.9941(2) 0.68663(14) 0.64196(16)
H5_144 H 0.9961 0.6939 0.6595
C6_144 C 0.99496(14) 0.68297(11) 0.59993(14)
H6_144 H 0.9976 0.6866 0.5814
N1_145 N 0.85455(10) 0.68403(10) 0.42877(11)
N2_145 N 0.86246(12) 0.67312(11) 0.45316(12)
N3_145 N 0.88143(15) 0.74863(10) 0.45070(11)
N4_145 N 0.89163(14) 0.73661(10) 0.47393(10)
N9_134 N 0.88220(13) 0.77748(9) 0.48363(11)
N10_134 N 0.88045(12) 0.80117(9) 0.49732(11)
N11_145 N 0.82964(10) 0.65005(10) 0.43711(10)
N12_145 N 0.80980(10) 0.63099(10) 0.43423(11)
C1_134 C 0.89113(18) 0.75384(12) 0.49293(13)
H1_145 H 0.8963 0.7504 0.5109
C2_134 C 0.87669(18) 0.77376(12) 0.45737(14)
H2_134 H 0.8703 0.7872 0.4455
C3_145 C 0.84712(14) 0.65271(13) 0.45714(14)
H3_145 H 0.8481 0.6412 0.4723
C4_145 C 0.83506(13) 0.66995(13) 0.41973(14)
H4_145 H 0.8259 0.6731 0.4033
C5_145 C 0.85804(16) 0.81337(14) 0.5059(2)
H5_145 H 0.8405 0.8061 0.5039
C6_145 C 0.90007(14) 0.81703(11) 0.50504(14)
H6_145 H 0.9186 0.8134 0.5024
C7_145 C 0.78449(14) 0.63347(16) 0.44134(19)
H7_145 H 0.7768 0.6491 0.4490
C8_145 C 0.81308(12) 0.60573(13) 0.42381(15)
H8_145 H 0.8293 0.5984 0.4171
N1_146 N 0.81597(10) 0.10455(10) 0.67877(11)
N2_146 N 0.82688(11) 0.11246(12) 0.70316(12)
N3_146 N 0.75137(10) 0.13143(15) 0.70070(11)
N4_146 N 0.76339(10) 0.14163(14) 0.72393(10)
N6_95 N 0.66168(9) 0.14078(10) 0.76672(11)
N9_135 N 0.72252(9) 0.13220(13) 0.73363(11)
N10_135 N 0.69883(9) 0.13045(12) 0.74732(11)
N11_146 N 0.84995(10) 0.07964(10) 0.68711(10)
N12_146 N 0.86901(10) 0.05980(10) 0.68423(11)
C1_135 C 0.74616(12) 0.14113(18) 0.74293(13)
H1_146 H 0.7496 0.1463 0.7609
C2_135 C 0.72624(12) 0.12669(18) 0.70737(14)
H2_135 H 0.7128 0.1203 0.6955
C3_146 C 0.84729(13) 0.09712(14) 0.70714(14)
H3_146 H 0.8588 0.0981 0.7223
C4_146 C 0.83005(13) 0.08506(13) 0.66973(14)
H4_146 H 0.8269 0.0759 0.6533
C5_146 C 0.68663(14) 0.10804(16) 0.7559(2)
H5_146 H 0.6939 0.0905 0.7539
C6_146 C 0.68297(11) 0.15007(14) 0.75504(14)
H6_146 H 0.6866 0.1686 0.7524
C7_146 C 0.86653(16) 0.03449(14) 0.69134(19)
H7_146 H 0.8509 0.0268 0.6990
C8_146 C 0.89427(13) 0.06308(12) 0.67381(15)
H8_146 H 0.9016 0.0793 0.6671
N1_147 N 0.89545(10) 0.06597(10) 0.42877(11)
N2_147 N 0.88754(12) 0.07688(11) 0.45316(12)
N3_147 N 0.86857(15) 0.00137(10) 0.45070(11)
N4_147 N 0.85837(14) 0.01339(10) 0.47393(10)
N11_147 N 0.92036(10) 0.09995(10) 0.43711(10)
N12_147 N 0.94020(10) 0.11901(10) 0.43423(11)
C3_147 C 0.90288(14) 0.09729(13) 0.45714(14)
H3_147 H 0.9019 0.1088 0.4723
C4_147 C 0.91494(13) 0.08005(13) 0.41973(14)
H4_147 H 0.9241 0.0769 0.4033
C7_147 C 0.96551(14) 0.11653(16) 0.44134(19)
H7_147 H 0.9732 0.1009 0.4490
C8_147 C 0.93692(12) 0.14427(13) 0.42381(15)
H8_147 H 0.9207 0.1516 0.4171
N9_136 N 0.86780(13) 0.97252(9) 0.48363(11)
N10_136 N 0.86955(12) 0.94883(9) 0.49732(11)
C1_136 C 0.85887(18) 0.99616(12) 0.49293(13)
H1_147 H 0.8537 0.9996 0.5109
C2_136 C 0.87331(18) 0.97624(12) 0.45737(14)
H2_136 H 0.8797 0.9628 0.4455
C5_147 C 0.89196(16) 0.93663(14) 0.5059(2)
H5_147 H 0.9095 0.9439 0.5039
C6_147 C 0.84993(14) 0.93297(11) 0.50504(14)
H6_147 H 0.8314 0.9366 0.5024
N6_96 N 0.08832(9) 0.60922(10) 0.76672(11)
N9_137 N 0.02748(9) 0.61780(13) 0.73363(11)
N10_137 N 0.05117(9) 0.61955(12) 0.74732(11)
C1_137 C 0.00384(12) 0.60887(18) 0.74293(13)
H1_148 H 0.0004 0.6037 0.7609
C2_137 C 0.02376(12) 0.62331(18) 0.70737(14)
H2_137 H 0.0372 0.6297 0.6955
C5_148 C 0.06337(14) 0.64196(16) 0.7559(2)
H5_148 H 0.0561 0.6595 0.7539
C6_148 C 0.06703(11) 0.59993(14) 0.75504(14)
H6_148 H 0.0634 0.5814 0.7524
N1_148 N 0.93403(10) 0.64545(10) 0.67877(11)
N2_148 N 0.92312(11) 0.63754(12) 0.70316(12)
N3_148 N 0.99863(10) 0.61857(15) 0.70070(11)
N4_148 N 0.98661(10) 0.60837(14) 0.72393(10)
N11_148 N 0.90005(10) 0.67036(10) 0.68711(10)
N12_148 N 0.88099(10) 0.69020(10) 0.68423(11)
C3_148 C 0.90271(13) 0.65288(14) 0.70714(14)
H3_148 H 0.8912 0.6519 0.7223
C4_148 C 0.91995(13) 0.66494(13) 0.66973(14)
H4_148 H 0.9231 0.6741 0.6533
C7_148 C 0.88347(16) 0.71551(14) 0.69134(19)
H7_148 H 0.8991 0.7232 0.6990
C8_148 C 0.85573(13) 0.68692(12) 0.67381(15)
H8_148 H 0.8484 0.6707 0.6671
N1_149 N 0.60455(10) 0.07123(11) 0.43403(10)
N2_149 N 0.61246(12) 0.04684(12) 0.42312(11)
N3_149 N 0.63143(15) 0.04930(11) 0.49863(10)
N4_149 N 0.64163(14) 0.02607(10) 0.48661(10)
N9_138 N 0.63220(13) 0.01637(11) 0.52748(9)
N10_138 N 0.63045(12) 0.00268(11) 0.55117(9)
N11_149 N 0.57964(10) 0.06289(10) 0.40005(10)
N12_149 N 0.55980(10) 0.06577(11) 0.38099(10)
C1_138 C 0.64113(18) 0.00707(13) 0.50384(12)
C2_138 C 0.62669(18) 0.04263(14) 0.52376(12)
H2_138 H 0.6203 0.0545 0.5372
C3_149 C 0.59712(14) 0.04286(14) 0.40271(13)
H3_149 H 0.5981 0.0277 0.3912
C4_149 C 0.58506(13) 0.08027(14) 0.41995(13)
H4_149 H 0.5759 0.0967 0.4231
C7_149 C 0.53449(14) 0.05866(19) 0.38347(16)
H7_149 H 0.5268 0.0510 0.3991
C8_149 C 0.56308(12) 0.07619(15) 0.35573(13)
H8_149 H 0.5793 0.0829 0.3484
N14_83 N 0.66168(9) 0.10922(10) 0.48328(11)
N5_89 N 0.61300(12) 0.98278(15) 0.58619(11)
H1_149 H 0.6463 0.9891 0.5004
C5_149 C 0.60804(16) 0.9941(2) 0.56337(14)
H5_149 H 0.5905 0.9961 0.5561
C6_149 C 0.65007(14) 0.99496(14) 0.56703(11)
H6_149 H 0.6686 0.9976 0.5634
N1_150 N 0.85455(10) 0.06597(10) 0.32123(11)
N2_150 N 0.86246(12) 0.07688(11) 0.29684(12)
N3_150 N 0.88143(15) 0.00137(10) 0.29930(11)
N4_150 N 0.89163(14) 0.01339(10) 0.27607(10)
N11_150 N 0.82964(10) 0.09995(10) 0.31289(10)
N12_150 N 0.80980(10) 0.11901(10) 0.31577(11)
C3_150 C 0.84712(14) 0.09729(13) 0.29286(14)
H3_150 H 0.8481 0.1088 0.2777
C4_150 C 0.83506(13) 0.08005(13) 0.33027(14)
H4_150 H 0.8259 0.0769 0.3467
C7_150 C 0.78449(14) 0.11653(16) 0.30866(19)
H7_150 H 0.7768 0.1009 0.3010
C8_150 C 0.81308(12) 0.14427(13) 0.32619(15)
H8_150 H 0.8293 0.1516 0.3329
N9_139 N 0.88220(13) 0.97252(9) 0.26637(11)
N10_139 N 0.88045(12) 0.94883(9) 0.25268(11)
C1_139 C 0.89113(18) 0.99616(12) 0.25707(13)
H1_150 H 0.8963 0.9996 0.2391
C2_139 C 0.87669(18) 0.97624(12) 0.29263(14)
H2_139 H 0.8703 0.9628 0.3045
C5_150 C 0.85804(16) 0.93663(14) 0.2441(2)
H5_150 H 0.8405 0.9439 0.2461
C6_150 C 0.90007(14) 0.93297(11) 0.24496(14)
H6_150 H 0.9186 0.9366 0.2476
N1_151 N 0.60455(10) 0.17877(11) 0.81597(10)
N2_151 N 0.61246(12) 0.20316(12) 0.82688(11)
N3_151 N 0.63143(15) 0.20070(11) 0.75137(10)
N4_151 N 0.64163(14) 0.22393(10) 0.76339(10)
N5_90 N 0.61300(12) 0.26722(15) 0.66381(11)
N9_140 N 0.63220(13) 0.23363(11) 0.72252(9)
N10_140 N 0.63045(12) 0.24732(11) 0.69883(9)
N11_151 N 0.57964(10) 0.18711(10) 0.84995(10)
N12_151 N 0.55980(10) 0.18423(11) 0.86901(10)
C1_140 C 0.64113(18) 0.24293(13) 0.74616(12)
H1_151 H 0.6463 0.2609 0.7496
C2_140 C 0.62669(18) 0.20737(14) 0.72624(12)
H2_140 H 0.6203 0.1955 0.7128
C3_151 C 0.59712(14) 0.20714(14) 0.84729(13)
H3_151 H 0.5981 0.2223 0.8588
C4_151 C 0.58506(13) 0.16973(14) 0.83005(13)
H4_151 H 0.5759 0.1533 0.8269
C5_151 C 0.60804(16) 0.2559(2) 0.68663(14)
H5_151 H 0.5905 0.2539 0.6939
C6_151 C 0.65007(14) 0.25504(14) 0.68297(11)
H6_151 H 0.6686 0.2524 0.6866
C7_151 C 0.53449(14) 0.19134(19) 0.86653(16)
H7_151 H 0.5268 0.1990 0.8509
C8_151 C 0.56308(12) 0.17381(15) 0.89427(13)
H8_151 H 0.5793 0.1671 0.9016
N9_141 N 0.23363(11) 0.02748(9) 0.11780(13)
N10_141 N 0.24732(11) 0.05117(9) 0.11955(12)
C1_141 C 0.24293(13) 0.00384(12) 0.10887(18)
H1_152 H 0.2609 0.0004 0.1037
C2_141 C 0.20737(14) 0.02376(12) 0.12331(18)
H2_141 H 0.1955 0.0372 0.1297
C5_152 C 0.2559(2) 0.06337(14) 0.14196(16)
H5_152 H 0.2539 0.0561 0.1595
C6_152 C 0.25504(14) 0.06703(11) 0.09993(14)
H6_152 H 0.2524 0.0634 0.0814
N1_152 N 0.17877(11) 0.93403(10) 0.14545(10)
N2_152 N 0.20316(12) 0.92312(11) 0.13754(12)
N3_152 N 0.20070(11) 0.99863(10) 0.11857(15)
N4_152 N 0.22393(10) 0.98661(10) 0.10837(14)
N11_152 N 0.18711(10) 0.90005(10) 0.17036(10)
N12_152 N 0.18423(11) 0.88099(10) 0.19020(10)
C3_152 C 0.20714(14) 0.90271(13) 0.15288(14)
H3_152 H 0.2223 0.8912 0.1519
C4_152 C 0.16973(14) 0.91995(13) 0.16494(13)
H4_152 H 0.1533 0.9231 0.1741
C7_152 C 0.19134(19) 0.88347(16) 0.21551(14)
H7_152 H 0.1990 0.8991 0.2232
C8_152 C 0.17381(15) 0.85573(13) 0.18692(12)
H8_152 H 0.1671 0.8484 0.1707
N13_89 N 0.13700(12) 0.98278(15) 0.16381(11)
N1_153 N 0.89545(10) 0.68403(10) 0.32123(11)
N2_153 N 0.88754(12) 0.67312(11) 0.29684(12)
N3_153 N 0.86857(15) 0.74863(10) 0.29930(11)
N4_153 N 0.85837(14) 0.73661(10) 0.27607(10)
N9_142 N 0.86780(13) 0.77748(9) 0.26637(11)
N10_142 N 0.86955(12) 0.80117(9) 0.25268(11)
N11_153 N 0.92036(10) 0.65005(10) 0.31289(10)
N12_153 N 0.94020(10) 0.63099(10) 0.31577(11)
C1_142 C 0.85887(18) 0.75384(12) 0.25707(13)
H1_153 H 0.8537 0.7504 0.2391
C2_142 C 0.87331(18) 0.77376(12) 0.29263(14)
H2_142 H 0.8797 0.7872 0.3045
C3_153 C 0.90288(14) 0.65271(13) 0.29286(14)
H3_153 H 0.9019 0.6412 0.2777
C4_153 C 0.91494(13) 0.66995(13) 0.33027(14)
H4_153 H 0.9241 0.6731 0.3467
C5_153 C 0.89196(16) 0.81337(14) 0.2441(2)
H5_153 H 0.9095 0.8061 0.2461
C6_153 C 0.84993(14) 0.81703(11) 0.24496(14)
H6_153 H 0.8314 0.8134 0.2476
C7_153 C 0.96551(14) 0.63347(16) 0.30866(19)
H7_153 H 0.9732 0.6491 0.3010
C8_153 C 0.93692(12) 0.60573(13) 0.32619(15)
H8_153 H 0.9207 0.5984 0.3329
N1_154 N 0.57123(11) 0.43403(10) 0.10455(10)
N2_154 N 0.54684(12) 0.42312(11) 0.11246(12)
N3_154 N 0.54930(11) 0.49863(10) 0.13143(15)
N4_154 N 0.52607(10) 0.48661(10) 0.14163(14)
N9_143 N 0.51637(11) 0.52748(9) 0.13220(13)
N10_143 N 0.50268(11) 0.55117(9) 0.13045(12)
N11_154 N 0.56289(10) 0.40005(10) 0.07964(10)
N12_154 N 0.56577(11) 0.38099(10) 0.05980(10)
C1_143 C 0.50707(13) 0.50384(12) 0.14113(18)
H1_154 H 0.4891 0.5004 0.1463
C2_143 C 0.54263(14) 0.52376(12) 0.12669(18)
H2_143 H 0.5545 0.5372 0.1203
C3_154 C 0.54286(14) 0.40271(13) 0.09712(14)
H3_154 H 0.5277 0.3912 0.0981
C4_154 C 0.58027(14) 0.41995(13) 0.08506(13)
H4_154 H 0.5967 0.4231 0.0759
C5_154 C 0.4941(2) 0.56337(14) 0.10804(16)
H5_154 H 0.4961 0.5561 0.0905
C6_154 C 0.49496(14) 0.56703(11) 0.15007(14)
H6_154 H 0.4976 0.5634 0.1686
C7_154 C 0.55866(19) 0.38347(16) 0.03449(14)
H7_154 H 0.5510 0.3991 0.0268
C8_154 C 0.57619(15) 0.35573(13) 0.06308(12)
H8_154 H 0.5829 0.3484 0.0793
N13_90 N 0.61300(12) 0.48278(15) 0.08619(11)
N1_155 N 0.42877(11) 0.35455(10) 0.18403(10)
N2_155 N 0.45316(12) 0.36246(12) 0.17312(11)
N3_155 N 0.45070(11) 0.38143(15) 0.24863(10)
N4_155 N 0.47393(10) 0.39163(14) 0.23661(10)
N5_91 N 0.51722(15) 0.36300(12) 0.33619(11)
N6_97 N 0.51672(11) 0.39078(10) 0.33832(9)
N9_144 N 0.48363(11) 0.38220(13) 0.27748(9)
N10_144 N 0.49732(11) 0.38045(12) 0.30117(9)
N11_155 N 0.43711(10) 0.32964(10) 0.15005(10)
N12_155 N 0.43423(11) 0.30980(10) 0.13099(10)
C1_144 C 0.49293(13) 0.39113(18) 0.25384(12)
H1_155 H 0.5109 0.3963 0.2504
C2_144 C 0.45737(14) 0.37669(18) 0.27376(12)
H2_144 H 0.4455 0.3703 0.2872
C3_155 C 0.45714(14) 0.34712(14) 0.15271(13)
H3_155 H 0.4723 0.3481 0.1412
C4_155 C 0.41973(14) 0.33506(13) 0.16995(13)
H4_155 H 0.4033 0.3259 0.1731
C5_155 C 0.5059(2) 0.35804(16) 0.31337(14)
H5_155 H 0.5039 0.3405 0.3061
C6_155 C 0.50504(14) 0.40007(14) 0.31703(11)
H6_155 H 0.5024 0.4186 0.3134
C7_155 C 0.44134(19) 0.28449(14) 0.13347(16)
H7_155 H 0.4490 0.2768 0.1491
C8_155 C 0.42381(15) 0.31308(12) 0.10573(13)
H8_155 H 0.4171 0.3293 0.0984
Ag5_59 Ag 0.528389(10) 0.412650(9) 0.375951(9)
Ag6_55 Ag 0.528389(10) 0.337350(9) 0.374049(9)
H1_156 H 0.2504 0.0109 0.8963
C5_156 C 0.31337(14) 0.0059(2) 0.85804(16)
H5_156 H 0.3061 0.0039 0.8405
C6_156 C 0.31703(11) 0.00504(14) 0.90007(14)
H6_156 H 0.3134 0.0024 0.9186
Ag2_73 Ag 0.221611(10) 0.912650(9) 0.874049(9)
N1_156 N 0.18403(10) 0.92877(11) 0.85455(10)
N2_156 N 0.17312(11) 0.95316(12) 0.86246(12)
N3_156 N 0.24863(10) 0.95070(11) 0.88143(15)
N4_156 N 0.23661(10) 0.97393(10) 0.89163(14)
N9_145 N 0.27748(9) 0.98363(11) 0.88220(13)
N10_145 N 0.30117(9) 0.99732(11) 0.88045(12)
N11_156 N 0.15005(10) 0.93711(10) 0.82964(10)
N12_156 N 0.13099(10) 0.93423(11) 0.80980(10)
C1_145 C 0.25384(12) 0.99293(13) 0.89113(18)
C2_145 C 0.27376(12) 0.95737(14) 0.87669(18)
H2_145 H 0.2872 0.9455 0.8703
C3_156 C 0.15271(13) 0.95714(14) 0.84712(14)
H3_156 H 0.1412 0.9723 0.8481
C4_156 C 0.16995(13) 0.91973(14) 0.83506(13)
H4_156 H 0.1731 0.9033 0.8259
C7_156 C 0.13347(16) 0.94134(19) 0.78449(14)
H7_156 H 0.1491 0.9490 0.7768
C8_156 C 0.10573(13) 0.92381(15) 0.81308(12)
H8_156 H 0.0984 0.9171 0.8293
N13_91 N 0.23278(15) 0.88700(12) 0.83619(11)
N14_84 N 0.23328(11) 0.89078(10) 0.91168(9)
Ag2_74 Ag 0.528389(10) 0.837350(9) 0.874049(9)
N1_157 N 0.56597(10) 0.82123(11) 0.85455(10)
N2_157 N 0.57688(11) 0.79684(12) 0.86246(12)
N3_157 N 0.50137(10) 0.79930(11) 0.88143(15)
N4_157 N 0.51339(10) 0.77607(10) 0.89163(14)
N9_146 N 0.47252(9) 0.76637(11) 0.88220(13)
N10_146 N 0.44883(9) 0.75268(11) 0.88045(12)
N11_157 N 0.59995(10) 0.81289(10) 0.82964(10)
N12_157 N 0.61901(10) 0.81577(11) 0.80980(10)
C1_146 C 0.49616(12) 0.75707(13) 0.89113(18)
H1_157 H 0.4996 0.7391 0.8963
C2_146 C 0.47624(12) 0.79263(14) 0.87669(18)
H2_146 H 0.4628 0.8045 0.8703
C3_157 C 0.59729(13) 0.79286(14) 0.84712(14)
H3_157 H 0.6088 0.7777 0.8481
C4_157 C 0.58005(13) 0.83027(14) 0.83506(13)
H4_157 H 0.5769 0.8467 0.8259
C5_157 C 0.43663(14) 0.7441(2) 0.85804(16)
H5_157 H 0.4439 0.7461 0.8405
C6_157 C 0.43297(11) 0.74496(14) 0.90007(14)
H6_157 H 0.4366 0.7476 0.9186
C7_157 C 0.61653(16) 0.80866(19) 0.78449(14)
H7_157 H 0.6009 0.8010 0.7768
C8_157 C 0.64427(13) 0.82619(15) 0.81308(12)
H8_157 H 0.6516 0.8329 0.8293
N13_92 N 0.51722(15) 0.86300(12) 0.83619(11)
N14_85 N 0.51672(11) 0.85922(10) 0.91168(9)
N1_158 N 0.42877(11) 0.39545(10) 0.56597(10)
N2_158 N 0.45316(12) 0.38754(12) 0.57688(11)
N3_158 N 0.45070(11) 0.36857(15) 0.50137(10)
N4_158 N 0.47393(10) 0.35837(14) 0.51339(10)
N5_92 N 0.51722(15) 0.38700(12) 0.41381(11)
N6_98 N 0.51672(11) 0.35922(10) 0.41168(9)
N9_147 N 0.48363(11) 0.36780(13) 0.47252(9)
N10_147 N 0.49732(11) 0.36955(12) 0.44883(9)
N11_158 N 0.43711(10) 0.42036(10) 0.59995(10)
N12_158 N 0.43423(11) 0.44020(10) 0.61901(10)
C1_147 C 0.49293(13) 0.35887(18) 0.49616(12)
H1_158 H 0.5109 0.3537 0.4996
C2_147 C 0.45737(14) 0.37331(18) 0.47624(12)
H2_147 H 0.4455 0.3797 0.4628
C3_158 C 0.45714(14) 0.40288(14) 0.59729(13)
H3_158 H 0.4723 0.4019 0.6088
C4_158 C 0.41973(14) 0.41494(13) 0.58005(13)
H4_158 H 0.4033 0.4241 0.5769
C5_158 C 0.5059(2) 0.39196(16) 0.43663(14)
H5_158 H 0.5039 0.4095 0.4439
C6_158 C 0.50504(14) 0.34993(14) 0.43297(11)
H6_158 H 0.5024 0.3314 0.4366
C7_158 C 0.44134(19) 0.46551(14) 0.61653(16)
H7_158 H 0.4490 0.4732 0.6009
C8_158 C 0.42381(15) 0.43692(12) 0.64427(13)
H8_158 H 0.4171 0.4207 0.6516
H1_159 H 0.4996 0.0109 0.8537
C5_159 C 0.43663(14) 0.0059(2) 0.89196(16)
H5_159 H 0.4439 0.0039 0.9095
C6_159 C 0.43297(11) 0.00504(14) 0.84993(14)
H6_159 H 0.4366 0.0024 0.8314
Ag2_75 Ag 0.528389(10) 0.912650(9) 0.875951(9)
N1_159 N 0.56597(10) 0.92877(11) 0.89545(10)
N2_159 N 0.57688(11) 0.95316(12) 0.88754(12)
N3_159 N 0.50137(10) 0.95070(11) 0.86857(15)
N4_159 N 0.51339(10) 0.97393(10) 0.85837(14)
N9_148 N 0.47252(9) 0.98363(11) 0.86780(13)
N10_148 N 0.44883(9) 0.99732(11) 0.86955(12)
N11_159 N 0.59995(10) 0.93711(10) 0.92036(10)
N12_159 N 0.61901(10) 0.93423(11) 0.94020(10)
C1_148 C 0.49616(12) 0.99293(13) 0.85887(18)
C2_148 C 0.47624(12) 0.95737(14) 0.87331(18)
H2_148 H 0.4628 0.9455 0.8797
C3_159 C 0.59729(13) 0.95714(14) 0.90288(14)
H3_159 H 0.6088 0.9723 0.9019
C4_159 C 0.58005(13) 0.91973(14) 0.91494(13)
H4_159 H 0.5769 0.9033 0.9241
C7_159 C 0.61653(16) 0.94134(19) 0.96551(14)
H7_159 H 0.6009 0.9490 0.9732
C8_159 C 0.64427(13) 0.92381(15) 0.93692(12)
H8_159 H 0.6516 0.9171 0.9207
N13_93 N 0.51722(15) 0.88700(12) 0.91381(11)
N14_86 N 0.51672(11) 0.89078(10) 0.83832(9)
N1_160 N 0.32123(11) 0.39545(10) 0.18403(10)
N2_160 N 0.29684(12) 0.38754(12) 0.17312(11)
N3_160 N 0.29930(11) 0.36857(15) 0.24863(10)
N4_160 N 0.27607(10) 0.35837(14) 0.23661(10)
N5_93 N 0.23278(15) 0.38700(12) 0.33619(11)
N6_99 N 0.23328(11) 0.35922(10) 0.33832(9)
N9_149 N 0.26637(11) 0.36780(13) 0.27748(9)
N10_149 N 0.25268(11) 0.36955(12) 0.30117(9)
N11_160 N 0.31289(10) 0.42036(10) 0.15005(10)
N12_160 N 0.31577(11) 0.44020(10) 0.13099(10)
C1_149 C 0.25707(13) 0.35887(18) 0.25384(12)
H1_160 H 0.2391 0.3537 0.2504
C2_149 C 0.29263(14) 0.37331(18) 0.27376(12)
H2_149 H 0.3045 0.3797 0.2872
C3_160 C 0.29286(14) 0.40288(14) 0.15271(13)
H3_160 H 0.2777 0.4019 0.1412
C4_160 C 0.33027(14) 0.41494(13) 0.16995(13)
H4_160 H 0.3467 0.4241 0.1731
C5_160 C 0.2441(2) 0.39196(16) 0.31337(14)
H5_160 H 0.2461 0.4095 0.3061
C6_160 C 0.24496(14) 0.34993(14) 0.31703(11)
H6_160 H 0.2476 0.3314 0.3134
C7_160 C 0.30866(19) 0.46551(14) 0.13347(16)
H7_160 H 0.3010 0.4732 0.1491
C8_160 C 0.32619(15) 0.43692(12) 0.10573(13)
H8_160 H 0.3329 0.4207 0.0984
Ag5_60 Ag 0.221611(10) 0.337350(9) 0.375951(9)
Ag6_56 Ag 0.221611(10) 0.412650(9) 0.374049(9)
N1_161 N 0.32123(11) 0.35455(10) 0.56597(10)
N2_161 N 0.29684(12) 0.36246(12) 0.57688(11)
N3_161 N 0.29930(11) 0.38143(15) 0.50137(10)
N4_161 N 0.27607(10) 0.39163(14) 0.51339(10)
N5_94 N 0.23278(15) 0.36300(12) 0.41381(11)
N6_100 N 0.23328(11) 0.39078(10) 0.41168(9)
N9_150 N 0.26637(11) 0.38220(13) 0.47252(9)
N10_150 N 0.25268(11) 0.38045(12) 0.44883(9)
N11_161 N 0.31289(10) 0.32964(10) 0.59995(10)
N12_161 N 0.31577(11) 0.30980(10) 0.61901(10)
C1_150 C 0.25707(13) 0.39113(18) 0.49616(12)
H1_161 H 0.2391 0.3963 0.4996
C2_150 C 0.29263(14) 0.37669(18) 0.47624(12)
H2_150 H 0.3045 0.3703 0.4628
C3_161 C 0.29286(14) 0.34712(14) 0.59729(13)
H3_161 H 0.2777 0.3481 0.6088
C4_161 C 0.33027(14) 0.33506(13) 0.58005(13)
H4_161 H 0.3467 0.3259 0.5769
C5_161 C 0.2441(2) 0.35804(16) 0.43663(14)
H5_161 H 0.2461 0.3405 0.4439
C6_161 C 0.24496(14) 0.40007(14) 0.43297(11)
H6_161 H 0.2476 0.4186 0.4366
C7_161 C 0.30866(19) 0.28449(14) 0.61653(16)
H7_161 H 0.3010 0.2768 0.6009
C8_161 C 0.32619(15) 0.31308(12) 0.64427(13)
H8_161 H 0.3329 0.3293 0.6516
Ag2_76 Ag 0.221611(10) 0.837350(9) 0.875951(9)
N1_162 N 0.18403(10) 0.82123(11) 0.89545(10)
N2_162 N 0.17312(11) 0.79684(12) 0.88754(12)
N3_162 N 0.24863(10) 0.79930(11) 0.86857(15)
N4_162 N 0.23661(10) 0.77607(10) 0.85837(14)
N9_151 N 0.27748(9) 0.76637(11) 0.86780(13)
N10_151 N 0.30117(9) 0.75268(11) 0.86955(12)
N11_162 N 0.15005(10) 0.81289(10) 0.92036(10)
N12_162 N 0.13099(10) 0.81577(11) 0.94020(10)
C1_151 C 0.25384(12) 0.75707(13) 0.85887(18)
H1_162 H 0.2504 0.7391 0.8537
C2_151 C 0.27376(12) 0.79263(14) 0.87331(18)
H2_151 H 0.2872 0.8045 0.8797
C3_162 C 0.15271(13) 0.79286(14) 0.90288(14)
H3_162 H 0.1412 0.7777 0.9019
C4_162 C 0.16995(13) 0.83027(14) 0.91494(13)
H4_162 H 0.1731 0.8467 0.9241
C5_162 C 0.31337(14) 0.7441(2) 0.89196(16)
H5_162 H 0.3061 0.7461 0.9095
C6_162 C 0.31703(11) 0.74496(14) 0.84993(14)
H6_162 H 0.3134 0.7476 0.8314
C7_162 C 0.13347(16) 0.80866(19) 0.96551(14)
H7_162 H 0.1491 0.8010 0.9732
C8_162 C 0.10573(13) 0.82619(15) 0.93692(12)
H8_162 H 0.0984 0.8329 0.9207
N13_94 N 0.23278(15) 0.86300(12) 0.91381(11)
N14_87 N 0.23328(11) 0.85922(10) 0.83832(9)
N6_101 N 0.08832(9) 0.64078(10) 0.48328(11)
N9_152 N 0.02748(9) 0.63220(13) 0.51637(11)
N10_152 N 0.05117(9) 0.63045(12) 0.50268(11)
C1_152 C 0.00384(12) 0.64113(18) 0.50707(13)
H1_163 H 0.0004 0.6463 0.4891
C2_152 C 0.02376(12) 0.62669(18) 0.54263(14)
H2_152 H 0.0372 0.6203 0.5545
C5_163 C 0.06337(14) 0.60804(16) 0.4941(2)
H5_163 H 0.0561 0.5905 0.4961
C6_163 C 0.06703(11) 0.65007(14) 0.49496(14)
H6_163 H 0.0634 0.6686 0.4976
N1_163 N 0.93403(10) 0.60455(10) 0.57123(11)
N2_163 N 0.92312(11) 0.61246(12) 0.54684(12)
N3_163 N 0.99863(10) 0.63143(15) 0.54930(11)
N4_163 N 0.98661(10) 0.64163(14) 0.52607(10)
N11_163 N 0.90005(10) 0.57964(10) 0.56289(10)
N12_163 N 0.88099(10) 0.55980(10) 0.56577(11)
C3_163 C 0.90271(13) 0.59712(14) 0.54286(14)
H3_163 H 0.8912 0.5981 0.5277
C4_163 C 0.91995(13) 0.58506(13) 0.58027(14)
H4_163 H 0.9231 0.5759 0.5967
C7_163 C 0.88347(16) 0.53449(14) 0.55866(19)
H7_163 H 0.8991 0.5268 0.5510
C8_163 C 0.85573(13) 0.56308(12) 0.57619(15)
H8_163 H 0.8484 0.5793 0.5829
N1_164 N 0.81597(10) 0.64545(10) 0.07123(11)
N2_164 N 0.82688(11) 0.63754(12) 0.04684(12)
N3_164 N 0.75137(10) 0.61857(15) 0.04930(11)
N4_164 N 0.76339(10) 0.60837(14) 0.02607(10)
N9_153 N 0.72252(9) 0.61780(13) 0.01637(11)
N10_153 N 0.69883(9) 0.61955(12) 0.00268(11)
N11_164 N 0.84995(10) 0.67036(10) 0.06289(10)
N12_164 N 0.86901(10) 0.69020(10) 0.06577(11)
C1_153 C 0.74616(12) 0.60887(18) 0.00707(13)
C2_153 C 0.72624(12) 0.62331(18) 0.04263(14)
H2_153 H 0.7128 0.6297 0.0545
C3_164 C 0.84729(13) 0.65288(14) 0.04286(14)
H3_164 H 0.8588 0.6519 0.0277
C4_164 C 0.83005(13) 0.66494(13) 0.08027(14)
H4_164 H 0.8269 0.6741 0.0967
C7_164 C 0.86653(16) 0.71551(14) 0.05866(19)
H7_164 H 0.8509 0.7232 0.0510
C8_164 C 0.89427(13) 0.68692(12) 0.07619(15)
H8_164 H 0.9016 0.6707 0.0829
N6_102 N 0.66168(9) 0.60922(10) 0.98328(11)
H1_164 H 0.7496 0.6037 0.9891
C5_164 C 0.68663(14) 0.64196(16) 0.9941(2)
H5_164 H 0.6939 0.6595 0.9961
C6_164 C 0.68297(11) 0.59993(14) 0.99496(14)
H6_164 H 0.6866 0.5814 0.9976
N1_165 N 0.14545(10) 0.67877(11) 0.43403(10)
N2_165 N 0.13754(12) 0.70316(12) 0.42312(11)
N3_165 N 0.11857(15) 0.70070(11) 0.49863(10)
N4_165 N 0.10837(14) 0.72393(10) 0.48661(10)
N5_95 N 0.13700(12) 0.76722(15) 0.58619(11)
N9_154 N 0.11780(13) 0.73363(11) 0.52748(9)
N10_154 N 0.11955(12) 0.74732(11) 0.55117(9)
N11_165 N 0.17036(10) 0.68711(10) 0.40005(10)
N12_165 N 0.19020(10) 0.68423(11) 0.38099(10)
C1_154 C 0.10887(18) 0.74293(13) 0.50384(12)
H1_165 H 0.1037 0.7609 0.5004
C2_154 C 0.12331(18) 0.70737(14) 0.52376(12)
H2_154 H 0.1297 0.6955 0.5372
C3_165 C 0.15288(14) 0.70714(14) 0.40271(13)
H3_165 H 0.1519 0.7223 0.3912
C4_165 C 0.16494(13) 0.66973(14) 0.41995(13)
H4_165 H 0.1741 0.6533 0.4231
C5_165 C 0.14196(16) 0.7559(2) 0.56337(14)
H5_165 H 0.1595 0.7539 0.5561
C6_165 C 0.09993(14) 0.75504(14) 0.56703(11)
H6_165 H 0.0814 0.7524 0.5634
C7_165 C 0.21551(14) 0.69134(19) 0.38347(16)
H7_165 H 0.2232 0.6990 0.3991
C8_165 C 0.18692(12) 0.67381(15) 0.35573(13)
H8_165 H 0.1707 0.6671 0.3484
N1_166 N 0.14545(10) 0.07123(11) 0.31597(10)
N2_166 N 0.13754(12) 0.04684(12) 0.32688(11)
N3_166 N 0.11857(15) 0.04930(11) 0.25137(10)
N4_166 N 0.10837(14) 0.02607(10) 0.26339(10)
N9_155 N 0.11780(13) 0.01637(11) 0.22252(9)
N10_155 N 0.11955(12) 0.00268(11) 0.19883(9)
N11_166 N 0.17036(10) 0.06289(10) 0.34995(10)
N12_166 N 0.19020(10) 0.06577(11) 0.36901(10)
C1_155 C 0.10887(18) 0.00707(13) 0.24616(12)
C2_155 C 0.12331(18) 0.04263(14) 0.22624(12)
H2_155 H 0.1297 0.0545 0.2128
C3_166 C 0.15288(14) 0.04286(14) 0.34729(13)
H3_166 H 0.1519 0.0277 0.3588
C4_166 C 0.16494(13) 0.08027(14) 0.33005(13)
H4_166 H 0.1741 0.0967 0.3269
C7_166 C 0.21551(14) 0.05866(19) 0.36653(16)
H7_166 H 0.2232 0.0510 0.3509
C8_166 C 0.18692(12) 0.07619(15) 0.39427(13)
H8_166 H 0.1707 0.0829 0.4016
N14_88 N 0.08832(9) 0.10922(10) 0.26672(11)
H1_166 H 0.1037 0.9891 0.2496
C5_166 C 0.14196(16) 0.9941(2) 0.18663(14)
H5_166 H 0.1595 0.9961 0.1939
C6_166 C 0.09993(14) 0.99496(14) 0.18297(11)
H6_166 H 0.0814 0.9976 0.1866
N1_167 N 0.17877(11) 0.31597(10) 0.10455(10)
N2_167 N 0.20316(12) 0.32688(11) 0.11246(12)
N3_167 N 0.20070(11) 0.25137(10) 0.13143(15)
N4_167 N 0.22393(10) 0.26339(10) 0.14163(14)
N9_156 N 0.23363(11) 0.22252(9) 0.13220(13)
N10_156 N 0.24732(11) 0.19883(9) 0.13045(12)
N11_167 N 0.18711(10) 0.34995(10) 0.07964(10)
N12_167 N 0.18423(11) 0.36901(10) 0.05980(10)
C1_156 C 0.24293(13) 0.24616(12) 0.14113(18)
H1_167 H 0.2609 0.2496 0.1463
C2_156 C 0.20737(14) 0.22624(12) 0.12669(18)
H2_156 H 0.1955 0.2128 0.1203
C3_167 C 0.20714(14) 0.34729(13) 0.09712(14)
H3_167 H 0.2223 0.3588 0.0981
C4_167 C 0.16973(14) 0.33005(13) 0.08506(13)
H4_167 H 0.1533 0.3269 0.0759
C5_167 C 0.2559(2) 0.18663(14) 0.10804(16)
H5_167 H 0.2539 0.1939 0.0905
C6_167 C 0.25504(14) 0.18297(11) 0.15007(14)
H6_167 H 0.2524 0.1866 0.1686
C7_167 C 0.19134(19) 0.36653(16) 0.03449(14)
H7_167 H 0.1990 0.3509 0.0268
C8_167 C 0.17381(15) 0.39427(13) 0.06308(12)
H8_167 H 0.1671 0.4016 0.0793
N13_95 N 0.13700(12) 0.26722(15) 0.08619(11)
N1_168 N 0.57123(11) 0.31597(10) 0.64545(10)
N2_168 N 0.54684(12) 0.32688(11) 0.63754(12)
N3_168 N 0.54930(11) 0.25137(10) 0.61857(15)
N4_168 N 0.52607(10) 0.26339(10) 0.60837(14)
N9_157 N 0.51637(11) 0.22252(9) 0.61780(13)
N10_157 N 0.50268(11) 0.19883(9) 0.61955(12)
N11_168 N 0.56289(10) 0.34995(10) 0.67036(10)
N12_168 N 0.56577(11) 0.36901(10) 0.69020(10)
C1_157 C 0.50707(13) 0.24616(12) 0.60887(18)
H1_168 H 0.4891 0.2496 0.6037
C2_157 C 0.54263(14) 0.22624(12) 0.62331(18)
H2_157 H 0.5545 0.2128 0.6297
C3_168 C 0.54286(14) 0.34729(13) 0.65288(14)
H3_168 H 0.5277 0.3588 0.6519
C4_168 C 0.58027(14) 0.33005(13) 0.66494(13)
H4_168 H 0.5967 0.3269 0.6741
C5_168 C 0.4941(2) 0.18663(14) 0.64196(16)
H5_168 H 0.4961 0.1939 0.6595
C6_168 C 0.49496(14) 0.18297(11) 0.59993(14)
H6_168 H 0.4976 0.1866 0.5814
C7_168 C 0.55866(19) 0.36653(16) 0.71551(14)
H7_168 H 0.5510 0.3509 0.7232
C8_168 C 0.57619(15) 0.39427(13) 0.68692(12)
H8_168 H 0.5829 0.4016 0.6707
H1_169 H 0.8963 0.2504 0.0109
C5_169 C 0.85804(16) 0.31337(14) 0.0059(2)
H5_169 H 0.8405 0.3061 0.0039
C6_169 C 0.90007(14) 0.31703(11) 0.00504(14)
H6_169 H 0.9186 0.3134 0.0024
N1_169 N 0.85455(10) 0.18403(10) 0.92877(11)
N2_169 N 0.86246(12) 0.17312(11) 0.95316(12)
N3_169 N 0.88143(15) 0.24863(10) 0.95070(11)
N4_169 N 0.89163(14) 0.23661(10) 0.97393(10)
N9_158 N 0.88220(13) 0.27748(9) 0.98363(11)
N10_158 N 0.88045(12) 0.30117(9) 0.99732(11)
N11_169 N 0.82964(10) 0.15005(10) 0.93711(10)
N12_169 N 0.80980(10) 0.13099(10) 0.93423(11)
C1_158 C 0.89113(18) 0.25384(12) 0.99293(13)
C2_158 C 0.87669(18) 0.27376(12) 0.95737(14)
H2_158 H 0.8703 0.2872 0.9455
C3_169 C 0.84712(14) 0.15271(13) 0.95714(14)
H3_169 H 0.8481 0.1412 0.9723
C4_169 C 0.83506(13) 0.16995(13) 0.91973(14)
H4_169 H 0.8259 0.1731 0.9033
C7_169 C 0.78449(14) 0.13347(16) 0.94134(19)
H7_169 H 0.7768 0.1491 0.9490
C8_169 C 0.81308(12) 0.10573(13) 0.92381(15)
H8_169 H 0.8293 0.0984 0.9171
N1_170 N 0.81597(10) 0.60455(10) 0.17877(11)
N2_170 N 0.82688(11) 0.61246(12) 0.20316(12)
N3_170 N 0.75137(10) 0.63143(15) 0.20070(11)
N4_170 N 0.76339(10) 0.64163(14) 0.22393(10)
N6_103 N 0.66168(9) 0.64078(10) 0.26672(11)
N9_159 N 0.72252(9) 0.63220(13) 0.23363(11)
N10_159 N 0.69883(9) 0.63045(12) 0.24732(11)
N11_170 N 0.84995(10) 0.57964(10) 0.18711(10)
N12_170 N 0.86901(10) 0.55980(10) 0.18423(11)
C1_159 C 0.74616(12) 0.64113(18) 0.24293(13)
H1_170 H 0.7496 0.6463 0.2609
C2_159 C 0.72624(12) 0.62669(18) 0.20737(14)
H2_159 H 0.7128 0.6203 0.1955
C3_170 C 0.84729(13) 0.59712(14) 0.20714(14)
H3_170 H 0.8588 0.5981 0.2223
C4_170 C 0.83005(13) 0.58506(13) 0.16973(14)
H4_170 H 0.8269 0.5759 0.1533
C5_170 C 0.68663(14) 0.60804(16) 0.2559(2)
H5_170 H 0.6939 0.5905 0.2539
C6_170 C 0.68297(11) 0.65007(14) 0.25504(14)
H6_170 H 0.6866 0.6686 0.2524
C7_170 C 0.86653(16) 0.53449(14) 0.19134(19)
H7_170 H 0.8509 0.5268 0.1990
C8_170 C 0.89427(13) 0.56308(12) 0.17381(15)
H8_170 H 0.9016 0.5793 0.1671
H1_171 H 0.8537 0.4996 0.0109
C5_171 C 0.89196(16) 0.43663(14) 0.0059(2)
H5_171 H 0.9095 0.4439 0.0039
C6_171 C 0.84993(14) 0.43297(11) 0.00504(14)
H6_171 H 0.8314 0.4366 0.0024
N1_171 N 0.89545(10) 0.56597(10) 0.92877(11)
N2_171 N 0.88754(12) 0.57688(11) 0.95316(12)
N3_171 N 0.86857(15) 0.50137(10) 0.95070(11)
N4_171 N 0.85837(14) 0.51339(10) 0.97393(10)
N9_160 N 0.86780(13) 0.47252(9) 0.98363(11)
N10_160 N 0.86955(12) 0.44883(9) 0.99732(11)
N11_171 N 0.92036(10) 0.59995(10) 0.93711(10)
N12_171 N 0.94020(10) 0.61901(10) 0.93423(11)
C1_160 C 0.85887(18) 0.49616(12) 0.99293(13)
C2_160 C 0.87331(18) 0.47624(12) 0.95737(14)
H2_160 H 0.8797 0.4628 0.9455
C3_171 C 0.90288(14) 0.59729(13) 0.95714(14)
H3_171 H 0.9019 0.6088 0.9723
C4_171 C 0.91494(13) 0.58005(13) 0.91973(14)
H4_171 H 0.9241 0.5769 0.9033
C7_171 C 0.96551(14) 0.61653(16) 0.94134(19)
H7_171 H 0.9732 0.6009 0.9490
C8_171 C 0.93692(12) 0.64427(13) 0.92381(15)
H8_171 H 0.9207 0.6516 0.9171
N9_161 N 0.02748(9) 0.11780(13) 0.23363(11)
N10_161 N 0.05117(9) 0.11955(12) 0.24732(11)
C1_161 C 0.00384(12) 0.10887(18) 0.24293(13)
H1_172 H 0.0004 0.1037 0.2609
C2_161 C 0.02376(12) 0.12331(18) 0.20737(14)
H2_161 H 0.0372 0.1297 0.1955
C5_172 C 0.06337(14) 0.14196(16) 0.2559(2)
H5_172 H 0.0561 0.1595 0.2539
C6_172 C 0.06703(11) 0.09993(14) 0.25504(14)
H6_172 H 0.0634 0.0814 0.2524
N1_172 N 0.93403(10) 0.14545(10) 0.17877(11)
N2_172 N 0.92312(11) 0.13754(12) 0.20316(12)
N3_172 N 0.99863(10) 0.11857(15) 0.20070(11)
N4_172 N 0.98661(10) 0.10837(14) 0.22393(10)
N11_172 N 0.90005(10) 0.17036(10) 0.18711(10)
N12_172 N 0.88099(10) 0.19020(10) 0.18423(11)
C3_172 C 0.90271(13) 0.15288(14) 0.20714(14)
H3_172 H 0.8912 0.1519 0.2223
C4_172 C 0.91995(13) 0.16494(13) 0.16973(14)
H4_172 H 0.9231 0.1741 0.1533
C7_172 C 0.88347(16) 0.21551(14) 0.19134(19)
H7_172 H 0.8991 0.2232 0.1990
C8_172 C 0.85573(13) 0.18692(12) 0.17381(15)
H8_172 H 0.8484 0.1707 0.1671
N9_162 N 0.63220(13) 0.51637(11) 0.02748(9)
N10_162 N 0.63045(12) 0.50268(11) 0.05117(9)
C1_162 C 0.64113(18) 0.50707(13) 0.00384(12)
H1_173 H 0.6463 0.4891 0.0004
C2_162 C 0.62669(18) 0.54263(14) 0.02376(12)
H2_162 H 0.6203 0.5545 0.0372
C5_173 C 0.60804(16) 0.4941(2) 0.06337(14)
H5_173 H 0.5905 0.4961 0.0561
C6_173 C 0.65007(14) 0.49496(14) 0.06703(11)
H6_173 H 0.6686 0.4976 0.0634
N1_173 N 0.60455(10) 0.57123(11) 0.93403(10)
N2_173 N 0.61246(12) 0.54684(12) 0.92312(11)
N3_173 N 0.63143(15) 0.54930(11) 0.99863(10)
N4_173 N 0.64163(14) 0.52607(10) 0.98661(10)
N11_173 N 0.57964(10) 0.56289(10) 0.90005(10)
N12_173 N 0.55980(10) 0.56577(11) 0.88099(10)
C3_173 C 0.59712(14) 0.54286(14) 0.90271(13)
H3_173 H 0.5981 0.5277 0.8912
C4_173 C 0.58506(13) 0.58027(14) 0.91995(13)
H4_173 H 0.5759 0.5967 0.9231
C7_173 C 0.53449(14) 0.55866(19) 0.88347(16)
H7_173 H 0.5268 0.5510 0.8991
C8_173 C 0.56308(12) 0.57619(15) 0.85573(13)
H8_173 H 0.5793 0.5829 0.8484
N1_174 N 0.85455(10) 0.56597(10) 0.82123(11)
N2_174 N 0.86246(12) 0.57688(11) 0.79684(12)
N3_174 N 0.88143(15) 0.50137(10) 0.79930(11)
N4_174 N 0.89163(14) 0.51339(10) 0.77607(10)
N9_163 N 0.88220(13) 0.47252(9) 0.76637(11)
N10_163 N 0.88045(12) 0.44883(9) 0.75268(11)
N11_174 N 0.82964(10) 0.59995(10) 0.81289(10)
N12_174 N 0.80980(10) 0.61901(10) 0.81577(11)
C1_163 C 0.89113(18) 0.49616(12) 0.75707(13)
H1_174 H 0.8963 0.4996 0.7391
C2_163 C 0.87669(18) 0.47624(12) 0.79263(14)
H2_163 H 0.8703 0.4628 0.8045
C3_174 C 0.84712(14) 0.59729(13) 0.79286(14)
H3_174 H 0.8481 0.6088 0.7777
C4_174 C 0.83506(13) 0.58005(13) 0.83027(14)
H4_174 H 0.8259 0.5769 0.8467
C5_174 C 0.85804(16) 0.43663(14) 0.7441(2)
H5_174 H 0.8405 0.4439 0.7461
C6_174 C 0.90007(14) 0.43297(11) 0.74496(14)
H6_174 H 0.9186 0.4366 0.7476
C7_174 C 0.78449(14) 0.61653(16) 0.80866(19)
H7_174 H 0.7768 0.6009 0.8010
C8_174 C 0.81308(12) 0.64427(13) 0.82619(15)
H8_174 H 0.8293 0.6516 0.8329
N1_175 N 0.60455(10) 0.67877(11) 0.31597(10)
N2_175 N 0.61246(12) 0.70316(12) 0.32688(11)
N3_175 N 0.63143(15) 0.70070(11) 0.25137(10)
N4_175 N 0.64163(14) 0.72393(10) 0.26339(10)
N5_96 N 0.61300(12) 0.76722(15) 0.16381(11)
N9_164 N 0.63220(13) 0.73363(11) 0.22252(9)
N10_164 N 0.63045(12) 0.74732(11) 0.19883(9)
N11_175 N 0.57964(10) 0.68711(10) 0.34995(10)
N12_175 N 0.55980(10) 0.68423(11) 0.36901(10)
C1_164 C 0.64113(18) 0.74293(13) 0.24616(12)
H1_175 H 0.6463 0.7609 0.2496
C2_164 C 0.62669(18) 0.70737(14) 0.22624(12)
H2_164 H 0.6203 0.6955 0.2128
C3_175 C 0.59712(14) 0.70714(14) 0.34729(13)
H3_175 H 0.5981 0.7223 0.3588
C4_175 C 0.58506(13) 0.66973(14) 0.33005(13)
H4_175 H 0.5759 0.6533 0.3269
C5_175 C 0.60804(16) 0.7559(2) 0.18663(14)
H5_175 H 0.5905 0.7539 0.1939
C6_175 C 0.65007(14) 0.75504(14) 0.18297(11)
H6_175 H 0.6686 0.7524 0.1866
C7_175 C 0.53449(14) 0.69134(19) 0.36653(16)
H7_175 H 0.5268 0.6990 0.3509
C8_175 C 0.56308(12) 0.67381(15) 0.39427(13)
H8_175 H 0.5793 0.6671 0.4016
N1_176 N 0.17877(11) 0.43403(10) 0.64545(10)
N2_176 N 0.20316(12) 0.42312(11) 0.63754(12)
N3_176 N 0.20070(11) 0.49863(10) 0.61857(15)
N4_176 N 0.22393(10) 0.48661(10) 0.60837(14)
N9_165 N 0.23363(11) 0.52748(9) 0.61780(13)
N10_165 N 0.24732(11) 0.55117(9) 0.61955(12)
N11_176 N 0.18711(10) 0.40005(10) 0.67036(10)
N12_176 N 0.18423(11) 0.38099(10) 0.69020(10)
C1_165 C 0.24293(13) 0.50384(12) 0.60887(18)
H1_176 H 0.2609 0.5004 0.6037
C2_165 C 0.20737(14) 0.52376(12) 0.62331(18)
H2_165 H 0.1955 0.5372 0.6297
C3_176 C 0.20714(14) 0.40271(13) 0.65288(14)
H3_176 H 0.2223 0.3912 0.6519
C4_176 C 0.16973(14) 0.41995(13) 0.66494(13)
H4_176 H 0.1533 0.4231 0.6741
C5_176 C 0.2559(2) 0.56337(14) 0.64196(16)
H5_176 H 0.2539 0.5561 0.6595
C6_176 C 0.25504(14) 0.56703(11) 0.59993(14)
H6_176 H 0.2524 0.5634 0.5814
C7_176 C 0.19134(19) 0.38347(16) 0.71551(14)
H7_176 H 0.1990 0.3991 0.7232
C8_176 C 0.17381(15) 0.35573(13) 0.68692(12)
H8_176 H 0.1671 0.3484 0.6707
N13_96 N 0.13700(12) 0.48278(15) 0.66381(11)
N1_177 N 0.89545(10) 0.18403(10) 0.82123(11)
N2_177 N 0.88754(12) 0.17312(11) 0.79684(12)
N3_177 N 0.86857(15) 0.24863(10) 0.79930(11)
N4_177 N 0.85837(14) 0.23661(10) 0.77607(10)
N9_166 N 0.86780(13) 0.27748(9) 0.76637(11)
N10_166 N 0.86955(12) 0.30117(9) 0.75268(11)
N11_177 N 0.92036(10) 0.15005(10) 0.81289(10)
N12_177 N 0.94020(10) 0.13099(10) 0.81577(11)
C1_166 C 0.85887(18) 0.25384(12) 0.75707(13)
H1_177 H 0.8537 0.2504 0.7391
C2_166 C 0.87331(18) 0.27376(12) 0.79263(14)
H2_166 H 0.8797 0.2872 0.8045
C3_177 C 0.90288(14) 0.15271(13) 0.79286(14)
H3_177 H 0.9019 0.1412 0.7777
C4_177 C 0.91494(13) 0.16995(13) 0.83027(14)
H4_177 H 0.9241 0.1731 0.8467
C5_177 C 0.89196(16) 0.31337(14) 0.7441(2)
H5_177 H 0.9095 0.3061 0.7461
C6_177 C 0.84993(14) 0.31703(11) 0.74496(14)
H6_177 H 0.8314 0.3134 0.7476
C7_177 C 0.96551(14) 0.13347(16) 0.80866(19)
H7_177 H 0.9732 0.1491 0.8010
C8_177 C 0.93692(12) 0.10573(13) 0.82619(15)
H8_177 H 0.9207 0.0984 0.8329
N9_167 N 0.51637(11) 0.02748(9) 0.63220(13)
N10_167 N 0.50268(11) 0.05117(9) 0.63045(12)
C1_167 C 0.50707(13) 0.00384(12) 0.64113(18)
H1_178 H 0.4891 0.0004 0.6463
C2_167 C 0.54263(14) 0.02376(12) 0.62669(18)
H2_167 H 0.5545 0.0372 0.6203
C5_178 C 0.4941(2) 0.06337(14) 0.60804(16)
H5_178 H 0.4961 0.0561 0.5905
C6_178 C 0.49496(14) 0.06703(11) 0.65007(14)
H6_178 H 0.4976 0.0634 0.6686
N1_178 N 0.57123(11) 0.93403(10) 0.60455(10)
N2_178 N 0.54684(12) 0.92312(11) 0.61246(12)
N3_178 N 0.54930(11) 0.99863(10) 0.63143(15)
N4_178 N 0.52607(10) 0.98661(10) 0.64163(14)
N11_178 N 0.56289(10) 0.90005(10) 0.57964(10)
N12_178 N 0.56577(11) 0.88099(10) 0.55980(10)
C3_178 C 0.54286(14) 0.90271(13) 0.59712(14)
H3_178 H 0.5277 0.8912 0.5981
C4_178 C 0.58027(14) 0.91995(13) 0.58506(13)
H4_178 H 0.5967 0.9231 0.5759
C7_178 C 0.55866(19) 0.88347(16) 0.53449(14)
H7_178 H 0.5510 0.8991 0.5268
C8_178 C 0.57619(15) 0.85573(13) 0.56308(12)
H8_178 H 0.5829 0.8484 0.5793
N1_179 N 0.42877(11) 0.85455(10) 0.68403(10)
N2_179 N 0.45316(12) 0.86246(12) 0.67312(11)
N3_179 N 0.45070(11) 0.88143(15) 0.74863(10)
N4_179 N 0.47393(10) 0.89163(14) 0.73661(10)
N9_168 N 0.48363(11) 0.88220(13) 0.77748(9)
N10_168 N 0.49732(11) 0.88045(12) 0.80117(9)
N11_179 N 0.43711(10) 0.82964(10) 0.65005(10)
N12_179 N 0.43423(11) 0.80980(10) 0.63099(10)
C1_168 C 0.49293(13) 0.89113(18) 0.75384(12)
H1_179 H 0.5109 0.8963 0.7504
C2_168 C 0.45737(14) 0.87669(18) 0.77376(12)
H2_168 H 0.4455 0.8703 0.7872
C3_179 C 0.45714(14) 0.84712(14) 0.65271(13)
H3_179 H 0.4723 0.8481 0.6412
C4_179 C 0.41973(14) 0.83506(13) 0.66995(13)
H4_179 H 0.4033 0.8259 0.6731
C5_179 C 0.5059(2) 0.85804(16) 0.81337(14)
H5_179 H 0.5039 0.8405 0.8061
C6_179 C 0.50504(14) 0.90007(14) 0.81703(11)
H6_179 H 0.5024 0.9186 0.8134
C7_179 C 0.44134(19) 0.78449(14) 0.63347(16)
H7_179 H 0.4490 0.7768 0.6491
C8_179 C 0.42381(15) 0.81308(12) 0.60573(13)
H8_179 H 0.4171 0.8293 0.5984
N1_180 N 0.18403(10) 0.42877(11) 0.35455(10)
N2_180 N 0.17312(11) 0.45316(12) 0.36246(12)
N3_180 N 0.24863(10) 0.45070(11) 0.38143(15)
N4_180 N 0.23661(10) 0.47393(10) 0.39163(14)
N9_169 N 0.27748(9) 0.48363(11) 0.38220(13)
N10_169 N 0.30117(9) 0.49732(11) 0.38045(12)
N11_180 N 0.15005(10) 0.43711(10) 0.32964(10)
N12_180 N 0.13099(10) 0.43423(11) 0.30980(10)
C1_169 C 0.25384(12) 0.49293(13) 0.39113(18)
H1_180 H 0.2504 0.5109 0.3963
C2_169 C 0.27376(12) 0.45737(14) 0.37669(18)
H2_169 H 0.2872 0.4455 0.3703
C3_180 C 0.15271(13) 0.45714(14) 0.34712(14)
H3_180 H 0.1412 0.4723 0.3481
C4_180 C 0.16995(13) 0.41973(14) 0.33506(13)
H4_180 H 0.1731 0.4033 0.3259
C5_180 C 0.31337(14) 0.5059(2) 0.35804(16)
H5_180 H 0.3061 0.5039 0.3405
C6_180 C 0.31703(11) 0.50504(14) 0.40007(14)
H6_180 H 0.3134 0.5024 0.4186
C7_180 C 0.13347(16) 0.44134(19) 0.28449(14)
H7_180 H 0.1491 0.4490 0.2768
C8_180 C 0.10573(13) 0.42381(15) 0.31308(12)
H8_180 H 0.0984 0.4171 0.3293
N1_181 N 0.56597(10) 0.32123(11) 0.35455(10)
N2_181 N 0.57688(11) 0.29684(12) 0.36246(12)
N3_181 N 0.50137(10) 0.29930(11) 0.38143(15)
N4_181 N 0.51339(10) 0.27607(10) 0.39163(14)
N9_170 N 0.47252(9) 0.26637(11) 0.38220(13)
N10_170 N 0.44883(9) 0.25268(11) 0.38045(12)
N11_181 N 0.59995(10) 0.31289(10) 0.32964(10)
N12_181 N 0.61901(10) 0.31577(11) 0.30980(10)
C1_170 C 0.49616(12) 0.25707(13) 0.39113(18)
H1_181 H 0.4996 0.2391 0.3963
C2_170 C 0.47624(12) 0.29263(14) 0.37669(18)
H2_170 H 0.4628 0.3045 0.3703
C3_181 C 0.59729(13) 0.29286(14) 0.34712(14)
H3_181 H 0.6088 0.2777 0.3481
C4_181 C 0.58005(13) 0.33027(14) 0.33506(13)
H4_181 H 0.5769 0.3467 0.3259
C5_181 C 0.43663(14) 0.2441(2) 0.35804(16)
H5_181 H 0.4439 0.2461 0.3405
C6_181 C 0.43297(11) 0.24496(14) 0.40007(14)
H6_181 H 0.4366 0.2476 0.4186
C7_181 C 0.61653(16) 0.30866(19) 0.28449(14)
H7_181 H 0.6009 0.3010 0.2768
C8_181 C 0.64427(13) 0.32619(15) 0.31308(12)
H8_181 H 0.6516 0.3329 0.3293
N1_182 N 0.42877(11) 0.89545(10) 0.06597(10)
N2_182 N 0.45316(12) 0.88754(12) 0.07688(11)
N3_182 N 0.45070(11) 0.86857(15) 0.00137(10)
N4_182 N 0.47393(10) 0.85837(14) 0.01339(10)
N11_182 N 0.43711(10) 0.92036(10) 0.09995(10)
N12_182 N 0.43423(11) 0.94020(10) 0.11901(10)
C3_182 C 0.45714(14) 0.90288(14) 0.09729(13)
H3_182 H 0.4723 0.9019 0.1088
C4_182 C 0.41973(14) 0.91494(13) 0.08005(13)
H4_182 H 0.4033 0.9241 0.0769
C7_182 C 0.44134(19) 0.96551(14) 0.11653(16)
H7_182 H 0.4490 0.9732 0.1009
C8_182 C 0.42381(15) 0.93692(12) 0.14427(13)
H8_182 H 0.4171 0.9207 0.1516
N9_171 N 0.48363(11) 0.86780(13) 0.97252(9)
N10_171 N 0.49732(11) 0.86955(12) 0.94883(9)
C1_171 C 0.49293(13) 0.85887(18) 0.99616(12)
H1_182 H 0.5109 0.8537 0.9996
C2_171 C 0.45737(14) 0.87331(18) 0.97624(12)
H2_171 H 0.4455 0.8797 0.9628
C5_182 C 0.5059(2) 0.89196(16) 0.93663(14)
H5_182 H 0.5039 0.9095 0.9439
C6_182 C 0.50504(14) 0.84993(14) 0.93297(11)
H6_182 H 0.5024 0.8314 0.9366
N1_183 N 0.56597(10) 0.42877(11) 0.39545(10)
N2_183 N 0.57688(11) 0.45316(12) 0.38754(12)
N3_183 N 0.50137(10) 0.45070(11) 0.36857(15)
N4_183 N 0.51339(10) 0.47393(10) 0.35837(14)
N9_172 N 0.47252(9) 0.48363(11) 0.36780(13)
N10_172 N 0.44883(9) 0.49732(11) 0.36955(12)
N11_183 N 0.59995(10) 0.43711(10) 0.42036(10)
N12_183 N 0.61901(10) 0.43423(11) 0.44020(10)
C1_172 C 0.49616(12) 0.49293(13) 0.35887(18)
H1_183 H 0.4996 0.5109 0.3537
C2_172 C 0.47624(12) 0.45737(14) 0.37331(18)
H2_172 H 0.4628 0.4455 0.3797
C3_183 C 0.59729(13) 0.45714(14) 0.40288(14)
H3_183 H 0.6088 0.4723 0.4019
C4_183 C 0.58005(13) 0.41973(14) 0.41494(13)
H4_183 H 0.5769 0.4033 0.4241
C5_183 C 0.43663(14) 0.5059(2) 0.39196(16)
H5_183 H 0.4439 0.5039 0.4095
C6_183 C 0.43297(11) 0.50504(14) 0.34993(14)
H6_183 H 0.4366 0.5024 0.3314
C7_183 C 0.61653(16) 0.44134(19) 0.46551(14)
H7_183 H 0.6009 0.4490 0.4732
C8_183 C 0.64427(13) 0.42381(15) 0.43692(12)
H8_183 H 0.6516 0.4171 0.4207
N1_184 N 0.32123(11) 0.89545(10) 0.68403(10)
N2_184 N 0.29684(12) 0.88754(12) 0.67312(11)
N3_184 N 0.29930(11) 0.86857(15) 0.74863(10)
N4_184 N 0.27607(10) 0.85837(14) 0.73661(10)
N9_173 N 0.26637(11) 0.86780(13) 0.77748(9)
N10_173 N 0.25268(11) 0.86955(12) 0.80117(9)
N11_184 N 0.31289(10) 0.92036(10) 0.65005(10)
N12_184 N 0.31577(11) 0.94020(10) 0.63099(10)
C1_173 C 0.25707(13) 0.85887(18) 0.75384(12)
H1_184 H 0.2391 0.8537 0.7504
C2_173 C 0.29263(14) 0.87331(18) 0.77376(12)
H2_173 H 0.3045 0.8797 0.7872
C3_184 C 0.29286(14) 0.90288(14) 0.65271(13)
H3_184 H 0.2777 0.9019 0.6412
C4_184 C 0.33027(14) 0.91494(13) 0.66995(13)
H4_184 H 0.3467 0.9241 0.6731
C5_184 C 0.2441(2) 0.89196(16) 0.81337(14)
H5_184 H 0.2461 0.9095 0.8061
C6_184 C 0.24496(14) 0.84993(14) 0.81703(11)
H6_184 H 0.2476 0.8314 0.8134
C7_184 C 0.30866(19) 0.96551(14) 0.63347(16)
H7_184 H 0.3010 0.9732 0.6491
C8_184 C 0.32619(15) 0.93692(12) 0.60573(13)
H8_184 H 0.3329 0.9207 0.5984
N1_185 N 0.32123(11) 0.85455(10) 0.06597(10)
N2_185 N 0.29684(12) 0.86246(12) 0.07688(11)
N3_185 N 0.29930(11) 0.88143(15) 0.00137(10)
N4_185 N 0.27607(10) 0.89163(14) 0.01339(10)
N11_185 N 0.31289(10) 0.82964(10) 0.09995(10)
N12_185 N 0.31577(11) 0.80980(10) 0.11901(10)
C3_185 C 0.29286(14) 0.84712(14) 0.09729(13)
H3_185 H 0.2777 0.8481 0.1088
C4_185 C 0.33027(14) 0.83506(13) 0.08005(13)
H4_185 H 0.3467 0.8259 0.0769
C7_185 C 0.30866(19) 0.78449(14) 0.11653(16)
H7_185 H 0.3010 0.7768 0.1009
C8_185 C 0.32619(15) 0.81308(12) 0.14427(13)
H8_185 H 0.3329 0.8293 0.1516
N9_174 N 0.26637(11) 0.88220(13) 0.97252(9)
N10_174 N 0.25268(11) 0.88045(12) 0.94883(9)
C1_174 C 0.25707(13) 0.89113(18) 0.99616(12)
H1_185 H 0.2391 0.8963 0.9996
C2_174 C 0.29263(14) 0.87669(18) 0.97624(12)
H2_174 H 0.3045 0.8703 0.9628
C5_185 C 0.2441(2) 0.85804(16) 0.93663(14)
H5_185 H 0.2461 0.8405 0.9439
C6_185 C 0.24496(14) 0.90007(14) 0.93297(11)
H6_185 H 0.2476 0.9186 0.9366
N1_186 N 0.18403(10) 0.32123(11) 0.39545(10)
N2_186 N 0.17312(11) 0.29684(12) 0.38754(12)
N3_186 N 0.24863(10) 0.29930(11) 0.36857(15)
N4_186 N 0.23661(10) 0.27607(10) 0.35837(14)
N9_175 N 0.27748(9) 0.26637(11) 0.36780(13)
N10_175 N 0.30117(9) 0.25268(11) 0.36955(12)
N11_186 N 0.15005(10) 0.31289(10) 0.42036(10)
N12_186 N 0.13099(10) 0.31577(11) 0.44020(10)
C1_175 C 0.25384(12) 0.25707(13) 0.35887(18)
H1_186 H 0.2504 0.2391 0.3537
C2_175 C 0.27376(12) 0.29263(14) 0.37331(18)
H2_175 H 0.2872 0.3045 0.3797
C3_186 C 0.15271(13) 0.29286(14) 0.40288(14)
H3_186 H 0.1412 0.2777 0.4019
C4_186 C 0.16995(13) 0.33027(14) 0.41494(13)
H4_186 H 0.1731 0.3467 0.4241
C5_186 C 0.31337(14) 0.2441(2) 0.39196(16)
H5_186 H 0.3061 0.2461 0.4095
C6_186 C 0.31703(11) 0.24496(14) 0.34993(14)
H6_186 H 0.3134 0.2476 0.3314
C7_186 C 0.13347(16) 0.30866(19) 0.46551(14)
H7_186 H 0.1491 0.3010 0.4732
C8_186 C 0.10573(13) 0.32619(15) 0.43692(12)
H8_186 H 0.0984 0.3329 0.4207
N6_104 N 0.08832(9) 0.14078(10) 0.98328(11)
H1_187 H 0.0004 0.1463 0.9891
C5_187 C 0.06337(14) 0.10804(16) 0.9941(2)
H5_187 H 0.0561 0.0905 0.9961
C6_187 C 0.06703(11) 0.15007(14) 0.99496(14)
H6_187 H 0.0634 0.1686 0.9976
N1_187 N 0.93403(10) 0.10455(10) 0.07123(11)
N2_187 N 0.92312(11) 0.11246(12) 0.04684(12)
N3_187 N 0.99863(10) 0.13143(15) 0.04930(11)
N4_187 N 0.98661(10) 0.14163(14) 0.02607(10)
N11_187 N 0.90005(10) 0.07964(10) 0.06289(10)
N12_187 N 0.88099(10) 0.05980(10) 0.06577(11)
C3_187 C 0.90271(13) 0.09712(14) 0.04286(14)
H3_187 H 0.8912 0.0981 0.0277
C4_187 C 0.91995(13) 0.08506(13) 0.08027(14)
H4_187 H 0.9231 0.0759 0.0967
C7_187 C 0.88347(16) 0.03449(14) 0.05866(19)
H7_187 H 0.8991 0.0268 0.0510
C8_187 C 0.85573(13) 0.06308(12) 0.07619(15)
H8_187 H 0.8484 0.0793 0.0829
N1_188 N 0.81597(10) 0.14545(10) 0.57123(11)
N2_188 N 0.82688(11) 0.13754(12) 0.54684(12)
N3_188 N 0.75137(10) 0.11857(15) 0.54930(11)
N4_188 N 0.76339(10) 0.10837(14) 0.52607(10)
N9_176 N 0.72252(9) 0.11780(13) 0.51637(11)
N10_176 N 0.69883(9) 0.11955(12) 0.50268(11)
N11_188 N 0.84995(10) 0.17036(10) 0.56289(10)
N12_188 N 0.86901(10) 0.19020(10) 0.56577(11)
C1_176 C 0.74616(12) 0.10887(18) 0.50707(13)
H1_188 H 0.7496 0.1037 0.4891
C2_176 C 0.72624(12) 0.12331(18) 0.54263(14)
H2_176 H 0.7128 0.1297 0.5545
C3_188 C 0.84729(13) 0.15288(14) 0.54286(14)
H3_188 H 0.8588 0.1519 0.5277
C4_188 C 0.83005(13) 0.16494(13) 0.58027(14)
H4_188 H 0.8269 0.1741 0.5967
C5_188 C 0.68663(14) 0.14196(16) 0.4941(2)
H5_188 H 0.6939 0.1595 0.4961
C6_188 C 0.68297(11) 0.09993(14) 0.49496(14)
H6_188 H 0.6866 0.0814 0.4976
C7_188 C 0.86653(16) 0.21551(14) 0.55866(19)
H7_188 H 0.8509 0.2232 0.5510
C8_188 C 0.89427(13) 0.18692(12) 0.57619(15)
H8_188 H 0.9016 0.1707 0.5829
N9_177 N 0.11780(13) 0.23363(11) 0.02748(9)
N10_177 N 0.11955(12) 0.24732(11) 0.05117(9)
C1_177 C 0.10887(18) 0.24293(13) 0.00384(12)
H1_189 H 0.1037 0.2609 0.0004
C2_177 C 0.12331(18) 0.20737(14) 0.02376(12)
H2_177 H 0.1297 0.1955 0.0372
C5_189 C 0.14196(16) 0.2559(2) 0.06337(14)
H5_189 H 0.1595 0.2539 0.0561
C6_189 C 0.09993(14) 0.25504(14) 0.06703(11)
H6_189 H 0.0814 0.2524 0.0634
N1_189 N 0.14545(10) 0.17877(11) 0.93403(10)
N2_189 N 0.13754(12) 0.20316(12) 0.92312(11)
N3_189 N 0.11857(15) 0.20070(11) 0.99863(10)
N4_189 N 0.10837(14) 0.22393(10) 0.98661(10)
N11_189 N 0.17036(10) 0.18711(10) 0.90005(10)
N12_189 N 0.19020(10) 0.18423(11) 0.88099(10)
C3_189 C 0.15288(14) 0.20714(14) 0.90271(13)
H3_189 H 0.1519 0.2223 0.8912
C4_189 C 0.16494(13) 0.16973(14) 0.91995(13)
H4_189 H 0.1741 0.1533 0.9231
C7_189 C 0.21551(14) 0.19134(19) 0.88347(16)
H7_189 H 0.2232 0.1990 0.8991
C8_189 C 0.18692(12) 0.17381(15) 0.85573(13)
H8_189 H 0.1707 0.1671 0.8484
N1_190 N 0.14545(10) 0.57123(11) 0.81597(10)
N2_190 N 0.13754(12) 0.54684(12) 0.82688(11)
N3_190 N 0.11857(15) 0.54930(11) 0.75137(10)
N4_190 N 0.10837(14) 0.52607(10) 0.76339(10)
N9_178 N 0.11780(13) 0.51637(11) 0.72252(9)
N10_178 N 0.11955(12) 0.50268(11) 0.69883(9)
N11_190 N 0.17036(10) 0.56289(10) 0.84995(10)
N12_190 N 0.19020(10) 0.56577(11) 0.86901(10)
C1_178 C 0.10887(18) 0.50707(13) 0.74616(12)
H1_190 H 0.1037 0.4891 0.7496
C2_178 C 0.12331(18) 0.54263(14) 0.72624(12)
H2_178 H 0.1297 0.5545 0.7128
C3_190 C 0.15288(14) 0.54286(14) 0.84729(13)
H3_190 H 0.1519 0.5277 0.8588
C4_190 C 0.16494(13) 0.58027(14) 0.83005(13)
H4_190 H 0.1741 0.5967 0.8269
C5_190 C 0.14196(16) 0.4941(2) 0.68663(14)
H5_190 H 0.1595 0.4961 0.6939
C6_190 C 0.09993(14) 0.49496(14) 0.68297(11)
H6_190 H 0.0814 0.4976 0.6866
C7_190 C 0.21551(14) 0.55866(19) 0.86653(16)
H7_190 H 0.2232 0.5510 0.8509
C8_190 C 0.18692(12) 0.57619(15) 0.89427(13)
H8_190 H 0.1707 0.5829 0.9016
N1_191 N 0.17877(11) 0.81597(10) 0.60455(10)
N2_191 N 0.20316(12) 0.82688(11) 0.61246(12)
N3_191 N 0.20070(11) 0.75137(10) 0.63143(15)
N4_191 N 0.22393(10) 0.76339(10) 0.64163(14)
N9_179 N 0.23363(11) 0.72252(9) 0.63220(13)
N10_179 N 0.24732(11) 0.69883(9) 0.63045(12)
N11_191 N 0.18711(10) 0.84995(10) 0.57964(10)
N12_191 N 0.18423(11) 0.86901(10) 0.55980(10)
C1_179 C 0.24293(13) 0.74616(12) 0.64113(18)
H1_191 H 0.2609 0.7496 0.6463
C2_179 C 0.20737(14) 0.72624(12) 0.62669(18)
H2_179 H 0.1955 0.7128 0.6203
C3_191 C 0.20714(14) 0.84729(13) 0.59712(14)
H3_191 H 0.2223 0.8588 0.5981
C4_191 C 0.16973(14) 0.83005(13) 0.58506(13)
H4_191 H 0.1533 0.8269 0.5759
C5_191 C 0.2559(2) 0.68663(14) 0.60804(16)
H5_191 H 0.2539 0.6939 0.5905
C6_191 C 0.25504(14) 0.68297(11) 0.65007(14)
H6_191 H 0.2524 0.6866 0.6686
C7_191 C 0.19134(19) 0.86653(16) 0.53449(14)
H7_191 H 0.1990 0.8509 0.5268
C8_191 C 0.17381(15) 0.89427(13) 0.56308(12)
H8_191 H 0.1671 0.9016 0.5793
N1_192 N 0.57123(11) 0.81597(10) 0.14545(10)
N2_192 N 0.54684(12) 0.82688(11) 0.13754(12)
N3_192 N 0.54930(11) 0.75137(10) 0.11857(15)
N4_192 N 0.52607(10) 0.76339(10) 0.10837(14)
N9_180 N 0.51637(11) 0.72252(9) 0.11780(13)
N10_180 N 0.50268(11) 0.69883(9) 0.11955(12)
N11_192 N 0.56289(10) 0.84995(10) 0.17036(10)
N12_192 N 0.56577(11) 0.86901(10) 0.19020(10)
C1_180 C 0.50707(13) 0.74616(12) 0.10887(18)
H1_192 H 0.4891 0.7496 0.1037
C2_180 C 0.54263(14) 0.72624(12) 0.12331(18)
H2_180 H 0.5545 0.7128 0.1297
C3_192 C 0.54286(14) 0.84729(13) 0.15288(14)
H3_192 H 0.5277 0.8588 0.1519
C4_192 C 0.58027(14) 0.83005(13) 0.16494(13)
H4_192 H 0.5967 0.8269 0.1741
C5_192 C 0.4941(2) 0.68663(14) 0.14196(16)
H5_192 H 0.4961 0.6939 0.1595
C6_192 C 0.49496(14) 0.68297(11) 0.09993(14)
H6_192 H 0.4976 0.6866 0.0814
C7_192 C 0.55866(19) 0.86653(16) 0.21551(14)
H7_192 H 0.5510 0.8509 0.2232
C8_192 C 0.57619(15) 0.89427(13) 0.18692(12)
H8_192 H 0.5829 0.9016 0.1707
N9_181 N 0.63220(13) 0.02748(9) 0.01637(11)
N10_181 N 0.63045(12) 0.05117(9) 0.00268(11)
C1_181 C 0.64113(18) 0.00384(12) 0.00707(13)
C2_181 C 0.62669(18) 0.02376(12) 0.04263(14)
H2_181 H 0.6203 0.0372 0.0545
N9_182 N 0.86780(13) 0.98363(11) 0.97252(9)
N10_182 N 0.86955(12) 0.99732(11) 0.94883(9)
C1_182 C 0.85887(18) 0.99293(13) 0.99616(12)
C2_182 C 0.87331(18) 0.95737(14) 0.97624(12)
H2_182 H 0.8797 0.9455 0.9628
N9_183 N 0.01637(11) 0.63220(13) 0.02748(9)
N10_183 N 0.00268(11) 0.63045(12) 0.05117(9)
C1_183 C 0.00707(13) 0.64113(18) 0.00384(12)
C2_183 C 0.04263(14) 0.62669(18) 0.02376(12)
H2_183 H 0.0545 0.6203 0.0372
N9_184 N 0.02748(9) 0.01637(11) 0.63220(13)
N10_184 N 0.05117(9) 0.00268(11) 0.63045(12)
C1_184 C 0.00384(12) 0.00707(13) 0.64113(18)
C2_184 C 0.02376(12) 0.04263(14) 0.62669(18)
H2_184 H 0.0372 0.0545 0.6203
N9_185 N 0.98363(11) 0.97252(9) 0.86780(13)
N10_185 N 0.99732(11) 0.94883(9) 0.86955(12)
C1_185 C 0.99293(13) 0.99616(12) 0.85887(18)
C2_185 C 0.95737(14) 0.97624(12) 0.87331(18)
H2_185 H 0.9455 0.9628 0.8797
N9_186 N 0.97252(9) 0.86780(13) 0.98363(11)
N10_186 N 0.94883(9) 0.86955(12) 0.99732(11)
C1_186 C 0.99616(12) 0.85887(18) 0.99293(13)
C2_186 C 0.97624(12) 0.87331(18) 0.95737(14)
H2_186 H 0.9628 0.8797 0.9455
N9_187 N 0.36780(13) 0.97252(9) 0.98363(11)
N10_187 N 0.36955(12) 0.94883(9) 0.99732(11)
C1_187 C 0.35887(18) 0.99616(12) 0.99293(13)
C2_187 C 0.37331(18) 0.97624(12) 0.95737(14)
H2_187 H 0.3797 0.9628 0.9455
N9_188 N 0.13220(13) 0.01637(11) 0.02748(9)
N10_188 N 0.13045(12) 0.00268(11) 0.05117(9)
C1_188 C 0.14113(18) 0.00707(13) 0.00384(12)
C2_188 C 0.12669(18) 0.04263(14) 0.02376(12)
H2_188 H 0.1203 0.0545 0.0372
N9_189 N 0.98363(11) 0.36780(13) 0.97252(9)
N10_189 N 0.99732(11) 0.36955(12) 0.94883(9)
C1_189 C 0.99293(13) 0.35887(18) 0.99616(12)
C2_189 C 0.95737(14) 0.37331(18) 0.97624(12)
H2_189 H 0.9455 0.3797 0.9628
N9_190 N 0.97252(9) 0.98363(11) 0.36780(13)
N10_190 N 0.94883(9) 0.99732(11) 0.36955(12)
C1_190 C 0.99616(12) 0.99293(13) 0.35887(18)
C2_190 C 0.97624(12) 0.95737(14) 0.37331(18)
H2_190 H 0.9628 0.9455 0.3797
N9_191 N 0.01637(11) 0.02748(9) 0.13220(13)
N10_191 N 0.00268(11) 0.05117(9) 0.13045(12)
C1_191 C 0.00707(13) 0.00384(12) 0.14113(18)
C2_191 C 0.04263(14) 0.02376(12) 0.12669(18)
H2_191 H 0.0545 0.0372 0.1203
N9_192 N 0.02748(9) 0.13220(13) 0.01637(11)
N10_192 N 0.05117(9) 0.13045(12) 0.00268(11)
C1_192 C 0.00384(12) 0.14113(18) 0.00707(13)
C2_192 C 0.02376(12) 0.12669(18) 0.04263(14)
H2_192 H 0.0372 0.1203 0.0545
loop_
_geom_bond_atom_site_label_1
_geom_bond_atom_site_label_2
_geom_bond_site_symmetry_1
_geom_bond_site_symmetry_2
Cr1 O1 1_555 1_555
O2 Cr1 1_555 1_555
O3 Cr1 1_555 1_555
O4 Cr1 1_555 1_555
Cr2 O4 1_555 1_555
O5 Cr2 1_555 1_555
O6 Cr2 1_555 1_555
O7 Cr2 1_555 1_555
O3 H9 1_555 1_555
O7 H10 1_555 1_555
O7 H9_2 1_555 1_555
O3 H10_2 1_555 1_555
Cr1_2 O1_2 1_555 1_555
O2_2 Cr1_2 1_555 1_555
O3_2 Cr1_2 1_555 1_555
O4_2 Cr1_2 1_555 1_555
Cr2_2 O4_2 1_555 1_555
O5_2 Cr2_2 1_555 1_555
O6_2 Cr2_2 1_555 1_555
O7_2 Cr2_2 1_555 1_555
O3_2 H9_3 1_555 1_555
O7_2 H10_3 1_555 1_555
O7_2 H9_4 1_555 1_555
O3_2 H10_4 1_555 1_555
Cr1_3 O1_3 1_555 1_555
O2_3 Cr1_3 1_555 1_555
O3_3 Cr1_3 1_555 1_555
O4_3 Cr1_3 1_555 1_555
Cr2_3 O4_3 1_555 1_555
O5_3 Cr2_3 1_555 1_555
O6_3 Cr2_3 1_555 1_555
O7_3 Cr2_3 1_555 1_555
O3_3 H9_5 1_555 1_555
O7_3 H10_5 1_555 1_555
O7_3 H9_6 1_555 1_555
O3_3 H10_6 1_555 1_555
Cr1_4 O1_4 1_555 1_555
O2_4 Cr1_4 1_555 1_555
O3_4 Cr1_4 1_555 1_555
O4_4 Cr1_4 1_555 1_555
Cr2_4 O4_4 1_555 1_555
O5_4 Cr2_4 1_555 1_555
O6_4 Cr2_4 1_555 1_555
O7_4 Cr2_4 1_555 1_555
O3_4 H9_7 1_555 1_555
O7_4 H10_7 1_555 1_555
O7_4 H9_8 1_555 1_555
O3_4 H10_8 1_555 1_555
Cr1_5 O1_5 1_555 1_555
O2_5 Cr1_5 1_555 1_555
O3_5 Cr1_5 1_555 1_555
O4_5 Cr1_5 1_555 1_555
Cr2_5 O4_5 1_555 1_555
O5_5 Cr2_5 1_555 1_555
O6_5 Cr2_5 1_555 1_555
O7_5 Cr2_5 1_555 1_555
O3_5 H9_9 1_555 1_555
O7_5 H10_9 1_555 1_555
O7_5 H9_10 1_555 1_555
O3_5 H10_10 1_555 1_555
Cr1_6 O1_6 1_555 1_555
O2_6 Cr1_6 1_555 1_555
O3_6 Cr1_6 1_555 1_555
O4_6 Cr1_6 1_555 1_555
Cr2_6 O4_6 1_555 1_555
O5_6 Cr2_6 1_555 1_555
O6_6 Cr2_6 1_555 1_555
O7_6 Cr2_6 1_555 1_555
O3_6 H9_11 1_555 1_555
O7_6 H10_11 1_555 1_555
O7_6 H9_12 1_555 1_555
O3_6 H10_12 1_555 1_555
Cr1_7 O1_7 1_555 1_555
O2_7 Cr1_7 1_555 1_555
O3_7 Cr1_7 1_555 1_555
O4_7 Cr1_7 1_555 1_555
Cr2_7 O4_7 1_555 1_555
O5_7 Cr2_7 1_555 1_555
O6_7 Cr2_7 1_555 1_555
O7_7 Cr2_7 1_555 1_555
O3_7 H9_13 1_555 1_555
O7_7 H10_13 1_555 1_555
O7_7 H9_14 1_555 1_555
O3_7 H10_14 1_555 1_555
Cr1_8 O1_8 1_555 1_555
O2_8 Cr1_8 1_555 1_555
O3_8 Cr1_8 1_555 1_555
O4_8 Cr1_8 1_555 1_555
Cr2_8 O4_8 1_555 1_555
O5_8 Cr2_8 1_555 1_555
O6_8 Cr2_8 1_555 1_555
O7_8 Cr2_8 1_555 1_555
O3_8 H9_15 1_555 1_555
O7_8 H10_15 1_555 1_555
O7_8 H9_16 1_555 1_555
O3_8 H10_16 1_555 1_555
Cr1_9 O1_9 1_555 1_555
O2_9 Cr1_9 1_555 1_555
O3_9 Cr1_9 1_555 1_555
O4_9 Cr1_9 1_555 1_555
Cr2_9 O4_9 1_555 1_555
O5_9 Cr2_9 1_555 1_555
O6_9 Cr2_9 1_555 1_555
O7_9 Cr2_9 1_555 1_555
O3_9 H9_17 1_555 1_555
O7_9 H10_17 1_555 1_555
O7_9 H9_18 1_555 1_555
O3_9 H10_18 1_555 1_555
Cr1_10 O1_10 1_555 1_555
O2_10 Cr1_10 1_555 1_555
O3_10 Cr1_10 1_555 1_555
O4_10 Cr1_10 1_555 1_555
Cr2_10 O4_10 1_555 1_555
O5_10 Cr2_10 1_555 1_555
O6_10 Cr2_10 1_555 1_555
O7_10 Cr2_10 1_555 1_555
O3_10 H9_19 1_555 1_555
O7_10 H10_19 1_555 1_555
O7_10 H9_20 1_555 1_555
O3_10 H10_20 1_555 1_555
Cr1_11 O1_11 1_555 1_555
O2_11 Cr1_11 1_555 1_555
O3_11 Cr1_11 1_555 1_555
O4_11 Cr1_11 1_555 1_555
Cr2_11 O4_11 1_555 1_555
O5_11 Cr2_11 1_555 1_555
O6_11 Cr2_11 1_555 1_555
O7_11 Cr2_11 1_555 1_555
O3_11 H9_21 1_555 1_555
O7_11 H10_21 1_555 1_555
O7_11 H9_22 1_555 1_555
O3_11 H10_22 1_555 1_555
Cr1_12 O1_12 1_555 1_555
O2_12 Cr1_12 1_555 1_555
O3_12 Cr1_12 1_555 1_555
O4_12 Cr1_12 1_555 1_555
Cr2_12 O4_12 1_555 1_555
O5_12 Cr2_12 1_555 1_555
O6_12 Cr2_12 1_555 1_555
O7_12 Cr2_12 1_555 1_555
O3_12 H9_23 1_555 1_555
O7_12 H10_23 1_555 1_555
O7_12 H9_24 1_555 1_555
O3_12 H10_24 1_555 1_555
Cr1_13 O1_13 1_555 1_555
O2_13 Cr1_13 1_555 1_555
O3_13 Cr1_13 1_555 1_555
O4_13 Cr1_13 1_555 1_555
Cr2_13 O4_13 1_555 1_555
O5_13 Cr2_13 1_555 1_555
O6_13 Cr2_13 1_555 1_555
O7_13 Cr2_13 1_555 1_555
O3_13 H9_25 1_555 1_555
O7_13 H10_25 1_555 1_555
O7_13 H9_26 1_555 1_555
O3_13 H10_26 1_555 1_555
Cr1_14 O1_14 1_555 1_555
O2_14 Cr1_14 1_555 1_555
O3_14 Cr1_14 1_555 1_555
O4_14 Cr1_14 1_555 1_555
Cr2_14 O4_14 1_555 1_555
O5_14 Cr2_14 1_555 1_555
O6_14 Cr2_14 1_555 1_555
O7_14 Cr2_14 1_555 1_555
O3_14 H9_27 1_555 1_555
O7_14 H10_27 1_555 1_555
O7_14 H9_28 1_555 1_555
O3_14 H10_28 1_555 1_555
Cr1_15 O1_15 1_555 1_555
O2_15 Cr1_15 1_555 1_555
O3_15 Cr1_15 1_555 1_555
O4_15 Cr1_15 1_555 1_555
Cr2_15 O4_15 1_555 1_555
O5_15 Cr2_15 1_555 1_555
O6_15 Cr2_15 1_555 1_555
O7_15 Cr2_15 1_555 1_555
O3_15 H9_29 1_555 1_555
O7_15 H10_29 1_555 1_555
O7_15 H9_30 1_555 1_555
O3_15 H10_30 1_555 1_555
Cr1_16 O1_16 1_555 1_555
O2_16 Cr1_16 1_555 1_555
O3_16 Cr1_16 1_555 1_555
O4_16 Cr1_16 1_555 1_555
Cr2_16 O4_16 1_555 1_555
O5_16 Cr2_16 1_555 1_555
O6_16 Cr2_16 1_555 1_555
O7_16 Cr2_16 1_555 1_555
O3_16 H9_31 1_555 1_555
O7_16 H10_31 1_555 1_555
O7_16 H9_32 1_555 1_555
O3_16 H10_32 1_555 1_555
Cr1_17 O1_17 1_555 1_555
O2_17 Cr1_17 1_555 1_555
O3_17 Cr1_17 1_555 1_555
O4_17 Cr1_17 1_555 1_555
Cr2_17 O4_17 1_555 1_555
O5_17 Cr2_17 1_555 1_555
O6_17 Cr2_17 1_555 1_555
O7_17 Cr2_17 1_555 1_555
O3_17 H9_33 1_555 1_555
O7_17 H10_33 1_555 1_555
O7_17 H9_34 1_555 1_555
O3_17 H10_34 1_555 1_555
Cr1_18 O1_18 1_555 1_555
O2_18 Cr1_18 1_555 1_555
O3_18 Cr1_18 1_555 1_555
O4_18 Cr1_18 1_555 1_555
Cr2_18 O4_18 1_555 1_555
O5_18 Cr2_18 1_555 1_555
O6_18 Cr2_18 1_555 1_555
O7_18 Cr2_18 1_555 1_555
O3_18 H9_35 1_555 1_555
O7_18 H10_35 1_555 1_555
O7_18 H9_36 1_555 1_555
O3_18 H10_36 1_555 1_555
Cr1_19 O1_19 1_555 1_555
O2_19 Cr1_19 1_555 1_555
O3_19 Cr1_19 1_555 1_555
O4_19 Cr1_19 1_555 1_555
Cr2_19 O4_19 1_555 1_555
O5_19 Cr2_19 1_555 1_555
O6_19 Cr2_19 1_555 1_555
O7_19 Cr2_19 1_555 1_555
O3_19 H9_37 1_555 1_555
O7_19 H10_37 1_555 1_555
O7_19 H9_38 1_555 1_555
O3_19 H10_38 1_555 1_555
Cr2_20 O4_20 1_555 1_555
O5_20 Cr2_20 1_555 1_555
O6_20 Cr2_20 1_555 1_555
O7_20 Cr2_20 1_555 1_555
O7_20 H10_39 1_555 1_555
O7_20 H9_39 1_555 1_555
Cr1_20 O1_20 1_555 1_555
O2_20 Cr1_20 1_555 1_555
O3_20 Cr1_20 1_555 1_555
O4_21 Cr1_20 1_555 1_555
O3_20 H9_40 1_555 1_555
O3_20 H10_40 1_555 1_555
Cr1_21 O1_21 1_555 1_555
O2_21 Cr1_21 1_555 1_555
O3_21 Cr1_21 1_555 1_555
O4_22 Cr1_21 1_555 1_555
Cr2_21 O4_22 1_555 1_555
O5_21 Cr2_21 1_555 1_555
O6_21 Cr2_21 1_555 1_555
O7_21 Cr2_21 1_555 1_555
O3_21 H9_41 1_555 1_555
O7_21 H10_41 1_555 1_555
O7_21 H9_42 1_555 1_555
O3_21 H10_42 1_555 1_555
Cr1_22 O1_22 1_555 1_555
O2_22 Cr1_22 1_555 1_555
O3_22 Cr1_22 1_555 1_555
O4_23 Cr1_22 1_555 1_555
Cr2_22 O4_23 1_555 1_555
O5_22 Cr2_22 1_555 1_555
O6_22 Cr2_22 1_555 1_555
O7_22 Cr2_22 1_555 1_555
O3_22 H9_43 1_555 1_555
O7_22 H10_43 1_555 1_555
O7_22 H9_44 1_555 1_555
O3_22 H10_44 1_555 1_555
Cr1_23 O1_23 1_555 1_555
O2_23 Cr1_23 1_555 1_555
O3_23 Cr1_23 1_555 1_555
O4_24 Cr1_23 1_555 1_555
Cr2_23 O4_24 1_555 1_555
O5_23 Cr2_23 1_555 1_555
O6_23 Cr2_23 1_555 1_555
O7_23 Cr2_23 1_555 1_555
O3_23 H9_45 1_555 1_555
O7_23 H10_45 1_555 1_555
O7_23 H9_46 1_555 1_555
O3_23 H10_46 1_555 1_555
Cr2_24 O4_25 1_555 1_555
O5_24 Cr2_24 1_555 1_555
O6_24 Cr2_24 1_555 1_555
O7_24 Cr2_24 1_555 1_555
O7_24 H10_47 1_555 1_555
O7_24 H9_47 1_555 1_555
Cr1_24 O1_24 1_555 1_555
O2_24 Cr1_24 1_555 1_555
O3_24 Cr1_24 1_555 1_555
O4_26 Cr1_24 1_555 1_555
O3_24 H9_48 1_555 1_555
O3_24 H10_48 1_555 1_555
Cr1_25 O1_25 1_555 1_555
O2_25 Cr1_25 1_555 1_555
O3_25 Cr1_25 1_555 1_555
O4_27 Cr1_25 1_555 1_555
Cr2_25 O4_27 1_555 1_555
O5_25 Cr2_25 1_555 1_555
O6_25 Cr2_25 1_555 1_555
O7_25 Cr2_25 1_555 1_555
O3_25 H9_49 1_555 1_555
O7_25 H10_49 1_555 1_555
O7_25 H9_50 1_555 1_555
O3_25 H10_50 1_555 1_555
Cr2_26 O4_28 1_555 1_555
O5_26 Cr2_26 1_555 1_555
O6_26 Cr2_26 1_555 1_555
O7_26 Cr2_26 1_555 1_555
O7_26 H10_51 1_555 1_555
O7_26 H9_51 1_555 1_555
Cr1_26 O1_26 1_555 1_555
O2_26 Cr1_26 1_555 1_555
O3_26 Cr1_26 1_555 1_555
O4_29 Cr1_26 1_555 1_555
O3_26 H9_52 1_555 1_555
O3_26 H10_52 1_555 1_555
Cr1_27 O1_27 1_555 1_555
O2_27 Cr1_27 1_555 1_555
O3_27 Cr1_27 1_555 1_555
O4_30 Cr1_27 1_555 1_555
O3_27 H9_53 1_555 1_555
O3_27 H10_53 1_555 1_555
Cr2_27 O4_31 1_555 1_555
O5_27 Cr2_27 1_555 1_555
O6_27 Cr2_27 1_555 1_555
O7_27 Cr2_27 1_555 1_555
O7_27 H10_54 1_555 1_555
O7_27 H9_54 1_555 1_555
Cr1_28 O1_28 1_555 1_555
O2_28 Cr1_28 1_555 1_555
O3_28 Cr1_28 1_555 1_555
O4_32 Cr1_28 1_555 1_555
Cr2_28 O4_32 1_555 1_555
O5_28 Cr2_28 1_555 1_555
O6_28 Cr2_28 1_555 1_555
O7_28 Cr2_28 1_555 1_555
O3_28 H9_55 1_555 1_555
O7_28 H10_55 1_555 1_555
O7_28 H9_56 1_555 1_555
O3_28 H10_56 1_555 1_555
Cr1_29 O1_29 1_555 1_555
O2_29 Cr1_29 1_555 1_555
O3_29 Cr1_29 1_555 1_555
O4_33 Cr1_29 1_555 1_555
Cr2_29 O4_33 1_555 1_555
O5_29 Cr2_29 1_555 1_555
O6_29 Cr2_29 1_555 1_555
O7_29 Cr2_29 1_555 1_555
O3_29 H9_57 1_555 1_555
O7_29 H10_57 1_555 1_555
O7_29 H9_58 1_555 1_555
O3_29 H10_58 1_555 1_555
Cr1_30 O1_30 1_555 1_555
O2_30 Cr1_30 1_555 1_555
O3_30 Cr1_30 1_555 1_555
O4_34 Cr1_30 1_555 1_555
O3_30 H9_59 1_555 1_555
O3_30 H10_59 1_555 1_555
Cr2_30 O4_35 1_555 1_555
O5_30 Cr2_30 1_555 1_555
O6_30 Cr2_30 1_555 1_555
O7_30 Cr2_30 1_555 1_555
O7_30 H10_60 1_555 1_555
O7_30 H9_60 1_555 1_555
Cr1_31 O1_31 1_555 1_555
O2_31 Cr1_31 1_555 1_555
O3_31 Cr1_31 1_555 1_555
O4_36 Cr1_31 1_555 1_555
Cr2_31 O4_36 1_555 1_555
O5_31 Cr2_31 1_555 1_555
O6_31 Cr2_31 1_555 1_555
O7_31 Cr2_31 1_555 1_555
O3_31 H9_61 1_555 1_555
O7_31 H10_61 1_555 1_555
O7_31 H9_62 1_555 1_555
O3_31 H10_62 1_555 1_555
Cr2_32 O4_37 1_555 1_555
O5_32 Cr2_32 1_555 1_555
O6_32 Cr2_32 1_555 1_555
O7_32 Cr2_32 1_555 1_555
O7_32 H10_63 1_555 1_555
O7_32 H9_63 1_555 1_555
Cr1_32 O1_32 1_555 1_555
O2_32 Cr1_32 1_555 1_555
O3_32 Cr1_32 1_555 1_555
O4_38 Cr1_32 1_555 1_555
O3_32 H9_64 1_555 1_555
O3_32 H10_64 1_555 1_555
Cr1_33 O1_33 1_555 1_555
O2_33 Cr1_33 1_555 1_555
O3_33 Cr1_33 1_555 1_555
O4_39 Cr1_33 1_555 1_555
O3_33 H9_65 1_555 1_555
O3_33 H10_65 1_555 1_555
Cr2_33 O4_40 1_555 1_555
O5_33 Cr2_33 1_555 1_555
O6_33 Cr2_33 1_555 1_555
O7_33 Cr2_33 1_555 1_555
O7_33 H10_66 1_555 1_555
O7_33 H9_66 1_555 1_555
Cr1_34 O1_34 1_555 1_555
O2_34 Cr1_34 1_555 1_555
O3_34 Cr1_34 1_555 1_555
O4_41 Cr1_34 1_555 1_555
Cr2_34 O4_41 1_555 1_555
O5_34 Cr2_34 1_555 1_555
O6_34 Cr2_34 1_555 1_555
O7_34 Cr2_34 1_555 1_555
O3_34 H9_67 1_555 1_555
O7_34 H10_67 1_555 1_555
O7_34 H9_68 1_555 1_555
O3_34 H10_68 1_555 1_555
Cr1_35 O1_35 1_555 1_555
O2_35 Cr1_35 1_555 1_555
O3_35 Cr1_35 1_555 1_555
O4_42 Cr1_35 1_555 1_555
O3_35 H9_69 1_555 1_555
O3_35 H10_69 1_555 1_555
Cr2_35 O4_43 1_555 1_555
O5_35 Cr2_35 1_555 1_555
O6_35 Cr2_35 1_555 1_555
O7_35 Cr2_35 1_555 1_555
O7_35 H10_70 1_555 1_555
O7_35 H9_70 1_555 1_555
Cr1_36 O1_36 1_555 1_555
O2_36 Cr1_36 1_555 1_555
O3_36 Cr1_36 1_555 1_555
O4_44 Cr1_36 1_555 1_555
Cr2_36 O4_44 1_555 1_555
O5_36 Cr2_36 1_555 1_555
O6_36 Cr2_36 1_555 1_555
O7_36 Cr2_36 1_555 1_555
O3_36 H9_71 1_555 1_555
O7_36 H10_71 1_555 1_555
O7_36 H9_72 1_555 1_555
O3_36 H10_72 1_555 1_555
Cr2_37 O4_45 1_555 1_555
O5_37 Cr2_37 1_555 1_555
O6_37 Cr2_37 1_555 1_555
O7_37 Cr2_37 1_555 1_555
O7_37 H10_73 1_555 1_555
O7_37 H9_73 1_555 1_555
Cr1_37 O1_37 1_555 1_555
O2_37 Cr1_37 1_555 1_555
O3_37 Cr1_37 1_555 1_555
O4_46 Cr1_37 1_555 1_555
O3_37 H9_74 1_555 1_555
O3_37 H10_74 1_555 1_555
Cr1_38 O1_38 1_555 1_555
O2_38 Cr1_38 1_555 1_555
O3_38 Cr1_38 1_555 1_555
O4_47 Cr1_38 1_555 1_555
Cr2_38 O4_47 1_555 1_555
O5_38 Cr2_38 1_555 1_555
O6_38 Cr2_38 1_555 1_555
O7_38 Cr2_38 1_555 1_555
O3_38 H9_75 1_555 1_555
O7_38 H10_75 1_555 1_555
O7_38 H9_76 1_555 1_555
O3_38 H10_76 1_555 1_555
Cr1_39 O1_39 1_555 1_555
O2_39 Cr1_39 1_555 1_555
O3_39 Cr1_39 1_555 1_555
O4_48 Cr1_39 1_555 1_555
Cr2_39 O4_48 1_555 1_555
O5_39 Cr2_39 1_555 1_555
O6_39 Cr2_39 1_555 1_555
O7_39 Cr2_39 1_555 1_555
O3_39 H9_77 1_555 1_555
O7_39 H10_77 1_555 1_555
O7_39 H9_78 1_555 1_555
O3_39 H10_78 1_555 1_555
Cr1_40 O1_40 1_555 1_555
O2_40 Cr1_40 1_555 1_555
O3_40 Cr1_40 1_555 1_555
O4_49 Cr1_40 1_555 1_555
O3_40 H9_79 1_555 1_555
O3_40 H10_79 1_555 1_555
Cr2_40 O4_50 1_555 1_555
O5_40 Cr2_40 1_555 1_555
O6_40 Cr2_40 1_555 1_555
O7_40 Cr2_40 1_555 1_555
O7_40 H10_80 1_555 1_555
O7_40 H9_80 1_555 1_555
Cr1_41 O1_41 1_555 1_555
O2_41 Cr1_41 1_555 1_555
O3_41 Cr1_41 1_555 1_555
O4_51 Cr1_41 1_555 1_555
Cr2_41 O4_51 1_555 1_555
O5_41 Cr2_41 1_555 1_555
O6_41 Cr2_41 1_555 1_555
O7_41 Cr2_41 1_555 1_555
O3_41 H9_81 1_555 1_555
O7_41 H10_81 1_555 1_555
O7_41 H9_82 1_555 1_555
O3_41 H10_82 1_555 1_555
Cr1_42 O1_42 1_555 1_555
O2_42 Cr1_42 1_555 1_555
O3_42 Cr1_42 1_555 1_555
O4_52 Cr1_42 1_555 1_555
Cr2_42 O4_52 1_555 1_555
O5_42 Cr2_42 1_555 1_555
O6_42 Cr2_42 1_555 1_555
O7_42 Cr2_42 1_555 1_555
O3_42 H9_83 1_555 1_555
O7_42 H10_83 1_555 1_555
O7_42 H9_84 1_555 1_555
O3_42 H10_84 1_555 1_555
Cr1_43 O1_43 1_555 1_555
O2_43 Cr1_43 1_555 1_555
O3_43 Cr1_43 1_555 1_555
O4_53 Cr1_43 1_555 1_555
Cr2_43 O4_53 1_555 1_555
O5_43 Cr2_43 1_555 1_555
O6_43 Cr2_43 1_555 1_555
O7_43 Cr2_43 1_555 1_555
O3_43 H9_85 1_555 1_555
O7_43 H10_85 1_555 1_555
O7_43 H9_86 1_555 1_555
O3_43 H10_86 1_555 1_555
Cr1_44 O1_44 1_555 1_555
O2_44 Cr1_44 1_555 1_555
O3_44 Cr1_44 1_555 1_555
O4_54 Cr1_44 1_555 1_555
Cr2_44 O4_54 1_555 1_555
O5_44 Cr2_44 1_555 1_555
O6_44 Cr2_44 1_555 1_555
O7_44 Cr2_44 1_555 1_555
O3_44 H9_87 1_555 1_555
O7_44 H10_87 1_555 1_555
O7_44 H9_88 1_555 1_555
O3_44 H10_88 1_555 1_555
Cr1_45 O1_45 1_555 1_555
O2_45 Cr1_45 1_555 1_555
O3_45 Cr1_45 1_555 1_555
O4_55 Cr1_45 1_555 1_555
O3_45 H9_89 1_555 1_555
O3_45 H10_89 1_555 1_555
Cr2_45 O4_56 1_555 1_555
O5_45 Cr2_45 1_555 1_555
O6_45 Cr2_45 1_555 1_555
O7_45 Cr2_45 1_555 1_555
O7_45 H10_90 1_555 1_555
O7_45 H9_90 1_555 1_555
Cr1_46 O1_46 1_555 1_555
O2_46 Cr1_46 1_555 1_555
O3_46 Cr1_46 1_555 1_555
O4_57 Cr1_46 1_555 1_555
Cr2_46 O4_57 1_555 1_555
O5_46 Cr2_46 1_555 1_555
O6_46 Cr2_46 1_555 1_555
O7_46 Cr2_46 1_555 1_555
O3_46 H9_91 1_555 1_555
O7_46 H10_91 1_555 1_555
O7_46 H9_92 1_555 1_555
O3_46 H10_92 1_555 1_555
Cr1_47 O1_47 1_555 1_555
O2_47 Cr1_47 1_555 1_555
O3_47 Cr1_47 1_555 1_555
O4_58 Cr1_47 1_555 1_555
O3_47 H9_93 1_555 1_555
O3_47 H10_93 1_555 1_555
Cr2_47 O4_59 1_555 1_555
O5_47 Cr2_47 1_555 1_555
O6_47 Cr2_47 1_555 1_555
O7_47 Cr2_47 1_555 1_555
O7_47 H10_94 1_555 1_555
O7_47 H9_94 1_555 1_555
Cr1_48 O1_48 1_555 1_555
O2_48 Cr1_48 1_555 1_555
O3_48 Cr1_48 1_555 1_555
O4_60 Cr1_48 1_555 1_555
Cr2_48 O4_60 1_555 1_555
O5_48 Cr2_48 1_555 1_555
O6_48 Cr2_48 1_555 1_555
O7_48 Cr2_48 1_555 1_555
O3_48 H9_95 1_555 1_555
O7_48 H10_95 1_555 1_555
O7_48 H9_96 1_555 1_555
O3_48 H10_96 1_555 1_555
Cr1_49 O1_49 1_555 1_555
O2_49 Cr1_49 1_555 1_555
O3_49 Cr1_49 1_555 1_555
O4_61 Cr1_49 1_555 1_555
Cr2_49 O4_61 1_555 1_555
O5_49 Cr2_49 1_555 1_555
O6_49 Cr2_49 1_555 1_555
O7_49 Cr2_49 1_555 1_555
O3_49 H9_97 1_555 1_555
O7_49 H10_97 1_555 1_555
O7_49 H9_98 1_555 1_555
O3_49 H10_98 1_555 1_555
Cr1_50 O1_50 1_555 1_555
O2_50 Cr1_50 1_555 1_555
O3_50 Cr1_50 1_555 1_555
O4_62 Cr1_50 1_555 1_555
Cr2_50 O4_62 1_555 1_555
O5_50 Cr2_50 1_555 1_555
O6_50 Cr2_50 1_555 1_555
O7_50 Cr2_50 1_555 1_555
O3_50 H9_99 1_555 1_555
O7_50 H10_99 1_555 1_555
O7_50 H9_100 1_555 1_555
O3_50 H10_100 1_555 1_555
Cr1_51 O1_51 1_555 1_555
O2_51 Cr1_51 1_555 1_555
O3_51 Cr1_51 1_555 1_555
O4_63 Cr1_51 1_555 1_555
Cr2_51 O4_63 1_555 1_555
O5_51 Cr2_51 1_555 1_555
O6_51 Cr2_51 1_555 1_555
O7_51 Cr2_51 1_555 1_555
O3_51 H9_101 1_555 1_555
O7_51 H10_101 1_555 1_555
O7_51 H9_102 1_555 1_555
O3_51 H10_102 1_555 1_555
Cr1_52 O1_52 1_555 1_555
O2_52 Cr1_52 1_555 1_555
O3_52 Cr1_52 1_555 1_555
O4_64 Cr1_52 1_555 1_555
Cr2_52 O4_64 1_555 1_555
O5_52 Cr2_52 1_555 1_555
O6_52 Cr2_52 1_555 1_555
O7_52 Cr2_52 1_555 1_555
O3_52 H9_103 1_555 1_555
O7_52 H10_103 1_555 1_555
O7_52 H9_104 1_555 1_555
O3_52 H10_104 1_555 1_555
Cr1_53 O1_53 1_555 1_555
O2_53 Cr1_53 1_555 1_555
O3_53 Cr1_53 1_555 1_555
O4_65 Cr1_53 1_555 1_555
Cr2_53 O4_65 1_555 1_555
O5_53 Cr2_53 1_555 1_555
O6_53 Cr2_53 1_555 1_555
O7_53 Cr2_53 1_555 1_555
O3_53 H9_105 1_555 1_555
O7_53 H10_105 1_555 1_555
O7_53 H9_106 1_555 1_555
O3_53 H10_106 1_555 1_555
Cr1_54 O1_54 1_555 1_555
O2_54 Cr1_54 1_555 1_555
O3_54 Cr1_54 1_555 1_555
O4_66 Cr1_54 1_555 1_555
Cr2_54 O4_66 1_555 1_555
O5_54 Cr2_54 1_555 1_555
O6_54 Cr2_54 1_555 1_555
O7_54 Cr2_54 1_555 1_555
O3_54 H9_107 1_555 1_555
O7_54 H10_107 1_555 1_555
O7_54 H9_108 1_555 1_555
O3_54 H10_108 1_555 1_555
Cr1_55 O1_55 1_555 1_555
O2_55 Cr1_55 1_555 1_555
O3_55 Cr1_55 1_555 1_555
O4_67 Cr1_55 1_555 1_555
Cr2_55 O4_67 1_555 1_555
O5_55 Cr2_55 1_555 1_555
O6_55 Cr2_55 1_555 1_555
O7_55 Cr2_55 1_555 1_555
O3_55 H9_109 1_555 1_555
O7_55 H10_109 1_555 1_555
O7_55 H9_110 1_555 1_555
O3_55 H10_110 1_555 1_555
Cr1_56 O1_56 1_555 1_555
O2_56 Cr1_56 1_555 1_555
O3_56 Cr1_56 1_555 1_555
O4_68 Cr1_56 1_555 1_555
Cr2_56 O4_68 1_555 1_555
O5_56 Cr2_56 1_555 1_555
O6_56 Cr2_56 1_555 1_555
O7_56 Cr2_56 1_555 1_555
O3_56 H9_111 1_555 1_555
O7_56 H10_111 1_555 1_555
O7_56 H9_112 1_555 1_555
O3_56 H10_112 1_555 1_555
Cr1_57 O1_57 1_555 1_555
O2_57 Cr1_57 1_555 1_555
O3_57 Cr1_57 1_555 1_555
O4_69 Cr1_57 1_555 1_555
Cr2_57 O4_69 1_555 1_555
O5_57 Cr2_57 1_555 1_555
O6_57 Cr2_57 1_555 1_555
O7_57 Cr2_57 1_555 1_555
O3_57 H9_113 1_555 1_555
O7_57 H10_113 1_555 1_555
O7_57 H9_114 1_555 1_555
O3_57 H10_114 1_555 1_555
Cr1_58 O1_58 1_555 1_555
O2_58 Cr1_58 1_555 1_555
O3_58 Cr1_58 1_555 1_555
O4_70 Cr1_58 1_555 1_555
Cr2_58 O4_70 1_555 1_555
O5_58 Cr2_58 1_555 1_555
O6_58 Cr2_58 1_555 1_555
O7_58 Cr2_58 1_555 1_555
O3_58 H9_115 1_555 1_555
O7_58 H10_115 1_555 1_555
O7_58 H9_116 1_555 1_555
O3_58 H10_116 1_555 1_555
Cr1_59 O1_59 1_555 1_555
O2_59 Cr1_59 1_555 1_555
O3_59 Cr1_59 1_555 1_555
O4_71 Cr1_59 1_555 1_555
Cr2_59 O4_71 1_555 1_555
O5_59 Cr2_59 1_555 1_555
O6_59 Cr2_59 1_555 1_555
O7_59 Cr2_59 1_555 1_555
O3_59 H9_117 1_555 1_555
O7_59 H10_117 1_555 1_555
O7_59 H9_118 1_555 1_555
O3_59 H10_118 1_555 1_555
Cr1_60 O1_60 1_555 1_555
O2_60 Cr1_60 1_555 1_555
O3_60 Cr1_60 1_555 1_555
O4_72 Cr1_60 1_555 1_555
Cr2_60 O4_72 1_555 1_555
O5_60 Cr2_60 1_555 1_555
O6_60 Cr2_60 1_555 1_555
O7_60 Cr2_60 1_555 1_555
O3_60 H9_119 1_555 1_555
O7_60 H10_119 1_555 1_555
O7_60 H9_120 1_555 1_555
O3_60 H10_120 1_555 1_555
Cr1_61 O1_61 1_555 1_555
O2_61 Cr1_61 1_555 1_555
O3_61 Cr1_61 1_555 1_555
O4_73 Cr1_61 1_555 1_555
Cr2_61 O4_73 1_555 1_555
O5_61 Cr2_61 1_555 1_555
O6_61 Cr2_61 1_555 1_555
O7_61 Cr2_61 1_555 1_555
O3_61 H9_121 1_555 1_555
O7_61 H10_121 1_555 1_555
O7_61 H9_122 1_555 1_555
O3_61 H10_122 1_555 1_555
Cr1_62 O1_62 1_555 1_555
O2_62 Cr1_62 1_555 1_555
O3_62 Cr1_62 1_555 1_555
O4_74 Cr1_62 1_555 1_555
Cr2_62 O4_74 1_555 1_555
O5_62 Cr2_62 1_555 1_555
O6_62 Cr2_62 1_555 1_555
O7_62 Cr2_62 1_555 1_555
O3_62 H9_123 1_555 1_555
O7_62 H10_123 1_555 1_555
O7_62 H9_124 1_555 1_555
O3_62 H10_124 1_555 1_555
Cr1_63 O1_63 1_555 1_555
O2_63 Cr1_63 1_555 1_555
O3_63 Cr1_63 1_555 1_555
O4_75 Cr1_63 1_555 1_555
Cr2_63 O4_75 1_555 1_555
O5_63 Cr2_63 1_555 1_555
O6_63 Cr2_63 1_555 1_555
O7_63 Cr2_63 1_555 1_555
O3_63 H9_125 1_555 1_555
O7_63 H10_125 1_555 1_555
O7_63 H9_126 1_555 1_555
O3_63 H10_126 1_555 1_555
Cr1_64 O1_64 1_555 1_555
O2_64 Cr1_64 1_555 1_555
O3_64 Cr1_64 1_555 1_555
O4_76 Cr1_64 1_555 1_555
Cr2_64 O4_76 1_555 1_555
O5_64 Cr2_64 1_555 1_555
O6_64 Cr2_64 1_555 1_555
O7_64 Cr2_64 1_555 1_555
O3_64 H9_127 1_555 1_555
O7_64 H10_127 1_555 1_555
O7_64 H9_128 1_555 1_555
O3_64 H10_128 1_555 1_555
Cr1_65 O1_65 1_555 1_555
O2_65 Cr1_65 1_555 1_555
O3_65 Cr1_65 1_555 1_555
O4_77 Cr1_65 1_555 1_555
Cr2_65 O4_77 1_555 1_555
O5_65 Cr2_65 1_555 1_555
O6_65 Cr2_65 1_555 1_555
O7_65 Cr2_65 1_555 1_555
O3_65 H9_129 1_555 1_555
O7_65 H10_129 1_555 1_555
O7_65 H9_130 1_555 1_555
O3_65 H10_130 1_555 1_555
Cr1_66 O1_66 1_555 1_555
O2_66 Cr1_66 1_555 1_555
O3_66 Cr1_66 1_555 1_555
O4_78 Cr1_66 1_555 1_555
Cr2_66 O4_78 1_555 1_555
O5_66 Cr2_66 1_555 1_555
O6_66 Cr2_66 1_555 1_555
O7_66 Cr2_66 1_555 1_555
O3_66 H9_131 1_555 1_555
O7_66 H10_131 1_555 1_555
O7_66 H9_132 1_555 1_555
O3_66 H10_132 1_555 1_555
Cr1_67 O1_67 1_555 1_555
O2_67 Cr1_67 1_555 1_555
O3_67 Cr1_67 1_555 1_555
O4_79 Cr1_67 1_555 1_555
Cr2_67 O4_79 1_555 1_555
O5_67 Cr2_67 1_555 1_555
O6_67 Cr2_67 1_555 1_555
O7_67 Cr2_67 1_555 1_555
O3_67 H9_133 1_555 1_555
O7_67 H10_133 1_555 1_555
O7_67 H9_134 1_555 1_555
O3_67 H10_134 1_555 1_555
Cr1_68 O1_68 1_555 1_555
O2_68 Cr1_68 1_555 1_555
O3_68 Cr1_68 1_555 1_555
O4_80 Cr1_68 1_555 1_555
O3_68 H9_135 1_555 1_555
O3_68 H10_135 1_555 1_555
Cr2_68 O4_81 1_555 1_555
O5_68 Cr2_68 1_555 1_555
O6_68 Cr2_68 1_555 1_555
O7_68 Cr2_68 1_555 1_555
O7_68 H10_136 1_555 1_555
O7_68 H9_136 1_555 1_555
Cr1_69 O1_69 1_555 1_555
O2_69 Cr1_69 1_555 1_555
O3_69 Cr1_69 1_555 1_555
O4_82 Cr1_69 1_555 1_555
Cr2_69 O4_82 1_555 1_555
O5_69 Cr2_69 1_555 1_555
O6_69 Cr2_69 1_555 1_555
O7_69 Cr2_69 1_555 1_555
O3_69 H9_137 1_555 1_555
O7_69 H10_137 1_555 1_555
O7_69 H9_138 1_555 1_555
O3_69 H10_138 1_555 1_555
Cr1_70 O1_70 1_555 1_555
O2_70 Cr1_70 1_555 1_555
O3_70 Cr1_70 1_555 1_555
O4_83 Cr1_70 1_555 1_555
Cr2_70 O4_83 1_555 1_555
O5_70 Cr2_70 1_555 1_555
O6_70 Cr2_70 1_555 1_555
O7_70 Cr2_70 1_555 1_555
O3_70 H9_139 1_555 1_555
O7_70 H10_139 1_555 1_555
O7_70 H9_140 1_555 1_555
O3_70 H10_140 1_555 1_555
Cr1_71 O1_71 1_555 1_555
O2_71 Cr1_71 1_555 1_555
O3_71 Cr1_71 1_555 1_555
O4_84 Cr1_71 1_555 1_555
Cr2_71 O4_84 1_555 1_555
O5_71 Cr2_71 1_555 1_555
O6_71 Cr2_71 1_555 1_555
O7_71 Cr2_71 1_555 1_555
O3_71 H9_141 1_555 1_555
O7_71 H10_141 1_555 1_555
O7_71 H9_142 1_555 1_555
O3_71 H10_142 1_555 1_555
Cr1_72 O1_72 1_555 1_555
O2_72 Cr1_72 1_555 1_555
O3_72 Cr1_72 1_555 1_555
O4_85 Cr1_72 1_555 1_555
O3_72 H9_143 1_555 1_555
O3_72 H10_143 1_555 1_555
Cr2_72 O4_86 1_555 1_555
O5_72 Cr2_72 1_555 1_555
O6_72 Cr2_72 1_555 1_555
O7_72 Cr2_72 1_555 1_555
O7_72 H10_144 1_555 1_555
O7_72 H9_144 1_555 1_555
Cr1_73 O1_73 1_555 1_555
O2_73 Cr1_73 1_555 1_555
O3_73 Cr1_73 1_555 1_555
O4_87 Cr1_73 1_555 1_555
Cr2_73 O4_87 1_555 1_555
O5_73 Cr2_73 1_555 1_555
O6_73 Cr2_73 1_555 1_555
O7_73 Cr2_73 1_555 1_555
O3_73 H9_145 1_555 1_555
O7_73 H10_145 1_555 1_555
O7_73 H9_146 1_555 1_555
O3_73 H10_146 1_555 1_555
Cr1_74 O1_74 1_555 1_555
O2_74 Cr1_74 1_555 1_555
O3_74 Cr1_74 1_555 1_555
O4_88 Cr1_74 1_555 1_555
O3_74 H9_147 1_555 1_555
O3_74 H10_147 1_555 1_555
Cr2_74 O4_89 1_555 1_555
O5_74 Cr2_74 1_555 1_555
O6_74 Cr2_74 1_555 1_555
O7_74 Cr2_74 1_555 1_555
O7_74 H10_148 1_555 1_555
O7_74 H9_148 1_555 1_555
Cr2_75 O4_90 1_555 1_555
O5_75 Cr2_75 1_555 1_555
O6_75 Cr2_75 1_555 1_555
O7_75 Cr2_75 1_555 1_555
O7_75 H10_149 1_555 1_555
O7_75 H9_149 1_555 1_555
Cr1_75 O1_75 1_555 1_555
O2_75 Cr1_75 1_555 1_555
O3_75 Cr1_75 1_555 1_555
O4_91 Cr1_75 1_555 1_555
O3_75 H9_150 1_555 1_555
O3_75 H10_150 1_555 1_555
Cr1_76 O1_76 1_555 1_555
O2_76 Cr1_76 1_555 1_555
O3_76 Cr1_76 1_555 1_555
O4_92 Cr1_76 1_555 1_555
Cr2_76 O4_92 1_555 1_555
O5_76 Cr2_76 1_555 1_555
O6_76 Cr2_76 1_555 1_555
O7_76 Cr2_76 1_555 1_555
O3_76 H9_151 1_555 1_555
O7_76 H10_151 1_555 1_555
O7_76 H9_152 1_555 1_555
O3_76 H10_152 1_555 1_555
Cr1_77 O1_77 1_555 1_555
O2_77 Cr1_77 1_555 1_555
O3_77 Cr1_77 1_555 1_555
O4_93 Cr1_77 1_555 1_555
Cr2_77 O4_93 1_555 1_555
O5_77 Cr2_77 1_555 1_555
O6_77 Cr2_77 1_555 1_555
O7_77 Cr2_77 1_555 1_555
O3_77 H9_153 1_555 1_555
O7_77 H10_153 1_555 1_555
O7_77 H9_154 1_555 1_555
O3_77 H10_154 1_555 1_555
Cr2_78 O4_94 1_555 1_555
O5_78 Cr2_78 1_555 1_555
O6_78 Cr2_78 1_555 1_555
O7_78 Cr2_78 1_555 1_555
O7_78 H10_155 1_555 1_555
O7_78 H9_155 1_555 1_555
Cr1_78 O1_78 1_555 1_555
O2_78 Cr1_78 1_555 1_555
O3_78 Cr1_78 1_555 1_555
O4_95 Cr1_78 1_555 1_555
O3_78 H9_156 1_555 1_555
O3_78 H10_156 1_555 1_555
Cr1_79 O1_79 1_555 1_555
O2_79 Cr1_79 1_555 1_555
O3_79 Cr1_79 1_555 1_555
O4_96 Cr1_79 1_555 1_555
Cr2_79 O4_96 1_555 1_555
O5_79 Cr2_79 1_555 1_555
O6_79 Cr2_79 1_555 1_555
O7_79 Cr2_79 1_555 1_555
O3_79 H9_157 1_555 1_555
O7_79 H10_157 1_555 1_555
O7_79 H9_158 1_555 1_555
O3_79 H10_158 1_555 1_555
Cr1_80 O1_80 1_555 1_555
O2_80 Cr1_80 1_555 1_555
O3_80 Cr1_80 1_555 1_555
O4_97 Cr1_80 1_555 1_555
O3_80 H9_159 1_555 1_555
O3_80 H10_159 1_555 1_555
Cr2_80 O4_98 1_555 1_555
O5_80 Cr2_80 1_555 1_555
O6_80 Cr2_80 1_555 1_555
O7_80 Cr2_80 1_555 1_555
O7_80 H10_160 1_555 1_555
O7_80 H9_160 1_555 1_555
Cr2_81 O4_99 1_555 1_555
O5_81 Cr2_81 1_555 1_555
O6_81 Cr2_81 1_555 1_555
O7_81 Cr2_81 1_555 1_555
O7_81 H10_161 1_555 1_555
O7_81 H9_161 1_555 1_555
Cr1_81 O1_81 1_555 1_555
O2_81 Cr1_81 1_555 1_555
O3_81 Cr1_81 1_555 1_555
O4_100 Cr1_81 1_555 1_555
O3_81 H9_162 1_555 1_555
O3_81 H10_162 1_555 1_555
Cr1_82 O1_82 1_555 1_555
O2_82 Cr1_82 1_555 1_555
O3_82 Cr1_82 1_555 1_555
O4_101 Cr1_82 1_555 1_555
Cr2_82 O4_101 1_555 1_555
O5_82 Cr2_82 1_555 1_555
O6_82 Cr2_82 1_555 1_555
O7_82 Cr2_82 1_555 1_555
O3_82 H9_163 1_555 1_555
O7_82 H10_163 1_555 1_555
O7_82 H9_164 1_555 1_555
O3_82 H10_164 1_555 1_555
Cr2_83 O4_102 1_555 1_555
O5_83 Cr2_83 1_555 1_555
O6_83 Cr2_83 1_555 1_555
O7_83 Cr2_83 1_555 1_555
O7_83 H10_165 1_555 1_555
O7_83 H9_165 1_555 1_555
Cr1_83 O1_83 1_555 1_555
O2_83 Cr1_83 1_555 1_555
O3_83 Cr1_83 1_555 1_555
O4_103 Cr1_83 1_555 1_555
O3_83 H9_166 1_555 1_555
O3_83 H10_166 1_555 1_555
Cr1_84 O1_84 1_555 1_555
O2_84 Cr1_84 1_555 1_555
O3_84 Cr1_84 1_555 1_555
O4_104 Cr1_84 1_555 1_555
Cr2_84 O4_104 1_555 1_555
O5_84 Cr2_84 1_555 1_555
O6_84 Cr2_84 1_555 1_555
O7_84 Cr2_84 1_555 1_555
O3_84 H9_167 1_555 1_555
O7_84 H10_167 1_555 1_555
O7_84 H9_168 1_555 1_555
O3_84 H10_168 1_555 1_555
Cr1_85 O1_85 1_555 1_555
O2_85 Cr1_85 1_555 1_555
O3_85 Cr1_85 1_555 1_555
O4_105 Cr1_85 1_555 1_555
O3_85 H9_169 1_555 1_555
O3_85 H10_169 1_555 1_555
Cr2_85 O4_106 1_555 1_555
O5_85 Cr2_85 1_555 1_555
O6_85 Cr2_85 1_555 1_555
O7_85 Cr2_85 1_555 1_555
O7_85 H10_170 1_555 1_555
O7_85 H9_170 1_555 1_555
Cr1_86 O1_86 1_555 1_555
O2_86 Cr1_86 1_555 1_555
O3_86 Cr1_86 1_555 1_555
O4_107 Cr1_86 1_555 1_555
Cr2_86 O4_107 1_555 1_555
O5_86 Cr2_86 1_555 1_555
O6_86 Cr2_86 1_555 1_555
O7_86 Cr2_86 1_555 1_555
O3_86 H9_171 1_555 1_555
O7_86 H10_171 1_555 1_555
O7_86 H9_172 1_555 1_555
O3_86 H10_172 1_555 1_555
Cr1_87 O1_87 1_555 1_555
O2_87 Cr1_87 1_555 1_555
O3_87 Cr1_87 1_555 1_555
O4_108 Cr1_87 1_555 1_555
Cr2_87 O4_108 1_555 1_555
O5_87 Cr2_87 1_555 1_555
O6_87 Cr2_87 1_555 1_555
O7_87 Cr2_87 1_555 1_555
O3_87 H9_173 1_555 1_555
O7_87 H10_173 1_555 1_555
O7_87 H9_174 1_555 1_555
O3_87 H10_174 1_555 1_555
Cr2_88 O4_109 1_555 1_555
O5_88 Cr2_88 1_555 1_555
O6_88 Cr2_88 1_555 1_555
O7_88 Cr2_88 1_555 1_555
O7_88 H10_175 1_555 1_555
O7_88 H9_175 1_555 1_555
Cr1_88 O1_88 1_555 1_555
O2_88 Cr1_88 1_555 1_555
O3_88 Cr1_88 1_555 1_555
O4_110 Cr1_88 1_555 1_555
O3_88 H9_176 1_555 1_555
O3_88 H10_176 1_555 1_555
Cr1_89 O1_89 1_555 1_555
O2_89 Cr1_89 1_555 1_555
O3_89 Cr1_89 1_555 1_555
O4_111 Cr1_89 1_555 1_555
Cr2_89 O4_111 1_555 1_555
O5_89 Cr2_89 1_555 1_555
O6_89 Cr2_89 1_555 1_555
O7_89 Cr2_89 1_555 1_555
O3_89 H9_177 1_555 1_555
O7_89 H10_177 1_555 1_555
O7_89 H9_178 1_555 1_555
O3_89 H10_178 1_555 1_555
Cr1_90 O1_90 1_555 1_555
O2_90 Cr1_90 1_555 1_555
O3_90 Cr1_90 1_555 1_555
O4_112 Cr1_90 1_555 1_555
Cr2_90 O4_112 1_555 1_555
O5_90 Cr2_90 1_555 1_555
O6_90 Cr2_90 1_555 1_555
O7_90 Cr2_90 1_555 1_555
O3_90 H9_179 1_555 1_555
O7_90 H10_179 1_555 1_555
O7_90 H9_180 1_555 1_555
O3_90 H10_180 1_555 1_555
Cr1_91 O1_91 1_555 1_555
O2_91 Cr1_91 1_555 1_555
O3_91 Cr1_91 1_555 1_555
O4_113 Cr1_91 1_555 1_555
Cr2_91 O4_113 1_555 1_555
O5_91 Cr2_91 1_555 1_555
O6_91 Cr2_91 1_555 1_555
O7_91 Cr2_91 1_555 1_555
O3_91 H9_181 1_555 1_555
O7_91 H10_181 1_555 1_555
O7_91 H9_182 1_555 1_555
O3_91 H10_182 1_555 1_555
Cr1_92 O1_92 1_555 1_555
O2_92 Cr1_92 1_555 1_555
O3_92 Cr1_92 1_555 1_555
O4_114 Cr1_92 1_555 1_555
Cr2_92 O4_114 1_555 1_555
O5_92 Cr2_92 1_555 1_555
O6_92 Cr2_92 1_555 1_555
O7_92 Cr2_92 1_555 1_555
O3_92 H9_183 1_555 1_555
O7_92 H10_183 1_555 1_555
O7_92 H9_184 1_555 1_555
O3_92 H10_184 1_555 1_555
Cr2_93 O4_115 1_555 1_555
O5_93 Cr2_93 1_555 1_555
O6_93 Cr2_93 1_555 1_555
O7_93 Cr2_93 1_555 1_555
O7_93 H10_185 1_555 1_555
O7_93 H9_185 1_555 1_555
Cr1_93 O1_93 1_555 1_555
O2_93 Cr1_93 1_555 1_555
O3_93 Cr1_93 1_555 1_555
O4_116 Cr1_93 1_555 1_555
O3_93 H9_186 1_555 1_555
O3_93 H10_186 1_555 1_555
Cr1_94 O1_94 1_555 1_555
O2_94 Cr1_94 1_555 1_555
O3_94 Cr1_94 1_555 1_555
O4_117 Cr1_94 1_555 1_555
Cr2_94 O4_117 1_555 1_555
O5_94 Cr2_94 1_555 1_555
O6_94 Cr2_94 1_555 1_555
O7_94 Cr2_94 1_555 1_555
O3_94 H9_187 1_555 1_555
O7_94 H10_187 1_555 1_555
O7_94 H9_188 1_555 1_555
O3_94 H10_188 1_555 1_555
Cr2_95 O4_118 1_555 1_555
O5_95 Cr2_95 1_555 1_555
O6_95 Cr2_95 1_555 1_555
O7_95 Cr2_95 1_555 1_555
O7_95 H10_189 1_555 1_555
O7_95 H9_189 1_555 1_555
Cr1_95 O1_95 1_555 1_555
O2_95 Cr1_95 1_555 1_555
O3_95 Cr1_95 1_555 1_555
O4_119 Cr1_95 1_555 1_555
O3_95 H9_190 1_555 1_555
O3_95 H10_190 1_555 1_555
Cr1_96 O1_96 1_555 1_555
O2_96 Cr1_96 1_555 1_555
O3_96 Cr1_96 1_555 1_555
O4_120 Cr1_96 1_555 1_555
Cr2_96 O4_120 1_555 1_555
O5_96 Cr2_96 1_555 1_555
O6_96 Cr2_96 1_555 1_555
O7_96 Cr2_96 1_555 1_555
O3_96 H9_191 1_555 1_555
O7_96 H10_191 1_555 1_555
O7_96 H9_192 1_555 1_555
O3_96 H10_192 1_555 1_555
Ag1 N2 1_555 1_555
Ag2 N1 1_555 1_555
N1 N2 1_555 1_555
N2 C3 1_555 1_555
N3 Ag2 1_555 1_555
N4 Ag1 1_555 1_555
N7 N8 1_555 1_555
N8 C7 1_555 1_555
N9 N10 1_555 1_555
N11 N12 1_555 1_555
N12 C7 1_555 1_555
C1 N4 1_555 1_555
C2 N3 1_555 1_555
H2 C2 1_555 1_555
C3 N11 1_555 1_555
H3 C3 1_555 1_555
C4 N1 1_555 1_555
H4 C4 1_555 1_555
C7 H7 1_555 1_555
C8 N7 1_555 1_555
H8 C8 1_555 1_555
Ag3 N8 1_555 1_555
Ag4 N7 1_555 1_555
N13 Ag2 1_555 1_555
N14 Ag2 1_555 1_555
N15 Ag1 1_555 1_555
N3 N4 1_555 1_555
N9 C1 1_555 1_555
N9 C2 1_555 1_555
N11 C4 1_555 1_555
N12 C8 1_555 1_555
N5 N6 1_555 1_555
N6 C6 1_555 1_555
C5 N5 1_555 1_555
H5 C5 1_555 1_555
H6 C6 1_555 1_555
Ag5 N6 1_555 1_555
Ag6 N5 1_555 1_555
Ag1_2 N2_2 1_555 1_555
Ag2_2 N1_2 1_555 1_555
N1_2 N2_2 1_555 1_555
N2_2 C3_2 1_555 1_555
N3_2 Ag2_2 1_555 1_555
N4_2 Ag1_2 1_555 1_555
N5_2 N6_2 1_555 1_555
N6_2 C6_2 1_555 1_555
N7_2 N8_2 1_555 1_555
N8_2 C7_2 1_555 1_555
N9_2 N10_2 1_555 1_555
N10_2 C5_2 1_555 1_555
N11_2 N12_2 1_555 1_555
N12_2 C7_2 1_555 1_555
C1_2 N4_2 1_555 1_555
H1_2 C1_2 1_555 1_555
C2_2 N3_2 1_555 1_555
H2_2 C2_2 1_555 1_555
C3_2 N11_2 1_555 1_555
H3_2 C3_2 1_555 1_555
C4_2 N1_2 1_555 1_555
H4_2 C4_2 1_555 1_555
C5_2 N5_2 1_555 1_555
H5_2 C5_2 1_555 1_555
C6_2 N10_2 1_555 1_555
H6_2 C6_2 1_555 1_555
C7_2 H7_2 1_555 1_555
C8_2 N7_2 1_555 1_555
H8_2 C8_2 1_555 1_555
Ag4_2 N7_2 1_555 1_555
Ag5_2 N6_2 1_555 1_555
Ag6_2 N5_2 1_555 1_555
N13_2 Ag2_2 1_555 1_555
N14_2 Ag2_2 1_555 1_555
N15_2 Ag1_2 1_555 1_555
N16_2 Ag1_2 1_555 1_555
N3_2 N4_2 1_555 1_555
N9_2 C1_2 1_555 1_555
N9_2 C2_2 1_555 1_555
N11_2 C4_2 1_555 1_555
N12_2 C8_2 1_555 1_555
N5_3 N6_3 1_555 1_555
N6_3 C6_3 1_555 1_555
C5_3 N5_3 1_555 1_555
H5_3 C5_3 1_555 1_555
H6_3 C6_3 1_555 1_555
Ag6 N6_3 1_555 1_555
Ag5 N5_3 1_555 1_555
Ag1_3 N2_3 1_555 1_555
Ag2_3 N1_3 1_555 1_555
N1_3 N2_3 1_555 1_555
N2_3 C3_3 1_555 1_555
N3_3 Ag2_3 1_555 1_555
N4_3 Ag1_3 1_555 1_555
N7_3 N8_3 1_555 1_555
N8_3 C7_3 1_555 1_555
N11_3 N12_3 1_555 1_555
N12_3 C7_3 1_555 1_555
C3_3 N11_3 1_555 1_555
H3_3 C3_3 1_555 1_555
C4_3 N1_3 1_555 1_555
H4_3 C4_3 1_555 1_555
C7_3 H7_3 1_555 1_555
C8_3 N7_3 1_555 1_555
H8_3 C8_3 1_555 1_555
Ag3_3 N8_3 1_555 1_555
Ag4_3 N7_3 1_555 1_555
N13_3 Ag2_3 1_555 1_555
N14_3 Ag2_3 1_555 1_555
N15_3 Ag1_3 1_555 1_555
N3_3 N4_3 1_555 1_555
N11_3 C4_3 1_555 1_555
N12_3 C8_3 1_555 1_555
Ag1_4 N2_4 1_555 1_555
Ag2_4 N1_4 1_555 1_555
N1_4 N2_4 1_555 1_555
N2_4 C3_4 1_555 1_555
N3_4 Ag2_4 1_555 1_555
N4_4 Ag1_4 1_555 1_555
N5_4 N6_4 1_555 1_555
N6_4 C6_4 1_555 1_555
N7_4 N8_4 1_555 1_555
N8_4 C7_4 1_555 1_555
N9_3 N10_3 1_555 1_555
N10_3 C5_4 1_555 1_555
N11_4 N12_4 1_555 1_555
N12_4 C7_4 1_555 1_555
C1_3 N4_4 1_555 1_555
H1_4 C1_3 1_555 1_555
C2_3 N3_4 1_555 1_555
H2_3 C2_3 1_555 1_555
C3_4 N11_4 1_555 1_555
H3_4 C3_4 1_555 1_555
C4_4 N1_4 1_555 1_555
H4_4 C4_4 1_555 1_555
C5_4 N5_4 1_555 1_555
H5_4 C5_4 1_555 1_555
C6_4 N10_3 1_555 1_555
H6_4 C6_4 1_555 1_555
C7_4 H7_4 1_555 1_555
C8_4 N7_4 1_555 1_555
H8_4 C8_4 1_555 1_555
Ag3_4 N8_4 1_555 1_555
Ag4_4 N7_4 1_555 1_555
Ag5_3 N6_4 1_555 1_555
Ag6_3 N5_4 1_555 1_555
N13_4 Ag2_4 1_555 1_555
N14_4 Ag2_4 1_555 1_555
N15_4 Ag1_4 1_555 1_555
N16_4 Ag1_4 1_555 1_555
N3_4 N4_4 1_555 1_555
N9_3 C1_3 1_555 1_555
N9_3 C2_3 1_555 1_555
N11_4 C4_4 1_555 1_555
N12_4 C8_4 1_555 1_555
N5_5 N6_5 1_555 1_555
N6_5 C6_5 1_555 1_555
C5_5 N5_5 1_555 1_555
H5_5 C5_5 1_555 1_555
H6_5 C6_5 1_555 1_555
Ag5_4 N6_5 1_555 1_555
Ag6_4 N5_5 1_555 1_555
Ag1_5 N2_5 1_555 1_555
Ag2_5 N1_5 1_555 1_555
N1_5 N2_5 1_555 1_555
N2_5 C3_5 1_555 1_555
N3_5 Ag2_5 1_555 1_555
N4_5 Ag1_5 1_555 1_555
N7_5 N8_5 1_555 1_555
N8_5 C7_5 1_555 1_555
N11_5 N12_5 1_555 1_555
N12_5 C7_5 1_555 1_555
C3_5 N11_5 1_555 1_555
H3_5 C3_5 1_555 1_555
C4_5 N1_5 1_555 1_555
H4_5 C4_5 1_555 1_555
C7_5 H7_5 1_555 1_555
C8_5 N7_5 1_555 1_555
H8_5 C8_5 1_555 1_555
Ag4_5 N7_5 1_555 1_555
N13_5 Ag2_5 1_555 1_555
N14_5 Ag2_5 1_555 1_555
N15_5 Ag1_5 1_555 1_555
N3_5 N4_5 1_555 1_555
N11_5 C4_5 1_555 1_555
N12_5 C8_5 1_555 1_555
N5_6 N6_6 1_555 1_555
N6_6 C6_6 1_555 1_555
N9_4 N10_4 1_555 1_555
N10_4 C5_6 1_555 1_555
H1_6 C1_4 1_555 1_555
H2_4 C2_4 1_555 1_555
C5_6 N5_6 1_555 1_555
H5_6 C5_6 1_555 1_555
C6_6 N10_4 1_555 1_555
H6_6 C6_6 1_555 1_555
Ag5_5 N6_6 1_555 1_555
Ag6_5 N5_6 1_555 1_555
N9_4 C1_4 1_555 1_555
N9_4 C2_4 1_555 1_555
Ag1_6 N2_6 1_555 1_555
Ag2_6 N1_6 1_555 1_555
N1_6 N2_6 1_555 1_555
N2_6 C3_6 1_555 1_555
N3_6 Ag2_6 1_555 1_555
N4_6 Ag1_6 1_555 1_555
N7_6 N8_6 1_555 1_555
N8_6 C7_6 1_555 1_555
N11_6 N12_6 1_555 1_555
N12_6 C7_6 1_555 1_555
C3_6 N11_6 1_555 1_555
H3_6 C3_6 1_555 1_555
C4_6 N1_6 1_555 1_555
H4_6 C4_6 1_555 1_555
C7_6 H7_6 1_555 1_555
C8_6 N7_6 1_555 1_555
H8_6 C8_6 1_555 1_555
Ag3_6 N8_6 1_555 1_555
Ag4_6 N7_6 1_555 1_555
N13_6 Ag2_6 1_555 1_555
N14_6 Ag2_6 1_555 1_555
N15_6 Ag1_6 1_555 1_555
N16_6 Ag1_6 1_555 1_555
N3_6 N4_6 1_555 1_555
N11_6 C4_6 1_555 1_555
N12_6 C8_6 1_555 1_555
Ag1_7 N2_7 1_555 1_555
Ag5_2 N1_7 1_555 1_555
N1_7 N2_7 1_555 1_555
N2_7 C3_7 1_555 1_555
N3_7 Ag5_2 1_555 1_555
N4_7 Ag1_7 1_555 1_555
N5_7 N6_7 1_555 1_555
N6_7 C6_7 1_555 1_555
N7_7 N8_7 1_555 1_555
N8_7 C7_7 1_555 1_555
N9_5 N10_5 1_555 1_555
N10_5 C5_7 1_555 1_555
N11_7 N12_7 1_555 1_555
N12_7 C7_7 1_555 1_555
C1_5 N4_7 1_555 1_555
H1_7 C1_5 1_555 1_555
C2_5 N3_7 1_555 1_555
H2_5 C2_5 1_555 1_555
C3_7 N11_7 1_555 1_555
H3_7 C3_7 1_555 1_555
C4_7 N1_7 1_555 1_555
H4_7 C4_7 1_555 1_555
C5_7 N5_7 1_555 1_555
H5_7 C5_7 1_555 1_555
C6_7 N10_5 1_555 1_555
H6_7 C6_7 1_555 1_555
C7_7 H7_7 1_555 1_555
C8_7 N7_7 1_555 1_555
H8_7 C8_7 1_555 1_555
Ag4_7 N7_7 1_555 1_555
Ag5_6 N6_7 1_555 1_555
Ag6_6 N5_7 1_555 1_555
N13_7 Ag5_2 1_555 1_555
N15_7 Ag1_7 1_555 1_555
N16_7 Ag1_7 1_555 1_555
N3_7 N4_7 1_555 1_555
N9_5 C1_5 1_555 1_555
N9_5 C2_5 1_555 1_555
N11_7 C4_7 1_555 1_555
N12_7 C8_7 1_555 1_555
Ag1_8 N2_8 1_555 1_555
Ag2_7 N1_8 1_555 1_555
N1_8 N2_8 1_555 1_555
N2_8 C3_8 1_555 1_555
N3_8 Ag2_7 1_555 1_555
N4_8 Ag1_8 1_555 1_555
N7_8 N8_8 1_555 1_555
N8_8 C7_8 1_555 1_555
N11_8 N12_8 1_555 1_555
N12_8 C7_8 1_555 1_555
C3_8 N11_8 1_555 1_555
H3_8 C3_8 1_555 1_555
C4_8 N1_8 1_555 1_555
H4_8 C4_8 1_555 1_555
C7_8 H7_8 1_555 1_555
C8_8 N7_8 1_555 1_555
H8_8 C8_8 1_555 1_555
Ag3_8 N8_8 1_555 1_555
Ag4_8 N7_8 1_555 1_555
N13_8 Ag2_7 1_555 1_555
N14_7 Ag2_7 1_555 1_555
N15_8 Ag1_8 1_555 1_555
N16_8 Ag1_8 1_555 1_555
N3_8 N4_8 1_555 1_555
N11_8 C4_8 1_555 1_555
N12_8 C8_8 1_555 1_555
N5_8 N6_8 1_555 1_555
N6_8 C6_8 1_555 1_555
N9_6 N10_6 1_555 1_555
N10_6 C5_8 1_555 1_555
H1_8 C1_6 1_555 1_555
H2_6 C2_6 1_555 1_555
C5_8 N5_8 1_555 1_555
H5_8 C5_8 1_555 1_555
C6_8 N10_6 1_555 1_555
H6_8 C6_8 1_555 1_555
Ag5_7 N6_8 1_555 1_555
Ag6_7 N5_8 1_555 1_555
N9_6 C1_6 1_555 1_555
N9_6 C2_6 1_555 1_555
Ag1_9 N2_9 1_555 1_555
Ag2_8 N1_9 1_555 1_555
N1_9 N2_9 1_555 1_555
N2_9 C3_9 1_555 1_555
N3_9 Ag2_8 1_555 1_555
N4_9 Ag1_9 1_555 1_555
N5_9 N6_9 1_555 1_555
N6_9 C6_9 1_555 1_555
N7_9 N8_9 1_555 1_555
N8_9 C7_9 1_555 1_555
N9_7 N10_7 1_555 1_555
N10_7 C5_9 1_555 1_555
N11_9 N12_9 1_555 1_555
N12_9 C7_9 1_555 1_555
C1_7 N4_9 1_555 1_555
H1_9 C1_7 1_555 1_555
C2_7 N3_9 1_555 1_555
H2_7 C2_7 1_555 1_555
C3_9 N11_9 1_555 1_555
H3_9 C3_9 1_555 1_555
C4_9 N1_9 1_555 1_555
H4_9 C4_9 1_555 1_555
C5_9 N5_9 1_555 1_555
H5_9 C5_9 1_555 1_555
C6_9 N10_7 1_555 1_555
H6_9 C6_9 1_555 1_555
C7_9 H7_9 1_555 1_555
C8_9 N7_9 1_555 1_555
H8_9 C8_9 1_555 1_555
Ag3_9 N8_9 1_555 1_555
Ag4_9 N7_9 1_555 1_555
Ag6_5 N6_9 1_555 1_555
Ag5_5 N5_9 1_555 1_555
N13_9 Ag2_8 1_555 1_555
N14_8 Ag2_8 1_555 1_555
N15_9 Ag1_9 1_555 1_555
N16_9 Ag1_9 1_555 1_555
N3_9 N4_9 1_555 1_555
N9_7 C1_7 1_555 1_555
N9_7 C2_7 1_555 1_555
N11_9 C4_9 1_555 1_555
N12_9 C8_9 1_555 1_555
N5_10 N6_10 1_555 1_555
N6_10 C6_10 1_555 1_555
C5_10 N5_10 1_555 1_555
H5_10 C5_10 1_555 1_555
H6_10 C6_10 1_555 1_555
Ag5_8 N6_10 1_555 1_555
Ag6_8 N5_10 1_555 1_555
Ag1_10 N2_10 1_555 1_555
Ag2_9 N1_10 1_555 1_555
N1_10 N2_10 1_555 1_555
N2_10 C3_10 1_555 1_555
N3_10 Ag2_9 1_555 1_555
N4_10 Ag1_10 1_555 1_555
N7_10 N8_10 1_555 1_555
N8_10 C7_10 1_555 1_555
N9_8 N10_8 1_555 1_555
N11_10 N12_10 1_555 1_555
N12_10 C7_10 1_555 1_555
C1_8 N4_10 1_555 1_555
C2_8 N3_10 1_555 1_555
H2_8 C2_8 1_555 1_555
C3_10 N11_10 1_555 1_555
H3_10 C3_10 1_555 1_555
C4_10 N1_10 1_555 1_555
H4_10 C4_10 1_555 1_555
C7_10 H7_10 1_555 1_555
C8_10 N7_10 1_555 1_555
H8_10 C8_10 1_555 1_555
Ag3_10 N8_10 1_555 1_555
Ag4_10 N7_10 1_555 1_555
N13_10 Ag2_9 1_555 1_555
N14_9 Ag2_9 1_555 1_555
N15_10 Ag1_10 1_555 1_555
N3_10 N4_10 1_555 1_555
N9_8 C1_8 1_555 1_555
N9_8 C2_8 1_555 1_555
N11_10 C4_10 1_555 1_555
N12_10 C8_10 1_555 1_555
Ag1_11 N2_11 1_555 1_555
Ag2_10 N1_11 1_555 1_555
N1_11 N2_11 1_555 1_555
N2_11 C3_11 1_555 1_555
N3_11 Ag2_10 1_555 1_555
N4_11 Ag1_11 1_555 1_555
N7_11 N8_11 1_555 1_555
N8_11 C7_11 1_555 1_555
N9_9 N10_9 1_555 1_555
N11_11 N12_11 1_555 1_555
N12_11 C7_11 1_555 1_555
C1_9 N4_11 1_555 1_555
C2_9 N3_11 1_555 1_555
H2_9 C2_9 1_555 1_555
C3_11 N11_11 1_555 1_555
H3_11 C3_11 1_555 1_555
C4_11 N1_11 1_555 1_555
H4_11 C4_11 1_555 1_555
C7_11 H7_11 1_555 1_555
C8_11 N7_11 1_555 1_555
H8_11 C8_11 1_555 1_555
Ag3_11 N8_11 1_555 1_555
Ag4_11 N7_11 1_555 1_555
N13_11 Ag2_10 1_555 1_555
N14_10 Ag2_10 1_555 1_555
N15_11 Ag1_11 1_555 1_555
N3_11 N4_11 1_555 1_555
N9_9 C1_9 1_555 1_555
N9_9 C2_9 1_555 1_555
N11_11 C4_11 1_555 1_555
N12_11 C8_11 1_555 1_555
N5_11 N6_11 1_555 1_555
N6_11 C6_11 1_555 1_555
C5_11 N5_11 1_555 1_555
H5_11 C5_11 1_555 1_555
H6_11 C6_11 1_555 1_555
Ag5_9 N6_11 1_555 1_555
Ag6_9 N5_11 1_555 1_555
Ag1_12 N2_12 1_555 1_555
Ag2_11 N1_12 1_555 1_555
N1_12 N2_12 1_555 1_555
N2_12 C3_12 1_555 1_555
N3_12 Ag2_11 1_555 1_555
N4_12 Ag1_12 1_555 1_555
N7_12 N8_12 1_555 1_555
N8_12 C7_12 1_555 1_555
N9_10 N10_10 1_555 1_555
N11_12 N12_12 1_555 1_555
N12_12 C7_12 1_555 1_555
C1_10 N4_12 1_555 1_555
C2_10 N3_12 1_555 1_555
H2_10 C2_10 1_555 1_555
C3_12 N11_12 1_555 1_555
H3_12 C3_12 1_555 1_555
C4_12 N1_12 1_555 1_555
H4_12 C4_12 1_555 1_555
C7_12 H7_12 1_555 1_555
C8_12 N7_12 1_555 1_555
H8_12 C8_12 1_555 1_555
Ag3_12 N8_12 1_555 1_555
Ag4_12 N7_12 1_555 1_555
N13_12 Ag2_11 1_555 1_555
N14_11 Ag2_11 1_555 1_555
N15_12 Ag1_12 1_555 1_555
N3_12 N4_12 1_555 1_555
N9_10 C1_10 1_555 1_555
N9_10 C2_10 1_555 1_555
N11_12 C4_12 1_555 1_555
N12_12 C8_12 1_555 1_555
N5_12 N6_12 1_555 1_555
N6_12 C6_12 1_555 1_555
C5_12 N5_12 1_555 1_555
H5_12 C5_12 1_555 1_555
H6_12 C6_12 1_555 1_555
Ag5_10 N6_12 1_555 1_555
Ag6_10 N5_12 1_555 1_555
N5_13 N6_13 1_555 1_555
N6_13 C6_13 1_555 1_555
N9_11 N10_11 1_555 1_555
N10_11 C5_13 1_555 1_555
H1_13 C1_11 1_555 1_555
H2_11 C2_11 1_555 1_555
C5_13 N5_13 1_555 1_555
H5_13 C5_13 1_555 1_555
C6_13 N10_11 1_555 1_555
H6_13 C6_13 1_555 1_555
Ag5_11 N6_13 1_555 1_555
Ag6_11 N5_13 1_555 1_555
N9_11 C1_11 1_555 1_555
N9_11 C2_11 1_555 1_555
Ag1_13 N2_13 1_555 1_555
Ag2_12 N1_13 1_555 1_555
N1_13 N2_13 1_555 1_555
N2_13 C3_13 1_555 1_555
N3_13 Ag2_12 1_555 1_555
N4_13 Ag1_13 1_555 1_555
N7_13 N8_13 1_555 1_555
N8_13 C7_13 1_555 1_555
N11_13 N12_13 1_555 1_555
N12_13 C7_13 1_555 1_555
C3_13 N11_13 1_555 1_555
H3_13 C3_13 1_555 1_555
C4_13 N1_13 1_555 1_555
H4_13 C4_13 1_555 1_555
C7_13 H7_13 1_555 1_555
C8_13 N7_13 1_555 1_555
H8_13 C8_13 1_555 1_555
Ag3_13 N8_13 1_555 1_555
Ag4_13 N7_13 1_555 1_555
N13_13 Ag2_12 1_555 1_555
N14_12 Ag2_12 1_555 1_555
N15_13 Ag1_13 1_555 1_555
N16_13 Ag1_13 1_555 1_555
N3_13 N4_13 1_555 1_555
N11_13 C4_13 1_555 1_555
N12_13 C8_13 1_555 1_555
Ag1_14 N2_14 1_555 1_555
Ag2_13 N1_14 1_555 1_555
N1_14 N2_14 1_555 1_555
N2_14 C3_14 1_555 1_555
N3_14 Ag2_13 1_555 1_555
N4_14 Ag1_14 1_555 1_555
N7_14 N8_14 1_555 1_555
N8_14 C7_14 1_555 1_555
N11_14 N12_14 1_555 1_555
N12_14 C7_14 1_555 1_555
C3_14 N11_14 1_555 1_555
H3_14 C3_14 1_555 1_555
C4_14 N1_14 1_555 1_555
H4_14 C4_14 1_555 1_555
C7_14 H7_14 1_555 1_555
C8_14 N7_14 1_555 1_555
H8_14 C8_14 1_555 1_555
Ag3_14 N8_14 1_555 1_555
Ag4_14 N7_14 1_555 1_555
N13_14 Ag2_13 1_555 1_555
N14_13 Ag2_13 1_555 1_555
N15_14 Ag1_14 1_555 1_555
N3_14 N4_14 1_555 1_555
N11_14 C4_14 1_555 1_555
N12_14 C8_14 1_555 1_555
N5_14 N6_14 1_555 1_555
N6_14 C6_14 1_555 1_555
C5_14 N5_14 1_555 1_555
H5_14 C5_14 1_555 1_555
H6_14 C6_14 1_555 1_555
Ag6_9 N6_14 1_555 1_555
Ag5_9 N5_14 1_555 1_555
N5_15 N6_15 1_555 1_555
N6_15 C6_15 1_555 1_555
C5_15 N5_15 1_555 1_555
H5_15 C5_15 1_555 1_555
H6_15 C6_15 1_555 1_555
Ag6_10 N6_15 1_555 1_555
Ag5_10 N5_15 1_555 1_555
Ag1_15 N2_15 1_555 1_555
Ag2_14 N1_15 1_555 1_555
N1_15 N2_15 1_555 1_555
N2_15 C3_15 1_555 1_555
N3_15 Ag2_14 1_555 1_555
N4_15 Ag1_15 1_555 1_555
N7_15 N8_15 1_555 1_555
N8_15 C7_15 1_555 1_555
N11_15 N12_15 1_555 1_555
N12_15 C7_15 1_555 1_555
C3_15 N11_15 1_555 1_555
H3_15 C3_15 1_555 1_555
C4_15 N1_15 1_555 1_555
H4_15 C4_15 1_555 1_555
C7_15 H7_15 1_555 1_555
C8_15 N7_15 1_555 1_555
H8_15 C8_15 1_555 1_555
Ag3_15 N8_15 1_555 1_555
Ag4_15 N7_15 1_555 1_555
N13_15 Ag2_14 1_555 1_555
N14_14 Ag2_14 1_555 1_555
N15_15 Ag1_15 1_555 1_555
N3_15 N4_15 1_555 1_555
N11_15 C4_15 1_555 1_555
N12_15 C8_15 1_555 1_555
Ag1_16 N2_16 1_555 1_555
Ag2_15 N1_16 1_555 1_555
N1_16 N2_16 1_555 1_555
N2_16 C3_16 1_555 1_555
N3_16 Ag2_15 1_555 1_555
N4_16 Ag1_16 1_555 1_555
N5_16 N6_16 1_555 1_555
N6_16 C6_16 1_555 1_555
N7_16 N8_16 1_555 1_555
N8_16 C7_16 1_555 1_555
N9_12 N10_12 1_555 1_555
N10_12 C5_16 1_555 1_555
N11_16 N12_16 1_555 1_555
N12_16 C7_16 1_555 1_555
C1_12 N4_16 1_555 1_555
H1_16 C1_12 1_555 1_555
C2_12 N3_16 1_555 1_555
H2_12 C2_12 1_555 1_555
C3_16 N11_16 1_555 1_555
H3_16 C3_16 1_555 1_555
C4_16 N1_16 1_555 1_555
H4_16 C4_16 1_555 1_555
C5_16 N5_16 1_555 1_555
H5_16 C5_16 1_555 1_555
C6_16 N10_12 1_555 1_555
H6_16 C6_16 1_555 1_555
C7_16 H7_16 1_555 1_555
C8_16 N7_16 1_555 1_555
H8_16 C8_16 1_555 1_555
Ag3_16 N8_16 1_555 1_555
Ag4_16 N7_16 1_555 1_555
Ag5_12 N6_16 1_555 1_555
Ag6_12 N5_16 1_555 1_555
N13_16 Ag2_15 1_555 1_555
N14_15 Ag2_15 1_555 1_555
N15_16 Ag1_16 1_555 1_555
N16_16 Ag1_16 1_555 1_555
N3_16 N4_16 1_555 1_555
N9_12 C1_12 1_555 1_555
N9_12 C2_12 1_555 1_555
N11_16 C4_16 1_555 1_555
N12_16 C8_16 1_555 1_555
N5_17 N6_17 1_555 1_555
N6_17 C6_17 1_555 1_555
N9_13 N10_13 1_555 1_555
N10_13 C5_17 1_555 1_555
H1_17 C1_13 1_555 1_555
H2_13 C2_13 1_555 1_555
C5_17 N5_17 1_555 1_555
H5_17 C5_17 1_555 1_555
C6_17 N10_13 1_555 1_555
H6_17 C6_17 1_555 1_555
Ag6_12 N6_17 1_555 1_555
Ag5_12 N5_17 1_555 1_555
N9_13 C1_13 1_555 1_555
N9_13 C2_13 1_555 1_555
Ag1_17 N2_17 1_555 1_555
Ag2_16 N1_17 1_555 1_555
N1_17 N2_17 1_555 1_555
N2_17 C3_17 1_555 1_555
N3_17 Ag2_16 1_555 1_555
N4_17 Ag1_17 1_555 1_555
N7_17 N8_17 1_555 1_555
N8_17 C7_17 1_555 1_555
N11_17 N12_17 1_555 1_555
N12_17 C7_17 1_555 1_555
C3_17 N11_17 1_555 1_555
H3_17 C3_17 1_555 1_555
C4_17 N1_17 1_555 1_555
H4_17 C4_17 1_555 1_555
C7_17 H7_17 1_555 1_555
C8_17 N7_17 1_555 1_555
H8_17 C8_17 1_555 1_555
Ag3_17 N8_17 1_555 1_555
Ag4_17 N7_17 1_555 1_555
N13_17 Ag2_16 1_555 1_555
N14_16 Ag2_16 1_555 1_555
N15_17 Ag1_17 1_555 1_555
N16_17 Ag1_17 1_555 1_555
N3_17 N4_17 1_555 1_555
N11_17 C4_17 1_555 1_555
N12_17 C8_17 1_555 1_555
Ag1_18 N2_18 1_555 1_555
Ag2_17 N1_18 1_555 1_555
N1_18 N2_18 1_555 1_555
N2_18 C3_18 1_555 1_555
N3_18 Ag2_17 1_555 1_555
N4_18 Ag1_18 1_555 1_555
N5_18 N6_18 1_555 1_555
N6_18 C6_18 1_555 1_555
N7_18 N8_18 1_555 1_555
N8_18 C7_18 1_555 1_555
N9_14 N10_14 1_555 1_555
N10_14 C5_18 1_555 1_555
N11_18 N12_18 1_555 1_555
N12_18 C7_18 1_555 1_555
C1_14 N4_18 1_555 1_555
H1_18 C1_14 1_555 1_555
C2_14 N3_18 1_555 1_555
H2_14 C2_14 1_555 1_555
C3_18 N11_18 1_555 1_555
H3_18 C3_18 1_555 1_555
C4_18 N1_18 1_555 1_555
H4_18 C4_18 1_555 1_555
C5_18 N5_18 1_555 1_555
H5_18 C5_18 1_555 1_555
C6_18 N10_14 1_555 1_555
H6_18 C6_18 1_555 1_555
C7_18 H7_18 1_555 1_555
C8_18 N7_18 1_555 1_555
H8_18 C8_18 1_555 1_555
Ag3_18 N8_18 1_555 1_555
Ag4_18 N7_18 1_555 1_555
Ag6_11 N6_18 1_555 1_555
Ag5_11 N5_18 1_555 1_555
N13_18 Ag2_17 1_555 1_555
N14_17 Ag2_17 1_555 1_555
N15_18 Ag1_18 1_555 1_555
N16_18 Ag1_18 1_555 1_555
N3_18 N4_18 1_555 1_555
N9_14 C1_14 1_555 1_555
N9_14 C2_14 1_555 1_555
N11_18 C4_18 1_555 1_555
N12_18 C8_18 1_555 1_555
N5_19 N6_19 1_555 1_555
N6_19 C6_19 1_555 1_555
C5_19 N5_19 1_555 1_555
H5_19 C5_19 1_555 1_555
H6_19 C6_19 1_555 1_555
Ag5_13 N6_19 1_555 1_555
Ag6_13 N5_19 1_555 1_555
Ag1_19 N2_19 1_555 1_555
Ag2_18 N1_19 1_555 1_555
N1_19 N2_19 1_555 1_555
N2_19 C3_19 1_555 1_555
N3_19 Ag2_18 1_555 1_555
N4_19 Ag1_19 1_555 1_555
N7_19 N8_19 1_555 1_555
N8_19 C7_19 1_555 1_555
N9_15 N10_15 1_555 1_555
N11_19 N12_19 1_555 1_555
N12_19 C7_19 1_555 1_555
C1_15 N4_19 1_555 1_555
C2_15 N3_19 1_555 1_555
H2_15 C2_15 1_555 1_555
C3_19 N11_19 1_555 1_555
H3_19 C3_19 1_555 1_555
C4_19 N1_19 1_555 1_555
H4_19 C4_19 1_555 1_555
C7_19 H7_19 1_555 1_555
C8_19 N7_19 1_555 1_555
H8_19 C8_19 1_555 1_555
Ag3_19 N8_19 1_555 1_555
Ag4_19 N7_19 1_555 1_555
N13_19 Ag2_18 1_555 1_555
N14_18 Ag2_18 1_555 1_555
N15_19 Ag1_19 1_555 1_555
N3_19 N4_19 1_555 1_555
N9_15 C1_15 1_555 1_555
N9_15 C2_15 1_555 1_555
N11_19 C4_19 1_555 1_555
N12_19 C8_19 1_555 1_555
Ag1_20 N2_20 1_555 1_555
Ag2_19 N1_20 1_555 1_555
N1_20 N2_20 1_555 1_555
N2_20 C3_20 1_555 1_555
N3_20 Ag2_19 1_555 1_555
N4_20 Ag1_20 1_555 1_555
N5_20 N6_20 1_555 1_555
N6_20 C6_20 1_555 1_555
N7_20 N8_20 1_555 1_555
N8_20 C7_20 1_555 1_555
N9_16 N10_16 1_555 1_555
N10_16 C5_20 1_555 1_555
N11_20 N12_20 1_555 1_555
N12_20 C7_20 1_555 1_555
C1_16 N4_20 1_555 1_555
H1_20 C1_16 1_555 1_555
C2_16 N3_20 1_555 1_555
H2_16 C2_16 1_555 1_555
C3_20 N11_20 1_555 1_555
H3_20 C3_20 1_555 1_555
C4_20 N1_20 1_555 1_555
H4_20 C4_20 1_555 1_555
C5_20 N5_20 1_555 1_555
H5_20 C5_20 1_555 1_555
C6_20 N10_16 1_555 1_555
H6_20 C6_20 1_555 1_555
C7_20 H7_20 1_555 1_555
C8_20 N7_20 1_555 1_555
H8_20 C8_20 1_555 1_555
Ag3_20 N8_20 1_555 1_555
Ag4_20 N7_20 1_555 1_555
Ag5_14 N6_20 1_555 1_555
Ag6_14 N5_20 1_555 1_555
N13_20 Ag2_19 1_555 1_555
N14_19 Ag2_19 1_555 1_555
N15_20 Ag1_20 1_555 1_555
N16_20 Ag1_20 1_555 1_555
N3_20 N4_20 1_555 1_555
N9_16 C1_16 1_555 1_555
N9_16 C2_16 1_555 1_555
N11_20 C4_20 1_555 1_555
N12_20 C8_20 1_555 1_555
Ag1_21 N2_21 1_555 1_555
Ag5_13 N1_21 1_555 1_555
N1_21 N2_21 1_555 1_555
N2_21 C3_21 1_555 1_555
N3_21 Ag5_13 1_555 1_555
N4_21 Ag1_21 1_555 1_555
N7_21 N8_21 1_555 1_555
N8_21 C7_21 1_555 1_555
N11_21 N12_21 1_555 1_555
N12_21 C7_21 1_555 1_555
C3_21 N11_21 1_555 1_555
H3_21 C3_21 1_555 1_555
C4_21 N1_21 1_555 1_555
H4_21 C4_21 1_555 1_555
C7_21 H7_21 1_555 1_555
C8_21 N7_21 1_555 1_555
H8_21 C8_21 1_555 1_555
Ag3_21 N8_21 1_555 1_555
Ag4_21 N7_21 1_555 1_555
N13_21 Ag5_13 1_555 1_555
N15_21 Ag1_21 1_555 1_555
N16_21 Ag1_21 1_555 1_555
N3_21 N4_21 1_555 1_555
N11_21 C4_21 1_555 1_555
N12_21 C8_21 1_555 1_555
N5_21 N6_21 1_555 1_555
N6_21 C6_21 1_555 1_555
N9_17 N10_17 1_555 1_555
N10_17 C5_21 1_555 1_555
H1_21 C1_17 1_555 1_555
H2_17 C2_17 1_555 1_555
C5_21 N5_21 1_555 1_555
H5_21 C5_21 1_555 1_555
C6_21 N10_17 1_555 1_555
H6_21 C6_21 1_555 1_555
Ag5_15 N6_21 1_555 1_555
Ag6_15 N5_21 1_555 1_555
N9_17 C1_17 1_555 1_555
N9_17 C2_17 1_555 1_555
N13_8 N6_22 1_555 1_555
N6_22 C6_22 1_555 1_555
C5_22 N13_8 1_555 1_555
H5_22 C5_22 1_555 1_555
H6_22 C6_22 1_555 1_555
Ag5_16 N6_22 1_555 1_555
Ag1_22 N2_22 1_555 1_555
Ag2_20 N1_22 1_555 1_555
N1_22 N2_22 1_555 1_555
N2_22 C3_22 1_555 1_555
N3_22 Ag2_20 1_555 1_555
N4_22 Ag1_22 1_555 1_555
N7_22 N8_22 1_555 1_555
N8_22 C7_22 1_555 1_555
N9_18 N10_18 1_555 1_555
N11_22 N12_22 1_555 1_555
N12_22 C7_22 1_555 1_555
C1_18 N4_22 1_555 1_555
C2_18 N3_22 1_555 1_555
H2_18 C2_18 1_555 1_555
C3_22 N11_22 1_555 1_555
H3_22 C3_22 1_555 1_555
C4_22 N1_22 1_555 1_555
H4_22 C4_22 1_555 1_555
C7_22 H7_22 1_555 1_555
C8_22 N7_22 1_555 1_555
H8_22 C8_22 1_555 1_555
Ag3_22 N8_22 1_555 1_555
Ag4_22 N7_22 1_555 1_555
N13_22 Ag2_20 1_555 1_555
N14_20 Ag2_20 1_555 1_555
N15_22 Ag1_22 1_555 1_555
N3_22 N4_22 1_555 1_555
N9_18 C1_18 1_555 1_555
N9_18 C2_18 1_555 1_555
N11_22 C4_22 1_555 1_555
N12_22 C8_22 1_555 1_555
Ag1_23 N2_23 1_555 1_555
Ag2_21 N1_23 1_555 1_555
N1_23 N2_23 1_555 1_555
N2_23 C3_23 1_555 1_555
N3_23 Ag2_21 1_555 1_555
N4_23 Ag1_23 1_555 1_555
N5_22 N6_23 1_555 1_555
N6_23 C6_23 1_555 1_555
N7_23 N8_23 1_555 1_555
N8_23 C7_23 1_555 1_555
N9_19 N10_19 1_555 1_555
N10_19 C5_23 1_555 1_555
N11_23 N12_23 1_555 1_555
N12_23 C7_23 1_555 1_555
C1_19 N4_23 1_555 1_555
H1_23 C1_19 1_555 1_555
C2_19 N3_23 1_555 1_555
H2_19 C2_19 1_555 1_555
C3_23 N11_23 1_555 1_555
H3_23 C3_23 1_555 1_555
C4_23 N1_23 1_555 1_555
H4_23 C4_23 1_555 1_555
C5_23 N5_22 1_555 1_555
H5_23 C5_23 1_555 1_555
C6_23 N10_19 1_555 1_555
H6_23 C6_23 1_555 1_555
C7_23 H7_23 1_555 1_555
C8_23 N7_23 1_555 1_555
H8_23 C8_23 1_555 1_555
Ag3_23 N8_23 1_555 1_555
Ag4_23 N7_23 1_555 1_555
Ag6_7 N6_23 1_555 1_555
Ag5_7 N5_22 1_555 1_555
N13_23 Ag2_21 1_555 1_555
N14_21 Ag2_21 1_555 1_555
N15_23 Ag1_23 1_555 1_555
N16_23 Ag1_23 1_555 1_555
N3_23 N4_23 1_555 1_555
N9_19 C1_19 1_555 1_555
N9_19 C2_19 1_555 1_555
N11_23 C4_23 1_555 1_555
N12_23 C8_23 1_555 1_555
N5_23 N6_24 1_555 1_555
N6_24 C6_24 1_555 1_555
C5_24 N5_23 1_555 1_555
H5_24 C5_24 1_555 1_555
H6_24 C6_24 1_555 1_555
Ag5_17 N6_24 1_555 1_555
Ag6_16 N5_23 1_555 1_555
Ag1_24 N2_24 1_555 1_555
Ag6_6 N1_24 1_555 1_555
N1_24 N2_24 1_555 1_555
N2_24 C3_24 1_555 1_555
N3_24 Ag6_6 1_555 1_555
N4_24 Ag1_24 1_555 1_555
N7_24 N8_24 1_555 1_555
N8_24 C7_24 1_555 1_555
N9_20 N10_20 1_555 1_555
N11_24 N12_24 1_555 1_555
N12_24 C7_24 1_555 1_555
C1_20 N4_24 1_555 1_555
C2_20 N3_24 1_555 1_555
H2_20 C2_20 1_555 1_555
C3_24 N11_24 1_555 1_555
H3_24 C3_24 1_555 1_555
C4_24 N1_24 1_555 1_555
H4_24 C4_24 1_555 1_555
C7_24 H7_24 1_555 1_555
C8_24 N7_24 1_555 1_555
H8_24 C8_24 1_555 1_555
Ag3_24 N8_24 1_555 1_555
Ag4_24 N7_24 1_555 1_555
N14_22 Ag6_6 1_555 1_555
N15_24 Ag1_24 1_555 1_555
N3_24 N4_24 1_555 1_555
N9_20 C1_20 1_555 1_555
N9_20 C2_20 1_555 1_555
N11_24 C4_24 1_555 1_555
N12_24 C8_24 1_555 1_555
Ag1_25 N2_25 1_555 1_555
Ag2_22 N1_25 1_555 1_555
N1_25 N2_25 1_555 1_555
N2_25 C3_25 1_555 1_555
N3_25 Ag2_22 1_555 1_555
N4_25 Ag1_25 1_555 1_555
N5_24 N6_25 1_555 1_555
N6_25 C6_25 1_555 1_555
N7_25 N8_25 1_555 1_555
N8_25 C7_25 1_555 1_555
N9_21 N10_21 1_555 1_555
N10_21 C5_25 1_555 1_555
N11_25 N12_25 1_555 1_555
N12_25 C7_25 1_555 1_555
C1_21 N4_25 1_555 1_555
H1_25 C1_21 1_555 1_555
C2_21 N3_25 1_555 1_555
H2_21 C2_21 1_555 1_555
C3_25 N11_25 1_555 1_555
H3_25 C3_25 1_555 1_555
C4_25 N1_25 1_555 1_555
H4_25 C4_25 1_555 1_555
C5_25 N5_24 1_555 1_555
H5_25 C5_25 1_555 1_555
C6_25 N10_21 1_555 1_555
H6_25 C6_25 1_555 1_555
C7_25 H7_25 1_555 1_555
C8_25 N7_25 1_555 1_555
H8_25 C8_25 1_555 1_555
Ag3_25 N8_25 1_555 1_555
Ag4_25 N7_25 1_555 1_555
Ag5_18 N6_25 1_555 1_555
Ag6_17 N5_24 1_555 1_555
N13_24 Ag2_22 1_555 1_555
N14_23 Ag2_22 1_555 1_555
N15_25 Ag1_25 1_555 1_555
N16_25 Ag1_25 1_555 1_555
N3_25 N4_25 1_555 1_555
N9_21 C1_21 1_555 1_555
N9_21 C2_21 1_555 1_555
N11_25 C4_25 1_555 1_555
N12_25 C8_25 1_555 1_555
Ag1_26 N2_26 1_555 1_555
Ag2_23 N1_26 1_555 1_555
N1_26 N2_26 1_555 1_555
N2_26 C3_26 1_555 1_555
N3_26 Ag2_23 1_555 1_555
N4_26 Ag1_26 1_555 1_555
N5_25 N6_26 1_555 1_555
N6_26 C6_26 1_555 1_555
N7_26 N8_26 1_555 1_555
N8_26 C7_26 1_555 1_555
N9_22 N10_22 1_555 1_555
N10_22 C5_26 1_555 1_555
N11_26 N12_26 1_555 1_555
N12_26 C7_26 1_555 1_555
C1_22 N4_26 1_555 1_555
H1_26 C1_22 1_555 1_555
C2_22 N3_26 1_555 1_555
H2_22 C2_22 1_555 1_555
C3_26 N11_26 1_555 1_555
H3_26 C3_26 1_555 1_555
C4_26 N1_26 1_555 1_555
H4_26 C4_26 1_555 1_555
C5_26 N5_25 1_555 1_555
H5_26 C5_26 1_555 1_555
C6_26 N10_22 1_555 1_555
H6_26 C6_26 1_555 1_555
C7_26 H7_26 1_555 1_555
C8_26 N7_26 1_555 1_555
H8_26 C8_26 1_555 1_555
Ag3_26 N8_26 1_555 1_555
Ag4_26 N7_26 1_555 1_555
Ag5_19 N6_26 1_555 1_555
Ag6_18 N5_25 1_555 1_555
N13_25 Ag2_23 1_555 1_555
N14_24 Ag2_23 1_555 1_555
N15_26 Ag1_26 1_555 1_555
N16_26 Ag1_26 1_555 1_555
N3_26 N4_26 1_555 1_555
N9_22 C1_22 1_555 1_555
N9_22 C2_22 1_555 1_555
N11_26 C4_26 1_555 1_555
N12_26 C8_26 1_555 1_555
Ag1_27 N2_27 1_555 1_555
Ag2_24 N1_27 1_555 1_555
N1_27 N2_27 1_555 1_555
N2_27 C3_27 1_555 1_555
N3_27 Ag2_24 1_555 1_555
N4_27 Ag1_27 1_555 1_555
N5_26 N6_27 1_555 1_555
N6_27 C6_27 1_555 1_555
N7_27 N8_27 1_555 1_555
N8_27 C7_27 1_555 1_555
N9_23 N10_23 1_555 1_555
N10_23 C5_27 1_555 1_555
N11_27 N12_27 1_555 1_555
N12_27 C7_27 1_555 1_555
C1_23 N4_27 1_555 1_555
H1_27 C1_23 1_555 1_555
C2_23 N3_27 1_555 1_555
H2_23 C2_23 1_555 1_555
C3_27 N11_27 1_555 1_555
H3_27 C3_27 1_555 1_555
C4_27 N1_27 1_555 1_555
H4_27 C4_27 1_555 1_555
C5_27 N5_26 1_555 1_555
H5_27 C5_27 1_555 1_555
C6_27 N10_23 1_555 1_555
H6_27 C6_27 1_555 1_555
C7_27 H7_27 1_555 1_555
C8_27 N7_27 1_555 1_555
H8_27 C8_27 1_555 1_555
Ag3_27 N8_27 1_555 1_555
Ag4_27 N7_27 1_555 1_555
Ag6_17 N6_27 1_555 1_555
Ag5_18 N5_26 1_555 1_555
N13_26 Ag2_24 1_555 1_555
N14_25 Ag2_24 1_555 1_555
N15_27 Ag1_27 1_555 1_555
N16_27 Ag1_27 1_555 1_555
N3_27 N4_27 1_555 1_555
N9_23 C1_23 1_555 1_555
N9_23 C2_23 1_555 1_555
N11_27 C4_27 1_555 1_555
N12_27 C8_27 1_555 1_555
Ag1_28 N2_28 1_555 1_555
Ag2_25 N1_28 1_555 1_555
N1_28 N2_28 1_555 1_555
N2_28 C3_28 1_555 1_555
N3_28 Ag2_25 1_555 1_555
N4_28 Ag1_28 1_555 1_555
N5_27 N14_20 1_555 1_555
N14_20 C6_28 1_555 1_555
N7_28 N8_28 1_555 1_555
N8_28 C7_28 1_555 1_555
N9_24 N10_24 1_555 1_555
N10_24 C5_28 1_555 1_555
N11_28 N12_28 1_555 1_555
N12_28 C7_28 1_555 1_555
C1_24 N4_28 1_555 1_555
H1_28 C1_24 1_555 1_555
C2_24 N3_28 1_555 1_555
H2_24 C2_24 1_555 1_555
C3_28 N11_28 1_555 1_555
H3_28 C3_28 1_555 1_555
C4_28 N1_28 1_555 1_555
H4_28 C4_28 1_555 1_555
C5_28 N5_27 1_555 1_555
H5_28 C5_28 1_555 1_555
C6_28 N10_24 1_555 1_555
H6_28 C6_28 1_555 1_555
C7_28 H7_28 1_555 1_555
C8_28 N7_28 1_555 1_555
H8_28 C8_28 1_555 1_555
Ag3_28 N8_28 1_555 1_555
Ag4_28 N7_28 1_555 1_555
Ag6_19 N5_27 1_555 1_555
N13_27 Ag2_25 1_555 1_555
N14_26 Ag2_25 1_555 1_555
N15_28 Ag1_28 1_555 1_555
N16_28 Ag1_28 1_555 1_555
N3_28 N4_28 1_555 1_555
N9_24 C1_24 1_555 1_555
N9_24 C2_24 1_555 1_555
N11_28 C4_28 1_555 1_555
N12_28 C8_28 1_555 1_555
Ag1_29 N2_29 1_555 1_555
Ag5_14 N1_29 1_555 1_555
N1_29 N2_29 1_555 1_555
N2_29 C3_29 1_555 1_555
N3_29 Ag5_14 1_555 1_555
N4_29 Ag1_29 1_555 1_555
N13_10 N6_28 1_555 1_555
N6_28 C6_29 1_555 1_555
N7_29 N8_29 1_555 1_555
N8_29 C7_29 1_555 1_555
N9_25 N10_25 1_555 1_555
N10_25 C5_29 1_555 1_555
N11_29 N12_29 1_555 1_555
N12_29 C7_29 1_555 1_555
C1_25 N4_29 1_555 1_555
H1_29 C1_25 1_555 1_555
C2_25 N3_29 1_555 1_555
H2_25 C2_25 1_555 1_555
C3_29 N11_29 1_555 1_555
H3_29 C3_29 1_555 1_555
C4_29 N1_29 1_555 1_555
H4_29 C4_29 1_555 1_555
C5_29 N13_10 1_555 1_555
H5_29 C5_29 1_555 1_555
C6_29 N10_25 1_555 1_555
H6_29 C6_29 1_555 1_555
C7_29 H7_29 1_555 1_555
C8_29 N7_29 1_555 1_555
H8_29 C8_29 1_555 1_555
Ag4_29 N7_29 1_555 1_555
Ag5_20 N6_28 1_555 1_555
N13_28 Ag5_14 1_555 1_555
N15_29 Ag1_29 1_555 1_555
N16_29 Ag1_29 1_555 1_555
N3_29 N4_29 1_555 1_555
N9_25 C1_25 1_555 1_555
N9_25 C2_25 1_555 1_555
N11_29 C4_29 1_555 1_555
N12_29 C8_29 1_555 1_555
Ag1_30 N2_30 1_555 1_555
Ag2_26 N1_30 1_555 1_555
N1_30 N2_30 1_555 1_555
N2_30 C3_30 1_555 1_555
N3_30 Ag2_26 1_555 1_555
N4_30 Ag1_30 1_555 1_555
N5_28 N6_29 1_555 1_555
N6_29 C6_30 1_555 1_555
N7_30 N8_30 1_555 1_555
N8_30 C7_30 1_555 1_555
N9_26 N10_26 1_555 1_555
N10_26 C5_30 1_555 1_555
N11_30 N12_30 1_555 1_555
N12_30 C7_30 1_555 1_555
C1_26 N4_30 1_555 1_555
H1_30 C1_26 1_555 1_555
C2_26 N3_30 1_555 1_555
H2_26 C2_26 1_555 1_555
C3_30 N11_30 1_555 1_555
H3_30 C3_30 1_555 1_555
C4_30 N1_30 1_555 1_555
H4_30 C4_30 1_555 1_555
C5_30 N5_28 1_555 1_555
H5_30 C5_30 1_555 1_555
C6_30 N10_26 1_555 1_555
H6_30 C6_30 1_555 1_555
C7_30 H7_30 1_555 1_555
C8_30 N7_30 1_555 1_555
H8_30 C8_30 1_555 1_555
Ag3_30 N8_30 1_555 1_555
Ag4_30 N7_30 1_555 1_555
Ag5_21 N6_29 1_555 1_555
Ag6_20 N5_28 1_555 1_555
N13_29 Ag2_26 1_555 1_555
N14_27 Ag2_26 1_555 1_555
N15_30 Ag1_30 1_555 1_555
N16_30 Ag1_30 1_555 1_555
N3_30 N4_30 1_555 1_555
N9_26 C1_26 1_555 1_555
N9_26 C2_26 1_555 1_555
N11_30 C4_30 1_555 1_555
N12_30 C8_30 1_555 1_555
Ag1_31 N2_31 1_555 1_555
Ag5_19 N1_31 1_555 1_555
N1_31 N2_31 1_555 1_555
N2_31 C3_31 1_555 1_555
N3_31 Ag5_19 1_555 1_555
N4_31 Ag1_31 1_555 1_555
N5_29 N6_30 1_555 1_555
N6_30 C6_31 1_555 1_555
N7_31 N8_31 1_555 1_555
N8_31 C7_31 1_555 1_555
N9_27 N10_27 1_555 1_555
N10_27 C5_31 1_555 1_555
N11_31 N12_31 1_555 1_555
N12_31 C7_31 1_555 1_555
C1_27 N4_31 1_555 1_555
H1_31 C1_27 1_555 1_555
C2_27 N3_31 1_555 1_555
H2_27 C2_27 1_555 1_555
C3_31 N11_31 1_555 1_555
H3_31 C3_31 1_555 1_555
C4_31 N1_31 1_555 1_555
H4_31 C4_31 1_555 1_555
C5_31 N5_29 1_555 1_555
H5_31 C5_31 1_555 1_555
C6_31 N10_27 1_555 1_555
H6_31 C6_31 1_555 1_555
C7_31 H7_31 1_555 1_555
C8_31 N7_31 1_555 1_555
H8_31 C8_31 1_555 1_555
Ag4_31 N7_31 1_555 1_555
Ag5_22 N6_30 1_555 1_555
Ag6_21 N5_29 1_555 1_555
N13_30 Ag5_19 1_555 1_555
N15_31 Ag1_31 1_555 1_555
N16_31 Ag1_31 1_555 1_555
N3_31 N4_31 1_555 1_555
N9_27 C1_27 1_555 1_555
N9_27 C2_27 1_555 1_555
N11_31 C4_31 1_555 1_555
N12_31 C8_31 1_555 1_555
Ag1_32 N2_32 1_555 1_555
Ag2_27 N1_32 1_555 1_555
N1_32 N2_32 1_555 1_555
N2_32 C3_32 1_555 1_555
N3_32 Ag2_27 1_555 1_555
N4_32 Ag1_32 1_555 1_555
N5_30 N6_31 1_555 1_555
N6_31 C6_32 1_555 1_555
N7_32 N8_32 1_555 1_555
N8_32 C7_32 1_555 1_555
N9_28 N10_28 1_555 1_555
N10_28 C5_32 1_555 1_555
N11_32 N12_32 1_555 1_555
N12_32 C7_32 1_555 1_555
C1_28 N4_32 1_555 1_555
H1_32 C1_28 1_555 1_555
C2_28 N3_32 1_555 1_555
H2_28 C2_28 1_555 1_555
C3_32 N11_32 1_555 1_555
H3_32 C3_32 1_555 1_555
C4_32 N1_32 1_555 1_555
H4_32 C4_32 1_555 1_555
C5_32 N5_30 1_555 1_555
H5_32 C5_32 1_555 1_555
C6_32 N10_28 1_555 1_555
H6_32 C6_32 1_555 1_555
C7_32 H7_32 1_555 1_555
C8_32 N7_32 1_555 1_555
H8_32 C8_32 1_555 1_555
Ag3_32 N8_32 1_555 1_555
Ag4_32 N7_32 1_555 1_555
Ag5_23 N6_31 1_555 1_555
Ag6_22 N5_30 1_555 1_555
N13_31 Ag2_27 1_555 1_555
N14_28 Ag2_27 1_555 1_555
N15_32 Ag1_32 1_555 1_555
N16_32 Ag1_32 1_555 1_555
N3_32 N4_32 1_555 1_555
N9_28 C1_28 1_555 1_555
N9_28 C2_28 1_555 1_555
N11_32 C4_32 1_555 1_555
N12_32 C8_32 1_555 1_555
Ag1_33 N2_33 1_555 1_555
Ag2_28 N1_33 1_555 1_555
N1_33 N2_33 1_555 1_555
N2_33 C3_33 1_555 1_555
N3_33 Ag2_28 1_555 1_555
N4_33 Ag1_33 1_555 1_555
N5_31 N6_32 1_555 1_555
N6_32 C6_33 1_555 1_555
N7_33 N8_33 1_555 1_555
N8_33 C7_33 1_555 1_555
N9_29 N10_29 1_555 1_555
N10_29 C5_33 1_555 1_555
N11_33 N12_33 1_555 1_555
N12_33 C7_33 1_555 1_555
C1_29 N4_33 1_555 1_555
H1_33 C1_29 1_555 1_555
C2_29 N3_33 1_555 1_555
H2_29 C2_29 1_555 1_555
C3_33 N11_33 1_555 1_555
H3_33 C3_33 1_555 1_555
C4_33 N1_33 1_555 1_555
H4_33 C4_33 1_555 1_555
C5_33 N5_31 1_555 1_555
H5_33 C5_33 1_555 1_555
C6_33 N10_29 1_555 1_555
H6_33 C6_33 1_555 1_555
C7_33 H7_33 1_555 1_555
C8_33 N7_33 1_555 1_555
H8_33 C8_33 1_555 1_555
Ag3_33 N8_33 1_555 1_555
Ag4_33 N7_33 1_555 1_555
Ag6_20 N6_32 1_555 1_555
Ag5_21 N5_31 1_555 1_555
N13_32 Ag2_28 1_555 1_555
N14_29 Ag2_28 1_555 1_555
N15_33 Ag1_33 1_555 1_555
N16_33 Ag1_33 1_555 1_555
N3_33 N4_33 1_555 1_555
N9_29 C1_29 1_555 1_555
N9_29 C2_29 1_555 1_555
N11_33 C4_33 1_555 1_555
N12_33 C8_33 1_555 1_555
N5_32 N6_33 1_555 1_555
N6_33 C6_34 1_555 1_555
C5_34 N5_32 1_555 1_555
H5_34 C5_34 1_555 1_555
H6_34 C6_34 1_555 1_555
Ag6_16 N6_33 1_555 1_555
Ag5_17 N5_32 1_555 1_555
Ag1_34 N2_34 1_555 1_555
Ag6_4 N1_34 1_555 1_555
N1_34 N2_34 1_555 1_555
N2_34 C3_34 1_555 1_555
N3_34 Ag6_4 1_555 1_555
N4_34 Ag1_34 1_555 1_555
N7_34 N8_34 1_555 1_555
N8_34 C7_34 1_555 1_555
N11_34 N12_34 1_555 1_555
N12_34 C7_34 1_555 1_555
C3_34 N11_34 1_555 1_555
H3_34 C3_34 1_555 1_555
C4_34 N1_34 1_555 1_555
H4_34 C4_34 1_555 1_555
C7_34 H7_34 1_555 1_555
C8_34 N7_34 1_555 1_555
H8_34 C8_34 1_555 1_555
Ag4_34 N7_34 1_555 1_555
N14_30 Ag6_4 1_555 1_555
N15_34 Ag1_34 1_555 1_555
N3_34 N4_34 1_555 1_555
N11_34 C4_34 1_555 1_555
N12_34 C8_34 1_555 1_555
Ag1_35 N2_35 1_555 1_555
Ag2_29 N1_35 1_555 1_555
N1_35 N2_35 1_555 1_555
N2_35 C3_35 1_555 1_555
N3_35 Ag2_29 1_555 1_555
N4_35 Ag1_35 1_555 1_555
N7_35 N8_35 1_555 1_555
N8_35 C7_35 1_555 1_555
N9_30 N10_30 1_555 1_555
N11_35 N12_35 1_555 1_555
N12_35 C7_35 1_555 1_555
C1_30 N4_35 1_555 1_555
C2_30 N3_35 1_555 1_555
H2_30 C2_30 1_555 1_555
C3_35 N11_35 1_555 1_555
H3_35 C3_35 1_555 1_555
C4_35 N1_35 1_555 1_555
H4_35 C4_35 1_555 1_555
C7_35 H7_35 1_555 1_555
C8_35 N7_35 1_555 1_555
H8_35 C8_35 1_555 1_555
Ag3_35 N8_35 1_555 1_555
Ag4_35 N7_35 1_555 1_555
N13_33 Ag2_29 1_555 1_555
N14_31 Ag2_29 1_555 1_555
N15_35 Ag1_35 1_555 1_555
N3_35 N4_35 1_555 1_555
N9_30 C1_30 1_555 1_555
N9_30 C2_30 1_555 1_555
N11_35 C4_35 1_555 1_555
N12_35 C8_35 1_555 1_555
N13_13 N14_14 1_555 1_555
N14_14 C6_35 1_555 1_555
C5_35 N13_13 1_555 1_555
H5_35 C5_35 1_555 1_555
H6_35 C6_35 1_555 1_555
Ag1_36 N2_36 1_555 1_555
Ag6_12 N1_36 1_555 1_555
N1_36 N2_36 1_555 1_555
N2_36 C3_36 1_555 1_555
N3_36 Ag6_12 1_555 1_555
N4_36 Ag1_36 1_555 1_555
N5_33 N6_34 1_555 1_555
N6_34 C6_36 1_555 1_555
N7_36 N8_36 1_555 1_555
N8_36 C7_36 1_555 1_555
N9_31 N10_31 1_555 1_555
N10_31 C5_36 1_555 1_555
N11_36 N12_36 1_555 1_555
N12_36 C7_36 1_555 1_555
C1_31 N4_36 1_555 1_555
H1_36 C1_31 1_555 1_555
C2_31 N3_36 1_555 1_555
H2_31 C2_31 1_555 1_555
C3_36 N11_36 1_555 1_555
H3_36 C3_36 1_555 1_555
C4_36 N1_36 1_555 1_555
H4_36 C4_36 1_555 1_555
C5_36 N5_33 1_555 1_555
H5_36 C5_36 1_555 1_555
C6_36 N10_31 1_555 1_555
H6_36 C6_36 1_555 1_555
C7_36 H7_36 1_555 1_555
C8_36 N7_36 1_555 1_555
H8_36 C8_36 1_555 1_555
Ag3_36 N8_36 1_555 1_555
Ag4_36 N7_36 1_555 1_555
Ag5_24 N6_34 1_555 1_555
Ag6_23 N5_33 1_555 1_555
N15_36 Ag1_36 1_555 1_555
N16_36 Ag1_36 1_555 1_555
N3_36 N4_36 1_555 1_555
N9_31 C1_31 1_555 1_555
N9_31 C2_31 1_555 1_555
N11_36 C4_36 1_555 1_555
N12_36 C8_36 1_555 1_555
N5_34 N6_35 1_555 1_555
N6_35 C6_37 1_555 1_555
N9_32 N10_32 1_555 1_555
N10_32 C5_37 1_555 1_555
H1_37 C1_32 1_555 1_555
H2_32 C2_32 1_555 1_555
C5_37 N5_34 1_555 1_555
H5_37 C5_37 1_555 1_555
C6_37 N10_32 1_555 1_555
H6_37 C6_37 1_555 1_555
Ag5_25 N6_35 1_555 1_555
Ag6_24 N5_34 1_555 1_555
N9_32 C1_32 1_555 1_555
N9_32 C2_32 1_555 1_555
Ag1_37 N2_37 1_555 1_555
Ag6_9 N1_37 1_555 1_555
N1_37 N2_37 1_555 1_555
N2_37 C3_37 1_555 1_555
N3_37 Ag6_9 1_555 1_555
N4_37 Ag1_37 1_555 1_555
N7_37 N8_37 1_555 1_555
N8_37 C7_37 1_555 1_555
N11_37 N12_37 1_555 1_555
N12_37 C7_37 1_555 1_555
C3_37 N11_37 1_555 1_555
H3_37 C3_37 1_555 1_555
C4_37 N1_37 1_555 1_555
H4_37 C4_37 1_555 1_555
C7_37 H7_37 1_555 1_555
C8_37 N7_37 1_555 1_555
H8_37 C8_37 1_555 1_555
Ag3_37 N8_37 1_555 1_555
Ag4_37 N7_37 1_555 1_555
N15_37 Ag1_37 1_555 1_555
N16_37 Ag1_37 1_555 1_555
N3_37 N4_37 1_555 1_555
N11_37 C4_37 1_555 1_555
N12_37 C8_37 1_555 1_555
Ag1_38 N2_38 1_555 1_555
Ag2_30 N1_38 1_555 1_555
N1_38 N2_38 1_555 1_555
N2_38 C3_38 1_555 1_555
N3_38 Ag2_30 1_555 1_555
N4_38 Ag1_38 1_555 1_555
N7_38 N8_38 1_555 1_555
N8_38 C7_38 1_555 1_555
N9_33 N10_33 1_555 1_555
N11_38 N12_38 1_555 1_555
N12_38 C7_38 1_555 1_555
C1_33 N4_38 1_555 1_555
C2_33 N3_38 1_555 1_555
H2_33 C2_33 1_555 1_555
C3_38 N11_38 1_555 1_555
H3_38 C3_38 1_555 1_555
C4_38 N1_38 1_555 1_555
H4_38 C4_38 1_555 1_555
C7_38 H7_38 1_555 1_555
C8_38 N7_38 1_555 1_555
H8_38 C8_38 1_555 1_555
Ag4_38 N7_38 1_555 1_555
N13_34 Ag2_30 1_555 1_555
N14_32 Ag2_30 1_555 1_555
N15_38 Ag1_38 1_555 1_555
N3_38 N4_38 1_555 1_555
N9_33 C1_33 1_555 1_555
N9_33 C2_33 1_555 1_555
N11_38 C4_38 1_555 1_555
N12_38 C8_38 1_555 1_555
N13_15 N14_12 1_555 1_555
N14_12 C6_38 1_555 1_555
C5_38 N13_15 1_555 1_555
H5_38 C5_38 1_555 1_555
H6_38 C6_38 1_555 1_555
N5_35 N6_36 1_555 1_555
N6_36 C6_39 1_555 1_555
N9_34 N10_34 1_555 1_555
N10_34 C5_39 1_555 1_555
H1_39 C1_34 1_555 1_555
H2_34 C2_34 1_555 1_555
C5_39 N5_35 1_555 1_555
H5_39 C5_39 1_555 1_555
C6_39 N10_34 1_555 1_555
H6_39 C6_39 1_555 1_555
Ag6_23 N6_36 1_555 1_555
Ag5_24 N5_35 1_555 1_555
N9_34 C1_34 1_555 1_555
N9_34 C2_34 1_555 1_555
Ag1_39 N2_39 1_555 1_555
Ag5_9 N1_39 1_555 1_555
N1_39 N2_39 1_555 1_555
N2_39 C3_39 1_555 1_555
N3_39 Ag5_9 1_555 1_555
N4_39 Ag1_39 1_555 1_555
N7_39 N8_39 1_555 1_555
N8_39 C7_39 1_555 1_555
N11_39 N12_39 1_555 1_555
N12_39 C7_39 1_555 1_555
C3_39 N11_39 1_555 1_555
H3_39 C3_39 1_555 1_555
C4_39 N1_39 1_555 1_555
H4_39 C4_39 1_555 1_555
C7_39 H7_39 1_555 1_555
C8_39 N7_39 1_555 1_555
H8_39 C8_39 1_555 1_555
Ag4_39 N7_39 1_555 1_555
N15_39 Ag1_39 1_555 1_555
N16_39 Ag1_39 1_555 1_555
N3_39 N4_39 1_555 1_555
N11_39 C4_39 1_555 1_555
N12_39 C8_39 1_555 1_555
Ag1_40 N2_40 1_555 1_555
Ag2_31 N1_40 1_555 1_555
N1_40 N2_40 1_555 1_555
N2_40 C3_40 1_555 1_555
N3_40 Ag2_31 1_555 1_555
N4_40 Ag1_40 1_555 1_555
N13_12 N14_17 1_555 1_555
N14_17 C6_40 1_555 1_555
N7_40 N8_40 1_555 1_555
N8_40 C7_40 1_555 1_555
N9_35 N10_35 1_555 1_555
N10_35 C5_40 1_555 1_555
N11_40 N12_40 1_555 1_555
N12_40 C7_40 1_555 1_555
C1_35 N4_40 1_555 1_555
H1_40 C1_35 1_555 1_555
C2_35 N3_40 1_555 1_555
H2_35 C2_35 1_555 1_555
C3_40 N11_40 1_555 1_555
H3_40 C3_40 1_555 1_555
C4_40 N1_40 1_555 1_555
H4_40 C4_40 1_555 1_555
C5_40 N13_12 1_555 1_555
H5_40 C5_40 1_555 1_555
C6_40 N10_35 1_555 1_555
H6_40 C6_40 1_555 1_555
C7_40 H7_40 1_555 1_555
C8_40 N7_40 1_555 1_555
H8_40 C8_40 1_555 1_555
Ag4_40 N7_40 1_555 1_555
N13_35 Ag2_31 1_555 1_555
N14_33 Ag2_31 1_555 1_555
N15_40 Ag1_40 1_555 1_555
N16_40 Ag1_40 1_555 1_555
N3_40 N4_40 1_555 1_555
N9_35 C1_35 1_555 1_555
N9_35 C2_35 1_555 1_555
N11_40 C4_40 1_555 1_555
N12_40 C8_40 1_555 1_555
Ag1_41 N2_41 1_555 1_555
Ag2_32 N1_41 1_555 1_555
N1_41 N2_41 1_555 1_555
N2_41 C3_41 1_555 1_555
N3_41 Ag2_32 1_555 1_555
N4_41 Ag1_41 1_555 1_555
N13_18 N14_11 1_555 1_555
N14_11 C6_41 1_555 1_555
N7_41 N8_41 1_555 1_555
N8_41 C7_41 1_555 1_555
N9_36 N10_36 1_555 1_555
N10_36 C5_41 1_555 1_555
N11_41 N12_41 1_555 1_555
N12_41 C7_41 1_555 1_555
C1_36 N4_41 1_555 1_555
H1_41 C1_36 1_555 1_555
C2_36 N3_41 1_555 1_555
H2_36 C2_36 1_555 1_555
C3_41 N11_41 1_555 1_555
H3_41 C3_41 1_555 1_555
C4_41 N1_41 1_555 1_555
H4_41 C4_41 1_555 1_555
C5_41 N13_18 1_555 1_555
H5_41 C5_41 1_555 1_555
C6_41 N10_36 1_555 1_555
H6_41 C6_41 1_555 1_555
C7_41 H7_41 1_555 1_555
C8_41 N7_41 1_555 1_555
H8_41 C8_41 1_555 1_555
Ag3_41 N8_41 1_555 1_555
Ag4_41 N7_41 1_555 1_555
N13_36 Ag2_32 1_555 1_555
N14_34 Ag2_32 1_555 1_555
N15_41 Ag1_41 1_555 1_555
N16_41 Ag1_41 1_555 1_555
N3_41 N4_41 1_555 1_555
N9_36 C1_36 1_555 1_555
N9_36 C2_36 1_555 1_555
N11_41 C4_41 1_555 1_555
N12_41 C8_41 1_555 1_555
Ag1_42 N2_42 1_555 1_555
Ag5_12 N1_42 1_555 1_555
N1_42 N2_42 1_555 1_555
N2_42 C3_42 1_555 1_555
N3_42 Ag5_12 1_555 1_555
N4_42 Ag1_42 1_555 1_555
N5_36 N6_37 1_555 1_555
N6_37 C6_42 1_555 1_555
N7_42 N8_42 1_555 1_555
N8_42 C7_42 1_555 1_555
N9_37 N10_37 1_555 1_555
N10_37 C5_42 1_555 1_555
N11_42 N12_42 1_555 1_555
N12_42 C7_42 1_555 1_555
C1_37 N4_42 1_555 1_555
H1_42 C1_37 1_555 1_555
C2_37 N3_42 1_555 1_555
H2_37 C2_37 1_555 1_555
C3_42 N11_42 1_555 1_555
H3_42 C3_42 1_555 1_555
C4_42 N1_42 1_555 1_555
H4_42 C4_42 1_555 1_555
C5_42 N5_36 1_555 1_555
H5_42 C5_42 1_555 1_555
C6_42 N10_37 1_555 1_555
H6_42 C6_42 1_555 1_555
C7_42 H7_42 1_555 1_555
C8_42 N7_42 1_555 1_555
H8_42 C8_42 1_555 1_555
Ag4_42 N7_42 1_555 1_555
Ag6_24 N6_37 1_555 1_555
Ag5_25 N5_36 1_555 1_555
N15_42 Ag1_42 1_555 1_555
N16_42 Ag1_42 1_555 1_555
N3_42 N4_42 1_555 1_555
N9_37 C1_37 1_555 1_555
N9_37 C2_37 1_555 1_555
N11_42 C4_42 1_555 1_555
N12_42 C8_42 1_555 1_555
Ag1_43 N2_43 1_555 1_555
Ag2_33 N1_43 1_555 1_555
N1_43 N2_43 1_555 1_555
N2_43 C3_43 1_555 1_555
N3_43 Ag2_33 1_555 1_555
N4_43 Ag1_43 1_555 1_555
N5_37 N6_38 1_555 1_555
N6_38 C6_43 1_555 1_555
N7_43 N8_43 1_555 1_555
N8_43 C7_43 1_555 1_555
N9_38 N10_38 1_555 1_555
N10_38 C5_43 1_555 1_555
N11_43 N12_43 1_555 1_555
N12_43 C7_43 1_555 1_555
C1_38 N4_43 1_555 1_555
H1_43 C1_38 1_555 1_555
C2_38 N3_43 1_555 1_555
H2_38 C2_38 1_555 1_555
C3_43 N11_43 1_555 1_555
H3_43 C3_43 1_555 1_555
C4_43 N1_43 1_555 1_555
H4_43 C4_43 1_555 1_555
C5_43 N5_37 1_555 1_555
H5_43 C5_43 1_555 1_555
C6_43 N10_38 1_555 1_555
H6_43 C6_43 1_555 1_555
C7_43 H7_43 1_555 1_555
C8_43 N7_43 1_555 1_555
H8_43 C8_43 1_555 1_555
Ag4_43 N7_43 1_555 1_555
Ag5_26 N6_38 1_555 1_555
Ag6_25 N5_37 1_555 1_555
N13_37 Ag2_33 1_555 1_555
N14_35 Ag2_33 1_555 1_555
N15_43 Ag1_43 1_555 1_555
N16_43 Ag1_43 1_555 1_555
N3_43 N4_43 1_555 1_555
N9_38 C1_38 1_555 1_555
N9_38 C2_38 1_555 1_555
N11_43 C4_43 1_555 1_555
N12_43 C8_43 1_555 1_555
N5_38 N14_5 1_555 1_555
N14_5 C6_44 1_555 1_555
C5_44 N5_38 1_555 1_555
H5_44 C5_44 1_555 1_555
H6_44 C6_44 1_555 1_555
Ag6_26 N5_38 1_555 1_555
Ag1_44 N2_44 1_555 1_555
Ag2_34 N1_44 1_555 1_555
N1_44 N2_44 1_555 1_555
N2_44 C3_44 1_555 1_555
N3_44 Ag2_34 1_555 1_555
N4_44 Ag1_44 1_555 1_555
N7_44 N8_44 1_555 1_555
N8_44 C7_44 1_555 1_555
N9_39 N10_39 1_555 1_555
N11_44 N12_44 1_555 1_555
N12_44 C7_44 1_555 1_555
C1_39 N4_44 1_555 1_555
C2_39 N3_44 1_555 1_555
H2_39 C2_39 1_555 1_555
C3_44 N11_44 1_555 1_555
H3_44 C3_44 1_555 1_555
C4_44 N1_44 1_555 1_555
H4_44 C4_44 1_555 1_555
C7_44 H7_44 1_555 1_555
C8_44 N7_44 1_555 1_555
H8_44 C8_44 1_555 1_555
Ag3_44 N8_44 1_555 1_555
Ag4_44 N7_44 1_555 1_555
N13_38 Ag2_34 1_555 1_555
N14_36 Ag2_34 1_555 1_555
N15_44 Ag1_44 1_555 1_555
N3_44 N4_44 1_555 1_555
N9_39 C1_39 1_555 1_555
N9_39 C2_39 1_555 1_555
N11_44 C4_44 1_555 1_555
N12_44 C8_44 1_555 1_555
Ag1_45 N2_45 1_555 1_555
Ag5_26 N1_45 1_555 1_555
N1_45 N2_45 1_555 1_555
N2_45 C3_45 1_555 1_555
N3_45 Ag5_26 1_555 1_555
N4_45 Ag1_45 1_555 1_555
N13_23 N6_39 1_555 1_555
N6_39 C6_45 1_555 1_555
N7_45 N8_45 1_555 1_555
N8_45 C7_45 1_555 1_555
N9_40 N10_40 1_555 1_555
N10_40 C5_45 1_555 1_555
N11_45 N12_45 1_555 1_555
N12_45 C7_45 1_555 1_555
C1_40 N4_45 1_555 1_555
H1_45 C1_40 1_555 1_555
C2_40 N3_45 1_555 1_555
H2_40 C2_40 1_555 1_555
C3_45 N11_45 1_555 1_555
H3_45 C3_45 1_555 1_555
C4_45 N1_45 1_555 1_555
H4_45 C4_45 1_555 1_555
C5_45 N13_23 1_555 1_555
H5_45 C5_45 1_555 1_555
C6_45 N10_40 1_555 1_555
H6_45 C6_45 1_555 1_555
C7_45 H7_45 1_555 1_555
C8_45 N7_45 1_555 1_555
H8_45 C8_45 1_555 1_555
Ag3_45 N8_45 1_555 1_555
Ag4_45 N7_45 1_555 1_555
Ag5_27 N6_39 1_555 1_555
N13_39 Ag5_26 1_555 1_555
N15_45 Ag1_45 1_555 1_555
N16_45 Ag1_45 1_555 1_555
N3_45 N4_45 1_555 1_555
N9_40 C1_40 1_555 1_555
N9_40 C2_40 1_555 1_555
N11_45 C4_45 1_555 1_555
N12_45 C8_45 1_555 1_555
Ag1_46 N2_46 1_555 1_555
Ag5_3 N1_46 1_555 1_555
N1_46 N2_46 1_555 1_555
N2_46 C3_46 1_555 1_555
N3_46 Ag5_3 1_555 1_555
N4_46 Ag1_46 1_555 1_555
N13_31 N6_40 1_555 1_555
N6_40 C6_46 1_555 1_555
N7_46 N8_46 1_555 1_555
N8_46 C7_46 1_555 1_555
N9_41 N10_41 1_555 1_555
N10_41 C5_46 1_555 1_555
N11_46 N12_46 1_555 1_555
N12_46 C7_46 1_555 1_555
C1_41 N4_46 1_555 1_555
H1_46 C1_41 1_555 1_555
C2_41 N3_46 1_555 1_555
H2_41 C2_41 1_555 1_555
C3_46 N11_46 1_555 1_555
H3_46 C3_46 1_555 1_555
C4_46 N1_46 1_555 1_555
H4_46 C4_46 1_555 1_555
C5_46 N13_31 1_555 1_555
H5_46 C5_46 1_555 1_555
C6_46 N10_41 1_555 1_555
H6_46 C6_46 1_555 1_555
C7_46 H7_46 1_555 1_555
C8_46 N7_46 1_555 1_555
H8_46 C8_46 1_555 1_555
Ag3_46 N8_46 1_555 1_555
Ag4_46 N7_46 1_555 1_555
Ag5_28 N6_40 1_555 1_555
N13_40 Ag5_3 1_555 1_555
N15_46 Ag1_46 1_555 1_555
N16_46 Ag1_46 1_555 1_555
N3_46 N4_46 1_555 1_555
N9_41 C1_41 1_555 1_555
N9_41 C2_41 1_555 1_555
N11_46 C4_46 1_555 1_555
N12_46 C8_46 1_555 1_555
Ag1_47 N2_47 1_555 1_555
Ag6_15 N1_47 1_555 1_555
N1_47 N2_47 1_555 1_555
N2_47 C3_47 1_555 1_555
N3_47 Ag6_15 1_555 1_555
N4_47 Ag1_47 1_555 1_555
N5_39 N6_41 1_555 1_555
N6_41 C6_47 1_555 1_555
N7_47 N8_47 1_555 1_555
N8_47 C7_47 1_555 1_555
N9_42 N10_42 1_555 1_555
N10_42 C5_47 1_555 1_555
N11_47 N12_47 1_555 1_555
N12_47 C7_47 1_555 1_555
C1_42 N4_47 1_555 1_555
H1_47 C1_42 1_555 1_555
C2_42 N3_47 1_555 1_555
H2_42 C2_42 1_555 1_555
C3_47 N11_47 1_555 1_555
H3_47 C3_47 1_555 1_555
C4_47 N1_47 1_555 1_555
H4_47 C4_47 1_555 1_555
C5_47 N5_39 1_555 1_555
H5_47 C5_47 1_555 1_555
C6_47 N10_42 1_555 1_555
H6_47 C6_47 1_555 1_555
C7_47 H7_47 1_555 1_555
C8_47 N7_47 1_555 1_555
H8_47 C8_47 1_555 1_555
Ag4_47 N7_47 1_555 1_555
Ag6_22 N6_41 1_555 1_555
Ag5_23 N5_39 1_555 1_555
N14_37 Ag6_15 1_555 1_555
N15_47 Ag1_47 1_555 1_555
N16_47 Ag1_47 1_555 1_555
N3_47 N4_47 1_555 1_555
N9_42 C1_42 1_555 1_555
N9_42 C2_42 1_555 1_555
N11_47 C4_47 1_555 1_555
N12_47 C8_47 1_555 1_555
N5_40 N6_42 1_555 1_555
N6_42 C6_48 1_555 1_555
C5_48 N5_40 1_555 1_555
H5_48 C5_48 1_555 1_555
H6_48 C6_48 1_555 1_555
Ag6_8 N6_42 1_555 1_555
Ag5_8 N5_40 1_555 1_555
Ag1_48 N2_48 1_555 1_555
Ag6_21 N1_48 1_555 1_555
N1_48 N2_48 1_555 1_555
N2_48 C3_48 1_555 1_555
N3_48 Ag6_21 1_555 1_555
N4_48 Ag1_48 1_555 1_555
N7_48 N8_48 1_555 1_555
N8_48 C7_48 1_555 1_555
N9_43 N10_43 1_555 1_555
N11_48 N12_48 1_555 1_555
N12_48 C7_48 1_555 1_555
C1_43 N4_48 1_555 1_555
C2_43 N3_48 1_555 1_555
H2_43 C2_43 1_555 1_555
C3_48 N11_48 1_555 1_555
H3_48 C3_48 1_555 1_555
C4_48 N1_48 1_555 1_555
H4_48 C4_48 1_555 1_555
C7_48 H7_48 1_555 1_555
C8_48 N7_48 1_555 1_555
H8_48 C8_48 1_555 1_555
Ag3_48 N8_48 1_555 1_555
Ag4_48 N7_48 1_555 1_555
N14_38 Ag6_21 1_555 1_555
N15_48 Ag1_48 1_555 1_555
N3_48 N4_48 1_555 1_555
N9_43 C1_43 1_555 1_555
N9_43 C2_43 1_555 1_555
N11_48 C4_48 1_555 1_555
N12_48 C8_48 1_555 1_555
Ag1_49 N2_49 1_555 1_555
Ag5_11 N1_49 1_555 1_555
N1_49 N2_49 1_555 1_555
N2_49 C3_49 1_555 1_555
N3_49 Ag5_11 1_555 1_555
N4_49 Ag1_49 1_555 1_555
N13_36 N14_32 1_555 1_555
N14_32 C6_49 1_555 1_555
N7_49 N8_49 1_555 1_555
N8_49 C7_49 1_555 1_555
N9_44 N10_44 1_555 1_555
N10_44 C5_49 1_555 1_555
N11_49 N12_49 1_555 1_555
N12_49 C7_49 1_555 1_555
C1_44 N4_49 1_555 1_555
H1_49 C1_44 1_555 1_555
C2_44 N3_49 1_555 1_555
H2_44 C2_44 1_555 1_555
C3_49 N11_49 1_555 1_555
H3_49 C3_49 1_555 1_555
C4_49 N1_49 1_555 1_555
H4_49 C4_49 1_555 1_555
C5_49 N13_36 1_555 1_555
H5_49 C5_49 1_555 1_555
C6_49 N10_44 1_555 1_555
H6_49 C6_49 1_555 1_555
C7_49 H7_49 1_555 1_555
C8_49 N7_49 1_555 1_555
H8_49 C8_49 1_555 1_555
Ag4_46 N8_49 1_555 1_555
Ag3_46 N7_49 1_555 1_555
N15_49 Ag1_49 1_555 1_555
N16_49 Ag1_49 1_555 1_555
N3_49 N4_49 1_555 1_555
N9_44 C1_44 1_555 1_555
N9_44 C2_44 1_555 1_555
N11_49 C4_49 1_555 1_555
N12_49 C8_49 1_555 1_555
Ag1_50 N2_50 1_555 1_555
Ag6_7 N1_50 1_555 1_555
N1_50 N2_50 1_555 1_555
N2_50 C3_50 1_555 1_555
N3_50 Ag6_7 1_555 1_555
N4_50 Ag1_50 1_555 1_555
N13_22 N6_43 1_555 1_555
N6_43 C6_50 1_555 1_555
N7_50 N8_50 1_555 1_555
N8_50 C7_50 1_555 1_555
N9_45 N10_45 1_555 1_555
N10_45 C5_50 1_555 1_555
N11_50 N12_50 1_555 1_555
N12_50 C7_50 1_555 1_555
C1_45 N4_50 1_555 1_555
H1_50 C1_45 1_555 1_555
C2_45 N3_50 1_555 1_555
H2_45 C2_45 1_555 1_555
C3_50 N11_50 1_555 1_555
H3_50 C3_50 1_555 1_555
C4_50 N1_50 1_555 1_555
H4_50 C4_50 1_555 1_555
C5_50 N13_22 1_555 1_555
H5_50 C5_50 1_555 1_555
C6_50 N10_45 1_555 1_555
H6_50 C6_50 1_555 1_555
C7_50 H7_50 1_555 1_555
C8_50 N7_50 1_555 1_555
H8_50 C8_50 1_555 1_555
Ag3_38 N7_50 1_555 1_555
Ag6_19 N6_43 1_555 1_555
N15_50 Ag1_50 1_555 1_555
N16_50 Ag1_50 1_555 1_555
N3_50 N4_50 1_555 1_555
N9_45 C1_45 1_555 1_555
N9_45 C2_45 1_555 1_555
N11_50 C4_50 1_555 1_555
N12_50 C8_50 1_555 1_555
N13_34 N14_34 1_555 1_555
N14_34 C6_51 1_555 1_555
N9_46 N10_46 1_555 1_555
N10_46 C5_51 1_555 1_555
H1_51 C1_46 1_555 1_555
H2_46 C2_46 1_555 1_555
C5_51 N13_34 1_555 1_555
H5_51 C5_51 1_555 1_555
C6_51 N10_46 1_555 1_555
H6_51 C6_51 1_555 1_555
N9_46 C1_46 1_555 1_555
N9_46 C2_46 1_555 1_555
Ag1_51 N2_51 1_555 1_555
Ag5_10 N1_51 1_555 1_555
N1_51 N2_51 1_555 1_555
N2_51 C3_51 1_555 1_555
N3_51 Ag5_10 1_555 1_555
N4_51 Ag1_51 1_555 1_555
N7_51 N8_51 1_555 1_555
N8_51 C7_51 1_555 1_555
N11_51 N12_51 1_555 1_555
N12_51 C7_51 1_555 1_555
C3_51 N11_51 1_555 1_555
H3_51 C3_51 1_555 1_555
C4_51 N1_51 1_555 1_555
H4_51 C4_51 1_555 1_555
C7_51 H7_51 1_555 1_555
C8_51 N7_51 1_555 1_555
H8_51 C8_51 1_555 1_555
Ag3_7 N7_51 1_555 1_555
N15_51 Ag1_51 1_555 1_555
N16_51 Ag1_51 1_555 1_555
N3_51 N4_51 1_555 1_555
N11_51 C4_51 1_555 1_555
N12_51 C8_51 1_555 1_555
Ag1_52 N2_52 1_555 1_555
Ag5_8 N1_52 1_555 1_555
N1_52 N2_52 1_555 1_555
N2_52 C3_52 1_555 1_555
N3_52 Ag5_8 1_555 1_555
N4_52 Ag1_52 1_555 1_555
N7_52 N8_52 1_555 1_555
N8_52 C7_52 1_555 1_555
N11_52 N12_52 1_555 1_555
N12_52 C7_52 1_555 1_555
C3_52 N11_52 1_555 1_555
H3_52 C3_52 1_555 1_555
C4_52 N1_52 1_555 1_555
H4_52 C4_52 1_555 1_555
C7_52 H7_52 1_555 1_555
C8_52 N7_52 1_555 1_555
H8_52 C8_52 1_555 1_555
Ag4_41 N8_52 1_555 1_555
Ag3_41 N7_52 1_555 1_555
N15_52 Ag1_52 1_555 1_555
N16_52 Ag1_52 1_555 1_555
N3_52 N4_52 1_555 1_555
N11_52 C4_52 1_555 1_555
N12_52 C8_52 1_555 1_555
N13_30 N6_44 1_555 1_555
N6_44 C6_52 1_555 1_555
N9_47 N10_47 1_555 1_555
N10_47 C5_52 1_555 1_555
H1_52 C1_47 1_555 1_555
H2_47 C2_47 1_555 1_555
C5_52 N13_30 1_555 1_555
H5_52 C5_52 1_555 1_555
C6_52 N10_47 1_555 1_555
H6_52 C6_52 1_555 1_555
Ag6_18 N6_44 1_555 1_555
N9_47 C1_47 1_555 1_555
N9_47 C2_47 1_555 1_555
N5_41 N14_7 1_555 1_555
N14_7 C6_53 1_555 1_555
C5_53 N5_41 1_555 1_555
H5_53 C5_53 1_555 1_555
H6_53 C6_53 1_555 1_555
Ag5_16 N5_41 1_555 1_555
Ag1_53 N2_53 1_555 1_555
Ag6_25 N1_53 1_555 1_555
N1_53 N2_53 1_555 1_555
N2_53 C3_53 1_555 1_555
N3_53 Ag6_25 1_555 1_555
N4_53 Ag1_53 1_555 1_555
N7_53 N8_53 1_555 1_555
N8_53 C7_53 1_555 1_555
N9_48 N10_48 1_555 1_555
N11_53 N12_53 1_555 1_555
N12_53 C7_53 1_555 1_555
C1_48 N4_53 1_555 1_555
C2_48 N3_53 1_555 1_555
H2_48 C2_48 1_555 1_555
C3_53 N11_53 1_555 1_555
H3_53 C3_53 1_555 1_555
C4_53 N1_53 1_555 1_555
H4_53 C4_53 1_555 1_555
C7_53 H7_53 1_555 1_555
C8_53 N7_53 1_555 1_555
H8_53 C8_53 1_555 1_555
Ag4_33 N8_53 1_555 1_555
Ag3_33 N7_53 1_555 1_555
N14_39 Ag6_25 1_555 1_555
N15_53 Ag1_53 1_555 1_555
N3_53 N4_53 1_555 1_555
N9_48 C1_48 1_555 1_555
N9_48 C2_48 1_555 1_555
N11_53 C4_53 1_555 1_555
N12_53 C8_53 1_555 1_555
N13_35 N14_31 1_555 1_555
N14_31 C6_54 1_555 1_555
N9_49 N10_49 1_555 1_555
N10_49 C5_54 1_555 1_555
H1_54 C1_49 1_555 1_555
H2_49 C2_49 1_555 1_555
C5_54 N13_35 1_555 1_555
H5_54 C5_54 1_555 1_555
C6_54 N10_49 1_555 1_555
H6_54 C6_54 1_555 1_555
N9_49 C1_49 1_555 1_555
N9_49 C2_49 1_555 1_555
Ag1_54 N2_54 1_555 1_555
Ag6_10 N1_54 1_555 1_555
N1_54 N2_54 1_555 1_555
N2_54 C3_54 1_555 1_555
N3_54 Ag6_10 1_555 1_555
N4_54 Ag1_54 1_555 1_555
N7_54 N8_54 1_555 1_555
N8_54 C7_54 1_555 1_555
N11_54 N12_54 1_555 1_555
N12_54 C7_54 1_555 1_555
C3_54 N11_54 1_555 1_555
H3_54 C3_54 1_555 1_555
C4_54 N1_54 1_555 1_555
H4_54 C4_54 1_555 1_555
C7_54 H7_54 1_555 1_555
C8_54 N7_54 1_555 1_555
H8_54 C8_54 1_555 1_555
Ag4_45 N8_54 1_555 1_555
Ag3_45 N7_54 1_555 1_555
N15_54 Ag1_54 1_555 1_555
N16_54 Ag1_54 1_555 1_555
N3_54 N4_54 1_555 1_555
N11_54 C4_54 1_555 1_555
N12_54 C8_54 1_555 1_555
Ag1_55 N2_55 1_555 1_555
Ag6_19 N1_55 1_555 1_555
N1_55 N2_55 1_555 1_555
N2_55 C3_55 1_555 1_555
N3_55 Ag6_19 1_555 1_555
N4_55 Ag1_55 1_555 1_555
N5_42 N14_21 1_555 1_555
N14_21 C6_55 1_555 1_555
N7_55 N8_55 1_555 1_555
N8_55 C7_55 1_555 1_555
N9_50 N10_50 1_555 1_555
N10_50 C5_55 1_555 1_555
N11_55 N12_55 1_555 1_555
N12_55 C7_55 1_555 1_555
C1_50 N4_55 1_555 1_555
H1_55 C1_50 1_555 1_555
C2_50 N3_55 1_555 1_555
H2_50 C2_50 1_555 1_555
C3_55 N11_55 1_555 1_555
H3_55 C3_55 1_555 1_555
C4_55 N1_55 1_555 1_555
H4_55 C4_55 1_555 1_555
C5_55 N5_42 1_555 1_555
H5_55 C5_55 1_555 1_555
C6_55 N10_50 1_555 1_555
H6_55 C6_55 1_555 1_555
C7_55 H7_55 1_555 1_555
C8_55 N7_55 1_555 1_555
H8_55 C8_55 1_555 1_555
Ag4_3 N8_55 1_555 1_555
Ag3_3 N7_55 1_555 1_555
Ag5_27 N5_42 1_555 1_555
N15_55 Ag1_55 1_555 1_555
N16_55 Ag1_55 1_555 1_555
N3_55 N4_55 1_555 1_555
N9_50 C1_50 1_555 1_555
N9_50 C2_50 1_555 1_555
N11_55 C4_55 1_555 1_555
N12_55 C8_55 1_555 1_555
Ag1_56 N2_56 1_555 1_555
Ag5_4 N1_56 1_555 1_555
N1_56 N2_56 1_555 1_555
N2_56 C3_56 1_555 1_555
N3_56 Ag5_4 1_555 1_555
N4_56 Ag1_56 1_555 1_555
N7_56 N8_56 1_555 1_555
N8_56 C7_56 1_555 1_555
N11_56 N12_56 1_555 1_555
N12_56 C7_56 1_555 1_555
C3_56 N11_56 1_555 1_555
H3_56 C3_56 1_555 1_555
C4_56 N1_56 1_555 1_555
H4_56 C4_56 1_555 1_555
C7_56 H7_56 1_555 1_555
C8_56 N7_56 1_555 1_555
H8_56 C8_56 1_555 1_555
Ag4_13 N8_56 1_555 1_555
Ag3_13 N7_56 1_555 1_555
N13_41 Ag5_4 1_555 1_555
N15_56 Ag1_56 1_555 1_555
N16_56 Ag1_56 1_555 1_555
N3_56 N4_56 1_555 1_555
N11_56 C4_56 1_555 1_555
N12_56 C8_56 1_555 1_555
N13_2 N14_36 1_555 1_555
N14_36 C6_56 1_555 1_555
N9_51 N10_51 1_555 1_555
N10_51 C5_56 1_555 1_555
H1_56 C1_51 1_555 1_555
H2_51 C2_51 1_555 1_555
C5_56 N13_2 1_555 1_555
H5_56 C5_56 1_555 1_555
C6_56 N10_51 1_555 1_555
H6_56 C6_56 1_555 1_555
N9_51 C1_51 1_555 1_555
N9_51 C2_51 1_555 1_555
Ag1_57 N2_57 1_555 1_555
Ag6_11 N1_57 1_555 1_555
N1_57 N2_57 1_555 1_555
N2_57 C3_57 1_555 1_555
N3_57 Ag6_11 1_555 1_555
N4_57 Ag1_57 1_555 1_555
N13_33 N14_33 1_555 1_555
N14_33 C6_57 1_555 1_555
N7_57 N8_57 1_555 1_555
N8_57 C7_57 1_555 1_555
N9_52 N10_52 1_555 1_555
N10_52 C5_57 1_555 1_555
N11_57 N12_57 1_555 1_555
N12_57 C7_57 1_555 1_555
C1_52 N4_57 1_555 1_555
H1_57 C1_52 1_555 1_555
C2_52 N3_57 1_555 1_555
H2_52 C2_52 1_555 1_555
C3_57 N11_57 1_555 1_555
H3_57 C3_57 1_555 1_555
C4_57 N1_57 1_555 1_555
H4_57 C4_57 1_555 1_555
C5_57 N13_33 1_555 1_555
H5_57 C5_57 1_555 1_555
C6_57 N10_52 1_555 1_555
H6_57 C6_57 1_555 1_555
C7_57 H7_57 1_555 1_555
C8_57 N7_57 1_555 1_555
H8_57 C8_57 1_555 1_555
Ag3_29 N7_57 1_555 1_555
N15_57 Ag1_57 1_555 1_555
N16_57 Ag1_57 1_555 1_555
N3_57 N4_57 1_555 1_555
N9_52 C1_52 1_555 1_555
N9_52 C2_52 1_555 1_555
N11_57 C4_57 1_555 1_555
N12_57 C8_57 1_555 1_555
Ag1_58 N2_58 1_555 1_555
Ag5_28 N1_58 1_555 1_555
N1_58 N2_58 1_555 1_555
N2_58 C3_58 1_555 1_555
N3_58 Ag5_28 1_555 1_555
N4_58 Ag1_58 1_555 1_555
N13_19 N14_4 1_555 1_555
N14_4 C6_58 1_555 1_555
N7_58 N8_58 1_555 1_555
N8_58 C7_58 1_555 1_555
N9_53 N10_53 1_555 1_555
N10_53 C5_58 1_555 1_555
N11_58 N12_58 1_555 1_555
N12_58 C7_58 1_555 1_555
C1_53 N4_58 1_555 1_555
H1_58 C1_53 1_555 1_555
C2_53 N3_58 1_555 1_555
H2_53 C2_53 1_555 1_555
C3_58 N11_58 1_555 1_555
H3_58 C3_58 1_555 1_555
C4_58 N1_58 1_555 1_555
H4_58 C4_58 1_555 1_555
C5_58 N13_19 1_555 1_555
H5_58 C5_58 1_555 1_555
C6_58 N10_53 1_555 1_555
H6_58 C6_58 1_555 1_555
C7_58 H7_58 1_555 1_555
C8_58 N7_58 1_555 1_555
H8_58 C8_58 1_555 1_555
Ag3_42 N7_58 1_555 1_555
N13_42 Ag5_28 1_555 1_555
N15_58 Ag1_58 1_555 1_555
N16_58 Ag1_58 1_555 1_555
N3_58 N4_58 1_555 1_555
N9_53 C1_53 1_555 1_555
N9_53 C2_53 1_555 1_555
N11_58 C4_58 1_555 1_555
N12_58 C8_58 1_555 1_555
Ag1_59 N2_59 1_555 1_555
Ag5_21 N1_59 1_555 1_555
N1_59 N2_59 1_555 1_555
N2_59 C3_59 1_555 1_555
N3_59 Ag5_21 1_555 1_555
N4_59 Ag1_59 1_555 1_555
N5_43 N6_45 1_555 1_555
N6_45 C6_59 1_555 1_555
N7_59 N8_59 1_555 1_555
N8_59 C7_59 1_555 1_555
N9_54 N10_54 1_555 1_555
N10_54 C5_59 1_555 1_555
N11_59 N12_59 1_555 1_555
N12_59 C7_59 1_555 1_555
C1_54 N4_59 1_555 1_555
H1_59 C1_54 1_555 1_555
C2_54 N3_59 1_555 1_555
H2_54 C2_54 1_555 1_555
C3_59 N11_59 1_555 1_555
H3_59 C3_59 1_555 1_555
C4_59 N1_59 1_555 1_555
H4_59 C4_59 1_555 1_555
C5_59 N5_43 1_555 1_555
H5_59 C5_59 1_555 1_555
C6_59 N10_54 1_555 1_555
H6_59 C6_59 1_555 1_555
C7_59 H7_59 1_555 1_555
C8_59 N7_59 1_555 1_555
H8_59 C8_59 1_555 1_555
Ag4_44 N8_59 1_555 1_555
Ag3_44 N7_59 1_555 1_555
Ag5_29 N6_45 1_555 1_555
Ag6_27 N5_43 1_555 1_555
N15_59 Ag1_59 1_555 1_555
N16_59 Ag1_59 1_555 1_555
N3_59 N4_59 1_555 1_555
N9_54 C1_54 1_555 1_555
N9_54 C2_54 1_555 1_555
N11_59 C4_59 1_555 1_555
N12_59 C8_59 1_555 1_555
Ag1_60 N2_60 1_555 1_555
Ag2_35 N1_60 1_555 1_555
N1_60 N2_60 1_555 1_555
N2_60 C3_60 1_555 1_555
N3_60 Ag2_35 1_555 1_555
N4_60 Ag1_60 1_555 1_555
N7_60 N8_60 1_555 1_555
N8_60 C7_60 1_555 1_555
N9_55 N10_55 1_555 1_555
N11_60 N12_60 1_555 1_555
N12_60 C7_60 1_555 1_555
C1_55 N4_60 1_555 1_555
C2_55 N3_60 1_555 1_555
H2_55 C2_55 1_555 1_555
C3_60 N11_60 1_555 1_555
H3_60 C3_60 1_555 1_555
C4_60 N1_60 1_555 1_555
H4_60 C4_60 1_555 1_555
C7_60 H7_60 1_555 1_555
C8_60 N7_60 1_555 1_555
H8_60 C8_60 1_555 1_555
Ag4_48 N8_60 1_555 1_555
Ag3_48 N7_60 1_555 1_555
N13_43 Ag2_35 1_555 1_555
N14_40 Ag2_35 1_555 1_555
N15_60 Ag1_60 1_555 1_555
N3_60 N4_60 1_555 1_555
N9_55 C1_55 1_555 1_555
N9_55 C2_55 1_555 1_555
N11_60 C4_60 1_555 1_555
N12_60 C8_60 1_555 1_555
N13_6 N14_3 1_555 1_555
N14_3 C6_60 1_555 1_555
C5_60 N13_6 1_555 1_555
H5_60 C5_60 1_555 1_555
H6_60 C6_60 1_555 1_555
Ag1_61 N2_61 1_555 1_555
Ag2_36 N1_61 1_555 1_555
N1_61 N2_61 1_555 1_555
N2_61 C3_61 1_555 1_555
N3_61 Ag2_36 1_555 1_555
N4_61 Ag1_61 1_555 1_555
N13_9 N14 1_555 1_555
N14 C6_61 1_555 1_555
N7_61 N8_61 1_555 1_555
N8_61 C7_61 1_555 1_555
N9_56 N10_56 1_555 1_555
N10_56 C5_61 1_555 1_555
N11_61 N12_61 1_555 1_555
N12_61 C7_61 1_555 1_555
C1_56 N4_61 1_555 1_555
H1_61 C1_56 1_555 1_555
C2_56 N3_61 1_555 1_555
H2_56 C2_56 1_555 1_555
C3_61 N11_61 1_555 1_555
H3_61 C3_61 1_555 1_555
C4_61 N1_61 1_555 1_555
H4_61 C4_61 1_555 1_555
C5_61 N13_9 1_555 1_555
H5_61 C5_61 1_555 1_555
C6_61 N10_56 1_555 1_555
H6_61 C6_61 1_555 1_555
C7_61 H7_61 1_555 1_555
C8_61 N7_61 1_555 1_555
H8_61 C8_61 1_555 1_555
Ag4_8 N8_61 1_555 1_555
Ag3_8 N7_61 1_555 1_555
N13_44 Ag2_36 1_555 1_555
N14_41 Ag2_36 1_555 1_555
N15_61 Ag1_61 1_555 1_555
N16_61 Ag1_61 1_555 1_555
N3_61 N4_61 1_555 1_555
N9_56 C1_56 1_555 1_555
N9_56 C2_56 1_555 1_555
N11_61 C4_61 1_555 1_555
N12_61 C8_61 1_555 1_555
Ag1_62 N2_62 1_555 1_555
Ag5_18 N1_62 1_555 1_555
N1_62 N2_62 1_555 1_555
N2_62 C3_62 1_555 1_555
N3_62 Ag5_18 1_555 1_555
N4_62 Ag1_62 1_555 1_555
N5_44 N6_46 1_555 1_555
N6_46 C6_62 1_555 1_555
N7_62 N8_62 1_555 1_555
N8_62 C7_62 1_555 1_555
N9_57 N10_57 1_555 1_555
N10_57 C5_62 1_555 1_555
N11_62 N12_62 1_555 1_555
N12_62 C7_62 1_555 1_555
C1_57 N4_62 1_555 1_555
H1_62 C1_57 1_555 1_555
C2_57 N3_62 1_555 1_555
H2_57 C2_57 1_555 1_555
C3_62 N11_62 1_555 1_555
H3_62 C3_62 1_555 1_555
C4_62 N1_62 1_555 1_555
H4_62 C4_62 1_555 1_555
C5_62 N5_44 1_555 1_555
H5_62 C5_62 1_555 1_555
C6_62 N10_57 1_555 1_555
H6_62 C6_62 1_555 1_555
C7_62 H7_62 1_555 1_555
C8_62 N7_62 1_555 1_555
H8_62 C8_62 1_555 1_555
Ag4_26 N8_62 1_555 1_555
Ag3_26 N7_62 1_555 1_555
Ag6_27 N6_46 1_555 1_555
Ag5_29 N5_44 1_555 1_555
N15_62 Ag1_62 1_555 1_555
N16_62 Ag1_62 1_555 1_555
N3_62 N4_62 1_555 1_555
N9_57 C1_57 1_555 1_555
N9_57 C2_57 1_555 1_555
N11_62 C4_62 1_555 1_555
N12_62 C8_62 1_555 1_555
Ag1_63 N2_63 1_555 1_555
Ag2_37 N1_63 1_555 1_555
N1_63 N2_63 1_555 1_555
N2_63 C3_63 1_555 1_555
N3_63 Ag2_37 1_555 1_555
N4_63 Ag1_63 1_555 1_555
N7_63 N8_63 1_555 1_555
N8_63 C7_63 1_555 1_555
N9_58 N10_58 1_555 1_555
N11_63 N12_63 1_555 1_555
N12_63 C7_63 1_555 1_555
C1_58 N4_63 1_555 1_555
C2_58 N3_63 1_555 1_555
H2_58 C2_58 1_555 1_555
C3_63 N11_63 1_555 1_555
H3_63 C3_63 1_555 1_555
C4_63 N1_63 1_555 1_555
H4_63 C4_63 1_555 1_555
C7_63 H7_63 1_555 1_555
C8_63 N7_63 1_555 1_555
H8_63 C8_63 1_555 1_555
Ag3_47 N7_63 1_555 1_555
N13_45 Ag2_37 1_555 1_555
N14_42 Ag2_37 1_555 1_555
N15_63 Ag1_63 1_555 1_555
N3_63 N4_63 1_555 1_555
N9_58 C1_58 1_555 1_555
N9_58 C2_58 1_555 1_555
N11_63 C4_63 1_555 1_555
N12_63 C8_63 1_555 1_555
N13_3 N14_6 1_555 1_555
N14_6 C6_63 1_555 1_555
C5_63 N13_3 1_555 1_555
H5_63 C5_63 1_555 1_555
H6_63 C6_63 1_555 1_555
Ag1_64 N2_64 1_555 1_555
Ag6_20 N1_64 1_555 1_555
N1_64 N2_64 1_555 1_555
N2_64 C3_64 1_555 1_555
N3_64 Ag6_20 1_555 1_555
N4_64 Ag1_64 1_555 1_555
N5_45 N6_47 1_555 1_555
N6_47 C6_64 1_555 1_555
N7_64 N8_64 1_555 1_555
N8_64 C7_64 1_555 1_555
N9_59 N10_59 1_555 1_555
N10_59 C5_64 1_555 1_555
N11_64 N12_64 1_555 1_555
N12_64 C7_64 1_555 1_555
C1_59 N4_64 1_555 1_555
H1_64 C1_59 1_555 1_555
C2_59 N3_64 1_555 1_555
H2_59 C2_59 1_555 1_555
C3_64 N11_64 1_555 1_555
H3_64 C3_64 1_555 1_555
C4_64 N1_64 1_555 1_555
H4_64 C4_64 1_555 1_555
C5_64 N5_45 1_555 1_555
H5_64 C5_64 1_555 1_555
C6_64 N10_59 1_555 1_555
H6_64 C6_64 1_555 1_555
C7_64 H7_64 1_555 1_555
C8_64 N7_64 1_555 1_555
H8_64 C8_64 1_555 1_555
Ag4_19 N8_64 1_555 1_555
Ag3_19 N7_64 1_555 1_555
Ag5_30 N6_47 1_555 1_555
Ag6_28 N5_45 1_555 1_555
N15_64 Ag1_64 1_555 1_555
N16_64 Ag1_64 1_555 1_555
N3_64 N4_64 1_555 1_555
N9_59 C1_59 1_555 1_555
N9_59 C2_59 1_555 1_555
N11_64 C4_64 1_555 1_555
N12_64 C8_64 1_555 1_555
Ag1_65 N2_65 1_555 1_555
Ag6_17 N1_65 1_555 1_555
N1_65 N2_65 1_555 1_555
N2_65 C3_65 1_555 1_555
N3_65 Ag6_17 1_555 1_555
N4_65 Ag1_65 1_555 1_555
N5_46 N6_48 1_555 1_555
N6_48 C6_65 1_555 1_555
N7_65 N8_65 1_555 1_555
N8_65 C7_65 1_555 1_555
N9_60 N10_60 1_555 1_555
N10_60 C5_65 1_555 1_555
N11_65 N12_65 1_555 1_555
N12_65 C7_65 1_555 1_555
C1_60 N4_65 1_555 1_555
H1_65 C1_60 1_555 1_555
C2_60 N3_65 1_555 1_555
H2_60 C2_60 1_555 1_555
C3_65 N11_65 1_555 1_555
H3_65 C3_65 1_555 1_555
C4_65 N1_65 1_555 1_555
H4_65 C4_65 1_555 1_555
C5_65 N5_46 1_555 1_555
H5_65 C5_65 1_555 1_555
C6_65 N10_60 1_555 1_555
H6_65 C6_65 1_555 1_555
C7_65 H7_65 1_555 1_555
C8_65 N7_65 1_555 1_555
H8_65 C8_65 1_555 1_555
Ag4_28 N8_65 1_555 1_555
Ag3_28 N7_65 1_555 1_555
Ag6_28 N6_48 1_555 1_555
Ag5_30 N5_46 1_555 1_555
N15_65 Ag1_65 1_555 1_555
N16_65 Ag1_65 1_555 1_555
N3_65 N4_65 1_555 1_555
N9_60 C1_60 1_555 1_555
N9_60 C2_60 1_555 1_555
N11_65 C4_65 1_555 1_555
N12_65 C8_65 1_555 1_555
Ag1_66 N2_66 1_555 1_555
Ag2_38 N1_66 1_555 1_555
N1_66 N2_66 1_555 1_555
N2_66 C3_66 1_555 1_555
N3_66 Ag2_38 1_555 1_555
N4_66 Ag1_66 1_555 1_555
N13 N14_8 1_555 1_555
N14_8 C6_66 1_555 1_555
N7_66 N8_66 1_555 1_555
N8_66 C7_66 1_555 1_555
N9_61 N10_61 1_555 1_555
N10_61 C5_66 1_555 1_555
N11_66 N12_66 1_555 1_555
N12_66 C7_66 1_555 1_555
C1_61 N4_66 1_555 1_555
H1_66 C1_61 1_555 1_555
C2_61 N3_66 1_555 1_555
H2_61 C2_61 1_555 1_555
C3_66 N11_66 1_555 1_555
H3_66 C3_66 1_555 1_555
C4_66 N1_66 1_555 1_555
H4_66 C4_66 1_555 1_555
C5_66 N13 1_555 1_555
H5_66 C5_66 1_555 1_555
C6_66 N10_61 1_555 1_555
H6_66 C6_66 1_555 1_555
C7_66 H7_66 1_555 1_555
C8_66 N7_66 1_555 1_555
H8_66 C8_66 1_555 1_555
Ag3_34 N7_66 1_555 1_555
N13_46 Ag2_38 1_555 1_555
N14_43 Ag2_38 1_555 1_555
N15_66 Ag1_66 1_555 1_555
N16_66 Ag1_66 1_555 1_555
N3_66 N4_66 1_555 1_555
N9_61 C1_61 1_555 1_555
N9_61 C2_61 1_555 1_555
N11_66 C4_66 1_555 1_555
N12_66 C8_66 1_555 1_555
Ag1_67 N2_67 1_555 1_555
Ag6_8 N1_67 1_555 1_555
N1_67 N2_67 1_555 1_555
N2_67 C3_67 1_555 1_555
N3_67 Ag6_8 1_555 1_555
N4_67 Ag1_67 1_555 1_555
N7_67 N8_67 1_555 1_555
N8_67 C7_67 1_555 1_555
N11_67 N12_67 1_555 1_555
N12_67 C7_67 1_555 1_555
C3_67 N11_67 1_555 1_555
H3_67 C3_67 1_555 1_555
C4_67 N1_67 1_555 1_555
H4_67 C4_67 1_555 1_555
C7_67 H7_67 1_555 1_555
C8_67 N7_67 1_555 1_555
H8_67 C8_67 1_555 1_555
Ag4_16 N8_67 1_555 1_555
Ag3_16 N7_67 1_555 1_555
N15_67 Ag1_67 1_555 1_555
N16_67 Ag1_67 1_555 1_555
N3_67 N4_67 1_555 1_555
N11_67 C4_67 1_555 1_555
N12_67 C8_67 1_555 1_555
N13_28 N6_49 1_555 1_555
N6_49 C6_67 1_555 1_555
N9_62 N10_62 1_555 1_555
N10_62 C5_67 1_555 1_555
H1_67 C1_62 1_555 1_555
H2_62 C2_62 1_555 1_555
C5_67 N13_28 1_555 1_555
H5_67 C5_67 1_555 1_555
C6_67 N10_62 1_555 1_555
H6_67 C6_67 1_555 1_555
Ag6_14 N6_49 1_555 1_555
N9_62 C1_62 1_555 1_555
N9_62 C2_62 1_555 1_555
N13_21 N6_50 1_555 1_555
N6_50 C6_68 1_555 1_555
C5_68 N13_21 1_555 1_555
H5_68 C5_68 1_555 1_555
H6_68 C6_68 1_555 1_555
Ag6_13 N6_50 1_555 1_555
Ag1_68 N2_68 1_555 1_555
Ag5_23 N1_68 1_555 1_555
N1_68 N2_68 1_555 1_555
N2_68 C3_68 1_555 1_555
N3_68 Ag5_23 1_555 1_555
N4_68 Ag1_68 1_555 1_555
N7_68 N8_68 1_555 1_555
N8_68 C7_68 1_555 1_555
N9_63 N10_63 1_555 1_555
N11_68 N12_68 1_555 1_555
N12_68 C7_68 1_555 1_555
C1_63 N4_68 1_555 1_555
C2_63 N3_68 1_555 1_555
H2_63 C2_63 1_555 1_555
C3_68 N11_68 1_555 1_555
H3_68 C3_68 1_555 1_555
C4_68 N1_68 1_555 1_555
H4_68 C4_68 1_555 1_555
C7_68 H7_68 1_555 1_555
C8_68 N7_68 1_555 1_555
H8_68 C8_68 1_555 1_555
Ag4_35 N8_68 1_555 1_555
Ag3_35 N7_68 1_555 1_555
N15_68 Ag1_68 1_555 1_555
N3_68 N4_68 1_555 1_555
N9_63 C1_63 1_555 1_555
N9_63 C2_63 1_555 1_555
N11_68 C4_68 1_555 1_555
N12_68 C8_68 1_555 1_555
Ag1_69 N2_69 1_555 1_555
Ag6_14 N1_69 1_555 1_555
N1_69 N2_69 1_555 1_555
N2_69 C3_69 1_555 1_555
N3_69 Ag6_14 1_555 1_555
N4_69 Ag1_69 1_555 1_555
N5_47 N14_38 1_555 1_555
N14_38 C6_69 1_555 1_555
N7_69 N8_69 1_555 1_555
N8_69 C7_69 1_555 1_555
N9_64 N10_64 1_555 1_555
N10_64 C5_69 1_555 1_555
N11_69 N12_69 1_555 1_555
N12_69 C7_69 1_555 1_555
C1_64 N4_69 1_555 1_555
H1_69 C1_64 1_555 1_555
C2_64 N3_69 1_555 1_555
H2_64 C2_64 1_555 1_555
C3_69 N11_69 1_555 1_555
H3_69 C3_69 1_555 1_555
C4_69 N1_69 1_555 1_555
H4_69 C4_69 1_555 1_555
C5_69 N5_47 1_555 1_555
H5_69 C5_69 1_555 1_555
C6_69 N10_64 1_555 1_555
H6_69 C6_69 1_555 1_555
C7_69 H7_69 1_555 1_555
C8_69 N7_69 1_555 1_555
H8_69 C8_69 1_555 1_555
Ag4_30 N8_69 1_555 1_555
Ag3_30 N7_69 1_555 1_555
Ag5_22 N5_47 1_555 1_555
N15_69 Ag1_69 1_555 1_555
N16_69 Ag1_69 1_555 1_555
N3_69 N4_69 1_555 1_555
N9_64 C1_64 1_555 1_555
N9_64 C2_64 1_555 1_555
N11_69 C4_69 1_555 1_555
N12_69 C8_69 1_555 1_555
N13_41 N14_30 1_555 1_555
N14_30 C6_70 1_555 1_555
C5_70 N13_41 1_555 1_555
H5_70 C5_70 1_555 1_555
H6_70 C6_70 1_555 1_555
Ag1_70 N2_70 1_555 1_555
Ag6_2 N1_70 1_555 1_555
N1_70 N2_70 1_555 1_555
N2_70 C3_70 1_555 1_555
N3_70 Ag6_2 1_555 1_555
N4_70 Ag1_70 1_555 1_555
N7_70 N8_70 1_555 1_555
N8_70 C7_70 1_555 1_555
N9_65 N10_65 1_555 1_555
N11_70 N12_70 1_555 1_555
N12_70 C7_70 1_555 1_555
C1_65 N4_70 1_555 1_555
C2_65 N3_70 1_555 1_555
H2_65 C2_65 1_555 1_555
C3_70 N11_70 1_555 1_555
H3_70 C3_70 1_555 1_555
C4_70 N1_70 1_555 1_555
H4_70 C4_70 1_555 1_555
C7_70 H7_70 1_555 1_555
C8_70 N7_70 1_555 1_555
H8_70 C8_70 1_555 1_555
Ag4_25 N8_70 1_555 1_555
Ag3_25 N7_70 1_555 1_555
N14_44 Ag6_2 1_555 1_555
N15_70 Ag1_70 1_555 1_555
N3_70 N4_70 1_555 1_555
N9_65 C1_65 1_555 1_555
N9_65 C2_65 1_555 1_555
N11_70 C4_70 1_555 1_555
N12_70 C8_70 1_555 1_555
Ag1_71 N2_71 1_555 1_555
Ag5_6 N1_71 1_555 1_555
N1_71 N2_71 1_555 1_555
N2_71 C3_71 1_555 1_555
N3_71 Ag5_6 1_555 1_555
N4_71 Ag1_71 1_555 1_555
N13_38 N14_2 1_555 1_555
N14_2 C6_71 1_555 1_555
N7_71 N8_71 1_555 1_555
N8_71 C7_71 1_555 1_555
N9_66 N10_66 1_555 1_555
N10_66 C5_71 1_555 1_555
N11_71 N12_71 1_555 1_555
N12_71 C7_71 1_555 1_555
C1_66 N4_71 1_555 1_555
H1_71 C1_66 1_555 1_555
C2_66 N3_71 1_555 1_555
H2_66 C2_66 1_555 1_555
C3_71 N11_71 1_555 1_555
H3_71 C3_71 1_555 1_555
C4_71 N1_71 1_555 1_555
H4_71 C4_71 1_555 1_555
C5_71 N13_38 1_555 1_555
H5_71 C5_71 1_555 1_555
C6_71 N10_66 1_555 1_555
H6_71 C6_71 1_555 1_555
C7_71 H7_71 1_555 1_555
C8_71 N7_71 1_555 1_555
H8_71 C8_71 1_555 1_555
Ag3_39 N7_71 1_555 1_555
N13_47 Ag5_6 1_555 1_555
N15_71 Ag1_71 1_555 1_555
N16_71 Ag1_71 1_555 1_555
N3_71 N4_71 1_555 1_555
N9_66 C1_66 1_555 1_555
N9_66 C2_66 1_555 1_555
N11_71 C4_71 1_555 1_555
N12_71 C8_71 1_555 1_555
Ag1_72 N2_72 1_555 1_555
Ag5_27 N1_72 1_555 1_555
N1_72 N2_72 1_555 1_555
N2_72 C3_72 1_555 1_555
N3_72 Ag5_27 1_555 1_555
N4_72 Ag1_72 1_555 1_555
N13_27 N14_35 1_555 1_555
N14_35 C6_72 1_555 1_555
N7_72 N8_72 1_555 1_555
N8_72 C7_72 1_555 1_555
N9_67 N10_67 1_555 1_555
N10_67 C5_72 1_555 1_555
N11_72 N12_72 1_555 1_555
N12_72 C7_72 1_555 1_555
C1_67 N4_72 1_555 1_555
H1_72 C1_67 1_555 1_555
C2_67 N3_72 1_555 1_555
H2_67 C2_67 1_555 1_555
C3_72 N11_72 1_555 1_555
H3_72 C3_72 1_555 1_555
C4_72 N1_72 1_555 1_555
H4_72 C4_72 1_555 1_555
C5_72 N13_27 1_555 1_555
H5_72 C5_72 1_555 1_555
C6_72 N10_67 1_555 1_555
H6_72 C6_72 1_555 1_555
C7_72 H7_72 1_555 1_555
C8_72 N7_72 1_555 1_555
H8_72 C8_72 1_555 1_555
Ag4_36 N8_72 1_555 1_555
Ag3_36 N7_72 1_555 1_555
N15_72 Ag1_72 1_555 1_555
N16_72 Ag1_72 1_555 1_555
N3_72 N4_72 1_555 1_555
N9_67 C1_67 1_555 1_555
N9_67 C2_67 1_555 1_555
N11_72 C4_72 1_555 1_555
N12_72 C8_72 1_555 1_555
Ag1_73 N2_73 1_555 1_555
Ag5_25 N1_73 1_555 1_555
N1_73 N2_73 1_555 1_555
N2_73 C3_73 1_555 1_555
N3_73 Ag5_25 1_555 1_555
N4_73 Ag1_73 1_555 1_555
N7_73 N8_73 1_555 1_555
N8_73 C7_73 1_555 1_555
N9_68 N10_68 1_555 1_555
N11_73 N12_73 1_555 1_555
N12_73 C7_73 1_555 1_555
C1_68 N4_73 1_555 1_555
C2_68 N3_73 1_555 1_555
H2_68 C2_68 1_555 1_555
C3_73 N11_73 1_555 1_555
H3_73 C3_73 1_555 1_555
C4_73 N1_73 1_555 1_555
H4_73 C4_73 1_555 1_555
C7_73 H7_73 1_555 1_555
C8_73 N7_73 1_555 1_555
H8_73 C8_73 1_555 1_555
Ag4_22 N8_73 1_555 1_555
Ag3_22 N7_73 1_555 1_555
N15_73 Ag1_73 1_555 1_555
N3_73 N4_73 1_555 1_555
N9_68 C1_68 1_555 1_555
N9_68 C2_68 1_555 1_555
N11_73 C4_73 1_555 1_555
N12_73 C8_73 1_555 1_555
N13_17 N14_13 1_555 1_555
N14_13 C6_73 1_555 1_555
C5_73 N13_17 1_555 1_555
H5_73 C5_73 1_555 1_555
H6_73 C6_73 1_555 1_555
Ag1_74 N2_74 1_555 1_555
Ag6_22 N1_74 1_555 1_555
N1_74 N2_74 1_555 1_555
N2_74 C3_74 1_555 1_555
N3_74 Ag6_22 1_555 1_555
N4_74 Ag1_74 1_555 1_555
N13_40 N6_51 1_555 1_555
N6_51 C6_74 1_555 1_555
N7_74 N8_74 1_555 1_555
N8_74 C7_74 1_555 1_555
N9_69 N10_69 1_555 1_555
N10_69 C5_74 1_555 1_555
N11_74 N12_74 1_555 1_555
N12_74 C7_74 1_555 1_555
C1_69 N4_74 1_555 1_555
H1_74 C1_69 1_555 1_555
C2_69 N3_74 1_555 1_555
H2_69 C2_69 1_555 1_555
C3_74 N11_74 1_555 1_555
H3_74 C3_74 1_555 1_555
C4_74 N1_74 1_555 1_555
H4_74 C4_74 1_555 1_555
C5_74 N13_40 1_555 1_555
H5_74 C5_74 1_555 1_555
C6_74 N10_69 1_555 1_555
H6_74 C6_74 1_555 1_555
C7_74 H7_74 1_555 1_555
C8_74 N7_74 1_555 1_555
H8_74 C8_74 1_555 1_555
Ag4_14 N8_74 1_555 1_555
Ag3_14 N7_74 1_555 1_555
Ag6_3 N6_51 1_555 1_555
N15_74 Ag1_74 1_555 1_555
N16_74 Ag1_74 1_555 1_555
N3_74 N4_74 1_555 1_555
N9_69 C1_69 1_555 1_555
N9_69 C2_69 1_555 1_555
N11_74 C4_74 1_555 1_555
N12_74 C8_74 1_555 1_555
Ag1_75 N2_75 1_555 1_555
Ag5_24 N1_75 1_555 1_555
N1_75 N2_75 1_555 1_555
N2_75 C3_75 1_555 1_555
N3_75 Ag5_24 1_555 1_555
N4_75 Ag1_75 1_555 1_555
N7_75 N8_75 1_555 1_555
N8_75 C7_75 1_555 1_555
N9_70 N10_70 1_555 1_555
N11_75 N12_75 1_555 1_555
N12_75 C7_75 1_555 1_555
C1_70 N4_75 1_555 1_555
C2_70 N3_75 1_555 1_555
H2_70 C2_70 1_555 1_555
C3_75 N11_75 1_555 1_555
H3_75 C3_75 1_555 1_555
C4_75 N1_75 1_555 1_555
H4_75 C4_75 1_555 1_555
C7_75 H7_75 1_555 1_555
C8_75 N7_75 1_555 1_555
H8_75 C8_75 1_555 1_555
Ag3_31 N7_75 1_555 1_555
N15_75 Ag1_75 1_555 1_555
N3_75 N4_75 1_555 1_555
N9_70 C1_70 1_555 1_555
N9_70 C2_70 1_555 1_555
N11_75 C4_75 1_555 1_555
N12_75 C8_75 1_555 1_555
N13_14 N14_16 1_555 1_555
N14_16 C6_75 1_555 1_555
C5_75 N13_14 1_555 1_555
H5_75 C5_75 1_555 1_555
H6_75 C6_75 1_555 1_555
Ag1_76 N2_76 1_555 1_555
Ag6_16 N1_76 1_555 1_555
N1_76 N2_76 1_555 1_555
N2_76 C3_76 1_555 1_555
N3_76 Ag6_16 1_555 1_555
N4_76 Ag1_76 1_555 1_555
N7_76 N8_76 1_555 1_555
N8_76 C7_76 1_555 1_555
N11_76 N12_76 1_555 1_555
N12_76 C7_76 1_555 1_555
C3_76 N11_76 1_555 1_555
H3_76 C3_76 1_555 1_555
C4_76 N1_76 1_555 1_555
H4_76 C4_76 1_555 1_555
C7_76 H7_76 1_555 1_555
C8_76 N7_76 1_555 1_555
H8_76 C8_76 1_555 1_555
Ag4_17 N8_76 1_555 1_555
Ag3_17 N7_76 1_555 1_555
N15_76 Ag1_76 1_555 1_555
N16_76 Ag1_76 1_555 1_555
N3_76 N4_76 1_555 1_555
N11_76 C4_76 1_555 1_555
N12_76 C8_76 1_555 1_555
N13_7 N14_44 1_555 1_555
N14_44 C6_76 1_555 1_555
N9_71 N10_71 1_555 1_555
N10_71 C5_76 1_555 1_555
H1_76 C1_71 1_555 1_555
H2_71 C2_71 1_555 1_555
C5_76 N13_7 1_555 1_555
H5_76 C5_76 1_555 1_555
C6_76 N10_71 1_555 1_555
H6_76 C6_76 1_555 1_555
N9_71 C1_71 1_555 1_555
N9_71 C2_71 1_555 1_555
Ag1_77 N2_77 1_555 1_555
Ag6_13 N1_77 1_555 1_555
N1_77 N2_77 1_555 1_555
N2_77 C3_77 1_555 1_555
N3_77 Ag6_13 1_555 1_555
N4_77 Ag1_77 1_555 1_555
N7_77 N8_77 1_555 1_555
N8_77 C7_77 1_555 1_555
N11_77 N12_77 1_555 1_555
N12_77 C7_77 1_555 1_555
C3_77 N11_77 1_555 1_555
H3_77 C3_77 1_555 1_555
C4_77 N1_77 1_555 1_555
H4_77 C4_77 1_555 1_555
C7_77 H7_77 1_555 1_555
C8_77 N7_77 1_555 1_555
H8_77 C8_77 1_555 1_555
Ag4_9 N8_77 1_555 1_555
Ag3_9 N7_77 1_555 1_555
N15_77 Ag1_77 1_555 1_555
N16_77 Ag1_77 1_555 1_555
N3_77 N4_77 1_555 1_555
N11_77 C4_77 1_555 1_555
N12_77 C8_77 1_555 1_555
N13_42 N14_28 1_555 1_555
N14_28 C6_77 1_555 1_555
N9_72 N10_72 1_555 1_555
N10_72 C5_77 1_555 1_555
H1_77 C1_72 1_555 1_555
H2_72 C2_72 1_555 1_555
C5_77 N13_42 1_555 1_555
H5_77 C5_77 1_555 1_555
C6_77 N10_72 1_555 1_555
H6_77 C6_77 1_555 1_555
N9_72 C1_72 1_555 1_555
N9_72 C2_72 1_555 1_555
Ag1_78 N2_78 1_555 1_555
Ag6_23 N1_78 1_555 1_555
N1_78 N2_78 1_555 1_555
N2_78 C3_78 1_555 1_555
N3_78 Ag6_23 1_555 1_555
N4_78 Ag1_78 1_555 1_555
N13_16 N14_10 1_555 1_555
N14_10 C6_78 1_555 1_555
N7_78 N8_78 1_555 1_555
N8_78 C7_78 1_555 1_555
N9_73 N10_73 1_555 1_555
N10_73 C5_78 1_555 1_555
N11_78 N12_78 1_555 1_555
N12_78 C7_78 1_555 1_555
C1_73 N4_78 1_555 1_555
H1_78 C1_73 1_555 1_555
C2_73 N3_78 1_555 1_555
H2_73 C2_73 1_555 1_555
C3_78 N11_78 1_555 1_555
H3_78 C3_78 1_555 1_555
C4_78 N1_78 1_555 1_555
H4_78 C4_78 1_555 1_555
C5_78 N13_16 1_555 1_555
H5_78 C5_78 1_555 1_555
C6_78 N10_73 1_555 1_555
H6_78 C6_78 1_555 1_555
C7_78 H7_78 1_555 1_555
C8_78 N7_78 1_555 1_555
H8_78 C8_78 1_555 1_555
Ag4_21 N8_78 1_555 1_555
Ag3_21 N7_78 1_555 1_555
N15_78 Ag1_78 1_555 1_555
N16_78 Ag1_78 1_555 1_555
N3_78 N4_78 1_555 1_555
N9_73 C1_73 1_555 1_555
N9_73 C2_73 1_555 1_555
N11_78 C4_78 1_555 1_555
N12_78 C8_78 1_555 1_555
Ag1_79 N2_79 1_555 1_555
Ag6_3 N1_79 1_555 1_555
N1_79 N2_79 1_555 1_555
N2_79 C3_79 1_555 1_555
N3_79 Ag6_3 1_555 1_555
N4_79 Ag1_79 1_555 1_555
N5_48 N14_37 1_555 1_555
N14_37 C6_79 1_555 1_555
N7_79 N8_79 1_555 1_555
N8_79 C7_79 1_555 1_555
N9_74 N10_74 1_555 1_555
N10_74 C5_79 1_555 1_555
N11_79 N12_79 1_555 1_555
N12_79 C7_79 1_555 1_555
C1_74 N4_79 1_555 1_555
H1_79 C1_74 1_555 1_555
C2_74 N3_79 1_555 1_555
H2_74 C2_74 1_555 1_555
C3_79 N11_79 1_555 1_555
H3_79 C3_79 1_555 1_555
C4_79 N1_79 1_555 1_555
H4_79 C4_79 1_555 1_555
C5_79 N5_48 1_555 1_555
H5_79 C5_79 1_555 1_555
C6_79 N10_74 1_555 1_555
H6_79 C6_79 1_555 1_555
C7_79 H7_79 1_555 1_555
C8_79 N7_79 1_555 1_555
H8_79 C8_79 1_555 1_555
Ag4_27 N8_79 1_555 1_555
Ag3_27 N7_79 1_555 1_555
Ag5_15 N5_48 1_555 1_555
N15_79 Ag1_79 1_555 1_555
N16_79 Ag1_79 1_555 1_555
N3_79 N4_79 1_555 1_555
N9_74 C1_74 1_555 1_555
N9_74 C2_74 1_555 1_555
N11_79 C4_79 1_555 1_555
N12_79 C8_79 1_555 1_555
Ag1_80 N2_80 1_555 1_555
Ag5_20 N1_80 1_555 1_555
N1_80 N2_80 1_555 1_555
N2_80 C3_80 1_555 1_555
N3_80 Ag5_20 1_555 1_555
N4_80 Ag1_80 1_555 1_555
N13_25 N14_19 1_555 1_555
N14_19 C6_80 1_555 1_555
N7_80 N8_80 1_555 1_555
N8_80 C7_80 1_555 1_555
N9_75 N10_75 1_555 1_555
N10_75 C5_80 1_555 1_555
N11_80 N12_80 1_555 1_555
N12_80 C7_80 1_555 1_555
C1_75 N4_80 1_555 1_555
H1_80 C1_75 1_555 1_555
C2_75 N3_80 1_555 1_555
H2_75 C2_75 1_555 1_555
C3_80 N11_80 1_555 1_555
H3_80 C3_80 1_555 1_555
C4_80 N1_80 1_555 1_555
H4_80 C4_80 1_555 1_555
C5_80 N13_25 1_555 1_555
H5_80 C5_80 1_555 1_555
C6_80 N10_75 1_555 1_555
H6_80 C6_80 1_555 1_555
C7_80 H7_80 1_555 1_555
C8_80 N7_80 1_555 1_555
H8_80 C8_80 1_555 1_555
Ag4_37 N8_80 1_555 1_555
Ag3_37 N7_80 1_555 1_555
N13_48 Ag5_20 1_555 1_555
N15_80 Ag1_80 1_555 1_555
N16_80 Ag1_80 1_555 1_555
N3_80 N4_80 1_555 1_555
N9_75 C1_75 1_555 1_555
N9_75 C2_75 1_555 1_555
N11_80 C4_80 1_555 1_555
N12_80 C8_80 1_555 1_555
Ag1_81 N2_81 1_555 1_555
Ag6_24 N1_81 1_555 1_555
N1_81 N2_81 1_555 1_555
N2_81 C3_81 1_555 1_555
N3_81 Ag6_24 1_555 1_555
N4_81 Ag1_81 1_555 1_555
N13_11 N14_15 1_555 1_555
N14_15 C6_81 1_555 1_555
N7_81 N8_81 1_555 1_555
N8_81 C7_81 1_555 1_555
N9_76 N10_76 1_555 1_555
N10_76 C5_81 1_555 1_555
N11_81 N12_81 1_555 1_555
N12_81 C7_81 1_555 1_555
C1_76 N4_81 1_555 1_555
H1_81 C1_76 1_555 1_555
C2_76 N3_81 1_555 1_555
H2_76 C2_76 1_555 1_555
C3_81 N11_81 1_555 1_555
H3_81 C3_81 1_555 1_555
C4_81 N1_81 1_555 1_555
H4_81 C4_81 1_555 1_555
C5_81 N13_11 1_555 1_555
H5_81 C5_81 1_555 1_555
C6_81 N10_76 1_555 1_555
H6_81 C6_81 1_555 1_555
C7_81 H7_81 1_555 1_555
C8_81 N7_81 1_555 1_555
H8_81 C8_81 1_555 1_555
Ag3_5 N7_81 1_555 1_555
N15_81 Ag1_81 1_555 1_555
N16_81 Ag1_81 1_555 1_555
N3_81 N4_81 1_555 1_555
N9_76 C1_76 1_555 1_555
N9_76 C2_76 1_555 1_555
N11_81 C4_81 1_555 1_555
N12_81 C8_81 1_555 1_555
Ag1_82 N2_82 1_555 1_555
Ag5_16 N1_82 1_555 1_555
N1_82 N2_82 1_555 1_555
N2_82 C3_82 1_555 1_555
N3_82 Ag5_16 1_555 1_555
N4_82 Ag1_82 1_555 1_555
N7_82 N8_82 1_555 1_555
N8_82 C7_82 1_555 1_555
N11_82 N12_82 1_555 1_555
N12_82 C7_82 1_555 1_555
C3_82 N11_82 1_555 1_555
H3_82 C3_82 1_555 1_555
C4_82 N1_82 1_555 1_555
H4_82 C4_82 1_555 1_555
C7_82 H7_82 1_555 1_555
C8_82 N7_82 1_555 1_555
H8_82 C8_82 1_555 1_555
Ag4_18 N8_82 1_555 1_555
Ag3_18 N7_82 1_555 1_555
N15_82 Ag1_82 1_555 1_555
N16_82 Ag1_82 1_555 1_555
N3_82 N4_82 1_555 1_555
N11_82 C4_82 1_555 1_555
N12_82 C8_82 1_555 1_555
N13_37 N14_26 1_555 1_555
N14_26 C6_82 1_555 1_555
N9_77 N10_77 1_555 1_555
N10_77 C5_82 1_555 1_555
H1_82 C1_77 1_555 1_555
H2_77 C2_77 1_555 1_555
C5_82 N13_37 1_555 1_555
H5_82 C5_82 1_555 1_555
C6_82 N10_77 1_555 1_555
H6_82 C6_82 1_555 1_555
N9_77 C1_77 1_555 1_555
N9_77 C2_77 1_555 1_555
Ag1_83 N2_83 1_555 1_555
Ag5_5 N1_83 1_555 1_555
N1_83 N2_83 1_555 1_555
N2_83 C3_83 1_555 1_555
N3_83 Ag5_5 1_555 1_555
N4_83 Ag1_83 1_555 1_555
N13_44 N14_42 1_555 1_555
N14_42 C6_83 1_555 1_555
N7_83 N8_83 1_555 1_555
N8_83 C7_83 1_555 1_555
N9_78 N10_78 1_555 1_555
N10_78 C5_83 1_555 1_555
N11_83 N12_83 1_555 1_555
N12_83 C7_83 1_555 1_555
C1_78 N4_83 1_555 1_555
H1_83 C1_78 1_555 1_555
C2_78 N3_83 1_555 1_555
H2_78 C2_78 1_555 1_555
C3_83 N11_83 1_555 1_555
H3_83 C3_83 1_555 1_555
C4_83 N1_83 1_555 1_555
H4_83 C4_83 1_555 1_555
C5_83 N13_44 1_555 1_555
H5_83 C5_83 1_555 1_555
C6_83 N10_78 1_555 1_555
H6_83 C6_83 1_555 1_555
C7_83 H7_83 1_555 1_555
C8_83 N7_83 1_555 1_555
H8_83 C8_83 1_555 1_555
Ag4_20 N8_83 1_555 1_555
Ag3_20 N7_83 1_555 1_555
N15_83 Ag1_83 1_555 1_555
N16_83 Ag1_83 1_555 1_555
N3_83 N4_83 1_555 1_555
N9_78 C1_78 1_555 1_555
N9_78 C2_78 1_555 1_555
N11_83 C4_83 1_555 1_555
N12_83 C8_83 1_555 1_555
Ag1_84 N2_84 1_555 1_555
Ag6_28 N1_84 1_555 1_555
N1_84 N2_84 1_555 1_555
N2_84 C3_84 1_555 1_555
N3_84 Ag6_28 1_555 1_555
N4_84 Ag1_84 1_555 1_555
N13_29 N14_25 1_555 1_555
N14_25 C6_84 1_555 1_555
N7_84 N8_84 1_555 1_555
N8_84 C7_84 1_555 1_555
N9_79 N10_79 1_555 1_555
N10_79 C5_84 1_555 1_555
N11_84 N12_84 1_555 1_555
N12_84 C7_84 1_555 1_555
C1_79 N4_84 1_555 1_555
H1_84 C1_79 1_555 1_555
C2_79 N3_84 1_555 1_555
H2_79 C2_79 1_555 1_555
C3_84 N11_84 1_555 1_555
H3_84 C3_84 1_555 1_555
C4_84 N1_84 1_555 1_555
H4_84 C4_84 1_555 1_555
C5_84 N13_29 1_555 1_555
H5_84 C5_84 1_555 1_555
C6_84 N10_79 1_555 1_555
H6_84 C6_84 1_555 1_555
C7_84 H7_84 1_555 1_555
C8_84 N7_84 1_555 1_555
H8_84 C8_84 1_555 1_555
Ag4_24 N8_84 1_555 1_555
Ag3_24 N7_84 1_555 1_555
N15_84 Ag1_84 1_555 1_555
N16_84 Ag1_84 1_555 1_555
N3_84 N4_84 1_555 1_555
N9_79 C1_79 1_555 1_555
N9_79 C2_79 1_555 1_555
N11_84 C4_84 1_555 1_555
N12_84 C8_84 1_555 1_555
Ag1_85 N2_85 1_555 1_555
Ag6_27 N1_85 1_555 1_555
N1_85 N2_85 1_555 1_555
N2_85 C3_85 1_555 1_555
N3_85 Ag6_27 1_555 1_555
N4_85 Ag1_85 1_555 1_555
N13_32 N14_23 1_555 1_555
N14_23 C6_85 1_555 1_555
N7_85 N8_85 1_555 1_555
N8_85 C7_85 1_555 1_555
N9_80 N10_80 1_555 1_555
N10_80 C5_85 1_555 1_555
N11_85 N12_85 1_555 1_555
N12_85 C7_85 1_555 1_555
C1_80 N4_85 1_555 1_555
H1_85 C1_80 1_555 1_555
C2_80 N3_85 1_555 1_555
H2_80 C2_80 1_555 1_555
C3_85 N11_85 1_555 1_555
H3_85 C3_85 1_555 1_555
C4_85 N1_85 1_555 1_555
H4_85 C4_85 1_555 1_555
C5_85 N13_32 1_555 1_555
H5_85 C5_85 1_555 1_555
C6_85 N10_80 1_555 1_555
H6_85 C6_85 1_555 1_555
C7_85 H7_85 1_555 1_555
C8_85 N7_85 1_555 1_555
H8_85 C8_85 1_555 1_555
Ag4_32 N8_85 1_555 1_555
Ag3_32 N7_85 1_555 1_555
N15_85 Ag1_85 1_555 1_555
N16_85 Ag1_85 1_555 1_555
N3_85 N4_85 1_555 1_555
N9_80 C1_80 1_555 1_555
N9_80 C2_80 1_555 1_555
N11_85 C4_85 1_555 1_555
N12_85 C8_85 1_555 1_555
N13_45 N14_41 1_555 1_555
N14_41 C6_86 1_555 1_555
N9_81 N10_81 1_555 1_555
N10_81 C5_86 1_555 1_555
H1_86 C1_81 1_555 1_555
H2_81 C2_81 1_555 1_555
C5_86 N13_45 1_555 1_555
H5_86 C5_86 1_555 1_555
C6_86 N10_81 1_555 1_555
H6_86 C6_86 1_555 1_555
N9_81 C1_81 1_555 1_555
N9_81 C2_81 1_555 1_555
Ag1_86 N2_86 1_555 1_555
Ag5 N1_86 1_555 1_555
N1_86 N2_86 1_555 1_555
N2_86 C3_86 1_555 1_555
N3_86 Ag5 1_555 1_555
N4_86 Ag1_86 1_555 1_555
N7_86 N8_86 1_555 1_555
N8_86 C7_86 1_555 1_555
N11_86 N12_86 1_555 1_555
N12_86 C7_86 1_555 1_555
C3_86 N11_86 1_555 1_555
H3_86 C3_86 1_555 1_555
C4_86 N1_86 1_555 1_555
H4_86 C4_86 1_555 1_555
C7_86 H7_86 1_555 1_555
C8_86 N7_86 1_555 1_555
H8_86 C8_86 1_555 1_555
Ag3_2 N7_86 1_555 1_555
N15_86 Ag1_86 1_555 1_555
N16_86 Ag1_86 1_555 1_555
N3_86 N4_86 1_555 1_555
N11_86 C4_86 1_555 1_555
N12_86 C8_86 1_555 1_555
Ag1_87 N2_87 1_555 1_555
Ag5_29 N1_87 1_555 1_555
N1_87 N2_87 1_555 1_555
N2_87 C3_87 1_555 1_555
N3_87 Ag5_29 1_555 1_555
N4_87 Ag1_87 1_555 1_555
N13_26 N14_27 1_555 1_555
N14_27 C6_87 1_555 1_555
N7_87 N8_87 1_555 1_555
N8_87 C7_87 1_555 1_555
N9_82 N10_82 1_555 1_555
N10_82 C5_87 1_555 1_555
N11_87 N12_87 1_555 1_555
N12_87 C7_87 1_555 1_555
C1_82 N4_87 1_555 1_555
H1_87 C1_82 1_555 1_555
C2_82 N3_87 1_555 1_555
H2_82 C2_82 1_555 1_555
C3_87 N11_87 1_555 1_555
H3_87 C3_87 1_555 1_555
C4_87 N1_87 1_555 1_555
H4_87 C4_87 1_555 1_555
C5_87 N13_26 1_555 1_555
H5_87 C5_87 1_555 1_555
C6_87 N10_82 1_555 1_555
H6_87 C6_87 1_555 1_555
C7_87 H7_87 1_555 1_555
C8_87 N7_87 1_555 1_555
H8_87 C8_87 1_555 1_555
Ag4_23 N8_87 1_555 1_555
Ag3_23 N7_87 1_555 1_555
N15_87 Ag1_87 1_555 1_555
N16_87 Ag1_87 1_555 1_555
N3_87 N4_87 1_555 1_555
N9_82 C1_82 1_555 1_555
N9_82 C2_82 1_555 1_555
N11_87 C4_87 1_555 1_555
N12_87 C8_87 1_555 1_555
Ag1_88 N2_88 1_555 1_555
Ag6_5 N1_88 1_555 1_555
N1_88 N2_88 1_555 1_555
N2_88 C3_88 1_555 1_555
N3_88 Ag6_5 1_555 1_555
N4_88 Ag1_88 1_555 1_555
N13_43 N14_43 1_555 1_555
N14_43 C6_88 1_555 1_555
N7_88 N8_88 1_555 1_555
N8_88 C7_88 1_555 1_555
N9_83 N10_83 1_555 1_555
N10_83 C5_88 1_555 1_555
N11_88 N12_88 1_555 1_555
N12_88 C7_88 1_555 1_555
C1_83 N4_88 1_555 1_555
H1_88 C1_83 1_555 1_555
C2_83 N3_88 1_555 1_555
H2_83 C2_83 1_555 1_555
C3_88 N11_88 1_555 1_555
H3_88 C3_88 1_555 1_555
C4_88 N1_88 1_555 1_555
H4_88 C4_88 1_555 1_555
C5_88 N13_43 1_555 1_555
H5_88 C5_88 1_555 1_555
C6_88 N10_83 1_555 1_555
H6_88 C6_88 1_555 1_555
C7_88 H7_88 1_555 1_555
C8_88 N7_88 1_555 1_555
H8_88 C8_88 1_555 1_555
Ag3_43 N7_88 1_555 1_555
N15_88 Ag1_88 1_555 1_555
N16_88 Ag1_88 1_555 1_555
N3_88 N4_88 1_555 1_555
N9_83 C1_83 1_555 1_555
N9_83 C2_83 1_555 1_555
N11_88 C4_88 1_555 1_555
N12_88 C8_88 1_555 1_555
N13_46 N14_40 1_555 1_555
N14_40 C6_89 1_555 1_555
N9_84 N10_84 1_555 1_555
N10_84 C5_89 1_555 1_555
H1_89 C1_84 1_555 1_555
H2_84 C2_84 1_555 1_555
C5_89 N13_46 1_555 1_555
H5_89 C5_89 1_555 1_555
C6_89 N10_84 1_555 1_555
H6_89 C6_89 1_555 1_555
N9_84 C1_84 1_555 1_555
N9_84 C2_84 1_555 1_555
Ag1_89 N2_89 1_555 1_555
Ag6 N1_89 1_555 1_555
N1_89 N2_89 1_555 1_555
N2_89 C3_89 1_555 1_555
N3_89 Ag6 1_555 1_555
N4_89 Ag1_89 1_555 1_555
N7_89 N8_89 1_555 1_555
N8_89 C7_89 1_555 1_555
N11_89 N12_89 1_555 1_555
N12_89 C7_89 1_555 1_555
C3_89 N11_89 1_555 1_555
H3_89 C3_89 1_555 1_555
C4_89 N1_89 1_555 1_555
H4_89 C4_89 1_555 1_555
C7_89 H7_89 1_555 1_555
C8_89 N7_89 1_555 1_555
H8_89 C8_89 1_555 1_555
Ag4_4 N8_89 1_555 1_555
Ag3_4 N7_89 1_555 1_555
N15_89 Ag1_89 1_555 1_555
N16_89 Ag1_89 1_555 1_555
N3_89 N4_89 1_555 1_555
N11_89 C4_89 1_555 1_555
N12_89 C8_89 1_555 1_555
Ag1_90 N2_90 1_555 1_555
Ag5_30 N1_90 1_555 1_555
N1_90 N2_90 1_555 1_555
N2_90 C3_90 1_555 1_555
N3_90 Ag5_30 1_555 1_555
N4_90 Ag1_90 1_555 1_555
N13_24 N14_29 1_555 1_555
N14_29 C6_90 1_555 1_555
N7_90 N8_90 1_555 1_555
N8_90 C7_90 1_555 1_555
N9_85 N10_85 1_555 1_555
N10_85 C5_90 1_555 1_555
N11_90 N12_90 1_555 1_555
N12_90 C7_90 1_555 1_555
C1_85 N4_90 1_555 1_555
H1_90 C1_85 1_555 1_555
C2_85 N3_90 1_555 1_555
H2_85 C2_85 1_555 1_555
C3_90 N11_90 1_555 1_555
H3_90 C3_90 1_555 1_555
C4_90 N1_90 1_555 1_555
H4_90 C4_90 1_555 1_555
C5_90 N13_24 1_555 1_555
H5_90 C5_90 1_555 1_555
C6_90 N10_85 1_555 1_555
H6_90 C6_90 1_555 1_555
C7_90 H7_90 1_555 1_555
C8_90 N7_90 1_555 1_555
H8_90 C8_90 1_555 1_555
Ag4_10 N8_90 1_555 1_555
Ag3_10 N7_90 1_555 1_555
N15_90 Ag1_90 1_555 1_555
N16_90 Ag1_90 1_555 1_555
N3_90 N4_90 1_555 1_555
N9_85 C1_85 1_555 1_555
N9_85 C2_85 1_555 1_555
N11_90 C4_90 1_555 1_555
N12_90 C8_90 1_555 1_555
Ag1_91 N2_91 1_555 1_555
Ag5_17 N1_91 1_555 1_555
N1_91 N2_91 1_555 1_555
N2_91 C3_91 1_555 1_555
N3_91 Ag5_17 1_555 1_555
N4_91 Ag1_91 1_555 1_555
N7_91 N8_91 1_555 1_555
N8_91 C7_91 1_555 1_555
N11_91 N12_91 1_555 1_555
N12_91 C7_91 1_555 1_555
C3_91 N11_91 1_555 1_555
H3_91 C3_91 1_555 1_555
C4_91 N1_91 1_555 1_555
H4_91 C4_91 1_555 1_555
C7_91 H7_91 1_555 1_555
C8_91 N7_91 1_555 1_555
H8_91 C8_91 1_555 1_555
Ag3_40 N7_91 1_555 1_555
N15_91 Ag1_91 1_555 1_555
N3_91 N4_91 1_555 1_555
N11_91 C4_91 1_555 1_555
N12_91 C8_91 1_555 1_555
N13_5 N6_52 1_555 1_555
N6_52 C6_91 1_555 1_555
C5_91 N13_5 1_555 1_555
H5_91 C5_91 1_555 1_555
H6_91 C6_91 1_555 1_555
Ag6_26 N6_52 1_555 1_555
Ag1_92 N2_92 1_555 1_555
Ag5_7 N1_92 1_555 1_555
N1_92 N2_92 1_555 1_555
N2_92 C3_92 1_555 1_555
N3_92 Ag5_7 1_555 1_555
N4_92 Ag1_92 1_555 1_555
N13_39 N14_39 1_555 1_555
N14_39 C6_92 1_555 1_555
N7_92 N8_92 1_555 1_555
N8_92 C7_92 1_555 1_555
N9_86 N10_86 1_555 1_555
N10_86 C5_92 1_555 1_555
N11_92 N12_92 1_555 1_555
N12_92 C7_92 1_555 1_555
C1_86 N4_92 1_555 1_555
H1_92 C1_86 1_555 1_555
C2_86 N3_92 1_555 1_555
H2_86 C2_86 1_555 1_555
C3_92 N11_92 1_555 1_555
H3_92 C3_92 1_555 1_555
C4_92 N1_92 1_555 1_555
H4_92 C4_92 1_555 1_555
C5_92 N13_39 1_555 1_555
H5_92 C5_92 1_555 1_555
C6_92 N10_86 1_555 1_555
H6_92 C6_92 1_555 1_555
C7_92 H7_92 1_555 1_555
C8_92 N7_92 1_555 1_555
H8_92 C8_92 1_555 1_555
Ag4_11 N8_92 1_555 1_555
Ag3_11 N7_92 1_555 1_555
N15_92 Ag1_92 1_555 1_555
N16_92 Ag1_92 1_555 1_555
N3_92 N4_92 1_555 1_555
N9_86 C1_86 1_555 1_555
N9_86 C2_86 1_555 1_555
N11_92 C4_92 1_555 1_555
N12_92 C8_92 1_555 1_555
Ag1_93 N2_93 1_555 1_555
Ag6_26 N1_93 1_555 1_555
N1_93 N2_93 1_555 1_555
N2_93 C3_93 1_555 1_555
N3_93 Ag6_26 1_555 1_555
N4_93 Ag1_93 1_555 1_555
N7_93 N8_93 1_555 1_555
N8_93 C7_93 1_555 1_555
N11_93 N12_93 1_555 1_555
N12_93 C7_93 1_555 1_555
C3_93 N11_93 1_555 1_555
H3_93 C3_93 1_555 1_555
C4_93 N1_93 1_555 1_555
H4_93 C4_93 1_555 1_555
C7_93 H7_93 1_555 1_555
C8_93 N7_93 1_555 1_555
H8_93 C8_93 1_555 1_555
Ag4_6 N8_93 1_555 1_555
Ag3_6 N7_93 1_555 1_555
N15_93 Ag1_93 1_555 1_555
N16_93 Ag1_93 1_555 1_555
N3_93 N4_93 1_555 1_555
N11_93 C4_93 1_555 1_555
N12_93 C8_93 1_555 1_555
N13_47 N14_22 1_555 1_555
N14_22 C6_93 1_555 1_555
N9_87 N10_87 1_555 1_555
N10_87 C5_93 1_555 1_555
H1_93 C1_87 1_555 1_555
H2_87 C2_87 1_555 1_555
C5_93 N13_47 1_555 1_555
H5_93 C5_93 1_555 1_555
C6_93 N10_87 1_555 1_555
H6_93 C6_93 1_555 1_555
N9_87 C1_87 1_555 1_555
N9_87 C2_87 1_555 1_555
Ag1_94 N2_94 1_555 1_555
Ag6_18 N1_94 1_555 1_555
N1_94 N2_94 1_555 1_555
N2_94 C3_94 1_555 1_555
N3_94 Ag6_18 1_555 1_555
N4_94 Ag1_94 1_555 1_555
N13_48 N14_9 1_555 1_555
N14_9 C6_94 1_555 1_555
N7_94 N8_94 1_555 1_555
N8_94 C7_94 1_555 1_555
N9_88 N10_88 1_555 1_555
N10_88 C5_94 1_555 1_555
N11_94 N12_94 1_555 1_555
N12_94 C7_94 1_555 1_555
C1_88 N4_94 1_555 1_555
H1_94 C1_88 1_555 1_555
C2_88 N3_94 1_555 1_555
H2_88 C2_88 1_555 1_555
C3_94 N11_94 1_555 1_555
H3_94 C3_94 1_555 1_555
C4_94 N1_94 1_555 1_555
H4_94 C4_94 1_555 1_555
C5_94 N13_48 1_555 1_555
H5_94 C5_94 1_555 1_555
C6_94 N10_88 1_555 1_555
H6_94 C6_94 1_555 1_555
C7_94 H7_94 1_555 1_555
C8_94 N7_94 1_555 1_555
H8_94 C8_94 1_555 1_555
Ag4 N8_94 1_555 1_555
Ag3 N7_94 1_555 1_555
N15_94 Ag1_94 1_555 1_555
N16_94 Ag1_94 1_555 1_555
N3_94 N4_94 1_555 1_555
N9_88 C1_88 1_555 1_555
N9_88 C2_88 1_555 1_555
N11_94 C4_94 1_555 1_555
N12_94 C8_94 1_555 1_555
Ag1_95 N2_95 1_555 1_555
Ag5_22 N1_95 1_555 1_555
N1_95 N2_95 1_555 1_555
N2_95 C3_95 1_555 1_555
N3_95 Ag5_22 1_555 1_555
N4_95 Ag1_95 1_555 1_555
N13_20 N14_24 1_555 1_555
N14_24 C6_95 1_555 1_555
N7_95 N8_95 1_555 1_555
N8_95 C7_95 1_555 1_555
N9_89 N10_89 1_555 1_555
N10_89 C5_95 1_555 1_555
N11_95 N12_95 1_555 1_555
N12_95 C7_95 1_555 1_555
C1_89 N4_95 1_555 1_555
H1_95 C1_89 1_555 1_555
C2_89 N3_95 1_555 1_555
H2_89 C2_89 1_555 1_555
C3_95 N11_95 1_555 1_555
H3_95 C3_95 1_555 1_555
C4_95 N1_95 1_555 1_555
H4_95 C4_95 1_555 1_555
C5_95 N13_20 1_555 1_555
H5_95 C5_95 1_555 1_555
C6_95 N10_89 1_555 1_555
H6_95 C6_95 1_555 1_555
C7_95 H7_95 1_555 1_555
C8_95 N7_95 1_555 1_555
H8_95 C8_95 1_555 1_555
Ag4_15 N8_95 1_555 1_555
Ag3_15 N7_95 1_555 1_555
N15_95 Ag1_95 1_555 1_555
N16_95 Ag1_95 1_555 1_555
N3_95 N4_95 1_555 1_555
N9_89 C1_89 1_555 1_555
N9_89 C2_89 1_555 1_555
N11_95 C4_95 1_555 1_555
N12_95 C8_95 1_555 1_555
Ag1_96 N2_96 1_555 1_555
Ag5_15 N1_96 1_555 1_555
N1_96 N2_96 1_555 1_555
N2_96 C3_96 1_555 1_555
N3_96 Ag5_15 1_555 1_555
N4_96 Ag1_96 1_555 1_555
N13_4 N14_18 1_555 1_555
N14_18 C6_96 1_555 1_555
N7_96 N8_96 1_555 1_555
N8_96 C7_96 1_555 1_555
N9_90 N10_90 1_555 1_555
N10_90 C5_96 1_555 1_555
N11_96 N12_96 1_555 1_555
N12_96 C7_96 1_555 1_555
C1_90 N4_96 1_555 1_555
H1_96 C1_90 1_555 1_555
C2_90 N3_96 1_555 1_555
H2_90 C2_90 1_555 1_555
C3_96 N11_96 1_555 1_555
H3_96 C3_96 1_555 1_555
C4_96 N1_96 1_555 1_555
H4_96 C4_96 1_555 1_555
C5_96 N13_4 1_555 1_555
H5_96 C5_96 1_555 1_555
C6_96 N10_90 1_555 1_555
H6_96 C6_96 1_555 1_555
C7_96 H7_96 1_555 1_555
C8_96 N7_96 1_555 1_555
H8_96 C8_96 1_555 1_555
Ag4_12 N8_96 1_555 1_555
Ag3_12 N7_96 1_555 1_555
N15_96 Ag1_96 1_555 1_555
N16_96 Ag1_96 1_555 1_555
N3_96 N4_96 1_555 1_555
N9_90 C1_90 1_555 1_555
N9_90 C2_90 1_555 1_555
N11_96 C4_96 1_555 1_555
N12_96 C8_96 1_555 1_555
N5_49 N6_53 1_555 1_555
N6_53 C6_97 1_555 1_555
C5_97 N5_49 1_555 1_555
H5_97 C5_97 1_555 1_555
H6_97 C6_97 1_555 1_555
Ag5_31 N6_53 1_555 1_555
Ag6_29 N5_49 1_555 1_555
Ag3_42 N2_97 1_555 1_555
Ag2_39 N1_97 1_555 1_555
N1_97 N2_97 1_555 1_555
N2_97 C3_97 1_555 1_555
N3_97 Ag2_39 1_555 1_555
N4_97 Ag3_42 1_555 1_555
N15_32 N16_17 1_555 1_555
N16_17 C7_97 1_555 1_555
N9_91 N10_91 1_555 1_555
N11_97 N12_97 1_555 1_555
N12_97 C7_97 1_555 1_555
C1_91 N4_97 1_555 1_555
C2_91 N3_97 1_555 1_555
H2_91 C2_91 1_555 1_555
C3_97 N11_97 1_555 1_555
H3_97 C3_97 1_555 1_555
C4_97 N1_97 1_555 1_555
H4_97 C4_97 1_555 1_555
C7_97 H7_97 1_555 1_555
C8_97 N15_32 1_555 1_555
H8_97 C8_97 1_555 1_555
N13_49 Ag2_39 1_555 1_555
N14_45 Ag2_39 1_555 1_555
N3_97 N4_97 1_555 1_555
N9_91 C1_91 1_555 1_555
N9_91 C2_91 1_555 1_555
N11_97 C4_97 1_555 1_555
N12_97 C8_97 1_555 1_555
Ag3_8 N2_98 1_555 1_555
Ag2_40 N1_98 1_555 1_555
N1_98 N2_98 1_555 1_555
N2_98 C3_98 1_555 1_555
N3_98 Ag2_40 1_555 1_555
N4_98 Ag3_8 1_555 1_555
N5_50 N6_54 1_555 1_555
N6_54 C6_98 1_555 1_555
N15_63 N16_22 1_555 1_555
N16_22 C7_98 1_555 1_555
N9_92 N10_92 1_555 1_555
N10_92 C5_98 1_555 1_555
N11_98 N12_98 1_555 1_555
N12_98 C7_98 1_555 1_555
C1_92 N4_98 1_555 1_555
H1_98 C1_92 1_555 1_555
C2_92 N3_98 1_555 1_555
H2_92 C2_92 1_555 1_555
C3_98 N11_98 1_555 1_555
H3_98 C3_98 1_555 1_555
C4_98 N1_98 1_555 1_555
H4_98 C4_98 1_555 1_555
C5_98 N5_50 1_555 1_555
H5_98 C5_98 1_555 1_555
C6_98 N10_92 1_555 1_555
H6_98 C6_98 1_555 1_555
C7_98 H7_98 1_555 1_555
C8_98 N15_63 1_555 1_555
H8_98 C8_98 1_555 1_555
Ag5_32 N6_54 1_555 1_555
Ag6_30 N5_50 1_555 1_555
N13_50 Ag2_40 1_555 1_555
N14_46 Ag2_40 1_555 1_555
N3_98 N4_98 1_555 1_555
N9_92 C1_92 1_555 1_555
N9_92 C2_92 1_555 1_555
N11_98 C4_98 1_555 1_555
N12_98 C8_98 1_555 1_555
Ag4_47 N2_99 1_555 1_555
Ag2_41 N1_99 1_555 1_555
N1_99 N2_99 1_555 1_555
N2_99 C3_99 1_555 1_555
N3_99 Ag2_41 1_555 1_555
N4_99 Ag4_47 1_555 1_555
N15_96 N16_86 1_555 1_555
N16_86 C7_99 1_555 1_555
N11_99 N12_99 1_555 1_555
N12_99 C7_99 1_555 1_555
C3_99 N11_99 1_555 1_555
H3_99 C3_99 1_555 1_555
C4_99 N1_99 1_555 1_555
H4_99 C4_99 1_555 1_555
C7_99 H7_99 1_555 1_555
C8_99 N15_96 1_555 1_555
H8_99 C8_99 1_555 1_555
N13_51 Ag2_41 1_555 1_555
N14_47 Ag2_41 1_555 1_555
N3_99 N4_99 1_555 1_555
N11_99 C4_99 1_555 1_555
N12_99 C8_99 1_555 1_555
N5_51 N6_55 1_555 1_555
N6_55 C6_99 1_555 1_555
C5_99 N5_51 1_555 1_555
H5_99 C5_99 1_555 1_555
H6_99 C6_99 1_555 1_555
Ag6_29 N6_55 1_555 1_555
Ag5_31 N5_51 1_555 1_555
Ag4_36 N2_100 1_555 1_555
Ag2_42 N1_100 1_555 1_555
N1_100 N2_100 1_555 1_555
N2_100 C3_100 1_555 1_555
N3_100 Ag2_42 1_555 1_555
N4_100 Ag4_36 1_555 1_555
N5_52 N6_56 1_555 1_555
N6_56 C6_100 1_555 1_555
N15_42 N16_55 1_555 1_555
N16_55 C7_100 1_555 1_555
N9_93 N10_93 1_555 1_555
N10_93 C5_100 1_555 1_555
N11_100 N12_100 1_555 1_555
N12_100 C7_100 1_555 1_555
C1_93 N4_100 1_555 1_555
H1_100 C1_93 1_555 1_555
C2_93 N3_100 1_555 1_555
H2_93 C2_93 1_555 1_555
C3_100 N11_100 1_555 1_555
H3_100 C3_100 1_555 1_555
C4_100 N1_100 1_555 1_555
H4_100 C4_100 1_555 1_555
C5_100 N5_52 1_555 1_555
H5_100 C5_100 1_555 1_555
C6_100 N10_93 1_555 1_555
H6_100 C6_100 1_555 1_555
C7_100 H7_100 1_555 1_555
C8_100 N15_42 1_555 1_555
H8_100 C8_100 1_555 1_555
Ag5_33 N6_56 1_555 1_555
Ag6_31 N5_52 1_555 1_555
N13_52 Ag2_42 1_555 1_555
N14_48 Ag2_42 1_555 1_555
N3_100 N4_100 1_555 1_555
N9_93 C1_93 1_555 1_555
N9_93 C2_93 1_555 1_555
N11_100 C4_100 1_555 1_555
N12_100 C8_100 1_555 1_555
Ag4_40 N2_101 1_555 1_555
Ag2_43 N1_101 1_555 1_555
N1_101 N2_101 1_555 1_555
N2_101 C3_101 1_555 1_555
N3_101 Ag2_43 1_555 1_555
N4_101 Ag4_40 1_555 1_555
N15_35 N16_34 1_555 1_555
N16_34 C7_101 1_555 1_555
N11_101 N12_101 1_555 1_555
N12_101 C7_101 1_555 1_555
C3_101 N11_101 1_555 1_555
H3_101 C3_101 1_555 1_555
C4_101 N1_101 1_555 1_555
H4_101 C4_101 1_555 1_555
C7_101 H7_101 1_555 1_555
C8_101 N15_35 1_555 1_555
H8_101 C8_101 1_555 1_555
N13_53 Ag2_43 1_555 1_555
N14_49 Ag2_43 1_555 1_555
N3_101 N4_101 1_555 1_555
N11_101 C4_101 1_555 1_555
N12_101 C8_101 1_555 1_555
N5_53 N6_57 1_555 1_555
N6_57 C6_101 1_555 1_555
C5_101 N5_53 1_555 1_555
H5_101 C5_101 1_555 1_555
H6_101 C6_101 1_555 1_555
Ag5_34 N6_57 1_555 1_555
Ag6_32 N5_53 1_555 1_555
Ag3_12 N2_102 1_555 1_555
Ag2_44 N1_102 1_555 1_555
N1_102 N2_102 1_555 1_555
N2_102 C3_102 1_555 1_555
N3_102 Ag2_44 1_555 1_555
N4_102 Ag3_12 1_555 1_555
N15_47 N16_40 1_555 1_555
N16_40 C7_102 1_555 1_555
N11_102 N12_102 1_555 1_555
N12_102 C7_102 1_555 1_555
C3_102 N11_102 1_555 1_555
H3_102 C3_102 1_555 1_555
C4_102 N1_102 1_555 1_555
H4_102 C4_102 1_555 1_555
C7_102 H7_102 1_555 1_555
C8_102 N15_47 1_555 1_555
H8_102 C8_102 1_555 1_555
N13_54 Ag2_44 1_555 1_555
N14_50 Ag2_44 1_555 1_555
N3_102 N4_102 1_555 1_555
N11_102 C4_102 1_555 1_555
N12_102 C8_102 1_555 1_555
N5_54 N6_58 1_555 1_555
N6_58 C6_102 1_555 1_555
N9_94 N10_94 1_555 1_555
N10_94 C5_102 1_555 1_555
H1_102 C1_94 1_555 1_555
H2_94 C2_94 1_555 1_555
C5_102 N5_54 1_555 1_555
H5_102 C5_102 1_555 1_555
C6_102 N10_94 1_555 1_555
H6_102 C6_102 1_555 1_555
Ag5_35 N6_58 1_555 1_555
Ag6_33 N5_54 1_555 1_555
N9_94 C1_94 1_555 1_555
N9_94 C2_94 1_555 1_555
Ag4_41 N2_103 1_555 1_555
Ag5_32 N1_103 1_555 1_555
N1_103 N2_103 1_555 1_555
N2_103 C3_103 1_555 1_555
N3_103 Ag5_32 1_555 1_555
N4_103 Ag4_41 1_555 1_555
N5_55 N6_59 1_555 1_555
N6_59 C6_103 1_555 1_555
N15_38 N16_48 1_555 1_555
N16_48 C7_103 1_555 1_555
N9_95 N10_95 1_555 1_555
N10_95 C5_103 1_555 1_555
N11_103 N12_103 1_555 1_555
N12_103 C7_103 1_555 1_555
C1_95 N4_103 1_555 1_555
H1_103 C1_95 1_555 1_555
C2_95 N3_103 1_555 1_555
H2_95 C2_95 1_555 1_555
C3_103 N11_103 1_555 1_555
H3_103 C3_103 1_555 1_555
C4_103 N1_103 1_555 1_555
H4_103 C4_103 1_555 1_555
C5_103 N5_55 1_555 1_555
H5_103 C5_103 1_555 1_555
C6_103 N10_95 1_555 1_555
H6_103 C6_103 1_555 1_555
C7_103 H7_103 1_555 1_555
C8_103 N15_38 1_555 1_555
H8_103 C8_103 1_555 1_555
Ag5_36 N6_59 1_555 1_555
Ag6_34 N5_55 1_555 1_555
N13_55 Ag5_32 1_555 1_555
N3_103 N4_103 1_555 1_555
N9_95 C1_95 1_555 1_555
N9_95 C2_95 1_555 1_555
N11_103 C4_103 1_555 1_555
N12_103 C8_103 1_555 1_555
N5_56 N6_60 1_555 1_555
N6_60 C6_104 1_555 1_555
N9_96 N10_96 1_555 1_555
N10_96 C5_104 1_555 1_555
H1_104 C1_96 1_555 1_555
H2_96 C2_96 1_555 1_555
C5_104 N5_56 1_555 1_555
H5_104 C5_104 1_555 1_555
C6_104 N10_96 1_555 1_555
H6_104 C6_104 1_555 1_555
Ag5_37 N6_60 1_555 1_555
Ag6_35 N5_56 1_555 1_555
N9_96 C1_96 1_555 1_555
N9_96 C2_96 1_555 1_555
Ag4_25 N2_104 1_555 1_555
Ag2_45 N1_104 1_555 1_555
N1_104 N2_104 1_555 1_555
N2_104 C3_104 1_555 1_555
N3_104 Ag2_45 1_555 1_555
N4_104 Ag4_25 1_555 1_555
N15_33 N16_2 1_555 1_555
N16_2 C7_104 1_555 1_555
N11_104 N12_104 1_555 1_555
N12_104 C7_104 1_555 1_555
C3_104 N11_104 1_555 1_555
H3_104 C3_104 1_555 1_555
C4_104 N1_104 1_555 1_555
H4_104 C4_104 1_555 1_555
C7_104 H7_104 1_555 1_555
C8_104 N15_33 1_555 1_555
H8_104 C8_104 1_555 1_555
N13_56 Ag2_45 1_555 1_555
N14_51 Ag2_45 1_555 1_555
N3_104 N4_104 1_555 1_555
N11_104 C4_104 1_555 1_555
N12_104 C8_104 1_555 1_555
Ag4_32 N2_105 1_555 1_555
Ag2_46 N1_105 1_555 1_555
N1_105 N2_105 1_555 1_555
N2_105 C3_105 1_555 1_555
N3_105 Ag2_46 1_555 1_555
N4_105 Ag4_32 1_555 1_555
N5_57 N6_61 1_555 1_555
N6_61 C6_105 1_555 1_555
N15_58 N16_59 1_555 1_555
N16_59 C7_105 1_555 1_555
N9_97 N10_97 1_555 1_555
N10_97 C5_105 1_555 1_555
N11_105 N12_105 1_555 1_555
N12_105 C7_105 1_555 1_555
C1_97 N4_105 1_555 1_555
H1_105 C1_97 1_555 1_555
C2_97 N3_105 1_555 1_555
H2_97 C2_97 1_555 1_555
C3_105 N11_105 1_555 1_555
H3_105 C3_105 1_555 1_555
C4_105 N1_105 1_555 1_555
H4_105 C4_105 1_555 1_555
C5_105 N5_57 1_555 1_555
H5_105 C5_105 1_555 1_555
C6_105 N10_97 1_555 1_555
H6_105 C6_105 1_555 1_555
C7_105 H7_105 1_555 1_555
C8_105 N15_58 1_555 1_555
H8_105 C8_105 1_555 1_555
Ag6_33 N6_61 1_555 1_555
Ag5_35 N5_57 1_555 1_555
N13_57 Ag2_46 1_555 1_555
N14_52 Ag2_46 1_555 1_555
N3_105 N4_105 1_555 1_555
N9_97 C1_97 1_555 1_555
N9_97 C2_97 1_555 1_555
N11_105 C4_105 1_555 1_555
N12_105 C8_105 1_555 1_555
Ag3_29 N2_106 1_555 1_555
Ag2_47 N1_106 1_555 1_555
N1_106 N2_106 1_555 1_555
N2_106 C3_106 1_555 1_555
N3_106 Ag2_47 1_555 1_555
N4_106 Ag3_29 1_555 1_555
N15_49 N16_67 1_555 1_555
N16_67 C7_106 1_555 1_555
N9_98 N10_98 1_555 1_555
N11_106 N12_106 1_555 1_555
N12_106 C7_106 1_555 1_555
C1_98 N4_106 1_555 1_555
C2_98 N3_106 1_555 1_555
H2_98 C2_98 1_555 1_555
C3_106 N11_106 1_555 1_555
H3_106 C3_106 1_555 1_555
C4_106 N1_106 1_555 1_555
H4_106 C4_106 1_555 1_555
C7_106 H7_106 1_555 1_555
C8_106 N15_49 1_555 1_555
H8_106 C8_106 1_555 1_555
N13_58 Ag2_47 1_555 1_555
N14_53 Ag2_47 1_555 1_555
N3_106 N4_106 1_555 1_555
N9_98 C1_98 1_555 1_555
N9_98 C2_98 1_555 1_555
N11_106 C4_106 1_555 1_555
N12_106 C8_106 1_555 1_555
N5_58 N6_62 1_555 1_555
N6_62 C6_106 1_555 1_555
C5_106 N5_58 1_555 1_555
H5_106 C5_106 1_555 1_555
H6_106 C6_106 1_555 1_555
Ag5_38 N6_62 1_555 1_555
Ag6_36 N5_58 1_555 1_555
N5_59 N6_63 1_555 1_555
N6_63 C6_107 1_555 1_555
C5_107 N5_59 1_555 1_555
H5_107 C5_107 1_555 1_555
H6_107 C6_107 1_555 1_555
Ag5_39 N6_63 1_555 1_555
Ag6_37 N5_59 1_555 1_555
Ag4_29 N2_107 1_555 1_555
Ag2_48 N1_107 1_555 1_555
N1_107 N2_107 1_555 1_555
N2_107 C3_107 1_555 1_555
N3_107 Ag2_48 1_555 1_555
N4_107 Ag4_29 1_555 1_555
N15_69 N16_13 1_555 1_555
N16_13 C7_107 1_555 1_555
N9_99 N10_99 1_555 1_555
N11_107 N12_107 1_555 1_555
N12_107 C7_107 1_555 1_555
C1_99 N4_107 1_555 1_555
C2_99 N3_107 1_555 1_555
H2_99 C2_99 1_555 1_555
C3_107 N11_107 1_555 1_555
H3_107 C3_107 1_555 1_555
C4_107 N1_107 1_555 1_555
H4_107 C4_107 1_555 1_555
C7_107 H7_107 1_555 1_555
C8_107 N15_69 1_555 1_555
H8_107 C8_107 1_555 1_555
N13_59 Ag2_48 1_555 1_555
N14_54 Ag2_48 1_555 1_555
N3_107 N4_107 1_555 1_555
N9_99 C1_99 1_555 1_555
N9_99 C2_99 1_555 1_555
N11_107 C4_107 1_555 1_555
N12_107 C8_107 1_555 1_555
N5_60 N6_64 1_555 1_555
N6_64 C6_108 1_555 1_555
C5_108 N5_60 1_555 1_555
H5_108 C5_108 1_555 1_555
H6_108 C6_108 1_555 1_555
Ag5_40 N6_64 1_555 1_555
Ag6_38 N5_60 1_555 1_555
Ag4_43 N2_108 1_555 1_555
Ag2_49 N1_108 1_555 1_555
N1_108 N2_108 1_555 1_555
N2_108 C3_108 1_555 1_555
N3_108 Ag2_49 1_555 1_555
N4_108 Ag4_43 1_555 1_555
N15_28 N16_6 1_555 1_555
N16_6 C7_108 1_555 1_555
N9_100 N10_100 1_555 1_555
N11_108 N12_108 1_555 1_555
N12_108 C7_108 1_555 1_555
C1_100 N4_108 1_555 1_555
C2_100 N3_108 1_555 1_555
H2_100 C2_100 1_555 1_555
C3_108 N11_108 1_555 1_555
H3_108 C3_108 1_555 1_555
C4_108 N1_108 1_555 1_555
H4_108 C4_108 1_555 1_555
C7_108 H7_108 1_555 1_555
C8_108 N15_28 1_555 1_555
H8_108 C8_108 1_555 1_555
N13_60 Ag2_49 1_555 1_555
N14_55 Ag2_49 1_555 1_555
N3_108 N4_108 1_555 1_555
N9_100 C1_100 1_555 1_555
N9_100 C2_100 1_555 1_555
N11_108 C4_108 1_555 1_555
N12_108 C8_108 1_555 1_555
Ag3_11 N2_109 1_555 1_555
Ag2_50 N1_109 1_555 1_555
N1_109 N2_109 1_555 1_555
N2_109 C3_109 1_555 1_555
N3_109 Ag2_50 1_555 1_555
N4_109 Ag3_11 1_555 1_555
N15_50 N16_81 1_555 1_555
N16_81 C7_109 1_555 1_555
N11_109 N12_109 1_555 1_555
N12_109 C7_109 1_555 1_555
C3_109 N11_109 1_555 1_555
H3_109 C3_109 1_555 1_555
C4_109 N1_109 1_555 1_555
H4_109 C4_109 1_555 1_555
C7_109 H7_109 1_555 1_555
C8_109 N15_50 1_555 1_555
H8_109 C8_109 1_555 1_555
N13_61 Ag2_50 1_555 1_555
N14_56 Ag2_50 1_555 1_555
N3_109 N4_109 1_555 1_555
N11_109 C4_109 1_555 1_555
N12_109 C8_109 1_555 1_555
N5_61 N6_65 1_555 1_555
N6_65 C6_109 1_555 1_555
N9_101 N10_101 1_555 1_555
N10_101 C5_109 1_555 1_555
H1_109 C1_101 1_555 1_555
H2_101 C2_101 1_555 1_555
C5_109 N5_61 1_555 1_555
H5_109 C5_109 1_555 1_555
C6_109 N10_101 1_555 1_555
H6_109 C6_109 1_555 1_555
Ag5_41 N6_65 1_555 1_555
Ag6_39 N5_61 1_555 1_555
N9_101 C1_101 1_555 1_555
N9_101 C2_101 1_555 1_555
N5_62 N6_66 1_555 1_555
N6_66 C6_110 1_555 1_555
C5_110 N5_62 1_555 1_555
H5_110 C5_110 1_555 1_555
H6_110 C6_110 1_555 1_555
Ag6_37 N6_66 1_555 1_555
Ag5_39 N5_62 1_555 1_555
Ag4_31 N2_110 1_555 1_555
Ag2_51 N1_110 1_555 1_555
N1_110 N2_110 1_555 1_555
N2_110 C3_110 1_555 1_555
N3_110 Ag2_51 1_555 1_555
N4_110 Ag4_31 1_555 1_555
N15_94 N16_39 1_555 1_555
N16_39 C7_110 1_555 1_555
N11_110 N12_110 1_555 1_555
N12_110 C7_110 1_555 1_555
C3_110 N11_110 1_555 1_555
H3_110 C3_110 1_555 1_555
C4_110 N1_110 1_555 1_555
H4_110 C4_110 1_555 1_555
C7_110 H7_110 1_555 1_555
C8_110 N15_94 1_555 1_555
H8_110 C8_110 1_555 1_555
N13_62 Ag2_51 1_555 1_555
N14_57 Ag2_51 1_555 1_555
N3_110 N4_110 1_555 1_555
N11_110 C4_110 1_555 1_555
N12_110 C8_110 1_555 1_555
Ag3_38 N2_111 1_555 1_555
Ag2_52 N1_111 1_555 1_555
N1_111 N2_111 1_555 1_555
N2_111 C3_111 1_555 1_555
N3_111 Ag2_52 1_555 1_555
N4_111 Ag3_38 1_555 1_555
N15_92 N16_51 1_555 1_555
N16_51 C7_111 1_555 1_555
N11_111 N12_111 1_555 1_555
N12_111 C7_111 1_555 1_555
C3_111 N11_111 1_555 1_555
H3_111 C3_111 1_555 1_555
C4_111 N1_111 1_555 1_555
H4_111 C4_111 1_555 1_555
C7_111 H7_111 1_555 1_555
C8_111 N15_92 1_555 1_555
H8_111 C8_111 1_555 1_555
N13_63 Ag2_52 1_555 1_555
N14_58 Ag2_52 1_555 1_555
N3_111 N4_111 1_555 1_555
N11_111 C4_111 1_555 1_555
N12_111 C8_111 1_555 1_555
N5_63 N6_67 1_555 1_555
N6_67 C6_111 1_555 1_555
C5_111 N5_63 1_555 1_555
H5_111 C5_111 1_555 1_555
H6_111 C6_111 1_555 1_555
Ag6_38 N6_67 1_555 1_555
Ag5_40 N5_63 1_555 1_555
Ag3_30 N2_112 1_555 1_555
Ag2_53 N1_112 1_555 1_555
N1_112 N2_112 1_555 1_555
N2_112 C3_112 1_555 1_555
N3_112 Ag2_53 1_555 1_555
N4_112 Ag3_30 1_555 1_555
N5_64 N6_68 1_555 1_555
N6_68 C6_112 1_555 1_555
N15_29 N16_84 1_555 1_555
N16_84 C7_112 1_555 1_555
N9_102 N10_102 1_555 1_555
N10_102 C5_112 1_555 1_555
N11_112 N12_112 1_555 1_555
N12_112 C7_112 1_555 1_555
C1_102 N4_112 1_555 1_555
H1_112 C1_102 1_555 1_555
C2_102 N3_112 1_555 1_555
H2_102 C2_102 1_555 1_555
C3_112 N11_112 1_555 1_555
H3_112 C3_112 1_555 1_555
C4_112 N1_112 1_555 1_555
H4_112 C4_112 1_555 1_555
C5_112 N5_64 1_555 1_555
H5_112 C5_112 1_555 1_555
C6_112 N10_102 1_555 1_555
H6_112 C6_112 1_555 1_555
C7_112 H7_112 1_555 1_555
C8_112 N15_29 1_555 1_555
H8_112 C8_112 1_555 1_555
Ag5_42 N6_68 1_555 1_555
Ag6_40 N5_64 1_555 1_555
N13_64 Ag2_53 1_555 1_555
N14_59 Ag2_53 1_555 1_555
N3_112 N4_112 1_555 1_555
N9_102 C1_102 1_555 1_555
N9_102 C2_102 1_555 1_555
N11_112 C4_112 1_555 1_555
N12_112 C8_112 1_555 1_555
Ag3 N2_113 1_555 1_555
Ag2_54 N1_113 1_555 1_555
N1_113 N2_113 1_555 1_555
N2_113 C3_113 1_555 1_555
N3_113 Ag2_54 1_555 1_555
N4_113 Ag3 1_555 1_555
N15_31 N16_66 1_555 1_555
N16_66 C7_113 1_555 1_555
N11_113 N12_113 1_555 1_555
N12_113 C7_113 1_555 1_555
C3_113 N11_113 1_555 1_555
H3_113 C3_113 1_555 1_555
C4_113 N1_113 1_555 1_555
H4_113 C4_113 1_555 1_555
C7_113 H7_113 1_555 1_555
C8_113 N15_31 1_555 1_555
H8_113 C8_113 1_555 1_555
N13_65 Ag2_54 1_555 1_555
N14_60 Ag2_54 1_555 1_555
N3_113 N4_113 1_555 1_555
N11_113 C4_113 1_555 1_555
N12_113 C8_113 1_555 1_555
N5_65 N6_69 1_555 1_555
N6_69 C6_113 1_555 1_555
N9_103 N10_103 1_555 1_555
N10_103 C5_113 1_555 1_555
H1_113 C1_103 1_555 1_555
H2_103 C2_103 1_555 1_555
C5_113 N5_65 1_555 1_555
H5_113 C5_113 1_555 1_555
C6_113 N10_103 1_555 1_555
H6_113 C6_113 1_555 1_555
Ag6_40 N6_69 1_555 1_555
Ag5_42 N5_65 1_555 1_555
N9_103 C1_103 1_555 1_555
N9_103 C2_103 1_555 1_555
Ag4_28 N2_114 1_555 1_555
Ag2_55 N1_114 1_555 1_555
N1_114 N2_114 1_555 1_555
N2_114 C3_114 1_555 1_555
N3_114 Ag2_55 1_555 1_555
N4_114 Ag4_28 1_555 1_555
N5_66 N6_70 1_555 1_555
N6_70 C6_114 1_555 1_555
N15_43 N16_25 1_555 1_555
N16_25 C7_114 1_555 1_555
N9_104 N10_104 1_555 1_555
N10_104 C5_114 1_555 1_555
N11_114 N12_114 1_555 1_555
N12_114 C7_114 1_555 1_555
C1_104 N4_114 1_555 1_555
H1_114 C1_104 1_555 1_555
C2_104 N3_114 1_555 1_555
H2_104 C2_104 1_555 1_555
C3_114 N11_114 1_555 1_555
H3_114 C3_114 1_555 1_555
C4_114 N1_114 1_555 1_555
H4_114 C4_114 1_555 1_555
C5_114 N5_66 1_555 1_555
H5_114 C5_114 1_555 1_555
C6_114 N10_104 1_555 1_555
H6_114 C6_114 1_555 1_555
C7_114 H7_114 1_555 1_555
C8_114 N15_43 1_555 1_555
H8_114 C8_114 1_555 1_555
Ag6_39 N6_70 1_555 1_555
Ag5_41 N5_66 1_555 1_555
N13_66 Ag2_55 1_555 1_555
N14_61 Ag2_55 1_555 1_555
N3_114 N4_114 1_555 1_555
N9_104 C1_104 1_555 1_555
N9_104 C2_104 1_555 1_555
N11_114 C4_114 1_555 1_555
N12_114 C8_114 1_555 1_555
Ag4_42 N2_115 1_555 1_555
Ag2_56 N1_115 1_555 1_555
N1_115 N2_115 1_555 1_555
N2_115 C3_115 1_555 1_555
N3_115 Ag2_56 1_555 1_555
N4_115 Ag4_42 1_555 1_555
N15_36 N16_77 1_555 1_555
N16_77 C7_115 1_555 1_555
N9_105 N10_105 1_555 1_555
N11_115 N12_115 1_555 1_555
N12_115 C7_115 1_555 1_555
C1_105 N4_115 1_555 1_555
C2_105 N3_115 1_555 1_555
H2_105 C2_105 1_555 1_555
C3_115 N11_115 1_555 1_555
H3_115 C3_115 1_555 1_555
C4_115 N1_115 1_555 1_555
H4_115 C4_115 1_555 1_555
C7_115 H7_115 1_555 1_555
C8_115 N15_36 1_555 1_555
H8_115 C8_115 1_555 1_555
N13_67 Ag2_56 1_555 1_555
N14_62 Ag2_56 1_555 1_555
N3_115 N4_115 1_555 1_555
N9_105 C1_105 1_555 1_555
N9_105 C2_105 1_555 1_555
N11_115 C4_115 1_555 1_555
N12_115 C8_115 1_555 1_555
N5_67 N6_71 1_555 1_555
N6_71 C6_115 1_555 1_555
C5_115 N5_67 1_555 1_555
H5_115 C5_115 1_555 1_555
H6_115 C6_115 1_555 1_555
Ag5_43 N6_71 1_555 1_555
Ag6_41 N5_67 1_555 1_555
Ag3_23 N2_116 1_555 1_555
Ag2_57 N1_116 1_555 1_555
N1_116 N2_116 1_555 1_555
N2_116 C3_116 1_555 1_555
N3_116 Ag2_57 1_555 1_555
N4_116 Ag3_23 1_555 1_555
N5_68 N6_72 1_555 1_555
N6_72 C6_116 1_555 1_555
N15_85 N16_45 1_555 1_555
N16_45 C7_116 1_555 1_555
N9_106 N10_106 1_555 1_555
N10_106 C5_116 1_555 1_555
N11_116 N12_116 1_555 1_555
N12_116 C7_116 1_555 1_555
C1_106 N4_116 1_555 1_555
H1_116 C1_106 1_555 1_555
C2_106 N3_116 1_555 1_555
H2_106 C2_106 1_555 1_555
C3_116 N11_116 1_555 1_555
H3_116 C3_116 1_555 1_555
C4_116 N1_116 1_555 1_555
H4_116 C4_116 1_555 1_555
C5_116 N5_68 1_555 1_555
H5_116 C5_116 1_555 1_555
C6_116 N10_106 1_555 1_555
H6_116 C6_116 1_555 1_555
C7_116 H7_116 1_555 1_555
C8_116 N15_85 1_555 1_555
H8_116 C8_116 1_555 1_555
Ag5_44 N6_72 1_555 1_555
Ag6_42 N5_68 1_555 1_555
N13_68 Ag2_57 1_555 1_555
N14_63 Ag2_57 1_555 1_555
N3_116 N4_116 1_555 1_555
N9_106 C1_106 1_555 1_555
N9_106 C2_106 1_555 1_555
N11_116 C4_116 1_555 1_555
N12_116 C8_116 1_555 1_555
N5_69 N6_73 1_555 1_555
N6_73 C6_117 1_555 1_555
N9_107 N10_107 1_555 1_555
N10_107 C5_117 1_555 1_555
H1_117 C1_107 1_555 1_555
H2_107 C2_107 1_555 1_555
C5_117 N5_69 1_555 1_555
H5_117 C5_117 1_555 1_555
C6_117 N10_107 1_555 1_555
H6_117 C6_117 1_555 1_555
Ag5_45 N6_73 1_555 1_555
Ag6_43 N5_69 1_555 1_555
N9_107 C1_107 1_555 1_555
N9_107 C2_107 1_555 1_555
Ag3_44 N2_117 1_555 1_555
Ag5_43 N1_117 1_555 1_555
N1_117 N2_117 1_555 1_555
N2_117 C3_117 1_555 1_555
N3_117 Ag5_43 1_555 1_555
N4_117 Ag3_44 1_555 1_555
N15_64 N16_71 1_555 1_555
N16_71 C7_117 1_555 1_555
N11_117 N12_117 1_555 1_555
N12_117 C7_117 1_555 1_555
C3_117 N11_117 1_555 1_555
H3_117 C3_117 1_555 1_555
C4_117 N1_117 1_555 1_555
H4_117 C4_117 1_555 1_555
C7_117 H7_117 1_555 1_555
C8_117 N15_64 1_555 1_555
H8_117 C8_117 1_555 1_555
N13_69 Ag5_43 1_555 1_555
N3_117 N4_117 1_555 1_555
N11_117 C4_117 1_555 1_555
N12_117 C8_117 1_555 1_555
Ag3_2 N2_118 1_555 1_555
Ag2_58 N1_118 1_555 1_555
N1_118 N2_118 1_555 1_555
N2_118 C3_118 1_555 1_555
N3_118 Ag2_58 1_555 1_555
N4_118 Ag3_2 1_555 1_555
N15_89 N16_56 1_555 1_555
N16_56 C7_118 1_555 1_555
N9_108 N10_108 1_555 1_555
N11_118 N12_118 1_555 1_555
N12_118 C7_118 1_555 1_555
C1_108 N4_118 1_555 1_555
C2_108 N3_118 1_555 1_555
H2_108 C2_108 1_555 1_555
C3_118 N11_118 1_555 1_555
H3_118 C3_118 1_555 1_555
C4_118 N1_118 1_555 1_555
H4_118 C4_118 1_555 1_555
C7_118 H7_118 1_555 1_555
C8_118 N15_89 1_555 1_555
H8_118 C8_118 1_555 1_555
N13_70 Ag2_58 1_555 1_555
N14_64 Ag2_58 1_555 1_555
N3_118 N4_118 1_555 1_555
N9_108 C1_108 1_555 1_555
N9_108 C2_108 1_555 1_555
N11_118 C4_118 1_555 1_555
N12_118 C8_118 1_555 1_555
N13_56 N6_74 1_555 1_555
N6_74 C6_118 1_555 1_555
C5_118 N13_56 1_555 1_555
H5_118 C5_118 1_555 1_555
H6_118 C6_118 1_555 1_555
Ag5_46 N6_74 1_555 1_555
Ag4_30 N2_119 1_555 1_555
Ag2_59 N1_119 1_555 1_555
N1_119 N2_119 1_555 1_555
N2_119 C3_119 1_555 1_555
N3_119 Ag2_59 1_555 1_555
N4_119 Ag4_30 1_555 1_555
N5_70 N6_75 1_555 1_555
N6_75 C6_119 1_555 1_555
N15_27 N16_20 1_555 1_555
N16_20 C7_119 1_555 1_555
N9_109 N10_109 1_555 1_555
N10_109 C5_119 1_555 1_555
N11_119 N12_119 1_555 1_555
N12_119 C7_119 1_555 1_555
C1_109 N4_119 1_555 1_555
H1_119 C1_109 1_555 1_555
C2_109 N3_119 1_555 1_555
H2_109 C2_109 1_555 1_555
C3_119 N11_119 1_555 1_555
H3_119 C3_119 1_555 1_555
C4_119 N1_119 1_555 1_555
H4_119 C4_119 1_555 1_555
C5_119 N5_70 1_555 1_555
H5_119 C5_119 1_555 1_555
C6_119 N10_109 1_555 1_555
H6_119 C6_119 1_555 1_555
C7_119 H7_119 1_555 1_555
C8_119 N15_27 1_555 1_555
H8_119 C8_119 1_555 1_555
Ag6_35 N6_75 1_555 1_555
Ag5_37 N5_70 1_555 1_555
N13_71 Ag2_59 1_555 1_555
N14_65 Ag2_59 1_555 1_555
N3_119 N4_119 1_555 1_555
N9_109 C1_109 1_555 1_555
N9_109 C2_109 1_555 1_555
N11_119 C4_119 1_555 1_555
N12_119 C8_119 1_555 1_555
Ag3_31 N2_120 1_555 1_555
Ag6_34 N1_120 1_555 1_555
N1_120 N2_120 1_555 1_555
N2_120 C3_120 1_555 1_555
N3_120 Ag6_34 1_555 1_555
N4_120 Ag3_31 1_555 1_555
N15_78 N16_52 1_555 1_555
N16_52 C7_120 1_555 1_555
N9_110 N10_110 1_555 1_555
N11_120 N12_120 1_555 1_555
N12_120 C7_120 1_555 1_555
C1_110 N4_120 1_555 1_555
C2_110 N3_120 1_555 1_555
H2_110 C2_110 1_555 1_555
C3_120 N11_120 1_555 1_555
H3_120 C3_120 1_555 1_555
C4_120 N1_120 1_555 1_555
H4_120 C4_120 1_555 1_555
C7_120 H7_120 1_555 1_555
C8_120 N15_78 1_555 1_555
H8_120 C8_120 1_555 1_555
N14_66 Ag6_34 1_555 1_555
N3_120 N4_120 1_555 1_555
N9_110 C1_110 1_555 1_555
N9_110 C2_110 1_555 1_555
N11_120 C4_120 1_555 1_555
N12_120 C8_120 1_555 1_555
N5_71 N6_76 1_555 1_555
N6_76 C6_120 1_555 1_555
C5_120 N5_71 1_555 1_555
H5_120 C5_120 1_555 1_555
H6_120 C6_120 1_555 1_555
Ag5_47 N6_76 1_555 1_555
Ag6_44 N5_71 1_555 1_555
Ag3_18 N2_121 1_555 1_555
Ag2_60 N1_121 1_555 1_555
N1_121 N2_121 1_555 1_555
N2_121 C3_121 1_555 1_555
N3_121 Ag2_60 1_555 1_555
N4_121 Ag3_18 1_555 1_555
N5_72 N6_77 1_555 1_555
N6_77 C6_121 1_555 1_555
N15_8 N16_41 1_555 1_555
N16_41 C7_121 1_555 1_555
N9_111 N10_111 1_555 1_555
N10_111 C5_121 1_555 1_555
N11_121 N12_121 1_555 1_555
N12_121 C7_121 1_555 1_555
C1_111 N4_121 1_555 1_555
H1_121 C1_111 1_555 1_555
C2_111 N3_121 1_555 1_555
H2_111 C2_111 1_555 1_555
C3_121 N11_121 1_555 1_555
H3_121 C3_121 1_555 1_555
C4_121 N1_121 1_555 1_555
H4_121 C4_121 1_555 1_555
C5_121 N5_72 1_555 1_555
H5_121 C5_121 1_555 1_555
C6_121 N10_111 1_555 1_555
H6_121 C6_121 1_555 1_555
C7_121 H7_121 1_555 1_555
C8_121 N15_8 1_555 1_555
H8_121 C8_121 1_555 1_555
Ag5_48 N6_77 1_555 1_555
Ag6_45 N5_72 1_555 1_555
N13_72 Ag2_60 1_555 1_555
N14_67 Ag2_60 1_555 1_555
N3_121 N4_121 1_555 1_555
N9_111 C1_111 1_555 1_555
N9_111 C2_111 1_555 1_555
N11_121 C4_121 1_555 1_555
N12_121 C8_121 1_555 1_555
Ag3_32 N2_122 1_555 1_555
Ag2_61 N1_122 1_555 1_555
N1_122 N2_122 1_555 1_555
N2_122 C3_122 1_555 1_555
N3_122 Ag2_61 1_555 1_555
N4_122 Ag3_32 1_555 1_555
N5_73 N6_78 1_555 1_555
N6_78 C6_122 1_555 1_555
N15_87 N16_46 1_555 1_555
N16_46 C7_122 1_555 1_555
N9_112 N10_112 1_555 1_555
N10_112 C5_122 1_555 1_555
N11_122 N12_122 1_555 1_555
N12_122 C7_122 1_555 1_555
C1_112 N4_122 1_555 1_555
H1_122 C1_112 1_555 1_555
C2_112 N3_122 1_555 1_555
H2_112 C2_112 1_555 1_555
C3_122 N11_122 1_555 1_555
H3_122 C3_122 1_555 1_555
C4_122 N1_122 1_555 1_555
H4_122 C4_122 1_555 1_555
C5_122 N5_73 1_555 1_555
H5_122 C5_122 1_555 1_555
C6_122 N10_112 1_555 1_555
H6_122 C6_122 1_555 1_555
C7_122 H7_122 1_555 1_555
C8_122 N15_87 1_555 1_555
H8_122 C8_122 1_555 1_555
Ag5_49 N6_78 1_555 1_555
Ag6_46 N5_73 1_555 1_555
N13_73 Ag2_61 1_555 1_555
N14_68 Ag2_61 1_555 1_555
N3_122 N4_122 1_555 1_555
N9_112 C1_112 1_555 1_555
N9_112 C2_112 1_555 1_555
N11_122 C4_122 1_555 1_555
N12_122 C8_122 1_555 1_555
Ag4_23 N2_123 1_555 1_555
Ag2_62 N1_123 1_555 1_555
N1_123 N2_123 1_555 1_555
N2_123 C3_123 1_555 1_555
N3_123 Ag2_62 1_555 1_555
N4_123 Ag4_23 1_555 1_555
N5_74 N6_79 1_555 1_555
N6_79 C6_123 1_555 1_555
N15_72 N16_62 1_555 1_555
N16_62 C7_123 1_555 1_555
N9_113 N10_113 1_555 1_555
N10_113 C5_123 1_555 1_555
N11_123 N12_123 1_555 1_555
N12_123 C7_123 1_555 1_555
C1_113 N4_123 1_555 1_555
H1_123 C1_113 1_555 1_555
C2_113 N3_123 1_555 1_555
H2_113 C2_113 1_555 1_555
C3_123 N11_123 1_555 1_555
H3_123 C3_123 1_555 1_555
C4_123 N1_123 1_555 1_555
H4_123 C4_123 1_555 1_555
C5_123 N5_74 1_555 1_555
H5_123 C5_123 1_555 1_555
C6_123 N10_113 1_555 1_555
H6_123 C6_123 1_555 1_555
C7_123 H7_123 1_555 1_555
C8_123 N15_72 1_555 1_555
H8_123 C8_123 1_555 1_555
Ag6_45 N6_79 1_555 1_555
Ag5_48 N5_74 1_555 1_555
N13_74 Ag2_62 1_555 1_555
N14_69 Ag2_62 1_555 1_555
N3_123 N4_123 1_555 1_555
N9_113 C1_113 1_555 1_555
N9_113 C2_113 1_555 1_555
N11_123 C4_123 1_555 1_555
N12_123 C8_123 1_555 1_555
Ag4_12 N2_124 1_555 1_555
Ag2_63 N1_124 1_555 1_555
N1_124 N2_124 1_555 1_555
N2_124 C3_124 1_555 1_555
N3_124 Ag2_63 1_555 1_555
N4_124 Ag4_12 1_555 1_555
N5_75 N14_64 1_555 1_555
N14_64 C6_124 1_555 1_555
N15_18 N16_79 1_555 1_555
N16_79 C7_124 1_555 1_555
N9_114 N10_114 1_555 1_555
N10_114 C5_124 1_555 1_555
N11_124 N12_124 1_555 1_555
N12_124 C7_124 1_555 1_555
C1_114 N4_124 1_555 1_555
H1_124 C1_114 1_555 1_555
C2_114 N3_124 1_555 1_555
H2_114 C2_114 1_555 1_555
C3_124 N11_124 1_555 1_555
H3_124 C3_124 1_555 1_555
C4_124 N1_124 1_555 1_555
H4_124 C4_124 1_555 1_555
C5_124 N5_75 1_555 1_555
H5_124 C5_124 1_555 1_555
C6_124 N10_114 1_555 1_555
H6_124 C6_124 1_555 1_555
C7_124 H7_124 1_555 1_555
C8_124 N15_18 1_555 1_555
H8_124 C8_124 1_555 1_555
Ag6_47 N5_75 1_555 1_555
N13_75 Ag2_63 1_555 1_555
N14_70 Ag2_63 1_555 1_555
N3_124 N4_124 1_555 1_555
N9_114 C1_114 1_555 1_555
N9_114 C2_114 1_555 1_555
N11_124 C4_124 1_555 1_555
N12_124 C8_124 1_555 1_555
Ag4_16 N2_125 1_555 1_555
Ag5_44 N1_125 1_555 1_555
N1_125 N2_125 1_555 1_555
N2_125 C3_125 1_555 1_555
N3_125 Ag5_44 1_555 1_555
N4_125 Ag4_16 1_555 1_555
N13_58 N6_80 1_555 1_555
N6_80 C6_125 1_555 1_555
N15_11 N16_10 1_555 1_555
N16_10 C7_125 1_555 1_555
N9_115 N10_115 1_555 1_555
N10_115 C5_125 1_555 1_555
N11_125 N12_125 1_555 1_555
N12_125 C7_125 1_555 1_555
C1_115 N4_125 1_555 1_555
H1_125 C1_115 1_555 1_555
C2_115 N3_125 1_555 1_555
H2_115 C2_115 1_555 1_555
C3_125 N11_125 1_555 1_555
H3_125 C3_125 1_555 1_555
C4_125 N1_125 1_555 1_555
H4_125 C4_125 1_555 1_555
C5_125 N13_58 1_555 1_555
H5_125 C5_125 1_555 1_555
C6_125 N10_115 1_555 1_555
H6_125 C6_125 1_555 1_555
C7_125 H7_125 1_555 1_555
C8_125 N15_11 1_555 1_555
H8_125 C8_125 1_555 1_555
Ag5_50 N6_80 1_555 1_555
N13_76 Ag5_44 1_555 1_555
N3_125 N4_125 1_555 1_555
N9_115 C1_115 1_555 1_555
N9_115 C2_115 1_555 1_555
N11_125 C4_125 1_555 1_555
N12_125 C8_125 1_555 1_555
Ag3_36 N2_126 1_555 1_555
Ag2_64 N1_126 1_555 1_555
N1_126 N2_126 1_555 1_555
N2_126 C3_126 1_555 1_555
N3_126 Ag2_64 1_555 1_555
N4_126 Ag3_36 1_555 1_555
N5_76 N6_81 1_555 1_555
N6_81 C6_126 1_555 1_555
N15_23 N16_16 1_555 1_555
N16_16 C7_126 1_555 1_555
N9_116 N10_116 1_555 1_555
N10_116 C5_126 1_555 1_555
N11_126 N12_126 1_555 1_555
N12_126 C7_126 1_555 1_555
C1_116 N4_126 1_555 1_555
H1_126 C1_116 1_555 1_555
C2_116 N3_126 1_555 1_555
H2_116 C2_116 1_555 1_555
C3_126 N11_126 1_555 1_555
H3_126 C3_126 1_555 1_555
C4_126 N1_126 1_555 1_555
H4_126 C4_126 1_555 1_555
C5_126 N5_76 1_555 1_555
H5_126 C5_126 1_555 1_555
C6_126 N10_116 1_555 1_555
H6_126 C6_126 1_555 1_555
C7_126 H7_126 1_555 1_555
C8_126 N15_23 1_555 1_555
H8_126 C8_126 1_555 1_555
Ag5_51 N6_81 1_555 1_555
Ag6_48 N5_76 1_555 1_555
N13_77 Ag2_64 1_555 1_555
N14_71 Ag2_64 1_555 1_555
N3_126 N4_126 1_555 1_555
N9_116 C1_116 1_555 1_555
N9_116 C2_116 1_555 1_555
N11_126 C4_126 1_555 1_555
N12_126 C8_126 1_555 1_555
Ag4_17 N2_127 1_555 1_555
Ag5_49 N1_127 1_555 1_555
N1_127 N2_127 1_555 1_555
N2_127 C3_127 1_555 1_555
N3_127 Ag5_49 1_555 1_555
N4_127 Ag4_17 1_555 1_555
N5_77 N6_82 1_555 1_555
N6_82 C6_127 1_555 1_555
N15_14 N16_24 1_555 1_555
N16_24 C7_127 1_555 1_555
N9_117 N10_117 1_555 1_555
N10_117 C5_127 1_555 1_555
N11_127 N12_127 1_555 1_555
N12_127 C7_127 1_555 1_555
C1_117 N4_127 1_555 1_555
H1_127 C1_117 1_555 1_555
C2_117 N3_127 1_555 1_555
H2_117 C2_117 1_555 1_555
C3_127 N11_127 1_555 1_555
H3_127 C3_127 1_555 1_555
C4_127 N1_127 1_555 1_555
H4_127 C4_127 1_555 1_555
C5_127 N5_77 1_555 1_555
H5_127 C5_127 1_555 1_555
C6_127 N10_117 1_555 1_555
H6_127 C6_127 1_555 1_555
C7_127 H7_127 1_555 1_555
C8_127 N15_14 1_555 1_555
H8_127 C8_127 1_555 1_555
Ag5_52 N6_82 1_555 1_555
Ag6_49 N5_77 1_555 1_555
N13_78 Ag5_49 1_555 1_555
N3_127 N4_127 1_555 1_555
N9_117 C1_117 1_555 1_555
N9_117 C2_117 1_555 1_555
N11_127 C4_127 1_555 1_555
N12_127 C8_127 1_555 1_555
Ag4 N2_128 1_555 1_555
Ag2_65 N1_128 1_555 1_555
N1_128 N2_128 1_555 1_555
N2_128 C3_128 1_555 1_555
N3_128 Ag2_65 1_555 1_555
N4_128 Ag4 1_555 1_555
N5_78 N6_83 1_555 1_555
N6_83 C6_128 1_555 1_555
N15_9 N16_26 1_555 1_555
N16_26 C7_128 1_555 1_555
N9_118 N10_118 1_555 1_555
N10_118 C5_128 1_555 1_555
N11_128 N12_128 1_555 1_555
N12_128 C7_128 1_555 1_555
C1_118 N4_128 1_555 1_555
H1_128 C1_118 1_555 1_555
C2_118 N3_128 1_555 1_555
H2_118 C2_118 1_555 1_555
C3_128 N11_128 1_555 1_555
H3_128 C3_128 1_555 1_555
C4_128 N1_128 1_555 1_555
H4_128 C4_128 1_555 1_555
C5_128 N5_78 1_555 1_555
H5_128 C5_128 1_555 1_555
C6_128 N10_118 1_555 1_555
H6_128 C6_128 1_555 1_555
C7_128 H7_128 1_555 1_555
C8_128 N15_9 1_555 1_555
H8_128 C8_128 1_555 1_555
Ag5_53 N6_83 1_555 1_555
Ag6_50 N5_78 1_555 1_555
N13_79 Ag2_65 1_555 1_555
N14_72 Ag2_65 1_555 1_555
N3_128 N4_128 1_555 1_555
N9_118 C1_118 1_555 1_555
N9_118 C2_118 1_555 1_555
N11_128 C4_128 1_555 1_555
N12_128 C8_128 1_555 1_555
Ag4_8 N2_129 1_555 1_555
Ag2_66 N1_129 1_555 1_555
N1_129 N2_129 1_555 1_555
N2_129 C3_129 1_555 1_555
N3_129 Ag2_66 1_555 1_555
N4_129 Ag4_8 1_555 1_555
N5_79 N6_84 1_555 1_555
N6_84 C6_129 1_555 1_555
N15_82 N16_83 1_555 1_555
N16_83 C7_129 1_555 1_555
N9_119 N10_119 1_555 1_555
N10_119 C5_129 1_555 1_555
N11_129 N12_129 1_555 1_555
N12_129 C7_129 1_555 1_555
C1_119 N4_129 1_555 1_555
H1_129 C1_119 1_555 1_555
C2_119 N3_129 1_555 1_555
H2_119 C2_119 1_555 1_555
C3_129 N11_129 1_555 1_555
H3_129 C3_129 1_555 1_555
C4_129 N1_129 1_555 1_555
H4_129 C4_129 1_555 1_555
C5_129 N5_79 1_555 1_555
H5_129 C5_129 1_555 1_555
C6_129 N10_119 1_555 1_555
H6_129 C6_129 1_555 1_555
C7_129 H7_129 1_555 1_555
C8_129 N15_82 1_555 1_555
H8_129 C8_129 1_555 1_555
Ag6_48 N6_84 1_555 1_555
Ag5_51 N5_79 1_555 1_555
N13_80 Ag2_66 1_555 1_555
N14_73 Ag2_66 1_555 1_555
N3_129 N4_129 1_555 1_555
N9_119 C1_119 1_555 1_555
N9_119 C2_119 1_555 1_555
N11_129 C4_129 1_555 1_555
N12_129 C8_129 1_555 1_555
Ag3_5 N2_130 1_555 1_555
Ag6_32 N1_130 1_555 1_555
N1_130 N2_130 1_555 1_555
N2_130 C3_130 1_555 1_555
N3_130 Ag6_32 1_555 1_555
N4_130 Ag3_5 1_555 1_555
N15_73 N16_91 1_555 1_555
N16_91 C7_130 1_555 1_555
N11_130 N12_130 1_555 1_555
N12_130 C7_130 1_555 1_555
C3_130 N11_130 1_555 1_555
H3_130 C3_130 1_555 1_555
C4_130 N1_130 1_555 1_555
H4_130 C4_130 1_555 1_555
C7_130 H7_130 1_555 1_555
C8_130 N15_73 1_555 1_555
H8_130 C8_130 1_555 1_555
N14_74 Ag6_32 1_555 1_555
N3_130 N4_130 1_555 1_555
N11_130 C4_130 1_555 1_555
N12_130 C8_130 1_555 1_555
N5_80 N6_85 1_555 1_555
N6_85 C6_130 1_555 1_555
C5_130 N5_80 1_555 1_555
H5_130 C5_130 1_555 1_555
H6_130 C6_130 1_555 1_555
Ag6_44 N6_85 1_555 1_555
Ag5_47 N5_80 1_555 1_555
N13_61 N14_58 1_555 1_555
N14_58 C6_131 1_555 1_555
C5_131 N13_61 1_555 1_555
H5_131 C5_131 1_555 1_555
H6_131 C6_131 1_555 1_555
Ag4_5 N2_131 1_555 1_555
Ag2_67 N1_131 1_555 1_555
N1_131 N2_131 1_555 1_555
N2_131 C3_131 1_555 1_555
N3_131 Ag2_67 1_555 1_555
N4_131 Ag4_5 1_555 1_555
N15_93 N16_37 1_555 1_555
N16_37 C7_131 1_555 1_555
N9_120 N10_120 1_555 1_555
N11_131 N12_131 1_555 1_555
N12_131 C7_131 1_555 1_555
C1_120 N4_131 1_555 1_555
C2_120 N3_131 1_555 1_555
H2_120 C2_120 1_555 1_555
C3_131 N11_131 1_555 1_555
H3_131 C3_131 1_555 1_555
C4_131 N1_131 1_555 1_555
H4_131 C4_131 1_555 1_555
C7_131 H7_131 1_555 1_555
C8_131 N15_93 1_555 1_555
H8_131 C8_131 1_555 1_555
N13_81 Ag2_67 1_555 1_555
N14_75 Ag2_67 1_555 1_555
N3_131 N4_131 1_555 1_555
N9_120 C1_120 1_555 1_555
N9_120 C2_120 1_555 1_555
N11_131 C4_131 1_555 1_555
N12_131 C8_131 1_555 1_555
Ag4_19 N2_132 1_555 1_555
Ag6_40 N1_132 1_555 1_555
N1_132 N2_132 1_555 1_555
N2_132 C3_132 1_555 1_555
N3_132 Ag6_40 1_555 1_555
N4_132 Ag4_19 1_555 1_555
N5_81 N6_86 1_555 1_555
N6_86 C6_132 1_555 1_555
N15_4 N16_30 1_555 1_555
N16_30 C7_132 1_555 1_555
N9_121 N10_121 1_555 1_555
N10_121 C5_132 1_555 1_555
N11_132 N12_132 1_555 1_555
N12_132 C7_132 1_555 1_555
C1_121 N4_132 1_555 1_555
H1_132 C1_121 1_555 1_555
C2_121 N3_132 1_555 1_555
H2_121 C2_121 1_555 1_555
C3_132 N11_132 1_555 1_555
H3_132 C3_132 1_555 1_555
C4_132 N1_132 1_555 1_555
H4_132 C4_132 1_555 1_555
C5_132 N5_81 1_555 1_555
H5_132 C5_132 1_555 1_555
C6_132 N10_121 1_555 1_555
H6_132 C6_132 1_555 1_555
C7_132 H7_132 1_555 1_555
C8_132 N15_4 1_555 1_555
H8_132 C8_132 1_555 1_555
Ag5_54 N6_86 1_555 1_555
Ag6_51 N5_81 1_555 1_555
N3_132 N4_132 1_555 1_555
N9_121 C1_121 1_555 1_555
N9_121 C2_121 1_555 1_555
N11_132 C4_132 1_555 1_555
N12_132 C8_132 1_555 1_555
Ag3_35 N2_133 1_555 1_555
Ag6_37 N1_133 1_555 1_555
N1_133 N2_133 1_555 1_555
N2_133 C3_133 1_555 1_555
N3_133 Ag6_37 1_555 1_555
N4_133 Ag3_35 1_555 1_555
N15_74 N16_57 1_555 1_555
N16_57 C7_133 1_555 1_555
N11_133 N12_133 1_555 1_555
N12_133 C7_133 1_555 1_555
C3_133 N11_133 1_555 1_555
H3_133 C3_133 1_555 1_555
C4_133 N1_133 1_555 1_555
H4_133 C4_133 1_555 1_555
C7_133 H7_133 1_555 1_555
C8_133 N15_74 1_555 1_555
H8_133 C8_133 1_555 1_555
N3_133 N4_133 1_555 1_555
N11_133 C4_133 1_555 1_555
N12_133 C8_133 1_555 1_555
N5_82 N6_87 1_555 1_555
N6_87 C6_133 1_555 1_555
N9_122 N10_122 1_555 1_555
N10_122 C5_133 1_555 1_555
H1_133 C1_122 1_555 1_555
H2_122 C2_122 1_555 1_555
C5_133 N5_82 1_555 1_555
H5_133 C5_133 1_555 1_555
C6_133 N10_122 1_555 1_555
H6_133 C6_133 1_555 1_555
Ag5_55 N6_87 1_555 1_555
Ag6_52 N5_82 1_555 1_555
N9_122 C1_122 1_555 1_555
N9_122 C2_122 1_555 1_555
N13_63 N14_56 1_555 1_555
N14_56 C6_134 1_555 1_555
C5_134 N13_63 1_555 1_555
H5_134 C5_134 1_555 1_555
H6_134 C6_134 1_555 1_555
Ag4_7 N2_134 1_555 1_555
Ag2_68 N1_134 1_555 1_555
N1_134 N2_134 1_555 1_555
N2_134 C3_134 1_555 1_555
N3_134 Ag2_68 1_555 1_555
N4_134 Ag4_7 1_555 1_555
N15_70 N16_15 1_555 1_555
N16_15 C7_134 1_555 1_555
N9_123 N10_123 1_555 1_555
N11_134 N12_134 1_555 1_555
N12_134 C7_134 1_555 1_555
C1_123 N4_134 1_555 1_555
C2_123 N3_134 1_555 1_555
H2_123 C2_123 1_555 1_555
C3_134 N11_134 1_555 1_555
H3_134 C3_134 1_555 1_555
C4_134 N1_134 1_555 1_555
H4_134 C4_134 1_555 1_555
C7_134 H7_134 1_555 1_555
C8_134 N15_70 1_555 1_555
H8_134 C8_134 1_555 1_555
N13_82 Ag2_68 1_555 1_555
N14_76 Ag2_68 1_555 1_555
N3_134 N4_134 1_555 1_555
N9_123 C1_123 1_555 1_555
N9_123 C2_123 1_555 1_555
N11_134 C4_134 1_555 1_555
N12_134 C8_134 1_555 1_555
Ag3_14 N2_135 1_555 1_555
Ag5_39 N1_135 1_555 1_555
N1_135 N2_135 1_555 1_555
N2_135 C3_135 1_555 1_555
N3_135 Ag5_39 1_555 1_555
N4_135 Ag3_14 1_555 1_555
N15_68 N16_75 1_555 1_555
N16_75 C7_135 1_555 1_555
N11_135 N12_135 1_555 1_555
N12_135 C7_135 1_555 1_555
C3_135 N11_135 1_555 1_555
H3_135 C3_135 1_555 1_555
C4_135 N1_135 1_555 1_555
H4_135 C4_135 1_555 1_555
C7_135 H7_135 1_555 1_555
C8_135 N15_68 1_555 1_555
H8_135 C8_135 1_555 1_555
N3_135 N4_135 1_555 1_555
N11_135 C4_135 1_555 1_555
N12_135 C8_135 1_555 1_555
N5_83 N6_88 1_555 1_555
N6_88 C6_135 1_555 1_555
N9_124 N10_124 1_555 1_555
N10_124 C5_135 1_555 1_555
H1_135 C1_124 1_555 1_555
H2_124 C2_124 1_555 1_555
C5_135 N5_83 1_555 1_555
H5_135 C5_135 1_555 1_555
C6_135 N10_124 1_555 1_555
H6_135 C6_135 1_555 1_555
Ag6_51 N6_88 1_555 1_555
Ag5_54 N5_83 1_555 1_555
N9_124 C1_124 1_555 1_555
N9_124 C2_124 1_555 1_555
Ag3_6 N2_136 1_555 1_555
Ag2_69 N1_136 1_555 1_555
N1_136 N2_136 1_555 1_555
N2_136 C3_136 1_555 1_555
N3_136 Ag2_69 1_555 1_555
N4_136 Ag3_6 1_555 1_555
N13_60 N14_61 1_555 1_555
N14_61 C6_136 1_555 1_555
N15_5 N16_60 1_555 1_555
N16_60 C7_136 1_555 1_555
N9_125 N10_125 1_555 1_555
N10_125 C5_136 1_555 1_555
N11_136 N12_136 1_555 1_555
N12_136 C7_136 1_555 1_555
C1_125 N4_136 1_555 1_555
H1_136 C1_125 1_555 1_555
C2_125 N3_136 1_555 1_555
H2_125 C2_125 1_555 1_555
C3_136 N11_136 1_555 1_555
H3_136 C3_136 1_555 1_555
C4_136 N1_136 1_555 1_555
H4_136 C4_136 1_555 1_555
C5_136 N13_60 1_555 1_555
H5_136 C5_136 1_555 1_555
C6_136 N10_125 1_555 1_555
H6_136 C6_136 1_555 1_555
C7_136 H7_136 1_555 1_555
C8_136 N15_5 1_555 1_555
H8_136 C8_136 1_555 1_555
N13_83 Ag2_69 1_555 1_555
N14_77 Ag2_69 1_555 1_555
N3_136 N4_136 1_555 1_555
N9_125 C1_125 1_555 1_555
N9_125 C2_125 1_555 1_555
N11_136 C4_136 1_555 1_555
N12_136 C8_136 1_555 1_555
Ag3_25 N2_137 1_555 1_555
Ag2_70 N1_137 1_555 1_555
N1_137 N2_137 1_555 1_555
N2_137 C3_137 1_555 1_555
N3_137 Ag2_70 1_555 1_555
N4_137 Ag3_25 1_555 1_555
N13_66 N14_55 1_555 1_555
N14_55 C6_137 1_555 1_555
N15_7 N16_90 1_555 1_555
N16_90 C7_137 1_555 1_555
N9_126 N10_126 1_555 1_555
N10_126 C5_137 1_555 1_555
N11_137 N12_137 1_555 1_555
N12_137 C7_137 1_555 1_555
C1_126 N4_137 1_555 1_555
H1_137 C1_126 1_555 1_555
C2_126 N3_137 1_555 1_555
H2_126 C2_126 1_555 1_555
C3_137 N11_137 1_555 1_555
H3_137 C3_137 1_555 1_555
C4_137 N1_137 1_555 1_555
H4_137 C4_137 1_555 1_555
C5_137 N13_66 1_555 1_555
H5_137 C5_137 1_555 1_555
C6_137 N10_126 1_555 1_555
H6_137 C6_137 1_555 1_555
C7_137 H7_137 1_555 1_555
C8_137 N15_7 1_555 1_555
H8_137 C8_137 1_555 1_555
N13_84 Ag2_70 1_555 1_555
N14_78 Ag2_70 1_555 1_555
N3_137 N4_137 1_555 1_555
N9_126 C1_126 1_555 1_555
N9_126 C2_126 1_555 1_555
N11_137 C4_137 1_555 1_555
N12_137 C8_137 1_555 1_555
Ag4_4 N2_138 1_555 1_555
Ag5_42 N1_138 1_555 1_555
N1_138 N2_138 1_555 1_555
N2_138 C3_138 1_555 1_555
N3_138 Ag5_42 1_555 1_555
N4_138 Ag4_4 1_555 1_555
N5_84 N6_89 1_555 1_555
N6_89 C6_138 1_555 1_555
N15_19 N16 1_555 1_555
N16 C7_138 1_555 1_555
N9_127 N10_127 1_555 1_555
N10_127 C5_138 1_555 1_555
N11_138 N12_138 1_555 1_555
N12_138 C7_138 1_555 1_555
C1_127 N4_138 1_555 1_555
H1_138 C1_127 1_555 1_555
C2_127 N3_138 1_555 1_555
H2_127 C2_127 1_555 1_555
C3_138 N11_138 1_555 1_555
H3_138 C3_138 1_555 1_555
C4_138 N1_138 1_555 1_555
H4_138 C4_138 1_555 1_555
C5_138 N5_84 1_555 1_555
H5_138 C5_138 1_555 1_555
C6_138 N10_127 1_555 1_555
H6_138 C6_138 1_555 1_555
C7_138 H7_138 1_555 1_555
C8_138 N15_19 1_555 1_555
H8_138 C8_138 1_555 1_555
Ag6_52 N6_89 1_555 1_555
Ag5_55 N5_84 1_555 1_555
N3_138 N4_138 1_555 1_555
N9_127 C1_127 1_555 1_555
N9_127 C2_127 1_555 1_555
N11_138 C4_138 1_555 1_555
N12_138 C8_138 1_555 1_555
Ag4_18 N2_139 1_555 1_555
Ag2_71 N1_139 1_555 1_555
N1_139 N2_139 1_555 1_555
N2_139 C3_139 1_555 1_555
N3_139 Ag2_71 1_555 1_555
N4_139 Ag4_18 1_555 1_555
N5_85 N6_90 1_555 1_555
N6_90 C6_139 1_555 1_555
N15_12 N16_53 1_555 1_555
N16_53 C7_139 1_555 1_555
N9_128 N10_128 1_555 1_555
N10_128 C5_139 1_555 1_555
N11_139 N12_139 1_555 1_555
N12_139 C7_139 1_555 1_555
C1_128 N4_139 1_555 1_555
H1_139 C1_128 1_555 1_555
C2_128 N3_139 1_555 1_555
H2_128 C2_128 1_555 1_555
C3_139 N11_139 1_555 1_555
H3_139 C3_139 1_555 1_555
C4_139 N1_139 1_555 1_555
H4_139 C4_139 1_555 1_555
C5_139 N5_85 1_555 1_555
H5_139 C5_139 1_555 1_555
C6_139 N10_128 1_555 1_555
H6_139 C6_139 1_555 1_555
C7_139 H7_139 1_555 1_555
C8_139 N15_12 1_555 1_555
H8_139 C8_139 1_555 1_555
Ag5_56 N6_90 1_555 1_555
Ag6_53 N5_85 1_555 1_555
N13_85 Ag2_71 1_555 1_555
N14_79 Ag2_71 1_555 1_555
N3_139 N4_139 1_555 1_555
N9_128 C1_128 1_555 1_555
N9_128 C2_128 1_555 1_555
N11_139 C4_139 1_555 1_555
N12_139 C8_139 1_555 1_555
Ag3_47 N2_140 1_555 1_555
Ag2_72 N1_140 1_555 1_555
N1_140 N2_140 1_555 1_555
N2_140 C3_140 1_555 1_555
N3_140 Ag2_72 1_555 1_555
N4_140 Ag3_47 1_555 1_555
N15_61 N16_21 1_555 1_555
N16_21 C7_140 1_555 1_555
N9_129 N10_129 1_555 1_555
N11_140 N12_140 1_555 1_555
N12_140 C7_140 1_555 1_555
C1_129 N4_140 1_555 1_555
C2_129 N3_140 1_555 1_555
H2_129 C2_129 1_555 1_555
C3_140 N11_140 1_555 1_555
H3_140 C3_140 1_555 1_555
C4_140 N1_140 1_555 1_555
H4_140 C4_140 1_555 1_555
C7_140 H7_140 1_555 1_555
C8_140 N15_61 1_555 1_555
H8_140 C8_140 1_555 1_555
N13_86 Ag2_72 1_555 1_555
N14_80 Ag2_72 1_555 1_555
N3_140 N4_140 1_555 1_555
N9_129 C1_129 1_555 1_555
N9_129 C2_129 1_555 1_555
N11_140 C4_140 1_555 1_555
N12_140 C8_140 1_555 1_555
N5_86 N14_49 1_555 1_555
N14_49 C6_140 1_555 1_555
C5_140 N5_86 1_555 1_555
H5_140 C5_140 1_555 1_555
H6_140 C6_140 1_555 1_555
Ag6_54 N5_86 1_555 1_555
Ag3_20 N2_141 1_555 1_555
Ag5_56 N1_141 1_555 1_555
N1_141 N2_141 1_555 1_555
N2_141 C3_141 1_555 1_555
N3_141 Ag5_56 1_555 1_555
N4_141 Ag3_20 1_555 1_555
N13_71 N6_91 1_555 1_555
N6_91 C6_141 1_555 1_555
N15_88 N16_95 1_555 1_555
N16_95 C7_141 1_555 1_555
N9_130 N10_130 1_555 1_555
N10_130 C5_141 1_555 1_555
N11_141 N12_141 1_555 1_555
N12_141 C7_141 1_555 1_555
C1_130 N4_141 1_555 1_555
H1_141 C1_130 1_555 1_555
C2_130 N3_141 1_555 1_555
H2_130 C2_130 1_555 1_555
C3_141 N11_141 1_555 1_555
H3_141 C3_141 1_555 1_555
C4_141 N1_141 1_555 1_555
H4_141 C4_141 1_555 1_555
C5_141 N13_71 1_555 1_555
H5_141 C5_141 1_555 1_555
C6_141 N10_130 1_555 1_555
H6_141 C6_141 1_555 1_555
C7_141 H7_141 1_555 1_555
C8_141 N15_88 1_555 1_555
H8_141 C8_141 1_555 1_555
Ag5_57 N6_91 1_555 1_555
N13_87 Ag5_56 1_555 1_555
N3_141 N4_141 1_555 1_555
N9_130 C1_130 1_555 1_555
N9_130 C2_130 1_555 1_555
N11_141 C4_141 1_555 1_555
N12_141 C8_141 1_555 1_555
Ag3_26 N2_142 1_555 1_555
Ag5_33 N1_142 1_555 1_555
N1_142 N2_142 1_555 1_555
N2_142 C3_142 1_555 1_555
N3_142 Ag5_33 1_555 1_555
N4_142 Ag3_26 1_555 1_555
N13_79 N6_92 1_555 1_555
N6_92 C6_142 1_555 1_555
N15_65 N16_80 1_555 1_555
N16_80 C7_142 1_555 1_555
N9_131 N10_131 1_555 1_555
N10_131 C5_142 1_555 1_555
N11_142 N12_142 1_555 1_555
N12_142 C7_142 1_555 1_555
C1_131 N4_142 1_555 1_555
H1_142 C1_131 1_555 1_555
C2_131 N3_142 1_555 1_555
H2_131 C2_131 1_555 1_555
C3_142 N11_142 1_555 1_555
H3_142 C3_142 1_555 1_555
C4_142 N1_142 1_555 1_555
H4_142 C4_142 1_555 1_555
C5_142 N13_79 1_555 1_555
H5_142 C5_142 1_555 1_555
C6_142 N10_131 1_555 1_555
H6_142 C6_142 1_555 1_555
C7_142 H7_142 1_555 1_555
C8_142 N15_65 1_555 1_555
H8_142 C8_142 1_555 1_555
Ag5_58 N6_92 1_555 1_555
N13_88 Ag5_33 1_555 1_555
N3_142 N4_142 1_555 1_555
N9_131 C1_131 1_555 1_555
N9_131 C2_131 1_555 1_555
N11_142 C4_142 1_555 1_555
N12_142 C8_142 1_555 1_555
Ag4_6 N2_143 1_555 1_555
Ag6_43 N1_143 1_555 1_555
N1_143 N2_143 1_555 1_555
N2_143 C3_143 1_555 1_555
N3_143 Ag6_43 1_555 1_555
N4_143 Ag4_6 1_555 1_555
N5_87 N6_93 1_555 1_555
N6_93 C6_143 1_555 1_555
N15_3 N16_44 1_555 1_555
N16_44 C7_143 1_555 1_555
N9_132 N10_132 1_555 1_555
N10_132 C5_143 1_555 1_555
N11_143 N12_143 1_555 1_555
N12_143 C7_143 1_555 1_555
C1_132 N4_143 1_555 1_555
H1_143 C1_132 1_555 1_555
C2_132 N3_143 1_555 1_555
H2_132 C2_132 1_555 1_555
C3_143 N11_143 1_555 1_555
H3_143 C3_143 1_555 1_555
C4_143 N1_143 1_555 1_555
H4_143 C4_143 1_555 1_555
C5_143 N5_87 1_555 1_555
H5_143 C5_143 1_555 1_555
C6_143 N10_132 1_555 1_555
H6_143 C6_143 1_555 1_555
C7_143 H7_143 1_555 1_555
C8_143 N15_3 1_555 1_555
H8_143 C8_143 1_555 1_555
Ag6_50 N6_93 1_555 1_555
Ag5_53 N5_87 1_555 1_555
N14_81 Ag6_43 1_555 1_555
N3_143 N4_143 1_555 1_555
N9_132 C1_132 1_555 1_555
N9_132 C2_132 1_555 1_555
N11_143 C4_143 1_555 1_555
N12_143 C8_143 1_555 1_555
Ag3_7 N2_144 1_555 1_555
Ag6_49 N1_144 1_555 1_555
N1_144 N2_144 1_555 1_555
N2_144 C3_144 1_555 1_555
N3_144 Ag6_49 1_555 1_555
N4_144 Ag3_7 1_555 1_555
N15_54 N16_76 1_555 1_555
N16_76 C7_144 1_555 1_555
N9_133 N10_133 1_555 1_555
N11_144 N12_144 1_555 1_555
N12_144 C7_144 1_555 1_555
C1_133 N4_144 1_555 1_555
C2_133 N3_144 1_555 1_555
H2_133 C2_133 1_555 1_555
C3_144 N11_144 1_555 1_555
H3_144 C3_144 1_555 1_555
C4_144 N1_144 1_555 1_555
H4_144 C4_144 1_555 1_555
C7_144 H7_144 1_555 1_555
C8_144 N15_54 1_555 1_555
H8_144 C8_144 1_555 1_555
N14_82 Ag6_49 1_555 1_555
N3_144 N4_144 1_555 1_555
N9_133 C1_133 1_555 1_555
N9_133 C2_133 1_555 1_555
N11_144 C4_144 1_555 1_555
N12_144 C8_144 1_555 1_555
N5_88 N6_94 1_555 1_555
N6_94 C6_144 1_555 1_555
C5_144 N5_88 1_555 1_555
H5_144 C5_144 1_555 1_555
H6_144 C6_144 1_555 1_555
Ag6_36 N6_94 1_555 1_555
Ag5_38 N5_88 1_555 1_555
Ag4_10 N2_145 1_555 1_555
Ag5_41 N1_145 1_555 1_555
N1_145 N2_145 1_555 1_555
N2_145 C3_145 1_555 1_555
N3_145 Ag5_41 1_555 1_555
N4_145 Ag4_10 1_555 1_555
N13_84 N14_76 1_555 1_555
N14_76 C6_145 1_555 1_555
N15_80 N16_65 1_555 1_555
N16_65 C7_145 1_555 1_555
N9_134 N10_134 1_555 1_555
N10_134 C5_145 1_555 1_555
N11_145 N12_145 1_555 1_555
N12_145 C7_145 1_555 1_555
C1_134 N4_145 1_555 1_555
H1_145 C1_134 1_555 1_555
C2_134 N3_145 1_555 1_555
H2_134 C2_134 1_555 1_555
C3_145 N11_145 1_555 1_555
H3_145 C3_145 1_555 1_555
C4_145 N1_145 1_555 1_555
H4_145 C4_145 1_555 1_555
C5_145 N13_84 1_555 1_555
H5_145 C5_145 1_555 1_555
C6_145 N10_134 1_555 1_555
H6_145 C6_145 1_555 1_555
C7_145 H7_145 1_555 1_555
C8_145 N15_80 1_555 1_555
H8_145 C8_145 1_555 1_555
N3_145 N4_145 1_555 1_555
N9_134 C1_134 1_555 1_555
N9_134 C2_134 1_555 1_555
N11_145 C4_145 1_555 1_555
N12_145 C8_145 1_555 1_555
Ag4_13 N2_146 1_555 1_555
Ag6_35 N1_146 1_555 1_555
N1_146 N2_146 1_555 1_555
N2_146 C3_146 1_555 1_555
N3_146 Ag6_35 1_555 1_555
N4_146 Ag4_13 1_555 1_555
N13_70 N6_95 1_555 1_555
N6_95 C6_146 1_555 1_555
N15_15 N16_70 1_555 1_555
N16_70 C7_146 1_555 1_555
N9_135 N10_135 1_555 1_555
N10_135 C5_146 1_555 1_555
N11_146 N12_146 1_555 1_555
N12_146 C7_146 1_555 1_555
C1_135 N4_146 1_555 1_555
H1_146 C1_135 1_555 1_555
C2_135 N3_146 1_555 1_555
H2_135 C2_135 1_555 1_555
C3_146 N11_146 1_555 1_555
H3_146 C3_146 1_555 1_555
C4_146 N1_146 1_555 1_555
H4_146 C4_146 1_555 1_555
C5_146 N13_70 1_555 1_555
H5_146 C5_146 1_555 1_555
C6_146 N10_135 1_555 1_555
H6_146 C6_146 1_555 1_555
C7_146 H7_146 1_555 1_555
C8_146 N15_15 1_555 1_555
H8_146 C8_146 1_555 1_555
Ag6_47 N6_95 1_555 1_555
N3_146 N4_146 1_555 1_555
N9_135 C1_135 1_555 1_555
N9_135 C2_135 1_555 1_555
N11_146 C4_146 1_555 1_555
N12_146 C8_146 1_555 1_555
Ag3_15 N2_147 1_555 1_555
Ag5_40 N1_147 1_555 1_555
N1_147 N2_147 1_555 1_555
N2_147 C3_147 1_555 1_555
N3_147 Ag5_40 1_555 1_555
N4_147 Ag3_15 1_555 1_555
N15_48 N16_38 1_555 1_555
N16_38 C7_147 1_555 1_555
N11_147 N12_147 1_555 1_555
N12_147 C7_147 1_555 1_555
C3_147 N11_147 1_555 1_555
H3_147 C3_147 1_555 1_555
C4_147 N1_147 1_555 1_555
H4_147 C4_147 1_555 1_555
C7_147 H7_147 1_555 1_555
C8_147 N15_48 1_555 1_555
H8_147 C8_147 1_555 1_555
N3_147 N4_147 1_555 1_555
N11_147 C4_147 1_555 1_555
N12_147 C8_147 1_555 1_555
N13_82 N14_78 1_555 1_555
N14_78 C6_147 1_555 1_555
N9_136 N10_136 1_555 1_555
N10_136 C5_147 1_555 1_555
H1_147 C1_136 1_555 1_555
H2_136 C2_136 1_555 1_555
C5_147 N13_82 1_555 1_555
H5_147 C5_147 1_555 1_555
C6_147 N10_136 1_555 1_555
H6_147 C6_147 1_555 1_555
N9_136 C1_136 1_555 1_555
N9_136 C2_136 1_555 1_555
N13_78 N6_96 1_555 1_555
N6_96 C6_148 1_555 1_555
N9_137 N10_137 1_555 1_555
N10_137 C5_148 1_555 1_555
H1_148 C1_137 1_555 1_555
H2_137 C2_137 1_555 1_555
C5_148 N13_78 1_555 1_555
H5_148 C5_148 1_555 1_555
C6_148 N10_137 1_555 1_555
H6_148 C6_148 1_555 1_555
Ag6_46 N6_96 1_555 1_555
N9_137 C1_137 1_555 1_555
N9_137 C2_137 1_555 1_555
Ag3_24 N2_148 1_555 1_555
Ag5_38 N1_148 1_555 1_555
N1_148 N2_148 1_555 1_555
N2_148 C3_148 1_555 1_555
N3_148 Ag5_38 1_555 1_555
N4_148 Ag3_24 1_555 1_555
N15_90 N16_7 1_555 1_555
N16_7 C7_148 1_555 1_555
N11_148 N12_148 1_555 1_555
N12_148 C7_148 1_555 1_555
C3_148 N11_148 1_555 1_555
H3_148 C3_148 1_555 1_555
C4_148 N1_148 1_555 1_555
H4_148 C4_148 1_555 1_555
C7_148 H7_148 1_555 1_555
C8_148 N15_90 1_555 1_555
H8_148 C8_148 1_555 1_555
N3_148 N4_148 1_555 1_555
N11_148 C4_148 1_555 1_555
N12_148 C8_148 1_555 1_555
Ag3_43 N2_149 1_555 1_555
Ag6_53 N1_149 1_555 1_555
N1_149 N2_149 1_555 1_555
N2_149 C3_149 1_555 1_555
N3_149 Ag6_53 1_555 1_555
N4_149 Ag3_43 1_555 1_555
N15_83 N16_82 1_555 1_555
N16_82 C7_149 1_555 1_555
N9_138 N10_138 1_555 1_555
N11_149 N12_149 1_555 1_555
N12_149 C7_149 1_555 1_555
C1_138 N4_149 1_555 1_555
C2_138 N3_149 1_555 1_555
H2_138 C2_138 1_555 1_555
C3_149 N11_149 1_555 1_555
H3_149 C3_149 1_555 1_555
C4_149 N1_149 1_555 1_555
H4_149 C4_149 1_555 1_555
C7_149 H7_149 1_555 1_555
C8_149 N15_83 1_555 1_555
H8_149 C8_149 1_555 1_555
N14_83 Ag6_53 1_555 1_555
N3_149 N4_149 1_555 1_555
N9_138 C1_138 1_555 1_555
N9_138 C2_138 1_555 1_555
N11_149 C4_149 1_555 1_555
N12_149 C8_149 1_555 1_555
N5_89 N14_51 1_555 1_555
N14_51 C6_149 1_555 1_555
C5_149 N5_89 1_555 1_555
H5_149 C5_149 1_555 1_555
H6_149 C6_149 1_555 1_555
Ag5_46 N5_89 1_555 1_555
Ag4_48 N2_150 1_555 1_555
Ag6_38 N1_150 1_555 1_555
N1_150 N2_150 1_555 1_555
N2_150 C3_150 1_555 1_555
N3_150 Ag6_38 1_555 1_555
N4_150 Ag4_48 1_555 1_555
N15_95 N16_88 1_555 1_555
N16_88 C7_150 1_555 1_555
N11_150 N12_150 1_555 1_555
N12_150 C7_150 1_555 1_555
C3_150 N11_150 1_555 1_555
H3_150 C3_150 1_555 1_555
C4_150 N1_150 1_555 1_555
H4_150 C4_150 1_555 1_555
C7_150 H7_150 1_555 1_555
C8_150 N15_95 1_555 1_555
H8_150 C8_150 1_555 1_555
N3_150 N4_150 1_555 1_555
N11_150 C4_150 1_555 1_555
N12_150 C8_150 1_555 1_555
N13_83 N14_75 1_555 1_555
N14_75 C6_150 1_555 1_555
N9_139 N10_139 1_555 1_555
N10_139 C5_150 1_555 1_555
H1_150 C1_139 1_555 1_555
H2_139 C2_139 1_555 1_555
C5_150 N13_83 1_555 1_555
H5_150 C5_150 1_555 1_555
C6_150 N10_139 1_555 1_555
H6_150 C6_150 1_555 1_555
N9_139 C1_139 1_555 1_555
N9_139 C2_139 1_555 1_555
Ag3_4 N2_151 1_555 1_555
Ag6_47 N1_151 1_555 1_555
N1_151 N2_151 1_555 1_555
N2_151 C3_151 1_555 1_555
N3_151 Ag6_47 1_555 1_555
N4_151 Ag3_4 1_555 1_555
N5_90 N14_65 1_555 1_555
N14_65 C6_151 1_555 1_555
N15_86 N16_96 1_555 1_555
N16_96 C7_151 1_555 1_555
N9_140 N10_140 1_555 1_555
N10_140 C5_151 1_555 1_555
N11_151 N12_151 1_555 1_555
N12_151 C7_151 1_555 1_555
C1_140 N4_151 1_555 1_555
H1_151 C1_140 1_555 1_555
C2_140 N3_151 1_555 1_555
H2_140 C2_140 1_555 1_555
C3_151 N11_151 1_555 1_555
H3_151 C3_151 1_555 1_555
C4_151 N1_151 1_555 1_555
H4_151 C4_151 1_555 1_555
C5_151 N5_90 1_555 1_555
H5_151 C5_151 1_555 1_555
C6_151 N10_140 1_555 1_555
H6_151 C6_151 1_555 1_555
C7_151 H7_151 1_555 1_555
C8_151 N15_86 1_555 1_555
H8_151 C8_151 1_555 1_555
Ag5_57 N5_90 1_555 1_555
N3_151 N4_151 1_555 1_555
N9_140 C1_140 1_555 1_555
N9_140 C2_140 1_555 1_555
N11_151 C4_151 1_555 1_555
N12_151 C8_151 1_555 1_555
N13_50 N14_80 1_555 1_555
N14_80 C6_152 1_555 1_555
N9_141 N10_141 1_555 1_555
N10_141 C5_152 1_555 1_555
H1_152 C1_141 1_555 1_555
H2_141 C2_141 1_555 1_555
C5_152 N13_50 1_555 1_555
H5_152 C5_152 1_555 1_555
C6_152 N10_141 1_555 1_555
H6_152 C6_152 1_555 1_555
N9_141 C1_141 1_555 1_555
N9_141 C2_141 1_555 1_555
Ag3_22 N2_152 1_555 1_555
Ag5_34 N1_152 1_555 1_555
N1_152 N2_152 1_555 1_555
N2_152 C3_152 1_555 1_555
N3_152 Ag5_34 1_555 1_555
N4_152 Ag3_22 1_555 1_555
N15_81 N16_50 1_555 1_555
N16_50 C7_152 1_555 1_555
N11_152 N12_152 1_555 1_555
N12_152 C7_152 1_555 1_555
C3_152 N11_152 1_555 1_555
H3_152 C3_152 1_555 1_555
C4_152 N1_152 1_555 1_555
H4_152 C4_152 1_555 1_555
C7_152 H7_152 1_555 1_555
C8_152 N15_81 1_555 1_555
H8_152 C8_152 1_555 1_555
N13_89 Ag5_34 1_555 1_555
N3_152 N4_152 1_555 1_555
N11_152 C4_152 1_555 1_555
N12_152 C8_152 1_555 1_555
Ag3_37 N2_153 1_555 1_555
Ag6_39 N1_153 1_555 1_555
N1_153 N2_153 1_555 1_555
N2_153 C3_153 1_555 1_555
N3_153 Ag6_39 1_555 1_555
N4_153 Ag3_37 1_555 1_555
N13_81 N14_77 1_555 1_555
N14_77 C6_153 1_555 1_555
N15_10 N16_11 1_555 1_555
N16_11 C7_153 1_555 1_555
N9_142 N10_142 1_555 1_555
N10_142 C5_153 1_555 1_555
N11_153 N12_153 1_555 1_555
N12_153 C7_153 1_555 1_555
C1_142 N4_153 1_555 1_555
H1_153 C1_142 1_555 1_555
C2_142 N3_153 1_555 1_555
H2_142 C2_142 1_555 1_555
C3_153 N11_153 1_555 1_555
H3_153 C3_153 1_555 1_555
C4_153 N1_153 1_555 1_555
H4_153 C4_153 1_555 1_555
C5_153 N13_81 1_555 1_555
H5_153 C5_153 1_555 1_555
C6_153 N10_142 1_555 1_555
H6_153 C6_153 1_555 1_555
C7_153 H7_153 1_555 1_555
C8_153 N15_10 1_555 1_555
H8_153 C8_153 1_555 1_555
N3_153 N4_153 1_555 1_555
N9_142 C1_142 1_555 1_555
N9_142 C2_142 1_555 1_555
N11_153 C4_153 1_555 1_555
N12_153 C8_153 1_555 1_555
Ag4_9 N2_154 1_555 1_555
Ag5_58 N1_154 1_555 1_555
N1_154 N2_154 1_555 1_555
N2_154 C3_154 1_555 1_555
N3_154 Ag5_58 1_555 1_555
N4_154 Ag4_9 1_555 1_555
N13_67 N14_48 1_555 1_555
N14_48 C6_154 1_555 1_555
N15 N16_19 1_555 1_555
N16_19 C7_154 1_555 1_555
N9_143 N10_143 1_555 1_555
N10_143 C5_154 1_555 1_555
N11_154 N12_154 1_555 1_555
N12_154 C7_154 1_555 1_555
C1_143 N4_154 1_555 1_555
H1_154 C1_143 1_555 1_555
C2_143 N3_154 1_555 1_555
H2_143 C2_143 1_555 1_555
C3_154 N11_154 1_555 1_555
H3_154 C3_154 1_555 1_555
C4_154 N1_154 1_555 1_555
H4_154 C4_154 1_555 1_555
C5_154 N13_67 1_555 1_555
H5_154 C5_154 1_555 1_555
C6_154 N10_143 1_555 1_555
H6_154 C6_154 1_555 1_555
C7_154 H7_154 1_555 1_555
C8_154 N15 1_555 1_555
H8_154 C8_154 1_555 1_555
N13_90 Ag5_58 1_555 1_555
N3_154 N4_154 1_555 1_555
N9_143 C1_143 1_555 1_555
N9_143 C2_143 1_555 1_555
N11_154 C4_154 1_555 1_555
N12_154 C8_154 1_555 1_555
Ag3_9 N2_155 1_555 1_555
Ag5_51 N1_155 1_555 1_555
N1_155 N2_155 1_555 1_555
N2_155 C3_155 1_555 1_555
N3_155 Ag5_51 1_555 1_555
N4_155 Ag3_9 1_555 1_555
N5_91 N6_97 1_555 1_555
N6_97 C6_155 1_555 1_555
N15_21 N16_61 1_555 1_555
N16_61 C7_155 1_555 1_555
N9_144 N10_144 1_555 1_555
N10_144 C5_155 1_555 1_555
N11_155 N12_155 1_555 1_555
N12_155 C7_155 1_555 1_555
C1_144 N4_155 1_555 1_555
H1_155 C1_144 1_555 1_555
C2_144 N3_155 1_555 1_555
H2_144 C2_144 1_555 1_555
C3_155 N11_155 1_555 1_555
H3_155 C3_155 1_555 1_555
C4_155 N1_155 1_555 1_555
H4_155 C4_155 1_555 1_555
C5_155 N5_91 1_555 1_555
H5_155 C5_155 1_555 1_555
C6_155 N10_144 1_555 1_555
H6_155 C6_155 1_555 1_555
C7_155 H7_155 1_555 1_555
C8_155 N15_21 1_555 1_555
H8_155 C8_155 1_555 1_555
Ag5_59 N6_97 1_555 1_555
Ag6_55 N5_91 1_555 1_555
N3_155 N4_155 1_555 1_555
N9_144 C1_144 1_555 1_555
N9_144 C2_144 1_555 1_555
N11_155 C4_155 1_555 1_555
N12_155 C8_155 1_555 1_555
N13_54 N14_47 1_555 1_555
N14_47 C6_156 1_555 1_555
C5_156 N13_54 1_555 1_555
H5_156 C5_156 1_555 1_555
H6_156 C6_156 1_555 1_555
Ag3_40 N2_156 1_555 1_555
Ag2_73 N1_156 1_555 1_555
N1_156 N2_156 1_555 1_555
N2_156 C3_156 1_555 1_555
N3_156 Ag2_73 1_555 1_555
N4_156 Ag3_40 1_555 1_555
N15_76 N16_54 1_555 1_555
N16_54 C7_156 1_555 1_555
N9_145 N10_145 1_555 1_555
N11_156 N12_156 1_555 1_555
N12_156 C7_156 1_555 1_555
C1_145 N4_156 1_555 1_555
C2_145 N3_156 1_555 1_555
H2_145 C2_145 1_555 1_555
C3_156 N11_156 1_555 1_555
H3_156 C3_156 1_555 1_555
C4_156 N1_156 1_555 1_555
H4_156 C4_156 1_555 1_555
C7_156 H7_156 1_555 1_555
C8_156 N15_76 1_555 1_555
H8_156 C8_156 1_555 1_555
N13_91 Ag2_73 1_555 1_555
N14_84 Ag2_73 1_555 1_555
N3_156 N4_156 1_555 1_555
N9_145 C1_145 1_555 1_555
N9_145 C2_145 1_555 1_555
N11_156 C4_156 1_555 1_555
N12_156 C8_156 1_555 1_555
Ag4_44 N2_157 1_555 1_555
Ag2_74 N1_157 1_555 1_555
N1_157 N2_157 1_555 1_555
N2_157 C3_157 1_555 1_555
N3_157 Ag2_74 1_555 1_555
N4_157 Ag4_44 1_555 1_555
N13_57 N14_45 1_555 1_555
N14_45 C6_157 1_555 1_555
N15_2 N16_33 1_555 1_555
N16_33 C7_157 1_555 1_555
N9_146 N10_146 1_555 1_555
N10_146 C5_157 1_555 1_555
N11_157 N12_157 1_555 1_555
N12_157 C7_157 1_555 1_555
C1_146 N4_157 1_555 1_555
H1_157 C1_146 1_555 1_555
C2_146 N3_157 1_555 1_555
H2_146 C2_146 1_555 1_555
C3_157 N11_157 1_555 1_555
H3_157 C3_157 1_555 1_555
C4_157 N1_157 1_555 1_555
H4_157 C4_157 1_555 1_555
C5_157 N13_57 1_555 1_555
H5_157 C5_157 1_555 1_555
C6_157 N10_146 1_555 1_555
H6_157 C6_157 1_555 1_555
C7_157 H7_157 1_555 1_555
C8_157 N15_2 1_555 1_555
H8_157 C8_157 1_555 1_555
N13_92 Ag2_74 1_555 1_555
N14_85 Ag2_74 1_555 1_555
N3_157 N4_157 1_555 1_555
N9_146 C1_146 1_555 1_555
N9_146 C2_146 1_555 1_555
N11_157 C4_157 1_555 1_555
N12_157 C8_157 1_555 1_555
Ag3_27 N2_158 1_555 1_555
Ag5_48 N1_158 1_555 1_555
N1_158 N2_158 1_555 1_555
N2_158 C3_158 1_555 1_555
N3_158 Ag5_48 1_555 1_555
N4_158 Ag3_27 1_555 1_555
N5_92 N6_98 1_555 1_555
N6_98 C6_158 1_555 1_555
N15_46 N16_87 1_555 1_555
N16_87 C7_158 1_555 1_555
N9_147 N10_147 1_555 1_555
N10_147 C5_158 1_555 1_555
N11_158 N12_158 1_555 1_555
N12_158 C7_158 1_555 1_555
C1_147 N4_158 1_555 1_555
H1_158 C1_147 1_555 1_555
C2_147 N3_158 1_555 1_555
H2_147 C2_147 1_555 1_555
C3_158 N11_158 1_555 1_555
H3_158 C3_158 1_555 1_555
C4_158 N1_158 1_555 1_555
H4_158 C4_158 1_555 1_555
C5_158 N5_92 1_555 1_555
H5_158 C5_158 1_555 1_555
C6_158 N10_147 1_555 1_555
H6_158 C6_158 1_555 1_555
C7_158 H7_158 1_555 1_555
C8_158 N15_46 1_555 1_555
H8_158 C8_158 1_555 1_555
Ag6_55 N6_98 1_555 1_555
Ag5_59 N5_92 1_555 1_555
N3_158 N4_158 1_555 1_555
N9_147 C1_147 1_555 1_555
N9_147 C2_147 1_555 1_555
N11_158 C4_158 1_555 1_555
N12_158 C8_158 1_555 1_555
N13_51 N14_50 1_555 1_555
N14_50 C6_159 1_555 1_555
C5_159 N13_51 1_555 1_555
H5_159 C5_159 1_555 1_555
H6_159 C6_159 1_555 1_555
Ag4_2 N2_159 1_555 1_555
Ag2_75 N1_159 1_555 1_555
N1_159 N2_159 1_555 1_555
N2_159 C3_159 1_555 1_555
N3_159 Ag2_75 1_555 1_555
N4_159 Ag4_2 1_555 1_555
N15_44 N16_3 1_555 1_555
N16_3 C7_159 1_555 1_555
N9_148 N10_148 1_555 1_555
N11_159 N12_159 1_555 1_555
N12_159 C7_159 1_555 1_555
C1_148 N4_159 1_555 1_555
C2_148 N3_159 1_555 1_555
H2_148 C2_148 1_555 1_555
C3_159 N11_159 1_555 1_555
H3_159 C3_159 1_555 1_555
C4_159 N1_159 1_555 1_555
H4_159 C4_159 1_555 1_555
C7_159 H7_159 1_555 1_555
C8_159 N15_44 1_555 1_555
H8_159 C8_159 1_555 1_555
N13_93 Ag2_75 1_555 1_555
N14_86 Ag2_75 1_555 1_555
N3_159 N4_159 1_555 1_555
N9_148 C1_148 1_555 1_555
N9_148 C2_148 1_555 1_555
N11_159 C4_159 1_555 1_555
N12_159 C8_159 1_555 1_555
Ag4_21 N2_160 1_555 1_555
Ag6_48 N1_160 1_555 1_555
N1_160 N2_160 1_555 1_555
N2_160 C3_160 1_555 1_555
N3_160 Ag6_48 1_555 1_555
N4_160 Ag4_21 1_555 1_555
N5_93 N6_99 1_555 1_555
N6_99 C6_160 1_555 1_555
N15_77 N16_36 1_555 1_555
N16_36 C7_160 1_555 1_555
N9_149 N10_149 1_555 1_555
N10_149 C5_160 1_555 1_555
N11_160 N12_160 1_555 1_555
N12_160 C7_160 1_555 1_555
C1_149 N4_160 1_555 1_555
H1_160 C1_149 1_555 1_555
C2_149 N3_160 1_555 1_555
H2_149 C2_149 1_555 1_555
C3_160 N11_160 1_555 1_555
H3_160 C3_160 1_555 1_555
C4_160 N1_160 1_555 1_555
H4_160 C4_160 1_555 1_555
C5_160 N5_93 1_555 1_555
H5_160 C5_160 1_555 1_555
C6_160 N10_149 1_555 1_555
H6_160 C6_160 1_555 1_555
C7_160 H7_160 1_555 1_555
C8_160 N15_77 1_555 1_555
H8_160 C8_160 1_555 1_555
Ag5_60 N6_99 1_555 1_555
Ag6_56 N5_93 1_555 1_555
N3_160 N4_160 1_555 1_555
N9_149 C1_149 1_555 1_555
N9_149 C2_149 1_555 1_555
N11_160 C4_160 1_555 1_555
N12_160 C8_160 1_555 1_555
Ag4_46 N2_161 1_555 1_555
Ag6_45 N1_161 1_555 1_555
N1_161 N2_161 1_555 1_555
N2_161 C3_161 1_555 1_555
N3_161 Ag6_45 1_555 1_555
N4_161 Ag4_46 1_555 1_555
N5_94 N6_100 1_555 1_555
N6_100 C6_161 1_555 1_555
N15_79 N16_18 1_555 1_555
N16_18 C7_161 1_555 1_555
N9_150 N10_150 1_555 1_555
N10_150 C5_161 1_555 1_555
N11_161 N12_161 1_555 1_555
N12_161 C7_161 1_555 1_555
C1_150 N4_161 1_555 1_555
H1_161 C1_150 1_555 1_555
C2_150 N3_161 1_555 1_555
H2_150 C2_150 1_555 1_555
C3_161 N11_161 1_555 1_555
H3_161 C3_161 1_555 1_555
C4_161 N1_161 1_555 1_555
H4_161 C4_161 1_555 1_555
C5_161 N5_94 1_555 1_555
H5_161 C5_161 1_555 1_555
C6_161 N10_150 1_555 1_555
H6_161 C6_161 1_555 1_555
C7_161 H7_161 1_555 1_555
C8_161 N15_79 1_555 1_555
H8_161 C8_161 1_555 1_555
Ag6_56 N6_100 1_555 1_555
Ag5_60 N5_94 1_555 1_555
N3_161 N4_161 1_555 1_555
N9_150 C1_150 1_555 1_555
N9_150 C2_150 1_555 1_555
N11_161 C4_161 1_555 1_555
N12_161 C8_161 1_555 1_555
Ag3_17 N2_162 1_555 1_555
Ag2_76 N1_162 1_555 1_555
N1_162 N2_162 1_555 1_555
N2_162 C3_162 1_555 1_555
N3_162 Ag2_76 1_555 1_555
N4_162 Ag3_17 1_555 1_555
N13_49 N14_52 1_555 1_555
N14_52 C6_162 1_555 1_555
N15_91 N16_73 1_555 1_555
N16_73 C7_162 1_555 1_555
N9_151 N10_151 1_555 1_555
N10_151 C5_162 1_555 1_555
N11_162 N12_162 1_555 1_555
N12_162 C7_162 1_555 1_555
C1_151 N4_162 1_555 1_555
H1_162 C1_151 1_555 1_555
C2_151 N3_162 1_555 1_555
H2_151 C2_151 1_555 1_555
C3_162 N11_162 1_555 1_555
H3_162 C3_162 1_555 1_555
C4_162 N1_162 1_555 1_555
H4_162 C4_162 1_555 1_555
C5_162 N13_49 1_555 1_555
H5_162 C5_162 1_555 1_555
C6_162 N10_151 1_555 1_555
H6_162 C6_162 1_555 1_555
C7_162 H7_162 1_555 1_555
C8_162 N15_91 1_555 1_555
H8_162 C8_162 1_555 1_555
N13_94 Ag2_76 1_555 1_555
N14_87 Ag2_76 1_555 1_555
N3_162 N4_162 1_555 1_555
N9_151 C1_151 1_555 1_555
N9_151 C2_151 1_555 1_555
N11_162 C4_162 1_555 1_555
N12_162 C8_162 1_555 1_555
N13_76 N6_101 1_555 1_555
N6_101 C6_163 1_555 1_555
N9_152 N10_152 1_555 1_555
N10_152 C5_163 1_555 1_555
H1_163 C1_152 1_555 1_555
H2_152 C2_152 1_555 1_555
C5_163 N13_76 1_555 1_555
H5_163 C5_163 1_555 1_555
C6_163 N10_152 1_555 1_555
H6_163 C6_163 1_555 1_555
Ag6_42 N6_101 1_555 1_555
N9_152 C1_152 1_555 1_555
N9_152 C2_152 1_555 1_555
Ag3_10 N2_163 1_555 1_555
Ag6_36 N1_163 1_555 1_555
N1_163 N2_163 1_555 1_555
N2_163 C3_163 1_555 1_555
N3_163 Ag6_36 1_555 1_555
N4_163 Ag3_10 1_555 1_555
N15_84 N16_29 1_555 1_555
N16_29 C7_163 1_555 1_555
N11_163 N12_163 1_555 1_555
N12_163 C7_163 1_555 1_555
C3_163 N11_163 1_555 1_555
H3_163 C3_163 1_555 1_555
C4_163 N1_163 1_555 1_555
H4_163 C4_163 1_555 1_555
C7_163 H7_163 1_555 1_555
C8_163 N15_84 1_555 1_555
H8_163 C8_163 1_555 1_555
N3_163 N4_163 1_555 1_555
N11_163 C4_163 1_555 1_555
N12_163 C8_163 1_555 1_555
Ag4_39 N2_164 1_555 1_555
Ag5_53 N1_164 1_555 1_555
N1_164 N2_164 1_555 1_555
N2_164 C3_164 1_555 1_555
N3_164 Ag5_53 1_555 1_555
N4_164 Ag4_39 1_555 1_555
N15_37 N16_93 1_555 1_555
N16_93 C7_164 1_555 1_555
N9_153 N10_153 1_555 1_555
N11_164 N12_164 1_555 1_555
N12_164 C7_164 1_555 1_555
C1_153 N4_164 1_555 1_555
C2_153 N3_164 1_555 1_555
H2_153 C2_153 1_555 1_555
C3_164 N11_164 1_555 1_555
H3_164 C3_164 1_555 1_555
C4_164 N1_164 1_555 1_555
H4_164 C4_164 1_555 1_555
C7_164 H7_164 1_555 1_555
C8_164 N15_37 1_555 1_555
H8_164 C8_164 1_555 1_555
N3_164 N4_164 1_555 1_555
N9_153 C1_153 1_555 1_555
N9_153 C2_153 1_555 1_555
N11_164 C4_164 1_555 1_555
N12_164 C8_164 1_555 1_555
N13_69 N6_102 1_555 1_555
N6_102 C6_164 1_555 1_555
C5_164 N13_69 1_555 1_555
H5_164 C5_164 1_555 1_555
H6_164 C6_164 1_555 1_555
Ag6_41 N6_102 1_555 1_555
Ag4_11 N2_165 1_555 1_555
Ag6_42 N1_165 1_555 1_555
N1_165 N2_165 1_555 1_555
N2_165 C3_165 1_555 1_555
N3_165 Ag6_42 1_555 1_555
N4_165 Ag4_11 1_555 1_555
N5_95 N14_82 1_555 1_555
N14_82 C6_165 1_555 1_555
N15_16 N16_23 1_555 1_555
N16_23 C7_165 1_555 1_555
N9_154 N10_154 1_555 1_555
N10_154 C5_165 1_555 1_555
N11_165 N12_165 1_555 1_555
N12_165 C7_165 1_555 1_555
C1_154 N4_165 1_555 1_555
H1_165 C1_154 1_555 1_555
C2_154 N3_165 1_555 1_555
H2_154 C2_154 1_555 1_555
C3_165 N11_165 1_555 1_555
H3_165 C3_165 1_555 1_555
C4_165 N1_165 1_555 1_555
H4_165 C4_165 1_555 1_555
C5_165 N5_95 1_555 1_555
H5_165 C5_165 1_555 1_555
C6_165 N10_154 1_555 1_555
H6_165 C6_165 1_555 1_555
C7_165 H7_165 1_555 1_555
C8_165 N15_16 1_555 1_555
H8_165 C8_165 1_555 1_555
Ag5_52 N5_95 1_555 1_555
N3_165 N4_165 1_555 1_555
N9_154 C1_154 1_555 1_555
N9_154 C2_154 1_555 1_555
N11_165 C4_165 1_555 1_555
N12_165 C8_165 1_555 1_555
Ag4_38 N2_166 1_555 1_555
Ag6_30 N1_166 1_555 1_555
N1_166 N2_166 1_555 1_555
N2_166 C3_166 1_555 1_555
N3_166 Ag6_30 1_555 1_555
N4_166 Ag4_38 1_555 1_555
N15_41 N16_8 1_555 1_555
N16_8 C7_166 1_555 1_555
N9_155 N10_155 1_555 1_555
N11_166 N12_166 1_555 1_555
N12_166 C7_166 1_555 1_555
C1_155 N4_166 1_555 1_555
C2_155 N3_166 1_555 1_555
H2_155 C2_155 1_555 1_555
C3_166 N11_166 1_555 1_555
H3_166 C3_166 1_555 1_555
C4_166 N1_166 1_555 1_555
H4_166 C4_166 1_555 1_555
C7_166 H7_166 1_555 1_555
C8_166 N15_41 1_555 1_555
H8_166 C8_166 1_555 1_555
N14_88 Ag6_30 1_555 1_555
N3_166 N4_166 1_555 1_555
N9_155 C1_155 1_555 1_555
N9_155 C2_155 1_555 1_555
N11_166 C4_166 1_555 1_555
N12_166 C8_166 1_555 1_555
N13_89 N14_74 1_555 1_555
N14_74 C6_166 1_555 1_555
C5_166 N13_89 1_555 1_555
H5_166 C5_166 1_555 1_555
H6_166 C6_166 1_555 1_555
Ag3_21 N2_167 1_555 1_555
Ag5_36 N1_167 1_555 1_555
N1_167 N2_167 1_555 1_555
N2_167 C3_167 1_555 1_555
N3_167 Ag5_36 1_555 1_555
N4_167 Ag3_21 1_555 1_555
N13_86 N14_46 1_555 1_555
N14_46 C6_167 1_555 1_555
N15_75 N16_68 1_555 1_555
N16_68 C7_167 1_555 1_555
N9_156 N10_156 1_555 1_555
N10_156 C5_167 1_555 1_555
N11_167 N12_167 1_555 1_555
N12_167 C7_167 1_555 1_555
C1_156 N4_167 1_555 1_555
H1_167 C1_156 1_555 1_555
C2_156 N3_167 1_555 1_555
H2_156 C2_156 1_555 1_555
C3_167 N11_167 1_555 1_555
H3_167 C3_167 1_555 1_555
C4_167 N1_167 1_555 1_555
H4_167 C4_167 1_555 1_555
C5_167 N13_86 1_555 1_555
H5_167 C5_167 1_555 1_555
C6_167 N10_156 1_555 1_555
H6_167 C6_167 1_555 1_555
C7_167 H7_167 1_555 1_555
C8_167 N15_75 1_555 1_555
H8_167 C8_167 1_555 1_555
N13_95 Ag5_36 1_555 1_555
N3_167 N4_167 1_555 1_555
N9_156 C1_156 1_555 1_555
N9_156 C2_156 1_555 1_555
N11_167 C4_167 1_555 1_555
N12_167 C8_167 1_555 1_555
Ag4_27 N2_168 1_555 1_555
Ag5_57 N1_168 1_555 1_555
N1_168 N2_168 1_555 1_555
N2_168 C3_168 1_555 1_555
N3_168 Ag5_57 1_555 1_555
N4_168 Ag4_27 1_555 1_555
N13_75 N14_79 1_555 1_555
N14_79 C6_168 1_555 1_555
N15_30 N16_4 1_555 1_555
N16_4 C7_168 1_555 1_555
N9_157 N10_157 1_555 1_555
N10_157 C5_168 1_555 1_555
N11_168 N12_168 1_555 1_555
N12_168 C7_168 1_555 1_555
C1_157 N4_168 1_555 1_555
H1_168 C1_157 1_555 1_555
C2_157 N3_168 1_555 1_555
H2_157 C2_157 1_555 1_555
C3_168 N11_168 1_555 1_555
H3_168 C3_168 1_555 1_555
C4_168 N1_168 1_555 1_555
H4_168 C4_168 1_555 1_555
C5_168 N13_75 1_555 1_555
H5_168 C5_168 1_555 1_555
C6_168 N10_157 1_555 1_555
H6_168 C6_168 1_555 1_555
C7_168 H7_168 1_555 1_555
C8_168 N15_30 1_555 1_555
H8_168 C8_168 1_555 1_555
N3_168 N4_168 1_555 1_555
N9_157 C1_157 1_555 1_555
N9_157 C2_157 1_555 1_555
N11_168 C4_168 1_555 1_555
N12_168 C8_168 1_555 1_555
N13_65 N14_57 1_555 1_555
N14_57 C6_169 1_555 1_555
C5_169 N13_65 1_555 1_555
H5_169 C5_169 1_555 1_555
H6_169 C6_169 1_555 1_555
Ag4_34 N2_169 1_555 1_555
Ag5_55 N1_169 1_555 1_555
N1_169 N2_169 1_555 1_555
N2_169 C3_169 1_555 1_555
N3_169 Ag5_55 1_555 1_555
N4_169 Ag4_34 1_555 1_555
N15_56 N16_89 1_555 1_555
N16_89 C7_169 1_555 1_555
N9_158 N10_158 1_555 1_555
N11_169 N12_169 1_555 1_555
N12_169 C7_169 1_555 1_555
C1_158 N4_169 1_555 1_555
C2_158 N3_169 1_555 1_555
H2_158 C2_158 1_555 1_555
C3_169 N11_169 1_555 1_555
H3_169 C3_169 1_555 1_555
C4_169 N1_169 1_555 1_555
H4_169 C4_169 1_555 1_555
C7_169 H7_169 1_555 1_555
C8_169 N15_56 1_555 1_555
H8_169 C8_169 1_555 1_555
N3_169 N4_169 1_555 1_555
N9_158 C1_158 1_555 1_555
N9_158 C2_158 1_555 1_555
N11_169 C4_169 1_555 1_555
N12_169 C8_169 1_555 1_555
Ag4_37 N2_170 1_555 1_555
Ag6_50 N1_170 1_555 1_555
N1_170 N2_170 1_555 1_555
N2_170 C3_170 1_555 1_555
N3_170 Ag6_50 1_555 1_555
N4_170 Ag4_37 1_555 1_555
N13_88 N6_103 1_555 1_555
N6_103 C6_170 1_555 1_555
N15_39 N16_94 1_555 1_555
N16_94 C7_170 1_555 1_555
N9_159 N10_159 1_555 1_555
N10_159 C5_170 1_555 1_555
N11_170 N12_170 1_555 1_555
N12_170 C7_170 1_555 1_555
C1_159 N4_170 1_555 1_555
H1_170 C1_159 1_555 1_555
C2_159 N3_170 1_555 1_555
H2_159 C2_159 1_555 1_555
C3_170 N11_170 1_555 1_555
H3_170 C3_170 1_555 1_555
C4_170 N1_170 1_555 1_555
H4_170 C4_170 1_555 1_555
C5_170 N13_88 1_555 1_555
H5_170 C5_170 1_555 1_555
C6_170 N10_159 1_555 1_555
H6_170 C6_170 1_555 1_555
C7_170 H7_170 1_555 1_555
C8_170 N15_39 1_555 1_555
H8_170 C8_170 1_555 1_555
Ag6_31 N6_103 1_555 1_555
N3_170 N4_170 1_555 1_555
N9_159 C1_159 1_555 1_555
N9_159 C2_159 1_555 1_555
N11_170 C4_170 1_555 1_555
N12_170 C8_170 1_555 1_555
N13_62 N14_60 1_555 1_555
N14_60 C6_171 1_555 1_555
C5_171 N13_62 1_555 1_555
H5_171 C5_171 1_555 1_555
H6_171 C6_171 1_555 1_555
Ag3_39 N2_171 1_555 1_555
Ag5_54 N1_171 1_555 1_555
N1_171 N2_171 1_555 1_555
N2_171 C3_171 1_555 1_555
N3_171 Ag5_54 1_555 1_555
N4_171 Ag3_39 1_555 1_555
N15_24 N16_14 1_555 1_555
N16_14 C7_171 1_555 1_555
N9_160 N10_160 1_555 1_555
N11_171 N12_171 1_555 1_555
N12_171 C7_171 1_555 1_555
C1_160 N4_171 1_555 1_555
C2_160 N3_171 1_555 1_555
H2_160 C2_160 1_555 1_555
C3_171 N11_171 1_555 1_555
H3_171 C3_171 1_555 1_555
C4_171 N1_171 1_555 1_555
H4_171 C4_171 1_555 1_555
C7_171 H7_171 1_555 1_555
C8_171 N15_24 1_555 1_555
H8_171 C8_171 1_555 1_555
N3_171 N4_171 1_555 1_555
N9_160 C1_160 1_555 1_555
N9_160 C2_160 1_555 1_555
N11_171 C4_171 1_555 1_555
N12_171 C8_171 1_555 1_555
N13_55 N14_88 1_555 1_555
N14_88 C6_172 1_555 1_555
N9_161 N10_161 1_555 1_555
N10_161 C5_172 1_555 1_555
H1_172 C1_161 1_555 1_555
H2_161 C2_161 1_555 1_555
C5_172 N13_55 1_555 1_555
H5_172 C5_172 1_555 1_555
C6_172 N10_161 1_555 1_555
H6_172 C6_172 1_555 1_555
N9_161 C1_161 1_555 1_555
N9_161 C2_161 1_555 1_555
Ag3_48 N2_172 1_555 1_555
Ag6_44 N1_172 1_555 1_555
N1_172 N2_172 1_555 1_555
N2_172 C3_172 1_555 1_555
N3_172 Ag6_44 1_555 1_555
N4_172 Ag3_48 1_555 1_555
N15_66 N16_31 1_555 1_555
N16_31 C7_172 1_555 1_555
N11_172 N12_172 1_555 1_555
N12_172 C7_172 1_555 1_555
C3_172 N11_172 1_555 1_555
H3_172 C3_172 1_555 1_555
C4_172 N1_172 1_555 1_555
H4_172 C4_172 1_555 1_555
C7_172 H7_172 1_555 1_555
C8_172 N15_66 1_555 1_555
H8_172 C8_172 1_555 1_555
N3_172 N4_172 1_555 1_555
N11_172 C4_172 1_555 1_555
N12_172 C8_172 1_555 1_555
N13_90 N14_72 1_555 1_555
N14_72 C6_173 1_555 1_555
N9_162 N10_162 1_555 1_555
N10_162 C5_173 1_555 1_555
H1_173 C1_162 1_555 1_555
H2_162 C2_162 1_555 1_555
C5_173 N13_90 1_555 1_555
H5_173 C5_173 1_555 1_555
C6_173 N10_162 1_555 1_555
H6_173 C6_173 1_555 1_555
N9_162 C1_162 1_555 1_555
N9_162 C2_162 1_555 1_555
Ag3_19 N2_173 1_555 1_555
Ag6_41 N1_173 1_555 1_555
N1_173 N2_173 1_555 1_555
N2_173 C3_173 1_555 1_555
N3_173 Ag6_41 1_555 1_555
N4_173 Ag3_19 1_555 1_555
N15_59 N16_58 1_555 1_555
N16_58 C7_173 1_555 1_555
N11_173 N12_173 1_555 1_555
N12_173 C7_173 1_555 1_555
C3_173 N11_173 1_555 1_555
H3_173 C3_173 1_555 1_555
C4_173 N1_173 1_555 1_555
H4_173 C4_173 1_555 1_555
C7_173 H7_173 1_555 1_555
C8_173 N15_59 1_555 1_555
H8_173 C8_173 1_555 1_555
N3_173 N4_173 1_555 1_555
N11_173 C4_173 1_555 1_555
N12_173 C8_173 1_555 1_555
Ag4_24 N2_174 1_555 1_555
Ag6_51 N1_174 1_555 1_555
N1_174 N2_174 1_555 1_555
N2_174 C3_174 1_555 1_555
N3_174 Ag6_51 1_555 1_555
N4_174 Ag4_24 1_555 1_555
N13_64 N14_54 1_555 1_555
N14_54 C6_174 1_555 1_555
N15_71 N16_64 1_555 1_555
N16_64 C7_174 1_555 1_555
N9_163 N10_163 1_555 1_555
N10_163 C5_174 1_555 1_555
N11_174 N12_174 1_555 1_555
N12_174 C7_174 1_555 1_555
C1_163 N4_174 1_555 1_555
H1_174 C1_163 1_555 1_555
C2_163 N3_174 1_555 1_555
H2_163 C2_163 1_555 1_555
C3_174 N11_174 1_555 1_555
H3_174 C3_174 1_555 1_555
C4_174 N1_174 1_555 1_555
H4_174 C4_174 1_555 1_555
C5_174 N13_64 1_555 1_555
H5_174 C5_174 1_555 1_555
C6_174 N10_163 1_555 1_555
H6_174 C6_174 1_555 1_555
C7_174 H7_174 1_555 1_555
C8_174 N15_71 1_555 1_555
H8_174 C8_174 1_555 1_555
N3_174 N4_174 1_555 1_555
N9_163 C1_163 1_555 1_555
N9_163 C2_163 1_555 1_555
N11_174 C4_174 1_555 1_555
N12_174 C8_174 1_555 1_555
Ag3_28 N2_175 1_555 1_555
Ag6_31 N1_175 1_555 1_555
N1_175 N2_175 1_555 1_555
N2_175 C3_175 1_555 1_555
N3_175 Ag6_31 1_555 1_555
N4_175 Ag3_28 1_555 1_555
N5_96 N14_81 1_555 1_555
N14_81 C6_175 1_555 1_555
N15_62 N16_72 1_555 1_555
N16_72 C7_175 1_555 1_555
N9_164 N10_164 1_555 1_555
N10_164 C5_175 1_555 1_555
N11_175 N12_175 1_555 1_555
N12_175 C7_175 1_555 1_555
C1_164 N4_175 1_555 1_555
H1_175 C1_164 1_555 1_555
C2_164 N3_175 1_555 1_555
H2_164 C2_164 1_555 1_555
C3_175 N11_175 1_555 1_555
H3_175 C3_175 1_555 1_555
C4_175 N1_175 1_555 1_555
H4_175 C4_175 1_555 1_555
C5_175 N5_96 1_555 1_555
H5_175 C5_175 1_555 1_555
C6_175 N10_164 1_555 1_555
H6_175 C6_175 1_555 1_555
C7_175 H7_175 1_555 1_555
C8_175 N15_62 1_555 1_555
H8_175 C8_175 1_555 1_555
Ag5_45 N5_96 1_555 1_555
N3_175 N4_175 1_555 1_555
N9_164 C1_164 1_555 1_555
N9_164 C2_164 1_555 1_555
N11_175 C4_175 1_555 1_555
N12_175 C8_175 1_555 1_555
Ag3_46 N2_176 1_555 1_555
Ag5_50 N1_176 1_555 1_555
N1_176 N2_176 1_555 1_555
N2_176 C3_176 1_555 1_555
N3_176 Ag5_50 1_555 1_555
N4_176 Ag3_46 1_555 1_555
N13_73 N14_63 1_555 1_555
N14_63 C6_176 1_555 1_555
N15_57 N16_74 1_555 1_555
N16_74 C7_176 1_555 1_555
N9_165 N10_165 1_555 1_555
N10_165 C5_176 1_555 1_555
N11_176 N12_176 1_555 1_555
N12_176 C7_176 1_555 1_555
C1_165 N4_176 1_555 1_555
H1_176 C1_165 1_555 1_555
C2_165 N3_176 1_555 1_555
H2_165 C2_165 1_555 1_555
C3_176 N11_176 1_555 1_555
H3_176 C3_176 1_555 1_555
C4_176 N1_176 1_555 1_555
H4_176 C4_176 1_555 1_555
C5_176 N13_73 1_555 1_555
H5_176 C5_176 1_555 1_555
C6_176 N10_165 1_555 1_555
H6_176 C6_176 1_555 1_555
C7_176 H7_176 1_555 1_555
C8_176 N15_57 1_555 1_555
H8_176 C8_176 1_555 1_555
N13_96 Ag5_50 1_555 1_555
N3_176 N4_176 1_555 1_555
N9_165 C1_165 1_555 1_555
N9_165 C2_165 1_555 1_555
N11_176 C4_176 1_555 1_555
N12_176 C8_176 1_555 1_555
Ag3_13 N2_177 1_555 1_555
Ag6_52 N1_177 1_555 1_555
N1_177 N2_177 1_555 1_555
N2_177 C3_177 1_555 1_555
N3_177 Ag6_52 1_555 1_555
N4_177 Ag3_13 1_555 1_555
N13_59 N14_59 1_555 1_555
N14_59 C6_177 1_555 1_555
N15_34 N16_35 1_555 1_555
N16_35 C7_177 1_555 1_555
N9_166 N10_166 1_555 1_555
N10_166 C5_177 1_555 1_555
N11_177 N12_177 1_555 1_555
N12_177 C7_177 1_555 1_555
C1_166 N4_177 1_555 1_555
H1_177 C1_166 1_555 1_555
C2_166 N3_177 1_555 1_555
H2_166 C2_166 1_555 1_555
C3_177 N11_177 1_555 1_555
H3_177 C3_177 1_555 1_555
C4_177 N1_177 1_555 1_555
H4_177 C4_177 1_555 1_555
C5_177 N13_59 1_555 1_555
H5_177 C5_177 1_555 1_555
C6_177 N10_166 1_555 1_555
H6_177 C6_177 1_555 1_555
C7_177 H7_177 1_555 1_555
C8_177 N15_34 1_555 1_555
H8_177 C8_177 1_555 1_555
N3_177 N4_177 1_555 1_555
N9_166 C1_166 1_555 1_555
N9_166 C2_166 1_555 1_555
N11_177 C4_177 1_555 1_555
N12_177 C8_177 1_555 1_555
N13_85 N14_70 1_555 1_555
N14_70 C6_178 1_555 1_555
N9_167 N10_167 1_555 1_555
N10_167 C5_178 1_555 1_555
H1_178 C1_167 1_555 1_555
H2_167 C2_167 1_555 1_555
C5_178 N13_85 1_555 1_555
H5_178 C5_178 1_555 1_555
C6_178 N10_167 1_555 1_555
H6_178 C6_178 1_555 1_555
N9_167 C1_167 1_555 1_555
N9_167 C2_167 1_555 1_555
Ag4_33 N2_178 1_555 1_555
Ag5_46 N1_178 1_555 1_555
N1_178 N2_178 1_555 1_555
N2_178 C3_178 1_555 1_555
N3_178 Ag5_46 1_555 1_555
N4_178 Ag4_33 1_555 1_555
N15_25 N16_43 1_555 1_555
N16_43 C7_178 1_555 1_555
N11_178 N12_178 1_555 1_555
N12_178 C7_178 1_555 1_555
C3_178 N11_178 1_555 1_555
H3_178 C3_178 1_555 1_555
C4_178 N1_178 1_555 1_555
H4_178 C4_178 1_555 1_555
C7_178 H7_178 1_555 1_555
C8_178 N15_25 1_555 1_555
H8_178 C8_178 1_555 1_555
N3_178 N4_178 1_555 1_555
N11_178 C4_178 1_555 1_555
N12_178 C8_178 1_555 1_555
Ag3_33 N2_179 1_555 1_555
Ag5_35 N1_179 1_555 1_555
N1_179 N2_179 1_555 1_555
N2_179 C3_179 1_555 1_555
N3_179 Ag5_35 1_555 1_555
N4_179 Ag3_33 1_555 1_555
N13_92 N14_86 1_555 1_555
N14_86 C6_179 1_555 1_555
N15_45 N16_85 1_555 1_555
N16_85 C7_179 1_555 1_555
N9_168 N10_168 1_555 1_555
N10_168 C5_179 1_555 1_555
N11_179 N12_179 1_555 1_555
N12_179 C7_179 1_555 1_555
C1_168 N4_179 1_555 1_555
H1_179 C1_168 1_555 1_555
C2_168 N3_179 1_555 1_555
H2_168 C2_168 1_555 1_555
C3_179 N11_179 1_555 1_555
H3_179 C3_179 1_555 1_555
C4_179 N1_179 1_555 1_555
H4_179 C4_179 1_555 1_555
C5_179 N13_92 1_555 1_555
H5_179 C5_179 1_555 1_555
C6_179 N10_168 1_555 1_555
H6_179 C6_179 1_555 1_555
C7_179 H7_179 1_555 1_555
C8_179 N15_45 1_555 1_555
H8_179 C8_179 1_555 1_555
N3_179 N4_179 1_555 1_555
N9_168 C1_168 1_555 1_555
N9_168 C2_168 1_555 1_555
N11_179 C4_179 1_555 1_555
N12_179 C8_179 1_555 1_555
Ag3_16 N2_180 1_555 1_555
Ag6_56 N1_180 1_555 1_555
N1_180 N2_180 1_555 1_555
N2_180 C3_180 1_555 1_555
N3_180 Ag6_56 1_555 1_555
N4_180 Ag3_16 1_555 1_555
N13_77 N14_69 1_555 1_555
N14_69 C6_180 1_555 1_555
N15_52 N16_78 1_555 1_555
N16_78 C7_180 1_555 1_555
N9_169 N10_169 1_555 1_555
N10_169 C5_180 1_555 1_555
N11_180 N12_180 1_555 1_555
N12_180 C7_180 1_555 1_555
C1_169 N4_180 1_555 1_555
H1_180 C1_169 1_555 1_555
C2_169 N3_180 1_555 1_555
H2_169 C2_169 1_555 1_555
C3_180 N11_180 1_555 1_555
H3_180 C3_180 1_555 1_555
C4_180 N1_180 1_555 1_555
H4_180 C4_180 1_555 1_555
C5_180 N13_77 1_555 1_555
H5_180 C5_180 1_555 1_555
C6_180 N10_169 1_555 1_555
H6_180 C6_180 1_555 1_555
C7_180 H7_180 1_555 1_555
C8_180 N15_52 1_555 1_555
H8_180 C8_180 1_555 1_555
N3_180 N4_180 1_555 1_555
N9_169 C1_169 1_555 1_555
N9_169 C2_169 1_555 1_555
N11_180 C4_180 1_555 1_555
N12_180 C8_180 1_555 1_555
Ag4_20 N2_181 1_555 1_555
Ag6_55 N1_181 1_555 1_555
N1_181 N2_181 1_555 1_555
N2_181 C3_181 1_555 1_555
N3_181 Ag6_55 1_555 1_555
N4_181 Ag4_20 1_555 1_555
N13_80 N14_67 1_555 1_555
N14_67 C6_181 1_555 1_555
N15_26 N16_9 1_555 1_555
N16_9 C7_181 1_555 1_555
N9_170 N10_170 1_555 1_555
N10_170 C5_181 1_555 1_555
N11_181 N12_181 1_555 1_555
N12_181 C7_181 1_555 1_555
C1_170 N4_181 1_555 1_555
H1_181 C1_170 1_555 1_555
C2_170 N3_181 1_555 1_555
H2_170 C2_170 1_555 1_555
C3_181 N11_181 1_555 1_555
H3_181 C3_181 1_555 1_555
C4_181 N1_181 1_555 1_555
H4_181 C4_181 1_555 1_555
C5_181 N13_80 1_555 1_555
H5_181 C5_181 1_555 1_555
C6_181 N10_170 1_555 1_555
H6_181 C6_181 1_555 1_555
C7_181 H7_181 1_555 1_555
C8_181 N15_26 1_555 1_555
H8_181 C8_181 1_555 1_555
N3_181 N4_181 1_555 1_555
N9_170 C1_170 1_555 1_555
N9_170 C2_170 1_555 1_555
N11_181 C4_181 1_555 1_555
N12_181 C8_181 1_555 1_555
Ag3_3 N2_182 1_555 1_555
Ag5_31 N1_182 1_555 1_555
N1_182 N2_182 1_555 1_555
N2_182 C3_182 1_555 1_555
N3_182 Ag5_31 1_555 1_555
N4_182 Ag3_3 1_555 1_555
N15_22 N16_63 1_555 1_555
N16_63 C7_182 1_555 1_555
N11_182 N12_182 1_555 1_555
N12_182 C7_182 1_555 1_555
C3_182 N11_182 1_555 1_555
H3_182 C3_182 1_555 1_555
C4_182 N1_182 1_555 1_555
H4_182 C4_182 1_555 1_555
C7_182 H7_182 1_555 1_555
C8_182 N15_22 1_555 1_555
H8_182 C8_182 1_555 1_555
N3_182 N4_182 1_555 1_555
N11_182 C4_182 1_555 1_555
N12_182 C8_182 1_555 1_555
N13_93 N14_85 1_555 1_555
N14_85 C6_182 1_555 1_555
N9_171 N10_171 1_555 1_555
N10_171 C5_182 1_555 1_555
H1_182 C1_171 1_555 1_555
H2_171 C2_171 1_555 1_555
C5_182 N13_93 1_555 1_555
H5_182 C5_182 1_555 1_555
C6_182 N10_171 1_555 1_555
H6_182 C6_182 1_555 1_555
N9_171 C1_171 1_555 1_555
N9_171 C2_171 1_555 1_555
Ag4_26 N2_183 1_555 1_555
Ag5_59 N1_183 1_555 1_555
N1_183 N2_183 1_555 1_555
N2_183 C3_183 1_555 1_555
N3_183 Ag5_59 1_555 1_555
N4_183 Ag4_26 1_555 1_555
N13_74 N14_71 1_555 1_555
N14_71 C6_183 1_555 1_555
N15_20 N16_27 1_555 1_555
N16_27 C7_183 1_555 1_555
N9_172 N10_172 1_555 1_555
N10_172 C5_183 1_555 1_555
N11_183 N12_183 1_555 1_555
N12_183 C7_183 1_555 1_555
C1_172 N4_183 1_555 1_555
H1_183 C1_172 1_555 1_555
C2_172 N3_183 1_555 1_555
H2_172 C2_172 1_555 1_555
C3_183 N11_183 1_555 1_555
H3_183 C3_183 1_555 1_555
C4_183 N1_183 1_555 1_555
H4_183 C4_183 1_555 1_555
C5_183 N13_74 1_555 1_555
H5_183 C5_183 1_555 1_555
C6_183 N10_172 1_555 1_555
H6_183 C6_183 1_555 1_555
C7_183 H7_183 1_555 1_555
C8_183 N15_20 1_555 1_555
H8_183 C8_183 1_555 1_555
N3_183 N4_183 1_555 1_555
N9_172 C1_172 1_555 1_555
N9_172 C2_172 1_555 1_555
N11_183 C4_183 1_555 1_555
N12_183 C8_183 1_555 1_555
Ag4_45 N2_184 1_555 1_555
Ag6_33 N1_184 1_555 1_555
N1_184 N2_184 1_555 1_555
N2_184 C3_184 1_555 1_555
N3_184 Ag6_33 1_555 1_555
N4_184 Ag4_45 1_555 1_555
N13_91 N14_87 1_555 1_555
N14_87 C6_184 1_555 1_555
N15_53 N16_12 1_555 1_555
N16_12 C7_184 1_555 1_555
N9_173 N10_173 1_555 1_555
N10_173 C5_184 1_555 1_555
N11_184 N12_184 1_555 1_555
N12_184 C7_184 1_555 1_555
C1_173 N4_184 1_555 1_555
H1_184 C1_173 1_555 1_555
C2_173 N3_184 1_555 1_555
H2_173 C2_173 1_555 1_555
C3_184 N11_184 1_555 1_555
H3_184 C3_184 1_555 1_555
C4_184 N1_184 1_555 1_555
H4_184 C4_184 1_555 1_555
C5_184 N13_91 1_555 1_555
H5_184 C5_184 1_555 1_555
C6_184 N10_173 1_555 1_555
H6_184 C6_184 1_555 1_555
C7_184 H7_184 1_555 1_555
C8_184 N15_53 1_555 1_555
H8_184 C8_184 1_555 1_555
N3_184 N4_184 1_555 1_555
N9_173 C1_173 1_555 1_555
N9_173 C2_173 1_555 1_555
N11_184 C4_184 1_555 1_555
N12_184 C8_184 1_555 1_555
Ag4_22 N2_185 1_555 1_555
Ag6_29 N1_185 1_555 1_555
N1_185 N2_185 1_555 1_555
N2_185 C3_185 1_555 1_555
N3_185 Ag6_29 1_555 1_555
N4_185 Ag4_22 1_555 1_555
N15_55 N16_42 1_555 1_555
N16_42 C7_185 1_555 1_555
N11_185 N12_185 1_555 1_555
N12_185 C7_185 1_555 1_555
C3_185 N11_185 1_555 1_555
H3_185 C3_185 1_555 1_555
C4_185 N1_185 1_555 1_555
H4_185 C4_185 1_555 1_555
C7_185 H7_185 1_555 1_555
C8_185 N15_55 1_555 1_555
H8_185 C8_185 1_555 1_555
N3_185 N4_185 1_555 1_555
N11_185 C4_185 1_555 1_555
N12_185 C8_185 1_555 1_555
N13_94 N14_84 1_555 1_555
N14_84 C6_185 1_555 1_555
N9_174 N10_174 1_555 1_555
N10_174 C5_185 1_555 1_555
H1_185 C1_174 1_555 1_555
H2_174 C2_174 1_555 1_555
C5_185 N13_94 1_555 1_555
H5_185 C5_185 1_555 1_555
C6_185 N10_174 1_555 1_555
H6_185 C6_185 1_555 1_555
N9_174 C1_174 1_555 1_555
N9_174 C2_174 1_555 1_555
Ag3_41 N2_186 1_555 1_555
Ag5_60 N1_186 1_555 1_555
N1_186 N2_186 1_555 1_555
N2_186 C3_186 1_555 1_555
N3_186 Ag5_60 1_555 1_555
N4_186 Ag3_41 1_555 1_555
N13_72 N14_73 1_555 1_555
N14_73 C6_186 1_555 1_555
N15_67 N16_49 1_555 1_555
N16_49 C7_186 1_555 1_555
N9_175 N10_175 1_555 1_555
N10_175 C5_186 1_555 1_555
N11_186 N12_186 1_555 1_555
N12_186 C7_186 1_555 1_555
C1_175 N4_186 1_555 1_555
H1_186 C1_175 1_555 1_555
C2_175 N3_186 1_555 1_555
H2_175 C2_175 1_555 1_555
C3_186 N11_186 1_555 1_555
H3_186 C3_186 1_555 1_555
C4_186 N1_186 1_555 1_555
H4_186 C4_186 1_555 1_555
C5_186 N13_72 1_555 1_555
H5_186 C5_186 1_555 1_555
C6_186 N10_175 1_555 1_555
H6_186 C6_186 1_555 1_555
C7_186 H7_186 1_555 1_555
C8_186 N15_67 1_555 1_555
H8_186 C8_186 1_555 1_555
N3_186 N4_186 1_555 1_555
N9_175 C1_175 1_555 1_555
N9_175 C2_175 1_555 1_555
N11_186 C4_186 1_555 1_555
N12_186 C8_186 1_555 1_555
N13_53 N6_104 1_555 1_555
N6_104 C6_187 1_555 1_555
C5_187 N13_53 1_555 1_555
H5_187 C5_187 1_555 1_555
H6_187 C6_187 1_555 1_555
Ag6_54 N6_104 1_555 1_555
Ag3_34 N2_187 1_555 1_555
Ag5_47 N1_187 1_555 1_555
N1_187 N2_187 1_555 1_555
N2_187 C3_187 1_555 1_555
N3_187 Ag5_47 1_555 1_555
N4_187 Ag3_34 1_555 1_555
N15_60 N16_5 1_555 1_555
N16_5 C7_187 1_555 1_555
N11_187 N12_187 1_555 1_555
N12_187 C7_187 1_555 1_555
C3_187 N11_187 1_555 1_555
H3_187 C3_187 1_555 1_555
C4_187 N1_187 1_555 1_555
H4_187 C4_187 1_555 1_555
C7_187 H7_187 1_555 1_555
C8_187 N15_60 1_555 1_555
H8_187 C8_187 1_555 1_555
N3_187 N4_187 1_555 1_555
N11_187 C4_187 1_555 1_555
N12_187 C8_187 1_555 1_555
Ag4_15 N2_188 1_555 1_555
Ag5_37 N1_188 1_555 1_555
N1_188 N2_188 1_555 1_555
N2_188 C3_188 1_555 1_555
N3_188 Ag5_37 1_555 1_555
N4_188 Ag4_15 1_555 1_555
N13_87 N14_83 1_555 1_555
N14_83 C6_188 1_555 1_555
N15_13 N16_69 1_555 1_555
N16_69 C7_188 1_555 1_555
N9_176 N10_176 1_555 1_555
N10_176 C5_188 1_555 1_555
N11_188 N12_188 1_555 1_555
N12_188 C7_188 1_555 1_555
C1_176 N4_188 1_555 1_555
H1_188 C1_176 1_555 1_555
C2_176 N3_188 1_555 1_555
H2_176 C2_176 1_555 1_555
C3_188 N11_188 1_555 1_555
H3_188 C3_188 1_555 1_555
C4_188 N1_188 1_555 1_555
H4_188 C4_188 1_555 1_555
C5_188 N13_87 1_555 1_555
H5_188 C5_188 1_555 1_555
C6_188 N10_176 1_555 1_555
H6_188 C6_188 1_555 1_555
C7_188 H7_188 1_555 1_555
C8_188 N15_13 1_555 1_555
H8_188 C8_188 1_555 1_555
N3_188 N4_188 1_555 1_555
N9_176 C1_176 1_555 1_555
N9_176 C2_176 1_555 1_555
N11_188 C4_188 1_555 1_555
N12_188 C8_188 1_555 1_555
N13_95 N14_66 1_555 1_555
N14_66 C6_189 1_555 1_555
N9_177 N10_177 1_555 1_555
N10_177 C5_189 1_555 1_555
H1_189 C1_177 1_555 1_555
H2_177 C2_177 1_555 1_555
C5_189 N13_95 1_555 1_555
H5_189 C5_189 1_555 1_555
C6_189 N10_177 1_555 1_555
H6_189 C6_189 1_555 1_555
N9_177 C1_177 1_555 1_555
N9_177 C2_177 1_555 1_555
Ag4_35 N2_189 1_555 1_555
Ag6_54 N1_189 1_555 1_555
N1_189 N2_189 1_555 1_555
N2_189 C3_189 1_555 1_555
N3_189 Ag6_54 1_555 1_555
N4_189 Ag4_35 1_555 1_555
N15_40 N16_47 1_555 1_555
N16_47 C7_189 1_555 1_555
N11_189 N12_189 1_555 1_555
N12_189 C7_189 1_555 1_555
C3_189 N11_189 1_555 1_555
H3_189 C3_189 1_555 1_555
C4_189 N1_189 1_555 1_555
H4_189 C4_189 1_555 1_555
C7_189 H7_189 1_555 1_555
C8_189 N15_40 1_555 1_555
H8_189 C8_189 1_555 1_555
N3_189 N4_189 1_555 1_555
N11_189 C4_189 1_555 1_555
N12_189 C8_189 1_555 1_555
Ag4_14 N2_190 1_555 1_555
Ag6_46 N1_190 1_555 1_555
N1_190 N2_190 1_555 1_555
N2_190 C3_190 1_555 1_555
N3_190 Ag6_46 1_555 1_555
N4_190 Ag4_14 1_555 1_555
N13_96 N14_53 1_555 1_555
N14_53 C6_190 1_555 1_555
N15_17 N16_32 1_555 1_555
N16_32 C7_190 1_555 1_555
N9_178 N10_178 1_555 1_555
N10_178 C5_190 1_555 1_555
N11_190 N12_190 1_555 1_555
N12_190 C7_190 1_555 1_555
C1_178 N4_190 1_555 1_555
H1_190 C1_178 1_555 1_555
C2_178 N3_190 1_555 1_555
H2_178 C2_178 1_555 1_555
C3_190 N11_190 1_555 1_555
H3_190 C3_190 1_555 1_555
C4_190 N1_190 1_555 1_555
H4_190 C4_190 1_555 1_555
C5_190 N13_96 1_555 1_555
H5_190 C5_190 1_555 1_555
C6_190 N10_178 1_555 1_555
H6_190 C6_190 1_555 1_555
C7_190 H7_190 1_555 1_555
C8_190 N15_17 1_555 1_555
H8_190 C8_190 1_555 1_555
N3_190 N4_190 1_555 1_555
N9_178 C1_178 1_555 1_555
N9_178 C2_178 1_555 1_555
N11_190 C4_190 1_555 1_555
N12_190 C8_190 1_555 1_555
Ag3_45 N2_191 1_555 1_555
Ag5_52 N1_191 1_555 1_555
N1_191 N2_191 1_555 1_555
N2_191 C3_191 1_555 1_555
N3_191 Ag5_52 1_555 1_555
N4_191 Ag3_45 1_555 1_555
N13_68 N14_68 1_555 1_555
N14_68 C6_191 1_555 1_555
N15_51 N16_92 1_555 1_555
N16_92 C7_191 1_555 1_555
N9_179 N10_179 1_555 1_555
N10_179 C5_191 1_555 1_555
N11_191 N12_191 1_555 1_555
N12_191 C7_191 1_555 1_555
C1_179 N4_191 1_555 1_555
H1_191 C1_179 1_555 1_555
C2_179 N3_191 1_555 1_555
H2_179 C2_179 1_555 1_555
C3_191 N11_191 1_555 1_555
H3_191 C3_191 1_555 1_555
C4_191 N1_191 1_555 1_555
H4_191 C4_191 1_555 1_555
C5_191 N13_68 1_555 1_555
H5_191 C5_191 1_555 1_555
C6_191 N10_179 1_555 1_555
H6_191 C6_191 1_555 1_555
C7_191 H7_191 1_555 1_555
C8_191 N15_51 1_555 1_555
H8_191 C8_191 1_555 1_555
N3_191 N4_191 1_555 1_555
N9_179 C1_179 1_555 1_555
N9_179 C2_179 1_555 1_555
N11_191 C4_191 1_555 1_555
N12_191 C8_191 1_555 1_555
Ag4_3 N2_192 1_555 1_555
Ag5_45 N1_192 1_555 1_555
N1_192 N2_192 1_555 1_555
N2_192 C3_192 1_555 1_555
N3_192 Ag5_45 1_555 1_555
N4_192 Ag4_3 1_555 1_555
N13_52 N14_62 1_555 1_555
N14_62 C6_192 1_555 1_555
N15_6 N16_28 1_555 1_555
N16_28 C7_192 1_555 1_555
N9_180 N10_180 1_555 1_555
N10_180 C5_192 1_555 1_555
N11_192 N12_192 1_555 1_555
N12_192 C7_192 1_555 1_555
C1_180 N4_192 1_555 1_555
H1_192 C1_180 1_555 1_555
C2_180 N3_192 1_555 1_555
H2_180 C2_180 1_555 1_555
C3_192 N11_192 1_555 1_555
H3_192 C3_192 1_555 1_555
C4_192 N1_192 1_555 1_555
H4_192 C4_192 1_555 1_555
C5_192 N13_52 1_555 1_555
H5_192 C5_192 1_555 1_555
C6_192 N10_180 1_555 1_555
H6_192 C6_192 1_555 1_555
C7_192 H7_192 1_555 1_555
C8_192 N15_6 1_555 1_555
H8_192 C8_192 1_555 1_555
N3_192 N4_192 1_555 1_555
N9_180 C1_180 1_555 1_555
N9_180 C2_180 1_555 1_555
N11_192 C4_192 1_555 1_555
N12_192 C8_192 1_555 1_555
N9_181 N10_181 1_555 1_555
H2_181 C2_181 1_555 1_555
N9_181 C1_181 1_555 1_555
N9_181 C2_181 1_555 1_555
N9_182 N10_182 1_555 1_555
H2_182 C2_182 1_555 1_555
N9_182 C1_182 1_555 1_555
N9_182 C2_182 1_555 1_555
N9_183 N10_183 1_555 1_555
H2_183 C2_183 1_555 1_555
N9_183 C1_183 1_555 1_555
N9_183 C2_183 1_555 1_555
N9_184 N10_184 1_555 1_555
H2_184 C2_184 1_555 1_555
N9_184 C1_184 1_555 1_555
N9_184 C2_184 1_555 1_555
N9_185 N10_185 1_555 1_555
H2_185 C2_185 1_555 1_555
N9_185 C1_185 1_555 1_555
N9_185 C2_185 1_555 1_555
N9_186 N10_186 1_555 1_555
H2_186 C2_186 1_555 1_555
N9_186 C1_186 1_555 1_555
N9_186 C2_186 1_555 1_555
N9_187 N10_187 1_555 1_555
H2_187 C2_187 1_555 1_555
N9_187 C1_187 1_555 1_555
N9_187 C2_187 1_555 1_555
N9_188 N10_188 1_555 1_555
H2_188 C2_188 1_555 1_555
N9_188 C1_188 1_555 1_555
N9_188 C2_188 1_555 1_555
N9_189 N10_189 1_555 1_555
H2_189 C2_189 1_555 1_555
N9_189 C1_189 1_555 1_555
N9_189 C2_189 1_555 1_555
N9_190 N10_190 1_555 1_555
H2_190 C2_190 1_555 1_555
N9_190 C1_190 1_555 1_555
N9_190 C2_190 1_555 1_555
N9_191 N10_191 1_555 1_555
H2_191 C2_191 1_555 1_555
N9_191 C1_191 1_555 1_555
N9_191 C2_191 1_555 1_555
N9_192 N10_192 1_555 1_555
H2_192 C2_192 1_555 1_555
N9_192 C1_192 1_555 1_555
N9_192 C2_192 1_555 1_555

#END
