
###############################################################################
#
# This file contains modified crystal structure data generated from the
# MOF subset of the Cambridge Structural Database (CSD) v543 
# hosted by the Cambridge Crystallographic Data Centre (CCDC).
#
# This work is licensed under the Creative Commons
# Attribution-NonCommercial-ShareAlike 4.0 International License.
# To view a copy of this license, visit
# http://creativecommons.org/licenses/by-nc-sa/4.0/
# or send a letter to
# Creative Commons, PO Box 1866, Mountain View, CA 94042, USA.
#
# CIF created using the CSD Python API on 29 September 2022
# The structure has been converted into the P1 space group
# The structure has a 3D framework
# The original CSD entry YILBIG is in the hexagonal crystal system
# The framework has been calculated to contain at least 10.0% void space
# The void calculation uses a probe of radius 1.32A, grid spacing 0.4
# H atom positions have been added when not included in the experimental data
# Generated hydrogen atom positions removed from atoms on special positions
#
###############################################################################

data_YILBIG
_chemical_formula_moiety         '(C168 H168 Cr6 N12 O68 Zn12)n'
_symmetry_cell_setting           triclinic
_symmetry_space_group_name_H-M   'P 1'
_symmetry_Int_Tables_number      1
_space_group_name_Hall           'P 1'
loop_
_symmetry_equiv_pos_site_id
_symmetry_equiv_pos_as_xyz
1 x,y,z
_cell_length_a                   18.9479(4)
_cell_length_b                   18.9479(4)
_cell_length_c                   35.9127(8)
_cell_angle_alpha                90
_cell_angle_beta                 90
_cell_angle_gamma                120
_cell_volume                     11166.1
loop_
_atom_site_label
_atom_site_type_symbol
_atom_site_fract_x
_atom_site_fract_y
_atom_site_fract_z
Zn7 Zn 0.049386(20) 0.524693(14) 0.466399(14)
Zn14 Zn 0.049386(20) 0.524693(14) 0.033601(14)
Cr1 Cr 0.27504(4) 0.55008(7) 0.2500
Zn1 Zn 0.475307(14) 0.524693(14) 0.466399(14)
O1 O 0.3333 0.6667 0.2500
O2 O 0.21280(16) 0.4256(3) 0.2500
O3 O 0.48277(17) 0.36915(15) 0.50637(7)
O4 O 0.4435(3) 0.4082(2) 0.45613(7)
C1 C 0.4294(3) 0.2780(3) 0.45638(10)
C2 C 0.4539(3) 0.3581(3) 0.47405(10)
C3 C 0.3911(5) 0.2580(4) 0.42239(13)
H1 H 0.3806 0.2959 0.4099
C4 C 0.4483(4) 0.22417(19) 0.47343(13)
H2 H 0.4746 0.2373 0.4970
C5 C 0.3680(8) 0.1840(4) 0.4063(2)
H3 H 0.3362 0.1681 0.3843
O5 O 0.34061(17) 0.54067(15) 0.28974(5)
N1 N 0.45369(10) 0.54631(10) 0.41412(9)
C6 C 0.5062(3) 0.6115(3) 0.39625(11)
H4 H 0.5548 0.6495 0.4087
C7 C 0.4941(3) 0.6277(3) 0.36015(11)
H5 H 0.5333 0.6765 0.3482
C8 C 0.40753(15) 0.59247(15) 0.30366(10)
C9 C 0.42638(12) 0.57362(12) 0.34195(10)
O6 O 0.48277(17) 0.11362(23) 0.50637(7)
O7 O 0.4435(3) 0.0353(4) 0.45613(7)
C10 C 0.4294(3) 0.1514(4) 0.45638(10)
C11 C 0.4539(3) 0.0958(4) 0.47405(10)
C12 C 0.3911(5) 0.1331(6) 0.42239(13)
H6 H 0.3806 0.0847 0.4099
O8 O 0.45933(15) 0.65939(17) 0.28974(5)
C13 C 0.3885(3) 0.4938(3) 0.39625(11)
H7 H 0.3505 0.4452 0.4087
C14 C 0.3723(3) 0.5059(3) 0.36015(11)
H8 H 0.3235 0.4667 0.3482
O9 O 0.63085(15) 0.11362(23) 0.50637(7)
O10 O 0.5918(2) 0.0353(4) 0.45613(7)
C15 C 0.7220(3) 0.1514(4) 0.45638(10)
C16 C 0.6419(3) 0.0958(4) 0.47405(10)
C17 C 0.7420(4) 0.1331(6) 0.42239(13)
H9 H 0.7041 0.0847 0.4099
C18 C 0.77583(19) 0.22413(44) 0.47343(13)
H10 H 0.7627 0.2373 0.4970
C19 C 0.8160(4) 0.1840(9) 0.4063(2)
H11 H 0.8319 0.1681 0.3843
O12 O 0.88638(23) 0.36915(15) 0.50637(7)
O13 O 0.9647(4) 0.4082(2) 0.45613(7)
C24 C 0.8486(4) 0.2780(3) 0.45638(10)
C25 C 0.9042(4) 0.3581(3) 0.47405(10)
C26 C 0.8669(6) 0.2580(4) 0.42239(13)
H14 H 0.9153 0.2959 0.4099
Cr2 Cr 0.27504(8) 0.72496(4) 0.2500
O15 O 0.21280(34) 0.78720(16) 0.2500
O16 O 0.20006(23) 0.65939(17) 0.28974(5)
N3 N 0.09262(14) 0.54631(10) 0.41412(9)
C29 C 0.1053(4) 0.4938(3) 0.39625(11)
H17 H 0.0947 0.4452 0.4087
C30 C 0.1336(4) 0.5059(3) 0.36015(11)
H18 H 0.1432 0.4667 0.3482
C31 C 0.18494(21) 0.59247(15) 0.30366(10)
C32 C 0.14724(17) 0.57362(12) 0.34195(10)
O17 O 0.20006(23) 0.54067(15) 0.28974(5)
C33 C 0.1053(4) 0.6115(3) 0.39625(11)
H19 H 0.0947 0.6495 0.4087
C34 C 0.1336(4) 0.6277(3) 0.36015(11)
H20 H 0.1432 0.6765 0.3482
Cr3 Cr 0.44992(7) 0.72496(8) 0.2500
Zn4 Zn 0.475307(14) 0.524693(14) 0.033601(14)
O18 O 0.5744(3) 0.78720(34) 0.2500
O20 O 0.5918(2) 0.5565(3) 0.04387(7)
C35 C 0.7220(3) 0.5706(3) 0.04362(10)
C36 C 0.6419(3) 0.5461(3) 0.02595(10)
C37 C 0.7420(4) 0.6089(5) 0.07761(13)
H21 H 0.7041 0.6194 0.0901
C38 C 0.77583(19) 0.5517(4) 0.02657(13)
H22 H 0.7627 0.5254 0.0030
C39 C 0.8160(4) 0.6320(8) 0.0937(2)
H23 H 0.8319 0.6638 0.1157
O21 O 0.45933(15) 0.65939(17) 0.21026(5)
N4 N 0.45369(10) 0.54631(10) 0.08588(9)
C40 C 0.3885(3) 0.4938(3) 0.10375(11)
H24 H 0.3505 0.4452 0.0913
C41 C 0.3723(3) 0.5059(3) 0.13985(11)
H25 H 0.3235 0.4667 0.1518
C42 C 0.40753(15) 0.59247(15) 0.19634(10)
C43 C 0.42638(12) 0.57362(12) 0.15805(10)
O23 O 0.9647(4) 0.5565(3) 0.04387(7)
C44 C 0.8486(4) 0.5706(3) 0.04362(10)
C45 C 0.9042(4) 0.5461(3) 0.02595(10)
C46 C 0.8669(6) 0.6089(5) 0.07761(13)
H26 H 0.9153 0.6194 0.0901
O24 O 0.34061(17) 0.54067(15) 0.21026(5)
C47 C 0.5062(3) 0.6115(3) 0.10375(11)
H27 H 0.5548 0.6495 0.0913
C48 C 0.4941(3) 0.6277(3) 0.13985(11)
H28 H 0.5333 0.6765 0.1518
O26 O 0.4435(3) 0.4082(2) 0.04387(7)
C49 C 0.4294(3) 0.2780(3) 0.04362(10)
C50 C 0.4539(3) 0.3581(3) 0.02595(10)
C51 C 0.3911(5) 0.2580(4) 0.07761(13)
H29 H 0.3806 0.2959 0.0901
C52 C 0.4483(4) 0.22413(44) 0.02657(13)
H30 H 0.4746 0.2373 0.0030
C53 C 0.3680(8) 0.1840(9) 0.0937(2)
H31 H 0.3362 0.1681 0.1157
O28 O 0.4435(3) 0.0353(4) 0.04387(7)
C54 C 0.4294(3) 0.1514(4) 0.04362(10)
C55 C 0.4539(3) 0.0958(4) 0.02595(10)
C56 C 0.3911(5) 0.1331(6) 0.07761(13)
H32 H 0.3806 0.0847 0.0901
O29 O 0.20006(23) 0.65939(17) 0.21026(5)
N5 N 0.09262(14) 0.54631(10) 0.08588(9)
C57 C 0.1053(4) 0.4938(3) 0.10375(11)
H33 H 0.0947 0.4452 0.0913
C58 C 0.1336(4) 0.5059(3) 0.13985(11)
H34 H 0.1432 0.4667 0.1518
C59 C 0.18494(21) 0.59247(15) 0.19634(10)
C60 C 0.14724(17) 0.57362(12) 0.15805(10)
O30 O 0.20006(23) 0.54067(15) 0.21026(5)
C61 C 0.1053(4) 0.6115(3) 0.10375(11)
H35 H 0.0947 0.6495 0.0913
C62 C 0.1336(4) 0.6277(3) 0.13985(11)
H36 H 0.1432 0.6765 0.1518
O31 O 0.63085(15) 0.51723(17) 0.50637(7)
O32 O 0.5918(2) 0.5565(3) 0.45613(7)
C63 C 0.7220(3) 0.5706(3) 0.45638(10)
C64 C 0.6419(3) 0.5461(3) 0.47405(10)
C65 C 0.7420(4) 0.6089(5) 0.42239(13)
H37 H 0.7041 0.6194 0.4099
C66 C 0.77587(44) 0.5517(4) 0.47343(13)
H38 H 0.7627 0.5254 0.4970
C67 C 0.8160(9) 0.6320(8) 0.4063(2)
H39 H 0.8319 0.6638 0.3843
O33 O 0.88638(23) 0.51723(17) 0.50637(7)
O34 O 0.9647(4) 0.5565(3) 0.45613(7)
C68 C 0.8486(4) 0.5706(3) 0.45638(10)
C69 C 0.9042(4) 0.5461(3) 0.47405(10)
C70 C 0.8669(6) 0.6089(5) 0.42239(13)
H40 H 0.9153 0.6194 0.4099
O36 O 0.5918(2) 0.0353(4) 0.04387(7)
C71 C 0.7220(3) 0.1514(4) 0.04362(10)
C72 C 0.6419(3) 0.0958(4) 0.02595(10)
C73 C 0.7420(4) 0.1331(6) 0.07761(13)
H41 H 0.7041 0.0847 0.0901
C74 C 0.77587(44) 0.22417(19) 0.02657(13)
H42 H 0.7627 0.2373 0.0030
C75 C 0.8160(9) 0.1840(4) 0.0937(2)
H43 H 0.8319 0.1681 0.1157
O39 O 0.9647(4) 0.4082(2) 0.04387(7)
C80 C 0.8486(4) 0.2780(3) 0.04362(10)
C81 C 0.9042(4) 0.3581(3) 0.02595(10)
C82 C 0.8669(6) 0.2580(4) 0.07761(13)
H46 H 0.9153 0.2959 0.0901
Zn11 Zn 0.524693(14) 0.475307(14) 0.533601(14)
Zn12 Zn 0.950614(20) 0.475307(14) 0.533601(14)
Zn13 Zn 0.524693(14) 0.049386(20) 0.533601(14)
O41 O 0.51723(17) 0.63085(15) 0.00637(7)
O43 O 0.11362(23) 0.48277(17) 0.00637(7)
O44 O 0.36915(15) 0.48277(17) 0.49363(7)
O45 O 0.11362(23) 0.63085(15) 0.49363(7)
O47 O 0.51723(17) 0.63085(15) 0.49363(7)
O49 O 0.11362(23) 0.48277(17) 0.49363(7)
O50 O 0.36915(15) 0.48277(17) 0.00637(7)
O51 O 0.11362(23) 0.63085(15) 0.00637(7)
O57 O 0.45933(15) 0.79994(23) 0.28974(5)
O58 O 0.34061(17) 0.79994(23) 0.21026(5)
O59 O 0.45933(15) 0.79994(23) 0.21026(5)
O60 O 0.34061(17) 0.79994(23) 0.28974(5)
O19 O 0.63085(15) 0.51723(17) 0.99363(7)
O22 O 0.88638(23) 0.51723(17) 0.99363(7)
O25 O 0.48277(17) 0.36915(15) 0.99363(7)
O27 O 0.48277(17) 0.11362(23) 0.99363(7)
O35 O 0.63085(15) 0.11362(23) 0.99363(7)
O38 O 0.88638(23) 0.36915(15) 0.99363(7)
Zn8 Zn 0.524693(14) 0.475307(14) 0.966399(14)
Zn9 Zn 0.524693(14) 0.049386(20) 0.966399(14)
Zn10 Zn 0.950614(20) 0.475307(14) 0.966399(14)
Zn2 Zn 0.475307(14) 0.950614(20) 0.466399(14)
N2 N 0.45369(10) 0.90738(14) 0.41412(9)
C20 C 0.3885(3) 0.8947(4) 0.39625(11)
H12 H 0.3505 0.9053 0.4087
C21 C 0.3723(3) 0.8664(4) 0.36015(11)
H13 H 0.3235 0.8568 0.3482
C22 C 0.40753(15) 0.81506(21) 0.30366(10)
C23 C 0.42638(12) 0.85276(17) 0.34195(10)
C27 C 0.5062(3) 0.8947(4) 0.39625(11)
H15 H 0.5548 0.9053 0.4087
C28 C 0.4941(3) 0.8664(4) 0.36015(11)
H16 H 0.5333 0.8568 0.3482
Zn6 Zn 0.475307(14) 0.950614(20) 0.033601(14)
N6 N 0.45369(10) 0.90738(14) 0.08588(9)
C76 C 0.3885(3) 0.8947(4) 0.10375(11)
H44 H 0.3505 0.9053 0.0913
C77 C 0.3723(3) 0.8664(4) 0.13985(11)
H45 H 0.3235 0.8568 0.1518
C78 C 0.40753(15) 0.81506(21) 0.19634(10)
C79 C 0.42638(12) 0.85276(17) 0.15805(10)
C83 C 0.5062(3) 0.8947(4) 0.10375(11)
H47 H 0.5548 0.9053 0.0913
C84 C 0.4941(3) 0.8664(4) 0.13985(11)
H48 H 0.5333 0.8568 0.1518
O42 O 0.36915(15) 0.88638(23) 0.00637(7)
O46 O 0.51723(17) 0.88638(23) 0.49363(7)
O48 O 0.36915(15) 0.88638(23) 0.49363(7)
O52 O 0.51723(17) 0.88638(23) 0.00637(7)
O53 O 0.0353(4) 0.4435(3) 0.95613(7)
O54 O 0.0353(4) 0.5918(2) 0.54387(7)
O55 O 0.0353(4) 0.4435(3) 0.54387(7)
O56 O 0.0353(4) 0.5918(2) 0.95613(7)
O11 O 0.54067(15) 0.20006(23) 0.78974(5)
N2_2 N 0.54631(10) 0.09262(14) 0.91412(9)
C20_2 C 0.6115(3) 0.1053(4) 0.89625(11)
H12_2 H 0.6495 0.0947 0.9087
C21_2 C 0.6277(3) 0.1336(4) 0.86015(11)
H13_2 H 0.6765 0.1432 0.8482
C22_2 C 0.59247(15) 0.18494(21) 0.80366(10)
C23_2 C 0.57362(12) 0.14724(17) 0.84195(10)
O14 O 0.65939(17) 0.20006(23) 0.78974(5)
C27_2 C 0.4938(3) 0.1053(4) 0.89625(11)
H15_2 H 0.4452 0.0947 0.9087
C28_2 C 0.5059(3) 0.1336(4) 0.86015(11)
H16_2 H 0.4667 0.1432 0.8482
O37 O 0.54067(15) 0.20006(23) 0.71026(5)
N6_2 N 0.54631(10) 0.09262(14) 0.58588(9)
C76_2 C 0.6115(3) 0.1053(4) 0.60375(11)
H44_2 H 0.6495 0.0947 0.5913
C77_2 C 0.6277(3) 0.1336(4) 0.63985(11)
H45_2 H 0.6765 0.1432 0.6518
C78_2 C 0.59247(15) 0.18494(21) 0.69634(10)
C79_2 C 0.57362(12) 0.14724(17) 0.65805(10)
O40 O 0.65939(17) 0.20006(23) 0.71026(5)
C83_2 C 0.4938(3) 0.1053(4) 0.60375(11)
H47_2 H 0.4452 0.0947 0.5913
C84_2 C 0.5059(3) 0.1336(4) 0.63985(11)
H48_2 H 0.4667 0.1432 0.6518
Cr4 Cr 0.55008(7) 0.27504(8) 0.7500
Cr5 Cr 0.72496(8) 0.27504(4) 0.7500
Cr1_2 Cr 0.72496(4) 0.44992(7) 0.7500
O1_2 O 0.6667 0.3333 0.7500
O2_2 O 0.78720(16) 0.5744(3) 0.7500
O4_2 O 0.5565(3) 0.5918(2) 0.95613(7)
C1_2 C 0.5706(3) 0.7220(3) 0.95638(10)
C2_2 C 0.5461(3) 0.6419(3) 0.97405(10)
C3_2 C 0.6089(5) 0.7420(4) 0.92239(13)
H1_2 H 0.6194 0.7041 0.9099
C4_2 C 0.5517(4) 0.77583(19) 0.97343(13)
H2_2 H 0.5254 0.7627 0.9970
C5_2 C 0.6320(8) 0.8160(4) 0.9063(2)
H3_2 H 0.6638 0.8319 0.8843
O5_2 O 0.65939(17) 0.45933(15) 0.78974(5)
N1_2 N 0.54631(10) 0.45369(10) 0.91412(9)
C6_2 C 0.4938(3) 0.3885(3) 0.89625(11)
H4_2 H 0.4452 0.3505 0.9087
C7_2 C 0.5059(3) 0.3723(3) 0.86015(11)
H5_2 H 0.4667 0.3235 0.8482
C8_2 C 0.59247(15) 0.40753(15) 0.80366(10)
C9_2 C 0.57362(12) 0.42638(12) 0.84195(10)
O7_2 O 0.5565(3) 0.9647(4) 0.95613(7)
C10_2 C 0.5706(3) 0.8486(4) 0.95638(10)
C11_2 C 0.5461(3) 0.9042(4) 0.97405(10)
C12_2 C 0.6089(5) 0.8669(6) 0.92239(13)
H6_2 H 0.6194 0.9153 0.9099
O8_2 O 0.54067(15) 0.34061(17) 0.78974(5)
C13_2 C 0.6115(3) 0.5062(3) 0.89625(11)
H7_2 H 0.6495 0.5548 0.9087
C14_2 C 0.6277(3) 0.4941(3) 0.86015(11)
H8_2 H 0.6765 0.5333 0.8482
O10_2 O 0.4082(2) 0.9647(4) 0.95613(7)
C15_2 C 0.2780(3) 0.8486(4) 0.95638(10)
C16_2 C 0.3581(3) 0.9042(4) 0.97405(10)
C17_2 C 0.2580(4) 0.8669(6) 0.92239(13)
H9_2 H 0.2959 0.9153 0.9099
C18_2 C 0.22417(19) 0.77587(44) 0.97343(13)
H10_2 H 0.2373 0.7627 0.9970
C19_2 C 0.1840(4) 0.8160(9) 0.9063(2)
H11_2 H 0.1681 0.8319 0.8843
C24_2 C 0.1514(4) 0.7220(3) 0.95638(10)
C25_2 C 0.0958(4) 0.6419(3) 0.97405(10)
C26_2 C 0.1331(6) 0.7420(4) 0.92239(13)
H14_2 H 0.0847 0.7041 0.9099
O15_2 O 0.78720(34) 0.21280(16) 0.7500
O16_2 O 0.79994(23) 0.34061(17) 0.78974(5)
N3_2 N 0.90738(14) 0.45369(10) 0.91412(9)
C29_2 C 0.8947(4) 0.5062(3) 0.89625(11)
H17_2 H 0.9053 0.5548 0.9087
C30_2 C 0.8664(4) 0.4941(3) 0.86015(11)
H18_2 H 0.8568 0.5333 0.8482
C31_2 C 0.81506(21) 0.40753(15) 0.80366(10)
C32_2 C 0.85276(17) 0.42638(12) 0.84195(10)
O17_2 O 0.79994(23) 0.45933(15) 0.78974(5)
C33_2 C 0.8947(4) 0.3885(3) 0.89625(11)
H19_2 H 0.9053 0.3505 0.9087
C34_2 C 0.8664(4) 0.3723(3) 0.86015(11)
H20_2 H 0.8568 0.3235 0.8482
O18_2 O 0.4256(3) 0.21280(34) 0.7500
O20_2 O 0.4082(2) 0.4435(3) 0.54387(7)
C35_2 C 0.2780(3) 0.4294(3) 0.54362(10)
C36_2 C 0.3581(3) 0.4539(3) 0.52595(10)
C37_2 C 0.2580(4) 0.3911(5) 0.57761(13)
H21_2 H 0.2959 0.3806 0.5901
C38_2 C 0.22417(19) 0.4483(4) 0.52657(13)
H22_2 H 0.2373 0.4746 0.5030
C39_2 C 0.1840(4) 0.3680(8) 0.5937(2)
H23_2 H 0.1681 0.3362 0.6157
O21_2 O 0.54067(15) 0.34061(17) 0.71026(5)
N4_2 N 0.54631(10) 0.45369(10) 0.58588(9)
C40_2 C 0.6115(3) 0.5062(3) 0.60375(11)
H24_2 H 0.6495 0.5548 0.5913
C41_2 C 0.6277(3) 0.4941(3) 0.63985(11)
H25_2 H 0.6765 0.5333 0.6518
C42_2 C 0.59247(15) 0.40753(15) 0.69634(10)
C43_2 C 0.57362(12) 0.42638(12) 0.65805(10)
C44_2 C 0.1514(4) 0.4294(3) 0.54362(10)
C45_2 C 0.0958(4) 0.4539(3) 0.52595(10)
C46_2 C 0.1331(6) 0.3911(5) 0.57761(13)
H26_2 H 0.0847 0.3806 0.5901
O24_2 O 0.65939(17) 0.45933(15) 0.71026(5)
C47_2 C 0.4938(3) 0.3885(3) 0.60375(11)
H27_2 H 0.4452 0.3505 0.5913
C48_2 C 0.5059(3) 0.3723(3) 0.63985(11)
H28_2 H 0.4667 0.3235 0.6518
O26_2 O 0.5565(3) 0.5918(2) 0.54387(7)
C49_2 C 0.5706(3) 0.7220(3) 0.54362(10)
C50_2 C 0.5461(3) 0.6419(3) 0.52595(10)
C51_2 C 0.6089(5) 0.7420(4) 0.57761(13)
H29_2 H 0.6194 0.7041 0.5901
C52_2 C 0.5517(4) 0.77587(44) 0.52657(13)
H30_2 H 0.5254 0.7627 0.5030
C53_2 C 0.6320(8) 0.8160(9) 0.5937(2)
H31_2 H 0.6638 0.8319 0.6157
O28_2 O 0.5565(3) 0.9647(4) 0.54387(7)
C54_2 C 0.5706(3) 0.8486(4) 0.54362(10)
C55_2 C 0.5461(3) 0.9042(4) 0.52595(10)
C56_2 C 0.6089(5) 0.8669(6) 0.57761(13)
H32_2 H 0.6194 0.9153 0.5901
O29_2 O 0.79994(23) 0.34061(17) 0.71026(5)
N5_2 N 0.90738(14) 0.45369(10) 0.58588(9)
C57_2 C 0.8947(4) 0.5062(3) 0.60375(11)
H33_2 H 0.9053 0.5548 0.5913
C58_2 C 0.8664(4) 0.4941(3) 0.63985(11)
H34_2 H 0.8568 0.5333 0.6518
C59_2 C 0.81506(21) 0.40753(15) 0.69634(10)
C60_2 C 0.85276(17) 0.42638(12) 0.65805(10)
O30_2 O 0.79994(23) 0.45933(15) 0.71026(5)
C61_2 C 0.8947(4) 0.3885(3) 0.60375(11)
H35_2 H 0.9053 0.3505 0.5913
C62_2 C 0.8664(4) 0.3723(3) 0.63985(11)
H36_2 H 0.8568 0.3235 0.6518
O32_2 O 0.4082(2) 0.4435(3) 0.95613(7)
C63_2 C 0.2780(3) 0.4294(3) 0.95638(10)
C64_2 C 0.3581(3) 0.4539(3) 0.97405(10)
C65_2 C 0.2580(4) 0.3911(5) 0.92239(13)
H37_2 H 0.2959 0.3806 0.9099
C66_2 C 0.22413(44) 0.4483(4) 0.97343(13)
H38_2 H 0.2373 0.4746 0.9970
C67_2 C 0.1840(9) 0.3680(8) 0.9063(2)
H39_2 H 0.1681 0.3362 0.8843
C68_2 C 0.1514(4) 0.4294(3) 0.95638(10)
C69_2 C 0.0958(4) 0.4539(3) 0.97405(10)
C70_2 C 0.1331(6) 0.3911(5) 0.92239(13)
H40_2 H 0.0847 0.3806 0.9099
O36_2 O 0.4082(2) 0.9647(4) 0.54387(7)
C71_2 C 0.2780(3) 0.8486(4) 0.54362(10)
C72_2 C 0.3581(3) 0.9042(4) 0.52595(10)
C73_2 C 0.2580(4) 0.8669(6) 0.57761(13)
H41_2 H 0.2959 0.9153 0.5901
C74_2 C 0.22413(44) 0.77583(19) 0.52657(13)
H42_2 H 0.2373 0.7627 0.5030
C75_2 C 0.1840(9) 0.8160(4) 0.5937(2)
H43_2 H 0.1681 0.8319 0.6157
C80_2 C 0.1514(4) 0.7220(3) 0.54362(10)
C81_2 C 0.0958(4) 0.6419(3) 0.52595(10)
C82_2 C 0.1331(6) 0.7420(4) 0.57761(13)
H46_2 H 0.0847 0.7041 0.5901
loop_
_geom_bond_atom_site_label_1
_geom_bond_atom_site_label_2
_geom_bond_site_symmetry_1
_geom_bond_site_symmetry_2
Cr1 O1 1_555 1_555
Zn1 O4 1_555 1_555
O1 Cr2 1_555 1_555
O2 Cr1 1_555 1_555
O3 C2 1_555 1_555
O4 C2 1_555 1_555
C1 C2 1_555 1_555
C3 C1 1_555 1_555
H1 C3 1_555 1_555
C4 C1 1_555 1_555
H2 C4 1_555 1_555
C5 C3 1_555 1_555
H3 C5 1_555 1_555
O5 Cr1 1_555 1_555
N1 Zn1 1_555 1_555
C6 N1 1_555 1_555
H4 C6 1_555 1_555
C7 C6 1_555 1_555
H5 C7 1_555 1_555
C8 O5 1_555 1_555
C9 C7 1_555 1_555
O6 C11 1_555 1_555
O7 C11 1_555 1_555
C10 C4 1_555 1_555
C11 C10 1_555 1_555
C12 C5 1_555 1_555
H6 C12 1_555 1_555
O8 C8 1_555 1_555
C13 N1 1_555 1_555
H7 C13 1_555 1_555
C14 C9 1_555 1_555
H8 C14 1_555 1_555
O9 C16 1_555 1_555
C15 C16 1_555 1_555
C16 O10 1_555 1_555
C17 C15 1_555 1_555
H9 C17 1_555 1_555
C18 C15 1_555 1_555
H10 C18 1_555 1_555
C19 C17 1_555 1_555
H11 C19 1_555 1_555
O12 C25 1_555 1_555
O13 C25 1_555 1_555
C24 C18 1_555 1_555
C25 C24 1_555 1_555
C26 C19 1_555 1_555
H14 C26 1_555 1_555
Cr2 O15 1_555 1_555
Zn7 N3 1_555 1_555
O16 Cr2 1_555 1_555
N3 C29 1_555 1_555
C29 H17 1_555 1_555
C30 C29 1_555 1_555
H18 C30 1_555 1_555
C31 O16 1_555 1_555
C32 C30 1_555 1_555
O17 Cr1 1_555 1_555
C33 N3 1_555 1_555
H19 C33 1_555 1_555
C34 C32 1_555 1_555
H20 C34 1_555 1_555
Cr3 O1 1_555 1_555
Zn4 O20 1_555 1_555
O18 Cr3 1_555 1_555
O20 C36 1_555 1_555
C35 C36 1_555 1_555
C37 C35 1_555 1_555
H21 C37 1_555 1_555
C38 C35 1_555 1_555
H22 C38 1_555 1_555
C39 C37 1_555 1_555
H23 C39 1_555 1_555
O21 Cr3 1_555 1_555
N4 Zn4 1_555 1_555
C40 N4 1_555 1_555
H24 C40 1_555 1_555
C41 C40 1_555 1_555
H25 C41 1_555 1_555
C42 O21 1_555 1_555
C43 C41 1_555 1_555
O23 C45 1_555 1_555
C44 C38 1_555 1_555
C45 C44 1_555 1_555
C46 C39 1_555 1_555
H26 C46 1_555 1_555
O24 Cr1 1_555 1_555
C47 N4 1_555 1_555
H27 C47 1_555 1_555
C48 C43 1_555 1_555
H28 C48 1_555 1_555
O26 Zn4 1_555 1_555
C49 C50 1_555 1_555
C50 O26 1_555 1_555
C51 C49 1_555 1_555
H29 C51 1_555 1_555
C52 C49 1_555 1_555
H30 C52 1_555 1_555
C53 C51 1_555 1_555
H31 C53 1_555 1_555
O28 C55 1_555 1_555
C54 C52 1_555 1_555
C55 C54 1_555 1_555
C56 C53 1_555 1_555
H32 C56 1_555 1_555
Zn14 N5 1_555 1_555
O29 Cr2 1_555 1_555
N5 C57 1_555 1_555
C57 H33 1_555 1_555
C58 C57 1_555 1_555
H34 C58 1_555 1_555
C59 O29 1_555 1_555
C60 C58 1_555 1_555
O30 Cr1 1_555 1_555
C61 N5 1_555 1_555
H35 C61 1_555 1_555
C62 C60 1_555 1_555
H36 C62 1_555 1_555
O31 C64 1_555 1_555
O32 Zn1 1_555 1_555
C63 C64 1_555 1_555
C64 O32 1_555 1_555
C65 C63 1_555 1_555
H37 C65 1_555 1_555
C66 C63 1_555 1_555
H38 C66 1_555 1_555
C67 C65 1_555 1_555
H39 C67 1_555 1_555
O33 C69 1_555 1_555
O34 C69 1_555 1_555
C68 C66 1_555 1_555
C69 C68 1_555 1_555
C70 C67 1_555 1_555
H40 C70 1_555 1_555
C71 C72 1_555 1_555
C72 O36 1_555 1_555
C73 C71 1_555 1_555
H41 C73 1_555 1_555
C74 C71 1_555 1_555
H42 C74 1_555 1_555
C75 C73 1_555 1_555
H43 C75 1_555 1_555
O39 C81 1_555 1_555
C80 C74 1_555 1_555
C81 C80 1_555 1_555
C82 C75 1_555 1_555
H46 C82 1_555 1_555
Zn11 O3 1_555 1_555
Zn12 O12 1_555 1_555
Zn13 O6 1_555 1_555
O41 Zn4 1_555 1_555
O43 Zn14 1_555 1_555
O44 Zn1 1_555 1_555
O45 Zn7 1_555 1_555
O47 Zn1 1_555 1_555
O49 Zn7 1_555 1_555
O50 Zn4 1_555 1_555
O51 Zn14 1_555 1_555
O57 Cr3 1_555 1_555
O58 Cr2 1_555 1_555
O59 Cr3 1_555 1_555
O60 Cr2 1_555 1_555
C8 C9 1_555 1_555
C10 C12 1_555 1_555
O8 Cr3 1_555 1_555
C13 C14 1_555 1_555
O9 Zn13 1_555 1_555
C24 C26 1_555 1_555
C31 C32 1_555 1_555
C31 O17 1_555 1_555
C33 C34 1_555 1_555
C42 C43 1_555 1_555
C42 O24 1_555 1_555
C44 C46 1_555 1_555
C47 C48 1_555 1_555
C54 C56 1_555 1_555
C59 C60 1_555 1_555
C59 O30 1_555 1_555
C61 C62 1_555 1_555
O31 Zn11 1_555 1_555
O33 Zn12 1_555 1_555
C68 C70 1_555 1_555
C80 C82 1_555 1_555
Zn8 O19 1_555 1_555
Zn9 O27 1_555 1_555
Zn10 O22 1_555 1_555
O25 Zn8 1_555 1_555
O35 Zn9 1_555 1_555
O38 Zn10 1_555 1_555
O57 C22 1_555 1_555
N2 Zn2 1_555 1_555
C20 N2 1_555 1_555
H12 C20 1_555 1_555
C21 C20 1_555 1_555
H13 C21 1_555 1_555
C22 C23 1_555 1_555
C23 C21 1_555 1_555
O60 C22 1_555 1_555
C27 N2 1_555 1_555
H15 C27 1_555 1_555
C28 C23 1_555 1_555
H16 C28 1_555 1_555
O59 C78 1_555 1_555
N6 Zn6 1_555 1_555
C76 N6 1_555 1_555
H44 C76 1_555 1_555
C77 C76 1_555 1_555
H45 C77 1_555 1_555
C78 C79 1_555 1_555
C79 C77 1_555 1_555
O58 C78 1_555 1_555
C83 N6 1_555 1_555
H47 C83 1_555 1_555
C84 C79 1_555 1_555
H48 C84 1_555 1_555
O42 Zn6 1_555 1_555
O46 Zn2 1_555 1_555
O48 Zn2 1_555 1_555
O52 Zn6 1_555 1_555
C27 C28 1_555 1_555
C83 C84 1_555 1_555
O11 C22_2 1_555 1_555
N2_2 Zn9 1_555 1_555
C20_2 N2_2 1_555 1_555
H12_2 C20_2 1_555 1_555
C21_2 C20_2 1_555 1_555
H13_2 C21_2 1_555 1_555
C22_2 C23_2 1_555 1_555
C23_2 C21_2 1_555 1_555
O14 C22_2 1_555 1_555
C27_2 N2_2 1_555 1_555
H15_2 C27_2 1_555 1_555
C28_2 C23_2 1_555 1_555
H16_2 C28_2 1_555 1_555
O37 C78_2 1_555 1_555
N6_2 Zn13 1_555 1_555
C76_2 N6_2 1_555 1_555
H44_2 C76_2 1_555 1_555
C77_2 C76_2 1_555 1_555
H45_2 C77_2 1_555 1_555
C78_2 C79_2 1_555 1_555
C79_2 C77_2 1_555 1_555
O40 C78_2 1_555 1_555
C83_2 N6_2 1_555 1_555
H47_2 C83_2 1_555 1_555
C84_2 C79_2 1_555 1_555
H48_2 C84_2 1_555 1_555
Cr4 O11 1_555 1_555
Cr5 O14 1_555 1_555
C27_2 C28_2 1_555 1_555
O37 Cr4 1_555 1_555
O40 Cr5 1_555 1_555
C83_2 C84_2 1_555 1_555
Cr1_2 O1_2 1_555 1_555
Zn8 O4_2 1_555 1_555
O1_2 Cr5 1_555 1_555
O2_2 Cr1_2 1_555 1_555
O4_2 C2_2 1_555 1_555
C1_2 C2_2 1_555 1_555
C3_2 C1_2 1_555 1_555
H1_2 C3_2 1_555 1_555
C4_2 C1_2 1_555 1_555
H2_2 C4_2 1_555 1_555
C5_2 C3_2 1_555 1_555
H3_2 C5_2 1_555 1_555
O5_2 Cr1_2 1_555 1_555
N1_2 Zn8 1_555 1_555
C6_2 N1_2 1_555 1_555
H4_2 C6_2 1_555 1_555
C7_2 C6_2 1_555 1_555
H5_2 C7_2 1_555 1_555
C8_2 O5_2 1_555 1_555
C9_2 C7_2 1_555 1_555
O7_2 C11_2 1_555 1_555
C10_2 C4_2 1_555 1_555
C11_2 C10_2 1_555 1_555
C12_2 C5_2 1_555 1_555
H6_2 C12_2 1_555 1_555
O8_2 C8_2 1_555 1_555
C13_2 N1_2 1_555 1_555
H7_2 C13_2 1_555 1_555
C14_2 C9_2 1_555 1_555
H8_2 C14_2 1_555 1_555
C15_2 C16_2 1_555 1_555
C16_2 O10_2 1_555 1_555
C17_2 C15_2 1_555 1_555
H9_2 C17_2 1_555 1_555
C18_2 C15_2 1_555 1_555
H10_2 C18_2 1_555 1_555
C19_2 C17_2 1_555 1_555
H11_2 C19_2 1_555 1_555
O56 C25_2 1_555 1_555
C24_2 C18_2 1_555 1_555
C25_2 C24_2 1_555 1_555
C26_2 C19_2 1_555 1_555
H14_2 C26_2 1_555 1_555
Cr5 O15_2 1_555 1_555
Zn10 N3_2 1_555 1_555
O16_2 Cr5 1_555 1_555
N3_2 C29_2 1_555 1_555
C29_2 H17_2 1_555 1_555
C30_2 C29_2 1_555 1_555
H18_2 C30_2 1_555 1_555
C31_2 O16_2 1_555 1_555
C32_2 C30_2 1_555 1_555
O17_2 Cr1_2 1_555 1_555
C33_2 N3_2 1_555 1_555
H19_2 C33_2 1_555 1_555
C34_2 C32_2 1_555 1_555
H20_2 C34_2 1_555 1_555
Cr4 O1_2 1_555 1_555
Zn11 O20_2 1_555 1_555
O18_2 Cr4 1_555 1_555
O44 C36_2 1_555 1_555
O20_2 C36_2 1_555 1_555
C35_2 C36_2 1_555 1_555
C37_2 C35_2 1_555 1_555
H21_2 C37_2 1_555 1_555
C38_2 C35_2 1_555 1_555
H22_2 C38_2 1_555 1_555
C39_2 C37_2 1_555 1_555
H23_2 C39_2 1_555 1_555
O21_2 Cr4 1_555 1_555
N4_2 Zn11 1_555 1_555
C40_2 N4_2 1_555 1_555
H24_2 C40_2 1_555 1_555
C41_2 C40_2 1_555 1_555
H25_2 C41_2 1_555 1_555
C42_2 O21_2 1_555 1_555
C43_2 C41_2 1_555 1_555
O49 C45_2 1_555 1_555
O55 C45_2 1_555 1_555
C44_2 C38_2 1_555 1_555
C45_2 C44_2 1_555 1_555
C46_2 C39_2 1_555 1_555
H26_2 C46_2 1_555 1_555
O24_2 Cr1_2 1_555 1_555
C47_2 N4_2 1_555 1_555
H27_2 C47_2 1_555 1_555
C48_2 C43_2 1_555 1_555
H28_2 C48_2 1_555 1_555
O47 C50_2 1_555 1_555
O26_2 Zn11 1_555 1_555
C49_2 C50_2 1_555 1_555
C50_2 O26_2 1_555 1_555
C51_2 C49_2 1_555 1_555
H29_2 C51_2 1_555 1_555
C52_2 C49_2 1_555 1_555
H30_2 C52_2 1_555 1_555
C53_2 C51_2 1_555 1_555
H31_2 C53_2 1_555 1_555
O46 C55_2 1_555 1_555
O28_2 C55_2 1_555 1_555
C54_2 C52_2 1_555 1_555
C55_2 C54_2 1_555 1_555
C56_2 C53_2 1_555 1_555
H32_2 C56_2 1_555 1_555
Zn12 N5_2 1_555 1_555
O29_2 Cr5 1_555 1_555
N5_2 C57_2 1_555 1_555
C57_2 H33_2 1_555 1_555
C58_2 C57_2 1_555 1_555
H34_2 C58_2 1_555 1_555
C59_2 O29_2 1_555 1_555
C60_2 C58_2 1_555 1_555
O30_2 Cr1_2 1_555 1_555
C61_2 N5_2 1_555 1_555
H35_2 C61_2 1_555 1_555
C62_2 C60_2 1_555 1_555
H36_2 C62_2 1_555 1_555
O32_2 Zn8 1_555 1_555
C63_2 C64_2 1_555 1_555
C64_2 O32_2 1_555 1_555
C65_2 C63_2 1_555 1_555
H37_2 C65_2 1_555 1_555
C66_2 C63_2 1_555 1_555
H38_2 C66_2 1_555 1_555
C67_2 C65_2 1_555 1_555
H39_2 C67_2 1_555 1_555
O53 C69_2 1_555 1_555
C68_2 C66_2 1_555 1_555
C69_2 C68_2 1_555 1_555
C70_2 C67_2 1_555 1_555
H40_2 C70_2 1_555 1_555
O48 C72_2 1_555 1_555
C71_2 C72_2 1_555 1_555
C72_2 O36_2 1_555 1_555
C73_2 C71_2 1_555 1_555
H41_2 C73_2 1_555 1_555
C74_2 C71_2 1_555 1_555
H42_2 C74_2 1_555 1_555
C75_2 C73_2 1_555 1_555
H43_2 C75_2 1_555 1_555
O45 C81_2 1_555 1_555
O54 C81_2 1_555 1_555
C80_2 C74_2 1_555 1_555
C81_2 C80_2 1_555 1_555
C82_2 C75_2 1_555 1_555
H46_2 C82_2 1_555 1_555
C8_2 C9_2 1_555 1_555
C10_2 C12_2 1_555 1_555
O8_2 Cr4 1_555 1_555
C13_2 C14_2 1_555 1_555
C24_2 C26_2 1_555 1_555
C31_2 C32_2 1_555 1_555
C31_2 O17_2 1_555 1_555
C33_2 C34_2 1_555 1_555
C42_2 C43_2 1_555 1_555
C42_2 O24_2 1_555 1_555
C44_2 C46_2 1_555 1_555
C47_2 C48_2 1_555 1_555
C54_2 C56_2 1_555 1_555
C59_2 C60_2 1_555 1_555
C59_2 O30_2 1_555 1_555
C61_2 C62_2 1_555 1_555
C68_2 C70_2 1_555 1_555
C80_2 C82_2 1_555 1_555

#END
