
###############################################################################
#
# This file contains modified crystal structure data generated from the
# MOF subset of the Cambridge Structural Database (CSD) v543 
# hosted by the Cambridge Crystallographic Data Centre (CCDC).
#
# This work is licensed under the Creative Commons
# Attribution-NonCommercial-ShareAlike 4.0 International License.
# To view a copy of this license, visit
# http://creativecommons.org/licenses/by-nc-sa/4.0/
# or send a letter to
# Creative Commons, PO Box 1866, Mountain View, CA 94042, USA.
#
# CIF created using the CSD Python API on 29 September 2022
# The structure has been converted into the P1 space group
# The structure has a 3D framework
# The original CSD entry YILKAH is in the triclinic crystal system
# The framework has been calculated to contain at least 10.0% void space
# The void calculation uses a probe of radius 1.32A, grid spacing 0.4
# The framework is charged, counterions have been retained in the structure
#
###############################################################################

data_YILKAH
_chemical_formula_moiety         '(C144 H136 Cd8 N2 O37 1-)n'
_symmetry_cell_setting           triclinic
_symmetry_space_group_name_H-M   'P 1'
_symmetry_Int_Tables_number      1
_space_group_name_Hall           'P 1'
loop_
_symmetry_equiv_pos_site_id
_symmetry_equiv_pos_as_xyz
1 x,y,z
_cell_length_a                   15.1394(7)
_cell_length_b                   16.5670(7)
_cell_length_c                   17.8680(7)
_cell_angle_alpha                95.399(3)
_cell_angle_beta                 97.074(3)
_cell_angle_gamma                102.332(4)
_cell_volume                     4311.19
loop_
_atom_site_label
_atom_site_type_symbol
_atom_site_fract_x
_atom_site_fract_y
_atom_site_fract_z
O47 O 0.0196(5) 0.6411(4) 0.0303(4)
Cd3 Cd 0.0000 0.5000 0.0000
Cd4 Cd 0.86837(6) 0.63416(4) 0.07436(5)
C1 C 0.5739(9) 0.6868(8) 0.1418(9)
H1 H 0.5777 0.6348 0.1557
C4 C 0.4949(9) 0.7204(8) 0.1529(9)
H3 H 0.4462 0.6888 0.1721
C10 C 0.4920(9) 0.7974(8) 0.1356(9)
C12 C 0.3002(8) 0.7308(6) 0.0796(7)
H9 H 0.3393 0.7111 0.0500
C13 C 0.5589(9) 0.8397(8) 0.1043(9)
H10 H 0.5563 0.8926 0.0920
C14 C 0.6422(9) 0.7328(7) 0.1106(9)
C20 C 0.2100(8) 0.6983(6) 0.0653(7)
H14 H 0.1869 0.6537 0.0273
C23 C 0.3350(8) 0.7947(6) 0.1396(7)
C25 C 0.1867(8) 0.7946(6) 0.1658(7)
H17 H 0.1472 0.8161 0.1937
C26 C 0.7267(9) 0.7003(8) 0.0965(10)
C28 C 0.1517(8) 0.7301(6) 0.1059(7)
C31 C 0.0542(8) 0.6976(6) 0.0858(7)
C32 C 0.2766(8) 0.8248(6) 0.1825(7)
H18 H 0.3000 0.8663 0.2232
C35 C 0.6322(9) 0.8079(7) 0.0896(9)
H20 H 0.6762 0.8382 0.0647
O2 O 0.7333(8) 0.6322(6) 0.1209(9)
O4 O 0.4241(6) 0.8339(6) 0.1576(8)
O12 O 0.7797(5) 0.7378(4) 0.0631(4)
O42 O 0.8977(8) 0.5764(5) 0.1902(5)
O45 O 0.9997(5) 0.7279(4) 0.1248(4)
O52 O 0.8981(5) 0.4947(5) 0.0860(4)
O53 O 0.1098(4) 0.4978(3) 0.0930(3)
Cd3_2 Cd 0.0000 0.5000 1.0000
O38 O 0.0003(5) 0.2721(4) 0.8752(4)
Cd17 Cd 0.13163(6) 0.36584(4) 0.92564(5)
O43 O 0.8032(7) 0.5800(6) 0.9597(6)
O50 O 0.1019(5) 0.5053(5) 0.9140(4)
Cd3_3 Cd 1.0000 0.5000 0.0000
O44 O 0.1968(7) 0.4200(6) 0.0403(6)
Cd1 Cd 0.31397(3) 0.01764(4) 0.36623(3)
Cd2 Cd 0.5000 0.0000 0.5000
Cd3_4 Cd 1.0000 0.5000 1.0000
C2 C 0.5138(9) 0.3854(7) 0.6152(8)
C3 C 0.7689(11) 0.4773(8) 0.7724(10)
H2 H 0.8262 0.4687 0.7654
C5 C 0.6941(10) 0.4571(8) 0.7132(10)
H4 H 0.7004 0.4297 0.6670
C6 C 0.5931(11) 0.5013(8) 0.7947(10)
H5 H 0.5345 0.5039 0.8035
C7 C 0.6132(11) 0.4769(8) 0.7223(11)
C8 C 0.4721(9) 0.3881(7) 0.5410(8)
H6 H 0.4674 0.4389 0.5248
C9 C 0.5325(9) 0.3111(7) 0.6324(8)
H7 H 0.5692 0.3100 0.6778
C11 C 0.6617(10) 0.5195(8) 0.8472(10)
H8 H 0.6526 0.5412 0.8948
C15 C 0.7524(11) 0.5093(8) 0.8388(10)
C17 C 0.8199(11) 0.5305(8) 0.9076(10)
C18 C 0.4375(9) 0.3140(7) 0.4911(8)
H12 H 0.4057 0.3156 0.4435
C24 C 0.4978(9) 0.2373(7) 0.5833(8)
H16 H 0.5064 0.1869 0.5982
C27 C 0.4505(9) 0.2394(7) 0.5123(8)
H25 H 0.0177 0.0841 0.3431
C44 C 0.4068(9) 0.1597(7) 0.4621(8)
C54 C 0.0437(5) 0.0001(5) 0.2644(4)
C56 C 0.1393(5) 0.0037(5) 0.3010(4)
O1 O 0.5550(16) 0.4633(8) 0.6489(14)
O9 O 0.3678(4) 0.1645(4) 0.3971(4)
O11 O 0.1706(4) 0.0524(5) 0.3606(4)
O14 O 0.8902(4) 0.5022(3) 0.9070(3)
O15 O 0.4065(3) 0.0934(4) 0.4871(3)
C83 C 0.3023(5) 0.0441(5) 0.7311(4)
H50 H 0.2611 0.0748 0.7135
C88 C 0.2885(5) 0.0007(5) 0.7941(4)
C91 C 0.1335(5) 0.0064(5) 0.8001(4)
C92 C 0.3775(5) 0.0407(5) 0.6957(5)
H54 H 0.3851 0.0673 0.6526
C93 C 0.0838(5) 0.0557(5) 0.8351(4)
H55 H 0.1094 0.0910 0.8796
O31 O 0.5387(3) 0.0374(4) 0.6304(3)
O34 O 0.2198(4) 0.0080(4) 0.8368(3)
C99 C 0.4261(9) 0.3132(8) 0.8582(9)
H57 H 0.4223 0.3652 0.8443
C100 C 0.5051(9) 0.2796(8) 0.8471(9)
H58 H 0.5538 0.3112 0.8279
C101 C 0.5080(9) 0.2026(8) 0.8644(9)
C102 C 0.6998(8) 0.2692(6) 0.9204(7)
H59 H 0.6607 0.2889 0.9500
C103 C 0.4411(9) 0.1603(8) 0.8957(9)
H60 H 0.4437 0.1074 0.9080
C104 C 0.3578(9) 0.2672(7) 0.8894(9)
C105 C 0.7900(8) 0.3017(6) 0.9347(7)
H61 H 0.8131 0.3463 0.9727
C106 C 0.6650(8) 0.2053(6) 0.8604(7)
C107 C 0.8133(8) 0.2054(6) 0.8342(7)
H62 H 0.8528 0.1839 0.8063
C108 C 0.2733(9) 0.2997(8) 0.9035(10)
C109 C 0.8483(8) 0.2699(6) 0.8941(7)
C110 C 0.9458(8) 0.3024(6) 0.9142(7)
C111 C 0.7234(8) 0.1752(6) 0.8175(7)
H63 H 0.7000 0.1337 0.7768
C112 C 0.3678(9) 0.1921(7) 0.9104(9)
H64 H 0.3238 0.1618 0.9353
O36 O 0.2667(8) 0.3678(6) 0.8791(9)
O37 O 0.5759(6) 0.1661(6) 0.8424(8)
O39 O 0.9804(5) 0.3589(4) 0.9697(4)
O40 O 0.2203(5) 0.2622(4) 0.9369(4)
O41 O 0.1023(8) 0.4236(5) 0.8098(5)
O57 O 0.4134(3) 0.0337(4) 0.2810(3)
O59 O 0.6187(3) 0.0917(4) 0.4771(3)
Cd2_2 Cd 0.5000 1.0000 0.5000
C16 C 0.0796(7) 0.5476(7) 0.7185(6)
H11 H 0.0928 0.4993 0.6964
C19 C 0.0642(7) 0.6080(6) 0.6744(6)
H13 H 0.0652 0.5998 0.6223
C21 C 0.0722(6) 0.8018(5) 0.5574(5)
H15 H 0.0100 0.7941 0.5404
C22 C 0.0932(8) 0.4915(7) 0.8418(6)
C29 C 0.0754(8) 0.5579(6) 0.7956(6)
C30 C 0.0474(8) 0.6808(6) 0.7073(6)
C33 C 0.0437(7) 0.6917(7) 0.7854(6)
H19 H 0.0328 0.7409 0.8080
C34 C 0.0999(6) 0.7747(5) 0.6222(5)
C36 C 0.0562(7) 0.6301(6) 0.8285(6)
H21 H 0.0517 0.6366 0.8801
C37 C 0.1356(6) 0.8413(5) 0.5155(5)
H22 H 0.1160 0.8604 0.4705
C39 C 0.1930(6) 0.7853(5) 0.6489(5)
H24 H 0.2116 0.7658 0.6940
C43 C 0.2568(6) 0.8249(5) 0.6077(5)
H28 H 0.3188 0.8329 0.6253
C45 C 0.2982(6) 0.8969(5) 0.4963(5)
C47 C 0.2289(6) 0.8525(5) 0.5406(5)
C48 C 0.0057(5) 0.9485(5) 0.1979(4)
H29 H 0.0403 0.9161 0.1747
O7 O 0.0331(4) 0.7422(4) 0.6650(4)
O13 O 0.2669(4) 0.9188(4) 0.4337(3)
O17 O 0.1866(3) 0.9620(3) 0.2694(3)
O20 O 0.3813(3) 0.9083(4) 0.5229(3)
C80 C 0.3499(5) 0.9549(5) 0.8201(4)
H47 H 0.3401 0.9252 0.8611
C82 C 0.0078(5) 0.9510(5) 0.7016(4)
C84 C 0.4262(5) 0.9538(5) 0.7845(4)
H51 H 0.4672 0.9228 0.8018
C94 C 0.0974(5) 0.9541(5) 0.7336(4)
H56 H 0.1320 0.9216 0.7107
C95 C 0.4422(5) 0.9983(5) 0.7230(4)
C97 C 0.5260(5) 0.9999(5) 0.6882(4)
O33 O 0.5866(3) 0.9663(4) 0.7190(3)
Cd8 Cd 0.68603(3) 0.98236(4) 0.63377(3)
O54 O 0.5935(3) 0.9066(4) 0.5129(3)
O55 O 0.4613(3) 0.9626(4) 0.3696(3)
C38 C 0.6501(5) 0.0451(5) 0.1799(4)
H23 H 0.6599 0.0748 0.1389
C40 C 0.9922(5) 0.0490(5) 0.2984(4)
C42 C 0.5738(5) 0.0462(5) 0.2155(4)
H27 H 0.5328 0.0772 0.1982
C52 C 0.9026(5) 0.0459(5) 0.2664(4)
H32 H 0.8680 0.0784 0.2893
C53 C 0.5578(5) 0.0017(5) 0.2770(4)
C55 C 0.4740(5) 0.0001(5) 0.3118(4)
C66 C 0.9204(7) 0.4524(7) 0.2815(6)
H39 H 0.9072 0.5007 0.3036
C69 C 0.9358(7) 0.3920(6) 0.3256(6)
H41 H 0.9348 0.4002 0.3777
C70 C 0.9278(6) 0.1982(5) 0.4426(5)
H42 H 0.9900 0.2059 0.4596
C71 C 0.9068(8) 0.5085(7) 0.1582(6)
C74 C 0.9246(8) 0.4421(6) 0.2044(6)
C75 C 0.9526(8) 0.3192(6) 0.2927(6)
C76 C 0.9563(7) 0.3083(7) 0.2146(6)
H44 H 0.9672 0.2591 0.1920
C77 C 0.9001(6) 0.2253(5) 0.3778(5)
C78 C 0.9438(7) 0.3699(6) 0.1715(6)
H45 H 0.9483 0.3634 0.1199
C79 C 0.8644(6) 0.1587(5) 0.4845(5)
H46 H 0.8840 0.1396 0.5295
C81 C 0.8070(6) 0.2147(5) 0.3511(5)
H48 H 0.7884 0.2342 0.3060
C85 C 0.7432(6) 0.1751(5) 0.3923(5)
H52 H 0.6812 0.1671 0.3747
C87 C 0.7018(6) 0.1031(5) 0.5037(5)
C89 C 0.7711(6) 0.1475(5) 0.4594(5)
C90 C 0.9943(5) 0.0515(5) 0.8021(4)
H53 H 0.9597 0.0839 0.8253
O24 O 0.9669(4) 0.2578(4) 0.3350(4)
O28 O 0.7331(4) 0.0812(4) 0.5663(3)
O32 O 0.8134(3) 0.0380(3) 0.7306(3)
C41 C 0.6977(5) 0.9559(5) 0.2689(4)
H26 H 0.7389 0.9252 0.2865
C46 C 0.7115(5) 0.9993(5) 0.2059(4)
C49 C 0.8665(5) 0.9936(5) 0.1999(4)
C50 C 0.6225(5) 0.9593(5) 0.3043(5)
H30 H 0.6149 0.9327 0.3474
C51 C 0.9162(5) 0.9443(5) 0.1649(4)
H31 H 0.8906 0.9090 0.1204
O19 O 0.7802(4) 0.9920(4) 0.1632(3)
C57 C 0.4862(9) 0.6146(7) 0.3848(8)
C58 C 0.2311(11) 0.5227(8) 0.2276(10)
H33 H 0.1738 0.5313 0.2346
C59 C 0.3059(10) 0.5429(8) 0.2868(10)
H34 H 0.2996 0.5703 0.3330
C60 C 0.4069(11) 0.4987(8) 0.2053(10)
H35 H 0.4655 0.4961 0.1965
C61 C 0.3868(11) 0.5231(8) 0.2777(11)
C62 C 0.5279(9) 0.6119(7) 0.4590(8)
H36 H 0.5326 0.5611 0.4752
C63 C 0.4675(9) 0.6889(7) 0.3676(8)
H37 H 0.4308 0.6900 0.3222
C64 C 0.3383(10) 0.4805(8) 0.1528(10)
H38 H 0.3474 0.4588 0.1052
C65 C 0.2476(11) 0.4907(8) 0.1612(10)
C67 C 0.1801(11) 0.4695(8) 0.0924(10)
C68 C 0.5625(9) 0.6860(7) 0.5089(8)
H40 H 0.5943 0.6844 0.5565
C72 C 0.5022(9) 0.7627(7) 0.4167(8)
H43 H 0.4936 0.8131 0.4018
C73 C 0.5495(9) 0.7606(7) 0.4877(8)
H49 H 0.9823 0.9159 0.6569
C86 C 0.5932(9) 0.8403(7) 0.5379(8)
C96 C 0.9563(5) 0.9999(5) 0.7356(4)
C98 C 0.8607(5) 0.9963(5) 0.6990(4)
O21 O 0.4450(16) 0.5367(8) 0.3511(14)
O25 O 0.6322(4) 0.8355(4) 0.6029(4)
O27 O 0.8294(4) 0.9476(5) 0.6394(4)
H67 H 0.4034 0.0046 0.0188
C114 C 0.1942(10) 0.2918(13) 0.3665(9)
H68 H 0.1322 0.2585 0.3603
H69 H 0.2327 0.2653 0.3989
C115 C 0.5924(10) 0.3029(11) 0.3095(14)
H70 H 0.5924 0.2454 0.2961
H71 H 0.5871 0.3124 0.3624
H72 H 0.6485 0.3373 0.3000
C116 C 0.2257(9) 0.2934(12) 0.2903(9)
H73 H 0.1850 0.3166 0.2567
H74 H 0.2865 0.3293 0.2958
C117 C 0.5110(8) 0.3247(8) 0.2614(9)
H75 H 0.5308 0.3465 0.2162
H76 H 0.4905 0.3678 0.2904
C120 C 0.2279(10) 0.2090(13) 0.2558(9)
H82 H 0.1665 0.1744 0.2509
H83 H 0.2666 0.1862 0.2915
C121 C 0.4301(8) 0.2476(8) 0.2376(9)
H84 H 0.4534 0.2023 0.2151
H85 H 0.4063 0.2304 0.2830
C122 C 0.3012(9) 0.0881(8) 0.0944(7)
H86 H 0.3587 0.1254 0.0899
H87 H 0.2563 0.0929 0.0524
C123 C 0.0331(8) 0.1860(7) 0.0447(6)
H89 H 0.0270 0.2417 0.0617
C124 C 0.3513(8) 0.2608(8) 0.1815(9)
H90 H 0.3433 0.3168 0.1940
H91 H 0.3683 0.2571 0.1310
C125 C 0.1913(8) 0.2191(7) 0.1182(6)
H92 H 0.2167 0.2190 0.0709
H93 H 0.1831 0.2748 0.1319
C126 C 0.0978(8) 0.1592(7) 0.1043(6)
H94 H 0.1043 0.1037 0.0874
H95 H 0.0722 0.1573 0.1514
C127 C 0.2717(9) 0.1130(7) 0.1656(7)
H96 H 0.3155 0.1045 0.2068
H97 H 0.2137 0.0757 0.1685
N1 N 0.2604(6) 0.2003(5) 0.1796(5)
C128 C 0.197(2) 0.378(3) 0.405(2)
H98 H 0.1874 0.4135 0.3668
H99 H 0.2554 0.3996 0.4354
H100 H 0.1498 0.3744 0.4364
H88 H 0.0590 0.1880 0.9977
C113 C 0.3446(15) 0.9705(12) 0.0224(8)
H66 H 0.3494 0.9139 0.0242
C118 C 0.3134(9) 0.9997(8) 0.0894(7)
H77 H 0.3565 0.9952 0.1329
H78 H 0.2553 0.9631 0.0933
H65 H 0.3020 0.9734 0.9788
C119 C 0.9405(11) 0.1282(9) 0.0299(8)
H80 H 0.9112 0.1316 0.0745
H81 H 0.9466 0.0722 0.0176
H79 H 0.9041 0.1438 0.9882
H79_2 H 0.0959 0.8562 0.0118
C119_2 C 0.0595(11) 0.8718(9) 0.9701(8)
H80_2 H 0.0888 0.8684 0.9255
H81_2 H 0.0534 0.9278 0.9824
H65_2 H 0.6980 0.0266 0.0212
C113_2 C 0.6554(15) 0.0295(12) 0.9776(8)
H66_2 H 0.6506 0.0861 0.9758
C118_2 C 0.6866(9) 0.0003(8) 0.9106(7)
H77_2 H 0.6435 0.0048 0.8671
H78_2 H 0.7447 0.0369 0.9067
H88_2 H 0.9410 0.8120 0.0023
H67_2 H 0.5966 0.9954 0.9812
C114_2 C 0.8058(10) 0.7082(13) 0.6335(9)
H68_2 H 0.8678 0.7415 0.6397
H69_2 H 0.7673 0.7347 0.6011
C115_2 C 0.4076(10) 0.6971(11) 0.6905(14)
H70_2 H 0.4076 0.7546 0.7039
H71_2 H 0.4129 0.6876 0.6376
H72_2 H 0.3515 0.6627 0.7000
C116_2 C 0.7743(9) 0.7066(12) 0.7097(9)
H73_2 H 0.8150 0.6834 0.7433
H74_2 H 0.7135 0.6707 0.7042
C117_2 C 0.4890(8) 0.6753(8) 0.7386(9)
H75_2 H 0.4692 0.6535 0.7838
H76_2 H 0.5095 0.6322 0.7096
C120_2 C 0.7721(10) 0.7910(13) 0.7442(9)
H82_2 H 0.8335 0.8256 0.7491
H83_2 H 0.7334 0.8138 0.7085
C121_2 C 0.5699(8) 0.7524(8) 0.7624(9)
H84_2 H 0.5466 0.7977 0.7849
H85_2 H 0.5937 0.7696 0.7170
C122_2 C 0.6988(9) 0.9119(8) 0.9056(7)
H86_2 H 0.6413 0.8746 0.9101
H87_2 H 0.7437 0.9071 0.9476
C123_2 C 0.9669(8) 0.8140(7) 0.9553(6)
H89_2 H 0.9730 0.7583 0.9383
C124_2 C 0.6487(8) 0.7392(8) 0.8185(9)
H90_2 H 0.6567 0.6832 0.8060
H91_2 H 0.6317 0.7429 0.8690
C125_2 C 0.8087(8) 0.7809(7) 0.8818(6)
H92_2 H 0.7833 0.7810 0.9291
H93_2 H 0.8169 0.7252 0.8681
C126_2 C 0.9022(8) 0.8408(7) 0.8957(6)
H94_2 H 0.8957 0.8963 0.9126
H95_2 H 0.9278 0.8427 0.8486
C127_2 C 0.7283(9) 0.8870(7) 0.8344(7)
H96_2 H 0.6845 0.8955 0.7932
H97_2 H 0.7863 0.9243 0.8315
N1_2 N 0.7396(6) 0.7997(5) 0.8204(5)
C128_2 C 0.803(2) 0.622(3) 0.595(2)
H98_2 H 0.8126 0.5865 0.6332
H99_2 H 0.7446 0.6004 0.5646
H100_2 H 0.8502 0.6256 0.5636
loop_
_geom_bond_atom_site_label_1
_geom_bond_atom_site_label_2
_geom_bond_site_symmetry_1
_geom_bond_site_symmetry_2
Cd3 O47 1_555 1_555
Cd4 O2 1_555 1_555
C1 H1 1_555 1_555
C4 C1 1_555 1_555
H3 C4 1_555 1_555
C10 C4 1_555 1_555
C12 H9 1_555 1_555
C13 C10 1_555 1_555
H10 C13 1_555 1_555
C14 C1 1_555 1_555
C20 C12 1_555 1_555
H14 C20 1_555 1_555
C23 C12 1_555 1_555
C25 H17 1_555 1_555
C26 C14 1_555 1_555
C28 C20 1_555 1_555
C31 C28 1_555 1_555
C32 C23 1_555 1_555
H18 C32 1_555 1_555
C35 C13 1_555 1_555
H20 C35 1_555 1_555
O2 C26 1_555 1_555
O4 C10 1_555 1_555
O47 C31 1_555 1_555
O12 Cd4 1_555 1_555
O42 Cd4 1_555 1_555
O45 Cd4 1_555 1_555
O52 Cd4 1_555 1_555
O53 Cd3 1_555 1_555
C14 C35 1_555 1_555
C23 O4 1_555 1_555
C25 C28 1_555 1_555
C25 C32 1_555 1_555
C26 O12 1_555 1_555
Cd17 O38 1_555 1_555
O50 Cd3_2 1_555 1_555
Cd17 O50 1_555 1_555
O52 Cd3_3 1_555 1_555
Cd1 O9 1_555 1_555
Cd2 O15 1_555 1_555
C2 C8 1_555 1_555
C3 H2 1_555 1_555
C5 C3 1_555 1_555
H4 C5 1_555 1_555
C6 H5 1_555 1_555
C7 C5 1_555 1_555
C8 H6 1_555 1_555
C9 C2 1_555 1_555
H7 C9 1_555 1_555
C11 C6 1_555 1_555
H8 C11 1_555 1_555
C15 C3 1_555 1_555
C17 C15 1_555 1_555
C18 C8 1_555 1_555
H12 C18 1_555 1_555
C24 C9 1_555 1_555
H16 C24 1_555 1_555
C27 C18 1_555 1_555
C44 C27 1_555 1_555
C56 C54 1_555 1_555
O1 C2 1_555 1_555
O43 C17 1_555 1_555
O9 C44 1_555 1_555
O11 Cd1 1_555 1_555
O14 Cd3_4 1_555 1_555
O15 Cd1 1_555 1_555
C83 H50 1_555 1_555
C91 C93 1_555 1_555
C92 C83 1_555 1_555
H54 C92 1_555 1_555
H55 C93 1_555 1_555
O31 Cd2 1_555 1_555
O34 C88 1_555 1_555
Cd17 O36 1_555 1_555
C99 H57 1_555 1_555
C100 C99 1_555 1_555
H58 C100 1_555 1_555
C101 C100 1_555 1_555
C102 H59 1_555 1_555
C103 C101 1_555 1_555
H60 C103 1_555 1_555
C104 C99 1_555 1_555
C105 C102 1_555 1_555
H61 C105 1_555 1_555
C106 C102 1_555 1_555
C107 H62 1_555 1_555
C108 C104 1_555 1_555
C109 C105 1_555 1_555
C110 C109 1_555 1_555
C111 C106 1_555 1_555
H63 C111 1_555 1_555
C112 C103 1_555 1_555
H64 C112 1_555 1_555
O36 C108 1_555 1_555
O37 C101 1_555 1_555
O39 Cd3_4 1_555 1_555
O40 Cd17 1_555 1_555
O41 Cd17 1_555 1_555
O57 Cd1 1_555 1_555
O59 Cd2 1_555 1_555
C6 C7 1_555 1_555
C7 O1 1_555 1_555
C11 C15 1_555 1_555
C17 O14 1_555 1_555
C24 C27 1_555 1_555
C44 O15 1_555 1_555
C56 O11 1_555 1_555
C83 C88 1_555 1_555
C91 O34 1_555 1_555
C104 C112 1_555 1_555
C106 O37 1_555 1_555
C107 C109 1_555 1_555
C107 C111 1_555 1_555
C108 O40 1_555 1_555
C110 O39 1_555 1_555
C16 H11 1_555 1_555
C19 C16 1_555 1_555
H13 C19 1_555 1_555
C21 H15 1_555 1_555
C22 C29 1_555 1_555
C29 C16 1_555 1_555
C30 C19 1_555 1_555
C33 C30 1_555 1_555
H19 C33 1_555 1_555
C34 C21 1_555 1_555
C36 C29 1_555 1_555
H21 C36 1_555 1_555
C37 C21 1_555 1_555
H22 C37 1_555 1_555
C39 C34 1_555 1_555
H24 C39 1_555 1_555
C43 C39 1_555 1_555
H28 C43 1_555 1_555
C45 C47 1_555 1_555
C47 C37 1_555 1_555
C48 H29 1_555 1_555
O41 C22 1_555 1_555
O7 C30 1_555 1_555
O50 C22 1_555 1_555
O20 Cd2_2 1_555 1_555
C80 H47 1_555 1_555
C84 C80 1_555 1_555
H51 C84 1_555 1_555
C94 C82 1_555 1_555
H56 C94 1_555 1_555
C95 C84 1_555 1_555
C97 C95 1_555 1_555
O33 C97 1_555 1_555
O54 Cd2_2 1_555 1_555
Cd2_2 O55 1_555 1_555
C33 C36 1_555 1_555
C34 O7 1_555 1_555
C43 C47 1_555 1_555
C45 O13 1_555 1_555
C45 O20 1_555 1_555
O33 Cd8 1_555 1_555
Cd8 O54 1_555 1_555
C38 H23 1_555 1_555
C42 C38 1_555 1_555
H27 C42 1_555 1_555
C52 C40 1_555 1_555
H32 C52 1_555 1_555
C53 C42 1_555 1_555
C55 C53 1_555 1_555
O57 C55 1_555 1_555
C66 H39 1_555 1_555
C69 C66 1_555 1_555
H41 C69 1_555 1_555
C70 H42 1_555 1_555
C71 C74 1_555 1_555
C74 C66 1_555 1_555
C75 C69 1_555 1_555
C76 C75 1_555 1_555
H44 C76 1_555 1_555
C77 C70 1_555 1_555
C78 C74 1_555 1_555
H45 C78 1_555 1_555
C79 C70 1_555 1_555
H46 C79 1_555 1_555
C81 C77 1_555 1_555
H48 C81 1_555 1_555
C85 C81 1_555 1_555
H52 C85 1_555 1_555
C87 C89 1_555 1_555
C89 C79 1_555 1_555
C90 H53 1_555 1_555
O42 C71 1_555 1_555
O24 C75 1_555 1_555
O52 C71 1_555 1_555
O59 C87 1_555 1_555
C76 C78 1_555 1_555
C77 O24 1_555 1_555
C85 C89 1_555 1_555
C87 O28 1_555 1_555
C41 H26 1_555 1_555
C49 C51 1_555 1_555
C50 C41 1_555 1_555
H30 C50 1_555 1_555
H31 C51 1_555 1_555
O19 C46 1_555 1_555
Cd8 O25 1_555 1_555
C57 C62 1_555 1_555
C58 H33 1_555 1_555
C59 C58 1_555 1_555
H34 C59 1_555 1_555
C60 H35 1_555 1_555
C61 C59 1_555 1_555
C62 H36 1_555 1_555
C63 C57 1_555 1_555
H37 C63 1_555 1_555
C64 C60 1_555 1_555
H38 C64 1_555 1_555
C65 C58 1_555 1_555
C67 C65 1_555 1_555
C68 C62 1_555 1_555
H40 C68 1_555 1_555
C72 C63 1_555 1_555
H43 C72 1_555 1_555
C73 C68 1_555 1_555
C86 C73 1_555 1_555
C98 C96 1_555 1_555
O21 C57 1_555 1_555
O44 C67 1_555 1_555
O25 C86 1_555 1_555
O27 Cd8 1_555 1_555
O53 C67 1_555 1_555
C41 C46 1_555 1_555
C49 O19 1_555 1_555
C60 C61 1_555 1_555
C61 O21 1_555 1_555
C64 C65 1_555 1_555
C72 C73 1_555 1_555
C86 O54 1_555 1_555
C98 O27 1_555 1_555
C114 H68 1_555 1_555
H69 C114 1_555 1_555
C115 H70 1_555 1_555
H71 C115 1_555 1_555
H72 C115 1_555 1_555
C116 C114 1_555 1_555
H73 C116 1_555 1_555
H74 C116 1_555 1_555
C117 C115 1_555 1_555
H75 C117 1_555 1_555
H76 C117 1_555 1_555
C120 C116 1_555 1_555
H82 C120 1_555 1_555
H83 C120 1_555 1_555
C121 C117 1_555 1_555
H84 C121 1_555 1_555
H85 C121 1_555 1_555
H86 C122 1_555 1_555
H87 C122 1_555 1_555
H89 C123 1_555 1_555
C124 C121 1_555 1_555
H90 C124 1_555 1_555
H91 C124 1_555 1_555
C125 H92 1_555 1_555
H93 C125 1_555 1_555
C126 C123 1_555 1_555
H94 C126 1_555 1_555
H95 C126 1_555 1_555
C127 C122 1_555 1_555
H96 C127 1_555 1_555
H97 C127 1_555 1_555
N1 C120 1_555 1_555
C128 C114 1_555 1_555
H98 C128 1_555 1_555
H99 C128 1_555 1_555
H100 C128 1_555 1_555
C124 N1 1_555 1_555
C125 C126 1_555 1_555
C125 N1 1_555 1_555
C127 N1 1_555 1_555
H66 C113 1_555 1_555
C118 C113 1_555 1_555
H77 C118 1_555 1_555
H78 C118 1_555 1_555
H80 C119 1_555 1_555
H81 C119 1_555 1_555
H80_2 C119_2 1_555 1_555
H81_2 C119_2 1_555 1_555
H66_2 C113_2 1_555 1_555
C118_2 C113_2 1_555 1_555
H77_2 C118_2 1_555 1_555
H78_2 C118_2 1_555 1_555
C114_2 H68_2 1_555 1_555
H69_2 C114_2 1_555 1_555
C115_2 H70_2 1_555 1_555
H71_2 C115_2 1_555 1_555
H72_2 C115_2 1_555 1_555
C116_2 C114_2 1_555 1_555
H73_2 C116_2 1_555 1_555
H74_2 C116_2 1_555 1_555
C117_2 C115_2 1_555 1_555
H75_2 C117_2 1_555 1_555
H76_2 C117_2 1_555 1_555
C120_2 C116_2 1_555 1_555
H82_2 C120_2 1_555 1_555
H83_2 C120_2 1_555 1_555
C121_2 C117_2 1_555 1_555
H84_2 C121_2 1_555 1_555
H85_2 C121_2 1_555 1_555
H86_2 C122_2 1_555 1_555
H87_2 C122_2 1_555 1_555
H89_2 C123_2 1_555 1_555
C124_2 C121_2 1_555 1_555
H90_2 C124_2 1_555 1_555
H91_2 C124_2 1_555 1_555
C125_2 H92_2 1_555 1_555
H93_2 C125_2 1_555 1_555
C126_2 C123_2 1_555 1_555
H94_2 C126_2 1_555 1_555
H95_2 C126_2 1_555 1_555
C127_2 C122_2 1_555 1_555
H96_2 C127_2 1_555 1_555
H97_2 C127_2 1_555 1_555
N1_2 C120_2 1_555 1_555
C128_2 C114_2 1_555 1_555
H98_2 C128_2 1_555 1_555
H99_2 C128_2 1_555 1_555
H100_2 C128_2 1_555 1_555
C124_2 N1_2 1_555 1_555
C125_2 C126_2 1_555 1_555
C125_2 N1_2 1_555 1_555
C127_2 N1_2 1_555 1_555

#END
