
###############################################################################
#
# This file contains modified crystal structure data generated from the
# MOF subset of the Cambridge Structural Database (CSD) v543 
# hosted by the Cambridge Crystallographic Data Centre (CCDC).
#
# This work is licensed under the Creative Commons
# Attribution-NonCommercial-ShareAlike 4.0 International License.
# To view a copy of this license, visit
# http://creativecommons.org/licenses/by-nc-sa/4.0/
# or send a letter to
# Creative Commons, PO Box 1866, Mountain View, CA 94042, USA.
#
# CIF created using the CSD Python API on 29 September 2022
# The structure has been converted into the P1 space group
# The structure has a 3D framework
# The original CSD entry YIMBUU is in the monoclinic crystal system
# The framework has been calculated to contain at least 10.0% void space
# The void calculation uses a probe of radius 1.32A, grid spacing 0.4
#
###############################################################################

data_YIMBUU
_chemical_formula_moiety         '(C168 H120 Cd12 N48)n'
_symmetry_cell_setting           triclinic
_symmetry_space_group_name_H-M   'P 1'
_symmetry_Int_Tables_number      1
_space_group_name_Hall           'P 1'
loop_
_symmetry_equiv_pos_site_id
_symmetry_equiv_pos_as_xyz
1 x,y,z
_cell_length_a                   14.7241(7)
_cell_length_b                   21.4248(10)
_cell_length_c                   17.2433(7)
_cell_angle_alpha                90
_cell_angle_beta                 113.366(2)
_cell_angle_gamma                90
_cell_volume                     4993.49
loop_
_atom_site_label
_atom_site_type_symbol
_atom_site_fract_x
_atom_site_fract_y
_atom_site_fract_z
C4 C 0.0267(8) 0.6233(5) 0.9347(7)
H2 H 0.083775 0.647432 0.951806
C5 C 0.0300(9) 0.5596(6) 0.9274(8)
H3 H 0.090981 0.539803 0.943803
Cd7 Cd 0.01094(5) 0.78768(3) 0.98196(4)
Cd2 Cd 0.43851(5) 0.66162(3) 0.11078(4)
Cd3 Cd 0.51094(5) 0.71232(3) 0.48196(4)
N4 N 0.4825(5) 0.6975(3) 0.0139(4)
N5 N 0.4113(6) 0.5620(3) 0.0758(4)
N6 N 0.3796(6) 0.4614(3) 0.0936(4)
N7 N 0.5250(6) 0.6602(4) 0.2464(4)
N8 N 0.5438(6) 0.6722(3) 0.3812(4)
N9 N 0.6479(6) 0.7588(4) 0.5667(5)
N10 N 0.7953(5) 0.8066(3) 0.6073(4)
N11 N 0.4806(6) 0.6593(4) 0.5775(4)
N12 N 0.5225(6) 0.6360(3) 0.7135(4)
H7 H 0.417733 0.818579 0.027448
C15 C 0.4280(7) 0.5138(4) 0.1277(5)
H11 H 0.470780 0.516376 0.184360
C17 C 0.3250(6) 0.4767(4) 0.0107(5)
C22 C 0.4962(7) 0.6883(4) 0.3011(5)
H16 H 0.445465 0.717624 0.284314
C23 C 0.5987(7) 0.6194(4) 0.2959(6)
C24 C 0.6114(7) 0.6281(4) 0.3794(5)
C25 C 0.6802(8) 0.5925(5) 0.4438(6)
H17 H 0.687641 0.597188 0.499611
C26 C 0.7363(8) 0.5505(5) 0.4222(7)
H18 H 0.782580 0.526325 0.464129
C27 C 0.7257(8) 0.5431(5) 0.3379(7)
H19 H 0.764821 0.514339 0.324918
C28 C 0.6574(7) 0.5784(4) 0.2741(6)
H20 H 0.651047 0.574663 0.218453
C29 C 0.7331(7) 0.7641(4) 0.5577(5)
H21 H 0.748271 0.739944 0.519608
C30 C 0.6541(7) 0.8032(4) 0.6265(6)
C31 C 0.7458(7) 0.8320(4) 0.6517(5)
C32 C 0.7721(8) 0.8802(4) 0.7130(6)
H22 H 0.833418 0.899770 0.731145
C33 C 0.7041(10) 0.8968(5) 0.7440(7)
H23 H 0.720050 0.928138 0.784552
C34 C 0.6114(10) 0.8686(5) 0.7176(7)
H24 H 0.566376 0.882236 0.739526
C35 C 0.5854(9) 0.8204(5) 0.6589(7)
H25 H 0.524428 0.800452 0.642062
C36 C 0.5530(7) 0.6538(5) 0.6547(6)
H26 H 0.619024 0.661805 0.665764
C37 C 0.3943(7) 0.6476(4) 0.5879(6)
C38 C 0.4216(7) 0.6326(4) 0.6734(6)
C39 C 0.3488(8) 0.6199(5) 0.7053(7)
H27 H 0.365382 0.611612 0.762281
C40 C 0.2535(8) 0.6203(5) 0.6485(7)
H28 H 0.203995 0.610720 0.667289
C41 C 0.2262(8) 0.6344(5) 0.5637(7)
H29 H 0.159549 0.635286 0.527730
C42 C 0.2968(8) 0.6472(5) 0.5320(6)
H30 H 0.279155 0.655141 0.474848
Cd4 Cd 0.61581(5) 0.62928(3) 0.84715(4)
Cd5 Cd 0.38419(5) 0.37072(3) 0.15285(4)
Cd6 Cd 0.93851(5) 0.83838(3) 0.61078(4)
N13 N 0.4063(6) 0.7884(4) 0.4187(5)
N15 N 0.2953(5) 0.6934(3) 0.1073(4)
N1 N 0.7664(6) 0.6555(3) 0.8708(5)
N2 N 0.9063(6) 0.7116(4) 0.9187(5)
N3 N 0.5508(5) 0.6850(3) 0.9191(4)
C1 C 0.8097(7) 0.7110(4) 0.8941(6)
H1 H 0.773819 0.746901 0.892959
C2 C 0.8464(8) 0.6152(5) 0.8861(6)
C3 C 0.9321(7) 0.6509(5) 0.9149(6)
C6 C 0.9435(11) 0.5241(6) 0.8959(9)
H4 H 0.948161 0.481440 0.888250
C7 C 0.8498(9) 0.5505(5) 0.8755(7)
H5 H 0.792657 0.526363 0.855825
C8 C 0.5248(6) 0.6595(4) 0.9774(5)
H6 H 0.535544 0.617513 0.991839
C9 C 0.5221(7) 0.7461(4) 0.9159(5)
C10 C 0.4792(6) 0.7549(4) 0.9743(5)
C11 C 0.4444(7) 0.8129(4) 0.9873(6)
C12 C 0.4515(8) 0.8607(5) 0.9382(6)
H8 H 0.427845 0.899791 0.944395
C13 C 0.4935(8) 0.8529(5) 0.8783(6)
H9 H 0.497530 0.887035 0.846456
C14 C 0.5289(7) 0.7956(5) 0.8660(6)
H10 H 0.556076 0.790363 0.826092
C16 C 0.3442(6) 0.5391(4) 0.9983(5)
C18 C 0.2594(7) 0.4414(4) 0.9432(5)
H12 H 0.245445 0.400020 0.950488
C19 C 0.2168(7) 0.4701(5) 0.8662(6)
H13 H 0.173772 0.447433 0.820337
C20 C 0.2359(7) 0.5316(5) 0.8548(5)
H14 H 0.205080 0.549105 0.801337
C21 C 0.2986(7) 0.5680(4) 0.9190(5)
H15 H 0.310247 0.609620 0.910625
N14 N 0.6204(6) 0.5386(3) 0.9064(4)
Cd2_2 Cd 0.06149(5) 0.16162(3) 0.38922(4)
N4_2 N 0.0175(5) 0.1975(3) 0.4861(4)
N5_2 N 0.0887(6) 0.0620(3) 0.4242(4)
C10_2 C 0.0208(6) 0.2549(4) 0.5257(5)
C11_2 C 0.0556(7) 0.3129(4) 0.5127(6)
H7_2 H 0.082267 0.318579 0.472552
C12_2 C 0.0485(8) 0.3607(5) 0.5618(6)
H8_2 H 0.072155 0.399791 0.555605
C13_2 C 0.0065(8) 0.3529(5) 0.6217(6)
H9_2 H 0.002470 0.387035 0.653544
C15_2 C 0.0720(7) 0.0138(4) 0.3723(5)
H11_2 H 0.029220 0.016376 0.315640
C16_2 C 0.1558(6) 0.0391(4) 0.5017(5)
C20_2 C 0.2641(7) 0.0316(5) 0.6452(5)
H14_2 H 0.294920 0.049105 0.698663
C21_2 C 0.2014(7) 0.0680(4) 0.5810(5)
H15_2 H 0.189753 0.109620 0.589375
C22_2 C 0.0038(7) 0.1883(4) 0.1989(5)
H16_2 H 0.054535 0.217624 0.215686
H30_2 H 0.220845 0.155141 0.025152
N13_2 N 0.0937(6) 0.2884(4) 0.0813(5)
N15_2 N 0.2047(5) 0.1934(3) 0.3927(4)
N6_2 N 0.1204(6) 0.9614(3) 0.4064(4)
C17_2 C 0.1750(6) 0.9767(4) 0.4893(5)
C18_2 C 0.2406(7) 0.9414(4) 0.5568(5)
H12_2 H 0.254555 0.900020 0.549512
C19_2 C 0.2832(7) 0.9701(5) 0.6338(6)
H13_2 H 0.326228 0.947433 0.679663
Cd5_2 Cd 0.11581(5) 0.87072(3) 0.34715(4)
Cd1 Cd 0.88419(5) 0.12928(3) 0.65285(4)
Cd3_2 Cd 0.98906(5) 0.21232(3) 0.01804(4)
N1_2 N 0.7336(6) 0.1555(3) 0.6292(5)
N2_2 N 0.5937(6) 0.2116(4) 0.5813(5)
N3_2 N 0.9492(5) 0.1850(3) 0.5809(4)
N7_2 N 0.9750(6) 0.1602(4) 0.2536(4)
N8_2 N 0.9562(6) 0.1722(3) 0.1188(4)
C1_2 C 0.6903(7) 0.2110(4) 0.6059(6)
H1_2 H 0.726181 0.246901 0.607041
C2_2 C 0.6536(8) 0.1152(5) 0.6139(6)
C3_2 C 0.5679(7) 0.1509(5) 0.5851(6)
C4_2 C 0.4733(8) 0.1233(5) 0.5653(7)
H2_2 H 0.416225 0.147432 0.548194
C5_2 C 0.4700(9) 0.0596(6) 0.5726(8)
H3_2 H 0.409019 0.039803 0.556197
C6_2 C 0.5565(11) 0.0241(6) 0.6041(9)
C7_2 C 0.6502(9) 0.0505(5) 0.6245(7)
H5_2 H 0.707343 0.026363 0.644175
C8_2 C 0.9752(6) 0.1595(4) 0.5226(5)
H6_2 H 0.964456 0.117513 0.508161
C9_2 C 0.9779(7) 0.2461(4) 0.5841(5)
C14_2 C 0.9711(7) 0.2956(5) 0.6340(6)
H10_2 H 0.943924 0.290363 0.673908
C23_2 C 0.9013(7) 0.1194(4) 0.2041(6)
C24_2 C 0.8886(7) 0.1281(4) 0.1206(5)
C25_2 C 0.8198(8) 0.0925(5) 0.0562(6)
H17_2 H 0.812359 0.097188 0.000389
C26_2 C 0.7637(8) 0.0505(5) 0.0778(7)
H18_2 H 0.717420 0.026325 0.035871
C27_2 C 0.7743(8) 0.0431(5) 0.1621(7)
H19_2 H 0.735179 0.014339 0.175082
C28_2 C 0.8426(7) 0.0784(4) 0.2259(6)
H20_2 H 0.848953 0.074663 0.281547
Cd7_2 Cd 0.48906(5) 0.28768(3) 0.51804(4)
N14_2 N 0.8796(6) 0.0386(3) 0.5936(4)
N16 N 0.9775(6) 0.1360(3) 0.7865(4)
N9_2 N 0.8521(6) 0.2588(4) 0.9333(5)
N10_2 N 0.7047(5) 0.3066(3) 0.8927(4)
C29_2 C 0.7669(7) 0.2641(4) 0.9423(5)
H21_2 H 0.751729 0.239944 0.980392
C30_2 C 0.8459(7) 0.3032(4) 0.8735(6)
C31_2 C 0.7542(7) 0.3320(4) 0.8483(5)
C32_2 C 0.7279(8) 0.3802(4) 0.7870(6)
H22_2 H 0.666582 0.399770 0.768855
C33_2 C 0.7959(10) 0.3968(5) 0.7560(7)
H23_2 H 0.779950 0.428138 0.715448
C34_2 C 0.8886(10) 0.3686(5) 0.7824(7)
H24_2 H 0.933624 0.382236 0.760474
C35_2 C 0.9146(9) 0.3204(5) 0.8411(7)
H25_2 H 0.975572 0.300452 0.857938
C36_2 C 0.9470(7) 0.1538(5) 0.8453(6)
H26_2 H 0.880976 0.161805 0.834236
Cd6_2 Cd 0.56149(5) 0.33838(3) 0.88922(4)
N1_3 N 0.2336(6) 0.3445(3) 0.1292(5)
N3_3 N 0.4492(5) 0.3150(3) 0.0809(4)
C1_3 C 0.1903(7) 0.2890(4) 0.1059(6)
H1_3 H 0.226181 0.253099 0.107041
C2_3 C 0.1536(8) 0.3848(5) 0.1139(6)
C3_3 C 0.0679(7) 0.3491(5) 0.0851(6)
C6_3 C 0.0565(11) 0.4759(6) 0.1041(9)
H4_2 H 0.051839 0.518560 0.111750
C7_3 C 0.1502(9) 0.4495(5) 0.1245(7)
H5_3 H 0.207343 0.473637 0.144175
C8_3 C 0.4752(6) 0.3405(4) 0.0226(5)
H6_3 H 0.464456 0.382487 0.008161
C9_3 C 0.4779(7) 0.2539(4) 0.0841(5)
C10_3 C 0.5208(6) 0.2451(4) 0.0257(5)
C11_3 C 0.5556(7) 0.1871(4) 0.0127(6)
C12_3 C 0.5485(8) 0.1393(5) 0.0618(6)
H8_3 H 0.572155 0.100209 0.055605
C13_3 C 0.5065(8) 0.1471(5) 0.1217(6)
H9_3 H 0.502470 0.112965 0.153544
C14_3 C 0.4711(7) 0.2044(5) 0.1340(6)
H10_3 H 0.443924 0.209637 0.173908
C16_3 C 0.6558(6) 0.4609(4) 0.0017(5)
C18_3 C 0.7406(7) 0.5586(4) 0.0568(5)
H12_3 H 0.754555 0.599980 0.049512
C19_3 C 0.7832(7) 0.5299(5) 0.1338(6)
H13_3 H 0.826228 0.552567 0.179663
C20_3 C 0.7641(7) 0.4684(5) 0.1452(5)
H14_3 H 0.794920 0.450895 0.198663
C21_3 C 0.7014(7) 0.4320(4) 0.0810(5)
H15_3 H 0.689753 0.390380 0.089375
N16_2 N 0.4775(6) 0.3640(3) 0.2865(4)
N4_3 N 0.5175(5) 0.3025(3) 0.9861(4)
N5_3 N 0.5887(6) 0.4380(3) 0.9242(4)
N7_3 N 0.4750(6) 0.3398(4) 0.7536(4)
N8_3 N 0.4562(6) 0.3278(3) 0.6188(4)
N9_3 N 0.3521(6) 0.2412(4) 0.4333(5)
N11_2 N 0.5194(6) 0.3407(4) 0.4225(4)
H7_3 H 0.582267 0.181421 0.972552
C15_3 C 0.5720(7) 0.4862(4) 0.8723(5)
H11_3 H 0.529220 0.483624 0.815640
C17_3 C 0.6750(6) 0.5233(4) 0.9893(5)
C22_3 C 0.5038(7) 0.3117(4) 0.6989(5)
H16_3 H 0.554535 0.282376 0.715686
C23_3 C 0.4013(7) 0.3806(4) 0.7041(6)
C24_3 C 0.3886(7) 0.3719(4) 0.6206(5)
C25_3 C 0.3198(8) 0.4075(5) 0.5562(6)
H17_3 H 0.312359 0.402812 0.500389
C26_3 C 0.2637(8) 0.4495(5) 0.5778(7)
H18_3 H 0.217420 0.473675 0.535871
C27_3 C 0.2743(8) 0.4569(5) 0.6621(7)
H19_3 H 0.235179 0.485661 0.675082
C28_3 C 0.3426(7) 0.4216(4) 0.7259(6)
H20_3 H 0.348953 0.425337 0.781547
C29_3 C 0.2669(7) 0.2359(4) 0.4423(5)
H21_3 H 0.251729 0.260056 0.480392
C30_3 C 0.3459(7) 0.1968(4) 0.3735(6)
C31_3 C 0.2542(7) 0.1680(4) 0.3483(5)
C32_3 C 0.2279(8) 0.1198(4) 0.2870(6)
H22_3 H 0.166582 0.100230 0.268855
C33_3 C 0.2959(10) 0.1032(5) 0.2560(7)
H23_3 H 0.279950 0.071862 0.215448
C34_3 C 0.3886(10) 0.1314(5) 0.2824(7)
H24_3 H 0.433624 0.117764 0.260474
C35_3 C 0.4146(9) 0.1796(5) 0.3411(7)
H25_3 H 0.475572 0.199548 0.357938
C36_3 C 0.4470(7) 0.3462(5) 0.3453(6)
H26_3 H 0.380976 0.338195 0.334236
C37_2 C 0.6057(7) 0.3524(4) 0.4121(6)
C38_2 C 0.5784(7) 0.3674(4) 0.3266(6)
C39_2 C 0.6512(8) 0.3801(5) 0.2947(7)
H27_2 H 0.634618 0.388388 0.237719
C40_2 C 0.7465(8) 0.3797(5) 0.3515(7)
H28_2 H 0.796005 0.389280 0.332711
C41_2 C 0.7738(8) 0.3656(5) 0.4363(7)
H29_2 H 0.840451 0.364714 0.472270
C42_2 C 0.7032(8) 0.3528(5) 0.4680(6)
H30_3 H 0.720845 0.344859 0.525152
C4_3 C 0.9733(8) 0.3767(5) 0.0653(7)
H2_3 H 0.916225 0.352568 0.048194
C5_3 C 0.9700(9) 0.4404(6) 0.0726(8)
H3_3 H 0.909019 0.460197 0.056197
N9_4 N 0.1479(6) 0.7412(4) 0.0667(5)
N12_2 N 0.0225(6) 0.8640(3) 0.2135(4)
C29_4 C 0.2331(7) 0.7359(4) 0.0577(5)
H21_4 H 0.248271 0.760056 0.019608
C30_4 C 0.1541(7) 0.6968(4) 0.1265(6)
C31_4 C 0.2458(7) 0.6680(4) 0.1517(5)
C32_4 C 0.2721(8) 0.6198(4) 0.2130(6)
H22_4 H 0.333418 0.600230 0.231145
C33_4 C 0.2041(10) 0.6032(5) 0.2440(7)
H23_4 H 0.220050 0.571862 0.284552
C34_4 C 0.1114(10) 0.6314(5) 0.2176(7)
H24_4 H 0.066376 0.617764 0.239526
C35_4 C 0.0854(9) 0.6796(5) 0.1589(7)
H25_4 H 0.024428 0.699548 0.142062
C36_4 C 0.0530(7) 0.8462(5) 0.1547(6)
H26_4 H 0.119024 0.838195 0.165764
N1_4 N 0.2664(6) 0.8445(3) 0.3708(5)
N3_4 N 0.0508(5) 0.8150(3) 0.4191(4)
N7_4 N 0.0250(6) 0.8398(4) 0.7464(4)
N8_4 N 0.0438(6) 0.8278(3) 0.8812(4)
C1_4 C 0.3097(7) 0.7890(4) 0.3941(6)
H1_4 H 0.273819 0.753099 0.392959
C2_4 C 0.3464(8) 0.8848(5) 0.3861(6)
C3_4 C 0.4321(7) 0.8491(5) 0.4149(6)
C4_4 C 0.5267(8) 0.8767(5) 0.4347(7)
H2_4 H 0.583775 0.852568 0.451806
C5_4 C 0.5300(9) 0.9404(6) 0.4274(8)
H3_4 H 0.590981 0.960197 0.443803
C6_4 C 0.4435(11) 0.9759(6) 0.3959(9)
C7_4 C 0.3498(9) 0.9495(5) 0.3755(7)
H5_4 H 0.292657 0.973637 0.355825
C8_4 C 0.0248(6) 0.8405(4) 0.4774(5)
H6_4 H 0.035544 0.882487 0.491839
C9_4 C 0.0221(7) 0.7539(4) 0.4159(5)
C14_4 C 0.0289(7) 0.7044(5) 0.3660(6)
H10_4 H 0.056076 0.709637 0.326092
C23_4 C 0.0987(7) 0.8806(4) 0.7959(6)
C24_4 C 0.1114(7) 0.8719(4) 0.8794(5)
C25_4 C 0.1802(8) 0.9075(5) 0.9438(6)
H17_4 H 0.187641 0.902812 0.999611
C26_4 C 0.2363(8) 0.9495(5) 0.9222(7)
H18_4 H 0.282580 0.973675 0.964129
C27_4 C 0.2257(8) 0.9569(5) 0.8379(7)
H19_4 H 0.264821 0.985661 0.824918
C28_4 C 0.1574(7) 0.9216(4) 0.7741(6)
H20_4 H 0.151047 0.925337 0.718453
C17_4 C 0.8250(6) 0.0233(4) 0.5107(5)
C18_4 C 0.7594(7) 0.0586(4) 0.4432(5)
H12_4 H 0.745445 0.099980 0.450488
C19_4 C 0.7168(7) 0.0299(5) 0.3662(6)
H13_4 H 0.673772 0.052567 0.320337
N4_4 N 0.9825(5) 0.8025(3) 0.5139(4)
N5_4 N 0.9113(6) 0.9380(3) 0.5758(4)
C10_4 C 0.9792(6) 0.7451(4) 0.4743(5)
C11_4 C 0.9444(7) 0.6871(4) 0.4873(6)
H7_4 H 0.917733 0.681421 0.527448
C12_4 C 0.9515(8) 0.6393(5) 0.4382(6)
H8_4 H 0.927845 0.600209 0.444395
C13_4 C 0.9935(8) 0.6471(5) 0.3783(6)
H9_4 H 0.997530 0.612965 0.346456
C15_4 C 0.9280(7) 0.9862(4) 0.6277(5)
H11_4 H 0.970780 0.983624 0.684360
C16_4 C 0.8442(6) 0.9609(4) 0.4983(5)
C20_4 C 0.7359(7) 0.9684(5) 0.3548(5)
H14_4 H 0.705080 0.950895 0.301337
C21_4 C 0.7986(7) 0.9320(4) 0.4190(5)
H15_4 H 0.810247 0.890380 0.410625
C22_4 C 0.9962(7) 0.8117(4) 0.8011(5)
H16_4 H 0.945465 0.782376 0.784314
H30_4 H 0.779155 0.844859 0.974848
N11_3 N 0.0194(6) 0.1593(4) 0.9225(4)
C37_3 C 0.1057(7) 0.1476(4) 0.9121(6)
C38_3 C 0.0784(7) 0.1326(4) 0.8266(6)
C39_3 C 0.1512(8) 0.1199(5) 0.7947(7)
H27_3 H 0.134618 0.111612 0.737719
C40_3 C 0.2465(8) 0.1203(5) 0.8515(7)
H28_3 H 0.296005 0.110720 0.832711
C41_3 C 0.2738(8) 0.1344(5) 0.9363(7)
H29_3 H 0.340451 0.135286 0.972270
C42_3 C 0.2032(8) 0.1472(5) 0.9680(6)
H4_3 H 0.551839 0.981440 0.611750
H4_4 H 0.448161 0.018560 0.388250
N11_4 N 0.9806(6) 0.8407(4) 0.0775(4)
C37_4 C 0.8943(7) 0.8524(4) 0.0879(6)
C38_4 C 0.9216(7) 0.8674(4) 0.1734(6)
C39_4 C 0.8488(8) 0.8801(5) 0.2053(7)
H27_4 H 0.865382 0.888388 0.262281
C40_4 C 0.7535(8) 0.8797(5) 0.1485(7)
H28_4 H 0.703995 0.889280 0.167289
C41_4 C 0.7262(8) 0.8656(5) 0.0637(7)
H29_4 H 0.659549 0.864714 0.027730
C42_4 C 0.7968(8) 0.8528(5) 0.0320(6)
loop_
_geom_bond_atom_site_label_1
_geom_bond_atom_site_label_2
_geom_bond_site_symmetry_1
_geom_bond_site_symmetry_2
H2 C4 1_555 1_555
C5 C4 1_555 1_555
H3 C5 1_555 1_555
Cd2 N4 1_555 1_555
Cd3 N8 1_555 1_555
N5 Cd2 1_555 1_555
N6 C15 1_555 1_555
N7 Cd2 1_555 1_555
N8 C22 1_555 1_555
N9 Cd3 1_555 1_555
N10 C29 1_555 1_555
N11 Cd3 1_555 1_555
N12 C36 1_555 1_555
C15 N5 1_555 1_555
H11 C15 1_555 1_555
C17 N6 1_555 1_555
C22 N7 1_555 1_555
H16 C22 1_555 1_555
C23 N7 1_555 1_555
C24 N8 1_555 1_555
C25 C24 1_555 1_555
H17 C25 1_555 1_555
C26 C25 1_555 1_555
H18 C26 1_555 1_555
C27 C26 1_555 1_555
H19 C27 1_555 1_555
C28 C23 1_555 1_555
H20 C28 1_555 1_555
C29 N9 1_555 1_555
H21 C29 1_555 1_555
C30 N9 1_555 1_555
C31 N10 1_555 1_555
C32 C31 1_555 1_555
H22 C32 1_555 1_555
C33 C32 1_555 1_555
H23 C33 1_555 1_555
C34 C33 1_555 1_555
H24 C34 1_555 1_555
C35 C30 1_555 1_555
H25 C35 1_555 1_555
C36 N11 1_555 1_555
H26 C36 1_555 1_555
C37 N11 1_555 1_555
C38 N12 1_555 1_555
C39 C38 1_555 1_555
H27 C39 1_555 1_555
C40 C39 1_555 1_555
H28 C40 1_555 1_555
C41 C40 1_555 1_555
H29 C41 1_555 1_555
C42 C37 1_555 1_555
H30 C42 1_555 1_555
Cd4 N12 1_555 1_555
Cd5 N6 1_555 1_555
Cd6 N10 1_555 1_555
N13 Cd3 1_555 1_555
N15 Cd2 1_555 1_555
C23 C24 1_555 1_555
C27 C28 1_555 1_555
C30 C31 1_555 1_555
C34 C35 1_555 1_555
C37 C38 1_555 1_555
C41 C42 1_555 1_555
Cd4 N1 1_555 1_555
N1 C1 1_555 1_555
N2 C1 1_555 1_555
N3 Cd4 1_555 1_555
C1 H1 1_555 1_555
C2 N1 1_555 1_555
C3 N2 1_555 1_555
H4 C6 1_555 1_555
C7 C2 1_555 1_555
H5 C7 1_555 1_555
C8 N3 1_555 1_555
H6 C8 1_555 1_555
C9 N3 1_555 1_555
C11 C10 1_555 1_555
C12 C11 1_555 1_555
H8 C12 1_555 1_555
C13 C12 1_555 1_555
H9 C13 1_555 1_555
C14 C9 1_555 1_555
H10 C14 1_555 1_555
H12 C18 1_555 1_555
C19 C18 1_555 1_555
H13 C19 1_555 1_555
C20 C19 1_555 1_555
H14 C20 1_555 1_555
C21 C16 1_555 1_555
H15 C21 1_555 1_555
N14 Cd4 1_555 1_555
C2 C3 1_555 1_555
C6 C7 1_555 1_555
C9 C10 1_555 1_555
C13 C14 1_555 1_555
C20 C21 1_555 1_555
Cd2_2 N4_2 1_555 1_555
N5_2 Cd2_2 1_555 1_555
C10_2 N4_2 1_555 1_555
C11_2 C10_2 1_555 1_555
H7_2 C11_2 1_555 1_555
C12_2 C11_2 1_555 1_555
H8_2 C12_2 1_555 1_555
C13_2 C12_2 1_555 1_555
H9_2 C13_2 1_555 1_555
C15_2 N5_2 1_555 1_555
H11_2 C15_2 1_555 1_555
C16_2 N5_2 1_555 1_555
H14_2 C20_2 1_555 1_555
C21_2 C16_2 1_555 1_555
H15_2 C21_2 1_555 1_555
H16_2 C22_2 1_555 1_555
N15_2 Cd2_2 1_555 1_555
C20_2 C21_2 1_555 1_555
C17_2 N6_2 1_555 1_555
C18_2 C17_2 1_555 1_555
H12_2 C18_2 1_555 1_555
C19_2 C18_2 1_555 1_555
H13_2 C19_2 1_555 1_555
Cd5_2 N6_2 1_555 1_555
Cd1 N1_2 1_555 1_555
Cd3_2 N8_2 1_555 1_555
N1_2 C1_2 1_555 1_555
N2_2 C1_2 1_555 1_555
N3_2 Cd1 1_555 1_555
C1_2 H1_2 1_555 1_555
C2_2 N1_2 1_555 1_555
C3_2 N2_2 1_555 1_555
C4_2 C3_2 1_555 1_555
H2_2 C4_2 1_555 1_555
C5_2 C4_2 1_555 1_555
H3_2 C5_2 1_555 1_555
C6_2 C5_2 1_555 1_555
C7_2 C2_2 1_555 1_555
H5_2 C7_2 1_555 1_555
C8_2 N3_2 1_555 1_555
H6_2 C8_2 1_555 1_555
C9_2 N3_2 1_555 1_555
C14_2 C9_2 1_555 1_555
H10_2 C14_2 1_555 1_555
C23_2 N7_2 1_555 1_555
C24_2 N8_2 1_555 1_555
C25_2 C24_2 1_555 1_555
H17_2 C25_2 1_555 1_555
C26_2 C25_2 1_555 1_555
H18_2 C26_2 1_555 1_555
C27_2 C26_2 1_555 1_555
H19_2 C27_2 1_555 1_555
C28_2 C23_2 1_555 1_555
H20_2 C28_2 1_555 1_555
Cd7_2 N2_2 1_555 1_555
N14_2 Cd1 1_555 1_555
N16 Cd1 1_555 1_555
C2_2 C3_2 1_555 1_555
C6_2 C7_2 1_555 1_555
C23_2 C24_2 1_555 1_555
C27_2 C28_2 1_555 1_555
N10_2 C29_2 1_555 1_555
N16 C36_2 1_555 1_555
C29_2 N9_2 1_555 1_555
H21_2 C29_2 1_555 1_555
C30_2 N9_2 1_555 1_555
C31_2 N10_2 1_555 1_555
C32_2 C31_2 1_555 1_555
H22_2 C32_2 1_555 1_555
C33_2 C32_2 1_555 1_555
H23_2 C33_2 1_555 1_555
C34_2 C33_2 1_555 1_555
H24_2 C34_2 1_555 1_555
C35_2 C30_2 1_555 1_555
H25_2 C35_2 1_555 1_555
H26_2 C36_2 1_555 1_555
Cd6_2 N10_2 1_555 1_555
C30_2 C31_2 1_555 1_555
C34_2 C35_2 1_555 1_555
Cd5 N1_3 1_555 1_555
N1_3 C1_3 1_555 1_555
N13_2 C1_3 1_555 1_555
N3_3 Cd5 1_555 1_555
C1_3 H1_3 1_555 1_555
C2_3 N1_3 1_555 1_555
C3_3 N13_2 1_555 1_555
H4_2 C6_3 1_555 1_555
C7_3 C2_3 1_555 1_555
H5_3 C7_3 1_555 1_555
C8_3 N3_3 1_555 1_555
H6_3 C8_3 1_555 1_555
C9_3 N3_3 1_555 1_555
C11_3 C10_3 1_555 1_555
C12_3 C11_3 1_555 1_555
H8_3 C12_3 1_555 1_555
C13_3 C12_3 1_555 1_555
H9_3 C13_3 1_555 1_555
C14_3 C9_3 1_555 1_555
H10_3 C14_3 1_555 1_555
H12_3 C18_3 1_555 1_555
C19_3 C18_3 1_555 1_555
H13_3 C19_3 1_555 1_555
C20_3 C19_3 1_555 1_555
H14_3 C20_3 1_555 1_555
C21_3 C16_3 1_555 1_555
H15_3 C21_3 1_555 1_555
N16_2 Cd5 1_555 1_555
C2_3 C3_3 1_555 1_555
C6_3 C7_3 1_555 1_555
C9_3 C10_3 1_555 1_555
C13_3 C14_3 1_555 1_555
C20_3 C21_3 1_555 1_555
Cd6_2 N4_3 1_555 1_555
Cd7_2 N8_3 1_555 1_555
N5_3 Cd6_2 1_555 1_555
N14 C15_3 1_555 1_555
N7_3 Cd6_2 1_555 1_555
N8_3 C22_3 1_555 1_555
N9_3 Cd7_2 1_555 1_555
N15_2 C29_3 1_555 1_555
N11_2 Cd7_2 1_555 1_555
N16_2 C36_3 1_555 1_555
C15_3 N5_3 1_555 1_555
H11_3 C15_3 1_555 1_555
C17_3 N14 1_555 1_555
C22_3 N7_3 1_555 1_555
H16_3 C22_3 1_555 1_555
C23_3 N7_3 1_555 1_555
C24_3 N8_3 1_555 1_555
C25_3 C24_3 1_555 1_555
H17_3 C25_3 1_555 1_555
C26_3 C25_3 1_555 1_555
H18_3 C26_3 1_555 1_555
C27_3 C26_3 1_555 1_555
H19_3 C27_3 1_555 1_555
C28_3 C23_3 1_555 1_555
H20_3 C28_3 1_555 1_555
C29_3 N9_3 1_555 1_555
H21_3 C29_3 1_555 1_555
C30_3 N9_3 1_555 1_555
C31_3 N15_2 1_555 1_555
C32_3 C31_3 1_555 1_555
H22_3 C32_3 1_555 1_555
C33_3 C32_3 1_555 1_555
H23_3 C33_3 1_555 1_555
C34_3 C33_3 1_555 1_555
H24_3 C34_3 1_555 1_555
C35_3 C30_3 1_555 1_555
H25_3 C35_3 1_555 1_555
C36_3 N11_2 1_555 1_555
H26_3 C36_3 1_555 1_555
C37_2 N11_2 1_555 1_555
C38_2 N16_2 1_555 1_555
C39_2 C38_2 1_555 1_555
H27_2 C39_2 1_555 1_555
C40_2 C39_2 1_555 1_555
H28_2 C40_2 1_555 1_555
C41_2 C40_2 1_555 1_555
H29_2 C41_2 1_555 1_555
C42_2 C37_2 1_555 1_555
H30_3 C42_2 1_555 1_555
C23_3 C24_3 1_555 1_555
C27_3 C28_3 1_555 1_555
C30_3 C31_3 1_555 1_555
C34_3 C35_3 1_555 1_555
C37_2 C38_2 1_555 1_555
C41_2 C42_2 1_555 1_555
H2_3 C4_3 1_555 1_555
C5_3 C4_3 1_555 1_555
H3_3 C5_3 1_555 1_555
N15 C29_4 1_555 1_555
N12_2 C36_4 1_555 1_555
C29_4 N9_4 1_555 1_555
H21_4 C29_4 1_555 1_555
C30_4 N9_4 1_555 1_555
C31_4 N15 1_555 1_555
C32_4 C31_4 1_555 1_555
H22_4 C32_4 1_555 1_555
C33_4 C32_4 1_555 1_555
H23_4 C33_4 1_555 1_555
C34_4 C33_4 1_555 1_555
H24_4 C34_4 1_555 1_555
C35_4 C30_4 1_555 1_555
H25_4 C35_4 1_555 1_555
H26_4 C36_4 1_555 1_555
Cd5_2 N12_2 1_555 1_555
C30_4 C31_4 1_555 1_555
C34_4 C35_4 1_555 1_555
Cd5_2 N1_4 1_555 1_555
Cd7 N8_4 1_555 1_555
N1_4 C1_4 1_555 1_555
N13 C1_4 1_555 1_555
N3_4 Cd5_2 1_555 1_555
C1_4 H1_4 1_555 1_555
C2_4 N1_4 1_555 1_555
C3_4 N13 1_555 1_555
C4_4 C3_4 1_555 1_555
H2_4 C4_4 1_555 1_555
C5_4 C4_4 1_555 1_555
H3_4 C5_4 1_555 1_555
C6_4 C5_4 1_555 1_555
C7_4 C2_4 1_555 1_555
H5_4 C7_4 1_555 1_555
C8_4 N3_4 1_555 1_555
H6_4 C8_4 1_555 1_555
C9_4 N3_4 1_555 1_555
C14_4 C9_4 1_555 1_555
H10_4 C14_4 1_555 1_555
C23_4 N7_4 1_555 1_555
C24_4 N8_4 1_555 1_555
C25_4 C24_4 1_555 1_555
H17_4 C25_4 1_555 1_555
C26_4 C25_4 1_555 1_555
H18_4 C26_4 1_555 1_555
C27_4 C26_4 1_555 1_555
H19_4 C27_4 1_555 1_555
C28_4 C23_4 1_555 1_555
H20_4 C28_4 1_555 1_555
C2_4 C3_4 1_555 1_555
C6_4 C7_4 1_555 1_555
C23_4 C24_4 1_555 1_555
C27_4 C28_4 1_555 1_555
C17_4 N14_2 1_555 1_555
C18_4 C17_4 1_555 1_555
H12_4 C18_4 1_555 1_555
C19_4 C18_4 1_555 1_555
H13_4 C19_4 1_555 1_555
Cd6 N4_4 1_555 1_555
N5_4 Cd6 1_555 1_555
C10_4 N4_4 1_555 1_555
C11_4 C10_4 1_555 1_555
H7_4 C11_4 1_555 1_555
C12_4 C11_4 1_555 1_555
H8_4 C12_4 1_555 1_555
C13_4 C12_4 1_555 1_555
H9_4 C13_4 1_555 1_555
C15_4 N5_4 1_555 1_555
H11_4 C15_4 1_555 1_555
C16_4 N5_4 1_555 1_555
H14_4 C20_4 1_555 1_555
C21_4 C16_4 1_555 1_555
H15_4 C21_4 1_555 1_555
H16_4 C22_4 1_555 1_555
C20_4 C21_4 1_555 1_555
C37_3 N11_3 1_555 1_555
C39_3 C38_3 1_555 1_555
H27_3 C39_3 1_555 1_555
C40_3 C39_3 1_555 1_555
H28_3 C40_3 1_555 1_555
C41_3 C40_3 1_555 1_555
H29_3 C41_3 1_555 1_555
C42_3 C37_3 1_555 1_555
C37_3 C38_3 1_555 1_555
C41_3 C42_3 1_555 1_555
C37_4 N11_4 1_555 1_555
C39_4 C38_4 1_555 1_555
H27_4 C39_4 1_555 1_555
C40_4 C39_4 1_555 1_555
H28_4 C40_4 1_555 1_555
C41_4 C40_4 1_555 1_555
H29_4 C41_4 1_555 1_555
C42_4 C37_4 1_555 1_555
C37_4 C38_4 1_555 1_555
C41_4 C42_4 1_555 1_555

#END
