
###############################################################################
#
# This file contains modified crystal structure data generated from the
# MOF subset of the Cambridge Structural Database (CSD) v543 
# hosted by the Cambridge Crystallographic Data Centre (CCDC).
#
# This work is licensed under the Creative Commons
# Attribution-NonCommercial-ShareAlike 4.0 International License.
# To view a copy of this license, visit
# http://creativecommons.org/licenses/by-nc-sa/4.0/
# or send a letter to
# Creative Commons, PO Box 1866, Mountain View, CA 94042, USA.
#
# CIF created using the CSD Python API on 29 September 2022
# The structure has been converted into the P1 space group
# The structure has a 3D framework
# The original CSD entry YIMCIJ is in the rhombohedral crystal system
# The framework has been calculated to contain at least 10.0% void space
# The void calculation uses a probe of radius 1.32A, grid spacing 0.4
#
###############################################################################

data_YIMCIJ
_chemical_formula_moiety         '(C504 H216 Cu36 N72 O144)n'
_symmetry_cell_setting           triclinic
_symmetry_space_group_name_H-M   'P 1'
_symmetry_Int_Tables_number      1
_space_group_name_Hall           'P 1'
loop_
_symmetry_equiv_pos_site_id
_symmetry_equiv_pos_as_xyz
1 x,y,z
_cell_length_a                   18.1903(11)
_cell_length_b                   18.1903(11)
_cell_length_c                   72.844(5)
_cell_angle_alpha                90
_cell_angle_beta                 90
_cell_angle_gamma                120
_cell_volume                     20873.9
loop_
_atom_site_label
_atom_site_type_symbol
_atom_site_fract_x
_atom_site_fract_y
_atom_site_fract_z
_atom_site_U_iso_or_equiv
_atom_site_thermal_displace_type
Cu1 Cu 0.2067(4) 0.3881(4) 0.57004(9) 0.0272 Uiso
C1 C 0.5651(4) 0.4785(4) 0.66219(10) 0.0272 Uiso
C2 C 0.5089(2) 0.51812(19) 0.63194(3) 0.0272 Uiso
C3 C 0.43051(19) 0.46055(18) 0.62369(3) 0.0272 Uiso
C4 C 0.40357(18) 0.48426(19) 0.60768(4) 0.0272 Uiso
C5 C 0.4550(2) 0.56554(19) 0.59991(3) 0.0272 Uiso
C6 C 0.53344(19) 0.62312(18) 0.60816(3) 0.0272 Uiso
C7 C 0.56038(18) 0.59941(19) 0.62418(4) 0.0272 Uiso
H1 H 0.3905(4) 0.3973(4) 0.62974(6) 0.0327 Uiso
H2 H 0.4341(3) 0.5840(3) 0.58745(8) 0.0327 Uiso
H3 H 0.6214(4) 0.6442(4) 0.63060(7) 0.0327 Uiso
C8 C 0.5873(3) 0.7083(3) 0.60003(5) 0.0272 Uiso
O1 O 0.5632(5) 0.7193(3) 0.58458(9) 0.0272 Uiso
O2 O 0.6513(4) 0.7614(3) 0.60898(9) 0.0272 Uiso
C9 C 0.3214(3) 0.4239(3) 0.59904(7) 0.0272 Uiso
O3 O 0.3111(4) 0.4433(4) 0.58302(10) 0.0272 Uiso
O4 O 0.2699(4) 0.3598(4) 0.60816(10) 0.0272 Uiso
C10 C 0.5360(4) 0.4943(3) 0.64803(10) 0.0272 Uiso
C11 C 0.5976(3) 0.4676(3) 0.67857(5) 0.0272 Uiso
C12 C 0.6733(10) 0.4640(19) 0.6798(3) 0.0272 Uiso
N1 N 0.7053(14) 0.455(3) 0.6962(4) 0.0272 Uiso
C13 C 0.6590(15) 0.4499(16) 0.7112(2) 0.0272 Uiso
N2 N 0.5860(17) 0.4525(5) 0.71199(7) 0.0272 Uiso
C14 C 0.5557(12) 0.4615(11) 0.69530(14) 0.0272 Uiso
H4 H 0.678(2) 0.443(2) 0.7234(3) 0.0327 Uiso
H5 H 0.7051(17) 0.468(3) 0.6686(4) 0.0327 Uiso
H6 H 0.5029(18) 0.464(2) 0.6953(3) 0.0327 Uiso
Cu2 Cu 0.6119(4) 0.8186(6) 0.57004(9) 0.0272 Uiso
Cu3 Cu 0.7214(4) 0.8734(4) 0.59663(9) 0.0272 Uiso
Cu4 Cu 0.1519(6) 0.2786(4) 0.59663(9) 0.0272 Uiso
Cu5 Cu 0.5400(4) 0.4853(6) 0.73671(9) 0.0272 Uiso
O5 O 0.1561(6) 0.4368(5) 0.58458(9) 0.0272 Uiso
O6 O 0.0947(3) 0.3180(4) 0.55769(9) 0.0272 Uiso
O7 O 0.2434(6) 0.3069(4) 0.55851(10) 0.0272 Uiso
N3 N 0.2527(17) 0.4668(18) 0.54532(7) 0.0272 Uiso
Cu1_2 Cu 0.1814(6) 0.7933(4) 0.57004(9) 0.0272 Uiso
C2_2 C 0.00922(28) 0.4911(2) 0.63194(3) 0.0272 Uiso
C3_2 C 0.03004(26) 0.56949(19) 0.62369(3) 0.0272 Uiso
C4_2 C 0.08069(26) 0.59643(18) 0.60768(4) 0.0272 Uiso
C5_2 C 0.11054(28) 0.5450(2) 0.59991(3) 0.0272 Uiso
C6_2 C 0.08968(26) 0.46656(19) 0.60816(3) 0.0272 Uiso
C7_2 C 0.03903(26) 0.43962(18) 0.62418(4) 0.0272 Uiso
H1_2 H 0.0068(6) 0.6095(4) 0.62974(6) 0.0327 Uiso
H2_2 H 0.1499(4) 0.5659(3) 0.58745(8) 0.0327 Uiso
H3_2 H 0.0228(6) 0.3786(4) 0.63060(7) 0.0327 Uiso
C8_2 C 0.1210(4) 0.4127(3) 0.60003(5) 0.0272 Uiso
O2_2 O 0.1101(5) 0.3487(4) 0.60898(9) 0.0272 Uiso
C9_2 C 0.1025(4) 0.6786(3) 0.59904(7) 0.0272 Uiso
O3_2 O 0.1322(6) 0.6889(4) 0.58302(10) 0.0272 Uiso
O4_2 O 0.0899(6) 0.7301(4) 0.60816(10) 0.0272 Uiso
Cu4_2 Cu 0.1266(7) 0.8481(6) 0.59663(9) 0.0272 Uiso
O5_2 O 0.2807(8) 0.8439(6) 0.58458(9) 0.0272 Uiso
O6_2 O 0.2232(5) 0.9053(3) 0.55769(9) 0.0272 Uiso
O7_2 O 0.0634(7) 0.7566(6) 0.55851(10) 0.0272 Uiso
N3_2 N 0.2142(25) 0.7473(17) 0.54532(7) 0.0272 Uiso
C1_2 C 0.9134(6) 0.4349(4) 0.66219(10) 0.0272 Uiso
C10_2 C 0.9583(5) 0.4640(4) 0.64803(10) 0.0272 Uiso
C11_2 C 0.8700(4) 0.4024(3) 0.67857(5) 0.0272 Uiso
C12_2 C 0.7907(21) 0.3267(10) 0.6798(3) 0.0272 Uiso
N1_2 N 0.7497(33) 0.2947(14) 0.6962(4) 0.0272 Uiso
C13_2 C 0.7909(22) 0.3410(15) 0.7112(2) 0.0272 Uiso
N2_2 N 0.8665(18) 0.4140(17) 0.71199(7) 0.0272 Uiso
C14_2 C 0.9058(16) 0.4443(12) 0.69530(14) 0.0272 Uiso
H4_2 H 0.765(3) 0.322(2) 0.7234(3) 0.0327 Uiso
H5_2 H 0.7629(34) 0.2949(17) 0.6686(4) 0.0327 Uiso
H6_2 H 0.9611(27) 0.4971(18) 0.6953(3) 0.0327 Uiso
Cu5_2 Cu 0.9452(7) 0.4600(4) 0.73671(9) 0.0272 Uiso
C1_3 C 0.5215(4) 0.0866(6) 0.66219(10) 0.0272 Uiso
C10_3 C 0.5057(3) 0.0417(5) 0.64803(10) 0.0272 Uiso
C11_3 C 0.5324(3) 0.1300(4) 0.67857(5) 0.0272 Uiso
C12_3 C 0.5360(19) 0.2093(21) 0.6798(3) 0.0272 Uiso
N1_3 N 0.545(3) 0.2503(33) 0.6962(4) 0.0272 Uiso
C13_3 C 0.5501(16) 0.2091(22) 0.7112(2) 0.0272 Uiso
N2_3 N 0.5475(5) 0.1335(18) 0.71199(7) 0.0272 Uiso
C14_3 C 0.5385(11) 0.0942(16) 0.69530(14) 0.0272 Uiso
H4_3 H 0.557(2) 0.235(3) 0.7234(3) 0.0327 Uiso
H5_3 H 0.532(3) 0.2371(34) 0.6686(4) 0.0327 Uiso
H6_3 H 0.536(2) 0.0389(27) 0.6953(3) 0.0327 Uiso
Cu5_3 Cu 0.5147(6) 0.0548(7) 0.73671(9) 0.0272 Uiso
C2_3 C 0.48188(19) 0.99078(28) 0.63194(3) 0.0272 Uiso
C3_3 C 0.53945(18) 0.96996(26) 0.62369(3) 0.0272 Uiso
C4_3 C 0.51574(19) 0.91931(26) 0.60768(4) 0.0272 Uiso
C5_3 C 0.43446(19) 0.88946(28) 0.59991(3) 0.0272 Uiso
C6_3 C 0.37688(18) 0.91032(26) 0.60816(3) 0.0272 Uiso
C7_3 C 0.40059(19) 0.96097(26) 0.62418(4) 0.0272 Uiso
H1_3 H 0.6027(4) 0.9932(6) 0.62974(6) 0.0327 Uiso
H2_3 H 0.4160(3) 0.8501(4) 0.58745(8) 0.0327 Uiso
H3_3 H 0.3558(4) 0.9772(6) 0.63060(7) 0.0327 Uiso
C8_3 C 0.2917(3) 0.8790(4) 0.60003(5) 0.0272 Uiso
O2_3 O 0.2386(3) 0.8899(5) 0.60898(9) 0.0272 Uiso
C9_3 C 0.5761(3) 0.8975(4) 0.59904(7) 0.0272 Uiso
O3_3 O 0.5567(4) 0.8678(6) 0.58302(10) 0.0272 Uiso
O4_3 O 0.6402(4) 0.9101(6) 0.60816(10) 0.0272 Uiso
O6_3 O 0.6820(4) 0.7768(5) 0.55769(9) 0.0272 Uiso
O7_3 O 0.6931(4) 0.9366(7) 0.55851(10) 0.0272 Uiso
N3_3 N 0.5332(18) 0.7858(25) 0.54532(7) 0.0272 Uiso
Cu1_3 Cu 0.3881(4) 0.2067(4) 0.92996(9) 0.0272 Uiso
C1_4 C 0.4785(4) 0.5651(4) 0.83781(10) 0.0272 Uiso
C2_4 C 0.51812(19) 0.5089(2) 0.86806(3) 0.0272 Uiso
C3_4 C 0.46055(18) 0.43051(19) 0.87631(3) 0.0272 Uiso
C4_4 C 0.48426(19) 0.40357(18) 0.89232(4) 0.0272 Uiso
C5_4 C 0.56554(19) 0.4550(2) 0.90009(3) 0.0272 Uiso
C6_4 C 0.62312(18) 0.53344(19) 0.89184(3) 0.0272 Uiso
C7_4 C 0.59941(19) 0.56038(18) 0.87582(4) 0.0272 Uiso
H1_4 H 0.3973(4) 0.3905(4) 0.87026(6) 0.0327 Uiso
H2_4 H 0.5840(3) 0.4341(3) 0.91255(8) 0.0327 Uiso
H3_4 H 0.6442(4) 0.6214(4) 0.86940(7) 0.0327 Uiso
C8_4 C 0.7083(3) 0.5873(3) 0.89997(5) 0.0272 Uiso
O1_2 O 0.7193(3) 0.5632(5) 0.91542(9) 0.0272 Uiso
O2_4 O 0.7614(3) 0.6513(4) 0.89102(9) 0.0272 Uiso
C9_4 C 0.4239(3) 0.3214(3) 0.90096(7) 0.0272 Uiso
O3_4 O 0.4433(4) 0.3111(4) 0.91698(10) 0.0272 Uiso
O4_4 O 0.3598(4) 0.2699(4) 0.89184(10) 0.0272 Uiso
C10_4 C 0.4943(3) 0.5360(4) 0.85197(10) 0.0272 Uiso
C11_4 C 0.4676(3) 0.5976(3) 0.82143(5) 0.0272 Uiso
C12_4 C 0.4640(19) 0.6733(10) 0.8202(3) 0.0272 Uiso
N1_4 N 0.455(3) 0.7053(14) 0.8038(4) 0.0272 Uiso
C13_4 C 0.4499(16) 0.6590(15) 0.7888(2) 0.0272 Uiso
N2_4 N 0.4525(5) 0.5860(17) 0.78801(7) 0.0272 Uiso
C14_4 C 0.4615(11) 0.5557(12) 0.80470(14) 0.0272 Uiso
H4_4 H 0.443(2) 0.678(2) 0.7766(3) 0.0327 Uiso
H5_4 H 0.468(3) 0.7051(17) 0.8314(4) 0.0327 Uiso
H6_4 H 0.464(2) 0.5029(18) 0.8047(3) 0.0327 Uiso
Cu2_2 Cu 0.8186(6) 0.6119(4) 0.92996(9) 0.0272 Uiso
Cu3_2 Cu 0.8734(4) 0.7214(4) 0.90337(9) 0.0272 Uiso
Cu4_3 Cu 0.2786(4) 0.1519(6) 0.90337(9) 0.0272 Uiso
Cu5_4 Cu 0.4853(6) 0.5400(4) 0.76329(9) 0.0272 Uiso
O5_3 O 0.4368(5) 0.1561(6) 0.91542(9) 0.0272 Uiso
O6_4 O 0.3180(4) 0.0947(3) 0.94231(9) 0.0272 Uiso
O7_4 O 0.3069(4) 0.2434(6) 0.94149(10) 0.0272 Uiso
N3_4 N 0.4668(18) 0.2527(17) 0.95468(7) 0.0272 Uiso
C1_5 C 0.0866(6) 0.5215(4) 0.83781(10) 0.0272 Uiso
C10_5 C 0.0417(5) 0.5057(3) 0.85197(10) 0.0272 Uiso
C11_5 C 0.1300(4) 0.5324(3) 0.82143(5) 0.0272 Uiso
C12_5 C 0.2093(21) 0.5360(19) 0.8202(3) 0.0272 Uiso
N1_5 N 0.2503(33) 0.545(3) 0.8038(4) 0.0272 Uiso
C13_5 C 0.2091(22) 0.5501(16) 0.7888(2) 0.0272 Uiso
N2_5 N 0.1335(18) 0.5475(5) 0.78801(7) 0.0272 Uiso
C14_5 C 0.0942(16) 0.5385(11) 0.80470(14) 0.0272 Uiso
H4_5 H 0.235(3) 0.557(2) 0.7766(3) 0.0327 Uiso
H5_5 H 0.2371(34) 0.532(3) 0.8314(4) 0.0327 Uiso
H6_5 H 0.0389(27) 0.536(2) 0.8047(3) 0.0327 Uiso
Cu5_5 Cu 0.0548(7) 0.5147(6) 0.76329(9) 0.0272 Uiso
C2_5 C 0.99078(28) 0.48188(19) 0.86806(3) 0.0272 Uiso
C3_5 C 0.96996(26) 0.53945(18) 0.87631(3) 0.0272 Uiso
C4_5 C 0.91931(26) 0.51574(19) 0.89232(4) 0.0272 Uiso
C5_5 C 0.88946(28) 0.43446(19) 0.90009(3) 0.0272 Uiso
C6_5 C 0.91032(26) 0.37688(18) 0.89184(3) 0.0272 Uiso
C7_5 C 0.96097(26) 0.40059(19) 0.87582(4) 0.0272 Uiso
H1_5 H 0.9932(6) 0.6027(4) 0.87026(6) 0.0327 Uiso
H2_5 H 0.8501(4) 0.4160(3) 0.91255(8) 0.0327 Uiso
H3_5 H 0.9772(6) 0.3558(4) 0.86940(7) 0.0327 Uiso
C8_5 C 0.8790(4) 0.2917(3) 0.89997(5) 0.0272 Uiso
O1_3 O 0.8439(6) 0.2807(3) 0.91542(9) 0.0272 Uiso
O2_5 O 0.8899(5) 0.2386(3) 0.89102(9) 0.0272 Uiso
C9_5 C 0.8975(4) 0.5761(3) 0.90096(7) 0.0272 Uiso
O3_5 O 0.8678(6) 0.5567(4) 0.91698(10) 0.0272 Uiso
O4_5 O 0.9101(6) 0.6402(4) 0.89184(10) 0.0272 Uiso
Cu2_3 Cu 0.7933(7) 0.1814(6) 0.92996(9) 0.0272 Uiso
Cu3_3 Cu 0.8481(6) 0.1266(4) 0.90337(9) 0.0272 Uiso
O6_5 O 0.7768(5) 0.6820(4) 0.94231(9) 0.0272 Uiso
O7_5 O 0.9366(7) 0.6931(4) 0.94149(10) 0.0272 Uiso
N3_5 N 0.7858(25) 0.5332(18) 0.95468(7) 0.0272 Uiso
C2_6 C 0.4911(2) 0.00922(28) 0.86806(3) 0.0272 Uiso
C3_6 C 0.56949(19) 0.03004(26) 0.87631(3) 0.0272 Uiso
C4_6 C 0.59643(18) 0.08069(26) 0.89232(4) 0.0272 Uiso
C5_6 C 0.5450(2) 0.11054(28) 0.90009(3) 0.0272 Uiso
C6_6 C 0.46656(19) 0.08968(26) 0.89184(3) 0.0272 Uiso
C7_6 C 0.43962(18) 0.03903(26) 0.87582(4) 0.0272 Uiso
H1_6 H 0.6095(4) 0.0068(6) 0.87026(6) 0.0327 Uiso
H2_6 H 0.5659(3) 0.1499(4) 0.91255(8) 0.0327 Uiso
H3_6 H 0.3786(4) 0.0228(6) 0.86940(7) 0.0327 Uiso
C8_6 C 0.4127(3) 0.1210(4) 0.89997(5) 0.0272 Uiso
O2_6 O 0.3487(4) 0.1101(5) 0.89102(9) 0.0272 Uiso
C9_6 C 0.6786(3) 0.1025(4) 0.90096(7) 0.0272 Uiso
O3_6 O 0.6889(4) 0.1322(6) 0.91698(10) 0.0272 Uiso
O4_6 O 0.7301(4) 0.0899(6) 0.89184(10) 0.0272 Uiso
O6_6 O 0.9053(3) 0.2232(5) 0.94231(9) 0.0272 Uiso
O7_6 O 0.7566(6) 0.0634(7) 0.94149(10) 0.0272 Uiso
N3_6 N 0.7473(17) 0.2142(25) 0.95468(7) 0.0272 Uiso
C1_6 C 0.4349(4) 0.9134(6) 0.83781(10) 0.0272 Uiso
C10_6 C 0.4640(4) 0.9583(5) 0.85197(10) 0.0272 Uiso
C11_6 C 0.4024(3) 0.8700(4) 0.82143(5) 0.0272 Uiso
C12_6 C 0.3267(10) 0.7907(21) 0.8202(3) 0.0272 Uiso
N1_6 N 0.2947(14) 0.7497(33) 0.8038(4) 0.0272 Uiso
C13_6 C 0.3410(15) 0.7909(22) 0.7888(2) 0.0272 Uiso
N2_6 N 0.4140(17) 0.8665(18) 0.78801(7) 0.0272 Uiso
C14_6 C 0.4443(12) 0.9058(16) 0.80470(14) 0.0272 Uiso
H4_6 H 0.322(2) 0.765(3) 0.7766(3) 0.0327 Uiso
H5_6 H 0.2949(17) 0.7629(34) 0.8314(4) 0.0327 Uiso
H6_6 H 0.4971(18) 0.9611(27) 0.8047(3) 0.0327 Uiso
Cu5_6 Cu 0.4600(4) 0.9452(7) 0.76329(9) 0.0272 Uiso
C8_7 C 0.2540(3) 0.0416(3) 0.93336(5) 0.0272 Uiso
O1_4 O 0.2299(5) 0.0526(3) 0.91791(9) 0.0272 Uiso
C11_7 C 0.2643(3) 0.8009(3) 0.01190(5) 0.0272 Uiso
C12_7 C 0.3400(10) 0.7973(19) 0.0131(3) 0.0272 Uiso
N1_7 N 0.3720(14) 0.788(3) 0.0295(4) 0.0272 Uiso
C13_7 C 0.3257(15) 0.7832(16) 0.0445(2) 0.0272 Uiso
N2_7 N 0.2527(17) 0.7858(5) 0.04532(7) 0.0272 Uiso
C14_7 C 0.2224(12) 0.7948(11) 0.02863(14) 0.0272 Uiso
H4_7 H 0.345(2) 0.776(2) 0.0567(3) 0.0327 Uiso
H5_7 H 0.3718(17) 0.801(3) 0.0019(4) 0.0327 Uiso
H6_7 H 0.1696(18) 0.797(2) 0.0286(3) 0.0327 Uiso
Cu5_7 Cu 0.2067(4) 0.8186(6) 0.07004(9) 0.0272 Uiso
C9_7 C 0.9881(3) 0.7572(3) 0.93237(7) 0.0272 Uiso
O3_7 O 0.9778(4) 0.7766(4) 0.91635(10) 0.0272 Uiso
O5_4 O 0.8228(6) 0.7701(5) 0.91791(9) 0.0272 Uiso
N3_7 N 0.9193(17) 0.8002(18) 0.87866(7) 0.0272 Uiso
C9_8 C 0.7692(4) 0.0119(3) 0.93237(7) 0.0272 Uiso
O3_8 O 0.7989(6) 0.0222(4) 0.91635(10) 0.0272 Uiso
O5_5 O 0.9474(8) 0.1772(6) 0.91791(9) 0.0272 Uiso
N3_8 N 0.8808(25) 0.0807(17) 0.87866(7) 0.0272 Uiso
C11_8 C 0.5367(4) 0.7357(3) 0.01190(5) 0.0272 Uiso
C12_8 C 0.4574(21) 0.6600(10) 0.0131(3) 0.0272 Uiso
N1_8 N 0.4164(33) 0.6280(14) 0.0295(4) 0.0272 Uiso
C13_8 C 0.4576(22) 0.6743(15) 0.0445(2) 0.0272 Uiso
N2_8 N 0.5332(18) 0.7473(17) 0.04532(7) 0.0272 Uiso
C14_8 C 0.5725(16) 0.7776(12) 0.02863(14) 0.0272 Uiso
H4_8 H 0.432(3) 0.655(2) 0.0567(3) 0.0327 Uiso
H5_8 H 0.4296(34) 0.6282(17) 0.0019(4) 0.0327 Uiso
H6_8 H 0.6278(27) 0.8304(18) 0.0286(3) 0.0327 Uiso
Cu5_8 Cu 0.6119(7) 0.7933(4) 0.07004(9) 0.0272 Uiso
C1_7 C 0.5801(6) 0.7682(4) 0.99552(10) 0.0272 Uiso
C2_7 C 0.67589(28) 0.8244(2) 0.96527(3) 0.0272 Uiso
C3_7 C 0.69671(26) 0.90282(19) 0.95702(3) 0.0272 Uiso
C4_7 C 0.74736(26) 0.92976(18) 0.94101(4) 0.0272 Uiso
C5_7 C 0.77721(28) 0.8783(2) 0.93324(3) 0.0272 Uiso
C6_7 C 0.75635(26) 0.79989(19) 0.94149(3) 0.0272 Uiso
C7_7 C 0.70570(26) 0.77295(18) 0.95751(4) 0.0272 Uiso
H1_7 H 0.6735(6) 0.9428(4) 0.96307(6) 0.0327 Uiso
H2_7 H 0.8166(4) 0.8992(3) 0.92078(8) 0.0327 Uiso
H3_7 H 0.6895(6) 0.7119(4) 0.96393(7) 0.0327 Uiso
C8_8 C 0.7877(4) 0.7460(3) 0.93336(5) 0.0272 Uiso
C10_7 C 0.6250(5) 0.7973(4) 0.98136(10) 0.0272 Uiso
C11_9 C 0.1991(3) 0.4633(4) 0.01190(5) 0.0272 Uiso
C12_9 C 0.2027(19) 0.5426(21) 0.0131(3) 0.0272 Uiso
N1_9 N 0.212(3) 0.5836(33) 0.0295(4) 0.0272 Uiso
C13_9 C 0.2168(16) 0.5424(22) 0.0445(2) 0.0272 Uiso
N2_9 N 0.2142(5) 0.4668(18) 0.04532(7) 0.0272 Uiso
C14_9 C 0.2052(11) 0.4275(16) 0.02863(14) 0.0272 Uiso
H4_9 H 0.224(2) 0.568(3) 0.0567(3) 0.0327 Uiso
H5_9 H 0.199(3) 0.5704(34) 0.0019(4) 0.0327 Uiso
H6_9 H 0.203(2) 0.3722(27) 0.0286(3) 0.0327 Uiso
Cu5_9 Cu 0.1814(6) 0.3881(7) 0.07004(9) 0.0272 Uiso
C1_8 C 0.1882(4) 0.4199(6) 0.99552(10) 0.0272 Uiso
C2_8 C 0.14855(19) 0.32411(28) 0.96527(3) 0.0272 Uiso
C3_8 C 0.20612(18) 0.30329(26) 0.95702(3) 0.0272 Uiso
C4_8 C 0.18241(19) 0.25264(26) 0.94101(4) 0.0272 Uiso
C5_8 C 0.10113(19) 0.22279(28) 0.93324(3) 0.0272 Uiso
C6_8 C 0.04355(18) 0.24365(26) 0.94149(3) 0.0272 Uiso
C7_8 C 0.06726(19) 0.29430(26) 0.95751(4) 0.0272 Uiso
H1_8 H 0.2694(4) 0.3265(6) 0.96307(6) 0.0327 Uiso
H2_8 H 0.0827(3) 0.1834(4) 0.92078(8) 0.0327 Uiso
H3_8 H 0.0225(4) 0.3105(6) 0.96393(7) 0.0327 Uiso
C9_9 C 0.2428(3) 0.2308(4) 0.93237(7) 0.0272 Uiso
O3_9 O 0.2234(4) 0.2011(6) 0.91635(10) 0.0272 Uiso
C10_8 C 0.1724(3) 0.3750(5) 0.98136(10) 0.0272 Uiso
N3_9 N 0.1998(18) 0.1192(25) 0.87866(7) 0.0272 Uiso
C8_9 C 0.9584(3) 0.2123(4) 0.93336(5) 0.0272 Uiso
C12_10 C 0.1307(19) 0.0066(10) 0.1535(3) 0.0272 Uiso
N1_10 N 0.122(3) 0.0386(14) 0.1371(4) 0.0272 Uiso
H4_10 H 0.110(2) 0.011(2) 0.1099(3) 0.0327 Uiso
H5_10 H 0.135(3) 0.0384(17) 0.1647(4) 0.0327 Uiso
Cu3_4 Cu 0.5400(4) 0.0548(4) 0.23671(9) 0.0272 Uiso
Cu1_4 Cu 0.0548(4) 0.5400(4) 0.26329(9) 0.0272 Uiso
C1_9 C 0.1452(4) 0.8984(4) 0.17114(10) 0.0272 Uiso
C2_9 C 0.18479(19) 0.8422(2) 0.20139(3) 0.0272 Uiso
C3_9 C 0.12722(18) 0.76384(19) 0.20964(3) 0.0272 Uiso
C4_9 C 0.15093(19) 0.73690(18) 0.22565(4) 0.0272 Uiso
C5_9 C 0.23221(19) 0.7883(2) 0.23342(3) 0.0272 Uiso
C6_9 C 0.28979(18) 0.86677(19) 0.22517(3) 0.0272 Uiso
C7_9 C 0.26608(19) 0.89371(18) 0.20915(4) 0.0272 Uiso
H1_9 H 0.0640(4) 0.7238(4) 0.20359(6) 0.0327 Uiso
H2_9 H 0.2507(3) 0.7674(3) 0.24588(8) 0.0327 Uiso
H3_9 H 0.3109(4) 0.9547(4) 0.20273(7) 0.0327 Uiso
C8_10 C 0.3750(3) 0.9206(3) 0.23330(5) 0.0272 Uiso
O1_5 O 0.3860(3) 0.8965(5) 0.24875(9) 0.0272 Uiso
O2_7 O 0.4281(3) 0.9846(4) 0.22435(9) 0.0272 Uiso
C9_10 C 0.0906(3) 0.6547(3) 0.23429(7) 0.0272 Uiso
O3_10 O 0.1100(4) 0.6444(4) 0.25031(10) 0.0272 Uiso
O4_7 O 0.0265(4) 0.6032(4) 0.22517(10) 0.0272 Uiso
C10_9 C 0.1610(3) 0.8693(4) 0.18530(10) 0.0272 Uiso
C11_10 C 0.1343(3) 0.9309(3) 0.15476(5) 0.0272 Uiso
C13_10 C 0.1166(16) 0.9923(15) 0.1221(2) 0.0272 Uiso
N2_10 N 0.1192(5) 0.9193(17) 0.12134(7) 0.0272 Uiso
C14_10 C 0.1282(11) 0.8890(12) 0.13803(14) 0.0272 Uiso
H6_10 H 0.131(2) 0.8362(18) 0.1380(3) 0.0327 Uiso
Cu2_4 Cu 0.4853(6) 0.9452(4) 0.26329(9) 0.0272 Uiso
Cu5_10 Cu 0.1519(6) 0.8734(4) 0.09663(9) 0.0272 Uiso
O5_6 O 0.1035(5) 0.4894(6) 0.24875(9) 0.0272 Uiso
N3_10 N 0.1335(18) 0.5860(17) 0.28801(7) 0.0272 Uiso
Cu4_4 Cu 0.9452(4) 0.4853(6) 0.23671(9) 0.0272 Uiso
O6_7 O 0.9846(4) 0.4281(3) 0.27565(9) 0.0272 Uiso
O7_7 O 0.9735(4) 0.5768(6) 0.27483(10) 0.0272 Uiso
O6_8 O 0.4434(5) 0.0154(4) 0.27565(9) 0.0272 Uiso
O7_8 O 0.6032(7) 0.0265(4) 0.27483(10) 0.0272 Uiso
C1_10 C 0.7533(6) 0.8548(4) 0.17114(10) 0.0272 Uiso
C2_10 C 0.65745(28) 0.81521(19) 0.20139(3) 0.0272 Uiso
C3_10 C 0.63663(26) 0.87278(18) 0.20964(3) 0.0272 Uiso
C4_10 C 0.58598(26) 0.84907(19) 0.22565(4) 0.0272 Uiso
C5_10 C 0.55613(28) 0.76779(19) 0.23342(3) 0.0272 Uiso
C6_10 C 0.57699(26) 0.71021(18) 0.22517(3) 0.0272 Uiso
C7_10 C 0.62764(26) 0.73392(19) 0.20915(4) 0.0272 Uiso
H1_10 H 0.6599(6) 0.9360(4) 0.20359(6) 0.0327 Uiso
H2_10 H 0.5168(4) 0.7493(3) 0.24588(8) 0.0327 Uiso
H3_10 H 0.6439(6) 0.6891(4) 0.20273(7) 0.0327 Uiso
C8_11 C 0.5457(4) 0.6250(3) 0.23330(5) 0.0272 Uiso
O1_6 O 0.5106(6) 0.6140(3) 0.24875(9) 0.0272 Uiso
O2_8 O 0.5566(5) 0.5719(3) 0.22435(9) 0.0272 Uiso
C9_11 C 0.5642(4) 0.9094(3) 0.23429(7) 0.0272 Uiso
O3_11 O 0.5345(6) 0.8900(4) 0.25031(10) 0.0272 Uiso
O4_8 O 0.5768(6) 0.9735(4) 0.22517(10) 0.0272 Uiso
C10_10 C 0.7084(5) 0.8390(3) 0.18530(10) 0.0272 Uiso
C11_11 C 0.7967(4) 0.8657(3) 0.15476(5) 0.0272 Uiso
C12_11 C 0.8760(21) 0.8693(19) 0.1535(3) 0.0272 Uiso
N1_11 N 0.9170(33) 0.878(3) 0.1371(4) 0.0272 Uiso
C13_11 C 0.8758(22) 0.8834(16) 0.1221(2) 0.0272 Uiso
N2_11 N 0.8002(18) 0.8808(5) 0.12134(7) 0.0272 Uiso
C14_11 C 0.7609(16) 0.8718(11) 0.13803(14) 0.0272 Uiso
H4_11 H 0.902(3) 0.890(2) 0.1099(3) 0.0327 Uiso
H5_11 H 0.9038(34) 0.865(3) 0.1647(4) 0.0327 Uiso
H6_11 H 0.7056(27) 0.869(2) 0.1380(3) 0.0327 Uiso
Cu2_5 Cu 0.4600(7) 0.5147(6) 0.26329(9) 0.0272 Uiso
Cu3_5 Cu 0.5147(6) 0.4600(4) 0.23671(9) 0.0272 Uiso
Cu5_11 Cu 0.7214(7) 0.8481(6) 0.09663(9) 0.0272 Uiso
N3_11 N 0.4525(25) 0.8665(18) 0.28801(7) 0.0272 Uiso
C1_11 C 0.1016(4) 0.2467(6) 0.17114(10) 0.0272 Uiso
C2_11 C 0.1578(2) 0.34255(28) 0.20139(3) 0.0272 Uiso
C3_11 C 0.23616(19) 0.36337(26) 0.20964(3) 0.0272 Uiso
C4_11 C 0.26310(18) 0.41402(26) 0.22565(4) 0.0272 Uiso
C5_11 C 0.2117(2) 0.44387(28) 0.23342(3) 0.0272 Uiso
C6_11 C 0.13323(19) 0.42301(26) 0.22517(3) 0.0272 Uiso
C7_11 C 0.10629(18) 0.37236(26) 0.20915(4) 0.0272 Uiso
H1_11 H 0.2762(4) 0.3401(6) 0.20359(6) 0.0327 Uiso
H2_11 H 0.2326(3) 0.4832(4) 0.24588(8) 0.0327 Uiso
H3_11 H 0.0453(4) 0.3561(6) 0.20273(7) 0.0327 Uiso
C8_12 C 0.0794(3) 0.4543(4) 0.23330(5) 0.0272 Uiso
O2_9 O 0.0154(4) 0.4434(5) 0.22435(9) 0.0272 Uiso
C9_12 C 0.3453(3) 0.4358(4) 0.23429(7) 0.0272 Uiso
O3_12 O 0.3556(4) 0.4655(6) 0.25031(10) 0.0272 Uiso
O4_9 O 0.3968(4) 0.4232(6) 0.22517(10) 0.0272 Uiso
C10_11 C 0.1307(4) 0.2916(5) 0.18530(10) 0.0272 Uiso
C11_12 C 0.0691(3) 0.2033(4) 0.15476(5) 0.0272 Uiso
C13_12 C 0.0077(15) 0.1242(22) 0.1221(2) 0.0272 Uiso
N2_12 N 0.0807(17) 0.1998(18) 0.12134(7) 0.0272 Uiso
C14_12 C 0.1110(12) 0.2391(16) 0.13803(14) 0.0272 Uiso
H6_12 H 0.1638(18) 0.2944(27) 0.1380(3) 0.0327 Uiso
Cu5_12 Cu 0.1266(4) 0.2786(7) 0.09663(9) 0.0272 Uiso
O6_9 O 0.5719(3) 0.5566(5) 0.27565(9) 0.0272 Uiso
O7_9 O 0.4232(6) 0.3968(7) 0.27483(10) 0.0272 Uiso
N3_12 N 0.4140(17) 0.5475(25) 0.28801(7) 0.0272 Uiso
C12_12 C 0.9934(10) 0.1240(21) 0.1535(3) 0.0272 Uiso
N1_12 N 0.9614(14) 0.0830(33) 0.1371(4) 0.0272 Uiso
H4_12 H 0.989(2) 0.098(3) 0.1099(3) 0.0327 Uiso
H5_12 H 0.9616(17) 0.0962(34) 0.1647(4) 0.0327 Uiso
C12_13 C 0.0066(10) 0.1307(19) 0.3465(3) 0.0272 Uiso
N1_13 N 0.0386(14) 0.122(3) 0.3629(4) 0.0272 Uiso
H4_13 H 0.011(2) 0.110(2) 0.3901(3) 0.0327 Uiso
H5_13 H 0.0384(17) 0.135(3) 0.3353(4) 0.0327 Uiso
C1_12 C 0.8984(4) 0.1452(4) 0.32886(10) 0.0272 Uiso
C2_12 C 0.8422(2) 0.18479(19) 0.29861(3) 0.0272 Uiso
C3_12 C 0.76384(19) 0.12722(18) 0.29036(3) 0.0272 Uiso
C4_12 C 0.73690(18) 0.15093(19) 0.27435(4) 0.0272 Uiso
C5_12 C 0.7883(2) 0.23221(19) 0.26658(3) 0.0272 Uiso
C6_12 C 0.86677(19) 0.28979(18) 0.27483(3) 0.0272 Uiso
C7_12 C 0.89371(18) 0.26608(19) 0.29085(4) 0.0272 Uiso
H1_12 H 0.7238(4) 0.0640(4) 0.29641(6) 0.0327 Uiso
H2_12 H 0.7674(3) 0.2507(3) 0.25412(8) 0.0327 Uiso
H3_12 H 0.9547(4) 0.3109(4) 0.29727(7) 0.0327 Uiso
C8_13 C 0.9206(3) 0.3750(3) 0.26670(5) 0.0272 Uiso
O1_7 O 0.8965(5) 0.3860(3) 0.25125(9) 0.0272 Uiso
C9_13 C 0.6547(3) 0.0906(3) 0.26571(7) 0.0272 Uiso
O3_13 O 0.6444(4) 0.1100(4) 0.24969(10) 0.0272 Uiso
C10_12 C 0.8693(4) 0.1610(3) 0.31470(10) 0.0272 Uiso
C11_13 C 0.9309(3) 0.1343(3) 0.34524(5) 0.0272 Uiso
C13_13 C 0.9923(15) 0.1166(16) 0.3779(2) 0.0272 Uiso
N2_13 N 0.9193(17) 0.1192(5) 0.37866(7) 0.0272 Uiso
C14_13 C 0.8890(12) 0.1282(11) 0.36197(14) 0.0272 Uiso
H6_13 H 0.8362(18) 0.131(2) 0.3620(3) 0.0327 Uiso
Cu5_13 Cu 0.8734(4) 0.1519(6) 0.40337(9) 0.0272 Uiso
O5_7 O 0.4894(6) 0.1035(5) 0.25125(9) 0.0272 Uiso
N3_13 N 0.5860(17) 0.1335(18) 0.21199(7) 0.0272 Uiso
C1_13 C 0.2467(6) 0.1016(4) 0.32886(10) 0.0272 Uiso
C2_13 C 0.34255(28) 0.1578(2) 0.29861(3) 0.0272 Uiso
C3_13 C 0.36337(26) 0.23616(19) 0.29036(3) 0.0272 Uiso
C4_13 C 0.41402(26) 0.26310(18) 0.27435(4) 0.0272 Uiso
C5_13 C 0.44387(28) 0.2117(2) 0.26658(3) 0.0272 Uiso
C6_13 C 0.42301(26) 0.13323(19) 0.27483(3) 0.0272 Uiso
C7_13 C 0.37236(26) 0.10629(18) 0.29085(4) 0.0272 Uiso
H1_13 H 0.3401(6) 0.2762(4) 0.29641(6) 0.0327 Uiso
H2_13 H 0.4832(4) 0.2326(3) 0.25412(8) 0.0327 Uiso
H3_13 H 0.3561(6) 0.0453(4) 0.29727(7) 0.0327 Uiso
C8_14 C 0.4543(4) 0.0794(3) 0.26670(5) 0.0272 Uiso
C9_14 C 0.4358(4) 0.3453(3) 0.26571(7) 0.0272 Uiso
O3_14 O 0.4655(6) 0.3556(4) 0.24969(10) 0.0272 Uiso
C10_13 C 0.2916(5) 0.1307(4) 0.31470(10) 0.0272 Uiso
C11_14 C 0.2033(4) 0.0691(3) 0.34524(5) 0.0272 Uiso
C13_14 C 0.1242(22) 0.0077(15) 0.3779(2) 0.0272 Uiso
N2_14 N 0.1998(18) 0.0807(17) 0.37866(7) 0.0272 Uiso
C14_14 C 0.2391(16) 0.1110(12) 0.36197(14) 0.0272 Uiso
H6_14 H 0.2944(27) 0.1638(18) 0.3620(3) 0.0327 Uiso
Cu5_14 Cu 0.2786(7) 0.1266(4) 0.40337(9) 0.0272 Uiso
O5_8 O 0.6140(8) 0.5106(6) 0.25125(9) 0.0272 Uiso
N3_14 N 0.5475(25) 0.4140(17) 0.21199(7) 0.0272 Uiso
C12_14 C 0.1240(21) 0.9934(10) 0.3465(3) 0.0272 Uiso
N1_14 N 0.0830(33) 0.9614(14) 0.3629(4) 0.0272 Uiso
H4_14 H 0.098(3) 0.989(2) 0.3901(3) 0.0327 Uiso
H5_14 H 0.0962(34) 0.9616(17) 0.3353(4) 0.0327 Uiso
C1_14 C 0.8548(4) 0.7533(6) 0.32886(10) 0.0272 Uiso
C2_14 C 0.81521(19) 0.65745(28) 0.29861(3) 0.0272 Uiso
C3_14 C 0.87278(18) 0.63663(26) 0.29036(3) 0.0272 Uiso
C4_14 C 0.84907(19) 0.58598(26) 0.27435(4) 0.0272 Uiso
C5_14 C 0.76779(19) 0.55613(28) 0.26658(3) 0.0272 Uiso
C6_14 C 0.71021(18) 0.57699(26) 0.27483(3) 0.0272 Uiso
C7_14 C 0.73392(19) 0.62764(26) 0.29085(4) 0.0272 Uiso
H1_14 H 0.9360(4) 0.6599(6) 0.29641(6) 0.0327 Uiso
H2_14 H 0.7493(3) 0.5168(4) 0.25412(8) 0.0327 Uiso
H3_14 H 0.6891(4) 0.6439(6) 0.29727(7) 0.0327 Uiso
C8_15 C 0.6250(3) 0.5457(4) 0.26670(5) 0.0272 Uiso
C9_15 C 0.9094(3) 0.5642(4) 0.26571(7) 0.0272 Uiso
O3_15 O 0.8900(4) 0.5345(6) 0.24969(10) 0.0272 Uiso
C10_14 C 0.8390(3) 0.7084(5) 0.31470(10) 0.0272 Uiso
C11_15 C 0.8657(3) 0.7967(4) 0.34524(5) 0.0272 Uiso
C12_15 C 0.8693(19) 0.8760(21) 0.3465(3) 0.0272 Uiso
N1_15 N 0.878(3) 0.9170(33) 0.3629(4) 0.0272 Uiso
C13_15 C 0.8834(16) 0.8758(22) 0.3779(2) 0.0272 Uiso
N2_15 N 0.8808(5) 0.8002(18) 0.37866(7) 0.0272 Uiso
C14_15 C 0.8718(11) 0.7609(16) 0.36197(14) 0.0272 Uiso
H4_15 H 0.890(2) 0.902(3) 0.3901(3) 0.0327 Uiso
H5_15 H 0.865(3) 0.9038(34) 0.3353(4) 0.0327 Uiso
H6_15 H 0.869(2) 0.7056(27) 0.3620(3) 0.0327 Uiso
Cu5_15 Cu 0.8481(6) 0.7214(7) 0.40337(9) 0.0272 Uiso
N3_15 N 0.8665(18) 0.4525(25) 0.21199(7) 0.0272 Uiso
C8_16 C 0.0416(3) 0.2540(3) 0.56664(5) 0.0272 Uiso
O1_8 O 0.0526(3) 0.2299(5) 0.58209(9) 0.0272 Uiso
C1_15 C 0.8118(4) 0.2318(4) 0.50448(10) 0.0272 Uiso
C2_15 C 0.85145(19) 0.1756(2) 0.53473(3) 0.0272 Uiso
C3_15 C 0.79388(18) 0.09718(19) 0.54298(3) 0.0272 Uiso
C4_15 C 0.81759(19) 0.07024(18) 0.55899(4) 0.0272 Uiso
C5_15 C 0.89887(19) 0.1217(2) 0.56676(3) 0.0272 Uiso
C6_15 C 0.95645(18) 0.20011(19) 0.55851(3) 0.0272 Uiso
C7_15 C 0.93274(19) 0.22705(18) 0.54249(4) 0.0272 Uiso
H1_15 H 0.7306(4) 0.0572(4) 0.53693(6) 0.0327 Uiso
H2_15 H 0.9173(3) 0.1008(3) 0.57922(8) 0.0327 Uiso
H3_15 H 0.9775(4) 0.2881(4) 0.53607(7) 0.0327 Uiso
C10_15 C 0.8276(3) 0.2027(4) 0.51864(10) 0.0272 Uiso
C11_16 C 0.8009(3) 0.2643(3) 0.48810(5) 0.0272 Uiso
C12_16 C 0.7973(19) 0.3400(10) 0.4869(3) 0.0272 Uiso
N1_16 N 0.788(3) 0.3720(14) 0.4705(4) 0.0272 Uiso
C13_16 C 0.7832(16) 0.3257(15) 0.4555(2) 0.0272 Uiso
N2_16 N 0.7858(5) 0.2527(17) 0.45468(7) 0.0272 Uiso
C14_16 C 0.7948(11) 0.2224(12) 0.47137(14) 0.0272 Uiso
H4_16 H 0.776(2) 0.345(2) 0.4433(3) 0.0327 Uiso
H5_16 H 0.801(3) 0.3718(17) 0.4981(4) 0.0327 Uiso
H6_16 H 0.797(2) 0.1696(18) 0.4714(3) 0.0327 Uiso
Cu5_16 Cu 0.8186(6) 0.2067(4) 0.42996(9) 0.0272 Uiso
C9_16 C 0.7572(3) 0.9881(3) 0.56763(7) 0.0272 Uiso
O3_16 O 0.7766(4) 0.9778(4) 0.58365(10) 0.0272 Uiso
O5_9 O 0.7701(5) 0.8228(6) 0.58209(9) 0.0272 Uiso
N3_16 N 0.8002(18) 0.9193(17) 0.62134(7) 0.0272 Uiso
C1_16 C 0.4199(6) 0.1882(4) 0.50448(10) 0.0272 Uiso
C2_16 C 0.32411(28) 0.14855(19) 0.53473(3) 0.0272 Uiso
C3_16 C 0.30329(26) 0.20612(18) 0.54298(3) 0.0272 Uiso
C4_16 C 0.25264(26) 0.18241(19) 0.55899(4) 0.0272 Uiso
C5_16 C 0.22279(28) 0.10113(19) 0.56676(3) 0.0272 Uiso
C6_16 C 0.24365(26) 0.04355(18) 0.55851(3) 0.0272 Uiso
C7_16 C 0.29430(26) 0.06726(19) 0.54249(4) 0.0272 Uiso
H1_16 H 0.3265(6) 0.2694(4) 0.53693(6) 0.0327 Uiso
H2_16 H 0.1834(4) 0.0827(3) 0.57922(8) 0.0327 Uiso
H3_16 H 0.3105(6) 0.0225(4) 0.53607(7) 0.0327 Uiso
C9_17 C 0.2308(4) 0.2428(3) 0.56763(7) 0.0272 Uiso
O3_17 O 0.2011(6) 0.2234(4) 0.58365(10) 0.0272 Uiso
C10_16 C 0.3750(5) 0.1724(3) 0.51864(10) 0.0272 Uiso
C11_17 C 0.4633(4) 0.1991(3) 0.48810(5) 0.0272 Uiso
C12_17 C 0.5426(21) 0.2027(19) 0.4869(3) 0.0272 Uiso
N1_17 N 0.5836(33) 0.212(3) 0.4705(4) 0.0272 Uiso
C13_17 C 0.5424(22) 0.2168(16) 0.4555(2) 0.0272 Uiso
N2_17 N 0.4668(18) 0.2142(5) 0.45468(7) 0.0272 Uiso
C14_17 C 0.4275(16) 0.2052(11) 0.47137(14) 0.0272 Uiso
H4_17 H 0.568(3) 0.224(2) 0.4433(3) 0.0327 Uiso
H5_17 H 0.5704(34) 0.199(3) 0.4981(4) 0.0327 Uiso
H6_17 H 0.3722(27) 0.203(2) 0.4714(3) 0.0327 Uiso
Cu5_17 Cu 0.3881(7) 0.1814(6) 0.42996(9) 0.0272 Uiso
N3_17 N 0.1192(25) 0.1998(18) 0.62134(7) 0.0272 Uiso
C8_17 C 0.2123(4) 0.9584(3) 0.56664(5) 0.0272 Uiso
O1_9 O 0.1772(6) 0.9474(3) 0.58209(9) 0.0272 Uiso
C9_18 C 0.0119(3) 0.7692(4) 0.56763(7) 0.0272 Uiso
O3_18 O 0.0222(4) 0.7989(6) 0.58365(10) 0.0272 Uiso
N3_18 N 0.0807(17) 0.8808(25) 0.62134(7) 0.0272 Uiso
C1_17 C 0.7682(4) 0.5801(6) 0.50448(10) 0.0272 Uiso
C2_17 C 0.8244(2) 0.67589(28) 0.53473(3) 0.0272 Uiso
C3_17 C 0.90282(19) 0.69671(26) 0.54298(3) 0.0272 Uiso
C4_17 C 0.92976(18) 0.74736(26) 0.55899(4) 0.0272 Uiso
C5_17 C 0.8783(2) 0.77721(28) 0.56676(3) 0.0272 Uiso
C6_17 C 0.79989(19) 0.75635(26) 0.55851(3) 0.0272 Uiso
C7_17 C 0.77295(18) 0.70570(26) 0.54249(4) 0.0272 Uiso
H1_17 H 0.9428(4) 0.6735(6) 0.53693(6) 0.0327 Uiso
H2_17 H 0.8992(3) 0.8166(4) 0.57922(8) 0.0327 Uiso
H3_17 H 0.7119(4) 0.6895(6) 0.53607(7) 0.0327 Uiso
C8_18 C 0.7460(3) 0.7877(4) 0.56664(5) 0.0272 Uiso
C10_17 C 0.7973(4) 0.6250(5) 0.51864(10) 0.0272 Uiso
C11_18 C 0.7357(3) 0.5367(4) 0.48810(5) 0.0272 Uiso
C12_18 C 0.6600(10) 0.4574(21) 0.4869(3) 0.0272 Uiso
N1_18 N 0.6280(14) 0.4164(33) 0.4705(4) 0.0272 Uiso
C13_18 C 0.6743(15) 0.4576(22) 0.4555(2) 0.0272 Uiso
N2_18 N 0.7473(17) 0.5332(18) 0.45468(7) 0.0272 Uiso
C14_18 C 0.7776(12) 0.5725(16) 0.47137(14) 0.0272 Uiso
H4_18 H 0.655(2) 0.432(3) 0.4433(3) 0.0327 Uiso
H5_18 H 0.6282(17) 0.4296(34) 0.4981(4) 0.0327 Uiso
H6_18 H 0.8304(18) 0.6278(27) 0.4714(3) 0.0327 Uiso
Cu5_18 Cu 0.7933(4) 0.6119(7) 0.42996(9) 0.0272 Uiso
C1_18 C 0.4349(4) 0.5215(4) 0.33781(10) 0.0272 Uiso
C2_18 C 0.4911(2) 0.48188(19) 0.36806(3) 0.0272 Uiso
C3_18 C 0.56949(19) 0.53945(18) 0.37631(3) 0.0272 Uiso
C4_18 C 0.59643(18) 0.51574(19) 0.39232(4) 0.0272 Uiso
C5_18 C 0.5450(2) 0.43446(19) 0.40009(3) 0.0272 Uiso
C6_18 C 0.46656(19) 0.37688(18) 0.39184(3) 0.0272 Uiso
C7_18 C 0.43962(18) 0.40059(19) 0.37582(4) 0.0272 Uiso
H1_18 H 0.6095(4) 0.6027(4) 0.37026(6) 0.0327 Uiso
H2_18 H 0.5659(3) 0.4160(3) 0.41255(8) 0.0327 Uiso
H3_18 H 0.3786(4) 0.3558(4) 0.36940(7) 0.0327 Uiso
C8_19 C 0.4127(3) 0.2917(3) 0.39997(5) 0.0272 Uiso
O1_10 O 0.4368(5) 0.2807(3) 0.41542(9) 0.0272 Uiso
O2_10 O 0.3487(4) 0.2386(3) 0.39102(9) 0.0272 Uiso
C9_19 C 0.6786(3) 0.5761(3) 0.40096(7) 0.0272 Uiso
O3_19 O 0.6889(4) 0.5567(4) 0.41698(10) 0.0272 Uiso
O4_10 O 0.7301(4) 0.6402(4) 0.39184(10) 0.0272 Uiso
C10_18 C 0.4640(4) 0.5057(3) 0.35197(10) 0.0272 Uiso
C11_19 C 0.4024(3) 0.5324(3) 0.32143(5) 0.0272 Uiso
C12_19 C 0.3267(10) 0.5360(19) 0.3202(3) 0.0272 Uiso
N1_19 N 0.2947(14) 0.545(3) 0.3038(4) 0.0272 Uiso
C13_19 C 0.3410(15) 0.5501(16) 0.2888(2) 0.0272 Uiso
C14_19 C 0.4443(12) 0.5385(11) 0.30470(14) 0.0272 Uiso
H4_19 H 0.322(2) 0.557(2) 0.2766(3) 0.0327 Uiso
H5_19 H 0.2949(17) 0.532(3) 0.3314(4) 0.0327 Uiso
H6_19 H 0.4971(18) 0.536(2) 0.3047(3) 0.0327 Uiso
O5_10 O 0.8439(6) 0.5632(5) 0.41542(9) 0.0272 Uiso
O6_10 O 0.9053(3) 0.6820(4) 0.44231(9) 0.0272 Uiso
O7_10 O 0.7566(6) 0.6931(4) 0.44149(10) 0.0272 Uiso
C1_19 C 0.0866(6) 0.5651(4) 0.33781(10) 0.0272 Uiso
C10_19 C 0.0417(5) 0.5360(4) 0.35197(10) 0.0272 Uiso
C11_20 C 0.1300(4) 0.5976(3) 0.32143(5) 0.0272 Uiso
C12_20 C 0.2093(21) 0.6733(10) 0.3202(3) 0.0272 Uiso
N1_20 N 0.2503(33) 0.7053(14) 0.3038(4) 0.0272 Uiso
C13_20 C 0.2091(22) 0.6590(15) 0.2888(2) 0.0272 Uiso
C14_20 C 0.0942(16) 0.5557(12) 0.30470(14) 0.0272 Uiso
H4_20 H 0.235(3) 0.678(2) 0.2766(3) 0.0327 Uiso
H5_20 H 0.2371(34) 0.7051(17) 0.3314(4) 0.0327 Uiso
H6_20 H 0.0389(27) 0.5029(18) 0.3047(3) 0.0327 Uiso
C2_19 C 0.99078(28) 0.5089(2) 0.36806(3) 0.0272 Uiso
C3_19 C 0.96996(26) 0.43051(19) 0.37631(3) 0.0272 Uiso
C4_19 C 0.91931(26) 0.40357(18) 0.39232(4) 0.0272 Uiso
C5_19 C 0.88946(28) 0.4550(2) 0.40009(3) 0.0272 Uiso
C6_19 C 0.91032(26) 0.53344(19) 0.39184(3) 0.0272 Uiso
C7_19 C 0.96097(26) 0.56038(18) 0.37582(4) 0.0272 Uiso
H1_19 H 0.9932(6) 0.3905(4) 0.37026(6) 0.0327 Uiso
H2_19 H 0.8501(4) 0.4341(3) 0.41255(8) 0.0327 Uiso
H3_19 H 0.9772(6) 0.6214(4) 0.36940(7) 0.0327 Uiso
C8_20 C 0.8790(4) 0.5873(3) 0.39997(5) 0.0272 Uiso
O2_11 O 0.8899(5) 0.6513(4) 0.39102(9) 0.0272 Uiso
C9_20 C 0.8975(4) 0.3214(3) 0.40096(7) 0.0272 Uiso
O3_20 O 0.8678(6) 0.3111(4) 0.41698(10) 0.0272 Uiso
O4_11 O 0.9101(6) 0.2699(4) 0.39184(10) 0.0272 Uiso
O5_11 O 0.7193(8) 0.1561(6) 0.41542(9) 0.0272 Uiso
O6_11 O 0.7768(5) 0.0947(3) 0.44231(9) 0.0272 Uiso
O7_11 O 0.9366(7) 0.2434(6) 0.44149(10) 0.0272 Uiso
C2_20 C 0.51812(19) 0.00922(28) 0.36806(3) 0.0272 Uiso
C3_20 C 0.46055(18) 0.03004(26) 0.37631(3) 0.0272 Uiso
C4_20 C 0.48426(19) 0.08069(26) 0.39232(4) 0.0272 Uiso
C5_20 C 0.56554(19) 0.11054(28) 0.40009(3) 0.0272 Uiso
C6_20 C 0.62312(18) 0.08968(26) 0.39184(3) 0.0272 Uiso
C7_20 C 0.59941(19) 0.03903(26) 0.37582(4) 0.0272 Uiso
H1_20 H 0.3973(4) 0.0068(6) 0.37026(6) 0.0327 Uiso
H2_20 H 0.5840(3) 0.1499(4) 0.41255(8) 0.0327 Uiso
H3_20 H 0.6442(4) 0.0228(6) 0.36940(7) 0.0327 Uiso
C8_21 C 0.7083(3) 0.1210(4) 0.39997(5) 0.0272 Uiso
O2_12 O 0.7614(3) 0.1101(5) 0.39102(9) 0.0272 Uiso
C9_21 C 0.4239(3) 0.1025(4) 0.40096(7) 0.0272 Uiso
O3_21 O 0.4433(4) 0.1322(6) 0.41698(10) 0.0272 Uiso
O4_12 O 0.3598(4) 0.0899(6) 0.39184(10) 0.0272 Uiso
O6_12 O 0.3180(4) 0.2232(5) 0.44231(9) 0.0272 Uiso
O7_12 O 0.3069(4) 0.0634(7) 0.44149(10) 0.0272 Uiso
C1_20 C 0.4785(4) 0.9134(6) 0.33781(10) 0.0272 Uiso
C10_20 C 0.4943(3) 0.9583(5) 0.35197(10) 0.0272 Uiso
C11_21 C 0.4676(3) 0.8700(4) 0.32143(5) 0.0272 Uiso
C12_21 C 0.4640(19) 0.7907(21) 0.3202(3) 0.0272 Uiso
N1_21 N 0.455(3) 0.7497(33) 0.3038(4) 0.0272 Uiso
C13_21 C 0.4499(16) 0.7909(22) 0.2888(2) 0.0272 Uiso
C14_21 C 0.4615(11) 0.9058(16) 0.30470(14) 0.0272 Uiso
H4_21 H 0.443(2) 0.765(3) 0.2766(3) 0.0327 Uiso
H5_21 H 0.468(3) 0.7629(34) 0.3314(4) 0.0327 Uiso
H6_21 H 0.464(2) 0.9611(27) 0.3047(3) 0.0327 Uiso
C1_21 C 0.5215(4) 0.4349(4) 0.16219(10) 0.0272 Uiso
C2_21 C 0.48188(19) 0.4911(2) 0.13194(3) 0.0272 Uiso
C3_21 C 0.53945(18) 0.56949(19) 0.12369(3) 0.0272 Uiso
C4_21 C 0.51574(19) 0.59643(18) 0.10768(4) 0.0272 Uiso
C5_21 C 0.43446(19) 0.5450(2) 0.09991(3) 0.0272 Uiso
C6_21 C 0.37688(18) 0.46656(19) 0.10816(3) 0.0272 Uiso
C7_21 C 0.40059(19) 0.43962(18) 0.12418(4) 0.0272 Uiso
H1_21 H 0.6027(4) 0.6095(4) 0.12974(6) 0.0327 Uiso
H2_21 H 0.4160(3) 0.5659(3) 0.08745(8) 0.0327 Uiso
H3_21 H 0.3558(4) 0.3786(4) 0.13060(7) 0.0327 Uiso
C8_22 C 0.2917(3) 0.4127(3) 0.10003(5) 0.0272 Uiso
O1_11 O 0.2807(3) 0.4368(5) 0.08458(9) 0.0272 Uiso
O2_13 O 0.2386(3) 0.3487(4) 0.10898(9) 0.0272 Uiso
C9_22 C 0.5761(3) 0.6786(3) 0.09904(7) 0.0272 Uiso
O3_22 O 0.5567(4) 0.6889(4) 0.08302(10) 0.0272 Uiso
O4_13 O 0.6402(4) 0.7301(4) 0.10816(10) 0.0272 Uiso
C10_21 C 0.5057(3) 0.4640(4) 0.14803(10) 0.0272 Uiso
C11_22 C 0.5324(3) 0.4024(3) 0.17857(5) 0.0272 Uiso
C12_22 C 0.5360(19) 0.3267(10) 0.1798(3) 0.0272 Uiso
N1_22 N 0.545(3) 0.2947(14) 0.1962(4) 0.0272 Uiso
C13_22 C 0.5501(16) 0.3410(15) 0.2112(2) 0.0272 Uiso
C14_22 C 0.5385(11) 0.4443(12) 0.19530(14) 0.0272 Uiso
H4_22 H 0.557(2) 0.322(2) 0.2234(3) 0.0327 Uiso
H5_22 H 0.532(3) 0.2949(17) 0.1686(4) 0.0327 Uiso
H6_22 H 0.536(2) 0.4971(18) 0.1953(3) 0.0327 Uiso
O5_12 O 0.5632(5) 0.8439(6) 0.08458(9) 0.0272 Uiso
O6_13 O 0.6820(4) 0.9053(3) 0.05769(9) 0.0272 Uiso
O7_13 O 0.6931(4) 0.7566(6) 0.05851(10) 0.0272 Uiso
C2_22 C 0.00922(28) 0.51812(19) 0.13194(3) 0.0272 Uiso
C3_22 C 0.03004(26) 0.46055(18) 0.12369(3) 0.0272 Uiso
C4_22 C 0.08069(26) 0.48426(19) 0.10768(4) 0.0272 Uiso
C5_22 C 0.11054(28) 0.56554(19) 0.09991(3) 0.0272 Uiso
C6_22 C 0.08968(26) 0.62312(18) 0.10816(3) 0.0272 Uiso
C7_22 C 0.03903(26) 0.59941(19) 0.12418(4) 0.0272 Uiso
H1_22 H 0.0068(6) 0.3973(4) 0.12974(6) 0.0327 Uiso
H2_22 H 0.1499(4) 0.5840(3) 0.08745(8) 0.0327 Uiso
H3_22 H 0.0228(6) 0.6442(4) 0.13060(7) 0.0327 Uiso
C8_23 C 0.1210(4) 0.7083(3) 0.10003(5) 0.0272 Uiso
O1_12 O 0.1561(6) 0.7193(3) 0.08458(9) 0.0272 Uiso
O2_14 O 0.1101(5) 0.7614(3) 0.10898(9) 0.0272 Uiso
C9_23 C 0.1025(4) 0.4239(3) 0.09904(7) 0.0272 Uiso
O3_23 O 0.1322(6) 0.4433(4) 0.08302(10) 0.0272 Uiso
O4_14 O 0.0899(6) 0.3598(4) 0.10816(10) 0.0272 Uiso
O6_14 O 0.2232(5) 0.3180(4) 0.05769(9) 0.0272 Uiso
O7_14 O 0.0634(7) 0.3069(4) 0.05851(10) 0.0272 Uiso
C1_22 C 0.9134(6) 0.4785(4) 0.16219(10) 0.0272 Uiso
C10_22 C 0.9583(5) 0.4943(3) 0.14803(10) 0.0272 Uiso
C11_23 C 0.8700(4) 0.4676(3) 0.17857(5) 0.0272 Uiso
C12_23 C 0.7907(21) 0.4640(19) 0.1798(3) 0.0272 Uiso
N1_23 N 0.7497(33) 0.455(3) 0.1962(4) 0.0272 Uiso
C13_23 C 0.7909(22) 0.4499(16) 0.2112(2) 0.0272 Uiso
C14_23 C 0.9058(16) 0.4615(11) 0.19530(14) 0.0272 Uiso
H4_23 H 0.765(3) 0.443(2) 0.2234(3) 0.0327 Uiso
H5_23 H 0.7629(34) 0.468(3) 0.1686(4) 0.0327 Uiso
H6_23 H 0.9611(27) 0.464(2) 0.1953(3) 0.0327 Uiso
C1_23 C 0.5651(4) 0.0866(6) 0.16219(10) 0.0272 Uiso
C10_23 C 0.5360(4) 0.0417(5) 0.14803(10) 0.0272 Uiso
C11_24 C 0.5976(3) 0.1300(4) 0.17857(5) 0.0272 Uiso
C12_24 C 0.6733(10) 0.2093(21) 0.1798(3) 0.0272 Uiso
N1_24 N 0.7053(14) 0.2503(33) 0.1962(4) 0.0272 Uiso
C13_24 C 0.6590(15) 0.2091(22) 0.2112(2) 0.0272 Uiso
C14_24 C 0.5557(12) 0.0942(16) 0.19530(14) 0.0272 Uiso
H4_24 H 0.678(2) 0.235(3) 0.2234(3) 0.0327 Uiso
H5_24 H 0.7051(17) 0.2371(34) 0.1686(4) 0.0327 Uiso
H6_24 H 0.5029(18) 0.0389(27) 0.1953(3) 0.0327 Uiso
C2_23 C 0.5089(2) 0.99078(28) 0.13194(3) 0.0272 Uiso
C3_23 C 0.43051(19) 0.96996(26) 0.12369(3) 0.0272 Uiso
C4_23 C 0.40357(18) 0.91931(26) 0.10768(4) 0.0272 Uiso
C5_23 C 0.4550(2) 0.88946(28) 0.09991(3) 0.0272 Uiso
C6_23 C 0.53344(19) 0.91032(26) 0.10816(3) 0.0272 Uiso
C7_23 C 0.56038(18) 0.96097(26) 0.12418(4) 0.0272 Uiso
H1_23 H 0.3905(4) 0.9932(6) 0.12974(6) 0.0327 Uiso
H2_23 H 0.4341(3) 0.8501(4) 0.08745(8) 0.0327 Uiso
H3_23 H 0.6214(4) 0.9772(6) 0.13060(7) 0.0327 Uiso
C8_24 C 0.5873(3) 0.8790(4) 0.10003(5) 0.0272 Uiso
O2_15 O 0.6513(4) 0.8899(5) 0.10898(9) 0.0272 Uiso
C9_24 C 0.3214(3) 0.8975(4) 0.09904(7) 0.0272 Uiso
O3_24 O 0.3111(4) 0.8678(6) 0.08302(10) 0.0272 Uiso
O4_15 O 0.2699(4) 0.9101(6) 0.10816(10) 0.0272 Uiso
O6_15 O 0.0947(3) 0.7768(5) 0.05769(9) 0.0272 Uiso
O7_15 O 0.2434(6) 0.9366(7) 0.05851(10) 0.0272 Uiso
C9_25 C 0.0119(3) 0.2428(3) 0.06763(7) 0.0272 Uiso
O3_25 O 0.0222(4) 0.2234(4) 0.08365(10) 0.0272 Uiso
O5_13 O 0.1772(6) 0.2299(5) 0.08209(9) 0.0272 Uiso
C11_25 C 0.7357(3) 0.1991(3) 0.98810(5) 0.0272 Uiso
C12_25 C 0.6600(10) 0.2027(19) 0.9869(3) 0.0272 Uiso
N1_25 N 0.6280(14) 0.212(3) 0.9705(4) 0.0272 Uiso
C13_25 C 0.6743(15) 0.2168(16) 0.9555(2) 0.0272 Uiso
C14_25 C 0.7776(12) 0.2052(11) 0.97137(14) 0.0272 Uiso
H4_25 H 0.655(2) 0.224(2) 0.9433(3) 0.0327 Uiso
H5_25 H 0.6282(17) 0.199(3) 0.9981(4) 0.0327 Uiso
H6_25 H 0.8304(18) 0.203(2) 0.9714(3) 0.0327 Uiso
C8_25 C 0.7460(3) 0.9584(3) 0.06664(5) 0.0272 Uiso
O1_13 O 0.7701(5) 0.9474(3) 0.08209(9) 0.0272 Uiso
C1_24 C 0.4199(6) 0.2318(4) 0.00448(10) 0.0272 Uiso
C2_24 C 0.32411(28) 0.1756(2) 0.03473(3) 0.0272 Uiso
C3_24 C 0.30329(26) 0.09718(19) 0.04298(3) 0.0272 Uiso
C4_24 C 0.25264(26) 0.07024(18) 0.05899(4) 0.0272 Uiso
C5_24 C 0.22279(28) 0.1217(2) 0.06676(3) 0.0272 Uiso
C6_24 C 0.24365(26) 0.20011(19) 0.05851(3) 0.0272 Uiso
C7_24 C 0.29430(26) 0.22705(18) 0.04249(4) 0.0272 Uiso
H1_24 H 0.3265(6) 0.0572(4) 0.03693(6) 0.0327 Uiso
H2_24 H 0.1834(4) 0.1008(3) 0.07922(8) 0.0327 Uiso
H3_24 H 0.3105(6) 0.2881(4) 0.03607(7) 0.0327 Uiso
C8_26 C 0.2123(4) 0.2540(3) 0.06664(5) 0.0272 Uiso
C10_24 C 0.3750(5) 0.2027(4) 0.01864(10) 0.0272 Uiso
C11_26 C 0.4633(4) 0.2643(3) 0.98810(5) 0.0272 Uiso
C12_26 C 0.5426(21) 0.3400(10) 0.9869(3) 0.0272 Uiso
N1_26 N 0.5836(33) 0.3720(14) 0.9705(4) 0.0272 Uiso
C13_26 C 0.5424(22) 0.3257(15) 0.9555(2) 0.0272 Uiso
C14_26 C 0.4275(16) 0.2224(12) 0.97137(14) 0.0272 Uiso
H4_26 H 0.568(3) 0.345(2) 0.9433(3) 0.0327 Uiso
H5_26 H 0.5704(34) 0.3718(17) 0.9981(4) 0.0327 Uiso
H6_26 H 0.3722(27) 0.1696(18) 0.9714(3) 0.0327 Uiso
C9_26 C 0.2308(4) 0.9881(3) 0.06763(7) 0.0272 Uiso
O3_26 O 0.2011(6) 0.9778(4) 0.08365(10) 0.0272 Uiso
O5_14 O 0.0526(8) 0.8228(6) 0.08209(9) 0.0272 Uiso
C8_27 C 0.0416(3) 0.7877(4) 0.06664(5) 0.0272 Uiso
C1_25 C 0.8118(4) 0.5801(6) 0.00448(10) 0.0272 Uiso
C2_25 C 0.85145(19) 0.67589(28) 0.03473(3) 0.0272 Uiso
C3_25 C 0.79388(18) 0.69671(26) 0.04298(3) 0.0272 Uiso
C4_25 C 0.81759(19) 0.74736(26) 0.05899(4) 0.0272 Uiso
C5_25 C 0.89887(19) 0.77721(28) 0.06676(3) 0.0272 Uiso
C6_25 C 0.95645(18) 0.75635(26) 0.05851(3) 0.0272 Uiso
C7_25 C 0.93274(19) 0.70570(26) 0.04249(4) 0.0272 Uiso
H1_25 H 0.7306(4) 0.6735(6) 0.03693(6) 0.0327 Uiso
H2_25 H 0.9173(3) 0.8166(4) 0.07922(8) 0.0327 Uiso
H3_25 H 0.9775(4) 0.6895(6) 0.03607(7) 0.0327 Uiso
C9_27 C 0.7572(3) 0.7692(4) 0.06763(7) 0.0272 Uiso
O3_27 O 0.7766(4) 0.7989(6) 0.08365(10) 0.0272 Uiso
C10_25 C 0.8276(3) 0.6250(5) 0.01864(10) 0.0272 Uiso
C11_27 C 0.8009(3) 0.5367(4) 0.98810(5) 0.0272 Uiso
C12_27 C 0.7973(19) 0.4574(21) 0.9869(3) 0.0272 Uiso
N1_27 N 0.788(3) 0.4164(33) 0.9705(4) 0.0272 Uiso
C13_27 C 0.7832(16) 0.4576(22) 0.9555(2) 0.0272 Uiso
C14_27 C 0.7948(11) 0.5725(16) 0.97137(14) 0.0272 Uiso
H4_27 H 0.776(2) 0.432(3) 0.9433(3) 0.0327 Uiso
H5_27 H 0.801(3) 0.4296(34) 0.9981(4) 0.0327 Uiso
H6_27 H 0.797(2) 0.6278(27) 0.9714(3) 0.0327 Uiso
O6_16 O 0.0154(4) 0.5719(3) 0.72435(9) 0.0272 Uiso
O7_16 O 0.0265(4) 0.4232(6) 0.72517(10) 0.0272 Uiso
C1_26 C 0.8548(4) 0.1016(4) 0.82886(10) 0.0272 Uiso
C2_26 C 0.81521(19) 0.1578(2) 0.79861(3) 0.0272 Uiso
C3_26 C 0.87278(18) 0.23616(19) 0.79036(3) 0.0272 Uiso
C4_26 C 0.84907(19) 0.26310(18) 0.77435(4) 0.0272 Uiso
C5_26 C 0.76779(19) 0.2117(2) 0.76658(3) 0.0272 Uiso
C6_26 C 0.71021(18) 0.13323(19) 0.77483(3) 0.0272 Uiso
C7_26 C 0.73392(19) 0.10629(18) 0.79085(4) 0.0272 Uiso
H1_26 H 0.9360(4) 0.2762(4) 0.79641(6) 0.0327 Uiso
H2_26 H 0.7493(3) 0.2326(3) 0.75412(8) 0.0327 Uiso
H3_26 H 0.6891(4) 0.0453(4) 0.79727(7) 0.0327 Uiso
C8_28 C 0.6250(3) 0.0794(3) 0.76670(5) 0.0272 Uiso
O1_14 O 0.6140(3) 0.1035(5) 0.75125(9) 0.0272 Uiso
O2_16 O 0.5719(3) 0.0154(4) 0.77565(9) 0.0272 Uiso
C9_28 C 0.9094(3) 0.3453(3) 0.76571(7) 0.0272 Uiso
O3_28 O 0.8900(4) 0.3556(4) 0.74969(10) 0.0272 Uiso
O4_16 O 0.9735(4) 0.3968(4) 0.77483(10) 0.0272 Uiso
C10_26 C 0.8390(3) 0.1307(4) 0.81470(10) 0.0272 Uiso
C11_28 C 0.8657(3) 0.0691(3) 0.84524(5) 0.0272 Uiso
C13_28 C 0.8834(16) 0.0077(15) 0.8779(2) 0.0272 Uiso
C14_28 C 0.8718(11) 0.1110(12) 0.86197(14) 0.0272 Uiso
H6_28 H 0.869(2) 0.1638(18) 0.8620(3) 0.0327 Uiso
O5_15 O 0.8965(5) 0.5106(6) 0.75125(9) 0.0272 Uiso
C12_28 C 0.8693(19) 0.9934(10) 0.8465(3) 0.0272 Uiso
N1_28 N 0.878(3) 0.9614(14) 0.8629(4) 0.0272 Uiso
H4_28 H 0.890(2) 0.989(2) 0.8901(3) 0.0327 Uiso
H5_28 H 0.865(3) 0.9616(17) 0.8353(4) 0.0327 Uiso
C1_27 C 0.2467(6) 0.1452(4) 0.82886(10) 0.0272 Uiso
C2_27 C 0.34255(28) 0.18479(19) 0.79861(3) 0.0272 Uiso
C3_27 C 0.36337(26) 0.12722(18) 0.79036(3) 0.0272 Uiso
C4_27 C 0.41402(26) 0.15093(19) 0.77435(4) 0.0272 Uiso
C5_27 C 0.44387(28) 0.23221(19) 0.76658(3) 0.0272 Uiso
C6_27 C 0.42301(26) 0.28979(18) 0.77483(3) 0.0272 Uiso
C7_27 C 0.37236(26) 0.26608(19) 0.79085(4) 0.0272 Uiso
H1_27 H 0.3401(6) 0.0640(4) 0.79641(6) 0.0327 Uiso
H2_27 H 0.4832(4) 0.2507(3) 0.75412(8) 0.0327 Uiso
H3_27 H 0.3561(6) 0.3109(4) 0.79727(7) 0.0327 Uiso
C8_29 C 0.4543(4) 0.3750(3) 0.76670(5) 0.0272 Uiso
O1_15 O 0.4894(6) 0.3860(3) 0.75125(9) 0.0272 Uiso
O2_17 O 0.4434(5) 0.4281(3) 0.77565(9) 0.0272 Uiso
C9_29 C 0.4358(4) 0.0906(3) 0.76571(7) 0.0272 Uiso
O3_29 O 0.4655(6) 0.1100(4) 0.74969(10) 0.0272 Uiso
O4_17 O 0.4232(6) 0.0265(4) 0.77483(10) 0.0272 Uiso
C10_27 C 0.2916(5) 0.1610(3) 0.81470(10) 0.0272 Uiso
C11_29 C 0.2033(4) 0.1343(3) 0.84524(5) 0.0272 Uiso
C12_29 C 0.1240(21) 0.1307(19) 0.8465(3) 0.0272 Uiso
N1_29 N 0.0830(33) 0.122(3) 0.8629(4) 0.0272 Uiso
C13_29 C 0.1242(22) 0.1166(16) 0.8779(2) 0.0272 Uiso
C14_29 C 0.2391(16) 0.1282(11) 0.86197(14) 0.0272 Uiso
H4_29 H 0.098(3) 0.110(2) 0.8901(3) 0.0327 Uiso
H5_29 H 0.0962(34) 0.135(3) 0.8353(4) 0.0327 Uiso
H6_29 H 0.2944(27) 0.131(2) 0.8620(3) 0.0327 Uiso
O6_17 O 0.5566(5) 0.9846(4) 0.72435(9) 0.0272 Uiso
O7_17 O 0.3968(7) 0.9735(4) 0.72517(10) 0.0272 Uiso
C12_30 C 0.0066(10) 0.8760(21) 0.8465(3) 0.0272 Uiso
N1_30 N 0.0386(14) 0.9170(33) 0.8629(4) 0.0272 Uiso
H4_30 H 0.011(2) 0.902(3) 0.8901(3) 0.0327 Uiso
H5_30 H 0.0384(17) 0.9038(34) 0.8353(4) 0.0327 Uiso
C1_28 C 0.8984(4) 0.7533(6) 0.82886(10) 0.0272 Uiso
C2_28 C 0.8422(2) 0.65745(28) 0.79861(3) 0.0272 Uiso
C3_28 C 0.76384(19) 0.63663(26) 0.79036(3) 0.0272 Uiso
C4_28 C 0.73690(18) 0.58598(26) 0.77435(4) 0.0272 Uiso
C5_28 C 0.7883(2) 0.55613(28) 0.76658(3) 0.0272 Uiso
C6_28 C 0.86677(19) 0.57699(26) 0.77483(3) 0.0272 Uiso
C7_28 C 0.89371(18) 0.62764(26) 0.79085(4) 0.0272 Uiso
H1_28 H 0.7238(4) 0.6599(6) 0.79641(6) 0.0327 Uiso
H2_28 H 0.7674(3) 0.5168(4) 0.75412(8) 0.0327 Uiso
H3_28 H 0.9547(4) 0.6439(6) 0.79727(7) 0.0327 Uiso
C8_30 C 0.9206(3) 0.5457(4) 0.76670(5) 0.0272 Uiso
O2_18 O 0.9846(4) 0.5566(5) 0.77565(9) 0.0272 Uiso
C9_30 C 0.6547(3) 0.5642(4) 0.76571(7) 0.0272 Uiso
O3_30 O 0.6444(4) 0.5345(6) 0.74969(10) 0.0272 Uiso
O4_18 O 0.6032(4) 0.5768(6) 0.77483(10) 0.0272 Uiso
C10_28 C 0.8693(4) 0.7084(5) 0.81470(10) 0.0272 Uiso
C11_30 C 0.9309(3) 0.7967(4) 0.84524(5) 0.0272 Uiso
C13_30 C 0.9923(15) 0.8758(22) 0.8779(2) 0.0272 Uiso
C14_30 C 0.8890(12) 0.7609(16) 0.86197(14) 0.0272 Uiso
H6_30 H 0.8362(18) 0.7056(27) 0.8620(3) 0.0327 Uiso
O6_18 O 0.4281(3) 0.4434(5) 0.72435(9) 0.0272 Uiso
O7_18 O 0.5768(6) 0.6032(7) 0.72517(10) 0.0272 Uiso
C1_29 C 0.1016(4) 0.8548(4) 0.67114(10) 0.0272 Uiso
C2_29 C 0.1578(2) 0.81521(19) 0.70139(3) 0.0272 Uiso
C3_29 C 0.23616(19) 0.87278(18) 0.70964(3) 0.0272 Uiso
C4_29 C 0.26310(18) 0.84907(19) 0.72565(4) 0.0272 Uiso
C5_29 C 0.2117(2) 0.76779(19) 0.73342(3) 0.0272 Uiso
C6_29 C 0.13323(19) 0.71021(18) 0.72517(3) 0.0272 Uiso
C7_29 C 0.10629(18) 0.73392(19) 0.70915(4) 0.0272 Uiso
H1_29 H 0.2762(4) 0.9360(4) 0.70359(6) 0.0327 Uiso
H2_29 H 0.2326(3) 0.7493(3) 0.74588(8) 0.0327 Uiso
H3_29 H 0.0453(4) 0.6891(4) 0.70273(7) 0.0327 Uiso
C8_31 C 0.0794(3) 0.6250(3) 0.73330(5) 0.0272 Uiso
O1_16 O 0.1035(5) 0.6140(3) 0.74875(9) 0.0272 Uiso
C9_31 C 0.3453(3) 0.9094(3) 0.73429(7) 0.0272 Uiso
O3_31 O 0.3556(4) 0.8900(4) 0.75031(10) 0.0272 Uiso
C10_29 C 0.1307(4) 0.8390(3) 0.68530(10) 0.0272 Uiso
C11_31 C 0.0691(3) 0.8657(3) 0.65476(5) 0.0272 Uiso
C13_31 C 0.0077(15) 0.8834(16) 0.6221(2) 0.0272 Uiso
C14_31 C 0.1110(12) 0.8718(11) 0.63803(14) 0.0272 Uiso
H6_31 H 0.1638(18) 0.869(2) 0.6380(3) 0.0327 Uiso
O5_16 O 0.5106(6) 0.8965(5) 0.74875(9) 0.0272 Uiso
C12_31 C 0.9934(10) 0.8693(19) 0.6535(3) 0.0272 Uiso
N1_31 N 0.9614(14) 0.878(3) 0.6371(4) 0.0272 Uiso
H4_31 H 0.989(2) 0.890(2) 0.6099(3) 0.0327 Uiso
H5_31 H 0.9616(17) 0.865(3) 0.6647(4) 0.0327 Uiso
C12_32 C 0.8760(21) 0.0066(10) 0.6535(3) 0.0272 Uiso
N1_32 N 0.9170(33) 0.0386(14) 0.6371(4) 0.0272 Uiso
H4_32 H 0.902(3) 0.011(2) 0.6099(3) 0.0327 Uiso
H5_32 H 0.9038(34) 0.0384(17) 0.6647(4) 0.0327 Uiso
C1_30 C 0.7533(6) 0.8984(4) 0.67114(10) 0.0272 Uiso
C2_30 C 0.65745(28) 0.8422(2) 0.70139(3) 0.0272 Uiso
C3_30 C 0.63663(26) 0.76384(19) 0.70964(3) 0.0272 Uiso
C4_30 C 0.58598(26) 0.73690(18) 0.72565(4) 0.0272 Uiso
C5_30 C 0.55613(28) 0.7883(2) 0.73342(3) 0.0272 Uiso
C6_30 C 0.57699(26) 0.86677(19) 0.72517(3) 0.0272 Uiso
C7_30 C 0.62764(26) 0.89371(18) 0.70915(4) 0.0272 Uiso
H1_30 H 0.6599(6) 0.7238(4) 0.70359(6) 0.0327 Uiso
H2_30 H 0.5168(4) 0.7674(3) 0.74588(8) 0.0327 Uiso
H3_30 H 0.6439(6) 0.9547(4) 0.70273(7) 0.0327 Uiso
C8_32 C 0.5457(4) 0.9206(3) 0.73330(5) 0.0272 Uiso
C9_32 C 0.5642(4) 0.6547(3) 0.73429(7) 0.0272 Uiso
O3_32 O 0.5345(6) 0.6444(4) 0.75031(10) 0.0272 Uiso
C10_30 C 0.7084(5) 0.8693(4) 0.68530(10) 0.0272 Uiso
C11_32 C 0.7967(4) 0.9309(3) 0.65476(5) 0.0272 Uiso
C13_32 C 0.8758(22) 0.9923(15) 0.6221(2) 0.0272 Uiso
C14_32 C 0.7609(16) 0.8890(12) 0.63803(14) 0.0272 Uiso
H6_32 H 0.7056(27) 0.8362(18) 0.6380(3) 0.0327 Uiso
O5_17 O 0.3860(8) 0.4894(6) 0.74875(9) 0.0272 Uiso
C1_31 C 0.1452(4) 0.2467(6) 0.67114(10) 0.0272 Uiso
C2_31 C 0.18479(19) 0.34255(28) 0.70139(3) 0.0272 Uiso
C3_31 C 0.12722(18) 0.36337(26) 0.70964(3) 0.0272 Uiso
C4_31 C 0.15093(19) 0.41402(26) 0.72565(4) 0.0272 Uiso
C5_31 C 0.23221(19) 0.44387(28) 0.73342(3) 0.0272 Uiso
C6_31 C 0.28979(18) 0.42301(26) 0.72517(3) 0.0272 Uiso
C7_31 C 0.26608(19) 0.37236(26) 0.70915(4) 0.0272 Uiso
H1_31 H 0.0640(4) 0.3401(6) 0.70359(6) 0.0327 Uiso
H2_31 H 0.2507(3) 0.4832(4) 0.74588(8) 0.0327 Uiso
H3_31 H 0.3109(4) 0.3561(6) 0.70273(7) 0.0327 Uiso
C8_33 C 0.3750(3) 0.4543(4) 0.73330(5) 0.0272 Uiso
C9_33 C 0.0906(3) 0.4358(4) 0.73429(7) 0.0272 Uiso
O3_33 O 0.1100(4) 0.4655(6) 0.75031(10) 0.0272 Uiso
C10_31 C 0.1610(3) 0.2916(5) 0.68530(10) 0.0272 Uiso
C11_33 C 0.1343(3) 0.2033(4) 0.65476(5) 0.0272 Uiso
C12_33 C 0.1307(19) 0.1240(21) 0.6535(3) 0.0272 Uiso
N1_33 N 0.122(3) 0.0830(33) 0.6371(4) 0.0272 Uiso
C13_33 C 0.1166(16) 0.1242(22) 0.6221(2) 0.0272 Uiso
C14_33 C 0.1282(11) 0.2391(16) 0.63803(14) 0.0272 Uiso
H4_33 H 0.110(2) 0.098(3) 0.6099(3) 0.0327 Uiso
H5_33 H 0.135(3) 0.0962(34) 0.6647(4) 0.0327 Uiso
H6_33 H 0.131(2) 0.2944(27) 0.6380(3) 0.0327 Uiso
C9_34 C 0.2428(3) 0.0119(3) 0.43237(7) 0.0272 Uiso
O3_34 O 0.2234(4) 0.0222(4) 0.41635(10) 0.0272 Uiso
O5_18 O 0.2299(5) 0.1772(6) 0.41791(9) 0.0272 Uiso
C1_32 C 0.1882(4) 0.7682(4) 0.49552(10) 0.0272 Uiso
C2_32 C 0.14855(19) 0.8244(2) 0.46527(3) 0.0272 Uiso
C3_32 C 0.20612(18) 0.90282(19) 0.45702(3) 0.0272 Uiso
C4_32 C 0.18241(19) 0.92976(18) 0.44101(4) 0.0272 Uiso
C5_32 C 0.10113(19) 0.8783(2) 0.43324(3) 0.0272 Uiso
C6_32 C 0.04355(18) 0.79989(19) 0.44149(3) 0.0272 Uiso
C7_32 C 0.06726(19) 0.77295(18) 0.45751(4) 0.0272 Uiso
H1_32 H 0.2694(4) 0.9428(4) 0.46307(6) 0.0327 Uiso
H2_32 H 0.0827(3) 0.8992(3) 0.42078(8) 0.0327 Uiso
H3_32 H 0.0225(4) 0.7119(4) 0.46393(7) 0.0327 Uiso
C10_32 C 0.1724(3) 0.7973(4) 0.48136(10) 0.0272 Uiso
C11_34 C 0.1991(3) 0.7357(3) 0.51190(5) 0.0272 Uiso
C12_34 C 0.2027(19) 0.6600(10) 0.5131(3) 0.0272 Uiso
N1_34 N 0.212(3) 0.6280(14) 0.5295(4) 0.0272 Uiso
C13_34 C 0.2168(16) 0.6743(15) 0.5445(2) 0.0272 Uiso
C14_34 C 0.2052(11) 0.7776(12) 0.52863(14) 0.0272 Uiso
H4_34 H 0.224(2) 0.655(2) 0.5567(3) 0.0327 Uiso
H5_34 H 0.199(3) 0.6282(17) 0.5019(4) 0.0327 Uiso
H6_34 H 0.203(2) 0.8304(18) 0.5286(3) 0.0327 Uiso
C8_34 C 0.9584(3) 0.7460(3) 0.43336(5) 0.0272 Uiso
O1_17 O 0.9474(3) 0.7701(5) 0.41791(9) 0.0272 Uiso
C8_35 C 0.7877(4) 0.0416(3) 0.43336(5) 0.0272 Uiso
O1_18 O 0.8228(6) 0.0526(3) 0.41791(9) 0.0272 Uiso
C1_33 C 0.5801(6) 0.8118(4) 0.49552(10) 0.0272 Uiso
C2_33 C 0.67589(28) 0.85145(19) 0.46527(3) 0.0272 Uiso
C3_33 C 0.69671(26) 0.79388(18) 0.45702(3) 0.0272 Uiso
C4_33 C 0.74736(26) 0.81759(19) 0.44101(4) 0.0272 Uiso
C5_33 C 0.77721(28) 0.89887(19) 0.43324(3) 0.0272 Uiso
C6_33 C 0.75635(26) 0.95645(18) 0.44149(3) 0.0272 Uiso
C7_33 C 0.70570(26) 0.93274(19) 0.45751(4) 0.0272 Uiso
H1_33 H 0.6735(6) 0.7306(4) 0.46307(6) 0.0327 Uiso
H2_33 H 0.8166(4) 0.9173(3) 0.42078(8) 0.0327 Uiso
H3_33 H 0.6895(6) 0.9775(4) 0.46393(7) 0.0327 Uiso
C9_35 C 0.7692(4) 0.7572(3) 0.43237(7) 0.0272 Uiso
O3_35 O 0.7989(6) 0.7766(4) 0.41635(10) 0.0272 Uiso
C10_33 C 0.6250(5) 0.8276(3) 0.48136(10) 0.0272 Uiso
C11_35 C 0.5367(4) 0.8009(3) 0.51190(5) 0.0272 Uiso
C12_35 C 0.4574(21) 0.7973(19) 0.5131(3) 0.0272 Uiso
N1_35 N 0.4164(33) 0.788(3) 0.5295(4) 0.0272 Uiso
C13_35 C 0.4576(22) 0.7832(16) 0.5445(2) 0.0272 Uiso
C14_35 C 0.5725(16) 0.7948(11) 0.52863(14) 0.0272 Uiso
H4_35 H 0.432(3) 0.776(2) 0.5567(3) 0.0327 Uiso
H5_35 H 0.4296(34) 0.801(3) 0.5019(4) 0.0327 Uiso
H6_35 H 0.6278(27) 0.797(2) 0.5286(3) 0.0327 Uiso
C1_34 C 0.2318(4) 0.4199(6) 0.49552(10) 0.0272 Uiso
C2_34 C 0.1756(2) 0.32411(28) 0.46527(3) 0.0272 Uiso
C3_34 C 0.09718(19) 0.30329(26) 0.45702(3) 0.0272 Uiso
C4_34 C 0.07024(18) 0.25264(26) 0.44101(4) 0.0272 Uiso
C5_34 C 0.1217(2) 0.22279(28) 0.43324(3) 0.0272 Uiso
C6_34 C 0.20011(19) 0.24365(26) 0.44149(3) 0.0272 Uiso
C7_34 C 0.22705(18) 0.29430(26) 0.45751(4) 0.0272 Uiso
H1_34 H 0.0572(4) 0.3265(6) 0.46307(6) 0.0327 Uiso
H2_34 H 0.1008(3) 0.1834(4) 0.42078(8) 0.0327 Uiso
H3_34 H 0.2881(4) 0.3105(6) 0.46393(7) 0.0327 Uiso
C8_36 C 0.2540(3) 0.2123(4) 0.43336(5) 0.0272 Uiso
C10_34 C 0.2027(4) 0.3750(5) 0.48136(10) 0.0272 Uiso
C11_36 C 0.2643(3) 0.4633(4) 0.51190(5) 0.0272 Uiso
C12_36 C 0.3400(10) 0.5426(21) 0.5131(3) 0.0272 Uiso
N1_36 N 0.3720(14) 0.5836(33) 0.5295(4) 0.0272 Uiso
C13_36 C 0.3257(15) 0.5424(22) 0.5445(2) 0.0272 Uiso
C14_36 C 0.2224(12) 0.4275(16) 0.52863(14) 0.0272 Uiso
H4_36 H 0.345(2) 0.568(3) 0.5567(3) 0.0327 Uiso
H5_36 H 0.3718(17) 0.5704(34) 0.5019(4) 0.0327 Uiso
H6_36 H 0.1696(18) 0.3722(27) 0.5286(3) 0.0327 Uiso
C9_36 C 0.9881(3) 0.2308(4) 0.43237(7) 0.0272 Uiso
O3_36 O 0.9778(4) 0.2011(6) 0.41635(10) 0.0272 Uiso
C1_35 C 0.2318(4) 0.8118(4) 0.99552(10) 0.0272 Uiso
C2_35 C 0.1756(2) 0.85145(19) 0.96527(3) 0.0272 Uiso
C3_35 C 0.09718(19) 0.79388(18) 0.95702(3) 0.0272 Uiso
C4_35 C 0.07024(18) 0.81759(19) 0.94101(4) 0.0272 Uiso
C5_35 C 0.1217(2) 0.89887(19) 0.93324(3) 0.0272 Uiso
C6_35 C 0.20011(19) 0.95645(18) 0.94149(3) 0.0272 Uiso
C7_35 C 0.22705(18) 0.93274(19) 0.95751(4) 0.0272 Uiso
H1_35 H 0.0572(4) 0.7306(4) 0.96307(6) 0.0327 Uiso
H2_35 H 0.1008(3) 0.9173(3) 0.92078(8) 0.0327 Uiso
H3_35 H 0.2881(4) 0.9775(4) 0.96393(7) 0.0327 Uiso
C10_35 C 0.2027(4) 0.8276(3) 0.98136(10) 0.0272 Uiso
C1_36 C 0.7682(4) 0.1882(4) 0.00448(10) 0.0272 Uiso
C2_36 C 0.8244(2) 0.14855(19) 0.03473(3) 0.0272 Uiso
C3_36 C 0.90282(19) 0.20612(18) 0.04298(3) 0.0272 Uiso
C4_36 C 0.92976(18) 0.18241(19) 0.05899(4) 0.0272 Uiso
C5_36 C 0.8783(2) 0.10113(19) 0.06676(3) 0.0272 Uiso
C6_36 C 0.79989(19) 0.04355(18) 0.05851(3) 0.0272 Uiso
C7_36 C 0.77295(18) 0.06726(19) 0.04249(4) 0.0272 Uiso
H1_36 H 0.9428(4) 0.2694(4) 0.03693(6) 0.0327 Uiso
H2_36 H 0.8992(3) 0.0827(3) 0.07922(8) 0.0327 Uiso
H3_36 H 0.7119(4) 0.0225(4) 0.03607(7) 0.0327 Uiso
C10_36 C 0.7973(4) 0.1724(3) 0.01864(10) 0.0272 Uiso
loop_
_geom_bond_atom_site_label_1
_geom_bond_atom_site_label_2
_geom_bond_site_symmetry_1
_geom_bond_site_symmetry_2
Cu1 O3 1_555 1_555
C1 C10 1_555 1_555
C2 C3 1_555 1_555
C3 C4 1_555 1_555
C4 C5 1_555 1_555
C5 C6 1_555 1_555
C6 C7 1_555 1_555
C7 C2 1_555 1_555
H1 C3 1_555 1_555
H2 C5 1_555 1_555
H3 C7 1_555 1_555
C8 C6 1_555 1_555
O1 C8 1_555 1_555
O2 C8 1_555 1_555
C9 C4 1_555 1_555
O3 C9 1_555 1_555
O4 C9 1_555 1_555
C10 C2 1_555 1_555
C11 C1 1_555 1_555
C12 C11 1_555 1_555
N1 C12 1_555 1_555
C13 N1 1_555 1_555
N2 C13 1_555 1_555
C14 C11 1_555 1_555
H4 C13 1_555 1_555
H5 C12 1_555 1_555
H6 C14 1_555 1_555
Cu2 O1 1_555 1_555
Cu3 O2 1_555 1_555
Cu4 O4 1_555 1_555
Cu5 N2 1_555 1_555
O5 Cu1 1_555 1_555
O6 Cu1 1_555 1_555
O7 Cu1 1_555 1_555
N3 Cu1 1_555 1_555
N2 C14 1_555 1_555
Cu1_2 O3_2 1_555 1_555
C2_2 C3_2 1_555 1_555
C3_2 C4_2 1_555 1_555
C4_2 C5_2 1_555 1_555
C5_2 C6_2 1_555 1_555
C6_2 C7_2 1_555 1_555
C7_2 C2_2 1_555 1_555
H1_2 C3_2 1_555 1_555
H2_2 C5_2 1_555 1_555
H3_2 C7_2 1_555 1_555
C8_2 C6_2 1_555 1_555
O5 C8_2 1_555 1_555
O2_2 C8_2 1_555 1_555
C9_2 C4_2 1_555 1_555
O3_2 C9_2 1_555 1_555
O4_2 C9_2 1_555 1_555
Cu4 O2_2 1_555 1_555
Cu4_2 O4_2 1_555 1_555
O5_2 Cu1_2 1_555 1_555
O6_2 Cu1_2 1_555 1_555
O7_2 Cu1_2 1_555 1_555
N3_2 Cu1_2 1_555 1_555
C1_2 C10_2 1_555 1_555
C11_2 C1_2 1_555 1_555
C12_2 C11_2 1_555 1_555
N1_2 C12_2 1_555 1_555
C13_2 N1_2 1_555 1_555
N2_2 C13_2 1_555 1_555
C14_2 C11_2 1_555 1_555
H4_2 C13_2 1_555 1_555
H5_2 C12_2 1_555 1_555
H6_2 C14_2 1_555 1_555
Cu5_2 N2_2 1_555 1_555
N2_2 C14_2 1_555 1_555
C1_3 C10_3 1_555 1_555
C11_3 C1_3 1_555 1_555
C12_3 C11_3 1_555 1_555
N1_3 C12_3 1_555 1_555
C13_3 N1_3 1_555 1_555
N2_3 C13_3 1_555 1_555
C14_3 C11_3 1_555 1_555
H4_3 C13_3 1_555 1_555
H5_3 C12_3 1_555 1_555
H6_3 C14_3 1_555 1_555
Cu5_3 N2_3 1_555 1_555
N2_3 C14_3 1_555 1_555
Cu2 O3_3 1_555 1_555
C2_3 C3_3 1_555 1_555
C3_3 C4_3 1_555 1_555
C4_3 C5_3 1_555 1_555
C5_3 C6_3 1_555 1_555
C6_3 C7_3 1_555 1_555
C7_3 C2_3 1_555 1_555
H1_3 C3_3 1_555 1_555
H2_3 C5_3 1_555 1_555
H3_3 C7_3 1_555 1_555
C8_3 C6_3 1_555 1_555
O5_2 C8_3 1_555 1_555
O2_3 C8_3 1_555 1_555
C9_3 C4_3 1_555 1_555
O3_3 C9_3 1_555 1_555
O4_3 C9_3 1_555 1_555
Cu4_2 O2_3 1_555 1_555
Cu3 O4_3 1_555 1_555
O6_3 Cu2 1_555 1_555
O7_3 Cu2 1_555 1_555
N3_3 Cu2 1_555 1_555
Cu1_3 O3_4 1_555 1_555
C1_4 C10_4 1_555 1_555
C2_4 C3_4 1_555 1_555
C3_4 C4_4 1_555 1_555
C4_4 C5_4 1_555 1_555
C5_4 C6_4 1_555 1_555
C6_4 C7_4 1_555 1_555
C7_4 C2_4 1_555 1_555
H1_4 C3_4 1_555 1_555
H2_4 C5_4 1_555 1_555
H3_4 C7_4 1_555 1_555
C8_4 C6_4 1_555 1_555
O1_2 C8_4 1_555 1_555
O2_4 C8_4 1_555 1_555
C9_4 C4_4 1_555 1_555
O3_4 C9_4 1_555 1_555
O4_4 C9_4 1_555 1_555
C10_4 C2_4 1_555 1_555
C11_4 C1_4 1_555 1_555
C12_4 C11_4 1_555 1_555
N1_4 C12_4 1_555 1_555
C13_4 N1_4 1_555 1_555
N2_4 C13_4 1_555 1_555
C14_4 C11_4 1_555 1_555
H4_4 C13_4 1_555 1_555
H5_4 C12_4 1_555 1_555
H6_4 C14_4 1_555 1_555
Cu2_2 O1_2 1_555 1_555
Cu3_2 O2_4 1_555 1_555
Cu4_3 O4_4 1_555 1_555
Cu5_4 N2_4 1_555 1_555
O5_3 Cu1_3 1_555 1_555
O6_4 Cu1_3 1_555 1_555
O7_4 Cu1_3 1_555 1_555
N3_4 Cu1_3 1_555 1_555
N2_4 C14_4 1_555 1_555
C1_5 C10_5 1_555 1_555
C11_5 C1_5 1_555 1_555
C12_5 C11_5 1_555 1_555
N1_5 C12_5 1_555 1_555
C13_5 N1_5 1_555 1_555
N2_5 C13_5 1_555 1_555
C14_5 C11_5 1_555 1_555
H4_5 C13_5 1_555 1_555
H5_5 C12_5 1_555 1_555
H6_5 C14_5 1_555 1_555
Cu5_5 N2_5 1_555 1_555
N2_5 C14_5 1_555 1_555
Cu2_2 O3_5 1_555 1_555
C2_5 C3_5 1_555 1_555
C3_5 C4_5 1_555 1_555
C4_5 C5_5 1_555 1_555
C5_5 C6_5 1_555 1_555
C6_5 C7_5 1_555 1_555
C7_5 C2_5 1_555 1_555
H1_5 C3_5 1_555 1_555
H2_5 C5_5 1_555 1_555
H3_5 C7_5 1_555 1_555
C8_5 C6_5 1_555 1_555
O1_3 C8_5 1_555 1_555
O2_5 C8_5 1_555 1_555
C9_5 C4_5 1_555 1_555
O3_5 C9_5 1_555 1_555
O4_5 C9_5 1_555 1_555
Cu2_3 O1_3 1_555 1_555
Cu3_3 O2_5 1_555 1_555
Cu3_2 O4_5 1_555 1_555
O6_5 Cu2_2 1_555 1_555
O7_5 Cu2_2 1_555 1_555
N3_5 Cu2_2 1_555 1_555
Cu2_3 O3_6 1_555 1_555
C2_6 C3_6 1_555 1_555
C3_6 C4_6 1_555 1_555
C4_6 C5_6 1_555 1_555
C5_6 C6_6 1_555 1_555
C6_6 C7_6 1_555 1_555
C7_6 C2_6 1_555 1_555
H1_6 C3_6 1_555 1_555
H2_6 C5_6 1_555 1_555
H3_6 C7_6 1_555 1_555
C8_6 C6_6 1_555 1_555
O5_3 C8_6 1_555 1_555
O2_6 C8_6 1_555 1_555
C9_6 C4_6 1_555 1_555
O3_6 C9_6 1_555 1_555
O4_6 C9_6 1_555 1_555
Cu4_3 O2_6 1_555 1_555
Cu3_3 O4_6 1_555 1_555
O6_6 Cu2_3 1_555 1_555
O7_6 Cu2_3 1_555 1_555
N3_6 Cu2_3 1_555 1_555
C1_6 C10_6 1_555 1_555
C11_6 C1_6 1_555 1_555
C12_6 C11_6 1_555 1_555
N1_6 C12_6 1_555 1_555
C13_6 N1_6 1_555 1_555
N2_6 C13_6 1_555 1_555
C14_6 C11_6 1_555 1_555
H4_6 C13_6 1_555 1_555
H5_6 C12_6 1_555 1_555
H6_6 C14_6 1_555 1_555
Cu5_6 N2_6 1_555 1_555
N2_6 C14_6 1_555 1_555
O1_4 C8_7 1_555 1_555
O6_4 C8_7 1_555 1_555
Cu4_3 O1_4 1_555 1_555
C12_7 C11_7 1_555 1_555
N1_7 C12_7 1_555 1_555
C13_7 N1_7 1_555 1_555
N2_7 C13_7 1_555 1_555
C14_7 C11_7 1_555 1_555
H4_7 C13_7 1_555 1_555
H5_7 C12_7 1_555 1_555
H6_7 C14_7 1_555 1_555
Cu5_7 N2_7 1_555 1_555
N2_7 C14_7 1_555 1_555
Cu3_2 O3_7 1_555 1_555
O3_7 C9_7 1_555 1_555
O7_5 C9_7 1_555 1_555
O5_4 Cu3_2 1_555 1_555
N3_7 Cu3_2 1_555 1_555
Cu3_3 O3_8 1_555 1_555
O3_8 C9_8 1_555 1_555
O7_6 C9_8 1_555 1_555
O5_5 Cu3_3 1_555 1_555
N3_8 Cu3_3 1_555 1_555
C12_8 C11_8 1_555 1_555
N1_8 C12_8 1_555 1_555
C13_8 N1_8 1_555 1_555
N2_8 C13_8 1_555 1_555
C14_8 C11_8 1_555 1_555
H4_8 C13_8 1_555 1_555
H5_8 C12_8 1_555 1_555
H6_8 C14_8 1_555 1_555
Cu5_8 N2_8 1_555 1_555
N2_8 C14_8 1_555 1_555
C1_7 C10_7 1_555 1_555
C2_7 C3_7 1_555 1_555
C3_7 C4_7 1_555 1_555
C4_7 C5_7 1_555 1_555
C5_7 C6_7 1_555 1_555
C6_7 C7_7 1_555 1_555
C7_7 C2_7 1_555 1_555
H1_7 C3_7 1_555 1_555
H2_7 C5_7 1_555 1_555
H3_7 C7_7 1_555 1_555
C8_8 C6_7 1_555 1_555
O5_4 C8_8 1_555 1_555
O6_5 C8_8 1_555 1_555
C10_7 C2_7 1_555 1_555
C12_9 C11_9 1_555 1_555
N1_9 C12_9 1_555 1_555
C13_9 N1_9 1_555 1_555
N2_9 C13_9 1_555 1_555
C14_9 C11_9 1_555 1_555
H4_9 C13_9 1_555 1_555
H5_9 C12_9 1_555 1_555
H6_9 C14_9 1_555 1_555
Cu5_9 N2_9 1_555 1_555
N2_9 C14_9 1_555 1_555
Cu4_3 O3_9 1_555 1_555
C1_8 C10_8 1_555 1_555
C2_8 C3_8 1_555 1_555
C3_8 C4_8 1_555 1_555
C4_8 C5_8 1_555 1_555
C5_8 C6_8 1_555 1_555
C6_8 C7_8 1_555 1_555
C7_8 C2_8 1_555 1_555
H1_8 C3_8 1_555 1_555
H2_8 C5_8 1_555 1_555
H3_8 C7_8 1_555 1_555
C9_9 C4_8 1_555 1_555
O3_9 C9_9 1_555 1_555
O7_4 C9_9 1_555 1_555
C10_8 C2_8 1_555 1_555
N3_9 Cu4_3 1_555 1_555
O5_5 C8_9 1_555 1_555
O6_6 C8_9 1_555 1_555
N1_10 C12_10 1_555 1_555
H5_10 C12_10 1_555 1_555
Cu1_4 O3_10 1_555 1_555
C1_9 C10_9 1_555 1_555
C2_9 C3_9 1_555 1_555
C3_9 C4_9 1_555 1_555
C4_9 C5_9 1_555 1_555
C5_9 C6_9 1_555 1_555
C6_9 C7_9 1_555 1_555
C7_9 C2_9 1_555 1_555
H1_9 C3_9 1_555 1_555
H2_9 C5_9 1_555 1_555
H3_9 C7_9 1_555 1_555
C8_10 C6_9 1_555 1_555
O1_5 C8_10 1_555 1_555
O2_7 C8_10 1_555 1_555
C9_10 C4_9 1_555 1_555
O3_10 C9_10 1_555 1_555
O4_7 C9_10 1_555 1_555
C10_9 C2_9 1_555 1_555
C11_10 C1_9 1_555 1_555
N2_10 C13_10 1_555 1_555
C14_10 C11_10 1_555 1_555
H6_10 C14_10 1_555 1_555
Cu2_4 O1_5 1_555 1_555
Cu5_10 N2_10 1_555 1_555
O5_6 Cu1_4 1_555 1_555
N3_10 Cu1_4 1_555 1_555
N2_10 C14_10 1_555 1_555
Cu2_4 O3_11 1_555 1_555
C1_10 C10_10 1_555 1_555
C2_10 C3_10 1_555 1_555
C3_10 C4_10 1_555 1_555
C4_10 C5_10 1_555 1_555
C5_10 C6_10 1_555 1_555
C6_10 C7_10 1_555 1_555
C7_10 C2_10 1_555 1_555
H1_10 C3_10 1_555 1_555
H2_10 C5_10 1_555 1_555
H3_10 C7_10 1_555 1_555
C8_11 C6_10 1_555 1_555
O1_6 C8_11 1_555 1_555
O2_8 C8_11 1_555 1_555
C9_11 C4_10 1_555 1_555
O3_11 C9_11 1_555 1_555
O4_8 C9_11 1_555 1_555
C10_10 C2_10 1_555 1_555
C11_11 C1_10 1_555 1_555
C12_11 C11_11 1_555 1_555
N1_11 C12_11 1_555 1_555
C13_11 N1_11 1_555 1_555
N2_11 C13_11 1_555 1_555
C14_11 C11_11 1_555 1_555
H4_11 C13_11 1_555 1_555
H5_11 C12_11 1_555 1_555
H6_11 C14_11 1_555 1_555
Cu2_5 O1_6 1_555 1_555
Cu3_5 O2_8 1_555 1_555
Cu5_11 N2_11 1_555 1_555
N3_11 Cu2_4 1_555 1_555
N2_11 C14_11 1_555 1_555
Cu2_5 O3_12 1_555 1_555
C1_11 C10_11 1_555 1_555
C2_11 C3_11 1_555 1_555
C3_11 C4_11 1_555 1_555
C4_11 C5_11 1_555 1_555
C5_11 C6_11 1_555 1_555
C6_11 C7_11 1_555 1_555
C7_11 C2_11 1_555 1_555
H1_11 C3_11 1_555 1_555
H2_11 C5_11 1_555 1_555
H3_11 C7_11 1_555 1_555
C8_12 C6_11 1_555 1_555
O5_6 C8_12 1_555 1_555
O2_9 C8_12 1_555 1_555
C9_12 C4_11 1_555 1_555
O3_12 C9_12 1_555 1_555
O4_9 C9_12 1_555 1_555
C10_11 C2_11 1_555 1_555
C11_12 C1_11 1_555 1_555
N2_12 C13_12 1_555 1_555
C14_12 C11_12 1_555 1_555
H6_12 C14_12 1_555 1_555
Cu3_5 O4_9 1_555 1_555
Cu5_12 N2_12 1_555 1_555
O6_9 Cu2_5 1_555 1_555
O7_9 Cu2_5 1_555 1_555
N3_12 Cu2_5 1_555 1_555
N2_12 C14_12 1_555 1_555
N1_12 C12_12 1_555 1_555
H5_12 C12_12 1_555 1_555
N1_13 C12_13 1_555 1_555
H5_13 C12_13 1_555 1_555
Cu3_4 O3_13 1_555 1_555
C1_12 C10_12 1_555 1_555
C2_12 C3_12 1_555 1_555
C3_12 C4_12 1_555 1_555
C4_12 C5_12 1_555 1_555
C5_12 C6_12 1_555 1_555
C6_12 C7_12 1_555 1_555
C7_12 C2_12 1_555 1_555
H1_12 C3_12 1_555 1_555
H2_12 C5_12 1_555 1_555
H3_12 C7_12 1_555 1_555
C8_13 C6_12 1_555 1_555
O1_7 C8_13 1_555 1_555
O6_7 C8_13 1_555 1_555
C9_13 C4_12 1_555 1_555
O3_13 C9_13 1_555 1_555
O7_8 C9_13 1_555 1_555
C10_12 C2_12 1_555 1_555
C11_13 C1_12 1_555 1_555
N2_13 C13_13 1_555 1_555
C14_13 C11_13 1_555 1_555
H6_13 C14_13 1_555 1_555
Cu4_4 O1_7 1_555 1_555
Cu5_13 N2_13 1_555 1_555
O5_7 Cu3_4 1_555 1_555
N3_13 Cu3_4 1_555 1_555
N2_13 C14_13 1_555 1_555
Cu3_5 O3_14 1_555 1_555
C1_13 C10_13 1_555 1_555
C2_13 C3_13 1_555 1_555
C3_13 C4_13 1_555 1_555
C4_13 C5_13 1_555 1_555
C5_13 C6_13 1_555 1_555
C6_13 C7_13 1_555 1_555
C7_13 C2_13 1_555 1_555
H1_13 C3_13 1_555 1_555
H2_13 C5_13 1_555 1_555
H3_13 C7_13 1_555 1_555
C8_14 C6_13 1_555 1_555
O5_7 C8_14 1_555 1_555
O6_8 C8_14 1_555 1_555
C9_14 C4_13 1_555 1_555
O3_14 C9_14 1_555 1_555
O7_9 C9_14 1_555 1_555
C10_13 C2_13 1_555 1_555
C11_14 C1_13 1_555 1_555
N2_14 C13_14 1_555 1_555
C14_14 C11_14 1_555 1_555
H6_14 C14_14 1_555 1_555
Cu5_14 N2_14 1_555 1_555
O5_8 Cu3_5 1_555 1_555
N3_14 Cu3_5 1_555 1_555
N2_14 C14_14 1_555 1_555
N1_14 C12_14 1_555 1_555
H5_14 C12_14 1_555 1_555
Cu4_4 O3_15 1_555 1_555
C1_14 C10_14 1_555 1_555
C2_14 C3_14 1_555 1_555
C3_14 C4_14 1_555 1_555
C4_14 C5_14 1_555 1_555
C5_14 C6_14 1_555 1_555
C6_14 C7_14 1_555 1_555
C7_14 C2_14 1_555 1_555
H1_14 C3_14 1_555 1_555
H2_14 C5_14 1_555 1_555
H3_14 C7_14 1_555 1_555
C8_15 C6_14 1_555 1_555
O5_8 C8_15 1_555 1_555
O6_9 C8_15 1_555 1_555
C9_15 C4_14 1_555 1_555
O3_15 C9_15 1_555 1_555
O7_7 C9_15 1_555 1_555
C10_14 C2_14 1_555 1_555
C11_15 C1_14 1_555 1_555
C12_15 C11_15 1_555 1_555
N1_15 C12_15 1_555 1_555
C13_15 N1_15 1_555 1_555
N2_15 C13_15 1_555 1_555
C14_15 C11_15 1_555 1_555
H4_15 C13_15 1_555 1_555
H5_15 C12_15 1_555 1_555
H6_15 C14_15 1_555 1_555
Cu5_15 N2_15 1_555 1_555
N3_15 Cu4_4 1_555 1_555
N2_15 C14_15 1_555 1_555
O1_8 C8_16 1_555 1_555
O6 C8_16 1_555 1_555
Cu4 O1_8 1_555 1_555
C1_15 C10_15 1_555 1_555
C2_15 C3_15 1_555 1_555
C3_15 C4_15 1_555 1_555
C4_15 C5_15 1_555 1_555
C5_15 C6_15 1_555 1_555
C6_15 C7_15 1_555 1_555
C7_15 C2_15 1_555 1_555
H1_15 C3_15 1_555 1_555
H2_15 C5_15 1_555 1_555
H3_15 C7_15 1_555 1_555
C10_15 C2_15 1_555 1_555
C11_16 C1_15 1_555 1_555
C12_16 C11_16 1_555 1_555
N1_16 C12_16 1_555 1_555
C13_16 N1_16 1_555 1_555
N2_16 C13_16 1_555 1_555
C14_16 C11_16 1_555 1_555
H4_16 C13_16 1_555 1_555
H5_16 C12_16 1_555 1_555
H6_16 C14_16 1_555 1_555
Cu5_16 N2_16 1_555 1_555
N2_16 C14_16 1_555 1_555
Cu3 O3_16 1_555 1_555
O3_16 C9_16 1_555 1_555
O7_3 C9_16 1_555 1_555
O5_9 Cu3 1_555 1_555
N3_16 Cu3 1_555 1_555
Cu4 O3_17 1_555 1_555
C1_16 C10_16 1_555 1_555
C2_16 C3_16 1_555 1_555
C3_16 C4_16 1_555 1_555
C4_16 C5_16 1_555 1_555
C5_16 C6_16 1_555 1_555
C6_16 C7_16 1_555 1_555
C7_16 C2_16 1_555 1_555
H1_16 C3_16 1_555 1_555
H2_16 C5_16 1_555 1_555
H3_16 C7_16 1_555 1_555
C9_17 C4_16 1_555 1_555
O3_17 C9_17 1_555 1_555
O7 C9_17 1_555 1_555
C10_16 C2_16 1_555 1_555
C11_17 C1_16 1_555 1_555
C12_17 C11_17 1_555 1_555
N1_17 C12_17 1_555 1_555
C13_17 N1_17 1_555 1_555
N2_17 C13_17 1_555 1_555
C14_17 C11_17 1_555 1_555
H4_17 C13_17 1_555 1_555
H5_17 C12_17 1_555 1_555
H6_17 C14_17 1_555 1_555
Cu5_17 N2_17 1_555 1_555
N3_17 Cu4 1_555 1_555
N2_17 C14_17 1_555 1_555
O1_9 C8_17 1_555 1_555
O6_2 C8_17 1_555 1_555
Cu4_2 O1_9 1_555 1_555
Cu4_2 O3_18 1_555 1_555
O3_18 C9_18 1_555 1_555
O7_2 C9_18 1_555 1_555
N3_18 Cu4_2 1_555 1_555
C1_17 C10_17 1_555 1_555
C2_17 C3_17 1_555 1_555
C3_17 C4_17 1_555 1_555
C4_17 C5_17 1_555 1_555
C5_17 C6_17 1_555 1_555
C6_17 C7_17 1_555 1_555
C7_17 C2_17 1_555 1_555
H1_17 C3_17 1_555 1_555
H2_17 C5_17 1_555 1_555
H3_17 C7_17 1_555 1_555
C8_18 C6_17 1_555 1_555
O5_9 C8_18 1_555 1_555
O6_3 C8_18 1_555 1_555
C10_17 C2_17 1_555 1_555
C11_18 C1_17 1_555 1_555
C12_18 C11_18 1_555 1_555
N1_18 C12_18 1_555 1_555
C13_18 N1_18 1_555 1_555
N2_18 C13_18 1_555 1_555
C14_18 C11_18 1_555 1_555
H4_18 C13_18 1_555 1_555
H5_18 C12_18 1_555 1_555
H6_18 C14_18 1_555 1_555
Cu5_18 N2_18 1_555 1_555
N2_18 C14_18 1_555 1_555
Cu5_18 O3_19 1_555 1_555
C1_18 C10_18 1_555 1_555
C2_18 C3_18 1_555 1_555
C3_18 C4_18 1_555 1_555
C4_18 C5_18 1_555 1_555
C5_18 C6_18 1_555 1_555
C6_18 C7_18 1_555 1_555
C7_18 C2_18 1_555 1_555
H1_18 C3_18 1_555 1_555
H2_18 C5_18 1_555 1_555
H3_18 C7_18 1_555 1_555
C8_19 C6_18 1_555 1_555
O1_10 C8_19 1_555 1_555
O2_10 C8_19 1_555 1_555
C9_19 C4_18 1_555 1_555
O3_19 C9_19 1_555 1_555
O4_10 C9_19 1_555 1_555
C10_18 C2_18 1_555 1_555
C11_19 C1_18 1_555 1_555
C12_19 C11_19 1_555 1_555
N1_19 C12_19 1_555 1_555
C13_19 N1_19 1_555 1_555
N3_12 C13_19 1_555 1_555
C14_19 C11_19 1_555 1_555
H4_19 C13_19 1_555 1_555
H5_19 C12_19 1_555 1_555
H6_19 C14_19 1_555 1_555
Cu5_17 O1_10 1_555 1_555
Cu5_14 O2_10 1_555 1_555
Cu5_15 O4_10 1_555 1_555
O5_10 Cu5_18 1_555 1_555
O6_10 Cu5_18 1_555 1_555
O7_10 Cu5_18 1_555 1_555
N3_12 C14_19 1_555 1_555
C1_19 C10_19 1_555 1_555
C11_20 C1_19 1_555 1_555
C12_20 C11_20 1_555 1_555
N1_20 C12_20 1_555 1_555
C13_20 N1_20 1_555 1_555
N3_10 C13_20 1_555 1_555
C14_20 C11_20 1_555 1_555
H4_20 C13_20 1_555 1_555
H5_20 C12_20 1_555 1_555
H6_20 C14_20 1_555 1_555
N3_10 C14_20 1_555 1_555
Cu5_16 O3_20 1_555 1_555
C2_19 C3_19 1_555 1_555
C3_19 C4_19 1_555 1_555
C4_19 C5_19 1_555 1_555
C5_19 C6_19 1_555 1_555
C6_19 C7_19 1_555 1_555
C7_19 C2_19 1_555 1_555
H1_19 C3_19 1_555 1_555
H2_19 C5_19 1_555 1_555
H3_19 C7_19 1_555 1_555
C8_20 C6_19 1_555 1_555
O5_10 C8_20 1_555 1_555
O2_11 C8_20 1_555 1_555
C9_20 C4_19 1_555 1_555
O3_20 C9_20 1_555 1_555
O4_11 C9_20 1_555 1_555
Cu5_15 O2_11 1_555 1_555
Cu5_13 O4_11 1_555 1_555
O5_11 Cu5_16 1_555 1_555
O6_11 Cu5_16 1_555 1_555
O7_11 Cu5_16 1_555 1_555
Cu5_17 O3_21 1_555 1_555
C2_20 C3_20 1_555 1_555
C3_20 C4_20 1_555 1_555
C4_20 C5_20 1_555 1_555
C5_20 C6_20 1_555 1_555
C6_20 C7_20 1_555 1_555
C7_20 C2_20 1_555 1_555
H1_20 C3_20 1_555 1_555
H2_20 C5_20 1_555 1_555
H3_20 C7_20 1_555 1_555
C8_21 C6_20 1_555 1_555
O5_11 C8_21 1_555 1_555
O2_12 C8_21 1_555 1_555
C9_21 C4_20 1_555 1_555
O3_21 C9_21 1_555 1_555
O4_12 C9_21 1_555 1_555
Cu5_13 O2_12 1_555 1_555
Cu5_14 O4_12 1_555 1_555
O6_12 Cu5_17 1_555 1_555
O7_12 Cu5_17 1_555 1_555
C1_20 C10_20 1_555 1_555
C11_21 C1_20 1_555 1_555
C12_21 C11_21 1_555 1_555
N1_21 C12_21 1_555 1_555
C13_21 N1_21 1_555 1_555
N3_11 C13_21 1_555 1_555
C14_21 C11_21 1_555 1_555
H4_21 C13_21 1_555 1_555
H5_21 C12_21 1_555 1_555
H6_21 C14_21 1_555 1_555
N3_11 C14_21 1_555 1_555
Cu5_8 O3_22 1_555 1_555
C1_21 C10_21 1_555 1_555
C2_21 C3_21 1_555 1_555
C3_21 C4_21 1_555 1_555
C4_21 C5_21 1_555 1_555
C5_21 C6_21 1_555 1_555
C6_21 C7_21 1_555 1_555
C7_21 C2_21 1_555 1_555
H1_21 C3_21 1_555 1_555
H2_21 C5_21 1_555 1_555
H3_21 C7_21 1_555 1_555
C8_22 C6_21 1_555 1_555
O1_11 C8_22 1_555 1_555
O2_13 C8_22 1_555 1_555
C9_22 C4_21 1_555 1_555
O3_22 C9_22 1_555 1_555
O4_13 C9_22 1_555 1_555
C10_21 C2_21 1_555 1_555
C11_22 C1_21 1_555 1_555
C12_22 C11_22 1_555 1_555
N1_22 C12_22 1_555 1_555
C13_22 N1_22 1_555 1_555
N3_14 C13_22 1_555 1_555
C14_22 C11_22 1_555 1_555
H4_22 C13_22 1_555 1_555
H5_22 C12_22 1_555 1_555
H6_22 C14_22 1_555 1_555
Cu5_9 O1_11 1_555 1_555
Cu5_12 O2_13 1_555 1_555
Cu5_11 O4_13 1_555 1_555
O5_12 Cu5_8 1_555 1_555
O6_13 Cu5_8 1_555 1_555
O7_13 Cu5_8 1_555 1_555
N3_14 C14_22 1_555 1_555
Cu5_9 O3_23 1_555 1_555
C2_22 C3_22 1_555 1_555
C3_22 C4_22 1_555 1_555
C4_22 C5_22 1_555 1_555
C5_22 C6_22 1_555 1_555
C6_22 C7_22 1_555 1_555
C7_22 C2_22 1_555 1_555
H1_22 C3_22 1_555 1_555
H2_22 C5_22 1_555 1_555
H3_22 C7_22 1_555 1_555
C8_23 C6_22 1_555 1_555
O1_12 C8_23 1_555 1_555
O2_14 C8_23 1_555 1_555
C9_23 C4_22 1_555 1_555
O3_23 C9_23 1_555 1_555
O4_14 C9_23 1_555 1_555
Cu5_7 O1_12 1_555 1_555
Cu5_10 O2_14 1_555 1_555
Cu5_12 O4_14 1_555 1_555
O6_14 Cu5_9 1_555 1_555
O7_14 Cu5_9 1_555 1_555
C1_22 C10_22 1_555 1_555
C11_23 C1_22 1_555 1_555
C12_23 C11_23 1_555 1_555
N1_23 C12_23 1_555 1_555
C13_23 N1_23 1_555 1_555
N3_15 C13_23 1_555 1_555
C14_23 C11_23 1_555 1_555
H4_23 C13_23 1_555 1_555
H5_23 C12_23 1_555 1_555
H6_23 C14_23 1_555 1_555
N3_15 C14_23 1_555 1_555
C1_23 C10_23 1_555 1_555
C11_24 C1_23 1_555 1_555
C12_24 C11_24 1_555 1_555
N1_24 C12_24 1_555 1_555
C13_24 N1_24 1_555 1_555
N3_13 C13_24 1_555 1_555
C14_24 C11_24 1_555 1_555
H4_24 C13_24 1_555 1_555
H5_24 C12_24 1_555 1_555
H6_24 C14_24 1_555 1_555
N3_13 C14_24 1_555 1_555
Cu5_7 O3_24 1_555 1_555
C2_23 C3_23 1_555 1_555
C3_23 C4_23 1_555 1_555
C4_23 C5_23 1_555 1_555
C5_23 C6_23 1_555 1_555
C6_23 C7_23 1_555 1_555
C7_23 C2_23 1_555 1_555
H1_23 C3_23 1_555 1_555
H2_23 C5_23 1_555 1_555
H3_23 C7_23 1_555 1_555
C8_24 C6_23 1_555 1_555
O5_12 C8_24 1_555 1_555
O2_15 C8_24 1_555 1_555
C9_24 C4_23 1_555 1_555
O3_24 C9_24 1_555 1_555
O4_15 C9_24 1_555 1_555
Cu5_11 O2_15 1_555 1_555
Cu5_10 O4_15 1_555 1_555
O6_15 Cu5_7 1_555 1_555
O7_15 Cu5_7 1_555 1_555
Cu5_12 O3_25 1_555 1_555
O3_25 C9_25 1_555 1_555
O7_14 C9_25 1_555 1_555
O5_13 Cu5_12 1_555 1_555
C12_25 C11_25 1_555 1_555
N1_25 C12_25 1_555 1_555
C13_25 N1_25 1_555 1_555
N3_6 C13_25 1_555 1_555
C14_25 C11_25 1_555 1_555
H4_25 C13_25 1_555 1_555
H5_25 C12_25 1_555 1_555
H6_25 C14_25 1_555 1_555
N3_6 C14_25 1_555 1_555
O1_13 C8_25 1_555 1_555
O6_13 C8_25 1_555 1_555
Cu5_11 O1_13 1_555 1_555
C1_24 C10_24 1_555 1_555
C2_24 C3_24 1_555 1_555
C3_24 C4_24 1_555 1_555
C4_24 C5_24 1_555 1_555
C5_24 C6_24 1_555 1_555
C6_24 C7_24 1_555 1_555
C7_24 C2_24 1_555 1_555
H1_24 C3_24 1_555 1_555
H2_24 C5_24 1_555 1_555
H3_24 C7_24 1_555 1_555
C8_26 C6_24 1_555 1_555
O5_13 C8_26 1_555 1_555
O6_14 C8_26 1_555 1_555
C10_24 C2_24 1_555 1_555
C12_26 C11_26 1_555 1_555
N1_26 C12_26 1_555 1_555
C13_26 N1_26 1_555 1_555
N3_4 C13_26 1_555 1_555
C14_26 C11_26 1_555 1_555
H4_26 C13_26 1_555 1_555
H5_26 C12_26 1_555 1_555
H6_26 C14_26 1_555 1_555
N3_4 C14_26 1_555 1_555
Cu5_10 O3_26 1_555 1_555
O3_26 C9_26 1_555 1_555
O7_15 C9_26 1_555 1_555
O5_14 Cu5_10 1_555 1_555
O5_14 C8_27 1_555 1_555
O6_15 C8_27 1_555 1_555
Cu5_11 O3_27 1_555 1_555
C1_25 C10_25 1_555 1_555
C2_25 C3_25 1_555 1_555
C3_25 C4_25 1_555 1_555
C4_25 C5_25 1_555 1_555
C5_25 C6_25 1_555 1_555
C6_25 C7_25 1_555 1_555
C7_25 C2_25 1_555 1_555
H1_25 C3_25 1_555 1_555
H2_25 C5_25 1_555 1_555
H3_25 C7_25 1_555 1_555
C9_27 C4_25 1_555 1_555
O3_27 C9_27 1_555 1_555
O7_13 C9_27 1_555 1_555
C10_25 C2_25 1_555 1_555
C12_27 C11_27 1_555 1_555
N1_27 C12_27 1_555 1_555
C13_27 N1_27 1_555 1_555
N3_5 C13_27 1_555 1_555
C14_27 C11_27 1_555 1_555
H4_27 C13_27 1_555 1_555
H5_27 C12_27 1_555 1_555
H6_27 C14_27 1_555 1_555
N3_5 C14_27 1_555 1_555
Cu5_2 O3_28 1_555 1_555
C1_26 C10_26 1_555 1_555
C2_26 C3_26 1_555 1_555
C3_26 C4_26 1_555 1_555
C4_26 C5_26 1_555 1_555
C5_26 C6_26 1_555 1_555
C6_26 C7_26 1_555 1_555
C7_26 C2_26 1_555 1_555
H1_26 C3_26 1_555 1_555
H2_26 C5_26 1_555 1_555
H3_26 C7_26 1_555 1_555
C8_28 C6_26 1_555 1_555
O1_14 C8_28 1_555 1_555
O2_16 C8_28 1_555 1_555
C9_28 C4_26 1_555 1_555
O3_28 C9_28 1_555 1_555
O4_16 C9_28 1_555 1_555
C10_26 C2_26 1_555 1_555
C11_28 C1_26 1_555 1_555
N3_8 C13_28 1_555 1_555
C14_28 C11_28 1_555 1_555
H6_28 C14_28 1_555 1_555
Cu5_3 O1_14 1_555 1_555
O5_15 Cu5_2 1_555 1_555
N3_8 C14_28 1_555 1_555
N1_28 C12_28 1_555 1_555
H5_28 C12_28 1_555 1_555
Cu5_3 O3_29 1_555 1_555
C1_27 C10_27 1_555 1_555
C2_27 C3_27 1_555 1_555
C3_27 C4_27 1_555 1_555
C4_27 C5_27 1_555 1_555
C5_27 C6_27 1_555 1_555
C6_27 C7_27 1_555 1_555
C7_27 C2_27 1_555 1_555
H1_27 C3_27 1_555 1_555
H2_27 C5_27 1_555 1_555
H3_27 C7_27 1_555 1_555
C8_29 C6_27 1_555 1_555
O1_15 C8_29 1_555 1_555
O2_17 C8_29 1_555 1_555
C9_29 C4_27 1_555 1_555
O3_29 C9_29 1_555 1_555
O4_17 C9_29 1_555 1_555
C10_27 C2_27 1_555 1_555
C11_29 C1_27 1_555 1_555
C12_29 C11_29 1_555 1_555
N1_29 C12_29 1_555 1_555
C13_29 N1_29 1_555 1_555
N3_9 C13_29 1_555 1_555
C14_29 C11_29 1_555 1_555
H4_29 C13_29 1_555 1_555
H5_29 C12_29 1_555 1_555
H6_29 C14_29 1_555 1_555
Cu5 O1_15 1_555 1_555
Cu5_4 O2_17 1_555 1_555
N3_9 C14_29 1_555 1_555
N1_30 C12_30 1_555 1_555
H5_30 C12_30 1_555 1_555
Cu5 O3_30 1_555 1_555
C1_28 C10_28 1_555 1_555
C2_28 C3_28 1_555 1_555
C3_28 C4_28 1_555 1_555
C4_28 C5_28 1_555 1_555
C5_28 C6_28 1_555 1_555
C6_28 C7_28 1_555 1_555
C7_28 C2_28 1_555 1_555
H1_28 C3_28 1_555 1_555
H2_28 C5_28 1_555 1_555
H3_28 C7_28 1_555 1_555
C8_30 C6_28 1_555 1_555
O5_15 C8_30 1_555 1_555
O2_18 C8_30 1_555 1_555
C9_30 C4_28 1_555 1_555
O3_30 C9_30 1_555 1_555
O4_18 C9_30 1_555 1_555
C10_28 C2_28 1_555 1_555
C11_30 C1_28 1_555 1_555
N3_7 C13_30 1_555 1_555
C14_30 C11_30 1_555 1_555
H6_30 C14_30 1_555 1_555
Cu5_4 O4_18 1_555 1_555
O6_18 Cu5 1_555 1_555
O7_18 Cu5 1_555 1_555
N3_7 C14_30 1_555 1_555
Cu5_6 O3_31 1_555 1_555
C1_29 C10_29 1_555 1_555
C2_29 C3_29 1_555 1_555
C3_29 C4_29 1_555 1_555
C4_29 C5_29 1_555 1_555
C5_29 C6_29 1_555 1_555
C6_29 C7_29 1_555 1_555
C7_29 C2_29 1_555 1_555
H1_29 C3_29 1_555 1_555
H2_29 C5_29 1_555 1_555
H3_29 C7_29 1_555 1_555
C8_31 C6_29 1_555 1_555
O1_16 C8_31 1_555 1_555
O6_16 C8_31 1_555 1_555
C9_31 C4_29 1_555 1_555
O3_31 C9_31 1_555 1_555
O7_17 C9_31 1_555 1_555
C10_29 C2_29 1_555 1_555
C11_31 C1_29 1_555 1_555
N3_18 C13_31 1_555 1_555
C14_31 C11_31 1_555 1_555
H6_31 C14_31 1_555 1_555
Cu5_5 O1_16 1_555 1_555
O5_16 Cu5_6 1_555 1_555
N3_18 C14_31 1_555 1_555
N1_31 C12_31 1_555 1_555
H5_31 C12_31 1_555 1_555
N1_32 C12_32 1_555 1_555
H5_32 C12_32 1_555 1_555
Cu5_4 O3_32 1_555 1_555
C1_30 C10_30 1_555 1_555
C2_30 C3_30 1_555 1_555
C3_30 C4_30 1_555 1_555
C4_30 C5_30 1_555 1_555
C5_30 C6_30 1_555 1_555
C6_30 C7_30 1_555 1_555
C7_30 C2_30 1_555 1_555
H1_30 C3_30 1_555 1_555
H2_30 C5_30 1_555 1_555
H3_30 C7_30 1_555 1_555
C8_32 C6_30 1_555 1_555
O5_16 C8_32 1_555 1_555
O6_17 C8_32 1_555 1_555
C9_32 C4_30 1_555 1_555
O3_32 C9_32 1_555 1_555
O7_18 C9_32 1_555 1_555
C10_30 C2_30 1_555 1_555
C11_32 C1_30 1_555 1_555
N3_16 C13_32 1_555 1_555
C14_32 C11_32 1_555 1_555
H6_32 C14_32 1_555 1_555
O5_17 Cu5_4 1_555 1_555
N3_16 C14_32 1_555 1_555
Cu5_5 O3_33 1_555 1_555
C1_31 C10_31 1_555 1_555
C2_31 C3_31 1_555 1_555
C3_31 C4_31 1_555 1_555
C4_31 C5_31 1_555 1_555
C5_31 C6_31 1_555 1_555
C6_31 C7_31 1_555 1_555
C7_31 C2_31 1_555 1_555
H1_31 C3_31 1_555 1_555
H2_31 C5_31 1_555 1_555
H3_31 C7_31 1_555 1_555
C8_33 C6_31 1_555 1_555
O5_17 C8_33 1_555 1_555
O6_18 C8_33 1_555 1_555
C9_33 C4_31 1_555 1_555
O3_33 C9_33 1_555 1_555
O7_16 C9_33 1_555 1_555
C10_31 C2_31 1_555 1_555
C11_33 C1_31 1_555 1_555
C12_33 C11_33 1_555 1_555
N1_33 C12_33 1_555 1_555
C13_33 N1_33 1_555 1_555
N3_17 C13_33 1_555 1_555
C14_33 C11_33 1_555 1_555
H4_33 C13_33 1_555 1_555
H5_33 C12_33 1_555 1_555
H6_33 C14_33 1_555 1_555
N3_17 C14_33 1_555 1_555
Cu5_14 O3_34 1_555 1_555
O3_34 C9_34 1_555 1_555
O7_12 C9_34 1_555 1_555
O5_18 Cu5_14 1_555 1_555
C1_32 C10_32 1_555 1_555
C2_32 C3_32 1_555 1_555
C3_32 C4_32 1_555 1_555
C4_32 C5_32 1_555 1_555
C5_32 C6_32 1_555 1_555
C6_32 C7_32 1_555 1_555
C7_32 C2_32 1_555 1_555
H1_32 C3_32 1_555 1_555
H2_32 C5_32 1_555 1_555
H3_32 C7_32 1_555 1_555
C10_32 C2_32 1_555 1_555
C11_34 C1_32 1_555 1_555
C12_34 C11_34 1_555 1_555
N1_34 C12_34 1_555 1_555
C13_34 N1_34 1_555 1_555
N3_2 C13_34 1_555 1_555
C14_34 C11_34 1_555 1_555
H4_34 C13_34 1_555 1_555
H5_34 C12_34 1_555 1_555
H6_34 C14_34 1_555 1_555
N3_2 C14_34 1_555 1_555
O1_17 C8_34 1_555 1_555
O6_10 C8_34 1_555 1_555
Cu5_15 O1_17 1_555 1_555
O1_18 C8_35 1_555 1_555
O6_11 C8_35 1_555 1_555
Cu5_13 O1_18 1_555 1_555
Cu5_15 O3_35 1_555 1_555
C1_33 C10_33 1_555 1_555
C2_33 C3_33 1_555 1_555
C3_33 C4_33 1_555 1_555
C4_33 C5_33 1_555 1_555
C5_33 C6_33 1_555 1_555
C6_33 C7_33 1_555 1_555
C7_33 C2_33 1_555 1_555
H1_33 C3_33 1_555 1_555
H2_33 C5_33 1_555 1_555
H3_33 C7_33 1_555 1_555
C9_35 C4_33 1_555 1_555
O3_35 C9_35 1_555 1_555
O7_10 C9_35 1_555 1_555
C10_33 C2_33 1_555 1_555
C11_35 C1_33 1_555 1_555
C12_35 C11_35 1_555 1_555
N1_35 C12_35 1_555 1_555
C13_35 N1_35 1_555 1_555
N3_3 C13_35 1_555 1_555
C14_35 C11_35 1_555 1_555
H4_35 C13_35 1_555 1_555
H5_35 C12_35 1_555 1_555
H6_35 C14_35 1_555 1_555
N3_3 C14_35 1_555 1_555
C1_34 C10_34 1_555 1_555
C2_34 C3_34 1_555 1_555
C3_34 C4_34 1_555 1_555
C4_34 C5_34 1_555 1_555
C5_34 C6_34 1_555 1_555
C6_34 C7_34 1_555 1_555
C7_34 C2_34 1_555 1_555
H1_34 C3_34 1_555 1_555
H2_34 C5_34 1_555 1_555
H3_34 C7_34 1_555 1_555
C8_36 C6_34 1_555 1_555
O5_18 C8_36 1_555 1_555
O6_12 C8_36 1_555 1_555
C10_34 C2_34 1_555 1_555
C11_36 C1_34 1_555 1_555
C12_36 C11_36 1_555 1_555
N1_36 C12_36 1_555 1_555
C13_36 N1_36 1_555 1_555
N3 C13_36 1_555 1_555
C14_36 C11_36 1_555 1_555
H4_36 C13_36 1_555 1_555
H5_36 C12_36 1_555 1_555
H6_36 C14_36 1_555 1_555
N3 C14_36 1_555 1_555
Cu5_13 O3_36 1_555 1_555
O3_36 C9_36 1_555 1_555
O7_11 C9_36 1_555 1_555
C1_35 C10_35 1_555 1_555
C2_35 C3_35 1_555 1_555
C3_35 C4_35 1_555 1_555
C4_35 C5_35 1_555 1_555
C5_35 C6_35 1_555 1_555
C6_35 C7_35 1_555 1_555
C7_35 C2_35 1_555 1_555
H1_35 C3_35 1_555 1_555
H2_35 C5_35 1_555 1_555
H3_35 C7_35 1_555 1_555
C10_35 C2_35 1_555 1_555
C1_36 C10_36 1_555 1_555
C2_36 C3_36 1_555 1_555
C3_36 C4_36 1_555 1_555
C4_36 C5_36 1_555 1_555
C5_36 C6_36 1_555 1_555
C6_36 C7_36 1_555 1_555
C7_36 C2_36 1_555 1_555
H1_36 C3_36 1_555 1_555
H2_36 C5_36 1_555 1_555
H3_36 C7_36 1_555 1_555
C10_36 C2_36 1_555 1_555

#END
