
###############################################################################
#
# This file contains modified crystal structure data generated from the
# MOF subset of the Cambridge Structural Database (CSD) v543 
# hosted by the Cambridge Crystallographic Data Centre (CCDC).
#
# This work is licensed under the Creative Commons
# Attribution-NonCommercial-ShareAlike 4.0 International License.
# To view a copy of this license, visit
# http://creativecommons.org/licenses/by-nc-sa/4.0/
# or send a letter to
# Creative Commons, PO Box 1866, Mountain View, CA 94042, USA.
#
# CIF created using the CSD Python API on 29 September 2022
# The structure has been converted into the P1 space group
# The structure has a 3D framework
# The original CSD entry YIMQAP is in the rhombohedral crystal system
# The framework has been calculated to contain at least 10.0% void space
# The void calculation uses a probe of radius 1.32A, grid spacing 0.4
#
###############################################################################

data_YIMQAP
_chemical_formula_moiety         '(C504 H216 Cu36 N72 O144)n'
_symmetry_cell_setting           triclinic
_symmetry_space_group_name_H-M   'P 1'
_symmetry_Int_Tables_number      1
_space_group_name_Hall           'P 1'
loop_
_symmetry_equiv_pos_site_id
_symmetry_equiv_pos_as_xyz
1 x,y,z
_cell_length_a                   17.98770(10)
_cell_length_b                   17.98770(10)
_cell_length_c                   72.1623(4)
_cell_angle_alpha                90
_cell_angle_beta                 90
_cell_angle_gamma                120
_cell_volume                     20220.5
loop_
_atom_site_label
_atom_site_type_symbol
_atom_site_fract_x
_atom_site_fract_y
_atom_site_fract_z
Cu1 Cu 0.21207(2) 0.38769(2) 0.56914(2)
N1 N 0.59875(6) 0.46038(6) 0.71184(2)
C1 C 0.67118(7) 0.45606(7) 0.71178(2)
H1 H 0.693420 0.452809 0.723503
N2 N 0.71473(7) 0.45588(7) 0.69693(2)
C2 C 0.68380(8) 0.46216(8) 0.68055(2)
H2 H 0.713140 0.462150 0.669609
C3 C 0.60997(7) 0.46875(7) 0.67890(2)
C4 C 0.56945(7) 0.46740(7) 0.69541(2)
H3 H 0.518928 0.471656 0.694923
C5 C 0.57836(8) 0.48057(8) 0.66162(2)
C6 C 0.55008(8) 0.49522(8) 0.64797(2)
C7 C 0.51891(8) 0.51799(7) 0.63179(2)
C8 C 0.56758(8) 0.60052(8) 0.62432(2)
H4 H 0.620774 0.640527 0.629818
C9 C 0.53781(7) 0.62381(7) 0.60880(2)
C10 C 0.46006(7) 0.56486(6) 0.60072(2)
H5 H 0.440273 0.580476 0.590008
C11 C 0.41139(7) 0.48349(7) 0.60822(2)
C12 C 0.44014(7) 0.45966(7) 0.62384(2)
H6 H 0.406354 0.404067 0.629043
C13 C 0.32713(7) 0.42405(6) 0.59923(2)
O1 O 0.31652(5) 0.44609(5) 0.58326(2)
O2 O 0.27407(5) 0.35852(5) 0.60793(2)
C14 C 0.58750(7) 0.71103(7) 0.60041(2)
O3 O 0.56101(5) 0.72175(5) 0.58506(2)
O4 O 0.65206(5) 0.76675(5) 0.60908(2)
Cu2 Cu 0.61231(2) 0.82438(3) 0.56914(2)
Cu3 Cu 0.72102(2) 0.87874(2) 0.59753(2)
Cu4 Cu 0.15771(3) 0.27898(2) 0.59753(2)
Cu5 Cu 0.54540(2) 0.49105(3) 0.73581(2)
N3 N 0.26542(6) 0.47170(8) 0.54517(2)
O5 O 0.24888(7) 0.30815(5) 0.55874(2)
O6 O 0.16074(7) 0.43899(5) 0.58506(2)
O7 O 0.10008(5) 0.31873(5) 0.55759(2)
N1_2 N 0.53962(6) 0.13837(8) 0.71184(2)
C1_2 C 0.54394(7) 0.21512(10) 0.71178(2)
H1_2 H 0.547191 0.240611 0.723503
N2_2 N 0.54412(7) 0.25885(10) 0.69693(2)
C2_2 C 0.53784(8) 0.22164(11) 0.68055(2)
H2_2 H 0.537850 0.250990 0.669609
C3_2 C 0.53125(7) 0.14122(10) 0.67890(2)
C4_2 C 0.53260(7) 0.10205(10) 0.69541(2)
H3_2 H 0.528344 0.047272 0.694923
C5_2 C 0.51943(8) 0.09779(11) 0.66162(2)
C6_2 C 0.50478(8) 0.05486(11) 0.64797(2)
C7_2 C 0.48201(7) 0.00092(11) 0.63179(2)
H6_2 H 0.595933 0.002287 0.629043
Cu5_2 Cu 0.50895(3) 0.05436(4) 0.73581(2)
C8_2 C 0.39948(8) 0.96706(11) 0.62432(2)
H4_2 H 0.359473 0.980247 0.629818
C9_2 C 0.37619(7) 0.91400(10) 0.60880(2)
C10_2 C 0.43514(6) 0.89520(9) 0.60072(2)
H5_2 H 0.419524 0.859797 0.590008
C11_2 C 0.51651(7) 0.92790(10) 0.60822(2)
C12_2 C 0.54034(7) 0.98048(10) 0.62384(2)
C13_2 C 0.57595(6) 0.90308(9) 0.59923(2)
O1_2 O 0.55391(5) 0.87043(7) 0.58326(2)
O2_2 O 0.64148(5) 0.91555(7) 0.60793(2)
C14_2 C 0.28897(7) 0.87647(10) 0.60041(2)
O3_2 O 0.27825(5) 0.83926(7) 0.58506(2)
O4_2 O 0.23325(5) 0.88531(7) 0.60908(2)
Cu2_2 Cu 0.17562(3) 0.78793(4) 0.56914(2)
Cu3_2 Cu 0.12126(2) 0.84229(3) 0.59753(2)
N3_2 N 0.52830(8) 0.79371(10) 0.54517(2)
O5_2 O 0.69185(5) 0.94074(9) 0.55874(2)
O7_2 O 0.68127(5) 0.78136(7) 0.55759(2)
C8_3 C 0.03294(11) 0.43242(8) 0.62432(2)
H4_3 H 0.019753 0.379226 0.629818
C9_3 C 0.08600(10) 0.46219(7) 0.60880(2)
C10_3 C 0.10480(9) 0.53994(7) 0.60072(2)
H5_3 H 0.140203 0.559727 0.590008
C11_3 C 0.07210(10) 0.58861(7) 0.60822(2)
C12_3 C 0.01952(10) 0.55986(7) 0.62384(2)
C13_3 C 0.09692(9) 0.67287(7) 0.59923(2)
O1_3 O 0.12957(7) 0.68348(5) 0.58326(2)
O2_3 O 0.08445(7) 0.72593(5) 0.60793(2)
C14_3 C 0.12353(10) 0.41250(7) 0.60041(2)
O4_3 O 0.11469(7) 0.34794(5) 0.60908(2)
N3_3 N 0.20629(10) 0.73458(6) 0.54517(2)
O5_3 O 0.05926(9) 0.75112(7) 0.55874(2)
O7_3 O 0.21864(7) 0.89992(5) 0.55759(2)
N1_3 N 0.86163(8) 0.40125(6) 0.71184(2)
C1_3 C 0.78488(10) 0.32882(7) 0.71178(2)
H1_3 H 0.759389 0.306580 0.723503
N2_3 N 0.74115(10) 0.28527(7) 0.69693(2)
C2_3 C 0.77836(11) 0.31620(8) 0.68055(2)
H2_3 H 0.749010 0.286860 0.669609
C3_3 C 0.85878(10) 0.39003(7) 0.67890(2)
C4_3 C 0.89795(10) 0.43055(7) 0.69541(2)
H3_3 H 0.952728 0.481072 0.694923
C5_3 C 0.90221(11) 0.42164(8) 0.66162(2)
C6_3 C 0.94514(11) 0.44992(8) 0.64797(2)
C7_3 C 0.99908(11) 0.48109(8) 0.63179(2)
H6_3 H 0.997713 0.593646 0.629043
Cu5_3 Cu 0.94564(4) 0.45460(2) 0.73581(2)
Cu1_2 Cu 0.38769(2) 0.21207(2) 0.93086(2)
N1_4 N 0.46038(6) 0.59875(6) 0.78816(2)
C1_4 C 0.45606(7) 0.67118(7) 0.78822(2)
H1_4 H 0.452809 0.693420 0.776497
N2_4 N 0.45588(7) 0.71473(7) 0.80307(2)
C2_4 C 0.46216(8) 0.68380(8) 0.81945(2)
H2_4 H 0.462150 0.713140 0.830391
C3_4 C 0.46875(7) 0.60997(7) 0.82110(2)
C4_4 C 0.46740(7) 0.56945(7) 0.80459(2)
H3_4 H 0.471656 0.518928 0.805077
C5_4 C 0.48057(8) 0.57836(8) 0.83838(2)
C6_4 C 0.49522(8) 0.55008(8) 0.85203(2)
C7_4 C 0.51799(7) 0.51891(8) 0.86821(2)
C8_4 C 0.60052(8) 0.56758(8) 0.87568(2)
H4_4 H 0.640527 0.620774 0.870182
C9_4 C 0.62381(7) 0.53781(7) 0.89120(2)
C10_4 C 0.56486(6) 0.46006(7) 0.89928(2)
H5_4 H 0.580476 0.440273 0.909992
C11_4 C 0.48349(7) 0.41139(7) 0.89178(2)
C12_4 C 0.45966(7) 0.44014(7) 0.87616(2)
H6_4 H 0.404067 0.406354 0.870957
C13_4 C 0.42405(6) 0.32713(7) 0.90077(2)
O1_4 O 0.44609(5) 0.31652(5) 0.91674(2)
O2_4 O 0.35852(5) 0.27407(5) 0.89207(2)
C14_4 C 0.71103(7) 0.58750(7) 0.89959(2)
O3_3 O 0.72175(5) 0.56101(5) 0.91494(2)
O4_4 O 0.76675(5) 0.65206(5) 0.89092(2)
Cu2_3 Cu 0.82438(3) 0.61231(2) 0.93086(2)
Cu3_3 Cu 0.87874(2) 0.72102(2) 0.90247(2)
Cu4_2 Cu 0.27898(2) 0.15771(3) 0.90247(2)
Cu5_4 Cu 0.49105(3) 0.54540(2) 0.76419(2)
N3_4 N 0.47170(8) 0.26542(6) 0.95483(2)
O5_4 O 0.30815(5) 0.24888(7) 0.94126(2)
O6_2 O 0.43899(5) 0.16074(7) 0.91494(2)
O7_4 O 0.31873(5) 0.10008(5) 0.94241(2)
N1_5 N 0.13837(8) 0.53962(6) 0.78816(2)
C1_5 C 0.21512(10) 0.54394(7) 0.78822(2)
H1_5 H 0.240611 0.547191 0.776497
N2_5 N 0.25885(10) 0.54412(7) 0.80307(2)
C2_5 C 0.22164(11) 0.53784(8) 0.81945(2)
H2_5 H 0.250990 0.537850 0.830391
C3_5 C 0.14122(10) 0.53125(7) 0.82110(2)
C4_5 C 0.10205(10) 0.53260(7) 0.80459(2)
H3_5 H 0.047272 0.528344 0.805077
C5_5 C 0.09779(11) 0.51943(8) 0.83838(2)
C6_5 C 0.05486(11) 0.50478(8) 0.85203(2)
C7_5 C 0.00092(11) 0.48201(7) 0.86821(2)
H6_5 H 0.002287 0.595933 0.870957
Cu5_5 Cu 0.05436(4) 0.50895(3) 0.76419(2)
C8_5 C 0.96706(11) 0.39948(8) 0.87568(2)
H4_5 H 0.980247 0.359473 0.870182
C9_5 C 0.91400(10) 0.37619(7) 0.89120(2)
C10_5 C 0.89520(9) 0.43514(6) 0.89928(2)
H5_5 H 0.859797 0.419524 0.909992
C11_5 C 0.92790(10) 0.51651(7) 0.89178(2)
C12_5 C 0.98048(10) 0.54034(7) 0.87616(2)
C13_5 C 0.90308(9) 0.57595(6) 0.90077(2)
O1_5 O 0.87043(7) 0.55391(5) 0.91674(2)
O2_5 O 0.91555(7) 0.64148(5) 0.89207(2)
C14_5 C 0.87647(10) 0.28897(7) 0.89959(2)
O3_4 O 0.83926(7) 0.27825(5) 0.91494(2)
O4_5 O 0.88531(7) 0.23325(5) 0.89092(2)
Cu2_4 Cu 0.78793(4) 0.17562(3) 0.93086(2)
Cu3_4 Cu 0.84229(3) 0.12126(2) 0.90247(2)
N3_5 N 0.79371(10) 0.52830(8) 0.95483(2)
O5_5 O 0.94074(9) 0.69185(5) 0.94126(2)
O7_5 O 0.78136(7) 0.68127(5) 0.94241(2)
C8_6 C 0.43242(8) 0.03294(11) 0.87568(2)
H4_6 H 0.379226 0.019753 0.870182
C9_6 C 0.46219(7) 0.08600(10) 0.89120(2)
C10_6 C 0.53994(7) 0.10480(9) 0.89928(2)
H5_6 H 0.559727 0.140203 0.909992
C11_6 C 0.58861(7) 0.07210(10) 0.89178(2)
C12_6 C 0.55986(7) 0.01952(10) 0.87616(2)
C13_6 C 0.67287(7) 0.09692(9) 0.90077(2)
O1_6 O 0.68348(5) 0.12957(7) 0.91674(2)
O2_6 O 0.72593(5) 0.08445(7) 0.89207(2)
C14_6 C 0.41250(7) 0.12353(10) 0.89959(2)
O4_6 O 0.34794(5) 0.11469(7) 0.89092(2)
N3_6 N 0.73458(6) 0.20629(10) 0.95483(2)
O5_6 O 0.75112(7) 0.05926(9) 0.94126(2)
O7_6 O 0.89992(5) 0.21864(7) 0.94241(2)
N1_6 N 0.40125(6) 0.86163(8) 0.78816(2)
C1_6 C 0.32882(7) 0.78488(10) 0.78822(2)
H1_6 H 0.306580 0.759389 0.776497
N2_6 N 0.28527(7) 0.74115(10) 0.80307(2)
C2_6 C 0.31620(8) 0.77836(11) 0.81945(2)
H2_6 H 0.286860 0.749010 0.830391
C3_6 C 0.39003(7) 0.85878(10) 0.82110(2)
C4_6 C 0.43055(7) 0.89795(10) 0.80459(2)
H3_6 H 0.481072 0.952728 0.805077
C5_6 C 0.42164(8) 0.90221(11) 0.83838(2)
C6_6 C 0.44992(8) 0.94514(11) 0.85203(2)
C7_6 C 0.48109(8) 0.99908(11) 0.86821(2)
H6_6 H 0.593646 0.997713 0.870957
Cu5_6 Cu 0.45460(2) 0.94564(4) 0.76419(2)
C14_7 C 0.25417(7) 0.04436(7) 0.93374(2)
O3_5 O 0.22768(5) 0.05508(5) 0.91839(2)
N1_7 N 0.26542(6) 0.79371(6) 0.04517(2)
C1_7 C 0.33785(7) 0.78939(7) 0.04511(2)
H1_7 H 0.360087 0.786142 0.056836
N2_7 N 0.38140(7) 0.78921(7) 0.03026(2)
C2_7 C 0.35047(8) 0.79549(8) 0.01388(2)
H2_7 H 0.379807 0.795483 0.002942
C3_7 C 0.27664(7) 0.80208(7) 0.01223(2)
C4_7 C 0.23612(7) 0.80073(7) 0.02874(2)
H3_7 H 0.185595 0.804989 0.028256
Cu5_7 Cu 0.21207(2) 0.82438(3) 0.06914(2)
C13_7 C 0.99380(7) 0.75738(6) 0.93256(2)
O1_7 O 0.98319(5) 0.77942(5) 0.91659(2)
N3_7 N 0.93208(6) 0.80504(8) 0.87851(2)
O6_3 O 0.82741(7) 0.77232(5) 0.91839(2)
N1_8 N 0.20629(6) 0.47170(8) 0.04517(2)
C1_8 C 0.21061(7) 0.54845(10) 0.04511(2)
H1_8 H 0.213858 0.573944 0.056836
N2_8 N 0.21079(7) 0.59218(10) 0.03026(2)
C2_8 C 0.20451(8) 0.55497(11) 0.01388(2)
H2_8 H 0.204517 0.584323 0.002942
C3_8 C 0.19792(7) 0.47455(10) 0.01223(2)
C4_8 C 0.19927(7) 0.43538(10) 0.02874(2)
H3_8 H 0.195011 0.380605 0.028256
Cu5_8 Cu 0.17562(3) 0.38769(4) 0.06914(2)
C5_7 C 0.18610(8) 0.43112(11) 0.99495(2)
C6_7 C 0.17145(8) 0.38819(11) 0.98130(2)
C7_7 C 0.14868(7) 0.33425(11) 0.96512(2)
C8_7 C 0.06615(8) 0.30039(11) 0.95765(2)
H4_7 H 0.026140 0.313580 0.963151
C9_7 C 0.04286(7) 0.24733(10) 0.94213(2)
C10_7 C 0.10181(6) 0.22853(9) 0.93405(2)
H5_7 H 0.086191 0.193130 0.923341
C11_7 C 0.18318(7) 0.26123(10) 0.94155(2)
C12_7 C 0.20701(7) 0.31381(10) 0.95717(2)
H6_7 H 0.262600 0.335620 0.962376
C13_8 C 0.24262(6) 0.23641(9) 0.93256(2)
O1_8 O 0.22058(5) 0.20376(7) 0.91659(2)
N3_8 N 0.19496(8) 0.12705(10) 0.87851(2)
C14_8 C 0.95564(7) 0.20980(10) 0.93374(2)
O3_6 O 0.94492(5) 0.17259(7) 0.91839(2)
C13_9 C 0.76359(9) 0.00620(7) 0.93256(2)
O1_9 O 0.79624(7) 0.01681(5) 0.91659(2)
N3_9 N 0.87295(10) 0.06792(6) 0.87851(2)
N1_9 N 0.52830(8) 0.73458(6) 0.04517(2)
C1_9 C 0.45155(10) 0.66215(7) 0.04511(2)
H1_9 H 0.426056 0.639913 0.056836
N2_9 N 0.40782(10) 0.61860(7) 0.03026(2)
C2_9 C 0.44503(11) 0.64953(8) 0.01388(2)
H2_9 H 0.415677 0.620193 0.002942
C3_9 C 0.52545(10) 0.72336(7) 0.01223(2)
C4_9 C 0.56462(10) 0.76388(7) 0.02874(2)
H3_9 H 0.619395 0.814405 0.028256
Cu5_9 Cu 0.61231(4) 0.78793(2) 0.06914(2)
C5_8 C 0.56888(11) 0.75497(8) 0.99495(2)
C6_8 C 0.61181(11) 0.78325(8) 0.98130(2)
C7_8 C 0.66575(11) 0.81442(8) 0.96512(2)
C8_8 C 0.69961(11) 0.76575(8) 0.95765(2)
H4_8 H 0.686420 0.712559 0.963151
C9_8 C 0.75267(10) 0.79552(7) 0.94213(2)
C10_8 C 0.77147(9) 0.87327(7) 0.93405(2)
H5_8 H 0.806870 0.893060 0.923341
C11_8 C 0.73877(10) 0.92194(7) 0.94155(2)
C12_8 C 0.68619(10) 0.89319(7) 0.95717(2)
H6_8 H 0.664380 0.926979 0.962376
C14_9 C 0.79020(10) 0.74583(7) 0.93374(2)
C1_10 C 0.12273(7) 0.00451(7) 0.12155(2)
H1_10 H 0.119476 0.026753 0.109830
N2_10 N 0.12255(7) 0.04806(7) 0.13640(2)
C2_10 C 0.12883(8) 0.01713(8) 0.15278(2)
H2_10 H 0.128817 0.046473 0.163724
Cu3_5 Cu 0.54540(2) 0.05436(2) 0.23581(2)
Cu1_3 Cu 0.05436(2) 0.54540(2) 0.26419(2)
N1_10 N 0.12705(6) 0.93208(6) 0.12149(2)
C3_10 C 0.13542(7) 0.94330(7) 0.15443(2)
C4_10 C 0.13407(7) 0.90278(7) 0.13792(2)
H3_10 H 0.138323 0.852261 0.138410
C5_9 C 0.14724(8) 0.91169(8) 0.17171(2)
C6_9 C 0.16189(8) 0.88341(8) 0.18536(2)
C7_9 C 0.18466(7) 0.85224(8) 0.20154(2)
C8_9 C 0.26719(8) 0.90091(8) 0.20901(2)
H4_9 H 0.307194 0.954107 0.203515
C9_9 C 0.29048(7) 0.87114(7) 0.22453(2)
C10_9 C 0.23153(6) 0.79339(7) 0.23261(2)
H5_9 H 0.247143 0.773606 0.243325
C11_9 C 0.15016(7) 0.74472(7) 0.22511(2)
C12_9 C 0.12633(7) 0.77347(7) 0.20949(2)
H6_9 H 0.070734 0.739687 0.204290
C13_10 C 0.09072(6) 0.66046(7) 0.23410(2)
O1_10 O 0.11276(5) 0.64985(5) 0.25007(2)
O2_7 O 0.02519(5) 0.60740(5) 0.22540(2)
C14_10 C 0.37770(7) 0.92083(7) 0.23292(2)
O3_7 O 0.38842(5) 0.89434(5) 0.24827(2)
O4_7 O 0.43342(5) 0.98539(5) 0.22425(2)
Cu2_5 Cu 0.49105(3) 0.94564(2) 0.26419(2)
Cu5_10 Cu 0.15771(3) 0.87874(2) 0.09753(2)
N3_10 N 0.13837(8) 0.59875(6) 0.28816(2)
O6_4 O 0.10566(5) 0.49407(7) 0.24827(2)
Cu4_3 Cu 0.94564(2) 0.49105(3) 0.23581(2)
O5_7 O 0.97481(5) 0.58222(7) 0.27460(2)
O7_7 O 0.98539(5) 0.43342(5) 0.27575(2)
O5_8 O 0.60740(9) 0.02519(5) 0.27460(2)
O7_8 O 0.44802(7) 0.01461(5) 0.27575(2)
N1_11 N 0.80504(8) 0.87295(6) 0.12149(2)
C1_11 C 0.88179(10) 0.87727(7) 0.12155(2)
H1_11 H 0.907278 0.880524 0.109830
N2_11 N 0.92552(10) 0.87745(7) 0.13640(2)
C2_11 C 0.88831(11) 0.87117(8) 0.15278(2)
H2_11 H 0.917657 0.871183 0.163724
C3_11 C 0.80789(10) 0.86458(7) 0.15443(2)
C4_11 C 0.76872(10) 0.86593(7) 0.13792(2)
H3_11 H 0.713939 0.861677 0.138410
C5_10 C 0.76446(11) 0.85276(8) 0.17171(2)
C6_10 C 0.72153(11) 0.83811(8) 0.18536(2)
C7_10 C 0.66759(11) 0.81534(7) 0.20154(2)
C8_10 C 0.63373(11) 0.73281(8) 0.20901(2)
H4_10 H 0.646914 0.692806 0.203515
C9_10 C 0.58067(10) 0.70952(7) 0.22453(2)
C10_10 C 0.56187(9) 0.76847(6) 0.23261(2)
H5_10 H 0.526464 0.752857 0.243325
C11_10 C 0.59457(10) 0.84984(7) 0.22511(2)
C12_10 C 0.64715(10) 0.87367(7) 0.20949(2)
H6_10 H 0.668954 0.929266 0.204290
C13_11 C 0.56975(9) 0.90928(6) 0.23410(2)
O1_11 O 0.53710(7) 0.88724(5) 0.25007(2)
O2_8 O 0.58222(7) 0.97481(5) 0.22540(2)
C14_11 C 0.54314(10) 0.62230(7) 0.23292(2)
O3_8 O 0.50593(7) 0.61158(5) 0.24827(2)
O4_8 O 0.55198(7) 0.56658(5) 0.22425(2)
Cu2_6 Cu 0.45460(4) 0.50895(3) 0.26419(2)
Cu3_6 Cu 0.50895(3) 0.45460(2) 0.23581(2)
Cu5_11 Cu 0.72102(4) 0.84229(3) 0.09753(2)
N3_11 N 0.46038(10) 0.86163(8) 0.28816(2)
N1_12 N 0.06792(6) 0.19496(8) 0.12149(2)
C3_12 C 0.05670(7) 0.19211(10) 0.15443(2)
C4_12 C 0.09722(7) 0.23128(10) 0.13792(2)
H3_12 H 0.147739 0.286061 0.138410
C5_11 C 0.08831(8) 0.23554(11) 0.17171(2)
C6_11 C 0.11659(8) 0.27847(11) 0.18536(2)
C7_11 C 0.14776(8) 0.33241(11) 0.20154(2)
C8_11 C 0.09909(8) 0.36627(11) 0.20901(2)
H4_11 H 0.045893 0.353086 0.203515
C9_11 C 0.12886(7) 0.41933(10) 0.22453(2)
C10_11 C 0.20661(7) 0.43813(9) 0.23261(2)
H5_11 H 0.226394 0.473536 0.243325
C11_11 C 0.25528(7) 0.40543(10) 0.22511(2)
C12_11 C 0.22653(7) 0.35285(10) 0.20949(2)
H6_11 H 0.260313 0.331046 0.204290
C13_12 C 0.33954(7) 0.43025(9) 0.23410(2)
O1_12 O 0.35015(5) 0.46290(7) 0.25007(2)
O2_9 O 0.39260(5) 0.41778(7) 0.22540(2)
C14_12 C 0.07917(7) 0.45686(10) 0.23292(2)
O4_9 O 0.01461(5) 0.44802(7) 0.22425(2)
Cu5_12 Cu 0.12126(2) 0.27898(4) 0.09753(2)
N3_12 N 0.40125(6) 0.53962(10) 0.28816(2)
O5_9 O 0.41778(7) 0.39260(9) 0.27460(2)
O7_9 O 0.56658(5) 0.55198(7) 0.27575(2)
C1_12 C 0.99549(7) 0.11821(10) 0.12155(2)
H1_12 H 0.973247 0.092722 0.109830
N2_12 N 0.95194(7) 0.07448(10) 0.13640(2)
C2_12 C 0.98287(8) 0.11169(11) 0.15278(2)
H2_12 H 0.953527 0.082343 0.163724
C1_13 C 0.00451(7) 0.12273(7) 0.37845(2)
H1_13 H 0.026753 0.119476 0.390170
N2_13 N 0.04806(7) 0.12255(7) 0.36360(2)
C2_13 C 0.01713(8) 0.12883(8) 0.34722(2)
H2_13 H 0.046473 0.128817 0.336276
N1_13 N 0.93208(6) 0.12705(6) 0.37851(2)
C3_13 C 0.94330(7) 0.13542(7) 0.34557(2)
C4_13 C 0.90278(7) 0.13407(7) 0.36208(2)
H3_13 H 0.852261 0.138323 0.361590
C5_12 C 0.91169(8) 0.14724(8) 0.32829(2)
C6_12 C 0.88341(8) 0.16189(8) 0.31464(2)
C7_12 C 0.85224(8) 0.18466(7) 0.29846(2)
C8_12 C 0.90091(8) 0.26719(8) 0.29099(2)
H4_12 H 0.954107 0.307194 0.296485
C9_12 C 0.87114(7) 0.29048(7) 0.27547(2)
C10_12 C 0.79339(7) 0.23153(6) 0.26739(2)
H5_12 H 0.773606 0.247143 0.256675
C11_12 C 0.74472(7) 0.15016(7) 0.27489(2)
C12_12 C 0.77347(7) 0.12633(7) 0.29051(2)
H6_12 H 0.739687 0.070734 0.295710
C13_13 C 0.66046(7) 0.09072(6) 0.26590(2)
O1_13 O 0.64985(5) 0.11276(5) 0.24993(2)
C14_13 C 0.92083(7) 0.37770(7) 0.26708(2)
O3_9 O 0.89434(5) 0.38842(5) 0.25173(2)
Cu5_13 Cu 0.87874(2) 0.15771(3) 0.40247(2)
N3_13 N 0.59875(6) 0.13837(8) 0.21184(2)
O6_5 O 0.49407(7) 0.10566(5) 0.25173(2)
N1_14 N 0.87295(6) 0.80504(8) 0.37851(2)
C1_14 C 0.87727(7) 0.88179(10) 0.37845(2)
H1_14 H 0.880524 0.907278 0.390170
N2_14 N 0.87745(7) 0.92552(10) 0.36360(2)
C2_14 C 0.87117(8) 0.88831(11) 0.34722(2)
H2_14 H 0.871183 0.917657 0.336276
C3_14 C 0.86458(7) 0.80789(10) 0.34557(2)
C4_14 C 0.86593(7) 0.76872(10) 0.36208(2)
H3_14 H 0.861677 0.713939 0.361590
C5_13 C 0.85276(8) 0.76446(11) 0.32829(2)
C6_13 C 0.83811(8) 0.72153(11) 0.31464(2)
C7_13 C 0.81534(7) 0.66759(11) 0.29846(2)
C8_13 C 0.73281(8) 0.63373(11) 0.29099(2)
H4_13 H 0.692806 0.646914 0.296485
C9_13 C 0.70952(7) 0.58067(10) 0.27547(2)
C10_13 C 0.76847(6) 0.56187(9) 0.26739(2)
H5_13 H 0.752857 0.526464 0.256675
C11_13 C 0.84984(7) 0.59457(10) 0.27489(2)
C12_13 C 0.87367(7) 0.64715(10) 0.29051(2)
H6_13 H 0.929266 0.668954 0.295710
C13_14 C 0.90928(6) 0.56975(9) 0.26590(2)
O1_14 O 0.88724(5) 0.53710(7) 0.24993(2)
C14_14 C 0.62230(7) 0.54314(10) 0.26708(2)
O3_10 O 0.61158(5) 0.50593(7) 0.25173(2)
Cu5_14 Cu 0.84229(3) 0.72102(4) 0.40247(2)
N3_14 N 0.86163(8) 0.46038(10) 0.21184(2)
N1_15 N 0.19496(8) 0.06792(6) 0.37851(2)
C3_15 C 0.19211(10) 0.05670(7) 0.34557(2)
C4_15 C 0.23128(10) 0.09722(7) 0.36208(2)
H3_15 H 0.286061 0.147739 0.361590
C5_14 C 0.23554(11) 0.08831(8) 0.32829(2)
C6_14 C 0.27847(11) 0.11659(8) 0.31464(2)
C7_14 C 0.33241(11) 0.14776(8) 0.29846(2)
C8_14 C 0.36627(11) 0.09909(8) 0.29099(2)
H4_14 H 0.353086 0.045893 0.296485
C9_14 C 0.41933(10) 0.12886(7) 0.27547(2)
C10_14 C 0.43813(9) 0.20661(7) 0.26739(2)
H5_14 H 0.473536 0.226394 0.256675
C11_14 C 0.40543(10) 0.25528(7) 0.27489(2)
C12_14 C 0.35285(10) 0.22653(7) 0.29051(2)
H6_14 H 0.331046 0.260313 0.295710
C13_15 C 0.43025(9) 0.33954(7) 0.26590(2)
O1_15 O 0.46290(7) 0.35015(5) 0.24993(2)
C14_15 C 0.45686(10) 0.07917(7) 0.26708(2)
Cu5_15 Cu 0.27898(4) 0.12126(2) 0.40247(2)
N3_15 N 0.53962(10) 0.40125(6) 0.21184(2)
C1_15 C 0.11821(10) 0.99549(7) 0.37845(2)
H1_15 H 0.092722 0.973247 0.390170
N2_15 N 0.07448(10) 0.95194(7) 0.36360(2)
C2_15 C 0.11169(11) 0.98287(8) 0.34722(2)
H2_15 H 0.082343 0.953527 0.336276
C14_16 C 0.04436(7) 0.25417(7) 0.56626(2)
O3_11 O 0.05508(5) 0.22768(5) 0.58161(2)
N1_16 N 0.79371(6) 0.26542(6) 0.45483(2)
C1_16 C 0.78939(7) 0.33785(7) 0.45489(2)
H1_16 H 0.786142 0.360087 0.443164
N2_16 N 0.78921(7) 0.38140(7) 0.46974(2)
C2_16 C 0.79549(8) 0.35047(8) 0.48612(2)
H2_16 H 0.795483 0.379807 0.497058
C3_16 C 0.80208(7) 0.27664(7) 0.48777(2)
C4_16 C 0.80073(7) 0.23612(7) 0.47126(2)
H3_16 H 0.804989 0.185595 0.471744
C5_15 C 0.81390(8) 0.24503(8) 0.50505(2)
C6_15 C 0.82855(8) 0.21675(8) 0.51870(2)
C7_15 C 0.85132(7) 0.18558(8) 0.53488(2)
C8_15 C 0.93385(8) 0.23425(8) 0.54235(2)
H4_15 H 0.973860 0.287441 0.536849
C9_15 C 0.95714(7) 0.20448(7) 0.55787(2)
C10_15 C 0.89819(6) 0.12673(7) 0.56595(2)
H5_15 H 0.913809 0.106940 0.576659
C11_15 C 0.81682(7) 0.07806(7) 0.55845(2)
C12_15 C 0.79299(7) 0.10681(7) 0.54283(2)
H6_15 H 0.737400 0.073021 0.537624
Cu5_16 Cu 0.82438(3) 0.21207(2) 0.43086(2)
C13_16 C 0.75738(6) 0.99380(7) 0.56744(2)
O1_16 O 0.77942(5) 0.98319(5) 0.58341(2)
N3_16 N 0.80504(8) 0.93208(6) 0.62149(2)
O6_6 O 0.77232(5) 0.82741(7) 0.58161(2)
N1_17 N 0.47170(8) 0.20629(6) 0.45483(2)
C1_17 C 0.54845(10) 0.21061(7) 0.45489(2)
H1_17 H 0.573944 0.213858 0.443164
N2_17 N 0.59218(10) 0.21079(7) 0.46974(2)
C2_17 C 0.55497(11) 0.20451(8) 0.48612(2)
H2_17 H 0.584323 0.204517 0.497058
C3_17 C 0.47455(10) 0.19792(7) 0.48777(2)
C4_17 C 0.43538(10) 0.19927(7) 0.47126(2)
H3_17 H 0.380605 0.195011 0.471744
C5_16 C 0.43112(11) 0.18610(8) 0.50505(2)
C6_16 C 0.38819(11) 0.17145(8) 0.51870(2)
C7_16 C 0.33425(11) 0.14868(7) 0.53488(2)
C8_16 C 0.30039(11) 0.06615(8) 0.54235(2)
H4_16 H 0.313580 0.026140 0.536849
C9_16 C 0.24733(10) 0.04286(7) 0.55787(2)
C10_16 C 0.22853(9) 0.10181(6) 0.56595(2)
H5_16 H 0.193130 0.086191 0.576659
C11_16 C 0.26123(10) 0.18318(7) 0.55845(2)
C12_16 C 0.31381(10) 0.20701(7) 0.54283(2)
H6_16 H 0.335620 0.262600 0.537624
C13_17 C 0.23641(9) 0.24262(6) 0.56744(2)
O1_17 O 0.20376(7) 0.22058(5) 0.58341(2)
Cu5_17 Cu 0.38769(4) 0.17562(3) 0.43086(2)
N3_17 N 0.12705(10) 0.19496(8) 0.62149(2)
C14_17 C 0.20980(10) 0.95564(7) 0.56626(2)
O3_12 O 0.17259(7) 0.94492(5) 0.58161(2)
C13_18 C 0.00620(7) 0.76359(9) 0.56744(2)
O1_18 O 0.01681(5) 0.79624(7) 0.58341(2)
N3_18 N 0.06792(6) 0.87295(10) 0.62149(2)
N1_18 N 0.73458(6) 0.52830(8) 0.45483(2)
C1_18 C 0.66215(7) 0.45155(10) 0.45489(2)
H1_18 H 0.639913 0.426056 0.443164
N2_18 N 0.61860(7) 0.40782(10) 0.46974(2)
C2_18 C 0.64953(8) 0.44503(11) 0.48612(2)
H2_18 H 0.620193 0.415677 0.497058
C3_18 C 0.72336(7) 0.52545(10) 0.48777(2)
C4_18 C 0.76388(7) 0.56462(10) 0.47126(2)
H3_18 H 0.814405 0.619395 0.471744
C5_17 C 0.75497(8) 0.56888(11) 0.50505(2)
C6_17 C 0.78325(8) 0.61181(11) 0.51870(2)
C7_17 C 0.81442(8) 0.66575(11) 0.53488(2)
C8_17 C 0.76575(8) 0.69961(11) 0.54235(2)
H4_17 H 0.712559 0.686420 0.536849
C9_17 C 0.79552(7) 0.75267(10) 0.55787(2)
C10_17 C 0.87327(7) 0.77147(9) 0.56595(2)
H5_17 H 0.893060 0.806870 0.576659
C11_17 C 0.92194(7) 0.73877(10) 0.55845(2)
C12_17 C 0.89319(7) 0.68619(10) 0.54283(2)
H6_17 H 0.926979 0.664380 0.537624
C14_18 C 0.74583(7) 0.79020(10) 0.56626(2)
Cu5_18 Cu 0.78793(2) 0.61231(4) 0.43086(2)
C1_19 C 0.32882(7) 0.54394(7) 0.28822(2)
H1_19 H 0.306580 0.547191 0.276497
N2_19 N 0.28527(7) 0.54412(7) 0.30307(2)
C2_19 C 0.31620(8) 0.53784(8) 0.31945(2)
H2_19 H 0.286860 0.537850 0.330391
C3_19 C 0.39003(7) 0.53125(7) 0.32110(2)
C4_19 C 0.43055(7) 0.53260(7) 0.30459(2)
H3_19 H 0.481072 0.528344 0.305077
C5_18 C 0.42164(8) 0.51943(8) 0.33838(2)
C6_18 C 0.44992(8) 0.50478(8) 0.35203(2)
C7_18 C 0.48109(8) 0.48201(7) 0.36821(2)
C8_18 C 0.43242(8) 0.39948(8) 0.37568(2)
H4_18 H 0.379226 0.359473 0.370182
C9_18 C 0.46219(7) 0.37619(7) 0.39120(2)
C10_18 C 0.53994(7) 0.43514(6) 0.39928(2)
H5_18 H 0.559727 0.419524 0.409992
C11_18 C 0.58861(7) 0.51651(7) 0.39178(2)
C12_18 C 0.55986(7) 0.54034(7) 0.37616(2)
H6_18 H 0.593646 0.595933 0.370957
C13_19 C 0.67287(7) 0.57595(6) 0.40077(2)
O1_19 O 0.68348(5) 0.55391(5) 0.41674(2)
O2_10 O 0.72593(5) 0.64148(5) 0.39207(2)
C14_19 C 0.41250(7) 0.28897(7) 0.39959(2)
O3_13 O 0.43899(5) 0.27825(5) 0.41494(2)
O4_10 O 0.34794(5) 0.23325(5) 0.39092(2)
O5_10 O 0.75112(7) 0.69185(5) 0.44126(2)
O6_7 O 0.83926(7) 0.56101(5) 0.41494(2)
O7_10 O 0.89992(5) 0.68127(5) 0.44241(2)
C8_19 C 0.60052(8) 0.03294(11) 0.37568(2)
H4_19 H 0.640527 0.019753 0.370182
C9_19 C 0.62381(7) 0.08600(10) 0.39120(2)
C10_19 C 0.56486(6) 0.10480(9) 0.39928(2)
H5_19 H 0.580476 0.140203 0.409992
C11_19 C 0.48349(7) 0.07210(10) 0.39178(2)
C12_19 C 0.45966(7) 0.01952(10) 0.37616(2)
C13_20 C 0.42405(6) 0.09692(9) 0.40077(2)
O1_20 O 0.44609(5) 0.12957(7) 0.41674(2)
O2_11 O 0.35852(5) 0.08445(7) 0.39207(2)
C14_20 C 0.71103(7) 0.12353(10) 0.39959(2)
O3_14 O 0.72175(5) 0.16074(7) 0.41494(2)
O4_11 O 0.76675(5) 0.11469(7) 0.39092(2)
O5_11 O 0.30815(5) 0.05926(9) 0.44126(2)
O7_11 O 0.31873(5) 0.21864(7) 0.44241(2)
C1_20 C 0.45606(7) 0.78488(10) 0.28822(2)
H1_20 H 0.452809 0.759389 0.276497
N2_20 N 0.45588(7) 0.74115(10) 0.30307(2)
C2_20 C 0.46216(8) 0.77836(11) 0.31945(2)
H2_20 H 0.462150 0.749010 0.330391
C3_20 C 0.46875(7) 0.85878(10) 0.32110(2)
C4_20 C 0.46740(7) 0.89795(10) 0.30459(2)
H3_20 H 0.471656 0.952728 0.305077
C5_19 C 0.48057(8) 0.90221(11) 0.33838(2)
C6_19 C 0.49522(8) 0.94514(11) 0.35203(2)
C7_19 C 0.51799(7) 0.99908(11) 0.36821(2)
H6_19 H 0.404067 0.997713 0.370957
C1_21 C 0.21512(10) 0.67118(7) 0.28822(2)
H1_21 H 0.240611 0.693420 0.276497
N2_21 N 0.25885(10) 0.71473(7) 0.30307(2)
C2_21 C 0.22164(11) 0.68380(8) 0.31945(2)
H2_21 H 0.250990 0.713140 0.330391
C3_21 C 0.14122(10) 0.60997(7) 0.32110(2)
C4_21 C 0.10205(10) 0.56945(7) 0.30459(2)
H3_21 H 0.047272 0.518928 0.305077
C5_20 C 0.09779(11) 0.57836(8) 0.33838(2)
C6_20 C 0.05486(11) 0.55008(8) 0.35203(2)
C7_20 C 0.00092(11) 0.51891(8) 0.36821(2)
H6_20 H 0.002287 0.406354 0.370957
C8_20 C 0.96706(11) 0.56758(8) 0.37568(2)
H4_20 H 0.980247 0.620774 0.370182
C9_20 C 0.91400(10) 0.53781(7) 0.39120(2)
C10_20 C 0.89520(9) 0.46006(7) 0.39928(2)
H5_20 H 0.859797 0.440273 0.409992
C11_20 C 0.92790(10) 0.41139(7) 0.39178(2)
C12_20 C 0.98048(10) 0.44014(7) 0.37616(2)
C13_21 C 0.90308(9) 0.32713(7) 0.40077(2)
O1_21 O 0.87043(7) 0.31652(5) 0.41674(2)
O2_12 O 0.91555(7) 0.27407(5) 0.39207(2)
C14_21 C 0.87647(10) 0.58750(7) 0.39959(2)
O4_12 O 0.88531(7) 0.65206(5) 0.39092(2)
O5_12 O 0.94074(9) 0.24888(7) 0.44126(2)
O7_12 O 0.78136(7) 0.10008(5) 0.44241(2)
C1_22 C 0.54394(7) 0.32882(7) 0.21178(2)
H1_22 H 0.547191 0.306580 0.223503
N2_22 N 0.54412(7) 0.28527(7) 0.19693(2)
C2_22 C 0.53784(8) 0.31620(8) 0.18055(2)
H2_22 H 0.537850 0.286860 0.169609
C3_22 C 0.53125(7) 0.39003(7) 0.17890(2)
C4_22 C 0.53260(7) 0.43055(7) 0.19541(2)
H3_22 H 0.528344 0.481072 0.194923
C5_21 C 0.51943(8) 0.42164(8) 0.16162(2)
C6_21 C 0.50478(8) 0.44992(8) 0.14797(2)
C7_21 C 0.48201(7) 0.48109(8) 0.13179(2)
C8_21 C 0.39948(8) 0.43242(8) 0.12432(2)
H4_21 H 0.359473 0.379226 0.129818
C9_21 C 0.37619(7) 0.46219(7) 0.10880(2)
C10_21 C 0.43514(6) 0.53994(7) 0.10072(2)
H5_21 H 0.419524 0.559727 0.090008
C11_21 C 0.51651(7) 0.58861(7) 0.10822(2)
C12_21 C 0.54034(7) 0.55986(7) 0.12384(2)
H6_21 H 0.595933 0.593646 0.129043
C13_22 C 0.57595(6) 0.67287(7) 0.09923(2)
O1_22 O 0.55391(5) 0.68348(5) 0.08326(2)
O2_13 O 0.64148(5) 0.72593(5) 0.10793(2)
C14_22 C 0.28897(7) 0.41250(7) 0.10041(2)
O3_15 O 0.27825(5) 0.43899(5) 0.08506(2)
O4_13 O 0.23325(5) 0.34794(5) 0.10908(2)
O5_13 O 0.69185(5) 0.75112(7) 0.05874(2)
O6_8 O 0.56101(5) 0.83926(7) 0.08506(2)
O7_13 O 0.68127(5) 0.89992(5) 0.05759(2)
C8_22 C 0.03294(11) 0.60052(8) 0.12432(2)
H4_22 H 0.019753 0.640527 0.129818
C9_22 C 0.08600(10) 0.62381(7) 0.10880(2)
C10_22 C 0.10480(9) 0.56486(6) 0.10072(2)
H5_22 H 0.140203 0.580476 0.090008
C11_22 C 0.07210(10) 0.48349(7) 0.10822(2)
C12_22 C 0.01952(10) 0.45966(7) 0.12384(2)
C13_23 C 0.09692(9) 0.42405(6) 0.09923(2)
O1_23 O 0.12957(7) 0.44609(5) 0.08326(2)
O2_14 O 0.08445(7) 0.35852(5) 0.10793(2)
C14_23 C 0.12353(10) 0.71103(7) 0.10041(2)
O3_16 O 0.16074(7) 0.72175(5) 0.08506(2)
O4_14 O 0.11469(7) 0.76675(5) 0.10908(2)
O5_14 O 0.05926(9) 0.30815(5) 0.05874(2)
O7_14 O 0.21864(7) 0.31873(5) 0.05759(2)
C1_23 C 0.78488(10) 0.45606(7) 0.21178(2)
H1_23 H 0.759389 0.452809 0.223503
N2_23 N 0.74115(10) 0.45588(7) 0.19693(2)
C2_23 C 0.77836(11) 0.46216(8) 0.18055(2)
H2_23 H 0.749010 0.462150 0.169609
C3_23 C 0.85878(10) 0.46875(7) 0.17890(2)
C4_23 C 0.89795(10) 0.46740(7) 0.19541(2)
H3_23 H 0.952728 0.471656 0.194923
C5_22 C 0.90221(11) 0.48057(8) 0.16162(2)
C6_22 C 0.94514(11) 0.49522(8) 0.14797(2)
C7_22 C 0.99908(11) 0.51799(7) 0.13179(2)
H6_22 H 0.997713 0.404067 0.129043
C1_24 C 0.67118(7) 0.21512(10) 0.21178(2)
H1_24 H 0.693420 0.240611 0.223503
N2_24 N 0.71473(7) 0.25885(10) 0.19693(2)
C2_24 C 0.68380(8) 0.22164(11) 0.18055(2)
H2_24 H 0.713140 0.250990 0.169609
C3_24 C 0.60997(7) 0.14122(10) 0.17890(2)
C4_24 C 0.56945(7) 0.10205(10) 0.19541(2)
H3_24 H 0.518928 0.047272 0.194923
C5_23 C 0.57836(8) 0.09779(11) 0.16162(2)
C6_23 C 0.55008(8) 0.05486(11) 0.14797(2)
C7_23 C 0.51891(8) 0.00092(11) 0.13179(2)
H6_23 H 0.406354 0.002287 0.129043
C8_23 C 0.56758(8) 0.96706(11) 0.12432(2)
H4_23 H 0.620774 0.980247 0.129818
C9_23 C 0.53781(7) 0.91400(10) 0.10880(2)
C10_23 C 0.46006(7) 0.89520(9) 0.10072(2)
H5_23 H 0.440273 0.859797 0.090008
C11_23 C 0.41139(7) 0.92790(10) 0.10822(2)
C12_23 C 0.44014(7) 0.98048(10) 0.12384(2)
C13_24 C 0.32713(7) 0.90308(9) 0.09923(2)
O1_24 O 0.31652(5) 0.87043(7) 0.08326(2)
O2_15 O 0.27407(5) 0.91555(7) 0.10793(2)
C14_24 C 0.58750(7) 0.87647(10) 0.10041(2)
O4_15 O 0.65206(5) 0.88531(7) 0.10908(2)
O5_15 O 0.24888(7) 0.94074(9) 0.05874(2)
O7_15 O 0.10008(5) 0.78136(7) 0.05759(2)
C13_25 C 0.00620(7) 0.24262(6) 0.06744(2)
O1_25 O 0.01681(5) 0.22058(5) 0.08341(2)
O6_9 O 0.17259(7) 0.22768(5) 0.08161(2)
C1_25 C 0.66215(7) 0.21061(7) 0.95489(2)
H1_25 H 0.639913 0.213858 0.943164
N2_25 N 0.61860(7) 0.21079(7) 0.96974(2)
C2_25 C 0.64953(8) 0.20451(8) 0.98612(2)
H2_25 H 0.620193 0.204517 0.997058
C3_25 C 0.72336(7) 0.19792(7) 0.98777(2)
C4_25 C 0.76388(7) 0.19927(7) 0.97126(2)
H3_25 H 0.814405 0.195011 0.971744
C14_25 C 0.74583(7) 0.95564(7) 0.06626(2)
O3_17 O 0.77232(5) 0.94492(5) 0.08161(2)
C14_26 C 0.04436(7) 0.79020(10) 0.06626(2)
O3_18 O 0.05508(5) 0.82741(7) 0.08161(2)
C5_24 C 0.81390(8) 0.56888(11) 0.00505(2)
C6_24 C 0.82855(8) 0.61181(11) 0.01870(2)
C7_24 C 0.85132(7) 0.66575(11) 0.03488(2)
C8_24 C 0.93385(8) 0.69961(11) 0.04235(2)
H4_24 H 0.973860 0.686420 0.036849
C9_24 C 0.95714(7) 0.75267(10) 0.05787(2)
C10_24 C 0.89819(6) 0.77147(9) 0.06595(2)
H5_24 H 0.913809 0.806870 0.076659
C11_24 C 0.81682(7) 0.73877(10) 0.05845(2)
C12_24 C 0.79299(7) 0.68619(10) 0.04283(2)
H6_24 H 0.737400 0.664380 0.037624
C13_26 C 0.75738(6) 0.76359(9) 0.06744(2)
O1_26 O 0.77942(5) 0.79624(7) 0.08341(2)
C1_26 C 0.78939(7) 0.45155(10) 0.95489(2)
H1_26 H 0.786142 0.426056 0.943164
N2_26 N 0.78921(7) 0.40782(10) 0.96974(2)
C2_26 C 0.79549(8) 0.44503(11) 0.98612(2)
H2_26 H 0.795483 0.415677 0.997058
C3_26 C 0.80208(7) 0.52545(10) 0.98777(2)
C4_26 C 0.80073(7) 0.56462(10) 0.97126(2)
H3_26 H 0.804989 0.619395 0.971744
C5_25 C 0.43112(11) 0.24503(8) 0.00505(2)
C6_25 C 0.38819(11) 0.21675(8) 0.01870(2)
C7_25 C 0.33425(11) 0.18558(8) 0.03488(2)
C8_25 C 0.30039(11) 0.23425(8) 0.04235(2)
H4_25 H 0.313580 0.287441 0.036849
C9_25 C 0.24733(10) 0.20448(7) 0.05787(2)
C10_25 C 0.22853(9) 0.12673(7) 0.06595(2)
H5_25 H 0.193130 0.106940 0.076659
C11_25 C 0.26123(10) 0.07806(7) 0.05845(2)
C12_25 C 0.31381(10) 0.10681(7) 0.04283(2)
H6_25 H 0.335620 0.073021 0.037624
C14_27 C 0.20980(10) 0.25417(7) 0.06626(2)
C1_27 C 0.54845(10) 0.33785(7) 0.95489(2)
H1_27 H 0.573944 0.360087 0.943164
N2_27 N 0.59218(10) 0.38140(7) 0.96974(2)
C2_27 C 0.55497(11) 0.35047(8) 0.98612(2)
H2_27 H 0.584323 0.379807 0.997058
C3_27 C 0.47455(10) 0.27664(7) 0.98777(2)
C4_27 C 0.43538(10) 0.23612(7) 0.97126(2)
H3_27 H 0.380605 0.185595 0.971744
C13_27 C 0.23641(9) 0.99380(7) 0.06744(2)
O1_27 O 0.20376(7) 0.98319(5) 0.08341(2)
O5_16 O 0.02519(5) 0.41778(7) 0.72540(2)
O7_16 O 0.01461(5) 0.56658(5) 0.72425(2)
C3_28 C 0.86458(7) 0.05670(7) 0.84557(2)
C4_28 C 0.86593(7) 0.09722(7) 0.86208(2)
H3_28 H 0.861677 0.147739 0.861590
C5_26 C 0.85276(8) 0.08831(8) 0.82829(2)
C6_26 C 0.83811(8) 0.11659(8) 0.81464(2)
C7_26 C 0.81534(7) 0.14776(8) 0.79846(2)
C8_26 C 0.73281(8) 0.09909(8) 0.79099(2)
H4_26 H 0.692806 0.045893 0.796485
C9_26 C 0.70952(7) 0.12886(7) 0.77547(2)
C10_26 C 0.76847(6) 0.20661(7) 0.76739(2)
H5_26 H 0.752857 0.226394 0.756675
C11_26 C 0.84984(7) 0.25528(7) 0.77489(2)
C12_26 C 0.87367(7) 0.22653(7) 0.79051(2)
H6_26 H 0.929266 0.260313 0.795710
C13_28 C 0.90928(6) 0.33954(7) 0.76590(2)
O1_28 O 0.88724(5) 0.35015(5) 0.74993(2)
O2_16 O 0.97481(5) 0.39260(5) 0.77460(2)
C14_28 C 0.62230(7) 0.07917(7) 0.76708(2)
O3_19 O 0.61158(5) 0.10566(5) 0.75173(2)
O4_16 O 0.56658(5) 0.01461(5) 0.77575(2)
O6_10 O 0.89434(5) 0.50593(7) 0.75173(2)
C1_28 C 0.87727(7) 0.99549(7) 0.87845(2)
H1_28 H 0.880524 0.973247 0.890170
N2_28 N 0.87745(7) 0.95194(7) 0.86360(2)
C2_28 C 0.87117(8) 0.98287(8) 0.84722(2)
H2_28 H 0.871183 0.953527 0.836276
C1_29 C 0.11821(10) 0.12273(7) 0.87845(2)
H1_29 H 0.092722 0.119476 0.890170
N2_29 N 0.07448(10) 0.12255(7) 0.86360(2)
C2_29 C 0.11169(11) 0.12883(8) 0.84722(2)
H2_29 H 0.082343 0.128817 0.836276
C3_29 C 0.19211(10) 0.13542(7) 0.84557(2)
C4_29 C 0.23128(10) 0.13407(7) 0.86208(2)
H3_29 H 0.286061 0.138323 0.861590
C5_27 C 0.23554(11) 0.14724(8) 0.82829(2)
C6_27 C 0.27847(11) 0.16189(8) 0.81464(2)
C7_27 C 0.33241(11) 0.18466(7) 0.79846(2)
C8_27 C 0.36627(11) 0.26719(8) 0.79099(2)
H4_27 H 0.353086 0.307194 0.796485
C9_27 C 0.41933(10) 0.29048(7) 0.77547(2)
C10_27 C 0.43813(9) 0.23153(6) 0.76739(2)
H5_27 H 0.473536 0.247143 0.756675
C11_27 C 0.40543(10) 0.15016(7) 0.77489(2)
C12_27 C 0.35285(10) 0.12633(7) 0.79051(2)
H6_27 H 0.331046 0.070734 0.795710
C13_29 C 0.43025(9) 0.09072(6) 0.76590(2)
O1_29 O 0.46290(7) 0.11276(5) 0.74993(2)
O2_17 O 0.41778(7) 0.02519(5) 0.77460(2)
C14_29 C 0.45686(10) 0.37770(7) 0.76708(2)
O3_20 O 0.49407(7) 0.38842(5) 0.75173(2)
O4_17 O 0.44802(7) 0.43342(5) 0.77575(2)
O5_17 O 0.39260(9) 0.97481(5) 0.72540(2)
O7_17 O 0.55198(7) 0.98539(5) 0.72425(2)
C1_30 C 0.00451(7) 0.88179(10) 0.87845(2)
H1_30 H 0.026753 0.907278 0.890170
N2_30 N 0.04806(7) 0.92552(10) 0.86360(2)
C2_30 C 0.01713(8) 0.88831(11) 0.84722(2)
H2_30 H 0.046473 0.917657 0.836276
C3_30 C 0.94330(7) 0.80789(10) 0.84557(2)
C4_30 C 0.90278(7) 0.76872(10) 0.86208(2)
H3_30 H 0.852261 0.713939 0.861590
C5_28 C 0.91169(8) 0.76446(11) 0.82829(2)
C6_28 C 0.88341(8) 0.72153(11) 0.81464(2)
C7_28 C 0.85224(8) 0.66759(11) 0.79846(2)
C8_28 C 0.90091(8) 0.63373(11) 0.79099(2)
H4_28 H 0.954107 0.646914 0.796485
C9_28 C 0.87114(7) 0.58067(10) 0.77547(2)
C10_28 C 0.79339(7) 0.56187(9) 0.76739(2)
H5_28 H 0.773606 0.526464 0.756675
C11_28 C 0.74472(7) 0.59457(10) 0.77489(2)
C12_28 C 0.77347(7) 0.64715(10) 0.79051(2)
H6_28 H 0.739687 0.668954 0.795710
C13_30 C 0.66046(7) 0.56975(9) 0.76590(2)
O1_30 O 0.64985(5) 0.53710(7) 0.74993(2)
O2_18 O 0.60740(5) 0.58222(7) 0.77460(2)
C14_30 C 0.92083(7) 0.54314(10) 0.76708(2)
O4_18 O 0.98539(5) 0.55198(7) 0.77575(2)
O5_18 O 0.58222(7) 0.60740(9) 0.72540(2)
O7_18 O 0.43342(5) 0.44802(7) 0.72425(2)
C3_31 C 0.05670(7) 0.86458(7) 0.65443(2)
C4_31 C 0.09722(7) 0.86593(7) 0.63792(2)
H3_31 H 0.147739 0.861677 0.638410
C5_29 C 0.08831(8) 0.85276(8) 0.67171(2)
C6_29 C 0.11659(8) 0.83811(8) 0.68536(2)
C7_29 C 0.14776(8) 0.81534(7) 0.70154(2)
C8_29 C 0.09909(8) 0.73281(8) 0.70901(2)
H4_29 H 0.045893 0.692806 0.703515
C9_29 C 0.12886(7) 0.70952(7) 0.72453(2)
C10_29 C 0.20661(7) 0.76847(6) 0.73261(2)
H5_29 H 0.226394 0.752857 0.743325
C11_29 C 0.25528(7) 0.84984(7) 0.72511(2)
C12_29 C 0.22653(7) 0.87367(7) 0.70949(2)
H6_29 H 0.260313 0.929266 0.704290
C13_31 C 0.33954(7) 0.90928(6) 0.73410(2)
O1_31 O 0.35015(5) 0.88724(5) 0.75007(2)
C14_31 C 0.07917(7) 0.62230(7) 0.73292(2)
O3_21 O 0.10566(5) 0.61158(5) 0.74827(2)
O6_11 O 0.50593(7) 0.89434(5) 0.74827(2)
C1_31 C 0.99549(7) 0.87727(7) 0.62155(2)
H1_31 H 0.973247 0.880524 0.609830
N2_31 N 0.95194(7) 0.87745(7) 0.63640(2)
C2_31 C 0.98287(8) 0.87117(8) 0.65278(2)
H2_31 H 0.953527 0.871183 0.663724
C1_32 C 0.12273(7) 0.11821(10) 0.62155(2)
H1_32 H 0.119476 0.092722 0.609830
N2_32 N 0.12255(7) 0.07448(10) 0.63640(2)
C2_32 C 0.12883(8) 0.11169(11) 0.65278(2)
H2_32 H 0.128817 0.082343 0.663724
C3_32 C 0.13542(7) 0.19211(10) 0.65443(2)
C4_32 C 0.13407(7) 0.23128(10) 0.63792(2)
H3_32 H 0.138323 0.286061 0.638410
C5_30 C 0.14724(8) 0.23554(11) 0.67171(2)
C6_30 C 0.16189(8) 0.27847(11) 0.68536(2)
C7_30 C 0.18466(7) 0.33241(11) 0.70154(2)
C8_30 C 0.26719(8) 0.36627(11) 0.70901(2)
H4_30 H 0.307194 0.353086 0.703515
C9_30 C 0.29048(7) 0.41933(10) 0.72453(2)
C10_30 C 0.23153(6) 0.43813(9) 0.73261(2)
H5_30 H 0.247143 0.473536 0.743325
C11_30 C 0.15016(7) 0.40543(10) 0.72511(2)
C12_30 C 0.12633(7) 0.35285(10) 0.70949(2)
H6_30 H 0.070734 0.331046 0.704290
C13_32 C 0.09072(6) 0.43025(9) 0.73410(2)
O1_32 O 0.11276(5) 0.46290(7) 0.75007(2)
C14_32 C 0.37770(7) 0.45686(10) 0.73292(2)
O3_22 O 0.38842(5) 0.49407(7) 0.74827(2)
C1_33 C 0.88179(10) 0.00451(7) 0.62155(2)
H1_33 H 0.907278 0.026753 0.609830
N2_33 N 0.92552(10) 0.04806(7) 0.63640(2)
C2_33 C 0.88831(11) 0.01713(8) 0.65278(2)
H2_33 H 0.917657 0.046473 0.663724
C3_33 C 0.80789(10) 0.94330(7) 0.65443(2)
C4_33 C 0.76872(10) 0.90278(7) 0.63792(2)
H3_33 H 0.713939 0.852261 0.638410
C5_31 C 0.76446(11) 0.91169(8) 0.67171(2)
C6_31 C 0.72153(11) 0.88341(8) 0.68536(2)
C7_31 C 0.66759(11) 0.85224(8) 0.70154(2)
C8_31 C 0.63373(11) 0.90091(8) 0.70901(2)
H4_31 H 0.646914 0.954107 0.703515
C9_31 C 0.58067(10) 0.87114(7) 0.72453(2)
C10_31 C 0.56187(9) 0.79339(7) 0.73261(2)
H5_31 H 0.526464 0.773606 0.743325
C11_31 C 0.59457(10) 0.74472(7) 0.72511(2)
C12_31 C 0.64715(10) 0.77347(7) 0.70949(2)
H6_31 H 0.668954 0.739687 0.704290
C13_33 C 0.56975(9) 0.66046(7) 0.73410(2)
O1_33 O 0.53710(7) 0.64985(5) 0.75007(2)
C14_33 C 0.54314(10) 0.92083(7) 0.73292(2)
C13_34 C 0.24262(6) 0.00620(7) 0.43256(2)
O1_34 O 0.22058(5) 0.01681(5) 0.41659(2)
O6_12 O 0.22768(5) 0.17259(7) 0.41839(2)
C1_34 C 0.21061(7) 0.66215(7) 0.54511(2)
H1_34 H 0.213858 0.639913 0.556836
N2_34 N 0.21079(7) 0.61860(7) 0.53026(2)
C2_34 C 0.20451(8) 0.64953(8) 0.51388(2)
H2_34 H 0.204517 0.620193 0.502942
C3_34 C 0.19792(7) 0.72336(7) 0.51223(2)
C4_34 C 0.19927(7) 0.76388(7) 0.52874(2)
H3_34 H 0.195011 0.814405 0.528256
C5_32 C 0.18610(8) 0.75497(8) 0.49495(2)
C6_32 C 0.17145(8) 0.78325(8) 0.48130(2)
C7_32 C 0.14868(7) 0.81442(8) 0.46512(2)
C8_32 C 0.06615(8) 0.76575(8) 0.45765(2)
H4_32 H 0.026140 0.712559 0.463151
C9_32 C 0.04286(7) 0.79552(7) 0.44213(2)
C10_32 C 0.10181(6) 0.87327(7) 0.43405(2)
H5_32 H 0.086191 0.893060 0.423341
C11_32 C 0.18318(7) 0.92194(7) 0.44155(2)
C12_32 C 0.20701(7) 0.89319(7) 0.45717(2)
H6_32 H 0.262600 0.926979 0.462376
C14_34 C 0.95564(7) 0.74583(7) 0.43374(2)
O3_23 O 0.94492(5) 0.77232(5) 0.41839(2)
C14_35 C 0.79020(10) 0.04436(7) 0.43374(2)
O3_24 O 0.82741(7) 0.05508(5) 0.41839(2)
C1_35 C 0.45155(10) 0.78939(7) 0.54511(2)
H1_35 H 0.426056 0.786142 0.556836
N2_35 N 0.40782(10) 0.78921(7) 0.53026(2)
C2_35 C 0.44503(11) 0.79549(8) 0.51388(2)
H2_35 H 0.415677 0.795483 0.502942
C3_35 C 0.52545(10) 0.80208(7) 0.51223(2)
C4_35 C 0.56462(10) 0.80073(7) 0.52874(2)
H3_35 H 0.619395 0.804989 0.528256
C5_33 C 0.56888(11) 0.81390(8) 0.49495(2)
C6_33 C 0.61181(11) 0.82855(8) 0.48130(2)
C7_33 C 0.66575(11) 0.85132(7) 0.46512(2)
C8_33 C 0.69961(11) 0.93385(8) 0.45765(2)
H4_33 H 0.686420 0.973860 0.463151
C9_33 C 0.75267(10) 0.95714(7) 0.44213(2)
C10_33 C 0.77147(9) 0.89819(6) 0.43405(2)
H5_33 H 0.806870 0.913809 0.423341
C11_33 C 0.73877(10) 0.81682(7) 0.44155(2)
C12_33 C 0.68619(10) 0.79299(7) 0.45717(2)
H6_33 H 0.664380 0.737400 0.462376
C13_35 C 0.76359(9) 0.75738(6) 0.43256(2)
O1_35 O 0.79624(7) 0.77942(5) 0.41659(2)
C1_36 C 0.33785(7) 0.54845(10) 0.54511(2)
H1_36 H 0.360087 0.573944 0.556836
N2_36 N 0.38140(7) 0.59218(10) 0.53026(2)
C2_36 C 0.35047(8) 0.55497(11) 0.51388(2)
H2_36 H 0.379807 0.584323 0.502942
C3_36 C 0.27664(7) 0.47455(10) 0.51223(2)
C4_36 C 0.23612(7) 0.43538(10) 0.52874(2)
H3_36 H 0.185595 0.380605 0.528256
C5_34 C 0.24503(8) 0.43112(11) 0.49495(2)
C6_34 C 0.21675(8) 0.38819(11) 0.48130(2)
C7_34 C 0.18558(8) 0.33425(11) 0.46512(2)
C8_34 C 0.23425(8) 0.30039(11) 0.45765(2)
H4_34 H 0.287441 0.313580 0.463151
C9_34 C 0.20448(7) 0.24733(10) 0.44213(2)
C10_34 C 0.12673(7) 0.22853(9) 0.43405(2)
H5_34 H 0.106940 0.193130 0.423341
C11_34 C 0.07806(7) 0.26123(10) 0.44155(2)
C12_34 C 0.10681(7) 0.31381(10) 0.45717(2)
H6_34 H 0.073021 0.335620 0.462376
C14_36 C 0.25417(7) 0.20980(10) 0.43374(2)
C13_36 C 0.99380(7) 0.23641(9) 0.43256(2)
O1_36 O 0.98319(5) 0.20376(7) 0.41659(2)
C5_35 C 0.24503(8) 0.81390(8) 0.99495(2)
C6_35 C 0.21675(8) 0.82855(8) 0.98130(2)
C7_35 C 0.18558(8) 0.85132(7) 0.96512(2)
C8_35 C 0.23425(8) 0.93385(8) 0.95765(2)
H4_35 H 0.287441 0.973860 0.963151
C9_35 C 0.20448(7) 0.95714(7) 0.94213(2)
C10_35 C 0.12673(7) 0.89819(6) 0.93405(2)
H5_35 H 0.106940 0.913809 0.923341
C11_35 C 0.07806(7) 0.81682(7) 0.94155(2)
C12_35 C 0.10681(7) 0.79299(7) 0.95717(2)
H6_35 H 0.073021 0.737400 0.962376
C5_36 C 0.75497(8) 0.18610(8) 0.00505(2)
C6_36 C 0.78325(8) 0.17145(8) 0.01870(2)
C7_36 C 0.81442(8) 0.14868(7) 0.03488(2)
C8_36 C 0.76575(8) 0.06615(8) 0.04235(2)
H4_36 H 0.712559 0.026140 0.036849
C9_36 C 0.79552(7) 0.04286(7) 0.05787(2)
C10_36 C 0.87327(7) 0.10181(6) 0.06595(2)
H5_36 H 0.893060 0.086191 0.076659
C11_36 C 0.92194(7) 0.18318(7) 0.05845(2)
C12_36 C 0.89319(7) 0.20701(7) 0.04283(2)
H6_36 H 0.926979 0.262600 0.037624
loop_
_geom_bond_atom_site_label_1
_geom_bond_atom_site_label_2
_geom_bond_site_symmetry_1
_geom_bond_site_symmetry_2
Cu1 O1 1_555 1_555
N1 C1 1_555 1_555
C1 H1 1_555 1_555
N2 C1 1_555 1_555
C2 N2 1_555 1_555
H2 C2 1_555 1_555
C3 C2 1_555 1_555
C4 N1 1_555 1_555
H3 C4 1_555 1_555
C5 C3 1_555 1_555
C6 C5 1_555 1_555
C7 C6 1_555 1_555
C8 C7 1_555 1_555
H4 C8 1_555 1_555
C9 C8 1_555 1_555
C10 C9 1_555 1_555
H5 C10 1_555 1_555
C11 C10 1_555 1_555
C12 C7 1_555 1_555
H6 C12 1_555 1_555
C13 C11 1_555 1_555
O1 C13 1_555 1_555
O2 C13 1_555 1_555
C14 C9 1_555 1_555
O3 C14 1_555 1_555
O4 C14 1_555 1_555
Cu2 O3 1_555 1_555
Cu3 O4 1_555 1_555
Cu4 Cu1 1_555 1_555
Cu5 N1 1_555 1_555
N3 Cu1 1_555 1_555
O5 Cu1 1_555 1_555
O6 Cu1 1_555 1_555
O7 Cu1 1_555 1_555
C3 C4 1_555 1_555
C11 C12 1_555 1_555
O2 Cu4 1_555 1_555
Cu2 Cu3 1_555 1_555
N1_2 C1_2 1_555 1_555
C1_2 H1_2 1_555 1_555
N2_2 C1_2 1_555 1_555
C2_2 N2_2 1_555 1_555
H2_2 C2_2 1_555 1_555
C3_2 C2_2 1_555 1_555
C4_2 N1_2 1_555 1_555
H3_2 C4_2 1_555 1_555
C5_2 C3_2 1_555 1_555
C6_2 C5_2 1_555 1_555
C7_2 C6_2 1_555 1_555
Cu5_2 N1_2 1_555 1_555
C3_2 C4_2 1_555 1_555
Cu2 O1_2 1_555 1_555
H4_2 C8_2 1_555 1_555
C9_2 C8_2 1_555 1_555
C10_2 C9_2 1_555 1_555
H5_2 C10_2 1_555 1_555
C11_2 C10_2 1_555 1_555
C13_2 C11_2 1_555 1_555
O1_2 C13_2 1_555 1_555
O2_2 C13_2 1_555 1_555
C14_2 C9_2 1_555 1_555
O3_2 C14_2 1_555 1_555
O4_2 C14_2 1_555 1_555
Cu2_2 O3_2 1_555 1_555
Cu3_2 O4_2 1_555 1_555
N3_2 Cu2 1_555 1_555
O5_2 Cu2 1_555 1_555
O7_2 Cu2 1_555 1_555
C11_2 C12_2 1_555 1_555
O2_2 Cu3 1_555 1_555
Cu2_2 Cu3_2 1_555 1_555
Cu2_2 O1_3 1_555 1_555
H4_3 C8_3 1_555 1_555
C9_3 C8_3 1_555 1_555
C10_3 C9_3 1_555 1_555
H5_3 C10_3 1_555 1_555
C11_3 C10_3 1_555 1_555
C13_3 C11_3 1_555 1_555
O1_3 C13_3 1_555 1_555
O2_3 C13_3 1_555 1_555
C14_3 C9_3 1_555 1_555
O6 C14_3 1_555 1_555
O4_3 C14_3 1_555 1_555
Cu4 O4_3 1_555 1_555
N3_3 Cu2_2 1_555 1_555
O5_3 Cu2_2 1_555 1_555
O7_3 Cu2_2 1_555 1_555
C11_3 C12_3 1_555 1_555
O2_3 Cu3_2 1_555 1_555
N1_3 C1_3 1_555 1_555
C1_3 H1_3 1_555 1_555
N2_3 C1_3 1_555 1_555
C2_3 N2_3 1_555 1_555
H2_3 C2_3 1_555 1_555
C3_3 C2_3 1_555 1_555
C4_3 N1_3 1_555 1_555
H3_3 C4_3 1_555 1_555
C5_3 C3_3 1_555 1_555
C6_3 C5_3 1_555 1_555
C7_3 C6_3 1_555 1_555
Cu5_3 N1_3 1_555 1_555
C3_3 C4_3 1_555 1_555
Cu1_2 O1_4 1_555 1_555
N1_4 C1_4 1_555 1_555
C1_4 H1_4 1_555 1_555
N2_4 C1_4 1_555 1_555
C2_4 N2_4 1_555 1_555
H2_4 C2_4 1_555 1_555
C3_4 C2_4 1_555 1_555
C4_4 N1_4 1_555 1_555
H3_4 C4_4 1_555 1_555
C5_4 C3_4 1_555 1_555
C6_4 C5_4 1_555 1_555
C7_4 C6_4 1_555 1_555
C8_4 C7_4 1_555 1_555
H4_4 C8_4 1_555 1_555
C9_4 C8_4 1_555 1_555
C10_4 C9_4 1_555 1_555
H5_4 C10_4 1_555 1_555
C11_4 C10_4 1_555 1_555
C12_4 C7_4 1_555 1_555
H6_4 C12_4 1_555 1_555
C13_4 C11_4 1_555 1_555
O1_4 C13_4 1_555 1_555
O2_4 C13_4 1_555 1_555
C14_4 C9_4 1_555 1_555
O3_3 C14_4 1_555 1_555
O4_4 C14_4 1_555 1_555
Cu2_3 O3_3 1_555 1_555
Cu3_3 O4_4 1_555 1_555
Cu4_2 Cu1_2 1_555 1_555
Cu5_4 N1_4 1_555 1_555
N3_4 Cu1_2 1_555 1_555
O5_4 Cu1_2 1_555 1_555
O6_2 Cu1_2 1_555 1_555
O7_4 Cu1_2 1_555 1_555
C3_4 C4_4 1_555 1_555
C11_4 C12_4 1_555 1_555
O2_4 Cu4_2 1_555 1_555
Cu2_3 Cu3_3 1_555 1_555
N1_5 C1_5 1_555 1_555
C1_5 H1_5 1_555 1_555
N2_5 C1_5 1_555 1_555
C2_5 N2_5 1_555 1_555
H2_5 C2_5 1_555 1_555
C3_5 C2_5 1_555 1_555
C4_5 N1_5 1_555 1_555
H3_5 C4_5 1_555 1_555
C5_5 C3_5 1_555 1_555
C6_5 C5_5 1_555 1_555
C7_5 C6_5 1_555 1_555
Cu5_5 N1_5 1_555 1_555
C3_5 C4_5 1_555 1_555
Cu2_3 O1_5 1_555 1_555
H4_5 C8_5 1_555 1_555
C9_5 C8_5 1_555 1_555
C10_5 C9_5 1_555 1_555
H5_5 C10_5 1_555 1_555
C11_5 C10_5 1_555 1_555
C13_5 C11_5 1_555 1_555
O1_5 C13_5 1_555 1_555
O2_5 C13_5 1_555 1_555
C14_5 C9_5 1_555 1_555
O3_4 C14_5 1_555 1_555
O4_5 C14_5 1_555 1_555
Cu2_4 O3_4 1_555 1_555
Cu3_4 O4_5 1_555 1_555
N3_5 Cu2_3 1_555 1_555
O5_5 Cu2_3 1_555 1_555
O7_5 Cu2_3 1_555 1_555
C11_5 C12_5 1_555 1_555
O2_5 Cu3_3 1_555 1_555
Cu2_4 Cu3_4 1_555 1_555
Cu2_4 O1_6 1_555 1_555
H4_6 C8_6 1_555 1_555
C9_6 C8_6 1_555 1_555
C10_6 C9_6 1_555 1_555
H5_6 C10_6 1_555 1_555
C11_6 C10_6 1_555 1_555
C13_6 C11_6 1_555 1_555
O1_6 C13_6 1_555 1_555
O2_6 C13_6 1_555 1_555
C14_6 C9_6 1_555 1_555
O6_2 C14_6 1_555 1_555
O4_6 C14_6 1_555 1_555
Cu4_2 O4_6 1_555 1_555
N3_6 Cu2_4 1_555 1_555
O5_6 Cu2_4 1_555 1_555
O7_6 Cu2_4 1_555 1_555
C11_6 C12_6 1_555 1_555
O2_6 Cu3_4 1_555 1_555
N1_6 C1_6 1_555 1_555
C1_6 H1_6 1_555 1_555
N2_6 C1_6 1_555 1_555
C2_6 N2_6 1_555 1_555
H2_6 C2_6 1_555 1_555
C3_6 C2_6 1_555 1_555
C4_6 N1_6 1_555 1_555
H3_6 C4_6 1_555 1_555
C5_6 C3_6 1_555 1_555
C6_6 C5_6 1_555 1_555
C7_6 C6_6 1_555 1_555
Cu5_6 N1_6 1_555 1_555
C3_6 C4_6 1_555 1_555
O3_5 C14_7 1_555 1_555
O7_4 C14_7 1_555 1_555
Cu4_2 O3_5 1_555 1_555
N1_7 C1_7 1_555 1_555
C1_7 H1_7 1_555 1_555
N2_7 C1_7 1_555 1_555
C2_7 N2_7 1_555 1_555
H2_7 C2_7 1_555 1_555
C3_7 C2_7 1_555 1_555
C4_7 N1_7 1_555 1_555
H3_7 C4_7 1_555 1_555
Cu5_7 N1_7 1_555 1_555
C3_7 C4_7 1_555 1_555
Cu3_3 O1_7 1_555 1_555
O1_7 C13_7 1_555 1_555
O5_5 C13_7 1_555 1_555
N3_7 Cu3_3 1_555 1_555
O6_3 Cu3_3 1_555 1_555
N1_8 C1_8 1_555 1_555
C1_8 H1_8 1_555 1_555
N2_8 C1_8 1_555 1_555
C2_8 N2_8 1_555 1_555
H2_8 C2_8 1_555 1_555
C3_8 C2_8 1_555 1_555
C4_8 N1_8 1_555 1_555
H3_8 C4_8 1_555 1_555
Cu5_8 N1_8 1_555 1_555
C3_8 C4_8 1_555 1_555
Cu4_2 O1_8 1_555 1_555
C6_7 C5_7 1_555 1_555
C7_7 C6_7 1_555 1_555
C8_7 C7_7 1_555 1_555
H4_7 C8_7 1_555 1_555
C9_7 C8_7 1_555 1_555
C10_7 C9_7 1_555 1_555
H5_7 C10_7 1_555 1_555
C11_7 C10_7 1_555 1_555
C12_7 C7_7 1_555 1_555
H6_7 C12_7 1_555 1_555
C13_8 C11_7 1_555 1_555
O1_8 C13_8 1_555 1_555
O5_4 C13_8 1_555 1_555
N3_8 Cu4_2 1_555 1_555
C11_7 C12_7 1_555 1_555
O3_6 C14_8 1_555 1_555
O7_6 C14_8 1_555 1_555
Cu3_4 O3_6 1_555 1_555
Cu3_4 O1_9 1_555 1_555
O1_9 C13_9 1_555 1_555
O5_6 C13_9 1_555 1_555
N3_9 Cu3_4 1_555 1_555
N1_9 C1_9 1_555 1_555
C1_9 H1_9 1_555 1_555
N2_9 C1_9 1_555 1_555
C2_9 N2_9 1_555 1_555
H2_9 C2_9 1_555 1_555
C3_9 C2_9 1_555 1_555
C4_9 N1_9 1_555 1_555
H3_9 C4_9 1_555 1_555
Cu5_9 N1_9 1_555 1_555
C3_9 C4_9 1_555 1_555
C6_8 C5_8 1_555 1_555
C7_8 C6_8 1_555 1_555
C8_8 C7_8 1_555 1_555
H4_8 C8_8 1_555 1_555
C9_8 C8_8 1_555 1_555
C10_8 C9_8 1_555 1_555
H5_8 C10_8 1_555 1_555
C11_8 C10_8 1_555 1_555
C12_8 C7_8 1_555 1_555
H6_8 C12_8 1_555 1_555
C14_9 C9_8 1_555 1_555
O6_3 C14_9 1_555 1_555
O7_5 C14_9 1_555 1_555
C11_8 C12_8 1_555 1_555
C1_10 H1_10 1_555 1_555
N2_10 C1_10 1_555 1_555
C2_10 N2_10 1_555 1_555
H2_10 C2_10 1_555 1_555
Cu1_3 O1_10 1_555 1_555
C4_10 N1_10 1_555 1_555
H3_10 C4_10 1_555 1_555
C5_9 C3_10 1_555 1_555
C6_9 C5_9 1_555 1_555
C7_9 C6_9 1_555 1_555
C8_9 C7_9 1_555 1_555
H4_9 C8_9 1_555 1_555
C9_9 C8_9 1_555 1_555
C10_9 C9_9 1_555 1_555
H5_9 C10_9 1_555 1_555
C11_9 C10_9 1_555 1_555
C12_9 C7_9 1_555 1_555
H6_9 C12_9 1_555 1_555
C13_10 C11_9 1_555 1_555
O1_10 C13_10 1_555 1_555
O2_7 C13_10 1_555 1_555
C14_10 C9_9 1_555 1_555
O3_7 C14_10 1_555 1_555
O4_7 C14_10 1_555 1_555
Cu2_5 O3_7 1_555 1_555
Cu5_10 N1_10 1_555 1_555
N3_10 Cu1_3 1_555 1_555
O6_4 Cu1_3 1_555 1_555
C3_10 C4_10 1_555 1_555
C11_9 C12_9 1_555 1_555
Cu2_5 O1_11 1_555 1_555
N1_11 C1_11 1_555 1_555
C1_11 H1_11 1_555 1_555
N2_11 C1_11 1_555 1_555
C2_11 N2_11 1_555 1_555
H2_11 C2_11 1_555 1_555
C3_11 C2_11 1_555 1_555
C4_11 N1_11 1_555 1_555
H3_11 C4_11 1_555 1_555
C5_10 C3_11 1_555 1_555
C6_10 C5_10 1_555 1_555
C7_10 C6_10 1_555 1_555
C8_10 C7_10 1_555 1_555
H4_10 C8_10 1_555 1_555
C9_10 C8_10 1_555 1_555
C10_10 C9_10 1_555 1_555
H5_10 C10_10 1_555 1_555
C11_10 C10_10 1_555 1_555
C12_10 C7_10 1_555 1_555
H6_10 C12_10 1_555 1_555
C13_11 C11_10 1_555 1_555
O1_11 C13_11 1_555 1_555
O2_8 C13_11 1_555 1_555
C14_11 C9_10 1_555 1_555
O3_8 C14_11 1_555 1_555
O4_8 C14_11 1_555 1_555
Cu2_6 O3_8 1_555 1_555
Cu3_6 O4_8 1_555 1_555
Cu5_11 N1_11 1_555 1_555
N3_11 Cu2_5 1_555 1_555
C3_11 C4_11 1_555 1_555
C11_10 C12_10 1_555 1_555
Cu2_6 Cu3_6 1_555 1_555
Cu2_6 O1_12 1_555 1_555
C4_12 N1_12 1_555 1_555
H3_12 C4_12 1_555 1_555
C5_11 C3_12 1_555 1_555
C6_11 C5_11 1_555 1_555
C7_11 C6_11 1_555 1_555
C8_11 C7_11 1_555 1_555
H4_11 C8_11 1_555 1_555
C9_11 C8_11 1_555 1_555
C10_11 C9_11 1_555 1_555
H5_11 C10_11 1_555 1_555
C11_11 C10_11 1_555 1_555
C12_11 C7_11 1_555 1_555
H6_11 C12_11 1_555 1_555
C13_12 C11_11 1_555 1_555
O1_12 C13_12 1_555 1_555
O2_9 C13_12 1_555 1_555
C14_12 C9_11 1_555 1_555
O6_4 C14_12 1_555 1_555
O4_9 C14_12 1_555 1_555
Cu5_12 N1_12 1_555 1_555
N3_12 Cu2_6 1_555 1_555
O5_9 Cu2_6 1_555 1_555
O7_9 Cu2_6 1_555 1_555
C3_12 C4_12 1_555 1_555
C11_11 C12_11 1_555 1_555
O2_9 Cu3_6 1_555 1_555
C1_12 H1_12 1_555 1_555
N2_12 C1_12 1_555 1_555
C2_12 N2_12 1_555 1_555
H2_12 C2_12 1_555 1_555
C1_13 H1_13 1_555 1_555
N2_13 C1_13 1_555 1_555
C2_13 N2_13 1_555 1_555
H2_13 C2_13 1_555 1_555
Cu3_5 O1_13 1_555 1_555
C4_13 N1_13 1_555 1_555
H3_13 C4_13 1_555 1_555
C5_12 C3_13 1_555 1_555
C6_12 C5_12 1_555 1_555
C7_12 C6_12 1_555 1_555
C8_12 C7_12 1_555 1_555
H4_12 C8_12 1_555 1_555
C9_12 C8_12 1_555 1_555
C10_12 C9_12 1_555 1_555
H5_12 C10_12 1_555 1_555
C11_12 C10_12 1_555 1_555
C12_12 C7_12 1_555 1_555
H6_12 C12_12 1_555 1_555
C13_13 C11_12 1_555 1_555
O1_13 C13_13 1_555 1_555
O5_8 C13_13 1_555 1_555
C14_13 C9_12 1_555 1_555
O3_9 C14_13 1_555 1_555
O7_7 C14_13 1_555 1_555
Cu4_3 O3_9 1_555 1_555
Cu5_13 N1_13 1_555 1_555
N3_13 Cu3_5 1_555 1_555
O6_5 Cu3_5 1_555 1_555
C3_13 C4_13 1_555 1_555
C11_12 C12_12 1_555 1_555
Cu4_3 O1_14 1_555 1_555
N1_14 C1_14 1_555 1_555
C1_14 H1_14 1_555 1_555
N2_14 C1_14 1_555 1_555
C2_14 N2_14 1_555 1_555
H2_14 C2_14 1_555 1_555
C3_14 C2_14 1_555 1_555
C4_14 N1_14 1_555 1_555
H3_14 C4_14 1_555 1_555
C5_13 C3_14 1_555 1_555
C6_13 C5_13 1_555 1_555
C7_13 C6_13 1_555 1_555
C8_13 C7_13 1_555 1_555
H4_13 C8_13 1_555 1_555
C9_13 C8_13 1_555 1_555
C10_13 C9_13 1_555 1_555
H5_13 C10_13 1_555 1_555
C11_13 C10_13 1_555 1_555
C12_13 C7_13 1_555 1_555
H6_13 C12_13 1_555 1_555
C13_14 C11_13 1_555 1_555
O1_14 C13_14 1_555 1_555
O5_7 C13_14 1_555 1_555
C14_14 C9_13 1_555 1_555
O3_10 C14_14 1_555 1_555
O7_9 C14_14 1_555 1_555
Cu3_6 O3_10 1_555 1_555
Cu5_14 N1_14 1_555 1_555
N3_14 Cu4_3 1_555 1_555
C3_14 C4_14 1_555 1_555
C11_13 C12_13 1_555 1_555
Cu3_6 O1_15 1_555 1_555
C4_15 N1_15 1_555 1_555
H3_15 C4_15 1_555 1_555
C5_14 C3_15 1_555 1_555
C6_14 C5_14 1_555 1_555
C7_14 C6_14 1_555 1_555
C8_14 C7_14 1_555 1_555
H4_14 C8_14 1_555 1_555
C9_14 C8_14 1_555 1_555
C10_14 C9_14 1_555 1_555
H5_14 C10_14 1_555 1_555
C11_14 C10_14 1_555 1_555
C12_14 C7_14 1_555 1_555
H6_14 C12_14 1_555 1_555
C13_15 C11_14 1_555 1_555
O1_15 C13_15 1_555 1_555
O5_9 C13_15 1_555 1_555
C14_15 C9_14 1_555 1_555
O6_5 C14_15 1_555 1_555
O7_8 C14_15 1_555 1_555
Cu5_15 N1_15 1_555 1_555
N3_15 Cu3_6 1_555 1_555
C3_15 C4_15 1_555 1_555
C11_14 C12_14 1_555 1_555
C1_15 H1_15 1_555 1_555
N2_15 C1_15 1_555 1_555
C2_15 N2_15 1_555 1_555
H2_15 C2_15 1_555 1_555
O3_11 C14_16 1_555 1_555
O7 C14_16 1_555 1_555
Cu4 O3_11 1_555 1_555
N1_16 C1_16 1_555 1_555
C1_16 H1_16 1_555 1_555
N2_16 C1_16 1_555 1_555
C2_16 N2_16 1_555 1_555
H2_16 C2_16 1_555 1_555
C3_16 C2_16 1_555 1_555
C4_16 N1_16 1_555 1_555
H3_16 C4_16 1_555 1_555
C5_15 C3_16 1_555 1_555
C6_15 C5_15 1_555 1_555
C7_15 C6_15 1_555 1_555
C8_15 C7_15 1_555 1_555
H4_15 C8_15 1_555 1_555
C9_15 C8_15 1_555 1_555
C10_15 C9_15 1_555 1_555
H5_15 C10_15 1_555 1_555
C11_15 C10_15 1_555 1_555
C12_15 C7_15 1_555 1_555
H6_15 C12_15 1_555 1_555
Cu5_16 N1_16 1_555 1_555
C3_16 C4_16 1_555 1_555
C11_15 C12_15 1_555 1_555
Cu3 O1_16 1_555 1_555
O1_16 C13_16 1_555 1_555
O5_2 C13_16 1_555 1_555
N3_16 Cu3 1_555 1_555
O6_6 Cu3 1_555 1_555
Cu4 O1_17 1_555 1_555
N1_17 C1_17 1_555 1_555
C1_17 H1_17 1_555 1_555
N2_17 C1_17 1_555 1_555
C2_17 N2_17 1_555 1_555
H2_17 C2_17 1_555 1_555
C3_17 C2_17 1_555 1_555
C4_17 N1_17 1_555 1_555
H3_17 C4_17 1_555 1_555
C5_16 C3_17 1_555 1_555
C6_16 C5_16 1_555 1_555
C7_16 C6_16 1_555 1_555
C8_16 C7_16 1_555 1_555
H4_16 C8_16 1_555 1_555
C9_16 C8_16 1_555 1_555
C10_16 C9_16 1_555 1_555
H5_16 C10_16 1_555 1_555
C11_16 C10_16 1_555 1_555
C12_16 C7_16 1_555 1_555
H6_16 C12_16 1_555 1_555
C13_17 C11_16 1_555 1_555
O1_17 C13_17 1_555 1_555
O5 C13_17 1_555 1_555
Cu5_17 N1_17 1_555 1_555
N3_17 Cu4 1_555 1_555
C3_17 C4_17 1_555 1_555
C11_16 C12_16 1_555 1_555
O3_12 C14_17 1_555 1_555
O7_3 C14_17 1_555 1_555
Cu3_2 O3_12 1_555 1_555
Cu3_2 O1_18 1_555 1_555
O1_18 C13_18 1_555 1_555
O5_3 C13_18 1_555 1_555
N3_18 Cu3_2 1_555 1_555
N1_18 C1_18 1_555 1_555
C1_18 H1_18 1_555 1_555
N2_18 C1_18 1_555 1_555
C2_18 N2_18 1_555 1_555
H2_18 C2_18 1_555 1_555
C3_18 C2_18 1_555 1_555
C4_18 N1_18 1_555 1_555
H3_18 C4_18 1_555 1_555
C5_17 C3_18 1_555 1_555
C6_17 C5_17 1_555 1_555
C7_17 C6_17 1_555 1_555
C8_17 C7_17 1_555 1_555
H4_17 C8_17 1_555 1_555
C9_17 C8_17 1_555 1_555
C10_17 C9_17 1_555 1_555
H5_17 C10_17 1_555 1_555
C11_17 C10_17 1_555 1_555
C12_17 C7_17 1_555 1_555
H6_17 C12_17 1_555 1_555
C14_18 C9_17 1_555 1_555
O6_6 C14_18 1_555 1_555
O7_2 C14_18 1_555 1_555
Cu5_18 N1_18 1_555 1_555
C3_18 C4_18 1_555 1_555
C11_17 C12_17 1_555 1_555
Cu5_18 O1_19 1_555 1_555
N3_12 C1_19 1_555 1_555
C1_19 H1_19 1_555 1_555
N2_19 C1_19 1_555 1_555
C2_19 N2_19 1_555 1_555
H2_19 C2_19 1_555 1_555
C3_19 C2_19 1_555 1_555
C4_19 N3_12 1_555 1_555
H3_19 C4_19 1_555 1_555
C5_18 C3_19 1_555 1_555
C6_18 C5_18 1_555 1_555
C7_18 C6_18 1_555 1_555
C8_18 C7_18 1_555 1_555
H4_18 C8_18 1_555 1_555
C9_18 C8_18 1_555 1_555
C10_18 C9_18 1_555 1_555
H5_18 C10_18 1_555 1_555
C11_18 C10_18 1_555 1_555
C12_18 C7_18 1_555 1_555
H6_18 C12_18 1_555 1_555
C13_19 C11_18 1_555 1_555
O1_19 C13_19 1_555 1_555
O2_10 C13_19 1_555 1_555
C14_19 C9_18 1_555 1_555
O3_13 C14_19 1_555 1_555
O4_10 C14_19 1_555 1_555
Cu5_17 O3_13 1_555 1_555
Cu5_15 O4_10 1_555 1_555
Cu5_14 Cu5_18 1_555 1_555
O5_10 Cu5_18 1_555 1_555
O6_7 Cu5_18 1_555 1_555
O7_10 Cu5_18 1_555 1_555
C3_19 C4_19 1_555 1_555
C11_18 C12_18 1_555 1_555
O2_10 Cu5_14 1_555 1_555
Cu5_17 Cu5_15 1_555 1_555
Cu5_17 O1_20 1_555 1_555
H4_19 C8_19 1_555 1_555
C9_19 C8_19 1_555 1_555
C10_19 C9_19 1_555 1_555
H5_19 C10_19 1_555 1_555
C11_19 C10_19 1_555 1_555
C13_20 C11_19 1_555 1_555
O1_20 C13_20 1_555 1_555
O2_11 C13_20 1_555 1_555
C14_20 C9_19 1_555 1_555
O3_14 C14_20 1_555 1_555
O4_11 C14_20 1_555 1_555
Cu5_16 O3_14 1_555 1_555
Cu5_13 O4_11 1_555 1_555
O5_11 Cu5_17 1_555 1_555
O7_11 Cu5_17 1_555 1_555
C11_19 C12_19 1_555 1_555
O2_11 Cu5_15 1_555 1_555
Cu5_16 Cu5_13 1_555 1_555
N3_11 C1_20 1_555 1_555
C1_20 H1_20 1_555 1_555
N2_20 C1_20 1_555 1_555
C2_20 N2_20 1_555 1_555
H2_20 C2_20 1_555 1_555
C3_20 C2_20 1_555 1_555
C4_20 N3_11 1_555 1_555
H3_20 C4_20 1_555 1_555
C5_19 C3_20 1_555 1_555
C6_19 C5_19 1_555 1_555
C7_19 C6_19 1_555 1_555
C3_20 C4_20 1_555 1_555
N3_10 C1_21 1_555 1_555
C1_21 H1_21 1_555 1_555
N2_21 C1_21 1_555 1_555
C2_21 N2_21 1_555 1_555
H2_21 C2_21 1_555 1_555
C3_21 C2_21 1_555 1_555
C4_21 N3_10 1_555 1_555
H3_21 C4_21 1_555 1_555
C5_20 C3_21 1_555 1_555
C6_20 C5_20 1_555 1_555
C7_20 C6_20 1_555 1_555
C3_21 C4_21 1_555 1_555
Cu5_16 O1_21 1_555 1_555
H4_20 C8_20 1_555 1_555
C9_20 C8_20 1_555 1_555
C10_20 C9_20 1_555 1_555
H5_20 C10_20 1_555 1_555
C11_20 C10_20 1_555 1_555
C13_21 C11_20 1_555 1_555
O1_21 C13_21 1_555 1_555
O2_12 C13_21 1_555 1_555
C14_21 C9_20 1_555 1_555
O6_7 C14_21 1_555 1_555
O4_12 C14_21 1_555 1_555
Cu5_14 O4_12 1_555 1_555
O5_12 Cu5_16 1_555 1_555
O7_12 Cu5_16 1_555 1_555
C11_20 C12_20 1_555 1_555
O2_12 Cu5_13 1_555 1_555
Cu5_9 O1_22 1_555 1_555
N3_15 C1_22 1_555 1_555
C1_22 H1_22 1_555 1_555
N2_22 C1_22 1_555 1_555
C2_22 N2_22 1_555 1_555
H2_22 C2_22 1_555 1_555
C3_22 C2_22 1_555 1_555
C4_22 N3_15 1_555 1_555
H3_22 C4_22 1_555 1_555
C5_21 C3_22 1_555 1_555
C6_21 C5_21 1_555 1_555
C7_21 C6_21 1_555 1_555
C8_21 C7_21 1_555 1_555
H4_21 C8_21 1_555 1_555
C9_21 C8_21 1_555 1_555
C10_21 C9_21 1_555 1_555
H5_21 C10_21 1_555 1_555
C11_21 C10_21 1_555 1_555
C12_21 C7_21 1_555 1_555
H6_21 C12_21 1_555 1_555
C13_22 C11_21 1_555 1_555
O1_22 C13_22 1_555 1_555
O2_13 C13_22 1_555 1_555
C14_22 C9_21 1_555 1_555
O3_15 C14_22 1_555 1_555
O4_13 C14_22 1_555 1_555
Cu5_8 O3_15 1_555 1_555
Cu5_12 O4_13 1_555 1_555
Cu5_11 Cu5_9 1_555 1_555
O5_13 Cu5_9 1_555 1_555
O6_8 Cu5_9 1_555 1_555
O7_13 Cu5_9 1_555 1_555
C3_22 C4_22 1_555 1_555
C11_21 C12_21 1_555 1_555
O2_13 Cu5_11 1_555 1_555
Cu5_8 Cu5_12 1_555 1_555
Cu5_8 O1_23 1_555 1_555
H4_22 C8_22 1_555 1_555
C9_22 C8_22 1_555 1_555
C10_22 C9_22 1_555 1_555
H5_22 C10_22 1_555 1_555
C11_22 C10_22 1_555 1_555
C13_23 C11_22 1_555 1_555
O1_23 C13_23 1_555 1_555
O2_14 C13_23 1_555 1_555
C14_23 C9_22 1_555 1_555
O3_16 C14_23 1_555 1_555
O4_14 C14_23 1_555 1_555
Cu5_7 O3_16 1_555 1_555
Cu5_10 O4_14 1_555 1_555
O5_14 Cu5_8 1_555 1_555
O7_14 Cu5_8 1_555 1_555
C11_22 C12_22 1_555 1_555
O2_14 Cu5_12 1_555 1_555
Cu5_7 Cu5_10 1_555 1_555
N3_14 C1_23 1_555 1_555
C1_23 H1_23 1_555 1_555
N2_23 C1_23 1_555 1_555
C2_23 N2_23 1_555 1_555
H2_23 C2_23 1_555 1_555
C3_23 C2_23 1_555 1_555
C4_23 N3_14 1_555 1_555
H3_23 C4_23 1_555 1_555
C5_22 C3_23 1_555 1_555
C6_22 C5_22 1_555 1_555
C7_22 C6_22 1_555 1_555
C3_23 C4_23 1_555 1_555
N3_13 C1_24 1_555 1_555
C1_24 H1_24 1_555 1_555
N2_24 C1_24 1_555 1_555
C2_24 N2_24 1_555 1_555
H2_24 C2_24 1_555 1_555
C3_24 C2_24 1_555 1_555
C4_24 N3_13 1_555 1_555
H3_24 C4_24 1_555 1_555
C5_23 C3_24 1_555 1_555
C6_23 C5_23 1_555 1_555
C7_23 C6_23 1_555 1_555
C3_24 C4_24 1_555 1_555
Cu5_7 O1_24 1_555 1_555
H4_23 C8_23 1_555 1_555
C9_23 C8_23 1_555 1_555
C10_23 C9_23 1_555 1_555
H5_23 C10_23 1_555 1_555
C11_23 C10_23 1_555 1_555
C13_24 C11_23 1_555 1_555
O1_24 C13_24 1_555 1_555
O2_15 C13_24 1_555 1_555
C14_24 C9_23 1_555 1_555
O6_8 C14_24 1_555 1_555
O4_15 C14_24 1_555 1_555
Cu5_11 O4_15 1_555 1_555
O5_15 Cu5_7 1_555 1_555
O7_15 Cu5_7 1_555 1_555
C11_23 C12_23 1_555 1_555
O2_15 Cu5_10 1_555 1_555
Cu5_12 O1_25 1_555 1_555
O1_25 C13_25 1_555 1_555
O5_14 C13_25 1_555 1_555
O6_9 Cu5_12 1_555 1_555
N3_6 C1_25 1_555 1_555
C1_25 H1_25 1_555 1_555
N2_25 C1_25 1_555 1_555
C2_25 N2_25 1_555 1_555
H2_25 C2_25 1_555 1_555
C3_25 C2_25 1_555 1_555
C4_25 N3_6 1_555 1_555
H3_25 C4_25 1_555 1_555
C3_25 C4_25 1_555 1_555
O3_17 C14_25 1_555 1_555
O7_13 C14_25 1_555 1_555
Cu5_11 O3_17 1_555 1_555
O3_18 C14_26 1_555 1_555
O7_15 C14_26 1_555 1_555
Cu5_10 O3_18 1_555 1_555
Cu5_11 O1_26 1_555 1_555
C6_24 C5_24 1_555 1_555
C7_24 C6_24 1_555 1_555
C8_24 C7_24 1_555 1_555
H4_24 C8_24 1_555 1_555
C9_24 C8_24 1_555 1_555
C10_24 C9_24 1_555 1_555
H5_24 C10_24 1_555 1_555
C11_24 C10_24 1_555 1_555
C12_24 C7_24 1_555 1_555
H6_24 C12_24 1_555 1_555
C13_26 C11_24 1_555 1_555
O1_26 C13_26 1_555 1_555
O5_13 C13_26 1_555 1_555
C11_24 C12_24 1_555 1_555
N3_5 C1_26 1_555 1_555
C1_26 H1_26 1_555 1_555
N2_26 C1_26 1_555 1_555
C2_26 N2_26 1_555 1_555
H2_26 C2_26 1_555 1_555
C3_26 C2_26 1_555 1_555
C4_26 N3_5 1_555 1_555
H3_26 C4_26 1_555 1_555
C3_26 C4_26 1_555 1_555
C6_25 C5_25 1_555 1_555
C7_25 C6_25 1_555 1_555
C8_25 C7_25 1_555 1_555
H4_25 C8_25 1_555 1_555
C9_25 C8_25 1_555 1_555
C10_25 C9_25 1_555 1_555
H5_25 C10_25 1_555 1_555
C11_25 C10_25 1_555 1_555
C12_25 C7_25 1_555 1_555
H6_25 C12_25 1_555 1_555
C14_27 C9_25 1_555 1_555
O6_9 C14_27 1_555 1_555
O7_14 C14_27 1_555 1_555
C11_25 C12_25 1_555 1_555
N3_4 C1_27 1_555 1_555
C1_27 H1_27 1_555 1_555
N2_27 C1_27 1_555 1_555
C2_27 N2_27 1_555 1_555
H2_27 C2_27 1_555 1_555
C3_27 C2_27 1_555 1_555
C4_27 N3_4 1_555 1_555
H3_27 C4_27 1_555 1_555
C3_27 C4_27 1_555 1_555
Cu5_10 O1_27 1_555 1_555
O1_27 C13_27 1_555 1_555
O5_15 C13_27 1_555 1_555
Cu5_3 O1_28 1_555 1_555
C4_28 N3_9 1_555 1_555
H3_28 C4_28 1_555 1_555
C5_26 C3_28 1_555 1_555
C6_26 C5_26 1_555 1_555
C7_26 C6_26 1_555 1_555
C8_26 C7_26 1_555 1_555
H4_26 C8_26 1_555 1_555
C9_26 C8_26 1_555 1_555
C10_26 C9_26 1_555 1_555
H5_26 C10_26 1_555 1_555
C11_26 C10_26 1_555 1_555
C12_26 C7_26 1_555 1_555
H6_26 C12_26 1_555 1_555
C13_28 C11_26 1_555 1_555
O1_28 C13_28 1_555 1_555
O2_16 C13_28 1_555 1_555
C14_28 C9_26 1_555 1_555
O3_19 C14_28 1_555 1_555
O4_16 C14_28 1_555 1_555
Cu5_2 O3_19 1_555 1_555
O6_10 Cu5_3 1_555 1_555
C3_28 C4_28 1_555 1_555
C11_26 C12_26 1_555 1_555
C1_28 H1_28 1_555 1_555
N2_28 C1_28 1_555 1_555
C2_28 N2_28 1_555 1_555
H2_28 C2_28 1_555 1_555
Cu5_2 O1_29 1_555 1_555
N3_8 C1_29 1_555 1_555
C1_29 H1_29 1_555 1_555
N2_29 C1_29 1_555 1_555
C2_29 N2_29 1_555 1_555
H2_29 C2_29 1_555 1_555
C3_29 C2_29 1_555 1_555
C4_29 N3_8 1_555 1_555
H3_29 C4_29 1_555 1_555
C5_27 C3_29 1_555 1_555
C6_27 C5_27 1_555 1_555
C7_27 C6_27 1_555 1_555
C8_27 C7_27 1_555 1_555
H4_27 C8_27 1_555 1_555
C9_27 C8_27 1_555 1_555
C10_27 C9_27 1_555 1_555
H5_27 C10_27 1_555 1_555
C11_27 C10_27 1_555 1_555
C12_27 C7_27 1_555 1_555
H6_27 C12_27 1_555 1_555
C13_29 C11_27 1_555 1_555
O1_29 C13_29 1_555 1_555
O2_17 C13_29 1_555 1_555
C14_29 C9_27 1_555 1_555
O3_20 C14_29 1_555 1_555
O4_17 C14_29 1_555 1_555
Cu5 O3_20 1_555 1_555
Cu5_4 O4_17 1_555 1_555
C3_29 C4_29 1_555 1_555
C11_27 C12_27 1_555 1_555
Cu5 Cu5_4 1_555 1_555
C1_30 H1_30 1_555 1_555
N2_30 C1_30 1_555 1_555
C2_30 N2_30 1_555 1_555
H2_30 C2_30 1_555 1_555
Cu5 O1_30 1_555 1_555
C4_30 N3_7 1_555 1_555
H3_30 C4_30 1_555 1_555
C5_28 C3_30 1_555 1_555
C6_28 C5_28 1_555 1_555
C7_28 C6_28 1_555 1_555
C8_28 C7_28 1_555 1_555
H4_28 C8_28 1_555 1_555
C9_28 C8_28 1_555 1_555
C10_28 C9_28 1_555 1_555
H5_28 C10_28 1_555 1_555
C11_28 C10_28 1_555 1_555
C12_28 C7_28 1_555 1_555
H6_28 C12_28 1_555 1_555
C13_30 C11_28 1_555 1_555
O1_30 C13_30 1_555 1_555
O2_18 C13_30 1_555 1_555
C14_30 C9_28 1_555 1_555
O6_10 C14_30 1_555 1_555
O4_18 C14_30 1_555 1_555
O5_18 Cu5 1_555 1_555
O7_18 Cu5 1_555 1_555
C3_30 C4_30 1_555 1_555
C11_28 C12_28 1_555 1_555
O2_18 Cu5_4 1_555 1_555
Cu5_6 O1_31 1_555 1_555
C4_31 N3_18 1_555 1_555
H3_31 C4_31 1_555 1_555
C5_29 C3_31 1_555 1_555
C6_29 C5_29 1_555 1_555
C7_29 C6_29 1_555 1_555
C8_29 C7_29 1_555 1_555
H4_29 C8_29 1_555 1_555
C9_29 C8_29 1_555 1_555
C10_29 C9_29 1_555 1_555
H5_29 C10_29 1_555 1_555
C11_29 C10_29 1_555 1_555
C12_29 C7_29 1_555 1_555
H6_29 C12_29 1_555 1_555
C13_31 C11_29 1_555 1_555
O1_31 C13_31 1_555 1_555
O5_17 C13_31 1_555 1_555
C14_31 C9_29 1_555 1_555
O3_21 C14_31 1_555 1_555
O7_16 C14_31 1_555 1_555
Cu5_5 O3_21 1_555 1_555
O6_11 Cu5_6 1_555 1_555
C3_31 C4_31 1_555 1_555
C11_29 C12_29 1_555 1_555
C1_31 H1_31 1_555 1_555
N2_31 C1_31 1_555 1_555
C2_31 N2_31 1_555 1_555
H2_31 C2_31 1_555 1_555
Cu5_5 O1_32 1_555 1_555
N3_17 C1_32 1_555 1_555
C1_32 H1_32 1_555 1_555
N2_32 C1_32 1_555 1_555
C2_32 N2_32 1_555 1_555
H2_32 C2_32 1_555 1_555
C3_32 C2_32 1_555 1_555
C4_32 N3_17 1_555 1_555
H3_32 C4_32 1_555 1_555
C5_30 C3_32 1_555 1_555
C6_30 C5_30 1_555 1_555
C7_30 C6_30 1_555 1_555
C8_30 C7_30 1_555 1_555
H4_30 C8_30 1_555 1_555
C9_30 C8_30 1_555 1_555
C10_30 C9_30 1_555 1_555
H5_30 C10_30 1_555 1_555
C11_30 C10_30 1_555 1_555
C12_30 C7_30 1_555 1_555
H6_30 C12_30 1_555 1_555
C13_32 C11_30 1_555 1_555
O1_32 C13_32 1_555 1_555
O5_16 C13_32 1_555 1_555
C14_32 C9_30 1_555 1_555
O3_22 C14_32 1_555 1_555
O7_18 C14_32 1_555 1_555
Cu5_4 O3_22 1_555 1_555
C3_32 C4_32 1_555 1_555
C11_30 C12_30 1_555 1_555
C1_33 H1_33 1_555 1_555
N2_33 C1_33 1_555 1_555
C2_33 N2_33 1_555 1_555
H2_33 C2_33 1_555 1_555
Cu5_4 O1_33 1_555 1_555
C4_33 N3_16 1_555 1_555
H3_33 C4_33 1_555 1_555
C5_31 C3_33 1_555 1_555
C6_31 C5_31 1_555 1_555
C7_31 C6_31 1_555 1_555
C8_31 C7_31 1_555 1_555
H4_31 C8_31 1_555 1_555
C9_31 C8_31 1_555 1_555
C10_31 C9_31 1_555 1_555
H5_31 C10_31 1_555 1_555
C11_31 C10_31 1_555 1_555
C12_31 C7_31 1_555 1_555
H6_31 C12_31 1_555 1_555
C13_33 C11_31 1_555 1_555
O1_33 C13_33 1_555 1_555
O5_18 C13_33 1_555 1_555
C14_33 C9_31 1_555 1_555
O6_11 C14_33 1_555 1_555
O7_17 C14_33 1_555 1_555
C3_33 C4_33 1_555 1_555
C11_31 C12_31 1_555 1_555
Cu5_15 O1_34 1_555 1_555
O1_34 C13_34 1_555 1_555
O5_11 C13_34 1_555 1_555
O6_12 Cu5_15 1_555 1_555
N3_3 C1_34 1_555 1_555
C1_34 H1_34 1_555 1_555
N2_34 C1_34 1_555 1_555
C2_34 N2_34 1_555 1_555
H2_34 C2_34 1_555 1_555
C3_34 C2_34 1_555 1_555
C4_34 N3_3 1_555 1_555
H3_34 C4_34 1_555 1_555
C5_32 C3_34 1_555 1_555
C6_32 C5_32 1_555 1_555
C7_32 C6_32 1_555 1_555
C8_32 C7_32 1_555 1_555
H4_32 C8_32 1_555 1_555
C9_32 C8_32 1_555 1_555
C10_32 C9_32 1_555 1_555
H5_32 C10_32 1_555 1_555
C11_32 C10_32 1_555 1_555
C12_32 C7_32 1_555 1_555
H6_32 C12_32 1_555 1_555
C3_34 C4_34 1_555 1_555
C11_32 C12_32 1_555 1_555
O3_23 C14_34 1_555 1_555
O7_10 C14_34 1_555 1_555
Cu5_14 O3_23 1_555 1_555
O3_24 C14_35 1_555 1_555
O7_12 C14_35 1_555 1_555
Cu5_13 O3_24 1_555 1_555
Cu5_14 O1_35 1_555 1_555
N3_2 C1_35 1_555 1_555
C1_35 H1_35 1_555 1_555
N2_35 C1_35 1_555 1_555
C2_35 N2_35 1_555 1_555
H2_35 C2_35 1_555 1_555
C3_35 C2_35 1_555 1_555
C4_35 N3_2 1_555 1_555
H3_35 C4_35 1_555 1_555
C5_33 C3_35 1_555 1_555
C6_33 C5_33 1_555 1_555
C7_33 C6_33 1_555 1_555
C8_33 C7_33 1_555 1_555
H4_33 C8_33 1_555 1_555
C9_33 C8_33 1_555 1_555
C10_33 C9_33 1_555 1_555
H5_33 C10_33 1_555 1_555
C11_33 C10_33 1_555 1_555
C12_33 C7_33 1_555 1_555
H6_33 C12_33 1_555 1_555
C13_35 C11_33 1_555 1_555
O1_35 C13_35 1_555 1_555
O5_10 C13_35 1_555 1_555
C3_35 C4_35 1_555 1_555
C11_33 C12_33 1_555 1_555
N3 C1_36 1_555 1_555
C1_36 H1_36 1_555 1_555
N2_36 C1_36 1_555 1_555
C2_36 N2_36 1_555 1_555
H2_36 C2_36 1_555 1_555
C3_36 C2_36 1_555 1_555
C4_36 N3 1_555 1_555
H3_36 C4_36 1_555 1_555
C5_34 C3_36 1_555 1_555
C6_34 C5_34 1_555 1_555
C7_34 C6_34 1_555 1_555
C8_34 C7_34 1_555 1_555
H4_34 C8_34 1_555 1_555
C9_34 C8_34 1_555 1_555
C10_34 C9_34 1_555 1_555
H5_34 C10_34 1_555 1_555
C11_34 C10_34 1_555 1_555
C12_34 C7_34 1_555 1_555
H6_34 C12_34 1_555 1_555
C14_36 C9_34 1_555 1_555
O6_12 C14_36 1_555 1_555
O7_11 C14_36 1_555 1_555
C3_36 C4_36 1_555 1_555
C11_34 C12_34 1_555 1_555
Cu5_13 O1_36 1_555 1_555
O1_36 C13_36 1_555 1_555
O5_12 C13_36 1_555 1_555
C6_35 C5_35 1_555 1_555
C7_35 C6_35 1_555 1_555
C8_35 C7_35 1_555 1_555
H4_35 C8_35 1_555 1_555
C9_35 C8_35 1_555 1_555
C10_35 C9_35 1_555 1_555
H5_35 C10_35 1_555 1_555
C11_35 C10_35 1_555 1_555
C12_35 C7_35 1_555 1_555
H6_35 C12_35 1_555 1_555
C11_35 C12_35 1_555 1_555
C6_36 C5_36 1_555 1_555
C7_36 C6_36 1_555 1_555
C8_36 C7_36 1_555 1_555
H4_36 C8_36 1_555 1_555
C9_36 C8_36 1_555 1_555
C10_36 C9_36 1_555 1_555
H5_36 C10_36 1_555 1_555
C11_36 C10_36 1_555 1_555
C12_36 C7_36 1_555 1_555
H6_36 C12_36 1_555 1_555
C11_36 C12_36 1_555 1_555

#END
