
###############################################################################
#
# This file contains modified crystal structure data generated from the
# MOF subset of the Cambridge Structural Database (CSD) v543 
# hosted by the Cambridge Crystallographic Data Centre (CCDC).
#
# This work is licensed under the Creative Commons
# Attribution-NonCommercial-ShareAlike 4.0 International License.
# To view a copy of this license, visit
# http://creativecommons.org/licenses/by-nc-sa/4.0/
# or send a letter to
# Creative Commons, PO Box 1866, Mountain View, CA 94042, USA.
#
# CIF created using the CSD Python API on 29 September 2022
# The structure has been converted into the P1 space group
# The structure has a 3D framework
# The original CSD entry YINCUV is in the monoclinic crystal system
# The framework has been calculated to contain at least 10.0% void space
# The void calculation uses a probe of radius 1.32A, grid spacing 0.4
#
###############################################################################

data_YINCUV
_chemical_formula_moiety         '(C172 H112 Mn12 O72)n'
_symmetry_cell_setting           triclinic
_symmetry_space_group_name_H-M   'P 1'
_symmetry_Int_Tables_number      1
_space_group_name_Hall           'P 1'
loop_
_symmetry_equiv_pos_site_id
_symmetry_equiv_pos_as_xyz
1 x,y,z
_cell_length_a                   13.134(3)
_cell_length_b                   13.102(3)
_cell_length_c                   25.336(5)
_cell_angle_alpha                90
_cell_angle_beta                 93.935(4)
_cell_angle_gamma                90
_cell_volume                     4349.58
loop_
_atom_site_label
_atom_site_type_symbol
_atom_site_fract_x
_atom_site_fract_y
_atom_site_fract_z
O2 O 0.1286(3) 0.2047(3) 0.47696(16)
H1 H 0.1573 0.2549 0.4932
H2 H 0.1600 0.1500 0.4858
O15 O 0.0015(5) 0.3313(3) 0.54516(16)
H25 H 0.0153 0.3890 0.5255
C43 C 0.0033(11) 0.3450(11) 0.5916(9)
H26 H 0.0195 0.4151 0.5992
H27 H 0.0542 0.3018 0.6090
O38 O 0.0200(2) 0.0952(2) 0.56188(10)
Mn9 Mn 0.0000 0.5000 0.0000
Mn9_2 Mn 0.0000 0.5000 1.0000
O12 O 0.0612(2) 0.9081(2) 0.24863(10)
C28 C 0.0014(3) 0.9458(3) 0.33230(13)
H17 H 0.0393 0.8918 0.3472
C37 C 0.0840(3) 0.8343(3) 0.16597(16)
H22 H 0.1495 0.8617 0.1679
C38 C 0.0476(3) 0.7719(3) 0.12206(15)
H23 H 0.0906 0.7563 0.0955
C40 C 0.0169(3) 0.8528(3) 0.20612(14)
Mn19 Mn 0.02868(4) 0.80616(4) 0.50167(2)
O4 O 0.7645(2) 0.4084(2) 0.05009(11)
O5 O 0.4371(3) 0.2055(3) 0.93167(14)
C3 C 0.3561(4) 0.1489(4) 0.90611(19)
O8 O 0.9348(2) 0.4104(2) 0.05992(11)
C4 C 0.8497(3) 0.3849(3) 0.07502(13)
C5 C 0.8426(3) 0.3244(3) 0.12436(12)
C6 C 0.7503(3) 0.2971(3) 0.14148(15)
H3 H 0.6912 0.3149 0.1213
C7 C 0.9328(3) 0.2957(3) 0.15465(14)
H4 H 0.9965 0.3097 0.1425
Mn1 Mn 0.5000 0.0000 0.5000
Mn2 Mn 0.76149(4) 0.05282(4) 0.484832(19)
Mn3 Mn 0.97132(4) 0.19384(4) 0.49833(2)
H5 H 0.5523 0.0144 0.6259
C11 C 0.4620(3) 0.0180(3) 0.76076(13)
C16 C 0.5331(4) 0.0764(4) 0.78969(16)
H8 H 0.5980 0.0852 0.7779
C18 C 0.5076(3) 0.1222(3) 0.83672(17)
H10 H 0.5554 0.1607 0.8569
C19 C 0.3640(3) 0.0053(3) 0.77543(15)
C20 C 0.3354(3) 0.0485(4) 0.82262(16)
H12 H 0.2702 0.0375 0.8336
C21 C 0.4054(3) 0.1085(4) 0.85349(15)
O11 O 0.8154(2) 0.1771(2) 0.26767(10)
C27 C 0.9371(3) 0.0398(2) 0.25509(13)
H16 H 0.9333 0.0489 0.2186
C29 C 0.8823(3) 0.1017(3) 0.28708(13)
C30 C 0.9459(2) 0.0113(2) 0.36411(11)
C32 C 0.7420(3) 0.2431(3) 0.18838(15)
H18 H 0.6789 0.2216 0.1987
C34 C 0.8300(3) 0.2228(3) 0.21879(13)
C35 C 0.8862(3) 0.0879(3) 0.34264(13)
H20 H 0.8491 0.1299 0.3639
C36 C 0.9249(3) 0.2462(3) 0.20302(15)
H21 H 0.9832 0.2294 0.2242
O14 O 0.91188(18) 0.0596(2) 0.45211(9)
O16 O 0.64945(19) 0.0211(2) 0.54624(9)
O18 O 0.2828(2) 0.1318(3) 0.91605(12)
H28 H 0.9377 0.3290 0.6040
O21 O 0.31463(19) 0.3051(2) 0.02535(9)
C44 C 0.2592(3) 0.2255(4) 0.03612(18)
O24 O 0.18042(17) 0.36613(19) 0.92596(10)
O25 O 0.0236(2) 0.3596(2) 0.95818(11)
C45 C 0.0915(4) 0.3352(3) 0.92478(14)
O27 O 0.5199(2) 0.0263(3) 0.28605(10)
O28 O 0.1842(2) 0.1788(3) 0.25354(11)
C51 C 0.2357(3) 0.2188(3) 0.09507(14)
C52 C 0.3056(3) 0.0502(3) 0.36756(12)
C53 C 0.4009(3) 0.0210(3) 0.35177(12)
C55 C 0.2324(3) 0.0995(3) 0.33538(12)
H34 H 0.1689 0.1156 0.3473
C56 C 0.2016(3) 0.1905(3) 0.19932(15)
C57 C 0.2665(3) 0.2936(3) 0.13123(15)
H35 H 0.2999 0.3514 0.1200
C58 C 0.2572(3) 0.1249(3) 0.28371(14)
C60 C 0.3516(3) 0.1002(3) 0.26493(14)
H37 H 0.3672 0.1174 0.2308
H39 H 0.6831 0.0318 0.2459
C65 C 0.4220(3) 0.0487(3) 0.29945(15)
C66 C 0.1678(4) 0.1169(4) 0.16357(19)
H41 H 0.1339 0.0593 0.1747
C67 C 0.2474(3) 0.2825(4) 0.18509(14)
H42 H 0.2642 0.3333 0.2098
C68 C 0.1855(4) 0.1303(4) 0.10950(15)
H43 H 0.1644 0.0816 0.0844
C69 C 0.2809(3) 0.0181(3) 0.42179(13)
C74 C 0.0019(3) 0.0364(3) 0.72097(13)
C76 C 0.0823(3) 0.1817(3) 0.79726(14)
H47 H 0.1266 0.1652 0.7714
C82 C 0.0502(3) 0.2649(3) 0.88072(14)
C84 C 0.1144(3) 0.2420(4) 0.84040(16)
H52 H 0.1805 0.2679 0.8426
C85 C 0.0525(2) 0.0093(3) 0.57688(13)
O31 O 0.2257(3) 0.1616(2) 0.00563(10)
O35 O 0.19175(19) 0.0295(2) 0.43631(10)
O39 O 0.81463(19) 0.1949(2) 0.52535(9)
O42 O 0.2645(2) 0.0916(2) 0.55009(11)
O44 O 0.9371(3) 0.2945(3) 0.43167(14)
O45 O 0.68042(17) 0.13387(19) 0.42596(10)
O47 O 0.5236(2) 0.1404(2) 0.45818(11)
O50 O 0.4348(2) 0.0896(2) 0.55992(11)
Mn9_3 Mn 1.0000 0.5000 0.0000
Mn12 Mn 0.73851(4) 0.55282(4) 0.015168(19)
Mn15 Mn 0.26149(4) 0.44718(4) 0.984832(19)
Mn21 Mn 0.47132(4) 0.30616(4) 0.99833(2)
Mn9_4 Mn 1.0000 0.5000 1.0000
Mn18 Mn 0.52868(4) 0.69384(4) 0.00167(2)
O1 O 0.9800(2) 0.9048(2) 0.43812(10)
O3 O 0.68537(19) 0.6949(2) 0.97465(9)
C1 C 0.7408(3) 0.7745(4) 0.96388(18)
O6 O 0.81958(17) 0.63387(19) 0.07404(10)
O7 O 0.9764(2) 0.6404(2) 0.04182(11)
C2 C 0.9085(4) 0.6648(3) 0.07522(14)
Mn1_2 Mn 0.5000 1.0000 0.5000
O9 O 0.4801(2) 0.9737(3) 0.71395(10)
O10 O 0.8158(2) 0.8212(3) 0.74646(11)
C8 C 0.7643(3) 0.7812(3) 0.90493(14)
C9 C 0.6944(3) 0.9498(3) 0.63244(12)
C10 C 0.5991(3) 0.9790(3) 0.64823(12)
C12 C 0.7676(3) 0.9005(3) 0.66462(12)
H6 H 0.8311 0.8844 0.6527
C13 C 0.7984(3) 0.8095(3) 0.80068(15)
C14 C 0.7335(3) 0.7064(3) 0.86877(15)
H7 H 0.7001 0.6486 0.8800
C15 C 0.7428(3) 0.8751(3) 0.71629(14)
C17 C 0.6484(3) 0.8998(3) 0.73507(14)
H9 H 0.6328 0.8826 0.7692
H11 H 0.3169 0.9682 0.7541
C22 C 0.5780(3) 0.9513(3) 0.70055(15)
C23 C 0.8322(4) 0.8831(4) 0.83643(19)
H13 H 0.8661 0.9407 0.8253
C24 C 0.7526(3) 0.7175(4) 0.81491(14)
H14 H 0.7358 0.6667 0.7902
C25 C 0.8145(4) 0.8697(4) 0.89050(15)
H15 H 0.8356 0.9184 0.9156
C26 C 0.7191(3) 0.9819(3) 0.57821(13)
C31 C 0.9981(3) 0.9636(3) 0.27903(13)
C33 C 0.9177(3) 0.8183(3) 0.20274(14)
H19 H 0.8734 0.8348 0.2286
C39 C 0.9498(3) 0.7351(3) 0.11928(14)
C41 C 0.8856(3) 0.7580(4) 0.15960(16)
H24 H 0.8195 0.7321 0.1574
C42 C 0.9475(2) 0.9907(3) 0.42312(13)
O13 O 0.7743(3) 0.8384(2) 0.99437(10)
O17 O 0.80825(19) 0.9705(2) 0.56369(10)
O22 O 0.2355(2) 0.5916(2) 0.94991(11)
O23 O 0.5629(3) 0.7945(3) 0.06833(14)
C46 C 0.6439(4) 0.8511(4) 0.09389(19)
O26 O 0.0652(2) 0.5896(2) 0.94008(11)
C47 C 0.1503(3) 0.6151(3) 0.92498(13)
C48 C 0.1574(3) 0.6756(3) 0.87564(12)
C49 C 0.2497(3) 0.7029(3) 0.85852(15)
H31 H 0.3088 0.6851 0.8787
C50 C 0.0672(3) 0.7043(3) 0.84535(14)
H32 H 0.0035 0.6903 0.8575
Mn4 Mn 0.23851(4) 0.94718(4) 0.515168(19)
H33 H 0.4477 0.9856 0.3741
C54 C 0.5380(3) 0.9820(3) 0.23924(13)
C59 C 0.4669(4) 0.9236(4) 0.21031(16)
H36 H 0.4020 0.9148 0.2221
C61 C 0.4924(3) 0.8778(3) 0.16328(17)
H38 H 0.4446 0.8393 0.1431
C62 C 0.6360(3) 0.9947(3) 0.22457(15)
C63 C 0.6646(3) 0.9515(4) 0.17738(16)
H40 H 0.7298 0.9625 0.1664
C64 C 0.5946(3) 0.8915(4) 0.14651(15)
O29 O 0.1846(2) 0.8229(2) 0.73233(10)
C70 C 0.0629(3) 0.9602(2) 0.74491(13)
H44 H 0.0667 0.9511 0.7814
C72 C 0.1177(3) 0.8983(3) 0.71292(13)
C73 C 0.0541(2) 0.9887(2) 0.63589(11)
C75 C 0.2580(3) 0.7569(3) 0.81162(15)
H46 H 0.3211 0.7784 0.8013
C77 C 0.1700(3) 0.7772(3) 0.78121(13)
C78 C 0.1138(3) 0.9121(3) 0.65736(13)
H48 H 0.1509 0.8701 0.6361
C79 C 0.0751(3) 0.7538(3) 0.79698(15)
H49 H 0.0168 0.7706 0.7758
O32 O 0.08812(18) 0.9404(2) 0.54789(9)
O34 O 0.35055(19) 0.9789(2) 0.45376(9)
O36 O 0.7172(2) 0.8682(3) 0.08395(12)
H56 H 0.0623 0.6710 0.3960
O40 O 0.18537(19) 0.8051(2) 0.47465(9)
O41 O 0.7355(2) 0.9084(2) 0.44991(11)
O43 O 0.0629(3) 0.7055(3) 0.56833(14)
O46 O 0.31958(17) 0.86613(19) 0.57404(10)
O48 O 0.4764(2) 0.8596(2) 0.54182(11)
O49 O 0.5652(2) 0.9104(2) 0.44008(11)
O30 O 0.9388(2) 0.0919(2) 0.75137(10)
C71 C 0.9986(3) 0.0542(3) 0.66770(13)
H45 H 0.9607 0.1082 0.6528
C80 C 0.9160(3) 0.1657(3) 0.83403(16)
H50 H 0.8505 0.1383 0.8321
C81 C 0.9524(3) 0.2281(3) 0.87794(15)
H51 H 0.9094 0.2437 0.9045
C83 C 0.9831(3) 0.1472(3) 0.79388(14)
O20 O 0.8714(3) 0.7953(3) 0.52304(16)
H29 H 0.8427 0.7451 0.5068
H30 H 0.8400 0.8500 0.5142
O33 O 0.9985(5) 0.6687(3) 0.45484(16)
H53 H 0.9847 0.6110 0.4745
C86 C 0.9967(11) 0.6550(11) 0.4084(9)
H54 H 0.9805 0.5849 0.4008
H55 H 0.9458 0.6982 0.3910
C44_2 C 0.2408(3) 0.7255(4) 0.46388(18)
O28_2 O 0.3158(2) 0.6788(3) 0.24646(11)
C51_2 C 0.2643(3) 0.7188(3) 0.40493(14)
C52_2 C 0.1944(3) 0.5502(3) 0.13244(12)
C53_2 C 0.0991(3) 0.5210(3) 0.14823(12)
H33_2 H 0.0523 0.4856 0.1259
C55_2 C 0.2676(3) 0.5995(3) 0.16462(12)
H34_2 H 0.3311 0.6156 0.1527
C56_2 C 0.2984(3) 0.6905(3) 0.30068(15)
C57_2 C 0.2335(3) 0.7936(3) 0.36877(15)
H35_2 H 0.2001 0.8514 0.3800
C58_2 C 0.2428(3) 0.6249(3) 0.21629(14)
C59_2 C 0.0331(4) 0.4236(4) 0.28969(16)
H36_2 H 0.0980 0.4148 0.2779
C60_2 C 0.1484(3) 0.6002(3) 0.23507(14)
H37_2 H 0.1328 0.6174 0.2692
C61_2 C 0.0076(3) 0.3778(3) 0.33672(17)
H38_2 H 0.0554 0.3393 0.3569
C65_2 C 0.0780(3) 0.5487(3) 0.20055(15)
C66_2 C 0.3322(4) 0.6169(4) 0.33643(19)
H41_2 H 0.3661 0.5593 0.3253
C67_2 C 0.2526(3) 0.7825(4) 0.31491(14)
H42_2 H 0.2358 0.8333 0.2902
C68_2 C 0.3145(4) 0.6303(4) 0.39050(15)
H43_2 H 0.3356 0.5816 0.4156
C69_2 C 0.2191(3) 0.5181(3) 0.07821(13)
O31_2 O 0.2743(3) 0.6616(2) 0.49437(10)
O33_2 O 0.5015(5) 0.1687(3) 0.04516(16)
H53_2 H 0.5153 0.1110 0.0255
O34_2 O 0.14945(19) 0.4789(2) 0.04624(9)
O35_2 O 0.30825(19) 0.5295(2) 0.06369(10)
C86_2 C 0.5033(11) 0.1550(11) 0.0916(9)
H54_2 H 0.5195 0.0849 0.0992
H55_2 H 0.5542 0.1982 0.1090
H56_2 H 0.4377 0.1710 0.1040
O37 O 0.5200(2) 0.4048(2) 0.06188(10)
C3_2 C 0.1439(4) 0.6489(4) 0.59389(19)
O9_2 O 0.0199(2) 0.4737(3) 0.78605(10)
C11_2 C 0.0380(3) 0.5180(3) 0.73924(13)
C19_2 C 0.1360(3) 0.5053(3) 0.72457(15)
H11_2 H 0.1831 0.4682 0.7459
C20_2 C 0.1646(3) 0.5485(4) 0.67738(16)
H12_2 H 0.2298 0.5375 0.6664
C21_2 C 0.0946(3) 0.6085(4) 0.64651(15)
O18_2 O 0.2172(2) 0.6318(3) 0.58395(12)
O19 O 0.4800(2) 0.5952(2) 0.93812(10)
O20_2 O 0.6286(3) 0.2953(3) 0.97696(16)
H29_2 H 0.6573 0.2451 0.9932
H30_2 H 0.6600 0.3500 0.9858
C45_2 C 0.4085(4) 0.8352(3) 0.57522(14)
C47_2 C 0.3497(3) 0.1151(3) 0.57502(13)
C48_2 C 0.3426(3) 0.1756(3) 0.62436(12)
C49_2 C 0.2503(3) 0.2029(3) 0.64148(15)
H31_2 H 0.1912 0.1851 0.6213
C50_2 C 0.4328(3) 0.2043(3) 0.65465(14)
H32_2 H 0.4965 0.1903 0.6425
O29_2 O 0.3154(2) 0.3229(2) 0.76767(10)
O30_2 O 0.5612(2) 0.5919(2) 0.74863(10)
C70_2 C 0.4371(3) 0.4602(2) 0.75509(13)
H44_2 H 0.4333 0.4511 0.7186
C71_2 C 0.5014(3) 0.5542(3) 0.83230(13)
H45_2 H 0.5393 0.6082 0.8472
C72_2 C 0.3823(3) 0.3983(3) 0.78708(13)
C73_2 C 0.4459(2) 0.4887(2) 0.86411(11)
C74_2 C 0.4981(3) 0.5364(3) 0.77903(13)
C75_2 C 0.2420(3) 0.2569(3) 0.68838(15)
H46_2 H 0.1789 0.2784 0.6987
C76_2 C 0.4177(3) 0.6817(3) 0.70274(14)
H47_2 H 0.3734 0.6652 0.7286
C77_2 C 0.3300(3) 0.2772(3) 0.71879(13)
C78_2 C 0.3862(3) 0.4121(3) 0.84264(13)
H48_2 H 0.3491 0.3701 0.8639
C79_2 C 0.4249(3) 0.2538(3) 0.70302(15)
H49_2 H 0.4832 0.2706 0.7242
C80_2 C 0.5840(3) 0.6657(3) 0.66597(16)
H50_2 H 0.6495 0.6383 0.6679
C81_2 C 0.5476(3) 0.7281(3) 0.62206(15)
H51_2 H 0.5906 0.7437 0.5955
C82_2 C 0.4498(3) 0.7649(3) 0.61928(14)
C83_2 C 0.5169(3) 0.6472(3) 0.70612(14)
C84_2 C 0.3856(3) 0.7420(4) 0.65960(16)
H52_2 H 0.3195 0.7679 0.6574
C85_2 C 0.4475(2) 0.5093(3) 0.92312(13)
O32_2 O 0.41188(18) 0.4404(2) 0.95211(9)
O2_2 O 0.3714(3) 0.7047(3) 0.02304(16)
H1_2 H 0.3427 0.7549 0.0068
H2_2 H 0.3400 0.6500 0.0142
C2_2 C 0.5915(4) 0.1648(3) 0.42478(14)
C4_2 C 0.6503(3) 0.8849(3) 0.42498(13)
C5_2 C 0.6574(3) 0.8244(3) 0.37564(12)
C6_2 C 0.7497(3) 0.7971(3) 0.35852(15)
H3_2 H 0.8088 0.8149 0.3787
C7_2 C 0.5672(3) 0.7957(3) 0.34535(14)
H4_2 H 0.5035 0.8097 0.3575
O11_2 O 0.6846(2) 0.6771(2) 0.23233(10)
O12_2 O 0.4388(2) 0.4081(2) 0.25137(10)
C27_2 C 0.5629(3) 0.5398(2) 0.24491(13)
H16_2 H 0.5667 0.5489 0.2814
C28_2 C 0.4986(3) 0.4458(3) 0.16770(13)
H17_2 H 0.4607 0.3918 0.1528
C29_2 C 0.6177(3) 0.6017(3) 0.21292(13)
C30_2 C 0.5541(2) 0.5113(2) 0.13589(11)
C31_2 C 0.5019(3) 0.4636(3) 0.22097(13)
C32_2 C 0.7580(3) 0.7431(3) 0.31162(15)
H18_2 H 0.8211 0.7216 0.3013
C33_2 C 0.5823(3) 0.3183(3) 0.29726(14)
H19_2 H 0.6266 0.3348 0.2714
C34_2 C 0.6700(3) 0.7228(3) 0.28121(13)
C35_2 C 0.6138(3) 0.5879(3) 0.15736(13)
H20_2 H 0.6509 0.6299 0.1361
C36_2 C 0.5751(3) 0.7462(3) 0.29698(15)
H21_2 H 0.5168 0.7294 0.2758
C37_2 C 0.4160(3) 0.3343(3) 0.33403(16)
H22_2 H 0.3505 0.3617 0.3321
C38_2 C 0.4524(3) 0.2719(3) 0.37794(15)
H23_2 H 0.4094 0.2563 0.4045
C39_2 C 0.5502(3) 0.2351(3) 0.38072(14)
C40_2 C 0.4831(3) 0.3528(3) 0.29388(14)
C41_2 C 0.6144(3) 0.2580(4) 0.34040(16)
H24_2 H 0.6805 0.2321 0.3426
C42_2 C 0.5525(2) 0.4907(3) 0.07688(13)
O14_2 O 0.58812(18) 0.5596(2) 0.04789(9)
C46_2 C 0.8561(4) 0.3511(4) 0.40611(19)
O27_2 O 0.9801(2) 0.5263(3) 0.21395(10)
C54_2 C 0.9620(3) 0.4820(3) 0.26076(13)
C62_2 C 0.8640(3) 0.4947(3) 0.27543(15)
H39_2 H 0.8169 0.5318 0.2541
C63_2 C 0.8354(3) 0.4515(4) 0.32262(16)
H40_2 H 0.7702 0.4625 0.3336
C64_2 C 0.9054(3) 0.3915(4) 0.35349(15)
O36_2 O 0.7828(2) 0.3682(3) 0.41605(12)
C1_2 C 0.7592(3) 0.2745(4) 0.53612(18)
O10_2 O 0.6842(2) 0.3212(3) 0.75354(11)
C8_2 C 0.7357(3) 0.2812(3) 0.59507(14)
C9_2 C 0.8056(3) 0.4498(3) 0.86756(12)
C10_2 C 0.9009(3) 0.4790(3) 0.85177(12)
H5_2 H 0.9477 0.5144 0.8741
C12_2 C 0.7324(3) 0.4005(3) 0.83538(12)
H6_2 H 0.6689 0.3844 0.8473
C13_2 C 0.7016(3) 0.3095(3) 0.69932(15)
C14_2 C 0.7665(3) 0.2064(3) 0.63123(15)
H7_2 H 0.7999 0.1486 0.6200
C15_2 C 0.7572(3) 0.3751(3) 0.78371(14)
C16_2 C 0.9669(4) 0.5764(4) 0.71031(16)
H8_2 H 0.9020 0.5852 0.7221
C17_2 C 0.8516(3) 0.3998(3) 0.76493(14)
H9_2 H 0.8672 0.3826 0.7308
C18_2 C 0.9924(3) 0.6222(3) 0.66328(17)
H10_2 H 0.9446 0.6607 0.6431
C22_2 C 0.9220(3) 0.4513(3) 0.79945(15)
C23_2 C 0.6678(4) 0.3831(4) 0.66357(19)
H13_2 H 0.6339 0.4407 0.6747
C24_2 C 0.7474(3) 0.2175(4) 0.68509(14)
H14_2 H 0.7642 0.1667 0.7098
C25_2 C 0.6855(4) 0.3697(4) 0.60950(15)
H15_2 H 0.6644 0.4184 0.5844
C26_2 C 0.7809(3) 0.4819(3) 0.92179(13)
O13_2 O 0.7257(3) 0.3384(2) 0.50563(10)
O15_2 O 0.4985(5) 0.8313(3) 0.95484(16)
H25_2 H 0.4847 0.8890 0.9745
O16_2 O 0.85055(19) 0.5211(2) 0.95376(9)
O17_2 O 0.69175(19) 0.4705(2) 0.93631(10)
C43_2 C 0.4967(11) 0.8450(11) 0.9084(9)
H26_2 H 0.4805 0.9151 0.9008
H27_2 H 0.4458 0.8018 0.8910
H28_2 H 0.5623 0.8290 0.8960
loop_
_geom_bond_atom_site_label_1
_geom_bond_atom_site_label_2
_geom_bond_site_symmetry_1
_geom_bond_site_symmetry_2
O2 H1 1_555 1_555
H2 O2 1_555 1_555
H25 O15 1_555 1_555
C43 O15 1_555 1_555
H26 C43 1_555 1_555
H27 C43 1_555 1_555
C28 H17 1_555 1_555
C37 H22 1_555 1_555
C38 C37 1_555 1_555
H23 C38 1_555 1_555
C40 O12 1_555 1_555
C37 C40 1_555 1_555
O4 C4 1_555 1_555
O5 C3 1_555 1_555
C3 C21 1_555 1_555
O8 C4 1_555 1_555
C4 C5 1_555 1_555
C5 C6 1_555 1_555
C6 H3 1_555 1_555
C7 C5 1_555 1_555
H4 C7 1_555 1_555
Mn1 O16 1_555 1_555
Mn2 O14 1_555 1_555
C11 C16 1_555 1_555
C16 H8 1_555 1_555
C18 C16 1_555 1_555
H10 C18 1_555 1_555
C19 C11 1_555 1_555
C20 C19 1_555 1_555
H12 C20 1_555 1_555
C21 C18 1_555 1_555
O11 C29 1_555 1_555
C27 H16 1_555 1_555
C29 C27 1_555 1_555
C32 C6 1_555 1_555
H18 C32 1_555 1_555
C34 O11 1_555 1_555
C35 C29 1_555 1_555
H20 C35 1_555 1_555
C36 C7 1_555 1_555
H21 C36 1_555 1_555
O14 Mn3 1_555 1_555
O16 Mn2 1_555 1_555
O18 C3 1_555 1_555
O38 C85 1_555 1_555
O21 C44 1_555 1_555
C44 C51 1_555 1_555
O24 C45 1_555 1_555
O25 C45 1_555 1_555
C45 C82 1_555 1_555
O28 C56 1_555 1_555
C51 C57 1_555 1_555
C52 C53 1_555 1_555
C55 C52 1_555 1_555
H34 C55 1_555 1_555
C56 C66 1_555 1_555
C57 H35 1_555 1_555
C58 O28 1_555 1_555
C60 C58 1_555 1_555
H37 C60 1_555 1_555
C65 O27 1_555 1_555
C66 H41 1_555 1_555
C67 C56 1_555 1_555
H42 C67 1_555 1_555
C68 C51 1_555 1_555
H43 C68 1_555 1_555
C69 C52 1_555 1_555
C76 H47 1_555 1_555
C84 C76 1_555 1_555
H52 C84 1_555 1_555
O31 C44 1_555 1_555
O39 Mn2 1_555 1_555
O44 Mn3 1_555 1_555
O45 Mn2 1_555 1_555
O47 Mn1 1_555 1_555
O50 Mn1 1_555 1_555
Mn9_2 O25 1_555 1_555
Mn9_3 O8 1_555 1_555
Mn12 O4 1_555 1_555
Mn15 O24 1_555 1_555
Mn21 O5 1_555 1_555
Mn3 O39 1_555 1_555
C20 C21 1_555 1_555
C30 C35 1_555 1_555
C32 C34 1_555 1_555
C34 C36 1_555 1_555
C53 C65 1_555 1_555
C55 C58 1_555 1_555
C57 C67 1_555 1_555
C60 C65 1_555 1_555
C66 C68 1_555 1_555
C69 O35 1_555 1_555
C82 C84 1_555 1_555
O1 C42 1_555 1_555
O3 C1 1_555 1_555
C1 C8 1_555 1_555
O6 C2 1_555 1_555
O7 C2 1_555 1_555
C2 C39 1_555 1_555
O10 C13 1_555 1_555
C8 C14 1_555 1_555
C9 C10 1_555 1_555
C12 C9 1_555 1_555
H6 C12 1_555 1_555
C13 C23 1_555 1_555
C14 H7 1_555 1_555
C15 O10 1_555 1_555
C17 C15 1_555 1_555
H9 C17 1_555 1_555
C22 O9 1_555 1_555
C23 H13 1_555 1_555
C24 C13 1_555 1_555
H14 C24 1_555 1_555
C25 C8 1_555 1_555
H15 C25 1_555 1_555
C26 C9 1_555 1_555
C33 H19 1_555 1_555
C41 C33 1_555 1_555
H24 C41 1_555 1_555
O13 C1 1_555 1_555
O22 C47 1_555 1_555
O23 C46 1_555 1_555
C46 C64 1_555 1_555
O26 C47 1_555 1_555
C47 C48 1_555 1_555
C48 C49 1_555 1_555
C49 H31 1_555 1_555
C50 C48 1_555 1_555
H32 C50 1_555 1_555
Mn4 O32 1_555 1_555
C54 C59 1_555 1_555
C59 H36 1_555 1_555
C61 C59 1_555 1_555
H38 C61 1_555 1_555
C62 C54 1_555 1_555
C63 C62 1_555 1_555
H40 C63 1_555 1_555
C64 C61 1_555 1_555
O29 C72 1_555 1_555
C70 H44 1_555 1_555
C72 C70 1_555 1_555
C75 C49 1_555 1_555
H46 C75 1_555 1_555
C77 O29 1_555 1_555
C78 C72 1_555 1_555
H48 C78 1_555 1_555
C79 C50 1_555 1_555
H49 C79 1_555 1_555
O32 Mn19 1_555 1_555
O34 Mn1_2 1_555 1_555
O36 C46 1_555 1_555
O40 Mn4 1_555 1_555
O43 Mn19 1_555 1_555
O46 Mn4 1_555 1_555
O48 Mn1_2 1_555 1_555
O49 Mn1_2 1_555 1_555
Mn9_2 O26 1_555 1_555
Mn9_3 O7 1_555 1_555
Mn12 O6 1_555 1_555
Mn15 O22 1_555 1_555
Mn18 O23 1_555 1_555
C10 C22 1_555 1_555
C12 C15 1_555 1_555
C14 C24 1_555 1_555
C17 C22 1_555 1_555
C23 C25 1_555 1_555
C26 O17 1_555 1_555
C39 C41 1_555 1_555
Mn4 O34 1_555 1_555
Mn19 O40 1_555 1_555
C63 C64 1_555 1_555
C73 C78 1_555 1_555
C75 C77 1_555 1_555
C77 C79 1_555 1_555
C71 H45 1_555 1_555
C80 H50 1_555 1_555
C81 C80 1_555 1_555
H51 C81 1_555 1_555
C83 O30 1_555 1_555
C80 C83 1_555 1_555
O20 H29 1_555 1_555
H30 O20 1_555 1_555
H53 O33 1_555 1_555
C86 O33 1_555 1_555
H54 C86 1_555 1_555
H55 C86 1_555 1_555
O40 C44_2 1_555 1_555
C44_2 C51_2 1_555 1_555
O28_2 C56_2 1_555 1_555
C51_2 C57_2 1_555 1_555
C52_2 C53_2 1_555 1_555
C53_2 H33_2 1_555 1_555
C55_2 C52_2 1_555 1_555
H34_2 C55_2 1_555 1_555
C56_2 C66_2 1_555 1_555
C57_2 H35_2 1_555 1_555
C58_2 O28_2 1_555 1_555
C59_2 H36_2 1_555 1_555
C60_2 C58_2 1_555 1_555
H37_2 C60_2 1_555 1_555
C61_2 C59_2 1_555 1_555
H38_2 C61_2 1_555 1_555
C66_2 H41_2 1_555 1_555
C67_2 C56_2 1_555 1_555
H42_2 C67_2 1_555 1_555
C68_2 C51_2 1_555 1_555
H43_2 C68_2 1_555 1_555
C69_2 C52_2 1_555 1_555
O31_2 C44_2 1_555 1_555
H53_2 O33_2 1_555 1_555
O34_2 Mn9 1_555 1_555
C86_2 O33_2 1_555 1_555
H54_2 C86_2 1_555 1_555
H55_2 C86_2 1_555 1_555
H56_2 C86_2 1_555 1_555
C53_2 C65_2 1_555 1_555
C55_2 C58_2 1_555 1_555
C57_2 C67_2 1_555 1_555
C60_2 C65_2 1_555 1_555
C66_2 C68_2 1_555 1_555
C69_2 O34_2 1_555 1_555
C69_2 O35_2 1_555 1_555
O43 C3_2 1_555 1_555
C3_2 C21_2 1_555 1_555
O9_2 C11_2 1_555 1_555
C19_2 C11_2 1_555 1_555
H11_2 C19_2 1_555 1_555
C20_2 C19_2 1_555 1_555
H12_2 C20_2 1_555 1_555
O18_2 C3_2 1_555 1_555
O19 C85_2 1_555 1_555
O20_2 H29_2 1_555 1_555
H30_2 O20_2 1_555 1_555
O42 C47_2 1_555 1_555
O46 C45_2 1_555 1_555
O48 C45_2 1_555 1_555
C45_2 C82_2 1_555 1_555
O50 C47_2 1_555 1_555
C47_2 C48_2 1_555 1_555
C48_2 C49_2 1_555 1_555
C49_2 H31_2 1_555 1_555
C50_2 C48_2 1_555 1_555
H32_2 C50_2 1_555 1_555
Mn15 O32_2 1_555 1_555
Mn21 O20_2 1_555 1_555
O29_2 C72_2 1_555 1_555
O30_2 C74_2 1_555 1_555
C70_2 H44_2 1_555 1_555
C71_2 H45_2 1_555 1_555
C72_2 C70_2 1_555 1_555
C73_2 C71_2 1_555 1_555
C74_2 C70_2 1_555 1_555
C75_2 C49_2 1_555 1_555
H46_2 C75_2 1_555 1_555
C76_2 H47_2 1_555 1_555
C77_2 O29_2 1_555 1_555
C78_2 C72_2 1_555 1_555
H48_2 C78_2 1_555 1_555
C79_2 C50_2 1_555 1_555
H49_2 C79_2 1_555 1_555
C80_2 H50_2 1_555 1_555
C81_2 C80_2 1_555 1_555
H51_2 C81_2 1_555 1_555
C82_2 C81_2 1_555 1_555
C83_2 O30_2 1_555 1_555
C84_2 C76_2 1_555 1_555
H52_2 C84_2 1_555 1_555
C85_2 C73_2 1_555 1_555
O32_2 Mn21 1_555 1_555
C20_2 C21_2 1_555 1_555
C71_2 C74_2 1_555 1_555
C73_2 C78_2 1_555 1_555
C75_2 C77_2 1_555 1_555
C76_2 C83_2 1_555 1_555
C77_2 C79_2 1_555 1_555
C80_2 C83_2 1_555 1_555
C82_2 C84_2 1_555 1_555
C85_2 O32_2 1_555 1_555
O37 C42_2 1_555 1_555
O2_2 H1_2 1_555 1_555
H2_2 O2_2 1_555 1_555
O41 C4_2 1_555 1_555
O45 C2_2 1_555 1_555
O47 C2_2 1_555 1_555
C2_2 C39_2 1_555 1_555
O49 C4_2 1_555 1_555
C4_2 C5_2 1_555 1_555
C5_2 C6_2 1_555 1_555
C6_2 H3_2 1_555 1_555
C7_2 C5_2 1_555 1_555
H4_2 C7_2 1_555 1_555
Mn12 O14_2 1_555 1_555
Mn18 O2_2 1_555 1_555
O11_2 C29_2 1_555 1_555
O12_2 C31_2 1_555 1_555
C27_2 H16_2 1_555 1_555
C28_2 H17_2 1_555 1_555
C29_2 C27_2 1_555 1_555
C30_2 C28_2 1_555 1_555
C31_2 C27_2 1_555 1_555
C32_2 C6_2 1_555 1_555
H18_2 C32_2 1_555 1_555
C33_2 H19_2 1_555 1_555
C34_2 O11_2 1_555 1_555
C35_2 C29_2 1_555 1_555
H20_2 C35_2 1_555 1_555
C36_2 C7_2 1_555 1_555
H21_2 C36_2 1_555 1_555
C37_2 H22_2 1_555 1_555
C38_2 C37_2 1_555 1_555
H23_2 C38_2 1_555 1_555
C39_2 C38_2 1_555 1_555
C40_2 O12_2 1_555 1_555
C41_2 C33_2 1_555 1_555
H24_2 C41_2 1_555 1_555
C42_2 C30_2 1_555 1_555
O14_2 Mn18 1_555 1_555
O44 C46_2 1_555 1_555
C46_2 C64_2 1_555 1_555
O27_2 C54_2 1_555 1_555
C62_2 C54_2 1_555 1_555
H39_2 C62_2 1_555 1_555
C63_2 C62_2 1_555 1_555
H40_2 C63_2 1_555 1_555
O36_2 C46_2 1_555 1_555
C28_2 C31_2 1_555 1_555
C30_2 C35_2 1_555 1_555
C32_2 C34_2 1_555 1_555
C33_2 C40_2 1_555 1_555
C34_2 C36_2 1_555 1_555
C37_2 C40_2 1_555 1_555
C39_2 C41_2 1_555 1_555
C42_2 O14_2 1_555 1_555
C63_2 C64_2 1_555 1_555
O39 C1_2 1_555 1_555
C1_2 C8_2 1_555 1_555
Mn9_4 O16_2 1_555 1_555
O10_2 C13_2 1_555 1_555
C8_2 C14_2 1_555 1_555
C9_2 C10_2 1_555 1_555
C10_2 H5_2 1_555 1_555
C12_2 C9_2 1_555 1_555
H6_2 C12_2 1_555 1_555
C13_2 C23_2 1_555 1_555
C14_2 H7_2 1_555 1_555
C15_2 O10_2 1_555 1_555
C16_2 H8_2 1_555 1_555
C17_2 C15_2 1_555 1_555
H9_2 C17_2 1_555 1_555
C18_2 C16_2 1_555 1_555
H10_2 C18_2 1_555 1_555
C23_2 H13_2 1_555 1_555
C24_2 C13_2 1_555 1_555
H14_2 C24_2 1_555 1_555
C25_2 C8_2 1_555 1_555
H15_2 C25_2 1_555 1_555
C26_2 C9_2 1_555 1_555
O13_2 C1_2 1_555 1_555
H25_2 O15_2 1_555 1_555
C43_2 O15_2 1_555 1_555
H26_2 C43_2 1_555 1_555
H27_2 C43_2 1_555 1_555
H28_2 C43_2 1_555 1_555
C10_2 C22_2 1_555 1_555
C12_2 C15_2 1_555 1_555
C14_2 C24_2 1_555 1_555
C17_2 C22_2 1_555 1_555
C23_2 C25_2 1_555 1_555
C26_2 O16_2 1_555 1_555
C26_2 O17_2 1_555 1_555

#END
