
###############################################################################
#
# This file contains modified crystal structure data generated from the
# MOF subset of the Cambridge Structural Database (CSD) v543 
# hosted by the Cambridge Crystallographic Data Centre (CCDC).
#
# This work is licensed under the Creative Commons
# Attribution-NonCommercial-ShareAlike 4.0 International License.
# To view a copy of this license, visit
# http://creativecommons.org/licenses/by-nc-sa/4.0/
# or send a letter to
# Creative Commons, PO Box 1866, Mountain View, CA 94042, USA.
#
# CIF created using the CSD Python API on 29 September 2022
# The structure has been converted into the P1 space group
# The structure has a 3D framework
# The original CSD entry YINCOP is in the monoclinic crystal system
# The framework has been calculated to contain at least 10.0% void space
# The void calculation uses a probe of radius 1.32A, grid spacing 0.4
#
###############################################################################

data_YINCOP
_chemical_formula_moiety         '(C192 H160 Mn14 N8 O80)n'
_symmetry_cell_setting           triclinic
_symmetry_space_group_name_H-M   'P 1'
_symmetry_Int_Tables_number      1
_space_group_name_Hall           'P 1'
loop_
_symmetry_equiv_pos_site_id
_symmetry_equiv_pos_as_xyz
1 x,y,z
_cell_length_a                   27.565(3)
_cell_length_b                   21.395(3)
_cell_length_c                   9.3865(10)
_cell_angle_alpha                90
_cell_angle_beta                 106.317(3)
_cell_angle_gamma                90
_cell_volume                     5312.75
loop_
_atom_site_label
_atom_site_type_symbol
_atom_site_fract_x
_atom_site_fract_y
_atom_site_fract_z
O2 O 0.22789(11) 0.48255(14) 0.1432(4)
O4 O 0.19603(10) 0.08545(14) 0.2334(3)
O5 O 0.19998(11) 0.15780(13) 0.4040(3)
O7 O 0.21603(12) 0.43432(17) 0.3372(3)
C5 C 0.17792(16) 0.1329(2) 0.2799(5)
C6 C 0.14537(15) 0.44669(18) 0.1305(4)
C8 C 0.20034(16) 0.4564(2) 0.2081(5)
C12 C 0.11458(16) 0.41758(19) 0.2049(5)
H6 H 0.1284 0.4029 0.3010
C14 C 0.10208(17) 0.2035(2) 0.2353(5)
H7 H 0.1171 0.2229 0.3255
C15 C 0.12747(16) 0.15724(19) 0.1865(5)
C16 C 0.06412(17) 0.4104(2) 0.1374(5)
H8 H 0.0434 0.3914 0.1877
C17 C 0.10484(18) 0.1303(2) 0.0503(5)
H9 H 0.1219 0.0989 0.0158
C22 C 0.03253(17) 0.1929(2) 0.0199(5)
C23 C 0.05510(17) 0.2216(2) 0.1543(5)
H16 H 0.0382 0.2532 0.1892
Mn3 Mn 0.24735(2) 0.43413(3) 0.55933(6)
O11 O 0.18427(10) 0.38415(13) 0.5906(3)
O13 O 0.31068(12) 0.49040(19) 0.5043(4)
H21 H 0.3377 0.4823 0.5650
O16 O 0.18780(11) 0.28041(14) 0.5682(3)
O18 O 0.01665(11) 0.20458(13) 0.5674(4)
O19 O 0.00756(11) 0.42909(14) 0.5796(4)
C25 C 0.11082(14) 0.32514(18) 0.5787(4)
C26 C 0.16540(16) 0.3309(2) 0.5792(4)
C27 C 0.08802(15) 0.26715(19) 0.5733(4)
H22 H 0.1067 0.2309 0.5740
C31 C 0.00939(16) 0.3169(2) 0.5705(4)
C34 C 0.03761(16) 0.2635(2) 0.5667(5)
C37 C 0.03301(16) 0.3737(2) 0.5739(5)
C42 C 0.08320(15) 0.3786(2) 0.5801(4)
H30 H 0.0984 0.4177 0.5851
H33 H 0.3093(17) 0.510(3) 0.425(4)
Mn4 Mn 0.24735(2) 0.56587(3) 0.05933(6)
Mn7 Mn 0.25265(2) 0.06587(3) 0.44067(6)
Mn8 Mn 0.2500 0.2500 0.5000
O22 O 0.22789(11) 0.51745(14) 0.6432(4)
O23 O 0.30397(10) 0.41455(14) 0.7666(3)
O25 O 0.30002(11) 0.34220(13) 0.5960(3)
Mn2 Mn 0.7500 0.2500 0.0000
H20 H 0.6907(17) 0.510(3) 0.075(4)
O12 O 0.77211(11) 0.48255(14) 0.3568(4)
O14 O 0.80397(10) 0.08545(14) 0.2666(3)
O15 O 0.80002(11) 0.15780(13) 0.0960(3)
O17 O 0.78397(12) 0.43432(17) 0.1628(3)
C28 C 0.95610(16) 0.43174(19) 0.5069(5)
C29 C 0.82208(16) 0.1329(2) 0.2201(5)
C30 C 0.85463(15) 0.44669(18) 0.3695(4)
H23 H 0.9757 0.3144 0.5707
C32 C 0.79966(16) 0.4564(2) 0.2919(5)
C33 C 0.92567(16) 0.46024(19) 0.5827(5)
H24 H 0.9394 0.4745 0.6793
C35 C 0.87499(15) 0.46719(18) 0.5138(4)
H25 H 0.8542 0.4858 0.5644
C36 C 0.88542(16) 0.41758(19) 0.2951(5)
H26 H 0.8716 0.4029 0.1990
C38 C 0.89792(17) 0.2035(2) 0.2647(5)
H27 H 0.8829 0.2229 0.1745
C39 C 0.87253(16) 0.15724(19) 0.3135(5)
C40 C 0.93588(17) 0.4104(2) 0.3626(5)
H28 H 0.9566 0.3914 0.3123
C41 C 0.89516(18) 0.1303(2) 0.4497(5)
H29 H 0.8781 0.0989 0.4842
C43 C 0.94229(19) 0.1485(2) 0.5365(6)
H31 H 0.9564 0.1312 0.6299
C44 C 0.96747(17) 0.1929(2) 0.4801(5)
C45 C 0.94490(17) 0.2216(2) 0.3457(5)
H32 H 0.9618 0.2532 0.3108
O20 O 0.78350(13) 0.28529(16) 0.2178(3)
N2 N 0.78458(16) 0.31849(18) 0.4452(4)
C46 C 0.7633(2) 0.3110(2) 0.3020(5)
H34 H 0.7307 0.3264 0.2625
C47 C 0.8337(2) 0.2961(2) 0.5176(5)
H35 H 0.8487 0.2790 0.4454
H36 H 0.8542 0.3299 0.5690
H37 H 0.8316 0.2642 0.5875
C48 C 0.7577(2) 0.3500(2) 0.5374(6)
H38 H 0.7260 0.3655 0.4761
H39 H 0.7516 0.3210 0.6086
H40 H 0.7777 0.3842 0.5884
Mn5 Mn 0.75265(2) 0.56587(3) 0.44067(6)
Mn6 Mn 0.74735(2) 0.06587(3) 0.05933(6)
O27 O 0.68780(11) 0.21959(14) 0.0682(3)
Mn1 Mn 0.75265(2) 0.43413(3) 0.94067(6)
Mn2_2 Mn 0.7500 0.2500 1.0000
O1 O 0.81573(10) 0.38415(13) 0.9094(3)
O3 O 0.68932(12) 0.49040(19) 0.9957(4)
H1 H 0.6623 0.4823 0.9350
O6 O 0.81220(11) 0.28041(14) 0.9318(3)
O8 O 0.98335(11) 0.20458(13) 0.9326(4)
O9 O 0.99244(11) 0.42909(14) 0.9204(4)
O10 O 0.71650(13) 0.21471(16) 0.7822(3)
N1 N 0.71542(16) 0.18151(18) 0.5548(4)
C1 C 0.88918(14) 0.32514(18) 0.9213(4)
C2 C 0.83460(16) 0.3309(2) 0.9208(4)
C3 C 0.91198(15) 0.26715(19) 0.9267(4)
H2 H 0.8933 0.2309 0.9260
C7 C 0.99061(16) 0.3169(2) 0.9295(4)
C10 C 0.96239(16) 0.2635(2) 0.9333(5)
C13 C 0.96699(16) 0.3737(2) 0.9261(5)
C18 C 0.7367(2) 0.1890(2) 0.6980(5)
H10 H 0.7693 0.1736 0.7375
C19 C 0.6663(2) 0.2039(2) 0.4824(5)
H11 H 0.6513 0.2210 0.5546
H12 H 0.6458 0.1701 0.4310
H13 H 0.6684 0.2358 0.4125
C20 C 0.91680(15) 0.3786(2) 0.9199(4)
H14 H 0.9016 0.4177 0.9149
C24 C 0.7423(2) 0.1500(2) 0.4626(6)
H17 H 0.7740 0.1345 0.5239
H18 H 0.7484 0.1790 0.3914
H19 H 0.7223 0.1158 0.4116
O21 O 0.77211(11) 0.51745(14) 0.8568(4)
O24 O 0.69603(10) 0.41455(14) 0.7334(3)
O26 O 0.69998(11) 0.34220(13) 0.9040(3)
C19_2 C 0.3337(2) 0.2039(2) 0.0176(5)
H12_2 H 0.3542 0.1701 0.0690
H13_2 H 0.3316 0.2358 0.0875
C24_2 C 0.2577(2) 0.1500(2) 0.0374(6)
H18_2 H 0.2516 0.1790 0.1086
H19_2 H 0.2777 0.1158 0.0884
O10_2 O 0.28350(13) 0.21471(16) 0.7178(3)
N1_2 N 0.28458(16) 0.18151(18) 0.9452(4)
C18_2 C 0.2633(2) 0.1890(2) 0.8020(5)
H10_2 H 0.2307 0.1736 0.7625
H11_2 H 0.3487 0.2210 0.9454
H17_2 H 0.2260 0.1345 0.9761
O20_2 O 0.21650(13) 0.28529(16) 0.2822(3)
N2_2 N 0.21542(16) 0.31849(18) 0.0548(4)
C46_2 C 0.2367(2) 0.3110(2) 0.1980(5)
H34_2 H 0.2693 0.3264 0.2375
H35_2 H 0.1513 0.2790 0.0546
H38_2 H 0.2740 0.3655 0.0239
O27_2 O 0.31220(11) 0.21959(14) 0.4318(3)
H20_2 H 0.1907(17) 0.010(3) 0.075(4)
H33_2 H 0.8093(17) 0.010(3) 0.425(4)
O22_2 O 0.72789(11) 0.01745(14) 0.6432(4)
O21_2 O 0.27211(11) 0.01745(14) 0.8568(4)
Mn2_3 Mn 0.2500 0.7500 0.0000
O2_2 O 0.72789(11) 0.98255(14) 0.1432(4)
O4_2 O 0.69603(10) 0.58545(14) 0.2334(3)
O5_2 O 0.69998(11) 0.65780(13) 0.4040(3)
O7_2 O 0.71603(12) 0.93432(17) 0.3372(3)
C5_2 C 0.67792(16) 0.6329(2) 0.2799(5)
C6_2 C 0.64537(15) 0.94669(18) 0.1305(4)
C8_2 C 0.70034(16) 0.9564(2) 0.2081(5)
C12_2 C 0.61458(16) 0.91758(19) 0.2049(5)
H6_2 H 0.6284 0.9029 0.3010
C14_2 C 0.60208(17) 0.7035(2) 0.2353(5)
H7_2 H 0.6171 0.7229 0.3255
C15_2 C 0.62747(16) 0.65724(19) 0.1865(5)
C16_2 C 0.56412(17) 0.9104(2) 0.1374(5)
H8_2 H 0.5434 0.8914 0.1877
C17_2 C 0.60484(18) 0.6303(2) 0.0503(5)
H9_2 H 0.6219 0.5989 0.0158
C22_2 C 0.53253(17) 0.6929(2) 0.0199(5)
C23_2 C 0.55510(17) 0.7216(2) 0.1543(5)
H16_2 H 0.5382 0.7532 0.1892
Mn3_2 Mn 0.74735(2) 0.93413(3) 0.55933(6)
O11_2 O 0.68427(10) 0.88415(13) 0.5906(3)
O12_2 O 0.27211(11) 0.98255(14) 0.3568(4)
O13_2 O 0.81068(12) 0.99040(19) 0.5043(4)
H21_2 H 0.8377 0.9823 0.5650
O14_2 O 0.30397(10) 0.58545(14) 0.2666(3)
O15_2 O 0.30002(11) 0.65780(13) 0.0960(3)
O16_2 O 0.68780(11) 0.78041(14) 0.5682(3)
O17_2 O 0.28397(12) 0.93432(17) 0.1628(3)
O18_2 O 0.51665(11) 0.70458(13) 0.5674(4)
O19_2 O 0.50756(11) 0.92909(14) 0.5796(4)
C25_2 C 0.61082(14) 0.82514(18) 0.5787(4)
C26_2 C 0.66540(16) 0.8309(2) 0.5792(4)
C27_2 C 0.58802(15) 0.76715(19) 0.5733(4)
H22_2 H 0.6067 0.7309 0.5740
C28_2 C 0.45610(16) 0.93174(19) 0.5069(5)
C29_2 C 0.32208(16) 0.6329(2) 0.2201(5)
C30_2 C 0.35463(15) 0.94669(18) 0.3695(4)
C31_2 C 0.50939(16) 0.8169(2) 0.5705(4)
H23_2 H 0.4757 0.8144 0.5707
C32_2 C 0.29966(16) 0.9564(2) 0.2919(5)
C33_2 C 0.42567(16) 0.96024(19) 0.5827(5)
H24_2 H 0.4394 0.9745 0.6793
C34_2 C 0.53761(16) 0.7635(2) 0.5667(5)
C35_2 C 0.37499(15) 0.96719(18) 0.5138(4)
H25_2 H 0.3542 0.9858 0.5644
C36_2 C 0.38542(16) 0.91758(19) 0.2951(5)
H26_2 H 0.3716 0.9029 0.1990
C37_2 C 0.53301(16) 0.8737(2) 0.5739(5)
C38_2 C 0.39792(17) 0.7035(2) 0.2647(5)
H27_2 H 0.3829 0.7229 0.1745
C39_2 C 0.37253(16) 0.65724(19) 0.3135(5)
C40_2 C 0.43588(17) 0.9104(2) 0.3626(5)
H28_2 H 0.4566 0.8914 0.3123
C41_2 C 0.39516(18) 0.6303(2) 0.4497(5)
H29_2 H 0.3781 0.5989 0.4842
C42_2 C 0.58320(15) 0.8786(2) 0.5801(4)
H30_2 H 0.5984 0.9177 0.5851
C43_2 C 0.44229(19) 0.6485(2) 0.5365(6)
H31_2 H 0.4564 0.6312 0.6299
C44_2 C 0.46747(17) 0.6929(2) 0.4801(5)
C45_2 C 0.44490(17) 0.7216(2) 0.3457(5)
H32_2 H 0.4618 0.7532 0.3108
O20_3 O 0.28350(13) 0.78529(16) 0.2178(3)
N2_3 N 0.28458(16) 0.81849(18) 0.4452(4)
C46_3 C 0.2633(2) 0.8110(2) 0.3020(5)
H34_3 H 0.2307 0.8264 0.2625
C47_2 C 0.3337(2) 0.7961(2) 0.5176(5)
H35_3 H 0.3487 0.7790 0.4454
H36_2 H 0.3542 0.8299 0.5690
H37_2 H 0.3316 0.7642 0.5875
C48_2 C 0.2577(2) 0.8500(2) 0.5374(6)
H38_3 H 0.2260 0.8655 0.4761
H39_2 H 0.2516 0.8210 0.6086
H40_2 H 0.2777 0.8842 0.5884
Mn8_2 Mn 0.7500 0.7500 0.5000
O23_2 O 0.80397(10) 0.91455(14) 0.7666(3)
O25_2 O 0.80002(11) 0.84220(13) 0.5960(3)
O27_3 O 0.18780(11) 0.71959(14) 0.0682(3)
Mn1_2 Mn 0.25265(2) 0.93413(3) 0.94067(6)
Mn2_4 Mn 0.2500 0.7500 1.0000
O1_2 O 0.31573(10) 0.88415(13) 0.9094(3)
O3_2 O 0.18932(12) 0.99040(19) 0.9957(4)
H1_2 H 0.1623 0.9823 0.9350
O6_2 O 0.31220(11) 0.78041(14) 0.9318(3)
O8_2 O 0.48335(11) 0.70458(13) 0.9326(4)
O9_2 O 0.49244(11) 0.92909(14) 0.9204(4)
O10_3 O 0.21650(13) 0.71471(16) 0.7822(3)
N1_3 N 0.21542(16) 0.68151(18) 0.5548(4)
C1_2 C 0.38918(14) 0.82514(18) 0.9213(4)
C2_2 C 0.33460(16) 0.8309(2) 0.9208(4)
C3_2 C 0.41198(15) 0.76715(19) 0.9267(4)
H2_2 H 0.3933 0.7309 0.9260
C4 C 0.54390(16) 0.93174(19) 0.9931(5)
C7_2 C 0.49061(16) 0.8169(2) 0.9295(4)
H3 H 0.5243 0.8144 0.9293
C9 C 0.57433(16) 0.96024(19) 0.9173(5)
H4 H 0.5606 0.9745 0.8207
C10_2 C 0.46239(16) 0.7635(2) 0.9333(5)
C11 C 0.62501(15) 0.96719(18) 0.9862(4)
H5 H 0.6458 0.9858 0.9356
C13_2 C 0.46699(16) 0.8737(2) 0.9261(5)
C18_3 C 0.2367(2) 0.6890(2) 0.6980(5)
H10_3 H 0.2693 0.6736 0.7375
C19_3 C 0.1663(2) 0.7039(2) 0.4824(5)
H11_3 H 0.1513 0.7210 0.5546
H12_3 H 0.1458 0.6701 0.4310
H13_3 H 0.1684 0.7358 0.4125
C20_2 C 0.41680(15) 0.8786(2) 0.9199(4)
H14_2 H 0.4016 0.9177 0.9149
C21 C 0.55771(19) 0.6485(2) 0.9635(6)
H15 H 0.5436 0.6312 0.8701
C24_3 C 0.2423(2) 0.6500(2) 0.4626(6)
H17_3 H 0.2740 0.6345 0.5239
H18_3 H 0.2484 0.6790 0.3914
H19_3 H 0.2223 0.6158 0.4116
O24_2 O 0.19603(10) 0.91455(14) 0.7334(3)
O26_2 O 0.19998(11) 0.84220(13) 0.9040(3)
O10_4 O 0.78350(13) 0.71471(16) 0.7178(3)
N1_4 N 0.78458(16) 0.68151(18) 0.9452(4)
C18_4 C 0.7633(2) 0.6890(2) 0.8020(5)
H10_4 H 0.7307 0.6736 0.7625
H11_4 H 0.8487 0.7210 0.9454
H17_4 H 0.7260 0.6345 0.9761
O20_4 O 0.71650(13) 0.78529(16) 0.2822(3)
N2_4 N 0.71542(16) 0.81849(18) 0.0548(4)
C46_4 C 0.7367(2) 0.8110(2) 0.1980(5)
H34_4 H 0.7693 0.8264 0.2375
H35_4 H 0.6513 0.7790 0.0546
H38_4 H 0.7740 0.8655 0.0239
O27_4 O 0.81220(11) 0.71959(14) 0.4318(3)
C47_3 C 0.6663(2) 0.7961(2) 0.9824(5)
H36_3 H 0.6458 0.8299 0.9310
H37_3 H 0.6684 0.7642 0.9125
C48_3 C 0.7423(2) 0.8500(2) 0.9626(6)
H39_3 H 0.7484 0.8210 0.8914
H40_3 H 0.7223 0.8842 0.9116
O1_3 O 0.18427(10) 0.61585(13) 0.0906(3)
O3_3 O 0.31068(12) 0.50960(19) 0.0043(4)
H1_3 H 0.3377 0.5177 0.0650
O8_3 O 0.01665(11) 0.79542(13) 0.0674(4)
O9_3 O 0.00756(11) 0.57091(14) 0.0796(4)
C1_3 C 0.11082(14) 0.67486(18) 0.0787(4)
C2_3 C 0.16540(16) 0.6691(2) 0.0792(4)
C3_3 C 0.08802(15) 0.73285(19) 0.0733(4)
H2_3 H 0.1067 0.7691 0.0740
C7_3 C 0.00939(16) 0.6831(2) 0.0705(4)
C10_3 C 0.03761(16) 0.7365(2) 0.0667(5)
C13_3 C 0.03301(16) 0.6263(2) 0.0739(5)
C20_3 C 0.08320(15) 0.6214(2) 0.0801(4)
H14_3 H 0.0984 0.5823 0.0851
H20_3 H 0.3093(17) 0.490(3) 0.925(4)
O17_3 O 0.21603(12) 0.56568(17) 0.8372(3)
C28_3 C 0.04390(16) 0.56826(19) 0.4931(5)
C29_3 C 0.17792(16) 0.8671(2) 0.7799(5)
C30_3 C 0.14537(15) 0.55331(18) 0.6305(4)
H23_3 H 0.0243 0.6856 0.4293
C32_3 C 0.20034(16) 0.5436(2) 0.7081(5)
C33_3 C 0.07433(16) 0.53976(19) 0.4173(5)
H24_3 H 0.0606 0.5255 0.3207
C35_3 C 0.12501(15) 0.53281(18) 0.4862(4)
H25_3 H 0.1458 0.5142 0.4356
C36_3 C 0.11458(16) 0.58242(19) 0.7049(5)
H26_3 H 0.1284 0.5971 0.8010
C38_3 C 0.10208(17) 0.7965(2) 0.7353(5)
H27_3 H 0.1171 0.7771 0.8255
C39_3 C 0.12747(16) 0.84276(19) 0.6865(5)
C40_3 C 0.06412(17) 0.5896(2) 0.6374(5)
H28_3 H 0.0434 0.6086 0.6877
C41_3 C 0.10484(18) 0.8697(2) 0.5503(5)
H29_3 H 0.1219 0.9011 0.5158
C43_3 C 0.05771(19) 0.8515(2) 0.4635(6)
H31_3 H 0.0436 0.8688 0.3701
C44_3 C 0.03253(17) 0.8071(2) 0.5199(5)
C45_3 C 0.05510(17) 0.7784(2) 0.6543(5)
H32_3 H 0.0382 0.7468 0.6892
O7_3 O 0.78397(12) 0.56568(17) 0.6628(3)
C5_3 C 0.82208(16) 0.8671(2) 0.7201(5)
C6_3 C 0.85463(15) 0.55331(18) 0.8695(4)
C8_3 C 0.79966(16) 0.5436(2) 0.7919(5)
C12_3 C 0.88542(16) 0.58242(19) 0.7951(5)
H6_3 H 0.8716 0.5971 0.6990
C14_3 C 0.89792(17) 0.7965(2) 0.7647(5)
H7_3 H 0.8829 0.7771 0.6745
C15_3 C 0.87253(16) 0.84276(19) 0.8135(5)
C16_3 C 0.93588(17) 0.5896(2) 0.8626(5)
H8_3 H 0.9566 0.6086 0.8123
C17_3 C 0.89516(18) 0.8697(2) 0.9497(5)
H9_3 H 0.8781 0.9011 0.9842
C22_3 C 0.96747(17) 0.8071(2) 0.9801(5)
C23_3 C 0.94490(17) 0.7784(2) 0.8457(5)
H16_3 H 0.9618 0.7468 0.8108
O11_3 O 0.81573(10) 0.61585(13) 0.4094(3)
O13_3 O 0.68932(12) 0.50960(19) 0.4957(4)
H21_3 H 0.6623 0.5177 0.4350
O18_3 O 0.98335(11) 0.79542(13) 0.4326(4)
O19_3 O 0.99244(11) 0.57091(14) 0.4204(4)
C25_3 C 0.88918(14) 0.67486(18) 0.4213(4)
C26_3 C 0.83460(16) 0.6691(2) 0.4208(4)
C27_3 C 0.91198(15) 0.73285(19) 0.4267(4)
H22_3 H 0.8933 0.7691 0.4260
C31_3 C 0.99061(16) 0.6831(2) 0.4295(4)
C34_3 C 0.96239(16) 0.7365(2) 0.4333(5)
C37_3 C 0.96699(16) 0.6263(2) 0.4261(5)
C42_3 C 0.91680(15) 0.6214(2) 0.4199(4)
H30_3 H 0.9016 0.5823 0.4149
H33_3 H 0.6907(17) 0.490(3) 0.575(4)
O1_4 O 0.68427(10) 0.11585(13) 0.0906(3)
O3_4 O 0.81068(12) 0.00960(19) 0.0043(4)
H1_4 H 0.8377 0.0177 0.0650
O8_4 O 0.51665(11) 0.29542(13) 0.0674(4)
O9_4 O 0.50756(11) 0.07091(14) 0.0796(4)
C1_4 C 0.61082(14) 0.17486(18) 0.0787(4)
C2_4 C 0.66540(16) 0.1691(2) 0.0792(4)
C3_4 C 0.58802(15) 0.23285(19) 0.0733(4)
H2_4 H 0.6067 0.2691 0.0740
C4_2 C 0.45610(16) 0.06826(19) 0.0069(5)
C7_4 C 0.50939(16) 0.1831(2) 0.0705(4)
H3_2 H 0.4757 0.1856 0.0707
C9_2 C 0.42567(16) 0.03976(19) 0.0827(5)
H4_2 H 0.4394 0.0255 0.1793
C10_4 C 0.53761(16) 0.2365(2) 0.0667(5)
C11_2 C 0.37499(15) 0.03281(18) 0.0138(4)
H5_2 H 0.3542 0.0142 0.0644
C13_4 C 0.53301(16) 0.1263(2) 0.0739(5)
C20_4 C 0.58320(15) 0.1214(2) 0.0801(4)
H14_4 H 0.5984 0.0823 0.0851
C21_2 C 0.44229(19) 0.3515(2) 0.0365(6)
H15_2 H 0.4564 0.3688 0.1299
O7_4 O 0.28397(12) 0.06568(17) 0.6628(3)
C5_4 C 0.32208(16) 0.3671(2) 0.7201(5)
C6_4 C 0.35463(15) 0.05331(18) 0.8695(4)
C8_4 C 0.29966(16) 0.0436(2) 0.7919(5)
C12_4 C 0.38542(16) 0.08242(19) 0.7951(5)
H6_4 H 0.3716 0.0971 0.6990
C14_4 C 0.39792(17) 0.2965(2) 0.7647(5)
H7_4 H 0.3829 0.2771 0.6745
C15_4 C 0.37253(16) 0.34276(19) 0.8135(5)
C16_4 C 0.43588(17) 0.0896(2) 0.8626(5)
H8_4 H 0.4566 0.1086 0.8123
C17_4 C 0.39516(18) 0.3697(2) 0.9497(5)
H9_4 H 0.3781 0.4011 0.9842
C22_4 C 0.46747(17) 0.3071(2) 0.9801(5)
C23_4 C 0.44490(17) 0.2784(2) 0.8457(5)
H16_4 H 0.4618 0.2468 0.8108
O11_4 O 0.31573(10) 0.11585(13) 0.4094(3)
O13_4 O 0.18932(12) 0.00960(19) 0.4957(4)
H21_4 H 0.1623 0.0177 0.4350
O17_4 O 0.71603(12) 0.06568(17) 0.8372(3)
O18_4 O 0.48335(11) 0.29542(13) 0.4326(4)
O19_4 O 0.49244(11) 0.07091(14) 0.4204(4)
C25_4 C 0.38918(14) 0.17486(18) 0.4213(4)
C26_4 C 0.33460(16) 0.1691(2) 0.4208(4)
C27_4 C 0.41198(15) 0.23285(19) 0.4267(4)
H22_4 H 0.3933 0.2691 0.4260
C28_4 C 0.54390(16) 0.06826(19) 0.4931(5)
C29_4 C 0.67792(16) 0.3671(2) 0.7799(5)
C30_4 C 0.64537(15) 0.05331(18) 0.6305(4)
C31_4 C 0.49061(16) 0.1831(2) 0.4295(4)
H23_4 H 0.5243 0.1856 0.4293
C32_4 C 0.70034(16) 0.0436(2) 0.7081(5)
C33_4 C 0.57433(16) 0.03976(19) 0.4173(5)
H24_4 H 0.5606 0.0255 0.3207
C34_4 C 0.46239(16) 0.2365(2) 0.4333(5)
C35_4 C 0.62501(15) 0.03281(18) 0.4862(4)
H25_4 H 0.6458 0.0142 0.4356
C36_4 C 0.61458(16) 0.08242(19) 0.7049(5)
H26_4 H 0.6284 0.0971 0.8010
C37_4 C 0.46699(16) 0.1263(2) 0.4261(5)
C38_4 C 0.60208(17) 0.2965(2) 0.7353(5)
H27_4 H 0.6171 0.2771 0.8255
C39_4 C 0.62747(16) 0.34276(19) 0.6865(5)
C40_4 C 0.56412(17) 0.0896(2) 0.6374(5)
H28_4 H 0.5434 0.1086 0.6877
C41_4 C 0.60484(18) 0.3697(2) 0.5503(5)
H29_4 H 0.6219 0.4011 0.5158
C42_4 C 0.41680(15) 0.1214(2) 0.4199(4)
H30_4 H 0.4016 0.0823 0.4149
C43_4 C 0.55771(19) 0.3515(2) 0.4635(6)
H31_4 H 0.5436 0.3688 0.3701
C44_4 C 0.53253(17) 0.3071(2) 0.5199(5)
C45_4 C 0.55510(17) 0.2784(2) 0.6543(5)
H32_4 H 0.5382 0.2468 0.6892
H20_4 H 0.8093(17) 0.990(3) 0.925(4)
H33_4 H 0.1907(17) 0.990(3) 0.575(4)
C4_3 C 0.04390(16) 0.43174(19) 0.9931(5)
H3_3 H 0.0243 0.3144 0.9293
C9_3 C 0.07433(16) 0.46024(19) 0.9173(5)
H4_3 H 0.0606 0.4745 0.8207
C11_3 C 0.12501(15) 0.46719(18) 0.9862(4)
H5_3 H 0.1458 0.4858 0.9356
C21_3 C 0.05771(19) 0.1485(2) 0.9635(6)
H15_3 H 0.0436 0.1312 0.8701
C47_4 C 0.1663(2) 0.2961(2) 0.9824(5)
H36_4 H 0.1458 0.3299 0.9310
H37_4 H 0.1684 0.2642 0.9125
C48_4 C 0.2423(2) 0.3500(2) 0.9626(6)
H39_4 H 0.2484 0.3210 0.8914
H40_4 H 0.2223 0.3842 0.9116
C19_4 C 0.8337(2) 0.7039(2) 0.0176(5)
H12_4 H 0.8542 0.6701 0.0690
H13_4 H 0.8316 0.7358 0.0875
C24_4 C 0.7577(2) 0.6500(2) 0.0374(6)
H18_4 H 0.7516 0.6790 0.1086
H19_4 H 0.7777 0.6158 0.0884
C4_4 C 0.95610(16) 0.56826(19) 0.0069(5)
H3_4 H 0.9757 0.6856 0.0707
C9_4 C 0.92567(16) 0.53976(19) 0.0827(5)
H4_4 H 0.9394 0.5255 0.1793
C11_4 C 0.87499(15) 0.53281(18) 0.0138(4)
H5_4 H 0.8542 0.5142 0.0644
C21_4 C 0.94229(19) 0.8515(2) 0.0365(6)
H15_4 H 0.9564 0.8688 0.1299
loop_
_geom_bond_atom_site_label_1
_geom_bond_atom_site_label_2
_geom_bond_site_symmetry_1
_geom_bond_site_symmetry_2
O2 C8 1_555 1_555
O4 C5 1_555 1_555
O5 C5 1_555 1_555
O7 C8 1_555 1_555
C5 C15 1_555 1_555
C6 C8 1_555 1_555
C12 C6 1_555 1_555
H6 C12 1_555 1_555
C14 H7 1_555 1_555
C15 C14 1_555 1_555
H8 C16 1_555 1_555
C17 C15 1_555 1_555
H9 C17 1_555 1_555
C23 C14 1_555 1_555
H16 C23 1_555 1_555
Mn3 O7 1_555 1_555
O11 Mn3 1_555 1_555
O13 Mn3 1_555 1_555
H21 O13 1_555 1_555
O16 C26 1_555 1_555
O18 C34 1_555 1_555
C25 C26 1_555 1_555
C26 O11 1_555 1_555
C27 C25 1_555 1_555
H22 C27 1_555 1_555
C34 C27 1_555 1_555
C37 O19 1_555 1_555
C42 C25 1_555 1_555
H30 C42 1_555 1_555
H33 O13 1_555 1_555
Mn4 O2 1_555 1_555
Mn7 O4 1_555 1_555
Mn8 O5 1_555 1_555
O22 Mn3 1_555 1_555
O23 Mn3 1_555 1_555
O25 Mn3 1_555 1_555
O5 Mn7 1_555 1_555
C12 C16 1_555 1_555
C22 C23 1_555 1_555
O16 Mn8 1_555 1_555
C31 C34 1_555 1_555
C31 C37 1_555 1_555
C37 C42 1_555 1_555
Mn8 O25 1_555 1_555
O12 C32 1_555 1_555
O14 C29 1_555 1_555
O15 Mn2 1_555 1_555
C28 C33 1_555 1_555
C29 O15 1_555 1_555
C30 C32 1_555 1_555
C32 O17 1_555 1_555
C33 H24 1_555 1_555
C35 C30 1_555 1_555
H25 C35 1_555 1_555
C36 C30 1_555 1_555
H26 C36 1_555 1_555
C38 H27 1_555 1_555
C39 C29 1_555 1_555
C40 C28 1_555 1_555
H28 C40 1_555 1_555
C41 C39 1_555 1_555
H29 C41 1_555 1_555
C43 C41 1_555 1_555
H31 C43 1_555 1_555
C45 C38 1_555 1_555
H32 C45 1_555 1_555
O20 Mn2 1_555 1_555
N2 C46 1_555 1_555
C46 O20 1_555 1_555
H34 C46 1_555 1_555
C47 N2 1_555 1_555
H35 C47 1_555 1_555
H36 C47 1_555 1_555
H37 C47 1_555 1_555
C48 N2 1_555 1_555
H38 C48 1_555 1_555
H39 C48 1_555 1_555
H40 C48 1_555 1_555
Mn5 O12 1_555 1_555
Mn6 O14 1_555 1_555
O27 Mn2 1_555 1_555
O15 Mn6 1_555 1_555
C33 C35 1_555 1_555
C36 C40 1_555 1_555
C38 C39 1_555 1_555
C43 C44 1_555 1_555
C44 C45 1_555 1_555
Mn1 O1 1_555 1_555
Mn2_2 O6 1_555 1_555
O1 C2 1_555 1_555
O3 Mn1 1_555 1_555
H1 O3 1_555 1_555
O6 C2 1_555 1_555
O8 C10 1_555 1_555
O10 Mn2_2 1_555 1_555
N1 C18 1_555 1_555
C1 C2 1_555 1_555
C3 C1 1_555 1_555
H2 C3 1_555 1_555
C10 C3 1_555 1_555
C13 O9 1_555 1_555
C18 O10 1_555 1_555
H10 C18 1_555 1_555
C19 N1 1_555 1_555
H11 C19 1_555 1_555
H12 C19 1_555 1_555
H13 C19 1_555 1_555
C20 C1 1_555 1_555
H14 C20 1_555 1_555
C24 N1 1_555 1_555
H17 C24 1_555 1_555
H18 C24 1_555 1_555
H19 C24 1_555 1_555
O21 Mn1 1_555 1_555
O24 Mn1 1_555 1_555
O26 Mn1 1_555 1_555
Mn2_2 O26 1_555 1_555
C7 C10 1_555 1_555
C7 C13 1_555 1_555
C13 C20 1_555 1_555
H12_2 C19_2 1_555 1_555
H13_2 C19_2 1_555 1_555
H18_2 C24_2 1_555 1_555
H19_2 C24_2 1_555 1_555
O10_2 Mn8 1_555 1_555
N1_2 C18_2 1_555 1_555
C18_2 O10_2 1_555 1_555
H10_2 C18_2 1_555 1_555
O20_2 Mn8 1_555 1_555
N2_2 C46_2 1_555 1_555
C46_2 O20_2 1_555 1_555
H34_2 C46_2 1_555 1_555
O27_2 Mn8 1_555 1_555
O2_2 C8_2 1_555 1_555
O4_2 C5_2 1_555 1_555
O5_2 C5_2 1_555 1_555
O7_2 C8_2 1_555 1_555
C5_2 C15_2 1_555 1_555
C6_2 C8_2 1_555 1_555
C12_2 C6_2 1_555 1_555
H6_2 C12_2 1_555 1_555
C14_2 H7_2 1_555 1_555
C15_2 C14_2 1_555 1_555
H8_2 C16_2 1_555 1_555
C17_2 C15_2 1_555 1_555
H9_2 C17_2 1_555 1_555
C23_2 C14_2 1_555 1_555
H16_2 C23_2 1_555 1_555
Mn3_2 O7_2 1_555 1_555
O11_2 Mn3_2 1_555 1_555
O12_2 C32_2 1_555 1_555
O13_2 Mn3_2 1_555 1_555
H21_2 O13_2 1_555 1_555
O14_2 C29_2 1_555 1_555
O15_2 Mn2_3 1_555 1_555
O16_2 C26_2 1_555 1_555
O18_2 C34_2 1_555 1_555
O19_2 C28_2 1_555 1_555
C25_2 C26_2 1_555 1_555
C26_2 O11_2 1_555 1_555
C27_2 C25_2 1_555 1_555
H22_2 C27_2 1_555 1_555
C28_2 C33_2 1_555 1_555
C29_2 O15_2 1_555 1_555
C30_2 C32_2 1_555 1_555
C31_2 H23_2 1_555 1_555
C32_2 O17_2 1_555 1_555
C33_2 H24_2 1_555 1_555
C34_2 C27_2 1_555 1_555
C35_2 C30_2 1_555 1_555
H25_2 C35_2 1_555 1_555
C36_2 C30_2 1_555 1_555
H26_2 C36_2 1_555 1_555
C37_2 O19_2 1_555 1_555
C38_2 H27_2 1_555 1_555
C39_2 C29_2 1_555 1_555
C40_2 C28_2 1_555 1_555
H28_2 C40_2 1_555 1_555
C41_2 C39_2 1_555 1_555
H29_2 C41_2 1_555 1_555
C42_2 C25_2 1_555 1_555
H30_2 C42_2 1_555 1_555
C43_2 C41_2 1_555 1_555
H31_2 C43_2 1_555 1_555
C44_2 O18_2 1_555 1_555
C45_2 C38_2 1_555 1_555
H32_2 C45_2 1_555 1_555
O20_3 Mn2_3 1_555 1_555
N2_3 C46_3 1_555 1_555
C46_3 O20_3 1_555 1_555
H34_3 C46_3 1_555 1_555
C47_2 N2_3 1_555 1_555
H35_3 C47_2 1_555 1_555
H36_2 C47_2 1_555 1_555
H37_2 C47_2 1_555 1_555
C48_2 N2_3 1_555 1_555
H38_3 C48_2 1_555 1_555
H39_2 C48_2 1_555 1_555
H40_2 C48_2 1_555 1_555
Mn4 O14_2 1_555 1_555
Mn5 O4_2 1_555 1_555
Mn8_2 O5_2 1_555 1_555
O23_2 Mn3_2 1_555 1_555
O25_2 Mn3_2 1_555 1_555
O27_3 Mn2_3 1_555 1_555
O5_2 Mn5 1_555 1_555
C12_2 C16_2 1_555 1_555
C22_2 C23_2 1_555 1_555
O15_2 Mn4 1_555 1_555
O16_2 Mn8_2 1_555 1_555
C31_2 C34_2 1_555 1_555
C31_2 C37_2 1_555 1_555
C33_2 C35_2 1_555 1_555
C36_2 C40_2 1_555 1_555
C37_2 C42_2 1_555 1_555
C38_2 C39_2 1_555 1_555
C43_2 C44_2 1_555 1_555
C44_2 C45_2 1_555 1_555
Mn8_2 O25_2 1_555 1_555
Mn1_2 O1_2 1_555 1_555
Mn2_4 O6_2 1_555 1_555
O1_2 C2_2 1_555 1_555
O3_2 Mn1_2 1_555 1_555
H1_2 O3_2 1_555 1_555
O6_2 C2_2 1_555 1_555
O8_2 C10_2 1_555 1_555
O9_2 C4 1_555 1_555
O10_3 Mn2_4 1_555 1_555
N1_3 C18_3 1_555 1_555
C1_2 C2_2 1_555 1_555
C3_2 C1_2 1_555 1_555
H2_2 C3_2 1_555 1_555
C4 C9 1_555 1_555
C7_2 H3 1_555 1_555
C9 H4 1_555 1_555
C10_2 C3_2 1_555 1_555
H5 C11 1_555 1_555
C13_2 O9_2 1_555 1_555
C18_3 O10_3 1_555 1_555
H10_3 C18_3 1_555 1_555
C19_3 N1_3 1_555 1_555
H11_3 C19_3 1_555 1_555
H12_3 C19_3 1_555 1_555
H13_3 C19_3 1_555 1_555
C20_2 C1_2 1_555 1_555
H14_2 C20_2 1_555 1_555
H15 C21 1_555 1_555
C24_3 N1_3 1_555 1_555
H17_3 C24_3 1_555 1_555
H18_3 C24_3 1_555 1_555
H19_3 C24_3 1_555 1_555
O24_2 Mn1_2 1_555 1_555
O26_2 Mn1_2 1_555 1_555
Mn2_4 O26_2 1_555 1_555
C7_2 C10_2 1_555 1_555
C7_2 C13_2 1_555 1_555
C9 C11 1_555 1_555
C13_2 C20_2 1_555 1_555
O10_4 Mn8_2 1_555 1_555
N1_4 C18_4 1_555 1_555
C18_4 O10_4 1_555 1_555
H10_4 C18_4 1_555 1_555
O20_4 Mn8_2 1_555 1_555
N2_4 C46_4 1_555 1_555
C46_4 O20_4 1_555 1_555
H34_4 C46_4 1_555 1_555
O27_4 Mn8_2 1_555 1_555
H36_3 C47_3 1_555 1_555
H37_3 C47_3 1_555 1_555
H39_3 C48_3 1_555 1_555
H40_3 C48_3 1_555 1_555
Mn4 O1_3 1_555 1_555
O1_3 C2_3 1_555 1_555
O3_3 Mn4 1_555 1_555
H1_3 O3_3 1_555 1_555
O27_3 C2_3 1_555 1_555
O8_3 C10_3 1_555 1_555
C1_3 C2_3 1_555 1_555
C3_3 C1_3 1_555 1_555
H2_3 C3_3 1_555 1_555
C10_3 C3_3 1_555 1_555
C13_3 O9_3 1_555 1_555
C20_3 C1_3 1_555 1_555
H14_3 C20_3 1_555 1_555
C7_3 C10_3 1_555 1_555
C7_3 C13_3 1_555 1_555
C13_3 C20_3 1_555 1_555
O22 C32_3 1_555 1_555
O24_2 C29_3 1_555 1_555
C28_3 C33_3 1_555 1_555
C29_3 O26_2 1_555 1_555
C30_3 C32_3 1_555 1_555
C32_3 O17_3 1_555 1_555
C33_3 H24_3 1_555 1_555
C35_3 C30_3 1_555 1_555
H25_3 C35_3 1_555 1_555
C36_3 C30_3 1_555 1_555
H26_3 C36_3 1_555 1_555
C38_3 H27_3 1_555 1_555
C39_3 C29_3 1_555 1_555
C40_3 C28_3 1_555 1_555
H28_3 C40_3 1_555 1_555
C41_3 C39_3 1_555 1_555
H29_3 C41_3 1_555 1_555
C43_3 C41_3 1_555 1_555
H31_3 C43_3 1_555 1_555
C45_3 C38_3 1_555 1_555
H32_3 C45_3 1_555 1_555
C33_3 C35_3 1_555 1_555
C36_3 C40_3 1_555 1_555
C38_3 C39_3 1_555 1_555
C43_3 C44_3 1_555 1_555
C44_3 C45_3 1_555 1_555
O21 C8_3 1_555 1_555
O23_2 C5_3 1_555 1_555
O25_2 C5_3 1_555 1_555
O7_3 C8_3 1_555 1_555
C5_3 C15_3 1_555 1_555
C6_3 C8_3 1_555 1_555
C12_3 C6_3 1_555 1_555
H6_3 C12_3 1_555 1_555
C14_3 H7_3 1_555 1_555
C15_3 C14_3 1_555 1_555
H8_3 C16_3 1_555 1_555
C17_3 C15_3 1_555 1_555
H9_3 C17_3 1_555 1_555
C23_3 C14_3 1_555 1_555
H16_3 C23_3 1_555 1_555
Mn5 O7_3 1_555 1_555
O11_3 Mn5 1_555 1_555
O13_3 Mn5 1_555 1_555
H21_3 O13_3 1_555 1_555
O27_4 C26_3 1_555 1_555
O18_3 C34_3 1_555 1_555
C25_3 C26_3 1_555 1_555
C26_3 O11_3 1_555 1_555
C27_3 C25_3 1_555 1_555
H22_3 C27_3 1_555 1_555
C34_3 C27_3 1_555 1_555
C37_3 O19_3 1_555 1_555
C42_3 C25_3 1_555 1_555
H30_3 C42_3 1_555 1_555
H33_3 O13_3 1_555 1_555
C12_3 C16_3 1_555 1_555
C22_3 C23_3 1_555 1_555
C31_3 C34_3 1_555 1_555
C31_3 C37_3 1_555 1_555
C37_3 C42_3 1_555 1_555
Mn6 O1_4 1_555 1_555
O1_4 C2_4 1_555 1_555
O3_4 Mn6 1_555 1_555
H1_4 O3_4 1_555 1_555
O27 C2_4 1_555 1_555
O8_4 C10_4 1_555 1_555
O9_4 C4_2 1_555 1_555
C1_4 C2_4 1_555 1_555
C3_4 C1_4 1_555 1_555
H2_4 C3_4 1_555 1_555
C4_2 C9_2 1_555 1_555
C7_4 H3_2 1_555 1_555
C9_2 H4_2 1_555 1_555
C10_4 C3_4 1_555 1_555
H5_2 C11_2 1_555 1_555
C13_4 O9_4 1_555 1_555
C20_4 C1_4 1_555 1_555
H14_4 C20_4 1_555 1_555
H15_2 C21_2 1_555 1_555
C7_4 C10_4 1_555 1_555
C7_4 C13_4 1_555 1_555
C9_2 C11_2 1_555 1_555
C13_4 C20_4 1_555 1_555
O21_2 C8_4 1_555 1_555
O23 C5_4 1_555 1_555
O25 C5_4 1_555 1_555
O7_4 C8_4 1_555 1_555
C5_4 C15_4 1_555 1_555
C6_4 C8_4 1_555 1_555
C12_4 C6_4 1_555 1_555
H6_4 C12_4 1_555 1_555
C14_4 H7_4 1_555 1_555
C15_4 C14_4 1_555 1_555
H8_4 C16_4 1_555 1_555
C17_4 C15_4 1_555 1_555
H9_4 C17_4 1_555 1_555
C23_4 C14_4 1_555 1_555
H16_4 C23_4 1_555 1_555
Mn7 O7_4 1_555 1_555
O11_4 Mn7 1_555 1_555
O22_2 C32_4 1_555 1_555
O13_4 Mn7 1_555 1_555
H21_4 O13_4 1_555 1_555
O24 C29_4 1_555 1_555
O27_2 C26_4 1_555 1_555
O18_4 C34_4 1_555 1_555
O19_4 C28_4 1_555 1_555
C25_4 C26_4 1_555 1_555
C26_4 O11_4 1_555 1_555
C27_4 C25_4 1_555 1_555
H22_4 C27_4 1_555 1_555
C28_4 C33_4 1_555 1_555
C29_4 O26 1_555 1_555
C30_4 C32_4 1_555 1_555
C31_4 H23_4 1_555 1_555
C32_4 O17_4 1_555 1_555
C33_4 H24_4 1_555 1_555
C34_4 C27_4 1_555 1_555
C35_4 C30_4 1_555 1_555
H25_4 C35_4 1_555 1_555
C36_4 C30_4 1_555 1_555
H26_4 C36_4 1_555 1_555
C37_4 O19_4 1_555 1_555
C38_4 H27_4 1_555 1_555
C39_4 C29_4 1_555 1_555
C40_4 C28_4 1_555 1_555
H28_4 C40_4 1_555 1_555
C41_4 C39_4 1_555 1_555
H29_4 C41_4 1_555 1_555
C42_4 C25_4 1_555 1_555
H30_4 C42_4 1_555 1_555
C43_4 C41_4 1_555 1_555
H31_4 C43_4 1_555 1_555
C44_4 O18_4 1_555 1_555
C45_4 C38_4 1_555 1_555
H32_4 C45_4 1_555 1_555
C12_4 C16_4 1_555 1_555
C22_4 C23_4 1_555 1_555
C31_4 C34_4 1_555 1_555
C31_4 C37_4 1_555 1_555
C33_4 C35_4 1_555 1_555
C36_4 C40_4 1_555 1_555
C37_4 C42_4 1_555 1_555
C38_4 C39_4 1_555 1_555
C43_4 C44_4 1_555 1_555
C44_4 C45_4 1_555 1_555
C4_3 C9_3 1_555 1_555
C9_3 H4_3 1_555 1_555
H5_3 C11_3 1_555 1_555
H15_3 C21_3 1_555 1_555
C9_3 C11_3 1_555 1_555
H36_4 C47_4 1_555 1_555
H37_4 C47_4 1_555 1_555
H39_4 C48_4 1_555 1_555
H40_4 C48_4 1_555 1_555
H12_4 C19_4 1_555 1_555
H13_4 C19_4 1_555 1_555
H18_4 C24_4 1_555 1_555
H19_4 C24_4 1_555 1_555
C4_4 C9_4 1_555 1_555
C9_4 H4_4 1_555 1_555
H5_4 C11_4 1_555 1_555
H15_4 C21_4 1_555 1_555
C9_4 C11_4 1_555 1_555

#END
