
###############################################################################
#
# This file contains modified crystal structure data generated from the
# MOF subset of the Cambridge Structural Database (CSD) v543 
# hosted by the Cambridge Crystallographic Data Centre (CCDC).
#
# This work is licensed under the Creative Commons
# Attribution-NonCommercial-ShareAlike 4.0 International License.
# To view a copy of this license, visit
# http://creativecommons.org/licenses/by-nc-sa/4.0/
# or send a letter to
# Creative Commons, PO Box 1866, Mountain View, CA 94042, USA.
#
# CIF created using the CSD Python API on 29 September 2022
# The structure has been converted into the P1 space group
# The structure has a 3D framework
# The original CSD entry YINCIJ is in the monoclinic crystal system
# The framework has been calculated to contain at least 10.0% void space
# The void calculation uses a probe of radius 1.32A, grid spacing 0.4
#
###############################################################################

data_YINCIJ
_chemical_formula_moiety         '(C200 H176 Mn14 N8 O80)n'
_symmetry_cell_setting           triclinic
_symmetry_space_group_name_H-M   'P 1'
_symmetry_Int_Tables_number      1
_space_group_name_Hall           'P 1'
loop_
_symmetry_equiv_pos_site_id
_symmetry_equiv_pos_as_xyz
1 x,y,z
_cell_length_a                   27.579
_cell_length_b                   21.701
_cell_length_c                   9.515
_cell_angle_alpha                90
_cell_angle_beta                 106.34
_cell_angle_gamma                90
_cell_volume                     5464.64
loop_
_atom_site_label
_atom_site_type_symbol
_atom_site_fract_x
_atom_site_fract_y
_atom_site_fract_z
O2 O 0.68386(18) 0.2843(2) 0.0472(6)
C7 C 0.3735(3) 0.4689(3) 0.0084(7)
H5 H 0.3522 0.4878 0.0557
O7 O 0.68265(17) 0.3852(2) 0.0921(6)
O8 O 0.50632(18) 0.4300(2) 0.0844(7)
O10 O 0.51476(18) 0.2090(2) 0.0689(7)
C9 C 0.6086(3) 0.3277(3) 0.0746(7)
C10 C 0.4553(3) 0.4340(3) 0.0110(9)
C11 C 0.5814(2) 0.3801(3) 0.0786(8)
H7 H 0.5966 0.4186 0.0823
C13 C 0.5851(3) 0.2702(3) 0.0689(7)
H11 H 0.6031 0.2342 0.0662
C14 C 0.6628(2) 0.3327(3) 0.0698(7)
C15 C 0.5353(2) 0.2674(3) 0.0675(8)
C16 C 0.5312(3) 0.3754(4) 0.0770(8)
C18 C 0.4239(2) 0.4611(4) 0.0824(9)
H12 H 0.4363 0.4739 0.1792
C19 C 0.4398(3) 0.1528(4) 0.0386(9)
H13 H 0.4537 0.1359 0.1309
C21 C 0.5079(3) 0.3185(4) 0.0728(9)
H17 H 0.4743 0.3157 0.0735
O11 O 0.6907(2) 0.0148(3) 0.0003(7)
H24 H 0.6854 0.0323 0.0746
C47 C 0.2640(4) 0.3552(5) 0.0520(10)
H36 H 0.2352 0.3801 0.0048
H37 H 0.2542 0.3247 0.1119
H38 H 0.2900 0.3809 0.1120
H43 H 0.3581 0.3329 0.0220
H44 H 0.3370 0.2719 0.0709
Mn7 Mn 0.74615(4) 0.43319(5) 0.06499(11)
Mn8 Mn 0.7500 0.2500 0.0000
O26 O 0.7869(2) 0.0613(3) 0.1539(6)
Mn1 Mn 0.24615(4) 0.06681(5) 0.56499(11)
O1 O 0.3093(2) 0.0148(3) 0.4997(7)
H2 H 0.3146 0.0323 0.4254
Mn2 Mn 0.2500 0.2500 0.5000
O3 O 0.29775(18) 0.1612(2) 0.6036(5)
O4 O 0.30531(18) 0.0864(2) 0.7623(6)
C1 C 0.3216(3) 0.1353(4) 0.7225(8)
C2 C 0.3699(3) 0.1605(3) 0.8162(8)
C3 C 0.3955(3) 0.2065(4) 0.7663(8)
H3 H 0.3805 0.2255 0.6769
C4 C 0.3920(3) 0.1339(4) 0.9492(9)
H4 H 0.3750 0.1024 0.9819
O5 O 0.27083(18) 0.4853(2) 0.8414(7)
O6 O 0.2869(2) 0.4387(3) 0.6539(6)
C5 C 0.3004(3) 0.4588(3) 0.7814(8)
C6 C 0.3539(2) 0.4491(3) 0.8641(7)
C8 C 0.3867(3) 0.4222(3) 0.7935(8)
H6 H 0.3745 0.4090 0.6970
O9 O 0.2260(2) 0.2107(3) 0.2848(6)
C17 C 0.4654(3) 0.1979(4) 0.9828(9)
N1 N 0.2170(3) 0.1754(3) 0.0594(7)
C20 C 0.2963(4) 0.1565(4) 0.2465(11)
H14 H 0.3075 0.1555 0.3515
H15 H 0.3189 0.1817 0.2107
H16 H 0.2960 0.1155 0.2088
C22 C 0.4441(3) 0.2249(4) 0.8500(9)
H18 H 0.4616 0.2552 0.8151
C23 C 0.4373(3) 0.4150(4) 0.8668(10)
H19 H 0.4592 0.3975 0.8194
C24 C 0.1654(4) 0.2003(4) 0.0094(10)
H20 H 0.1578 0.2221 0.0883
C25 C 0.2444(3) 0.1829(4) 0.1975(9)
Mn3 Mn 0.75385(4) 0.06681(5) 0.93501(11)
O12 O 0.31614(18) 0.2843(2) 0.4528(6)
O13 O 0.70225(18) 0.1612(2) 0.8964(5)
O14 O 0.69469(18) 0.0864(2) 0.7377(6)
C26 C 0.6784(3) 0.1353(4) 0.7775(8)
C27 C 0.6301(3) 0.1605(3) 0.6838(8)
C28 C 0.6045(3) 0.2065(4) 0.7337(8)
H25 H 0.6195 0.2255 0.8231
C29 C 0.6080(3) 0.1339(4) 0.5508(9)
H26 H 0.6250 0.1024 0.5181
O15 O 0.72917(18) 0.4853(2) 0.6586(7)
O16 O 0.7131(2) 0.4387(3) 0.8461(6)
C30 C 0.6996(3) 0.4588(3) 0.7186(8)
C31 C 0.6461(2) 0.4491(3) 0.6359(7)
C32 C 0.6265(3) 0.4689(3) 0.4916(7)
H27 H 0.6478 0.4878 0.4443
C33 C 0.6133(3) 0.4222(3) 0.7065(8)
H28 H 0.6255 0.4090 0.8030
O17 O 0.31735(17) 0.3852(2) 0.4079(6)
O18 O 0.49368(18) 0.4300(2) 0.4156(7)
O19 O 0.48524(18) 0.2090(2) 0.4311(7)
C34 C 0.3914(3) 0.3277(3) 0.4254(7)
C35 C 0.5447(3) 0.4340(3) 0.4890(9)
C36 C 0.4186(2) 0.3801(3) 0.4214(8)
H29 H 0.4034 0.4186 0.4177
C37 C 0.4149(3) 0.2702(3) 0.4311(7)
H30 H 0.3969 0.2342 0.4338
C38 C 0.3372(2) 0.3327(3) 0.4302(7)
C39 C 0.4647(2) 0.2674(3) 0.4325(8)
C40 C 0.4688(3) 0.3754(4) 0.4230(8)
C41 C 0.5346(3) 0.1979(4) 0.5172(9)
C42 C 0.5761(2) 0.4611(4) 0.4176(9)
H31 H 0.5637 0.4739 0.3208
C43 C 0.5602(3) 0.1528(4) 0.4614(9)
H32 H 0.5463 0.1359 0.3691
C44 C 0.4921(3) 0.3185(4) 0.4272(9)
H33 H 0.5257 0.3157 0.4265
C45 C 0.5559(3) 0.2249(4) 0.6500(9)
H34 H 0.5384 0.2552 0.6849
C46 C 0.5627(3) 0.4150(4) 0.6332(10)
H35 H 0.5408 0.3975 0.6806
O20 O 0.2740(2) 0.2893(3) 0.7152(6)
N2 N 0.2830(3) 0.3246(3) 0.9406(7)
C48 C 0.2037(4) 0.3435(4) 0.7535(11)
H39 H 0.1925 0.3445 0.6485
H40 H 0.1811 0.3183 0.7893
H41 H 0.2040 0.3845 0.7912
C49 C 0.3346(4) 0.2997(4) 0.9906(10)
H42 H 0.3422 0.2779 0.9117
C50 C 0.2556(3) 0.3171(4) 0.8025(9)
Mn4 Mn 0.74615(4) 0.56681(5) 0.56499(11)
Mn5 Mn 0.25385(4) 0.56681(5) 0.93501(11)
Mn6 Mn 0.25385(4) 0.43319(5) 0.43501(11)
Mn8_2 Mn 0.7500 0.2500 1.0000
O21 O 0.18386(18) 0.2157(2) 0.5472(6)
O22 O 0.20225(18) 0.3388(2) 0.3964(5)
O25 O 0.2131(2) 0.0613(3) 0.3461(6)
O27 O 0.81735(17) 0.1148(2) 0.9079(6)
O28 O 0.18265(17) 0.1148(2) 0.5921(6)
H1 H 0.3004 0.9776 0.4788
O23 O 0.77083(18) 0.9853(2) 0.8414(7)
O24 O 0.22917(18) 0.9853(2) 0.6586(7)
O9_2 O 0.7740(2) 0.2107(3) 0.2152(6)
C12 C 0.7640(4) 0.1448(5) 0.5520(10)
H8 H 0.7352 0.1199 0.5048
H9 H 0.7542 0.1753 0.6119
H10 H 0.7900 0.1191 0.6120
N1_2 N 0.7830(3) 0.1754(3) 0.4406(7)
C20_2 C 0.7037(4) 0.1565(4) 0.2535(11)
H14_2 H 0.6925 0.1555 0.1485
H15_2 H 0.6811 0.1817 0.2893
H16_2 H 0.7040 0.1155 0.2912
C24_2 C 0.8346(4) 0.2003(4) 0.4906(10)
H20_2 H 0.8422 0.2221 0.4117
H21 H 0.8581 0.1671 0.5220
H22 H 0.8370 0.2281 0.5709
C25_2 C 0.7556(3) 0.1829(4) 0.3025(9)
O22_2 O 0.79775(18) 0.3388(2) 0.1036(5)
O20_2 O 0.7260(2) 0.2893(3) 0.7848(6)
C47_2 C 0.7360(4) 0.3552(5) 0.4480(10)
H36_2 H 0.7648 0.3801 0.4952
H37_2 H 0.7458 0.3247 0.3881
H38_2 H 0.7100 0.3809 0.3880
N2_2 N 0.7170(3) 0.3246(3) 0.5594(7)
C48_2 C 0.7963(4) 0.3435(4) 0.7465(11)
H39_2 H 0.8075 0.3445 0.8515
H40_2 H 0.8189 0.3183 0.7107
H41_2 H 0.7960 0.3845 0.7088
C49_2 C 0.6654(4) 0.2997(4) 0.5094(10)
H42_2 H 0.6578 0.2779 0.5883
H43_2 H 0.6419 0.3329 0.4780
H44_2 H 0.6630 0.2719 0.4291
C50_2 C 0.7444(3) 0.3171(4) 0.6975(9)
O21_2 O 0.81614(18) 0.2157(2) 0.9528(6)
O2_2 O 0.18386(18) 0.7843(2) 0.0472(6)
O7_2 O 0.18265(17) 0.8852(2) 0.0921(6)
O8_2 O 0.00632(18) 0.9300(2) 0.0844(7)
O10_2 O 0.01476(18) 0.7090(2) 0.0689(7)
C9_2 C 0.1086(3) 0.8277(3) 0.0746(7)
C11_2 C 0.0814(2) 0.8801(3) 0.0786(8)
H7_2 H 0.0966 0.9186 0.0823
C13_2 C 0.0851(3) 0.7702(3) 0.0689(7)
H11_2 H 0.1031 0.7342 0.0662
C14_2 C 0.1628(2) 0.8327(3) 0.0698(7)
C15_2 C 0.0353(2) 0.7674(3) 0.0675(8)
C16_2 C 0.0312(3) 0.8754(4) 0.0770(8)
C21_2 C 0.0079(3) 0.8185(4) 0.0728(9)
O11_2 O 0.1907(2) 0.5148(3) 0.0003(7)
H23 H 0.1996 0.4776 0.0212
H24_2 H 0.1854 0.5323 0.0746
Mn7_2 Mn 0.24615(4) 0.93319(5) 0.06499(11)
Mn8_3 Mn 0.2500 0.7500 0.0000
O26_2 O 0.2869(2) 0.5613(3) 0.1539(6)
O13_2 O 0.20225(18) 0.6612(2) 0.8964(5)
O14_2 O 0.19469(18) 0.5864(2) 0.7377(6)
C26_2 C 0.1784(3) 0.6353(4) 0.7775(8)
C27_2 C 0.1301(3) 0.6605(3) 0.6838(8)
C28_2 C 0.1045(3) 0.7065(4) 0.7337(8)
H25_2 H 0.1195 0.7255 0.8231
C29_2 C 0.1080(3) 0.6339(4) 0.5508(9)
H26_2 H 0.1250 0.6024 0.5181
O16_2 O 0.2131(2) 0.9387(3) 0.8461(6)
C30_2 C 0.1996(3) 0.9588(3) 0.7186(8)
C31_2 C 0.1461(2) 0.9491(3) 0.6359(7)
C32_2 C 0.1265(3) 0.9689(3) 0.4916(7)
H27_2 H 0.1478 0.9878 0.4443
C33_2 C 0.1133(3) 0.9222(3) 0.7065(8)
H28_2 H 0.1255 0.9090 0.8030
C35_2 C 0.0447(3) 0.9340(3) 0.4890(9)
C41_2 C 0.0346(3) 0.6979(4) 0.5172(9)
C42_2 C 0.0761(2) 0.9611(4) 0.4176(9)
H31_2 H 0.0637 0.9739 0.3208
C43_2 C 0.0602(3) 0.6528(4) 0.4614(9)
H32_2 H 0.0463 0.6359 0.3691
H33_2 H 0.0257 0.8157 0.4265
C45_2 C 0.0559(3) 0.7249(4) 0.6500(9)
H34_2 H 0.0384 0.7552 0.6849
C46_2 C 0.0627(3) 0.9150(4) 0.6332(10)
H35_2 H 0.0408 0.8975 0.6806
Mn8_4 Mn 0.2500 0.7500 1.0000
O27_2 O 0.31735(17) 0.6148(2) 0.9079(6)
O1_2 O 0.8093(2) 0.5148(3) 0.4997(7)
H1_2 H 0.8004 0.4776 0.4788
H2_2 H 0.8146 0.5323 0.4254
Mn2_2 Mn 0.7500 0.7500 0.5000
O3_2 O 0.79775(18) 0.6612(2) 0.6036(5)
O4_2 O 0.80531(18) 0.5864(2) 0.7623(6)
C1_2 C 0.8216(3) 0.6353(4) 0.7225(8)
C2_2 C 0.8699(3) 0.6605(3) 0.8162(8)
C3_2 C 0.8955(3) 0.7065(4) 0.7663(8)
H3_2 H 0.8805 0.7255 0.6769
C4_2 C 0.8920(3) 0.6339(4) 0.9492(9)
H4_2 H 0.8750 0.6024 0.9819
O6_2 O 0.7869(2) 0.9387(3) 0.6539(6)
C5_2 C 0.8004(3) 0.9588(3) 0.7814(8)
C6_2 C 0.8539(2) 0.9491(3) 0.8641(7)
C8_2 C 0.8867(3) 0.9222(3) 0.7935(8)
H6_2 H 0.8745 0.9090 0.6970
O9_3 O 0.7260(2) 0.7107(3) 0.2848(6)
C17_2 C 0.9654(3) 0.6979(4) 0.9828(9)
N1_3 N 0.7170(3) 0.6754(3) 0.0594(7)
C20_3 C 0.7963(4) 0.6565(4) 0.2465(11)
H14_3 H 0.8075 0.6555 0.3515
H15_3 H 0.8189 0.6817 0.2107
H16_3 H 0.7960 0.6155 0.2088
C22_2 C 0.9441(3) 0.7249(4) 0.8500(9)
H18_2 H 0.9616 0.7552 0.8151
C23_2 C 0.9373(3) 0.9150(4) 0.8668(10)
H19_2 H 0.9592 0.8975 0.8194
C24_3 C 0.6654(4) 0.7003(4) 0.0094(10)
H20_3 H 0.6578 0.7221 0.0883
C25_3 C 0.7444(3) 0.6829(4) 0.1975(9)
O12_2 O 0.81614(18) 0.7843(2) 0.4528(6)
O17_2 O 0.81735(17) 0.8852(2) 0.4079(6)
O18_2 O 0.99368(18) 0.9300(2) 0.4156(7)
O19_2 O 0.98524(18) 0.7090(2) 0.4311(7)
C34_2 C 0.8914(3) 0.8277(3) 0.4254(7)
C36_2 C 0.9186(2) 0.8801(3) 0.4214(8)
H29_2 H 0.9034 0.9186 0.4177
C37_2 C 0.9149(3) 0.7702(3) 0.4311(7)
H30_2 H 0.8969 0.7342 0.4338
C38_2 C 0.8372(2) 0.8327(3) 0.4302(7)
C39_2 C 0.9647(2) 0.7674(3) 0.4325(8)
C40_2 C 0.9688(3) 0.8754(4) 0.4230(8)
C44_2 C 0.9921(3) 0.8185(4) 0.4272(9)
O20_3 O 0.7740(2) 0.7893(3) 0.7152(6)
N2_3 N 0.7830(3) 0.8246(3) 0.9406(7)
C48_3 C 0.7037(4) 0.8435(4) 0.7535(11)
H39_3 H 0.6925 0.8445 0.6485
H40_3 H 0.6811 0.8183 0.7893
H41_3 H 0.7040 0.8845 0.7912
C49_3 C 0.8346(4) 0.7997(4) 0.9906(10)
H42_3 H 0.8422 0.7779 0.9117
C50_3 C 0.7556(3) 0.8171(4) 0.8025(9)
Mn6_2 Mn 0.75385(4) 0.93319(5) 0.43501(11)
O21_3 O 0.68386(18) 0.7157(2) 0.5472(6)
O22_3 O 0.70225(18) 0.8388(2) 0.3964(5)
O25_2 O 0.7131(2) 0.5613(3) 0.3461(6)
O28_2 O 0.68265(17) 0.6148(2) 0.5921(6)
C12_2 C 0.7360(4) 0.6448(5) 0.9480(10)
H8_2 H 0.7648 0.6199 0.9952
H9_2 H 0.7458 0.6753 0.8881
H10_2 H 0.7100 0.6191 0.8880
H21_2 H 0.6419 0.6671 0.9780
H22_2 H 0.6630 0.7281 0.9291
O9_4 O 0.2740(2) 0.7107(3) 0.2152(6)
C12_3 C 0.2640(4) 0.6448(5) 0.5520(10)
H8_3 H 0.2352 0.6199 0.5048
H9_3 H 0.2542 0.6753 0.6119
H10_3 H 0.2900 0.6191 0.6120
N1_4 N 0.2830(3) 0.6754(3) 0.4406(7)
C20_4 C 0.2037(4) 0.6565(4) 0.2535(11)
H14_4 H 0.1925 0.6555 0.1485
H15_4 H 0.1811 0.6817 0.2893
H16_4 H 0.2040 0.6155 0.2912
C24_4 C 0.3346(4) 0.7003(4) 0.4906(10)
H20_4 H 0.3422 0.7221 0.4117
H21_3 H 0.3581 0.6671 0.5220
H22_3 H 0.3370 0.7281 0.5709
C25_4 C 0.2556(3) 0.6829(4) 0.3025(9)
O22_4 O 0.29775(18) 0.8388(2) 0.1036(5)
O20_4 O 0.2260(2) 0.7893(3) 0.7848(6)
C47_3 C 0.2360(4) 0.8552(5) 0.4480(10)
H36_3 H 0.2648 0.8801 0.4952
H37_3 H 0.2458 0.8247 0.3881
H38_3 H 0.2100 0.8809 0.3880
N2_4 N 0.2170(3) 0.8246(3) 0.5594(7)
C48_4 C 0.2963(4) 0.8435(4) 0.7465(11)
H39_4 H 0.3075 0.8445 0.8515
H40_4 H 0.3189 0.8183 0.7107
H41_4 H 0.2960 0.8845 0.7088
C49_4 C 0.1654(4) 0.7997(4) 0.5094(10)
H42_4 H 0.1578 0.7779 0.5883
H43_3 H 0.1419 0.8329 0.4780
H44_3 H 0.1630 0.7719 0.4291
C50_4 C 0.2444(3) 0.8171(4) 0.6975(9)
O21_4 O 0.31614(18) 0.7157(2) 0.9528(6)
H1_3 H 0.6996 0.0224 0.5212
O23_2 O 0.22917(18) 0.0147(2) 0.1586(7)
O24_2 O 0.77083(18) 0.0147(2) 0.3414(7)
O1_3 O 0.6907(2) 0.9852(3) 0.5003(7)
H2_3 H 0.6854 0.9677 0.5746
O4_3 O 0.69469(18) 0.9136(2) 0.2377(6)
C1_3 C 0.6784(3) 0.8647(4) 0.2775(8)
C2_3 C 0.6301(3) 0.8395(3) 0.1838(8)
C3_3 C 0.6045(3) 0.7935(4) 0.2337(8)
H3_3 H 0.6195 0.7745 0.3231
C4_3 C 0.6080(3) 0.8661(4) 0.0508(9)
H4_3 H 0.6250 0.8976 0.0181
O5_2 O 0.72917(18) 0.5147(2) 0.1586(7)
C5_3 C 0.6996(3) 0.5412(3) 0.2186(8)
C6_3 C 0.6461(2) 0.5509(3) 0.1359(7)
C8_3 C 0.6133(3) 0.5778(3) 0.2065(8)
H6_3 H 0.6255 0.5910 0.3030
C17_3 C 0.5346(3) 0.8021(4) 0.0172(9)
C22_3 C 0.5559(3) 0.7751(4) 0.1500(9)
H18_3 H 0.5384 0.7448 0.1849
C23_3 C 0.5627(3) 0.5850(4) 0.1332(10)
H19_3 H 0.5408 0.6025 0.1806
O14_3 O 0.30531(18) 0.9136(2) 0.2623(6)
C26_3 C 0.3216(3) 0.8647(4) 0.2225(8)
C27_3 C 0.3699(3) 0.8395(3) 0.3162(8)
C28_3 C 0.3955(3) 0.7935(4) 0.2663(8)
H25_3 H 0.3805 0.7745 0.1769
C29_3 C 0.3920(3) 0.8661(4) 0.4492(9)
H26_3 H 0.3750 0.8976 0.4819
O15_2 O 0.27083(18) 0.5147(2) 0.3414(7)
C30_3 C 0.3004(3) 0.5412(3) 0.2814(8)
C31_3 C 0.3539(2) 0.5509(3) 0.3641(7)
C32_3 C 0.3735(3) 0.5311(3) 0.5084(7)
H27_3 H 0.3522 0.5122 0.5557
C33_3 C 0.3867(3) 0.5778(3) 0.2935(8)
H28_3 H 0.3745 0.5910 0.1970
O18_3 O 0.50632(18) 0.5700(2) 0.5844(7)
O19_3 O 0.51476(18) 0.7910(2) 0.5689(7)
C34_3 C 0.6086(3) 0.6723(3) 0.5746(7)
C35_3 C 0.4553(3) 0.5660(3) 0.5110(9)
C36_3 C 0.5814(2) 0.6199(3) 0.5786(8)
H29_3 H 0.5966 0.5814 0.5823
C37_3 C 0.5851(3) 0.7298(3) 0.5689(7)
H30_3 H 0.6031 0.7658 0.5662
C38_3 C 0.6628(2) 0.6673(3) 0.5698(7)
C39_3 C 0.5353(2) 0.7326(3) 0.5675(8)
C40_3 C 0.5312(3) 0.6246(4) 0.5770(8)
C41_3 C 0.4654(3) 0.8021(4) 0.4828(9)
C42_3 C 0.4239(2) 0.5389(4) 0.5824(9)
H31_3 H 0.4363 0.5261 0.6792
C43_3 C 0.4398(3) 0.8472(4) 0.5386(9)
H32_3 H 0.4537 0.8641 0.6309
C44_3 C 0.5079(3) 0.6815(4) 0.5728(9)
H33_3 H 0.4743 0.6843 0.5735
C45_3 C 0.4441(3) 0.7751(4) 0.3500(9)
H34_3 H 0.4616 0.7448 0.3151
C46_3 C 0.4373(3) 0.5850(4) 0.3668(10)
H35_3 H 0.4592 0.6025 0.3194
C7_2 C 0.6265(3) 0.5311(3) 0.9916(7)
H5_2 H 0.6478 0.5122 0.9443
O8_3 O 0.49368(18) 0.5700(2) 0.9156(7)
O10_3 O 0.48524(18) 0.7910(2) 0.9311(7)
C9_3 C 0.3914(3) 0.6723(3) 0.9254(7)
C10_2 C 0.5447(3) 0.5660(3) 0.9890(9)
C11_3 C 0.4186(2) 0.6199(3) 0.9214(8)
H7_3 H 0.4034 0.5814 0.9177
C13_3 C 0.4149(3) 0.7298(3) 0.9311(7)
H11_3 H 0.3969 0.7658 0.9338
C14_3 C 0.3372(2) 0.6673(3) 0.9302(7)
C15_3 C 0.4647(2) 0.7326(3) 0.9325(8)
C16_3 C 0.4688(3) 0.6246(4) 0.9230(8)
C18_2 C 0.5761(2) 0.5389(4) 0.9176(9)
H12_2 H 0.5637 0.5261 0.8208
C19_2 C 0.5602(3) 0.8472(4) 0.9614(9)
H13_2 H 0.5463 0.8641 0.8691
C21_3 C 0.4921(3) 0.6815(4) 0.9272(9)
H17_2 H 0.5257 0.6843 0.9265
O11_3 O 0.3093(2) 0.9852(3) 0.9997(7)
H24_3 H 0.3146 0.9677 0.9254
O1_4 O 0.1907(2) 0.4852(3) 0.5003(7)
H1_4 H 0.1996 0.5224 0.5212
H2_4 H 0.1854 0.4677 0.5746
O4_4 O 0.19469(18) 0.4136(2) 0.2377(6)
C1_4 C 0.1784(3) 0.3647(4) 0.2775(8)
C2_4 C 0.1301(3) 0.3395(3) 0.1838(8)
C3_4 C 0.1045(3) 0.2935(4) 0.2337(8)
H3_4 H 0.1195 0.2745 0.3231
C4_4 C 0.1080(3) 0.3661(4) 0.0508(9)
H4_4 H 0.1250 0.3976 0.0181
C5_4 C 0.1996(3) 0.0412(3) 0.2186(8)
C6_4 C 0.1461(2) 0.0509(3) 0.1359(7)
C8_4 C 0.1133(3) 0.0778(3) 0.2065(8)
H6_4 H 0.1255 0.0910 0.3030
C17_4 C 0.0346(3) 0.3021(4) 0.0172(9)
C22_4 C 0.0559(3) 0.2751(4) 0.1500(9)
H18_4 H 0.0384 0.2448 0.1849
C23_4 C 0.0627(3) 0.0850(4) 0.1332(10)
H19_4 H 0.0408 0.1025 0.1806
O18_4 O 0.00632(18) 0.0700(2) 0.5844(7)
O19_4 O 0.01476(18) 0.2910(2) 0.5689(7)
C34_4 C 0.1086(3) 0.1723(3) 0.5746(7)
C36_4 C 0.0814(2) 0.1199(3) 0.5786(8)
H29_4 H 0.0966 0.0814 0.5823
C37_4 C 0.0851(3) 0.2298(3) 0.5689(7)
H30_4 H 0.1031 0.2658 0.5662
C38_4 C 0.1628(2) 0.1673(3) 0.5698(7)
C39_4 C 0.0353(2) 0.2326(3) 0.5675(8)
C40_4 C 0.0312(3) 0.1246(4) 0.5770(8)
C44_4 C 0.0079(3) 0.1815(4) 0.5728(9)
O14_4 O 0.80531(18) 0.4136(2) 0.2623(6)
C26_4 C 0.8216(3) 0.3647(4) 0.2225(8)
C27_4 C 0.8699(3) 0.3395(3) 0.3162(8)
C28_4 C 0.8955(3) 0.2935(4) 0.2663(8)
H25_4 H 0.8805 0.2745 0.1769
C29_4 C 0.8920(3) 0.3661(4) 0.4492(9)
H26_4 H 0.8750 0.3976 0.4819
C30_4 C 0.8004(3) 0.0412(3) 0.2814(8)
C31_4 C 0.8539(2) 0.0509(3) 0.3641(7)
C32_4 C 0.8735(3) 0.0311(3) 0.5084(7)
H27_4 H 0.8522 0.0122 0.5557
C33_4 C 0.8867(3) 0.0778(3) 0.2935(8)
H28_4 H 0.8745 0.0910 0.1970
C35_4 C 0.9553(3) 0.0660(3) 0.5110(9)
C41_4 C 0.9654(3) 0.3021(4) 0.4828(9)
C42_4 C 0.9239(2) 0.0389(4) 0.5824(9)
H31_4 H 0.9363 0.0261 0.6792
C43_4 C 0.9398(3) 0.3472(4) 0.5386(9)
H32_4 H 0.9537 0.3641 0.6309
H33_4 H 0.9743 0.1843 0.5735
C45_4 C 0.9441(3) 0.2751(4) 0.3500(9)
H34_4 H 0.9616 0.2448 0.3151
C46_4 C 0.9373(3) 0.0850(4) 0.3668(10)
H35_4 H 0.9592 0.1025 0.3194
O8_4 O 0.99368(18) 0.0700(2) 0.9156(7)
O10_4 O 0.98524(18) 0.2910(2) 0.9311(7)
C9_4 C 0.8914(3) 0.1723(3) 0.9254(7)
C11_4 C 0.9186(2) 0.1199(3) 0.9214(8)
H7_4 H 0.9034 0.0814 0.9177
C13_4 C 0.9149(3) 0.2298(3) 0.9311(7)
H11_4 H 0.8969 0.2658 0.9338
C14_4 C 0.8372(2) 0.1673(3) 0.9302(7)
C15_4 C 0.9647(2) 0.2326(3) 0.9325(8)
C16_4 C 0.9688(3) 0.1246(4) 0.9230(8)
C21_4 C 0.9921(3) 0.1815(4) 0.9272(9)
O11_4 O 0.8093(2) 0.4852(3) 0.9997(7)
H23_2 H 0.8004 0.5224 0.9788
H24_4 H 0.8146 0.4677 0.9254
C12_4 C 0.2360(4) 0.1448(5) 0.9480(10)
H8_4 H 0.2648 0.1199 0.9952
H9_4 H 0.2458 0.1753 0.8881
H10_4 H 0.2100 0.1191 0.8880
H21_4 H 0.1419 0.1671 0.9780
H22_4 H 0.1630 0.2281 0.9291
C7_3 C 0.1265(3) 0.0311(3) 0.9916(7)
H5_3 H 0.1478 0.0122 0.9443
C10_3 C 0.0447(3) 0.0660(3) 0.9890(9)
C18_3 C 0.0761(2) 0.0389(4) 0.9176(9)
H12_3 H 0.0637 0.0261 0.8208
C19_3 C 0.0602(3) 0.3472(4) 0.9614(9)
H13_3 H 0.0463 0.3641 0.8691
H17_3 H 0.0257 0.1843 0.9265
H23_3 H 0.6996 0.9776 0.0212
C7_4 C 0.8735(3) 0.9689(3) 0.0084(7)
H5_4 H 0.8522 0.9878 0.0557
C10_4 C 0.9553(3) 0.9340(3) 0.0110(9)
C18_4 C 0.9239(2) 0.9611(4) 0.0824(9)
H12_4 H 0.9363 0.9739 0.1792
C19_4 C 0.9398(3) 0.6528(4) 0.0386(9)
H13_4 H 0.9537 0.6359 0.1309
H17_4 H 0.9743 0.8157 0.0735
C47_4 C 0.7640(4) 0.8552(5) 0.0520(10)
H36_4 H 0.7352 0.8801 0.0048
H37_4 H 0.7542 0.8247 0.1119
H38_4 H 0.7900 0.8809 0.1120
H43_4 H 0.8581 0.8329 0.0220
H44_4 H 0.8370 0.7719 0.0709
H23_4 H 0.3004 0.0224 0.9788
loop_
_geom_bond_atom_site_label_1
_geom_bond_atom_site_label_2
_geom_bond_site_symmetry_1
_geom_bond_site_symmetry_2
O2 C14 1_555 1_555
C7 H5 1_555 1_555
O7 C14 1_555 1_555
O8 C10 1_555 1_555
O10 C15 1_555 1_555
C9 C11 1_555 1_555
C10 C18 1_555 1_555
C11 H7 1_555 1_555
C13 C9 1_555 1_555
H11 C13 1_555 1_555
C14 C9 1_555 1_555
C15 C13 1_555 1_555
C16 O8 1_555 1_555
C18 C7 1_555 1_555
H12 C18 1_555 1_555
H13 C19 1_555 1_555
C21 C15 1_555 1_555
H17 C21 1_555 1_555
H24 O11 1_555 1_555
C47 H36 1_555 1_555
H37 C47 1_555 1_555
H38 C47 1_555 1_555
Mn7 O7 1_555 1_555
Mn8 O2 1_555 1_555
C11 C16 1_555 1_555
C16 C21 1_555 1_555
Mn1 O1 1_555 1_555
H2 O1 1_555 1_555
Mn2 O3 1_555 1_555
O3 Mn1 1_555 1_555
O4 Mn1 1_555 1_555
C1 O3 1_555 1_555
C2 C1 1_555 1_555
C3 C2 1_555 1_555
H3 C3 1_555 1_555
C4 C2 1_555 1_555
H4 C4 1_555 1_555
O5 C5 1_555 1_555
O6 C5 1_555 1_555
C5 C6 1_555 1_555
C8 C6 1_555 1_555
H6 C8 1_555 1_555
O9 Mn2 1_555 1_555
C20 H14 1_555 1_555
H15 C20 1_555 1_555
H16 C20 1_555 1_555
C22 C3 1_555 1_555
H18 C22 1_555 1_555
C23 C8 1_555 1_555
H19 C23 1_555 1_555
C24 N1 1_555 1_555
H20 C24 1_555 1_555
C25 O9 1_555 1_555
O12 Mn2 1_555 1_555
O13 Mn3 1_555 1_555
O14 Mn3 1_555 1_555
C26 O13 1_555 1_555
C27 C26 1_555 1_555
C28 C27 1_555 1_555
H25 C28 1_555 1_555
C29 C27 1_555 1_555
H26 C29 1_555 1_555
O15 C30 1_555 1_555
O16 C30 1_555 1_555
C30 C31 1_555 1_555
C31 C32 1_555 1_555
C32 H27 1_555 1_555
C33 C31 1_555 1_555
H28 C33 1_555 1_555
O17 C38 1_555 1_555
O18 C35 1_555 1_555
O19 C39 1_555 1_555
C34 C36 1_555 1_555
C35 C42 1_555 1_555
C36 H29 1_555 1_555
C37 C34 1_555 1_555
H30 C37 1_555 1_555
C38 O12 1_555 1_555
C39 C37 1_555 1_555
C40 O18 1_555 1_555
C41 O19 1_555 1_555
C42 C32 1_555 1_555
H31 C42 1_555 1_555
C43 C29 1_555 1_555
H32 C43 1_555 1_555
C44 C39 1_555 1_555
H33 C44 1_555 1_555
C45 C28 1_555 1_555
H34 C45 1_555 1_555
C46 C33 1_555 1_555
H35 C46 1_555 1_555
O20 Mn2 1_555 1_555
C48 H39 1_555 1_555
H40 C48 1_555 1_555
H41 C48 1_555 1_555
C49 N2 1_555 1_555
H42 C49 1_555 1_555
C50 O20 1_555 1_555
Mn4 O15 1_555 1_555
Mn5 O5 1_555 1_555
Mn6 O6 1_555 1_555
O21 Mn2 1_555 1_555
O22 Mn2 1_555 1_555
O25 Mn1 1_555 1_555
O27 Mn3 1_555 1_555
O28 Mn1 1_555 1_555
O4 C1 1_555 1_555
C17 C22 1_555 1_555
N1 C25 1_555 1_555
C20 C25 1_555 1_555
O13 Mn8_2 1_555 1_555
O14 C26 1_555 1_555
O17 Mn6 1_555 1_555
C34 C38 1_555 1_555
C35 C46 1_555 1_555
C36 C40 1_555 1_555
C40 C44 1_555 1_555
C41 C43 1_555 1_555
C41 C45 1_555 1_555
N2 C50 1_555 1_555
C48 C50 1_555 1_555
Mn6 O22 1_555 1_555
O9_2 Mn8 1_555 1_555
C12 H8 1_555 1_555
H9 C12 1_555 1_555
H10 C12 1_555 1_555
N1_2 C12 1_555 1_555
C20_2 H14_2 1_555 1_555
H15_2 C20_2 1_555 1_555
H16_2 C20_2 1_555 1_555
C24_2 N1_2 1_555 1_555
H20_2 C24_2 1_555 1_555
H21 C24_2 1_555 1_555
H22 C24_2 1_555 1_555
C25_2 O9_2 1_555 1_555
O22_2 Mn8 1_555 1_555
N1_2 C25_2 1_555 1_555
C20_2 C25_2 1_555 1_555
Mn7 O22_2 1_555 1_555
O20_2 Mn8_2 1_555 1_555
C47_2 H36_2 1_555 1_555
H37_2 C47_2 1_555 1_555
H38_2 C47_2 1_555 1_555
N2_2 C47_2 1_555 1_555
C48_2 H39_2 1_555 1_555
H40_2 C48_2 1_555 1_555
H41_2 C48_2 1_555 1_555
C49_2 N2_2 1_555 1_555
H42_2 C49_2 1_555 1_555
H43_2 C49_2 1_555 1_555
H44_2 C49_2 1_555 1_555
C50_2 O20_2 1_555 1_555
O21_2 Mn8_2 1_555 1_555
N2_2 C50_2 1_555 1_555
C48_2 C50_2 1_555 1_555
O2_2 C14_2 1_555 1_555
O7_2 C14_2 1_555 1_555
O10_2 C15_2 1_555 1_555
C9_2 C11_2 1_555 1_555
C11_2 H7_2 1_555 1_555
C13_2 C9_2 1_555 1_555
H11_2 C13_2 1_555 1_555
C14_2 C9_2 1_555 1_555
C15_2 C13_2 1_555 1_555
C16_2 O8_2 1_555 1_555
C21_2 C15_2 1_555 1_555
O11_2 H23 1_555 1_555
H24_2 O11_2 1_555 1_555
Mn7_2 O7_2 1_555 1_555
Mn8_3 O2_2 1_555 1_555
C11_2 C16_2 1_555 1_555
C16_2 C21_2 1_555 1_555
O13_2 Mn5 1_555 1_555
O14_2 Mn5 1_555 1_555
C26_2 O13_2 1_555 1_555
C27_2 C26_2 1_555 1_555
C28_2 C27_2 1_555 1_555
H25_2 C28_2 1_555 1_555
C29_2 C27_2 1_555 1_555
H26_2 C29_2 1_555 1_555
O24 C30_2 1_555 1_555
O16_2 C30_2 1_555 1_555
C30_2 C31_2 1_555 1_555
C31_2 C32_2 1_555 1_555
C32_2 H27_2 1_555 1_555
C33_2 C31_2 1_555 1_555
H28_2 C33_2 1_555 1_555
C35_2 C42_2 1_555 1_555
C42_2 C32_2 1_555 1_555
H31_2 C42_2 1_555 1_555
C43_2 C29_2 1_555 1_555
H32_2 C43_2 1_555 1_555
C45_2 C28_2 1_555 1_555
H34_2 C45_2 1_555 1_555
C46_2 C33_2 1_555 1_555
H35_2 C46_2 1_555 1_555
O27_2 Mn5 1_555 1_555
O13_2 Mn8_4 1_555 1_555
O14_2 C26_2 1_555 1_555
C35_2 C46_2 1_555 1_555
C41_2 C43_2 1_555 1_555
C41_2 C45_2 1_555 1_555
Mn4 O1_2 1_555 1_555
O1_2 H1_2 1_555 1_555
H2_2 O1_2 1_555 1_555
Mn2_2 O3_2 1_555 1_555
O3_2 Mn4 1_555 1_555
O4_2 Mn4 1_555 1_555
C1_2 O3_2 1_555 1_555
C2_2 C1_2 1_555 1_555
C3_2 C2_2 1_555 1_555
H3_2 C3_2 1_555 1_555
C4_2 C2_2 1_555 1_555
H4_2 C4_2 1_555 1_555
O23 C5_2 1_555 1_555
O6_2 C5_2 1_555 1_555
C5_2 C6_2 1_555 1_555
C8_2 C6_2 1_555 1_555
H6_2 C8_2 1_555 1_555
O9_3 Mn2_2 1_555 1_555
C20_3 H14_3 1_555 1_555
H15_3 C20_3 1_555 1_555
H16_3 C20_3 1_555 1_555
C22_2 C3_2 1_555 1_555
H18_2 C22_2 1_555 1_555
C23_2 C8_2 1_555 1_555
H19_2 C23_2 1_555 1_555
C24_3 N1_3 1_555 1_555
H20_3 C24_3 1_555 1_555
C25_3 O9_3 1_555 1_555
O12_2 Mn2_2 1_555 1_555
O17_2 C38_2 1_555 1_555
O19_2 C39_2 1_555 1_555
C34_2 C36_2 1_555 1_555
C36_2 H29_2 1_555 1_555
C37_2 C34_2 1_555 1_555
H30_2 C37_2 1_555 1_555
C38_2 O12_2 1_555 1_555
C39_2 C37_2 1_555 1_555
C40_2 O18_2 1_555 1_555
C44_2 C39_2 1_555 1_555
O20_3 Mn2_2 1_555 1_555
C48_3 H39_3 1_555 1_555
H40_3 C48_3 1_555 1_555
H41_3 C48_3 1_555 1_555
C49_3 N2_3 1_555 1_555
H42_3 C49_3 1_555 1_555
C50_3 O20_3 1_555 1_555
Mn6_2 O6_2 1_555 1_555
O21_3 Mn2_2 1_555 1_555
O22_3 Mn2_2 1_555 1_555
O25_2 Mn4 1_555 1_555
O28_2 Mn4 1_555 1_555
O4_2 C1_2 1_555 1_555
C17_2 C22_2 1_555 1_555
N1_3 C25_3 1_555 1_555
C20_3 C25_3 1_555 1_555
O17_2 Mn6_2 1_555 1_555
C34_2 C38_2 1_555 1_555
C36_2 C40_2 1_555 1_555
C40_2 C44_2 1_555 1_555
N2_3 C50_3 1_555 1_555
C48_3 C50_3 1_555 1_555
Mn6_2 O22_3 1_555 1_555
C12_2 H8_2 1_555 1_555
H9_2 C12_2 1_555 1_555
H10_2 C12_2 1_555 1_555
O9_4 Mn8_3 1_555 1_555
C12_3 H8_3 1_555 1_555
H9_3 C12_3 1_555 1_555
H10_3 C12_3 1_555 1_555
N1_4 C12_3 1_555 1_555
C20_4 H14_4 1_555 1_555
H15_4 C20_4 1_555 1_555
H16_4 C20_4 1_555 1_555
C24_4 N1_4 1_555 1_555
H20_4 C24_4 1_555 1_555
H21_3 C24_4 1_555 1_555
H22_3 C24_4 1_555 1_555
C25_4 O9_4 1_555 1_555
O22_4 Mn8_3 1_555 1_555
N1_4 C25_4 1_555 1_555
C20_4 C25_4 1_555 1_555
Mn7_2 O22_4 1_555 1_555
O20_4 Mn8_4 1_555 1_555
C47_3 H36_3 1_555 1_555
H37_3 C47_3 1_555 1_555
H38_3 C47_3 1_555 1_555
N2_4 C47_3 1_555 1_555
C48_4 H39_4 1_555 1_555
H40_4 C48_4 1_555 1_555
H41_4 C48_4 1_555 1_555
C49_4 N2_4 1_555 1_555
H42_4 C49_4 1_555 1_555
H43_3 C49_4 1_555 1_555
H44_3 C49_4 1_555 1_555
C50_4 O20_4 1_555 1_555
O21_4 Mn8_4 1_555 1_555
N2_4 C50_4 1_555 1_555
C48_4 C50_4 1_555 1_555
Mn6_2 O1_3 1_555 1_555
H2_3 O1_3 1_555 1_555
O4_3 Mn6_2 1_555 1_555
C1_3 O22_3 1_555 1_555
C2_3 C1_3 1_555 1_555
C3_3 C2_3 1_555 1_555
H3_3 C3_3 1_555 1_555
C4_3 C2_3 1_555 1_555
H4_3 C4_3 1_555 1_555
O5_2 C5_3 1_555 1_555
O25_2 C5_3 1_555 1_555
C5_3 C6_3 1_555 1_555
C8_3 C6_3 1_555 1_555
H6_3 C8_3 1_555 1_555
C22_3 C3_3 1_555 1_555
H18_3 C22_3 1_555 1_555
C23_3 C8_3 1_555 1_555
H19_3 C23_3 1_555 1_555
O14_3 Mn7_2 1_555 1_555
C26_3 O22_4 1_555 1_555
C27_3 C26_3 1_555 1_555
C28_3 C27_3 1_555 1_555
H25_3 C28_3 1_555 1_555
C29_3 C27_3 1_555 1_555
H26_3 C29_3 1_555 1_555
O15_2 C30_3 1_555 1_555
O26_2 C30_3 1_555 1_555
C30_3 C31_3 1_555 1_555
C31_3 C32_3 1_555 1_555
C32_3 H27_3 1_555 1_555
C33_3 C31_3 1_555 1_555
H28_3 C33_3 1_555 1_555
O28_2 C38_3 1_555 1_555
O18_3 C35_3 1_555 1_555
O19_3 C39_3 1_555 1_555
C34_3 C36_3 1_555 1_555
C35_3 C42_3 1_555 1_555
C36_3 H29_3 1_555 1_555
C37_3 C34_3 1_555 1_555
H30_3 C37_3 1_555 1_555
C38_3 O21_3 1_555 1_555
C39_3 C37_3 1_555 1_555
C40_3 O18_3 1_555 1_555
C41_3 O19_3 1_555 1_555
C42_3 C32_3 1_555 1_555
H31_3 C42_3 1_555 1_555
C43_3 C29_3 1_555 1_555
H32_3 C43_3 1_555 1_555
C44_3 C39_3 1_555 1_555
H33_3 C44_3 1_555 1_555
C45_3 C28_3 1_555 1_555
H34_3 C45_3 1_555 1_555
C46_3 C33_3 1_555 1_555
H35_3 C46_3 1_555 1_555
Mn6 O15_2 1_555 1_555
Mn7 O5_2 1_555 1_555
O4_3 C1_3 1_555 1_555
C17_3 C22_3 1_555 1_555
O14_3 C26_3 1_555 1_555
C34_3 C38_3 1_555 1_555
C35_3 C46_3 1_555 1_555
C36_3 C40_3 1_555 1_555
C40_3 C44_3 1_555 1_555
C41_3 C43_3 1_555 1_555
C41_3 C45_3 1_555 1_555
O21_4 C14_3 1_555 1_555
C7_2 H5_2 1_555 1_555
O27_2 C14_3 1_555 1_555
O8_3 C10_2 1_555 1_555
O10_3 C15_3 1_555 1_555
C9_3 C11_3 1_555 1_555
C10_2 C18_2 1_555 1_555
C11_3 H7_3 1_555 1_555
C13_3 C9_3 1_555 1_555
H11_3 C13_3 1_555 1_555
C14_3 C9_3 1_555 1_555
C15_3 C13_3 1_555 1_555
C16_3 O8_3 1_555 1_555
C18_2 C7_2 1_555 1_555
H12_2 C18_2 1_555 1_555
H13_2 C19_2 1_555 1_555
C21_3 C15_3 1_555 1_555
H17_2 C21_3 1_555 1_555
H24_3 O11_3 1_555 1_555
C11_3 C16_3 1_555 1_555
C16_3 C21_3 1_555 1_555
Mn6 O1_4 1_555 1_555
O1_4 H1_4 1_555 1_555
H2_4 O1_4 1_555 1_555
O4_4 Mn6 1_555 1_555
C1_4 O22 1_555 1_555
C2_4 C1_4 1_555 1_555
C3_4 C2_4 1_555 1_555
H3_4 C3_4 1_555 1_555
C4_4 C2_4 1_555 1_555
H4_4 C4_4 1_555 1_555
O23_2 C5_4 1_555 1_555
O25 C5_4 1_555 1_555
C5_4 C6_4 1_555 1_555
C8_4 C6_4 1_555 1_555
H6_4 C8_4 1_555 1_555
C22_4 C3_4 1_555 1_555
H18_4 C22_4 1_555 1_555
C23_4 C8_4 1_555 1_555
H19_4 C23_4 1_555 1_555
O28 C38_4 1_555 1_555
O19_4 C39_4 1_555 1_555
C34_4 C36_4 1_555 1_555
C36_4 H29_4 1_555 1_555
C37_4 C34_4 1_555 1_555
H30_4 C37_4 1_555 1_555
C38_4 O21 1_555 1_555
C39_4 C37_4 1_555 1_555
C40_4 O18_4 1_555 1_555
C44_4 C39_4 1_555 1_555
O4_4 C1_4 1_555 1_555
C17_4 C22_4 1_555 1_555
C34_4 C38_4 1_555 1_555
C36_4 C40_4 1_555 1_555
C40_4 C44_4 1_555 1_555
O14_4 Mn7 1_555 1_555
C26_4 O22_2 1_555 1_555
C27_4 C26_4 1_555 1_555
C28_4 C27_4 1_555 1_555
H25_4 C28_4 1_555 1_555
C29_4 C27_4 1_555 1_555
H26_4 C29_4 1_555 1_555
O24_2 C30_4 1_555 1_555
O26 C30_4 1_555 1_555
C30_4 C31_4 1_555 1_555
C31_4 C32_4 1_555 1_555
C32_4 H27_4 1_555 1_555
C33_4 C31_4 1_555 1_555
H28_4 C33_4 1_555 1_555
C35_4 C42_4 1_555 1_555
C42_4 C32_4 1_555 1_555
H31_4 C42_4 1_555 1_555
C43_4 C29_4 1_555 1_555
H32_4 C43_4 1_555 1_555
C45_4 C28_4 1_555 1_555
H34_4 C45_4 1_555 1_555
C46_4 C33_4 1_555 1_555
H35_4 C46_4 1_555 1_555
O14_4 C26_4 1_555 1_555
C35_4 C46_4 1_555 1_555
C41_4 C43_4 1_555 1_555
C41_4 C45_4 1_555 1_555
O21_2 C14_4 1_555 1_555
O27 C14_4 1_555 1_555
O10_4 C15_4 1_555 1_555
C9_4 C11_4 1_555 1_555
C11_4 H7_4 1_555 1_555
C13_4 C9_4 1_555 1_555
H11_4 C13_4 1_555 1_555
C14_4 C9_4 1_555 1_555
C15_4 C13_4 1_555 1_555
C16_4 O8_4 1_555 1_555
C21_4 C15_4 1_555 1_555
O11_4 H23_2 1_555 1_555
H24_4 O11_4 1_555 1_555
C11_4 C16_4 1_555 1_555
C16_4 C21_4 1_555 1_555
C12_4 H8_4 1_555 1_555
H9_4 C12_4 1_555 1_555
H10_4 C12_4 1_555 1_555
C7_3 H5_3 1_555 1_555
C10_3 C18_3 1_555 1_555
C18_3 C7_3 1_555 1_555
H12_3 C18_3 1_555 1_555
H13_3 C19_3 1_555 1_555
C7_4 H5_4 1_555 1_555
C10_4 C18_4 1_555 1_555
C18_4 C7_4 1_555 1_555
H12_4 C18_4 1_555 1_555
H13_4 C19_4 1_555 1_555
C47_4 H36_4 1_555 1_555
H37_4 C47_4 1_555 1_555
H38_4 C47_4 1_555 1_555

#END
