
###############################################################################
#
# This file contains modified crystal structure data generated from the
# MOF subset of the Cambridge Structural Database (CSD) v543 
# hosted by the Cambridge Crystallographic Data Centre (CCDC).
#
# This work is licensed under the Creative Commons
# Attribution-NonCommercial-ShareAlike 4.0 International License.
# To view a copy of this license, visit
# http://creativecommons.org/licenses/by-nc-sa/4.0/
# or send a letter to
# Creative Commons, PO Box 1866, Mountain View, CA 94042, USA.
#
# CIF created using the CSD Python API on 29 September 2022
# The structure has been converted into the P1 space group
# The structure has a 3D framework
# The original CSD entry YINCEF is in the monoclinic crystal system
# The framework has been calculated to contain at least 10.0% void space
# The void calculation uses a probe of radius 1.32A, grid spacing 0.4
#
###############################################################################

data_YINCEF
_chemical_formula_moiety         '(C208 H176 Mn14 N8 O80)n'
_symmetry_cell_setting           triclinic
_symmetry_space_group_name_H-M   'P 1'
_symmetry_Int_Tables_number      1
_space_group_name_Hall           'P 1'
loop_
_symmetry_equiv_pos_site_id
_symmetry_equiv_pos_as_xyz
1 x,y,z
_cell_length_a                   27.752(4)
_cell_length_b                   21.889(3)
_cell_length_c                   9.5237(13)
_cell_angle_alpha                90
_cell_angle_beta                 107.685(3)
_cell_angle_gamma                90
_cell_volume                     5511.89
loop_
_atom_site_label
_atom_site_type_symbol
_atom_site_fract_x
_atom_site_fract_y
_atom_site_fract_z
Mn3 Mn 0.24522(2) 0.43248(3) 0.06422(8)
O11 O 0.18326(11) 0.38306(15) 0.0883(4)
O12 O 0.01657(11) 0.20818(15) 0.0643(4)
O13 O 0.00847(11) 0.42783(15) 0.0835(5)
O18 O 0.18645(11) 0.28200(14) 0.0604(4)
C28 C 0.08323(16) 0.3779(2) 0.0788(5)
H24 H 0.0987 0.4158 0.0842
C29 C 0.11032(15) 0.3255(2) 0.0747(5)
C31 C 0.08743(16) 0.2693(2) 0.0662(5)
H25 H 0.1052 0.2339 0.0607
C32 C 0.16468(16) 0.3307(2) 0.0738(5)
C34 C 0.03319(16) 0.3743(2) 0.0749(6)
C40 C 0.03754(17) 0.2661(2) 0.0660(5)
C43 C 0.01035(17) 0.3177(2) 0.0700(6)
Mn4 Mn 0.2500 0.2500 0.0000
O22 O 0.22601(11) 0.51204(14) 0.1553(4)
O23 O 0.30570(12) 0.41208(16) 0.2561(4)
O4 O 0.22601(11) 0.48796(14) 0.6553(4)
O5 O 0.19430(12) 0.08792(16) 0.7439(4)
O6 O 0.20253(12) 0.16207(15) 0.9053(4)
O10 O 0.21344(14) 0.44186(19) 0.8453(4)
C1 C 0.04263(16) 0.4323(2) 0.4909(6)
C4 C 0.03254(17) 0.1968(2) 0.5241(6)
C7 C 0.17783(17) 0.1359(2) 0.7867(6)
C9 C 0.12771(16) 0.1591(2) 0.6928(6)
C10 C 0.07242(16) 0.4615(2) 0.4187(6)
H4 H 0.0586 0.4751 0.3223
C11 C 0.14351(17) 0.4507(2) 0.6363(5)
C12 C 0.19823(18) 0.4618(2) 0.7168(6)
C13 C 0.10366(17) 0.2076(2) 0.7378(5)
H5 H 0.1200 0.2282 0.8248
C15 C 0.12268(16) 0.4700(2) 0.4917(5)
H6 H 0.1432 0.4890 0.4437
C16 C 0.10255(18) 0.1300(2) 0.5616(6)
H7 H 0.1177 0.0968 0.5310
H8 H 0.0231 0.3149 0.4306
C18 C 0.06263(19) 0.4129(2) 0.6340(6)
H9 H 0.0419 0.3942 0.6818
C19 C 0.05579(17) 0.2259(2) 0.6554(6)
H10 H 0.0395 0.2574 0.6881
C21 C 0.11259(18) 0.4208(2) 0.7059(6)
H11 H 0.1262 0.4064 0.8016
C26 C 0.05559(18) 0.1492(2) 0.4757(6)
H21 H 0.0397 0.1303 0.3861
O17 O 0.30941(17) 0.4826(2) 0.9969(5)
H23 H 0.2968 0.5074 0.9315
H35 H 0.3414(13) 0.474(3) 0.989(7)
Mn4_2 Mn 0.2500 0.2500 1.0000
Mn5 Mn 0.24522(2) 0.56752(3) 0.56422(8)
Mn8 Mn 0.25478(2) 0.06752(3) 0.93578(8)
Mn1 Mn 0.7500 0.2500 0.5000
Mn2 Mn 0.75478(2) 0.43248(3) 0.43578(8)
O1 O 0.81674(11) 0.38306(15) 0.4117(4)
O2 O 0.98343(11) 0.20818(15) 0.4357(4)
O3 O 0.99153(11) 0.42783(15) 0.4165(5)
O7 O 0.69059(17) 0.4826(2) 0.5031(5)
H1 H 0.7032 0.5074 0.5685
O8 O 0.71644(12) 0.21356(16) 0.2848(4)
O9 O 0.81355(11) 0.28200(14) 0.4396(4)
N1 N 0.70607(18) 0.17972(19) 0.0517(5)
C2 C 0.91677(16) 0.3779(2) 0.4212(5)
H2 H 0.9013 0.4158 0.4158
C3 C 0.88968(15) 0.3255(2) 0.4253(5)
C5 C 0.91257(16) 0.2693(2) 0.4338(5)
H3 H 0.8948 0.2339 0.4393
C6 C 0.83532(16) 0.3307(2) 0.4262(5)
C8 C 0.96681(16) 0.3743(2) 0.4251(6)
C14 C 0.96246(17) 0.2661(2) 0.4340(5)
C17 C 0.98965(17) 0.3177(2) 0.4300(6)
C20 C 0.73305(19) 0.1886(2) 0.1920(6)
C22 C 0.7851(2) 0.1642(3) 0.2166(7)
H12 H 0.7920 0.1311 0.2877
H13 H 0.8101 0.1961 0.2524
C23 C 0.7859(3) 0.1414(3) 0.0673(8)
H14 H 0.8098 0.1648 0.0331
H15 H 0.7957 0.0987 0.0730
H18 H 0.6421 0.2164 0.0659
H22 H 0.6586(13) 0.474(3) 0.511(7)
O14 O 0.77399(11) 0.48796(14) 0.8447(4)
O15 O 0.80570(12) 0.08792(16) 0.7561(4)
O16 O 0.79747(12) 0.16207(15) 0.5947(4)
O19 O 0.78656(14) 0.44186(19) 0.6547(4)
C30 C 0.96746(17) 0.1968(2) 0.9759(6)
C33 C 0.82217(17) 0.1359(2) 0.7133(6)
C35 C 0.87229(16) 0.1591(2) 0.8072(6)
C37 C 0.85649(17) 0.4507(2) 0.8637(5)
C38 C 0.80177(18) 0.4618(2) 0.7832(6)
C39 C 0.89634(17) 0.2076(2) 0.7622(5)
H27 H 0.8800 0.2282 0.6752
C42 C 0.89745(18) 0.1300(2) 0.9384(6)
H29 H 0.8823 0.0968 0.9690
C44 C 0.93737(19) 0.4129(2) 0.8660(6)
H31 H 0.9581 0.3942 0.8182
C45 C 0.94421(17) 0.2259(2) 0.8446(6)
H32 H 0.9605 0.2574 0.8119
C46 C 0.88741(18) 0.4208(2) 0.7941(6)
H33 H 0.8738 0.4064 0.6984
O20 O 0.78356(12) 0.28644(16) 0.7152(4)
N2 N 0.79393(18) 0.32028(19) 0.9483(5)
C48 C 0.76695(19) 0.3114(2) 0.8080(6)
C49 C 0.7149(2) 0.3358(3) 0.7834(7)
H36 H 0.7080 0.3689 0.7123
H37 H 0.6899 0.3039 0.7476
C50 C 0.7141(3) 0.3586(3) 0.9327(8)
H38 H 0.6902 0.3352 0.9669
H39 H 0.7043 0.4013 0.9270
H42 H 0.8579 0.2836 0.9341
Mn6 Mn 0.75478(2) 0.56752(3) 0.93578(8)
Mn7 Mn 0.74522(2) 0.06752(3) 0.56422(8)
O21 O 0.77399(11) 0.51204(14) 0.3447(4)
O24 O 0.69430(12) 0.41208(16) 0.2439(4)
O25 O 0.70253(12) 0.33793(15) 0.4053(4)
O26 O 0.68645(11) 0.21800(14) 0.5604(4)
C24 C 0.7329(3) 0.1495(3) 0.9640(7)
H16 H 0.7331 0.1743 0.8797
H17 H 0.7177 0.1102 0.9292
C25 C 0.6533(2) 0.1971(3) 0.9908(6)
H19 H 0.6333 0.1613 0.9560
H20 H 0.6497 0.2249 0.9105
O8_2 O 0.28356(12) 0.21356(16) 0.2152(4)
N1_2 N 0.29393(18) 0.17972(19) 0.4483(5)
C20_2 C 0.26695(19) 0.1886(2) 0.3080(6)
C22_2 C 0.2149(2) 0.1642(3) 0.2834(7)
H12_2 H 0.2080 0.1311 0.2123
H13_2 H 0.1899 0.1961 0.2476
C23_2 C 0.2141(3) 0.1414(3) 0.4327(8)
H14_2 H 0.1902 0.1648 0.4669
H15_2 H 0.2043 0.0987 0.4270
C24_2 C 0.2671(3) 0.1495(3) 0.5360(7)
H16_2 H 0.2669 0.1743 0.6203
H17_2 H 0.2823 0.1102 0.5708
C25_2 C 0.3467(2) 0.1971(3) 0.5092(6)
H18_2 H 0.3579 0.2164 0.4341
H19_2 H 0.3667 0.1613 0.5440
H20_2 H 0.3503 0.2249 0.5895
O25_2 O 0.29747(12) 0.33793(15) 0.0947(4)
O20_2 O 0.21644(12) 0.28644(16) 0.7848(4)
N2_2 N 0.20607(18) 0.32028(19) 0.5517(5)
C48_2 C 0.23305(19) 0.3114(2) 0.6920(6)
C49_2 C 0.2851(2) 0.3358(3) 0.7166(7)
H36_2 H 0.2920 0.3689 0.7877
H37_2 H 0.3101 0.3039 0.7524
C50_2 C 0.2859(3) 0.3586(3) 0.5673(8)
H38_2 H 0.3098 0.3352 0.5331
H39_2 H 0.2957 0.4013 0.5730
C51 C 0.2329(3) 0.3505(3) 0.4640(7)
H40 H 0.2331 0.3257 0.3797
H41 H 0.2177 0.3898 0.4292
C52 C 0.1533(2) 0.3029(3) 0.4908(6)
H42_2 H 0.1421 0.2836 0.5659
H43 H 0.1333 0.3387 0.4560
H44 H 0.1497 0.2751 0.4105
O26_2 O 0.31355(11) 0.21800(14) 0.9396(4)
O22_2 O 0.72601(11) 0.01204(14) 0.1553(4)
H1_2 H 0.2032 0.0074 0.5685
H23_2 H 0.7968 0.0074 0.9315
O21_2 O 0.27399(11) 0.01204(14) 0.3447(4)
Mn3_2 Mn 0.74522(2) 0.93248(3) 0.06422(8)
O11_2 O 0.68326(11) 0.88306(15) 0.0883(4)
O12_2 O 0.51657(11) 0.70818(15) 0.0643(4)
O13_2 O 0.50847(11) 0.92783(15) 0.0835(5)
O18_2 O 0.68645(11) 0.78200(14) 0.0604(4)
C27 C 0.45737(16) 0.9323(2) 0.0091(6)
C28_2 C 0.58323(16) 0.8779(2) 0.0788(5)
H24_2 H 0.5987 0.9158 0.0842
C29_2 C 0.61032(15) 0.8255(2) 0.0747(5)
C31_2 C 0.58743(16) 0.7693(2) 0.0662(5)
H25_2 H 0.6052 0.7339 0.0607
C32_2 C 0.66468(16) 0.8307(2) 0.0738(5)
C34_2 C 0.53319(16) 0.8743(2) 0.0749(6)
C36 C 0.42758(16) 0.9615(2) 0.0813(6)
H26 H 0.4414 0.9751 0.1777
C40_2 C 0.53754(17) 0.7661(2) 0.0660(5)
C41 C 0.37732(16) 0.9700(2) 0.0083(5)
H28 H 0.3568 0.9890 0.0563
C43_2 C 0.51035(17) 0.8177(2) 0.0700(6)
H30 H 0.4769 0.8149 0.0694
C47 C 0.44441(18) 0.6492(2) 0.0243(6)
H34 H 0.4603 0.6303 0.1139
C51_2 C 0.2671(3) 0.8505(3) 0.0360(7)
H40_2 H 0.2669 0.8257 0.1203
H41_2 H 0.2823 0.8898 0.0708
C52_2 C 0.3467(2) 0.8029(3) 0.0092(6)
H43_2 H 0.3667 0.8387 0.0440
H44_2 H 0.3503 0.7751 0.0895
Mn4_3 Mn 0.7500 0.7500 0.0000
O23_2 O 0.80570(12) 0.91208(16) 0.2561(4)
Mn1_2 Mn 0.2500 0.7500 0.5000
Mn2_2 Mn 0.25478(2) 0.93248(3) 0.43578(8)
O1_2 O 0.31674(11) 0.88306(15) 0.4117(4)
O2_2 O 0.48343(11) 0.70818(15) 0.4357(4)
O3_2 O 0.49153(11) 0.92783(15) 0.4165(5)
O4_2 O 0.72601(11) 0.98796(14) 0.6553(4)
O5_2 O 0.69430(12) 0.58792(16) 0.7439(4)
O6_2 O 0.70253(12) 0.66207(15) 0.9053(4)
O7_2 O 0.19059(17) 0.9826(2) 0.5031(5)
O8_3 O 0.21644(12) 0.71356(16) 0.2848(4)
O9_2 O 0.31355(11) 0.78200(14) 0.4396(4)
O10_2 O 0.71344(14) 0.94186(19) 0.8453(4)
N1_3 N 0.20607(18) 0.67972(19) 0.0517(5)
C1_2 C 0.54263(16) 0.9323(2) 0.4909(6)
C2_2 C 0.41677(16) 0.8779(2) 0.4212(5)
H2_2 H 0.4013 0.9158 0.4158
C3_2 C 0.38968(15) 0.8255(2) 0.4253(5)
C4_2 C 0.53254(17) 0.6968(2) 0.5241(6)
C5_2 C 0.41257(16) 0.7693(2) 0.4338(5)
H3_2 H 0.3948 0.7339 0.4393
C6_2 C 0.33532(16) 0.8307(2) 0.4262(5)
C7_2 C 0.67783(17) 0.6359(2) 0.7867(6)
C8_2 C 0.46681(16) 0.8743(2) 0.4251(6)
C9_2 C 0.62771(16) 0.6591(2) 0.6928(6)
C10_2 C 0.57242(16) 0.9615(2) 0.4187(6)
H4_2 H 0.5586 0.9751 0.3223
C11_2 C 0.64351(17) 0.9507(2) 0.6363(5)
C12_2 C 0.69823(18) 0.9618(2) 0.7168(6)
C13_2 C 0.60366(17) 0.7076(2) 0.7378(5)
H5_2 H 0.6200 0.7282 0.8248
C14_2 C 0.46246(17) 0.7661(2) 0.4340(5)
C15_2 C 0.62268(16) 0.9700(2) 0.4917(5)
H6_2 H 0.6432 0.9890 0.4437
C16_2 C 0.60255(18) 0.6300(2) 0.5616(6)
H7_2 H 0.6177 0.5968 0.5310
C17_2 C 0.48965(17) 0.8177(2) 0.4300(6)
H8_2 H 0.5231 0.8149 0.4306
C18_2 C 0.56263(19) 0.9129(2) 0.6340(6)
H9_2 H 0.5419 0.8942 0.6818
C19_2 C 0.55579(17) 0.7259(2) 0.6554(6)
H10_2 H 0.5395 0.7574 0.6881
C20_3 C 0.23305(19) 0.6886(2) 0.1920(6)
C21_2 C 0.61259(18) 0.9208(2) 0.7059(6)
H11_2 H 0.6262 0.9064 0.8016
C22_3 C 0.2851(2) 0.6642(3) 0.2166(7)
H12_3 H 0.2920 0.6311 0.2877
H13_3 H 0.3101 0.6961 0.2524
C23_3 C 0.2859(3) 0.6414(3) 0.0673(8)
H14_3 H 0.3098 0.6648 0.0331
H15_3 H 0.2957 0.5987 0.0730
H18_3 H 0.1421 0.7164 0.0659
C26_2 C 0.55559(18) 0.6492(2) 0.4757(6)
H21_2 H 0.5397 0.6303 0.3861
H22_2 H 0.1586(13) 0.974(3) 0.511(7)
O14_2 O 0.27399(11) 0.98796(14) 0.8447(4)
O15_2 O 0.30570(12) 0.58792(16) 0.7561(4)
O16_2 O 0.29747(12) 0.66207(15) 0.5947(4)
O17_2 O 0.80941(17) 0.9826(2) 0.9969(5)
O19_2 O 0.28656(14) 0.94186(19) 0.6547(4)
C30_2 C 0.46746(17) 0.6968(2) 0.9759(6)
C33_2 C 0.32217(17) 0.6359(2) 0.7133(6)
C35_2 C 0.37229(16) 0.6591(2) 0.8072(6)
C37_2 C 0.35649(17) 0.9507(2) 0.8637(5)
C38_2 C 0.30177(18) 0.9618(2) 0.7832(6)
C39_2 C 0.39634(17) 0.7076(2) 0.7622(5)
H27_2 H 0.3800 0.7282 0.6752
C42_2 C 0.39745(18) 0.6300(2) 0.9384(6)
H29_2 H 0.3823 0.5968 0.9690
C44_2 C 0.43737(19) 0.9129(2) 0.8660(6)
H31_2 H 0.4581 0.8942 0.8182
C45_2 C 0.44421(17) 0.7259(2) 0.8446(6)
H32_2 H 0.4605 0.7574 0.8119
C46_2 C 0.38741(18) 0.9208(2) 0.7941(6)
H33_2 H 0.3738 0.9064 0.6984
H35_2 H 0.8414(13) 0.974(3) 0.989(7)
O20_3 O 0.28356(12) 0.78644(16) 0.7152(4)
N2_3 N 0.29393(18) 0.82028(19) 0.9483(5)
C48_3 C 0.26695(19) 0.8114(2) 0.8080(6)
C49_3 C 0.2149(2) 0.8358(3) 0.7834(7)
H36_3 H 0.2080 0.8689 0.7123
H37_3 H 0.1899 0.8039 0.7476
C50_3 C 0.2141(3) 0.8586(3) 0.9327(8)
H38_3 H 0.1902 0.8352 0.9669
H39_3 H 0.2043 0.9013 0.9270
H42_3 H 0.3579 0.7836 0.9341
Mn4_4 Mn 0.7500 0.7500 1.0000
O24_2 O 0.19430(12) 0.91208(16) 0.2439(4)
O25_3 O 0.20253(12) 0.83793(15) 0.4053(4)
O26_3 O 0.18645(11) 0.71800(14) 0.5604(4)
O8_4 O 0.78356(12) 0.71356(16) 0.2152(4)
N1_4 N 0.79393(18) 0.67972(19) 0.4483(5)
C20_4 C 0.76695(19) 0.6886(2) 0.3080(6)
C22_4 C 0.7149(2) 0.6642(3) 0.2834(7)
H12_4 H 0.7080 0.6311 0.2123
H13_4 H 0.6899 0.6961 0.2476
C23_4 C 0.7141(3) 0.6414(3) 0.4327(8)
H14_4 H 0.6902 0.6648 0.4669
H15_4 H 0.7043 0.5987 0.4270
C24_3 C 0.7671(3) 0.6495(3) 0.5360(7)
H16_3 H 0.7669 0.6743 0.6203
H17_3 H 0.7823 0.6102 0.5708
C25_3 C 0.8467(2) 0.6971(3) 0.5092(6)
H18_4 H 0.8579 0.7164 0.4341
H19_3 H 0.8667 0.6613 0.5440
H20_3 H 0.8503 0.7249 0.5895
O25_4 O 0.79747(12) 0.83793(15) 0.0947(4)
O20_4 O 0.71644(12) 0.78644(16) 0.7848(4)
N2_4 N 0.70607(18) 0.82028(19) 0.5517(5)
C48_4 C 0.73305(19) 0.8114(2) 0.6920(6)
C49_4 C 0.7851(2) 0.8358(3) 0.7166(7)
H36_4 H 0.7920 0.8689 0.7877
H37_4 H 0.8101 0.8039 0.7524
C50_4 C 0.7859(3) 0.8586(3) 0.5673(8)
H38_4 H 0.8098 0.8352 0.5331
H39_4 H 0.7957 0.9013 0.5730
C51_3 C 0.7329(3) 0.8505(3) 0.4640(7)
H40_3 H 0.7331 0.8257 0.3797
H41_3 H 0.7177 0.8898 0.4292
C52_3 C 0.6533(2) 0.8029(3) 0.4908(6)
H42_4 H 0.6421 0.7836 0.5659
H43_3 H 0.6333 0.8387 0.4560
H44_3 H 0.6497 0.7751 0.4105
O26_4 O 0.81355(11) 0.71800(14) 0.9396(4)
O1_3 O 0.18326(11) 0.61694(15) 0.5883(4)
O2_3 O 0.01657(11) 0.79182(15) 0.5643(4)
O3_3 O 0.00847(11) 0.57217(15) 0.5835(5)
O7_3 O 0.30941(17) 0.5174(2) 0.4969(5)
H1_3 H 0.2968 0.4926 0.4315
C2_3 C 0.08323(16) 0.6221(2) 0.5788(5)
H2_3 H 0.0987 0.5842 0.5842
C3_3 C 0.11032(15) 0.6745(2) 0.5747(5)
C5_3 C 0.08743(16) 0.7307(2) 0.5662(5)
H3_3 H 0.1052 0.7661 0.5607
C6_3 C 0.16468(16) 0.6693(2) 0.5738(5)
C8_3 C 0.03319(16) 0.6257(2) 0.5749(6)
C14_3 C 0.03754(17) 0.7339(2) 0.5660(5)
C17_3 C 0.01035(17) 0.6823(2) 0.5700(6)
H22_3 H 0.3414(13) 0.526(3) 0.489(7)
O19_3 O 0.21344(14) 0.55814(19) 0.3453(4)
C30_3 C 0.03254(17) 0.8032(2) 0.0241(6)
C33_3 C 0.17783(17) 0.8641(2) 0.2867(6)
C35_3 C 0.12771(16) 0.8409(2) 0.1928(6)
C37_3 C 0.14351(17) 0.5493(2) 0.1363(5)
C38_3 C 0.19823(18) 0.5382(2) 0.2168(6)
C39_3 C 0.10366(17) 0.7924(2) 0.2378(5)
H27_3 H 0.1200 0.7718 0.3248
C42_3 C 0.10255(18) 0.8700(2) 0.0616(6)
H29_3 H 0.1177 0.9032 0.0310
C44_3 C 0.06263(19) 0.5871(2) 0.1340(6)
H31_3 H 0.0419 0.6058 0.1818
C45_3 C 0.05579(17) 0.7741(2) 0.1554(6)
H32_3 H 0.0395 0.7426 0.1881
C46_3 C 0.11259(18) 0.5792(2) 0.2059(6)
H33_3 H 0.1262 0.5936 0.3016
O10_3 O 0.78656(14) 0.55814(19) 0.1547(4)
C1_3 C 0.95737(16) 0.5677(2) 0.5091(6)
C4_3 C 0.96746(17) 0.8032(2) 0.4759(6)
C7_3 C 0.82217(17) 0.8641(2) 0.2133(6)
C9_3 C 0.87229(16) 0.8409(2) 0.3072(6)
C10_3 C 0.92758(16) 0.5385(2) 0.5813(6)
H4_3 H 0.9414 0.5249 0.6777
C11_3 C 0.85649(17) 0.5493(2) 0.3637(5)
C12_3 C 0.80177(18) 0.5382(2) 0.2832(6)
C13_3 C 0.89634(17) 0.7924(2) 0.2622(5)
H5_3 H 0.8800 0.7718 0.1752
C15_3 C 0.87732(16) 0.5300(2) 0.5083(5)
H6_3 H 0.8568 0.5110 0.5563
C16_3 C 0.89745(18) 0.8700(2) 0.4384(6)
H7_3 H 0.8823 0.9032 0.4690
H8_3 H 0.9769 0.6851 0.5694
C18_3 C 0.93737(19) 0.5871(2) 0.3660(6)
H9_3 H 0.9581 0.6058 0.3182
C19_3 C 0.94421(17) 0.7741(2) 0.3446(6)
H10_3 H 0.9605 0.7426 0.3119
C21_3 C 0.88741(18) 0.5792(2) 0.2941(6)
H11_3 H 0.8738 0.5936 0.1984
C26_3 C 0.94441(18) 0.8508(2) 0.5243(6)
H21_3 H 0.9603 0.8697 0.6139
O17_3 O 0.69059(17) 0.5174(2) 0.0031(5)
H23_3 H 0.7032 0.4926 0.0685
H35_3 H 0.6586(13) 0.526(3) 0.011(7)
O11_3 O 0.81674(11) 0.61694(15) 0.9117(4)
O12_3 O 0.98343(11) 0.79182(15) 0.9357(4)
O13_3 O 0.99153(11) 0.57217(15) 0.9165(5)
C28_3 C 0.91677(16) 0.6221(2) 0.9212(5)
H24_3 H 0.9013 0.5842 0.9158
C29_3 C 0.88968(15) 0.6745(2) 0.9253(5)
C31_3 C 0.91257(16) 0.7307(2) 0.9338(5)
H25_3 H 0.8948 0.7661 0.9393
C32_3 C 0.83532(16) 0.6693(2) 0.9262(5)
C34_3 C 0.96681(16) 0.6257(2) 0.9251(6)
C40_3 C 0.96246(17) 0.7339(2) 0.9340(5)
C43_3 C 0.98965(17) 0.6823(2) 0.9300(6)
O1_4 O 0.68326(11) 0.11694(15) 0.5883(4)
O2_4 O 0.51657(11) 0.29182(15) 0.5643(4)
O3_4 O 0.50847(11) 0.07217(15) 0.5835(5)
O7_4 O 0.80941(17) 0.0174(2) 0.4969(5)
O10_4 O 0.28656(14) 0.05814(19) 0.1547(4)
C1_4 C 0.45737(16) 0.0677(2) 0.5091(6)
C2_4 C 0.58323(16) 0.1221(2) 0.5788(5)
H2_4 H 0.5987 0.0842 0.5842
C3_4 C 0.61032(15) 0.1745(2) 0.5747(5)
C4_4 C 0.46746(17) 0.3032(2) 0.4759(6)
C5_4 C 0.58743(16) 0.2307(2) 0.5662(5)
H3_4 H 0.6052 0.2661 0.5607
C6_4 C 0.66468(16) 0.1693(2) 0.5738(5)
C7_4 C 0.32217(17) 0.3641(2) 0.2133(6)
C8_4 C 0.53319(16) 0.1257(2) 0.5749(6)
C9_4 C 0.37229(16) 0.3409(2) 0.3072(6)
C10_4 C 0.42758(16) 0.0385(2) 0.5813(6)
H4_4 H 0.4414 0.0249 0.6777
C11_4 C 0.35649(17) 0.0493(2) 0.3637(5)
C12_4 C 0.30177(18) 0.0382(2) 0.2832(6)
C13_4 C 0.39634(17) 0.2924(2) 0.2622(5)
H5_4 H 0.3800 0.2718 0.1752
C14_4 C 0.53754(17) 0.2339(2) 0.5660(5)
C15_4 C 0.37732(16) 0.0300(2) 0.5083(5)
H6_4 H 0.3568 0.0110 0.5563
C16_4 C 0.39745(18) 0.3700(2) 0.4384(6)
H7_4 H 0.3823 0.4032 0.4690
C17_4 C 0.51035(17) 0.1823(2) 0.5700(6)
H8_4 H 0.4769 0.1851 0.5694
C18_4 C 0.43737(19) 0.0871(2) 0.3660(6)
H9_4 H 0.4581 0.1058 0.3182
C19_4 C 0.44421(17) 0.2741(2) 0.3446(6)
H10_4 H 0.4605 0.2426 0.3119
C21_4 C 0.38741(18) 0.0792(2) 0.2941(6)
H11_4 H 0.3738 0.0936 0.1984
C26_4 C 0.44441(18) 0.3508(2) 0.5243(6)
H21_4 H 0.4603 0.3697 0.6139
H22_4 H 0.8414(13) 0.026(3) 0.489(7)
O17_4 O 0.19059(17) 0.0174(2) 0.0031(5)
O19_4 O 0.71344(14) 0.05814(19) 0.3453(4)
C30_4 C 0.53254(17) 0.3032(2) 0.0241(6)
C33_4 C 0.67783(17) 0.3641(2) 0.2867(6)
C35_4 C 0.62771(16) 0.3409(2) 0.1928(6)
C37_4 C 0.64351(17) 0.0493(2) 0.1363(5)
C38_4 C 0.69823(18) 0.0382(2) 0.2168(6)
C39_4 C 0.60366(17) 0.2924(2) 0.2378(5)
H27_4 H 0.6200 0.2718 0.3248
C42_4 C 0.60255(18) 0.3700(2) 0.0616(6)
H29_4 H 0.6177 0.4032 0.0310
C44_4 C 0.56263(19) 0.0871(2) 0.1340(6)
H31_4 H 0.5419 0.1058 0.1818
C45_4 C 0.55579(17) 0.2741(2) 0.1554(6)
H32_4 H 0.5395 0.2426 0.1881
C46_4 C 0.61259(18) 0.0792(2) 0.2059(6)
H33_4 H 0.6262 0.0936 0.3016
H35_4 H 0.1586(13) 0.026(3) 0.011(7)
O11_4 O 0.31674(11) 0.11694(15) 0.9117(4)
O12_4 O 0.48343(11) 0.29182(15) 0.9357(4)
O13_4 O 0.49153(11) 0.07217(15) 0.9165(5)
C27_2 C 0.54263(16) 0.0677(2) 0.9909(6)
C28_4 C 0.41677(16) 0.1221(2) 0.9212(5)
H24_4 H 0.4013 0.0842 0.9158
C29_4 C 0.38968(15) 0.1745(2) 0.9253(5)
C31_4 C 0.41257(16) 0.2307(2) 0.9338(5)
H25_4 H 0.3948 0.2661 0.9393
C32_4 C 0.33532(16) 0.1693(2) 0.9262(5)
C34_4 C 0.46681(16) 0.1257(2) 0.9251(6)
C36_2 C 0.57242(16) 0.0385(2) 0.9187(6)
H26_2 H 0.5586 0.0249 0.8223
C40_4 C 0.46246(17) 0.2339(2) 0.9340(5)
C41_2 C 0.62268(16) 0.0300(2) 0.9917(5)
H28_2 H 0.6432 0.0110 0.9437
C43_4 C 0.48965(17) 0.1823(2) 0.9300(6)
H30_2 H 0.5231 0.1851 0.9306
C47_2 C 0.55559(18) 0.3508(2) 0.9757(6)
H34_2 H 0.5397 0.3697 0.8861
H1_4 H 0.7968 0.9926 0.4315
H23_4 H 0.2032 0.9926 0.0685
C27_3 C 0.95737(16) 0.4323(2) 0.0091(6)
C36_3 C 0.92758(16) 0.4615(2) 0.0813(6)
H26_3 H 0.9414 0.4751 0.1777
C41_3 C 0.87732(16) 0.4700(2) 0.0083(5)
H28_3 H 0.8568 0.4890 0.0563
H30_3 H 0.9769 0.3149 0.0694
C47_3 C 0.94441(18) 0.1492(2) 0.0243(6)
H34_3 H 0.9603 0.1303 0.1139
C51_4 C 0.7671(3) 0.3505(3) 0.0360(7)
H40_4 H 0.7669 0.3257 0.1203
H41_4 H 0.7823 0.3898 0.0708
C52_4 C 0.8467(2) 0.3029(3) 0.0092(6)
H43_4 H 0.8667 0.3387 0.0440
H44_4 H 0.8503 0.2751 0.0895
C24_4 C 0.2329(3) 0.6495(3) 0.9640(7)
H16_4 H 0.2331 0.6743 0.8797
H17_4 H 0.2177 0.6102 0.9292
C25_4 C 0.1533(2) 0.6971(3) 0.9908(6)
H19_4 H 0.1333 0.6613 0.9560
H20_4 H 0.1497 0.7249 0.9105
C27_4 C 0.04263(16) 0.5677(2) 0.9909(6)
C36_4 C 0.07242(16) 0.5385(2) 0.9187(6)
H26_4 H 0.0586 0.5249 0.8223
C41_4 C 0.12268(16) 0.5300(2) 0.9917(5)
H28_4 H 0.1432 0.5110 0.9437
H30_4 H 0.0231 0.6851 0.9306
C47_4 C 0.05559(18) 0.8508(2) 0.9757(6)
H34_4 H 0.0397 0.8697 0.8861
loop_
_geom_bond_atom_site_label_1
_geom_bond_atom_site_label_2
_geom_bond_site_symmetry_1
_geom_bond_site_symmetry_2
O11 Mn3 1_555 1_555
O18 C32 1_555 1_555
C28 H24 1_555 1_555
C29 C28 1_555 1_555
C31 C29 1_555 1_555
H25 C31 1_555 1_555
C32 O11 1_555 1_555
C34 O13 1_555 1_555
C40 O12 1_555 1_555
C43 C34 1_555 1_555
O22 Mn3 1_555 1_555
O23 Mn3 1_555 1_555
O18 Mn4 1_555 1_555
C28 C34 1_555 1_555
C29 C32 1_555 1_555
C31 C40 1_555 1_555
C40 C43 1_555 1_555
O4 C12 1_555 1_555
O5 C7 1_555 1_555
O6 C7 1_555 1_555
O10 C12 1_555 1_555
C1 C10 1_555 1_555
C4 C19 1_555 1_555
C7 C9 1_555 1_555
C9 C13 1_555 1_555
C10 H4 1_555 1_555
C11 C12 1_555 1_555
C13 H5 1_555 1_555
C15 C10 1_555 1_555
H6 C15 1_555 1_555
C16 C9 1_555 1_555
H7 C16 1_555 1_555
C18 C1 1_555 1_555
H9 C18 1_555 1_555
C19 C13 1_555 1_555
H10 C19 1_555 1_555
C21 C11 1_555 1_555
H11 C21 1_555 1_555
C26 C4 1_555 1_555
H21 C26 1_555 1_555
H23 O17 1_555 1_555
H35 O17 1_555 1_555
Mn4_2 O6 1_555 1_555
Mn5 O4 1_555 1_555
Mn8 O5 1_555 1_555
C11 C15 1_555 1_555
C16 C26 1_555 1_555
C18 C21 1_555 1_555
Mn1 O8 1_555 1_555
Mn2 O1 1_555 1_555
O1 C6 1_555 1_555
O7 Mn2 1_555 1_555
H1 O7 1_555 1_555
O8 C20 1_555 1_555
O9 Mn1 1_555 1_555
N1 C20 1_555 1_555
C2 H2 1_555 1_555
C3 C2 1_555 1_555
C5 C3 1_555 1_555
H3 C5 1_555 1_555
C6 O9 1_555 1_555
C8 O3 1_555 1_555
C14 O2 1_555 1_555
C17 C8 1_555 1_555
C20 C22 1_555 1_555
C22 H12 1_555 1_555
H13 C22 1_555 1_555
C23 C22 1_555 1_555
H14 C23 1_555 1_555
H15 C23 1_555 1_555
H22 O7 1_555 1_555
O14 C38 1_555 1_555
O15 C33 1_555 1_555
O16 Mn1 1_555 1_555
O19 Mn2 1_555 1_555
C30 C45 1_555 1_555
C33 O16 1_555 1_555
C35 C33 1_555 1_555
C37 C38 1_555 1_555
C38 O19 1_555 1_555
C39 C35 1_555 1_555
H27 C39 1_555 1_555
C42 C35 1_555 1_555
H29 C42 1_555 1_555
H31 C44 1_555 1_555
C45 C39 1_555 1_555
H32 C45 1_555 1_555
C46 C37 1_555 1_555
H33 C46 1_555 1_555
O20 Mn1 1_555 1_555
N2 C48 1_555 1_555
C48 O20 1_555 1_555
C49 C48 1_555 1_555
H36 C49 1_555 1_555
H37 C49 1_555 1_555
C50 C49 1_555 1_555
H38 C50 1_555 1_555
H39 C50 1_555 1_555
Mn6 O14 1_555 1_555
Mn7 O15 1_555 1_555
O21 Mn2 1_555 1_555
O24 Mn2 1_555 1_555
O25 Mn1 1_555 1_555
O26 Mn1 1_555 1_555
C2 C8 1_555 1_555
C3 C6 1_555 1_555
C5 C14 1_555 1_555
C14 C17 1_555 1_555
C44 C46 1_555 1_555
H16 C24 1_555 1_555
H17 C24 1_555 1_555
H19 C25 1_555 1_555
H20 C25 1_555 1_555
Mn4 O8_2 1_555 1_555
O8_2 C20_2 1_555 1_555
N1_2 C20_2 1_555 1_555
C20_2 C22_2 1_555 1_555
C22_2 H12_2 1_555 1_555
H13_2 C22_2 1_555 1_555
C23_2 C22_2 1_555 1_555
H14_2 C23_2 1_555 1_555
H15_2 C23_2 1_555 1_555
C24_2 N1_2 1_555 1_555
H16_2 C24_2 1_555 1_555
H17_2 C24_2 1_555 1_555
C25_2 N1_2 1_555 1_555
H18_2 C25_2 1_555 1_555
H19_2 C25_2 1_555 1_555
H20_2 C25_2 1_555 1_555
O25_2 Mn4 1_555 1_555
C23_2 C24_2 1_555 1_555
O20_2 Mn4_2 1_555 1_555
N2_2 C48_2 1_555 1_555
C48_2 O20_2 1_555 1_555
C49_2 C48_2 1_555 1_555
H36_2 C49_2 1_555 1_555
H37_2 C49_2 1_555 1_555
C50_2 C49_2 1_555 1_555
H38_2 C50_2 1_555 1_555
H39_2 C50_2 1_555 1_555
C51 N2_2 1_555 1_555
H40 C51 1_555 1_555
H41 C51 1_555 1_555
C52 N2_2 1_555 1_555
H42_2 C52 1_555 1_555
H43 C52 1_555 1_555
H44 C52 1_555 1_555
O26_2 Mn4_2 1_555 1_555
C50_2 C51 1_555 1_555
O11_2 Mn3_2 1_555 1_555
O13_2 C27 1_555 1_555
O18_2 C32_2 1_555 1_555
C27 C36 1_555 1_555
C28_2 H24_2 1_555 1_555
C29_2 C28_2 1_555 1_555
C31_2 C29_2 1_555 1_555
H25_2 C31_2 1_555 1_555
C32_2 O11_2 1_555 1_555
C34_2 O13_2 1_555 1_555
C36 H26 1_555 1_555
C40_2 O12_2 1_555 1_555
C41 C36 1_555 1_555
H28 C41 1_555 1_555
C43_2 C34_2 1_555 1_555
H30 C43_2 1_555 1_555
H34 C47 1_555 1_555
H40_2 C51_2 1_555 1_555
H41_2 C51_2 1_555 1_555
H43_2 C52_2 1_555 1_555
H44_2 C52_2 1_555 1_555
O23_2 Mn3_2 1_555 1_555
O18_2 Mn4_3 1_555 1_555
C28_2 C34_2 1_555 1_555
C29_2 C32_2 1_555 1_555
C31_2 C40_2 1_555 1_555
C40_2 C43_2 1_555 1_555
Mn1_2 O8_3 1_555 1_555
Mn2_2 O1_2 1_555 1_555
O1_2 C6_2 1_555 1_555
O2_2 C4_2 1_555 1_555
O3_2 C1_2 1_555 1_555
O4_2 C12_2 1_555 1_555
O5_2 C7_2 1_555 1_555
O6_2 C7_2 1_555 1_555
O7_2 Mn2_2 1_555 1_555
O8_3 C20_3 1_555 1_555
O9_2 Mn1_2 1_555 1_555
O10_2 C12_2 1_555 1_555
N1_3 C20_3 1_555 1_555
C1_2 C10_2 1_555 1_555
C2_2 H2_2 1_555 1_555
C3_2 C2_2 1_555 1_555
C4_2 C19_2 1_555 1_555
C5_2 C3_2 1_555 1_555
H3_2 C5_2 1_555 1_555
C6_2 O9_2 1_555 1_555
C7_2 C9_2 1_555 1_555
C8_2 O3_2 1_555 1_555
C9_2 C13_2 1_555 1_555
C10_2 H4_2 1_555 1_555
C11_2 C12_2 1_555 1_555
C13_2 H5_2 1_555 1_555
C14_2 O2_2 1_555 1_555
C15_2 C10_2 1_555 1_555
H6_2 C15_2 1_555 1_555
C16_2 C9_2 1_555 1_555
H7_2 C16_2 1_555 1_555
C17_2 C8_2 1_555 1_555
H8_2 C17_2 1_555 1_555
C18_2 C1_2 1_555 1_555
H9_2 C18_2 1_555 1_555
C19_2 C13_2 1_555 1_555
H10_2 C19_2 1_555 1_555
C20_3 C22_3 1_555 1_555
C21_2 C11_2 1_555 1_555
H11_2 C21_2 1_555 1_555
C22_3 H12_3 1_555 1_555
H13_3 C22_3 1_555 1_555
C23_3 C22_3 1_555 1_555
H14_3 C23_3 1_555 1_555
H15_3 C23_3 1_555 1_555
C26_2 C4_2 1_555 1_555
H21_2 C26_2 1_555 1_555
H22_2 O7_2 1_555 1_555
O14_2 C38_2 1_555 1_555
O15_2 C33_2 1_555 1_555
O16_2 Mn1_2 1_555 1_555
O19_2 Mn2_2 1_555 1_555
C30_2 C45_2 1_555 1_555
C33_2 O16_2 1_555 1_555
C35_2 C33_2 1_555 1_555
C37_2 C38_2 1_555 1_555
C38_2 O19_2 1_555 1_555
C39_2 C35_2 1_555 1_555
H27_2 C39_2 1_555 1_555
C42_2 C35_2 1_555 1_555
H29_2 C42_2 1_555 1_555
H31_2 C44_2 1_555 1_555
C45_2 C39_2 1_555 1_555
H32_2 C45_2 1_555 1_555
C46_2 C37_2 1_555 1_555
H33_2 C46_2 1_555 1_555
H35_2 O17_2 1_555 1_555
O20_3 Mn1_2 1_555 1_555
N2_3 C48_3 1_555 1_555
C48_3 O20_3 1_555 1_555
C49_3 C48_3 1_555 1_555
H36_3 C49_3 1_555 1_555
H37_3 C49_3 1_555 1_555
C50_3 C49_3 1_555 1_555
H38_3 C50_3 1_555 1_555
H39_3 C50_3 1_555 1_555
Mn4_4 O6_2 1_555 1_555
Mn5 O15_2 1_555 1_555
Mn6 O5_2 1_555 1_555
O24_2 Mn2_2 1_555 1_555
O25_3 Mn1_2 1_555 1_555
O26_3 Mn1_2 1_555 1_555
C2_2 C8_2 1_555 1_555
C3_2 C6_2 1_555 1_555
C5_2 C14_2 1_555 1_555
C11_2 C15_2 1_555 1_555
C14_2 C17_2 1_555 1_555
C16_2 C26_2 1_555 1_555
C18_2 C21_2 1_555 1_555
C44_2 C46_2 1_555 1_555
Mn4_3 O8_4 1_555 1_555
O8_4 C20_4 1_555 1_555
N1_4 C20_4 1_555 1_555
C20_4 C22_4 1_555 1_555
C22_4 H12_4 1_555 1_555
H13_4 C22_4 1_555 1_555
C23_4 C22_4 1_555 1_555
H14_4 C23_4 1_555 1_555
H15_4 C23_4 1_555 1_555
C24_3 N1_4 1_555 1_555
H16_3 C24_3 1_555 1_555
H17_3 C24_3 1_555 1_555
C25_3 N1_4 1_555 1_555
H18_4 C25_3 1_555 1_555
H19_3 C25_3 1_555 1_555
H20_3 C25_3 1_555 1_555
O25_4 Mn4_3 1_555 1_555
C23_4 C24_3 1_555 1_555
O20_4 Mn4_4 1_555 1_555
N2_4 C48_4 1_555 1_555
C48_4 O20_4 1_555 1_555
C49_4 C48_4 1_555 1_555
H36_4 C49_4 1_555 1_555
H37_4 C49_4 1_555 1_555
C50_4 C49_4 1_555 1_555
H38_4 C50_4 1_555 1_555
H39_4 C50_4 1_555 1_555
C51_3 N2_4 1_555 1_555
H40_3 C51_3 1_555 1_555
H41_3 C51_3 1_555 1_555
C52_3 N2_4 1_555 1_555
H42_4 C52_3 1_555 1_555
H43_3 C52_3 1_555 1_555
H44_3 C52_3 1_555 1_555
O26_4 Mn4_4 1_555 1_555
C50_4 C51_3 1_555 1_555
Mn5 O1_3 1_555 1_555
O1_3 C6_3 1_555 1_555
O7_3 Mn5 1_555 1_555
H1_3 O7_3 1_555 1_555
C2_3 H2_3 1_555 1_555
C3_3 C2_3 1_555 1_555
C5_3 C3_3 1_555 1_555
H3_3 C5_3 1_555 1_555
C6_3 O26_3 1_555 1_555
C8_3 O3_3 1_555 1_555
C14_3 O2_3 1_555 1_555
C17_3 C8_3 1_555 1_555
H22_3 O7_3 1_555 1_555
O22 C38_3 1_555 1_555
O24_2 C33_3 1_555 1_555
O19_3 Mn5 1_555 1_555
C30_3 C45_3 1_555 1_555
C33_3 O25_3 1_555 1_555
C35_3 C33_3 1_555 1_555
C37_3 C38_3 1_555 1_555
C38_3 O19_3 1_555 1_555
C39_3 C35_3 1_555 1_555
H27_3 C39_3 1_555 1_555
C42_3 C35_3 1_555 1_555
H29_3 C42_3 1_555 1_555
H31_3 C44_3 1_555 1_555
C45_3 C39_3 1_555 1_555
H32_3 C45_3 1_555 1_555
C46_3 C37_3 1_555 1_555
H33_3 C46_3 1_555 1_555
C2_3 C8_3 1_555 1_555
C3_3 C6_3 1_555 1_555
C5_3 C14_3 1_555 1_555
C14_3 C17_3 1_555 1_555
C44_3 C46_3 1_555 1_555
O21 C12_3 1_555 1_555
O23_2 C7_3 1_555 1_555
O25_4 C7_3 1_555 1_555
O10_3 C12_3 1_555 1_555
C1_3 C10_3 1_555 1_555
C4_3 C19_3 1_555 1_555
C7_3 C9_3 1_555 1_555
C9_3 C13_3 1_555 1_555
C10_3 H4_3 1_555 1_555
C11_3 C12_3 1_555 1_555
C13_3 H5_3 1_555 1_555
C15_3 C10_3 1_555 1_555
H6_3 C15_3 1_555 1_555
C16_3 C9_3 1_555 1_555
H7_3 C16_3 1_555 1_555
C18_3 C1_3 1_555 1_555
H9_3 C18_3 1_555 1_555
C19_3 C13_3 1_555 1_555
H10_3 C19_3 1_555 1_555
C21_3 C11_3 1_555 1_555
H11_3 C21_3 1_555 1_555
C26_3 C4_3 1_555 1_555
H21_3 C26_3 1_555 1_555
H23_3 O17_3 1_555 1_555
H35_3 O17_3 1_555 1_555
C11_3 C15_3 1_555 1_555
C16_3 C26_3 1_555 1_555
C18_3 C21_3 1_555 1_555
O11_3 Mn6 1_555 1_555
O26_4 C32_3 1_555 1_555
C28_3 H24_3 1_555 1_555
C29_3 C28_3 1_555 1_555
C31_3 C29_3 1_555 1_555
H25_3 C31_3 1_555 1_555
C32_3 O11_3 1_555 1_555
C34_3 O13_3 1_555 1_555
C40_3 O12_3 1_555 1_555
C43_3 C34_3 1_555 1_555
C28_3 C34_3 1_555 1_555
C29_3 C32_3 1_555 1_555
C31_3 C40_3 1_555 1_555
C40_3 C43_3 1_555 1_555
Mn7 O1_4 1_555 1_555
O1_4 C6_4 1_555 1_555
O2_4 C4_4 1_555 1_555
O3_4 C1_4 1_555 1_555
O21_2 C12_4 1_555 1_555
O23 C7_4 1_555 1_555
O25_2 C7_4 1_555 1_555
O7_4 Mn7 1_555 1_555
O10_4 C12_4 1_555 1_555
C1_4 C10_4 1_555 1_555
C2_4 H2_4 1_555 1_555
C3_4 C2_4 1_555 1_555
C4_4 C19_4 1_555 1_555
C5_4 C3_4 1_555 1_555
H3_4 C5_4 1_555 1_555
C6_4 O26 1_555 1_555
C7_4 C9_4 1_555 1_555
C8_4 O3_4 1_555 1_555
C9_4 C13_4 1_555 1_555
C10_4 H4_4 1_555 1_555
C11_4 C12_4 1_555 1_555
C13_4 H5_4 1_555 1_555
C14_4 O2_4 1_555 1_555
C15_4 C10_4 1_555 1_555
H6_4 C15_4 1_555 1_555
C16_4 C9_4 1_555 1_555
H7_4 C16_4 1_555 1_555
C17_4 C8_4 1_555 1_555
H8_4 C17_4 1_555 1_555
C18_4 C1_4 1_555 1_555
H9_4 C18_4 1_555 1_555
C19_4 C13_4 1_555 1_555
H10_4 C19_4 1_555 1_555
C21_4 C11_4 1_555 1_555
H11_4 C21_4 1_555 1_555
C26_4 C4_4 1_555 1_555
H21_4 C26_4 1_555 1_555
H22_4 O7_4 1_555 1_555
O22_2 C38_4 1_555 1_555
O24 C33_4 1_555 1_555
O19_4 Mn7 1_555 1_555
C30_4 C45_4 1_555 1_555
C33_4 O25 1_555 1_555
C35_4 C33_4 1_555 1_555
C37_4 C38_4 1_555 1_555
C38_4 O19_4 1_555 1_555
C39_4 C35_4 1_555 1_555
H27_4 C39_4 1_555 1_555
C42_4 C35_4 1_555 1_555
H29_4 C42_4 1_555 1_555
H31_4 C44_4 1_555 1_555
C45_4 C39_4 1_555 1_555
H32_4 C45_4 1_555 1_555
C46_4 C37_4 1_555 1_555
H33_4 C46_4 1_555 1_555
H35_4 O17_4 1_555 1_555
C2_4 C8_4 1_555 1_555
C3_4 C6_4 1_555 1_555
C5_4 C14_4 1_555 1_555
C11_4 C15_4 1_555 1_555
C14_4 C17_4 1_555 1_555
C16_4 C26_4 1_555 1_555
C18_4 C21_4 1_555 1_555
C44_4 C46_4 1_555 1_555
O11_4 Mn8 1_555 1_555
O13_4 C27_2 1_555 1_555
O26_2 C32_4 1_555 1_555
C27_2 C36_2 1_555 1_555
C28_4 H24_4 1_555 1_555
C29_4 C28_4 1_555 1_555
C31_4 C29_4 1_555 1_555
H25_4 C31_4 1_555 1_555
C32_4 O11_4 1_555 1_555
C34_4 O13_4 1_555 1_555
C36_2 H26_2 1_555 1_555
C40_4 O12_4 1_555 1_555
C41_2 C36_2 1_555 1_555
H28_2 C41_2 1_555 1_555
C43_4 C34_4 1_555 1_555
H30_2 C43_4 1_555 1_555
H34_2 C47_2 1_555 1_555
C28_4 C34_4 1_555 1_555
C29_4 C32_4 1_555 1_555
C31_4 C40_4 1_555 1_555
C40_4 C43_4 1_555 1_555
C27_3 C36_3 1_555 1_555
C36_3 H26_3 1_555 1_555
C41_3 C36_3 1_555 1_555
H28_3 C41_3 1_555 1_555
H34_3 C47_3 1_555 1_555
H40_4 C51_4 1_555 1_555
H41_4 C51_4 1_555 1_555
H43_4 C52_4 1_555 1_555
H44_4 C52_4 1_555 1_555
H16_4 C24_4 1_555 1_555
H17_4 C24_4 1_555 1_555
H19_4 C25_4 1_555 1_555
H20_4 C25_4 1_555 1_555
C27_4 C36_4 1_555 1_555
C36_4 H26_4 1_555 1_555
C41_4 C36_4 1_555 1_555
H28_4 C41_4 1_555 1_555
H34_4 C47_4 1_555 1_555

#END
