
###############################################################################
#
# This file contains modified crystal structure data generated from the
# MOF subset of the Cambridge Structural Database (CSD) v543 
# hosted by the Cambridge Crystallographic Data Centre (CCDC).
#
# This work is licensed under the Creative Commons
# Attribution-NonCommercial-ShareAlike 4.0 International License.
# To view a copy of this license, visit
# http://creativecommons.org/licenses/by-nc-sa/4.0/
# or send a letter to
# Creative Commons, PO Box 1866, Mountain View, CA 94042, USA.
#
# CIF created using the CSD Python API on 29 September 2022
# The structure has been converted into the P1 space group
# The structure has a 3D framework
# The original CSD entry YINDOQ is in the monoclinic crystal system
# The framework has been calculated to contain at least 10.0% void space
# The void calculation uses a probe of radius 1.32A, grid spacing 0.4
# H atom positions have been added when not included in the experimental data
#
###############################################################################

data_YINDOQ
_chemical_formula_moiety         '(C180 H150 Mn10 N4 O78)n'
_symmetry_cell_setting           triclinic
_symmetry_space_group_name_H-M   'P 1'
_symmetry_Int_Tables_number      1
_space_group_name_Hall           'P 1'
loop_
_symmetry_equiv_pos_site_id
_symmetry_equiv_pos_as_xyz
1 x,y,z
_cell_length_a                   12.5497(12)
_cell_length_b                   21.783(2)
_cell_length_c                   17.7472(16)
_cell_angle_alpha                90
_cell_angle_beta                 97.507(2)
_cell_angle_gamma                90
_cell_volume                     4809.97
loop_
_atom_site_label
_atom_site_type_symbol
_atom_site_fract_x
_atom_site_fract_y
_atom_site_fract_z
O13 O 0.0891(5) 0.5010(2) 0.0817(3)
O15 O 0.0601(4) 0.22172(19) 0.4873(3)
O16 O 0.0349(4) 0.4048(2) 0.0607(2)
O21 O 0.0262(4) 0.4434(2) 0.4183(2)
H5 H 0.0554 0.3270 0.4367
C17 C 0.0324(6) 0.4388(3) 0.3408(3)
C22 C 0.0522(6) 0.4431(3) 0.1878(3)
C23 C 0.0570(5) 0.4503(3) 0.1044(4)
C27 C 0.1243(6) 0.4639(3) 0.3180(4)
H15 H 0.1791 0.4785 0.3538
C33 C 0.1337(6) 0.4669(3) 0.2413(4)
H20 H 0.1942 0.4848 0.2253
Mn6 Mn 0.09004(8) 0.59418(4) 0.03984(5)
Mn9 Mn 0.17232(8) 0.15401(5) 0.53271(6)
Mn11 Mn 0.17232(8) 0.34599(5) 0.03271(6)
O2 O 0.1826(4) 0.1127(2) 0.4225(2)
O3 O 0.0093(4) 0.1140(2) 0.3740(2)
O4 O 0.2021(4) 0.0771(2) 0.0670(2)
O12 O 0.6724(4) 0.3237(3) 0.0173(3)
H3 H 0.6710 0.3172 0.0626
O17 O 0.2792(4) 0.0760(2) 0.5775(2)
H4 H 0.3423 0.0861 0.5782
O18 O 0.3138(4) 0.2971(2) 0.0216(3)
O19 O 0.1760(4) 0.1928(2) 0.6465(3)
N1 N 0.0903(5) 0.2269(3) 0.7422(3)
C2 C 0.2836(5) 0.1064(3) 0.0347(3)
C5 C 0.1384(5) 0.1050(3) 0.2884(3)
C9 C 0.1851(6) 0.0916(3) 0.1409(4)
C16 C 0.0597(5) 0.0853(3) 0.2305(4)
C18 C 0.1070(6) 0.1111(3) 0.3678(4)
C25 C 0.2633(6) 0.1115(3) 0.1958(4)
H13 H 0.3318 0.1201 0.1842
C28 C 0.0830(6) 0.0780(3) 0.1569(4)
H16 H 0.0306 0.0642 0.1187
C31 C 0.2395(6) 0.1188(3) 0.2698(4)
H19 H 0.2924 0.1331 0.3073
C37 C 0.0935(7) 0.2116(3) 0.6714(4)
H22 H 0.0306 0.2149 0.6376
C39 C 0.2887(5) 0.1697(3) 0.0321(3)
H24 H 0.2413 0.1939 0.0551
C41 C 0.1803(7) 0.2179(4) 0.7997(4)
H28 H 0.2417 0.2055 0.7764
H29 H 0.1634 0.1867 0.8344
H30 H 0.1961 0.2557 0.8269
C45 C 0.3528(5) 0.0695(3) 0.0001(3)
H33 H 0.3466 0.0270 0.0016
H35 H 0.731(4) 0.314(4) -0.000(2)
O23 O 0.4979(4) 0.3916(3) 0.0823(3)
O27 O 0.0349(4) 0.0952(2) 0.5607(2)
O28 O 0.3138(4) 0.2029(2) 0.5216(3)
H37 H 0.263962 0.0396143 0.544123
Mn1 Mn 0.52747(9) 0.37062(5) 0.97061(6)
O5 O 0.5017(4) 0.05839(19) 0.9339(2)
O6 O 0.7590(4) 0.3874(3) 0.8970(3)
O7 O 0.5834(4) 0.3978(2) 0.8701(3)
O8 O 0.4979(4) 0.1084(3) 0.5823(3)
O9 O 0.6359(5) 0.0476(2) 0.6021(3)
O10 O 0.3913(4) 0.4260(2) 0.9323(3)
H2 H 0.4105 0.4616 0.9276
O11 O 0.4488(4) 0.2869(2) 0.9531(3)
O14 O 0.8917(4) 0.1909(2) 0.4908(3)
O20 O 0.7144(4) 0.3994(2) 0.5364(2)
C1 C 0.9918(5) 0.3395(3) 0.4537(3)
C3 C 0.9266(5) 0.2974(3) 0.4838(3)
C4 C 0.8085(5) 0.3774(3) 0.5095(3)
C6 C 0.9613(6) 0.3999(3) 0.4494(3)
C7 C 0.6855(5) 0.3950(3) 0.7676(4)
C8 C 0.4409(5) 0.1596(3) 0.9620(4)
H6 H 0.4968 0.1774 0.9400
C10 C 0.5143(5) 0.0651(3) 0.8579(3)
C11 C 0.8328(6) 0.3157(3) 0.5103(3)
H7 H 0.7872 0.2871 0.5282
C12 C 0.3679(5) 0.1962(3) 0.9934(3)
C13 C 0.4552(6) 0.0958(3) 0.7317(4)
H8 H 0.4040 0.1150 0.6969
C14 C 0.9634(6) 0.4153(3) 0.2133(4)
H9 H 0.9111 0.3972 0.1783
C15 C 0.7792(5) 0.3741(3) 0.7423(4)
H10 H 0.8349 0.3598 0.7777
C19 C 0.4301(5) 0.0963(3) 0.9637(3)
C20 C 0.9618(5) 0.2318(3) 0.4878(4)
C21 C 0.4372(5) 0.0915(3) 0.8064(4)
H12 H 0.3738 0.1063 0.8215
C24 C 0.6756(6) 0.3937(3) 0.8506(4)
C26 C 0.9516(6) 0.4140(3) 0.2894(4)
H14 H 0.8908 0.3969 0.3058
C29 C 0.6035(5) 0.4164(3) 0.7139(4)
H17 H 0.5396 0.4303 0.7291
C30 C 0.6076(6) 0.0424(3) 0.8349(4)
H18 H 0.6610 0.0256 0.8701
C32 C 0.3764(6) 0.2659(3) 0.9890(4)
C34 C 0.5466(6) 0.0727(3) 0.7071(3)
C35 C 0.6204(6) 0.0449(3) 0.7593(4)
H21 H 0.6810 0.0272 0.7433
C36 C 0.5623(6) 0.0760(3) 0.6256(4)
C38 C 0.8697(6) 0.4205(3) 0.4775(3)
H23 H 0.8502 0.4617 0.4749
C42 C 0.7921(5) 0.3739(3) 0.6662(4)
H31 H 0.8552 0.3592 0.6505
C43 C 0.7103(5) 0.3955(3) 0.6140(4)
C44 C 0.6169(6) 0.4170(3) 0.6380(4)
H32 H 0.5622 0.4322 0.6024
H34 H 0.327(2) 0.4167(16) 0.921(3)
H35_2 H 0.731(4) 0.314(4) 1.000(2)
Mn4 Mn 0.52747(9) 0.12938(5) 0.47061(6)
Mn5 Mn 0.90996(8) 0.09418(4) 0.46016(5)
Mn8 Mn 0.90996(8) 0.40582(4) 0.96016(5)
O1 O 0.8170(4) 0.0408(2) 0.5408(3)
H1 H 0.7869 0.0649 0.5665
H11 H 0.9907 0.0770 0.2415
C40 C 0.9878(6) 0.2457(3) 0.7673(4)
H25 H 0.9341 0.2501 0.7238
H26 H 0.9972 0.2842 0.7936
H27 H 0.9652 0.2151 0.8008
O22 O 0.7590(4) 0.1126(3) 0.3970(3)
O24 O 0.9109(5) 0.0010(2) 0.4183(3)
H36 H 0.762482 0.0143873 0.510887
H11_2 H 0.0093 0.5770 0.2585
O22_2 O 0.2410(4) 0.6126(3) 0.1030(3)
O25 O 0.1083(4) 0.6909(2) 0.0092(3)
C1_2 C 0.0082(5) 0.8395(3) 0.0463(3)
C3_2 C 0.0734(5) 0.7974(3) 0.0162(3)
C6_2 C 0.0387(6) 0.8999(3) 0.0506(3)
C14_2 C 0.0366(6) 0.9153(3) 0.2867(4)
H9_2 H 0.0889 0.8972 0.3217
C20_2 C 0.0382(5) 0.7318(3) 0.0122(4)
C26_2 C 0.0484(6) 0.9140(3) 0.2106(4)
H14_2 H 0.1092 0.8969 0.1942
C38_2 C 0.1303(6) 0.9205(3) 0.0225(3)
H23_2 H 0.1498 0.9617 0.0251
Mn4_2 Mn 0.47253(9) 0.62938(5) 0.02939(6)
Mn7 Mn 0.09004(8) 0.90582(4) 0.53984(5)
Mn1_2 Mn 0.47253(9) 0.87062(5) 0.52939(6)
O2_2 O 0.8174(4) 0.6127(2) 0.0775(2)
O3_2 O 0.9907(4) 0.6140(2) 0.1260(2)
O4_2 O 0.7979(4) 0.5771(2) 0.4330(2)
O5_2 O 0.4983(4) 0.55839(19) 0.5661(2)
O6_2 O 0.2410(4) 0.8874(3) 0.6030(3)
O7_2 O 0.4166(4) 0.8978(2) 0.6299(3)
O8_2 O 0.5021(4) 0.6084(3) 0.9177(3)
O9_2 O 0.3641(5) 0.5476(2) 0.8979(3)
O10_2 O 0.6087(4) 0.9260(2) 0.5677(3)
H2_2 H 0.5895 0.9616 0.5724
O11_2 O 0.5512(4) 0.7869(2) 0.5469(3)
O12_2 O 0.3276(4) 0.8237(3) 0.4827(3)
H3_2 H 0.3290 0.8172 0.4374
O18_2 O 0.6862(4) 0.7971(2) 0.4784(3)
O20_2 O 0.2856(4) 0.8994(2) 0.9636(2)
C2_2 C 0.7164(5) 0.6064(3) 0.4653(3)
C4_2 C 0.1915(5) 0.8774(3) 0.9905(3)
C5_2 C 0.8616(5) 0.6050(3) 0.2116(3)
C7_2 C 0.3145(5) 0.8950(3) 0.7324(4)
C8_2 C 0.5591(5) 0.6596(3) 0.5380(4)
H6_2 H 0.5032 0.6774 0.5600
C9_2 C 0.8149(6) 0.5916(3) 0.3591(4)
C10_2 C 0.4857(5) 0.5651(3) 0.6421(3)
C11_2 C 0.1672(6) 0.8157(3) 0.9897(3)
H7_2 H 0.2128 0.7871 0.9718
C12_2 C 0.6321(5) 0.6962(3) 0.5066(3)
C13_2 C 0.5448(6) 0.5958(3) 0.7683(4)
H8_2 H 0.5960 0.6150 0.8031
C15_2 C 0.2208(5) 0.8741(3) 0.7577(4)
H10_2 H 0.1651 0.8598 0.7223
C16_2 C 0.9403(5) 0.5853(3) 0.2695(4)
C18_2 C 0.8930(6) 0.6111(3) 0.1322(4)
C19_2 C 0.5699(5) 0.5963(3) 0.5363(3)
C21_2 C 0.5628(5) 0.5915(3) 0.6936(4)
H12_2 H 0.6262 0.6063 0.6785
C24_2 C 0.3244(6) 0.8937(3) 0.6494(4)
C25_2 C 0.7367(6) 0.6115(3) 0.3042(4)
H13_2 H 0.6682 0.6201 0.3158
C28_2 C 0.9170(6) 0.5780(3) 0.3431(4)
H16_2 H 0.9694 0.5642 0.3813
C29_2 C 0.3965(5) 0.9164(3) 0.7861(4)
H17_2 H 0.4604 0.9303 0.7709
C30_2 C 0.3924(6) 0.5424(3) 0.6651(4)
H18_2 H 0.3390 0.5256 0.6299
C31_2 C 0.7605(6) 0.6188(3) 0.2302(4)
H19_2 H 0.7076 0.6331 0.1927
C32_2 C 0.6236(6) 0.7659(3) 0.5110(4)
C34_2 C 0.4534(6) 0.5727(3) 0.7929(3)
C35_2 C 0.3796(6) 0.5449(3) 0.7407(4)
H21_2 H 0.3190 0.5272 0.7567
C36_2 C 0.4377(6) 0.5760(3) 0.8744(4)
C39_2 C 0.7113(5) 0.6697(3) 0.4679(3)
H24_2 H 0.7587 0.6939 0.4449
C42_2 C 0.2079(5) 0.8739(3) 0.8338(4)
H31_2 H 0.1448 0.8592 0.8495
C43_2 C 0.2897(5) 0.8955(3) 0.8860(4)
C44_2 C 0.3831(6) 0.9170(3) 0.8620(4)
H32_2 H 0.4378 0.9322 0.8976
C45_2 C 0.6472(5) 0.5695(3) 0.4999(3)
H33_2 H 0.6534 0.5270 0.4984
H34_2 H 0.673(2) 0.9167(16) 0.579(3)
H35_3 H 0.269(4) 0.814(4) 0.500(2)
Mn10 Mn 0.82768(8) 0.84599(5) 0.46729(6)
O23_2 O 0.5021(4) 0.8916(3) 0.4177(3)
O26 O 0.9399(4) 0.72172(19) 0.0127(3)
Mn3 Mn 0.82768(8) 0.65401(5) 0.96729(6)
O17_2 O 0.7208(4) 0.5760(2) 0.9225(2)
H4_2 H 0.6577 0.5861 0.9218
O19_2 O 0.8240(4) 0.6928(2) 0.8535(3)
N1_2 N 0.9097(5) 0.7269(3) 0.7578(3)
C37_2 C 0.9065(7) 0.7116(3) 0.8286(4)
H22_2 H 0.9694 0.7149 0.8624
C41_2 C 0.8197(7) 0.7179(4) 0.7003(4)
H28_2 H 0.7583 0.7055 0.7236
H29_2 H 0.8366 0.6867 0.6656
H30_2 H 0.8039 0.7557 0.6731
O27_2 O 0.9651(4) 0.5952(2) 0.9393(2)
O28_2 O 0.6862(4) 0.7029(2) 0.9784(3)
H37_2 H 0.736038 0.539614 0.955877
O16_2 O 0.9651(4) 0.9048(2) 0.4393(2)
O21_2 O 0.9738(4) 0.9434(2) 0.0817(2)
H5_2 H 0.9446 0.8270 0.0633
C17_2 C 0.9676(6) 0.9388(3) 0.1592(3)
C22_2 C 0.9478(6) 0.9431(3) 0.3122(3)
C23_2 C 0.9430(5) 0.9503(3) 0.3956(4)
C27_2 C 0.8757(6) 0.9639(3) 0.1820(4)
H15_2 H 0.8209 0.9785 0.1462
C33_2 C 0.8663(6) 0.9669(3) 0.2587(4)
H20_2 H 0.8058 0.9848 0.2747
O1_2 O 0.1830(4) 0.9592(2) 0.4592(3)
H1_2 H 0.2131 0.9351 0.4335
H11_3 H 0.0093 0.9230 0.7585
C40_2 C 0.0122(6) 0.7543(3) 0.2327(4)
H25_2 H 0.0659 0.7499 0.2762
H26_2 H 0.0028 0.7158 0.2064
H27_2 H 0.0348 0.7849 0.1992
O24_2 O 0.0891(5) 0.9990(2) 0.5817(3)
O25_2 O 0.1083(4) 0.8091(2) 0.5092(3)
H36_2 H 0.237518 0.985613 0.489113
O5_3 O 0.4983(4) 0.94161(19) 0.0661(2)
O7_3 O 0.4166(4) 0.6022(2) 0.1299(3)
O9_3 O 0.3641(5) 0.9524(2) 0.3979(3)
O10_3 O 0.6087(4) 0.5740(2) 0.0677(3)
H2_3 H 0.5895 0.5384 0.0724
O11_3 O 0.5512(4) 0.7131(2) 0.0469(3)
O20_3 O 0.2856(4) 0.6006(2) 0.4636(2)
C1_3 C 0.0082(5) 0.6605(3) 0.5463(3)
C3_3 C 0.0734(5) 0.7026(3) 0.5162(3)
C4_3 C 0.1915(5) 0.6226(3) 0.4905(3)
C6_3 C 0.0387(6) 0.6001(3) 0.5506(3)
C7_3 C 0.3145(5) 0.6050(3) 0.2324(4)
C8_3 C 0.5591(5) 0.8404(3) 0.0380(4)
H6_3 H 0.5032 0.8226 0.0600
C10_3 C 0.4857(5) 0.9349(3) 0.1421(3)
C11_3 C 0.1672(6) 0.6843(3) 0.4897(3)
H7_3 H 0.2128 0.7129 0.4718
C12_3 C 0.6321(5) 0.8038(3) 0.0066(3)
C13_3 C 0.5448(6) 0.9042(3) 0.2683(4)
H8_3 H 0.5960 0.8850 0.3031
C14_3 C 0.0366(6) 0.5847(3) 0.7867(4)
H9_3 H 0.0889 0.6028 0.8217
C15_3 C 0.2208(5) 0.6259(3) 0.2577(4)
H10_3 H 0.1651 0.6402 0.2223
C19_3 C 0.5699(5) 0.9037(3) 0.0363(3)
C20_3 C 0.0382(5) 0.7682(3) 0.5122(4)
C21_3 C 0.5628(5) 0.9085(3) 0.1936(4)
H12_3 H 0.6262 0.8937 0.1785
C24_3 C 0.3244(6) 0.6063(3) 0.1494(4)
C26_3 C 0.0484(6) 0.5860(3) 0.7106(4)
H14_3 H 0.1092 0.6031 0.6942
C29_3 C 0.3965(5) 0.5836(3) 0.2861(4)
H17_3 H 0.4604 0.5697 0.2709
C30_3 C 0.3924(6) 0.9576(3) 0.1651(4)
H18_3 H 0.3390 0.9744 0.1299
C32_3 C 0.6236(6) 0.7341(3) 0.0110(4)
C34_3 C 0.4534(6) 0.9273(3) 0.2929(3)
C35_3 C 0.3796(6) 0.9551(3) 0.2407(4)
H21_3 H 0.3190 0.9728 0.2567
C36_3 C 0.4377(6) 0.9240(3) 0.3744(4)
C38_3 C 0.1303(6) 0.5795(3) 0.5225(3)
H23_3 H 0.1498 0.5383 0.5251
C42_3 C 0.2079(5) 0.6261(3) 0.3338(4)
H31_3 H 0.1448 0.6408 0.3495
C43_3 C 0.2897(5) 0.6045(3) 0.3860(4)
C44_3 C 0.3831(6) 0.5830(3) 0.3620(4)
H32_3 H 0.4378 0.5678 0.3976
H34_3 H 0.673(2) 0.5833(16) 0.079(3)
H35_4 H 0.269(4) 0.686(4) 0.000(2)
O2_3 O 0.8174(4) 0.8873(2) 0.5775(2)
O3_3 O 0.9907(4) 0.8860(2) 0.6260(2)
O4_3 O 0.7979(4) 0.9229(2) 0.9330(2)
O12_3 O 0.3276(4) 0.6763(3) 0.9827(3)
H3_3 H 0.3290 0.6828 0.9374
O17_3 O 0.7208(4) 0.9240(2) 0.4225(2)
H4_3 H 0.6577 0.9139 0.4218
O19_3 O 0.8240(4) 0.8072(2) 0.3535(3)
N1_3 N 0.9097(5) 0.7731(3) 0.2578(3)
C2_3 C 0.7164(5) 0.8936(3) 0.9653(3)
C5_3 C 0.8616(5) 0.8950(3) 0.7116(3)
C9_3 C 0.8149(6) 0.9084(3) 0.8591(4)
C16_3 C 0.9403(5) 0.9147(3) 0.7695(4)
C18_3 C 0.8930(6) 0.8889(3) 0.6322(4)
C25_3 C 0.7367(6) 0.8885(3) 0.8042(4)
H13_3 H 0.6682 0.8799 0.8158
C28_3 C 0.9170(6) 0.9220(3) 0.8431(4)
H16_3 H 0.9694 0.9358 0.8813
C31_3 C 0.7605(6) 0.8812(3) 0.7302(4)
H19_3 H 0.7076 0.8669 0.6927
C37_3 C 0.9065(7) 0.7884(3) 0.3286(4)
H22_3 H 0.9694 0.7851 0.3624
C39_3 C 0.7113(5) 0.8303(3) 0.9679(3)
H24_3 H 0.7587 0.8061 0.9449
C41_3 C 0.8197(7) 0.7821(4) 0.2003(4)
H28_3 H 0.7583 0.7945 0.2236
H29_3 H 0.8366 0.8133 0.1656
H30_3 H 0.8039 0.7443 0.1731
C45_3 C 0.6472(5) 0.9305(3) 0.9999(3)
H33_3 H 0.6534 0.9730 0.9984
H35_5 H 0.269(4) 0.686(4) 1.000(2)
O26_2 O 0.9399(4) 0.77828(19) 0.5127(3)
H37_3 H 0.736038 0.960386 0.455877
O13_2 O 0.9109(5) 0.4990(2) 0.9183(3)
O21_3 O 0.9738(4) 0.5566(2) 0.5817(2)
H5_3 H 0.9446 0.6730 0.5633
C17_3 C 0.9676(6) 0.5612(3) 0.6592(3)
C22_3 C 0.9478(6) 0.5569(3) 0.8122(3)
C23_3 C 0.9430(5) 0.5497(3) 0.8956(4)
C27_3 C 0.8757(6) 0.5361(3) 0.6820(4)
H15_3 H 0.8209 0.5215 0.6462
C33_3 C 0.8663(6) 0.5331(3) 0.7587(4)
H20_3 H 0.8058 0.5152 0.7747
O15_2 O 0.0601(4) 0.27828(19) 0.9873(3)
O21_4 O 0.0262(4) 0.0566(2) 0.9183(2)
H5_4 H 0.0554 0.1730 0.9367
C17_4 C 0.0324(6) 0.0612(3) 0.8408(3)
C22_4 C 0.0522(6) 0.0569(3) 0.6878(3)
C23_4 C 0.0570(5) 0.0497(3) 0.6044(4)
C27_4 C 0.1243(6) 0.0361(3) 0.8180(4)
H15_4 H 0.1791 0.0215 0.8538
C33_4 C 0.1337(6) 0.0331(3) 0.7413(4)
H20_4 H 0.1942 0.0152 0.7253
O17_4 O 0.2792(4) 0.4240(2) 0.0775(2)
H4_4 H 0.3423 0.4139 0.0782
O19_4 O 0.1760(4) 0.3072(2) 0.1465(3)
N1_4 N 0.0903(5) 0.2731(3) 0.2422(3)
C37_4 C 0.0935(7) 0.2884(3) 0.1714(4)
H22_4 H 0.0306 0.2851 0.1376
C41_4 C 0.1803(7) 0.2821(4) 0.2997(4)
H28_4 H 0.2417 0.2945 0.2764
H29_4 H 0.1634 0.3133 0.3344
H30_4 H 0.1961 0.2443 0.3269
H37_4 H 0.263962 0.460386 0.0441228
O2_4 O 0.1826(4) 0.3873(2) 0.9225(2)
O3_4 O 0.0093(4) 0.3860(2) 0.8740(2)
O4_4 O 0.2021(4) 0.4229(2) 0.5670(2)
O5_4 O 0.5017(4) 0.44161(19) 0.4339(2)
O7_4 O 0.5834(4) 0.1022(2) 0.3701(3)
O9_4 O 0.6359(5) 0.4524(2) 0.1021(3)
O10_4 O 0.3913(4) 0.0740(2) 0.4323(3)
H2_4 H 0.4105 0.0384 0.4276
O11_4 O 0.4488(4) 0.2131(2) 0.4531(3)
O12_4 O 0.6724(4) 0.1763(3) 0.5173(3)
H3_4 H 0.6710 0.1828 0.5626
O20_4 O 0.7144(4) 0.1006(2) 0.0364(2)
C2_4 C 0.2836(5) 0.3936(3) 0.5347(3)
C4_4 C 0.8085(5) 0.1226(3) 0.0095(3)
C5_4 C 0.1384(5) 0.3950(3) 0.7884(3)
C7_4 C 0.6855(5) 0.1050(3) 0.2676(4)
C8_4 C 0.4409(5) 0.3404(3) 0.4620(4)
H6_4 H 0.4968 0.3226 0.4400
C9_4 C 0.1851(6) 0.4084(3) 0.6409(4)
C10_4 C 0.5143(5) 0.4349(3) 0.3579(3)
C11_4 C 0.8328(6) 0.1843(3) 0.0103(3)
H7_4 H 0.7872 0.2129 0.0282
C12_4 C 0.3679(5) 0.3038(3) 0.4934(3)
C13_4 C 0.4552(6) 0.4042(3) 0.2317(4)
H8_4 H 0.4040 0.3850 0.1969
C15_4 C 0.7792(5) 0.1259(3) 0.2423(4)
H10_4 H 0.8349 0.1402 0.2777
C16_4 C 0.0597(5) 0.4147(3) 0.7305(4)
C18_4 C 0.1070(6) 0.3889(3) 0.8678(4)
C19_4 C 0.4301(5) 0.4037(3) 0.4637(3)
C21_4 C 0.4372(5) 0.4085(3) 0.3064(4)
H12_4 H 0.3738 0.3937 0.3215
C24_4 C 0.6756(6) 0.1063(3) 0.3506(4)
C25_4 C 0.2633(6) 0.3885(3) 0.6958(4)
H13_4 H 0.3318 0.3799 0.6842
C28_4 C 0.0830(6) 0.4220(3) 0.6569(4)
H16_4 H 0.0306 0.4358 0.6187
C29_4 C 0.6035(5) 0.0836(3) 0.2139(4)
H17_4 H 0.5396 0.0697 0.2291
C30_4 C 0.6076(6) 0.4576(3) 0.3349(4)
H18_4 H 0.6610 0.4744 0.3701
C31_4 C 0.2395(6) 0.3812(3) 0.7698(4)
H19_4 H 0.2924 0.3669 0.8073
C32_4 C 0.3764(6) 0.2341(3) 0.4890(4)
C34_4 C 0.5466(6) 0.4273(3) 0.2071(3)
C35_4 C 0.6204(6) 0.4551(3) 0.2593(4)
H21_4 H 0.6810 0.4728 0.2433
C36_4 C 0.5623(6) 0.4240(3) 0.1256(4)
C39_4 C 0.2887(5) 0.3303(3) 0.5321(3)
H24_4 H 0.2413 0.3061 0.5551
C42_4 C 0.7921(5) 0.1261(3) 0.1662(4)
H31_4 H 0.8552 0.1408 0.1505
C43_4 C 0.7103(5) 0.1045(3) 0.1140(4)
C44_4 C 0.6169(6) 0.0830(3) 0.1380(4)
H32_4 H 0.5622 0.0678 0.1024
C45_4 C 0.3528(5) 0.4305(3) 0.5001(3)
H33_4 H 0.3466 0.4730 0.5016
H34_4 H 0.327(2) 0.0833(16) 0.421(3)
H35_6 H 0.731(4) 0.186(4) 0.500(2)
O14_2 O 0.8917(4) 0.3091(2) 0.9908(3)
C1_4 C 0.9918(5) 0.1605(3) 0.9537(3)
C3_4 C 0.9266(5) 0.2026(3) 0.9838(3)
C6_4 C 0.9613(6) 0.1001(3) 0.9494(3)
C14_4 C 0.9634(6) 0.0847(3) 0.7133(4)
H9_4 H 0.9111 0.1028 0.6783
C20_4 C 0.9618(5) 0.2682(3) 0.9878(4)
C26_4 C 0.9516(6) 0.0860(3) 0.7894(4)
H14_4 H 0.8908 0.1031 0.8058
C38_4 C 0.8697(6) 0.0795(3) 0.9775(3)
H23_4 H 0.8502 0.0383 0.9749
H11_4 H 0.9907 0.4230 0.7415
O1_3 O 0.1830(4) 0.5408(2) 0.9592(3)
H1_3 H 0.2131 0.5649 0.9335
C40_3 C 0.0122(6) 0.7457(3) 0.7327(4)
H25_3 H 0.0659 0.7501 0.7762
H26_3 H 0.0028 0.7842 0.7064
H27_3 H 0.0348 0.7151 0.6992
H36_3 H 0.237518 0.514387 0.989113
O1_4 O 0.8170(4) 0.4592(2) 0.0408(3)
H1_4 H 0.7869 0.4351 0.0665
C40_4 C 0.9878(6) 0.2543(3) 0.2673(4)
H25_4 H 0.9341 0.2499 0.2238
H26_4 H 0.9972 0.2158 0.2936
H27_4 H 0.9652 0.2849 0.3008
H36_4 H 0.762482 0.485613 0.0108873
loop_
_geom_bond_atom_site_label_1
_geom_bond_atom_site_label_2
_geom_bond_site_symmetry_1
_geom_bond_site_symmetry_2
O13 C23 1_555 1_555
O16 C23 1_555 1_555
C17 O21 1_555 1_555
C23 C22 1_555 1_555
C27 C17 1_555 1_555
H15 C27 1_555 1_555
C33 C22 1_555 1_555
H20 C33 1_555 1_555
Mn6 O13 1_555 1_555
Mn9 O15 1_555 1_555
Mn11 O16 1_555 1_555
C27 C33 1_555 1_555
Mn9 O2 1_555 1_555
O2 C18 1_555 1_555
O4 C2 1_555 1_555
H3 O12 1_555 1_555
O17 Mn9 1_555 1_555
H4 O17 1_555 1_555
O19 Mn9 1_555 1_555
N1 C37 1_555 1_555
C2 C39 1_555 1_555
C5 C16 1_555 1_555
C9 O4 1_555 1_555
C18 O3 1_555 1_555
C25 C9 1_555 1_555
H13 C25 1_555 1_555
C28 C9 1_555 1_555
H16 C28 1_555 1_555
C31 C5 1_555 1_555
H19 C31 1_555 1_555
C37 O19 1_555 1_555
H22 C37 1_555 1_555
H24 C39 1_555 1_555
C41 N1 1_555 1_555
H28 C41 1_555 1_555
H29 C41 1_555 1_555
H30 C41 1_555 1_555
C45 C2 1_555 1_555
H33 C45 1_555 1_555
H35 O12 1_555 1_555
Mn11 O18 1_555 1_555
O28 Mn9 1_555 1_555
Mn9 O27 1_555 1_555
C5 C18 1_555 1_555
C16 C28 1_555 1_555
C25 C31 1_555 1_555
O17 H37 1_555 1_555
Mn1 O7 1_555 1_555
O5 C10 1_555 1_555
O6 C24 1_555 1_555
O7 C24 1_555 1_555
O8 C36 1_555 1_555
O9 C36 1_555 1_555
O10 Mn1 1_555 1_555
H2 O10 1_555 1_555
O11 Mn1 1_555 1_555
O14 C20 1_555 1_555
O20 C4 1_555 1_555
C3 C1 1_555 1_555
C4 C11 1_555 1_555
C6 C1 1_555 1_555
C7 C15 1_555 1_555
C8 H6 1_555 1_555
C10 C21 1_555 1_555
C11 C3 1_555 1_555
H7 C11 1_555 1_555
C12 C8 1_555 1_555
C13 H8 1_555 1_555
C14 H9 1_555 1_555
C15 H10 1_555 1_555
C19 O5 1_555 1_555
C20 C3 1_555 1_555
C21 C13 1_555 1_555
H12 C21 1_555 1_555
C24 C7 1_555 1_555
C26 C14 1_555 1_555
H14 C26 1_555 1_555
C29 C7 1_555 1_555
H17 C29 1_555 1_555
C30 C10 1_555 1_555
H18 C30 1_555 1_555
C32 O11 1_555 1_555
C34 C13 1_555 1_555
C35 C30 1_555 1_555
H21 C35 1_555 1_555
C36 C34 1_555 1_555
C38 C4 1_555 1_555
H23 C38 1_555 1_555
C42 C15 1_555 1_555
H31 C42 1_555 1_555
C43 O20 1_555 1_555
C44 C29 1_555 1_555
H32 C44 1_555 1_555
H34 O10 1_555 1_555
Mn4 O8 1_555 1_555
Mn5 O14 1_555 1_555
Mn8 O6 1_555 1_555
C6 C38 1_555 1_555
C8 C19 1_555 1_555
C12 C32 1_555 1_555
C34 C35 1_555 1_555
C42 C43 1_555 1_555
C43 C44 1_555 1_555
O1 H1 1_555 1_555
Mn5 O1 1_555 1_555
H25 C40 1_555 1_555
H26 C40 1_555 1_555
H27 C40 1_555 1_555
O22 Mn5 1_555 1_555
O24 Mn5 1_555 1_555
O1 H36 1_555 1_555
O22_2 Mn6 1_555 1_555
O25 Mn6 1_555 1_555
O25 C20_2 1_555 1_555
C3_2 C1_2 1_555 1_555
C6_2 C1_2 1_555 1_555
C14_2 H9_2 1_555 1_555
C20_2 C3_2 1_555 1_555
C26_2 C14_2 1_555 1_555
H14_2 C26_2 1_555 1_555
H23_2 C38_2 1_555 1_555
C6_2 C38_2 1_555 1_555
Mn1_2 O7_2 1_555 1_555
O2_2 C18_2 1_555 1_555
O4_2 C2_2 1_555 1_555
O5_2 C10_2 1_555 1_555
O6_2 C24_2 1_555 1_555
O7_2 C24_2 1_555 1_555
O8_2 C36_2 1_555 1_555
O9_2 C36_2 1_555 1_555
O10_2 Mn1_2 1_555 1_555
H2_2 O10_2 1_555 1_555
O11_2 Mn1_2 1_555 1_555
O12_2 Mn1_2 1_555 1_555
H3_2 O12_2 1_555 1_555
O18_2 C32_2 1_555 1_555
O20_2 C4_2 1_555 1_555
C2_2 C39_2 1_555 1_555
C4_2 C11_2 1_555 1_555
C5_2 C16_2 1_555 1_555
C7_2 C15_2 1_555 1_555
C8_2 H6_2 1_555 1_555
C9_2 O4_2 1_555 1_555
C10_2 C21_2 1_555 1_555
H7_2 C11_2 1_555 1_555
C12_2 C8_2 1_555 1_555
C13_2 H8_2 1_555 1_555
C15_2 H10_2 1_555 1_555
C18_2 O3_2 1_555 1_555
C19_2 O5_2 1_555 1_555
C21_2 C13_2 1_555 1_555
H12_2 C21_2 1_555 1_555
C24_2 C7_2 1_555 1_555
C25_2 C9_2 1_555 1_555
H13_2 C25_2 1_555 1_555
C28_2 C9_2 1_555 1_555
H16_2 C28_2 1_555 1_555
C29_2 C7_2 1_555 1_555
H17_2 C29_2 1_555 1_555
C30_2 C10_2 1_555 1_555
H18_2 C30_2 1_555 1_555
C31_2 C5_2 1_555 1_555
H19_2 C31_2 1_555 1_555
C32_2 O11_2 1_555 1_555
C34_2 C13_2 1_555 1_555
C35_2 C30_2 1_555 1_555
H21_2 C35_2 1_555 1_555
C36_2 C34_2 1_555 1_555
C39_2 C12_2 1_555 1_555
H24_2 C39_2 1_555 1_555
C42_2 C15_2 1_555 1_555
H31_2 C42_2 1_555 1_555
C43_2 O20_2 1_555 1_555
C44_2 C29_2 1_555 1_555
H32_2 C44_2 1_555 1_555
C45_2 C2_2 1_555 1_555
H33_2 C45_2 1_555 1_555
H34_2 O10_2 1_555 1_555
H35_3 O12_2 1_555 1_555
Mn7 O6_2 1_555 1_555
Mn10 O18_2 1_555 1_555
O23_2 Mn1_2 1_555 1_555
C5_2 C18_2 1_555 1_555
C8_2 C19_2 1_555 1_555
C12_2 C32_2 1_555 1_555
C16_2 C28_2 1_555 1_555
C19_2 C45_2 1_555 1_555
C25_2 C31_2 1_555 1_555
C34_2 C35_2 1_555 1_555
C42_2 C43_2 1_555 1_555
C43_2 C44_2 1_555 1_555
O17_2 Mn3 1_555 1_555
H4_2 O17_2 1_555 1_555
O19_2 Mn3 1_555 1_555
N1_2 C37_2 1_555 1_555
C37_2 O19_2 1_555 1_555
H22_2 C37_2 1_555 1_555
C41_2 N1_2 1_555 1_555
H28_2 C41_2 1_555 1_555
H29_2 C41_2 1_555 1_555
H30_2 C41_2 1_555 1_555
O28_2 Mn3 1_555 1_555
Mn3 O27_2 1_555 1_555
O17_2 H37_2 1_555 1_555
O16_2 C23_2 1_555 1_555
C17_2 O21_2 1_555 1_555
C23_2 C22_2 1_555 1_555
C27_2 C17_2 1_555 1_555
H15_2 C27_2 1_555 1_555
C33_2 C22_2 1_555 1_555
H20_2 C33_2 1_555 1_555
Mn10 O16_2 1_555 1_555
C27_2 C33_2 1_555 1_555
O1_2 H1_2 1_555 1_555
Mn7 O1_2 1_555 1_555
H25_2 C40_2 1_555 1_555
H26_2 C40_2 1_555 1_555
H27_2 C40_2 1_555 1_555
O24_2 Mn7 1_555 1_555
O25_2 Mn7 1_555 1_555
O1_2 H36_2 1_555 1_555
Mn4_2 O7_3 1_555 1_555
O5_3 C10_3 1_555 1_555
O22_2 C24_3 1_555 1_555
O7_3 C24_3 1_555 1_555
O23_2 C36_3 1_555 1_555
O9_3 C36_3 1_555 1_555
O10_3 Mn4_2 1_555 1_555
H2_3 O10_3 1_555 1_555
O11_3 Mn4_2 1_555 1_555
O25_2 C20_3 1_555 1_555
O20_3 C4_3 1_555 1_555
C3_3 C1_3 1_555 1_555
C4_3 C11_3 1_555 1_555
C6_3 C1_3 1_555 1_555
C7_3 C15_3 1_555 1_555
C8_3 H6_3 1_555 1_555
C10_3 C21_3 1_555 1_555
C11_3 C3_3 1_555 1_555
H7_3 C11_3 1_555 1_555
C12_3 C8_3 1_555 1_555
C13_3 H8_3 1_555 1_555
C14_3 H9_3 1_555 1_555
C15_3 H10_3 1_555 1_555
C19_3 O5_3 1_555 1_555
C20_3 C3_3 1_555 1_555
C21_3 C13_3 1_555 1_555
H12_3 C21_3 1_555 1_555
C24_3 C7_3 1_555 1_555
C26_3 C14_3 1_555 1_555
H14_3 C26_3 1_555 1_555
C29_3 C7_3 1_555 1_555
H17_3 C29_3 1_555 1_555
C30_3 C10_3 1_555 1_555
H18_3 C30_3 1_555 1_555
C32_3 O11_3 1_555 1_555
C34_3 C13_3 1_555 1_555
C35_3 C30_3 1_555 1_555
H21_3 C35_3 1_555 1_555
C36_3 C34_3 1_555 1_555
C38_3 C4_3 1_555 1_555
H23_3 C38_3 1_555 1_555
C42_3 C15_3 1_555 1_555
H31_3 C42_3 1_555 1_555
C43_3 O20_3 1_555 1_555
C44_3 C29_3 1_555 1_555
H32_3 C44_3 1_555 1_555
H34_3 O10_3 1_555 1_555
C6_3 C38_3 1_555 1_555
C8_3 C19_3 1_555 1_555
C12_3 C32_3 1_555 1_555
C34_3 C35_3 1_555 1_555
C42_3 C43_3 1_555 1_555
C43_3 C44_3 1_555 1_555
Mn10 O2_3 1_555 1_555
O2_3 C18_3 1_555 1_555
O4_3 C2_3 1_555 1_555
H3_3 O12_3 1_555 1_555
O17_3 Mn10 1_555 1_555
H4_3 O17_3 1_555 1_555
O19_3 Mn10 1_555 1_555
N1_3 C37_3 1_555 1_555
C2_3 C39_3 1_555 1_555
C5_3 C16_3 1_555 1_555
C9_3 O4_3 1_555 1_555
C18_3 O3_3 1_555 1_555
C25_3 C9_3 1_555 1_555
H13_3 C25_3 1_555 1_555
C28_3 C9_3 1_555 1_555
H16_3 C28_3 1_555 1_555
C31_3 C5_3 1_555 1_555
H19_3 C31_3 1_555 1_555
C37_3 O19_3 1_555 1_555
H22_3 C37_3 1_555 1_555
H24_3 C39_3 1_555 1_555
C41_3 N1_3 1_555 1_555
H28_3 C41_3 1_555 1_555
H29_3 C41_3 1_555 1_555
H30_3 C41_3 1_555 1_555
C45_3 C2_3 1_555 1_555
H33_3 C45_3 1_555 1_555
H35_5 O12_3 1_555 1_555
O26_2 Mn10 1_555 1_555
C5_3 C18_3 1_555 1_555
C16_3 C28_3 1_555 1_555
C25_3 C31_3 1_555 1_555
O17_3 H37_3 1_555 1_555
O13_2 C23_3 1_555 1_555
O27_2 C23_3 1_555 1_555
C17_3 O21_3 1_555 1_555
C23_3 C22_3 1_555 1_555
C27_3 C17_3 1_555 1_555
H15_3 C27_3 1_555 1_555
C33_3 C22_3 1_555 1_555
H20_3 C33_3 1_555 1_555
Mn8 O13_2 1_555 1_555
C27_3 C33_3 1_555 1_555
O27 C23_4 1_555 1_555
C17_4 O21_4 1_555 1_555
C23_4 C22_4 1_555 1_555
C27_4 C17_4 1_555 1_555
H15_4 C27_4 1_555 1_555
C33_4 C22_4 1_555 1_555
H20_4 C33_4 1_555 1_555
C27_4 C33_4 1_555 1_555
O17_4 Mn11 1_555 1_555
H4_4 O17_4 1_555 1_555
O19_4 Mn11 1_555 1_555
N1_4 C37_4 1_555 1_555
C37_4 O19_4 1_555 1_555
H22_4 C37_4 1_555 1_555
C41_4 N1_4 1_555 1_555
H28_4 C41_4 1_555 1_555
H29_4 C41_4 1_555 1_555
H30_4 C41_4 1_555 1_555
O17_4 H37_4 1_555 1_555
Mn4 O7_4 1_555 1_555
O2_4 C18_4 1_555 1_555
O4_4 C2_4 1_555 1_555
O5_4 C10_4 1_555 1_555
O22 C24_4 1_555 1_555
O7_4 C24_4 1_555 1_555
O23 C36_4 1_555 1_555
O9_4 C36_4 1_555 1_555
O10_4 Mn4 1_555 1_555
H2_4 O10_4 1_555 1_555
O11_4 Mn4 1_555 1_555
O12_4 Mn4 1_555 1_555
H3_4 O12_4 1_555 1_555
O28 C32_4 1_555 1_555
O20_4 C4_4 1_555 1_555
C2_4 C39_4 1_555 1_555
C4_4 C11_4 1_555 1_555
C5_4 C16_4 1_555 1_555
C7_4 C15_4 1_555 1_555
C8_4 H6_4 1_555 1_555
C9_4 O4_4 1_555 1_555
C10_4 C21_4 1_555 1_555
H7_4 C11_4 1_555 1_555
C12_4 C8_4 1_555 1_555
C13_4 H8_4 1_555 1_555
C15_4 H10_4 1_555 1_555
C18_4 O3_4 1_555 1_555
C19_4 O5_4 1_555 1_555
C21_4 C13_4 1_555 1_555
H12_4 C21_4 1_555 1_555
C24_4 C7_4 1_555 1_555
C25_4 C9_4 1_555 1_555
H13_4 C25_4 1_555 1_555
C28_4 C9_4 1_555 1_555
H16_4 C28_4 1_555 1_555
C29_4 C7_4 1_555 1_555
H17_4 C29_4 1_555 1_555
C30_4 C10_4 1_555 1_555
H18_4 C30_4 1_555 1_555
C31_4 C5_4 1_555 1_555
H19_4 C31_4 1_555 1_555
C32_4 O11_4 1_555 1_555
C34_4 C13_4 1_555 1_555
C35_4 C30_4 1_555 1_555
H21_4 C35_4 1_555 1_555
C36_4 C34_4 1_555 1_555
C39_4 C12_4 1_555 1_555
H24_4 C39_4 1_555 1_555
C42_4 C15_4 1_555 1_555
H31_4 C42_4 1_555 1_555
C43_4 O20_4 1_555 1_555
C44_4 C29_4 1_555 1_555
H32_4 C44_4 1_555 1_555
C45_4 C2_4 1_555 1_555
H33_4 C45_4 1_555 1_555
H34_4 O10_4 1_555 1_555
H35_6 O12_4 1_555 1_555
C5_4 C18_4 1_555 1_555
C8_4 C19_4 1_555 1_555
C12_4 C32_4 1_555 1_555
C16_4 C28_4 1_555 1_555
C19_4 C45_4 1_555 1_555
C25_4 C31_4 1_555 1_555
C34_4 C35_4 1_555 1_555
C42_4 C43_4 1_555 1_555
C43_4 C44_4 1_555 1_555
O14_2 C20_4 1_555 1_555
C3_4 C1_4 1_555 1_555
C6_4 C1_4 1_555 1_555
C14_4 H9_4 1_555 1_555
C20_4 C3_4 1_555 1_555
C26_4 C14_4 1_555 1_555
H14_4 C26_4 1_555 1_555
H23_4 C38_4 1_555 1_555
Mn8 O14_2 1_555 1_555
C6_4 C38_4 1_555 1_555
O1_3 H1_3 1_555 1_555
H25_3 C40_3 1_555 1_555
H26_3 C40_3 1_555 1_555
H27_3 C40_3 1_555 1_555
O1_3 H36_3 1_555 1_555
O1_4 H1_4 1_555 1_555
H25_4 C40_4 1_555 1_555
H26_4 C40_4 1_555 1_555
H27_4 C40_4 1_555 1_555
O1_4 H36_4 1_555 1_555

#END
