
###############################################################################
#
# This file contains modified crystal structure data generated from the
# MOF subset of the Cambridge Structural Database (CSD) v543 
# hosted by the Cambridge Crystallographic Data Centre (CCDC).
#
# This work is licensed under the Creative Commons
# Attribution-NonCommercial-ShareAlike 4.0 International License.
# To view a copy of this license, visit
# http://creativecommons.org/licenses/by-nc-sa/4.0/
# or send a letter to
# Creative Commons, PO Box 1866, Mountain View, CA 94042, USA.
#
# CIF created using the CSD Python API on 29 September 2022
# The structure has been converted into the P1 space group
# The structure has a 3D framework
# The original CSD entry YINSIZ is in the monoclinic crystal system
# The framework has been calculated to contain at least 10.0% void space
# The void calculation uses a probe of radius 1.32A, grid spacing 0.4
#
###############################################################################

data_YINSIZ
_chemical_formula_moiety         '(C140 H80 N24 Ni8 O32)n'
_symmetry_cell_setting           triclinic
_symmetry_space_group_name_H-M   'P 1'
_symmetry_Int_Tables_number      1
_space_group_name_Hall           'P 1'
loop_
_symmetry_equiv_pos_site_id
_symmetry_equiv_pos_as_xyz
1 x,y,z
_cell_length_a                   19.8663(4)
_cell_length_b                   21.8289(3)
_cell_length_c                   11.6384(2)
_cell_angle_alpha                90
_cell_angle_beta                 116.935(3)
_cell_angle_gamma                90
_cell_volume                     4499.6
loop_
_atom_site_label
_atom_site_type_symbol
_atom_site_fract_x
_atom_site_fract_y
_atom_site_fract_z
N7 N 0.21697(14) 0.13966(12) 0.0702(2)
Ni1 Ni 0.18725(3) 0.12247(2) 0.88179(5)
O1 O 0.18810(13) 0.12044(11) 0.6981(2)
O2 O 0.26619(12) 0.17827(10) 0.8582(2)
O3 O 0.26417(11) 0.05117(10) 0.9341(2)
O4 O 0.11478(11) 0.05128(10) 0.8592(2)
N2 N 0.35913(15) 0.20749(14) 0.5270(3)
N3 N 0.59695(14) 0.31847(12) 0.8102(2)
C1 C 0.17075(18) 0.13178(17) 0.1245(3)
H1 H 0.1208 0.1177 0.0721
C2 C 0.19256(19) 0.14330(18) 0.2531(3)
H2 H 0.1580 0.1373 0.2878
C3 C 0.26554(18) 0.16383(15) 0.3316(3)
C4 C 0.31310(19) 0.17192(18) 0.2750(3)
H3 H 0.3632 0.1862 0.3247
C5 C 0.28697(19) 0.15898(17) 0.1454(3)
H4 H 0.3205 0.1641 0.1083
C6 C 0.29317(18) 0.17750(16) 0.4711(3)
C7 C 0.25405(17) 0.15942(16) 0.5393(3)
H5 H 0.2077 0.1377 0.4975
C8 C 0.28420(18) 0.17383(16) 0.6695(3)
C9 C 0.35320(19) 0.20359(17) 0.7285(3)
H6 H 0.3758 0.2128 0.8179
C10 C 0.38881(18) 0.21974(17) 0.6533(3)
C11 C 0.46152(18) 0.25318(16) 0.7083(3)
C12 C 0.51962(19) 0.23925(17) 0.8300(3)
H7 H 0.5136 0.2075 0.8803
C13 C 0.58623(18) 0.27243(15) 0.8764(3)
H8 H 0.6259 0.2621 0.9585
C14 C 0.54073(18) 0.33163(17) 0.6926(3)
H9 H 0.5479 0.3641 0.6449
C15 C 0.47340(19) 0.30004(17) 0.6386(3)
H10 H 0.4355 0.3101 0.5547
C16 C 0.24370(17) 0.15646(15) 0.7469(3)
C17 C 0.1460(2) 0.0000 0.8739(4)
C18 C 0.2325(2) 0.0000 0.9174(4)
Ni6 Ni 0.68725(3) 0.37753(2) 0.88179(5)
N10 N 0.09695(14) 0.18153(12) 0.8102(2)
N8 N 0.21697(14) 0.86034(12) 0.0702(2)
C17_2 C 0.1460(2) 1.0000 0.8739(4)
C18_2 C 0.2325(2) 1.0000 0.9174(4)
O5 O 0.26417(11) 0.94883(10) 0.9341(2)
O6 O 0.11478(11) 0.94872(10) 0.8592(2)
Ni2 Ni 0.18725(3) 0.87753(2) 0.88179(5)
O7 O 0.18810(13) 0.87956(11) 0.6981(2)
O8 O 0.26619(12) 0.82173(10) 0.8582(2)
N5 N 0.35913(15) 0.79251(14) 0.5270(3)
N6 N 0.59695(14) 0.68153(12) 0.8102(2)
C19 C 0.17075(18) 0.86822(17) 0.1245(3)
H11 H 0.1208 0.8823 0.0721
C20 C 0.19256(19) 0.85670(18) 0.2531(3)
H12 H 0.1580 0.8627 0.2878
C21 C 0.26554(18) 0.83617(15) 0.3316(3)
C22 C 0.31310(19) 0.82808(18) 0.2750(3)
H13 H 0.3632 0.8138 0.3247
C23 C 0.28697(19) 0.84102(17) 0.1454(3)
H14 H 0.3205 0.8359 0.1083
C24 C 0.29317(18) 0.82250(16) 0.4711(3)
C25 C 0.25405(17) 0.84058(16) 0.5393(3)
H15 H 0.2077 0.8623 0.4975
C26 C 0.28420(18) 0.82617(16) 0.6695(3)
C27 C 0.35320(19) 0.79641(17) 0.7285(3)
H16 H 0.3758 0.7872 0.8179
C28 C 0.38881(18) 0.78026(17) 0.6533(3)
C29 C 0.46152(18) 0.74682(16) 0.7083(3)
C30 C 0.51962(19) 0.76075(17) 0.8300(3)
H17 H 0.5136 0.7925 0.8803
C31 C 0.58623(18) 0.72757(15) 0.8764(3)
H18 H 0.6259 0.7379 0.9585
C32 C 0.54073(18) 0.66837(17) 0.6926(3)
H19 H 0.5479 0.6359 0.6449
C33 C 0.47340(19) 0.69996(17) 0.6386(3)
H20 H 0.4355 0.6899 0.5547
C34 C 0.24370(17) 0.84354(15) 0.7469(3)
Ni4 Ni 0.68725(3) 0.62247(2) 0.88179(5)
N9 N 0.09695(14) 0.81847(12) 0.8102(2)
C12_2 C 0.01962(19) 0.73925(17) 0.8300(3)
H7_2 H 0.0136 0.7075 0.8803
C13_2 C 0.08623(18) 0.77243(15) 0.8764(3)
H8_2 H 0.1259 0.7621 0.9585
C14_2 C 0.04073(18) 0.83163(17) 0.6926(3)
H9_2 H 0.0479 0.8641 0.6449
C30_2 C 0.01962(19) 0.26075(17) 0.8300(3)
H17_2 H 0.0136 0.2925 0.8803
C31_2 C 0.08623(18) 0.22757(15) 0.8764(3)
H18_2 H 0.1259 0.2379 0.9585
C32_2 C 0.04073(18) 0.16837(17) 0.6926(3)
H19_2 H 0.0479 0.1359 0.6449
N7_2 N 0.71697(14) 0.63966(12) 0.0702(2)
N8_2 N 0.71697(14) 0.36034(12) 0.0702(2)
O1_2 O 0.68810(13) 0.62044(11) 0.6981(2)
O2_2 O 0.76619(12) 0.67827(10) 0.8582(2)
O3_2 O 0.76417(11) 0.55117(10) 0.9341(2)
O4_2 O 0.61478(11) 0.55128(10) 0.8592(2)
N2_2 N 0.85913(15) 0.70749(14) 0.5270(3)
C1_2 C 0.67075(18) 0.63178(17) 0.1245(3)
H1_2 H 0.6208 0.6177 0.0721
C2_2 C 0.69256(19) 0.64330(18) 0.2531(3)
H2_2 H 0.6580 0.6373 0.2878
C3_2 C 0.76554(18) 0.66383(15) 0.3316(3)
C4_2 C 0.81310(19) 0.67192(18) 0.2750(3)
H3_2 H 0.8632 0.6862 0.3247
C5_2 C 0.78697(19) 0.65898(17) 0.1454(3)
H4_2 H 0.8205 0.6641 0.1083
C6_2 C 0.79317(18) 0.67750(16) 0.4711(3)
C7_2 C 0.75405(17) 0.65942(16) 0.5393(3)
H5_2 H 0.7077 0.6377 0.4975
C8_2 C 0.78420(18) 0.67383(16) 0.6695(3)
C9_2 C 0.85320(19) 0.70359(17) 0.7285(3)
H6_2 H 0.8758 0.7128 0.8179
C10_2 C 0.88881(18) 0.71974(17) 0.6533(3)
C11_2 C 0.96152(18) 0.75318(16) 0.7083(3)
C15_2 C 0.97340(19) 0.80004(17) 0.6386(3)
H10_2 H 0.9355 0.8101 0.5547
C16_2 C 0.74370(17) 0.65646(15) 0.7469(3)
C17_3 C 0.6460(2) 0.5000 0.8739(4)
C18_3 C 0.7325(2) 0.5000 0.9174(4)
O5_2 O 0.76417(11) 0.44883(10) 0.9341(2)
O6_2 O 0.61478(11) 0.44872(10) 0.8592(2)
O7_2 O 0.68810(13) 0.37956(11) 0.6981(2)
O8_2 O 0.76619(12) 0.32173(10) 0.8582(2)
N5_2 N 0.85913(15) 0.29251(14) 0.5270(3)
C19_2 C 0.67075(18) 0.36822(17) 0.1245(3)
H11_2 H 0.6208 0.3823 0.0721
C20_2 C 0.69256(19) 0.35670(18) 0.2531(3)
H12_2 H 0.6580 0.3627 0.2878
C21_2 C 0.76554(18) 0.33617(15) 0.3316(3)
C22_2 C 0.81310(19) 0.32808(18) 0.2750(3)
H13_2 H 0.8632 0.3138 0.3247
C23_2 C 0.78697(19) 0.34102(17) 0.1454(3)
H14_2 H 0.8205 0.3359 0.1083
C24_2 C 0.79317(18) 0.32250(16) 0.4711(3)
C25_2 C 0.75405(17) 0.34058(16) 0.5393(3)
H15_2 H 0.7077 0.3623 0.4975
C26_2 C 0.78420(18) 0.32617(16) 0.6695(3)
C27_2 C 0.85320(19) 0.29641(17) 0.7285(3)
H16_2 H 0.8758 0.2872 0.8179
C28_2 C 0.88881(18) 0.28026(17) 0.6533(3)
C29_2 C 0.96152(18) 0.24682(16) 0.7083(3)
C33_2 C 0.97340(19) 0.19996(17) 0.6386(3)
H20_2 H 0.9355 0.1899 0.5547
C34_2 C 0.74370(17) 0.34354(15) 0.7469(3)
Ni3 Ni 0.81275(3) 0.12247(2) 0.11821(5)
O1_3 O 0.81190(13) 0.12044(11) 0.3019(2)
O2_3 O 0.73381(12) 0.17827(10) 0.1418(2)
O3_3 O 0.73583(11) 0.05117(10) 0.0659(2)
O4_3 O 0.88522(11) 0.05128(10) 0.1408(2)
N1 N 0.78303(14) 0.13966(12) 0.9298(2)
N2_3 N 0.64087(15) 0.20749(14) 0.4730(3)
N3_2 N 0.40305(14) 0.31847(12) 0.1898(2)
C1_3 C 0.82925(18) 0.13178(17) 0.8755(3)
H1_3 H 0.8792 0.1177 0.9279
C2_3 C 0.80744(19) 0.14330(18) 0.7469(3)
H2_3 H 0.8420 0.1373 0.7122
C3_3 C 0.73446(18) 0.16383(15) 0.6684(3)
C4_3 C 0.68690(19) 0.17192(18) 0.7250(3)
H3_3 H 0.6368 0.1862 0.6753
C5_3 C 0.71303(19) 0.15898(17) 0.8546(3)
H4_3 H 0.6795 0.1641 0.8917
C6_3 C 0.70683(18) 0.17750(16) 0.5289(3)
C7_3 C 0.74595(17) 0.15942(16) 0.4607(3)
H5_3 H 0.7923 0.1377 0.5025
C8_3 C 0.71580(18) 0.17383(16) 0.3305(3)
C9_3 C 0.64680(19) 0.20359(17) 0.2715(3)
H6_3 H 0.6242 0.2128 0.1821
C10_3 C 0.61119(18) 0.21974(17) 0.3467(3)
C11_3 C 0.53848(18) 0.25318(16) 0.2917(3)
C12_3 C 0.48038(19) 0.23925(17) 0.1700(3)
H7_3 H 0.4864 0.2075 0.1197
C13_3 C 0.41377(18) 0.27243(15) 0.1236(3)
H8_3 H 0.3741 0.2621 0.0415
C14_3 C 0.45927(18) 0.33163(17) 0.3074(3)
H9_3 H 0.4521 0.3641 0.3551
C15_3 C 0.52660(19) 0.30004(17) 0.3614(3)
H10_3 H 0.5645 0.3101 0.4453
C16_3 C 0.75630(17) 0.15646(15) 0.2531(3)
C17_4 C 0.8540(2) 0.0000 0.1261(4)
C18_4 C 0.7675(2) -0.0000 0.0826(4)
Ni6_2 Ni 0.31275(3) 0.37753(2) 0.11821(5)
N10_2 N 0.90305(14) 0.18153(12) 0.1898(2)
Ni5 Ni 0.81275(3) 0.87753(2) 0.11821(5)
C17_5 C 0.8540(2) 1.0000 0.1261(4)
C18_5 C 0.7675(2) 1.0000 0.0826(4)
O5_3 O 0.73583(11) 0.94883(10) 0.0659(2)
O6_3 O 0.88522(11) 0.94872(10) 0.1408(2)
O7_3 O 0.81190(13) 0.87956(11) 0.3019(2)
O8_3 O 0.73381(12) 0.82173(10) 0.1418(2)
N4 N 0.78303(14) 0.86034(12) 0.9298(2)
N5_3 N 0.64087(15) 0.79251(14) 0.4730(3)
N6_2 N 0.40305(14) 0.68153(12) 0.1898(2)
C19_3 C 0.82925(18) 0.86822(17) 0.8755(3)
H11_3 H 0.8792 0.8823 0.9279
C20_3 C 0.80744(19) 0.85670(18) 0.7469(3)
H12_3 H 0.8420 0.8627 0.7122
C21_3 C 0.73446(18) 0.83617(15) 0.6684(3)
C22_3 C 0.68690(19) 0.82808(18) 0.7250(3)
H13_3 H 0.6368 0.8138 0.6753
C23_3 C 0.71303(19) 0.84102(17) 0.8546(3)
H14_3 H 0.6795 0.8359 0.8917
C24_3 C 0.70683(18) 0.82250(16) 0.5289(3)
C25_3 C 0.74595(17) 0.84058(16) 0.4607(3)
H15_3 H 0.7923 0.8623 0.5025
C26_3 C 0.71580(18) 0.82617(16) 0.3305(3)
C27_3 C 0.64680(19) 0.79641(17) 0.2715(3)
H16_3 H 0.6242 0.7872 0.1821
C28_3 C 0.61119(18) 0.78026(17) 0.3467(3)
C29_3 C 0.53848(18) 0.74682(16) 0.2917(3)
C30_3 C 0.48038(19) 0.76075(17) 0.1700(3)
H17_3 H 0.4864 0.7925 0.1197
C31_3 C 0.41377(18) 0.72757(15) 0.1236(3)
H18_3 H 0.3741 0.7379 0.0415
C32_3 C 0.45927(18) 0.66837(17) 0.3074(3)
H19_3 H 0.4521 0.6359 0.3551
C33_3 C 0.52660(19) 0.69996(17) 0.3614(3)
H20_3 H 0.5645 0.6899 0.4453
C34_3 C 0.75630(17) 0.84354(15) 0.2531(3)
Ni4_2 Ni 0.31275(3) 0.62247(2) 0.11821(5)
N9_2 N 0.90305(14) 0.81847(12) 0.1898(2)
O1_4 O 0.31190(13) 0.62044(11) 0.3019(2)
O2_4 O 0.23381(12) 0.67827(10) 0.1418(2)
O3_4 O 0.23583(11) 0.55117(10) 0.0659(2)
O4_4 O 0.38522(11) 0.55128(10) 0.1408(2)
N1_2 N 0.28303(14) 0.63966(12) 0.9298(2)
N2_4 N 0.14087(15) 0.70749(14) 0.4730(3)
C1_4 C 0.32925(18) 0.63178(17) 0.8755(3)
H1_4 H 0.3792 0.6177 0.9279
C2_4 C 0.30744(19) 0.64330(18) 0.7469(3)
H2_4 H 0.3420 0.6373 0.7122
C3_4 C 0.23446(18) 0.66383(15) 0.6684(3)
C4_4 C 0.18690(19) 0.67192(18) 0.7250(3)
H3_4 H 0.1368 0.6862 0.6753
C5_4 C 0.21303(19) 0.65898(17) 0.8546(3)
H4_4 H 0.1795 0.6641 0.8917
C6_4 C 0.20683(18) 0.67750(16) 0.5289(3)
C7_4 C 0.24595(17) 0.65942(16) 0.4607(3)
H5_4 H 0.2923 0.6377 0.5025
C8_4 C 0.21580(18) 0.67383(16) 0.3305(3)
C9_4 C 0.14680(19) 0.70359(17) 0.2715(3)
H6_4 H 0.1242 0.7128 0.1821
C10_4 C 0.11119(18) 0.71974(17) 0.3467(3)
C11_4 C 0.03848(18) 0.75318(16) 0.2917(3)
C15_4 C 0.02660(19) 0.80004(17) 0.3614(3)
H10_4 H 0.0645 0.8101 0.4453
C16_4 C 0.25630(17) 0.65646(15) 0.2531(3)
C17_6 C 0.3540(2) 0.5000 0.1261(4)
C18_6 C 0.2675(2) 0.5000 0.0826(4)
O5_4 O 0.23583(11) 0.44883(10) 0.0659(2)
O6_4 O 0.38522(11) 0.44872(10) 0.1408(2)
O7_4 O 0.31190(13) 0.37956(11) 0.3019(2)
O8_4 O 0.23381(12) 0.32173(10) 0.1418(2)
N4_2 N 0.28303(14) 0.36034(12) 0.9298(2)
N5_4 N 0.14087(15) 0.29251(14) 0.4730(3)
C19_4 C 0.32925(18) 0.36822(17) 0.8755(3)
H11_4 H 0.3792 0.3823 0.9279
C20_4 C 0.30744(19) 0.35670(18) 0.7469(3)
H12_4 H 0.3420 0.3627 0.7122
C21_4 C 0.23446(18) 0.33617(15) 0.6684(3)
C22_4 C 0.18690(19) 0.32808(18) 0.7250(3)
H13_4 H 0.1368 0.3138 0.6753
C23_4 C 0.21303(19) 0.34102(17) 0.8546(3)
H14_4 H 0.1795 0.3359 0.8917
C24_4 C 0.20683(18) 0.32250(16) 0.5289(3)
C25_4 C 0.24595(17) 0.34058(16) 0.4607(3)
H15_4 H 0.2923 0.3623 0.5025
C26_4 C 0.21580(18) 0.32617(16) 0.3305(3)
C27_4 C 0.14680(19) 0.29641(17) 0.2715(3)
H16_4 H 0.1242 0.2872 0.1821
C28_4 C 0.11119(18) 0.28026(17) 0.3467(3)
C29_4 C 0.03848(18) 0.24682(16) 0.2917(3)
C33_4 C 0.02660(19) 0.19996(17) 0.3614(3)
H20_4 H 0.0645 0.1899 0.4453
C34_4 C 0.25630(17) 0.34354(15) 0.2531(3)
C12_4 C 0.98038(19) 0.73925(17) 0.1700(3)
H7_4 H 0.9864 0.7075 0.1197
C13_4 C 0.91377(18) 0.77243(15) 0.1236(3)
H8_4 H 0.8741 0.7621 0.0415
C14_4 C 0.95927(18) 0.83163(17) 0.3074(3)
H9_4 H 0.9521 0.8641 0.3551
C30_4 C 0.98038(19) 0.26075(17) 0.1700(3)
H17_4 H 0.9864 0.2925 0.1197
C31_4 C 0.91377(18) 0.22757(15) 0.1236(3)
H18_4 H 0.8741 0.2379 0.0415
C32_4 C 0.95927(18) 0.16837(17) 0.3074(3)
H19_4 H 0.9521 0.1359 0.3551
loop_
_geom_bond_atom_site_label_1
_geom_bond_atom_site_label_2
_geom_bond_site_symmetry_1
_geom_bond_site_symmetry_2
Ni1 O1 1_555 1_555
O1 C16 1_555 1_555
O2 Ni1 1_555 1_555
O3 Ni1 1_555 1_555
O4 Ni1 1_555 1_555
N7 C1 1_555 1_555
N2 C6 1_555 1_555
N3 C13 1_555 1_555
C1 H1 1_555 1_555
C2 C1 1_555 1_555
H2 C2 1_555 1_555
C3 C2 1_555 1_555
C4 C3 1_555 1_555
H3 C4 1_555 1_555
C5 N7 1_555 1_555
H4 C5 1_555 1_555
C6 C3 1_555 1_555
C7 C6 1_555 1_555
H5 C7 1_555 1_555
C8 C7 1_555 1_555
C9 C8 1_555 1_555
H6 C9 1_555 1_555
C10 N2 1_555 1_555
C11 C10 1_555 1_555
C12 C11 1_555 1_555
H7 C12 1_555 1_555
C13 C12 1_555 1_555
H8 C13 1_555 1_555
C14 N3 1_555 1_555
H9 C14 1_555 1_555
C15 C11 1_555 1_555
H10 C15 1_555 1_555
C16 O2 1_555 1_555
C17 O4 1_555 1_555
C18 O3 1_555 1_555
Ni6 N3 1_555 1_555
N10 Ni1 1_555 1_555
C4 C5 1_555 1_555
C8 C16 1_555 1_555
C9 C10 1_555 1_555
C14 C15 1_555 1_555
C17 C18 1_555 1_555
O5 C18_2 1_555 1_555
O6 C17_2 1_555 1_555
Ni2 O5 1_555 1_555
O7 Ni2 1_555 1_555
O8 Ni2 1_555 1_555
N8 C19 1_555 1_555
N5 C24 1_555 1_555
N6 C31 1_555 1_555
C19 H11 1_555 1_555
C20 C19 1_555 1_555
H12 C20 1_555 1_555
C21 C20 1_555 1_555
C22 C21 1_555 1_555
H13 C22 1_555 1_555
C23 N8 1_555 1_555
H14 C23 1_555 1_555
C24 C21 1_555 1_555
C25 C24 1_555 1_555
H15 C25 1_555 1_555
C26 C25 1_555 1_555
C27 C26 1_555 1_555
H16 C27 1_555 1_555
C28 N5 1_555 1_555
C29 C28 1_555 1_555
C30 C29 1_555 1_555
H17 C30 1_555 1_555
C31 C30 1_555 1_555
H18 C31 1_555 1_555
C32 N6 1_555 1_555
H19 C32 1_555 1_555
C33 C29 1_555 1_555
H20 C33 1_555 1_555
C34 O7 1_555 1_555
Ni4 N6 1_555 1_555
N9 Ni2 1_555 1_555
C17_2 C18_2 1_555 1_555
O6 Ni2 1_555 1_555
O8 C34 1_555 1_555
C22 C23 1_555 1_555
C26 C34 1_555 1_555
C27 C28 1_555 1_555
C32 C33 1_555 1_555
N9 C13_2 1_555 1_555
H7_2 C12_2 1_555 1_555
C13_2 C12_2 1_555 1_555
H8_2 C13_2 1_555 1_555
C14_2 N9 1_555 1_555
H9_2 C14_2 1_555 1_555
N10 C31_2 1_555 1_555
H17_2 C30_2 1_555 1_555
C31_2 C30_2 1_555 1_555
H18_2 C31_2 1_555 1_555
C32_2 N10 1_555 1_555
H19_2 C32_2 1_555 1_555
Ni4 O1_2 1_555 1_555
O1_2 C16_2 1_555 1_555
O2_2 Ni4 1_555 1_555
O3_2 Ni4 1_555 1_555
O4_2 Ni4 1_555 1_555
N7_2 C1_2 1_555 1_555
N2_2 C6_2 1_555 1_555
C1_2 H1_2 1_555 1_555
C2_2 C1_2 1_555 1_555
H2_2 C2_2 1_555 1_555
C3_2 C2_2 1_555 1_555
C4_2 C3_2 1_555 1_555
H3_2 C4_2 1_555 1_555
C5_2 N7_2 1_555 1_555
H4_2 C5_2 1_555 1_555
C6_2 C3_2 1_555 1_555
C7_2 C6_2 1_555 1_555
H5_2 C7_2 1_555 1_555
C8_2 C7_2 1_555 1_555
C9_2 C8_2 1_555 1_555
H6_2 C9_2 1_555 1_555
C10_2 N2_2 1_555 1_555
C11_2 C10_2 1_555 1_555
C15_2 C11_2 1_555 1_555
H10_2 C15_2 1_555 1_555
C16_2 O2_2 1_555 1_555
C17_3 O4_2 1_555 1_555
C18_3 O3_2 1_555 1_555
O5_2 C18_3 1_555 1_555
O6_2 C17_3 1_555 1_555
Ni6 O5_2 1_555 1_555
O7_2 Ni6 1_555 1_555
O8_2 Ni6 1_555 1_555
N8_2 C19_2 1_555 1_555
N5_2 C24_2 1_555 1_555
C19_2 H11_2 1_555 1_555
C20_2 C19_2 1_555 1_555
H12_2 C20_2 1_555 1_555
C21_2 C20_2 1_555 1_555
C22_2 C21_2 1_555 1_555
H13_2 C22_2 1_555 1_555
C23_2 N8_2 1_555 1_555
H14_2 C23_2 1_555 1_555
C24_2 C21_2 1_555 1_555
C25_2 C24_2 1_555 1_555
H15_2 C25_2 1_555 1_555
C26_2 C25_2 1_555 1_555
C27_2 C26_2 1_555 1_555
H16_2 C27_2 1_555 1_555
C28_2 N5_2 1_555 1_555
C29_2 C28_2 1_555 1_555
C33_2 C29_2 1_555 1_555
H20_2 C33_2 1_555 1_555
C34_2 O7_2 1_555 1_555
C4_2 C5_2 1_555 1_555
C8_2 C16_2 1_555 1_555
C9_2 C10_2 1_555 1_555
C17_3 C18_3 1_555 1_555
O6_2 Ni6 1_555 1_555
O8_2 C34_2 1_555 1_555
C22_2 C23_2 1_555 1_555
C26_2 C34_2 1_555 1_555
C27_2 C28_2 1_555 1_555
Ni3 O1_3 1_555 1_555
O1_3 C16_3 1_555 1_555
O2_3 Ni3 1_555 1_555
O3_3 Ni3 1_555 1_555
O4_3 Ni3 1_555 1_555
N1 C1_3 1_555 1_555
N2_3 C6_3 1_555 1_555
N3_2 C13_3 1_555 1_555
C1_3 H1_3 1_555 1_555
C2_3 C1_3 1_555 1_555
H2_3 C2_3 1_555 1_555
C3_3 C2_3 1_555 1_555
C4_3 C3_3 1_555 1_555
H3_3 C4_3 1_555 1_555
C5_3 N1 1_555 1_555
H4_3 C5_3 1_555 1_555
C6_3 C3_3 1_555 1_555
C7_3 C6_3 1_555 1_555
H5_3 C7_3 1_555 1_555
C8_3 C7_3 1_555 1_555
C9_3 C8_3 1_555 1_555
H6_3 C9_3 1_555 1_555
C10_3 N2_3 1_555 1_555
C11_3 C10_3 1_555 1_555
C12_3 C11_3 1_555 1_555
H7_3 C12_3 1_555 1_555
C13_3 C12_3 1_555 1_555
H8_3 C13_3 1_555 1_555
C14_3 N3_2 1_555 1_555
H9_3 C14_3 1_555 1_555
C15_3 C11_3 1_555 1_555
H10_3 C15_3 1_555 1_555
C16_3 O2_3 1_555 1_555
C17_4 O4_3 1_555 1_555
C18_4 O3_3 1_555 1_555
Ni6_2 N3_2 1_555 1_555
N10_2 Ni3 1_555 1_555
C4_3 C5_3 1_555 1_555
C8_3 C16_3 1_555 1_555
C9_3 C10_3 1_555 1_555
C14_3 C15_3 1_555 1_555
C17_4 C18_4 1_555 1_555
O5_3 C18_5 1_555 1_555
O6_3 C17_5 1_555 1_555
Ni5 O5_3 1_555 1_555
O7_3 Ni5 1_555 1_555
O8_3 Ni5 1_555 1_555
N4 C19_3 1_555 1_555
N5_3 C24_3 1_555 1_555
N6_2 C31_3 1_555 1_555
C19_3 H11_3 1_555 1_555
C20_3 C19_3 1_555 1_555
H12_3 C20_3 1_555 1_555
C21_3 C20_3 1_555 1_555
C22_3 C21_3 1_555 1_555
H13_3 C22_3 1_555 1_555
C23_3 N4 1_555 1_555
H14_3 C23_3 1_555 1_555
C24_3 C21_3 1_555 1_555
C25_3 C24_3 1_555 1_555
H15_3 C25_3 1_555 1_555
C26_3 C25_3 1_555 1_555
C27_3 C26_3 1_555 1_555
H16_3 C27_3 1_555 1_555
C28_3 N5_3 1_555 1_555
C29_3 C28_3 1_555 1_555
C30_3 C29_3 1_555 1_555
H17_3 C30_3 1_555 1_555
C31_3 C30_3 1_555 1_555
H18_3 C31_3 1_555 1_555
C32_3 N6_2 1_555 1_555
H19_3 C32_3 1_555 1_555
C33_3 C29_3 1_555 1_555
H20_3 C33_3 1_555 1_555
C34_3 O7_3 1_555 1_555
Ni4_2 N6_2 1_555 1_555
N9_2 Ni5 1_555 1_555
C17_5 C18_5 1_555 1_555
O6_3 Ni5 1_555 1_555
O8_3 C34_3 1_555 1_555
C22_3 C23_3 1_555 1_555
C26_3 C34_3 1_555 1_555
C27_3 C28_3 1_555 1_555
C32_3 C33_3 1_555 1_555
Ni4_2 O1_4 1_555 1_555
O1_4 C16_4 1_555 1_555
O2_4 Ni4_2 1_555 1_555
O3_4 Ni4_2 1_555 1_555
O4_4 Ni4_2 1_555 1_555
N1_2 C1_4 1_555 1_555
N2_4 C6_4 1_555 1_555
C1_4 H1_4 1_555 1_555
C2_4 C1_4 1_555 1_555
H2_4 C2_4 1_555 1_555
C3_4 C2_4 1_555 1_555
C4_4 C3_4 1_555 1_555
H3_4 C4_4 1_555 1_555
C5_4 N1_2 1_555 1_555
H4_4 C5_4 1_555 1_555
C6_4 C3_4 1_555 1_555
C7_4 C6_4 1_555 1_555
H5_4 C7_4 1_555 1_555
C8_4 C7_4 1_555 1_555
C9_4 C8_4 1_555 1_555
H6_4 C9_4 1_555 1_555
C10_4 N2_4 1_555 1_555
C11_4 C10_4 1_555 1_555
C15_4 C11_4 1_555 1_555
H10_4 C15_4 1_555 1_555
C16_4 O2_4 1_555 1_555
C17_6 O4_4 1_555 1_555
C18_6 O3_4 1_555 1_555
O5_4 C18_6 1_555 1_555
O6_4 C17_6 1_555 1_555
Ni6_2 O5_4 1_555 1_555
O7_4 Ni6_2 1_555 1_555
O8_4 Ni6_2 1_555 1_555
N4_2 C19_4 1_555 1_555
N5_4 C24_4 1_555 1_555
C19_4 H11_4 1_555 1_555
C20_4 C19_4 1_555 1_555
H12_4 C20_4 1_555 1_555
C21_4 C20_4 1_555 1_555
C22_4 C21_4 1_555 1_555
H13_4 C22_4 1_555 1_555
C23_4 N4_2 1_555 1_555
H14_4 C23_4 1_555 1_555
C24_4 C21_4 1_555 1_555
C25_4 C24_4 1_555 1_555
H15_4 C25_4 1_555 1_555
C26_4 C25_4 1_555 1_555
C27_4 C26_4 1_555 1_555
H16_4 C27_4 1_555 1_555
C28_4 N5_4 1_555 1_555
C29_4 C28_4 1_555 1_555
C33_4 C29_4 1_555 1_555
H20_4 C33_4 1_555 1_555
C34_4 O7_4 1_555 1_555
C4_4 C5_4 1_555 1_555
C8_4 C16_4 1_555 1_555
C9_4 C10_4 1_555 1_555
C17_6 C18_6 1_555 1_555
O6_4 Ni6_2 1_555 1_555
O8_4 C34_4 1_555 1_555
C22_4 C23_4 1_555 1_555
C26_4 C34_4 1_555 1_555
C27_4 C28_4 1_555 1_555
N9_2 C13_4 1_555 1_555
H7_4 C12_4 1_555 1_555
C13_4 C12_4 1_555 1_555
H8_4 C13_4 1_555 1_555
C14_4 N9_2 1_555 1_555
H9_4 C14_4 1_555 1_555
N10_2 C31_4 1_555 1_555
H17_4 C30_4 1_555 1_555
C31_4 C30_4 1_555 1_555
H18_4 C31_4 1_555 1_555
C32_4 N10_2 1_555 1_555
H19_4 C32_4 1_555 1_555

#END
