
###############################################################################
#
# This file contains modified crystal structure data generated from the
# MOF subset of the Cambridge Structural Database (CSD) v543 
# hosted by the Cambridge Crystallographic Data Centre (CCDC).
#
# This work is licensed under the Creative Commons
# Attribution-NonCommercial-ShareAlike 4.0 International License.
# To view a copy of this license, visit
# http://creativecommons.org/licenses/by-nc-sa/4.0/
# or send a letter to
# Creative Commons, PO Box 1866, Mountain View, CA 94042, USA.
#
# CIF created using the CSD Python API on 29 September 2022
# The structure has been converted into the P1 space group
# The structure has a 3D framework
# The original CSD entry YINSUL01 is in the monoclinic crystal system
# The framework has been calculated to contain at least 10.0% void space
# The void calculation uses a probe of radius 1.32A, grid spacing 0.4
#
###############################################################################

data_YINSUL01
_chemical_formula_moiety         '(C140 H80 N24 Ni8 O32)n'
_symmetry_cell_setting           triclinic
_symmetry_space_group_name_H-M   'P 1'
_symmetry_Int_Tables_number      1
_space_group_name_Hall           'P 1'
loop_
_symmetry_equiv_pos_site_id
_symmetry_equiv_pos_as_xyz
1 x,y,z
_cell_length_a                   19.513(3)
_cell_length_b                   22.317(3)
_cell_length_c                   11.6320(15)
_cell_angle_alpha                90
_cell_angle_beta                 116.608(18)
_cell_angle_gamma                90
_cell_volume                     4528.94
loop_
_atom_site_label
_atom_site_type_symbol
_atom_site_fract_x
_atom_site_fract_y
_atom_site_fract_z
N7 N 0.21776(15) 0.13630(13) 0.0819(2)
Ni1 Ni 0.18806(3) 0.11843(2) 0.89204(4)
O1 O 0.18841(13) 0.12070(11) 0.7064(2)
O2 O 0.26797(14) 0.17531(11) 0.86915(19)
O3 O 0.26565(11) 0.04991(10) 0.9448(2)
O4 O 0.11438(11) 0.04991(10) 0.8697(2)
N2 N 0.36043(16) 0.20716(14) 0.5351(2)
N3 N 0.59662(15) 0.32234(12) 0.8203(2)
C1 C 0.1760(2) 0.12399(18) 0.1395(3)
H1 H 0.1289 0.1055 0.0918
C2 C 0.1973(2) 0.1368(2) 0.2690(3)
H2 H 0.1641 0.1282 0.3044
C3 C 0.26682(18) 0.16174(15) 0.3423(3)
C4 C 0.3108(2) 0.1754(2) 0.2813(3)
H3 H 0.3579 0.1942 0.3261
C5 C 0.2847(2) 0.1612(2) 0.1529(3)
H4 H 0.3164 0.1697 0.1145
C6 C 0.29479(18) 0.17642(15) 0.4814(3)
C7 C 0.25599(19) 0.15805(16) 0.5503(3)
H5 H 0.2108 0.1362 0.5104
C8 C 0.28574(18) 0.17278(15) 0.6798(3)
C9 C 0.3543(2) 0.20358(16) 0.7365(3)
H6 H 0.3762 0.2132 0.8234
C10 C 0.3900(2) 0.21990(16) 0.6609(3)
C11 C 0.46258(19) 0.25387(16) 0.7162(3)
C12 C 0.5216(2) 0.24120(18) 0.8352(3)
H7 H 0.5170 0.2096 0.8835
C13 C 0.5877(2) 0.27548(17) 0.8829(3)
H8 H 0.6276 0.2653 0.9621
C14 C 0.5399(2) 0.33432(19) 0.7045(3)
H9 H 0.5456 0.3667 0.6593
C15 C 0.4734(2) 0.30146(19) 0.6483(3)
H10 H 0.4361 0.3108 0.5661
C16 C 0.24452(18) 0.15521(15) 0.7573(3)
C17 C 0.1463(2) 0.0000 0.8844(4)
C18 C 0.2340(2) 0.0000 0.9276(4)
Ni6 Ni 0.68806(3) 0.38157(2) 0.89204(4)
N10 N 0.09662(15) 0.17766(12) 0.8203(2)
N8 N 0.21776(15) 0.86370(13) 0.0819(2)
C17_2 C 0.1463(2) 1.0000 0.8844(4)
C18_2 C 0.2340(2) 1.0000 0.9276(4)
O5 O 0.26565(11) 0.95009(10) 0.9448(2)
O6 O 0.11438(11) 0.95009(10) 0.8697(2)
Ni2 Ni 0.18806(3) 0.88157(2) 0.89204(4)
O7 O 0.18841(13) 0.87930(11) 0.7064(2)
O8 O 0.26797(14) 0.82469(11) 0.86915(19)
N5 N 0.36043(16) 0.79284(14) 0.5351(2)
N6 N 0.59662(15) 0.67766(12) 0.8203(2)
C19 C 0.1760(2) 0.87601(18) 0.1395(3)
H11 H 0.1289 0.8945 0.0918
C20 C 0.1973(2) 0.8632(2) 0.2690(3)
H12 H 0.1641 0.8718 0.3044
C21 C 0.26682(18) 0.83826(15) 0.3423(3)
C22 C 0.3108(2) 0.8246(2) 0.2813(3)
H13 H 0.3579 0.8058 0.3261
C23 C 0.2847(2) 0.8388(2) 0.1529(3)
H14 H 0.3164 0.8303 0.1145
C24 C 0.29479(18) 0.82358(15) 0.4814(3)
C25 C 0.25599(19) 0.84195(16) 0.5503(3)
H15 H 0.2108 0.8638 0.5104
C26 C 0.28574(18) 0.82722(15) 0.6798(3)
C27 C 0.3543(2) 0.79642(16) 0.7365(3)
H16 H 0.3762 0.7868 0.8234
C28 C 0.3900(2) 0.78010(16) 0.6609(3)
C29 C 0.46258(19) 0.74613(16) 0.7162(3)
C30 C 0.5216(2) 0.75880(18) 0.8352(3)
H17 H 0.5170 0.7904 0.8835
C31 C 0.5877(2) 0.72452(17) 0.8829(3)
H18 H 0.6276 0.7347 0.9621
C32 C 0.5399(2) 0.66568(19) 0.7045(3)
H19 H 0.5456 0.6333 0.6593
C33 C 0.4734(2) 0.69854(19) 0.6483(3)
H20 H 0.4361 0.6892 0.5661
C34 C 0.24452(18) 0.84479(15) 0.7573(3)
Ni4 Ni 0.68806(3) 0.61843(2) 0.89204(4)
N9 N 0.09662(15) 0.82234(12) 0.8203(2)
C12_2 C 0.0216(2) 0.74120(18) 0.8352(3)
H7_2 H 0.0170 0.7096 0.8835
C13_2 C 0.0877(2) 0.77548(17) 0.8829(3)
H8_2 H 0.1276 0.7653 0.9621
C14_2 C 0.0399(2) 0.83432(19) 0.7045(3)
H9_2 H 0.0456 0.8667 0.6593
C30_2 C 0.0216(2) 0.25880(18) 0.8352(3)
H17_2 H 0.0170 0.2904 0.8835
C31_2 C 0.0877(2) 0.22452(17) 0.8829(3)
H18_2 H 0.1276 0.2347 0.9621
C32_2 C 0.0399(2) 0.16568(19) 0.7045(3)
H19_2 H 0.0456 0.1333 0.6593
N7_2 N 0.71776(15) 0.63630(13) 0.0819(2)
N8_2 N 0.71776(15) 0.36370(13) 0.0819(2)
O1_2 O 0.68841(13) 0.62070(11) 0.7064(2)
O2_2 O 0.76797(14) 0.67531(11) 0.86915(19)
O3_2 O 0.76565(11) 0.54991(10) 0.9448(2)
O4_2 O 0.61438(11) 0.54991(10) 0.8697(2)
N2_2 N 0.86043(16) 0.70716(14) 0.5351(2)
C1_2 C 0.6760(2) 0.62399(18) 0.1395(3)
H1_2 H 0.6289 0.6055 0.0918
C2_2 C 0.6973(2) 0.6368(2) 0.2690(3)
H2_2 H 0.6641 0.6282 0.3044
C3_2 C 0.76682(18) 0.66174(15) 0.3423(3)
C4_2 C 0.8108(2) 0.6754(2) 0.2813(3)
H3_2 H 0.8579 0.6942 0.3261
C5_2 C 0.7847(2) 0.6612(2) 0.1529(3)
H4_2 H 0.8164 0.6697 0.1145
C6_2 C 0.79479(18) 0.67642(15) 0.4814(3)
C7_2 C 0.75599(19) 0.65805(16) 0.5503(3)
H5_2 H 0.7108 0.6362 0.5104
C8_2 C 0.78574(18) 0.67278(15) 0.6798(3)
C9_2 C 0.8543(2) 0.70358(16) 0.7365(3)
H6_2 H 0.8762 0.7132 0.8234
C10_2 C 0.8900(2) 0.71990(16) 0.6609(3)
C11_2 C 0.96258(19) 0.75387(16) 0.7162(3)
C15_2 C 0.9734(2) 0.80146(19) 0.6483(3)
H10_2 H 0.9361 0.8108 0.5661
C16_2 C 0.74452(18) 0.65521(15) 0.7573(3)
C17_3 C 0.6463(2) 0.5000 0.8844(4)
C18_3 C 0.7340(2) 0.5000 0.9276(4)
O5_2 O 0.76565(11) 0.45009(10) 0.9448(2)
O6_2 O 0.61438(11) 0.45009(10) 0.8697(2)
O7_2 O 0.68841(13) 0.37930(11) 0.7064(2)
O8_2 O 0.76797(14) 0.32469(11) 0.86915(19)
N5_2 N 0.86043(16) 0.29284(14) 0.5351(2)
C19_2 C 0.6760(2) 0.37601(18) 0.1395(3)
H11_2 H 0.6289 0.3945 0.0918
C20_2 C 0.6973(2) 0.3632(2) 0.2690(3)
H12_2 H 0.6641 0.3718 0.3044
C21_2 C 0.76682(18) 0.33826(15) 0.3423(3)
C22_2 C 0.8108(2) 0.3246(2) 0.2813(3)
H13_2 H 0.8579 0.3058 0.3261
C23_2 C 0.7847(2) 0.3388(2) 0.1529(3)
H14_2 H 0.8164 0.3303 0.1145
C24_2 C 0.79479(18) 0.32358(15) 0.4814(3)
C25_2 C 0.75599(19) 0.34195(16) 0.5503(3)
H15_2 H 0.7108 0.3638 0.5104
C26_2 C 0.78574(18) 0.32722(15) 0.6798(3)
C27_2 C 0.8543(2) 0.29642(16) 0.7365(3)
H16_2 H 0.8762 0.2868 0.8234
C28_2 C 0.8900(2) 0.28010(16) 0.6609(3)
C29_2 C 0.96258(19) 0.24613(16) 0.7162(3)
C33_2 C 0.9734(2) 0.19854(19) 0.6483(3)
H20_2 H 0.9361 0.1892 0.5661
C34_2 C 0.74452(18) 0.34479(15) 0.7573(3)
Ni3 Ni 0.81194(3) 0.11843(2) 0.10796(4)
O1_3 O 0.81159(13) 0.12070(11) 0.2936(2)
O2_3 O 0.73203(14) 0.17531(11) 0.13085(19)
O3_3 O 0.73435(11) 0.04991(10) 0.0552(2)
O4_3 O 0.88562(11) 0.04991(10) 0.1303(2)
N1 N 0.78224(15) 0.13630(13) 0.9181(2)
N2_3 N 0.63957(16) 0.20716(14) 0.4649(2)
N3_2 N 0.40338(15) 0.32234(12) 0.1797(2)
C1_3 C 0.8240(2) 0.12399(18) 0.8605(3)
H1_3 H 0.8711 0.1055 0.9082
C2_3 C 0.8027(2) 0.1368(2) 0.7310(3)
H2_3 H 0.8359 0.1282 0.6956
C3_3 C 0.73318(18) 0.16174(15) 0.6577(3)
C4_3 C 0.6892(2) 0.1754(2) 0.7187(3)
H3_3 H 0.6421 0.1942 0.6739
C5_3 C 0.7153(2) 0.1612(2) 0.8471(3)
H4_3 H 0.6836 0.1697 0.8855
C6_3 C 0.70521(18) 0.17642(15) 0.5186(3)
C7_3 C 0.74401(19) 0.15805(16) 0.4497(3)
H5_3 H 0.7892 0.1362 0.4896
C8_3 C 0.71426(18) 0.17278(15) 0.3202(3)
C9_3 C 0.6457(2) 0.20358(16) 0.2635(3)
H6_3 H 0.6238 0.2132 0.1766
C10_3 C 0.6100(2) 0.21990(16) 0.3391(3)
C11_3 C 0.53742(19) 0.25387(16) 0.2838(3)
C12_3 C 0.4784(2) 0.24120(18) 0.1648(3)
H7_3 H 0.4830 0.2096 0.1165
C13_3 C 0.4123(2) 0.27548(17) 0.1171(3)
H8_3 H 0.3724 0.2653 0.0379
C14_3 C 0.4601(2) 0.33432(19) 0.2955(3)
H9_3 H 0.4544 0.3667 0.3407
C15_3 C 0.5266(2) 0.30146(19) 0.3517(3)
H10_3 H 0.5639 0.3108 0.4339
C16_3 C 0.75548(18) 0.15521(15) 0.2427(3)
C17_4 C 0.8537(2) 0.0000 0.1156(4)
C18_4 C 0.7660(2) 0.0000 0.0724(4)
Ni6_2 Ni 0.31194(3) 0.38157(2) 0.10796(4)
N10_2 N 0.90338(15) 0.17766(12) 0.1797(2)
Ni5 Ni 0.81194(3) 0.88157(2) 0.10796(4)
C17_5 C 0.8537(2) 1.0000 0.1156(4)
C18_5 C 0.7660(2) 1.0000 0.0724(4)
O5_3 O 0.73435(11) 0.95009(10) 0.0552(2)
O6_3 O 0.88562(11) 0.95009(10) 0.1303(2)
O7_3 O 0.81159(13) 0.87930(11) 0.2936(2)
O8_3 O 0.73203(14) 0.82469(11) 0.13085(19)
N4 N 0.78224(15) 0.86370(13) 0.9181(2)
N5_3 N 0.63957(16) 0.79284(14) 0.4649(2)
N6_2 N 0.40338(15) 0.67766(12) 0.1797(2)
C19_3 C 0.8240(2) 0.87601(18) 0.8605(3)
H11_3 H 0.8711 0.8945 0.9082
C20_3 C 0.8027(2) 0.8632(2) 0.7310(3)
H12_3 H 0.8359 0.8718 0.6956
C21_3 C 0.73318(18) 0.83826(15) 0.6577(3)
C22_3 C 0.6892(2) 0.8246(2) 0.7187(3)
H13_3 H 0.6421 0.8058 0.6739
C23_3 C 0.7153(2) 0.8388(2) 0.8471(3)
H14_3 H 0.6836 0.8303 0.8855
C24_3 C 0.70521(18) 0.82358(15) 0.5186(3)
C25_3 C 0.74401(19) 0.84195(16) 0.4497(3)
H15_3 H 0.7892 0.8638 0.4896
C26_3 C 0.71426(18) 0.82722(15) 0.3202(3)
C27_3 C 0.6457(2) 0.79642(16) 0.2635(3)
H16_3 H 0.6238 0.7868 0.1766
C28_3 C 0.6100(2) 0.78010(16) 0.3391(3)
C29_3 C 0.53742(19) 0.74613(16) 0.2838(3)
C30_3 C 0.4784(2) 0.75880(18) 0.1648(3)
H17_3 H 0.4830 0.7904 0.1165
C31_3 C 0.4123(2) 0.72452(17) 0.1171(3)
H18_3 H 0.3724 0.7347 0.0379
C32_3 C 0.4601(2) 0.66568(19) 0.2955(3)
H19_3 H 0.4544 0.6333 0.3407
C33_3 C 0.5266(2) 0.69854(19) 0.3517(3)
H20_3 H 0.5639 0.6892 0.4339
C34_3 C 0.75548(18) 0.84479(15) 0.2427(3)
Ni4_2 Ni 0.31194(3) 0.61843(2) 0.10796(4)
N9_2 N 0.90338(15) 0.82234(12) 0.1797(2)
O1_4 O 0.31159(13) 0.62070(11) 0.2936(2)
O2_4 O 0.23203(14) 0.67531(11) 0.13085(19)
O3_4 O 0.23435(11) 0.54991(10) 0.0552(2)
O4_4 O 0.38562(11) 0.54991(10) 0.1303(2)
N1_2 N 0.28224(15) 0.63630(13) 0.9181(2)
N2_4 N 0.13957(16) 0.70716(14) 0.4649(2)
C1_4 C 0.3240(2) 0.62399(18) 0.8605(3)
H1_4 H 0.3711 0.6055 0.9082
C2_4 C 0.3027(2) 0.6368(2) 0.7310(3)
H2_4 H 0.3359 0.6282 0.6956
C3_4 C 0.23318(18) 0.66174(15) 0.6577(3)
C4_4 C 0.1892(2) 0.6754(2) 0.7187(3)
H3_4 H 0.1421 0.6942 0.6739
C5_4 C 0.2153(2) 0.6612(2) 0.8471(3)
H4_4 H 0.1836 0.6697 0.8855
C6_4 C 0.20521(18) 0.67642(15) 0.5186(3)
C7_4 C 0.24401(19) 0.65805(16) 0.4497(3)
H5_4 H 0.2892 0.6362 0.4896
C8_4 C 0.21426(18) 0.67278(15) 0.3202(3)
C9_4 C 0.1457(2) 0.70358(16) 0.2635(3)
H6_4 H 0.1238 0.7132 0.1766
C10_4 C 0.1100(2) 0.71990(16) 0.3391(3)
C11_4 C 0.03742(19) 0.75387(16) 0.2838(3)
C15_4 C 0.0266(2) 0.80146(19) 0.3517(3)
H10_4 H 0.0639 0.8108 0.4339
C16_4 C 0.25548(18) 0.65521(15) 0.2427(3)
C17_6 C 0.3537(2) 0.5000 0.1156(4)
C18_6 C 0.2660(2) 0.5000 0.0724(4)
O5_4 O 0.23435(11) 0.45009(10) 0.0552(2)
O6_4 O 0.38562(11) 0.45009(10) 0.1303(2)
O7_4 O 0.31159(13) 0.37930(11) 0.2936(2)
O8_4 O 0.23203(14) 0.32469(11) 0.13085(19)
N4_2 N 0.28224(15) 0.36370(13) 0.9181(2)
N5_4 N 0.13957(16) 0.29284(14) 0.4649(2)
C19_4 C 0.3240(2) 0.37601(18) 0.8605(3)
H11_4 H 0.3711 0.3945 0.9082
C20_4 C 0.3027(2) 0.3632(2) 0.7310(3)
H12_4 H 0.3359 0.3718 0.6956
C21_4 C 0.23318(18) 0.33826(15) 0.6577(3)
C22_4 C 0.1892(2) 0.3246(2) 0.7187(3)
H13_4 H 0.1421 0.3058 0.6739
C23_4 C 0.2153(2) 0.3388(2) 0.8471(3)
H14_4 H 0.1836 0.3303 0.8855
C24_4 C 0.20521(18) 0.32358(15) 0.5186(3)
C25_4 C 0.24401(19) 0.34195(16) 0.4497(3)
H15_4 H 0.2892 0.3638 0.4896
C26_4 C 0.21426(18) 0.32722(15) 0.3202(3)
C27_4 C 0.1457(2) 0.29642(16) 0.2635(3)
H16_4 H 0.1238 0.2868 0.1766
C28_4 C 0.1100(2) 0.28010(16) 0.3391(3)
C29_4 C 0.03742(19) 0.24613(16) 0.2838(3)
C33_4 C 0.0266(2) 0.19854(19) 0.3517(3)
H20_4 H 0.0639 0.1892 0.4339
C34_4 C 0.25548(18) 0.34479(15) 0.2427(3)
C12_4 C 0.9784(2) 0.74120(18) 0.1648(3)
H7_4 H 0.9830 0.7096 0.1165
C13_4 C 0.9123(2) 0.77548(17) 0.1171(3)
H8_4 H 0.8724 0.7653 0.0379
C14_4 C 0.9601(2) 0.83432(19) 0.2955(3)
H9_4 H 0.9544 0.8667 0.3407
C30_4 C 0.9784(2) 0.25880(18) 0.1648(3)
H17_4 H 0.9830 0.2904 0.1165
C31_4 C 0.9123(2) 0.22452(17) 0.1171(3)
H18_4 H 0.8724 0.2347 0.0379
C32_4 C 0.9601(2) 0.16568(19) 0.2955(3)
H19_4 H 0.9544 0.1333 0.3407
loop_
_geom_bond_atom_site_label_1
_geom_bond_atom_site_label_2
_geom_bond_site_symmetry_1
_geom_bond_site_symmetry_2
Ni1 O1 1_555 1_555
O1 C16 1_555 1_555
O2 Ni1 1_555 1_555
O3 Ni1 1_555 1_555
O4 Ni1 1_555 1_555
N7 C1 1_555 1_555
N2 C6 1_555 1_555
N3 C13 1_555 1_555
C1 H1 1_555 1_555
C2 C1 1_555 1_555
H2 C2 1_555 1_555
C3 C2 1_555 1_555
C4 C3 1_555 1_555
H3 C4 1_555 1_555
C5 N7 1_555 1_555
H4 C5 1_555 1_555
C6 C3 1_555 1_555
C7 C6 1_555 1_555
H5 C7 1_555 1_555
C8 C7 1_555 1_555
C9 C8 1_555 1_555
H6 C9 1_555 1_555
C10 N2 1_555 1_555
C11 C10 1_555 1_555
C12 C11 1_555 1_555
H7 C12 1_555 1_555
C13 C12 1_555 1_555
H8 C13 1_555 1_555
C14 N3 1_555 1_555
H9 C14 1_555 1_555
C15 C11 1_555 1_555
H10 C15 1_555 1_555
C16 O2 1_555 1_555
C17 O4 1_555 1_555
C18 O3 1_555 1_555
Ni6 N3 1_555 1_555
N10 Ni1 1_555 1_555
C4 C5 1_555 1_555
C8 C16 1_555 1_555
C9 C10 1_555 1_555
C14 C15 1_555 1_555
C17 C18 1_555 1_555
O5 C18_2 1_555 1_555
O6 C17_2 1_555 1_555
Ni2 O5 1_555 1_555
O7 Ni2 1_555 1_555
O8 Ni2 1_555 1_555
N8 C19 1_555 1_555
N5 C24 1_555 1_555
N6 C31 1_555 1_555
C19 H11 1_555 1_555
C20 C19 1_555 1_555
H12 C20 1_555 1_555
C21 C20 1_555 1_555
C22 C21 1_555 1_555
H13 C22 1_555 1_555
C23 N8 1_555 1_555
H14 C23 1_555 1_555
C24 C21 1_555 1_555
C25 C24 1_555 1_555
H15 C25 1_555 1_555
C26 C25 1_555 1_555
C27 C26 1_555 1_555
H16 C27 1_555 1_555
C28 N5 1_555 1_555
C29 C28 1_555 1_555
C30 C29 1_555 1_555
H17 C30 1_555 1_555
C31 C30 1_555 1_555
H18 C31 1_555 1_555
C32 N6 1_555 1_555
H19 C32 1_555 1_555
C33 C29 1_555 1_555
H20 C33 1_555 1_555
C34 O7 1_555 1_555
Ni4 N6 1_555 1_555
N9 Ni2 1_555 1_555
C17_2 C18_2 1_555 1_555
O6 Ni2 1_555 1_555
O8 C34 1_555 1_555
C22 C23 1_555 1_555
C26 C34 1_555 1_555
C27 C28 1_555 1_555
C32 C33 1_555 1_555
N9 C13_2 1_555 1_555
H7_2 C12_2 1_555 1_555
C13_2 C12_2 1_555 1_555
H8_2 C13_2 1_555 1_555
C14_2 N9 1_555 1_555
H9_2 C14_2 1_555 1_555
N10 C31_2 1_555 1_555
H17_2 C30_2 1_555 1_555
C31_2 C30_2 1_555 1_555
H18_2 C31_2 1_555 1_555
C32_2 N10 1_555 1_555
H19_2 C32_2 1_555 1_555
Ni4 O1_2 1_555 1_555
O1_2 C16_2 1_555 1_555
O2_2 Ni4 1_555 1_555
O3_2 Ni4 1_555 1_555
O4_2 Ni4 1_555 1_555
N7_2 C1_2 1_555 1_555
N2_2 C6_2 1_555 1_555
C1_2 H1_2 1_555 1_555
C2_2 C1_2 1_555 1_555
H2_2 C2_2 1_555 1_555
C3_2 C2_2 1_555 1_555
C4_2 C3_2 1_555 1_555
H3_2 C4_2 1_555 1_555
C5_2 N7_2 1_555 1_555
H4_2 C5_2 1_555 1_555
C6_2 C3_2 1_555 1_555
C7_2 C6_2 1_555 1_555
H5_2 C7_2 1_555 1_555
C8_2 C7_2 1_555 1_555
C9_2 C8_2 1_555 1_555
H6_2 C9_2 1_555 1_555
C10_2 N2_2 1_555 1_555
C11_2 C10_2 1_555 1_555
C15_2 C11_2 1_555 1_555
H10_2 C15_2 1_555 1_555
C16_2 O2_2 1_555 1_555
C17_3 O4_2 1_555 1_555
C18_3 O3_2 1_555 1_555
O5_2 C18_3 1_555 1_555
O6_2 C17_3 1_555 1_555
Ni6 O5_2 1_555 1_555
O7_2 Ni6 1_555 1_555
O8_2 Ni6 1_555 1_555
N8_2 C19_2 1_555 1_555
N5_2 C24_2 1_555 1_555
C19_2 H11_2 1_555 1_555
C20_2 C19_2 1_555 1_555
H12_2 C20_2 1_555 1_555
C21_2 C20_2 1_555 1_555
C22_2 C21_2 1_555 1_555
H13_2 C22_2 1_555 1_555
C23_2 N8_2 1_555 1_555
H14_2 C23_2 1_555 1_555
C24_2 C21_2 1_555 1_555
C25_2 C24_2 1_555 1_555
H15_2 C25_2 1_555 1_555
C26_2 C25_2 1_555 1_555
C27_2 C26_2 1_555 1_555
H16_2 C27_2 1_555 1_555
C28_2 N5_2 1_555 1_555
C29_2 C28_2 1_555 1_555
C33_2 C29_2 1_555 1_555
H20_2 C33_2 1_555 1_555
C34_2 O7_2 1_555 1_555
C4_2 C5_2 1_555 1_555
C8_2 C16_2 1_555 1_555
C9_2 C10_2 1_555 1_555
C17_3 C18_3 1_555 1_555
O6_2 Ni6 1_555 1_555
O8_2 C34_2 1_555 1_555
C22_2 C23_2 1_555 1_555
C26_2 C34_2 1_555 1_555
C27_2 C28_2 1_555 1_555
Ni3 O1_3 1_555 1_555
O1_3 C16_3 1_555 1_555
O2_3 Ni3 1_555 1_555
O3_3 Ni3 1_555 1_555
O4_3 Ni3 1_555 1_555
N1 C1_3 1_555 1_555
N2_3 C6_3 1_555 1_555
N3_2 C13_3 1_555 1_555
C1_3 H1_3 1_555 1_555
C2_3 C1_3 1_555 1_555
H2_3 C2_3 1_555 1_555
C3_3 C2_3 1_555 1_555
C4_3 C3_3 1_555 1_555
H3_3 C4_3 1_555 1_555
C5_3 N1 1_555 1_555
H4_3 C5_3 1_555 1_555
C6_3 C3_3 1_555 1_555
C7_3 C6_3 1_555 1_555
H5_3 C7_3 1_555 1_555
C8_3 C7_3 1_555 1_555
C9_3 C8_3 1_555 1_555
H6_3 C9_3 1_555 1_555
C10_3 N2_3 1_555 1_555
C11_3 C10_3 1_555 1_555
C12_3 C11_3 1_555 1_555
H7_3 C12_3 1_555 1_555
C13_3 C12_3 1_555 1_555
H8_3 C13_3 1_555 1_555
C14_3 N3_2 1_555 1_555
H9_3 C14_3 1_555 1_555
C15_3 C11_3 1_555 1_555
H10_3 C15_3 1_555 1_555
C16_3 O2_3 1_555 1_555
C17_4 O4_3 1_555 1_555
C18_4 O3_3 1_555 1_555
Ni6_2 N3_2 1_555 1_555
N10_2 Ni3 1_555 1_555
C4_3 C5_3 1_555 1_555
C8_3 C16_3 1_555 1_555
C9_3 C10_3 1_555 1_555
C14_3 C15_3 1_555 1_555
C17_4 C18_4 1_555 1_555
O5_3 C18_5 1_555 1_555
O6_3 C17_5 1_555 1_555
Ni5 O5_3 1_555 1_555
O7_3 Ni5 1_555 1_555
O8_3 Ni5 1_555 1_555
N4 C19_3 1_555 1_555
N5_3 C24_3 1_555 1_555
N6_2 C31_3 1_555 1_555
C19_3 H11_3 1_555 1_555
C20_3 C19_3 1_555 1_555
H12_3 C20_3 1_555 1_555
C21_3 C20_3 1_555 1_555
C22_3 C21_3 1_555 1_555
H13_3 C22_3 1_555 1_555
C23_3 N4 1_555 1_555
H14_3 C23_3 1_555 1_555
C24_3 C21_3 1_555 1_555
C25_3 C24_3 1_555 1_555
H15_3 C25_3 1_555 1_555
C26_3 C25_3 1_555 1_555
C27_3 C26_3 1_555 1_555
H16_3 C27_3 1_555 1_555
C28_3 N5_3 1_555 1_555
C29_3 C28_3 1_555 1_555
C30_3 C29_3 1_555 1_555
H17_3 C30_3 1_555 1_555
C31_3 C30_3 1_555 1_555
H18_3 C31_3 1_555 1_555
C32_3 N6_2 1_555 1_555
H19_3 C32_3 1_555 1_555
C33_3 C29_3 1_555 1_555
H20_3 C33_3 1_555 1_555
C34_3 O7_3 1_555 1_555
Ni4_2 N6_2 1_555 1_555
N9_2 Ni5 1_555 1_555
C17_5 C18_5 1_555 1_555
O6_3 Ni5 1_555 1_555
O8_3 C34_3 1_555 1_555
C22_3 C23_3 1_555 1_555
C26_3 C34_3 1_555 1_555
C27_3 C28_3 1_555 1_555
C32_3 C33_3 1_555 1_555
Ni4_2 O1_4 1_555 1_555
O1_4 C16_4 1_555 1_555
O2_4 Ni4_2 1_555 1_555
O3_4 Ni4_2 1_555 1_555
O4_4 Ni4_2 1_555 1_555
N1_2 C1_4 1_555 1_555
N2_4 C6_4 1_555 1_555
C1_4 H1_4 1_555 1_555
C2_4 C1_4 1_555 1_555
H2_4 C2_4 1_555 1_555
C3_4 C2_4 1_555 1_555
C4_4 C3_4 1_555 1_555
H3_4 C4_4 1_555 1_555
C5_4 N1_2 1_555 1_555
H4_4 C5_4 1_555 1_555
C6_4 C3_4 1_555 1_555
C7_4 C6_4 1_555 1_555
H5_4 C7_4 1_555 1_555
C8_4 C7_4 1_555 1_555
C9_4 C8_4 1_555 1_555
H6_4 C9_4 1_555 1_555
C10_4 N2_4 1_555 1_555
C11_4 C10_4 1_555 1_555
C15_4 C11_4 1_555 1_555
H10_4 C15_4 1_555 1_555
C16_4 O2_4 1_555 1_555
C17_6 O4_4 1_555 1_555
C18_6 O3_4 1_555 1_555
O5_4 C18_6 1_555 1_555
O6_4 C17_6 1_555 1_555
Ni6_2 O5_4 1_555 1_555
O7_4 Ni6_2 1_555 1_555
O8_4 Ni6_2 1_555 1_555
N4_2 C19_4 1_555 1_555
N5_4 C24_4 1_555 1_555
C19_4 H11_4 1_555 1_555
C20_4 C19_4 1_555 1_555
H12_4 C20_4 1_555 1_555
C21_4 C20_4 1_555 1_555
C22_4 C21_4 1_555 1_555
H13_4 C22_4 1_555 1_555
C23_4 N4_2 1_555 1_555
H14_4 C23_4 1_555 1_555
C24_4 C21_4 1_555 1_555
C25_4 C24_4 1_555 1_555
H15_4 C25_4 1_555 1_555
C26_4 C25_4 1_555 1_555
C27_4 C26_4 1_555 1_555
H16_4 C27_4 1_555 1_555
C28_4 N5_4 1_555 1_555
C29_4 C28_4 1_555 1_555
C33_4 C29_4 1_555 1_555
H20_4 C33_4 1_555 1_555
C34_4 O7_4 1_555 1_555
C4_4 C5_4 1_555 1_555
C8_4 C16_4 1_555 1_555
C9_4 C10_4 1_555 1_555
C17_6 C18_6 1_555 1_555
O6_4 Ni6_2 1_555 1_555
O8_4 C34_4 1_555 1_555
C22_4 C23_4 1_555 1_555
C26_4 C34_4 1_555 1_555
C27_4 C28_4 1_555 1_555
N9_2 C13_4 1_555 1_555
H7_4 C12_4 1_555 1_555
C13_4 C12_4 1_555 1_555
H8_4 C13_4 1_555 1_555
C14_4 N9_2 1_555 1_555
H9_4 C14_4 1_555 1_555
N10_2 C31_4 1_555 1_555
H17_4 C30_4 1_555 1_555
C31_4 C30_4 1_555 1_555
H18_4 C31_4 1_555 1_555
C32_4 N10_2 1_555 1_555
H19_4 C32_4 1_555 1_555

#END
