
###############################################################################
#
# This file contains modified crystal structure data generated from the
# MOF subset of the Cambridge Structural Database (CSD) v543 
# hosted by the Cambridge Crystallographic Data Centre (CCDC).
#
# This work is licensed under the Creative Commons
# Attribution-NonCommercial-ShareAlike 4.0 International License.
# To view a copy of this license, visit
# http://creativecommons.org/licenses/by-nc-sa/4.0/
# or send a letter to
# Creative Commons, PO Box 1866, Mountain View, CA 94042, USA.
#
# CIF created using the CSD Python API on 29 September 2022
# The structure has been converted into the P1 space group
# The structure has a 3D framework
# The original CSD entry YINSUL is in the monoclinic crystal system
# The framework has been calculated to contain at least 10.0% void space
# The void calculation uses a probe of radius 1.32A, grid spacing 0.4
#
###############################################################################

data_YINSUL
_chemical_formula_moiety         '(C140 H80 N24 Ni8 O32)n'
_symmetry_cell_setting           triclinic
_symmetry_space_group_name_H-M   'P 1'
_symmetry_Int_Tables_number      1
_space_group_name_Hall           'P 1'
loop_
_symmetry_equiv_pos_site_id
_symmetry_equiv_pos_as_xyz
1 x,y,z
_cell_length_a                   19.513(3)
_cell_length_b                   22.317(3)
_cell_length_c                   11.6320(15)
_cell_angle_alpha                90
_cell_angle_beta                 116.608(18)
_cell_angle_gamma                90
_cell_volume                     4528.94
loop_
_atom_site_label
_atom_site_type_symbol
_atom_site_fract_x
_atom_site_fract_y
_atom_site_fract_z
N7 N 0.2179(2) 0.13630(17) 0.0817(3)
Ni1 Ni 0.18805(4) 0.11842(3) 0.89204(6)
O1 O 0.18831(19) 0.12057(15) 0.7063(3)
O2 O 0.26815(19) 0.17531(15) 0.8691(3)
O3 O 0.26565(15) 0.04990(14) 0.9449(3)
O4 O 0.11423(15) 0.04978(14) 0.8692(3)
N2 N 0.3601(2) 0.20743(19) 0.5352(3)
N3 N 0.5966(2) 0.32227(17) 0.8203(3)
C1 C 0.1759(3) 0.1240(3) 0.1393(4)
H1 H 0.1287 0.1058 0.0915
C2 C 0.1975(3) 0.1367(3) 0.2697(5)
H2 H 0.1646 0.1278 0.3055
C3 C 0.2668(3) 0.1620(2) 0.3422(4)
C4 C 0.3110(3) 0.1756(3) 0.2813(4)
H3 H 0.3582 0.1943 0.3261
C5 C 0.2848(3) 0.1612(3) 0.1528(4)
H4 H 0.3165 0.1696 0.1143
C6 C 0.2945(3) 0.1768(2) 0.4813(4)
C7 C 0.2560(3) 0.1581(2) 0.5502(4)
H5 H 0.2110 0.1360 0.5105
C8 C 0.2859(3) 0.1729(2) 0.6798(4)
C9 C 0.3541(3) 0.2036(2) 0.7365(4)
H6 H 0.3760 0.2134 0.8234
C10 C 0.3898(3) 0.2198(2) 0.6607(4)
C11 C 0.4627(3) 0.2538(2) 0.7165(4)
C12 C 0.5215(3) 0.2414(3) 0.8353(5)
H7 H 0.5168 0.2100 0.8840
C13 C 0.5879(3) 0.2756(2) 0.8827(4)
H8 H 0.6279 0.2653 0.9617
C14 C 0.5401(3) 0.3343(3) 0.7045(4)
H9 H 0.5460 0.3666 0.6594
C15 C 0.4736(3) 0.3017(3) 0.6480(4)
H10 H 0.4363 0.3111 0.5658
C16 C 0.2446(3) 0.1552(2) 0.7573(4)
C17 C 0.1460(3) 0.0000 0.8844(5)
C18 C 0.2340(3) 0.0000 0.9276(5)
Ni6 Ni 0.68805(4) 0.38158(3) 0.89204(6)
N10 N 0.0966(2) 0.17773(17) 0.8203(3)
N8 N 0.2179(2) 0.86370(17) 0.0817(3)
C17_2 C 0.1460(3) 1.0000 0.8844(5)
C18_2 C 0.2340(3) 1.0000 0.9276(5)
O5 O 0.26565(15) 0.95010(14) 0.9449(3)
O6 O 0.11423(15) 0.95022(14) 0.8692(3)
Ni2 Ni 0.18805(4) 0.88158(3) 0.89204(6)
O7 O 0.18831(19) 0.87943(15) 0.7063(3)
O8 O 0.26815(19) 0.82469(15) 0.8691(3)
N5 N 0.3601(2) 0.79257(19) 0.5352(3)
N6 N 0.5966(2) 0.67773(17) 0.8203(3)
C19 C 0.1759(3) 0.8760(3) 0.1393(4)
H11 H 0.1287 0.8942 0.0915
C20 C 0.1975(3) 0.8633(3) 0.2697(5)
H12 H 0.1646 0.8722 0.3055
C21 C 0.2668(3) 0.8380(2) 0.3422(4)
C22 C 0.3110(3) 0.8244(3) 0.2813(4)
H13 H 0.3582 0.8057 0.3261
C23 C 0.2848(3) 0.8388(3) 0.1528(4)
H14 H 0.3165 0.8304 0.1143
C24 C 0.2945(3) 0.8232(2) 0.4813(4)
C25 C 0.2560(3) 0.8419(2) 0.5502(4)
H15 H 0.2110 0.8640 0.5105
C26 C 0.2859(3) 0.8271(2) 0.6798(4)
C27 C 0.3541(3) 0.7964(2) 0.7365(4)
H16 H 0.3760 0.7866 0.8234
C28 C 0.3898(3) 0.7802(2) 0.6607(4)
C29 C 0.4627(3) 0.7462(2) 0.7165(4)
C30 C 0.5215(3) 0.7586(3) 0.8353(5)
H17 H 0.5168 0.7900 0.8840
C31 C 0.5879(3) 0.7244(2) 0.8827(4)
H18 H 0.6279 0.7347 0.9617
C32 C 0.5401(3) 0.6657(3) 0.7045(4)
H19 H 0.5460 0.6334 0.6594
C33 C 0.4736(3) 0.6983(3) 0.6480(4)
H20 H 0.4363 0.6889 0.5658
C34 C 0.2446(3) 0.8448(2) 0.7573(4)
Ni4 Ni 0.68805(4) 0.61842(3) 0.89204(6)
N9 N 0.0966(2) 0.82227(17) 0.8203(3)
C12_2 C 0.0215(3) 0.7414(3) 0.8353(5)
H7_2 H 0.0168 0.7100 0.8840
C13_2 C 0.0879(3) 0.7756(2) 0.8827(4)
H8_2 H 0.1279 0.7653 0.9617
C14_2 C 0.0401(3) 0.8343(3) 0.7045(4)
H9_2 H 0.0460 0.8666 0.6594
C30_2 C 0.0215(3) 0.2586(3) 0.8353(5)
H17_2 H 0.0168 0.2900 0.8840
C31_2 C 0.0879(3) 0.2244(2) 0.8827(4)
H18_2 H 0.1279 0.2347 0.9617
C32_2 C 0.0401(3) 0.1657(3) 0.7045(4)
H19_2 H 0.0460 0.1334 0.6594
N7_2 N 0.7179(2) 0.63630(17) 0.0817(3)
N8_2 N 0.7179(2) 0.36370(17) 0.0817(3)
O1_2 O 0.68831(19) 0.62057(15) 0.7063(3)
O2_2 O 0.76815(19) 0.67531(15) 0.8691(3)
O3_2 O 0.76565(15) 0.54990(14) 0.9449(3)
O4_2 O 0.61423(15) 0.54978(14) 0.8692(3)
N2_2 N 0.8601(2) 0.70743(19) 0.5352(3)
C1_2 C 0.6759(3) 0.6240(3) 0.1393(4)
H1_2 H 0.6287 0.6058 0.0915
C2_2 C 0.6975(3) 0.6367(3) 0.2697(5)
H2_2 H 0.6646 0.6278 0.3055
C3_2 C 0.7668(3) 0.6620(2) 0.3422(4)
C4_2 C 0.8110(3) 0.6756(3) 0.2813(4)
H3_2 H 0.8582 0.6943 0.3261
C5_2 C 0.7848(3) 0.6612(3) 0.1528(4)
H4_2 H 0.8165 0.6696 0.1143
C6_2 C 0.7945(3) 0.6768(2) 0.4813(4)
C7_2 C 0.7560(3) 0.6581(2) 0.5502(4)
H5_2 H 0.7110 0.6360 0.5105
C8_2 C 0.7859(3) 0.6729(2) 0.6798(4)
C9_2 C 0.8541(3) 0.7036(2) 0.7365(4)
H6_2 H 0.8760 0.7134 0.8234
C10_2 C 0.8898(3) 0.7198(2) 0.6607(4)
C11_2 C 0.9627(3) 0.7538(2) 0.7165(4)
C15_2 C 0.9736(3) 0.8017(3) 0.6480(4)
H10_2 H 0.9363 0.8111 0.5658
C16_2 C 0.7446(3) 0.6552(2) 0.7573(4)
C17_3 C 0.6460(3) 0.5000 0.8844(5)
C18_3 C 0.7340(3) 0.5000 0.9276(5)
O5_2 O 0.76565(15) 0.45010(14) 0.9449(3)
O6_2 O 0.61423(15) 0.45022(14) 0.8692(3)
O7_2 O 0.68831(19) 0.37943(15) 0.7063(3)
O8_2 O 0.76815(19) 0.32469(15) 0.8691(3)
N5_2 N 0.8601(2) 0.29257(19) 0.5352(3)
C19_2 C 0.6759(3) 0.3760(3) 0.1393(4)
H11_2 H 0.6287 0.3942 0.0915
C20_2 C 0.6975(3) 0.3633(3) 0.2697(5)
H12_2 H 0.6646 0.3722 0.3055
C21_2 C 0.7668(3) 0.3380(2) 0.3422(4)
C22_2 C 0.8110(3) 0.3244(3) 0.2813(4)
H13_2 H 0.8582 0.3057 0.3261
C23_2 C 0.7848(3) 0.3388(3) 0.1528(4)
H14_2 H 0.8165 0.3304 0.1143
C24_2 C 0.7945(3) 0.3232(2) 0.4813(4)
C25_2 C 0.7560(3) 0.3419(2) 0.5502(4)
H15_2 H 0.7110 0.3640 0.5105
C26_2 C 0.7859(3) 0.3271(2) 0.6798(4)
C27_2 C 0.8541(3) 0.2964(2) 0.7365(4)
H16_2 H 0.8760 0.2866 0.8234
C28_2 C 0.8898(3) 0.2802(2) 0.6607(4)
C29_2 C 0.9627(3) 0.2462(2) 0.7165(4)
C33_2 C 0.9736(3) 0.1983(3) 0.6480(4)
H20_2 H 0.9363 0.1889 0.5658
C34_2 C 0.7446(3) 0.3448(2) 0.7573(4)
Ni3 Ni 0.81195(4) 0.11842(3) 0.10796(6)
O1_3 O 0.81169(19) 0.12057(15) 0.2937(3)
O2_3 O 0.73185(19) 0.17531(15) 0.1309(3)
O3_3 O 0.73435(15) 0.04990(14) 0.0551(3)
O4_3 O 0.88577(15) 0.04978(14) 0.1308(3)
N1 N 0.7821(2) 0.13630(17) 0.9183(3)
N2_3 N 0.6399(2) 0.20743(19) 0.4648(3)
N3_2 N 0.4034(2) 0.32227(17) 0.1797(3)
C1_3 C 0.8241(3) 0.1240(3) 0.8607(4)
H1_3 H 0.8713 0.1058 0.9085
C2_3 C 0.8025(3) 0.1367(3) 0.7303(5)
H2_3 H 0.8354 0.1278 0.6945
C3_3 C 0.7332(3) 0.1620(2) 0.6578(4)
C4_3 C 0.6890(3) 0.1756(3) 0.7187(4)
H3_3 H 0.6418 0.1943 0.6739
C5_3 C 0.7152(3) 0.1612(3) 0.8472(4)
H4_3 H 0.6835 0.1696 0.8857
C6_3 C 0.7055(3) 0.1768(2) 0.5187(4)
C7_3 C 0.7440(3) 0.1581(2) 0.4498(4)
H5_3 H 0.7890 0.1360 0.4895
C8_3 C 0.7141(3) 0.1729(2) 0.3202(4)
C9_3 C 0.6459(3) 0.2036(2) 0.2635(4)
H6_3 H 0.6240 0.2134 0.1766
C10_3 C 0.6102(3) 0.2198(2) 0.3393(4)
C11_3 C 0.5373(3) 0.2538(2) 0.2835(4)
C12_3 C 0.4785(3) 0.2414(3) 0.1647(5)
H7_3 H 0.4832 0.2100 0.1160
C13_3 C 0.4121(3) 0.2756(2) 0.1173(4)
H8_3 H 0.3721 0.2653 0.0383
C14_3 C 0.4599(3) 0.3343(3) 0.2955(4)
H9_3 H 0.4540 0.3666 0.3406
C15_3 C 0.5264(3) 0.3017(3) 0.3520(4)
H10_3 H 0.5637 0.3111 0.4342
C16_3 C 0.7554(3) 0.1552(2) 0.2427(4)
C17_4 C 0.8540(3) 0.0000 0.1156(5)
C18_4 C 0.7660(3) 0.0000 0.0724(5)
Ni6_2 Ni 0.31195(4) 0.38158(3) 0.10796(6)
N10_2 N 0.9034(2) 0.17773(17) 0.1797(3)
Ni5 Ni 0.81195(4) 0.88158(3) 0.10796(6)
C17_5 C 0.8540(3) 1.0000 0.1156(5)
C18_5 C 0.7660(3) 1.0000 0.0724(5)
O5_3 O 0.73435(15) 0.95010(14) 0.0551(3)
O6_3 O 0.88577(15) 0.95022(14) 0.1308(3)
O7_3 O 0.81169(19) 0.87943(15) 0.2937(3)
O8_3 O 0.73185(19) 0.82469(15) 0.1309(3)
N4 N 0.7821(2) 0.86370(17) 0.9183(3)
N5_3 N 0.6399(2) 0.79257(19) 0.4648(3)
N6_2 N 0.4034(2) 0.67773(17) 0.1797(3)
C19_3 C 0.8241(3) 0.8760(3) 0.8607(4)
H11_3 H 0.8713 0.8942 0.9085
C20_3 C 0.8025(3) 0.8633(3) 0.7303(5)
H12_3 H 0.8354 0.8722 0.6945
C21_3 C 0.7332(3) 0.8380(2) 0.6578(4)
C22_3 C 0.6890(3) 0.8244(3) 0.7187(4)
H13_3 H 0.6418 0.8057 0.6739
C23_3 C 0.7152(3) 0.8388(3) 0.8472(4)
H14_3 H 0.6835 0.8304 0.8857
C24_3 C 0.7055(3) 0.8232(2) 0.5187(4)
C25_3 C 0.7440(3) 0.8419(2) 0.4498(4)
H15_3 H 0.7890 0.8640 0.4895
C26_3 C 0.7141(3) 0.8271(2) 0.3202(4)
C27_3 C 0.6459(3) 0.7964(2) 0.2635(4)
H16_3 H 0.6240 0.7866 0.1766
C28_3 C 0.6102(3) 0.7802(2) 0.3393(4)
C29_3 C 0.5373(3) 0.7462(2) 0.2835(4)
C30_3 C 0.4785(3) 0.7586(3) 0.1647(5)
H17_3 H 0.4832 0.7900 0.1160
C31_3 C 0.4121(3) 0.7244(2) 0.1173(4)
H18_3 H 0.3721 0.7347 0.0383
C32_3 C 0.4599(3) 0.6657(3) 0.2955(4)
H19_3 H 0.4540 0.6334 0.3406
C33_3 C 0.5264(3) 0.6983(3) 0.3520(4)
H20_3 H 0.5637 0.6889 0.4342
C34_3 C 0.7554(3) 0.8448(2) 0.2427(4)
Ni4_2 Ni 0.31195(4) 0.61842(3) 0.10796(6)
N9_2 N 0.9034(2) 0.82227(17) 0.1797(3)
O1_4 O 0.31169(19) 0.62057(15) 0.2937(3)
O2_4 O 0.23185(19) 0.67531(15) 0.1309(3)
O3_4 O 0.23435(15) 0.54990(14) 0.0551(3)
O4_4 O 0.38577(15) 0.54978(14) 0.1308(3)
N1_2 N 0.2821(2) 0.63630(17) 0.9183(3)
N2_4 N 0.1399(2) 0.70743(19) 0.4648(3)
C1_4 C 0.3241(3) 0.6240(3) 0.8607(4)
H1_4 H 0.3713 0.6058 0.9085
C2_4 C 0.3025(3) 0.6367(3) 0.7303(5)
H2_4 H 0.3354 0.6278 0.6945
C3_4 C 0.2332(3) 0.6620(2) 0.6578(4)
C4_4 C 0.1890(3) 0.6756(3) 0.7187(4)
H3_4 H 0.1418 0.6943 0.6739
C5_4 C 0.2152(3) 0.6612(3) 0.8472(4)
H4_4 H 0.1835 0.6696 0.8857
C6_4 C 0.2055(3) 0.6768(2) 0.5187(4)
C7_4 C 0.2440(3) 0.6581(2) 0.4498(4)
H5_4 H 0.2890 0.6360 0.4895
C8_4 C 0.2141(3) 0.6729(2) 0.3202(4)
C9_4 C 0.1459(3) 0.7036(2) 0.2635(4)
H6_4 H 0.1240 0.7134 0.1766
C10_4 C 0.1102(3) 0.7198(2) 0.3393(4)
C11_4 C 0.0373(3) 0.7538(2) 0.2835(4)
C15_4 C 0.0264(3) 0.8017(3) 0.3520(4)
H10_4 H 0.0637 0.8111 0.4342
C16_4 C 0.2554(3) 0.6552(2) 0.2427(4)
C17_6 C 0.3540(3) 0.5000 0.1156(5)
C18_6 C 0.2660(3) 0.5000 0.0724(5)
O5_4 O 0.23435(15) 0.45010(14) 0.0551(3)
O6_4 O 0.38577(15) 0.45022(14) 0.1308(3)
O7_4 O 0.31169(19) 0.37943(15) 0.2937(3)
O8_4 O 0.23185(19) 0.32469(15) 0.1309(3)
N4_2 N 0.2821(2) 0.36370(17) 0.9183(3)
N5_4 N 0.1399(2) 0.29257(19) 0.4648(3)
C19_4 C 0.3241(3) 0.3760(3) 0.8607(4)
H11_4 H 0.3713 0.3942 0.9085
C20_4 C 0.3025(3) 0.3633(3) 0.7303(5)
H12_4 H 0.3354 0.3722 0.6945
C21_4 C 0.2332(3) 0.3380(2) 0.6578(4)
C22_4 C 0.1890(3) 0.3244(3) 0.7187(4)
H13_4 H 0.1418 0.3057 0.6739
C23_4 C 0.2152(3) 0.3388(3) 0.8472(4)
H14_4 H 0.1835 0.3304 0.8857
C24_4 C 0.2055(3) 0.3232(2) 0.5187(4)
C25_4 C 0.2440(3) 0.3419(2) 0.4498(4)
H15_4 H 0.2890 0.3640 0.4895
C26_4 C 0.2141(3) 0.3271(2) 0.3202(4)
C27_4 C 0.1459(3) 0.2964(2) 0.2635(4)
H16_4 H 0.1240 0.2866 0.1766
C28_4 C 0.1102(3) 0.2802(2) 0.3393(4)
C29_4 C 0.0373(3) 0.2462(2) 0.2835(4)
C33_4 C 0.0264(3) 0.1983(3) 0.3520(4)
H20_4 H 0.0637 0.1889 0.4342
C34_4 C 0.2554(3) 0.3448(2) 0.2427(4)
C12_4 C 0.9785(3) 0.7414(3) 0.1647(5)
H7_4 H 0.9832 0.7100 0.1160
C13_4 C 0.9121(3) 0.7756(2) 0.1173(4)
H8_4 H 0.8721 0.7653 0.0383
C14_4 C 0.9599(3) 0.8343(3) 0.2955(4)
H9_4 H 0.9540 0.8666 0.3406
C30_4 C 0.9785(3) 0.2586(3) 0.1647(5)
H17_4 H 0.9832 0.2900 0.1160
C31_4 C 0.9121(3) 0.2244(2) 0.1173(4)
H18_4 H 0.8721 0.2347 0.0383
C32_4 C 0.9599(3) 0.1657(3) 0.2955(4)
H19_4 H 0.9540 0.1334 0.3406
loop_
_geom_bond_atom_site_label_1
_geom_bond_atom_site_label_2
_geom_bond_site_symmetry_1
_geom_bond_site_symmetry_2
Ni1 O1 1_555 1_555
O1 C16 1_555 1_555
O2 Ni1 1_555 1_555
O3 Ni1 1_555 1_555
O4 Ni1 1_555 1_555
N7 C1 1_555 1_555
N2 C6 1_555 1_555
N3 C13 1_555 1_555
C1 H1 1_555 1_555
C2 C1 1_555 1_555
H2 C2 1_555 1_555
C3 C2 1_555 1_555
C4 C3 1_555 1_555
H3 C4 1_555 1_555
C5 N7 1_555 1_555
H4 C5 1_555 1_555
C6 C3 1_555 1_555
C7 C6 1_555 1_555
H5 C7 1_555 1_555
C8 C7 1_555 1_555
C9 C8 1_555 1_555
H6 C9 1_555 1_555
C10 N2 1_555 1_555
C11 C10 1_555 1_555
C12 C11 1_555 1_555
H7 C12 1_555 1_555
C13 C12 1_555 1_555
H8 C13 1_555 1_555
C14 N3 1_555 1_555
H9 C14 1_555 1_555
C15 C11 1_555 1_555
H10 C15 1_555 1_555
C16 O2 1_555 1_555
C17 O4 1_555 1_555
C18 O3 1_555 1_555
Ni6 N3 1_555 1_555
N10 Ni1 1_555 1_555
C4 C5 1_555 1_555
C8 C16 1_555 1_555
C9 C10 1_555 1_555
C14 C15 1_555 1_555
C17 C18 1_555 1_555
O5 C18_2 1_555 1_555
O6 C17_2 1_555 1_555
Ni2 O5 1_555 1_555
O7 Ni2 1_555 1_555
O8 Ni2 1_555 1_555
N8 C19 1_555 1_555
N5 C24 1_555 1_555
N6 C31 1_555 1_555
C19 H11 1_555 1_555
C20 C19 1_555 1_555
H12 C20 1_555 1_555
C21 C20 1_555 1_555
C22 C21 1_555 1_555
H13 C22 1_555 1_555
C23 N8 1_555 1_555
H14 C23 1_555 1_555
C24 C21 1_555 1_555
C25 C24 1_555 1_555
H15 C25 1_555 1_555
C26 C25 1_555 1_555
C27 C26 1_555 1_555
H16 C27 1_555 1_555
C28 N5 1_555 1_555
C29 C28 1_555 1_555
C30 C29 1_555 1_555
H17 C30 1_555 1_555
C31 C30 1_555 1_555
H18 C31 1_555 1_555
C32 N6 1_555 1_555
H19 C32 1_555 1_555
C33 C29 1_555 1_555
H20 C33 1_555 1_555
C34 O7 1_555 1_555
Ni4 N6 1_555 1_555
N9 Ni2 1_555 1_555
C17_2 C18_2 1_555 1_555
O6 Ni2 1_555 1_555
O8 C34 1_555 1_555
C22 C23 1_555 1_555
C26 C34 1_555 1_555
C27 C28 1_555 1_555
C32 C33 1_555 1_555
N9 C13_2 1_555 1_555
H7_2 C12_2 1_555 1_555
C13_2 C12_2 1_555 1_555
H8_2 C13_2 1_555 1_555
C14_2 N9 1_555 1_555
H9_2 C14_2 1_555 1_555
N10 C31_2 1_555 1_555
H17_2 C30_2 1_555 1_555
C31_2 C30_2 1_555 1_555
H18_2 C31_2 1_555 1_555
C32_2 N10 1_555 1_555
H19_2 C32_2 1_555 1_555
Ni4 O1_2 1_555 1_555
O1_2 C16_2 1_555 1_555
O2_2 Ni4 1_555 1_555
O3_2 Ni4 1_555 1_555
O4_2 Ni4 1_555 1_555
N7_2 C1_2 1_555 1_555
N2_2 C6_2 1_555 1_555
C1_2 H1_2 1_555 1_555
C2_2 C1_2 1_555 1_555
H2_2 C2_2 1_555 1_555
C3_2 C2_2 1_555 1_555
C4_2 C3_2 1_555 1_555
H3_2 C4_2 1_555 1_555
C5_2 N7_2 1_555 1_555
H4_2 C5_2 1_555 1_555
C6_2 C3_2 1_555 1_555
C7_2 C6_2 1_555 1_555
H5_2 C7_2 1_555 1_555
C8_2 C7_2 1_555 1_555
C9_2 C8_2 1_555 1_555
H6_2 C9_2 1_555 1_555
C10_2 N2_2 1_555 1_555
C11_2 C10_2 1_555 1_555
C15_2 C11_2 1_555 1_555
H10_2 C15_2 1_555 1_555
C16_2 O2_2 1_555 1_555
C17_3 O4_2 1_555 1_555
C18_3 O3_2 1_555 1_555
O5_2 C18_3 1_555 1_555
O6_2 C17_3 1_555 1_555
Ni6 O5_2 1_555 1_555
O7_2 Ni6 1_555 1_555
O8_2 Ni6 1_555 1_555
N8_2 C19_2 1_555 1_555
N5_2 C24_2 1_555 1_555
C19_2 H11_2 1_555 1_555
C20_2 C19_2 1_555 1_555
H12_2 C20_2 1_555 1_555
C21_2 C20_2 1_555 1_555
C22_2 C21_2 1_555 1_555
H13_2 C22_2 1_555 1_555
C23_2 N8_2 1_555 1_555
H14_2 C23_2 1_555 1_555
C24_2 C21_2 1_555 1_555
C25_2 C24_2 1_555 1_555
H15_2 C25_2 1_555 1_555
C26_2 C25_2 1_555 1_555
C27_2 C26_2 1_555 1_555
H16_2 C27_2 1_555 1_555
C28_2 N5_2 1_555 1_555
C29_2 C28_2 1_555 1_555
C33_2 C29_2 1_555 1_555
H20_2 C33_2 1_555 1_555
C34_2 O7_2 1_555 1_555
C4_2 C5_2 1_555 1_555
C8_2 C16_2 1_555 1_555
C9_2 C10_2 1_555 1_555
C17_3 C18_3 1_555 1_555
O6_2 Ni6 1_555 1_555
O8_2 C34_2 1_555 1_555
C22_2 C23_2 1_555 1_555
C26_2 C34_2 1_555 1_555
C27_2 C28_2 1_555 1_555
Ni3 O1_3 1_555 1_555
O1_3 C16_3 1_555 1_555
O2_3 Ni3 1_555 1_555
O3_3 Ni3 1_555 1_555
O4_3 Ni3 1_555 1_555
N1 C1_3 1_555 1_555
N2_3 C6_3 1_555 1_555
N3_2 C13_3 1_555 1_555
C1_3 H1_3 1_555 1_555
C2_3 C1_3 1_555 1_555
H2_3 C2_3 1_555 1_555
C3_3 C2_3 1_555 1_555
C4_3 C3_3 1_555 1_555
H3_3 C4_3 1_555 1_555
C5_3 N1 1_555 1_555
H4_3 C5_3 1_555 1_555
C6_3 C3_3 1_555 1_555
C7_3 C6_3 1_555 1_555
H5_3 C7_3 1_555 1_555
C8_3 C7_3 1_555 1_555
C9_3 C8_3 1_555 1_555
H6_3 C9_3 1_555 1_555
C10_3 N2_3 1_555 1_555
C11_3 C10_3 1_555 1_555
C12_3 C11_3 1_555 1_555
H7_3 C12_3 1_555 1_555
C13_3 C12_3 1_555 1_555
H8_3 C13_3 1_555 1_555
C14_3 N3_2 1_555 1_555
H9_3 C14_3 1_555 1_555
C15_3 C11_3 1_555 1_555
H10_3 C15_3 1_555 1_555
C16_3 O2_3 1_555 1_555
C17_4 O4_3 1_555 1_555
C18_4 O3_3 1_555 1_555
Ni6_2 N3_2 1_555 1_555
N10_2 Ni3 1_555 1_555
C4_3 C5_3 1_555 1_555
C8_3 C16_3 1_555 1_555
C9_3 C10_3 1_555 1_555
C14_3 C15_3 1_555 1_555
C17_4 C18_4 1_555 1_555
O5_3 C18_5 1_555 1_555
O6_3 C17_5 1_555 1_555
Ni5 O5_3 1_555 1_555
O7_3 Ni5 1_555 1_555
O8_3 Ni5 1_555 1_555
N4 C19_3 1_555 1_555
N5_3 C24_3 1_555 1_555
N6_2 C31_3 1_555 1_555
C19_3 H11_3 1_555 1_555
C20_3 C19_3 1_555 1_555
H12_3 C20_3 1_555 1_555
C21_3 C20_3 1_555 1_555
C22_3 C21_3 1_555 1_555
H13_3 C22_3 1_555 1_555
C23_3 N4 1_555 1_555
H14_3 C23_3 1_555 1_555
C24_3 C21_3 1_555 1_555
C25_3 C24_3 1_555 1_555
H15_3 C25_3 1_555 1_555
C26_3 C25_3 1_555 1_555
C27_3 C26_3 1_555 1_555
H16_3 C27_3 1_555 1_555
C28_3 N5_3 1_555 1_555
C29_3 C28_3 1_555 1_555
C30_3 C29_3 1_555 1_555
H17_3 C30_3 1_555 1_555
C31_3 C30_3 1_555 1_555
H18_3 C31_3 1_555 1_555
C32_3 N6_2 1_555 1_555
H19_3 C32_3 1_555 1_555
C33_3 C29_3 1_555 1_555
H20_3 C33_3 1_555 1_555
C34_3 O7_3 1_555 1_555
Ni4_2 N6_2 1_555 1_555
N9_2 Ni5 1_555 1_555
C17_5 C18_5 1_555 1_555
O6_3 Ni5 1_555 1_555
O8_3 C34_3 1_555 1_555
C22_3 C23_3 1_555 1_555
C26_3 C34_3 1_555 1_555
C27_3 C28_3 1_555 1_555
C32_3 C33_3 1_555 1_555
Ni4_2 O1_4 1_555 1_555
O1_4 C16_4 1_555 1_555
O2_4 Ni4_2 1_555 1_555
O3_4 Ni4_2 1_555 1_555
O4_4 Ni4_2 1_555 1_555
N1_2 C1_4 1_555 1_555
N2_4 C6_4 1_555 1_555
C1_4 H1_4 1_555 1_555
C2_4 C1_4 1_555 1_555
H2_4 C2_4 1_555 1_555
C3_4 C2_4 1_555 1_555
C4_4 C3_4 1_555 1_555
H3_4 C4_4 1_555 1_555
C5_4 N1_2 1_555 1_555
H4_4 C5_4 1_555 1_555
C6_4 C3_4 1_555 1_555
C7_4 C6_4 1_555 1_555
H5_4 C7_4 1_555 1_555
C8_4 C7_4 1_555 1_555
C9_4 C8_4 1_555 1_555
H6_4 C9_4 1_555 1_555
C10_4 N2_4 1_555 1_555
C11_4 C10_4 1_555 1_555
C15_4 C11_4 1_555 1_555
H10_4 C15_4 1_555 1_555
C16_4 O2_4 1_555 1_555
C17_6 O4_4 1_555 1_555
C18_6 O3_4 1_555 1_555
O5_4 C18_6 1_555 1_555
O6_4 C17_6 1_555 1_555
Ni6_2 O5_4 1_555 1_555
O7_4 Ni6_2 1_555 1_555
O8_4 Ni6_2 1_555 1_555
N4_2 C19_4 1_555 1_555
N5_4 C24_4 1_555 1_555
C19_4 H11_4 1_555 1_555
C20_4 C19_4 1_555 1_555
H12_4 C20_4 1_555 1_555
C21_4 C20_4 1_555 1_555
C22_4 C21_4 1_555 1_555
H13_4 C22_4 1_555 1_555
C23_4 N4_2 1_555 1_555
H14_4 C23_4 1_555 1_555
C24_4 C21_4 1_555 1_555
C25_4 C24_4 1_555 1_555
H15_4 C25_4 1_555 1_555
C26_4 C25_4 1_555 1_555
C27_4 C26_4 1_555 1_555
H16_4 C27_4 1_555 1_555
C28_4 N5_4 1_555 1_555
C29_4 C28_4 1_555 1_555
C33_4 C29_4 1_555 1_555
H20_4 C33_4 1_555 1_555
C34_4 O7_4 1_555 1_555
C4_4 C5_4 1_555 1_555
C8_4 C16_4 1_555 1_555
C9_4 C10_4 1_555 1_555
C17_6 C18_6 1_555 1_555
O6_4 Ni6_2 1_555 1_555
O8_4 C34_4 1_555 1_555
C22_4 C23_4 1_555 1_555
C26_4 C34_4 1_555 1_555
C27_4 C28_4 1_555 1_555
N9_2 C13_4 1_555 1_555
H7_4 C12_4 1_555 1_555
C13_4 C12_4 1_555 1_555
H8_4 C13_4 1_555 1_555
C14_4 N9_2 1_555 1_555
H9_4 C14_4 1_555 1_555
N10_2 C31_4 1_555 1_555
H17_4 C30_4 1_555 1_555
C31_4 C30_4 1_555 1_555
H18_4 C31_4 1_555 1_555
C32_4 N10_2 1_555 1_555
H19_4 C32_4 1_555 1_555

#END
