
###############################################################################
#
# This file contains modified crystal structure data generated from the
# MOF subset of the Cambridge Structural Database (CSD) v543 
# hosted by the Cambridge Crystallographic Data Centre (CCDC).
#
# This work is licensed under the Creative Commons
# Attribution-NonCommercial-ShareAlike 4.0 International License.
# To view a copy of this license, visit
# http://creativecommons.org/licenses/by-nc-sa/4.0/
# or send a letter to
# Creative Commons, PO Box 1866, Mountain View, CA 94042, USA.
#
# CIF created using the CSD Python API on 29 September 2022
# The structure has been converted into the P1 space group
# The structure has a 3D framework
# The original CSD entry YINSIZ01 is in the monoclinic crystal system
# The framework has been calculated to contain at least 10.0% void space
# The void calculation uses a probe of radius 1.32A, grid spacing 0.4
#
###############################################################################

data_YINSIZ01
_chemical_formula_moiety         '(C140 H80 N24 Ni8 O32)n'
_symmetry_cell_setting           triclinic
_symmetry_space_group_name_H-M   'P 1'
_symmetry_Int_Tables_number      1
_space_group_name_Hall           'P 1'
loop_
_symmetry_equiv_pos_site_id
_symmetry_equiv_pos_as_xyz
1 x,y,z
_cell_length_a                   19.8663(4)
_cell_length_b                   21.8289(3)
_cell_length_c                   11.6384(2)
_cell_angle_alpha                90
_cell_angle_beta                 116.935(3)
_cell_angle_gamma                90
_cell_volume                     4499.6
loop_
_atom_site_label
_atom_site_type_symbol
_atom_site_fract_x
_atom_site_fract_y
_atom_site_fract_z
N7 N 0.21686(9) 0.13958(7) 0.07009(14)
Ni1 Ni 0.18726(2) 0.12247(2) 0.88181(3)
O1 O 0.18811(8) 0.12047(7) 0.69827(13)
O2 O 0.26616(7) 0.17834(6) 0.85829(12)
O3 O 0.26407(7) 0.05120(6) 0.93375(13)
O4 O 0.11478(7) 0.05128(6) 0.85927(12)
N2 N 0.35900(9) 0.20764(8) 0.52682(15)
N3 N 0.59699(9) 0.31844(8) 0.81041(14)
C1 C 0.17089(11) 0.13173(10) 0.12453(19)
H1 H 0.1210 0.1175 0.0724
C2 C 0.19297(11) 0.14341(11) 0.25347(19)
H2 H 0.1584 0.1375 0.2882
C3 C 0.26531(11) 0.16371(9) 0.33142(17)
C4 C 0.31314(12) 0.17180(11) 0.27489(19)
H3 H 0.3634 0.1859 0.3248
C5 C 0.28692(11) 0.15917(10) 0.14549(19)
H4 H 0.3203 0.1647 0.1083
C6 C 0.29315(11) 0.17741(10) 0.47103(17)
C7 C 0.25381(11) 0.15946(10) 0.53931(18)
H5 H 0.2073 0.1380 0.4975
C8 C 0.28421(11) 0.17373(10) 0.66934(18)
C9 C 0.35327(11) 0.20371(10) 0.72858(18)
H6 H 0.3756 0.2131 0.8179
C10 C 0.38896(11) 0.21963(10) 0.65350(18)
C11 C 0.46158(11) 0.25314(10) 0.70838(18)
C12 C 0.51978(12) 0.23909(10) 0.82989(19)
H7 H 0.5139 0.2072 0.8802
C13 C 0.58616(11) 0.27230(9) 0.87583(18)
H8 H 0.6259 0.2619 0.9577
C14 C 0.54082(11) 0.33174(10) 0.69279(18)
H9 H 0.5479 0.3643 0.6453
C15 C 0.47345(12) 0.29993(11) 0.63865(18)
H10 H 0.4356 0.3099 0.5547
C16 C 0.24365(11) 0.15660(9) 0.74666(17)
C17 C 0.14624(14) -0.0000 0.8742(2)
C18 C 0.23249(14) -0.0000 0.9172(2)
Ni6 Ni 0.68726(2) 0.37753(2) 0.88181(3)
N10 N 0.09699(9) 0.18156(8) 0.81041(14)
N8 N 0.21686(9) 0.86042(7) 0.07009(14)
C17_2 C 0.14624(14) 1.0000 0.8742(2)
C18_2 C 0.23249(14) 1.0000 0.9172(2)
O5 O 0.26407(7) 0.94880(6) 0.93375(13)
O6 O 0.11478(7) 0.94872(6) 0.85927(12)
Ni2 Ni 0.18726(2) 0.87753(2) 0.88181(3)
O7 O 0.18811(8) 0.87953(7) 0.69827(13)
O8 O 0.26616(7) 0.82166(6) 0.85829(12)
N5 N 0.35900(9) 0.79236(8) 0.52682(15)
N6 N 0.59699(9) 0.68156(8) 0.81041(14)
C19 C 0.17089(11) 0.86827(10) 0.12453(19)
H11 H 0.1210 0.8825 0.0724
C20 C 0.19297(11) 0.85659(11) 0.25347(19)
H12 H 0.1584 0.8625 0.2882
C21 C 0.26531(11) 0.83629(9) 0.33142(17)
C22 C 0.31314(12) 0.82820(11) 0.27489(19)
H13 H 0.3634 0.8141 0.3248
C23 C 0.28692(11) 0.84083(10) 0.14549(19)
H14 H 0.3203 0.8353 0.1083
C24 C 0.29315(11) 0.82259(10) 0.47103(17)
C25 C 0.25381(11) 0.84054(10) 0.53931(18)
H15 H 0.2073 0.8620 0.4975
C26 C 0.28421(11) 0.82627(10) 0.66934(18)
C27 C 0.35327(11) 0.79629(10) 0.72858(18)
H16 H 0.3756 0.7869 0.8179
C28 C 0.38896(11) 0.78037(10) 0.65350(18)
C29 C 0.46158(11) 0.74686(10) 0.70838(18)
C30 C 0.51978(12) 0.76091(10) 0.82989(19)
H17 H 0.5139 0.7928 0.8802
C31 C 0.58616(11) 0.72770(9) 0.87583(18)
H18 H 0.6259 0.7381 0.9577
C32 C 0.54082(11) 0.66826(10) 0.69279(18)
H19 H 0.5479 0.6357 0.6453
C33 C 0.47345(12) 0.70007(11) 0.63865(18)
H20 H 0.4356 0.6901 0.5547
C34 C 0.24365(11) 0.84340(9) 0.74666(17)
Ni4 Ni 0.68726(2) 0.62247(2) 0.88181(3)
N9 N 0.09699(9) 0.81844(8) 0.81041(14)
C12_2 C 0.01978(12) 0.73909(10) 0.82989(19)
H7_2 H 0.0139 0.7072 0.8802
C13_2 C 0.08616(11) 0.77230(9) 0.87583(18)
H8_2 H 0.1259 0.7619 0.9577
C14_2 C 0.04082(11) 0.83174(10) 0.69279(18)
H9_2 H 0.0479 0.8643 0.6453
C30_2 C 0.01978(12) 0.26091(10) 0.82989(19)
H17_2 H 0.0139 0.2928 0.8802
C31_2 C 0.08616(11) 0.22770(9) 0.87583(18)
H18_2 H 0.1259 0.2381 0.9577
C32_2 C 0.04082(11) 0.16826(10) 0.69279(18)
H19_2 H 0.0479 0.1357 0.6453
N7_2 N 0.71686(9) 0.63958(7) 0.07009(14)
N8_2 N 0.71686(9) 0.36042(7) 0.07009(14)
O1_2 O 0.68811(8) 0.62047(7) 0.69827(13)
O2_2 O 0.76616(7) 0.67834(6) 0.85829(12)
O3_2 O 0.76407(7) 0.55120(6) 0.93375(13)
O4_2 O 0.61478(7) 0.55128(6) 0.85927(12)
N2_2 N 0.85900(9) 0.70764(8) 0.52682(15)
C1_2 C 0.67089(11) 0.63173(10) 0.12453(19)
H1_2 H 0.6210 0.6175 0.0724
C2_2 C 0.69297(11) 0.64341(11) 0.25347(19)
H2_2 H 0.6584 0.6375 0.2882
C3_2 C 0.76531(11) 0.66371(9) 0.33142(17)
C4_2 C 0.81314(12) 0.67180(11) 0.27489(19)
H3_2 H 0.8634 0.6859 0.3248
C5_2 C 0.78692(11) 0.65917(10) 0.14549(19)
H4_2 H 0.8203 0.6647 0.1083
C6_2 C 0.79315(11) 0.67741(10) 0.47103(17)
C7_2 C 0.75381(11) 0.65946(10) 0.53931(18)
H5_2 H 0.7073 0.6380 0.4975
C8_2 C 0.78421(11) 0.67373(10) 0.66934(18)
C9_2 C 0.85327(11) 0.70371(10) 0.72858(18)
H6_2 H 0.8756 0.7131 0.8179
C10_2 C 0.88896(11) 0.71963(10) 0.65350(18)
C11_2 C 0.96158(11) 0.75314(10) 0.70838(18)
C15_2 C 0.97345(12) 0.79993(11) 0.63865(18)
H10_2 H 0.9356 0.8099 0.5547
C16_2 C 0.74365(11) 0.65660(9) 0.74666(17)
C17_3 C 0.64624(14) 0.5000 0.8742(2)
C18_3 C 0.73249(14) 0.5000 0.9172(2)
O5_2 O 0.76407(7) 0.44880(6) 0.93375(13)
O6_2 O 0.61478(7) 0.44872(6) 0.85927(12)
O7_2 O 0.68811(8) 0.37953(7) 0.69827(13)
O8_2 O 0.76616(7) 0.32166(6) 0.85829(12)
N5_2 N 0.85900(9) 0.29236(8) 0.52682(15)
C19_2 C 0.67089(11) 0.36827(10) 0.12453(19)
H11_2 H 0.6210 0.3825 0.0724
C20_2 C 0.69297(11) 0.35659(11) 0.25347(19)
H12_2 H 0.6584 0.3625 0.2882
C21_2 C 0.76531(11) 0.33629(9) 0.33142(17)
C22_2 C 0.81314(12) 0.32820(11) 0.27489(19)
H13_2 H 0.8634 0.3141 0.3248
C23_2 C 0.78692(11) 0.34083(10) 0.14549(19)
H14_2 H 0.8203 0.3353 0.1083
C24_2 C 0.79315(11) 0.32259(10) 0.47103(17)
C25_2 C 0.75381(11) 0.34054(10) 0.53931(18)
H15_2 H 0.7073 0.3620 0.4975
C26_2 C 0.78421(11) 0.32627(10) 0.66934(18)
C27_2 C 0.85327(11) 0.29629(10) 0.72858(18)
H16_2 H 0.8756 0.2869 0.8179
C28_2 C 0.88896(11) 0.28037(10) 0.65350(18)
C29_2 C 0.96158(11) 0.24686(10) 0.70838(18)
C33_2 C 0.97345(12) 0.20007(11) 0.63865(18)
H20_2 H 0.9356 0.1901 0.5547
C34_2 C 0.74365(11) 0.34340(9) 0.74666(17)
Ni3 Ni 0.81274(2) 0.12247(2) 0.11819(3)
O1_3 O 0.81189(8) 0.12047(7) 0.30173(13)
O2_3 O 0.73384(7) 0.17834(6) 0.14171(12)
O3_3 O 0.73593(7) 0.05120(6) 0.06625(13)
O4_3 O 0.88522(7) 0.05128(6) 0.14073(12)
N1 N 0.78314(9) 0.13958(7) 0.92991(14)
N2_3 N 0.64100(9) 0.20764(8) 0.47318(15)
N3_2 N 0.40301(9) 0.31844(8) 0.18959(14)
C1_3 C 0.82911(11) 0.13173(10) 0.87547(19)
H1_3 H 0.8790 0.1175 0.9276
C2_3 C 0.80703(11) 0.14341(11) 0.74653(19)
H2_3 H 0.8416 0.1375 0.7118
C3_3 C 0.73469(11) 0.16371(9) 0.66858(17)
C4_3 C 0.68686(12) 0.17180(11) 0.72511(19)
H3_3 H 0.6366 0.1859 0.6752
C5_3 C 0.71308(11) 0.15917(10) 0.85451(19)
H4_3 H 0.6797 0.1647 0.8917
C6_3 C 0.70685(11) 0.17741(10) 0.52897(17)
C7_3 C 0.74619(11) 0.15946(10) 0.46069(18)
H5_3 H 0.7927 0.1380 0.5025
C8_3 C 0.71579(11) 0.17373(10) 0.33066(18)
C9_3 C 0.64673(11) 0.20371(10) 0.27142(18)
H6_3 H 0.6244 0.2131 0.1821
C10_3 C 0.61104(11) 0.21963(10) 0.34650(18)
C11_3 C 0.53842(11) 0.25314(10) 0.29162(18)
C12_3 C 0.48022(12) 0.23909(10) 0.17011(19)
H7_3 H 0.4861 0.2072 0.1198
C13_3 C 0.41384(11) 0.27230(9) 0.12417(18)
H8_3 H 0.3741 0.2619 0.0423
C14_3 C 0.45918(11) 0.33174(10) 0.30721(18)
H9_3 H 0.4521 0.3643 0.3547
C15_3 C 0.52655(12) 0.29993(11) 0.36135(18)
H10_3 H 0.5644 0.3099 0.4453
C16_3 C 0.75635(11) 0.15660(9) 0.25334(17)
C17_4 C 0.85376(14) -0.0000 0.1258(2)
C18_4 C 0.76751(14) -0.0000 0.0828(2)
Ni6_2 Ni 0.31274(2) 0.37753(2) 0.11819(3)
N10_2 N 0.90301(9) 0.18156(8) 0.18959(14)
Ni5 Ni 0.81274(2) 0.87753(2) 0.11819(3)
C17_5 C 0.85376(14) 1.0000 0.1258(2)
C18_5 C 0.76751(14) 1.0000 0.0828(2)
O5_3 O 0.73593(7) 0.94880(6) 0.06625(13)
O6_3 O 0.88522(7) 0.94872(6) 0.14073(12)
O7_3 O 0.81189(8) 0.87953(7) 0.30173(13)
O8_3 O 0.73384(7) 0.82166(6) 0.14171(12)
N4 N 0.78314(9) 0.86042(7) 0.92991(14)
N5_3 N 0.64100(9) 0.79236(8) 0.47318(15)
N6_2 N 0.40301(9) 0.68156(8) 0.18959(14)
C19_3 C 0.82911(11) 0.86827(10) 0.87547(19)
H11_3 H 0.8790 0.8825 0.9276
C20_3 C 0.80703(11) 0.85659(11) 0.74653(19)
H12_3 H 0.8416 0.8625 0.7118
C21_3 C 0.73469(11) 0.83629(9) 0.66858(17)
C22_3 C 0.68686(12) 0.82820(11) 0.72511(19)
H13_3 H 0.6366 0.8141 0.6752
C23_3 C 0.71308(11) 0.84083(10) 0.85451(19)
H14_3 H 0.6797 0.8353 0.8917
C24_3 C 0.70685(11) 0.82259(10) 0.52897(17)
C25_3 C 0.74619(11) 0.84054(10) 0.46069(18)
H15_3 H 0.7927 0.8620 0.5025
C26_3 C 0.71579(11) 0.82627(10) 0.33066(18)
C27_3 C 0.64673(11) 0.79629(10) 0.27142(18)
H16_3 H 0.6244 0.7869 0.1821
C28_3 C 0.61104(11) 0.78037(10) 0.34650(18)
C29_3 C 0.53842(11) 0.74686(10) 0.29162(18)
C30_3 C 0.48022(12) 0.76091(10) 0.17011(19)
H17_3 H 0.4861 0.7928 0.1198
C31_3 C 0.41384(11) 0.72770(9) 0.12417(18)
H18_3 H 0.3741 0.7381 0.0423
C32_3 C 0.45918(11) 0.66826(10) 0.30721(18)
H19_3 H 0.4521 0.6357 0.3547
C33_3 C 0.52655(12) 0.70007(11) 0.36135(18)
H20_3 H 0.5644 0.6901 0.4453
C34_3 C 0.75635(11) 0.84340(9) 0.25334(17)
Ni4_2 Ni 0.31274(2) 0.62247(2) 0.11819(3)
N9_2 N 0.90301(9) 0.81844(8) 0.18959(14)
O1_4 O 0.31189(8) 0.62047(7) 0.30173(13)
O2_4 O 0.23384(7) 0.67834(6) 0.14171(12)
O3_4 O 0.23593(7) 0.55120(6) 0.06625(13)
O4_4 O 0.38522(7) 0.55128(6) 0.14073(12)
N1_2 N 0.28314(9) 0.63958(7) 0.92991(14)
N2_4 N 0.14100(9) 0.70764(8) 0.47318(15)
C1_4 C 0.32911(11) 0.63173(10) 0.87547(19)
H1_4 H 0.3790 0.6175 0.9276
C2_4 C 0.30703(11) 0.64341(11) 0.74653(19)
H2_4 H 0.3416 0.6375 0.7118
C3_4 C 0.23469(11) 0.66371(9) 0.66858(17)
C4_4 C 0.18686(12) 0.67180(11) 0.72511(19)
H3_4 H 0.1366 0.6859 0.6752
C5_4 C 0.21308(11) 0.65917(10) 0.85451(19)
H4_4 H 0.1797 0.6647 0.8917
C6_4 C 0.20685(11) 0.67741(10) 0.52897(17)
C7_4 C 0.24619(11) 0.65946(10) 0.46069(18)
H5_4 H 0.2927 0.6380 0.5025
C8_4 C 0.21579(11) 0.67373(10) 0.33066(18)
C9_4 C 0.14673(11) 0.70371(10) 0.27142(18)
H6_4 H 0.1244 0.7131 0.1821
C10_4 C 0.11104(11) 0.71963(10) 0.34650(18)
C11_4 C 0.03842(11) 0.75314(10) 0.29162(18)
C15_4 C 0.02655(12) 0.79993(11) 0.36135(18)
H10_4 H 0.0644 0.8099 0.4453
C16_4 C 0.25635(11) 0.65660(9) 0.25334(17)
C17_6 C 0.35376(14) 0.5000 0.1258(2)
C18_6 C 0.26751(14) 0.5000 0.0828(2)
O5_4 O 0.23593(7) 0.44880(6) 0.06625(13)
O6_4 O 0.38522(7) 0.44872(6) 0.14073(12)
O7_4 O 0.31189(8) 0.37953(7) 0.30173(13)
O8_4 O 0.23384(7) 0.32166(6) 0.14171(12)
N4_2 N 0.28314(9) 0.36042(7) 0.92991(14)
N5_4 N 0.14100(9) 0.29236(8) 0.47318(15)
C19_4 C 0.32911(11) 0.36827(10) 0.87547(19)
H11_4 H 0.3790 0.3825 0.9276
C20_4 C 0.30703(11) 0.35659(11) 0.74653(19)
H12_4 H 0.3416 0.3625 0.7118
C21_4 C 0.23469(11) 0.33629(9) 0.66858(17)
C22_4 C 0.18686(12) 0.32820(11) 0.72511(19)
H13_4 H 0.1366 0.3141 0.6752
C23_4 C 0.21308(11) 0.34083(10) 0.85451(19)
H14_4 H 0.1797 0.3353 0.8917
C24_4 C 0.20685(11) 0.32259(10) 0.52897(17)
C25_4 C 0.24619(11) 0.34054(10) 0.46069(18)
H15_4 H 0.2927 0.3620 0.5025
C26_4 C 0.21579(11) 0.32627(10) 0.33066(18)
C27_4 C 0.14673(11) 0.29629(10) 0.27142(18)
H16_4 H 0.1244 0.2869 0.1821
C28_4 C 0.11104(11) 0.28037(10) 0.34650(18)
C29_4 C 0.03842(11) 0.24686(10) 0.29162(18)
C33_4 C 0.02655(12) 0.20007(11) 0.36135(18)
H20_4 H 0.0644 0.1901 0.4453
C34_4 C 0.25635(11) 0.34340(9) 0.25334(17)
C12_4 C 0.98022(12) 0.73909(10) 0.17011(19)
H7_4 H 0.9861 0.7072 0.1198
C13_4 C 0.91384(11) 0.77230(9) 0.12417(18)
H8_4 H 0.8741 0.7619 0.0423
C14_4 C 0.95918(11) 0.83174(10) 0.30721(18)
H9_4 H 0.9521 0.8643 0.3547
C30_4 C 0.98022(12) 0.26091(10) 0.17011(19)
H17_4 H 0.9861 0.2928 0.1198
C31_4 C 0.91384(11) 0.22770(9) 0.12417(18)
H18_4 H 0.8741 0.2381 0.0423
C32_4 C 0.95918(11) 0.16826(10) 0.30721(18)
H19_4 H 0.9521 0.1357 0.3547
loop_
_geom_bond_atom_site_label_1
_geom_bond_atom_site_label_2
_geom_bond_site_symmetry_1
_geom_bond_site_symmetry_2
Ni1 O1 1_555 1_555
O1 C16 1_555 1_555
O2 Ni1 1_555 1_555
O3 Ni1 1_555 1_555
O4 Ni1 1_555 1_555
N7 C1 1_555 1_555
N2 C6 1_555 1_555
N3 C13 1_555 1_555
C1 H1 1_555 1_555
C2 C1 1_555 1_555
H2 C2 1_555 1_555
C3 C2 1_555 1_555
C4 C3 1_555 1_555
H3 C4 1_555 1_555
C5 N7 1_555 1_555
H4 C5 1_555 1_555
C6 C3 1_555 1_555
C7 C6 1_555 1_555
H5 C7 1_555 1_555
C8 C7 1_555 1_555
C9 C8 1_555 1_555
H6 C9 1_555 1_555
C10 N2 1_555 1_555
C11 C10 1_555 1_555
C12 C11 1_555 1_555
H7 C12 1_555 1_555
C13 C12 1_555 1_555
H8 C13 1_555 1_555
C14 N3 1_555 1_555
H9 C14 1_555 1_555
C15 C11 1_555 1_555
H10 C15 1_555 1_555
C16 O2 1_555 1_555
C17 O4 1_555 1_555
C18 O3 1_555 1_555
Ni6 N3 1_555 1_555
N10 Ni1 1_555 1_555
C4 C5 1_555 1_555
C8 C16 1_555 1_555
C9 C10 1_555 1_555
C14 C15 1_555 1_555
C17 C18 1_555 1_555
O5 C18_2 1_555 1_555
O6 C17_2 1_555 1_555
Ni2 O5 1_555 1_555
O7 Ni2 1_555 1_555
O8 Ni2 1_555 1_555
N8 C19 1_555 1_555
N5 C24 1_555 1_555
N6 C31 1_555 1_555
C19 H11 1_555 1_555
C20 C19 1_555 1_555
H12 C20 1_555 1_555
C21 C20 1_555 1_555
C22 C21 1_555 1_555
H13 C22 1_555 1_555
C23 N8 1_555 1_555
H14 C23 1_555 1_555
C24 C21 1_555 1_555
C25 C24 1_555 1_555
H15 C25 1_555 1_555
C26 C25 1_555 1_555
C27 C26 1_555 1_555
H16 C27 1_555 1_555
C28 N5 1_555 1_555
C29 C28 1_555 1_555
C30 C29 1_555 1_555
H17 C30 1_555 1_555
C31 C30 1_555 1_555
H18 C31 1_555 1_555
C32 N6 1_555 1_555
H19 C32 1_555 1_555
C33 C29 1_555 1_555
H20 C33 1_555 1_555
C34 O7 1_555 1_555
Ni4 N6 1_555 1_555
N9 Ni2 1_555 1_555
C17_2 C18_2 1_555 1_555
O6 Ni2 1_555 1_555
O8 C34 1_555 1_555
C22 C23 1_555 1_555
C26 C34 1_555 1_555
C27 C28 1_555 1_555
C32 C33 1_555 1_555
N9 C13_2 1_555 1_555
H7_2 C12_2 1_555 1_555
C13_2 C12_2 1_555 1_555
H8_2 C13_2 1_555 1_555
C14_2 N9 1_555 1_555
H9_2 C14_2 1_555 1_555
N10 C31_2 1_555 1_555
H17_2 C30_2 1_555 1_555
C31_2 C30_2 1_555 1_555
H18_2 C31_2 1_555 1_555
C32_2 N10 1_555 1_555
H19_2 C32_2 1_555 1_555
Ni4 O1_2 1_555 1_555
O1_2 C16_2 1_555 1_555
O2_2 Ni4 1_555 1_555
O3_2 Ni4 1_555 1_555
O4_2 Ni4 1_555 1_555
N7_2 C1_2 1_555 1_555
N2_2 C6_2 1_555 1_555
C1_2 H1_2 1_555 1_555
C2_2 C1_2 1_555 1_555
H2_2 C2_2 1_555 1_555
C3_2 C2_2 1_555 1_555
C4_2 C3_2 1_555 1_555
H3_2 C4_2 1_555 1_555
C5_2 N7_2 1_555 1_555
H4_2 C5_2 1_555 1_555
C6_2 C3_2 1_555 1_555
C7_2 C6_2 1_555 1_555
H5_2 C7_2 1_555 1_555
C8_2 C7_2 1_555 1_555
C9_2 C8_2 1_555 1_555
H6_2 C9_2 1_555 1_555
C10_2 N2_2 1_555 1_555
C11_2 C10_2 1_555 1_555
C15_2 C11_2 1_555 1_555
H10_2 C15_2 1_555 1_555
C16_2 O2_2 1_555 1_555
C17_3 O4_2 1_555 1_555
C18_3 O3_2 1_555 1_555
O5_2 C18_3 1_555 1_555
O6_2 C17_3 1_555 1_555
Ni6 O5_2 1_555 1_555
O7_2 Ni6 1_555 1_555
O8_2 Ni6 1_555 1_555
N8_2 C19_2 1_555 1_555
N5_2 C24_2 1_555 1_555
C19_2 H11_2 1_555 1_555
C20_2 C19_2 1_555 1_555
H12_2 C20_2 1_555 1_555
C21_2 C20_2 1_555 1_555
C22_2 C21_2 1_555 1_555
H13_2 C22_2 1_555 1_555
C23_2 N8_2 1_555 1_555
H14_2 C23_2 1_555 1_555
C24_2 C21_2 1_555 1_555
C25_2 C24_2 1_555 1_555
H15_2 C25_2 1_555 1_555
C26_2 C25_2 1_555 1_555
C27_2 C26_2 1_555 1_555
H16_2 C27_2 1_555 1_555
C28_2 N5_2 1_555 1_555
C29_2 C28_2 1_555 1_555
C33_2 C29_2 1_555 1_555
H20_2 C33_2 1_555 1_555
C34_2 O7_2 1_555 1_555
C4_2 C5_2 1_555 1_555
C8_2 C16_2 1_555 1_555
C9_2 C10_2 1_555 1_555
C17_3 C18_3 1_555 1_555
O6_2 Ni6 1_555 1_555
O8_2 C34_2 1_555 1_555
C22_2 C23_2 1_555 1_555
C26_2 C34_2 1_555 1_555
C27_2 C28_2 1_555 1_555
Ni3 O1_3 1_555 1_555
O1_3 C16_3 1_555 1_555
O2_3 Ni3 1_555 1_555
O3_3 Ni3 1_555 1_555
O4_3 Ni3 1_555 1_555
N1 C1_3 1_555 1_555
N2_3 C6_3 1_555 1_555
N3_2 C13_3 1_555 1_555
C1_3 H1_3 1_555 1_555
C2_3 C1_3 1_555 1_555
H2_3 C2_3 1_555 1_555
C3_3 C2_3 1_555 1_555
C4_3 C3_3 1_555 1_555
H3_3 C4_3 1_555 1_555
C5_3 N1 1_555 1_555
H4_3 C5_3 1_555 1_555
C6_3 C3_3 1_555 1_555
C7_3 C6_3 1_555 1_555
H5_3 C7_3 1_555 1_555
C8_3 C7_3 1_555 1_555
C9_3 C8_3 1_555 1_555
H6_3 C9_3 1_555 1_555
C10_3 N2_3 1_555 1_555
C11_3 C10_3 1_555 1_555
C12_3 C11_3 1_555 1_555
H7_3 C12_3 1_555 1_555
C13_3 C12_3 1_555 1_555
H8_3 C13_3 1_555 1_555
C14_3 N3_2 1_555 1_555
H9_3 C14_3 1_555 1_555
C15_3 C11_3 1_555 1_555
H10_3 C15_3 1_555 1_555
C16_3 O2_3 1_555 1_555
C17_4 O4_3 1_555 1_555
C18_4 O3_3 1_555 1_555
Ni6_2 N3_2 1_555 1_555
N10_2 Ni3 1_555 1_555
C4_3 C5_3 1_555 1_555
C8_3 C16_3 1_555 1_555
C9_3 C10_3 1_555 1_555
C14_3 C15_3 1_555 1_555
C17_4 C18_4 1_555 1_555
O5_3 C18_5 1_555 1_555
O6_3 C17_5 1_555 1_555
Ni5 O5_3 1_555 1_555
O7_3 Ni5 1_555 1_555
O8_3 Ni5 1_555 1_555
N4 C19_3 1_555 1_555
N5_3 C24_3 1_555 1_555
N6_2 C31_3 1_555 1_555
C19_3 H11_3 1_555 1_555
C20_3 C19_3 1_555 1_555
H12_3 C20_3 1_555 1_555
C21_3 C20_3 1_555 1_555
C22_3 C21_3 1_555 1_555
H13_3 C22_3 1_555 1_555
C23_3 N4 1_555 1_555
H14_3 C23_3 1_555 1_555
C24_3 C21_3 1_555 1_555
C25_3 C24_3 1_555 1_555
H15_3 C25_3 1_555 1_555
C26_3 C25_3 1_555 1_555
C27_3 C26_3 1_555 1_555
H16_3 C27_3 1_555 1_555
C28_3 N5_3 1_555 1_555
C29_3 C28_3 1_555 1_555
C30_3 C29_3 1_555 1_555
H17_3 C30_3 1_555 1_555
C31_3 C30_3 1_555 1_555
H18_3 C31_3 1_555 1_555
C32_3 N6_2 1_555 1_555
H19_3 C32_3 1_555 1_555
C33_3 C29_3 1_555 1_555
H20_3 C33_3 1_555 1_555
C34_3 O7_3 1_555 1_555
Ni4_2 N6_2 1_555 1_555
N9_2 Ni5 1_555 1_555
C17_5 C18_5 1_555 1_555
O6_3 Ni5 1_555 1_555
O8_3 C34_3 1_555 1_555
C22_3 C23_3 1_555 1_555
C26_3 C34_3 1_555 1_555
C27_3 C28_3 1_555 1_555
C32_3 C33_3 1_555 1_555
Ni4_2 O1_4 1_555 1_555
O1_4 C16_4 1_555 1_555
O2_4 Ni4_2 1_555 1_555
O3_4 Ni4_2 1_555 1_555
O4_4 Ni4_2 1_555 1_555
N1_2 C1_4 1_555 1_555
N2_4 C6_4 1_555 1_555
C1_4 H1_4 1_555 1_555
C2_4 C1_4 1_555 1_555
H2_4 C2_4 1_555 1_555
C3_4 C2_4 1_555 1_555
C4_4 C3_4 1_555 1_555
H3_4 C4_4 1_555 1_555
C5_4 N1_2 1_555 1_555
H4_4 C5_4 1_555 1_555
C6_4 C3_4 1_555 1_555
C7_4 C6_4 1_555 1_555
H5_4 C7_4 1_555 1_555
C8_4 C7_4 1_555 1_555
C9_4 C8_4 1_555 1_555
H6_4 C9_4 1_555 1_555
C10_4 N2_4 1_555 1_555
C11_4 C10_4 1_555 1_555
C15_4 C11_4 1_555 1_555
H10_4 C15_4 1_555 1_555
C16_4 O2_4 1_555 1_555
C17_6 O4_4 1_555 1_555
C18_6 O3_4 1_555 1_555
O5_4 C18_6 1_555 1_555
O6_4 C17_6 1_555 1_555
Ni6_2 O5_4 1_555 1_555
O7_4 Ni6_2 1_555 1_555
O8_4 Ni6_2 1_555 1_555
N4_2 C19_4 1_555 1_555
N5_4 C24_4 1_555 1_555
C19_4 H11_4 1_555 1_555
C20_4 C19_4 1_555 1_555
H12_4 C20_4 1_555 1_555
C21_4 C20_4 1_555 1_555
C22_4 C21_4 1_555 1_555
H13_4 C22_4 1_555 1_555
C23_4 N4_2 1_555 1_555
H14_4 C23_4 1_555 1_555
C24_4 C21_4 1_555 1_555
C25_4 C24_4 1_555 1_555
H15_4 C25_4 1_555 1_555
C26_4 C25_4 1_555 1_555
C27_4 C26_4 1_555 1_555
H16_4 C27_4 1_555 1_555
C28_4 N5_4 1_555 1_555
C29_4 C28_4 1_555 1_555
C33_4 C29_4 1_555 1_555
H20_4 C33_4 1_555 1_555
C34_4 O7_4 1_555 1_555
C4_4 C5_4 1_555 1_555
C8_4 C16_4 1_555 1_555
C9_4 C10_4 1_555 1_555
C17_6 C18_6 1_555 1_555
O6_4 Ni6_2 1_555 1_555
O8_4 C34_4 1_555 1_555
C22_4 C23_4 1_555 1_555
C26_4 C34_4 1_555 1_555
C27_4 C28_4 1_555 1_555
N9_2 C13_4 1_555 1_555
H7_4 C12_4 1_555 1_555
C13_4 C12_4 1_555 1_555
H8_4 C13_4 1_555 1_555
C14_4 N9_2 1_555 1_555
H9_4 C14_4 1_555 1_555
N10_2 C31_4 1_555 1_555
H17_4 C30_4 1_555 1_555
C31_4 C30_4 1_555 1_555
H18_4 C31_4 1_555 1_555
C32_4 N10_2 1_555 1_555
H19_4 C32_4 1_555 1_555

#END
