
###############################################################################
#
# This file contains modified crystal structure data generated from the
# MOF subset of the Cambridge Structural Database (CSD) v543 
# hosted by the Cambridge Crystallographic Data Centre (CCDC).
#
# This work is licensed under the Creative Commons
# Attribution-NonCommercial-ShareAlike 4.0 International License.
# To view a copy of this license, visit
# http://creativecommons.org/licenses/by-nc-sa/4.0/
# or send a letter to
# Creative Commons, PO Box 1866, Mountain View, CA 94042, USA.
#
# CIF created using the CSD Python API on 29 September 2022
# The structure has been converted into the P1 space group
# The structure has a 3D framework
# The original CSD entry YISVEE is in the orthorhombic crystal system
# The framework has been calculated to contain at least 10.0% void space
# The void calculation uses a probe of radius 1.32A, grid spacing 0.4
# H atom positions have been added when not included in the experimental data
#
###############################################################################

data_YISVEE
_chemical_formula_moiety         '(C352 H252 Ca20 N20 O108)n'
_symmetry_cell_setting           triclinic
_symmetry_space_group_name_H-M   'P 1'
_symmetry_Int_Tables_number      1
_space_group_name_Hall           'P 1'
loop_
_symmetry_equiv_pos_site_id
_symmetry_equiv_pos_as_xyz
1 x,y,z
_cell_length_a                   28.5175(3)
_cell_length_b                   18.6224(2)
_cell_length_c                   23.4007(2)
_cell_angle_alpha                90
_cell_angle_beta                 90
_cell_angle_gamma                90
_cell_volume                     12427.3
loop_
_atom_site_label
_atom_site_type_symbol
_atom_site_fract_x
_atom_site_fract_y
_atom_site_fract_z
Ca4 Ca 0.40198(2) 0.13256(4) 0.59028(3)
Ca5 Ca 0.43665(2) 0.31104(4) 0.68823(3)
Ca6 Ca 0.36876(2) 0.47166(4) 0.67168(3)
O3 O 0.30584(9) 0.50693(17) 0.61789(13)
O4 O 0.32828(9) 0.60219(17) 0.56772(13)
O5 O 0.09599(10) 0.70389(16) 0.22138(13)
O6 O 0.11756(9) 0.59472(16) 0.19605(12)
O8 O 0.00170(9) 0.23597(17) 0.65691(14)
O9 O 0.10969(9) 0.38685(16) 0.25071(13)
O10 O 0.18196(9) 0.42880(16) 0.24433(13)
O11 O 0.36735(10) 0.35460(17) 0.63859(14)
O12 O 0.38735(9) 0.25310(16) 0.59786(13)
O15 O 0.08862(10) 0.20022(16) 0.21877(13)
O16 O 0.11548(9) 0.09302(16) 0.19125(13)
O17 O 0.30231(10) 0.01003(17) 0.61709(13)
O18 O 0.32730(10) 0.10009(17) 0.56255(14)
O19 O 0.47886(9) 0.15853(17) 0.60288(15)
O20 O 0.49964(10) 0.26410(17) 0.63965(15)
O21 O 0.61416(10) 0.10498(17) 0.24762(13)
O22 O 0.68677(9) 0.06267(16) 0.24060(12)
O23 O 0.88928(9) 0.24406(16) 0.59586(13)
O24 O 0.86747(10) 0.14527(17) 0.63958(15)
O25 O 0.49186(12) 0.3168(2) 0.76227(16)
O26 O 0.41696(13) 0.1443(3) 0.49145(17)
N1 N 0.11698(10) 0.06414(19) 0.46713(14)
N2 N 0.17848(11) 0.3089(2) 0.50059(15)
N3 N 0.11908(10) 0.56319(18) 0.47073(14)
N4 N 0.68268(11) 0.1937(2) 0.49403(16)
C3 C 0.03721(12) 0.5754(2) 0.59379(17)
H1 H 0.036749 0.594306 0.630567
C4 C 0.07730(14) 0.5828(2) 0.55979(18)
H2 H 0.103622 0.606012 0.574211
C5 C 0.07787(12) 0.5556(2) 0.50480(17)
C6 C 0.03885(14) 0.5203(2) 0.48303(17)
H3 H 0.039443 0.502227 0.445998
C8 C 0.10753(12) 0.6402(2) 0.23296(16)
C9 C 0.11005(13) 0.6201(2) 0.29578(16)
C10 C 0.07914(13) 0.6497(2) 0.33566(18)
H5 H 0.056533 0.682373 0.323660
C11 C 0.08176(13) 0.6308(2) 0.39319(17)
H6 H 0.060820 0.650737 0.419213
C12 C 0.11528(13) 0.5828(2) 0.41169(17)
C13 C 0.14668(13) 0.5529(2) 0.37249(17)
H7 H 0.169357 0.520495 0.384682
C14 C 0.14382(13) 0.5721(2) 0.31481(17)
H8 H 0.164884 0.552448 0.288823
C15 C 0.29952(13) 0.5552(2) 0.58098(17)
C16 C 0.25186(13) 0.5553(2) 0.55191(17)
C17 C 0.24382(13) 0.5999(2) 0.50572(18)
H9 H 0.268392 0.627805 0.491939
C18 C 0.20046(12) 0.6045(2) 0.47914(18)
H10 H 0.195582 0.636739 0.449351
C19 C 0.16372(12) 0.5593(2) 0.49825(15)
C20 C 0.17249(13) 0.5137(2) 0.54309(17)
H11 H 0.148776 0.483229 0.555524
C21 C 0.21538(13) 0.5118(2) 0.57030(17)
H12 H 0.219880 0.481080 0.601160
C22 C 0.00835(13) 0.2919(2) 0.6276(2)
C23 C 0.05379(14) 0.2983(2) 0.59801(19)
C24 C 0.05888(13) 0.3495(2) 0.55333(19)
H13 H 0.034146 0.380276 0.544847
C25 C 0.09998(13) 0.3543(2) 0.52234(19)
H14 H 0.103398 0.388875 0.493994
C26 C 0.13723(12) 0.3051(2) 0.53454(19)
C27 C 0.13292(12) 0.2577(2) 0.57933(18)
H15 H 0.157744 0.227436 0.588549
C28 C 0.09189(13) 0.2547(2) 0.61070(19)
H16 H 0.089752 0.222748 0.641098
C29 C 0.15082(13) 0.3942(2) 0.27111(17)
C30 C 0.20028(13) 0.3893(2) 0.35815(18)
H17 H 0.221689 0.419332 0.340094
C31 C 0.16148(13) 0.3636(2) 0.32799(17)
C32 C 0.13073(14) 0.3158(3) 0.35426(19)
H18 H 0.104932 0.298306 0.334327
C33 C 0.13861(14) 0.2943(2) 0.41018(18)
H19 H 0.119148 0.260135 0.426841
C34 C 0.17564(13) 0.3236(2) 0.44170(17)
C35 C 0.20725(13) 0.3699(2) 0.41590(18)
H20 H 0.232664 0.387840 0.436271
C36 C 0.35808(13) 0.3028(2) 0.60677(17)
C37 C 0.31113(13) 0.3015(2) 0.57989(17)
C38 C 0.27303(13) 0.3338(2) 0.60728(18)
H21 H 0.277379 0.355214 0.642787
C39 C 0.22887(12) 0.3345(2) 0.58251(17)
H22 H 0.203484 0.353676 0.602219
C40 C 0.22283(13) 0.3064(2) 0.52847(18)
C41 C 0.26115(13) 0.2736(2) 0.49978(16)
H23 H 0.257461 0.254258 0.463415
C42 C 0.30394(14) 0.2710(2) 0.52714(18)
H24 H 0.328824 0.247871 0.509248
C46 C 0.03633(13) 0.0200(2) 0.48089(16)
C47 C 0.07593(12) 0.0589(2) 0.50128(16)
C48 C 0.07343(13) 0.0886(2) 0.55559(18)
H27 H 0.099093 0.113719 0.569750
C49 C 0.03438(14) 0.0818(2) 0.58874(18)
H28 H 0.033502 0.103515 0.624509
C50 C 0.29649(13) 0.0549(2) 0.57840(18)
C51 C 0.24995(13) 0.0579(2) 0.54948(17)
C52 C 0.24261(14) 0.1025(2) 0.50049(18)
H29 H 0.267041 0.130168 0.486031
C53 C 0.19878(13) 0.1042(2) 0.47469(17)
H30 H 0.193969 0.134047 0.443344
C54 C 0.16190(13) 0.0623(2) 0.49477(17)
C55 C 0.16951(13) 0.0174(2) 0.54121(17)
C56 C 0.21208(13) 0.0164(2) 0.56919(17)
C57 C 0.10300(13) 0.1381(2) 0.22934(17)
C58 C 0.10621(13) 0.1163(2) 0.29110(17)
C59 C 0.07406(13) 0.1437(2) 0.33121(17)
H33 H 0.050270 0.174289 0.319150
C60 C 0.07751(13) 0.1256(2) 0.38819(17)
H34 H 0.055857 0.144167 0.413971
C61 C 0.11287(12) 0.0800(2) 0.40804(16)
C62 C 0.14402(13) 0.0519(2) 0.36795(18)
H35 H 0.167156 0.020123 0.380019
C63 C 0.14150(13) 0.0698(2) 0.31131(17)
H36 H 0.163338 0.051033 0.285844
C64 C 0.50717(14) 0.2086(3) 0.6116(2)
C65 C 0.55435(13) 0.2017(2) 0.58329(19)
C66 C 0.59085(13) 0.2496(2) 0.59622(19)
H37 H 0.586227 0.284913 0.623776
C67 C 0.63356(12) 0.2451(2) 0.56855(18)
H38 H 0.657791 0.276102 0.578465
C68 C 0.64027(13) 0.1944(2) 0.52610(18)
C69 C 0.60454(14) 0.1463(2) 0.51427(19)
H39 H 0.609356 0.110952 0.486808
C70 C 0.56177(13) 0.1495(2) 0.5423(2)
H40 H 0.538229 0.116700 0.533635
C71 C 0.65633(13) 0.1000(2) 0.26659(19)
C72 C 0.66656(13) 0.1325(2) 0.32290(18)
C73 C 0.63556(15) 0.1807(3) 0.34772(19)
H41 H 0.609834 0.197333 0.327200
C74 C 0.64309(14) 0.2038(2) 0.40321(19)
H42 H 0.623408 0.238269 0.419091
C75 C 0.67972(13) 0.1760(2) 0.43530(19)
C76 C 0.71297(13) 0.1306(2) 0.40965(19)
H43 H 0.738967 0.114700 0.430045
C77 C 0.70626(13) 0.1100(2) 0.35354(18)
H44 H 0.728360 0.080820 0.335792
C78 C 0.85927(13) 0.1959(2) 0.60530(17)
C79 C 0.81339(13) 0.1971(2) 0.57581(18)
C80 C 0.80812(13) 0.2295(2) 0.52238(18)
H45 H 0.833346 0.252425 0.505038
C81 C 0.76471(14) 0.2270(2) 0.49543(18)
H46 H 0.761188 0.246742 0.459169
C82 C 0.72628(12) 0.1951(2) 0.52254(17)
C83 C 0.73193(14) 0.1637(2) 0.57688(19)
H47 H 0.706356 0.143294 0.595455
C84 C 0.77489(13) 0.1633(2) 0.60207(18)
H48 H 0.778876 0.140404 0.637069
H53 H 0.026914 0.268715 0.402507
H57 H 0.006123 0.230441 0.504776
Ca7 Ca 0.90309(2) 0.36579(4) 0.59663(3)
Ca8 Ca 0.09691(2) 0.63421(4) 0.09663(3)
Ca9 Ca 0.40309(2) 0.63421(4) 0.59663(3)
Ca10 Ca 0.93451(2) 0.18605(4) 0.69415(3)
Ca11 Ca 0.06549(2) 0.81395(4) 0.19415(3)
Ca12 Ca 0.56549(2) 0.18605(4) 0.19415(3)
Ca13 Ca 0.63319(2) 0.02674(4) 0.16757(3)
Ca16 Ca 0.86681(2) 0.02674(4) 0.66757(3)
Ca17 Ca 0.09802(2) 0.13256(4) 0.09028(3)
Ca19 Ca 0.06335(2) 0.31104(4) 0.18823(3)
Ca21 Ca 0.13124(2) 0.47166(4) 0.17168(3)
O29 O 0.42323(9) 0.51190(15) 0.59548(12)
O30 O 0.45272(9) 0.43140(15) 0.65577(12)
O34 O 0.38244(9) 0.59472(16) 0.69605(12)
O35 O 0.39031(9) 0.38685(16) 0.75071(13)
O36 O 0.31804(9) 0.42880(16) 0.74433(13)
O38 O 0.42100(9) 0.00835(16) 0.59110(12)
O39 O 0.41138(10) 0.20022(16) 0.71877(13)
O40 O 0.38452(9) 0.09302(16) 0.69125(13)
H58 H 0.443617 0.177788 0.485524
H59 H 0.424934 0.0965748 0.475208
H62 H 0.475653 0.31166 0.799604
H63 H 0.515024 0.277405 0.757692
Ca3 Ca 0.36681(2) 0.97326(4) 0.66757(3)
H26 H 0.036921 0.999442 0.444678
H31 H 0.145496 0.987446 0.553675
H32 H 0.215779 0.987931 0.601517
Ca14 Ca 0.13319(2) 0.97326(4) 0.16757(3)
O37 O 0.45124(9) 0.93154(16) 0.65298(12)
O41 O 0.38584(10) 0.89502(17) 0.74762(13)
O43 O 0.31323(9) 0.93733(16) 0.74060(12)
O46 O 0.36747(10) 0.85473(17) 0.63958(15)
O1 O 0.92323(9) 0.48810(15) 0.59548(12)
O2 O 0.95272(9) 0.56860(15) 0.65577(12)
O7 O 0.97853(10) 0.34153(17) 0.62046(14)
O13 O 0.95124(9) 0.06846(16) 0.65298(12)
O27 O 0.97917(13) 0.1734(2) 0.77498(17)
O28 O 0.92132(12) 0.3510(2) 0.50108(14)
N5 N 0.96784(14) 0.2845(3) 0.44699(19)
C1 C 0.95556(13) 0.5310(2) 0.60996(17)
C2 C 0.99798(13) 0.5397(2) 0.57248(17)
C7 C 0.99840(13) 0.5119(2) 0.51683(17)
H4 H 0.972268 0.488124 0.502409
C43 C 0.95316(13) 0.03385(19) 0.60709(18)
C44 C 0.99523(13) 0.0422(2) 0.56945(17)
C45 C 0.99708(13) 0.0128(2) 0.51491(17)
C85 C 0.94191(14) 0.3419(3) 0.4551(2)
C86 C 0.9374(2) 0.3949(4) 0.4074(3)
H49 H 0.968066 0.407131 0.393468
H50 H 0.922090 0.437382 0.421202
H51 H 0.919298 0.374210 0.377054
C87 C 0.9941(2) 0.2730(3) 0.3939(3)
H52 H 0.983392 0.229693 0.375850
H54 H 0.989230 0.312918 0.368720
C88 C 0.9743(2) 0.2294(3) 0.4914(3)
H55 H 0.967509 0.182872 0.475784
H56 H 0.953458 0.238892 0.522767
Ca20 Ca 0.93665(2) 0.68896(4) 0.68823(3)
Ca22 Ca 0.86876(2) 0.52834(4) 0.67168(3)
O31 O 0.82828(9) 0.39781(17) 0.56772(13)
O32 O 0.90401(10) 0.29611(16) 0.72138(13)
O33 O 0.88244(9) 0.40528(16) 0.69605(12)
O42 O 0.88584(10) 0.10498(17) 0.74762(13)
H60 H 0.989951 0.221377 0.788032
H61 H 0.960112 0.150578 0.805499
O14 O 0.92100(9) 0.99165(16) 0.59110(12)
H25 H 0.971288 0.987693 0.501026
Ca18 Ca 0.90198(2) 0.86744(4) 0.59028(3)
O14_2 O 0.07900(9) 0.00835(16) 0.09110(12)
H25_2 H 0.028712 0.012307 0.001026
O1_2 O 0.07677(9) 0.51190(15) 0.09548(12)
O2_2 O 0.04728(9) 0.43140(15) 0.15577(12)
O7_2 O 0.02147(10) 0.65847(17) 0.12046(14)
O13_2 O 0.04876(9) 0.93154(16) 0.15298(12)
O27_2 O 0.02083(13) 0.8266(2) 0.27498(17)
O28_2 O 0.07868(12) 0.6490(2) 0.00108(14)
C1_2 C 0.04444(13) 0.4690(2) 0.10996(17)
C2_2 C 0.00202(13) 0.4603(2) 0.07248(17)
C7_2 C 0.00160(13) 0.4881(2) 0.01683(17)
H4_2 H 0.027732 0.511876 0.002409
C43_2 C 0.04684(13) 0.96615(19) 0.10709(18)
C44_2 C 0.00477(13) 0.9578(2) 0.06945(17)
C45_2 C 0.00292(13) 0.9872(2) 0.01491(17)
H56_2 H 0.046542 0.761108 0.022767
O31_2 O 0.17172(9) 0.60219(17) 0.06772(13)
O42_2 O 0.11416(10) 0.89502(17) 0.24762(13)
O44 O 0.11072(9) 0.75594(16) 0.09586(13)
O45 O 0.13253(10) 0.85473(17) 0.13958(15)
H60_2 H 0.0100489 0.778623 0.288032
H61_2 H 0.0398879 0.849422 0.305499
H31_2 H 0.854504 0.012554 0.053675
H32_2 H 0.784221 0.012069 0.101517
O37_2 O 0.54876(9) 0.06846(16) 0.15298(12)
O46_2 O 0.63253(10) 0.14527(17) 0.13958(15)
H26_2 H 0.963079 0.000558 0.944678
Ca4_2 Ca 0.59802(2) 0.86744(4) 0.09028(3)
Ca5_2 Ca 0.56335(2) 0.68896(4) 0.18823(3)
Ca6_2 Ca 0.63124(2) 0.52834(4) 0.17168(3)
O3_2 O 0.69416(9) 0.49307(17) 0.11789(13)
O4_2 O 0.67172(9) 0.39781(17) 0.06772(13)
O8_2 O 0.99830(9) 0.76403(17) 0.15691(14)
O11_2 O 0.63265(10) 0.64540(17) 0.13859(14)
O12_2 O 0.61265(9) 0.74690(16) 0.09786(13)
O17_2 O 0.69769(10) 0.98997(17) 0.11709(13)
O18_2 O 0.67270(10) 0.89991(17) 0.06255(14)
O19_2 O 0.52114(9) 0.84147(17) 0.10288(15)
O20_2 O 0.50036(10) 0.73590(17) 0.13965(15)
O25_2 O 0.50814(12) 0.6832(2) 0.26227(16)
N2_2 N 0.82152(11) 0.6911(2) 0.00059(15)
C3_2 C 0.96279(12) 0.4246(2) 0.09379(17)
H1_2 H 0.963251 0.405694 0.130567
C4_2 C 0.92270(14) 0.4172(2) 0.05979(18)
H2_2 H 0.896378 0.393988 0.074211
C5_2 C 0.92213(12) 0.4444(2) 0.00480(17)
C15_2 C 0.70048(13) 0.4448(2) 0.08098(17)
C16_2 C 0.74814(13) 0.4447(2) 0.05191(17)
C17_2 C 0.75618(13) 0.4001(2) 0.00572(18)
C20_2 C 0.82751(13) 0.4863(2) 0.04309(17)
H11_2 H 0.851224 0.516771 0.055524
C21_2 C 0.78462(13) 0.4882(2) 0.07030(17)
H12_2 H 0.780120 0.518920 0.101160
C22_2 C 0.99165(13) 0.7081(2) 0.1276(2)
C23_2 C 0.94621(14) 0.7017(2) 0.09801(19)
C24_2 C 0.94112(13) 0.6505(2) 0.05333(19)
H13_2 H 0.965854 0.619724 0.044847
C25_2 C 0.90002(13) 0.6457(2) 0.02234(19)
C26_2 C 0.86277(12) 0.6949(2) 0.03454(19)
C27_2 C 0.86708(12) 0.7423(2) 0.07933(18)
H15_2 H 0.842256 0.772564 0.088549
C28_2 C 0.90811(13) 0.7453(2) 0.11070(19)
H16_2 H 0.910248 0.777252 0.141098
C36_2 C 0.64192(13) 0.6972(2) 0.10677(17)
C37_2 C 0.68887(13) 0.6985(2) 0.07989(17)
C38_2 C 0.72697(13) 0.6662(2) 0.10728(18)
H21_2 H 0.722621 0.644786 0.142787
C39_2 C 0.77113(12) 0.6655(2) 0.08251(17)
H22_2 H 0.796516 0.646324 0.102219
C40_2 C 0.77717(13) 0.6936(2) 0.02847(18)
C42_2 C 0.69606(14) 0.7290(2) 0.02714(18)
H24_2 H 0.671176 0.752129 0.009248
C47_2 C 0.92407(12) 0.9411(2) 0.00128(16)
C48_2 C 0.92657(13) 0.9114(2) 0.05559(18)
H27_2 H 0.900907 0.886281 0.069750
C49_2 C 0.96562(14) 0.9182(2) 0.08874(18)
H28_2 H 0.966498 0.896485 0.124509
C50_2 C 0.70351(13) 0.9451(2) 0.07840(18)
C51_2 C 0.75005(13) 0.9421(2) 0.04948(17)
C52_2 C 0.75739(14) 0.8975(2) 0.00049(18)
C55_2 C 0.83049(13) 0.9826(2) 0.04121(17)
C56_2 C 0.78792(13) 0.9836(2) 0.06919(17)
C64_2 C 0.49283(14) 0.7914(3) 0.1116(2)
C65_2 C 0.44565(13) 0.7983(2) 0.08329(19)
C66_2 C 0.40915(13) 0.7504(2) 0.09622(19)
H37_2 H 0.413773 0.715087 0.123776
C67_2 C 0.36644(12) 0.7549(2) 0.06855(18)
H38_2 H 0.342209 0.723898 0.078465
C68_2 C 0.35973(13) 0.8056(2) 0.02610(18)
C69_2 C 0.39546(14) 0.8537(2) 0.01427(19)
C70_2 C 0.43823(13) 0.8505(2) 0.0423(2)
H40_2 H 0.461771 0.883300 0.033635
C78_2 C 0.14073(13) 0.8041(2) 0.10530(17)
C79_2 C 0.18661(13) 0.8029(2) 0.07581(18)
C80_2 C 0.19188(13) 0.7705(2) 0.02238(18)
H45_2 H 0.166654 0.747575 0.005038
C82_2 C 0.27372(12) 0.8049(2) 0.02254(17)
C83_2 C 0.26807(14) 0.8363(2) 0.07688(19)
H47_2 H 0.293644 0.856706 0.095455
C84_2 C 0.22511(13) 0.8367(2) 0.10207(18)
H48_2 H 0.221124 0.859596 0.137069
H57_2 H 0.993877 0.769559 0.004776
Ca9_2 Ca 0.59691(2) 0.36579(4) 0.09663(3)
O29_2 O 0.57677(9) 0.48810(15) 0.09548(12)
O30_2 O 0.54728(9) 0.56860(15) 0.15577(12)
O34_2 O 0.61756(9) 0.40528(16) 0.19605(12)
O35_2 O 0.60969(9) 0.61315(16) 0.25071(13)
O36_2 O 0.68196(9) 0.57120(16) 0.24433(13)
O38_2 O 0.57900(9) 0.99165(16) 0.09110(12)
O39_2 O 0.58862(10) 0.79978(16) 0.21877(13)
O40_2 O 0.61548(9) 0.90698(16) 0.19125(13)
H62_2 H 0.524347 0.68834 0.299604
H63_2 H 0.484976 0.722595 0.257692
O9_2 O 0.89031(9) 0.61315(16) 0.75071(13)
O10_2 O 0.81804(9) 0.57120(16) 0.74433(13)
O15_2 O 0.91138(10) 0.79978(16) 0.71877(13)
O16_2 O 0.88452(9) 0.90698(16) 0.69125(13)
O26_2 O 0.58304(13) 0.8557(3) 0.99145(17)
N1_2 N 0.88302(10) 0.93586(19) 0.96713(14)
N3_2 N 0.88092(10) 0.43681(18) 0.97073(14)
N4_2 N 0.31732(11) 0.8063(2) 0.99403(16)
C6_2 C 0.96115(14) 0.4797(2) 0.98303(17)
H3_2 H 0.960557 0.497773 0.945998
C8_2 C 0.89247(12) 0.3598(2) 0.73296(16)
C9_2 C 0.88995(13) 0.3799(2) 0.79578(16)
C10_2 C 0.92086(13) 0.3503(2) 0.83566(18)
H5_2 H 0.943467 0.317627 0.823660
C11_2 C 0.91824(13) 0.3692(2) 0.89319(17)
H6_2 H 0.939180 0.349263 0.919213
C12_2 C 0.88472(13) 0.4172(2) 0.91169(17)
C13_2 C 0.85332(13) 0.4471(2) 0.87249(17)
H7_2 H 0.830643 0.479505 0.884682
C14_2 C 0.85618(13) 0.4279(2) 0.81481(17)
H8_2 H 0.835116 0.447552 0.788823
H9_2 H 0.731608 0.372195 0.991939
C18_2 C 0.79954(12) 0.3955(2) 0.97914(18)
H10_2 H 0.804418 0.363261 0.949351
C19_2 C 0.83628(12) 0.4407(2) 0.99825(15)
H14_2 H 0.896602 0.611125 0.993994
C29_2 C 0.84918(13) 0.6058(2) 0.77111(17)
C30_2 C 0.79972(13) 0.6107(2) 0.85815(18)
H17_2 H 0.778311 0.580668 0.840094
C31_2 C 0.83852(13) 0.6364(2) 0.82799(17)
C32_2 C 0.86927(14) 0.6842(3) 0.85426(19)
H18_2 H 0.895068 0.701694 0.834327
C33_2 C 0.86139(14) 0.7057(2) 0.91018(18)
H19_2 H 0.880852 0.739865 0.926841
C34_2 C 0.82436(13) 0.6764(2) 0.94170(17)
C35_2 C 0.79275(13) 0.6301(2) 0.91590(18)
H20_2 H 0.767336 0.612160 0.936271
C41_2 C 0.73885(13) 0.7264(2) 0.99978(16)
H23_2 H 0.742539 0.745742 0.963415
C46_2 C 0.96367(13) 0.9800(2) 0.98089(16)
H29_2 H 0.732959 0.869832 0.986031
C53_2 C 0.80122(13) 0.8958(2) 0.97469(17)
H30_2 H 0.806031 0.865953 0.943344
C54_2 C 0.83810(13) 0.9377(2) 0.99477(17)
C57_2 C 0.89700(13) 0.8619(2) 0.72934(17)
C58_2 C 0.89379(13) 0.8837(2) 0.79110(17)
C59_2 C 0.92594(13) 0.8563(2) 0.83121(17)
H33_2 H 0.949730 0.825711 0.819150
C60_2 C 0.92249(13) 0.8744(2) 0.88819(17)
H34_2 H 0.944143 0.855833 0.913971
C61_2 C 0.88713(12) 0.9200(2) 0.90804(16)
C62_2 C 0.85598(13) 0.9481(2) 0.86795(18)
H35_2 H 0.832844 0.979877 0.880019
C63_2 C 0.85850(13) 0.9302(2) 0.81131(17)
H36_2 H 0.836662 0.948967 0.785844
H39_2 H 0.390644 0.889048 0.986808
C71_2 C 0.34367(13) 0.9000(2) 0.76659(19)
C72_2 C 0.33344(13) 0.8675(2) 0.82290(18)
C73_2 C 0.36444(15) 0.8193(3) 0.84772(19)
H41_2 H 0.390166 0.802667 0.827200
C74_2 C 0.35691(14) 0.7962(2) 0.90321(19)
H42_2 H 0.376592 0.761731 0.919091
C75_2 C 0.32028(13) 0.8240(2) 0.93530(19)
C76_2 C 0.28703(13) 0.8694(2) 0.90965(19)
H43_2 H 0.261033 0.885300 0.930045
C77_2 C 0.29374(13) 0.8900(2) 0.85354(18)
H44_2 H 0.271640 0.919180 0.835792
C81_2 C 0.23529(14) 0.7730(2) 0.99543(18)
H46_2 H 0.238812 0.753258 0.959169
H53_2 H 0.973086 0.731285 0.902507
Ca12_2 Ca 0.43451(2) 0.81395(4) 0.69415(3)
H58_2 H 0.556383 0.822212 0.985524
H59_2 H 0.575066 0.903425 0.975208
O3_3 O 0.19416(9) 0.50693(17) 0.11789(13)
O7_3 O 0.52147(10) 0.34153(17) 0.12046(14)
O8_3 O 0.49830(9) 0.23597(17) 0.15691(14)
O11_3 O 0.13265(10) 0.35460(17) 0.13859(14)
O12_3 O 0.11265(9) 0.25310(16) 0.09786(13)
O17_3 O 0.19769(10) 0.01003(17) 0.11709(13)
O18_3 O 0.17270(10) 0.10009(17) 0.06255(14)
O19_3 O 0.02114(9) 0.15853(17) 0.10288(15)
O20_3 O 0.00036(10) 0.26410(17) 0.13965(15)
O25_3 O 0.00814(12) 0.3168(2) 0.26227(16)
O27_3 O 0.52083(13) 0.1734(2) 0.27498(17)
O28_3 O 0.57868(12) 0.3510(2) 0.00108(14)
N2_3 N 0.32152(11) 0.3089(2) 0.00059(15)
C1_3 C 0.54444(13) 0.5310(2) 0.10996(17)
C2_3 C 0.50202(13) 0.5397(2) 0.07248(17)
C3_3 C 0.46279(12) 0.5754(2) 0.09379(17)
H1_3 H 0.463251 0.594306 0.130567
C4_3 C 0.42270(14) 0.5828(2) 0.05979(18)
H2_3 H 0.396378 0.606012 0.074211
C5_3 C 0.42213(12) 0.5556(2) 0.00480(17)
C7_3 C 0.50160(13) 0.5119(2) 0.01683(17)
H4_3 H 0.527732 0.488124 0.002409
C15_3 C 0.20048(13) 0.5552(2) 0.08098(17)
C16_3 C 0.24814(13) 0.5553(2) 0.05191(17)
C17_3 C 0.25618(13) 0.5999(2) 0.00572(18)
C20_3 C 0.32751(13) 0.5137(2) 0.04309(17)
H11_3 H 0.351224 0.483229 0.055524
C21_3 C 0.28462(13) 0.5118(2) 0.07030(17)
H12_3 H 0.280120 0.481080 0.101160
C22_3 C 0.49165(13) 0.2919(2) 0.1276(2)
C23_3 C 0.44621(14) 0.2983(2) 0.09801(19)
C24_3 C 0.44112(13) 0.3495(2) 0.05333(19)
H13_3 H 0.465854 0.380276 0.044847
C25_3 C 0.40002(13) 0.3543(2) 0.02234(19)
C26_3 C 0.36277(12) 0.3051(2) 0.03454(19)
C27_3 C 0.36708(12) 0.2577(2) 0.07933(18)
H15_3 H 0.342256 0.227436 0.088549
C28_3 C 0.40811(13) 0.2547(2) 0.11070(19)
H16_3 H 0.410248 0.222748 0.141098
C36_3 C 0.14192(13) 0.3028(2) 0.10677(17)
C37_3 C 0.18887(13) 0.3015(2) 0.07989(17)
C38_3 C 0.22697(13) 0.3338(2) 0.10728(18)
H21_3 H 0.222621 0.355214 0.142787
C39_3 C 0.27113(12) 0.3345(2) 0.08251(17)
H22_3 H 0.296516 0.353676 0.102219
C40_3 C 0.27717(13) 0.3064(2) 0.02847(18)
C42_3 C 0.19606(14) 0.2710(2) 0.02714(18)
H24_3 H 0.171176 0.247871 0.009248
C43_3 C 0.54684(13) 0.03385(19) 0.10709(18)
C44_3 C 0.50477(13) 0.0422(2) 0.06945(17)
C45_3 C 0.50292(13) 0.0128(2) 0.01491(17)
C47_3 C 0.42407(12) 0.0589(2) 0.00128(16)
C48_3 C 0.42657(13) 0.0886(2) 0.05559(18)
H27_3 H 0.400907 0.113719 0.069750
C49_3 C 0.46562(14) 0.0818(2) 0.08874(18)
H28_3 H 0.466498 0.103515 0.124509
C50_3 C 0.20351(13) 0.0549(2) 0.07840(18)
C51_3 C 0.25005(13) 0.0579(2) 0.04948(17)
C52_3 C 0.25739(14) 0.1025(2) 0.00049(18)
C55_3 C 0.33049(13) 0.0174(2) 0.04121(17)
C56_3 C 0.28792(13) 0.0164(2) 0.06919(17)
H56_3 H 0.546542 0.238892 0.022767
H57_3 H 0.493877 0.230441 0.004776
O32_2 O 0.59599(10) 0.29611(16) 0.22138(13)
O44_2 O 0.61072(9) 0.24406(16) 0.09586(13)
H60_3 H 0.510049 0.221377 0.288032
H61_3 H 0.539888 0.150578 0.305499
H62_3 H 0.0243472 0.31166 0.299604
O5_2 O 0.40401(10) 0.70389(16) 0.72138(13)
O26_3 O 0.08304(13) 0.1443(3) 0.99145(17)
N1_3 N 0.38302(10) 0.06414(19) 0.96713(14)
N3_3 N 0.38092(10) 0.56319(18) 0.97073(14)
N5_2 N 0.53216(14) 0.2845(3) 0.94699(19)
C6_3 C 0.46115(14) 0.5203(2) 0.98303(17)
H3_3 H 0.460557 0.502227 0.945998
C8_3 C 0.39247(12) 0.6402(2) 0.73296(16)
C9_3 C 0.38995(13) 0.6201(2) 0.79578(16)
C10_3 C 0.42086(13) 0.6497(2) 0.83566(18)
H5_3 H 0.443467 0.682373 0.823660
C11_3 C 0.41824(13) 0.6308(2) 0.89319(17)
H6_3 H 0.439180 0.650737 0.919213
C12_3 C 0.38472(13) 0.5828(2) 0.91169(17)
C13_3 C 0.35332(13) 0.5529(2) 0.87249(17)
H7_3 H 0.330643 0.520495 0.884682
C14_3 C 0.35618(13) 0.5721(2) 0.81481(17)
H8_3 H 0.335116 0.552448 0.788823
H9_3 H 0.231608 0.627805 0.991939
C18_3 C 0.29954(12) 0.6045(2) 0.97914(18)
H10_3 H 0.304418 0.636739 0.949351
C19_3 C 0.33628(12) 0.5593(2) 0.99825(15)
H14_3 H 0.396602 0.388875 0.993994
C29_3 C 0.34918(13) 0.3942(2) 0.77111(17)
C30_3 C 0.29972(13) 0.3893(2) 0.85815(18)
H17_3 H 0.278311 0.419332 0.840094
C31_3 C 0.33852(13) 0.3636(2) 0.82799(17)
C32_3 C 0.36927(14) 0.3158(3) 0.85426(19)
H18_3 H 0.395068 0.298306 0.834327
C33_3 C 0.36139(14) 0.2943(2) 0.91018(18)
H19_3 H 0.380852 0.260135 0.926841
C34_3 C 0.32436(13) 0.3236(2) 0.94170(17)
C35_3 C 0.29275(13) 0.3699(2) 0.91590(18)
H20_3 H 0.267336 0.387840 0.936271
C41_3 C 0.23885(13) 0.2736(2) 0.99978(16)
H23_3 H 0.242539 0.254258 0.963415
C46_3 C 0.46367(13) 0.0200(2) 0.98089(16)
H29_3 H 0.232959 0.130168 0.986031
C53_3 C 0.30122(13) 0.1042(2) 0.97469(17)
H30_3 H 0.306031 0.134047 0.943344
C54_3 C 0.33810(13) 0.0623(2) 0.99477(17)
C57_3 C 0.39700(13) 0.1381(2) 0.72934(17)
C58_3 C 0.39379(13) 0.1163(2) 0.79110(17)
C59_3 C 0.42594(13) 0.1437(2) 0.83121(17)
H33_3 H 0.449730 0.174289 0.819150
C60_3 C 0.42249(13) 0.1256(2) 0.88819(17)
H34_3 H 0.444143 0.144167 0.913971
C61_3 C 0.38713(12) 0.0800(2) 0.90804(16)
C62_3 C 0.35598(13) 0.0519(2) 0.86795(18)
H35_3 H 0.332844 0.020123 0.880019
C63_3 C 0.35850(13) 0.0698(2) 0.81131(17)
H36_3 H 0.336662 0.051033 0.785844
C85_2 C 0.55809(14) 0.3419(3) 0.9551(2)
C86_2 C 0.5626(2) 0.3949(4) 0.9074(3)
H49_2 H 0.531934 0.407131 0.893468
H50_2 H 0.577910 0.437382 0.921202
H51_2 H 0.580702 0.374210 0.877054
C87_2 C 0.5059(2) 0.2730(3) 0.8939(3)
H52_2 H 0.516608 0.229693 0.875850
H53_3 H 0.473086 0.268715 0.902507
H54_2 H 0.510770 0.312918 0.868720
C88_2 C 0.5257(2) 0.2294(3) 0.9914(3)
H55_2 H 0.532491 0.182872 0.975784
H58_3 H 0.0563827 0.177788 0.985524
H59_3 H 0.0750661 0.0965748 0.975208
H25_3 H 0.528712 0.987693 0.001026
H31_3 H 0.354504 0.987446 0.053675
H32_3 H 0.284221 0.987931 0.101517
O43_2 O 0.18677(9) 0.93733(16) 0.24060(12)
H26_3 H 0.463079 0.999442 0.944678
C64_3 C 0.99283(14) 0.2086(3) 0.1116(2)
C65_3 C 0.94565(13) 0.2017(2) 0.08329(19)
C66_3 C 0.90915(13) 0.2496(2) 0.09622(19)
H37_3 H 0.913773 0.284913 0.123776
C67_3 C 0.86644(12) 0.2451(2) 0.06855(18)
H38_3 H 0.842209 0.276102 0.078465
C68_3 C 0.85973(13) 0.1944(2) 0.02610(18)
C69_3 C 0.89546(14) 0.1463(2) 0.01427(19)
C70_3 C 0.93823(13) 0.1495(2) 0.0423(2)
H40_3 H 0.961771 0.116700 0.033635
C78_3 C 0.64073(13) 0.1959(2) 0.10530(17)
C79_3 C 0.68661(13) 0.1971(2) 0.07581(18)
C80_3 C 0.69188(13) 0.2295(2) 0.02238(18)
H45_3 H 0.666654 0.252425 0.005038
C82_3 C 0.77372(12) 0.1951(2) 0.02254(17)
C83_3 C 0.76807(14) 0.1637(2) 0.07688(19)
H47_3 H 0.793644 0.143294 0.095455
C84_3 C 0.72511(13) 0.1633(2) 0.10207(18)
H48_3 H 0.721124 0.140404 0.137069
H63_3 H 0.984976 0.277405 0.257692
O22_2 O 0.81323(9) 0.06267(16) 0.74060(12)
N4_3 N 0.81732(11) 0.1937(2) 0.99403(16)
H39_3 H 0.890644 0.110952 0.986808
C71_3 C 0.84367(13) 0.1000(2) 0.76659(19)
C72_3 C 0.83344(13) 0.1325(2) 0.82290(18)
C73_3 C 0.86444(15) 0.1807(3) 0.84772(19)
H41_3 H 0.890166 0.197333 0.827200
C74_3 C 0.85691(14) 0.2038(2) 0.90321(19)
H42_3 H 0.876592 0.238269 0.919091
C75_3 C 0.82028(13) 0.1760(2) 0.93530(19)
C76_3 C 0.78703(13) 0.1306(2) 0.90965(19)
H43_3 H 0.761033 0.114700 0.930045
C77_3 C 0.79374(13) 0.1100(2) 0.85354(18)
H44_3 H 0.771640 0.080820 0.835792
C81_3 C 0.73529(14) 0.2270(2) 0.99543(18)
H46_3 H 0.738812 0.246742 0.959169
O23_2 O 0.38928(9) 0.75594(16) 0.59586(13)
N4_4 N 0.18268(11) 0.8063(2) 0.49403(16)
C64_4 C 0.00717(14) 0.7914(3) 0.6116(2)
C65_4 C 0.05435(13) 0.7983(2) 0.58329(19)
C66_4 C 0.09085(13) 0.7504(2) 0.59622(19)
H37_4 H 0.086227 0.715087 0.623776
C67_4 C 0.13356(12) 0.7549(2) 0.56855(18)
H38_4 H 0.157791 0.723898 0.578465
C68_4 C 0.14027(13) 0.8056(2) 0.52610(18)
C69_4 C 0.10454(14) 0.8537(2) 0.51427(19)
H39_4 H 0.109356 0.889048 0.486808
C70_4 C 0.06177(13) 0.8505(2) 0.5423(2)
H40_4 H 0.038229 0.883300 0.533635
C71_4 C 0.15633(13) 0.9000(2) 0.26659(19)
C72_4 C 0.16656(13) 0.8675(2) 0.32290(18)
C73_4 C 0.13556(15) 0.8193(3) 0.34772(19)
H41_4 H 0.109834 0.802667 0.327200
C74_4 C 0.14309(14) 0.7962(2) 0.40321(19)
H42_4 H 0.123408 0.761731 0.419091
C75_4 C 0.17972(13) 0.8240(2) 0.43530(19)
C76_4 C 0.21297(13) 0.8694(2) 0.40965(19)
H43_4 H 0.238967 0.885300 0.430045
C77_4 C 0.20626(13) 0.8900(2) 0.35354(18)
H44_4 H 0.228360 0.919180 0.335792
C78_4 C 0.35927(13) 0.8041(2) 0.60530(17)
C79_4 C 0.31339(13) 0.8029(2) 0.57581(18)
C80_4 C 0.30812(13) 0.7705(2) 0.52238(18)
H45_4 H 0.333346 0.747575 0.505038
C81_4 C 0.26471(14) 0.7730(2) 0.49543(18)
H46_4 H 0.261188 0.753258 0.459169
C82_4 C 0.22628(12) 0.8049(2) 0.52254(17)
C83_4 C 0.23193(14) 0.8363(2) 0.57688(19)
H47_4 H 0.206356 0.856706 0.595455
C84_4 C 0.27489(13) 0.8367(2) 0.60207(18)
H48_4 H 0.278876 0.859596 0.637069
H63_4 H 0.0150237 0.722595 0.757692
H25_4 H 0.471288 0.012307 0.501026
H26_4 H 0.536921 0.000558 0.444678
H31_4 H 0.645496 0.012554 0.553675
H32_4 H 0.715779 0.012069 0.601517
O3_4 O 0.80584(9) 0.49307(17) 0.61789(13)
O7_4 O 0.47853(10) 0.65847(17) 0.62046(14)
O8_4 O 0.50170(9) 0.76403(17) 0.65691(14)
O11_4 O 0.86735(10) 0.64540(17) 0.63859(14)
O12_4 O 0.88735(9) 0.74690(16) 0.59786(13)
O17_4 O 0.80231(10) 0.98997(17) 0.61709(13)
O18_4 O 0.82730(10) 0.89991(17) 0.56255(14)
O19_4 O 0.97886(9) 0.84147(17) 0.60288(15)
O20_4 O 0.99964(10) 0.73590(17) 0.63965(15)
O25_4 O 0.99186(12) 0.6832(2) 0.76227(16)
O26_4 O 0.91696(13) 0.8557(3) 0.49145(17)
O27_4 O 0.47917(13) 0.8266(2) 0.77498(17)
O28_4 O 0.42132(12) 0.6490(2) 0.50108(14)
N1_4 N 0.61698(10) 0.93586(19) 0.46713(14)
N2_4 N 0.67848(11) 0.6911(2) 0.50059(15)
N3_4 N 0.61908(10) 0.43681(18) 0.47073(14)
N5_3 N 0.46784(14) 0.7155(3) 0.44699(19)
C1_4 C 0.45556(13) 0.4690(2) 0.60996(17)
C2_4 C 0.49798(13) 0.4603(2) 0.57248(17)
C3_4 C 0.53721(12) 0.4246(2) 0.59379(17)
H1_4 H 0.536749 0.405694 0.630567
C4_4 C 0.57730(14) 0.4172(2) 0.55979(18)
H2_4 H 0.603622 0.393988 0.574211
C5_4 C 0.57787(12) 0.4444(2) 0.50480(17)
C6_4 C 0.53885(14) 0.4797(2) 0.48303(17)
H3_4 H 0.539443 0.497773 0.445998
C7_4 C 0.49840(13) 0.4881(2) 0.51683(17)
H4_4 H 0.472268 0.511876 0.502409
C8_4 C 0.60753(12) 0.3598(2) 0.23296(16)
C9_4 C 0.61005(13) 0.3799(2) 0.29578(16)
C10_4 C 0.57914(13) 0.3503(2) 0.33566(18)
H5_4 H 0.556533 0.317627 0.323660
C11_4 C 0.58176(13) 0.3692(2) 0.39319(17)
H6_4 H 0.560820 0.349263 0.419213
C12_4 C 0.61528(13) 0.4172(2) 0.41169(17)
C13_4 C 0.64668(13) 0.4471(2) 0.37249(17)
H7_4 H 0.669357 0.479505 0.384682
C14_4 C 0.64382(13) 0.4279(2) 0.31481(17)
H8_4 H 0.664884 0.447552 0.288823
C15_4 C 0.79952(13) 0.4448(2) 0.58098(17)
C16_4 C 0.75186(13) 0.4447(2) 0.55191(17)
C17_4 C 0.74382(13) 0.4001(2) 0.50572(18)
H9_4 H 0.768392 0.372195 0.491939
C18_4 C 0.70046(12) 0.3955(2) 0.47914(18)
H10_4 H 0.695582 0.363261 0.449351
C19_4 C 0.66372(12) 0.4407(2) 0.49825(15)
C20_4 C 0.67249(13) 0.4863(2) 0.54309(17)
H11_4 H 0.648776 0.516771 0.555524
C21_4 C 0.71538(13) 0.4882(2) 0.57030(17)
H12_4 H 0.719880 0.518920 0.601160
C22_4 C 0.50835(13) 0.7081(2) 0.6276(2)
C23_4 C 0.55379(14) 0.7017(2) 0.59801(19)
C24_4 C 0.55888(13) 0.6505(2) 0.55333(19)
H13_4 H 0.534146 0.619724 0.544847
C25_4 C 0.59998(13) 0.6457(2) 0.52234(19)
H14_4 H 0.603398 0.611125 0.493994
C26_4 C 0.63723(12) 0.6949(2) 0.53454(19)
C27_4 C 0.63292(12) 0.7423(2) 0.57933(18)
H15_4 H 0.657744 0.772564 0.588549
C28_4 C 0.59189(13) 0.7453(2) 0.61070(19)
H16_4 H 0.589752 0.777252 0.641098
C29_4 C 0.65082(13) 0.6058(2) 0.27111(17)
C30_4 C 0.70028(13) 0.6107(2) 0.35815(18)
H17_4 H 0.721689 0.580668 0.340094
C31_4 C 0.66148(13) 0.6364(2) 0.32799(17)
C32_4 C 0.63073(14) 0.6842(3) 0.35426(19)
H18_4 H 0.604932 0.701694 0.334327
C33_4 C 0.63861(14) 0.7057(2) 0.41018(18)
H19_4 H 0.619148 0.739865 0.426841
C34_4 C 0.67564(13) 0.6764(2) 0.44170(17)
C35_4 C 0.70725(13) 0.6301(2) 0.41590(18)
H20_4 H 0.732664 0.612160 0.436271
C36_4 C 0.85808(13) 0.6972(2) 0.60677(17)
C37_4 C 0.81113(13) 0.6985(2) 0.57989(17)
C38_4 C 0.77303(13) 0.6662(2) 0.60728(18)
H21_4 H 0.777379 0.644786 0.642787
C39_4 C 0.72887(12) 0.6655(2) 0.58251(17)
H22_4 H 0.703484 0.646324 0.602219
C40_4 C 0.72283(13) 0.6936(2) 0.52847(18)
C41_4 C 0.76115(13) 0.7264(2) 0.49978(16)
H23_4 H 0.757461 0.745742 0.463415
C42_4 C 0.80394(14) 0.7290(2) 0.52714(18)
H24_4 H 0.828824 0.752129 0.509248
C43_4 C 0.45316(13) 0.96615(19) 0.60709(18)
C44_4 C 0.49523(13) 0.9578(2) 0.56945(17)
C45_4 C 0.49708(13) 0.9872(2) 0.51491(17)
C46_4 C 0.53633(13) 0.9800(2) 0.48089(16)
C47_4 C 0.57593(12) 0.9411(2) 0.50128(16)
C48_4 C 0.57343(13) 0.9114(2) 0.55559(18)
H27_4 H 0.599093 0.886281 0.569750
C49_4 C 0.53438(14) 0.9182(2) 0.58874(18)
H28_4 H 0.533502 0.896485 0.624509
C50_4 C 0.79649(13) 0.9451(2) 0.57840(18)
C51_4 C 0.74995(13) 0.9421(2) 0.54948(17)
C52_4 C 0.74261(14) 0.8975(2) 0.50049(18)
H29_4 H 0.767041 0.869832 0.486031
C53_4 C 0.69878(13) 0.8958(2) 0.47469(17)
H30_4 H 0.693969 0.865953 0.443344
C54_4 C 0.66190(13) 0.9377(2) 0.49477(17)
C55_4 C 0.66951(13) 0.9826(2) 0.54121(17)
C56_4 C 0.71208(13) 0.9836(2) 0.56919(17)
C57_4 C 0.60300(13) 0.8619(2) 0.22934(17)
C58_4 C 0.60621(13) 0.8837(2) 0.29110(17)
C59_4 C 0.57406(13) 0.8563(2) 0.33121(17)
H33_4 H 0.550270 0.825711 0.319150
C60_4 C 0.57751(13) 0.8744(2) 0.38819(17)
H34_4 H 0.555857 0.855833 0.413971
C61_4 C 0.61287(12) 0.9200(2) 0.40804(16)
C62_4 C 0.64402(13) 0.9481(2) 0.36795(18)
H35_4 H 0.667156 0.979877 0.380019
C63_4 C 0.64150(13) 0.9302(2) 0.31131(17)
H36_4 H 0.663338 0.948967 0.285844
C85_3 C 0.44191(14) 0.6581(3) 0.4551(2)
C86_3 C 0.4374(2) 0.6051(4) 0.4074(3)
H49_3 H 0.468066 0.592869 0.393468
H50_3 H 0.422090 0.562618 0.421202
H51_3 H 0.419298 0.625790 0.377054
C87_3 C 0.4941(2) 0.7270(3) 0.3939(3)
H52_3 H 0.483392 0.770307 0.375850
H53_4 H 0.526914 0.731285 0.402507
H54_3 H 0.489230 0.687082 0.368720
C88_3 C 0.4743(2) 0.7706(3) 0.4914(3)
H55_3 H 0.467509 0.817128 0.475784
H56_4 H 0.453458 0.761108 0.522767
H57_4 H 0.506123 0.769559 0.504776
H58_4 H 0.943617 0.822212 0.485524
H59_4 H 0.924934 0.903425 0.475208
H60_4 H 0.489951 0.778623 0.788032
H61_4 H 0.460112 0.849422 0.805499
H62_4 H 0.975653 0.68834 0.799604
N5_4 N 0.03216(14) 0.7155(3) 0.94699(19)
C85_4 C 0.05809(14) 0.6581(3) 0.9551(2)
C86_4 C 0.0626(2) 0.6051(4) 0.9074(3)
H49_4 H 0.031934 0.592869 0.893468
H50_4 H 0.077910 0.562618 0.921202
H51_4 H 0.080702 0.625790 0.877054
C87_4 C 0.0059(2) 0.7270(3) 0.8939(3)
H52_4 H 0.016608 0.770307 0.875850
H54_4 H 0.010770 0.687082 0.868720
C88_4 C 0.0257(2) 0.7706(3) 0.9914(3)
H55_4 H 0.032491 0.817128 0.975784
loop_
_geom_bond_atom_site_label_1
_geom_bond_atom_site_label_2
_geom_bond_site_symmetry_1
_geom_bond_site_symmetry_2
Ca4 O12 1_555 1_555
Ca5 O11 1_555 1_555
Ca6 O3 1_555 1_555
O3 C15 1_555 1_555
O4 C15 1_555 1_555
O5 C8 1_555 1_555
O6 C8 1_555 1_555
O8 C22 1_555 1_555
O9 C29 1_555 1_555
O10 C29 1_555 1_555
O11 Ca6 1_555 1_555
O12 Ca5 1_555 1_555
O15 C57 1_555 1_555
O16 C57 1_555 1_555
O17 C50 1_555 1_555
O18 Ca4 1_555 1_555
O19 Ca4 1_555 1_555
O20 Ca5 1_555 1_555
O21 C71 1_555 1_555
O22 C71 1_555 1_555
O23 C78 1_555 1_555
O24 C78 1_555 1_555
O25 Ca5 1_555 1_555
O26 Ca4 1_555 1_555
N1 C47 1_555 1_555
N2 C26 1_555 1_555
N3 C5 1_555 1_555
N4 C68 1_555 1_555
C3 H1 1_555 1_555
C4 C3 1_555 1_555
H2 C4 1_555 1_555
C5 C4 1_555 1_555
C6 C5 1_555 1_555
H3 C6 1_555 1_555
C8 C9 1_555 1_555
C9 C10 1_555 1_555
C10 H5 1_555 1_555
C11 C10 1_555 1_555
H6 C11 1_555 1_555
C12 N3 1_555 1_555
C13 C12 1_555 1_555
H7 C13 1_555 1_555
C14 C9 1_555 1_555
H8 C14 1_555 1_555
C15 C16 1_555 1_555
C16 C17 1_555 1_555
C17 H9 1_555 1_555
C18 C17 1_555 1_555
H10 C18 1_555 1_555
C19 N3 1_555 1_555
C20 C19 1_555 1_555
H11 C20 1_555 1_555
C21 C16 1_555 1_555
H12 C21 1_555 1_555
C23 C22 1_555 1_555
C24 C23 1_555 1_555
H13 C24 1_555 1_555
C25 C24 1_555 1_555
H14 C25 1_555 1_555
C26 C25 1_555 1_555
C27 C26 1_555 1_555
H15 C27 1_555 1_555
C28 C23 1_555 1_555
H16 C28 1_555 1_555
C29 C31 1_555 1_555
C30 H17 1_555 1_555
C31 C30 1_555 1_555
C32 C31 1_555 1_555
H18 C32 1_555 1_555
C33 C32 1_555 1_555
H19 C33 1_555 1_555
C34 N2 1_555 1_555
C35 C30 1_555 1_555
H20 C35 1_555 1_555
C36 O11 1_555 1_555
C37 C36 1_555 1_555
C38 C37 1_555 1_555
H21 C38 1_555 1_555
C39 C38 1_555 1_555
H22 C39 1_555 1_555
C40 N2 1_555 1_555
C41 C40 1_555 1_555
H23 C41 1_555 1_555
C42 C37 1_555 1_555
H24 C42 1_555 1_555
C47 C46 1_555 1_555
C48 C47 1_555 1_555
H27 C48 1_555 1_555
H28 C49 1_555 1_555
C50 O18 1_555 1_555
C51 C50 1_555 1_555
C52 C51 1_555 1_555
H29 C52 1_555 1_555
C53 C52 1_555 1_555
H30 C53 1_555 1_555
C54 N1 1_555 1_555
C55 C54 1_555 1_555
C56 C51 1_555 1_555
C57 C58 1_555 1_555
C58 C59 1_555 1_555
C59 H33 1_555 1_555
C60 C59 1_555 1_555
H34 C60 1_555 1_555
C61 N1 1_555 1_555
C62 C61 1_555 1_555
H35 C62 1_555 1_555
C63 C58 1_555 1_555
H36 C63 1_555 1_555
C64 O19 1_555 1_555
C65 C64 1_555 1_555
C66 C65 1_555 1_555
H37 C66 1_555 1_555
C67 C66 1_555 1_555
H38 C67 1_555 1_555
C68 C67 1_555 1_555
C69 C68 1_555 1_555
H39 C69 1_555 1_555
C70 C65 1_555 1_555
H40 C70 1_555 1_555
C71 C72 1_555 1_555
C72 C73 1_555 1_555
C73 H41 1_555 1_555
C74 C73 1_555 1_555
H42 C74 1_555 1_555
C75 N4 1_555 1_555
C76 C75 1_555 1_555
H43 C76 1_555 1_555
C77 C72 1_555 1_555
H44 C77 1_555 1_555
C78 C79 1_555 1_555
C79 C80 1_555 1_555
C80 H45 1_555 1_555
C81 C80 1_555 1_555
H46 C81 1_555 1_555
C82 N4 1_555 1_555
C83 C82 1_555 1_555
H47 C83 1_555 1_555
C84 C79 1_555 1_555
H48 C84 1_555 1_555
Ca7 O23 1_555 1_555
Ca8 O6 1_555 1_555
Ca9 O4 1_555 1_555
Ca10 O23 1_555 1_555
Ca11 O5 1_555 1_555
Ca12 O21 1_555 1_555
Ca13 O21 1_555 1_555
Ca16 O24 1_555 1_555
Ca17 O16 1_555 1_555
Ca19 O9 1_555 1_555
Ca21 O6 1_555 1_555
O29 Ca6 1_555 1_555
O30 Ca5 1_555 1_555
O34 Ca6 1_555 1_555
O35 Ca5 1_555 1_555
O36 Ca6 1_555 1_555
O39 Ca5 1_555 1_555
Ca4 O38 1_555 1_555
Ca4 O40 1_555 1_555
Ca6 O30 1_555 1_555
Ca6 O35 1_555 1_555
O9 Ca21 1_555 1_555
O10 Ca21 1_555 1_555
O12 C36 1_555 1_555
O15 Ca19 1_555 1_555
O20 C64 1_555 1_555
O22 Ca13 1_555 1_555
O24 Ca10 1_555 1_555
C11 C12 1_555 1_555
C13 C14 1_555 1_555
C18 C19 1_555 1_555
C20 C21 1_555 1_555
C27 C28 1_555 1_555
C33 C34 1_555 1_555
C34 C35 1_555 1_555
C39 C40 1_555 1_555
C41 C42 1_555 1_555
C48 C49 1_555 1_555
C53 C54 1_555 1_555
C55 C56 1_555 1_555
C60 C61 1_555 1_555
C62 C63 1_555 1_555
C69 C70 1_555 1_555
C74 C75 1_555 1_555
C76 C77 1_555 1_555
C81 C82 1_555 1_555
C83 C84 1_555 1_555
Ca9 O29 1_555 1_555
Ca9 O34 1_555 1_555
O26 H58 1_555 1_555
O26 H59 1_555 1_555
O25 H62 1_555 1_555
O25 H63 1_555 1_555
O37 Ca3 1_555 1_555
O41 Ca3 1_555 1_555
O43 Ca3 1_555 1_555
O46 Ca3 1_555 1_555
Ca7 O1 1_555 1_555
O1 C1 1_555 1_555
O2 C1 1_555 1_555
O7 Ca7 1_555 1_555
O13 Ca10 1_555 1_555
O27 Ca10 1_555 1_555
O28 Ca7 1_555 1_555
N5 C85 1_555 1_555
C1 C2 1_555 1_555
C7 C2 1_555 1_555
H4 C7 1_555 1_555
C43 O13 1_555 1_555
C44 C43 1_555 1_555
C45 C44 1_555 1_555
C85 O28 1_555 1_555
C86 C85 1_555 1_555
H49 C86 1_555 1_555
H50 C86 1_555 1_555
H51 C86 1_555 1_555
C87 N5 1_555 1_555
H52 C87 1_555 1_555
H54 C87 1_555 1_555
C88 N5 1_555 1_555
H55 C88 1_555 1_555
H56 C88 1_555 1_555
Ca16 O13 1_555 1_555
Ca20 O2 1_555 1_555
Ca22 O1 1_555 1_555
O31 Ca7 1_555 1_555
O32 Ca10 1_555 1_555
O33 Ca7 1_555 1_555
O42 Ca10 1_555 1_555
O2 Ca22 1_555 1_555
Ca16 O42 1_555 1_555
Ca22 O33 1_555 1_555
O27 H60 1_555 1_555
O27 H61 1_555 1_555
Ca18 O14 1_555 1_555
Ca17 O14_2 1_555 1_555
Ca8 O1_2 1_555 1_555
O1_2 C1_2 1_555 1_555
O2_2 C1_2 1_555 1_555
O7_2 Ca8 1_555 1_555
O13_2 Ca11 1_555 1_555
O27_2 Ca11 1_555 1_555
O28_2 Ca8 1_555 1_555
C1_2 C2_2 1_555 1_555
C7_2 C2_2 1_555 1_555
H4_2 C7_2 1_555 1_555
C43_2 O13_2 1_555 1_555
C44_2 C43_2 1_555 1_555
C45_2 C44_2 1_555 1_555
Ca14 O13_2 1_555 1_555
Ca19 O2_2 1_555 1_555
Ca21 O1_2 1_555 1_555
O31_2 Ca8 1_555 1_555
O42_2 Ca11 1_555 1_555
O44 Ca8 1_555 1_555
O45 Ca11 1_555 1_555
Ca11 O44 1_555 1_555
O2_2 Ca21 1_555 1_555
Ca14 O42_2 1_555 1_555
Ca14 O45 1_555 1_555
O27_2 H60_2 1_555 1_555
O27_2 H61_2 1_555 1_555
O37_2 Ca13 1_555 1_555
O46_2 Ca13 1_555 1_555
Ca4_2 O12_2 1_555 1_555
Ca5_2 O11_2 1_555 1_555
Ca6_2 O3_2 1_555 1_555
O3_2 C15_2 1_555 1_555
O4_2 C15_2 1_555 1_555
O8_2 C22_2 1_555 1_555
O11_2 Ca6_2 1_555 1_555
O12_2 Ca5_2 1_555 1_555
O17_2 C50_2 1_555 1_555
O18_2 Ca4_2 1_555 1_555
O19_2 Ca4_2 1_555 1_555
O20_2 Ca5_2 1_555 1_555
O44 C78_2 1_555 1_555
O45 C78_2 1_555 1_555
O25_2 Ca5_2 1_555 1_555
N2_2 C26_2 1_555 1_555
C3_2 H1_2 1_555 1_555
C4_2 C3_2 1_555 1_555
H2_2 C4_2 1_555 1_555
C5_2 C4_2 1_555 1_555
C15_2 C16_2 1_555 1_555
C16_2 C17_2 1_555 1_555
H11_2 C20_2 1_555 1_555
C21_2 C16_2 1_555 1_555
H12_2 C21_2 1_555 1_555
C23_2 C22_2 1_555 1_555
C24_2 C23_2 1_555 1_555
H13_2 C24_2 1_555 1_555
C25_2 C24_2 1_555 1_555
C26_2 C25_2 1_555 1_555
C27_2 C26_2 1_555 1_555
H15_2 C27_2 1_555 1_555
C28_2 C23_2 1_555 1_555
H16_2 C28_2 1_555 1_555
C36_2 O11_2 1_555 1_555
C37_2 C36_2 1_555 1_555
C38_2 C37_2 1_555 1_555
H21_2 C38_2 1_555 1_555
C39_2 C38_2 1_555 1_555
H22_2 C39_2 1_555 1_555
C40_2 N2_2 1_555 1_555
C42_2 C37_2 1_555 1_555
H24_2 C42_2 1_555 1_555
C48_2 C47_2 1_555 1_555
H27_2 C48_2 1_555 1_555
H28_2 C49_2 1_555 1_555
C50_2 O18_2 1_555 1_555
C51_2 C50_2 1_555 1_555
C52_2 C51_2 1_555 1_555
C56_2 C51_2 1_555 1_555
C64_2 O19_2 1_555 1_555
C65_2 C64_2 1_555 1_555
C66_2 C65_2 1_555 1_555
H37_2 C66_2 1_555 1_555
C67_2 C66_2 1_555 1_555
H38_2 C67_2 1_555 1_555
C68_2 C67_2 1_555 1_555
C69_2 C68_2 1_555 1_555
C70_2 C65_2 1_555 1_555
H40_2 C70_2 1_555 1_555
C78_2 C79_2 1_555 1_555
C79_2 C80_2 1_555 1_555
C80_2 H45_2 1_555 1_555
C83_2 C82_2 1_555 1_555
H47_2 C83_2 1_555 1_555
C84_2 C79_2 1_555 1_555
H48_2 C84_2 1_555 1_555
Ca9_2 O4_2 1_555 1_555
O29_2 Ca6_2 1_555 1_555
O30_2 Ca5_2 1_555 1_555
O34_2 Ca6_2 1_555 1_555
O35_2 Ca5_2 1_555 1_555
O36_2 Ca6_2 1_555 1_555
O39_2 Ca5_2 1_555 1_555
Ca4_2 O38_2 1_555 1_555
Ca4_2 O40_2 1_555 1_555
Ca6_2 O30_2 1_555 1_555
Ca6_2 O35_2 1_555 1_555
O12_2 C36_2 1_555 1_555
O20_2 C64_2 1_555 1_555
C20_2 C21_2 1_555 1_555
C27_2 C28_2 1_555 1_555
C39_2 C40_2 1_555 1_555
C48_2 C49_2 1_555 1_555
C55_2 C56_2 1_555 1_555
C69_2 C70_2 1_555 1_555
C83_2 C84_2 1_555 1_555
Ca9_2 O29_2 1_555 1_555
Ca9_2 O34_2 1_555 1_555
O25_2 H62_2 1_555 1_555
O25_2 H63_2 1_555 1_555
O32 C8_2 1_555 1_555
O33 C8_2 1_555 1_555
O9_2 C29_2 1_555 1_555
O10_2 C29_2 1_555 1_555
O15_2 C57_2 1_555 1_555
O16_2 C57_2 1_555 1_555
O41 C71_2 1_555 1_555
O43 C71_2 1_555 1_555
H3_2 C6_2 1_555 1_555
C8_2 C9_2 1_555 1_555
C9_2 C10_2 1_555 1_555
C10_2 H5_2 1_555 1_555
C11_2 C10_2 1_555 1_555
H6_2 C11_2 1_555 1_555
C12_2 N3_2 1_555 1_555
C13_2 C12_2 1_555 1_555
H7_2 C13_2 1_555 1_555
C14_2 C9_2 1_555 1_555
H8_2 C14_2 1_555 1_555
H10_2 C18_2 1_555 1_555
C19_2 N3_2 1_555 1_555
C29_2 C31_2 1_555 1_555
C30_2 H17_2 1_555 1_555
C31_2 C30_2 1_555 1_555
C32_2 C31_2 1_555 1_555
H18_2 C32_2 1_555 1_555
C33_2 C32_2 1_555 1_555
H19_2 C33_2 1_555 1_555
C35_2 C30_2 1_555 1_555
H20_2 C35_2 1_555 1_555
H23_2 C41_2 1_555 1_555
H30_2 C53_2 1_555 1_555
C54_2 N1_2 1_555 1_555
C57_2 C58_2 1_555 1_555
C58_2 C59_2 1_555 1_555
C59_2 H33_2 1_555 1_555
C60_2 C59_2 1_555 1_555
H34_2 C60_2 1_555 1_555
C61_2 N1_2 1_555 1_555
C62_2 C61_2 1_555 1_555
H35_2 C62_2 1_555 1_555
C63_2 C58_2 1_555 1_555
H36_2 C63_2 1_555 1_555
C71_2 C72_2 1_555 1_555
C72_2 C73_2 1_555 1_555
C73_2 H41_2 1_555 1_555
C74_2 C73_2 1_555 1_555
H42_2 C74_2 1_555 1_555
C75_2 N4_2 1_555 1_555
C76_2 C75_2 1_555 1_555
H43_2 C76_2 1_555 1_555
C77_2 C72_2 1_555 1_555
H44_2 C77_2 1_555 1_555
H46_2 C81_2 1_555 1_555
Ca12_2 O41 1_555 1_555
Ca18 O16_2 1_555 1_555
Ca20 O9_2 1_555 1_555
O9_2 Ca22 1_555 1_555
O10_2 Ca22 1_555 1_555
O15_2 Ca20 1_555 1_555
C11_2 C12_2 1_555 1_555
C13_2 C14_2 1_555 1_555
C18_2 C19_2 1_555 1_555
C33_2 C34_2 1_555 1_555
C34_2 C35_2 1_555 1_555
C53_2 C54_2 1_555 1_555
C60_2 C61_2 1_555 1_555
C62_2 C63_2 1_555 1_555
C74_2 C75_2 1_555 1_555
C76_2 C77_2 1_555 1_555
O26_2 H58_2 1_555 1_555
O26_2 H59_2 1_555 1_555
Ca12 O8_3 1_555 1_555
Ca17 O12_3 1_555 1_555
Ca19 O11_3 1_555 1_555
Ca21 O3_3 1_555 1_555
O29_2 C1_3 1_555 1_555
O30_2 C1_3 1_555 1_555
O3_3 C15_3 1_555 1_555
O31_2 C15_3 1_555 1_555
O7_3 Ca9_2 1_555 1_555
O8_3 C22_3 1_555 1_555
O11_3 Ca21 1_555 1_555
O12_3 Ca19 1_555 1_555
O37_2 Ca12 1_555 1_555
O17_3 C50_3 1_555 1_555
O18_3 Ca17 1_555 1_555
O19_3 Ca17 1_555 1_555
O20_3 Ca19 1_555 1_555
O25_3 Ca19 1_555 1_555
O27_3 Ca12 1_555 1_555
O28_3 Ca9_2 1_555 1_555
N2_3 C26_3 1_555 1_555
C1_3 C2_3 1_555 1_555
C2_3 C3_3 1_555 1_555
C3_3 H1_3 1_555 1_555
C4_3 C3_3 1_555 1_555
H2_3 C4_3 1_555 1_555
C5_3 C4_3 1_555 1_555
C7_3 C2_3 1_555 1_555
H4_3 C7_3 1_555 1_555
C15_3 C16_3 1_555 1_555
C16_3 C17_3 1_555 1_555
H11_3 C20_3 1_555 1_555
C21_3 C16_3 1_555 1_555
H12_3 C21_3 1_555 1_555
C22_3 O7_3 1_555 1_555
C23_3 C22_3 1_555 1_555
C24_3 C23_3 1_555 1_555
H13_3 C24_3 1_555 1_555
C25_3 C24_3 1_555 1_555
C26_3 C25_3 1_555 1_555
C27_3 C26_3 1_555 1_555
H15_3 C27_3 1_555 1_555
C28_3 C23_3 1_555 1_555
H16_3 C28_3 1_555 1_555
C36_3 O11_3 1_555 1_555
C37_3 C36_3 1_555 1_555
C38_3 C37_3 1_555 1_555
H21_3 C38_3 1_555 1_555
C39_3 C38_3 1_555 1_555
H22_3 C39_3 1_555 1_555
C40_3 N2_3 1_555 1_555
C42_3 C37_3 1_555 1_555
H24_3 C42_3 1_555 1_555
C43_3 O37_2 1_555 1_555
C44_3 C43_3 1_555 1_555
C45_3 C44_3 1_555 1_555
C48_3 C47_3 1_555 1_555
H27_3 C48_3 1_555 1_555
C49_3 C44_3 1_555 1_555
H28_3 C49_3 1_555 1_555
C50_3 O18_3 1_555 1_555
C51_3 C50_3 1_555 1_555
C52_3 C51_3 1_555 1_555
C56_3 C51_3 1_555 1_555
O32_2 Ca12 1_555 1_555
O44_2 Ca9_2 1_555 1_555
O46_2 Ca12 1_555 1_555
Ca12 O44_2 1_555 1_555
O12_3 C36_3 1_555 1_555
C20_3 C21_3 1_555 1_555
C27_3 C28_3 1_555 1_555
C39_3 C40_3 1_555 1_555
C48_3 C49_3 1_555 1_555
C55_3 C56_3 1_555 1_555
O27_3 H60_3 1_555 1_555
O27_3 H61_3 1_555 1_555
O25_3 H62_3 1_555 1_555
O5_2 C8_3 1_555 1_555
O34 C8_3 1_555 1_555
O35 C29_3 1_555 1_555
O36 C29_3 1_555 1_555
O39 C57_3 1_555 1_555
O40 C57_3 1_555 1_555
N5_2 C85_2 1_555 1_555
H3_3 C6_3 1_555 1_555
C8_3 C9_3 1_555 1_555
C9_3 C10_3 1_555 1_555
C10_3 H5_3 1_555 1_555
C11_3 C10_3 1_555 1_555
H6_3 C11_3 1_555 1_555
C12_3 N3_3 1_555 1_555
C13_3 C12_3 1_555 1_555
H7_3 C13_3 1_555 1_555
C14_3 C9_3 1_555 1_555
H8_3 C14_3 1_555 1_555
H10_3 C18_3 1_555 1_555
C19_3 N3_3 1_555 1_555
C29_3 C31_3 1_555 1_555
C30_3 H17_3 1_555 1_555
C31_3 C30_3 1_555 1_555
C32_3 C31_3 1_555 1_555
H18_3 C32_3 1_555 1_555
C33_3 C32_3 1_555 1_555
H19_3 C33_3 1_555 1_555
C35_3 C30_3 1_555 1_555
H20_3 C35_3 1_555 1_555
H23_3 C41_3 1_555 1_555
H30_3 C53_3 1_555 1_555
C54_3 N1_3 1_555 1_555
C57_3 C58_3 1_555 1_555
C58_3 C59_3 1_555 1_555
C59_3 H33_3 1_555 1_555
C60_3 C59_3 1_555 1_555
H34_3 C60_3 1_555 1_555
C61_3 N1_3 1_555 1_555
C62_3 C61_3 1_555 1_555
H35_3 C62_3 1_555 1_555
C63_3 C58_3 1_555 1_555
H36_3 C63_3 1_555 1_555
C86_2 C85_2 1_555 1_555
H49_2 C86_2 1_555 1_555
H50_2 C86_2 1_555 1_555
H51_2 C86_2 1_555 1_555
C87_2 N5_2 1_555 1_555
H52_2 C87_2 1_555 1_555
H53_3 C87_2 1_555 1_555
H54_2 C87_2 1_555 1_555
C88_2 N5_2 1_555 1_555
H55_2 C88_2 1_555 1_555
Ca12_2 O5_2 1_555 1_555
C11_3 C12_3 1_555 1_555
C13_3 C14_3 1_555 1_555
C18_3 C19_3 1_555 1_555
C33_3 C34_3 1_555 1_555
C34_3 C35_3 1_555 1_555
C53_3 C54_3 1_555 1_555
C60_3 C61_3 1_555 1_555
C62_3 C63_3 1_555 1_555
O26_3 H58_3 1_555 1_555
O26_3 H59_3 1_555 1_555
O43_2 Ca14 1_555 1_555
O44_2 C78_3 1_555 1_555
O46_2 C78_3 1_555 1_555
C65_3 C64_3 1_555 1_555
C66_3 C65_3 1_555 1_555
H37_3 C66_3 1_555 1_555
C67_3 C66_3 1_555 1_555
H38_3 C67_3 1_555 1_555
C68_3 C67_3 1_555 1_555
C69_3 C68_3 1_555 1_555
C70_3 C65_3 1_555 1_555
H40_3 C70_3 1_555 1_555
C78_3 C79_3 1_555 1_555
C79_3 C80_3 1_555 1_555
C80_3 H45_3 1_555 1_555
C83_3 C82_3 1_555 1_555
H47_3 C83_3 1_555 1_555
C84_3 C79_3 1_555 1_555
H48_3 C84_3 1_555 1_555
C69_3 C70_3 1_555 1_555
C83_3 C84_3 1_555 1_555
O42 C71_3 1_555 1_555
O22_2 C71_3 1_555 1_555
C71_3 C72_3 1_555 1_555
C72_3 C73_3 1_555 1_555
C73_3 H41_3 1_555 1_555
C74_3 C73_3 1_555 1_555
H42_3 C74_3 1_555 1_555
C75_3 N4_3 1_555 1_555
C76_3 C75_3 1_555 1_555
H43_3 C76_3 1_555 1_555
C77_3 C72_3 1_555 1_555
H44_3 C77_3 1_555 1_555
H46_3 C81_3 1_555 1_555
O22_2 Ca16 1_555 1_555
C74_3 C75_3 1_555 1_555
C76_3 C77_3 1_555 1_555
O42_2 C71_4 1_555 1_555
O43_2 C71_4 1_555 1_555
O23_2 C78_4 1_555 1_555
O46 C78_4 1_555 1_555
N4_4 C68_4 1_555 1_555
C65_4 C64_4 1_555 1_555
C66_4 C65_4 1_555 1_555
H37_4 C66_4 1_555 1_555
C67_4 C66_4 1_555 1_555
H38_4 C67_4 1_555 1_555
C68_4 C67_4 1_555 1_555
C69_4 C68_4 1_555 1_555
H39_4 C69_4 1_555 1_555
C70_4 C65_4 1_555 1_555
H40_4 C70_4 1_555 1_555
C71_4 C72_4 1_555 1_555
C72_4 C73_4 1_555 1_555
C73_4 H41_4 1_555 1_555
C74_4 C73_4 1_555 1_555
H42_4 C74_4 1_555 1_555
C75_4 N4_4 1_555 1_555
C76_4 C75_4 1_555 1_555
H43_4 C76_4 1_555 1_555
C77_4 C72_4 1_555 1_555
H44_4 C77_4 1_555 1_555
C78_4 C79_4 1_555 1_555
C79_4 C80_4 1_555 1_555
C80_4 H45_4 1_555 1_555
C81_4 C80_4 1_555 1_555
H46_4 C81_4 1_555 1_555
C82_4 N4_4 1_555 1_555
C83_4 C82_4 1_555 1_555
H47_4 C83_4 1_555 1_555
C84_4 C79_4 1_555 1_555
H48_4 C84_4 1_555 1_555
Ca9 O23_2 1_555 1_555
Ca12_2 O23_2 1_555 1_555
O46 Ca12_2 1_555 1_555
C69_4 C70_4 1_555 1_555
C74_4 C75_4 1_555 1_555
C76_4 C77_4 1_555 1_555
C81_4 C82_4 1_555 1_555
C83_4 C84_4 1_555 1_555
Ca12_2 O8_4 1_555 1_555
Ca18 O12_4 1_555 1_555
Ca20 O11_4 1_555 1_555
Ca22 O3_4 1_555 1_555
O29 C1_4 1_555 1_555
O30 C1_4 1_555 1_555
O3_4 C15_4 1_555 1_555
O31 C15_4 1_555 1_555
O32_2 C8_4 1_555 1_555
O34_2 C8_4 1_555 1_555
O7_4 Ca9 1_555 1_555
O8_4 C22_4 1_555 1_555
O35_2 C29_4 1_555 1_555
O36_2 C29_4 1_555 1_555
O11_4 Ca22 1_555 1_555
O12_4 Ca20 1_555 1_555
O37 Ca12_2 1_555 1_555
O39_2 C57_4 1_555 1_555
O40_2 C57_4 1_555 1_555
O17_4 C50_4 1_555 1_555
O18_4 Ca18 1_555 1_555
O19_4 Ca18 1_555 1_555
O20_4 Ca20 1_555 1_555
O25_4 Ca20 1_555 1_555
O26_4 Ca18 1_555 1_555
O27_4 Ca12_2 1_555 1_555
O28_4 Ca9 1_555 1_555
N1_4 C47_4 1_555 1_555
N2_4 C26_4 1_555 1_555
N3_4 C5_4 1_555 1_555
N5_3 C85_3 1_555 1_555
C1_4 C2_4 1_555 1_555
C2_4 C3_4 1_555 1_555
C3_4 H1_4 1_555 1_555
C4_4 C3_4 1_555 1_555
H2_4 C4_4 1_555 1_555
C5_4 C4_4 1_555 1_555
C6_4 C5_4 1_555 1_555
H3_4 C6_4 1_555 1_555
C7_4 C2_4 1_555 1_555
H4_4 C7_4 1_555 1_555
C8_4 C9_4 1_555 1_555
C9_4 C10_4 1_555 1_555
C10_4 H5_4 1_555 1_555
C11_4 C10_4 1_555 1_555
H6_4 C11_4 1_555 1_555
C12_4 N3_4 1_555 1_555
C13_4 C12_4 1_555 1_555
H7_4 C13_4 1_555 1_555
C14_4 C9_4 1_555 1_555
H8_4 C14_4 1_555 1_555
C15_4 C16_4 1_555 1_555
C16_4 C17_4 1_555 1_555
C17_4 H9_4 1_555 1_555
C18_4 C17_4 1_555 1_555
H10_4 C18_4 1_555 1_555
C19_4 N3_4 1_555 1_555
C20_4 C19_4 1_555 1_555
H11_4 C20_4 1_555 1_555
C21_4 C16_4 1_555 1_555
H12_4 C21_4 1_555 1_555
C22_4 O7_4 1_555 1_555
C23_4 C22_4 1_555 1_555
C24_4 C23_4 1_555 1_555
H13_4 C24_4 1_555 1_555
C25_4 C24_4 1_555 1_555
H14_4 C25_4 1_555 1_555
C26_4 C25_4 1_555 1_555
C27_4 C26_4 1_555 1_555
H15_4 C27_4 1_555 1_555
C28_4 C23_4 1_555 1_555
H16_4 C28_4 1_555 1_555
C29_4 C31_4 1_555 1_555
C30_4 H17_4 1_555 1_555
C31_4 C30_4 1_555 1_555
C32_4 C31_4 1_555 1_555
H18_4 C32_4 1_555 1_555
C33_4 C32_4 1_555 1_555
H19_4 C33_4 1_555 1_555
C34_4 N2_4 1_555 1_555
C35_4 C30_4 1_555 1_555
H20_4 C35_4 1_555 1_555
C36_4 O11_4 1_555 1_555
C37_4 C36_4 1_555 1_555
C38_4 C37_4 1_555 1_555
H21_4 C38_4 1_555 1_555
C39_4 C38_4 1_555 1_555
H22_4 C39_4 1_555 1_555
C40_4 N2_4 1_555 1_555
C41_4 C40_4 1_555 1_555
H23_4 C41_4 1_555 1_555
C42_4 C37_4 1_555 1_555
H24_4 C42_4 1_555 1_555
C43_4 O37 1_555 1_555
C44_4 C43_4 1_555 1_555
C45_4 C44_4 1_555 1_555
C46_4 C45_4 1_555 1_555
C47_4 C46_4 1_555 1_555
C48_4 C47_4 1_555 1_555
H27_4 C48_4 1_555 1_555
C49_4 C44_4 1_555 1_555
H28_4 C49_4 1_555 1_555
C50_4 O18_4 1_555 1_555
C51_4 C50_4 1_555 1_555
C52_4 C51_4 1_555 1_555
H29_4 C52_4 1_555 1_555
C53_4 C52_4 1_555 1_555
H30_4 C53_4 1_555 1_555
C54_4 N1_4 1_555 1_555
C55_4 C54_4 1_555 1_555
C56_4 C51_4 1_555 1_555
C57_4 C58_4 1_555 1_555
C58_4 C59_4 1_555 1_555
C59_4 H33_4 1_555 1_555
C60_4 C59_4 1_555 1_555
H34_4 C60_4 1_555 1_555
C61_4 N1_4 1_555 1_555
C62_4 C61_4 1_555 1_555
H35_4 C62_4 1_555 1_555
C63_4 C58_4 1_555 1_555
H36_4 C63_4 1_555 1_555
C85_3 O28_4 1_555 1_555
C86_3 C85_3 1_555 1_555
H49_3 C86_3 1_555 1_555
H50_3 C86_3 1_555 1_555
H51_3 C86_3 1_555 1_555
C87_3 N5_3 1_555 1_555
H52_3 C87_3 1_555 1_555
H53_4 C87_3 1_555 1_555
H54_3 C87_3 1_555 1_555
C88_3 N5_3 1_555 1_555
H55_3 C88_3 1_555 1_555
H56_4 C88_3 1_555 1_555
H57_4 C88_3 1_555 1_555
O12_4 C36_4 1_555 1_555
C6_4 C7_4 1_555 1_555
C11_4 C12_4 1_555 1_555
C13_4 C14_4 1_555 1_555
C18_4 C19_4 1_555 1_555
C20_4 C21_4 1_555 1_555
C27_4 C28_4 1_555 1_555
C33_4 C34_4 1_555 1_555
C34_4 C35_4 1_555 1_555
C39_4 C40_4 1_555 1_555
C41_4 C42_4 1_555 1_555
C48_4 C49_4 1_555 1_555
C53_4 C54_4 1_555 1_555
C55_4 C56_4 1_555 1_555
C60_4 C61_4 1_555 1_555
C62_4 C63_4 1_555 1_555
O26_4 H58_4 1_555 1_555
O26_4 H59_4 1_555 1_555
O27_4 H60_4 1_555 1_555
O27_4 H61_4 1_555 1_555
O25_4 H62_4 1_555 1_555
N5_4 C85_4 1_555 1_555
C86_4 C85_4 1_555 1_555
H49_4 C86_4 1_555 1_555
H50_4 C86_4 1_555 1_555
H51_4 C86_4 1_555 1_555
C87_4 N5_4 1_555 1_555
H52_4 C87_4 1_555 1_555
H54_4 C87_4 1_555 1_555
C88_4 N5_4 1_555 1_555
H55_4 C88_4 1_555 1_555

#END
