
###############################################################################
#
# This file contains modified crystal structure data generated from the
# MOF subset of the Cambridge Structural Database (CSD) v543 
# hosted by the Cambridge Crystallographic Data Centre (CCDC).
#
# This work is licensed under the Creative Commons
# Attribution-NonCommercial-ShareAlike 4.0 International License.
# To view a copy of this license, visit
# http://creativecommons.org/licenses/by-nc-sa/4.0/
# or send a letter to
# Creative Commons, PO Box 1866, Mountain View, CA 94042, USA.
#
# CIF created using the CSD Python API on 29 September 2022
# The structure has been converted into the P1 space group
# The structure has a 3D framework
# The original CSD entry YITGOA is in the monoclinic crystal system
# The framework has been calculated to contain at least 10.0% void space
# The void calculation uses a probe of radius 1.32A, grid spacing 0.4
# H atom positions have been added when not included in the experimental data
#
###############################################################################

data_YITGOA
_chemical_formula_moiety         '(C192 H120 Mn6 N16 O38)n'
_symmetry_cell_setting           triclinic
_symmetry_space_group_name_H-M   'P 1'
_symmetry_Int_Tables_number      1
_space_group_name_Hall           'P 1'
loop_
_symmetry_equiv_pos_site_id
_symmetry_equiv_pos_as_xyz
1 x,y,z
_cell_length_a                   7.0992(6)
_cell_length_b                   26.338(2)
_cell_length_c                   29.830(3)
_cell_angle_alpha                90
_cell_angle_beta                 96.560(3)
_cell_angle_gamma                90
_cell_volume                     5541.06
loop_
_atom_site_label
_atom_site_type_symbol
_atom_site_fract_x
_atom_site_fract_y
_atom_site_fract_z
Mn6 Mn 0.05014(7) 0.41097(2) 0.75276(2)
O4 O 0.9948(3) 0.34448(10) 0.69790(9)
C1 C 0.4866(5) 0.32632(13) 0.67766(12)
H1 H 0.455198 0.340562 0.705112
C2 C 0.2286(5) 0.26971(13) 0.57268(12)
C3 C 0.7199(5) 0.30133(13) 0.62991(12)
H2 H 0.848795 0.298365 0.624573
N2 N 0.0500(4) 0.29221(11) 0.49952(9)
O6 O 0.2306(4) 0.50240(10) 0.29158(10)
C4 C 0.6748(5) 0.32484(13) 0.66891(12)
O9 O 0.7670(3) 0.38245(9) 0.72862(8)
C26 C 0.8231(5) 0.35127(13) 0.70007(11)
C27 C 0.0814(5) 0.50404(14) 0.30990(13)
C30 C 0.1379(5) 0.20371(13) 0.62717(12)
H16 H 0.239175 0.208379 0.650501
C31 C 0.1103(5) 0.23149(13) 0.58545(12)
C32 C 0.2003(5) 0.29733(13) 0.53227(12)
C33 C 0.0657(5) 0.32950(14) 0.46800(12)
C39 C 0.1404(6) 0.38289(15) 0.37762(13)
H20 H 0.228293 0.355623 0.381745
C40 C 0.1754(6) 0.42253(15) 0.34963(14)
H21 H 0.288389 0.422918 0.335378
C41 C 0.0447(5) 0.46223(14) 0.34215(13)
C42 C 0.2354(5) 0.35900(15) 0.48152(13)
H22 H 0.280738 0.387016 0.465802
C43 C 0.3163(5) 0.33902(15) 0.52064(13)
H23 H 0.429929 0.350451 0.537557
C46 C 0.5780(5) 0.28208(14) 0.59862(12)
H25 H 0.609835 0.266225 0.571893
C47 C 0.3462(5) 0.30732(14) 0.64684(12)
H26 H 0.218111 0.308672 0.653120
C48 C 0.3888(5) 0.28607(13) 0.60650(12)
Mn3 Mn 0.40956(7) 0.55247(2) 0.25700(2)
Mn5 Mn 0.59044(7) 0.44753(2) 0.74300(2)
Mn1 Mn 0.09044(7) 0.05247(2) 0.24300(2)
N1 N 0.5921(4) 0.19711(11) 0.50457(10)
N3 N 0.6947(4) 0.27443(10) 0.44216(10)
H3 H 0.742576 0.263743 0.469014
N4 N 0.9477(4) 0.21396(10) 0.56113(10)
H4 H 0.899510 0.224851 0.534365
C5 C 0.7681(5) 0.31199(13) 0.41748(12)
C9 C 0.0669(5) 0.20566(15) 0.40206(13)
H6 H 0.030907 0.223529 0.427405
C10 C 0.2588(5) 0.20052(14) 0.39647(12)
C11 C 0.3067(5) 0.17713(16) 0.35797(13)
H7 H 0.436068 0.175653 0.352683
C12 C 0.1700(5) 0.15584(15) 0.32702(13)
H8 H 0.206549 0.139190 0.301112
C13 C 0.4153(5) 0.21834(13) 0.43074(12)
C14 C 0.4391(5) 0.19224(13) 0.47167(12)
C15 C 0.3186(6) 0.15257(15) 0.48496(14)
H9 H 0.202299 0.141919 0.468786
C16 C 0.3985(6) 0.13309(15) 0.52420(14)
H10 H 0.350366 0.106073 0.540656
C17 C 0.5726(5) 0.16117(14) 0.53667(12)
C18 C 0.7026(5) 0.15053(13) 0.57437(12)
C19 C 0.6605(5) 0.10785(14) 0.60423(13)
C20 C 0.5018(6) 0.10801(15) 0.62710(14)
H11 H 0.416962 0.135996 0.623708
C21 C 0.4646(5) 0.06794(16) 0.65495(15)
H12 H 0.353391 0.068331 0.669878
C22 C 0.5875(5) 0.02782(14) 0.66100(13)
C23 C 0.7490(5) 0.02705(15) 0.63856(13)
C24 C 0.7848(6) 0.06673(14) 0.61027(13)
H14 H 0.894675 0.065959 0.594861
O10 O 0.9570(3) 0.53929(9) 0.30379(9)
C28 C 0.8736(5) 0.17662(13) 0.58571(12)
C29 C 0.9969(5) 0.17022(14) 0.62752(13)
H15 H 0.980413 0.146607 0.650828
C34 C 0.9379(5) 0.33896(13) 0.42985(12)
C35 C 0.5340(5) 0.25654(13) 0.41770(12)
C36 C 0.5053(5) 0.28402(15) 0.37579(12)
H17 H 0.404187 0.279285 0.352423
C37 C 0.6480(5) 0.31768(15) 0.37575(13)
H18 H 0.665934 0.340992 0.352308
C38 C 0.8529(6) 0.42241(16) 0.39340(15)
H19 H 0.742926 0.423064 0.408775
C44 C 0.8866(6) 0.46151(16) 0.36473(16)
H24 H 0.798262 0.488657 0.360453
C45 C 0.9789(5) 0.38200(14) 0.39997(12)
O11 O 0.3222(4) 0.04844(10) 0.29869(9)
O13 O 0.2694(4) 0.00240(10) 0.20842(10)
O17 O 0.2670(3) 0.11755(9) 0.22862(8)
Mn8 Mn 0.94986(7) 0.58903(2) 0.24724(2)
O3 O 0.6778(4) 0.95156(10) 0.70131(9)
O5 O 0.3905(4) 0.98032(11) 0.70515(9)
H13 H 0.834693 0.999295 0.642659
C25 C 0.5491(5) 0.98414(15) 0.69104(13)
Mn2 Mn 0.44986(7) 0.91097(2) 0.74724(2)
Mn4 Mn 0.90956(7) 0.94753(2) 0.75700(2)
O12 O 0.5052(3) 0.84448(10) 0.80210(9)
O14 O 0.1195(3) 0.89715(9) 0.72914(8)
O15 O 0.3378(3) 0.85899(10) 0.69516(8)
O16 O 0.7330(3) 0.88245(9) 0.77138(8)
O18 O 0.4570(3) 0.96071(9) 0.80379(9)
H30 H 0.00343972 0.978012 0.296673
O2 O 0.9065(4) 0.05748(11) 0.18064(9)
O7 O 0.8805(3) 0.10285(9) 0.27086(8)
C6 C 0.8343(5) 0.13306(13) 0.30125(11)
C7 C 0.9810(5) 0.15852(13) 0.33335(11)
C8 C 0.9285(5) 0.18479(16) 0.37075(13)
H5 H 0.798315 0.188361 0.374739
O8 O 0.6622(3) 0.14101(10) 0.30484(8)
Mn7 Mn 0.55014(7) 0.08903(2) 0.25276(2)
H27 H 0.774236 0.063368 0.187203
H28 H 0.947608 0.0860968 0.162386
O1 O 0.5577(4) 0.48843(10) 0.23353(11)
O2_2 O 0.5935(4) 0.55748(11) 0.31936(9)
O7_2 O 0.6195(3) 0.60285(9) 0.22914(8)
C6_2 C 0.6657(5) 0.63306(13) 0.19875(11)
C7_2 C 0.5190(5) 0.65852(13) 0.16665(11)
C8_2 C 0.5715(5) 0.68479(16) 0.12925(13)
H5_2 H 0.701685 0.688361 0.125261
C9_2 C 0.4331(5) 0.70566(15) 0.09794(13)
H6_2 H 0.469093 0.723529 0.072595
C10_2 C 0.2412(5) 0.70052(14) 0.10353(12)
C11_2 C 0.1933(5) 0.67713(16) 0.14203(13)
H7_2 H 0.063932 0.675653 0.147317
C12_2 C 0.3300(5) 0.65584(15) 0.17298(13)
H8_2 H 0.293451 0.639190 0.198888
C13_2 C 0.0847(5) 0.71834(13) 0.06926(12)
C14_2 C 0.0609(5) 0.69224(13) 0.02833(12)
C15_2 C 0.1814(6) 0.65257(15) 0.01504(14)
H9_2 H 0.297701 0.641919 0.031214
O8_2 O 0.8378(3) 0.64101(10) 0.19516(8)
H17_2 H 0.095813 0.779285 0.147577
O11_2 O 0.1778(4) 0.54844(10) 0.20131(9)
O17_2 O 0.2330(3) 0.61755(9) 0.27138(8)
H27_2 H 0.725764 0.563368 0.312797
H28_2 H 0.552392 0.586097 0.337614
H29 H 0.553271 0.459789 0.255032
H30_2 H 0.49656 0.478012 0.203327
O5_2 O 0.1095(4) 0.48032(11) 0.79485(9)
C16_2 C 0.1015(6) 0.63309(15) 0.97580(14)
H10_2 H 0.149634 0.606073 0.959344
H11_2 H 0.083038 0.635996 0.876292
C21_2 C 0.0354(5) 0.56794(16) 0.84505(15)
H12_2 H 0.146609 0.568331 0.830122
O14_2 O 0.3805(3) 0.39715(9) 0.77086(8)
O15_2 O 0.1622(3) 0.35899(10) 0.80484(8)
O18_2 O 0.0430(3) 0.46071(9) 0.69621(9)
O10_2 O 0.5430(3) 0.03929(9) 0.19621(9)
C27_2 C 0.4186(5) 0.00404(14) 0.19010(13)
O3_2 O 0.8222(4) 0.45156(10) 0.79869(9)
N1_2 N 0.9079(4) 0.69711(11) 0.99543(10)
C1_2 C 0.0134(5) 0.82632(13) 0.82234(12)
H1_2 H 0.044802 0.840562 0.794888
C2_2 C 0.2714(5) 0.76971(13) 0.92732(12)
N4_2 N 0.5523(4) 0.71396(10) 0.93887(10)
H4_2 H 0.600490 0.724851 0.965635
C17_2 C 0.9274(5) 0.66117(14) 0.96333(12)
C18_2 C 0.7974(5) 0.65053(13) 0.92563(12)
C19_2 C 0.8395(5) 0.60785(14) 0.89577(13)
C20_2 C 0.9982(6) 0.60801(15) 0.87290(14)
C22_2 C 0.9125(5) 0.52782(14) 0.83900(13)
C23_2 C 0.7510(5) 0.52705(15) 0.86144(13)
H13_2 H 0.665307 0.499295 0.857341
C24_2 C 0.7152(6) 0.56673(14) 0.88973(13)
H14_2 H 0.605325 0.565959 0.905139
C25_2 C 0.9509(5) 0.48414(15) 0.80896(13)
C28_2 C 0.6264(5) 0.67662(13) 0.91429(12)
C29_2 C 0.5031(5) 0.67022(14) 0.87248(13)
H15_2 H 0.519587 0.646607 0.849172
C30_2 C 0.3621(5) 0.70371(13) 0.87283(12)
H16_2 H 0.260825 0.708379 0.849499
C31_2 C 0.3897(5) 0.73149(13) 0.91455(12)
C32_2 C 0.2997(5) 0.79733(13) 0.96773(12)
C43_2 C 0.1837(5) 0.83902(15) 0.97936(13)
H23_2 H 0.070071 0.850451 0.962443
C47_2 C 0.1538(5) 0.80732(14) 0.85316(12)
H26_2 H 0.281889 0.808672 0.846880
C48_2 C 0.1112(5) 0.78607(13) 0.89350(12)
C3_2 C 0.7801(5) 0.80133(13) 0.87009(12)
H2_2 H 0.651205 0.798365 0.875427
C4_2 C 0.8252(5) 0.82484(13) 0.83109(12)
C26_2 C 0.6769(5) 0.85127(13) 0.79993(11)
C46_2 C 0.9220(5) 0.78208(14) 0.90138(12)
H25_2 H 0.890165 0.766225 0.928107
O2_3 O 0.0935(4) 0.94252(11) 0.81936(9)
C6_3 C 0.1657(5) 0.86694(13) 0.69875(11)
C7_3 C 0.0190(5) 0.84148(13) 0.66665(11)
C8_3 C 0.0715(5) 0.81521(16) 0.62925(13)
H5_3 H 0.201685 0.811639 0.625261
H27_3 H 0.225764 0.936632 0.812797
H28_3 H 0.0523922 0.913903 0.837614
O5_3 O 0.6095(4) 0.01968(11) 0.29485(9)
H13_3 H 0.165307 0.000705 0.357341
C25_3 C 0.4509(5) 0.01586(15) 0.30896(13)
O12_2 O 0.4948(3) 0.15552(10) 0.19790(9)
H30_3 H 0.99656 0.021988 0.703327
N1_3 N 0.4079(4) 0.80289(11) 0.49543(10)
N3_2 N 0.3053(4) 0.72557(10) 0.55784(10)
H3_2 H 0.257424 0.736257 0.530986
N4_3 N 0.0523(4) 0.78604(10) 0.43887(10)
H4_3 H 0.100490 0.775149 0.465635
C5_2 C 0.2319(5) 0.68801(13) 0.58252(12)
C9_3 C 0.9331(5) 0.79434(15) 0.59794(13)
H6_3 H 0.969093 0.776471 0.572595
C10_3 C 0.7412(5) 0.79948(14) 0.60353(12)
C11_3 C 0.6933(5) 0.82287(16) 0.64203(13)
H7_3 H 0.563932 0.824347 0.647317
C12_3 C 0.8300(5) 0.84416(15) 0.67298(13)
H8_3 H 0.793451 0.860810 0.698888
C13_3 C 0.5847(5) 0.78166(13) 0.56926(12)
C14_3 C 0.5609(5) 0.80776(13) 0.52833(12)
C15_3 C 0.6814(6) 0.84743(15) 0.51504(14)
H9_3 H 0.797701 0.858081 0.531214
C16_3 C 0.6015(6) 0.86691(15) 0.47580(14)
H10_3 H 0.649634 0.893927 0.459344
C17_3 C 0.4274(5) 0.83883(14) 0.46333(12)
C18_3 C 0.2974(5) 0.84947(13) 0.42563(12)
C19_3 C 0.3395(5) 0.89215(14) 0.39577(13)
C20_3 C 0.4982(6) 0.89199(15) 0.37290(14)
H11_3 H 0.583038 0.864004 0.376292
C21_3 C 0.5354(5) 0.93206(16) 0.34505(15)
H12_3 H 0.646609 0.931669 0.330122
C22_3 C 0.4125(5) 0.97218(14) 0.33900(13)
C23_3 C 0.2510(5) 0.97295(15) 0.36144(13)
C24_3 C 0.2152(6) 0.93327(14) 0.38973(13)
H14_3 H 0.105325 0.934041 0.405139
C28_3 C 0.1264(5) 0.82338(13) 0.41429(12)
C29_3 C 0.0031(5) 0.82978(14) 0.37248(13)
H15_3 H 0.019587 0.853393 0.349172
C34_2 C 0.0621(5) 0.66104(13) 0.57015(12)
C35_2 C 0.4660(5) 0.74346(13) 0.58230(12)
C36_2 C 0.4947(5) 0.71598(15) 0.62421(12)
H17_3 H 0.595813 0.720715 0.647577
C37_2 C 0.3520(5) 0.68232(15) 0.62425(13)
H18_2 H 0.334066 0.659008 0.647692
C38_2 C 0.1471(6) 0.57759(16) 0.60660(15)
H19_2 H 0.257074 0.576936 0.591225
C44_2 C 0.1134(6) 0.53849(16) 0.63527(16)
H24_2 H 0.201738 0.511343 0.639547
C45_2 C 0.0211(5) 0.61800(14) 0.60003(12)
O13_2 O 0.7306(4) 0.99760(10) 0.79158(10)
O4_2 O 0.0052(3) 0.65552(10) 0.30210(9)
C1_3 C 0.5134(5) 0.67368(13) 0.32234(12)
H1_3 H 0.544802 0.659438 0.294888
C2_3 C 0.7714(5) 0.73029(13) 0.42732(12)
C3_3 C 0.2801(5) 0.69867(13) 0.37009(12)
H2_3 H 0.151205 0.701635 0.375427
N2_2 N 0.9500(4) 0.70779(11) 0.50048(9)
O6_2 O 0.7694(4) 0.49760(10) 0.70842(10)
C4_3 C 0.3252(5) 0.67516(13) 0.33109(12)
C26_3 C 0.1769(5) 0.64873(13) 0.29993(11)
C27_3 C 0.9186(5) 0.49596(14) 0.69010(13)
C30_3 C 0.8621(5) 0.79629(13) 0.37283(12)
H16_3 H 0.760825 0.791621 0.349499
C31_3 C 0.8897(5) 0.76851(13) 0.41455(12)
C32_3 C 0.7997(5) 0.70267(13) 0.46773(12)
C33_2 C 0.9343(5) 0.67050(14) 0.53200(12)
C39_2 C 0.8596(6) 0.61711(15) 0.62238(13)
H20_2 H 0.771707 0.644377 0.618255
C40_2 C 0.8246(6) 0.57747(15) 0.65037(14)
H21_2 H 0.711611 0.577082 0.664622
C41_2 C 0.9553(5) 0.53777(14) 0.65785(13)
C42_2 C 0.7646(5) 0.64100(15) 0.51848(13)
H22_2 H 0.719262 0.612984 0.534198
C43_3 C 0.6837(5) 0.66098(15) 0.47936(13)
H23_3 H 0.570071 0.649549 0.462443
C46_3 C 0.4220(5) 0.71792(14) 0.40138(12)
H25_3 H 0.390165 0.733775 0.428107
C47_3 C 0.6538(5) 0.69268(14) 0.35316(12)
H26_3 H 0.781889 0.691328 0.346880
C48_3 C 0.6112(5) 0.71393(13) 0.39350(12)
C3_4 C 0.2199(5) 0.19867(13) 0.12991(12)
H2_4 H 0.348795 0.201635 0.124573
C4_4 C 0.1748(5) 0.17516(13) 0.16891(12)
C26_4 C 0.3231(5) 0.14873(13) 0.20007(11)
C46_4 C 0.0780(5) 0.21792(14) 0.09862(12)
H25_4 H 0.109835 0.233775 0.071893
N1_4 N 0.0921(4) 0.30289(11) 0.00457(10)
C1_4 C 0.9866(5) 0.17368(13) 0.17766(12)
H1_4 H 0.955198 0.159438 0.205112
C2_4 C 0.7286(5) 0.23029(13) 0.07268(12)
N4_4 N 0.4477(4) 0.28604(10) 0.06113(10)
H4_4 H 0.399510 0.275149 0.034365
C17_4 C 0.0726(5) 0.33883(14) 0.03667(12)
C18_4 C 0.2026(5) 0.34947(13) 0.07437(12)
C19_4 C 0.1605(5) 0.39215(14) 0.10423(13)
C20_4 C 0.0018(6) 0.39199(15) 0.12710(14)
C22_4 C 0.0875(5) 0.47218(14) 0.16100(13)
C23_4 C 0.2490(5) 0.47295(15) 0.13856(13)
H13_4 H 0.334693 0.500705 0.142659
C24_4 C 0.2848(6) 0.43327(14) 0.11027(13)
H14_4 H 0.394675 0.434041 0.094861
C25_4 C 0.0491(5) 0.51586(15) 0.19104(13)
C28_4 C 0.3736(5) 0.32338(13) 0.08571(12)
C29_4 C 0.4969(5) 0.32978(14) 0.12752(13)
H15_4 H 0.480413 0.353393 0.150828
C30_4 C 0.6379(5) 0.29629(13) 0.12717(12)
H16_4 H 0.739175 0.291621 0.150501
C31_4 C 0.6103(5) 0.26851(13) 0.08545(12)
C32_4 C 0.7003(5) 0.20267(13) 0.03227(12)
C43_4 C 0.8163(5) 0.16098(15) 0.02064(13)
H23_4 H 0.929929 0.149549 0.037557
C47_4 C 0.8462(5) 0.19268(14) 0.14684(12)
H26_4 H 0.718111 0.191328 0.153120
C48_4 C 0.8888(5) 0.21393(13) 0.10650(12)
C27_4 C 0.5814(5) 0.99596(14) 0.80990(13)
O5_4 O 0.8905(4) 0.51968(11) 0.20515(9)
C16_4 C 0.8985(6) 0.36691(15) 0.02420(14)
H10_4 H 0.850366 0.393927 0.040656
H11_4 H 0.916962 0.364004 0.123708
C21_4 C 0.9646(5) 0.43206(16) 0.15495(15)
H12_4 H 0.853391 0.431669 0.169878
O1_2 O 0.4423(4) 0.51157(10) 0.76647(11)
O2_4 O 0.4065(4) 0.44252(11) 0.68064(9)
C6_4 C 0.3343(5) 0.36694(13) 0.80125(11)
C7_4 C 0.4810(5) 0.34148(13) 0.83335(11)
C8_4 C 0.4285(5) 0.31521(16) 0.87075(13)
H5_4 H 0.298315 0.311639 0.874739
C9_4 C 0.5669(5) 0.29434(15) 0.90206(13)
H6_4 H 0.530907 0.276471 0.927405
C10_4 C 0.7588(5) 0.29948(14) 0.89647(12)
C11_4 C 0.8067(5) 0.32287(16) 0.85797(13)
H7_4 H 0.936068 0.324347 0.852683
C12_4 C 0.6700(5) 0.34416(15) 0.82702(13)
H8_4 H 0.706549 0.360810 0.801112
C13_4 C 0.9153(5) 0.28166(13) 0.93074(12)
C14_4 C 0.9391(5) 0.30776(13) 0.97167(12)
C15_4 C 0.8186(6) 0.34743(15) 0.98496(14)
H9_4 H 0.702299 0.358081 0.968786
H17_4 H 0.904187 0.220715 0.852423
H27_4 H 0.274236 0.436632 0.687203
H28_4 H 0.447608 0.413903 0.662386
H29_2 H 0.446729 0.540211 0.744968
H30_4 H 0.50344 0.521988 0.796673
O1_3 O 0.9423(4) 0.98843(10) 0.26647(11)
H29_3 H 0.946729 0.959789 0.244968
N2_3 N 0.4500(4) 0.79221(11) 0.00048(9)
N3_3 N 0.8053(4) 0.77443(10) 0.05784(10)
H3_3 H 0.757424 0.763743 0.030986
C5_3 C 0.7319(5) 0.81199(13) 0.08252(12)
C33_3 C 0.4343(5) 0.82950(14) 0.03200(12)
C34_3 C 0.5621(5) 0.83896(13) 0.07015(12)
C35_3 C 0.9660(5) 0.75654(13) 0.08230(12)
C36_3 C 0.9947(5) 0.78402(15) 0.12421(12)
C37_3 C 0.8520(5) 0.81768(15) 0.12425(13)
H18_3 H 0.834066 0.840992 0.147692
C38_3 C 0.6471(6) 0.92241(16) 0.10660(15)
H19_3 H 0.757074 0.923064 0.091225
C39_3 C 0.3596(6) 0.88289(15) 0.12238(13)
H20_3 H 0.271707 0.855623 0.118255
C40_3 C 0.3246(6) 0.92253(15) 0.15037(14)
H21_3 H 0.211611 0.922918 0.164622
C41_3 C 0.4553(5) 0.96223(14) 0.15785(13)
C42_3 C 0.2646(5) 0.85900(15) 0.01848(13)
H22_3 H 0.219262 0.887016 0.034198
C44_3 C 0.6134(6) 0.96151(16) 0.13527(16)
H24_3 H 0.701738 0.988657 0.139547
C45_3 C 0.5211(5) 0.88200(14) 0.10003(12)
O1_4 O 0.0577(4) 0.01157(10) 0.73353(11)
H29_4 H 0.0532708 0.040211 0.755032
N2_4 N 0.5500(4) 0.20779(11) 0.99952(9)
N3_4 N 0.1947(4) 0.22557(10) 0.94216(10)
H3_4 H 0.242576 0.236257 0.969014
C5_4 C 0.2681(5) 0.18801(13) 0.91748(12)
C33_4 C 0.5657(5) 0.17050(14) 0.96800(12)
C34_4 C 0.4379(5) 0.16104(13) 0.92985(12)
C35_4 C 0.0340(5) 0.24346(13) 0.91770(12)
C36_4 C 0.0053(5) 0.21598(15) 0.87579(12)
C37_4 C 0.1480(5) 0.18232(15) 0.87575(13)
H18_4 H 0.165934 0.159008 0.852308
C38_4 C 0.3529(6) 0.07759(16) 0.89340(15)
H19_4 H 0.242926 0.076936 0.908775
C39_4 C 0.6404(6) 0.11711(15) 0.87762(13)
H20_4 H 0.728293 0.144377 0.881745
C40_4 C 0.6754(6) 0.07747(15) 0.84963(14)
H21_4 H 0.788389 0.077082 0.835378
C41_4 C 0.5447(5) 0.03777(14) 0.84215(13)
C42_4 C 0.7354(5) 0.14100(15) 0.98152(13)
H22_4 H 0.780738 0.112984 0.965802
C44_4 C 0.3866(6) 0.03849(16) 0.86473(16)
H24_4 H 0.298262 0.011343 0.860453
C45_4 C 0.4789(5) 0.11800(14) 0.89997(12)
loop_
_geom_bond_atom_site_label_1
_geom_bond_atom_site_label_2
_geom_bond_site_symmetry_1
_geom_bond_site_symmetry_2
O4 C26 1_555 1_555
C1 H1 1_555 1_555
C2 C31 1_555 1_555
C3 H2 1_555 1_555
N2 C32 1_555 1_555
O6 C27 1_555 1_555
C4 C1 1_555 1_555
O9 C26 1_555 1_555
C26 C4 1_555 1_555
C27 C41 1_555 1_555
H16 C30 1_555 1_555
C32 C2 1_555 1_555
C33 N2 1_555 1_555
C39 H20 1_555 1_555
C40 C39 1_555 1_555
H21 C40 1_555 1_555
C41 C40 1_555 1_555
C42 C33 1_555 1_555
H22 C42 1_555 1_555
C43 C32 1_555 1_555
H23 C43 1_555 1_555
C46 C3 1_555 1_555
H25 C46 1_555 1_555
C47 C1 1_555 1_555
H26 C47 1_555 1_555
C48 C2 1_555 1_555
Mn3 O6 1_555 1_555
Mn5 O9 1_555 1_555
C3 C4 1_555 1_555
C30 C31 1_555 1_555
C42 C43 1_555 1_555
C46 C48 1_555 1_555
C47 C48 1_555 1_555
N1 C14 1_555 1_555
N3 H3 1_555 1_555
N4 H4 1_555 1_555
C5 N3 1_555 1_555
H6 C9 1_555 1_555
C10 C9 1_555 1_555
C11 C10 1_555 1_555
H7 C11 1_555 1_555
H8 C12 1_555 1_555
C13 C10 1_555 1_555
C14 C13 1_555 1_555
C15 C14 1_555 1_555
H9 C15 1_555 1_555
C16 C15 1_555 1_555
H10 C16 1_555 1_555
C17 N1 1_555 1_555
C18 C17 1_555 1_555
C19 C18 1_555 1_555
C20 C19 1_555 1_555
H11 C20 1_555 1_555
C21 C20 1_555 1_555
H12 C21 1_555 1_555
C22 C21 1_555 1_555
C23 C22 1_555 1_555
C24 C19 1_555 1_555
H14 C24 1_555 1_555
C28 N4 1_555 1_555
C29 C28 1_555 1_555
H15 C29 1_555 1_555
C34 C5 1_555 1_555
C35 N3 1_555 1_555
C36 C35 1_555 1_555
H17 C36 1_555 1_555
C37 C5 1_555 1_555
H18 C37 1_555 1_555
C38 H19 1_555 1_555
C44 C38 1_555 1_555
H24 C44 1_555 1_555
C45 C34 1_555 1_555
O11 Mn1 1_555 1_555
O13 Mn1 1_555 1_555
O17 Mn1 1_555 1_555
Mn8 O10 1_555 1_555
C11 C12 1_555 1_555
C13 C35 1_555 1_555
C16 C17 1_555 1_555
C18 C28 1_555 1_555
C23 C24 1_555 1_555
C36 C37 1_555 1_555
C38 C45 1_555 1_555
O3 C25 1_555 1_555
O5 C25 1_555 1_555
Mn2 O3 1_555 1_555
Mn4 O3 1_555 1_555
O12 Mn2 1_555 1_555
O14 Mn2 1_555 1_555
O15 Mn2 1_555 1_555
O16 Mn2 1_555 1_555
O18 Mn2 1_555 1_555
O5 Mn2 1_555 1_555
Mn4 O16 1_555 1_555
C6 O7 1_555 1_555
C7 C6 1_555 1_555
C8 C7 1_555 1_555
H5 C8 1_555 1_555
O8 C6 1_555 1_555
Mn7 O7 1_555 1_555
O8 Mn7 1_555 1_555
O2 H27 1_555 1_555
O2 H28 1_555 1_555
Mn3 O1 1_555 1_555
O2_2 Mn3 1_555 1_555
O7_2 Mn3 1_555 1_555
C6_2 O7_2 1_555 1_555
C7_2 C6_2 1_555 1_555
C8_2 C7_2 1_555 1_555
H5_2 C8_2 1_555 1_555
C9_2 C8_2 1_555 1_555
H6_2 C9_2 1_555 1_555
C10_2 C9_2 1_555 1_555
C11_2 C10_2 1_555 1_555
H7_2 C11_2 1_555 1_555
C12_2 C7_2 1_555 1_555
H8_2 C12_2 1_555 1_555
C13_2 C10_2 1_555 1_555
C14_2 C13_2 1_555 1_555
C15_2 C14_2 1_555 1_555
H9_2 C15_2 1_555 1_555
O8_2 C6_2 1_555 1_555
O11_2 Mn3 1_555 1_555
O17_2 Mn3 1_555 1_555
Mn8 O7_2 1_555 1_555
C11_2 C12_2 1_555 1_555
O8_2 Mn8 1_555 1_555
O2_2 H27_2 1_555 1_555
O2_2 H28_2 1_555 1_555
O1 H29 1_555 1_555
O1 H30_2 1_555 1_555
H10_2 C16_2 1_555 1_555
H12_2 C21_2 1_555 1_555
O14_2 Mn6 1_555 1_555
O15_2 Mn6 1_555 1_555
O18_2 Mn6 1_555 1_555
O5_2 Mn6 1_555 1_555
O13 C27_2 1_555 1_555
O10_2 C27_2 1_555 1_555
Mn7 O10_2 1_555 1_555
O3_2 C25_2 1_555 1_555
C1_2 H1_2 1_555 1_555
C2_2 C31_2 1_555 1_555
N4_2 H4_2 1_555 1_555
C17_2 N1_2 1_555 1_555
C18_2 C17_2 1_555 1_555
C19_2 C18_2 1_555 1_555
C20_2 C19_2 1_555 1_555
C23_2 C22_2 1_555 1_555
H13_2 C23_2 1_555 1_555
C24_2 C19_2 1_555 1_555
H14_2 C24_2 1_555 1_555
C25_2 C22_2 1_555 1_555
C28_2 N4_2 1_555 1_555
C29_2 C28_2 1_555 1_555
H15_2 C29_2 1_555 1_555
C30_2 C29_2 1_555 1_555
H16_2 C30_2 1_555 1_555
C31_2 N4_2 1_555 1_555
C32_2 C2_2 1_555 1_555
C43_2 C32_2 1_555 1_555
H23_2 C43_2 1_555 1_555
C47_2 C1_2 1_555 1_555
H26_2 C47_2 1_555 1_555
C48_2 C2_2 1_555 1_555
Mn5 O3_2 1_555 1_555
C18_2 C28_2 1_555 1_555
C23_2 C24_2 1_555 1_555
C30_2 C31_2 1_555 1_555
C47_2 C48_2 1_555 1_555
O12 C26_2 1_555 1_555
C3_2 H2_2 1_555 1_555
O16 C26_2 1_555 1_555
C26_2 C4_2 1_555 1_555
C46_2 C3_2 1_555 1_555
H25_2 C46_2 1_555 1_555
C3_2 C4_2 1_555 1_555
C6_3 O14 1_555 1_555
C7_3 C6_3 1_555 1_555
C8_3 C7_3 1_555 1_555
H5_3 C8_3 1_555 1_555
O15 C6_3 1_555 1_555
O2_3 H27_3 1_555 1_555
O2_3 H28_3 1_555 1_555
O11 C25_3 1_555 1_555
O5_3 C25_3 1_555 1_555
Mn7 O11 1_555 1_555
O12_2 Mn7 1_555 1_555
O17 Mn7 1_555 1_555
O5_3 Mn7 1_555 1_555
N1_3 C14_3 1_555 1_555
N3_2 H3_2 1_555 1_555
N4_3 H4_3 1_555 1_555
C5_2 N3_2 1_555 1_555
H6_3 C9_3 1_555 1_555
C10_3 C9_3 1_555 1_555
C11_3 C10_3 1_555 1_555
H7_3 C11_3 1_555 1_555
H8_3 C12_3 1_555 1_555
C13_3 C10_3 1_555 1_555
C14_3 C13_3 1_555 1_555
C15_3 C14_3 1_555 1_555
H9_3 C15_3 1_555 1_555
C16_3 C15_3 1_555 1_555
H10_3 C16_3 1_555 1_555
C17_3 N1_3 1_555 1_555
C18_3 C17_3 1_555 1_555
C19_3 C18_3 1_555 1_555
C20_3 C19_3 1_555 1_555
H11_3 C20_3 1_555 1_555
C21_3 C20_3 1_555 1_555
H12_3 C21_3 1_555 1_555
C22_3 C21_3 1_555 1_555
C23_3 C22_3 1_555 1_555
C24_3 C19_3 1_555 1_555
H14_3 C24_3 1_555 1_555
C28_3 N4_3 1_555 1_555
C29_3 C28_3 1_555 1_555
H15_3 C29_3 1_555 1_555
C34_2 C5_2 1_555 1_555
C35_2 N3_2 1_555 1_555
C36_2 C35_2 1_555 1_555
H17_3 C36_2 1_555 1_555
C37_2 C5_2 1_555 1_555
H18_2 C37_2 1_555 1_555
C38_2 H19_2 1_555 1_555
C44_2 C38_2 1_555 1_555
H24_2 C44_2 1_555 1_555
C45_2 C34_2 1_555 1_555
O13_2 Mn4 1_555 1_555
C11_3 C12_3 1_555 1_555
C13_3 C35_2 1_555 1_555
C16_3 C17_3 1_555 1_555
C18_3 C28_3 1_555 1_555
C23_3 C24_3 1_555 1_555
C36_2 C37_2 1_555 1_555
C38_2 C45_2 1_555 1_555
O4_2 C26_3 1_555 1_555
C1_3 H1_3 1_555 1_555
C2_3 C31_3 1_555 1_555
C3_3 H2_3 1_555 1_555
N2_2 C32_3 1_555 1_555
O6_2 C27_3 1_555 1_555
C4_3 C1_3 1_555 1_555
O17_2 C26_3 1_555 1_555
C26_3 C4_3 1_555 1_555
C27_3 C41_2 1_555 1_555
H16_3 C30_3 1_555 1_555
C32_3 C2_3 1_555 1_555
C33_2 N2_2 1_555 1_555
C39_2 H20_2 1_555 1_555
C40_2 C39_2 1_555 1_555
H21_2 C40_2 1_555 1_555
C41_2 C40_2 1_555 1_555
C42_2 C33_2 1_555 1_555
H22_2 C42_2 1_555 1_555
C43_3 C32_3 1_555 1_555
H23_3 C43_3 1_555 1_555
C46_3 C3_3 1_555 1_555
H25_3 C46_3 1_555 1_555
C47_3 C1_3 1_555 1_555
H26_3 C47_3 1_555 1_555
C48_3 C2_3 1_555 1_555
Mn5 O6_2 1_555 1_555
C3_3 C4_3 1_555 1_555
C30_3 C31_3 1_555 1_555
C42_2 C43_3 1_555 1_555
C46_3 C48_3 1_555 1_555
C47_3 C48_3 1_555 1_555
O12_2 C26_4 1_555 1_555
C3_4 H2_4 1_555 1_555
O17 C26_4 1_555 1_555
C26_4 C4_4 1_555 1_555
C46_4 C3_4 1_555 1_555
H25_4 C46_4 1_555 1_555
C3_4 C4_4 1_555 1_555
O11_2 C25_4 1_555 1_555
C1_4 H1_4 1_555 1_555
C2_4 C31_4 1_555 1_555
N4_4 H4_4 1_555 1_555
C17_4 N1_4 1_555 1_555
C18_4 C17_4 1_555 1_555
C19_4 C18_4 1_555 1_555
C20_4 C19_4 1_555 1_555
C23_4 C22_4 1_555 1_555
H13_4 C23_4 1_555 1_555
C24_4 C19_4 1_555 1_555
H14_4 C24_4 1_555 1_555
C25_4 C22_4 1_555 1_555
C28_4 N4_4 1_555 1_555
C29_4 C28_4 1_555 1_555
H15_4 C29_4 1_555 1_555
C30_4 C29_4 1_555 1_555
H16_4 C30_4 1_555 1_555
C31_4 N4_4 1_555 1_555
C32_4 C2_4 1_555 1_555
C43_4 C32_4 1_555 1_555
H23_4 C43_4 1_555 1_555
C47_4 C1_4 1_555 1_555
H26_4 C47_4 1_555 1_555
C48_4 C2_4 1_555 1_555
C18_4 C28_4 1_555 1_555
C23_4 C24_4 1_555 1_555
C30_4 C31_4 1_555 1_555
C47_4 C48_4 1_555 1_555
O13_2 C27_4 1_555 1_555
O18 C27_4 1_555 1_555
H10_4 C16_4 1_555 1_555
H12_4 C21_4 1_555 1_555
O5_4 Mn8 1_555 1_555
Mn5 O1_2 1_555 1_555
O2_4 Mn5 1_555 1_555
O14_2 Mn5 1_555 1_555
C6_4 O14_2 1_555 1_555
C7_4 C6_4 1_555 1_555
C8_4 C7_4 1_555 1_555
H5_4 C8_4 1_555 1_555
C9_4 C8_4 1_555 1_555
H6_4 C9_4 1_555 1_555
C10_4 C9_4 1_555 1_555
C11_4 C10_4 1_555 1_555
H7_4 C11_4 1_555 1_555
C12_4 C7_4 1_555 1_555
H8_4 C12_4 1_555 1_555
C13_4 C10_4 1_555 1_555
C14_4 C13_4 1_555 1_555
C15_4 C14_4 1_555 1_555
H9_4 C15_4 1_555 1_555
O15_2 C6_4 1_555 1_555
C11_4 C12_4 1_555 1_555
O2_4 H27_4 1_555 1_555
O2_4 H28_4 1_555 1_555
O1_2 H29_2 1_555 1_555
O1_2 H30_4 1_555 1_555
O1_3 H29_3 1_555 1_555
N3_3 H3_3 1_555 1_555
C5_3 N3_3 1_555 1_555
C33_3 N2_3 1_555 1_555
C34_3 C5_3 1_555 1_555
C35_3 N3_3 1_555 1_555
C36_3 C35_3 1_555 1_555
C37_3 C5_3 1_555 1_555
H18_3 C37_3 1_555 1_555
C38_3 H19_3 1_555 1_555
C39_3 H20_3 1_555 1_555
C40_3 C39_3 1_555 1_555
H21_3 C40_3 1_555 1_555
C41_3 C40_3 1_555 1_555
C42_3 C33_3 1_555 1_555
H22_3 C42_3 1_555 1_555
C44_3 C38_3 1_555 1_555
H24_3 C44_3 1_555 1_555
C45_3 C34_3 1_555 1_555
C33_3 C34_3 1_555 1_555
C36_3 C37_3 1_555 1_555
C38_3 C45_3 1_555 1_555
C39_3 C45_3 1_555 1_555
C41_3 C44_3 1_555 1_555
O1_4 H29_4 1_555 1_555
N3_4 H3_4 1_555 1_555
C5_4 N3_4 1_555 1_555
C33_4 N2_4 1_555 1_555
C34_4 C5_4 1_555 1_555
C35_4 N3_4 1_555 1_555
C36_4 C35_4 1_555 1_555
C37_4 C5_4 1_555 1_555
H18_4 C37_4 1_555 1_555
C38_4 H19_4 1_555 1_555
C39_4 H20_4 1_555 1_555
C40_4 C39_4 1_555 1_555
H21_4 C40_4 1_555 1_555
C41_4 C40_4 1_555 1_555
C42_4 C33_4 1_555 1_555
H22_4 C42_4 1_555 1_555
C44_4 C38_4 1_555 1_555
H24_4 C44_4 1_555 1_555
C45_4 C34_4 1_555 1_555
C33_4 C34_4 1_555 1_555
C36_4 C37_4 1_555 1_555
C38_4 C45_4 1_555 1_555
C39_4 C45_4 1_555 1_555
C41_4 C44_4 1_555 1_555

#END
