
###############################################################################
#
# This file contains modified crystal structure data generated from the
# MOF subset of the Cambridge Structural Database (CSD) v543 
# hosted by the Cambridge Crystallographic Data Centre (CCDC).
#
# This work is licensed under the Creative Commons
# Attribution-NonCommercial-ShareAlike 4.0 International License.
# To view a copy of this license, visit
# http://creativecommons.org/licenses/by-nc-sa/4.0/
# or send a letter to
# Creative Commons, PO Box 1866, Mountain View, CA 94042, USA.
#
# CIF created using the CSD Python API on 29 September 2022
# The structure has been converted into the P1 space group
# The structure has a 3D framework
# The original CSD entry YITHOA is in the orthorhombic crystal system
# The original CSD entry YITHOA is in a Sohncke space group
# The framework has been calculated to contain at least 10.0% void space
# The void calculation uses a probe of radius 1.32A, grid spacing 0.4
#
###############################################################################

data_YITHOA
_chemical_formula_moiety         '(C16 H24 Ce4 O34 S5)n'
_symmetry_cell_setting           triclinic
_symmetry_space_group_name_H-M   'P 1'
_symmetry_Int_Tables_number      1
_space_group_name_Hall           'P 1'
loop_
_symmetry_equiv_pos_site_id
_symmetry_equiv_pos_as_xyz
1 x,y,z
_cell_length_a                   7.6439(15)
_cell_length_b                   22.013(4)
_cell_length_c                   6.1556(12)
_cell_angle_alpha                90
_cell_angle_beta                 90
_cell_angle_gamma                90
_cell_volume                     1035.77
loop_
_atom_site_label
_atom_site_type_symbol
_atom_site_fract_x
_atom_site_fract_y
_atom_site_fract_z
O7 O 0.1932(5) 0.33570(17) 0.6330(6)
O8 O 0.0850(5) 0.25059(17) 0.4933(6)
H4 H 0.0043 0.2880 0.9518
C4 C 0.0857(7) 0.2924(2) 0.6307(8)
Ce4 Ce 0.47932(4) 0.354231(11) 0.43918(4)
O4 O 0.6866(5) 0.33662(18) 0.1376(6)
O13 O 0.3134(5) 0.66338(18) 0.1376(6)
Ce6 Ce 0.52068(4) 0.645769(11) 0.43918(4)
S1 S 0.5000 0.5000 0.4466(3)
O1 O 0.3847(6) 0.46168(18) 0.5812(7)
O2 O 0.6007(5) 0.45698(17) 0.3116(7)
O3 O 0.5274(4) 0.34561(18) 0.8336(6)
O5 O 0.7876(4) 0.36198(16) 0.5846(6)
H1 H 0.8457 0.3905 0.5386
O6 O 0.8417(4) 0.23674(15) 0.7830(6)
H2 H 0.7634 0.2435 0.6953
C1 C 0.6699(6) 0.3431(2) 0.9364(9)
C2 C 0.8375(6) 0.3491(2) 0.8008(8)
H3 H 0.9078 0.3828 0.8572
C3 C 0.9455(6) 0.2901(2) 0.8105(9)
O9 O 0.2712(6) 0.38611(18) 0.1336(6)
H5 H 0.2763 0.4206 0.0752
H6 H 0.3308 0.3639 0.0509
O10 O 0.6153(6) 0.53832(18) 0.5812(7)
O11 O 0.3993(5) 0.54302(17) 0.3116(7)
O12 O 0.4726(4) 0.65439(18) 0.8336(6)
O14 O 0.2124(4) 0.63802(16) 0.5846(6)
H7 H 0.1543 0.6095 0.5386
O15 O 0.1583(4) 0.76326(15) 0.7830(6)
H8 H 0.2366 0.7565 0.6953
C5 C 0.3301(6) 0.6569(2) 0.9364(9)
C6 C 0.1625(6) 0.6509(2) 0.8008(8)
H9 H 0.0922 0.6172 0.8572
C7 C 0.0545(6) 0.7099(2) 0.8105(9)
O18 O 0.7288(6) 0.61389(18) 0.1336(6)
H11 H 0.7237 0.5794 0.0752
H12 H 0.6692 0.6361 0.0509
Ce7 Ce 0.02068(4) 0.854231(11) 0.56082(4)
Ce8 Ce 0.97932(4) 0.145769(11) 0.56082(4)
O21 O 0.6583(4) 0.73674(15) 0.2170(6)
O22 O 0.3417(4) 0.26326(15) 0.2170(6)
O24 O 0.8068(5) 0.66430(17) 0.6330(6)
O25 O 0.4150(5) 0.75059(17) 0.5067(6)
O26 O 0.5850(5) 0.24941(17) 0.5067(6)
O17 O 0.9150(5) 0.74941(17) 0.4933(6)
H10 H 0.9957 0.7120 0.9518
C8 C 0.9143(7) 0.7076(2) 0.6307(8)
S1_2 S 0.0000 0.0000 0.5534(3)
O11_2 O 0.1007(5) 0.04302(17) 0.6884(7)
O12_2 O 0.0274(4) 0.15439(18) 0.1664(6)
O14_2 O 0.2876(4) 0.13802(16) 0.4154(6)
H7_2 H 0.3457 0.1095 0.4614
H8_2 H 0.2634 0.2565 0.3047
O16 O 0.6932(5) 0.16430(17) 0.3670(6)
C5_2 C 0.1699(6) 0.1569(2) 0.0636(9)
C6_2 C 0.3375(6) 0.1509(2) 0.1992(8)
H9_2 H 0.4078 0.1172 0.1428
C7_2 C 0.4455(6) 0.2099(2) 0.1895(9)
H10_2 H 0.5043 0.2120 0.0482
C8_2 C 0.5857(7) 0.2076(2) 0.3693(8)
O20 O 0.1866(5) 0.16338(18) 0.8624(6)
S1_3 S 0.0000 1.0000 0.5534(3)
O1_2 O 0.1153(6) 0.96168(18) 0.4188(7)
O9_2 O 0.2288(6) 0.88611(18) 0.8664(6)
H5_2 H 0.2237 0.9206 0.9248
H6_2 H 0.1692 0.8639 0.9491
O23 O 0.3068(5) 0.83570(17) 0.3670(6)
S1_4 S 1.0000 0.0000 0.5534(3)
O10_2 O 0.8847(6) 0.03832(18) 0.4188(7)
O18_2 O 0.7712(6) 0.11389(18) 0.8664(6)
H11_2 H 0.7763 0.0794 0.9248
H12_2 H 0.8308 0.1361 0.9491
S1_5 S 1.0000 1.0000 0.5534(3)
O2_2 O 0.8993(5) 0.95698(17) 0.6884(7)
O3_2 O 0.9726(4) 0.84561(18) 0.1664(6)
O5_2 O 0.7124(4) 0.86198(16) 0.4154(6)
H1_2 H 0.6543 0.8905 0.4614
H2_2 H 0.7366 0.7435 0.3047
C1_2 C 0.8301(6) 0.8431(2) 0.0636(9)
C2_2 C 0.6625(6) 0.8491(2) 0.1992(8)
H3_2 H 0.5922 0.8828 0.1428
C3_2 C 0.5545(6) 0.7901(2) 0.1895(9)
H4_2 H 0.4957 0.7880 0.0482
C4_2 C 0.4143(7) 0.7924(2) 0.3693(8)
O19 O 0.8134(5) 0.83662(18) 0.8624(6)
loop_
_geom_bond_atom_site_label_1
_geom_bond_atom_site_label_2
_geom_bond_site_symmetry_1
_geom_bond_site_symmetry_2
O7 C4 1_555 1_555
O8 C4 1_555 1_555
Ce4 O7 1_555 1_555
Ce4 O4 1_555 1_555
Ce6 O13 1_555 1_555
Ce4 O1 1_555 1_555
S1 O1 1_555 1_555
O2 Ce4 1_555 1_555
O3 Ce4 1_555 1_555
O5 Ce4 1_555 1_555
H1 O5 1_555 1_555
O6 H2 1_555 1_555
C1 O3 1_555 1_555
C2 O5 1_555 1_555
H3 C2 1_555 1_555
C3 O6 1_555 1_555
O9 Ce4 1_555 1_555
H5 O9 1_555 1_555
H6 O9 1_555 1_555
O10 S1 1_555 1_555
O11 S1 1_555 1_555
Ce6 O10 1_555 1_555
O12 Ce6 1_555 1_555
O14 Ce6 1_555 1_555
H7 O14 1_555 1_555
O15 H8 1_555 1_555
C5 O12 1_555 1_555
C6 O14 1_555 1_555
H9 C6 1_555 1_555
C7 O15 1_555 1_555
O18 Ce6 1_555 1_555
H11 O18 1_555 1_555
H12 O18 1_555 1_555
Ce7 O15 1_555 1_555
Ce8 O6 1_555 1_555
O21 Ce6 1_555 1_555
O22 Ce4 1_555 1_555
O24 Ce6 1_555 1_555
O25 Ce6 1_555 1_555
O26 Ce4 1_555 1_555
S1 O2 1_555 1_555
C1 C2 1_555 1_555
C2 C3 1_555 1_555
O11 Ce6 1_555 1_555
C5 C6 1_555 1_555
C6 C7 1_555 1_555
O24 C8 1_555 1_555
O17 C8 1_555 1_555
O11_2 S1_2 1_555 1_555
H7_2 O14_2 1_555 1_555
O22 H8_2 1_555 1_555
O16 C8_2 1_555 1_555
O26 C8_2 1_555 1_555
C5_2 O12_2 1_555 1_555
C6_2 O14_2 1_555 1_555
H9_2 C6_2 1_555 1_555
C7_2 O22 1_555 1_555
H10_2 C7_2 1_555 1_555
C8_2 C7_2 1_555 1_555
Ce8 O16 1_555 1_555
C5_2 C6_2 1_555 1_555
C6_2 C7_2 1_555 1_555
Ce7 O1_2 1_555 1_555
S1_3 O1_2 1_555 1_555
O9_2 Ce7 1_555 1_555
H5_2 O9_2 1_555 1_555
H6_2 O9_2 1_555 1_555
O23 Ce7 1_555 1_555
O10_2 S1_4 1_555 1_555
Ce8 O10_2 1_555 1_555
O18_2 Ce8 1_555 1_555
H11_2 O18_2 1_555 1_555
H12_2 O18_2 1_555 1_555
H1_2 O5_2 1_555 1_555
O21 H2_2 1_555 1_555
O23 C4_2 1_555 1_555
O25 C4_2 1_555 1_555
C1_2 O3_2 1_555 1_555
C2_2 O5_2 1_555 1_555
H3_2 C2_2 1_555 1_555
C3_2 O21 1_555 1_555
H4_2 C3_2 1_555 1_555
C4_2 C3_2 1_555 1_555
S1_5 O2_2 1_555 1_555
C1_2 C2_2 1_555 1_555
C2_2 C3_2 1_555 1_555

#END
