
###############################################################################
#
# This file contains modified crystal structure data generated from the
# MOF subset of the Cambridge Structural Database (CSD) v543 
# hosted by the Cambridge Crystallographic Data Centre (CCDC).
#
# This work is licensed under the Creative Commons
# Attribution-NonCommercial-ShareAlike 4.0 International License.
# To view a copy of this license, visit
# http://creativecommons.org/licenses/by-nc-sa/4.0/
# or send a letter to
# Creative Commons, PO Box 1866, Mountain View, CA 94042, USA.
#
# CIF created using the CSD Python API on 29 September 2022
# The structure has been converted into the P1 space group
# The structure has a 3D framework
# The original CSD entry YITHOA01 is in the monoclinic crystal system
# The original CSD entry YITHOA01 is in a Sohncke space group
# The framework has been calculated to contain at least 10.0% void space
# The void calculation uses a probe of radius 1.32A, grid spacing 0.4
#
###############################################################################

data_YITHOA01
_chemical_formula_moiety         '(C16 H24 Ce4 O36 S6)n'
_symmetry_cell_setting           triclinic
_symmetry_space_group_name_H-M   'P 1'
_symmetry_Int_Tables_number      1
_space_group_name_Hall           'P 1'
loop_
_symmetry_equiv_pos_site_id
_symmetry_equiv_pos_as_xyz
1 x,y,z
_cell_length_a                   21.960(4)
_cell_length_b                   7.6550(15)
_cell_length_c                   6.1670(12)
_cell_angle_alpha                90
_cell_angle_beta                 91.47(3)
_cell_angle_gamma                90
_cell_volume                     1036.35
loop_
_atom_site_label
_atom_site_type_symbol
_atom_site_fract_x
_atom_site_fract_y
_atom_site_fract_z
Ce1 Ce 0.645337(8) 0.25424(5) 0.05018(3)
S1 S 0.5000 0.2547(5) 0.0000
O2 O 0.53758(19) 0.1445(6) 0.1483(7)
O9 O 0.6124(2) 0.4530(5) 0.3549(6)
H5 H 0.5745 0.4750 0.3611
H6 H 0.6227 0.3805 0.4493
O10 O 0.45594(19) 0.3622(6) 0.1144(7)
O12 O 0.34449(19) 0.2037(4) 0.3465(5)
O13 O 0.34061(19) 0.0452(4) 0.6468(5)
C5 C 0.3443(2) 0.0612(7) 0.4451(6)
Ce6 Ce 0.354663(8) 0.25424(5) 0.94982(3)
O19 O 0.65939(19) 0.0452(4) 0.3532(5)
O22 O 0.73703(15) 0.3920(4) 0.2828(5)
O24 O 0.33562(18) 0.5398(4) 0.1377(7)
O25 O 0.24996(17) 0.1477(5) 0.0055(6)
S1_2 S 0.5000 0.2547(5) 1.0000
O1 O 0.54406(19) 0.3622(6) 0.8856(7)
O3 O 0.65551(19) 0.2037(4) 0.6535(5)
C1 C 0.6557(2) 0.0612(7) 0.5549(6)
O11 O 0.46242(19) 0.1445(6) 0.8517(7)
O18 O 0.3876(2) 0.4530(5) 0.6451(6)
H11 H 0.4255 0.4750 0.6389
H12 H 0.3773 0.3805 0.5507
O21 O 0.26297(15) 0.3920(4) 0.7172(5)
O23 O 0.66438(18) 0.5398(4) 0.8623(7)
O26 O 0.75004(17) 0.1477(5) 0.9945(6)
O8 O 0.74996(17) 0.6477(5) 0.0055(6)
O14 O 0.36235(17) 0.9446(5) 0.0945(5)
H7 H 0.3934 0.8847 0.0559
O15 O 0.23703(15) 0.8920(4) 0.2828(5)
H8 H 0.2402 0.9803 0.2000
C6 C 0.3491(2) 0.8949(6) 0.3113(7)
H9 H 0.3827 0.8237 0.3702
C7 C 0.2900(2) 0.7867(5) 0.3126(6)
H10 H 0.2878 0.7284 0.4536
C8 C 0.2927(2) 0.6469(6) 0.1378(7)
Ce7 Ce 0.145337(8) 0.75424(5) 0.05018(3)
O5 O 0.63765(17) 0.9446(5) 0.9055(5)
H1 H 0.6066 0.8847 0.9441
O6 O 0.76297(15) 0.8920(4) 0.7172(5)
H2 H 0.7598 0.9803 0.8000
C2 C 0.6509(2) 0.8949(6) 0.6887(7)
H3 H 0.6173 0.8237 0.6298
C3 C 0.7100(2) 0.7867(5) 0.6874(6)
H4 H 0.7122 0.7284 0.5464
C4 C 0.7073(2) 0.6469(6) 0.8622(7)
O17 O 0.25004(17) 0.6477(5) 0.9945(6)
Ce8 Ce 0.854663(8) 0.75424(5) 0.94982(3)
O23_2 O 0.16438(18) 0.0398(4) 0.8623(7)
S1_3 S -0.0000 0.7547(5) 0.0000
O2_2 O 0.03758(19) 0.6445(6) 0.1483(7)
O9_2 O 0.1124(2) 0.9530(5) 0.3549(6)
H5_2 H 0.0745 0.9750 0.3611
H6_2 H 0.1227 0.8805 0.4493
O19_2 O 0.15939(19) 0.5452(4) 0.3532(5)
S1_4 S 0.0000 0.7547(5) 1.0000
O1_2 O 0.04406(19) 0.8622(6) 0.8856(7)
O3_2 O 0.15551(19) 0.7037(4) 0.6535(5)
O5_2 O 0.13765(17) 0.4446(5) 0.9055(5)
H1_2 H 0.1066 0.3847 0.9441
H2_2 H 0.2598 0.4803 0.8000
C1_2 C 0.1557(2) 0.5612(7) 0.5549(6)
C2_2 C 0.1509(2) 0.3949(6) 0.6887(7)
H3_2 H 0.1173 0.3237 0.6298
C3_2 C 0.2100(2) 0.2867(5) 0.6874(6)
H4_2 H 0.2122 0.2284 0.5464
C4_2 C 0.2073(2) 0.1469(6) 0.8622(7)
O24_2 O 0.83562(18) 0.0398(4) 0.1377(7)
S1_5 S 1.0000 0.7547(5) 0.0000
O10_2 O 0.95594(19) 0.8622(6) 0.1144(7)
O12_2 O 0.84449(19) 0.7037(4) 0.3465(5)
O13_2 O 0.84061(19) 0.5452(4) 0.6468(5)
O14_2 O 0.86235(17) 0.4446(5) 0.0945(5)
H7_2 H 0.8934 0.3847 0.0559
H8_2 H 0.7402 0.4803 0.2000
C5_2 C 0.8443(2) 0.5612(7) 0.4451(6)
C6_2 C 0.8491(2) 0.3949(6) 0.3113(7)
H9_2 H 0.8827 0.3237 0.3702
C7_2 C 0.7900(2) 0.2867(5) 0.3126(6)
H10_2 H 0.7878 0.2284 0.4536
C8_2 C 0.7927(2) 0.1469(6) 0.1378(7)
S1_6 S 1.0000 0.7547(5) 1.0000
O11_2 O 0.96242(19) 0.6445(6) 0.8517(7)
O18_2 O 0.8876(2) 0.9530(5) 0.6451(6)
H11_2 H 0.9255 0.9750 0.6389
H12_2 H 0.8773 0.8805 0.5507
loop_
_geom_bond_atom_site_label_1
_geom_bond_atom_site_label_2
_geom_bond_site_symmetry_1
_geom_bond_site_symmetry_2
O2 Ce1 1_555 1_555
O9 Ce1 1_555 1_555
H5 O9 1_555 1_555
H6 O9 1_555 1_555
O10 S1 1_555 1_555
O13 C5 1_555 1_555
C5 O12 1_555 1_555
Ce6 O13 1_555 1_555
O19 Ce1 1_555 1_555
O22 Ce1 1_555 1_555
S1 O2 1_555 1_555
S1_2 O1 1_555 1_555
O19 C1 1_555 1_555
C1 O3 1_555 1_555
O11 S1_2 1_555 1_555
O18 Ce6 1_555 1_555
H11 O18 1_555 1_555
H12 O18 1_555 1_555
O21 Ce6 1_555 1_555
O11 Ce6 1_555 1_555
H7 O14 1_555 1_555
O15 H8 1_555 1_555
O24 C8 1_555 1_555
C6 O14 1_555 1_555
H9 C6 1_555 1_555
C7 O15 1_555 1_555
H10 C7 1_555 1_555
C8 C7 1_555 1_555
Ce7 O15 1_555 1_555
C6 C7 1_555 1_555
H1 O5 1_555 1_555
O6 H2 1_555 1_555
O23 C4 1_555 1_555
C2 O5 1_555 1_555
H3 C2 1_555 1_555
C3 O6 1_555 1_555
H4 C3 1_555 1_555
C4 C3 1_555 1_555
Ce8 O6 1_555 1_555
C2 C3 1_555 1_555
O2_2 Ce7 1_555 1_555
O9_2 Ce7 1_555 1_555
H5_2 O9_2 1_555 1_555
H6_2 O9_2 1_555 1_555
O19_2 Ce7 1_555 1_555
S1_3 O2_2 1_555 1_555
S1_4 O1_2 1_555 1_555
O19_2 C1_2 1_555 1_555
H1_2 O5_2 1_555 1_555
O21 H2_2 1_555 1_555
O23_2 C4_2 1_555 1_555
C1_2 O3_2 1_555 1_555
C2_2 O5_2 1_555 1_555
H3_2 C2_2 1_555 1_555
C3_2 O21 1_555 1_555
H4_2 C3_2 1_555 1_555
C4_2 C3_2 1_555 1_555
C1_2 C2_2 1_555 1_555
C2_2 C3_2 1_555 1_555
O10_2 S1_5 1_555 1_555
O13_2 C5_2 1_555 1_555
H7_2 O14_2 1_555 1_555
O22 H8_2 1_555 1_555
O24_2 C8_2 1_555 1_555
C5_2 O12_2 1_555 1_555
C6_2 O14_2 1_555 1_555
H9_2 C6_2 1_555 1_555
C7_2 O22 1_555 1_555
H10_2 C7_2 1_555 1_555
C8_2 C7_2 1_555 1_555
Ce8 O13_2 1_555 1_555
C5_2 C6_2 1_555 1_555
C6_2 C7_2 1_555 1_555
O11_2 S1_6 1_555 1_555
O18_2 Ce8 1_555 1_555
H11_2 O18_2 1_555 1_555
H12_2 O18_2 1_555 1_555
O11_2 Ce8 1_555 1_555

#END
