
###############################################################################
#
# This file contains modified crystal structure data generated from the
# MOF subset of the Cambridge Structural Database (CSD) v543 
# hosted by the Cambridge Crystallographic Data Centre (CCDC).
#
# This work is licensed under the Creative Commons
# Attribution-NonCommercial-ShareAlike 4.0 International License.
# To view a copy of this license, visit
# http://creativecommons.org/licenses/by-nc-sa/4.0/
# or send a letter to
# Creative Commons, PO Box 1866, Mountain View, CA 94042, USA.
#
# CIF created using the CSD Python API on 29 September 2022
# The structure has been converted into the P1 space group
# The structure has a 3D framework
# The original CSD entry YITQUQ is in the monoclinic crystal system
# The framework has been calculated to contain at least 10.0% void space
# The void calculation uses a probe of radius 1.32A, grid spacing 0.4
#
###############################################################################

data_YITQUQ
_chemical_formula_moiety         '(C216 H136 N32 O40 Zn8)n'
_symmetry_cell_setting           triclinic
_symmetry_space_group_name_H-M   'P 1'
_symmetry_Int_Tables_number      1
_space_group_name_Hall           'P 1'
loop_
_symmetry_equiv_pos_site_id
_symmetry_equiv_pos_as_xyz
1 x,y,z
_cell_length_a                   16.0554(18)
_cell_length_b                   16.5185(17)
_cell_length_c                   19.990(2)
_cell_angle_alpha                90
_cell_angle_beta                 93.140(2)
_cell_angle_gamma                90
_cell_volume                     5293.61
loop_
_atom_site_label
_atom_site_type_symbol
_atom_site_fract_x
_atom_site_fract_y
_atom_site_fract_z
C36 C 0.1164(3) 0.6535(3) 0.0349(2)
C37 C 0.1886(3) 0.6815(3) 0.0078(2)
C38 C 0.2507(3) 0.7167(3) 0.0488(2)
H20 H 0.2976 0.7382 0.0299
C39 C 0.2441(3) 0.7205(2) 0.1171(2)
C40 C 0.1736(3) 0.6888(3) 0.1447(2)
H21 H 0.1699 0.6879 0.1910
C41 C 0.1082(3) 0.6584(3) 0.1030(2)
H22 H 0.0591 0.6414 0.1212
C42 C 0.3129(3) 0.7594(3) 0.1603(2)
O9 O 0.3561(2) 0.8097(2) 0.12998(16)
O10 O 0.3242(2) 0.7391(2) 0.21973(17)
Zn4 Zn 0.45684(3) 0.87114(3) 0.15095(2)
Zn2 Zn 0.05641(3) 0.30164(3) 0.66820(2)
C13 C 0.1880(3) 0.2074(3) 0.6406(3)
C14 C 0.2651(3) 0.1867(3) 0.6031(2)
C15 C 0.3283(3) 0.1420(3) 0.6340(2)
H7 H 0.3228 0.1223 0.6771
C16 C 0.3997(3) 0.1264(3) 0.6013(2)
H8 H 0.4433 0.0984 0.6234
C17 C 0.4080(3) 0.1515(3) 0.5359(2)
C18 C 0.3437(3) 0.1960(3) 0.5043(2)
H9 H 0.3476 0.2131 0.4602
C19 C 0.2734(3) 0.2146(3) 0.5394(3)
H10 H 0.2314 0.2465 0.5191
C20 C 0.4867(3) 0.1323(3) 0.5037(2)
C21 C 0.4840(3) 0.1001(3) 0.4336(2)
C22 C 0.5548(3) 0.1045(3) 0.3979(2)
H11 H 0.6021 0.1302 0.4166
C23 C 0.5565(3) 0.0713(3) 0.3349(2)
H12 H 0.6044 0.0761 0.3111
C24 C 0.4885(3) 0.0314(3) 0.3068(2)
C25 C 0.4174(3) 0.0259(3) 0.3424(2)
C26 C 0.4143(3) 0.0608(3) 0.4054(2)
H14 H 0.3657 0.0579 0.4285
C28 C 0.0999(3) 0.3784(3) 0.7904(2)
C29 C 0.0887(3) 0.4447(3) 0.8411(2)
C30 C 0.1420(3) 0.4505(3) 0.8979(2)
H15 H 0.1861 0.4144 0.9041
C31 C 0.1301(3) 0.5094(3) 0.9450(2)
H16 H 0.1675 0.5142 0.9820
C32 C 0.0628(3) 0.5616(3) 0.9378(2)
C33 C 0.0082(3) 0.5549(3) 0.8817(2)
C34 C 0.0220(3) 0.4984(3) 0.8329(2)
C35 C 0.0454(3) 0.6231(3) 0.9901(2)
H19 H 0.1953 0.6766 0.9621
H26 H 0.0233 0.3270 0.2861
O1 O 0.1693(2) 0.1677(3) 0.68963(19)
O2 O 0.1483(2) 0.2680(2) 0.61865(19)
O3 O 0.5540(2) 0.1413(3) 0.53441(19)
O6 O 0.1378(2) 0.3165(2) 0.80684(18)
O7 O 0.0668(2) 0.3908(2) 0.73262(15)
Zn6 Zn 0.05641(3) 0.19836(3) 0.16820(2)
H13 H 0.3711 0.9984 0.3239
C27 C 0.4933(3) 0.9888(3) 0.2400(2)
O4 O 0.5538(2) 0.9976(2) 0.20610(17)
O5 O 0.4319(2) 0.9426(2) 0.22370(15)
N10 N 0.5512(2) 0.7988(2) 0.18306(16)
N11 N 0.4738(2) 0.8962(2) 0.05420(15)
C1 C 0.9159(3) 0.3866(2) 0.3889(2)
H1 H 0.9580 0.3484 0.3953
C2 C 0.8889(3) 0.4319(3) 0.44191(19)
C3 C 0.8252(3) 0.4876(2) 0.4323(2)
H2 H 0.8077 0.5170 0.4686
C4 C 0.7870(2) 0.5004(2) 0.36917(19)
C5 C 0.8146(2) 0.4567(2) 0.31544(19)
H3 H 0.7907 0.4653 0.2726
C6 C 0.8778(2) 0.4004(2) 0.32555(19)
C7 C 0.7151(2) 0.5564(2) 0.36216(19)
C8 C 0.6576(2) 0.5558(2) 0.41204(19)
H4 H 0.6660 0.5223 0.4492
C9 C 0.5882(2) 0.6050(2) 0.40616(18)
C10 C 0.5749(2) 0.6569(2) 0.35281(19)
H5 H 0.5290 0.6913 0.3502
C11 C 0.6319(2) 0.6566(2) 0.30291(18)
C12 C 0.7015(2) 0.6072(2) 0.30696(19)
H6 H 0.7390 0.6079 0.2731
H17 H 0.9620 0.5888 0.8772
H18 H 0.9867 0.4961 0.7944
C43 C 0.9727(3) 0.3608(3) 0.5327(2)
H23 H 0.9930 0.3193 0.5066
C44 C 0.9502(4) 0.4372(4) 0.6158(3)
H24 H 0.9507 0.4581 0.6590
C45 C 0.9118(4) 0.4708(4) 0.5616(3)
H25 H 0.8821 0.5192 0.5602
C46 C 0.9750(2) 0.3182(3) 0.2593(2)
C47 C 0.8889(3) 0.2753(3) 0.1813(2)
H27 H 0.8672 0.2477 0.1437
C48 C 0.8452(3) 0.3243(3) 0.2199(2)
H28 H 0.7890 0.3374 0.2138
C49 C 0.5433(2) 0.7439(2) 0.22933(19)
H29 H 0.4929 0.7290 0.2466
C50 C 0.6349(3) 0.8017(3) 0.1717(2)
H30 H 0.6590 0.8354 0.1409
C51 C 0.6767(2) 0.7482(3) 0.2119(2)
H31 H 0.7338 0.7382 0.2142
C52 C 0.5437(2) 0.5972(2) 0.52260(19)
H32 H 0.5961 0.5890 0.5435
C53 C 0.4112(3) 0.6148(2) 0.5053(2)
H33 H 0.3550 0.6212 0.5131
C54 C 0.4435(3) 0.6148(3) 0.4447(2)
H34 H 0.4146 0.6210 0.4034
N1 N 0.9244(2) 0.4204(2) 0.50847(16)
N2 N 0.9886(2) 0.3671(2) 0.59768(16)
N3 N 0.9000(2) 0.3514(2) 0.27026(15)
N4 N 0.9709(2) 0.2720(2) 0.20565(16)
N5 N 0.61783(19) 0.71165(19) 0.24874(16)
N7 N 0.5284(2) 0.6038(2) 0.45625(15)
N8 N 0.4738(2) 0.6038(2) 0.55420(15)
O8 O 0.9753(2) 0.6492(2) 0.9956(2)
Zn5 Zn 0.45684(3) 0.62886(3) 0.65095(2)
N9 N 0.9709(2) 0.2280(2) 0.70565(16)
C13_2 C 0.1880(3) 0.2926(3) 0.1406(3)
C14_2 C 0.2651(3) 0.3133(3) 0.1031(2)
C15_2 C 0.3283(3) 0.3580(3) 0.1340(2)
H7_2 H 0.3228 0.3777 0.1771
C16_2 C 0.3997(3) 0.3736(3) 0.1013(2)
H8_2 H 0.4433 0.4016 0.1234
C17_2 C 0.4080(3) 0.3485(3) 0.0359(2)
C18_2 C 0.3437(3) 0.3040(3) 0.0043(2)
C19_2 C 0.2734(3) 0.2854(3) 0.0394(3)
H10_2 H 0.2314 0.2535 0.0191
C20_2 C 0.4867(3) 0.3677(3) 0.0037(2)
C28_2 C 0.0999(3) 0.1216(3) 0.2904(2)
C29_2 C 0.0887(3) 0.0553(3) 0.3411(2)
C30_2 C 0.1420(3) 0.0495(3) 0.3979(2)
H15_2 H 0.1861 0.0856 0.4041
C34_2 C 0.0220(3) 0.0016(3) 0.3329(2)
O1_2 O 0.1693(2) 0.3323(3) 0.18963(19)
O2_2 O 0.1483(2) 0.2320(2) 0.11865(19)
O3_2 O 0.5540(2) 0.3587(3) 0.03441(19)
O6_2 O 0.1378(2) 0.1835(2) 0.30684(18)
O7_2 O 0.0668(2) 0.1092(2) 0.23262(15)
H9_2 H 0.3476 0.2869 0.9602
C21_2 C 0.4840(3) 0.3999(3) 0.9336(2)
C22_2 C 0.5548(3) 0.3955(3) 0.8979(2)
H11_2 H 0.6021 0.3698 0.9166
C23_2 C 0.5565(3) 0.4287(3) 0.8349(2)
H12_2 H 0.6044 0.4239 0.8111
C24_2 C 0.4885(3) 0.4686(3) 0.8068(2)
C25_2 C 0.4174(3) 0.4741(3) 0.8424(2)
H13_2 H 0.3711 0.5016 0.8239
C26_2 C 0.4143(3) 0.4392(3) 0.9054(2)
H14_2 H 0.3657 0.4421 0.9285
C27_2 C 0.4933(3) 0.5112(3) 0.7400(2)
H26_2 H 0.0233 0.1730 0.7861
O4_2 O 0.5538(2) 0.5024(2) 0.70610(17)
O5_2 O 0.4319(2) 0.5574(2) 0.72370(15)
N10_2 N 0.5512(2) 0.7012(2) 0.68306(16)
O11 O 0.3561(2) 0.6903(2) 0.62998(16)
C31_2 C 0.1301(3) 0.9906(3) 0.4450(2)
H16_2 H 0.1675 0.9858 0.4820
C32_2 C 0.0628(3) 0.9384(3) 0.4378(2)
C33_2 C 0.0082(3) 0.9451(3) 0.3817(2)
C35_2 C 0.0454(3) 0.8769(3) 0.4901(2)
C36_2 C 0.1164(3) 0.8465(3) 0.5349(2)
C37_2 C 0.1886(3) 0.8185(3) 0.5078(2)
H19_2 H 0.1953 0.8234 0.4621
C38_2 C 0.2507(3) 0.7833(3) 0.5488(2)
H20_2 H 0.2976 0.7618 0.5299
C39_2 C 0.2441(3) 0.7795(2) 0.6171(2)
C40_2 C 0.1736(3) 0.8112(3) 0.6447(2)
H21_2 H 0.1699 0.8121 0.6910
C41_2 C 0.1082(3) 0.8416(3) 0.6030(2)
H22_2 H 0.0591 0.8586 0.6212
C42_2 C 0.3129(3) 0.7406(3) 0.6603(2)
O10_2 O 0.3242(2) 0.7609(2) 0.71973(17)
H18_2 H 0.9867 0.0039 0.2944
C43_2 C 0.9727(3) 0.1392(3) 0.0327(2)
H23_2 H 0.9930 0.1807 0.0066
C44_2 C 0.9502(4) 0.0628(4) 0.1158(3)
H24_2 H 0.9507 0.0419 0.1590
C45_2 C 0.9118(4) 0.0292(4) 0.0616(3)
N1_2 N 0.9244(2) 0.0796(2) 0.00847(16)
N2_2 N 0.9886(2) 0.1329(2) 0.09768(16)
C1_2 C 0.9159(3) 0.1134(2) 0.8889(2)
H1_2 H 0.9580 0.1516 0.8953
C2_2 C 0.8889(3) 0.0681(3) 0.94191(19)
C3_2 C 0.8252(3) 0.0124(2) 0.9323(2)
C5_2 C 0.8146(2) 0.0433(2) 0.81544(19)
H3_2 H 0.7907 0.0347 0.7726
C6_2 C 0.8778(2) 0.0996(2) 0.82555(19)
C46_2 C 0.9750(2) 0.1818(3) 0.7593(2)
C47_2 C 0.8889(3) 0.2247(3) 0.6813(2)
H27_2 H 0.8672 0.2523 0.6437
C48_2 C 0.8452(3) 0.1757(3) 0.7199(2)
H28_2 H 0.7890 0.1626 0.7138
N3_2 N 0.9000(2) 0.1486(2) 0.77026(15)
H17_2 H 0.9620 0.9112 0.3772
H25_2 H 0.8821 0.9808 0.0602
C52_2 C 0.5437(2) 0.9028(2) 0.02260(19)
H32_2 H 0.5961 0.9110 0.0435
C53_2 C 0.4112(3) 0.8852(2) 0.0053(2)
H33_2 H 0.3550 0.8788 0.0131
O8_2 O 0.9753(2) 0.8508(2) 0.4956(2)
H2_2 H 0.8077 0.9830 0.9686
C4_2 C 0.7870(2) 0.9996(2) 0.86917(19)
C7_2 C 0.7151(2) 0.9436(2) 0.86216(19)
C8_2 C 0.6576(2) 0.9442(2) 0.91204(19)
H4_2 H 0.6660 0.9777 0.9492
C9_2 C 0.5882(2) 0.8950(2) 0.90616(18)
C10_2 C 0.5749(2) 0.8431(2) 0.85281(19)
H5_2 H 0.5290 0.8087 0.8502
C11_2 C 0.6319(2) 0.8434(2) 0.80291(18)
C12_2 C 0.7015(2) 0.8928(2) 0.80696(19)
H6_2 H 0.7390 0.8921 0.7731
C49_2 C 0.5433(2) 0.7561(2) 0.72933(19)
H29_2 H 0.4929 0.7710 0.7466
C50_2 C 0.6349(3) 0.6983(3) 0.6717(2)
H30_2 H 0.6590 0.6646 0.6409
C51_2 C 0.6767(2) 0.7518(3) 0.7119(2)
H31_2 H 0.7338 0.7618 0.7142
C54_2 C 0.4435(3) 0.8852(3) 0.9447(2)
H34_2 H 0.4146 0.8790 0.9034
N5_2 N 0.61783(19) 0.78835(19) 0.74874(16)
N7_2 N 0.5284(2) 0.8962(2) 0.95625(15)
H2_3 H 0.1923 0.0170 0.0314
C4_3 C 0.2130(2) 0.0004(2) 0.13083(19)
C7_3 C 0.2849(2) 0.0564(2) 0.13784(19)
C8_3 C 0.3424(2) 0.0558(2) 0.08796(19)
H4_3 H 0.3340 0.0223 0.0508
C9_3 C 0.4118(2) 0.1050(2) 0.09384(18)
C10_3 C 0.4251(2) 0.1569(2) 0.14719(19)
H5_3 H 0.4710 0.1913 0.1498
C11_3 C 0.3681(2) 0.1566(2) 0.19709(18)
C12_3 C 0.2985(2) 0.1072(2) 0.19304(19)
H6_3 H 0.2610 0.1079 0.2269
C49_3 C 0.4567(2) 0.2439(2) 0.27067(19)
H29_3 H 0.5071 0.2290 0.2534
C50_3 C 0.3651(3) 0.3017(3) 0.3283(2)
H30_3 H 0.3410 0.3354 0.3591
C51_3 C 0.3233(2) 0.2482(3) 0.2881(2)
H31_3 H 0.2662 0.2382 0.2858
C54_3 C 0.5565(3) 0.1148(3) 0.0553(2)
H34_3 H 0.5854 0.1210 0.0966
N5_3 N 0.38217(19) 0.21165(19) 0.25126(16)
N6 N 0.4488(2) 0.2988(2) 0.31694(16)
N7_3 N 0.4716(2) 0.1038(2) 0.04375(15)
Zn3 Zn 0.54316(3) 0.37114(3) 0.34905(2)
H17_3 H 0.0380 0.0888 0.6228
H25_3 H 0.1179 0.0192 0.9398
C52_3 C 0.4563(2) 0.0972(2) 0.97740(19)
H32_3 H 0.4039 0.0890 0.9565
C53_3 C 0.5888(3) 0.1148(2) 0.9947(2)
H33_3 H 0.6450 0.1212 0.9869
N8_2 N 0.5262(2) 0.1038(2) 0.94580(15)
O8_3 O 0.0247(2) 0.1492(2) 0.5044(2)
Zn5_2 Zn 0.54316(3) 0.12886(3) 0.84905(2)
C1_3 C 0.0841(3) 0.8866(2) 0.1111(2)
H1_3 H 0.0420 0.8484 0.1047
C2_3 C 0.1111(3) 0.9319(3) 0.05809(19)
C3_3 C 0.1748(3) 0.9876(2) 0.0677(2)
C5_3 C 0.1854(2) 0.9567(2) 0.18456(19)
H3_3 H 0.2093 0.9653 0.2274
C6_3 C 0.1222(2) 0.9004(2) 0.17445(19)
C46_3 C 0.0250(2) 0.8182(3) 0.2407(2)
C47_3 C 0.1111(3) 0.7753(3) 0.3187(2)
H27_3 H 0.1328 0.7477 0.3563
C48_3 C 0.1548(3) 0.8243(3) 0.2801(2)
H28_3 H 0.2110 0.8374 0.2862
N3_3 N 0.1000(2) 0.8514(2) 0.22974(15)
N4_2 N 0.0291(2) 0.7720(2) 0.29435(16)
H18_3 H 0.0133 0.9961 0.7056
C43_3 C 0.0273(3) 0.8608(3) 0.9673(2)
H23_3 H 0.0070 0.8193 0.9934
C44_3 C 0.0498(4) 0.9372(4) 0.8842(3)
H24_3 H 0.0493 0.9581 0.8410
C45_3 C 0.0882(4) 0.9708(4) 0.9384(3)
N1_3 N 0.0756(2) 0.9204(2) 0.99153(16)
N2_3 N 0.0114(2) 0.8671(2) 0.90232(16)
N9_2 N 0.0291(2) 0.7280(2) 0.79435(16)
C31_3 C 0.8699(3) 0.0094(3) 0.5550(2)
H16_3 H 0.8325 0.0142 0.5180
C32_3 C 0.9372(3) 0.0616(3) 0.5622(2)
C33_3 C 0.9918(3) 0.0549(3) 0.6183(2)
C35_3 C 0.9546(3) 0.1231(3) 0.5099(2)
C36_3 C 0.8836(3) 0.1535(3) 0.4651(2)
C37_3 C 0.8114(3) 0.1815(3) 0.4922(2)
H19_3 H 0.8047 0.1766 0.5379
C38_3 C 0.7493(3) 0.2167(3) 0.4512(2)
H20_3 H 0.7024 0.2382 0.4701
C39_3 C 0.7559(3) 0.2205(2) 0.3829(2)
C40_3 C 0.8264(3) 0.1888(3) 0.3553(2)
H21_3 H 0.8301 0.1879 0.3090
C41_3 C 0.8918(3) 0.1584(3) 0.3970(2)
H22_3 H 0.9409 0.1414 0.3788
C42_3 C 0.6871(3) 0.2594(3) 0.3397(2)
O9_2 O 0.6439(2) 0.3097(2) 0.37002(16)
O10_3 O 0.6758(2) 0.2391(2) 0.28027(17)
H9_3 H 0.6524 0.7131 0.0398
C21_3 C 0.5160(3) 0.6001(3) 0.0664(2)
C22_3 C 0.4452(3) 0.6045(3) 0.1021(2)
H11_3 H 0.3979 0.6302 0.0834
C23_3 C 0.4435(3) 0.5713(3) 0.1651(2)
H12_3 H 0.3956 0.5761 0.1889
C24_3 C 0.5115(3) 0.5314(3) 0.1932(2)
C25_3 C 0.5826(3) 0.5259(3) 0.1576(2)
H13_3 H 0.6289 0.4984 0.1761
C26_3 C 0.5857(3) 0.5608(3) 0.0946(2)
H14_3 H 0.6343 0.5579 0.0715
C27_3 C 0.5067(3) 0.4888(3) 0.2600(2)
H26_3 H 0.9767 0.8270 0.2139
O4_3 O 0.4462(2) 0.4976(2) 0.29390(17)
O5_3 O 0.5681(2) 0.4426(2) 0.27630(15)
Zn6_2 Zn 0.94359(3) 0.69836(3) 0.33180(2)
N11_2 N 0.5262(2) 0.3962(2) 0.44580(15)
Zn2_2 Zn 0.94359(3) 0.80164(3) 0.83180(2)
C13_3 C 0.8120(3) 0.7074(3) 0.8594(3)
C14_3 C 0.7349(3) 0.6867(3) 0.8969(2)
C15_3 C 0.6717(3) 0.6420(3) 0.8660(2)
H7_3 H 0.6772 0.6223 0.8229
C16_3 C 0.6003(3) 0.6264(3) 0.8987(2)
H8_3 H 0.5567 0.5984 0.8766
C17_3 C 0.5920(3) 0.6515(3) 0.9641(2)
C18_3 C 0.6563(3) 0.6960(3) 0.9957(2)
C19_3 C 0.7266(3) 0.7146(3) 0.9606(3)
H10_3 H 0.7686 0.7465 0.9809
C20_3 C 0.5133(3) 0.6323(3) 0.9963(2)
C28_3 C 0.9001(3) 0.8784(3) 0.7096(2)
C29_3 C 0.9113(3) 0.9447(3) 0.6589(2)
C30_3 C 0.8580(3) 0.9505(3) 0.6021(2)
H15_3 H 0.8139 0.9144 0.5959
C34_3 C 0.9780(3) 0.9984(3) 0.6671(2)
O1_3 O 0.8307(2) 0.6677(3) 0.81037(19)
O2_3 O 0.8517(2) 0.7680(2) 0.88135(19)
O3_3 O 0.4460(2) 0.6413(3) 0.96559(19)
O6_3 O 0.8622(2) 0.8165(2) 0.69316(18)
O7_3 O 0.9332(2) 0.8908(2) 0.76738(15)
C1_4 C 0.0841(3) 0.6134(2) 0.6111(2)
H1_4 H 0.0420 0.6516 0.6047
C2_4 C 0.1111(3) 0.5681(3) 0.55809(19)
C3_4 C 0.1748(3) 0.5124(2) 0.5677(2)
H2_4 H 0.1923 0.4830 0.5314
C4_4 C 0.2130(2) 0.4996(2) 0.63083(19)
C5_4 C 0.1854(2) 0.5433(2) 0.68456(19)
H3_4 H 0.2093 0.5347 0.7274
C6_4 C 0.1222(2) 0.5996(2) 0.67445(19)
C7_4 C 0.2849(2) 0.4436(2) 0.63784(19)
C8_4 C 0.3424(2) 0.4442(2) 0.58796(19)
H4_4 H 0.3340 0.4777 0.5508
C9_4 C 0.4118(2) 0.3950(2) 0.59384(18)
C10_4 C 0.4251(2) 0.3431(2) 0.64719(19)
H5_4 H 0.4710 0.3087 0.6498
C11_4 C 0.3681(2) 0.3434(2) 0.69709(18)
C12_4 C 0.2985(2) 0.3928(2) 0.69304(19)
H6_4 H 0.2610 0.3921 0.7269
H17_4 H 0.0380 0.4112 0.1228
H18_4 H 0.0133 0.5039 0.2056
C43_4 C 0.0273(3) 0.6392(3) 0.4673(2)
H23_4 H 0.0070 0.6807 0.4934
C44_4 C 0.0498(4) 0.5628(4) 0.3842(3)
H24_4 H 0.0493 0.5419 0.3410
C45_4 C 0.0882(4) 0.5292(4) 0.4384(3)
H25_4 H 0.1179 0.4808 0.4398
C46_4 C 0.0250(2) 0.6818(3) 0.7407(2)
C47_4 C 0.1111(3) 0.7247(3) 0.8187(2)
H27_4 H 0.1328 0.7523 0.8563
C48_4 C 0.1548(3) 0.6757(3) 0.7801(2)
H28_4 H 0.2110 0.6626 0.7862
C49_4 C 0.4567(2) 0.2561(2) 0.77067(19)
H29_4 H 0.5071 0.2710 0.7534
C50_4 C 0.3651(3) 0.1983(3) 0.8283(2)
H30_4 H 0.3410 0.1646 0.8591
C51_4 C 0.3233(2) 0.2518(3) 0.7881(2)
H31_4 H 0.2662 0.2618 0.7858
C52_4 C 0.4563(2) 0.4028(2) 0.47740(19)
H32_4 H 0.4039 0.4110 0.4565
C53_4 C 0.5888(3) 0.3852(2) 0.4947(2)
H33_4 H 0.6450 0.3788 0.4869
C54_4 C 0.5565(3) 0.3852(3) 0.5553(2)
H34_4 H 0.5854 0.3790 0.5966
N1_4 N 0.0756(2) 0.5796(2) 0.49153(16)
N2_4 N 0.0114(2) 0.6329(2) 0.40232(16)
N3_4 N 0.1000(2) 0.6486(2) 0.72974(15)
N5_4 N 0.38217(19) 0.28835(19) 0.75126(16)
N6_2 N 0.4488(2) 0.2012(2) 0.81694(16)
N7_4 N 0.4716(2) 0.3962(2) 0.54375(15)
O8_4 O 0.0247(2) 0.3508(2) 0.0044(2)
H13_4 H 0.6289 0.0016 0.6761
C27_4 C 0.5067(3) 0.0112(3) 0.7600(2)
O4_4 O 0.4462(2) 0.0024(2) 0.79390(17)
O5_4 O 0.5681(2) 0.0574(2) 0.77630(15)
O11_2 O 0.6439(2) 0.1903(2) 0.87002(16)
C13_4 C 0.8120(3) 0.7926(3) 0.3594(3)
C14_4 C 0.7349(3) 0.8133(3) 0.3969(2)
C15_4 C 0.6717(3) 0.8580(3) 0.3660(2)
H7_4 H 0.6772 0.8777 0.3229
C16_4 C 0.6003(3) 0.8736(3) 0.3987(2)
H8_4 H 0.5567 0.9016 0.3766
C17_4 C 0.5920(3) 0.8485(3) 0.4641(2)
C18_4 C 0.6563(3) 0.8040(3) 0.4957(2)
H9_4 H 0.6524 0.7869 0.5398
C19_4 C 0.7266(3) 0.7854(3) 0.4606(3)
H10_4 H 0.7686 0.7535 0.4809
C20_4 C 0.5133(3) 0.8677(3) 0.4963(2)
C21_4 C 0.5160(3) 0.8999(3) 0.5664(2)
C22_4 C 0.4452(3) 0.8955(3) 0.6021(2)
H11_4 H 0.3979 0.8698 0.5834
C23_4 C 0.4435(3) 0.9287(3) 0.6651(2)
H12_4 H 0.3956 0.9239 0.6889
C24_4 C 0.5115(3) 0.9686(3) 0.6932(2)
C25_4 C 0.5826(3) 0.9741(3) 0.6576(2)
C26_4 C 0.5857(3) 0.9392(3) 0.5946(2)
H14_4 H 0.6343 0.9421 0.5715
C28_4 C 0.9001(3) 0.6216(3) 0.2096(2)
C29_4 C 0.9113(3) 0.5553(3) 0.1589(2)
C30_4 C 0.8580(3) 0.5495(3) 0.1021(2)
H15_4 H 0.8139 0.5856 0.0959
C31_4 C 0.8699(3) 0.4906(3) 0.0550(2)
H16_4 H 0.8325 0.4858 0.0180
C32_4 C 0.9372(3) 0.4384(3) 0.0622(2)
C33_4 C 0.9918(3) 0.4451(3) 0.1183(2)
C34_4 C 0.9780(3) 0.5016(3) 0.1671(2)
C35_4 C 0.9546(3) 0.3769(3) 0.0099(2)
H19_4 H 0.8047 0.3234 0.0379
H26_4 H 0.9767 0.6730 0.7139
O1_4 O 0.8307(2) 0.8323(3) 0.31037(19)
O2_4 O 0.8517(2) 0.7320(2) 0.38135(19)
O3_4 O 0.4460(2) 0.8587(3) 0.46559(19)
O6_4 O 0.8622(2) 0.6835(2) 0.19316(18)
O7_4 O 0.9332(2) 0.6092(2) 0.26738(15)
C36_4 C 0.8836(3) 0.3465(3) 0.9651(2)
C37_4 C 0.8114(3) 0.3185(3) 0.9922(2)
C38_4 C 0.7493(3) 0.2833(3) 0.9512(2)
H20_4 H 0.7024 0.2618 0.9701
C39_4 C 0.7559(3) 0.2795(2) 0.8829(2)
C40_4 C 0.8264(3) 0.3112(3) 0.8553(2)
H21_4 H 0.8301 0.3121 0.8090
C41_4 C 0.8918(3) 0.3416(3) 0.8970(2)
H22_4 H 0.9409 0.3586 0.8788
C42_4 C 0.6871(3) 0.2406(3) 0.8397(2)
O10_4 O 0.6758(2) 0.2609(2) 0.78027(17)
loop_
_geom_bond_atom_site_label_1
_geom_bond_atom_site_label_2
_geom_bond_site_symmetry_1
_geom_bond_site_symmetry_2
C37 C36 1_555 1_555
C38 C37 1_555 1_555
H20 C38 1_555 1_555
C39 C38 1_555 1_555
C40 C39 1_555 1_555
H21 C40 1_555 1_555
C41 C36 1_555 1_555
H22 C41 1_555 1_555
C42 C39 1_555 1_555
O9 C42 1_555 1_555
O10 C42 1_555 1_555
Zn4 O9 1_555 1_555
C40 C41 1_555 1_555
C13 C14 1_555 1_555
C14 C15 1_555 1_555
C15 H7 1_555 1_555
C16 C15 1_555 1_555
H8 C16 1_555 1_555
C17 C16 1_555 1_555
C18 C17 1_555 1_555
H9 C18 1_555 1_555
C19 C14 1_555 1_555
H10 C19 1_555 1_555
C20 C17 1_555 1_555
C21 C20 1_555 1_555
C22 C21 1_555 1_555
H11 C22 1_555 1_555
C23 C22 1_555 1_555
H12 C23 1_555 1_555
C24 C23 1_555 1_555
C25 C24 1_555 1_555
C26 C21 1_555 1_555
H14 C26 1_555 1_555
C28 C29 1_555 1_555
C29 C30 1_555 1_555
C30 H15 1_555 1_555
C31 C30 1_555 1_555
H16 C31 1_555 1_555
C32 C31 1_555 1_555
C33 C32 1_555 1_555
C34 C29 1_555 1_555
C35 C32 1_555 1_555
O1 C13 1_555 1_555
O2 Zn2 1_555 1_555
O3 C20 1_555 1_555
O6 C28 1_555 1_555
O7 Zn2 1_555 1_555
C13 O2 1_555 1_555
C18 C19 1_555 1_555
C25 C26 1_555 1_555
C28 O7 1_555 1_555
C33 C34 1_555 1_555
Zn4 O5 1_555 1_555
O4 C27 1_555 1_555
O5 C27 1_555 1_555
N10 Zn4 1_555 1_555
N11 Zn4 1_555 1_555
C1 H1 1_555 1_555
C2 C1 1_555 1_555
C3 C2 1_555 1_555
H2 C3 1_555 1_555
C4 C3 1_555 1_555
C5 C4 1_555 1_555
H3 C5 1_555 1_555
C6 C1 1_555 1_555
C7 C4 1_555 1_555
C8 C7 1_555 1_555
H4 C8 1_555 1_555
C9 C8 1_555 1_555
C10 C9 1_555 1_555
H5 C10 1_555 1_555
C11 C10 1_555 1_555
C12 C7 1_555 1_555
H6 C12 1_555 1_555
C43 H23 1_555 1_555
C44 H24 1_555 1_555
C45 C44 1_555 1_555
H25 C45 1_555 1_555
C47 H27 1_555 1_555
C48 C47 1_555 1_555
H28 C48 1_555 1_555
C49 H29 1_555 1_555
C50 H30 1_555 1_555
C51 C50 1_555 1_555
H31 C51 1_555 1_555
C52 H32 1_555 1_555
C53 H33 1_555 1_555
C54 C53 1_555 1_555
H34 C54 1_555 1_555
N1 C2 1_555 1_555
N2 C43 1_555 1_555
N3 C6 1_555 1_555
N4 C46 1_555 1_555
N5 C11 1_555 1_555
N10 C49 1_555 1_555
N7 C9 1_555 1_555
N8 C52 1_555 1_555
Zn5 N8 1_555 1_555
C5 C6 1_555 1_555
C11 C12 1_555 1_555
C43 N1 1_555 1_555
C44 N2 1_555 1_555
C45 N1 1_555 1_555
C46 N3 1_555 1_555
C47 N4 1_555 1_555
C48 N3 1_555 1_555
C49 N5 1_555 1_555
C50 N10 1_555 1_555
C51 N5 1_555 1_555
C52 N7 1_555 1_555
C53 N8 1_555 1_555
C54 N7 1_555 1_555
C13_2 C14_2 1_555 1_555
C14_2 C15_2 1_555 1_555
C15_2 H7_2 1_555 1_555
C16_2 C15_2 1_555 1_555
H8_2 C16_2 1_555 1_555
C17_2 C16_2 1_555 1_555
C18_2 C17_2 1_555 1_555
C19_2 C14_2 1_555 1_555
H10_2 C19_2 1_555 1_555
C20_2 C17_2 1_555 1_555
C28_2 C29_2 1_555 1_555
C29_2 C30_2 1_555 1_555
C30_2 H15_2 1_555 1_555
C34_2 C29_2 1_555 1_555
O1_2 C13_2 1_555 1_555
O2_2 Zn6 1_555 1_555
O3_2 C20_2 1_555 1_555
O6_2 C28_2 1_555 1_555
O7_2 Zn6 1_555 1_555
C13_2 O2_2 1_555 1_555
C18_2 C19_2 1_555 1_555
C28_2 O7_2 1_555 1_555
Zn5 O5_2 1_555 1_555
C22_2 C21_2 1_555 1_555
H11_2 C22_2 1_555 1_555
C23_2 C22_2 1_555 1_555
H12_2 C23_2 1_555 1_555
C24_2 C23_2 1_555 1_555
C25_2 C24_2 1_555 1_555
H13_2 C25_2 1_555 1_555
C26_2 C21_2 1_555 1_555
H14_2 C26_2 1_555 1_555
C27_2 C24_2 1_555 1_555
O4_2 C27_2 1_555 1_555
O5_2 C27_2 1_555 1_555
N10_2 Zn5 1_555 1_555
O11 Zn5 1_555 1_555
C25_2 C26_2 1_555 1_555
H16_2 C31_2 1_555 1_555
C32_2 C31_2 1_555 1_555
C33_2 C32_2 1_555 1_555
C35_2 C32_2 1_555 1_555
C36_2 C35_2 1_555 1_555
C37_2 C36_2 1_555 1_555
H19_2 C37_2 1_555 1_555
C38_2 C37_2 1_555 1_555
H20_2 C38_2 1_555 1_555
C39_2 C38_2 1_555 1_555
C40_2 C39_2 1_555 1_555
H21_2 C40_2 1_555 1_555
C41_2 C36_2 1_555 1_555
H22_2 C41_2 1_555 1_555
C42_2 C39_2 1_555 1_555
O11 C42_2 1_555 1_555
O10_2 C42_2 1_555 1_555
C40_2 C41_2 1_555 1_555
C43_2 H23_2 1_555 1_555
C44_2 H24_2 1_555 1_555
C45_2 C44_2 1_555 1_555
N2_2 C43_2 1_555 1_555
C43_2 N1_2 1_555 1_555
C44_2 N2_2 1_555 1_555
C45_2 N1_2 1_555 1_555
C1_2 H1_2 1_555 1_555
C2_2 C1_2 1_555 1_555
C3_2 C2_2 1_555 1_555
H3_2 C5_2 1_555 1_555
C6_2 C1_2 1_555 1_555
C47_2 H27_2 1_555 1_555
C48_2 C47_2 1_555 1_555
H28_2 C48_2 1_555 1_555
N3_2 C6_2 1_555 1_555
N9 C46_2 1_555 1_555
C5_2 C6_2 1_555 1_555
C46_2 N3_2 1_555 1_555
C47_2 N9 1_555 1_555
C48_2 N3_2 1_555 1_555
C52_2 H32_2 1_555 1_555
C53_2 H33_2 1_555 1_555
N11 C52_2 1_555 1_555
C53_2 N11 1_555 1_555
C7_2 C4_2 1_555 1_555
C8_2 C7_2 1_555 1_555
H4_2 C8_2 1_555 1_555
C9_2 C8_2 1_555 1_555
C10_2 C9_2 1_555 1_555
H5_2 C10_2 1_555 1_555
C11_2 C10_2 1_555 1_555
C12_2 C7_2 1_555 1_555
H6_2 C12_2 1_555 1_555
C49_2 H29_2 1_555 1_555
C50_2 H30_2 1_555 1_555
C51_2 C50_2 1_555 1_555
H31_2 C51_2 1_555 1_555
H34_2 C54_2 1_555 1_555
N5_2 C11_2 1_555 1_555
N10_2 C49_2 1_555 1_555
N7_2 C9_2 1_555 1_555
C11_2 C12_2 1_555 1_555
C49_2 N5_2 1_555 1_555
C50_2 N10_2 1_555 1_555
C51_2 N5_2 1_555 1_555
C54_2 N7_2 1_555 1_555
C7_3 C4_3 1_555 1_555
C8_3 C7_3 1_555 1_555
H4_3 C8_3 1_555 1_555
C9_3 C8_3 1_555 1_555
C10_3 C9_3 1_555 1_555
H5_3 C10_3 1_555 1_555
C11_3 C10_3 1_555 1_555
C12_3 C7_3 1_555 1_555
H6_3 C12_3 1_555 1_555
C49_3 H29_3 1_555 1_555
C50_3 H30_3 1_555 1_555
C51_3 C50_3 1_555 1_555
H31_3 C51_3 1_555 1_555
H34_3 C54_3 1_555 1_555
N5_3 C11_3 1_555 1_555
N6 C49_3 1_555 1_555
N7_3 C9_3 1_555 1_555
Zn3 N6 1_555 1_555
C11_3 C12_3 1_555 1_555
C49_3 N5_3 1_555 1_555
C50_3 N6 1_555 1_555
C51_3 N5_3 1_555 1_555
C54_3 N7_3 1_555 1_555
C52_3 H32_3 1_555 1_555
C53_3 H33_3 1_555 1_555
N8_2 C52_3 1_555 1_555
Zn5_2 N8_2 1_555 1_555
C53_3 N8_2 1_555 1_555
C1_3 H1_3 1_555 1_555
C2_3 C1_3 1_555 1_555
C3_3 C2_3 1_555 1_555
H3_3 C5_3 1_555 1_555
C6_3 C1_3 1_555 1_555
C47_3 H27_3 1_555 1_555
C48_3 C47_3 1_555 1_555
H28_3 C48_3 1_555 1_555
N3_3 C6_3 1_555 1_555
N4_2 C46_3 1_555 1_555
C5_3 C6_3 1_555 1_555
C46_3 N3_3 1_555 1_555
C47_3 N4_2 1_555 1_555
C48_3 N3_3 1_555 1_555
C43_3 H23_3 1_555 1_555
C44_3 H24_3 1_555 1_555
C45_3 C44_3 1_555 1_555
N2_3 C43_3 1_555 1_555
C43_3 N1_3 1_555 1_555
C44_3 N2_3 1_555 1_555
C45_3 N1_3 1_555 1_555
H16_3 C31_3 1_555 1_555
C32_3 C31_3 1_555 1_555
C33_3 C32_3 1_555 1_555
C35_3 C32_3 1_555 1_555
C36_3 C35_3 1_555 1_555
C37_3 C36_3 1_555 1_555
H19_3 C37_3 1_555 1_555
C38_3 C37_3 1_555 1_555
H20_3 C38_3 1_555 1_555
C39_3 C38_3 1_555 1_555
C40_3 C39_3 1_555 1_555
H21_3 C40_3 1_555 1_555
C41_3 C36_3 1_555 1_555
H22_3 C41_3 1_555 1_555
C42_3 C39_3 1_555 1_555
O9_2 C42_3 1_555 1_555
O10_3 C42_3 1_555 1_555
Zn3 O9_2 1_555 1_555
C40_3 C41_3 1_555 1_555
Zn3 O5_3 1_555 1_555
C22_3 C21_3 1_555 1_555
H11_3 C22_3 1_555 1_555
C23_3 C22_3 1_555 1_555
H12_3 C23_3 1_555 1_555
C24_3 C23_3 1_555 1_555
C25_3 C24_3 1_555 1_555
H13_3 C25_3 1_555 1_555
C26_3 C21_3 1_555 1_555
H14_3 C26_3 1_555 1_555
C27_3 C24_3 1_555 1_555
O4_3 C27_3 1_555 1_555
O5_3 C27_3 1_555 1_555
N11_2 Zn3 1_555 1_555
C25_3 C26_3 1_555 1_555
C13_3 C14_3 1_555 1_555
C14_3 C15_3 1_555 1_555
C15_3 H7_3 1_555 1_555
C16_3 C15_3 1_555 1_555
H8_3 C16_3 1_555 1_555
C17_3 C16_3 1_555 1_555
C18_3 C17_3 1_555 1_555
C19_3 C14_3 1_555 1_555
H10_3 C19_3 1_555 1_555
C20_3 C17_3 1_555 1_555
C28_3 C29_3 1_555 1_555
C29_3 C30_3 1_555 1_555
C30_3 H15_3 1_555 1_555
C34_3 C29_3 1_555 1_555
O1_3 C13_3 1_555 1_555
O2_3 Zn2_2 1_555 1_555
O3_3 C20_3 1_555 1_555
O6_3 C28_3 1_555 1_555
O7_3 Zn2_2 1_555 1_555
C13_3 O2_3 1_555 1_555
C18_3 C19_3 1_555 1_555
C28_3 O7_3 1_555 1_555
C1_4 H1_4 1_555 1_555
C2_4 C1_4 1_555 1_555
C3_4 C2_4 1_555 1_555
H2_4 C3_4 1_555 1_555
C4_4 C3_4 1_555 1_555
C5_4 C4_4 1_555 1_555
H3_4 C5_4 1_555 1_555
C6_4 C1_4 1_555 1_555
C7_4 C4_4 1_555 1_555
C8_4 C7_4 1_555 1_555
H4_4 C8_4 1_555 1_555
C9_4 C8_4 1_555 1_555
C10_4 C9_4 1_555 1_555
H5_4 C10_4 1_555 1_555
C11_4 C10_4 1_555 1_555
C12_4 C7_4 1_555 1_555
H6_4 C12_4 1_555 1_555
C43_4 H23_4 1_555 1_555
C44_4 H24_4 1_555 1_555
C45_4 C44_4 1_555 1_555
H25_4 C45_4 1_555 1_555
C47_4 H27_4 1_555 1_555
C48_4 C47_4 1_555 1_555
H28_4 C48_4 1_555 1_555
C49_4 H29_4 1_555 1_555
C50_4 H30_4 1_555 1_555
C51_4 C50_4 1_555 1_555
H31_4 C51_4 1_555 1_555
C52_4 H32_4 1_555 1_555
C53_4 H33_4 1_555 1_555
C54_4 C53_4 1_555 1_555
H34_4 C54_4 1_555 1_555
N1_4 C2_4 1_555 1_555
N2_4 C43_4 1_555 1_555
N3_4 C6_4 1_555 1_555
N9_2 C46_4 1_555 1_555
N5_4 C11_4 1_555 1_555
N6_2 C49_4 1_555 1_555
N7_4 C9_4 1_555 1_555
N11_2 C52_4 1_555 1_555
Zn5_2 N6_2 1_555 1_555
C5_4 C6_4 1_555 1_555
C11_4 C12_4 1_555 1_555
C43_4 N1_4 1_555 1_555
C44_4 N2_4 1_555 1_555
C45_4 N1_4 1_555 1_555
C46_4 N3_4 1_555 1_555
C47_4 N9_2 1_555 1_555
C48_4 N3_4 1_555 1_555
C49_4 N5_4 1_555 1_555
C50_4 N6_2 1_555 1_555
C51_4 N5_4 1_555 1_555
C52_4 N7_4 1_555 1_555
C53_4 N11_2 1_555 1_555
C54_4 N7_4 1_555 1_555
Zn5_2 O5_4 1_555 1_555
O4_4 C27_4 1_555 1_555
O5_4 C27_4 1_555 1_555
O11_2 Zn5_2 1_555 1_555
C13_4 C14_4 1_555 1_555
C14_4 C15_4 1_555 1_555
C15_4 H7_4 1_555 1_555
C16_4 C15_4 1_555 1_555
H8_4 C16_4 1_555 1_555
C17_4 C16_4 1_555 1_555
C18_4 C17_4 1_555 1_555
H9_4 C18_4 1_555 1_555
C19_4 C14_4 1_555 1_555
H10_4 C19_4 1_555 1_555
C20_4 C17_4 1_555 1_555
C21_4 C20_4 1_555 1_555
C22_4 C21_4 1_555 1_555
H11_4 C22_4 1_555 1_555
C23_4 C22_4 1_555 1_555
H12_4 C23_4 1_555 1_555
C24_4 C23_4 1_555 1_555
C25_4 C24_4 1_555 1_555
C26_4 C21_4 1_555 1_555
H14_4 C26_4 1_555 1_555
C28_4 C29_4 1_555 1_555
C29_4 C30_4 1_555 1_555
C30_4 H15_4 1_555 1_555
C31_4 C30_4 1_555 1_555
H16_4 C31_4 1_555 1_555
C32_4 C31_4 1_555 1_555
C33_4 C32_4 1_555 1_555
C34_4 C29_4 1_555 1_555
C35_4 C32_4 1_555 1_555
O1_4 C13_4 1_555 1_555
O2_4 Zn6_2 1_555 1_555
O3_4 C20_4 1_555 1_555
O6_4 C28_4 1_555 1_555
O7_4 Zn6_2 1_555 1_555
C13_4 O2_4 1_555 1_555
C18_4 C19_4 1_555 1_555
C25_4 C26_4 1_555 1_555
C28_4 O7_4 1_555 1_555
C33_4 C34_4 1_555 1_555
C37_4 C36_4 1_555 1_555
C38_4 C37_4 1_555 1_555
H20_4 C38_4 1_555 1_555
C39_4 C38_4 1_555 1_555
C40_4 C39_4 1_555 1_555
H21_4 C40_4 1_555 1_555
C41_4 C36_4 1_555 1_555
H22_4 C41_4 1_555 1_555
C42_4 C39_4 1_555 1_555
O11_2 C42_4 1_555 1_555
O10_4 C42_4 1_555 1_555
C40_4 C41_4 1_555 1_555

#END
