
###############################################################################
#
# This file contains modified crystal structure data generated from the
# MOF subset of the Cambridge Structural Database (CSD) v543 
# hosted by the Cambridge Crystallographic Data Centre (CCDC).
#
# This work is licensed under the Creative Commons
# Attribution-NonCommercial-ShareAlike 4.0 International License.
# To view a copy of this license, visit
# http://creativecommons.org/licenses/by-nc-sa/4.0/
# or send a letter to
# Creative Commons, PO Box 1866, Mountain View, CA 94042, USA.
#
# CIF created using the CSD Python API on 29 September 2022
# The structure has been converted into the P1 space group
# The structure has a 3D framework
# The original CSD entry YITREB is in the monoclinic crystal system
# The framework has been calculated to contain at least 10.0% void space
# The void calculation uses a probe of radius 1.32A, grid spacing 0.4
#
###############################################################################

data_YITREB
_chemical_formula_moiety         '(C320 H192 N64 O66 Zn12)n'
_symmetry_cell_setting           triclinic
_symmetry_space_group_name_H-M   'P 1'
_symmetry_Int_Tables_number      1
_space_group_name_Hall           'P 1'
loop_
_symmetry_equiv_pos_site_id
_symmetry_equiv_pos_as_xyz
1 x,y,z
_cell_length_a                   20.946(2)
_cell_length_b                   21.777(3)
_cell_length_c                   19.067(2)
_cell_angle_alpha                90
_cell_angle_beta                 102.325(2)
_cell_angle_gamma                90
_cell_volume                     8496.79
loop_
_atom_site_label
_atom_site_type_symbol
_atom_site_fract_x
_atom_site_fract_y
_atom_site_fract_z
Zn1 Zn 0.09919(2) 0.02734(2) 0.20246(3)
O1 O 0.08800(16) 0.07324(15) 0.28730(18)
O2 O 0.16901(17) 0.01586(17) 0.3463(2)
O6 O 0.4351(4) 0.0203(3) 0.6642(4)
O7 O 0.5143(2) 0.06428(19) 0.5508(4)
O8 O 0.5322(2) 0.1616(2) 0.5415(3)
O9 O 0.23405(18) 0.1665(2) 0.5612(2)
C14 C 0.1268(2) 0.0558(2) 0.3437(3)
C15 C 0.1218(2) 0.0885(2) 0.4125(3)
C16 C 0.1803(2) 0.1079(2) 0.4559(3)
H8 H 0.2198 0.0982 0.4438
C17 C 0.1794(2) 0.1417(3) 0.5170(3)
C18 C 0.1207(3) 0.1561(3) 0.5347(3)
H9 H 0.1204 0.1788 0.5759
C19 C 0.0625(3) 0.1370(3) 0.4917(3)
H10 H 0.0232 0.1470 0.5040
C20 C 0.0624(2) 0.1029(2) 0.4299(3)
C22 C 0.2963(3) 0.1517(3) 0.5524(3)
C23 C 0.3223(3) 0.0948(3) 0.5691(3)
H11 H 0.2961 0.0636 0.5807
C24 C 0.3869(3) 0.0828(3) 0.5690(3)
C25 C 0.4256(3) 0.1291(2) 0.5491(3)
C26 C 0.3984(3) 0.1863(3) 0.5303(3)
H12 H 0.4240 0.2173 0.5172
C27 C 0.4130(3) 0.0219(4) 0.5993(5)
C28 C 0.4964(3) 0.1192(3) 0.5483(3)
C29 C 0.3334(3) 0.1978(3) 0.5310(4)
H13 H 0.3150 0.2359 0.5172
Zn7 Zn 0.60266(3) 0.04658(3) 0.54096(5)
O10 O 0.01185(16) 0.02865(15) 0.13453(18)
N9 N 0.18146(18) 0.05513(17) 0.1720(2)
Zn2 Zn 0.10266(3) 0.45342(3) 0.04096(5)
O5 O 0.4062(2) 0.9745(2) 0.5612(3)
N1 N 0.09754(17) 0.83560(16) 0.20391(19)
N2 N 0.11398(18) 0.93506(17) 0.2169(2)
N6 N 0.10363(17) 0.61853(16) 0.1431(2)
N7 N 0.12359(19) 0.52697(18) 0.1056(3)
C2 C 0.1013(2) 0.72674(19) 0.1744(2)
H2 H 0.1468 0.7280 0.1841
C3 C 0.0650(2) 0.77900(19) 0.1811(2)
C7 C 0.0678(2) 0.67257(19) 0.1526(2)
C30 C 0.0721(2) 0.89210(19) 0.1883(2)
H14 H 0.0305 0.8997 0.1610
C31 C 0.1690(2) 0.9042(2) 0.2516(3)
H15 H 0.2069 0.9228 0.2771
C32 C 0.1599(2) 0.8430(2) 0.2433(2)
H16 H 0.1899 0.8122 0.2607
C38 C 0.0780(2) 0.5662(2) 0.1119(3)
H22 H 0.0335 0.5588 0.0968
C39 C 0.1821(2) 0.5551(2) 0.1338(3)
H23 H 0.2232 0.5380 0.1364
C40 C 0.1704(2) 0.6113(2) 0.1570(3)
H24 H 0.2016 0.6399 0.1783
Zn6 Zn 0.39734(3) 0.95342(3) 0.45904(5)
O12 O 0.0143(2) 0.43572(19) 0.0508(4)
N10 N 0.1816(2) 0.40113(18) 0.0505(3)
O3 O 0.98815(16) 0.02865(15) 0.36547(18)
O4 O 0.95332(17) 0.12363(18) 0.3685(2)
C21 C 0.9970(2) 0.0843(2) 0.3845(3)
Zn3 Zn 0.90081(2) 0.02734(2) 0.29754(3)
N3 N 0.75545(17) 0.82878(16) 0.0663(2)
C1 C 0.7359(2) 0.9225(2) 0.0283(3)
H1 H 0.7403 0.9616 0.0101
N4 N 0.75816(17) 0.61618(16) 0.1493(2)
N5 N 0.68146(18) 0.55513(17) 0.1720(2)
C4 C 0.9972(2) 0.77771(19) 0.1658(2)
H3 H 0.9737 0.8132 0.1699
C5 C 0.9648(2) 0.72295(19) 0.1442(2)
C6 C 0.9999(2) 0.67031(19) 0.1378(2)
H4 H 0.9783 0.6336 0.1236
C8 C 0.8920(2) 0.72145(19) 0.1291(2)
C9 C 0.8591(2) 0.66977(19) 0.1457(2)
H5 H 0.8823 0.6352 0.1652
C10 C 0.7913(2) 0.67013(19) 0.1331(2)
C11 C 0.7555(2) 0.72142(19) 0.1048(2)
H6 H 0.7101 0.7212 0.0956
C12 C 0.7896(2) 0.77305(19) 0.0907(2)
C13 C 0.8572(2) 0.77315(19) 0.1014(2)
H7 H 0.8789 0.8078 0.0901
C33 C 0.7813(2) 0.8785(2) 0.0370(3)
H17 H 0.8223 0.8809 0.0256
N8 N 0.6816(2) 0.90113(18) 0.0505(3)
C34 C 0.6949(2) 0.8445(2) 0.0727(3)
H18 H 0.6664 0.8189 0.0902
C35 C 0.6964(2) 0.6123(2) 0.1585(3)
H19 H 0.6680 0.6455 0.1558
C36 C 0.7368(2) 0.5211(2) 0.1709(3)
H20 H 0.7408 0.4790 0.1788
C37 C 0.7839(2) 0.5577(2) 0.1569(3)
H21 H 0.8257 0.5460 0.1531
Zn4 Zn 0.59919(2) 0.52734(2) 0.20246(3)
Zn5 Zn 0.60266(3) 0.95342(3) 0.04096(5)
O4_2 O 0.04668(17) 0.12363(18) 0.1315(2)
C21_2 C 0.0030(2) 0.0843(2) 0.1155(3)
N3_2 N 0.24455(17) 0.82878(16) 0.4337(2)
C1_2 C 0.2641(2) 0.9225(2) 0.4717(3)
H1_2 H 0.2597 0.9616 0.4899
N4_2 N 0.24184(17) 0.61618(16) 0.3507(2)
N5_2 N 0.31854(18) 0.55513(17) 0.3280(2)
C4_2 C 0.0028(2) 0.77771(19) 0.3342(2)
H3_2 H 0.0263 0.8132 0.3301
C5_2 C 0.0352(2) 0.72295(19) 0.3558(2)
C6_2 C 0.0001(2) 0.67031(19) 0.3622(2)
H4_2 H 0.0217 0.6336 0.3764
C8_2 C 0.1080(2) 0.72145(19) 0.3709(2)
C9_2 C 0.1409(2) 0.66977(19) 0.3543(2)
H5_2 H 0.1177 0.6352 0.3348
C10_2 C 0.2087(2) 0.67013(19) 0.3669(2)
C11_2 C 0.2445(2) 0.72142(19) 0.3952(2)
H6_2 H 0.2899 0.7212 0.4044
C12_2 C 0.2104(2) 0.77305(19) 0.4093(2)
C13_2 C 0.1428(2) 0.77315(19) 0.3986(2)
H7_2 H 0.1211 0.8078 0.4099
C33_2 C 0.2187(2) 0.8785(2) 0.4630(3)
H17_2 H 0.1777 0.8809 0.4744
N8_2 N 0.3184(2) 0.90113(18) 0.4495(3)
C34_2 C 0.3051(2) 0.8445(2) 0.4273(3)
H18_2 H 0.3336 0.8189 0.4098
C35_2 C 0.3036(2) 0.6123(2) 0.3415(3)
H19_2 H 0.3320 0.6455 0.3442
C36_2 C 0.2632(2) 0.5211(2) 0.3291(3)
H20_2 H 0.2592 0.4790 0.3212
C37_2 C 0.2161(2) 0.5577(2) 0.3431(3)
H21_2 H 0.1743 0.5460 0.3469
Zn4_2 Zn 0.40081(2) 0.52734(2) 0.29754(3)
O1_2 O 0.91200(16) 0.07324(15) 0.21270(18)
O2_2 O 0.83099(17) 0.01586(17) 0.1537(2)
C14_2 C 0.8732(2) 0.0558(2) 0.1563(3)
C15_2 C 0.8782(2) 0.0885(2) 0.0875(3)
C16_2 C 0.8197(2) 0.1079(2) 0.0441(3)
H8_2 H 0.7802 0.0982 0.0562
C19_2 C 0.9375(3) 0.1370(3) 0.0083(3)
C20_2 C 0.9376(2) 0.1029(2) 0.0701(3)
N9_2 N 0.81854(18) 0.05513(17) 0.3280(2)
O6_2 O 0.5649(4) 0.0203(3) 0.8358(4)
O7_2 O 0.4857(2) 0.06428(19) 0.9492(4)
O8_2 O 0.4678(2) 0.1616(2) 0.9585(3)
O9_2 O 0.76595(18) 0.1665(2) 0.9388(2)
C17_2 C 0.8206(2) 0.1417(3) 0.9830(3)
C18_2 C 0.8793(3) 0.1561(3) 0.9653(3)
H9_2 H 0.8796 0.1788 0.9241
H10_2 H 0.9768 0.1470 0.9960
C22_2 C 0.7037(3) 0.1517(3) 0.9476(3)
C23_2 C 0.6777(3) 0.0948(3) 0.9309(3)
H11_2 H 0.7039 0.0636 0.9193
C24_2 C 0.6131(3) 0.0828(3) 0.9310(3)
C25_2 C 0.5744(3) 0.1291(2) 0.9509(3)
C26_2 C 0.6016(3) 0.1863(3) 0.9697(3)
H12_2 H 0.5760 0.2173 0.9828
C27_2 C 0.5870(3) 0.0219(4) 0.9007(5)
C28_2 C 0.5036(3) 0.1192(3) 0.9517(3)
C29_2 C 0.6666(3) 0.1978(3) 0.9690(4)
H13_2 H 0.6850 0.2359 0.9828
Zn7_2 Zn 0.39734(3) 0.04658(3) 0.95904(5)
Zn2_2 Zn 0.89734(3) 0.45342(3) 0.45904(5)
N1_2 N 0.90246(17) 0.83560(16) 0.29609(19)
N2_2 N 0.88602(18) 0.93506(17) 0.2831(2)
N6_2 N 0.89637(17) 0.61853(16) 0.3569(2)
N7_2 N 0.87641(19) 0.52697(18) 0.3944(3)
C2_2 C 0.8987(2) 0.72674(19) 0.3256(2)
H2_2 H 0.8532 0.7280 0.3159
C3_2 C 0.9350(2) 0.77900(19) 0.3189(2)
C7_2 C 0.9322(2) 0.67257(19) 0.3474(2)
C30_2 C 0.9279(2) 0.89210(19) 0.3117(2)
H14_2 H 0.9695 0.8997 0.3390
C31_2 C 0.8310(2) 0.9042(2) 0.2484(3)
H15_2 H 0.7931 0.9228 0.2229
C32_2 C 0.8401(2) 0.8430(2) 0.2567(2)
H16_2 H 0.8101 0.8122 0.2393
C38_2 C 0.9220(2) 0.5662(2) 0.3881(3)
H22_2 H 0.9665 0.5588 0.4032
C39_2 C 0.8179(2) 0.5551(2) 0.3662(3)
H23_2 H 0.7768 0.5380 0.3636
C40_2 C 0.8296(2) 0.6113(2) 0.3430(3)
H24_2 H 0.7984 0.6399 0.3217
O11 O 0.9062(2) 0.4745(2) 0.5612(3)
O12_2 O 0.9857(2) 0.43572(19) 0.4492(4)
N10_2 N 0.8184(2) 0.40113(18) 0.4495(3)
O7_3 O 0.0143(2) 0.56428(19) 0.5508(4)
O8_3 O 0.0322(2) 0.6616(2) 0.5415(3)
Zn7_3 Zn 0.10266(3) 0.54658(3) 0.54096(5)
O1_3 O 0.58800(16) 0.57324(15) 0.28730(18)
O2_3 O 0.66901(17) 0.51586(17) 0.3463(2)
O3_2 O 0.48815(16) 0.52865(15) 0.36547(18)
O4_3 O 0.45332(17) 0.62363(18) 0.3685(2)
O6_3 O 0.9351(4) 0.5203(3) 0.6642(4)
O9_3 O 0.73405(18) 0.6665(2) 0.5612(2)
N1_3 N 0.59754(17) 0.33560(16) 0.20391(19)
N2_3 N 0.61398(18) 0.43506(17) 0.2169(2)
N3_3 N 0.25545(17) 0.32878(16) 0.0663(2)
C1_3 C 0.2359(2) 0.4225(2) 0.0283(3)
H1_3 H 0.2403 0.4616 0.0101
N4_3 N 0.25816(17) 0.11618(16) 0.1493(2)
N6_3 N 0.60363(17) 0.11853(16) 0.1431(2)
N7_3 N 0.62359(19) 0.02697(18) 0.1056(3)
C2_3 C 0.6013(2) 0.22674(19) 0.1744(2)
H2_3 H 0.6468 0.2280 0.1841
C3_3 C 0.5650(2) 0.27900(19) 0.1811(2)
C4_3 C 0.4972(2) 0.27771(19) 0.1658(2)
H3_3 H 0.4737 0.3132 0.1699
C5_3 C 0.4648(2) 0.22295(19) 0.1442(2)
C6_3 C 0.4999(2) 0.17031(19) 0.1378(2)
H4_3 H 0.4783 0.1336 0.1236
C7_3 C 0.5678(2) 0.17257(19) 0.1526(2)
C8_3 C 0.3920(2) 0.22145(19) 0.1291(2)
C9_3 C 0.3591(2) 0.16977(19) 0.1457(2)
H5_3 H 0.3823 0.1352 0.1652
C10_3 C 0.2913(2) 0.17013(19) 0.1331(2)
C11_3 C 0.2555(2) 0.22142(19) 0.1048(2)
H6_3 H 0.2101 0.2212 0.0956
C12_3 C 0.2896(2) 0.27305(19) 0.0907(2)
C13_3 C 0.3572(2) 0.27315(19) 0.1014(2)
H7_3 H 0.3789 0.3078 0.0901
C14_3 C 0.6268(2) 0.5558(2) 0.3437(3)
C15_3 C 0.6218(2) 0.5885(2) 0.4125(3)
C16_3 C 0.6803(2) 0.6079(2) 0.4559(3)
H8_3 H 0.7198 0.5982 0.4438
C17_3 C 0.6794(2) 0.6417(3) 0.5170(3)
C18_3 C 0.6207(3) 0.6561(3) 0.5347(3)
H9_3 H 0.6204 0.6788 0.5759
C19_3 C 0.5625(3) 0.6370(3) 0.4917(3)
H10_3 H 0.5232 0.6470 0.5040
C20_3 C 0.5624(2) 0.6029(2) 0.4299(3)
C21_3 C 0.4970(2) 0.5843(2) 0.3845(3)
C22_3 C 0.7963(3) 0.6517(3) 0.5524(3)
C23_3 C 0.8223(3) 0.5948(3) 0.5691(3)
H11_3 H 0.7961 0.5636 0.5807
C24_3 C 0.8869(3) 0.5828(3) 0.5690(3)
C25_3 C 0.9256(3) 0.6291(2) 0.5491(3)
C26_3 C 0.8984(3) 0.6863(3) 0.5303(3)
H12_3 H 0.9240 0.7173 0.5172
C27_3 C 0.9130(3) 0.5219(4) 0.5993(5)
C28_3 C 0.9964(3) 0.6192(3) 0.5483(3)
C29_3 C 0.8334(3) 0.6978(3) 0.5310(4)
H13_3 H 0.8150 0.7359 0.5172
C30_3 C 0.5721(2) 0.39210(19) 0.1883(2)
H14_3 H 0.5305 0.3997 0.1610
C31_3 C 0.6690(2) 0.4042(2) 0.2516(3)
H15_3 H 0.7069 0.4228 0.2771
C32_3 C 0.6599(2) 0.3430(2) 0.2433(2)
H16_3 H 0.6899 0.3122 0.2607
C33_3 C 0.2813(2) 0.3785(2) 0.0370(3)
H17_3 H 0.3223 0.3809 0.0256
C34_3 C 0.1949(2) 0.3445(2) 0.0727(3)
H18_3 H 0.1664 0.3189 0.0902
C35_3 C 0.1964(2) 0.1123(2) 0.1585(3)
H19_3 H 0.1680 0.1455 0.1558
C36_3 C 0.2368(2) 0.0211(2) 0.1709(3)
C37_3 C 0.2839(2) 0.0577(2) 0.1569(3)
H21_3 H 0.3257 0.0460 0.1531
C38_3 C 0.5780(2) 0.0662(2) 0.1119(3)
H22_3 H 0.5335 0.0588 0.0968
C39_3 C 0.6821(2) 0.0551(2) 0.1338(3)
H23_3 H 0.7232 0.0380 0.1364
C40_3 C 0.6704(2) 0.1113(2) 0.1570(3)
H24_3 H 0.7016 0.1399 0.1783
O10_2 O 0.51185(16) 0.52865(15) 0.13453(18)
H20_3 H 0.2408 0.9790 0.1788
O12_3 O 0.5143(2) 0.93572(19) 0.0508(4)
O1_4 O 0.41200(16) 0.57324(15) 0.21270(18)
O2_4 O 0.33099(17) 0.51586(17) 0.1537(2)
O4_4 O 0.54668(17) 0.62363(18) 0.1315(2)
N1_4 N 0.40246(17) 0.33560(16) 0.29609(19)
N2_4 N 0.38602(18) 0.43506(17) 0.2831(2)
N3_4 N 0.74455(17) 0.32878(16) 0.4337(2)
C1_4 C 0.7641(2) 0.4225(2) 0.4717(3)
H1_4 H 0.7597 0.4616 0.4899
N4_4 N 0.74184(17) 0.11618(16) 0.3507(2)
N6_4 N 0.39637(17) 0.11853(16) 0.3569(2)
N7_4 N 0.37641(19) 0.02697(18) 0.3944(3)
C2_4 C 0.3987(2) 0.22674(19) 0.3256(2)
H2_4 H 0.3532 0.2280 0.3159
C3_4 C 0.4350(2) 0.27900(19) 0.3189(2)
C4_4 C 0.5028(2) 0.27771(19) 0.3342(2)
H3_4 H 0.5263 0.3132 0.3301
C5_4 C 0.5352(2) 0.22295(19) 0.3558(2)
C6_4 C 0.5001(2) 0.17031(19) 0.3622(2)
H4_4 H 0.5217 0.1336 0.3764
C7_4 C 0.4322(2) 0.17257(19) 0.3474(2)
C8_4 C 0.6080(2) 0.22145(19) 0.3709(2)
C9_4 C 0.6409(2) 0.16977(19) 0.3543(2)
H5_4 H 0.6177 0.1352 0.3348
C10_4 C 0.7087(2) 0.17013(19) 0.3669(2)
C11_4 C 0.7445(2) 0.22142(19) 0.3952(2)
H6_4 H 0.7899 0.2212 0.4044
C12_4 C 0.7104(2) 0.27305(19) 0.4093(2)
C13_4 C 0.6428(2) 0.27315(19) 0.3986(2)
H7_4 H 0.6211 0.3078 0.4099
C14_4 C 0.3732(2) 0.5558(2) 0.1563(3)
C15_4 C 0.3782(2) 0.5885(2) 0.0875(3)
C16_4 C 0.3197(2) 0.6079(2) 0.0441(3)
H8_4 H 0.2802 0.5982 0.0562
C19_4 C 0.4375(3) 0.6370(3) 0.0083(3)
C20_4 C 0.4376(2) 0.6029(2) 0.0701(3)
C21_4 C 0.5030(2) 0.5843(2) 0.1155(3)
C30_4 C 0.4279(2) 0.39210(19) 0.3117(2)
H14_4 H 0.4695 0.3997 0.3390
C31_4 C 0.3310(2) 0.4042(2) 0.2484(3)
H15_4 H 0.2931 0.4228 0.2229
C32_4 C 0.3401(2) 0.3430(2) 0.2567(2)
H16_4 H 0.3101 0.3122 0.2393
C33_4 C 0.7187(2) 0.3785(2) 0.4630(3)
H17_4 H 0.6777 0.3809 0.4744
C34_4 C 0.8051(2) 0.3445(2) 0.4273(3)
H18_4 H 0.8336 0.3189 0.4098
C35_4 C 0.8036(2) 0.1123(2) 0.3415(3)
H19_4 H 0.8320 0.1455 0.3442
C36_4 C 0.7632(2) 0.0211(2) 0.3291(3)
C37_4 C 0.7161(2) 0.0577(2) 0.3431(3)
H21_4 H 0.6743 0.0460 0.3469
C38_4 C 0.4220(2) 0.0662(2) 0.3881(3)
H22_4 H 0.4665 0.0588 0.4032
C39_4 C 0.3179(2) 0.0551(2) 0.3662(3)
H23_4 H 0.2768 0.0380 0.3636
C40_4 C 0.3296(2) 0.1113(2) 0.3430(3)
H24_4 H 0.2984 0.1399 0.3217
H20_4 H 0.7592 0.9790 0.3212
O12_4 O 0.4857(2) 0.93572(19) 0.4492(4)
O7_4 O 0.9857(2) 0.56428(19) 0.9492(4)
O8_4 O 0.9678(2) 0.6616(2) 0.9585(3)
Zn7_4 Zn 0.89734(3) 0.54658(3) 0.95904(5)
N3_5 N 0.24455(17) 0.17122(16) 0.9337(2)
C1_5 C 0.2641(2) 0.0775(2) 0.9717(3)
H1_5 H 0.2597 0.0384 0.9899
N4_5 N 0.24184(17) 0.38382(16) 0.8507(2)
N5_3 N 0.31854(18) 0.44487(17) 0.8280(2)
C4_5 C 0.0028(2) 0.22229(19) 0.8342(2)
H3_5 H 0.0263 0.1868 0.8301
C5_5 C 0.0352(2) 0.27705(19) 0.8558(2)
C6_5 C 0.0001(2) 0.32969(19) 0.8622(2)
H4_5 H 0.0217 0.3664 0.8764
C8_5 C 0.1080(2) 0.27855(19) 0.8709(2)
C9_5 C 0.1409(2) 0.33023(19) 0.8543(2)
H5_5 H 0.1177 0.3648 0.8348
C10_5 C 0.2087(2) 0.32987(19) 0.8669(2)
C11_5 C 0.2445(2) 0.27858(19) 0.8952(2)
H6_5 H 0.2899 0.2788 0.9044
C12_5 C 0.2104(2) 0.22695(19) 0.9093(2)
C13_5 C 0.1428(2) 0.22685(19) 0.8986(2)
H7_5 H 0.1211 0.1922 0.9099
C33_5 C 0.2187(2) 0.1215(2) 0.9630(3)
H17_5 H 0.1777 0.1191 0.9744
N8_3 N 0.3184(2) 0.09887(18) 0.9495(3)
C34_5 C 0.3051(2) 0.1555(2) 0.9273(3)
H18_5 H 0.3336 0.1811 0.9098
C35_5 C 0.3036(2) 0.3877(2) 0.8415(3)
H19_5 H 0.3320 0.3545 0.8442
C36_5 C 0.2632(2) 0.4789(2) 0.8291(3)
H20_5 H 0.2592 0.5210 0.8212
C37_5 C 0.2161(2) 0.4423(2) 0.8431(3)
H21_5 H 0.1743 0.4540 0.8469
Zn4_3 Zn 0.40081(2) 0.47266(2) 0.79754(3)
O3_3 O 0.01185(16) 0.97135(15) 0.63453(18)
O4_5 O 0.04668(17) 0.87637(18) 0.6315(2)
C21_5 C 0.0030(2) 0.9157(2) 0.6155(3)
Zn3_2 Zn 0.09919(2) 0.97266(2) 0.70246(3)
O5_2 O 0.5938(2) 0.0255(2) 0.4388(3)
N1_5 N 0.90246(17) 0.16440(16) 0.79609(19)
N2_5 N 0.88602(18) 0.06494(17) 0.7831(2)
N6_5 N 0.89637(17) 0.38147(16) 0.8569(2)
N7_5 N 0.87641(19) 0.47303(18) 0.8944(3)
C2_5 C 0.8987(2) 0.27326(19) 0.8256(2)
H2_5 H 0.8532 0.2720 0.8159
C3_5 C 0.9350(2) 0.22100(19) 0.8189(2)
C7_5 C 0.9322(2) 0.32743(19) 0.8474(2)
C30_5 C 0.9279(2) 0.10790(19) 0.8117(2)
H14_5 H 0.9695 0.1003 0.8390
C31_5 C 0.8310(2) 0.0958(2) 0.7484(3)
H15_5 H 0.7931 0.0772 0.7229
C32_5 C 0.8401(2) 0.1570(2) 0.7567(2)
H16_5 H 0.8101 0.1878 0.7393
C38_5 C 0.9220(2) 0.4338(2) 0.8881(3)
H22_5 H 0.9665 0.4412 0.9032
C39_5 C 0.8179(2) 0.4449(2) 0.8662(3)
H23_5 H 0.7768 0.4620 0.8636
C40_5 C 0.8296(2) 0.3887(2) 0.8430(3)
H24_5 H 0.7984 0.3601 0.8217
N10_3 N 0.8184(2) 0.59887(18) 0.9495(3)
Zn1_2 Zn 0.90081(2) 0.97266(2) 0.79754(3)
O1_5 O 0.91200(16) 0.92676(15) 0.71270(18)
O2_5 O 0.83099(17) 0.98414(17) 0.6537(2)
O6_4 O 0.5649(4) 0.9797(3) 0.3358(4)
O8_5 O 0.4678(2) 0.8384(2) 0.4585(3)
O9_4 O 0.76595(18) 0.8335(2) 0.4388(2)
C14_5 C 0.8732(2) 0.9442(2) 0.6563(3)
C15_5 C 0.8782(2) 0.9115(2) 0.5875(3)
C16_5 C 0.8197(2) 0.8921(2) 0.5441(3)
H8_5 H 0.7802 0.9018 0.5562
C17_4 C 0.8206(2) 0.8583(3) 0.4830(3)
C18_4 C 0.8793(3) 0.8439(3) 0.4653(3)
H9_4 H 0.8796 0.8212 0.4241
C19_5 C 0.9375(3) 0.8630(3) 0.5083(3)
H10_4 H 0.9768 0.8530 0.4960
C20_5 C 0.9376(2) 0.8971(2) 0.5701(3)
C22_4 C 0.7037(3) 0.8483(3) 0.4476(3)
C23_4 C 0.6777(3) 0.9052(3) 0.4309(3)
H11_4 H 0.7039 0.9364 0.4193
C24_4 C 0.6131(3) 0.9172(3) 0.4310(3)
C25_4 C 0.5744(3) 0.8709(2) 0.4509(3)
C26_4 C 0.6016(3) 0.8137(3) 0.4697(3)
H12_4 H 0.5760 0.7827 0.4828
C27_4 C 0.5870(3) 0.9781(4) 0.4007(5)
C28_4 C 0.5036(3) 0.8808(3) 0.4517(3)
C29_4 C 0.6666(3) 0.8022(3) 0.4690(4)
H13_4 H 0.6850 0.7641 0.4828
O10_3 O 0.98815(16) 0.97135(15) 0.86547(18)
N9_3 N 0.81854(18) 0.94487(17) 0.8280(2)
N1_6 N 0.09754(17) 0.16440(16) 0.70391(19)
N2_6 N 0.11398(18) 0.06494(17) 0.7169(2)
N6_6 N 0.10363(17) 0.38147(16) 0.6431(2)
N7_6 N 0.12359(19) 0.47303(18) 0.6056(3)
C2_6 C 0.1013(2) 0.27326(19) 0.6744(2)
H2_6 H 0.1468 0.2720 0.6841
C3_6 C 0.0650(2) 0.22100(19) 0.6811(2)
C7_6 C 0.0678(2) 0.32743(19) 0.6526(2)
C30_6 C 0.0721(2) 0.10790(19) 0.6883(2)
H14_6 H 0.0305 0.1003 0.6610
C31_6 C 0.1690(2) 0.0958(2) 0.7516(3)
H15_6 H 0.2069 0.0772 0.7771
C32_6 C 0.1599(2) 0.1570(2) 0.7433(2)
H16_6 H 0.1899 0.1878 0.7607
C38_6 C 0.0780(2) 0.4338(2) 0.6119(3)
H22_6 H 0.0335 0.4412 0.5968
C39_6 C 0.1821(2) 0.4449(2) 0.6338(3)
H23_6 H 0.2232 0.4620 0.6364
C40_6 C 0.1704(2) 0.3887(2) 0.6570(3)
H24_6 H 0.2016 0.3601 0.6783
O11_2 O 0.0938(2) 0.5255(2) 0.4388(3)
N10_4 N 0.1816(2) 0.59887(18) 0.5505(3)
O6_5 O 0.4351(4) 0.9797(3) 0.1642(4)
O8_6 O 0.5322(2) 0.8384(2) 0.0415(3)
O9_5 O 0.23405(18) 0.8335(2) 0.0612(2)
C17_5 C 0.1794(2) 0.8583(3) 0.0170(3)
C18_5 C 0.1207(3) 0.8439(3) 0.0347(3)
H9_5 H 0.1204 0.8212 0.0759
H10_5 H 0.0232 0.8530 0.0040
C22_5 C 0.2963(3) 0.8483(3) 0.0524(3)
C23_5 C 0.3223(3) 0.9052(3) 0.0691(3)
H11_5 H 0.2961 0.9364 0.0807
C24_5 C 0.3869(3) 0.9172(3) 0.0690(3)
C25_5 C 0.4256(3) 0.8709(2) 0.0491(3)
C26_5 C 0.3984(3) 0.8137(3) 0.0303(3)
H12_5 H 0.4240 0.7827 0.0172
C27_5 C 0.4130(3) 0.9781(4) 0.0993(5)
C28_5 C 0.4964(3) 0.8808(3) 0.0483(3)
C29_5 C 0.3334(3) 0.8022(3) 0.0310(4)
H13_5 H 0.3150 0.7641 0.0172
O1_6 O 0.08800(16) 0.92676(15) 0.78730(18)
O2_6 O 0.16901(17) 0.98414(17) 0.8463(2)
C14_6 C 0.1268(2) 0.9442(2) 0.8437(3)
C15_6 C 0.1218(2) 0.9115(2) 0.9125(3)
C16_6 C 0.1803(2) 0.8921(2) 0.9559(3)
H8_6 H 0.2198 0.9018 0.9438
C19_6 C 0.0625(3) 0.8630(3) 0.9917(3)
C20_6 C 0.0624(2) 0.8971(2) 0.9299(3)
N9_4 N 0.18146(18) 0.94487(17) 0.6720(2)
N3_6 N 0.75545(17) 0.17122(16) 0.5663(2)
C1_6 C 0.7359(2) 0.0775(2) 0.5283(3)
H1_6 H 0.7403 0.0384 0.5101
N4_6 N 0.75816(17) 0.38382(16) 0.6493(2)
N5_4 N 0.68146(18) 0.44487(17) 0.6720(2)
C4_6 C 0.9972(2) 0.22229(19) 0.6658(2)
H3_6 H 0.9737 0.1868 0.6699
C5_6 C 0.9648(2) 0.27705(19) 0.6442(2)
C6_6 C 0.9999(2) 0.32969(19) 0.6378(2)
H4_6 H 0.9783 0.3664 0.6236
C8_6 C 0.8920(2) 0.27855(19) 0.6291(2)
C9_6 C 0.8591(2) 0.33023(19) 0.6457(2)
H5_6 H 0.8823 0.3648 0.6652
C10_6 C 0.7913(2) 0.32987(19) 0.6331(2)
C11_6 C 0.7555(2) 0.27858(19) 0.6048(2)
H6_6 H 0.7101 0.2788 0.5956
C12_6 C 0.7896(2) 0.22695(19) 0.5907(2)
C13_6 C 0.8572(2) 0.22685(19) 0.6014(2)
H7_6 H 0.8789 0.1922 0.5901
C33_6 C 0.7813(2) 0.1215(2) 0.5370(3)
H17_6 H 0.8223 0.1191 0.5256
N8_4 N 0.6816(2) 0.09887(18) 0.5505(3)
C34_6 C 0.6949(2) 0.1555(2) 0.5727(3)
H18_6 H 0.6664 0.1811 0.5902
C35_6 C 0.6964(2) 0.3877(2) 0.6585(3)
H19_6 H 0.6680 0.3545 0.6558
C36_6 C 0.7368(2) 0.4789(2) 0.6709(3)
H20_6 H 0.7408 0.5210 0.6788
C37_6 C 0.7839(2) 0.4423(2) 0.6569(3)
H21_6 H 0.8257 0.4540 0.6531
Zn4_4 Zn 0.59919(2) 0.47266(2) 0.70246(3)
O4_6 O 0.95332(17) 0.87637(18) 0.8685(2)
C21_6 C 0.9970(2) 0.9157(2) 0.8845(3)
H20_7 H 0.7592 0.0210 0.8212
O1_7 O 0.41200(16) 0.42676(15) 0.71270(18)
O2_7 O 0.33099(17) 0.48414(17) 0.6537(2)
O3_4 O 0.51185(16) 0.47135(15) 0.63453(18)
O4_7 O 0.54668(17) 0.37637(18) 0.6315(2)
O6_6 O 0.0649(4) 0.4797(3) 0.3358(4)
O9_6 O 0.26595(18) 0.3335(2) 0.4388(2)
N1_7 N 0.40246(17) 0.66440(16) 0.79609(19)
N2_7 N 0.38602(18) 0.56494(17) 0.7831(2)
N3_7 N 0.74455(17) 0.67122(16) 0.9337(2)
C1_7 C 0.7641(2) 0.5775(2) 0.9717(3)
H1_7 H 0.7597 0.5384 0.9899
N4_7 N 0.74184(17) 0.88382(16) 0.8507(2)
N6_7 N 0.39637(17) 0.88147(16) 0.8569(2)
N7_7 N 0.37641(19) 0.97303(18) 0.8944(3)
C2_7 C 0.3987(2) 0.77326(19) 0.8256(2)
H2_7 H 0.3532 0.7720 0.8159
C3_7 C 0.4350(2) 0.72100(19) 0.8189(2)
C4_7 C 0.5028(2) 0.72229(19) 0.8342(2)
H3_7 H 0.5263 0.6868 0.8301
C5_7 C 0.5352(2) 0.77705(19) 0.8558(2)
C6_7 C 0.5001(2) 0.82969(19) 0.8622(2)
H4_7 H 0.5217 0.8664 0.8764
C7_7 C 0.4322(2) 0.82743(19) 0.8474(2)
C8_7 C 0.6080(2) 0.77855(19) 0.8709(2)
C9_7 C 0.6409(2) 0.83023(19) 0.8543(2)
H5_7 H 0.6177 0.8648 0.8348
C10_7 C 0.7087(2) 0.82987(19) 0.8669(2)
C11_7 C 0.7445(2) 0.77858(19) 0.8952(2)
H6_7 H 0.7899 0.7788 0.9044
C12_7 C 0.7104(2) 0.72695(19) 0.9093(2)
C13_7 C 0.6428(2) 0.72685(19) 0.8986(2)
H7_7 H 0.6211 0.6922 0.9099
C14_7 C 0.3732(2) 0.4442(2) 0.6563(3)
C15_7 C 0.3782(2) 0.4115(2) 0.5875(3)
C16_7 C 0.3197(2) 0.3921(2) 0.5441(3)
H8_7 H 0.2802 0.4018 0.5562
C17_6 C 0.3206(2) 0.3583(3) 0.4830(3)
C18_6 C 0.3793(3) 0.3439(3) 0.4653(3)
H9_6 H 0.3796 0.3212 0.4241
C19_7 C 0.4375(3) 0.3630(3) 0.5083(3)
H10_6 H 0.4768 0.3530 0.4960
C20_7 C 0.4376(2) 0.3971(2) 0.5701(3)
C21_7 C 0.5030(2) 0.4157(2) 0.6155(3)
C22_6 C 0.2037(3) 0.3483(3) 0.4476(3)
C23_6 C 0.1777(3) 0.4052(3) 0.4309(3)
H11_6 H 0.2039 0.4364 0.4193
C24_6 C 0.1131(3) 0.4172(3) 0.4310(3)
C25_6 C 0.0744(3) 0.3709(2) 0.4509(3)
C26_6 C 0.1016(3) 0.3137(3) 0.4697(3)
H12_6 H 0.0760 0.2827 0.4828
C27_6 C 0.0870(3) 0.4781(4) 0.4007(5)
C28_6 C 0.0036(3) 0.3808(3) 0.4517(3)
C29_6 C 0.1666(3) 0.3022(3) 0.4690(4)
H13_6 H 0.1850 0.2641 0.4828
C30_7 C 0.4279(2) 0.60790(19) 0.8117(2)
H14_7 H 0.4695 0.6003 0.8390
C31_7 C 0.3310(2) 0.5958(2) 0.7484(3)
H15_7 H 0.2931 0.5772 0.7229
C32_7 C 0.3401(2) 0.6570(2) 0.7567(2)
H16_7 H 0.3101 0.6878 0.7393
C33_7 C 0.7187(2) 0.6215(2) 0.9630(3)
H17_7 H 0.6777 0.6191 0.9744
C34_7 C 0.8051(2) 0.6555(2) 0.9273(3)
H18_7 H 0.8336 0.6811 0.9098
C35_7 C 0.8036(2) 0.8877(2) 0.8415(3)
H19_7 H 0.8320 0.8545 0.8442
C36_7 C 0.7632(2) 0.9789(2) 0.8291(3)
C37_7 C 0.7161(2) 0.9423(2) 0.8431(3)
H21_7 H 0.6743 0.9540 0.8469
C38_7 C 0.4220(2) 0.9338(2) 0.8881(3)
H22_7 H 0.4665 0.9412 0.9032
C39_7 C 0.3179(2) 0.9449(2) 0.8662(3)
H23_7 H 0.2768 0.9620 0.8636
C40_7 C 0.3296(2) 0.8887(2) 0.8430(3)
H24_7 H 0.2984 0.8601 0.8217
O10_4 O 0.48815(16) 0.47135(15) 0.86547(18)
O8_7 O 0.9678(2) 0.3384(2) 0.4585(3)
O8_8 O 0.0322(2) 0.3384(2) 0.0415(3)
H20_8 H 0.2408 0.0210 0.6788
O1_8 O 0.58800(16) 0.42676(15) 0.78730(18)
O2_8 O 0.66901(17) 0.48414(17) 0.8463(2)
O4_8 O 0.45332(17) 0.37637(18) 0.8685(2)
N1_8 N 0.59754(17) 0.66440(16) 0.70391(19)
N2_8 N 0.61398(18) 0.56494(17) 0.7169(2)
N3_8 N 0.25545(17) 0.67122(16) 0.5663(2)
C1_8 C 0.2359(2) 0.5775(2) 0.5283(3)
H1_8 H 0.2403 0.5384 0.5101
N4_8 N 0.25816(17) 0.88382(16) 0.6493(2)
N6_8 N 0.60363(17) 0.88147(16) 0.6431(2)
N7_8 N 0.62359(19) 0.97303(18) 0.6056(3)
C2_8 C 0.6013(2) 0.77326(19) 0.6744(2)
H2_8 H 0.6468 0.7720 0.6841
C3_8 C 0.5650(2) 0.72100(19) 0.6811(2)
C4_8 C 0.4972(2) 0.72229(19) 0.6658(2)
H3_8 H 0.4737 0.6868 0.6699
C5_8 C 0.4648(2) 0.77705(19) 0.6442(2)
C6_8 C 0.4999(2) 0.82969(19) 0.6378(2)
H4_8 H 0.4783 0.8664 0.6236
C7_8 C 0.5678(2) 0.82743(19) 0.6526(2)
C8_8 C 0.3920(2) 0.77855(19) 0.6291(2)
C9_8 C 0.3591(2) 0.83023(19) 0.6457(2)
H5_8 H 0.3823 0.8648 0.6652
C10_8 C 0.2913(2) 0.82987(19) 0.6331(2)
C11_8 C 0.2555(2) 0.77858(19) 0.6048(2)
H6_8 H 0.2101 0.7788 0.5956
C12_8 C 0.2896(2) 0.72695(19) 0.5907(2)
C13_8 C 0.3572(2) 0.72685(19) 0.6014(2)
H7_8 H 0.3789 0.6922 0.5901
C14_8 C 0.6268(2) 0.4442(2) 0.8437(3)
C15_8 C 0.6218(2) 0.4115(2) 0.9125(3)
C16_8 C 0.6803(2) 0.3921(2) 0.9559(3)
H8_8 H 0.7198 0.4018 0.9438
C19_8 C 0.5625(3) 0.3630(3) 0.9917(3)
C20_8 C 0.5624(2) 0.3971(2) 0.9299(3)
C21_8 C 0.4970(2) 0.4157(2) 0.8845(3)
C30_8 C 0.5721(2) 0.60790(19) 0.6883(2)
H14_8 H 0.5305 0.6003 0.6610
C31_8 C 0.6690(2) 0.5958(2) 0.7516(3)
H15_8 H 0.7069 0.5772 0.7771
C32_8 C 0.6599(2) 0.6570(2) 0.7433(2)
H16_8 H 0.6899 0.6878 0.7607
C33_8 C 0.2813(2) 0.6215(2) 0.5370(3)
H17_8 H 0.3223 0.6191 0.5256
C34_8 C 0.1949(2) 0.6555(2) 0.5727(3)
H18_8 H 0.1664 0.6811 0.5902
C35_8 C 0.1964(2) 0.8877(2) 0.6585(3)
H19_8 H 0.1680 0.8545 0.6558
C36_8 C 0.2368(2) 0.9789(2) 0.6709(3)
C37_8 C 0.2839(2) 0.9423(2) 0.6569(3)
H21_8 H 0.3257 0.9540 0.6531
C38_8 C 0.5780(2) 0.9338(2) 0.6119(3)
H22_8 H 0.5335 0.9412 0.5968
C39_8 C 0.6821(2) 0.9449(2) 0.6338(3)
H23_8 H 0.7232 0.9620 0.6364
C40_8 C 0.6704(2) 0.8887(2) 0.6570(3)
H24_8 H 0.7016 0.8601 0.6783
O11_3 O 0.0938(2) 0.4745(2) 0.9388(3)
O6_7 O 0.0649(4) 0.5203(3) 0.8358(4)
O9_7 O 0.26595(18) 0.6665(2) 0.9388(2)
C17_7 C 0.3206(2) 0.6417(3) 0.9830(3)
C18_7 C 0.3793(3) 0.6561(3) 0.9653(3)
H9_7 H 0.3796 0.6788 0.9241
H10_7 H 0.4768 0.6470 0.9960
C22_7 C 0.2037(3) 0.6517(3) 0.9476(3)
C23_7 C 0.1777(3) 0.5948(3) 0.9309(3)
H11_7 H 0.2039 0.5636 0.9193
C24_7 C 0.1131(3) 0.5828(3) 0.9310(3)
C25_7 C 0.0744(3) 0.6291(2) 0.9509(3)
C26_7 C 0.1016(3) 0.6863(3) 0.9697(3)
H12_7 H 0.0760 0.7173 0.9828
C27_7 C 0.0870(3) 0.5219(4) 0.9007(5)
C28_7 C 0.0036(3) 0.6192(3) 0.9517(3)
C29_7 C 0.1666(3) 0.6978(3) 0.9690(4)
H13_7 H 0.1850 0.7359 0.9828
O5_3 O 0.5938(2) 0.9745(2) 0.9388(3)
O11_4 O 0.9062(2) 0.5255(2) 0.0612(3)
O6_8 O 0.9351(4) 0.4797(3) 0.1642(4)
O9_8 O 0.73405(18) 0.3335(2) 0.0612(2)
C17_8 C 0.6794(2) 0.3583(3) 0.0170(3)
C18_8 C 0.6207(3) 0.3439(3) 0.0347(3)
H9_8 H 0.6204 0.3212 0.0759
H10_8 H 0.5232 0.3530 0.0040
C22_8 C 0.7963(3) 0.3483(3) 0.0524(3)
C23_8 C 0.8223(3) 0.4052(3) 0.0691(3)
H11_8 H 0.7961 0.4364 0.0807
C24_8 C 0.8869(3) 0.4172(3) 0.0690(3)
C25_8 C 0.9256(3) 0.3709(2) 0.0491(3)
C26_8 C 0.8984(3) 0.3137(3) 0.0303(3)
H12_8 H 0.9240 0.2827 0.0172
C27_8 C 0.9130(3) 0.4781(4) 0.0993(5)
C28_8 C 0.9964(3) 0.3808(3) 0.0483(3)
C29_8 C 0.8334(3) 0.3022(3) 0.0310(4)
H13_8 H 0.8150 0.2641 0.0172
O5_4 O 0.4062(2) 0.0255(2) 0.0612(3)
loop_
_geom_bond_atom_site_label_1
_geom_bond_atom_site_label_2
_geom_bond_site_symmetry_1
_geom_bond_site_symmetry_2
Zn1 O1 1_555 1_555
O1 C14 1_555 1_555
O2 C14 1_555 1_555
O6 C27 1_555 1_555
O7 C28 1_555 1_555
O8 C28 1_555 1_555
O9 C17 1_555 1_555
C14 C15 1_555 1_555
C15 C16 1_555 1_555
C16 H8 1_555 1_555
C17 C16 1_555 1_555
C18 C17 1_555 1_555
H9 C18 1_555 1_555
C19 C18 1_555 1_555
H10 C19 1_555 1_555
C20 C15 1_555 1_555
C22 O9 1_555 1_555
C23 C22 1_555 1_555
H11 C23 1_555 1_555
C24 C23 1_555 1_555
C25 C24 1_555 1_555
C26 C25 1_555 1_555
H12 C26 1_555 1_555
C27 C24 1_555 1_555
C28 C25 1_555 1_555
C29 C22 1_555 1_555
H13 C29 1_555 1_555
Zn7 O7 1_555 1_555
O10 Zn1 1_555 1_555
N9 Zn1 1_555 1_555
C19 C20 1_555 1_555
C26 C29 1_555 1_555
Zn2 N7 1_555 1_555
N1 C3 1_555 1_555
N6 C7 1_555 1_555
N7 C38 1_555 1_555
C2 H2 1_555 1_555
C3 C2 1_555 1_555
C7 C2 1_555 1_555
C30 N1 1_555 1_555
H14 C30 1_555 1_555
C31 N2 1_555 1_555
H15 C31 1_555 1_555
C32 N1 1_555 1_555
H16 C32 1_555 1_555
C38 N6 1_555 1_555
H22 C38 1_555 1_555
C39 N7 1_555 1_555
H23 C39 1_555 1_555
C40 N6 1_555 1_555
H24 C40 1_555 1_555
Zn6 O5 1_555 1_555
O12 Zn2 1_555 1_555
N10 Zn2 1_555 1_555
N2 C30 1_555 1_555
C31 C32 1_555 1_555
C39 C40 1_555 1_555
O3 C21 1_555 1_555
O4 C21 1_555 1_555
Zn3 O3 1_555 1_555
N3 C12 1_555 1_555
C1 H1 1_555 1_555
N4 C10 1_555 1_555
N5 C35 1_555 1_555
H3 C4 1_555 1_555
C5 C4 1_555 1_555
C6 C5 1_555 1_555
H4 C6 1_555 1_555
C8 C5 1_555 1_555
C9 C8 1_555 1_555
H5 C9 1_555 1_555
C10 C9 1_555 1_555
C11 C10 1_555 1_555
H6 C11 1_555 1_555
C12 C11 1_555 1_555
C13 C8 1_555 1_555
H7 C13 1_555 1_555
C33 N3 1_555 1_555
H17 C33 1_555 1_555
N8 C1 1_555 1_555
C34 N3 1_555 1_555
H18 C34 1_555 1_555
C35 N4 1_555 1_555
H19 C35 1_555 1_555
C36 N5 1_555 1_555
H20 C36 1_555 1_555
C37 N4 1_555 1_555
H21 C37 1_555 1_555
Zn4 N5 1_555 1_555
Zn5 N8 1_555 1_555
C1 C33 1_555 1_555
C12 C13 1_555 1_555
N8 C34 1_555 1_555
C36 C37 1_555 1_555
O10 C21_2 1_555 1_555
O4_2 C21_2 1_555 1_555
N3_2 C12_2 1_555 1_555
C1_2 H1_2 1_555 1_555
N4_2 C10_2 1_555 1_555
N5_2 C35_2 1_555 1_555
H3_2 C4_2 1_555 1_555
C5_2 C4_2 1_555 1_555
C6_2 C5_2 1_555 1_555
H4_2 C6_2 1_555 1_555
C8_2 C5_2 1_555 1_555
C9_2 C8_2 1_555 1_555
H5_2 C9_2 1_555 1_555
C10_2 C9_2 1_555 1_555
C11_2 C10_2 1_555 1_555
H6_2 C11_2 1_555 1_555
C12_2 C11_2 1_555 1_555
C13_2 C8_2 1_555 1_555
H7_2 C13_2 1_555 1_555
C33_2 N3_2 1_555 1_555
H17_2 C33_2 1_555 1_555
N8_2 C1_2 1_555 1_555
C34_2 N3_2 1_555 1_555
H18_2 C34_2 1_555 1_555
C35_2 N4_2 1_555 1_555
H19_2 C35_2 1_555 1_555
C36_2 N5_2 1_555 1_555
H20_2 C36_2 1_555 1_555
C37_2 N4_2 1_555 1_555
H21_2 C37_2 1_555 1_555
Zn4_2 N5_2 1_555 1_555
Zn6 N8_2 1_555 1_555
C1_2 C33_2 1_555 1_555
C12_2 C13_2 1_555 1_555
N8_2 C34_2 1_555 1_555
C36_2 C37_2 1_555 1_555
Zn3 O1_2 1_555 1_555
O1_2 C14_2 1_555 1_555
O2_2 C14_2 1_555 1_555
C14_2 C15_2 1_555 1_555
C15_2 C16_2 1_555 1_555
C16_2 H8_2 1_555 1_555
C20_2 C15_2 1_555 1_555
N9_2 Zn3 1_555 1_555
C19_2 C20_2 1_555 1_555
O6_2 C27_2 1_555 1_555
O7_2 C28_2 1_555 1_555
O8_2 C28_2 1_555 1_555
O9_2 C17_2 1_555 1_555
C18_2 C17_2 1_555 1_555
H9_2 C18_2 1_555 1_555
C22_2 O9_2 1_555 1_555
C23_2 C22_2 1_555 1_555
H11_2 C23_2 1_555 1_555
C24_2 C23_2 1_555 1_555
C25_2 C24_2 1_555 1_555
C26_2 C25_2 1_555 1_555
H12_2 C26_2 1_555 1_555
C27_2 C24_2 1_555 1_555
C28_2 C25_2 1_555 1_555
C29_2 C22_2 1_555 1_555
H13_2 C29_2 1_555 1_555
Zn7_2 O7_2 1_555 1_555
C26_2 C29_2 1_555 1_555
Zn2_2 N7_2 1_555 1_555
N1_2 C3_2 1_555 1_555
N6_2 C7_2 1_555 1_555
N7_2 C38_2 1_555 1_555
C2_2 H2_2 1_555 1_555
C3_2 C2_2 1_555 1_555
C7_2 C2_2 1_555 1_555
C30_2 N1_2 1_555 1_555
H14_2 C30_2 1_555 1_555
C31_2 N2_2 1_555 1_555
H15_2 C31_2 1_555 1_555
C32_2 N1_2 1_555 1_555
H16_2 C32_2 1_555 1_555
C38_2 N6_2 1_555 1_555
H22_2 C38_2 1_555 1_555
C39_2 N7_2 1_555 1_555
H23_2 C39_2 1_555 1_555
C40_2 N6_2 1_555 1_555
H24_2 C40_2 1_555 1_555
O11 Zn2_2 1_555 1_555
O12_2 Zn2_2 1_555 1_555
N10_2 Zn2_2 1_555 1_555
N2_2 C30_2 1_555 1_555
C31_2 C32_2 1_555 1_555
C39_2 C40_2 1_555 1_555
Zn7_3 O7_3 1_555 1_555
Zn4 O1_3 1_555 1_555
O1_3 C14_3 1_555 1_555
O2_3 C14_3 1_555 1_555
O3_2 C21_3 1_555 1_555
O4_3 C21_3 1_555 1_555
O11 C27_3 1_555 1_555
O6_3 C27_3 1_555 1_555
O9_3 C17_3 1_555 1_555
N1_3 C3_3 1_555 1_555
N2_3 Zn4 1_555 1_555
N3_3 C12_3 1_555 1_555
C1_3 H1_3 1_555 1_555
N4_3 C10_3 1_555 1_555
N9 C35_3 1_555 1_555
N6_3 C7_3 1_555 1_555
N7_3 C38_3 1_555 1_555
C2_3 H2_3 1_555 1_555
C3_3 C2_3 1_555 1_555
C4_3 C3_3 1_555 1_555
H3_3 C4_3 1_555 1_555
C5_3 C4_3 1_555 1_555
C6_3 C5_3 1_555 1_555
H4_3 C6_3 1_555 1_555
C7_3 C2_3 1_555 1_555
C8_3 C5_3 1_555 1_555
C9_3 C8_3 1_555 1_555
H5_3 C9_3 1_555 1_555
C10_3 C9_3 1_555 1_555
C11_3 C10_3 1_555 1_555
H6_3 C11_3 1_555 1_555
C12_3 C11_3 1_555 1_555
C13_3 C8_3 1_555 1_555
H7_3 C13_3 1_555 1_555
C14_3 C15_3 1_555 1_555
C15_3 C16_3 1_555 1_555
C16_3 H8_3 1_555 1_555
C17_3 C16_3 1_555 1_555
C18_3 C17_3 1_555 1_555
H9_3 C18_3 1_555 1_555
C19_3 C18_3 1_555 1_555
H10_3 C19_3 1_555 1_555
C20_3 C15_3 1_555 1_555
C21_3 C20_3 1_555 1_555
C22_3 O9_3 1_555 1_555
C23_3 C22_3 1_555 1_555
H11_3 C23_3 1_555 1_555
C24_3 C23_3 1_555 1_555
C25_3 C24_3 1_555 1_555
C26_3 C25_3 1_555 1_555
H12_3 C26_3 1_555 1_555
C27_3 C24_3 1_555 1_555
C28_3 C25_3 1_555 1_555
C29_3 C22_3 1_555 1_555
H13_3 C29_3 1_555 1_555
C30_3 N1_3 1_555 1_555
H14_3 C30_3 1_555 1_555
C31_3 N2_3 1_555 1_555
H15_3 C31_3 1_555 1_555
C32_3 N1_3 1_555 1_555
H16_3 C32_3 1_555 1_555
C33_3 N3_3 1_555 1_555
H17_3 C33_3 1_555 1_555
N10 C1_3 1_555 1_555
C34_3 N3_3 1_555 1_555
H18_3 C34_3 1_555 1_555
C35_3 N4_3 1_555 1_555
H19_3 C35_3 1_555 1_555
C36_3 N9 1_555 1_555
C37_3 N4_3 1_555 1_555
H21_3 C37_3 1_555 1_555
C38_3 N6_3 1_555 1_555
H22_3 C38_3 1_555 1_555
C39_3 N7_3 1_555 1_555
H23_3 C39_3 1_555 1_555
C40_3 N6_3 1_555 1_555
H24_3 C40_3 1_555 1_555
Zn4_2 O3_2 1_555 1_555
O10_2 Zn4 1_555 1_555
N2_3 C30_3 1_555 1_555
C1_3 C33_3 1_555 1_555
C6_3 C7_3 1_555 1_555
C12_3 C13_3 1_555 1_555
C19_3 C20_3 1_555 1_555
C26_3 C29_3 1_555 1_555
C31_3 C32_3 1_555 1_555
N10 C34_3 1_555 1_555
C36_3 C37_3 1_555 1_555
C39_3 C40_3 1_555 1_555
O12_3 Zn5 1_555 1_555
Zn4_2 O1_4 1_555 1_555
O1_4 C14_4 1_555 1_555
O2_4 C14_4 1_555 1_555
O10_2 C21_4 1_555 1_555
O4_4 C21_4 1_555 1_555
N1_4 C3_4 1_555 1_555
N2_4 Zn4_2 1_555 1_555
N3_4 C12_4 1_555 1_555
C1_4 H1_4 1_555 1_555
N4_4 C10_4 1_555 1_555
N9_2 C35_4 1_555 1_555
N6_4 C7_4 1_555 1_555
N7_4 C38_4 1_555 1_555
C2_4 H2_4 1_555 1_555
C3_4 C2_4 1_555 1_555
C4_4 C3_4 1_555 1_555
H3_4 C4_4 1_555 1_555
C5_4 C4_4 1_555 1_555
C6_4 C5_4 1_555 1_555
H4_4 C6_4 1_555 1_555
C7_4 C2_4 1_555 1_555
C8_4 C5_4 1_555 1_555
C9_4 C8_4 1_555 1_555
H5_4 C9_4 1_555 1_555
C10_4 C9_4 1_555 1_555
C11_4 C10_4 1_555 1_555
H6_4 C11_4 1_555 1_555
C12_4 C11_4 1_555 1_555
C13_4 C8_4 1_555 1_555
H7_4 C13_4 1_555 1_555
C14_4 C15_4 1_555 1_555
C15_4 C16_4 1_555 1_555
C16_4 H8_4 1_555 1_555
C20_4 C15_4 1_555 1_555
C21_4 C20_4 1_555 1_555
C30_4 N1_4 1_555 1_555
H14_4 C30_4 1_555 1_555
C31_4 N2_4 1_555 1_555
H15_4 C31_4 1_555 1_555
C32_4 N1_4 1_555 1_555
H16_4 C32_4 1_555 1_555
C33_4 N3_4 1_555 1_555
H17_4 C33_4 1_555 1_555
N10_2 C1_4 1_555 1_555
C34_4 N3_4 1_555 1_555
H18_4 C34_4 1_555 1_555
C35_4 N4_4 1_555 1_555
H19_4 C35_4 1_555 1_555
C36_4 N9_2 1_555 1_555
C37_4 N4_4 1_555 1_555
H21_4 C37_4 1_555 1_555
C38_4 N6_4 1_555 1_555
H22_4 C38_4 1_555 1_555
C39_4 N7_4 1_555 1_555
H23_4 C39_4 1_555 1_555
C40_4 N6_4 1_555 1_555
H24_4 C40_4 1_555 1_555
N2_4 C30_4 1_555 1_555
C1_4 C33_4 1_555 1_555
C6_4 C7_4 1_555 1_555
C12_4 C13_4 1_555 1_555
C19_4 C20_4 1_555 1_555
C31_4 C32_4 1_555 1_555
N10_2 C34_4 1_555 1_555
C36_4 C37_4 1_555 1_555
C39_4 C40_4 1_555 1_555
O12_4 Zn6 1_555 1_555
Zn7_4 O7_4 1_555 1_555
N3_5 C12_5 1_555 1_555
C1_5 H1_5 1_555 1_555
N4_5 C10_5 1_555 1_555
N5_3 C35_5 1_555 1_555
H3_5 C4_5 1_555 1_555
C5_5 C4_5 1_555 1_555
C6_5 C5_5 1_555 1_555
H4_5 C6_5 1_555 1_555
C8_5 C5_5 1_555 1_555
C9_5 C8_5 1_555 1_555
H5_5 C9_5 1_555 1_555
C10_5 C9_5 1_555 1_555
C11_5 C10_5 1_555 1_555
H6_5 C11_5 1_555 1_555
C12_5 C11_5 1_555 1_555
C13_5 C8_5 1_555 1_555
H7_5 C13_5 1_555 1_555
C33_5 N3_5 1_555 1_555
H17_5 C33_5 1_555 1_555
N8_3 C1_5 1_555 1_555
C34_5 N3_5 1_555 1_555
H18_5 C34_5 1_555 1_555
C35_5 N4_5 1_555 1_555
H19_5 C35_5 1_555 1_555
C36_5 N5_3 1_555 1_555
H20_5 C36_5 1_555 1_555
C37_5 N4_5 1_555 1_555
H21_5 C37_5 1_555 1_555
Zn4_3 N5_3 1_555 1_555
Zn7_2 N8_3 1_555 1_555
C1_5 C33_5 1_555 1_555
C12_5 C13_5 1_555 1_555
N8_3 C34_5 1_555 1_555
C36_5 C37_5 1_555 1_555
O3_3 C21_5 1_555 1_555
O4_5 C21_5 1_555 1_555
Zn3_2 O3_3 1_555 1_555
Zn7_4 N7_5 1_555 1_555
N1_5 C3_5 1_555 1_555
N6_5 C7_5 1_555 1_555
N7_5 C38_5 1_555 1_555
C2_5 H2_5 1_555 1_555
C3_5 C2_5 1_555 1_555
C7_5 C2_5 1_555 1_555
C30_5 N1_5 1_555 1_555
H14_5 C30_5 1_555 1_555
C31_5 N2_5 1_555 1_555
H15_5 C31_5 1_555 1_555
C32_5 N1_5 1_555 1_555
H16_5 C32_5 1_555 1_555
C38_5 N6_5 1_555 1_555
H22_5 C38_5 1_555 1_555
C39_5 N7_5 1_555 1_555
H23_5 C39_5 1_555 1_555
C40_5 N6_5 1_555 1_555
H24_5 C40_5 1_555 1_555
Zn7 O5_2 1_555 1_555
N10_3 Zn7_4 1_555 1_555
N2_5 C30_5 1_555 1_555
C31_5 C32_5 1_555 1_555
C39_5 C40_5 1_555 1_555
Zn1_2 O1_5 1_555 1_555
O1_5 C14_5 1_555 1_555
O2_5 C14_5 1_555 1_555
O6_4 C27_4 1_555 1_555
O12_4 C28_4 1_555 1_555
O8_5 C28_4 1_555 1_555
O9_4 C17_4 1_555 1_555
C14_5 C15_5 1_555 1_555
C15_5 C16_5 1_555 1_555
C16_5 H8_5 1_555 1_555
C17_4 C16_5 1_555 1_555
C18_4 C17_4 1_555 1_555
H9_4 C18_4 1_555 1_555
C19_5 C18_4 1_555 1_555
H10_4 C19_5 1_555 1_555
C20_5 C15_5 1_555 1_555
C22_4 O9_4 1_555 1_555
C23_4 C22_4 1_555 1_555
H11_4 C23_4 1_555 1_555
C24_4 C23_4 1_555 1_555
C25_4 C24_4 1_555 1_555
C26_4 C25_4 1_555 1_555
H12_4 C26_4 1_555 1_555
C27_4 C24_4 1_555 1_555
C28_4 C25_4 1_555 1_555
C29_4 C22_4 1_555 1_555
H13_4 C29_4 1_555 1_555
O10_3 Zn1_2 1_555 1_555
N9_3 Zn1_2 1_555 1_555
C19_5 C20_5 1_555 1_555
C26_4 C29_4 1_555 1_555
Zn7_3 N7_6 1_555 1_555
N1_6 C3_6 1_555 1_555
N6_6 C7_6 1_555 1_555
N7_6 C38_6 1_555 1_555
C2_6 H2_6 1_555 1_555
C3_6 C2_6 1_555 1_555
C7_6 C2_6 1_555 1_555
C30_6 N1_6 1_555 1_555
H14_6 C30_6 1_555 1_555
C31_6 N2_6 1_555 1_555
H15_6 C31_6 1_555 1_555
C32_6 N1_6 1_555 1_555
H16_6 C32_6 1_555 1_555
C38_6 N6_6 1_555 1_555
H22_6 C38_6 1_555 1_555
C39_6 N7_6 1_555 1_555
H23_6 C39_6 1_555 1_555
C40_6 N6_6 1_555 1_555
H24_6 C40_6 1_555 1_555
O11_2 Zn7_3 1_555 1_555
N10_4 Zn7_3 1_555 1_555
N2_6 C30_6 1_555 1_555
C31_6 C32_6 1_555 1_555
C39_6 C40_6 1_555 1_555
O6_5 C27_5 1_555 1_555
O12_3 C28_5 1_555 1_555
O8_6 C28_5 1_555 1_555
O9_5 C17_5 1_555 1_555
C18_5 C17_5 1_555 1_555
H9_5 C18_5 1_555 1_555
C22_5 O9_5 1_555 1_555
C23_5 C22_5 1_555 1_555
H11_5 C23_5 1_555 1_555
C24_5 C23_5 1_555 1_555
C25_5 C24_5 1_555 1_555
C26_5 C25_5 1_555 1_555
H12_5 C26_5 1_555 1_555
C27_5 C24_5 1_555 1_555
C28_5 C25_5 1_555 1_555
C29_5 C22_5 1_555 1_555
H13_5 C29_5 1_555 1_555
C26_5 C29_5 1_555 1_555
Zn3_2 O1_6 1_555 1_555
O1_6 C14_6 1_555 1_555
O2_6 C14_6 1_555 1_555
C14_6 C15_6 1_555 1_555
C15_6 C16_6 1_555 1_555
C16_6 H8_6 1_555 1_555
C20_6 C15_6 1_555 1_555
N9_4 Zn3_2 1_555 1_555
C19_6 C20_6 1_555 1_555
N3_6 C12_6 1_555 1_555
C1_6 H1_6 1_555 1_555
N4_6 C10_6 1_555 1_555
N5_4 C35_6 1_555 1_555
H3_6 C4_6 1_555 1_555
C5_6 C4_6 1_555 1_555
C6_6 C5_6 1_555 1_555
H4_6 C6_6 1_555 1_555
C8_6 C5_6 1_555 1_555
C9_6 C8_6 1_555 1_555
H5_6 C9_6 1_555 1_555
C10_6 C9_6 1_555 1_555
C11_6 C10_6 1_555 1_555
H6_6 C11_6 1_555 1_555
C12_6 C11_6 1_555 1_555
C13_6 C8_6 1_555 1_555
H7_6 C13_6 1_555 1_555
C33_6 N3_6 1_555 1_555
H17_6 C33_6 1_555 1_555
N8_4 C1_6 1_555 1_555
C34_6 N3_6 1_555 1_555
H18_6 C34_6 1_555 1_555
C35_6 N4_6 1_555 1_555
H19_6 C35_6 1_555 1_555
C36_6 N5_4 1_555 1_555
H20_6 C36_6 1_555 1_555
C37_6 N4_6 1_555 1_555
H21_6 C37_6 1_555 1_555
Zn4_4 N5_4 1_555 1_555
Zn7 N8_4 1_555 1_555
C1_6 C33_6 1_555 1_555
C12_6 C13_6 1_555 1_555
N8_4 C34_6 1_555 1_555
C36_6 C37_6 1_555 1_555
O10_3 C21_6 1_555 1_555
O4_6 C21_6 1_555 1_555
Zn4_3 O1_7 1_555 1_555
O1_7 C14_7 1_555 1_555
O2_7 C14_7 1_555 1_555
O3_4 C21_7 1_555 1_555
O4_7 C21_7 1_555 1_555
O11_2 C27_6 1_555 1_555
O6_6 C27_6 1_555 1_555
O9_6 C17_6 1_555 1_555
N1_7 C3_7 1_555 1_555
N2_7 Zn4_3 1_555 1_555
N3_7 C12_7 1_555 1_555
C1_7 H1_7 1_555 1_555
N4_7 C10_7 1_555 1_555
N9_3 C35_7 1_555 1_555
N6_7 C7_7 1_555 1_555
N7_7 C38_7 1_555 1_555
C2_7 H2_7 1_555 1_555
C3_7 C2_7 1_555 1_555
C4_7 C3_7 1_555 1_555
H3_7 C4_7 1_555 1_555
C5_7 C4_7 1_555 1_555
C6_7 C5_7 1_555 1_555
H4_7 C6_7 1_555 1_555
C7_7 C2_7 1_555 1_555
C8_7 C5_7 1_555 1_555
C9_7 C8_7 1_555 1_555
H5_7 C9_7 1_555 1_555
C10_7 C9_7 1_555 1_555
C11_7 C10_7 1_555 1_555
H6_7 C11_7 1_555 1_555
C12_7 C11_7 1_555 1_555
C13_7 C8_7 1_555 1_555
H7_7 C13_7 1_555 1_555
C14_7 C15_7 1_555 1_555
C15_7 C16_7 1_555 1_555
C16_7 H8_7 1_555 1_555
C17_6 C16_7 1_555 1_555
C18_6 C17_6 1_555 1_555
H9_6 C18_6 1_555 1_555
C19_7 C18_6 1_555 1_555
H10_6 C19_7 1_555 1_555
C20_7 C15_7 1_555 1_555
C21_7 C20_7 1_555 1_555
C22_6 O9_6 1_555 1_555
C23_6 C22_6 1_555 1_555
H11_6 C23_6 1_555 1_555
C24_6 C23_6 1_555 1_555
C25_6 C24_6 1_555 1_555
C26_6 C25_6 1_555 1_555
H12_6 C26_6 1_555 1_555
C27_6 C24_6 1_555 1_555
C28_6 C25_6 1_555 1_555
C29_6 C22_6 1_555 1_555
H13_6 C29_6 1_555 1_555
C30_7 N1_7 1_555 1_555
H14_7 C30_7 1_555 1_555
C31_7 N2_7 1_555 1_555
H15_7 C31_7 1_555 1_555
C32_7 N1_7 1_555 1_555
H16_7 C32_7 1_555 1_555
C33_7 N3_7 1_555 1_555
H17_7 C33_7 1_555 1_555
N10_3 C1_7 1_555 1_555
C34_7 N3_7 1_555 1_555
H18_7 C34_7 1_555 1_555
C35_7 N4_7 1_555 1_555
H19_7 C35_7 1_555 1_555
C36_7 N9_3 1_555 1_555
C37_7 N4_7 1_555 1_555
H21_7 C37_7 1_555 1_555
C38_7 N6_7 1_555 1_555
H22_7 C38_7 1_555 1_555
C39_7 N7_7 1_555 1_555
H23_7 C39_7 1_555 1_555
C40_7 N6_7 1_555 1_555
H24_7 C40_7 1_555 1_555
Zn4_4 O3_4 1_555 1_555
O10_4 Zn4_3 1_555 1_555
N2_7 C30_7 1_555 1_555
C1_7 C33_7 1_555 1_555
C6_7 C7_7 1_555 1_555
C12_7 C13_7 1_555 1_555
C19_7 C20_7 1_555 1_555
C26_6 C29_6 1_555 1_555
C31_7 C32_7 1_555 1_555
N10_3 C34_7 1_555 1_555
C36_7 C37_7 1_555 1_555
C39_7 C40_7 1_555 1_555
Zn4_4 O1_8 1_555 1_555
O1_8 C14_8 1_555 1_555
O2_8 C14_8 1_555 1_555
O10_4 C21_8 1_555 1_555
O4_8 C21_8 1_555 1_555
N1_8 C3_8 1_555 1_555
N2_8 Zn4_4 1_555 1_555
N3_8 C12_8 1_555 1_555
C1_8 H1_8 1_555 1_555
N4_8 C10_8 1_555 1_555
N9_4 C35_8 1_555 1_555
N6_8 C7_8 1_555 1_555
N7_8 C38_8 1_555 1_555
C2_8 H2_8 1_555 1_555
C3_8 C2_8 1_555 1_555
C4_8 C3_8 1_555 1_555
H3_8 C4_8 1_555 1_555
C5_8 C4_8 1_555 1_555
C6_8 C5_8 1_555 1_555
H4_8 C6_8 1_555 1_555
C7_8 C2_8 1_555 1_555
C8_8 C5_8 1_555 1_555
C9_8 C8_8 1_555 1_555
H5_8 C9_8 1_555 1_555
C10_8 C9_8 1_555 1_555
C11_8 C10_8 1_555 1_555
H6_8 C11_8 1_555 1_555
C12_8 C11_8 1_555 1_555
C13_8 C8_8 1_555 1_555
H7_8 C13_8 1_555 1_555
C14_8 C15_8 1_555 1_555
C15_8 C16_8 1_555 1_555
C16_8 H8_8 1_555 1_555
C20_8 C15_8 1_555 1_555
C21_8 C20_8 1_555 1_555
C30_8 N1_8 1_555 1_555
H14_8 C30_8 1_555 1_555
C31_8 N2_8 1_555 1_555
H15_8 C31_8 1_555 1_555
C32_8 N1_8 1_555 1_555
H16_8 C32_8 1_555 1_555
C33_8 N3_8 1_555 1_555
H17_8 C33_8 1_555 1_555
N10_4 C1_8 1_555 1_555
C34_8 N3_8 1_555 1_555
H18_8 C34_8 1_555 1_555
C35_8 N4_8 1_555 1_555
H19_8 C35_8 1_555 1_555
C36_8 N9_4 1_555 1_555
C37_8 N4_8 1_555 1_555
H21_8 C37_8 1_555 1_555
C38_8 N6_8 1_555 1_555
H22_8 C38_8 1_555 1_555
C39_8 N7_8 1_555 1_555
H23_8 C39_8 1_555 1_555
C40_8 N6_8 1_555 1_555
H24_8 C40_8 1_555 1_555
N2_8 C30_8 1_555 1_555
C1_8 C33_8 1_555 1_555
C6_8 C7_8 1_555 1_555
C12_8 C13_8 1_555 1_555
C19_8 C20_8 1_555 1_555
C31_8 C32_8 1_555 1_555
N10_4 C34_8 1_555 1_555
C36_8 C37_8 1_555 1_555
C39_8 C40_8 1_555 1_555
O11_3 C27_7 1_555 1_555
O6_7 C27_7 1_555 1_555
O9_7 C17_7 1_555 1_555
C18_7 C17_7 1_555 1_555
H9_7 C18_7 1_555 1_555
C22_7 O9_7 1_555 1_555
C23_7 C22_7 1_555 1_555
H11_7 C23_7 1_555 1_555
C24_7 C23_7 1_555 1_555
C25_7 C24_7 1_555 1_555
C26_7 C25_7 1_555 1_555
H12_7 C26_7 1_555 1_555
C27_7 C24_7 1_555 1_555
C28_7 C25_7 1_555 1_555
C29_7 C22_7 1_555 1_555
H13_7 C29_7 1_555 1_555
C26_7 C29_7 1_555 1_555
O11_4 C27_8 1_555 1_555
O6_8 C27_8 1_555 1_555
O9_8 C17_8 1_555 1_555
C18_8 C17_8 1_555 1_555
H9_8 C18_8 1_555 1_555
C22_8 O9_8 1_555 1_555
C23_8 C22_8 1_555 1_555
H11_8 C23_8 1_555 1_555
C24_8 C23_8 1_555 1_555
C25_8 C24_8 1_555 1_555
C26_8 C25_8 1_555 1_555
H12_8 C26_8 1_555 1_555
C27_8 C24_8 1_555 1_555
C28_8 C25_8 1_555 1_555
C29_8 C22_8 1_555 1_555
H13_8 C29_8 1_555 1_555
C26_8 C29_8 1_555 1_555

#END
