
###############################################################################
#
# This file contains modified crystal structure data generated from the
# MOF subset of the Cambridge Structural Database (CSD) v543 
# hosted by the Cambridge Crystallographic Data Centre (CCDC).
#
# This work is licensed under the Creative Commons
# Attribution-NonCommercial-ShareAlike 4.0 International License.
# To view a copy of this license, visit
# http://creativecommons.org/licenses/by-nc-sa/4.0/
# or send a letter to
# Creative Commons, PO Box 1866, Mountain View, CA 94042, USA.
#
# CIF created using the CSD Python API on 29 September 2022
# The structure has been converted into the P1 space group
# The structure has a 3D framework
# The original CSD entry YITRAX is in the orthorhombic crystal system
# The framework has been calculated to contain at least 10.0% void space
# The void calculation uses a probe of radius 1.32A, grid spacing 0.4
#
###############################################################################

data_YITRAX
_chemical_formula_moiety         '(C208 H136 Co8 N32 O40)n'
_symmetry_cell_setting           triclinic
_symmetry_space_group_name_H-M   'P 1'
_symmetry_Int_Tables_number      1
_space_group_name_Hall           'P 1'
loop_
_symmetry_equiv_pos_site_id
_symmetry_equiv_pos_as_xyz
1 x,y,z
_cell_length_a                   13.7262(13)
_cell_length_b                   20.841(2)
_cell_length_c                   18.9308(18)
_cell_angle_alpha                90
_cell_angle_beta                 90
_cell_angle_gamma                90
_cell_volume                     5415.49
loop_
_atom_site_label
_atom_site_type_symbol
_atom_site_fract_x
_atom_site_fract_y
_atom_site_fract_z
Co1 Co 0.75316(5) 0.25114(3) 0.04227(3)
C7 C 0.7212(4) 0.3283(3) 0.1438(3)
C8 C 0.6935(4) 0.3644(2) 0.2098(3)
C9 C 0.7220(5) 0.4271(3) 0.2195(3)
H4 H 0.757050 0.448144 0.184447
C10 C 0.6985(5) 0.4586(3) 0.2813(3)
H5 H 0.715367 0.501473 0.287045
C11 C 0.6500(4) 0.4266(3) 0.3344(3)
C12 C 0.6252(6) 0.3650(3) 0.3272(3)
H6 H 0.595052 0.343330 0.364148
C13 C 0.6448(5) 0.3335(3) 0.2639(3)
H7 H 0.624917 0.291168 0.257941
C14 C 0.5735(4) 0.5087(3) 0.4036(3)
C15 C 0.5855(4) 0.5487(3) 0.4609(3)
H8 H 0.635102 0.541196 0.493351
C16 C 0.5230(4) 0.5998(3) 0.4696(3)
H9 H 0.531361 0.627055 0.508059
C17 C 0.4490(4) 0.6114(3) 0.4229(3)
C18 C 0.4368(5) 0.5704(4) 0.3666(4)
H10 H 0.385565 0.576749 0.335247
C19 C 0.5005(5) 0.5196(3) 0.3564(3)
H11 H 0.493412 0.492999 0.317352
C20 C 0.3777(5) 0.6664(3) 0.4347(4)
O1 O 0.3816(3) 0.69669(19) 0.4909(3)
O2 O 0.7987(3) 0.3396(3) 0.1144(2)
O3 O 0.6640(3) 0.28582(17) 0.11979(19)
O4 O 0.6357(3) 0.4564(2) 0.4005(2)
O5 O 0.3158(5) 0.6767(3) 0.3888(3)
Co4 Co 0.25316(5) 0.75114(3) 0.45773(3)
O11 O 0.8816(3) 0.19669(19) 0.0091(3)
O13 O 0.8158(5) 0.1767(3) 0.1112(3)
C1 C 0.5272(4) 0.0035(2) 0.7842(3)
C4 C 0.6320(4) 0.0014(2) 0.9114(3)
H2 H 0.666227 0.001080 0.953752
C5 C 0.5853(3) 0.0561(2) 0.8883(2)
C6 C 0.5334(4) 0.0578(2) 0.8248(3)
H3 H 0.503371 0.095478 0.810127
C21 C 0.6726(3) 0.1345(2) 0.9637(2)
H12 H 0.731806 0.112924 0.965253
C22 C 0.5609(4) 0.2044(2) 0.9799(3)
H13 H 0.528824 0.240941 0.995750
C23 C 0.5212(3) 0.1592(2) 0.9390(3)
H14 H 0.458135 0.158493 0.921115
N1 N 0.5929(3) 0.11361(16) 0.9287(2)
N2 N 0.6554(3) 0.18919(16) 0.99525(19)
C27 C 0.4728(4) 0.0035(2) 0.7158(3)
C30 C 0.3680(4) 0.0014(2) 0.5886(3)
H19 H 0.333773 0.001080 0.546248
C31 C 0.4147(3) 0.0561(2) 0.6117(2)
C32 C 0.4666(4) 0.0578(2) 0.6752(3)
H20 H 0.496629 0.095478 0.689873
C33 C 0.3274(3) 0.1345(2) 0.5363(2)
H21 H 0.268194 0.112924 0.534747
C34 C 0.4391(4) 0.2044(2) 0.5201(3)
H22 H 0.471176 0.240941 0.504250
C35 C 0.4788(3) 0.1592(2) 0.5610(3)
H23 H 0.541865 0.158493 0.578885
N5 N 0.4071(3) 0.11361(16) 0.5713(2)
N6 N 0.3446(3) 0.18919(16) 0.50475(19)
Co2 Co 0.24684(5) 0.25114(3) 0.45773(3)
C39 C 0.2788(4) 0.3283(3) 0.3562(3)
C40 C 0.3065(4) 0.3644(2) 0.2902(3)
C41 C 0.2780(5) 0.4271(3) 0.2805(3)
H27 H 0.242950 0.448144 0.315553
C42 C 0.3015(5) 0.4586(3) 0.2187(3)
H28 H 0.284633 0.501473 0.212955
C43 C 0.3500(4) 0.4266(3) 0.1656(3)
C44 C 0.3748(6) 0.3650(3) 0.1728(3)
H29 H 0.404948 0.343330 0.135852
C45 C 0.3552(5) 0.3335(3) 0.2361(3)
H30 H 0.375083 0.291168 0.242059
C46 C 0.4265(4) 0.5087(3) 0.0964(3)
C47 C 0.4145(4) 0.5487(3) 0.0391(3)
H31 H 0.364898 0.541196 0.006649
C48 C 0.4770(4) 0.5998(3) 0.0304(3)
C49 C 0.5510(4) 0.6114(3) 0.0771(3)
C50 C 0.5632(5) 0.5704(4) 0.1334(4)
H33 H 0.614435 0.576749 0.164753
C51 C 0.4995(5) 0.5196(3) 0.1436(3)
H34 H 0.506588 0.492999 0.182648
C52 C 0.6223(5) 0.6664(3) 0.0653(4)
O6 O 0.6184(3) 0.69669(19) 0.0091(3)
O7 O 0.2013(3) 0.3396(3) 0.3856(2)
O8 O 0.3360(3) 0.28582(17) 0.38021(19)
O9 O 0.3643(3) 0.4564(2) 0.0995(2)
O10 O 0.6842(5) 0.6767(3) 0.1112(3)
Co6 Co 0.74684(5) 0.75114(3) 0.04227(3)
N9 N 0.2332(3) 0.31334(18) 0.54213(19)
N10 N 0.7668(3) 0.31334(18) 0.95787(19)
O12 O 0.1184(3) 0.19669(19) 0.4909(3)
O14 O 0.1842(5) 0.1767(3) 0.3888(3)
C2 C 0.5757(4) 0.9469(2) 0.8063(3)
H1 H 0.573425 0.910096 0.778600
C3 C 0.6264(3) 0.9469(2) 0.8694(2)
C24 C 0.6883(4) 0.8685(2) 0.9568(2)
H15 H 0.667710 0.890388 0.996856
C25 C 0.7545(5) 0.7985(3) 0.8885(3)
H16 H 0.788643 0.762376 0.873613
C26 C 0.7182(5) 0.8443(3) 0.8456(3)
H17 H 0.720939 0.845385 0.796526
N3 N 0.6757(3) 0.88957(18) 0.8901(2)
N4 N 0.7332(3) 0.81334(18) 0.95787(19)
C28 C 0.4243(4) 0.9469(2) 0.6937(3)
H18 H 0.426575 0.910096 0.721400
C29 C 0.3736(3) 0.9469(2) 0.6306(2)
C36 C 0.3117(4) 0.8685(2) 0.5432(2)
H24 H 0.332290 0.890388 0.503144
C37 C 0.2455(5) 0.7985(3) 0.6115(3)
H25 H 0.211357 0.762376 0.626387
C38 C 0.2818(5) 0.8443(3) 0.6544(3)
H26 H 0.279061 0.845385 0.703474
N7 N 0.3243(3) 0.88957(18) 0.6099(2)
N8 N 0.2668(3) 0.81334(18) 0.54213(19)
C49_2 C 0.0510(4) 0.1114(3) 0.4229(3)
C50_2 C 0.0632(5) 0.0704(4) 0.3666(4)
H33_2 H 0.114435 0.076749 0.335247
C52_2 C 0.1223(5) 0.1664(3) 0.4347(4)
C1_2 C 0.0272(4) 0.5035(2) 0.7158(3)
C2_2 C 0.0757(4) 0.4469(2) 0.6937(3)
H1_2 H 0.073425 0.410096 0.721400
C3_2 C 0.1264(3) 0.4469(2) 0.6306(2)
C4_2 C 0.1320(4) 0.5014(2) 0.5886(3)
H2_2 H 0.166227 0.501080 0.546248
C5_2 C 0.0853(3) 0.5561(2) 0.6117(2)
C6_2 C 0.0334(4) 0.5578(2) 0.6752(3)
H3_2 H 0.003371 0.595478 0.689873
C7_2 C 0.2212(4) 0.8283(3) 0.3562(3)
C8_2 C 0.1935(4) 0.8644(2) 0.2902(3)
C9_2 C 0.2220(5) 0.9271(3) 0.2805(3)
H4_2 H 0.257050 0.948144 0.315553
C10_2 C 0.1985(5) 0.9586(3) 0.2187(3)
C11_2 C 0.1500(4) 0.9266(3) 0.1656(3)
C12_2 C 0.1252(6) 0.8650(3) 0.1728(3)
H6_2 H 0.095052 0.843330 0.135852
C13_2 C 0.1448(5) 0.8335(3) 0.2361(3)
H7_2 H 0.124917 0.791168 0.242059
C21_2 C 0.1726(3) 0.6345(2) 0.5363(2)
H12_2 H 0.231806 0.612924 0.534747
C22_2 C 0.0609(4) 0.7044(2) 0.5201(3)
H13_2 H 0.028824 0.740941 0.504250
C23_2 C 0.0212(3) 0.6592(2) 0.5610(3)
C24_2 C 0.1883(4) 0.3685(2) 0.5432(2)
H15_2 H 0.167710 0.390388 0.503144
C25_2 C 0.2545(5) 0.2985(3) 0.6115(3)
H16_2 H 0.288643 0.262376 0.626387
C26_2 C 0.2182(5) 0.3443(3) 0.6544(3)
H17_2 H 0.220939 0.345385 0.703474
N1_2 N 0.0929(3) 0.61361(16) 0.5713(2)
N2_2 N 0.1554(3) 0.68919(16) 0.50475(19)
N3_2 N 0.1757(3) 0.38957(18) 0.6099(2)
O2_2 O 0.2987(3) 0.8396(3) 0.3856(2)
O3_2 O 0.1640(3) 0.78582(17) 0.38021(19)
O4_2 O 0.1357(3) 0.9564(2) 0.0995(2)
H23_2 H 0.041865 0.658493 0.921115
C17_2 C 0.9490(4) 0.1114(3) 0.0771(3)
C18_2 C 0.9368(5) 0.0704(4) 0.1334(4)
H10_2 H 0.885565 0.076749 0.164753
C20_2 C 0.8777(5) 0.1664(3) 0.0653(4)
C39_2 C 0.7788(4) 0.8283(3) 0.1438(3)
C40_2 C 0.8065(4) 0.8644(2) 0.2098(3)
C41_2 C 0.7780(5) 0.9271(3) 0.2195(3)
H27_2 H 0.742950 0.948144 0.184447
C42_2 C 0.8015(5) 0.9586(3) 0.2813(3)
C43_2 C 0.8500(4) 0.9266(3) 0.3344(3)
C44_2 C 0.8748(6) 0.8650(3) 0.3272(3)
H29_2 H 0.904948 0.843330 0.364148
C45_2 C 0.8552(5) 0.8335(3) 0.2639(3)
H30_2 H 0.875083 0.791168 0.257941
O7_2 O 0.7013(3) 0.8396(3) 0.1144(2)
O8_2 O 0.8360(3) 0.78582(17) 0.11979(19)
O9_2 O 0.8643(3) 0.9564(2) 0.4005(2)
H11_2 H 0.993412 0.992999 0.182648
H14_2 H 0.958135 0.658493 0.578885
C27_2 C 0.9728(4) 0.5035(2) 0.7842(3)
C28_2 C 0.9243(4) 0.4469(2) 0.8063(3)
H18_2 H 0.926575 0.410096 0.778600
C29_2 C 0.8736(3) 0.4469(2) 0.8694(2)
C30_2 C 0.8680(4) 0.5014(2) 0.9114(3)
H19_2 H 0.833773 0.501080 0.953752
C31_2 C 0.9147(3) 0.5561(2) 0.8883(2)
C32_2 C 0.9666(4) 0.5578(2) 0.8248(3)
H20_2 H 0.996629 0.595478 0.810127
C33_2 C 0.8274(3) 0.6345(2) 0.9637(2)
H21_2 H 0.768194 0.612924 0.965253
C34_2 C 0.9391(4) 0.7044(2) 0.9799(3)
H22_2 H 0.971176 0.740941 0.995750
C35_2 C 0.9788(3) 0.6592(2) 0.9390(3)
C36_2 C 0.8117(4) 0.3685(2) 0.9568(2)
H24_2 H 0.832290 0.390388 0.996856
C37_2 C 0.7455(5) 0.2985(3) 0.8885(3)
H25_2 H 0.711357 0.262376 0.873613
C38_2 C 0.7818(5) 0.3443(3) 0.8456(3)
H26_2 H 0.779061 0.345385 0.796526
N5_2 N 0.9071(3) 0.61361(16) 0.9287(2)
N6_2 N 0.8446(3) 0.68919(16) 0.99525(19)
N7_2 N 0.8243(3) 0.38957(18) 0.8901(2)
H32 H 0.468639 0.627055 0.991941
H11_3 H 0.006588 0.007001 0.817352
H14_3 H 0.041865 0.341507 0.421115
C27_3 C 0.0272(4) 0.4965(2) 0.2158(3)
C28_3 C 0.0757(4) 0.5531(2) 0.1937(3)
H18_3 H 0.073425 0.589904 0.221400
C29_3 C 0.1264(3) 0.5531(2) 0.1306(2)
C30_3 C 0.1320(4) 0.4986(2) 0.0886(3)
H19_3 H 0.166227 0.498920 0.046248
C31_3 C 0.0853(3) 0.4439(2) 0.1117(2)
C32_3 C 0.0334(4) 0.4422(2) 0.1752(3)
H20_3 H 0.003371 0.404522 0.189873
C33_3 C 0.1726(3) 0.3655(2) 0.0363(2)
H21_3 H 0.231806 0.387076 0.034747
C34_3 C 0.0609(4) 0.2956(2) 0.0201(3)
H22_3 H 0.028824 0.259059 0.004250
C35_3 C 0.0212(3) 0.3408(2) 0.0610(3)
C36_3 C 0.1883(4) 0.6315(2) 0.0432(2)
H24_3 H 0.167710 0.609612 0.003144
C37_3 C 0.2545(5) 0.7015(3) 0.1115(3)
H25_3 H 0.288643 0.737624 0.126387
C38_3 C 0.2182(5) 0.6557(3) 0.1544(3)
H26_3 H 0.220939 0.654615 0.203474
N5_3 N 0.0929(3) 0.38639(16) 0.0713(2)
N6_3 N 0.1554(3) 0.31081(16) 0.00475(19)
N7_3 N 0.1757(3) 0.61043(18) 0.1099(2)
N8_2 N 0.2332(3) 0.68666(18) 0.04213(19)
N9_2 N 0.2668(3) 0.18666(18) 0.04213(19)
Co2_2 Co 0.25316(5) 0.24886(3) 0.95773(3)
C39_3 C 0.2212(4) 0.1717(3) 0.8562(3)
C40_3 C 0.1935(4) 0.1356(2) 0.7902(3)
C41_3 C 0.2220(5) 0.0729(3) 0.7805(3)
H27_3 H 0.257050 0.051856 0.815553
C42_3 C 0.1985(5) 0.0414(3) 0.7187(3)
C43_3 C 0.1500(4) 0.0734(3) 0.6656(3)
C44_3 C 0.1252(6) 0.1350(3) 0.6728(3)
H29_3 H 0.095052 0.156670 0.635852
C45_3 C 0.1448(5) 0.1665(3) 0.7361(3)
H30_3 H 0.124917 0.208832 0.742059
O7_3 O 0.2987(3) 0.1604(3) 0.8856(2)
O8_3 O 0.1640(3) 0.21418(17) 0.88021(19)
O9_3 O 0.1357(3) 0.0436(2) 0.5995(2)
Co3 Co 0.24684(5) 0.74886(3) 0.95773(3)
O12_2 O 0.3816(3) 0.30331(19) 0.9909(3)
O14_2 O 0.3158(5) 0.3233(3) 0.8888(3)
C17_3 C 0.0510(4) 0.8886(3) 0.9229(3)
C18_3 C 0.0632(5) 0.9296(4) 0.8666(4)
H10_3 H 0.114435 0.923251 0.835247
C20_3 C 0.1223(5) 0.8336(3) 0.9347(4)
O1_2 O 0.1184(3) 0.80331(19) 0.9909(3)
O5_2 O 0.1842(5) 0.8233(3) 0.8888(3)
Co1_2 Co 0.74684(5) 0.24886(3) 0.54227(3)
C1_3 C 0.9728(4) 0.4965(2) 0.2842(3)
C2_3 C 0.9243(4) 0.5531(2) 0.3063(3)
H1_3 H 0.926575 0.589904 0.278600
C3_3 C 0.8736(3) 0.5531(2) 0.3694(2)
C4_3 C 0.8680(4) 0.4986(2) 0.4114(3)
H2_3 H 0.833773 0.498920 0.453752
C5_3 C 0.9147(3) 0.4439(2) 0.3883(2)
C6_3 C 0.9666(4) 0.4422(2) 0.3248(3)
H3_3 H 0.996629 0.404522 0.310127
C7_3 C 0.7788(4) 0.1717(3) 0.6438(3)
C8_3 C 0.8065(4) 0.1356(2) 0.7098(3)
C9_3 C 0.7780(5) 0.0729(3) 0.7195(3)
H4_3 H 0.742950 0.051856 0.684447
C10_3 C 0.8015(5) 0.0414(3) 0.7813(3)
C11_3 C 0.8500(4) 0.0734(3) 0.8344(3)
C12_3 C 0.8748(6) 0.1350(3) 0.8272(3)
H6_3 H 0.904948 0.156670 0.864148
C13_3 C 0.8552(5) 0.1665(3) 0.7639(3)
H7_3 H 0.875083 0.208832 0.757941
C21_3 C 0.8274(3) 0.3655(2) 0.4637(2)
H12_3 H 0.768194 0.387076 0.465253
C22_3 C 0.9391(4) 0.2956(2) 0.4799(3)
H13_3 H 0.971176 0.259059 0.495750
C23_3 C 0.9788(3) 0.3408(2) 0.4390(3)
C24_3 C 0.8117(4) 0.6315(2) 0.4568(2)
H15_3 H 0.832290 0.609612 0.496856
C25_3 C 0.7455(5) 0.7015(3) 0.3885(3)
H16_3 H 0.711357 0.737624 0.373613
C26_3 C 0.7818(5) 0.6557(3) 0.3456(3)
H17_3 H 0.779061 0.654615 0.296526
N1_3 N 0.9071(3) 0.38639(16) 0.4287(2)
N2_3 N 0.8446(3) 0.31081(16) 0.49525(19)
N3_3 N 0.8243(3) 0.61043(18) 0.3901(2)
N4_2 N 0.7668(3) 0.68666(18) 0.45787(19)
O2_3 O 0.7013(3) 0.1604(3) 0.6144(2)
O3_3 O 0.8360(3) 0.21418(17) 0.61979(19)
O4_3 O 0.8643(3) 0.0436(2) 0.9005(2)
H23_3 H 0.958135 0.341507 0.078885
Co5 Co 0.75316(5) 0.74886(3) 0.54227(3)
N10_2 N 0.7332(3) 0.18666(18) 0.45787(19)
O11_2 O 0.6184(3) 0.30331(19) 0.5091(3)
O13_2 O 0.6842(5) 0.3233(3) 0.6112(3)
C49_3 C 0.9490(4) 0.8886(3) 0.5771(3)
C50_3 C 0.9368(5) 0.9296(4) 0.6334(4)
H33_3 H 0.885565 0.923251 0.664753
C52_3 C 0.8777(5) 0.8336(3) 0.5653(4)
O6_2 O 0.8816(3) 0.80331(19) 0.5091(3)
O10_2 O 0.8158(5) 0.8233(3) 0.6112(3)
C2_4 C 0.4243(4) 0.0531(2) 0.1937(3)
H1_4 H 0.426575 0.089904 0.221400
C3_4 C 0.3736(3) 0.0531(2) 0.1306(2)
C24_4 C 0.3117(4) 0.1315(2) 0.0432(2)
H15_4 H 0.332290 0.109612 0.003144
C25_4 C 0.2455(5) 0.2015(3) 0.1115(3)
H16_4 H 0.211357 0.237624 0.126387
C26_4 C 0.2818(5) 0.1557(3) 0.1544(3)
H17_4 H 0.279061 0.154615 0.203474
N3_4 N 0.3243(3) 0.11043(18) 0.1099(2)
C28_4 C 0.5757(4) 0.0531(2) 0.3063(3)
H18_4 H 0.573425 0.089904 0.278600
C29_4 C 0.6264(3) 0.0531(2) 0.3694(2)
C36_4 C 0.6883(4) 0.1315(2) 0.4568(2)
H24_4 H 0.667710 0.109612 0.496856
C37_4 C 0.7545(5) 0.2015(3) 0.3885(3)
H25_4 H 0.788643 0.237624 0.373613
C38_4 C 0.7182(5) 0.1557(3) 0.3456(3)
H26_4 H 0.720939 0.154615 0.296526
N7_4 N 0.6757(3) 0.11043(18) 0.3901(2)
C1_4 C 0.4728(4) 0.9965(2) 0.2158(3)
C4_4 C 0.3680(4) 0.9986(2) 0.0886(3)
H2_4 H 0.333773 0.998920 0.046248
C5_4 C 0.4147(3) 0.9439(2) 0.1117(2)
C6_4 C 0.4666(4) 0.9422(2) 0.1752(3)
H3_4 H 0.496629 0.904522 0.189873
C21_4 C 0.3274(3) 0.8655(2) 0.0363(2)
H12_4 H 0.268194 0.887076 0.034747
C22_4 C 0.4391(4) 0.7956(2) 0.0201(3)
H13_4 H 0.471176 0.759059 0.004250
C23_4 C 0.4788(3) 0.8408(2) 0.0610(3)
H14_4 H 0.541865 0.841507 0.078885
N1_4 N 0.4071(3) 0.88639(16) 0.0713(2)
N2_4 N 0.3446(3) 0.81081(16) 0.00475(19)
C27_4 C 0.5272(4) 0.9965(2) 0.2842(3)
C30_4 C 0.6320(4) 0.9986(2) 0.4114(3)
H19_4 H 0.666227 0.998920 0.453752
C31_4 C 0.5853(3) 0.9439(2) 0.3883(2)
C32_4 C 0.5334(4) 0.9422(2) 0.3248(3)
H20_4 H 0.503371 0.904522 0.310127
C33_4 C 0.6726(3) 0.8655(2) 0.4637(2)
H21_4 H 0.731806 0.887076 0.465253
C34_4 C 0.5609(4) 0.7956(2) 0.4799(3)
H22_4 H 0.528824 0.759059 0.495750
C35_4 C 0.5212(3) 0.8408(2) 0.4390(3)
H23_4 H 0.458135 0.841507 0.421115
N5_4 N 0.5929(3) 0.88639(16) 0.4287(2)
N6_4 N 0.6554(3) 0.81081(16) 0.49525(19)
C39_4 C 0.7212(4) 0.6717(3) 0.6438(3)
C40_4 C 0.6935(4) 0.6356(2) 0.7098(3)
C41_4 C 0.7220(5) 0.5729(3) 0.7195(3)
H27_4 H 0.757050 0.551856 0.684447
C42_4 C 0.6985(5) 0.5414(3) 0.7813(3)
H28_2 H 0.715367 0.498527 0.787045
C43_4 C 0.6500(4) 0.5734(3) 0.8344(3)
C44_4 C 0.6252(6) 0.6350(3) 0.8272(3)
H29_4 H 0.595052 0.656670 0.864148
C45_4 C 0.6448(5) 0.6665(3) 0.7639(3)
H30_4 H 0.624917 0.708832 0.757941
C46_2 C 0.5735(4) 0.4913(3) 0.9036(3)
C47_2 C 0.5855(4) 0.4513(3) 0.9609(3)
H31_2 H 0.635102 0.458804 0.993351
C48_2 C 0.5230(4) 0.4002(3) 0.9696(3)
C49_4 C 0.4490(4) 0.3886(3) 0.9229(3)
C50_4 C 0.4368(5) 0.4296(4) 0.8666(4)
H33_4 H 0.385565 0.423251 0.835247
C51_2 C 0.5005(5) 0.4804(3) 0.8564(3)
H34_2 H 0.493412 0.507001 0.817352
C52_4 C 0.3777(5) 0.3336(3) 0.9347(4)
O7_4 O 0.7987(3) 0.6604(3) 0.6144(2)
O8_4 O 0.6640(3) 0.71418(17) 0.61979(19)
O9_4 O 0.6357(3) 0.5436(2) 0.9005(2)
C7_4 C 0.2788(4) 0.6717(3) 0.8562(3)
C8_4 C 0.3065(4) 0.6356(2) 0.7902(3)
C9_4 C 0.2780(5) 0.5729(3) 0.7805(3)
H4_4 H 0.242950 0.551856 0.815553
C10_4 C 0.3015(5) 0.5414(3) 0.7187(3)
H5_2 H 0.284633 0.498527 0.712955
C11_4 C 0.3500(4) 0.5734(3) 0.6656(3)
C12_4 C 0.3748(6) 0.6350(3) 0.6728(3)
H6_4 H 0.404948 0.656670 0.635852
C13_4 C 0.3552(5) 0.6665(3) 0.7361(3)
H7_4 H 0.375083 0.708832 0.742059
C14_2 C 0.4265(4) 0.4913(3) 0.5964(3)
C15_2 C 0.4145(4) 0.4513(3) 0.5391(3)
H8_2 H 0.364898 0.458804 0.506649
C16_2 C 0.4770(4) 0.4002(3) 0.5304(3)
H9_2 H 0.468639 0.372945 0.491941
C17_4 C 0.5510(4) 0.3886(3) 0.5771(3)
C18_4 C 0.5632(5) 0.4296(4) 0.6334(4)
H10_4 H 0.614435 0.423251 0.664753
C19_2 C 0.4995(5) 0.4804(3) 0.6436(3)
H11_4 H 0.506588 0.507001 0.682648
C20_4 C 0.6223(5) 0.3336(3) 0.5653(4)
O2_4 O 0.2013(3) 0.6604(3) 0.8856(2)
O3_4 O 0.3360(3) 0.71418(17) 0.88021(19)
O4_4 O 0.3643(3) 0.5436(2) 0.5995(2)
H28_3 H 0.215367 0.998527 0.712955
C46_3 C 0.0735(4) 0.9913(3) 0.5964(3)
C47_3 C 0.0855(4) 0.9513(3) 0.5391(3)
H31_3 H 0.135102 0.958804 0.506649
C48_3 C 0.0230(4) 0.9002(3) 0.5304(3)
H32_2 H 0.031361 0.872945 0.491941
C51_3 C 0.0005(5) 0.9804(3) 0.6436(3)
H34_3 H 0.993412 0.007001 0.682648
H9_3 H 0.968639 0.872945 0.008059
H5_3 H 0.784633 0.998527 0.787045
C14_3 C 0.9265(4) 0.9913(3) 0.9036(3)
C15_3 C 0.9145(4) 0.9513(3) 0.9609(3)
H8_3 H 0.864898 0.958804 0.993351
C16_3 C 0.9770(4) 0.9002(3) 0.9696(3)
C19_3 C 0.9995(5) 0.9804(3) 0.8564(3)
H32_3 H 0.531361 0.372945 0.008059
H5_4 H 0.215367 0.001473 0.212955
C14_4 C 0.0735(4) 0.0087(3) 0.0964(3)
C15_4 C 0.0855(4) 0.0487(3) 0.0391(3)
H8_4 H 0.135102 0.041196 0.006649
C16_4 C 0.0230(4) 0.0998(3) 0.0304(3)
C19_4 C 0.0005(5) 0.0196(3) 0.1436(3)
H9_4 H 0.031361 0.127055 0.991941
H34_4 H 0.006588 0.992999 0.317352
H28_4 H 0.784633 0.001473 0.287045
C46_4 C 0.9265(4) 0.0087(3) 0.4036(3)
C47_4 C 0.9145(4) 0.0487(3) 0.4609(3)
H31_4 H 0.864898 0.041196 0.493351
C48_4 C 0.9770(4) 0.0998(3) 0.4696(3)
H32_4 H 0.968639 0.127055 0.508059
C51_4 C 0.9995(5) 0.0196(3) 0.3564(3)
loop_
_geom_bond_atom_site_label_1
_geom_bond_atom_site_label_2
_geom_bond_site_symmetry_1
_geom_bond_site_symmetry_2
C7 C8 1_555 1_555
C8 C9 1_555 1_555
C9 H4 1_555 1_555
C10 C9 1_555 1_555
H5 C10 1_555 1_555
C11 C10 1_555 1_555
C12 C11 1_555 1_555
H6 C12 1_555 1_555
C13 C8 1_555 1_555
H7 C13 1_555 1_555
C14 C15 1_555 1_555
C15 H8 1_555 1_555
C16 C15 1_555 1_555
H9 C16 1_555 1_555
C17 C16 1_555 1_555
C18 C17 1_555 1_555
H10 C18 1_555 1_555
C19 C14 1_555 1_555
H11 C19 1_555 1_555
C20 C17 1_555 1_555
O1 C20 1_555 1_555
O2 Co1 1_555 1_555
O3 Co1 1_555 1_555
O4 C11 1_555 1_555
O5 C20 1_555 1_555
Co4 O1 1_555 1_555
O11 Co1 1_555 1_555
O13 Co1 1_555 1_555
C7 O2 1_555 1_555
C7 O3 1_555 1_555
C12 C13 1_555 1_555
C14 O4 1_555 1_555
C18 C19 1_555 1_555
O5 Co4 1_555 1_555
H2 C4 1_555 1_555
C5 C4 1_555 1_555
C6 C1 1_555 1_555
H3 C6 1_555 1_555
C21 H12 1_555 1_555
C22 H13 1_555 1_555
C23 C22 1_555 1_555
H14 C23 1_555 1_555
N1 C5 1_555 1_555
N2 C21 1_555 1_555
C27 C1 1_555 1_555
H19 C30 1_555 1_555
C31 C30 1_555 1_555
C32 C27 1_555 1_555
H20 C32 1_555 1_555
C33 H21 1_555 1_555
C34 H22 1_555 1_555
C35 C34 1_555 1_555
H23 C35 1_555 1_555
N5 C31 1_555 1_555
N6 C33 1_555 1_555
Co2 N6 1_555 1_555
C39 C40 1_555 1_555
C40 C41 1_555 1_555
C41 H27 1_555 1_555
C42 C41 1_555 1_555
H28 C42 1_555 1_555
C43 C42 1_555 1_555
C44 C43 1_555 1_555
H29 C44 1_555 1_555
C45 C40 1_555 1_555
H30 C45 1_555 1_555
C46 C47 1_555 1_555
C47 H31 1_555 1_555
C48 C47 1_555 1_555
C49 C48 1_555 1_555
C50 C49 1_555 1_555
H33 C50 1_555 1_555
C51 C46 1_555 1_555
H34 C51 1_555 1_555
C52 C49 1_555 1_555
O6 C52 1_555 1_555
O7 Co2 1_555 1_555
O8 Co2 1_555 1_555
O9 C43 1_555 1_555
O10 C52 1_555 1_555
Co6 O6 1_555 1_555
N9 Co2 1_555 1_555
O12 Co2 1_555 1_555
O14 Co2 1_555 1_555
C5 C6 1_555 1_555
C21 N1 1_555 1_555
C22 N2 1_555 1_555
C23 N1 1_555 1_555
C31 C32 1_555 1_555
C33 N5 1_555 1_555
C34 N6 1_555 1_555
C35 N5 1_555 1_555
C39 O7 1_555 1_555
C39 O8 1_555 1_555
C44 C45 1_555 1_555
C46 O9 1_555 1_555
C50 C51 1_555 1_555
O10 Co6 1_555 1_555
C2 H1 1_555 1_555
C3 C2 1_555 1_555
C24 H15 1_555 1_555
C25 H16 1_555 1_555
C26 C25 1_555 1_555
H17 C26 1_555 1_555
N3 C3 1_555 1_555
N4 C24 1_555 1_555
H18 C28 1_555 1_555
C29 C28 1_555 1_555
C36 H24 1_555 1_555
C37 H25 1_555 1_555
C38 C37 1_555 1_555
H26 C38 1_555 1_555
N7 C29 1_555 1_555
N8 C36 1_555 1_555
Co4 N8 1_555 1_555
C24 N3 1_555 1_555
C25 N4 1_555 1_555
C26 N3 1_555 1_555
C36 N7 1_555 1_555
C37 N8 1_555 1_555
C38 N7 1_555 1_555
C50_2 C49_2 1_555 1_555
H33_2 C50_2 1_555 1_555
C52_2 C49_2 1_555 1_555
O12 C52_2 1_555 1_555
O14 C52_2 1_555 1_555
Co4 N2_2 1_555 1_555
C1_2 C2_2 1_555 1_555
C2_2 H1_2 1_555 1_555
C3_2 C2_2 1_555 1_555
C4_2 C3_2 1_555 1_555
H2_2 C4_2 1_555 1_555
C5_2 C4_2 1_555 1_555
C6_2 C1_2 1_555 1_555
H3_2 C6_2 1_555 1_555
C7_2 C8_2 1_555 1_555
C8_2 C9_2 1_555 1_555
C9_2 H4_2 1_555 1_555
C10_2 C9_2 1_555 1_555
C11_2 C10_2 1_555 1_555
C12_2 C11_2 1_555 1_555
H6_2 C12_2 1_555 1_555
C13_2 C8_2 1_555 1_555
H7_2 C13_2 1_555 1_555
C21_2 H12_2 1_555 1_555
C22_2 H13_2 1_555 1_555
C23_2 C22_2 1_555 1_555
C24_2 H15_2 1_555 1_555
C25_2 H16_2 1_555 1_555
C26_2 C25_2 1_555 1_555
H17_2 C26_2 1_555 1_555
N1_2 C5_2 1_555 1_555
N2_2 C21_2 1_555 1_555
N3_2 C3_2 1_555 1_555
N9 C24_2 1_555 1_555
O2_2 Co4 1_555 1_555
O3_2 Co4 1_555 1_555
O4_2 C11_2 1_555 1_555
C5_2 C6_2 1_555 1_555
C7_2 O2_2 1_555 1_555
C7_2 O3_2 1_555 1_555
C12_2 C13_2 1_555 1_555
C21_2 N1_2 1_555 1_555
C22_2 N2_2 1_555 1_555
C23_2 N1_2 1_555 1_555
C24_2 N3_2 1_555 1_555
C25_2 N9 1_555 1_555
C26_2 N3_2 1_555 1_555
C18_2 C17_2 1_555 1_555
H10_2 C18_2 1_555 1_555
C20_2 C17_2 1_555 1_555
O11 C20_2 1_555 1_555
O13 C20_2 1_555 1_555
C39_2 C40_2 1_555 1_555
C40_2 C41_2 1_555 1_555
C41_2 H27_2 1_555 1_555
C42_2 C41_2 1_555 1_555
C43_2 C42_2 1_555 1_555
C44_2 C43_2 1_555 1_555
H29_2 C44_2 1_555 1_555
C45_2 C40_2 1_555 1_555
H30_2 C45_2 1_555 1_555
O7_2 Co6 1_555 1_555
O8_2 Co6 1_555 1_555
O9_2 C43_2 1_555 1_555
C39_2 O7_2 1_555 1_555
C39_2 O8_2 1_555 1_555
C44_2 C45_2 1_555 1_555
C28_2 C27_2 1_555 1_555
H18_2 C28_2 1_555 1_555
C29_2 C28_2 1_555 1_555
C30_2 C29_2 1_555 1_555
H19_2 C30_2 1_555 1_555
C31_2 C30_2 1_555 1_555
C32_2 C27_2 1_555 1_555
H20_2 C32_2 1_555 1_555
C33_2 H21_2 1_555 1_555
C34_2 H22_2 1_555 1_555
C35_2 C34_2 1_555 1_555
C36_2 H24_2 1_555 1_555
C37_2 H25_2 1_555 1_555
C38_2 C37_2 1_555 1_555
H26_2 C38_2 1_555 1_555
N5_2 C31_2 1_555 1_555
N6_2 C33_2 1_555 1_555
N7_2 C29_2 1_555 1_555
N10 C36_2 1_555 1_555
C31_2 C32_2 1_555 1_555
C33_2 N5_2 1_555 1_555
C34_2 N6_2 1_555 1_555
C35_2 N5_2 1_555 1_555
C36_2 N7_2 1_555 1_555
C37_2 N10 1_555 1_555
C38_2 N7_2 1_555 1_555
C28_3 C27_3 1_555 1_555
H18_3 C28_3 1_555 1_555
C29_3 C28_3 1_555 1_555
C30_3 C29_3 1_555 1_555
H19_3 C30_3 1_555 1_555
C31_3 C30_3 1_555 1_555
C32_3 C27_3 1_555 1_555
H20_3 C32_3 1_555 1_555
C33_3 H21_3 1_555 1_555
C34_3 H22_3 1_555 1_555
C35_3 C34_3 1_555 1_555
C36_3 H24_3 1_555 1_555
C37_3 H25_3 1_555 1_555
C38_3 C37_3 1_555 1_555
H26_3 C38_3 1_555 1_555
N5_3 C31_3 1_555 1_555
N6_3 C33_3 1_555 1_555
N7_3 C29_3 1_555 1_555
N8_2 C36_3 1_555 1_555
C31_3 C32_3 1_555 1_555
C33_3 N5_3 1_555 1_555
C34_3 N6_3 1_555 1_555
C35_3 N5_3 1_555 1_555
C36_3 N7_3 1_555 1_555
C37_3 N8_2 1_555 1_555
C38_3 N7_3 1_555 1_555
C39_3 C40_3 1_555 1_555
C40_3 C41_3 1_555 1_555
C41_3 H27_3 1_555 1_555
C42_3 C41_3 1_555 1_555
C43_3 C42_3 1_555 1_555
C44_3 C43_3 1_555 1_555
H29_3 C44_3 1_555 1_555
C45_3 C40_3 1_555 1_555
H30_3 C45_3 1_555 1_555
O7_3 Co2_2 1_555 1_555
O8_3 Co2_2 1_555 1_555
O9_3 C43_3 1_555 1_555
O12_2 Co2_2 1_555 1_555
O14_2 Co2_2 1_555 1_555
C39_3 O7_3 1_555 1_555
C39_3 O8_3 1_555 1_555
C44_3 C45_3 1_555 1_555
C18_3 C17_3 1_555 1_555
H10_3 C18_3 1_555 1_555
C20_3 C17_3 1_555 1_555
O1_2 C20_3 1_555 1_555
O5_2 C20_3 1_555 1_555
Co3 O1_2 1_555 1_555
O5_2 Co3 1_555 1_555
Co1_2 N2_3 1_555 1_555
C1_3 C2_3 1_555 1_555
C2_3 H1_3 1_555 1_555
C3_3 C2_3 1_555 1_555
C4_3 C3_3 1_555 1_555
H2_3 C4_3 1_555 1_555
C5_3 C4_3 1_555 1_555
C6_3 C1_3 1_555 1_555
H3_3 C6_3 1_555 1_555
C7_3 C8_3 1_555 1_555
C8_3 C9_3 1_555 1_555
C9_3 H4_3 1_555 1_555
C10_3 C9_3 1_555 1_555
C11_3 C10_3 1_555 1_555
C12_3 C11_3 1_555 1_555
H6_3 C12_3 1_555 1_555
C13_3 C8_3 1_555 1_555
H7_3 C13_3 1_555 1_555
C21_3 H12_3 1_555 1_555
C22_3 H13_3 1_555 1_555
C23_3 C22_3 1_555 1_555
C24_3 H15_3 1_555 1_555
C25_3 H16_3 1_555 1_555
C26_3 C25_3 1_555 1_555
H17_3 C26_3 1_555 1_555
N1_3 C5_3 1_555 1_555
N2_3 C21_3 1_555 1_555
N3_3 C3_3 1_555 1_555
N4_2 C24_3 1_555 1_555
O2_3 Co1_2 1_555 1_555
O3_3 Co1_2 1_555 1_555
O4_3 C11_3 1_555 1_555
Co5 N4_2 1_555 1_555
N10_2 Co1_2 1_555 1_555
O11_2 Co1_2 1_555 1_555
O13_2 Co1_2 1_555 1_555
C5_3 C6_3 1_555 1_555
C7_3 O2_3 1_555 1_555
C7_3 O3_3 1_555 1_555
C12_3 C13_3 1_555 1_555
C21_3 N1_3 1_555 1_555
C22_3 N2_3 1_555 1_555
C23_3 N1_3 1_555 1_555
C24_3 N3_3 1_555 1_555
C25_3 N4_2 1_555 1_555
C26_3 N3_3 1_555 1_555
C50_3 C49_3 1_555 1_555
H33_3 C50_3 1_555 1_555
C52_3 C49_3 1_555 1_555
O6_2 C52_3 1_555 1_555
O10_2 C52_3 1_555 1_555
Co5 O6_2 1_555 1_555
O10_2 Co5 1_555 1_555
C2_4 H1_4 1_555 1_555
C3_4 C2_4 1_555 1_555
C24_4 H15_4 1_555 1_555
C25_4 H16_4 1_555 1_555
C26_4 C25_4 1_555 1_555
H17_4 C26_4 1_555 1_555
N3_4 C3_4 1_555 1_555
N9_2 C24_4 1_555 1_555
H18_4 C28_4 1_555 1_555
C29_4 C28_4 1_555 1_555
C36_4 H24_4 1_555 1_555
C37_4 H25_4 1_555 1_555
C38_4 C37_4 1_555 1_555
H26_4 C38_4 1_555 1_555
N7_4 C29_4 1_555 1_555
N10_2 C36_4 1_555 1_555
C24_4 N3_4 1_555 1_555
C25_4 N9_2 1_555 1_555
C26_4 N3_4 1_555 1_555
C36_4 N7_4 1_555 1_555
C37_4 N10_2 1_555 1_555
C38_4 N7_4 1_555 1_555
H2_4 C4_4 1_555 1_555
C5_4 C4_4 1_555 1_555
C6_4 C1_4 1_555 1_555
H3_4 C6_4 1_555 1_555
C21_4 H12_4 1_555 1_555
C22_4 H13_4 1_555 1_555
C23_4 C22_4 1_555 1_555
H14_4 C23_4 1_555 1_555
N1_4 C5_4 1_555 1_555
N2_4 C21_4 1_555 1_555
C27_4 C1_4 1_555 1_555
H19_4 C30_4 1_555 1_555
C31_4 C30_4 1_555 1_555
C32_4 C27_4 1_555 1_555
H20_4 C32_4 1_555 1_555
C33_4 H21_4 1_555 1_555
C34_4 H22_4 1_555 1_555
C35_4 C34_4 1_555 1_555
H23_4 C35_4 1_555 1_555
N5_4 C31_4 1_555 1_555
N6_4 C33_4 1_555 1_555
Co5 N6_4 1_555 1_555
C39_4 C40_4 1_555 1_555
C40_4 C41_4 1_555 1_555
C41_4 H27_4 1_555 1_555
C42_4 C41_4 1_555 1_555
H28_2 C42_4 1_555 1_555
C43_4 C42_4 1_555 1_555
C44_4 C43_4 1_555 1_555
H29_4 C44_4 1_555 1_555
C45_4 C40_4 1_555 1_555
H30_4 C45_4 1_555 1_555
C46_2 C47_2 1_555 1_555
C47_2 H31_2 1_555 1_555
C48_2 C47_2 1_555 1_555
C49_4 C48_2 1_555 1_555
C50_4 C49_4 1_555 1_555
H33_4 C50_4 1_555 1_555
C51_2 C46_2 1_555 1_555
H34_2 C51_2 1_555 1_555
C52_4 C49_4 1_555 1_555
O12_2 C52_4 1_555 1_555
O7_4 Co5 1_555 1_555
O8_4 Co5 1_555 1_555
O9_4 C43_4 1_555 1_555
O14_2 C52_4 1_555 1_555
C5_4 C6_4 1_555 1_555
C21_4 N1_4 1_555 1_555
C22_4 N2_4 1_555 1_555
C23_4 N1_4 1_555 1_555
C31_4 C32_4 1_555 1_555
C33_4 N5_4 1_555 1_555
C34_4 N6_4 1_555 1_555
C35_4 N5_4 1_555 1_555
C39_4 O7_4 1_555 1_555
C39_4 O8_4 1_555 1_555
C44_4 C45_4 1_555 1_555
C46_2 O9_4 1_555 1_555
C50_4 C51_2 1_555 1_555
C7_4 C8_4 1_555 1_555
C8_4 C9_4 1_555 1_555
C9_4 H4_4 1_555 1_555
C10_4 C9_4 1_555 1_555
H5_2 C10_4 1_555 1_555
C11_4 C10_4 1_555 1_555
C12_4 C11_4 1_555 1_555
H6_4 C12_4 1_555 1_555
C13_4 C8_4 1_555 1_555
H7_4 C13_4 1_555 1_555
C14_2 C15_2 1_555 1_555
C15_2 H8_2 1_555 1_555
C16_2 C15_2 1_555 1_555
H9_2 C16_2 1_555 1_555
C17_4 C16_2 1_555 1_555
C18_4 C17_4 1_555 1_555
H10_4 C18_4 1_555 1_555
C19_2 C14_2 1_555 1_555
H11_4 C19_2 1_555 1_555
C20_4 C17_4 1_555 1_555
O11_2 C20_4 1_555 1_555
O2_4 Co3 1_555 1_555
O3_4 Co3 1_555 1_555
O4_4 C11_4 1_555 1_555
O13_2 C20_4 1_555 1_555
C7_4 O2_4 1_555 1_555
C7_4 O3_4 1_555 1_555
C12_4 C13_4 1_555 1_555
C14_2 O4_4 1_555 1_555
C18_4 C19_2 1_555 1_555
C46_3 C47_3 1_555 1_555
C47_3 H31_3 1_555 1_555
C48_3 C47_3 1_555 1_555
H32_2 C48_3 1_555 1_555
C51_3 C46_3 1_555 1_555
C14_3 C15_3 1_555 1_555
C15_3 H8_3 1_555 1_555
C16_3 C15_3 1_555 1_555
C19_3 C14_3 1_555 1_555
C14_4 C15_4 1_555 1_555
C15_4 H8_4 1_555 1_555
C16_4 C15_4 1_555 1_555
C19_4 C14_4 1_555 1_555
C46_4 C47_4 1_555 1_555
C47_4 H31_4 1_555 1_555
C48_4 C47_4 1_555 1_555
H32_4 C48_4 1_555 1_555
C51_4 C46_4 1_555 1_555

#END
