
###############################################################################
#
# This file contains modified crystal structure data generated from the
# MOF subset of the Cambridge Structural Database (CSD) v543 
# hosted by the Cambridge Crystallographic Data Centre (CCDC).
#
# This work is licensed under the Creative Commons
# Attribution-NonCommercial-ShareAlike 4.0 International License.
# To view a copy of this license, visit
# http://creativecommons.org/licenses/by-nc-sa/4.0/
# or send a letter to
# Creative Commons, PO Box 1866, Mountain View, CA 94042, USA.
#
# CIF created using the CSD Python API on 29 September 2022
# The structure has been converted into the P1 space group
# The structure has a 3D framework
# The original CSD entry YITWAB is in the tetragonal crystal system
# The framework has been calculated to contain at least 10.0% void space
# The void calculation uses a probe of radius 1.32A, grid spacing 0.4
#
###############################################################################

data_YITWAB
_chemical_formula_moiety         '(C146 H98 Cd18 N50 O32 S8)n'
_symmetry_cell_setting           triclinic
_symmetry_space_group_name_H-M   'P 1'
_symmetry_Int_Tables_number      1
_space_group_name_Hall           'P 1'
loop_
_symmetry_equiv_pos_site_id
_symmetry_equiv_pos_as_xyz
1 x,y,z
_cell_length_a                   9.4730(11)
_cell_length_b                   9.4730(11)
_cell_length_c                   42.894(10)
_cell_angle_alpha                90
_cell_angle_beta                 90
_cell_angle_gamma                90
_cell_volume                     3849.21
loop_
_atom_site_label
_atom_site_type_symbol
_atom_site_fract_x
_atom_site_fract_y
_atom_site_fract_z
Cd1 Cd -0.0000 0.0000 0.678791(8)
S1 S 0.6134(2) 0.2500 0.6250
O1 O 0.1320(4) 0.0991(4) 0.63813(9)
O2 O 0.2266(4) 0.1366(4) 0.68420(9)
N1 N -0.0000 0.0000 0.73565(11)
C1 C 0.4899(8) 0.1853(6) 0.64938(12)
H1 H 0.5102 0.1368 0.6677
C2 C 0.3550(5) 0.2130(5) 0.63894(12)
C3 C 0.2294(5) 0.1473(5) 0.65488(12)
C6 C 0.0000 0.0000 0.80080(13)
H3 H 0.0000 0.0000 0.8225
O3 O 0.1320(4) 0.4009(4) 0.61187(9)
O4 O 0.2266(4) 0.3634(4) 0.56580(9)
C10 C 0.4899(8) 0.3147(6) 0.60062(12)
H7 H 0.5102 0.3632 0.5823
C11 C 0.3550(5) 0.2870(5) 0.61106(12)
C12 C 0.2294(5) 0.3527(5) 0.59512(12)
N4 N 0.1253(4) 0.2259(4) 0.79995(9)
N5 N 0.2857(4) 0.3795(4) 0.81497(10)
C13 C 0.0578(5) 0.1063(5) 0.75139(13)
H8 H 0.0976 0.1810 0.7404
C14 C 0.0605(5) 0.1089(5) 0.78370(11)
C15 C 0.0654(6) 0.3076(6) 0.82281(12)
C16 C 0.1647(5) 0.3988(6) 0.83202(13)
H10 H 0.1533 0.4657 0.8477
C17 C 0.2597(6) 0.2737(5) 0.79578(13)
H11 H 0.3238 0.2371 0.7815
Cd3 Cd 0.5000 0.5000 0.821209(8)
Cd4 Cd 0.0000 0.5000 0.571209(8)
Cd1_2 Cd -0.0000 1.0000 0.678791(8)
N1_2 N -0.0000 1.0000 0.73565(11)
C6_2 C 0.0000 1.0000 0.80080(13)
H3_2 H 0.0000 1.0000 0.8225
H4 H 0.0263 0.6992 0.8304
N6 N 0.1205(4) 0.7857(4) 0.68503(10)
Cd1_3 Cd 1.0000 0.0000 0.678791(8)
N1_3 N 1.0000 0.0000 0.73565(11)
C6_3 C 1.0000 0.0000 0.80080(13)
H3_3 H 1.0000 0.0000 0.8225
H9 H 0.9737 0.3008 0.8304
Cd4_2 Cd 1.0000 0.5000 0.571209(8)
N7 N 0.8795(4) 0.2143(4) 0.68503(10)
Cd1_4 Cd 1.0000 1.0000 0.678791(8)
N1_4 N 1.0000 1.0000 0.73565(11)
N2 N 0.8747(4) 0.7741(4) 0.79995(9)
N3 N 0.7143(4) 0.6205(4) 0.81497(10)
C4 C 0.9422(5) 0.8937(5) 0.75139(13)
H2 H 0.9024 0.8190 0.7404
C5 C 0.9395(5) 0.8911(5) 0.78370(11)
C6_4 C 1.0000 1.0000 0.80080(13)
H3_4 H 1.0000 1.0000 0.8225
C7 C 0.9346(6) 0.6924(6) 0.82281(12)
C8 C 0.8353(5) 0.6012(6) 0.83202(13)
H5 H 0.8467 0.5343 0.8477
C9 C 0.7403(6) 0.7263(5) 0.79578(13)
H6 H 0.6762 0.7629 0.7815
O5 O 0.8680(4) 0.9009(4) 0.63813(9)
O6 O 0.7734(4) 0.8634(4) 0.68420(9)
S1_2 S 0.3866(2) 0.7500 0.6250
C1_2 C 0.5101(8) 0.8147(6) 0.64938(12)
H1_2 H 0.4898 0.8632 0.6677
C2_2 C 0.6450(5) 0.7870(5) 0.63894(12)
C3_2 C 0.7706(5) 0.8527(5) 0.65488(12)
O3_2 O 0.8680(4) 0.5991(4) 0.61187(9)
O4_2 O 0.7734(4) 0.6366(4) 0.56580(9)
C10_2 C 0.5101(8) 0.6853(6) 0.60062(12)
H7_2 H 0.4898 0.6368 0.5823
C11_2 C 0.6450(5) 0.7130(5) 0.61106(12)
C12_2 C 0.7706(5) 0.6473(5) 0.59512(12)
Cd1_5 Cd 0.0000 0.0000 0.321209(8)
N1_5 N 0.0000 0.0000 0.26435(11)
C6_5 C -0.0000 -0.0000 0.19920(13)
H3_5 H 0.0000 0.0000 0.1775
H9_2 H 0.3008 0.0263 0.1696
Cd4_3 Cd 0.5000 0.0000 0.428791(8)
N7_2 N 0.2143(4) 0.1205(4) 0.31497(10)
Cd1_6 Cd 0.0000 1.0000 0.321209(8)
S1_3 S 0.2500 0.3866(2) 0.3750
O1_2 O 0.0991(4) 0.8680(4) 0.36187(9)
O2_2 O 0.1366(4) 0.7734(4) 0.31580(9)
N1_6 N -0.0000 1.0000 0.26435(11)
C1_3 C 0.1853(6) 0.5101(8) 0.35062(12)
H1_3 H 0.1368 0.4898 0.3323
C2_3 C 0.2130(5) 0.6450(5) 0.36106(12)
C3_3 C 0.1473(5) 0.7706(5) 0.34512(12)
C6_6 C -0.0000 1.0000 0.19920(13)
H3_6 H -0.0000 1.0000 0.1775
O3_3 O 0.4009(4) 0.8680(4) 0.38813(9)
O4_3 O 0.3634(4) 0.7734(4) 0.43420(9)
C10_3 C 0.3147(6) 0.5101(8) 0.39938(12)
H7_3 H 0.3632 0.4898 0.4177
C11_3 C 0.2870(5) 0.6450(5) 0.38894(12)
C12_3 C 0.3527(5) 0.7706(5) 0.40488(12)
N4_2 N 0.2259(4) 0.8747(4) 0.20005(9)
N5_2 N 0.3795(4) 0.7143(4) 0.18503(10)
C13_2 C 0.1063(5) 0.9422(5) 0.24861(13)
H8_2 H 0.1810 0.9024 0.2596
C14_2 C 0.1089(5) 0.9395(5) 0.21630(11)
C15_2 C 0.3076(6) 0.9346(6) 0.17719(12)
C16_2 C 0.3988(6) 0.8353(5) 0.16798(13)
H10_2 H 0.4657 0.8467 0.1523
C17_2 C 0.2737(5) 0.7403(6) 0.20422(13)
H11_2 H 0.2371 0.6762 0.2185
Cd3_2 Cd 0.5000 0.5000 0.178791(8)
Cd4_4 Cd 0.5000 1.0000 0.428791(8)
Cd1_7 Cd 1.0000 0.0000 0.321209(8)
N1_7 N 1.0000 0.0000 0.26435(11)
N2_2 N 0.7741(4) 0.1253(4) 0.20005(9)
N3_2 N 0.6205(4) 0.2857(4) 0.18503(10)
C4_2 C 0.8937(5) 0.0578(5) 0.24861(13)
H2_2 H 0.8190 0.0976 0.2596
C5_2 C 0.8911(5) 0.0605(5) 0.21630(11)
C6_7 C 1.0000 -0.0000 0.19920(13)
H3_7 H 1.0000 0.0000 0.1775
C7_2 C 0.6924(6) 0.0654(6) 0.17719(12)
C8_2 C 0.6012(6) 0.1647(5) 0.16798(13)
H5_2 H 0.5343 0.1533 0.1523
C9_2 C 0.7263(5) 0.2597(6) 0.20422(13)
H6_2 H 0.7629 0.3238 0.2185
O5_2 O 0.9009(4) 0.1320(4) 0.36187(9)
O6_2 O 0.8634(4) 0.2266(4) 0.31580(9)
Cd1_8 Cd 1.0000 1.0000 0.321209(8)
N1_8 N 1.0000 1.0000 0.26435(11)
C6_8 C 1.0000 1.0000 0.19920(13)
H3_8 H 1.0000 1.0000 0.1775
H4_2 H 0.6992 0.9737 0.1696
N6_2 N 0.7857(4) 0.8795(4) 0.31497(10)
S1_4 S 0.7500 0.6134(2) 0.3750
C1_4 C 0.8147(6) 0.4899(8) 0.35062(12)
H1_4 H 0.8632 0.5102 0.3323
C2_4 C 0.7870(5) 0.3550(5) 0.36106(12)
C3_4 C 0.8527(5) 0.2294(5) 0.34512(12)
O3_4 O 0.5991(4) 0.1320(4) 0.38813(9)
O4_4 O 0.6366(4) 0.2266(4) 0.43420(9)
C10_4 C 0.6853(6) 0.4899(8) 0.39938(12)
H7_4 H 0.6368 0.5102 0.4177
C11_4 C 0.7130(5) 0.3550(5) 0.38894(12)
C12_4 C 0.6473(5) 0.2294(5) 0.40488(12)
Cd2 Cd 0.0000 0.5000 0.928791(8)
Cd1_9 Cd 0.5000 0.0000 0.071209(8)
O1_3 O 0.3680(4) 0.0991(4) 0.11187(9)
O2_3 O 0.2734(4) 0.1366(4) 0.06580(9)
N1_9 N 0.5000 0.0000 0.01435(11)
C1_5 C 0.0101(8) 0.1853(6) 0.10062(12)
C2_5 C 0.1450(5) 0.2130(5) 0.11106(12)
C3_5 C 0.2706(5) 0.1473(5) 0.09512(12)
O3_5 O 0.3680(4) 0.4009(4) 0.13813(9)
O4_5 O 0.2734(4) 0.3634(4) 0.18420(9)
C10_5 C 0.0101(8) 0.3147(6) 0.14938(12)
C11_5 C 0.1450(5) 0.2870(5) 0.13894(12)
C12_5 C 0.2706(5) 0.3527(5) 0.15488(12)
H8_3 H 0.4024 0.1810 0.0096
N7_3 N 0.6205(4) 0.2143(4) 0.06497(10)
C6_9 C 0.5000 0.0000 0.94920(13)
H3_9 H 0.5000 0.0000 0.9275
N4_3 N 0.3747(4) 0.2259(4) 0.95005(9)
N5_3 N 0.2143(4) 0.3795(4) 0.93503(10)
C13_3 C 0.4422(5) 0.1063(5) 0.99861(13)
C14_3 C 0.4395(5) 0.1089(5) 0.96630(11)
C15_3 C 0.4346(6) 0.3076(6) 0.92719(12)
H9_3 H 0.5263 0.3008 0.9196
C16_3 C 0.3353(5) 0.3988(6) 0.91798(13)
H10_3 H 0.3467 0.4657 0.9023
C17_3 C 0.2403(6) 0.2737(5) 0.95422(13)
H11_3 H 0.1762 0.2371 0.9685
Cd1_10 Cd 0.5000 1.0000 0.071209(8)
N1_10 N 0.5000 1.0000 0.01435(11)
H2_3 H 0.5976 0.8190 0.0096
O5_3 O 0.6320(4) 0.9009(4) 0.11187(9)
O6_3 O 0.7266(4) 0.8634(4) 0.06580(9)
N6_3 N 0.3795(4) 0.7857(4) 0.06497(10)
N2_3 N 0.6253(4) 0.7741(4) 0.95005(9)
N3_3 N 0.7857(4) 0.6205(4) 0.93503(10)
C4_3 C 0.5578(5) 0.8937(5) 0.99861(13)
C5_3 C 0.5605(5) 0.8911(5) 0.96630(11)
C6_10 C 0.5000 1.0000 0.94920(13)
H3_10 H 0.5000 1.0000 0.9275
C7_3 C 0.5654(6) 0.6924(6) 0.92719(12)
H4_3 H 0.4737 0.6992 0.9196
C8_3 C 0.6647(5) 0.6012(6) 0.91798(13)
H5_3 H 0.6533 0.5343 0.9023
C9_3 C 0.7597(6) 0.7263(5) 0.95422(13)
H6_3 H 0.8238 0.7629 0.9685
Cd2_2 Cd 1.0000 0.5000 0.928791(8)
S1_5 S 0.8866(2) 0.2500 0.1250
H1_5 H 0.9898 0.1368 0.0823
H7_5 H 0.9898 0.3632 0.1677
S1_6 S 0.1134(2) 0.7500 0.1250
H1_6 H 0.0102 0.8632 0.0823
H7_6 H 0.0102 0.6368 0.1677
C1_6 C 0.9899(8) 0.8147(6) 0.10062(12)
C2_6 C 0.8550(5) 0.7870(5) 0.11106(12)
C3_6 C 0.7294(5) 0.8527(5) 0.09512(12)
O3_6 O 0.6320(4) 0.5991(4) 0.13813(9)
O4_6 O 0.7266(4) 0.6366(4) 0.18420(9)
C10_6 C 0.9899(8) 0.6853(6) 0.14938(12)
C11_6 C 0.8550(5) 0.7130(5) 0.13894(12)
C12_6 C 0.7294(5) 0.6473(5) 0.15488(12)
N1_11 N 0.5000 0.0000 0.48565(11)
N2_4 N 0.7259(4) 0.1253(4) 0.54995(9)
N3_4 N 0.8795(4) 0.2857(4) 0.56497(10)
C4_4 C 0.6063(5) 0.0578(5) 0.50139(13)
H2_4 H 0.6810 0.0976 0.4904
C5_4 C 0.6089(5) 0.0605(5) 0.53370(11)
C6_11 C 0.5000 -0.0000 0.55080(13)
H3_11 H 0.5000 0.0000 0.5725
C7_4 C 0.8076(6) 0.0654(6) 0.57281(12)
C8_4 C 0.8988(6) 0.1647(5) 0.58202(13)
H5_4 H 0.9657 0.1533 0.5977
C9_4 C 0.7737(5) 0.2597(6) 0.54578(13)
H6_4 H 0.7371 0.3238 0.5315
H9_4 H 0.1992 0.0263 0.5804
N7_4 N 0.2857(4) 0.1205(4) 0.43503(10)
N1_12 N 0.5000 1.0000 0.48565(11)
C6_12 C 0.5000 1.0000 0.55080(13)
H3_12 H 0.5000 1.0000 0.5725
H4_4 H 0.8008 0.9737 0.5804
N4_4 N 0.2741(4) 0.8747(4) 0.54995(9)
N5_4 N 0.1205(4) 0.7143(4) 0.56497(10)
C13_4 C 0.3937(5) 0.9422(5) 0.50139(13)
H8_4 H 0.3190 0.9024 0.4904
C14_4 C 0.3911(5) 0.9395(5) 0.53370(11)
C15_4 C 0.1924(6) 0.9346(6) 0.57281(12)
C16_4 C 0.1012(6) 0.8353(5) 0.58202(13)
H10_4 H 0.0343 0.8467 0.5977
C17_4 C 0.2263(5) 0.7403(6) 0.54578(13)
H11_4 H 0.2629 0.6762 0.5315
N6_4 N 0.7143(4) 0.8795(4) 0.43503(10)
N1_13 N 0.5000 0.5000 0.23565(11)
N2_5 N 0.3747(4) 0.2741(4) 0.29995(9)
C4_5 C 0.4422(5) 0.3937(5) 0.25139(13)
H2_5 H 0.4024 0.3190 0.2404
C5_5 C 0.4395(5) 0.3911(5) 0.28370(11)
C6_13 C 0.5000 0.5000 0.30080(13)
H3_13 H 0.5000 0.5000 0.3225
C7_5 C 0.4346(6) 0.1924(6) 0.32281(12)
H4_5 H 0.5263 0.1992 0.3304
C8_5 C 0.3353(5) 0.1012(6) 0.33202(13)
H5_5 H 0.3467 0.0343 0.3477
C9_5 C 0.2403(6) 0.2263(5) 0.29578(13)
H6_5 H 0.1762 0.2629 0.2815
N4_5 N 0.6253(4) 0.7259(4) 0.29995(9)
C13_5 C 0.5578(5) 0.6063(5) 0.25139(13)
H8_5 H 0.5976 0.6810 0.2404
C14_5 C 0.5605(5) 0.6089(5) 0.28370(11)
C15_5 C 0.5654(6) 0.8076(6) 0.32281(12)
H9_5 H 0.4737 0.8008 0.3304
C16_5 C 0.6647(5) 0.8988(6) 0.33202(13)
H10_5 H 0.6533 0.9657 0.3477
C17_5 C 0.7597(6) 0.7737(5) 0.29578(13)
H11_5 H 0.8238 0.7371 0.2815
O1_4 O 0.5991(4) 0.3680(4) 0.86187(9)
O2_4 O 0.6366(4) 0.2734(4) 0.81580(9)
N1_14 N 0.5000 0.5000 0.76435(11)
N2_6 N 0.2741(4) 0.6253(4) 0.70005(9)
C1_7 C 0.6853(6) 0.0101(8) 0.85062(12)
C2_7 C 0.7130(5) 0.1450(5) 0.86106(12)
C3_7 C 0.6473(5) 0.2706(5) 0.84512(12)
C4_6 C 0.3937(5) 0.5578(5) 0.74861(13)
H2_6 H 0.3190 0.5976 0.7596
C5_6 C 0.3911(5) 0.5605(5) 0.71630(11)
C6_14 C 0.5000 0.5000 0.69920(13)
H3_14 H 0.5000 0.5000 0.6775
C7_6 C 0.1924(6) 0.5654(6) 0.67719(12)
H4_6 H 0.1992 0.4737 0.6696
C8_6 C 0.1012(6) 0.6647(5) 0.66798(13)
H5_6 H 0.0343 0.6533 0.6523
C9_6 C 0.2263(5) 0.7597(6) 0.70422(13)
H6_6 H 0.2629 0.8238 0.7185
O3_7 O 0.9009(4) 0.3680(4) 0.88813(9)
O4_7 O 0.8634(4) 0.2734(4) 0.93420(9)
C10_7 C 0.8147(6) 0.0101(8) 0.89938(12)
C11_7 C 0.7870(5) 0.1450(5) 0.88894(12)
C12_7 C 0.8527(5) 0.2706(5) 0.90488(12)
N4_6 N 0.7259(4) 0.3747(4) 0.70005(9)
C13_6 C 0.6063(5) 0.4422(5) 0.74861(13)
H8_6 H 0.6810 0.4024 0.7596
C14_6 C 0.6089(5) 0.4395(5) 0.71630(11)
C15_6 C 0.8076(6) 0.4346(6) 0.67719(12)
H9_6 H 0.8008 0.5263 0.6696
C16_6 C 0.8988(6) 0.3353(5) 0.66798(13)
H10_6 H 0.9657 0.3467 0.6523
C17_6 C 0.7737(5) 0.2403(6) 0.70422(13)
H11_6 H 0.7371 0.1762 0.7185
O5_4 O 0.4009(4) 0.6320(4) 0.86187(9)
O6_4 O 0.3634(4) 0.7266(4) 0.81580(9)
S1_7 S 0.7500 0.8866(2) 0.8750
H1_7 H 0.6368 0.9898 0.8323
H7_7 H 0.8632 0.9898 0.9177
S1_8 S 0.2500 0.1134(2) 0.8750
H1_8 H 0.3632 0.0102 0.8323
H7_8 H 0.1368 0.0102 0.9177
C1_8 C 0.3147(6) 0.9899(8) 0.85062(12)
C2_8 C 0.2870(5) 0.8550(5) 0.86106(12)
C3_8 C 0.3527(5) 0.7294(5) 0.84512(12)
O3_8 O 0.0991(4) 0.6320(4) 0.88813(9)
O4_8 O 0.1366(4) 0.7266(4) 0.93420(9)
C10_8 C 0.1853(6) 0.9899(8) 0.89938(12)
C11_8 C 0.2130(5) 0.8550(5) 0.88894(12)
C12_8 C 0.1473(5) 0.7294(5) 0.90488(12)
N1_15 N 0.0000 0.5000 0.51435(11)
N2_7 N 0.1253(4) 0.2741(4) 0.45005(9)
C4_7 C 0.0578(5) 0.3937(5) 0.49861(13)
H2_7 H 0.0976 0.3190 0.5096
C5_7 C 0.0605(5) 0.3911(5) 0.46630(11)
C6_15 C -0.0000 0.5000 0.44920(13)
H3_15 H 0.0000 0.5000 0.4275
C7_7 C 0.0654(6) 0.1924(6) 0.42719(12)
C8_7 C 0.1647(5) 0.1012(6) 0.41798(13)
H5_7 H 0.1533 0.0343 0.4023
C9_7 C 0.2597(6) 0.2263(5) 0.45422(13)
H6_7 H 0.3238 0.2629 0.4685
H9_7 H 0.0263 0.8008 0.4196
N1_16 N 1.0000 0.5000 0.51435(11)
C6_16 C 1.0000 0.5000 0.44920(13)
H3_16 H 1.0000 0.5000 0.4275
H4_7 H 0.9737 0.1992 0.4196
N4_7 N 0.8747(4) 0.7259(4) 0.45005(9)
C13_7 C 0.9422(5) 0.6063(5) 0.49861(13)
H8_7 H 0.9024 0.6810 0.5096
C14_7 C 0.9395(5) 0.6089(5) 0.46630(11)
C15_7 C 0.9346(6) 0.8076(6) 0.42719(12)
C16_7 C 0.8353(5) 0.8988(6) 0.41798(13)
H10_7 H 0.8467 0.9657 0.4023
C17_7 C 0.7403(6) 0.7737(5) 0.45422(13)
H11_7 H 0.6762 0.7371 0.4685
N2_8 N 0.2259(4) 0.6253(4) 0.04995(9)
C4_8 C 0.1063(5) 0.5578(5) 0.00139(13)
C5_8 C 0.1089(5) 0.5605(5) 0.03370(11)
C6_17 C 0.0000 0.5000 0.05080(13)
H3_17 H 0.0000 0.5000 0.0725
C7_8 C 0.3076(6) 0.5654(6) 0.07281(12)
H4_8 H 0.3008 0.4737 0.0804
C8_8 C 0.3988(6) 0.6647(5) 0.08202(13)
H5_8 H 0.4657 0.6533 0.0977
C9_8 C 0.2737(5) 0.7597(6) 0.04578(13)
H6_8 H 0.2371 0.8238 0.0315
N1_17 N 0.0000 0.5000 0.98565(11)
H2_8 H 0.1810 0.5976 0.9904
C6_18 C 1.0000 0.5000 0.05080(13)
H3_18 H 1.0000 0.5000 0.0725
N4_8 N 0.7741(4) 0.3747(4) 0.04995(9)
C13_8 C 0.8937(5) 0.4422(5) 0.00139(13)
C14_8 C 0.8911(5) 0.4395(5) 0.03370(11)
C15_8 C 0.6924(6) 0.4346(6) 0.07281(12)
H9_8 H 0.6992 0.5263 0.0804
C16_8 C 0.6012(6) 0.3353(5) 0.08202(13)
H10_8 H 0.5343 0.3467 0.0977
C17_8 C 0.7263(5) 0.2403(6) 0.04578(13)
H11_8 H 0.7629 0.1762 0.0315
N1_18 N 1.0000 0.5000 0.98565(11)
H8_8 H 0.8190 0.4024 0.9904
loop_
_geom_bond_atom_site_label_1
_geom_bond_atom_site_label_2
_geom_bond_site_symmetry_1
_geom_bond_site_symmetry_2
Cd1 O1 1_555 1_555
S1 C1 1_555 1_555
O1 C3 1_555 1_555
O2 Cd1 1_555 1_555
N1 Cd1 1_555 1_555
C1 H1 1_555 1_555
C2 C1 1_555 1_555
C3 O2 1_555 1_555
H3 C6 1_555 1_555
O3 C12 1_555 1_555
O4 C12 1_555 1_555
C10 S1 1_555 1_555
H7 C10 1_555 1_555
C11 C2 1_555 1_555
C12 C11 1_555 1_555
N4 C14 1_555 1_555
N5 C16 1_555 1_555
C13 N1 1_555 1_555
H8 C13 1_555 1_555
C14 C6 1_555 1_555
C15 N4 1_555 1_555
C16 C15 1_555 1_555
H10 C16 1_555 1_555
C17 N4 1_555 1_555
H11 C17 1_555 1_555
Cd3 N5 1_555 1_555
Cd4 O3 1_555 1_555
C2 C3 1_555 1_555
O4 Cd4 1_555 1_555
C10 C11 1_555 1_555
N5 C17 1_555 1_555
C13 C14 1_555 1_555
N1_2 Cd1_2 1_555 1_555
H3_2 C6_2 1_555 1_555
N6 Cd1_2 1_555 1_555
N1_3 Cd1_3 1_555 1_555
H3_3 C6_3 1_555 1_555
N7 Cd1_3 1_555 1_555
N1_4 Cd1_4 1_555 1_555
N2 C5 1_555 1_555
N3 C8 1_555 1_555
C4 N1_4 1_555 1_555
H2 C4 1_555 1_555
C5 C4 1_555 1_555
C6_4 C5 1_555 1_555
H3_4 C6_4 1_555 1_555
C7 N2 1_555 1_555
C8 C7 1_555 1_555
H5 C8 1_555 1_555
C9 N2 1_555 1_555
H6 C9 1_555 1_555
Cd3 N3 1_555 1_555
O5 Cd1_4 1_555 1_555
O6 Cd1_4 1_555 1_555
N3 C9 1_555 1_555
S1_2 C1_2 1_555 1_555
O5 C3_2 1_555 1_555
C1_2 H1_2 1_555 1_555
C2_2 C1_2 1_555 1_555
C3_2 O6 1_555 1_555
O3_2 C12_2 1_555 1_555
O4_2 C12_2 1_555 1_555
C10_2 S1_2 1_555 1_555
H7_2 C10_2 1_555 1_555
C11_2 C2_2 1_555 1_555
C12_2 C11_2 1_555 1_555
Cd4_2 O3_2 1_555 1_555
C2_2 C3_2 1_555 1_555
O4_2 Cd4_2 1_555 1_555
C10_2 C11_2 1_555 1_555
N1_5 Cd1_5 1_555 1_555
H3_5 C6_5 1_555 1_555
N7_2 Cd1_5 1_555 1_555
Cd1_6 O1_2 1_555 1_555
S1_3 C1_3 1_555 1_555
O1_2 C3_3 1_555 1_555
O2_2 Cd1_6 1_555 1_555
N1_6 Cd1_6 1_555 1_555
C1_3 H1_3 1_555 1_555
C2_3 C1_3 1_555 1_555
C3_3 O2_2 1_555 1_555
H3_6 C6_6 1_555 1_555
O3_3 C12_3 1_555 1_555
O4_3 C12_3 1_555 1_555
C10_3 S1_3 1_555 1_555
H7_3 C10_3 1_555 1_555
C11_3 C2_3 1_555 1_555
C12_3 C11_3 1_555 1_555
N4_2 C14_2 1_555 1_555
N5_2 C16_2 1_555 1_555
C13_2 N1_6 1_555 1_555
H8_2 C13_2 1_555 1_555
C14_2 C6_6 1_555 1_555
C15_2 N4_2 1_555 1_555
C16_2 C15_2 1_555 1_555
H10_2 C16_2 1_555 1_555
C17_2 N4_2 1_555 1_555
H11_2 C17_2 1_555 1_555
Cd3_2 N5_2 1_555 1_555
Cd4_4 O3_3 1_555 1_555
C2_3 C3_3 1_555 1_555
O4_3 Cd4_4 1_555 1_555
C10_3 C11_3 1_555 1_555
N5_2 C17_2 1_555 1_555
C13_2 C14_2 1_555 1_555
N1_7 Cd1_7 1_555 1_555
N2_2 C5_2 1_555 1_555
N3_2 C8_2 1_555 1_555
C4_2 N1_7 1_555 1_555
H2_2 C4_2 1_555 1_555
C5_2 C4_2 1_555 1_555
C6_7 C5_2 1_555 1_555
H3_7 C6_7 1_555 1_555
C7_2 N2_2 1_555 1_555
C8_2 C7_2 1_555 1_555
H5_2 C8_2 1_555 1_555
C9_2 N2_2 1_555 1_555
H6_2 C9_2 1_555 1_555
Cd3_2 N3_2 1_555 1_555
O5_2 Cd1_7 1_555 1_555
O6_2 Cd1_7 1_555 1_555
N3_2 C9_2 1_555 1_555
N1_8 Cd1_8 1_555 1_555
H3_8 C6_8 1_555 1_555
N6_2 Cd1_8 1_555 1_555
S1_4 C1_4 1_555 1_555
O5_2 C3_4 1_555 1_555
C1_4 H1_4 1_555 1_555
C2_4 C1_4 1_555 1_555
C3_4 O6_2 1_555 1_555
O3_4 C12_4 1_555 1_555
O4_4 C12_4 1_555 1_555
C10_4 S1_4 1_555 1_555
H7_4 C10_4 1_555 1_555
C11_4 C2_4 1_555 1_555
C12_4 C11_4 1_555 1_555
Cd4_3 O3_4 1_555 1_555
C2_4 C3_4 1_555 1_555
O4_4 Cd4_3 1_555 1_555
C10_4 C11_4 1_555 1_555
Cd1_9 O1_3 1_555 1_555
O1_3 C3_5 1_555 1_555
O2_3 Cd1_9 1_555 1_555
N1_9 Cd1_9 1_555 1_555
C2_5 C1_5 1_555 1_555
C3_5 O2_3 1_555 1_555
O3_5 C12_5 1_555 1_555
O4_5 C12_5 1_555 1_555
C11_5 C2_5 1_555 1_555
C12_5 C11_5 1_555 1_555
Cd3_2 O3_5 1_555 1_555
N7_3 Cd1_9 1_555 1_555
C2_5 C3_5 1_555 1_555
O4_5 Cd3_2 1_555 1_555
C10_5 C11_5 1_555 1_555
H3_9 C6_9 1_555 1_555
N4_3 C14_3 1_555 1_555
N5_3 C16_3 1_555 1_555
C14_3 C6_9 1_555 1_555
C15_3 N4_3 1_555 1_555
H9_3 C15_3 1_555 1_555
C16_3 C15_3 1_555 1_555
H10_3 C16_3 1_555 1_555
C17_3 N4_3 1_555 1_555
H11_3 C17_3 1_555 1_555
Cd2 N5_3 1_555 1_555
N5_3 C17_3 1_555 1_555
C13_3 C14_3 1_555 1_555
N1_10 Cd1_10 1_555 1_555
O5_3 Cd1_10 1_555 1_555
O6_3 Cd1_10 1_555 1_555
N6_3 Cd1_10 1_555 1_555
N2_3 C5_3 1_555 1_555
N3_3 C8_3 1_555 1_555
C5_3 C4_3 1_555 1_555
C6_10 C5_3 1_555 1_555
H3_10 C6_10 1_555 1_555
C7_3 N2_3 1_555 1_555
H4_3 C7_3 1_555 1_555
C8_3 C7_3 1_555 1_555
H5_3 C8_3 1_555 1_555
C9_3 N2_3 1_555 1_555
H6_3 C9_3 1_555 1_555
Cd2_2 N3_3 1_555 1_555
N3_3 C9_3 1_555 1_555
O5_3 C3_6 1_555 1_555
C2_6 C1_6 1_555 1_555
C3_6 O6_3 1_555 1_555
O3_6 C12_6 1_555 1_555
O4_6 C12_6 1_555 1_555
C11_6 C2_6 1_555 1_555
C12_6 C11_6 1_555 1_555
Cd3_2 O3_6 1_555 1_555
C2_6 C3_6 1_555 1_555
O4_6 Cd3_2 1_555 1_555
C10_6 C11_6 1_555 1_555
N1_11 Cd4_3 1_555 1_555
N2_4 C5_4 1_555 1_555
N3_4 C8_4 1_555 1_555
C4_4 N1_11 1_555 1_555
H2_4 C4_4 1_555 1_555
C5_4 C4_4 1_555 1_555
C6_11 C5_4 1_555 1_555
H3_11 C6_11 1_555 1_555
C7_4 N2_4 1_555 1_555
C8_4 C7_4 1_555 1_555
H5_4 C8_4 1_555 1_555
C9_4 N2_4 1_555 1_555
H6_4 C9_4 1_555 1_555
Cd4_2 N3_4 1_555 1_555
N7_4 Cd4_3 1_555 1_555
N3_4 C9_4 1_555 1_555
N1_12 Cd4_4 1_555 1_555
H3_12 C6_12 1_555 1_555
N4_4 C14_4 1_555 1_555
N5_4 C16_4 1_555 1_555
C13_4 N1_12 1_555 1_555
H8_4 C13_4 1_555 1_555
C14_4 C6_12 1_555 1_555
C15_4 N4_4 1_555 1_555
C16_4 C15_4 1_555 1_555
H10_4 C16_4 1_555 1_555
C17_4 N4_4 1_555 1_555
H11_4 C17_4 1_555 1_555
Cd4 N5_4 1_555 1_555
N6_4 Cd4_4 1_555 1_555
N5_4 C17_4 1_555 1_555
C13_4 C14_4 1_555 1_555
N1_13 Cd3_2 1_555 1_555
N2_5 C5_5 1_555 1_555
N7_2 C8_5 1_555 1_555
C4_5 N1_13 1_555 1_555
H2_5 C4_5 1_555 1_555
C5_5 C4_5 1_555 1_555
C6_13 C5_5 1_555 1_555
H3_13 C6_13 1_555 1_555
C7_5 N2_5 1_555 1_555
H4_5 C7_5 1_555 1_555
C8_5 C7_5 1_555 1_555
H5_5 C8_5 1_555 1_555
C9_5 N2_5 1_555 1_555
H6_5 C9_5 1_555 1_555
N4_5 C14_5 1_555 1_555
N6_2 C16_5 1_555 1_555
C13_5 N1_13 1_555 1_555
H8_5 C13_5 1_555 1_555
C14_5 C6_13 1_555 1_555
C15_5 N4_5 1_555 1_555
H9_5 C15_5 1_555 1_555
C16_5 C15_5 1_555 1_555
H10_5 C16_5 1_555 1_555
C17_5 N4_5 1_555 1_555
H11_5 C17_5 1_555 1_555
N7_2 C9_5 1_555 1_555
N6_2 C17_5 1_555 1_555
C13_5 C14_5 1_555 1_555
Cd3 O1_4 1_555 1_555
O1_4 C3_7 1_555 1_555
O2_4 Cd3 1_555 1_555
N1_14 Cd3 1_555 1_555
N2_6 C5_6 1_555 1_555
N6 C8_6 1_555 1_555
C2_7 C1_7 1_555 1_555
C3_7 O2_4 1_555 1_555
C4_6 N1_14 1_555 1_555
H2_6 C4_6 1_555 1_555
C5_6 C4_6 1_555 1_555
C6_14 C5_6 1_555 1_555
H3_14 C6_14 1_555 1_555
C7_6 N2_6 1_555 1_555
H4_6 C7_6 1_555 1_555
C8_6 C7_6 1_555 1_555
H5_6 C8_6 1_555 1_555
C9_6 N2_6 1_555 1_555
H6_6 C9_6 1_555 1_555
O3_7 C12_7 1_555 1_555
O4_7 C12_7 1_555 1_555
C11_7 C2_7 1_555 1_555
C12_7 C11_7 1_555 1_555
N4_6 C14_6 1_555 1_555
N7 C16_6 1_555 1_555
C13_6 N1_14 1_555 1_555
H8_6 C13_6 1_555 1_555
C14_6 C6_14 1_555 1_555
C15_6 N4_6 1_555 1_555
H9_6 C15_6 1_555 1_555
C16_6 C15_6 1_555 1_555
H10_6 C16_6 1_555 1_555
C17_6 N4_6 1_555 1_555
H11_6 C17_6 1_555 1_555
Cd2_2 O3_7 1_555 1_555
O5_4 Cd3 1_555 1_555
O6_4 Cd3 1_555 1_555
N6 C9_6 1_555 1_555
C2_7 C3_7 1_555 1_555
O4_7 Cd2_2 1_555 1_555
C10_7 C11_7 1_555 1_555
N7 C17_6 1_555 1_555
C13_6 C14_6 1_555 1_555
O5_4 C3_8 1_555 1_555
C2_8 C1_8 1_555 1_555
C3_8 O6_4 1_555 1_555
O3_8 C12_8 1_555 1_555
O4_8 C12_8 1_555 1_555
C11_8 C2_8 1_555 1_555
C12_8 C11_8 1_555 1_555
Cd2 O3_8 1_555 1_555
C2_8 C3_8 1_555 1_555
O4_8 Cd2 1_555 1_555
C10_8 C11_8 1_555 1_555
N1_15 Cd4 1_555 1_555
N2_7 C5_7 1_555 1_555
N7_4 C8_7 1_555 1_555
C4_7 N1_15 1_555 1_555
H2_7 C4_7 1_555 1_555
C5_7 C4_7 1_555 1_555
C6_15 C5_7 1_555 1_555
H3_15 C6_15 1_555 1_555
C7_7 N2_7 1_555 1_555
C8_7 C7_7 1_555 1_555
H5_7 C8_7 1_555 1_555
C9_7 N2_7 1_555 1_555
H6_7 C9_7 1_555 1_555
N7_4 C9_7 1_555 1_555
N1_16 Cd4_2 1_555 1_555
H3_16 C6_16 1_555 1_555
N4_7 C14_7 1_555 1_555
N6_4 C16_7 1_555 1_555
C13_7 N1_16 1_555 1_555
H8_7 C13_7 1_555 1_555
C14_7 C6_16 1_555 1_555
C15_7 N4_7 1_555 1_555
C16_7 C15_7 1_555 1_555
H10_7 C16_7 1_555 1_555
C17_7 N4_7 1_555 1_555
H11_7 C17_7 1_555 1_555
N6_4 C17_7 1_555 1_555
C13_7 C14_7 1_555 1_555
N2_8 C5_8 1_555 1_555
N6_3 C8_8 1_555 1_555
C5_8 C4_8 1_555 1_555
C6_17 C5_8 1_555 1_555
H3_17 C6_17 1_555 1_555
C7_8 N2_8 1_555 1_555
H4_8 C7_8 1_555 1_555
C8_8 C7_8 1_555 1_555
H5_8 C8_8 1_555 1_555
C9_8 N2_8 1_555 1_555
H6_8 C9_8 1_555 1_555
N6_3 C9_8 1_555 1_555
N1_17 Cd2 1_555 1_555
H3_18 C6_18 1_555 1_555
N4_8 C14_8 1_555 1_555
N7_3 C16_8 1_555 1_555
C14_8 C6_18 1_555 1_555
C15_8 N4_8 1_555 1_555
H9_8 C15_8 1_555 1_555
C16_8 C15_8 1_555 1_555
H10_8 C16_8 1_555 1_555
C17_8 N4_8 1_555 1_555
H11_8 C17_8 1_555 1_555
N7_3 C17_8 1_555 1_555
C13_8 C14_8 1_555 1_555
N1_18 Cd2_2 1_555 1_555

#END
