
###############################################################################
#
# This file contains modified crystal structure data generated from the
# MOF subset of the Cambridge Structural Database (CSD) v543 
# hosted by the Cambridge Crystallographic Data Centre (CCDC).
#
# This work is licensed under the Creative Commons
# Attribution-NonCommercial-ShareAlike 4.0 International License.
# To view a copy of this license, visit
# http://creativecommons.org/licenses/by-nc-sa/4.0/
# or send a letter to
# Creative Commons, PO Box 1866, Mountain View, CA 94042, USA.
#
# CIF created using the CSD Python API on 29 September 2022
# The structure has been converted into the P1 space group
# The structure has a 3D framework
# The original CSD entry YIVNIC is in the monoclinic crystal system
# The framework has been calculated to contain at least 10.0% void space
# The void calculation uses a probe of radius 1.32A, grid spacing 0.4
#
###############################################################################

data_YIVNIC
_chemical_formula_moiety         '(C120 H112 Cu19 N24 O56 V16)n'
_symmetry_cell_setting           triclinic
_symmetry_space_group_name_H-M   'P 1'
_symmetry_Int_Tables_number      1
_space_group_name_Hall           'P 1'
loop_
_symmetry_equiv_pos_site_id
_symmetry_equiv_pos_as_xyz
1 x,y,z
_cell_length_a                   30.448(4)
_cell_length_b                   11.3273(14)
_cell_length_c                   11.5744(14)
_cell_angle_alpha                90
_cell_angle_beta                 106.572(3)
_cell_angle_gamma                90
_cell_volume                     3826.12
loop_
_atom_site_label
_atom_site_type_symbol
_atom_site_fract_x
_atom_site_fract_y
_atom_site_fract_z
Cu2 Cu 0.0000 -0.0000 0.5000
V2 V 0.10759(2) 0.08940(6) 0.68172(6)
O3 O 0.13279(11) 0.0178(3) 0.8238(3)
O4 O 0.11896(12) 0.2290(3) 0.6980(3)
O5 O 0.13350(10) 0.0313(3) 0.5721(2)
O6 O 0.05091(10) 0.0721(3) 0.6370(3)
O7 O 0.02697(12) 0.0809(4) 0.3688(3)
H1 H 0.031(2) 0.152(2) 0.381(5)
H2 H 0.0197(19) 0.078(5) 0.2967(18)
V6 V 0.14481(2) 0.09098(6) 0.43969(6)
Cu1 Cu 0.2500 0.7500 0.0000
O15 O 0.29970(9) 0.6261(2) 0.0269(2)
O17 O 0.13350(10) 0.9687(3) 0.0721(2)
N7 N 0.26101(11) 0.7689(3) 0.2005(3)
N9 N 0.20038(11) 0.6119(3) 0.0022(3)
Cu1_2 Cu 0.2500 0.7500 1.0000
Cu2_2 Cu 0.0000 1.0000 0.5000
V1 V 0.14481(2) 0.90902(6) 0.93969(6)
O1 O 0.20030(9) 0.8739(2) 0.9731(2)
O2 O 0.11296(12) 0.7938(3) 0.8960(3)
N1 N 0.23899(11) 0.7311(3) 0.7995(3)
N2 N 0.04255(12) 0.8491(3) 0.5067(3)
N3 N 0.20038(11) 0.3881(3) 0.5022(3)
C1 C 0.26297(14) 0.6520(4) 0.7561(3)
H3 H 0.2779 0.5903 0.8082
C2 C 0.21786(14) 0.8150(4) 0.7222(4)
H4 H 0.1998 0.8712 0.7491
C3 C 0.26752(13) 0.6542(4) 0.6400(3)
H5 H 0.2845 0.5944 0.6142
C4 C 0.22084(15) 0.8248(4) 0.6049(4)
H6 H 0.2049 0.8863 0.5542
C5 C 0.24693(14) 0.7452(4) 0.5615(3)
C6 C 0.06699(15) 0.7988(4) 0.6094(4)
H7 H 0.0632 0.8278 0.6830
C7 C 0.04826(18) 0.8044(5) 0.4046(4)
H8 H 0.0310 0.8378 0.3302
C8 C 0.09743(14) 0.7068(4) 0.6148(4)
H9 H 0.1141 0.6746 0.6904
C9 C 0.07728(18) 0.7141(5) 0.4010(4)
H10 H 0.0798 0.6864 0.3257
C10 C 0.10345(14) 0.6620(4) 0.5086(4)
C11 C 0.13633(14) 0.5672(4) 0.5064(3)
C12 C 0.14452(15) 0.4745(4) 0.5888(4)
H11 H 0.1288 0.4709 0.6487
C13 C 0.16071(15) 0.5657(4) 0.4201(4)
H12 H 0.1557 0.6256 0.3604
C14 C 0.17569(15) 0.3879(4) 0.5829(4)
H13 H 0.1801 0.3244 0.6387
C15 C 0.19187(14) 0.4771(4) 0.4224(3)
H14 H 0.2083 0.4790 0.3640
C16 C 0.23703(14) 0.8480(4) 0.2439(3)
H15 H 0.2221 0.9097 0.1918
C17 C 0.28214(14) 0.6850(4) 0.2778(4)
H16 H 0.3002 0.6288 0.2509
C18 C 0.23248(13) 0.8458(4) 0.3600(3)
H17 H 0.2155 0.9056 0.3858
C19 C 0.27916(15) 0.6752(4) 0.3951(4)
H18 H 0.2951 0.6137 0.4458
C20 C 0.25307(14) 0.7548(4) 0.4385(3)
Cu6 Cu 0.2500 0.2500 0.5000
N8 N 0.29962(11) 0.8881(3) 0.9978(3)
Cu2_3 Cu 1.0000 -0.0000 0.5000
V3 V 0.85519(2) 0.09098(6) 0.06031(6)
O8 O 0.79970(9) 0.1261(2) 0.0269(2)
O9 O 0.88704(12) 0.2062(3) 0.1040(3)
N5 N 0.95745(12) 0.1509(3) 0.4933(3)
N6 N 0.79962(11) 0.6119(3) 0.4978(3)
C21 C 0.93301(15) 0.2012(4) 0.3906(4)
H21 H 0.9368 0.1722 0.3170
C22 C 0.95174(18) 0.1956(5) 0.5954(4)
H22 H 0.9690 0.1622 0.6698
C23 C 0.90257(14) 0.2932(4) 0.3852(4)
H23 H 0.8859 0.3254 0.3096
C24 C 0.92272(18) 0.2859(5) 0.5990(4)
H24 H 0.9202 0.3136 0.6743
C25 C 0.89655(14) 0.3380(4) 0.4914(4)
C26 C 0.86367(14) 0.4328(4) 0.4936(3)
C27 C 0.85548(15) 0.5255(4) 0.4112(4)
H25 H 0.8712 0.5291 0.3513
C28 C 0.83929(15) 0.4343(4) 0.5799(4)
H26 H 0.8443 0.3744 0.6396
C29 C 0.82431(15) 0.6121(4) 0.4171(4)
H27 H 0.8199 0.6756 0.3613
C30 C 0.80813(14) 0.5229(4) 0.5776(3)
H28 H 0.7917 0.5210 0.6360
Cu4 Cu 0.7500 0.7500 0.5000
Cu5 Cu 0.7500 0.2500 0.0000
Cu5_2 Cu 0.7500 0.2500 1.0000
O16 O 0.86650(10) 0.0313(3) 0.9279(2)
Cu2_4 Cu 1.0000 1.0000 0.5000
V4 V 0.89241(2) 0.91060(6) 0.31828(6)
O10 O 0.86721(11) 0.9822(3) 0.1762(3)
O11 O 0.88104(12) 0.7710(3) 0.3020(3)
O12 O 0.86650(10) 0.9687(3) 0.4279(2)
O13 O 0.94909(10) 0.9279(3) 0.3630(3)
O14 O 0.97303(12) 0.9191(4) 0.6312(3)
H19 H 0.969(2) 0.848(2) 0.619(5)
H20 H 0.9803(19) 0.922(5) 0.7033(18)
V5 V 0.85519(2) 0.90902(6) 0.56031(6)
Cu2_5 Cu -0.0000 0.0000 0.0000
O8_2 O 0.20030(9) 0.1261(2) 0.4731(2)
O9_2 O 0.11296(12) 0.2062(3) 0.3960(3)
N5_2 N 0.04255(12) 0.1509(3) 0.0067(3)
C21_2 C 0.06699(15) 0.2012(4) 0.1094(4)
H21_2 H 0.0632 0.1722 0.1830
C23_2 C 0.09743(14) 0.2932(4) 0.1148(4)
H23_2 H 0.1141 0.3254 0.1904
C25_2 C 0.10345(14) 0.3380(4) 0.0086(4)
C26_2 C 0.13633(14) 0.4328(4) 0.0064(3)
C27_2 C 0.14452(15) 0.5255(4) 0.0888(4)
H25_2 H 0.1288 0.5291 0.1487
C29_2 C 0.17569(15) 0.6121(4) 0.0829(4)
H27_2 H 0.1801 0.6756 0.1387
Cu2_6 Cu 0.0000 -0.0000 1.0000
C22_2 C 0.04826(18) 0.1956(5) 0.9046(4)
H22_2 H 0.0310 0.1622 0.8302
C24_2 C 0.07728(18) 0.2859(5) 0.9010(4)
H24_2 H 0.0798 0.3136 0.8257
C28_2 C 0.16071(15) 0.4343(4) 0.9201(4)
H26_2 H 0.1557 0.3744 0.8604
C30_2 C 0.19187(14) 0.5229(4) 0.9224(3)
H28_2 H 0.2083 0.5210 0.8640
Cu2_7 Cu -0.0000 1.0000 0.0000
V4_2 V 0.10759(2) 0.91060(6) 0.18172(6)
O10_2 O 0.13279(11) 0.9822(3) 0.3238(3)
O11_2 O 0.11896(12) 0.7710(3) 0.1980(3)
O13_2 O 0.05091(10) 0.9279(3) 0.1370(3)
Cu2_8 Cu 0.0000 1.0000 1.0000
O14_2 O 0.02697(12) 0.9191(4) 0.8688(3)
H19_2 H 0.031(2) 0.848(2) 0.881(5)
H20_2 H 0.0197(19) 0.922(5) 0.7967(18)
Cu2_9 Cu 1.0000 0.0000 0.0000
O7_2 O 0.97303(12) 0.0809(4) 0.1312(3)
H1_2 H 0.969(2) 0.152(2) 0.119(5)
H2_2 H 0.9803(19) 0.078(5) 0.2033(18)
Cu2_10 Cu 1.0000 -0.0000 1.0000
V2_2 V 0.89241(2) 0.08940(6) 0.81828(6)
O3_2 O 0.86721(11) 0.0178(3) 0.6762(3)
O4_2 O 0.88104(12) 0.2290(3) 0.8020(3)
O6_2 O 0.94909(10) 0.0721(3) 0.8630(3)
Cu2_11 Cu 1.0000 1.0000 0.0000
C7_2 C 0.95174(18) 0.8044(5) 0.0954(4)
H8_2 H 0.9690 0.8378 0.1698
C9_2 C 0.92272(18) 0.7141(5) 0.0990(4)
H10_2 H 0.9202 0.6864 0.1743
C13_2 C 0.83929(15) 0.5657(4) 0.0799(4)
H12_2 H 0.8443 0.6256 0.1396
C15_2 C 0.80813(14) 0.4771(4) 0.0776(3)
H14_2 H 0.7917 0.4790 0.1360
N4 N 0.73899(11) 0.7689(3) 0.2995(3)
C16_2 C 0.76297(14) 0.8480(4) 0.2561(3)
H15_2 H 0.7779 0.9097 0.3082
C17_2 C 0.71786(14) 0.6850(4) 0.2222(4)
H16_2 H 0.6998 0.6288 0.2491
C18_2 C 0.76752(13) 0.8458(4) 0.1400(3)
H17_2 H 0.7845 0.9056 0.1142
C19_2 C 0.72084(15) 0.6752(4) 0.1049(4)
H18_2 H 0.7049 0.6137 0.0542
C20_2 C 0.74693(14) 0.7548(4) 0.0615(3)
Cu2_12 Cu 1.0000 1.0000 1.0000
O1_2 O 0.79970(9) 0.8739(2) 0.5269(2)
O2_2 O 0.88704(12) 0.7938(3) 0.6040(3)
N1_2 N 0.76101(11) 0.7311(3) 0.7005(3)
N2_2 N 0.95745(12) 0.8491(3) 0.9933(3)
N3_2 N 0.79962(11) 0.3881(3) 0.9978(3)
C1_2 C 0.73703(14) 0.6520(4) 0.7439(3)
H3_2 H 0.7221 0.5903 0.6918
C2_2 C 0.78214(14) 0.8150(4) 0.7778(4)
H4_2 H 0.8002 0.8712 0.7509
C3_2 C 0.73248(13) 0.6542(4) 0.8600(3)
H5_2 H 0.7155 0.5944 0.8858
C4_2 C 0.77916(15) 0.8248(4) 0.8951(4)
H6_2 H 0.7951 0.8863 0.9458
C5_2 C 0.75307(14) 0.7452(4) 0.9385(3)
C6_2 C 0.93301(15) 0.7988(4) 0.8906(4)
H7_2 H 0.9368 0.8278 0.8170
C8_2 C 0.90257(14) 0.7068(4) 0.8852(4)
H9_2 H 0.8859 0.6746 0.8096
C10_2 C 0.89655(14) 0.6620(4) 0.9914(4)
C11_2 C 0.86367(14) 0.5672(4) 0.9936(3)
C12_2 C 0.85548(15) 0.4745(4) 0.9112(4)
H11_2 H 0.8712 0.4709 0.8513
C14_2 C 0.82431(15) 0.3879(4) 0.9171(4)
H13_2 H 0.8199 0.3244 0.8613
O15_2 O 0.70030(9) 0.6261(2) 0.4731(2)
N8_2 N 0.70038(11) 0.8881(3) 0.5022(3)
N6_2 N 0.29962(11) 0.1119(3) 0.4978(3)
C27_3 C 0.35548(15) 0.0255(4) 0.4112(4)
H25_3 H 0.3712 0.0291 0.3513
C29_3 C 0.32431(15) 0.1121(4) 0.4171(4)
H27_3 H 0.3199 0.1756 0.3613
C30_3 C 0.30813(14) 0.0229(4) 0.5776(3)
H28_3 H 0.2917 0.0210 0.6360
O17_2 O 0.63350(10) 0.4687(3) 0.0721(2)
N7_2 N 0.76101(11) 0.2689(3) 0.2005(3)
N9_2 N 0.70038(11) 0.1119(3) 0.0022(3)
Cu2_13 Cu 0.5000 0.5000 0.5000
V1_2 V 0.64481(2) 0.40902(6) 0.93969(6)
V2_3 V 0.60759(2) 0.58940(6) 0.68172(6)
O1_3 O 0.70030(9) 0.3739(2) 0.9731(2)
O2_3 O 0.61296(12) 0.2938(3) 0.8960(3)
O3_3 O 0.63279(11) 0.5178(3) 0.8238(3)
O4_3 O 0.61896(12) 0.7290(3) 0.6980(3)
O5_2 O 0.63350(10) 0.5313(3) 0.5721(2)
O6_3 O 0.55091(10) 0.5721(3) 0.6370(3)
O7_3 O 0.52697(12) 0.5809(4) 0.3688(3)
H1_3 H 0.531(2) 0.652(2) 0.381(5)
H2_3 H 0.5197(19) 0.578(5) 0.2967(18)
N1_3 N 0.73899(11) 0.2311(3) 0.7995(3)
N2_3 N 0.54255(12) 0.3491(3) 0.5067(3)
C1_3 C 0.76297(14) 0.1520(4) 0.7561(3)
H3_3 H 0.7779 0.0903 0.8082
C2_3 C 0.71786(14) 0.3150(4) 0.7222(4)
H4_3 H 0.6998 0.3712 0.7491
C3_3 C 0.76752(13) 0.1542(4) 0.6400(3)
H5_3 H 0.7845 0.0944 0.6142
C4_3 C 0.72084(15) 0.3248(4) 0.6049(4)
H6_3 H 0.7049 0.3863 0.5542
C5_3 C 0.74693(14) 0.2452(4) 0.5615(3)
C6_3 C 0.56699(15) 0.2988(4) 0.6094(4)
H7_3 H 0.5632 0.3278 0.6830
C7_3 C 0.54826(18) 0.3044(5) 0.4046(4)
H8_3 H 0.5310 0.3378 0.3302
C8_3 C 0.59743(14) 0.2068(4) 0.6148(4)
H9_3 H 0.6141 0.1746 0.6904
C9_3 C 0.57728(18) 0.2141(5) 0.4010(4)
H10_3 H 0.5798 0.1864 0.3257
C10_3 C 0.60345(14) 0.1620(4) 0.5086(4)
C11_3 C 0.63633(14) 0.0672(4) 0.5064(3)
C13_3 C 0.66071(15) 0.0657(4) 0.4201(4)
H12_3 H 0.6557 0.1256 0.3604
C16_3 C 0.73703(14) 0.3480(4) 0.2439(3)
H15_3 H 0.7221 0.4097 0.1918
C17_3 C 0.78214(14) 0.1850(4) 0.2778(4)
H16_3 H 0.8002 0.1288 0.2509
C18_3 C 0.73248(13) 0.3458(4) 0.3600(3)
H17_3 H 0.7155 0.4056 0.3858
C19_3 C 0.77916(15) 0.1752(4) 0.3951(4)
H18_3 H 0.7951 0.1137 0.4458
C20_3 C 0.75307(14) 0.2548(4) 0.4385(3)
V3_2 V 0.35519(2) 0.59098(6) 0.06031(6)
V4_3 V 0.39241(2) 0.41060(6) 0.31828(6)
O9_3 O 0.38704(12) 0.7062(3) 0.1040(3)
O10_3 O 0.36721(11) 0.4822(3) 0.1762(3)
O11_3 O 0.38104(12) 0.2710(3) 0.3020(3)
O12_2 O 0.36650(10) 0.4687(3) 0.4279(2)
O13_3 O 0.44909(10) 0.4279(3) 0.3630(3)
O14_3 O 0.47303(12) 0.4191(4) 0.6312(3)
H19_3 H 0.469(2) 0.348(2) 0.619(5)
H20_3 H 0.4803(19) 0.422(5) 0.7033(18)
N5_3 N 0.45745(12) 0.6509(3) 0.4933(3)
C21_3 C 0.43301(15) 0.7012(4) 0.3906(4)
H21_3 H 0.4368 0.6722 0.3170
C22_3 C 0.45174(18) 0.6956(5) 0.5954(4)
H22_3 H 0.4690 0.6622 0.6698
C23_3 C 0.40257(14) 0.7932(4) 0.3852(4)
H23_3 H 0.3859 0.8254 0.3096
C24_3 C 0.42272(18) 0.7859(5) 0.5990(4)
H24_3 H 0.4202 0.8136 0.6743
C25_3 C 0.39655(14) 0.8380(4) 0.4914(4)
C26_3 C 0.36367(14) 0.9328(4) 0.4936(3)
C28_3 C 0.33929(15) 0.9343(4) 0.5799(4)
H26_3 H 0.3443 0.8744 0.6396
V5_2 V 0.35519(2) 0.40902(6) 0.56031(6)
V6_2 V 0.64481(2) 0.59098(6) 0.43969(6)
O16_2 O 0.36650(10) 0.5313(3) 0.9279(2)
C12_3 C 0.64452(15) 0.9745(4) 0.5888(4)
H11_3 H 0.6288 0.9709 0.6487
C14_3 C 0.67569(15) 0.8879(4) 0.5829(4)
H13_3 H 0.6801 0.8244 0.6387
C15_3 C 0.69187(14) 0.9771(4) 0.4224(3)
H14_3 H 0.7083 0.9790 0.3640
C27_4 C 0.64452(15) 0.0255(4) 0.0888(4)
H25_4 H 0.6288 0.0291 0.1487
C29_4 C 0.67569(15) 0.1121(4) 0.0829(4)
H27_4 H 0.6801 0.1756 0.1387
C30_4 C 0.69187(14) 0.0229(4) 0.9224(3)
H28_4 H 0.7083 0.0210 0.8640
Cu2_14 Cu 0.5000 0.5000 0.0000
O7_4 O 0.47303(12) 0.5809(4) 0.1312(3)
H1_4 H 0.469(2) 0.652(2) 0.119(5)
H2_4 H 0.4803(19) 0.578(5) 0.2033(18)
C7_4 C 0.45174(18) 0.3044(5) 0.0954(4)
H8_4 H 0.4690 0.3378 0.1698
C9_4 C 0.42272(18) 0.2141(5) 0.0990(4)
H10_4 H 0.4202 0.1864 0.1743
C13_4 C 0.33929(15) 0.0657(4) 0.0799(4)
H12_4 H 0.3443 0.1256 0.1396
N4_2 N 0.23899(11) 0.2689(3) 0.2995(3)
C16_4 C 0.26297(14) 0.3480(4) 0.2561(3)
H15_4 H 0.2779 0.4097 0.3082
C17_4 C 0.21786(14) 0.1850(4) 0.2222(4)
H16_4 H 0.1998 0.1288 0.2491
C18_4 C 0.26752(13) 0.3458(4) 0.1400(3)
H17_4 H 0.2845 0.4056 0.1142
C19_4 C 0.22084(15) 0.1752(4) 0.1049(4)
H18_4 H 0.2049 0.1137 0.0542
C20_4 C 0.24693(14) 0.2548(4) 0.0615(3)
V4_4 V 0.60759(2) 0.41060(6) 0.18172(6)
O9_4 O 0.61296(12) 0.7062(3) 0.3960(3)
O10_4 O 0.63279(11) 0.4822(3) 0.3238(3)
O11_4 O 0.61896(12) 0.2710(3) 0.1980(3)
O13_4 O 0.55091(10) 0.4279(3) 0.1370(3)
N5_4 N 0.54255(12) 0.6509(3) 0.0067(3)
C21_4 C 0.56699(15) 0.7012(4) 0.1094(4)
H21_4 H 0.5632 0.6722 0.1830
C23_4 C 0.59743(14) 0.7932(4) 0.1148(4)
H23_4 H 0.6141 0.8254 0.1904
C25_4 C 0.60345(14) 0.8380(4) 0.0086(4)
C26_4 C 0.63633(14) 0.9328(4) 0.0064(3)
Cu2_15 Cu 0.5000 0.5000 1.0000
V2_4 V 0.39241(2) 0.58940(6) 0.81828(6)
O1_4 O 0.29970(9) 0.3739(2) 0.5269(2)
O2_4 O 0.38704(12) 0.2938(3) 0.6040(3)
O3_4 O 0.36721(11) 0.5178(3) 0.6762(3)
O4_4 O 0.38104(12) 0.7290(3) 0.8020(3)
O6_4 O 0.44909(10) 0.5721(3) 0.8630(3)
N1_4 N 0.26101(11) 0.2311(3) 0.7005(3)
N2_4 N 0.45745(12) 0.3491(3) 0.9933(3)
C1_4 C 0.23703(14) 0.1520(4) 0.7439(3)
H3_4 H 0.2221 0.0903 0.6918
C2_4 C 0.28214(14) 0.3150(4) 0.7778(4)
H4_4 H 0.3002 0.3712 0.7509
C3_4 C 0.23248(13) 0.1542(4) 0.8600(3)
H5_4 H 0.2155 0.0944 0.8858
C4_4 C 0.27916(15) 0.3248(4) 0.8951(4)
H6_4 H 0.2951 0.3863 0.9458
C5_4 C 0.25307(14) 0.2452(4) 0.9385(3)
C6_4 C 0.43301(15) 0.2988(4) 0.8906(4)
H7_4 H 0.4368 0.3278 0.8170
C8_4 C 0.40257(14) 0.2068(4) 0.8852(4)
H9_4 H 0.3859 0.1746 0.8096
C10_4 C 0.39655(14) 0.1620(4) 0.9914(4)
C11_4 C 0.36367(14) 0.0672(4) 0.9936(3)
O14_4 O 0.52697(12) 0.4191(4) 0.8688(3)
H19_4 H 0.531(2) 0.348(2) 0.881(5)
H20_4 H 0.5197(19) 0.422(5) 0.7967(18)
C22_4 C 0.54826(18) 0.6956(5) 0.9046(4)
H22_4 H 0.5310 0.6622 0.8302
C24_4 C 0.57728(18) 0.7859(5) 0.9010(4)
H24_4 H 0.5798 0.8136 0.8257
C28_4 C 0.66071(15) 0.9343(4) 0.9201(4)
H26_4 H 0.6557 0.8744 0.8604
C15_4 C 0.30813(14) 0.9771(4) 0.0776(3)
H14_4 H 0.2917 0.9790 0.1360
C12_4 C 0.35548(15) 0.9745(4) 0.9112(4)
H11_4 H 0.3712 0.9709 0.8513
C14_4 C 0.32431(15) 0.8879(4) 0.9171(4)
H13_4 H 0.3199 0.8244 0.8613
loop_
_geom_bond_atom_site_label_1
_geom_bond_atom_site_label_2
_geom_bond_site_symmetry_1
_geom_bond_site_symmetry_2
Cu2 O6 1_555 1_555
V2 O3 1_555 1_555
O4 V2 1_555 1_555
O5 V2 1_555 1_555
O6 V2 1_555 1_555
O7 Cu2 1_555 1_555
H1 O7 1_555 1_555
H2 O7 1_555 1_555
V6 O5 1_555 1_555
O15 Cu1 1_555 1_555
N7 Cu1 1_555 1_555
N9 Cu1 1_555 1_555
Cu1_2 O1 1_555 1_555
V1 O1 1_555 1_555
O2 V1 1_555 1_555
N1 Cu1_2 1_555 1_555
N2 Cu2_2 1_555 1_555
N3 C14 1_555 1_555
C1 N1 1_555 1_555
H3 C1 1_555 1_555
C2 N1 1_555 1_555
H4 C2 1_555 1_555
C3 C1 1_555 1_555
H5 C3 1_555 1_555
C4 C2 1_555 1_555
H6 C4 1_555 1_555
C5 C3 1_555 1_555
C6 N2 1_555 1_555
H7 C6 1_555 1_555
C7 N2 1_555 1_555
H8 C7 1_555 1_555
C8 C6 1_555 1_555
H9 C8 1_555 1_555
C9 C7 1_555 1_555
H10 C9 1_555 1_555
C10 C8 1_555 1_555
C11 C10 1_555 1_555
C12 C11 1_555 1_555
H11 C12 1_555 1_555
C13 C11 1_555 1_555
H12 C13 1_555 1_555
C14 C12 1_555 1_555
H13 C14 1_555 1_555
C15 N3 1_555 1_555
H14 C15 1_555 1_555
N7 C16 1_555 1_555
C16 H15 1_555 1_555
C17 N7 1_555 1_555
H16 C17 1_555 1_555
C18 C16 1_555 1_555
H17 C18 1_555 1_555
C19 C17 1_555 1_555
H18 C19 1_555 1_555
C20 C5 1_555 1_555
Cu6 N3 1_555 1_555
N8 Cu1_2 1_555 1_555
C4 C5 1_555 1_555
C9 C10 1_555 1_555
C13 C15 1_555 1_555
C18 C20 1_555 1_555
C19 C20 1_555 1_555
V3 O8 1_555 1_555
O8 Cu5 1_555 1_555
O9 V3 1_555 1_555
N5 Cu2_3 1_555 1_555
N6 C29 1_555 1_555
C21 N5 1_555 1_555
H21 C21 1_555 1_555
C22 N5 1_555 1_555
H22 C22 1_555 1_555
C23 C21 1_555 1_555
H23 C23 1_555 1_555
C24 C22 1_555 1_555
H24 C24 1_555 1_555
C25 C23 1_555 1_555
C26 C25 1_555 1_555
C27 C26 1_555 1_555
H25 C27 1_555 1_555
C28 C26 1_555 1_555
H26 C28 1_555 1_555
C29 C27 1_555 1_555
H27 C29 1_555 1_555
C30 N6 1_555 1_555
H28 C30 1_555 1_555
Cu4 N6 1_555 1_555
C24 C25 1_555 1_555
C28 C30 1_555 1_555
V4 O10 1_555 1_555
O11 V4 1_555 1_555
O12 V4 1_555 1_555
O13 Cu2_4 1_555 1_555
O14 Cu2_4 1_555 1_555
H19 O14 1_555 1_555
H20 O14 1_555 1_555
V5 O12 1_555 1_555
V4 O13 1_555 1_555
V6 O8_2 1_555 1_555
O8_2 Cu6 1_555 1_555
O9_2 V6 1_555 1_555
N5_2 Cu2_5 1_555 1_555
N9 C29_2 1_555 1_555
C21_2 N5_2 1_555 1_555
H21_2 C21_2 1_555 1_555
C23_2 C21_2 1_555 1_555
H23_2 C23_2 1_555 1_555
C25_2 C23_2 1_555 1_555
C26_2 C25_2 1_555 1_555
C27_2 C26_2 1_555 1_555
H25_2 C27_2 1_555 1_555
C29_2 C27_2 1_555 1_555
H27_2 C29_2 1_555 1_555
H22_2 C22_2 1_555 1_555
C24_2 C22_2 1_555 1_555
H24_2 C24_2 1_555 1_555
H26_2 C28_2 1_555 1_555
H28_2 C30_2 1_555 1_555
C28_2 C30_2 1_555 1_555
V4_2 O10_2 1_555 1_555
O11_2 V4_2 1_555 1_555
O17 V4_2 1_555 1_555
O13_2 Cu2_7 1_555 1_555
V4_2 O13_2 1_555 1_555
O14_2 Cu2_8 1_555 1_555
H19_2 O14_2 1_555 1_555
H20_2 O14_2 1_555 1_555
O7_2 Cu2_9 1_555 1_555
H1_2 O7_2 1_555 1_555
H2_2 O7_2 1_555 1_555
Cu2_10 O6_2 1_555 1_555
V2_2 O3_2 1_555 1_555
O4_2 V2_2 1_555 1_555
O16 V2_2 1_555 1_555
O6_2 V2_2 1_555 1_555
H8_2 C7_2 1_555 1_555
C9_2 C7_2 1_555 1_555
H10_2 C9_2 1_555 1_555
H12_2 C13_2 1_555 1_555
H14_2 C15_2 1_555 1_555
N4 C16_2 1_555 1_555
C16_2 H15_2 1_555 1_555
C17_2 N4 1_555 1_555
H16_2 C17_2 1_555 1_555
C18_2 C16_2 1_555 1_555
H17_2 C18_2 1_555 1_555
C19_2 C17_2 1_555 1_555
H18_2 C19_2 1_555 1_555
Cu4 N4 1_555 1_555
C13_2 C15_2 1_555 1_555
C18_2 C20_2 1_555 1_555
C19_2 C20_2 1_555 1_555
Cu4 O1_2 1_555 1_555
V5 O1_2 1_555 1_555
O2_2 V5 1_555 1_555
N1_2 Cu4 1_555 1_555
N2_2 Cu2_12 1_555 1_555
N3_2 C14_2 1_555 1_555
C1_2 N1_2 1_555 1_555
H3_2 C1_2 1_555 1_555
C2_2 N1_2 1_555 1_555
H4_2 C2_2 1_555 1_555
C3_2 C1_2 1_555 1_555
H5_2 C3_2 1_555 1_555
C4_2 C2_2 1_555 1_555
H6_2 C4_2 1_555 1_555
C5_2 C3_2 1_555 1_555
C6_2 N2_2 1_555 1_555
H7_2 C6_2 1_555 1_555
C8_2 C6_2 1_555 1_555
H9_2 C8_2 1_555 1_555
C10_2 C8_2 1_555 1_555
C11_2 C10_2 1_555 1_555
C12_2 C11_2 1_555 1_555
H11_2 C12_2 1_555 1_555
C14_2 C12_2 1_555 1_555
H13_2 C14_2 1_555 1_555
Cu5_2 N3_2 1_555 1_555
O15_2 Cu4 1_555 1_555
N8_2 Cu4 1_555 1_555
C4_2 C5_2 1_555 1_555
N6_2 C29_3 1_555 1_555
H25_3 C27_3 1_555 1_555
C29_3 C27_3 1_555 1_555
H27_3 C29_3 1_555 1_555
C30_3 N6_2 1_555 1_555
H28_3 C30_3 1_555 1_555
Cu6 N6_2 1_555 1_555
N7_2 Cu5 1_555 1_555
N9_2 Cu5 1_555 1_555
Cu5_2 O1_3 1_555 1_555
Cu2_13 O6_3 1_555 1_555
V1_2 O1_3 1_555 1_555
V2_3 O3_3 1_555 1_555
O2_3 V1_2 1_555 1_555
O3_3 V1_2 1_555 1_555
O4_3 V2_3 1_555 1_555
O5_2 V2_3 1_555 1_555
O6_3 V2_3 1_555 1_555
O7_3 Cu2_13 1_555 1_555
H1_3 O7_3 1_555 1_555
H2_3 O7_3 1_555 1_555
N1_3 Cu5_2 1_555 1_555
N2_3 Cu2_13 1_555 1_555
C1_3 N1_3 1_555 1_555
H3_3 C1_3 1_555 1_555
C2_3 N1_3 1_555 1_555
H4_3 C2_3 1_555 1_555
C3_3 C1_3 1_555 1_555
H5_3 C3_3 1_555 1_555
C4_3 C2_3 1_555 1_555
H6_3 C4_3 1_555 1_555
C5_3 C3_3 1_555 1_555
C6_3 N2_3 1_555 1_555
H7_3 C6_3 1_555 1_555
C7_3 N2_3 1_555 1_555
H8_3 C7_3 1_555 1_555
C8_3 C6_3 1_555 1_555
H9_3 C8_3 1_555 1_555
C9_3 C7_3 1_555 1_555
H10_3 C9_3 1_555 1_555
C10_3 C8_3 1_555 1_555
C11_3 C10_3 1_555 1_555
C13_3 C11_3 1_555 1_555
H12_3 C13_3 1_555 1_555
N7_2 C16_3 1_555 1_555
C16_3 H15_3 1_555 1_555
C17_3 N7_2 1_555 1_555
H16_3 C17_3 1_555 1_555
C18_3 C16_3 1_555 1_555
H17_3 C18_3 1_555 1_555
C19_3 C17_3 1_555 1_555
H18_3 C19_3 1_555 1_555
C20_3 C5_3 1_555 1_555
V3_2 O15 1_555 1_555
V4_3 O10_3 1_555 1_555
O9_3 V3_2 1_555 1_555
O10_3 V3_2 1_555 1_555
O11_3 V4_3 1_555 1_555
O12_2 V4_3 1_555 1_555
O13_3 Cu2_13 1_555 1_555
O14_3 Cu2_13 1_555 1_555
H19_3 O14_3 1_555 1_555
H20_3 O14_3 1_555 1_555
N5_3 Cu2_13 1_555 1_555
C21_3 N5_3 1_555 1_555
H21_3 C21_3 1_555 1_555
C22_3 N5_3 1_555 1_555
H22_3 C22_3 1_555 1_555
C23_3 C21_3 1_555 1_555
H23_3 C23_3 1_555 1_555
C24_3 C22_3 1_555 1_555
H24_3 C24_3 1_555 1_555
C25_3 C23_3 1_555 1_555
C26_3 C25_3 1_555 1_555
C28_3 C26_3 1_555 1_555
H26_3 C28_3 1_555 1_555
V5_2 O12_2 1_555 1_555
V6_2 O5_2 1_555 1_555
C4_3 C5_3 1_555 1_555
C9_3 C10_3 1_555 1_555
C18_3 C20_3 1_555 1_555
C19_3 C20_3 1_555 1_555
V4_3 O13_3 1_555 1_555
C24_3 C25_3 1_555 1_555
N8_2 C14_3 1_555 1_555
H11_3 C12_3 1_555 1_555
C14_3 C12_3 1_555 1_555
H13_3 C14_3 1_555 1_555
C15_3 N8_2 1_555 1_555
H14_3 C15_3 1_555 1_555
N9_2 C29_4 1_555 1_555
H25_4 C27_4 1_555 1_555
C29_4 C27_4 1_555 1_555
H27_4 C29_4 1_555 1_555
H28_4 C30_4 1_555 1_555
O7_4 Cu2_14 1_555 1_555
H1_4 O7_4 1_555 1_555
H2_4 O7_4 1_555 1_555
H8_4 C7_4 1_555 1_555
C9_4 C7_4 1_555 1_555
H10_4 C9_4 1_555 1_555
H12_4 C13_4 1_555 1_555
N4_2 C16_4 1_555 1_555
C16_4 H15_4 1_555 1_555
C17_4 N4_2 1_555 1_555
H16_4 C17_4 1_555 1_555
C18_4 C16_4 1_555 1_555
H17_4 C18_4 1_555 1_555
C19_4 C17_4 1_555 1_555
H18_4 C19_4 1_555 1_555
V6_2 O15_2 1_555 1_555
V4_4 O10_4 1_555 1_555
O9_4 V6_2 1_555 1_555
O10_4 V6_2 1_555 1_555
O11_4 V4_4 1_555 1_555
O17_2 V4_4 1_555 1_555
O13_4 Cu2_14 1_555 1_555
N5_4 Cu2_14 1_555 1_555
C21_4 N5_4 1_555 1_555
H21_4 C21_4 1_555 1_555
C23_4 C21_4 1_555 1_555
H23_4 C23_4 1_555 1_555
C25_4 C23_4 1_555 1_555
C26_4 C25_4 1_555 1_555
Cu6 N4_2 1_555 1_555
C18_4 C20_4 1_555 1_555
C19_4 C20_4 1_555 1_555
V4_4 O13_4 1_555 1_555
Cu6 O1_4 1_555 1_555
Cu2_15 O6_4 1_555 1_555
V5_2 O1_4 1_555 1_555
V2_4 O3_4 1_555 1_555
O2_4 V5_2 1_555 1_555
O3_4 V5_2 1_555 1_555
O4_4 V2_4 1_555 1_555
O16_2 V2_4 1_555 1_555
O6_4 V2_4 1_555 1_555
N1_4 Cu6 1_555 1_555
N2_4 Cu2_15 1_555 1_555
C1_4 N1_4 1_555 1_555
H3_4 C1_4 1_555 1_555
C2_4 N1_4 1_555 1_555
H4_4 C2_4 1_555 1_555
C3_4 C1_4 1_555 1_555
H5_4 C3_4 1_555 1_555
C4_4 C2_4 1_555 1_555
H6_4 C4_4 1_555 1_555
C5_4 C3_4 1_555 1_555
C6_4 N2_4 1_555 1_555
H7_4 C6_4 1_555 1_555
C8_4 C6_4 1_555 1_555
H9_4 C8_4 1_555 1_555
C10_4 C8_4 1_555 1_555
C11_4 C10_4 1_555 1_555
O14_4 Cu2_15 1_555 1_555
H19_4 O14_4 1_555 1_555
H20_4 O14_4 1_555 1_555
H22_4 C22_4 1_555 1_555
C24_4 C22_4 1_555 1_555
H24_4 C24_4 1_555 1_555
H26_4 C28_4 1_555 1_555
C4_4 C5_4 1_555 1_555
H14_4 C15_4 1_555 1_555
N8 C14_4 1_555 1_555
H11_4 C12_4 1_555 1_555
C14_4 C12_4 1_555 1_555
H13_4 C14_4 1_555 1_555

#END
