
###############################################################################
#
# This file contains modified crystal structure data generated from the
# MOF subset of the Cambridge Structural Database (CSD) v543 
# hosted by the Cambridge Crystallographic Data Centre (CCDC).
#
# This work is licensed under the Creative Commons
# Attribution-NonCommercial-ShareAlike 4.0 International License.
# To view a copy of this license, visit
# http://creativecommons.org/licenses/by-nc-sa/4.0/
# or send a letter to
# Creative Commons, PO Box 1866, Mountain View, CA 94042, USA.
#
# CIF created using the CSD Python API on 29 September 2022
# The structure has been converted into the P1 space group
# The structure has a 3D framework
# The original CSD entry YIWBEN is in the monoclinic crystal system
# The framework has been calculated to contain at least 10.0% void space
# The void calculation uses a probe of radius 1.32A, grid spacing 0.4
#
###############################################################################

data_YIWBEN
_chemical_formula_moiety         '(C208 H144 Cd8 N16 O32)n'
_symmetry_cell_setting           triclinic
_symmetry_space_group_name_H-M   'P 1'
_symmetry_Int_Tables_number      1
_space_group_name_Hall           'P 1'
loop_
_symmetry_equiv_pos_site_id
_symmetry_equiv_pos_as_xyz
1 x,y,z
_cell_length_a                   29.525(6)
_cell_length_b                   14.050(3)
_cell_length_c                   16.602(3)
_cell_angle_alpha                90
_cell_angle_beta                 107.64(3)
_cell_angle_gamma                90
_cell_volume                     6563.12
loop_
_atom_site_label
_atom_site_type_symbol
_atom_site_fract_x
_atom_site_fract_y
_atom_site_fract_z
N2 N 0.2186(2) 0.1018(4) 0.0909(5)
C24 C 0.2498(3) 0.0531(5) 0.1527(8)
H16 H 0.2718 0.0865 0.1954
C25 C 0.1890(4) 0.0506(5) 0.0318(9)
Cd3 Cd 0.220806(15) 0.26675(3) 0.08866(4)
N1 N 0.2212(2) 0.4335(4) 0.0712(5)
O1 O 0.18870(19) 0.2708(4) 0.2133(5)
O2 O 0.1419(2) 0.2821(4) 0.0791(6)
O3 O 0.29686(17) 0.2776(3) 0.1907(5)
O4 O 0.29886(18) 0.2502(3) 0.0603(5)
C1 C 0.1473(3) 0.2783(5) 0.1551(9)
C2 C 0.1041(3) 0.2856(5) 0.1865(7)
C3 C 0.0598(3) 0.2999(7) 0.1281(7)
H1 H 0.0570 0.3065 0.0711
C4 C 0.0193(3) 0.3042(8) 0.1552(7)
C5 C 0.0224(3) 0.2887(6) 0.2355(7)
C6 C 0.0671(3) 0.2748(7) 0.2951(9)
H3 H 0.0700 0.2693 0.3523
C7 C 0.1073(3) 0.2694(6) 0.2674(8)
H4 H 0.1366 0.2545 0.3058
C8 C 0.3197(2) 0.2646(4) 0.1382(6)
C9 C 0.3731(2) 0.2698(5) 0.1698(6)
C10 C 0.3968(3) 0.2905(6) 0.2555(7)
H5 H 0.3787 0.2999 0.2920
C11 C 0.4458(3) 0.2973(6) 0.2876(7)
H6 H 0.4603 0.3146 0.3436
C12 C 0.4733(2) 0.2774(5) 0.2335(6)
C13 C 0.4492(3) 0.2591(6) 0.1502(7)
H7 H 0.4663 0.2492 0.1123
C14 C 0.4011(3) 0.2550(5) 0.1219(7)
H8 H 0.3868 0.2409 0.0652
C15 C 0.2502(3) 0.4891(6) 0.1333(7)
H9 H 0.2721 0.4617 0.1801
C16 C 0.2462(4) 0.5880(6) 0.1247(8)
H10 H 0.2680 0.6258 0.1639
C17 C 0.2119(4) 0.6311(6) 0.0618(8)
C19 C 0.1885(3) 0.4753(5) 0.0082(7)
C20 C 0.2055(5) 0.7356(7) 0.0547(10)
H13 H 0.1833 0.7564 0.0052
C21 C 0.2243(4) 0.7978(7) 0.1031(10)
H14 H 0.2452 0.7756 0.1535
C22 C 0.2209(3) 0.9020(5) 0.0977(7)
C23 C 0.2501(4) 0.9568(5) 0.1549(9)
H15 H 0.2724 0.9272 0.1997
C26 C 0.1889(4) 0.9496(6) 0.0330(10)
H20 H 0.0101 0.3182 0.3835
O7 O 0.70314(17) 0.2776(3) 0.3093(5)
O8 O 0.70114(18) 0.2502(3) 0.4397(5)
C34 C 0.6803(2) 0.2646(4) 0.3618(6)
C35 C 0.6269(2) 0.2698(5) 0.3302(6)
C36 C 0.6032(3) 0.2905(6) 0.2445(7)
H23 H 0.6213 0.2999 0.2080
C37 C 0.5542(3) 0.2973(6) 0.2124(7)
H24 H 0.5397 0.3146 0.1564
C38 C 0.5267(2) 0.2774(5) 0.2665(6)
C39 C 0.5508(3) 0.2591(6) 0.3498(7)
H25 H 0.5337 0.2492 0.3877
C40 C 0.5989(3) 0.2550(5) 0.3781(7)
H26 H 0.6132 0.2409 0.4348
Cd5 Cd 0.779194(15) 0.26675(3) 0.41134(4)
Cd7 Cd 0.720806(15) 0.23325(3) 0.58866(4)
C18 C 0.1823(4) 0.5729(6) 0.9979(8)
H11 H 0.1597 0.5988 0.9512
H12 H 0.1682 0.4363 0.9679
H18 H 0.1673 0.9159 0.9900
Cd6 Cd 0.279194(15) 0.23325(3) 0.91134(4)
O11 O 0.20114(18) 0.2498(3) 0.9397(5)
N4 N 0.7814(2) 0.1018(4) 0.4091(5)
C50 C 0.7502(3) 0.0531(5) 0.3473(8)
H34 H 0.7282 0.0865 0.3046
C51 C 0.8110(4) 0.0506(5) 0.4682(9)
H35 H 0.8328 0.0819 0.5128
H2 H 0.9899 0.3182 0.1165
O5 O 0.81130(19) 0.2708(4) 0.2867(5)
O6 O 0.8581(2) 0.2821(4) 0.4209(6)
C27 C 0.8527(3) 0.2783(5) 0.3449(9)
C28 C 0.8959(3) 0.2856(5) 0.3135(7)
C29 C 0.9402(3) 0.2999(7) 0.3719(7)
H19 H 0.9430 0.3065 0.4289
C30 C 0.9807(3) 0.3042(8) 0.3448(7)
C31 C 0.9776(3) 0.2887(6) 0.2645(7)
C32 C 0.9329(3) 0.2748(7) 0.2049(9)
H21 H 0.9300 0.2693 0.1477
C33 C 0.8927(3) 0.2694(6) 0.2326(8)
H22 H 0.8634 0.2545 0.1942
N3 N 0.7788(2) 0.4335(4) 0.4288(5)
C41 C 0.7498(3) 0.4891(6) 0.3667(7)
H27 H 0.7279 0.4617 0.3199
C42 C 0.7538(4) 0.5880(6) 0.3753(8)
H28 H 0.7320 0.6258 0.3361
C43 C 0.7881(4) 0.6311(6) 0.4382(8)
C44 C 0.8177(4) 0.5729(6) 0.5021(8)
H29 H 0.8403 0.5988 0.5488
C45 C 0.8115(3) 0.4753(5) 0.4918(7)
H30 H 0.8318 0.4363 0.5321
C46 C 0.7945(5) 0.7356(7) 0.4453(10)
H31 H 0.8167 0.7564 0.4948
C47 C 0.7757(4) 0.7978(7) 0.3969(10)
H32 H 0.7548 0.7756 0.3465
C48 C 0.7791(3) 0.9020(5) 0.4023(7)
C49 C 0.7499(4) 0.9568(5) 0.3451(9)
H33 H 0.7276 0.9272 0.3003
C52 C 0.8111(4) 0.9496(6) 0.4670(10)
H36 H 0.8327 0.9159 0.5100
O12 O 0.79886(18) 0.2498(3) 0.5603(5)
H12_2 H 0.3318 0.0637 0.0321
N1_2 N 0.2788(2) 0.0665(4) 0.9288(5)
O1_2 O 0.31130(19) 0.2292(4) 0.7867(5)
O2_2 O 0.3581(2) 0.2179(4) 0.9209(6)
O3_2 O 0.20314(17) 0.2224(3) 0.8093(5)
C1_2 C 0.3527(3) 0.2217(5) 0.8449(9)
C2_2 C 0.3959(3) 0.2144(5) 0.8135(7)
C3_2 C 0.4402(3) 0.2001(7) 0.8719(7)
H1_2 H 0.4430 0.1935 0.9289
C4_2 C 0.4807(3) 0.1958(8) 0.8448(7)
H2_2 H 0.5101 0.1818 0.8835
C5_2 C 0.4776(3) 0.2113(6) 0.7645(7)
C6_2 C 0.4329(3) 0.2252(7) 0.7049(9)
H3_2 H 0.4300 0.2307 0.6477
C7_2 C 0.3927(3) 0.2306(6) 0.7326(8)
H4_2 H 0.3634 0.2455 0.6942
C8_2 C 0.1803(2) 0.2354(4) 0.8618(6)
C9_2 C 0.1269(2) 0.2302(5) 0.8302(6)
C10_2 C 0.1032(3) 0.2095(6) 0.7445(7)
H5_2 H 0.1213 0.2001 0.7080
C11_2 C 0.0542(3) 0.2027(6) 0.7124(7)
H6_2 H 0.0397 0.1854 0.6564
C12_2 C 0.0267(2) 0.2226(5) 0.7665(6)
C13_2 C 0.0508(3) 0.2409(6) 0.8498(7)
H7_2 H 0.0337 0.2508 0.8877
C14_2 C 0.0989(3) 0.2450(5) 0.8781(7)
H8_2 H 0.1132 0.2591 0.9348
C15_2 C 0.2498(3) 0.0109(6) 0.8667(7)
H9_2 H 0.2279 0.0383 0.8199
C19_2 C 0.3115(3) 0.0247(5) 0.9918(7)
O5_2 O 0.68870(19) 0.2292(4) 0.7133(5)
O6_2 O 0.6419(2) 0.2179(4) 0.5791(6)
C27_2 C 0.6473(3) 0.2217(5) 0.6551(9)
C28_2 C 0.6041(3) 0.2144(5) 0.6865(7)
C29_2 C 0.5598(3) 0.2001(7) 0.6281(7)
H19_2 H 0.5570 0.1935 0.5711
C30_2 C 0.5193(3) 0.1958(8) 0.6552(7)
H20_2 H 0.4899 0.1818 0.6165
C31_2 C 0.5224(3) 0.2113(6) 0.7355(7)
C32_2 C 0.5671(3) 0.2252(7) 0.7951(9)
H21_2 H 0.5700 0.2307 0.8523
C33_2 C 0.6073(3) 0.2306(6) 0.7674(8)
H22_2 H 0.6366 0.2455 0.8058
N3_2 N 0.7212(2) 0.0665(4) 0.5712(5)
C41_2 C 0.7502(3) 0.0109(6) 0.6333(7)
H27_2 H 0.7721 0.0383 0.6801
C45_2 C 0.6885(3) 0.0247(5) 0.5082(7)
H30_2 H 0.6682 0.0637 0.4679
N5 N 0.2814(2) 0.3982(4) 0.9091(5)
N6 N 0.7186(2) 0.3982(4) 0.5909(5)
O9 O 0.79686(17) 0.2224(3) 0.6907(5)
C16_2 C 0.2538(4) 0.9120(6) 0.8753(8)
H10_2 H 0.2320 0.8742 0.8361
C17_2 C 0.2881(4) 0.8689(6) 0.9382(8)
C20_2 C 0.2945(5) 0.7644(7) 0.9453(10)
H13_2 H 0.3167 0.7436 0.9948
C21_2 C 0.2757(4) 0.7022(7) 0.8969(10)
H14_2 H 0.2548 0.7244 0.8465
C22_2 C 0.2791(3) 0.5980(5) 0.9023(7)
C23_2 C 0.2499(4) 0.5432(5) 0.8451(9)
H15_2 H 0.2276 0.5728 0.8003
C24_2 C 0.2502(3) 0.4469(5) 0.8473(8)
H16_2 H 0.2282 0.4135 0.8046
C25_2 C 0.3110(4) 0.4494(5) 0.9682(9)
C26_2 C 0.3111(4) 0.5504(6) 0.9670(10)
C42_2 C 0.7462(4) 0.9120(6) 0.6247(8)
H28_2 H 0.7680 0.8742 0.6639
C43_2 C 0.7119(4) 0.8689(6) 0.5618(8)
C44_2 C 0.6823(4) 0.9271(6) 0.4979(8)
H29_2 H 0.6597 0.9012 0.4512
C46_2 C 0.7055(5) 0.7644(7) 0.5547(10)
H31_2 H 0.6833 0.7436 0.5052
C47_2 C 0.7243(4) 0.7022(7) 0.6031(10)
H32_2 H 0.7452 0.7244 0.6535
C48_2 C 0.7209(3) 0.5980(5) 0.5977(7)
C49_2 C 0.7501(4) 0.5432(5) 0.6549(9)
H33_2 H 0.7724 0.5728 0.6997
C50_2 C 0.7498(3) 0.4469(5) 0.6527(8)
H34_2 H 0.7718 0.4135 0.6954
C51_2 C 0.6890(4) 0.4494(5) 0.5318(9)
H35_2 H 0.6672 0.4181 0.4872
C52_2 C 0.6889(4) 0.5504(6) 0.5330(10)
H36_2 H 0.6673 0.5841 0.4900
C34_2 C 0.8197(2) 0.2354(4) 0.6382(6)
C35_2 C 0.8731(2) 0.2302(5) 0.6698(6)
C36_2 C 0.8968(3) 0.2095(6) 0.7555(7)
H23_2 H 0.8787 0.2001 0.7920
C37_2 C 0.9458(3) 0.2027(6) 0.7876(7)
H24_2 H 0.9603 0.1854 0.8436
C38_2 C 0.9733(2) 0.2226(5) 0.7335(6)
C39_2 C 0.9492(3) 0.2409(6) 0.6502(7)
H25_2 H 0.9663 0.2508 0.6123
C40_2 C 0.9011(3) 0.2450(5) 0.6219(7)
H26_2 H 0.8868 0.2591 0.5652
H17 H 0.1672 0.0819 0.9872
O7_2 O 0.20314(17) 0.7776(3) 0.3093(5)
O8_2 O 0.20114(18) 0.7502(3) 0.4397(5)
C34_3 C 0.1803(2) 0.7646(4) 0.3618(6)
C35_3 C 0.1269(2) 0.7698(5) 0.3302(6)
C36_3 C 0.1032(3) 0.7905(6) 0.2445(7)
H23_3 H 0.1213 0.7999 0.2080
C37_3 C 0.0542(3) 0.7973(6) 0.2124(7)
H24_3 H 0.0397 0.8146 0.1564
C38_3 C 0.0267(2) 0.7774(5) 0.2665(6)
C39_3 C 0.0508(3) 0.7591(6) 0.3498(7)
H25_3 H 0.0337 0.7492 0.3877
C40_3 C 0.0989(3) 0.7550(5) 0.3781(7)
H26_3 H 0.1132 0.7409 0.4348
Cd5_2 Cd 0.279194(15) 0.76675(3) 0.41134(4)
Cd7_2 Cd 0.220806(15) 0.73325(3) 0.58866(4)
N2_2 N 0.7186(2) 0.6018(4) 0.0909(5)
C16_3 C 0.7462(4) 0.0880(6) 0.1247(8)
H10_3 H 0.7680 0.1258 0.1639
C17_3 C 0.7119(4) 0.1311(6) 0.0618(8)
C20_3 C 0.7055(5) 0.2356(7) 0.0547(10)
H13_3 H 0.6833 0.2564 0.0052
C21_3 C 0.7243(4) 0.2978(7) 0.1031(10)
H14_3 H 0.7452 0.2756 0.1535
C22_3 C 0.7209(3) 0.4020(5) 0.0977(7)
C23_3 C 0.7501(4) 0.4568(5) 0.1549(9)
H15_3 H 0.7724 0.4272 0.1997
C24_3 C 0.7498(3) 0.5531(5) 0.1527(8)
H16_3 H 0.7718 0.5865 0.1954
C25_3 C 0.6890(4) 0.5506(5) 0.0318(9)
C26_3 C 0.6889(4) 0.4496(6) 0.0330(10)
N4_2 N 0.2814(2) 0.6018(4) 0.4091(5)
C42_3 C 0.2538(4) 0.0880(6) 0.3753(8)
H28_3 H 0.2320 0.1258 0.3361
C43_3 C 0.2881(4) 0.1311(6) 0.4382(8)
C44_3 C 0.3177(4) 0.0729(6) 0.5021(8)
H29_3 H 0.3403 0.0988 0.5488
C46_3 C 0.2945(5) 0.2356(7) 0.4453(10)
H31_3 H 0.3167 0.2564 0.4948
C47_3 C 0.2757(4) 0.2978(7) 0.3969(10)
H32_3 H 0.2548 0.2756 0.3465
C48_3 C 0.2791(3) 0.4020(5) 0.4023(7)
C49_3 C 0.2499(4) 0.4568(5) 0.3451(9)
H33_3 H 0.2276 0.4272 0.3003
C50_3 C 0.2502(3) 0.5531(5) 0.3473(8)
H34_3 H 0.2282 0.5865 0.3046
C51_3 C 0.3110(4) 0.5506(5) 0.4682(9)
H35_3 H 0.3328 0.5819 0.5128
C52_3 C 0.3111(4) 0.4496(6) 0.4670(10)
H36_3 H 0.3327 0.4159 0.5100
Cd3_2 Cd 0.720806(15) 0.76675(3) 0.08866(4)
N1_3 N 0.7212(2) 0.9335(4) 0.0712(5)
O1_3 O 0.68870(19) 0.7708(4) 0.2133(5)
O2_3 O 0.6419(2) 0.7821(4) 0.0791(6)
O3_3 O 0.79686(17) 0.7776(3) 0.1907(5)
O4_2 O 0.79886(18) 0.7502(3) 0.0603(5)
C1_3 C 0.6473(3) 0.7783(5) 0.1551(9)
C2_3 C 0.6041(3) 0.7856(5) 0.1865(7)
C3_3 C 0.5598(3) 0.7999(7) 0.1281(7)
H1_3 H 0.5570 0.8065 0.0711
C4_3 C 0.5193(3) 0.8042(8) 0.1552(7)
H2_3 H 0.4899 0.8182 0.1165
C5_3 C 0.5224(3) 0.7887(6) 0.2355(7)
C6_3 C 0.5671(3) 0.7748(7) 0.2951(9)
H3_3 H 0.5700 0.7693 0.3523
C7_3 C 0.6073(3) 0.7694(6) 0.2674(8)
H4_3 H 0.6366 0.7545 0.3058
C8_3 C 0.8197(2) 0.7646(4) 0.1382(6)
C9_3 C 0.8731(2) 0.7698(5) 0.1698(6)
C10_3 C 0.8968(3) 0.7905(6) 0.2555(7)
H5_3 H 0.8787 0.7999 0.2920
C11_3 C 0.9458(3) 0.7973(6) 0.2876(7)
H6_3 H 0.9603 0.8146 0.3436
C12_3 C 0.9733(2) 0.7774(5) 0.2335(6)
C13_3 C 0.9492(3) 0.7591(6) 0.1502(7)
H7_3 H 0.9663 0.7492 0.1123
C14_3 C 0.9011(3) 0.7550(5) 0.1219(7)
H8_3 H 0.8868 0.7409 0.0652
C15_3 C 0.7502(3) 0.9891(6) 0.1333(7)
H9_3 H 0.7721 0.9617 0.1801
C19_3 C 0.6885(3) 0.9753(5) 0.0082(7)
O5_3 O 0.31130(19) 0.7708(4) 0.2867(5)
O6_3 O 0.3581(2) 0.7821(4) 0.4209(6)
C27_3 C 0.3527(3) 0.7783(5) 0.3449(9)
C28_3 C 0.3959(3) 0.7856(5) 0.3135(7)
C29_3 C 0.4402(3) 0.7999(7) 0.3719(7)
H19_3 H 0.4430 0.8065 0.4289
C30_3 C 0.4807(3) 0.8042(8) 0.3448(7)
H20_3 H 0.5101 0.8182 0.3835
C31_3 C 0.4776(3) 0.7887(6) 0.2645(7)
C32_3 C 0.4329(3) 0.7748(7) 0.2049(9)
H21_3 H 0.4300 0.7693 0.1477
C33_3 C 0.3927(3) 0.7694(6) 0.2326(8)
H22_3 H 0.3634 0.7545 0.1942
N3_3 N 0.2788(2) 0.9335(4) 0.4288(5)
C41_3 C 0.2498(3) 0.9891(6) 0.3667(7)
H27_3 H 0.2279 0.9617 0.3199
C45_3 C 0.3115(3) 0.9753(5) 0.4918(7)
H30_3 H 0.3318 0.9363 0.5321
O12_2 O 0.29886(18) 0.7498(3) 0.5603(5)
H12_3 H 0.6682 0.9363 0.9679
Cd6_2 Cd 0.779194(15) 0.73325(3) 0.91134(4)
O11_2 O 0.70114(18) 0.7498(3) 0.9397(5)
H2_4 H 0.0101 0.6818 0.8835
O5_4 O 0.18870(19) 0.7292(4) 0.7133(5)
O6_4 O 0.1419(2) 0.7179(4) 0.5791(6)
C27_4 C 0.1473(3) 0.7217(5) 0.6551(9)
C28_4 C 0.1041(3) 0.7144(5) 0.6865(7)
C29_4 C 0.0598(3) 0.7001(7) 0.6281(7)
H19_4 H 0.0570 0.6935 0.5711
C30_4 C 0.0193(3) 0.6958(8) 0.6552(7)
C31_4 C 0.0224(3) 0.7113(6) 0.7355(7)
C32_4 C 0.0671(3) 0.7252(7) 0.7951(9)
H21_4 H 0.0700 0.7307 0.8523
C33_4 C 0.1073(3) 0.7306(6) 0.7674(8)
H22_4 H 0.1366 0.7455 0.8058
N3_4 N 0.2212(2) 0.5665(4) 0.5712(5)
C41_4 C 0.2502(3) 0.5109(6) 0.6333(7)
H27_4 H 0.2721 0.5383 0.6801
C42_4 C 0.2462(4) 0.4120(6) 0.6247(8)
H28_4 H 0.2680 0.3742 0.6639
C43_4 C 0.2119(4) 0.3689(6) 0.5618(8)
C44_4 C 0.1823(4) 0.4271(6) 0.4979(8)
H29_4 H 0.1597 0.4012 0.4512
C45_4 C 0.1885(3) 0.5247(5) 0.5082(7)
H30_4 H 0.1682 0.5637 0.4679
C46_4 C 0.2055(5) 0.2644(7) 0.5547(10)
H31_4 H 0.1833 0.2436 0.5052
C47_4 C 0.2243(4) 0.2022(7) 0.6031(10)
H32_4 H 0.2452 0.2244 0.6535
C48_4 C 0.2209(3) 0.0980(5) 0.5977(7)
C49_4 C 0.2501(4) 0.0432(5) 0.6549(9)
H33_4 H 0.2724 0.0728 0.6997
C52_4 C 0.1889(4) 0.0504(6) 0.5330(10)
H36_4 H 0.1673 0.0841 0.4900
N6_2 N 0.2186(2) 0.8982(4) 0.5909(5)
O9_2 O 0.29686(17) 0.7224(3) 0.6907(5)
C50_4 C 0.2498(3) 0.9469(5) 0.6527(8)
H34_4 H 0.2718 0.9135 0.6954
C51_4 C 0.1890(4) 0.9494(5) 0.5318(9)
H35_4 H 0.1672 0.9181 0.4872
C18_2 C 0.8177(4) 0.4271(6) 0.0021(8)
H11_2 H 0.8403 0.4012 0.0488
H12_4 H 0.8318 0.5637 0.0321
H18_2 H 0.8327 0.0841 0.0100
N1_4 N 0.7788(2) 0.5665(4) 0.9288(5)
O1_4 O 0.81130(19) 0.7292(4) 0.7867(5)
O2_4 O 0.8581(2) 0.7179(4) 0.9209(6)
O3_4 O 0.70314(17) 0.7224(3) 0.8093(5)
C1_4 C 0.8527(3) 0.7217(5) 0.8449(9)
C2_4 C 0.8959(3) 0.7144(5) 0.8135(7)
C3_4 C 0.9402(3) 0.7001(7) 0.8719(7)
H1_4 H 0.9430 0.6935 0.9289
C4_4 C 0.9807(3) 0.6958(8) 0.8448(7)
C5_4 C 0.9776(3) 0.7113(6) 0.7645(7)
C6_4 C 0.9329(3) 0.7252(7) 0.7049(9)
H3_4 H 0.9300 0.7307 0.6477
C7_4 C 0.8927(3) 0.7306(6) 0.7326(8)
H4_4 H 0.8634 0.7455 0.6942
C8_4 C 0.6803(2) 0.7354(4) 0.8618(6)
C9_4 C 0.6269(2) 0.7302(5) 0.8302(6)
C10_4 C 0.6032(3) 0.7095(6) 0.7445(7)
H5_4 H 0.6213 0.7001 0.7080
C11_4 C 0.5542(3) 0.7027(6) 0.7124(7)
H6_4 H 0.5397 0.6854 0.6564
C12_4 C 0.5267(2) 0.7226(5) 0.7665(6)
C13_4 C 0.5508(3) 0.7409(6) 0.8498(7)
H7_4 H 0.5337 0.7508 0.8877
C14_4 C 0.5989(3) 0.7450(5) 0.8781(7)
H8_4 H 0.6132 0.7591 0.9348
C15_4 C 0.7498(3) 0.5109(6) 0.8667(7)
H9_4 H 0.7279 0.5383 0.8199
C16_4 C 0.7538(4) 0.4120(6) 0.8753(8)
H10_4 H 0.7320 0.3742 0.8361
C17_4 C 0.7881(4) 0.3689(6) 0.9382(8)
C19_4 C 0.8115(3) 0.5247(5) 0.9918(7)
C20_4 C 0.7945(5) 0.2644(7) 0.9453(10)
H13_4 H 0.8167 0.2436 0.9948
C21_4 C 0.7757(4) 0.2022(7) 0.8969(10)
H14_4 H 0.7548 0.2244 0.8465
C22_4 C 0.7791(3) 0.0980(5) 0.9023(7)
C23_4 C 0.7499(4) 0.0432(5) 0.8451(9)
H15_4 H 0.7276 0.0728 0.8003
C26_4 C 0.8111(4) 0.0504(6) 0.9670(10)
H20_4 H 0.9899 0.6818 0.6165
C34_4 C 0.3197(2) 0.7354(4) 0.6382(6)
C35_4 C 0.3731(2) 0.7302(5) 0.6698(6)
C36_4 C 0.3968(3) 0.7095(6) 0.7555(7)
H23_4 H 0.3787 0.7001 0.7920
C37_4 C 0.4458(3) 0.7027(6) 0.7876(7)
H24_4 H 0.4603 0.6854 0.8436
C38_4 C 0.4733(2) 0.7226(5) 0.7335(6)
C39_4 C 0.4492(3) 0.7409(6) 0.6502(7)
H25_4 H 0.4663 0.7508 0.6123
C40_4 C 0.4011(3) 0.7450(5) 0.6219(7)
H26_4 H 0.3868 0.7591 0.5652
N5_2 N 0.7814(2) 0.8982(4) 0.9091(5)
C24_4 C 0.7502(3) 0.9469(5) 0.8473(8)
H16_4 H 0.7282 0.9135 0.8046
C25_4 C 0.8110(4) 0.9494(5) 0.9682(9)
C18_3 C 0.6823(4) 0.0729(6) 0.9979(8)
H11_3 H 0.6597 0.0988 0.9512
H17_2 H 0.6672 0.5819 0.9872
H18_3 H 0.6673 0.4159 0.9900
H17_3 H 0.8328 0.9181 0.0128
C18_4 C 0.3177(4) 0.9271(6) 0.0021(8)
H11_4 H 0.3403 0.9012 0.0488
H17_4 H 0.3328 0.4181 0.0128
H18_4 H 0.3327 0.5841 0.0100
loop_
_geom_bond_atom_site_label_1
_geom_bond_atom_site_label_2
_geom_bond_site_symmetry_1
_geom_bond_site_symmetry_2
N2 C24 1_555 1_555
H16 C24 1_555 1_555
C25 N2 1_555 1_555
Cd3 N2 1_555 1_555
Cd3 N1 1_555 1_555
N1 C15 1_555 1_555
O1 Cd3 1_555 1_555
O2 Cd3 1_555 1_555
O3 Cd3 1_555 1_555
O4 Cd3 1_555 1_555
C1 O1 1_555 1_555
C2 C1 1_555 1_555
C3 C2 1_555 1_555
H1 C3 1_555 1_555
C4 C3 1_555 1_555
C5 C4 1_555 1_555
C6 C5 1_555 1_555
H3 C6 1_555 1_555
C7 C2 1_555 1_555
H4 C7 1_555 1_555
C8 O3 1_555 1_555
C9 C8 1_555 1_555
C10 C9 1_555 1_555
H5 C10 1_555 1_555
C11 C10 1_555 1_555
H6 C11 1_555 1_555
C12 C11 1_555 1_555
C13 C12 1_555 1_555
H7 C13 1_555 1_555
C14 C9 1_555 1_555
H8 C14 1_555 1_555
C15 H9 1_555 1_555
C16 C15 1_555 1_555
H10 C16 1_555 1_555
C17 C16 1_555 1_555
C19 N1 1_555 1_555
C20 C17 1_555 1_555
H13 C20 1_555 1_555
C21 C20 1_555 1_555
H14 C21 1_555 1_555
C22 C21 1_555 1_555
C23 C22 1_555 1_555
H15 C23 1_555 1_555
C26 C22 1_555 1_555
O7 C34 1_555 1_555
O8 C34 1_555 1_555
C34 C35 1_555 1_555
C35 C36 1_555 1_555
C36 H23 1_555 1_555
C37 C36 1_555 1_555
H24 C37 1_555 1_555
C38 C12 1_555 1_555
C39 C38 1_555 1_555
H25 C39 1_555 1_555
C40 C35 1_555 1_555
H26 C40 1_555 1_555
Cd5 O7 1_555 1_555
Cd7 O8 1_555 1_555
O2 C1 1_555 1_555
O4 C8 1_555 1_555
C6 C7 1_555 1_555
C13 C14 1_555 1_555
O8 Cd5 1_555 1_555
C37 C38 1_555 1_555
C39 C40 1_555 1_555
H11 C18 1_555 1_555
Cd6 O11 1_555 1_555
N4 C50 1_555 1_555
H34 C50 1_555 1_555
C51 N4 1_555 1_555
H35 C51 1_555 1_555
Cd5 N4 1_555 1_555
O5 C27 1_555 1_555
O6 C27 1_555 1_555
C27 C28 1_555 1_555
C28 C29 1_555 1_555
C29 H19 1_555 1_555
C30 C29 1_555 1_555
C32 C31 1_555 1_555
H21 C32 1_555 1_555
C33 C28 1_555 1_555
H22 C33 1_555 1_555
Cd5 O5 1_555 1_555
N3 Cd5 1_555 1_555
C41 N3 1_555 1_555
H27 C41 1_555 1_555
C42 C41 1_555 1_555
H28 C42 1_555 1_555
C43 C42 1_555 1_555
C44 C43 1_555 1_555
H29 C44 1_555 1_555
C45 N3 1_555 1_555
H30 C45 1_555 1_555
C46 C43 1_555 1_555
H31 C46 1_555 1_555
C47 C46 1_555 1_555
H32 C47 1_555 1_555
C48 C47 1_555 1_555
C49 C48 1_555 1_555
H33 C49 1_555 1_555
C52 C48 1_555 1_555
H36 C52 1_555 1_555
O12 Cd5 1_555 1_555
O6 Cd5 1_555 1_555
C30 C31 1_555 1_555
C32 C33 1_555 1_555
C44 C45 1_555 1_555
Cd7 O12 1_555 1_555
Cd6 N1_2 1_555 1_555
N1_2 C15_2 1_555 1_555
O1_2 Cd6 1_555 1_555
O2_2 Cd6 1_555 1_555
O3_2 Cd6 1_555 1_555
C1_2 O1_2 1_555 1_555
C2_2 C1_2 1_555 1_555
C3_2 C2_2 1_555 1_555
H1_2 C3_2 1_555 1_555
C4_2 C3_2 1_555 1_555
H2_2 C4_2 1_555 1_555
C5_2 C4_2 1_555 1_555
C6_2 C5_2 1_555 1_555
H3_2 C6_2 1_555 1_555
C7_2 C2_2 1_555 1_555
H4_2 C7_2 1_555 1_555
C8_2 O3_2 1_555 1_555
C9_2 C8_2 1_555 1_555
C10_2 C9_2 1_555 1_555
H5_2 C10_2 1_555 1_555
C11_2 C10_2 1_555 1_555
H6_2 C11_2 1_555 1_555
C12_2 C11_2 1_555 1_555
C13_2 C12_2 1_555 1_555
H7_2 C13_2 1_555 1_555
C14_2 C9_2 1_555 1_555
H8_2 C14_2 1_555 1_555
C15_2 H9_2 1_555 1_555
C19_2 N1_2 1_555 1_555
O5_2 C27_2 1_555 1_555
O6_2 C27_2 1_555 1_555
C27_2 C28_2 1_555 1_555
C28_2 C29_2 1_555 1_555
C29_2 H19_2 1_555 1_555
C30_2 C29_2 1_555 1_555
H20_2 C30_2 1_555 1_555
C31_2 C5_2 1_555 1_555
C32_2 C31_2 1_555 1_555
H21_2 C32_2 1_555 1_555
C33_2 C28_2 1_555 1_555
H22_2 C33_2 1_555 1_555
Cd7 O5_2 1_555 1_555
N3_2 Cd7 1_555 1_555
C41_2 N3_2 1_555 1_555
H27_2 C41_2 1_555 1_555
C45_2 N3_2 1_555 1_555
H30_2 C45_2 1_555 1_555
N5 Cd6 1_555 1_555
N6 Cd7 1_555 1_555
O9 Cd7 1_555 1_555
O2_2 C1_2 1_555 1_555
O11 C8_2 1_555 1_555
C6_2 C7_2 1_555 1_555
C13_2 C14_2 1_555 1_555
O6_2 Cd7 1_555 1_555
C30_2 C31_2 1_555 1_555
C32_2 C33_2 1_555 1_555
N5 C24_2 1_555 1_555
H10_2 C16_2 1_555 1_555
C17_2 C16_2 1_555 1_555
C20_2 C17_2 1_555 1_555
H13_2 C20_2 1_555 1_555
C21_2 C20_2 1_555 1_555
H14_2 C21_2 1_555 1_555
C22_2 C21_2 1_555 1_555
C23_2 C22_2 1_555 1_555
H15_2 C23_2 1_555 1_555
C24_2 C23_2 1_555 1_555
H16_2 C24_2 1_555 1_555
C25_2 N5 1_555 1_555
C26_2 C22_2 1_555 1_555
N6 C50_2 1_555 1_555
H28_2 C42_2 1_555 1_555
C43_2 C42_2 1_555 1_555
C44_2 C43_2 1_555 1_555
H29_2 C44_2 1_555 1_555
C46_2 C43_2 1_555 1_555
H31_2 C46_2 1_555 1_555
C47_2 C46_2 1_555 1_555
H32_2 C47_2 1_555 1_555
C48_2 C47_2 1_555 1_555
C49_2 C48_2 1_555 1_555
H33_2 C49_2 1_555 1_555
C50_2 C49_2 1_555 1_555
H34_2 C50_2 1_555 1_555
C51_2 N6 1_555 1_555
H35_2 C51_2 1_555 1_555
C52_2 C48_2 1_555 1_555
H36_2 C52_2 1_555 1_555
C25_2 C26_2 1_555 1_555
C51_2 C52_2 1_555 1_555
O9 C34_2 1_555 1_555
O12 C34_2 1_555 1_555
C34_2 C35_2 1_555 1_555
C35_2 C36_2 1_555 1_555
C36_2 H23_2 1_555 1_555
C37_2 C36_2 1_555 1_555
H24_2 C37_2 1_555 1_555
C39_2 C38_2 1_555 1_555
H25_2 C39_2 1_555 1_555
C40_2 C35_2 1_555 1_555
H26_2 C40_2 1_555 1_555
C37_2 C38_2 1_555 1_555
C39_2 C40_2 1_555 1_555
O7_2 C34_3 1_555 1_555
O8_2 C34_3 1_555 1_555
C34_3 C35_3 1_555 1_555
C35_3 C36_3 1_555 1_555
C36_3 H23_3 1_555 1_555
C37_3 C36_3 1_555 1_555
H24_3 C37_3 1_555 1_555
C39_3 C38_3 1_555 1_555
H25_3 C39_3 1_555 1_555
C40_3 C35_3 1_555 1_555
H26_3 C40_3 1_555 1_555
Cd5_2 O7_2 1_555 1_555
Cd7_2 O8_2 1_555 1_555
O8_2 Cd5_2 1_555 1_555
C37_3 C38_3 1_555 1_555
C39_3 C40_3 1_555 1_555
N2_2 C24_3 1_555 1_555
H10_3 C16_3 1_555 1_555
C17_3 C16_3 1_555 1_555
C20_3 C17_3 1_555 1_555
H13_3 C20_3 1_555 1_555
C21_3 C20_3 1_555 1_555
H14_3 C21_3 1_555 1_555
C22_3 C21_3 1_555 1_555
C23_3 C22_3 1_555 1_555
H15_3 C23_3 1_555 1_555
C24_3 C23_3 1_555 1_555
H16_3 C24_3 1_555 1_555
C25_3 N2_2 1_555 1_555
C26_3 C22_3 1_555 1_555
N4_2 C50_3 1_555 1_555
H28_3 C42_3 1_555 1_555
C43_3 C42_3 1_555 1_555
C44_3 C43_3 1_555 1_555
H29_3 C44_3 1_555 1_555
C46_3 C43_3 1_555 1_555
H31_3 C46_3 1_555 1_555
C47_3 C46_3 1_555 1_555
H32_3 C47_3 1_555 1_555
C48_3 C47_3 1_555 1_555
C49_3 C48_3 1_555 1_555
H33_3 C49_3 1_555 1_555
C50_3 C49_3 1_555 1_555
H34_3 C50_3 1_555 1_555
C51_3 N4_2 1_555 1_555
H35_3 C51_3 1_555 1_555
C52_3 C48_3 1_555 1_555
H36_3 C52_3 1_555 1_555
Cd3_2 N2_2 1_555 1_555
Cd5_2 N4_2 1_555 1_555
C25_3 C26_3 1_555 1_555
C51_3 C52_3 1_555 1_555
Cd3_2 N1_3 1_555 1_555
N1_3 C15_3 1_555 1_555
O1_3 Cd3_2 1_555 1_555
O2_3 Cd3_2 1_555 1_555
O3_3 Cd3_2 1_555 1_555
O4_2 Cd3_2 1_555 1_555
C1_3 O1_3 1_555 1_555
C2_3 C1_3 1_555 1_555
C3_3 C2_3 1_555 1_555
H1_3 C3_3 1_555 1_555
C4_3 C3_3 1_555 1_555
H2_3 C4_3 1_555 1_555
C5_3 C4_3 1_555 1_555
C6_3 C5_3 1_555 1_555
H3_3 C6_3 1_555 1_555
C7_3 C2_3 1_555 1_555
H4_3 C7_3 1_555 1_555
C8_3 O3_3 1_555 1_555
C9_3 C8_3 1_555 1_555
C10_3 C9_3 1_555 1_555
H5_3 C10_3 1_555 1_555
C11_3 C10_3 1_555 1_555
H6_3 C11_3 1_555 1_555
C12_3 C11_3 1_555 1_555
C13_3 C12_3 1_555 1_555
H7_3 C13_3 1_555 1_555
C14_3 C9_3 1_555 1_555
H8_3 C14_3 1_555 1_555
C15_3 H9_3 1_555 1_555
C19_3 N1_3 1_555 1_555
O5_3 C27_3 1_555 1_555
O6_3 C27_3 1_555 1_555
C27_3 C28_3 1_555 1_555
C28_3 C29_3 1_555 1_555
C29_3 H19_3 1_555 1_555
C30_3 C29_3 1_555 1_555
H20_3 C30_3 1_555 1_555
C31_3 C5_3 1_555 1_555
C32_3 C31_3 1_555 1_555
H21_3 C32_3 1_555 1_555
C33_3 C28_3 1_555 1_555
H22_3 C33_3 1_555 1_555
Cd5_2 O5_3 1_555 1_555
N3_3 Cd5_2 1_555 1_555
C41_3 N3_3 1_555 1_555
H27_3 C41_3 1_555 1_555
C45_3 N3_3 1_555 1_555
H30_3 C45_3 1_555 1_555
O12_2 Cd5_2 1_555 1_555
O2_3 C1_3 1_555 1_555
O4_2 C8_3 1_555 1_555
C6_3 C7_3 1_555 1_555
C13_3 C14_3 1_555 1_555
O6_3 Cd5_2 1_555 1_555
C30_3 C31_3 1_555 1_555
C32_3 C33_3 1_555 1_555
Cd6_2 O11_2 1_555 1_555
Cd7_2 O12_2 1_555 1_555
O5_4 C27_4 1_555 1_555
O6_4 C27_4 1_555 1_555
C27_4 C28_4 1_555 1_555
C28_4 C29_4 1_555 1_555
C29_4 H19_4 1_555 1_555
C30_4 C29_4 1_555 1_555
C32_4 C31_4 1_555 1_555
H21_4 C32_4 1_555 1_555
C33_4 C28_4 1_555 1_555
H22_4 C33_4 1_555 1_555
Cd7_2 O5_4 1_555 1_555
N3_4 Cd7_2 1_555 1_555
C41_4 N3_4 1_555 1_555
H27_4 C41_4 1_555 1_555
C42_4 C41_4 1_555 1_555
H28_4 C42_4 1_555 1_555
C43_4 C42_4 1_555 1_555
C44_4 C43_4 1_555 1_555
H29_4 C44_4 1_555 1_555
C45_4 N3_4 1_555 1_555
H30_4 C45_4 1_555 1_555
C46_4 C43_4 1_555 1_555
H31_4 C46_4 1_555 1_555
C47_4 C46_4 1_555 1_555
H32_4 C47_4 1_555 1_555
C48_4 C47_4 1_555 1_555
C49_4 C48_4 1_555 1_555
H33_4 C49_4 1_555 1_555
C52_4 C48_4 1_555 1_555
H36_4 C52_4 1_555 1_555
N6_2 Cd7_2 1_555 1_555
O9_2 Cd7_2 1_555 1_555
O6_4 Cd7_2 1_555 1_555
C30_4 C31_4 1_555 1_555
C32_4 C33_4 1_555 1_555
C44_4 C45_4 1_555 1_555
N6_2 C50_4 1_555 1_555
H34_4 C50_4 1_555 1_555
C51_4 N6_2 1_555 1_555
H35_4 C51_4 1_555 1_555
H11_2 C18_2 1_555 1_555
Cd6_2 N1_4 1_555 1_555
N1_4 C15_4 1_555 1_555
O1_4 Cd6_2 1_555 1_555
O2_4 Cd6_2 1_555 1_555
O3_4 Cd6_2 1_555 1_555
C1_4 O1_4 1_555 1_555
C2_4 C1_4 1_555 1_555
C3_4 C2_4 1_555 1_555
H1_4 C3_4 1_555 1_555
C4_4 C3_4 1_555 1_555
C5_4 C4_4 1_555 1_555
C6_4 C5_4 1_555 1_555
H3_4 C6_4 1_555 1_555
C7_4 C2_4 1_555 1_555
H4_4 C7_4 1_555 1_555
C8_4 O3_4 1_555 1_555
C9_4 C8_4 1_555 1_555
C10_4 C9_4 1_555 1_555
H5_4 C10_4 1_555 1_555
C11_4 C10_4 1_555 1_555
H6_4 C11_4 1_555 1_555
C12_4 C11_4 1_555 1_555
C13_4 C12_4 1_555 1_555
H7_4 C13_4 1_555 1_555
C14_4 C9_4 1_555 1_555
H8_4 C14_4 1_555 1_555
C15_4 H9_4 1_555 1_555
C16_4 C15_4 1_555 1_555
H10_4 C16_4 1_555 1_555
C17_4 C16_4 1_555 1_555
C19_4 N1_4 1_555 1_555
C20_4 C17_4 1_555 1_555
H13_4 C20_4 1_555 1_555
C21_4 C20_4 1_555 1_555
H14_4 C21_4 1_555 1_555
C22_4 C21_4 1_555 1_555
C23_4 C22_4 1_555 1_555
H15_4 C23_4 1_555 1_555
C26_4 C22_4 1_555 1_555
O9_2 C34_4 1_555 1_555
O12_2 C34_4 1_555 1_555
C34_4 C35_4 1_555 1_555
C35_4 C36_4 1_555 1_555
C36_4 H23_4 1_555 1_555
C37_4 C36_4 1_555 1_555
H24_4 C37_4 1_555 1_555
C38_4 C12_4 1_555 1_555
C39_4 C38_4 1_555 1_555
H25_4 C39_4 1_555 1_555
C40_4 C35_4 1_555 1_555
H26_4 C40_4 1_555 1_555
N5_2 Cd6_2 1_555 1_555
O2_4 C1_4 1_555 1_555
O11_2 C8_4 1_555 1_555
C6_4 C7_4 1_555 1_555
C13_4 C14_4 1_555 1_555
C37_4 C38_4 1_555 1_555
C39_4 C40_4 1_555 1_555
N5_2 C24_4 1_555 1_555
H16_4 C24_4 1_555 1_555
C25_4 N5_2 1_555 1_555
H11_3 C18_3 1_555 1_555
H11_4 C18_4 1_555 1_555

#END
