
###############################################################################
#
# This file contains modified crystal structure data generated from the
# MOF subset of the Cambridge Structural Database (CSD) v543 
# hosted by the Cambridge Crystallographic Data Centre (CCDC).
#
# This work is licensed under the Creative Commons
# Attribution-NonCommercial-ShareAlike 4.0 International License.
# To view a copy of this license, visit
# http://creativecommons.org/licenses/by-nc-sa/4.0/
# or send a letter to
# Creative Commons, PO Box 1866, Mountain View, CA 94042, USA.
#
# CIF created using the CSD Python API on 29 September 2022
# The structure has been converted into the P1 space group
# The structure has a 3D framework
# The original CSD entry YIWLUM is in the rhombohedral crystal system
# The framework has been calculated to contain at least 10.0% void space
# The void calculation uses a probe of radius 1.32A, grid spacing 0.4
#
###############################################################################

data_YIWLUM
_chemical_formula_moiety         '(C162 H126 Ag14 N36 O36 Se18)n'
_symmetry_cell_setting           triclinic
_symmetry_space_group_name_H-M   'P 1'
_symmetry_Int_Tables_number      1
_space_group_name_Hall           'P 1'
loop_
_symmetry_equiv_pos_site_id
_symmetry_equiv_pos_as_xyz
1 x,y,z
_cell_length_a                   19.6621(10)
_cell_length_b                   19.6621(10)
_cell_length_c                   17.8385(18)
_cell_angle_alpha                90
_cell_angle_beta                 90
_cell_angle_gamma                120
_cell_volume                     5972.4
loop_
_atom_site_label
_atom_site_type_symbol
_atom_site_fract_x
_atom_site_fract_y
_atom_site_fract_z
Ag1 Ag 0.51805(2) 0.02726(2) 0.57822(2)
C4 C 0.3491(6) 0.0259(6) 0.5933(6)
C6 C 0.2276(6) 0.0279(6) 0.6283(6)
H4 H 0.1782 0.0059 0.6529
C7 C 0.2578(6) 0.0994(6) 0.5932(6)
H5 H 0.2260 0.1232 0.5923
C8 C 0.3307(6) 0.1398(6) 0.5592(6)
H6 H 0.3461 0.1876 0.5332
C9 C 0.3815(6) 0.1087(6) 0.5637(6)
H7 H 0.4348 0.1390 0.5486
O7 O 0.5974(3) 0.1488(2) 0.5372(2)
C16 C 0.6926(6) 0.0101(8) 0.7400(6)
C18 C 0.6517(6) 0.0465(8) 0.7054(6)
C20 C 0.6946(6) 0.1336(8) 0.7050(6)
H14 H 0.6726 0.1610 0.6804
C22 C 0.7661(6) 0.1749(8) 0.7401(6)
H16 H 0.7899 0.2305 0.7410
C24 C 0.8065(6) 0.1424(8) 0.7741(6)
H18 H 0.8543 0.1748 0.8001
C26 C 0.7754(6) 0.0605(8) 0.7696(6)
H20 H 0.8057 0.0375 0.7847
O1 O 0.46887(19) 0.88707(18) 0.5695(2)
O2 O 0.4026(3) 0.8512(2) 0.4628(2)
C1 C 0.2899(2) 0.7090(2) 0.5285(3)
H1 H 0.2882 0.7107 0.4731
H2 H 0.2623 0.7356 0.5486
C2 C 0.3753(2) 0.7523(2) 0.5548(3)
H3 H 0.3755 0.7528 0.6109
C3 C 0.4196(2) 0.8371(2) 0.5278(3)
Se1 Se 0.33056(5) 0.89859(5) 0.64634(5)
N1 N 0.3879(3) 0.9846(2) 0.5992(2)
N2 N 0.2485(2) 0.9078(2) 0.6572(2)
C5 C 0.2718(6) 0.9850(6) 0.6279(6)
Ag2 Ag 0.50921(3) 0.48195(2) 0.57822(2)
Ag4 Ag 0.48195(2) 0.97274(2) 0.42178(2)
Ag5 Ag 0.15746(3) 0.85138(2) 0.75511(2)
Ag6 Ag 0.49079(3) 0.51805(2) 0.42178(2)
Ag7 Ag 0.02726(2) 0.50921(3) 0.42178(2)
Ag8 Ag 0.69393(2) 0.84254(3) 0.75511(2)
O3 O 0.41820(26) 0.53113(19) 0.5695(2)
O4 O 0.11293(18) 0.58180(26) 0.5695(2)
O5 O 0.4486(4) 0.5974(3) 0.4628(2)
O6 O 0.1488(2) 0.5514(4) 0.4628(2)
O8 O 0.5514(4) 0.4026(3) 0.5372(2)
C10 C 0.2910(2) 0.5809(3) 0.5285(3)
C11 C 0.4191(3) 0.7101(2) 0.5285(3)
H8 H 0.2893 0.5775 0.4731
H9 H 0.4225 0.7118 0.4731
H10 H 0.2644 0.5267 0.5486
H11 H 0.4733 0.7377 0.5486
C12 C 0.2477(2) 0.6230(3) 0.5548(3)
C13 C 0.3770(3) 0.6247(2) 0.5548(3)
H12 H 0.3773 0.6245 0.6109
H13 H 0.2472 0.6227 0.6109
C14 C 0.4175(3) 0.5804(2) 0.5278(3)
C15 C 0.1629(2) 0.5825(3) 0.5278(3)
Se2 Se 0.56526(5) 0.90136(7) 0.68699(5)
Se3 Se 0.56803(7) 0.66944(5) 0.64634(5)
N3 N 0.6513(2) 0.9300(4) 0.7341(2)
N4 N 0.5967(4) 0.6121(3) 0.5992(2)
N5 N 0.0154(2) 0.4033(4) 0.5992(2)
N6 N 0.5745(2) 0.9926(3) 0.6761(2)
N7 N 0.6593(3) 0.7515(2) 0.6572(2)
N8 N 0.4182(2) 0.4255(2) 0.6761(2)
N9 N 0.0074(3) 0.5818(2) 0.6761(2)
C17 C 0.6768(8) 0.6509(6) 0.5933(6)
C19 C 0.7132(8) 0.7282(6) 0.6279(6)
C21 C 0.8003(8) 0.7724(6) 0.6283(6)
H15 H 0.8277 0.8218 0.6529
C23 C 0.8416(8) 0.7422(6) 0.5932(6)
H17 H 0.8972 0.7740 0.5923
C25 C 0.8091(8) 0.6693(6) 0.5592(6)
H19 H 0.8415 0.6539 0.5332
C27 C 0.7272(8) 0.6185(6) 0.5637(6)
H21 H 0.7042 0.5652 0.5486
Ag3 Ag 0.97274(2) 0.49079(3) 0.57822(2)
O9 O 0.8512(2) 0.4486(4) 0.5372(2)
Se1_2 Se 0.10141(5) 0.43197(7) 0.64634(5)
N2_2 N 0.0922(2) 0.3407(3) 0.6572(2)
C5_2 C 0.0150(6) 0.2868(8) 0.6279(6)
Ag5_2 Ag 0.14862(2) 0.30607(4) 0.75511(2)
Se2_2 Se 0.09864(7) 0.66389(9) 0.68699(5)
N3_2 N 0.0700(4) 0.7212(4) 0.7341(2)
C4_2 C 0.9741(6) 0.3232(8) 0.5933(6)
C6_2 C 0.9721(6) 0.1997(8) 0.6283(6)
H4_2 H 0.9941 0.1723 0.6529
C7_2 C 0.9006(6) 0.1584(8) 0.5932(6)
H5_2 H 0.8768 0.1028 0.5923
C8_2 C 0.8602(6) 0.1909(8) 0.5592(6)
H6_2 H 0.8124 0.1585 0.5332
C9_2 C 0.8913(6) 0.2728(8) 0.5637(6)
H7_2 H 0.8610 0.2958 0.5486
C16_2 C 0.9899(8) 0.6824(10) 0.7400(6)
C18_2 C 0.9535(8) 0.6051(10) 0.7054(6)
C20_2 C 0.8664(8) 0.5609(10) 0.7050(6)
H14_2 H 0.8390 0.5115 0.6804
C22_2 C 0.8251(8) 0.5911(10) 0.7401(6)
H16_2 H 0.7695 0.5593 0.7410
C24_2 C 0.8576(8) 0.6640(10) 0.7741(6)
H18_2 H 0.8252 0.6794 0.8001
C26_2 C 0.9395(8) 0.7148(10) 0.7696(6)
H20_2 H 0.9625 0.7681 0.7847
Se2_3 Se 0.33611(9) 0.43474(5) 0.68699(5)
N3_3 N 0.2788(4) 0.3487(2) 0.7341(2)
C16_3 C 0.3176(10) 0.3074(6) 0.7400(6)
C18_3 C 0.3949(10) 0.3483(6) 0.7054(6)
C20_3 C 0.4391(10) 0.3054(6) 0.7050(6)
H14_3 H 0.4885 0.3274 0.6804
C22_3 C 0.4089(10) 0.2339(6) 0.7401(6)
H16_3 H 0.4407 0.2101 0.7410
C24_3 C 0.3360(10) 0.1935(6) 0.7741(6)
H18_3 H 0.3206 0.1457 0.8001
C26_3 C 0.2852(10) 0.2246(6) 0.7696(6)
H20_3 H 0.2319 0.1943 0.7847
Ag8_2 Ag 0.36059(2) 0.17588(3) 0.08845(2)
Se2_4 Se 0.23192(5) 0.23470(7) 0.02033(5)
N3_4 N 0.3179(2) 0.2634(4) 0.0675(2)
N6_2 N 0.2411(2) 0.3260(3) 0.0095(2)
C16_4 C 0.3592(6) 0.3435(8) 0.0734(6)
C18_4 C 0.3183(6) 0.3799(8) 0.0388(6)
C20_4 C 0.3612(6) 0.4670(8) 0.0384(6)
H14_4 H 0.3392 0.4944 0.0138
C22_4 C 0.4327(6) 0.5083(8) 0.0735(6)
H16_4 H 0.4565 0.5639 0.0744
C24_4 C 0.4731(6) 0.4758(8) 0.1075(6)
H18_4 H 0.5209 0.5082 0.1335
C26_4 C 0.4420(6) 0.3939(8) 0.1030(6)
H20_4 H 0.4723 0.3709 0.1181
Ag1_2 Ag 0.18472(2) 0.36059(2) 0.91155(2)
O1_2 O 0.13554(19) 0.22040(18) 0.9028(2)
O2_2 O 0.0693(3) 0.1845(2) 0.7961(2)
C2_2 C 0.0420(2) 0.0856(2) 0.8881(3)
H3_2 H 0.0422 0.0861 0.9442
C3_2 C 0.0863(2) 0.1704(2) 0.8611(3)
N1_2 N 0.0546(3) 0.3179(2) 0.9325(2)
C4_3 C 0.0158(6) 0.3592(6) 0.9266(6)
H6_3 H 0.0128 0.5209 0.8665
C9_3 C 0.0482(6) 0.4420(6) 0.8970(6)
H7_3 H 0.1015 0.4723 0.8819
O7_2 O 0.2641(3) 0.4821(2) 0.8705(2)
C11_2 C 0.0858(3) 0.0434(2) 0.8618(3)
H9_2 H 0.0892 0.0451 0.8064
H11_2 H 0.1400 0.0710 0.8819
Se3_2 Se 0.23470(7) 0.00277(5) 0.97967(5)
N7_2 N 0.3260(3) 0.0848(2) 0.9905(2)
C19_2 C 0.3799(8) 0.0615(6) 0.9612(6)
C21_2 C 0.4670(8) 0.1057(6) 0.9616(6)
H15_2 H 0.4944 0.1551 0.9862
C23_2 C 0.5083(8) 0.0755(6) 0.9265(6)
H17_2 H 0.5639 0.1073 0.9256
C25_2 C 0.4758(8) 0.0026(6) 0.8925(6)
Ag2_2 Ag 0.17588(3) 0.81528(2) 0.91155(2)
O3_2 O 0.08487(26) 0.86446(19) 0.9028(2)
O5_2 O 0.1153(4) 0.9307(3) 0.7961(2)
O8_2 O 0.2181(4) 0.7359(3) 0.8705(2)
C13_2 C 0.0437(3) 0.9580(2) 0.8881(3)
H12_2 H 0.0440 0.9578 0.9442
C14_2 C 0.0842(3) 0.9137(2) 0.8611(3)
N4_2 N 0.2634(4) 0.9454(3) 0.9325(2)
C17_2 C 0.3435(8) 0.9842(6) 0.9266(6)
H19_2 H 0.5082 0.9872 0.8665
C27_2 C 0.3939(8) 0.9518(6) 0.8970(6)
H21_2 H 0.3709 0.8985 0.8819
Ag5_3 Ag 0.82412(3) 0.18472(2) 0.08845(2)
N9_2 N 0.6740(3) 0.9152(2) 0.0095(2)
Ag3_2 Ag 0.63941(2) 0.82412(3) 0.91155(2)
O4_2 O 0.77960(18) 0.91513(26) 0.9028(2)
O6_2 O 0.8155(2) 0.8847(4) 0.7961(2)
O9_2 O 0.5179(2) 0.7819(4) 0.8705(2)
C10_2 C 0.9577(2) 0.9142(3) 0.8618(3)
H8_2 H 0.9560 0.9108 0.8064
H10_2 H 0.9311 0.8600 0.8819
C12_2 C 0.9144(2) 0.9563(3) 0.8881(3)
H13_2 H 0.9139 0.9560 0.9442
C15_2 C 0.8296(2) 0.9158(3) 0.8611(3)
N5_2 N 0.6821(2) 0.7366(4) 0.9325(2)
N3_5 N 0.7366(4) 0.0546(4) 0.0675(2)
C16_5 C 0.6565(8) 0.0158(10) 0.0734(6)
H18_5 H 0.4918 0.0128 0.1335
C26_5 C 0.6061(8) 0.0482(10) 0.1030(6)
H20_5 H 0.6291 0.1015 0.1181
Ag5_4 Ag 0.81528(2) 0.63941(4) 0.08845(2)
Se2_5 Se 0.76530(7) 0.99723(9) 0.02033(5)
C18_5 C 0.6201(8) 0.9385(10) 0.0388(6)
C20_5 C 0.5330(8) 0.8943(10) 0.0384(6)
H14_5 H 0.5056 0.8449 0.0138
C22_5 C 0.4917(8) 0.9245(10) 0.0735(6)
H16_5 H 0.4361 0.8927 0.0744
C24_5 C 0.5242(8) 0.9974(10) 0.1075(6)
Se1_3 Se 0.76808(5) 0.76530(7) 0.97967(5)
N2_3 N 0.7589(2) 0.6740(3) 0.9905(2)
C4_4 C 0.6408(6) 0.6565(8) 0.9266(6)
C5_3 C 0.6817(6) 0.6201(8) 0.9612(6)
C6_3 C 0.6388(6) 0.5330(8) 0.9616(6)
H4_3 H 0.6608 0.5056 0.9862
C7_3 C 0.5673(6) 0.4917(8) 0.9265(6)
H5_3 H 0.5435 0.4361 0.9256
C8_3 C 0.5269(6) 0.5242(8) 0.8925(6)
H6_4 H 0.4791 0.4918 0.8665
C9_4 C 0.5580(6) 0.6061(8) 0.8970(6)
H7_4 H 0.5277 0.6291 0.8819
N3_6 N 0.9454(4) 0.6821(2) 0.0675(2)
C16_6 C 0.9842(10) 0.6408(6) 0.0734(6)
H18_6 H 0.9872 0.4791 0.1335
C26_6 C 0.9518(10) 0.5580(6) 0.1030(6)
H20_6 H 0.8985 0.5277 0.1181
C16_7 C 0.0259(6) 0.6768(8) 0.4067(6)
C17_3 C 0.0101(8) 0.3176(6) 0.2600(6)
C19_3 C 0.0465(8) 0.3949(6) 0.2946(6)
C20_6 C 0.0279(6) 0.8003(8) 0.3717(6)
C21_3 C 0.1336(8) 0.4391(6) 0.2950(6)
H14_6 H 0.0059 0.8277 0.3471
H15_3 H 0.1610 0.4885 0.3196
C22_6 C 0.0994(6) 0.8416(8) 0.4068(6)
C23_3 C 0.1749(8) 0.4089(6) 0.2599(6)
H16_6 H 0.1232 0.8972 0.4077
H17_3 H 0.2305 0.4407 0.2590
C24_6 C 0.1398(6) 0.8091(8) 0.4408(6)
C25_3 C 0.1424(8) 0.3360(6) 0.2259(6)
H18_7 H 0.1876 0.8415 0.4668
H19_3 H 0.1748 0.3206 0.1999
C26_7 C 0.1087(6) 0.7272(8) 0.4363(6)
C27_3 C 0.0605(8) 0.2852(6) 0.2304(6)
H20_7 H 0.1390 0.7042 0.4514
H21_3 H 0.0375 0.2319 0.2153
Ag1_3 Ag 0.85138(2) 0.69393(2) 0.24489(2)
O1_3 O 0.80220(19) 0.55374(18) 0.2362(2)
O2_3 O 0.7359(3) 0.5179(2) 0.1295(2)
C1_2 C 0.6232(2) 0.3757(2) 0.1952(3)
H1_2 H 0.6215 0.3774 0.1398
H2_2 H 0.5956 0.4023 0.2153
C2_3 C 0.7086(2) 0.4190(2) 0.2215(3)
H3_3 H 0.7088 0.4195 0.2776
C3_3 C 0.7529(2) 0.5038(2) 0.1945(3)
Se1_4 Se 0.66389(5) 0.56526(5) 0.31301(5)
N1_3 N 0.7212(3) 0.6513(2) 0.2659(2)
N2_4 N 0.5818(2) 0.5745(2) 0.3239(2)
C4_5 C 0.6824(6) 0.6926(6) 0.2600(6)
C5_4 C 0.6051(6) 0.6517(6) 0.2946(6)
C6_4 C 0.5609(6) 0.6946(6) 0.2950(6)
H4_4 H 0.5115 0.6726 0.3196
C7_4 C 0.5911(6) 0.7661(6) 0.2599(6)
H5_4 H 0.5593 0.7899 0.2590
C8_4 C 0.6640(6) 0.8065(6) 0.2259(6)
H6_5 H 0.6794 0.8543 0.1999
C9_5 C 0.7148(6) 0.7754(6) 0.2304(6)
H7_5 H 0.7681 0.8057 0.2153
Ag2_3 Ag 0.84254(3) 0.14862(2) 0.24489(2)
Ag3_3 Ag 0.30607(2) 0.15746(3) 0.24489(2)
O3_3 O 0.75153(26) 0.19780(19) 0.2362(2)
O4_3 O 0.44626(18) 0.24847(26) 0.2362(2)
O5_3 O 0.7819(4) 0.2641(3) 0.1295(2)
O6_3 O 0.4821(2) 0.2181(4) 0.1295(2)
O7_3 O 0.9307(3) 0.8155(2) 0.2039(2)
O8_3 O 0.8847(4) 0.0693(3) 0.2039(2)
O9_3 O 0.1845(2) 0.1153(4) 0.2039(2)
C10_3 C 0.6243(2) 0.2476(3) 0.1952(3)
C11_3 C 0.7524(3) 0.3768(2) 0.1952(3)
H8_3 H 0.6226 0.2442 0.1398
H9_3 H 0.7558 0.3785 0.1398
H10_3 H 0.5977 0.1934 0.2153
H11_3 H 0.8066 0.4044 0.2153
C12_3 C 0.5810(2) 0.2897(3) 0.2215(3)
C13_3 C 0.7103(3) 0.2914(2) 0.2215(3)
H12_3 H 0.7106 0.2912 0.2776
H13_3 H 0.5805 0.2894 0.2776
C14_3 C 0.7508(3) 0.2471(2) 0.1945(3)
C15_3 C 0.4962(2) 0.2492(3) 0.1945(3)
Se2_6 Se 0.89859(5) 0.56803(7) 0.35366(5)
Se3_3 Se 0.90136(7) 0.33611(5) 0.31301(5)
N3_7 N 0.9846(2) 0.5967(4) 0.4008(2)
N4_3 N 0.9300(4) 0.2788(3) 0.2659(2)
N5_3 N 0.3487(2) 0.0700(4) 0.2659(2)
N6_3 N 0.9078(2) 0.6593(3) 0.3428(2)
N7_3 N 0.9926(3) 0.4182(2) 0.3239(2)
N8_2 N 0.7515(2) 0.0922(2) 0.3428(2)
N9_3 N 0.3407(3) 0.2485(2) 0.3428(2)
C18_6 C 0.9850(6) 0.7132(8) 0.3721(6)
Se1_5 Se 0.43474(5) 0.09864(7) 0.31301(5)
N2_5 N 0.4255(2) 0.0074(3) 0.3239(2)
Se2_7 Se 0.43197(7) 0.33056(9) 0.35366(5)
N3_8 N 0.4033(4) 0.3879(4) 0.4008(2)
C16_8 C 0.3232(8) 0.3491(10) 0.4067(6)
C18_7 C 0.2868(8) 0.2718(10) 0.3721(6)
C20_7 C 0.1997(8) 0.2276(10) 0.3717(6)
H14_7 H 0.1723 0.1782 0.3471
C22_7 C 0.1584(8) 0.2578(10) 0.4068(6)
H16_7 H 0.1028 0.2260 0.4077
C24_7 C 0.1909(8) 0.3307(10) 0.4408(6)
H18_8 H 0.1585 0.3461 0.4668
C26_8 C 0.2728(8) 0.3815(10) 0.4363(6)
H20_8 H 0.2958 0.4348 0.4514
C4_6 C 0.3074(6) 0.9899(8) 0.2600(6)
C5_5 C 0.3483(6) 0.9535(8) 0.2946(6)
C6_5 C 0.3054(6) 0.8664(8) 0.2950(6)
H4_5 H 0.3274 0.8390 0.3196
C7_5 C 0.2339(6) 0.8251(8) 0.2599(6)
H5_5 H 0.2101 0.7695 0.2590
C8_5 C 0.1935(6) 0.8576(8) 0.2259(6)
H6_6 H 0.1457 0.8252 0.1999
C9_6 C 0.2246(6) 0.9395(8) 0.2304(6)
H7_6 H 0.1943 0.9625 0.2153
Se2_8 Se 0.66944(9) 0.10141(5) 0.35366(5)
N3_9 N 0.6121(4) 0.0154(2) 0.4008(2)
C18_8 C 0.7282(10) 0.0150(6) 0.3721(6)
C16_9 C 0.6509(10) 0.9741(6) 0.4067(6)
C20_8 C 0.7724(10) 0.9721(6) 0.3717(6)
H14_8 H 0.8218 0.9941 0.3471
C22_8 C 0.7422(10) 0.9006(6) 0.4068(6)
H16_8 H 0.7740 0.8768 0.4077
C24_8 C 0.6693(10) 0.8602(6) 0.4408(6)
H18_9 H 0.6539 0.8124 0.4668
C26_9 C 0.6185(10) 0.8913(6) 0.4363(6)
H20_9 H 0.5652 0.8610 0.4514
O1_4 O 0.53113(19) 0.11293(18) 0.4305(2)
C1_3 C 0.7101(2) 0.2910(2) 0.4715(3)
H1_3 H 0.7118 0.2893 0.5269
H2_3 H 0.7377 0.2644 0.4514
C2_4 C 0.6247(2) 0.2477(2) 0.4452(3)
H3_4 H 0.6245 0.2472 0.3891
C3_4 C 0.5804(2) 0.1629(2) 0.4722(3)
O3_4 O 0.58180(26) 0.46887(19) 0.4305(2)
O4_4 O 0.88707(18) 0.41820(26) 0.4305(2)
C10_4 C 0.7090(2) 0.4191(3) 0.4715(3)
C11_4 C 0.5809(3) 0.2899(2) 0.4715(3)
H8_4 H 0.7107 0.4225 0.5269
H9_4 H 0.5775 0.2882 0.5269
H10_4 H 0.7356 0.4733 0.4514
H11_4 H 0.5267 0.2623 0.4514
C12_4 C 0.7523(2) 0.3770(3) 0.4452(3)
C13_4 C 0.6230(3) 0.3753(2) 0.4452(3)
H12_4 H 0.6227 0.3755 0.3891
H13_4 H 0.7528 0.3773 0.3891
C14_4 C 0.5825(3) 0.4196(2) 0.4722(3)
C15_4 C 0.8371(2) 0.4175(3) 0.4722(3)
O4_5 O 0.22040(18) 0.08487(26) 0.0972(2)
C10_5 C 0.0423(2) 0.0858(3) 0.1382(3)
H8_5 H 0.0440 0.0892 0.1936
H10_5 H 0.0689 0.1400 0.1181
C12_5 C 0.0856(2) 0.0437(3) 0.1119(3)
H13_5 H 0.0861 0.0440 0.0558
C15_5 C 0.1704(2) 0.0842(3) 0.1389(3)
O3_5 O 0.91513(26) 0.13554(19) 0.0972(2)
C13_5 C 0.9563(3) 0.0420(2) 0.1119(3)
H12_5 H 0.9560 0.0422 0.0558
C14_5 C 0.9158(3) 0.0863(2) 0.1389(3)
O1_5 O 0.86446(19) 0.77960(18) 0.0972(2)
C2_5 C 0.9580(2) 0.9144(2) 0.1119(3)
H3_5 H 0.9578 0.9139 0.0558
C3_5 C 0.9137(2) 0.8296(2) 0.1389(3)
C11_5 C 0.9142(3) 0.9566(2) 0.1382(3)
H9_5 H 0.9108 0.9549 0.1936
H11_5 H 0.8600 0.9290 0.1181
O1_6 O 0.19780(19) 0.44626(18) 0.7638(2)
C1_4 C 0.3768(2) 0.6243(2) 0.8048(3)
H1_4 H 0.3785 0.6226 0.8602
H2_4 H 0.4044 0.5977 0.7847
C2_6 C 0.2914(2) 0.5810(2) 0.7785(3)
H3_6 H 0.2912 0.5805 0.7224
C3_6 C 0.2471(2) 0.4962(2) 0.8055(3)
O3_6 O 0.24847(26) 0.80220(19) 0.7638(2)
O4_6 O 0.55374(18) 0.75153(26) 0.7638(2)
C10_6 C 0.3757(2) 0.7524(3) 0.8048(3)
C11_6 C 0.2476(3) 0.6232(2) 0.8048(3)
H8_6 H 0.3774 0.7558 0.8602
H9_6 H 0.2442 0.6215 0.8602
H10_6 H 0.4023 0.8066 0.7847
H11_6 H 0.1934 0.5956 0.7847
C12_6 C 0.4190(2) 0.7103(3) 0.7785(3)
C13_6 C 0.2897(3) 0.7086(2) 0.7785(3)
H12_6 H 0.2894 0.7088 0.7224
H13_6 H 0.4195 0.7106 0.7224
C14_6 C 0.2492(3) 0.7529(2) 0.8055(3)
C15_6 C 0.5038(2) 0.7508(3) 0.8055(3)
N8_3 N 0.0848(2) 0.7589(2) 0.0095(2)
Se2_9 Se 0.00277(9) 0.76808(5) 0.02033(5)
C18_9 C 0.0615(10) 0.6817(6) 0.0388(6)
C20_9 C 0.1057(10) 0.6388(6) 0.0384(6)
H14_9 H 0.1551 0.6608 0.0138
C22_9 C 0.0755(10) 0.5673(6) 0.0735(6)
H16_9 H 0.1073 0.5435 0.0744
C24_9 C 0.0026(10) 0.5269(6) 0.1075(6)
C1_5 C 0.0434(2) 0.9577(2) 0.1382(3)
H1_5 H 0.0451 0.9560 0.1936
H2_5 H 0.0710 0.9311 0.1181
C1_6 C 0.9566(2) 0.0423(2) 0.8618(3)
H1_6 H 0.9549 0.0440 0.8064
H2_6 H 0.9290 0.0689 0.8819
Se1_6 Se 0.99723(5) 0.23192(5) 0.97967(5)
N2_6 N 0.9152(2) 0.2411(2) 0.9905(2)
C5_6 C 0.9385(6) 0.3183(6) 0.9612(6)
C6_6 C 0.8943(6) 0.3612(6) 0.9616(6)
H4_6 H 0.8449 0.3392 0.9862
C7_6 C 0.9245(6) 0.4327(6) 0.9265(6)
H5_6 H 0.8927 0.4565 0.9256
C8_6 C 0.9974(6) 0.4731(6) 0.8925(6)
loop_
_geom_bond_atom_site_label_1
_geom_bond_atom_site_label_2
_geom_bond_site_symmetry_1
_geom_bond_site_symmetry_2
H4 C6 1_555 1_555
C7 C6 1_555 1_555
H5 C7 1_555 1_555
C8 C7 1_555 1_555
H6 C8 1_555 1_555
C9 C4 1_555 1_555
H7 C9 1_555 1_555
O7 Ag1 1_555 1_555
C16 C18 1_555 1_555
C20 C18 1_555 1_555
H14 C20 1_555 1_555
C22 C20 1_555 1_555
H16 C22 1_555 1_555
C24 C22 1_555 1_555
H18 C24 1_555 1_555
C26 C16 1_555 1_555
H20 C26 1_555 1_555
C8 C9 1_555 1_555
C24 C26 1_555 1_555
O1 C3 1_555 1_555
O2 C3 1_555 1_555
C1 H1 1_555 1_555
H2 C1 1_555 1_555
C2 C1 1_555 1_555
H3 C2 1_555 1_555
C3 C2 1_555 1_555
Se1 N1 1_555 1_555
N2 Se1 1_555 1_555
C5 N2 1_555 1_555
Ag2 O3 1_555 1_555
Ag4 O2 1_555 1_555
Ag5 N2 1_555 1_555
Ag6 O5 1_555 1_555
Ag7 O6 1_555 1_555
Ag8 N3 1_555 1_555
O3 C14 1_555 1_555
O4 C15 1_555 1_555
O5 C14 1_555 1_555
O6 C15 1_555 1_555
O8 Ag2 1_555 1_555
C10 H8 1_555 1_555
C11 C2 1_555 1_555
H9 C11 1_555 1_555
H10 C10 1_555 1_555
H11 C11 1_555 1_555
C12 C1 1_555 1_555
C13 C10 1_555 1_555
H12 C13 1_555 1_555
H13 C12 1_555 1_555
C14 C13 1_555 1_555
C15 C12 1_555 1_555
Se2 N3 1_555 1_555
Se3 N4 1_555 1_555
N4 Ag2 1_555 1_555
N7 Ag8 1_555 1_555
N8 Ag2 1_555 1_555
C17 N4 1_555 1_555
C19 N7 1_555 1_555
C21 C19 1_555 1_555
H15 C21 1_555 1_555
C23 C21 1_555 1_555
H17 C23 1_555 1_555
C25 C23 1_555 1_555
H19 C25 1_555 1_555
C27 C17 1_555 1_555
H21 C27 1_555 1_555
C10 C12 1_555 1_555
C11 C13 1_555 1_555
Se2 N6 1_555 1_555
Se3 N7 1_555 1_555
C17 C19 1_555 1_555
C25 C27 1_555 1_555
O9 Ag3 1_555 1_555
Se1_2 N5 1_555 1_555
N2_2 Se1_2 1_555 1_555
C5_2 N2_2 1_555 1_555
Ag5_2 N2_2 1_555 1_555
Ag5 N3_2 1_555 1_555
Se2_2 N3_2 1_555 1_555
Se2_2 N9 1_555 1_555
H4_2 C6_2 1_555 1_555
C7_2 C6_2 1_555 1_555
H5_2 C7_2 1_555 1_555
C8_2 C7_2 1_555 1_555
H6_2 C8_2 1_555 1_555
C9_2 C4_2 1_555 1_555
H7_2 C9_2 1_555 1_555
C16_2 C18_2 1_555 1_555
C20_2 C18_2 1_555 1_555
H14_2 C20_2 1_555 1_555
C22_2 C20_2 1_555 1_555
H16_2 C22_2 1_555 1_555
C24_2 C22_2 1_555 1_555
H18_2 C24_2 1_555 1_555
C26_2 C16_2 1_555 1_555
H20_2 C26_2 1_555 1_555
C8_2 C9_2 1_555 1_555
C24_2 C26_2 1_555 1_555
Ag5_2 N3_3 1_555 1_555
Se2_3 N3_3 1_555 1_555
N3_3 C16_3 1_555 1_555
C16_3 C18_3 1_555 1_555
C18_3 N8 1_555 1_555
C20_3 C18_3 1_555 1_555
H14_3 C20_3 1_555 1_555
C22_3 C20_3 1_555 1_555
H16_3 C22_3 1_555 1_555
C24_3 C22_3 1_555 1_555
H18_3 C24_3 1_555 1_555
C26_3 C16_3 1_555 1_555
H20_3 C26_3 1_555 1_555
Se2_3 N8 1_555 1_555
C24_3 C26_3 1_555 1_555
Ag8_2 N3_4 1_555 1_555
Se2_4 N3_4 1_555 1_555
N3_4 C16_4 1_555 1_555
C16_4 C18_4 1_555 1_555
C18_4 N6_2 1_555 1_555
C20_4 C18_4 1_555 1_555
H14_4 C20_4 1_555 1_555
C22_4 C20_4 1_555 1_555
H16_4 C22_4 1_555 1_555
C24_4 C22_4 1_555 1_555
H18_4 C24_4 1_555 1_555
C26_4 C16_4 1_555 1_555
H20_4 C26_4 1_555 1_555
Se2_4 N6_2 1_555 1_555
C24_4 C26_4 1_555 1_555
Ag1_2 O1_2 1_555 1_555
O1_2 C3_2 1_555 1_555
O2_2 C3_2 1_555 1_555
H3_2 C2_2 1_555 1_555
C3_2 C2_2 1_555 1_555
N1_2 Ag1_2 1_555 1_555
C4_3 N1_2 1_555 1_555
C9_3 C4_3 1_555 1_555
H7_3 C9_3 1_555 1_555
Ag5_2 O2_2 1_555 1_555
O7_2 Ag1_2 1_555 1_555
C11_2 C2_2 1_555 1_555
H9_2 C11_2 1_555 1_555
H11_2 C11_2 1_555 1_555
C19_2 N7_2 1_555 1_555
C21_2 C19_2 1_555 1_555
H15_2 C21_2 1_555 1_555
C23_2 C21_2 1_555 1_555
H17_2 C23_2 1_555 1_555
C25_2 C23_2 1_555 1_555
Se3_2 N7_2 1_555 1_555
Ag2_2 O3_2 1_555 1_555
Ag5 O5_2 1_555 1_555
O3_2 C14_2 1_555 1_555
O5_2 C14_2 1_555 1_555
O8_2 Ag2_2 1_555 1_555
H12_2 C13_2 1_555 1_555
C14_2 C13_2 1_555 1_555
N4_2 Ag2_2 1_555 1_555
C17_2 N4_2 1_555 1_555
C27_2 C17_2 1_555 1_555
H21_2 C27_2 1_555 1_555
Ag3_2 O4_2 1_555 1_555
Ag8 O6_2 1_555 1_555
O4_2 C15_2 1_555 1_555
O6_2 C15_2 1_555 1_555
O9_2 Ag3_2 1_555 1_555
C10_2 H8_2 1_555 1_555
H10_2 C10_2 1_555 1_555
H13_2 C12_2 1_555 1_555
C15_2 C12_2 1_555 1_555
N5_2 Ag3_2 1_555 1_555
C10_2 C12_2 1_555 1_555
Ag5_3 N3_5 1_555 1_555
N3_5 C16_5 1_555 1_555
C26_5 C16_5 1_555 1_555
H20_5 C26_5 1_555 1_555
C18_5 N9_2 1_555 1_555
C20_5 C18_5 1_555 1_555
H14_5 C20_5 1_555 1_555
C22_5 C20_5 1_555 1_555
H16_5 C22_5 1_555 1_555
C24_5 C22_5 1_555 1_555
Se2_5 N9_2 1_555 1_555
Se1_3 N5_2 1_555 1_555
N2_3 Se1_3 1_555 1_555
C4_4 N5_2 1_555 1_555
C5_3 N2_3 1_555 1_555
C6_3 C5_3 1_555 1_555
H4_3 C6_3 1_555 1_555
C7_3 C6_3 1_555 1_555
H5_3 C7_3 1_555 1_555
C8_3 C7_3 1_555 1_555
H6_4 C8_3 1_555 1_555
C9_4 C4_4 1_555 1_555
H7_4 C9_4 1_555 1_555
C4_4 C5_3 1_555 1_555
C8_3 C9_4 1_555 1_555
Ag5_4 N3_6 1_555 1_555
N3_6 C16_6 1_555 1_555
C26_6 C16_6 1_555 1_555
H20_6 C26_6 1_555 1_555
C21_3 C19_3 1_555 1_555
H14_6 C20_6 1_555 1_555
H15_3 C21_3 1_555 1_555
C22_6 C20_6 1_555 1_555
C23_3 C21_3 1_555 1_555
H16_6 C22_6 1_555 1_555
H17_3 C23_3 1_555 1_555
C24_6 C22_6 1_555 1_555
C25_3 C23_3 1_555 1_555
H18_7 C24_6 1_555 1_555
H19_3 C25_3 1_555 1_555
C26_7 C16_7 1_555 1_555
C27_3 C17_3 1_555 1_555
H20_7 C26_7 1_555 1_555
H21_3 C27_3 1_555 1_555
C17_3 C19_3 1_555 1_555
C24_6 C26_7 1_555 1_555
C25_3 C27_3 1_555 1_555
Ag1_3 O1_3 1_555 1_555
O1_3 C3_3 1_555 1_555
O2_3 C3_3 1_555 1_555
C1_2 H1_2 1_555 1_555
H2_2 C1_2 1_555 1_555
C2_3 C1_2 1_555 1_555
H3_3 C2_3 1_555 1_555
C3_3 C2_3 1_555 1_555
Se1_4 N1_3 1_555 1_555
N1_3 Ag1_3 1_555 1_555
N2_4 Se1_4 1_555 1_555
C4_5 N1_3 1_555 1_555
C5_4 N2_4 1_555 1_555
C6_4 C5_4 1_555 1_555
H4_4 C6_4 1_555 1_555
C7_4 C6_4 1_555 1_555
H5_4 C7_4 1_555 1_555
C8_4 C7_4 1_555 1_555
H6_5 C8_4 1_555 1_555
C9_5 C4_5 1_555 1_555
H7_5 C9_5 1_555 1_555
Ag2_3 O3_3 1_555 1_555
Ag3_3 O4_3 1_555 1_555
Ag5_4 O2_3 1_555 1_555
Ag6 N2_4 1_555 1_555
Ag5_3 O5_3 1_555 1_555
Ag8_2 O6_3 1_555 1_555
O3_3 C14_3 1_555 1_555
O4_3 C15_3 1_555 1_555
O5_3 C14_3 1_555 1_555
O6_3 C15_3 1_555 1_555
O7_3 Ag1_3 1_555 1_555
O8_3 Ag2_3 1_555 1_555
O9_3 Ag3_3 1_555 1_555
C10_3 H8_3 1_555 1_555
C11_3 C2_3 1_555 1_555
H9_3 C11_3 1_555 1_555
H10_3 C10_3 1_555 1_555
H11_3 C11_3 1_555 1_555
C12_3 C1_2 1_555 1_555
C13_3 C10_3 1_555 1_555
H12_3 C13_3 1_555 1_555
H13_3 C12_3 1_555 1_555
C14_3 C13_3 1_555 1_555
C15_3 C12_3 1_555 1_555
Se2_6 N3_7 1_555 1_555
Se3_3 N4_3 1_555 1_555
N4_3 Ag2_3 1_555 1_555
N5_3 Ag3_3 1_555 1_555
N6_3 Ag1_3 1_555 1_555
N8_2 Ag2_3 1_555 1_555
N9_3 Ag3_3 1_555 1_555
C18_6 N6_3 1_555 1_555
C4_5 C5_4 1_555 1_555
C8_4 C9_5 1_555 1_555
C10_3 C12_3 1_555 1_555
C11_3 C13_3 1_555 1_555
Se2_6 N6_3 1_555 1_555
Se3_3 N7_3 1_555 1_555
Se1_5 N5_3 1_555 1_555
N2_5 Se1_5 1_555 1_555
Ag6 N3_8 1_555 1_555
Se2_7 N3_8 1_555 1_555
N3_8 C16_8 1_555 1_555
C16_8 C18_7 1_555 1_555
C18_7 N9_3 1_555 1_555
C20_7 C18_7 1_555 1_555
H14_7 C20_7 1_555 1_555
C22_7 C20_7 1_555 1_555
H16_7 C22_7 1_555 1_555
C24_7 C22_7 1_555 1_555
H18_8 C24_7 1_555 1_555
C26_8 C16_8 1_555 1_555
H20_8 C26_8 1_555 1_555
Se2_7 N9_3 1_555 1_555
C24_7 C26_8 1_555 1_555
C6_5 C5_5 1_555 1_555
H4_5 C6_5 1_555 1_555
C7_5 C6_5 1_555 1_555
H5_5 C7_5 1_555 1_555
C8_5 C7_5 1_555 1_555
H6_6 C8_5 1_555 1_555
C9_6 C4_6 1_555 1_555
H7_6 C9_6 1_555 1_555
C4_6 C5_5 1_555 1_555
C8_5 C9_6 1_555 1_555
Se2_8 N3_9 1_555 1_555
C18_8 N8_2 1_555 1_555
Se2_8 N8_2 1_555 1_555
H14_8 C20_8 1_555 1_555
C22_8 C20_8 1_555 1_555
H16_8 C22_8 1_555 1_555
C24_8 C22_8 1_555 1_555
H18_9 C24_8 1_555 1_555
C26_9 C16_9 1_555 1_555
H20_9 C26_9 1_555 1_555
C24_8 C26_9 1_555 1_555
O1_4 C3_4 1_555 1_555
O7 C3_4 1_555 1_555
C1_3 H1_3 1_555 1_555
H2_3 C1_3 1_555 1_555
C2_4 C1_3 1_555 1_555
H3_4 C2_4 1_555 1_555
C3_4 C2_4 1_555 1_555
Ag6 O3_4 1_555 1_555
O3_4 C14_4 1_555 1_555
O4_4 C15_4 1_555 1_555
O8 C14_4 1_555 1_555
O9 C15_4 1_555 1_555
C10_4 H8_4 1_555 1_555
C11_4 C2_4 1_555 1_555
H9_4 C11_4 1_555 1_555
H10_4 C10_4 1_555 1_555
H11_4 C11_4 1_555 1_555
C12_4 C1_3 1_555 1_555
C13_4 C10_4 1_555 1_555
H12_4 C13_4 1_555 1_555
H13_4 C12_4 1_555 1_555
C14_4 C13_4 1_555 1_555
C15_4 C12_4 1_555 1_555
C10_4 C12_4 1_555 1_555
C11_4 C13_4 1_555 1_555
Ag8_2 O4_5 1_555 1_555
O4_5 C15_5 1_555 1_555
O9_3 C15_5 1_555 1_555
C10_5 H8_5 1_555 1_555
H10_5 C10_5 1_555 1_555
H13_5 C12_5 1_555 1_555
C15_5 C12_5 1_555 1_555
C10_5 C12_5 1_555 1_555
Ag5_3 O3_5 1_555 1_555
O3_5 C14_5 1_555 1_555
O8_3 C14_5 1_555 1_555
H12_5 C13_5 1_555 1_555
C14_5 C13_5 1_555 1_555
Ag5_4 O1_5 1_555 1_555
O1_5 C3_5 1_555 1_555
O7_3 C3_5 1_555 1_555
H3_5 C2_5 1_555 1_555
C3_5 C2_5 1_555 1_555
C11_5 C2_5 1_555 1_555
H9_5 C11_5 1_555 1_555
H11_5 C11_5 1_555 1_555
Ag5_2 O1_6 1_555 1_555
O1_6 C3_6 1_555 1_555
O7_2 C3_6 1_555 1_555
C1_4 H1_4 1_555 1_555
H2_4 C1_4 1_555 1_555
C2_6 C1_4 1_555 1_555
H3_6 C2_6 1_555 1_555
C3_6 C2_6 1_555 1_555
Ag5 O3_6 1_555 1_555
Ag8 O4_6 1_555 1_555
O3_6 C14_6 1_555 1_555
O4_6 C15_6 1_555 1_555
O8_2 C14_6 1_555 1_555
O9_2 C15_6 1_555 1_555
C10_6 H8_6 1_555 1_555
C11_6 C2_6 1_555 1_555
H9_6 C11_6 1_555 1_555
H10_6 C10_6 1_555 1_555
H11_6 C11_6 1_555 1_555
C12_6 C1_4 1_555 1_555
C13_6 C10_6 1_555 1_555
H12_6 C13_6 1_555 1_555
H13_6 C12_6 1_555 1_555
C14_6 C13_6 1_555 1_555
C15_6 C12_6 1_555 1_555
C10_6 C12_6 1_555 1_555
C11_6 C13_6 1_555 1_555
C18_9 N8_3 1_555 1_555
C20_9 C18_9 1_555 1_555
H14_9 C20_9 1_555 1_555
C22_9 C20_9 1_555 1_555
H16_9 C22_9 1_555 1_555
C24_9 C22_9 1_555 1_555
Se2_9 N8_3 1_555 1_555
C1_5 H1_5 1_555 1_555
H2_5 C1_5 1_555 1_555
C1_6 H1_6 1_555 1_555
H2_6 C1_6 1_555 1_555
N2_6 Se1_6 1_555 1_555
C5_6 N2_6 1_555 1_555
C6_6 C5_6 1_555 1_555
H4_6 C6_6 1_555 1_555
C7_6 C6_6 1_555 1_555
H5_6 C7_6 1_555 1_555
C8_6 C7_6 1_555 1_555

#END
