
###############################################################################
#
# This file contains modified crystal structure data generated from the
# MOF subset of the Cambridge Structural Database (CSD) v543 
# hosted by the Cambridge Crystallographic Data Centre (CCDC).
#
# This work is licensed under the Creative Commons
# Attribution-NonCommercial-ShareAlike 4.0 International License.
# To view a copy of this license, visit
# http://creativecommons.org/licenses/by-nc-sa/4.0/
# or send a letter to
# Creative Commons, PO Box 1866, Mountain View, CA 94042, USA.
#
# CIF created using the CSD Python API on 29 September 2022
# The structure has been converted into the P1 space group
# The structure has a 3D framework
# The original CSD entry YIWSEE is in the cubic crystal system
# The framework has been calculated to contain at least 10.0% void space
# The void calculation uses a probe of radius 1.32A, grid spacing 0.4
#
###############################################################################

data_YIWSEE
_chemical_formula_moiety         '(C768 H1056 Cu48 N96 O144)n'
_symmetry_cell_setting           triclinic
_symmetry_space_group_name_H-M   'P 1'
_symmetry_Int_Tables_number      1
_space_group_name_Hall           'P 1'
loop_
_symmetry_equiv_pos_site_id
_symmetry_equiv_pos_as_xyz
1 x,y,z
_cell_length_a                   30.69(2)
_cell_length_b                   30.69(2)
_cell_length_c                   30.69(2)
_cell_angle_alpha                90
_cell_angle_beta                 90
_cell_angle_gamma                90
_cell_volume                     28906.2
loop_
_atom_site_label
_atom_site_type_symbol
_atom_site_fract_x
_atom_site_fract_y
_atom_site_fract_z
O10 O 0.0218(2) 0.80376(18) 0.19864(18)
O12 O 0.02732(18) 0.79630(17) 0.10870(16)
C42 C 0.0172(4) 0.8226(5) 0.2912(3)
H52 H 0.0458 0.8270 0.2776
H53 H 0.0140 0.7919 0.2996
H54 H 0.0147 0.8411 0.3171
H55 H 0.0178 0.8832 0.2293
H62 H 0.0250 0.8161 0.0228
C48 C 0.0164(4) 0.8823(4) 0.0774(4)
H64 H 0.0097 0.8962 0.1053
H65 H 0.0146 0.9040 0.0540
H66 H 0.0459 0.8701 0.0783
Cu6 Cu 0.04185(3) 0.75834(3) 0.15759(3)
Cu1 Cu 0.65759(3) 0.54185(3) 0.25834(3)
N1 N 0.6635(2) 0.60735(19) 0.2845(2)
N2 N 0.7712(2) 0.68323(18) 0.2565(2)
O1 O 0.70674(17) 0.54746(19) 0.21909(18)
O2 O 0.69864(18) 0.4782(2) 0.19624(18)
O3 O 0.61708(17) 0.54394(18) 0.20746(18)
O4 O 0.60870(16) 0.47268(18) 0.20370(17)
C1 C 0.7186(3) 0.5142(3) 0.1960(3)
C2 C 0.7589(4) 0.5183(4) 0.1654(4)
C3 C 0.7786(3) 0.5646(3) 0.1716(3)
H1 H 0.8032 0.5684 0.1516
H2 H 0.7888 0.5679 0.2017
H3 H 0.7563 0.5866 0.1654
C4 C 0.7912(3) 0.4828(4) 0.1774(5)
H4 H 0.7776 0.4542 0.1730
H5 H 0.7996 0.4860 0.2081
H6 H 0.8171 0.4853 0.1589
C5 C 0.7421(4) 0.5113(4) 0.1192(4)
H7 H 0.7293 0.4822 0.1168
H8 H 0.7664 0.5140 0.0986
H9 H 0.7199 0.5333 0.1125
C6 C 0.6006(3) 0.5102(3) 0.1906(3)
C7 C 0.5686(3) 0.5165(3) 0.1544(3)
C8 C 0.5636(4) 0.5599(3) 0.1367(3)
H10 H 0.5562 0.5802 0.1602
H11 H 0.5403 0.5599 0.1149
H12 H 0.5910 0.5690 0.1230
C9 C 0.5226(4) 0.5049(4) 0.1728(4)
H13 H 0.5152 0.5250 0.1965
H14 H 0.5228 0.4750 0.1839
H15 H 0.5009 0.5074 0.1495
C10 C 0.5774(4) 0.4836(4) 0.1177(4)
H16 H 0.6053 0.4903 0.1038
H17 H 0.5540 0.4854 0.0960
H18 H 0.5783 0.4541 0.1299
C11 C 0.6342(3) 0.6231(3) 0.3117(3)
H19 H 0.6080 0.6072 0.3163
C12 C 0.6401(3) 0.6617(3) 0.3336(3)
H20 H 0.6183 0.6723 0.3528
C13 C 0.6776(3) 0.6845(3) 0.3276(3)
H21 H 0.6819 0.7113 0.3426
C14 C 0.7086(3) 0.6694(3) 0.3004(3)
C15 C 0.6995(3) 0.6305(3) 0.2792(3)
H22 H 0.7206 0.6197 0.2593
C16 C 0.7471(2) 0.6952(3) 0.2907(3)
N3 N 0.7845(2) 0.8365(2) 0.39265(19)
N4 N 0.7565(2) 0.7288(2) 0.31677(18)
C17 C 0.8117(3) 0.8658(3) 0.3769(3)
H23 H 0.8163 0.8920 0.3928
C18 C 0.8336(3) 0.8599(3) 0.3383(3)
H24 H 0.8528 0.8817 0.3277
C19 C 0.8276(3) 0.8224(3) 0.3155(3)
H25 H 0.8426 0.8181 0.2887
C20 C 0.8004(3) 0.7914(3) 0.3306(3)
C21 C 0.7792(3) 0.8005(3) 0.3695(3)
H26 H 0.7593 0.7794 0.3803
C22 C 0.7907(3) 0.7529(2) 0.3048(3)
N5 N 0.89265(19) 0.7155(2) 0.1635(2)
N6 N 0.81677(18) 0.7435(2) 0.2712(2)
C23 C 0.8769(3) 0.6883(3) 0.1342(3)
H27 H 0.8928 0.6837 0.1080
C24 C 0.8383(3) 0.6664(3) 0.1401(3)
H28 H 0.8277 0.6472 0.1183
C25 C 0.8155(3) 0.6724(3) 0.1776(3)
H29 H 0.7887 0.6574 0.1819
C26 C 0.8306(3) 0.6996(3) 0.2086(3)
C27 C 0.8695(3) 0.7208(3) 0.1995(3)
H30 H 0.8803 0.7407 0.2206
C28 C 0.8048(3) 0.7093(3) 0.2471(2)
Cu2 Cu 0.75834(3) 0.84241(3) 0.45815(3)
O5 O 0.71909(18) 0.79326(17) 0.45254(19)
O6 O 0.69624(18) 0.80136(18) 0.5218(2)
O7 O 0.70746(18) 0.88292(17) 0.45606(18)
O8 O 0.70370(17) 0.89130(16) 0.52732(18)
C29 C 0.6960(3) 0.7814(3) 0.4858(3)
C30 C 0.6654(4) 0.7411(4) 0.4817(4)
C31 C 0.6716(3) 0.7214(3) 0.4354(3)
H31 H 0.6516 0.6968 0.4316
H32 H 0.7017 0.7112 0.4321
H33 H 0.6654 0.7437 0.4134
C32 C 0.6774(5) 0.7088(3) 0.5172(4)
H34 H 0.6730 0.7224 0.5458
H35 H 0.7081 0.7004 0.5140
H36 H 0.6589 0.6829 0.5147
C33 C 0.6192(4) 0.7579(4) 0.4887(4)
H37 H 0.6168 0.7707 0.5178
H38 H 0.5986 0.7336 0.4860
H39 H 0.6125 0.7801 0.4667
C34 C 0.6906(3) 0.8994(3) 0.4898(3)
C35 C 0.6544(3) 0.9314(3) 0.4835(3)
C36 C 0.6367(3) 0.9364(4) 0.4401(3)
H40 H 0.6602 0.9438 0.4198
H41 H 0.6149 0.9597 0.4401
H42 H 0.6230 0.9090 0.4310
C37 C 0.6728(4) 0.9774(4) 0.4951(4)
H43 H 0.6965 0.9848 0.4750
H44 H 0.6839 0.9772 0.5250
H45 H 0.6495 0.9991 0.4926
C38 C 0.6177(4) 0.9226(4) 0.5164(4)
H46 H 0.6038 0.8947 0.5097
H47 H 0.5960 0.9460 0.5146
H48 H 0.6299 0.9217 0.5459
Cu3 Cu 0.95815(3) 0.74166(3) 0.15759(3)
O9 O 0.95254(19) 0.78091(18) 0.20674(17)
O11 O 0.95606(18) 0.79254(18) 0.11708(17)
C39 C 0.9858(3) 0.8040(3) 0.2186(3)
C40 C 0.9817(4) 0.8346(4) 0.2589(4)
C41 C 0.9354(3) 0.8284(3) 0.2786(3)
H49 H 0.9316 0.8484 0.3032
H50 H 0.9321 0.7983 0.2888
H51 H 0.9134 0.8346 0.2563
C43 C 0.9887(4) 0.8808(4) 0.2421(4)
H56 H 0.9860 0.9014 0.2664
H57 H 0.9667 0.8875 0.2199
C44 C 0.9898(3) 0.8094(3) 0.1006(3)
C45 C 0.9835(3) 0.8456(3) 0.0686(3)
C46 C 0.9401(3) 0.8633(3) 0.0636(4)
H58 H 0.9198 0.8398 0.0562
H59 H 0.9401 0.8851 0.0403
H60 H 0.9310 0.8770 0.0910
C47 C 0.9951(4) 0.8272(4) 0.0226(4)
H61 H 0.9750 0.8035 0.0152
H63 H 0.9926 0.8505 0.0009
Cu4 Cu 0.65759(3) 0.45815(3) 0.24166(3)
Cu5 Cu 0.74166(3) 0.84241(3) 0.54185(3)
O13 O 0.69864(18) 0.5218(2) 0.30376(18)
O14 O 0.80376(18) 0.80136(18) 0.4782(2)
O15 O 0.9782(2) 0.69624(18) 0.19864(18)
O16 O 0.60870(16) 0.52732(18) 0.29630(17)
O17 O 0.79630(17) 0.89130(16) 0.47268(18)
O18 O 0.97268(18) 0.70370(17) 0.10870(16)
O6_2 O 0.80376(18) 0.19864(18) 0.0218(2)
O8_2 O 0.79630(17) 0.10870(16) 0.02732(18)
C32_2 C 0.8226(5) 0.2912(3) 0.0172(4)
H34_2 H 0.8270 0.2776 0.0458
H35_2 H 0.7919 0.2996 0.0140
H36_2 H 0.8411 0.3171 0.0147
H37_2 H 0.8832 0.2293 0.0178
H44_2 H 0.8161 0.0228 0.0250
C38_2 C 0.8823(4) 0.0774(4) 0.0164(4)
H46_2 H 0.8962 0.1053 0.0097
H47_2 H 0.9040 0.0540 0.0146
H48_2 H 0.8701 0.0783 0.0459
Cu5_2 Cu 0.75834(3) 0.15759(3) 0.04185(3)
Cu1_2 Cu 0.84241(3) 0.45815(3) 0.75834(3)
N1_2 N 0.8365(2) 0.39265(19) 0.7845(2)
N2_2 N 0.7288(2) 0.31677(18) 0.7565(2)
O1_2 O 0.79326(17) 0.45254(19) 0.71909(18)
O2_2 O 0.80136(18) 0.5218(2) 0.69624(18)
O3_2 O 0.88292(17) 0.45606(18) 0.70746(18)
O4_2 O 0.89130(16) 0.52732(18) 0.70370(17)
C1_2 C 0.7814(3) 0.4858(3) 0.6960(3)
C2_2 C 0.7411(4) 0.4817(4) 0.6654(4)
C3_2 C 0.7214(3) 0.4354(3) 0.6716(3)
H1_2 H 0.6968 0.4316 0.6516
H2_2 H 0.7112 0.4321 0.7017
H3_2 H 0.7437 0.4134 0.6654
C4_2 C 0.7088(3) 0.5172(4) 0.6774(5)
H4_2 H 0.7224 0.5458 0.6730
H5_2 H 0.7004 0.5140 0.7081
H6_2 H 0.6829 0.5147 0.6589
C5_2 C 0.7579(4) 0.4887(4) 0.6192(4)
H7_2 H 0.7707 0.5178 0.6168
H8_2 H 0.7336 0.4860 0.5986
H9_2 H 0.7801 0.4667 0.6125
C6_2 C 0.8994(3) 0.4898(3) 0.6906(3)
C7_2 C 0.9314(3) 0.4835(3) 0.6544(3)
C8_2 C 0.9364(4) 0.4401(3) 0.6367(3)
H10_2 H 0.9438 0.4198 0.6602
H11_2 H 0.9597 0.4401 0.6149
H12_2 H 0.9090 0.4310 0.6230
C9_2 C 0.9774(4) 0.4951(4) 0.6728(4)
H13_2 H 0.9848 0.4750 0.6965
H14_2 H 0.9772 0.5250 0.6839
H15_2 H 0.9991 0.4926 0.6495
C10_2 C 0.9226(4) 0.5164(4) 0.6177(4)
H16_2 H 0.8947 0.5097 0.6038
H17_2 H 0.9460 0.5146 0.5960
H18_2 H 0.9217 0.5459 0.6299
C11_2 C 0.8658(3) 0.3769(3) 0.8117(3)
H19_2 H 0.8920 0.3928 0.8163
C12_2 C 0.8599(3) 0.3383(3) 0.8336(3)
H20_2 H 0.8817 0.3277 0.8528
C13_2 C 0.8224(3) 0.3155(3) 0.8276(3)
H21_2 H 0.8181 0.2887 0.8426
C14_2 C 0.7914(3) 0.3306(3) 0.8004(3)
C15_2 C 0.8005(3) 0.3695(3) 0.7792(3)
H22_2 H 0.7794 0.3803 0.7593
C16_2 C 0.7529(2) 0.3048(3) 0.7907(3)
N3_2 N 0.7155(2) 0.1635(2) 0.89265(19)
N4_2 N 0.7435(2) 0.2712(2) 0.81677(18)
C17_2 C 0.6883(3) 0.1342(3) 0.8769(3)
H23_2 H 0.6837 0.1080 0.8928
C18_2 C 0.6664(3) 0.1401(3) 0.8383(3)
H24_2 H 0.6472 0.1183 0.8277
C19_2 C 0.6724(3) 0.1776(3) 0.8155(3)
H25_2 H 0.6574 0.1819 0.7887
C20_2 C 0.6996(3) 0.2086(3) 0.8306(3)
C21_2 C 0.7208(3) 0.1995(3) 0.8695(3)
H26_2 H 0.7407 0.2206 0.8803
C22_2 C 0.7093(3) 0.2471(2) 0.8048(3)
N5_2 N 0.60735(19) 0.2845(2) 0.6635(2)
N6_2 N 0.68323(18) 0.2565(2) 0.7712(2)
C23_2 C 0.6231(3) 0.3117(3) 0.6342(3)
H27_2 H 0.6072 0.3163 0.6080
C24_2 C 0.6617(3) 0.3336(3) 0.6401(3)
H28_2 H 0.6723 0.3528 0.6183
C25_2 C 0.6845(3) 0.3276(3) 0.6776(3)
H29_2 H 0.7113 0.3426 0.6819
C26_2 C 0.6694(3) 0.3004(3) 0.7086(3)
C27_2 C 0.6305(3) 0.2792(3) 0.6995(3)
H30_2 H 0.6197 0.2593 0.7206
C28_2 C 0.6952(3) 0.2907(3) 0.7471(2)
Cu2_2 Cu 0.74166(3) 0.15759(3) 0.95815(3)
O5_2 O 0.78091(18) 0.20674(17) 0.95254(19)
O7_2 O 0.79254(18) 0.11708(17) 0.95606(18)
C29_2 C 0.8040(3) 0.2186(3) 0.9858(3)
C30_2 C 0.8346(4) 0.2589(4) 0.9817(4)
C31_2 C 0.8284(3) 0.2786(3) 0.9354(3)
H31_2 H 0.8484 0.3032 0.9316
H32_2 H 0.7983 0.2888 0.9321
H33_2 H 0.8346 0.2563 0.9134
C33_2 C 0.8808(4) 0.2421(4) 0.9887(4)
H38_2 H 0.9014 0.2664 0.9860
H39_2 H 0.8875 0.2199 0.9667
C34_2 C 0.8094(3) 0.1006(3) 0.9898(3)
C35_2 C 0.8456(3) 0.0686(3) 0.9835(3)
C36_2 C 0.8633(3) 0.0636(4) 0.9401(3)
H40_2 H 0.8398 0.0562 0.9198
H41_2 H 0.8851 0.0403 0.9401
H42_2 H 0.8770 0.0910 0.9310
C37_2 C 0.8272(4) 0.0226(4) 0.9951(4)
H43_2 H 0.8035 0.0152 0.9750
H45_2 H 0.8505 0.0009 0.9926
Cu3_2 Cu 0.54185(3) 0.25834(3) 0.65759(3)
O9_2 O 0.54746(19) 0.21909(18) 0.70674(17)
O10_2 O 0.4782(2) 0.19624(18) 0.69864(18)
O11_2 O 0.54394(18) 0.20746(18) 0.61708(17)
O12_2 O 0.47268(18) 0.20370(17) 0.60870(16)
C39_2 C 0.5142(3) 0.1960(3) 0.7186(3)
C40_2 C 0.5183(4) 0.1654(4) 0.7589(4)
C41_2 C 0.5646(3) 0.1716(3) 0.7786(3)
H49_2 H 0.5684 0.1516 0.8032
H50_2 H 0.5679 0.2017 0.7888
H51_2 H 0.5866 0.1654 0.7563
C42_2 C 0.4828(4) 0.1774(5) 0.7912(3)
H52_2 H 0.4542 0.1730 0.7776
H53_2 H 0.4860 0.2081 0.7996
H54_2 H 0.4853 0.1589 0.8171
C43_2 C 0.5113(4) 0.1192(4) 0.7421(4)
H55_2 H 0.4822 0.1168 0.7293
H56_2 H 0.5140 0.0986 0.7664
H57_2 H 0.5333 0.1125 0.7199
C44_2 C 0.5102(3) 0.1906(3) 0.6006(3)
C45_2 C 0.5165(3) 0.1544(3) 0.5686(3)
C46_2 C 0.5599(3) 0.1367(3) 0.5636(4)
H58_2 H 0.5802 0.1602 0.5562
H59_2 H 0.5599 0.1149 0.5403
H60_2 H 0.5690 0.1230 0.5910
C47_2 C 0.5049(4) 0.1728(4) 0.5226(4)
H61_2 H 0.5250 0.1965 0.5152
H62_2 H 0.4750 0.1839 0.5228
H63_2 H 0.5074 0.1495 0.5009
C48_2 C 0.4836(4) 0.1177(4) 0.5774(4)
H64_2 H 0.4903 0.1038 0.6053
H65_2 H 0.4854 0.0960 0.5540
H66_2 H 0.4541 0.1299 0.5783
Cu4_2 Cu 0.84241(3) 0.54185(3) 0.74166(3)
Cu6_2 Cu 0.45815(3) 0.24166(3) 0.65759(3)
O13_2 O 0.80136(18) 0.4782(2) 0.80376(18)
O14_2 O 0.69624(18) 0.19864(18) 0.9782(2)
O15_2 O 0.5218(2) 0.30376(18) 0.69864(18)
O16_2 O 0.89130(16) 0.47268(18) 0.79630(17)
O17_2 O 0.70370(17) 0.10870(16) 0.97268(18)
O18_2 O 0.52732(18) 0.29630(17) 0.60870(16)
O6_3 O 0.30376(18) 0.30136(18) 0.9782(2)
O8_3 O 0.29630(17) 0.39130(16) 0.97268(18)
C32_3 C 0.3226(5) 0.2088(3) 0.9828(4)
H34_3 H 0.3270 0.2224 0.9542
H35_3 H 0.2919 0.2004 0.9860
H36_3 H 0.3411 0.1829 0.9853
H37_3 H 0.3832 0.2707 0.9822
H44_3 H 0.3161 0.4772 0.9750
C38_3 C 0.3823(4) 0.4226(4) 0.9836(4)
H46_3 H 0.3962 0.3947 0.9903
H47_3 H 0.4040 0.4460 0.9854
H48_3 H 0.3701 0.4217 0.9541
Cu5_3 Cu 0.25834(3) 0.34241(3) 0.95815(3)
O2_3 O 0.30136(18) 0.9782(2) 0.30376(18)
O4_3 O 0.39130(16) 0.97268(18) 0.29630(17)
C4_3 C 0.2088(3) 0.9828(4) 0.3226(5)
H4_3 H 0.2224 0.9542 0.3270
H5_3 H 0.2004 0.9860 0.2919
H6_3 H 0.1829 0.9853 0.3411
H7_3 H 0.2707 0.9822 0.3832
H14_3 H 0.4772 0.9750 0.3161
C10_3 C 0.4226(4) 0.9836(4) 0.3823(4)
H16_3 H 0.3947 0.9903 0.3962
H17_3 H 0.4460 0.9854 0.4040
H18_3 H 0.4217 0.9541 0.3701
Cu4_3 Cu 0.34241(3) 0.95815(3) 0.25834(3)
O10_3 O 0.9782(2) 0.30376(18) 0.30136(18)
O12_3 O 0.97268(18) 0.29630(17) 0.39130(16)
C42_3 C 0.9828(4) 0.3226(5) 0.2088(3)
H52_3 H 0.9542 0.3270 0.2224
H53_3 H 0.9860 0.2919 0.2004
H54_3 H 0.9853 0.3411 0.1829
H55_3 H 0.9822 0.3832 0.2707
H62_3 H 0.9750 0.3161 0.4772
C48_3 C 0.9836(4) 0.3823(4) 0.4226(4)
H64_3 H 0.9903 0.3962 0.3947
H65_3 H 0.9854 0.4040 0.4460
H66_3 H 0.9541 0.3701 0.4217
Cu6_3 Cu 0.95815(3) 0.25834(3) 0.34241(3)
O2_4 O 0.19864(18) 0.0218(2) 0.80376(18)
O4_4 O 0.10870(16) 0.02732(18) 0.79630(17)
C4_4 C 0.2912(3) 0.0172(4) 0.8226(5)
H4_4 H 0.2776 0.0458 0.8270
H5_4 H 0.2996 0.0140 0.7919
H6_4 H 0.3171 0.0147 0.8411
H7_4 H 0.2293 0.0178 0.8832
H14_4 H 0.0228 0.0250 0.8161
C10_4 C 0.0774(4) 0.0164(4) 0.8823(4)
H16_4 H 0.1053 0.0097 0.8962
H17_4 H 0.0540 0.0146 0.9040
H18_4 H 0.0783 0.0459 0.8701
Cu4_4 Cu 0.15759(3) 0.04185(3) 0.75834(3)
Cu1_3 Cu 0.15759(3) 0.95815(3) 0.74166(3)
N1_3 N 0.1635(2) 0.89265(19) 0.7155(2)
N2_3 N 0.2712(2) 0.81677(18) 0.7435(2)
O1_3 O 0.20674(17) 0.95254(19) 0.78091(18)
O3_3 O 0.11708(17) 0.95606(18) 0.79254(18)
C1_3 C 0.2186(3) 0.9858(3) 0.8040(3)
C2_3 C 0.2589(4) 0.9817(4) 0.8346(4)
C3_3 C 0.2786(3) 0.9354(3) 0.8284(3)
H1_3 H 0.3032 0.9316 0.8484
H2_3 H 0.2888 0.9321 0.7983
H3_3 H 0.2563 0.9134 0.8346
C5_3 C 0.2421(4) 0.9887(4) 0.8808(4)
H8_3 H 0.2664 0.9860 0.9014
H9_3 H 0.2199 0.9667 0.8875
C6_3 C 0.1006(3) 0.9898(3) 0.8094(3)
C7_3 C 0.0686(3) 0.9835(3) 0.8456(3)
C8_3 C 0.0636(4) 0.9401(3) 0.8633(3)
H10_3 H 0.0562 0.9198 0.8398
H11_3 H 0.0403 0.9401 0.8851
H12_3 H 0.0910 0.9310 0.8770
C9_3 C 0.0226(4) 0.9951(4) 0.8272(4)
H13_3 H 0.0152 0.9750 0.8035
H15_3 H 0.0009 0.9926 0.8505
C11_3 C 0.1342(3) 0.8769(3) 0.6883(3)
H19_3 H 0.1080 0.8928 0.6837
C12_3 C 0.1401(3) 0.8383(3) 0.6664(3)
H20_3 H 0.1183 0.8277 0.6472
C13_3 C 0.1776(3) 0.8155(3) 0.6724(3)
H21_3 H 0.1819 0.7887 0.6574
C14_3 C 0.2086(3) 0.8306(3) 0.6996(3)
C15_3 C 0.1995(3) 0.8695(3) 0.7208(3)
H22_3 H 0.2206 0.8803 0.7407
C16_3 C 0.2471(2) 0.8048(3) 0.7093(3)
N3_3 N 0.2845(2) 0.6635(2) 0.60735(19)
N4_3 N 0.2565(2) 0.7712(2) 0.68323(18)
C17_3 C 0.3117(3) 0.6342(3) 0.6231(3)
H23_3 H 0.3163 0.6080 0.6072
C18_3 C 0.3336(3) 0.6401(3) 0.6617(3)
H24_3 H 0.3528 0.6183 0.6723
C19_3 C 0.3276(3) 0.6776(3) 0.6845(3)
H25_3 H 0.3426 0.6819 0.7113
C20_3 C 0.3004(3) 0.7086(3) 0.6694(3)
C21_3 C 0.2792(3) 0.6995(3) 0.6305(3)
H26_3 H 0.2593 0.7206 0.6197
C22_3 C 0.2907(3) 0.7471(2) 0.6952(3)
N5_3 N 0.39265(19) 0.7845(2) 0.8365(2)
N6_3 N 0.31677(18) 0.7565(2) 0.7288(2)
C23_3 C 0.3769(3) 0.8117(3) 0.8658(3)
H27_3 H 0.3928 0.8163 0.8920
C24_3 C 0.3383(3) 0.8336(3) 0.8599(3)
H28_3 H 0.3277 0.8528 0.8817
C25_3 C 0.3155(3) 0.8276(3) 0.8224(3)
H29_3 H 0.2887 0.8426 0.8181
C26_3 C 0.3306(3) 0.8004(3) 0.7914(3)
C27_3 C 0.3695(3) 0.7792(3) 0.8005(3)
H30_3 H 0.3803 0.7593 0.7794
C28_3 C 0.3048(3) 0.7907(3) 0.7529(2)
Cu2_3 Cu 0.25834(3) 0.65759(3) 0.54185(3)
O5_3 O 0.21909(18) 0.70674(17) 0.54746(19)
O6_4 O 0.19624(18) 0.69864(18) 0.4782(2)
O7_3 O 0.20746(18) 0.61708(17) 0.54394(18)
O8_4 O 0.20370(17) 0.60870(16) 0.47268(18)
C29_3 C 0.1960(3) 0.7186(3) 0.5142(3)
C30_3 C 0.1654(4) 0.7589(4) 0.5183(4)
C31_3 C 0.1716(3) 0.7786(3) 0.5646(3)
H31_3 H 0.1516 0.8032 0.5684
H32_3 H 0.2017 0.7888 0.5679
H33_3 H 0.1654 0.7563 0.5866
C32_4 C 0.1774(5) 0.7912(3) 0.4828(4)
H34_4 H 0.1730 0.7776 0.4542
H35_4 H 0.2081 0.7996 0.4860
H36_4 H 0.1589 0.8171 0.4853
C33_3 C 0.1192(4) 0.7421(4) 0.5113(4)
H37_4 H 0.1168 0.7293 0.4822
H38_3 H 0.0986 0.7664 0.5140
H39_3 H 0.1125 0.7199 0.5333
C34_3 C 0.1906(3) 0.6006(3) 0.5102(3)
C35_3 C 0.1544(3) 0.5686(3) 0.5165(3)
C36_3 C 0.1367(3) 0.5636(4) 0.5599(3)
H40_3 H 0.1602 0.5562 0.5802
H41_3 H 0.1149 0.5403 0.5599
H42_3 H 0.1230 0.5910 0.5690
C37_3 C 0.1728(4) 0.5226(4) 0.5049(4)
H43_3 H 0.1965 0.5152 0.5250
H44_4 H 0.1839 0.5228 0.4750
H45_3 H 0.1495 0.5009 0.5074
C38_4 C 0.1177(4) 0.5774(4) 0.4836(4)
H46_4 H 0.1038 0.6053 0.4903
H47_4 H 0.0960 0.5540 0.4854
H48_4 H 0.1299 0.5783 0.4541
Cu3_3 Cu 0.45815(3) 0.75834(3) 0.84241(3)
O9_3 O 0.45254(19) 0.71909(18) 0.79326(17)
O10_4 O 0.5218(2) 0.69624(18) 0.80136(18)
O11_3 O 0.45606(18) 0.70746(18) 0.88292(17)
O12_4 O 0.52732(18) 0.70370(17) 0.89130(16)
C39_3 C 0.4858(3) 0.6960(3) 0.7814(3)
C40_3 C 0.4817(4) 0.6654(4) 0.7411(4)
C41_3 C 0.4354(3) 0.6716(3) 0.7214(3)
H49_3 H 0.4316 0.6516 0.6968
H50_3 H 0.4321 0.7017 0.7112
H51_3 H 0.4134 0.6654 0.7437
C42_4 C 0.5172(4) 0.6774(5) 0.7088(3)
H52_4 H 0.5458 0.6730 0.7224
H53_4 H 0.5140 0.7081 0.7004
H54_4 H 0.5147 0.6589 0.6829
C43_3 C 0.4887(4) 0.6192(4) 0.7579(4)
H55_4 H 0.5178 0.6168 0.7707
H56_3 H 0.4860 0.5986 0.7336
H57_3 H 0.4667 0.6125 0.7801
C44_3 C 0.4898(3) 0.6906(3) 0.8994(3)
C45_3 C 0.4835(3) 0.6544(3) 0.9314(3)
C46_3 C 0.4401(3) 0.6367(3) 0.9364(4)
H58_3 H 0.4198 0.6602 0.9438
H59_3 H 0.4401 0.6149 0.9597
H60_3 H 0.4310 0.6230 0.9090
C47_3 C 0.4951(4) 0.6728(4) 0.9774(4)
H61_3 H 0.4750 0.6965 0.9848
H62_4 H 0.5250 0.6839 0.9772
H63_3 H 0.4926 0.6495 0.9991
C48_4 C 0.5164(4) 0.6177(4) 0.9226(4)
H64_4 H 0.5097 0.6038 0.8947
H65_4 H 0.5146 0.5960 0.9460
H66_4 H 0.5459 0.6299 0.9217
Cu5_4 Cu 0.24166(3) 0.65759(3) 0.45815(3)
Cu6_4 Cu 0.54185(3) 0.74166(3) 0.84241(3)
O13_3 O 0.19864(18) 0.9782(2) 0.69624(18)
O14_3 O 0.30376(18) 0.69864(18) 0.5218(2)
O15_3 O 0.4782(2) 0.80376(18) 0.80136(18)
O16_3 O 0.10870(16) 0.97268(18) 0.70370(17)
O17_3 O 0.29630(17) 0.60870(16) 0.52732(18)
O18_3 O 0.47268(18) 0.79630(17) 0.89130(16)
N1_4 N 0.1635(2) 0.10735(19) 0.7845(2)
N2_4 N 0.2712(2) 0.18323(18) 0.7565(2)
O1_4 O 0.20674(17) 0.04746(19) 0.71909(18)
O3_4 O 0.11708(17) 0.04394(18) 0.70746(18)
C1_4 C 0.2186(3) 0.0142(3) 0.6960(3)
C2_4 C 0.2589(4) 0.0183(4) 0.6654(4)
C3_4 C 0.2786(3) 0.0646(3) 0.6716(3)
H1_4 H 0.3032 0.0684 0.6516
H2_4 H 0.2888 0.0679 0.7017
H3_4 H 0.2563 0.0866 0.6654
C5_4 C 0.2421(4) 0.0113(4) 0.6192(4)
H8_4 H 0.2664 0.0140 0.5986
H9_4 H 0.2199 0.0333 0.6125
C6_4 C 0.1006(3) 0.0102(3) 0.6906(3)
C7_4 C 0.0686(3) 0.0165(3) 0.6544(3)
C8_4 C 0.0636(4) 0.0599(3) 0.6367(3)
H10_4 H 0.0562 0.0802 0.6602
H11_4 H 0.0403 0.0599 0.6149
H12_4 H 0.0910 0.0690 0.6230
C9_4 C 0.0226(4) 0.0049(4) 0.6728(4)
H13_4 H 0.0152 0.0250 0.6965
H15_4 H 0.0009 0.0074 0.6495
C11_4 C 0.1342(3) 0.1231(3) 0.8117(3)
H19_4 H 0.1080 0.1072 0.8163
C12_4 C 0.1401(3) 0.1617(3) 0.8336(3)
H20_4 H 0.1183 0.1723 0.8528
C13_4 C 0.1776(3) 0.1845(3) 0.8276(3)
H21_4 H 0.1819 0.2113 0.8426
C14_4 C 0.2086(3) 0.1694(3) 0.8004(3)
C15_4 C 0.1995(3) 0.1305(3) 0.7792(3)
H22_4 H 0.2206 0.1197 0.7593
C16_4 C 0.2471(2) 0.1952(3) 0.7907(3)
N3_4 N 0.2845(2) 0.3365(2) 0.89265(19)
N4_4 N 0.2565(2) 0.2288(2) 0.81677(18)
C17_4 C 0.3117(3) 0.3658(3) 0.8769(3)
H23_4 H 0.3163 0.3920 0.8928
C18_4 C 0.3336(3) 0.3599(3) 0.8383(3)
H24_4 H 0.3528 0.3817 0.8277
C19_4 C 0.3276(3) 0.3224(3) 0.8155(3)
H25_4 H 0.3426 0.3181 0.7887
C20_4 C 0.3004(3) 0.2914(3) 0.8306(3)
C21_4 C 0.2792(3) 0.3005(3) 0.8695(3)
H26_4 H 0.2593 0.2794 0.8803
C22_4 C 0.2907(3) 0.2529(2) 0.8048(3)
N5_4 N 0.39265(19) 0.2155(2) 0.6635(2)
N6_4 N 0.31677(18) 0.2435(2) 0.7712(2)
C23_4 C 0.3769(3) 0.1883(3) 0.6342(3)
H27_4 H 0.3928 0.1837 0.6080
C24_4 C 0.3383(3) 0.1664(3) 0.6401(3)
H28_4 H 0.3277 0.1472 0.6183
C25_4 C 0.3155(3) 0.1724(3) 0.6776(3)
H29_4 H 0.2887 0.1574 0.6819
C26_4 C 0.3306(3) 0.1996(3) 0.7086(3)
C27_4 C 0.3695(3) 0.2208(3) 0.6995(3)
H30_4 H 0.3803 0.2407 0.7206
C28_4 C 0.3048(3) 0.2093(3) 0.7471(2)
O5_4 O 0.21909(18) 0.29326(17) 0.95254(19)
O7_4 O 0.20746(18) 0.38292(17) 0.95606(18)
C29_4 C 0.1960(3) 0.2814(3) 0.9858(3)
C30_4 C 0.1654(4) 0.2411(4) 0.9817(4)
C31_4 C 0.1716(3) 0.2214(3) 0.9354(3)
H31_4 H 0.1516 0.1968 0.9316
H32_4 H 0.2017 0.2112 0.9321
H33_4 H 0.1654 0.2437 0.9134
C33_4 C 0.1192(4) 0.2579(4) 0.9887(4)
H38_4 H 0.0986 0.2336 0.9860
H39_4 H 0.1125 0.2801 0.9667
C34_4 C 0.1906(3) 0.3994(3) 0.9898(3)
C35_4 C 0.1544(3) 0.4314(3) 0.9835(3)
C36_4 C 0.1367(3) 0.4364(4) 0.9401(3)
H40_4 H 0.1602 0.4438 0.9198
H41_4 H 0.1149 0.4597 0.9401
H42_4 H 0.1230 0.4090 0.9310
C37_4 C 0.1728(4) 0.4774(4) 0.9951(4)
H43_4 H 0.1965 0.4848 0.9750
H45_4 H 0.1495 0.4991 0.9926
O9_4 O 0.45254(19) 0.28091(18) 0.70674(17)
O11_4 O 0.45606(18) 0.29254(18) 0.61708(17)
C39_4 C 0.4858(3) 0.3040(3) 0.7186(3)
C40_4 C 0.4817(4) 0.3346(4) 0.7589(4)
C41_4 C 0.4354(3) 0.3284(3) 0.7786(3)
H49_4 H 0.4316 0.3484 0.8032
H50_4 H 0.4321 0.2983 0.7888
H51_4 H 0.4134 0.3346 0.7563
C42_5 C 0.5172(4) 0.3226(5) 0.7912(3)
H52_5 H 0.5458 0.3270 0.7776
H53_5 H 0.5140 0.2919 0.7996
H54_5 H 0.5147 0.3411 0.8171
C43_4 C 0.4887(4) 0.3808(4) 0.7421(4)
H55_5 H 0.5178 0.3832 0.7293
H56_4 H 0.4860 0.4014 0.7664
H57_4 H 0.4667 0.3875 0.7199
C44_4 C 0.4898(3) 0.3094(3) 0.6006(3)
C45_4 C 0.4835(3) 0.3456(3) 0.5686(3)
C46_4 C 0.4401(3) 0.3633(3) 0.5636(4)
H58_4 H 0.4198 0.3398 0.5562
H59_4 H 0.4401 0.3851 0.5403
H60_4 H 0.4310 0.3770 0.5910
C47_4 C 0.4951(4) 0.3272(4) 0.5226(4)
H61_4 H 0.4750 0.3035 0.5152
H62_5 H 0.5250 0.3161 0.5228
H63_4 H 0.4926 0.3505 0.5009
C48_5 C 0.5164(4) 0.3823(4) 0.5774(4)
H64_5 H 0.5097 0.3962 0.6053
H65_5 H 0.5146 0.4040 0.5540
H66_5 H 0.5459 0.3701 0.5783
C4_5 C 0.2912(3) 0.9828(4) 0.6774(5)
H4_5 H 0.2776 0.9542 0.6730
H5_5 H 0.2996 0.9860 0.7081
H6_5 H 0.3171 0.9853 0.6589
H7_5 H 0.2293 0.9822 0.6168
H14_5 H 0.0228 0.9750 0.6839
C10_5 C 0.0774(4) 0.9836(4) 0.6177(4)
H16_5 H 0.1053 0.9903 0.6038
H17_5 H 0.0540 0.9854 0.5960
H18_5 H 0.0783 0.9541 0.6299
N1_5 N 0.3365(2) 0.89265(19) 0.2845(2)
N2_5 N 0.2288(2) 0.81677(18) 0.2565(2)
O1_5 O 0.29326(17) 0.95254(19) 0.21909(18)
O3_5 O 0.38292(17) 0.95606(18) 0.20746(18)
C1_5 C 0.2814(3) 0.9858(3) 0.1960(3)
C2_5 C 0.2411(4) 0.9817(4) 0.1654(4)
C3_5 C 0.2214(3) 0.9354(3) 0.1716(3)
H1_5 H 0.1968 0.9316 0.1516
H2_5 H 0.2112 0.9321 0.2017
H3_5 H 0.2437 0.9134 0.1654
C5_5 C 0.2579(4) 0.9887(4) 0.1192(4)
H8_5 H 0.2336 0.9860 0.0986
H9_5 H 0.2801 0.9667 0.1125
C6_5 C 0.3994(3) 0.9898(3) 0.1906(3)
C7_5 C 0.4314(3) 0.9835(3) 0.1544(3)
C8_5 C 0.4364(4) 0.9401(3) 0.1367(3)
H10_5 H 0.4438 0.9198 0.1602
H11_5 H 0.4597 0.9401 0.1149
H12_5 H 0.4090 0.9310 0.1230
C9_5 C 0.4774(4) 0.9951(4) 0.1728(4)
H13_5 H 0.4848 0.9750 0.1965
H15_5 H 0.4991 0.9926 0.1495
C11_5 C 0.3658(3) 0.8769(3) 0.3117(3)
H19_5 H 0.3920 0.8928 0.3163
C12_5 C 0.3599(3) 0.8383(3) 0.3336(3)
H20_5 H 0.3817 0.8277 0.3528
C13_5 C 0.3224(3) 0.8155(3) 0.3276(3)
H21_5 H 0.3181 0.7887 0.3426
C14_5 C 0.2914(3) 0.8306(3) 0.3004(3)
C15_5 C 0.3005(3) 0.8695(3) 0.2792(3)
H22_5 H 0.2794 0.8803 0.2593
C16_5 C 0.2529(2) 0.8048(3) 0.2907(3)
N3_5 N 0.2155(2) 0.6635(2) 0.39265(19)
N4_5 N 0.2435(2) 0.7712(2) 0.31677(18)
C17_5 C 0.1883(3) 0.6342(3) 0.3769(3)
H23_5 H 0.1837 0.6080 0.3928
C18_5 C 0.1664(3) 0.6401(3) 0.3383(3)
H24_5 H 0.1472 0.6183 0.3277
C19_5 C 0.1724(3) 0.6776(3) 0.3155(3)
H25_5 H 0.1574 0.6819 0.2887
C20_5 C 0.1996(3) 0.7086(3) 0.3306(3)
C21_5 C 0.2208(3) 0.6995(3) 0.3695(3)
H26_5 H 0.2407 0.7206 0.3803
C22_5 C 0.2093(3) 0.7471(2) 0.3048(3)
N5_5 N 0.10735(19) 0.7845(2) 0.1635(2)
N6_5 N 0.18323(18) 0.7565(2) 0.2712(2)
C23_5 C 0.1231(3) 0.8117(3) 0.1342(3)
H27_5 H 0.1072 0.8163 0.1080
C24_5 C 0.1617(3) 0.8336(3) 0.1401(3)
H28_5 H 0.1723 0.8528 0.1183
C25_5 C 0.1845(3) 0.8276(3) 0.1776(3)
H29_5 H 0.2113 0.8426 0.1819
C26_5 C 0.1694(3) 0.8004(3) 0.2086(3)
C27_5 C 0.1305(3) 0.7792(3) 0.1995(3)
H30_5 H 0.1197 0.7593 0.2206
C28_5 C 0.1952(3) 0.7907(3) 0.2471(2)
O5_5 O 0.28091(18) 0.70674(17) 0.45254(19)
O7_5 O 0.29254(18) 0.61708(17) 0.45606(18)
C29_5 C 0.3040(3) 0.7186(3) 0.4858(3)
C30_5 C 0.3346(4) 0.7589(4) 0.4817(4)
C31_5 C 0.3284(3) 0.7786(3) 0.4354(3)
H31_5 H 0.3484 0.8032 0.4316
H32_5 H 0.2983 0.7888 0.4321
H33_5 H 0.3346 0.7563 0.4134
C32_5 C 0.3226(5) 0.7912(3) 0.5172(4)
H34_5 H 0.3270 0.7776 0.5458
H35_5 H 0.2919 0.7996 0.5140
H36_5 H 0.3411 0.8171 0.5147
C33_5 C 0.3808(4) 0.7421(4) 0.4887(4)
H37_5 H 0.3832 0.7293 0.5178
H38_5 H 0.4014 0.7664 0.4860
H39_5 H 0.3875 0.7199 0.4667
C34_5 C 0.3094(3) 0.6006(3) 0.4898(3)
C35_5 C 0.3456(3) 0.5686(3) 0.4835(3)
C36_5 C 0.3633(3) 0.5636(4) 0.4401(3)
H40_5 H 0.3398 0.5562 0.4198
H41_5 H 0.3851 0.5403 0.4401
H42_5 H 0.3770 0.5910 0.4310
C37_5 C 0.3272(4) 0.5226(4) 0.4951(4)
H43_5 H 0.3035 0.5152 0.4750
H44_5 H 0.3161 0.5228 0.5250
H45_5 H 0.3505 0.5009 0.4926
C38_5 C 0.3823(4) 0.5774(4) 0.5164(4)
H46_5 H 0.3962 0.6053 0.5097
H47_5 H 0.4040 0.5540 0.5146
H48_5 H 0.3701 0.5783 0.5459
O9_5 O 0.04746(19) 0.71909(18) 0.20674(17)
O11_5 O 0.04394(18) 0.70746(18) 0.11708(17)
C39_5 C 0.0142(3) 0.6960(3) 0.2186(3)
C40_5 C 0.0183(4) 0.6654(4) 0.2589(4)
C41_5 C 0.0646(3) 0.6716(3) 0.2786(3)
H49_5 H 0.0684 0.6516 0.3032
H50_5 H 0.0679 0.7017 0.2888
H51_5 H 0.0866 0.6654 0.2563
C43_5 C 0.0113(4) 0.6192(4) 0.2421(4)
H56_5 H 0.0140 0.5986 0.2664
H57_5 H 0.0333 0.6125 0.2199
C44_5 C 0.0102(3) 0.6906(3) 0.1006(3)
C45_5 C 0.0165(3) 0.6544(3) 0.0686(3)
C46_5 C 0.0599(3) 0.6367(3) 0.0636(4)
H58_5 H 0.0802 0.6602 0.0562
H59_5 H 0.0599 0.6149 0.0403
H60_5 H 0.0690 0.6230 0.0910
C47_5 C 0.0049(4) 0.6728(4) 0.0226(4)
H61_5 H 0.0250 0.6965 0.0152
H63_5 H 0.0074 0.6495 0.0009
C42_6 C 0.9828(4) 0.6774(5) 0.2912(3)
H52_6 H 0.9542 0.6730 0.2776
H53_6 H 0.9860 0.7081 0.2996
H54_6 H 0.9853 0.6589 0.3171
H55_6 H 0.9822 0.6168 0.2293
H62_6 H 0.9750 0.6839 0.0228
C48_6 C 0.9836(4) 0.6177(4) 0.0774(4)
H64_6 H 0.9903 0.6038 0.1053
H65_6 H 0.9854 0.5960 0.0540
H66_6 H 0.9541 0.6299 0.0783
N1_6 N 0.8365(2) 0.60735(19) 0.7155(2)
N2_6 N 0.7288(2) 0.68323(18) 0.7435(2)
O1_6 O 0.79326(17) 0.54746(19) 0.78091(18)
O3_6 O 0.88292(17) 0.54394(18) 0.79254(18)
C1_6 C 0.7814(3) 0.5142(3) 0.8040(3)
C2_6 C 0.7411(4) 0.5183(4) 0.8346(4)
C3_6 C 0.7214(3) 0.5646(3) 0.8284(3)
H1_6 H 0.6968 0.5684 0.8484
H2_6 H 0.7112 0.5679 0.7983
H3_6 H 0.7437 0.5866 0.8346
C4_6 C 0.7088(3) 0.4828(4) 0.8226(5)
H4_6 H 0.7224 0.4542 0.8270
H5_6 H 0.7004 0.4860 0.7919
H6_6 H 0.6829 0.4853 0.8411
C5_6 C 0.7579(4) 0.5113(4) 0.8808(4)
H7_6 H 0.7707 0.4822 0.8832
H8_6 H 0.7336 0.5140 0.9014
H9_6 H 0.7801 0.5333 0.8875
C6_6 C 0.8994(3) 0.5102(3) 0.8094(3)
C7_6 C 0.9314(3) 0.5165(3) 0.8456(3)
C8_6 C 0.9364(4) 0.5599(3) 0.8633(3)
H10_6 H 0.9438 0.5802 0.8398
H11_6 H 0.9597 0.5599 0.8851
H12_6 H 0.9090 0.5690 0.8770
C9_6 C 0.9774(4) 0.5049(4) 0.8272(4)
H13_6 H 0.9848 0.5250 0.8035
H14_6 H 0.9772 0.4750 0.8161
H15_6 H 0.9991 0.5074 0.8505
C10_6 C 0.9226(4) 0.4836(4) 0.8823(4)
H16_6 H 0.8947 0.4903 0.8962
H17_6 H 0.9460 0.4854 0.9040
H18_6 H 0.9217 0.4541 0.8701
C11_6 C 0.8658(3) 0.6231(3) 0.6883(3)
H19_6 H 0.8920 0.6072 0.6837
C12_6 C 0.8599(3) 0.6617(3) 0.6664(3)
H20_6 H 0.8817 0.6723 0.6472
C13_6 C 0.8224(3) 0.6845(3) 0.6724(3)
H21_6 H 0.8181 0.7113 0.6574
C14_6 C 0.7914(3) 0.6694(3) 0.6996(3)
C15_6 C 0.8005(3) 0.6305(3) 0.7208(3)
H22_6 H 0.7794 0.6197 0.7407
C16_6 C 0.7529(2) 0.6952(3) 0.7093(3)
N3_6 N 0.7155(2) 0.8365(2) 0.60735(19)
N4_6 N 0.7435(2) 0.7288(2) 0.68323(18)
C17_6 C 0.6883(3) 0.8658(3) 0.6231(3)
H23_6 H 0.6837 0.8920 0.6072
C18_6 C 0.6664(3) 0.8599(3) 0.6617(3)
H24_6 H 0.6472 0.8817 0.6723
C19_6 C 0.6724(3) 0.8224(3) 0.6845(3)
H25_6 H 0.6574 0.8181 0.7113
C20_6 C 0.6996(3) 0.7914(3) 0.6694(3)
C21_6 C 0.7208(3) 0.8005(3) 0.6305(3)
H26_6 H 0.7407 0.7794 0.6197
C22_6 C 0.7093(3) 0.7529(2) 0.6952(3)
N5_6 N 0.60735(19) 0.7155(2) 0.8365(2)
N6_6 N 0.68323(18) 0.7435(2) 0.7288(2)
C23_6 C 0.6231(3) 0.6883(3) 0.8658(3)
H27_6 H 0.6072 0.6837 0.8920
C24_6 C 0.6617(3) 0.6664(3) 0.8599(3)
H28_6 H 0.6723 0.6472 0.8817
C25_6 C 0.6845(3) 0.6724(3) 0.8224(3)
H29_6 H 0.7113 0.6574 0.8181
C26_6 C 0.6694(3) 0.6996(3) 0.7914(3)
C27_6 C 0.6305(3) 0.7208(3) 0.8005(3)
H30_6 H 0.6197 0.7407 0.7794
C28_6 C 0.6952(3) 0.7093(3) 0.7529(2)
O5_6 O 0.78091(18) 0.79326(17) 0.54746(19)
O7_6 O 0.79254(18) 0.88292(17) 0.54394(18)
C29_6 C 0.8040(3) 0.7814(3) 0.5142(3)
C30_6 C 0.8346(4) 0.7411(4) 0.5183(4)
C31_6 C 0.8284(3) 0.7214(3) 0.5646(3)
H31_6 H 0.8484 0.6968 0.5684
H32_6 H 0.7983 0.7112 0.5679
H33_6 H 0.8346 0.7437 0.5866
C32_6 C 0.8226(5) 0.7088(3) 0.4828(4)
H34_6 H 0.8270 0.7224 0.4542
H35_6 H 0.7919 0.7004 0.4860
H36_6 H 0.8411 0.6829 0.4853
C33_6 C 0.8808(4) 0.7579(4) 0.5113(4)
H37_6 H 0.8832 0.7707 0.4822
H38_6 H 0.9014 0.7336 0.5140
H39_6 H 0.8875 0.7801 0.5333
C34_6 C 0.8094(3) 0.8994(3) 0.5102(3)
C35_6 C 0.8456(3) 0.9314(3) 0.5165(3)
C36_6 C 0.8633(3) 0.9364(4) 0.5599(3)
H40_6 H 0.8398 0.9438 0.5802
H41_6 H 0.8851 0.9597 0.5599
H42_6 H 0.8770 0.9090 0.5690
C37_6 C 0.8272(4) 0.9774(4) 0.5049(4)
H43_6 H 0.8035 0.9848 0.5250
H44_6 H 0.8161 0.9772 0.4750
H45_6 H 0.8505 0.9991 0.5074
C38_6 C 0.8823(4) 0.9226(4) 0.4836(4)
H46_6 H 0.8962 0.8947 0.4903
H47_6 H 0.9040 0.9460 0.4854
H48_6 H 0.8701 0.9217 0.4541
O9_6 O 0.54746(19) 0.78091(18) 0.79326(17)
O11_6 O 0.54394(18) 0.79254(18) 0.88292(17)
C39_6 C 0.5142(3) 0.8040(3) 0.7814(3)
C40_6 C 0.5183(4) 0.8346(4) 0.7411(4)
C41_6 C 0.5646(3) 0.8284(3) 0.7214(3)
H49_6 H 0.5684 0.8484 0.6968
H50_6 H 0.5679 0.7983 0.7112
H51_6 H 0.5866 0.8346 0.7437
C42_7 C 0.4828(4) 0.8226(5) 0.7088(3)
H52_7 H 0.4542 0.8270 0.7224
H53_7 H 0.4860 0.7919 0.7004
H54_7 H 0.4853 0.8411 0.6829
C43_6 C 0.5113(4) 0.8808(4) 0.7579(4)
H55_7 H 0.4822 0.8832 0.7707
H56_6 H 0.5140 0.9014 0.7336
H57_6 H 0.5333 0.8875 0.7801
C44_6 C 0.5102(3) 0.8094(3) 0.8994(3)
C45_6 C 0.5165(3) 0.8456(3) 0.9314(3)
C46_6 C 0.5599(3) 0.8633(3) 0.9364(4)
H58_6 H 0.5802 0.8398 0.9438
H59_6 H 0.5599 0.8851 0.9597
H60_6 H 0.5690 0.8770 0.9090
C47_6 C 0.5049(4) 0.8272(4) 0.9774(4)
H61_6 H 0.5250 0.8035 0.9848
H62_7 H 0.4750 0.8161 0.9772
H63_6 H 0.5074 0.8505 0.9991
C48_7 C 0.4836(4) 0.8823(4) 0.9226(4)
H64_7 H 0.4903 0.8962 0.8947
H65_7 H 0.4854 0.9040 0.9460
H66_7 H 0.4541 0.8701 0.9217
N1_7 N 0.6635(2) 0.39265(19) 0.2155(2)
N2_7 N 0.7712(2) 0.31677(18) 0.2435(2)
O1_7 O 0.70674(17) 0.45254(19) 0.28091(18)
O3_7 O 0.61708(17) 0.45606(18) 0.29254(18)
C1_7 C 0.7186(3) 0.4858(3) 0.3040(3)
C2_7 C 0.7589(4) 0.4817(4) 0.3346(4)
C3_7 C 0.7786(3) 0.4354(3) 0.3284(3)
H1_7 H 0.8032 0.4316 0.3484
H2_7 H 0.7888 0.4321 0.2983
H3_7 H 0.7563 0.4134 0.3346
C4_7 C 0.7912(3) 0.5172(4) 0.3226(5)
H4_7 H 0.7776 0.5458 0.3270
H5_7 H 0.7996 0.5140 0.2919
H6_7 H 0.8171 0.5147 0.3411
C5_7 C 0.7421(4) 0.4887(4) 0.3808(4)
H7_7 H 0.7293 0.5178 0.3832
H8_7 H 0.7664 0.4860 0.4014
H9_7 H 0.7199 0.4667 0.3875
C6_7 C 0.6006(3) 0.4898(3) 0.3094(3)
C7_7 C 0.5686(3) 0.4835(3) 0.3456(3)
C8_7 C 0.5636(4) 0.4401(3) 0.3633(3)
H10_7 H 0.5562 0.4198 0.3398
H11_7 H 0.5403 0.4401 0.3851
H12_7 H 0.5910 0.4310 0.3770
C9_7 C 0.5226(4) 0.4951(4) 0.3272(4)
H13_7 H 0.5152 0.4750 0.3035
H14_7 H 0.5228 0.5250 0.3161
H15_7 H 0.5009 0.4926 0.3505
C10_7 C 0.5774(4) 0.5164(4) 0.3823(4)
H16_7 H 0.6053 0.5097 0.3962
H17_7 H 0.5540 0.5146 0.4040
H18_7 H 0.5783 0.5459 0.3701
C11_7 C 0.6342(3) 0.3769(3) 0.1883(3)
H19_7 H 0.6080 0.3928 0.1837
C12_7 C 0.6401(3) 0.3383(3) 0.1664(3)
H20_7 H 0.6183 0.3277 0.1472
C13_7 C 0.6776(3) 0.3155(3) 0.1724(3)
H21_7 H 0.6819 0.2887 0.1574
C14_7 C 0.7086(3) 0.3306(3) 0.1996(3)
C15_7 C 0.6995(3) 0.3695(3) 0.2208(3)
H22_7 H 0.7206 0.3803 0.2407
C16_7 C 0.7471(2) 0.3048(3) 0.2093(3)
N3_7 N 0.7845(2) 0.1635(2) 0.10735(19)
N4_7 N 0.7565(2) 0.2712(2) 0.18323(18)
C17_7 C 0.8117(3) 0.1342(3) 0.1231(3)
H23_7 H 0.8163 0.1080 0.1072
C18_7 C 0.8336(3) 0.1401(3) 0.1617(3)
H24_7 H 0.8528 0.1183 0.1723
C19_7 C 0.8276(3) 0.1776(3) 0.1845(3)
H25_7 H 0.8426 0.1819 0.2113
C20_7 C 0.8004(3) 0.2086(3) 0.1694(3)
C21_7 C 0.7792(3) 0.1995(3) 0.1305(3)
H26_7 H 0.7593 0.2206 0.1197
C22_7 C 0.7907(3) 0.2471(2) 0.1952(3)
N5_7 N 0.89265(19) 0.2845(2) 0.3365(2)
N6_7 N 0.81677(18) 0.2565(2) 0.2288(2)
C23_7 C 0.8769(3) 0.3117(3) 0.3658(3)
H27_7 H 0.8928 0.3163 0.3920
C24_7 C 0.8383(3) 0.3336(3) 0.3599(3)
H28_7 H 0.8277 0.3528 0.3817
C25_7 C 0.8155(3) 0.3276(3) 0.3224(3)
H29_7 H 0.7887 0.3426 0.3181
C26_7 C 0.8306(3) 0.3004(3) 0.2914(3)
C27_7 C 0.8695(3) 0.2792(3) 0.3005(3)
H30_7 H 0.8803 0.2593 0.2794
C28_7 C 0.8048(3) 0.2907(3) 0.2529(2)
O5_7 O 0.71909(18) 0.20674(17) 0.04746(19)
O7_7 O 0.70746(18) 0.11708(17) 0.04394(18)
C29_7 C 0.6960(3) 0.2186(3) 0.0142(3)
C30_7 C 0.6654(4) 0.2589(4) 0.0183(4)
C31_7 C 0.6716(3) 0.2786(3) 0.0646(3)
H31_7 H 0.6516 0.3032 0.0684
H32_7 H 0.7017 0.2888 0.0679
H33_7 H 0.6654 0.2563 0.0866
C33_7 C 0.6192(4) 0.2421(4) 0.0113(4)
H38_7 H 0.5986 0.2664 0.0140
H39_7 H 0.6125 0.2199 0.0333
C34_7 C 0.6906(3) 0.1006(3) 0.0102(3)
C35_7 C 0.6544(3) 0.0686(3) 0.0165(3)
C36_7 C 0.6367(3) 0.0636(4) 0.0599(3)
H40_7 H 0.6602 0.0562 0.0802
H41_7 H 0.6149 0.0403 0.0599
H42_7 H 0.6230 0.0910 0.0690
C37_7 C 0.6728(4) 0.0226(4) 0.0049(4)
H43_7 H 0.6965 0.0152 0.0250
H45_7 H 0.6495 0.0009 0.0074
O9_7 O 0.95254(19) 0.21909(18) 0.29326(17)
O11_7 O 0.95606(18) 0.20746(18) 0.38292(17)
C39_7 C 0.9858(3) 0.1960(3) 0.2814(3)
C40_7 C 0.9817(4) 0.1654(4) 0.2411(4)
C41_7 C 0.9354(3) 0.1716(3) 0.2214(3)
H49_7 H 0.9316 0.1516 0.1968
H50_7 H 0.9321 0.2017 0.2112
H51_7 H 0.9134 0.1654 0.2437
C43_7 C 0.9887(4) 0.1192(4) 0.2579(4)
H56_7 H 0.9860 0.0986 0.2336
H57_7 H 0.9667 0.1125 0.2801
C44_7 C 0.9898(3) 0.1906(3) 0.3994(3)
C45_7 C 0.9835(3) 0.1544(3) 0.4314(3)
C46_7 C 0.9401(3) 0.1367(3) 0.4364(4)
H58_7 H 0.9198 0.1602 0.4438
H59_7 H 0.9401 0.1149 0.4597
H60_7 H 0.9310 0.1230 0.4090
C47_7 C 0.9951(4) 0.1728(4) 0.4774(4)
H61_7 H 0.9750 0.1965 0.4848
H63_7 H 0.9926 0.1495 0.4991
C32_7 C 0.6774(5) 0.2912(3) 0.9828(4)
H34_7 H 0.6730 0.2776 0.9542
H35_7 H 0.7081 0.2996 0.9860
H36_7 H 0.6589 0.3171 0.9853
H37_7 H 0.6168 0.2293 0.9822
H44_7 H 0.6839 0.0228 0.9750
C38_7 C 0.6177(4) 0.0774(4) 0.9836(4)
H46_7 H 0.6038 0.1053 0.9903
H47_7 H 0.5960 0.0540 0.9854
H48_7 H 0.6299 0.0783 0.9541
Cu1_4 Cu 0.34241(3) 0.04185(3) 0.24166(3)
N1_8 N 0.3365(2) 0.10735(19) 0.2155(2)
N2_8 N 0.2288(2) 0.18323(18) 0.2435(2)
O1_8 O 0.29326(17) 0.04746(19) 0.28091(18)
O3_8 O 0.38292(17) 0.04394(18) 0.29254(18)
C1_8 C 0.2814(3) 0.0142(3) 0.3040(3)
C2_8 C 0.2411(4) 0.0183(4) 0.3346(4)
C3_8 C 0.2214(3) 0.0646(3) 0.3284(3)
H1_8 H 0.1968 0.0684 0.3484
H2_8 H 0.2112 0.0679 0.2983
H3_8 H 0.2437 0.0866 0.3346
C5_8 C 0.2579(4) 0.0113(4) 0.3808(4)
H8_8 H 0.2336 0.0140 0.4014
H9_8 H 0.2801 0.0333 0.3875
C6_8 C 0.3994(3) 0.0102(3) 0.3094(3)
C7_8 C 0.4314(3) 0.0165(3) 0.3456(3)
C8_8 C 0.4364(4) 0.0599(3) 0.3633(3)
H10_8 H 0.4438 0.0802 0.3398
H11_8 H 0.4597 0.0599 0.3851
H12_8 H 0.4090 0.0690 0.3770
C9_8 C 0.4774(4) 0.0049(4) 0.3272(4)
H13_8 H 0.4848 0.0250 0.3035
H15_8 H 0.4991 0.0074 0.3505
C11_8 C 0.3658(3) 0.1231(3) 0.1883(3)
H19_8 H 0.3920 0.1072 0.1837
C12_8 C 0.3599(3) 0.1617(3) 0.1664(3)
H20_8 H 0.3817 0.1723 0.1472
C13_8 C 0.3224(3) 0.1845(3) 0.1724(3)
H21_8 H 0.3181 0.2113 0.1574
C14_8 C 0.2914(3) 0.1694(3) 0.1996(3)
C15_8 C 0.3005(3) 0.1305(3) 0.2208(3)
H22_8 H 0.2794 0.1197 0.2407
C16_8 C 0.2529(2) 0.1952(3) 0.2093(3)
N3_8 N 0.2155(2) 0.3365(2) 0.10735(19)
N4_8 N 0.2435(2) 0.2288(2) 0.18323(18)
C17_8 C 0.1883(3) 0.3658(3) 0.1231(3)
H23_8 H 0.1837 0.3920 0.1072
C18_8 C 0.1664(3) 0.3599(3) 0.1617(3)
H24_8 H 0.1472 0.3817 0.1723
C19_8 C 0.1724(3) 0.3224(3) 0.1845(3)
H25_8 H 0.1574 0.3181 0.2113
C20_8 C 0.1996(3) 0.2914(3) 0.1694(3)
C21_8 C 0.2208(3) 0.3005(3) 0.1305(3)
H26_8 H 0.2407 0.2794 0.1197
C22_8 C 0.2093(3) 0.2529(2) 0.1952(3)
N5_8 N 0.10735(19) 0.2155(2) 0.3365(2)
N6_8 N 0.18323(18) 0.2435(2) 0.2288(2)
C23_8 C 0.1231(3) 0.1883(3) 0.3658(3)
H27_8 H 0.1072 0.1837 0.3920
C24_8 C 0.1617(3) 0.1664(3) 0.3599(3)
H28_8 H 0.1723 0.1472 0.3817
C25_8 C 0.1845(3) 0.1724(3) 0.3224(3)
H29_8 H 0.2113 0.1574 0.3181
C26_8 C 0.1694(3) 0.1996(3) 0.2914(3)
C27_8 C 0.1305(3) 0.2208(3) 0.3005(3)
H30_8 H 0.1197 0.2407 0.2794
C28_8 C 0.1952(3) 0.2093(3) 0.2529(2)
Cu2_4 Cu 0.24166(3) 0.34241(3) 0.04185(3)
O5_8 O 0.28091(18) 0.29326(17) 0.04746(19)
O7_8 O 0.29254(18) 0.38292(17) 0.04394(18)
C29_8 C 0.3040(3) 0.2814(3) 0.0142(3)
C30_8 C 0.3346(4) 0.2411(4) 0.0183(4)
C31_8 C 0.3284(3) 0.2214(3) 0.0646(3)
H31_8 H 0.3484 0.1968 0.0684
H32_8 H 0.2983 0.2112 0.0679
H33_8 H 0.3346 0.2437 0.0866
C33_8 C 0.3808(4) 0.2579(4) 0.0113(4)
H38_8 H 0.4014 0.2336 0.0140
H39_8 H 0.3875 0.2801 0.0333
C34_8 C 0.3094(3) 0.3994(3) 0.0102(3)
C35_8 C 0.3456(3) 0.4314(3) 0.0165(3)
C36_8 C 0.3633(3) 0.4364(4) 0.0599(3)
H40_8 H 0.3398 0.4438 0.0802
H41_8 H 0.3851 0.4597 0.0599
H42_8 H 0.3770 0.4090 0.0690
C37_8 C 0.3272(4) 0.4774(4) 0.0049(4)
H43_8 H 0.3035 0.4848 0.0250
H45_8 H 0.3505 0.4991 0.0074
Cu3_4 Cu 0.04185(3) 0.24166(3) 0.34241(3)
O9_8 O 0.04746(19) 0.28091(18) 0.29326(17)
O11_8 O 0.04394(18) 0.29254(18) 0.38292(17)
C39_8 C 0.0142(3) 0.3040(3) 0.2814(3)
C40_8 C 0.0183(4) 0.3346(4) 0.2411(4)
C41_8 C 0.0646(3) 0.3284(3) 0.2214(3)
H49_8 H 0.0684 0.3484 0.1968
H50_8 H 0.0679 0.2983 0.2112
H51_8 H 0.0866 0.3346 0.2437
C43_8 C 0.0113(4) 0.3808(4) 0.2579(4)
H56_8 H 0.0140 0.4014 0.2336
H57_8 H 0.0333 0.3875 0.2801
C44_8 C 0.0102(3) 0.3094(3) 0.3994(3)
C45_8 C 0.0165(3) 0.3456(3) 0.4314(3)
C46_8 C 0.0599(3) 0.3633(3) 0.4364(4)
H58_8 H 0.0802 0.3398 0.4438
H59_8 H 0.0599 0.3851 0.4597
H60_8 H 0.0690 0.3770 0.4090
C47_8 C 0.0049(4) 0.3272(4) 0.4774(4)
H61_8 H 0.0250 0.3035 0.4848
H63_8 H 0.0074 0.3505 0.4991
O13_4 O 0.30136(18) 0.0218(2) 0.19624(18)
O14_4 O 0.19624(18) 0.30136(18) 0.0218(2)
O15_4 O 0.0218(2) 0.19624(18) 0.30136(18)
O16_4 O 0.39130(16) 0.02732(18) 0.20370(17)
O17_4 O 0.20370(17) 0.39130(16) 0.02732(18)
O18_4 O 0.02732(18) 0.20370(17) 0.39130(16)
C32_8 C 0.1774(5) 0.2088(3) 0.0172(4)
H34_8 H 0.1730 0.2224 0.0458
H35_8 H 0.2081 0.2004 0.0140
H36_8 H 0.1589 0.1829 0.0147
H37_8 H 0.1168 0.2707 0.0178
H44_8 H 0.1839 0.4772 0.0250
C38_8 C 0.1177(4) 0.4226(4) 0.0164(4)
H46_8 H 0.1038 0.3947 0.0097
H47_8 H 0.0960 0.4460 0.0146
H48_8 H 0.1299 0.4217 0.0459
C4_8 C 0.2088(3) 0.0172(4) 0.1774(5)
H4_8 H 0.2224 0.0458 0.1730
H5_8 H 0.2004 0.0140 0.2081
H6_8 H 0.1829 0.0147 0.1589
H7_8 H 0.2707 0.0178 0.1168
H14_8 H 0.4772 0.0250 0.1839
C10_8 C 0.4226(4) 0.0164(4) 0.1177(4)
H16_8 H 0.3947 0.0097 0.1038
H17_8 H 0.4460 0.0146 0.0960
H18_8 H 0.4217 0.0459 0.1299
C42_8 C 0.0172(4) 0.1774(5) 0.2088(3)
H52_8 H 0.0458 0.1730 0.2224
H53_8 H 0.0140 0.2081 0.2004
H54_8 H 0.0147 0.1589 0.1829
H55_8 H 0.0178 0.1168 0.2707
H62_8 H 0.0250 0.1839 0.4772
C48_8 C 0.0164(4) 0.1177(4) 0.4226(4)
H64_8 H 0.0097 0.1038 0.3947
H65_8 H 0.0146 0.0960 0.4460
H66_8 H 0.0459 0.1299 0.4217
Cu1_5 Cu 0.34241(3) 0.45815(3) 0.74166(3)
N1_9 N 0.3365(2) 0.39265(19) 0.7155(2)
N2_9 N 0.2288(2) 0.31677(18) 0.7435(2)
O1_9 O 0.29326(17) 0.45254(19) 0.78091(18)
O2_5 O 0.30136(18) 0.5218(2) 0.80376(18)
O3_9 O 0.38292(17) 0.45606(18) 0.79254(18)
O4_5 O 0.39130(16) 0.52732(18) 0.79630(17)
C1_9 C 0.2814(3) 0.4858(3) 0.8040(3)
C2_9 C 0.2411(4) 0.4817(4) 0.8346(4)
C3_9 C 0.2214(3) 0.4354(3) 0.8284(3)
H1_9 H 0.1968 0.4316 0.8484
H2_9 H 0.2112 0.4321 0.7983
H3_9 H 0.2437 0.4134 0.8346
C4_9 C 0.2088(3) 0.5172(4) 0.8226(5)
H4_9 H 0.2224 0.5458 0.8270
H5_9 H 0.2004 0.5140 0.7919
H6_9 H 0.1829 0.5147 0.8411
C5_9 C 0.2579(4) 0.4887(4) 0.8808(4)
H7_9 H 0.2707 0.5178 0.8832
H8_9 H 0.2336 0.4860 0.9014
H9_9 H 0.2801 0.4667 0.8875
C6_9 C 0.3994(3) 0.4898(3) 0.8094(3)
C7_9 C 0.4314(3) 0.4835(3) 0.8456(3)
C8_9 C 0.4364(4) 0.4401(3) 0.8633(3)
H10_9 H 0.4438 0.4198 0.8398
H11_9 H 0.4597 0.4401 0.8851
H12_9 H 0.4090 0.4310 0.8770
C9_9 C 0.4774(4) 0.4951(4) 0.8272(4)
H13_9 H 0.4848 0.4750 0.8035
H14_9 H 0.4772 0.5250 0.8161
H15_9 H 0.4991 0.4926 0.8505
C10_9 C 0.4226(4) 0.5164(4) 0.8823(4)
H16_9 H 0.3947 0.5097 0.8962
H17_9 H 0.4460 0.5146 0.9040
H18_9 H 0.4217 0.5459 0.8701
C11_9 C 0.3658(3) 0.3769(3) 0.6883(3)
H19_9 H 0.3920 0.3928 0.6837
C12_9 C 0.3599(3) 0.3383(3) 0.6664(3)
H20_9 H 0.3817 0.3277 0.6472
C13_9 C 0.3224(3) 0.3155(3) 0.6724(3)
H21_9 H 0.3181 0.2887 0.6574
C14_9 C 0.2914(3) 0.3306(3) 0.6996(3)
C15_9 C 0.3005(3) 0.3695(3) 0.7208(3)
H22_9 H 0.2794 0.3803 0.7407
C16_9 C 0.2529(2) 0.3048(3) 0.7093(3)
N3_9 N 0.2155(2) 0.1635(2) 0.60735(19)
N4_9 N 0.2435(2) 0.2712(2) 0.68323(18)
C17_9 C 0.1883(3) 0.1342(3) 0.6231(3)
H23_9 H 0.1837 0.1080 0.6072
C18_9 C 0.1664(3) 0.1401(3) 0.6617(3)
H24_9 H 0.1472 0.1183 0.6723
C19_9 C 0.1724(3) 0.1776(3) 0.6845(3)
H25_9 H 0.1574 0.1819 0.7113
C20_9 C 0.1996(3) 0.2086(3) 0.6694(3)
C21_9 C 0.2208(3) 0.1995(3) 0.6305(3)
H26_9 H 0.2407 0.2206 0.6197
C22_9 C 0.2093(3) 0.2471(2) 0.6952(3)
N5_9 N 0.10735(19) 0.2845(2) 0.8365(2)
N6_9 N 0.18323(18) 0.2565(2) 0.7288(2)
C23_9 C 0.1231(3) 0.3117(3) 0.8658(3)
H27_9 H 0.1072 0.3163 0.8920
C24_9 C 0.1617(3) 0.3336(3) 0.8599(3)
H28_9 H 0.1723 0.3528 0.8817
C25_9 C 0.1845(3) 0.3276(3) 0.8224(3)
H29_9 H 0.2113 0.3426 0.8181
C26_9 C 0.1694(3) 0.3004(3) 0.7914(3)
C27_9 C 0.1305(3) 0.2792(3) 0.8005(3)
H30_9 H 0.1197 0.2593 0.7794
C28_9 C 0.1952(3) 0.2907(3) 0.7529(2)
Cu2_5 Cu 0.24166(3) 0.15759(3) 0.54185(3)
O5_9 O 0.28091(18) 0.20674(17) 0.54746(19)
O6_5 O 0.30376(18) 0.19864(18) 0.4782(2)
O7_9 O 0.29254(18) 0.11708(17) 0.54394(18)
O8_5 O 0.29630(17) 0.10870(16) 0.47268(18)
C29_9 C 0.3040(3) 0.2186(3) 0.5142(3)
C30_9 C 0.3346(4) 0.2589(4) 0.5183(4)
C31_9 C 0.3284(3) 0.2786(3) 0.5646(3)
H31_9 H 0.3484 0.3032 0.5684
H32_9 H 0.2983 0.2888 0.5679
H33_9 H 0.3346 0.2563 0.5866
C32_9 C 0.3226(5) 0.2912(3) 0.4828(4)
H34_9 H 0.3270 0.2776 0.4542
H35_9 H 0.2919 0.2996 0.4860
H36_9 H 0.3411 0.3171 0.4853
C33_9 C 0.3808(4) 0.2421(4) 0.5113(4)
H37_9 H 0.3832 0.2293 0.4822
H38_9 H 0.4014 0.2664 0.5140
H39_9 H 0.3875 0.2199 0.5333
C34_9 C 0.3094(3) 0.1006(3) 0.5102(3)
C35_9 C 0.3456(3) 0.0686(3) 0.5165(3)
C36_9 C 0.3633(3) 0.0636(4) 0.5599(3)
H40_9 H 0.3398 0.0562 0.5802
H41_9 H 0.3851 0.0403 0.5599
H42_9 H 0.3770 0.0910 0.5690
C37_9 C 0.3272(4) 0.0226(4) 0.5049(4)
H43_9 H 0.3035 0.0152 0.5250
H44_9 H 0.3161 0.0228 0.4750
H45_9 H 0.3505 0.0009 0.5074
C38_9 C 0.3823(4) 0.0774(4) 0.4836(4)
H46_9 H 0.3962 0.1053 0.4903
H47_9 H 0.4040 0.0540 0.4854
H48_9 H 0.3701 0.0783 0.4541
Cu3_5 Cu 0.04185(3) 0.25834(3) 0.84241(3)
O9_9 O 0.04746(19) 0.21909(18) 0.79326(17)
O11_9 O 0.04394(18) 0.20746(18) 0.88292(17)
C39_9 C 0.0142(3) 0.1960(3) 0.7814(3)
C40_9 C 0.0183(4) 0.1654(4) 0.7411(4)
C41_9 C 0.0646(3) 0.1716(3) 0.7214(3)
H49_9 H 0.0684 0.1516 0.6968
H50_9 H 0.0679 0.2017 0.7112
H51_9 H 0.0866 0.1654 0.7437
C43_9 C 0.0113(4) 0.1192(4) 0.7579(4)
H56_9 H 0.0140 0.0986 0.7336
H57_9 H 0.0333 0.1125 0.7801
C44_9 C 0.0102(3) 0.1906(3) 0.8994(3)
C45_9 C 0.0165(3) 0.1544(3) 0.9314(3)
C46_9 C 0.0599(3) 0.1367(3) 0.9364(4)
H58_9 H 0.0802 0.1602 0.9438
H59_9 H 0.0599 0.1149 0.9597
H60_9 H 0.0690 0.1230 0.9090
C47_9 C 0.0049(4) 0.1728(4) 0.9774(4)
H61_9 H 0.0250 0.1965 0.9848
H63_9 H 0.0074 0.1495 0.9991
Cu4_5 Cu 0.34241(3) 0.54185(3) 0.75834(3)
Cu5_5 Cu 0.25834(3) 0.15759(3) 0.45815(3)
O13_5 O 0.30136(18) 0.4782(2) 0.69624(18)
O14_5 O 0.19624(18) 0.19864(18) 0.5218(2)
O15_5 O 0.0218(2) 0.30376(18) 0.80136(18)
O16_5 O 0.39130(16) 0.47268(18) 0.70370(17)
O17_5 O 0.20370(17) 0.10870(16) 0.52732(18)
O18_5 O 0.02732(18) 0.29630(17) 0.89130(16)
O10_5 O 0.9782(2) 0.19624(18) 0.80136(18)
O12_5 O 0.97268(18) 0.20370(17) 0.89130(16)
C42_9 C 0.9828(4) 0.1774(5) 0.7088(3)
H52_9 H 0.9542 0.1730 0.7224
H53_9 H 0.9860 0.2081 0.7004
H54_9 H 0.9853 0.1589 0.6829
H55_9 H 0.9822 0.1168 0.7707
H62_9 H 0.9750 0.1839 0.9772
C48_9 C 0.9836(4) 0.1177(4) 0.9226(4)
H64_9 H 0.9903 0.1038 0.8947
H65_9 H 0.9854 0.0960 0.9460
H66_9 H 0.9541 0.1299 0.9217
Cu6_5 Cu 0.95815(3) 0.24166(3) 0.84241(3)
Cu1_6 Cu 0.15759(3) 0.54185(3) 0.24166(3)
N1_10 N 0.1635(2) 0.60735(19) 0.2155(2)
N2_10 N 0.2712(2) 0.68323(18) 0.2435(2)
O1_10 O 0.20674(17) 0.54746(19) 0.28091(18)
O2_6 O 0.19864(18) 0.4782(2) 0.30376(18)
O3_10 O 0.11708(17) 0.54394(18) 0.29254(18)
O4_6 O 0.10870(16) 0.47268(18) 0.29630(17)
C1_10 C 0.2186(3) 0.5142(3) 0.3040(3)
C2_10 C 0.2589(4) 0.5183(4) 0.3346(4)
C3_10 C 0.2786(3) 0.5646(3) 0.3284(3)
H1_10 H 0.3032 0.5684 0.3484
H2_10 H 0.2888 0.5679 0.2983
H3_10 H 0.2563 0.5866 0.3346
C4_10 C 0.2912(3) 0.4828(4) 0.3226(5)
H4_10 H 0.2776 0.4542 0.3270
H5_10 H 0.2996 0.4860 0.2919
H6_10 H 0.3171 0.4853 0.3411
C5_10 C 0.2421(4) 0.5113(4) 0.3808(4)
H7_10 H 0.2293 0.4822 0.3832
H8_10 H 0.2664 0.5140 0.4014
H9_10 H 0.2199 0.5333 0.3875
C6_10 C 0.1006(3) 0.5102(3) 0.3094(3)
C7_10 C 0.0686(3) 0.5165(3) 0.3456(3)
C8_10 C 0.0636(4) 0.5599(3) 0.3633(3)
H10_10 H 0.0562 0.5802 0.3398
H11_10 H 0.0403 0.5599 0.3851
H12_10 H 0.0910 0.5690 0.3770
C9_10 C 0.0226(4) 0.5049(4) 0.3272(4)
H13_10 H 0.0152 0.5250 0.3035
H14_10 H 0.0228 0.4750 0.3161
H15_10 H 0.0009 0.5074 0.3505
C10_10 C 0.0774(4) 0.4836(4) 0.3823(4)
H16_10 H 0.1053 0.4903 0.3962
H17_10 H 0.0540 0.4854 0.4040
H18_10 H 0.0783 0.4541 0.3701
C11_10 C 0.1342(3) 0.6231(3) 0.1883(3)
H19_10 H 0.1080 0.6072 0.1837
C12_10 C 0.1401(3) 0.6617(3) 0.1664(3)
H20_10 H 0.1183 0.6723 0.1472
C13_10 C 0.1776(3) 0.6845(3) 0.1724(3)
H21_10 H 0.1819 0.7113 0.1574
C14_10 C 0.2086(3) 0.6694(3) 0.1996(3)
C15_10 C 0.1995(3) 0.6305(3) 0.2208(3)
H22_10 H 0.2206 0.6197 0.2407
C16_10 C 0.2471(2) 0.6952(3) 0.2093(3)
N3_10 N 0.2845(2) 0.8365(2) 0.10735(19)
N4_10 N 0.2565(2) 0.7288(2) 0.18323(18)
C17_10 C 0.3117(3) 0.8658(3) 0.1231(3)
H23_10 H 0.3163 0.8920 0.1072
C18_10 C 0.3336(3) 0.8599(3) 0.1617(3)
H24_10 H 0.3528 0.8817 0.1723
C19_10 C 0.3276(3) 0.8224(3) 0.1845(3)
H25_10 H 0.3426 0.8181 0.2113
C20_10 C 0.3004(3) 0.7914(3) 0.1694(3)
C21_10 C 0.2792(3) 0.8005(3) 0.1305(3)
H26_10 H 0.2593 0.7794 0.1197
C22_10 C 0.2907(3) 0.7529(2) 0.1952(3)
N5_10 N 0.39265(19) 0.7155(2) 0.3365(2)
N6_10 N 0.31677(18) 0.7435(2) 0.2288(2)
C23_10 C 0.3769(3) 0.6883(3) 0.3658(3)
H27_10 H 0.3928 0.6837 0.3920
C24_10 C 0.3383(3) 0.6664(3) 0.3599(3)
H28_10 H 0.3277 0.6472 0.3817
C25_10 C 0.3155(3) 0.6724(3) 0.3224(3)
H29_10 H 0.2887 0.6574 0.3181
C26_10 C 0.3306(3) 0.6996(3) 0.2914(3)
C27_10 C 0.3695(3) 0.7208(3) 0.3005(3)
H30_10 H 0.3803 0.7407 0.2794
C28_10 C 0.3048(3) 0.7093(3) 0.2529(2)
Cu2_6 Cu 0.25834(3) 0.84241(3) 0.04185(3)
O5_10 O 0.21909(18) 0.79326(17) 0.04746(19)
O7_10 O 0.20746(18) 0.88292(17) 0.04394(18)
C29_10 C 0.1960(3) 0.7814(3) 0.0142(3)
C30_10 C 0.1654(4) 0.7411(4) 0.0183(4)
C31_10 C 0.1716(3) 0.7214(3) 0.0646(3)
H31_10 H 0.1516 0.6968 0.0684
H32_10 H 0.2017 0.7112 0.0679
H33_10 H 0.1654 0.7437 0.0866
C33_10 C 0.1192(4) 0.7579(4) 0.0113(4)
H38_10 H 0.0986 0.7336 0.0140
H39_10 H 0.1125 0.7801 0.0333
C34_10 C 0.1906(3) 0.8994(3) 0.0102(3)
C35_10 C 0.1544(3) 0.9314(3) 0.0165(3)
C36_10 C 0.1367(3) 0.9364(4) 0.0599(3)
H40_10 H 0.1602 0.9438 0.0802
H41_10 H 0.1149 0.9597 0.0599
H42_10 H 0.1230 0.9090 0.0690
C37_10 C 0.1728(4) 0.9774(4) 0.0049(4)
H43_10 H 0.1965 0.9848 0.0250
H45_10 H 0.1495 0.9991 0.0074
Cu3_6 Cu 0.45815(3) 0.74166(3) 0.34241(3)
O9_10 O 0.45254(19) 0.78091(18) 0.29326(17)
O10_6 O 0.5218(2) 0.80376(18) 0.30136(18)
O11_10 O 0.45606(18) 0.79254(18) 0.38292(17)
O12_6 O 0.52732(18) 0.79630(17) 0.39130(16)
C39_10 C 0.4858(3) 0.8040(3) 0.2814(3)
C40_10 C 0.4817(4) 0.8346(4) 0.2411(4)
C41_10 C 0.4354(3) 0.8284(3) 0.2214(3)
H49_10 H 0.4316 0.8484 0.1968
H50_10 H 0.4321 0.7983 0.2112
H51_10 H 0.4134 0.8346 0.2437
C42_10 C 0.5172(4) 0.8226(5) 0.2088(3)
H52_10 H 0.5458 0.8270 0.2224
H53_10 H 0.5140 0.7919 0.2004
H54_10 H 0.5147 0.8411 0.1829
C43_10 C 0.4887(4) 0.8808(4) 0.2579(4)
H55_10 H 0.5178 0.8832 0.2707
H56_10 H 0.4860 0.9014 0.2336
H57_10 H 0.4667 0.8875 0.2801
C44_10 C 0.4898(3) 0.8094(3) 0.3994(3)
C45_10 C 0.4835(3) 0.8456(3) 0.4314(3)
C46_10 C 0.4401(3) 0.8633(3) 0.4364(4)
H58_10 H 0.4198 0.8398 0.4438
H59_10 H 0.4401 0.8851 0.4597
H60_10 H 0.4310 0.8770 0.4090
C47_10 C 0.4951(4) 0.8272(4) 0.4774(4)
H61_10 H 0.4750 0.8035 0.4848
H62_10 H 0.5250 0.8161 0.4772
H63_10 H 0.4926 0.8505 0.4991
C48_10 C 0.5164(4) 0.8823(4) 0.4226(4)
H64_10 H 0.5097 0.8962 0.3947
H65_10 H 0.5146 0.9040 0.4460
H66_10 H 0.5459 0.8701 0.4217
Cu4_6 Cu 0.15759(3) 0.45815(3) 0.25834(3)
Cu6_6 Cu 0.54185(3) 0.75834(3) 0.34241(3)
O13_6 O 0.19864(18) 0.5218(2) 0.19624(18)
O14_6 O 0.30376(18) 0.80136(18) 0.0218(2)
O15_6 O 0.4782(2) 0.69624(18) 0.30136(18)
O16_6 O 0.10870(16) 0.52732(18) 0.20370(17)
O17_6 O 0.29630(17) 0.89130(16) 0.02732(18)
O18_6 O 0.47268(18) 0.70370(17) 0.39130(16)
O6_6 O 0.19624(18) 0.80136(18) 0.9782(2)
O8_6 O 0.20370(17) 0.89130(16) 0.97268(18)
C32_10 C 0.1774(5) 0.7088(3) 0.9828(4)
H34_10 H 0.1730 0.7224 0.9542
H35_10 H 0.2081 0.7004 0.9860
H36_10 H 0.1589 0.6829 0.9853
H37_10 H 0.1168 0.7707 0.9822
H44_10 H 0.1839 0.9772 0.9750
C38_10 C 0.1177(4) 0.9226(4) 0.9836(4)
H46_10 H 0.1038 0.8947 0.9903
H47_10 H 0.0960 0.9460 0.9854
H48_10 H 0.1299 0.9217 0.9541
Cu5_6 Cu 0.24166(3) 0.84241(3) 0.95815(3)
O10_7 O 0.0218(2) 0.69624(18) 0.69864(18)
O12_7 O 0.02732(18) 0.70370(17) 0.60870(16)
C42_11 C 0.0172(4) 0.6774(5) 0.7912(3)
H52_11 H 0.0458 0.6730 0.7776
H53_11 H 0.0140 0.7081 0.7996
H54_11 H 0.0147 0.6589 0.8171
H55_11 H 0.0178 0.6168 0.7293
H62_11 H 0.0250 0.6839 0.5228
C48_11 C 0.0164(4) 0.6177(4) 0.5774(4)
H64_11 H 0.0097 0.6038 0.6053
H65_11 H 0.0146 0.5960 0.5540
H66_11 H 0.0459 0.6299 0.5783
Cu6_7 Cu 0.04185(3) 0.74166(3) 0.65759(3)
O2_7 O 0.69864(18) 0.0218(2) 0.69624(18)
O4_7 O 0.60870(16) 0.02732(18) 0.70370(17)
C4_11 C 0.7912(3) 0.0172(4) 0.6774(5)
H4_11 H 0.7776 0.0458 0.6730
H5_11 H 0.7996 0.0140 0.7081
H6_11 H 0.8171 0.0147 0.6589
H7_11 H 0.7293 0.0178 0.6168
H14_11 H 0.5228 0.0250 0.6839
C10_11 C 0.5774(4) 0.0164(4) 0.6177(4)
H16_11 H 0.6053 0.0097 0.6038
H17_11 H 0.5540 0.0146 0.5960
H18_11 H 0.5783 0.0459 0.6299
Cu4_7 Cu 0.65759(3) 0.04185(3) 0.74166(3)
O6_7 O 0.69624(18) 0.69864(18) 0.0218(2)
O8_7 O 0.70370(17) 0.60870(16) 0.02732(18)
C32_11 C 0.6774(5) 0.7912(3) 0.0172(4)
H34_11 H 0.6730 0.7776 0.0458
H35_11 H 0.7081 0.7996 0.0140
H36_11 H 0.6589 0.8171 0.0147
H37_11 H 0.6168 0.7293 0.0178
H44_11 H 0.6839 0.5228 0.0250
C38_11 C 0.6177(4) 0.5774(4) 0.0164(4)
H46_11 H 0.6038 0.6053 0.0097
H47_11 H 0.5960 0.5540 0.0146
H48_11 H 0.6299 0.5783 0.0459
Cu5_7 Cu 0.74166(3) 0.65759(3) 0.04185(3)
Cu1_7 Cu 0.84241(3) 0.04185(3) 0.25834(3)
N1_11 N 0.8365(2) 0.10735(19) 0.2845(2)
N2_11 N 0.7288(2) 0.18323(18) 0.2565(2)
O1_11 O 0.79326(17) 0.04746(19) 0.21909(18)
O3_11 O 0.88292(17) 0.04394(18) 0.20746(18)
C1_11 C 0.7814(3) 0.0142(3) 0.1960(3)
C2_11 C 0.7411(4) 0.0183(4) 0.1654(4)
C3_11 C 0.7214(3) 0.0646(3) 0.1716(3)
H1_11 H 0.6968 0.0684 0.1516
H2_11 H 0.7112 0.0679 0.2017
H3_11 H 0.7437 0.0866 0.1654
C5_11 C 0.7579(4) 0.0113(4) 0.1192(4)
H8_11 H 0.7336 0.0140 0.0986
H9_11 H 0.7801 0.0333 0.1125
C6_11 C 0.8994(3) 0.0102(3) 0.1906(3)
C7_11 C 0.9314(3) 0.0165(3) 0.1544(3)
C8_11 C 0.9364(4) 0.0599(3) 0.1367(3)
H10_11 H 0.9438 0.0802 0.1602
H11_11 H 0.9597 0.0599 0.1149
H12_11 H 0.9090 0.0690 0.1230
C9_11 C 0.9774(4) 0.0049(4) 0.1728(4)
H13_11 H 0.9848 0.0250 0.1965
H15_11 H 0.9991 0.0074 0.1495
C11_11 C 0.8658(3) 0.1231(3) 0.3117(3)
H19_11 H 0.8920 0.1072 0.3163
C12_11 C 0.8599(3) 0.1617(3) 0.3336(3)
H20_11 H 0.8817 0.1723 0.3528
C13_11 C 0.8224(3) 0.1845(3) 0.3276(3)
H21_11 H 0.8181 0.2113 0.3426
C14_11 C 0.7914(3) 0.1694(3) 0.3004(3)
C15_11 C 0.8005(3) 0.1305(3) 0.2792(3)
H22_11 H 0.7794 0.1197 0.2593
C16_11 C 0.7529(2) 0.1952(3) 0.2907(3)
N3_11 N 0.7155(2) 0.3365(2) 0.39265(19)
N4_11 N 0.7435(2) 0.2288(2) 0.31677(18)
C17_11 C 0.6883(3) 0.3658(3) 0.3769(3)
H23_11 H 0.6837 0.3920 0.3928
C18_11 C 0.6664(3) 0.3599(3) 0.3383(3)
H24_11 H 0.6472 0.3817 0.3277
C19_11 C 0.6724(3) 0.3224(3) 0.3155(3)
H25_11 H 0.6574 0.3181 0.2887
C20_11 C 0.6996(3) 0.2914(3) 0.3306(3)
C21_11 C 0.7208(3) 0.3005(3) 0.3695(3)
H26_11 H 0.7407 0.2794 0.3803
C22_11 C 0.7093(3) 0.2529(2) 0.3048(3)
N5_11 N 0.60735(19) 0.2155(2) 0.1635(2)
N6_11 N 0.68323(18) 0.2435(2) 0.2712(2)
C23_11 C 0.6231(3) 0.1883(3) 0.1342(3)
H27_11 H 0.6072 0.1837 0.1080
C24_11 C 0.6617(3) 0.1664(3) 0.1401(3)
H28_11 H 0.6723 0.1472 0.1183
C25_11 C 0.6845(3) 0.1724(3) 0.1776(3)
H29_11 H 0.7113 0.1574 0.1819
C26_11 C 0.6694(3) 0.1996(3) 0.2086(3)
C27_11 C 0.6305(3) 0.2208(3) 0.1995(3)
H30_11 H 0.6197 0.2407 0.2206
C28_11 C 0.6952(3) 0.2093(3) 0.2471(2)
Cu2_7 Cu 0.74166(3) 0.34241(3) 0.45815(3)
O5_11 O 0.78091(18) 0.29326(17) 0.45254(19)
O6_8 O 0.80376(18) 0.30136(18) 0.5218(2)
O7_11 O 0.79254(18) 0.38292(17) 0.45606(18)
O8_8 O 0.79630(17) 0.39130(16) 0.52732(18)
C29_11 C 0.8040(3) 0.2814(3) 0.4858(3)
C30_11 C 0.8346(4) 0.2411(4) 0.4817(4)
C31_11 C 0.8284(3) 0.2214(3) 0.4354(3)
H31_11 H 0.8484 0.1968 0.4316
H32_11 H 0.7983 0.2112 0.4321
H33_11 H 0.8346 0.2437 0.4134
C32_12 C 0.8226(5) 0.2088(3) 0.5172(4)
H34_12 H 0.8270 0.2224 0.5458
H35_12 H 0.7919 0.2004 0.5140
H36_12 H 0.8411 0.1829 0.5147
C33_11 C 0.8808(4) 0.2579(4) 0.4887(4)
H37_12 H 0.8832 0.2707 0.5178
H38_11 H 0.9014 0.2336 0.4860
H39_11 H 0.8875 0.2801 0.4667
C34_11 C 0.8094(3) 0.3994(3) 0.4898(3)
C35_11 C 0.8456(3) 0.4314(3) 0.4835(3)
C36_11 C 0.8633(3) 0.4364(4) 0.4401(3)
H40_11 H 0.8398 0.4438 0.4198
H41_11 H 0.8851 0.4597 0.4401
H42_11 H 0.8770 0.4090 0.4310
C37_11 C 0.8272(4) 0.4774(4) 0.4951(4)
H43_11 H 0.8035 0.4848 0.4750
H44_12 H 0.8161 0.4772 0.5250
H45_11 H 0.8505 0.4991 0.4926
C38_12 C 0.8823(4) 0.4226(4) 0.5164(4)
H46_12 H 0.8962 0.3947 0.5097
H47_12 H 0.9040 0.4460 0.5146
H48_12 H 0.8701 0.4217 0.5459
Cu3_7 Cu 0.54185(3) 0.24166(3) 0.15759(3)
O9_11 O 0.54746(19) 0.28091(18) 0.20674(17)
O10_8 O 0.4782(2) 0.30376(18) 0.19864(18)
O11_11 O 0.54394(18) 0.29254(18) 0.11708(17)
O12_8 O 0.47268(18) 0.29630(17) 0.10870(16)
C39_11 C 0.5142(3) 0.3040(3) 0.2186(3)
C40_11 C 0.5183(4) 0.3346(4) 0.2589(4)
C41_11 C 0.5646(3) 0.3284(3) 0.2786(3)
H49_11 H 0.5684 0.3484 0.3032
H50_11 H 0.5679 0.2983 0.2888
H51_11 H 0.5866 0.3346 0.2563
C42_12 C 0.4828(4) 0.3226(5) 0.2912(3)
H52_12 H 0.4542 0.3270 0.2776
H53_12 H 0.4860 0.2919 0.2996
H54_12 H 0.4853 0.3411 0.3171
C43_11 C 0.5113(4) 0.3808(4) 0.2421(4)
H55_12 H 0.4822 0.3832 0.2293
H56_11 H 0.5140 0.4014 0.2664
H57_11 H 0.5333 0.3875 0.2199
C44_11 C 0.5102(3) 0.3094(3) 0.1006(3)
C45_11 C 0.5165(3) 0.3456(3) 0.0686(3)
C46_11 C 0.5599(3) 0.3633(3) 0.0636(4)
H58_11 H 0.5802 0.3398 0.0562
H59_11 H 0.5599 0.3851 0.0403
H60_11 H 0.5690 0.3770 0.0910
C47_11 C 0.5049(4) 0.3272(4) 0.0226(4)
H61_11 H 0.5250 0.3035 0.0152
H62_12 H 0.4750 0.3161 0.0228
H63_11 H 0.5074 0.3505 0.0009
C48_12 C 0.4836(4) 0.3823(4) 0.0774(4)
H64_12 H 0.4903 0.3962 0.1053
H65_12 H 0.4854 0.4040 0.0540
H66_12 H 0.4541 0.3701 0.0783
Cu5_8 Cu 0.75834(3) 0.34241(3) 0.54185(3)
Cu6_8 Cu 0.45815(3) 0.25834(3) 0.15759(3)
O13_7 O 0.80136(18) 0.0218(2) 0.30376(18)
O14_7 O 0.69624(18) 0.30136(18) 0.4782(2)
O15_7 O 0.5218(2) 0.19624(18) 0.19864(18)
O16_7 O 0.89130(16) 0.02732(18) 0.29630(17)
O17_7 O 0.70370(17) 0.39130(16) 0.47268(18)
O18_7 O 0.52732(18) 0.20370(17) 0.10870(16)
O2_8 O 0.80136(18) 0.9782(2) 0.19624(18)
O4_8 O 0.89130(16) 0.97268(18) 0.20370(17)
C4_12 C 0.7088(3) 0.9828(4) 0.1774(5)
H4_12 H 0.7224 0.9542 0.1730
H5_12 H 0.7004 0.9860 0.2081
H6_12 H 0.6829 0.9853 0.1589
H7_12 H 0.7707 0.9822 0.1168
H14_12 H 0.9772 0.9750 0.1839
C10_12 C 0.9226(4) 0.9836(4) 0.1177(4)
H16_12 H 0.8947 0.9903 0.1038
H17_12 H 0.9460 0.9854 0.0960
H18_12 H 0.9217 0.9541 0.1299
Cu4_8 Cu 0.84241(3) 0.95815(3) 0.24166(3)
C4_13 C 0.7088(3) 0.0172(4) 0.3226(5)
H4_13 H 0.7224 0.0458 0.3270
H5_13 H 0.7004 0.0140 0.2919
H6_13 H 0.6829 0.0147 0.3411
H7_13 H 0.7707 0.0178 0.3832
H14_13 H 0.9772 0.0250 0.3161
C10_13 C 0.9226(4) 0.0164(4) 0.3823(4)
H16_13 H 0.8947 0.0097 0.3962
H17_13 H 0.9460 0.0146 0.4040
H18_13 H 0.9217 0.0459 0.3701
N1_12 N 0.8365(2) 0.89265(19) 0.2155(2)
N2_12 N 0.7288(2) 0.81677(18) 0.2435(2)
O1_12 O 0.79326(17) 0.95254(19) 0.28091(18)
O3_12 O 0.88292(17) 0.95606(18) 0.29254(18)
C1_12 C 0.7814(3) 0.9858(3) 0.3040(3)
C2_12 C 0.7411(4) 0.9817(4) 0.3346(4)
C3_12 C 0.7214(3) 0.9354(3) 0.3284(3)
H1_12 H 0.6968 0.9316 0.3484
H2_12 H 0.7112 0.9321 0.2983
H3_12 H 0.7437 0.9134 0.3346
C5_12 C 0.7579(4) 0.9887(4) 0.3808(4)
H8_12 H 0.7336 0.9860 0.4014
H9_12 H 0.7801 0.9667 0.3875
C6_12 C 0.8994(3) 0.9898(3) 0.3094(3)
C7_12 C 0.9314(3) 0.9835(3) 0.3456(3)
C8_12 C 0.9364(4) 0.9401(3) 0.3633(3)
H10_12 H 0.9438 0.9198 0.3398
H11_12 H 0.9597 0.9401 0.3851
H12_12 H 0.9090 0.9310 0.3770
C9_12 C 0.9774(4) 0.9951(4) 0.3272(4)
H13_12 H 0.9848 0.9750 0.3035
H15_12 H 0.9991 0.9926 0.3505
C11_12 C 0.8658(3) 0.8769(3) 0.1883(3)
H19_12 H 0.8920 0.8928 0.1837
C12_12 C 0.8599(3) 0.8383(3) 0.1664(3)
H20_12 H 0.8817 0.8277 0.1472
C13_12 C 0.8224(3) 0.8155(3) 0.1724(3)
H21_12 H 0.8181 0.7887 0.1574
C14_12 C 0.7914(3) 0.8306(3) 0.1996(3)
C15_12 C 0.8005(3) 0.8695(3) 0.2208(3)
H22_12 H 0.7794 0.8803 0.2407
C16_12 C 0.7529(2) 0.8048(3) 0.2093(3)
N3_12 N 0.7155(2) 0.6635(2) 0.10735(19)
N4_12 N 0.7435(2) 0.7712(2) 0.18323(18)
C17_12 C 0.6883(3) 0.6342(3) 0.1231(3)
H23_12 H 0.6837 0.6080 0.1072
C18_12 C 0.6664(3) 0.6401(3) 0.1617(3)
H24_12 H 0.6472 0.6183 0.1723
C19_12 C 0.6724(3) 0.6776(3) 0.1845(3)
H25_12 H 0.6574 0.6819 0.2113
C20_12 C 0.6996(3) 0.7086(3) 0.1694(3)
C21_12 C 0.7208(3) 0.6995(3) 0.1305(3)
H26_12 H 0.7407 0.7206 0.1197
C22_12 C 0.7093(3) 0.7471(2) 0.1952(3)
N5_12 N 0.60735(19) 0.7845(2) 0.3365(2)
N6_12 N 0.68323(18) 0.7565(2) 0.2288(2)
C23_12 C 0.6231(3) 0.8117(3) 0.3658(3)
H27_12 H 0.6072 0.8163 0.3920
C24_12 C 0.6617(3) 0.8336(3) 0.3599(3)
H28_12 H 0.6723 0.8528 0.3817
C25_12 C 0.6845(3) 0.8276(3) 0.3224(3)
H29_12 H 0.7113 0.8426 0.3181
C26_12 C 0.6694(3) 0.8004(3) 0.2914(3)
C27_12 C 0.6305(3) 0.7792(3) 0.3005(3)
H30_12 H 0.6197 0.7593 0.2794
C28_12 C 0.6952(3) 0.7907(3) 0.2529(2)
O5_12 O 0.78091(18) 0.70674(17) 0.04746(19)
O7_12 O 0.79254(18) 0.61708(17) 0.04394(18)
C29_12 C 0.8040(3) 0.7186(3) 0.0142(3)
C30_12 C 0.8346(4) 0.7589(4) 0.0183(4)
C31_12 C 0.8284(3) 0.7786(3) 0.0646(3)
H31_12 H 0.8484 0.8032 0.0684
H32_12 H 0.7983 0.7888 0.0679
H33_12 H 0.8346 0.7563 0.0866
C33_12 C 0.8808(4) 0.7421(4) 0.0113(4)
H38_12 H 0.9014 0.7664 0.0140
H39_12 H 0.8875 0.7199 0.0333
C34_12 C 0.8094(3) 0.6006(3) 0.0102(3)
C35_12 C 0.8456(3) 0.5686(3) 0.0165(3)
C36_12 C 0.8633(3) 0.5636(4) 0.0599(3)
H40_12 H 0.8398 0.5562 0.0802
H41_12 H 0.8851 0.5403 0.0599
H42_12 H 0.8770 0.5910 0.0690
C37_12 C 0.8272(4) 0.5226(4) 0.0049(4)
H43_12 H 0.8035 0.5152 0.0250
H45_12 H 0.8505 0.5009 0.0074
O9_12 O 0.54746(19) 0.71909(18) 0.29326(17)
O11_12 O 0.54394(18) 0.70746(18) 0.38292(17)
C39_12 C 0.5142(3) 0.6960(3) 0.2814(3)
C40_12 C 0.5183(4) 0.6654(4) 0.2411(4)
C41_12 C 0.5646(3) 0.6716(3) 0.2214(3)
H49_12 H 0.5684 0.6516 0.1968
H50_12 H 0.5679 0.7017 0.2112
H51_12 H 0.5866 0.6654 0.2437
C42_13 C 0.4828(4) 0.6774(5) 0.2088(3)
H52_13 H 0.4542 0.6730 0.2224
H53_13 H 0.4860 0.7081 0.2004
H54_13 H 0.4853 0.6589 0.1829
C43_12 C 0.5113(4) 0.6192(4) 0.2579(4)
H55_13 H 0.4822 0.6168 0.2707
H56_12 H 0.5140 0.5986 0.2336
H57_12 H 0.5333 0.6125 0.2801
C44_12 C 0.5102(3) 0.6906(3) 0.3994(3)
C45_12 C 0.5165(3) 0.6544(3) 0.4314(3)
C46_12 C 0.5599(3) 0.6367(3) 0.4364(4)
H58_12 H 0.5802 0.6602 0.4438
H59_12 H 0.5599 0.6149 0.4597
H60_12 H 0.5690 0.6230 0.4090
C47_12 C 0.5049(4) 0.6728(4) 0.4774(4)
H61_12 H 0.5250 0.6965 0.4848
H62_13 H 0.4750 0.6839 0.4772
H63_12 H 0.5074 0.6495 0.4991
C48_13 C 0.4836(4) 0.6177(4) 0.4226(4)
H64_13 H 0.4903 0.6038 0.3947
H65_13 H 0.4854 0.5960 0.4460
H66_13 H 0.4541 0.6299 0.4217
C42_14 C 0.0172(4) 0.3226(5) 0.7088(3)
H52_14 H 0.0458 0.3270 0.7224
H53_14 H 0.0140 0.2919 0.7004
H54_14 H 0.0147 0.3411 0.6829
H55_14 H 0.0178 0.3832 0.7707
H62_14 H 0.0250 0.3161 0.9772
C48_14 C 0.0164(4) 0.3823(4) 0.9226(4)
H64_14 H 0.0097 0.3962 0.8947
H65_14 H 0.0146 0.4040 0.9460
H66_14 H 0.0459 0.3701 0.9217
N1_13 N 0.6635(2) 0.10735(19) 0.7155(2)
N2_13 N 0.7712(2) 0.18323(18) 0.7435(2)
O1_13 O 0.70674(17) 0.04746(19) 0.78091(18)
O3_13 O 0.61708(17) 0.04394(18) 0.79254(18)
C1_13 C 0.7186(3) 0.0142(3) 0.8040(3)
C2_13 C 0.7589(4) 0.0183(4) 0.8346(4)
C3_13 C 0.7786(3) 0.0646(3) 0.8284(3)
H1_13 H 0.8032 0.0684 0.8484
H2_13 H 0.7888 0.0679 0.7983
H3_13 H 0.7563 0.0866 0.8346
C5_13 C 0.7421(4) 0.0113(4) 0.8808(4)
H8_13 H 0.7664 0.0140 0.9014
H9_13 H 0.7199 0.0333 0.8875
C6_13 C 0.6006(3) 0.0102(3) 0.8094(3)
C7_13 C 0.5686(3) 0.0165(3) 0.8456(3)
C8_13 C 0.5636(4) 0.0599(3) 0.8633(3)
H10_13 H 0.5562 0.0802 0.8398
H11_13 H 0.5403 0.0599 0.8851
H12_13 H 0.5910 0.0690 0.8770
C9_13 C 0.5226(4) 0.0049(4) 0.8272(4)
H13_13 H 0.5152 0.0250 0.8035
H15_13 H 0.5009 0.0074 0.8505
C11_13 C 0.6342(3) 0.1231(3) 0.6883(3)
H19_13 H 0.6080 0.1072 0.6837
C12_13 C 0.6401(3) 0.1617(3) 0.6664(3)
H20_13 H 0.6183 0.1723 0.6472
C13_13 C 0.6776(3) 0.1845(3) 0.6724(3)
H21_13 H 0.6819 0.2113 0.6574
C14_13 C 0.7086(3) 0.1694(3) 0.6996(3)
C15_13 C 0.6995(3) 0.1305(3) 0.7208(3)
H22_13 H 0.7206 0.1197 0.7407
C16_13 C 0.7471(2) 0.1952(3) 0.7093(3)
N3_13 N 0.7845(2) 0.3365(2) 0.60735(19)
N4_13 N 0.7565(2) 0.2288(2) 0.68323(18)
C17_13 C 0.8117(3) 0.3658(3) 0.6231(3)
H23_13 H 0.8163 0.3920 0.6072
C18_13 C 0.8336(3) 0.3599(3) 0.6617(3)
H24_13 H 0.8528 0.3817 0.6723
C19_13 C 0.8276(3) 0.3224(3) 0.6845(3)
H25_13 H 0.8426 0.3181 0.7113
C20_13 C 0.8004(3) 0.2914(3) 0.6694(3)
C21_13 C 0.7792(3) 0.3005(3) 0.6305(3)
H26_13 H 0.7593 0.2794 0.6197
C22_13 C 0.7907(3) 0.2529(2) 0.6952(3)
N5_13 N 0.89265(19) 0.2155(2) 0.8365(2)
N6_13 N 0.81677(18) 0.2435(2) 0.7288(2)
C23_13 C 0.8769(3) 0.1883(3) 0.8658(3)
H27_13 H 0.8928 0.1837 0.8920
C24_13 C 0.8383(3) 0.1664(3) 0.8599(3)
H28_13 H 0.8277 0.1472 0.8817
C25_13 C 0.8155(3) 0.1724(3) 0.8224(3)
H29_13 H 0.7887 0.1574 0.8181
C26_13 C 0.8306(3) 0.1996(3) 0.7914(3)
C27_13 C 0.8695(3) 0.2208(3) 0.8005(3)
H30_13 H 0.8803 0.2407 0.7794
C28_13 C 0.8048(3) 0.2093(3) 0.7529(2)
O5_13 O 0.71909(18) 0.29326(17) 0.54746(19)
O7_13 O 0.70746(18) 0.38292(17) 0.54394(18)
C29_13 C 0.6960(3) 0.2814(3) 0.5142(3)
C30_13 C 0.6654(4) 0.2411(4) 0.5183(4)
C31_13 C 0.6716(3) 0.2214(3) 0.5646(3)
H31_13 H 0.6516 0.1968 0.5684
H32_13 H 0.7017 0.2112 0.5679
H33_13 H 0.6654 0.2437 0.5866
C32_13 C 0.6774(5) 0.2088(3) 0.4828(4)
H34_13 H 0.6730 0.2224 0.4542
H35_13 H 0.7081 0.2004 0.4860
H36_13 H 0.6589 0.1829 0.4853
C33_13 C 0.6192(4) 0.2579(4) 0.5113(4)
H37_13 H 0.6168 0.2707 0.4822
H38_13 H 0.5986 0.2336 0.5140
H39_13 H 0.6125 0.2801 0.5333
C34_13 C 0.6906(3) 0.3994(3) 0.5102(3)
C35_13 C 0.6544(3) 0.4314(3) 0.5165(3)
C36_13 C 0.6367(3) 0.4364(4) 0.5599(3)
H40_13 H 0.6602 0.4438 0.5802
H41_13 H 0.6149 0.4597 0.5599
H42_13 H 0.6230 0.4090 0.5690
C37_13 C 0.6728(4) 0.4774(4) 0.5049(4)
H43_13 H 0.6965 0.4848 0.5250
H44_13 H 0.6839 0.4772 0.4750
H45_13 H 0.6495 0.4991 0.5074
C38_13 C 0.6177(4) 0.4226(4) 0.4836(4)
H46_13 H 0.6038 0.3947 0.4903
H47_13 H 0.5960 0.4460 0.4854
H48_13 H 0.6299 0.4217 0.4541
O9_13 O 0.95254(19) 0.28091(18) 0.79326(17)
O11_13 O 0.95606(18) 0.29254(18) 0.88292(17)
C39_13 C 0.9858(3) 0.3040(3) 0.7814(3)
C40_13 C 0.9817(4) 0.3346(4) 0.7411(4)
C41_13 C 0.9354(3) 0.3284(3) 0.7214(3)
H49_13 H 0.9316 0.3484 0.6968
H50_13 H 0.9321 0.2983 0.7112
H51_13 H 0.9134 0.3346 0.7437
C43_13 C 0.9887(4) 0.3808(4) 0.7579(4)
H56_13 H 0.9860 0.4014 0.7336
H57_13 H 0.9667 0.3875 0.7801
C44_13 C 0.9898(3) 0.3094(3) 0.8994(3)
C45_13 C 0.9835(3) 0.3456(3) 0.9314(3)
C46_13 C 0.9401(3) 0.3633(3) 0.9364(4)
H58_13 H 0.9198 0.3398 0.9438
H59_13 H 0.9401 0.3851 0.9597
H60_13 H 0.9310 0.3770 0.9090
C47_13 C 0.9951(4) 0.3272(4) 0.9774(4)
H61_13 H 0.9750 0.3035 0.9848
H63_13 H 0.9926 0.3505 0.9991
N1_14 N 0.1635(2) 0.39265(19) 0.2845(2)
N2_14 N 0.2712(2) 0.31677(18) 0.2565(2)
O1_14 O 0.20674(17) 0.45254(19) 0.21909(18)
O3_14 O 0.11708(17) 0.45606(18) 0.20746(18)
C1_14 C 0.2186(3) 0.4858(3) 0.1960(3)
C2_14 C 0.2589(4) 0.4817(4) 0.1654(4)
C3_14 C 0.2786(3) 0.4354(3) 0.1716(3)
H1_14 H 0.3032 0.4316 0.1516
H2_14 H 0.2888 0.4321 0.2017
H3_14 H 0.2563 0.4134 0.1654
C4_14 C 0.2912(3) 0.5172(4) 0.1774(5)
H4_14 H 0.2776 0.5458 0.1730
H5_14 H 0.2996 0.5140 0.2081
H6_14 H 0.3171 0.5147 0.1589
C5_14 C 0.2421(4) 0.4887(4) 0.1192(4)
H7_14 H 0.2293 0.5178 0.1168
H8_14 H 0.2664 0.4860 0.0986
H9_14 H 0.2199 0.4667 0.1125
C6_14 C 0.1006(3) 0.4898(3) 0.1906(3)
C7_14 C 0.0686(3) 0.4835(3) 0.1544(3)
C8_14 C 0.0636(4) 0.4401(3) 0.1367(3)
H10_14 H 0.0562 0.4198 0.1602
H11_14 H 0.0403 0.4401 0.1149
H12_14 H 0.0910 0.4310 0.1230
C9_14 C 0.0226(4) 0.4951(4) 0.1728(4)
H13_14 H 0.0152 0.4750 0.1965
H14_14 H 0.0228 0.5250 0.1839
H15_14 H 0.0009 0.4926 0.1495
C10_14 C 0.0774(4) 0.5164(4) 0.1177(4)
H16_14 H 0.1053 0.5097 0.1038
H17_14 H 0.0540 0.5146 0.0960
H18_14 H 0.0783 0.5459 0.1299
C11_14 C 0.1342(3) 0.3769(3) 0.3117(3)
H19_14 H 0.1080 0.3928 0.3163
C12_14 C 0.1401(3) 0.3383(3) 0.3336(3)
H20_14 H 0.1183 0.3277 0.3528
C13_14 C 0.1776(3) 0.3155(3) 0.3276(3)
H21_14 H 0.1819 0.2887 0.3426
C14_14 C 0.2086(3) 0.3306(3) 0.3004(3)
C15_14 C 0.1995(3) 0.3695(3) 0.2792(3)
H22_14 H 0.2206 0.3803 0.2593
C16_14 C 0.2471(2) 0.3048(3) 0.2907(3)
N3_14 N 0.2845(2) 0.1635(2) 0.39265(19)
N4_14 N 0.2565(2) 0.2712(2) 0.31677(18)
C17_14 C 0.3117(3) 0.1342(3) 0.3769(3)
H23_14 H 0.3163 0.1080 0.3928
C18_14 C 0.3336(3) 0.1401(3) 0.3383(3)
H24_14 H 0.3528 0.1183 0.3277
C19_14 C 0.3276(3) 0.1776(3) 0.3155(3)
H25_14 H 0.3426 0.1819 0.2887
C20_14 C 0.3004(3) 0.2086(3) 0.3306(3)
C21_14 C 0.2792(3) 0.1995(3) 0.3695(3)
H26_14 H 0.2593 0.2206 0.3803
C22_14 C 0.2907(3) 0.2471(2) 0.3048(3)
N5_14 N 0.39265(19) 0.2845(2) 0.1635(2)
N6_14 N 0.31677(18) 0.2565(2) 0.2712(2)
C23_14 C 0.3769(3) 0.3117(3) 0.1342(3)
H27_14 H 0.3928 0.3163 0.1080
C24_14 C 0.3383(3) 0.3336(3) 0.1401(3)
H28_14 H 0.3277 0.3528 0.1183
C25_14 C 0.3155(3) 0.3276(3) 0.1776(3)
H29_14 H 0.2887 0.3426 0.1819
C26_14 C 0.3306(3) 0.3004(3) 0.2086(3)
C27_14 C 0.3695(3) 0.2792(3) 0.1995(3)
H30_14 H 0.3803 0.2593 0.2206
C28_14 C 0.3048(3) 0.2907(3) 0.2471(2)
O5_14 O 0.21909(18) 0.20674(17) 0.45254(19)
O7_14 O 0.20746(18) 0.11708(17) 0.45606(18)
C29_14 C 0.1960(3) 0.2186(3) 0.4858(3)
C30_14 C 0.1654(4) 0.2589(4) 0.4817(4)
C31_14 C 0.1716(3) 0.2786(3) 0.4354(3)
H31_14 H 0.1516 0.3032 0.4316
H32_14 H 0.2017 0.2888 0.4321
H33_14 H 0.1654 0.2563 0.4134
C32_14 C 0.1774(5) 0.2912(3) 0.5172(4)
H34_14 H 0.1730 0.2776 0.5458
H35_14 H 0.2081 0.2996 0.5140
H36_14 H 0.1589 0.3171 0.5147
C33_14 C 0.1192(4) 0.2421(4) 0.4887(4)
H37_14 H 0.1168 0.2293 0.5178
H38_14 H 0.0986 0.2664 0.4860
H39_14 H 0.1125 0.2199 0.4667
C34_14 C 0.1906(3) 0.1006(3) 0.4898(3)
C35_14 C 0.1544(3) 0.0686(3) 0.4835(3)
C36_14 C 0.1367(3) 0.0636(4) 0.4401(3)
H40_14 H 0.1602 0.0562 0.4198
H41_14 H 0.1149 0.0403 0.4401
H42_14 H 0.1230 0.0910 0.4310
C37_14 C 0.1728(4) 0.0226(4) 0.4951(4)
H43_14 H 0.1965 0.0152 0.4750
H44_14 H 0.1839 0.0228 0.5250
H45_14 H 0.1495 0.0009 0.4926
C38_14 C 0.1177(4) 0.0774(4) 0.5164(4)
H46_14 H 0.1038 0.1053 0.5097
H47_14 H 0.0960 0.0540 0.5146
H48_14 H 0.1299 0.0783 0.5459
O9_14 O 0.45254(19) 0.21909(18) 0.20674(17)
O11_14 O 0.45606(18) 0.20746(18) 0.11708(17)
C39_14 C 0.4858(3) 0.1960(3) 0.2186(3)
C40_14 C 0.4817(4) 0.1654(4) 0.2589(4)
C41_14 C 0.4354(3) 0.1716(3) 0.2786(3)
H49_14 H 0.4316 0.1516 0.3032
H50_14 H 0.4321 0.2017 0.2888
H51_14 H 0.4134 0.1654 0.2563
C42_15 C 0.5172(4) 0.1774(5) 0.2912(3)
H52_15 H 0.5458 0.1730 0.2776
H53_15 H 0.5140 0.2081 0.2996
H54_15 H 0.5147 0.1589 0.3171
C43_14 C 0.4887(4) 0.1192(4) 0.2421(4)
H55_15 H 0.5178 0.1168 0.2293
H56_14 H 0.4860 0.0986 0.2664
H57_14 H 0.4667 0.1125 0.2199
C44_14 C 0.4898(3) 0.1906(3) 0.1006(3)
C45_14 C 0.4835(3) 0.1544(3) 0.0686(3)
C46_14 C 0.4401(3) 0.1367(3) 0.0636(4)
H58_14 H 0.4198 0.1602 0.0562
H59_14 H 0.4401 0.1149 0.0403
H60_14 H 0.4310 0.1230 0.0910
C47_14 C 0.4951(4) 0.1728(4) 0.0226(4)
H61_14 H 0.4750 0.1965 0.0152
H62_15 H 0.5250 0.1839 0.0228
H63_14 H 0.4926 0.1495 0.0009
C48_15 C 0.5164(4) 0.1177(4) 0.0774(4)
H64_15 H 0.5097 0.1038 0.1053
H65_15 H 0.5146 0.0960 0.0540
H66_15 H 0.5459 0.1299 0.0783
C32_15 C 0.3226(5) 0.7088(3) 0.0172(4)
H34_15 H 0.3270 0.7224 0.0458
H35_15 H 0.2919 0.7004 0.0140
H36_15 H 0.3411 0.6829 0.0147
H37_15 H 0.3832 0.7707 0.0178
H44_15 H 0.3161 0.9772 0.0250
C38_15 C 0.3823(4) 0.9226(4) 0.0164(4)
H46_15 H 0.3962 0.8947 0.0097
H47_15 H 0.4040 0.9460 0.0146
H48_15 H 0.3701 0.9217 0.0459
N1_15 N 0.3365(2) 0.60735(19) 0.7845(2)
N2_15 N 0.2288(2) 0.68323(18) 0.7565(2)
O1_15 O 0.29326(17) 0.54746(19) 0.71909(18)
O3_15 O 0.38292(17) 0.54394(18) 0.70746(18)
C1_15 C 0.2814(3) 0.5142(3) 0.6960(3)
C2_15 C 0.2411(4) 0.5183(4) 0.6654(4)
C3_15 C 0.2214(3) 0.5646(3) 0.6716(3)
H1_15 H 0.1968 0.5684 0.6516
H2_15 H 0.2112 0.5679 0.7017
H3_15 H 0.2437 0.5866 0.6654
C4_15 C 0.2088(3) 0.4828(4) 0.6774(5)
H4_15 H 0.2224 0.4542 0.6730
H5_15 H 0.2004 0.4860 0.7081
H6_15 H 0.1829 0.4853 0.6589
C5_15 C 0.2579(4) 0.5113(4) 0.6192(4)
H7_15 H 0.2707 0.4822 0.6168
H8_15 H 0.2336 0.5140 0.5986
H9_15 H 0.2801 0.5333 0.6125
C6_15 C 0.3994(3) 0.5102(3) 0.6906(3)
C7_15 C 0.4314(3) 0.5165(3) 0.6544(3)
C8_15 C 0.4364(4) 0.5599(3) 0.6367(3)
H10_15 H 0.4438 0.5802 0.6602
H11_15 H 0.4597 0.5599 0.6149
H12_15 H 0.4090 0.5690 0.6230
C9_15 C 0.4774(4) 0.5049(4) 0.6728(4)
H13_15 H 0.4848 0.5250 0.6965
H14_15 H 0.4772 0.4750 0.6839
H15_15 H 0.4991 0.5074 0.6495
C10_15 C 0.4226(4) 0.4836(4) 0.6177(4)
H16_15 H 0.3947 0.4903 0.6038
H17_15 H 0.4460 0.4854 0.5960
H18_15 H 0.4217 0.4541 0.6299
C11_15 C 0.3658(3) 0.6231(3) 0.8117(3)
H19_15 H 0.3920 0.6072 0.8163
C12_15 C 0.3599(3) 0.6617(3) 0.8336(3)
H20_15 H 0.3817 0.6723 0.8528
C13_15 C 0.3224(3) 0.6845(3) 0.8276(3)
H21_15 H 0.3181 0.7113 0.8426
C14_15 C 0.2914(3) 0.6694(3) 0.8004(3)
C15_15 C 0.3005(3) 0.6305(3) 0.7792(3)
H22_15 H 0.2794 0.6197 0.7593
C16_15 C 0.2529(2) 0.6952(3) 0.7907(3)
N3_15 N 0.2155(2) 0.8365(2) 0.89265(19)
N4_15 N 0.2435(2) 0.7288(2) 0.81677(18)
C17_15 C 0.1883(3) 0.8658(3) 0.8769(3)
H23_15 H 0.1837 0.8920 0.8928
C18_15 C 0.1664(3) 0.8599(3) 0.8383(3)
H24_15 H 0.1472 0.8817 0.8277
C19_15 C 0.1724(3) 0.8224(3) 0.8155(3)
H25_15 H 0.1574 0.8181 0.7887
C20_15 C 0.1996(3) 0.7914(3) 0.8306(3)
C21_15 C 0.2208(3) 0.8005(3) 0.8695(3)
H26_15 H 0.2407 0.7794 0.8803
C22_15 C 0.2093(3) 0.7529(2) 0.8048(3)
N5_15 N 0.10735(19) 0.7155(2) 0.6635(2)
N6_15 N 0.18323(18) 0.7435(2) 0.7712(2)
C23_15 C 0.1231(3) 0.6883(3) 0.6342(3)
H27_15 H 0.1072 0.6837 0.6080
C24_15 C 0.1617(3) 0.6664(3) 0.6401(3)
H28_15 H 0.1723 0.6472 0.6183
C25_15 C 0.1845(3) 0.6724(3) 0.6776(3)
H29_15 H 0.2113 0.6574 0.6819
C26_15 C 0.1694(3) 0.6996(3) 0.7086(3)
C27_15 C 0.1305(3) 0.7208(3) 0.6995(3)
H30_15 H 0.1197 0.7407 0.7206
C28_15 C 0.1952(3) 0.7093(3) 0.7471(2)
O5_15 O 0.28091(18) 0.79326(17) 0.95254(19)
O7_15 O 0.29254(18) 0.88292(17) 0.95606(18)
C29_15 C 0.3040(3) 0.7814(3) 0.9858(3)
C30_15 C 0.3346(4) 0.7411(4) 0.9817(4)
C31_15 C 0.3284(3) 0.7214(3) 0.9354(3)
H31_15 H 0.3484 0.6968 0.9316
H32_15 H 0.2983 0.7112 0.9321
H33_15 H 0.3346 0.7437 0.9134
C33_15 C 0.3808(4) 0.7579(4) 0.9887(4)
H38_15 H 0.4014 0.7336 0.9860
H39_15 H 0.3875 0.7801 0.9667
C34_15 C 0.3094(3) 0.8994(3) 0.9898(3)
C35_15 C 0.3456(3) 0.9314(3) 0.9835(3)
C36_15 C 0.3633(3) 0.9364(4) 0.9401(3)
H40_15 H 0.3398 0.9438 0.9198
H41_15 H 0.3851 0.9597 0.9401
H42_15 H 0.3770 0.9090 0.9310
C37_15 C 0.3272(4) 0.9774(4) 0.9951(4)
H43_15 H 0.3035 0.9848 0.9750
H45_15 H 0.3505 0.9991 0.9926
O9_15 O 0.04746(19) 0.78091(18) 0.70674(17)
O11_15 O 0.04394(18) 0.79254(18) 0.61708(17)
C39_15 C 0.0142(3) 0.8040(3) 0.7186(3)
C40_15 C 0.0183(4) 0.8346(4) 0.7589(4)
C41_15 C 0.0646(3) 0.8284(3) 0.7786(3)
H49_15 H 0.0684 0.8484 0.8032
H50_15 H 0.0679 0.7983 0.7888
H51_15 H 0.0866 0.8346 0.7563
C43_15 C 0.0113(4) 0.8808(4) 0.7421(4)
H56_15 H 0.0140 0.9014 0.7664
H57_15 H 0.0333 0.8875 0.7199
C44_15 C 0.0102(3) 0.8094(3) 0.6006(3)
C45_15 C 0.0165(3) 0.8456(3) 0.5686(3)
C46_15 C 0.0599(3) 0.8633(3) 0.5636(4)
H58_15 H 0.0802 0.8398 0.5562
H59_15 H 0.0599 0.8851 0.5403
H60_15 H 0.0690 0.8770 0.5910
C47_15 C 0.0049(4) 0.8272(4) 0.5226(4)
H61_15 H 0.0250 0.8035 0.5152
H63_15 H 0.0074 0.8505 0.5009
Cu1_8 Cu 0.65759(3) 0.95815(3) 0.75834(3)
N1_16 N 0.6635(2) 0.89265(19) 0.7845(2)
N2_16 N 0.7712(2) 0.81677(18) 0.7565(2)
O1_16 O 0.70674(17) 0.95254(19) 0.71909(18)
O3_16 O 0.61708(17) 0.95606(18) 0.70746(18)
C1_16 C 0.7186(3) 0.9858(3) 0.6960(3)
C2_16 C 0.7589(4) 0.9817(4) 0.6654(4)
C3_16 C 0.7786(3) 0.9354(3) 0.6716(3)
H1_16 H 0.8032 0.9316 0.6516
H2_16 H 0.7888 0.9321 0.7017
H3_16 H 0.7563 0.9134 0.6654
C5_16 C 0.7421(4) 0.9887(4) 0.6192(4)
H8_16 H 0.7664 0.9860 0.5986
H9_16 H 0.7199 0.9667 0.6125
C6_16 C 0.6006(3) 0.9898(3) 0.6906(3)
C7_16 C 0.5686(3) 0.9835(3) 0.6544(3)
C8_16 C 0.5636(4) 0.9401(3) 0.6367(3)
H10_16 H 0.5562 0.9198 0.6602
H11_16 H 0.5403 0.9401 0.6149
H12_16 H 0.5910 0.9310 0.6230
C9_16 C 0.5226(4) 0.9951(4) 0.6728(4)
H13_16 H 0.5152 0.9750 0.6965
H15_16 H 0.5009 0.9926 0.6495
C11_16 C 0.6342(3) 0.8769(3) 0.8117(3)
H19_16 H 0.6080 0.8928 0.8163
C12_16 C 0.6401(3) 0.8383(3) 0.8336(3)
H20_16 H 0.6183 0.8277 0.8528
C13_16 C 0.6776(3) 0.8155(3) 0.8276(3)
H21_16 H 0.6819 0.7887 0.8426
C14_16 C 0.7086(3) 0.8306(3) 0.8004(3)
C15_16 C 0.6995(3) 0.8695(3) 0.7792(3)
H22_16 H 0.7206 0.8803 0.7593
C16_16 C 0.7471(2) 0.8048(3) 0.7907(3)
N3_16 N 0.7845(2) 0.6635(2) 0.89265(19)
N4_16 N 0.7565(2) 0.7712(2) 0.81677(18)
C17_16 C 0.8117(3) 0.6342(3) 0.8769(3)
H23_16 H 0.8163 0.6080 0.8928
C18_16 C 0.8336(3) 0.6401(3) 0.8383(3)
H24_16 H 0.8528 0.6183 0.8277
C19_16 C 0.8276(3) 0.6776(3) 0.8155(3)
H25_16 H 0.8426 0.6819 0.7887
C20_16 C 0.8004(3) 0.7086(3) 0.8306(3)
C21_16 C 0.7792(3) 0.6995(3) 0.8695(3)
H26_16 H 0.7593 0.7206 0.8803
C22_16 C 0.7907(3) 0.7471(2) 0.8048(3)
N5_16 N 0.89265(19) 0.7845(2) 0.6635(2)
N6_16 N 0.81677(18) 0.7565(2) 0.7712(2)
C23_16 C 0.8769(3) 0.8117(3) 0.6342(3)
H27_16 H 0.8928 0.8163 0.6080
C24_16 C 0.8383(3) 0.8336(3) 0.6401(3)
H28_16 H 0.8277 0.8528 0.6183
C25_16 C 0.8155(3) 0.8276(3) 0.6776(3)
H29_16 H 0.7887 0.8426 0.6819
C26_16 C 0.8306(3) 0.8004(3) 0.7086(3)
C27_16 C 0.8695(3) 0.7792(3) 0.6995(3)
H30_16 H 0.8803 0.7593 0.7206
C28_16 C 0.8048(3) 0.7907(3) 0.7471(2)
Cu2_8 Cu 0.75834(3) 0.65759(3) 0.95815(3)
O5_16 O 0.71909(18) 0.70674(17) 0.95254(19)
O7_16 O 0.70746(18) 0.61708(17) 0.95606(18)
C29_16 C 0.6960(3) 0.7186(3) 0.9858(3)
C30_16 C 0.6654(4) 0.7589(4) 0.9817(4)
C31_16 C 0.6716(3) 0.7786(3) 0.9354(3)
H31_16 H 0.6516 0.8032 0.9316
H32_16 H 0.7017 0.7888 0.9321
H33_16 H 0.6654 0.7563 0.9134
C33_16 C 0.6192(4) 0.7421(4) 0.9887(4)
H38_16 H 0.5986 0.7664 0.9860
H39_16 H 0.6125 0.7199 0.9667
C34_16 C 0.6906(3) 0.6006(3) 0.9898(3)
C35_16 C 0.6544(3) 0.5686(3) 0.9835(3)
C36_16 C 0.6367(3) 0.5636(4) 0.9401(3)
H40_16 H 0.6602 0.5562 0.9198
H41_16 H 0.6149 0.5403 0.9401
H42_16 H 0.6230 0.5910 0.9310
C37_16 C 0.6728(4) 0.5226(4) 0.9951(4)
H43_16 H 0.6965 0.5152 0.9750
H45_16 H 0.6495 0.5009 0.9926
Cu3_8 Cu 0.95815(3) 0.75834(3) 0.65759(3)
O9_16 O 0.95254(19) 0.71909(18) 0.70674(17)
O11_16 O 0.95606(18) 0.70746(18) 0.61708(17)
C39_16 C 0.9858(3) 0.6960(3) 0.7186(3)
C40_16 C 0.9817(4) 0.6654(4) 0.7589(4)
C41_16 C 0.9354(3) 0.6716(3) 0.7786(3)
H49_16 H 0.9316 0.6516 0.8032
H50_16 H 0.9321 0.7017 0.7888
H51_16 H 0.9134 0.6654 0.7563
C43_16 C 0.9887(4) 0.6192(4) 0.7421(4)
H56_16 H 0.9860 0.5986 0.7664
H57_16 H 0.9667 0.6125 0.7199
C44_16 C 0.9898(3) 0.6906(3) 0.6006(3)
C45_16 C 0.9835(3) 0.6544(3) 0.5686(3)
C46_16 C 0.9401(3) 0.6367(3) 0.5636(4)
H58_16 H 0.9198 0.6602 0.5562
H59_16 H 0.9401 0.6149 0.5403
H60_16 H 0.9310 0.6230 0.5910
C47_16 C 0.9951(4) 0.6728(4) 0.5226(4)
H61_16 H 0.9750 0.6965 0.5152
H63_16 H 0.9926 0.6495 0.5009
O13_8 O 0.69864(18) 0.9782(2) 0.80376(18)
O14_8 O 0.80376(18) 0.69864(18) 0.9782(2)
O15_8 O 0.9782(2) 0.80376(18) 0.69864(18)
O16_8 O 0.60870(16) 0.97268(18) 0.79630(17)
O17_8 O 0.79630(17) 0.60870(16) 0.97268(18)
O18_8 O 0.97268(18) 0.79630(17) 0.60870(16)
C32_16 C 0.8226(5) 0.7912(3) 0.9828(4)
H34_16 H 0.8270 0.7776 0.9542
H35_16 H 0.7919 0.7996 0.9860
H36_16 H 0.8411 0.8171 0.9853
H37_16 H 0.8832 0.7293 0.9822
H44_16 H 0.8161 0.5228 0.9750
C38_16 C 0.8823(4) 0.5774(4) 0.9836(4)
H46_16 H 0.8962 0.6053 0.9903
H47_16 H 0.9040 0.5540 0.9854
H48_16 H 0.8701 0.5783 0.9541
C4_16 C 0.7912(3) 0.9828(4) 0.8226(5)
H4_16 H 0.7776 0.9542 0.8270
H5_16 H 0.7996 0.9860 0.7919
H6_16 H 0.8171 0.9853 0.8411
H7_16 H 0.7293 0.9822 0.8832
H14_16 H 0.5228 0.9750 0.8161
C10_16 C 0.5774(4) 0.9836(4) 0.8823(4)
H16_16 H 0.6053 0.9903 0.8962
H17_16 H 0.5540 0.9854 0.9040
H18_16 H 0.5783 0.9541 0.8701
C42_16 C 0.9828(4) 0.8226(5) 0.7912(3)
H52_16 H 0.9542 0.8270 0.7776
H53_16 H 0.9860 0.7919 0.7996
H54_16 H 0.9853 0.8411 0.8171
H55_16 H 0.9822 0.8832 0.7293
H62_16 H 0.9750 0.8161 0.5228
C48_16 C 0.9836(4) 0.8823(4) 0.5774(4)
H64_16 H 0.9903 0.8962 0.6053
H65_16 H 0.9854 0.9040 0.5540
H66_16 H 0.9541 0.8701 0.5783
loop_
_geom_bond_atom_site_label_1
_geom_bond_atom_site_label_2
_geom_bond_site_symmetry_1
_geom_bond_site_symmetry_2
H52 C42 1_555 1_555
H53 C42 1_555 1_555
H54 C42 1_555 1_555
H64 C48 1_555 1_555
H65 C48 1_555 1_555
H66 C48 1_555 1_555
O10 Cu6 1_555 1_555
O12 Cu6 1_555 1_555
Cu1 N1 1_555 1_555
N1 C11 1_555 1_555
N2 C16 1_555 1_555
O1 Cu1 1_555 1_555
O2 C1 1_555 1_555
O3 Cu1 1_555 1_555
O4 C6 1_555 1_555
C1 O1 1_555 1_555
C2 C1 1_555 1_555
C3 C2 1_555 1_555
H1 C3 1_555 1_555
H2 C3 1_555 1_555
H3 C3 1_555 1_555
C4 C2 1_555 1_555
H4 C4 1_555 1_555
H5 C4 1_555 1_555
H6 C4 1_555 1_555
C5 C2 1_555 1_555
H7 C5 1_555 1_555
H8 C5 1_555 1_555
H9 C5 1_555 1_555
C6 O3 1_555 1_555
C7 C6 1_555 1_555
C8 C7 1_555 1_555
H10 C8 1_555 1_555
H11 C8 1_555 1_555
H12 C8 1_555 1_555
C9 C7 1_555 1_555
H13 C9 1_555 1_555
H14 C9 1_555 1_555
H15 C9 1_555 1_555
C10 C7 1_555 1_555
H16 C10 1_555 1_555
H17 C10 1_555 1_555
H18 C10 1_555 1_555
C11 H19 1_555 1_555
C12 C11 1_555 1_555
H20 C12 1_555 1_555
C13 C12 1_555 1_555
H21 C13 1_555 1_555
C14 C13 1_555 1_555
C15 N1 1_555 1_555
H22 C15 1_555 1_555
C16 C14 1_555 1_555
N3 C17 1_555 1_555
N4 C16 1_555 1_555
C17 H23 1_555 1_555
C18 C17 1_555 1_555
H24 C18 1_555 1_555
C19 C18 1_555 1_555
H25 C19 1_555 1_555
C20 C19 1_555 1_555
C21 N3 1_555 1_555
H26 C21 1_555 1_555
C22 N4 1_555 1_555
N5 C23 1_555 1_555
N6 C22 1_555 1_555
C23 H27 1_555 1_555
C24 C23 1_555 1_555
H28 C24 1_555 1_555
C25 C24 1_555 1_555
H29 C25 1_555 1_555
C26 C25 1_555 1_555
C27 N5 1_555 1_555
H30 C27 1_555 1_555
C28 N2 1_555 1_555
Cu2 N3 1_555 1_555
O5 Cu2 1_555 1_555
O6 C29 1_555 1_555
O7 Cu2 1_555 1_555
O8 C34 1_555 1_555
C29 O5 1_555 1_555
C30 C29 1_555 1_555
C31 C30 1_555 1_555
H31 C31 1_555 1_555
H32 C31 1_555 1_555
H33 C31 1_555 1_555
C32 C30 1_555 1_555
H34 C32 1_555 1_555
H35 C32 1_555 1_555
H36 C32 1_555 1_555
C33 C30 1_555 1_555
H37 C33 1_555 1_555
H38 C33 1_555 1_555
H39 C33 1_555 1_555
C34 O7 1_555 1_555
C35 C34 1_555 1_555
C36 C35 1_555 1_555
H40 C36 1_555 1_555
H41 C36 1_555 1_555
H42 C36 1_555 1_555
C37 C35 1_555 1_555
H43 C37 1_555 1_555
H44 C37 1_555 1_555
H45 C37 1_555 1_555
C38 C35 1_555 1_555
H46 C38 1_555 1_555
H47 C38 1_555 1_555
H48 C38 1_555 1_555
Cu3 N5 1_555 1_555
O9 Cu3 1_555 1_555
O11 Cu3 1_555 1_555
C39 O9 1_555 1_555
C40 C39 1_555 1_555
C41 C40 1_555 1_555
H49 C41 1_555 1_555
H50 C41 1_555 1_555
H51 C41 1_555 1_555
C43 C40 1_555 1_555
H56 C43 1_555 1_555
H57 C43 1_555 1_555
C44 O11 1_555 1_555
C45 C44 1_555 1_555
C46 C45 1_555 1_555
H58 C46 1_555 1_555
H59 C46 1_555 1_555
H60 C46 1_555 1_555
C47 C45 1_555 1_555
H61 C47 1_555 1_555
H63 C47 1_555 1_555
Cu4 Cu1 1_555 1_555
Cu5 Cu2 1_555 1_555
O13 Cu1 1_555 1_555
O14 Cu2 1_555 1_555
O15 Cu3 1_555 1_555
O16 Cu1 1_555 1_555
O17 Cu2 1_555 1_555
O18 Cu3 1_555 1_555
O2 Cu4 1_555 1_555
O4 Cu4 1_555 1_555
C14 C15 1_555 1_555
C20 C21 1_555 1_555
C20 C22 1_555 1_555
N6 C28 1_555 1_555
C26 C27 1_555 1_555
C26 C28 1_555 1_555
O6 Cu5 1_555 1_555
O8 Cu5 1_555 1_555
H34_2 C32_2 1_555 1_555
H35_2 C32_2 1_555 1_555
H36_2 C32_2 1_555 1_555
H46_2 C38_2 1_555 1_555
H47_2 C38_2 1_555 1_555
H48_2 C38_2 1_555 1_555
O6_2 Cu5_2 1_555 1_555
O8_2 Cu5_2 1_555 1_555
Cu1_2 N1_2 1_555 1_555
N1_2 C11_2 1_555 1_555
N2_2 C16_2 1_555 1_555
O1_2 Cu1_2 1_555 1_555
O2_2 C1_2 1_555 1_555
O3_2 Cu1_2 1_555 1_555
O4_2 C6_2 1_555 1_555
C1_2 O1_2 1_555 1_555
C2_2 C1_2 1_555 1_555
C3_2 C2_2 1_555 1_555
H1_2 C3_2 1_555 1_555
H2_2 C3_2 1_555 1_555
H3_2 C3_2 1_555 1_555
C4_2 C2_2 1_555 1_555
H4_2 C4_2 1_555 1_555
H5_2 C4_2 1_555 1_555
H6_2 C4_2 1_555 1_555
C5_2 C2_2 1_555 1_555
H7_2 C5_2 1_555 1_555
H8_2 C5_2 1_555 1_555
H9_2 C5_2 1_555 1_555
C6_2 O3_2 1_555 1_555
C7_2 C6_2 1_555 1_555
C8_2 C7_2 1_555 1_555
H10_2 C8_2 1_555 1_555
H11_2 C8_2 1_555 1_555
H12_2 C8_2 1_555 1_555
C9_2 C7_2 1_555 1_555
H13_2 C9_2 1_555 1_555
H14_2 C9_2 1_555 1_555
H15_2 C9_2 1_555 1_555
C10_2 C7_2 1_555 1_555
H16_2 C10_2 1_555 1_555
H17_2 C10_2 1_555 1_555
H18_2 C10_2 1_555 1_555
C11_2 H19_2 1_555 1_555
C12_2 C11_2 1_555 1_555
H20_2 C12_2 1_555 1_555
C13_2 C12_2 1_555 1_555
H21_2 C13_2 1_555 1_555
C14_2 C13_2 1_555 1_555
C15_2 N1_2 1_555 1_555
H22_2 C15_2 1_555 1_555
C16_2 C14_2 1_555 1_555
N3_2 C17_2 1_555 1_555
N4_2 C16_2 1_555 1_555
C17_2 H23_2 1_555 1_555
C18_2 C17_2 1_555 1_555
H24_2 C18_2 1_555 1_555
C19_2 C18_2 1_555 1_555
H25_2 C19_2 1_555 1_555
C20_2 C19_2 1_555 1_555
C21_2 N3_2 1_555 1_555
H26_2 C21_2 1_555 1_555
C22_2 N4_2 1_555 1_555
N5_2 C23_2 1_555 1_555
N6_2 C22_2 1_555 1_555
C23_2 H27_2 1_555 1_555
C24_2 C23_2 1_555 1_555
H28_2 C24_2 1_555 1_555
C25_2 C24_2 1_555 1_555
H29_2 C25_2 1_555 1_555
C26_2 C25_2 1_555 1_555
C27_2 N5_2 1_555 1_555
H30_2 C27_2 1_555 1_555
C28_2 N2_2 1_555 1_555
Cu2_2 N3_2 1_555 1_555
O5_2 Cu2_2 1_555 1_555
O7_2 Cu2_2 1_555 1_555
C29_2 O5_2 1_555 1_555
C30_2 C29_2 1_555 1_555
C31_2 C30_2 1_555 1_555
H31_2 C31_2 1_555 1_555
H32_2 C31_2 1_555 1_555
H33_2 C31_2 1_555 1_555
C33_2 C30_2 1_555 1_555
H38_2 C33_2 1_555 1_555
H39_2 C33_2 1_555 1_555
C34_2 O7_2 1_555 1_555
C35_2 C34_2 1_555 1_555
C36_2 C35_2 1_555 1_555
H40_2 C36_2 1_555 1_555
H41_2 C36_2 1_555 1_555
H42_2 C36_2 1_555 1_555
C37_2 C35_2 1_555 1_555
H43_2 C37_2 1_555 1_555
H45_2 C37_2 1_555 1_555
Cu3_2 N5_2 1_555 1_555
O9_2 Cu3_2 1_555 1_555
O10_2 C39_2 1_555 1_555
O11_2 Cu3_2 1_555 1_555
O12_2 C44_2 1_555 1_555
C39_2 O9_2 1_555 1_555
C40_2 C39_2 1_555 1_555
C41_2 C40_2 1_555 1_555
H49_2 C41_2 1_555 1_555
H50_2 C41_2 1_555 1_555
H51_2 C41_2 1_555 1_555
C42_2 C40_2 1_555 1_555
H52_2 C42_2 1_555 1_555
H53_2 C42_2 1_555 1_555
H54_2 C42_2 1_555 1_555
C43_2 C40_2 1_555 1_555
H55_2 C43_2 1_555 1_555
H56_2 C43_2 1_555 1_555
H57_2 C43_2 1_555 1_555
C44_2 O11_2 1_555 1_555
C45_2 C44_2 1_555 1_555
C46_2 C45_2 1_555 1_555
H58_2 C46_2 1_555 1_555
H59_2 C46_2 1_555 1_555
H60_2 C46_2 1_555 1_555
C47_2 C45_2 1_555 1_555
H61_2 C47_2 1_555 1_555
H62_2 C47_2 1_555 1_555
H63_2 C47_2 1_555 1_555
C48_2 C45_2 1_555 1_555
H64_2 C48_2 1_555 1_555
H65_2 C48_2 1_555 1_555
H66_2 C48_2 1_555 1_555
Cu4_2 Cu1_2 1_555 1_555
Cu6_2 Cu3_2 1_555 1_555
O13_2 Cu1_2 1_555 1_555
O14_2 Cu2_2 1_555 1_555
O15_2 Cu3_2 1_555 1_555
O16_2 Cu1_2 1_555 1_555
O17_2 Cu2_2 1_555 1_555
O18_2 Cu3_2 1_555 1_555
O2_2 Cu4_2 1_555 1_555
O4_2 Cu4_2 1_555 1_555
C14_2 C15_2 1_555 1_555
C20_2 C21_2 1_555 1_555
C20_2 C22_2 1_555 1_555
N6_2 C28_2 1_555 1_555
C26_2 C27_2 1_555 1_555
C26_2 C28_2 1_555 1_555
O10_2 Cu6_2 1_555 1_555
O12_2 Cu6_2 1_555 1_555
H34_3 C32_3 1_555 1_555
H35_3 C32_3 1_555 1_555
H36_3 C32_3 1_555 1_555
H46_3 C38_3 1_555 1_555
H47_3 C38_3 1_555 1_555
H48_3 C38_3 1_555 1_555
O6_3 Cu5_3 1_555 1_555
O8_3 Cu5_3 1_555 1_555
H4_3 C4_3 1_555 1_555
H5_3 C4_3 1_555 1_555
H6_3 C4_3 1_555 1_555
H16_3 C10_3 1_555 1_555
H17_3 C10_3 1_555 1_555
H18_3 C10_3 1_555 1_555
O2_3 Cu4_3 1_555 1_555
O4_3 Cu4_3 1_555 1_555
H52_3 C42_3 1_555 1_555
H53_3 C42_3 1_555 1_555
H54_3 C42_3 1_555 1_555
H64_3 C48_3 1_555 1_555
H65_3 C48_3 1_555 1_555
H66_3 C48_3 1_555 1_555
O10_3 Cu6_3 1_555 1_555
O12_3 Cu6_3 1_555 1_555
H4_4 C4_4 1_555 1_555
H5_4 C4_4 1_555 1_555
H6_4 C4_4 1_555 1_555
H16_4 C10_4 1_555 1_555
H17_4 C10_4 1_555 1_555
H18_4 C10_4 1_555 1_555
O2_4 Cu4_4 1_555 1_555
O4_4 Cu4_4 1_555 1_555
Cu1_3 N1_3 1_555 1_555
N1_3 C11_3 1_555 1_555
N2_3 C16_3 1_555 1_555
O1_3 Cu1_3 1_555 1_555
O3_3 Cu1_3 1_555 1_555
C1_3 O1_3 1_555 1_555
C2_3 C1_3 1_555 1_555
C3_3 C2_3 1_555 1_555
H1_3 C3_3 1_555 1_555
H2_3 C3_3 1_555 1_555
H3_3 C3_3 1_555 1_555
C5_3 C2_3 1_555 1_555
H8_3 C5_3 1_555 1_555
H9_3 C5_3 1_555 1_555
C6_3 O3_3 1_555 1_555
C7_3 C6_3 1_555 1_555
C8_3 C7_3 1_555 1_555
H10_3 C8_3 1_555 1_555
H11_3 C8_3 1_555 1_555
H12_3 C8_3 1_555 1_555
C9_3 C7_3 1_555 1_555
H13_3 C9_3 1_555 1_555
H15_3 C9_3 1_555 1_555
C11_3 H19_3 1_555 1_555
C12_3 C11_3 1_555 1_555
H20_3 C12_3 1_555 1_555
C13_3 C12_3 1_555 1_555
H21_3 C13_3 1_555 1_555
C14_3 C13_3 1_555 1_555
C15_3 N1_3 1_555 1_555
H22_3 C15_3 1_555 1_555
C16_3 C14_3 1_555 1_555
N3_3 C17_3 1_555 1_555
N4_3 C16_3 1_555 1_555
C17_3 H23_3 1_555 1_555
C18_3 C17_3 1_555 1_555
H24_3 C18_3 1_555 1_555
C19_3 C18_3 1_555 1_555
H25_3 C19_3 1_555 1_555
C20_3 C19_3 1_555 1_555
C21_3 N3_3 1_555 1_555
H26_3 C21_3 1_555 1_555
C22_3 N4_3 1_555 1_555
N5_3 C23_3 1_555 1_555
N6_3 C22_3 1_555 1_555
C23_3 H27_3 1_555 1_555
C24_3 C23_3 1_555 1_555
H28_3 C24_3 1_555 1_555
C25_3 C24_3 1_555 1_555
H29_3 C25_3 1_555 1_555
C26_3 C25_3 1_555 1_555
C27_3 N5_3 1_555 1_555
H30_3 C27_3 1_555 1_555
C28_3 N2_3 1_555 1_555
Cu2_3 N3_3 1_555 1_555
O5_3 Cu2_3 1_555 1_555
O6_4 C29_3 1_555 1_555
O7_3 Cu2_3 1_555 1_555
O8_4 C34_3 1_555 1_555
C29_3 O5_3 1_555 1_555
C30_3 C29_3 1_555 1_555
C31_3 C30_3 1_555 1_555
H31_3 C31_3 1_555 1_555
H32_3 C31_3 1_555 1_555
H33_3 C31_3 1_555 1_555
C32_4 C30_3 1_555 1_555
H34_4 C32_4 1_555 1_555
H35_4 C32_4 1_555 1_555
H36_4 C32_4 1_555 1_555
C33_3 C30_3 1_555 1_555
H37_4 C33_3 1_555 1_555
H38_3 C33_3 1_555 1_555
H39_3 C33_3 1_555 1_555
C34_3 O7_3 1_555 1_555
C35_3 C34_3 1_555 1_555
C36_3 C35_3 1_555 1_555
H40_3 C36_3 1_555 1_555
H41_3 C36_3 1_555 1_555
H42_3 C36_3 1_555 1_555
C37_3 C35_3 1_555 1_555
H43_3 C37_3 1_555 1_555
H44_4 C37_3 1_555 1_555
H45_3 C37_3 1_555 1_555
C38_4 C35_3 1_555 1_555
H46_4 C38_4 1_555 1_555
H47_4 C38_4 1_555 1_555
H48_4 C38_4 1_555 1_555
Cu3_3 N5_3 1_555 1_555
O9_3 Cu3_3 1_555 1_555
O10_4 C39_3 1_555 1_555
O11_3 Cu3_3 1_555 1_555
O12_4 C44_3 1_555 1_555
C39_3 O9_3 1_555 1_555
C40_3 C39_3 1_555 1_555
C41_3 C40_3 1_555 1_555
H49_3 C41_3 1_555 1_555
H50_3 C41_3 1_555 1_555
H51_3 C41_3 1_555 1_555
C42_4 C40_3 1_555 1_555
H52_4 C42_4 1_555 1_555
H53_4 C42_4 1_555 1_555
H54_4 C42_4 1_555 1_555
C43_3 C40_3 1_555 1_555
H55_4 C43_3 1_555 1_555
H56_3 C43_3 1_555 1_555
H57_3 C43_3 1_555 1_555
C44_3 O11_3 1_555 1_555
C45_3 C44_3 1_555 1_555
C46_3 C45_3 1_555 1_555
H58_3 C46_3 1_555 1_555
H59_3 C46_3 1_555 1_555
H60_3 C46_3 1_555 1_555
C47_3 C45_3 1_555 1_555
H61_3 C47_3 1_555 1_555
H62_4 C47_3 1_555 1_555
H63_3 C47_3 1_555 1_555
C48_4 C45_3 1_555 1_555
H64_4 C48_4 1_555 1_555
H65_4 C48_4 1_555 1_555
H66_4 C48_4 1_555 1_555
Cu5_4 Cu2_3 1_555 1_555
Cu6_4 Cu3_3 1_555 1_555
O13_3 Cu1_3 1_555 1_555
O14_3 Cu2_3 1_555 1_555
O15_3 Cu3_3 1_555 1_555
O16_3 Cu1_3 1_555 1_555
O17_3 Cu2_3 1_555 1_555
O18_3 Cu3_3 1_555 1_555
C14_3 C15_3 1_555 1_555
C20_3 C21_3 1_555 1_555
C20_3 C22_3 1_555 1_555
N6_3 C28_3 1_555 1_555
C26_3 C27_3 1_555 1_555
C26_3 C28_3 1_555 1_555
O6_4 Cu5_4 1_555 1_555
O8_4 Cu5_4 1_555 1_555
O10_4 Cu6_4 1_555 1_555
O12_4 Cu6_4 1_555 1_555
Cu4_4 N1_4 1_555 1_555
N1_4 C11_4 1_555 1_555
N2_4 C16_4 1_555 1_555
O1_4 Cu4_4 1_555 1_555
O3_4 Cu4_4 1_555 1_555
C1_4 O1_4 1_555 1_555
C2_4 C1_4 1_555 1_555
C3_4 C2_4 1_555 1_555
H1_4 C3_4 1_555 1_555
H2_4 C3_4 1_555 1_555
H3_4 C3_4 1_555 1_555
C5_4 C2_4 1_555 1_555
H8_4 C5_4 1_555 1_555
H9_4 C5_4 1_555 1_555
C6_4 O3_4 1_555 1_555
C7_4 C6_4 1_555 1_555
C8_4 C7_4 1_555 1_555
H10_4 C8_4 1_555 1_555
H11_4 C8_4 1_555 1_555
H12_4 C8_4 1_555 1_555
C9_4 C7_4 1_555 1_555
H13_4 C9_4 1_555 1_555
H15_4 C9_4 1_555 1_555
C11_4 H19_4 1_555 1_555
C12_4 C11_4 1_555 1_555
H20_4 C12_4 1_555 1_555
C13_4 C12_4 1_555 1_555
H21_4 C13_4 1_555 1_555
C14_4 C13_4 1_555 1_555
C15_4 N1_4 1_555 1_555
H22_4 C15_4 1_555 1_555
C16_4 C14_4 1_555 1_555
N3_4 C17_4 1_555 1_555
N4_4 C16_4 1_555 1_555
C17_4 H23_4 1_555 1_555
C18_4 C17_4 1_555 1_555
H24_4 C18_4 1_555 1_555
C19_4 C18_4 1_555 1_555
H25_4 C19_4 1_555 1_555
C20_4 C19_4 1_555 1_555
C21_4 N3_4 1_555 1_555
H26_4 C21_4 1_555 1_555
C22_4 N4_4 1_555 1_555
N5_4 C23_4 1_555 1_555
N6_4 C22_4 1_555 1_555
C23_4 H27_4 1_555 1_555
C24_4 C23_4 1_555 1_555
H28_4 C24_4 1_555 1_555
C25_4 C24_4 1_555 1_555
H29_4 C25_4 1_555 1_555
C26_4 C25_4 1_555 1_555
C27_4 N5_4 1_555 1_555
H30_4 C27_4 1_555 1_555
C28_4 N2_4 1_555 1_555
Cu5_3 N3_4 1_555 1_555
O5_4 Cu5_3 1_555 1_555
O7_4 Cu5_3 1_555 1_555
C29_4 O5_4 1_555 1_555
C30_4 C29_4 1_555 1_555
C31_4 C30_4 1_555 1_555
H31_4 C31_4 1_555 1_555
H32_4 C31_4 1_555 1_555
H33_4 C31_4 1_555 1_555
C33_4 C30_4 1_555 1_555
H38_4 C33_4 1_555 1_555
H39_4 C33_4 1_555 1_555
C34_4 O7_4 1_555 1_555
C35_4 C34_4 1_555 1_555
C36_4 C35_4 1_555 1_555
H40_4 C36_4 1_555 1_555
H41_4 C36_4 1_555 1_555
H42_4 C36_4 1_555 1_555
C37_4 C35_4 1_555 1_555
H43_4 C37_4 1_555 1_555
H45_4 C37_4 1_555 1_555
Cu6_2 N5_4 1_555 1_555
O9_4 Cu6_2 1_555 1_555
O15_2 C39_4 1_555 1_555
O11_4 Cu6_2 1_555 1_555
O18_2 C44_4 1_555 1_555
C39_4 O9_4 1_555 1_555
C40_4 C39_4 1_555 1_555
C41_4 C40_4 1_555 1_555
H49_4 C41_4 1_555 1_555
H50_4 C41_4 1_555 1_555
H51_4 C41_4 1_555 1_555
C42_5 C40_4 1_555 1_555
H52_5 C42_5 1_555 1_555
H53_5 C42_5 1_555 1_555
H54_5 C42_5 1_555 1_555
C43_4 C40_4 1_555 1_555
H55_5 C43_4 1_555 1_555
H56_4 C43_4 1_555 1_555
H57_4 C43_4 1_555 1_555
C44_4 O11_4 1_555 1_555
C45_4 C44_4 1_555 1_555
C46_4 C45_4 1_555 1_555
H58_4 C46_4 1_555 1_555
H59_4 C46_4 1_555 1_555
H60_4 C46_4 1_555 1_555
C47_4 C45_4 1_555 1_555
H61_4 C47_4 1_555 1_555
H62_5 C47_4 1_555 1_555
H63_4 C47_4 1_555 1_555
C48_5 C45_4 1_555 1_555
H64_5 C48_5 1_555 1_555
H65_5 C48_5 1_555 1_555
H66_5 C48_5 1_555 1_555
C14_4 C15_4 1_555 1_555
C20_4 C21_4 1_555 1_555
C20_4 C22_4 1_555 1_555
N6_4 C28_4 1_555 1_555
C26_4 C27_4 1_555 1_555
C26_4 C28_4 1_555 1_555
H4_5 C4_5 1_555 1_555
H5_5 C4_5 1_555 1_555
H6_5 C4_5 1_555 1_555
H16_5 C10_5 1_555 1_555
H17_5 C10_5 1_555 1_555
H18_5 C10_5 1_555 1_555
Cu4_3 N1_5 1_555 1_555
N1_5 C11_5 1_555 1_555
N2_5 C16_5 1_555 1_555
O1_5 Cu4_3 1_555 1_555
O3_5 Cu4_3 1_555 1_555
C1_5 O1_5 1_555 1_555
C2_5 C1_5 1_555 1_555
C3_5 C2_5 1_555 1_555
H1_5 C3_5 1_555 1_555
H2_5 C3_5 1_555 1_555
H3_5 C3_5 1_555 1_555
C5_5 C2_5 1_555 1_555
H8_5 C5_5 1_555 1_555
H9_5 C5_5 1_555 1_555
C6_5 O3_5 1_555 1_555
C7_5 C6_5 1_555 1_555
C8_5 C7_5 1_555 1_555
H10_5 C8_5 1_555 1_555
H11_5 C8_5 1_555 1_555
H12_5 C8_5 1_555 1_555
C9_5 C7_5 1_555 1_555
H13_5 C9_5 1_555 1_555
H15_5 C9_5 1_555 1_555
C11_5 H19_5 1_555 1_555
C12_5 C11_5 1_555 1_555
H20_5 C12_5 1_555 1_555
C13_5 C12_5 1_555 1_555
H21_5 C13_5 1_555 1_555
C14_5 C13_5 1_555 1_555
C15_5 N1_5 1_555 1_555
H22_5 C15_5 1_555 1_555
C16_5 C14_5 1_555 1_555
N3_5 C17_5 1_555 1_555
N4_5 C16_5 1_555 1_555
C17_5 H23_5 1_555 1_555
C18_5 C17_5 1_555 1_555
H24_5 C18_5 1_555 1_555
C19_5 C18_5 1_555 1_555
H25_5 C19_5 1_555 1_555
C20_5 C19_5 1_555 1_555
C21_5 N3_5 1_555 1_555
H26_5 C21_5 1_555 1_555
C22_5 N4_5 1_555 1_555
N5_5 C23_5 1_555 1_555
N6_5 C22_5 1_555 1_555
C23_5 H27_5 1_555 1_555
C24_5 C23_5 1_555 1_555
H28_5 C24_5 1_555 1_555
C25_5 C24_5 1_555 1_555
H29_5 C25_5 1_555 1_555
C26_5 C25_5 1_555 1_555
C27_5 N5_5 1_555 1_555
H30_5 C27_5 1_555 1_555
C28_5 N2_5 1_555 1_555
Cu5_4 N3_5 1_555 1_555
O5_5 Cu5_4 1_555 1_555
O14_3 C29_5 1_555 1_555
O7_5 Cu5_4 1_555 1_555
O17_3 C34_5 1_555 1_555
C29_5 O5_5 1_555 1_555
C30_5 C29_5 1_555 1_555
C31_5 C30_5 1_555 1_555
H31_5 C31_5 1_555 1_555
H32_5 C31_5 1_555 1_555
H33_5 C31_5 1_555 1_555
C32_5 C30_5 1_555 1_555
H34_5 C32_5 1_555 1_555
H35_5 C32_5 1_555 1_555
H36_5 C32_5 1_555 1_555
C33_5 C30_5 1_555 1_555
H37_5 C33_5 1_555 1_555
H38_5 C33_5 1_555 1_555
H39_5 C33_5 1_555 1_555
C34_5 O7_5 1_555 1_555
C35_5 C34_5 1_555 1_555
C36_5 C35_5 1_555 1_555
H40_5 C36_5 1_555 1_555
H41_5 C36_5 1_555 1_555
H42_5 C36_5 1_555 1_555
C37_5 C35_5 1_555 1_555
H43_5 C37_5 1_555 1_555
H44_5 C37_5 1_555 1_555
H45_5 C37_5 1_555 1_555
C38_5 C35_5 1_555 1_555
H46_5 C38_5 1_555 1_555
H47_5 C38_5 1_555 1_555
H48_5 C38_5 1_555 1_555
Cu6 N5_5 1_555 1_555
O9_5 Cu6 1_555 1_555
O11_5 Cu6 1_555 1_555
C39_5 O9_5 1_555 1_555
C40_5 C39_5 1_555 1_555
C41_5 C40_5 1_555 1_555
H49_5 C41_5 1_555 1_555
H50_5 C41_5 1_555 1_555
H51_5 C41_5 1_555 1_555
C43_5 C40_5 1_555 1_555
H56_5 C43_5 1_555 1_555
H57_5 C43_5 1_555 1_555
C44_5 O11_5 1_555 1_555
C45_5 C44_5 1_555 1_555
C46_5 C45_5 1_555 1_555
H58_5 C46_5 1_555 1_555
H59_5 C46_5 1_555 1_555
H60_5 C46_5 1_555 1_555
C47_5 C45_5 1_555 1_555
H61_5 C47_5 1_555 1_555
H63_5 C47_5 1_555 1_555
C14_5 C15_5 1_555 1_555
C20_5 C21_5 1_555 1_555
C20_5 C22_5 1_555 1_555
N6_5 C28_5 1_555 1_555
C26_5 C27_5 1_555 1_555
C26_5 C28_5 1_555 1_555
H52_6 C42_6 1_555 1_555
H53_6 C42_6 1_555 1_555
H54_6 C42_6 1_555 1_555
H64_6 C48_6 1_555 1_555
H65_6 C48_6 1_555 1_555
H66_6 C48_6 1_555 1_555
Cu4_2 N1_6 1_555 1_555
N1_6 C11_6 1_555 1_555
N2_6 C16_6 1_555 1_555
O1_6 Cu4_2 1_555 1_555
O13_2 C1_6 1_555 1_555
O3_6 Cu4_2 1_555 1_555
O16_2 C6_6 1_555 1_555
C1_6 O1_6 1_555 1_555
C2_6 C1_6 1_555 1_555
C3_6 C2_6 1_555 1_555
H1_6 C3_6 1_555 1_555
H2_6 C3_6 1_555 1_555
H3_6 C3_6 1_555 1_555
C4_6 C2_6 1_555 1_555
H4_6 C4_6 1_555 1_555
H5_6 C4_6 1_555 1_555
H6_6 C4_6 1_555 1_555
C5_6 C2_6 1_555 1_555
H7_6 C5_6 1_555 1_555
H8_6 C5_6 1_555 1_555
H9_6 C5_6 1_555 1_555
C6_6 O3_6 1_555 1_555
C7_6 C6_6 1_555 1_555
C8_6 C7_6 1_555 1_555
H10_6 C8_6 1_555 1_555
H11_6 C8_6 1_555 1_555
H12_6 C8_6 1_555 1_555
C9_6 C7_6 1_555 1_555
H13_6 C9_6 1_555 1_555
H14_6 C9_6 1_555 1_555
H15_6 C9_6 1_555 1_555
C10_6 C7_6 1_555 1_555
H16_6 C10_6 1_555 1_555
H17_6 C10_6 1_555 1_555
H18_6 C10_6 1_555 1_555
C11_6 H19_6 1_555 1_555
C12_6 C11_6 1_555 1_555
H20_6 C12_6 1_555 1_555
C13_6 C12_6 1_555 1_555
H21_6 C13_6 1_555 1_555
C14_6 C13_6 1_555 1_555
C15_6 N1_6 1_555 1_555
H22_6 C15_6 1_555 1_555
C16_6 C14_6 1_555 1_555
N3_6 C17_6 1_555 1_555
N4_6 C16_6 1_555 1_555
C17_6 H23_6 1_555 1_555
C18_6 C17_6 1_555 1_555
H24_6 C18_6 1_555 1_555
C19_6 C18_6 1_555 1_555
H25_6 C19_6 1_555 1_555
C20_6 C19_6 1_555 1_555
C21_6 N3_6 1_555 1_555
H26_6 C21_6 1_555 1_555
C22_6 N4_6 1_555 1_555
N5_6 C23_6 1_555 1_555
N6_6 C22_6 1_555 1_555
C23_6 H27_6 1_555 1_555
C24_6 C23_6 1_555 1_555
H28_6 C24_6 1_555 1_555
C25_6 C24_6 1_555 1_555
H29_6 C25_6 1_555 1_555
C26_6 C25_6 1_555 1_555
C27_6 N5_6 1_555 1_555
H30_6 C27_6 1_555 1_555
C28_6 N2_6 1_555 1_555
Cu5 N3_6 1_555 1_555
O5_6 Cu5 1_555 1_555
O14 C29_6 1_555 1_555
O7_6 Cu5 1_555 1_555
O17 C34_6 1_555 1_555
C29_6 O5_6 1_555 1_555
C30_6 C29_6 1_555 1_555
C31_6 C30_6 1_555 1_555
H31_6 C31_6 1_555 1_555
H32_6 C31_6 1_555 1_555
H33_6 C31_6 1_555 1_555
C32_6 C30_6 1_555 1_555
H34_6 C32_6 1_555 1_555
H35_6 C32_6 1_555 1_555
H36_6 C32_6 1_555 1_555
C33_6 C30_6 1_555 1_555
H37_6 C33_6 1_555 1_555
H38_6 C33_6 1_555 1_555
H39_6 C33_6 1_555 1_555
C34_6 O7_6 1_555 1_555
C35_6 C34_6 1_555 1_555
C36_6 C35_6 1_555 1_555
H40_6 C36_6 1_555 1_555
H41_6 C36_6 1_555 1_555
H42_6 C36_6 1_555 1_555
C37_6 C35_6 1_555 1_555
H43_6 C37_6 1_555 1_555
H44_6 C37_6 1_555 1_555
H45_6 C37_6 1_555 1_555
C38_6 C35_6 1_555 1_555
H46_6 C38_6 1_555 1_555
H47_6 C38_6 1_555 1_555
H48_6 C38_6 1_555 1_555
Cu6_4 N5_6 1_555 1_555
O9_6 Cu6_4 1_555 1_555
O15_3 C39_6 1_555 1_555
O11_6 Cu6_4 1_555 1_555
O18_3 C44_6 1_555 1_555
C39_6 O9_6 1_555 1_555
C40_6 C39_6 1_555 1_555
C41_6 C40_6 1_555 1_555
H49_6 C41_6 1_555 1_555
H50_6 C41_6 1_555 1_555
H51_6 C41_6 1_555 1_555
C42_7 C40_6 1_555 1_555
H52_7 C42_7 1_555 1_555
H53_7 C42_7 1_555 1_555
H54_7 C42_7 1_555 1_555
C43_6 C40_6 1_555 1_555
H55_7 C43_6 1_555 1_555
H56_6 C43_6 1_555 1_555
H57_6 C43_6 1_555 1_555
C44_6 O11_6 1_555 1_555
C45_6 C44_6 1_555 1_555
C46_6 C45_6 1_555 1_555
H58_6 C46_6 1_555 1_555
H59_6 C46_6 1_555 1_555
H60_6 C46_6 1_555 1_555
C47_6 C45_6 1_555 1_555
H61_6 C47_6 1_555 1_555
H62_7 C47_6 1_555 1_555
H63_6 C47_6 1_555 1_555
C48_7 C45_6 1_555 1_555
H64_7 C48_7 1_555 1_555
H65_7 C48_7 1_555 1_555
H66_7 C48_7 1_555 1_555
C14_6 C15_6 1_555 1_555
C20_6 C21_6 1_555 1_555
C20_6 C22_6 1_555 1_555
N6_6 C28_6 1_555 1_555
C26_6 C27_6 1_555 1_555
C26_6 C28_6 1_555 1_555
Cu4 N1_7 1_555 1_555
N1_7 C11_7 1_555 1_555
N2_7 C16_7 1_555 1_555
O1_7 Cu4 1_555 1_555
O13 C1_7 1_555 1_555
O3_7 Cu4 1_555 1_555
O16 C6_7 1_555 1_555
C1_7 O1_7 1_555 1_555
C2_7 C1_7 1_555 1_555
C3_7 C2_7 1_555 1_555
H1_7 C3_7 1_555 1_555
H2_7 C3_7 1_555 1_555
H3_7 C3_7 1_555 1_555
C4_7 C2_7 1_555 1_555
H4_7 C4_7 1_555 1_555
H5_7 C4_7 1_555 1_555
H6_7 C4_7 1_555 1_555
C5_7 C2_7 1_555 1_555
H7_7 C5_7 1_555 1_555
H8_7 C5_7 1_555 1_555
H9_7 C5_7 1_555 1_555
C6_7 O3_7 1_555 1_555
C7_7 C6_7 1_555 1_555
C8_7 C7_7 1_555 1_555
H10_7 C8_7 1_555 1_555
H11_7 C8_7 1_555 1_555
H12_7 C8_7 1_555 1_555
C9_7 C7_7 1_555 1_555
H13_7 C9_7 1_555 1_555
H14_7 C9_7 1_555 1_555
H15_7 C9_7 1_555 1_555
C10_7 C7_7 1_555 1_555
H16_7 C10_7 1_555 1_555
H17_7 C10_7 1_555 1_555
H18_7 C10_7 1_555 1_555
C11_7 H19_7 1_555 1_555
C12_7 C11_7 1_555 1_555
H20_7 C12_7 1_555 1_555
C13_7 C12_7 1_555 1_555
H21_7 C13_7 1_555 1_555
C14_7 C13_7 1_555 1_555
C15_7 N1_7 1_555 1_555
H22_7 C15_7 1_555 1_555
C16_7 C14_7 1_555 1_555
N3_7 C17_7 1_555 1_555
N4_7 C16_7 1_555 1_555
C17_7 H23_7 1_555 1_555
C18_7 C17_7 1_555 1_555
H24_7 C18_7 1_555 1_555
C19_7 C18_7 1_555 1_555
H25_7 C19_7 1_555 1_555
C20_7 C19_7 1_555 1_555
C21_7 N3_7 1_555 1_555
H26_7 C21_7 1_555 1_555
C22_7 N4_7 1_555 1_555
N5_7 C23_7 1_555 1_555
N6_7 C22_7 1_555 1_555
C23_7 H27_7 1_555 1_555
C24_7 C23_7 1_555 1_555
H28_7 C24_7 1_555 1_555
C25_7 C24_7 1_555 1_555
H29_7 C25_7 1_555 1_555
C26_7 C25_7 1_555 1_555
C27_7 N5_7 1_555 1_555
H30_7 C27_7 1_555 1_555
C28_7 N2_7 1_555 1_555
Cu5_2 N3_7 1_555 1_555
O5_7 Cu5_2 1_555 1_555
O7_7 Cu5_2 1_555 1_555
C29_7 O5_7 1_555 1_555
C30_7 C29_7 1_555 1_555
C31_7 C30_7 1_555 1_555
H31_7 C31_7 1_555 1_555
H32_7 C31_7 1_555 1_555
H33_7 C31_7 1_555 1_555
C33_7 C30_7 1_555 1_555
H38_7 C33_7 1_555 1_555
H39_7 C33_7 1_555 1_555
C34_7 O7_7 1_555 1_555
C35_7 C34_7 1_555 1_555
C36_7 C35_7 1_555 1_555
H40_7 C36_7 1_555 1_555
H41_7 C36_7 1_555 1_555
H42_7 C36_7 1_555 1_555
C37_7 C35_7 1_555 1_555
H43_7 C37_7 1_555 1_555
H45_7 C37_7 1_555 1_555
Cu6_3 N5_7 1_555 1_555
O9_7 Cu6_3 1_555 1_555
O11_7 Cu6_3 1_555 1_555
C39_7 O9_7 1_555 1_555
C40_7 C39_7 1_555 1_555
C41_7 C40_7 1_555 1_555
H49_7 C41_7 1_555 1_555
H50_7 C41_7 1_555 1_555
H51_7 C41_7 1_555 1_555
C43_7 C40_7 1_555 1_555
H56_7 C43_7 1_555 1_555
H57_7 C43_7 1_555 1_555
C44_7 O11_7 1_555 1_555
C45_7 C44_7 1_555 1_555
C46_7 C45_7 1_555 1_555
H58_7 C46_7 1_555 1_555
H59_7 C46_7 1_555 1_555
H60_7 C46_7 1_555 1_555
C47_7 C45_7 1_555 1_555
H61_7 C47_7 1_555 1_555
H63_7 C47_7 1_555 1_555
C14_7 C15_7 1_555 1_555
C20_7 C21_7 1_555 1_555
C20_7 C22_7 1_555 1_555
N6_7 C28_7 1_555 1_555
C26_7 C27_7 1_555 1_555
C26_7 C28_7 1_555 1_555
H34_7 C32_7 1_555 1_555
H35_7 C32_7 1_555 1_555
H36_7 C32_7 1_555 1_555
H46_7 C38_7 1_555 1_555
H47_7 C38_7 1_555 1_555
H48_7 C38_7 1_555 1_555
Cu1_4 N1_8 1_555 1_555
N1_8 C11_8 1_555 1_555
N2_8 C16_8 1_555 1_555
O1_8 Cu1_4 1_555 1_555
O3_8 Cu1_4 1_555 1_555
C1_8 O1_8 1_555 1_555
C2_8 C1_8 1_555 1_555
C3_8 C2_8 1_555 1_555
H1_8 C3_8 1_555 1_555
H2_8 C3_8 1_555 1_555
H3_8 C3_8 1_555 1_555
C5_8 C2_8 1_555 1_555
H8_8 C5_8 1_555 1_555
H9_8 C5_8 1_555 1_555
C6_8 O3_8 1_555 1_555
C7_8 C6_8 1_555 1_555
C8_8 C7_8 1_555 1_555
H10_8 C8_8 1_555 1_555
H11_8 C8_8 1_555 1_555
H12_8 C8_8 1_555 1_555
C9_8 C7_8 1_555 1_555
H13_8 C9_8 1_555 1_555
H15_8 C9_8 1_555 1_555
C11_8 H19_8 1_555 1_555
C12_8 C11_8 1_555 1_555
H20_8 C12_8 1_555 1_555
C13_8 C12_8 1_555 1_555
H21_8 C13_8 1_555 1_555
C14_8 C13_8 1_555 1_555
C15_8 N1_8 1_555 1_555
H22_8 C15_8 1_555 1_555
C16_8 C14_8 1_555 1_555
N3_8 C17_8 1_555 1_555
N4_8 C16_8 1_555 1_555
C17_8 H23_8 1_555 1_555
C18_8 C17_8 1_555 1_555
H24_8 C18_8 1_555 1_555
C19_8 C18_8 1_555 1_555
H25_8 C19_8 1_555 1_555
C20_8 C19_8 1_555 1_555
C21_8 N3_8 1_555 1_555
H26_8 C21_8 1_555 1_555
C22_8 N4_8 1_555 1_555
N5_8 C23_8 1_555 1_555
N6_8 C22_8 1_555 1_555
C23_8 H27_8 1_555 1_555
C24_8 C23_8 1_555 1_555
H28_8 C24_8 1_555 1_555
C25_8 C24_8 1_555 1_555
H29_8 C25_8 1_555 1_555
C26_8 C25_8 1_555 1_555
C27_8 N5_8 1_555 1_555
H30_8 C27_8 1_555 1_555
C28_8 N2_8 1_555 1_555
Cu2_4 N3_8 1_555 1_555
O5_8 Cu2_4 1_555 1_555
O7_8 Cu2_4 1_555 1_555
C29_8 O5_8 1_555 1_555
C30_8 C29_8 1_555 1_555
C31_8 C30_8 1_555 1_555
H31_8 C31_8 1_555 1_555
H32_8 C31_8 1_555 1_555
H33_8 C31_8 1_555 1_555
C33_8 C30_8 1_555 1_555
H38_8 C33_8 1_555 1_555
H39_8 C33_8 1_555 1_555
C34_8 O7_8 1_555 1_555
C35_8 C34_8 1_555 1_555
C36_8 C35_8 1_555 1_555
H40_8 C36_8 1_555 1_555
H41_8 C36_8 1_555 1_555
H42_8 C36_8 1_555 1_555
C37_8 C35_8 1_555 1_555
H43_8 C37_8 1_555 1_555
H45_8 C37_8 1_555 1_555
Cu3_4 N5_8 1_555 1_555
O9_8 Cu3_4 1_555 1_555
O11_8 Cu3_4 1_555 1_555
C39_8 O9_8 1_555 1_555
C40_8 C39_8 1_555 1_555
C41_8 C40_8 1_555 1_555
H49_8 C41_8 1_555 1_555
H50_8 C41_8 1_555 1_555
H51_8 C41_8 1_555 1_555
C43_8 C40_8 1_555 1_555
H56_8 C43_8 1_555 1_555
H57_8 C43_8 1_555 1_555
C44_8 O11_8 1_555 1_555
C45_8 C44_8 1_555 1_555
C46_8 C45_8 1_555 1_555
H58_8 C46_8 1_555 1_555
H59_8 C46_8 1_555 1_555
H60_8 C46_8 1_555 1_555
C47_8 C45_8 1_555 1_555
H61_8 C47_8 1_555 1_555
H63_8 C47_8 1_555 1_555
O13_4 Cu1_4 1_555 1_555
O14_4 Cu2_4 1_555 1_555
O15_4 Cu3_4 1_555 1_555
O16_4 Cu1_4 1_555 1_555
O17_4 Cu2_4 1_555 1_555
O18_4 Cu3_4 1_555 1_555
C14_8 C15_8 1_555 1_555
C20_8 C21_8 1_555 1_555
C20_8 C22_8 1_555 1_555
N6_8 C28_8 1_555 1_555
C26_8 C27_8 1_555 1_555
C26_8 C28_8 1_555 1_555
H34_8 C32_8 1_555 1_555
H35_8 C32_8 1_555 1_555
H36_8 C32_8 1_555 1_555
H46_8 C38_8 1_555 1_555
H47_8 C38_8 1_555 1_555
H48_8 C38_8 1_555 1_555
H4_8 C4_8 1_555 1_555
H5_8 C4_8 1_555 1_555
H6_8 C4_8 1_555 1_555
H16_8 C10_8 1_555 1_555
H17_8 C10_8 1_555 1_555
H18_8 C10_8 1_555 1_555
H52_8 C42_8 1_555 1_555
H53_8 C42_8 1_555 1_555
H54_8 C42_8 1_555 1_555
H64_8 C48_8 1_555 1_555
H65_8 C48_8 1_555 1_555
H66_8 C48_8 1_555 1_555
Cu1_5 N1_9 1_555 1_555
N1_9 C11_9 1_555 1_555
N2_9 C16_9 1_555 1_555
O1_9 Cu1_5 1_555 1_555
O2_5 C1_9 1_555 1_555
O3_9 Cu1_5 1_555 1_555
O4_5 C6_9 1_555 1_555
C1_9 O1_9 1_555 1_555
C2_9 C1_9 1_555 1_555
C3_9 C2_9 1_555 1_555
H1_9 C3_9 1_555 1_555
H2_9 C3_9 1_555 1_555
H3_9 C3_9 1_555 1_555
C4_9 C2_9 1_555 1_555
H4_9 C4_9 1_555 1_555
H5_9 C4_9 1_555 1_555
H6_9 C4_9 1_555 1_555
C5_9 C2_9 1_555 1_555
H7_9 C5_9 1_555 1_555
H8_9 C5_9 1_555 1_555
H9_9 C5_9 1_555 1_555
C6_9 O3_9 1_555 1_555
C7_9 C6_9 1_555 1_555
C8_9 C7_9 1_555 1_555
H10_9 C8_9 1_555 1_555
H11_9 C8_9 1_555 1_555
H12_9 C8_9 1_555 1_555
C9_9 C7_9 1_555 1_555
H13_9 C9_9 1_555 1_555
H14_9 C9_9 1_555 1_555
H15_9 C9_9 1_555 1_555
C10_9 C7_9 1_555 1_555
H16_9 C10_9 1_555 1_555
H17_9 C10_9 1_555 1_555
H18_9 C10_9 1_555 1_555
C11_9 H19_9 1_555 1_555
C12_9 C11_9 1_555 1_555
H20_9 C12_9 1_555 1_555
C13_9 C12_9 1_555 1_555
H21_9 C13_9 1_555 1_555
C14_9 C13_9 1_555 1_555
C15_9 N1_9 1_555 1_555
H22_9 C15_9 1_555 1_555
C16_9 C14_9 1_555 1_555
N3_9 C17_9 1_555 1_555
N4_9 C16_9 1_555 1_555
C17_9 H23_9 1_555 1_555
C18_9 C17_9 1_555 1_555
H24_9 C18_9 1_555 1_555
C19_9 C18_9 1_555 1_555
H25_9 C19_9 1_555 1_555
C20_9 C19_9 1_555 1_555
C21_9 N3_9 1_555 1_555
H26_9 C21_9 1_555 1_555
C22_9 N4_9 1_555 1_555
N5_9 C23_9 1_555 1_555
N6_9 C22_9 1_555 1_555
C23_9 H27_9 1_555 1_555
C24_9 C23_9 1_555 1_555
H28_9 C24_9 1_555 1_555
C25_9 C24_9 1_555 1_555
H29_9 C25_9 1_555 1_555
C26_9 C25_9 1_555 1_555
C27_9 N5_9 1_555 1_555
H30_9 C27_9 1_555 1_555
C28_9 N2_9 1_555 1_555
Cu2_5 N3_9 1_555 1_555
O5_9 Cu2_5 1_555 1_555
O6_5 C29_9 1_555 1_555
O7_9 Cu2_5 1_555 1_555
O8_5 C34_9 1_555 1_555
C29_9 O5_9 1_555 1_555
C30_9 C29_9 1_555 1_555
C31_9 C30_9 1_555 1_555
H31_9 C31_9 1_555 1_555
H32_9 C31_9 1_555 1_555
H33_9 C31_9 1_555 1_555
C32_9 C30_9 1_555 1_555
H34_9 C32_9 1_555 1_555
H35_9 C32_9 1_555 1_555
H36_9 C32_9 1_555 1_555
C33_9 C30_9 1_555 1_555
H37_9 C33_9 1_555 1_555
H38_9 C33_9 1_555 1_555
H39_9 C33_9 1_555 1_555
C34_9 O7_9 1_555 1_555
C35_9 C34_9 1_555 1_555
C36_9 C35_9 1_555 1_555
H40_9 C36_9 1_555 1_555
H41_9 C36_9 1_555 1_555
H42_9 C36_9 1_555 1_555
C37_9 C35_9 1_555 1_555
H43_9 C37_9 1_555 1_555
H44_9 C37_9 1_555 1_555
H45_9 C37_9 1_555 1_555
C38_9 C35_9 1_555 1_555
H46_9 C38_9 1_555 1_555
H47_9 C38_9 1_555 1_555
H48_9 C38_9 1_555 1_555
Cu3_5 N5_9 1_555 1_555
O9_9 Cu3_5 1_555 1_555
O11_9 Cu3_5 1_555 1_555
C39_9 O9_9 1_555 1_555
C40_9 C39_9 1_555 1_555
C41_9 C40_9 1_555 1_555
H49_9 C41_9 1_555 1_555
H50_9 C41_9 1_555 1_555
H51_9 C41_9 1_555 1_555
C43_9 C40_9 1_555 1_555
H56_9 C43_9 1_555 1_555
H57_9 C43_9 1_555 1_555
C44_9 O11_9 1_555 1_555
C45_9 C44_9 1_555 1_555
C46_9 C45_9 1_555 1_555
H58_9 C46_9 1_555 1_555
H59_9 C46_9 1_555 1_555
H60_9 C46_9 1_555 1_555
C47_9 C45_9 1_555 1_555
H61_9 C47_9 1_555 1_555
H63_9 C47_9 1_555 1_555
Cu4_5 Cu1_5 1_555 1_555
Cu5_5 Cu2_5 1_555 1_555
O13_5 Cu1_5 1_555 1_555
O14_5 Cu2_5 1_555 1_555
O15_5 Cu3_5 1_555 1_555
O16_5 Cu1_5 1_555 1_555
O17_5 Cu2_5 1_555 1_555
O18_5 Cu3_5 1_555 1_555
O2_5 Cu4_5 1_555 1_555
O4_5 Cu4_5 1_555 1_555
C14_9 C15_9 1_555 1_555
C20_9 C21_9 1_555 1_555
C20_9 C22_9 1_555 1_555
N6_9 C28_9 1_555 1_555
C26_9 C27_9 1_555 1_555
C26_9 C28_9 1_555 1_555
O6_5 Cu5_5 1_555 1_555
O8_5 Cu5_5 1_555 1_555
H52_9 C42_9 1_555 1_555
H53_9 C42_9 1_555 1_555
H54_9 C42_9 1_555 1_555
H64_9 C48_9 1_555 1_555
H65_9 C48_9 1_555 1_555
H66_9 C48_9 1_555 1_555
O10_5 Cu6_5 1_555 1_555
O12_5 Cu6_5 1_555 1_555
Cu1_6 N1_10 1_555 1_555
N1_10 C11_10 1_555 1_555
N2_10 C16_10 1_555 1_555
O1_10 Cu1_6 1_555 1_555
O2_6 C1_10 1_555 1_555
O3_10 Cu1_6 1_555 1_555
O4_6 C6_10 1_555 1_555
C1_10 O1_10 1_555 1_555
C2_10 C1_10 1_555 1_555
C3_10 C2_10 1_555 1_555
H1_10 C3_10 1_555 1_555
H2_10 C3_10 1_555 1_555
H3_10 C3_10 1_555 1_555
C4_10 C2_10 1_555 1_555
H4_10 C4_10 1_555 1_555
H5_10 C4_10 1_555 1_555
H6_10 C4_10 1_555 1_555
C5_10 C2_10 1_555 1_555
H7_10 C5_10 1_555 1_555
H8_10 C5_10 1_555 1_555
H9_10 C5_10 1_555 1_555
C6_10 O3_10 1_555 1_555
C7_10 C6_10 1_555 1_555
C8_10 C7_10 1_555 1_555
H10_10 C8_10 1_555 1_555
H11_10 C8_10 1_555 1_555
H12_10 C8_10 1_555 1_555
C9_10 C7_10 1_555 1_555
H13_10 C9_10 1_555 1_555
H14_10 C9_10 1_555 1_555
H15_10 C9_10 1_555 1_555
C10_10 C7_10 1_555 1_555
H16_10 C10_10 1_555 1_555
H17_10 C10_10 1_555 1_555
H18_10 C10_10 1_555 1_555
C11_10 H19_10 1_555 1_555
C12_10 C11_10 1_555 1_555
H20_10 C12_10 1_555 1_555
C13_10 C12_10 1_555 1_555
H21_10 C13_10 1_555 1_555
C14_10 C13_10 1_555 1_555
C15_10 N1_10 1_555 1_555
H22_10 C15_10 1_555 1_555
C16_10 C14_10 1_555 1_555
N3_10 C17_10 1_555 1_555
N4_10 C16_10 1_555 1_555
C17_10 H23_10 1_555 1_555
C18_10 C17_10 1_555 1_555
H24_10 C18_10 1_555 1_555
C19_10 C18_10 1_555 1_555
H25_10 C19_10 1_555 1_555
C20_10 C19_10 1_555 1_555
C21_10 N3_10 1_555 1_555
H26_10 C21_10 1_555 1_555
C22_10 N4_10 1_555 1_555
N5_10 C23_10 1_555 1_555
N6_10 C22_10 1_555 1_555
C23_10 H27_10 1_555 1_555
C24_10 C23_10 1_555 1_555
H28_10 C24_10 1_555 1_555
C25_10 C24_10 1_555 1_555
H29_10 C25_10 1_555 1_555
C26_10 C25_10 1_555 1_555
C27_10 N5_10 1_555 1_555
H30_10 C27_10 1_555 1_555
C28_10 N2_10 1_555 1_555
Cu2_6 N3_10 1_555 1_555
O5_10 Cu2_6 1_555 1_555
O7_10 Cu2_6 1_555 1_555
C29_10 O5_10 1_555 1_555
C30_10 C29_10 1_555 1_555
C31_10 C30_10 1_555 1_555
H31_10 C31_10 1_555 1_555
H32_10 C31_10 1_555 1_555
H33_10 C31_10 1_555 1_555
C33_10 C30_10 1_555 1_555
H38_10 C33_10 1_555 1_555
H39_10 C33_10 1_555 1_555
C34_10 O7_10 1_555 1_555
C35_10 C34_10 1_555 1_555
C36_10 C35_10 1_555 1_555
H40_10 C36_10 1_555 1_555
H41_10 C36_10 1_555 1_555
H42_10 C36_10 1_555 1_555
C37_10 C35_10 1_555 1_555
H43_10 C37_10 1_555 1_555
H45_10 C37_10 1_555 1_555
Cu3_6 N5_10 1_555 1_555
O9_10 Cu3_6 1_555 1_555
O10_6 C39_10 1_555 1_555
O11_10 Cu3_6 1_555 1_555
O12_6 C44_10 1_555 1_555
C39_10 O9_10 1_555 1_555
C40_10 C39_10 1_555 1_555
C41_10 C40_10 1_555 1_555
H49_10 C41_10 1_555 1_555
H50_10 C41_10 1_555 1_555
H51_10 C41_10 1_555 1_555
C42_10 C40_10 1_555 1_555
H52_10 C42_10 1_555 1_555
H53_10 C42_10 1_555 1_555
H54_10 C42_10 1_555 1_555
C43_10 C40_10 1_555 1_555
H55_10 C43_10 1_555 1_555
H56_10 C43_10 1_555 1_555
H57_10 C43_10 1_555 1_555
C44_10 O11_10 1_555 1_555
C45_10 C44_10 1_555 1_555
C46_10 C45_10 1_555 1_555
H58_10 C46_10 1_555 1_555
H59_10 C46_10 1_555 1_555
H60_10 C46_10 1_555 1_555
C47_10 C45_10 1_555 1_555
H61_10 C47_10 1_555 1_555
H62_10 C47_10 1_555 1_555
H63_10 C47_10 1_555 1_555
C48_10 C45_10 1_555 1_555
H64_10 C48_10 1_555 1_555
H65_10 C48_10 1_555 1_555
H66_10 C48_10 1_555 1_555
Cu4_6 Cu1_6 1_555 1_555
Cu6_6 Cu3_6 1_555 1_555
O13_6 Cu1_6 1_555 1_555
O14_6 Cu2_6 1_555 1_555
O15_6 Cu3_6 1_555 1_555
O16_6 Cu1_6 1_555 1_555
O17_6 Cu2_6 1_555 1_555
O18_6 Cu3_6 1_555 1_555
O2_6 Cu4_6 1_555 1_555
O4_6 Cu4_6 1_555 1_555
C14_10 C15_10 1_555 1_555
C20_10 C21_10 1_555 1_555
C20_10 C22_10 1_555 1_555
N6_10 C28_10 1_555 1_555
C26_10 C27_10 1_555 1_555
C26_10 C28_10 1_555 1_555
O10_6 Cu6_6 1_555 1_555
O12_6 Cu6_6 1_555 1_555
H34_10 C32_10 1_555 1_555
H35_10 C32_10 1_555 1_555
H36_10 C32_10 1_555 1_555
H46_10 C38_10 1_555 1_555
H47_10 C38_10 1_555 1_555
H48_10 C38_10 1_555 1_555
O6_6 Cu5_6 1_555 1_555
O8_6 Cu5_6 1_555 1_555
H52_11 C42_11 1_555 1_555
H53_11 C42_11 1_555 1_555
H54_11 C42_11 1_555 1_555
H64_11 C48_11 1_555 1_555
H65_11 C48_11 1_555 1_555
H66_11 C48_11 1_555 1_555
O10_7 Cu6_7 1_555 1_555
O12_7 Cu6_7 1_555 1_555
H4_11 C4_11 1_555 1_555
H5_11 C4_11 1_555 1_555
H6_11 C4_11 1_555 1_555
H16_11 C10_11 1_555 1_555
H17_11 C10_11 1_555 1_555
H18_11 C10_11 1_555 1_555
O2_7 Cu4_7 1_555 1_555
O4_7 Cu4_7 1_555 1_555
H34_11 C32_11 1_555 1_555
H35_11 C32_11 1_555 1_555
H36_11 C32_11 1_555 1_555
H46_11 C38_11 1_555 1_555
H47_11 C38_11 1_555 1_555
H48_11 C38_11 1_555 1_555
O6_7 Cu5_7 1_555 1_555
O8_7 Cu5_7 1_555 1_555
Cu1_7 N1_11 1_555 1_555
N1_11 C11_11 1_555 1_555
N2_11 C16_11 1_555 1_555
O1_11 Cu1_7 1_555 1_555
O3_11 Cu1_7 1_555 1_555
C1_11 O1_11 1_555 1_555
C2_11 C1_11 1_555 1_555
C3_11 C2_11 1_555 1_555
H1_11 C3_11 1_555 1_555
H2_11 C3_11 1_555 1_555
H3_11 C3_11 1_555 1_555
C5_11 C2_11 1_555 1_555
H8_11 C5_11 1_555 1_555
H9_11 C5_11 1_555 1_555
C6_11 O3_11 1_555 1_555
C7_11 C6_11 1_555 1_555
C8_11 C7_11 1_555 1_555
H10_11 C8_11 1_555 1_555
H11_11 C8_11 1_555 1_555
H12_11 C8_11 1_555 1_555
C9_11 C7_11 1_555 1_555
H13_11 C9_11 1_555 1_555
H15_11 C9_11 1_555 1_555
C11_11 H19_11 1_555 1_555
C12_11 C11_11 1_555 1_555
H20_11 C12_11 1_555 1_555
C13_11 C12_11 1_555 1_555
H21_11 C13_11 1_555 1_555
C14_11 C13_11 1_555 1_555
C15_11 N1_11 1_555 1_555
H22_11 C15_11 1_555 1_555
C16_11 C14_11 1_555 1_555
N3_11 C17_11 1_555 1_555
N4_11 C16_11 1_555 1_555
C17_11 H23_11 1_555 1_555
C18_11 C17_11 1_555 1_555
H24_11 C18_11 1_555 1_555
C19_11 C18_11 1_555 1_555
H25_11 C19_11 1_555 1_555
C20_11 C19_11 1_555 1_555
C21_11 N3_11 1_555 1_555
H26_11 C21_11 1_555 1_555
C22_11 N4_11 1_555 1_555
N5_11 C23_11 1_555 1_555
N6_11 C22_11 1_555 1_555
C23_11 H27_11 1_555 1_555
C24_11 C23_11 1_555 1_555
H28_11 C24_11 1_555 1_555
C25_11 C24_11 1_555 1_555
H29_11 C25_11 1_555 1_555
C26_11 C25_11 1_555 1_555
C27_11 N5_11 1_555 1_555
H30_11 C27_11 1_555 1_555
C28_11 N2_11 1_555 1_555
Cu2_7 N3_11 1_555 1_555
O5_11 Cu2_7 1_555 1_555
O6_8 C29_11 1_555 1_555
O7_11 Cu2_7 1_555 1_555
O8_8 C34_11 1_555 1_555
C29_11 O5_11 1_555 1_555
C30_11 C29_11 1_555 1_555
C31_11 C30_11 1_555 1_555
H31_11 C31_11 1_555 1_555
H32_11 C31_11 1_555 1_555
H33_11 C31_11 1_555 1_555
C32_12 C30_11 1_555 1_555
H34_12 C32_12 1_555 1_555
H35_12 C32_12 1_555 1_555
H36_12 C32_12 1_555 1_555
C33_11 C30_11 1_555 1_555
H37_12 C33_11 1_555 1_555
H38_11 C33_11 1_555 1_555
H39_11 C33_11 1_555 1_555
C34_11 O7_11 1_555 1_555
C35_11 C34_11 1_555 1_555
C36_11 C35_11 1_555 1_555
H40_11 C36_11 1_555 1_555
H41_11 C36_11 1_555 1_555
H42_11 C36_11 1_555 1_555
C37_11 C35_11 1_555 1_555
H43_11 C37_11 1_555 1_555
H44_12 C37_11 1_555 1_555
H45_11 C37_11 1_555 1_555
C38_12 C35_11 1_555 1_555
H46_12 C38_12 1_555 1_555
H47_12 C38_12 1_555 1_555
H48_12 C38_12 1_555 1_555
Cu3_7 N5_11 1_555 1_555
O9_11 Cu3_7 1_555 1_555
O10_8 C39_11 1_555 1_555
O11_11 Cu3_7 1_555 1_555
O12_8 C44_11 1_555 1_555
C39_11 O9_11 1_555 1_555
C40_11 C39_11 1_555 1_555
C41_11 C40_11 1_555 1_555
H49_11 C41_11 1_555 1_555
H50_11 C41_11 1_555 1_555
H51_11 C41_11 1_555 1_555
C42_12 C40_11 1_555 1_555
H52_12 C42_12 1_555 1_555
H53_12 C42_12 1_555 1_555
H54_12 C42_12 1_555 1_555
C43_11 C40_11 1_555 1_555
H55_12 C43_11 1_555 1_555
H56_11 C43_11 1_555 1_555
H57_11 C43_11 1_555 1_555
C44_11 O11_11 1_555 1_555
C45_11 C44_11 1_555 1_555
C46_11 C45_11 1_555 1_555
H58_11 C46_11 1_555 1_555
H59_11 C46_11 1_555 1_555
H60_11 C46_11 1_555 1_555
C47_11 C45_11 1_555 1_555
H61_11 C47_11 1_555 1_555
H62_12 C47_11 1_555 1_555
H63_11 C47_11 1_555 1_555
C48_12 C45_11 1_555 1_555
H64_12 C48_12 1_555 1_555
H65_12 C48_12 1_555 1_555
H66_12 C48_12 1_555 1_555
Cu5_8 Cu2_7 1_555 1_555
Cu6_8 Cu3_7 1_555 1_555
O13_7 Cu1_7 1_555 1_555
O14_7 Cu2_7 1_555 1_555
O15_7 Cu3_7 1_555 1_555
O16_7 Cu1_7 1_555 1_555
O17_7 Cu2_7 1_555 1_555
O18_7 Cu3_7 1_555 1_555
C14_11 C15_11 1_555 1_555
C20_11 C21_11 1_555 1_555
C20_11 C22_11 1_555 1_555
N6_11 C28_11 1_555 1_555
C26_11 C27_11 1_555 1_555
C26_11 C28_11 1_555 1_555
O6_8 Cu5_8 1_555 1_555
O8_8 Cu5_8 1_555 1_555
O10_8 Cu6_8 1_555 1_555
O12_8 Cu6_8 1_555 1_555
H4_12 C4_12 1_555 1_555
H5_12 C4_12 1_555 1_555
H6_12 C4_12 1_555 1_555
H16_12 C10_12 1_555 1_555
H17_12 C10_12 1_555 1_555
H18_12 C10_12 1_555 1_555
O2_8 Cu4_8 1_555 1_555
O4_8 Cu4_8 1_555 1_555
H4_13 C4_13 1_555 1_555
H5_13 C4_13 1_555 1_555
H6_13 C4_13 1_555 1_555
H16_13 C10_13 1_555 1_555
H17_13 C10_13 1_555 1_555
H18_13 C10_13 1_555 1_555
Cu4_8 N1_12 1_555 1_555
N1_12 C11_12 1_555 1_555
N2_12 C16_12 1_555 1_555
O1_12 Cu4_8 1_555 1_555
O3_12 Cu4_8 1_555 1_555
C1_12 O1_12 1_555 1_555
C2_12 C1_12 1_555 1_555
C3_12 C2_12 1_555 1_555
H1_12 C3_12 1_555 1_555
H2_12 C3_12 1_555 1_555
H3_12 C3_12 1_555 1_555
C5_12 C2_12 1_555 1_555
H8_12 C5_12 1_555 1_555
H9_12 C5_12 1_555 1_555
C6_12 O3_12 1_555 1_555
C7_12 C6_12 1_555 1_555
C8_12 C7_12 1_555 1_555
H10_12 C8_12 1_555 1_555
H11_12 C8_12 1_555 1_555
H12_12 C8_12 1_555 1_555
C9_12 C7_12 1_555 1_555
H13_12 C9_12 1_555 1_555
H15_12 C9_12 1_555 1_555
C11_12 H19_12 1_555 1_555
C12_12 C11_12 1_555 1_555
H20_12 C12_12 1_555 1_555
C13_12 C12_12 1_555 1_555
H21_12 C13_12 1_555 1_555
C14_12 C13_12 1_555 1_555
C15_12 N1_12 1_555 1_555
H22_12 C15_12 1_555 1_555
C16_12 C14_12 1_555 1_555
N3_12 C17_12 1_555 1_555
N4_12 C16_12 1_555 1_555
C17_12 H23_12 1_555 1_555
C18_12 C17_12 1_555 1_555
H24_12 C18_12 1_555 1_555
C19_12 C18_12 1_555 1_555
H25_12 C19_12 1_555 1_555
C20_12 C19_12 1_555 1_555
C21_12 N3_12 1_555 1_555
H26_12 C21_12 1_555 1_555
C22_12 N4_12 1_555 1_555
N5_12 C23_12 1_555 1_555
N6_12 C22_12 1_555 1_555
C23_12 H27_12 1_555 1_555
C24_12 C23_12 1_555 1_555
H28_12 C24_12 1_555 1_555
C25_12 C24_12 1_555 1_555
H29_12 C25_12 1_555 1_555
C26_12 C25_12 1_555 1_555
C27_12 N5_12 1_555 1_555
H30_12 C27_12 1_555 1_555
C28_12 N2_12 1_555 1_555
Cu5_7 N3_12 1_555 1_555
O5_12 Cu5_7 1_555 1_555
O7_12 Cu5_7 1_555 1_555
C29_12 O5_12 1_555 1_555
C30_12 C29_12 1_555 1_555
C31_12 C30_12 1_555 1_555
H31_12 C31_12 1_555 1_555
H32_12 C31_12 1_555 1_555
H33_12 C31_12 1_555 1_555
C33_12 C30_12 1_555 1_555
H38_12 C33_12 1_555 1_555
H39_12 C33_12 1_555 1_555
C34_12 O7_12 1_555 1_555
C35_12 C34_12 1_555 1_555
C36_12 C35_12 1_555 1_555
H40_12 C36_12 1_555 1_555
H41_12 C36_12 1_555 1_555
H42_12 C36_12 1_555 1_555
C37_12 C35_12 1_555 1_555
H43_12 C37_12 1_555 1_555
H45_12 C37_12 1_555 1_555
Cu6_6 N5_12 1_555 1_555
O9_12 Cu6_6 1_555 1_555
O15_6 C39_12 1_555 1_555
O11_12 Cu6_6 1_555 1_555
O18_6 C44_12 1_555 1_555
C39_12 O9_12 1_555 1_555
C40_12 C39_12 1_555 1_555
C41_12 C40_12 1_555 1_555
H49_12 C41_12 1_555 1_555
H50_12 C41_12 1_555 1_555
H51_12 C41_12 1_555 1_555
C42_13 C40_12 1_555 1_555
H52_13 C42_13 1_555 1_555
H53_13 C42_13 1_555 1_555
H54_13 C42_13 1_555 1_555
C43_12 C40_12 1_555 1_555
H55_13 C43_12 1_555 1_555
H56_12 C43_12 1_555 1_555
H57_12 C43_12 1_555 1_555
C44_12 O11_12 1_555 1_555
C45_12 C44_12 1_555 1_555
C46_12 C45_12 1_555 1_555
H58_12 C46_12 1_555 1_555
H59_12 C46_12 1_555 1_555
H60_12 C46_12 1_555 1_555
C47_12 C45_12 1_555 1_555
H61_12 C47_12 1_555 1_555
H62_13 C47_12 1_555 1_555
H63_12 C47_12 1_555 1_555
C48_13 C45_12 1_555 1_555
H64_13 C48_13 1_555 1_555
H65_13 C48_13 1_555 1_555
H66_13 C48_13 1_555 1_555
C14_12 C15_12 1_555 1_555
C20_12 C21_12 1_555 1_555
C20_12 C22_12 1_555 1_555
N6_12 C28_12 1_555 1_555
C26_12 C27_12 1_555 1_555
C26_12 C28_12 1_555 1_555
H52_14 C42_14 1_555 1_555
H53_14 C42_14 1_555 1_555
H54_14 C42_14 1_555 1_555
H64_14 C48_14 1_555 1_555
H65_14 C48_14 1_555 1_555
H66_14 C48_14 1_555 1_555
Cu4_7 N1_13 1_555 1_555
N1_13 C11_13 1_555 1_555
N2_13 C16_13 1_555 1_555
O1_13 Cu4_7 1_555 1_555
O3_13 Cu4_7 1_555 1_555
C1_13 O1_13 1_555 1_555
C2_13 C1_13 1_555 1_555
C3_13 C2_13 1_555 1_555
H1_13 C3_13 1_555 1_555
H2_13 C3_13 1_555 1_555
H3_13 C3_13 1_555 1_555
C5_13 C2_13 1_555 1_555
H8_13 C5_13 1_555 1_555
H9_13 C5_13 1_555 1_555
C6_13 O3_13 1_555 1_555
C7_13 C6_13 1_555 1_555
C8_13 C7_13 1_555 1_555
H10_13 C8_13 1_555 1_555
H11_13 C8_13 1_555 1_555
H12_13 C8_13 1_555 1_555
C9_13 C7_13 1_555 1_555
H13_13 C9_13 1_555 1_555
H15_13 C9_13 1_555 1_555
C11_13 H19_13 1_555 1_555
C12_13 C11_13 1_555 1_555
H20_13 C12_13 1_555 1_555
C13_13 C12_13 1_555 1_555
H21_13 C13_13 1_555 1_555
C14_13 C13_13 1_555 1_555
C15_13 N1_13 1_555 1_555
H22_13 C15_13 1_555 1_555
C16_13 C14_13 1_555 1_555
N3_13 C17_13 1_555 1_555
N4_13 C16_13 1_555 1_555
C17_13 H23_13 1_555 1_555
C18_13 C17_13 1_555 1_555
H24_13 C18_13 1_555 1_555
C19_13 C18_13 1_555 1_555
H25_13 C19_13 1_555 1_555
C20_13 C19_13 1_555 1_555
C21_13 N3_13 1_555 1_555
H26_13 C21_13 1_555 1_555
C22_13 N4_13 1_555 1_555
N5_13 C23_13 1_555 1_555
N6_13 C22_13 1_555 1_555
C23_13 H27_13 1_555 1_555
C24_13 C23_13 1_555 1_555
H28_13 C24_13 1_555 1_555
C25_13 C24_13 1_555 1_555
H29_13 C25_13 1_555 1_555
C26_13 C25_13 1_555 1_555
C27_13 N5_13 1_555 1_555
H30_13 C27_13 1_555 1_555
C28_13 N2_13 1_555 1_555
Cu5_8 N3_13 1_555 1_555
O5_13 Cu5_8 1_555 1_555
O14_7 C29_13 1_555 1_555
O7_13 Cu5_8 1_555 1_555
O17_7 C34_13 1_555 1_555
C29_13 O5_13 1_555 1_555
C30_13 C29_13 1_555 1_555
C31_13 C30_13 1_555 1_555
H31_13 C31_13 1_555 1_555
H32_13 C31_13 1_555 1_555
H33_13 C31_13 1_555 1_555
C32_13 C30_13 1_555 1_555
H34_13 C32_13 1_555 1_555
H35_13 C32_13 1_555 1_555
H36_13 C32_13 1_555 1_555
C33_13 C30_13 1_555 1_555
H37_13 C33_13 1_555 1_555
H38_13 C33_13 1_555 1_555
H39_13 C33_13 1_555 1_555
C34_13 O7_13 1_555 1_555
C35_13 C34_13 1_555 1_555
C36_13 C35_13 1_555 1_555
H40_13 C36_13 1_555 1_555
H41_13 C36_13 1_555 1_555
H42_13 C36_13 1_555 1_555
C37_13 C35_13 1_555 1_555
H43_13 C37_13 1_555 1_555
H44_13 C37_13 1_555 1_555
H45_13 C37_13 1_555 1_555
C38_13 C35_13 1_555 1_555
H46_13 C38_13 1_555 1_555
H47_13 C38_13 1_555 1_555
H48_13 C38_13 1_555 1_555
Cu6_5 N5_13 1_555 1_555
O9_13 Cu6_5 1_555 1_555
O11_13 Cu6_5 1_555 1_555
C39_13 O9_13 1_555 1_555
C40_13 C39_13 1_555 1_555
C41_13 C40_13 1_555 1_555
H49_13 C41_13 1_555 1_555
H50_13 C41_13 1_555 1_555
H51_13 C41_13 1_555 1_555
C43_13 C40_13 1_555 1_555
H56_13 C43_13 1_555 1_555
H57_13 C43_13 1_555 1_555
C44_13 O11_13 1_555 1_555
C45_13 C44_13 1_555 1_555
C46_13 C45_13 1_555 1_555
H58_13 C46_13 1_555 1_555
H59_13 C46_13 1_555 1_555
H60_13 C46_13 1_555 1_555
C47_13 C45_13 1_555 1_555
H61_13 C47_13 1_555 1_555
H63_13 C47_13 1_555 1_555
C14_13 C15_13 1_555 1_555
C20_13 C21_13 1_555 1_555
C20_13 C22_13 1_555 1_555
N6_13 C28_13 1_555 1_555
C26_13 C27_13 1_555 1_555
C26_13 C28_13 1_555 1_555
Cu4_6 N1_14 1_555 1_555
N1_14 C11_14 1_555 1_555
N2_14 C16_14 1_555 1_555
O1_14 Cu4_6 1_555 1_555
O13_6 C1_14 1_555 1_555
O3_14 Cu4_6 1_555 1_555
O16_6 C6_14 1_555 1_555
C1_14 O1_14 1_555 1_555
C2_14 C1_14 1_555 1_555
C3_14 C2_14 1_555 1_555
H1_14 C3_14 1_555 1_555
H2_14 C3_14 1_555 1_555
H3_14 C3_14 1_555 1_555
C4_14 C2_14 1_555 1_555
H4_14 C4_14 1_555 1_555
H5_14 C4_14 1_555 1_555
H6_14 C4_14 1_555 1_555
C5_14 C2_14 1_555 1_555
H7_14 C5_14 1_555 1_555
H8_14 C5_14 1_555 1_555
H9_14 C5_14 1_555 1_555
C6_14 O3_14 1_555 1_555
C7_14 C6_14 1_555 1_555
C8_14 C7_14 1_555 1_555
H10_14 C8_14 1_555 1_555
H11_14 C8_14 1_555 1_555
H12_14 C8_14 1_555 1_555
C9_14 C7_14 1_555 1_555
H13_14 C9_14 1_555 1_555
H14_14 C9_14 1_555 1_555
H15_14 C9_14 1_555 1_555
C10_14 C7_14 1_555 1_555
H16_14 C10_14 1_555 1_555
H17_14 C10_14 1_555 1_555
H18_14 C10_14 1_555 1_555
C11_14 H19_14 1_555 1_555
C12_14 C11_14 1_555 1_555
H20_14 C12_14 1_555 1_555
C13_14 C12_14 1_555 1_555
H21_14 C13_14 1_555 1_555
C14_14 C13_14 1_555 1_555
C15_14 N1_14 1_555 1_555
H22_14 C15_14 1_555 1_555
C16_14 C14_14 1_555 1_555
N3_14 C17_14 1_555 1_555
N4_14 C16_14 1_555 1_555
C17_14 H23_14 1_555 1_555
C18_14 C17_14 1_555 1_555
H24_14 C18_14 1_555 1_555
C19_14 C18_14 1_555 1_555
H25_14 C19_14 1_555 1_555
C20_14 C19_14 1_555 1_555
C21_14 N3_14 1_555 1_555
H26_14 C21_14 1_555 1_555
C22_14 N4_14 1_555 1_555
N5_14 C23_14 1_555 1_555
N6_14 C22_14 1_555 1_555
C23_14 H27_14 1_555 1_555
C24_14 C23_14 1_555 1_555
H28_14 C24_14 1_555 1_555
C25_14 C24_14 1_555 1_555
H29_14 C25_14 1_555 1_555
C26_14 C25_14 1_555 1_555
C27_14 N5_14 1_555 1_555
H30_14 C27_14 1_555 1_555
C28_14 N2_14 1_555 1_555
Cu5_5 N3_14 1_555 1_555
O5_14 Cu5_5 1_555 1_555
O14_5 C29_14 1_555 1_555
O7_14 Cu5_5 1_555 1_555
O17_5 C34_14 1_555 1_555
C29_14 O5_14 1_555 1_555
C30_14 C29_14 1_555 1_555
C31_14 C30_14 1_555 1_555
H31_14 C31_14 1_555 1_555
H32_14 C31_14 1_555 1_555
H33_14 C31_14 1_555 1_555
C32_14 C30_14 1_555 1_555
H34_14 C32_14 1_555 1_555
H35_14 C32_14 1_555 1_555
H36_14 C32_14 1_555 1_555
C33_14 C30_14 1_555 1_555
H37_14 C33_14 1_555 1_555
H38_14 C33_14 1_555 1_555
H39_14 C33_14 1_555 1_555
C34_14 O7_14 1_555 1_555
C35_14 C34_14 1_555 1_555
C36_14 C35_14 1_555 1_555
H40_14 C36_14 1_555 1_555
H41_14 C36_14 1_555 1_555
H42_14 C36_14 1_555 1_555
C37_14 C35_14 1_555 1_555
H43_14 C37_14 1_555 1_555
H44_14 C37_14 1_555 1_555
H45_14 C37_14 1_555 1_555
C38_14 C35_14 1_555 1_555
H46_14 C38_14 1_555 1_555
H47_14 C38_14 1_555 1_555
H48_14 C38_14 1_555 1_555
Cu6_8 N5_14 1_555 1_555
O9_14 Cu6_8 1_555 1_555
O15_7 C39_14 1_555 1_555
O11_14 Cu6_8 1_555 1_555
O18_7 C44_14 1_555 1_555
C39_14 O9_14 1_555 1_555
C40_14 C39_14 1_555 1_555
C41_14 C40_14 1_555 1_555
H49_14 C41_14 1_555 1_555
H50_14 C41_14 1_555 1_555
H51_14 C41_14 1_555 1_555
C42_15 C40_14 1_555 1_555
H52_15 C42_15 1_555 1_555
H53_15 C42_15 1_555 1_555
H54_15 C42_15 1_555 1_555
C43_14 C40_14 1_555 1_555
H55_15 C43_14 1_555 1_555
H56_14 C43_14 1_555 1_555
H57_14 C43_14 1_555 1_555
C44_14 O11_14 1_555 1_555
C45_14 C44_14 1_555 1_555
C46_14 C45_14 1_555 1_555
H58_14 C46_14 1_555 1_555
H59_14 C46_14 1_555 1_555
H60_14 C46_14 1_555 1_555
C47_14 C45_14 1_555 1_555
H61_14 C47_14 1_555 1_555
H62_15 C47_14 1_555 1_555
H63_14 C47_14 1_555 1_555
C48_15 C45_14 1_555 1_555
H64_15 C48_15 1_555 1_555
H65_15 C48_15 1_555 1_555
H66_15 C48_15 1_555 1_555
C14_14 C15_14 1_555 1_555
C20_14 C21_14 1_555 1_555
C20_14 C22_14 1_555 1_555
N6_14 C28_14 1_555 1_555
C26_14 C27_14 1_555 1_555
C26_14 C28_14 1_555 1_555
H34_15 C32_15 1_555 1_555
H35_15 C32_15 1_555 1_555
H36_15 C32_15 1_555 1_555
H46_15 C38_15 1_555 1_555
H47_15 C38_15 1_555 1_555
H48_15 C38_15 1_555 1_555
Cu4_5 N1_15 1_555 1_555
N1_15 C11_15 1_555 1_555
N2_15 C16_15 1_555 1_555
O1_15 Cu4_5 1_555 1_555
O13_5 C1_15 1_555 1_555
O3_15 Cu4_5 1_555 1_555
O16_5 C6_15 1_555 1_555
C1_15 O1_15 1_555 1_555
C2_15 C1_15 1_555 1_555
C3_15 C2_15 1_555 1_555
H1_15 C3_15 1_555 1_555
H2_15 C3_15 1_555 1_555
H3_15 C3_15 1_555 1_555
C4_15 C2_15 1_555 1_555
H4_15 C4_15 1_555 1_555
H5_15 C4_15 1_555 1_555
H6_15 C4_15 1_555 1_555
C5_15 C2_15 1_555 1_555
H7_15 C5_15 1_555 1_555
H8_15 C5_15 1_555 1_555
H9_15 C5_15 1_555 1_555
C6_15 O3_15 1_555 1_555
C7_15 C6_15 1_555 1_555
C8_15 C7_15 1_555 1_555
H10_15 C8_15 1_555 1_555
H11_15 C8_15 1_555 1_555
H12_15 C8_15 1_555 1_555
C9_15 C7_15 1_555 1_555
H13_15 C9_15 1_555 1_555
H14_15 C9_15 1_555 1_555
H15_15 C9_15 1_555 1_555
C10_15 C7_15 1_555 1_555
H16_15 C10_15 1_555 1_555
H17_15 C10_15 1_555 1_555
H18_15 C10_15 1_555 1_555
C11_15 H19_15 1_555 1_555
C12_15 C11_15 1_555 1_555
H20_15 C12_15 1_555 1_555
C13_15 C12_15 1_555 1_555
H21_15 C13_15 1_555 1_555
C14_15 C13_15 1_555 1_555
C15_15 N1_15 1_555 1_555
H22_15 C15_15 1_555 1_555
C16_15 C14_15 1_555 1_555
N3_15 C17_15 1_555 1_555
N4_15 C16_15 1_555 1_555
C17_15 H23_15 1_555 1_555
C18_15 C17_15 1_555 1_555
H24_15 C18_15 1_555 1_555
C19_15 C18_15 1_555 1_555
H25_15 C19_15 1_555 1_555
C20_15 C19_15 1_555 1_555
C21_15 N3_15 1_555 1_555
H26_15 C21_15 1_555 1_555
C22_15 N4_15 1_555 1_555
N5_15 C23_15 1_555 1_555
N6_15 C22_15 1_555 1_555
C23_15 H27_15 1_555 1_555
C24_15 C23_15 1_555 1_555
H28_15 C24_15 1_555 1_555
C25_15 C24_15 1_555 1_555
H29_15 C25_15 1_555 1_555
C26_15 C25_15 1_555 1_555
C27_15 N5_15 1_555 1_555
H30_15 C27_15 1_555 1_555
C28_15 N2_15 1_555 1_555
Cu5_6 N3_15 1_555 1_555
O5_15 Cu5_6 1_555 1_555
O7_15 Cu5_6 1_555 1_555
C29_15 O5_15 1_555 1_555
C30_15 C29_15 1_555 1_555
C31_15 C30_15 1_555 1_555
H31_15 C31_15 1_555 1_555
H32_15 C31_15 1_555 1_555
H33_15 C31_15 1_555 1_555
C33_15 C30_15 1_555 1_555
H38_15 C33_15 1_555 1_555
H39_15 C33_15 1_555 1_555
C34_15 O7_15 1_555 1_555
C35_15 C34_15 1_555 1_555
C36_15 C35_15 1_555 1_555
H40_15 C36_15 1_555 1_555
H41_15 C36_15 1_555 1_555
H42_15 C36_15 1_555 1_555
C37_15 C35_15 1_555 1_555
H43_15 C37_15 1_555 1_555
H45_15 C37_15 1_555 1_555
Cu6_7 N5_15 1_555 1_555
O9_15 Cu6_7 1_555 1_555
O11_15 Cu6_7 1_555 1_555
C39_15 O9_15 1_555 1_555
C40_15 C39_15 1_555 1_555
C41_15 C40_15 1_555 1_555
H49_15 C41_15 1_555 1_555
H50_15 C41_15 1_555 1_555
H51_15 C41_15 1_555 1_555
C43_15 C40_15 1_555 1_555
H56_15 C43_15 1_555 1_555
H57_15 C43_15 1_555 1_555
C44_15 O11_15 1_555 1_555
C45_15 C44_15 1_555 1_555
C46_15 C45_15 1_555 1_555
H58_15 C46_15 1_555 1_555
H59_15 C46_15 1_555 1_555
H60_15 C46_15 1_555 1_555
C47_15 C45_15 1_555 1_555
H61_15 C47_15 1_555 1_555
H63_15 C47_15 1_555 1_555
C14_15 C15_15 1_555 1_555
C20_15 C21_15 1_555 1_555
C20_15 C22_15 1_555 1_555
N6_15 C28_15 1_555 1_555
C26_15 C27_15 1_555 1_555
C26_15 C28_15 1_555 1_555
Cu1_8 N1_16 1_555 1_555
N1_16 C11_16 1_555 1_555
N2_16 C16_16 1_555 1_555
O1_16 Cu1_8 1_555 1_555
O3_16 Cu1_8 1_555 1_555
C1_16 O1_16 1_555 1_555
C2_16 C1_16 1_555 1_555
C3_16 C2_16 1_555 1_555
H1_16 C3_16 1_555 1_555
H2_16 C3_16 1_555 1_555
H3_16 C3_16 1_555 1_555
C5_16 C2_16 1_555 1_555
H8_16 C5_16 1_555 1_555
H9_16 C5_16 1_555 1_555
C6_16 O3_16 1_555 1_555
C7_16 C6_16 1_555 1_555
C8_16 C7_16 1_555 1_555
H10_16 C8_16 1_555 1_555
H11_16 C8_16 1_555 1_555
H12_16 C8_16 1_555 1_555
C9_16 C7_16 1_555 1_555
H13_16 C9_16 1_555 1_555
H15_16 C9_16 1_555 1_555
C11_16 H19_16 1_555 1_555
C12_16 C11_16 1_555 1_555
H20_16 C12_16 1_555 1_555
C13_16 C12_16 1_555 1_555
H21_16 C13_16 1_555 1_555
C14_16 C13_16 1_555 1_555
C15_16 N1_16 1_555 1_555
H22_16 C15_16 1_555 1_555
C16_16 C14_16 1_555 1_555
N3_16 C17_16 1_555 1_555
N4_16 C16_16 1_555 1_555
C17_16 H23_16 1_555 1_555
C18_16 C17_16 1_555 1_555
H24_16 C18_16 1_555 1_555
C19_16 C18_16 1_555 1_555
H25_16 C19_16 1_555 1_555
C20_16 C19_16 1_555 1_555
C21_16 N3_16 1_555 1_555
H26_16 C21_16 1_555 1_555
C22_16 N4_16 1_555 1_555
N5_16 C23_16 1_555 1_555
N6_16 C22_16 1_555 1_555
C23_16 H27_16 1_555 1_555
C24_16 C23_16 1_555 1_555
H28_16 C24_16 1_555 1_555
C25_16 C24_16 1_555 1_555
H29_16 C25_16 1_555 1_555
C26_16 C25_16 1_555 1_555
C27_16 N5_16 1_555 1_555
H30_16 C27_16 1_555 1_555
C28_16 N2_16 1_555 1_555
Cu2_8 N3_16 1_555 1_555
O5_16 Cu2_8 1_555 1_555
O7_16 Cu2_8 1_555 1_555
C29_16 O5_16 1_555 1_555
C30_16 C29_16 1_555 1_555
C31_16 C30_16 1_555 1_555
H31_16 C31_16 1_555 1_555
H32_16 C31_16 1_555 1_555
H33_16 C31_16 1_555 1_555
C33_16 C30_16 1_555 1_555
H38_16 C33_16 1_555 1_555
H39_16 C33_16 1_555 1_555
C34_16 O7_16 1_555 1_555
C35_16 C34_16 1_555 1_555
C36_16 C35_16 1_555 1_555
H40_16 C36_16 1_555 1_555
H41_16 C36_16 1_555 1_555
H42_16 C36_16 1_555 1_555
C37_16 C35_16 1_555 1_555
H43_16 C37_16 1_555 1_555
H45_16 C37_16 1_555 1_555
Cu3_8 N5_16 1_555 1_555
O9_16 Cu3_8 1_555 1_555
O11_16 Cu3_8 1_555 1_555
C39_16 O9_16 1_555 1_555
C40_16 C39_16 1_555 1_555
C41_16 C40_16 1_555 1_555
H49_16 C41_16 1_555 1_555
H50_16 C41_16 1_555 1_555
H51_16 C41_16 1_555 1_555
C43_16 C40_16 1_555 1_555
H56_16 C43_16 1_555 1_555
H57_16 C43_16 1_555 1_555
C44_16 O11_16 1_555 1_555
C45_16 C44_16 1_555 1_555
C46_16 C45_16 1_555 1_555
H58_16 C46_16 1_555 1_555
H59_16 C46_16 1_555 1_555
H60_16 C46_16 1_555 1_555
C47_16 C45_16 1_555 1_555
H61_16 C47_16 1_555 1_555
H63_16 C47_16 1_555 1_555
O13_8 Cu1_8 1_555 1_555
O14_8 Cu2_8 1_555 1_555
O15_8 Cu3_8 1_555 1_555
O16_8 Cu1_8 1_555 1_555
O17_8 Cu2_8 1_555 1_555
O18_8 Cu3_8 1_555 1_555
C14_16 C15_16 1_555 1_555
C20_16 C21_16 1_555 1_555
C20_16 C22_16 1_555 1_555
N6_16 C28_16 1_555 1_555
C26_16 C27_16 1_555 1_555
C26_16 C28_16 1_555 1_555
H34_16 C32_16 1_555 1_555
H35_16 C32_16 1_555 1_555
H36_16 C32_16 1_555 1_555
H46_16 C38_16 1_555 1_555
H47_16 C38_16 1_555 1_555
H48_16 C38_16 1_555 1_555
H4_16 C4_16 1_555 1_555
H5_16 C4_16 1_555 1_555
H6_16 C4_16 1_555 1_555
H16_16 C10_16 1_555 1_555
H17_16 C10_16 1_555 1_555
H18_16 C10_16 1_555 1_555
H52_16 C42_16 1_555 1_555
H53_16 C42_16 1_555 1_555
H54_16 C42_16 1_555 1_555
H64_16 C48_16 1_555 1_555
H65_16 C48_16 1_555 1_555
H66_16 C48_16 1_555 1_555

#END
