
###############################################################################
#
# This file contains modified crystal structure data generated from the
# MOF subset of the Cambridge Structural Database (CSD) v543 
# hosted by the Cambridge Crystallographic Data Centre (CCDC).
#
# This work is licensed under the Creative Commons
# Attribution-NonCommercial-ShareAlike 4.0 International License.
# To view a copy of this license, visit
# http://creativecommons.org/licenses/by-nc-sa/4.0/
# or send a letter to
# Creative Commons, PO Box 1866, Mountain View, CA 94042, USA.
#
# CIF created using the CSD Python API on 29 September 2022
# The structure has been converted into the P1 space group
# The structure has a 3D framework
# The original CSD entry YIXFUI is in the monoclinic crystal system
# The framework has been calculated to contain at least 10.0% void space
# The void calculation uses a probe of radius 1.32A, grid spacing 0.4
# The framework is charged, counterions have been retained in the structure
#
###############################################################################

data_YIXFUI
_chemical_formula_moiety         '(C96 H48 Cl4 O44 Tb8 4-)n'
_symmetry_cell_setting           triclinic
_symmetry_space_group_name_H-M   'P 1'
_symmetry_Int_Tables_number      1
_space_group_name_Hall           'P 1'
loop_
_symmetry_equiv_pos_site_id
_symmetry_equiv_pos_as_xyz
1 x,y,z
_cell_length_a                   8.0556(5)
_cell_length_b                   21.3294(12)
_cell_length_c                   18.3473(11)
_cell_angle_alpha                90
_cell_angle_beta                 90.014(3)
_cell_angle_gamma                90
_cell_volume                     3152.45
loop_
_atom_site_label
_atom_site_type_symbol
_atom_site_fract_x
_atom_site_fract_y
_atom_site_fract_z
H1 H 0.0320 0.8195 0.2416
C21 C 0.0428(11) 0.5572(4) 0.4685(4)
H11 H 0.0712 0.5956 0.4479
O15 O 0.0936(6) 0.4135(2) 0.6707(2)
O16 O 0.2507(6) 0.4977(2) 0.6662(3)
C30 C 0.0599(8) 0.4837(3) 0.5685(3)
C31 C 0.1038(10) 0.5405(4) 0.5373(4)
H16 H 0.1741 0.5677 0.5621
C32 C 0.1375(8) 0.4654(3) 0.6393(3)
Tb5 Tb 0.15774(3) 0.631356(12) 0.277651(15)
Tb15 Tb 0.35449(3) 0.419353(12) 0.749266(14)
O3 O 0.8002(7) 0.0227(2) 0.2278(4)
O4 O 0.5471(6) 0.0047(2) 0.2710(3)
Tb7 Tb 0.84226(3) 0.131356(12) 0.222349(15)
Tb13 Tb 0.35449(3) 0.080647(12) 0.249266(14)
Tb2 Tb 0.64551(3) 0.580647(12) 0.250734(14)
Cl1 Cl 0.4428(2) 0.60181(11) 0.36815(9)
O1 O 0.9779(7) 0.7069(2) 0.2378(3)
O2 O 0.7114(7) 0.6849(2) 0.2553(5)
O7 O 0.5768(8) 0.6094(3) 0.1288(3)
O8 O 0.3814(6) 0.6465(2) 0.1987(3)
O9 O 0.0607(10) 0.5936(3) 0.1624(3)
O11 O 0.9064(6) 0.5865(2) 0.3293(2)
O12 O 0.7493(6) 0.5023(2) 0.3338(3)
C1 C 0.7945(9) 0.7916(3) 0.2563(5)
C2 C 0.9240(9) 0.8339(3) 0.2478(6)
C3 C 0.8917(10) 0.8978(3) 0.2486(6)
H2 H 0.9779 0.9266 0.2444
C4 C 0.7269(9) 0.9182(3) 0.2558(5)
C5 C 0.5974(9) 0.8760(3) 0.2649(5)
H3 H 0.4891 0.8900 0.2714
C6 C 0.6329(9) 0.8120(3) 0.2640(5)
H4 H 0.5473 0.7830 0.2686
C7 C 0.8333(9) 0.7224(3) 0.2499(4)
C8 C 0.6890(9) 0.9881(3) 0.2511(5)
C11 C 0.4223(10) 0.6528(4) 0.0024(4)
C12 C 0.3767(9) 0.6733(3) 0.0716(4)
C13 C 0.2735(10) 0.7256(4) 0.0787(4)
H7 H 0.2392 0.7390 0.1245
C14 C 0.2228(10) 0.7571(4) 0.0163(4)
H8 H 0.1567 0.7926 0.0210
C16 C 0.4475(9) 0.6403(3) 0.1369(3)
C19 C 0.1335(11) 0.5283(5) 0.0335(5)
H10 H 0.2237 0.5473 0.0562
C22 C 0.9401(8) 0.5163(3) 0.4315(3)
C23 C 0.8962(10) 0.4595(4) 0.4627(4)
H12 H 0.8259 0.4323 0.4379
C24 C 0.8625(8) 0.5346(3) 0.3607(3)
C29 C 0.9572(11) 0.4428(4) 0.5315(4)
H15 H 0.9288 0.4044 0.5521
Tb9 Tb 0.84226(3) 0.368644(12) 0.722349(15)
O27 O 0.1998(7) 0.5227(2) 0.2722(4)
O29 O 0.4529(6) 0.5047(2) 0.2290(3)
O32 O 0.2842(7) 0.7349(2) 0.3208(3)
O34 O 0.1048(6) 0.6852(2) 0.3897(3)
O35 O 0.8382(7) 0.5342(3) 0.1799(3)
O5 O 0.2842(7) 0.7651(2) 0.8208(3)
O6 O 0.1048(6) 0.8148(2) 0.8897(3)
C9 C 0.2682(8) 0.7371(3) 0.9473(3)
C10 C 0.3679(10) 0.6844(4) 0.9407(4)
H5 H 0.3984 0.6702 0.8947
H6 H 0.4897 0.6176 0.9975
C15 C 0.2165(8) 0.7737(3) 0.8806(4)
O14 O 0.1618(7) 0.4658(3) 0.8201(3)
C25 C 0.1492(11) 0.5044(5) 0.9642(5)
H13 H 0.2506 0.5078 0.9403
C26 C 0.0208(10) 0.4761(4) 0.9301(4)
C28 C 0.0415(10) 0.4466(4) 0.8565(4)
Tb11 Tb 0.15774(3) 0.868644(12) 0.777651(15)
O26 O 0.0221(7) 0.2931(2) 0.7622(3)
C17 C 0.8508(11) 0.4956(5) 0.0358(5)
H9 H 0.7494 0.4922 0.0597
C18 C 0.9792(10) 0.5239(4) 0.0699(4)
C20 C 0.9585(10) 0.5534(4) 0.1435(4)
O21 O 0.7158(7) 0.2349(2) 0.1792(3)
O22 O 0.8952(6) 0.1852(2) 0.1103(3)
C41 C 0.7318(8) 0.2629(3) 0.0527(3)
C42 C 0.6321(10) 0.3156(4) 0.0593(4)
H21 H 0.6016 0.3298 0.1053
H22 H 0.5103 0.3824 0.0025
C47 C 0.7835(8) 0.2263(3) 0.1194(4)
O13 O 0.9393(10) 0.4064(3) 0.8376(3)
C27 C 0.8665(11) 0.4717(5) 0.9665(5)
H14 H 0.7763 0.4527 0.9438
Cl2 Cl 0.5572(2) 0.39819(11) 0.63185(9)
O18 O 0.2886(7) 0.3151(2) 0.7447(5)
O23 O 0.4232(8) 0.3906(3) 0.8712(3)
O24 O 0.6186(6) 0.3535(2) 0.8013(3)
C33 C 0.2055(9) 0.2084(3) 0.7437(5)
C34 C 0.0760(9) 0.1661(3) 0.7522(6)
C35 C 0.1083(10) 0.1022(3) 0.7514(6)
H18 H 0.0221 0.0734 0.7556
C36 C 0.2731(9) 0.0818(3) 0.7442(5)
C37 C 0.4026(9) 0.1240(3) 0.7351(5)
H19 H 0.5109 0.1100 0.7286
C38 C 0.3671(9) 0.1880(3) 0.7360(5)
H20 H 0.4527 0.2170 0.7314
C39 C 0.1667(9) 0.2776(3) 0.7501(4)
C40 C 0.3110(9) 0.0119(3) 0.7489(5)
C43 C 0.5777(10) 0.3472(4) 0.9976(4)
C44 C 0.6233(9) 0.3267(3) 0.9284(4)
C45 C 0.7265(10) 0.2744(4) 0.9213(4)
H23 H 0.7608 0.2610 0.8755
C46 C 0.7772(10) 0.2429(4) 0.9837(4)
H24 H 0.8433 0.2074 0.9790
C48 C 0.5525(9) 0.3597(3) 0.8631(3)
O28 O 0.8002(7) 0.4773(2) 0.7278(4)
O30 O 0.5471(6) 0.4953(2) 0.7710(3)
O31 O 0.7158(7) 0.2651(2) 0.6792(3)
O33 O 0.8952(6) 0.3148(2) 0.6103(3)
O19 O 0.1998(7) 0.9773(2) 0.7722(4)
O20 O 0.4529(6) 0.9953(2) 0.7290(3)
Tb16 Tb 0.64551(3) 0.919353(12) 0.750734(14)
H17 H 0.9680 0.1805 0.7584
H17_2 H 0.0320 0.6805 0.7416
O10 O 0.1618(7) 0.0342(3) 0.3201(3)
C18_2 C 0.0208(10) 0.0239(4) 0.4301(4)
C20_2 C 0.0415(10) 0.0534(4) 0.3565(4)
O25 O 0.0221(7) 0.2069(2) 0.2622(3)
O37 O 0.0936(6) 0.0865(2) 0.1707(2)
C17_2 C 0.1492(11) 0.9956(5) 0.4642(5)
H9_2 H 0.2506 0.9922 0.4403
O13_2 O 0.0607(10) 0.9064(3) 0.6624(3)
C27_2 C 0.1335(11) 0.9717(5) 0.5335(5)
H14_2 H 0.2237 0.9527 0.5562
Cl2_2 Cl 0.4428(2) 0.89819(11) 0.86815(9)
O17 O 0.9779(7) 0.7931(2) 0.7378(3)
O18_2 O 0.7114(7) 0.8151(2) 0.7553(5)
O23_2 O 0.5768(8) 0.8906(3) 0.6288(3)
O24_2 O 0.3814(6) 0.8535(2) 0.6987(3)
C33_2 C 0.7945(9) 0.7084(3) 0.7563(5)
C34_2 C 0.9240(9) 0.6661(3) 0.7478(6)
C35_2 C 0.8917(10) 0.6022(3) 0.7486(6)
H18_2 H 0.9779 0.5734 0.7444
C36_2 C 0.7269(9) 0.5818(3) 0.7558(5)
C37_2 C 0.5974(9) 0.6240(3) 0.7649(5)
H19_2 H 0.4891 0.6100 0.7714
C38_2 C 0.6329(9) 0.6880(3) 0.7640(5)
H20_2 H 0.5473 0.7170 0.7686
C39_2 C 0.8333(9) 0.7776(3) 0.7499(4)
C40_2 C 0.6890(9) 0.5119(3) 0.7511(5)
C41_2 C 0.2682(8) 0.7629(3) 0.4473(3)
C42_2 C 0.3679(10) 0.8156(4) 0.4407(4)
H21_2 H 0.3984 0.8298 0.3947
C43_2 C 0.4223(10) 0.8472(4) 0.5024(4)
H22_2 H 0.4897 0.8824 0.4975
C44_2 C 0.3767(9) 0.8267(3) 0.5716(4)
C45_2 C 0.2735(10) 0.7744(4) 0.5787(4)
H23_2 H 0.2392 0.7610 0.6245
C46_2 C 0.2228(10) 0.7429(4) 0.5163(4)
H24_2 H 0.1567 0.7074 0.5210
C47_2 C 0.2165(8) 0.7263(3) 0.3806(4)
C48_2 C 0.4475(9) 0.8597(3) 0.6369(3)
O36 O 0.8382(7) 0.9658(3) 0.6799(3)
O38 O 0.9064(6) 0.9135(2) 0.8293(2)
O40 O 0.7493(6) 0.9977(2) 0.8338(3)
Cl1_2 Cl 0.5572(2) 0.10181(11) 0.13185(9)
O2_2 O 0.2886(7) 0.1849(2) 0.2447(5)
O7_2 O 0.4232(8) 0.1094(3) 0.3712(3)
O8_2 O 0.6186(6) 0.1465(2) 0.3013(3)
O9_2 O 0.9393(10) 0.0936(3) 0.3376(3)
O12_2 O 0.2507(6) 0.0023(2) 0.1662(3)
C1_2 C 0.2055(9) 0.2916(3) 0.2437(5)
C2_2 C 0.0760(9) 0.3339(3) 0.2522(6)
C3_2 C 0.1083(10) 0.3978(3) 0.2514(6)
H2_2 H 0.0221 0.4266 0.2556
C4_2 C 0.2731(9) 0.4182(3) 0.2442(5)
C5_2 C 0.4026(9) 0.3760(3) 0.2351(5)
H3_2 H 0.5109 0.3900 0.2286
C6_2 C 0.3671(9) 0.3120(3) 0.2360(5)
H4_2 H 0.4527 0.2830 0.2314
C7_2 C 0.1667(9) 0.2224(3) 0.2501(4)
C8_2 C 0.3110(9) 0.4881(3) 0.2489(5)
C9_2 C 0.7318(8) 0.2371(3) 0.5527(3)
C10_2 C 0.6321(10) 0.1844(4) 0.5593(4)
H5_2 H 0.6016 0.1702 0.6053
C11_2 C 0.5777(10) 0.1528(4) 0.4976(4)
H6_2 H 0.5103 0.1176 0.5025
C12_2 C 0.6233(9) 0.1733(3) 0.4284(4)
C13_2 C 0.7265(10) 0.2256(4) 0.4213(4)
H7_2 H 0.7608 0.2390 0.3755
C14_2 C 0.7772(10) 0.2571(4) 0.4837(4)
H8_2 H 0.8433 0.2926 0.4790
C15_2 C 0.7835(8) 0.2737(3) 0.6194(4)
C16_2 C 0.5525(9) 0.1403(3) 0.3631(3)
C19_2 C 0.8665(11) 0.0283(5) 0.4665(5)
H10_2 H 0.7763 0.0473 0.4438
C22_2 C 0.0599(8) 0.0163(3) 0.0685(3)
C24_2 C 0.1375(8) 0.0346(3) 0.1393(3)
C25_2 C 0.8508(11) 0.0044(5) 0.5358(5)
H13_2 H 0.7494 0.0078 0.5597
C23_2 C 0.1038(10) 0.9595(4) 0.0373(4)
H12_2 H 0.1741 0.9323 0.0621
C26_2 C 0.9792(10) 0.9761(4) 0.5699(4)
C28_2 C 0.9585(10) 0.9466(4) 0.6435(4)
C29_2 C 0.0428(11) 0.9428(4) 0.9685(4)
H15_2 H 0.0712 0.9044 0.9479
H1_2 H 0.9680 0.3195 0.2584
C21_2 C 0.9572(11) 0.0572(4) 0.0315(4)
H11_2 H 0.9288 0.0956 0.0521
C31_2 C 0.8962(10) 0.0405(4) 0.9627(4)
H16_2 H 0.8259 0.0677 0.9379
C30_2 C 0.9401(8) 0.9837(3) 0.9315(3)
C32_2 C 0.8625(8) 0.9654(3) 0.8607(3)
loop_
_geom_bond_atom_site_label_1
_geom_bond_atom_site_label_2
_geom_bond_site_symmetry_1
_geom_bond_site_symmetry_2
C21 H11 1_555 1_555
O15 C32 1_555 1_555
O16 C32 1_555 1_555
C31 C21 1_555 1_555
H16 C31 1_555 1_555
C32 C30 1_555 1_555
Tb15 O15 1_555 1_555
O16 Tb15 1_555 1_555
C30 C31 1_555 1_555
Tb7 O3 1_555 1_555
Tb13 O4 1_555 1_555
Tb5 Cl1 1_555 1_555
Tb2 Cl1 1_555 1_555
O1 C7 1_555 1_555
O2 Tb2 1_555 1_555
O7 Tb2 1_555 1_555
O8 Tb5 1_555 1_555
O9 Tb5 1_555 1_555
O11 Tb2 1_555 1_555
O12 Tb2 1_555 1_555
C1 C2 1_555 1_555
C3 C2 1_555 1_555
H2 C3 1_555 1_555
C4 C3 1_555 1_555
C5 C4 1_555 1_555
H3 C5 1_555 1_555
C6 C1 1_555 1_555
H4 C6 1_555 1_555
C7 O2 1_555 1_555
C8 C4 1_555 1_555
C12 C11 1_555 1_555
C13 C12 1_555 1_555
H7 C13 1_555 1_555
H8 C14 1_555 1_555
C16 O7 1_555 1_555
H10 C19 1_555 1_555
C23 C22 1_555 1_555
H12 C23 1_555 1_555
C24 O11 1_555 1_555
C29 C23 1_555 1_555
H15 C29 1_555 1_555
O27 Tb5 1_555 1_555
O29 Tb2 1_555 1_555
O32 Tb5 1_555 1_555
O34 Tb5 1_555 1_555
O35 Tb2 1_555 1_555
Tb2 O8 1_555 1_555
O8 C16 1_555 1_555
O12 C24 1_555 1_555
C1 C7 1_555 1_555
C5 C6 1_555 1_555
C12 C16 1_555 1_555
C13 C14 1_555 1_555
C22 C24 1_555 1_555
O5 C15 1_555 1_555
O6 C15 1_555 1_555
C9 C10 1_555 1_555
C10 H5 1_555 1_555
C15 C9 1_555 1_555
O14 C28 1_555 1_555
H13 C25 1_555 1_555
C26 C25 1_555 1_555
C28 C26 1_555 1_555
Tb11 O5 1_555 1_555
Tb15 O14 1_555 1_555
O6 Tb11 1_555 1_555
O35 C20 1_555 1_555
C17 H9 1_555 1_555
C18 C17 1_555 1_555
O21 C47 1_555 1_555
O22 C47 1_555 1_555
C41 C42 1_555 1_555
C42 H21 1_555 1_555
C47 C41 1_555 1_555
Tb7 O21 1_555 1_555
C18 C20 1_555 1_555
O22 Tb7 1_555 1_555
H14 C27 1_555 1_555
Tb9 O13 1_555 1_555
Tb15 Cl2 1_555 1_555
Cl2 Tb9 1_555 1_555
O26 C39 1_555 1_555
O18 Tb15 1_555 1_555
O23 Tb15 1_555 1_555
O24 Tb9 1_555 1_555
C33 C34 1_555 1_555
C35 C34 1_555 1_555
H18 C35 1_555 1_555
C36 C35 1_555 1_555
C37 C36 1_555 1_555
H19 C37 1_555 1_555
C38 C33 1_555 1_555
H20 C38 1_555 1_555
C39 O18 1_555 1_555
C40 C36 1_555 1_555
C44 C43 1_555 1_555
C45 C44 1_555 1_555
H23 C45 1_555 1_555
H24 C46 1_555 1_555
C48 O23 1_555 1_555
O28 Tb9 1_555 1_555
O30 Tb15 1_555 1_555
O31 Tb9 1_555 1_555
O33 Tb9 1_555 1_555
Tb15 O24 1_555 1_555
O24 C48 1_555 1_555
C33 C39 1_555 1_555
C37 C38 1_555 1_555
C44 C48 1_555 1_555
C45 C46 1_555 1_555
Tb11 O19 1_555 1_555
Tb16 O20 1_555 1_555
O10 C20_2 1_555 1_555
Tb13 O10 1_555 1_555
C18_2 C20_2 1_555 1_555
Tb13 O37 1_555 1_555
C17_2 H9_2 1_555 1_555
C27_2 C17_2 1_555 1_555
H14_2 C27_2 1_555 1_555
Tb11 O13_2 1_555 1_555
Tb16 Cl2_2 1_555 1_555
Cl2_2 Tb11 1_555 1_555
O17 C39_2 1_555 1_555
O18_2 Tb16 1_555 1_555
O28 C40_2 1_555 1_555
O30 C40_2 1_555 1_555
O32 C47_2 1_555 1_555
O34 C47_2 1_555 1_555
O23_2 Tb16 1_555 1_555
O24_2 Tb11 1_555 1_555
C33_2 C34_2 1_555 1_555
C35_2 C34_2 1_555 1_555
H18_2 C35_2 1_555 1_555
C36_2 C35_2 1_555 1_555
C37_2 C36_2 1_555 1_555
H19_2 C37_2 1_555 1_555
C38_2 C33_2 1_555 1_555
H20_2 C38_2 1_555 1_555
C39_2 O18_2 1_555 1_555
C40_2 C36_2 1_555 1_555
C41_2 C42_2 1_555 1_555
C42_2 H21_2 1_555 1_555
C43_2 C42_2 1_555 1_555
H22_2 C43_2 1_555 1_555
C44_2 C43_2 1_555 1_555
C45_2 C44_2 1_555 1_555
H23_2 C45_2 1_555 1_555
C46_2 C41_2 1_555 1_555
H24_2 C46_2 1_555 1_555
C47_2 C41_2 1_555 1_555
C48_2 O23_2 1_555 1_555
O36 Tb16 1_555 1_555
O38 Tb16 1_555 1_555
O40 Tb16 1_555 1_555
Tb16 O24_2 1_555 1_555
O24_2 C48_2 1_555 1_555
C33_2 C39_2 1_555 1_555
C37_2 C38_2 1_555 1_555
C44_2 C48_2 1_555 1_555
C45_2 C46_2 1_555 1_555
Tb7 Cl1_2 1_555 1_555
Tb13 Cl1_2 1_555 1_555
O25 C7_2 1_555 1_555
O2_2 Tb13 1_555 1_555
O27 C8_2 1_555 1_555
O29 C8_2 1_555 1_555
O31 C15_2 1_555 1_555
O33 C15_2 1_555 1_555
O7_2 Tb13 1_555 1_555
O8_2 Tb7 1_555 1_555
O9_2 Tb7 1_555 1_555
O12_2 Tb13 1_555 1_555
C1_2 C2_2 1_555 1_555
C3_2 C2_2 1_555 1_555
H2_2 C3_2 1_555 1_555
C4_2 C3_2 1_555 1_555
C5_2 C4_2 1_555 1_555
H3_2 C5_2 1_555 1_555
C6_2 C1_2 1_555 1_555
H4_2 C6_2 1_555 1_555
C7_2 O2_2 1_555 1_555
C8_2 C4_2 1_555 1_555
C9_2 C10_2 1_555 1_555
C10_2 H5_2 1_555 1_555
C11_2 C10_2 1_555 1_555
H6_2 C11_2 1_555 1_555
C12_2 C11_2 1_555 1_555
C13_2 C12_2 1_555 1_555
H7_2 C13_2 1_555 1_555
C14_2 C9_2 1_555 1_555
H8_2 C14_2 1_555 1_555
C15_2 C9_2 1_555 1_555
C16_2 O7_2 1_555 1_555
H10_2 C19_2 1_555 1_555
C24_2 O37 1_555 1_555
C25_2 C19_2 1_555 1_555
H13_2 C25_2 1_555 1_555
Tb13 O8_2 1_555 1_555
O8_2 C16_2 1_555 1_555
O12_2 C24_2 1_555 1_555
C1_2 C7_2 1_555 1_555
C5_2 C6_2 1_555 1_555
C12_2 C16_2 1_555 1_555
C13_2 C14_2 1_555 1_555
C22_2 C24_2 1_555 1_555
H12_2 C23_2 1_555 1_555
O36 C28_2 1_555 1_555
C28_2 C26_2 1_555 1_555
H15_2 C29_2 1_555 1_555
C21_2 H11_2 1_555 1_555
H16_2 C31_2 1_555 1_555
O38 C32_2 1_555 1_555
O40 C32_2 1_555 1_555
C32_2 C30_2 1_555 1_555

#END
