
###############################################################################
#
# This file contains modified crystal structure data generated from the
# MOF subset of the Cambridge Structural Database (CSD) v543 
# hosted by the Cambridge Crystallographic Data Centre (CCDC).
#
# This work is licensed under the Creative Commons
# Attribution-NonCommercial-ShareAlike 4.0 International License.
# To view a copy of this license, visit
# http://creativecommons.org/licenses/by-nc-sa/4.0/
# or send a letter to
# Creative Commons, PO Box 1866, Mountain View, CA 94042, USA.
#
# CIF created using the CSD Python API on 29 September 2022
# The structure has been converted into the P1 space group
# The structure has a 3D framework
# The original CSD entry YIXFOC is in the monoclinic crystal system
# The framework has been calculated to contain at least 10.0% void space
# The void calculation uses a probe of radius 1.32A, grid spacing 0.4
# The framework is charged, counterions have been retained in the structure
#
###############################################################################

data_YIXFOC
_chemical_formula_moiety         '(C96 H48 Cl4 Eu8 O48 4-)n'
_symmetry_cell_setting           triclinic
_symmetry_space_group_name_H-M   'P 1'
_symmetry_Int_Tables_number      1
_space_group_name_Hall           'P 1'
loop_
_symmetry_equiv_pos_site_id
_symmetry_equiv_pos_as_xyz
1 x,y,z
_cell_length_a                   8.0556(3)
_cell_length_b                   21.4095(6)
_cell_length_c                   18.3825(6)
_cell_angle_alpha                90
_cell_angle_beta                 90.208(2)
_cell_angle_gamma                90
_cell_volume                     3170.34
loop_
_atom_site_label
_atom_site_type_symbol
_atom_site_fract_x
_atom_site_fract_y
_atom_site_fract_z
C21 C 0.0408(10) 0.5573(3) 0.4687(4)
H11 H 0.0677 0.5959 0.4486
O15 O 0.0965(6) 0.4152(2) 0.6708(2)
O16 O 0.2543(6) 0.4987(2) 0.6652(3)
C30 C 0.0618(8) 0.4839(3) 0.5687(3)
C31 C 0.1033(10) 0.5402(4) 0.5371(4)
H16 H 0.1741 0.5673 0.5617
C32 C 0.1403(7) 0.4663(3) 0.6388(3)
Eu5 Eu 0.15201(3) 0.631619(12) 0.275405(15)
Eu12 Eu 0.35566(3) 0.418842(12) 0.749684(14)
Eu2 Eu 0.64434(3) 0.581158(12) 0.250316(14)
Cl1 Cl 0.4330(2) 0.59927(10) 0.36704(9)
O1 O 0.0322(7) 0.2075(2) 0.2643(3)
O2 O 0.2940(8) 0.1867(2) 0.2369(4)
O3 O 0.1936(7) 0.5225(2) 0.2656(5)
O4 O 0.4500(6) 0.5061(2) 0.2248(3)
O7 O 0.5805(7) 0.6144(3) 0.1279(3)
O8 O 0.3793(6) 0.6473(2) 0.1964(2)
O9 O 0.0453(13) 0.5950(3) 0.1613(3)
O11 O 0.9035(6) 0.5848(2) 0.3292(2)
O12 O 0.7457(6) 0.5013(2) 0.3348(3)
C1 C 0.2085(9) 0.2930(3) 0.2401(4)
C2 C 0.0777(9) 0.3337(3) 0.2461(5)
C3 C 0.1097(9) 0.3980(3) 0.2446(6)
H2 H 0.0227 0.4264 0.2477
C4 C 0.2720(9) 0.4192(3) 0.2387(5)
C5 C 0.4033(9) 0.3769(3) 0.2318(5)
H3 H 0.5115 0.3913 0.2263
C6 C 0.3709(9) 0.3130(3) 0.2331(4)
H4 H 0.4570 0.2843 0.2293
C7 C 0.1735(9) 0.2237(3) 0.2474(4)
C8 C 0.3073(8) 0.4884(3) 0.2437(4)
C11 C 0.4205(9) 0.6542(3) 0.0011(4)
C12 C 0.3788(8) 0.6758(3) 0.0702(3)
C13 C 0.2772(10) 0.7285(3) 0.0775(4)
H7 H 0.2462 0.7426 0.1233
C14 C 0.2239(10) 0.7593(4) 0.0154(4)
H8 H 0.1586 0.7949 0.0199
C16 C 0.4510(8) 0.6435(3) 0.1354(3)
C19 C 0.1271(13) 0.5323(6) 0.0337(5)
H10 H 0.2138 0.5533 0.0566
C22 C 0.9382(8) 0.5161(3) 0.4313(3)
C23 C 0.8967(10) 0.4598(4) 0.4629(4)
H12 H 0.8259 0.4327 0.4383
C24 C 0.8597(7) 0.5337(3) 0.3612(3)
C29 C 0.9592(10) 0.4427(3) 0.5313(4)
H15 H 0.9323 0.4041 0.5514
Eu7 Eu 0.84799(3) 0.368381(12) 0.724595(15)
Eu10 Eu 0.35566(3) 0.081158(12) 0.249684(14)
O27 O 0.7060(8) 0.6867(2) 0.2631(4)
O30 O 0.2774(6) 0.7350(2) 0.3200(3)
O32 O 0.0968(6) 0.6858(2) 0.3883(3)
O33 O 0.8335(8) 0.5312(4) 0.1787(3)
O5 O 0.2774(6) 0.7650(2) 0.8200(3)
O6 O 0.0968(6) 0.8142(2) 0.8883(3)
C9 C 0.2663(8) 0.7379(3) 0.9462(3)
C10 C 0.3631(9) 0.6854(3) 0.9398(3)
H5 H 0.3905 0.6706 0.8939
H6 H 0.4868 0.6189 0.9960
C15 C 0.2111(8) 0.7741(3) 0.8799(3)
O14 O 0.1665(8) 0.4688(4) 0.8213(3)
C25 C 0.1462(11) 0.5088(6) 0.9642(5)
H13 H 0.2454 0.5157 0.9397
C26 C 0.0246(9) 0.4762(3) 0.9308(4)
C28 C 0.0529(12) 0.4481(4) 0.8575(4)
H17 H 0.0302 0.6812 0.7490
Eu8 Eu 0.15201(3) 0.868381(12) 0.775405(15)
O26 O 0.0322(7) 0.2925(2) 0.7643(3)
H1 H 0.9698 0.3188 0.2510
C17 C 0.8538(11) 0.4912(6) 0.0358(5)
H9 H 0.7546 0.4843 0.0603
C18 C 0.9754(9) 0.5238(3) 0.0692(4)
C20 C 0.9471(12) 0.5519(4) 0.1425(4)
O21 O 0.7226(6) 0.2350(2) 0.1800(3)
O22 O 0.9032(6) 0.1858(2) 0.1117(3)
C41 C 0.7337(8) 0.2621(3) 0.0538(3)
C42 C 0.6369(9) 0.3146(3) 0.0602(3)
H21 H 0.6095 0.3294 0.1061
H22 H 0.5132 0.3811 0.0040
C47 C 0.7889(8) 0.2259(3) 0.1201(3)
Eu6 Eu 0.84799(3) 0.131619(12) 0.224595(15)
O25 O 0.9678(7) 0.7075(2) 0.2357(3)
O13 O 0.9547(13) 0.4050(3) 0.8387(3)
C27 C 0.8729(13) 0.4677(6) 0.9663(5)
H14 H 0.7862 0.4467 0.9434
Cl2 Cl 0.5670(2) 0.40073(10) 0.63296(9)
O17 O 0.9678(7) 0.7925(2) 0.7357(3)
O18 O 0.7060(8) 0.8133(2) 0.7631(4)
O19 O 0.8064(7) 0.4775(2) 0.7344(5)
O20 O 0.5500(6) 0.4939(2) 0.7752(3)
O23 O 0.4195(7) 0.3856(3) 0.8721(3)
O24 O 0.6207(6) 0.3527(2) 0.8036(2)
C33 C 0.7915(9) 0.7070(3) 0.7599(4)
C34 C 0.9223(9) 0.6663(3) 0.7539(5)
C35 C 0.8903(9) 0.6020(3) 0.7554(6)
H18 H 0.9773 0.5736 0.7523
C36 C 0.7280(9) 0.5808(3) 0.7613(5)
C37 C 0.5967(9) 0.6231(3) 0.7682(5)
H19 H 0.4885 0.6087 0.7737
C38 C 0.6291(9) 0.6870(3) 0.7669(4)
H20 H 0.5430 0.7157 0.7707
C39 C 0.8265(9) 0.7763(3) 0.7526(4)
C40 C 0.6927(8) 0.5116(3) 0.7563(4)
C43 C 0.5795(9) 0.3458(3) 0.9989(4)
C44 C 0.6212(8) 0.3242(3) 0.9298(3)
C45 C 0.7228(10) 0.2715(3) 0.9225(4)
H23 H 0.7538 0.2574 0.8767
C46 C 0.7761(10) 0.2407(4) 0.9846(4)
H24 H 0.8414 0.2051 0.9801
C48 C 0.5490(8) 0.3565(3) 0.8646(3)
Eu13 Eu 0.64434(3) 0.918842(12) 0.750316(14)
O28 O 0.2940(8) 0.3133(2) 0.7369(4)
O29 O 0.7226(6) 0.2650(2) 0.6800(3)
O31 O 0.9032(6) 0.3142(2) 0.6117(3)
O10 O 0.1665(8) 0.0312(4) 0.3213(3)
C18_2 C 0.0246(9) 0.0238(3) 0.4308(4)
C20_2 C 0.0529(12) 0.0519(4) 0.3575(4)
C33_2 C 0.2085(9) 0.2070(3) 0.7401(4)
C34_2 C 0.0777(9) 0.1663(3) 0.7461(5)
C35_2 C 0.1097(9) 0.1020(3) 0.7446(6)
H18_2 H 0.0227 0.0736 0.7477
C36_2 C 0.2720(9) 0.0808(3) 0.7387(5)
C37_2 C 0.4033(9) 0.1231(3) 0.7318(5)
H19_2 H 0.5115 0.1087 0.7263
C38_2 C 0.3709(9) 0.1870(3) 0.7331(4)
H20_2 H 0.4570 0.2157 0.7293
C39_2 C 0.1735(9) 0.2763(3) 0.7474(4)
C40_2 C 0.3073(8) 0.0116(3) 0.7437(4)
O35 O 0.0965(6) 0.0848(2) 0.1708(2)
H1_2 H 0.0302 0.8188 0.2490
C17_2 C 0.1462(11) 0.9912(6) 0.4642(5)
H9_2 H 0.2454 0.9843 0.4397
O13_2 O 0.0453(13) 0.9050(3) 0.6613(3)
C27_2 C 0.1271(13) 0.9677(6) 0.5337(5)
H14_2 H 0.2138 0.9467 0.5566
Cl2_2 Cl 0.4330(2) 0.90073(10) 0.86704(9)
O19_2 O 0.1936(7) 0.9775(2) 0.7656(5)
O20_2 O 0.4500(6) 0.9939(2) 0.7248(3)
O23_2 O 0.5805(7) 0.8856(3) 0.6279(3)
O24_2 O 0.3793(6) 0.8527(2) 0.6964(2)
C41_2 C 0.2663(8) 0.7621(3) 0.4462(3)
C42_2 C 0.3631(9) 0.8146(3) 0.4398(3)
H21_2 H 0.3905 0.8294 0.3939
C43_2 C 0.4205(9) 0.8458(3) 0.5011(4)
H22_2 H 0.4868 0.8811 0.4960
C44_2 C 0.3788(8) 0.8242(3) 0.5702(3)
C45_2 C 0.2772(10) 0.7715(3) 0.5775(4)
H23_2 H 0.2462 0.7574 0.6233
C46_2 C 0.2239(10) 0.7407(4) 0.5154(4)
H24_2 H 0.1586 0.7051 0.5199
C47_2 C 0.2111(8) 0.7259(3) 0.3799(3)
C48_2 C 0.4510(8) 0.8565(3) 0.6354(3)
O34 O 0.8335(8) 0.9688(4) 0.6787(3)
O36 O 0.9035(6) 0.9152(2) 0.8292(2)
O38 O 0.7457(6) 0.9987(2) 0.8348(3)
Cl1_2 Cl 0.5670(2) 0.09927(10) 0.13296(9)
O3_2 O 0.8064(7) 0.0225(2) 0.2344(5)
O4_2 O 0.5500(6) 0.0061(2) 0.2752(3)
O7_2 O 0.4195(7) 0.1144(3) 0.3721(3)
O8_2 O 0.6207(6) 0.1473(2) 0.3036(2)
O9_2 O 0.9547(13) 0.0950(3) 0.3387(3)
O12_2 O 0.2543(6) 0.0013(2) 0.1652(3)
C9_2 C 0.7337(8) 0.2379(3) 0.5538(3)
C10_2 C 0.6369(9) 0.1854(3) 0.5602(3)
H5_2 H 0.6095 0.1706 0.6061
C11_2 C 0.5795(9) 0.1542(3) 0.4989(4)
H6_2 H 0.5132 0.1189 0.5040
C12_2 C 0.6212(8) 0.1758(3) 0.4298(3)
C13_2 C 0.7228(10) 0.2285(3) 0.4225(4)
H7_2 H 0.7538 0.2426 0.3767
C14_2 C 0.7761(10) 0.2593(4) 0.4846(4)
H8_2 H 0.8414 0.2949 0.4801
C15_2 C 0.7889(8) 0.2741(3) 0.6201(3)
C16_2 C 0.5490(8) 0.1435(3) 0.3646(3)
C19_2 C 0.8729(13) 0.0323(6) 0.4663(5)
H10_2 H 0.7862 0.0533 0.4434
C22_2 C 0.0618(8) 0.0161(3) 0.0687(3)
C24_2 C 0.1403(7) 0.0337(3) 0.1388(3)
C25_2 C 0.8538(11) 0.0088(6) 0.5358(5)
H13_2 H 0.7546 0.0157 0.5603
H17_2 H 0.9698 0.1812 0.7510
C1_2 C 0.7915(9) 0.7930(3) 0.2599(4)
C2_2 C 0.9223(9) 0.8337(3) 0.2539(5)
C3_2 C 0.8903(9) 0.8980(3) 0.2554(6)
H2_2 H 0.9773 0.9264 0.2523
C4_2 C 0.7280(9) 0.9192(3) 0.2613(5)
C5_2 C 0.5967(9) 0.8769(3) 0.2682(5)
H3_2 H 0.4885 0.8913 0.2737
C6_2 C 0.6291(9) 0.8130(3) 0.2669(4)
H4_2 H 0.5430 0.7843 0.2707
C7_2 C 0.8265(9) 0.7237(3) 0.2526(4)
C8_2 C 0.6927(8) 0.9884(3) 0.2563(4)
C23_2 C 0.1033(10) 0.9598(4) 0.0371(4)
H12_2 H 0.1741 0.9327 0.0617
C26_2 C 0.9754(9) 0.9762(3) 0.5692(4)
C28_2 C 0.9471(12) 0.9481(4) 0.6425(4)
C29_2 C 0.0408(10) 0.9427(3) 0.9687(4)
H15_2 H 0.0677 0.9041 0.9486
C21_2 C 0.9592(10) 0.0573(3) 0.0313(4)
H11_2 H 0.9323 0.0959 0.0514
C31_2 C 0.8967(10) 0.0402(4) 0.9629(4)
H16_2 H 0.8259 0.0673 0.9383
C30_2 C 0.9382(8) 0.9839(3) 0.9313(3)
C32_2 C 0.8597(7) 0.9663(3) 0.8612(3)
loop_
_geom_bond_atom_site_label_1
_geom_bond_atom_site_label_2
_geom_bond_site_symmetry_1
_geom_bond_site_symmetry_2
C21 H11 1_555 1_555
O15 C32 1_555 1_555
O16 C32 1_555 1_555
C31 C21 1_555 1_555
H16 C31 1_555 1_555
C32 C30 1_555 1_555
Eu12 O15 1_555 1_555
O16 Eu12 1_555 1_555
C30 C31 1_555 1_555
Eu5 Cl1 1_555 1_555
Eu2 Cl1 1_555 1_555
O1 C7 1_555 1_555
O2 C7 1_555 1_555
O3 Eu5 1_555 1_555
O4 Eu2 1_555 1_555
O7 Eu2 1_555 1_555
O8 Eu5 1_555 1_555
O9 Eu5 1_555 1_555
O11 Eu2 1_555 1_555
O12 Eu2 1_555 1_555
C1 C2 1_555 1_555
C3 C2 1_555 1_555
H2 C3 1_555 1_555
C4 C3 1_555 1_555
C5 C4 1_555 1_555
H3 C5 1_555 1_555
C6 C1 1_555 1_555
H4 C6 1_555 1_555
C7 C1 1_555 1_555
C8 O3 1_555 1_555
C12 C11 1_555 1_555
C13 C12 1_555 1_555
H7 C13 1_555 1_555
H8 C14 1_555 1_555
C16 O7 1_555 1_555
H10 C19 1_555 1_555
C23 C22 1_555 1_555
H12 C23 1_555 1_555
C24 O11 1_555 1_555
C29 C23 1_555 1_555
H15 C29 1_555 1_555
Eu10 O2 1_555 1_555
O27 Eu2 1_555 1_555
O30 Eu5 1_555 1_555
O32 Eu5 1_555 1_555
O33 Eu2 1_555 1_555
Eu2 O8 1_555 1_555
O4 C8 1_555 1_555
O8 C16 1_555 1_555
O12 C24 1_555 1_555
C4 C8 1_555 1_555
C5 C6 1_555 1_555
C12 C16 1_555 1_555
C13 C14 1_555 1_555
C22 C24 1_555 1_555
O5 C15 1_555 1_555
O6 C15 1_555 1_555
C9 C10 1_555 1_555
C10 H5 1_555 1_555
C15 C9 1_555 1_555
O14 C28 1_555 1_555
H13 C25 1_555 1_555
C26 C25 1_555 1_555
C28 C26 1_555 1_555
Eu8 O5 1_555 1_555
Eu12 O14 1_555 1_555
O6 Eu8 1_555 1_555
O33 C20 1_555 1_555
C17 H9 1_555 1_555
C18 C17 1_555 1_555
O21 C47 1_555 1_555
O22 C47 1_555 1_555
C41 C42 1_555 1_555
C42 H21 1_555 1_555
C47 C41 1_555 1_555
C18 C20 1_555 1_555
O21 Eu6 1_555 1_555
O22 Eu6 1_555 1_555
H14 C27 1_555 1_555
Eu7 O13 1_555 1_555
Eu12 Cl2 1_555 1_555
Cl2 Eu7 1_555 1_555
O17 C39 1_555 1_555
O18 C39 1_555 1_555
O19 Eu7 1_555 1_555
O20 Eu12 1_555 1_555
O23 Eu12 1_555 1_555
O24 Eu7 1_555 1_555
C33 C34 1_555 1_555
C35 C34 1_555 1_555
H18 C35 1_555 1_555
C36 C35 1_555 1_555
C37 C36 1_555 1_555
H19 C37 1_555 1_555
C38 C33 1_555 1_555
H20 C38 1_555 1_555
C39 C33 1_555 1_555
C40 O19 1_555 1_555
C44 C43 1_555 1_555
C45 C44 1_555 1_555
H23 C45 1_555 1_555
H24 C46 1_555 1_555
C48 O23 1_555 1_555
Eu13 O18 1_555 1_555
O28 Eu12 1_555 1_555
O29 Eu7 1_555 1_555
O31 Eu7 1_555 1_555
Eu12 O24 1_555 1_555
O20 C40 1_555 1_555
O24 C48 1_555 1_555
C36 C40 1_555 1_555
C37 C38 1_555 1_555
C44 C48 1_555 1_555
C45 C46 1_555 1_555
O10 C20_2 1_555 1_555
O26 C39_2 1_555 1_555
O28 C39_2 1_555 1_555
C33_2 C34_2 1_555 1_555
C35_2 C34_2 1_555 1_555
H18_2 C35_2 1_555 1_555
C36_2 C35_2 1_555 1_555
C37_2 C36_2 1_555 1_555
H19_2 C37_2 1_555 1_555
C38_2 C33_2 1_555 1_555
H20_2 C38_2 1_555 1_555
C39_2 C33_2 1_555 1_555
Eu10 O10 1_555 1_555
C18_2 C20_2 1_555 1_555
C36_2 C40_2 1_555 1_555
C37_2 C38_2 1_555 1_555
Eu10 O35 1_555 1_555
C17_2 H9_2 1_555 1_555
C27_2 C17_2 1_555 1_555
H14_2 C27_2 1_555 1_555
Eu8 O13_2 1_555 1_555
Eu13 Cl2_2 1_555 1_555
Cl2_2 Eu8 1_555 1_555
O19_2 Eu8 1_555 1_555
O20_2 Eu13 1_555 1_555
O30 C47_2 1_555 1_555
O32 C47_2 1_555 1_555
O23_2 Eu13 1_555 1_555
O24_2 Eu8 1_555 1_555
C41_2 C42_2 1_555 1_555
C42_2 H21_2 1_555 1_555
C43_2 C42_2 1_555 1_555
H22_2 C43_2 1_555 1_555
C44_2 C43_2 1_555 1_555
C45_2 C44_2 1_555 1_555
H23_2 C45_2 1_555 1_555
C46_2 C41_2 1_555 1_555
H24_2 C46_2 1_555 1_555
C47_2 C41_2 1_555 1_555
C48_2 O23_2 1_555 1_555
O34 Eu13 1_555 1_555
O36 Eu13 1_555 1_555
O38 Eu13 1_555 1_555
Eu13 O24_2 1_555 1_555
O24_2 C48_2 1_555 1_555
C44_2 C48_2 1_555 1_555
C45_2 C46_2 1_555 1_555
Eu6 Cl1_2 1_555 1_555
Eu10 Cl1_2 1_555 1_555
O3_2 Eu6 1_555 1_555
O4_2 Eu10 1_555 1_555
O29 C15_2 1_555 1_555
O31 C15_2 1_555 1_555
O7_2 Eu10 1_555 1_555
O8_2 Eu6 1_555 1_555
O9_2 Eu6 1_555 1_555
O12_2 Eu10 1_555 1_555
C9_2 C10_2 1_555 1_555
C10_2 H5_2 1_555 1_555
C11_2 C10_2 1_555 1_555
H6_2 C11_2 1_555 1_555
C12_2 C11_2 1_555 1_555
C13_2 C12_2 1_555 1_555
H7_2 C13_2 1_555 1_555
C14_2 C9_2 1_555 1_555
H8_2 C14_2 1_555 1_555
C15_2 C9_2 1_555 1_555
C16_2 O7_2 1_555 1_555
H10_2 C19_2 1_555 1_555
C24_2 O35 1_555 1_555
C25_2 C19_2 1_555 1_555
H13_2 C25_2 1_555 1_555
Eu10 O8_2 1_555 1_555
O8_2 C16_2 1_555 1_555
O12_2 C24_2 1_555 1_555
C12_2 C16_2 1_555 1_555
C13_2 C14_2 1_555 1_555
C22_2 C24_2 1_555 1_555
O25 C7_2 1_555 1_555
O27 C7_2 1_555 1_555
C1_2 C2_2 1_555 1_555
C3_2 C2_2 1_555 1_555
H2_2 C3_2 1_555 1_555
C4_2 C3_2 1_555 1_555
C5_2 C4_2 1_555 1_555
H3_2 C5_2 1_555 1_555
C6_2 C1_2 1_555 1_555
H4_2 C6_2 1_555 1_555
C7_2 C1_2 1_555 1_555
H12_2 C23_2 1_555 1_555
O34 C28_2 1_555 1_555
C28_2 C26_2 1_555 1_555
C4_2 C8_2 1_555 1_555
C5_2 C6_2 1_555 1_555
H15_2 C29_2 1_555 1_555
C21_2 H11_2 1_555 1_555
H16_2 C31_2 1_555 1_555
O36 C32_2 1_555 1_555
O38 C32_2 1_555 1_555
C32_2 C30_2 1_555 1_555

#END
