
###############################################################################
#
# This file contains modified crystal structure data generated from the
# MOF subset of the Cambridge Structural Database (CSD) v543 
# hosted by the Cambridge Crystallographic Data Centre (CCDC).
#
# This work is licensed under the Creative Commons
# Attribution-NonCommercial-ShareAlike 4.0 International License.
# To view a copy of this license, visit
# http://creativecommons.org/licenses/by-nc-sa/4.0/
# or send a letter to
# Creative Commons, PO Box 1866, Mountain View, CA 94042, USA.
#
# CIF created using the CSD Python API on 29 September 2022
# The structure has been converted into the P1 space group
# The structure has a 3D framework
# The original CSD entry YIXHAR is in the orthorhombic crystal system
# The framework has been calculated to contain at least 10.0% void space
# The void calculation uses a probe of radius 1.32A, grid spacing 0.4
# The framework is charged, counterions have been retained in the structure
#
###############################################################################

data_YIXHAR
_chemical_formula_moiety         '(C136 H96 Ag6 B8 F32 N48 2-)n'
_symmetry_cell_setting           triclinic
_symmetry_space_group_name_H-M   'P 1'
_symmetry_Int_Tables_number      1
_space_group_name_Hall           'P 1'
loop_
_symmetry_equiv_pos_site_id
_symmetry_equiv_pos_as_xyz
1 x,y,z
_cell_length_a                   17.655(11)
_cell_length_b                   14.231(8)
_cell_length_c                   16.330(10)
_cell_angle_alpha                90
_cell_angle_beta                 90
_cell_angle_gamma                90
_cell_volume                     4102.88
loop_
_atom_site_label
_atom_site_type_symbol
_atom_site_fract_x
_atom_site_fract_y
_atom_site_fract_z
H22 H 0.0501 0.4798 0.5858
Ag4 Ag 0.06692(4) 0.45840(4) 0.78287(5)
N16 N 0.7023(4) 0.0919(4) 0.1455(4)
Ag1 Ag 0.56692(4) 0.54160(4) 0.78287(5)
N1 N 0.5649(4) 0.3966(4) 0.8431(4)
N2 N 0.5941(4) 0.0904(4) 0.9923(5)
N4 N 0.5738(4) 0.0360(4) 0.8701(4)
N6 N 0.4802(4) 0.0418(5) 0.6730(5)
N7 N 0.8002(4) 0.8071(4) 0.6459(5)
N8 N 0.6606(4) 0.4962(4) 0.6836(5)
N9 N 0.6615(4) 0.3997(4) 0.6796(5)
N10 N 0.7753(4) 0.4514(4) 0.6563(5)
N11 N 0.7977(4) 0.0919(4) 0.6455(4)
N12 N 0.9799(4) 0.4538(5) 0.6758(5)
C1 C 0.6366(5) 0.2653(6) 0.8855(6)
H1 H 0.6839 0.2404 0.8980
C2 C 0.6293(5) 0.3568(6) 0.8622(6)
H2 H 0.6729 0.3933 0.8597
C3 C 0.5038(5) 0.3445(6) 0.8485(7)
H3 H 0.4573 0.3720 0.8364
C4 C 0.5047(6) 0.2525(6) 0.8707(7)
H4 H 0.4601 0.2178 0.8729
C5 C 0.5736(5) 0.2114(5) 0.8900(5)
C6 C 0.5789(4) 0.1135(5) 0.9176(5)
C13 C 0.5641(4) 0.0319(5) 0.7829(9)
C14 C 0.6241(5) 0.0123(7) 0.7342(6)
H9 H 0.6725 0.0028 0.7552
C15 C 0.6089(6) 0.0075(8) 0.6520(6)
C16 C 0.5377(6) 0.0223(6) 0.6248(7)
H11 H 0.5288 0.0184 0.5687
C17 C 0.4931(5) 0.0464(5) 0.7527(5)
H12 H 0.4535 0.0597 0.7884
C18 C 0.8074(7) 0.6599(7) 0.7122(8)
H13 H 0.8294 0.6233 0.7529
C19 C 0.8304(7) 0.7511(6) 0.7006(8)
H14 H 0.8693 0.7743 0.7333
C20 C 0.7460(6) 0.7721(6) 0.6013(7)
H15 H 0.7222 0.8110 0.5634
C21 C 0.7223(6) 0.6808(6) 0.6076(8)
H16 H 0.6850 0.6583 0.5726
C22 C 0.7526(4) 0.6238(5) 0.6639(5)
C23 C 0.7286(4) 0.5262(5) 0.6696(5)
C24 C 0.7297(4) 0.3751(5) 0.6637(5)
C25 C 0.7555(4) 0.2765(5) 0.6564(5)
C26 C 0.7401(5) 0.2264(6) 0.5888(6)
H17 H 0.7147 0.2537 0.5449
C27 C 0.7623(5) 0.1351(6) 0.5858(6)
H18 H 0.7518 0.1011 0.5385
C28 C 0.8116(5) 0.1412(6) 0.7128(6)
H19 H 0.8359 0.1121 0.7565
C29 C 0.7916(5) 0.2331(6) 0.7198(5)
H20 H 0.8024 0.2662 0.7675
C30 C 0.8530(4) 0.4557(4) 0.6321(9)
C31 C 0.9072(5) 0.4450(6) 0.6903(6)
H21 H 0.8919 0.4308 0.7434
C32 C 0.9990(5) 0.4732(7) 0.5983(6)
C33 C 0.9478(6) 0.4839(8) 0.5369(6)
H23 H 0.9637 0.4972 0.4838
C34 C 0.8733(5) 0.4747(7) 0.5544(6)
H24 H 0.8368 0.4814 0.5137
Ag5 Ag 0.35269(4) 0.05317(4) 0.62293(5)
Ag7 Ag 0.85269(4) 0.94683(4) 0.62293(5)
N13 N 0.5777(4) 0.6805(5) 0.8457(5)
N17 N 0.4799(4) 0.5462(5) 0.6758(5)
Ag2 Ag 0.64731(4) 0.94683(4) 0.12293(5)
N14 N 0.5198(4) 0.9582(5) 0.1730(5)
N15 N 0.6998(4) 0.8071(4) 0.1459(5)
N3 N 0.6001(4) 0.9938(4) 0.9943(5)
C7 C 0.5891(5) 0.9623(5) 0.9208(5)
C8 C 0.5859(5) 0.8644(5) 0.8953(5)
C9 C 0.5204(6) 0.8251(6) 0.8710(8)
H5 H 0.4767 0.8615 0.8706
C10 C 0.5163(6) 0.7354(7) 0.8473(10)
H6 H 0.4698 0.7107 0.8317
C11 C 0.6399(6) 0.7180(6) 0.8712(8)
H7 H 0.6828 0.6801 0.8726
C12 C 0.6476(6) 0.8087(7) 0.8962(8)
H8 H 0.6943 0.8317 0.9135
H10 H 0.6475 0.9942 0.6150
N3_2 N 0.3999(4) 0.0062(4) 0.4943(5)
N5 N 0.4223(4) 0.3195(5) 0.3457(5)
C7_2 C 0.4109(5) 0.0377(5) 0.4208(5)
C8_2 C 0.4141(5) 0.1356(5) 0.3953(5)
C9_2 C 0.4796(6) 0.1749(6) 0.3710(8)
H5_2 H 0.5233 0.1385 0.3706
C10_2 C 0.4837(6) 0.2646(7) 0.3473(10)
H6_2 H 0.5302 0.2893 0.3317
C11_2 C 0.3601(6) 0.2820(6) 0.3712(8)
H7_2 H 0.3172 0.3199 0.3726
C12_2 C 0.3524(6) 0.1913(7) 0.3962(8)
H8_2 H 0.3057 0.1683 0.4135
H10_2 H 0.3525 0.0058 0.1150
Ag3 Ag 0.43308(4) 0.45840(4) 0.28287(5)
Ag6 Ag 0.14731(4) 0.05317(4) 0.12293(5)
N15_2 N 0.3002(4) 0.1929(4) 0.6459(5)
N1_2 N 0.4351(4) 0.6034(4) 0.3431(4)
N2_2 N 0.4059(4) 0.9096(4) 0.4923(5)
N4_2 N 0.4262(4) 0.9640(4) 0.3701(4)
N7_2 N 0.1998(4) 0.1929(4) 0.1459(5)
N8_2 N 0.3394(4) 0.5038(4) 0.1836(5)
N9_2 N 0.3385(4) 0.6003(4) 0.1796(5)
N10_2 N 0.2247(4) 0.5486(4) 0.1563(5)
N11_2 N 0.2023(4) 0.9081(4) 0.1455(4)
N12_2 N 0.0201(4) 0.5462(5) 0.1758(5)
C1_2 C 0.3634(5) 0.7347(6) 0.3855(6)
H1_2 H 0.3161 0.7596 0.3980
C2_2 C 0.3707(5) 0.6432(6) 0.3622(6)
H2_2 H 0.3271 0.6067 0.3597
C3_2 C 0.4962(5) 0.6555(6) 0.3485(7)
H3_2 H 0.5427 0.6280 0.3364
C4_2 C 0.4953(6) 0.7475(6) 0.3707(7)
H4_2 H 0.5399 0.7822 0.3729
C5_2 C 0.4264(5) 0.7886(5) 0.3900(5)
C6_2 C 0.4211(4) 0.8865(5) 0.4176(5)
C13_2 C 0.4359(4) 0.9681(5) 0.2829(9)
C14_2 C 0.3759(5) 0.9877(7) 0.2342(6)
H9_2 H 0.3275 0.9972 0.2552
C15_2 C 0.3911(6) 0.9925(8) 0.1520(6)
C16_2 C 0.4623(6) 0.9777(6) 0.1248(7)
H11_2 H 0.4712 0.9816 0.0687
C17_2 C 0.5069(5) 0.9536(5) 0.2527(5)
H12_2 H 0.5465 0.9403 0.2884
C18_2 C 0.1926(7) 0.3401(7) 0.2122(8)
H13_2 H 0.1706 0.3767 0.2529
C19_2 C 0.1696(7) 0.2489(6) 0.2006(8)
H14_2 H 0.1307 0.2257 0.2333
C20_2 C 0.2540(6) 0.2279(6) 0.1013(7)
H15_2 H 0.2778 0.1890 0.0634
C21_2 C 0.2777(6) 0.3192(6) 0.1076(8)
H16_2 H 0.3150 0.3417 0.0726
C22_2 C 0.2474(4) 0.3762(5) 0.1639(5)
C23_2 C 0.2714(4) 0.4738(5) 0.1696(5)
C24_2 C 0.2703(4) 0.6249(5) 0.1637(5)
C25_2 C 0.2445(4) 0.7235(5) 0.1564(5)
C26_2 C 0.2599(5) 0.7736(6) 0.0888(6)
H17_2 H 0.2853 0.7463 0.0449
C27_2 C 0.2377(5) 0.8649(6) 0.0858(6)
H18_2 H 0.2482 0.8989 0.0385
C28_2 C 0.1884(5) 0.8588(6) 0.2128(6)
H19_2 H 0.1641 0.8879 0.2565
C29_2 C 0.2084(5) 0.7669(6) 0.2198(5)
H20_2 H 0.1976 0.7338 0.2675
C30_2 C 0.1470(4) 0.5443(4) 0.1321(9)
C31_2 C 0.0928(5) 0.5550(6) 0.1903(6)
H21_2 H 0.1081 0.5692 0.2434
C32_2 C 0.0010(5) 0.5268(7) 0.0983(6)
C33_2 C 0.0522(6) 0.5161(8) 0.0369(6)
C34_2 C 0.1267(5) 0.5253(7) 0.0544(6)
H24_2 H 0.1632 0.5186 0.0137
N16_2 N 0.2977(4) 0.9081(4) 0.6455(4)
N17_2 N 0.5201(4) 0.4538(5) 0.1758(5)
H22_2 H 0.9499 0.5202 0.0858
Ag4_2 Ag 0.93308(4) 0.54160(4) 0.28287(5)
N14_2 N 0.0198(4) 0.0418(5) 0.1730(5)
N3_3 N 0.1001(4) 0.0062(4) 0.9943(5)
N5_2 N 0.0777(4) 0.3195(5) 0.8457(5)
C7_3 C 0.0891(5) 0.0377(5) 0.9208(5)
C8_3 C 0.0859(5) 0.1356(5) 0.8953(5)
C9_3 C 0.0204(6) 0.1749(6) 0.8710(8)
C10_3 C 0.0163(6) 0.2646(7) 0.8473(10)
C11_3 C 0.1399(6) 0.2820(6) 0.8712(8)
H7_3 H 0.1828 0.3199 0.8726
C12_3 C 0.1476(6) 0.1913(7) 0.8962(8)
H8_3 H 0.1943 0.1683 0.9135
H10_3 H 0.1475 0.0058 0.6150
N1_3 N 0.0649(4) 0.6034(4) 0.8431(4)
N2_3 N 0.0941(4) 0.9096(4) 0.9923(5)
N4_3 N 0.0738(4) 0.9640(4) 0.8701(4)
N8_3 N 0.1606(4) 0.5038(4) 0.6836(5)
N9_3 N 0.1615(4) 0.6003(4) 0.6796(5)
N10_3 N 0.2753(4) 0.5486(4) 0.6563(5)
C1_3 C 0.1366(5) 0.7347(6) 0.8855(6)
H1_3 H 0.1839 0.7596 0.8980
C2_3 C 0.1293(5) 0.6432(6) 0.8622(6)
H2_3 H 0.1729 0.6067 0.8597
C3_3 C 0.0038(5) 0.6555(6) 0.8485(7)
C4_3 C 0.0047(6) 0.7475(6) 0.8707(7)
C5_3 C 0.0736(5) 0.7886(5) 0.8900(5)
C6_3 C 0.0789(4) 0.8865(5) 0.9176(5)
C13_3 C 0.0641(4) 0.9681(5) 0.7829(9)
C14_3 C 0.1241(5) 0.9877(7) 0.7342(6)
H9_3 H 0.1725 0.9972 0.7552
C15_3 C 0.1089(6) 0.9925(8) 0.6520(6)
C16_3 C 0.0377(6) 0.9777(6) 0.6248(7)
H11_3 H 0.0288 0.9816 0.5687
C18_3 C 0.3074(7) 0.3401(7) 0.7122(8)
H13_3 H 0.3294 0.3767 0.7529
C19_3 C 0.3304(7) 0.2489(6) 0.7006(8)
H14_3 H 0.3693 0.2257 0.7333
C20_3 C 0.2460(6) 0.2279(6) 0.6013(7)
H15_3 H 0.2222 0.1890 0.5634
C21_3 C 0.2223(6) 0.3192(6) 0.6076(8)
H16_3 H 0.1850 0.3417 0.5726
C22_3 C 0.2526(4) 0.3762(5) 0.6639(5)
C23_3 C 0.2286(4) 0.4738(5) 0.6696(5)
C24_3 C 0.2297(4) 0.6249(5) 0.6637(5)
C25_3 C 0.2555(4) 0.7235(5) 0.6564(5)
C26_3 C 0.2401(5) 0.7736(6) 0.5888(6)
H17_3 H 0.2147 0.7463 0.5449
C27_3 C 0.2623(5) 0.8649(6) 0.5858(6)
H18_3 H 0.2518 0.8989 0.5385
C28_3 C 0.3116(5) 0.8588(6) 0.7128(6)
H19_3 H 0.3359 0.8879 0.7565
C29_3 C 0.2916(5) 0.7669(6) 0.7198(5)
H20_3 H 0.3024 0.7338 0.7675
C30_3 C 0.3530(4) 0.5443(4) 0.6321(9)
C31_3 C 0.4072(5) 0.5550(6) 0.6903(6)
H21_3 H 0.3919 0.5692 0.7434
C32_3 C 0.4990(5) 0.5268(7) 0.5983(6)
H22_3 H 0.5501 0.5202 0.5858
C33_3 C 0.4478(6) 0.5161(8) 0.5369(6)
H23_2 H 0.4637 0.5028 0.4838
C34_3 C 0.3733(5) 0.5253(7) 0.5544(6)
H24_3 H 0.3368 0.5186 0.5137
N6_2 N 0.9802(4) 0.9582(5) 0.6730(5)
H3_3 H 0.9573 0.6280 0.8364
H4_3 H 0.9601 0.7822 0.8729
C17_3 C 0.9931(5) 0.9536(5) 0.7527(5)
H12_3 H 0.9535 0.9403 0.7884
H3_4 H 0.0427 0.3720 0.3364
H4_4 H 0.0399 0.2178 0.3729
C17_4 C 0.0069(5) 0.0464(5) 0.2527(5)
H12_4 H 0.0465 0.0597 0.2884
N1_4 N 0.9351(4) 0.3966(4) 0.3431(4)
N2_4 N 0.9059(4) 0.0904(4) 0.4923(5)
N4_4 N 0.9262(4) 0.0360(4) 0.3701(4)
N8_4 N 0.8394(4) 0.4962(4) 0.1836(5)
N9_4 N 0.8385(4) 0.3997(4) 0.1796(5)
N10_4 N 0.7247(4) 0.4514(4) 0.1563(5)
C1_4 C 0.8634(5) 0.2653(6) 0.3855(6)
H1_4 H 0.8161 0.2404 0.3980
C2_4 C 0.8707(5) 0.3568(6) 0.3622(6)
H2_4 H 0.8271 0.3933 0.3597
C3_4 C 0.9962(5) 0.3445(6) 0.3485(7)
C4_4 C 0.9953(6) 0.2525(6) 0.3707(7)
C5_4 C 0.9264(5) 0.2114(5) 0.3900(5)
C6_4 C 0.9211(4) 0.1135(5) 0.4176(5)
C13_4 C 0.9359(4) 0.0319(5) 0.2829(9)
C14_4 C 0.8759(5) 0.0123(7) 0.2342(6)
H9_4 H 0.8275 0.0028 0.2552
C15_4 C 0.8911(6) 0.0075(8) 0.1520(6)
C16_4 C 0.9623(6) 0.0223(6) 0.1248(7)
H11_4 H 0.9712 0.0184 0.0687
C18_4 C 0.6926(7) 0.6599(7) 0.2122(8)
H13_4 H 0.6706 0.6233 0.2529
C19_4 C 0.6696(7) 0.7511(6) 0.2006(8)
H14_4 H 0.6307 0.7743 0.2333
C20_4 C 0.7540(6) 0.7721(6) 0.1013(7)
H15_4 H 0.7778 0.8110 0.0634
C21_4 C 0.7777(6) 0.6808(6) 0.1076(8)
H16_4 H 0.8150 0.6583 0.0726
C22_4 C 0.7474(4) 0.6238(5) 0.1639(5)
C23_4 C 0.7714(4) 0.5262(5) 0.1696(5)
C24_4 C 0.7703(4) 0.3751(5) 0.1637(5)
C25_4 C 0.7445(4) 0.2765(5) 0.1564(5)
C26_4 C 0.7599(5) 0.2264(6) 0.0888(6)
H17_4 H 0.7853 0.2537 0.0449
C27_4 C 0.7377(5) 0.1351(6) 0.0858(6)
H18_4 H 0.7482 0.1011 0.0385
C28_4 C 0.6884(5) 0.1412(6) 0.2128(6)
H19_4 H 0.6641 0.1121 0.2565
C29_4 C 0.7084(5) 0.2331(6) 0.2198(5)
H20_4 H 0.6976 0.2662 0.2675
C30_4 C 0.6470(4) 0.4557(4) 0.1321(9)
C31_4 C 0.5928(5) 0.4450(6) 0.1903(6)
H21_4 H 0.6081 0.4308 0.2434
C32_4 C 0.5010(5) 0.4732(7) 0.0983(6)
H22_4 H 0.4499 0.4798 0.0858
C33_4 C 0.5522(6) 0.4839(8) 0.0369(6)
C34_4 C 0.6267(5) 0.4747(7) 0.0544(6)
H24_4 H 0.6632 0.4814 0.0137
N13_2 N 0.9223(4) 0.6805(5) 0.3457(5)
N3_4 N 0.8999(4) 0.9938(4) 0.4943(5)
C7_4 C 0.9109(5) 0.9623(5) 0.4208(5)
C8_4 C 0.9141(5) 0.8644(5) 0.3953(5)
C9_4 C 0.9796(6) 0.8251(6) 0.3710(8)
C10_4 C 0.9837(6) 0.7354(7) 0.3473(10)
C11_4 C 0.8601(6) 0.7180(6) 0.3712(8)
H7_4 H 0.8172 0.6801 0.3726
C12_4 C 0.8524(6) 0.8087(7) 0.3962(8)
H8_4 H 0.8057 0.8317 0.4135
H10_4 H 0.8525 0.9942 0.1150
H23_3 H 0.0363 0.5028 0.9838
H5_3 H 0.9767 0.1385 0.8706
H6_3 H 0.9698 0.2893 0.8317
H5_4 H 0.0233 0.8615 0.3706
H6_4 H 0.0302 0.7107 0.3317
H23_4 H 0.5363 0.4972 0.9838
F1 F 0.8177(10) 0.3772(12) 0.8856(13)
F2 F 0.8063(8) 0.4582(11) 0.9869(8)
F3 F 0.8979(7) 0.4770(11) 0.9045(9)
F4 F 0.7832(7) 0.5082(11) 0.8658(10)
B1 B 0.8294(9) 0.4628(12) 0.9163(9)
F1_2 F 0.1823(10) 0.6228(12) 0.3856(13)
F2_2 F 0.1937(8) 0.5418(11) 0.4869(8)
F3_2 F 0.1021(7) 0.5230(11) 0.4045(9)
F4_2 F 0.2168(7) 0.4918(11) 0.3658(10)
B1_2 B 0.1706(9) 0.5372(12) 0.4163(9)
F1_3 F 0.3177(10) 0.6228(12) 0.8856(13)
F2_3 F 0.3063(8) 0.5418(11) 0.9869(8)
F3_3 F 0.3979(7) 0.5230(11) 0.9045(9)
F4_3 F 0.2832(7) 0.4918(11) 0.8658(10)
B1_3 B 0.3294(9) 0.5372(12) 0.9163(9)
F1_4 F 0.6823(10) 0.3772(12) 0.3856(13)
F2_4 F 0.6937(8) 0.4582(11) 0.4869(8)
F3_4 F 0.6021(7) 0.4770(11) 0.4045(9)
F4_4 F 0.7168(7) 0.5082(11) 0.3658(10)
B1_4 B 0.6706(9) 0.4628(12) 0.4163(9)
F6 F 0.2937(5) 0.0553(5) 0.9762(6)
F8 F 0.3284(8) 0.0843(12) 0.8484(9)
B2 B 0.3329(10) 0.0344(11) 0.9119(11)
F5 F 0.2712(13) 0.9786(18) 0.8796(14)
F7 F 0.3866(10) 0.9878(14) 0.9182(9)
F5_2 F 0.7288(13) 0.0214(18) 0.3796(14)
F7_2 F 0.6134(10) 0.0122(14) 0.4182(9)
F6_2 F 0.7063(5) 0.9447(5) 0.4762(6)
F8_2 F 0.6716(8) 0.9157(12) 0.3484(9)
B2_2 B 0.6671(10) 0.9656(11) 0.4119(11)
F5_3 F 0.7712(13) 0.0214(18) 0.8796(14)
F7_3 F 0.8866(10) 0.0122(14) 0.9182(9)
F6_3 F 0.7937(5) 0.9447(5) 0.9762(6)
F8_3 F 0.8284(8) 0.9157(12) 0.8484(9)
B2_3 B 0.8329(10) 0.9656(11) 0.9119(11)
F6_4 F 0.2063(5) 0.0553(5) 0.4762(6)
F8_4 F 0.1716(8) 0.0843(12) 0.3484(9)
B2_4 B 0.1671(10) 0.0344(11) 0.4119(11)
F5_4 F 0.2288(13) 0.9786(18) 0.3796(14)
F7_4 F 0.1134(10) 0.9878(14) 0.4182(9)
loop_
_geom_bond_atom_site_label_1
_geom_bond_atom_site_label_2
_geom_bond_site_symmetry_1
_geom_bond_site_symmetry_2
Ag1 N1 1_555 1_555
N1 C2 1_555 1_555
N4 C6 1_555 1_555
N6 C16 1_555 1_555
N7 C19 1_555 1_555
N8 Ag1 1_555 1_555
N9 N8 1_555 1_555
N10 C23 1_555 1_555
N11 C27 1_555 1_555
N12 C31 1_555 1_555
C1 H1 1_555 1_555
C2 C1 1_555 1_555
H2 C2 1_555 1_555
C3 N1 1_555 1_555
H3 C3 1_555 1_555
C4 C3 1_555 1_555
H4 C4 1_555 1_555
C5 C1 1_555 1_555
C6 N2 1_555 1_555
C13 N4 1_555 1_555
C14 C13 1_555 1_555
H9 C14 1_555 1_555
C15 C14 1_555 1_555
C16 C15 1_555 1_555
H11 C16 1_555 1_555
C17 N6 1_555 1_555
H12 C17 1_555 1_555
C18 H13 1_555 1_555
C19 C18 1_555 1_555
H14 C19 1_555 1_555
C20 N7 1_555 1_555
H15 C20 1_555 1_555
C21 C20 1_555 1_555
H16 C21 1_555 1_555
C22 C18 1_555 1_555
C23 N8 1_555 1_555
C24 N9 1_555 1_555
C25 C24 1_555 1_555
C26 C25 1_555 1_555
H17 C26 1_555 1_555
C27 C26 1_555 1_555
H18 C27 1_555 1_555
C28 N11 1_555 1_555
H19 C28 1_555 1_555
C29 C25 1_555 1_555
H20 C29 1_555 1_555
C30 N10 1_555 1_555
C31 C30 1_555 1_555
H21 C31 1_555 1_555
C32 N12 1_555 1_555
C33 C32 1_555 1_555
H23 C33 1_555 1_555
C34 C30 1_555 1_555
H24 C34 1_555 1_555
Ag5 N6 1_555 1_555
Ag7 N7 1_555 1_555
N13 Ag1 1_555 1_555
N17 Ag1 1_555 1_555
N10 C24 1_555 1_555
C4 C5 1_555 1_555
C5 C6 1_555 1_555
C13 C17 1_555 1_555
C21 C22 1_555 1_555
C22 C23 1_555 1_555
C28 C29 1_555 1_555
C33 C34 1_555 1_555
N14 Ag2 1_555 1_555
N15 Ag2 1_555 1_555
N3 C7 1_555 1_555
N13 C10 1_555 1_555
C8 C7 1_555 1_555
C9 C8 1_555 1_555
H5 C9 1_555 1_555
C10 C9 1_555 1_555
H6 C10 1_555 1_555
C11 N13 1_555 1_555
H7 C11 1_555 1_555
C12 C8 1_555 1_555
H8 C12 1_555 1_555
C11 C12 1_555 1_555
Ag5 N3_2 1_555 1_555
N3_2 C7_2 1_555 1_555
N5 C10_2 1_555 1_555
C8_2 C7_2 1_555 1_555
C9_2 C8_2 1_555 1_555
H5_2 C9_2 1_555 1_555
C10_2 C9_2 1_555 1_555
H6_2 C10_2 1_555 1_555
C11_2 N5 1_555 1_555
H7_2 C11_2 1_555 1_555
C12_2 C8_2 1_555 1_555
H8_2 C12_2 1_555 1_555
Ag3 N5 1_555 1_555
N15_2 Ag5 1_555 1_555
C11_2 C12_2 1_555 1_555
Ag3 N1_2 1_555 1_555
N1_2 C2_2 1_555 1_555
N4_2 C6_2 1_555 1_555
N14 C16_2 1_555 1_555
N7_2 C19_2 1_555 1_555
N8_2 Ag3 1_555 1_555
N9_2 N8_2 1_555 1_555
N10_2 C23_2 1_555 1_555
N11_2 C27_2 1_555 1_555
N12_2 C31_2 1_555 1_555
C1_2 H1_2 1_555 1_555
C2_2 C1_2 1_555 1_555
H2_2 C2_2 1_555 1_555
C3_2 N1_2 1_555 1_555
H3_2 C3_2 1_555 1_555
C4_2 C3_2 1_555 1_555
H4_2 C4_2 1_555 1_555
C5_2 C1_2 1_555 1_555
C6_2 N2_2 1_555 1_555
C13_2 N4_2 1_555 1_555
C14_2 C13_2 1_555 1_555
H9_2 C14_2 1_555 1_555
C15_2 C14_2 1_555 1_555
C16_2 C15_2 1_555 1_555
H11_2 C16_2 1_555 1_555
C17_2 N14 1_555 1_555
H12_2 C17_2 1_555 1_555
C18_2 H13_2 1_555 1_555
C19_2 C18_2 1_555 1_555
H14_2 C19_2 1_555 1_555
C20_2 N7_2 1_555 1_555
H15_2 C20_2 1_555 1_555
C21_2 C20_2 1_555 1_555
H16_2 C21_2 1_555 1_555
C22_2 C18_2 1_555 1_555
C23_2 N8_2 1_555 1_555
C24_2 N9_2 1_555 1_555
C25_2 C24_2 1_555 1_555
C26_2 C25_2 1_555 1_555
H17_2 C26_2 1_555 1_555
C27_2 C26_2 1_555 1_555
H18_2 C27_2 1_555 1_555
C28_2 N11_2 1_555 1_555
H19_2 C28_2 1_555 1_555
C29_2 C25_2 1_555 1_555
H20_2 C29_2 1_555 1_555
C30_2 N10_2 1_555 1_555
C31_2 C30_2 1_555 1_555
H21_2 C31_2 1_555 1_555
C32_2 N12_2 1_555 1_555
C33_2 C32_2 1_555 1_555
C34_2 C30_2 1_555 1_555
H24_2 C34_2 1_555 1_555
Ag6 N7_2 1_555 1_555
N17_2 Ag3 1_555 1_555
N10_2 C24_2 1_555 1_555
C4_2 C5_2 1_555 1_555
C5_2 C6_2 1_555 1_555
C13_2 C17_2 1_555 1_555
C21_2 C22_2 1_555 1_555
C22_2 C23_2 1_555 1_555
C28_2 C29_2 1_555 1_555
C33_2 C34_2 1_555 1_555
N14_2 Ag6 1_555 1_555
N3_3 C7_3 1_555 1_555
N5_2 C10_3 1_555 1_555
C8_3 C7_3 1_555 1_555
C9_3 C8_3 1_555 1_555
C10_3 C9_3 1_555 1_555
C11_3 N5_2 1_555 1_555
H7_3 C11_3 1_555 1_555
C12_3 C8_3 1_555 1_555
H8_3 C12_3 1_555 1_555
Ag4 N5_2 1_555 1_555
C11_3 C12_3 1_555 1_555
Ag4 N1_3 1_555 1_555
N1_3 C2_3 1_555 1_555
N4_3 C6_3 1_555 1_555
N15_2 C19_3 1_555 1_555
N8_3 Ag4 1_555 1_555
N9_3 N8_3 1_555 1_555
N10_3 C23_3 1_555 1_555
N16_2 C27_3 1_555 1_555
N17 C31_3 1_555 1_555
C1_3 H1_3 1_555 1_555
C2_3 C1_3 1_555 1_555
H2_3 C2_3 1_555 1_555
C3_3 N1_3 1_555 1_555
C4_3 C3_3 1_555 1_555
C5_3 C1_3 1_555 1_555
C6_3 N2_3 1_555 1_555
C13_3 N4_3 1_555 1_555
C14_3 C13_3 1_555 1_555
H9_3 C14_3 1_555 1_555
C15_3 C14_3 1_555 1_555
C16_3 C15_3 1_555 1_555
H11_3 C16_3 1_555 1_555
C18_3 H13_3 1_555 1_555
C19_3 C18_3 1_555 1_555
H14_3 C19_3 1_555 1_555
C20_3 N15_2 1_555 1_555
H15_3 C20_3 1_555 1_555
C21_3 C20_3 1_555 1_555
H16_3 C21_3 1_555 1_555
C22_3 C18_3 1_555 1_555
C23_3 N8_3 1_555 1_555
C24_3 N9_3 1_555 1_555
C25_3 C24_3 1_555 1_555
C26_3 C25_3 1_555 1_555
H17_3 C26_3 1_555 1_555
C27_3 C26_3 1_555 1_555
H18_3 C27_3 1_555 1_555
C28_3 N16_2 1_555 1_555
H19_3 C28_3 1_555 1_555
C29_3 C25_3 1_555 1_555
H20_3 C29_3 1_555 1_555
C30_3 N10_3 1_555 1_555
C31_3 C30_3 1_555 1_555
H21_3 C31_3 1_555 1_555
C32_3 N17 1_555 1_555
H22_3 C32_3 1_555 1_555
C33_3 C32_3 1_555 1_555
H23_2 C33_3 1_555 1_555
C34_3 C30_3 1_555 1_555
H24_3 C34_3 1_555 1_555
N10_3 C24_3 1_555 1_555
C4_3 C5_3 1_555 1_555
C5_3 C6_3 1_555 1_555
C21_3 C22_3 1_555 1_555
C22_3 C23_3 1_555 1_555
C28_3 C29_3 1_555 1_555
C33_3 C34_3 1_555 1_555
C17_3 N6_2 1_555 1_555
H12_3 C17_3 1_555 1_555
Ag7 N6_2 1_555 1_555
C17_4 N14_2 1_555 1_555
H12_4 C17_4 1_555 1_555
Ag4_2 N1_4 1_555 1_555
N1_4 C2_4 1_555 1_555
N4_4 C6_4 1_555 1_555
N15 C19_4 1_555 1_555
N8_4 Ag4_2 1_555 1_555
N9_4 N8_4 1_555 1_555
N10_4 C23_4 1_555 1_555
N16 C27_4 1_555 1_555
N17_2 C31_4 1_555 1_555
C1_4 H1_4 1_555 1_555
C2_4 C1_4 1_555 1_555
H2_4 C2_4 1_555 1_555
C3_4 N1_4 1_555 1_555
C4_4 C3_4 1_555 1_555
C5_4 C1_4 1_555 1_555
C6_4 N2_4 1_555 1_555
C13_4 N4_4 1_555 1_555
C14_4 C13_4 1_555 1_555
H9_4 C14_4 1_555 1_555
C15_4 C14_4 1_555 1_555
C16_4 C15_4 1_555 1_555
H11_4 C16_4 1_555 1_555
C18_4 H13_4 1_555 1_555
C19_4 C18_4 1_555 1_555
H14_4 C19_4 1_555 1_555
C20_4 N15 1_555 1_555
H15_4 C20_4 1_555 1_555
C21_4 C20_4 1_555 1_555
H16_4 C21_4 1_555 1_555
C22_4 C18_4 1_555 1_555
C23_4 N8_4 1_555 1_555
C24_4 N9_4 1_555 1_555
C25_4 C24_4 1_555 1_555
C26_4 C25_4 1_555 1_555
H17_4 C26_4 1_555 1_555
C27_4 C26_4 1_555 1_555
H18_4 C27_4 1_555 1_555
C28_4 N16 1_555 1_555
H19_4 C28_4 1_555 1_555
C29_4 C25_4 1_555 1_555
H20_4 C29_4 1_555 1_555
C30_4 N10_4 1_555 1_555
C31_4 C30_4 1_555 1_555
H21_4 C31_4 1_555 1_555
C32_4 N17_2 1_555 1_555
H22_4 C32_4 1_555 1_555
C33_4 C32_4 1_555 1_555
C34_4 C30_4 1_555 1_555
H24_4 C34_4 1_555 1_555
N13_2 Ag4_2 1_555 1_555
N10_4 C24_4 1_555 1_555
C4_4 C5_4 1_555 1_555
C5_4 C6_4 1_555 1_555
C21_4 C22_4 1_555 1_555
C22_4 C23_4 1_555 1_555
C28_4 C29_4 1_555 1_555
C33_4 C34_4 1_555 1_555
Ag7 N3_4 1_555 1_555
N3_4 C7_4 1_555 1_555
N13_2 C10_4 1_555 1_555
C8_4 C7_4 1_555 1_555
C9_4 C8_4 1_555 1_555
C10_4 C9_4 1_555 1_555
C11_4 N13_2 1_555 1_555
H7_4 C11_4 1_555 1_555
C12_4 C8_4 1_555 1_555
H8_4 C12_4 1_555 1_555
C11_4 C12_4 1_555 1_555
F1 B1 1_555 1_555
F2 B1 1_555 1_555
F3 B1 1_555 1_555
F4 B1 1_555 1_555
F1_2 B1_2 1_555 1_555
F2_2 B1_2 1_555 1_555
F3_2 B1_2 1_555 1_555
F4_2 B1_2 1_555 1_555
F1_3 B1_3 1_555 1_555
F2_3 B1_3 1_555 1_555
F3_3 B1_3 1_555 1_555
F4_3 B1_3 1_555 1_555
F1_4 B1_4 1_555 1_555
F2_4 B1_4 1_555 1_555
F3_4 B1_4 1_555 1_555
F4_4 B1_4 1_555 1_555
F6 B2 1_555 1_555
F8 B2 1_555 1_555
F6_2 B2_2 1_555 1_555
F8_2 B2_2 1_555 1_555
F6_3 B2_3 1_555 1_555
F8_3 B2_3 1_555 1_555
F6_4 B2_4 1_555 1_555
F8_4 B2_4 1_555 1_555

#END
