
###############################################################################
#
# This file contains modified crystal structure data generated from the
# MOF subset of the Cambridge Structural Database (CSD) v543 
# hosted by the Cambridge Crystallographic Data Centre (CCDC).
#
# This work is licensed under the Creative Commons
# Attribution-NonCommercial-ShareAlike 4.0 International License.
# To view a copy of this license, visit
# http://creativecommons.org/licenses/by-nc-sa/4.0/
# or send a letter to
# Creative Commons, PO Box 1866, Mountain View, CA 94042, USA.
#
# CIF created using the CSD Python API on 29 September 2022
# The structure has been converted into the P1 space group
# The structure has a 3D framework
# The original CSD entry YIXYUB is in the tetragonal crystal system
# The framework has been calculated to contain at least 10.0% void space
# The void calculation uses a probe of radius 1.32A, grid spacing 0.4
#
###############################################################################

data_YIXYUB
_chemical_formula_moiety         '(C72 H52 Cd4 N24 O20)n'
_symmetry_cell_setting           triclinic
_symmetry_space_group_name_H-M   'P 1'
_symmetry_Int_Tables_number      1
_space_group_name_Hall           'P 1'
loop_
_symmetry_equiv_pos_site_id
_symmetry_equiv_pos_as_xyz
1 x,y,z
_cell_length_a                   20.872(8)
_cell_length_b                   20.872(8)
_cell_length_c                   5.882(2)
_cell_angle_alpha                90
_cell_angle_beta                 90
_cell_angle_gamma                90
_cell_volume                     2562.44
loop_
_atom_site_label
_atom_site_type_symbol
_atom_site_fract_x
_atom_site_fract_y
_atom_site_fract_z
Cd1 Cd 0.32988(2) 0.76803(2) 0.04003(9)
O1 O 0.7011(2) 0.4044(2) 0.1544(8)
O2 O 0.6448(3) 0.4001(3) 0.4702(9)
C1 C 0.4472(3) 0.6567(3) 0.0951(13)
H2 H 0.4327 0.6449 0.2388
C3 C 0.5412(4) 0.5823(3) 0.0683(13)
C4 C 0.5364(5) 0.5594(5) 0.2789(16)
H4 H 0.5079 0.5773 0.3824
C5 C 0.5748(5) 0.5081(5) 0.3405(17)
H5 H 0.5710 0.4922 0.4876
C6 C 0.6170(3) 0.4801(3) 0.2009(12)
C9 C 0.6577(3) 0.4251(3) 0.2794(13)
Cd4 Cd 0.73197(2) 0.32988(2) 0.45997(9)
O4 O 0.4044(2) 0.7989(2) 0.3456(8)
O5 O 0.4001(3) 0.8552(3) 0.0298(9)
O6 O 0.2334(2) 0.81242(19) 0.1654(8)
O7 O 0.2666(2) 0.68758(19) 0.1654(8)
O3 O 0.31242(19) 0.7666(2) 0.6654(8)
H1 H 0.345(3) 0.777(4) 0.589(14)
N1 N 0.4201(3) 0.7002(3) 0.9640(10)
N2 N 0.5057(3) 0.6593(3) 0.7824(12)
N3 N 0.4984(3) 0.6320(3) 0.9911(10)
C2 C 0.4577(3) 0.7007(3) 0.7732(15)
H3 H 0.4503 0.7275 0.6496
C7 C 0.6206(5) 0.5037(5) 0.9927(16)
H6 H 0.6491 0.4854 0.8899
C8 C 0.5821(5) 0.5561(5) 0.9214(17)
H7 H 0.5855 0.5719 0.7741
Cd2 Cd 0.23197(2) 0.82988(2) 0.54003(9)
Cd3 Cd 0.26803(2) 0.67012(2) 0.54003(9)
O1_2 O 0.5956(2) 0.2011(2) 0.6544(8)
O2_2 O 0.5999(3) 0.1448(3) 0.9702(9)
N2_2 N 0.3407(3) 0.0057(3) 0.2824(12)
C3_2 C 0.4177(3) 0.0412(4) 0.5683(13)
C4_2 C 0.4406(5) 0.0364(5) 0.7789(16)
H4_2 H 0.4227 0.0079 0.8824
C5_2 C 0.4919(5) 0.0748(5) 0.8405(17)
H5_2 H 0.5078 0.0710 0.9876
C6_2 C 0.5199(3) 0.1170(3) 0.7009(12)
C7_2 C 0.4963(5) 0.1206(5) 0.4927(16)
H6_2 H 0.5146 0.1491 0.3899
C8_2 C 0.4439(5) 0.0821(5) 0.4214(17)
H7_2 H 0.4281 0.0855 0.2741
C9_2 C 0.5749(3) 0.1577(3) 0.7794(13)
Cd4_2 Cd 0.67012(2) 0.23197(2) 0.95997(9)
H1_2 H 0.223(4) 0.845(3) 0.089(14)
N1_2 N 0.2998(3) 0.9201(3) 0.4640(10)
N3_2 N 0.3680(3) 0.9984(3) 0.4911(10)
C1_2 C 0.3433(3) 0.9472(3) 0.5951(13)
H2_2 H 0.3551 0.9327 0.7388
C2_2 C 0.2993(3) 0.9577(3) 0.2732(15)
H3_2 H 0.2725 0.9503 0.1496
Cd2_2 Cd 0.17012(2) 0.73197(2) 0.04003(9)
O4_2 O 0.2011(2) 0.9044(2) 0.8456(8)
O5_2 O 0.1448(3) 0.9001(3) 0.5298(9)
O6_2 O 0.18758(19) 0.7334(2) 0.6654(8)
H1_3 H 0.277(4) 0.655(3) 0.089(14)
N1_3 N 0.2002(3) 0.5799(3) 0.4640(10)
N2_3 N 0.1593(3) 0.4943(3) 0.2824(12)
N3_3 N 0.1320(3) 0.5016(3) 0.4911(10)
C1_3 C 0.1567(3) 0.5528(3) 0.5951(13)
H2_3 H 0.1449 0.5673 0.7388
C2_3 C 0.2007(3) 0.5423(3) 0.2732(15)
H3_3 H 0.2275 0.5497 0.1496
C3_3 C 0.0823(3) 0.4588(4) 0.5683(13)
C4_3 C 0.0594(5) 0.4636(5) 0.7789(16)
H4_3 H 0.0773 0.4921 0.8824
C5_3 C 0.0081(5) 0.4252(5) 0.8405(17)
C7_3 C 0.0037(5) 0.3794(5) 0.4927(16)
C8_3 C 0.0561(5) 0.4179(5) 0.4214(17)
H7_3 H 0.0719 0.4145 0.2741
O4_3 O 0.2989(2) 0.5956(2) 0.8456(8)
O5_3 O 0.3552(3) 0.5999(3) 0.5298(9)
O1_3 O 0.9044(2) 0.2989(2) 0.6544(8)
O2_3 O 0.9001(3) 0.3552(3) 0.9702(9)
H5_3 H 0.9922 0.4290 0.9876
C6_3 C 0.9801(3) 0.3830(3) 0.7009(12)
H6_3 H 0.9854 0.3509 0.3899
C9_3 C 0.9251(3) 0.3423(3) 0.7794(13)
Cd4_3 Cd 0.82988(2) 0.26803(2) 0.95997(9)
C1_4 C 0.0528(3) 0.8433(3) 0.0951(13)
H2_4 H 0.0673 0.8551 0.2388
O4_4 O 0.0956(2) 0.7011(2) 0.3456(8)
O5_4 O 0.0999(3) 0.6448(3) 0.0298(9)
H1_4 H 0.155(3) 0.723(4) 0.589(14)
N1_4 N 0.0799(3) 0.7998(3) 0.9640(10)
N3_4 N 0.0016(3) 0.8680(3) 0.9911(10)
C2_4 C 0.0423(3) 0.7993(3) 0.7732(15)
H3_4 H 0.0497 0.7725 0.6496
O1_4 O 0.7989(2) 0.0956(2) 0.1544(8)
O2_4 O 0.8552(3) 0.0999(3) 0.4702(9)
H5_4 H 0.9290 0.0078 0.4876
C6_4 C 0.8830(3) 0.0199(3) 0.2009(12)
C9_4 C 0.8423(3) 0.0749(3) 0.2794(13)
Cd4_4 Cd 0.76803(2) 0.17012(2) 0.45997(9)
O3_2 O 0.68758(19) 0.2334(2) 0.3346(8)
H1_5 H 0.655(3) 0.223(4) 0.411(14)
N1_5 N 0.5799(3) 0.2998(3) 0.0360(10)
N2_4 N 0.4943(3) 0.3407(3) 0.2176(12)
N3_5 N 0.5016(3) 0.3680(3) 0.0089(10)
C2_5 C 0.5423(3) 0.2993(3) 0.2268(15)
H3_5 H 0.5497 0.2725 0.3504
C7_4 C 0.3794(5) 0.4963(5) 0.0073(16)
H6_4 H 0.3509 0.5146 0.1101
C8_4 C 0.4179(5) 0.4439(5) 0.0786(17)
H7_4 H 0.4145 0.4281 0.2259
C1_5 C 0.5528(3) 0.3433(3) 0.9049(13)
H2_5 H 0.5673 0.3551 0.7612
C3_4 C 0.4588(4) 0.4177(3) 0.9317(13)
C4_4 C 0.4636(5) 0.4406(5) 0.7211(16)
H4_4 H 0.4921 0.4227 0.6176
C5_4 C 0.4252(5) 0.4919(5) 0.6595(17)
H5_5 H 0.4290 0.5078 0.5124
C6_5 C 0.3830(3) 0.5199(3) 0.7991(12)
C9_5 C 0.3423(3) 0.5749(3) 0.7206(13)
O6_3 O 0.7666(2) 0.18758(19) 0.8346(8)
O7_2 O 0.7334(2) 0.31242(19) 0.8346(8)
H1_6 H 0.777(4) 0.155(3) 0.911(14)
N1_6 N 0.7002(3) 0.0799(3) 0.5360(10)
N3_6 N 0.6320(3) 0.0016(3) 0.5089(10)
C1_6 C 0.6567(3) 0.0528(3) 0.4049(13)
H2_6 H 0.6449 0.0673 0.2612
C2_6 C 0.7007(3) 0.0423(3) 0.7268(15)
H3_6 H 0.7275 0.0497 0.8504
O6_4 O 0.81242(19) 0.2666(2) 0.3346(8)
N2_5 N 0.6593(3) 0.9943(3) 0.7176(12)
C3_5 C 0.5823(3) 0.9588(4) 0.4317(13)
C4_5 C 0.5594(5) 0.9636(5) 0.2211(16)
H4_5 H 0.5773 0.9921 0.1176
C5_5 C 0.5081(5) 0.9252(5) 0.1595(17)
H5_6 H 0.4922 0.9290 0.0124
C6_6 C 0.4801(3) 0.8830(3) 0.2991(12)
C7_5 C 0.5037(5) 0.8794(5) 0.5073(16)
H6_5 H 0.4854 0.8509 0.6101
C8_5 C 0.5561(5) 0.9179(5) 0.5786(17)
H7_5 H 0.5719 0.9145 0.7259
C9_6 C 0.4251(3) 0.8423(3) 0.2206(13)
H5_7 H 0.0078 0.5710 0.0124
C6_7 C 0.0199(3) 0.6170(3) 0.2991(12)
H6_6 H 0.0146 0.6491 0.6101
C9_7 C 0.0749(3) 0.6577(3) 0.2206(13)
H1_7 H 0.723(4) 0.345(3) 0.911(14)
N1_7 N 0.7998(3) 0.4201(3) 0.5360(10)
N2_6 N 0.8407(3) 0.5057(3) 0.7176(12)
N3_7 N 0.8680(3) 0.4984(3) 0.5089(10)
C1_7 C 0.8433(3) 0.4472(3) 0.4049(13)
H2_7 H 0.8551 0.4327 0.2612
C2_7 C 0.7993(3) 0.4577(3) 0.7268(15)
H3_7 H 0.7725 0.4503 0.8504
C3_6 C 0.9177(3) 0.5412(4) 0.4317(13)
C4_6 C 0.9406(5) 0.5364(5) 0.2211(16)
H4_6 H 0.9227 0.5079 0.1176
C5_6 C 0.9919(5) 0.5748(5) 0.1595(17)
C7_6 C 0.9963(5) 0.6206(5) 0.5073(16)
C8_6 C 0.9439(5) 0.5821(5) 0.5786(17)
H7_6 H 0.9281 0.5855 0.7259
H5_8 H 0.0710 0.9922 0.5124
C6_8 C 0.1170(3) 0.9801(3) 0.7991(12)
C9_8 C 0.1577(3) 0.9251(3) 0.7206(13)
H1_8 H 0.845(3) 0.277(4) 0.411(14)
N1_8 N 0.9201(3) 0.2002(3) 0.0360(10)
N3_8 N 0.9984(3) 0.1320(3) 0.0089(10)
C2_8 C 0.9577(3) 0.2007(3) 0.2268(15)
H3_8 H 0.9503 0.2275 0.3504
C1_8 C 0.9472(3) 0.1567(3) 0.9049(13)
H2_8 H 0.9327 0.1449 0.7612
H6_7 H 0.8509 0.0146 0.8899
C3_7 C 0.9588(4) 0.9177(3) 0.0683(13)
C4_7 C 0.9636(5) 0.9406(5) 0.2789(16)
H4_7 H 0.9921 0.9227 0.3824
C5_7 C 0.9252(5) 0.9919(5) 0.3405(17)
N2_7 N 0.9943(3) 0.8407(3) 0.7824(12)
C7_7 C 0.8794(5) 0.9963(5) 0.9927(16)
C8_7 C 0.9179(5) 0.9439(5) 0.9214(17)
H7_7 H 0.9145 0.9281 0.7741
N2_8 N 0.0057(3) 0.1593(3) 0.2176(12)
C7_8 C 0.1206(5) 0.0037(5) 0.0073(16)
C8_8 C 0.0821(5) 0.0561(5) 0.0786(17)
H7_8 H 0.0855 0.0719 0.2259
C3_8 C 0.0412(4) 0.0823(3) 0.9317(13)
C4_8 C 0.0364(5) 0.0594(5) 0.7211(16)
H4_8 H 0.0079 0.0773 0.6176
C5_8 C 0.0748(5) 0.0081(5) 0.6595(17)
H6_8 H 0.1491 0.9854 0.1101
loop_
_geom_bond_atom_site_label_1
_geom_bond_atom_site_label_2
_geom_bond_site_symmetry_1
_geom_bond_site_symmetry_2
O1 C9 1_555 1_555
O2 C9 1_555 1_555
H2 C1 1_555 1_555
C4 C3 1_555 1_555
H4 C4 1_555 1_555
C5 C4 1_555 1_555
H5 C5 1_555 1_555
C6 C5 1_555 1_555
C9 C6 1_555 1_555
Cd4 O1 1_555 1_555
O4 Cd1 1_555 1_555
O5 Cd1 1_555 1_555
O6 Cd1 1_555 1_555
O7 Cd1 1_555 1_555
O2 Cd4 1_555 1_555
O3 H1 1_555 1_555
N2 N3 1_555 1_555
C2 N1 1_555 1_555
H3 C2 1_555 1_555
H6 C7 1_555 1_555
H7 C8 1_555 1_555
Cd2 O3 1_555 1_555
Cd3 O3 1_555 1_555
N2 C2 1_555 1_555
C7 C8 1_555 1_555
O1_2 C9_2 1_555 1_555
O2_2 C9_2 1_555 1_555
C4_2 C3_2 1_555 1_555
H4_2 C4_2 1_555 1_555
C5_2 C4_2 1_555 1_555
H5_2 C5_2 1_555 1_555
C6_2 C5_2 1_555 1_555
C7_2 C6_2 1_555 1_555
H6_2 C7_2 1_555 1_555
C8_2 C3_2 1_555 1_555
H7_2 C8_2 1_555 1_555
C9_2 C6_2 1_555 1_555
Cd4_2 O1_2 1_555 1_555
O2_2 Cd4_2 1_555 1_555
C7_2 C8_2 1_555 1_555
Cd2 O6 1_555 1_555
O6 H1_2 1_555 1_555
N1_2 Cd2 1_555 1_555
N3_2 C1_2 1_555 1_555
C1_2 N1_2 1_555 1_555
H2_2 C1_2 1_555 1_555
C2_2 N1_2 1_555 1_555
H3_2 C2_2 1_555 1_555
Cd2_2 O6 1_555 1_555
O4_2 Cd2 1_555 1_555
O5_2 Cd2 1_555 1_555
O6_2 Cd2 1_555 1_555
Cd3 O7 1_555 1_555
O7 H1_3 1_555 1_555
N1_3 Cd3 1_555 1_555
N2_3 N3_3 1_555 1_555
N3_3 C1_3 1_555 1_555
C1_3 N1_3 1_555 1_555
H2_3 C1_3 1_555 1_555
C2_3 N1_3 1_555 1_555
H3_3 C2_3 1_555 1_555
C3_3 N3_3 1_555 1_555
C4_3 C3_3 1_555 1_555
H4_3 C4_3 1_555 1_555
C5_3 C4_3 1_555 1_555
C8_3 C3_3 1_555 1_555
H7_3 C8_3 1_555 1_555
Cd2_2 O7 1_555 1_555
O4_3 Cd3 1_555 1_555
O5_3 Cd3 1_555 1_555
O6_2 Cd3 1_555 1_555
N2_3 C2_3 1_555 1_555
C7_3 C8_3 1_555 1_555
O1_3 C9_3 1_555 1_555
O2_3 C9_3 1_555 1_555
C9_3 C6_3 1_555 1_555
Cd4_3 O1_3 1_555 1_555
O2_3 Cd4_3 1_555 1_555
H2_4 C1_4 1_555 1_555
O4_4 Cd2_2 1_555 1_555
O5_4 Cd2_2 1_555 1_555
O6_2 H1_4 1_555 1_555
C2_4 N1_4 1_555 1_555
H3_4 C2_4 1_555 1_555
O1_4 C9_4 1_555 1_555
O2_4 C9_4 1_555 1_555
C9_4 C6_4 1_555 1_555
Cd4_4 O1_4 1_555 1_555
O2_4 Cd4_4 1_555 1_555
O3_2 H1_5 1_555 1_555
N2_4 N3_5 1_555 1_555
C2_5 N1_5 1_555 1_555
H3_5 C2_5 1_555 1_555
H6_4 C7_4 1_555 1_555
H7_4 C8_4 1_555 1_555
Cd4_4 O3_2 1_555 1_555
Cd4 O3_2 1_555 1_555
N2_4 C2_5 1_555 1_555
C7_4 C8_4 1_555 1_555
O4_3 C9_5 1_555 1_555
O5_3 C9_5 1_555 1_555
H2_5 C1_5 1_555 1_555
C4_4 C3_4 1_555 1_555
H4_4 C4_4 1_555 1_555
C5_4 C4_4 1_555 1_555
H5_5 C5_4 1_555 1_555
C6_5 C5_4 1_555 1_555
C9_5 C6_5 1_555 1_555
O6_3 Cd4_2 1_555 1_555
O7_2 Cd4_2 1_555 1_555
Cd4_4 O6_3 1_555 1_555
O6_3 H1_6 1_555 1_555
N1_6 Cd4_4 1_555 1_555
N3_6 C1_6 1_555 1_555
C1_6 N1_6 1_555 1_555
H2_6 C1_6 1_555 1_555
C2_6 N1_6 1_555 1_555
H3_6 C2_6 1_555 1_555
Cd4_3 O6_3 1_555 1_555
O6_4 Cd4_4 1_555 1_555
O4 C9_6 1_555 1_555
O5 C9_6 1_555 1_555
C4_5 C3_5 1_555 1_555
H4_5 C4_5 1_555 1_555
C5_5 C4_5 1_555 1_555
H5_6 C5_5 1_555 1_555
C6_6 C5_5 1_555 1_555
C7_5 C6_6 1_555 1_555
H6_5 C7_5 1_555 1_555
C8_5 C3_5 1_555 1_555
H7_5 C8_5 1_555 1_555
C9_6 C6_6 1_555 1_555
C7_5 C8_5 1_555 1_555
O4_4 C9_7 1_555 1_555
O5_4 C9_7 1_555 1_555
C9_7 C6_7 1_555 1_555
Cd4 O7_2 1_555 1_555
O7_2 H1_7 1_555 1_555
N1_7 Cd4 1_555 1_555
N2_6 N3_7 1_555 1_555
N3_7 C1_7 1_555 1_555
C1_7 N1_7 1_555 1_555
H2_7 C1_7 1_555 1_555
C2_7 N1_7 1_555 1_555
H3_7 C2_7 1_555 1_555
C3_6 N3_7 1_555 1_555
C4_6 C3_6 1_555 1_555
H4_6 C4_6 1_555 1_555
C5_6 C4_6 1_555 1_555
C8_6 C3_6 1_555 1_555
H7_6 C8_6 1_555 1_555
Cd4_3 O7_2 1_555 1_555
O6_4 Cd4 1_555 1_555
N2_6 C2_7 1_555 1_555
C7_6 C8_6 1_555 1_555
O4_2 C9_8 1_555 1_555
O5_2 C9_8 1_555 1_555
C9_8 C6_8 1_555 1_555
O6_4 H1_8 1_555 1_555
C2_8 N1_8 1_555 1_555
H3_8 C2_8 1_555 1_555
H2_8 C1_8 1_555 1_555
C4_7 C3_7 1_555 1_555
H4_7 C4_7 1_555 1_555
C5_7 C4_7 1_555 1_555
H7_7 C8_7 1_555 1_555
C7_7 C8_7 1_555 1_555
H7_8 C8_8 1_555 1_555
C7_8 C8_8 1_555 1_555
C4_8 C3_8 1_555 1_555
H4_8 C4_8 1_555 1_555
C5_8 C4_8 1_555 1_555

#END
