
###############################################################################
#
# This file contains modified crystal structure data generated from the
# MOF subset of the Cambridge Structural Database (CSD) v543 
# hosted by the Cambridge Crystallographic Data Centre (CCDC).
#
# This work is licensed under the Creative Commons
# Attribution-NonCommercial-ShareAlike 4.0 International License.
# To view a copy of this license, visit
# http://creativecommons.org/licenses/by-nc-sa/4.0/
# or send a letter to
# Creative Commons, PO Box 1866, Mountain View, CA 94042, USA.
#
# CIF created using the CSD Python API on 29 September 2022
# The structure has been converted into the P1 space group
# The structure has a 3D framework
# The original CSD entry YIZBUH is in the orthorhombic crystal system
# The framework has been calculated to contain at least 10.0% void space
# The void calculation uses a probe of radius 1.32A, grid spacing 0.4
#
###############################################################################

data_YIZBUH
_chemical_formula_moiety         '(C328 H152 Fe24 O112)n'
_symmetry_cell_setting           triclinic
_symmetry_space_group_name_H-M   'P 1'
_symmetry_Int_Tables_number      1
_space_group_name_Hall           'P 1'
loop_
_symmetry_equiv_pos_site_id
_symmetry_equiv_pos_as_xyz
1 x,y,z
_cell_length_a                   25.2691(7)
_cell_length_b                   33.4387(9)
_cell_length_c                   13.6293(4)
_cell_angle_alpha                90
_cell_angle_beta                 90
_cell_angle_gamma                90
_cell_volume                     11516.3
loop_
_atom_site_label
_atom_site_type_symbol
_atom_site_fract_x
_atom_site_fract_y
_atom_site_fract_z
Fe1 Fe 0.36828(2) 0.76919(2) 0.39829(5)
C1 C 0.55246(19) 0.72731(14) 0.5849(3)
H1 H 0.5336 0.7204 0.6428
Fe2 Fe 0.36273(3) 0.71586(2) 0.59721(5)
C2 C 0.55299(18) 0.74448(14) 0.4145(3)
H2 H 0.5344 0.7493 0.3551
Fe3 Fe 0.75281(2) 0.71845(2) 0.74723(5)
C3 C 0.63456(17) 0.73830(13) 0.5022(3)
H3 H 0.6721 0.7391 0.5036
O1 O 0.33288(12) 0.71599(9) 0.4351(2)
C4 C 0.21295(18) 0.32231(14) 0.6143(3)
O2 O 0.14322(12) 0.27936(9) 0.5626(2)
O3 O 0.21054(12) 0.25101(9) 0.6355(2)
O4 O 0.44527(11) 0.75764(10) 0.4305(2)
O5 O 0.19988(12) 0.31048(9) 0.3664(2)
O6 O 0.61098(12) 0.72640(10) 0.7593(2)
O7 O 0.44098(12) 0.71418(9) 0.5569(2)
O8 O 0.68413(11) 0.71073(9) 0.6724(2)
O9 O 0.61346(12) 0.75161(10) 0.2437(2)
O10 O 0.11864(12) 0.33159(9) 0.3793(2)
O11 O 0.34305(13) 0.65980(9) 0.6262(2)
O12 O 0.26395(13) 0.72679(10) 0.3361(2)
O13 O 0.68271(12) 0.77103(10) 0.3336(2)
O14 O 0.25879(13) 0.66320(10) 0.6764(2)
C5 C 0.60698(17) 0.72909(13) 0.5865(3)
C6 C 0.52503(18) 0.73567(13) 0.4987(3)
C7 C 0.18861(17) 0.28202(13) 0.6049(3)
C8 C 0.46589(18) 0.73564(14) 0.4955(3)
C9 C 0.60799(17) 0.74641(13) 0.4154(3)
C10 C 0.63643(18) 0.72181(14) 0.6796(4)
C11 C 0.63677(17) 0.75711(14) 0.3226(3)
C12 C 0.27654(19) 0.66141(14) 0.3920(3)
C13 C 0.29910(19) 0.64455(14) 0.6509(3)
C14 C 0.2975(2) 0.59991(15) 0.6467(3)
C15 C 0.1666(2) 0.33931(14) 0.3683(3)
C16 C 0.1804(2) 0.35644(14) 0.6046(3)
H4 H 0.1436 0.3538 0.5926
C17 C 0.29121(18) 0.70431(14) 0.3875(3)
C18 C 0.26587(19) 0.32693(14) 0.6334(3)
H5 H 0.2875 0.3039 0.6418
C19 C 0.1838(2) 0.38135(15) 0.3676(3)
C20 C 0.2567(2) 0.39848(15) 0.6297(4)
C21 C 0.3152(2) 0.63299(15) 0.4115(3)
H6 H 0.3502 0.6411 0.4276
C22 C 0.2260(2) 0.64897(15) 0.3694(4)
H7 H 0.1995 0.6682 0.3547
C23 C 0.2479(2) 0.58033(15) 0.6440(4)
H8 H 0.2160 0.5954 0.6458
C24 C 0.3429(2) 0.57733(15) 0.6456(4)
H9 H 0.3763 0.5903 0.6463
C25 C 0.2914(2) 0.51651(16) 0.6395(4)
C26 C 0.2032(2) 0.39356(15) 0.6128(4)
H10 H 0.1815 0.4166 0.6066
C27 C 0.2377(2) 0.39177(16) 0.3782(4)
H11 H 0.2638 0.3714 0.3809
C28 C 0.2887(2) 0.36510(15) 0.6408(4)
H12 H 0.3255 0.3680 0.6532
C29 C 0.2463(2) 0.53908(15) 0.6388(4)
H13 H 0.2130 0.5261 0.6346
C30 C 0.2871(3) 0.47405(16) 0.6358(4)
C31 C 0.1459(2) 0.41174(15) 0.3617(4)
H14 H 0.1096 0.4052 0.3531
C32 C 0.3408(2) 0.53603(16) 0.6433(4)
H15 H 0.3725 0.5209 0.6444
C33 C 0.2767(2) 0.43804(17) 0.6349(4)
C34 C 0.2150(3) 0.46156(17) 0.3787(4)
C35 C 0.3025(2) 0.59230(15) 0.4073(4)
H16 H 0.3290 0.5728 0.4190
C36 C 0.2526(2) 0.43155(17) 0.3847(4)
H17 H 0.2888 0.4383 0.3933
C37 C 0.2135(3) 0.60900(17) 0.3680(4)
H18 H 0.1781 0.6010 0.3543
C38 C 0.2512(3) 0.58046(16) 0.3860(4)
C39 C 0.2291(3) 0.50266(18) 0.3817(4)
C40 C 0.1614(3) 0.45151(17) 0.3684(5)
H19 H 0.1355 0.4721 0.3660
C41 C 0.2384(3) 0.53805(18) 0.3836(4)
Fe4 Fe 0.63172(2) 0.76919(2) 0.10171(5)
Fe5 Fe 0.13172(2) 0.26919(2) 0.39829(5)
Fe6 Fe 0.63727(3) 0.71586(2) 0.90279(5)
Fe7 Fe 0.13727(3) 0.21586(2) 0.59721(5)
Fe8 Fe 0.74719(2) 0.78155(2) 0.24723(5)
Fe9 Fe 0.24719(2) 0.71845(2) 0.75277(5)
Fe10 Fe 0.25281(2) 0.78155(2) 0.25277(5)
Fe11 Fe 0.24719(2) 0.28155(2) 0.25277(5)
Fe12 Fe 0.25281(2) 0.21845(2) 0.75277(5)
O15 O 0.35678(12) 0.77936(9) 0.5626(2)
O16 O 0.71054(12) 0.75101(9) 0.8645(2)
O17 O 0.28946(12) 0.75101(9) 0.6355(2)
O18 O 0.80012(12) 0.68952(9) 0.6336(2)
O19 O 0.30012(12) 0.81048(9) 0.3664(2)
O20 O 0.38902(12) 0.72640(10) 0.7407(2)
O21 O 0.38654(12) 0.75161(10) 0.2563(2)
O22 O 0.38136(12) 0.83159(9) 0.3793(2)
O23 O 0.76395(13) 0.77321(10) 0.6639(2)
O24 O 0.81729(12) 0.72897(10) 0.8336(2)
O25 O 0.74121(13) 0.66320(10) 0.8236(2)
C4_2 C 0.28705(18) 0.17769(14) 0.1143(3)
O2_2 O 0.35678(12) 0.22064(9) 0.0626(2)
O3_2 O 0.28946(12) 0.24899(9) 0.1355(2)
C7_2 C 0.31139(17) 0.21798(13) 0.1049(3)
C16_2 C 0.3196(2) 0.14356(14) 0.1046(3)
H4_2 H 0.3564 0.1462 0.0926
C18_2 C 0.23413(19) 0.17307(14) 0.1334(3)
H5_2 H 0.2125 0.1961 0.1418
C20_2 C 0.2433(2) 0.10152(15) 0.1297(4)
C26_2 C 0.2968(2) 0.10644(15) 0.1128(4)
H10_2 H 0.3185 0.0834 0.1066
C28_2 C 0.2113(2) 0.13490(15) 0.1408(4)
H12_2 H 0.1745 0.1320 0.1532
C30_2 C 0.2129(3) 0.02595(16) 0.1358(4)
C33_2 C 0.2233(2) 0.06196(17) 0.1349(4)
Fe7_2 Fe 0.36273(3) 0.28414(2) 0.09721(5)
O5_2 O 0.30012(12) 0.18952(9) 0.8664(2)
O10_2 O 0.38136(12) 0.16841(9) 0.8793(2)
C15_2 C 0.3334(2) 0.16069(14) 0.8683(3)
C19_2 C 0.3162(2) 0.11865(15) 0.8676(3)
C27_2 C 0.2623(2) 0.10823(16) 0.8782(4)
H11_2 H 0.2362 0.1286 0.8809
C31_2 C 0.3541(2) 0.08826(15) 0.8617(4)
H14_2 H 0.3904 0.0948 0.8531
C34_2 C 0.2850(3) 0.03844(17) 0.8787(4)
C36_2 C 0.2474(2) 0.06845(17) 0.8847(4)
H17_2 H 0.2112 0.0617 0.8933
C40_2 C 0.3386(3) 0.04849(17) 0.8684(5)
H19_2 H 0.3645 0.0279 0.8660
Fe5_2 Fe 0.36828(2) 0.23081(2) 0.89829(5)
Fe2_2 Fe 0.13727(3) 0.78414(2) 0.09721(5)
O7_2 O 0.05902(12) 0.78582(9) 0.0569(2)
O11_2 O 0.15695(13) 0.84020(9) 0.1262(2)
O14_2 O 0.24121(13) 0.83680(10) 0.1764(2)
C13_2 C 0.20090(19) 0.85545(14) 0.1509(3)
C14_2 C 0.2025(2) 0.90009(15) 0.1467(3)
C23_2 C 0.2521(2) 0.91967(15) 0.1440(4)
H8_2 H 0.2840 0.9046 0.1458
C24_2 C 0.1571(2) 0.92267(15) 0.1456(4)
H9_2 H 0.1237 0.9097 0.1463
C25_2 C 0.2086(2) 0.98349(16) 0.1395(4)
C29_2 C 0.2537(2) 0.96092(15) 0.1388(4)
H13_2 H 0.2870 0.9739 0.1346
C32_2 C 0.1592(2) 0.96397(16) 0.1433(4)
H15_2 H 0.1275 0.9791 0.1444
O15_2 O 0.14322(12) 0.72064(9) 0.0626(2)
O17_2 O 0.21054(12) 0.74899(9) 0.1355(2)
O20_2 O 0.11098(12) 0.77360(10) 0.2407(2)
Fe1_2 Fe 0.13172(2) 0.73081(2) 0.89829(5)
O1_2 O 0.16712(12) 0.78401(9) 0.9351(2)
O4_2 O 0.05473(11) 0.74236(10) 0.9305(2)
O12_2 O 0.23605(13) 0.77321(10) 0.8361(2)
C8_2 C 0.03411(18) 0.76436(14) 0.9955(3)
C12_2 C 0.22346(19) 0.83859(14) 0.8920(3)
C17_2 C 0.20879(18) 0.79569(14) 0.8875(3)
C21_2 C 0.1848(2) 0.86701(15) 0.9115(3)
H6_2 H 0.1498 0.8589 0.9276
C22_2 C 0.2740(2) 0.85103(15) 0.8694(4)
H7_2 H 0.3005 0.8318 0.8547
C35_2 C 0.1975(2) 0.90770(15) 0.9073(4)
H16_2 H 0.1710 0.9272 0.9190
C37_2 C 0.2865(3) 0.89100(17) 0.8680(4)
H18_2 H 0.3219 0.8990 0.8543
C38_2 C 0.2488(3) 0.91954(16) 0.8860(4)
C39_2 C 0.2709(3) 0.99734(18) 0.8817(4)
C41_2 C 0.2616(3) 0.96195(18) 0.8836(4)
O19_2 O 0.19988(12) 0.68952(9) 0.8664(2)
O21_2 O 0.11346(12) 0.74839(10) 0.7563(2)
O22_2 O 0.11864(12) 0.66841(9) 0.8793(2)
C1_2 C 0.94754(19) 0.77269(14) 0.0849(3)
H1_2 H 0.9664 0.7796 0.1428
C3_2 C 0.86544(17) 0.76170(13) 0.0022(3)
H3_2 H 0.8279 0.7609 0.0036
O6_2 O 0.88902(12) 0.77360(10) 0.2593(2)
O8_2 O 0.81587(11) 0.78927(9) 0.1724(2)
C5_2 C 0.89302(17) 0.77091(13) 0.0865(3)
C10_2 C 0.86357(18) 0.77819(14) 0.1796(4)
Fe6_2 Fe 0.86273(3) 0.78414(2) 0.40279(5)
O16_2 O 0.78946(12) 0.74899(9) 0.3645(2)
O18_2 O 0.69988(12) 0.81048(9) 0.1336(2)
O23_2 O 0.73605(13) 0.72679(10) 0.1639(2)
O25_2 O 0.75879(13) 0.83680(10) 0.3236(2)
C2_2 C 0.94701(18) 0.75552(14) 0.9145(3)
H2_2 H 0.9656 0.7507 0.8551
O9_2 O 0.88654(12) 0.74839(10) 0.7437(2)
C6_2 C 0.97497(18) 0.76433(13) 0.9987(3)
C9_2 C 0.89201(17) 0.75359(13) 0.9154(3)
C11_2 C 0.86323(17) 0.74289(14) 0.8226(3)
Fe4_2 Fe 0.86828(2) 0.73081(2) 0.60171(5)
C2_3 C 0.44701(18) 0.74448(14) 0.0855(3)
H2_3 H 0.4656 0.7493 0.1449
O1_3 O 0.66712(12) 0.71599(9) 0.0649(2)
O4_3 O 0.55473(11) 0.75764(10) 0.0695(2)
O5_3 O 0.80012(12) 0.31048(9) 0.1336(2)
O10_3 O 0.88136(12) 0.33159(9) 0.1207(2)
O13_2 O 0.31729(12) 0.77103(10) 0.1664(2)
C6_3 C 0.47497(18) 0.73567(13) 0.0013(3)
C8_3 C 0.53411(18) 0.73564(14) 0.0045(3)
C9_3 C 0.39201(17) 0.74641(13) 0.0846(3)
C11_3 C 0.36323(17) 0.75711(14) 0.1774(3)
C12_3 C 0.72346(19) 0.66141(14) 0.1080(3)
C15_3 C 0.8334(2) 0.33931(14) 0.1317(3)
C17_3 C 0.70879(18) 0.70431(14) 0.1125(3)
C19_3 C 0.8162(2) 0.38135(15) 0.1324(3)
C21_3 C 0.6848(2) 0.63299(15) 0.0885(3)
H6_3 H 0.6498 0.6411 0.0724
C22_3 C 0.7740(2) 0.64897(15) 0.1306(4)
H7_3 H 0.8005 0.6682 0.1453
C27_3 C 0.7623(2) 0.39177(16) 0.1218(4)
H11_3 H 0.7362 0.3714 0.1191
C31_3 C 0.8541(2) 0.41174(15) 0.1383(4)
H14_3 H 0.8904 0.4052 0.1469
C34_3 C 0.7850(3) 0.46156(17) 0.1213(4)
C35_3 C 0.6975(2) 0.59230(15) 0.0927(4)
H16_3 H 0.6710 0.5728 0.0810
C36_3 C 0.7474(2) 0.43155(17) 0.1153(4)
H17_3 H 0.7112 0.4383 0.1067
C37_3 C 0.7865(3) 0.60900(17) 0.1320(4)
H18_3 H 0.8219 0.6010 0.1457
C38_3 C 0.7488(3) 0.58046(16) 0.1140(4)
C39_3 C 0.7709(3) 0.50266(18) 0.1183(4)
C40_3 C 0.8386(3) 0.45151(17) 0.1316(5)
H19_3 H 0.8645 0.4721 0.1340
C41_3 C 0.7616(3) 0.53805(18) 0.1164(4)
Fe5_3 Fe 0.86828(2) 0.26919(2) 0.10171(5)
Fe11_2 Fe 0.75281(2) 0.28155(2) 0.24723(5)
O22_3 O 0.61864(12) 0.83159(9) 0.1207(2)
C1_3 C 0.44754(19) 0.72731(14) 0.9151(3)
H1_3 H 0.4664 0.7204 0.8572
C3_3 C 0.36544(17) 0.73830(13) 0.9978(3)
H3_3 H 0.3279 0.7391 0.9964
C4_3 C 0.78705(18) 0.32231(14) 0.8857(3)
O2_3 O 0.85678(12) 0.27936(9) 0.9374(2)
O3_3 O 0.78946(12) 0.25101(9) 0.8645(2)
O7_3 O 0.55902(12) 0.71418(9) 0.9431(2)
O8_3 O 0.31587(11) 0.71073(9) 0.8276(2)
O11_3 O 0.65695(13) 0.65980(9) 0.8738(2)
C5_3 C 0.39302(17) 0.72909(13) 0.9135(3)
C7_3 C 0.81139(17) 0.28202(13) 0.8951(3)
C10_3 C 0.36357(18) 0.72181(14) 0.8204(4)
C13_3 C 0.70090(19) 0.64455(14) 0.8491(3)
C14_3 C 0.7025(2) 0.59991(15) 0.8533(3)
C16_3 C 0.8196(2) 0.35644(14) 0.8954(3)
H4_3 H 0.8564 0.3538 0.9074
C18_3 C 0.73413(19) 0.32693(14) 0.8666(3)
H5_3 H 0.7125 0.3039 0.8582
C20_3 C 0.7433(2) 0.39848(15) 0.8703(4)
C23_3 C 0.7521(2) 0.58033(15) 0.8560(4)
H8_3 H 0.7840 0.5954 0.8542
C24_3 C 0.6571(2) 0.57733(15) 0.8544(4)
H9_3 H 0.6237 0.5903 0.8537
C25_3 C 0.7086(2) 0.51651(16) 0.8605(4)
C26_3 C 0.7968(2) 0.39356(15) 0.8872(4)
H10_3 H 0.8185 0.4166 0.8934
C28_3 C 0.7113(2) 0.36510(15) 0.8592(4)
H12_3 H 0.6745 0.3680 0.8468
C29_3 C 0.7537(2) 0.53908(15) 0.8612(4)
H13_3 H 0.7870 0.5261 0.8654
C30_3 C 0.7129(3) 0.47405(16) 0.8642(4)
C32_3 C 0.6592(2) 0.53603(16) 0.8567(4)
H15_3 H 0.6275 0.5209 0.8556
C33_3 C 0.7233(2) 0.43804(17) 0.8651(4)
Fe7_3 Fe 0.86273(3) 0.21586(2) 0.90279(5)
Fe12_2 Fe 0.74719(2) 0.21845(2) 0.74723(5)
O15_3 O 0.64322(12) 0.77936(9) 0.9374(2)
O24_2 O 0.18271(12) 0.72897(10) 0.6664(2)
C1_4 C 0.05246(19) 0.77269(14) 0.4151(3)
H1_4 H 0.0336 0.7796 0.3572
C2_4 C 0.05299(18) 0.75552(14) 0.5855(3)
H2_4 H 0.0344 0.7507 0.6449
C3_4 C 0.13456(17) 0.76170(13) 0.4978(3)
H3_4 H 0.1721 0.7609 0.4964
O8_4 O 0.18413(11) 0.78927(9) 0.3276(2)
C5_4 C 0.10698(17) 0.77091(13) 0.4135(3)
C6_4 C 0.02503(18) 0.76433(13) 0.5013(3)
C9_4 C 0.10799(17) 0.75359(13) 0.5846(3)
C10_4 C 0.13643(18) 0.77819(14) 0.3204(4)
C11_4 C 0.13677(17) 0.74289(14) 0.6774(3)
C4_4 C 0.71295(18) 0.17769(14) 0.3857(3)
O2_4 O 0.64322(12) 0.22064(9) 0.4374(2)
O3_4 O 0.71054(12) 0.24899(9) 0.3645(2)
O5_4 O 0.69988(12) 0.18952(9) 0.6336(2)
O10_4 O 0.61864(12) 0.16841(9) 0.6207(2)
C7_4 C 0.68861(17) 0.21798(13) 0.3951(3)
C15_4 C 0.6666(2) 0.16069(14) 0.6317(3)
C16_4 C 0.6804(2) 0.14356(14) 0.3954(3)
H4_4 H 0.6436 0.1462 0.4074
C18_4 C 0.76587(19) 0.17307(14) 0.3666(3)
H5_4 H 0.7875 0.1961 0.3582
C19_4 C 0.6838(2) 0.11865(15) 0.6324(3)
C20_4 C 0.7567(2) 0.10152(15) 0.3703(4)
C26_4 C 0.7032(2) 0.10644(15) 0.3872(4)
H10_4 H 0.6815 0.0834 0.3934
C27_4 C 0.7377(2) 0.10823(16) 0.6218(4)
H11_4 H 0.7638 0.1286 0.6191
C28_4 C 0.7887(2) 0.13490(15) 0.3592(4)
H12_4 H 0.8255 0.1320 0.3468
C30_4 C 0.7871(3) 0.02595(16) 0.3642(4)
C31_4 C 0.6459(2) 0.08826(15) 0.6383(4)
H14_4 H 0.6096 0.0948 0.6469
C33_4 C 0.7767(2) 0.06196(17) 0.3651(4)
C34_4 C 0.7150(3) 0.03844(17) 0.6213(4)
C36_4 C 0.7526(2) 0.06845(17) 0.6153(4)
H17_4 H 0.7888 0.0617 0.6067
C40_4 C 0.6614(3) 0.04849(17) 0.6316(5)
H19_4 H 0.6355 0.0279 0.6340
Fe5_4 Fe 0.63172(2) 0.23081(2) 0.60171(5)
Fe7_4 Fe 0.63727(3) 0.28414(2) 0.40279(5)
O1_4 O 0.83288(12) 0.78401(9) 0.5649(2)
O4_4 O 0.94527(11) 0.74236(10) 0.5695(2)
O7_4 O 0.94098(12) 0.78582(9) 0.4431(2)
O11_4 O 0.84305(13) 0.84020(9) 0.3738(2)
C8_4 C 0.96589(18) 0.76436(14) 0.5045(3)
C12_4 C 0.77654(19) 0.83859(14) 0.6080(3)
C13_4 C 0.79910(19) 0.85545(14) 0.3491(3)
C14_4 C 0.7975(2) 0.90009(15) 0.3533(3)
C17_4 C 0.79121(18) 0.79569(14) 0.6125(3)
C21_4 C 0.8152(2) 0.86701(15) 0.5885(3)
H6_4 H 0.8502 0.8589 0.5724
C22_4 C 0.7260(2) 0.85103(15) 0.6306(4)
H7_4 H 0.6995 0.8318 0.6453
C23_4 C 0.7479(2) 0.91967(15) 0.3560(4)
H8_4 H 0.7160 0.9046 0.3542
C24_4 C 0.8429(2) 0.92267(15) 0.3544(4)
H9_4 H 0.8763 0.9097 0.3537
C25_4 C 0.7914(2) 0.98349(16) 0.3605(4)
C29_4 C 0.7463(2) 0.96092(15) 0.3612(4)
H13_4 H 0.7130 0.9739 0.3654
C32_4 C 0.8408(2) 0.96397(16) 0.3567(4)
H15_4 H 0.8725 0.9791 0.3556
C35_4 C 0.8025(2) 0.90770(15) 0.5927(4)
H16_4 H 0.8290 0.9272 0.5810
C37_4 C 0.7135(3) 0.89100(17) 0.6320(4)
H18_4 H 0.6781 0.8990 0.6457
C38_4 C 0.7512(3) 0.91954(16) 0.6140(4)
C39_4 C 0.7291(3) 0.99734(18) 0.6183(4)
C41_4 C 0.7384(3) 0.96195(18) 0.6164(4)
O15_4 O 0.85678(12) 0.72064(9) 0.4374(2)
O22_4 O 0.88136(12) 0.66841(9) 0.6207(2)
C1_5 C 0.44754(19) 0.27269(14) 0.4151(3)
H1_5 H 0.4664 0.2796 0.3572
C2_5 C 0.44701(18) 0.25552(14) 0.5855(3)
H2_5 H 0.4656 0.2507 0.6449
C3_5 C 0.36544(17) 0.26170(13) 0.4978(3)
H3_5 H 0.3279 0.2609 0.4964
O1_5 O 0.66712(12) 0.28401(9) 0.5649(2)
C4_5 C 0.78705(18) 0.67769(14) 0.3857(3)
O4_5 O 0.55473(11) 0.24236(10) 0.5695(2)
O6_3 O 0.38902(12) 0.27360(10) 0.2407(2)
O7_5 O 0.55902(12) 0.28582(9) 0.4431(2)
O8_5 O 0.31587(11) 0.28927(9) 0.3276(2)
O9_3 O 0.38654(12) 0.24839(10) 0.7563(2)
O11_5 O 0.65695(13) 0.34020(9) 0.3738(2)
O12_3 O 0.73605(13) 0.27321(10) 0.6639(2)
O13_3 O 0.31729(12) 0.22897(10) 0.6664(2)
O14_3 O 0.74121(13) 0.33680(10) 0.3236(2)
C5_5 C 0.39302(17) 0.27091(13) 0.4135(3)
C6_5 C 0.47497(18) 0.26433(13) 0.5013(3)
C7_5 C 0.81139(17) 0.71798(13) 0.3951(3)
C8_5 C 0.53411(18) 0.26436(14) 0.5045(3)
C9_5 C 0.39201(17) 0.25359(13) 0.5846(3)
C10_5 C 0.36357(18) 0.27819(14) 0.3204(4)
C11_5 C 0.36323(17) 0.24289(14) 0.6774(3)
C12_5 C 0.72346(19) 0.33859(14) 0.6080(3)
C13_5 C 0.70090(19) 0.35545(14) 0.3491(3)
C14_5 C 0.7025(2) 0.40009(15) 0.3533(3)
C15_5 C 0.8334(2) 0.66069(14) 0.6317(3)
C16_5 C 0.8196(2) 0.64356(14) 0.3954(3)
H4_5 H 0.8564 0.6462 0.4074
C17_5 C 0.70879(18) 0.29569(14) 0.6125(3)
C18_5 C 0.73413(19) 0.67307(14) 0.3666(3)
H5_5 H 0.7125 0.6961 0.3582
C19_5 C 0.8162(2) 0.61865(15) 0.6324(3)
C20_5 C 0.7433(2) 0.60152(15) 0.3703(4)
C21_5 C 0.6848(2) 0.36701(15) 0.5885(3)
H6_5 H 0.6498 0.3589 0.5724
C22_5 C 0.7740(2) 0.35103(15) 0.6306(4)
H7_5 H 0.8005 0.3318 0.6453
C23_5 C 0.7521(2) 0.41967(15) 0.3560(4)
H8_5 H 0.7840 0.4046 0.3542
C24_5 C 0.6571(2) 0.42267(15) 0.3544(4)
H9_5 H 0.6237 0.4097 0.3537
C25_5 C 0.7086(2) 0.48349(16) 0.3605(4)
C26_5 C 0.7968(2) 0.60644(15) 0.3872(4)
H10_5 H 0.8185 0.5834 0.3934
C27_5 C 0.7623(2) 0.60823(16) 0.6218(4)
H11_5 H 0.7362 0.6286 0.6191
C28_5 C 0.7113(2) 0.63490(15) 0.3592(4)
H12_5 H 0.6745 0.6320 0.3468
C29_5 C 0.7537(2) 0.46092(15) 0.3612(4)
H13_5 H 0.7870 0.4739 0.3654
C30_5 C 0.7129(3) 0.52595(16) 0.3642(4)
C31_5 C 0.8541(2) 0.58826(15) 0.6383(4)
H14_5 H 0.8904 0.5948 0.6469
C32_5 C 0.6592(2) 0.46397(16) 0.3567(4)
H15_5 H 0.6275 0.4791 0.3556
C33_5 C 0.7233(2) 0.56196(17) 0.3651(4)
C34_5 C 0.7850(3) 0.53844(17) 0.6213(4)
C35_5 C 0.6975(2) 0.40770(15) 0.5927(4)
H16_5 H 0.6710 0.4272 0.5810
C36_5 C 0.7474(2) 0.56845(17) 0.6153(4)
H17_5 H 0.7112 0.5617 0.6067
C37_5 C 0.7865(3) 0.39100(17) 0.6320(4)
H18_5 H 0.8219 0.3990 0.6457
C38_5 C 0.7488(3) 0.41954(16) 0.6140(4)
C39_5 C 0.7709(3) 0.49734(18) 0.6183(4)
C40_5 C 0.8386(3) 0.54849(17) 0.6316(5)
H19_5 H 0.8645 0.5279 0.6340
C41_5 C 0.7616(3) 0.46195(18) 0.6164(4)
O20_3 O 0.61098(12) 0.27360(10) 0.2593(2)
O21_3 O 0.61346(12) 0.24839(10) 0.7437(2)
O23_3 O 0.23605(13) 0.22679(10) 0.3361(2)
O24_3 O 0.18271(12) 0.27103(10) 0.1664(2)
O25_3 O 0.25879(13) 0.33680(10) 0.1764(2)
C2_6 C 0.05299(18) 0.24448(14) 0.0855(3)
H2_6 H 0.0344 0.2493 0.1449
O9_4 O 0.11346(12) 0.25161(10) 0.2563(2)
C6_6 C 0.02503(18) 0.23567(13) 0.0013(3)
C9_6 C 0.10799(17) 0.24641(13) 0.0846(3)
C11_6 C 0.13677(17) 0.25711(14) 0.1774(3)
C1_6 C 0.05246(19) 0.22731(14) 0.9151(3)
H1_6 H 0.0336 0.2204 0.8572
C3_6 C 0.13456(17) 0.23830(13) 0.9978(3)
H3_6 H 0.1721 0.2391 0.9964
O6_4 O 0.11098(12) 0.22640(10) 0.7407(2)
O8_6 O 0.18413(11) 0.21073(9) 0.8276(2)
C5_6 C 0.10698(17) 0.22909(13) 0.9135(3)
C10_6 C 0.13643(18) 0.22181(14) 0.8204(4)
O23_4 O 0.26395(13) 0.27321(10) 0.8361(2)
O25_4 O 0.24121(13) 0.16320(10) 0.6764(2)
O1_6 O 0.83288(12) 0.21599(9) 0.0649(2)
O4_6 O 0.94527(11) 0.25764(10) 0.0695(2)
O12_4 O 0.76395(13) 0.22679(10) 0.1639(2)
C8_6 C 0.96589(18) 0.23564(14) 0.0045(3)
C12_6 C 0.77654(19) 0.16141(14) 0.1080(3)
C17_6 C 0.79121(18) 0.20431(14) 0.1125(3)
C21_6 C 0.8152(2) 0.13299(15) 0.0885(3)
H6_6 H 0.8502 0.1411 0.0724
C22_6 C 0.7260(2) 0.14897(15) 0.1306(4)
H7_6 H 0.6995 0.1682 0.1453
C35_6 C 0.8025(2) 0.09230(15) 0.0927(4)
H16_6 H 0.8290 0.0728 0.0810
C37_6 C 0.7135(3) 0.10900(17) 0.1320(4)
H18_6 H 0.6781 0.1010 0.1457
C38_6 C 0.7512(3) 0.08046(16) 0.1140(4)
C39_6 C 0.7291(3) 0.00266(18) 0.1183(4)
C41_6 C 0.7384(3) 0.03805(18) 0.1164(4)
O21_4 O 0.88654(12) 0.25161(10) 0.2437(2)
O7_6 O 0.94098(12) 0.21418(9) 0.9431(2)
O11_6 O 0.84305(13) 0.15980(9) 0.8738(2)
O14_4 O 0.75879(13) 0.16320(10) 0.8236(2)
C13_6 C 0.79910(19) 0.14455(14) 0.8491(3)
C14_6 C 0.7975(2) 0.09991(15) 0.8533(3)
C23_6 C 0.7479(2) 0.08033(15) 0.8560(4)
H8_6 H 0.7160 0.0954 0.8542
C24_6 C 0.8429(2) 0.07733(15) 0.8544(4)
H9_6 H 0.8763 0.0903 0.8537
C25_6 C 0.7914(2) 0.01651(16) 0.8605(4)
C29_6 C 0.7463(2) 0.03908(15) 0.8612(4)
H13_6 H 0.7130 0.0261 0.8654
C32_6 C 0.8408(2) 0.03603(16) 0.8567(4)
H15_6 H 0.8725 0.0209 0.8556
O20_4 O 0.88902(12) 0.22640(10) 0.7593(2)
C15_6 C 0.6666(2) 0.83931(14) 0.1317(3)
C19_6 C 0.6838(2) 0.88135(15) 0.1324(3)
C27_6 C 0.7377(2) 0.89177(16) 0.1218(4)
H11_6 H 0.7638 0.8714 0.1191
C31_6 C 0.6459(2) 0.91174(15) 0.1383(4)
H14_6 H 0.6096 0.9052 0.1469
C34_6 C 0.7150(3) 0.96156(17) 0.1213(4)
C36_6 C 0.7526(2) 0.93155(17) 0.1153(4)
H17_6 H 0.7888 0.9383 0.1067
C40_6 C 0.6614(3) 0.95151(17) 0.1316(5)
H19_6 H 0.6355 0.9721 0.1340
C4_6 C 0.71295(18) 0.82231(14) 0.8857(3)
C7_6 C 0.68861(17) 0.78202(13) 0.8951(3)
C16_6 C 0.6804(2) 0.85644(14) 0.8954(3)
H4_6 H 0.6436 0.8538 0.9074
C18_6 C 0.76587(19) 0.82693(14) 0.8666(3)
H5_6 H 0.7875 0.8039 0.8582
C20_6 C 0.7567(2) 0.89848(15) 0.8703(4)
C26_6 C 0.7032(2) 0.89356(15) 0.8872(4)
H10_6 H 0.6815 0.9166 0.8934
C28_6 C 0.7887(2) 0.86510(15) 0.8592(4)
H12_6 H 0.8255 0.8680 0.8468
C30_6 C 0.7871(3) 0.97405(16) 0.8642(4)
C33_6 C 0.7767(2) 0.93804(17) 0.8651(4)
C1_7 C 0.55246(19) 0.27269(14) 0.0849(3)
H1_7 H 0.5336 0.2796 0.1428
C3_7 C 0.63456(17) 0.26170(13) 0.0022(3)
H3_7 H 0.6721 0.2609 0.0036
C4_7 C 0.21295(18) 0.67769(14) 0.1143(3)
O7_7 O 0.44098(12) 0.28582(9) 0.0569(2)
O8_7 O 0.68413(11) 0.28927(9) 0.1724(2)
O11_7 O 0.34305(13) 0.34020(9) 0.1262(2)
C5_7 C 0.60698(17) 0.27091(13) 0.0865(3)
C7_7 C 0.18861(17) 0.71798(13) 0.1049(3)
C10_7 C 0.63643(18) 0.27819(14) 0.1796(4)
C13_7 C 0.29910(19) 0.35545(14) 0.1509(3)
C14_7 C 0.2975(2) 0.40009(15) 0.1467(3)
C16_7 C 0.1804(2) 0.64356(14) 0.1046(3)
H4_7 H 0.1436 0.6462 0.0926
C18_7 C 0.26587(19) 0.67307(14) 0.1334(3)
H5_7 H 0.2875 0.6961 0.1418
C20_7 C 0.2567(2) 0.60152(15) 0.1297(4)
C23_7 C 0.2479(2) 0.41967(15) 0.1440(4)
H8_7 H 0.2160 0.4046 0.1458
C24_7 C 0.3429(2) 0.42267(15) 0.1456(4)
H9_7 H 0.3763 0.4097 0.1463
C25_7 C 0.2914(2) 0.48349(16) 0.1395(4)
C26_7 C 0.2032(2) 0.60644(15) 0.1128(4)
H10_7 H 0.1815 0.5834 0.1066
C28_7 C 0.2887(2) 0.63490(15) 0.1408(4)
H12_7 H 0.3255 0.6320 0.1532
C29_7 C 0.2463(2) 0.46092(15) 0.1388(4)
H13_7 H 0.2130 0.4739 0.1346
C30_7 C 0.2871(3) 0.52595(16) 0.1358(4)
C32_7 C 0.3408(2) 0.46397(16) 0.1433(4)
H15_7 H 0.3725 0.4791 0.1444
C33_7 C 0.2767(2) 0.56196(17) 0.1349(4)
O24_4 O 0.81729(12) 0.27103(10) 0.3336(2)
C2_7 C 0.55299(18) 0.25552(14) 0.9145(3)
H2_7 H 0.5344 0.2507 0.8551
O1_7 O 0.33288(12) 0.28401(9) 0.9351(2)
O4_7 O 0.44527(11) 0.24236(10) 0.9305(2)
O13_4 O 0.68271(12) 0.22897(10) 0.8336(2)
C6_7 C 0.52503(18) 0.26433(13) 0.9987(3)
C8_7 C 0.46589(18) 0.26436(14) 0.9955(3)
C9_7 C 0.60799(17) 0.25359(13) 0.9154(3)
C11_7 C 0.63677(17) 0.24289(14) 0.8226(3)
C12_7 C 0.27654(19) 0.33859(14) 0.8920(3)
C15_7 C 0.1666(2) 0.66069(14) 0.8683(3)
C17_7 C 0.29121(18) 0.29569(14) 0.8875(3)
C19_7 C 0.1838(2) 0.61865(15) 0.8676(3)
C21_7 C 0.3152(2) 0.36701(15) 0.9115(3)
H6_7 H 0.3502 0.3589 0.9276
C22_7 C 0.2260(2) 0.35103(15) 0.8694(4)
H7_7 H 0.1995 0.3318 0.8547
C27_7 C 0.2377(2) 0.60823(16) 0.8782(4)
H11_7 H 0.2638 0.6286 0.8809
C31_7 C 0.1459(2) 0.58826(15) 0.8617(4)
H14_7 H 0.1096 0.5948 0.8531
C34_7 C 0.2150(3) 0.53844(17) 0.8787(4)
C35_7 C 0.3025(2) 0.40770(15) 0.9073(4)
H16_7 H 0.3290 0.4272 0.9190
C36_7 C 0.2526(2) 0.56845(17) 0.8847(4)
H17_7 H 0.2888 0.5617 0.8933
C37_7 C 0.2135(3) 0.39100(17) 0.8680(4)
H18_7 H 0.1781 0.3990 0.8543
C38_7 C 0.2512(3) 0.41954(16) 0.8860(4)
C39_7 C 0.2291(3) 0.49734(18) 0.8817(4)
C40_7 C 0.1614(3) 0.54849(17) 0.8684(5)
H19_7 H 0.1355 0.5279 0.8660
C41_7 C 0.2384(3) 0.46195(18) 0.8836(4)
O1_8 O 0.16712(12) 0.21599(9) 0.4351(2)
O4_8 O 0.05473(11) 0.25764(10) 0.4305(2)
O7_8 O 0.05902(12) 0.21418(9) 0.5569(2)
O11_8 O 0.15695(13) 0.15980(9) 0.6262(2)
C8_8 C 0.03411(18) 0.23564(14) 0.4955(3)
C12_8 C 0.22346(19) 0.16141(14) 0.3920(3)
C13_8 C 0.20090(19) 0.14455(14) 0.6509(3)
C14_8 C 0.2025(2) 0.09991(15) 0.6467(3)
C17_8 C 0.20879(18) 0.20431(14) 0.3875(3)
C21_8 C 0.1848(2) 0.13299(15) 0.4115(3)
H6_8 H 0.1498 0.1411 0.4276
C22_8 C 0.2740(2) 0.14897(15) 0.3694(4)
H7_8 H 0.3005 0.1682 0.3547
C23_8 C 0.2521(2) 0.08033(15) 0.6440(4)
H8_8 H 0.2840 0.0954 0.6458
C24_8 C 0.1571(2) 0.07733(15) 0.6456(4)
H9_8 H 0.1237 0.0903 0.6463
C25_8 C 0.2086(2) 0.01651(16) 0.6395(4)
C29_8 C 0.2537(2) 0.03908(15) 0.6388(4)
H13_8 H 0.2870 0.0261 0.6346
C32_8 C 0.1592(2) 0.03603(16) 0.6433(4)
H15_8 H 0.1275 0.0209 0.6444
C35_8 C 0.1975(2) 0.09230(15) 0.4073(4)
H16_8 H 0.1710 0.0728 0.4190
C37_8 C 0.2865(3) 0.10900(17) 0.3680(4)
H18_8 H 0.3219 0.1010 0.3543
C38_8 C 0.2488(3) 0.08046(16) 0.3860(4)
C39_8 C 0.2709(3) 0.00266(18) 0.3817(4)
C41_8 C 0.2616(3) 0.03805(18) 0.3836(4)
C4_8 C 0.28705(18) 0.82231(14) 0.6143(3)
C7_8 C 0.31139(17) 0.78202(13) 0.6049(3)
C15_8 C 0.3334(2) 0.83931(14) 0.3683(3)
C16_8 C 0.3196(2) 0.85644(14) 0.6046(3)
H4_8 H 0.3564 0.8538 0.5926
C18_8 C 0.23413(19) 0.82693(14) 0.6334(3)
H5_8 H 0.2125 0.8039 0.6418
C19_8 C 0.3162(2) 0.88135(15) 0.3676(3)
C20_8 C 0.2433(2) 0.89848(15) 0.6297(4)
C26_8 C 0.2968(2) 0.89356(15) 0.6128(4)
H10_8 H 0.3185 0.9166 0.6066
C27_8 C 0.2623(2) 0.89177(16) 0.3782(4)
H11_8 H 0.2362 0.8714 0.3809
C28_8 C 0.2113(2) 0.86510(15) 0.6408(4)
H12_8 H 0.1745 0.8680 0.6532
C30_8 C 0.2129(3) 0.97405(16) 0.6358(4)
C31_8 C 0.3541(2) 0.91174(15) 0.3617(4)
H14_8 H 0.3904 0.9052 0.3531
C33_8 C 0.2233(2) 0.93804(17) 0.6349(4)
C34_8 C 0.2850(3) 0.96156(17) 0.3787(4)
C36_8 C 0.2474(2) 0.93155(17) 0.3847(4)
H17_8 H 0.2112 0.9383 0.3933
C40_8 C 0.3386(3) 0.95151(17) 0.3684(5)
H19_8 H 0.3645 0.9721 0.3660
C1_8 C 0.94754(19) 0.22731(14) 0.5849(3)
H1_8 H 0.9664 0.2204 0.6428
C2_8 C 0.94701(18) 0.24448(14) 0.4145(3)
H2_8 H 0.9656 0.2493 0.3551
C3_8 C 0.86544(17) 0.23830(13) 0.5022(3)
H3_8 H 0.8279 0.2391 0.5036
O8_8 O 0.81587(11) 0.21073(9) 0.6724(2)
C5_8 C 0.89302(17) 0.22909(13) 0.5865(3)
C6_8 C 0.97497(18) 0.23567(13) 0.4987(3)
C9_8 C 0.89201(17) 0.24641(13) 0.4154(3)
C10_8 C 0.86357(18) 0.22181(14) 0.6796(4)
C11_8 C 0.86323(17) 0.25711(14) 0.3226(3)
loop_
_geom_bond_atom_site_label_1
_geom_bond_atom_site_label_2
_geom_bond_site_symmetry_1
_geom_bond_site_symmetry_2
Fe1 O1 1_555 1_555
C1 H1 1_555 1_555
Fe2 O1 1_555 1_555
C2 H2 1_555 1_555
Fe3 O8 1_555 1_555
C3 H3 1_555 1_555
O1 C17 1_555 1_555
C4 C7 1_555 1_555
O2 C7 1_555 1_555
O3 C7 1_555 1_555
O4 Fe1 1_555 1_555
O5 C15 1_555 1_555
O6 C10 1_555 1_555
O7 Fe2 1_555 1_555
O8 C10 1_555 1_555
O9 C11 1_555 1_555
O10 C15 1_555 1_555
O11 Fe2 1_555 1_555
O12 C17 1_555 1_555
O13 C11 1_555 1_555
O14 C13 1_555 1_555
C5 C1 1_555 1_555
C6 C1 1_555 1_555
C8 O4 1_555 1_555
C9 C2 1_555 1_555
C10 C5 1_555 1_555
C11 C9 1_555 1_555
C12 C17 1_555 1_555
C13 O11 1_555 1_555
C14 C13 1_555 1_555
C15 C19 1_555 1_555
C16 C4 1_555 1_555
H4 C16 1_555 1_555
C18 C4 1_555 1_555
H5 C18 1_555 1_555
C19 C27 1_555 1_555
C20 C26 1_555 1_555
C21 C12 1_555 1_555
H6 C21 1_555 1_555
C22 C12 1_555 1_555
H7 C22 1_555 1_555
C23 C14 1_555 1_555
H8 C23 1_555 1_555
C24 C14 1_555 1_555
H9 C24 1_555 1_555
C25 C29 1_555 1_555
C26 C16 1_555 1_555
H10 C26 1_555 1_555
C27 H11 1_555 1_555
C28 C18 1_555 1_555
H12 C28 1_555 1_555
C29 C23 1_555 1_555
H13 C29 1_555 1_555
C30 C25 1_555 1_555
C31 C19 1_555 1_555
H14 C31 1_555 1_555
C32 C24 1_555 1_555
H15 C32 1_555 1_555
C33 C20 1_555 1_555
C34 C36 1_555 1_555
C35 C21 1_555 1_555
H16 C35 1_555 1_555
C36 C27 1_555 1_555
H17 C36 1_555 1_555
C37 C22 1_555 1_555
H18 C37 1_555 1_555
C38 C35 1_555 1_555
C39 C34 1_555 1_555
C40 C31 1_555 1_555
H19 C40 1_555 1_555
C41 C38 1_555 1_555
Fe4 O9 1_555 1_555
Fe5 O2 1_555 1_555
Fe6 O6 1_555 1_555
Fe7 O2 1_555 1_555
Fe8 O13 1_555 1_555
Fe9 O14 1_555 1_555
Fe10 O12 1_555 1_555
Fe11 O5 1_555 1_555
Fe12 O3 1_555 1_555
O15 Fe1 1_555 1_555
O16 Fe3 1_555 1_555
O17 Fe2 1_555 1_555
O18 Fe3 1_555 1_555
O19 Fe1 1_555 1_555
O20 Fe2 1_555 1_555
O21 Fe1 1_555 1_555
O22 Fe1 1_555 1_555
O23 Fe3 1_555 1_555
O24 Fe3 1_555 1_555
O25 Fe3 1_555 1_555
Fe2 O15 1_555 1_555
C2 C6 1_555 1_555
C3 C5 1_555 1_555
C3 C9 1_555 1_555
O3 Fe7 1_555 1_555
O5 Fe5 1_555 1_555
O7 C8 1_555 1_555
O10 Fe5 1_555 1_555
C6 C8 1_555 1_555
C20 C28 1_555 1_555
C25 C32 1_555 1_555
C30 C33 1_555 1_555
C34 C40 1_555 1_555
C37 C38 1_555 1_555
C39 C41 1_555 1_555
Fe6 O16 1_555 1_555
Fe9 O17 1_555 1_555
Fe10 O19 1_555 1_555
C4_2 C7_2 1_555 1_555
O2_2 C7_2 1_555 1_555
O3_2 C7_2 1_555 1_555
C16_2 C4_2 1_555 1_555
H4_2 C16_2 1_555 1_555
C18_2 C4_2 1_555 1_555
H5_2 C18_2 1_555 1_555
C20_2 C26_2 1_555 1_555
C26_2 C16_2 1_555 1_555
H10_2 C26_2 1_555 1_555
C28_2 C18_2 1_555 1_555
H12_2 C28_2 1_555 1_555
C33_2 C20_2 1_555 1_555
Fe7_2 O2_2 1_555 1_555
Fe11 O3_2 1_555 1_555
O3_2 Fe7_2 1_555 1_555
C20_2 C28_2 1_555 1_555
C30_2 C33_2 1_555 1_555
O5_2 C15_2 1_555 1_555
O10_2 C15_2 1_555 1_555
C15_2 C19_2 1_555 1_555
C19_2 C27_2 1_555 1_555
C27_2 H11_2 1_555 1_555
C31_2 C19_2 1_555 1_555
H14_2 C31_2 1_555 1_555
C34_2 C36_2 1_555 1_555
C36_2 C27_2 1_555 1_555
H17_2 C36_2 1_555 1_555
C40_2 C31_2 1_555 1_555
H19_2 C40_2 1_555 1_555
Fe12 O5_2 1_555 1_555
O5_2 Fe5_2 1_555 1_555
O10_2 Fe5_2 1_555 1_555
C34_2 C40_2 1_555 1_555
O7_2 Fe2_2 1_555 1_555
O11_2 Fe2_2 1_555 1_555
O14_2 C13_2 1_555 1_555
C13_2 O11_2 1_555 1_555
C14_2 C13_2 1_555 1_555
C23_2 C14_2 1_555 1_555
H8_2 C23_2 1_555 1_555
C24_2 C14_2 1_555 1_555
H9_2 C24_2 1_555 1_555
C25_2 C29_2 1_555 1_555
C29_2 C23_2 1_555 1_555
H13_2 C29_2 1_555 1_555
C32_2 C24_2 1_555 1_555
H15_2 C32_2 1_555 1_555
Fe10 O14_2 1_555 1_555
O17_2 Fe2_2 1_555 1_555
O20_2 Fe2_2 1_555 1_555
Fe2_2 O15_2 1_555 1_555
C25_2 C32_2 1_555 1_555
Fe10 O17_2 1_555 1_555
Fe1_2 O1_2 1_555 1_555
O1_2 C17_2 1_555 1_555
O4_2 Fe1_2 1_555 1_555
O12_2 C17_2 1_555 1_555
C8_2 O4_2 1_555 1_555
C12_2 C17_2 1_555 1_555
C21_2 C12_2 1_555 1_555
H6_2 C21_2 1_555 1_555
C22_2 C12_2 1_555 1_555
H7_2 C22_2 1_555 1_555
C35_2 C21_2 1_555 1_555
H16_2 C35_2 1_555 1_555
C37_2 C22_2 1_555 1_555
H18_2 C37_2 1_555 1_555
C38_2 C35_2 1_555 1_555
C41_2 C38_2 1_555 1_555
Fe9 O12_2 1_555 1_555
O19_2 Fe1_2 1_555 1_555
O21_2 Fe1_2 1_555 1_555
O22_2 Fe1_2 1_555 1_555
C37_2 C38_2 1_555 1_555
C39_2 C41_2 1_555 1_555
Fe9 O19_2 1_555 1_555
C1_2 H1_2 1_555 1_555
Fe8 O8_2 1_555 1_555
C3_2 H3_2 1_555 1_555
O6_2 C10_2 1_555 1_555
O8_2 C10_2 1_555 1_555
C5_2 C1_2 1_555 1_555
C10_2 C5_2 1_555 1_555
Fe6_2 O6_2 1_555 1_555
O16_2 Fe8 1_555 1_555
O18_2 Fe8 1_555 1_555
O23_2 Fe8 1_555 1_555
O25_2 Fe8 1_555 1_555
C3_2 C5_2 1_555 1_555
Fe6_2 O16_2 1_555 1_555
C2_2 H2_2 1_555 1_555
O9_2 C11_2 1_555 1_555
O24 C11_2 1_555 1_555
C9_2 C2_2 1_555 1_555
C11_2 C9_2 1_555 1_555
Fe4_2 O9_2 1_555 1_555
C2_2 C6_2 1_555 1_555
Fe4 O1_3 1_555 1_555
C2_3 H2_3 1_555 1_555
O1_3 C17_3 1_555 1_555
O4_3 Fe4 1_555 1_555
O5_3 C15_3 1_555 1_555
O21 C11_3 1_555 1_555
O10_3 C15_3 1_555 1_555
O23_2 C17_3 1_555 1_555
O13_2 C11_3 1_555 1_555
C8_3 O4_3 1_555 1_555
C9_3 C2_3 1_555 1_555
C11_3 C9_3 1_555 1_555
C12_3 C17_3 1_555 1_555
C15_3 C19_3 1_555 1_555
C19_3 C27_3 1_555 1_555
C21_3 C12_3 1_555 1_555
H6_3 C21_3 1_555 1_555
C22_3 C12_3 1_555 1_555
H7_3 C22_3 1_555 1_555
C27_3 H11_3 1_555 1_555
C31_3 C19_3 1_555 1_555
H14_3 C31_3 1_555 1_555
C34_3 C36_3 1_555 1_555
C35_3 C21_3 1_555 1_555
H16_3 C35_3 1_555 1_555
C36_3 C27_3 1_555 1_555
H17_3 C36_3 1_555 1_555
C37_3 C22_3 1_555 1_555
H18_3 C37_3 1_555 1_555
C38_3 C35_3 1_555 1_555
C39_3 C34_3 1_555 1_555
C40_3 C31_3 1_555 1_555
H19_3 C40_3 1_555 1_555
C41_3 C38_3 1_555 1_555
Fe10 O13_2 1_555 1_555
Fe11_2 O5_3 1_555 1_555
O18_2 Fe4 1_555 1_555
O22_3 Fe4 1_555 1_555
C2_3 C6_3 1_555 1_555
O5_3 Fe5_3 1_555 1_555
O10_3 Fe5_3 1_555 1_555
C6_3 C8_3 1_555 1_555
C34_3 C40_3 1_555 1_555
C37_3 C38_3 1_555 1_555
C39_3 C41_3 1_555 1_555
C1_3 H1_3 1_555 1_555
Fe9 O8_3 1_555 1_555
C3_3 H3_3 1_555 1_555
C4_3 C7_3 1_555 1_555
O2_3 C7_3 1_555 1_555
O3_3 C7_3 1_555 1_555
O20 C10_3 1_555 1_555
O7_3 Fe6 1_555 1_555
O8_3 C10_3 1_555 1_555
O11_3 Fe6 1_555 1_555
O25 C13_3 1_555 1_555
C5_3 C1_3 1_555 1_555
C10_3 C5_3 1_555 1_555
C13_3 O11_3 1_555 1_555
C14_3 C13_3 1_555 1_555
C16_3 C4_3 1_555 1_555
H4_3 C16_3 1_555 1_555
C18_3 C4_3 1_555 1_555
H5_3 C18_3 1_555 1_555
C20_3 C26_3 1_555 1_555
C23_3 C14_3 1_555 1_555
H8_3 C23_3 1_555 1_555
C24_3 C14_3 1_555 1_555
H9_3 C24_3 1_555 1_555
C25_3 C29_3 1_555 1_555
C26_3 C16_3 1_555 1_555
H10_3 C26_3 1_555 1_555
C28_3 C18_3 1_555 1_555
H12_3 C28_3 1_555 1_555
C29_3 C23_3 1_555 1_555
H13_3 C29_3 1_555 1_555
C30_3 C25_3 1_555 1_555
C32_3 C24_3 1_555 1_555
H15_3 C32_3 1_555 1_555
C33_3 C20_3 1_555 1_555
Fe7_3 O2_3 1_555 1_555
Fe12_2 O3_3 1_555 1_555
O24_2 Fe9 1_555 1_555
Fe6 O15_3 1_555 1_555
C3_3 C5_3 1_555 1_555
O3_3 Fe7_3 1_555 1_555
C20_3 C28_3 1_555 1_555
C25_3 C32_3 1_555 1_555
C30_3 C33_3 1_555 1_555
C1_4 H1_4 1_555 1_555
C2_4 H2_4 1_555 1_555
Fe10 O8_4 1_555 1_555
C3_4 H3_4 1_555 1_555
O20_2 C10_4 1_555 1_555
O8_4 C10_4 1_555 1_555
O21_2 C11_4 1_555 1_555
O24_2 C11_4 1_555 1_555
C5_4 C1_4 1_555 1_555
C6_4 C1_4 1_555 1_555
C9_4 C2_4 1_555 1_555
C10_4 C5_4 1_555 1_555
C11_4 C9_4 1_555 1_555
C2_4 C6_4 1_555 1_555
C3_4 C5_4 1_555 1_555
C3_4 C9_4 1_555 1_555
C4_4 C7_4 1_555 1_555
O2_4 C7_4 1_555 1_555
O3_4 C7_4 1_555 1_555
O5_4 C15_4 1_555 1_555
O10_4 C15_4 1_555 1_555
C15_4 C19_4 1_555 1_555
C16_4 C4_4 1_555 1_555
H4_4 C16_4 1_555 1_555
C18_4 C4_4 1_555 1_555
H5_4 C18_4 1_555 1_555
C19_4 C27_4 1_555 1_555
C20_4 C26_4 1_555 1_555
C26_4 C16_4 1_555 1_555
H10_4 C26_4 1_555 1_555
C27_4 H11_4 1_555 1_555
C28_4 C18_4 1_555 1_555
H12_4 C28_4 1_555 1_555
C31_4 C19_4 1_555 1_555
H14_4 C31_4 1_555 1_555
C33_4 C20_4 1_555 1_555
C34_4 C36_4 1_555 1_555
C36_4 C27_4 1_555 1_555
H17_4 C36_4 1_555 1_555
C40_4 C31_4 1_555 1_555
H19_4 C40_4 1_555 1_555
Fe5_4 O2_4 1_555 1_555
Fe7_4 O2_4 1_555 1_555
Fe12_2 O5_4 1_555 1_555
Fe11_2 O3_4 1_555 1_555
O3_4 Fe7_4 1_555 1_555
O5_4 Fe5_4 1_555 1_555
O10_4 Fe5_4 1_555 1_555
C20_4 C28_4 1_555 1_555
C30_4 C33_4 1_555 1_555
C34_4 C40_4 1_555 1_555
Fe4_2 O1_4 1_555 1_555
Fe6_2 O1_4 1_555 1_555
O1_4 C17_4 1_555 1_555
O4_4 Fe4_2 1_555 1_555
O7_4 Fe6_2 1_555 1_555
O11_4 Fe6_2 1_555 1_555
O23 C17_4 1_555 1_555
O25_2 C13_4 1_555 1_555
C8_4 O4_4 1_555 1_555
C12_4 C17_4 1_555 1_555
C13_4 O11_4 1_555 1_555
C14_4 C13_4 1_555 1_555
C21_4 C12_4 1_555 1_555
H6_4 C21_4 1_555 1_555
C22_4 C12_4 1_555 1_555
H7_4 C22_4 1_555 1_555
C23_4 C14_4 1_555 1_555
H8_4 C23_4 1_555 1_555
C24_4 C14_4 1_555 1_555
H9_4 C24_4 1_555 1_555
C25_4 C29_4 1_555 1_555
C29_4 C23_4 1_555 1_555
H13_4 C29_4 1_555 1_555
C32_4 C24_4 1_555 1_555
H15_4 C32_4 1_555 1_555
C35_4 C21_4 1_555 1_555
H16_4 C35_4 1_555 1_555
C37_4 C22_4 1_555 1_555
H18_4 C37_4 1_555 1_555
C38_4 C35_4 1_555 1_555
C41_4 C38_4 1_555 1_555
O15_4 Fe4_2 1_555 1_555
O18 Fe4_2 1_555 1_555
O22_4 Fe4_2 1_555 1_555
Fe6_2 O15_4 1_555 1_555
O7_4 C8_4 1_555 1_555
C25_4 C32_4 1_555 1_555
C37_4 C38_4 1_555 1_555
C39_4 C41_4 1_555 1_555
Fe5_4 O1_5 1_555 1_555
C1_5 H1_5 1_555 1_555
Fe7_4 O1_5 1_555 1_555
C2_5 H2_5 1_555 1_555
Fe11 O8_5 1_555 1_555
C3_5 H3_5 1_555 1_555
O1_5 C17_5 1_555 1_555
C4_5 C7_5 1_555 1_555
O15_4 C7_5 1_555 1_555
O16_2 C7_5 1_555 1_555
O4_5 Fe5_4 1_555 1_555
O18 C15_5 1_555 1_555
O6_3 C10_5 1_555 1_555
O7_5 Fe7_4 1_555 1_555
O8_5 C10_5 1_555 1_555
O9_3 C11_5 1_555 1_555
O22_4 C15_5 1_555 1_555
O11_5 Fe7_4 1_555 1_555
O12_3 C17_5 1_555 1_555
O13_3 C11_5 1_555 1_555
O14_3 C13_5 1_555 1_555
C5_5 C1_5 1_555 1_555
C6_5 C1_5 1_555 1_555
C8_5 O4_5 1_555 1_555
C9_5 C2_5 1_555 1_555
C10_5 C5_5 1_555 1_555
C11_5 C9_5 1_555 1_555
C12_5 C17_5 1_555 1_555
C13_5 O11_5 1_555 1_555
C14_5 C13_5 1_555 1_555
C15_5 C19_5 1_555 1_555
C16_5 C4_5 1_555 1_555
H4_5 C16_5 1_555 1_555
C18_5 C4_5 1_555 1_555
H5_5 C18_5 1_555 1_555
C19_5 C27_5 1_555 1_555
C20_5 C26_5 1_555 1_555
C21_5 C12_5 1_555 1_555
H6_5 C21_5 1_555 1_555
C22_5 C12_5 1_555 1_555
H7_5 C22_5 1_555 1_555
C23_5 C14_5 1_555 1_555
H8_5 C23_5 1_555 1_555
C24_5 C14_5 1_555 1_555
H9_5 C24_5 1_555 1_555
C25_5 C29_5 1_555 1_555
C26_5 C16_5 1_555 1_555
H10_5 C26_5 1_555 1_555
C27_5 H11_5 1_555 1_555
C28_5 C18_5 1_555 1_555
H12_5 C28_5 1_555 1_555
C29_5 C23_5 1_555 1_555
H13_5 C29_5 1_555 1_555
C30_5 C25_5 1_555 1_555
C31_5 C19_5 1_555 1_555
H14_5 C31_5 1_555 1_555
C32_5 C24_5 1_555 1_555
H15_5 C32_5 1_555 1_555
C33_5 C20_5 1_555 1_555
C34_5 C36_5 1_555 1_555
C35_5 C21_5 1_555 1_555
H16_5 C35_5 1_555 1_555
C36_5 C27_5 1_555 1_555
H17_5 C36_5 1_555 1_555
C37_5 C22_5 1_555 1_555
H18_5 C37_5 1_555 1_555
C38_5 C35_5 1_555 1_555
C39_5 C34_5 1_555 1_555
C40_5 C31_5 1_555 1_555
H19_5 C40_5 1_555 1_555
C41_5 C38_5 1_555 1_555
Fe5_2 O9_3 1_555 1_555
Fe7_2 O6_3 1_555 1_555
Fe12 O13_3 1_555 1_555
Fe11_2 O14_3 1_555 1_555
Fe12_2 O12_3 1_555 1_555
O20_3 Fe7_4 1_555 1_555
O21_3 Fe5_4 1_555 1_555
O23_3 Fe11 1_555 1_555
O24_3 Fe11 1_555 1_555
O25_3 Fe11 1_555 1_555
C2_5 C6_5 1_555 1_555
C3_5 C5_5 1_555 1_555
C3_5 C9_5 1_555 1_555
O7_5 C8_5 1_555 1_555
C6_5 C8_5 1_555 1_555
C20_5 C28_5 1_555 1_555
C25_5 C32_5 1_555 1_555
C30_5 C33_5 1_555 1_555
C34_5 C40_5 1_555 1_555
C37_5 C38_5 1_555 1_555
C39_5 C41_5 1_555 1_555
C2_6 H2_6 1_555 1_555
O9_4 C11_6 1_555 1_555
O24_3 C11_6 1_555 1_555
C9_6 C2_6 1_555 1_555
C11_6 C9_6 1_555 1_555
Fe5 O9_4 1_555 1_555
C2_6 C6_6 1_555 1_555
C1_6 H1_6 1_555 1_555
Fe12 O8_6 1_555 1_555
C3_6 H3_6 1_555 1_555
O6_4 C10_6 1_555 1_555
O8_6 C10_6 1_555 1_555
C5_6 C1_6 1_555 1_555
C10_6 C5_6 1_555 1_555
Fe7 O6_4 1_555 1_555
O23_4 Fe12 1_555 1_555
O25_4 Fe12 1_555 1_555
C3_6 C5_6 1_555 1_555
Fe5_3 O1_6 1_555 1_555
O1_6 C17_6 1_555 1_555
O4_6 Fe5_3 1_555 1_555
O12_4 C17_6 1_555 1_555
C8_6 O4_6 1_555 1_555
C12_6 C17_6 1_555 1_555
C21_6 C12_6 1_555 1_555
H6_6 C21_6 1_555 1_555
C22_6 C12_6 1_555 1_555
H7_6 C22_6 1_555 1_555
C35_6 C21_6 1_555 1_555
H16_6 C35_6 1_555 1_555
C37_6 C22_6 1_555 1_555
H18_6 C37_6 1_555 1_555
C38_6 C35_6 1_555 1_555
C41_6 C38_6 1_555 1_555
Fe11_2 O12_4 1_555 1_555
O21_4 Fe5_3 1_555 1_555
C37_6 C38_6 1_555 1_555
C39_6 C41_6 1_555 1_555
O7_6 Fe7_3 1_555 1_555
O11_6 Fe7_3 1_555 1_555
O14_4 C13_6 1_555 1_555
C13_6 O11_6 1_555 1_555
C14_6 C13_6 1_555 1_555
C23_6 C14_6 1_555 1_555
H8_6 C23_6 1_555 1_555
C24_6 C14_6 1_555 1_555
H9_6 C24_6 1_555 1_555
C25_6 C29_6 1_555 1_555
C29_6 C23_6 1_555 1_555
H13_6 C29_6 1_555 1_555
C32_6 C24_6 1_555 1_555
H15_6 C32_6 1_555 1_555
Fe12_2 O14_4 1_555 1_555
O20_4 Fe7_3 1_555 1_555
C25_6 C32_6 1_555 1_555
O18_2 C15_6 1_555 1_555
O22_3 C15_6 1_555 1_555
C15_6 C19_6 1_555 1_555
C19_6 C27_6 1_555 1_555
C27_6 H11_6 1_555 1_555
C31_6 C19_6 1_555 1_555
H14_6 C31_6 1_555 1_555
C34_6 C36_6 1_555 1_555
C36_6 C27_6 1_555 1_555
H17_6 C36_6 1_555 1_555
C40_6 C31_6 1_555 1_555
H19_6 C40_6 1_555 1_555
C34_6 C40_6 1_555 1_555
C4_6 C7_6 1_555 1_555
O15_3 C7_6 1_555 1_555
O16 C7_6 1_555 1_555
C16_6 C4_6 1_555 1_555
H4_6 C16_6 1_555 1_555
C18_6 C4_6 1_555 1_555
H5_6 C18_6 1_555 1_555
C20_6 C26_6 1_555 1_555
C26_6 C16_6 1_555 1_555
H10_6 C26_6 1_555 1_555
C28_6 C18_6 1_555 1_555
H12_6 C28_6 1_555 1_555
C33_6 C20_6 1_555 1_555
C20_6 C28_6 1_555 1_555
C30_6 C33_6 1_555 1_555
C1_7 H1_7 1_555 1_555
Fe11_2 O8_7 1_555 1_555
C3_7 H3_7 1_555 1_555
C4_7 C7_7 1_555 1_555
O15_2 C7_7 1_555 1_555
O17_2 C7_7 1_555 1_555
O20_3 C10_7 1_555 1_555
O7_7 Fe7_2 1_555 1_555
O8_7 C10_7 1_555 1_555
O11_7 Fe7_2 1_555 1_555
O25_3 C13_7 1_555 1_555
C5_7 C1_7 1_555 1_555
C10_7 C5_7 1_555 1_555
C13_7 O11_7 1_555 1_555
C14_7 C13_7 1_555 1_555
C16_7 C4_7 1_555 1_555
H4_7 C16_7 1_555 1_555
C18_7 C4_7 1_555 1_555
H5_7 C18_7 1_555 1_555
C20_7 C26_7 1_555 1_555
C23_7 C14_7 1_555 1_555
H8_7 C23_7 1_555 1_555
C24_7 C14_7 1_555 1_555
H9_7 C24_7 1_555 1_555
C25_7 C29_7 1_555 1_555
C26_7 C16_7 1_555 1_555
H10_7 C26_7 1_555 1_555
C28_7 C18_7 1_555 1_555
H12_7 C28_7 1_555 1_555
C29_7 C23_7 1_555 1_555
H13_7 C29_7 1_555 1_555
C30_7 C25_7 1_555 1_555
C32_7 C24_7 1_555 1_555
H15_7 C32_7 1_555 1_555
C33_7 C20_7 1_555 1_555
O24_4 Fe11_2 1_555 1_555
C3_7 C5_7 1_555 1_555
C20_7 C28_7 1_555 1_555
C25_7 C32_7 1_555 1_555
C30_7 C33_7 1_555 1_555
Fe5_2 O1_7 1_555 1_555
C2_7 H2_7 1_555 1_555
O1_7 C17_7 1_555 1_555
O4_7 Fe5_2 1_555 1_555
O19_2 C15_7 1_555 1_555
O21_3 C11_7 1_555 1_555
O22_2 C15_7 1_555 1_555
O23_4 C17_7 1_555 1_555
O13_4 C11_7 1_555 1_555
C8_7 O4_7 1_555 1_555
C9_7 C2_7 1_555 1_555
C11_7 C9_7 1_555 1_555
C12_7 C17_7 1_555 1_555
C15_7 C19_7 1_555 1_555
C19_7 C27_7 1_555 1_555
C21_7 C12_7 1_555 1_555
H6_7 C21_7 1_555 1_555
C22_7 C12_7 1_555 1_555
H7_7 C22_7 1_555 1_555
C27_7 H11_7 1_555 1_555
C31_7 C19_7 1_555 1_555
H14_7 C31_7 1_555 1_555
C34_7 C36_7 1_555 1_555
C35_7 C21_7 1_555 1_555
H16_7 C35_7 1_555 1_555
C36_7 C27_7 1_555 1_555
H17_7 C36_7 1_555 1_555
C37_7 C22_7 1_555 1_555
H18_7 C37_7 1_555 1_555
C38_7 C35_7 1_555 1_555
C39_7 C34_7 1_555 1_555
C40_7 C31_7 1_555 1_555
H19_7 C40_7 1_555 1_555
C41_7 C38_7 1_555 1_555
Fe12_2 O13_4 1_555 1_555
C2_7 C6_7 1_555 1_555
C6_7 C8_7 1_555 1_555
C34_7 C40_7 1_555 1_555
C37_7 C38_7 1_555 1_555
C39_7 C41_7 1_555 1_555
Fe5 O1_8 1_555 1_555
Fe7 O1_8 1_555 1_555
O1_8 C17_8 1_555 1_555
O4_8 Fe5 1_555 1_555
O7_8 Fe7 1_555 1_555
O11_8 Fe7 1_555 1_555
O23_3 C17_8 1_555 1_555
O25_4 C13_8 1_555 1_555
C8_8 O4_8 1_555 1_555
C12_8 C17_8 1_555 1_555
C13_8 O11_8 1_555 1_555
C14_8 C13_8 1_555 1_555
C21_8 C12_8 1_555 1_555
H6_8 C21_8 1_555 1_555
C22_8 C12_8 1_555 1_555
H7_8 C22_8 1_555 1_555
C23_8 C14_8 1_555 1_555
H8_8 C23_8 1_555 1_555
C24_8 C14_8 1_555 1_555
H9_8 C24_8 1_555 1_555
C25_8 C29_8 1_555 1_555
C29_8 C23_8 1_555 1_555
H13_8 C29_8 1_555 1_555
C32_8 C24_8 1_555 1_555
H15_8 C32_8 1_555 1_555
C35_8 C21_8 1_555 1_555
H16_8 C35_8 1_555 1_555
C37_8 C22_8 1_555 1_555
H18_8 C37_8 1_555 1_555
C38_8 C35_8 1_555 1_555
C41_8 C38_8 1_555 1_555
O7_8 C8_8 1_555 1_555
C25_8 C32_8 1_555 1_555
C37_8 C38_8 1_555 1_555
C39_8 C41_8 1_555 1_555
C4_8 C7_8 1_555 1_555
O15 C7_8 1_555 1_555
O17 C7_8 1_555 1_555
O19 C15_8 1_555 1_555
O22 C15_8 1_555 1_555
C15_8 C19_8 1_555 1_555
C16_8 C4_8 1_555 1_555
H4_8 C16_8 1_555 1_555
C18_8 C4_8 1_555 1_555
H5_8 C18_8 1_555 1_555
C19_8 C27_8 1_555 1_555
C20_8 C26_8 1_555 1_555
C26_8 C16_8 1_555 1_555
H10_8 C26_8 1_555 1_555
C27_8 H11_8 1_555 1_555
C28_8 C18_8 1_555 1_555
H12_8 C28_8 1_555 1_555
C31_8 C19_8 1_555 1_555
H14_8 C31_8 1_555 1_555
C33_8 C20_8 1_555 1_555
C34_8 C36_8 1_555 1_555
C36_8 C27_8 1_555 1_555
H17_8 C36_8 1_555 1_555
C40_8 C31_8 1_555 1_555
H19_8 C40_8 1_555 1_555
C20_8 C28_8 1_555 1_555
C30_8 C33_8 1_555 1_555
C34_8 C40_8 1_555 1_555
C1_8 H1_8 1_555 1_555
C2_8 H2_8 1_555 1_555
Fe12_2 O8_8 1_555 1_555
C3_8 H3_8 1_555 1_555
O20_4 C10_8 1_555 1_555
O8_8 C10_8 1_555 1_555
O21_4 C11_8 1_555 1_555
O24_4 C11_8 1_555 1_555
C5_8 C1_8 1_555 1_555
C6_8 C1_8 1_555 1_555
C9_8 C2_8 1_555 1_555
C10_8 C5_8 1_555 1_555
C11_8 C9_8 1_555 1_555
C2_8 C6_8 1_555 1_555
C3_8 C5_8 1_555 1_555
C3_8 C9_8 1_555 1_555

#END
