
###############################################################################
#
# This file contains modified crystal structure data generated from the
# MOF subset of the Cambridge Structural Database (CSD) v543 
# hosted by the Cambridge Crystallographic Data Centre (CCDC).
#
# This work is licensed under the Creative Commons
# Attribution-NonCommercial-ShareAlike 4.0 International License.
# To view a copy of this license, visit
# http://creativecommons.org/licenses/by-nc-sa/4.0/
# or send a letter to
# Creative Commons, PO Box 1866, Mountain View, CA 94042, USA.
#
# CIF created using the CSD Python API on 29 September 2022
# The structure has been converted into the P1 space group
# The structure has a 3D framework
# The original CSD entry YIZCAN is in the orthorhombic crystal system
# The framework has been calculated to contain at least 10.0% void space
# The void calculation uses a probe of radius 1.32A, grid spacing 0.4
#
###############################################################################

data_YIZCAN
_chemical_formula_moiety         '(C48 H28 Co4 N8 O15)n'
_symmetry_cell_setting           triclinic
_symmetry_space_group_name_H-M   'P 1'
_symmetry_Int_Tables_number      1
_space_group_name_Hall           'P 1'
loop_
_symmetry_equiv_pos_site_id
_symmetry_equiv_pos_as_xyz
1 x,y,z
_cell_length_a                   13.2606(15)
_cell_length_b                   17.5002(17)
_cell_length_c                   7.1051(11)
_cell_angle_alpha                90
_cell_angle_beta                 90
_cell_angle_gamma                90
_cell_volume                     1648.83
loop_
_atom_site_label
_atom_site_type_symbol
_atom_site_fract_x
_atom_site_fract_y
_atom_site_fract_z
Co4 Co 0.04063(8) 0.88552(5) 0.5000
O2 O 0.1022(4) 0.0783(3) 0.5000
O3 O 0.3502(4) 0.2911(3) 0.5000
O4 O 0.5120(4) 0.2666(3) 0.5000
C1 C 0.1694(5) 0.0290(4) 0.5000
C2 C 0.2785(5) 0.0584(4) 0.5000
C3 C 0.2983(5) 0.1367(4) 0.5000
H1 H 0.2462 0.1723 0.5000
C4 C 0.3986(5) 0.1597(4) 0.5000
C5 C 0.4763(6) 0.1063(4) 0.5000
H2 H 0.5425 0.1237 0.5000
C6 C 0.4589(5) 0.0294(4) 0.5000
C7 C 0.3550(5) 0.0049(4) 0.5000
C8 C 0.4212(6) 0.2439(4) 0.5000
O5 O 0.8432(4) 0.0402(3) 0.5000
H8 H 0.6604 0.0470 0.5000
C21 C 0.0422(4) 0.1255(5) 0.0957(14)
H11 H 0.1027 0.1346 0.1583
Co6 Co 0.95937(8) 0.11448(5) 0.5000
Co8 Co 0.45937(8) 0.38552(5) 0.5000
O13 O 0.0120(4) 0.2334(3) 0.5000
C23 C 0.0422(4) 0.1255(5) 0.9043(14)
H13 H 0.1027 0.1346 0.8417
O1 O 0.1568(4) 0.9598(3) 0.5000
N1 N 0.0401(3) 0.8867(2) 0.1968(10)
H3 H 0.3396 0.9530 0.5000
C10 C 0.1247(5) 0.8995(4) 0.0966(12)
H5 H 0.1848 0.9086 0.1602
O6 O 0.8978(4) 0.9217(3) 0.5000
O7 O 0.6498(4) 0.7089(3) 0.5000
O8 O 0.4880(4) 0.7334(3) 0.5000
C11 C 0.8306(5) 0.9710(4) 0.5000
C12 C 0.7215(5) 0.9416(4) 0.5000
C13 C 0.7017(5) 0.8633(4) 0.5000
H6 H 0.7538 0.8277 0.5000
C14 C 0.6014(5) 0.8403(4) 0.5000
C15 C 0.5237(6) 0.8937(4) 0.5000
H7 H 0.4575 0.8763 0.5000
C16 C 0.5411(5) 0.9706(4) 0.5000
C17 C 0.6450(5) 0.9951(4) 0.5000
C18 C 0.5788(6) 0.7561(4) 0.5000
Co7 Co 0.54063(8) 0.61448(5) 0.5000
O12 O 0.1498(4) 0.7911(3) 0.5000
N6 N 0.0401(3) 0.8867(2) 0.8032(10)
C20 C 0.1247(5) 0.8995(4) 0.9034(12)
H10 H 0.1848 0.9086 0.8398
N3 N 0.9599(3) 0.1133(2) 0.1968(10)
C22 C 0.8753(5) 0.1005(4) 0.0966(12)
H12 H 0.8152 0.0914 0.1602
O11 O 0.8502(4) 0.2089(3) 0.5000
N5 N 0.9599(3) 0.1133(2) 0.8032(10)
C24 C 0.8753(5) 0.1005(4) 0.9034(12)
H14 H 0.8152 0.0914 0.8398
C9 C 0.9578(4) 0.8745(5) 0.0957(14)
H4 H 0.8973 0.8654 0.1583
O14 O 0.9880(4) 0.7666(3) 0.5000
C19 C 0.9578(4) 0.8745(5) 0.9043(14)
H9 H 0.8973 0.8654 0.8417
H2_2 H 0.0425 0.3763 0.5000
O5_2 O 0.3432(4) 0.4598(3) 0.5000
O6_2 O 0.3978(4) 0.5783(3) 0.5000
C11_2 C 0.3306(5) 0.5290(4) 0.5000
C12_2 C 0.2215(5) 0.5584(4) 0.5000
C13_2 C 0.2017(5) 0.6367(4) 0.5000
H6_2 H 0.2538 0.6723 0.5000
C14_2 C 0.1014(5) 0.6597(4) 0.5000
C15_2 C 0.0237(6) 0.6063(4) 0.5000
C16_2 C 0.0411(5) 0.5294(4) 0.5000
C17_2 C 0.1450(5) 0.5049(4) 0.5000
H8_2 H 0.1604 0.4530 0.5000
C18_2 C 0.0788(6) 0.7439(4) 0.5000
N2 N 0.5401(3) 0.6133(2) 0.1968(10)
C19_2 C 0.4578(4) 0.6255(5) 0.0957(14)
H9_2 H 0.3973 0.6346 0.1583
C20_2 C 0.6247(5) 0.6005(4) 0.0966(12)
H10_2 H 0.6848 0.5914 0.1602
N4 N 0.4599(3) 0.3867(2) 0.1968(10)
C23_2 C 0.5422(4) 0.3745(5) 0.0957(14)
H13_2 H 0.6027 0.3654 0.1583
C24_2 C 0.3753(5) 0.3995(4) 0.0966(12)
H14_2 H 0.3152 0.4086 0.1602
O1_2 O 0.6568(4) 0.5402(3) 0.5000
O2_2 O 0.6022(4) 0.4217(3) 0.5000
N1_2 N 0.5401(3) 0.6133(2) 0.8032(10)
C1_2 C 0.6694(5) 0.4710(4) 0.5000
C2_2 C 0.7785(5) 0.4416(4) 0.5000
C3_2 C 0.7983(5) 0.3633(4) 0.5000
H1_2 H 0.7462 0.3277 0.5000
C4_2 C 0.8986(5) 0.3403(4) 0.5000
C5_2 C 0.9763(6) 0.3937(4) 0.5000
C6_2 C 0.9589(5) 0.4706(4) 0.5000
C7_2 C 0.8550(5) 0.4951(4) 0.5000
H3_2 H 0.8396 0.5470 0.5000
C8_2 C 0.9212(6) 0.2561(4) 0.5000
C9_2 C 0.4578(4) 0.6255(5) 0.9043(14)
H4_2 H 0.3973 0.6346 0.8417
C10_2 C 0.6247(5) 0.6005(4) 0.9034(12)
H5_2 H 0.6848 0.5914 0.8398
H7_2 H 0.9575 0.6237 0.5000
N3_2 N 0.4599(3) 0.3867(2) 0.8032(10)
C21_2 C 0.5422(4) 0.3745(5) 0.9043(14)
H11_2 H 0.6027 0.3654 0.8417
C22_2 C 0.3753(5) 0.3995(4) 0.9034(12)
H12_2 H 0.3152 0.4086 0.8398
loop_
_geom_bond_atom_site_label_1
_geom_bond_atom_site_label_2
_geom_bond_site_symmetry_1
_geom_bond_site_symmetry_2
O2 C1 1_555 1_555
O3 C8 1_555 1_555
O4 C8 1_555 1_555
C1 C2 1_555 1_555
C2 C3 1_555 1_555
C3 H1 1_555 1_555
C4 C3 1_555 1_555
C5 C4 1_555 1_555
H2 C5 1_555 1_555
C6 C5 1_555 1_555
C7 C2 1_555 1_555
C8 C4 1_555 1_555
H11 C21 1_555 1_555
Co6 O5 1_555 1_555
Co8 O3 1_555 1_555
O4 Co8 1_555 1_555
C6 C7 1_555 1_555
H13 C23 1_555 1_555
Co4 O1 1_555 1_555
N1 Co4 1_555 1_555
C10 N1 1_555 1_555
H5 C10 1_555 1_555
O6 C11 1_555 1_555
O7 C18 1_555 1_555
O8 C18 1_555 1_555
C11 C12 1_555 1_555
C12 C13 1_555 1_555
C13 H6 1_555 1_555
C14 C13 1_555 1_555
C15 C14 1_555 1_555
H7 C15 1_555 1_555
C17 C12 1_555 1_555
C18 C14 1_555 1_555
Co7 O7 1_555 1_555
O12 Co4 1_555 1_555
N6 Co4 1_555 1_555
O8 Co7 1_555 1_555
C15 C16 1_555 1_555
C16 C17 1_555 1_555
H10 C20 1_555 1_555
N6 C20 1_555 1_555
N3 Co6 1_555 1_555
C22 N3 1_555 1_555
H12 C22 1_555 1_555
O11 Co6 1_555 1_555
N5 Co6 1_555 1_555
H14 C24 1_555 1_555
N5 C24 1_555 1_555
H4 C9 1_555 1_555
H9 C19 1_555 1_555
O5_2 C11_2 1_555 1_555
O6_2 C11_2 1_555 1_555
O12 C18_2 1_555 1_555
C11_2 C12_2 1_555 1_555
C12_2 C13_2 1_555 1_555
C13_2 H6_2 1_555 1_555
C14_2 C13_2 1_555 1_555
C15_2 C14_2 1_555 1_555
C17_2 C12_2 1_555 1_555
H8_2 C17_2 1_555 1_555
C18_2 C14_2 1_555 1_555
Co7 O6_2 1_555 1_555
Co8 O5_2 1_555 1_555
C15_2 C16_2 1_555 1_555
C16_2 C17_2 1_555 1_555
N2 C19_2 1_555 1_555
H9_2 C19_2 1_555 1_555
H10_2 C20_2 1_555 1_555
N4 C23_2 1_555 1_555
H13_2 C23_2 1_555 1_555
H14_2 C24_2 1_555 1_555
Co7 N2 1_555 1_555
Co8 N4 1_555 1_555
N2 C20_2 1_555 1_555
N4 C24_2 1_555 1_555
Co7 O1_2 1_555 1_555
O1_2 C1_2 1_555 1_555
O2_2 C1_2 1_555 1_555
O11 C8_2 1_555 1_555
N1_2 Co7 1_555 1_555
C1_2 C2_2 1_555 1_555
C2_2 C3_2 1_555 1_555
C3_2 H1_2 1_555 1_555
C4_2 C3_2 1_555 1_555
C5_2 C4_2 1_555 1_555
C6_2 C5_2 1_555 1_555
C7_2 C2_2 1_555 1_555
H3_2 C7_2 1_555 1_555
C8_2 C4_2 1_555 1_555
C9_2 N1_2 1_555 1_555
H4_2 C9_2 1_555 1_555
C10_2 N1_2 1_555 1_555
H5_2 C10_2 1_555 1_555
Co8 O2_2 1_555 1_555
N3_2 Co8 1_555 1_555
C21_2 N3_2 1_555 1_555
H11_2 C21_2 1_555 1_555
C22_2 N3_2 1_555 1_555
H12_2 C22_2 1_555 1_555
C6_2 C7_2 1_555 1_555

#END
