
###############################################################################
#
# This file contains modified crystal structure data generated from the
# MOF subset of the Cambridge Structural Database (CSD) v543 
# hosted by the Cambridge Crystallographic Data Centre (CCDC).
#
# This work is licensed under the Creative Commons
# Attribution-NonCommercial-ShareAlike 4.0 International License.
# To view a copy of this license, visit
# http://creativecommons.org/licenses/by-nc-sa/4.0/
# or send a letter to
# Creative Commons, PO Box 1866, Mountain View, CA 94042, USA.
#
# CIF created using the CSD Python API on 29 September 2022
# The structure has been converted into the P1 space group
# The structure has a 3D framework
# The original CSD entry YIZYEO is in the monoclinic crystal system
# The framework has been calculated to contain at least 10.0% void space
# The void calculation uses a probe of radius 1.32A, grid spacing 0.4
# The framework is charged, counterions have been retained in the structure
#
###############################################################################

data_YIZYEO
_chemical_formula_moiety         '(C72 H40 Co8 N22 O21 2-)n'
_symmetry_cell_setting           triclinic
_symmetry_space_group_name_H-M   'P 1'
_symmetry_Int_Tables_number      1
_space_group_name_Hall           'P 1'
loop_
_symmetry_equiv_pos_site_id
_symmetry_equiv_pos_as_xyz
1 x,y,z
_cell_length_a                   16.9139(17)
_cell_length_b                   20.364(2)
_cell_length_c                   12.255(2)
_cell_angle_alpha                90
_cell_angle_beta                 124.4410(10)
_cell_angle_gamma                90
_cell_volume                     3481.14
loop_
_atom_site_label
_atom_site_type_symbol
_atom_site_fract_x
_atom_site_fract_y
_atom_site_fract_z
Co1 Co 0.08957(3) 0.000000 0.12867(4)
Co2 Co 0.500000 0.08783(2) 0.500000
H1 H 0.204328 0.154864 0.042144
C9 C 0.29138(14) 0.05206(10) 0.3328(2)
N1 N 0.23104(16) -0.000000 0.2780(2)
N2 N 0.38181(11) 0.03458(8) 0.41218(16)
N3 N 0.26101(13) 0.11584(8) 0.30564(19)
H4 H 0.302021 0.147297 0.341298
H5 H 0.200887 0.124516 0.252884
O1 O 0.09517(11) 0.06846(8) 0.00813(16)
C10 C 0.46161(16) 0.40327(11) 0.1002(2)
C11 C 0.42817(15) 0.34090(11) 0.1267(2)
C12 C 0.33520(16) 0.31980(11) 0.0330(2)
C13 C 0.29989(16) 0.26110(11) 0.0496(2)
C14 C 0.36288(17) 0.22446(12) 0.1625(2)
H7 H 0.341720 0.184969 0.175510
C15 C 0.45617(16) 0.24470(12) 0.2564(2)
C16 C 0.48882(16) 0.30364(12) 0.2390(2)
H8 H 0.550768 0.318037 0.301977
C17 C 0.51908(17) 0.20100(12) 0.3739(3)
O6 O 0.54498(11) 0.42393(8) 0.18752(16)
O7 O 0.48369(13) 0.14382(8) 0.36224(18)
O8 O 0.59725(12) 0.21968(10) 0.46909(19)
Co4 Co 0.58957(3) 0.500000 0.12867(4)
N6 N 0.61819(11) 0.03458(8) 0.58782(16)
O10 O 0.04498(11) 0.07607(8) 0.18752(16)
O12 O 0.51631(13) 0.14382(8) 0.63776(18)
C1 C 0.03839(16) 0.09673(11) 0.8998(2)
C2 C 0.07183(15) 0.15910(11) 0.8733(2)
C3 C 0.16480(16) 0.18020(11) 0.9670(2)
C4 C 0.20011(16) 0.23890(11) 0.9504(2)
C5 C 0.13712(17) 0.27554(12) 0.8375(2)
H2 H 0.158280 0.315031 0.824490
C6 C 0.04383(16) 0.25530(12) 0.7436(2)
C7 C 0.01118(16) 0.19636(12) 0.7610(2)
O3 O 0.01631(13) 0.35618(8) 0.63776(18)
H6 H 0.295672 0.345136 0.957856
O5 O 0.40483(11) 0.43154(8) 0.99187(16)
Co5 Co 0.41043(3) 0.500000 0.87133(4)
Co7 Co 0.000000 0.41217(2) 0.500000
Co1_2 Co 0.08957(3) 1.000000 0.12867(4)
N1_2 N 0.23104(16) 1.000000 0.2780(2)
C18 C 0.29138(14) 0.94794(10) 0.3328(2)
N4 N 0.38181(11) 0.96542(8) 0.41218(16)
N5 N 0.26101(13) 0.88416(8) 0.30564(19)
H9 H 0.302021 0.852703 0.341298
H10 H 0.200887 0.875484 0.252884
Co6 Co 0.500000 0.91217(2) 0.500000
O9 O 0.09517(11) 0.93154(8) 0.00813(16)
O11 O 0.04498(11) 0.92393(8) 0.18752(16)
H3 H 0.949232 0.181963 0.698023
C8 C 0.98092(17) 0.29900(12) 0.6261(3)
O2 O 0.95502(11) 0.07607(8) 0.81248(16)
O4 O 0.90275(12) 0.28032(10) 0.53091(19)
Co3 Co 0.91043(3) -0.000000 0.87133(4)
Co7_2 Co 1.000000 0.41217(2) 0.500000
Co3_2 Co 0.91043(3) 1.000000 0.87133(4)
H3_2 H 0.050768 0.181963 0.301977
C8_2 C 0.01908(17) 0.29900(12) 0.3739(3)
O4_2 O 0.09725(12) 0.28032(10) 0.46909(19)
C1_2 C 0.96161(16) 0.09673(11) 0.1002(2)
C2_2 C 0.92817(15) 0.15910(11) 0.1267(2)
C3_2 C 0.83520(16) 0.18020(11) 0.0330(2)
C4_2 C 0.79989(16) 0.23890(11) 0.0496(2)
C5_2 C 0.86288(17) 0.27554(12) 0.1625(2)
H2_2 H 0.841720 0.315031 0.175510
C6_2 C 0.95617(16) 0.25530(12) 0.2564(2)
C7_2 C 0.98882(16) 0.19636(12) 0.2390(2)
O3_2 O 0.98369(13) 0.35618(8) 0.36224(18)
H6_2 H 0.704328 0.345136 0.042144
O5_2 O 0.59517(11) 0.43154(8) 0.00813(16)
H1_2 H 0.795672 0.154864 0.957856
C9_2 C 0.70862(14) 0.05206(10) 0.6672(2)
N1_3 N 0.76896(16) -0.000000 0.7220(2)
N3_2 N 0.73899(13) 0.11584(8) 0.69436(19)
H4_2 H 0.697979 0.147297 0.658702
H5_2 H 0.799113 0.124516 0.747116
O1_2 O 0.90483(11) 0.06846(8) 0.99187(16)
C10_2 C 0.53839(16) 0.40327(11) 0.8998(2)
C11_2 C 0.57183(15) 0.34090(11) 0.8733(2)
C12_2 C 0.66480(16) 0.31980(11) 0.9670(2)
C13_2 C 0.70011(16) 0.26110(11) 0.9504(2)
C14_2 C 0.63712(17) 0.22446(12) 0.8375(2)
H7_2 H 0.658280 0.184969 0.824490
C15_2 C 0.54383(16) 0.24470(12) 0.7436(2)
C16_2 C 0.51118(16) 0.30364(12) 0.7610(2)
H8_2 H 0.449232 0.318037 0.698023
C17_2 C 0.48092(17) 0.20100(12) 0.6261(3)
O6_2 O 0.45502(11) 0.42393(8) 0.81248(16)
O8_2 O 0.40275(12) 0.21968(10) 0.53091(19)
N1_4 N 0.76896(16) 1.000000 0.7220(2)
C18_2 C 0.70862(14) 0.94794(10) 0.6672(2)
N4_2 N 0.61819(11) 0.96542(8) 0.58782(16)
N5_2 N 0.73899(13) 0.88416(8) 0.69436(19)
H9_2 H 0.697979 0.852703 0.658702
H10_2 H 0.799113 0.875484 0.747116
O9_2 O 0.90483(11) 0.93154(8) 0.99187(16)
O11_2 O 0.95502(11) 0.92393(8) 0.81248(16)
Co2_2 Co 0.000000 0.58783(2) 0.500000
H8_3 H 0.050768 0.818037 0.301977
C17_3 C 0.01908(17) 0.70100(12) 0.3739(3)
O8_3 O 0.09725(12) 0.71968(10) 0.46909(19)
N6_2 N 0.11819(11) 0.53458(8) 0.58782(16)
O12_2 O 0.01631(13) 0.64382(8) 0.63776(18)
Co2_3 Co 1.000000 0.58783(2) 0.500000
H1_3 H 0.704328 0.654864 0.042144
C9_3 C 0.79138(14) 0.55206(10) 0.3328(2)
N1_5 N 0.73104(16) 0.500000 0.2780(2)
N2_2 N 0.88181(11) 0.53458(8) 0.41218(16)
N3_3 N 0.76101(13) 0.61584(8) 0.30564(19)
H4_3 H 0.802021 0.647297 0.341298
H5_3 H 0.700887 0.624516 0.252884
O1_3 O 0.59517(11) 0.56846(8) 0.00813(16)
C10_3 C 0.96161(16) 0.90327(11) 0.1002(2)
C11_3 C 0.92817(15) 0.84090(11) 0.1267(2)
C12_3 C 0.83520(16) 0.81980(11) 0.0330(2)
C13_3 C 0.79989(16) 0.76110(11) 0.0496(2)
C14_3 C 0.86288(17) 0.72446(12) 0.1625(2)
H7_3 H 0.841720 0.684969 0.175510
C15_3 C 0.95617(16) 0.74470(12) 0.2564(2)
C16_3 C 0.98882(16) 0.80364(12) 0.2390(2)
O7_2 O 0.98369(13) 0.64382(8) 0.36224(18)
C18_3 C 0.79138(14) 0.44794(10) 0.3328(2)
N4_3 N 0.88181(11) 0.46542(8) 0.41218(16)
N5_3 N 0.76101(13) 0.38416(8) 0.30564(19)
H9_3 H 0.802021 0.352703 0.341298
H10_3 H 0.700887 0.375484 0.252884
O10_2 O 0.54498(11) 0.57607(8) 0.18752(16)
C1_3 C 0.53839(16) 0.59673(11) 0.8998(2)
C2_3 C 0.57183(15) 0.65910(11) 0.8733(2)
C3_3 C 0.66480(16) 0.68020(11) 0.9670(2)
C4_3 C 0.70011(16) 0.73890(11) 0.9504(2)
C5_3 C 0.63712(17) 0.77554(12) 0.8375(2)
H2_3 H 0.658280 0.815031 0.824490
C6_3 C 0.54383(16) 0.75530(12) 0.7436(2)
C7_3 C 0.51118(16) 0.69636(12) 0.7610(2)
H3_3 H 0.449232 0.681963 0.698023
C8_3 C 0.48092(17) 0.79900(12) 0.6261(3)
O2_2 O 0.45502(11) 0.57607(8) 0.81248(16)
O3_3 O 0.51631(13) 0.85618(8) 0.63776(18)
O4_3 O 0.40275(12) 0.78032(10) 0.53091(19)
H6_3 H 0.795672 0.845136 0.957856
C1_4 C 0.46161(16) 0.59673(11) 0.1002(2)
C2_4 C 0.42817(15) 0.65910(11) 0.1267(2)
C3_4 C 0.33520(16) 0.68020(11) 0.0330(2)
C4_4 C 0.29989(16) 0.73890(11) 0.0496(2)
C5_4 C 0.36288(17) 0.77554(12) 0.1625(2)
H2_4 H 0.341720 0.815031 0.175510
C6_4 C 0.45617(16) 0.75530(12) 0.2564(2)
C7_4 C 0.48882(16) 0.69636(12) 0.2390(2)
H3_4 H 0.550768 0.681963 0.301977
C8_4 C 0.51908(17) 0.79900(12) 0.3739(3)
O3_4 O 0.48369(13) 0.85618(8) 0.36224(18)
O4_4 O 0.59725(12) 0.78032(10) 0.46909(19)
H6_4 H 0.204328 0.845136 0.042144
H1_4 H 0.295672 0.654864 0.957856
C9_4 C 0.20862(14) 0.55206(10) 0.6672(2)
N1_6 N 0.26896(16) 0.500000 0.7220(2)
N3_4 N 0.23899(13) 0.61584(8) 0.69436(19)
H4_4 H 0.197979 0.647297 0.658702
H5_4 H 0.299113 0.624516 0.747116
O1_4 O 0.40483(11) 0.56846(8) 0.99187(16)
C10_4 C 0.03839(16) 0.90327(11) 0.8998(2)
C11_4 C 0.07183(15) 0.84090(11) 0.8733(2)
C12_4 C 0.16480(16) 0.81980(11) 0.9670(2)
C13_4 C 0.20011(16) 0.76110(11) 0.9504(2)
C14_4 C 0.13712(17) 0.72446(12) 0.8375(2)
H7_4 H 0.158280 0.684969 0.824490
C15_4 C 0.04383(16) 0.74470(12) 0.7436(2)
C16_4 C 0.01118(16) 0.80364(12) 0.7610(2)
C18_4 C 0.20862(14) 0.44794(10) 0.6672(2)
N4_4 N 0.11819(11) 0.46542(8) 0.58782(16)
N5_4 N 0.23899(13) 0.38416(8) 0.69436(19)
H9_4 H 0.197979 0.352703 0.658702
H10_4 H 0.299113 0.375484 0.747116
H8_4 H 0.949232 0.818037 0.698023
C17_4 C 0.98092(17) 0.70100(12) 0.6261(3)
O8_4 O 0.90275(12) 0.71968(10) 0.53091(19)
loop_
_geom_bond_atom_site_label_1
_geom_bond_atom_site_label_2
_geom_bond_site_symmetry_1
_geom_bond_site_symmetry_2
Co1 N1 1_555 1_555
Co2 N2 1_555 1_555
C9 N1 1_555 1_555
N2 C9 1_555 1_555
N3 C9 1_555 1_555
H4 N3 1_555 1_555
H5 N3 1_555 1_555
O1 Co1 1_555 1_555
C10 C11 1_555 1_555
C11 C12 1_555 1_555
C14 C13 1_555 1_555
H7 C14 1_555 1_555
C15 C14 1_555 1_555
C16 C11 1_555 1_555
H8 C16 1_555 1_555
C17 C15 1_555 1_555
O6 C10 1_555 1_555
O7 Co2 1_555 1_555
O8 C17 1_555 1_555
Co4 O6 1_555 1_555
N6 Co2 1_555 1_555
O10 Co1 1_555 1_555
O12 Co2 1_555 1_555
C12 C13 1_555 1_555
C15 C16 1_555 1_555
C17 O7 1_555 1_555
C1 C2 1_555 1_555
C2 C3 1_555 1_555
C4 C3 1_555 1_555
C5 C4 1_555 1_555
H2 C5 1_555 1_555
C6 C5 1_555 1_555
C7 C2 1_555 1_555
Co5 O5 1_555 1_555
Co7 O3 1_555 1_555
C6 C7 1_555 1_555
Co1_2 N1_2 1_555 1_555
N1_2 C18 1_555 1_555
C18 N4 1_555 1_555
N5 C18 1_555 1_555
H9 N5 1_555 1_555
H10 N5 1_555 1_555
Co6 N4 1_555 1_555
O9 Co1_2 1_555 1_555
O11 Co1_2 1_555 1_555
O4 C8 1_555 1_555
O2 Co3 1_555 1_555
O4_2 C8_2 1_555 1_555
C1_2 C2_2 1_555 1_555
C2_2 C3_2 1_555 1_555
C4_2 C3_2 1_555 1_555
C5_2 C4_2 1_555 1_555
H2_2 C5_2 1_555 1_555
C6_2 C5_2 1_555 1_555
C7_2 C2_2 1_555 1_555
Co4 O5_2 1_555 1_555
Co7_2 O3_2 1_555 1_555
C6_2 C7_2 1_555 1_555
Co3 N1_3 1_555 1_555
C9_2 N1_3 1_555 1_555
N6 C9_2 1_555 1_555
N3_2 C9_2 1_555 1_555
H4_2 N3_2 1_555 1_555
H5_2 N3_2 1_555 1_555
O1_2 Co3 1_555 1_555
C10_2 C11_2 1_555 1_555
C11_2 C12_2 1_555 1_555
C14_2 C13_2 1_555 1_555
H7_2 C14_2 1_555 1_555
C15_2 C14_2 1_555 1_555
C16_2 C11_2 1_555 1_555
H8_2 C16_2 1_555 1_555
C17_2 C15_2 1_555 1_555
O6_2 C10_2 1_555 1_555
O8_2 C17_2 1_555 1_555
Co5 O6_2 1_555 1_555
C12_2 C13_2 1_555 1_555
C15_2 C16_2 1_555 1_555
C17_2 O12 1_555 1_555
Co3_2 N1_4 1_555 1_555
N1_4 C18_2 1_555 1_555
C18_2 N4_2 1_555 1_555
N5_2 C18_2 1_555 1_555
H9_2 N5_2 1_555 1_555
H10_2 N5_2 1_555 1_555
Co6 N4_2 1_555 1_555
O9_2 Co3_2 1_555 1_555
O11_2 Co3_2 1_555 1_555
O8_3 C17_3 1_555 1_555
N6_2 Co2_2 1_555 1_555
O12_2 Co2_2 1_555 1_555
Co4 N1_5 1_555 1_555
Co2_3 N2_2 1_555 1_555
C9_3 N1_5 1_555 1_555
N1_5 C18_3 1_555 1_555
N2_2 C9_3 1_555 1_555
N3_3 C9_3 1_555 1_555
H4_3 N3_3 1_555 1_555
H5_3 N3_3 1_555 1_555
O1_3 Co4 1_555 1_555
C10_3 C11_3 1_555 1_555
C11_3 C12_3 1_555 1_555
C14_3 C13_3 1_555 1_555
H7_3 C14_3 1_555 1_555
C15_3 C14_3 1_555 1_555
C16_3 C11_3 1_555 1_555
O7_2 Co2_3 1_555 1_555
C18_3 N4_3 1_555 1_555
N4_3 N2_2 1_555 1_555
N5_3 C18_3 1_555 1_555
H9_3 N5_3 1_555 1_555
H10_3 N5_3 1_555 1_555
Co7_2 N4_3 1_555 1_555
O10_2 Co4 1_555 1_555
C12_3 C13_3 1_555 1_555
C15_3 C16_3 1_555 1_555
C1_3 C2_3 1_555 1_555
C2_3 C3_3 1_555 1_555
C4_3 C3_3 1_555 1_555
C5_3 C4_3 1_555 1_555
H2_3 C5_3 1_555 1_555
C6_3 C5_3 1_555 1_555
C7_3 C2_3 1_555 1_555
H3_3 C7_3 1_555 1_555
C8_3 C6_3 1_555 1_555
O2_2 C1_3 1_555 1_555
O3_3 C8_3 1_555 1_555
O4_3 C8_3 1_555 1_555
Co6 O3_3 1_555 1_555
C6_3 C7_3 1_555 1_555
O2_2 Co5 1_555 1_555
C1_4 C2_4 1_555 1_555
C2_4 C3_4 1_555 1_555
C4_4 C3_4 1_555 1_555
C5_4 C4_4 1_555 1_555
H2_4 C5_4 1_555 1_555
C6_4 C5_4 1_555 1_555
C7_4 C2_4 1_555 1_555
H3_4 C7_4 1_555 1_555
C8_4 C6_4 1_555 1_555
O10_2 C1_4 1_555 1_555
O3_4 C8_4 1_555 1_555
O4_4 C8_4 1_555 1_555
Co6 O3_4 1_555 1_555
C6_4 C7_4 1_555 1_555
Co5 N1_6 1_555 1_555
C9_4 N1_6 1_555 1_555
N1_6 C18_4 1_555 1_555
N6_2 C9_4 1_555 1_555
N3_4 C9_4 1_555 1_555
H4_4 N3_4 1_555 1_555
H5_4 N3_4 1_555 1_555
O1_4 Co5 1_555 1_555
C10_4 C11_4 1_555 1_555
C11_4 C12_4 1_555 1_555
C14_4 C13_4 1_555 1_555
H7_4 C14_4 1_555 1_555
C15_4 C14_4 1_555 1_555
C16_4 C11_4 1_555 1_555
C18_4 N4_4 1_555 1_555
N4_4 N6_2 1_555 1_555
N5_4 C18_4 1_555 1_555
H9_4 N5_4 1_555 1_555
H10_4 N5_4 1_555 1_555
Co7 N4_4 1_555 1_555
C12_4 C13_4 1_555 1_555
C15_4 C16_4 1_555 1_555
O8_4 C17_4 1_555 1_555

#END
