
###############################################################################
#
# This file contains modified crystal structure data generated from the
# MOF subset of the Cambridge Structural Database (CSD) v543 
# hosted by the Cambridge Crystallographic Data Centre (CCDC).
#
# This work is licensed under the Creative Commons
# Attribution-NonCommercial-ShareAlike 4.0 International License.
# To view a copy of this license, visit
# http://creativecommons.org/licenses/by-nc-sa/4.0/
# or send a letter to
# Creative Commons, PO Box 1866, Mountain View, CA 94042, USA.
#
# CIF created using the CSD Python API on 29 September 2022
# The structure has been converted into the P1 space group
# The structure has a 3D framework
# The original CSD entry YOBYAR is in the tetragonal crystal system
# The framework has been calculated to contain at least 10.0% void space
# The void calculation uses a probe of radius 1.32A, grid spacing 0.4
#
###############################################################################

data_YOBYAR
_chemical_formula_moiety         '(C424 H360 N24 Ni16 O160 Zn16)n'
_symmetry_cell_setting           triclinic
_symmetry_space_group_name_H-M   'P 1'
_symmetry_Int_Tables_number      1
_space_group_name_Hall           'P 1'
loop_
_symmetry_equiv_pos_site_id
_symmetry_equiv_pos_as_xyz
1 x,y,z
_cell_length_a                   25.314(4)
_cell_length_b                   25.314(4)
_cell_length_c                   33.458(5)
_cell_angle_alpha                90
_cell_angle_beta                 90
_cell_angle_gamma                90
_cell_volume                     21439.8
loop_
_atom_site_label
_atom_site_type_symbol
_atom_site_fract_x
_atom_site_fract_y
_atom_site_fract_z
C47 C 0.0985(8) 0.0216(6) 0.3309(16)
H25 H 0.0889 0.0353 0.3566
H26 H 0.1312 0.0373 0.3224
H27 H 0.0713 0.0298 0.3119
C49 C 0.2800(11) 0.0120(4) 0.4281(9)
H29 H 0.2647 0.0153 0.4020
H30 H 0.2559 0.0258 0.4477
H31 H 0.3125 0.0314 0.4292
Ni1 Ni 0.23338(3) 0.86060(3) 0.347704(19)
Zn1 Zn 0.26978(2) 0.76111(2) 0.288258(18)
Zn2 Zn 0.23643(2) 0.76983(2) 0.462066(17)
Ni2 Ni 0.76909(4) 0.65403(3) 0.46488(2)
O1 O 0.20110(17) 0.8294(2) 0.39897(13)
O2 O 0.17486(16) 0.75496(18) 0.42634(14)
O3 O 0.21055(15) 0.78520(16) 0.32289(12)
O4 O 0.15893(19) 0.7762(3) 0.26954(15)
O9 O 0.32256(18) 0.7554(2) 0.33106(15)
O10 O 0.30672(16) 0.83254(18) 0.36173(13)
O11 O 0.30274(16) 0.76899(19) 0.43306(13)
O12 O 0.35312(18) 0.80484(18) 0.48022(13)
O13 O 0.70309(17) 0.7707(2) 0.50831(14)
O14 O 0.70074(19) 0.6880(2) 0.48734(19)
O15 O 0.67932(18) 0.7851(2) 0.24648(15)
O16 O 0.61323(19) 0.7547(3) 0.20693(14)
C1 C 0.1204(2) 0.7875(3) 0.37483(18)
C2 C 0.1178(2) 0.7849(3) 0.33307(19)
C3 C 0.0692(2) 0.7856(3) 0.31429(19)
H1 H 0.0679 0.7848 0.2859
C4 C 0.0217(2) 0.7875(3) 0.3359(2)
C5 C 0.0240(2) 0.7864(3) 0.3780(2)
C6 C 0.0730(2) 0.7881(3) 0.3961(2)
H2 H 0.0745 0.7897 0.4244
C7 C 0.1691(2) 0.7903(3) 0.40016(18)
C8 C 0.1645(3) 0.7820(3) 0.3059(2)
C23 C 0.3834(2) 0.7845(3) 0.37666(17)
C24 C 0.3914(2) 0.7856(3) 0.41755(17)
C25 C 0.4426(2) 0.7821(3) 0.43291(19)
H11 H 0.4479 0.7840 0.4610
C26 C 0.4855(2) 0.7760(3) 0.4079(2)
C27 C 0.4791(2) 0.7752(3) 0.3666(2)
C28 C 0.4281(3) 0.7791(4) 0.3512(2)
H12 H 0.4231 0.7781 0.3231
C29 C 0.3325(2) 0.7904(2) 0.35557(16)
C30 C 0.3454(2) 0.7864(2) 0.44515(17)
C31 C 0.5383(2) 0.7650(4) 0.42750(18)
C32 C 0.5667(3) 0.7212(4) 0.4188(2)
H13 H 0.5543 0.6971 0.3992
C33 C 0.6138(3) 0.7116(3) 0.4385(2)
H14 H 0.6334 0.6807 0.4322
C34 C 0.6330(3) 0.7462(3) 0.4673(2)
C35 C 0.6052(3) 0.7920(4) 0.4757(2)
H15 H 0.6184 0.8166 0.4947
C36 C 0.5575(3) 0.8015(4) 0.4558(2)
H16 H 0.5379 0.8327 0.4614
C37 C 0.6832(2) 0.7340(3) 0.4887(2)
C38 C 0.5221(2) 0.7711(4) 0.33661(19)
C39 C 0.5130(3) 0.7391(4) 0.3034(2)
H17 H 0.4819 0.7181 0.3020
C40 C 0.5499(3) 0.7379(4) 0.2720(2)
H18 H 0.5443 0.7157 0.2495
C41 C 0.5944(2) 0.7694(3) 0.2742(2)
C42 C 0.6037(3) 0.8009(3) 0.3077(2)
H19 H 0.6347 0.8221 0.3091
C43 C 0.5676(3) 0.8015(3) 0.3389(2)
H20 H 0.5740 0.8226 0.3619
C44 C 0.6322(3) 0.7708(3) 0.2395(2)
N1 N 0.1053(4) 0.9638(4) 0.3317(6)
O17 O 0.1590(2) 0.8967(2) 0.3354(2)
C45 C 0.1517(4) 0.9434(4) 0.3326(4)
H21 H 0.1814 0.9662 0.3311
C46 C 0.0565(6) 0.9341(6) 0.3391(7)
H22 H 0.0555 0.9029 0.3218
H23 H 0.0259 0.9566 0.3334
H24 H 0.0553 0.9229 0.3671
N2 N 0.2916(5) 0.9576(3) 0.4374(3)
O18 O 0.2550(3) 0.9272(2) 0.38004(18)
C48 C 0.2762(4) 0.9198(4) 0.4136(3)
H28 H 0.2813 0.8844 0.4221
C50 C 0.3193(6) 0.9463(5) 0.4756(3)
H32 H 0.3109 0.9740 0.4951
H33 H 0.3575 0.9456 0.4710
H34 H 0.3077 0.9120 0.4860
N3 N 0.7308(6) 0.6967(6) 0.3478(3)
O19 O 0.7348(4) 0.6598(3) 0.4073(2)
C51 C 0.7476(5) 0.6895(5) 0.3834(3)
H35 H 0.7753 0.7126 0.3913
C52 C 0.6782(7) 0.6745(8) 0.3350(6)
H36 H 0.6710 0.6419 0.3498
H37 H 0.6791 0.6669 0.3062
H38 H 0.6503 0.7004 0.3405
C53 C 0.7472(9) 0.7373(8) 0.3217(5)
H39 H 0.7419 0.7256 0.2947
H40 H 0.7266 0.7686 0.3263
H41 H 0.7839 0.7451 0.3258
O20 O 0.7315(4) 0.5803(2) 0.4715(2)
H42 H 0.7043 0.5743 0.4862
H43 H 0.7410 0.5515 0.4599
O21 O 0.8339(4) 0.6173(3) 0.4417(2)
H44 H 0.8522 0.5933 0.4536
H45 H 0.8473 0.6232 0.4184
Ni3 Ni 0.63940(3) 0.73338(3) 0.152296(19)
Zn4 Zn 0.73889(2) 0.76978(2) 0.211742(18)
Zn6 Zn 0.76983(2) 0.76357(2) 0.537934(17)
Ni5 Ni 0.34597(3) 0.76909(4) 0.53512(2)
O22 O 0.2552(3) 0.6888(3) 0.2692(2)
O23 O 0.3322(5) 0.7083(3) 0.2435(2)
O24 O 0.80031(17) 0.7286(2) 0.45780(15)
O25 O 0.2232(2) 0.8333(2) 0.49273(15)
O26 O 0.80484(18) 0.64688(18) 0.51978(13)
O27 O 0.2293(2) 0.70309(17) 0.49169(14)
O28 O 0.2851(2) 0.82068(18) 0.25352(15)
O29 O 0.2547(3) 0.88677(19) 0.29307(14)
O5 O 0.8112(3) 0.7552(3) 0.2308(2)
O6 O 0.7917(3) 0.8322(5) 0.2565(2)
O8 O 0.8333(2) 0.7768(2) 0.50727(15)
C9 C 0.9707(2) 0.7893(3) 0.3126(2)
C10 C 0.9610(3) 0.7524(4) 0.2834(2)
H3 H 0.9864 0.7262 0.2767
C11 C 0.9115(3) 0.7550(4) 0.2638(3)
H4 H 0.9030 0.7294 0.2440
C12 C 0.8755(3) 0.7936(3) 0.2728(2)
C13 C 0.8848(3) 0.8302(4) 0.3007(3)
H5 H 0.8593 0.8568 0.3061
C14 C 0.9343(3) 0.8291(4) 0.3227(3)
H6 H 0.9417 0.8542 0.3431
C15 C 0.8211(3) 0.7941(4) 0.2518(2)
C16 C 0.9756(2) 0.7806(3) 0.4022(2)
C17 C 0.9399(2) 0.7393(3) 0.3931(2)
H7 H 0.9464 0.7169 0.3709
C18 C 0.8956(2) 0.7319(4) 0.4164(2)
H8 H 0.8716 0.7041 0.4105
C19 C 0.8862(2) 0.7651(3) 0.4487(2)
C20 C 0.9219(3) 0.8033(4) 0.4591(3)
H9 H 0.9163 0.8240 0.4824
C21 C 0.9669(3) 0.8120(4) 0.4351(3)
H10 H 0.9911 0.8394 0.4416
C22 C 0.8362(3) 0.7555(3) 0.4732(2)
O5_2 O 0.7552(3) 0.1888(3) 0.7692(2)
O6_2 O 0.8322(5) 0.2083(3) 0.7435(2)
O7 O 0.7286(2) 0.19969(17) 0.54220(15)
O8_2 O 0.7768(2) 0.1667(2) 0.49273(15)
C9_2 C 0.7893(3) 0.0293(2) 0.6874(2)
C10_2 C 0.7524(4) 0.0390(3) 0.7166(2)
H3_2 H 0.7262 0.0136 0.7233
C11_2 C 0.7550(4) 0.0885(3) 0.7362(3)
H4_2 H 0.7294 0.0970 0.7560
C12_2 C 0.7936(3) 0.1245(3) 0.7272(2)
C13_2 C 0.8302(4) 0.1152(3) 0.6993(3)
H5_2 H 0.8568 0.1407 0.6939
C14_2 C 0.8291(4) 0.0657(3) 0.6773(3)
H6_2 H 0.8542 0.0583 0.6569
C15_2 C 0.7941(4) 0.1789(3) 0.7482(2)
C16_2 C 0.7806(3) 0.0244(2) 0.5978(2)
C17_2 C 0.7393(3) 0.0601(2) 0.6069(2)
H7_2 H 0.7169 0.0536 0.6291
C18_2 C 0.7319(4) 0.1044(2) 0.5836(2)
H8_2 H 0.7041 0.1284 0.5895
C19_2 C 0.7651(3) 0.1138(2) 0.5513(2)
C20_2 C 0.8033(4) 0.0781(3) 0.5409(3)
H9_2 H 0.8240 0.0837 0.5176
C21_2 C 0.8120(4) 0.0331(3) 0.5649(3)
H10_2 H 0.8394 0.0089 0.5584
C22_2 C 0.7555(3) 0.1638(3) 0.5268(2)
Zn3 Zn 0.76978(2) 0.26111(2) 0.788258(18)
Zn5 Zn 0.76357(2) 0.23017(2) 0.462066(17)
Ni4 Ni 0.65403(3) 0.23091(4) 0.53512(2)
Ni1_2 Ni 0.86060(3) 0.76662(3) 0.652296(19)
Zn1_2 Zn 0.76111(2) 0.73022(2) 0.711742(18)
O1_2 O 0.8294(2) 0.79890(17) 0.60103(13)
O2_2 O 0.75496(18) 0.82514(16) 0.57366(14)
O3_2 O 0.78520(16) 0.78945(15) 0.67711(12)
O4_2 O 0.7762(3) 0.84107(19) 0.73046(15)
O9_2 O 0.7554(2) 0.67744(18) 0.66894(15)
O10_2 O 0.83254(18) 0.69328(16) 0.63827(13)
O11_2 O 0.76899(19) 0.69726(16) 0.56694(13)
O13_2 O 0.7707(2) 0.29691(17) 0.49169(14)
O14_2 O 0.6880(2) 0.29926(19) 0.51266(19)
O15_2 O 0.7851(2) 0.32068(18) 0.75352(15)
O16_2 O 0.7547(3) 0.38677(19) 0.79307(14)
C1_2 C 0.7875(3) 0.8796(2) 0.62517(18)
C2_2 C 0.7849(3) 0.8822(2) 0.66693(19)
C3_2 C 0.7856(3) 0.9308(2) 0.68571(19)
H1_2 H 0.7848 0.9321 0.7141
C4_2 C 0.7875(3) 0.9783(2) 0.6641(2)
C5_2 C 0.7864(3) 0.9760(2) 0.6220(2)
C6_2 C 0.7881(3) 0.9270(2) 0.6039(2)
H2_2 H 0.7897 0.9255 0.5756
C7_2 C 0.7903(3) 0.8309(2) 0.59984(18)
C8_2 C 0.7820(3) 0.8355(3) 0.6941(2)
C23_2 C 0.7845(3) 0.6166(2) 0.62334(17)
C24_2 C 0.7856(3) 0.6086(2) 0.58245(17)
C25_2 C 0.7821(3) 0.5574(2) 0.56709(19)
H11_2 H 0.7840 0.5521 0.5390
C26_2 C 0.7760(3) 0.5145(2) 0.5921(2)
C27_2 C 0.7752(3) 0.5209(2) 0.6334(2)
C28_2 C 0.7791(4) 0.5719(3) 0.6488(2)
H12_2 H 0.7781 0.5769 0.6769
C29_2 C 0.7904(2) 0.6675(2) 0.64443(16)
C30_2 C 0.7864(2) 0.6546(2) 0.55485(17)
C31_2 C 0.7650(4) 0.4617(2) 0.57250(18)
C32_2 C 0.7212(4) 0.4333(3) 0.5812(2)
H13_2 H 0.6971 0.4457 0.6008
C33_2 C 0.7116(3) 0.3862(3) 0.5615(2)
H14_2 H 0.6807 0.3666 0.5678
C34_2 C 0.7462(3) 0.3670(3) 0.5327(2)
C35_2 C 0.7920(4) 0.3948(3) 0.5243(2)
H15_2 H 0.8166 0.3816 0.5053
C36_2 C 0.8015(4) 0.4425(3) 0.5442(2)
H16_2 H 0.8327 0.4621 0.5386
C37_2 C 0.7340(3) 0.3168(2) 0.5113(2)
C38_2 C 0.7711(4) 0.4779(2) 0.66339(19)
C39_2 C 0.7391(4) 0.4870(3) 0.6966(2)
H17_2 H 0.7181 0.5181 0.6980
C40_2 C 0.7379(4) 0.4501(3) 0.7280(2)
H18_2 H 0.7157 0.4557 0.7505
C41_2 C 0.7694(3) 0.4056(2) 0.7258(2)
C42_2 C 0.8009(3) 0.3963(3) 0.6923(2)
H19_2 H 0.8221 0.3653 0.6909
C43_2 C 0.8015(3) 0.4324(3) 0.6611(2)
H20_2 H 0.8226 0.4260 0.6381
C44_2 C 0.7708(3) 0.3678(3) 0.7605(2)
N1_2 N 0.9638(4) 0.8947(4) 0.6683(6)
O17_2 O 0.8967(2) 0.8410(2) 0.6646(2)
C45_2 C 0.9434(4) 0.8483(4) 0.6674(4)
H21_2 H 0.9662 0.8186 0.6689
C46_2 C 0.9341(6) 0.9435(6) 0.6609(7)
H22_2 H 0.9029 0.9445 0.6782
H23_2 H 0.9566 0.9741 0.6666
H24_2 H 0.9229 0.9447 0.6329
N2_2 N 0.9576(3) 0.7084(5) 0.5626(3)
O18_2 O 0.9272(2) 0.7450(3) 0.61996(18)
C48_2 C 0.9198(4) 0.7238(4) 0.5864(3)
H28_2 H 0.8844 0.7187 0.5779
C50_2 C 0.9463(5) 0.6807(6) 0.5244(3)
H32_2 H 0.9740 0.6891 0.5049
H33_2 H 0.9456 0.6425 0.5290
H34_2 H 0.9120 0.6923 0.5140
N3_2 N 0.6967(6) 0.2692(6) 0.6522(3)
O19_2 O 0.6598(3) 0.2652(4) 0.5927(2)
C51_2 C 0.6895(5) 0.2524(5) 0.6166(3)
H35_2 H 0.7126 0.2247 0.6087
C52_2 C 0.6745(8) 0.3218(7) 0.6650(6)
H36_2 H 0.6419 0.3290 0.6502
H37_2 H 0.6669 0.3209 0.6938
H38_2 H 0.7004 0.3497 0.6595
C53_2 C 0.7373(8) 0.2528(9) 0.6783(5)
H39_2 H 0.7256 0.2581 0.7053
H40_2 H 0.7686 0.2734 0.6737
H41_2 H 0.7451 0.2161 0.6742
O20_2 O 0.5803(2) 0.2685(4) 0.5285(2)
H42_2 H 0.5743 0.2957 0.5138
H43_2 H 0.5515 0.2590 0.5401
O21_2 O 0.6173(3) 0.1661(4) 0.5583(2)
H44_2 H 0.5933 0.1478 0.5464
H45_2 H 0.6232 0.1527 0.5816
Ni3_2 Ni 0.73338(3) 0.36060(3) 0.847704(19)
O22_2 O 0.6888(3) 0.7448(3) 0.7308(2)
O23_2 O 0.7083(3) 0.6678(5) 0.7565(2)
O26_2 O 0.64688(18) 0.19516(18) 0.48022(13)
O28_2 O 0.82068(18) 0.7149(2) 0.74648(15)
O29_2 O 0.88677(19) 0.7453(3) 0.70693(14)
O5_3 O 0.1888(3) 0.2448(3) 0.2308(2)
O6_3 O 0.2083(3) 0.1678(5) 0.2565(2)
O7_2 O 0.19969(17) 0.2714(2) 0.45780(15)
O8_3 O 0.1667(2) 0.2232(2) 0.50727(15)
C9_3 C 0.0293(2) 0.2107(3) 0.3126(2)
C10_3 C 0.0390(3) 0.2476(4) 0.2834(2)
H3_3 H 0.0136 0.2738 0.2767
C11_3 C 0.0885(3) 0.2450(4) 0.2638(3)
H4_3 H 0.0970 0.2706 0.2440
C12_3 C 0.1245(3) 0.2064(3) 0.2728(2)
C13_3 C 0.1152(3) 0.1698(4) 0.3007(3)
H5_3 H 0.1407 0.1432 0.3061
C14_3 C 0.0657(3) 0.1709(4) 0.3227(3)
H6_3 H 0.0583 0.1458 0.3431
C15_3 C 0.1789(3) 0.2059(4) 0.2518(2)
C16_3 C 0.0244(2) 0.2194(3) 0.4022(2)
C17_3 C 0.0601(2) 0.2607(3) 0.3931(2)
H7_3 H 0.0536 0.2831 0.3709
C18_3 C 0.1044(2) 0.2681(4) 0.4164(2)
H8_3 H 0.1284 0.2959 0.4105
C19_3 C 0.1138(2) 0.2349(3) 0.4487(2)
C20_3 C 0.0781(3) 0.1967(4) 0.4591(3)
H9_3 H 0.0837 0.1760 0.4824
C21_3 C 0.0331(3) 0.1880(4) 0.4351(3)
H10_3 H 0.0089 0.1606 0.4416
C22_3 C 0.1638(3) 0.2445(3) 0.4732(2)
Zn3_2 Zn 0.26111(2) 0.23022(2) 0.211742(18)
Zn5_2 Zn 0.23017(2) 0.23643(2) 0.537934(17)
Ni4_2 Ni 0.23091(4) 0.34597(3) 0.46488(2)
Ni1_3 Ni 0.76662(3) 0.13940(3) 0.347704(19)
Zn1_3 Zn 0.73022(2) 0.23889(2) 0.288258(18)
O1_3 O 0.79890(17) 0.1706(2) 0.39897(13)
O2_3 O 0.82514(16) 0.24504(18) 0.42634(14)
O3_3 O 0.78945(15) 0.21480(16) 0.32289(12)
O4_3 O 0.84107(19) 0.2238(3) 0.26954(15)
O9_3 O 0.67744(18) 0.2446(2) 0.33106(15)
O10_3 O 0.69328(16) 0.16746(18) 0.36173(13)
O11_3 O 0.69726(16) 0.23101(19) 0.43306(13)
O13_3 O 0.29691(17) 0.2293(2) 0.50831(14)
O14_3 O 0.29926(19) 0.3120(2) 0.48734(19)
O15_3 O 0.32068(18) 0.2149(2) 0.24648(15)
O16_3 O 0.38677(19) 0.2453(3) 0.20693(14)
C1_3 C 0.8796(2) 0.2125(3) 0.37483(18)
C2_3 C 0.8822(2) 0.2151(3) 0.33307(19)
C3_3 C 0.9308(2) 0.2144(3) 0.31429(19)
H1_3 H 0.9321 0.2152 0.2859
C4_3 C 0.9783(2) 0.2125(3) 0.3359(2)
C5_3 C 0.9760(2) 0.2136(3) 0.3780(2)
C6_3 C 0.9270(2) 0.2119(3) 0.3961(2)
H2_3 H 0.9255 0.2103 0.4244
C7_3 C 0.8309(2) 0.2097(3) 0.40016(18)
C8_3 C 0.8355(3) 0.2180(3) 0.3059(2)
C23_3 C 0.6166(2) 0.2155(3) 0.37666(17)
C24_3 C 0.6086(2) 0.2144(3) 0.41755(17)
C25_3 C 0.5574(2) 0.2179(3) 0.43291(19)
H11_3 H 0.5521 0.2160 0.4610
C26_3 C 0.5145(2) 0.2240(3) 0.4079(2)
C27_3 C 0.5209(2) 0.2248(3) 0.3666(2)
C28_3 C 0.5719(3) 0.2209(4) 0.3512(2)
H12_3 H 0.5769 0.2219 0.3231
C29_3 C 0.6675(2) 0.2096(2) 0.35557(16)
C30_3 C 0.6546(2) 0.2136(2) 0.44515(17)
C31_3 C 0.4617(2) 0.2350(4) 0.42750(18)
C32_3 C 0.4333(3) 0.2788(4) 0.4188(2)
H13_3 H 0.4457 0.3029 0.3992
C33_3 C 0.3862(3) 0.2884(3) 0.4385(2)
H14_3 H 0.3666 0.3193 0.4322
C34_3 C 0.3670(3) 0.2538(3) 0.4673(2)
C35_3 C 0.3948(3) 0.2080(4) 0.4757(2)
H15_3 H 0.3816 0.1834 0.4947
C36_3 C 0.4425(3) 0.1985(4) 0.4558(2)
H16_3 H 0.4621 0.1673 0.4614
C37_3 C 0.3168(2) 0.2660(3) 0.4887(2)
C38_3 C 0.4779(2) 0.2289(4) 0.33661(19)
C39_3 C 0.4870(3) 0.2609(4) 0.3034(2)
H17_3 H 0.5181 0.2819 0.3020
C40_3 C 0.4501(3) 0.2621(4) 0.2720(2)
H18_3 H 0.4557 0.2843 0.2495
C41_3 C 0.4056(2) 0.2306(3) 0.2742(2)
C42_3 C 0.3963(3) 0.1991(3) 0.3077(2)
H19_3 H 0.3653 0.1779 0.3091
C43_3 C 0.4324(3) 0.1985(3) 0.3389(2)
H20_3 H 0.4260 0.1774 0.3619
C44_3 C 0.3678(3) 0.2292(3) 0.2395(2)
N1_3 N 0.8947(4) 0.0362(4) 0.3317(6)
O17_3 O 0.8410(2) 0.1033(2) 0.3354(2)
C45_3 C 0.8483(4) 0.0566(4) 0.3326(4)
H21_3 H 0.8186 0.0338 0.3311
C46_3 C 0.9435(6) 0.0659(6) 0.3391(7)
H22_3 H 0.9445 0.0971 0.3218
H23_3 H 0.9741 0.0434 0.3334
H24_3 H 0.9447 0.0771 0.3671
N2_3 N 0.7084(5) 0.0424(3) 0.4374(3)
O18_3 O 0.7450(3) 0.0728(2) 0.38004(18)
C48_3 C 0.7238(4) 0.0802(4) 0.4136(3)
H28_3 H 0.7187 0.1156 0.4221
C50_3 C 0.6807(6) 0.0537(5) 0.4756(3)
H32_3 H 0.6891 0.0260 0.4951
H33_3 H 0.6425 0.0544 0.4710
H34_3 H 0.6923 0.0880 0.4860
N3_3 N 0.2692(6) 0.3033(6) 0.3478(3)
O19_3 O 0.2652(4) 0.3402(3) 0.4073(2)
C51_3 C 0.2524(5) 0.3105(5) 0.3834(3)
H35_3 H 0.2247 0.2874 0.3913
C52_3 C 0.3218(7) 0.3255(8) 0.3350(6)
H36_3 H 0.3290 0.3581 0.3498
H37_3 H 0.3209 0.3331 0.3062
H38_3 H 0.3497 0.2996 0.3405
C53_3 C 0.2528(9) 0.2627(8) 0.3217(5)
H39_3 H 0.2581 0.2744 0.2947
H40_3 H 0.2734 0.2314 0.3263
H41_3 H 0.2161 0.2549 0.3258
O20_3 O 0.2685(4) 0.4197(2) 0.4715(2)
H42_3 H 0.2957 0.4257 0.4862
H43_3 H 0.2590 0.4485 0.4599
O21_3 O 0.1661(4) 0.3827(3) 0.4417(2)
H44_3 H 0.1478 0.4067 0.4536
H45_3 H 0.1527 0.3768 0.4184
Ni3_3 Ni 0.36060(3) 0.26662(3) 0.152296(19)
O22_3 O 0.7448(3) 0.3112(3) 0.2692(2)
O23_3 O 0.6678(5) 0.2917(3) 0.2435(2)
O26_3 O 0.19516(18) 0.35312(18) 0.51978(13)
O28_3 O 0.7149(2) 0.17932(18) 0.25352(15)
O29_3 O 0.7453(3) 0.11323(19) 0.29307(14)
Ni1_4 Ni 0.13940(3) 0.23338(3) 0.652296(19)
Zn1_4 Zn 0.23889(2) 0.26978(2) 0.711742(18)
O1_4 O 0.1706(2) 0.20110(17) 0.60103(13)
O2_4 O 0.24504(18) 0.17486(16) 0.57366(14)
O3_4 O 0.21480(16) 0.21055(15) 0.67711(12)
O4_4 O 0.2238(3) 0.15893(19) 0.73046(15)
O9_4 O 0.2446(2) 0.32256(18) 0.66894(15)
O10_4 O 0.16746(18) 0.30672(16) 0.63827(13)
O11_4 O 0.23101(19) 0.30274(16) 0.56694(13)
O14_4 O 0.3120(2) 0.70074(19) 0.51266(19)
O15_4 O 0.2149(2) 0.67932(18) 0.75352(15)
O16_4 O 0.2453(3) 0.61323(19) 0.79307(14)
C1_4 C 0.2125(3) 0.1204(2) 0.62517(18)
C2_4 C 0.2151(3) 0.1178(2) 0.66693(19)
C3_4 C 0.2144(3) 0.0692(2) 0.68571(19)
H1_4 H 0.2152 0.0679 0.7141
C4_4 C 0.2125(3) 0.0217(2) 0.6641(2)
C5_4 C 0.2136(3) 0.0240(2) 0.6220(2)
C6_4 C 0.2119(3) 0.0730(2) 0.6039(2)
H2_4 H 0.2103 0.0745 0.5756
C7_4 C 0.2097(3) 0.1691(2) 0.59984(18)
C8_4 C 0.2180(3) 0.1645(3) 0.6941(2)
C23_4 C 0.2155(3) 0.3834(2) 0.62334(17)
C24_4 C 0.2144(3) 0.3914(2) 0.58245(17)
C25_4 C 0.2179(3) 0.4426(2) 0.56709(19)
H11_4 H 0.2160 0.4479 0.5390
C26_4 C 0.2240(3) 0.4855(2) 0.5921(2)
C27_4 C 0.2248(3) 0.4791(2) 0.6334(2)
C28_4 C 0.2209(4) 0.4281(3) 0.6488(2)
H12_4 H 0.2219 0.4231 0.6769
C29_4 C 0.2096(2) 0.3325(2) 0.64443(16)
C30_4 C 0.2136(2) 0.3454(2) 0.55485(17)
C31_4 C 0.2350(4) 0.5383(2) 0.57250(18)
C32_4 C 0.2788(4) 0.5667(3) 0.5812(2)
H13_4 H 0.3029 0.5543 0.6008
C33_4 C 0.2884(3) 0.6138(3) 0.5615(2)
H14_4 H 0.3193 0.6334 0.5678
C34_4 C 0.2538(3) 0.6330(3) 0.5327(2)
C35_4 C 0.2080(4) 0.6052(3) 0.5243(2)
H15_4 H 0.1834 0.6184 0.5053
C36_4 C 0.1985(4) 0.5575(3) 0.5442(2)
H16_4 H 0.1673 0.5379 0.5386
C37_4 C 0.2660(3) 0.6832(2) 0.5113(2)
C38_4 C 0.2289(4) 0.5221(2) 0.66339(19)
C39_4 C 0.2609(4) 0.5130(3) 0.6966(2)
H17_4 H 0.2819 0.4819 0.6980
C40_4 C 0.2621(4) 0.5499(3) 0.7280(2)
H18_4 H 0.2843 0.5443 0.7505
C41_4 C 0.2306(3) 0.5944(2) 0.7258(2)
C42_4 C 0.1991(3) 0.6037(3) 0.6923(2)
H19_4 H 0.1779 0.6347 0.6909
C43_4 C 0.1985(3) 0.5676(3) 0.6611(2)
H20_4 H 0.1774 0.5740 0.6381
C44_4 C 0.2292(3) 0.6322(3) 0.7605(2)
N1_4 N 0.0362(4) 0.1053(4) 0.6683(6)
O17_4 O 0.1033(2) 0.1590(2) 0.6646(2)
C45_4 C 0.0566(4) 0.1517(4) 0.6674(4)
H21_4 H 0.0338 0.1814 0.6689
C46_4 C 0.0659(6) 0.0565(6) 0.6609(7)
H22_4 H 0.0971 0.0555 0.6782
H23_4 H 0.0434 0.0259 0.6666
H24_4 H 0.0771 0.0553 0.6329
N2_4 N 0.0424(3) 0.2916(5) 0.5626(3)
O18_4 O 0.0728(2) 0.2550(3) 0.61996(18)
C48_4 C 0.0802(4) 0.2762(4) 0.5864(3)
H28_4 H 0.1156 0.2813 0.5779
C50_4 C 0.0537(5) 0.3193(6) 0.5244(3)
H32_4 H 0.0260 0.3109 0.5049
H33_4 H 0.0544 0.3575 0.5290
H34_4 H 0.0880 0.3077 0.5140
N3_4 N 0.3033(6) 0.7308(6) 0.6522(3)
O19_4 O 0.3402(3) 0.7348(4) 0.5927(2)
C51_4 C 0.3105(5) 0.7476(5) 0.6166(3)
H35_4 H 0.2874 0.7753 0.6087
C52_4 C 0.3255(8) 0.6782(7) 0.6650(6)
H36_4 H 0.3581 0.6710 0.6502
H37_4 H 0.3331 0.6791 0.6938
H38_4 H 0.2996 0.6503 0.6595
C53_4 C 0.2627(8) 0.7472(9) 0.6783(5)
H39_4 H 0.2744 0.7419 0.7053
H40_4 H 0.2314 0.7266 0.6737
H41_4 H 0.2549 0.7839 0.6742
O20_4 O 0.4197(2) 0.7315(4) 0.5285(2)
H42_4 H 0.4257 0.7043 0.5138
H43_4 H 0.4485 0.7410 0.5401
O21_4 O 0.3827(3) 0.8339(4) 0.5583(2)
H44_4 H 0.4067 0.8522 0.5464
H45_4 H 0.3768 0.8473 0.5816
Ni3_4 Ni 0.26662(3) 0.63940(3) 0.847704(19)
Zn4_2 Zn 0.23022(2) 0.73889(2) 0.788258(18)
O22_4 O 0.3112(3) 0.2552(3) 0.7308(2)
O23_4 O 0.2917(3) 0.3322(5) 0.7565(2)
O24_2 O 0.2714(2) 0.80031(17) 0.54220(15)
O28_4 O 0.17932(18) 0.2851(2) 0.74648(15)
O29_4 O 0.11323(19) 0.2547(3) 0.70693(14)
O5_4 O 0.2448(3) 0.8112(3) 0.7692(2)
O6_4 O 0.1678(5) 0.7917(3) 0.7435(2)
C9_4 C 0.2107(3) 0.9707(2) 0.6874(2)
C10_4 C 0.2476(4) 0.9610(3) 0.7166(2)
H3_4 H 0.2738 0.9864 0.7233
C11_4 C 0.2450(4) 0.9115(3) 0.7362(3)
H4_4 H 0.2706 0.9030 0.7560
C12_4 C 0.2064(3) 0.8755(3) 0.7272(2)
C13_4 C 0.1698(4) 0.8848(3) 0.6993(3)
H5_4 H 0.1432 0.8593 0.6939
C14_4 C 0.1709(4) 0.9343(3) 0.6773(3)
H6_4 H 0.1458 0.9417 0.6569
C15_4 C 0.2059(4) 0.8211(3) 0.7482(2)
C16_4 C 0.2194(3) 0.9756(2) 0.5978(2)
C17_4 C 0.2607(3) 0.9399(2) 0.6069(2)
H7_4 H 0.2831 0.9464 0.6291
C18_4 C 0.2681(4) 0.8956(2) 0.5836(2)
H8_4 H 0.2959 0.8716 0.5895
C19_4 C 0.2349(3) 0.8862(2) 0.5513(2)
C20_4 C 0.1967(4) 0.9219(3) 0.5409(3)
H9_4 H 0.1760 0.9163 0.5176
C21_4 C 0.1880(4) 0.9669(3) 0.5649(3)
H10_4 H 0.1606 0.9911 0.5584
C22_4 C 0.2445(3) 0.8362(3) 0.5268(2)
O13_4 O 0.20309(17) 0.2707(2) 0.00831(14)
Zn6_2 Zn 0.26983(2) 0.26357(2) 0.037934(17)
O26_4 O 0.30484(18) 0.14688(18) 0.01978(13)
Ni2_2 Ni 0.26909(4) 0.15403(3) 0.96488(2)
O14_5 O 0.20074(19) 0.1880(2) 0.98734(19)
C31_5 C 0.0383(2) 0.2650(4) 0.92750(18)
C32_5 C 0.0667(3) 0.2212(4) 0.9188(2)
H13_5 H 0.0543 0.1971 0.8992
C33_5 C 0.1138(3) 0.2116(3) 0.9385(2)
H14_5 H 0.1334 0.1807 0.9322
C34_5 C 0.1330(3) 0.2462(3) 0.9673(2)
C35_5 C 0.1052(3) 0.2920(4) 0.9757(2)
H15_5 H 0.1184 0.3166 0.9947
C36_5 C 0.0575(3) 0.3015(4) 0.9558(2)
H16_5 H 0.0379 0.3327 0.9614
C37_5 C 0.1832(2) 0.2340(3) 0.9887(2)
C38_5 C 0.0221(2) 0.2711(4) 0.83661(19)
C39_5 C 0.0130(3) 0.2391(4) 0.8034(2)
C40_5 C 0.0499(3) 0.2379(4) 0.7720(2)
H18_5 H 0.0443 0.2157 0.7495
C41_5 C 0.0944(2) 0.2694(3) 0.7742(2)
C42_5 C 0.1037(3) 0.3009(3) 0.8077(2)
H19_5 H 0.1347 0.3221 0.8091
C43_5 C 0.0676(3) 0.3015(3) 0.8389(2)
H20_5 H 0.0740 0.3226 0.8619
C44_5 C 0.1322(3) 0.2708(3) 0.7395(2)
N3_5 N 0.2308(6) 0.1967(6) 0.8478(3)
O19_5 O 0.2348(4) 0.1598(3) 0.9073(2)
C51_5 C 0.2476(5) 0.1895(5) 0.8834(3)
H35_5 H 0.2753 0.2126 0.8913
C52_5 C 0.1782(7) 0.1745(8) 0.8350(6)
H36_5 H 0.1710 0.1419 0.8498
H37_5 H 0.1791 0.1669 0.8062
H38_5 H 0.1503 0.2004 0.8405
C53_5 C 0.2472(9) 0.2373(8) 0.8217(5)
H39_5 H 0.2419 0.2256 0.7947
H40_5 H 0.2266 0.2686 0.8263
H41_5 H 0.2839 0.2451 0.8258
O20_5 O 0.2315(4) 0.0803(2) 0.9715(2)
H42_5 H 0.2043 0.0743 0.9862
H43_5 H 0.2410 0.0515 0.9599
O21_5 O 0.3339(4) 0.1173(3) 0.9417(2)
H44_5 H 0.3522 0.0933 0.9536
H45_5 H 0.3473 0.1232 0.9184
O24_3 O 0.30031(17) 0.2286(2) 0.95780(15)
O8_4 O 0.3333(2) 0.2768(2) 0.00727(15)
Ni5_2 Ni 0.84597(3) 0.26909(4) 0.03512(2)
Zn2_2 Zn 0.73643(2) 0.26983(2) 0.962066(17)
O1_5 O 0.70110(17) 0.3294(2) 0.89897(13)
O2_5 O 0.67486(16) 0.25496(18) 0.92634(14)
O3_5 O 0.71055(15) 0.28520(16) 0.82289(12)
O4_5 O 0.65893(19) 0.2762(3) 0.76954(15)
O9_5 O 0.82256(18) 0.2554(2) 0.83106(15)
O10_5 O 0.80672(16) 0.33254(18) 0.86173(13)
O11_5 O 0.80274(16) 0.26899(19) 0.93306(13)
O12_2 O 0.85312(18) 0.30484(18) 0.98022(13)
C1_5 C 0.6204(2) 0.2875(3) 0.87483(18)
C2_5 C 0.6178(2) 0.2849(3) 0.83307(19)
C3_5 C 0.5692(2) 0.2856(3) 0.81429(19)
H1_5 H 0.5679 0.2848 0.7859
C4_5 C 0.5217(2) 0.2875(3) 0.8359(2)
C5_5 C 0.5240(2) 0.2864(3) 0.8780(2)
C6_5 C 0.5730(2) 0.2881(3) 0.8961(2)
H2_5 H 0.5745 0.2897 0.9244
C7_5 C 0.6691(2) 0.2903(3) 0.90016(18)
C8_5 C 0.6645(3) 0.2820(3) 0.8059(2)
C9_5 C 0.4707(2) 0.2893(3) 0.8126(2)
C10_5 C 0.4610(3) 0.2524(4) 0.7834(2)
H3_5 H 0.4864 0.2262 0.7767
C11_5 C 0.4115(3) 0.2550(4) 0.7638(3)
H4_5 H 0.4030 0.2294 0.7440
C12_5 C 0.3755(3) 0.2936(3) 0.7728(2)
C13_5 C 0.3848(3) 0.3302(4) 0.8007(3)
H5_5 H 0.3593 0.3568 0.8061
C14_5 C 0.4343(3) 0.3291(4) 0.8227(3)
H6_5 H 0.4417 0.3542 0.8431
C15_5 C 0.3211(3) 0.2941(4) 0.7518(2)
C16_5 C 0.4756(2) 0.2806(3) 0.9022(2)
C17_5 C 0.4399(2) 0.2393(3) 0.8931(2)
H7_5 H 0.4464 0.2169 0.8709
C18_5 C 0.3956(2) 0.2319(4) 0.9164(2)
H8_5 H 0.3716 0.2041 0.9105
C19_5 C 0.3862(2) 0.2651(3) 0.9487(2)
C20_5 C 0.4219(3) 0.3033(4) 0.9591(3)
H9_5 H 0.4163 0.3240 0.9824
C21_5 C 0.4669(3) 0.3120(4) 0.9351(3)
H10_5 H 0.4911 0.3394 0.9416
C22_5 C 0.3362(3) 0.2555(3) 0.9732(2)
C23_5 C 0.8834(2) 0.2845(3) 0.87666(17)
C24_5 C 0.8914(2) 0.2856(3) 0.91755(17)
C25_5 C 0.9426(2) 0.2821(3) 0.93291(19)
H11_5 H 0.9479 0.2840 0.9610
C26_5 C 0.9855(2) 0.2760(3) 0.9079(2)
C27_5 C 0.9791(2) 0.2752(3) 0.8666(2)
C28_5 C 0.9281(3) 0.2791(4) 0.8512(2)
H12_5 H 0.9231 0.2781 0.8231
C29_5 C 0.8325(2) 0.2904(2) 0.85557(16)
C30_5 C 0.8454(2) 0.2864(2) 0.94515(17)
H17_5 H 0.9819 0.2181 0.8020
N1_5 N 0.6053(4) 0.4638(4) 0.8317(6)
O17_5 O 0.6590(2) 0.3967(2) 0.8354(2)
C45_5 C 0.6517(4) 0.4434(4) 0.8326(4)
H21_5 H 0.6814 0.4662 0.8311
C46_5 C 0.5565(6) 0.4341(6) 0.8391(7)
H22_5 H 0.5555 0.4029 0.8218
H23_5 H 0.5259 0.4566 0.8334
H24_5 H 0.5553 0.4229 0.8671
C47_2 C 0.5985(8) 0.5216(6) 0.8309(16)
H25_2 H 0.5889 0.5353 0.8566
H26_2 H 0.6312 0.5373 0.8224
H27_2 H 0.5713 0.5298 0.8119
N2_5 N 0.7916(5) 0.4576(3) 0.9374(3)
O18_5 O 0.7550(3) 0.4272(2) 0.88004(18)
C48_5 C 0.7762(4) 0.4198(4) 0.9136(3)
H28_5 H 0.7813 0.3844 0.9221
C49_2 C 0.7800(11) 0.5120(4) 0.9281(9)
H29_2 H 0.7647 0.5153 0.9020
H30_2 H 0.7559 0.5258 0.9477
H31_2 H 0.8125 0.5314 0.9292
C50_5 C 0.8193(6) 0.4463(5) 0.9756(3)
H32_5 H 0.8109 0.4740 0.9951
H33_5 H 0.8575 0.4456 0.9710
H34_5 H 0.8077 0.4120 0.9860
O25_2 O 0.7232(2) 0.3333(2) 0.99273(15)
O27_2 O 0.7293(2) 0.20309(17) 0.99169(14)
O1_6 O 0.3294(2) 0.29890(17) 0.10103(13)
O2_6 O 0.25496(18) 0.32514(16) 0.07366(14)
O3_6 O 0.28520(16) 0.28945(15) 0.17711(12)
O4_6 O 0.2762(3) 0.34107(19) 0.23046(15)
O7_3 O 0.2286(2) 0.69969(17) 0.04220(15)
O9_6 O 0.2554(2) 0.17744(18) 0.16894(15)
O10_6 O 0.33254(18) 0.19328(16) 0.13827(13)
O11_6 O 0.26899(19) 0.19726(16) 0.06694(13)
C1_6 C 0.2875(3) 0.3796(2) 0.12517(18)
C2_6 C 0.2849(3) 0.3822(2) 0.16693(19)
C3_6 C 0.2856(3) 0.4308(2) 0.18571(19)
H1_6 H 0.2848 0.4321 0.2141
C4_6 C 0.2875(3) 0.4783(2) 0.1641(2)
C5_6 C 0.2864(3) 0.4760(2) 0.1220(2)
C6_6 C 0.2881(3) 0.4270(2) 0.1039(2)
H2_6 H 0.2897 0.4255 0.0756
C7_6 C 0.2903(3) 0.3309(2) 0.09984(18)
C8_6 C 0.2820(3) 0.3355(3) 0.1941(2)
C9_6 C 0.2893(3) 0.5293(2) 0.1874(2)
C10_6 C 0.2524(4) 0.5390(3) 0.2166(2)
H3_6 H 0.2262 0.5136 0.2233
C11_6 C 0.2550(4) 0.5885(3) 0.2362(3)
H4_6 H 0.2294 0.5970 0.2560
C12_6 C 0.2936(3) 0.6245(3) 0.2272(2)
C13_6 C 0.3302(4) 0.6152(3) 0.1993(3)
H5_6 H 0.3568 0.6407 0.1939
C14_6 C 0.3291(4) 0.5657(3) 0.1773(3)
H6_6 H 0.3542 0.5583 0.1569
C15_6 C 0.2941(4) 0.6789(3) 0.2482(2)
C16_6 C 0.2806(3) 0.5244(2) 0.0978(2)
C17_6 C 0.2393(3) 0.5601(2) 0.1069(2)
H7_6 H 0.2169 0.5536 0.1291
C18_6 C 0.2319(4) 0.6044(2) 0.0836(2)
H8_6 H 0.2041 0.6284 0.0895
C19_6 C 0.2651(3) 0.6138(2) 0.0513(2)
C20_6 C 0.3033(4) 0.5781(3) 0.0409(3)
H9_6 H 0.3240 0.5837 0.0176
C21_6 C 0.3120(4) 0.5331(3) 0.0649(3)
H10_6 H 0.3394 0.5089 0.0584
C22_6 C 0.2555(3) 0.6638(3) 0.0268(2)
C23_6 C 0.2845(3) 0.1166(2) 0.12334(17)
C24_6 C 0.2856(3) 0.1086(2) 0.08245(17)
C25_6 C 0.2821(3) 0.0574(2) 0.06709(19)
H11_6 H 0.2840 0.0521 0.0390
C26_6 C 0.2760(3) 0.0145(2) 0.0921(2)
C27_6 C 0.2752(3) 0.0209(2) 0.1334(2)
C28_6 C 0.2791(4) 0.0719(3) 0.1488(2)
H12_6 H 0.2781 0.0769 0.1769
C29_6 C 0.2904(2) 0.1675(2) 0.14443(16)
C30_6 C 0.2864(2) 0.1546(2) 0.05485(17)
H17_6 H 0.2181 0.0181 0.1980
N1_6 N 0.4638(4) 0.3947(4) 0.1683(6)
O17_6 O 0.3967(2) 0.3410(2) 0.1646(2)
C45_6 C 0.4434(4) 0.3483(4) 0.1674(4)
H21_6 H 0.4662 0.3186 0.1689
C46_6 C 0.4341(6) 0.4435(6) 0.1609(7)
H22_6 H 0.4029 0.4445 0.1782
H23_6 H 0.4566 0.4741 0.1666
H24_6 H 0.4229 0.4447 0.1329
C47_3 C 0.5216(6) 0.4015(8) 0.1691(16)
H25_3 H 0.5353 0.4111 0.1434
H26_3 H 0.5373 0.3688 0.1776
H27_3 H 0.5298 0.4287 0.1881
N2_6 N 0.4576(3) 0.2084(5) 0.0626(3)
O18_6 O 0.4272(2) 0.2450(3) 0.11996(18)
C48_6 C 0.4198(4) 0.2238(4) 0.0864(3)
H28_6 H 0.3844 0.2187 0.0779
C49_3 C 0.5120(4) 0.2200(11) 0.0719(9)
H29_3 H 0.5153 0.2353 0.0980
H30_3 H 0.5258 0.2441 0.0523
H31_3 H 0.5314 0.1875 0.0708
C50_6 C 0.4463(5) 0.1807(6) 0.0244(3)
H32_6 H 0.4740 0.1891 0.0049
H33_6 H 0.4456 0.1425 0.0290
H34_6 H 0.4120 0.1923 0.0140
Ni4_3 Ni 0.15403(3) 0.73091(4) 0.03512(2)
O8_5 O 0.2768(2) 0.6667(2) 0.99273(15)
Zn5_3 Zn 0.26357(2) 0.73017(2) 0.962066(17)
O14_6 O 0.1880(2) 0.79926(19) 0.01266(19)
C31_6 C 0.2650(4) 0.9617(2) 0.07250(18)
C32_6 C 0.2212(4) 0.9333(3) 0.0812(2)
H13_6 H 0.1971 0.9457 0.1008
C33_6 C 0.2116(3) 0.8862(3) 0.0615(2)
H14_6 H 0.1807 0.8666 0.0678
C34_6 C 0.2462(3) 0.8670(3) 0.0327(2)
C35_6 C 0.2920(4) 0.8948(3) 0.0243(2)
H15_6 H 0.3166 0.8816 0.0053
C36_6 C 0.3015(4) 0.9425(3) 0.0442(2)
H16_6 H 0.3327 0.9621 0.0386
C37_6 C 0.2340(3) 0.8168(2) 0.0113(2)
C38_6 C 0.2711(4) 0.9779(2) 0.16339(19)
C39_6 C 0.2391(4) 0.9870(3) 0.1966(2)
C40_6 C 0.2379(4) 0.9501(3) 0.2280(2)
H18_6 H 0.2157 0.9557 0.2505
C41_6 C 0.2694(3) 0.9056(2) 0.2258(2)
C42_6 C 0.3009(3) 0.8963(3) 0.1923(2)
H19_6 H 0.3221 0.8653 0.1909
C43_6 C 0.3015(3) 0.9324(3) 0.1611(2)
H20_6 H 0.3226 0.9260 0.1381
C44_6 C 0.2708(3) 0.8678(3) 0.2605(2)
N3_6 N 0.1967(6) 0.7692(6) 0.1522(3)
O19_6 O 0.1598(3) 0.7652(4) 0.0927(2)
C51_6 C 0.1895(5) 0.7524(5) 0.1166(3)
H35_6 H 0.2126 0.7247 0.1087
C52_6 C 0.1745(8) 0.8218(7) 0.1650(6)
H36_6 H 0.1419 0.8290 0.1502
H37_6 H 0.1669 0.8209 0.1938
H38_6 H 0.2004 0.8497 0.1595
C53_6 C 0.2373(8) 0.7528(9) 0.1783(5)
H39_6 H 0.2256 0.7581 0.2053
H40_6 H 0.2686 0.7734 0.1737
H41_6 H 0.2451 0.7161 0.1742
O20_6 O 0.0803(2) 0.7685(4) 0.0285(2)
H42_6 H 0.0743 0.7957 0.0138
H43_6 H 0.0515 0.7590 0.0401
O21_6 O 0.1173(3) 0.6661(4) 0.0583(2)
H44_6 H 0.0933 0.6478 0.0464
H45_6 H 0.1232 0.6527 0.0816
O13_5 O 0.2707(2) 0.79691(17) 0.99169(14)
O26_5 O 0.14688(18) 0.69516(18) 0.98022(13)
O8_6 O 0.6667(2) 0.7232(2) 0.00727(15)
Zn5_4 Zn 0.73017(2) 0.73643(2) 0.037934(17)
O1_7 O 0.29890(17) 0.6706(2) 0.89897(13)
O2_7 O 0.32514(16) 0.74504(18) 0.92634(14)
O3_7 O 0.28945(15) 0.71480(16) 0.82289(12)
O4_7 O 0.34107(19) 0.7238(3) 0.76954(15)
O7_4 O 0.69969(17) 0.7714(2) 0.95780(15)
O9_7 O 0.17744(18) 0.7446(2) 0.83106(15)
O10_7 O 0.19328(16) 0.66746(18) 0.86173(13)
O11_7 O 0.19726(16) 0.73101(19) 0.93306(13)
C1_7 C 0.3796(2) 0.7125(3) 0.87483(18)
C2_7 C 0.3822(2) 0.7151(3) 0.83307(19)
C3_7 C 0.4308(2) 0.7144(3) 0.81429(19)
H1_7 H 0.4321 0.7152 0.7859
C4_7 C 0.4783(2) 0.7125(3) 0.8359(2)
C5_7 C 0.4760(2) 0.7136(3) 0.8780(2)
C6_7 C 0.4270(2) 0.7119(3) 0.8961(2)
H2_7 H 0.4255 0.7103 0.9244
C7_7 C 0.3309(2) 0.7097(3) 0.90016(18)
C8_7 C 0.3355(3) 0.7180(3) 0.8059(2)
C9_7 C 0.5293(2) 0.7107(3) 0.8126(2)
C10_7 C 0.5390(3) 0.7476(4) 0.7834(2)
H3_7 H 0.5136 0.7738 0.7767
C11_7 C 0.5885(3) 0.7450(4) 0.7638(3)
H4_7 H 0.5970 0.7706 0.7440
C12_7 C 0.6245(3) 0.7064(3) 0.7728(2)
C13_7 C 0.6152(3) 0.6698(4) 0.8007(3)
H5_7 H 0.6407 0.6432 0.8061
C14_7 C 0.5657(3) 0.6709(4) 0.8227(3)
H6_7 H 0.5583 0.6458 0.8431
C15_7 C 0.6789(3) 0.7059(4) 0.7518(2)
C16_7 C 0.5244(2) 0.7194(3) 0.9022(2)
C17_7 C 0.5601(2) 0.7607(3) 0.8931(2)
H7_7 H 0.5536 0.7831 0.8709
C18_7 C 0.6044(2) 0.7681(4) 0.9164(2)
H8_7 H 0.6284 0.7959 0.9105
C19_7 C 0.6138(2) 0.7349(3) 0.9487(2)
C20_7 C 0.5781(3) 0.6967(4) 0.9591(3)
H9_7 H 0.5837 0.6760 0.9824
C21_7 C 0.5331(3) 0.6880(4) 0.9351(3)
H10_7 H 0.5089 0.6606 0.9416
C22_7 C 0.6638(3) 0.7445(3) 0.9732(2)
C23_7 C 0.1166(2) 0.7155(3) 0.87666(17)
C24_7 C 0.1086(2) 0.7144(3) 0.91755(17)
C25_7 C 0.0574(2) 0.7179(3) 0.93291(19)
H11_7 H 0.0521 0.7160 0.9610
C26_7 C 0.0145(2) 0.7240(3) 0.9079(2)
C27_7 C 0.0209(2) 0.7248(3) 0.8666(2)
C28_7 C 0.0719(3) 0.7209(4) 0.8512(2)
H12_7 H 0.0769 0.7219 0.8231
C29_7 C 0.1675(2) 0.7096(2) 0.85557(16)
C30_7 C 0.1546(2) 0.7136(2) 0.94515(17)
H17_7 H 0.0181 0.7819 0.8020
N1_7 N 0.3947(4) 0.5362(4) 0.8317(6)
O17_7 O 0.3410(2) 0.6033(2) 0.8354(2)
C45_7 C 0.3483(4) 0.5566(4) 0.8326(4)
H21_7 H 0.3186 0.5338 0.8311
C46_7 C 0.4435(6) 0.5659(6) 0.8391(7)
H22_7 H 0.4445 0.5971 0.8218
H23_7 H 0.4741 0.5434 0.8334
H24_7 H 0.4447 0.5771 0.8671
C47_4 C 0.4015(8) 0.4784(6) 0.8309(16)
H25_4 H 0.4111 0.4647 0.8566
H26_4 H 0.3688 0.4627 0.8224
H27_4 H 0.4287 0.4702 0.8119
N2_7 N 0.2084(5) 0.5424(3) 0.9374(3)
O18_7 O 0.2450(3) 0.5728(2) 0.88004(18)
C48_7 C 0.2238(4) 0.5802(4) 0.9136(3)
H28_7 H 0.2187 0.6156 0.9221
C49_4 C 0.2200(11) 0.4880(4) 0.9281(9)
H29_4 H 0.2353 0.4847 0.9020
H30_4 H 0.2441 0.4742 0.9477
H31_4 H 0.1875 0.4686 0.9292
C50_7 C 0.1807(6) 0.5537(5) 0.9756(3)
H32_7 H 0.1891 0.5260 0.9951
H33_7 H 0.1425 0.5544 0.9710
H34_7 H 0.1923 0.5880 0.9860
Ni4_4 Ni 0.73091(4) 0.84597(3) 0.96488(2)
O13_6 O 0.79691(17) 0.7293(2) 0.00831(14)
O26_6 O 0.69516(18) 0.85312(18) 0.01978(13)
O14_7 O 0.79926(19) 0.8120(2) 0.98734(19)
C31_7 C 0.9617(2) 0.7350(4) 0.92750(18)
C32_7 C 0.9333(3) 0.7788(4) 0.9188(2)
H13_7 H 0.9457 0.8029 0.8992
C33_7 C 0.8862(3) 0.7884(3) 0.9385(2)
H14_7 H 0.8666 0.8193 0.9322
C34_7 C 0.8670(3) 0.7538(3) 0.9673(2)
C35_7 C 0.8948(3) 0.7080(4) 0.9757(2)
H15_7 H 0.8816 0.6834 0.9947
C36_7 C 0.9425(3) 0.6985(4) 0.9558(2)
H16_7 H 0.9621 0.6673 0.9614
C37_7 C 0.8168(2) 0.7660(3) 0.9887(2)
C38_7 C 0.9779(2) 0.7289(4) 0.83661(19)
C39_7 C 0.9870(3) 0.7609(4) 0.8034(2)
C40_7 C 0.9501(3) 0.7621(4) 0.7720(2)
H18_7 H 0.9557 0.7843 0.7495
C41_7 C 0.9056(2) 0.7306(3) 0.7742(2)
C42_7 C 0.8963(3) 0.6991(3) 0.8077(2)
H19_7 H 0.8653 0.6779 0.8091
C43_7 C 0.9324(3) 0.6985(3) 0.8389(2)
H20_7 H 0.9260 0.6774 0.8619
C44_7 C 0.8678(3) 0.7292(3) 0.7395(2)
N3_7 N 0.7692(6) 0.8033(6) 0.8478(3)
O19_7 O 0.7652(4) 0.8402(3) 0.9073(2)
C51_7 C 0.7524(5) 0.8105(5) 0.8834(3)
H35_7 H 0.7247 0.7874 0.8913
C52_7 C 0.8218(7) 0.8255(8) 0.8350(6)
H36_7 H 0.8290 0.8581 0.8498
H37_7 H 0.8209 0.8331 0.8062
H38_7 H 0.8497 0.7996 0.8405
C53_7 C 0.7528(9) 0.7627(8) 0.8217(5)
H39_7 H 0.7581 0.7744 0.7947
H40_7 H 0.7734 0.7314 0.8263
H41_7 H 0.7161 0.7549 0.8258
O20_7 O 0.7685(4) 0.9197(2) 0.9715(2)
H42_7 H 0.7957 0.9257 0.9862
H43_7 H 0.7590 0.9485 0.9599
O21_7 O 0.6661(4) 0.8827(3) 0.9417(2)
H44_7 H 0.6478 0.9067 0.9536
H45_7 H 0.6527 0.8768 0.9184
O14_8 O 0.8120(2) 0.20074(19) 0.01266(19)
C31_8 C 0.7350(4) 0.0383(2) 0.07250(18)
C32_8 C 0.7788(4) 0.0667(3) 0.0812(2)
H13_8 H 0.8029 0.0543 0.1008
C33_8 C 0.7884(3) 0.1138(3) 0.0615(2)
H14_8 H 0.8193 0.1334 0.0678
C34_8 C 0.7538(3) 0.1330(3) 0.0327(2)
C35_8 C 0.7080(4) 0.1052(3) 0.0243(2)
H15_8 H 0.6834 0.1184 0.0053
C36_8 C 0.6985(4) 0.0575(3) 0.0442(2)
H16_8 H 0.6673 0.0379 0.0386
C37_8 C 0.7660(3) 0.1832(2) 0.0113(2)
C38_8 C 0.7289(4) 0.0221(2) 0.16339(19)
C39_8 C 0.7609(4) 0.0130(3) 0.1966(2)
C40_8 C 0.7621(4) 0.0499(3) 0.2280(2)
H18_8 H 0.7843 0.0443 0.2505
C41_8 C 0.7306(3) 0.0944(2) 0.2258(2)
C42_8 C 0.6991(3) 0.1037(3) 0.1923(2)
H19_8 H 0.6779 0.1347 0.1909
C43_8 C 0.6985(3) 0.0676(3) 0.1611(2)
H20_8 H 0.6774 0.0740 0.1381
C44_8 C 0.7292(3) 0.1322(3) 0.2605(2)
N3_8 N 0.8033(6) 0.2308(6) 0.1522(3)
O19_8 O 0.8402(3) 0.2348(4) 0.0927(2)
C51_8 C 0.8105(5) 0.2476(5) 0.1166(3)
H35_8 H 0.7874 0.2753 0.1087
C52_8 C 0.8255(8) 0.1782(7) 0.1650(6)
H36_8 H 0.8581 0.1710 0.1502
H37_8 H 0.8331 0.1791 0.1938
H38_8 H 0.7996 0.1503 0.1595
C53_8 C 0.7627(8) 0.2472(9) 0.1783(5)
H39_8 H 0.7744 0.2419 0.2053
H40_8 H 0.7314 0.2266 0.1737
H41_8 H 0.7549 0.2839 0.1742
O20_8 O 0.9197(2) 0.2315(4) 0.0285(2)
H42_8 H 0.9257 0.2043 0.0138
H43_8 H 0.9485 0.2410 0.0401
O21_8 O 0.8827(3) 0.3339(4) 0.0583(2)
H44_8 H 0.9067 0.3522 0.0464
H45_8 H 0.8768 0.3473 0.0816
O24_4 O 0.7714(2) 0.30031(17) 0.04220(15)
O1_8 O 0.6706(2) 0.70110(17) 0.10103(13)
O2_8 O 0.74504(18) 0.67486(16) 0.07366(14)
O3_8 O 0.71480(16) 0.71055(15) 0.17711(12)
O4_8 O 0.7238(3) 0.65893(19) 0.23046(15)
O9_8 O 0.7446(2) 0.82256(18) 0.16894(15)
O10_8 O 0.66746(18) 0.80672(16) 0.13827(13)
O11_8 O 0.73101(19) 0.80274(16) 0.06694(13)
C1_8 C 0.7125(3) 0.6204(2) 0.12517(18)
C2_8 C 0.7151(3) 0.6178(2) 0.16693(19)
C3_8 C 0.7144(3) 0.5692(2) 0.18571(19)
H1_8 H 0.7152 0.5679 0.2141
C4_8 C 0.7125(3) 0.5217(2) 0.1641(2)
C5_8 C 0.7136(3) 0.5240(2) 0.1220(2)
C6_8 C 0.7119(3) 0.5730(2) 0.1039(2)
H2_8 H 0.7103 0.5745 0.0756
C7_8 C 0.7097(3) 0.6691(2) 0.09984(18)
C8_8 C 0.7180(3) 0.6645(3) 0.1941(2)
C9_8 C 0.7107(3) 0.4707(2) 0.1874(2)
C10_8 C 0.7476(4) 0.4610(3) 0.2166(2)
H3_8 H 0.7738 0.4864 0.2233
C11_8 C 0.7450(4) 0.4115(3) 0.2362(3)
H4_8 H 0.7706 0.4030 0.2560
C12_8 C 0.7064(3) 0.3755(3) 0.2272(2)
C13_8 C 0.6698(4) 0.3848(3) 0.1993(3)
H5_8 H 0.6432 0.3593 0.1939
C14_8 C 0.6709(4) 0.4343(3) 0.1773(3)
H6_8 H 0.6458 0.4417 0.1569
C15_8 C 0.7059(4) 0.3211(3) 0.2482(2)
C16_8 C 0.7194(3) 0.4756(2) 0.0978(2)
C17_8 C 0.7607(3) 0.4399(2) 0.1069(2)
H7_8 H 0.7831 0.4464 0.1291
C18_8 C 0.7681(4) 0.3956(2) 0.0836(2)
H8_8 H 0.7959 0.3716 0.0895
C19_8 C 0.7349(3) 0.3862(2) 0.0513(2)
C20_8 C 0.6967(4) 0.4219(3) 0.0409(3)
H9_8 H 0.6760 0.4163 0.0176
C21_8 C 0.6880(4) 0.4669(3) 0.0649(3)
H10_8 H 0.6606 0.4911 0.0584
C22_8 C 0.7445(3) 0.3362(3) 0.0268(2)
C23_8 C 0.7155(3) 0.8834(2) 0.12334(17)
C24_8 C 0.7144(3) 0.8914(2) 0.08245(17)
C25_8 C 0.7179(3) 0.9426(2) 0.06709(19)
H11_8 H 0.7160 0.9479 0.0390
C26_8 C 0.7240(3) 0.9855(2) 0.0921(2)
C27_8 C 0.7248(3) 0.9791(2) 0.1334(2)
C28_8 C 0.7209(4) 0.9281(3) 0.1488(2)
H12_8 H 0.7219 0.9231 0.1769
C29_8 C 0.7096(2) 0.8325(2) 0.14443(16)
C30_8 C 0.7136(2) 0.8454(2) 0.05485(17)
H17_8 H 0.7819 0.9819 0.1980
N1_8 N 0.5362(4) 0.6053(4) 0.1683(6)
O17_8 O 0.6033(2) 0.6590(2) 0.1646(2)
C45_8 C 0.5566(4) 0.6517(4) 0.1674(4)
H21_8 H 0.5338 0.6814 0.1689
C46_8 C 0.5659(6) 0.5565(6) 0.1609(7)
H22_8 H 0.5971 0.5555 0.1782
H23_8 H 0.5434 0.5259 0.1666
H24_8 H 0.5771 0.5553 0.1329
C47_5 C 0.4784(6) 0.5985(8) 0.1691(16)
H25_5 H 0.4647 0.5889 0.1434
H26_5 H 0.4627 0.6312 0.1776
H27_5 H 0.4702 0.5713 0.1881
N2_8 N 0.5424(3) 0.7916(5) 0.0626(3)
O18_8 O 0.5728(2) 0.7550(3) 0.11996(18)
C48_8 C 0.5802(4) 0.7762(4) 0.0864(3)
H28_8 H 0.6156 0.7813 0.0779
C49_5 C 0.4880(4) 0.7800(11) 0.0719(9)
H29_5 H 0.4847 0.7647 0.0980
H30_5 H 0.4742 0.7559 0.0523
H31_5 H 0.4686 0.8125 0.0708
C50_8 C 0.5537(5) 0.8193(6) 0.0244(3)
H32_8 H 0.5260 0.8109 0.0049
H33_8 H 0.5544 0.8575 0.0290
H34_8 H 0.5880 0.8077 0.0140
C47_6 C 0.0216(6) 0.9015(8) 0.6691(16)
H25_6 H 0.0353 0.9111 0.6434
H26_6 H 0.0373 0.8688 0.6776
H27_6 H 0.0298 0.9287 0.6881
C49_6 C 0.0120(4) 0.7200(11) 0.5719(9)
H29_6 H 0.0153 0.7353 0.5980
H30_6 H 0.0258 0.7441 0.5523
H31_6 H 0.0314 0.6875 0.5708
C47_7 C 0.9015(8) 0.9784(6) 0.3309(16)
H25_7 H 0.9111 0.9647 0.3566
H26_7 H 0.8688 0.9627 0.3224
H27_7 H 0.9287 0.9702 0.3119
C49_7 C 0.7200(11) 0.9880(4) 0.4281(9)
H29_7 H 0.7353 0.9847 0.4020
H30_7 H 0.7441 0.9742 0.4477
H31_7 H 0.6875 0.9686 0.4292
C47_8 C 0.9784(6) 0.0985(8) 0.6691(16)
H25_8 H 0.9647 0.0889 0.6434
H26_8 H 0.9627 0.1312 0.6776
H27_8 H 0.9702 0.0713 0.6881
C49_8 C 0.9880(4) 0.2800(11) 0.5719(9)
H29_8 H 0.9847 0.2647 0.5980
H30_8 H 0.9742 0.2559 0.5523
H31_8 H 0.9686 0.3125 0.5708
loop_
_geom_bond_atom_site_label_1
_geom_bond_atom_site_label_2
_geom_bond_site_symmetry_1
_geom_bond_site_symmetry_2
H25 C47 1_555 1_555
H26 C47 1_555 1_555
H27 C47 1_555 1_555
H29 C49 1_555 1_555
H30 C49 1_555 1_555
H31 C49 1_555 1_555
Ni1 Zn1 1_555 1_555
Zn1 O3 1_555 1_555
Zn2 O2 1_555 1_555
Ni2 O14 1_555 1_555
O1 Ni1 1_555 1_555
O2 C7 1_555 1_555
O3 Ni1 1_555 1_555
O4 C8 1_555 1_555
O9 Zn1 1_555 1_555
O10 Ni1 1_555 1_555
O11 Zn2 1_555 1_555
O12 C30 1_555 1_555
O13 C37 1_555 1_555
O14 C37 1_555 1_555
O15 C44 1_555 1_555
O16 C44 1_555 1_555
C1 C2 1_555 1_555
C2 C3 1_555 1_555
C3 H1 1_555 1_555
C4 C3 1_555 1_555
C5 C4 1_555 1_555
C6 C1 1_555 1_555
H2 C6 1_555 1_555
C7 O1 1_555 1_555
C8 O3 1_555 1_555
C23 C24 1_555 1_555
C24 C25 1_555 1_555
C25 H11 1_555 1_555
C26 C25 1_555 1_555
C27 C26 1_555 1_555
C28 C23 1_555 1_555
H12 C28 1_555 1_555
C29 O9 1_555 1_555
C30 O11 1_555 1_555
C31 C26 1_555 1_555
C32 C31 1_555 1_555
H13 C32 1_555 1_555
C33 C32 1_555 1_555
H14 C33 1_555 1_555
C34 C33 1_555 1_555
C35 C34 1_555 1_555
H15 C35 1_555 1_555
C36 C31 1_555 1_555
H16 C36 1_555 1_555
C37 C34 1_555 1_555
C38 C27 1_555 1_555
C39 C38 1_555 1_555
H17 C39 1_555 1_555
C40 C39 1_555 1_555
H18 C40 1_555 1_555
C41 C40 1_555 1_555
C42 C41 1_555 1_555
H19 C42 1_555 1_555
C43 C38 1_555 1_555
H20 C43 1_555 1_555
C44 C41 1_555 1_555
N1 C45 1_555 1_555
O17 Ni1 1_555 1_555
C45 O17 1_555 1_555
H21 C45 1_555 1_555
C46 N1 1_555 1_555
H22 C46 1_555 1_555
H23 C46 1_555 1_555
H24 C46 1_555 1_555
N2 C48 1_555 1_555
O18 Ni1 1_555 1_555
C48 O18 1_555 1_555
H28 C48 1_555 1_555
C50 N2 1_555 1_555
H32 C50 1_555 1_555
H33 C50 1_555 1_555
H34 C50 1_555 1_555
N3 C51 1_555 1_555
O19 Ni2 1_555 1_555
C51 O19 1_555 1_555
H35 C51 1_555 1_555
C52 N3 1_555 1_555
H36 C52 1_555 1_555
H37 C52 1_555 1_555
H38 C52 1_555 1_555
C53 N3 1_555 1_555
H39 C53 1_555 1_555
H40 C53 1_555 1_555
H41 C53 1_555 1_555
O20 Ni2 1_555 1_555
H42 O20 1_555 1_555
H43 O20 1_555 1_555
O21 Ni2 1_555 1_555
H44 O21 1_555 1_555
H45 O21 1_555 1_555
Ni3 O16 1_555 1_555
Zn4 O15 1_555 1_555
Zn6 O13 1_555 1_555
Ni5 O12 1_555 1_555
O22 Zn1 1_555 1_555
O23 Zn1 1_555 1_555
O24 Ni2 1_555 1_555
O25 Zn2 1_555 1_555
O26 Ni2 1_555 1_555
O27 Zn2 1_555 1_555
O28 Zn1 1_555 1_555
O29 Ni1 1_555 1_555
O10 C29 1_555 1_555
C1 C7 1_555 1_555
C2 C8 1_555 1_555
C5 C6 1_555 1_555
C23 C29 1_555 1_555
C24 C30 1_555 1_555
C27 C28 1_555 1_555
C35 C36 1_555 1_555
C42 C43 1_555 1_555
Ni3 Zn4 1_555 1_555
O5 C15 1_555 1_555
O6 C15 1_555 1_555
O24 C22 1_555 1_555
O8 C22 1_555 1_555
C10 C9 1_555 1_555
H3 C10 1_555 1_555
C11 C10 1_555 1_555
H4 C11 1_555 1_555
C12 C11 1_555 1_555
C13 C12 1_555 1_555
H5 C13 1_555 1_555
C14 C9 1_555 1_555
H6 C14 1_555 1_555
C15 C12 1_555 1_555
C17 C16 1_555 1_555
H7 C17 1_555 1_555
C18 C17 1_555 1_555
H8 C18 1_555 1_555
C19 C18 1_555 1_555
C20 C19 1_555 1_555
H9 C20 1_555 1_555
C21 C16 1_555 1_555
H10 C21 1_555 1_555
C22 C19 1_555 1_555
Zn4 O5 1_555 1_555
Zn6 O8 1_555 1_555
O6 Zn4 1_555 1_555
C13 C14 1_555 1_555
C20 C21 1_555 1_555
O5_2 C15_2 1_555 1_555
O6_2 C15_2 1_555 1_555
O7 C22_2 1_555 1_555
O8_2 C22_2 1_555 1_555
C10_2 C9_2 1_555 1_555
H3_2 C10_2 1_555 1_555
C11_2 C10_2 1_555 1_555
H4_2 C11_2 1_555 1_555
C12_2 C11_2 1_555 1_555
C13_2 C12_2 1_555 1_555
H5_2 C13_2 1_555 1_555
C14_2 C9_2 1_555 1_555
H6_2 C14_2 1_555 1_555
C15_2 C12_2 1_555 1_555
C17_2 C16_2 1_555 1_555
H7_2 C17_2 1_555 1_555
C18_2 C17_2 1_555 1_555
H8_2 C18_2 1_555 1_555
C19_2 C18_2 1_555 1_555
C20_2 C19_2 1_555 1_555
H9_2 C20_2 1_555 1_555
C21_2 C16_2 1_555 1_555
H10_2 C21_2 1_555 1_555
C22_2 C19_2 1_555 1_555
Zn3 O5_2 1_555 1_555
Zn5 O8_2 1_555 1_555
Ni4 O7 1_555 1_555
O6_2 Zn3 1_555 1_555
C13_2 C14_2 1_555 1_555
C20_2 C21_2 1_555 1_555
Ni1_2 Zn1_2 1_555 1_555
Zn1_2 O3_2 1_555 1_555
Zn6 O2_2 1_555 1_555
Ni4 O14_2 1_555 1_555
O1_2 Ni1_2 1_555 1_555
O2_2 C7_2 1_555 1_555
O3_2 Ni1_2 1_555 1_555
O4_2 C8_2 1_555 1_555
O9_2 Zn1_2 1_555 1_555
O10_2 Ni1_2 1_555 1_555
O11_2 Zn6 1_555 1_555
O26 C30_2 1_555 1_555
O13_2 C37_2 1_555 1_555
O14_2 C37_2 1_555 1_555
O15_2 C44_2 1_555 1_555
O16_2 C44_2 1_555 1_555
C1_2 C2_2 1_555 1_555
C2_2 C3_2 1_555 1_555
C3_2 H1_2 1_555 1_555
C4_2 C3_2 1_555 1_555
C5_2 C4_2 1_555 1_555
C6_2 C1_2 1_555 1_555
H2_2 C6_2 1_555 1_555
C7_2 O1_2 1_555 1_555
C8_2 O3_2 1_555 1_555
C23_2 C24_2 1_555 1_555
C24_2 C25_2 1_555 1_555
C25_2 H11_2 1_555 1_555
C26_2 C25_2 1_555 1_555
C27_2 C26_2 1_555 1_555
C28_2 C23_2 1_555 1_555
H12_2 C28_2 1_555 1_555
C29_2 O9_2 1_555 1_555
C30_2 O11_2 1_555 1_555
C31_2 C26_2 1_555 1_555
C32_2 C31_2 1_555 1_555
H13_2 C32_2 1_555 1_555
C33_2 C32_2 1_555 1_555
H14_2 C33_2 1_555 1_555
C34_2 C33_2 1_555 1_555
C35_2 C34_2 1_555 1_555
H15_2 C35_2 1_555 1_555
C36_2 C31_2 1_555 1_555
H16_2 C36_2 1_555 1_555
C37_2 C34_2 1_555 1_555
C38_2 C27_2 1_555 1_555
C39_2 C38_2 1_555 1_555
H17_2 C39_2 1_555 1_555
C40_2 C39_2 1_555 1_555
H18_2 C40_2 1_555 1_555
C41_2 C40_2 1_555 1_555
C42_2 C41_2 1_555 1_555
H19_2 C42_2 1_555 1_555
C43_2 C38_2 1_555 1_555
H20_2 C43_2 1_555 1_555
C44_2 C41_2 1_555 1_555
N1_2 C45_2 1_555 1_555
O17_2 Ni1_2 1_555 1_555
C45_2 O17_2 1_555 1_555
H21_2 C45_2 1_555 1_555
C46_2 N1_2 1_555 1_555
H22_2 C46_2 1_555 1_555
H23_2 C46_2 1_555 1_555
H24_2 C46_2 1_555 1_555
N2_2 C48_2 1_555 1_555
O18_2 Ni1_2 1_555 1_555
C48_2 O18_2 1_555 1_555
H28_2 C48_2 1_555 1_555
C50_2 N2_2 1_555 1_555
H32_2 C50_2 1_555 1_555
H33_2 C50_2 1_555 1_555
H34_2 C50_2 1_555 1_555
N3_2 C51_2 1_555 1_555
O19_2 Ni4 1_555 1_555
C51_2 O19_2 1_555 1_555
H35_2 C51_2 1_555 1_555
C52_2 N3_2 1_555 1_555
H36_2 C52_2 1_555 1_555
H37_2 C52_2 1_555 1_555
H38_2 C52_2 1_555 1_555
C53_2 N3_2 1_555 1_555
H39_2 C53_2 1_555 1_555
H40_2 C53_2 1_555 1_555
H41_2 C53_2 1_555 1_555
O20_2 Ni4 1_555 1_555
H42_2 O20_2 1_555 1_555
H43_2 O20_2 1_555 1_555
O21_2 Ni4 1_555 1_555
H44_2 O21_2 1_555 1_555
H45_2 O21_2 1_555 1_555
Ni3_2 O16_2 1_555 1_555
Zn3 O15_2 1_555 1_555
Zn5 O13_2 1_555 1_555
O22_2 Zn1_2 1_555 1_555
O23_2 Zn1_2 1_555 1_555
O26_2 Ni4 1_555 1_555
O28_2 Zn1_2 1_555 1_555
O29_2 Ni1_2 1_555 1_555
O10_2 C29_2 1_555 1_555
C1_2 C7_2 1_555 1_555
C2_2 C8_2 1_555 1_555
C5_2 C6_2 1_555 1_555
C23_2 C29_2 1_555 1_555
C24_2 C30_2 1_555 1_555
C27_2 C28_2 1_555 1_555
C35_2 C36_2 1_555 1_555
C42_2 C43_2 1_555 1_555
Ni3_2 Zn3 1_555 1_555
O5_3 C15_3 1_555 1_555
O6_3 C15_3 1_555 1_555
O7_2 C22_3 1_555 1_555
O8_3 C22_3 1_555 1_555
C10_3 C9_3 1_555 1_555
H3_3 C10_3 1_555 1_555
C11_3 C10_3 1_555 1_555
H4_3 C11_3 1_555 1_555
C12_3 C11_3 1_555 1_555
C13_3 C12_3 1_555 1_555
H5_3 C13_3 1_555 1_555
C14_3 C9_3 1_555 1_555
H6_3 C14_3 1_555 1_555
C15_3 C12_3 1_555 1_555
C17_3 C16_3 1_555 1_555
H7_3 C17_3 1_555 1_555
C18_3 C17_3 1_555 1_555
H8_3 C18_3 1_555 1_555
C19_3 C18_3 1_555 1_555
C20_3 C19_3 1_555 1_555
H9_3 C20_3 1_555 1_555
C21_3 C16_3 1_555 1_555
H10_3 C21_3 1_555 1_555
C22_3 C19_3 1_555 1_555
Zn3_2 O5_3 1_555 1_555
Zn5_2 O8_3 1_555 1_555
Ni4_2 O7_2 1_555 1_555
O6_3 Zn3_2 1_555 1_555
C13_3 C14_3 1_555 1_555
C20_3 C21_3 1_555 1_555
Ni1_3 Zn1_3 1_555 1_555
Zn1_3 O3_3 1_555 1_555
Zn5 O2_3 1_555 1_555
Ni4_2 O14_3 1_555 1_555
O1_3 Ni1_3 1_555 1_555
O2_3 C7_3 1_555 1_555
O3_3 Ni1_3 1_555 1_555
O4_3 C8_3 1_555 1_555
O9_3 Zn1_3 1_555 1_555
O10_3 Ni1_3 1_555 1_555
O11_3 Zn5 1_555 1_555
O26_2 C30_3 1_555 1_555
O13_3 C37_3 1_555 1_555
O14_3 C37_3 1_555 1_555
O15_3 C44_3 1_555 1_555
O16_3 C44_3 1_555 1_555
C1_3 C2_3 1_555 1_555
C2_3 C3_3 1_555 1_555
C3_3 H1_3 1_555 1_555
C4_3 C3_3 1_555 1_555
C5_3 C4_3 1_555 1_555
C6_3 C1_3 1_555 1_555
H2_3 C6_3 1_555 1_555
C7_3 O1_3 1_555 1_555
C8_3 O3_3 1_555 1_555
C23_3 C24_3 1_555 1_555
C24_3 C25_3 1_555 1_555
C25_3 H11_3 1_555 1_555
C26_3 C25_3 1_555 1_555
C27_3 C26_3 1_555 1_555
C28_3 C23_3 1_555 1_555
H12_3 C28_3 1_555 1_555
C29_3 O9_3 1_555 1_555
C30_3 O11_3 1_555 1_555
C31_3 C26_3 1_555 1_555
C32_3 C31_3 1_555 1_555
H13_3 C32_3 1_555 1_555
C33_3 C32_3 1_555 1_555
H14_3 C33_3 1_555 1_555
C34_3 C33_3 1_555 1_555
C35_3 C34_3 1_555 1_555
H15_3 C35_3 1_555 1_555
C36_3 C31_3 1_555 1_555
H16_3 C36_3 1_555 1_555
C37_3 C34_3 1_555 1_555
C38_3 C27_3 1_555 1_555
C39_3 C38_3 1_555 1_555
H17_3 C39_3 1_555 1_555
C40_3 C39_3 1_555 1_555
H18_3 C40_3 1_555 1_555
C41_3 C40_3 1_555 1_555
C42_3 C41_3 1_555 1_555
H19_3 C42_3 1_555 1_555
C43_3 C38_3 1_555 1_555
H20_3 C43_3 1_555 1_555
C44_3 C41_3 1_555 1_555
N1_3 C45_3 1_555 1_555
O17_3 Ni1_3 1_555 1_555
C45_3 O17_3 1_555 1_555
H21_3 C45_3 1_555 1_555
C46_3 N1_3 1_555 1_555
H22_3 C46_3 1_555 1_555
H23_3 C46_3 1_555 1_555
H24_3 C46_3 1_555 1_555
N2_3 C48_3 1_555 1_555
O18_3 Ni1_3 1_555 1_555
C48_3 O18_3 1_555 1_555
H28_3 C48_3 1_555 1_555
C50_3 N2_3 1_555 1_555
H32_3 C50_3 1_555 1_555
H33_3 C50_3 1_555 1_555
H34_3 C50_3 1_555 1_555
N3_3 C51_3 1_555 1_555
O19_3 Ni4_2 1_555 1_555
C51_3 O19_3 1_555 1_555
H35_3 C51_3 1_555 1_555
C52_3 N3_3 1_555 1_555
H36_3 C52_3 1_555 1_555
H37_3 C52_3 1_555 1_555
H38_3 C52_3 1_555 1_555
C53_3 N3_3 1_555 1_555
H39_3 C53_3 1_555 1_555
H40_3 C53_3 1_555 1_555
H41_3 C53_3 1_555 1_555
O20_3 Ni4_2 1_555 1_555
H42_3 O20_3 1_555 1_555
H43_3 O20_3 1_555 1_555
O21_3 Ni4_2 1_555 1_555
H44_3 O21_3 1_555 1_555
H45_3 O21_3 1_555 1_555
Ni3_3 O16_3 1_555 1_555
Zn3_2 O15_3 1_555 1_555
Zn5_2 O13_3 1_555 1_555
O22_3 Zn1_3 1_555 1_555
O23_3 Zn1_3 1_555 1_555
O26_3 Ni4_2 1_555 1_555
O28_3 Zn1_3 1_555 1_555
O29_3 Ni1_3 1_555 1_555
O10_3 C29_3 1_555 1_555
C1_3 C7_3 1_555 1_555
C2_3 C8_3 1_555 1_555
C5_3 C6_3 1_555 1_555
C23_3 C29_3 1_555 1_555
C24_3 C30_3 1_555 1_555
C27_3 C28_3 1_555 1_555
C35_3 C36_3 1_555 1_555
C42_3 C43_3 1_555 1_555
Ni3_3 Zn3_2 1_555 1_555
Ni1_4 Zn1_4 1_555 1_555
Zn1_4 O3_4 1_555 1_555
Zn5_2 O2_4 1_555 1_555
Ni5 O14_4 1_555 1_555
O1_4 Ni1_4 1_555 1_555
O2_4 C7_4 1_555 1_555
O3_4 Ni1_4 1_555 1_555
O4_4 C8_4 1_555 1_555
O9_4 Zn1_4 1_555 1_555
O10_4 Ni1_4 1_555 1_555
O11_4 Zn5_2 1_555 1_555
O26_3 C30_4 1_555 1_555
O27 C37_4 1_555 1_555
O14_4 C37_4 1_555 1_555
O15_4 C44_4 1_555 1_555
O16_4 C44_4 1_555 1_555
C1_4 C2_4 1_555 1_555
C2_4 C3_4 1_555 1_555
C3_4 H1_4 1_555 1_555
C4_4 C3_4 1_555 1_555
C5_4 C4_4 1_555 1_555
C6_4 C1_4 1_555 1_555
H2_4 C6_4 1_555 1_555
C7_4 O1_4 1_555 1_555
C8_4 O3_4 1_555 1_555
C23_4 C24_4 1_555 1_555
C24_4 C25_4 1_555 1_555
C25_4 H11_4 1_555 1_555
C26_4 C25_4 1_555 1_555
C27_4 C26_4 1_555 1_555
C28_4 C23_4 1_555 1_555
H12_4 C28_4 1_555 1_555
C29_4 O9_4 1_555 1_555
C30_4 O11_4 1_555 1_555
C31_4 C26_4 1_555 1_555
C32_4 C31_4 1_555 1_555
H13_4 C32_4 1_555 1_555
C33_4 C32_4 1_555 1_555
H14_4 C33_4 1_555 1_555
C34_4 C33_4 1_555 1_555
C35_4 C34_4 1_555 1_555
H15_4 C35_4 1_555 1_555
C36_4 C31_4 1_555 1_555
H16_4 C36_4 1_555 1_555
C37_4 C34_4 1_555 1_555
C38_4 C27_4 1_555 1_555
C39_4 C38_4 1_555 1_555
H17_4 C39_4 1_555 1_555
C40_4 C39_4 1_555 1_555
H18_4 C40_4 1_555 1_555
C41_4 C40_4 1_555 1_555
C42_4 C41_4 1_555 1_555
H19_4 C42_4 1_555 1_555
C43_4 C38_4 1_555 1_555
H20_4 C43_4 1_555 1_555
C44_4 C41_4 1_555 1_555
N1_4 C45_4 1_555 1_555
O17_4 Ni1_4 1_555 1_555
C45_4 O17_4 1_555 1_555
H21_4 C45_4 1_555 1_555
C46_4 N1_4 1_555 1_555
H22_4 C46_4 1_555 1_555
H23_4 C46_4 1_555 1_555
H24_4 C46_4 1_555 1_555
N2_4 C48_4 1_555 1_555
O18_4 Ni1_4 1_555 1_555
C48_4 O18_4 1_555 1_555
H28_4 C48_4 1_555 1_555
C50_4 N2_4 1_555 1_555
H32_4 C50_4 1_555 1_555
H33_4 C50_4 1_555 1_555
H34_4 C50_4 1_555 1_555
N3_4 C51_4 1_555 1_555
O19_4 Ni5 1_555 1_555
C51_4 O19_4 1_555 1_555
H35_4 C51_4 1_555 1_555
C52_4 N3_4 1_555 1_555
H36_4 C52_4 1_555 1_555
H37_4 C52_4 1_555 1_555
H38_4 C52_4 1_555 1_555
C53_4 N3_4 1_555 1_555
H39_4 C53_4 1_555 1_555
H40_4 C53_4 1_555 1_555
H41_4 C53_4 1_555 1_555
O20_4 Ni5 1_555 1_555
H42_4 O20_4 1_555 1_555
H43_4 O20_4 1_555 1_555
O21_4 Ni5 1_555 1_555
H44_4 O21_4 1_555 1_555
H45_4 O21_4 1_555 1_555
Ni3_4 O16_4 1_555 1_555
Zn4_2 O15_4 1_555 1_555
O22_4 Zn1_4 1_555 1_555
O23_4 Zn1_4 1_555 1_555
O24_2 Ni5 1_555 1_555
O28_4 Zn1_4 1_555 1_555
O29_4 Ni1_4 1_555 1_555
O10_4 C29_4 1_555 1_555
C1_4 C7_4 1_555 1_555
C2_4 C8_4 1_555 1_555
C5_4 C6_4 1_555 1_555
C23_4 C29_4 1_555 1_555
C24_4 C30_4 1_555 1_555
C27_4 C28_4 1_555 1_555
C35_4 C36_4 1_555 1_555
C42_4 C43_4 1_555 1_555
Ni3_4 Zn4_2 1_555 1_555
O5_4 C15_4 1_555 1_555
O6_4 C15_4 1_555 1_555
O24_2 C22_4 1_555 1_555
O25 C22_4 1_555 1_555
C10_4 C9_4 1_555 1_555
H3_4 C10_4 1_555 1_555
C11_4 C10_4 1_555 1_555
H4_4 C11_4 1_555 1_555
C12_4 C11_4 1_555 1_555
C13_4 C12_4 1_555 1_555
H5_4 C13_4 1_555 1_555
C14_4 C9_4 1_555 1_555
H6_4 C14_4 1_555 1_555
C15_4 C12_4 1_555 1_555
C17_4 C16_4 1_555 1_555
H7_4 C17_4 1_555 1_555
C18_4 C17_4 1_555 1_555
H8_4 C18_4 1_555 1_555
C19_4 C18_4 1_555 1_555
C20_4 C19_4 1_555 1_555
H9_4 C20_4 1_555 1_555
C21_4 C16_4 1_555 1_555
H10_4 C21_4 1_555 1_555
C22_4 C19_4 1_555 1_555
Zn4_2 O5_4 1_555 1_555
O6_4 Zn4_2 1_555 1_555
C13_4 C14_4 1_555 1_555
C20_4 C21_4 1_555 1_555
Zn6_2 O13_4 1_555 1_555
Ni2_2 O14_5 1_555 1_555
O14_5 C37_5 1_555 1_555
O28_4 C44_5 1_555 1_555
O29_4 C44_5 1_555 1_555
C32_5 C31_5 1_555 1_555
H13_5 C32_5 1_555 1_555
C33_5 C32_5 1_555 1_555
H14_5 C33_5 1_555 1_555
C34_5 C33_5 1_555 1_555
C35_5 C34_5 1_555 1_555
H15_5 C35_5 1_555 1_555
C36_5 C31_5 1_555 1_555
H16_5 C36_5 1_555 1_555
C37_5 C34_5 1_555 1_555
C39_5 C38_5 1_555 1_555
C40_5 C39_5 1_555 1_555
H18_5 C40_5 1_555 1_555
C41_5 C40_5 1_555 1_555
C42_5 C41_5 1_555 1_555
H19_5 C42_5 1_555 1_555
C43_5 C38_5 1_555 1_555
H20_5 C43_5 1_555 1_555
C44_5 C41_5 1_555 1_555
N3_5 C51_5 1_555 1_555
O19_5 Ni2_2 1_555 1_555
C51_5 O19_5 1_555 1_555
H35_5 C51_5 1_555 1_555
C52_5 N3_5 1_555 1_555
H36_5 C52_5 1_555 1_555
H37_5 C52_5 1_555 1_555
H38_5 C52_5 1_555 1_555
C53_5 N3_5 1_555 1_555
H39_5 C53_5 1_555 1_555
H40_5 C53_5 1_555 1_555
H41_5 C53_5 1_555 1_555
O20_5 Ni2_2 1_555 1_555
H42_5 O20_5 1_555 1_555
H43_5 O20_5 1_555 1_555
O21_5 Ni2_2 1_555 1_555
H44_5 O21_5 1_555 1_555
H45_5 O21_5 1_555 1_555
O24_3 Ni2_2 1_555 1_555
C35_5 C36_5 1_555 1_555
C42_5 C43_5 1_555 1_555
Zn6_2 O8_4 1_555 1_555
Zn3 O3_5 1_555 1_555
Zn2_2 O2_5 1_555 1_555
O1_5 Ni3_2 1_555 1_555
O2_5 C7_5 1_555 1_555
O3_5 Ni3_2 1_555 1_555
O4_5 C8_5 1_555 1_555
O22_4 C15_5 1_555 1_555
O23_4 C15_5 1_555 1_555
O24_3 C22_5 1_555 1_555
O9_5 Zn3 1_555 1_555
O10_5 Ni3_2 1_555 1_555
O11_5 Zn2_2 1_555 1_555
O12_2 C30_5 1_555 1_555
C1_5 C2_5 1_555 1_555
C2_5 C3_5 1_555 1_555
C3_5 H1_5 1_555 1_555
C4_5 C3_5 1_555 1_555
C5_5 C4_5 1_555 1_555
C6_5 C1_5 1_555 1_555
H2_5 C6_5 1_555 1_555
C7_5 O1_5 1_555 1_555
C8_5 O3_5 1_555 1_555
C9_5 C4_5 1_555 1_555
C10_5 C9_5 1_555 1_555
H3_5 C10_5 1_555 1_555
C11_5 C10_5 1_555 1_555
H4_5 C11_5 1_555 1_555
C12_5 C11_5 1_555 1_555
C13_5 C12_5 1_555 1_555
H5_5 C13_5 1_555 1_555
C14_5 C9_5 1_555 1_555
H6_5 C14_5 1_555 1_555
C15_5 C12_5 1_555 1_555
C16_5 C5_5 1_555 1_555
C17_5 C16_5 1_555 1_555
H7_5 C17_5 1_555 1_555
C18_5 C17_5 1_555 1_555
H8_5 C18_5 1_555 1_555
C19_5 C18_5 1_555 1_555
C20_5 C19_5 1_555 1_555
H9_5 C20_5 1_555 1_555
C21_5 C16_5 1_555 1_555
H10_5 C21_5 1_555 1_555
C22_5 C19_5 1_555 1_555
C23_5 C24_5 1_555 1_555
C24_5 C25_5 1_555 1_555
C25_5 H11_5 1_555 1_555
C26_5 C25_5 1_555 1_555
C27_5 C26_5 1_555 1_555
C28_5 C23_5 1_555 1_555
H12_5 C28_5 1_555 1_555
C29_5 O9_5 1_555 1_555
C30_5 O11_5 1_555 1_555
N1_5 C45_5 1_555 1_555
O17_5 Ni3_2 1_555 1_555
C45_5 O17_5 1_555 1_555
H21_5 C45_5 1_555 1_555
C46_5 N1_5 1_555 1_555
H22_5 C46_5 1_555 1_555
H23_5 C46_5 1_555 1_555
H24_5 C46_5 1_555 1_555
C47_2 N1_5 1_555 1_555
H25_2 C47_2 1_555 1_555
H26_2 C47_2 1_555 1_555
H27_2 C47_2 1_555 1_555
N2_5 C48_5 1_555 1_555
O18_5 Ni3_2 1_555 1_555
C48_5 O18_5 1_555 1_555
H28_5 C48_5 1_555 1_555
C49_2 N2_5 1_555 1_555
H29_2 C49_2 1_555 1_555
H30_2 C49_2 1_555 1_555
H31_2 C49_2 1_555 1_555
C50_5 N2_5 1_555 1_555
H32_5 C50_5 1_555 1_555
H33_5 C50_5 1_555 1_555
H34_5 C50_5 1_555 1_555
O25_2 Zn2_2 1_555 1_555
O27_2 Zn2_2 1_555 1_555
O10_5 C29_5 1_555 1_555
C1_5 C7_5 1_555 1_555
C2_5 C8_5 1_555 1_555
C5_5 C6_5 1_555 1_555
C13_5 C14_5 1_555 1_555
C20_5 C21_5 1_555 1_555
C23_5 C29_5 1_555 1_555
C24_5 C30_5 1_555 1_555
C27_5 C28_5 1_555 1_555
Zn3_2 O3_6 1_555 1_555
Zn6_2 O2_6 1_555 1_555
O1_6 Ni3_3 1_555 1_555
O2_6 C7_6 1_555 1_555
O3_6 Ni3_3 1_555 1_555
O4_6 C8_6 1_555 1_555
O22 C15_6 1_555 1_555
O23 C15_6 1_555 1_555
O7_3 C22_6 1_555 1_555
O9_6 Zn3_2 1_555 1_555
O10_6 Ni3_3 1_555 1_555
O11_6 Zn6_2 1_555 1_555
O26_4 C30_6 1_555 1_555
C1_6 C2_6 1_555 1_555
C2_6 C3_6 1_555 1_555
C3_6 H1_6 1_555 1_555
C4_6 C3_6 1_555 1_555
C5_6 C4_6 1_555 1_555
C6_6 C1_6 1_555 1_555
H2_6 C6_6 1_555 1_555
C7_6 O1_6 1_555 1_555
C8_6 O3_6 1_555 1_555
C9_6 C4_6 1_555 1_555
C10_6 C9_6 1_555 1_555
H3_6 C10_6 1_555 1_555
C11_6 C10_6 1_555 1_555
H4_6 C11_6 1_555 1_555
C12_6 C11_6 1_555 1_555
C13_6 C12_6 1_555 1_555
H5_6 C13_6 1_555 1_555
C14_6 C9_6 1_555 1_555
H6_6 C14_6 1_555 1_555
C15_6 C12_6 1_555 1_555
C16_6 C5_6 1_555 1_555
C17_6 C16_6 1_555 1_555
H7_6 C17_6 1_555 1_555
C18_6 C17_6 1_555 1_555
H8_6 C18_6 1_555 1_555
C19_6 C18_6 1_555 1_555
C20_6 C19_6 1_555 1_555
H9_6 C20_6 1_555 1_555
C21_6 C16_6 1_555 1_555
H10_6 C21_6 1_555 1_555
C22_6 C19_6 1_555 1_555
C23_6 C24_6 1_555 1_555
C24_6 C25_6 1_555 1_555
C25_6 H11_6 1_555 1_555
C26_6 C25_6 1_555 1_555
C27_6 C26_6 1_555 1_555
C28_6 C23_6 1_555 1_555
H12_6 C28_6 1_555 1_555
C29_6 O9_6 1_555 1_555
C30_6 O11_6 1_555 1_555
N1_6 C45_6 1_555 1_555
O17_6 Ni3_3 1_555 1_555
C45_6 O17_6 1_555 1_555
H21_6 C45_6 1_555 1_555
C46_6 N1_6 1_555 1_555
H22_6 C46_6 1_555 1_555
H23_6 C46_6 1_555 1_555
H24_6 C46_6 1_555 1_555
C47_3 N1_6 1_555 1_555
H25_3 C47_3 1_555 1_555
H26_3 C47_3 1_555 1_555
H27_3 C47_3 1_555 1_555
N2_6 C48_6 1_555 1_555
O18_6 Ni3_3 1_555 1_555
C48_6 O18_6 1_555 1_555
H28_6 C48_6 1_555 1_555
C49_3 N2_6 1_555 1_555
H29_3 C49_3 1_555 1_555
H30_3 C49_3 1_555 1_555
H31_3 C49_3 1_555 1_555
C50_6 N2_6 1_555 1_555
H32_6 C50_6 1_555 1_555
H33_6 C50_6 1_555 1_555
H34_6 C50_6 1_555 1_555
Ni4_3 O7_3 1_555 1_555
O10_6 C29_6 1_555 1_555
C1_6 C7_6 1_555 1_555
C2_6 C8_6 1_555 1_555
C5_6 C6_6 1_555 1_555
C13_6 C14_6 1_555 1_555
C20_6 C21_6 1_555 1_555
C23_6 C29_6 1_555 1_555
C24_6 C30_6 1_555 1_555
C27_6 C28_6 1_555 1_555
Zn5_3 O8_5 1_555 1_555
Ni4_3 O14_6 1_555 1_555
O14_6 C37_6 1_555 1_555
O28 C44_6 1_555 1_555
O29 C44_6 1_555 1_555
C32_6 C31_6 1_555 1_555
H13_6 C32_6 1_555 1_555
C33_6 C32_6 1_555 1_555
H14_6 C33_6 1_555 1_555
C34_6 C33_6 1_555 1_555
C35_6 C34_6 1_555 1_555
H15_6 C35_6 1_555 1_555
C36_6 C31_6 1_555 1_555
H16_6 C36_6 1_555 1_555
C37_6 C34_6 1_555 1_555
C39_6 C38_6 1_555 1_555
C40_6 C39_6 1_555 1_555
H18_6 C40_6 1_555 1_555
C41_6 C40_6 1_555 1_555
C42_6 C41_6 1_555 1_555
H19_6 C42_6 1_555 1_555
C43_6 C38_6 1_555 1_555
H20_6 C43_6 1_555 1_555
C44_6 C41_6 1_555 1_555
N3_6 C51_6 1_555 1_555
O19_6 Ni4_3 1_555 1_555
C51_6 O19_6 1_555 1_555
H35_6 C51_6 1_555 1_555
C52_6 N3_6 1_555 1_555
H36_6 C52_6 1_555 1_555
H37_6 C52_6 1_555 1_555
H38_6 C52_6 1_555 1_555
C53_6 N3_6 1_555 1_555
H39_6 C53_6 1_555 1_555
H40_6 C53_6 1_555 1_555
H41_6 C53_6 1_555 1_555
O20_6 Ni4_3 1_555 1_555
H42_6 O20_6 1_555 1_555
H43_6 O20_6 1_555 1_555
O21_6 Ni4_3 1_555 1_555
H44_6 O21_6 1_555 1_555
H45_6 O21_6 1_555 1_555
C35_6 C36_6 1_555 1_555
C42_6 C43_6 1_555 1_555
Zn5_3 O13_5 1_555 1_555
Zn5_4 O8_6 1_555 1_555
Zn4_2 O3_7 1_555 1_555
Zn5_3 O2_7 1_555 1_555
O1_7 Ni3_4 1_555 1_555
O2_7 C7_7 1_555 1_555
O3_7 Ni3_4 1_555 1_555
O4_7 C8_7 1_555 1_555
O22_2 C15_7 1_555 1_555
O23_2 C15_7 1_555 1_555
O7_4 C22_7 1_555 1_555
O9_7 Zn4_2 1_555 1_555
O10_7 Ni3_4 1_555 1_555
O11_7 Zn5_3 1_555 1_555
O26_5 C30_7 1_555 1_555
C1_7 C2_7 1_555 1_555
C2_7 C3_7 1_555 1_555
C3_7 H1_7 1_555 1_555
C4_7 C3_7 1_555 1_555
C5_7 C4_7 1_555 1_555
C6_7 C1_7 1_555 1_555
H2_7 C6_7 1_555 1_555
C7_7 O1_7 1_555 1_555
C8_7 O3_7 1_555 1_555
C9_7 C4_7 1_555 1_555
C10_7 C9_7 1_555 1_555
H3_7 C10_7 1_555 1_555
C11_7 C10_7 1_555 1_555
H4_7 C11_7 1_555 1_555
C12_7 C11_7 1_555 1_555
C13_7 C12_7 1_555 1_555
H5_7 C13_7 1_555 1_555
C14_7 C9_7 1_555 1_555
H6_7 C14_7 1_555 1_555
C15_7 C12_7 1_555 1_555
C16_7 C5_7 1_555 1_555
C17_7 C16_7 1_555 1_555
H7_7 C17_7 1_555 1_555
C18_7 C17_7 1_555 1_555
H8_7 C18_7 1_555 1_555
C19_7 C18_7 1_555 1_555
C20_7 C19_7 1_555 1_555
H9_7 C20_7 1_555 1_555
C21_7 C16_7 1_555 1_555
H10_7 C21_7 1_555 1_555
C22_7 C19_7 1_555 1_555
C23_7 C24_7 1_555 1_555
C24_7 C25_7 1_555 1_555
C25_7 H11_7 1_555 1_555
C26_7 C25_7 1_555 1_555
C27_7 C26_7 1_555 1_555
C28_7 C23_7 1_555 1_555
H12_7 C28_7 1_555 1_555
C29_7 O9_7 1_555 1_555
C30_7 O11_7 1_555 1_555
N1_7 C45_7 1_555 1_555
O17_7 Ni3_4 1_555 1_555
C45_7 O17_7 1_555 1_555
H21_7 C45_7 1_555 1_555
C46_7 N1_7 1_555 1_555
H22_7 C46_7 1_555 1_555
H23_7 C46_7 1_555 1_555
H24_7 C46_7 1_555 1_555
C47_4 N1_7 1_555 1_555
H25_4 C47_4 1_555 1_555
H26_4 C47_4 1_555 1_555
H27_4 C47_4 1_555 1_555
N2_7 C48_7 1_555 1_555
O18_7 Ni3_4 1_555 1_555
C48_7 O18_7 1_555 1_555
H28_7 C48_7 1_555 1_555
C49_4 N2_7 1_555 1_555
H29_4 C49_4 1_555 1_555
H30_4 C49_4 1_555 1_555
H31_4 C49_4 1_555 1_555
C50_7 N2_7 1_555 1_555
H32_7 C50_7 1_555 1_555
H33_7 C50_7 1_555 1_555
H34_7 C50_7 1_555 1_555
Ni4_4 O7_4 1_555 1_555
O10_7 C29_7 1_555 1_555
C1_7 C7_7 1_555 1_555
C2_7 C8_7 1_555 1_555
C5_7 C6_7 1_555 1_555
C13_7 C14_7 1_555 1_555
C20_7 C21_7 1_555 1_555
C23_7 C29_7 1_555 1_555
C24_7 C30_7 1_555 1_555
C27_7 C28_7 1_555 1_555
Zn5_4 O13_6 1_555 1_555
Ni4_4 O14_7 1_555 1_555
O14_7 C37_7 1_555 1_555
O28_2 C44_7 1_555 1_555
O29_2 C44_7 1_555 1_555
C32_7 C31_7 1_555 1_555
H13_7 C32_7 1_555 1_555
C33_7 C32_7 1_555 1_555
H14_7 C33_7 1_555 1_555
C34_7 C33_7 1_555 1_555
C35_7 C34_7 1_555 1_555
H15_7 C35_7 1_555 1_555
C36_7 C31_7 1_555 1_555
H16_7 C36_7 1_555 1_555
C37_7 C34_7 1_555 1_555
C39_7 C38_7 1_555 1_555
C40_7 C39_7 1_555 1_555
H18_7 C40_7 1_555 1_555
C41_7 C40_7 1_555 1_555
C42_7 C41_7 1_555 1_555
H19_7 C42_7 1_555 1_555
C43_7 C38_7 1_555 1_555
H20_7 C43_7 1_555 1_555
C44_7 C41_7 1_555 1_555
N3_7 C51_7 1_555 1_555
O19_7 Ni4_4 1_555 1_555
C51_7 O19_7 1_555 1_555
H35_7 C51_7 1_555 1_555
C52_7 N3_7 1_555 1_555
H36_7 C52_7 1_555 1_555
H37_7 C52_7 1_555 1_555
H38_7 C52_7 1_555 1_555
C53_7 N3_7 1_555 1_555
H39_7 C53_7 1_555 1_555
H40_7 C53_7 1_555 1_555
H41_7 C53_7 1_555 1_555
O20_7 Ni4_4 1_555 1_555
H42_7 O20_7 1_555 1_555
H43_7 O20_7 1_555 1_555
O21_7 Ni4_4 1_555 1_555
H44_7 O21_7 1_555 1_555
H45_7 O21_7 1_555 1_555
C35_7 C36_7 1_555 1_555
C42_7 C43_7 1_555 1_555
Ni5_2 O14_8 1_555 1_555
O14_8 C37_8 1_555 1_555
O28_3 C44_8 1_555 1_555
O29_3 C44_8 1_555 1_555
C32_8 C31_8 1_555 1_555
H13_8 C32_8 1_555 1_555
C33_8 C32_8 1_555 1_555
H14_8 C33_8 1_555 1_555
C34_8 C33_8 1_555 1_555
C35_8 C34_8 1_555 1_555
H15_8 C35_8 1_555 1_555
C36_8 C31_8 1_555 1_555
H16_8 C36_8 1_555 1_555
C37_8 C34_8 1_555 1_555
C39_8 C38_8 1_555 1_555
C40_8 C39_8 1_555 1_555
H18_8 C40_8 1_555 1_555
C41_8 C40_8 1_555 1_555
C42_8 C41_8 1_555 1_555
H19_8 C42_8 1_555 1_555
C43_8 C38_8 1_555 1_555
H20_8 C43_8 1_555 1_555
C44_8 C41_8 1_555 1_555
N3_8 C51_8 1_555 1_555
O19_8 Ni5_2 1_555 1_555
C51_8 O19_8 1_555 1_555
H35_8 C51_8 1_555 1_555
C52_8 N3_8 1_555 1_555
H36_8 C52_8 1_555 1_555
H37_8 C52_8 1_555 1_555
H38_8 C52_8 1_555 1_555
C53_8 N3_8 1_555 1_555
H39_8 C53_8 1_555 1_555
H40_8 C53_8 1_555 1_555
H41_8 C53_8 1_555 1_555
O20_8 Ni5_2 1_555 1_555
H42_8 O20_8 1_555 1_555
H43_8 O20_8 1_555 1_555
O21_8 Ni5_2 1_555 1_555
H44_8 O21_8 1_555 1_555
H45_8 O21_8 1_555 1_555
O24_4 Ni5_2 1_555 1_555
C35_8 C36_8 1_555 1_555
C42_8 C43_8 1_555 1_555
Zn4 O3_8 1_555 1_555
Zn5_4 O2_8 1_555 1_555
O1_8 Ni3 1_555 1_555
O2_8 C7_8 1_555 1_555
O3_8 Ni3 1_555 1_555
O4_8 C8_8 1_555 1_555
O22_3 C15_8 1_555 1_555
O23_3 C15_8 1_555 1_555
O24_4 C22_8 1_555 1_555
O9_8 Zn4 1_555 1_555
O10_8 Ni3 1_555 1_555
O11_8 Zn5_4 1_555 1_555
O26_6 C30_8 1_555 1_555
C1_8 C2_8 1_555 1_555
C2_8 C3_8 1_555 1_555
C3_8 H1_8 1_555 1_555
C4_8 C3_8 1_555 1_555
C5_8 C4_8 1_555 1_555
C6_8 C1_8 1_555 1_555
H2_8 C6_8 1_555 1_555
C7_8 O1_8 1_555 1_555
C8_8 O3_8 1_555 1_555
C9_8 C4_8 1_555 1_555
C10_8 C9_8 1_555 1_555
H3_8 C10_8 1_555 1_555
C11_8 C10_8 1_555 1_555
H4_8 C11_8 1_555 1_555
C12_8 C11_8 1_555 1_555
C13_8 C12_8 1_555 1_555
H5_8 C13_8 1_555 1_555
C14_8 C9_8 1_555 1_555
H6_8 C14_8 1_555 1_555
C15_8 C12_8 1_555 1_555
C16_8 C5_8 1_555 1_555
C17_8 C16_8 1_555 1_555
H7_8 C17_8 1_555 1_555
C18_8 C17_8 1_555 1_555
H8_8 C18_8 1_555 1_555
C19_8 C18_8 1_555 1_555
C20_8 C19_8 1_555 1_555
H9_8 C20_8 1_555 1_555
C21_8 C16_8 1_555 1_555
H10_8 C21_8 1_555 1_555
C22_8 C19_8 1_555 1_555
C23_8 C24_8 1_555 1_555
C24_8 C25_8 1_555 1_555
C25_8 H11_8 1_555 1_555
C26_8 C25_8 1_555 1_555
C27_8 C26_8 1_555 1_555
C28_8 C23_8 1_555 1_555
H12_8 C28_8 1_555 1_555
C29_8 O9_8 1_555 1_555
C30_8 O11_8 1_555 1_555
N1_8 C45_8 1_555 1_555
O17_8 Ni3 1_555 1_555
C45_8 O17_8 1_555 1_555
H21_8 C45_8 1_555 1_555
C46_8 N1_8 1_555 1_555
H22_8 C46_8 1_555 1_555
H23_8 C46_8 1_555 1_555
H24_8 C46_8 1_555 1_555
C47_5 N1_8 1_555 1_555
H25_5 C47_5 1_555 1_555
H26_5 C47_5 1_555 1_555
H27_5 C47_5 1_555 1_555
N2_8 C48_8 1_555 1_555
O18_8 Ni3 1_555 1_555
C48_8 O18_8 1_555 1_555
H28_8 C48_8 1_555 1_555
C49_5 N2_8 1_555 1_555
H29_5 C49_5 1_555 1_555
H30_5 C49_5 1_555 1_555
H31_5 C49_5 1_555 1_555
C50_8 N2_8 1_555 1_555
H32_8 C50_8 1_555 1_555
H33_8 C50_8 1_555 1_555
H34_8 C50_8 1_555 1_555
O10_8 C29_8 1_555 1_555
C1_8 C7_8 1_555 1_555
C2_8 C8_8 1_555 1_555
C5_8 C6_8 1_555 1_555
C13_8 C14_8 1_555 1_555
C20_8 C21_8 1_555 1_555
C23_8 C29_8 1_555 1_555
C24_8 C30_8 1_555 1_555
C27_8 C28_8 1_555 1_555
H25_6 C47_6 1_555 1_555
H26_6 C47_6 1_555 1_555
H27_6 C47_6 1_555 1_555
H29_6 C49_6 1_555 1_555
H30_6 C49_6 1_555 1_555
H31_6 C49_6 1_555 1_555
H25_7 C47_7 1_555 1_555
H26_7 C47_7 1_555 1_555
H27_7 C47_7 1_555 1_555
H29_7 C49_7 1_555 1_555
H30_7 C49_7 1_555 1_555
H31_7 C49_7 1_555 1_555
H25_8 C47_8 1_555 1_555
H26_8 C47_8 1_555 1_555
H27_8 C47_8 1_555 1_555
H29_8 C49_8 1_555 1_555
H30_8 C49_8 1_555 1_555
H31_8 C49_8 1_555 1_555

#END
