
###############################################################################
#
# This file contains modified crystal structure data generated from the
# MOF subset of the Cambridge Structural Database (CSD) v543 
# hosted by the Cambridge Crystallographic Data Centre (CCDC).
#
# This work is licensed under the Creative Commons
# Attribution-NonCommercial-ShareAlike 4.0 International License.
# To view a copy of this license, visit
# http://creativecommons.org/licenses/by-nc-sa/4.0/
# or send a letter to
# Creative Commons, PO Box 1866, Mountain View, CA 94042, USA.
#
# CIF created using the CSD Python API on 29 September 2022
# The structure has been converted into the P1 space group
# The structure has a 3D framework
# The original CSD entry YOCCIE is in the tetragonal crystal system
# The framework has been calculated to contain at least 10.0% void space
# The void calculation uses a probe of radius 1.32A, grid spacing 0.4
#
###############################################################################

data_YOCCIE
_chemical_formula_moiety         '(C320 H192 N16 O112 Zn32)n'
_symmetry_cell_setting           triclinic
_symmetry_space_group_name_H-M   'P 1'
_symmetry_Int_Tables_number      1
_space_group_name_Hall           'P 1'
loop_
_symmetry_equiv_pos_site_id
_symmetry_equiv_pos_as_xyz
1 x,y,z
_cell_length_a                   16.2644(14)
_cell_length_b                   16.2644(14)
_cell_length_c                   30.563(3)
_cell_angle_alpha                90
_cell_angle_beta                 90
_cell_angle_gamma                90
_cell_volume                     8084.85
loop_
_atom_site_label
_atom_site_type_symbol
_atom_site_fract_x
_atom_site_fract_y
_atom_site_fract_z
Zn1 Zn 0.37579(7) 0.11217(8) 0.10042(3)
Zn2 Zn 0.36196(7) 0.09021(9) 0.20367(4)
C1 C 0.5921(6) 0.0066(6) 0.1536(3)
C6 C 0.6387(6) 0.0028(6) 0.1155(3)
H3 H 0.6145 0.0178 0.0891
C11 C 0.8956(6) 0.0166(8) 0.0370(3)
H6 H 0.9489 0.0371 0.0380
C12 C 0.8506(6) 0.0084(7) 0.0757(3)
H7 H 0.8754 0.0205 0.1023
C13 C 0.5075(6) 0.0395(6) 0.1539(3)
O1 O 0.4732(4) 0.0498(5) 0.11697(19)
O2 O 0.4764(4) 0.0551(4) 0.19036(19)
O7 O 0.3229(4) 0.1479(4) 0.15292(16)
H12 H 0.2715 0.1400 0.1505
O15 O 0.4108(5) 0.2082(5) 0.2311(2)
O17 O 0.3260(4) 0.0588(5) 0.26245(19)
O19 O 0.3341(4) 0.0613(5) 0.04752(19)
O21 O 0.4270(5) 0.2147(4) 0.0789(2)
C2 C 0.6289(6) 0.9830(6) 0.1931(3)
H1 H 0.5988 0.9865 0.2189
C3 C 0.7074(6) 0.9552(6) 0.1944(3)
C4 C 0.7541(6) 0.9550(7) 0.1554(3)
H2 H 0.8091 0.9396 0.1564
C5 C 0.7194(6) 0.9775(6) 0.1156(3)
C7 C 0.7697(6) 0.9824(7) 0.0747(3)
C8 C 0.7359(6) 0.9615(7) 0.0343(3)
H4 H 0.6821 0.9423 0.0331
C14 C 0.7484(6) 0.9336(6) 0.2364(3)
C16 C 0.2511(8) 0.9363(8) 0.1684(5)
H8 H 0.2176 0.9800 0.1602
C17 C 0.2185(9) 0.8599(9) 0.1652(5)
H9 H 0.1653 0.8523 0.1548
C18 C 0.2663(7) 0.7933(7) 0.1778(4)
C19 C 0.3453(7) 0.8122(7) 0.1916(4)
H10 H 0.3814 0.7706 0.1998
C20 C 0.3689(7) 0.8908(8) 0.1929(4)
H11 H 0.4220 0.9012 0.2026
N1 N 0.3244(6) 0.9543(6) 0.1819(3)
O3 O 0.7082(5) 0.9108(5) 0.2689(2)
O4 O 0.8260(4) 0.9412(5) 0.23755(19)
C21 C 0.2489(8) 0.5637(8) 0.1684(5)
H13 H 0.2824 0.5200 0.1602
C22 C 0.2815(9) 0.6401(9) 0.1652(5)
H14 H 0.3347 0.6477 0.1548
C23 C 0.2337(7) 0.7067(7) 0.1778(4)
C24 C 0.1547(7) 0.6878(7) 0.1916(4)
H15 H 0.1186 0.7294 0.1998
C25 C 0.1311(7) 0.6092(8) 0.1929(4)
H16 H 0.0780 0.5988 0.2026
N2 N 0.1756(6) 0.5457(6) 0.1819(3)
Zn3 Zn 0.12421(7) 0.38783(8) 0.10042(3)
Zn4 Zn 0.13804(7) 0.40979(9) 0.20367(4)
O8 O 0.0268(4) 0.4502(5) 0.11697(19)
O9 O 0.0236(4) 0.4449(4) 0.19036(19)
O14 O 0.1771(4) 0.3521(4) 0.15292(16)
H24 H 0.2285 0.3600 0.1505
Zn9 Zn 0.86196(7) 0.90979(9) 0.29633(4)
Zn11 Zn 0.59021(9) 0.86196(7) 0.29633(4)
O16 O 0.0892(5) 0.2918(5) 0.2311(2)
O18 O 0.1740(4) 0.4412(5) 0.26245(19)
O20 O 0.1659(4) 0.4387(5) 0.04752(19)
O22 O 0.0730(5) 0.2853(4) 0.0789(2)
C9 C 0.7802(6) 0.9684(6) 0.9962(3)
C10 C 0.8617(7) 0.9946(7) 0.9975(3)
H5 H 0.8928 0.9972 0.9720
C15 C 0.7433(6) 0.9428(6) 0.9537(3)
O5 O 0.6659(4) 0.9387(5) 0.95248(19)
O6 O 0.7853(4) 0.9270(5) 0.9211(2)
Zn5 Zn 0.62421(7) 0.88783(8) 0.89958(3)
Zn8 Zn 0.88783(8) 0.87579(7) 0.89958(3)
C26 C 0.9079(6) 0.4934(6) 0.1536(3)
C27 C 0.8711(6) 0.5170(6) 0.1931(3)
H17 H 0.9012 0.5135 0.2189
C28 C 0.7926(6) 0.5448(6) 0.1944(3)
C29 C 0.7459(6) 0.5450(7) 0.1554(3)
H18 H 0.6909 0.5604 0.1564
C30 C 0.7806(6) 0.5225(6) 0.1156(3)
C31 C 0.8613(6) 0.4972(6) 0.1155(3)
H19 H 0.8855 0.4822 0.0891
C32 C 0.7303(6) 0.5176(7) 0.0747(3)
C33 C 0.7641(6) 0.5385(7) 0.0343(3)
H20 H 0.8179 0.5577 0.0331
C36 C 0.6044(6) 0.4834(8) 0.0370(3)
H22 H 0.5511 0.4629 0.0380
C37 C 0.6494(6) 0.4916(7) 0.0757(3)
H23 H 0.6246 0.4795 0.1023
C38 C 0.9925(6) 0.4605(6) 0.1539(3)
C39 C 0.7516(6) 0.5664(6) 0.2364(3)
O10 O 0.7918(5) 0.5892(5) 0.2689(2)
O11 O 0.6740(4) 0.5588(5) 0.23755(19)
Zn10 Zn 0.63804(7) 0.59021(9) 0.29633(4)
Zn12 Zn 0.90979(9) 0.63804(7) 0.29633(4)
C34 C 0.7198(6) 0.5316(6) 0.9962(3)
C35 C 0.6383(7) 0.5054(7) 0.9975(3)
H21 H 0.6072 0.5028 0.9720
C40 C 0.7567(6) 0.5572(6) 0.9537(3)
O12 O 0.8341(4) 0.5613(5) 0.95248(19)
O13 O 0.7147(4) 0.5730(5) 0.9211(2)
Zn6 Zn 0.61217(8) 0.62421(7) 0.89958(3)
Zn7 Zn 0.87579(7) 0.61217(8) 0.89958(3)
Zn3_2 Zn 0.11217(8) 0.12421(7) 0.10042(3)
Zn4_2 Zn 0.09021(9) 0.13804(7) 0.20367(4)
O8_2 O 0.0498(5) 0.0268(4) 0.11697(19)
O9_2 O 0.0551(4) 0.0236(4) 0.19036(19)
O14_2 O 0.1479(4) 0.1771(4) 0.15292(16)
H24_2 H 0.1400 0.2285 0.1505
O16_2 O 0.2082(5) 0.0892(5) 0.2311(2)
O18_2 O 0.0588(5) 0.1740(4) 0.26245(19)
O20_2 O 0.0613(5) 0.1659(4) 0.04752(19)
O22_2 O 0.2147(4) 0.0730(5) 0.0789(2)
Zn1_2 Zn 0.38783(8) 0.37579(7) 0.10042(3)
Zn2_2 Zn 0.40979(9) 0.36196(7) 0.20367(4)
C1_2 C 0.4934(6) 0.5921(6) 0.1536(3)
C2_2 C 0.5170(6) 0.6289(6) 0.1931(3)
H1_2 H 0.5135 0.5988 0.2189
C3_2 C 0.5448(6) 0.7074(6) 0.1944(3)
C4_2 C 0.5450(7) 0.7541(6) 0.1554(3)
H2_2 H 0.5604 0.8091 0.1564
C5_2 C 0.5225(6) 0.7194(6) 0.1156(3)
C6_2 C 0.4972(6) 0.6387(6) 0.1155(3)
H3_2 H 0.4822 0.6145 0.0891
C7_2 C 0.5176(7) 0.7697(6) 0.0747(3)
C8_2 C 0.5385(7) 0.7359(6) 0.0343(3)
H4_2 H 0.5577 0.6821 0.0331
C11_2 C 0.4834(8) 0.8956(6) 0.0370(3)
H6_2 H 0.4629 0.9489 0.0380
C12_2 C 0.4916(7) 0.8506(6) 0.0757(3)
H7_2 H 0.4795 0.8754 0.1023
C13_2 C 0.4605(6) 0.5075(6) 0.1539(3)
C14_2 C 0.5664(6) 0.7484(6) 0.2364(3)
C16_2 C 0.5637(8) 0.2511(8) 0.1684(5)
H8_2 H 0.5200 0.2176 0.1602
C17_2 C 0.6401(9) 0.2185(9) 0.1652(5)
H9_2 H 0.6477 0.1653 0.1548
C18_2 C 0.7067(7) 0.2663(7) 0.1778(4)
C19_2 C 0.6878(7) 0.3453(7) 0.1916(4)
H10_2 H 0.7294 0.3814 0.1998
C20_2 C 0.6092(8) 0.3689(7) 0.1929(4)
H11_2 H 0.5988 0.4220 0.2026
N1_2 N 0.5457(6) 0.3244(6) 0.1819(3)
O1_2 O 0.4502(5) 0.4732(4) 0.11697(19)
O2_2 O 0.4449(4) 0.4764(4) 0.19036(19)
O3_2 O 0.5892(5) 0.7082(5) 0.2689(2)
O4_2 O 0.5588(5) 0.8260(4) 0.23755(19)
O7_2 O 0.3521(4) 0.3229(4) 0.15292(16)
H12_2 H 0.3600 0.2715 0.1505
C21_2 C 0.9363(8) 0.2489(8) 0.1684(5)
H13_2 H 0.9800 0.2824 0.1602
C22_2 C 0.8599(9) 0.2815(9) 0.1652(5)
H14_2 H 0.8523 0.3347 0.1548
C23_2 C 0.7933(7) 0.2337(7) 0.1778(4)
C24_2 C 0.8122(7) 0.1547(7) 0.1916(4)
H15_2 H 0.7706 0.1186 0.1998
C25_2 C 0.8908(8) 0.1311(7) 0.1929(4)
H16_2 H 0.9012 0.0780 0.2026
N2_2 N 0.9543(6) 0.1756(6) 0.1819(3)
O15_2 O 0.2918(5) 0.4108(5) 0.2311(2)
O17_2 O 0.4412(5) 0.3260(4) 0.26245(19)
O19_2 O 0.4387(5) 0.3341(4) 0.04752(19)
O21_2 O 0.2853(4) 0.4270(5) 0.0789(2)
C9_2 C 0.5316(6) 0.7802(6) 0.9962(3)
C10_2 C 0.5054(7) 0.8617(7) 0.9975(3)
H5_2 H 0.5028 0.8928 0.9720
C15_2 C 0.5572(6) 0.7433(6) 0.9537(3)
O5_2 O 0.5613(5) 0.6659(4) 0.95248(19)
O6_2 O 0.5730(5) 0.7853(4) 0.9211(2)
C27_2 C 0.9830(6) 0.8711(6) 0.1931(3)
H17_2 H 0.9865 0.9012 0.2189
C28_2 C 0.9552(6) 0.7926(6) 0.1944(3)
C29_2 C 0.9550(7) 0.7459(6) 0.1554(3)
H18_2 H 0.9396 0.6909 0.1564
C30_2 C 0.9775(6) 0.7806(6) 0.1156(3)
C32_2 C 0.9824(7) 0.7303(6) 0.0747(3)
C33_2 C 0.9615(7) 0.7641(6) 0.0343(3)
H20_2 H 0.9423 0.8179 0.0331
C39_2 C 0.9336(6) 0.7516(6) 0.2364(3)
O10_2 O 0.9108(5) 0.7918(5) 0.2689(2)
O11_2 O 0.9412(5) 0.6740(4) 0.23755(19)
C34_2 C 0.9684(6) 0.7198(6) 0.9962(3)
C35_2 C 0.9946(7) 0.6383(7) 0.9975(3)
H21_2 H 0.9972 0.6072 0.9720
C40_2 C 0.9428(6) 0.7567(6) 0.9537(3)
O12_2 O 0.9387(5) 0.8341(4) 0.95248(19)
O13_2 O 0.9270(5) 0.7147(4) 0.9211(2)
C2_3 C 0.1289(6) 0.0170(6) 0.3069(3)
H1_3 H 0.0988 0.0135 0.2811
C3_3 C 0.2074(6) 0.0448(6) 0.3056(3)
C4_3 C 0.2541(6) 0.0450(7) 0.3446(3)
H2_3 H 0.3091 0.0604 0.3436
C5_3 C 0.2194(6) 0.0225(6) 0.3844(3)
C7_3 C 0.2697(6) 0.0176(7) 0.4253(3)
C8_3 C 0.2359(6) 0.0385(7) 0.4657(3)
H4_3 H 0.1821 0.0577 0.4669
C9_3 C 0.2802(6) 0.0316(6) 0.5038(3)
C10_3 C 0.3617(7) 0.0054(7) 0.5025(3)
H5_3 H 0.3928 0.0028 0.5280
C14_3 C 0.2484(6) 0.0664(6) 0.2636(3)
C15_3 C 0.2433(6) 0.0572(6) 0.5463(3)
O5_3 O 0.1659(4) 0.0613(5) 0.54752(19)
O6_3 O 0.2853(4) 0.0730(5) 0.5789(2)
Zn5_2 Zn 0.12421(7) 0.11217(8) 0.60042(3)
Zn8_2 Zn 0.38783(8) 0.12421(7) 0.60042(3)
C16_3 C 0.7511(8) 0.0637(8) 0.3316(5)
H8_3 H 0.7176 0.0200 0.3398
C17_3 C 0.7185(9) 0.1401(9) 0.3348(5)
H9_3 H 0.6653 0.1477 0.3452
C18_3 C 0.7663(7) 0.2067(7) 0.3222(4)
C19_3 C 0.8453(7) 0.1878(7) 0.3084(4)
H10_3 H 0.8814 0.2294 0.3002
C20_3 C 0.8689(7) 0.1092(8) 0.3071(4)
H11_3 H 0.9220 0.0988 0.2974
N1_3 N 0.8244(6) 0.0457(6) 0.3181(3)
C21_3 C 0.7489(8) 0.4363(8) 0.3316(5)
H13_3 H 0.7824 0.4800 0.3398
C22_3 C 0.7815(9) 0.3599(9) 0.3348(5)
H14_3 H 0.8347 0.3523 0.3452
C23_3 C 0.7337(7) 0.2933(7) 0.3222(4)
C24_3 C 0.6547(7) 0.3122(7) 0.3084(4)
H15_3 H 0.6186 0.2706 0.3002
C25_3 C 0.6311(7) 0.3908(8) 0.3071(4)
H16_3 H 0.5780 0.4012 0.2974
N2_3 N 0.6756(6) 0.4543(6) 0.3181(3)
Zn3_3 Zn 0.62421(7) 0.61217(8) 0.39958(3)
C26_2 C 0.4079(6) 0.5066(6) 0.3464(3)
C27_3 C 0.3711(6) 0.4830(6) 0.3069(3)
H17_3 H 0.4012 0.4865 0.2811
C28_3 C 0.2926(6) 0.4552(6) 0.3056(3)
C29_3 C 0.2459(6) 0.4550(7) 0.3446(3)
H18_3 H 0.1909 0.4396 0.3436
C30_3 C 0.2806(6) 0.4775(6) 0.3844(3)
C31_2 C 0.3613(6) 0.5028(6) 0.3845(3)
H19_2 H 0.3855 0.5178 0.4109
C32_3 C 0.2303(6) 0.4824(7) 0.4253(3)
C33_3 C 0.2641(6) 0.4615(7) 0.4657(3)
H20_3 H 0.3179 0.4423 0.4669
C34_3 C 0.2198(6) 0.4684(6) 0.5038(3)
C35_3 C 0.1383(7) 0.4946(7) 0.5025(3)
H21_3 H 0.1072 0.4972 0.5280
C36_2 C 0.1044(6) 0.5166(8) 0.4630(3)
H22_2 H 0.0511 0.5371 0.4620
C37_2 C 0.1494(6) 0.5084(7) 0.4243(3)
H23_2 H 0.1246 0.5205 0.3977
C38_2 C 0.4925(6) 0.5395(6) 0.3461(3)
C39_3 C 0.2516(6) 0.4336(6) 0.2636(3)
C40_3 C 0.2567(6) 0.4428(6) 0.5463(3)
O8_3 O 0.5268(4) 0.5498(5) 0.38303(19)
O9_3 O 0.5236(4) 0.5551(4) 0.30964(19)
O12_3 O 0.3341(4) 0.4387(5) 0.54752(19)
O13_3 O 0.2147(4) 0.4270(5) 0.5789(2)
O14_3 O 0.6771(4) 0.6479(4) 0.34708(16)
H24_3 H 0.7285 0.6400 0.3495
Zn6_2 Zn 0.11217(8) 0.37579(7) 0.60042(3)
Zn7_2 Zn 0.37579(7) 0.38783(8) 0.60042(3)
O20_3 O 0.6659(4) 0.5613(5) 0.45248(19)
O22_3 O 0.5730(5) 0.7147(4) 0.4211(2)
Zn1_3 Zn 0.87579(7) 0.88783(8) 0.39958(3)
O1_3 O 0.9732(4) 0.9502(5) 0.38303(19)
O2_3 O 0.9764(4) 0.9449(4) 0.30964(19)
O7_3 O 0.8229(4) 0.8521(4) 0.34708(16)
H12_3 H 0.7715 0.8600 0.3495
O19_3 O 0.8341(4) 0.9387(5) 0.45248(19)
O21_3 O 0.9270(5) 0.7853(4) 0.4211(2)
C1_3 C 0.5066(6) 0.0921(6) 0.3464(3)
C2_4 C 0.4830(6) 0.1289(6) 0.3069(3)
H1_4 H 0.4865 0.0988 0.2811
C3_4 C 0.4552(6) 0.2074(6) 0.3056(3)
C4_4 C 0.4550(7) 0.2541(6) 0.3446(3)
H2_4 H 0.4396 0.3091 0.3436
C5_4 C 0.4775(6) 0.2194(6) 0.3844(3)
C6_3 C 0.5028(6) 0.1387(6) 0.3845(3)
H3_3 H 0.5178 0.1145 0.4109
C7_4 C 0.4824(7) 0.2697(6) 0.4253(3)
C8_4 C 0.4615(7) 0.2359(6) 0.4657(3)
H4_4 H 0.4423 0.1821 0.4669
C9_4 C 0.4684(6) 0.2802(6) 0.5038(3)
C10_4 C 0.4946(7) 0.3617(7) 0.5025(3)
H5_4 H 0.4972 0.3928 0.5280
C11_3 C 0.5166(8) 0.3956(6) 0.4630(3)
H6_3 H 0.5371 0.4489 0.4620
C12_3 C 0.5084(7) 0.3506(6) 0.4243(3)
H7_3 H 0.5205 0.3754 0.3977
C13_3 C 0.5395(6) 0.0075(6) 0.3461(3)
C14_4 C 0.4336(6) 0.2484(6) 0.2636(3)
C15_4 C 0.4428(6) 0.2433(6) 0.5463(3)
O5_4 O 0.4387(5) 0.1659(4) 0.54752(19)
O6_4 O 0.4270(5) 0.2853(4) 0.5789(2)
Zn1_4 Zn 0.61217(8) 0.87579(7) 0.39958(3)
C16_4 C 0.4363(8) 0.7511(8) 0.3316(5)
H8_4 H 0.4800 0.7176 0.3398
C17_4 C 0.3599(9) 0.7185(9) 0.3348(5)
H9_4 H 0.3523 0.6653 0.3452
C18_4 C 0.2933(7) 0.7663(7) 0.3222(4)
C19_4 C 0.3122(7) 0.8453(7) 0.3084(4)
H10_4 H 0.2706 0.8814 0.3002
C20_4 C 0.3908(8) 0.8689(7) 0.3071(4)
H11_4 H 0.4012 0.9220 0.2974
N1_4 N 0.4543(6) 0.8244(6) 0.3181(3)
O1_4 O 0.5498(5) 0.9732(4) 0.38303(19)
O2_4 O 0.5551(4) 0.9764(4) 0.30964(19)
O7_4 O 0.6479(4) 0.8229(4) 0.34708(16)
H12_4 H 0.6400 0.7715 0.3495
C21_4 C 0.0637(8) 0.7489(8) 0.3316(5)
H13_4 H 0.0200 0.7824 0.3398
C22_4 C 0.1401(9) 0.7815(9) 0.3348(5)
H14_4 H 0.1477 0.8347 0.3452
C23_4 C 0.2067(7) 0.7337(7) 0.3222(4)
C24_4 C 0.1878(7) 0.6547(7) 0.3084(4)
H15_4 H 0.2294 0.6186 0.3002
C25_4 C 0.1092(8) 0.6311(7) 0.3071(4)
H16_4 H 0.0988 0.5780 0.2974
N2_4 N 0.0457(6) 0.6756(6) 0.3181(3)
C27_4 C 0.0170(6) 0.3711(6) 0.3069(3)
H17_4 H 0.0135 0.4012 0.2811
C28_4 C 0.0448(6) 0.2926(6) 0.3056(3)
C29_4 C 0.0450(7) 0.2459(6) 0.3446(3)
H18_4 H 0.0604 0.1909 0.3436
C30_4 C 0.0225(6) 0.2806(6) 0.3844(3)
C32_4 C 0.0176(7) 0.2303(6) 0.4253(3)
C33_4 C 0.0385(7) 0.2641(6) 0.4657(3)
H20_4 H 0.0577 0.3179 0.4669
C34_4 C 0.0316(6) 0.2198(6) 0.5038(3)
C35_4 C 0.0054(7) 0.1383(7) 0.5025(3)
H21_4 H 0.0028 0.1072 0.5280
C39_4 C 0.0664(6) 0.2516(6) 0.2636(3)
C40_4 C 0.0572(6) 0.2567(6) 0.5463(3)
O12_4 O 0.0613(5) 0.3341(4) 0.54752(19)
O13_4 O 0.0730(5) 0.2147(4) 0.5789(2)
O19_4 O 0.5613(5) 0.8341(4) 0.45248(19)
O21_4 O 0.7147(4) 0.9270(5) 0.4211(2)
Zn3_4 Zn 0.88783(8) 0.62421(7) 0.39958(3)
C26_3 C 0.9934(6) 0.4079(6) 0.3464(3)
C31_3 C 0.9972(6) 0.3613(6) 0.3845(3)
H19_3 H 0.9822 0.3855 0.4109
C36_3 C 0.9834(8) 0.1044(6) 0.4630(3)
H22_3 H 0.9629 0.0511 0.4620
C37_3 C 0.9916(7) 0.1494(6) 0.4243(3)
H23_3 H 0.9795 0.1246 0.3977
C38_3 C 0.9605(6) 0.4925(6) 0.3461(3)
O8_4 O 0.9502(5) 0.5268(4) 0.38303(19)
O9_4 O 0.9449(4) 0.5236(4) 0.30964(19)
O14_4 O 0.8521(4) 0.6771(4) 0.34708(16)
H24_4 H 0.8600 0.7285 0.3495
O20_4 O 0.9387(5) 0.6659(4) 0.45248(19)
O22_4 O 0.7853(4) 0.5730(5) 0.4211(2)
C34_5 C 0.2802(6) 0.4684(6) 0.0038(3)
C35_5 C 0.3617(7) 0.4946(7) 0.0025(3)
H21_5 H 0.3928 0.4972 0.0280
C40_5 C 0.2433(6) 0.4428(6) 0.0463(3)
C26_4 C 0.0921(6) 0.5066(6) 0.8464(3)
C27_5 C 0.1289(6) 0.4830(6) 0.8069(3)
H17_5 H 0.0988 0.4865 0.7811
C28_5 C 0.2074(6) 0.4552(6) 0.8056(3)
C29_5 C 0.2541(6) 0.4550(7) 0.8446(3)
H18_5 H 0.3091 0.4396 0.8436
C30_5 C 0.2194(6) 0.4775(6) 0.8844(3)
C31_4 C 0.1387(6) 0.5028(6) 0.8845(3)
H19_4 H 0.1145 0.5178 0.9109
C32_5 C 0.2697(6) 0.4824(7) 0.9253(3)
C33_5 C 0.2359(6) 0.4615(7) 0.9657(3)
H20_5 H 0.1821 0.4423 0.9669
C36_4 C 0.3956(6) 0.5166(8) 0.9630(3)
H22_4 H 0.4489 0.5371 0.9620
C37_4 C 0.3506(6) 0.5084(7) 0.9243(3)
H23_4 H 0.3754 0.5205 0.8977
C38_4 C 0.0075(6) 0.5395(6) 0.8461(3)
C39_5 C 0.2484(6) 0.4336(6) 0.7636(3)
O10_3 O 0.2082(5) 0.4108(5) 0.7311(2)
O11_3 O 0.3260(4) 0.4412(5) 0.76245(19)
Zn10_2 Zn 0.36196(7) 0.40979(9) 0.70367(4)
Zn12_2 Zn 0.09021(9) 0.36196(7) 0.70367(4)
C9_5 C 0.2198(6) 0.0316(6) 0.0038(3)
C10_5 C 0.1383(7) 0.0054(7) 0.0025(3)
H5_5 H 0.1072 0.0028 0.0280
C15_5 C 0.2567(6) 0.0572(6) 0.0463(3)
C2_5 C 0.3711(6) 0.0170(6) 0.8069(3)
H1_5 H 0.4012 0.0135 0.7811
C3_5 C 0.2926(6) 0.0448(6) 0.8056(3)
C4_5 C 0.2459(6) 0.0450(7) 0.8446(3)
H2_5 H 0.1909 0.0604 0.8436
C5_5 C 0.2806(6) 0.0225(6) 0.8844(3)
C7_5 C 0.2303(6) 0.0176(7) 0.9253(3)
C8_5 C 0.2641(6) 0.0385(7) 0.9657(3)
H4_5 H 0.3179 0.0577 0.9669
C14_5 C 0.2516(6) 0.0664(6) 0.7636(3)
C16_5 C 0.7489(8) 0.0637(8) 0.8316(5)
H8_5 H 0.7824 0.0200 0.8398
C17_5 C 0.7815(9) 0.1401(9) 0.8348(5)
H9_5 H 0.8347 0.1477 0.8452
C18_5 C 0.7337(7) 0.2067(7) 0.8222(4)
C19_5 C 0.6547(7) 0.1878(7) 0.8084(4)
H10_5 H 0.6186 0.2294 0.8002
C20_5 C 0.6311(7) 0.1092(8) 0.8071(4)
H11_5 H 0.5780 0.0988 0.7974
N1_5 N 0.6756(6) 0.0457(6) 0.8181(3)
O3_3 O 0.2918(5) 0.0892(5) 0.7311(2)
O4_3 O 0.1740(4) 0.0588(5) 0.76245(19)
C21_5 C 0.7511(8) 0.4363(8) 0.8316(5)
H13_5 H 0.7176 0.4800 0.8398
C22_5 C 0.7185(9) 0.3599(9) 0.8348(5)
H14_5 H 0.6653 0.3523 0.8452
C23_5 C 0.7663(7) 0.2933(7) 0.8222(4)
C24_5 C 0.8453(7) 0.3122(7) 0.8084(4)
H15_5 H 0.8814 0.2706 0.8002
C25_5 C 0.8689(7) 0.3908(8) 0.8071(4)
H16_5 H 0.9220 0.4012 0.7974
N2_5 N 0.8244(6) 0.4543(6) 0.8181(3)
Zn4_3 Zn 0.86196(7) 0.59021(9) 0.79633(4)
O8_5 O 0.9732(4) 0.5498(5) 0.88303(19)
O9_5 O 0.9764(4) 0.5551(4) 0.80964(19)
O14_5 O 0.8229(4) 0.6479(4) 0.84708(16)
H24_5 H 0.7715 0.6400 0.8495
Zn9_2 Zn 0.13804(7) 0.09021(9) 0.70367(4)
Zn11_2 Zn 0.40979(9) 0.13804(7) 0.70367(4)
O16_3 O 0.9108(5) 0.7082(5) 0.7689(2)
O18_3 O 0.8260(4) 0.5588(5) 0.73755(19)
Zn2_3 Zn 0.63804(7) 0.90979(9) 0.79633(4)
C1_4 C 0.4079(6) 0.9934(6) 0.8464(3)
C6_4 C 0.3613(6) 0.9972(6) 0.8845(3)
H3_4 H 0.3855 0.9822 0.9109
C11_4 C 0.1044(6) 0.9834(8) 0.9630(3)
H6_4 H 0.0511 0.9629 0.9620
C12_4 C 0.1494(6) 0.9916(7) 0.9243(3)
H7_4 H 0.1246 0.9795 0.8977
C13_4 C 0.4925(6) 0.9605(6) 0.8461(3)
O1_5 O 0.5268(4) 0.9502(5) 0.88303(19)
O2_5 O 0.5236(4) 0.9449(4) 0.80964(19)
O7_5 O 0.6771(4) 0.8521(4) 0.84708(16)
H12_5 H 0.7285 0.8600 0.8495
O15_3 O 0.5892(5) 0.7918(5) 0.7689(2)
O17_3 O 0.6740(4) 0.9412(5) 0.73755(19)
C34_6 C 0.0316(6) 0.2802(6) 0.0038(3)
C35_6 C 0.0054(7) 0.3617(7) 0.0025(3)
H21_6 H 0.0028 0.3928 0.0280
C40_6 C 0.0572(6) 0.2433(6) 0.0463(3)
C27_6 C 0.0170(6) 0.1289(6) 0.8069(3)
H17_6 H 0.0135 0.0988 0.7811
C28_6 C 0.0448(6) 0.2074(6) 0.8056(3)
C29_6 C 0.0450(7) 0.2541(6) 0.8446(3)
H18_6 H 0.0604 0.3091 0.8436
C30_6 C 0.0225(6) 0.2194(6) 0.8844(3)
C32_6 C 0.0176(7) 0.2697(6) 0.9253(3)
C33_6 C 0.0385(7) 0.2359(6) 0.9657(3)
H20_6 H 0.0577 0.1821 0.9669
C39_6 C 0.0664(6) 0.2484(6) 0.7636(3)
O10_4 O 0.0892(5) 0.2082(5) 0.7311(2)
O11_4 O 0.0588(5) 0.3260(4) 0.76245(19)
C9_6 C 0.4684(6) 0.2198(6) 0.0038(3)
C10_6 C 0.4946(7) 0.1383(7) 0.0025(3)
H5_6 H 0.4972 0.1072 0.0280
C15_6 C 0.4428(6) 0.2567(6) 0.0463(3)
Zn2_4 Zn 0.59021(9) 0.63804(7) 0.79633(4)
C1_5 C 0.5066(6) 0.4079(6) 0.8464(3)
C2_6 C 0.4830(6) 0.3711(6) 0.8069(3)
H1_6 H 0.4865 0.4012 0.7811
C3_6 C 0.4552(6) 0.2926(6) 0.8056(3)
C4_6 C 0.4550(7) 0.2459(6) 0.8446(3)
H2_6 H 0.4396 0.1909 0.8436
C5_6 C 0.4775(6) 0.2806(6) 0.8844(3)
C6_5 C 0.5028(6) 0.3613(6) 0.8845(3)
H3_5 H 0.5178 0.3855 0.9109
C7_6 C 0.4824(7) 0.2303(6) 0.9253(3)
C8_6 C 0.4615(7) 0.2641(6) 0.9657(3)
H4_6 H 0.4423 0.3179 0.9669
C11_5 C 0.5166(8) 0.1044(6) 0.9630(3)
H6_5 H 0.5371 0.0511 0.9620
C12_5 C 0.5084(7) 0.1494(6) 0.9243(3)
H7_5 H 0.5205 0.1246 0.8977
C13_5 C 0.5395(6) 0.4925(6) 0.8461(3)
C14_6 C 0.4336(6) 0.2516(6) 0.7636(3)
C16_6 C 0.4363(8) 0.7489(8) 0.8316(5)
H8_6 H 0.4800 0.7824 0.8398
C17_6 C 0.3599(9) 0.7815(9) 0.8348(5)
H9_6 H 0.3523 0.8347 0.8452
C18_6 C 0.2933(7) 0.7337(7) 0.8222(4)
C19_6 C 0.3122(7) 0.6547(7) 0.8084(4)
H10_6 H 0.2706 0.6186 0.8002
C20_6 C 0.3908(8) 0.6311(7) 0.8071(4)
H11_6 H 0.4012 0.5780 0.7974
N1_6 N 0.4543(6) 0.6756(6) 0.8181(3)
O1_6 O 0.5498(5) 0.5268(4) 0.88303(19)
O2_6 O 0.5551(4) 0.5236(4) 0.80964(19)
O3_4 O 0.4108(5) 0.2918(5) 0.7311(2)
O4_4 O 0.4412(5) 0.1740(4) 0.76245(19)
O7_6 O 0.6479(4) 0.6771(4) 0.84708(16)
H12_6 H 0.6400 0.7285 0.8495
C21_6 C 0.0637(8) 0.7511(8) 0.8316(5)
H13_6 H 0.0200 0.7176 0.8398
C22_6 C 0.1401(9) 0.7185(9) 0.8348(5)
H14_6 H 0.1477 0.6653 0.8452
C23_6 C 0.2067(7) 0.7663(7) 0.8222(4)
C24_6 C 0.1878(7) 0.8453(7) 0.8084(4)
H15_6 H 0.2294 0.8814 0.8002
C25_6 C 0.1092(8) 0.8689(7) 0.8071(4)
H16_6 H 0.0988 0.9220 0.7974
N2_6 N 0.0457(6) 0.8244(6) 0.8181(3)
O15_4 O 0.7082(5) 0.5892(5) 0.7689(2)
O17_4 O 0.5588(5) 0.6740(4) 0.73755(19)
Zn4_4 Zn 0.90979(9) 0.86196(7) 0.79633(4)
O8_6 O 0.9502(5) 0.9732(4) 0.88303(19)
O9_6 O 0.9449(4) 0.9764(4) 0.80964(19)
O14_6 O 0.8521(4) 0.8229(4) 0.84708(16)
H24_6 H 0.8600 0.7715 0.8495
O16_4 O 0.7918(5) 0.9108(5) 0.7689(2)
O18_4 O 0.9412(5) 0.8260(4) 0.73755(19)
O1_7 O 0.0268(4) 0.0498(5) 0.61697(19)
O2_7 O 0.0236(4) 0.0551(4) 0.69036(19)
O7_7 O 0.1771(4) 0.1479(4) 0.65292(16)
H12_7 H 0.2285 0.1400 0.6505
C16_7 C 0.2489(8) 0.9363(8) 0.6684(5)
H8_7 H 0.2824 0.9800 0.6602
C17_7 C 0.2815(9) 0.8599(9) 0.6652(5)
H9_7 H 0.3347 0.8523 0.6548
C18_7 C 0.2337(7) 0.7933(7) 0.6778(4)
C19_7 C 0.1547(7) 0.8122(7) 0.6916(4)
H10_7 H 0.1186 0.7706 0.6998
C20_7 C 0.1311(7) 0.8908(8) 0.6929(4)
H11_7 H 0.0780 0.9012 0.7026
N1_7 N 0.1756(6) 0.9543(6) 0.6819(3)
C21_7 C 0.2511(8) 0.5637(8) 0.6684(5)
H13_7 H 0.2176 0.5200 0.6602
C22_7 C 0.2185(9) 0.6401(9) 0.6652(5)
H14_7 H 0.1653 0.6477 0.6548
C23_7 C 0.2663(7) 0.7067(7) 0.6778(4)
C24_7 C 0.3453(7) 0.6878(7) 0.6916(4)
H15_7 H 0.3814 0.7294 0.6998
C25_7 C 0.3689(7) 0.6092(8) 0.6929(4)
H16_7 H 0.4220 0.5988 0.7026
N2_7 N 0.3244(6) 0.5457(6) 0.6819(3)
C26_5 C 0.5921(6) 0.4934(6) 0.6536(3)
C27_7 C 0.6289(6) 0.5170(6) 0.6931(3)
H17_7 H 0.5988 0.5135 0.7189
C28_7 C 0.7074(6) 0.5448(6) 0.6944(3)
C29_7 C 0.7541(6) 0.5450(7) 0.6554(3)
H18_7 H 0.8091 0.5604 0.6564
C30_7 C 0.7194(6) 0.5225(6) 0.6156(3)
C31_5 C 0.6387(6) 0.4972(6) 0.6155(3)
H19_5 H 0.6145 0.4822 0.5891
C32_7 C 0.7697(6) 0.5176(7) 0.5747(3)
C33_7 C 0.7359(6) 0.5385(7) 0.5343(3)
H20_7 H 0.6821 0.5577 0.5331
C34_7 C 0.7802(6) 0.5316(6) 0.4962(3)
C35_7 C 0.8617(7) 0.5054(7) 0.4975(3)
H21_7 H 0.8928 0.5028 0.4720
C36_5 C 0.8956(6) 0.4834(8) 0.5370(3)
H22_5 H 0.9489 0.4629 0.5380
C37_5 C 0.8506(6) 0.4916(7) 0.5757(3)
H23_5 H 0.8754 0.4795 0.6023
C38_5 C 0.5075(6) 0.4605(6) 0.6539(3)
C39_7 C 0.7484(6) 0.5664(6) 0.7364(3)
C40_7 C 0.7433(6) 0.5572(6) 0.4537(3)
O8_7 O 0.4732(4) 0.4502(5) 0.61697(19)
O9_7 O 0.4764(4) 0.4449(4) 0.69036(19)
O14_7 O 0.3229(4) 0.3521(4) 0.65292(16)
H24_7 H 0.2715 0.3600 0.6505
C2_7 C 0.8711(6) 0.9830(6) 0.6931(3)
H1_7 H 0.9012 0.9865 0.7189
C3_7 C 0.7926(6) 0.9552(6) 0.6944(3)
C4_7 C 0.7459(6) 0.9550(7) 0.6554(3)
H2_7 H 0.6909 0.9396 0.6564
C5_7 C 0.7806(6) 0.9775(6) 0.6156(3)
C7_7 C 0.7303(6) 0.9824(7) 0.5747(3)
C8_7 C 0.7641(6) 0.9615(7) 0.5343(3)
H4_7 H 0.8179 0.9423 0.5331
C9_7 C 0.7198(6) 0.9684(6) 0.4962(3)
C10_7 C 0.6383(7) 0.9946(7) 0.4975(3)
H5_7 H 0.6072 0.9972 0.4720
C14_7 C 0.7516(6) 0.9336(6) 0.7364(3)
C15_7 C 0.7567(6) 0.9428(6) 0.4537(3)
C26_6 C 0.0066(6) 0.5921(6) 0.6536(3)
C31_6 C 0.0028(6) 0.6387(6) 0.6155(3)
H19_6 H 0.0178 0.6145 0.5891
C36_6 C 0.0166(8) 0.8956(6) 0.5370(3)
H22_6 H 0.0371 0.9489 0.5380
C37_6 C 0.0084(7) 0.8506(6) 0.5757(3)
H23_6 H 0.0205 0.8754 0.6023
C38_6 C 0.0395(6) 0.5075(6) 0.6539(3)
O8_8 O 0.0498(5) 0.4732(4) 0.61697(19)
O9_8 O 0.0551(4) 0.4764(4) 0.69036(19)
O14_8 O 0.1479(4) 0.3229(4) 0.65292(16)
H24_8 H 0.1400 0.2715 0.6505
C16_8 C 0.5637(8) 0.2489(8) 0.6684(5)
H8_8 H 0.5200 0.2824 0.6602
C17_8 C 0.6401(9) 0.2815(9) 0.6652(5)
H9_8 H 0.6477 0.3347 0.6548
C18_8 C 0.7067(7) 0.2337(7) 0.6778(4)
C19_8 C 0.6878(7) 0.1547(7) 0.6916(4)
H10_8 H 0.7294 0.1186 0.6998
C20_8 C 0.6092(8) 0.1311(7) 0.6929(4)
H11_8 H 0.5988 0.0780 0.7026
N1_8 N 0.5457(6) 0.1756(6) 0.6819(3)
O1_8 O 0.4502(5) 0.0268(4) 0.61697(19)
O2_8 O 0.4449(4) 0.0236(4) 0.69036(19)
O7_8 O 0.3521(4) 0.1771(4) 0.65292(16)
H12_8 H 0.3600 0.2285 0.6505
C21_8 C 0.9363(8) 0.2511(8) 0.6684(5)
H13_8 H 0.9800 0.2176 0.6602
C22_8 C 0.8599(9) 0.2185(9) 0.6652(5)
H14_8 H 0.8523 0.1653 0.6548
C23_8 C 0.7933(7) 0.2663(7) 0.6778(4)
C24_8 C 0.8122(7) 0.3453(7) 0.6916(4)
H15_8 H 0.7706 0.3814 0.6998
C25_8 C 0.8908(8) 0.3689(7) 0.6929(4)
H16_8 H 0.9012 0.4220 0.7026
N2_8 N 0.9543(6) 0.3244(6) 0.6819(3)
C27_8 C 0.9830(6) 0.6289(6) 0.6931(3)
H17_8 H 0.9865 0.5988 0.7189
C28_8 C 0.9552(6) 0.7074(6) 0.6944(3)
C29_8 C 0.9550(7) 0.7541(6) 0.6554(3)
H18_8 H 0.9396 0.8091 0.6564
C30_8 C 0.9775(6) 0.7194(6) 0.6156(3)
C32_8 C 0.9824(7) 0.7697(6) 0.5747(3)
C33_8 C 0.9615(7) 0.7359(6) 0.5343(3)
H20_8 H 0.9423 0.6821 0.5331
C34_8 C 0.9684(6) 0.7802(6) 0.4962(3)
C35_8 C 0.9946(7) 0.8617(7) 0.4975(3)
H21_8 H 0.9972 0.8928 0.4720
C39_8 C 0.9336(6) 0.7484(6) 0.7364(3)
C40_8 C 0.9428(6) 0.7433(6) 0.4537(3)
C1_6 C 0.4934(6) 0.9079(6) 0.6536(3)
C2_8 C 0.5170(6) 0.8711(6) 0.6931(3)
H1_8 H 0.5135 0.9012 0.7189
C3_8 C 0.5448(6) 0.7926(6) 0.6944(3)
C4_8 C 0.5450(7) 0.7459(6) 0.6554(3)
H2_8 H 0.5604 0.6909 0.6564
C5_8 C 0.5225(6) 0.7806(6) 0.6156(3)
C6_6 C 0.4972(6) 0.8613(6) 0.6155(3)
H3_6 H 0.4822 0.8855 0.5891
C7_8 C 0.5176(7) 0.7303(6) 0.5747(3)
C8_8 C 0.5385(7) 0.7641(6) 0.5343(3)
H4_8 H 0.5577 0.8179 0.5331
C9_8 C 0.5316(6) 0.7198(6) 0.4962(3)
C10_8 C 0.5054(7) 0.6383(7) 0.4975(3)
H5_8 H 0.5028 0.6072 0.4720
C11_6 C 0.4834(8) 0.6044(6) 0.5370(3)
H6_6 H 0.4629 0.5511 0.5380
C12_6 C 0.4916(7) 0.6494(6) 0.5757(3)
H7_6 H 0.4795 0.6246 0.6023
C13_6 C 0.4605(6) 0.9925(6) 0.6539(3)
C14_8 C 0.5664(6) 0.7516(6) 0.7364(3)
C15_8 C 0.5572(6) 0.7567(6) 0.4537(3)
C26_7 C 0.0066(6) 0.9079(6) 0.1536(3)
C31_7 C 0.0028(6) 0.8613(6) 0.1155(3)
H19_7 H 0.0178 0.8855 0.0891
C36_7 C 0.0166(8) 0.6044(6) 0.0370(3)
H22_7 H 0.0371 0.5511 0.0380
C37_7 C 0.0084(7) 0.6494(6) 0.0757(3)
H23_7 H 0.0205 0.6246 0.1023
C38_7 C 0.0395(6) 0.9925(6) 0.1539(3)
C1_7 C 0.0921(6) 0.9934(6) 0.3464(3)
C6_7 C 0.1387(6) 0.9972(6) 0.3845(3)
H3_7 H 0.1145 0.9822 0.4109
C11_7 C 0.3956(6) 0.9834(8) 0.4630(3)
H6_7 H 0.4489 0.9629 0.4620
C12_7 C 0.3506(6) 0.9916(7) 0.4243(3)
H7_7 H 0.3754 0.9795 0.3977
C13_7 C 0.0075(6) 0.9605(6) 0.3461(3)
C26_8 C 0.9934(6) 0.0921(6) 0.8464(3)
C31_8 C 0.9972(6) 0.1387(6) 0.8845(3)
H19_8 H 0.9822 0.1145 0.9109
C36_8 C 0.9834(8) 0.3956(6) 0.9630(3)
H22_8 H 0.9629 0.4489 0.9620
C37_8 C 0.9916(7) 0.3506(6) 0.9243(3)
H23_8 H 0.9795 0.3754 0.8977
C38_8 C 0.9605(6) 0.0075(6) 0.8461(3)
C1_8 C 0.9079(6) 0.0066(6) 0.6536(3)
C6_8 C 0.8613(6) 0.0028(6) 0.6155(3)
H3_8 H 0.8855 0.0178 0.5891
C11_8 C 0.6044(6) 0.0166(8) 0.5370(3)
H6_8 H 0.5511 0.0371 0.5380
C12_8 C 0.6494(6) 0.0084(7) 0.5757(3)
H7_8 H 0.6246 0.0205 0.6023
C13_8 C 0.9925(6) 0.0395(6) 0.6539(3)
loop_
_geom_bond_atom_site_label_1
_geom_bond_atom_site_label_2
_geom_bond_site_symmetry_1
_geom_bond_site_symmetry_2
Zn1 O1 1_555 1_555
C6 C1 1_555 1_555
H3 C6 1_555 1_555
H6 C11 1_555 1_555
H7 C12 1_555 1_555
C13 C1 1_555 1_555
O1 C13 1_555 1_555
O2 Zn2 1_555 1_555
O7 Zn1 1_555 1_555
H12 O7 1_555 1_555
O15 Zn2 1_555 1_555
O17 Zn2 1_555 1_555
O19 Zn1 1_555 1_555
O21 Zn1 1_555 1_555
Zn2 O7 1_555 1_555
C11 C12 1_555 1_555
C13 O2 1_555 1_555
C2 H1 1_555 1_555
C3 C2 1_555 1_555
C4 C3 1_555 1_555
H2 C4 1_555 1_555
C5 C4 1_555 1_555
C7 C5 1_555 1_555
C8 C7 1_555 1_555
H4 C8 1_555 1_555
C14 C3 1_555 1_555
C16 H8 1_555 1_555
C17 C16 1_555 1_555
H9 C17 1_555 1_555
C18 C17 1_555 1_555
C19 C18 1_555 1_555
H10 C19 1_555 1_555
C20 C19 1_555 1_555
H11 C20 1_555 1_555
N1 C16 1_555 1_555
O3 C14 1_555 1_555
O4 C14 1_555 1_555
C21 H13 1_555 1_555
C22 C21 1_555 1_555
H14 C22 1_555 1_555
C23 C18 1_555 1_555
C24 C23 1_555 1_555
H15 C24 1_555 1_555
C25 C24 1_555 1_555
H16 C25 1_555 1_555
N2 C21 1_555 1_555
Zn3 O8 1_555 1_555
Zn4 N2 1_555 1_555
O9 Zn4 1_555 1_555
O14 Zn3 1_555 1_555
H24 O14 1_555 1_555
Zn9 O4 1_555 1_555
Zn11 O3 1_555 1_555
O16 Zn4 1_555 1_555
O18 Zn4 1_555 1_555
O20 Zn3 1_555 1_555
O22 Zn3 1_555 1_555
C20 N1 1_555 1_555
C22 C23 1_555 1_555
C25 N2 1_555 1_555
Zn4 O14 1_555 1_555
C10 C9 1_555 1_555
H5 C10 1_555 1_555
C15 C9 1_555 1_555
O5 C15 1_555 1_555
O6 C15 1_555 1_555
Zn5 O5 1_555 1_555
Zn8 O6 1_555 1_555
C26 C27 1_555 1_555
C27 H17 1_555 1_555
C28 C27 1_555 1_555
C29 C28 1_555 1_555
H18 C29 1_555 1_555
C30 C29 1_555 1_555
C31 C26 1_555 1_555
H19 C31 1_555 1_555
C32 C30 1_555 1_555
C33 C32 1_555 1_555
H20 C33 1_555 1_555
H22 C36 1_555 1_555
C37 C32 1_555 1_555
H23 C37 1_555 1_555
C38 C26 1_555 1_555
C39 C28 1_555 1_555
O10 C39 1_555 1_555
O11 C39 1_555 1_555
Zn10 O11 1_555 1_555
Zn12 O10 1_555 1_555
C30 C31 1_555 1_555
C36 C37 1_555 1_555
C35 C34 1_555 1_555
H21 C35 1_555 1_555
C40 C34 1_555 1_555
O12 C40 1_555 1_555
O13 C40 1_555 1_555
Zn6 O13 1_555 1_555
Zn7 O12 1_555 1_555
Zn3_2 O8_2 1_555 1_555
O9_2 Zn4_2 1_555 1_555
O14_2 Zn3_2 1_555 1_555
H24_2 O14_2 1_555 1_555
O16_2 Zn4_2 1_555 1_555
O18_2 Zn4_2 1_555 1_555
O20_2 Zn3_2 1_555 1_555
O22_2 Zn3_2 1_555 1_555
Zn4_2 O14_2 1_555 1_555
Zn1_2 O1_2 1_555 1_555
Zn2_2 N1_2 1_555 1_555
C1_2 C2_2 1_555 1_555
C2_2 H1_2 1_555 1_555
C3_2 C2_2 1_555 1_555
C4_2 C3_2 1_555 1_555
H2_2 C4_2 1_555 1_555
C5_2 C4_2 1_555 1_555
C6_2 C1_2 1_555 1_555
H3_2 C6_2 1_555 1_555
C7_2 C5_2 1_555 1_555
C8_2 C7_2 1_555 1_555
H4_2 C8_2 1_555 1_555
H6_2 C11_2 1_555 1_555
C12_2 C7_2 1_555 1_555
H7_2 C12_2 1_555 1_555
C13_2 C1_2 1_555 1_555
C14_2 C3_2 1_555 1_555
C16_2 H8_2 1_555 1_555
C17_2 C16_2 1_555 1_555
H9_2 C17_2 1_555 1_555
C18_2 C17_2 1_555 1_555
C19_2 C18_2 1_555 1_555
H10_2 C19_2 1_555 1_555
C20_2 C19_2 1_555 1_555
H11_2 C20_2 1_555 1_555
N1_2 C16_2 1_555 1_555
O1_2 C13_2 1_555 1_555
O2_2 Zn2_2 1_555 1_555
O3_2 C14_2 1_555 1_555
O4_2 C14_2 1_555 1_555
O7_2 Zn1_2 1_555 1_555
H12_2 O7_2 1_555 1_555
C21_2 H13_2 1_555 1_555
C22_2 C21_2 1_555 1_555
H14_2 C22_2 1_555 1_555
C23_2 C18_2 1_555 1_555
C24_2 C23_2 1_555 1_555
H15_2 C24_2 1_555 1_555
C25_2 C24_2 1_555 1_555
H16_2 C25_2 1_555 1_555
N2_2 C21_2 1_555 1_555
Zn11 O4_2 1_555 1_555
Zn10 O3_2 1_555 1_555
O15_2 Zn2_2 1_555 1_555
O17_2 Zn2_2 1_555 1_555
O19_2 Zn1_2 1_555 1_555
O21_2 Zn1_2 1_555 1_555
Zn2_2 O7_2 1_555 1_555
C5_2 C6_2 1_555 1_555
C11_2 C12_2 1_555 1_555
C13_2 O2_2 1_555 1_555
C20_2 N1_2 1_555 1_555
C22_2 C23_2 1_555 1_555
C25_2 N2_2 1_555 1_555
C10_2 C9_2 1_555 1_555
H5_2 C10_2 1_555 1_555
C15_2 C9_2 1_555 1_555
O5_2 C15_2 1_555 1_555
O6_2 C15_2 1_555 1_555
Zn6 O5_2 1_555 1_555
Zn5 O6_2 1_555 1_555
C27_2 H17_2 1_555 1_555
C28_2 C27_2 1_555 1_555
C29_2 C28_2 1_555 1_555
H18_2 C29_2 1_555 1_555
C30_2 C29_2 1_555 1_555
C32_2 C30_2 1_555 1_555
C33_2 C32_2 1_555 1_555
H20_2 C33_2 1_555 1_555
C39_2 C28_2 1_555 1_555
O10_2 C39_2 1_555 1_555
O11_2 C39_2 1_555 1_555
Zn12 O11_2 1_555 1_555
Zn9 O10_2 1_555 1_555
C35_2 C34_2 1_555 1_555
H21_2 C35_2 1_555 1_555
C40_2 C34_2 1_555 1_555
O12_2 C40_2 1_555 1_555
O13_2 C40_2 1_555 1_555
Zn7 O13_2 1_555 1_555
Zn8 O12_2 1_555 1_555
C2_3 H1_3 1_555 1_555
C3_3 C2_3 1_555 1_555
C4_3 C3_3 1_555 1_555
H2_3 C4_3 1_555 1_555
C5_3 C4_3 1_555 1_555
C7_3 C5_3 1_555 1_555
C8_3 C7_3 1_555 1_555
H4_3 C8_3 1_555 1_555
C9_3 C8_3 1_555 1_555
C10_3 C9_3 1_555 1_555
H5_3 C10_3 1_555 1_555
C14_3 C3_3 1_555 1_555
C15_3 C9_3 1_555 1_555
O16_2 C14_3 1_555 1_555
O17 C14_3 1_555 1_555
O5_3 C15_3 1_555 1_555
O6_3 C15_3 1_555 1_555
Zn5_2 O5_3 1_555 1_555
Zn8_2 O6_3 1_555 1_555
C16_3 H8_3 1_555 1_555
C17_3 C16_3 1_555 1_555
H9_3 C17_3 1_555 1_555
C18_3 C17_3 1_555 1_555
C19_3 C18_3 1_555 1_555
H10_3 C19_3 1_555 1_555
C20_3 C19_3 1_555 1_555
H11_3 C20_3 1_555 1_555
N1_3 C16_3 1_555 1_555
C21_3 H13_3 1_555 1_555
C22_3 C21_3 1_555 1_555
H14_3 C22_3 1_555 1_555
C23_3 C18_3 1_555 1_555
C24_3 C23_3 1_555 1_555
H15_3 C24_3 1_555 1_555
C25_3 C24_3 1_555 1_555
H16_3 C25_3 1_555 1_555
N2_3 C21_3 1_555 1_555
Zn3_3 O8_3 1_555 1_555
Zn10 N2_3 1_555 1_555
C26_2 C27_3 1_555 1_555
C27_3 H17_3 1_555 1_555
C28_3 C27_3 1_555 1_555
C29_3 C28_3 1_555 1_555
H18_3 C29_3 1_555 1_555
C30_3 C29_3 1_555 1_555
C31_2 C26_2 1_555 1_555
H19_2 C31_2 1_555 1_555
C32_3 C30_3 1_555 1_555
C33_3 C32_3 1_555 1_555
H20_3 C33_3 1_555 1_555
C34_3 C33_3 1_555 1_555
C35_3 C34_3 1_555 1_555
H21_3 C35_3 1_555 1_555
C36_2 C35_3 1_555 1_555
H22_2 C36_2 1_555 1_555
C37_2 C32_3 1_555 1_555
H23_2 C37_2 1_555 1_555
C38_2 C26_2 1_555 1_555
C39_3 C28_3 1_555 1_555
C40_3 C34_3 1_555 1_555
O8_3 C38_2 1_555 1_555
O9_3 Zn10 1_555 1_555
O15_2 C39_3 1_555 1_555
O18 C39_3 1_555 1_555
O12_3 C40_3 1_555 1_555
O13_3 C40_3 1_555 1_555
O14_3 Zn3_3 1_555 1_555
H24_3 O14_3 1_555 1_555
Zn6_2 O13_3 1_555 1_555
Zn7_2 O12_3 1_555 1_555
O20_3 Zn3_3 1_555 1_555
O22_3 Zn3_3 1_555 1_555
C20_3 N1_3 1_555 1_555
C22_3 C23_3 1_555 1_555
C25_3 N2_3 1_555 1_555
Zn10 O14_3 1_555 1_555
C30_3 C31_2 1_555 1_555
C36_2 C37_2 1_555 1_555
C38_2 O9_3 1_555 1_555
Zn1_3 O1_3 1_555 1_555
O2_3 Zn9 1_555 1_555
O7_3 Zn1_3 1_555 1_555
H12_3 O7_3 1_555 1_555
O19_3 Zn1_3 1_555 1_555
O21_3 Zn1_3 1_555 1_555
Zn9 O7_3 1_555 1_555
C1_3 C2_4 1_555 1_555
C2_4 H1_4 1_555 1_555
C3_4 C2_4 1_555 1_555
C4_4 C3_4 1_555 1_555
H2_4 C4_4 1_555 1_555
C5_4 C4_4 1_555 1_555
C6_3 C1_3 1_555 1_555
H3_3 C6_3 1_555 1_555
C7_4 C5_4 1_555 1_555
C8_4 C7_4 1_555 1_555
H4_4 C8_4 1_555 1_555
C9_4 C8_4 1_555 1_555
C10_4 C9_4 1_555 1_555
H5_4 C10_4 1_555 1_555
C11_3 C10_4 1_555 1_555
H6_3 C11_3 1_555 1_555
C12_3 C7_4 1_555 1_555
H7_3 C12_3 1_555 1_555
C13_3 C1_3 1_555 1_555
C14_4 C3_4 1_555 1_555
C15_4 C9_4 1_555 1_555
O15 C14_4 1_555 1_555
O17_2 C14_4 1_555 1_555
O5_4 C15_4 1_555 1_555
O6_4 C15_4 1_555 1_555
Zn8_2 O5_4 1_555 1_555
Zn7_2 O6_4 1_555 1_555
C5_4 C6_3 1_555 1_555
C11_3 C12_3 1_555 1_555
Zn1_4 O1_4 1_555 1_555
Zn11 N1_4 1_555 1_555
C16_4 H8_4 1_555 1_555
C17_4 C16_4 1_555 1_555
H9_4 C17_4 1_555 1_555
C18_4 C17_4 1_555 1_555
C19_4 C18_4 1_555 1_555
H10_4 C19_4 1_555 1_555
C20_4 C19_4 1_555 1_555
H11_4 C20_4 1_555 1_555
N1_4 C16_4 1_555 1_555
O2_4 Zn11 1_555 1_555
O7_4 Zn1_4 1_555 1_555
H12_4 O7_4 1_555 1_555
C21_4 H13_4 1_555 1_555
C22_4 C21_4 1_555 1_555
H14_4 C22_4 1_555 1_555
C23_4 C18_4 1_555 1_555
C24_4 C23_4 1_555 1_555
H15_4 C24_4 1_555 1_555
C25_4 C24_4 1_555 1_555
H16_4 C25_4 1_555 1_555
N2_4 C21_4 1_555 1_555
C27_4 H17_4 1_555 1_555
C28_4 C27_4 1_555 1_555
C29_4 C28_4 1_555 1_555
H18_4 C29_4 1_555 1_555
C30_4 C29_4 1_555 1_555
C32_4 C30_4 1_555 1_555
C33_4 C32_4 1_555 1_555
H20_4 C33_4 1_555 1_555
C34_4 C33_4 1_555 1_555
C35_4 C34_4 1_555 1_555
H21_4 C35_4 1_555 1_555
C39_4 C28_4 1_555 1_555
C40_4 C34_4 1_555 1_555
O16 C39_4 1_555 1_555
O18_2 C39_4 1_555 1_555
O12_4 C40_4 1_555 1_555
O13_4 C40_4 1_555 1_555
Zn5_2 O13_4 1_555 1_555
Zn6_2 O12_4 1_555 1_555
O19_4 Zn1_4 1_555 1_555
O21_4 Zn1_4 1_555 1_555
Zn11 O7_4 1_555 1_555
C20_4 N1_4 1_555 1_555
C22_4 C23_4 1_555 1_555
C25_4 N2_4 1_555 1_555
Zn3_4 O8_4 1_555 1_555
C31_3 C26_3 1_555 1_555
H19_3 C31_3 1_555 1_555
H22_3 C36_3 1_555 1_555
H23_3 C37_3 1_555 1_555
C38_3 C26_3 1_555 1_555
O8_4 C38_3 1_555 1_555
O9_4 Zn12 1_555 1_555
O14_4 Zn3_4 1_555 1_555
H24_4 O14_4 1_555 1_555
O20_4 Zn3_4 1_555 1_555
O22_4 Zn3_4 1_555 1_555
Zn12 O14_4 1_555 1_555
C36_3 C37_3 1_555 1_555
C38_3 O9_4 1_555 1_555
C35_5 C34_5 1_555 1_555
H21_5 C35_5 1_555 1_555
C40_5 C34_5 1_555 1_555
O20 C40_5 1_555 1_555
O21_2 C40_5 1_555 1_555
C26_4 C27_5 1_555 1_555
C27_5 H17_5 1_555 1_555
C28_5 C27_5 1_555 1_555
C29_5 C28_5 1_555 1_555
H18_5 C29_5 1_555 1_555
C30_5 C29_5 1_555 1_555
C31_4 C26_4 1_555 1_555
H19_4 C31_4 1_555 1_555
C32_5 C30_5 1_555 1_555
C33_5 C32_5 1_555 1_555
H20_5 C33_5 1_555 1_555
H22_4 C36_4 1_555 1_555
C37_4 C32_5 1_555 1_555
H23_4 C37_4 1_555 1_555
C38_4 C26_4 1_555 1_555
C39_5 C28_5 1_555 1_555
O10_3 C39_5 1_555 1_555
O11_3 C39_5 1_555 1_555
Zn10_2 O11_3 1_555 1_555
Zn12_2 O10_3 1_555 1_555
C30_5 C31_4 1_555 1_555
C36_4 C37_4 1_555 1_555
C10_5 C9_5 1_555 1_555
H5_5 C10_5 1_555 1_555
C15_5 C9_5 1_555 1_555
O19 C15_5 1_555 1_555
O22_2 C15_5 1_555 1_555
C2_5 H1_5 1_555 1_555
C3_5 C2_5 1_555 1_555
C4_5 C3_5 1_555 1_555
H2_5 C4_5 1_555 1_555
C5_5 C4_5 1_555 1_555
C7_5 C5_5 1_555 1_555
C8_5 C7_5 1_555 1_555
H4_5 C8_5 1_555 1_555
C14_5 C3_5 1_555 1_555
C16_5 H8_5 1_555 1_555
C17_5 C16_5 1_555 1_555
H9_5 C17_5 1_555 1_555
C18_5 C17_5 1_555 1_555
C19_5 C18_5 1_555 1_555
H10_5 C19_5 1_555 1_555
C20_5 C19_5 1_555 1_555
H11_5 C20_5 1_555 1_555
N1_5 C16_5 1_555 1_555
O3_3 C14_5 1_555 1_555
O4_3 C14_5 1_555 1_555
C21_5 H13_5 1_555 1_555
C22_5 C21_5 1_555 1_555
H14_5 C22_5 1_555 1_555
C23_5 C18_5 1_555 1_555
C24_5 C23_5 1_555 1_555
H15_5 C24_5 1_555 1_555
C25_5 C24_5 1_555 1_555
H16_5 C25_5 1_555 1_555
N2_5 C21_5 1_555 1_555
Zn7 O8_5 1_555 1_555
Zn4_3 N2_5 1_555 1_555
O9_5 Zn4_3 1_555 1_555
O14_5 Zn7 1_555 1_555
H24_5 O14_5 1_555 1_555
Zn9_2 O4_3 1_555 1_555
Zn11_2 O3_3 1_555 1_555
O16_3 Zn4_3 1_555 1_555
O18_3 Zn4_3 1_555 1_555
C20_5 N1_5 1_555 1_555
C22_5 C23_5 1_555 1_555
C25_5 N2_5 1_555 1_555
Zn4_3 O14_5 1_555 1_555
Zn5 O1_5 1_555 1_555
C6_4 C1_4 1_555 1_555
H3_4 C6_4 1_555 1_555
H6_4 C11_4 1_555 1_555
H7_4 C12_4 1_555 1_555
C13_4 C1_4 1_555 1_555
O1_5 C13_4 1_555 1_555
O2_5 Zn2_3 1_555 1_555
O7_5 Zn5 1_555 1_555
H12_5 O7_5 1_555 1_555
O15_3 Zn2_3 1_555 1_555
O17_3 Zn2_3 1_555 1_555
Zn2_3 O7_5 1_555 1_555
C11_4 C12_4 1_555 1_555
C13_4 O2_5 1_555 1_555
C35_6 C34_6 1_555 1_555
H21_6 C35_6 1_555 1_555
C40_6 C34_6 1_555 1_555
O20_2 C40_6 1_555 1_555
O22 C40_6 1_555 1_555
C27_6 H17_6 1_555 1_555
C28_6 C27_6 1_555 1_555
C29_6 C28_6 1_555 1_555
H18_6 C29_6 1_555 1_555
C30_6 C29_6 1_555 1_555
C32_6 C30_6 1_555 1_555
C33_6 C32_6 1_555 1_555
H20_6 C33_6 1_555 1_555
C39_6 C28_6 1_555 1_555
O10_4 C39_6 1_555 1_555
O11_4 C39_6 1_555 1_555
Zn12_2 O11_4 1_555 1_555
Zn9_2 O10_4 1_555 1_555
C10_6 C9_6 1_555 1_555
H5_6 C10_6 1_555 1_555
C15_6 C9_6 1_555 1_555
O19_2 C15_6 1_555 1_555
O21 C15_6 1_555 1_555
Zn6 O1_6 1_555 1_555
Zn2_4 N1_6 1_555 1_555
C1_5 C2_6 1_555 1_555
C2_6 H1_6 1_555 1_555
C3_6 C2_6 1_555 1_555
C4_6 C3_6 1_555 1_555
H2_6 C4_6 1_555 1_555
C5_6 C4_6 1_555 1_555
C6_5 C1_5 1_555 1_555
H3_5 C6_5 1_555 1_555
C7_6 C5_6 1_555 1_555
C8_6 C7_6 1_555 1_555
H4_6 C8_6 1_555 1_555
H6_5 C11_5 1_555 1_555
C12_5 C7_6 1_555 1_555
H7_5 C12_5 1_555 1_555
C13_5 C1_5 1_555 1_555
C14_6 C3_6 1_555 1_555
C16_6 H8_6 1_555 1_555
C17_6 C16_6 1_555 1_555
H9_6 C17_6 1_555 1_555
C18_6 C17_6 1_555 1_555
C19_6 C18_6 1_555 1_555
H10_6 C19_6 1_555 1_555
C20_6 C19_6 1_555 1_555
H11_6 C20_6 1_555 1_555
N1_6 C16_6 1_555 1_555
O1_6 C13_5 1_555 1_555
O2_6 Zn2_4 1_555 1_555
O3_4 C14_6 1_555 1_555
O4_4 C14_6 1_555 1_555
O7_6 Zn6 1_555 1_555
H12_6 O7_6 1_555 1_555
C21_6 H13_6 1_555 1_555
C22_6 C21_6 1_555 1_555
H14_6 C22_6 1_555 1_555
C23_6 C18_6 1_555 1_555
C24_6 C23_6 1_555 1_555
H15_6 C24_6 1_555 1_555
C25_6 C24_6 1_555 1_555
H16_6 C25_6 1_555 1_555
N2_6 C21_6 1_555 1_555
Zn11_2 O4_4 1_555 1_555
Zn10_2 O3_4 1_555 1_555
O15_4 Zn2_4 1_555 1_555
O17_4 Zn2_4 1_555 1_555
Zn2_4 O7_6 1_555 1_555
C5_6 C6_5 1_555 1_555
C11_5 C12_5 1_555 1_555
C13_5 O2_6 1_555 1_555
C20_6 N1_6 1_555 1_555
C22_6 C23_6 1_555 1_555
C25_6 N2_6 1_555 1_555
Zn8 O8_6 1_555 1_555
O9_6 Zn4_4 1_555 1_555
O14_6 Zn8 1_555 1_555
H24_6 O14_6 1_555 1_555
O16_4 Zn4_4 1_555 1_555
O18_4 Zn4_4 1_555 1_555
Zn4_4 O14_6 1_555 1_555
Zn5_2 O1_7 1_555 1_555
O2_7 Zn9_2 1_555 1_555
O7_7 Zn5_2 1_555 1_555
H12_7 O7_7 1_555 1_555
Zn9_2 O7_7 1_555 1_555
C16_7 H8_7 1_555 1_555
C17_7 C16_7 1_555 1_555
H9_7 C17_7 1_555 1_555
C18_7 C17_7 1_555 1_555
C19_7 C18_7 1_555 1_555
H10_7 C19_7 1_555 1_555
C20_7 C19_7 1_555 1_555
H11_7 C20_7 1_555 1_555
N1_7 C16_7 1_555 1_555
C21_7 H13_7 1_555 1_555
C22_7 C21_7 1_555 1_555
H14_7 C22_7 1_555 1_555
C23_7 C18_7 1_555 1_555
C24_7 C23_7 1_555 1_555
H15_7 C24_7 1_555 1_555
C25_7 C24_7 1_555 1_555
H16_7 C25_7 1_555 1_555
N2_7 C21_7 1_555 1_555
Zn7_2 O8_7 1_555 1_555
Zn10_2 N2_7 1_555 1_555
C26_5 C27_7 1_555 1_555
C27_7 H17_7 1_555 1_555
C28_7 C27_7 1_555 1_555
C29_7 C28_7 1_555 1_555
H18_7 C29_7 1_555 1_555
C30_7 C29_7 1_555 1_555
C31_5 C26_5 1_555 1_555
H19_5 C31_5 1_555 1_555
C32_7 C30_7 1_555 1_555
C33_7 C32_7 1_555 1_555
H20_7 C33_7 1_555 1_555
C34_7 C33_7 1_555 1_555
C35_7 C34_7 1_555 1_555
H21_7 C35_7 1_555 1_555
C36_5 C35_7 1_555 1_555
H22_5 C36_5 1_555 1_555
C37_5 C32_7 1_555 1_555
H23_5 C37_5 1_555 1_555
C38_5 C26_5 1_555 1_555
C39_7 C28_7 1_555 1_555
C40_7 C34_7 1_555 1_555
O8_7 C38_5 1_555 1_555
O9_7 Zn10_2 1_555 1_555
O15_4 C39_7 1_555 1_555
O18_3 C39_7 1_555 1_555
O20_3 C40_7 1_555 1_555
O22_4 C40_7 1_555 1_555
O14_7 Zn7_2 1_555 1_555
H24_7 O14_7 1_555 1_555
C20_7 N1_7 1_555 1_555
C22_7 C23_7 1_555 1_555
C25_7 N2_7 1_555 1_555
Zn10_2 O14_7 1_555 1_555
C30_7 C31_5 1_555 1_555
C36_5 C37_5 1_555 1_555
C38_5 O9_7 1_555 1_555
C2_7 H1_7 1_555 1_555
C3_7 C2_7 1_555 1_555
C4_7 C3_7 1_555 1_555
H2_7 C4_7 1_555 1_555
C5_7 C4_7 1_555 1_555
C7_7 C5_7 1_555 1_555
C8_7 C7_7 1_555 1_555
H4_7 C8_7 1_555 1_555
C9_7 C8_7 1_555 1_555
C10_7 C9_7 1_555 1_555
H5_7 C10_7 1_555 1_555
C14_7 C3_7 1_555 1_555
C15_7 C9_7 1_555 1_555
O16_4 C14_7 1_555 1_555
O17_3 C14_7 1_555 1_555
O19_3 C15_7 1_555 1_555
O21_4 C15_7 1_555 1_555
Zn6_2 O8_8 1_555 1_555
C31_6 C26_6 1_555 1_555
H19_6 C31_6 1_555 1_555
H22_6 C36_6 1_555 1_555
H23_6 C37_6 1_555 1_555
C38_6 C26_6 1_555 1_555
O8_8 C38_6 1_555 1_555
O9_8 Zn12_2 1_555 1_555
O14_8 Zn6_2 1_555 1_555
H24_8 O14_8 1_555 1_555
Zn12_2 O14_8 1_555 1_555
C36_6 C37_6 1_555 1_555
C38_6 O9_8 1_555 1_555
Zn8_2 O1_8 1_555 1_555
Zn11_2 N1_8 1_555 1_555
C16_8 H8_8 1_555 1_555
C17_8 C16_8 1_555 1_555
H9_8 C17_8 1_555 1_555
C18_8 C17_8 1_555 1_555
C19_8 C18_8 1_555 1_555
H10_8 C19_8 1_555 1_555
C20_8 C19_8 1_555 1_555
H11_8 C20_8 1_555 1_555
N1_8 C16_8 1_555 1_555
O2_8 Zn11_2 1_555 1_555
O7_8 Zn8_2 1_555 1_555
H12_8 O7_8 1_555 1_555
C21_8 H13_8 1_555 1_555
C22_8 C21_8 1_555 1_555
H14_8 C22_8 1_555 1_555
C23_8 C18_8 1_555 1_555
C24_8 C23_8 1_555 1_555
H15_8 C24_8 1_555 1_555
C25_8 C24_8 1_555 1_555
H16_8 C25_8 1_555 1_555
N2_8 C21_8 1_555 1_555
C27_8 H17_8 1_555 1_555
C28_8 C27_8 1_555 1_555
C29_8 C28_8 1_555 1_555
H18_8 C29_8 1_555 1_555
C30_8 C29_8 1_555 1_555
C32_8 C30_8 1_555 1_555
C33_8 C32_8 1_555 1_555
H20_8 C33_8 1_555 1_555
C34_8 C33_8 1_555 1_555
C35_8 C34_8 1_555 1_555
H21_8 C35_8 1_555 1_555
C39_8 C28_8 1_555 1_555
C40_8 C34_8 1_555 1_555
O16_3 C39_8 1_555 1_555
O18_4 C39_8 1_555 1_555
O20_4 C40_8 1_555 1_555
O21_3 C40_8 1_555 1_555
Zn11_2 O7_8 1_555 1_555
C20_8 N1_8 1_555 1_555
C22_8 C23_8 1_555 1_555
C25_8 N2_8 1_555 1_555
C1_6 C2_8 1_555 1_555
C2_8 H1_8 1_555 1_555
C3_8 C2_8 1_555 1_555
C4_8 C3_8 1_555 1_555
H2_8 C4_8 1_555 1_555
C5_8 C4_8 1_555 1_555
C6_6 C1_6 1_555 1_555
H3_6 C6_6 1_555 1_555
C7_8 C5_8 1_555 1_555
C8_8 C7_8 1_555 1_555
H4_8 C8_8 1_555 1_555
C9_8 C8_8 1_555 1_555
C10_8 C9_8 1_555 1_555
H5_8 C10_8 1_555 1_555
C11_6 C10_8 1_555 1_555
H6_6 C11_6 1_555 1_555
C12_6 C7_8 1_555 1_555
H7_6 C12_6 1_555 1_555
C13_6 C1_6 1_555 1_555
C14_8 C3_8 1_555 1_555
C15_8 C9_8 1_555 1_555
O15_3 C14_8 1_555 1_555
O17_4 C14_8 1_555 1_555
O19_4 C15_8 1_555 1_555
O22_3 C15_8 1_555 1_555
C5_8 C6_6 1_555 1_555
C11_6 C12_6 1_555 1_555
C31_7 C26_7 1_555 1_555
H19_7 C31_7 1_555 1_555
H22_7 C36_7 1_555 1_555
H23_7 C37_7 1_555 1_555
C38_7 C26_7 1_555 1_555
C36_7 C37_7 1_555 1_555
C6_7 C1_7 1_555 1_555
H3_7 C6_7 1_555 1_555
H6_7 C11_7 1_555 1_555
H7_7 C12_7 1_555 1_555
C13_7 C1_7 1_555 1_555
C11_7 C12_7 1_555 1_555
C31_8 C26_8 1_555 1_555
H19_8 C31_8 1_555 1_555
H22_8 C36_8 1_555 1_555
H23_8 C37_8 1_555 1_555
C38_8 C26_8 1_555 1_555
C36_8 C37_8 1_555 1_555
C6_8 C1_8 1_555 1_555
H3_8 C6_8 1_555 1_555
H6_8 C11_8 1_555 1_555
H7_8 C12_8 1_555 1_555
C13_8 C1_8 1_555 1_555
C11_8 C12_8 1_555 1_555

#END
