
###############################################################################
#
# This file contains modified crystal structure data generated from the
# MOF subset of the Cambridge Structural Database (CSD) v543 
# hosted by the Cambridge Crystallographic Data Centre (CCDC).
#
# This work is licensed under the Creative Commons
# Attribution-NonCommercial-ShareAlike 4.0 International License.
# To view a copy of this license, visit
# http://creativecommons.org/licenses/by-nc-sa/4.0/
# or send a letter to
# Creative Commons, PO Box 1866, Mountain View, CA 94042, USA.
#
# CIF created using the CSD Python API on 29 September 2022
# The structure has been converted into the P1 space group
# The structure has a 3D framework
# The original CSD entry YOCDUR is in the tetragonal crystal system
# The framework has been calculated to contain at least 10.0% void space
# The void calculation uses a probe of radius 1.32A, grid spacing 0.4
#
###############################################################################

data_YOCDUR
_chemical_formula_moiety         '(C424 H360 N24 O160 Zn32)n'
_symmetry_cell_setting           triclinic
_symmetry_space_group_name_H-M   'P 1'
_symmetry_Int_Tables_number      1
_space_group_name_Hall           'P 1'
loop_
_symmetry_equiv_pos_site_id
_symmetry_equiv_pos_as_xyz
1 x,y,z
_cell_length_a                   25.356(4)
_cell_length_b                   25.356(4)
_cell_length_c                   33.358(7)
_cell_angle_alpha                90
_cell_angle_beta                 90
_cell_angle_gamma                90
_cell_volume                     21446.8
loop_
_atom_site_label
_atom_site_type_symbol
_atom_site_fract_x
_atom_site_fract_y
_atom_site_fract_z
C47 C 0.1003(7) 0.0248(6) 0.3305(10)
H25 H 0.0802 0.0353 0.3536
H26 H 0.0831 0.0371 0.3066
H27 H 0.1350 0.0397 0.3321
C49 C 0.2813(9) 0.0117(4) 0.4302(7)
H29 H 0.2744 0.0163 0.4021
H30 H 0.3108 0.0332 0.4379
H31 H 0.2508 0.0220 0.4453
Zn1 Zn 0.23289(3) 0.86186(3) 0.347769(19)
Zn2 Zn 0.26944(3) 0.76154(3) 0.288671(17)
Zn3 Zn 0.23593(3) 0.76943(3) 0.461693(17)
Zn4 Zn 0.76636(4) 0.65419(3) 0.46486(2)
O1 O 0.20020(19) 0.8302(2) 0.39882(13)
O2 O 0.17420(19) 0.7554(2) 0.42570(14)
O3 O 0.21014(17) 0.78516(18) 0.32367(12)
O4 O 0.1581(2) 0.7770(3) 0.26959(14)
O9 O 0.3224(2) 0.7557(2) 0.33158(16)
O10 O 0.30693(18) 0.8339(2) 0.36164(14)
O11 O 0.30238(18) 0.7694(2) 0.43285(12)
O12 O 0.35204(19) 0.80414(19) 0.48052(13)
O13 O 0.70242(19) 0.7721(2) 0.50963(14)
O14 O 0.6991(2) 0.6892(2) 0.48872(17)
O15 O 0.6789(2) 0.7856(2) 0.24678(14)
O16 O 0.6130(2) 0.7537(3) 0.20748(14)
C1 C 0.1202(3) 0.7883(3) 0.37477(18)
C2 C 0.1181(3) 0.7850(3) 0.33258(19)
C3 C 0.0683(3) 0.7857(3) 0.31420(19)
H1 H 0.0667 0.7852 0.2864
C4 C 0.0214(3) 0.7872(3) 0.3356(2)
C5 C 0.0235(3) 0.7863(3) 0.37736(19)
C6 C 0.0726(3) 0.7882(3) 0.3958(2)
H2 H 0.0738 0.7894 0.4236
C7 C 0.1686(3) 0.7917(3) 0.40028(18)
C8 C 0.1640(3) 0.7833(3) 0.3060(2)
C23 C 0.3830(2) 0.7861(3) 0.37711(18)
C24 C 0.3913(3) 0.7865(3) 0.41792(17)
C25 C 0.4422(3) 0.7828(3) 0.43307(18)
H11 H 0.4472 0.7829 0.4607
C26 C 0.4851(3) 0.7789(3) 0.4086(2)
C27 C 0.4789(3) 0.7763(4) 0.3671(2)
C28 C 0.4280(3) 0.7821(4) 0.3519(2)
H12 H 0.4233 0.7834 0.3242
C29 C 0.3325(2) 0.7920(3) 0.35583(16)
C30 C 0.3452(2) 0.7874(3) 0.44580(17)
C31 C 0.5380(3) 0.7668(4) 0.42807(18)
C32 C 0.5672(3) 0.7235(4) 0.4187(2)
H13 H 0.5560 0.7006 0.3987
C33 C 0.6128(3) 0.7140(3) 0.4388(2)
H14 H 0.6319 0.6837 0.4328
C34 C 0.6319(3) 0.7481(3) 0.4681(2)
C35 C 0.6035(3) 0.7932(4) 0.4768(2)
H15 H 0.6163 0.8171 0.4956
C36 C 0.5564(3) 0.8030(4) 0.4576(2)
H16 H 0.5369 0.8329 0.4638
C37 C 0.6823(3) 0.7348(3) 0.4897(2)
C38 C 0.5215(3) 0.7738(4) 0.33704(19)
C39 C 0.5127(3) 0.7416(5) 0.3034(2)
H17 H 0.4818 0.7219 0.3015
C40 C 0.5500(3) 0.7390(4) 0.2727(2)
H18 H 0.5448 0.7163 0.2511
C41 C 0.5943(2) 0.7700(4) 0.27420(19)
C42 C 0.6039(3) 0.8018(4) 0.3085(2)
H19 H 0.6346 0.8217 0.3102
C43 C 0.5679(3) 0.8032(4) 0.3391(2)
H20 H 0.5745 0.8240 0.3615
C44 C 0.6324(3) 0.7707(3) 0.2397(2)
N1 N 0.1043(4) 0.9643(5) 0.3282(7)
O17 O 0.1588(2) 0.8975(2) 0.3352(2)
C45 C 0.1522(4) 0.9468(3) 0.3312(3)
H21 H 0.1809 0.9697 0.3305
C46 C 0.0553(9) 0.9346(6) 0.3365(8)
H22 H 0.0364 0.9284 0.3120
H23 H 0.0336 0.9547 0.3545
H24 H 0.0640 0.9014 0.3487
N2 N 0.2931(5) 0.9576(4) 0.4380(3)
O18 O 0.2552(3) 0.9282(2) 0.38105(18)
C48 C 0.2761(5) 0.9203(4) 0.4143(3)
H28 H 0.2799 0.8856 0.4228
C50 C 0.3206(6) 0.9442(5) 0.4766(3)
H32 H 0.3087 0.9677 0.4973
H33 H 0.3580 0.9481 0.4732
H34 H 0.3127 0.9085 0.4840
N3 N 0.7283(6) 0.6994(5) 0.3475(2)
O19 O 0.7302(3) 0.6605(3) 0.40742(16)
C51 C 0.7467(5) 0.6879(6) 0.3831(3)
H35 H 0.7782 0.7046 0.3898
C52 C 0.6734(6) 0.6750(6) 0.3348(4)
H36 H 0.6675 0.6430 0.3494
H37 H 0.6736 0.6676 0.3066
H38 H 0.6458 0.6997 0.3407
C53 C 0.7485(9) 0.7329(8) 0.3191(4)
H39 H 0.7394 0.7687 0.3256
H40 H 0.7342 0.7240 0.2933
H41 H 0.7861 0.7293 0.3185
O20 O 0.7279(3) 0.5809(2) 0.47291(18)
H42 H 0.6951 0.5742 0.4885
H43 H 0.7390 0.5461 0.4620
O21 O 0.8302(4) 0.6182(3) 0.4399(2)
H44 H 0.8487 0.5900 0.4505
H45 H 0.8460 0.6270 0.4158
Zn5 Zn 0.63814(3) 0.73289(3) 0.152231(19)
Zn7 Zn 0.73846(3) 0.76944(3) 0.211329(17)
Zn9 Zn 0.76943(3) 0.76407(3) 0.538307(17)
Zn11 Zn 0.34581(3) 0.76636(4) 0.53514(2)
O22 O 0.2539(3) 0.6888(3) 0.2707(2)
O23 O 0.3322(6) 0.7086(3) 0.2444(2)
O24 O 0.79922(18) 0.7289(2) 0.45629(13)
O25 O 0.2233(2) 0.8322(2) 0.49384(15)
O26 O 0.80414(19) 0.64796(19) 0.51948(13)
O27 O 0.2279(2) 0.70242(19) 0.49037(14)
O28 O 0.2856(2) 0.8211(2) 0.25322(14)
O29 O 0.2537(3) 0.8870(2) 0.29252(14)
O5 O 0.8112(3) 0.7539(3) 0.2293(2)
O6 O 0.7914(3) 0.8322(6) 0.2556(2)
O8 O 0.8322(2) 0.7767(2) 0.50616(15)
C9 C 0.9711(3) 0.7897(3) 0.3124(2)
C10 C 0.9605(3) 0.7524(4) 0.2822(2)
H3 H 0.9853 0.7270 0.2753
C11 C 0.9117(3) 0.7546(4) 0.2627(3)
H4 H 0.9038 0.7298 0.2430
C12 C 0.8751(3) 0.7928(4) 0.2721(3)
C13 C 0.8843(3) 0.8299(4) 0.3005(2)
H5 H 0.8591 0.8555 0.3060
C14 C 0.9338(3) 0.8294(4) 0.3221(3)
H6 H 0.9408 0.8543 0.3418
C15 C 0.8210(4) 0.7924(5) 0.2507(2)
C16 C 0.9755(2) 0.7800(4) 0.40205(19)
C17 C 0.9395(3) 0.7386(4) 0.3934(2)
H7 H 0.9462 0.7162 0.3719
C18 C 0.8956(3) 0.7311(4) 0.4160(2)
H8 H 0.8725 0.7037 0.4101
C19 C 0.8855(2) 0.7641(3) 0.44760(18)
C20 C 0.9203(3) 0.8027(4) 0.4587(3)
H9 H 0.9141 0.8222 0.4818
C21 C 0.9653(3) 0.8129(4) 0.4353(3)
H10 H 0.9878 0.8406 0.4415
C22 C 0.8346(3) 0.7559(3) 0.47218(19)
O5_2 O 0.1888(3) 0.2461(3) 0.2293(2)
O6_2 O 0.2086(3) 0.1678(6) 0.2556(2)
O7 O 0.20078(18) 0.2711(2) 0.45629(13)
O8_2 O 0.1678(2) 0.2233(2) 0.50616(15)
C9_2 C 0.0289(3) 0.2103(3) 0.3124(2)
C10_2 C 0.0395(3) 0.2476(4) 0.2822(2)
H3_2 H 0.0147 0.2730 0.2753
C11_2 C 0.0883(3) 0.2454(4) 0.2627(3)
H4_2 H 0.0962 0.2702 0.2430
C12_2 C 0.1249(3) 0.2072(4) 0.2721(3)
C13_2 C 0.1157(3) 0.1701(4) 0.3005(2)
H5_2 H 0.1409 0.1445 0.3060
C14_2 C 0.0662(3) 0.1706(4) 0.3221(3)
H6_2 H 0.0592 0.1457 0.3418
C15_2 C 0.1790(4) 0.2076(5) 0.2507(2)
C16_2 C 0.0245(2) 0.2200(4) 0.40205(19)
C17_2 C 0.0605(3) 0.2614(4) 0.3934(2)
H7_2 H 0.0538 0.2838 0.3719
C18_2 C 0.1044(3) 0.2689(4) 0.4160(2)
H8_2 H 0.1275 0.2963 0.4101
C19_2 C 0.1145(2) 0.2359(3) 0.44760(18)
C20_2 C 0.0797(3) 0.1973(4) 0.4587(3)
H9_2 H 0.0859 0.1778 0.4818
C21_2 C 0.0347(3) 0.1871(4) 0.4353(3)
H10_2 H 0.0122 0.1594 0.4415
C22_2 C 0.1654(3) 0.2441(3) 0.47218(19)
Zn6 Zn 0.26154(3) 0.23056(3) 0.211329(17)
Zn8 Zn 0.23057(3) 0.23593(3) 0.538307(17)
Zn10 Zn 0.23364(4) 0.34581(3) 0.46486(2)
Zn1_2 Zn 0.76711(3) 0.13814(3) 0.347769(19)
Zn2_2 Zn 0.73056(3) 0.23846(3) 0.288671(17)
Zn3_2 Zn 0.76407(3) 0.23057(3) 0.461693(17)
O1_2 O 0.79980(19) 0.1698(2) 0.39882(13)
O2_2 O 0.82580(19) 0.2446(2) 0.42570(14)
O3_2 O 0.78986(17) 0.21484(18) 0.32367(12)
O4_2 O 0.8419(2) 0.2230(3) 0.26959(14)
O9_2 O 0.6776(2) 0.2443(2) 0.33158(16)
O10_2 O 0.69307(18) 0.1661(2) 0.36164(14)
O11_2 O 0.69762(18) 0.2306(2) 0.43285(12)
O12_2 O 0.64796(19) 0.19586(19) 0.48052(13)
O13_2 O 0.29758(19) 0.2279(2) 0.50963(14)
O14_2 O 0.3009(2) 0.3108(2) 0.48872(17)
O15_2 O 0.3211(2) 0.2144(2) 0.24678(14)
O16_2 O 0.3870(2) 0.2463(3) 0.20748(14)
C1_2 C 0.8798(3) 0.2117(3) 0.37477(18)
C2_2 C 0.8819(3) 0.2150(3) 0.33258(19)
C3_2 C 0.9317(3) 0.2143(3) 0.31420(19)
H1_2 H 0.9333 0.2148 0.2864
C4_2 C 0.9786(3) 0.2128(3) 0.3356(2)
C5_2 C 0.9765(3) 0.2137(3) 0.37736(19)
C6_2 C 0.9274(3) 0.2118(3) 0.3958(2)
H2_2 H 0.9262 0.2106 0.4236
C7_2 C 0.8314(3) 0.2083(3) 0.40028(18)
C8_2 C 0.8360(3) 0.2167(3) 0.3060(2)
C23_2 C 0.6170(2) 0.2139(3) 0.37711(18)
C24_2 C 0.6087(3) 0.2135(3) 0.41792(17)
C25_2 C 0.5578(3) 0.2172(3) 0.43307(18)
H11_2 H 0.5528 0.2171 0.4607
C26_2 C 0.5149(3) 0.2211(3) 0.4086(2)
C27_2 C 0.5211(3) 0.2237(4) 0.3671(2)
C28_2 C 0.5720(3) 0.2179(4) 0.3519(2)
H12_2 H 0.5767 0.2166 0.3242
C29_2 C 0.6675(2) 0.2080(3) 0.35583(16)
C30_2 C 0.6548(2) 0.2126(3) 0.44580(17)
C31_2 C 0.4620(3) 0.2332(4) 0.42807(18)
C32_2 C 0.4328(3) 0.2765(4) 0.4187(2)
H13_2 H 0.4440 0.2994 0.3987
C33_2 C 0.3872(3) 0.2860(3) 0.4388(2)
H14_2 H 0.3681 0.3163 0.4328
C34_2 C 0.3681(3) 0.2519(3) 0.4681(2)
C35_2 C 0.3965(3) 0.2068(4) 0.4768(2)
H15_2 H 0.3837 0.1829 0.4956
C36_2 C 0.4436(3) 0.1970(4) 0.4576(2)
H16_2 H 0.4631 0.1671 0.4638
C37_2 C 0.3177(3) 0.2652(3) 0.4897(2)
C38_2 C 0.4785(3) 0.2262(4) 0.33704(19)
C39_2 C 0.4873(3) 0.2584(5) 0.3034(2)
H17_2 H 0.5182 0.2781 0.3015
C40_2 C 0.4500(3) 0.2610(4) 0.2727(2)
H18_2 H 0.4552 0.2837 0.2511
C41_2 C 0.4057(2) 0.2300(4) 0.27420(19)
C42_2 C 0.3961(3) 0.1982(4) 0.3085(2)
H19_2 H 0.3654 0.1783 0.3102
C43_2 C 0.4321(3) 0.1968(4) 0.3391(2)
H20_2 H 0.4255 0.1760 0.3615
C44_2 C 0.3676(3) 0.2293(3) 0.2397(2)
N1_2 N 0.8957(4) 0.0357(5) 0.3282(7)
O17_2 O 0.8412(2) 0.1025(2) 0.3352(2)
C45_2 C 0.8478(4) 0.0532(3) 0.3312(3)
H21_2 H 0.8191 0.0303 0.3305
C46_2 C 0.9447(9) 0.0654(6) 0.3365(8)
H22_2 H 0.9636 0.0716 0.3120
H23_2 H 0.9664 0.0453 0.3545
H24_2 H 0.9360 0.0986 0.3487
N2_2 N 0.7069(5) 0.0424(4) 0.4380(3)
O18_2 O 0.7448(3) 0.0718(2) 0.38105(18)
C48_2 C 0.7239(5) 0.0797(4) 0.4143(3)
H28_2 H 0.7201 0.1144 0.4228
C50_2 C 0.6794(6) 0.0558(5) 0.4766(3)
H32_2 H 0.6913 0.0323 0.4973
H33_2 H 0.6420 0.0519 0.4732
H34_2 H 0.6873 0.0915 0.4840
N3_2 N 0.2717(6) 0.3006(5) 0.3475(2)
O19_2 O 0.2698(3) 0.3395(3) 0.40742(16)
C51_2 C 0.2533(5) 0.3121(6) 0.3831(3)
H35_2 H 0.2218 0.2954 0.3898
C52_2 C 0.3266(6) 0.3250(6) 0.3348(4)
H36_2 H 0.3325 0.3570 0.3494
H37_2 H 0.3264 0.3324 0.3066
H38_2 H 0.3542 0.3003 0.3407
C53_2 C 0.2515(9) 0.2671(8) 0.3191(4)
H39_2 H 0.2606 0.2313 0.3256
H40_2 H 0.2658 0.2760 0.2933
H41_2 H 0.2139 0.2707 0.3185
O20_2 O 0.2721(3) 0.4191(2) 0.47291(18)
H42_2 H 0.3049 0.4258 0.4885
H43_2 H 0.2610 0.4539 0.4620
O21_2 O 0.1698(4) 0.3818(3) 0.4399(2)
H44_2 H 0.1513 0.4100 0.4505
H45_2 H 0.1540 0.3730 0.4158
Zn5_2 Zn 0.36186(3) 0.26711(3) 0.152231(19)
Zn11_2 Zn 0.65419(3) 0.23364(4) 0.53514(2)
O22_2 O 0.7461(3) 0.3112(3) 0.2707(2)
O23_2 O 0.6678(6) 0.2914(3) 0.2444(2)
O25_2 O 0.7767(2) 0.1678(2) 0.49384(15)
O26_2 O 0.19586(19) 0.35204(19) 0.51948(13)
O27_2 O 0.7721(2) 0.29758(19) 0.49037(14)
O28_2 O 0.7144(2) 0.1789(2) 0.25322(14)
O29_2 O 0.7463(3) 0.1130(2) 0.29252(14)
O5_3 O 0.7539(3) 0.1888(3) 0.7707(2)
O6_3 O 0.8322(6) 0.2086(3) 0.7444(2)
O7_2 O 0.7289(2) 0.20078(18) 0.54371(13)
C9_3 C 0.7897(3) 0.0289(3) 0.6876(2)
C10_3 C 0.7524(4) 0.0395(3) 0.7178(2)
H3_3 H 0.7270 0.0147 0.7247
C11_3 C 0.7546(4) 0.0883(3) 0.7373(3)
H4_3 H 0.7298 0.0962 0.7570
C12_3 C 0.7928(4) 0.1249(3) 0.7279(3)
C13_3 C 0.8299(4) 0.1157(3) 0.6995(2)
H5_3 H 0.8555 0.1409 0.6940
C14_3 C 0.8294(4) 0.0662(3) 0.6779(3)
H6_3 H 0.8543 0.0592 0.6582
C15_3 C 0.7924(5) 0.1790(4) 0.7493(2)
C16_3 C 0.7800(4) 0.0245(2) 0.59795(19)
C17_3 C 0.7386(4) 0.0605(3) 0.6066(2)
H7_3 H 0.7162 0.0538 0.6281
C18_3 C 0.7311(4) 0.1044(3) 0.5840(2)
H8_3 H 0.7037 0.1275 0.5899
C19_3 C 0.7641(3) 0.1145(2) 0.55240(18)
C20_3 C 0.8027(4) 0.0797(3) 0.5413(3)
H9_3 H 0.8222 0.0859 0.5182
C21_3 C 0.8129(4) 0.0347(3) 0.5647(3)
H10_3 H 0.8406 0.0122 0.5585
C22_3 C 0.7559(3) 0.1654(3) 0.52782(19)
Zn6_2 Zn 0.76944(3) 0.26154(3) 0.788671(17)
Zn1_3 Zn 0.86186(3) 0.76711(3) 0.652231(19)
Zn2_3 Zn 0.76154(3) 0.73056(3) 0.711329(17)
O1_3 O 0.8302(2) 0.79980(19) 0.60118(13)
O2_3 O 0.7554(2) 0.82580(19) 0.57430(14)
O3_3 O 0.78516(18) 0.78986(17) 0.67633(12)
O4_3 O 0.7770(3) 0.8419(2) 0.73041(14)
O9_3 O 0.7557(2) 0.6776(2) 0.66842(16)
O10_3 O 0.8339(2) 0.69307(18) 0.63836(14)
O11_3 O 0.7694(2) 0.69762(18) 0.56715(12)
O14_3 O 0.6892(2) 0.3009(2) 0.51128(17)
O15_3 O 0.7856(2) 0.3211(2) 0.75322(14)
O16_3 O 0.7537(3) 0.3870(2) 0.79252(14)
C1_3 C 0.7883(3) 0.8798(3) 0.62523(18)
C2_3 C 0.7850(3) 0.8819(3) 0.66742(19)
C3_3 C 0.7857(3) 0.9317(3) 0.68580(19)
H1_3 H 0.7852 0.9333 0.7136
C4_3 C 0.7872(3) 0.9786(3) 0.6644(2)
C5_3 C 0.7863(3) 0.9765(3) 0.62264(19)
C6_3 C 0.7882(3) 0.9274(3) 0.6042(2)
H2_3 H 0.7894 0.9262 0.5764
C7_3 C 0.7917(3) 0.8314(3) 0.59972(18)
C8_3 C 0.7833(3) 0.8360(3) 0.6940(2)
C23_3 C 0.7861(3) 0.6170(2) 0.62289(18)
C24_3 C 0.7865(3) 0.6087(3) 0.58208(17)
C25_3 C 0.7828(3) 0.5578(3) 0.56693(18)
H11_3 H 0.7829 0.5528 0.5393
C26_3 C 0.7789(3) 0.5149(3) 0.5914(2)
C27_3 C 0.7763(4) 0.5211(3) 0.6329(2)
C28_3 C 0.7821(4) 0.5720(3) 0.6481(2)
H12_3 H 0.7834 0.5767 0.6758
C29_3 C 0.7920(3) 0.6675(2) 0.64417(16)
C30_3 C 0.7874(3) 0.6548(2) 0.55420(17)
C31_3 C 0.7668(4) 0.4620(3) 0.57193(18)
C32_3 C 0.7235(4) 0.4328(3) 0.5813(2)
H13_3 H 0.7006 0.4440 0.6013
C33_3 C 0.7140(3) 0.3872(3) 0.5612(2)
H14_3 H 0.6837 0.3681 0.5672
C34_3 C 0.7481(3) 0.3681(3) 0.5319(2)
C35_3 C 0.7932(4) 0.3965(3) 0.5232(2)
H15_3 H 0.8171 0.3837 0.5044
C36_3 C 0.8030(4) 0.4436(3) 0.5424(2)
H16_3 H 0.8329 0.4631 0.5362
C37_3 C 0.7348(3) 0.3177(3) 0.5103(2)
C38_3 C 0.7738(4) 0.4785(3) 0.66296(19)
C39_3 C 0.7416(5) 0.4873(3) 0.6966(2)
H17_3 H 0.7219 0.5182 0.6985
C40_3 C 0.7390(4) 0.4500(3) 0.7273(2)
H18_3 H 0.7163 0.4552 0.7489
C41_3 C 0.7700(4) 0.4057(2) 0.72580(19)
C42_3 C 0.8018(4) 0.3961(3) 0.6915(2)
H19_3 H 0.8217 0.3654 0.6898
C43_3 C 0.8032(4) 0.4321(3) 0.6609(2)
H20_3 H 0.8240 0.4255 0.6385
C44_3 C 0.7707(3) 0.3676(3) 0.7603(2)
N1_3 N 0.9643(5) 0.8957(4) 0.6718(7)
O17_3 O 0.8975(2) 0.8412(2) 0.6648(2)
C45_3 C 0.9468(3) 0.8478(4) 0.6688(3)
H21_3 H 0.9697 0.8191 0.6695
C46_3 C 0.9346(6) 0.9447(9) 0.6635(8)
H22_3 H 0.9284 0.9636 0.6880
H23_3 H 0.9547 0.9664 0.6455
H24_3 H 0.9014 0.9360 0.6513
N2_3 N 0.9576(4) 0.7069(5) 0.5620(3)
O18_3 O 0.9282(2) 0.7448(3) 0.61895(18)
C48_3 C 0.9203(4) 0.7239(5) 0.5857(3)
H28_3 H 0.8856 0.7201 0.5772
C50_3 C 0.9442(5) 0.6794(6) 0.5234(3)
H32_3 H 0.9677 0.6913 0.5027
H33_3 H 0.9481 0.6420 0.5268
H34_3 H 0.9085 0.6873 0.5160
N3_3 N 0.6994(5) 0.2717(6) 0.6525(2)
O19_3 O 0.6605(3) 0.2698(3) 0.59258(16)
C51_3 C 0.6879(6) 0.2533(5) 0.6169(3)
H35_3 H 0.7046 0.2218 0.6102
C52_3 C 0.6750(6) 0.3266(6) 0.6652(4)
H36_3 H 0.6430 0.3325 0.6506
H37_3 H 0.6676 0.3264 0.6934
H38_3 H 0.6997 0.3542 0.6593
C53_3 C 0.7329(8) 0.2515(9) 0.6809(4)
H39_3 H 0.7687 0.2606 0.6744
H40_3 H 0.7240 0.2658 0.7067
H41_3 H 0.7293 0.2139 0.6815
O20_3 O 0.5809(2) 0.2721(3) 0.52709(18)
H42_3 H 0.5742 0.3049 0.5115
H43_3 H 0.5461 0.2610 0.5380
O21_3 O 0.6182(3) 0.1698(4) 0.5601(2)
H44_3 H 0.5900 0.1513 0.5495
H45_3 H 0.6270 0.1540 0.5842
Zn5_3 Zn 0.73289(3) 0.36186(3) 0.847769(19)
O22_3 O 0.6888(3) 0.7461(3) 0.7293(2)
O23_3 O 0.7086(3) 0.6678(6) 0.7556(2)
O28_3 O 0.8211(2) 0.7144(2) 0.74678(14)
O29_3 O 0.8870(2) 0.7463(3) 0.70748(14)
Zn1_4 Zn 0.13814(3) 0.23289(3) 0.652231(19)
Zn2_4 Zn 0.23846(3) 0.26944(3) 0.711329(17)
O1_4 O 0.1698(2) 0.20020(19) 0.60118(13)
O2_4 O 0.2446(2) 0.17420(19) 0.57430(14)
O3_4 O 0.21484(18) 0.21014(17) 0.67633(12)
O4_4 O 0.2230(3) 0.1581(2) 0.73041(14)
O9_4 O 0.2443(2) 0.3224(2) 0.66842(16)
O10_4 O 0.1661(2) 0.30693(18) 0.63836(14)
O11_4 O 0.2306(2) 0.30238(18) 0.56715(12)
O14_4 O 0.3108(2) 0.6991(2) 0.51128(17)
O15_4 O 0.2144(2) 0.6789(2) 0.75322(14)
O16_4 O 0.2463(3) 0.6130(2) 0.79252(14)
C1_4 C 0.2117(3) 0.1202(3) 0.62523(18)
C2_4 C 0.2150(3) 0.1181(3) 0.66742(19)
C3_4 C 0.2143(3) 0.0683(3) 0.68580(19)
H1_4 H 0.2148 0.0667 0.7136
C4_4 C 0.2128(3) 0.0214(3) 0.6644(2)
C5_4 C 0.2137(3) 0.0235(3) 0.62264(19)
C6_4 C 0.2118(3) 0.0726(3) 0.6042(2)
H2_4 H 0.2106 0.0738 0.5764
C7_4 C 0.2083(3) 0.1686(3) 0.59972(18)
C8_4 C 0.2167(3) 0.1640(3) 0.6940(2)
C23_4 C 0.2139(3) 0.3830(2) 0.62289(18)
C24_4 C 0.2135(3) 0.3913(3) 0.58208(17)
C25_4 C 0.2172(3) 0.4422(3) 0.56693(18)
H11_4 H 0.2171 0.4472 0.5393
C26_4 C 0.2211(3) 0.4851(3) 0.5914(2)
C27_4 C 0.2237(4) 0.4789(3) 0.6329(2)
C28_4 C 0.2179(4) 0.4280(3) 0.6481(2)
H12_4 H 0.2166 0.4233 0.6758
C29_4 C 0.2080(3) 0.3325(2) 0.64417(16)
C30_4 C 0.2126(3) 0.3452(2) 0.55420(17)
C31_4 C 0.2332(4) 0.5380(3) 0.57193(18)
C32_4 C 0.2765(4) 0.5672(3) 0.5813(2)
H13_4 H 0.2994 0.5560 0.6013
C33_4 C 0.2860(3) 0.6128(3) 0.5612(2)
H14_4 H 0.3163 0.6319 0.5672
C34_4 C 0.2519(3) 0.6319(3) 0.5319(2)
C35_4 C 0.2068(4) 0.6035(3) 0.5232(2)
H15_4 H 0.1829 0.6163 0.5044
C36_4 C 0.1970(4) 0.5564(3) 0.5424(2)
H16_4 H 0.1671 0.5369 0.5362
C37_4 C 0.2652(3) 0.6823(3) 0.5103(2)
C38_4 C 0.2262(4) 0.5215(3) 0.66296(19)
C39_4 C 0.2584(5) 0.5127(3) 0.6966(2)
H17_4 H 0.2781 0.4818 0.6985
C40_4 C 0.2610(4) 0.5500(3) 0.7273(2)
H18_4 H 0.2837 0.5448 0.7489
C41_4 C 0.2300(4) 0.5943(2) 0.72580(19)
C42_4 C 0.1982(4) 0.6039(3) 0.6915(2)
H19_4 H 0.1783 0.6346 0.6898
C43_4 C 0.1968(4) 0.5679(3) 0.6609(2)
H20_4 H 0.1760 0.5745 0.6385
C44_4 C 0.2293(3) 0.6324(3) 0.7603(2)
N1_4 N 0.0357(5) 0.1043(4) 0.6718(7)
O17_4 O 0.1025(2) 0.1588(2) 0.6648(2)
C45_4 C 0.0532(3) 0.1522(4) 0.6688(3)
H21_4 H 0.0303 0.1809 0.6695
C46_4 C 0.0654(6) 0.0553(9) 0.6635(8)
H22_4 H 0.0716 0.0364 0.6880
H23_4 H 0.0453 0.0336 0.6455
H24_4 H 0.0986 0.0640 0.6513
N2_4 N 0.0424(4) 0.2931(5) 0.5620(3)
O18_4 O 0.0718(2) 0.2552(3) 0.61895(18)
C48_4 C 0.0797(4) 0.2761(5) 0.5857(3)
H28_4 H 0.1144 0.2799 0.5772
C50_4 C 0.0558(5) 0.3206(6) 0.5234(3)
H32_4 H 0.0323 0.3087 0.5027
H33_4 H 0.0519 0.3580 0.5268
H34_4 H 0.0915 0.3127 0.5160
N3_4 N 0.3006(5) 0.7283(6) 0.6525(2)
O19_4 O 0.3395(3) 0.7302(3) 0.59258(16)
C51_4 C 0.3121(6) 0.7467(5) 0.6169(3)
H35_4 H 0.2954 0.7782 0.6102
C52_4 C 0.3250(6) 0.6734(6) 0.6652(4)
H36_4 H 0.3570 0.6675 0.6506
H37_4 H 0.3324 0.6736 0.6934
H38_4 H 0.3003 0.6458 0.6593
C53_4 C 0.2671(8) 0.7485(9) 0.6809(4)
H39_4 H 0.2313 0.7394 0.6744
H40_4 H 0.2760 0.7342 0.7067
H41_4 H 0.2707 0.7861 0.6815
O20_4 O 0.4191(2) 0.7279(3) 0.52709(18)
H42_4 H 0.4258 0.6951 0.5115
H43_4 H 0.4539 0.7390 0.5380
O21_4 O 0.3818(3) 0.8302(4) 0.5601(2)
H44_4 H 0.4100 0.8487 0.5495
H45_4 H 0.3730 0.8460 0.5842
Zn5_4 Zn 0.26711(3) 0.63814(3) 0.847769(19)
Zn7_2 Zn 0.23056(3) 0.73846(3) 0.788671(17)
O22_4 O 0.3112(3) 0.2539(3) 0.7293(2)
O23_4 O 0.2914(3) 0.3322(6) 0.7556(2)
O24_2 O 0.2711(2) 0.79922(18) 0.54371(13)
O28_4 O 0.1789(2) 0.2856(2) 0.74678(14)
O29_4 O 0.1130(2) 0.2537(3) 0.70748(14)
O5_4 O 0.2461(3) 0.8112(3) 0.7707(2)
O6_4 O 0.1678(6) 0.7914(3) 0.7444(2)
C9_4 C 0.2103(3) 0.9711(3) 0.6876(2)
C10_4 C 0.2476(4) 0.9605(3) 0.7178(2)
H3_4 H 0.2730 0.9853 0.7247
C11_4 C 0.2454(4) 0.9117(3) 0.7373(3)
H4_4 H 0.2702 0.9038 0.7570
C12_4 C 0.2072(4) 0.8751(3) 0.7279(3)
C13_4 C 0.1701(4) 0.8843(3) 0.6995(2)
H5_4 H 0.1445 0.8591 0.6940
C14_4 C 0.1706(4) 0.9338(3) 0.6779(3)
H6_4 H 0.1457 0.9408 0.6582
C15_4 C 0.2076(5) 0.8210(4) 0.7493(2)
C16_4 C 0.2200(4) 0.9755(2) 0.59795(19)
C17_4 C 0.2614(4) 0.9395(3) 0.6066(2)
H7_4 H 0.2838 0.9462 0.6281
C18_4 C 0.2689(4) 0.8956(3) 0.5840(2)
H8_4 H 0.2963 0.8725 0.5899
C19_4 C 0.2359(3) 0.8855(2) 0.55240(18)
C20_4 C 0.1973(4) 0.9203(3) 0.5413(3)
H9_4 H 0.1778 0.9141 0.5182
C21_4 C 0.1871(4) 0.9653(3) 0.5647(3)
H10_4 H 0.1594 0.9878 0.5585
C22_4 C 0.2441(3) 0.8346(3) 0.52782(19)
O13_3 O 0.20242(19) 0.2721(2) 0.00963(14)
Zn9_2 Zn 0.26943(3) 0.26407(3) 0.038307(17)
O26_3 O 0.30414(19) 0.14796(19) 0.01948(13)
Zn4_2 Zn 0.26636(4) 0.15419(3) 0.96486(2)
O14_5 O 0.1991(2) 0.1892(2) 0.98872(17)
C31_5 C 0.0380(3) 0.2668(4) 0.92807(18)
C32_5 C 0.0672(3) 0.2235(4) 0.9187(2)
H13_5 H 0.0560 0.2006 0.8987
C33_5 C 0.1128(3) 0.2140(3) 0.9388(2)
H14_5 H 0.1319 0.1837 0.9328
C34_5 C 0.1319(3) 0.2481(3) 0.9681(2)
C35_5 C 0.1035(3) 0.2932(4) 0.9768(2)
H15_5 H 0.1163 0.3171 0.9956
C36_5 C 0.0564(3) 0.3030(4) 0.9576(2)
H16_5 H 0.0369 0.3329 0.9638
C37_5 C 0.1823(3) 0.2348(3) 0.9897(2)
C38_5 C 0.0215(3) 0.2738(4) 0.83704(19)
C39_5 C 0.0127(3) 0.2416(5) 0.8034(2)
C40_5 C 0.0500(3) 0.2390(4) 0.7727(2)
H18_5 H 0.0448 0.2163 0.7511
C41_5 C 0.0943(2) 0.2700(4) 0.77420(19)
C42_5 C 0.1039(3) 0.3018(4) 0.8085(2)
H19_5 H 0.1346 0.3217 0.8102
C43_5 C 0.0679(3) 0.3032(4) 0.8391(2)
H20_5 H 0.0745 0.3240 0.8615
C44_5 C 0.1324(3) 0.2707(3) 0.7397(2)
N3_5 N 0.2283(6) 0.1994(5) 0.8475(2)
O19_5 O 0.2302(3) 0.1605(3) 0.90742(16)
C51_5 C 0.2467(5) 0.1879(6) 0.8831(3)
H35_5 H 0.2782 0.2046 0.8898
C52_5 C 0.1734(6) 0.1750(6) 0.8348(4)
H36_5 H 0.1675 0.1430 0.8494
H37_5 H 0.1736 0.1676 0.8066
H38_5 H 0.1458 0.1997 0.8407
C53_5 C 0.2485(9) 0.2329(8) 0.8191(4)
H39_5 H 0.2394 0.2687 0.8256
H40_5 H 0.2342 0.2240 0.7933
H41_5 H 0.2861 0.2293 0.8185
O20_5 O 0.2279(3) 0.0809(2) 0.97291(18)
H42_5 H 0.1951 0.0742 0.9885
H43_5 H 0.2390 0.0461 0.9620
O21_5 O 0.3302(4) 0.1182(3) 0.9399(2)
H44_5 H 0.3487 0.0900 0.9505
H45_5 H 0.3460 0.1270 0.9158
O24_3 O 0.29922(18) 0.2289(2) 0.95629(13)
O8_3 O 0.3322(2) 0.2767(2) 0.00616(15)
Zn11_3 Zn 0.84581(3) 0.26636(4) 0.03514(2)
Zn3_3 Zn 0.73593(3) 0.26943(3) 0.961693(17)
O1_5 O 0.70020(19) 0.3302(2) 0.89882(13)
O2_5 O 0.67420(19) 0.2554(2) 0.92570(14)
O3_5 O 0.71014(17) 0.28516(18) 0.82367(12)
O4_5 O 0.6581(2) 0.2770(3) 0.76959(14)
O9_5 O 0.8224(2) 0.2557(2) 0.83158(16)
O10_5 O 0.80693(18) 0.3339(2) 0.86164(14)
O11_5 O 0.80238(18) 0.2694(2) 0.93285(12)
O12_3 O 0.85204(19) 0.30414(19) 0.98052(13)
C1_5 C 0.6202(3) 0.2883(3) 0.87477(18)
C2_5 C 0.6181(3) 0.2850(3) 0.83258(19)
C3_5 C 0.5683(3) 0.2857(3) 0.81420(19)
H1_5 H 0.5667 0.2852 0.7864
C4_5 C 0.5214(3) 0.2872(3) 0.8356(2)
C5_5 C 0.5235(3) 0.2863(3) 0.87736(19)
C6_5 C 0.5726(3) 0.2882(3) 0.8958(2)
H2_5 H 0.5738 0.2894 0.9236
C7_5 C 0.6686(3) 0.2917(3) 0.90028(18)
C8_5 C 0.6640(3) 0.2833(3) 0.8060(2)
C9_5 C 0.4711(3) 0.2897(3) 0.8124(2)
C10_5 C 0.4605(3) 0.2524(4) 0.7822(2)
H3_5 H 0.4853 0.2270 0.7753
C11_5 C 0.4117(3) 0.2546(4) 0.7627(3)
H4_5 H 0.4038 0.2298 0.7430
C12_5 C 0.3751(3) 0.2928(4) 0.7721(3)
C13_5 C 0.3843(3) 0.3299(4) 0.8005(2)
H5_5 H 0.3591 0.3555 0.8060
C14_5 C 0.4338(3) 0.3294(4) 0.8221(3)
H6_5 H 0.4408 0.3543 0.8418
C15_5 C 0.3210(4) 0.2924(5) 0.7507(2)
C16_5 C 0.4755(2) 0.2800(4) 0.90205(19)
C17_5 C 0.4395(3) 0.2386(4) 0.8934(2)
H7_5 H 0.4462 0.2162 0.8719
C18_5 C 0.3956(3) 0.2311(4) 0.9160(2)
H8_5 H 0.3725 0.2037 0.9101
C19_5 C 0.3855(2) 0.2641(3) 0.94760(18)
C20_5 C 0.4203(3) 0.3027(4) 0.9587(3)
H9_5 H 0.4141 0.3222 0.9818
C21_5 C 0.4653(3) 0.3129(4) 0.9353(3)
H10_5 H 0.4878 0.3406 0.9415
C22_5 C 0.3346(3) 0.2559(3) 0.97218(19)
C23_5 C 0.8830(2) 0.2861(3) 0.87711(18)
C24_5 C 0.8913(3) 0.2865(3) 0.91792(17)
C25_5 C 0.9422(3) 0.2828(3) 0.93307(18)
H11_5 H 0.9472 0.2829 0.9607
C26_5 C 0.9851(3) 0.2789(3) 0.9086(2)
C27_5 C 0.9789(3) 0.2763(4) 0.8671(2)
C28_5 C 0.9280(3) 0.2821(4) 0.8519(2)
H12_5 H 0.9233 0.2834 0.8242
C29_5 C 0.8325(2) 0.2920(3) 0.85583(16)
C30_5 C 0.8452(2) 0.2874(3) 0.94580(17)
H17_5 H 0.9818 0.2219 0.8015
N1_5 N 0.6043(4) 0.4643(5) 0.8282(7)
O17_5 O 0.6588(2) 0.3975(2) 0.8352(2)
C45_5 C 0.6522(4) 0.4468(3) 0.8312(3)
H21_5 H 0.6809 0.4697 0.8305
C46_5 C 0.5553(9) 0.4346(6) 0.8365(8)
H22_5 H 0.5364 0.4284 0.8120
H23_5 H 0.5336 0.4547 0.8545
H24_5 H 0.5640 0.4014 0.8487
C47_2 C 0.6003(7) 0.5248(6) 0.8305(10)
H25_2 H 0.5802 0.5353 0.8536
H26_2 H 0.5831 0.5371 0.8066
H27_2 H 0.6350 0.5397 0.8321
N2_5 N 0.7931(5) 0.4576(4) 0.9380(3)
O18_5 O 0.7552(3) 0.4282(2) 0.88105(18)
C48_5 C 0.7761(5) 0.4203(4) 0.9143(3)
H28_5 H 0.7799 0.3856 0.9228
C49_2 C 0.7813(9) 0.5117(4) 0.9302(7)
H29_2 H 0.7744 0.5163 0.9021
H30_2 H 0.8108 0.5332 0.9379
H31_2 H 0.7508 0.5220 0.9453
C50_5 C 0.8206(6) 0.4442(5) 0.9766(3)
H32_5 H 0.8087 0.4677 0.9973
H33_5 H 0.8580 0.4481 0.9732
H34_5 H 0.8127 0.4085 0.9840
O25_3 O 0.7233(2) 0.3322(2) 0.99384(15)
O27_3 O 0.7279(2) 0.20242(19) 0.99037(14)
O8_4 O 0.6678(2) 0.7233(2) 0.00616(15)
Zn8_2 Zn 0.73057(3) 0.73593(3) 0.038307(17)
Zn11_4 Zn 0.15419(3) 0.73364(4) 0.03514(2)
Zn3_4 Zn 0.26407(3) 0.73057(3) 0.961693(17)
O1_6 O 0.29980(19) 0.6698(2) 0.89882(13)
O2_6 O 0.32580(19) 0.7446(2) 0.92570(14)
O3_6 O 0.28986(17) 0.71484(18) 0.82367(12)
O4_6 O 0.3419(2) 0.7230(3) 0.76959(14)
O7_3 O 0.70078(18) 0.7711(2) 0.95629(13)
O9_6 O 0.1776(2) 0.7443(2) 0.83158(16)
O10_6 O 0.19307(18) 0.6661(2) 0.86164(14)
O11_6 O 0.19762(18) 0.7306(2) 0.93285(12)
O12_4 O 0.14796(19) 0.69586(19) 0.98052(13)
C1_6 C 0.3798(3) 0.7117(3) 0.87477(18)
C2_6 C 0.3819(3) 0.7150(3) 0.83258(19)
C3_6 C 0.4317(3) 0.7143(3) 0.81420(19)
H1_6 H 0.4333 0.7148 0.7864
C4_6 C 0.4786(3) 0.7128(3) 0.8356(2)
C5_6 C 0.4765(3) 0.7137(3) 0.87736(19)
C6_6 C 0.4274(3) 0.7118(3) 0.8958(2)
H2_6 H 0.4262 0.7106 0.9236
C7_6 C 0.3314(3) 0.7083(3) 0.90028(18)
C8_6 C 0.3360(3) 0.7167(3) 0.8060(2)
C9_6 C 0.5289(3) 0.7103(3) 0.8124(2)
C10_6 C 0.5395(3) 0.7476(4) 0.7822(2)
H3_6 H 0.5147 0.7730 0.7753
C11_6 C 0.5883(3) 0.7454(4) 0.7627(3)
H4_6 H 0.5962 0.7702 0.7430
C12_6 C 0.6249(3) 0.7072(4) 0.7721(3)
C13_6 C 0.6157(3) 0.6701(4) 0.8005(2)
H5_6 H 0.6409 0.6445 0.8060
C14_6 C 0.5662(3) 0.6706(4) 0.8221(3)
H6_6 H 0.5592 0.6457 0.8418
C15_6 C 0.6790(4) 0.7076(5) 0.7507(2)
C16_6 C 0.5245(2) 0.7200(4) 0.90205(19)
C17_6 C 0.5605(3) 0.7614(4) 0.8934(2)
H7_6 H 0.5538 0.7838 0.8719
C18_6 C 0.6044(3) 0.7689(4) 0.9160(2)
H8_6 H 0.6275 0.7963 0.9101
C19_6 C 0.6145(2) 0.7359(3) 0.94760(18)
C20_6 C 0.5797(3) 0.6973(4) 0.9587(3)
H9_6 H 0.5859 0.6778 0.9818
C21_6 C 0.5347(3) 0.6871(4) 0.9353(3)
H10_6 H 0.5122 0.6594 0.9415
C22_6 C 0.6654(3) 0.7441(3) 0.97218(19)
C23_6 C 0.1170(2) 0.7139(3) 0.87711(18)
C24_6 C 0.1087(3) 0.7135(3) 0.91792(17)
C25_6 C 0.0578(3) 0.7172(3) 0.93307(18)
H11_6 H 0.0528 0.7171 0.9607
C26_6 C 0.0149(3) 0.7211(3) 0.9086(2)
C27_6 C 0.0211(3) 0.7237(4) 0.8671(2)
C28_6 C 0.0720(3) 0.7179(4) 0.8519(2)
H12_6 H 0.0767 0.7166 0.8242
C29_6 C 0.1675(2) 0.7080(3) 0.85583(16)
C30_6 C 0.1548(2) 0.7126(3) 0.94580(17)
H17_6 H 0.0182 0.7781 0.8015
N1_6 N 0.3957(4) 0.5357(5) 0.8282(7)
O17_6 O 0.3412(2) 0.6025(2) 0.8352(2)
C45_6 C 0.3478(4) 0.5532(3) 0.8312(3)
H21_6 H 0.3191 0.5303 0.8305
C46_6 C 0.4447(9) 0.5654(6) 0.8365(8)
H22_6 H 0.4636 0.5716 0.8120
H23_6 H 0.4664 0.5453 0.8545
H24_6 H 0.4360 0.5986 0.8487
C47_3 C 0.3997(7) 0.4752(6) 0.8305(10)
H25_3 H 0.4198 0.4647 0.8536
H26_3 H 0.4169 0.4629 0.8066
H27_3 H 0.3650 0.4603 0.8321
N2_6 N 0.2069(5) 0.5424(4) 0.9380(3)
O18_6 O 0.2448(3) 0.5718(2) 0.88105(18)
C48_6 C 0.2239(5) 0.5797(4) 0.9143(3)
H28_6 H 0.2201 0.6144 0.9228
C49_3 C 0.2187(9) 0.4883(4) 0.9302(7)
H29_3 H 0.2256 0.4837 0.9021
H30_3 H 0.1892 0.4668 0.9379
H31_3 H 0.2492 0.4780 0.9453
C50_6 C 0.1794(6) 0.5558(5) 0.9766(3)
H32_6 H 0.1913 0.5323 0.9973
H33_6 H 0.1420 0.5519 0.9732
H34_6 H 0.1873 0.5915 0.9840
Zn10_2 Zn 0.73364(4) 0.84581(3) 0.96486(2)
O25_4 O 0.2767(2) 0.6678(2) 0.99384(15)
O27_4 O 0.2721(2) 0.79758(19) 0.99037(14)
O13_4 O 0.79758(19) 0.7279(2) 0.00963(14)
O26_4 O 0.69586(19) 0.85204(19) 0.01948(13)
O14_6 O 0.8009(2) 0.8108(2) 0.98872(17)
C31_6 C 0.9620(3) 0.7332(4) 0.92807(18)
C32_6 C 0.9328(3) 0.7765(4) 0.9187(2)
H13_6 H 0.9440 0.7994 0.8987
C33_6 C 0.8872(3) 0.7860(3) 0.9388(2)
H14_6 H 0.8681 0.8163 0.9328
C34_6 C 0.8681(3) 0.7519(3) 0.9681(2)
C35_6 C 0.8965(3) 0.7068(4) 0.9768(2)
H15_6 H 0.8837 0.6829 0.9956
C36_6 C 0.9436(3) 0.6970(4) 0.9576(2)
H16_6 H 0.9631 0.6671 0.9638
C37_6 C 0.8177(3) 0.7652(3) 0.9897(2)
C38_6 C 0.9785(3) 0.7262(4) 0.83704(19)
C39_6 C 0.9873(3) 0.7584(5) 0.8034(2)
C40_6 C 0.9500(3) 0.7610(4) 0.7727(2)
H18_6 H 0.9552 0.7837 0.7511
C41_6 C 0.9057(2) 0.7300(4) 0.77420(19)
C42_6 C 0.8961(3) 0.6982(4) 0.8085(2)
H19_6 H 0.8654 0.6783 0.8102
C43_6 C 0.9321(3) 0.6968(4) 0.8391(2)
H20_6 H 0.9255 0.6760 0.8615
C44_6 C 0.8676(3) 0.7293(3) 0.7397(2)
N3_6 N 0.7717(6) 0.8006(5) 0.8475(2)
O19_6 O 0.7698(3) 0.8395(3) 0.90742(16)
C51_6 C 0.7533(5) 0.8121(6) 0.8831(3)
H35_6 H 0.7218 0.7954 0.8898
C52_6 C 0.8266(6) 0.8250(6) 0.8348(4)
H36_6 H 0.8325 0.8570 0.8494
H37_6 H 0.8264 0.8324 0.8066
H38_6 H 0.8542 0.8003 0.8407
C53_6 C 0.7515(9) 0.7671(8) 0.8191(4)
H39_6 H 0.7606 0.7313 0.8256
H40_6 H 0.7658 0.7760 0.7933
H41_6 H 0.7139 0.7707 0.8185
O20_6 O 0.7721(3) 0.9191(2) 0.97291(18)
H42_6 H 0.8049 0.9258 0.9885
H43_6 H 0.7610 0.9539 0.9620
O21_6 O 0.6698(4) 0.8818(3) 0.9399(2)
H44_6 H 0.6513 0.9100 0.9505
H45_6 H 0.6540 0.8730 0.9158
O1_7 O 0.3302(2) 0.29980(19) 0.10118(13)
O2_7 O 0.2554(2) 0.32580(19) 0.07430(14)
O3_7 O 0.28516(18) 0.28986(17) 0.17633(12)
O4_7 O 0.2770(3) 0.3419(2) 0.23041(14)
O7_4 O 0.2289(2) 0.70078(18) 0.04371(13)
O9_7 O 0.2557(2) 0.1776(2) 0.16842(16)
O10_7 O 0.3339(2) 0.19307(18) 0.13836(14)
O11_7 O 0.2694(2) 0.19762(18) 0.06715(12)
C1_7 C 0.2883(3) 0.3798(3) 0.12523(18)
C2_7 C 0.2850(3) 0.3819(3) 0.16742(19)
C3_7 C 0.2857(3) 0.4317(3) 0.18580(19)
H1_7 H 0.2852 0.4333 0.2136
C4_7 C 0.2872(3) 0.4786(3) 0.1644(2)
C5_7 C 0.2863(3) 0.4765(3) 0.12264(19)
C6_7 C 0.2882(3) 0.4274(3) 0.1042(2)
H2_7 H 0.2894 0.4262 0.0764
C7_7 C 0.2917(3) 0.3314(3) 0.09972(18)
C8_7 C 0.2833(3) 0.3360(3) 0.1940(2)
C9_7 C 0.2897(3) 0.5289(3) 0.1876(2)
C10_7 C 0.2524(4) 0.5395(3) 0.2178(2)
H3_7 H 0.2270 0.5147 0.2247
C11_7 C 0.2546(4) 0.5883(3) 0.2373(3)
H4_7 H 0.2298 0.5962 0.2570
C12_7 C 0.2928(4) 0.6249(3) 0.2279(3)
C13_7 C 0.3299(4) 0.6157(3) 0.1995(2)
H5_7 H 0.3555 0.6409 0.1940
C14_7 C 0.3294(4) 0.5662(3) 0.1779(3)
H6_7 H 0.3543 0.5592 0.1582
C15_7 C 0.2924(5) 0.6790(4) 0.2493(2)
C16_7 C 0.2800(4) 0.5245(2) 0.09795(19)
C17_7 C 0.2386(4) 0.5605(3) 0.1066(2)
H7_7 H 0.2162 0.5538 0.1281
C18_7 C 0.2311(4) 0.6044(3) 0.0840(2)
H8_7 H 0.2037 0.6275 0.0899
C19_7 C 0.2641(3) 0.6145(2) 0.05240(18)
C20_7 C 0.3027(4) 0.5797(3) 0.0413(3)
H9_7 H 0.3222 0.5859 0.0182
C21_7 C 0.3129(4) 0.5347(3) 0.0647(3)
H10_7 H 0.3406 0.5122 0.0585
C22_7 C 0.2559(3) 0.6654(3) 0.02782(19)
C23_7 C 0.2861(3) 0.1170(2) 0.12289(18)
C24_7 C 0.2865(3) 0.1087(3) 0.08208(17)
C25_7 C 0.2828(3) 0.0578(3) 0.06693(18)
H11_7 H 0.2829 0.0528 0.0393
C26_7 C 0.2789(3) 0.0149(3) 0.0914(2)
C27_7 C 0.2763(4) 0.0211(3) 0.1329(2)
C28_7 C 0.2821(4) 0.0720(3) 0.1481(2)
H12_7 H 0.2834 0.0767 0.1758
C29_7 C 0.2920(3) 0.1675(2) 0.14417(16)
C30_7 C 0.2874(3) 0.1548(2) 0.05420(17)
H17_7 H 0.2219 0.0182 0.1985
N1_7 N 0.4643(5) 0.3957(4) 0.1718(7)
O17_7 O 0.3975(2) 0.3412(2) 0.1648(2)
C45_7 C 0.4468(3) 0.3478(4) 0.1688(3)
H21_7 H 0.4697 0.3191 0.1695
C46_7 C 0.4346(6) 0.4447(9) 0.1635(8)
H22_7 H 0.4284 0.4636 0.1880
H23_7 H 0.4547 0.4664 0.1455
H24_7 H 0.4014 0.4360 0.1513
C47_4 C 0.5248(6) 0.3997(7) 0.1695(10)
H25_4 H 0.5353 0.4198 0.1464
H26_4 H 0.5371 0.4169 0.1934
H27_4 H 0.5397 0.3650 0.1679
N2_7 N 0.4576(4) 0.2069(5) 0.0620(3)
O18_7 O 0.4282(2) 0.2448(3) 0.11895(18)
C48_7 C 0.4203(4) 0.2239(5) 0.0857(3)
H28_7 H 0.3856 0.2201 0.0772
C49_4 C 0.5117(4) 0.2187(9) 0.0698(7)
H29_4 H 0.5163 0.2256 0.0979
H30_4 H 0.5332 0.1892 0.0621
H31_4 H 0.5220 0.2492 0.0547
C50_7 C 0.4442(5) 0.1794(6) 0.0234(3)
H32_7 H 0.4677 0.1913 0.0027
H33_7 H 0.4481 0.1420 0.0268
H34_7 H 0.4085 0.1873 0.0160
O14_7 O 0.1892(2) 0.8009(2) 0.01128(17)
C31_7 C 0.2668(4) 0.9620(3) 0.07193(18)
C32_7 C 0.2235(4) 0.9328(3) 0.0813(2)
H13_7 H 0.2006 0.9440 0.1013
C33_7 C 0.2140(3) 0.8872(3) 0.0612(2)
H14_7 H 0.1837 0.8681 0.0672
C34_7 C 0.2481(3) 0.8681(3) 0.0319(2)
C35_7 C 0.2932(4) 0.8965(3) 0.0232(2)
H15_7 H 0.3171 0.8837 0.0044
C36_7 C 0.3030(4) 0.9436(3) 0.0424(2)
H16_7 H 0.3329 0.9631 0.0362
C37_7 C 0.2348(3) 0.8177(3) 0.0103(2)
C38_7 C 0.2738(4) 0.9785(3) 0.16296(19)
C39_7 C 0.2416(5) 0.9873(3) 0.1966(2)
C40_7 C 0.2390(4) 0.9500(3) 0.2273(2)
H18_7 H 0.2163 0.9552 0.2489
C41_7 C 0.2700(4) 0.9057(2) 0.22580(19)
C42_7 C 0.3018(4) 0.8961(3) 0.1915(2)
H19_7 H 0.3217 0.8654 0.1898
C43_7 C 0.3032(4) 0.9321(3) 0.1609(2)
H20_7 H 0.3240 0.9255 0.1385
C44_7 C 0.2707(3) 0.8676(3) 0.2603(2)
N3_7 N 0.1994(5) 0.7717(6) 0.1525(2)
O19_7 O 0.1605(3) 0.7698(3) 0.09258(16)
C51_7 C 0.1879(6) 0.7533(5) 0.1169(3)
H35_7 H 0.2046 0.7218 0.1102
C52_7 C 0.1750(6) 0.8266(6) 0.1652(4)
H36_7 H 0.1430 0.8325 0.1506
H37_7 H 0.1676 0.8264 0.1934
H38_7 H 0.1997 0.8542 0.1593
C53_7 C 0.2329(8) 0.7515(9) 0.1809(4)
H39_7 H 0.2687 0.7606 0.1744
H40_7 H 0.2240 0.7658 0.2067
H41_7 H 0.2293 0.7139 0.1815
O20_7 O 0.0809(2) 0.7721(3) 0.02709(18)
H42_7 H 0.0742 0.8049 0.0115
H43_7 H 0.0461 0.7610 0.0380
O21_7 O 0.1182(3) 0.6698(4) 0.0601(2)
H44_7 H 0.0900 0.6513 0.0495
H45_7 H 0.1270 0.6540 0.0842
O14_8 O 0.8108(2) 0.1991(2) 0.01128(17)
C31_8 C 0.7332(4) 0.0380(3) 0.07193(18)
C32_8 C 0.7765(4) 0.0672(3) 0.0813(2)
H13_8 H 0.7994 0.0560 0.1013
C33_8 C 0.7860(3) 0.1128(3) 0.0612(2)
H14_8 H 0.8163 0.1319 0.0672
C34_8 C 0.7519(3) 0.1319(3) 0.0319(2)
C35_8 C 0.7068(4) 0.1035(3) 0.0232(2)
H15_8 H 0.6829 0.1163 0.0044
C36_8 C 0.6970(4) 0.0564(3) 0.0424(2)
H16_8 H 0.6671 0.0369 0.0362
C37_8 C 0.7652(3) 0.1823(3) 0.0103(2)
C38_8 C 0.7262(4) 0.0215(3) 0.16296(19)
C39_8 C 0.7584(5) 0.0127(3) 0.1966(2)
C40_8 C 0.7610(4) 0.0500(3) 0.2273(2)
H18_8 H 0.7837 0.0448 0.2489
C41_8 C 0.7300(4) 0.0943(2) 0.22580(19)
C42_8 C 0.6982(4) 0.1039(3) 0.1915(2)
H19_8 H 0.6783 0.1346 0.1898
C43_8 C 0.6968(4) 0.0679(3) 0.1609(2)
H20_8 H 0.6760 0.0745 0.1385
C44_8 C 0.7293(3) 0.1324(3) 0.2603(2)
N3_8 N 0.8006(5) 0.2283(6) 0.1525(2)
O19_8 O 0.8395(3) 0.2302(3) 0.09258(16)
C51_8 C 0.8121(6) 0.2467(5) 0.1169(3)
H35_8 H 0.7954 0.2782 0.1102
C52_8 C 0.8250(6) 0.1734(6) 0.1652(4)
H36_8 H 0.8570 0.1675 0.1506
H37_8 H 0.8324 0.1736 0.1934
H38_8 H 0.8003 0.1458 0.1593
C53_8 C 0.7671(8) 0.2485(9) 0.1809(4)
H39_8 H 0.7313 0.2394 0.1744
H40_8 H 0.7760 0.2342 0.2067
H41_8 H 0.7707 0.2861 0.1815
O20_8 O 0.9191(2) 0.2279(3) 0.02709(18)
H42_8 H 0.9258 0.1951 0.0115
H43_8 H 0.9539 0.2390 0.0380
O21_8 O 0.8818(3) 0.3302(4) 0.0601(2)
H44_8 H 0.9100 0.3487 0.0495
H45_8 H 0.8730 0.3460 0.0842
O24_4 O 0.7711(2) 0.29922(18) 0.04371(13)
O1_8 O 0.6698(2) 0.70020(19) 0.10118(13)
O2_8 O 0.7446(2) 0.67420(19) 0.07430(14)
O3_8 O 0.71484(18) 0.71014(17) 0.17633(12)
O4_8 O 0.7230(3) 0.6581(2) 0.23041(14)
O9_8 O 0.7443(2) 0.8224(2) 0.16842(16)
O10_8 O 0.6661(2) 0.80693(18) 0.13836(14)
O11_8 O 0.7306(2) 0.80238(18) 0.06715(12)
C1_8 C 0.7117(3) 0.6202(3) 0.12523(18)
C2_8 C 0.7150(3) 0.6181(3) 0.16742(19)
C3_8 C 0.7143(3) 0.5683(3) 0.18580(19)
H1_8 H 0.7148 0.5667 0.2136
C4_8 C 0.7128(3) 0.5214(3) 0.1644(2)
C5_8 C 0.7137(3) 0.5235(3) 0.12264(19)
C6_8 C 0.7118(3) 0.5726(3) 0.1042(2)
H2_8 H 0.7106 0.5738 0.0764
C7_8 C 0.7083(3) 0.6686(3) 0.09972(18)
C8_8 C 0.7167(3) 0.6640(3) 0.1940(2)
C9_8 C 0.7103(3) 0.4711(3) 0.1876(2)
C10_8 C 0.7476(4) 0.4605(3) 0.2178(2)
H3_8 H 0.7730 0.4853 0.2247
C11_8 C 0.7454(4) 0.4117(3) 0.2373(3)
H4_8 H 0.7702 0.4038 0.2570
C12_8 C 0.7072(4) 0.3751(3) 0.2279(3)
C13_8 C 0.6701(4) 0.3843(3) 0.1995(2)
H5_8 H 0.6445 0.3591 0.1940
C14_8 C 0.6706(4) 0.4338(3) 0.1779(3)
H6_8 H 0.6457 0.4408 0.1582
C15_8 C 0.7076(5) 0.3210(4) 0.2493(2)
C16_8 C 0.7200(4) 0.4755(2) 0.09795(19)
C17_8 C 0.7614(4) 0.4395(3) 0.1066(2)
H7_8 H 0.7838 0.4462 0.1281
C18_8 C 0.7689(4) 0.3956(3) 0.0840(2)
H8_8 H 0.7963 0.3725 0.0899
C19_8 C 0.7359(3) 0.3855(2) 0.05240(18)
C20_8 C 0.6973(4) 0.4203(3) 0.0413(3)
H9_8 H 0.6778 0.4141 0.0182
C21_8 C 0.6871(4) 0.4653(3) 0.0647(3)
H10_8 H 0.6594 0.4878 0.0585
C22_8 C 0.7441(3) 0.3346(3) 0.02782(19)
C23_8 C 0.7139(3) 0.8830(2) 0.12289(18)
C24_8 C 0.7135(3) 0.8913(3) 0.08208(17)
C25_8 C 0.7172(3) 0.9422(3) 0.06693(18)
H11_8 H 0.7171 0.9472 0.0393
C26_8 C 0.7211(3) 0.9851(3) 0.0914(2)
C27_8 C 0.7237(4) 0.9789(3) 0.1329(2)
C28_8 C 0.7179(4) 0.9280(3) 0.1481(2)
H12_8 H 0.7166 0.9233 0.1758
C29_8 C 0.7080(3) 0.8325(2) 0.14417(16)
C30_8 C 0.7126(3) 0.8452(2) 0.05420(17)
H17_8 H 0.7781 0.9818 0.1985
N1_8 N 0.5357(5) 0.6043(4) 0.1718(7)
O17_8 O 0.6025(2) 0.6588(2) 0.1648(2)
C45_8 C 0.5532(3) 0.6522(4) 0.1688(3)
H21_8 H 0.5303 0.6809 0.1695
C46_8 C 0.5654(6) 0.5553(9) 0.1635(8)
H22_8 H 0.5716 0.5364 0.1880
H23_8 H 0.5453 0.5336 0.1455
H24_8 H 0.5986 0.5640 0.1513
C47_5 C 0.4752(6) 0.6003(7) 0.1695(10)
H25_5 H 0.4647 0.5802 0.1464
H26_5 H 0.4629 0.5831 0.1934
H27_5 H 0.4603 0.6350 0.1679
N2_8 N 0.5424(4) 0.7931(5) 0.0620(3)
O18_8 O 0.5718(2) 0.7552(3) 0.11895(18)
C48_8 C 0.5797(4) 0.7761(5) 0.0857(3)
H28_8 H 0.6144 0.7799 0.0772
C49_5 C 0.4883(4) 0.7813(9) 0.0698(7)
H29_5 H 0.4837 0.7744 0.0979
H30_5 H 0.4668 0.8108 0.0621
H31_5 H 0.4780 0.7508 0.0547
C50_8 C 0.5558(5) 0.8206(6) 0.0234(3)
H32_8 H 0.5323 0.8087 0.0027
H33_8 H 0.5519 0.8580 0.0268
H34_8 H 0.5915 0.8127 0.0160
C47_6 C 0.8997(7) 0.9752(6) 0.3305(10)
H25_6 H 0.9198 0.9647 0.3536
H26_6 H 0.9169 0.9629 0.3066
H27_6 H 0.8650 0.9603 0.3321
C49_6 C 0.7187(9) 0.9883(4) 0.4302(7)
H29_6 H 0.7256 0.9837 0.4021
H30_6 H 0.6892 0.9668 0.4379
H31_6 H 0.7492 0.9780 0.4453
C47_7 C 0.0248(6) 0.8997(7) 0.6695(10)
H25_7 H 0.0353 0.9198 0.6464
H26_7 H 0.0371 0.9169 0.6934
H27_7 H 0.0397 0.8650 0.6679
C49_7 C 0.0117(4) 0.7187(9) 0.5698(7)
H29_7 H 0.0163 0.7256 0.5979
H30_7 H 0.0332 0.6892 0.5621
H31_7 H 0.0220 0.7492 0.5547
C47_8 C 0.9752(6) 0.1003(7) 0.6695(10)
H25_8 H 0.9647 0.0802 0.6464
H26_8 H 0.9629 0.0831 0.6934
H27_8 H 0.9603 0.1350 0.6679
C49_8 C 0.9883(4) 0.2813(9) 0.5698(7)
H29_8 H 0.9837 0.2744 0.5979
H30_8 H 0.9668 0.3108 0.5621
H31_8 H 0.9780 0.2508 0.5547
loop_
_geom_bond_atom_site_label_1
_geom_bond_atom_site_label_2
_geom_bond_site_symmetry_1
_geom_bond_site_symmetry_2
H25 C47 1_555 1_555
H26 C47 1_555 1_555
H27 C47 1_555 1_555
H29 C49 1_555 1_555
H30 C49 1_555 1_555
H31 C49 1_555 1_555
Zn1 O1 1_555 1_555
Zn2 O3 1_555 1_555
Zn3 O2 1_555 1_555
Zn4 O14 1_555 1_555
O1 C7 1_555 1_555
O2 C7 1_555 1_555
O3 Zn1 1_555 1_555
O4 C8 1_555 1_555
O9 Zn2 1_555 1_555
O10 Zn1 1_555 1_555
O11 Zn3 1_555 1_555
O12 C30 1_555 1_555
O13 C37 1_555 1_555
O14 C37 1_555 1_555
O15 C44 1_555 1_555
O16 C44 1_555 1_555
C1 C2 1_555 1_555
C2 C3 1_555 1_555
C3 H1 1_555 1_555
C4 C3 1_555 1_555
C5 C4 1_555 1_555
C6 C1 1_555 1_555
H2 C6 1_555 1_555
C7 C1 1_555 1_555
C8 O3 1_555 1_555
C23 C24 1_555 1_555
C24 C25 1_555 1_555
C25 H11 1_555 1_555
C26 C25 1_555 1_555
C27 C26 1_555 1_555
C28 C23 1_555 1_555
H12 C28 1_555 1_555
C29 O9 1_555 1_555
C30 O11 1_555 1_555
C31 C26 1_555 1_555
C32 C31 1_555 1_555
H13 C32 1_555 1_555
C33 C32 1_555 1_555
H14 C33 1_555 1_555
C34 C33 1_555 1_555
C35 C34 1_555 1_555
H15 C35 1_555 1_555
C36 C31 1_555 1_555
H16 C36 1_555 1_555
C37 C34 1_555 1_555
C38 C27 1_555 1_555
C39 C38 1_555 1_555
H17 C39 1_555 1_555
C40 C39 1_555 1_555
H18 C40 1_555 1_555
C41 C40 1_555 1_555
C42 C41 1_555 1_555
H19 C42 1_555 1_555
C43 C38 1_555 1_555
H20 C43 1_555 1_555
C44 C41 1_555 1_555
N1 C45 1_555 1_555
O17 Zn1 1_555 1_555
C45 O17 1_555 1_555
H21 C45 1_555 1_555
C46 N1 1_555 1_555
H22 C46 1_555 1_555
H23 C46 1_555 1_555
H24 C46 1_555 1_555
N2 C48 1_555 1_555
O18 Zn1 1_555 1_555
C48 O18 1_555 1_555
H28 C48 1_555 1_555
C50 N2 1_555 1_555
H32 C50 1_555 1_555
H33 C50 1_555 1_555
H34 C50 1_555 1_555
N3 C51 1_555 1_555
O19 Zn4 1_555 1_555
C51 O19 1_555 1_555
H35 C51 1_555 1_555
C52 N3 1_555 1_555
H36 C52 1_555 1_555
H37 C52 1_555 1_555
H38 C52 1_555 1_555
C53 N3 1_555 1_555
H39 C53 1_555 1_555
H40 C53 1_555 1_555
H41 C53 1_555 1_555
O20 Zn4 1_555 1_555
H42 O20 1_555 1_555
H43 O20 1_555 1_555
O21 Zn4 1_555 1_555
H44 O21 1_555 1_555
H45 O21 1_555 1_555
Zn5 O16 1_555 1_555
Zn7 O15 1_555 1_555
Zn9 O13 1_555 1_555
Zn11 O12 1_555 1_555
O22 Zn2 1_555 1_555
O23 Zn2 1_555 1_555
O24 Zn4 1_555 1_555
O25 Zn3 1_555 1_555
O26 Zn4 1_555 1_555
O27 Zn3 1_555 1_555
O28 Zn2 1_555 1_555
O29 Zn1 1_555 1_555
O10 C29 1_555 1_555
C2 C8 1_555 1_555
C5 C6 1_555 1_555
C23 C29 1_555 1_555
C24 C30 1_555 1_555
C27 C28 1_555 1_555
C35 C36 1_555 1_555
C42 C43 1_555 1_555
O5 C15 1_555 1_555
O6 C15 1_555 1_555
O24 C22 1_555 1_555
O8 C22 1_555 1_555
C10 C9 1_555 1_555
H3 C10 1_555 1_555
C11 C10 1_555 1_555
H4 C11 1_555 1_555
C12 C11 1_555 1_555
C13 C12 1_555 1_555
H5 C13 1_555 1_555
C14 C9 1_555 1_555
H6 C14 1_555 1_555
C15 C12 1_555 1_555
C17 C16 1_555 1_555
H7 C17 1_555 1_555
C18 C17 1_555 1_555
H8 C18 1_555 1_555
C19 C18 1_555 1_555
C20 C19 1_555 1_555
H9 C20 1_555 1_555
C21 C16 1_555 1_555
H10 C21 1_555 1_555
C22 C19 1_555 1_555
Zn7 O5 1_555 1_555
Zn9 O8 1_555 1_555
O6 Zn7 1_555 1_555
C13 C14 1_555 1_555
C20 C21 1_555 1_555
O5_2 C15_2 1_555 1_555
O6_2 C15_2 1_555 1_555
O7 C22_2 1_555 1_555
O8_2 C22_2 1_555 1_555
C10_2 C9_2 1_555 1_555
H3_2 C10_2 1_555 1_555
C11_2 C10_2 1_555 1_555
H4_2 C11_2 1_555 1_555
C12_2 C11_2 1_555 1_555
C13_2 C12_2 1_555 1_555
H5_2 C13_2 1_555 1_555
C14_2 C9_2 1_555 1_555
H6_2 C14_2 1_555 1_555
C15_2 C12_2 1_555 1_555
C17_2 C16_2 1_555 1_555
H7_2 C17_2 1_555 1_555
C18_2 C17_2 1_555 1_555
H8_2 C18_2 1_555 1_555
C19_2 C18_2 1_555 1_555
C20_2 C19_2 1_555 1_555
H9_2 C20_2 1_555 1_555
C21_2 C16_2 1_555 1_555
H10_2 C21_2 1_555 1_555
C22_2 C19_2 1_555 1_555
Zn6 O5_2 1_555 1_555
Zn8 O8_2 1_555 1_555
Zn10 O7 1_555 1_555
O6_2 Zn6 1_555 1_555
C13_2 C14_2 1_555 1_555
C20_2 C21_2 1_555 1_555
Zn1_2 O1_2 1_555 1_555
Zn2_2 O3_2 1_555 1_555
Zn3_2 O2_2 1_555 1_555
Zn10 O14_2 1_555 1_555
O1_2 C7_2 1_555 1_555
O2_2 C7_2 1_555 1_555
O3_2 Zn1_2 1_555 1_555
O4_2 C8_2 1_555 1_555
O9_2 Zn2_2 1_555 1_555
O10_2 Zn1_2 1_555 1_555
O11_2 Zn3_2 1_555 1_555
O12_2 C30_2 1_555 1_555
O13_2 C37_2 1_555 1_555
O14_2 C37_2 1_555 1_555
O15_2 C44_2 1_555 1_555
O16_2 C44_2 1_555 1_555
C1_2 C2_2 1_555 1_555
C2_2 C3_2 1_555 1_555
C3_2 H1_2 1_555 1_555
C4_2 C3_2 1_555 1_555
C5_2 C4_2 1_555 1_555
C6_2 C1_2 1_555 1_555
H2_2 C6_2 1_555 1_555
C7_2 C1_2 1_555 1_555
C8_2 O3_2 1_555 1_555
C23_2 C24_2 1_555 1_555
C24_2 C25_2 1_555 1_555
C25_2 H11_2 1_555 1_555
C26_2 C25_2 1_555 1_555
C27_2 C26_2 1_555 1_555
C28_2 C23_2 1_555 1_555
H12_2 C28_2 1_555 1_555
C29_2 O9_2 1_555 1_555
C30_2 O11_2 1_555 1_555
C31_2 C26_2 1_555 1_555
C32_2 C31_2 1_555 1_555
H13_2 C32_2 1_555 1_555
C33_2 C32_2 1_555 1_555
H14_2 C33_2 1_555 1_555
C34_2 C33_2 1_555 1_555
C35_2 C34_2 1_555 1_555
H15_2 C35_2 1_555 1_555
C36_2 C31_2 1_555 1_555
H16_2 C36_2 1_555 1_555
C37_2 C34_2 1_555 1_555
C38_2 C27_2 1_555 1_555
C39_2 C38_2 1_555 1_555
H17_2 C39_2 1_555 1_555
C40_2 C39_2 1_555 1_555
H18_2 C40_2 1_555 1_555
C41_2 C40_2 1_555 1_555
C42_2 C41_2 1_555 1_555
H19_2 C42_2 1_555 1_555
C43_2 C38_2 1_555 1_555
H20_2 C43_2 1_555 1_555
C44_2 C41_2 1_555 1_555
N1_2 C45_2 1_555 1_555
O17_2 Zn1_2 1_555 1_555
C45_2 O17_2 1_555 1_555
H21_2 C45_2 1_555 1_555
C46_2 N1_2 1_555 1_555
H22_2 C46_2 1_555 1_555
H23_2 C46_2 1_555 1_555
H24_2 C46_2 1_555 1_555
N2_2 C48_2 1_555 1_555
O18_2 Zn1_2 1_555 1_555
C48_2 O18_2 1_555 1_555
H28_2 C48_2 1_555 1_555
C50_2 N2_2 1_555 1_555
H32_2 C50_2 1_555 1_555
H33_2 C50_2 1_555 1_555
H34_2 C50_2 1_555 1_555
N3_2 C51_2 1_555 1_555
O19_2 Zn10 1_555 1_555
C51_2 O19_2 1_555 1_555
H35_2 C51_2 1_555 1_555
C52_2 N3_2 1_555 1_555
H36_2 C52_2 1_555 1_555
H37_2 C52_2 1_555 1_555
H38_2 C52_2 1_555 1_555
C53_2 N3_2 1_555 1_555
H39_2 C53_2 1_555 1_555
H40_2 C53_2 1_555 1_555
H41_2 C53_2 1_555 1_555
O20_2 Zn10 1_555 1_555
H42_2 O20_2 1_555 1_555
H43_2 O20_2 1_555 1_555
O21_2 Zn10 1_555 1_555
H44_2 O21_2 1_555 1_555
H45_2 O21_2 1_555 1_555
Zn5_2 O16_2 1_555 1_555
Zn6 O15_2 1_555 1_555
Zn8 O13_2 1_555 1_555
Zn11_2 O12_2 1_555 1_555
O22_2 Zn2_2 1_555 1_555
O23_2 Zn2_2 1_555 1_555
O25_2 Zn3_2 1_555 1_555
O26_2 Zn10 1_555 1_555
O27_2 Zn3_2 1_555 1_555
O28_2 Zn2_2 1_555 1_555
O29_2 Zn1_2 1_555 1_555
O10_2 C29_2 1_555 1_555
C2_2 C8_2 1_555 1_555
C5_2 C6_2 1_555 1_555
C23_2 C29_2 1_555 1_555
C24_2 C30_2 1_555 1_555
C27_2 C28_2 1_555 1_555
C35_2 C36_2 1_555 1_555
C42_2 C43_2 1_555 1_555
O5_3 C15_3 1_555 1_555
O6_3 C15_3 1_555 1_555
O7_2 C22_3 1_555 1_555
O25_2 C22_3 1_555 1_555
C10_3 C9_3 1_555 1_555
H3_3 C10_3 1_555 1_555
C11_3 C10_3 1_555 1_555
H4_3 C11_3 1_555 1_555
C12_3 C11_3 1_555 1_555
C13_3 C12_3 1_555 1_555
H5_3 C13_3 1_555 1_555
C14_3 C9_3 1_555 1_555
H6_3 C14_3 1_555 1_555
C15_3 C12_3 1_555 1_555
C17_3 C16_3 1_555 1_555
H7_3 C17_3 1_555 1_555
C18_3 C17_3 1_555 1_555
H8_3 C18_3 1_555 1_555
C19_3 C18_3 1_555 1_555
C20_3 C19_3 1_555 1_555
H9_3 C20_3 1_555 1_555
C21_3 C16_3 1_555 1_555
H10_3 C21_3 1_555 1_555
C22_3 C19_3 1_555 1_555
Zn6_2 O5_3 1_555 1_555
Zn11_2 O7_2 1_555 1_555
O6_3 Zn6_2 1_555 1_555
C13_3 C14_3 1_555 1_555
C20_3 C21_3 1_555 1_555
Zn1_3 O1_3 1_555 1_555
Zn2_3 O3_3 1_555 1_555
Zn9 O2_3 1_555 1_555
Zn11_2 O14_3 1_555 1_555
O1_3 C7_3 1_555 1_555
O2_3 C7_3 1_555 1_555
O3_3 Zn1_3 1_555 1_555
O4_3 C8_3 1_555 1_555
O9_3 Zn2_3 1_555 1_555
O10_3 Zn1_3 1_555 1_555
O11_3 Zn9 1_555 1_555
O26 C30_3 1_555 1_555
O27_2 C37_3 1_555 1_555
O14_3 C37_3 1_555 1_555
O15_3 C44_3 1_555 1_555
O16_3 C44_3 1_555 1_555
C1_3 C2_3 1_555 1_555
C2_3 C3_3 1_555 1_555
C3_3 H1_3 1_555 1_555
C4_3 C3_3 1_555 1_555
C5_3 C4_3 1_555 1_555
C6_3 C1_3 1_555 1_555
H2_3 C6_3 1_555 1_555
C7_3 C1_3 1_555 1_555
C8_3 O3_3 1_555 1_555
C23_3 C24_3 1_555 1_555
C24_3 C25_3 1_555 1_555
C25_3 H11_3 1_555 1_555
C26_3 C25_3 1_555 1_555
C27_3 C26_3 1_555 1_555
C28_3 C23_3 1_555 1_555
H12_3 C28_3 1_555 1_555
C29_3 O9_3 1_555 1_555
C30_3 O11_3 1_555 1_555
C31_3 C26_3 1_555 1_555
C32_3 C31_3 1_555 1_555
H13_3 C32_3 1_555 1_555
C33_3 C32_3 1_555 1_555
H14_3 C33_3 1_555 1_555
C34_3 C33_3 1_555 1_555
C35_3 C34_3 1_555 1_555
H15_3 C35_3 1_555 1_555
C36_3 C31_3 1_555 1_555
H16_3 C36_3 1_555 1_555
C37_3 C34_3 1_555 1_555
C38_3 C27_3 1_555 1_555
C39_3 C38_3 1_555 1_555
H17_3 C39_3 1_555 1_555
C40_3 C39_3 1_555 1_555
H18_3 C40_3 1_555 1_555
C41_3 C40_3 1_555 1_555
C42_3 C41_3 1_555 1_555
H19_3 C42_3 1_555 1_555
C43_3 C38_3 1_555 1_555
H20_3 C43_3 1_555 1_555
C44_3 C41_3 1_555 1_555
N1_3 C45_3 1_555 1_555
O17_3 Zn1_3 1_555 1_555
C45_3 O17_3 1_555 1_555
H21_3 C45_3 1_555 1_555
C46_3 N1_3 1_555 1_555
H22_3 C46_3 1_555 1_555
H23_3 C46_3 1_555 1_555
H24_3 C46_3 1_555 1_555
N2_3 C48_3 1_555 1_555
O18_3 Zn1_3 1_555 1_555
C48_3 O18_3 1_555 1_555
H28_3 C48_3 1_555 1_555
C50_3 N2_3 1_555 1_555
H32_3 C50_3 1_555 1_555
H33_3 C50_3 1_555 1_555
H34_3 C50_3 1_555 1_555
N3_3 C51_3 1_555 1_555
O19_3 Zn11_2 1_555 1_555
C51_3 O19_3 1_555 1_555
H35_3 C51_3 1_555 1_555
C52_3 N3_3 1_555 1_555
H36_3 C52_3 1_555 1_555
H37_3 C52_3 1_555 1_555
H38_3 C52_3 1_555 1_555
C53_3 N3_3 1_555 1_555
H39_3 C53_3 1_555 1_555
H40_3 C53_3 1_555 1_555
H41_3 C53_3 1_555 1_555
O20_3 Zn11_2 1_555 1_555
H42_3 O20_3 1_555 1_555
H43_3 O20_3 1_555 1_555
O21_3 Zn11_2 1_555 1_555
H44_3 O21_3 1_555 1_555
H45_3 O21_3 1_555 1_555
Zn5_3 O16_3 1_555 1_555
Zn6_2 O15_3 1_555 1_555
O22_3 Zn2_3 1_555 1_555
O23_3 Zn2_3 1_555 1_555
O28_3 Zn2_3 1_555 1_555
O29_3 Zn1_3 1_555 1_555
O10_3 C29_3 1_555 1_555
C2_3 C8_3 1_555 1_555
C5_3 C6_3 1_555 1_555
C23_3 C29_3 1_555 1_555
C24_3 C30_3 1_555 1_555
C27_3 C28_3 1_555 1_555
C35_3 C36_3 1_555 1_555
C42_3 C43_3 1_555 1_555
Zn1_4 O1_4 1_555 1_555
Zn2_4 O3_4 1_555 1_555
Zn8 O2_4 1_555 1_555
Zn11 O14_4 1_555 1_555
O1_4 C7_4 1_555 1_555
O2_4 C7_4 1_555 1_555
O3_4 Zn1_4 1_555 1_555
O4_4 C8_4 1_555 1_555
O9_4 Zn2_4 1_555 1_555
O10_4 Zn1_4 1_555 1_555
O11_4 Zn8 1_555 1_555
O26_2 C30_4 1_555 1_555
O27 C37_4 1_555 1_555
O14_4 C37_4 1_555 1_555
O15_4 C44_4 1_555 1_555
O16_4 C44_4 1_555 1_555
C1_4 C2_4 1_555 1_555
C2_4 C3_4 1_555 1_555
C3_4 H1_4 1_555 1_555
C4_4 C3_4 1_555 1_555
C5_4 C4_4 1_555 1_555
C6_4 C1_4 1_555 1_555
H2_4 C6_4 1_555 1_555
C7_4 C1_4 1_555 1_555
C8_4 O3_4 1_555 1_555
C23_4 C24_4 1_555 1_555
C24_4 C25_4 1_555 1_555
C25_4 H11_4 1_555 1_555
C26_4 C25_4 1_555 1_555
C27_4 C26_4 1_555 1_555
C28_4 C23_4 1_555 1_555
H12_4 C28_4 1_555 1_555
C29_4 O9_4 1_555 1_555
C30_4 O11_4 1_555 1_555
C31_4 C26_4 1_555 1_555
C32_4 C31_4 1_555 1_555
H13_4 C32_4 1_555 1_555
C33_4 C32_4 1_555 1_555
H14_4 C33_4 1_555 1_555
C34_4 C33_4 1_555 1_555
C35_4 C34_4 1_555 1_555
H15_4 C35_4 1_555 1_555
C36_4 C31_4 1_555 1_555
H16_4 C36_4 1_555 1_555
C37_4 C34_4 1_555 1_555
C38_4 C27_4 1_555 1_555
C39_4 C38_4 1_555 1_555
H17_4 C39_4 1_555 1_555
C40_4 C39_4 1_555 1_555
H18_4 C40_4 1_555 1_555
C41_4 C40_4 1_555 1_555
C42_4 C41_4 1_555 1_555
H19_4 C42_4 1_555 1_555
C43_4 C38_4 1_555 1_555
H20_4 C43_4 1_555 1_555
C44_4 C41_4 1_555 1_555
N1_4 C45_4 1_555 1_555
O17_4 Zn1_4 1_555 1_555
C45_4 O17_4 1_555 1_555
H21_4 C45_4 1_555 1_555
C46_4 N1_4 1_555 1_555
H22_4 C46_4 1_555 1_555
H23_4 C46_4 1_555 1_555
H24_4 C46_4 1_555 1_555
N2_4 C48_4 1_555 1_555
O18_4 Zn1_4 1_555 1_555
C48_4 O18_4 1_555 1_555
H28_4 C48_4 1_555 1_555
C50_4 N2_4 1_555 1_555
H32_4 C50_4 1_555 1_555
H33_4 C50_4 1_555 1_555
H34_4 C50_4 1_555 1_555
N3_4 C51_4 1_555 1_555
O19_4 Zn11 1_555 1_555
C51_4 O19_4 1_555 1_555
H35_4 C51_4 1_555 1_555
C52_4 N3_4 1_555 1_555
H36_4 C52_4 1_555 1_555
H37_4 C52_4 1_555 1_555
H38_4 C52_4 1_555 1_555
C53_4 N3_4 1_555 1_555
H39_4 C53_4 1_555 1_555
H40_4 C53_4 1_555 1_555
H41_4 C53_4 1_555 1_555
O20_4 Zn11 1_555 1_555
H42_4 O20_4 1_555 1_555
H43_4 O20_4 1_555 1_555
O21_4 Zn11 1_555 1_555
H44_4 O21_4 1_555 1_555
H45_4 O21_4 1_555 1_555
Zn5_4 O16_4 1_555 1_555
Zn7_2 O15_4 1_555 1_555
O22_4 Zn2_4 1_555 1_555
O23_4 Zn2_4 1_555 1_555
O24_2 Zn11 1_555 1_555
O28_4 Zn2_4 1_555 1_555
O29_4 Zn1_4 1_555 1_555
O10_4 C29_4 1_555 1_555
C2_4 C8_4 1_555 1_555
C5_4 C6_4 1_555 1_555
C23_4 C29_4 1_555 1_555
C24_4 C30_4 1_555 1_555
C27_4 C28_4 1_555 1_555
C35_4 C36_4 1_555 1_555
C42_4 C43_4 1_555 1_555
O5_4 C15_4 1_555 1_555
O6_4 C15_4 1_555 1_555
O24_2 C22_4 1_555 1_555
O25 C22_4 1_555 1_555
C10_4 C9_4 1_555 1_555
H3_4 C10_4 1_555 1_555
C11_4 C10_4 1_555 1_555
H4_4 C11_4 1_555 1_555
C12_4 C11_4 1_555 1_555
C13_4 C12_4 1_555 1_555
H5_4 C13_4 1_555 1_555
C14_4 C9_4 1_555 1_555
H6_4 C14_4 1_555 1_555
C15_4 C12_4 1_555 1_555
C17_4 C16_4 1_555 1_555
H7_4 C17_4 1_555 1_555
C18_4 C17_4 1_555 1_555
H8_4 C18_4 1_555 1_555
C19_4 C18_4 1_555 1_555
C20_4 C19_4 1_555 1_555
H9_4 C20_4 1_555 1_555
C21_4 C16_4 1_555 1_555
H10_4 C21_4 1_555 1_555
C22_4 C19_4 1_555 1_555
Zn7_2 O5_4 1_555 1_555
O6_4 Zn7_2 1_555 1_555
C13_4 C14_4 1_555 1_555
C20_4 C21_4 1_555 1_555
Zn9_2 O13_3 1_555 1_555
Zn4_2 O14_5 1_555 1_555
O14_5 C37_5 1_555 1_555
O28_4 C44_5 1_555 1_555
O29_4 C44_5 1_555 1_555
C32_5 C31_5 1_555 1_555
H13_5 C32_5 1_555 1_555
C33_5 C32_5 1_555 1_555
H14_5 C33_5 1_555 1_555
C34_5 C33_5 1_555 1_555
C35_5 C34_5 1_555 1_555
H15_5 C35_5 1_555 1_555
C36_5 C31_5 1_555 1_555
H16_5 C36_5 1_555 1_555
C37_5 C34_5 1_555 1_555
C39_5 C38_5 1_555 1_555
C40_5 C39_5 1_555 1_555
H18_5 C40_5 1_555 1_555
C41_5 C40_5 1_555 1_555
C42_5 C41_5 1_555 1_555
H19_5 C42_5 1_555 1_555
C43_5 C38_5 1_555 1_555
H20_5 C43_5 1_555 1_555
C44_5 C41_5 1_555 1_555
N3_5 C51_5 1_555 1_555
O19_5 Zn4_2 1_555 1_555
C51_5 O19_5 1_555 1_555
H35_5 C51_5 1_555 1_555
C52_5 N3_5 1_555 1_555
H36_5 C52_5 1_555 1_555
H37_5 C52_5 1_555 1_555
H38_5 C52_5 1_555 1_555
C53_5 N3_5 1_555 1_555
H39_5 C53_5 1_555 1_555
H40_5 C53_5 1_555 1_555
H41_5 C53_5 1_555 1_555
O20_5 Zn4_2 1_555 1_555
H42_5 O20_5 1_555 1_555
H43_5 O20_5 1_555 1_555
O21_5 Zn4_2 1_555 1_555
H44_5 O21_5 1_555 1_555
H45_5 O21_5 1_555 1_555
O24_3 Zn4_2 1_555 1_555
C35_5 C36_5 1_555 1_555
C42_5 C43_5 1_555 1_555
Zn9_2 O8_3 1_555 1_555
Zn5_3 O1_5 1_555 1_555
Zn6_2 O3_5 1_555 1_555
Zn3_3 O2_5 1_555 1_555
O1_5 C7_5 1_555 1_555
O2_5 C7_5 1_555 1_555
O3_5 Zn5_3 1_555 1_555
O4_5 C8_5 1_555 1_555
O22_4 C15_5 1_555 1_555
O23_4 C15_5 1_555 1_555
O24_3 C22_5 1_555 1_555
O9_5 Zn6_2 1_555 1_555
O10_5 Zn5_3 1_555 1_555
O11_5 Zn3_3 1_555 1_555
O12_3 C30_5 1_555 1_555
C1_5 C2_5 1_555 1_555
C2_5 C3_5 1_555 1_555
C3_5 H1_5 1_555 1_555
C4_5 C3_5 1_555 1_555
C5_5 C4_5 1_555 1_555
C6_5 C1_5 1_555 1_555
H2_5 C6_5 1_555 1_555
C7_5 C1_5 1_555 1_555
C8_5 O3_5 1_555 1_555
C9_5 C4_5 1_555 1_555
C10_5 C9_5 1_555 1_555
H3_5 C10_5 1_555 1_555
C11_5 C10_5 1_555 1_555
H4_5 C11_5 1_555 1_555
C12_5 C11_5 1_555 1_555
C13_5 C12_5 1_555 1_555
H5_5 C13_5 1_555 1_555
C14_5 C9_5 1_555 1_555
H6_5 C14_5 1_555 1_555
C15_5 C12_5 1_555 1_555
C16_5 C5_5 1_555 1_555
C17_5 C16_5 1_555 1_555
H7_5 C17_5 1_555 1_555
C18_5 C17_5 1_555 1_555
H8_5 C18_5 1_555 1_555
C19_5 C18_5 1_555 1_555
C20_5 C19_5 1_555 1_555
H9_5 C20_5 1_555 1_555
C21_5 C16_5 1_555 1_555
H10_5 C21_5 1_555 1_555
C22_5 C19_5 1_555 1_555
C23_5 C24_5 1_555 1_555
C24_5 C25_5 1_555 1_555
C25_5 H11_5 1_555 1_555
C26_5 C25_5 1_555 1_555
C27_5 C26_5 1_555 1_555
C28_5 C23_5 1_555 1_555
H12_5 C28_5 1_555 1_555
C29_5 O9_5 1_555 1_555
C30_5 O11_5 1_555 1_555
N1_5 C45_5 1_555 1_555
O17_5 Zn5_3 1_555 1_555
C45_5 O17_5 1_555 1_555
H21_5 C45_5 1_555 1_555
C46_5 N1_5 1_555 1_555
H22_5 C46_5 1_555 1_555
H23_5 C46_5 1_555 1_555
H24_5 C46_5 1_555 1_555
C47_2 N1_5 1_555 1_555
H25_2 C47_2 1_555 1_555
H26_2 C47_2 1_555 1_555
H27_2 C47_2 1_555 1_555
N2_5 C48_5 1_555 1_555
O18_5 Zn5_3 1_555 1_555
C48_5 O18_5 1_555 1_555
H28_5 C48_5 1_555 1_555
C49_2 N2_5 1_555 1_555
H29_2 C49_2 1_555 1_555
H30_2 C49_2 1_555 1_555
H31_2 C49_2 1_555 1_555
C50_5 N2_5 1_555 1_555
H32_5 C50_5 1_555 1_555
H33_5 C50_5 1_555 1_555
H34_5 C50_5 1_555 1_555
O25_3 Zn3_3 1_555 1_555
O27_3 Zn3_3 1_555 1_555
O10_5 C29_5 1_555 1_555
C2_5 C8_5 1_555 1_555
C5_5 C6_5 1_555 1_555
C13_5 C14_5 1_555 1_555
C20_5 C21_5 1_555 1_555
C23_5 C29_5 1_555 1_555
C24_5 C30_5 1_555 1_555
C27_5 C28_5 1_555 1_555
Zn8_2 O8_4 1_555 1_555
Zn5_4 O1_6 1_555 1_555
Zn7_2 O3_6 1_555 1_555
Zn3_4 O2_6 1_555 1_555
O1_6 C7_6 1_555 1_555
O2_6 C7_6 1_555 1_555
O3_6 Zn5_4 1_555 1_555
O4_6 C8_6 1_555 1_555
O22_3 C15_6 1_555 1_555
O23_3 C15_6 1_555 1_555
O7_3 C22_6 1_555 1_555
O9_6 Zn7_2 1_555 1_555
O10_6 Zn5_4 1_555 1_555
O11_6 Zn3_4 1_555 1_555
O12_4 C30_6 1_555 1_555
C1_6 C2_6 1_555 1_555
C2_6 C3_6 1_555 1_555
C3_6 H1_6 1_555 1_555
C4_6 C3_6 1_555 1_555
C5_6 C4_6 1_555 1_555
C6_6 C1_6 1_555 1_555
H2_6 C6_6 1_555 1_555
C7_6 C1_6 1_555 1_555
C8_6 O3_6 1_555 1_555
C9_6 C4_6 1_555 1_555
C10_6 C9_6 1_555 1_555
H3_6 C10_6 1_555 1_555
C11_6 C10_6 1_555 1_555
H4_6 C11_6 1_555 1_555
C12_6 C11_6 1_555 1_555
C13_6 C12_6 1_555 1_555
H5_6 C13_6 1_555 1_555
C14_6 C9_6 1_555 1_555
H6_6 C14_6 1_555 1_555
C15_6 C12_6 1_555 1_555
C16_6 C5_6 1_555 1_555
C17_6 C16_6 1_555 1_555
H7_6 C17_6 1_555 1_555
C18_6 C17_6 1_555 1_555
H8_6 C18_6 1_555 1_555
C19_6 C18_6 1_555 1_555
C20_6 C19_6 1_555 1_555
H9_6 C20_6 1_555 1_555
C21_6 C16_6 1_555 1_555
H10_6 C21_6 1_555 1_555
C22_6 C19_6 1_555 1_555
C23_6 C24_6 1_555 1_555
C24_6 C25_6 1_555 1_555
C25_6 H11_6 1_555 1_555
C26_6 C25_6 1_555 1_555
C27_6 C26_6 1_555 1_555
C28_6 C23_6 1_555 1_555
H12_6 C28_6 1_555 1_555
C29_6 O9_6 1_555 1_555
C30_6 O11_6 1_555 1_555
N1_6 C45_6 1_555 1_555
O17_6 Zn5_4 1_555 1_555
C45_6 O17_6 1_555 1_555
H21_6 C45_6 1_555 1_555
C46_6 N1_6 1_555 1_555
H22_6 C46_6 1_555 1_555
H23_6 C46_6 1_555 1_555
H24_6 C46_6 1_555 1_555
C47_3 N1_6 1_555 1_555
H25_3 C47_3 1_555 1_555
H26_3 C47_3 1_555 1_555
H27_3 C47_3 1_555 1_555
N2_6 C48_6 1_555 1_555
O18_6 Zn5_4 1_555 1_555
C48_6 O18_6 1_555 1_555
H28_6 C48_6 1_555 1_555
C49_3 N2_6 1_555 1_555
H29_3 C49_3 1_555 1_555
H30_3 C49_3 1_555 1_555
H31_3 C49_3 1_555 1_555
C50_6 N2_6 1_555 1_555
H32_6 C50_6 1_555 1_555
H33_6 C50_6 1_555 1_555
H34_6 C50_6 1_555 1_555
Zn10_2 O7_3 1_555 1_555
O25_4 Zn3_4 1_555 1_555
O27_4 Zn3_4 1_555 1_555
O10_6 C29_6 1_555 1_555
C2_6 C8_6 1_555 1_555
C5_6 C6_6 1_555 1_555
C13_6 C14_6 1_555 1_555
C20_6 C21_6 1_555 1_555
C23_6 C29_6 1_555 1_555
C24_6 C30_6 1_555 1_555
C27_6 C28_6 1_555 1_555
Zn8_2 O13_4 1_555 1_555
Zn10_2 O14_6 1_555 1_555
O14_6 C37_6 1_555 1_555
O28_3 C44_6 1_555 1_555
O29_3 C44_6 1_555 1_555
C32_6 C31_6 1_555 1_555
H13_6 C32_6 1_555 1_555
C33_6 C32_6 1_555 1_555
H14_6 C33_6 1_555 1_555
C34_6 C33_6 1_555 1_555
C35_6 C34_6 1_555 1_555
H15_6 C35_6 1_555 1_555
C36_6 C31_6 1_555 1_555
H16_6 C36_6 1_555 1_555
C37_6 C34_6 1_555 1_555
C39_6 C38_6 1_555 1_555
C40_6 C39_6 1_555 1_555
H18_6 C40_6 1_555 1_555
C41_6 C40_6 1_555 1_555
C42_6 C41_6 1_555 1_555
H19_6 C42_6 1_555 1_555
C43_6 C38_6 1_555 1_555
H20_6 C43_6 1_555 1_555
C44_6 C41_6 1_555 1_555
N3_6 C51_6 1_555 1_555
O19_6 Zn10_2 1_555 1_555
C51_6 O19_6 1_555 1_555
H35_6 C51_6 1_555 1_555
C52_6 N3_6 1_555 1_555
H36_6 C52_6 1_555 1_555
H37_6 C52_6 1_555 1_555
H38_6 C52_6 1_555 1_555
C53_6 N3_6 1_555 1_555
H39_6 C53_6 1_555 1_555
H40_6 C53_6 1_555 1_555
H41_6 C53_6 1_555 1_555
O20_6 Zn10_2 1_555 1_555
H42_6 O20_6 1_555 1_555
H43_6 O20_6 1_555 1_555
O21_6 Zn10_2 1_555 1_555
H44_6 O21_6 1_555 1_555
H45_6 O21_6 1_555 1_555
C35_6 C36_6 1_555 1_555
C42_6 C43_6 1_555 1_555
Zn5_2 O1_7 1_555 1_555
Zn6 O3_7 1_555 1_555
Zn9_2 O2_7 1_555 1_555
O1_7 C7_7 1_555 1_555
O2_7 C7_7 1_555 1_555
O3_7 Zn5_2 1_555 1_555
O4_7 C8_7 1_555 1_555
O22 C15_7 1_555 1_555
O23 C15_7 1_555 1_555
O7_4 C22_7 1_555 1_555
O9_7 Zn6 1_555 1_555
O10_7 Zn5_2 1_555 1_555
O11_7 Zn9_2 1_555 1_555
O26_3 C30_7 1_555 1_555
C1_7 C2_7 1_555 1_555
C2_7 C3_7 1_555 1_555
C3_7 H1_7 1_555 1_555
C4_7 C3_7 1_555 1_555
C5_7 C4_7 1_555 1_555
C6_7 C1_7 1_555 1_555
H2_7 C6_7 1_555 1_555
C7_7 C1_7 1_555 1_555
C8_7 O3_7 1_555 1_555
C9_7 C4_7 1_555 1_555
C10_7 C9_7 1_555 1_555
H3_7 C10_7 1_555 1_555
C11_7 C10_7 1_555 1_555
H4_7 C11_7 1_555 1_555
C12_7 C11_7 1_555 1_555
C13_7 C12_7 1_555 1_555
H5_7 C13_7 1_555 1_555
C14_7 C9_7 1_555 1_555
H6_7 C14_7 1_555 1_555
C15_7 C12_7 1_555 1_555
C16_7 C5_7 1_555 1_555
C17_7 C16_7 1_555 1_555
H7_7 C17_7 1_555 1_555
C18_7 C17_7 1_555 1_555
H8_7 C18_7 1_555 1_555
C19_7 C18_7 1_555 1_555
C20_7 C19_7 1_555 1_555
H9_7 C20_7 1_555 1_555
C21_7 C16_7 1_555 1_555
H10_7 C21_7 1_555 1_555
C22_7 C19_7 1_555 1_555
C23_7 C24_7 1_555 1_555
C24_7 C25_7 1_555 1_555
C25_7 H11_7 1_555 1_555
C26_7 C25_7 1_555 1_555
C27_7 C26_7 1_555 1_555
C28_7 C23_7 1_555 1_555
H12_7 C28_7 1_555 1_555
C29_7 O9_7 1_555 1_555
C30_7 O11_7 1_555 1_555
N1_7 C45_7 1_555 1_555
O17_7 Zn5_2 1_555 1_555
C45_7 O17_7 1_555 1_555
H21_7 C45_7 1_555 1_555
C46_7 N1_7 1_555 1_555
H22_7 C46_7 1_555 1_555
H23_7 C46_7 1_555 1_555
H24_7 C46_7 1_555 1_555
C47_4 N1_7 1_555 1_555
H25_4 C47_4 1_555 1_555
H26_4 C47_4 1_555 1_555
H27_4 C47_4 1_555 1_555
N2_7 C48_7 1_555 1_555
O18_7 Zn5_2 1_555 1_555
C48_7 O18_7 1_555 1_555
H28_7 C48_7 1_555 1_555
C49_4 N2_7 1_555 1_555
H29_4 C49_4 1_555 1_555
H30_4 C49_4 1_555 1_555
H31_4 C49_4 1_555 1_555
C50_7 N2_7 1_555 1_555
H32_7 C50_7 1_555 1_555
H33_7 C50_7 1_555 1_555
H34_7 C50_7 1_555 1_555
Zn11_4 O7_4 1_555 1_555
O10_7 C29_7 1_555 1_555
C2_7 C8_7 1_555 1_555
C5_7 C6_7 1_555 1_555
C13_7 C14_7 1_555 1_555
C20_7 C21_7 1_555 1_555
C23_7 C29_7 1_555 1_555
C24_7 C30_7 1_555 1_555
C27_7 C28_7 1_555 1_555
Zn11_4 O14_7 1_555 1_555
O14_7 C37_7 1_555 1_555
O28 C44_7 1_555 1_555
O29 C44_7 1_555 1_555
C32_7 C31_7 1_555 1_555
H13_7 C32_7 1_555 1_555
C33_7 C32_7 1_555 1_555
H14_7 C33_7 1_555 1_555
C34_7 C33_7 1_555 1_555
C35_7 C34_7 1_555 1_555
H15_7 C35_7 1_555 1_555
C36_7 C31_7 1_555 1_555
H16_7 C36_7 1_555 1_555
C37_7 C34_7 1_555 1_555
C39_7 C38_7 1_555 1_555
C40_7 C39_7 1_555 1_555
H18_7 C40_7 1_555 1_555
C41_7 C40_7 1_555 1_555
C42_7 C41_7 1_555 1_555
H19_7 C42_7 1_555 1_555
C43_7 C38_7 1_555 1_555
H20_7 C43_7 1_555 1_555
C44_7 C41_7 1_555 1_555
N3_7 C51_7 1_555 1_555
O19_7 Zn11_4 1_555 1_555
C51_7 O19_7 1_555 1_555
H35_7 C51_7 1_555 1_555
C52_7 N3_7 1_555 1_555
H36_7 C52_7 1_555 1_555
H37_7 C52_7 1_555 1_555
H38_7 C52_7 1_555 1_555
C53_7 N3_7 1_555 1_555
H39_7 C53_7 1_555 1_555
H40_7 C53_7 1_555 1_555
H41_7 C53_7 1_555 1_555
O20_7 Zn11_4 1_555 1_555
H42_7 O20_7 1_555 1_555
H43_7 O20_7 1_555 1_555
O21_7 Zn11_4 1_555 1_555
H44_7 O21_7 1_555 1_555
H45_7 O21_7 1_555 1_555
C35_7 C36_7 1_555 1_555
C42_7 C43_7 1_555 1_555
Zn11_3 O14_8 1_555 1_555
O14_8 C37_8 1_555 1_555
O28_2 C44_8 1_555 1_555
O29_2 C44_8 1_555 1_555
C32_8 C31_8 1_555 1_555
H13_8 C32_8 1_555 1_555
C33_8 C32_8 1_555 1_555
H14_8 C33_8 1_555 1_555
C34_8 C33_8 1_555 1_555
C35_8 C34_8 1_555 1_555
H15_8 C35_8 1_555 1_555
C36_8 C31_8 1_555 1_555
H16_8 C36_8 1_555 1_555
C37_8 C34_8 1_555 1_555
C39_8 C38_8 1_555 1_555
C40_8 C39_8 1_555 1_555
H18_8 C40_8 1_555 1_555
C41_8 C40_8 1_555 1_555
C42_8 C41_8 1_555 1_555
H19_8 C42_8 1_555 1_555
C43_8 C38_8 1_555 1_555
H20_8 C43_8 1_555 1_555
C44_8 C41_8 1_555 1_555
N3_8 C51_8 1_555 1_555
O19_8 Zn11_3 1_555 1_555
C51_8 O19_8 1_555 1_555
H35_8 C51_8 1_555 1_555
C52_8 N3_8 1_555 1_555
H36_8 C52_8 1_555 1_555
H37_8 C52_8 1_555 1_555
H38_8 C52_8 1_555 1_555
C53_8 N3_8 1_555 1_555
H39_8 C53_8 1_555 1_555
H40_8 C53_8 1_555 1_555
H41_8 C53_8 1_555 1_555
O20_8 Zn11_3 1_555 1_555
H42_8 O20_8 1_555 1_555
H43_8 O20_8 1_555 1_555
O21_8 Zn11_3 1_555 1_555
H44_8 O21_8 1_555 1_555
H45_8 O21_8 1_555 1_555
O24_4 Zn11_3 1_555 1_555
C35_8 C36_8 1_555 1_555
C42_8 C43_8 1_555 1_555
Zn5 O1_8 1_555 1_555
Zn7 O3_8 1_555 1_555
Zn8_2 O2_8 1_555 1_555
O1_8 C7_8 1_555 1_555
O2_8 C7_8 1_555 1_555
O3_8 Zn5 1_555 1_555
O4_8 C8_8 1_555 1_555
O22_2 C15_8 1_555 1_555
O23_2 C15_8 1_555 1_555
O24_4 C22_8 1_555 1_555
O9_8 Zn7 1_555 1_555
O10_8 Zn5 1_555 1_555
O11_8 Zn8_2 1_555 1_555
O26_4 C30_8 1_555 1_555
C1_8 C2_8 1_555 1_555
C2_8 C3_8 1_555 1_555
C3_8 H1_8 1_555 1_555
C4_8 C3_8 1_555 1_555
C5_8 C4_8 1_555 1_555
C6_8 C1_8 1_555 1_555
H2_8 C6_8 1_555 1_555
C7_8 C1_8 1_555 1_555
C8_8 O3_8 1_555 1_555
C9_8 C4_8 1_555 1_555
C10_8 C9_8 1_555 1_555
H3_8 C10_8 1_555 1_555
C11_8 C10_8 1_555 1_555
H4_8 C11_8 1_555 1_555
C12_8 C11_8 1_555 1_555
C13_8 C12_8 1_555 1_555
H5_8 C13_8 1_555 1_555
C14_8 C9_8 1_555 1_555
H6_8 C14_8 1_555 1_555
C15_8 C12_8 1_555 1_555
C16_8 C5_8 1_555 1_555
C17_8 C16_8 1_555 1_555
H7_8 C17_8 1_555 1_555
C18_8 C17_8 1_555 1_555
H8_8 C18_8 1_555 1_555
C19_8 C18_8 1_555 1_555
C20_8 C19_8 1_555 1_555
H9_8 C20_8 1_555 1_555
C21_8 C16_8 1_555 1_555
H10_8 C21_8 1_555 1_555
C22_8 C19_8 1_555 1_555
C23_8 C24_8 1_555 1_555
C24_8 C25_8 1_555 1_555
C25_8 H11_8 1_555 1_555
C26_8 C25_8 1_555 1_555
C27_8 C26_8 1_555 1_555
C28_8 C23_8 1_555 1_555
H12_8 C28_8 1_555 1_555
C29_8 O9_8 1_555 1_555
C30_8 O11_8 1_555 1_555
N1_8 C45_8 1_555 1_555
O17_8 Zn5 1_555 1_555
C45_8 O17_8 1_555 1_555
H21_8 C45_8 1_555 1_555
C46_8 N1_8 1_555 1_555
H22_8 C46_8 1_555 1_555
H23_8 C46_8 1_555 1_555
H24_8 C46_8 1_555 1_555
C47_5 N1_8 1_555 1_555
H25_5 C47_5 1_555 1_555
H26_5 C47_5 1_555 1_555
H27_5 C47_5 1_555 1_555
N2_8 C48_8 1_555 1_555
O18_8 Zn5 1_555 1_555
C48_8 O18_8 1_555 1_555
H28_8 C48_8 1_555 1_555
C49_5 N2_8 1_555 1_555
H29_5 C49_5 1_555 1_555
H30_5 C49_5 1_555 1_555
H31_5 C49_5 1_555 1_555
C50_8 N2_8 1_555 1_555
H32_8 C50_8 1_555 1_555
H33_8 C50_8 1_555 1_555
H34_8 C50_8 1_555 1_555
O10_8 C29_8 1_555 1_555
C2_8 C8_8 1_555 1_555
C5_8 C6_8 1_555 1_555
C13_8 C14_8 1_555 1_555
C20_8 C21_8 1_555 1_555
C23_8 C29_8 1_555 1_555
C24_8 C30_8 1_555 1_555
C27_8 C28_8 1_555 1_555
H25_6 C47_6 1_555 1_555
H26_6 C47_6 1_555 1_555
H27_6 C47_6 1_555 1_555
H29_6 C49_6 1_555 1_555
H30_6 C49_6 1_555 1_555
H31_6 C49_6 1_555 1_555
H25_7 C47_7 1_555 1_555
H26_7 C47_7 1_555 1_555
H27_7 C47_7 1_555 1_555
H29_7 C49_7 1_555 1_555
H30_7 C49_7 1_555 1_555
H31_7 C49_7 1_555 1_555
H25_8 C47_8 1_555 1_555
H26_8 C47_8 1_555 1_555
H27_8 C47_8 1_555 1_555
H29_8 C49_8 1_555 1_555
H30_8 C49_8 1_555 1_555
H31_8 C49_8 1_555 1_555

#END
