
###############################################################################
#
# This file contains modified crystal structure data generated from the
# MOF subset of the Cambridge Structural Database (CSD) v543 
# hosted by the Cambridge Crystallographic Data Centre (CCDC).
#
# This work is licensed under the Creative Commons
# Attribution-NonCommercial-ShareAlike 4.0 International License.
# To view a copy of this license, visit
# http://creativecommons.org/licenses/by-nc-sa/4.0/
# or send a letter to
# Creative Commons, PO Box 1866, Mountain View, CA 94042, USA.
#
# CIF created using the CSD Python API on 29 September 2022
# The structure has been converted into the P1 space group
# The structure has a 3D framework
# The original CSD entry YOCGAZ is in the orthorhombic crystal system
# The framework has been calculated to contain at least 10.0% void space
# The void calculation uses a probe of radius 1.32A, grid spacing 0.4
# H atom positions have been added when not included in the experimental data
# Generated hydrogen atom positions removed from atoms on special positions
#
###############################################################################

data_YOCGAZ
_chemical_formula_moiety         '(C112 H80 O36 Si6 Zn8)n'
_symmetry_cell_setting           triclinic
_symmetry_space_group_name_H-M   'P 1'
_symmetry_Int_Tables_number      1
_space_group_name_Hall           'P 1'
loop_
_symmetry_equiv_pos_site_id
_symmetry_equiv_pos_as_xyz
1 x,y,z
_cell_length_a                   12.4868(7)
_cell_length_b                   13.0255(7)
_cell_length_c                   23.7555(13)
_cell_angle_alpha                90
_cell_angle_beta                 90
_cell_angle_gamma                90
_cell_volume                     3863.76
loop_
_atom_site_label
_atom_site_type_symbol
_atom_site_fract_x
_atom_site_fract_y
_atom_site_fract_z
Si1 Si 0.2500 0.0000 0.03842(5)
O3 O 0.66109(19) 0.16292(17) 0.20685(9)
O4 O 0.6297(2) 0.00861(17) 0.24518(10)
C8 C 0.3676(2) 0.0188(2) 0.08606(12)
C11 C 0.5287(2) 0.0571(2) 0.16618(12)
C12 C 0.4985(3) 0.1327(3) 0.12850(16)
H7 H 0.5323 0.1980 0.1297
C13 C 0.4192(3) 0.1137(3) 0.08886(15)
H8 H 0.3997 0.1663 0.0631
C14 C 0.6138(2) 0.0779(2) 0.20955(12)
Zn3 Zn 0.75930(4) 0.2500 0.2500
Zn6 Zn 0.7500 0.0000 0.29852(2)
H9 H 0.1135 0.1899 0.0260
C23 C 0.0999(3) 0.0569(2) 0.12422(13)
H13 H 0.1330 0.1225 0.1230
C24 C 0.0207(3) 0.0383(2) 0.16366(13)
Zn4 Zn 0.25930(4) 0.2500 0.7500
Zn7 Zn 0.2500 0.5000 0.79852(2)
O6 O 0.2778(2) 0.35061(18) 0.82341(9)
O9 O 0.1577(3) 0.4297(2) 0.87567(11)
C15 C 0.2390(2) 0.1136(3) 0.99050(12)
C16 C 0.1628(3) 0.1913(3) 0.99549(13)
C17 C 0.1579(3) 0.2704(3) 0.95660(14)
H10 H 0.1059 0.3231 0.9608
C18 C 0.2291(3) 0.2732(3) 0.91129(13)
C19 C 0.3070(3) 0.1980(3) 0.90609(13)
H11 H 0.3566 0.2000 0.8758
C20 C 0.3117(3) 0.1197(3) 0.94568(13)
H12 H 0.3658 0.0688 0.9423
C21 C 0.2191(3) 0.3556(3) 0.86812(13)
Si1_2 Si 0.2500 1.0000 0.03842(5)
H1 H 0.3865 0.8101 0.0260
C9 C 0.4001(3) 0.9431(2) 0.12422(13)
H5 H 0.3670 0.8775 0.1230
C10 C 0.4793(3) 0.9617(2) 0.16366(13)
H6 H 0.5001 0.9089 0.1891
Zn6_2 Zn 0.7500 1.0000 0.29852(2)
C22 C 0.1324(2) 0.9812(2) 0.08606(12)
C26 C 0.0015(3) 0.8673(3) 0.12850(16)
C27 C 0.0808(3) 0.8863(3) 0.08886(15)
H16 H 0.1003 0.8337 0.0631
Zn1 Zn 0.24070(4) 0.7500 0.7500
O1 O 0.2222(2) 0.64939(18) 0.82341(9)
O2 O 0.3423(3) 0.5703(2) 0.87567(11)
O5 O 0.0845(3) 0.7500 0.7500
C1 C 0.2610(2) 0.8864(3) 0.99050(12)
C2 C 0.3372(3) 0.8087(3) 0.99549(13)
C3 C 0.3421(3) 0.7296(3) 0.95660(14)
H2 H 0.3941 0.6769 0.9608
C4 C 0.2709(3) 0.7268(3) 0.91129(13)
C5 C 0.1930(3) 0.8020(3) 0.90609(13)
H3 H 0.1434 0.8000 0.8758
C6 C 0.1883(3) 0.8803(3) 0.94568(13)
H4 H 0.1342 0.9312 0.9423
C7 C 0.2809(3) 0.6444(3) 0.86812(13)
O7 O 0.2222(2) 0.85061(18) 0.67659(9)
O12 O 0.33891(19) 0.66292(17) 0.70685(9)
O13 O 0.33891(19) 0.83708(17) 0.79315(9)
O15 O 0.1297(2) 0.49139(17) 0.74518(10)
O16 O 0.3703(2) 0.50861(17) 0.74518(10)
H14 H 0.9999 0.0911 0.1891
Zn5 Zn 0.74070(4) 0.7500 0.2500
O11 O 0.83891(19) 0.83708(17) 0.20685(9)
O14 O 0.8703(2) 0.99139(17) 0.24518(10)
C25 C 0.9713(2) 0.9429(2) 0.16618(12)
H15 H 0.9677 0.8020 0.1297
C28 C 0.8862(2) 0.9221(2) 0.20955(12)
O5_2 O 0.4155(3) 0.2500 0.7500
O7_2 O 0.2778(2) 0.14939(18) 0.67659(9)
O12_2 O 0.16109(19) 0.33708(17) 0.70685(9)
O13_2 O 0.16109(19) 0.16292(17) 0.79315(9)
Zn7_2 Zn 0.2500 0.0000 0.70148(2)
Si1_3 Si 0.2500 0.5000 0.46158(5)
O2_2 O 0.1577(3) 0.0703(2) 0.62433(11)
C1_2 C 0.2390(2) 0.3864(3) 0.50950(12)
C2_2 C 0.1628(3) 0.3087(3) 0.50451(13)
H1_2 H 0.1135 0.3101 0.4740
C3_2 C 0.1579(3) 0.2296(3) 0.54340(14)
H2_2 H 0.1059 0.1769 0.5392
C4_2 C 0.2291(3) 0.2268(3) 0.58871(13)
C5_2 C 0.3070(3) 0.3020(3) 0.59391(13)
H3_2 H 0.3566 0.3000 0.6242
C6_2 C 0.3117(3) 0.3803(3) 0.55432(13)
H4_2 H 0.3658 0.4312 0.5577
C7_2 C 0.2191(3) 0.1444(3) 0.63188(13)
C8_2 C 0.1324(2) 0.5188(2) 0.41394(12)
C9_2 C 0.0999(3) 0.4431(2) 0.37578(13)
H5_2 H 0.1330 0.3775 0.3770
C10_2 C 0.0207(3) 0.4617(2) 0.33634(13)
C12_2 C 0.0015(3) 0.6327(3) 0.37150(16)
C13_2 C 0.0808(3) 0.6137(3) 0.41114(15)
H8_2 H 0.1003 0.6663 0.4369
Zn7_3 Zn 0.2500 1.0000 0.70148(2)
Zn8 Zn 0.7500 0.5000 0.20148(2)
O9_2 O 0.3423(3) 0.9297(2) 0.62433(11)
O11_2 O 0.66109(19) 0.33708(17) 0.29315(9)
O14_2 O 0.6297(2) 0.49139(17) 0.25482(10)
O16_2 O 0.1297(2) 0.00861(17) 0.75482(10)
C15_2 C 0.2610(2) 0.6136(3) 0.50950(12)
C16_2 C 0.3372(3) 0.6913(3) 0.50451(13)
H9_2 H 0.3865 0.6899 0.4740
C17_2 C 0.3421(3) 0.7704(3) 0.54340(14)
H10_2 H 0.3941 0.8231 0.5392
C18_2 C 0.2709(3) 0.7732(3) 0.58871(13)
C19_2 C 0.1930(3) 0.6980(3) 0.59391(13)
H11_2 H 0.1434 0.7000 0.6242
C20_2 C 0.1883(3) 0.6197(3) 0.55432(13)
H12_2 H 0.1342 0.5688 0.5577
C21_2 C 0.2809(3) 0.8556(3) 0.63188(13)
C22_2 C 0.3676(2) 0.4812(2) 0.41394(12)
C23_2 C 0.4001(3) 0.5569(2) 0.37578(13)
H13_2 H 0.3670 0.6225 0.3770
C24_2 C 0.4793(3) 0.5383(2) 0.33634(13)
H14_2 H 0.5001 0.5911 0.3109
C25_2 C 0.5287(2) 0.4429(2) 0.33382(12)
C26_2 C 0.4985(3) 0.3673(3) 0.37150(16)
H15_2 H 0.5323 0.3020 0.3703
C27_2 C 0.4192(3) 0.3863(3) 0.41114(15)
H16_2 H 0.3997 0.3337 0.4369
C28_2 C 0.6138(2) 0.4221(2) 0.29045(12)
O15_2 O 0.3703(2) 0.99139(17) 0.75482(10)
O3_2 O 0.83891(19) 0.66292(17) 0.29315(9)
O4_2 O 0.8703(2) 0.50861(17) 0.25482(10)
H6_2 H 0.9999 0.4089 0.3109
C11_2 C 0.9713(2) 0.5571(2) 0.33382(12)
H7_2 H 0.9677 0.6980 0.3703
C14_2 C 0.8862(2) 0.5779(2) 0.29045(12)
C25_3 C 0.0287(2) 0.0571(2) 0.83382(12)
H15_3 H 0.0323 0.1980 0.8703
C28_3 C 0.1138(2) 0.0779(2) 0.79045(12)
H14_3 H 0.0001 0.9089 0.8109
O1_2 O 0.7778(2) 0.35061(18) 0.17659(9)
O2_3 O 0.6577(3) 0.4297(2) 0.12433(11)
O5_3 O 0.9155(3) 0.2500 0.2500
C1_3 C 0.7390(2) 0.1136(3) 0.00950(12)
C2_3 C 0.6628(3) 0.1913(3) 0.00451(13)
C3_3 C 0.6579(3) 0.2704(3) 0.04340(14)
H2_3 H 0.6059 0.3231 0.0392
C4_3 C 0.7291(3) 0.2732(3) 0.08871(13)
C5_3 C 0.8070(3) 0.1980(3) 0.09391(13)
H3_3 H 0.8566 0.2000 0.1242
C6_3 C 0.8117(3) 0.1197(3) 0.05432(13)
H4_3 H 0.8658 0.0688 0.0577
C7_3 C 0.7191(3) 0.3556(3) 0.13188(13)
O7_3 O 0.7778(2) 0.14939(18) 0.32341(9)
O8 O 0.7222(2) 0.64939(18) 0.17659(9)
O10 O 0.8423(3) 0.5703(2) 0.12433(11)
Si1_4 Si 0.7500 0.0000 0.96158(5)
H1_3 H 0.6135 0.1899 0.9740
C9_3 C 0.5999(3) 0.0569(2) 0.87578(13)
H5_3 H 0.6330 0.1225 0.8770
C10_3 C 0.5207(3) 0.0383(2) 0.83634(13)
H6_3 H 0.4999 0.0911 0.8109
C22_3 C 0.8676(2) 0.0188(2) 0.91394(12)
C26_3 C 0.9985(3) 0.1327(3) 0.87150(16)
C27_3 C 0.9192(3) 0.1137(3) 0.91114(15)
H16_3 H 0.8997 0.1663 0.9369
C15_3 C 0.7610(2) 0.8864(3) 0.00950(12)
C16_3 C 0.8372(3) 0.8087(3) 0.00451(13)
C17_3 C 0.8421(3) 0.7296(3) 0.04340(14)
H10_3 H 0.8941 0.6769 0.0392
C18_3 C 0.7709(3) 0.7268(3) 0.08871(13)
C19_3 C 0.6930(3) 0.8020(3) 0.09391(13)
H11_3 H 0.6434 0.8000 0.1242
C20_3 C 0.6883(3) 0.8803(3) 0.05432(13)
H12_3 H 0.6342 0.9312 0.0577
C21_3 C 0.7809(3) 0.6444(3) 0.13188(13)
Si1_5 Si 0.7500 1.0000 0.96158(5)
C8_3 C 0.6324(2) 0.9812(2) 0.91394(12)
C11_3 C 0.4713(2) 0.9429(2) 0.83382(12)
C12_3 C 0.5015(3) 0.8673(3) 0.87150(16)
H7_3 H 0.4677 0.8020 0.8703
C13_3 C 0.5808(3) 0.8863(3) 0.91114(15)
H8_3 H 0.6003 0.8337 0.9369
C14_3 C 0.3862(2) 0.9221(2) 0.79045(12)
H9_3 H 0.8865 0.8101 0.9740
C23_3 C 0.9001(3) 0.9431(2) 0.87578(13)
H13_3 H 0.8670 0.8775 0.8770
C24_3 C 0.9793(3) 0.9617(2) 0.83634(13)
O5_4 O 0.5845(3) 0.7500 0.2500
O7_4 O 0.7222(2) 0.85061(18) 0.32341(9)
H6_4 H 0.0001 0.5911 0.6891
C11_4 C 0.0287(2) 0.4429(2) 0.66618(12)
H7_4 H 0.0323 0.3020 0.6297
C14_4 C 0.1138(2) 0.4221(2) 0.70955(12)
O10_2 O 0.6577(3) 0.0703(2) 0.37567(11)
Si1_6 Si 0.7500 0.5000 0.53842(5)
O2_4 O 0.8423(3) 0.9297(2) 0.37567(11)
C1_4 C 0.7610(2) 0.6136(3) 0.49050(12)
C2_4 C 0.8372(3) 0.6913(3) 0.49549(13)
H1_4 H 0.8865 0.6899 0.5260
C3_4 C 0.8421(3) 0.7704(3) 0.45660(14)
H2_4 H 0.8941 0.8231 0.4608
C4_4 C 0.7709(3) 0.7732(3) 0.41129(13)
C5_4 C 0.6930(3) 0.6980(3) 0.40609(13)
H3_4 H 0.6434 0.7000 0.3758
C6_4 C 0.6883(3) 0.6197(3) 0.44568(13)
H4_4 H 0.6342 0.5688 0.4423
C7_4 C 0.7809(3) 0.8556(3) 0.36812(13)
C8_4 C 0.8676(2) 0.4812(2) 0.58606(12)
C9_4 C 0.9001(3) 0.5569(2) 0.62422(13)
H5_4 H 0.8670 0.6225 0.6230
C10_4 C 0.9793(3) 0.5383(2) 0.66366(13)
C12_4 C 0.9985(3) 0.3673(3) 0.62850(16)
C13_4 C 0.9192(3) 0.3863(3) 0.58886(15)
H8_4 H 0.8997 0.3337 0.5631
C15_4 C 0.7390(2) 0.3864(3) 0.49050(12)
C16_4 C 0.6628(3) 0.3087(3) 0.49549(13)
H9_4 H 0.6135 0.3101 0.5260
C17_4 C 0.6579(3) 0.2296(3) 0.45660(14)
H10_4 H 0.6059 0.1769 0.4608
C18_4 C 0.7291(3) 0.2268(3) 0.41129(13)
C19_4 C 0.8070(3) 0.3020(3) 0.40609(13)
H11_4 H 0.8566 0.3000 0.3758
C20_4 C 0.8117(3) 0.3803(3) 0.44568(13)
H12_4 H 0.8658 0.4312 0.4423
C21_4 C 0.7191(3) 0.1444(3) 0.36812(13)
C22_4 C 0.6324(2) 0.5188(2) 0.58606(12)
C23_4 C 0.5999(3) 0.4431(2) 0.62422(13)
H13_4 H 0.6330 0.3775 0.6230
C24_4 C 0.5207(3) 0.4617(2) 0.66366(13)
H14_4 H 0.4999 0.4089 0.6891
C25_4 C 0.4713(2) 0.5571(2) 0.66618(12)
C26_4 C 0.5015(3) 0.6327(3) 0.62850(16)
H15_4 H 0.4677 0.6980 0.6297
C27_4 C 0.5808(3) 0.6137(3) 0.58886(15)
H16_4 H 0.6003 0.6663 0.5631
C28_4 C 0.3862(2) 0.5779(2) 0.70955(12)
loop_
_geom_bond_atom_site_label_1
_geom_bond_atom_site_label_2
_geom_bond_site_symmetry_1
_geom_bond_site_symmetry_2
O3 C14 1_555 1_555
O4 C14 1_555 1_555
C8 Si1 1_555 1_555
C12 C11 1_555 1_555
H7 C12 1_555 1_555
C13 C8 1_555 1_555
H8 C13 1_555 1_555
C14 C11 1_555 1_555
Zn3 O3 1_555 1_555
Zn6 O4 1_555 1_555
H13 C23 1_555 1_555
C24 C23 1_555 1_555
C12 C13 1_555 1_555
Zn4 O6 1_555 1_555
Zn7 O6 1_555 1_555
O6 C21 1_555 1_555
O9 Zn7 1_555 1_555
C16 C15 1_555 1_555
C17 C16 1_555 1_555
H10 C17 1_555 1_555
C18 C17 1_555 1_555
C19 C18 1_555 1_555
H11 C19 1_555 1_555
C20 C15 1_555 1_555
H12 C20 1_555 1_555
C21 O9 1_555 1_555
C18 C21 1_555 1_555
C19 C20 1_555 1_555
H5 C9 1_555 1_555
C10 C9 1_555 1_555
H6 C10 1_555 1_555
C22 Si1_2 1_555 1_555
C27 C22 1_555 1_555
H16 C27 1_555 1_555
C26 C27 1_555 1_555
Zn1 O1 1_555 1_555
Zn7 O1 1_555 1_555
O1 C7 1_555 1_555
O2 Zn7 1_555 1_555
O5 Zn1 1_555 1_555
C1 C2 1_555 1_555
C3 C2 1_555 1_555
H2 C3 1_555 1_555
C4 C3 1_555 1_555
C5 C4 1_555 1_555
H3 C5 1_555 1_555
C6 C1 1_555 1_555
H4 C6 1_555 1_555
C7 O2 1_555 1_555
O7 Zn1 1_555 1_555
O12 Zn1 1_555 1_555
O13 Zn1 1_555 1_555
O15 Zn7 1_555 1_555
O16 Zn7 1_555 1_555
C4 C7 1_555 1_555
C5 C6 1_555 1_555
Zn5 O11 1_555 1_555
Zn6_2 O14 1_555 1_555
O11 C28 1_555 1_555
O14 C28 1_555 1_555
C28 C25 1_555 1_555
O5_2 Zn4 1_555 1_555
O7_2 Zn4 1_555 1_555
O12_2 Zn4 1_555 1_555
O13_2 Zn4 1_555 1_555
Zn7_2 O7_2 1_555 1_555
Si1_3 C1_2 1_555 1_555
O7_2 C7_2 1_555 1_555
O2_2 Zn7_2 1_555 1_555
C1_2 C2_2 1_555 1_555
C2_2 H1_2 1_555 1_555
C3_2 C2_2 1_555 1_555
H2_2 C3_2 1_555 1_555
C4_2 C3_2 1_555 1_555
C5_2 C4_2 1_555 1_555
H3_2 C5_2 1_555 1_555
C6_2 C1_2 1_555 1_555
H4_2 C6_2 1_555 1_555
C7_2 O2_2 1_555 1_555
C8_2 Si1_3 1_555 1_555
C9_2 C8_2 1_555 1_555
H5_2 C9_2 1_555 1_555
C10_2 C9_2 1_555 1_555
C13_2 C8_2 1_555 1_555
H8_2 C13_2 1_555 1_555
Zn3 O11_2 1_555 1_555
Zn7_3 O7 1_555 1_555
Zn8 O14_2 1_555 1_555
O7 C21_2 1_555 1_555
O9_2 Zn7_3 1_555 1_555
O11_2 C28_2 1_555 1_555
O14_2 C28_2 1_555 1_555
O16_2 Zn7_2 1_555 1_555
C15_2 Si1_3 1_555 1_555
C16_2 C15_2 1_555 1_555
H9_2 C16_2 1_555 1_555
C17_2 C16_2 1_555 1_555
H10_2 C17_2 1_555 1_555
C18_2 C17_2 1_555 1_555
C19_2 C18_2 1_555 1_555
H11_2 C19_2 1_555 1_555
C20_2 C15_2 1_555 1_555
H12_2 C20_2 1_555 1_555
C21_2 O9_2 1_555 1_555
C22_2 Si1_3 1_555 1_555
C23_2 C22_2 1_555 1_555
H13_2 C23_2 1_555 1_555
C24_2 C23_2 1_555 1_555
H14_2 C24_2 1_555 1_555
C25_2 C24_2 1_555 1_555
C26_2 C25_2 1_555 1_555
H15_2 C26_2 1_555 1_555
C27_2 C22_2 1_555 1_555
H16_2 C27_2 1_555 1_555
C28_2 C25_2 1_555 1_555
C4_2 C7_2 1_555 1_555
C5_2 C6_2 1_555 1_555
C12_2 C13_2 1_555 1_555
C18_2 C21_2 1_555 1_555
C19_2 C20_2 1_555 1_555
C26_2 C27_2 1_555 1_555
O15_2 Zn7_3 1_555 1_555
O3_2 C14_2 1_555 1_555
O4_2 C14_2 1_555 1_555
C14_2 C11_2 1_555 1_555
Zn5 O3_2 1_555 1_555
Zn8 O4_2 1_555 1_555
O13_2 C28_3 1_555 1_555
O16_2 C28_3 1_555 1_555
C28_3 C25_3 1_555 1_555
Zn3 O1_2 1_555 1_555
Zn8 O1_2 1_555 1_555
O1_2 C7_3 1_555 1_555
O2_3 Zn8 1_555 1_555
O5_3 Zn3 1_555 1_555
C1_3 C2_3 1_555 1_555
C3_3 C2_3 1_555 1_555
H2_3 C3_3 1_555 1_555
C4_3 C3_3 1_555 1_555
C5_3 C4_3 1_555 1_555
H3_3 C5_3 1_555 1_555
C6_3 C1_3 1_555 1_555
H4_3 C6_3 1_555 1_555
C7_3 O2_3 1_555 1_555
O7_3 Zn3 1_555 1_555
O8 Zn8 1_555 1_555
O10 Zn8 1_555 1_555
C4_3 C7_3 1_555 1_555
C5_3 C6_3 1_555 1_555
H5_3 C9_3 1_555 1_555
C10_3 C9_3 1_555 1_555
H6_3 C10_3 1_555 1_555
C22_3 Si1_4 1_555 1_555
C27_3 C22_3 1_555 1_555
H16_3 C27_3 1_555 1_555
C26_3 C27_3 1_555 1_555
Zn5 O8 1_555 1_555
O8 C21_3 1_555 1_555
C16_3 C15_3 1_555 1_555
C17_3 C16_3 1_555 1_555
H10_3 C17_3 1_555 1_555
C18_3 C17_3 1_555 1_555
C19_3 C18_3 1_555 1_555
H11_3 C19_3 1_555 1_555
C20_3 C15_3 1_555 1_555
H12_3 C20_3 1_555 1_555
C21_3 O10 1_555 1_555
C18_3 C21_3 1_555 1_555
C19_3 C20_3 1_555 1_555
O13 C14_3 1_555 1_555
O15_2 C14_3 1_555 1_555
C8_3 Si1_5 1_555 1_555
C12_3 C11_3 1_555 1_555
H7_3 C12_3 1_555 1_555
C13_3 C8_3 1_555 1_555
H8_3 C13_3 1_555 1_555
C14_3 C11_3 1_555 1_555
H13_3 C23_3 1_555 1_555
C24_3 C23_3 1_555 1_555
C12_3 C13_3 1_555 1_555
O5_4 Zn5 1_555 1_555
O7_4 Zn5 1_555 1_555
O12_2 C14_4 1_555 1_555
O15 C14_4 1_555 1_555
C14_4 C11_4 1_555 1_555
O7_3 Zn6 1_555 1_555
O10_2 Zn6 1_555 1_555
Zn6_2 O7_4 1_555 1_555
Si1_6 C1_4 1_555 1_555
O7_4 C7_4 1_555 1_555
O2_4 Zn6_2 1_555 1_555
C1_4 C2_4 1_555 1_555
C2_4 H1_4 1_555 1_555
C3_4 C2_4 1_555 1_555
H2_4 C3_4 1_555 1_555
C4_4 C3_4 1_555 1_555
C5_4 C4_4 1_555 1_555
H3_4 C5_4 1_555 1_555
C6_4 C1_4 1_555 1_555
H4_4 C6_4 1_555 1_555
C7_4 O2_4 1_555 1_555
C8_4 Si1_6 1_555 1_555
C9_4 C8_4 1_555 1_555
H5_4 C9_4 1_555 1_555
C10_4 C9_4 1_555 1_555
C13_4 C8_4 1_555 1_555
H8_4 C13_4 1_555 1_555
O7_3 C21_4 1_555 1_555
O12 C28_4 1_555 1_555
O16 C28_4 1_555 1_555
C15_4 Si1_6 1_555 1_555
C16_4 C15_4 1_555 1_555
H9_4 C16_4 1_555 1_555
C17_4 C16_4 1_555 1_555
H10_4 C17_4 1_555 1_555
C18_4 C17_4 1_555 1_555
C19_4 C18_4 1_555 1_555
H11_4 C19_4 1_555 1_555
C20_4 C15_4 1_555 1_555
H12_4 C20_4 1_555 1_555
C21_4 O10_2 1_555 1_555
C22_4 Si1_6 1_555 1_555
C23_4 C22_4 1_555 1_555
H13_4 C23_4 1_555 1_555
C24_4 C23_4 1_555 1_555
H14_4 C24_4 1_555 1_555
C25_4 C24_4 1_555 1_555
C26_4 C25_4 1_555 1_555
H15_4 C26_4 1_555 1_555
C27_4 C22_4 1_555 1_555
H16_4 C27_4 1_555 1_555
C28_4 C25_4 1_555 1_555
C4_4 C7_4 1_555 1_555
C5_4 C6_4 1_555 1_555
C12_4 C13_4 1_555 1_555
C18_4 C21_4 1_555 1_555
C19_4 C20_4 1_555 1_555
C26_4 C27_4 1_555 1_555

#END
