
###############################################################################
#
# This file contains modified crystal structure data generated from the
# MOF subset of the Cambridge Structural Database (CSD) v543 
# hosted by the Cambridge Crystallographic Data Centre (CCDC).
#
# This work is licensed under the Creative Commons
# Attribution-NonCommercial-ShareAlike 4.0 International License.
# To view a copy of this license, visit
# http://creativecommons.org/licenses/by-nc-sa/4.0/
# or send a letter to
# Creative Commons, PO Box 1866, Mountain View, CA 94042, USA.
#
# CIF created using the CSD Python API on 29 September 2022
# The structure has been converted into the P1 space group
# The structure has a 3D framework
# The original CSD entry YOCPEN is in the monoclinic crystal system
# The framework has been calculated to contain at least 10.0% void space
# The void calculation uses a probe of radius 1.32A, grid spacing 0.4
# H atom positions have been added when not included in the experimental data
#
###############################################################################

data_YOCPEN
_chemical_formula_moiety         '(C120 H112 Cu8 N62 O168 Si4 W48)n'
_symmetry_cell_setting           triclinic
_symmetry_space_group_name_H-M   'P 1'
_symmetry_Int_Tables_number      1
_space_group_name_Hall           'P 1'
loop_
_symmetry_equiv_pos_site_id
_symmetry_equiv_pos_as_xyz
1 x,y,z
_cell_length_a                   18.0334(12)
_cell_length_b                   17.4912(11)
_cell_length_c                   23.409(2)
_cell_angle_alpha                90
_cell_angle_beta                 109.440(9)
_cell_angle_gamma                90
_cell_volume                     6962.86
loop_
_atom_site_label
_atom_site_type_symbol
_atom_site_fract_x
_atom_site_fract_y
_atom_site_fract_z
Cu1 Cu 0.32891(7) 0.36113(7) 0.20181(7)
Cu2 Cu 0.65551(6) 0.07454(7) 0.26599(7)
W1 W 0.14431(2) 0.39678(3) 0.34549(2)
W2 W 0.35119(2) 0.33941(3) 0.38361(2)
W3 W 0.30329(2) 0.53037(3) 0.42781(2)
W4 W 0.22359(2) 0.54893(3) 0.53726(2)
W5 W 0.06507(2) 0.41550(3) 0.45445(2)
W6 W 0.11276(2) 0.24185(3) 0.41747(2)
W7 W 0.31969(2) 0.18349(2) 0.45465(2)
W8 W 0.46161(2) 0.30673(3) 0.52797(2)
W9 W 0.41232(2) 0.49740(2) 0.57169(2)
W10 W 0.37492(2) 0.32632(3) 0.64938(2)
W11 W 0.23291(2) 0.20349(3) 0.57607(2)
W12 W 0.18577(2) 0.37645(3) 0.61380(2)
Si1 Si 0.26552(14) 0.36414(15) 0.49670(12)
C1 C 0.1741(6) 0.4461(7) 0.1562(7)
H1 H 0.2045 0.4890 0.1560
C2 C 0.0942(6) 0.4525(7) 0.1314(6)
H2 H 0.0713 0.4982 0.1139
C3 C 0.0494(6) 0.3922(7) 0.1329(5)
C4 C 0.0849(6) 0.3243(6) 0.1592(5)
H4 H 0.0549 0.2818 0.1613
C5 C 0.1661(5) 0.3218(6) 0.1821(5)
C6 C 0.2138(5) 0.2546(6) 0.2070(5)
C7 C 0.3160(5) 0.1849(6) 0.2381(5)
C8 C 0.3961(5) 0.1541(6) 0.2492(5)
C9 C 0.4106(6) 0.1107(6) 0.2054(6)
H5 H 0.3696 0.0985 0.1702
C10 C 0.4845(5) 0.0853(6) 0.2129(6)
H6 H 0.4924 0.0550 0.1828
C11 C 0.5316(6) 0.1433(6) 0.3056(6)
H7 H 0.5732 0.1544 0.3407
C12 C 0.4581(6) 0.1698(6) 0.3010(6)
H8 H 0.4504 0.1979 0.3323
C13 C 0.1166(5) 0.1556(6) 0.2173(6)
H9 H 0.0848 0.1927 0.2295
H10 H 0.0907 0.1440 0.1748
C14 C 0.1347(5) 0.0170(6) 0.2383(5)
H11 H 0.1349 0.0007 0.2005
C15 C 0.1424(6) 0.0232(7) 0.3301(6)
H12 H 0.1496 0.0085 0.3698
C18 C 0.9323(7) 0.0293(8) 0.3326(8)
H15 H 0.9865 0.0228 0.3468
C19 C 0.9006(7) 0.1006(8) 0.3239(8)
H16 H 0.9337 0.1429 0.3320
C20 C 0.8207(5) 0.1111(6) 0.3035(6)
C21 C 0.7785(5) 0.1824(6) 0.2955(5)
C22 C 0.6783(6) 0.2568(6) 0.2705(5)
C23 C 0.5975(5) 0.2857(6) 0.2500(5)
C24 C 0.5423(6) 0.2603(6) 0.1980(5)
H17 H 0.5566 0.2264 0.1729
C25 C 0.4659(6) 0.2848(6) 0.1827(5)
H18 H 0.4290 0.2658 0.1476
C26 C 0.4984(5) 0.3636(6) 0.2658(5)
H19 H 0.4836 0.4006 0.2885
C27 C 0.5747(6) 0.3414(6) 0.2843(6)
H20 H 0.6111 0.3624 0.3188
C28 C 0.8797(6) 0.2913(6) 0.3352(6)
H21 H 0.8831 0.3068 0.3758
H22 H 0.9210 0.2543 0.3383
C29 C 0.8671(5) 0.4281(6) 0.3041(5)
H23 H 0.8467 0.4471 0.3328
C30 C 0.9098(6) 0.4148(7) 0.2325(7)
H24 H 0.9248 0.4265 0.1992
N1 N 0.2105(4) 0.3823(5) 0.1804(5)
N2 N 0.2910(4) 0.2561(5) 0.2151(4)
N3 N 0.1957(4) 0.1878(5) 0.2264(4)
N4 N 0.2593(4) 0.1417(5) 0.2442(4)
N5 N 0.5466(4) 0.1022(5) 0.2621(4)
N6 N 0.1244(4) 0.0874(5) 0.2527(4)
N7 N 0.1294(6) 0.0927(6) 0.3119(5)
N9 N 0.7727(4) 0.0497(5) 0.2898(4)
N10 N 0.7002(4) 0.1822(5) 0.2749(4)
N11 N 0.8020(5) 0.2568(5) 0.3038(5)
N12 N 0.7392(4) 0.3040(5) 0.2906(5)
N13 N 0.4424(4) 0.3351(5) 0.2165(4)
N14 N 0.8891(5) 0.3567(5) 0.3010(5)
N15 N 0.9170(5) 0.3480(6) 0.2549(6)
N16 N 0.8786(5) 0.4681(5) 0.2603(5)
O1 O 0.1063(4) 0.4227(5) 0.2721(3)
O2 O 0.0637(4) 0.4353(4) 0.3743(3)
O3 O 0.1015(4) 0.2977(4) 0.3448(3)
O4 O 0.2070(3) 0.4835(4) 0.3803(3)
O5 O 0.2404(3) 0.3487(4) 0.3492(3)
O6 O 0.3767(4) 0.3450(4) 0.3193(4)
O7 O 0.3399(4) 0.2313(4) 0.3870(3)
O8 O 0.4527(3) 0.3275(4) 0.4458(3)
O9 O 0.3518(3) 0.4433(4) 0.4064(3)
O10 O 0.3151(4) 0.5982(4) 0.3788(4)
O11 O 0.3962(4) 0.5484(4) 0.4960(3)
O12 O 0.2459(4) 0.5894(4) 0.4680(4)
O13 O 0.3325(4) 0.5631(4) 0.5825(3)
O14 O 0.1857(4) 0.6290(4) 0.5584(4)
O15 O 0.1319(4) 0.5017(4) 0.4820(3)
O16 O 0.2160(3) 0.4749(4) 0.5950(3)
O18 O 0.1052(4) 0.3820(4) 0.5372(3)
O19 O 0.0386(4) 0.3117(4) 0.4322(4)
O20 O 0.0529(4) 0.1658(4) 0.3926(4)
O21 O 0.1493(4) 0.2191(4) 0.5019(3)
O22 O 0.2107(3) 0.2050(4) 0.4171(3)
O23 O 0.3257(4) 0.0893(4) 0.4380(4)
O24 O 0.2947(4) 0.1768(4) 0.5275(4)
O25 O 0.4266(4) 0.2041(4) 0.5027(4)
O26 O 0.5609(4) 0.2895(4) 0.5578(4)
O27 O 0.4303(3) 0.2926(4) 0.5965(3)
O28 O 0.4560(4) 0.4129(4) 0.5424(3)
O29 O 0.4947(4) 0.5421(4) 0.6176(4)
O30 O 0.3938(4) 0.4267(4) 0.6268(3)
O31 O 0.4460(4) 0.3185(5) 0.7187(4)
O32 O 0.3257(4) 0.2287(4) 0.6409(4)
O33 O 0.2891(4) 0.3653(4) 0.6713(3)
O34 O 0.2116(4) 0.1156(5) 0.5981(4)
O35 O 0.1756(4) 0.2673(4) 0.6141(3)
O36 O 0.1341(4) 0.4008(4) 0.6604(3)
O37 O 0.2911(3) 0.4529(4) 0.5055(3)
O38 O 0.3271(3) 0.3156(4) 0.4742(3)
O39 O 0.1786(3) 0.3577(4) 0.4465(3)
O40 O 0.2637(3) 0.3301(4) 0.5608(3)
O41 O 0.3054(5) 0.3599(5) 0.1008(4)
O42 O 0.6891(7) 0.0468(9) 0.3772(6)
Cu4 Cu 0.84449(6) 0.57454(7) 0.23401(7)
Cu5 Cu 0.15551(6) 0.42546(7) 0.76599(7)
N17 N 0.3552(4) 0.4725(5) 0.2140(4)
O43 O 0.6341(4) 0.0992(4) 0.1604(3)
H25 H 0.28372 0.410151 0.0833427
H26 H 0.355262 0.350029 0.0927752
H27 H 0.654262 0.00565493 0.382888
H28 H 0.744773 0.03005 0.394139
C16 C 0.8043(6) 0.9800(6) 0.2971(6)
H13 H 0.7707 0.9381 0.2860
C17 C 0.8833(6) 0.9669(8) 0.3202(7)
H14 H 0.9032 0.9175 0.3272
N8 N 0.1448(4) 0.9725(5) 0.2860(4)
Cu3 Cu 0.17109(7) 0.86113(7) 0.29819(7)
N18 N 0.6214(5) 0.9681(5) 0.2397(5)
W1_2 W 0.35569(2) 0.89678(3) 0.15451(2)
W2_2 W 0.14881(2) 0.83941(3) 0.11639(2)
W5_2 W 0.43493(2) 0.91550(3) 0.04555(2)
W6_2 W 0.38724(2) 0.74185(3) 0.08253(2)
W7_2 W 0.18031(2) 0.68349(2) 0.04535(2)
Si1_2 Si 0.23448(14) 0.86414(15) 0.00330(12)
C1_2 C 0.3259(6) 0.9461(7) 0.3438(7)
H1_2 H 0.2955 0.9890 0.3440
C2_2 C 0.4058(6) 0.9525(7) 0.3686(6)
H2_2 H 0.4287 0.9982 0.3861
C3_2 C 0.4506(6) 0.8922(7) 0.3671(5)
H3 H 0.5051 0.8956 0.3836
C4_2 C 0.4151(6) 0.8243(6) 0.3408(5)
H4_2 H 0.4451 0.7818 0.3387
C5_2 C 0.3339(5) 0.8218(6) 0.3179(5)
C6_2 C 0.2862(5) 0.7546(6) 0.2930(5)
C7_2 C 0.1840(5) 0.6849(6) 0.2619(5)
C8_2 C 0.1039(5) 0.6541(6) 0.2508(5)
C9_2 C 0.0894(6) 0.6107(6) 0.2946(6)
H5_2 H 0.1304 0.5985 0.3298
C10_2 C 0.0155(5) 0.5853(6) 0.2871(6)
H6_2 H 0.0076 0.5550 0.3172
C12_2 C 0.0419(6) 0.6698(6) 0.1990(6)
H8_2 H 0.0496 0.6979 0.1677
C13_2 C 0.3834(5) 0.6556(6) 0.2827(6)
H9_2 H 0.4152 0.6927 0.2705
H10_2 H 0.4093 0.6440 0.3252
C14_2 C 0.3653(5) 0.5170(6) 0.2617(5)
H11_2 H 0.3651 0.5007 0.2995
C15_2 C 0.3576(6) 0.5232(7) 0.1699(6)
H12_2 H 0.3504 0.5085 0.1302
C25_2 C 0.0341(6) 0.7848(6) 0.3173(5)
H18_2 H 0.0710 0.7658 0.3524
C26_2 C 0.0016(5) 0.8636(6) 0.2342(5)
H19_2 H 0.0164 0.9006 0.2115
N1_2 N 0.2895(4) 0.8823(5) 0.3196(5)
N2_2 N 0.2090(4) 0.7561(5) 0.2849(4)
N3_2 N 0.3043(4) 0.6878(5) 0.2736(4)
N4_2 N 0.2407(4) 0.6417(5) 0.2558(4)
N6_2 N 0.3756(4) 0.5874(5) 0.2473(4)
N7_2 N 0.3706(6) 0.5927(6) 0.1881(5)
N13_2 N 0.0576(4) 0.8351(5) 0.2835(4)
O1_2 O 0.3937(4) 0.9227(5) 0.2279(3)
O2_2 O 0.4363(4) 0.9353(4) 0.1257(3)
O3_2 O 0.3985(4) 0.7977(4) 0.1552(3)
O4_2 O 0.2930(3) 0.9835(4) 0.1197(3)
O5_2 O 0.2596(3) 0.8487(4) 0.1508(3)
O6_2 O 0.1233(4) 0.8450(4) 0.1807(4)
O7_2 O 0.1601(4) 0.7313(4) 0.1130(3)
O8_2 O 0.0473(3) 0.8275(4) 0.0542(3)
O9_2 O 0.1482(3) 0.9433(4) 0.0936(3)
O17 O 0.5255(4) 0.9494(4) 0.0517(4)
O19_2 O 0.4614(4) 0.8117(4) 0.0678(4)
O20_2 O 0.4471(4) 0.6658(4) 0.1074(4)
O22_2 O 0.2893(3) 0.7050(4) 0.0829(3)
O23_2 O 0.1743(4) 0.5893(4) 0.0620(4)
O38_2 O 0.1729(3) 0.8156(4) 0.0258(3)
O39_2 O 0.3214(3) 0.8577(4) 0.0535(3)
O41_2 O 0.1946(5) 0.8599(5) 0.3992(4)
H25_2 H 0.21628 0.910151 0.416657
H26_2 H 0.144738 0.850029 0.407225
W8_2 W 0.03839(2) 0.80673(3) 0.97203(2)
W9_2 W 0.08768(2) 0.99740(2) 0.92831(2)
W10_2 W 0.12508(2) 0.82632(3) 0.85062(2)
W11_2 W 0.26709(2) 0.70349(3) 0.92393(2)
W12_2 W 0.31423(2) 0.87645(3) 0.88620(2)
O16_2 O 0.2840(3) 0.9749(4) 0.9050(3)
O18_2 O 0.3948(4) 0.8820(4) 0.9628(3)
O21_2 O 0.3507(4) 0.7191(4) 0.9981(3)
O24_2 O 0.2053(4) 0.6768(4) 0.9725(4)
O25_2 O 0.0734(4) 0.7041(4) 0.9973(4)
O27_2 O 0.0697(3) 0.7926(4) 0.9035(3)
O28_2 O 0.0440(4) 0.9129(4) 0.9576(3)
O30_2 O 0.1062(4) 0.9267(4) 0.8732(3)
O31_2 O 0.0540(4) 0.8185(5) 0.7813(4)
O32_2 O 0.1743(4) 0.7287(4) 0.8591(4)
O33_2 O 0.2109(4) 0.8653(4) 0.8287(3)
O34_2 O 0.2884(4) 0.6156(5) 0.9019(4)
O35_2 O 0.3244(4) 0.7673(4) 0.8859(3)
O36_2 O 0.3659(4) 0.9008(4) 0.8396(3)
O37_2 O 0.2089(3) 0.9529(4) 0.9945(3)
O40_2 O 0.2363(3) 0.8301(4) 0.9392(3)
Cu5_2 Cu 0.34449(6) 0.92546(7) 0.73401(7)
C11_2 C 0.9684(6) 0.6433(6) 0.1944(6)
H7_2 H 0.9268 0.6544 0.1593
C16_2 C 0.6957(6) 0.4800(6) 0.2029(6)
H13_2 H 0.7293 0.4381 0.2140
C17_2 C 0.6167(6) 0.4669(8) 0.1798(7)
H14_2 H 0.5968 0.4175 0.1728
C18_2 C 0.5677(7) 0.5293(8) 0.1674(8)
H15_2 H 0.5135 0.5228 0.1532
C19_2 C 0.5994(7) 0.6006(8) 0.1761(8)
H16_2 H 0.5663 0.6429 0.1680
C20_2 C 0.6793(5) 0.6111(6) 0.1965(6)
C21_2 C 0.7215(5) 0.6824(6) 0.2045(5)
C22_2 C 0.8217(6) 0.7568(6) 0.2295(5)
C23_2 C 0.9025(5) 0.7857(6) 0.2500(5)
C24_2 C 0.9577(6) 0.7603(6) 0.3020(5)
H17_2 H 0.9434 0.7264 0.3271
C27_2 C 0.9253(6) 0.8414(6) 0.2157(6)
H20_2 H 0.8889 0.8624 0.1812
C28_2 C 0.6203(6) 0.7913(6) 0.1648(6)
H21_2 H 0.6169 0.8068 0.1242
H22_2 H 0.5790 0.7543 0.1617
C29_2 C 0.6329(5) 0.9281(6) 0.1959(5)
H23_2 H 0.6533 0.9471 0.1672
C30_2 C 0.5902(6) 0.9148(7) 0.2675(7)
H24_2 H 0.5752 0.9265 0.3008
N5_2 N 0.9534(4) 0.6022(5) 0.2379(4)
N9_2 N 0.7273(4) 0.5497(5) 0.2102(4)
N10_2 N 0.7998(4) 0.6822(5) 0.2251(4)
N11_2 N 0.6980(5) 0.7568(5) 0.1962(5)
N12_2 N 0.7608(4) 0.8040(5) 0.2094(5)
N14_2 N 0.6109(5) 0.8567(5) 0.1990(5)
N15_2 N 0.5830(5) 0.8480(6) 0.2451(6)
O42_2 O 0.8109(7) 0.5468(9) 0.1228(6)
O43_2 O 0.8659(4) 0.5992(4) 0.3396(3)
H27_2 H 0.845738 0.505655 0.117112
H28_2 H 0.755227 0.53005 0.105861
C16_3 C 0.1957(6) 0.0200(6) 0.7029(6)
H13_3 H 0.2293 0.0619 0.7140
C17_3 C 0.1167(6) 0.0331(8) 0.6798(7)
H14_3 H 0.0968 0.0825 0.6728
N8_2 N 0.8552(4) 0.0275(5) 0.7140(4)
Cu3_2 Cu 0.82891(7) 0.13887(7) 0.70181(7)
N18_2 N 0.3786(5) 0.0319(5) 0.7603(5)
Cu1_2 Cu 0.67109(7) 0.63887(7) 0.79819(7)
W1_3 W 0.85569(2) 0.60322(3) 0.65451(2)
W2_3 W 0.64881(2) 0.66059(3) 0.61639(2)
W3_2 W 0.69671(2) 0.46963(3) 0.57219(2)
W4_2 W 0.77641(2) 0.45107(3) 0.46274(2)
W5_3 W 0.93493(2) 0.58450(3) 0.54555(2)
W6_3 W 0.88724(2) 0.75815(3) 0.58253(2)
W7_3 W 0.68031(2) 0.81651(2) 0.54535(2)
W8_3 W 0.53839(2) 0.69327(3) 0.47203(2)
W9_3 W 0.58768(2) 0.50260(2) 0.42831(2)
W10_3 W 0.62508(2) 0.67368(3) 0.35062(2)
W11_3 W 0.76709(2) 0.79651(3) 0.42393(2)
W12_3 W 0.81423(2) 0.62355(3) 0.38620(2)
Si1_3 Si 0.73448(14) 0.63586(15) 0.50330(12)
C1_3 C 0.8259(6) 0.5539(7) 0.8438(7)
H1_3 H 0.7955 0.5110 0.8440
C2_3 C 0.9058(6) 0.5475(7) 0.8686(6)
H2_3 H 0.9287 0.5018 0.8861
C3_3 C 0.9506(6) 0.6078(7) 0.8671(5)
C4_3 C 0.9151(6) 0.6757(6) 0.8408(5)
H4_3 H 0.9451 0.7182 0.8387
C5_3 C 0.8339(5) 0.6782(6) 0.8179(5)
C6_3 C 0.7862(5) 0.7454(6) 0.7930(5)
C7_3 C 0.6840(5) 0.8151(6) 0.7619(5)
C8_3 C 0.6039(5) 0.8459(6) 0.7508(5)
C9_3 C 0.5894(6) 0.8893(6) 0.7946(6)
H5_3 H 0.6304 0.9015 0.8298
C10_3 C 0.5155(5) 0.9147(6) 0.7871(6)
H6_3 H 0.5076 0.9450 0.8172
C11_3 C 0.4684(6) 0.8567(6) 0.6944(6)
H7_3 H 0.4268 0.8456 0.6593
C12_3 C 0.5419(6) 0.8302(6) 0.6990(6)
H8_3 H 0.5496 0.8021 0.6677
C13_3 C 0.8834(5) 0.8444(6) 0.7827(6)
H9_3 H 0.9152 0.8073 0.7705
H10_3 H 0.9093 0.8560 0.8252
C14_3 C 0.8653(5) 0.9830(6) 0.7617(5)
H11_3 H 0.8651 0.9993 0.7995
C15_3 C 0.8576(6) 0.9768(7) 0.6699(6)
H12_3 H 0.8504 0.9915 0.6302
C18_3 C 0.0677(7) 0.9707(8) 0.6674(8)
H15_3 H 0.0135 0.9772 0.6532
C19_3 C 0.0994(7) 0.8994(8) 0.6761(8)
H16_3 H 0.0663 0.8571 0.6680
C20_3 C 0.1793(5) 0.8889(6) 0.6965(6)
C21_3 C 0.2215(5) 0.8176(6) 0.7045(5)
C22_3 C 0.3217(6) 0.7432(6) 0.7295(5)
C23_3 C 0.4025(5) 0.7143(6) 0.7500(5)
C24_3 C 0.4577(6) 0.7397(6) 0.8020(5)
H17_3 H 0.4434 0.7736 0.8271
C25_3 C 0.5341(6) 0.7152(6) 0.8173(5)
H18_3 H 0.5710 0.7342 0.8524
C26_3 C 0.5016(5) 0.6364(6) 0.7342(5)
H19_3 H 0.5164 0.5994 0.7115
C27_3 C 0.4253(6) 0.6586(6) 0.7157(6)
H20_3 H 0.3889 0.6376 0.6812
C28_3 C 0.1203(6) 0.7087(6) 0.6648(6)
H21_3 H 0.1169 0.6932 0.6242
H22_3 H 0.0790 0.7457 0.6617
C29_3 C 0.1329(5) 0.5719(6) 0.6959(5)
H23_3 H 0.1533 0.5529 0.6672
C30_3 C 0.0902(6) 0.5852(7) 0.7675(7)
H24_3 H 0.0752 0.5735 0.8008
N1_3 N 0.7895(4) 0.6177(5) 0.8196(5)
N2_3 N 0.7090(4) 0.7439(5) 0.7849(4)
N3_3 N 0.8043(4) 0.8122(5) 0.7736(4)
N4_3 N 0.7407(4) 0.8583(5) 0.7558(4)
N5_3 N 0.4534(4) 0.8978(5) 0.7379(4)
N6_3 N 0.8756(4) 0.9126(5) 0.7473(4)
N7_3 N 0.8706(6) 0.9073(6) 0.6881(5)
N9_3 N 0.2273(4) 0.9503(5) 0.7102(4)
N10_3 N 0.2998(4) 0.8178(5) 0.7251(4)
N11_3 N 0.1980(5) 0.7432(5) 0.6962(5)
N12_3 N 0.2608(4) 0.6960(5) 0.7094(5)
N13_3 N 0.5576(4) 0.6649(5) 0.7835(4)
N14_3 N 0.1109(5) 0.6433(5) 0.6990(5)
N15_3 N 0.0830(5) 0.6520(6) 0.7451(6)
N16_2 N 0.1214(5) 0.5319(5) 0.7397(5)
O1_3 O 0.8937(4) 0.5773(5) 0.7279(3)
O2_3 O 0.9363(4) 0.5647(4) 0.6257(3)
O3_3 O 0.8985(4) 0.7023(4) 0.6552(3)
O4_3 O 0.7930(3) 0.5165(4) 0.6197(3)
O5_3 O 0.7596(3) 0.6513(4) 0.6508(3)
O6_3 O 0.6233(4) 0.6550(4) 0.6807(4)
O7_3 O 0.6601(4) 0.7687(4) 0.6130(3)
O8_3 O 0.5473(3) 0.6725(4) 0.5542(3)
O9_3 O 0.6482(3) 0.5567(4) 0.5936(3)
O10_2 O 0.6849(4) 0.4018(4) 0.6212(4)
O11_2 O 0.6038(4) 0.4516(4) 0.5040(3)
O12_2 O 0.7541(4) 0.4106(4) 0.5320(4)
O13_2 O 0.6675(4) 0.4369(4) 0.4175(3)
O14_2 O 0.8143(4) 0.3710(4) 0.4416(4)
O15_2 O 0.8681(4) 0.4983(4) 0.5180(3)
O16_3 O 0.7840(3) 0.5251(4) 0.4050(3)
O18_3 O 0.8948(4) 0.6180(4) 0.4628(3)
O19_3 O 0.9614(4) 0.6883(4) 0.5678(4)
O20_3 O 0.9471(4) 0.8342(4) 0.6074(4)
O21_3 O 0.8507(4) 0.7809(4) 0.4981(3)
O22_3 O 0.7893(3) 0.7950(4) 0.5829(3)
O23_3 O 0.6743(4) 0.9107(4) 0.5620(4)
O24_3 O 0.7053(4) 0.8232(4) 0.4725(4)
O25_3 O 0.5734(4) 0.7959(4) 0.4973(4)
O26_2 O 0.4391(4) 0.7105(4) 0.4422(4)
O27_3 O 0.5697(3) 0.7074(4) 0.4035(3)
O28_3 O 0.5440(4) 0.5871(4) 0.4576(3)
O29_2 O 0.5053(4) 0.4579(4) 0.3824(4)
O30_3 O 0.6062(4) 0.5733(4) 0.3732(3)
O31_3 O 0.5540(4) 0.6815(5) 0.2813(4)
O32_3 O 0.6743(4) 0.7713(4) 0.3591(4)
O33_3 O 0.7109(4) 0.6347(4) 0.3287(3)
O34_3 O 0.7884(4) 0.8844(5) 0.4019(4)
O35_3 O 0.8244(4) 0.7327(4) 0.3859(3)
O37_3 O 0.7089(3) 0.5471(4) 0.4945(3)
O38_3 O 0.6729(3) 0.6844(4) 0.5258(3)
O39_3 O 0.8214(3) 0.6423(4) 0.5535(3)
O40_3 O 0.7363(3) 0.6699(4) 0.4392(3)
O41_3 O 0.6946(5) 0.6401(5) 0.8992(4)
O42_3 O 0.3109(7) 0.9532(9) 0.6228(6)
N17_2 N 0.6448(4) 0.5275(5) 0.7860(4)
H25_3 H 0.71628 0.589849 0.916657
H26_3 H 0.644738 0.649971 0.907225
H27_3 H 0.345738 0.994345 0.617112
H28_3 H 0.255227 0.96995 0.605861
C11_4 C 0.0316(6) 0.3567(6) 0.8056(6)
H7_4 H 0.0732 0.3456 0.8407
C16_4 C 0.3043(6) 0.5200(6) 0.7971(6)
H13_4 H 0.2707 0.5619 0.7860
C17_4 C 0.3833(6) 0.5331(8) 0.8202(7)
H14_4 H 0.4032 0.5825 0.8272
C18_4 C 0.4323(7) 0.4707(8) 0.8326(8)
H15_4 H 0.4865 0.4772 0.8468
C19_4 C 0.4006(7) 0.3994(8) 0.8239(8)
H16_4 H 0.4337 0.3571 0.8320
C20_4 C 0.3207(5) 0.3889(6) 0.8035(6)
C21_4 C 0.2785(5) 0.3176(6) 0.7955(5)
C22_4 C 0.1783(6) 0.2432(6) 0.7705(5)
C23_4 C 0.0975(5) 0.2143(6) 0.7500(5)
C24_4 C 0.0423(6) 0.2397(6) 0.6980(5)
H17_4 H 0.0566 0.2736 0.6729
C27_4 C 0.0747(6) 0.1586(6) 0.7843(6)
H20_4 H 0.1111 0.1376 0.8188
C28_4 C 0.3797(6) 0.2087(6) 0.8352(6)
H21_4 H 0.3831 0.1932 0.8758
H22_4 H 0.4210 0.2457 0.8383
C29_4 C 0.3671(5) 0.0719(6) 0.8041(5)
H23_4 H 0.3467 0.0529 0.8328
C30_4 C 0.4098(6) 0.0852(7) 0.7325(7)
H24_4 H 0.4248 0.0735 0.6992
N5_4 N 0.0466(4) 0.3978(5) 0.7621(4)
N9_4 N 0.2727(4) 0.4503(5) 0.7898(4)
N10_4 N 0.2002(4) 0.3178(5) 0.7749(4)
N11_4 N 0.3020(5) 0.2432(5) 0.8038(5)
N12_4 N 0.2392(4) 0.1960(5) 0.7906(5)
N14_4 N 0.3891(5) 0.1433(5) 0.8010(5)
N15_4 N 0.4170(5) 0.1520(6) 0.7549(6)
O42_4 O 0.1891(7) 0.4532(9) 0.8772(6)
H27_4 H 0.154262 0.494345 0.882888
H28_4 H 0.244773 0.46995 0.894139
W8_4 W 0.96161(2) 0.19327(3) 0.02797(2)
W9_4 W 0.91232(2) 0.00260(2) 0.07169(2)
W10_4 W 0.87492(2) 0.17368(3) 0.14938(2)
W11_4 W 0.73291(2) 0.29651(3) 0.07607(2)
W12_4 W 0.68577(2) 0.12355(3) 0.11380(2)
O16_4 O 0.7160(3) 0.0251(4) 0.0950(3)
O18_4 O 0.6052(4) 0.1180(4) 0.0372(3)
O21_4 O 0.6493(4) 0.2809(4) 0.0019(3)
O24_4 O 0.7947(4) 0.3232(4) 0.0275(4)
O25_4 O 0.9266(4) 0.2959(4) 0.0027(4)
O27_4 O 0.9303(3) 0.2074(4) 0.0965(3)
O28_4 O 0.9560(4) 0.0871(4) 0.0424(3)
O30_4 O 0.8938(4) 0.0733(4) 0.1268(3)
O31_4 O 0.9460(4) 0.1815(5) 0.2187(4)
O32_4 O 0.8257(4) 0.2713(4) 0.1409(4)
O33_4 O 0.7891(4) 0.1347(4) 0.1713(3)
O34_4 O 0.7116(4) 0.3844(5) 0.0981(4)
O35_4 O 0.6756(4) 0.2327(4) 0.1141(3)
O37_4 O 0.7911(3) 0.0471(4) 0.0055(3)
O40_4 O 0.7637(3) 0.1699(4) 0.0608(3)
W1_4 W 0.64431(2) 0.10322(3) 0.84549(2)
W2_4 W 0.85119(2) 0.16059(3) 0.88361(2)
W5_4 W 0.56507(2) 0.08450(3) 0.95445(2)
W6_4 W 0.61276(2) 0.25815(3) 0.91747(2)
W7_4 W 0.81969(2) 0.31651(2) 0.95465(2)
Si1_4 Si 0.76552(14) 0.13586(15) 0.99670(12)
C1_4 C 0.6741(6) 0.0539(7) 0.6562(7)
H1_4 H 0.7045 0.0110 0.6560
C2_4 C 0.5942(6) 0.0475(7) 0.6314(6)
H2_4 H 0.5713 0.0018 0.6139
C3_4 C 0.5494(6) 0.1078(7) 0.6329(5)
H3_2 H 0.4949 0.1044 0.6164
C4_4 C 0.5849(6) 0.1757(6) 0.6592(5)
H4_4 H 0.5549 0.2182 0.6613
C5_4 C 0.6661(5) 0.1782(6) 0.6821(5)
C6_4 C 0.7138(5) 0.2454(6) 0.7070(5)
C7_4 C 0.8160(5) 0.3151(6) 0.7381(5)
C8_4 C 0.8961(5) 0.3459(6) 0.7492(5)
C9_4 C 0.9106(6) 0.3893(6) 0.7054(6)
H5_4 H 0.8696 0.4015 0.6702
C10_4 C 0.9845(5) 0.4147(6) 0.7129(6)
H6_4 H 0.9924 0.4450 0.6828
C12_4 C 0.9581(6) 0.3302(6) 0.8010(6)
H8_4 H 0.9504 0.3021 0.8323
C13_4 C 0.6166(5) 0.3444(6) 0.7173(6)
H9_4 H 0.5848 0.3073 0.7295
H10_4 H 0.5907 0.3560 0.6748
C14_4 C 0.6347(5) 0.4830(6) 0.7383(5)
H11_4 H 0.6349 0.4993 0.7005
C15_4 C 0.6424(6) 0.4768(7) 0.8301(6)
H12_4 H 0.6496 0.4915 0.8698
C25_4 C 0.9659(6) 0.2152(6) 0.6827(5)
H18_4 H 0.9290 0.2342 0.6476
C26_4 C 0.9984(5) 0.1364(6) 0.7658(5)
H19_4 H 0.9836 0.0994 0.7885
N1_4 N 0.7105(4) 0.1177(5) 0.6804(5)
N2_4 N 0.7910(4) 0.2439(5) 0.7151(4)
N3_4 N 0.6957(4) 0.3122(5) 0.7264(4)
N4_4 N 0.7593(4) 0.3583(5) 0.7442(4)
N6_4 N 0.6244(4) 0.4126(5) 0.7527(4)
N7_4 N 0.6294(6) 0.4073(6) 0.8119(5)
N13_4 N 0.9424(4) 0.1649(5) 0.7165(4)
O1_4 O 0.6063(4) 0.0773(5) 0.7721(3)
O2_4 O 0.5637(4) 0.0647(4) 0.8743(3)
O3_4 O 0.6015(4) 0.2023(4) 0.8448(3)
O4_4 O 0.7070(3) 0.0165(4) 0.8803(3)
O5_4 O 0.7404(3) 0.1513(4) 0.8492(3)
O6_4 O 0.8767(4) 0.1550(4) 0.8193(4)
O7_4 O 0.8399(4) 0.2687(4) 0.8870(3)
O8_4 O 0.9527(3) 0.1725(4) 0.9458(3)
O9_4 O 0.8518(3) 0.0567(4) 0.9064(3)
O17_2 O 0.4745(4) 0.0506(4) 0.9483(4)
O19_4 O 0.5386(4) 0.1883(4) 0.9322(4)
O20_4 O 0.5529(4) 0.3342(4) 0.8926(4)
O22_4 O 0.7107(3) 0.2950(4) 0.9171(3)
O23_4 O 0.8257(4) 0.4107(4) 0.9380(4)
O38_4 O 0.8271(3) 0.1844(4) 0.9742(3)
O39_4 O 0.6786(3) 0.1423(4) 0.9465(3)
O41_4 O 0.8054(5) 0.1401(5) 0.6008(4)
H25_4 H 0.78372 0.0898492 0.583343
H26_4 H 0.855262 0.149971 0.592775
H3_3 H 0.9949 0.3956 0.1164
O17_3 O 0.9745(4) 0.4494(4) 0.4483(4)
W3_3 W 0.19671(2) 0.03037(3) 0.07219(2)
O10_3 O 0.1849(4) 0.0982(4) 0.1212(4)
O11_3 O 0.1038(4) 0.0484(4) 0.0040(3)
O12_3 O 0.2541(4) 0.0894(4) 0.0320(4)
O15_3 O 0.3681(4) 0.0017(4) 0.0180(3)
W4_3 W 0.27641(2) 0.04893(3) 0.96274(2)
O13_3 O 0.1675(4) 0.0631(4) 0.9175(3)
O14_3 O 0.3143(4) 0.1290(4) 0.9416(4)
O29_3 O 0.0053(4) 0.0421(4) 0.8824(4)
O26_3 O 0.9391(4) 0.7895(4) 0.9422(4)
H3_4 H 0.0051 0.6044 0.8836
O17_4 O 0.0255(4) 0.5506(4) 0.5517(4)
O26_4 O 0.0609(4) 0.2105(4) 0.0578(4)
W4_4 W 0.72359(2) 0.95107(3) 0.03726(2)
O13_4 O 0.8325(4) 0.9369(4) 0.0825(3)
O14_4 O 0.6857(4) 0.8710(4) 0.0584(4)
O29_4 O 0.9947(4) 0.9579(4) 0.1176(4)
W3_4 W 0.80329(2) 0.96963(3) 0.92781(2)
O10_4 O 0.8151(4) 0.9018(4) 0.8788(4)
O11_4 O 0.8962(4) 0.9516(4) 0.9960(3)
O12_4 O 0.7459(4) 0.9106(4) 0.9680(4)
O15_4 O 0.6319(4) 0.9983(4) 0.9820(3)
loop_
_geom_bond_atom_site_label_1
_geom_bond_atom_site_label_2
_geom_bond_site_symmetry_1
_geom_bond_site_symmetry_2
Cu1 N1 1_555 1_555
Cu2 N5 1_555 1_555
W1 O1 1_555 1_555
W2 O5 1_555 1_555
W3 O4 1_555 1_555
W4 O12 1_555 1_555
W5 O2 1_555 1_555
W6 O3 1_555 1_555
W7 O7 1_555 1_555
W8 O8 1_555 1_555
W9 O11 1_555 1_555
W10 O27 1_555 1_555
W11 O21 1_555 1_555
W12 O16 1_555 1_555
Si1 O37 1_555 1_555
C1 H1 1_555 1_555
C2 C1 1_555 1_555
H2 C2 1_555 1_555
C3 C2 1_555 1_555
C4 C3 1_555 1_555
H4 C4 1_555 1_555
C5 C4 1_555 1_555
C6 C5 1_555 1_555
C7 C8 1_555 1_555
C8 C9 1_555 1_555
C9 H5 1_555 1_555
C10 C9 1_555 1_555
H6 C10 1_555 1_555
C11 H7 1_555 1_555
C12 C8 1_555 1_555
H8 C12 1_555 1_555
C13 H9 1_555 1_555
H10 C13 1_555 1_555
C14 H11 1_555 1_555
C15 H12 1_555 1_555
H15 C18 1_555 1_555
C19 C18 1_555 1_555
H16 C19 1_555 1_555
C20 C19 1_555 1_555
C21 C20 1_555 1_555
C22 C23 1_555 1_555
C23 C24 1_555 1_555
C24 H17 1_555 1_555
C25 C24 1_555 1_555
H18 C25 1_555 1_555
C26 H19 1_555 1_555
C27 C23 1_555 1_555
H20 C27 1_555 1_555
C28 H21 1_555 1_555
H22 C28 1_555 1_555
C29 H23 1_555 1_555
C30 H24 1_555 1_555
N1 C1 1_555 1_555
N2 Cu1 1_555 1_555
N3 C6 1_555 1_555
N4 C7 1_555 1_555
N5 C10 1_555 1_555
N6 C13 1_555 1_555
N7 C15 1_555 1_555
N9 Cu2 1_555 1_555
N10 Cu2 1_555 1_555
N11 C21 1_555 1_555
N12 C22 1_555 1_555
N13 Cu1 1_555 1_555
N14 C28 1_555 1_555
N15 C30 1_555 1_555
N16 C29 1_555 1_555
O2 W1 1_555 1_555
O3 W1 1_555 1_555
O4 W1 1_555 1_555
O5 W1 1_555 1_555
O6 Cu1 1_555 1_555
O7 W2 1_555 1_555
O8 W2 1_555 1_555
O9 W2 1_555 1_555
O10 W3 1_555 1_555
O11 W3 1_555 1_555
O12 W3 1_555 1_555
O13 W4 1_555 1_555
O14 W4 1_555 1_555
O15 W4 1_555 1_555
O16 W4 1_555 1_555
O18 W5 1_555 1_555
O19 W5 1_555 1_555
O20 W6 1_555 1_555
O21 W6 1_555 1_555
O22 W6 1_555 1_555
O23 W7 1_555 1_555
O24 W7 1_555 1_555
O25 W7 1_555 1_555
O26 W8 1_555 1_555
O27 W8 1_555 1_555
O28 W8 1_555 1_555
O29 W9 1_555 1_555
O30 W9 1_555 1_555
O31 W10 1_555 1_555
O32 W10 1_555 1_555
O33 W10 1_555 1_555
O34 W11 1_555 1_555
O35 W11 1_555 1_555
O36 W12 1_555 1_555
O37 W3 1_555 1_555
O38 W2 1_555 1_555
O39 W1 1_555 1_555
O40 W10 1_555 1_555
O41 Cu1 1_555 1_555
O42 Cu2 1_555 1_555
Cu4 N16 1_555 1_555
Cu5 O36 1_555 1_555
N17 Cu1 1_555 1_555
O43 Cu2 1_555 1_555
W2 O6 1_555 1_555
W3 O9 1_555 1_555
W4 O37 1_555 1_555
W5 O15 1_555 1_555
W5 O39 1_555 1_555
W6 O19 1_555 1_555
W6 O39 1_555 1_555
W7 O22 1_555 1_555
W7 O38 1_555 1_555
W8 O25 1_555 1_555
W8 O38 1_555 1_555
W9 O13 1_555 1_555
W9 O28 1_555 1_555
W9 O37 1_555 1_555
W10 O30 1_555 1_555
W11 O24 1_555 1_555
W11 O32 1_555 1_555
W11 O40 1_555 1_555
W12 O18 1_555 1_555
W12 O33 1_555 1_555
W12 O35 1_555 1_555
W12 O40 1_555 1_555
Si1 O38 1_555 1_555
Si1 O39 1_555 1_555
Si1 O40 1_555 1_555
C5 N1 1_555 1_555
C6 N2 1_555 1_555
C7 N2 1_555 1_555
C11 C12 1_555 1_555
C11 N5 1_555 1_555
C13 N3 1_555 1_555
C14 N6 1_555 1_555
C20 N9 1_555 1_555
C21 N10 1_555 1_555
C22 N10 1_555 1_555
C25 N13 1_555 1_555
C26 C27 1_555 1_555
C26 N13 1_555 1_555
C28 N11 1_555 1_555
C29 N14 1_555 1_555
C30 N16 1_555 1_555
N3 N4 1_555 1_555
N6 N7 1_555 1_555
N11 N12 1_555 1_555
N14 N15 1_555 1_555
O41 H25 1_555 1_555
O41 H26 1_555 1_555
O42 H27 1_555 1_555
O42 H28 1_555 1_555
C16 H13 1_555 1_555
C17 C16 1_555 1_555
H14 C17 1_555 1_555
Cu3 N8 1_555 1_555
Cu3 N1_2 1_555 1_555
W1_2 O1_2 1_555 1_555
W2_2 O5_2 1_555 1_555
W5_2 O2_2 1_555 1_555
W6_2 O3_2 1_555 1_555
W7_2 O7_2 1_555 1_555
C1_2 H1_2 1_555 1_555
C2_2 C1_2 1_555 1_555
H2_2 C2_2 1_555 1_555
C3_2 C2_2 1_555 1_555
H3 C3_2 1_555 1_555
C4_2 C3_2 1_555 1_555
H4_2 C4_2 1_555 1_555
C5_2 C4_2 1_555 1_555
C6_2 C5_2 1_555 1_555
C7_2 C8_2 1_555 1_555
C8_2 C9_2 1_555 1_555
C9_2 H5_2 1_555 1_555
C10_2 C9_2 1_555 1_555
H6_2 C10_2 1_555 1_555
C12_2 C8_2 1_555 1_555
H8_2 C12_2 1_555 1_555
C13_2 H9_2 1_555 1_555
H10_2 C13_2 1_555 1_555
C14_2 H11_2 1_555 1_555
C15_2 H12_2 1_555 1_555
H18_2 C25_2 1_555 1_555
C26_2 H19_2 1_555 1_555
N1_2 C1_2 1_555 1_555
N2_2 Cu3 1_555 1_555
N3_2 C6_2 1_555 1_555
N4_2 C7_2 1_555 1_555
N6_2 C13_2 1_555 1_555
N7_2 C15_2 1_555 1_555
N17 C14_2 1_555 1_555
N13_2 Cu3 1_555 1_555
O2_2 W1_2 1_555 1_555
O3_2 W1_2 1_555 1_555
O4_2 W1_2 1_555 1_555
O5_2 W1_2 1_555 1_555
O6_2 Cu3 1_555 1_555
O7_2 W2_2 1_555 1_555
O8_2 W2_2 1_555 1_555
O9_2 W2_2 1_555 1_555
O17 W5_2 1_555 1_555
O19_2 W5_2 1_555 1_555
O20_2 W6_2 1_555 1_555
O22_2 W6_2 1_555 1_555
O23_2 W7_2 1_555 1_555
O38_2 W2_2 1_555 1_555
O39_2 W1_2 1_555 1_555
O41_2 Cu3 1_555 1_555
W2_2 O6_2 1_555 1_555
W5_2 O39_2 1_555 1_555
W6_2 O19_2 1_555 1_555
W6_2 O39_2 1_555 1_555
W7_2 O22_2 1_555 1_555
W7_2 O38_2 1_555 1_555
Si1_2 O38_2 1_555 1_555
Si1_2 O39_2 1_555 1_555
C5_2 N1_2 1_555 1_555
C6_2 N2_2 1_555 1_555
C7_2 N2_2 1_555 1_555
C13_2 N3_2 1_555 1_555
C14_2 N6_2 1_555 1_555
C15_2 N17 1_555 1_555
C25_2 N13_2 1_555 1_555
C26_2 N13_2 1_555 1_555
N3_2 N4_2 1_555 1_555
N6_2 N7_2 1_555 1_555
O41_2 H25_2 1_555 1_555
O41_2 H26_2 1_555 1_555
W10_2 O27_2 1_555 1_555
W11_2 O21_2 1_555 1_555
W12_2 O16_2 1_555 1_555
O27_2 W8_2 1_555 1_555
O28_2 W8_2 1_555 1_555
O30_2 W9_2 1_555 1_555
O31_2 W10_2 1_555 1_555
O32_2 W10_2 1_555 1_555
O33_2 W10_2 1_555 1_555
O34_2 W11_2 1_555 1_555
O35_2 W11_2 1_555 1_555
O36_2 W12_2 1_555 1_555
O40_2 W10_2 1_555 1_555
Cu5_2 O36_2 1_555 1_555
W8_2 O25_2 1_555 1_555
W9_2 O28_2 1_555 1_555
W9_2 O37_2 1_555 1_555
W10_2 O30_2 1_555 1_555
W11_2 O24_2 1_555 1_555
W11_2 O32_2 1_555 1_555
W11_2 O40_2 1_555 1_555
W12_2 O18_2 1_555 1_555
W12_2 O33_2 1_555 1_555
W12_2 O35_2 1_555 1_555
W12_2 O40_2 1_555 1_555
Cu4 N5_2 1_555 1_555
C11_2 H7_2 1_555 1_555
C16_2 H13_2 1_555 1_555
C17_2 C16_2 1_555 1_555
H14_2 C17_2 1_555 1_555
C18_2 C17_2 1_555 1_555
H15_2 C18_2 1_555 1_555
C19_2 C18_2 1_555 1_555
H16_2 C19_2 1_555 1_555
C20_2 C19_2 1_555 1_555
C21_2 C20_2 1_555 1_555
C22_2 C23_2 1_555 1_555
C23_2 C24_2 1_555 1_555
C24_2 H17_2 1_555 1_555
C27_2 C23_2 1_555 1_555
H20_2 C27_2 1_555 1_555
C28_2 H21_2 1_555 1_555
H22_2 C28_2 1_555 1_555
C29_2 H23_2 1_555 1_555
C30_2 H24_2 1_555 1_555
N9_2 Cu4 1_555 1_555
N10_2 Cu4 1_555 1_555
N11_2 C21_2 1_555 1_555
N12_2 C22_2 1_555 1_555
N14_2 C28_2 1_555 1_555
N15_2 C30_2 1_555 1_555
N18 C29_2 1_555 1_555
O42_2 Cu4 1_555 1_555
O43_2 Cu4 1_555 1_555
C11_2 N5_2 1_555 1_555
C16_2 N9_2 1_555 1_555
C20_2 N9_2 1_555 1_555
C21_2 N10_2 1_555 1_555
C22_2 N10_2 1_555 1_555
C28_2 N11_2 1_555 1_555
C29_2 N14_2 1_555 1_555
C30_2 N18 1_555 1_555
N11_2 N12_2 1_555 1_555
N14_2 N15_2 1_555 1_555
O42_2 H27_2 1_555 1_555
O42_2 H28_2 1_555 1_555
C16_3 H13_3 1_555 1_555
C17_3 C16_3 1_555 1_555
H14_3 C17_3 1_555 1_555
Cu3_2 N8_2 1_555 1_555
Cu1_2 N1_3 1_555 1_555
Cu5_2 N5_3 1_555 1_555
W1_3 O1_3 1_555 1_555
W2_3 O5_3 1_555 1_555
W3_2 O4_3 1_555 1_555
W4_2 O12_2 1_555 1_555
W5_3 O2_3 1_555 1_555
W6_3 O3_3 1_555 1_555
W7_3 O7_3 1_555 1_555
W8_3 O8_3 1_555 1_555
W9_3 O11_2 1_555 1_555
W10_3 O27_3 1_555 1_555
W11_3 O21_3 1_555 1_555
W12_3 O16_3 1_555 1_555
Si1_3 O37_3 1_555 1_555
C1_3 H1_3 1_555 1_555
C2_3 C1_3 1_555 1_555
H2_3 C2_3 1_555 1_555
C3_3 C2_3 1_555 1_555
C4_3 C3_3 1_555 1_555
H4_3 C4_3 1_555 1_555
C5_3 C4_3 1_555 1_555
C6_3 C5_3 1_555 1_555
C7_3 C8_3 1_555 1_555
C8_3 C9_3 1_555 1_555
C9_3 H5_3 1_555 1_555
C10_3 C9_3 1_555 1_555
H6_3 C10_3 1_555 1_555
C11_3 H7_3 1_555 1_555
C12_3 C8_3 1_555 1_555
H8_3 C12_3 1_555 1_555
C13_3 H9_3 1_555 1_555
H10_3 C13_3 1_555 1_555
C14_3 H11_3 1_555 1_555
C15_3 H12_3 1_555 1_555
H15_3 C18_3 1_555 1_555
C19_3 C18_3 1_555 1_555
H16_3 C19_3 1_555 1_555
C20_3 C19_3 1_555 1_555
C21_3 C20_3 1_555 1_555
C22_3 C23_3 1_555 1_555
C23_3 C24_3 1_555 1_555
C24_3 H17_3 1_555 1_555
C25_3 C24_3 1_555 1_555
H18_3 C25_3 1_555 1_555
C26_3 H19_3 1_555 1_555
C27_3 C23_3 1_555 1_555
H20_3 C27_3 1_555 1_555
C28_3 H21_3 1_555 1_555
H22_3 C28_3 1_555 1_555
C29_3 H23_3 1_555 1_555
C30_3 H24_3 1_555 1_555
N1_3 C1_3 1_555 1_555
N2_3 Cu1_2 1_555 1_555
N3_3 C6_3 1_555 1_555
N4_3 C7_3 1_555 1_555
N5_3 C10_3 1_555 1_555
N6_3 C13_3 1_555 1_555
N7_3 C15_3 1_555 1_555
N9_3 Cu5_2 1_555 1_555
N10_3 Cu5_2 1_555 1_555
N11_3 C21_3 1_555 1_555
N12_3 C22_3 1_555 1_555
N13_3 Cu1_2 1_555 1_555
N14_3 C28_3 1_555 1_555
N15_3 C30_3 1_555 1_555
N16_2 C29_3 1_555 1_555
O2_3 W1_3 1_555 1_555
O3_3 W1_3 1_555 1_555
O4_3 W1_3 1_555 1_555
O5_3 W1_3 1_555 1_555
O6_3 Cu1_2 1_555 1_555
O7_3 W2_3 1_555 1_555
O8_3 W2_3 1_555 1_555
O9_3 W2_3 1_555 1_555
O10_2 W3_2 1_555 1_555
O11_2 W3_2 1_555 1_555
O12_2 W3_2 1_555 1_555
O13_2 W4_2 1_555 1_555
O14_2 W4_2 1_555 1_555
O15_2 W4_2 1_555 1_555
O16_3 W4_2 1_555 1_555
O18_3 W5_3 1_555 1_555
O19_3 W5_3 1_555 1_555
O20_3 W6_3 1_555 1_555
O21_3 W6_3 1_555 1_555
O22_3 W6_3 1_555 1_555
O23_3 W7_3 1_555 1_555
O24_3 W7_3 1_555 1_555
O25_3 W7_3 1_555 1_555
O26_2 W8_3 1_555 1_555
O27_3 W8_3 1_555 1_555
O28_3 W8_3 1_555 1_555
O29_2 W9_3 1_555 1_555
O30_3 W9_3 1_555 1_555
O31_3 W10_3 1_555 1_555
O32_3 W10_3 1_555 1_555
O33_3 W10_3 1_555 1_555
O34_3 W11_3 1_555 1_555
O35_3 W11_3 1_555 1_555
O43_2 W12_3 1_555 1_555
O37_3 W3_2 1_555 1_555
O38_3 W2_3 1_555 1_555
O39_3 W1_3 1_555 1_555
O40_3 W10_3 1_555 1_555
O41_3 Cu1_2 1_555 1_555
O42_3 Cu5_2 1_555 1_555
Cu5 N16_2 1_555 1_555
N17_2 Cu1_2 1_555 1_555
W2_3 O6_3 1_555 1_555
W3_2 O9_3 1_555 1_555
W4_2 O37_3 1_555 1_555
W5_3 O15_2 1_555 1_555
W5_3 O39_3 1_555 1_555
W6_3 O19_3 1_555 1_555
W6_3 O39_3 1_555 1_555
W7_3 O22_3 1_555 1_555
W7_3 O38_3 1_555 1_555
W8_3 O25_3 1_555 1_555
W8_3 O38_3 1_555 1_555
W9_3 O13_2 1_555 1_555
W9_3 O28_3 1_555 1_555
W9_3 O37_3 1_555 1_555
W10_3 O30_3 1_555 1_555
W11_3 O24_3 1_555 1_555
W11_3 O32_3 1_555 1_555
W11_3 O40_3 1_555 1_555
W12_3 O18_3 1_555 1_555
W12_3 O33_3 1_555 1_555
W12_3 O35_3 1_555 1_555
W12_3 O40_3 1_555 1_555
Si1_3 O38_3 1_555 1_555
Si1_3 O39_3 1_555 1_555
Si1_3 O40_3 1_555 1_555
C5_3 N1_3 1_555 1_555
C6_3 N2_3 1_555 1_555
C7_3 N2_3 1_555 1_555
C11_3 C12_3 1_555 1_555
C11_3 N5_3 1_555 1_555
C13_3 N3_3 1_555 1_555
C14_3 N6_3 1_555 1_555
C20_3 N9_3 1_555 1_555
C21_3 N10_3 1_555 1_555
C22_3 N10_3 1_555 1_555
C25_3 N13_3 1_555 1_555
C26_3 C27_3 1_555 1_555
C26_3 N13_3 1_555 1_555
C28_3 N11_3 1_555 1_555
C29_3 N14_3 1_555 1_555
C30_3 N16_2 1_555 1_555
N3_3 N4_3 1_555 1_555
N6_3 N7_3 1_555 1_555
N11_3 N12_3 1_555 1_555
N14_3 N15_3 1_555 1_555
O41_3 H25_3 1_555 1_555
O41_3 H26_3 1_555 1_555
O42_3 H27_3 1_555 1_555
O42_3 H28_3 1_555 1_555
Cu5 N5_4 1_555 1_555
C11_4 H7_4 1_555 1_555
C16_4 H13_4 1_555 1_555
C17_4 C16_4 1_555 1_555
H14_4 C17_4 1_555 1_555
C18_4 C17_4 1_555 1_555
H15_4 C18_4 1_555 1_555
C19_4 C18_4 1_555 1_555
H16_4 C19_4 1_555 1_555
C20_4 C19_4 1_555 1_555
C21_4 C20_4 1_555 1_555
C22_4 C23_4 1_555 1_555
C23_4 C24_4 1_555 1_555
C24_4 H17_4 1_555 1_555
C27_4 C23_4 1_555 1_555
H20_4 C27_4 1_555 1_555
C28_4 H21_4 1_555 1_555
H22_4 C28_4 1_555 1_555
C29_4 H23_4 1_555 1_555
C30_4 H24_4 1_555 1_555
N9_4 Cu5 1_555 1_555
N10_4 Cu5 1_555 1_555
N11_4 C21_4 1_555 1_555
N12_4 C22_4 1_555 1_555
N14_4 C28_4 1_555 1_555
N15_4 C30_4 1_555 1_555
N18_2 C29_4 1_555 1_555
O42_4 Cu5 1_555 1_555
C11_4 N5_4 1_555 1_555
C16_4 N9_4 1_555 1_555
C20_4 N9_4 1_555 1_555
C21_4 N10_4 1_555 1_555
C22_4 N10_4 1_555 1_555
C28_4 N11_4 1_555 1_555
C29_4 N14_4 1_555 1_555
C30_4 N18_2 1_555 1_555
N11_4 N12_4 1_555 1_555
N14_4 N15_4 1_555 1_555
O42_4 H27_4 1_555 1_555
O42_4 H28_4 1_555 1_555
W10_4 O27_4 1_555 1_555
W11_4 O21_4 1_555 1_555
W12_4 O16_4 1_555 1_555
O27_4 W8_4 1_555 1_555
O28_4 W8_4 1_555 1_555
O30_4 W9_4 1_555 1_555
O31_4 W10_4 1_555 1_555
O32_4 W10_4 1_555 1_555
O33_4 W10_4 1_555 1_555
O34_4 W11_4 1_555 1_555
O35_4 W11_4 1_555 1_555
O43 W12_4 1_555 1_555
O40_4 W10_4 1_555 1_555
W8_4 O25_4 1_555 1_555
W9_4 O28_4 1_555 1_555
W9_4 O37_4 1_555 1_555
W10_4 O30_4 1_555 1_555
W11_4 O24_4 1_555 1_555
W11_4 O32_4 1_555 1_555
W11_4 O40_4 1_555 1_555
W12_4 O18_4 1_555 1_555
W12_4 O33_4 1_555 1_555
W12_4 O35_4 1_555 1_555
W12_4 O40_4 1_555 1_555
Cu3_2 N1_4 1_555 1_555
W1_4 O1_4 1_555 1_555
W2_4 O5_4 1_555 1_555
W5_4 O2_4 1_555 1_555
W6_4 O3_4 1_555 1_555
W7_4 O7_4 1_555 1_555
C1_4 H1_4 1_555 1_555
C2_4 C1_4 1_555 1_555
H2_4 C2_4 1_555 1_555
C3_4 C2_4 1_555 1_555
H3_2 C3_4 1_555 1_555
C4_4 C3_4 1_555 1_555
H4_4 C4_4 1_555 1_555
C5_4 C4_4 1_555 1_555
C6_4 C5_4 1_555 1_555
C7_4 C8_4 1_555 1_555
C8_4 C9_4 1_555 1_555
C9_4 H5_4 1_555 1_555
C10_4 C9_4 1_555 1_555
H6_4 C10_4 1_555 1_555
C12_4 C8_4 1_555 1_555
H8_4 C12_4 1_555 1_555
C13_4 H9_4 1_555 1_555
H10_4 C13_4 1_555 1_555
C14_4 H11_4 1_555 1_555
C15_4 H12_4 1_555 1_555
H18_4 C25_4 1_555 1_555
C26_4 H19_4 1_555 1_555
N1_4 C1_4 1_555 1_555
N2_4 Cu3_2 1_555 1_555
N3_4 C6_4 1_555 1_555
N4_4 C7_4 1_555 1_555
N6_4 C13_4 1_555 1_555
N7_4 C15_4 1_555 1_555
N17_2 C14_4 1_555 1_555
N13_4 Cu3_2 1_555 1_555
O2_4 W1_4 1_555 1_555
O3_4 W1_4 1_555 1_555
O4_4 W1_4 1_555 1_555
O5_4 W1_4 1_555 1_555
O6_4 Cu3_2 1_555 1_555
O7_4 W2_4 1_555 1_555
O8_4 W2_4 1_555 1_555
O9_4 W2_4 1_555 1_555
O17_2 W5_4 1_555 1_555
O19_4 W5_4 1_555 1_555
O20_4 W6_4 1_555 1_555
O22_4 W6_4 1_555 1_555
O23_4 W7_4 1_555 1_555
O38_4 W2_4 1_555 1_555
O39_4 W1_4 1_555 1_555
O41_4 Cu3_2 1_555 1_555
W2_4 O6_4 1_555 1_555
W5_4 O39_4 1_555 1_555
W6_4 O19_4 1_555 1_555
W6_4 O39_4 1_555 1_555
W7_4 O22_4 1_555 1_555
W7_4 O38_4 1_555 1_555
Si1_4 O38_4 1_555 1_555
Si1_4 O39_4 1_555 1_555
C5_4 N1_4 1_555 1_555
C6_4 N2_4 1_555 1_555
C7_4 N2_4 1_555 1_555
C13_4 N3_4 1_555 1_555
C14_4 N6_4 1_555 1_555
C15_4 N17_2 1_555 1_555
C25_4 N13_4 1_555 1_555
C26_4 N13_4 1_555 1_555
N3_4 N4_4 1_555 1_555
N6_4 N7_4 1_555 1_555
O41_4 H25_4 1_555 1_555
O41_4 H26_4 1_555 1_555
O10_3 W3_3 1_555 1_555
O11_3 W3_3 1_555 1_555
O12_3 W3_3 1_555 1_555
O13_3 W4_3 1_555 1_555
O14_3 W4_3 1_555 1_555
O13_4 W4_4 1_555 1_555
O14_4 W4_4 1_555 1_555
O10_4 W3_4 1_555 1_555
O11_4 W3_4 1_555 1_555
O12_4 W3_4 1_555 1_555

#END
