
###############################################################################
#
# This file contains modified crystal structure data generated from the
# MOF subset of the Cambridge Structural Database (CSD) v543 
# hosted by the Cambridge Crystallographic Data Centre (CCDC).
#
# This work is licensed under the Creative Commons
# Attribution-NonCommercial-ShareAlike 4.0 International License.
# To view a copy of this license, visit
# http://creativecommons.org/licenses/by-nc-sa/4.0/
# or send a letter to
# Creative Commons, PO Box 1866, Mountain View, CA 94042, USA.
#
# CIF created using the CSD Python API on 29 September 2022
# The structure has been converted into the P1 space group
# The structure has a 3D framework
# The original CSD entry YOCSEQ is in the triclinic crystal system
# The framework has been calculated to contain at least 10.0% void space
# The void calculation uses a probe of radius 1.32A, grid spacing 0.4
#
###############################################################################

data_YOCSEQ
_chemical_formula_moiety         '(C12 H10 Gd2 O16)n'
_symmetry_cell_setting           triclinic
_symmetry_space_group_name_H-M   'P 1'
_symmetry_Int_Tables_number      1
_space_group_name_Hall           'P 1'
loop_
_symmetry_equiv_pos_site_id
_symmetry_equiv_pos_as_xyz
1 x,y,z
_cell_length_a                   6.0867(15)
_cell_length_b                   9.483(2)
_cell_length_c                   10.096(3)
_cell_angle_alpha                88.612(3)
_cell_angle_beta                 74.385(3)
_cell_angle_gamma                77.132(2)
_cell_volume                     546.744
loop_
_atom_site_label
_atom_site_type_symbol
_atom_site_fract_x
_atom_site_fract_y
_atom_site_fract_z
_atom_site_U_iso_or_equiv
_atom_site_thermal_displace_type
O9 O 0.0046(19) 0.1059(13) 0.1392(11) 0.0262 Uani
C7 C 0.073(2) 0.0474(17) 0.0166(16) 0.0210 Uani
O10 O 0.2528(18) 0.0621(11) 0.9262(10) 0.0208 Uani
O4 O 0.1348(17) 0.8524(10) 0.5579(11) 0.0172 Uani
O5 O 0.3266(18) 0.6885(11) 0.6689(11) 0.0205 Uani
C4 C 0.093(2) 0.6086(15) 0.5447(16) 0.0163 Uani
C5 C 0.192(2) 0.7217(15) 0.5922(17) 0.0210 Uani
O11 O 0.0629(18) 0.1699(10) 0.6933(11) 0.0196 Uani
O12 O 0.3365(17) 0.1237(11) 0.4979(11) 0.0197 Uani
C8 C 0.162(2) 0.4659(14) 0.5757(15) 0.0141 Uani
H6 H 0.2715 0.4415 0.6262 0.0170 Uiso
C9 C 0.073(2) 0.3588(15) 0.5339(15) 0.0158 Uani
C10 C 0.161(2) 0.2064(14) 0.5775(13) 0.0090 Uani
Gd4 Gd 0.65480(11) 0.05825(7) 0.29701(7) 0.0115 Uani
Gd7 Gd 0.34520(11) 0.94175(7) 0.70299(7) 0.0115 Uani
O8 O 0.392(2) 0.2030(12) 0.1807(13) 0.0307 Uani
H3 H 0.4642 0.2302 0.1035 0.0370 Uiso
H4 H 0.2755 0.1737 0.1701 0.0370 Uiso
O15 O 0.6018(19) 0.0960(12) 0.7102(11) 0.0260 Uani
H7 H 0.7330 0.1163 0.7046 0.0310 Uiso
H8 H 0.6216 0.0314 0.6486 0.0310 Uiso
O21 O 0.8652(17) 0.1476(10) 0.4421(11) 0.0172 Uani
O23 O 0.6734(18) 0.3115(11) 0.3311(11) 0.0205 Uani
O2 O 0.9371(18) 0.8301(10) 0.3067(11) 0.0196 Uani
O3 O 0.6635(17) 0.8763(11) 0.5021(11) 0.0197 Uani
O6 O 0.7472(18) 0.9379(11) 0.0738(10) 0.0208 Uani
O7 O 0.3982(19) 0.9040(12) 0.2898(11) 0.0260 Uani
H1 H 0.2670 0.8837 0.2954 0.0310 Uiso
H2 H 0.3784 0.9686 0.3514 0.0310 Uiso
C1 C 0.838(2) 0.5341(14) 0.4243(15) 0.0141 Uani
H5 H 0.7285 0.5585 0.3738 0.0170 Uiso
C2 C 0.927(2) 0.6412(15) 0.4661(15) 0.0158 Uani
C3 C 0.839(2) 0.7936(14) 0.4225(13) 0.0090 Uani
C11 C 0.907(2) 0.3914(15) 0.4553(16) 0.0163 Uani
C12 C 0.808(2) 0.2783(15) 0.4078(17) 0.0210 Uani
O16 O 0.608(2) 0.7970(12) 0.8193(13) 0.0307 Uani
H9 H 0.5358 0.7698 0.8965 0.0370 Uiso
H10 H 0.7245 0.8263 0.8299 0.0370 Uiso
O1 O 0.9954(19) 0.8941(13) 0.8608(11) 0.0262 Uani
C6 C 0.927(2) 0.9526(17) 0.9834(16) 0.0210 Uani
loop_
_atom_site_aniso_label
_atom_site_aniso_U_11
_atom_site_aniso_U_22
_atom_site_aniso_U_33
_atom_site_aniso_U_23
_atom_site_aniso_U_13
_atom_site_aniso_U_12
O9 0.032 0.044 0.008 -0.006 0.002 -0.028
C7 0.013 0.032 0.019 0.02 -0.006 -0.007
O10 0.027 0.025 0.013 -0.009 -0.003 -0.013
O4 0.026 0.006 0.023 0.002 -0.012 -0.004
O5 0.025 0.013 0.034 0.005 -0.026 -0.004
C4 0.01 0.009 0.027 -0.011 -0.001 0
C5 0.02 0.008 0.026 -0.01 0.013 -0.007
O11 0.026 0.007 0.022 -0.001 -0.002 -0.001
O12 0.019 0.014 0.023 0 -0.001 -0.003
C8 0.018 0.005 0.019 0.002 -0.01 0.004
C9 0.015 0.011 0.015 -0.002 0.001 0.004
C10 0.008 0.011 0.009 0 -0.004 -0.002
Gd4 0.0112 0.0122 0.0124 0.0019 -0.0034 -0.0053
Gd7 0.0112 0.0122 0.0124 0.0019 -0.0034 -0.0053
O8 0.039 0.029 0.038 0.011 -0.03 -0.013
O15 0.033 0.027 0.025 -0.003 -0.007 -0.022
O21 0.026 0.006 0.023 0.002 -0.012 -0.004
O23 0.025 0.013 0.034 0.005 -0.026 -0.004
O2 0.026 0.007 0.022 -0.001 -0.002 -0.001
O3 0.019 0.014 0.023 0 -0.001 -0.003
O6 0.027 0.025 0.013 -0.009 -0.003 -0.013
O7 0.033 0.027 0.025 -0.003 -0.007 -0.022
C1 0.018 0.005 0.019 0.002 -0.01 0.004
C2 0.015 0.011 0.015 -0.002 0.001 0.004
C3 0.008 0.011 0.009 0 -0.004 -0.002
C11 0.01 0.009 0.027 -0.011 -0.001 0
C12 0.02 0.008 0.026 -0.01 0.013 -0.007
O16 0.039 0.029 0.038 0.011 -0.03 -0.013
O1 0.032 0.044 0.008 -0.006 0.002 -0.028
C6 0.013 0.032 0.019 0.02 -0.006 -0.007
loop_
_geom_bond_atom_site_label_1
_geom_bond_atom_site_label_2
_geom_bond_site_symmetry_1
_geom_bond_site_symmetry_2
O9 C7 1_555 1_555
O4 C5 1_555 1_555
O5 C5 1_555 1_555
C5 C4 1_555 1_555
O11 C10 1_555 1_555
O12 C10 1_555 1_555
C8 C4 1_555 1_555
H6 C8 1_555 1_555
C9 C8 1_555 1_555
C10 C9 1_555 1_555
Gd4 O12 1_555 1_555
Gd7 O4 1_555 1_555
O5 Gd7 1_555 1_555
O8 Gd4 1_555 1_555
H3 O8 1_555 1_555
H4 O8 1_555 1_555
H7 O15 1_555 1_555
H8 O15 1_555 1_555
O21 Gd4 1_555 1_555
O23 Gd4 1_555 1_555
O2 C3 1_555 1_555
H1 O7 1_555 1_555
H2 O7 1_555 1_555
C1 H5 1_555 1_555
C2 C1 1_555 1_555
C3 O3 1_555 1_555
O21 C12 1_555 1_555
O23 C12 1_555 1_555
C11 C1 1_555 1_555
C12 C11 1_555 1_555
Gd7 O3 1_555 1_555
O16 Gd7 1_555 1_555
H9 O16 1_555 1_555
H10 O16 1_555 1_555
C2 C3 1_555 1_555
O1 C6 1_555 1_555

#END
