
###############################################################################
#
# This file contains modified crystal structure data generated from the
# MOF subset of the Cambridge Structural Database (CSD) v543 
# hosted by the Cambridge Crystallographic Data Centre (CCDC).
#
# This work is licensed under the Creative Commons
# Attribution-NonCommercial-ShareAlike 4.0 International License.
# To view a copy of this license, visit
# http://creativecommons.org/licenses/by-nc-sa/4.0/
# or send a letter to
# Creative Commons, PO Box 1866, Mountain View, CA 94042, USA.
#
# CIF created using the CSD Python API on 29 September 2022
# The structure has been converted into the P1 space group
# The structure has a 3D framework
# The original CSD entry YOCXIA is in the rhombohedral crystal system
# The framework has been calculated to contain at least 10.0% void space
# The void calculation uses a probe of radius 1.32A, grid spacing 0.4
#
###############################################################################

data_YOCXIA
_chemical_formula_moiety         '(C342 H288 Cu18 N36 O100)n'
_symmetry_cell_setting           triclinic
_symmetry_space_group_name_H-M   'P 1'
_symmetry_Int_Tables_number      1
_space_group_name_Hall           'P 1'
loop_
_symmetry_equiv_pos_site_id
_symmetry_equiv_pos_as_xyz
1 x,y,z
_cell_length_a                   21.8786(3)
_cell_length_b                   21.8786(3)
_cell_length_c                   21.3088(3)
_cell_angle_alpha                90
_cell_angle_beta                 90
_cell_angle_gamma                120
_cell_volume                     8833.42
loop_
_atom_site_label
_atom_site_type_symbol
_atom_site_fract_x
_atom_site_fract_y
_atom_site_fract_z
Cu1 Cu 0.46974(2) 0.53745(2) 0.51081(2)
O1 O 0.27248(11) 0.21460(12) 0.20895(10)
O2 O 0.41483(12) 0.48822(12) 0.43580(10)
O3 O 0.38736(11) 0.26340(11) 0.23043(10)
O4 O 0.46742(12) 0.42525(12) 0.41672(10)
O5 O 0.14103(13) 0.31577(14) 0.21463(12)
O6 O 0.43186(15) 0.60951(14) 0.52844(15)
N1 N 0.21486(15) 0.40218(15) 0.28518(14)
C1 C 0.32813(16) 0.25989(15) 0.23461(13)
C2 C 0.32525(16) 0.31649(15) 0.27286(14)
C3 C 0.27085(17) 0.33080(17) 0.26253(14)
H1 H 0.235952 0.304322 0.233275
C4 C 0.42225(15) 0.44304(15) 0.40596(13)
C5 C 0.37603(16) 0.35423(15) 0.31816(14)
H2 H 0.412545 0.344943 0.325275
C6 C 0.37198(16) 0.40577(15) 0.35269(13)
C7 C 0.31916(17) 0.42170(16) 0.34101(14)
H3 H 0.317780 0.457372 0.363578
C8 C 0.26804(17) 0.38429(17) 0.29546(15)
C9 C 0.11973(18) 0.40845(19) 0.24967(16)
C10 C 0.15746(18) 0.3688(2) 0.24545(15)
C11 C 0.1528(2) 0.4621(2) 0.29290(17)
C12 C 0.0590(2) 0.3960(2) 0.21898(18)
H4 H 0.036533 0.358957 0.190673
C13 C 0.2159(2) 0.4611(2) 0.32010(18)
H5 H 0.259104 0.505234 0.312426
H6 H 0.210491 0.451813 0.364862
C14 C 0.1259(2) 0.5062(2) 0.3060(2)
H7 H 0.147323 0.542196 0.335491
C15 C 0.0667(3) 0.4951(3) 0.2742(2)
H8 H 0.048734 0.525041 0.281414
C16 C 0.0328(2) 0.4401(3) 0.2315(2)
N2 N 0.4850(3) 0.7249(3) 0.5520(4)
C17 C 0.4708(3) 0.6659(3) 0.5493(4)
H10 H 0.503756 0.661513 0.573482
C18 C 0.5299(4) 0.7900(4) 0.5772(6)
H11 H 0.569859 0.815216 0.549991
H12 H 0.545690 0.784380 0.617666
H13 H 0.505557 0.816120 0.581477
C19 C 0.4655(9) 0.7429(7) 0.4750(6)
H14 H 0.470271 0.712612 0.445227
H15 H 0.497782 0.791304 0.464429
H16 H 0.418091 0.734576 0.473957
Cu2 Cu 0.40104(3) 0.19693(2) 0.17748(2)
Cu3 Cu 0.53026(2) 0.46255(2) 0.48919(2)
Cu4 Cu 0.26562(3) 0.13641(2) 0.15586(2)
O7 O 0.54793(12) 0.60879(16) 0.45772(10)
O8 O 0.40327(11) 0.45729(16) 0.56376(10)
O9 O 0.53258(12) 0.57475(12) 0.58328(10)
O1_2 O 0.78540(12) 0.05788(16) 0.20895(10)
O3_2 O 0.73660(11) 0.12396(16) 0.23043(10)
O4_2 O 0.57475(12) 0.04217(17) 0.41672(10)
C1_2 C 0.74011(15) 0.06824(22) 0.23461(13)
C2_2 C 0.68351(15) 0.00876(22) 0.27286(14)
C5_2 C 0.64577(15) 0.02180(22) 0.31816(14)
H2_2 H 0.655057 0.067602 0.325275
Cu2_2 Cu 0.80307(2) 0.20412(4) 0.17748(2)
Cu3_2 Cu 0.53745(2) 0.06771(3) 0.48919(2)
Cu4_2 Cu 0.86359(2) 0.12922(4) 0.15586(2)
Cu1_2 Cu 0.46255(2) 0.93229(3) 0.51081(2)
O2_2 O 0.51178(12) 0.92661(17) 0.43580(10)
O5_2 O 0.68423(14) 0.82526(19) 0.21463(12)
O6_2 O 0.39049(14) 0.82235(21) 0.52844(15)
N1_2 N 0.59782(15) 0.81268(21) 0.28518(14)
C3_2 C 0.66920(17) 0.94005(24) 0.26253(14)
H1_2 H 0.695678 0.931630 0.233275
C4_2 C 0.55696(15) 0.97921(21) 0.40596(13)
C6_2 C 0.59423(15) 0.96621(22) 0.35269(13)
C7_2 C 0.57830(16) 0.89746(23) 0.34101(14)
H3_2 H 0.542628 0.860408 0.363578
C8_2 C 0.61571(17) 0.88375(24) 0.29546(15)
C9_2 C 0.59155(19) 0.71128(26) 0.24967(16)
C10_2 C 0.6312(2) 0.78866(27) 0.24545(15)
C11_2 C 0.5379(2) 0.6907(3) 0.29290(17)
C12_2 C 0.6040(2) 0.6630(3) 0.21898(18)
H4_2 H 0.641043 0.677576 0.190673
C13_2 C 0.5389(2) 0.7548(3) 0.32010(18)
H5_2 H 0.494766 0.753870 0.312426
H6_2 H 0.548187 0.758678 0.364862
C14_2 C 0.4938(2) 0.6197(3) 0.3060(2)
H7_2 H 0.457804 0.605127 0.335491
C15_2 C 0.5049(3) 0.5716(4) 0.2742(2)
H8_2 H 0.474959 0.523693 0.281414
C16_2 C 0.5599(3) 0.5927(4) 0.2315(2)
H9 H 0.566838 0.558972 0.211332
N2_2 N 0.2751(3) 0.7601(4) 0.5520(4)
C17_2 C 0.3341(3) 0.8049(4) 0.5493(4)
H10_2 H 0.338487 0.842243 0.573482
C18_2 C 0.2100(4) 0.7399(6) 0.5772(6)
H11_2 H 0.184784 0.754643 0.549991
H12_2 H 0.215620 0.761310 0.617666
H13_2 H 0.183880 0.689437 0.581477
C19_2 C 0.2571(7) 0.7226(11) 0.4750(6)
H14_2 H 0.287388 0.757659 0.445227
H15_2 H 0.208696 0.706478 0.464429
H16_2 H 0.265424 0.683515 0.473957
O7_2 O 0.39121(16) 0.93915(20) 0.45772(10)
O8_2 O 0.54271(16) 0.94597(19) 0.56376(10)
O9_2 O 0.42525(12) 0.95783(17) 0.58328(10)
Cu1_3 Cu 0.06771(3) 0.53026(2) 0.51081(2)
O2_3 O 0.07339(17) 0.58517(12) 0.43580(10)
O5_3 O 0.17474(19) 0.85897(13) 0.21463(12)
O6_3 O 0.17765(21) 0.56814(15) 0.52844(15)
N1_3 N 0.18732(21) 0.78514(15) 0.28518(14)
C3_3 C 0.05995(24) 0.72915(17) 0.26253(14)
H1_3 H 0.068370 0.764048 0.233275
C4_3 C 0.02079(21) 0.57775(15) 0.40596(13)
C6_3 C 0.03379(22) 0.62802(16) 0.35269(13)
C7_3 C 0.10254(23) 0.68084(17) 0.34101(14)
H3_3 H 0.139592 0.682220 0.363578
C8_3 C 0.11625(24) 0.73196(17) 0.29546(15)
C9_3 C 0.28872(26) 0.88027(18) 0.24967(16)
C10_3 C 0.21134(27) 0.84254(18) 0.24545(15)
C11_3 C 0.3093(3) 0.8472(2) 0.29290(17)
C12_3 C 0.3370(3) 0.9410(2) 0.21898(18)
H4_3 H 0.322424 0.963467 0.190673
C13_3 C 0.2452(3) 0.7841(2) 0.32010(18)
H5_3 H 0.246130 0.740896 0.312426
H6_3 H 0.241322 0.789509 0.364862
C14_3 C 0.3803(3) 0.8741(2) 0.3060(2)
H7_3 H 0.394873 0.852677 0.335491
C15_3 C 0.4284(4) 0.9333(3) 0.2742(2)
H8_3 H 0.476307 0.951266 0.281414
C16_3 C 0.4073(4) 0.9672(2) 0.2315(2)
N2_3 N 0.2399(4) 0.5150(3) 0.5520(4)
C17_3 C 0.1951(4) 0.5292(3) 0.5493(4)
H10_3 H 0.157757 0.496244 0.573482
C18_3 C 0.2601(6) 0.4701(4) 0.5772(6)
H11_3 H 0.245357 0.430141 0.549991
H12_3 H 0.238690 0.454310 0.617666
H13_3 H 0.310563 0.494443 0.581477
C19_3 C 0.2774(11) 0.5345(9) 0.4750(6)
H14_3 H 0.242341 0.529729 0.445227
H15_3 H 0.293522 0.502218 0.464429
H16_3 H 0.316485 0.581909 0.473957
O7_3 O 0.06085(20) 0.45207(12) 0.45772(10)
O8_3 O 0.05403(19) 0.59673(11) 0.56376(10)
O9_3 O 0.04217(17) 0.46742(12) 0.58328(10)
O1_3 O 0.94212(16) 0.72752(11) 0.20895(10)
O3_3 O 0.87604(16) 0.61264(11) 0.23043(10)
O4_3 O 0.95783(17) 0.53258(12) 0.41672(10)
C1_3 C 0.93176(22) 0.67187(16) 0.23461(13)
C2_3 C 0.99124(22) 0.67475(16) 0.27286(14)
C5_3 C 0.97820(22) 0.62397(16) 0.31816(14)
H2_3 H 0.932398 0.587455 0.325275
Cu2_3 Cu 0.79588(4) 0.59896(3) 0.17748(2)
Cu3_3 Cu 0.93229(3) 0.46974(2) 0.48919(2)
Cu4_3 Cu 0.87078(4) 0.73438(3) 0.15586(2)
Cu1_4 Cu 0.13641(2) 0.87078(2) 0.84414(2)
O2_4 O 0.08150(12) 0.82155(12) 0.76913(10)
O4_4 O 0.13409(12) 0.75858(12) 0.75005(10)
O6_4 O 0.09853(15) 0.94284(14) 0.86177(15)
C4_4 C 0.08892(15) 0.77637(15) 0.73929(13)
C5_4 C 0.04270(16) 0.68756(15) 0.65149(14)
H2_4 H 0.079212 0.678276 0.658608
C6_4 C 0.03865(16) 0.73910(15) 0.68602(13)
C17_4 C 0.1375(3) 0.9992(3) 0.8826(4)
H10_4 H 0.170423 0.994846 0.906815
Cu3_4 Cu 0.19693(2) 0.79588(2) 0.82252(2)
O7_4 O 0.21460(12) 0.94212(16) 0.79105(10)
O8_4 O 0.06993(11) 0.79063(16) 0.89710(10)
O9_4 O 0.19925(12) 0.90808(12) 0.91661(10)
O1_4 O 0.93915(11) 0.54793(12) 0.54228(10)
O5_4 O 0.80770(13) 0.64910(14) 0.54796(12)
N1_4 N 0.88153(15) 0.73551(15) 0.61851(14)
C1_4 C 0.99480(16) 0.59322(15) 0.56794(13)
C2_4 C 0.99192(16) 0.64982(15) 0.60619(14)
C3_4 C 0.93752(17) 0.66413(17) 0.59586(14)
H1_4 H 0.902619 0.637655 0.566608
C7_4 C 0.98583(17) 0.75503(16) 0.67434(14)
H3_4 H 0.984447 0.790705 0.696911
C8_4 C 0.93471(17) 0.71762(17) 0.62879(15)
C9_4 C 0.78640(18) 0.74178(19) 0.58300(16)
C10_4 C 0.82413(18) 0.7021(2) 0.57878(15)
C11_4 C 0.8195(2) 0.7954(2) 0.62623(17)
C12_4 C 0.7257(2) 0.7293(2) 0.55231(18)
H4_4 H 0.703200 0.692290 0.524006
C13_4 C 0.8826(2) 0.7944(2) 0.65343(18)
H5_4 H 0.925771 0.838567 0.645759
H6_4 H 0.877158 0.785146 0.698195
C14_4 C 0.7926(2) 0.8395(2) 0.6393(2)
H7_4 H 0.813990 0.875529 0.668824
C15_4 C 0.7334(3) 0.8284(3) 0.6075(2)
H8_4 H 0.715401 0.858374 0.614747
C16_4 C 0.6995(2) 0.7734(3) 0.5648(2)
H9_2 H 0.658801 0.766495 0.544665
Cu1_5 Cu 0.12922(2) 0.26562(3) 0.84414(2)
O1_5 O 0.45207(12) 0.39121(16) 0.54228(10)
O2_5 O 0.17845(12) 0.25994(17) 0.76913(10)
O4_5 O 0.24142(12) 0.37550(17) 0.75005(10)
O5_5 O 0.35090(14) 0.15859(19) 0.54796(12)
O6_5 O 0.05716(14) 0.15568(21) 0.86177(15)
N1_5 N 0.26449(15) 0.14601(21) 0.61851(14)
C1_5 C 0.40678(15) 0.40157(22) 0.56794(13)
C2_5 C 0.35018(15) 0.34209(22) 0.60619(14)
C3_5 C 0.33587(17) 0.27338(24) 0.59586(14)
H1_5 H 0.362345 0.264963 0.566608
C4_5 C 0.22363(15) 0.31254(21) 0.73929(13)
C5_5 C 0.31244(15) 0.35513(22) 0.65149(14)
H2_5 H 0.321724 0.400935 0.658608
C6_5 C 0.26090(15) 0.29954(22) 0.68602(13)
C7_5 C 0.24497(16) 0.23079(23) 0.67434(14)
H3_5 H 0.209295 0.193741 0.696911
C8_5 C 0.28238(17) 0.21708(24) 0.62879(15)
C9_5 C 0.25822(19) 0.04461(26) 0.58300(16)
C10_5 C 0.2979(2) 0.12199(27) 0.57878(15)
C11_5 C 0.2046(2) 0.0240(3) 0.62623(17)
H4_5 H 0.307710 0.010909 0.524006
C13_5 C 0.2056(2) 0.0881(3) 0.65343(18)
H5_5 H 0.161433 0.087203 0.645759
H6_5 H 0.214854 0.092011 0.698195
C17_5 C 0.0008(3) 0.1382(4) 0.8826(4)
H10_5 H 0.005154 0.175576 0.906815
Cu3_5 Cu 0.20412(2) 0.40104(3) 0.82252(2)
O7_5 O 0.05788(16) 0.27248(20) 0.79105(10)
O8_5 O 0.20937(16) 0.27931(19) 0.89710(10)
O9_5 O 0.09192(12) 0.29116(17) 0.91661(10)
O1_6 O 0.60879(16) 0.06085(11) 0.54228(10)
O5_6 O 0.84141(19) 0.19230(13) 0.54796(12)
N1_6 N 0.85399(21) 0.11847(15) 0.61851(14)
C1_6 C 0.59843(22) 0.00520(16) 0.56794(13)
C2_6 C 0.65791(22) 0.00808(16) 0.60619(14)
C3_6 C 0.72662(24) 0.06248(17) 0.59586(14)
H1_6 H 0.735037 0.097381 0.566608
C7_6 C 0.76921(23) 0.01417(17) 0.67434(14)
H3_6 H 0.806259 0.015553 0.696911
C8_6 C 0.78292(24) 0.06529(17) 0.62879(15)
C9_6 C 0.95539(26) 0.21360(18) 0.58300(16)
C10_6 C 0.87801(27) 0.17587(18) 0.57878(15)
C11_6 C 0.9760(3) 0.1805(2) 0.62623(17)
H4_6 H 0.989091 0.296800 0.524006
C13_6 C 0.9119(3) 0.1174(2) 0.65343(18)
H5_6 H 0.912797 0.074229 0.645759
H6_6 H 0.907989 0.122842 0.698195
Cu1_6 Cu 0.73438(3) 0.86359(2) 0.84414(2)
O2_6 O 0.74006(17) 0.91850(12) 0.76913(10)
O4_6 O 0.62450(17) 0.86591(12) 0.75005(10)
O6_6 O 0.84432(21) 0.90147(15) 0.86177(15)
C4_6 C 0.68746(21) 0.91108(15) 0.73929(13)
C5_6 C 0.64487(22) 0.95730(16) 0.65149(14)
H2_6 H 0.599065 0.920788 0.658608
C6_6 C 0.70046(22) 0.96135(16) 0.68602(13)
N2_4 N 0.9066(4) 0.8483(3) 0.8853(4)
C17_6 C 0.8618(4) 0.8625(3) 0.8826(4)
H10_6 H 0.824424 0.829577 0.906815
C18_4 C 0.9268(6) 0.8034(4) 0.9105(6)
H11_4 H 0.912024 0.763474 0.883324
H12_4 H 0.905357 0.787643 0.950999
H13_4 H 0.977230 0.827776 0.914810
C19_4 C 0.9441(11) 0.8678(9) 0.8083(6)
H14_4 H 0.909008 0.863062 0.778560
H15_4 H 0.960189 0.835551 0.797762
H16_4 H 0.983152 0.915242 0.807290
Cu3_6 Cu 0.59896(3) 0.80307(2) 0.82252(2)
O7_6 O 0.72752(20) 0.78540(12) 0.79105(10)
O8_6 O 0.72069(19) 0.93007(11) 0.89710(10)
O9_6 O 0.70884(17) 0.80075(12) 0.91661(10)
O2_7 O 0.74816(12) 0.15489(12) 0.10247(10)
O4_7 O 0.80075(12) 0.09192(12) 0.08339(10)
O6_7 O 0.76519(15) 0.27618(14) 0.19511(15)
C4_7 C 0.75558(15) 0.10971(15) 0.07263(13)
C6_7 C 0.70531(16) 0.07244(15) 0.01936(13)
C7_7 C 0.65249(17) 0.08837(16) 0.00768(14)
H3_7 H 0.651113 0.124039 0.030245
H6_7 H 0.543824 0.118480 0.031529
H7_5 H 0.480656 0.208863 0.002158
N2_5 N 0.8183(3) 0.3916(3) 0.2187(4)
C17_7 C 0.8041(3) 0.3326(3) 0.2160(4)
H10_7 H 0.837089 0.328180 0.240149
C18_5 C 0.8632(4) 0.4567(4) 0.2439(6)
H11_5 H 0.903192 0.481883 0.216658
H12_5 H 0.879023 0.451047 0.284333
H13_5 H 0.838890 0.482787 0.248144
C19_5 C 0.7988(9) 0.4096(7) 0.1417(6)
H14_5 H 0.803604 0.379279 0.111894
H15_5 H 0.831115 0.457971 0.131096
H16_5 H 0.751424 0.401243 0.140624
O7_7 O 0.88127(12) 0.27545(16) 0.12438(10)
O9_7 O 0.86591(12) 0.24142(12) 0.24995(10)
O1_7 O 0.60581(11) 0.88127(12) 0.87562(10)
O5_7 O 0.47436(13) 0.98244(14) 0.88130(12)
C1_7 C 0.66146(16) 0.92656(15) 0.90128(13)
C2_7 C 0.65858(16) 0.98316(15) 0.93953(14)
C3_7 C 0.60418(17) 0.99747(17) 0.92920(14)
H1_7 H 0.569285 0.970989 0.899942
O1_8 O 0.11873(12) 0.72455(16) 0.87562(10)
O5_8 O 0.01756(14) 0.49193(19) 0.88130(12)
C1_8 C 0.07344(15) 0.73491(22) 0.90128(13)
C2_8 C 0.01684(15) 0.67543(22) 0.93953(14)
C3_8 C 0.00253(17) 0.60672(24) 0.92920(14)
H1_8 H 0.029011 0.598297 0.899942
O2_8 O 0.84511(12) 0.59328(17) 0.10247(10)
O4_8 O 0.90808(12) 0.70884(17) 0.08339(10)
O6_8 O 0.72382(14) 0.48902(21) 0.19511(15)
C4_8 C 0.89029(15) 0.64588(21) 0.07263(13)
C6_8 C 0.92756(15) 0.63288(22) 0.01936(13)
C7_8 C 0.91163(16) 0.56413(23) 0.00768(14)
H3_8 H 0.875961 0.527075 0.030245
H6_8 H 0.881520 0.425345 0.031529
H7_6 H 0.791137 0.271794 0.002158
N2_6 N 0.6084(3) 0.4268(4) 0.2187(4)
C17_8 C 0.6674(3) 0.4716(4) 0.2160(4)
H10_8 H 0.671820 0.508910 0.240149
C18_6 C 0.5433(4) 0.4066(6) 0.2439(6)
H11_6 H 0.518117 0.421310 0.216658
H12_6 H 0.548953 0.427977 0.284333
H13_6 H 0.517213 0.356104 0.248144
C19_6 C 0.5904(7) 0.3893(11) 0.1417(6)
H14_6 H 0.620721 0.424326 0.111894
H15_6 H 0.542029 0.373145 0.131096
H16_6 H 0.598757 0.350182 0.140624
O7_8 O 0.72455(16) 0.60581(20) 0.12438(10)
O9_8 O 0.75858(12) 0.62450(17) 0.24995(10)
O2_9 O 0.40672(17) 0.25184(12) 0.10247(10)
O4_9 O 0.29116(17) 0.19925(12) 0.08339(10)
O6_9 O 0.51098(21) 0.23481(15) 0.19511(15)
C4_9 C 0.35412(21) 0.24442(15) 0.07263(13)
C6_9 C 0.36712(22) 0.29469(16) 0.01936(13)
C7_9 C 0.43587(23) 0.34751(17) 0.00768(14)
H3_9 H 0.472925 0.348887 0.030245
H6_9 H 0.574655 0.456176 0.031529
H7_7 H 0.728206 0.519344 0.002158
N2_7 N 0.5732(4) 0.1817(3) 0.2187(4)
C17_9 C 0.5284(4) 0.1959(3) 0.2160(4)
H10_9 H 0.491090 0.162911 0.240149
C18_7 C 0.5934(6) 0.1368(4) 0.2439(6)
H11_7 H 0.578690 0.096808 0.216658
H12_7 H 0.572023 0.120977 0.284333
H13_7 H 0.643896 0.161110 0.248144
C19_7 C 0.6107(11) 0.2012(9) 0.1417(6)
H14_7 H 0.575674 0.196396 0.111894
H15_7 H 0.626855 0.168885 0.131096
H16_7 H 0.649818 0.248576 0.140624
O7_9 O 0.39419(20) 0.11873(12) 0.12438(10)
O9_9 O 0.37550(17) 0.13409(12) 0.24995(10)
O1_9 O 0.27545(16) 0.39419(11) 0.87562(10)
O5_9 O 0.50807(19) 0.52564(13) 0.88130(12)
N1_7 N 0.52065(21) 0.45181(15) 0.95185(14)
C1_9 C 0.26509(22) 0.33854(16) 0.90128(13)
C2_9 C 0.32457(22) 0.34142(16) 0.93953(14)
C3_9 C 0.39328(24) 0.39582(17) 0.92920(14)
H1_9 H 0.401703 0.430715 0.899942
C5_7 C 0.31153(22) 0.29064(16) 0.98483(14)
H2_7 H 0.265731 0.254122 0.991942
C8_7 C 0.44958(24) 0.39863(17) 0.96213(15)
C9_7 C 0.62205(26) 0.54694(18) 0.91634(16)
C10_7 C 0.54467(27) 0.50921(18) 0.91212(15)
C11_7 C 0.6426(3) 0.5139(2) 0.95957(17)
C12_5 C 0.6703(3) 0.6077(2) 0.88565(18)
H4_7 H 0.655757 0.630134 0.857340
C13_7 C 0.5785(3) 0.4508(2) 0.98677(18)
H5_7 H 0.579463 0.407563 0.979093
C14_5 C 0.7136(3) 0.5408(2) 0.9727(2)
C15_5 C 0.7617(4) 0.6000(3) 0.9409(2)
H8_5 H 0.809640 0.617933 0.948081
C16_5 C 0.7406(4) 0.6339(2) 0.8982(2)
H9_3 H 0.774361 0.674533 0.877999
O2_10 O 0.58517(12) 0.51178(12) 0.56420(10)
O3_4 O 0.61264(11) 0.73660(11) 0.76957(10)
O5_10 O 0.85897(13) 0.68423(14) 0.78537(12)
O6_10 O 0.56814(15) 0.39049(14) 0.47156(15)
N1_8 N 0.78514(15) 0.59782(15) 0.71482(14)
C1_10 C 0.67187(16) 0.74011(15) 0.76539(13)
C2_10 C 0.67475(16) 0.68351(15) 0.72714(14)
C3_10 C 0.72915(17) 0.66920(17) 0.73747(14)
H1_10 H 0.764048 0.695678 0.766725
C4_10 C 0.57775(15) 0.55696(15) 0.59404(13)
C5_8 C 0.62397(16) 0.64577(15) 0.68184(14)
H2_8 H 0.587455 0.655057 0.674725
C6_10 C 0.62802(16) 0.59423(15) 0.64731(13)
C7_10 C 0.68084(17) 0.57830(16) 0.65899(14)
H3_10 H 0.682220 0.542628 0.636422
C8_8 C 0.73196(17) 0.61571(17) 0.70454(15)
C9_8 C 0.88027(18) 0.59155(19) 0.75033(16)
C10_8 C 0.84254(18) 0.6312(2) 0.75455(15)
C11_8 C 0.8472(2) 0.5379(2) 0.70710(17)
C12_6 C 0.9410(2) 0.6040(2) 0.78102(18)
H4_8 H 0.963467 0.641043 0.809327
C13_8 C 0.7841(2) 0.5389(2) 0.67990(18)
H5_8 H 0.740896 0.494766 0.687574
H6_10 H 0.789509 0.548187 0.635138
C14_6 C 0.8741(2) 0.4938(2) 0.6940(2)
H7_8 H 0.852677 0.457804 0.664509
C15_6 C 0.9333(3) 0.5049(3) 0.7258(2)
H8_6 H 0.951266 0.474959 0.718586
C16_6 C 0.9672(2) 0.5599(3) 0.7685(2)
N2_8 N 0.5150(3) 0.2751(3) 0.4480(4)
C17_10 C 0.5292(3) 0.3341(3) 0.4507(4)
H10_10 H 0.496244 0.338487 0.426518
C18_8 C 0.4701(4) 0.2100(4) 0.4228(6)
H11_8 H 0.430141 0.184784 0.450009
H12_8 H 0.454310 0.215620 0.382334
H13_8 H 0.494443 0.183880 0.418523
C19_8 C 0.5345(9) 0.2571(7) 0.5250(6)
H14_8 H 0.529729 0.287388 0.554773
H15_8 H 0.502218 0.208696 0.535571
H16_8 H 0.581909 0.265424 0.526043
O8_7 O 0.59673(11) 0.54271(16) 0.43624(10)
O2_11 O 0.48822(12) 0.07339(17) 0.56420(10)
O5_11 O 0.31577(14) 0.17474(19) 0.78537(12)
O6_11 O 0.60951(14) 0.17765(21) 0.47156(15)
N1_9 N 0.40218(15) 0.18732(21) 0.71482(14)
C3_11 C 0.33080(17) 0.05995(24) 0.73747(14)
H1_11 H 0.304322 0.068370 0.766725
C4_11 C 0.44304(15) 0.02079(21) 0.59404(13)
C6_11 C 0.40577(15) 0.03379(22) 0.64731(13)
C7_11 C 0.42170(16) 0.10254(23) 0.65899(14)
H3_11 H 0.457372 0.139592 0.636422
C8_9 C 0.38429(17) 0.11625(24) 0.70454(15)
C9_9 C 0.40845(19) 0.28872(26) 0.75033(16)
C10_9 C 0.3688(2) 0.21134(27) 0.75455(15)
C11_9 C 0.4621(2) 0.3093(3) 0.70710(17)
C12_7 C 0.3960(2) 0.3370(3) 0.78102(18)
H4_9 H 0.358957 0.322424 0.809327
C13_9 C 0.4611(2) 0.2452(3) 0.67990(18)
H5_9 H 0.505234 0.246130 0.687574
H6_11 H 0.451813 0.241322 0.635138
C14_7 C 0.5062(2) 0.3803(3) 0.6940(2)
H7_9 H 0.542196 0.394873 0.664509
C15_7 C 0.4951(3) 0.4284(4) 0.7258(2)
H8_7 H 0.525041 0.476307 0.718586
C16_7 C 0.4401(3) 0.4073(4) 0.7685(2)
H9_4 H 0.433162 0.441028 0.788668
N2_9 N 0.7249(3) 0.2399(4) 0.4480(4)
C17_11 C 0.6659(3) 0.1951(4) 0.4507(4)
H10_11 H 0.661513 0.157757 0.426518
C18_9 C 0.7900(4) 0.2601(6) 0.4228(6)
H11_9 H 0.815216 0.245357 0.450009
H12_9 H 0.784380 0.238690 0.382334
H13_9 H 0.816120 0.310563 0.418523
C19_9 C 0.7429(7) 0.2774(11) 0.5250(6)
H14_9 H 0.712612 0.242341 0.554773
H15_9 H 0.791304 0.293522 0.535571
H16_9 H 0.734576 0.316485 0.526043
O8_8 O 0.45729(16) 0.05403(19) 0.43624(10)
O3_5 O 0.26340(11) 0.87604(16) 0.76957(10)
C1_11 C 0.25989(15) 0.93176(22) 0.76539(13)
C2_11 C 0.31649(15) 0.99124(22) 0.72714(14)
C5_9 C 0.35423(15) 0.97820(22) 0.68184(14)
H2_9 H 0.344943 0.932398 0.674725
O3_6 O 0.12396(16) 0.38736(11) 0.76957(10)
C1_12 C 0.06824(22) 0.32813(16) 0.76539(13)
C2_12 C 0.00876(22) 0.32525(16) 0.72714(14)
C5_10 C 0.02180(22) 0.37603(16) 0.68184(14)
H2_10 H 0.067602 0.412545 0.674725
O2_12 O 0.92661(17) 0.41483(12) 0.56420(10)
O5_12 O 0.82526(19) 0.14103(13) 0.78537(12)
O6_12 O 0.82235(21) 0.43186(15) 0.47156(15)
N1_10 N 0.81268(21) 0.21486(15) 0.71482(14)
C3_12 C 0.94005(24) 0.27085(17) 0.73747(14)
H1_12 H 0.931630 0.235952 0.766725
C4_12 C 0.97921(21) 0.42225(15) 0.59404(13)
C6_12 C 0.96621(22) 0.37198(16) 0.64731(13)
C7_12 C 0.89746(23) 0.31916(17) 0.65899(14)
H3_12 H 0.860408 0.317780 0.636422
C8_10 C 0.88375(24) 0.26804(17) 0.70454(15)
C9_10 C 0.71128(26) 0.11973(18) 0.75033(16)
C10_10 C 0.78866(27) 0.15746(18) 0.75455(15)
C11_10 C 0.6907(3) 0.1528(2) 0.70710(17)
C12_8 C 0.6630(3) 0.0590(2) 0.78102(18)
H4_10 H 0.677576 0.036533 0.809327
C13_10 C 0.7548(3) 0.2159(2) 0.67990(18)
H5_10 H 0.753870 0.259104 0.687574
H6_12 H 0.758678 0.210491 0.635138
C14_8 C 0.6197(3) 0.1259(2) 0.6940(2)
H7_10 H 0.605127 0.147323 0.664509
C15_8 C 0.5716(4) 0.0667(3) 0.7258(2)
H8_8 H 0.523693 0.048734 0.718586
C16_8 C 0.5927(4) 0.0328(2) 0.7685(2)
N2_10 N 0.7601(4) 0.4850(3) 0.4480(4)
C17_12 C 0.8049(4) 0.4708(3) 0.4507(4)
H10_12 H 0.842243 0.503756 0.426518
C18_10 C 0.7399(6) 0.5299(4) 0.4228(6)
H11_10 H 0.754643 0.569859 0.450009
H12_10 H 0.761310 0.545690 0.382334
H13_10 H 0.689437 0.505557 0.418523
C19_10 C 0.7226(11) 0.4655(9) 0.5250(6)
H14_10 H 0.757659 0.470271 0.554773
H15_10 H 0.706478 0.497782 0.535571
H16_10 H 0.683515 0.418091 0.526043
O8_9 O 0.94597(19) 0.40327(11) 0.43624(10)
O5_13 O 0.19230(13) 0.35090(14) 0.45204(12)
N1_11 N 0.11847(15) 0.26449(15) 0.38149(14)
C1_13 C 0.00520(16) 0.40678(15) 0.43206(13)
C2_13 C 0.00808(16) 0.35018(15) 0.39381(14)
C3_13 C 0.06248(17) 0.33587(17) 0.40414(14)
H1_13 H 0.097381 0.362345 0.433392
C7_13 C 0.01417(17) 0.24497(16) 0.32566(14)
H3_13 H 0.015553 0.209295 0.303089
C8_11 C 0.06529(17) 0.28238(17) 0.37121(15)
C9_11 C 0.21360(18) 0.25822(19) 0.41700(16)
C10_11 C 0.17587(18) 0.2979(2) 0.42122(15)
C11_11 C 0.1805(2) 0.2046(2) 0.37377(17)
C12_9 C 0.2743(2) 0.2707(2) 0.44769(18)
H4_11 H 0.296800 0.307710 0.475994
C13_11 C 0.1174(2) 0.2056(2) 0.34657(18)
H5_11 H 0.074229 0.161433 0.354241
H6_13 H 0.122842 0.214854 0.301805
C14_9 C 0.2074(2) 0.1605(2) 0.3607(2)
H7_11 H 0.186010 0.124471 0.331176
C15_9 C 0.2666(3) 0.1716(3) 0.3925(2)
H8_9 H 0.284599 0.141626 0.385253
C16_9 C 0.3005(2) 0.2266(3) 0.4352(2)
H9_5 H 0.341199 0.233505 0.455335
O2_13 O 0.91850(12) 0.17845(12) 0.23087(10)
O6_13 O 0.90147(15) 0.05716(14) 0.13823(15)
C4_13 C 0.91108(15) 0.22363(15) 0.26071(13)
C5_11 C 0.95730(16) 0.31244(15) 0.34851(14)
H2_11 H 0.920788 0.321724 0.341392
C6_13 C 0.96135(16) 0.26090(15) 0.31398(13)
C17_13 C 0.8625(3) 0.0008(3) 0.1174(4)
H10_13 H 0.829577 0.005154 0.093185
O8_10 O 0.93007(11) 0.20937(16) 0.10290(10)
O2_14 O 0.82155(12) 0.74006(17) 0.23087(10)
O5_14 O 0.64910(14) 0.84141(19) 0.45204(12)
O6_14 O 0.94284(14) 0.84432(21) 0.13823(15)
N1_12 N 0.73551(15) 0.85399(21) 0.38149(14)
C1_14 C 0.59322(15) 0.59843(22) 0.43206(13)
C2_14 C 0.64982(15) 0.65791(22) 0.39381(14)
C3_14 C 0.66413(17) 0.72662(24) 0.40414(14)
H1_14 H 0.637655 0.735037 0.433392
C4_14 C 0.77637(15) 0.68746(21) 0.26071(13)
C5_12 C 0.68756(15) 0.64487(22) 0.34851(14)
H2_12 H 0.678276 0.599065 0.341392
C6_14 C 0.73910(15) 0.70046(22) 0.31398(13)
C7_14 C 0.75503(16) 0.76921(23) 0.32566(14)
H3_14 H 0.790705 0.806259 0.303089
C8_12 C 0.71762(17) 0.78292(24) 0.37121(15)
C9_12 C 0.74178(19) 0.95539(26) 0.41700(16)
C10_12 C 0.7021(2) 0.87801(27) 0.42122(15)
C11_12 C 0.7954(2) 0.9760(3) 0.37377(17)
H4_12 H 0.692290 0.989091 0.475994
C13_12 C 0.7944(2) 0.9119(3) 0.34657(18)
H5_12 H 0.838567 0.912797 0.354241
H6_14 H 0.785146 0.907989 0.301805
C17_14 C 0.9992(3) 0.8618(4) 0.1174(4)
H10_14 H 0.994846 0.824424 0.093185
O8_11 O 0.79063(16) 0.72069(19) 0.10290(10)
O2_15 O 0.25994(17) 0.08150(12) 0.23087(10)
O6_15 O 0.15568(21) 0.09853(15) 0.13823(15)
C4_15 C 0.31254(21) 0.08892(15) 0.26071(13)
C5_13 C 0.35513(22) 0.04270(16) 0.34851(14)
H2_13 H 0.400935 0.079212 0.341392
C6_15 C 0.29954(22) 0.03865(16) 0.31398(13)
N2_11 N 0.0934(4) 0.1517(3) 0.1147(4)
C17_15 C 0.1382(4) 0.1375(3) 0.1174(4)
H10_15 H 0.175576 0.170423 0.093185
C18_11 C 0.0732(6) 0.1966(4) 0.0895(6)
H11_11 H 0.087976 0.236526 0.116676
H12_11 H 0.094643 0.212357 0.049001
H13_11 H 0.022770 0.172224 0.085190
C19_11 C 0.0559(11) 0.1322(9) 0.1917(6)
H14_11 H 0.090992 0.136938 0.221440
H15_11 H 0.039811 0.164449 0.202238
H16_11 H 0.016848 0.084758 0.192710
O8_12 O 0.27931(19) 0.06993(11) 0.10290(10)
O5_15 O 0.15859(19) 0.80770(13) 0.45204(12)
N1_13 N 0.14601(21) 0.88153(15) 0.38149(14)
C1_15 C 0.40157(22) 0.99480(16) 0.43206(13)
C2_15 C 0.34209(22) 0.99192(16) 0.39381(14)
C3_15 C 0.27338(24) 0.93752(17) 0.40414(14)
H1_15 H 0.264963 0.902619 0.433392
C7_15 C 0.23079(23) 0.98583(17) 0.32566(14)
H3_15 H 0.193741 0.984447 0.303089
C8_13 C 0.21708(24) 0.93471(17) 0.37121(15)
C9_13 C 0.04461(26) 0.78640(18) 0.41700(16)
C10_13 C 0.12199(27) 0.82413(18) 0.42122(15)
C11_13 C 0.0240(3) 0.8195(2) 0.37377(17)
H4_13 H 0.010909 0.703200 0.475994
C13_13 C 0.0881(3) 0.8826(2) 0.34657(18)
H5_13 H 0.087203 0.925771 0.354241
H6_15 H 0.092011 0.877158 0.301805
O5_16 O 0.52564(13) 0.01756(14) 0.11870(12)
C1_16 C 0.33854(16) 0.07344(15) 0.09872(13)
C2_16 C 0.34142(16) 0.01684(15) 0.06047(14)
C3_16 C 0.39582(17) 0.00253(17) 0.07080(14)
H1_16 H 0.430715 0.029011 0.100058
O2_16 O 0.25184(12) 0.84511(12) 0.89753(10)
O6_16 O 0.23481(15) 0.72382(14) 0.80489(15)
C4_16 C 0.24442(15) 0.89029(15) 0.92737(13)
C6_16 C 0.29469(16) 0.92756(15) 0.98064(13)
C7_16 C 0.34751(17) 0.91163(16) 0.99232(14)
H3_16 H 0.348887 0.875961 0.969755
H6_16 H 0.456176 0.881520 0.968471
H7_12 H 0.519344 0.791137 0.997842
N2_12 N 0.1817(3) 0.6084(3) 0.7813(4)
C17_16 C 0.1959(3) 0.6674(3) 0.7840(4)
H10_16 H 0.162911 0.671820 0.759851
C18_12 C 0.1368(4) 0.5433(4) 0.7561(6)
H11_12 H 0.096808 0.518117 0.783342
H12_12 H 0.120977 0.548953 0.715667
H13_12 H 0.161110 0.517213 0.751856
C19_12 C 0.2012(9) 0.5904(7) 0.8583(6)
H14_12 H 0.196396 0.620721 0.888106
H15_12 H 0.168885 0.542029 0.868904
H16_12 H 0.248576 0.598757 0.859376
O2_17 O 0.15489(12) 0.40672(17) 0.89753(10)
O6_17 O 0.27618(14) 0.51098(21) 0.80489(15)
C4_17 C 0.10971(15) 0.35412(21) 0.92737(13)
C6_17 C 0.07244(15) 0.36712(22) 0.98064(13)
C7_17 C 0.08837(16) 0.43587(23) 0.99232(14)
H3_17 H 0.124039 0.472925 0.969755
H6_17 H 0.118480 0.574655 0.968471
H7_13 H 0.208863 0.728206 0.997842
N2_13 N 0.3916(3) 0.5732(4) 0.7813(4)
C17_17 C 0.3326(3) 0.5284(4) 0.7840(4)
H10_17 H 0.328180 0.491090 0.759851
C18_13 C 0.4567(4) 0.5934(6) 0.7561(6)
H11_13 H 0.481883 0.578690 0.783342
H12_13 H 0.451047 0.572023 0.715667
H13_13 H 0.482787 0.643896 0.751856
C19_13 C 0.4096(7) 0.6107(11) 0.8583(6)
H14_13 H 0.379279 0.575674 0.888106
H15_13 H 0.457971 0.626855 0.868904
H16_13 H 0.401243 0.649818 0.859376
O5_17 O 0.98244(14) 0.50807(19) 0.11870(12)
C1_17 C 0.92656(15) 0.26509(22) 0.09872(13)
C2_17 C 0.98316(15) 0.32457(22) 0.06047(14)
C3_17 C 0.99747(17) 0.39328(24) 0.07080(14)
H1_17 H 0.970989 0.401703 0.100058
O5_18 O 0.49193(19) 0.47436(13) 0.11870(12)
N1_14 N 0.47935(21) 0.54819(15) 0.04815(14)
C1_18 C 0.73491(22) 0.66146(16) 0.09872(13)
C2_18 C 0.67543(22) 0.65858(16) 0.06047(14)
C3_18 C 0.60672(24) 0.60418(17) 0.07080(14)
H1_18 H 0.598297 0.569285 0.100058
C5_14 C 0.68847(22) 0.70936(16) 0.01517(14)
H2_14 H 0.734269 0.745878 0.008058
C8_14 C 0.55042(24) 0.60137(17) 0.03787(15)
C9_14 C 0.37795(26) 0.45306(18) 0.08366(16)
C10_14 C 0.45533(27) 0.49079(18) 0.08788(15)
C11_14 C 0.3574(3) 0.4861(2) 0.04043(17)
C12_10 C 0.3297(3) 0.3923(2) 0.11435(18)
H4_14 H 0.344243 0.369866 0.142660
C13_14 C 0.4215(3) 0.5492(2) 0.01323(18)
H5_14 H 0.420537 0.592437 0.020907
C14_10 C 0.2864(3) 0.4592(2) 0.0273(2)
C15_10 C 0.2383(4) 0.4000(3) 0.0591(2)
H8_10 H 0.190360 0.382067 0.051919
C16_10 C 0.2594(4) 0.3661(2) 0.1018(2)
H9_6 H 0.225639 0.325467 0.122001
O2_18 O 0.59328(17) 0.74816(12) 0.89753(10)
O6_18 O 0.48902(21) 0.76519(15) 0.80489(15)
C4_18 C 0.64588(21) 0.75558(15) 0.92737(13)
C6_18 C 0.63288(22) 0.70531(16) 0.98064(13)
C7_18 C 0.56413(23) 0.65249(17) 0.99232(14)
H3_18 H 0.527075 0.651113 0.969755
H6_18 H 0.425345 0.543824 0.968471
H7_14 H 0.271794 0.480656 0.997842
N2_14 N 0.4268(4) 0.8183(3) 0.7813(4)
C17_18 C 0.4716(4) 0.8041(3) 0.7840(4)
H10_18 H 0.508910 0.837089 0.759851
C18_14 C 0.4066(6) 0.8632(4) 0.7561(6)
H11_14 H 0.421310 0.903192 0.783342
H12_14 H 0.427977 0.879023 0.715667
H13_14 H 0.356104 0.838890 0.751856
C19_14 C 0.3893(11) 0.7988(9) 0.8583(6)
H14_14 H 0.424326 0.803604 0.888106
H15_14 H 0.373145 0.831115 0.868904
H16_14 H 0.350182 0.751424 0.859376
H9_7 H 0.992134 0.433162 0.211332
H9_8 H 0.441028 0.007866 0.211332
N2_15 N 0.1517(3) 0.0582(3) 0.8853(4)
C18_15 C 0.1966(4) 0.1233(4) 0.9105(6)
H11_15 H 0.236526 0.148549 0.883324
H12_15 H 0.212357 0.117713 0.950999
H13_15 H 0.172224 0.149453 0.914810
C19_15 C 0.1322(9) 0.0762(7) 0.8083(6)
H14_15 H 0.136938 0.045945 0.778560
H15_15 H 0.164449 0.124637 0.797762
H16_15 H 0.084758 0.067909 0.807290
C12_11 C 0.2707(2) 0.9963(3) 0.55231(18)
C14_11 C 0.1605(2) 0.9530(3) 0.6393(2)
H7_15 H 0.124471 0.938460 0.668824
C15_11 C 0.1716(3) 0.9049(4) 0.6075(2)
H8_11 H 0.141626 0.857026 0.614747
C16_11 C 0.2266(3) 0.9260(4) 0.5648(2)
H9_9 H 0.233505 0.892305 0.544665
N2_16 N 0.9418(3) 0.0934(4) 0.8853(4)
C18_16 C 0.8767(4) 0.0732(6) 0.9105(6)
H11_16 H 0.851451 0.087976 0.883324
H12_16 H 0.882287 0.094643 0.950999
H13_16 H 0.850547 0.022770 0.914810
C19_16 C 0.9238(7) 0.0559(11) 0.8083(6)
H14_16 H 0.954055 0.090992 0.778560
H15_16 H 0.875363 0.039811 0.797762
H16_16 H 0.932091 0.016848 0.807290
C12_12 C 0.0037(3) 0.2743(2) 0.55231(18)
C14_12 C 0.0470(3) 0.2074(2) 0.6393(2)
H7_16 H 0.061540 0.186010 0.668824
C15_12 C 0.0951(4) 0.2666(3) 0.6075(2)
H8_12 H 0.142974 0.284599 0.614747
C16_12 C 0.0740(4) 0.3005(2) 0.5648(2)
H9_10 H 0.107695 0.341199 0.544665
N1_15 N 0.54819(15) 0.06885(15) 0.95185(14)
C5_15 C 0.70936(16) 0.02090(15) 0.98483(14)
H2_15 H 0.745878 0.011610 0.991942
C8_15 C 0.60137(17) 0.05096(17) 0.96213(15)
C9_15 C 0.45306(18) 0.07512(19) 0.91634(16)
C10_15 C 0.49079(18) 0.0355(2) 0.91212(15)
C11_15 C 0.4861(2) 0.1288(2) 0.95957(17)
C12_13 C 0.3923(2) 0.0627(2) 0.88565(18)
H4_15 H 0.369866 0.025624 0.857340
C13_15 C 0.5492(2) 0.1278(2) 0.98677(18)
H5_15 H 0.592437 0.171901 0.979093
C14_13 C 0.4592(2) 0.1729(2) 0.9727(2)
C15_13 C 0.4000(3) 0.1618(3) 0.9409(2)
H8_13 H 0.382067 0.191708 0.948081
C16_13 C 0.3661(2) 0.1068(3) 0.8982(2)
H9_11 H 0.325467 0.099829 0.877999
N1_16 N 0.93115(15) 0.47935(21) 0.95185(14)
C5_16 C 0.97910(15) 0.68847(22) 0.98483(14)
H2_16 H 0.988390 0.734269 0.991942
C8_16 C 0.94904(17) 0.55042(24) 0.96213(15)
C9_16 C 0.92488(19) 0.37795(26) 0.91634(16)
C10_16 C 0.9645(2) 0.45533(27) 0.91212(15)
C11_16 C 0.8712(2) 0.3574(3) 0.95957(17)
C12_14 C 0.9373(2) 0.3297(3) 0.88565(18)
H4_16 H 0.974376 0.344243 0.857340
C13_16 C 0.8722(2) 0.4215(3) 0.98677(18)
H5_16 H 0.828099 0.420537 0.979093
C14_14 C 0.8271(2) 0.2864(3) 0.9727(2)
C15_14 C 0.8382(3) 0.2383(4) 0.9409(2)
H8_14 H 0.808292 0.190360 0.948081
C16_14 C 0.8932(3) 0.2594(4) 0.8982(2)
H9_12 H 0.900171 0.225639 0.877999
H9_13 H 0.007866 0.566838 0.788668
H9_14 H 0.558972 0.992134 0.788668
N2_17 N 0.8483(3) 0.9418(3) 0.1147(4)
C18_17 C 0.8034(4) 0.8767(4) 0.0895(6)
H11_17 H 0.763474 0.851451 0.116676
H12_17 H 0.787643 0.882287 0.049001
H13_17 H 0.827776 0.850547 0.085190
C19_17 C 0.8678(9) 0.9238(7) 0.1917(6)
H14_17 H 0.863062 0.954055 0.221440
H15_17 H 0.835551 0.875363 0.202238
H16_17 H 0.915242 0.932091 0.192710
N2_18 N 0.0582(3) 0.9066(4) 0.1147(4)
C18_18 C 0.1233(4) 0.9268(6) 0.0895(6)
H11_18 H 0.148549 0.912024 0.116676
H12_18 H 0.117713 0.905357 0.049001
H13_18 H 0.149453 0.977230 0.085190
C19_18 C 0.0762(7) 0.9441(11) 0.1917(6)
H14_18 H 0.045945 0.909008 0.221440
H15_18 H 0.124637 0.960189 0.202238
H16_18 H 0.067909 0.983152 0.192710
C12_15 C 0.7293(2) 0.0037(3) 0.44769(18)
C14_15 C 0.8395(2) 0.0470(3) 0.3607(2)
H7_17 H 0.875529 0.061540 0.331176
C15_15 C 0.8284(3) 0.0951(4) 0.3925(2)
H8_15 H 0.858374 0.142974 0.385253
C16_15 C 0.7734(3) 0.0740(4) 0.4352(2)
H9_15 H 0.766495 0.107695 0.455335
C12_16 C 0.9963(3) 0.7257(2) 0.44769(18)
C14_16 C 0.9530(3) 0.7926(2) 0.3607(2)
H7_18 H 0.938460 0.813990 0.331176
C15_16 C 0.9049(4) 0.7334(3) 0.3925(2)
H8_16 H 0.857026 0.715401 0.385253
C16_16 C 0.9260(4) 0.6995(2) 0.4352(2)
H9_16 H 0.892305 0.658801 0.455335
N1_17 N 0.45181(15) 0.93115(15) 0.04815(14)
C5_17 C 0.29064(16) 0.97910(15) 0.01517(14)
H2_17 H 0.254122 0.988390 0.008058
C8_17 C 0.39863(17) 0.94904(17) 0.03787(15)
C9_17 C 0.54694(18) 0.92488(19) 0.08366(16)
C10_17 C 0.50921(18) 0.9645(2) 0.08788(15)
C11_17 C 0.5139(2) 0.8712(2) 0.04043(17)
C12_17 C 0.6077(2) 0.9373(2) 0.11435(18)
H4_17 H 0.630134 0.974376 0.142660
C13_17 C 0.4508(2) 0.8722(2) 0.01323(18)
H5_17 H 0.407563 0.828099 0.020907
C14_17 C 0.5408(2) 0.8271(2) 0.0273(2)
C15_17 C 0.6000(3) 0.8382(3) 0.0591(2)
H8_17 H 0.617933 0.808292 0.051919
C16_17 C 0.6339(2) 0.8932(3) 0.1018(2)
H9_17 H 0.674533 0.900171 0.122001
N1_18 N 0.06885(15) 0.52065(21) 0.04815(14)
C5_18 C 0.02090(15) 0.31153(22) 0.01517(14)
H2_18 H 0.011610 0.265731 0.008058
C8_18 C 0.05096(17) 0.44958(24) 0.03787(15)
C9_18 C 0.07512(19) 0.62205(26) 0.08366(16)
C10_18 C 0.0355(2) 0.54467(27) 0.08788(15)
C11_18 C 0.1288(2) 0.6426(3) 0.04043(17)
C12_18 C 0.0627(2) 0.6703(3) 0.11435(18)
H4_18 H 0.025624 0.655757 0.142660
C13_18 C 0.1278(2) 0.5785(3) 0.01323(18)
H5_18 H 0.171901 0.579463 0.020907
C14_18 C 0.1729(2) 0.7136(3) 0.0273(2)
C15_18 C 0.1618(3) 0.7617(4) 0.0591(2)
H8_18 H 0.191708 0.809640 0.051919
C16_18 C 0.1068(3) 0.7406(4) 0.1018(2)
H9_18 H 0.099829 0.774361 0.122001
loop_
_geom_bond_atom_site_label_1
_geom_bond_atom_site_label_2
_geom_bond_site_symmetry_1
_geom_bond_site_symmetry_2
Cu1 O2 1_555 1_555
O1 C1 1_555 1_555
O2 C4 1_555 1_555
O3 C1 1_555 1_555
O4 C4 1_555 1_555
O5 C10 1_555 1_555
O6 Cu1 1_555 1_555
N1 C8 1_555 1_555
C1 C2 1_555 1_555
C2 C3 1_555 1_555
C3 H1 1_555 1_555
C4 C6 1_555 1_555
C5 C2 1_555 1_555
H2 C5 1_555 1_555
C6 C5 1_555 1_555
C7 C6 1_555 1_555
H3 C7 1_555 1_555
C8 C3 1_555 1_555
C9 C10 1_555 1_555
C10 N1 1_555 1_555
C11 C9 1_555 1_555
C12 C9 1_555 1_555
H4 C12 1_555 1_555
C13 N1 1_555 1_555
H5 C13 1_555 1_555
H6 C13 1_555 1_555
C14 C11 1_555 1_555
H7 C14 1_555 1_555
C15 C14 1_555 1_555
H8 C15 1_555 1_555
C16 C12 1_555 1_555
N2 C17 1_555 1_555
C17 O6 1_555 1_555
H10 C17 1_555 1_555
C18 N2 1_555 1_555
H11 C18 1_555 1_555
H12 C18 1_555 1_555
H13 C18 1_555 1_555
C19 N2 1_555 1_555
H14 C19 1_555 1_555
H15 C19 1_555 1_555
H16 C19 1_555 1_555
Cu2 O3 1_555 1_555
Cu3 Cu1 1_555 1_555
Cu4 O1 1_555 1_555
O7 Cu1 1_555 1_555
O8 Cu1 1_555 1_555
O9 Cu1 1_555 1_555
O4 Cu3 1_555 1_555
C7 C8 1_555 1_555
C11 C13 1_555 1_555
C15 C16 1_555 1_555
Cu2 Cu4 1_555 1_555
O1_2 C1_2 1_555 1_555
O3_2 C1_2 1_555 1_555
C1_2 C2_2 1_555 1_555
C5_2 C2_2 1_555 1_555
H2_2 C5_2 1_555 1_555
Cu2_2 O3_2 1_555 1_555
Cu4_2 O1_2 1_555 1_555
O4_2 Cu3_2 1_555 1_555
Cu2_2 Cu4_2 1_555 1_555
Cu1_2 O2_2 1_555 1_555
O2_2 C4_2 1_555 1_555
O5_2 C10_2 1_555 1_555
O6_2 Cu1_2 1_555 1_555
N1_2 C8_2 1_555 1_555
C3_2 H1_2 1_555 1_555
C4_2 C6_2 1_555 1_555
C7_2 C6_2 1_555 1_555
H3_2 C7_2 1_555 1_555
C8_2 C3_2 1_555 1_555
C9_2 C10_2 1_555 1_555
C10_2 N1_2 1_555 1_555
C11_2 C9_2 1_555 1_555
C12_2 C9_2 1_555 1_555
H4_2 C12_2 1_555 1_555
C13_2 N1_2 1_555 1_555
H5_2 C13_2 1_555 1_555
H6_2 C13_2 1_555 1_555
C14_2 C11_2 1_555 1_555
H7_2 C14_2 1_555 1_555
C15_2 C14_2 1_555 1_555
H8_2 C15_2 1_555 1_555
C16_2 C12_2 1_555 1_555
H9 C16_2 1_555 1_555
N2_2 C17_2 1_555 1_555
C17_2 O6_2 1_555 1_555
H10_2 C17_2 1_555 1_555
C18_2 N2_2 1_555 1_555
H11_2 C18_2 1_555 1_555
H12_2 C18_2 1_555 1_555
H13_2 C18_2 1_555 1_555
C19_2 N2_2 1_555 1_555
H14_2 C19_2 1_555 1_555
H15_2 C19_2 1_555 1_555
H16_2 C19_2 1_555 1_555
O7_2 Cu1_2 1_555 1_555
O8_2 Cu1_2 1_555 1_555
O9_2 Cu1_2 1_555 1_555
C7_2 C8_2 1_555 1_555
C11_2 C13_2 1_555 1_555
C15_2 C16_2 1_555 1_555
Cu1_3 O2_3 1_555 1_555
O2_3 C4_3 1_555 1_555
O5_3 C10_3 1_555 1_555
O6_3 Cu1_3 1_555 1_555
N1_3 C8_3 1_555 1_555
C3_3 H1_3 1_555 1_555
C4_3 C6_3 1_555 1_555
C7_3 C6_3 1_555 1_555
H3_3 C7_3 1_555 1_555
C8_3 C3_3 1_555 1_555
C9_3 C10_3 1_555 1_555
C10_3 N1_3 1_555 1_555
C11_3 C9_3 1_555 1_555
C12_3 C9_3 1_555 1_555
H4_3 C12_3 1_555 1_555
C13_3 N1_3 1_555 1_555
H5_3 C13_3 1_555 1_555
H6_3 C13_3 1_555 1_555
C14_3 C11_3 1_555 1_555
H7_3 C14_3 1_555 1_555
C15_3 C14_3 1_555 1_555
H8_3 C15_3 1_555 1_555
C16_3 C12_3 1_555 1_555
N2_3 C17_3 1_555 1_555
C17_3 O6_3 1_555 1_555
H10_3 C17_3 1_555 1_555
C18_3 N2_3 1_555 1_555
H11_3 C18_3 1_555 1_555
H12_3 C18_3 1_555 1_555
H13_3 C18_3 1_555 1_555
C19_3 N2_3 1_555 1_555
H14_3 C19_3 1_555 1_555
H15_3 C19_3 1_555 1_555
H16_3 C19_3 1_555 1_555
O7_3 Cu1_3 1_555 1_555
O8_3 Cu1_3 1_555 1_555
O9_3 Cu1_3 1_555 1_555
C7_3 C8_3 1_555 1_555
C11_3 C13_3 1_555 1_555
C15_3 C16_3 1_555 1_555
O1_3 C1_3 1_555 1_555
O3_3 C1_3 1_555 1_555
C1_3 C2_3 1_555 1_555
C5_3 C2_3 1_555 1_555
H2_3 C5_3 1_555 1_555
Cu2_3 O3_3 1_555 1_555
Cu4_3 O1_3 1_555 1_555
O4_3 Cu3_3 1_555 1_555
Cu2_3 Cu4_3 1_555 1_555
Cu1_4 O2_4 1_555 1_555
O2_4 C4_4 1_555 1_555
O4_4 C4_4 1_555 1_555
O6_4 Cu1_4 1_555 1_555
C4_4 C6_4 1_555 1_555
H2_4 C5_4 1_555 1_555
C6_4 C5_4 1_555 1_555
C17_4 O6_4 1_555 1_555
H10_4 C17_4 1_555 1_555
Cu3_4 Cu1_4 1_555 1_555
O7_4 Cu1_4 1_555 1_555
O8_4 Cu1_4 1_555 1_555
O9_4 Cu1_4 1_555 1_555
O4_4 Cu3_4 1_555 1_555
O1_4 C1_4 1_555 1_555
O5_4 C10_4 1_555 1_555
N1_4 C8_4 1_555 1_555
C1_4 C2_4 1_555 1_555
C2_4 C3_4 1_555 1_555
C3_4 H1_4 1_555 1_555
H3_4 C7_4 1_555 1_555
C8_4 C3_4 1_555 1_555
C9_4 C10_4 1_555 1_555
C10_4 N1_4 1_555 1_555
C11_4 C9_4 1_555 1_555
C12_4 C9_4 1_555 1_555
H4_4 C12_4 1_555 1_555
C13_4 N1_4 1_555 1_555
H5_4 C13_4 1_555 1_555
H6_4 C13_4 1_555 1_555
C14_4 C11_4 1_555 1_555
H7_4 C14_4 1_555 1_555
C15_4 C14_4 1_555 1_555
H8_4 C15_4 1_555 1_555
C16_4 C12_4 1_555 1_555
H9_2 C16_4 1_555 1_555
Cu3_3 O1_4 1_555 1_555
C7_4 C8_4 1_555 1_555
C11_4 C13_4 1_555 1_555
C15_4 C16_4 1_555 1_555
Cu1_5 O2_5 1_555 1_555
O1_5 C1_5 1_555 1_555
O2_5 C4_5 1_555 1_555
O8 C1_5 1_555 1_555
O4_5 C4_5 1_555 1_555
O5_5 C10_5 1_555 1_555
O6_5 Cu1_5 1_555 1_555
N1_5 C8_5 1_555 1_555
C1_5 C2_5 1_555 1_555
C2_5 C3_5 1_555 1_555
C3_5 H1_5 1_555 1_555
C4_5 C6_5 1_555 1_555
C5_5 C2_5 1_555 1_555
H2_5 C5_5 1_555 1_555
C6_5 C5_5 1_555 1_555
C7_5 C6_5 1_555 1_555
H3_5 C7_5 1_555 1_555
C8_5 C3_5 1_555 1_555
C9_5 C10_5 1_555 1_555
C10_5 N1_5 1_555 1_555
C11_5 C9_5 1_555 1_555
C13_5 N1_5 1_555 1_555
H5_5 C13_5 1_555 1_555
H6_5 C13_5 1_555 1_555
C17_5 O6_5 1_555 1_555
H10_5 C17_5 1_555 1_555
Cu3_5 Cu1_5 1_555 1_555
Cu3 O1_5 1_555 1_555
O7_5 Cu1_5 1_555 1_555
O8_5 Cu1_5 1_555 1_555
O9_5 Cu1_5 1_555 1_555
O4_5 Cu3_5 1_555 1_555
C7_5 C8_5 1_555 1_555
C11_5 C13_5 1_555 1_555
O1_6 C1_6 1_555 1_555
O5_6 C10_6 1_555 1_555
N1_6 C8_6 1_555 1_555
C1_6 C2_6 1_555 1_555
C2_6 C3_6 1_555 1_555
C3_6 H1_6 1_555 1_555
H3_6 C7_6 1_555 1_555
C8_6 C3_6 1_555 1_555
C9_6 C10_6 1_555 1_555
C10_6 N1_6 1_555 1_555
C11_6 C9_6 1_555 1_555
C13_6 N1_6 1_555 1_555
H5_6 C13_6 1_555 1_555
H6_6 C13_6 1_555 1_555
Cu3_2 O1_6 1_555 1_555
C7_6 C8_6 1_555 1_555
C11_6 C13_6 1_555 1_555
Cu1_6 O2_6 1_555 1_555
O2_6 C4_6 1_555 1_555
O4_6 C4_6 1_555 1_555
O6_6 Cu1_6 1_555 1_555
C4_6 C6_6 1_555 1_555
H2_6 C5_6 1_555 1_555
C6_6 C5_6 1_555 1_555
N2_4 C17_6 1_555 1_555
C17_6 O6_6 1_555 1_555
H10_6 C17_6 1_555 1_555
C18_4 N2_4 1_555 1_555
H11_4 C18_4 1_555 1_555
H12_4 C18_4 1_555 1_555
H13_4 C18_4 1_555 1_555
C19_4 N2_4 1_555 1_555
H14_4 C19_4 1_555 1_555
H15_4 C19_4 1_555 1_555
H16_4 C19_4 1_555 1_555
Cu3_6 Cu1_6 1_555 1_555
O7_6 Cu1_6 1_555 1_555
O8_6 Cu1_6 1_555 1_555
O9_6 Cu1_6 1_555 1_555
O4_6 Cu3_6 1_555 1_555
Cu2_2 O2_7 1_555 1_555
O2_7 C4_7 1_555 1_555
O4_7 C4_7 1_555 1_555
O6_7 Cu2_2 1_555 1_555
C4_7 C6_7 1_555 1_555
C7_7 C6_7 1_555 1_555
H3_7 C7_7 1_555 1_555
N2_5 C17_7 1_555 1_555
C17_7 O6_7 1_555 1_555
H10_7 C17_7 1_555 1_555
C18_5 N2_5 1_555 1_555
H11_5 C18_5 1_555 1_555
H12_5 C18_5 1_555 1_555
H13_5 C18_5 1_555 1_555
C19_5 N2_5 1_555 1_555
H14_5 C19_5 1_555 1_555
H15_5 C19_5 1_555 1_555
H16_5 C19_5 1_555 1_555
O7_7 Cu2_2 1_555 1_555
O9_7 Cu2_2 1_555 1_555
O4_7 Cu4_2 1_555 1_555
O1_7 C1_7 1_555 1_555
O8_6 C1_7 1_555 1_555
C1_7 C2_7 1_555 1_555
C2_7 C3_7 1_555 1_555
C3_7 H1_7 1_555 1_555
Cu3_6 O1_7 1_555 1_555
O1_8 C1_8 1_555 1_555
O8_4 C1_8 1_555 1_555
C1_8 C2_8 1_555 1_555
C2_8 C3_8 1_555 1_555
C3_8 H1_8 1_555 1_555
Cu3_4 O1_8 1_555 1_555
Cu2_3 O2_8 1_555 1_555
O2_8 C4_8 1_555 1_555
O4_8 C4_8 1_555 1_555
O6_8 Cu2_3 1_555 1_555
C4_8 C6_8 1_555 1_555
C7_8 C6_8 1_555 1_555
H3_8 C7_8 1_555 1_555
N2_6 C17_8 1_555 1_555
C17_8 O6_8 1_555 1_555
H10_8 C17_8 1_555 1_555
C18_6 N2_6 1_555 1_555
H11_6 C18_6 1_555 1_555
H12_6 C18_6 1_555 1_555
H13_6 C18_6 1_555 1_555
C19_6 N2_6 1_555 1_555
H14_6 C19_6 1_555 1_555
H15_6 C19_6 1_555 1_555
H16_6 C19_6 1_555 1_555
O7_8 Cu2_3 1_555 1_555
O9_8 Cu2_3 1_555 1_555
O4_8 Cu4_3 1_555 1_555
Cu2 O2_9 1_555 1_555
O2_9 C4_9 1_555 1_555
O4_9 C4_9 1_555 1_555
O6_9 Cu2 1_555 1_555
C4_9 C6_9 1_555 1_555
C7_9 C6_9 1_555 1_555
H3_9 C7_9 1_555 1_555
N2_7 C17_9 1_555 1_555
C17_9 O6_9 1_555 1_555
H10_9 C17_9 1_555 1_555
C18_7 N2_7 1_555 1_555
H11_7 C18_7 1_555 1_555
H12_7 C18_7 1_555 1_555
H13_7 C18_7 1_555 1_555
C19_7 N2_7 1_555 1_555
H14_7 C19_7 1_555 1_555
H15_7 C19_7 1_555 1_555
H16_7 C19_7 1_555 1_555
O7_9 Cu2 1_555 1_555
O9_9 Cu2 1_555 1_555
O4_9 Cu4 1_555 1_555
O1_9 C1_9 1_555 1_555
O8_5 C1_9 1_555 1_555
O5_9 C10_7 1_555 1_555
N1_7 C8_7 1_555 1_555
C1_9 C2_9 1_555 1_555
C2_9 C3_9 1_555 1_555
C3_9 H1_9 1_555 1_555
C5_7 C2_9 1_555 1_555
H2_7 C5_7 1_555 1_555
C8_7 C3_9 1_555 1_555
C9_7 C10_7 1_555 1_555
C10_7 N1_7 1_555 1_555
C11_7 C9_7 1_555 1_555
C12_5 C9_7 1_555 1_555
H4_7 C12_5 1_555 1_555
C13_7 N1_7 1_555 1_555
H5_7 C13_7 1_555 1_555
C14_5 C11_7 1_555 1_555
C15_5 C14_5 1_555 1_555
H8_5 C15_5 1_555 1_555
C16_5 C12_5 1_555 1_555
H9_3 C16_5 1_555 1_555
Cu3_5 O1_9 1_555 1_555
C11_7 C13_7 1_555 1_555
C15_5 C16_5 1_555 1_555
Cu3 O2_10 1_555 1_555
O7_6 C1_10 1_555 1_555
O2_10 C4_10 1_555 1_555
O3_4 C1_10 1_555 1_555
O9 C4_10 1_555 1_555
O5_10 C10_8 1_555 1_555
O6_10 Cu3 1_555 1_555
N1_8 C8_8 1_555 1_555
C1_10 C2_10 1_555 1_555
C2_10 C3_10 1_555 1_555
C3_10 H1_10 1_555 1_555
C4_10 C6_10 1_555 1_555
C5_8 C2_10 1_555 1_555
H2_8 C5_8 1_555 1_555
C6_10 C5_8 1_555 1_555
C7_10 C6_10 1_555 1_555
H3_10 C7_10 1_555 1_555
C8_8 C3_10 1_555 1_555
C9_8 C10_8 1_555 1_555
C10_8 N1_8 1_555 1_555
C11_8 C9_8 1_555 1_555
C12_6 C9_8 1_555 1_555
H4_8 C12_6 1_555 1_555
C13_8 N1_8 1_555 1_555
H5_8 C13_8 1_555 1_555
H6_10 C13_8 1_555 1_555
C14_6 C11_8 1_555 1_555
H7_8 C14_6 1_555 1_555
C15_6 C14_6 1_555 1_555
H8_6 C15_6 1_555 1_555
C16_6 C12_6 1_555 1_555
N2_8 C17_10 1_555 1_555
C17_10 O6_10 1_555 1_555
H10_10 C17_10 1_555 1_555
C18_8 N2_8 1_555 1_555
H11_8 C18_8 1_555 1_555
H12_8 C18_8 1_555 1_555
H13_8 C18_8 1_555 1_555
C19_8 N2_8 1_555 1_555
H14_8 C19_8 1_555 1_555
H15_8 C19_8 1_555 1_555
H16_8 C19_8 1_555 1_555
Cu3_6 O3_4 1_555 1_555
O8_7 Cu3 1_555 1_555
C7_10 C8_8 1_555 1_555
C11_8 C13_8 1_555 1_555
C15_6 C16_6 1_555 1_555
Cu3_2 O2_11 1_555 1_555
O2_11 C4_11 1_555 1_555
O5_11 C10_9 1_555 1_555
O6_11 Cu3_2 1_555 1_555
N1_9 C8_9 1_555 1_555
C3_11 H1_11 1_555 1_555
C4_11 C6_11 1_555 1_555
C7_11 C6_11 1_555 1_555
H3_11 C7_11 1_555 1_555
C8_9 C3_11 1_555 1_555
C9_9 C10_9 1_555 1_555
C10_9 N1_9 1_555 1_555
C11_9 C9_9 1_555 1_555
C12_7 C9_9 1_555 1_555
H4_9 C12_7 1_555 1_555
C13_9 N1_9 1_555 1_555
H5_9 C13_9 1_555 1_555
H6_11 C13_9 1_555 1_555
C14_7 C11_9 1_555 1_555
H7_9 C14_7 1_555 1_555
C15_7 C14_7 1_555 1_555
H8_7 C15_7 1_555 1_555
C16_7 C12_7 1_555 1_555
H9_4 C16_7 1_555 1_555
N2_9 C17_11 1_555 1_555
C17_11 O6_11 1_555 1_555
H10_11 C17_11 1_555 1_555
C18_9 N2_9 1_555 1_555
H11_9 C18_9 1_555 1_555
H12_9 C18_9 1_555 1_555
H13_9 C18_9 1_555 1_555
C19_9 N2_9 1_555 1_555
H14_9 C19_9 1_555 1_555
H15_9 C19_9 1_555 1_555
H16_9 C19_9 1_555 1_555
O8_8 Cu3_2 1_555 1_555
C7_11 C8_9 1_555 1_555
C11_9 C13_9 1_555 1_555
C15_7 C16_7 1_555 1_555
O7_4 C1_11 1_555 1_555
O3_5 C1_11 1_555 1_555
C1_11 C2_11 1_555 1_555
C5_9 C2_11 1_555 1_555
H2_9 C5_9 1_555 1_555
Cu3_4 O3_5 1_555 1_555
O7_5 C1_12 1_555 1_555
O3_6 C1_12 1_555 1_555
C1_12 C2_12 1_555 1_555
C5_10 C2_12 1_555 1_555
H2_10 C5_10 1_555 1_555
Cu3_5 O3_6 1_555 1_555
Cu3_3 O2_12 1_555 1_555
O2_12 C4_12 1_555 1_555
O5_12 C10_10 1_555 1_555
O6_12 Cu3_3 1_555 1_555
N1_10 C8_10 1_555 1_555
C3_12 H1_12 1_555 1_555
C4_12 C6_12 1_555 1_555
C7_12 C6_12 1_555 1_555
H3_12 C7_12 1_555 1_555
C8_10 C3_12 1_555 1_555
C9_10 C10_10 1_555 1_555
C10_10 N1_10 1_555 1_555
C11_10 C9_10 1_555 1_555
C12_8 C9_10 1_555 1_555
H4_10 C12_8 1_555 1_555
C13_10 N1_10 1_555 1_555
H5_10 C13_10 1_555 1_555
H6_12 C13_10 1_555 1_555
C14_8 C11_10 1_555 1_555
H7_10 C14_8 1_555 1_555
C15_8 C14_8 1_555 1_555
H8_8 C15_8 1_555 1_555
C16_8 C12_8 1_555 1_555
N2_10 C17_12 1_555 1_555
C17_12 O6_12 1_555 1_555
H10_12 C17_12 1_555 1_555
C18_10 N2_10 1_555 1_555
H11_10 C18_10 1_555 1_555
H12_10 C18_10 1_555 1_555
H13_10 C18_10 1_555 1_555
C19_10 N2_10 1_555 1_555
H14_10 C19_10 1_555 1_555
H15_10 C19_10 1_555 1_555
H16_10 C19_10 1_555 1_555
O8_9 Cu3_3 1_555 1_555
C7_12 C8_10 1_555 1_555
C11_10 C13_10 1_555 1_555
C15_8 C16_8 1_555 1_555
O7_3 C1_13 1_555 1_555
O5_13 C10_11 1_555 1_555
N1_11 C8_11 1_555 1_555
C1_13 C2_13 1_555 1_555
C2_13 C3_13 1_555 1_555
C3_13 H1_13 1_555 1_555
H3_13 C7_13 1_555 1_555
C8_11 C3_13 1_555 1_555
C9_11 C10_11 1_555 1_555
C10_11 N1_11 1_555 1_555
C11_11 C9_11 1_555 1_555
C12_9 C9_11 1_555 1_555
H4_11 C12_9 1_555 1_555
C13_11 N1_11 1_555 1_555
H5_11 C13_11 1_555 1_555
H6_13 C13_11 1_555 1_555
C14_9 C11_11 1_555 1_555
H7_11 C14_9 1_555 1_555
C15_9 C14_9 1_555 1_555
H8_9 C15_9 1_555 1_555
C16_9 C12_9 1_555 1_555
H9_5 C16_9 1_555 1_555
C7_13 C8_11 1_555 1_555
C11_11 C13_11 1_555 1_555
C15_9 C16_9 1_555 1_555
Cu4_2 O2_13 1_555 1_555
O2_13 C4_13 1_555 1_555
O9_7 C4_13 1_555 1_555
O6_13 Cu4_2 1_555 1_555
C4_13 C6_13 1_555 1_555
H2_11 C5_11 1_555 1_555
C6_13 C5_11 1_555 1_555
C17_13 O6_13 1_555 1_555
H10_13 C17_13 1_555 1_555
O8_10 Cu4_2 1_555 1_555
Cu4_3 O2_14 1_555 1_555
O7 C1_14 1_555 1_555
O2_14 C4_14 1_555 1_555
O8_7 C1_14 1_555 1_555
O9_8 C4_14 1_555 1_555
O5_14 C10_12 1_555 1_555
O6_14 Cu4_3 1_555 1_555
N1_12 C8_12 1_555 1_555
C1_14 C2_14 1_555 1_555
C2_14 C3_14 1_555 1_555
C3_14 H1_14 1_555 1_555
C4_14 C6_14 1_555 1_555
C5_12 C2_14 1_555 1_555
H2_12 C5_12 1_555 1_555
C6_14 C5_12 1_555 1_555
C7_14 C6_14 1_555 1_555
H3_14 C7_14 1_555 1_555
C8_12 C3_14 1_555 1_555
C9_12 C10_12 1_555 1_555
C10_12 N1_12 1_555 1_555
C11_12 C9_12 1_555 1_555
C13_12 N1_12 1_555 1_555
H5_12 C13_12 1_555 1_555
H6_14 C13_12 1_555 1_555
C17_14 O6_14 1_555 1_555
H10_14 C17_14 1_555 1_555
O8_11 Cu4_3 1_555 1_555
C7_14 C8_12 1_555 1_555
C11_12 C13_12 1_555 1_555
Cu4 O2_15 1_555 1_555
O2_15 C4_15 1_555 1_555
O9_9 C4_15 1_555 1_555
O6_15 Cu4 1_555 1_555
C4_15 C6_15 1_555 1_555
H2_13 C5_13 1_555 1_555
C6_15 C5_13 1_555 1_555
N2_11 C17_15 1_555 1_555
C17_15 O6_15 1_555 1_555
H10_15 C17_15 1_555 1_555
C18_11 N2_11 1_555 1_555
H11_11 C18_11 1_555 1_555
H12_11 C18_11 1_555 1_555
H13_11 C18_11 1_555 1_555
C19_11 N2_11 1_555 1_555
H14_11 C19_11 1_555 1_555
H15_11 C19_11 1_555 1_555
H16_11 C19_11 1_555 1_555
O8_12 Cu4 1_555 1_555
O7_2 C1_15 1_555 1_555
O5_15 C10_13 1_555 1_555
N1_13 C8_13 1_555 1_555
C1_15 C2_15 1_555 1_555
C2_15 C3_15 1_555 1_555
C3_15 H1_15 1_555 1_555
H3_15 C7_15 1_555 1_555
C8_13 C3_15 1_555 1_555
C9_13 C10_13 1_555 1_555
C10_13 N1_13 1_555 1_555
C11_13 C9_13 1_555 1_555
C13_13 N1_13 1_555 1_555
H5_13 C13_13 1_555 1_555
H6_15 C13_13 1_555 1_555
C7_15 C8_13 1_555 1_555
C11_13 C13_13 1_555 1_555
O7_9 C1_16 1_555 1_555
O8_12 C1_16 1_555 1_555
C1_16 C2_16 1_555 1_555
C2_16 C3_16 1_555 1_555
C3_16 H1_16 1_555 1_555
Cu3_4 O2_16 1_555 1_555
O2_16 C4_16 1_555 1_555
O9_4 C4_16 1_555 1_555
O6_16 Cu3_4 1_555 1_555
C4_16 C6_16 1_555 1_555
C7_16 C6_16 1_555 1_555
H3_16 C7_16 1_555 1_555
N2_12 C17_16 1_555 1_555
C17_16 O6_16 1_555 1_555
H10_16 C17_16 1_555 1_555
C18_12 N2_12 1_555 1_555
H11_12 C18_12 1_555 1_555
H12_12 C18_12 1_555 1_555
H13_12 C18_12 1_555 1_555
C19_12 N2_12 1_555 1_555
H14_12 C19_12 1_555 1_555
H15_12 C19_12 1_555 1_555
H16_12 C19_12 1_555 1_555
Cu3_5 O2_17 1_555 1_555
O2_17 C4_17 1_555 1_555
O9_5 C4_17 1_555 1_555
O6_17 Cu3_5 1_555 1_555
C4_17 C6_17 1_555 1_555
C7_17 C6_17 1_555 1_555
H3_17 C7_17 1_555 1_555
N2_13 C17_17 1_555 1_555
C17_17 O6_17 1_555 1_555
H10_17 C17_17 1_555 1_555
C18_13 N2_13 1_555 1_555
H11_13 C18_13 1_555 1_555
H12_13 C18_13 1_555 1_555
H13_13 C18_13 1_555 1_555
C19_13 N2_13 1_555 1_555
H14_13 C19_13 1_555 1_555
H15_13 C19_13 1_555 1_555
H16_13 C19_13 1_555 1_555
O7_7 C1_17 1_555 1_555
O8_10 C1_17 1_555 1_555
C1_17 C2_17 1_555 1_555
C2_17 C3_17 1_555 1_555
C3_17 H1_17 1_555 1_555
O7_8 C1_18 1_555 1_555
O8_11 C1_18 1_555 1_555
O5_18 C10_14 1_555 1_555
N1_14 C8_14 1_555 1_555
C1_18 C2_18 1_555 1_555
C2_18 C3_18 1_555 1_555
C3_18 H1_18 1_555 1_555
C5_14 C2_18 1_555 1_555
H2_14 C5_14 1_555 1_555
C8_14 C3_18 1_555 1_555
C9_14 C10_14 1_555 1_555
C10_14 N1_14 1_555 1_555
C11_14 C9_14 1_555 1_555
C12_10 C9_14 1_555 1_555
H4_14 C12_10 1_555 1_555
C13_14 N1_14 1_555 1_555
H5_14 C13_14 1_555 1_555
C14_10 C11_14 1_555 1_555
C15_10 C14_10 1_555 1_555
H8_10 C15_10 1_555 1_555
C16_10 C12_10 1_555 1_555
H9_6 C16_10 1_555 1_555
C11_14 C13_14 1_555 1_555
C15_10 C16_10 1_555 1_555
Cu3_6 O2_18 1_555 1_555
O2_18 C4_18 1_555 1_555
O9_6 C4_18 1_555 1_555
O6_18 Cu3_6 1_555 1_555
C4_18 C6_18 1_555 1_555
C7_18 C6_18 1_555 1_555
H3_18 C7_18 1_555 1_555
N2_14 C17_18 1_555 1_555
C17_18 O6_18 1_555 1_555
H10_18 C17_18 1_555 1_555
C18_14 N2_14 1_555 1_555
H11_14 C18_14 1_555 1_555
H12_14 C18_14 1_555 1_555
H13_14 C18_14 1_555 1_555
C19_14 N2_14 1_555 1_555
H14_14 C19_14 1_555 1_555
H15_14 C19_14 1_555 1_555
H16_14 C19_14 1_555 1_555
C18_15 N2_15 1_555 1_555
H11_15 C18_15 1_555 1_555
H12_15 C18_15 1_555 1_555
H13_15 C18_15 1_555 1_555
C19_15 N2_15 1_555 1_555
H14_15 C19_15 1_555 1_555
H15_15 C19_15 1_555 1_555
H16_15 C19_15 1_555 1_555
H7_15 C14_11 1_555 1_555
C15_11 C14_11 1_555 1_555
H8_11 C15_11 1_555 1_555
C16_11 C12_11 1_555 1_555
H9_9 C16_11 1_555 1_555
C15_11 C16_11 1_555 1_555
C18_16 N2_16 1_555 1_555
H11_16 C18_16 1_555 1_555
H12_16 C18_16 1_555 1_555
H13_16 C18_16 1_555 1_555
C19_16 N2_16 1_555 1_555
H14_16 C19_16 1_555 1_555
H15_16 C19_16 1_555 1_555
H16_16 C19_16 1_555 1_555
H7_16 C14_12 1_555 1_555
C15_12 C14_12 1_555 1_555
H8_12 C15_12 1_555 1_555
C16_12 C12_12 1_555 1_555
H9_10 C16_12 1_555 1_555
C15_12 C16_12 1_555 1_555
N1_15 C8_15 1_555 1_555
H2_15 C5_15 1_555 1_555
C9_15 C10_15 1_555 1_555
C10_15 N1_15 1_555 1_555
C11_15 C9_15 1_555 1_555
C12_13 C9_15 1_555 1_555
H4_15 C12_13 1_555 1_555
C13_15 N1_15 1_555 1_555
H5_15 C13_15 1_555 1_555
C14_13 C11_15 1_555 1_555
C15_13 C14_13 1_555 1_555
H8_13 C15_13 1_555 1_555
C16_13 C12_13 1_555 1_555
H9_11 C16_13 1_555 1_555
C11_15 C13_15 1_555 1_555
C15_13 C16_13 1_555 1_555
N1_16 C8_16 1_555 1_555
H2_16 C5_16 1_555 1_555
C9_16 C10_16 1_555 1_555
C10_16 N1_16 1_555 1_555
C11_16 C9_16 1_555 1_555
C12_14 C9_16 1_555 1_555
H4_16 C12_14 1_555 1_555
C13_16 N1_16 1_555 1_555
H5_16 C13_16 1_555 1_555
C14_14 C11_16 1_555 1_555
C15_14 C14_14 1_555 1_555
H8_14 C15_14 1_555 1_555
C16_14 C12_14 1_555 1_555
H9_12 C16_14 1_555 1_555
C11_16 C13_16 1_555 1_555
C15_14 C16_14 1_555 1_555
C18_17 N2_17 1_555 1_555
H11_17 C18_17 1_555 1_555
H12_17 C18_17 1_555 1_555
H13_17 C18_17 1_555 1_555
C19_17 N2_17 1_555 1_555
H14_17 C19_17 1_555 1_555
H15_17 C19_17 1_555 1_555
H16_17 C19_17 1_555 1_555
C18_18 N2_18 1_555 1_555
H11_18 C18_18 1_555 1_555
H12_18 C18_18 1_555 1_555
H13_18 C18_18 1_555 1_555
C19_18 N2_18 1_555 1_555
H14_18 C19_18 1_555 1_555
H15_18 C19_18 1_555 1_555
H16_18 C19_18 1_555 1_555
H7_17 C14_15 1_555 1_555
C15_15 C14_15 1_555 1_555
H8_15 C15_15 1_555 1_555
C16_15 C12_15 1_555 1_555
H9_15 C16_15 1_555 1_555
C15_15 C16_15 1_555 1_555
H7_18 C14_16 1_555 1_555
C15_16 C14_16 1_555 1_555
H8_16 C15_16 1_555 1_555
C16_16 C12_16 1_555 1_555
H9_16 C16_16 1_555 1_555
C15_16 C16_16 1_555 1_555
N1_17 C8_17 1_555 1_555
H2_17 C5_17 1_555 1_555
C9_17 C10_17 1_555 1_555
C10_17 N1_17 1_555 1_555
C11_17 C9_17 1_555 1_555
C12_17 C9_17 1_555 1_555
H4_17 C12_17 1_555 1_555
C13_17 N1_17 1_555 1_555
H5_17 C13_17 1_555 1_555
C14_17 C11_17 1_555 1_555
C15_17 C14_17 1_555 1_555
H8_17 C15_17 1_555 1_555
C16_17 C12_17 1_555 1_555
H9_17 C16_17 1_555 1_555
C11_17 C13_17 1_555 1_555
C15_17 C16_17 1_555 1_555
N1_18 C8_18 1_555 1_555
H2_18 C5_18 1_555 1_555
C9_18 C10_18 1_555 1_555
C10_18 N1_18 1_555 1_555
C11_18 C9_18 1_555 1_555
C12_18 C9_18 1_555 1_555
H4_18 C12_18 1_555 1_555
C13_18 N1_18 1_555 1_555
H5_18 C13_18 1_555 1_555
C14_18 C11_18 1_555 1_555
C15_18 C14_18 1_555 1_555
H8_18 C15_18 1_555 1_555
C16_18 C12_18 1_555 1_555
H9_18 C16_18 1_555 1_555
C11_18 C13_18 1_555 1_555
C15_18 C16_18 1_555 1_555

#END
