
###############################################################################
#
# This file contains modified crystal structure data generated from the
# MOF subset of the Cambridge Structural Database (CSD) v543 
# hosted by the Cambridge Crystallographic Data Centre (CCDC).
#
# This work is licensed under the Creative Commons
# Attribution-NonCommercial-ShareAlike 4.0 International License.
# To view a copy of this license, visit
# http://creativecommons.org/licenses/by-nc-sa/4.0/
# or send a letter to
# Creative Commons, PO Box 1866, Mountain View, CA 94042, USA.
#
# CIF created using the CSD Python API on 29 September 2022
# The structure has been converted into the P1 space group
# The structure has a 3D framework
# The original CSD entry YODJEI is in the cubic crystal system
# The framework has been calculated to contain at least 10.0% void space
# The void calculation uses a probe of radius 1.32A, grid spacing 0.4
# The framework is charged, counterions have been retained in the structure
# H atom positions have been added when not included in the experimental data
#
###############################################################################

data_YODJEI
_chemical_formula_moiety         '(C192 H24 N528 Zn56)n'
_symmetry_cell_setting           triclinic
_symmetry_space_group_name_H-M   'P 1'
_symmetry_Int_Tables_number      1
_space_group_name_Hall           'P 1'
loop_
_symmetry_equiv_pos_site_id
_symmetry_equiv_pos_as_xyz
1 x,y,z
_cell_length_a                   30.502(5)
_cell_length_b                   30.502(5)
_cell_length_c                   30.502(5)
_cell_angle_alpha                90
_cell_angle_beta                 90
_cell_angle_gamma                90
_cell_volume                     28378.2
loop_
_atom_site_label
_atom_site_type_symbol
_atom_site_fract_x
_atom_site_fract_y
_atom_site_fract_z
Zn1 Zn 0.71548(2) 0.28452(2) 0.28452(2)
Zn2 Zn 0.65417(3) 0.20001(2) 0.20001(2)
Zn3 Zn 0.46982(3) 0.24626(3) 0.24626(3)
N1 N 0.6466(2) 0.27984(14) 0.27984(14)
N2 N 0.63002(18) 0.25122(13) 0.25122(13)
C1 C 0.5773(2) 0.28399(19) 0.28399(19)
N3 N 0.61511(19) 0.29986(14) 0.29986(14)
C2 C 0.5867(2) 0.25382(18) 0.25382(18)
N4 N 0.69982(15) 0.18350(14) 0.25175(16)
N5 N 0.5876(2) 0.19826(18) 0.19826(18)
N6 N 0.72094(16) 0.2091(2) 0.27906(16)
C3 C 0.6946(2) 0.11127(18) 0.2259(2)
N7 N 0.6759(3) 0.0545(2) 0.1897(2)
C4 C 0.71305(17) 0.14229(16) 0.25507(18)
C5 C 0.5367(3) 0.3002(2) 0.3002(2)
N8 N 0.5210(2) 0.21806(18) 0.21806(18)
N9 N 0.4956(2) 0.2881(2) 0.2881(2)
C6 C 0.5627(2) 0.22424(19) 0.22424(19)
N10 N 0.5188(3) 0.1864(2) 0.1864(2)
N11 N 0.6648(2) 0.1233(2) 0.1976(2)
N12 N 0.5316(3) 0.3339(2) 0.3339(2)
N13 N 0.6532(2) 0.0869(3) 0.1756(2)
N14 N 0.70287(16) 0.06837(16) 0.22310(17)
N15 N 0.4669(4) 0.3102(3) 0.3102(3)
N16 N 0.5580(3) 0.17421(17) 0.17421(17)
N17 N 0.4864(4) 0.3363(4) 0.3363(4)
N18 N 0.74825(16) 0.18350(14) 0.30018(15)
C7 C 0.7741(2) 0.11127(18) 0.3054(2)
N19 N 0.8103(2) 0.0545(2) 0.3241(3)
C8 C 0.74493(18) 0.14229(16) 0.28695(17)
N20 N 0.8024(2) 0.1233(2) 0.3352(2)
N21 N 0.8244(2) 0.0869(3) 0.3468(2)
N22 N 0.77690(17) 0.06837(16) 0.29713(16)
Zn4 Zn 0.79999(2) 0.34583(3) 0.20001(2)
Zn5 Zn 0.75374(3) 0.53018(3) 0.24626(3)
N23 N 0.72016(14) 0.3534(2) 0.27984(14)
N24 N 0.74878(13) 0.36998(18) 0.25122(13)
C9 C 0.71601(19) 0.4227(2) 0.28399(19)
N25 N 0.70014(14) 0.38489(19) 0.29986(14)
C10 C 0.74618(18) 0.4133(2) 0.25382(18)
N26 N 0.74825(16) 0.30018(15) 0.18350(14)
N27 N 0.80174(18) 0.4124(2) 0.19826(18)
N28 N 0.72094(16) 0.27906(16) 0.2091(2)
C11 C 0.7741(2) 0.3054(2) 0.11127(18)
N29 N 0.8103(2) 0.3241(3) 0.0545(2)
C12 C 0.74493(18) 0.28695(17) 0.14229(16)
C13 C 0.6998(2) 0.4633(3) 0.3002(2)
N30 N 0.78194(18) 0.4790(2) 0.21806(18)
N31 N 0.7119(2) 0.5044(2) 0.2881(2)
C14 C 0.77576(19) 0.4373(2) 0.22424(19)
N32 N 0.8136(2) 0.4812(3) 0.1864(2)
N33 N 0.8024(2) 0.3352(2) 0.1233(2)
N34 N 0.6661(2) 0.4684(3) 0.3339(2)
N35 N 0.8244(2) 0.3468(2) 0.0869(3)
N36 N 0.77690(17) 0.29713(16) 0.06837(16)
N37 N 0.6898(3) 0.5331(4) 0.3102(3)
N38 N 0.82579(17) 0.4420(3) 0.17421(17)
N39 N 0.6637(4) 0.5136(4) 0.3363(4)
N40 N 0.69982(15) 0.25175(16) 0.18350(14)
C15 C 0.6946(2) 0.2259(2) 0.11127(18)
N41 N 0.6759(3) 0.1897(2) 0.0545(2)
C16 C 0.71305(17) 0.25507(18) 0.14229(16)
N42 N 0.6648(2) 0.1976(2) 0.1233(2)
N43 N 0.6532(2) 0.1756(2) 0.0869(3)
N44 N 0.70287(16) 0.22310(17) 0.06837(16)
Zn6 Zn 0.79999(2) 0.20001(2) 0.34583(3)
Zn7 Zn 0.75374(3) 0.24626(3) 0.53018(3)
N45 N 0.72016(14) 0.27984(14) 0.3534(2)
N46 N 0.74878(13) 0.25122(13) 0.36998(18)
C17 C 0.71601(19) 0.28399(19) 0.4227(2)
N47 N 0.70014(14) 0.29986(14) 0.38489(19)
C18 C 0.74618(18) 0.25382(18) 0.4133(2)
N48 N 0.81650(14) 0.25175(16) 0.30018(15)
N49 N 0.80174(18) 0.19826(18) 0.4124(2)
N50 N 0.7909(2) 0.27906(16) 0.27906(16)
C19 C 0.88873(18) 0.2259(2) 0.3054(2)
N51 N 0.9455(2) 0.1897(2) 0.3241(3)
C20 C 0.85771(16) 0.25507(18) 0.28695(17)
C21 C 0.6998(2) 0.3002(2) 0.4633(3)
N52 N 0.78194(18) 0.21806(18) 0.4790(2)
N53 N 0.7119(2) 0.2881(2) 0.5044(2)
C22 C 0.77576(19) 0.22424(19) 0.4373(2)
N54 N 0.8136(2) 0.1864(2) 0.4812(3)
N55 N 0.8767(2) 0.1976(2) 0.3352(2)
N56 N 0.6661(2) 0.3339(2) 0.4684(3)
N57 N 0.9131(3) 0.1756(2) 0.3468(2)
N58 N 0.93163(16) 0.22310(17) 0.29713(16)
N59 N 0.6898(3) 0.3102(3) 0.5331(4)
N60 N 0.82579(17) 0.17421(17) 0.4420(3)
N61 N 0.6637(4) 0.3363(4) 0.5136(4)
N62 N 0.81650(14) 0.30018(15) 0.25175(16)
C23 C 0.88873(18) 0.3054(2) 0.2259(2)
N63 N 0.9455(2) 0.3241(3) 0.1897(2)
C24 C 0.85771(16) 0.28695(17) 0.25507(18)
N64 N 0.8767(2) 0.3352(2) 0.1976(2)
N65 N 0.9131(3) 0.3468(2) 0.1756(2)
N66 N 0.93163(16) 0.29713(16) 0.22310(17)
Zn8 Zn 0.96982(3) 0.25374(3) 0.25374(3)
Zn9 Zn 0.74626(3) 0.03018(3) 0.25374(3)
Zn10 Zn 0.74626(3) 0.25374(3) 0.03018(3)
N67 N 0.79713(16) 0.56837(16) 0.27690(17)
N68 N 0.72310(17) 0.20287(16) 0.56837(16)
N69 N 0.43163(16) 0.27690(17) 0.20287(16)
N70 N 0.43163(16) 0.20287(16) 0.27690(17)
N71 N 0.72310(17) 0.56837(16) 0.20287(16)
N72 N 0.79713(16) 0.27690(17) 0.56837(16)
H1 H 0.697601 0.204873 0.302399
H2 H 0.697601 0.302399 0.204873
H3 H 0.795127 0.302399 0.302399
Zn1_2 Zn 0.28452(2) 0.71548(2) 0.28452(2)
Zn2_2 Zn 0.34583(3) 0.79999(2) 0.20001(2)
Zn3_2 Zn 0.53018(3) 0.75374(3) 0.24626(3)
N1_2 N 0.3534(2) 0.72016(14) 0.27984(14)
N2_2 N 0.36998(18) 0.74878(13) 0.25122(13)
C1_2 C 0.4227(2) 0.71601(19) 0.28399(19)
N3_2 N 0.38489(19) 0.70014(14) 0.29986(14)
C2_2 C 0.4133(2) 0.74618(18) 0.25382(18)
N4_2 N 0.30018(15) 0.81650(14) 0.25175(16)
N5_2 N 0.4124(2) 0.80174(18) 0.19826(18)
N6_2 N 0.27906(16) 0.7909(2) 0.27906(16)
C3_2 C 0.3054(2) 0.88873(18) 0.2259(2)
N7_2 N 0.3241(3) 0.9455(2) 0.1897(2)
C4_2 C 0.28695(17) 0.85771(16) 0.25507(18)
C5_2 C 0.4633(3) 0.6998(2) 0.3002(2)
N8_2 N 0.4790(2) 0.78194(18) 0.21806(18)
N9_2 N 0.5044(2) 0.7119(2) 0.2881(2)
C6_2 C 0.4373(2) 0.77576(19) 0.22424(19)
N10_2 N 0.4812(3) 0.8136(2) 0.1864(2)
N11_2 N 0.3352(2) 0.8767(2) 0.1976(2)
N12_2 N 0.4684(3) 0.6661(2) 0.3339(2)
N13_2 N 0.3468(2) 0.9131(3) 0.1756(2)
N14_2 N 0.29713(16) 0.93163(16) 0.22310(17)
N15_2 N 0.5331(4) 0.6898(3) 0.3102(3)
N16_2 N 0.4420(3) 0.82579(17) 0.17421(17)
N17_2 N 0.5136(4) 0.6637(4) 0.3363(4)
N18_2 N 0.25175(16) 0.81650(14) 0.30018(15)
C7_2 C 0.2259(2) 0.88873(18) 0.3054(2)
N19_2 N 0.1897(2) 0.9455(2) 0.3241(3)
C8_2 C 0.25507(18) 0.85771(16) 0.28695(17)
N20_2 N 0.1976(2) 0.8767(2) 0.3352(2)
N21_2 N 0.1756(2) 0.9131(3) 0.3468(2)
N22_2 N 0.22310(17) 0.93163(16) 0.29713(16)
Zn4_2 Zn 0.20001(2) 0.65417(3) 0.20001(2)
Zn5_2 Zn 0.24626(3) 0.46982(3) 0.24626(3)
N23_2 N 0.27984(14) 0.6466(2) 0.27984(14)
N24_2 N 0.25122(13) 0.63002(18) 0.25122(13)
C9_2 C 0.28399(19) 0.5773(2) 0.28399(19)
N25_2 N 0.29986(14) 0.61511(19) 0.29986(14)
C10_2 C 0.25382(18) 0.5867(2) 0.25382(18)
N26_2 N 0.25175(16) 0.69982(15) 0.18350(14)
N27_2 N 0.19826(18) 0.5876(2) 0.19826(18)
N28_2 N 0.27906(16) 0.72094(16) 0.2091(2)
C11_2 C 0.2259(2) 0.6946(2) 0.11127(18)
N29_2 N 0.1897(2) 0.6759(3) 0.0545(2)
C12_2 C 0.25507(18) 0.71305(17) 0.14229(16)
C13_2 C 0.3002(2) 0.5367(3) 0.3002(2)
N30_2 N 0.21806(18) 0.5210(2) 0.21806(18)
N31_2 N 0.2881(2) 0.4956(2) 0.2881(2)
C14_2 C 0.22424(19) 0.5627(2) 0.22424(19)
N32_2 N 0.1864(2) 0.5188(3) 0.1864(2)
N33_2 N 0.1976(2) 0.6648(2) 0.1233(2)
N34_2 N 0.3339(2) 0.5316(3) 0.3339(2)
N35_2 N 0.1756(2) 0.6532(2) 0.0869(3)
N36_2 N 0.22310(17) 0.70287(16) 0.06837(16)
N37_2 N 0.3102(3) 0.4669(4) 0.3102(3)
N38_2 N 0.17421(17) 0.5580(3) 0.17421(17)
N39_2 N 0.3363(4) 0.4864(4) 0.3363(4)
N40_2 N 0.30018(15) 0.74825(16) 0.18350(14)
C15_2 C 0.3054(2) 0.7741(2) 0.11127(18)
N41_2 N 0.3241(3) 0.8103(2) 0.0545(2)
C16_2 C 0.28695(17) 0.74493(18) 0.14229(16)
N42_2 N 0.3352(2) 0.8024(2) 0.1233(2)
N43_2 N 0.3468(2) 0.8244(2) 0.0869(3)
N44_2 N 0.29713(16) 0.77690(17) 0.06837(16)
Zn6_2 Zn 0.20001(2) 0.79999(2) 0.34583(3)
Zn7_2 Zn 0.24626(3) 0.75374(3) 0.53018(3)
N45_2 N 0.27984(14) 0.72016(14) 0.3534(2)
N46_2 N 0.25122(13) 0.74878(13) 0.36998(18)
C17_2 C 0.28399(19) 0.71601(19) 0.4227(2)
N47_2 N 0.29986(14) 0.70014(14) 0.38489(19)
C18_2 C 0.25382(18) 0.74618(18) 0.4133(2)
N48_2 N 0.18350(14) 0.74825(16) 0.30018(15)
N49_2 N 0.19826(18) 0.80174(18) 0.4124(2)
N50_2 N 0.2091(2) 0.72094(16) 0.27906(16)
C19_2 C 0.11127(18) 0.7741(2) 0.3054(2)
N51_2 N 0.0545(2) 0.8103(2) 0.3241(3)
C20_2 C 0.14229(16) 0.74493(18) 0.28695(17)
C21_2 C 0.3002(2) 0.6998(2) 0.4633(3)
N52_2 N 0.21806(18) 0.78194(18) 0.4790(2)
N53_2 N 0.2881(2) 0.7119(2) 0.5044(2)
C22_2 C 0.22424(19) 0.77576(19) 0.4373(2)
N54_2 N 0.1864(2) 0.8136(2) 0.4812(3)
N55_2 N 0.1233(2) 0.8024(2) 0.3352(2)
N56_2 N 0.3339(2) 0.6661(2) 0.4684(3)
N57_2 N 0.0869(3) 0.8244(2) 0.3468(2)
N58_2 N 0.06837(16) 0.77690(17) 0.29713(16)
N59_2 N 0.3102(3) 0.6898(3) 0.5331(4)
N60_2 N 0.17421(17) 0.82579(17) 0.4420(3)
N61_2 N 0.3363(4) 0.6637(4) 0.5136(4)
N62_2 N 0.18350(14) 0.69982(15) 0.25175(16)
C23_2 C 0.11127(18) 0.6946(2) 0.2259(2)
N63_2 N 0.0545(2) 0.6759(3) 0.1897(2)
C24_2 C 0.14229(16) 0.71305(17) 0.25507(18)
N64_2 N 0.1233(2) 0.6648(2) 0.1976(2)
N65_2 N 0.0869(3) 0.6532(2) 0.1756(2)
N66_2 N 0.06837(16) 0.70287(16) 0.22310(17)
Zn8_2 Zn 0.03018(3) 0.74626(3) 0.25374(3)
Zn9_2 Zn 0.25374(3) 0.96982(3) 0.25374(3)
Zn10_2 Zn 0.25374(3) 0.74626(3) 0.03018(3)
N67_2 N 0.20287(16) 0.43163(16) 0.27690(17)
N68_2 N 0.27690(17) 0.79713(16) 0.56837(16)
N69_2 N 0.56837(16) 0.72310(17) 0.20287(16)
N70_2 N 0.56837(16) 0.79713(16) 0.27690(17)
N71_2 N 0.27690(17) 0.43163(16) 0.20287(16)
N72_2 N 0.20287(16) 0.72310(17) 0.56837(16)
H1_2 H 0.302399 0.795127 0.302399
H2_2 H 0.302399 0.697601 0.204873
H3_2 H 0.204873 0.697601 0.302399
Zn1_3 Zn 0.71548(2) 0.71548(2) 0.71548(2)
Zn2_3 Zn 0.65417(3) 0.79999(2) 0.79999(2)
Zn3_3 Zn 0.46982(3) 0.75374(3) 0.75374(3)
N1_3 N 0.6466(2) 0.72016(14) 0.72016(14)
N2_3 N 0.63002(18) 0.74878(13) 0.74878(13)
C1_3 C 0.5773(2) 0.71601(19) 0.71601(19)
N3_3 N 0.61511(19) 0.70014(14) 0.70014(14)
C2_3 C 0.5867(2) 0.74618(18) 0.74618(18)
N4_3 N 0.69982(15) 0.81650(14) 0.74825(16)
N5_3 N 0.5876(2) 0.80174(18) 0.80174(18)
N6_3 N 0.72094(16) 0.7909(2) 0.72094(16)
C3_3 C 0.6946(2) 0.88873(18) 0.7741(2)
N7_3 N 0.6759(3) 0.9455(2) 0.8103(2)
C4_3 C 0.71305(17) 0.85771(16) 0.74493(18)
C5_3 C 0.5367(3) 0.6998(2) 0.6998(2)
N8_3 N 0.5210(2) 0.78194(18) 0.78194(18)
N9_3 N 0.4956(2) 0.7119(2) 0.7119(2)
C6_3 C 0.5627(2) 0.77576(19) 0.77576(19)
N10_3 N 0.5188(3) 0.8136(2) 0.8136(2)
N11_3 N 0.6648(2) 0.8767(2) 0.8024(2)
N12_3 N 0.5316(3) 0.6661(2) 0.6661(2)
N13_3 N 0.6532(2) 0.9131(3) 0.8244(2)
N14_3 N 0.70287(16) 0.93163(16) 0.77690(17)
N15_3 N 0.4669(4) 0.6898(3) 0.6898(3)
N16_3 N 0.5580(3) 0.82579(17) 0.82579(17)
N17_3 N 0.4864(4) 0.6637(4) 0.6637(4)
N18_3 N 0.74825(16) 0.81650(14) 0.69982(15)
C7_3 C 0.7741(2) 0.88873(18) 0.6946(2)
N19_3 N 0.8103(2) 0.9455(2) 0.6759(3)
C8_3 C 0.74493(18) 0.85771(16) 0.71305(17)
N20_3 N 0.8024(2) 0.8767(2) 0.6648(2)
N21_3 N 0.8244(2) 0.9131(3) 0.6532(2)
N22_3 N 0.77690(17) 0.93163(16) 0.70287(16)
Zn4_3 Zn 0.79999(2) 0.65417(3) 0.79999(2)
Zn5_3 Zn 0.75374(3) 0.46982(3) 0.75374(3)
N23_3 N 0.72016(14) 0.6466(2) 0.72016(14)
N24_3 N 0.74878(13) 0.63002(18) 0.74878(13)
C9_3 C 0.71601(19) 0.5773(2) 0.71601(19)
N25_3 N 0.70014(14) 0.61511(19) 0.70014(14)
C10_3 C 0.74618(18) 0.5867(2) 0.74618(18)
N26_3 N 0.74825(16) 0.69982(15) 0.81650(14)
N27_3 N 0.80174(18) 0.5876(2) 0.80174(18)
N28_3 N 0.72094(16) 0.72094(16) 0.7909(2)
C11_3 C 0.7741(2) 0.6946(2) 0.88873(18)
N29_3 N 0.8103(2) 0.6759(3) 0.9455(2)
C12_3 C 0.74493(18) 0.71305(17) 0.85771(16)
C13_3 C 0.6998(2) 0.5367(3) 0.6998(2)
N30_3 N 0.78194(18) 0.5210(2) 0.78194(18)
N31_3 N 0.7119(2) 0.4956(2) 0.7119(2)
C14_3 C 0.77576(19) 0.5627(2) 0.77576(19)
N32_3 N 0.8136(2) 0.5188(3) 0.8136(2)
N33_3 N 0.8024(2) 0.6648(2) 0.8767(2)
N34_3 N 0.6661(2) 0.5316(3) 0.6661(2)
N35_3 N 0.8244(2) 0.6532(2) 0.9131(3)
N36_3 N 0.77690(17) 0.70287(16) 0.93163(16)
N37_3 N 0.6898(3) 0.4669(4) 0.6898(3)
N38_3 N 0.82579(17) 0.5580(3) 0.82579(17)
N39_3 N 0.6637(4) 0.4864(4) 0.6637(4)
N40_3 N 0.69982(15) 0.74825(16) 0.81650(14)
C15_3 C 0.6946(2) 0.7741(2) 0.88873(18)
N41_3 N 0.6759(3) 0.8103(2) 0.9455(2)
C16_3 C 0.71305(17) 0.74493(18) 0.85771(16)
N42_3 N 0.6648(2) 0.8024(2) 0.8767(2)
N43_3 N 0.6532(2) 0.8244(2) 0.9131(3)
N44_3 N 0.70287(16) 0.77690(17) 0.93163(16)
Zn6_3 Zn 0.79999(2) 0.79999(2) 0.65417(3)
Zn7_3 Zn 0.75374(3) 0.75374(3) 0.46982(3)
N45_3 N 0.72016(14) 0.72016(14) 0.6466(2)
N46_3 N 0.74878(13) 0.74878(13) 0.63002(18)
C17_3 C 0.71601(19) 0.71601(19) 0.5773(2)
N47_3 N 0.70014(14) 0.70014(14) 0.61511(19)
C18_3 C 0.74618(18) 0.74618(18) 0.5867(2)
N48_3 N 0.81650(14) 0.74825(16) 0.69982(15)
N49_3 N 0.80174(18) 0.80174(18) 0.5876(2)
N50_3 N 0.7909(2) 0.72094(16) 0.72094(16)
C19_3 C 0.88873(18) 0.7741(2) 0.6946(2)
N51_3 N 0.9455(2) 0.8103(2) 0.6759(3)
C20_3 C 0.85771(16) 0.74493(18) 0.71305(17)
C21_3 C 0.6998(2) 0.6998(2) 0.5367(3)
N52_3 N 0.78194(18) 0.78194(18) 0.5210(2)
N53_3 N 0.7119(2) 0.7119(2) 0.4956(2)
C22_3 C 0.77576(19) 0.77576(19) 0.5627(2)
N54_3 N 0.8136(2) 0.8136(2) 0.5188(3)
N55_3 N 0.8767(2) 0.8024(2) 0.6648(2)
N56_3 N 0.6661(2) 0.6661(2) 0.5316(3)
N57_3 N 0.9131(3) 0.8244(2) 0.6532(2)
N58_3 N 0.93163(16) 0.77690(17) 0.70287(16)
N59_3 N 0.6898(3) 0.6898(3) 0.4669(4)
N60_3 N 0.82579(17) 0.82579(17) 0.5580(3)
N61_3 N 0.6637(4) 0.6637(4) 0.4864(4)
N62_3 N 0.81650(14) 0.69982(15) 0.74825(16)
C23_3 C 0.88873(18) 0.6946(2) 0.7741(2)
N63_3 N 0.9455(2) 0.6759(3) 0.8103(2)
C24_3 C 0.85771(16) 0.71305(17) 0.74493(18)
N64_3 N 0.8767(2) 0.6648(2) 0.8024(2)
N65_3 N 0.9131(3) 0.6532(2) 0.8244(2)
N66_3 N 0.93163(16) 0.70287(16) 0.77690(17)
Zn8_3 Zn 0.96982(3) 0.74626(3) 0.74626(3)
Zn9_3 Zn 0.74626(3) 0.96982(3) 0.74626(3)
Zn10_3 Zn 0.74626(3) 0.74626(3) 0.96982(3)
N67_3 N 0.79713(16) 0.43163(16) 0.72310(17)
N68_3 N 0.72310(17) 0.79713(16) 0.43163(16)
N69_3 N 0.43163(16) 0.72310(17) 0.79713(16)
N70_3 N 0.43163(16) 0.79713(16) 0.72310(17)
N71_3 N 0.72310(17) 0.43163(16) 0.79713(16)
N72_3 N 0.79713(16) 0.72310(17) 0.43163(16)
H1_3 H 0.697601 0.795127 0.697601
H2_3 H 0.697601 0.697601 0.795127
H3_3 H 0.795127 0.697601 0.697601
Zn1_4 Zn 0.28452(2) 0.28452(2) 0.71548(2)
Zn2_4 Zn 0.34583(3) 0.20001(2) 0.79999(2)
Zn3_4 Zn 0.53018(3) 0.24626(3) 0.75374(3)
N1_4 N 0.3534(2) 0.27984(14) 0.72016(14)
N2_4 N 0.36998(18) 0.25122(13) 0.74878(13)
C1_4 C 0.4227(2) 0.28399(19) 0.71601(19)
N3_4 N 0.38489(19) 0.29986(14) 0.70014(14)
C2_4 C 0.4133(2) 0.25382(18) 0.74618(18)
N4_4 N 0.30018(15) 0.18350(14) 0.74825(16)
N5_4 N 0.4124(2) 0.19826(18) 0.80174(18)
N6_4 N 0.27906(16) 0.2091(2) 0.72094(16)
C3_4 C 0.3054(2) 0.11127(18) 0.7741(2)
N7_4 N 0.3241(3) 0.0545(2) 0.8103(2)
C4_4 C 0.28695(17) 0.14229(16) 0.74493(18)
C5_4 C 0.4633(3) 0.3002(2) 0.6998(2)
N8_4 N 0.4790(2) 0.21806(18) 0.78194(18)
N9_4 N 0.5044(2) 0.2881(2) 0.7119(2)
C6_4 C 0.4373(2) 0.22424(19) 0.77576(19)
N10_4 N 0.4812(3) 0.1864(2) 0.8136(2)
N11_4 N 0.3352(2) 0.1233(2) 0.8024(2)
N12_4 N 0.4684(3) 0.3339(2) 0.6661(2)
N13_4 N 0.3468(2) 0.0869(3) 0.8244(2)
N14_4 N 0.29713(16) 0.06837(16) 0.77690(17)
N15_4 N 0.5331(4) 0.3102(3) 0.6898(3)
N16_4 N 0.4420(3) 0.17421(17) 0.82579(17)
N17_4 N 0.5136(4) 0.3363(4) 0.6637(4)
N18_4 N 0.25175(16) 0.18350(14) 0.69982(15)
C7_4 C 0.2259(2) 0.11127(18) 0.6946(2)
N19_4 N 0.1897(2) 0.0545(2) 0.6759(3)
C8_4 C 0.25507(18) 0.14229(16) 0.71305(17)
N20_4 N 0.1976(2) 0.1233(2) 0.6648(2)
N21_4 N 0.1756(2) 0.0869(3) 0.6532(2)
N22_4 N 0.22310(17) 0.06837(16) 0.70287(16)
Zn4_4 Zn 0.20001(2) 0.34583(3) 0.79999(2)
Zn5_4 Zn 0.24626(3) 0.53018(3) 0.75374(3)
N23_4 N 0.27984(14) 0.3534(2) 0.72016(14)
N24_4 N 0.25122(13) 0.36998(18) 0.74878(13)
C9_4 C 0.28399(19) 0.4227(2) 0.71601(19)
N25_4 N 0.29986(14) 0.38489(19) 0.70014(14)
C10_4 C 0.25382(18) 0.4133(2) 0.74618(18)
N26_4 N 0.25175(16) 0.30018(15) 0.81650(14)
N27_4 N 0.19826(18) 0.4124(2) 0.80174(18)
N28_4 N 0.27906(16) 0.27906(16) 0.7909(2)
C11_4 C 0.2259(2) 0.3054(2) 0.88873(18)
N29_4 N 0.1897(2) 0.3241(3) 0.9455(2)
C12_4 C 0.25507(18) 0.28695(17) 0.85771(16)
C13_4 C 0.3002(2) 0.4633(3) 0.6998(2)
N30_4 N 0.21806(18) 0.4790(2) 0.78194(18)
N31_4 N 0.2881(2) 0.5044(2) 0.7119(2)
C14_4 C 0.22424(19) 0.4373(2) 0.77576(19)
N32_4 N 0.1864(2) 0.4812(3) 0.8136(2)
N33_4 N 0.1976(2) 0.3352(2) 0.8767(2)
N34_4 N 0.3339(2) 0.4684(3) 0.6661(2)
N35_4 N 0.1756(2) 0.3468(2) 0.9131(3)
N36_4 N 0.22310(17) 0.29713(16) 0.93163(16)
N37_4 N 0.3102(3) 0.5331(4) 0.6898(3)
N38_4 N 0.17421(17) 0.4420(3) 0.82579(17)
N39_4 N 0.3363(4) 0.5136(4) 0.6637(4)
N40_4 N 0.30018(15) 0.25175(16) 0.81650(14)
C15_4 C 0.3054(2) 0.2259(2) 0.88873(18)
N41_4 N 0.3241(3) 0.1897(2) 0.9455(2)
C16_4 C 0.28695(17) 0.25507(18) 0.85771(16)
N42_4 N 0.3352(2) 0.1976(2) 0.8767(2)
N43_4 N 0.3468(2) 0.1756(2) 0.9131(3)
N44_4 N 0.29713(16) 0.22310(17) 0.93163(16)
Zn6_4 Zn 0.20001(2) 0.20001(2) 0.65417(3)
Zn7_4 Zn 0.24626(3) 0.24626(3) 0.46982(3)
N45_4 N 0.27984(14) 0.27984(14) 0.6466(2)
N46_4 N 0.25122(13) 0.25122(13) 0.63002(18)
C17_4 C 0.28399(19) 0.28399(19) 0.5773(2)
N47_4 N 0.29986(14) 0.29986(14) 0.61511(19)
C18_4 C 0.25382(18) 0.25382(18) 0.5867(2)
N48_4 N 0.18350(14) 0.25175(16) 0.69982(15)
N49_4 N 0.19826(18) 0.19826(18) 0.5876(2)
N50_4 N 0.2091(2) 0.27906(16) 0.72094(16)
C19_4 C 0.11127(18) 0.2259(2) 0.6946(2)
N51_4 N 0.0545(2) 0.1897(2) 0.6759(3)
C20_4 C 0.14229(16) 0.25507(18) 0.71305(17)
C21_4 C 0.3002(2) 0.3002(2) 0.5367(3)
N52_4 N 0.21806(18) 0.21806(18) 0.5210(2)
N53_4 N 0.2881(2) 0.2881(2) 0.4956(2)
C22_4 C 0.22424(19) 0.22424(19) 0.5627(2)
N54_4 N 0.1864(2) 0.1864(2) 0.5188(3)
N55_4 N 0.1233(2) 0.1976(2) 0.6648(2)
N56_4 N 0.3339(2) 0.3339(2) 0.5316(3)
N57_4 N 0.0869(3) 0.1756(2) 0.6532(2)
N58_4 N 0.06837(16) 0.22310(17) 0.70287(16)
N59_4 N 0.3102(3) 0.3102(3) 0.4669(4)
N60_4 N 0.17421(17) 0.17421(17) 0.5580(3)
N61_4 N 0.3363(4) 0.3363(4) 0.4864(4)
N62_4 N 0.18350(14) 0.30018(15) 0.74825(16)
C23_4 C 0.11127(18) 0.3054(2) 0.7741(2)
N63_4 N 0.0545(2) 0.3241(3) 0.8103(2)
C24_4 C 0.14229(16) 0.28695(17) 0.74493(18)
N64_4 N 0.1233(2) 0.3352(2) 0.8024(2)
N65_4 N 0.0869(3) 0.3468(2) 0.8244(2)
N66_4 N 0.06837(16) 0.29713(16) 0.77690(17)
Zn8_4 Zn 0.03018(3) 0.25374(3) 0.74626(3)
Zn9_4 Zn 0.25374(3) 0.03018(3) 0.74626(3)
Zn10_4 Zn 0.25374(3) 0.25374(3) 0.96982(3)
N67_4 N 0.20287(16) 0.56837(16) 0.72310(17)
N68_4 N 0.27690(17) 0.20287(16) 0.43163(16)
N69_4 N 0.56837(16) 0.27690(17) 0.79713(16)
N70_4 N 0.56837(16) 0.20287(16) 0.72310(17)
N71_4 N 0.27690(17) 0.56837(16) 0.79713(16)
N72_4 N 0.20287(16) 0.27690(17) 0.43163(16)
H1_4 H 0.302399 0.204873 0.697601
H2_4 H 0.302399 0.302399 0.795127
H3_4 H 0.204873 0.302399 0.697601
N31_5 N 0.2119(2) 0.0044(2) 0.7881(2)
N37_5 N 0.1898(3) 0.0331(4) 0.8102(3)
N39_5 N 0.1637(4) 0.0136(4) 0.8363(4)
N53_5 N 0.2119(2) 0.7881(2) 0.0044(2)
N59_5 N 0.1898(3) 0.8102(3) 0.0331(4)
N61_5 N 0.1637(4) 0.8363(4) 0.0136(4)
Zn1_5 Zn 0.21548(2) 0.78452(2) 0.78452(2)
Zn2_5 Zn 0.15417(3) 0.70001(2) 0.70001(2)
N1_5 N 0.1466(2) 0.77984(14) 0.77984(14)
N2_5 N 0.13002(18) 0.75122(13) 0.75122(13)
C1_5 C 0.0773(2) 0.78399(19) 0.78399(19)
N3_5 N 0.11511(19) 0.79986(14) 0.79986(14)
C2_5 C 0.0867(2) 0.75382(18) 0.75382(18)
N4_5 N 0.19982(15) 0.68350(14) 0.75175(16)
N5_5 N 0.0876(2) 0.69826(18) 0.69826(18)
N6_5 N 0.22094(16) 0.7091(2) 0.77906(16)
C3_5 C 0.1946(2) 0.61127(18) 0.7259(2)
N7_5 N 0.1759(3) 0.5545(2) 0.6897(2)
C4_5 C 0.21305(17) 0.64229(16) 0.75507(18)
C5_5 C 0.0367(3) 0.8002(2) 0.8002(2)
N8_5 N 0.0210(2) 0.71806(18) 0.71806(18)
C6_5 C 0.0627(2) 0.72424(19) 0.72424(19)
N10_5 N 0.0188(3) 0.6864(2) 0.6864(2)
N11_5 N 0.1648(2) 0.6233(2) 0.6976(2)
N12_5 N 0.0316(3) 0.8339(2) 0.8339(2)
N13_5 N 0.1532(2) 0.5869(3) 0.6756(2)
N16_5 N 0.0580(3) 0.67421(17) 0.67421(17)
N18_5 N 0.24825(16) 0.68350(14) 0.80018(15)
C7_5 C 0.2741(2) 0.61127(18) 0.8054(2)
N19_5 N 0.3103(2) 0.5545(2) 0.8241(3)
C8_5 C 0.24493(18) 0.64229(16) 0.78695(17)
N20_5 N 0.3024(2) 0.6233(2) 0.8352(2)
N21_5 N 0.3244(2) 0.5869(3) 0.8468(2)
Zn4_5 Zn 0.29999(2) 0.84583(3) 0.70001(2)
N23_5 N 0.22016(14) 0.8534(2) 0.77984(14)
N24_5 N 0.24878(13) 0.86998(18) 0.75122(13)
C9_5 C 0.21601(19) 0.9227(2) 0.78399(19)
N25_5 N 0.20014(14) 0.88489(19) 0.79986(14)
C10_5 C 0.24618(18) 0.9133(2) 0.75382(18)
N26_5 N 0.24825(16) 0.80018(15) 0.68350(14)
N27_5 N 0.30174(18) 0.9124(2) 0.69826(18)
N28_5 N 0.22094(16) 0.77906(16) 0.7091(2)
C11_5 C 0.2741(2) 0.8054(2) 0.61127(18)
N29_5 N 0.3103(2) 0.8241(3) 0.5545(2)
C12_5 C 0.24493(18) 0.78695(17) 0.64229(16)
C13_5 C 0.1998(2) 0.9633(3) 0.8002(2)
N30_5 N 0.28194(18) 0.9790(2) 0.71806(18)
C14_5 C 0.27576(19) 0.9373(2) 0.72424(19)
N32_5 N 0.3136(2) 0.9812(3) 0.6864(2)
N33_5 N 0.3024(2) 0.8352(2) 0.6233(2)
N34_5 N 0.1661(2) 0.9684(3) 0.8339(2)
N35_5 N 0.3244(2) 0.8468(2) 0.5869(3)
N38_5 N 0.32579(17) 0.9420(3) 0.67421(17)
N40_5 N 0.19982(15) 0.75175(16) 0.68350(14)
C15_5 C 0.1946(2) 0.7259(2) 0.61127(18)
N41_5 N 0.1759(3) 0.6897(2) 0.5545(2)
C16_5 C 0.21305(17) 0.75507(18) 0.64229(16)
N42_5 N 0.1648(2) 0.6976(2) 0.6233(2)
N43_5 N 0.1532(2) 0.6756(2) 0.5869(3)
Zn6_5 Zn 0.29999(2) 0.70001(2) 0.84583(3)
N45_5 N 0.22016(14) 0.77984(14) 0.8534(2)
N46_5 N 0.24878(13) 0.75122(13) 0.86998(18)
C17_5 C 0.21601(19) 0.78399(19) 0.9227(2)
N47_5 N 0.20014(14) 0.79986(14) 0.88489(19)
C18_5 C 0.24618(18) 0.75382(18) 0.9133(2)
N48_5 N 0.31650(14) 0.75175(16) 0.80018(15)
N49_5 N 0.30174(18) 0.69826(18) 0.9124(2)
N50_5 N 0.2909(2) 0.77906(16) 0.77906(16)
C19_5 C 0.38873(18) 0.7259(2) 0.8054(2)
N51_5 N 0.4455(2) 0.6897(2) 0.8241(3)
C20_5 C 0.35771(16) 0.75507(18) 0.78695(17)
C21_5 C 0.1998(2) 0.8002(2) 0.9633(3)
N52_5 N 0.28194(18) 0.71806(18) 0.9790(2)
C22_5 C 0.27576(19) 0.72424(19) 0.9373(2)
N54_5 N 0.3136(2) 0.6864(2) 0.9812(3)
N55_5 N 0.3767(2) 0.6976(2) 0.8352(2)
N56_5 N 0.1661(2) 0.8339(2) 0.9684(3)
N57_5 N 0.4131(3) 0.6756(2) 0.8468(2)
N60_5 N 0.32579(17) 0.67421(17) 0.9420(3)
N62_5 N 0.31650(14) 0.80018(15) 0.75175(16)
C23_5 C 0.38873(18) 0.8054(2) 0.7259(2)
N63_5 N 0.4455(2) 0.8241(3) 0.6897(2)
C24_5 C 0.35771(16) 0.78695(17) 0.75507(18)
N64_5 N 0.3767(2) 0.8352(2) 0.6976(2)
N65_5 N 0.4131(3) 0.8468(2) 0.6756(2)
H1_5 H 0.197601 0.704873 0.802399
H2_5 H 0.197601 0.802399 0.704873
H3_5 H 0.295127 0.802399 0.802399
N9_5 N 0.9956(2) 0.7881(2) 0.7881(2)
N15_5 N 0.9669(4) 0.8102(3) 0.8102(3)
N17_5 N 0.9864(4) 0.8363(4) 0.8363(4)
N9_6 N 0.0044(2) 0.2119(2) 0.7881(2)
N15_6 N 0.0331(4) 0.1898(3) 0.8102(3)
N17_6 N 0.0136(4) 0.1637(4) 0.8363(4)
N53_6 N 0.7881(2) 0.2119(2) 0.0044(2)
N59_6 N 0.8102(3) 0.1898(3) 0.0331(4)
N61_6 N 0.8363(4) 0.1637(4) 0.0136(4)
Zn1_6 Zn 0.78452(2) 0.21548(2) 0.78452(2)
Zn2_6 Zn 0.84583(3) 0.29999(2) 0.70001(2)
N1_6 N 0.8534(2) 0.22016(14) 0.77984(14)
N2_6 N 0.86998(18) 0.24878(13) 0.75122(13)
C1_6 C 0.9227(2) 0.21601(19) 0.78399(19)
N3_6 N 0.88489(19) 0.20014(14) 0.79986(14)
C2_6 C 0.9133(2) 0.24618(18) 0.75382(18)
N4_6 N 0.80018(15) 0.31650(14) 0.75175(16)
N5_6 N 0.9124(2) 0.30174(18) 0.69826(18)
N6_6 N 0.77906(16) 0.2909(2) 0.77906(16)
C3_6 C 0.8054(2) 0.38873(18) 0.7259(2)
N7_6 N 0.8241(3) 0.4455(2) 0.6897(2)
C4_6 C 0.78695(17) 0.35771(16) 0.75507(18)
C5_6 C 0.9633(3) 0.1998(2) 0.8002(2)
N8_6 N 0.9790(2) 0.28194(18) 0.71806(18)
C6_6 C 0.9373(2) 0.27576(19) 0.72424(19)
N10_6 N 0.9812(3) 0.3136(2) 0.6864(2)
N11_6 N 0.8352(2) 0.3767(2) 0.6976(2)
N12_6 N 0.9684(3) 0.1661(2) 0.8339(2)
N13_6 N 0.8468(2) 0.4131(3) 0.6756(2)
N16_6 N 0.9420(3) 0.32579(17) 0.67421(17)
N18_6 N 0.75175(16) 0.31650(14) 0.80018(15)
C7_6 C 0.7259(2) 0.38873(18) 0.8054(2)
N19_6 N 0.6897(2) 0.4455(2) 0.8241(3)
C8_6 C 0.75507(18) 0.35771(16) 0.78695(17)
N20_6 N 0.6976(2) 0.3767(2) 0.8352(2)
N21_6 N 0.6756(2) 0.4131(3) 0.8468(2)
Zn4_6 Zn 0.70001(2) 0.15417(3) 0.70001(2)
N23_6 N 0.77984(14) 0.1466(2) 0.77984(14)
N24_6 N 0.75122(13) 0.13002(18) 0.75122(13)
C9_6 C 0.78399(19) 0.0773(2) 0.78399(19)
N25_6 N 0.79986(14) 0.11511(19) 0.79986(14)
C10_6 C 0.75382(18) 0.0867(2) 0.75382(18)
N26_6 N 0.75175(16) 0.19982(15) 0.68350(14)
N27_6 N 0.69826(18) 0.0876(2) 0.69826(18)
N28_6 N 0.77906(16) 0.22094(16) 0.7091(2)
C11_6 C 0.7259(2) 0.1946(2) 0.61127(18)
N29_6 N 0.6897(2) 0.1759(3) 0.5545(2)
C12_6 C 0.75507(18) 0.21305(17) 0.64229(16)
C13_6 C 0.8002(2) 0.0367(3) 0.8002(2)
N30_6 N 0.71806(18) 0.0210(2) 0.71806(18)
C14_6 C 0.72424(19) 0.0627(2) 0.72424(19)
N32_6 N 0.6864(2) 0.0188(3) 0.6864(2)
N33_6 N 0.6976(2) 0.1648(2) 0.6233(2)
N34_6 N 0.8339(2) 0.0316(3) 0.8339(2)
N35_6 N 0.6756(2) 0.1532(2) 0.5869(3)
N38_6 N 0.67421(17) 0.0580(3) 0.67421(17)
N40_6 N 0.80018(15) 0.24825(16) 0.68350(14)
C15_6 C 0.8054(2) 0.2741(2) 0.61127(18)
N41_6 N 0.8241(3) 0.3103(2) 0.5545(2)
C16_6 C 0.78695(17) 0.24493(18) 0.64229(16)
N42_6 N 0.8352(2) 0.3024(2) 0.6233(2)
N43_6 N 0.8468(2) 0.3244(2) 0.5869(3)
Zn6_6 Zn 0.70001(2) 0.29999(2) 0.84583(3)
N45_6 N 0.77984(14) 0.22016(14) 0.8534(2)
N46_6 N 0.75122(13) 0.24878(13) 0.86998(18)
C17_6 C 0.78399(19) 0.21601(19) 0.9227(2)
N47_6 N 0.79986(14) 0.20014(14) 0.88489(19)
C18_6 C 0.75382(18) 0.24618(18) 0.9133(2)
N48_6 N 0.68350(14) 0.24825(16) 0.80018(15)
N49_6 N 0.69826(18) 0.30174(18) 0.9124(2)
N50_6 N 0.7091(2) 0.22094(16) 0.77906(16)
C19_6 C 0.61127(18) 0.2741(2) 0.8054(2)
N51_6 N 0.5545(2) 0.3103(2) 0.8241(3)
C20_6 C 0.64229(16) 0.24493(18) 0.78695(17)
C21_6 C 0.8002(2) 0.1998(2) 0.9633(3)
N52_6 N 0.71806(18) 0.28194(18) 0.9790(2)
C22_6 C 0.72424(19) 0.27576(19) 0.9373(2)
N54_6 N 0.6864(2) 0.3136(2) 0.9812(3)
N55_6 N 0.6233(2) 0.3024(2) 0.8352(2)
N56_6 N 0.8339(2) 0.1661(2) 0.9684(3)
N57_6 N 0.5869(3) 0.3244(2) 0.8468(2)
N60_6 N 0.67421(17) 0.32579(17) 0.9420(3)
N62_6 N 0.68350(14) 0.19982(15) 0.75175(16)
C23_6 C 0.61127(18) 0.1946(2) 0.7259(2)
N63_6 N 0.5545(2) 0.1759(3) 0.6897(2)
C24_6 C 0.64229(16) 0.21305(17) 0.75507(18)
N64_6 N 0.6233(2) 0.1648(2) 0.6976(2)
N65_6 N 0.5869(3) 0.1532(2) 0.6756(2)
H1_6 H 0.802399 0.295127 0.802399
H2_6 H 0.802399 0.197601 0.704873
H3_6 H 0.704873 0.197601 0.802399
N31_6 N 0.7881(2) 0.9956(2) 0.7881(2)
N37_6 N 0.8102(3) 0.9669(4) 0.8102(3)
N39_6 N 0.8363(4) 0.9864(4) 0.8363(4)
Zn1_7 Zn 0.21548(2) 0.21548(2) 0.21548(2)
Zn2_7 Zn 0.15417(3) 0.29999(2) 0.29999(2)
N1_7 N 0.1466(2) 0.22016(14) 0.22016(14)
N2_7 N 0.13002(18) 0.24878(13) 0.24878(13)
C1_7 C 0.0773(2) 0.21601(19) 0.21601(19)
N3_7 N 0.11511(19) 0.20014(14) 0.20014(14)
C2_7 C 0.0867(2) 0.24618(18) 0.24618(18)
N4_7 N 0.19982(15) 0.31650(14) 0.24825(16)
N5_7 N 0.0876(2) 0.30174(18) 0.30174(18)
N6_7 N 0.22094(16) 0.2909(2) 0.22094(16)
C3_7 C 0.1946(2) 0.38873(18) 0.2741(2)
N7_7 N 0.1759(3) 0.4455(2) 0.3103(2)
C4_7 C 0.21305(17) 0.35771(16) 0.24493(18)
C5_7 C 0.0367(3) 0.1998(2) 0.1998(2)
N8_7 N 0.0210(2) 0.28194(18) 0.28194(18)
C6_7 C 0.0627(2) 0.27576(19) 0.27576(19)
N10_7 N 0.0188(3) 0.3136(2) 0.3136(2)
N11_7 N 0.1648(2) 0.3767(2) 0.3024(2)
N12_7 N 0.0316(3) 0.1661(2) 0.1661(2)
N13_7 N 0.1532(2) 0.4131(3) 0.3244(2)
N16_7 N 0.0580(3) 0.32579(17) 0.32579(17)
N18_7 N 0.24825(16) 0.31650(14) 0.19982(15)
C7_7 C 0.2741(2) 0.38873(18) 0.1946(2)
N19_7 N 0.3103(2) 0.4455(2) 0.1759(3)
C8_7 C 0.24493(18) 0.35771(16) 0.21305(17)
N20_7 N 0.3024(2) 0.3767(2) 0.1648(2)
N21_7 N 0.3244(2) 0.4131(3) 0.1532(2)
Zn4_7 Zn 0.29999(2) 0.15417(3) 0.29999(2)
N23_7 N 0.22016(14) 0.1466(2) 0.22016(14)
N24_7 N 0.24878(13) 0.13002(18) 0.24878(13)
C9_7 C 0.21601(19) 0.0773(2) 0.21601(19)
N25_7 N 0.20014(14) 0.11511(19) 0.20014(14)
C10_7 C 0.24618(18) 0.0867(2) 0.24618(18)
N26_7 N 0.24825(16) 0.19982(15) 0.31650(14)
N27_7 N 0.30174(18) 0.0876(2) 0.30174(18)
N28_7 N 0.22094(16) 0.22094(16) 0.2909(2)
C11_7 C 0.2741(2) 0.1946(2) 0.38873(18)
N29_7 N 0.3103(2) 0.1759(3) 0.4455(2)
C12_7 C 0.24493(18) 0.21305(17) 0.35771(16)
C13_7 C 0.1998(2) 0.0367(3) 0.1998(2)
N30_7 N 0.28194(18) 0.0210(2) 0.28194(18)
C14_7 C 0.27576(19) 0.0627(2) 0.27576(19)
N32_7 N 0.3136(2) 0.0188(3) 0.3136(2)
N33_7 N 0.3024(2) 0.1648(2) 0.3767(2)
N34_7 N 0.1661(2) 0.0316(3) 0.1661(2)
N35_7 N 0.3244(2) 0.1532(2) 0.4131(3)
N38_7 N 0.32579(17) 0.0580(3) 0.32579(17)
N40_7 N 0.19982(15) 0.24825(16) 0.31650(14)
C15_7 C 0.1946(2) 0.2741(2) 0.38873(18)
N41_7 N 0.1759(3) 0.3103(2) 0.4455(2)
C16_7 C 0.21305(17) 0.24493(18) 0.35771(16)
N42_7 N 0.1648(2) 0.3024(2) 0.3767(2)
N43_7 N 0.1532(2) 0.3244(2) 0.4131(3)
Zn6_7 Zn 0.29999(2) 0.29999(2) 0.15417(3)
N45_7 N 0.22016(14) 0.22016(14) 0.1466(2)
N46_7 N 0.24878(13) 0.24878(13) 0.13002(18)
C17_7 C 0.21601(19) 0.21601(19) 0.0773(2)
N47_7 N 0.20014(14) 0.20014(14) 0.11511(19)
C18_7 C 0.24618(18) 0.24618(18) 0.0867(2)
N48_7 N 0.31650(14) 0.24825(16) 0.19982(15)
N49_7 N 0.30174(18) 0.30174(18) 0.0876(2)
N50_7 N 0.2909(2) 0.22094(16) 0.22094(16)
C19_7 C 0.38873(18) 0.2741(2) 0.1946(2)
N51_7 N 0.4455(2) 0.3103(2) 0.1759(3)
C20_7 C 0.35771(16) 0.24493(18) 0.21305(17)
C21_7 C 0.1998(2) 0.1998(2) 0.0367(3)
N52_7 N 0.28194(18) 0.28194(18) 0.0210(2)
C22_7 C 0.27576(19) 0.27576(19) 0.0627(2)
N54_7 N 0.3136(2) 0.3136(2) 0.0188(3)
N55_7 N 0.3767(2) 0.3024(2) 0.1648(2)
N56_7 N 0.1661(2) 0.1661(2) 0.0316(3)
N57_7 N 0.4131(3) 0.3244(2) 0.1532(2)
N60_7 N 0.32579(17) 0.32579(17) 0.0580(3)
N62_7 N 0.31650(14) 0.19982(15) 0.24825(16)
C23_7 C 0.38873(18) 0.1946(2) 0.2741(2)
N63_7 N 0.4455(2) 0.1759(3) 0.3103(2)
C24_7 C 0.35771(16) 0.21305(17) 0.24493(18)
N64_7 N 0.3767(2) 0.1648(2) 0.3024(2)
N65_7 N 0.4131(3) 0.1532(2) 0.3244(2)
H1_7 H 0.197601 0.295127 0.197601
H2_7 H 0.197601 0.197601 0.295127
H3_7 H 0.295127 0.197601 0.197601
N53_7 N 0.2119(2) 0.2119(2) 0.9956(2)
N59_7 N 0.1898(3) 0.1898(3) 0.9669(4)
N61_7 N 0.1637(4) 0.1637(4) 0.9864(4)
N31_7 N 0.2119(2) 0.9956(2) 0.2119(2)
N37_7 N 0.1898(3) 0.9669(4) 0.1898(3)
N39_7 N 0.1637(4) 0.9864(4) 0.1637(4)
N9_7 N 0.9956(2) 0.2119(2) 0.2119(2)
N15_7 N 0.9669(4) 0.1898(3) 0.1898(3)
N17_7 N 0.9864(4) 0.1637(4) 0.1637(4)
N9_8 N 0.0044(2) 0.7881(2) 0.2119(2)
N15_8 N 0.0331(4) 0.8102(3) 0.1898(3)
N17_8 N 0.0136(4) 0.8363(4) 0.1637(4)
N31_8 N 0.7881(2) 0.0044(2) 0.2119(2)
N37_8 N 0.8102(3) 0.0331(4) 0.1898(3)
N39_8 N 0.8363(4) 0.0136(4) 0.1637(4)
Zn1_8 Zn 0.78452(2) 0.78452(2) 0.21548(2)
Zn2_8 Zn 0.84583(3) 0.70001(2) 0.29999(2)
N1_8 N 0.8534(2) 0.77984(14) 0.22016(14)
N2_8 N 0.86998(18) 0.75122(13) 0.24878(13)
C1_8 C 0.9227(2) 0.78399(19) 0.21601(19)
N3_8 N 0.88489(19) 0.79986(14) 0.20014(14)
C2_8 C 0.9133(2) 0.75382(18) 0.24618(18)
N4_8 N 0.80018(15) 0.68350(14) 0.24825(16)
N5_8 N 0.9124(2) 0.69826(18) 0.30174(18)
N6_8 N 0.77906(16) 0.7091(2) 0.22094(16)
C3_8 C 0.8054(2) 0.61127(18) 0.2741(2)
N7_8 N 0.8241(3) 0.5545(2) 0.3103(2)
C4_8 C 0.78695(17) 0.64229(16) 0.24493(18)
C5_8 C 0.9633(3) 0.8002(2) 0.1998(2)
N8_8 N 0.9790(2) 0.71806(18) 0.28194(18)
C6_8 C 0.9373(2) 0.72424(19) 0.27576(19)
N10_8 N 0.9812(3) 0.6864(2) 0.3136(2)
N11_8 N 0.8352(2) 0.6233(2) 0.3024(2)
N12_8 N 0.9684(3) 0.8339(2) 0.1661(2)
N13_8 N 0.8468(2) 0.5869(3) 0.3244(2)
N16_8 N 0.9420(3) 0.67421(17) 0.32579(17)
N18_8 N 0.75175(16) 0.68350(14) 0.19982(15)
C7_8 C 0.7259(2) 0.61127(18) 0.1946(2)
N19_8 N 0.6897(2) 0.5545(2) 0.1759(3)
C8_8 C 0.75507(18) 0.64229(16) 0.21305(17)
N20_8 N 0.6976(2) 0.6233(2) 0.1648(2)
N21_8 N 0.6756(2) 0.5869(3) 0.1532(2)
Zn4_8 Zn 0.70001(2) 0.84583(3) 0.29999(2)
N23_8 N 0.77984(14) 0.8534(2) 0.22016(14)
N24_8 N 0.75122(13) 0.86998(18) 0.24878(13)
C9_8 C 0.78399(19) 0.9227(2) 0.21601(19)
N25_8 N 0.79986(14) 0.88489(19) 0.20014(14)
C10_8 C 0.75382(18) 0.9133(2) 0.24618(18)
N26_8 N 0.75175(16) 0.80018(15) 0.31650(14)
N27_8 N 0.69826(18) 0.9124(2) 0.30174(18)
N28_8 N 0.77906(16) 0.77906(16) 0.2909(2)
C11_8 C 0.7259(2) 0.8054(2) 0.38873(18)
N29_8 N 0.6897(2) 0.8241(3) 0.4455(2)
C12_8 C 0.75507(18) 0.78695(17) 0.35771(16)
C13_8 C 0.8002(2) 0.9633(3) 0.1998(2)
N30_8 N 0.71806(18) 0.9790(2) 0.28194(18)
C14_8 C 0.72424(19) 0.9373(2) 0.27576(19)
N32_8 N 0.6864(2) 0.9812(3) 0.3136(2)
N33_8 N 0.6976(2) 0.8352(2) 0.3767(2)
N34_8 N 0.8339(2) 0.9684(3) 0.1661(2)
N35_8 N 0.6756(2) 0.8468(2) 0.4131(3)
N38_8 N 0.67421(17) 0.9420(3) 0.32579(17)
N40_8 N 0.80018(15) 0.75175(16) 0.31650(14)
C15_8 C 0.8054(2) 0.7259(2) 0.38873(18)
N41_8 N 0.8241(3) 0.6897(2) 0.4455(2)
C16_8 C 0.78695(17) 0.75507(18) 0.35771(16)
N42_8 N 0.8352(2) 0.6976(2) 0.3767(2)
N43_8 N 0.8468(2) 0.6756(2) 0.4131(3)
Zn6_8 Zn 0.70001(2) 0.70001(2) 0.15417(3)
N45_8 N 0.77984(14) 0.77984(14) 0.1466(2)
N46_8 N 0.75122(13) 0.75122(13) 0.13002(18)
C17_8 C 0.78399(19) 0.78399(19) 0.0773(2)
N47_8 N 0.79986(14) 0.79986(14) 0.11511(19)
C18_8 C 0.75382(18) 0.75382(18) 0.0867(2)
N48_8 N 0.68350(14) 0.75175(16) 0.19982(15)
N49_8 N 0.69826(18) 0.69826(18) 0.0876(2)
N50_8 N 0.7091(2) 0.77906(16) 0.22094(16)
C19_8 C 0.61127(18) 0.7259(2) 0.1946(2)
N51_8 N 0.5545(2) 0.6897(2) 0.1759(3)
C20_8 C 0.64229(16) 0.75507(18) 0.21305(17)
C21_8 C 0.8002(2) 0.8002(2) 0.0367(3)
N52_8 N 0.71806(18) 0.71806(18) 0.0210(2)
C22_8 C 0.72424(19) 0.72424(19) 0.0627(2)
N54_8 N 0.6864(2) 0.6864(2) 0.0188(3)
N55_8 N 0.6233(2) 0.6976(2) 0.1648(2)
N56_8 N 0.8339(2) 0.8339(2) 0.0316(3)
N57_8 N 0.5869(3) 0.6756(2) 0.1532(2)
N60_8 N 0.67421(17) 0.67421(17) 0.0580(3)
N62_8 N 0.68350(14) 0.80018(15) 0.24825(16)
C23_8 C 0.61127(18) 0.8054(2) 0.2741(2)
N63_8 N 0.5545(2) 0.8241(3) 0.3103(2)
C24_8 C 0.64229(16) 0.78695(17) 0.24493(18)
N64_8 N 0.6233(2) 0.8352(2) 0.3024(2)
N65_8 N 0.5869(3) 0.8468(2) 0.3244(2)
H1_8 H 0.802399 0.704873 0.197601
H2_8 H 0.802399 0.802399 0.295127
H3_8 H 0.704873 0.802399 0.197601
N53_8 N 0.7881(2) 0.7881(2) 0.9956(2)
N59_8 N 0.8102(3) 0.8102(3) 0.9669(4)
N61_8 N 0.8363(4) 0.8363(4) 0.9864(4)
loop_
_geom_bond_atom_site_label_1
_geom_bond_atom_site_label_2
_geom_bond_site_symmetry_1
_geom_bond_site_symmetry_2
Zn1 N1 1_555 1_555
Zn2 N2 1_555 1_555
Zn3 N8 1_555 1_555
N1 N2 1_555 1_555
N2 C2 1_555 1_555
C1 N3 1_555 1_555
N3 N1 1_555 1_555
C2 C1 1_555 1_555
N4 Zn2 1_555 1_555
N5 Zn2 1_555 1_555
N6 Zn1 1_555 1_555
C3 C4 1_555 1_555
N7 N13 1_555 1_555
C4 N4 1_555 1_555
C5 C1 1_555 1_555
N8 C6 1_555 1_555
N9 Zn3 1_555 1_555
C6 C2 1_555 1_555
N10 N8 1_555 1_555
N11 Zn2 1_555 1_555
N12 C5 1_555 1_555
N13 N11 1_555 1_555
N14 C3 1_555 1_555
N15 N9 1_555 1_555
N16 N5 1_555 1_555
N17 N12 1_555 1_555
N18 N6 1_555 1_555
C7 C8 1_555 1_555
N19 N21 1_555 1_555
C8 C4 1_555 1_555
N20 C7 1_555 1_555
N21 N20 1_555 1_555
N22 C7 1_555 1_555
Zn4 N24 1_555 1_555
Zn5 N30 1_555 1_555
N23 Zn1 1_555 1_555
N24 N23 1_555 1_555
C9 N25 1_555 1_555
N25 N23 1_555 1_555
C10 N24 1_555 1_555
N26 Zn4 1_555 1_555
N27 Zn4 1_555 1_555
N28 Zn1 1_555 1_555
C11 C12 1_555 1_555
N29 N35 1_555 1_555
C12 N26 1_555 1_555
C13 C9 1_555 1_555
N30 C14 1_555 1_555
N31 Zn5 1_555 1_555
C14 C10 1_555 1_555
N32 N30 1_555 1_555
N33 Zn4 1_555 1_555
N34 C13 1_555 1_555
N35 N33 1_555 1_555
N36 C11 1_555 1_555
N37 N31 1_555 1_555
N38 N27 1_555 1_555
N39 N34 1_555 1_555
N40 Zn2 1_555 1_555
C15 C16 1_555 1_555
N41 N43 1_555 1_555
C16 C12 1_555 1_555
N42 Zn2 1_555 1_555
N43 N42 1_555 1_555
N44 C15 1_555 1_555
Zn6 N18 1_555 1_555
Zn7 N52 1_555 1_555
N45 Zn1 1_555 1_555
N46 Zn6 1_555 1_555
C17 N47 1_555 1_555
N47 N45 1_555 1_555
C18 N46 1_555 1_555
N48 Zn6 1_555 1_555
N49 Zn6 1_555 1_555
N50 Zn1 1_555 1_555
C19 C20 1_555 1_555
N51 N57 1_555 1_555
C20 N48 1_555 1_555
C21 C17 1_555 1_555
N52 C22 1_555 1_555
N53 Zn7 1_555 1_555
C22 C18 1_555 1_555
N54 N52 1_555 1_555
N55 Zn6 1_555 1_555
N56 C21 1_555 1_555
N57 N55 1_555 1_555
N58 C19 1_555 1_555
N59 N53 1_555 1_555
N60 N49 1_555 1_555
N61 N56 1_555 1_555
N62 Zn4 1_555 1_555
C23 C24 1_555 1_555
N63 N65 1_555 1_555
C24 C20 1_555 1_555
N64 Zn4 1_555 1_555
N65 N64 1_555 1_555
N66 C23 1_555 1_555
Zn8 N58 1_555 1_555
Zn9 N14 1_555 1_555
Zn10 N36 1_555 1_555
N67 Zn5 1_555 1_555
N68 Zn7 1_555 1_555
N69 Zn3 1_555 1_555
N70 Zn3 1_555 1_555
N71 Zn5 1_555 1_555
N72 Zn7 1_555 1_555
N4 N6 1_555 1_555
N5 C6 1_555 1_555
C3 N11 1_555 1_555
N7 N14 1_555 1_555
C5 N9 1_555 1_555
N10 N16 1_555 1_555
N15 N17 1_555 1_555
N18 C8 1_555 1_555
N19 N22 1_555 1_555
N20 Zn6 1_555 1_555
N22 Zn9 1_555 1_555
C9 C10 1_555 1_555
N26 N28 1_555 1_555
N27 C14 1_555 1_555
N28 N40 1_555 1_555
C11 N33 1_555 1_555
N29 N36 1_555 1_555
C13 N31 1_555 1_555
N32 N38 1_555 1_555
N37 N39 1_555 1_555
N40 C16 1_555 1_555
C15 N42 1_555 1_555
N41 N44 1_555 1_555
N44 Zn10 1_555 1_555
N45 N46 1_555 1_555
C17 C18 1_555 1_555
N48 N50 1_555 1_555
N49 C22 1_555 1_555
N50 N62 1_555 1_555
C19 N55 1_555 1_555
N51 N58 1_555 1_555
C21 N53 1_555 1_555
N54 N60 1_555 1_555
N59 N61 1_555 1_555
N62 C24 1_555 1_555
C23 N64 1_555 1_555
N63 N66 1_555 1_555
N66 Zn8 1_555 1_555
N6 H1 1_555 1_555
N28 H2 1_555 1_555
N50 H3 1_555 1_555
Zn1_2 N1_2 1_555 1_555
Zn2_2 N2_2 1_555 1_555
Zn3_2 N8_2 1_555 1_555
N1_2 N2_2 1_555 1_555
N2_2 C2_2 1_555 1_555
C1_2 N3_2 1_555 1_555
N3_2 N1_2 1_555 1_555
C2_2 C1_2 1_555 1_555
N4_2 Zn2_2 1_555 1_555
N5_2 Zn2_2 1_555 1_555
N6_2 Zn1_2 1_555 1_555
C3_2 C4_2 1_555 1_555
N7_2 N13_2 1_555 1_555
C4_2 N4_2 1_555 1_555
C5_2 C1_2 1_555 1_555
N8_2 C6_2 1_555 1_555
N9_2 Zn3_2 1_555 1_555
C6_2 C2_2 1_555 1_555
N10_2 N8_2 1_555 1_555
N11_2 Zn2_2 1_555 1_555
N12_2 C5_2 1_555 1_555
N13_2 N11_2 1_555 1_555
N14_2 C3_2 1_555 1_555
N15_2 N9_2 1_555 1_555
N16_2 N5_2 1_555 1_555
N17_2 N12_2 1_555 1_555
N18_2 N6_2 1_555 1_555
C7_2 C8_2 1_555 1_555
N19_2 N21_2 1_555 1_555
C8_2 C4_2 1_555 1_555
N20_2 C7_2 1_555 1_555
N21_2 N20_2 1_555 1_555
N22_2 C7_2 1_555 1_555
Zn4_2 N24_2 1_555 1_555
Zn5_2 N30_2 1_555 1_555
N23_2 Zn1_2 1_555 1_555
N24_2 N23_2 1_555 1_555
C9_2 N25_2 1_555 1_555
N25_2 N23_2 1_555 1_555
C10_2 N24_2 1_555 1_555
N26_2 Zn4_2 1_555 1_555
N27_2 Zn4_2 1_555 1_555
N28_2 Zn1_2 1_555 1_555
C11_2 C12_2 1_555 1_555
N29_2 N35_2 1_555 1_555
C12_2 N26_2 1_555 1_555
C13_2 C9_2 1_555 1_555
N30_2 C14_2 1_555 1_555
N31_2 Zn5_2 1_555 1_555
C14_2 C10_2 1_555 1_555
N32_2 N30_2 1_555 1_555
N33_2 Zn4_2 1_555 1_555
N34_2 C13_2 1_555 1_555
N35_2 N33_2 1_555 1_555
N36_2 C11_2 1_555 1_555
N37_2 N31_2 1_555 1_555
N38_2 N27_2 1_555 1_555
N39_2 N34_2 1_555 1_555
N40_2 Zn2_2 1_555 1_555
C15_2 C16_2 1_555 1_555
N41_2 N43_2 1_555 1_555
C16_2 C12_2 1_555 1_555
N42_2 Zn2_2 1_555 1_555
N43_2 N42_2 1_555 1_555
N44_2 C15_2 1_555 1_555
Zn6_2 N18_2 1_555 1_555
Zn7_2 N52_2 1_555 1_555
N45_2 Zn1_2 1_555 1_555
N46_2 Zn6_2 1_555 1_555
C17_2 N47_2 1_555 1_555
N47_2 N45_2 1_555 1_555
C18_2 N46_2 1_555 1_555
N48_2 Zn6_2 1_555 1_555
N49_2 Zn6_2 1_555 1_555
N50_2 Zn1_2 1_555 1_555
C19_2 C20_2 1_555 1_555
N51_2 N57_2 1_555 1_555
C20_2 N48_2 1_555 1_555
C21_2 C17_2 1_555 1_555
N52_2 C22_2 1_555 1_555
N53_2 Zn7_2 1_555 1_555
C22_2 C18_2 1_555 1_555
N54_2 N52_2 1_555 1_555
N55_2 Zn6_2 1_555 1_555
N56_2 C21_2 1_555 1_555
N57_2 N55_2 1_555 1_555
N58_2 C19_2 1_555 1_555
N59_2 N53_2 1_555 1_555
N60_2 N49_2 1_555 1_555
N61_2 N56_2 1_555 1_555
N62_2 Zn4_2 1_555 1_555
C23_2 C24_2 1_555 1_555
N63_2 N65_2 1_555 1_555
C24_2 C20_2 1_555 1_555
N64_2 Zn4_2 1_555 1_555
N65_2 N64_2 1_555 1_555
N66_2 C23_2 1_555 1_555
Zn8_2 N58_2 1_555 1_555
Zn9_2 N14_2 1_555 1_555
Zn10_2 N36_2 1_555 1_555
N67_2 Zn5_2 1_555 1_555
N68_2 Zn7_2 1_555 1_555
N69_2 Zn3_2 1_555 1_555
N70_2 Zn3_2 1_555 1_555
N71_2 Zn5_2 1_555 1_555
N72_2 Zn7_2 1_555 1_555
N4_2 N6_2 1_555 1_555
N5_2 C6_2 1_555 1_555
C3_2 N11_2 1_555 1_555
N7_2 N14_2 1_555 1_555
C5_2 N9_2 1_555 1_555
N10_2 N16_2 1_555 1_555
N15_2 N17_2 1_555 1_555
N18_2 C8_2 1_555 1_555
N19_2 N22_2 1_555 1_555
N20_2 Zn6_2 1_555 1_555
N22_2 Zn9_2 1_555 1_555
C9_2 C10_2 1_555 1_555
N26_2 N28_2 1_555 1_555
N27_2 C14_2 1_555 1_555
N28_2 N40_2 1_555 1_555
C11_2 N33_2 1_555 1_555
N29_2 N36_2 1_555 1_555
C13_2 N31_2 1_555 1_555
N32_2 N38_2 1_555 1_555
N37_2 N39_2 1_555 1_555
N40_2 C16_2 1_555 1_555
C15_2 N42_2 1_555 1_555
N41_2 N44_2 1_555 1_555
N44_2 Zn10_2 1_555 1_555
N45_2 N46_2 1_555 1_555
C17_2 C18_2 1_555 1_555
N48_2 N50_2 1_555 1_555
N49_2 C22_2 1_555 1_555
N50_2 N62_2 1_555 1_555
C19_2 N55_2 1_555 1_555
N51_2 N58_2 1_555 1_555
C21_2 N53_2 1_555 1_555
N54_2 N60_2 1_555 1_555
N59_2 N61_2 1_555 1_555
N62_2 C24_2 1_555 1_555
C23_2 N64_2 1_555 1_555
N63_2 N66_2 1_555 1_555
N66_2 Zn8_2 1_555 1_555
N6_2 H1_2 1_555 1_555
N28_2 H2_2 1_555 1_555
N50_2 H3_2 1_555 1_555
Zn1_3 N1_3 1_555 1_555
Zn2_3 N2_3 1_555 1_555
Zn3_3 N8_3 1_555 1_555
N1_3 N2_3 1_555 1_555
N2_3 C2_3 1_555 1_555
C1_3 N3_3 1_555 1_555
N3_3 N1_3 1_555 1_555
C2_3 C1_3 1_555 1_555
N4_3 Zn2_3 1_555 1_555
N5_3 Zn2_3 1_555 1_555
N6_3 Zn1_3 1_555 1_555
C3_3 C4_3 1_555 1_555
N7_3 N13_3 1_555 1_555
C4_3 N4_3 1_555 1_555
C5_3 C1_3 1_555 1_555
N8_3 C6_3 1_555 1_555
N9_3 Zn3_3 1_555 1_555
C6_3 C2_3 1_555 1_555
N10_3 N8_3 1_555 1_555
N11_3 Zn2_3 1_555 1_555
N12_3 C5_3 1_555 1_555
N13_3 N11_3 1_555 1_555
N14_3 C3_3 1_555 1_555
N15_3 N9_3 1_555 1_555
N16_3 N5_3 1_555 1_555
N17_3 N12_3 1_555 1_555
N18_3 N6_3 1_555 1_555
C7_3 C8_3 1_555 1_555
N19_3 N21_3 1_555 1_555
C8_3 C4_3 1_555 1_555
N20_3 C7_3 1_555 1_555
N21_3 N20_3 1_555 1_555
N22_3 C7_3 1_555 1_555
Zn4_3 N24_3 1_555 1_555
Zn5_3 N30_3 1_555 1_555
N23_3 Zn1_3 1_555 1_555
N24_3 N23_3 1_555 1_555
C9_3 N25_3 1_555 1_555
N25_3 N23_3 1_555 1_555
C10_3 N24_3 1_555 1_555
N26_3 Zn4_3 1_555 1_555
N27_3 Zn4_3 1_555 1_555
N28_3 Zn1_3 1_555 1_555
C11_3 C12_3 1_555 1_555
N29_3 N35_3 1_555 1_555
C12_3 N26_3 1_555 1_555
C13_3 C9_3 1_555 1_555
N30_3 C14_3 1_555 1_555
N31_3 Zn5_3 1_555 1_555
C14_3 C10_3 1_555 1_555
N32_3 N30_3 1_555 1_555
N33_3 Zn4_3 1_555 1_555
N34_3 C13_3 1_555 1_555
N35_3 N33_3 1_555 1_555
N36_3 C11_3 1_555 1_555
N37_3 N31_3 1_555 1_555
N38_3 N27_3 1_555 1_555
N39_3 N34_3 1_555 1_555
N40_3 Zn2_3 1_555 1_555
C15_3 C16_3 1_555 1_555
N41_3 N43_3 1_555 1_555
C16_3 C12_3 1_555 1_555
N42_3 Zn2_3 1_555 1_555
N43_3 N42_3 1_555 1_555
N44_3 C15_3 1_555 1_555
Zn6_3 N18_3 1_555 1_555
Zn7_3 N52_3 1_555 1_555
N45_3 Zn1_3 1_555 1_555
N46_3 Zn6_3 1_555 1_555
C17_3 N47_3 1_555 1_555
N47_3 N45_3 1_555 1_555
C18_3 N46_3 1_555 1_555
N48_3 Zn6_3 1_555 1_555
N49_3 Zn6_3 1_555 1_555
N50_3 Zn1_3 1_555 1_555
C19_3 C20_3 1_555 1_555
N51_3 N57_3 1_555 1_555
C20_3 N48_3 1_555 1_555
C21_3 C17_3 1_555 1_555
N52_3 C22_3 1_555 1_555
N53_3 Zn7_3 1_555 1_555
C22_3 C18_3 1_555 1_555
N54_3 N52_3 1_555 1_555
N55_3 Zn6_3 1_555 1_555
N56_3 C21_3 1_555 1_555
N57_3 N55_3 1_555 1_555
N58_3 C19_3 1_555 1_555
N59_3 N53_3 1_555 1_555
N60_3 N49_3 1_555 1_555
N61_3 N56_3 1_555 1_555
N62_3 Zn4_3 1_555 1_555
C23_3 C24_3 1_555 1_555
N63_3 N65_3 1_555 1_555
C24_3 C20_3 1_555 1_555
N64_3 Zn4_3 1_555 1_555
N65_3 N64_3 1_555 1_555
N66_3 C23_3 1_555 1_555
Zn8_3 N58_3 1_555 1_555
Zn9_3 N14_3 1_555 1_555
Zn10_3 N36_3 1_555 1_555
N67_3 Zn5_3 1_555 1_555
N68_3 Zn7_3 1_555 1_555
N69_3 Zn3_3 1_555 1_555
N70_3 Zn3_3 1_555 1_555
N71_3 Zn5_3 1_555 1_555
N72_3 Zn7_3 1_555 1_555
N4_3 N6_3 1_555 1_555
N5_3 C6_3 1_555 1_555
C3_3 N11_3 1_555 1_555
N7_3 N14_3 1_555 1_555
C5_3 N9_3 1_555 1_555
N10_3 N16_3 1_555 1_555
N15_3 N17_3 1_555 1_555
N18_3 C8_3 1_555 1_555
N19_3 N22_3 1_555 1_555
N20_3 Zn6_3 1_555 1_555
N22_3 Zn9_3 1_555 1_555
C9_3 C10_3 1_555 1_555
N26_3 N28_3 1_555 1_555
N27_3 C14_3 1_555 1_555
N28_3 N40_3 1_555 1_555
C11_3 N33_3 1_555 1_555
N29_3 N36_3 1_555 1_555
C13_3 N31_3 1_555 1_555
N32_3 N38_3 1_555 1_555
N37_3 N39_3 1_555 1_555
N40_3 C16_3 1_555 1_555
C15_3 N42_3 1_555 1_555
N41_3 N44_3 1_555 1_555
N44_3 Zn10_3 1_555 1_555
N45_3 N46_3 1_555 1_555
C17_3 C18_3 1_555 1_555
N48_3 N50_3 1_555 1_555
N49_3 C22_3 1_555 1_555
N50_3 N62_3 1_555 1_555
C19_3 N55_3 1_555 1_555
N51_3 N58_3 1_555 1_555
C21_3 N53_3 1_555 1_555
N54_3 N60_3 1_555 1_555
N59_3 N61_3 1_555 1_555
N62_3 C24_3 1_555 1_555
C23_3 N64_3 1_555 1_555
N63_3 N66_3 1_555 1_555
N66_3 Zn8_3 1_555 1_555
N6_3 H1_3 1_555 1_555
N28_3 H2_3 1_555 1_555
N50_3 H3_3 1_555 1_555
Zn1_4 N1_4 1_555 1_555
Zn2_4 N2_4 1_555 1_555
Zn3_4 N8_4 1_555 1_555
N1_4 N2_4 1_555 1_555
N2_4 C2_4 1_555 1_555
C1_4 N3_4 1_555 1_555
N3_4 N1_4 1_555 1_555
C2_4 C1_4 1_555 1_555
N4_4 Zn2_4 1_555 1_555
N5_4 Zn2_4 1_555 1_555
N6_4 Zn1_4 1_555 1_555
C3_4 C4_4 1_555 1_555
N7_4 N13_4 1_555 1_555
C4_4 N4_4 1_555 1_555
C5_4 C1_4 1_555 1_555
N8_4 C6_4 1_555 1_555
N9_4 Zn3_4 1_555 1_555
C6_4 C2_4 1_555 1_555
N10_4 N8_4 1_555 1_555
N11_4 Zn2_4 1_555 1_555
N12_4 C5_4 1_555 1_555
N13_4 N11_4 1_555 1_555
N14_4 C3_4 1_555 1_555
N15_4 N9_4 1_555 1_555
N16_4 N5_4 1_555 1_555
N17_4 N12_4 1_555 1_555
N18_4 N6_4 1_555 1_555
C7_4 C8_4 1_555 1_555
N19_4 N21_4 1_555 1_555
C8_4 C4_4 1_555 1_555
N20_4 C7_4 1_555 1_555
N21_4 N20_4 1_555 1_555
N22_4 C7_4 1_555 1_555
Zn4_4 N24_4 1_555 1_555
Zn5_4 N30_4 1_555 1_555
N23_4 Zn1_4 1_555 1_555
N24_4 N23_4 1_555 1_555
C9_4 N25_4 1_555 1_555
N25_4 N23_4 1_555 1_555
C10_4 N24_4 1_555 1_555
N26_4 Zn4_4 1_555 1_555
N27_4 Zn4_4 1_555 1_555
N28_4 Zn1_4 1_555 1_555
C11_4 C12_4 1_555 1_555
N29_4 N35_4 1_555 1_555
C12_4 N26_4 1_555 1_555
C13_4 C9_4 1_555 1_555
N30_4 C14_4 1_555 1_555
N31_4 Zn5_4 1_555 1_555
C14_4 C10_4 1_555 1_555
N32_4 N30_4 1_555 1_555
N33_4 Zn4_4 1_555 1_555
N34_4 C13_4 1_555 1_555
N35_4 N33_4 1_555 1_555
N36_4 C11_4 1_555 1_555
N37_4 N31_4 1_555 1_555
N38_4 N27_4 1_555 1_555
N39_4 N34_4 1_555 1_555
N40_4 Zn2_4 1_555 1_555
C15_4 C16_4 1_555 1_555
N41_4 N43_4 1_555 1_555
C16_4 C12_4 1_555 1_555
N42_4 Zn2_4 1_555 1_555
N43_4 N42_4 1_555 1_555
N44_4 C15_4 1_555 1_555
Zn6_4 N18_4 1_555 1_555
Zn7_4 N52_4 1_555 1_555
N45_4 Zn1_4 1_555 1_555
N46_4 Zn6_4 1_555 1_555
C17_4 N47_4 1_555 1_555
N47_4 N45_4 1_555 1_555
C18_4 N46_4 1_555 1_555
N48_4 Zn6_4 1_555 1_555
N49_4 Zn6_4 1_555 1_555
N50_4 Zn1_4 1_555 1_555
C19_4 C20_4 1_555 1_555
N51_4 N57_4 1_555 1_555
C20_4 N48_4 1_555 1_555
C21_4 C17_4 1_555 1_555
N52_4 C22_4 1_555 1_555
N53_4 Zn7_4 1_555 1_555
C22_4 C18_4 1_555 1_555
N54_4 N52_4 1_555 1_555
N55_4 Zn6_4 1_555 1_555
N56_4 C21_4 1_555 1_555
N57_4 N55_4 1_555 1_555
N58_4 C19_4 1_555 1_555
N59_4 N53_4 1_555 1_555
N60_4 N49_4 1_555 1_555
N61_4 N56_4 1_555 1_555
N62_4 Zn4_4 1_555 1_555
C23_4 C24_4 1_555 1_555
N63_4 N65_4 1_555 1_555
C24_4 C20_4 1_555 1_555
N64_4 Zn4_4 1_555 1_555
N65_4 N64_4 1_555 1_555
N66_4 C23_4 1_555 1_555
Zn8_4 N58_4 1_555 1_555
Zn9_4 N14_4 1_555 1_555
Zn10_4 N36_4 1_555 1_555
N67_4 Zn5_4 1_555 1_555
N68_4 Zn7_4 1_555 1_555
N69_4 Zn3_4 1_555 1_555
N70_4 Zn3_4 1_555 1_555
N71_4 Zn5_4 1_555 1_555
N72_4 Zn7_4 1_555 1_555
N4_4 N6_4 1_555 1_555
N5_4 C6_4 1_555 1_555
C3_4 N11_4 1_555 1_555
N7_4 N14_4 1_555 1_555
C5_4 N9_4 1_555 1_555
N10_4 N16_4 1_555 1_555
N15_4 N17_4 1_555 1_555
N18_4 C8_4 1_555 1_555
N19_4 N22_4 1_555 1_555
N20_4 Zn6_4 1_555 1_555
N22_4 Zn9_4 1_555 1_555
C9_4 C10_4 1_555 1_555
N26_4 N28_4 1_555 1_555
N27_4 C14_4 1_555 1_555
N28_4 N40_4 1_555 1_555
C11_4 N33_4 1_555 1_555
N29_4 N36_4 1_555 1_555
C13_4 N31_4 1_555 1_555
N32_4 N38_4 1_555 1_555
N37_4 N39_4 1_555 1_555
N40_4 C16_4 1_555 1_555
C15_4 N42_4 1_555 1_555
N41_4 N44_4 1_555 1_555
N44_4 Zn10_4 1_555 1_555
N45_4 N46_4 1_555 1_555
C17_4 C18_4 1_555 1_555
N48_4 N50_4 1_555 1_555
N49_4 C22_4 1_555 1_555
N50_4 N62_4 1_555 1_555
C19_4 N55_4 1_555 1_555
N51_4 N58_4 1_555 1_555
C21_4 N53_4 1_555 1_555
N54_4 N60_4 1_555 1_555
N59_4 N61_4 1_555 1_555
N62_4 C24_4 1_555 1_555
C23_4 N64_4 1_555 1_555
N63_4 N66_4 1_555 1_555
N66_4 Zn8_4 1_555 1_555
N6_4 H1_4 1_555 1_555
N28_4 H2_4 1_555 1_555
N50_4 H3_4 1_555 1_555
N31_5 Zn9_4 1_555 1_555
N37_5 N31_5 1_555 1_555
N37_5 N39_5 1_555 1_555
N53_5 Zn10_2 1_555 1_555
N59_5 N53_5 1_555 1_555
N59_5 N61_5 1_555 1_555
Zn1_5 N1_5 1_555 1_555
Zn2_5 N2_5 1_555 1_555
N1_5 N2_5 1_555 1_555
N2_5 C2_5 1_555 1_555
C1_5 N3_5 1_555 1_555
N3_5 N1_5 1_555 1_555
C2_5 C1_5 1_555 1_555
N4_5 Zn2_5 1_555 1_555
N5_5 Zn2_5 1_555 1_555
N6_5 Zn1_5 1_555 1_555
C3_5 C4_5 1_555 1_555
N7_5 N13_5 1_555 1_555
C4_5 N4_5 1_555 1_555
C5_5 C1_5 1_555 1_555
N8_5 C6_5 1_555 1_555
C6_5 C2_5 1_555 1_555
N10_5 N8_5 1_555 1_555
N11_5 Zn2_5 1_555 1_555
N12_5 C5_5 1_555 1_555
N13_5 N11_5 1_555 1_555
N67_4 C3_5 1_555 1_555
N16_5 N5_5 1_555 1_555
N18_5 N6_5 1_555 1_555
C7_5 C8_5 1_555 1_555
N19_5 N21_5 1_555 1_555
C8_5 C4_5 1_555 1_555
N20_5 C7_5 1_555 1_555
N21_5 N20_5 1_555 1_555
N71_4 C7_5 1_555 1_555
Zn4_5 N24_5 1_555 1_555
N23_5 Zn1_5 1_555 1_555
N24_5 N23_5 1_555 1_555
C9_5 N25_5 1_555 1_555
N25_5 N23_5 1_555 1_555
C10_5 N24_5 1_555 1_555
N26_5 Zn4_5 1_555 1_555
N27_5 Zn4_5 1_555 1_555
N28_5 Zn1_5 1_555 1_555
C11_5 C12_5 1_555 1_555
N29_5 N35_5 1_555 1_555
C12_5 N26_5 1_555 1_555
C13_5 C9_5 1_555 1_555
N30_5 C14_5 1_555 1_555
C14_5 C10_5 1_555 1_555
N32_5 N30_5 1_555 1_555
N33_5 Zn4_5 1_555 1_555
N34_5 C13_5 1_555 1_555
N35_5 N33_5 1_555 1_555
N68_2 C11_5 1_555 1_555
N38_5 N27_5 1_555 1_555
N40_5 Zn2_5 1_555 1_555
C15_5 C16_5 1_555 1_555
N41_5 N43_5 1_555 1_555
C16_5 C12_5 1_555 1_555
N42_5 Zn2_5 1_555 1_555
N43_5 N42_5 1_555 1_555
N72_2 C15_5 1_555 1_555
Zn6_5 N18_5 1_555 1_555
N45_5 Zn1_5 1_555 1_555
N46_5 Zn6_5 1_555 1_555
C17_5 N47_5 1_555 1_555
N47_5 N45_5 1_555 1_555
C18_5 N46_5 1_555 1_555
N48_5 Zn6_5 1_555 1_555
N49_5 Zn6_5 1_555 1_555
N50_5 Zn1_5 1_555 1_555
C19_5 C20_5 1_555 1_555
N51_5 N57_5 1_555 1_555
C20_5 N48_5 1_555 1_555
C21_5 C17_5 1_555 1_555
N52_5 C22_5 1_555 1_555
C22_5 C18_5 1_555 1_555
N54_5 N52_5 1_555 1_555
N55_5 Zn6_5 1_555 1_555
N56_5 C21_5 1_555 1_555
N57_5 N55_5 1_555 1_555
N69_3 C19_5 1_555 1_555
N60_5 N49_5 1_555 1_555
N62_5 Zn4_5 1_555 1_555
C23_5 C24_5 1_555 1_555
N63_5 N65_5 1_555 1_555
C24_5 C20_5 1_555 1_555
N64_5 Zn4_5 1_555 1_555
N65_5 N64_5 1_555 1_555
N70_3 C23_5 1_555 1_555
N4_5 N6_5 1_555 1_555
N5_5 C6_5 1_555 1_555
C3_5 N11_5 1_555 1_555
N7_5 N67_4 1_555 1_555
N10_5 N16_5 1_555 1_555
N18_5 C8_5 1_555 1_555
N19_5 N71_4 1_555 1_555
N20_5 Zn6_5 1_555 1_555
C9_5 C10_5 1_555 1_555
N26_5 N28_5 1_555 1_555
N27_5 C14_5 1_555 1_555
N28_5 N40_5 1_555 1_555
C11_5 N33_5 1_555 1_555
N29_5 N68_2 1_555 1_555
N32_5 N38_5 1_555 1_555
N40_5 C16_5 1_555 1_555
C15_5 N42_5 1_555 1_555
N41_5 N72_2 1_555 1_555
N45_5 N46_5 1_555 1_555
C17_5 C18_5 1_555 1_555
N48_5 N50_5 1_555 1_555
N49_5 C22_5 1_555 1_555
N50_5 N62_5 1_555 1_555
C19_5 N55_5 1_555 1_555
N51_5 N69_3 1_555 1_555
N54_5 N60_5 1_555 1_555
N62_5 C24_5 1_555 1_555
C23_5 N64_5 1_555 1_555
N63_5 N70_3 1_555 1_555
N6_5 H1_5 1_555 1_555
N28_5 H2_5 1_555 1_555
N50_5 H3_5 1_555 1_555
N9_5 Zn8_3 1_555 1_555
N15_5 N9_5 1_555 1_555
N15_5 N17_5 1_555 1_555
N9_6 Zn8_4 1_555 1_555
N15_6 N9_6 1_555 1_555
N15_6 N17_6 1_555 1_555
N53_6 Zn10 1_555 1_555
N59_6 N53_6 1_555 1_555
N59_6 N61_6 1_555 1_555
Zn1_6 N1_6 1_555 1_555
Zn2_6 N2_6 1_555 1_555
N1_6 N2_6 1_555 1_555
N2_6 C2_6 1_555 1_555
C1_6 N3_6 1_555 1_555
N3_6 N1_6 1_555 1_555
C2_6 C1_6 1_555 1_555
N4_6 Zn2_6 1_555 1_555
N5_6 Zn2_6 1_555 1_555
N6_6 Zn1_6 1_555 1_555
C3_6 C4_6 1_555 1_555
N7_6 N13_6 1_555 1_555
C4_6 N4_6 1_555 1_555
C5_6 C1_6 1_555 1_555
N8_6 C6_6 1_555 1_555
C6_6 C2_6 1_555 1_555
N10_6 N8_6 1_555 1_555
N11_6 Zn2_6 1_555 1_555
N12_6 C5_6 1_555 1_555
N13_6 N11_6 1_555 1_555
N67_3 C3_6 1_555 1_555
N16_6 N5_6 1_555 1_555
N18_6 N6_6 1_555 1_555
C7_6 C8_6 1_555 1_555
N19_6 N21_6 1_555 1_555
C8_6 C4_6 1_555 1_555
N20_6 C7_6 1_555 1_555
N21_6 N20_6 1_555 1_555
N71_3 C7_6 1_555 1_555
Zn4_6 N24_6 1_555 1_555
N23_6 Zn1_6 1_555 1_555
N24_6 N23_6 1_555 1_555
C9_6 N25_6 1_555 1_555
N25_6 N23_6 1_555 1_555
C10_6 N24_6 1_555 1_555
N26_6 Zn4_6 1_555 1_555
N27_6 Zn4_6 1_555 1_555
N28_6 Zn1_6 1_555 1_555
C11_6 C12_6 1_555 1_555
N29_6 N35_6 1_555 1_555
C12_6 N26_6 1_555 1_555
C13_6 C9_6 1_555 1_555
N30_6 C14_6 1_555 1_555
C14_6 C10_6 1_555 1_555
N32_6 N30_6 1_555 1_555
N33_6 Zn4_6 1_555 1_555
N34_6 C13_6 1_555 1_555
N35_6 N33_6 1_555 1_555
N68 C11_6 1_555 1_555
N38_6 N27_6 1_555 1_555
N40_6 Zn2_6 1_555 1_555
C15_6 C16_6 1_555 1_555
N41_6 N43_6 1_555 1_555
C16_6 C12_6 1_555 1_555
N42_6 Zn2_6 1_555 1_555
N43_6 N42_6 1_555 1_555
N72 C15_6 1_555 1_555
Zn6_6 N18_6 1_555 1_555
N45_6 Zn1_6 1_555 1_555
N46_6 Zn6_6 1_555 1_555
C17_6 N47_6 1_555 1_555
N47_6 N45_6 1_555 1_555
C18_6 N46_6 1_555 1_555
N48_6 Zn6_6 1_555 1_555
N49_6 Zn6_6 1_555 1_555
N50_6 Zn1_6 1_555 1_555
C19_6 C20_6 1_555 1_555
N51_6 N57_6 1_555 1_555
C20_6 N48_6 1_555 1_555
C21_6 C17_6 1_555 1_555
N52_6 C22_6 1_555 1_555
C22_6 C18_6 1_555 1_555
N54_6 N52_6 1_555 1_555
N55_6 Zn6_6 1_555 1_555
N56_6 C21_6 1_555 1_555
N57_6 N55_6 1_555 1_555
N69_4 C19_6 1_555 1_555
N60_6 N49_6 1_555 1_555
N62_6 Zn4_6 1_555 1_555
C23_6 C24_6 1_555 1_555
N63_6 N65_6 1_555 1_555
C24_6 C20_6 1_555 1_555
N64_6 Zn4_6 1_555 1_555
N65_6 N64_6 1_555 1_555
N70_4 C23_6 1_555 1_555
N4_6 N6_6 1_555 1_555
N5_6 C6_6 1_555 1_555
C3_6 N11_6 1_555 1_555
N7_6 N67_3 1_555 1_555
N10_6 N16_6 1_555 1_555
N18_6 C8_6 1_555 1_555
N19_6 N71_3 1_555 1_555
N20_6 Zn6_6 1_555 1_555
C9_6 C10_6 1_555 1_555
N26_6 N28_6 1_555 1_555
N27_6 C14_6 1_555 1_555
N28_6 N40_6 1_555 1_555
C11_6 N33_6 1_555 1_555
N29_6 N68 1_555 1_555
N32_6 N38_6 1_555 1_555
N40_6 C16_6 1_555 1_555
C15_6 N42_6 1_555 1_555
N41_6 N72 1_555 1_555
N45_6 N46_6 1_555 1_555
C17_6 C18_6 1_555 1_555
N48_6 N50_6 1_555 1_555
N49_6 C22_6 1_555 1_555
N50_6 N62_6 1_555 1_555
C19_6 N55_6 1_555 1_555
N51_6 N69_4 1_555 1_555
N54_6 N60_6 1_555 1_555
N62_6 C24_6 1_555 1_555
C23_6 N64_6 1_555 1_555
N63_6 N70_4 1_555 1_555
N6_6 H1_6 1_555 1_555
N28_6 H2_6 1_555 1_555
N50_6 H3_6 1_555 1_555
N31_6 Zn9_3 1_555 1_555
N37_6 N31_6 1_555 1_555
N37_6 N39_6 1_555 1_555
Zn1_7 N1_7 1_555 1_555
Zn2_7 N2_7 1_555 1_555
N1_7 N2_7 1_555 1_555
N2_7 C2_7 1_555 1_555
C1_7 N3_7 1_555 1_555
N3_7 N1_7 1_555 1_555
C2_7 C1_7 1_555 1_555
N4_7 Zn2_7 1_555 1_555
N5_7 Zn2_7 1_555 1_555
N6_7 Zn1_7 1_555 1_555
C3_7 C4_7 1_555 1_555
N7_7 N13_7 1_555 1_555
C4_7 N4_7 1_555 1_555
C5_7 C1_7 1_555 1_555
N8_7 C6_7 1_555 1_555
C6_7 C2_7 1_555 1_555
N10_7 N8_7 1_555 1_555
N11_7 Zn2_7 1_555 1_555
N12_7 C5_7 1_555 1_555
N13_7 N11_7 1_555 1_555
N67_2 C3_7 1_555 1_555
N16_7 N5_7 1_555 1_555
N18_7 N6_7 1_555 1_555
C7_7 C8_7 1_555 1_555
N19_7 N21_7 1_555 1_555
C8_7 C4_7 1_555 1_555
N20_7 C7_7 1_555 1_555
N21_7 N20_7 1_555 1_555
N71_2 C7_7 1_555 1_555
Zn4_7 N24_7 1_555 1_555
N23_7 Zn1_7 1_555 1_555
N24_7 N23_7 1_555 1_555
C9_7 N25_7 1_555 1_555
N25_7 N23_7 1_555 1_555
C10_7 N24_7 1_555 1_555
N26_7 Zn4_7 1_555 1_555
N27_7 Zn4_7 1_555 1_555
N28_7 Zn1_7 1_555 1_555
C11_7 C12_7 1_555 1_555
N29_7 N35_7 1_555 1_555
C12_7 N26_7 1_555 1_555
C13_7 C9_7 1_555 1_555
N30_7 C14_7 1_555 1_555
C14_7 C10_7 1_555 1_555
N32_7 N30_7 1_555 1_555
N33_7 Zn4_7 1_555 1_555
N34_7 C13_7 1_555 1_555
N35_7 N33_7 1_555 1_555
N68_4 C11_7 1_555 1_555
N38_7 N27_7 1_555 1_555
N40_7 Zn2_7 1_555 1_555
C15_7 C16_7 1_555 1_555
N41_7 N43_7 1_555 1_555
C16_7 C12_7 1_555 1_555
N42_7 Zn2_7 1_555 1_555
N43_7 N42_7 1_555 1_555
N72_4 C15_7 1_555 1_555
Zn6_7 N18_7 1_555 1_555
N45_7 Zn1_7 1_555 1_555
N46_7 Zn6_7 1_555 1_555
C17_7 N47_7 1_555 1_555
N47_7 N45_7 1_555 1_555
C18_7 N46_7 1_555 1_555
N48_7 Zn6_7 1_555 1_555
N49_7 Zn6_7 1_555 1_555
N50_7 Zn1_7 1_555 1_555
C19_7 C20_7 1_555 1_555
N51_7 N57_7 1_555 1_555
C20_7 N48_7 1_555 1_555
C21_7 C17_7 1_555 1_555
N52_7 C22_7 1_555 1_555
C22_7 C18_7 1_555 1_555
N54_7 N52_7 1_555 1_555
N55_7 Zn6_7 1_555 1_555
N56_7 C21_7 1_555 1_555
N57_7 N55_7 1_555 1_555
N69 C19_7 1_555 1_555
N60_7 N49_7 1_555 1_555
N62_7 Zn4_7 1_555 1_555
C23_7 C24_7 1_555 1_555
N63_7 N65_7 1_555 1_555
C24_7 C20_7 1_555 1_555
N64_7 Zn4_7 1_555 1_555
N65_7 N64_7 1_555 1_555
N70 C23_7 1_555 1_555
N4_7 N6_7 1_555 1_555
N5_7 C6_7 1_555 1_555
C3_7 N11_7 1_555 1_555
N7_7 N67_2 1_555 1_555
N10_7 N16_7 1_555 1_555
N18_7 C8_7 1_555 1_555
N19_7 N71_2 1_555 1_555
N20_7 Zn6_7 1_555 1_555
C9_7 C10_7 1_555 1_555
N26_7 N28_7 1_555 1_555
N27_7 C14_7 1_555 1_555
N28_7 N40_7 1_555 1_555
C11_7 N33_7 1_555 1_555
N29_7 N68_4 1_555 1_555
N32_7 N38_7 1_555 1_555
N40_7 C16_7 1_555 1_555
C15_7 N42_7 1_555 1_555
N41_7 N72_4 1_555 1_555
N45_7 N46_7 1_555 1_555
C17_7 C18_7 1_555 1_555
N48_7 N50_7 1_555 1_555
N49_7 C22_7 1_555 1_555
N50_7 N62_7 1_555 1_555
C19_7 N55_7 1_555 1_555
N51_7 N69 1_555 1_555
N54_7 N60_7 1_555 1_555
N62_7 C24_7 1_555 1_555
C23_7 N64_7 1_555 1_555
N63_7 N70 1_555 1_555
N6_7 H1_7 1_555 1_555
N28_7 H2_7 1_555 1_555
N50_7 H3_7 1_555 1_555
N53_7 Zn10_4 1_555 1_555
N59_7 N53_7 1_555 1_555
N59_7 N61_7 1_555 1_555
N31_7 Zn9_2 1_555 1_555
N37_7 N31_7 1_555 1_555
N37_7 N39_7 1_555 1_555
N9_7 Zn8 1_555 1_555
N15_7 N9_7 1_555 1_555
N15_7 N17_7 1_555 1_555
N9_8 Zn8_2 1_555 1_555
N15_8 N9_8 1_555 1_555
N15_8 N17_8 1_555 1_555
N31_8 Zn9 1_555 1_555
N37_8 N31_8 1_555 1_555
N37_8 N39_8 1_555 1_555
Zn1_8 N1_8 1_555 1_555
Zn2_8 N2_8 1_555 1_555
N1_8 N2_8 1_555 1_555
N2_8 C2_8 1_555 1_555
C1_8 N3_8 1_555 1_555
N3_8 N1_8 1_555 1_555
C2_8 C1_8 1_555 1_555
N4_8 Zn2_8 1_555 1_555
N5_8 Zn2_8 1_555 1_555
N6_8 Zn1_8 1_555 1_555
C3_8 C4_8 1_555 1_555
N7_8 N13_8 1_555 1_555
C4_8 N4_8 1_555 1_555
C5_8 C1_8 1_555 1_555
N8_8 C6_8 1_555 1_555
C6_8 C2_8 1_555 1_555
N10_8 N8_8 1_555 1_555
N11_8 Zn2_8 1_555 1_555
N12_8 C5_8 1_555 1_555
N13_8 N11_8 1_555 1_555
N67 C3_8 1_555 1_555
N16_8 N5_8 1_555 1_555
N18_8 N6_8 1_555 1_555
C7_8 C8_8 1_555 1_555
N19_8 N21_8 1_555 1_555
C8_8 C4_8 1_555 1_555
N20_8 C7_8 1_555 1_555
N21_8 N20_8 1_555 1_555
N71 C7_8 1_555 1_555
Zn4_8 N24_8 1_555 1_555
N23_8 Zn1_8 1_555 1_555
N24_8 N23_8 1_555 1_555
C9_8 N25_8 1_555 1_555
N25_8 N23_8 1_555 1_555
C10_8 N24_8 1_555 1_555
N26_8 Zn4_8 1_555 1_555
N27_8 Zn4_8 1_555 1_555
N28_8 Zn1_8 1_555 1_555
C11_8 C12_8 1_555 1_555
N29_8 N35_8 1_555 1_555
C12_8 N26_8 1_555 1_555
C13_8 C9_8 1_555 1_555
N30_8 C14_8 1_555 1_555
C14_8 C10_8 1_555 1_555
N32_8 N30_8 1_555 1_555
N33_8 Zn4_8 1_555 1_555
N34_8 C13_8 1_555 1_555
N35_8 N33_8 1_555 1_555
N68_3 C11_8 1_555 1_555
N38_8 N27_8 1_555 1_555
N40_8 Zn2_8 1_555 1_555
C15_8 C16_8 1_555 1_555
N41_8 N43_8 1_555 1_555
C16_8 C12_8 1_555 1_555
N42_8 Zn2_8 1_555 1_555
N43_8 N42_8 1_555 1_555
N72_3 C15_8 1_555 1_555
Zn6_8 N18_8 1_555 1_555
N45_8 Zn1_8 1_555 1_555
N46_8 Zn6_8 1_555 1_555
C17_8 N47_8 1_555 1_555
N47_8 N45_8 1_555 1_555
C18_8 N46_8 1_555 1_555
N48_8 Zn6_8 1_555 1_555
N49_8 Zn6_8 1_555 1_555
N50_8 Zn1_8 1_555 1_555
C19_8 C20_8 1_555 1_555
N51_8 N57_8 1_555 1_555
C20_8 N48_8 1_555 1_555
C21_8 C17_8 1_555 1_555
N52_8 C22_8 1_555 1_555
C22_8 C18_8 1_555 1_555
N54_8 N52_8 1_555 1_555
N55_8 Zn6_8 1_555 1_555
N56_8 C21_8 1_555 1_555
N57_8 N55_8 1_555 1_555
N69_2 C19_8 1_555 1_555
N60_8 N49_8 1_555 1_555
N62_8 Zn4_8 1_555 1_555
C23_8 C24_8 1_555 1_555
N63_8 N65_8 1_555 1_555
C24_8 C20_8 1_555 1_555
N64_8 Zn4_8 1_555 1_555
N65_8 N64_8 1_555 1_555
N70_2 C23_8 1_555 1_555
N4_8 N6_8 1_555 1_555
N5_8 C6_8 1_555 1_555
C3_8 N11_8 1_555 1_555
N7_8 N67 1_555 1_555
N10_8 N16_8 1_555 1_555
N18_8 C8_8 1_555 1_555
N19_8 N71 1_555 1_555
N20_8 Zn6_8 1_555 1_555
C9_8 C10_8 1_555 1_555
N26_8 N28_8 1_555 1_555
N27_8 C14_8 1_555 1_555
N28_8 N40_8 1_555 1_555
C11_8 N33_8 1_555 1_555
N29_8 N68_3 1_555 1_555
N32_8 N38_8 1_555 1_555
N40_8 C16_8 1_555 1_555
C15_8 N42_8 1_555 1_555
N41_8 N72_3 1_555 1_555
N45_8 N46_8 1_555 1_555
C17_8 C18_8 1_555 1_555
N48_8 N50_8 1_555 1_555
N49_8 C22_8 1_555 1_555
N50_8 N62_8 1_555 1_555
C19_8 N55_8 1_555 1_555
N51_8 N69_2 1_555 1_555
N54_8 N60_8 1_555 1_555
N62_8 C24_8 1_555 1_555
C23_8 N64_8 1_555 1_555
N63_8 N70_2 1_555 1_555
N6_8 H1_8 1_555 1_555
N28_8 H2_8 1_555 1_555
N50_8 H3_8 1_555 1_555
N53_8 Zn10_3 1_555 1_555
N59_8 N53_8 1_555 1_555
N59_8 N61_8 1_555 1_555

#END
