
###############################################################################
#
# This file contains modified crystal structure data generated from the
# MOF subset of the Cambridge Structural Database (CSD) v543 
# hosted by the Cambridge Crystallographic Data Centre (CCDC).
#
# This work is licensed under the Creative Commons
# Attribution-NonCommercial-ShareAlike 4.0 International License.
# To view a copy of this license, visit
# http://creativecommons.org/licenses/by-nc-sa/4.0/
# or send a letter to
# Creative Commons, PO Box 1866, Mountain View, CA 94042, USA.
#
# CIF created using the CSD Python API on 29 September 2022
# The structure has been converted into the P1 space group
# The structure has a 3D framework
# The original CSD entry YODKAG is in the monoclinic crystal system
# The framework has been calculated to contain at least 10.0% void space
# The void calculation uses a probe of radius 1.32A, grid spacing 0.4
# The framework is charged, counterions have been retained in the structure
#
###############################################################################

data_YODKAG
_chemical_formula_moiety         '(C152 H120 In6 N16 O72)n'
_symmetry_cell_setting           triclinic
_symmetry_space_group_name_H-M   'P 1'
_symmetry_Int_Tables_number      1
_space_group_name_Hall           'P 1'
loop_
_symmetry_equiv_pos_site_id
_symmetry_equiv_pos_as_xyz
1 x,y,z
_cell_length_a                   9.957(2)
_cell_length_b                   24.444(2)
_cell_length_c                   35.537(2)
_cell_angle_alpha                90
_cell_angle_beta                 90.337(3)
_cell_angle_gamma                90
_cell_volume                     8649.16
loop_
_atom_site_label
_atom_site_type_symbol
_atom_site_fract_x
_atom_site_fract_y
_atom_site_fract_z
C1 C 0.3523(3) 0.76783(14) 0.68666(9)
H1 H 0.331974 0.756157 0.711783
H2 H 0.305337 0.745061 0.668937
H3 H 0.324605 0.805161 0.683389
C2 C 0.5817(3) 0.76243(13) 0.71526(9)
H4 H 0.523795 0.761682 0.736752
H5 H 0.637071 0.794558 0.716266
H6 H 0.637630 0.730439 0.715331
N1 N 0.4990(3) 0.76339(12) 0.68028(7)
H7 H 0.525094 0.791540 0.666218
H8 H 0.515033 0.732947 0.667315
C1_2 C 0.6477(3) 0.26783(14) 0.81334(9)
H1_2 H 0.668026 0.256157 0.788217
H2_2 H 0.694663 0.245061 0.831063
H3_2 H 0.675395 0.305161 0.816611
C2_2 C 0.4183(3) 0.26243(13) 0.78474(9)
H4_2 H 0.476205 0.261682 0.763248
H5_2 H 0.362929 0.294558 0.783734
H6_2 H 0.362370 0.230439 0.784669
N1_2 N 0.5010(3) 0.26339(12) 0.81972(7)
H7_2 H 0.474906 0.291540 0.833782
H8_2 H 0.484967 0.232947 0.832685
C1_3 C 0.6477(3) 0.23217(14) 0.31334(9)
H1_3 H 0.668026 0.243843 0.288217
H2_3 H 0.694663 0.254939 0.331063
H3_3 H 0.675395 0.194839 0.316611
C2_3 C 0.4183(3) 0.23757(13) 0.28474(9)
H4_3 H 0.476205 0.238318 0.263248
H5_3 H 0.362929 0.205442 0.283734
H6_3 H 0.362370 0.269561 0.284669
N1_3 N 0.5010(3) 0.23661(12) 0.31972(7)
H7_3 H 0.474906 0.208460 0.333782
H8_3 H 0.484967 0.267053 0.332685
C1_4 C 0.3523(3) 0.73217(14) 0.18666(9)
H1_4 H 0.331974 0.743843 0.211783
H2_4 H 0.305337 0.754939 0.168937
H3_4 H 0.324605 0.694839 0.183389
C2_4 C 0.5817(3) 0.73757(13) 0.21526(9)
H4_4 H 0.523795 0.738318 0.236752
H5_4 H 0.637071 0.705442 0.216266
H6_4 H 0.637630 0.769561 0.215331
N1_4 N 0.4990(3) 0.73661(12) 0.18028(7)
H7_4 H 0.525094 0.708460 0.166218
H8_4 H 0.515033 0.767053 0.167315
C3 C 0.3182(3) 0.06697(14) 0.75021(8)
H9 H 0.367624 0.100422 0.747391
H10 H 0.243791 0.072903 0.766781
H11 H 0.285340 0.055243 0.726071
C4 C 0.5515(3) 0.03206(13) 0.75835(8)
H12 H 0.561551 0.049910 0.734466
H14 H 0.591218 0.054222 0.777736
N2 N 0.4074(3) 0.02427(11) 0.76624(7)
H15 H 0.396194 0.023423 0.791062
H13 H 0.595422 0.997116 0.757701
H16 H 0.382112 0.991908 0.757164
C3_2 C 0.6818(3) 0.56697(14) 0.74979(8)
H9_2 H 0.632376 0.600422 0.752609
H10_2 H 0.756209 0.572903 0.733219
H11_2 H 0.714660 0.555243 0.773929
C4_2 C 0.4485(3) 0.53206(13) 0.74165(8)
H12_2 H 0.438449 0.549910 0.765534
H13_2 H 0.404578 0.497116 0.742299
H14_2 H 0.408782 0.554222 0.722264
N2_2 N 0.5926(3) 0.52427(11) 0.73376(7)
H15_2 H 0.603806 0.523423 0.708938
H16_2 H 0.617888 0.491908 0.742836
H13_3 H 0.404578 0.002884 0.242299
H16_3 H 0.617888 0.008092 0.242836
C3_3 C 0.6818(3) 0.93303(14) 0.24979(8)
H9_3 H 0.632376 0.899578 0.252609
H10_3 H 0.756209 0.927097 0.233219
H11_3 H 0.714660 0.944757 0.273929
C4_3 C 0.4485(3) 0.96794(13) 0.24165(8)
H12_3 H 0.438449 0.950090 0.265534
H14_3 H 0.408782 0.945778 0.222264
N2_3 N 0.5926(3) 0.97573(11) 0.23376(7)
H15_3 H 0.603806 0.976577 0.208938
C3_4 C 0.3182(3) 0.43303(14) 0.25021(8)
H9_4 H 0.367624 0.399578 0.247391
H10_4 H 0.243791 0.427097 0.266781
H11_4 H 0.285340 0.444757 0.226071
C4_4 C 0.5515(3) 0.46794(13) 0.25835(8)
H12_4 H 0.561551 0.450090 0.234466
H13_4 H 0.595422 0.502884 0.257701
H14_4 H 0.591218 0.445778 0.277736
N2_4 N 0.4074(3) 0.47573(11) 0.26624(7)
H15_4 H 0.396194 0.476577 0.291062
H16_4 H 0.382112 0.508092 0.257164
C5 C 0.0366(3) 0.25359(13) 0.36709(8)
C6 C 0.0560(3) 0.24920(12) 0.40579(8)
H17 H 0.079518 0.215736 0.416381
C7 C 0.0399(3) 0.29537(12) 0.42879(6)
C8 C 0.0051(3) 0.34480(12) 0.41212(8)
C10 C 0.0024(3) 0.30273(12) 0.35138(8)
C12 C 0.0093(3) 0.50034(13) 0.35536(8)
C13 C 0.0006(3) 0.54101(12) 0.38218(8)
H20 H 0.010169 0.532457 0.407553
C17 C 0.0020(3) 0.51314(12) 0.31743(8)
H22 H 0.016643 0.486188 0.299441
C18 C 0.0290(3) 0.20280(11) 0.34373(7)
C19 C 0.0488(3) 0.29446(11) 0.47100(6)
In1 In 0.04207(2) 0.11068(2) 0.30557(2)
In2 In 0.04598(2) 0.29054(2) 0.54390(2)
N3 N 0.0388(3) 0.44414(10) 0.36722(7)
H29 H 0.106756 0.437106 0.381452
O1 O 0.0329(2) 0.20347(8) 0.30902(6)
O2 O 0.0503(2) 0.15665(8) 0.35941(5)
O3 O 0.0426(2) 0.24867(8) 0.48745(5)
O4 O 0.0540(2) 0.33646(8) 0.49037(5)
O19 O 0.0433(2) 0.37468(8) 0.56619(5)
O20 O 0.0374(2) 0.31182(8) 0.60868(5)
O21 O 0.0409(2) 0.12851(8) 0.24532(5)
O22 O 0.0300(2) 0.03992(8) 0.25751(5)
O23 O 0.2924(2) 0.29658(8) 0.53511(6)
O24 O 0.1907(2) 0.22527(8) 0.56323(5)
O27 O 0.29804(19) 0.12015(8) 0.30364(6)
O28 O 0.1933(2) 0.05619(8) 0.33907(5)
H18 H 0.994167 0.375686 0.427075
C9 C 0.9863(3) 0.34885(12) 0.37343(8)
H19 H 0.989910 0.305195 0.325481
C11 C 0.9480(3) 0.39942(12) 0.35404(8)
C14 C 0.9772(3) 0.59548(12) 0.37103(8)
C15 C 0.9561(3) 0.60671(12) 0.33297(8)
H21 H 0.930623 0.641677 0.325476
C16 C 0.9729(3) 0.56613(13) 0.30638(8)
C20 C 0.9587(3) 0.63910(12) 0.39935(8)
C21 C 0.9708(3) 0.57886(12) 0.26458(7)
C22 C 0.6662(3) 0.23532(12) 0.56174(8)
C23 C 0.5405(3) 0.25639(12) 0.55238(8)
H23 H 0.533964 0.290359 0.540724
C24 C 0.4246(3) 0.22686(12) 0.56038(8)
C25 C 0.4346(3) 0.17618(12) 0.57781(8)
H24 H 0.357266 0.156386 0.583220
C26 C 0.5597(3) 0.15501(12) 0.58718(8)
C27 C 0.6748(3) 0.18494(12) 0.57891(8)
H25 H 0.758707 0.170702 0.585073
C28 C 0.5706(3) 0.10307(12) 0.60844(8)
C29 C 0.4547(3) 0.02042(12) 0.64470(8)
H26 H 0.252384 0.015564 0.649629
H28 H 0.655835 0.008795 0.646253
C35 C 0.7933(3) 0.26280(12) 0.55446(8)
C36 C 0.2888(3) 0.25161(12) 0.55298(8)
N4 N 0.4582(2) 0.07435(10) 0.62648(7)
H30 H 0.383191 0.091782 0.626342
O5 O 0.8543(2) 0.40323(9) 0.33149(6)
O6 O 0.9567(2) 0.62532(8) 0.43381(5)
O7 O 0.9626(2) 0.68818(8) 0.39132(5)
O8 O 0.9591(2) 0.62851(8) 0.25468(5)
O9 O 0.9700(2) 0.53992(8) 0.24249(5)
O10 O 0.8515(2) 0.25371(9) 0.52462(6)
O11 O 0.8584(2) 0.29140(9) 0.57818(6)
O14 O 0.6879(2) 0.08534(9) 0.61344(6)
In3 In 0.95793(2) 0.61068(2) 0.19443(2)
In7 In 0.95402(2) 0.70946(2) 0.45610(2)
O25 O 0.8983(2) 0.04115(8) 0.32602(5)
O26 O 0.8427(2) 0.11384(8) 0.30392(5)
C30 C 0.3322(3) 0.99705(12) 0.65455(8)
C31 C 0.3295(3) 0.94583(12) 0.67179(8)
C32 C 0.4483(3) 0.91886(12) 0.67971(8)
H27 H 0.446318 0.884778 0.691333
C33 C 0.5713(3) 0.94260(12) 0.67033(8)
C34 C 0.5741(3) 0.99310(12) 0.65273(8)
C37 C 0.1882(3) 0.92944(12) 0.68165(8)
C38 C 0.7085(3) 0.92223(12) 0.67625(8)
O15 O 0.1017(2) 0.95885(8) 0.67398(5)
O16 O 0.1573(2) 0.88616(8) 0.69608(5)
O17 O 0.70196(19) 0.87985(8) 0.69636(6)
O18 O 0.8067(2) 0.94381(8) 0.66093(5)
In5 In 0.95793(2) 0.88932(2) 0.69443(2)
In4 In 0.04207(2) 0.38932(2) 0.80557(2)
C14_2 C 0.0228(3) 0.09548(12) 0.12897(8)
C15_2 C 0.0439(3) 0.10671(12) 0.16703(8)
H21_2 H 0.069377 0.141677 0.174524
C16_2 C 0.0271(3) 0.06613(13) 0.19362(8)
C20_2 C 0.0413(3) 0.13910(12) 0.10065(8)
C21_2 C 0.0292(3) 0.07886(12) 0.23542(7)
O6_2 O 0.0433(2) 0.12532(8) 0.06619(5)
O7_2 O 0.0374(2) 0.18818(8) 0.10868(5)
In7_2 In 0.04598(2) 0.20946(2) 0.04390(2)
H18_2 H 0.005833 0.875686 0.072925
C9_2 C 0.0137(3) 0.84885(12) 0.12657(8)
H19_2 H 0.010090 0.805195 0.174519
C11_2 C 0.0520(3) 0.89942(12) 0.14596(8)
O5_2 O 0.1457(2) 0.90323(9) 0.16851(6)
O25_2 O 0.1017(2) 0.54115(8) 0.17398(5)
O26_2 O 0.1573(2) 0.61384(8) 0.19608(5)
C22_2 C 0.3338(3) 0.73532(12) 0.93826(8)
C23_2 C 0.4595(3) 0.75639(12) 0.94762(8)
H23_2 H 0.466036 0.790359 0.959276
C24_2 C 0.5754(3) 0.72686(12) 0.93962(8)
C25_2 C 0.5654(3) 0.67618(12) 0.92219(8)
H24_2 H 0.642734 0.656386 0.916780
C26_2 C 0.4403(3) 0.65501(12) 0.91282(8)
C27_2 C 0.3252(3) 0.68494(12) 0.92109(8)
H25_2 H 0.241293 0.670702 0.914927
C28_2 C 0.4294(3) 0.60307(12) 0.89156(8)
C29_2 C 0.5453(3) 0.52042(12) 0.85530(8)
C30_2 C 0.6678(3) 0.49705(12) 0.84545(8)
H26_2 H 0.747616 0.515564 0.850371
C31_2 C 0.6705(3) 0.44583(12) 0.82821(8)
C32_2 C 0.5517(3) 0.41886(12) 0.82029(8)
H27_2 H 0.553682 0.384778 0.808667
C33_2 C 0.4287(3) 0.44260(12) 0.82967(8)
C34_2 C 0.4259(3) 0.49310(12) 0.84727(8)
H28_2 H 0.344165 0.508795 0.853747
C35_2 C 0.2067(3) 0.76280(12) 0.94554(8)
C36_2 C 0.7112(3) 0.75161(12) 0.94702(8)
C37_2 C 0.8118(3) 0.42944(12) 0.81835(8)
C38_2 C 0.2915(3) 0.42223(12) 0.82375(8)
N4_2 N 0.5418(2) 0.57435(10) 0.87352(7)
H30_2 H 0.616809 0.591782 0.873658
O10_2 O 0.1485(2) 0.75371(9) 0.97538(6)
O11_2 O 0.1416(2) 0.79140(9) 0.92182(6)
O12 O 0.7076(2) 0.79658(8) 0.96489(6)
O13 O 0.8093(2) 0.72527(8) 0.93677(5)
O14_2 O 0.3121(2) 0.58534(9) 0.88656(6)
O15_2 O 0.8983(2) 0.45885(8) 0.82602(5)
O16_2 O 0.8427(2) 0.38616(8) 0.80392(5)
O17_2 O 0.29804(19) 0.37985(8) 0.80364(6)
O18_2 O 0.1933(2) 0.44381(8) 0.83907(5)
In6 In 0.95402(2) 0.79054(2) 0.95610(2)
C5_2 C 0.9634(3) 0.75359(13) 0.13291(8)
C6_2 C 0.9440(3) 0.74920(12) 0.09421(8)
H17_2 H 0.920482 0.715736 0.083619
C7_2 C 0.9601(3) 0.79537(12) 0.07121(6)
C8_2 C 0.9949(3) 0.84480(12) 0.08788(8)
C10_2 C 0.9976(3) 0.80273(12) 0.14862(8)
H22_2 H 0.983357 0.986188 0.200559
C18_2 C 0.9710(3) 0.70280(11) 0.15627(7)
C19_2 C 0.9512(3) 0.79446(11) 0.02900(6)
N3_2 N 0.9612(3) 0.94414(10) 0.13278(7)
H29_2 H 0.893244 0.937106 0.118548
O1_2 O 0.9671(2) 0.70347(8) 0.19098(6)
O2_2 O 0.9497(2) 0.65665(8) 0.14059(5)
O3_2 O 0.9574(2) 0.74867(8) 0.01255(5)
O4_2 O 0.9460(2) 0.83646(8) 0.00963(5)
O27_2 O 0.70196(19) 0.62015(8) 0.19636(6)
O28_2 O 0.8067(2) 0.55619(8) 0.16093(5)
O19_2 O 0.9567(2) 0.87468(8) 0.93381(5)
O20_2 O 0.9626(2) 0.81182(8) 0.89132(5)
C30_3 C 0.6678(3) 0.00295(12) 0.34545(8)
C31_3 C 0.6705(3) 0.05417(12) 0.32821(8)
C32_3 C 0.5517(3) 0.08114(12) 0.32029(8)
H27_3 H 0.553682 0.115222 0.308667
C33_3 C 0.4287(3) 0.05740(12) 0.32967(8)
C34_3 C 0.4259(3) 0.00690(12) 0.34727(8)
C37_3 C 0.8118(3) 0.07056(12) 0.31835(8)
C38_3 C 0.2915(3) 0.07777(12) 0.32375(8)
H18_3 H 0.005833 0.624314 0.572925
C9_3 C 0.0137(3) 0.65115(12) 0.62657(8)
H19_3 H 0.010090 0.694805 0.674519
C11_3 C 0.0520(3) 0.60058(12) 0.64596(8)
C14_3 C 0.0228(3) 0.40452(12) 0.62897(8)
C15_3 C 0.0439(3) 0.39329(12) 0.66703(8)
H21_3 H 0.069377 0.358323 0.674524
C16_3 C 0.0271(3) 0.43387(13) 0.69362(8)
C20_3 C 0.0413(3) 0.36090(12) 0.60065(8)
C21_3 C 0.0292(3) 0.42114(12) 0.73542(7)
C22_3 C 0.3338(3) 0.76468(12) 0.43826(8)
C23_3 C 0.4595(3) 0.74361(12) 0.44762(8)
H23_3 H 0.466036 0.709641 0.459276
C24_3 C 0.5754(3) 0.77314(12) 0.43962(8)
C25_3 C 0.5654(3) 0.82382(12) 0.42219(8)
H24_3 H 0.642734 0.843614 0.416780
C26_3 C 0.4403(3) 0.84499(12) 0.41282(8)
C27_3 C 0.3252(3) 0.81506(12) 0.42109(8)
H25_3 H 0.241293 0.829298 0.414927
C28_3 C 0.4294(3) 0.89693(12) 0.39156(8)
C29_3 C 0.5453(3) 0.97958(12) 0.35530(8)
H26_3 H 0.747616 0.984436 0.350371
H28_3 H 0.344165 0.991205 0.353747
C35_3 C 0.2067(3) 0.73720(12) 0.44554(8)
C36_3 C 0.7112(3) 0.74839(12) 0.44702(8)
N4_3 N 0.5418(2) 0.92565(10) 0.37352(7)
H30_3 H 0.616809 0.908218 0.373658
O5_3 O 0.1457(2) 0.59677(9) 0.66851(6)
O8_2 O 0.0409(2) 0.37149(8) 0.74532(5)
O9_2 O 0.0300(2) 0.46008(8) 0.75751(5)
O10_3 O 0.1485(2) 0.74629(9) 0.47538(6)
O11_3 O 0.1416(2) 0.70860(9) 0.42182(6)
O12_2 O 0.7076(2) 0.70342(8) 0.46489(6)
O13_2 O 0.8093(2) 0.77473(8) 0.43677(5)
O14_3 O 0.3121(2) 0.91466(9) 0.38656(6)
C5_3 C 0.9634(3) 0.74641(13) 0.63291(8)
C6_3 C 0.9440(3) 0.75080(12) 0.59421(8)
H17_3 H 0.920482 0.784264 0.583619
C7_3 C 0.9601(3) 0.70463(12) 0.57121(6)
C8_3 C 0.9949(3) 0.65520(12) 0.58788(8)
C10_3 C 0.9976(3) 0.69727(12) 0.64862(8)
C12_2 C 0.9907(3) 0.49966(13) 0.64464(8)
C13_2 C 0.9994(3) 0.45899(12) 0.61782(8)
H20_2 H 0.989831 0.467543 0.592447
C17_2 C 0.9980(3) 0.48686(12) 0.68257(8)
H22_3 H 0.983357 0.513812 0.700559
C18_3 C 0.9710(3) 0.79720(11) 0.65627(7)
C19_3 C 0.9512(3) 0.70554(11) 0.52900(6)
N3_3 N 0.9612(3) 0.55586(10) 0.63278(7)
H29_3 H 0.893244 0.562894 0.618548
O1_3 O 0.9671(2) 0.79653(8) 0.69098(6)
O2_3 O 0.9497(2) 0.84335(8) 0.64059(5)
O3_3 O 0.9574(2) 0.75133(8) 0.51255(5)
O4_3 O 0.9460(2) 0.66354(8) 0.50963(5)
O21_2 O 0.9591(2) 0.87149(8) 0.75468(5)
O22_2 O 0.9700(2) 0.96008(8) 0.74249(5)
O23_2 O 0.2924(2) 0.20342(8) 0.03511(6)
O24_2 O 0.1907(2) 0.27473(8) 0.06323(5)
C5_4 C 0.0366(3) 0.24641(13) 0.86709(8)
C6_4 C 0.0560(3) 0.25080(12) 0.90579(8)
H17_4 H 0.079518 0.284264 0.916381
C7_4 C 0.0399(3) 0.20463(12) 0.92879(6)
C8_4 C 0.0051(3) 0.15520(12) 0.91212(8)
C10_4 C 0.0024(3) 0.19727(12) 0.85138(8)
H22_4 H 0.016643 0.013812 0.799441
C18_4 C 0.0290(3) 0.29720(11) 0.84373(7)
C19_4 C 0.0488(3) 0.20554(11) 0.97100(6)
N3_4 N 0.0388(3) 0.05586(10) 0.86722(7)
H29_4 H 0.106756 0.062894 0.881452
O1_4 O 0.0329(2) 0.29653(8) 0.80902(6)
O2_4 O 0.0503(2) 0.34335(8) 0.85941(5)
O3_4 O 0.0426(2) 0.25133(8) 0.98745(5)
O4_4 O 0.0540(2) 0.16354(8) 0.99037(5)
C22_4 C 0.6662(3) 0.26468(12) 0.06174(8)
C23_4 C 0.5405(3) 0.24361(12) 0.05238(8)
H23_4 H 0.533964 0.209641 0.040724
C24_4 C 0.4246(3) 0.27314(12) 0.06038(8)
C25_4 C 0.4346(3) 0.32382(12) 0.07781(8)
H24_4 H 0.357266 0.343614 0.083220
C26_4 C 0.5597(3) 0.34499(12) 0.08718(8)
C27_4 C 0.6748(3) 0.31506(12) 0.07891(8)
H25_4 H 0.758707 0.329298 0.085073
C28_4 C 0.5706(3) 0.39693(12) 0.10844(8)
C29_4 C 0.4547(3) 0.47958(12) 0.14470(8)
C30_4 C 0.3322(3) 0.50295(12) 0.15455(8)
H26_4 H 0.252384 0.484436 0.149629
C31_4 C 0.3295(3) 0.55417(12) 0.17179(8)
C32_4 C 0.4483(3) 0.58114(12) 0.17971(8)
H27_4 H 0.446318 0.615222 0.191333
C33_4 C 0.5713(3) 0.55740(12) 0.17033(8)
C34_4 C 0.5741(3) 0.50690(12) 0.15273(8)
H28_4 H 0.655835 0.491205 0.146253
C35_4 C 0.7933(3) 0.23720(12) 0.05446(8)
C36_4 C 0.2888(3) 0.24839(12) 0.05298(8)
C37_4 C 0.1882(3) 0.57056(12) 0.18165(8)
C38_4 C 0.7085(3) 0.57777(12) 0.17625(8)
N4_4 N 0.4582(2) 0.42565(10) 0.12648(7)
H30_4 H 0.383191 0.408218 0.126342
O10_4 O 0.8515(2) 0.24629(9) 0.02462(6)
O11_4 O 0.8584(2) 0.20860(9) 0.07818(6)
O14_4 O 0.6879(2) 0.41466(9) 0.11344(6)
H18_4 H 0.994167 0.124314 0.927075
C9_4 C 0.9863(3) 0.15115(12) 0.87343(8)
H19_4 H 0.989910 0.194805 0.825481
C11_4 C 0.9480(3) 0.10058(12) 0.85404(8)
O5_4 O 0.8543(2) 0.09677(9) 0.83149(6)
C14_4 C 0.9772(3) 0.90452(12) 0.87103(8)
C15_4 C 0.9561(3) 0.89329(12) 0.83297(8)
H21_4 H 0.930623 0.858323 0.825476
C16_4 C 0.9729(3) 0.93387(13) 0.80638(8)
C20_4 C 0.9587(3) 0.86090(12) 0.89935(8)
C21_4 C 0.9708(3) 0.92114(12) 0.76458(7)
C12_3 C 0.9907(3) 0.00034(13) 0.14464(8)
C13_3 C 0.9994(3) 0.04101(12) 0.11782(8)
H20_3 H 0.989831 0.032457 0.092447
C17_3 C 0.9980(3) 0.01314(12) 0.18257(8)
C12_4 C 0.0093(3) 0.99966(13) 0.85536(8)
C13_4 C 0.0006(3) 0.95899(12) 0.88218(8)
H20_4 H 0.010169 0.967543 0.907553
C17_4 C 0.0020(3) 0.98686(12) 0.81743(8)
loop_
_geom_bond_atom_site_label_1
_geom_bond_atom_site_label_2
_geom_bond_site_symmetry_1
_geom_bond_site_symmetry_2
C1 H1 1_555 1_555
H2 C1 1_555 1_555
H3 C1 1_555 1_555
C2 H4 1_555 1_555
H5 C2 1_555 1_555
H6 C2 1_555 1_555
N1 C1 1_555 1_555
H7 N1 1_555 1_555
H8 N1 1_555 1_555
C2 N1 1_555 1_555
C1_2 H1_2 1_555 1_555
H2_2 C1_2 1_555 1_555
H3_2 C1_2 1_555 1_555
C2_2 H4_2 1_555 1_555
H5_2 C2_2 1_555 1_555
H6_2 C2_2 1_555 1_555
N1_2 C1_2 1_555 1_555
H7_2 N1_2 1_555 1_555
H8_2 N1_2 1_555 1_555
C2_2 N1_2 1_555 1_555
C1_3 H1_3 1_555 1_555
H2_3 C1_3 1_555 1_555
H3_3 C1_3 1_555 1_555
C2_3 H4_3 1_555 1_555
H5_3 C2_3 1_555 1_555
H6_3 C2_3 1_555 1_555
N1_3 C1_3 1_555 1_555
H7_3 N1_3 1_555 1_555
H8_3 N1_3 1_555 1_555
C2_3 N1_3 1_555 1_555
C1_4 H1_4 1_555 1_555
H2_4 C1_4 1_555 1_555
H3_4 C1_4 1_555 1_555
C2_4 H4_4 1_555 1_555
H5_4 C2_4 1_555 1_555
H6_4 C2_4 1_555 1_555
N1_4 C1_4 1_555 1_555
H7_4 N1_4 1_555 1_555
H8_4 N1_4 1_555 1_555
C2_4 N1_4 1_555 1_555
C3 H9 1_555 1_555
H10 C3 1_555 1_555
H11 C3 1_555 1_555
C4 H12 1_555 1_555
H14 C4 1_555 1_555
N2 C3 1_555 1_555
H15 N2 1_555 1_555
C4 N2 1_555 1_555
C3_2 H9_2 1_555 1_555
H10_2 C3_2 1_555 1_555
H11_2 C3_2 1_555 1_555
C4_2 H12_2 1_555 1_555
H13_2 C4_2 1_555 1_555
H14_2 C4_2 1_555 1_555
N2_2 C3_2 1_555 1_555
H15_2 N2_2 1_555 1_555
H16_2 N2_2 1_555 1_555
C4_2 N2_2 1_555 1_555
C3_3 H9_3 1_555 1_555
H10_3 C3_3 1_555 1_555
H11_3 C3_3 1_555 1_555
C4_3 H12_3 1_555 1_555
H14_3 C4_3 1_555 1_555
N2_3 C3_3 1_555 1_555
H15_3 N2_3 1_555 1_555
C4_3 N2_3 1_555 1_555
C3_4 H9_4 1_555 1_555
H10_4 C3_4 1_555 1_555
H11_4 C3_4 1_555 1_555
C4_4 H12_4 1_555 1_555
H13_4 C4_4 1_555 1_555
H14_4 C4_4 1_555 1_555
N2_4 C3_4 1_555 1_555
H15_4 N2_4 1_555 1_555
H16_4 N2_4 1_555 1_555
C4_4 N2_4 1_555 1_555
C5 C6 1_555 1_555
C6 H17 1_555 1_555
C7 C6 1_555 1_555
C8 C7 1_555 1_555
C10 C5 1_555 1_555
C12 C13 1_555 1_555
C13 H20 1_555 1_555
C17 C12 1_555 1_555
H22 C17 1_555 1_555
C18 C5 1_555 1_555
C19 C7 1_555 1_555
In1 O1 1_555 1_555
In2 O3 1_555 1_555
H29 N3 1_555 1_555
O1 C18 1_555 1_555
O2 C18 1_555 1_555
O3 C19 1_555 1_555
O4 C19 1_555 1_555
O19 In2 1_555 1_555
O20 In2 1_555 1_555
O21 In1 1_555 1_555
O22 In1 1_555 1_555
O23 In2 1_555 1_555
O24 In2 1_555 1_555
O27 In1 1_555 1_555
O28 In1 1_555 1_555
C12 N3 1_555 1_555
In1 O2 1_555 1_555
In2 O4 1_555 1_555
C11 C9 1_555 1_555
C15 C14 1_555 1_555
H21 C15 1_555 1_555
C16 C15 1_555 1_555
C20 C14 1_555 1_555
C21 C16 1_555 1_555
C22 C23 1_555 1_555
C23 H23 1_555 1_555
C24 C23 1_555 1_555
C25 C24 1_555 1_555
H24 C25 1_555 1_555
C26 C25 1_555 1_555
C27 C22 1_555 1_555
H25 C27 1_555 1_555
C28 C26 1_555 1_555
C35 C22 1_555 1_555
C36 C24 1_555 1_555
N4 C28 1_555 1_555
H30 N4 1_555 1_555
O5 C11 1_555 1_555
O6 C20 1_555 1_555
O7 C20 1_555 1_555
O8 C21 1_555 1_555
O9 C21 1_555 1_555
O10 C35 1_555 1_555
O11 C35 1_555 1_555
O23 C36 1_555 1_555
O24 C36 1_555 1_555
O14 C28 1_555 1_555
In3 O8 1_555 1_555
In7 O6 1_555 1_555
C26 C27 1_555 1_555
C29 N4 1_555 1_555
O7 In7 1_555 1_555
O9 In3 1_555 1_555
C31 C30 1_555 1_555
C32 C31 1_555 1_555
H27 C32 1_555 1_555
C33 C32 1_555 1_555
C37 C31 1_555 1_555
C38 C33 1_555 1_555
O15 C37 1_555 1_555
O16 C37 1_555 1_555
O17 C38 1_555 1_555
O18 C38 1_555 1_555
In5 O17 1_555 1_555
C33 C34 1_555 1_555
O18 In5 1_555 1_555
C15_2 C14_2 1_555 1_555
H21_2 C15_2 1_555 1_555
C16_2 C15_2 1_555 1_555
C20_2 C14_2 1_555 1_555
C21_2 C16_2 1_555 1_555
O6_2 C20_2 1_555 1_555
O7_2 C20_2 1_555 1_555
O21 C21_2 1_555 1_555
O22 C21_2 1_555 1_555
In7_2 O6_2 1_555 1_555
O7_2 In7_2 1_555 1_555
C11_2 C9_2 1_555 1_555
O5_2 C11_2 1_555 1_555
C22_2 C23_2 1_555 1_555
C23_2 H23_2 1_555 1_555
C24_2 C23_2 1_555 1_555
C25_2 C24_2 1_555 1_555
H24_2 C25_2 1_555 1_555
C26_2 C25_2 1_555 1_555
C27_2 C22_2 1_555 1_555
H25_2 C27_2 1_555 1_555
C28_2 C26_2 1_555 1_555
C29_2 C30_2 1_555 1_555
C30_2 H26_2 1_555 1_555
C31_2 C30_2 1_555 1_555
C32_2 C31_2 1_555 1_555
H27_2 C32_2 1_555 1_555
C33_2 C32_2 1_555 1_555
C34_2 C29_2 1_555 1_555
H28_2 C34_2 1_555 1_555
C35_2 C22_2 1_555 1_555
C36_2 C24_2 1_555 1_555
C37_2 C31_2 1_555 1_555
C38_2 C33_2 1_555 1_555
N4_2 C28_2 1_555 1_555
H30_2 N4_2 1_555 1_555
O10_2 C35_2 1_555 1_555
O11_2 C35_2 1_555 1_555
O12 C36_2 1_555 1_555
O13 C36_2 1_555 1_555
O14_2 C28_2 1_555 1_555
O15_2 C37_2 1_555 1_555
O16_2 C37_2 1_555 1_555
O17_2 C38_2 1_555 1_555
O18_2 C38_2 1_555 1_555
In4 O17_2 1_555 1_555
In6 O12 1_555 1_555
C26_2 C27_2 1_555 1_555
C29_2 N4_2 1_555 1_555
C33_2 C34_2 1_555 1_555
O13 In6 1_555 1_555
O18_2 In4 1_555 1_555
C5_2 C6_2 1_555 1_555
C6_2 H17_2 1_555 1_555
C7_2 C6_2 1_555 1_555
C8_2 C7_2 1_555 1_555
C10_2 C5_2 1_555 1_555
C18_2 C5_2 1_555 1_555
C19_2 C7_2 1_555 1_555
In3 O1_2 1_555 1_555
H29_2 N3_2 1_555 1_555
O1_2 C18_2 1_555 1_555
O2_2 C18_2 1_555 1_555
O3_2 C19_2 1_555 1_555
O4_2 C19_2 1_555 1_555
O27_2 In3 1_555 1_555
O28_2 In3 1_555 1_555
In3 O2_2 1_555 1_555
O19_2 In6 1_555 1_555
O20_2 In6 1_555 1_555
C31_3 C30_3 1_555 1_555
C32_3 C31_3 1_555 1_555
H27_3 C32_3 1_555 1_555
C33_3 C32_3 1_555 1_555
C37_3 C31_3 1_555 1_555
C38_3 C33_3 1_555 1_555
O25 C37_3 1_555 1_555
O26 C37_3 1_555 1_555
O27 C38_3 1_555 1_555
O28 C38_3 1_555 1_555
C33_3 C34_3 1_555 1_555
C11_3 C9_3 1_555 1_555
C15_3 C14_3 1_555 1_555
H21_3 C15_3 1_555 1_555
C16_3 C15_3 1_555 1_555
C20_3 C14_3 1_555 1_555
C21_3 C16_3 1_555 1_555
C22_3 C23_3 1_555 1_555
C23_3 H23_3 1_555 1_555
C24_3 C23_3 1_555 1_555
C25_3 C24_3 1_555 1_555
H24_3 C25_3 1_555 1_555
C26_3 C25_3 1_555 1_555
C27_3 C22_3 1_555 1_555
H25_3 C27_3 1_555 1_555
C28_3 C26_3 1_555 1_555
C35_3 C22_3 1_555 1_555
C36_3 C24_3 1_555 1_555
N4_3 C28_3 1_555 1_555
H30_3 N4_3 1_555 1_555
O5_3 C11_3 1_555 1_555
O19 C20_3 1_555 1_555
O20 C20_3 1_555 1_555
O8_2 C21_3 1_555 1_555
O9_2 C21_3 1_555 1_555
O10_3 C35_3 1_555 1_555
O11_3 C35_3 1_555 1_555
O12_2 C36_3 1_555 1_555
O13_2 C36_3 1_555 1_555
O14_3 C28_3 1_555 1_555
In4 O8_2 1_555 1_555
In7 O12_2 1_555 1_555
C26_3 C27_3 1_555 1_555
C29_3 N4_3 1_555 1_555
O9_2 In4 1_555 1_555
O13_2 In7 1_555 1_555
C5_3 C6_3 1_555 1_555
C6_3 H17_3 1_555 1_555
C7_3 C6_3 1_555 1_555
C8_3 C7_3 1_555 1_555
C10_3 C5_3 1_555 1_555
C12_2 C13_2 1_555 1_555
C13_2 H20_2 1_555 1_555
C17_2 C12_2 1_555 1_555
H22_3 C17_2 1_555 1_555
C18_3 C5_3 1_555 1_555
C19_3 C7_3 1_555 1_555
In5 O1_3 1_555 1_555
In7 O3_3 1_555 1_555
H29_3 N3_3 1_555 1_555
O1_3 C18_3 1_555 1_555
O2_3 C18_3 1_555 1_555
O3_3 C19_3 1_555 1_555
O4_3 C19_3 1_555 1_555
O21_2 In5 1_555 1_555
O22_2 In5 1_555 1_555
C12_2 N3_3 1_555 1_555
In5 O2_3 1_555 1_555
In7 O4_3 1_555 1_555
O23_2 In7_2 1_555 1_555
O24_2 In7_2 1_555 1_555
C5_4 C6_4 1_555 1_555
C6_4 H17_4 1_555 1_555
C7_4 C6_4 1_555 1_555
C8_4 C7_4 1_555 1_555
C10_4 C5_4 1_555 1_555
C18_4 C5_4 1_555 1_555
C19_4 C7_4 1_555 1_555
In4 O1_4 1_555 1_555
H29_4 N3_4 1_555 1_555
O1_4 C18_4 1_555 1_555
O2_4 C18_4 1_555 1_555
O3_4 C19_4 1_555 1_555
O4_4 C19_4 1_555 1_555
In4 O2_4 1_555 1_555
C22_4 C23_4 1_555 1_555
C23_4 H23_4 1_555 1_555
C24_4 C23_4 1_555 1_555
C25_4 C24_4 1_555 1_555
H24_4 C25_4 1_555 1_555
C26_4 C25_4 1_555 1_555
C27_4 C22_4 1_555 1_555
H25_4 C27_4 1_555 1_555
C28_4 C26_4 1_555 1_555
C29_4 C30_4 1_555 1_555
C30_4 H26_4 1_555 1_555
C31_4 C30_4 1_555 1_555
C32_4 C31_4 1_555 1_555
H27_4 C32_4 1_555 1_555
C33_4 C32_4 1_555 1_555
C34_4 C29_4 1_555 1_555
H28_4 C34_4 1_555 1_555
C35_4 C22_4 1_555 1_555
C36_4 C24_4 1_555 1_555
C37_4 C31_4 1_555 1_555
C38_4 C33_4 1_555 1_555
N4_4 C28_4 1_555 1_555
H30_4 N4_4 1_555 1_555
O10_4 C35_4 1_555 1_555
O11_4 C35_4 1_555 1_555
O23_2 C36_4 1_555 1_555
O24_2 C36_4 1_555 1_555
O14_4 C28_4 1_555 1_555
O25_2 C37_4 1_555 1_555
O26_2 C37_4 1_555 1_555
O27_2 C38_4 1_555 1_555
O28_2 C38_4 1_555 1_555
C26_4 C27_4 1_555 1_555
C29_4 N4_4 1_555 1_555
C33_4 C34_4 1_555 1_555
C11_4 C9_4 1_555 1_555
O5_4 C11_4 1_555 1_555
C15_4 C14_4 1_555 1_555
H21_4 C15_4 1_555 1_555
C16_4 C15_4 1_555 1_555
C20_4 C14_4 1_555 1_555
C21_4 C16_4 1_555 1_555
O19_2 C20_4 1_555 1_555
O20_2 C20_4 1_555 1_555
O21_2 C21_4 1_555 1_555
O22_2 C21_4 1_555 1_555
C12_3 C13_3 1_555 1_555
C13_3 H20_3 1_555 1_555
C17_3 C12_3 1_555 1_555
C12_4 C13_4 1_555 1_555
C13_4 H20_4 1_555 1_555
C17_4 C12_4 1_555 1_555

#END
