
###############################################################################
#
# This file contains modified crystal structure data generated from the
# MOF subset of the Cambridge Structural Database (CSD) v543 
# hosted by the Cambridge Crystallographic Data Centre (CCDC).
#
# This work is licensed under the Creative Commons
# Attribution-NonCommercial-ShareAlike 4.0 International License.
# To view a copy of this license, visit
# http://creativecommons.org/licenses/by-nc-sa/4.0/
# or send a letter to
# Creative Commons, PO Box 1866, Mountain View, CA 94042, USA.
#
# CIF created using the CSD Python API on 29 September 2022
# The structure has been converted into the P1 space group
# The structure has a 3D framework
# The original CSD entry YODRAM is in the monoclinic crystal system
# The framework has been calculated to contain at least 10.0% void space
# The void calculation uses a probe of radius 1.32A, grid spacing 0.4
# H atom positions have been added when not included in the experimental data
# Generated hydrogen atom positions removed from atoms on special positions
#
###############################################################################

data_YODRAM
_chemical_formula_moiety         '(C228 H168 Co30 N38 O94)n'
_symmetry_cell_setting           triclinic
_symmetry_space_group_name_H-M   'P 1'
_symmetry_Int_Tables_number      1
_space_group_name_Hall           'P 1'
loop_
_symmetry_equiv_pos_site_id
_symmetry_equiv_pos_as_xyz
1 x,y,z
_cell_length_a                   31.3858(14)
_cell_length_b                   24.8618(13)
_cell_length_c                   13.1852(7)
_cell_angle_alpha                90
_cell_angle_beta                 112.774(5)
_cell_angle_gamma                90
_cell_volume                     9486.41
loop_
_atom_site_label
_atom_site_type_symbol
_atom_site_fract_x
_atom_site_fract_y
_atom_site_fract_z
Co1 Co -0.0000 0.0000 0.0000
O1 O 0.07201(14) 0.0000 0.0441(4)
C1 C 0.1128(2) 0.0000 0.1149(6)
O11 O 0.12297(17) 0.0000 0.2154(4)
C7 C 0.1512(2) 0.0000 0.0738(6)
C20 C 0.1969(3) 0.0000 0.1457(7)
H13 H 0.2051 0.0000 0.2214
C25 C 0.2306(2) 0.0000 0.0997(7)
H16 H 0.2614 -0.0000 0.1488
O41 O 0.13480(16) 0.4207(2) 0.0255(4)
Co14 Co 0.22433(3) 0.5000 0.06741(7)
N20 N 0.00212(12) 0.06324(18) 0.1167(3)
O49 O 0.31361(12) 0.05811(18) 0.0438(3)
Co1_2 Co -0.0000 0.0000 1.0000
Co2 Co 0.27567(3) 0.0000 0.93259(7)
Co3 Co 0.29254(3) 0.0000 0.67754(8)
O2 O 0.32578(13) 0.0000 0.8512(3)
N2 N 0.12405(12) 0.19624(17) 0.6254(3)
O6 O 0.24625(11) 0.05979(17) 0.6713(3)
O7 O 0.40981(12) 0.20980(16) 0.5287(3)
N4 N 0.22331(18) 0.0000 0.9991(5)
O8 O 0.26033(18) 0.0000 0.5049(4)
C3 C 0.19305(14) 0.1199(2) 0.6982(4)
O10 O 0.23869(12) 0.05968(19) 0.8311(3)
N5 N 0.33830(14) 0.0615(2) 0.6692(4)
C5 C 0.17780(17) 0.1392(2) 0.5924(4)
H1 H 0.1906 0.1269 0.5438
C6 C 0.22954(15) 0.0753(2) 0.7359(4)
C10 C 0.17349(17) 0.1403(2) 0.7668(4)
H4 H 0.1835 0.1285 0.8392
C13 C 0.14275(15) 0.1776(2) 0.5596(4)
H7 H 0.1322 0.1905 0.4879
C14 C 0.13909(16) 0.1782(2) 0.7286(4)
H8 H 0.1260 0.1917 0.7758
C15 C 0.1420(2) 0.0000 0.9632(6)
H9 H 0.1117 0.0000 0.9117
C21 C 0.3961(2) 0.1363(3) 0.6234(5)
C22 C 0.3215(3) 0.1002(4) 0.5943(7)
H14 H 0.2896 0.1015 0.5556
C26 C 0.1792(3) 0.0000 0.9299(7)
H17 H 0.1728 0.0000 0.8549
C27 C 0.3498(2) 0.1413(3) 0.5681(6)
H18 H 0.3367 0.1687 0.5174
C28 C 0.4263(2) 0.1749(4) 0.5901(6)
O13 O 0.46817(16) 0.1609(3) 0.6246(5)
C29 C 0.4134(3) 0.0996(4) 0.7065(7)
H19 H 0.4450 0.0961 0.7467
C30 C 0.3809(3) 0.0669(4) 0.7287(8)
H20 H 0.3920 0.0474 0.7940
O26 O 0.03732(10) 0.18872(15) 0.4363(3)
O27 O -0.0000 0.29144(19) 0.5000
C61 C 0.00117(15) 0.1812(2) 0.3554(4)
C63 C 0.00219(14) 0.1406(2) 0.2711(4)
C67 C 0.03839(17) 0.0709(3) 0.2131(4)
H43 H 0.0643 0.0493 0.2291
C70 C 0.03886(16) 0.1091(2) 0.2886(4)
H46 H 0.0651 0.1131 0.3529
Co9 Co 0.062676(18) 0.24465(3) 0.56307(5)
N15 N 0.09360(12) 0.30072(17) 0.6962(3)
O36 O 0.03744(10) 0.20382(15) 0.6640(3)
O39 O 0.18639(12) 0.44189(18) 0.9562(3)
C90 C 0.03318(18) 0.0958(2) 0.9016(4)
H58 H 0.0582 0.0926 0.9684
C93 C 0.03578(16) 0.1345(2) 0.8287(4)
H61 H 0.0620 0.1559 0.8455
C97 C 0.15432(19) 0.3628(3) 0.7982(5)
H65 H 0.1824 0.3784 0.8070
C98 C 0.1325(2) 0.3749(3) 0.8671(5)
C99 C 0.0741(2) 0.3131(3) 0.7665(5)
H66 H 0.0464 0.2962 0.7576
C100 C 0.0922(2) 0.3494(3) 0.8518(6)
H67 H 0.0769 0.3563 0.8984
C103 C 0.1327(2) 0.3259(3) 0.7138(5)
H69 H 0.1473 0.3184 0.6660
C104 C 0.1538(2) 0.4161(3) 0.9584(5)
Co16 Co 0.437324(18) 0.25535(3) 0.43693(5)
O46 O 0.09019(12) 0.29020(16) 0.4713(3)
H73 H 0.263467 0.0361171 0.47638
Co1_3 Co -0.0000 1.0000 0.0000
O1_2 O 0.07201(14) 1.0000 0.0441(4)
C1_2 C 0.1128(2) 1.0000 0.1149(6)
O11_2 O 0.12297(17) 1.0000 0.2154(4)
O12 O 0.13480(16) 0.5793(2) 0.0255(4)
C7_2 C 0.1512(2) 1.0000 0.0738(6)
C20_2 C 0.1969(3) 1.0000 0.1457(7)
H13_2 H 0.2051 1.0000 0.2214
C25_2 C 0.2306(2) 1.0000 0.0997(7)
H16_2 H 0.2614 1.0000 0.1488
N19 N 0.00212(12) 0.93676(18) 0.1167(3)
O50 O 0.31361(12) 0.94189(18) 0.0438(3)
Co1_4 Co -0.0000 1.0000 1.0000
Co2_2 Co 0.27567(3) 1.0000 0.93259(7)
Co3_2 Co 0.29254(3) 1.0000 0.67754(8)
Co4 Co 0.062676(18) 0.75535(3) 0.56307(5)
O2_2 O 0.32578(13) 1.0000 0.8512(3)
O4 O -0.0000 0.70856(19) 0.5000
N1 N 0.09360(12) 0.69928(17) 0.6962(3)
O5 O 0.03744(10) 0.79618(15) 0.6640(3)
N4_2 N 0.22331(18) 1.0000 0.9991(5)
O8_2 O 0.26033(18) 1.0000 0.5049(4)
O9 O 0.18639(12) 0.55811(18) 0.9562(3)
C8 C 0.03318(18) 0.9042(2) 0.9016(4)
H2 H 0.0582 0.9074 0.9684
C11 C 0.03578(16) 0.8655(2) 0.8287(4)
H5 H 0.0620 0.8441 0.8455
C15_2 C 0.1420(2) 1.0000 0.9632(6)
H9_2 H 0.1117 1.0000 0.9117
C16 C 0.15432(19) 0.6372(3) 0.7982(5)
H10 H 0.1824 0.6216 0.8070
C17 C 0.1325(2) 0.6251(3) 0.8671(5)
C18 C 0.0741(2) 0.6869(3) 0.7665(5)
H11 H 0.0464 0.7038 0.7576
C19 C 0.0922(2) 0.6506(3) 0.8518(6)
H12 H 0.0769 0.6437 0.8984
C23 C 0.1327(2) 0.6741(3) 0.7138(5)
H15 H 0.1473 0.6816 0.6660
C24 C 0.1538(2) 0.5839(3) 0.9584(5)
C26_2 C 0.1792(3) 1.0000 0.9299(7)
H17_2 H 0.1728 1.0000 0.8549
O16 O 0.03732(10) 0.81128(15) 0.4363(3)
C32 C 0.00117(15) 0.8188(2) 0.3554(4)
C34 C 0.00219(14) 0.8594(2) 0.2711(4)
C39 C 0.03839(17) 0.9291(3) 0.2131(4)
H23 H 0.0643 0.9507 0.2291
C42 C 0.03886(16) 0.8909(2) 0.2886(4)
H26 H 0.0651 0.8869 0.3529
N16 N 0.12405(12) 0.80376(17) 0.6254(3)
O37 O 0.24625(11) 0.94021(17) 0.6713(3)
O38 O 0.40981(12) 0.79020(16) 0.5287(3)
C86 C 0.19305(14) 0.8801(2) 0.6982(4)
O40 O 0.23869(12) 0.94032(19) 0.8311(3)
N18 N 0.33830(14) 0.9385(2) 0.6692(4)
C88 C 0.17780(17) 0.8608(2) 0.5924(4)
H57 H 0.1906 0.8731 0.5438
C89 C 0.22954(15) 0.9247(2) 0.7359(4)
C92 C 0.17349(17) 0.8597(2) 0.7668(4)
H60 H 0.1835 0.8715 0.8392
C95 C 0.14275(15) 0.8224(2) 0.5596(4)
H63 H 0.1322 0.8095 0.4879
C96 C 0.13909(16) 0.8218(2) 0.7286(4)
H64 H 0.1260 0.8083 0.7758
C101 C 0.3961(2) 0.8637(3) 0.6234(5)
C102 C 0.3215(3) 0.8998(4) 0.5943(7)
H68 H 0.2896 0.8985 0.5556
C105 C 0.3498(2) 0.8587(3) 0.5681(6)
H70 H 0.3367 0.8313 0.5174
C106 C 0.4263(2) 0.8251(4) 0.5901(6)
O42 O 0.46817(16) 0.8391(3) 0.6246(5)
C107 C 0.4134(3) 0.9004(4) 0.7065(7)
H71 H 0.4450 0.9039 0.7467
C108 C 0.3809(3) 0.9331(4) 0.7287(8)
H72 H 0.3920 0.9526 0.7940
Co17 Co 0.437324(18) 0.74465(3) 0.43693(5)
O45 O 0.09019(12) 0.70980(16) 0.4713(3)
H74 H 0.275244 0.972712 0.47445
Co1_5 Co 1.0000 0.0000 0.0000
Co1_6 Co 1.0000 0.0000 1.0000
Co5 Co 0.72433(3) 0.0000 0.06741(7)
Co6 Co 0.70746(3) 0.0000 0.32246(8)
O15 O 0.67422(13) 0.0000 0.1488(3)
N7 N 0.87595(12) 0.19624(17) 0.3746(3)
O18 O 0.75375(11) 0.05979(17) 0.3287(3)
O19 O 0.59019(12) 0.20980(16) 0.4713(3)
N9 N 0.77669(18) 0.0000 0.0009(5)
O20 O 0.73967(18) 0.0000 0.4951(4)
C33 C 0.80695(14) 0.1199(2) 0.3018(4)
O22 O 0.76131(12) 0.05968(19) 0.1689(3)
N10 N 0.66170(14) 0.0615(2) 0.3308(4)
C35 C 0.82220(17) 0.1392(2) 0.4076(4)
H21 H 0.8094 0.1269 0.4562
C36 C 0.77046(15) 0.0753(2) 0.2641(4)
C40 C 0.82651(17) 0.1403(2) 0.2332(4)
H24 H 0.8165 0.1285 0.1608
C43 C 0.85725(15) 0.1776(2) 0.4404(4)
H27 H 0.8678 0.1905 0.5121
C44 C 0.86091(16) 0.1782(2) 0.2714(4)
H28 H 0.8740 0.1917 0.2242
C45 C 0.8580(2) 0.0000 0.0368(6)
H29 H 0.8883 0.0000 0.0883
C51 C 0.6039(2) 0.1363(3) 0.3766(5)
C52 C 0.6785(3) 0.1002(4) 0.4057(7)
H34 H 0.7104 0.1015 0.4444
C56 C 0.8208(3) 0.0000 0.0701(7)
H37 H 0.8272 0.0000 0.1451
C57 C 0.6502(2) 0.1413(3) 0.4319(6)
H38 H 0.6633 0.1687 0.4826
C58 C 0.5737(2) 0.1749(4) 0.4099(6)
O25 O 0.53183(16) 0.1609(3) 0.3754(5)
C59 C 0.5866(3) 0.0996(4) 0.2935(7)
H39 H 0.5550 0.0961 0.2533
C60 C 0.6191(3) 0.0669(4) 0.2713(8)
H40 H 0.6080 0.0474 0.2060
Co8 Co 0.937324(18) 0.24465(3) 0.43693(5)
O27_2 O 1.0000 0.29144(19) 0.5000
N11 N 0.90640(12) 0.30072(17) 0.3038(3)
O28 O 0.96256(10) 0.20382(15) 0.3360(3)
O31 O 0.81361(12) 0.44189(18) 0.0438(3)
C66 C 0.96682(18) 0.0958(2) 0.0984(4)
H42 H 0.9418 0.0926 0.0316
C69 C 0.96422(16) 0.1345(2) 0.1713(4)
H45 H 0.9380 0.1559 0.1545
C73 C 0.84568(19) 0.3628(3) 0.2018(5)
H49 H 0.8176 0.3784 0.1930
C74 C 0.8675(2) 0.3749(3) 0.1329(5)
C75 C 0.9259(2) 0.3131(3) 0.2335(5)
H50 H 0.9536 0.2962 0.2424
C76 C 0.9078(2) 0.3494(3) 0.1482(6)
H51 H 0.9231 0.3563 0.1016
C79 C 0.8673(2) 0.3259(3) 0.2862(5)
H53 H 0.8527 0.3184 0.3340
C80 C 0.8462(2) 0.4161(3) 0.0416(5)
O35 O 0.96268(10) 0.18872(15) 0.5637(3)
N17 N 0.99788(12) 0.06324(18) 0.8833(3)
C85 C 0.99883(15) 0.1812(2) 0.6446(4)
C87 C 0.99781(14) 0.1406(2) 0.7289(4)
C91 C 0.96161(17) 0.0709(3) 0.7869(4)
H59 H 0.9357 0.0493 0.7709
C94 C 0.96114(16) 0.1091(2) 0.7114(4)
H62 H 0.9349 0.1131 0.6471
Co15 Co 0.562676(18) 0.25535(3) 0.56307(5)
O43 O 0.92799(14) 0.0000 0.9559(4)
O47 O 0.90981(12) 0.29020(16) 0.5287(3)
H75 H 0.736533 0.0361171 0.52362
C31 C 0.8872(2) 0.0000 0.8851(6)
O23 O 0.87703(17) 0.0000 0.7846(4)
C37 C 0.8488(2) -0.0000 0.9262(6)
C50 C 0.8031(3) 0.0000 0.8543(7)
H33 H 0.7949 0.0000 0.7786
C55 C 0.7694(2) 0.0000 0.9003(7)
H36 H 0.7386 0.0000 0.8512
O33 O 0.86520(16) 0.4207(2) 0.9745(4)
Co12 Co 0.77567(3) 0.5000 0.93259(7)
O48 O 0.68639(12) 0.05811(18) 0.9562(3)
Co1_7 Co 1.0000 1.0000 0.0000
Co1_8 Co 1.0000 1.0000 1.0000
O3 O 0.96268(10) 0.81128(15) 0.5637(3)
O4_2 O 1.0000 0.70856(19) 0.5000
N3 N 0.99788(12) 0.93676(18) 0.8833(3)
C2 C 0.99883(15) 0.8188(2) 0.6446(4)
C4 C 0.99781(14) 0.8594(2) 0.7289(4)
C9 C 0.96161(17) 0.9291(3) 0.7869(4)
H3 H 0.9357 0.9507 0.7709
C12 C 0.96114(16) 0.8909(2) 0.7114(4)
H6 H 0.9349 0.8869 0.6471
Co5_2 Co 0.72433(3) 1.0000 0.06741(7)
Co6_2 Co 0.70746(3) 1.0000 0.32246(8)
Co7 Co 0.937324(18) 0.75535(3) 0.43693(5)
O15_2 O 0.67422(13) 1.0000 0.1488(3)
N6 N 0.90640(12) 0.69928(17) 0.3038(3)
O17 O 0.96256(10) 0.79618(15) 0.3360(3)
N9_2 N 0.77669(18) 1.0000 0.0009(5)
O20_2 O 0.73967(18) 1.0000 0.4951(4)
O21 O 0.81361(12) 0.55811(18) 0.0438(3)
C38 C 0.96682(18) 0.9042(2) 0.0984(4)
H22 H 0.9418 0.9074 0.0316
C41 C 0.96422(16) 0.8655(2) 0.1713(4)
H25 H 0.9380 0.8441 0.1545
C45_2 C 0.8580(2) 1.0000 0.0368(6)
H29_2 H 0.8883 1.0000 0.0883
C46 C 0.84568(19) 0.6372(3) 0.2018(5)
H30 H 0.8176 0.6216 0.1930
C47 C 0.8675(2) 0.6251(3) 0.1329(5)
C48 C 0.9259(2) 0.6869(3) 0.2335(5)
H31 H 0.9536 0.7038 0.2424
C49 C 0.9078(2) 0.6506(3) 0.1482(6)
H32 H 0.9231 0.6437 0.1016
C53 C 0.8673(2) 0.6741(3) 0.2862(5)
H35 H 0.8527 0.6816 0.3340
C54 C 0.8462(2) 0.5839(3) 0.0416(5)
C56_2 C 0.8208(3) 1.0000 0.0701(7)
H37_2 H 0.8272 1.0000 0.1451
N12 N 0.87595(12) 0.80376(17) 0.3746(3)
O29 O 0.75375(11) 0.94021(17) 0.3287(3)
O30 O 0.59019(12) 0.79020(16) 0.4713(3)
C62 C 0.80695(14) 0.8801(2) 0.3018(4)
O32 O 0.76131(12) 0.94032(19) 0.1689(3)
N14 N 0.66170(14) 0.9385(2) 0.3308(4)
C64 C 0.82220(17) 0.8608(2) 0.4076(4)
H41 H 0.8094 0.8731 0.4562
C65 C 0.77046(15) 0.9247(2) 0.2641(4)
C68 C 0.82651(17) 0.8597(2) 0.2332(4)
H44 H 0.8165 0.8715 0.1608
C71 C 0.85725(15) 0.8224(2) 0.4404(4)
H47 H 0.8678 0.8095 0.5121
C72 C 0.86091(16) 0.8218(2) 0.2714(4)
H48 H 0.8740 0.8083 0.2242
C77 C 0.6039(2) 0.8637(3) 0.3766(5)
C78 C 0.6785(3) 0.8998(4) 0.4057(7)
H52 H 0.7104 0.8985 0.4444
C81 C 0.6502(2) 0.8587(3) 0.4319(6)
H54 H 0.6633 0.8313 0.4826
C82 C 0.5737(2) 0.8251(4) 0.4099(6)
O34 O 0.53183(16) 0.8391(3) 0.3754(5)
C83 C 0.5866(3) 0.9004(4) 0.2935(7)
H55 H 0.5550 0.9039 0.2533
C84 C 0.6191(3) 0.9331(4) 0.2713(8)
H56 H 0.6080 0.9526 0.2060
Co18 Co 0.562676(18) 0.74465(3) 0.56307(5)
O43_2 O 0.92799(14) 1.0000 0.9559(4)
O44 O 0.90981(12) 0.70980(16) 0.5287(3)
H76 H 0.724756 0.972712 0.52555
C31_2 C 0.8872(2) 1.0000 0.8851(6)
O23_2 O 0.87703(17) 1.0000 0.7846(4)
O24 O 0.86520(16) 0.5793(2) 0.9745(4)
C37_2 C 0.8488(2) 1.0000 0.9262(6)
C50_2 C 0.8031(3) 1.0000 0.8543(7)
H33_2 H 0.7949 1.0000 0.7786
C55_2 C 0.7694(2) 1.0000 0.9003(7)
H36_2 H 0.7386 1.0000 0.8512
O51 O 0.68639(12) 0.94189(18) 0.9562(3)
Co1_9 Co 0.5000 0.5000 0.0000
O1_3 O 0.57201(14) 0.5000 0.0441(4)
C1_3 C 0.6128(2) 0.5000 0.1149(6)
O11_3 O 0.62297(17) 0.5000 0.2154(4)
O12_2 O 0.63480(16) 0.0793(2) 0.0255(4)
C7_3 C 0.6512(2) 0.5000 0.0738(6)
C20_3 C 0.6969(3) 0.5000 0.1457(7)
H13_3 H 0.7051 0.5000 0.2214
C25_3 C 0.7306(2) 0.5000 0.0997(7)
H16_3 H 0.7614 0.5000 0.1488
O41_2 O 0.63480(16) 0.9207(2) 0.0255(4)
N19_2 N 0.50212(12) 0.43676(18) 0.1167(3)
N20_2 N 0.50212(12) 0.56324(18) 0.1167(3)
Co1_10 Co 0.5000 0.5000 1.0000
Co3_3 Co 0.79254(3) 0.5000 0.67754(8)
O2_3 O 0.82578(13) 0.5000 0.8512(3)
O3_2 O 0.46268(10) 0.31128(15) 0.5637(3)
O4_3 O 0.5000 0.20856(19) 0.5000
N1_2 N 0.59360(12) 0.19928(17) 0.6962(3)
O5_2 O 0.53744(10) 0.29618(15) 0.6640(3)
N2_2 N 0.62405(12) 0.69624(17) 0.6254(3)
N3_2 N 0.49788(12) 0.43676(18) 0.8833(3)
O6_2 O 0.74625(11) 0.55979(17) 0.6713(3)
N4_3 N 0.72331(18) 0.5000 0.9991(5)
C2_2 C 0.49883(15) 0.3188(2) 0.6446(4)
O8_3 O 0.76033(18) 0.5000 0.5049(4)
C3_2 C 0.69305(14) 0.6199(2) 0.6982(4)
O10_2 O 0.73869(12) 0.55968(19) 0.8311(3)
C4_2 C 0.49781(14) 0.3594(2) 0.7289(4)
N5_2 N 0.83830(14) 0.5615(2) 0.6692(4)
C5_2 C 0.67780(17) 0.6392(2) 0.5924(4)
H1_2 H 0.6906 0.6269 0.5438
C6_2 C 0.72954(15) 0.5753(2) 0.7359(4)
C8_2 C 0.53318(18) 0.4042(2) 0.9016(4)
H2_2 H 0.5582 0.4074 0.9684
C9_2 C 0.46161(17) 0.4291(3) 0.7869(4)
H3_2 H 0.4357 0.4507 0.7709
C10_2 C 0.67349(17) 0.6403(2) 0.7668(4)
H4_2 H 0.6835 0.6285 0.8392
C11_2 C 0.53578(16) 0.3655(2) 0.8287(4)
H5_2 H 0.5620 0.3441 0.8455
C12_2 C 0.46114(16) 0.3909(2) 0.7114(4)
H6_2 H 0.4349 0.3869 0.6471
C13_2 C 0.64275(15) 0.6776(2) 0.5596(4)
H7_2 H 0.6322 0.6905 0.4879
C14_2 C 0.63909(16) 0.6782(2) 0.7286(4)
H8_2 H 0.6260 0.6917 0.7758
C15_3 C 0.6420(2) 0.5000 0.9632(6)
H9_3 H 0.6117 0.5000 0.9117
C16_2 C 0.65432(19) 0.1372(3) 0.7982(5)
H10_2 H 0.6824 0.1216 0.8070
C17_2 C 0.6325(2) 0.1251(3) 0.8671(5)
C18_2 C 0.5741(2) 0.1869(3) 0.7665(5)
H11_2 H 0.5464 0.2038 0.7576
C19_2 C 0.5922(2) 0.1506(3) 0.8518(6)
H12_2 H 0.5769 0.1437 0.8984
C21_2 C 0.8961(2) 0.6363(3) 0.6234(5)
C22_2 C 0.8215(3) 0.6002(4) 0.5943(7)
H14_2 H 0.7896 0.6015 0.5556
C23_2 C 0.6327(2) 0.1741(3) 0.7138(5)
H15_2 H 0.6473 0.1816 0.6660
C24_2 C 0.6538(2) 0.0839(3) 0.9584(5)
C26_3 C 0.6792(3) 0.5000 0.9299(7)
H17_3 H 0.6728 0.5000 0.8549
C27_2 C 0.8498(2) 0.6413(3) 0.5681(6)
H18_2 H 0.8367 0.6687 0.5174
C28_2 C 0.9263(2) 0.6749(4) 0.5901(6)
O13_2 O 0.96817(16) 0.6609(3) 0.6246(5)
C29_2 C 0.9134(3) 0.5996(4) 0.7065(7)
H19_2 H 0.9450 0.5961 0.7467
C30_2 C 0.8809(3) 0.5669(4) 0.7287(8)
H20_2 H 0.8920 0.5474 0.7940
Co6_3 Co 0.20746(3) 0.5000 0.32246(8)
O15_3 O 0.17422(13) 0.5000 0.1488(3)
O16_2 O 0.53732(10) 0.31128(15) 0.4363(3)
N6_2 N 0.40640(12) 0.19928(17) 0.3038(3)
O17_2 O 0.46256(10) 0.29618(15) 0.3360(3)
N7_2 N 0.37595(12) 0.69624(17) 0.3746(3)
O18_2 O 0.25375(11) 0.55979(17) 0.3287(3)
N9_3 N 0.27669(18) 0.5000 0.0009(5)
C32_2 C 0.50117(15) 0.3188(2) 0.3554(4)
O20_3 O 0.23967(18) 0.5000 0.4951(4)
C33_2 C 0.30695(14) 0.6199(2) 0.3018(4)
O22_2 O 0.26131(12) 0.55968(19) 0.1689(3)
C34_2 C 0.50219(14) 0.3594(2) 0.2711(4)
N10_2 N 0.16170(14) 0.5615(2) 0.3308(4)
C35_2 C 0.32220(17) 0.6392(2) 0.4076(4)
H21_2 H 0.3094 0.6269 0.4562
C36_2 C 0.27046(15) 0.5753(2) 0.2641(4)
C38_2 C 0.46682(18) 0.4042(2) 0.0984(4)
H22_2 H 0.4418 0.4074 0.0316
C39_2 C 0.53839(17) 0.4291(3) 0.2131(4)
H23_2 H 0.5643 0.4507 0.2291
C40_2 C 0.32651(17) 0.6403(2) 0.2332(4)
H24_2 H 0.3165 0.6285 0.1608
C41_2 C 0.46422(16) 0.3655(2) 0.1713(4)
H25_2 H 0.4380 0.3441 0.1545
C42_2 C 0.53886(16) 0.3909(2) 0.2886(4)
H26_2 H 0.5651 0.3869 0.3529
C43_2 C 0.35725(15) 0.6776(2) 0.4404(4)
H27_2 H 0.3678 0.6905 0.5121
C44_2 C 0.36091(16) 0.6782(2) 0.2714(4)
H28_2 H 0.3740 0.6917 0.2242
C45_3 C 0.3580(2) 0.5000 0.0368(6)
H29_3 H 0.3883 0.5000 0.0883
C46_2 C 0.34568(19) 0.1372(3) 0.2018(5)
H30_2 H 0.3176 0.1216 0.1930
C47_2 C 0.3675(2) 0.1251(3) 0.1329(5)
C48_2 C 0.4259(2) 0.1869(3) 0.2335(5)
H31_2 H 0.4536 0.2038 0.2424
C49_2 C 0.4078(2) 0.1506(3) 0.1482(6)
H32_2 H 0.4231 0.1437 0.1016
C51_2 C 0.1039(2) 0.6363(3) 0.3766(5)
C52_2 C 0.1785(3) 0.6002(4) 0.4057(7)
H34_2 H 0.2104 0.6015 0.4444
C53_2 C 0.3673(2) 0.1741(3) 0.2862(5)
H35_2 H 0.3527 0.1816 0.3340
C54_2 C 0.3462(2) 0.0839(3) 0.0416(5)
C56_3 C 0.3208(3) 0.5000 0.0701(7)
H37_3 H 0.3272 0.5000 0.1451
C57_2 C 0.1502(2) 0.6413(3) 0.4319(6)
H38_2 H 0.1633 0.6687 0.4826
C58_2 C 0.0737(2) 0.6749(4) 0.4099(6)
O25_2 O 0.03183(16) 0.6609(3) 0.3754(5)
C59_2 C 0.0866(3) 0.5996(4) 0.2935(7)
H39_2 H 0.0550 0.5961 0.2533
C60_2 C 0.1191(3) 0.5669(4) 0.2713(8)
H40_2 H 0.1080 0.5474 0.2060
O26_2 O 0.53732(10) 0.68872(15) 0.4363(3)
O27_3 O 0.5000 0.79144(19) 0.5000
N11_2 N 0.40640(12) 0.80072(17) 0.3038(3)
O28_2 O 0.46256(10) 0.70382(15) 0.3360(3)
N12_2 N 0.37595(12) 0.30376(17) 0.3746(3)
O29_2 O 0.25375(11) 0.44021(17) 0.3287(3)
C61_2 C 0.50117(15) 0.6812(2) 0.3554(4)
C62_2 C 0.30695(14) 0.3801(2) 0.3018(4)
O32_2 O 0.26131(12) 0.44032(19) 0.1689(3)
C63_2 C 0.50219(14) 0.6406(2) 0.2711(4)
N14_2 N 0.16170(14) 0.4385(2) 0.3308(4)
C64_2 C 0.32220(17) 0.3608(2) 0.4076(4)
H41_2 H 0.3094 0.3731 0.4562
C65_2 C 0.27046(15) 0.4247(2) 0.2641(4)
C66_2 C 0.46682(18) 0.5958(2) 0.0984(4)
H42_2 H 0.4418 0.5926 0.0316
C67_2 C 0.53839(17) 0.5709(3) 0.2131(4)
H43_2 H 0.5643 0.5493 0.2291
C68_2 C 0.32651(17) 0.3597(2) 0.2332(4)
H44_2 H 0.3165 0.3715 0.1608
C69_2 C 0.46422(16) 0.6345(2) 0.1713(4)
H45_2 H 0.4380 0.6559 0.1545
C70_2 C 0.53886(16) 0.6091(2) 0.2886(4)
H46_2 H 0.5651 0.6131 0.3529
C71_2 C 0.35725(15) 0.3224(2) 0.4404(4)
H47_2 H 0.3678 0.3095 0.5121
C72_2 C 0.36091(16) 0.3218(2) 0.2714(4)
H48_2 H 0.3740 0.3083 0.2242
C73_2 C 0.34568(19) 0.8628(3) 0.2018(5)
H49_2 H 0.3176 0.8784 0.1930
C74_2 C 0.3675(2) 0.8749(3) 0.1329(5)
C75_2 C 0.4259(2) 0.8131(3) 0.2335(5)
H50_2 H 0.4536 0.7962 0.2424
C76_2 C 0.4078(2) 0.8494(3) 0.1482(6)
H51_2 H 0.4231 0.8563 0.1016
C77_2 C 0.1039(2) 0.3637(3) 0.3766(5)
C78_2 C 0.1785(3) 0.3998(4) 0.4057(7)
H52_2 H 0.2104 0.3985 0.4444
C79_2 C 0.3673(2) 0.8259(3) 0.2862(5)
H53_2 H 0.3527 0.8184 0.3340
C80_2 C 0.3462(2) 0.9161(3) 0.0416(5)
C81_2 C 0.1502(2) 0.3587(3) 0.4319(6)
H54_2 H 0.1633 0.3313 0.4826
C82_2 C 0.0737(2) 0.3251(4) 0.4099(6)
O34_2 O 0.03183(16) 0.3391(3) 0.3754(5)
C83_2 C 0.0866(3) 0.4004(4) 0.2935(7)
H55_2 H 0.0550 0.4039 0.2533
C84_2 C 0.1191(3) 0.4331(4) 0.2713(8)
H56_2 H 0.1080 0.4526 0.2060
O35_2 O 0.46268(10) 0.68872(15) 0.5637(3)
N15_2 N 0.59360(12) 0.80072(17) 0.6962(3)
O36_2 O 0.53744(10) 0.70382(15) 0.6640(3)
N16_2 N 0.62405(12) 0.30376(17) 0.6254(3)
N17_2 N 0.49788(12) 0.56324(18) 0.8833(3)
O37_2 O 0.74625(11) 0.44021(17) 0.6713(3)
C85_2 C 0.49883(15) 0.6812(2) 0.6446(4)
C86_2 C 0.69305(14) 0.3801(2) 0.6982(4)
O40_2 O 0.73869(12) 0.44032(19) 0.8311(3)
C87_2 C 0.49781(14) 0.6406(2) 0.7289(4)
N18_2 N 0.83830(14) 0.4385(2) 0.6692(4)
C88_2 C 0.67780(17) 0.3608(2) 0.5924(4)
H57_2 H 0.6906 0.3731 0.5438
C89_2 C 0.72954(15) 0.4247(2) 0.7359(4)
C90_2 C 0.53318(18) 0.5958(2) 0.9016(4)
H58_2 H 0.5582 0.5926 0.9684
C91_2 C 0.46161(17) 0.5709(3) 0.7869(4)
H59_2 H 0.4357 0.5493 0.7709
C92_2 C 0.67349(17) 0.3597(2) 0.7668(4)
H60_2 H 0.6835 0.3715 0.8392
C93_2 C 0.53578(16) 0.6345(2) 0.8287(4)
H61_2 H 0.5620 0.6559 0.8455
C94_2 C 0.46114(16) 0.6091(2) 0.7114(4)
H62_2 H 0.4349 0.6131 0.6471
C95_2 C 0.64275(15) 0.3224(2) 0.5596(4)
H63_2 H 0.6322 0.3095 0.4879
C96_2 C 0.63909(16) 0.3218(2) 0.7286(4)
H64_2 H 0.6260 0.3083 0.7758
C97_2 C 0.65432(19) 0.8628(3) 0.7982(5)
H65_2 H 0.6824 0.8784 0.8070
C98_2 C 0.6325(2) 0.8749(3) 0.8671(5)
C99_2 C 0.5741(2) 0.8131(3) 0.7665(5)
H66_2 H 0.5464 0.7962 0.7576
C100_2 C 0.5922(2) 0.8494(3) 0.8518(6)
H67_2 H 0.5769 0.8563 0.8984
C101_2 C 0.8961(2) 0.3637(3) 0.6234(5)
C102_2 C 0.8215(3) 0.3998(4) 0.5943(7)
H68_2 H 0.7896 0.3985 0.5556
C103_2 C 0.6327(2) 0.8259(3) 0.7138(5)
H69_2 H 0.6473 0.8184 0.6660
C104_2 C 0.6538(2) 0.9161(3) 0.9584(5)
C105_2 C 0.8498(2) 0.3587(3) 0.5681(6)
H70_2 H 0.8367 0.3313 0.5174
C106_2 C 0.9263(2) 0.3251(4) 0.5901(6)
O42_2 O 0.96817(16) 0.3391(3) 0.6246(5)
C107_2 C 0.9134(3) 0.4004(4) 0.7065(7)
H71_2 H 0.9450 0.4039 0.7467
C108_2 C 0.8809(3) 0.4331(4) 0.7287(8)
H72_2 H 0.8920 0.4526 0.7940
O43_3 O 0.42799(14) 0.5000 0.9559(4)
C31_3 C 0.3872(2) 0.5000 0.8851(6)
O23_3 O 0.37703(17) 0.5000 0.7846(4)
O24_2 O 0.36520(16) 0.0793(2) 0.9745(4)
C37_3 C 0.3488(2) 0.5000 0.9262(6)
C50_3 C 0.3031(3) 0.5000 0.8543(7)
H33_3 H 0.2949 0.5000 0.7786
C55_3 C 0.2694(2) 0.5000 0.9003(7)
H36_3 H 0.2386 0.5000 0.8512
O33_2 O 0.36520(16) 0.9207(2) 0.9745(4)
H76_2 H 0.275244 0.0272877 0.47445
H75_2 H 0.263467 0.963883 0.47638
H74_2 H 0.724756 0.0272877 0.52555
H73_2 H 0.736533 0.963883 0.52362
loop_
_geom_bond_atom_site_label_1
_geom_bond_atom_site_label_2
_geom_bond_site_symmetry_1
_geom_bond_site_symmetry_2
Co1 O1 1_555 1_555
O1 C1 1_555 1_555
C1 O11 1_555 1_555
C7 C1 1_555 1_555
C20 C7 1_555 1_555
H13 C20 1_555 1_555
H16 C25 1_555 1_555
N20 Co1 1_555 1_555
C20 C25 1_555 1_555
Co2 O2 1_555 1_555
Co3 O2 1_555 1_555
N2 C13 1_555 1_555
O6 Co3 1_555 1_555
O7 C28 1_555 1_555
N4 Co2 1_555 1_555
O8 Co3 1_555 1_555
C3 C5 1_555 1_555
O10 Co2 1_555 1_555
N5 Co3 1_555 1_555
C5 H1 1_555 1_555
C6 O6 1_555 1_555
C10 C3 1_555 1_555
H4 C10 1_555 1_555
C13 C5 1_555 1_555
H7 C13 1_555 1_555
C14 N2 1_555 1_555
H8 C14 1_555 1_555
H9 C15 1_555 1_555
C21 C27 1_555 1_555
C22 N5 1_555 1_555
H14 C22 1_555 1_555
C26 N4 1_555 1_555
H17 C26 1_555 1_555
C27 C22 1_555 1_555
H18 C27 1_555 1_555
C28 C21 1_555 1_555
O13 C28 1_555 1_555
C29 C21 1_555 1_555
H19 C29 1_555 1_555
C30 N5 1_555 1_555
H20 C30 1_555 1_555
O26 C61 1_555 1_555
C63 C61 1_555 1_555
C67 N20 1_555 1_555
H43 C67 1_555 1_555
C70 C63 1_555 1_555
H46 C70 1_555 1_555
Co9 N2 1_555 1_555
N15 Co9 1_555 1_555
O36 Co9 1_555 1_555
O39 C104 1_555 1_555
H58 C90 1_555 1_555
H61 C93 1_555 1_555
C97 H65 1_555 1_555
C98 C97 1_555 1_555
C99 N15 1_555 1_555
H66 C99 1_555 1_555
C100 C98 1_555 1_555
H67 C100 1_555 1_555
C103 N15 1_555 1_555
H69 C103 1_555 1_555
C104 C98 1_555 1_555
Co16 O7 1_555 1_555
O46 Co9 1_555 1_555
C3 C6 1_555 1_555
O10 C6 1_555 1_555
C10 C14 1_555 1_555
C15 C26 1_555 1_555
C29 C30 1_555 1_555
O26 Co9 1_555 1_555
O27 Co9 1_555 1_555
C67 C70 1_555 1_555
C90 C93 1_555 1_555
C97 C103 1_555 1_555
C99 C100 1_555 1_555
O8 H73 1_555 1_555
Co1_3 O1_2 1_555 1_555
O1_2 C1_2 1_555 1_555
C1_2 O11_2 1_555 1_555
C7_2 C1_2 1_555 1_555
C20_2 C7_2 1_555 1_555
H13_2 C20_2 1_555 1_555
H16_2 C25_2 1_555 1_555
N19 Co1_3 1_555 1_555
C20_2 C25_2 1_555 1_555
Co2_2 O2_2 1_555 1_555
Co3_2 O2_2 1_555 1_555
Co4 O4 1_555 1_555
N1 Co4 1_555 1_555
O5 Co4 1_555 1_555
N4_2 Co2_2 1_555 1_555
O8_2 Co3_2 1_555 1_555
O9 C24 1_555 1_555
H2 C8 1_555 1_555
H5 C11 1_555 1_555
H9_2 C15_2 1_555 1_555
C16 H10 1_555 1_555
C17 C16 1_555 1_555
C18 N1 1_555 1_555
H11 C18 1_555 1_555
C19 C17 1_555 1_555
H12 C19 1_555 1_555
C23 N1 1_555 1_555
H15 C23 1_555 1_555
C24 C17 1_555 1_555
C26_2 N4_2 1_555 1_555
H17_2 C26_2 1_555 1_555
O16 Co4 1_555 1_555
C32 O16 1_555 1_555
C34 C32 1_555 1_555
C39 N19 1_555 1_555
H23 C39 1_555 1_555
C42 C34 1_555 1_555
H26 C42 1_555 1_555
N16 Co4 1_555 1_555
O37 Co3_2 1_555 1_555
O38 C106 1_555 1_555
C86 C88 1_555 1_555
O40 Co2_2 1_555 1_555
N18 Co3_2 1_555 1_555
C88 H57 1_555 1_555
C89 O37 1_555 1_555
C92 C86 1_555 1_555
H60 C92 1_555 1_555
C95 N16 1_555 1_555
H63 C95 1_555 1_555
C96 N16 1_555 1_555
H64 C96 1_555 1_555
C101 C105 1_555 1_555
C102 N18 1_555 1_555
H68 C102 1_555 1_555
C105 C102 1_555 1_555
H70 C105 1_555 1_555
C106 C101 1_555 1_555
O42 C106 1_555 1_555
C107 C101 1_555 1_555
H71 C107 1_555 1_555
C108 N18 1_555 1_555
H72 C108 1_555 1_555
Co17 O38 1_555 1_555
O45 Co4 1_555 1_555
C8 C11 1_555 1_555
C15_2 C26_2 1_555 1_555
C16 C23 1_555 1_555
C18 C19 1_555 1_555
C39 C42 1_555 1_555
C86 C89 1_555 1_555
O40 C89 1_555 1_555
C88 C95 1_555 1_555
C92 C96 1_555 1_555
C107 C108 1_555 1_555
O8_2 H74 1_555 1_555
Co5 O15 1_555 1_555
Co6 O15 1_555 1_555
N7 C43 1_555 1_555
O18 Co6 1_555 1_555
O19 C58 1_555 1_555
N9 Co5 1_555 1_555
O20 Co6 1_555 1_555
C33 C35 1_555 1_555
O22 Co5 1_555 1_555
N10 Co6 1_555 1_555
C35 H21 1_555 1_555
C36 O18 1_555 1_555
C40 C33 1_555 1_555
H24 C40 1_555 1_555
C43 C35 1_555 1_555
H27 C43 1_555 1_555
C44 N7 1_555 1_555
H28 C44 1_555 1_555
H29 C45 1_555 1_555
C51 C57 1_555 1_555
C52 N10 1_555 1_555
H34 C52 1_555 1_555
C56 N9 1_555 1_555
H37 C56 1_555 1_555
C57 C52 1_555 1_555
H38 C57 1_555 1_555
C58 C51 1_555 1_555
O25 C58 1_555 1_555
C59 C51 1_555 1_555
H39 C59 1_555 1_555
C60 N10 1_555 1_555
H40 C60 1_555 1_555
Co8 N7 1_555 1_555
O27_2 Co8 1_555 1_555
N11 Co8 1_555 1_555
O28 Co8 1_555 1_555
O31 C80 1_555 1_555
C66 H42 1_555 1_555
H45 C69 1_555 1_555
C73 H49 1_555 1_555
C74 C73 1_555 1_555
C75 N11 1_555 1_555
H50 C75 1_555 1_555
C76 C74 1_555 1_555
H51 C76 1_555 1_555
C79 N11 1_555 1_555
H53 C79 1_555 1_555
C80 C74 1_555 1_555
O35 Co8 1_555 1_555
N17 Co1_6 1_555 1_555
C85 O35 1_555 1_555
C87 C85 1_555 1_555
C91 N17 1_555 1_555
H59 C91 1_555 1_555
C94 C87 1_555 1_555
H62 C94 1_555 1_555
Co15 O19 1_555 1_555
O43 Co1_6 1_555 1_555
O47 Co8 1_555 1_555
C33 C36 1_555 1_555
O22 C36 1_555 1_555
C40 C44 1_555 1_555
C45 C56 1_555 1_555
C59 C60 1_555 1_555
C66 C69 1_555 1_555
C73 C79 1_555 1_555
C75 C76 1_555 1_555
C91 C94 1_555 1_555
O20 H75 1_555 1_555
O43 C31 1_555 1_555
C31 O23 1_555 1_555
C37 C31 1_555 1_555
C50 C37 1_555 1_555
H33 C50 1_555 1_555
H36 C55 1_555 1_555
C50 C55 1_555 1_555
O3 C2 1_555 1_555
O4_2 Co7 1_555 1_555
N3 Co1_8 1_555 1_555
C4 C2 1_555 1_555
C9 N3 1_555 1_555
H3 C9 1_555 1_555
C12 C4 1_555 1_555
H6 C12 1_555 1_555
Co5_2 O15_2 1_555 1_555
Co6_2 O15_2 1_555 1_555
Co7 O3 1_555 1_555
N6 Co7 1_555 1_555
O17 Co7 1_555 1_555
N9_2 Co5_2 1_555 1_555
O20_2 Co6_2 1_555 1_555
O21 C54 1_555 1_555
C38 H22 1_555 1_555
H25 C41 1_555 1_555
H29_2 C45_2 1_555 1_555
C46 H30 1_555 1_555
C47 C46 1_555 1_555
C48 N6 1_555 1_555
H31 C48 1_555 1_555
C49 C47 1_555 1_555
H32 C49 1_555 1_555
C53 N6 1_555 1_555
H35 C53 1_555 1_555
C54 C47 1_555 1_555
C56_2 N9_2 1_555 1_555
H37_2 C56_2 1_555 1_555
N12 Co7 1_555 1_555
O29 Co6_2 1_555 1_555
O30 C82 1_555 1_555
C62 C64 1_555 1_555
O32 Co5_2 1_555 1_555
N14 Co6_2 1_555 1_555
C64 H41 1_555 1_555
C65 O29 1_555 1_555
C68 C62 1_555 1_555
H44 C68 1_555 1_555
C71 N12 1_555 1_555
H47 C71 1_555 1_555
C72 N12 1_555 1_555
H48 C72 1_555 1_555
C77 C81 1_555 1_555
C78 N14 1_555 1_555
H52 C78 1_555 1_555
C81 C78 1_555 1_555
H54 C81 1_555 1_555
C82 C77 1_555 1_555
O34 C82 1_555 1_555
C83 C77 1_555 1_555
H55 C83 1_555 1_555
C84 N14 1_555 1_555
H56 C84 1_555 1_555
Co18 O30 1_555 1_555
O43_2 Co1_8 1_555 1_555
O44 Co7 1_555 1_555
C9 C12 1_555 1_555
C38 C41 1_555 1_555
C45_2 C56_2 1_555 1_555
C46 C53 1_555 1_555
C48 C49 1_555 1_555
C62 C65 1_555 1_555
O32 C65 1_555 1_555
C64 C71 1_555 1_555
C68 C72 1_555 1_555
C83 C84 1_555 1_555
O20_2 H76 1_555 1_555
O43_2 C31_2 1_555 1_555
C31_2 O23_2 1_555 1_555
C37_2 C31_2 1_555 1_555
C50_2 C37_2 1_555 1_555
H33_2 C50_2 1_555 1_555
H36_2 C55_2 1_555 1_555
C50_2 C55_2 1_555 1_555
Co1_9 O1_3 1_555 1_555
O1_3 C1_3 1_555 1_555
C1_3 O11_3 1_555 1_555
C7_3 C1_3 1_555 1_555
C20_3 C7_3 1_555 1_555
H13_3 C20_3 1_555 1_555
H16_3 C25_3 1_555 1_555
N19_2 Co1_9 1_555 1_555
N20_2 Co1_9 1_555 1_555
C20_3 C25_3 1_555 1_555
Co12 O2_3 1_555 1_555
Co3_3 O2_3 1_555 1_555
Co15 O4_3 1_555 1_555
O3_2 C2_2 1_555 1_555
O4_3 Co16 1_555 1_555
N1_2 Co15 1_555 1_555
O5_2 Co15 1_555 1_555
N2_2 C13_2 1_555 1_555
N3_2 Co1_10 1_555 1_555
O6_2 Co3_3 1_555 1_555
O44 C28_2 1_555 1_555
N4_3 Co12 1_555 1_555
C2_2 O5_2 1_555 1_555
O8_3 Co3_3 1_555 1_555
O48 C24_2 1_555 1_555
C3_2 C5_2 1_555 1_555
O10_2 Co12 1_555 1_555
C4_2 C2_2 1_555 1_555
N5_2 Co3_3 1_555 1_555
C5_2 H1_2 1_555 1_555
C6_2 O6_2 1_555 1_555
C8_2 N3_2 1_555 1_555
H2_2 C8_2 1_555 1_555
C9_2 N3_2 1_555 1_555
H3_2 C9_2 1_555 1_555
C10_2 C3_2 1_555 1_555
H4_2 C10_2 1_555 1_555
C11_2 C4_2 1_555 1_555
H5_2 C11_2 1_555 1_555
C12_2 C4_2 1_555 1_555
H6_2 C12_2 1_555 1_555
C13_2 C5_2 1_555 1_555
H7_2 C13_2 1_555 1_555
C14_2 N2_2 1_555 1_555
H8_2 C14_2 1_555 1_555
H9_3 C15_3 1_555 1_555
C16_2 H10_2 1_555 1_555
C17_2 C16_2 1_555 1_555
C18_2 N1_2 1_555 1_555
H11_2 C18_2 1_555 1_555
C19_2 C17_2 1_555 1_555
H12_2 C19_2 1_555 1_555
C21_2 C27_2 1_555 1_555
C22_2 N5_2 1_555 1_555
H14_2 C22_2 1_555 1_555
C23_2 N1_2 1_555 1_555
H15_2 C23_2 1_555 1_555
C24_2 C17_2 1_555 1_555
C26_3 N4_3 1_555 1_555
H17_3 C26_3 1_555 1_555
C27_2 C22_2 1_555 1_555
H18_2 C27_2 1_555 1_555
C28_2 C21_2 1_555 1_555
O13_2 C28_2 1_555 1_555
C29_2 C21_2 1_555 1_555
H19_2 C29_2 1_555 1_555
C30_2 N5_2 1_555 1_555
H20_2 C30_2 1_555 1_555
Co14 O15_3 1_555 1_555
Co6_3 O15_3 1_555 1_555
Co16 O3_2 1_555 1_555
O16_2 Co15 1_555 1_555
N6_2 Co16 1_555 1_555
O17_2 Co16 1_555 1_555
N7_2 C43_2 1_555 1_555
N19_2 C38_2 1_555 1_555
O18_2 Co6_3 1_555 1_555
O45 C58_2 1_555 1_555
N9_3 Co14 1_555 1_555
C32_2 O16_2 1_555 1_555
O20_3 Co6_3 1_555 1_555
O49 C54_2 1_555 1_555
C33_2 C35_2 1_555 1_555
O22_2 Co14 1_555 1_555
C34_2 C32_2 1_555 1_555
N10_2 Co6_3 1_555 1_555
C35_2 H21_2 1_555 1_555
C36_2 O18_2 1_555 1_555
C38_2 H22_2 1_555 1_555
C39_2 N19_2 1_555 1_555
H23_2 C39_2 1_555 1_555
C40_2 C33_2 1_555 1_555
H24_2 C40_2 1_555 1_555
C41_2 C34_2 1_555 1_555
H25_2 C41_2 1_555 1_555
C42_2 C34_2 1_555 1_555
H26_2 C42_2 1_555 1_555
C43_2 C35_2 1_555 1_555
H27_2 C43_2 1_555 1_555
C44_2 N7_2 1_555 1_555
H28_2 C44_2 1_555 1_555
H29_3 C45_3 1_555 1_555
C46_2 H30_2 1_555 1_555
C47_2 C46_2 1_555 1_555
C48_2 N6_2 1_555 1_555
H31_2 C48_2 1_555 1_555
C49_2 C47_2 1_555 1_555
H32_2 C49_2 1_555 1_555
C51_2 C57_2 1_555 1_555
C52_2 N10_2 1_555 1_555
H34_2 C52_2 1_555 1_555
C53_2 N6_2 1_555 1_555
H35_2 C53_2 1_555 1_555
C54_2 C47_2 1_555 1_555
C56_3 N9_3 1_555 1_555
H37_3 C56_3 1_555 1_555
C57_2 C52_2 1_555 1_555
H38_2 C57_2 1_555 1_555
C58_2 C51_2 1_555 1_555
O25_2 C58_2 1_555 1_555
C59_2 C51_2 1_555 1_555
H39_2 C59_2 1_555 1_555
C60_2 N10_2 1_555 1_555
H40_2 C60_2 1_555 1_555
Co17 N7_2 1_555 1_555
O26_2 C61_2 1_555 1_555
O27_3 Co17 1_555 1_555
N11_2 Co17 1_555 1_555
O28_2 Co17 1_555 1_555
N12_2 Co16 1_555 1_555
N20_2 C66_2 1_555 1_555
O29_2 Co6_3 1_555 1_555
O46 C82_2 1_555 1_555
C61_2 O28_2 1_555 1_555
O50 C80_2 1_555 1_555
C62_2 C64_2 1_555 1_555
O32_2 Co14 1_555 1_555
C63_2 C61_2 1_555 1_555
N14_2 Co6_3 1_555 1_555
C64_2 H41_2 1_555 1_555
C65_2 O29_2 1_555 1_555
C66_2 H42_2 1_555 1_555
C67_2 N20_2 1_555 1_555
H43_2 C67_2 1_555 1_555
C68_2 C62_2 1_555 1_555
H44_2 C68_2 1_555 1_555
C69_2 C63_2 1_555 1_555
H45_2 C69_2 1_555 1_555
C70_2 C63_2 1_555 1_555
H46_2 C70_2 1_555 1_555
C71_2 N12_2 1_555 1_555
H47_2 C71_2 1_555 1_555
C72_2 N12_2 1_555 1_555
H48_2 C72_2 1_555 1_555
C73_2 H49_2 1_555 1_555
C74_2 C73_2 1_555 1_555
C75_2 N11_2 1_555 1_555
H50_2 C75_2 1_555 1_555
C76_2 C74_2 1_555 1_555
H51_2 C76_2 1_555 1_555
C77_2 C81_2 1_555 1_555
C78_2 N14_2 1_555 1_555
H52_2 C78_2 1_555 1_555
C79_2 N11_2 1_555 1_555
H53_2 C79_2 1_555 1_555
C80_2 C74_2 1_555 1_555
C81_2 C78_2 1_555 1_555
H54_2 C81_2 1_555 1_555
C82_2 C77_2 1_555 1_555
O34_2 C82_2 1_555 1_555
C83_2 C77_2 1_555 1_555
H55_2 C83_2 1_555 1_555
C84_2 N14_2 1_555 1_555
H56_2 C84_2 1_555 1_555
Co18 N2_2 1_555 1_555
O35_2 Co17 1_555 1_555
N15_2 Co18 1_555 1_555
O36_2 Co18 1_555 1_555
N16_2 Co15 1_555 1_555
N17_2 Co1_10 1_555 1_555
O37_2 Co3_3 1_555 1_555
O47 C106_2 1_555 1_555
C85_2 O35_2 1_555 1_555
O51 C104_2 1_555 1_555
C86_2 C88_2 1_555 1_555
O40_2 Co12 1_555 1_555
C87_2 C85_2 1_555 1_555
N18_2 Co3_3 1_555 1_555
C88_2 H57_2 1_555 1_555
C89_2 O37_2 1_555 1_555
C90_2 N17_2 1_555 1_555
H58_2 C90_2 1_555 1_555
C91_2 N17_2 1_555 1_555
H59_2 C91_2 1_555 1_555
C92_2 C86_2 1_555 1_555
H60_2 C92_2 1_555 1_555
C93_2 C87_2 1_555 1_555
H61_2 C93_2 1_555 1_555
C94_2 C87_2 1_555 1_555
H62_2 C94_2 1_555 1_555
C95_2 N16_2 1_555 1_555
H63_2 C95_2 1_555 1_555
C96_2 N16_2 1_555 1_555
H64_2 C96_2 1_555 1_555
C97_2 H65_2 1_555 1_555
C98_2 C97_2 1_555 1_555
C99_2 N15_2 1_555 1_555
H66_2 C99_2 1_555 1_555
C100_2 C98_2 1_555 1_555
H67_2 C100_2 1_555 1_555
C101_2 C105_2 1_555 1_555
C102_2 N18_2 1_555 1_555
H68_2 C102_2 1_555 1_555
C103_2 N15_2 1_555 1_555
H69_2 C103_2 1_555 1_555
C104_2 C98_2 1_555 1_555
C105_2 C102_2 1_555 1_555
H70_2 C105_2 1_555 1_555
C106_2 C101_2 1_555 1_555
O42_2 C106_2 1_555 1_555
C107_2 C101_2 1_555 1_555
H71_2 C107_2 1_555 1_555
C108_2 N18_2 1_555 1_555
H72_2 C108_2 1_555 1_555
O43_3 Co1_10 1_555 1_555
C3_2 C6_2 1_555 1_555
O10_2 C6_2 1_555 1_555
C8_2 C11_2 1_555 1_555
C9_2 C12_2 1_555 1_555
C10_2 C14_2 1_555 1_555
C15_3 C26_3 1_555 1_555
C16_2 C23_2 1_555 1_555
C18_2 C19_2 1_555 1_555
C29_2 C30_2 1_555 1_555
O17_2 C32_2 1_555 1_555
C33_2 C36_2 1_555 1_555
O22_2 C36_2 1_555 1_555
C38_2 C41_2 1_555 1_555
C39_2 C42_2 1_555 1_555
C40_2 C44_2 1_555 1_555
C45_3 C56_3 1_555 1_555
C46_2 C53_2 1_555 1_555
C48_2 C49_2 1_555 1_555
C59_2 C60_2 1_555 1_555
O26_2 Co18 1_555 1_555
O27_3 Co18 1_555 1_555
C62_2 C65_2 1_555 1_555
O32_2 C65_2 1_555 1_555
C64_2 C71_2 1_555 1_555
C66_2 C69_2 1_555 1_555
C67_2 C70_2 1_555 1_555
C68_2 C72_2 1_555 1_555
C73_2 C79_2 1_555 1_555
C75_2 C76_2 1_555 1_555
C83_2 C84_2 1_555 1_555
O36_2 C85_2 1_555 1_555
C86_2 C89_2 1_555 1_555
O40_2 C89_2 1_555 1_555
C88_2 C95_2 1_555 1_555
C90_2 C93_2 1_555 1_555
C91_2 C94_2 1_555 1_555
C92_2 C96_2 1_555 1_555
C97_2 C103_2 1_555 1_555
C99_2 C100_2 1_555 1_555
C107_2 C108_2 1_555 1_555
O43_3 C31_3 1_555 1_555
C31_3 O23_3 1_555 1_555
C37_3 C31_3 1_555 1_555
C50_3 C37_3 1_555 1_555
H33_3 C50_3 1_555 1_555
H36_3 C55_3 1_555 1_555
C50_3 C55_3 1_555 1_555
O8 H76_2 1_555 1_555
O8_2 H75_2 1_555 1_555
O20 H74_2 1_555 1_555
O20_2 H73_2 1_555 1_555

#END
