
###############################################################################
#
# This file contains modified crystal structure data generated from the
# MOF subset of the Cambridge Structural Database (CSD) v543 
# hosted by the Cambridge Crystallographic Data Centre (CCDC).
#
# This work is licensed under the Creative Commons
# Attribution-NonCommercial-ShareAlike 4.0 International License.
# To view a copy of this license, visit
# http://creativecommons.org/licenses/by-nc-sa/4.0/
# or send a letter to
# Creative Commons, PO Box 1866, Mountain View, CA 94042, USA.
#
# CIF created using the CSD Python API on 29 September 2022
# The structure has been converted into the P1 space group
# The structure has a 3D framework
# The original CSD entry YODWOF is in the cubic crystal system
# The framework has been calculated to contain at least 10.0% void space
# The void calculation uses a probe of radius 1.32A, grid spacing 0.4
# The framework is charged, counterions have been retained in the structure
# H atom positions have been added when not included in the experimental data
# Generated hydrogen atom positions removed from atoms on special positions
#
###############################################################################

data_YODWOF
_chemical_formula_moiety         '(C336 H336 O124 Zn28 18+)n'
_symmetry_cell_setting           triclinic
_symmetry_space_group_name_H-M   'P 1'
_symmetry_Int_Tables_number      1
_space_group_name_Hall           'P 1'
loop_
_symmetry_equiv_pos_site_id
_symmetry_equiv_pos_as_xyz
1 x,y,z
_cell_length_a                   32.366(5)
_cell_length_b                   32.366(5)
_cell_length_c                   32.366(5)
_cell_angle_alpha                90
_cell_angle_beta                 90
_cell_angle_gamma                90
_cell_volume                     33905.3
loop_
_atom_site_label
_atom_site_type_symbol
_atom_site_fract_x
_atom_site_fract_y
_atom_site_fract_z
Zn1 Zn 0.28530(10) 0.28530(10) 0.28530(10)
Zn2 Zn 0.34927(10) 0.34927(10) 0.34927(10)
Zn3 Zn 0.5000 0.1389(2) 0.5000
Zn4 Zn 0.5000 0.2301(2) 0.5000
O1 O 0.3203(6) 0.2529(9) 0.3203(6)
O2 O 0.3626(6) 0.2925(8) 0.3626(6)
O3 O 0.4588(5) 0.1491(7) 0.4588(5)
O4 O 0.4574(5) 0.2199(7) 0.4574(5)
C1 C 0.3667(7) 0.2218(6) 0.3667(7)
C2 C 0.3971(6) 0.2223(6) 0.3971(3)
H1 H 0.4070 0.2474 0.4070
C3 C 0.4126(4) 0.1854(7) 0.4126(4)
C4 C 0.3978(8) 0.1479(6) 0.3978(8)
H2 H 0.4081 0.1232 0.4081
C5 C 0.3674(9) 0.1474(6) 0.3674(10)
C6 C 0.3519(7) 0.1843(8) 0.3519(6)
H3 H 0.3316 0.1840 0.3316
C7 C 0.3478(6) 0.2593(8) 0.3478(6)
C8 C 0.4450(4) 0.1838(8) 0.4450(4)
C9 C 0.3520(9) 0.1087(9) 0.3520(9)
C10 C 0.3408(9) 0.0757(7) 0.3408(9)
C11 C 0.3259(9) 0.0367(5) 0.3259(9)
C12 C 0.3415(11) 0.0000 0.3415(11)
H4 H 0.3618 -0.0000 0.3618
C13 C 0.2955(9) 0.0373(5) 0.2955(9)
H5 H 0.2855 0.0623 0.2855
C14 C 0.2802(10) 0.0000 0.2802(10)
H6 H 0.2598 -0.0000 0.2598
O5 O 0.2499(3) 0.2499(3) 0.2499(3)
O6 O 0.3849(3) 0.3849(3) 0.3849(3)
O7 O 0.5000 0.0772(6) 0.5000
O8 O 0.5000 0.2918(6) 0.5000
C38 C 0.6585(11) 0.0000 0.3415(11)
H14 H 0.6382 -0.0000 0.3618
C40 C 0.7198(10) 0.0000 0.2802(10)
H16 H 0.7402 -0.0000 0.2598
O19 O 0.6797(6) 0.2529(9) 0.3203(6)
O20 O 0.6374(6) 0.2925(8) 0.3626(6)
O21 O 0.5412(5) 0.1491(7) 0.4588(5)
O22 O 0.5426(5) 0.2199(7) 0.4574(5)
C41 C 0.6333(7) 0.2218(6) 0.3667(7)
C42 C 0.6029(3) 0.2223(6) 0.3971(6)
H17 H 0.5930 0.2474 0.4070
C43 C 0.5874(4) 0.1854(7) 0.4126(4)
C44 C 0.6022(8) 0.1479(6) 0.3978(8)
H18 H 0.5919 0.1232 0.4081
C45 C 0.6326(10) 0.1474(6) 0.3674(9)
C46 C 0.6481(6) 0.1843(8) 0.3519(7)
H19 H 0.6684 0.1840 0.3316
C47 C 0.6522(6) 0.2593(8) 0.3478(6)
C48 C 0.5550(4) 0.1838(8) 0.4450(4)
C49 C 0.6480(9) 0.1087(9) 0.3520(9)
C50 C 0.6592(9) 0.0757(7) 0.3408(9)
C51 C 0.6741(9) 0.0367(5) 0.3259(9)
C52 C 0.7045(9) 0.0373(5) 0.2955(9)
H20 H 0.7145 0.0623 0.2855
Zn7 Zn 0.71470(10) 0.28530(10) 0.71470(10)
Zn8 Zn 0.65073(10) 0.34927(10) 0.65073(10)
O23 O 0.6797(6) 0.2529(9) 0.6797(6)
O24 O 0.6374(6) 0.2925(8) 0.6374(6)
O25 O 0.5412(5) 0.1491(7) 0.5412(5)
O26 O 0.5426(5) 0.2199(7) 0.5426(5)
C53 C 0.6333(7) 0.2218(6) 0.6333(7)
C54 C 0.6029(6) 0.2223(6) 0.6029(3)
H21 H 0.5930 0.2474 0.5930
C55 C 0.5874(4) 0.1854(7) 0.5874(4)
C56 C 0.6022(8) 0.1479(6) 0.6022(8)
H22 H 0.5919 0.1232 0.5919
C57 C 0.6326(9) 0.1474(6) 0.6326(10)
C58 C 0.6481(7) 0.1843(8) 0.6481(6)
H23 H 0.6684 0.1840 0.6684
C59 C 0.6522(6) 0.2593(8) 0.6522(6)
C60 C 0.5550(4) 0.1838(8) 0.5550(4)
C61 C 0.6480(9) 0.1087(9) 0.6480(9)
C62 C 0.6592(9) 0.0757(7) 0.6592(9)
C63 C 0.6741(9) 0.0367(5) 0.6741(9)
C64 C 0.6585(11) -0.0000 0.6585(11)
H24 H 0.6382 -0.0000 0.6382
C65 C 0.7045(9) 0.0373(5) 0.7045(9)
H25 H 0.7145 0.0623 0.7145
C66 C 0.7198(10) -0.0000 0.7198(10)
H26 H 0.7402 -0.0000 0.7402
O27 O 0.7501(3) 0.2499(3) 0.7501(3)
O28 O 0.6151(3) 0.3849(3) 0.6151(3)
C90 C 0.3415(11) -0.0000 0.6585(11)
H34 H 0.3618 -0.0000 0.6382
C92 C 0.2802(10) -0.0000 0.7198(10)
H36 H 0.2598 -0.0000 0.7402
O37 O 0.3203(6) 0.2529(9) 0.6797(6)
O38 O 0.3626(6) 0.2925(8) 0.6374(6)
O39 O 0.4588(5) 0.1491(7) 0.5412(5)
O40 O 0.4574(5) 0.2199(7) 0.5426(5)
C93 C 0.3667(7) 0.2218(6) 0.6333(7)
C94 C 0.3971(3) 0.2223(6) 0.6029(6)
H37 H 0.4070 0.2474 0.5930
C95 C 0.4126(4) 0.1854(7) 0.5874(4)
C96 C 0.3978(8) 0.1479(6) 0.6022(8)
H38 H 0.4081 0.1232 0.5919
C97 C 0.3674(10) 0.1474(6) 0.6326(9)
C98 C 0.3519(6) 0.1843(8) 0.6481(7)
H39 H 0.3316 0.1840 0.6684
C99 C 0.3478(6) 0.2593(8) 0.6522(6)
C100 C 0.4450(4) 0.1838(8) 0.5550(4)
C101 C 0.3520(9) 0.1087(9) 0.6480(9)
C102 C 0.3408(9) 0.0757(7) 0.6592(9)
C103 C 0.3259(9) 0.0367(5) 0.6741(9)
C104 C 0.2955(9) 0.0373(5) 0.7045(9)
H40 H 0.2855 0.0623 0.7145
Zn9 Zn 0.5000 0.5000 0.1389(2)
Zn10 Zn 0.5000 0.5000 0.2301(2)
O41 O 0.3203(6) 0.3203(6) 0.2529(9)
O42 O 0.3626(6) 0.3626(6) 0.2925(8)
O43 O 0.4588(5) 0.4588(5) 0.1491(7)
O44 O 0.4574(5) 0.4574(5) 0.2199(7)
C105 C 0.3667(7) 0.3667(7) 0.2218(6)
C106 C 0.3971(3) 0.3971(6) 0.2223(6)
H41 H 0.4070 0.4070 0.2474
C107 C 0.4126(4) 0.4126(4) 0.1854(7)
C108 C 0.3978(8) 0.3978(8) 0.1479(6)
H42 H 0.4081 0.4081 0.1232
C109 C 0.3674(10) 0.3674(9) 0.1474(6)
C110 C 0.3519(6) 0.3519(7) 0.1843(8)
H43 H 0.3316 0.3316 0.1840
C111 C 0.3478(6) 0.3478(6) 0.2593(8)
C112 C 0.4450(4) 0.4450(4) 0.1838(8)
C113 C 0.3520(9) 0.3520(9) 0.1087(9)
C114 C 0.3408(9) 0.3408(9) 0.0757(7)
C115 C 0.3259(9) 0.3259(9) 0.0367(5)
C116 C 0.3415(11) 0.3415(11) 0.0000
H44 H 0.3618 0.3618 0.0000
C117 C 0.2955(9) 0.2955(9) 0.0373(5)
H45 H 0.2855 0.2855 0.0623
C118 C 0.2802(10) 0.2802(10) 0.0000
H46 H 0.2598 0.2598 0.0000
O45 O 0.5000 0.5000 0.0772(6)
O46 O 0.5000 0.5000 0.2918(6)
O51 O 0.2529(9) 0.3203(6) 0.3203(6)
O52 O 0.2925(8) 0.3626(6) 0.3626(6)
O53 O 0.1491(7) 0.4588(5) 0.4588(5)
O54 O 0.2199(7) 0.4574(5) 0.4574(5)
C131 C 0.2218(6) 0.3667(7) 0.3667(7)
C132 C 0.2223(6) 0.3971(3) 0.3971(6)
H51 H 0.2474 0.4070 0.4070
C133 C 0.1854(7) 0.4126(4) 0.4126(4)
C134 C 0.1479(6) 0.3978(8) 0.3978(8)
H52 H 0.1232 0.4081 0.4081
C135 C 0.1474(6) 0.3674(10) 0.3674(9)
C136 C 0.1843(8) 0.3519(6) 0.3519(7)
H53 H 0.1840 0.3316 0.3316
C137 C 0.2593(8) 0.3478(6) 0.3478(6)
C138 C 0.1838(8) 0.4450(4) 0.4450(4)
C139 C 0.1087(9) 0.3520(9) 0.3520(9)
C140 C 0.0757(7) 0.3408(9) 0.3408(9)
C141 C 0.0367(5) 0.3259(9) 0.3259(9)
C142 C 0.0000 0.3415(11) 0.3415(11)
H54 H -0.0000 0.3618 0.3618
C143 C 0.0373(5) 0.2955(9) 0.2955(9)
H55 H 0.0623 0.2855 0.2855
C144 C 0.0000 0.2802(10) 0.2802(10)
H56 H -0.0000 0.2598 0.2598
Zn11 Zn 0.28530(10) 0.28530(10) 0.71470(10)
Zn12 Zn 0.34927(10) 0.34927(10) 0.65073(10)
O59 O 0.2499(3) 0.2499(3) 0.7501(3)
O60 O 0.3849(3) 0.3849(3) 0.6151(3)
Zn20 Zn 0.71470(10) 0.28530(10) 0.28530(10)
Zn26 Zn 0.65073(10) 0.34927(10) 0.34927(10)
Zn28 Zn 0.1389(2) 0.5000 0.5000
Zn31 Zn 0.2301(2) 0.5000 0.5000
O63 O 0.6797(6) 0.3203(6) 0.7471(9)
O64 O 0.7471(9) 0.3203(6) 0.6797(6)
O65 O 0.2529(9) 0.3203(6) 0.6797(6)
O67 O 0.3203(6) 0.3203(6) 0.7471(9)
O69 O 0.6374(6) 0.3626(6) 0.7075(8)
O70 O 0.7075(8) 0.3626(6) 0.6374(6)
O71 O 0.2925(8) 0.3626(6) 0.6374(6)
O73 O 0.3626(6) 0.3626(6) 0.7075(8)
O75 O 0.5412(5) 0.5412(5) 0.1491(7)
O76 O 0.5412(5) 0.4588(5) 0.1491(7)
O77 O 0.4588(5) 0.5412(5) 0.1491(7)
O78 O 0.5426(5) 0.5426(5) 0.2199(7)
O79 O 0.5426(5) 0.4574(5) 0.2199(7)
O80 O 0.4574(5) 0.5426(5) 0.2199(7)
C116_2 C 0.3415(11) 0.3415(11) 1.0000
H44_2 H 0.3618 0.3618 1.0000
C118_2 C 0.2802(10) 0.2802(10) 1.0000
H46_2 H 0.2598 0.2598 1.0000
O49 O 0.4588(5) 0.4588(5) 0.8509(7)
O50 O 0.4574(5) 0.4574(5) 0.7801(7)
C119 C 0.3667(7) 0.3667(7) 0.7782(6)
C120 C 0.3971(6) 0.3971(3) 0.7777(6)
H47 H 0.4070 0.4070 0.7526
C121 C 0.4126(4) 0.4126(4) 0.8146(7)
C122 C 0.3978(8) 0.3978(8) 0.8521(6)
H48 H 0.4081 0.4081 0.8768
C123 C 0.3674(9) 0.3674(10) 0.8526(6)
C124 C 0.3519(7) 0.3519(6) 0.8157(8)
H49 H 0.3316 0.3316 0.8160
C125 C 0.3478(6) 0.3478(6) 0.7407(8)
C126 C 0.4450(4) 0.4450(4) 0.8162(8)
C127 C 0.3520(9) 0.3520(9) 0.8913(9)
C128 C 0.3408(9) 0.3408(9) 0.9243(7)
C129 C 0.3259(9) 0.3259(9) 0.9633(5)
C130 C 0.2955(9) 0.2955(9) 0.9627(5)
H50 H 0.2855 0.2855 0.9377
Zn27 Zn 0.5000 0.5000 0.8611(2)
Zn30 Zn 0.5000 0.5000 0.7699(2)
C12_2 C 0.3415(11) 1.0000 0.3415(11)
H4_2 H 0.3618 1.0000 0.3618
C14_2 C 0.2802(10) 1.0000 0.2802(10)
H6_2 H 0.2598 1.0000 0.2598
O9 O 0.3203(6) 0.7471(9) 0.3203(6)
O10 O 0.3626(6) 0.7075(8) 0.3626(6)
O11 O 0.4588(5) 0.8509(7) 0.4588(5)
O12 O 0.4574(5) 0.7801(7) 0.4574(5)
C15 C 0.3667(7) 0.7782(6) 0.3667(7)
C16 C 0.3971(3) 0.7777(6) 0.3971(6)
H7 H 0.4070 0.7526 0.4070
C17 C 0.4126(4) 0.8146(7) 0.4126(4)
C18 C 0.3978(8) 0.8521(6) 0.3978(8)
H8 H 0.4081 0.8768 0.4081
C19 C 0.3674(10) 0.8526(6) 0.3674(9)
C20 C 0.3519(6) 0.8157(8) 0.3519(7)
H9 H 0.3316 0.8160 0.3316
C21 C 0.3478(6) 0.7407(8) 0.3478(6)
C22 C 0.4450(4) 0.8162(8) 0.4450(4)
C23 C 0.3520(9) 0.8913(9) 0.3520(9)
C24 C 0.3408(9) 0.9243(7) 0.3408(9)
C25 C 0.3259(9) 0.9633(5) 0.3259(9)
C26 C 0.2955(9) 0.9627(5) 0.2955(9)
H10 H 0.2855 0.9377 0.2855
Zn5 Zn 0.5000 0.8611(2) 0.5000
Zn6 Zn 0.5000 0.7699(2) 0.5000
O13 O 0.6797(6) 0.7471(9) 0.3203(6)
O14 O 0.6374(6) 0.7075(8) 0.3626(6)
O15 O 0.5412(5) 0.8509(7) 0.4588(5)
O16 O 0.5426(5) 0.7801(7) 0.4574(5)
C27 C 0.6333(7) 0.7782(6) 0.3667(7)
C28 C 0.6029(6) 0.7777(6) 0.3971(3)
H11 H 0.5930 0.7526 0.4070
C29 C 0.5874(4) 0.8146(7) 0.4126(4)
C30 C 0.6022(8) 0.8521(6) 0.3978(8)
H12 H 0.5919 0.8768 0.4081
C31 C 0.6326(9) 0.8526(6) 0.3674(10)
C32 C 0.6481(7) 0.8157(8) 0.3519(6)
H13 H 0.6684 0.8160 0.3316
C33 C 0.6522(6) 0.7407(8) 0.3478(6)
C34 C 0.5550(4) 0.8162(8) 0.4450(4)
C35 C 0.6480(9) 0.8913(9) 0.3520(9)
C36 C 0.6592(9) 0.9243(7) 0.3408(9)
C37 C 0.6741(9) 0.9633(5) 0.3259(9)
C38_2 C 0.6585(11) 1.0000 0.3415(11)
H14_2 H 0.6382 1.0000 0.3618
C39 C 0.7045(9) 0.9627(5) 0.2955(9)
H15 H 0.7145 0.9377 0.2855
C40_2 C 0.7198(10) 1.0000 0.2802(10)
H16_2 H 0.7402 1.0000 0.2598
O17 O 0.5000 0.9228(6) 0.5000
O18 O 0.5000 0.7082(6) 0.5000
C64_2 C 0.6585(11) 1.0000 0.6585(11)
H24_2 H 0.6382 1.0000 0.6382
C66_2 C 0.7198(10) 1.0000 0.7198(10)
H26_2 H 0.7402 1.0000 0.7402
O29 O 0.6797(6) 0.7471(9) 0.6797(6)
O30 O 0.6374(6) 0.7075(8) 0.6374(6)
O31 O 0.5412(5) 0.8509(7) 0.5412(5)
O32 O 0.5426(5) 0.7801(7) 0.5426(5)
C67 C 0.6333(7) 0.7782(6) 0.6333(7)
C68 C 0.6029(3) 0.7777(6) 0.6029(6)
H27 H 0.5930 0.7526 0.5930
C69 C 0.5874(4) 0.8146(7) 0.5874(4)
C70 C 0.6022(8) 0.8521(6) 0.6022(8)
H28 H 0.5919 0.8768 0.5919
C71 C 0.6326(10) 0.8526(6) 0.6326(9)
C72 C 0.6481(6) 0.8157(8) 0.6481(7)
H29 H 0.6684 0.8160 0.6684
C73 C 0.6522(6) 0.7407(8) 0.6522(6)
C74 C 0.5550(4) 0.8162(8) 0.5550(4)
C75 C 0.6480(9) 0.8913(9) 0.6480(9)
C76 C 0.6592(9) 0.9243(7) 0.6592(9)
C77 C 0.6741(9) 0.9633(5) 0.6741(9)
C78 C 0.7045(9) 0.9627(5) 0.7045(9)
H30 H 0.7145 0.9377 0.7145
O33 O 0.3203(6) 0.7471(9) 0.6797(6)
O34 O 0.3626(6) 0.7075(8) 0.6374(6)
O35 O 0.4588(5) 0.8509(7) 0.5412(5)
O36 O 0.4574(5) 0.7801(7) 0.5426(5)
C79 C 0.3667(7) 0.7782(6) 0.6333(7)
C80 C 0.3971(6) 0.7777(6) 0.6029(3)
H31 H 0.4070 0.7526 0.5930
C81 C 0.4126(4) 0.8146(7) 0.5874(4)
C82 C 0.3978(8) 0.8521(6) 0.6022(8)
H32 H 0.4081 0.8768 0.5919
C83 C 0.3674(9) 0.8526(6) 0.6326(10)
C84 C 0.3519(7) 0.8157(8) 0.6481(6)
H33 H 0.3316 0.8160 0.6684
C85 C 0.3478(6) 0.7407(8) 0.6522(6)
C86 C 0.4450(4) 0.8162(8) 0.5550(4)
C87 C 0.3520(9) 0.8913(9) 0.6480(9)
C88 C 0.3408(9) 0.9243(7) 0.6592(9)
C89 C 0.3259(9) 0.9633(5) 0.6741(9)
C90_2 C 0.3415(11) 1.0000 0.6585(11)
H34_2 H 0.3618 1.0000 0.6382
C91 C 0.2955(9) 0.9627(5) 0.7045(9)
H35 H 0.2855 0.9377 0.7145
C92_2 C 0.2802(10) 1.0000 0.7198(10)
H36_2 H 0.2598 1.0000 0.7402
Zn13 Zn 0.28530(10) 0.71470(10) 0.28530(10)
Zn14 Zn 0.34927(10) 0.65073(10) 0.34927(10)
O61 O 0.2499(3) 0.7501(3) 0.2499(3)
O62 O 0.3849(3) 0.6151(3) 0.3849(3)
Zn15 Zn 0.71470(10) 0.71470(10) 0.28530(10)
Zn16 Zn 0.28530(10) 0.71470(10) 0.71470(10)
Zn18 Zn 0.71470(10) 0.71470(10) 0.71470(10)
Zn21 Zn 0.65073(10) 0.65073(10) 0.34927(10)
Zn22 Zn 0.34927(10) 0.65073(10) 0.65073(10)
Zn24 Zn 0.65073(10) 0.65073(10) 0.65073(10)
O66 O 0.2529(9) 0.6797(6) 0.3203(6)
O68 O 0.3203(6) 0.6797(6) 0.2529(9)
O72 O 0.2925(8) 0.6374(6) 0.3626(6)
O74 O 0.3626(6) 0.6374(6) 0.2925(8)
C142_2 C 1.0000 0.3415(11) 0.3415(11)
H54_2 H 1.0000 0.3618 0.3618
C144_2 C 1.0000 0.2802(10) 0.2802(10)
H56_2 H 1.0000 0.2598 0.2598
O55 O 0.7471(9) 0.3203(6) 0.3203(6)
O56 O 0.7075(8) 0.3626(6) 0.3626(6)
O57 O 0.8509(7) 0.4588(5) 0.4588(5)
O58 O 0.7801(7) 0.4574(5) 0.4574(5)
C145 C 0.7782(6) 0.3667(7) 0.3667(7)
C146 C 0.7777(6) 0.3971(6) 0.3971(3)
H57 H 0.7526 0.4070 0.4070
C147 C 0.8146(7) 0.4126(4) 0.4126(4)
C148 C 0.8521(6) 0.3978(8) 0.3978(8)
H58 H 0.8768 0.4081 0.4081
C149 C 0.8526(6) 0.3674(9) 0.3674(10)
C150 C 0.8157(8) 0.3519(7) 0.3519(6)
H59 H 0.8160 0.3316 0.3316
C151 C 0.7407(8) 0.3478(6) 0.3478(6)
C152 C 0.8162(8) 0.4450(4) 0.4450(4)
C153 C 0.8913(9) 0.3520(9) 0.3520(9)
C154 C 0.9243(7) 0.3408(9) 0.3408(9)
C155 C 0.9633(5) 0.3259(9) 0.3259(9)
C156 C 0.9627(5) 0.2955(9) 0.2955(9)
H60 H 0.9377 0.2855 0.2855
Zn29 Zn 0.8611(2) 0.5000 0.5000
Zn32 Zn 0.7699(2) 0.5000 0.5000
C142_3 C -0.0000 0.6585(11) 0.3415(11)
H54_3 H 0.0000 0.6382 0.3618
C144_3 C -0.0000 0.7198(10) 0.2802(10)
H56_3 H -0.0000 0.7402 0.2598
O57_2 O 0.1491(7) 0.5412(5) 0.4588(5)
O58_2 O 0.2199(7) 0.5426(5) 0.4574(5)
C145_2 C 0.2218(6) 0.6333(7) 0.3667(7)
C146_2 C 0.2223(6) 0.6029(6) 0.3971(3)
H57_2 H 0.2474 0.5930 0.4070
C147_2 C 0.1854(7) 0.5874(4) 0.4126(4)
C148_2 C 0.1479(6) 0.6022(8) 0.3978(8)
H58_2 H 0.1232 0.5919 0.4081
C149_2 C 0.1474(6) 0.6326(9) 0.3674(10)
C150_2 C 0.1843(8) 0.6481(7) 0.3519(6)
H59_2 H 0.1840 0.6684 0.3316
C151_2 C 0.2593(8) 0.6522(6) 0.3478(6)
C152_2 C 0.1838(8) 0.5550(4) 0.4450(4)
C153_2 C 0.1087(9) 0.6480(9) 0.3520(9)
C154_2 C 0.0757(7) 0.6592(9) 0.3408(9)
C155_2 C 0.0367(5) 0.6741(9) 0.3259(9)
C156_2 C 0.0373(5) 0.7045(9) 0.2955(9)
H60_2 H 0.0623 0.7145 0.2855
O61_2 O 0.7501(3) 0.2499(3) 0.2499(3)
O62_2 O 0.6151(3) 0.3849(3) 0.3849(3)
O68_2 O 0.6797(6) 0.3203(6) 0.2529(9)
O74_2 O 0.6374(6) 0.3626(6) 0.2925(8)
O5_2 O 0.7501(3) 0.7501(3) 0.2499(3)
O6_2 O 0.6151(3) 0.6151(3) 0.3849(3)
O27_2 O 0.2499(3) 0.7501(3) 0.7501(3)
O28_2 O 0.3849(3) 0.6151(3) 0.6151(3)
O41_2 O 0.6797(6) 0.6797(6) 0.2529(9)
O42_2 O 0.6374(6) 0.6374(6) 0.2925(8)
C105_2 C 0.6333(7) 0.6333(7) 0.2218(6)
C106_2 C 0.6029(3) 0.6029(6) 0.2223(6)
H41_2 H 0.5930 0.5930 0.2474
C107_2 C 0.5874(4) 0.5874(4) 0.1854(7)
C108_2 C 0.6022(8) 0.6022(8) 0.1479(6)
H42_2 H 0.5919 0.5919 0.1232
C109_2 C 0.6326(10) 0.6326(9) 0.1474(6)
C110_2 C 0.6481(6) 0.6481(7) 0.1843(8)
H43_2 H 0.6684 0.6684 0.1840
C111_2 C 0.6522(6) 0.6522(6) 0.2593(8)
C112_2 C 0.5550(4) 0.5550(4) 0.1838(8)
C113_2 C 0.6480(9) 0.6480(9) 0.1087(9)
C114_2 C 0.6592(9) 0.6592(9) 0.0757(7)
C115_2 C 0.6741(9) 0.6741(9) 0.0367(5)
C116_3 C 0.6585(11) 0.6585(11) 0.0000
H44_3 H 0.6382 0.6382 0.0000
C117_2 C 0.7045(9) 0.7045(9) 0.0373(5)
H45_2 H 0.7145 0.7145 0.0623
C118_3 C 0.7198(10) 0.7198(10) 0.0000
H46_3 H 0.7402 0.7402 0.0000
O51_2 O 0.7471(9) 0.6797(6) 0.3203(6)
O52_2 O 0.7075(8) 0.6374(6) 0.3626(6)
O53_2 O 0.8509(7) 0.5412(5) 0.4588(5)
O54_2 O 0.7801(7) 0.5426(5) 0.4574(5)
C131_2 C 0.7782(6) 0.6333(7) 0.3667(7)
C132_2 C 0.7777(6) 0.6029(3) 0.3971(6)
H51_2 H 0.7526 0.5930 0.4070
C133_2 C 0.8146(7) 0.5874(4) 0.4126(4)
C134_2 C 0.8521(6) 0.6022(8) 0.3978(8)
H52_2 H 0.8768 0.5919 0.4081
C135_2 C 0.8526(6) 0.6326(10) 0.3674(9)
C136_2 C 0.8157(8) 0.6481(6) 0.3519(7)
H53_2 H 0.8160 0.6684 0.3316
C137_2 C 0.7407(8) 0.6522(6) 0.3478(6)
C138_2 C 0.8162(8) 0.5550(4) 0.4450(4)
C139_2 C 0.8913(9) 0.6480(9) 0.3520(9)
C140_2 C 0.9243(7) 0.6592(9) 0.3408(9)
C141_2 C 0.9633(5) 0.6741(9) 0.3259(9)
C142_4 C 1.0000 0.6585(11) 0.3415(11)
H54_4 H 1.0000 0.6382 0.3618
C143_2 C 0.9627(5) 0.7045(9) 0.2955(9)
H55_2 H 0.9377 0.7145 0.2855
C144_4 C 1.0000 0.7198(10) 0.2802(10)
H56_4 H 1.0000 0.7402 0.2598
O59_2 O 0.7501(3) 0.7501(3) 0.7501(3)
O60_2 O 0.6151(3) 0.6151(3) 0.6151(3)
O63_2 O 0.3203(6) 0.6797(6) 0.7471(9)
O64_2 O 0.2529(9) 0.6797(6) 0.6797(6)
O65_2 O 0.7471(9) 0.6797(6) 0.6797(6)
O67_2 O 0.6797(6) 0.6797(6) 0.7471(9)
O69_2 O 0.3626(6) 0.6374(6) 0.7075(8)
O70_2 O 0.2925(8) 0.6374(6) 0.6374(6)
O71_2 O 0.7075(8) 0.6374(6) 0.6374(6)
O73_2 O 0.6374(6) 0.6374(6) 0.7075(8)
C116_4 C 0.6585(11) 0.6585(11) 1.0000
H44_4 H 0.6382 0.6382 1.0000
C118_4 C 0.7198(10) 0.7198(10) 1.0000
H46_4 H 0.7402 0.7402 1.0000
O49_2 O 0.5412(5) 0.5412(5) 0.8509(7)
O50_2 O 0.5426(5) 0.5426(5) 0.7801(7)
C119_2 C 0.6333(7) 0.6333(7) 0.7782(6)
C120_2 C 0.6029(6) 0.6029(3) 0.7777(6)
H47_2 H 0.5930 0.5930 0.7526
C121_2 C 0.5874(4) 0.5874(4) 0.8146(7)
C122_2 C 0.6022(8) 0.6022(8) 0.8521(6)
H48_2 H 0.5919 0.5919 0.8768
C123_2 C 0.6326(9) 0.6326(10) 0.8526(6)
C124_2 C 0.6481(7) 0.6481(6) 0.8157(8)
H49_2 H 0.6684 0.6684 0.8160
C125_2 C 0.6522(6) 0.6522(6) 0.7407(8)
C126_2 C 0.5550(4) 0.5550(4) 0.8162(8)
C127_2 C 0.6480(9) 0.6480(9) 0.8913(9)
C128_2 C 0.6592(9) 0.6592(9) 0.9243(7)
C129_2 C 0.6741(9) 0.6741(9) 0.9633(5)
C130_2 C 0.7045(9) 0.7045(9) 0.9627(5)
H50_2 H 0.7145 0.7145 0.9377
C142_5 C -0.0000 0.3415(11) 0.6585(11)
H54_5 H 0.0000 0.3618 0.6382
C144_5 C -0.0000 0.2802(10) 0.7198(10)
H56_5 H -0.0000 0.2598 0.7402
O57_3 O 0.1491(7) 0.4588(5) 0.5412(5)
O58_3 O 0.2199(7) 0.4574(5) 0.5426(5)
C145_3 C 0.2218(6) 0.3667(7) 0.6333(7)
C146_3 C 0.2223(6) 0.3971(6) 0.6029(3)
H57_3 H 0.2474 0.4070 0.5930
C147_3 C 0.1854(7) 0.4126(4) 0.5874(4)
C148_3 C 0.1479(6) 0.3978(8) 0.6022(8)
H58_3 H 0.1232 0.4081 0.5919
C149_3 C 0.1474(6) 0.3674(9) 0.6326(10)
C150_3 C 0.1843(8) 0.3519(7) 0.6481(6)
H59_3 H 0.1840 0.3316 0.6684
C151_3 C 0.2593(8) 0.3478(6) 0.6522(6)
C152_3 C 0.1838(8) 0.4450(4) 0.5550(4)
C153_3 C 0.1087(9) 0.3520(9) 0.6480(9)
C154_3 C 0.0757(7) 0.3408(9) 0.6592(9)
C155_3 C 0.0367(5) 0.3259(9) 0.6741(9)
C156_3 C 0.0373(5) 0.2955(9) 0.7045(9)
H60_3 H 0.0623 0.2855 0.7145
C116_5 C 0.6585(11) 0.3415(11) 0.0000
H44_5 H 0.6382 0.3618 0.0000
C118_5 C 0.7198(10) 0.2802(10) 0.0000
H46_5 H 0.7402 0.2598 0.0000
C119_3 C 0.6333(7) 0.3667(7) 0.2218(6)
C120_3 C 0.6029(6) 0.3971(3) 0.2223(6)
H47_3 H 0.5930 0.4070 0.2474
C121_3 C 0.5874(4) 0.4126(4) 0.1854(7)
C122_3 C 0.6022(8) 0.3978(8) 0.1479(6)
H48_3 H 0.5919 0.4081 0.1232
C123_3 C 0.6326(9) 0.3674(10) 0.1474(6)
C124_3 C 0.6481(7) 0.3519(6) 0.1843(8)
H49_3 H 0.6684 0.3316 0.1840
C125_3 C 0.6522(6) 0.3478(6) 0.2593(8)
C126_3 C 0.5550(4) 0.4450(4) 0.1838(8)
C127_3 C 0.6480(9) 0.3520(9) 0.1087(9)
C128_3 C 0.6592(9) 0.3408(9) 0.0757(7)
C129_3 C 0.6741(9) 0.3259(9) 0.0367(5)
C130_3 C 0.7045(9) 0.2955(9) 0.0373(5)
H50_3 H 0.7145 0.2855 0.0623
O43_2 O 0.5412(5) 0.4588(5) 0.8509(7)
O44_2 O 0.5426(5) 0.4574(5) 0.7801(7)
C105_3 C 0.6333(7) 0.3667(7) 0.7782(6)
C106_3 C 0.6029(3) 0.3971(6) 0.7777(6)
H41_3 H 0.5930 0.4070 0.7526
C107_3 C 0.5874(4) 0.4126(4) 0.8146(7)
C108_3 C 0.6022(8) 0.3978(8) 0.8521(6)
H42_3 H 0.5919 0.4081 0.8768
C109_3 C 0.6326(10) 0.3674(9) 0.8526(6)
C110_3 C 0.6481(6) 0.3519(7) 0.8157(8)
H43_3 H 0.6684 0.3316 0.8160
C111_3 C 0.6522(6) 0.3478(6) 0.7407(8)
C112_3 C 0.5550(4) 0.4450(4) 0.8162(8)
C113_3 C 0.6480(9) 0.3520(9) 0.8913(9)
C114_3 C 0.6592(9) 0.3408(9) 0.9243(7)
C115_3 C 0.6741(9) 0.3259(9) 0.9633(5)
C116_6 C 0.6585(11) 0.3415(11) 1.0000
H44_6 H 0.6382 0.3618 1.0000
C117_3 C 0.7045(9) 0.2955(9) 0.9627(5)
H45_3 H 0.7145 0.2855 0.9377
C118_6 C 0.7198(10) 0.2802(10) 1.0000
H46_6 H 0.7402 0.2598 1.0000
O45_2 O 0.5000 0.5000 0.9228(6)
O46_2 O 0.5000 0.5000 0.7082(6)
O53_3 O 0.8509(7) 0.4588(5) 0.5412(5)
O54_3 O 0.7801(7) 0.4574(5) 0.5426(5)
C131_3 C 0.7782(6) 0.3667(7) 0.6333(7)
C132_3 C 0.7777(6) 0.3971(3) 0.6029(6)
H51_3 H 0.7526 0.4070 0.5930
C133_3 C 0.8146(7) 0.4126(4) 0.5874(4)
C134_3 C 0.8521(6) 0.3978(8) 0.6022(8)
H52_3 H 0.8768 0.4081 0.5919
C135_3 C 0.8526(6) 0.3674(10) 0.6326(9)
C136_3 C 0.8157(8) 0.3519(6) 0.6481(7)
H53_3 H 0.8160 0.3316 0.6684
C137_3 C 0.7407(8) 0.3478(6) 0.6522(6)
C138_3 C 0.8162(8) 0.4450(4) 0.5550(4)
C139_3 C 0.8913(9) 0.3520(9) 0.6480(9)
C140_3 C 0.9243(7) 0.3408(9) 0.6592(9)
C141_3 C 0.9633(5) 0.3259(9) 0.6741(9)
C142_6 C 1.0000 0.3415(11) 0.6585(11)
H54_6 H 1.0000 0.3618 0.6382
C143_3 C 0.9627(5) 0.2955(9) 0.7045(9)
H55_3 H 0.9377 0.2855 0.7145
C144_6 C 1.0000 0.2802(10) 0.7198(10)
H56_6 H 1.0000 0.2598 0.7402
O75_2 O 0.4588(5) 0.5412(5) 0.8509(7)
O78_2 O 0.4574(5) 0.5426(5) 0.7801(7)
C116_7 C 0.3415(11) 0.6585(11) 0.0000
H44_7 H 0.3618 0.6382 0.0000
C118_7 C 0.2802(10) 0.7198(10) 0.0000
H46_7 H 0.2598 0.7402 0.0000
C119_4 C 0.3667(7) 0.6333(7) 0.2218(6)
C120_4 C 0.3971(6) 0.6029(3) 0.2223(6)
H47_4 H 0.4070 0.5930 0.2474
C121_4 C 0.4126(4) 0.5874(4) 0.1854(7)
C122_4 C 0.3978(8) 0.6022(8) 0.1479(6)
H48_4 H 0.4081 0.5919 0.1232
C123_4 C 0.3674(9) 0.6326(10) 0.1474(6)
C124_4 C 0.3519(7) 0.6481(6) 0.1843(8)
H49_4 H 0.3316 0.6684 0.1840
C125_4 C 0.3478(6) 0.6522(6) 0.2593(8)
C126_4 C 0.4450(4) 0.5550(4) 0.1838(8)
C127_4 C 0.3520(9) 0.6480(9) 0.1087(9)
C128_4 C 0.3408(9) 0.6592(9) 0.0757(7)
C129_4 C 0.3259(9) 0.6741(9) 0.0367(5)
C130_4 C 0.2955(9) 0.7045(9) 0.0373(5)
H50_4 H 0.2855 0.7145 0.0623
C105_4 C 0.3667(7) 0.6333(7) 0.7782(6)
C106_4 C 0.3971(3) 0.6029(6) 0.7777(6)
H41_4 H 0.4070 0.5930 0.7526
C107_4 C 0.4126(4) 0.5874(4) 0.8146(7)
C108_4 C 0.3978(8) 0.6022(8) 0.8521(6)
H42_4 H 0.4081 0.5919 0.8768
C109_4 C 0.3674(10) 0.6326(9) 0.8526(6)
C110_4 C 0.3519(6) 0.6481(7) 0.8157(8)
H43_4 H 0.3316 0.6684 0.8160
C111_4 C 0.3478(6) 0.6522(6) 0.7407(8)
C112_4 C 0.4450(4) 0.5550(4) 0.8162(8)
C113_4 C 0.3520(9) 0.6480(9) 0.8913(9)
C114_4 C 0.3408(9) 0.6592(9) 0.9243(7)
C115_4 C 0.3259(9) 0.6741(9) 0.9633(5)
C116_8 C 0.3415(11) 0.6585(11) 1.0000
H44_8 H 0.3618 0.6382 1.0000
C117_4 C 0.2955(9) 0.7045(9) 0.9627(5)
H45_4 H 0.2855 0.7145 0.9377
C118_8 C 0.2802(10) 0.7198(10) 1.0000
H46_8 H 0.2598 0.7402 1.0000
O53_4 O 0.1491(7) 0.5412(5) 0.5412(5)
O54_4 O 0.2199(7) 0.5426(5) 0.5426(5)
C131_4 C 0.2218(6) 0.6333(7) 0.6333(7)
C132_4 C 0.2223(6) 0.6029(3) 0.6029(6)
H51_4 H 0.2474 0.5930 0.5930
C133_4 C 0.1854(7) 0.5874(4) 0.5874(4)
C134_4 C 0.1479(6) 0.6022(8) 0.6022(8)
H52_4 H 0.1232 0.5919 0.5919
C135_4 C 0.1474(6) 0.6326(10) 0.6326(9)
C136_4 C 0.1843(8) 0.6481(6) 0.6481(7)
H53_4 H 0.1840 0.6684 0.6684
C137_4 C 0.2593(8) 0.6522(6) 0.6522(6)
C138_4 C 0.1838(8) 0.5550(4) 0.5550(4)
C139_4 C 0.1087(9) 0.6480(9) 0.6480(9)
C140_4 C 0.0757(7) 0.6592(9) 0.6592(9)
C141_4 C 0.0367(5) 0.6741(9) 0.6741(9)
C142_7 C -0.0000 0.6585(11) 0.6585(11)
H54_7 H -0.0000 0.6382 0.6382
C143_4 C 0.0373(5) 0.7045(9) 0.7045(9)
H55_4 H 0.0623 0.7145 0.7145
C144_7 C -0.0000 0.7198(10) 0.7198(10)
H56_7 H -0.0000 0.7402 0.7402
C142_8 C 1.0000 0.6585(11) 0.6585(11)
H54_8 H 1.0000 0.6382 0.6382
C144_8 C 1.0000 0.7198(10) 0.7198(10)
H56_8 H 1.0000 0.7402 0.7402
O57_4 O 0.8509(7) 0.5412(5) 0.5412(5)
O58_4 O 0.7801(7) 0.5426(5) 0.5426(5)
C145_4 C 0.7782(6) 0.6333(7) 0.6333(7)
C146_4 C 0.7777(6) 0.6029(6) 0.6029(3)
H57_4 H 0.7526 0.5930 0.5930
C147_4 C 0.8146(7) 0.5874(4) 0.5874(4)
C148_4 C 0.8521(6) 0.6022(8) 0.6022(8)
H58_4 H 0.8768 0.5919 0.5919
C149_4 C 0.8526(6) 0.6326(9) 0.6326(10)
C150_4 C 0.8157(8) 0.6481(7) 0.6481(6)
H59_4 H 0.8160 0.6684 0.6684
C151_4 C 0.7407(8) 0.6522(6) 0.6522(6)
C152_4 C 0.8162(8) 0.5550(4) 0.5550(4)
C153_4 C 0.8913(9) 0.6480(9) 0.6480(9)
C154_4 C 0.9243(7) 0.6592(9) 0.6592(9)
C155_4 C 0.9633(5) 0.6741(9) 0.6741(9)
C156_4 C 0.9627(5) 0.7045(9) 0.7045(9)
H60_4 H 0.9377 0.7145 0.7145
O45_3 O 0.0772(6) 0.5000 0.5000
O46_3 O 0.2918(6) 0.5000 0.5000
O45_4 O 0.9228(6) 0.5000 0.5000
O46_4 O 0.7082(6) 0.5000 0.5000
loop_
_geom_bond_atom_site_label_1
_geom_bond_atom_site_label_2
_geom_bond_site_symmetry_1
_geom_bond_site_symmetry_2
Zn1 O1 1_555 1_555
Zn2 O2 1_555 1_555
Zn3 O3 1_555 1_555
Zn4 O4 1_555 1_555
O1 C7 1_555 1_555
O2 C7 1_555 1_555
O3 C8 1_555 1_555
O4 C8 1_555 1_555
C1 C2 1_555 1_555
C2 H1 1_555 1_555
C3 C2 1_555 1_555
C4 C3 1_555 1_555
H2 C4 1_555 1_555
C5 C4 1_555 1_555
C6 C1 1_555 1_555
H3 C6 1_555 1_555
C7 C1 1_555 1_555
C8 C3 1_555 1_555
C9 C5 1_555 1_555
C10 C9 1_555 1_555
C11 C10 1_555 1_555
C12 C11 1_555 1_555
H4 C12 1_555 1_555
C13 C11 1_555 1_555
H5 C13 1_555 1_555
C14 C13 1_555 1_555
H6 C14 1_555 1_555
O5 Zn1 1_555 1_555
O6 Zn2 1_555 1_555
O7 Zn3 1_555 1_555
O8 Zn4 1_555 1_555
H14 C38 1_555 1_555
H16 C40 1_555 1_555
O19 C47 1_555 1_555
O20 C47 1_555 1_555
O21 Zn3 1_555 1_555
O22 Zn4 1_555 1_555
C41 C42 1_555 1_555
C42 H17 1_555 1_555
C43 C42 1_555 1_555
C44 C43 1_555 1_555
H18 C44 1_555 1_555
C45 C44 1_555 1_555
C46 C41 1_555 1_555
H19 C46 1_555 1_555
C47 C41 1_555 1_555
C48 O21 1_555 1_555
C49 C45 1_555 1_555
C50 C49 1_555 1_555
C51 C38 1_555 1_555
C52 C40 1_555 1_555
H20 C52 1_555 1_555
Zn7 O23 1_555 1_555
Zn8 O24 1_555 1_555
O23 C59 1_555 1_555
O24 C59 1_555 1_555
O25 Zn3 1_555 1_555
O26 Zn4 1_555 1_555
C53 C54 1_555 1_555
C54 H21 1_555 1_555
C55 C54 1_555 1_555
C56 C55 1_555 1_555
H22 C56 1_555 1_555
C57 C56 1_555 1_555
C58 C53 1_555 1_555
H23 C58 1_555 1_555
C59 C53 1_555 1_555
C60 O25 1_555 1_555
C61 C57 1_555 1_555
C62 C61 1_555 1_555
C63 C62 1_555 1_555
C64 C63 1_555 1_555
H24 C64 1_555 1_555
C65 C63 1_555 1_555
H25 C65 1_555 1_555
C66 C65 1_555 1_555
H26 C66 1_555 1_555
O27 Zn7 1_555 1_555
O28 Zn8 1_555 1_555
H34 C90 1_555 1_555
H36 C92 1_555 1_555
O37 C99 1_555 1_555
O38 C99 1_555 1_555
O39 Zn3 1_555 1_555
O40 Zn4 1_555 1_555
C93 C94 1_555 1_555
C94 H37 1_555 1_555
C95 C94 1_555 1_555
C96 C95 1_555 1_555
H38 C96 1_555 1_555
C97 C96 1_555 1_555
C98 C93 1_555 1_555
H39 C98 1_555 1_555
C99 C93 1_555 1_555
C100 O39 1_555 1_555
C101 C97 1_555 1_555
C102 C101 1_555 1_555
C103 C90 1_555 1_555
C104 C92 1_555 1_555
H40 C104 1_555 1_555
Zn9 O43 1_555 1_555
Zn10 O44 1_555 1_555
O41 Zn1 1_555 1_555
O42 Zn2 1_555 1_555
O43 C112 1_555 1_555
O44 C112 1_555 1_555
C105 C106 1_555 1_555
C106 H41 1_555 1_555
C107 C106 1_555 1_555
C108 C107 1_555 1_555
H42 C108 1_555 1_555
C109 C108 1_555 1_555
C110 C105 1_555 1_555
H43 C110 1_555 1_555
C111 O41 1_555 1_555
C112 C107 1_555 1_555
C113 C109 1_555 1_555
C114 C113 1_555 1_555
C115 C114 1_555 1_555
C116 C115 1_555 1_555
H44 C116 1_555 1_555
C117 C115 1_555 1_555
H45 C117 1_555 1_555
C118 C117 1_555 1_555
H46 C118 1_555 1_555
O45 Zn9 1_555 1_555
O46 Zn10 1_555 1_555
O51 Zn1 1_555 1_555
O52 Zn2 1_555 1_555
O53 C138 1_555 1_555
O54 C138 1_555 1_555
C131 C132 1_555 1_555
C132 H51 1_555 1_555
C133 C132 1_555 1_555
C134 C133 1_555 1_555
H52 C134 1_555 1_555
C135 C134 1_555 1_555
C136 C131 1_555 1_555
H53 C136 1_555 1_555
C137 O51 1_555 1_555
C138 C133 1_555 1_555
C139 C135 1_555 1_555
C140 C139 1_555 1_555
C141 C140 1_555 1_555
C142 C141 1_555 1_555
H54 C142 1_555 1_555
C143 C141 1_555 1_555
H55 C143 1_555 1_555
C144 C143 1_555 1_555
H56 C144 1_555 1_555
Zn11 O37 1_555 1_555
Zn12 O38 1_555 1_555
O59 Zn11 1_555 1_555
O60 Zn12 1_555 1_555
Zn20 O19 1_555 1_555
Zn26 O20 1_555 1_555
Zn28 O53 1_555 1_555
Zn31 O54 1_555 1_555
O63 Zn7 1_555 1_555
O64 Zn7 1_555 1_555
O65 Zn11 1_555 1_555
O67 Zn11 1_555 1_555
O69 Zn8 1_555 1_555
O70 Zn8 1_555 1_555
O71 Zn12 1_555 1_555
O73 Zn12 1_555 1_555
O75 Zn9 1_555 1_555
O76 Zn9 1_555 1_555
O77 Zn9 1_555 1_555
O78 Zn10 1_555 1_555
O79 Zn10 1_555 1_555
O80 Zn10 1_555 1_555
C5 C6 1_555 1_555
O22 C48 1_555 1_555
C43 C48 1_555 1_555
C45 C46 1_555 1_555
C50 C51 1_555 1_555
C51 C52 1_555 1_555
O26 C60 1_555 1_555
C55 C60 1_555 1_555
C57 C58 1_555 1_555
O40 C100 1_555 1_555
C95 C100 1_555 1_555
C97 C98 1_555 1_555
C102 C103 1_555 1_555
C103 C104 1_555 1_555
O42 C111 1_555 1_555
C105 C111 1_555 1_555
C109 C110 1_555 1_555
O52 C137 1_555 1_555
C131 C137 1_555 1_555
C135 C136 1_555 1_555
H44_2 C116_2 1_555 1_555
H46_2 C118_2 1_555 1_555
O67 C125 1_555 1_555
O73 C125 1_555 1_555
O49 C126 1_555 1_555
O50 C126 1_555 1_555
C119 C120 1_555 1_555
C120 H47 1_555 1_555
C121 C120 1_555 1_555
C122 C121 1_555 1_555
H48 C122 1_555 1_555
C123 C122 1_555 1_555
C124 C119 1_555 1_555
H49 C124 1_555 1_555
C125 C119 1_555 1_555
C126 C121 1_555 1_555
C127 C123 1_555 1_555
C128 C127 1_555 1_555
C129 C116_2 1_555 1_555
C130 C118_2 1_555 1_555
H50 C130 1_555 1_555
Zn27 O49 1_555 1_555
Zn30 O50 1_555 1_555
C123 C124 1_555 1_555
C128 C129 1_555 1_555
C129 C130 1_555 1_555
H4_2 C12_2 1_555 1_555
H6_2 C14_2 1_555 1_555
O9 C21 1_555 1_555
O10 C21 1_555 1_555
O11 C22 1_555 1_555
O12 C22 1_555 1_555
C15 C16 1_555 1_555
C16 H7 1_555 1_555
C17 C16 1_555 1_555
C18 C17 1_555 1_555
H8 C18 1_555 1_555
C19 C18 1_555 1_555
C20 C15 1_555 1_555
H9 C20 1_555 1_555
C21 C15 1_555 1_555
C22 C17 1_555 1_555
C23 C19 1_555 1_555
C24 C23 1_555 1_555
C25 C12_2 1_555 1_555
C26 C14_2 1_555 1_555
H10 C26 1_555 1_555
Zn5 O11 1_555 1_555
Zn6 O12 1_555 1_555
O13 C33 1_555 1_555
O14 C33 1_555 1_555
O15 Zn5 1_555 1_555
O16 Zn6 1_555 1_555
C27 C28 1_555 1_555
C28 H11 1_555 1_555
C29 C28 1_555 1_555
C30 C29 1_555 1_555
H12 C30 1_555 1_555
C31 C30 1_555 1_555
C32 C27 1_555 1_555
H13 C32 1_555 1_555
C33 C27 1_555 1_555
C34 O15 1_555 1_555
C35 C31 1_555 1_555
C36 C35 1_555 1_555
C37 C36 1_555 1_555
C38_2 C37 1_555 1_555
H14_2 C38_2 1_555 1_555
C39 C37 1_555 1_555
H15 C39 1_555 1_555
C40_2 C39 1_555 1_555
H16_2 C40_2 1_555 1_555
O17 Zn5 1_555 1_555
O18 Zn6 1_555 1_555
H24_2 C64_2 1_555 1_555
H26_2 C66_2 1_555 1_555
O29 C73 1_555 1_555
O30 C73 1_555 1_555
O31 Zn5 1_555 1_555
O32 Zn6 1_555 1_555
C67 C68 1_555 1_555
C68 H27 1_555 1_555
C69 C68 1_555 1_555
C70 C69 1_555 1_555
H28 C70 1_555 1_555
C71 C70 1_555 1_555
C72 C67 1_555 1_555
H29 C72 1_555 1_555
C73 C67 1_555 1_555
C74 O31 1_555 1_555
C75 C71 1_555 1_555
C76 C75 1_555 1_555
C77 C64_2 1_555 1_555
C78 C66_2 1_555 1_555
H30 C78 1_555 1_555
O33 C85 1_555 1_555
O34 C85 1_555 1_555
O35 Zn5 1_555 1_555
O36 Zn6 1_555 1_555
C79 C80 1_555 1_555
C80 H31 1_555 1_555
C81 C80 1_555 1_555
C82 C81 1_555 1_555
H32 C82 1_555 1_555
C83 C82 1_555 1_555
C84 C79 1_555 1_555
H33 C84 1_555 1_555
C85 C79 1_555 1_555
C86 O35 1_555 1_555
C87 C83 1_555 1_555
C88 C87 1_555 1_555
C89 C88 1_555 1_555
C90_2 C89 1_555 1_555
H34_2 C90_2 1_555 1_555
C91 C89 1_555 1_555
H35 C91 1_555 1_555
C92_2 C91 1_555 1_555
H36_2 C92_2 1_555 1_555
Zn13 O9 1_555 1_555
Zn14 O10 1_555 1_555
O61 Zn13 1_555 1_555
O62 Zn14 1_555 1_555
Zn15 O13 1_555 1_555
Zn16 O33 1_555 1_555
Zn18 O29 1_555 1_555
Zn21 O14 1_555 1_555
Zn22 O34 1_555 1_555
Zn24 O30 1_555 1_555
O66 Zn13 1_555 1_555
O68 Zn13 1_555 1_555
O72 Zn14 1_555 1_555
O74 Zn14 1_555 1_555
C19 C20 1_555 1_555
C24 C25 1_555 1_555
C25 C26 1_555 1_555
O16 C34 1_555 1_555
C29 C34 1_555 1_555
C31 C32 1_555 1_555
O32 C74 1_555 1_555
C69 C74 1_555 1_555
C71 C72 1_555 1_555
C76 C77 1_555 1_555
C77 C78 1_555 1_555
O36 C86 1_555 1_555
C81 C86 1_555 1_555
C83 C84 1_555 1_555
H54_2 C142_2 1_555 1_555
H56_2 C144_2 1_555 1_555
O55 C151 1_555 1_555
O56 C151 1_555 1_555
O57 C152 1_555 1_555
O58 C152 1_555 1_555
C145 C146 1_555 1_555
C146 H57 1_555 1_555
C147 C146 1_555 1_555
C148 C147 1_555 1_555
H58 C148 1_555 1_555
C149 C148 1_555 1_555
C150 C145 1_555 1_555
H59 C150 1_555 1_555
C151 C145 1_555 1_555
C152 C147 1_555 1_555
C153 C149 1_555 1_555
C154 C153 1_555 1_555
C155 C142_2 1_555 1_555
C156 C144_2 1_555 1_555
H60 C156 1_555 1_555
Zn20 O55 1_555 1_555
Zn26 O56 1_555 1_555
Zn29 O57 1_555 1_555
Zn32 O58 1_555 1_555
C149 C150 1_555 1_555
C154 C155 1_555 1_555
C155 C156 1_555 1_555
H54_3 C142_3 1_555 1_555
H56_3 C144_3 1_555 1_555
O66 C151_2 1_555 1_555
O72 C151_2 1_555 1_555
O57_2 C152_2 1_555 1_555
O58_2 C152_2 1_555 1_555
C145_2 C146_2 1_555 1_555
C146_2 H57_2 1_555 1_555
C147_2 C146_2 1_555 1_555
C148_2 C147_2 1_555 1_555
H58_2 C148_2 1_555 1_555
C149_2 C148_2 1_555 1_555
C150_2 C145_2 1_555 1_555
H59_2 C150_2 1_555 1_555
C151_2 C145_2 1_555 1_555
C152_2 C147_2 1_555 1_555
C153_2 C149_2 1_555 1_555
C154_2 C153_2 1_555 1_555
C155_2 C142_3 1_555 1_555
C156_2 C144_3 1_555 1_555
H60_2 C156_2 1_555 1_555
Zn28 O57_2 1_555 1_555
Zn31 O58_2 1_555 1_555
C149_2 C150_2 1_555 1_555
C154_2 C155_2 1_555 1_555
C155_2 C156_2 1_555 1_555
O61_2 Zn20 1_555 1_555
O62_2 Zn26 1_555 1_555
O68_2 Zn20 1_555 1_555
O74_2 Zn26 1_555 1_555
O5_2 Zn15 1_555 1_555
O6_2 Zn21 1_555 1_555
O27_2 Zn16 1_555 1_555
O28_2 Zn22 1_555 1_555
O41_2 Zn15 1_555 1_555
O42_2 Zn21 1_555 1_555
O75 C112_2 1_555 1_555
O78 C112_2 1_555 1_555
C105_2 C106_2 1_555 1_555
C106_2 H41_2 1_555 1_555
C107_2 C106_2 1_555 1_555
C108_2 C107_2 1_555 1_555
H42_2 C108_2 1_555 1_555
C109_2 C108_2 1_555 1_555
C110_2 C105_2 1_555 1_555
H43_2 C110_2 1_555 1_555
C111_2 O41_2 1_555 1_555
C112_2 C107_2 1_555 1_555
C113_2 C109_2 1_555 1_555
C114_2 C113_2 1_555 1_555
C115_2 C114_2 1_555 1_555
C116_3 C115_2 1_555 1_555
H44_3 C116_3 1_555 1_555
C117_2 C115_2 1_555 1_555
H45_2 C117_2 1_555 1_555
C118_3 C117_2 1_555 1_555
H46_3 C118_3 1_555 1_555
O51_2 Zn15 1_555 1_555
O52_2 Zn21 1_555 1_555
O53_2 C138_2 1_555 1_555
O54_2 C138_2 1_555 1_555
C131_2 C132_2 1_555 1_555
C132_2 H51_2 1_555 1_555
C133_2 C132_2 1_555 1_555
C134_2 C133_2 1_555 1_555
H52_2 C134_2 1_555 1_555
C135_2 C134_2 1_555 1_555
C136_2 C131_2 1_555 1_555
H53_2 C136_2 1_555 1_555
C137_2 O51_2 1_555 1_555
C138_2 C133_2 1_555 1_555
C139_2 C135_2 1_555 1_555
C140_2 C139_2 1_555 1_555
C141_2 C140_2 1_555 1_555
C142_4 C141_2 1_555 1_555
H54_4 C142_4 1_555 1_555
C143_2 C141_2 1_555 1_555
H55_2 C143_2 1_555 1_555
C144_4 C143_2 1_555 1_555
H56_4 C144_4 1_555 1_555
O59_2 Zn18 1_555 1_555
O60_2 Zn24 1_555 1_555
Zn29 O53_2 1_555 1_555
Zn32 O54_2 1_555 1_555
O63_2 Zn16 1_555 1_555
O64_2 Zn16 1_555 1_555
O65_2 Zn18 1_555 1_555
O67_2 Zn18 1_555 1_555
O69_2 Zn22 1_555 1_555
O70_2 Zn22 1_555 1_555
O71_2 Zn24 1_555 1_555
O73_2 Zn24 1_555 1_555
O42_2 C111_2 1_555 1_555
C105_2 C111_2 1_555 1_555
C109_2 C110_2 1_555 1_555
O52_2 C137_2 1_555 1_555
C131_2 C137_2 1_555 1_555
C135_2 C136_2 1_555 1_555
H44_4 C116_4 1_555 1_555
H46_4 C118_4 1_555 1_555
O67_2 C125_2 1_555 1_555
O73_2 C125_2 1_555 1_555
O49_2 C126_2 1_555 1_555
O50_2 C126_2 1_555 1_555
C119_2 C120_2 1_555 1_555
C120_2 H47_2 1_555 1_555
C121_2 C120_2 1_555 1_555
C122_2 C121_2 1_555 1_555
H48_2 C122_2 1_555 1_555
C123_2 C122_2 1_555 1_555
C124_2 C119_2 1_555 1_555
H49_2 C124_2 1_555 1_555
C125_2 C119_2 1_555 1_555
C126_2 C121_2 1_555 1_555
C127_2 C123_2 1_555 1_555
C128_2 C127_2 1_555 1_555
C129_2 C116_4 1_555 1_555
C130_2 C118_4 1_555 1_555
H50_2 C130_2 1_555 1_555
Zn27 O49_2 1_555 1_555
Zn30 O50_2 1_555 1_555
C123_2 C124_2 1_555 1_555
C128_2 C129_2 1_555 1_555
C129_2 C130_2 1_555 1_555
H54_5 C142_5 1_555 1_555
H56_5 C144_5 1_555 1_555
O65 C151_3 1_555 1_555
O71 C151_3 1_555 1_555
O57_3 C152_3 1_555 1_555
O58_3 C152_3 1_555 1_555
C145_3 C146_3 1_555 1_555
C146_3 H57_3 1_555 1_555
C147_3 C146_3 1_555 1_555
C148_3 C147_3 1_555 1_555
H58_3 C148_3 1_555 1_555
C149_3 C148_3 1_555 1_555
C150_3 C145_3 1_555 1_555
H59_3 C150_3 1_555 1_555
C151_3 C145_3 1_555 1_555
C152_3 C147_3 1_555 1_555
C153_3 C149_3 1_555 1_555
C154_3 C153_3 1_555 1_555
C155_3 C142_5 1_555 1_555
C156_3 C144_5 1_555 1_555
H60_3 C156_3 1_555 1_555
Zn28 O57_3 1_555 1_555
Zn31 O58_3 1_555 1_555
C149_3 C150_3 1_555 1_555
C154_3 C155_3 1_555 1_555
C155_3 C156_3 1_555 1_555
H44_5 C116_5 1_555 1_555
H46_5 C118_5 1_555 1_555
O68_2 C125_3 1_555 1_555
O74_2 C125_3 1_555 1_555
O76 C126_3 1_555 1_555
O79 C126_3 1_555 1_555
C119_3 C120_3 1_555 1_555
C120_3 H47_3 1_555 1_555
C121_3 C120_3 1_555 1_555
C122_3 C121_3 1_555 1_555
H48_3 C122_3 1_555 1_555
C123_3 C122_3 1_555 1_555
C124_3 C119_3 1_555 1_555
H49_3 C124_3 1_555 1_555
C125_3 C119_3 1_555 1_555
C126_3 C121_3 1_555 1_555
C127_3 C123_3 1_555 1_555
C128_3 C127_3 1_555 1_555
C129_3 C116_5 1_555 1_555
C130_3 C118_5 1_555 1_555
H50_3 C130_3 1_555 1_555
C123_3 C124_3 1_555 1_555
C128_3 C129_3 1_555 1_555
C129_3 C130_3 1_555 1_555
Zn27 O43_2 1_555 1_555
Zn30 O44_2 1_555 1_555
O43_2 C112_3 1_555 1_555
O44_2 C112_3 1_555 1_555
C105_3 C106_3 1_555 1_555
C106_3 H41_3 1_555 1_555
C107_3 C106_3 1_555 1_555
C108_3 C107_3 1_555 1_555
H42_3 C108_3 1_555 1_555
C109_3 C108_3 1_555 1_555
C110_3 C105_3 1_555 1_555
H43_3 C110_3 1_555 1_555
C111_3 O63 1_555 1_555
C112_3 C107_3 1_555 1_555
C113_3 C109_3 1_555 1_555
C114_3 C113_3 1_555 1_555
C115_3 C114_3 1_555 1_555
C116_6 C115_3 1_555 1_555
H44_6 C116_6 1_555 1_555
C117_3 C115_3 1_555 1_555
H45_3 C117_3 1_555 1_555
C118_6 C117_3 1_555 1_555
H46_6 C118_6 1_555 1_555
O45_2 Zn27 1_555 1_555
O46_2 Zn30 1_555 1_555
O53_3 C138_3 1_555 1_555
O54_3 C138_3 1_555 1_555
C131_3 C132_3 1_555 1_555
C132_3 H51_3 1_555 1_555
C133_3 C132_3 1_555 1_555
C134_3 C133_3 1_555 1_555
H52_3 C134_3 1_555 1_555
C135_3 C134_3 1_555 1_555
C136_3 C131_3 1_555 1_555
H53_3 C136_3 1_555 1_555
C137_3 O64 1_555 1_555
C138_3 C133_3 1_555 1_555
C139_3 C135_3 1_555 1_555
C140_3 C139_3 1_555 1_555
C141_3 C140_3 1_555 1_555
C142_6 C141_3 1_555 1_555
H54_6 C142_6 1_555 1_555
C143_3 C141_3 1_555 1_555
H55_3 C143_3 1_555 1_555
C144_6 C143_3 1_555 1_555
H56_6 C144_6 1_555 1_555
Zn29 O53_3 1_555 1_555
Zn32 O54_3 1_555 1_555
O75_2 Zn27 1_555 1_555
O78_2 Zn30 1_555 1_555
O69 C111_3 1_555 1_555
C105_3 C111_3 1_555 1_555
C109_3 C110_3 1_555 1_555
O70 C137_3 1_555 1_555
C131_3 C137_3 1_555 1_555
C135_3 C136_3 1_555 1_555
H44_7 C116_7 1_555 1_555
H46_7 C118_7 1_555 1_555
O68 C125_4 1_555 1_555
O74 C125_4 1_555 1_555
O77 C126_4 1_555 1_555
O80 C126_4 1_555 1_555
C119_4 C120_4 1_555 1_555
C120_4 H47_4 1_555 1_555
C121_4 C120_4 1_555 1_555
C122_4 C121_4 1_555 1_555
H48_4 C122_4 1_555 1_555
C123_4 C122_4 1_555 1_555
C124_4 C119_4 1_555 1_555
H49_4 C124_4 1_555 1_555
C125_4 C119_4 1_555 1_555
C126_4 C121_4 1_555 1_555
C127_4 C123_4 1_555 1_555
C128_4 C127_4 1_555 1_555
C129_4 C116_7 1_555 1_555
C130_4 C118_7 1_555 1_555
H50_4 C130_4 1_555 1_555
C123_4 C124_4 1_555 1_555
C128_4 C129_4 1_555 1_555
C129_4 C130_4 1_555 1_555
O75_2 C112_4 1_555 1_555
O78_2 C112_4 1_555 1_555
C105_4 C106_4 1_555 1_555
C106_4 H41_4 1_555 1_555
C107_4 C106_4 1_555 1_555
C108_4 C107_4 1_555 1_555
H42_4 C108_4 1_555 1_555
C109_4 C108_4 1_555 1_555
C110_4 C105_4 1_555 1_555
H43_4 C110_4 1_555 1_555
C111_4 O63_2 1_555 1_555
C112_4 C107_4 1_555 1_555
C113_4 C109_4 1_555 1_555
C114_4 C113_4 1_555 1_555
C115_4 C114_4 1_555 1_555
C116_8 C115_4 1_555 1_555
H44_8 C116_8 1_555 1_555
C117_4 C115_4 1_555 1_555
H45_4 C117_4 1_555 1_555
C118_8 C117_4 1_555 1_555
H46_8 C118_8 1_555 1_555
O53_4 C138_4 1_555 1_555
O54_4 C138_4 1_555 1_555
C131_4 C132_4 1_555 1_555
C132_4 H51_4 1_555 1_555
C133_4 C132_4 1_555 1_555
C134_4 C133_4 1_555 1_555
H52_4 C134_4 1_555 1_555
C135_4 C134_4 1_555 1_555
C136_4 C131_4 1_555 1_555
H53_4 C136_4 1_555 1_555
C137_4 O64_2 1_555 1_555
C138_4 C133_4 1_555 1_555
C139_4 C135_4 1_555 1_555
C140_4 C139_4 1_555 1_555
C141_4 C140_4 1_555 1_555
C142_7 C141_4 1_555 1_555
H54_7 C142_7 1_555 1_555
C143_4 C141_4 1_555 1_555
H55_4 C143_4 1_555 1_555
C144_7 C143_4 1_555 1_555
H56_7 C144_7 1_555 1_555
Zn28 O53_4 1_555 1_555
Zn31 O54_4 1_555 1_555
O69_2 C111_4 1_555 1_555
C105_4 C111_4 1_555 1_555
C109_4 C110_4 1_555 1_555
O70_2 C137_4 1_555 1_555
C131_4 C137_4 1_555 1_555
C135_4 C136_4 1_555 1_555
H54_8 C142_8 1_555 1_555
H56_8 C144_8 1_555 1_555
O65_2 C151_4 1_555 1_555
O71_2 C151_4 1_555 1_555
O57_4 C152_4 1_555 1_555
O58_4 C152_4 1_555 1_555
C145_4 C146_4 1_555 1_555
C146_4 H57_4 1_555 1_555
C147_4 C146_4 1_555 1_555
C148_4 C147_4 1_555 1_555
H58_4 C148_4 1_555 1_555
C149_4 C148_4 1_555 1_555
C150_4 C145_4 1_555 1_555
H59_4 C150_4 1_555 1_555
C151_4 C145_4 1_555 1_555
C152_4 C147_4 1_555 1_555
C153_4 C149_4 1_555 1_555
C154_4 C153_4 1_555 1_555
C155_4 C142_8 1_555 1_555
C156_4 C144_8 1_555 1_555
H60_4 C156_4 1_555 1_555
Zn29 O57_4 1_555 1_555
Zn32 O58_4 1_555 1_555
C149_4 C150_4 1_555 1_555
C154_4 C155_4 1_555 1_555
C155_4 C156_4 1_555 1_555
O45_3 Zn28 1_555 1_555
O46_3 Zn31 1_555 1_555
O45_4 Zn29 1_555 1_555
O46_4 Zn32 1_555 1_555

#END
