
###############################################################################
#
# This file contains modified crystal structure data generated from the
# MOF subset of the Cambridge Structural Database (CSD) v543 
# hosted by the Cambridge Crystallographic Data Centre (CCDC).
#
# This work is licensed under the Creative Commons
# Attribution-NonCommercial-ShareAlike 4.0 International License.
# To view a copy of this license, visit
# http://creativecommons.org/licenses/by-nc-sa/4.0/
# or send a letter to
# Creative Commons, PO Box 1866, Mountain View, CA 94042, USA.
#
# CIF created using the CSD Python API on 29 September 2022
# The structure has been converted into the P1 space group
# The structure has a 3D framework
# The original CSD entry YOFLUB is in the monoclinic crystal system
# The framework has been calculated to contain at least 10.0% void space
# The void calculation uses a probe of radius 1.32A, grid spacing 0.4
# H atom positions have been added when not included in the experimental data
# Generated hydrogen atom positions removed from atoms on special positions
#
###############################################################################

data_YOFLUB
_chemical_formula_moiety         '(C160 H160 Cu13 Mo20 N32 O100 P8 4+)n'
_symmetry_cell_setting           triclinic
_symmetry_space_group_name_H-M   'P 1'
_symmetry_Int_Tables_number      1
_space_group_name_Hall           'P 1'
loop_
_symmetry_equiv_pos_site_id
_symmetry_equiv_pos_as_xyz
1 x,y,z
_cell_length_a                   13.9590(5)
_cell_length_b                   22.4850(7)
_cell_length_c                   19.1568(6)
_cell_angle_alpha                90
_cell_angle_beta                 97.778(2)
_cell_angle_gamma                90
_cell_volume                     5957.39
loop_
_atom_site_label
_atom_site_type_symbol
_atom_site_fract_x
_atom_site_fract_y
_atom_site_fract_z
N6 N 0.1068(5) 0.5130(4) 0.3890(4)
C26 C 0.0569(6) 0.4617(4) 0.3768(5)
H23 H 0.0903 0.4289 0.3629
C30 C 0.0538(6) 0.5581(4) 0.4085(5)
H26 H 0.0848 0.5945 0.4176
Cu8 Cu 0.24088(4) 0.76324(2) 0.73209(3)
N13 N 0.1465(3) 0.75495(17) 0.64318(19)
C51 C 0.0668(4) 0.7205(2) 0.6391(2)
H45 H 0.0528 0.7017 0.6798
C52 C 0.0057(4) 0.7119(2) 0.5775(3)
C53 C 0.0248(3) 0.7394(2) 0.5160(2)
C54 C 0.1057(4) 0.7756(2) 0.5204(2)
H47 H 0.1205 0.7954 0.4806
C55 C 0.1648(3) 0.7823(2) 0.5848(2)
H48 H 0.2189 0.8067 0.5870
H51 H 0.0595 0.7447 0.3835
N2 N 0.7572(3) 0.14398(17) 0.2797(2)
C6 C 0.8400(4) 0.1124(2) 0.2843(3)
H7 H 0.8983 0.1329 0.2878
C7 C 0.8423(4) 0.0506(2) 0.2840(3)
H8 H 0.9012 0.0307 0.2876
C8 C 0.7558(4) 0.0185(2) 0.2782(3)
C9 C 0.6711(4) 0.0515(2) 0.2759(3)
H9 H 0.6119 0.0321 0.2736
C10 C 0.6745(4) 0.1130(2) 0.2769(3)
H10 H 0.6168 0.1338 0.2756
Cu5 Cu 0.75912(4) 0.23676(2) 0.26791(3)
Mo1 Mo 0.51362(3) 0.705635(17) 0.33774(2)
Mo2 Mo 0.56778(3) 0.676854(17) 0.51482(2)
Mo3 Mo 0.44223(3) 0.771625(18) 0.60311(2)
Mo4 Mo 0.35624(3) 0.888562(18) 0.47503(2)
Mo5 Mo 0.37965(3) 0.830679(19) 0.31454(2)
Cu1 Cu 0.74088(4) 0.73676(2) 0.23209(3)
Cu2 Cu 0.5000 0.5000 0.5000
P1 P 0.33320(9) 0.72994(5) 0.44460(6)
P2 P 0.56590(9) 0.81959(5) 0.45814(6)
O1 O 0.4219(2) 0.69477(13) 0.42593(17)
O2 O 0.6012(2) 0.68921(14) 0.42274(16)
O3 O 0.5213(2) 0.80116(13) 0.38336(16)
O4 O 0.4018(2) 0.74722(14) 0.29405(16)
O5 O 0.6022(2) 0.72781(14) 0.28779(16)
O6 O 0.4885(3) 0.63537(14) 0.30743(18)
O7 O 0.5407(2) 0.77178(13) 0.51186(16)
O8 O 0.4955(3) 0.69472(14) 0.59188(17)
O9 O 0.5317(2) 0.60354(14) 0.50793(17)
O10 O 0.6811(3) 0.67468(16) 0.55952(19)
O11 O 0.3879(3) 0.84077(15) 0.55699(17)
O12 O 0.3322(2) 0.73001(14) 0.52256(17)
O13 O 0.3635(2) 0.75749(14) 0.66318(16)
O14 O 0.5363(3) 0.80382(16) 0.65554(18)
O15 O 0.3367(3) 0.79371(14) 0.41467(17)
O16 O 0.3744(3) 0.89539(14) 0.37825(17)
O17 O 0.5239(2) 0.87855(13) 0.47737(16)
O18 O 0.2322(3) 0.88817(16) 0.4683(2)
O19 O 0.3863(3) 0.95837(15) 0.50591(19)
O20 O 0.2647(3) 0.83259(17) 0.2709(2)
O21 O 0.4475(3) 0.86366(17) 0.2577(2)
O22 O 0.2387(3) 0.69915(17) 0.4111(2)
H1 H 0.2370 0.6982 0.3682
O23 O 0.6762(2) 0.82112(15) 0.4634(2)
H2 H 0.6923 0.8463 0.4362
N1 N 0.7457(3) 0.82898(16) 0.2491(2)
N3 N 0.6465(3) 0.74505(17) 0.14318(19)
N5 N 0.6147(3) 0.48998(19) 0.4434(2)
N7 N 0.5952(3) 0.49161(18) 0.5902(2)
N8 N 0.9029(4) 0.4299(2) 0.9019(2)
C1 C 0.8150(4) 0.8627(2) 0.2268(3)
H3 H 0.8607 0.8442 0.2029
C2 C 0.8218(4) 0.9234(2) 0.2374(3)
H4 H 0.8720 0.9447 0.2219
C3 C 0.7538(4) 0.9524(2) 0.2712(3)
C4 C 0.6833(4) 0.9175(2) 0.2951(3)
H5 H 0.6364 0.9350 0.3186
C5 C 0.6822(4) 0.8563(2) 0.2841(3)
H6 H 0.6353 0.8336 0.3018
C11 C 0.5668(4) 0.7795(2) 0.1391(2)
H11 H 0.5528 0.7983 0.1798
C12 C 0.5057(4) 0.7881(2) 0.0775(3)
H12 H 0.4515 0.8122 0.0770
C13 C 0.5248(3) 0.7606(2) 0.0160(2)
C14 C 0.6057(4) 0.7244(2) 0.0204(2)
C15 C 0.6648(3) 0.7177(2) 0.0848(2)
H14 H 0.7189 0.6933 0.0870
C21 C 0.6490(4) 0.5398(2) 0.4162(3)
H19 H 0.6077 0.5721 0.4068
C22 C 0.7421(4) 0.5446(2) 0.4018(3)
H20 H 0.7632 0.5800 0.3839
C23 C 0.8054(4) 0.4968(3) 0.4139(3)
C24 C 0.7678(4) 0.4436(2) 0.4365(3)
H21 H 0.8058 0.4095 0.4423
C25 C 0.6731(4) 0.4426(2) 0.4500(3)
H22 H 0.6485 0.4069 0.4644
C27 C 0.9608(5) 0.4542(3) 0.3831(4)
H24 H 0.9310 0.4176 0.3730
C28 C 0.9087(5) 0.5016(3) 0.4048(3)
C29 C 0.9567(5) 0.5552(3) 0.4163(4)
H25 H 0.9244 0.5888 0.4291
C31 C 0.6278(6) 0.5367(2) 0.6338(3)
H27 H 0.6059 0.5750 0.6223
C32 C 0.6916(6) 0.5286(2) 0.6942(3)
H28 H 0.7130 0.5610 0.7222
C33 C 0.7234(4) 0.4721(2) 0.7128(3)
C34 C 0.6917(4) 0.4257(2) 0.6682(3)
H29 H 0.7127 0.3870 0.6786
C35 C 0.6288(4) 0.4377(2) 0.6084(3)
H30 H 0.6084 0.4061 0.5787
C36 C 0.9239(5) 0.4776(3) 0.8662(3)
H31 H 0.9766 0.5012 0.8834
C37 C 0.8688(5) 0.4923(2) 0.8047(3)
H32 H 0.8850 0.5252 0.7792
C38 C 0.7883(4) 0.4581(2) 0.7795(3)
C39 C 0.7674(5) 0.4086(3) 0.8180(3)
H33 H 0.7139 0.3850 0.8029
C40 C 0.8272(5) 0.3954(3) 0.8785(3)
H34 H 0.8151 0.3616 0.9040
Mo6 Mo 0.48638(3) 0.294365(17) 0.66226(2)
Mo7 Mo 0.43222(3) 0.323146(17) 0.48518(2)
Mo8 Mo 0.55777(3) 0.228375(18) 0.39689(2)
Mo9 Mo 0.64376(3) 0.111438(18) 0.52497(2)
Mo10 Mo 0.62035(3) 0.169321(19) 0.68546(2)
Cu3 Cu 0.25912(4) 0.26324(2) 0.76791(3)
P3 P 0.66680(9) 0.27006(5) 0.55540(6)
P4 P 0.43410(9) 0.18041(5) 0.54186(6)
O24 O 0.5781(2) 0.30523(13) 0.57407(17)
O25 O 0.3988(2) 0.31079(14) 0.57726(16)
O26 O 0.4787(2) 0.19884(13) 0.61664(16)
O27 O 0.5982(2) 0.25278(14) 0.70595(16)
O28 O 0.3978(2) 0.27219(14) 0.71221(16)
O29 O 0.5115(3) 0.36463(14) 0.69257(18)
O30 O 0.4593(2) 0.22822(13) 0.48814(16)
O31 O 0.5045(3) 0.30528(14) 0.40812(17)
O32 O 0.4683(2) 0.39646(14) 0.49207(17)
O33 O 0.3189(3) 0.32532(16) 0.44048(19)
O34 O 0.6121(3) 0.15923(15) 0.44301(17)
O35 O 0.6678(2) 0.26999(14) 0.47744(17)
O36 O 0.6365(2) 0.24251(14) 0.33682(16)
O37 O 0.8635(2) 0.74251(14) 0.16318(16)
O38 O 0.1365(2) 0.25749(14) 0.83682(16)
O39 O 0.4637(3) 0.19618(16) 0.34446(18)
O40 O 0.6633(3) 0.20629(14) 0.58533(17)
O41 O 0.6256(3) 0.10461(14) 0.62175(17)
O42 O 0.4761(2) 0.12145(13) 0.52263(16)
O43 O 0.7678(3) 0.11183(16) 0.5317(2)
O44 O 0.6137(3) 0.04163(15) 0.49409(19)
O45 O 0.7353(3) 0.16741(17) 0.7291(2)
O46 O 0.5525(3) 0.13634(17) 0.7423(2)
O47 O 0.7613(3) 0.30085(17) 0.5889(2)
H35 H 0.7630 0.3018 0.6318
O48 O 0.3238(2) 0.17888(15) 0.5366(2)
H36 H 0.3077 0.1537 0.5638
N9 N 0.7543(3) 0.32898(16) 0.2509(2)
N10 N 0.2543(3) 0.17102(16) 0.7509(2)
N11 N 0.7428(3) 0.64398(17) 0.2203(2)
N12 N 0.2572(3) 0.35602(17) 0.7797(2)
N14 N 0.3535(3) 0.25495(17) 0.85682(19)
N15 N 0.8351(3) 0.72970(17) 0.32118(19)
N16 N 0.1649(3) 0.27030(17) 0.67882(19)
N17 N 0.3853(3) 0.51002(19) 0.5566(2)
N19 N 0.4048(3) 0.50839(18) 0.4098(2)
N20 N 0.0971(4) 0.5701(2) 0.0981(2)
C41 C 0.6850(4) 0.3627(2) 0.2732(3)
H37 H 0.6393 0.3442 0.2971
C42 C 0.6782(4) 0.4234(2) 0.2626(3)
H38 H 0.6280 0.4447 0.2781
C43 C 0.7462(4) 0.4524(2) 0.2288(3)
C44 C 0.8167(4) 0.4175(2) 0.2049(3)
H39 H 0.8636 0.4350 0.1814
C45 C 0.8178(4) 0.3563(2) 0.2159(3)
H40 H 0.8647 0.3336 0.1982
C46 C 0.6600(4) 0.6124(2) 0.2157(3)
H41 H 0.6017 0.6329 0.2122
C47 C 0.6577(4) 0.5506(2) 0.2160(3)
H42 H 0.5988 0.5307 0.2124
C48 C 0.7442(4) 0.5185(2) 0.2218(3)
C49 C 0.8289(4) 0.5515(2) 0.2241(3)
H43 H 0.8881 0.5321 0.2264
C50 C 0.8255(4) 0.6130(2) 0.2231(3)
H44 H 0.8832 0.6338 0.2244
H46 H 0.9515 0.6878 0.5770
C56 C 0.8024(4) 0.7230(2) 0.3829(3)
H49 H 0.7364 0.7176 0.3830
C57 C 0.8615(4) 0.7236(2) 0.4465(2)
H50 H 0.8353 0.7179 0.4882
C58 C 0.9595(4) 0.7329(2) 0.4485(2)
C59 C 0.9937(4) 0.7394(3) 0.3846(3)
C60 C 0.9306(4) 0.7379(3) 0.3223(3)
H52 H 0.9552 0.7428 0.2799
C61 C 0.3510(4) 0.4602(2) 0.5838(3)
H53 H 0.3923 0.4279 0.5932
C62 C 0.2579(4) 0.4554(2) 0.5982(3)
H54 H 0.2368 0.4200 0.6161
C63 C 0.1946(4) 0.5032(3) 0.5861(3)
C64 C 0.2322(4) 0.5564(2) 0.5635(3)
H55 H 0.1942 0.5905 0.5577
C65 C 0.3269(4) 0.5574(2) 0.5500(3)
H56 H 0.3515 0.5931 0.5356
C67 C 0.0392(5) 0.5458(3) 0.6169(4)
H58 H 0.0690 0.5824 0.6270
C68 C 0.0913(5) 0.4984(3) 0.5952(3)
C69 C 0.0433(5) 0.4448(3) 0.5837(4)
H59 H 0.0756 0.4112 0.5709
C71 C 0.3722(6) 0.4633(2) 0.3662(3)
H61 H 0.3941 0.4250 0.3777
C72 C 0.3084(6) 0.4714(2) 0.3058(3)
H62 H 0.2870 0.4390 0.2778
C73 C 0.2766(4) 0.5279(2) 0.2872(3)
C74 C 0.3083(4) 0.5743(2) 0.3318(3)
H63 H 0.2873 0.6130 0.3214
C75 C 0.3712(4) 0.5623(2) 0.3916(3)
H64 H 0.3916 0.5939 0.4213
C76 C 0.0761(5) 0.5224(3) 0.1338(3)
H65 H 0.0234 0.4988 0.1166
C77 C 0.1312(5) 0.5077(2) 0.1953(3)
H66 H 0.1150 0.4748 0.2208
C78 C 0.2117(4) 0.5419(2) 0.2205(3)
C79 C 0.2326(5) 0.5914(3) 0.1820(3)
H67 H 0.2861 0.6150 0.1971
C80 C 0.1728(5) 0.6046(3) 0.1215(3)
H68 H 0.1849 0.6384 0.0960
N4 N 0.3351(3) 0.77030(17) 0.82118(19)
H13 H 0.6205 0.7046 0.9806
C16 C 0.3024(4) 0.7770(2) 0.8829(3)
H15 H 0.2364 0.7824 0.8830
C17 C 0.3615(4) 0.7764(2) 0.9465(2)
H16 H 0.3353 0.7821 0.9882
C18 C 0.4595(4) 0.7671(2) 0.9485(2)
C19 C 0.4937(4) 0.7606(3) 0.8846(3)
H17 H 0.5595 0.7553 0.8835
C20 C 0.4306(4) 0.7621(3) 0.8223(3)
H18 H 0.4552 0.7572 0.7799
N18 N 0.8932(5) 0.4870(4) 0.6110(4)
C66 C 0.9431(6) 0.5383(4) 0.6232(5)
H57 H 0.9097 0.5711 0.6371
C70 C 0.9462(6) 0.4419(4) 0.5915(5)
H60 H 0.9152 0.4055 0.5824
Mo4_2 Mo 0.14376(3) 0.388562(18) 0.02497(2)
Mo5_2 Mo 0.12035(3) 0.330679(19) 0.18546(2)
Cu2_2 Cu -0.0000 -0.0000 0.0000
P1_2 P 0.16680(9) 0.22994(5) 0.05540(6)
O1_2 O 0.0781(2) 0.19477(13) 0.07407(17)
O4_2 O 0.0982(2) 0.24722(14) 0.20595(16)
O6_2 O 0.0115(3) 0.13537(14) 0.19257(18)
O15_2 O 0.1633(3) 0.29371(14) 0.08533(17)
O16_2 O 0.1256(3) 0.39539(14) 0.12175(17)
O18_2 O 0.2678(3) 0.38817(16) 0.0317(2)
O20_2 O 0.2353(3) 0.33259(17) 0.2291(2)
O21_2 O 0.0525(3) 0.36366(17) 0.2423(2)
O22_2 O 0.2613(3) 0.19915(17) 0.0889(2)
H1_2 H 0.2630 0.1982 0.1318
H12_2 H 0.0485 0.3122 0.4230
C16_2 C 0.1976(4) 0.2770(2) 0.6171(3)
H15_2 H 0.2636 0.2824 0.6170
C17_2 C 0.1385(4) 0.2764(2) 0.5535(2)
H16_2 H 0.1647 0.2821 0.5118
C18_2 C 0.0405(4) 0.2671(2) 0.5515(2)
C19_2 C 0.0063(4) 0.2606(3) 0.6154(3)
C20_2 C 0.0694(4) 0.2621(3) 0.6777(3)
H18_2 H 0.0448 0.2572 0.7201
N19_2 N 0.0952(3) 0.00839(18) 0.0902(2)
N20_2 N 0.4029(4) 0.0701(2) 0.4019(2)
C73_2 C 0.2234(4) 0.0279(2) 0.2128(3)
C74_2 C 0.1917(4) 0.0743(2) 0.1682(3)
H63_2 H 0.2127 0.1130 0.1786
C75_2 C 0.1288(4) 0.0623(2) 0.1084(3)
H64_2 H 0.1084 0.0939 0.0787
C76_2 C 0.4239(5) 0.0224(3) 0.3662(3)
C77_2 C 0.3688(5) 0.0077(2) 0.3047(3)
C78_2 C 0.2883(4) 0.0419(2) 0.2795(3)
C79_2 C 0.2674(5) 0.0914(3) 0.3180(3)
H67_2 H 0.2139 0.1150 0.3029
C80_2 C 0.3272(5) 0.1046(3) 0.3785(3)
H68_2 H 0.3151 0.1384 0.4040
Mo3_2 Mo 0.05777(3) 0.271625(18) 0.89689(2)
Cu2_3 Cu -0.0000 -0.0000 1.0000
O8_2 O 0.0045(3) 0.19472(14) 0.90812(17)
O11_2 O 0.1121(3) 0.34077(15) 0.94301(17)
O12_2 O 0.1678(2) 0.23001(14) 0.97744(17)
O19_2 O 0.1137(3) 0.45837(15) 0.99409(19)
N17_2 N 0.1147(3) 0.01002(19) 0.9434(2)
C63_2 C 0.3054(4) 0.0032(3) 0.9139(3)
C64_2 C 0.2678(4) 0.0564(2) 0.9365(3)
H55_2 H 0.3058 0.0905 0.9423
C65_2 C 0.1731(4) 0.0574(2) 0.9500(3)
H56_2 H 0.1485 0.0931 0.9644
C66_2 C 0.5569(6) 0.0383(4) 0.8768(5)
H57_2 H 0.5903 0.0711 0.8629
C67_2 C 0.4608(5) 0.0458(3) 0.8831(4)
H58_2 H 0.4310 0.0824 0.8730
Cu2_4 Cu -0.0000 1.0000 0.0000
Mo7_2 Mo 0.06778(3) 0.823146(17) 0.01482(2)
O30_2 O 0.0407(2) 0.72822(13) 0.01186(16)
O32_2 O 0.0317(2) 0.89646(14) 0.00793(17)
O33_2 O 0.1811(3) 0.82532(16) 0.05952(19)
O39_2 O 0.0363(3) 0.69618(16) 0.15554(18)
C71_2 C 0.1278(6) 0.9633(2) 0.1338(3)
H61_2 H 0.1059 0.9250 0.1223
C72_2 C 0.1916(6) 0.9714(2) 0.1942(3)
H62_2 H 0.2130 0.9390 0.2222
H65_2 H 0.4766 0.9988 0.3834
H66_2 H 0.3850 0.9748 0.2792
Cu2_5 Cu -0.0000 1.0000 1.0000
Mo6_2 Mo 0.01362(3) 0.794365(17) 0.83774(2)
P4_2 P 0.06590(9) 0.68041(5) 0.95814(6)
O25_2 O 0.1012(2) 0.81079(14) 0.92274(16)
O26_2 O 0.0213(2) 0.69884(13) 0.88336(16)
O28_2 O 0.1022(2) 0.77219(14) 0.78779(16)
O42_2 O 0.0239(2) 0.62145(13) 0.97737(16)
O48_2 O 0.1762(2) 0.67888(15) 0.9634(2)
H36_2 H 0.1923 0.6537 0.9362
N10_2 N 0.2457(3) 0.67102(16) 0.7491(2)
N12_2 N 0.2428(3) 0.85602(17) 0.7203(2)
N18_2 N 0.6068(5) 0.9870(4) 0.8890(4)
C61_2 C 0.1490(4) 0.9602(2) 0.9162(3)
H53_2 H 0.1077 0.9279 0.9068
C62_2 C 0.2421(4) 0.9554(2) 0.9018(3)
H54_2 H 0.2632 0.9200 0.8839
C68_2 C 0.4087(5) 0.9984(3) 0.9048(3)
C69_2 C 0.4567(5) 0.9448(3) 0.9163(4)
H59_2 H 0.4244 0.9112 0.9291
C70_2 C 0.5538(6) 0.9419(4) 0.9085(5)
H60_2 H 0.5848 0.9055 0.9176
Mo1_2 Mo 0.98638(3) 0.205635(17) 0.16226(2)
Cu2_6 Cu 1.0000 -0.0000 0.0000
P2_2 P 0.93410(9) 0.31959(5) 0.04186(6)
O2_2 O 0.8988(2) 0.18921(14) 0.07726(16)
O3_2 O 0.9787(2) 0.30116(13) 0.11664(16)
O5_2 O 0.8978(2) 0.22781(14) 0.21221(16)
O17_2 O 0.9761(2) 0.37855(13) 0.02263(16)
O23_2 O 0.8238(2) 0.32112(15) 0.0366(2)
H2_2 H 0.8077 0.3463 0.0638
N3_2 N 0.8535(3) 0.24505(17) 0.35682(19)
N6_2 N 0.3932(5) 0.0130(4) 0.1110(4)
C11_2 C 0.9332(4) 0.2795(2) 0.3609(2)
H11_2 H 0.9472 0.2983 0.3202
C12_2 C 0.9943(4) 0.2881(2) 0.4225(3)
C13_2 C 0.9752(3) 0.2606(2) 0.4840(2)
C14_2 C 0.8943(4) 0.2244(2) 0.4796(2)
H13_2 H 0.8795 0.2046 0.5194
C15_2 C 0.8352(3) 0.2177(2) 0.4152(2)
H14_2 H 0.7811 0.1933 0.4130
H17_2 H 0.9405 0.2553 0.6165
C21_2 C 0.8510(4) 0.0398(2) 0.0838(3)
H19_2 H 0.8923 0.0721 0.0932
C22_2 C 0.7579(4) 0.0446(2) 0.0982(3)
H20_2 H 0.7368 0.0800 0.1161
C28_2 C 0.5913(5) 0.0016(3) 0.0952(3)
C29_2 C 0.5433(5) 0.0552(3) 0.0837(4)
H25_2 H 0.5756 0.0888 0.0709
C30_2 C 0.4462(6) 0.0581(4) 0.0915(5)
H26_2 H 0.4152 0.0945 0.0824
N15_2 N 0.6649(3) 0.22970(17) 0.17882(19)
H47_2 H 0.3795 0.2954 0.0194
C56_2 C 0.6976(4) 0.2230(2) 0.1171(3)
H49_2 H 0.7636 0.2176 0.1170
C57_2 C 0.6385(4) 0.2236(2) 0.0535(2)
H50_2 H 0.6647 0.2179 0.0118
C58_2 C 0.5405(4) 0.2329(2) 0.0515(2)
C59_2 C 0.5063(4) 0.2394(3) 0.1154(3)
H51_2 H 0.4405 0.2447 0.1165
C60_2 C 0.5694(4) 0.2379(3) 0.1777(3)
H52_2 H 0.5448 0.2428 0.2201
Mo2_2 Mo 0.93222(3) 0.176854(17) 0.98518(2)
Cu2_7 Cu 1.0000 -0.0000 1.0000
O7_2 O 0.9593(2) 0.27178(13) 0.98814(16)
O9_2 O 0.9683(2) 0.10354(14) 0.99207(17)
O10_2 O 0.8189(3) 0.17468(16) 0.94048(19)
O14_2 O 0.9637(3) 0.30382(16) 0.84446(18)
C31_2 C 0.8722(6) 0.0367(2) 0.8662(3)
H27_2 H 0.8941 0.0750 0.8777
C32_2 C 0.8084(6) 0.0286(2) 0.8058(3)
H28_2 H 0.7870 0.0610 0.7778
H31_2 H 0.5234 0.0012 0.6166
H32_2 H 0.6150 0.0252 0.7208
C51_2 C 0.4332(4) 0.2205(2) 0.8609(2)
H45_2 H 0.4472 0.2017 0.8202
C52_2 C 0.4943(4) 0.2119(2) 0.9225(3)
H46_2 H 0.5485 0.1878 0.9230
C53_2 C 0.4752(3) 0.2394(2) 0.9840(2)
C54_2 C 0.3943(4) 0.2756(2) 0.9796(2)
C55_2 C 0.3352(3) 0.2823(2) 0.9152(2)
H48_2 H 0.2811 0.3067 0.9130
Cu2_8 Cu 1.0000 1.0000 0.0000
N5_2 N 0.8853(3) 0.98998(19) 0.0566(2)
C23_2 C 0.6946(4) 0.9968(3) 0.0861(3)
C24_2 C 0.7322(4) 0.9436(2) 0.0635(3)
H21_2 H 0.6942 0.9095 0.0577
C25_2 C 0.8269(4) 0.9426(2) 0.0500(3)
H22_2 H 0.8515 0.9069 0.0356
C26_2 C 0.4431(6) 0.9617(4) 0.1232(5)
H23_2 H 0.4097 0.9289 0.1371
C27_2 C 0.5392(5) 0.9542(3) 0.1169(4)
H24_2 H 0.5690 0.9176 0.1270
Mo8_2 Mo 0.94223(3) 0.728375(18) 0.10311(2)
O31_2 O 0.9955(3) 0.80528(14) 0.09188(17)
O34_2 O 0.8879(3) 0.65923(15) 0.05699(17)
O35_2 O 0.8322(2) 0.76999(14) 0.02256(17)
O44_2 O 0.8863(3) 0.54163(15) 0.00591(19)
Cu2_9 Cu 1.0000 1.0000 1.0000
N7_2 N 0.9048(3) 0.99161(18) 0.9098(2)
N8_2 N 0.5971(4) 0.9299(2) 0.5981(2)
C33_2 C 0.7766(4) 0.9721(2) 0.7872(3)
C34_2 C 0.8083(4) 0.9257(2) 0.8318(3)
H29_2 H 0.7873 0.8870 0.8214
C35_2 C 0.8712(4) 0.9377(2) 0.8916(3)
H30_2 H 0.8916 0.9061 0.9213
C36_2 C 0.5761(5) 0.9776(3) 0.6338(3)
C37_2 C 0.6312(5) 0.9923(2) 0.6953(3)
C38_2 C 0.7117(4) 0.9581(2) 0.7205(3)
C39_2 C 0.7326(5) 0.9086(3) 0.6820(3)
H33_2 H 0.7861 0.8850 0.6971
C40_2 C 0.6728(5) 0.8954(3) 0.6215(3)
H34_2 H 0.6849 0.8616 0.5960
Mo9_2 Mo 0.85624(3) 0.611438(18) 0.97503(2)
Mo10_2 Mo 0.87965(3) 0.669321(19) 0.81454(2)
P3_2 P 0.83320(9) 0.77006(5) 0.94460(6)
O24_2 O 0.9219(2) 0.80523(13) 0.92593(17)
O27_2 O 0.9018(2) 0.75278(14) 0.79405(16)
O29_2 O 0.9885(3) 0.86463(14) 0.80743(18)
O40_2 O 0.8367(3) 0.70629(14) 0.91467(17)
O41_2 O 0.8744(3) 0.60461(14) 0.87825(17)
O43_2 O 0.7322(3) 0.61183(16) 0.9683(2)
O45_2 O 0.7647(3) 0.66741(17) 0.7709(2)
O46_2 O 0.9475(3) 0.63634(17) 0.7577(2)
O47_2 O 0.7387(3) 0.80085(17) 0.9111(2)
H35_2 H 0.7370 0.8018 0.8682
C1_2 C 0.1850(4) 0.1373(2) 0.7732(3)
H3_2 H 0.1393 0.1558 0.7971
C2_2 C 0.1782(4) 0.0766(2) 0.7626(3)
H4_2 H 0.1280 0.0553 0.7781
C3_2 C 0.2462(4) 0.0476(2) 0.7288(3)
C4_2 C 0.3167(4) 0.0825(2) 0.7049(3)
H5_2 H 0.3636 0.0650 0.6814
C5_2 C 0.3178(4) 0.1437(2) 0.7159(3)
H6_2 H 0.3647 0.1664 0.6982
C41_2 C 0.3150(4) 0.6373(2) 0.7268(3)
H37_2 H 0.3607 0.6558 0.7029
C42_2 C 0.3218(4) 0.5766(2) 0.7374(3)
H38_2 H 0.3720 0.5553 0.7219
C43_2 C 0.2538(4) 0.5476(2) 0.7712(3)
C44_2 C 0.1833(4) 0.5825(2) 0.7951(3)
H39_2 H 0.1364 0.5650 0.8186
C45_2 C 0.1822(4) 0.6437(2) 0.7841(3)
H40_2 H 0.1353 0.6664 0.8018
C46_2 C 0.3400(4) 0.3876(2) 0.7843(3)
H41_2 H 0.3983 0.3671 0.7878
C47_2 C 0.3423(4) 0.4494(2) 0.7840(3)
H42_2 H 0.4012 0.4693 0.7876
C48_2 C 0.2558(4) 0.4815(2) 0.7782(3)
C49_2 C 0.1711(4) 0.4485(2) 0.7759(3)
H43_2 H 0.1119 0.4679 0.7736
C50_2 C 0.1745(4) 0.3870(2) 0.7769(3)
H44_2 H 0.1168 0.3662 0.7756
C6_2 C 0.1600(4) 0.8876(2) 0.7157(3)
H7_2 H 0.1017 0.8671 0.7122
C7_2 C 0.1577(4) 0.9494(2) 0.7160(3)
H8_2 H 0.0988 0.9693 0.7124
C8_2 C 0.2442(4) 0.9815(2) 0.7218(3)
C9_2 C 0.3289(4) 0.9485(2) 0.7241(3)
H9_2 H 0.3881 0.9679 0.7264
C10_2 C 0.3255(4) 0.8870(2) 0.7231(3)
H10_2 H 0.3832 0.8662 0.7244
O49 O 0.4412(4) 0.3454(3) 0.2650(3)
O49_2 O 0.0588(4) 0.8454(3) 0.2350(3)
H70 H 0.0870928 0.881459 0.259662
H71 H 0.0870928 0.809341 0.259662
H69 H 0.987663 0.8454 0.235
O49_3 O 0.5588(4) 0.6546(3) 0.7350(3)
H69_2 H 0.0123369 0.1546 0.765
O49_4 O 0.9412(4) 0.1546(3) 0.7650(3)
H70_2 H 0.912907 0.118541 0.740338
H71_2 H 0.912907 0.190659 0.740338
O50 O 0.8207(4) 0.2879(2) 0.7263(2)
O50_2 O 0.6793(4) 0.7879(2) 0.7737(2)
O50_3 O 0.1793(4) 0.7121(2) 0.2737(2)
O50_4 O 0.3207(4) 0.2121(2) 0.2263(2)
loop_
_geom_bond_atom_site_label_1
_geom_bond_atom_site_label_2
_geom_bond_site_symmetry_1
_geom_bond_site_symmetry_2
N6 C26 1_555 1_555
C26 H23 1_555 1_555
C30 N6 1_555 1_555
H26 C30 1_555 1_555
Cu8 N13 1_555 1_555
N13 C51 1_555 1_555
C51 H45 1_555 1_555
C52 C51 1_555 1_555
C53 C52 1_555 1_555
C54 C53 1_555 1_555
H47 C54 1_555 1_555
C55 N13 1_555 1_555
H48 C55 1_555 1_555
C54 C55 1_555 1_555
N2 C6 1_555 1_555
C6 H7 1_555 1_555
C7 C6 1_555 1_555
H8 C7 1_555 1_555
C9 C8 1_555 1_555
H9 C9 1_555 1_555
C10 N2 1_555 1_555
H10 C10 1_555 1_555
Cu5 N2 1_555 1_555
C7 C8 1_555 1_555
C9 C10 1_555 1_555
Mo1 O1 1_555 1_555
Mo2 O1 1_555 1_555
Mo3 O7 1_555 1_555
Mo4 O11 1_555 1_555
Mo5 O3 1_555 1_555
Cu1 O5 1_555 1_555
Cu2 O9 1_555 1_555
P1 O1 1_555 1_555
P2 O3 1_555 1_555
O2 Mo1 1_555 1_555
O3 Mo1 1_555 1_555
O4 Mo1 1_555 1_555
O5 Mo1 1_555 1_555
O6 Mo1 1_555 1_555
O7 Mo2 1_555 1_555
O8 Mo2 1_555 1_555
O9 Mo2 1_555 1_555
O10 Mo2 1_555 1_555
O11 Mo3 1_555 1_555
O12 Mo3 1_555 1_555
O13 Mo3 1_555 1_555
O14 Mo3 1_555 1_555
O15 Mo4 1_555 1_555
O16 Mo4 1_555 1_555
O17 Mo4 1_555 1_555
O18 Mo4 1_555 1_555
O19 Mo4 1_555 1_555
O20 Mo5 1_555 1_555
O21 Mo5 1_555 1_555
O22 P1 1_555 1_555
H1 O22 1_555 1_555
O23 P2 1_555 1_555
H2 O23 1_555 1_555
N1 Cu1 1_555 1_555
N3 Cu1 1_555 1_555
N5 Cu2 1_555 1_555
N7 Cu2 1_555 1_555
N8 C36 1_555 1_555
C1 N1 1_555 1_555
H3 C1 1_555 1_555
C2 C1 1_555 1_555
H4 C2 1_555 1_555
C3 C2 1_555 1_555
C4 C3 1_555 1_555
H5 C4 1_555 1_555
C5 N1 1_555 1_555
H6 C5 1_555 1_555
C11 N3 1_555 1_555
H11 C11 1_555 1_555
C12 C11 1_555 1_555
H12 C12 1_555 1_555
C13 C12 1_555 1_555
C14 C13 1_555 1_555
C15 N3 1_555 1_555
H14 C15 1_555 1_555
C21 N5 1_555 1_555
H19 C21 1_555 1_555
C22 C21 1_555 1_555
H20 C22 1_555 1_555
C23 C22 1_555 1_555
C24 C23 1_555 1_555
H21 C24 1_555 1_555
C25 N5 1_555 1_555
H22 C25 1_555 1_555
H24 C27 1_555 1_555
C28 C23 1_555 1_555
C29 C28 1_555 1_555
H25 C29 1_555 1_555
C31 N7 1_555 1_555
H27 C31 1_555 1_555
C32 C31 1_555 1_555
H28 C32 1_555 1_555
C33 C32 1_555 1_555
C34 C33 1_555 1_555
H29 C34 1_555 1_555
C35 N7 1_555 1_555
H30 C35 1_555 1_555
C36 H31 1_555 1_555
C37 C36 1_555 1_555
H32 C37 1_555 1_555
C38 C33 1_555 1_555
C39 C38 1_555 1_555
H33 C39 1_555 1_555
C40 N8 1_555 1_555
H34 C40 1_555 1_555
Mo6 O24 1_555 1_555
Mo7 O24 1_555 1_555
Mo8 O30 1_555 1_555
Mo9 O34 1_555 1_555
Mo10 O26 1_555 1_555
Cu3 O28 1_555 1_555
Cu8 O13 1_555 1_555
Cu5 O36 1_555 1_555
P3 O24 1_555 1_555
P4 O26 1_555 1_555
O25 Mo6 1_555 1_555
O26 Mo6 1_555 1_555
O27 Mo6 1_555 1_555
O28 Mo6 1_555 1_555
O29 Mo6 1_555 1_555
O30 Mo7 1_555 1_555
O31 Mo7 1_555 1_555
O32 Cu2 1_555 1_555
O33 Mo7 1_555 1_555
O34 Mo8 1_555 1_555
O35 Mo8 1_555 1_555
O36 Mo8 1_555 1_555
O37 Cu1 1_555 1_555
O38 Cu3 1_555 1_555
O39 Mo8 1_555 1_555
O40 Mo9 1_555 1_555
O41 Mo9 1_555 1_555
O42 Mo9 1_555 1_555
O43 Mo9 1_555 1_555
O44 Mo9 1_555 1_555
O45 Mo10 1_555 1_555
O46 Mo10 1_555 1_555
O47 P3 1_555 1_555
H35 O47 1_555 1_555
O48 P4 1_555 1_555
H36 O48 1_555 1_555
N9 Cu5 1_555 1_555
N10 Cu3 1_555 1_555
N11 Cu1 1_555 1_555
N12 Cu3 1_555 1_555
N14 Cu3 1_555 1_555
N15 Cu1 1_555 1_555
N16 Cu3 1_555 1_555
N17 Cu2 1_555 1_555
N19 Cu2 1_555 1_555
N20 C76 1_555 1_555
C41 N9 1_555 1_555
H37 C41 1_555 1_555
C42 C41 1_555 1_555
H38 C42 1_555 1_555
C43 C42 1_555 1_555
C44 C43 1_555 1_555
H39 C44 1_555 1_555
C45 N9 1_555 1_555
H40 C45 1_555 1_555
C46 N11 1_555 1_555
H41 C46 1_555 1_555
C47 C46 1_555 1_555
H42 C47 1_555 1_555
C48 C43 1_555 1_555
C49 C48 1_555 1_555
H43 C49 1_555 1_555
C50 N11 1_555 1_555
H44 C50 1_555 1_555
C56 N15 1_555 1_555
H49 C56 1_555 1_555
C57 C56 1_555 1_555
H50 C57 1_555 1_555
C59 C58 1_555 1_555
C60 N15 1_555 1_555
H52 C60 1_555 1_555
C61 N17 1_555 1_555
H53 C61 1_555 1_555
C62 C61 1_555 1_555
H54 C62 1_555 1_555
C63 C62 1_555 1_555
C64 C63 1_555 1_555
H55 C64 1_555 1_555
C65 N17 1_555 1_555
H56 C65 1_555 1_555
H58 C67 1_555 1_555
C68 C63 1_555 1_555
C69 C68 1_555 1_555
H59 C69 1_555 1_555
C71 N19 1_555 1_555
H61 C71 1_555 1_555
C72 C71 1_555 1_555
H62 C72 1_555 1_555
C73 C72 1_555 1_555
C74 C73 1_555 1_555
H63 C74 1_555 1_555
C75 N19 1_555 1_555
H64 C75 1_555 1_555
C76 H65 1_555 1_555
C77 C76 1_555 1_555
H66 C77 1_555 1_555
C78 C73 1_555 1_555
C79 C78 1_555 1_555
H67 C79 1_555 1_555
C80 N20 1_555 1_555
H68 C80 1_555 1_555
Mo2 O2 1_555 1_555
Mo3 O8 1_555 1_555
Mo5 O4 1_555 1_555
Mo5 O15 1_555 1_555
Mo5 O16 1_555 1_555
P1 O12 1_555 1_555
P1 O15 1_555 1_555
P2 O7 1_555 1_555
P2 O17 1_555 1_555
C4 C5 1_555 1_555
C14 C15 1_555 1_555
C24 C25 1_555 1_555
C27 C28 1_555 1_555
C34 C35 1_555 1_555
C37 C38 1_555 1_555
C39 C40 1_555 1_555
Mo7 O25 1_555 1_555
Mo7 O32 1_555 1_555
Mo8 O31 1_555 1_555
Mo10 O27 1_555 1_555
Mo10 O40 1_555 1_555
Mo10 O41 1_555 1_555
P3 O35 1_555 1_555
P3 O40 1_555 1_555
P4 O30 1_555 1_555
P4 O42 1_555 1_555
C44 C45 1_555 1_555
C47 C48 1_555 1_555
C49 C50 1_555 1_555
C57 C58 1_555 1_555
C59 C60 1_555 1_555
C64 C65 1_555 1_555
C67 C68 1_555 1_555
C74 C75 1_555 1_555
C77 C78 1_555 1_555
C79 C80 1_555 1_555
N4 C16 1_555 1_555
C16 H15 1_555 1_555
C17 C16 1_555 1_555
H16 C17 1_555 1_555
C19 C18 1_555 1_555
H17 C19 1_555 1_555
C20 N4 1_555 1_555
H18 C20 1_555 1_555
Cu8 N4 1_555 1_555
C17 C18 1_555 1_555
C19 C20 1_555 1_555
N18 C66 1_555 1_555
C66 H57 1_555 1_555
C70 N18 1_555 1_555
H60 C70 1_555 1_555
P1_2 O1_2 1_555 1_555
O15_2 Mo4_2 1_555 1_555
O16_2 Mo4_2 1_555 1_555
O18_2 Mo4_2 1_555 1_555
O20_2 Mo5_2 1_555 1_555
O21_2 Mo5_2 1_555 1_555
O22_2 P1_2 1_555 1_555
H1_2 O22_2 1_555 1_555
N16 C16_2 1_555 1_555
C16_2 H15_2 1_555 1_555
C17_2 C16_2 1_555 1_555
H16_2 C17_2 1_555 1_555
C19_2 C18_2 1_555 1_555
C20_2 N16 1_555 1_555
H18_2 C20_2 1_555 1_555
N19_2 Cu2_2 1_555 1_555
N20_2 C76_2 1_555 1_555
C74_2 C73_2 1_555 1_555
H63_2 C74_2 1_555 1_555
C75_2 N19_2 1_555 1_555
H64_2 C75_2 1_555 1_555
C77_2 C76_2 1_555 1_555
C78_2 C73_2 1_555 1_555
C79_2 C78_2 1_555 1_555
H67_2 C79_2 1_555 1_555
C80_2 N20_2 1_555 1_555
H68_2 C80_2 1_555 1_555
Mo5_2 O4_2 1_555 1_555
Mo5_2 O15_2 1_555 1_555
Mo5_2 O16_2 1_555 1_555
P1_2 O15_2 1_555 1_555
C17_2 C18_2 1_555 1_555
C19_2 C20_2 1_555 1_555
C74_2 C75_2 1_555 1_555
C77_2 C78_2 1_555 1_555
C79_2 C80_2 1_555 1_555
O11_2 Mo3_2 1_555 1_555
O12_2 Mo3_2 1_555 1_555
O38 Mo3_2 1_555 1_555
N17_2 Cu2_3 1_555 1_555
C64_2 C63_2 1_555 1_555
H55_2 C64_2 1_555 1_555
C65_2 N17_2 1_555 1_555
H56_2 C65_2 1_555 1_555
C66_2 H57_2 1_555 1_555
C67_2 C66_2 1_555 1_555
H58_2 C67_2 1_555 1_555
Mo3_2 O8_2 1_555 1_555
C64_2 C65_2 1_555 1_555
O30_2 Mo7_2 1_555 1_555
O32_2 Cu2_4 1_555 1_555
O33_2 Mo7_2 1_555 1_555
H61_2 C71_2 1_555 1_555
C72_2 C71_2 1_555 1_555
H62_2 C72_2 1_555 1_555
Mo7_2 O32_2 1_555 1_555
Cu8 O28_2 1_555 1_555
P4_2 O26_2 1_555 1_555
O25_2 Mo6_2 1_555 1_555
O26_2 Mo6_2 1_555 1_555
O28_2 Mo6_2 1_555 1_555
O48_2 P4_2 1_555 1_555
H36_2 O48_2 1_555 1_555
N10_2 Cu8 1_555 1_555
N12_2 Cu8 1_555 1_555
H53_2 C61_2 1_555 1_555
C62_2 C61_2 1_555 1_555
H54_2 C62_2 1_555 1_555
C69_2 C68_2 1_555 1_555
H59_2 C69_2 1_555 1_555
C70_2 N18_2 1_555 1_555
H60_2 C70_2 1_555 1_555
P4_2 O42_2 1_555 1_555
C69_2 C70_2 1_555 1_555
Cu5 O5_2 1_555 1_555
P2_2 O3_2 1_555 1_555
O2_2 Mo1_2 1_555 1_555
O3_2 Mo1_2 1_555 1_555
O5_2 Mo1_2 1_555 1_555
O23_2 P2_2 1_555 1_555
H2_2 O23_2 1_555 1_555
N3_2 Cu5 1_555 1_555
C11_2 N3_2 1_555 1_555
H11_2 C11_2 1_555 1_555
C12_2 C11_2 1_555 1_555
C13_2 C12_2 1_555 1_555
C14_2 C13_2 1_555 1_555
H13_2 C14_2 1_555 1_555
C15_2 N3_2 1_555 1_555
H14_2 C15_2 1_555 1_555
H19_2 C21_2 1_555 1_555
C22_2 C21_2 1_555 1_555
H20_2 C22_2 1_555 1_555
C29_2 C28_2 1_555 1_555
H25_2 C29_2 1_555 1_555
C30_2 N6_2 1_555 1_555
H26_2 C30_2 1_555 1_555
N15_2 Cu5 1_555 1_555
C56_2 N15_2 1_555 1_555
H49_2 C56_2 1_555 1_555
C57_2 C56_2 1_555 1_555
H50_2 C57_2 1_555 1_555
C59_2 C58_2 1_555 1_555
H51_2 C59_2 1_555 1_555
C60_2 N15_2 1_555 1_555
H52_2 C60_2 1_555 1_555
P2_2 O17_2 1_555 1_555
C14_2 C15_2 1_555 1_555
C29_2 C30_2 1_555 1_555
C57_2 C58_2 1_555 1_555
C59_2 C60_2 1_555 1_555
Cu2_7 O9_2 1_555 1_555
O7_2 Mo2_2 1_555 1_555
O9_2 Mo2_2 1_555 1_555
O10_2 Mo2_2 1_555 1_555
H27_2 C31_2 1_555 1_555
C32_2 C31_2 1_555 1_555
H28_2 C32_2 1_555 1_555
N14 C51_2 1_555 1_555
C51_2 H45_2 1_555 1_555
C52_2 C51_2 1_555 1_555
H46_2 C52_2 1_555 1_555
C53_2 C52_2 1_555 1_555
C54_2 C53_2 1_555 1_555
C55_2 N14 1_555 1_555
H48_2 C55_2 1_555 1_555
C54_2 C55_2 1_555 1_555
N5_2 Cu2_8 1_555 1_555
C24_2 C23_2 1_555 1_555
H21_2 C24_2 1_555 1_555
C25_2 N5_2 1_555 1_555
H22_2 C25_2 1_555 1_555
C26_2 H23_2 1_555 1_555
C27_2 C26_2 1_555 1_555
H24_2 C27_2 1_555 1_555
O34_2 Mo8_2 1_555 1_555
O35_2 Mo8_2 1_555 1_555
O37 Mo8_2 1_555 1_555
C24_2 C25_2 1_555 1_555
Mo8_2 O31_2 1_555 1_555
N7_2 Cu2_9 1_555 1_555
N8_2 C36_2 1_555 1_555
C34_2 C33_2 1_555 1_555
H29_2 C34_2 1_555 1_555
C35_2 N7_2 1_555 1_555
H30_2 C35_2 1_555 1_555
C37_2 C36_2 1_555 1_555
C38_2 C33_2 1_555 1_555
C39_2 C38_2 1_555 1_555
H33_2 C39_2 1_555 1_555
C40_2 N8_2 1_555 1_555
H34_2 C40_2 1_555 1_555
P3_2 O24_2 1_555 1_555
O40_2 Mo9_2 1_555 1_555
O41_2 Mo9_2 1_555 1_555
O43_2 Mo9_2 1_555 1_555
O45_2 Mo10_2 1_555 1_555
O46_2 Mo10_2 1_555 1_555
O47_2 P3_2 1_555 1_555
H35_2 O47_2 1_555 1_555
C34_2 C35_2 1_555 1_555
C37_2 C38_2 1_555 1_555
C39_2 C40_2 1_555 1_555
Mo10_2 O27_2 1_555 1_555
Mo10_2 O40_2 1_555 1_555
Mo10_2 O41_2 1_555 1_555
P3_2 O40_2 1_555 1_555
C1_2 N10 1_555 1_555
H3_2 C1_2 1_555 1_555
C2_2 C1_2 1_555 1_555
H4_2 C2_2 1_555 1_555
C3_2 C2_2 1_555 1_555
C4_2 C3_2 1_555 1_555
H5_2 C4_2 1_555 1_555
C5_2 N10 1_555 1_555
H6_2 C5_2 1_555 1_555
C41_2 N10_2 1_555 1_555
H37_2 C41_2 1_555 1_555
C42_2 C41_2 1_555 1_555
H38_2 C42_2 1_555 1_555
C43_2 C42_2 1_555 1_555
C44_2 C43_2 1_555 1_555
H39_2 C44_2 1_555 1_555
C45_2 N10_2 1_555 1_555
H40_2 C45_2 1_555 1_555
C46_2 N12 1_555 1_555
H41_2 C46_2 1_555 1_555
C47_2 C46_2 1_555 1_555
H42_2 C47_2 1_555 1_555
C48_2 C43_2 1_555 1_555
C49_2 C48_2 1_555 1_555
H43_2 C49_2 1_555 1_555
C50_2 N12 1_555 1_555
H44_2 C50_2 1_555 1_555
C4_2 C5_2 1_555 1_555
C44_2 C45_2 1_555 1_555
C47_2 C48_2 1_555 1_555
C49_2 C50_2 1_555 1_555
N12_2 C6_2 1_555 1_555
C6_2 H7_2 1_555 1_555
C7_2 C6_2 1_555 1_555
H8_2 C7_2 1_555 1_555
C9_2 C8_2 1_555 1_555
H9_2 C9_2 1_555 1_555
C10_2 N12_2 1_555 1_555
H10_2 C10_2 1_555 1_555
C7_2 C8_2 1_555 1_555
C9_2 C10_2 1_555 1_555
O49_2 H70 1_555 1_555
O49_2 H71 1_555 1_555
O49_4 H70_2 1_555 1_555
O49_4 H71_2 1_555 1_555

#END
