
###############################################################################
#
# This file contains modified crystal structure data generated from the
# MOF subset of the Cambridge Structural Database (CSD) v543 
# hosted by the Cambridge Crystallographic Data Centre (CCDC).
#
# This work is licensed under the Creative Commons
# Attribution-NonCommercial-ShareAlike 4.0 International License.
# To view a copy of this license, visit
# http://creativecommons.org/licenses/by-nc-sa/4.0/
# or send a letter to
# Creative Commons, PO Box 1866, Mountain View, CA 94042, USA.
#
# CIF created using the CSD Python API on 29 September 2022
# The structure has been converted into the P1 space group
# The structure has a 3D framework
# The original CSD entry YOFXIC is in the tetragonal crystal system
# The framework has been calculated to contain at least 10.0% void space
# The void calculation uses a probe of radius 1.32A, grid spacing 0.4
# The framework is charged, counterions have been retained in the structure
#
###############################################################################

data_YOFXIC
_chemical_formula_moiety         '(C352 H336 B16 Cl16 Cu19 Mn16 N176 O96)n'
_symmetry_cell_setting           triclinic
_symmetry_space_group_name_H-M   'P 1'
_symmetry_Int_Tables_number      1
_space_group_name_Hall           'P 1'
loop_
_symmetry_equiv_pos_site_id
_symmetry_equiv_pos_as_xyz
1 x,y,z
_cell_length_a                   35.9978(6)
_cell_length_b                   35.9978(6)
_cell_length_c                   9.9081(3)
_cell_angle_alpha                90
_cell_angle_beta                 90
_cell_angle_gamma                90
_cell_volume                     12839.3
loop_
_atom_site_label
_atom_site_type_symbol
_atom_site_fract_x
_atom_site_fract_y
_atom_site_fract_z
Cu1 Cu 0.0000 0.0000 0.0000
N1 N 0.05269(13) 0.03764(14) 0.0464(4)
N2 N 0.05489(13) 0.04872(13) 0.1796(4)
C2 C 0.08366(16) 0.07109(17) 0.1918(6)
H2 H 0.0912 0.0818 0.2727
N3 N 0.10064(14) 0.07647(14) 0.0735(5)
B1 B 0.02550(18) 0.03665(19) 0.2837(6)
H7 H 0.0310 0.0470 0.3730
Mn1 Mn 0.13631(3) 0.12910(3) 0.05550(9)
C12 C 0.0281(3) 0.1626(3) 0.0797(13)
H12 H 0.0275 0.1666 0.1724
C13 C 0.0618(2) 0.1552(2) 0.0167(10)
O1 O 0.09271(13) 0.15567(13) 0.0923(5)
C14 C 0.20709(19) 0.0893(2) 0.0702(7)
H13 H 0.2264 0.0766 0.0285
C15 C 0.2098(2) 0.0943(2) 0.2138(7)
C16 C 0.2426(2) 0.0846(3) 0.2775(9)
H14 H 0.2613 0.0731 0.2279
C17 C 0.2482(3) 0.0915(4) 0.4128(11)
H15 H 0.2702 0.0846 0.4552
C18 C 0.2205(3) 0.1088(4) 0.4830(10)
H16 H 0.2239 0.1138 0.5743
C19 C 0.1884(3) 0.1188(3) 0.4234(7)
H17 H 0.1702 0.1305 0.4747
C20 C 0.1815(2) 0.1120(2) 0.2873(6)
O2 O 0.14980(13) 0.12374(13) 0.2367(4)
N24 N 0.17252(14) 0.18330(14) 0.0505(5)
Cu1_2 Cu 0.0000 1.0000 1.0000
N15 N 0.02686(12) 0.96255(13) 0.8869(4)
N16 N 0.01285(13) 0.94969(12) 0.7684(4)
C25 C 0.05850(17) 0.94581(17) 0.9015(6)
H24 H 0.0740 0.9496 0.9752
C26 C 0.03728(17) 0.92596(17) 0.7198(6)
H25 H 0.0344 0.9131 0.6389
N17 N 0.06670(14) 0.92252(14) 0.8005(5)
C33 C 0.0042(4) 0.8360(4) 0.992(2)
H32 H 0.0266 0.8307 0.9490
Mn3 Mn 0.12090(3) 0.88631(3) 0.80550(9)
Cu1_3 Cu 1.0000 0.0000 0.0000
N4 N 0.97314(12) 0.03745(13) 0.1131(4)
N5 N 0.98715(13) 0.05031(12) 0.2316(4)
C3 C 0.94150(17) 0.05419(17) 0.0985(6)
H3 H 0.9260 0.0504 0.0248
C4 C 0.96272(17) 0.07404(17) 0.2802(6)
H4 H 0.9656 0.0869 0.3611
N6 N 0.93330(14) 0.07748(14) 0.1995(5)
C11 C 0.9958(4) 0.1640(4) 0.008(2)
H11 H 0.9734 0.1693 0.0510
Mn4 Mn 0.87910(3) 0.11369(3) 0.19450(9)
Cu1_4 Cu 1.0000 1.0000 1.0000
N12 N 0.94731(13) 0.96236(14) 0.9536(4)
N13 N 0.94511(13) 0.95128(13) 0.8204(4)
C24 C 0.91634(16) 0.92891(17) 0.8082(6)
H23 H 0.9088 0.9182 0.7273
N14 N 0.89936(14) 0.92353(14) 0.9265(5)
B2 B 0.97450(18) 0.96335(19) 0.7163(6)
H28 H 0.9690 0.9530 0.6270
Mn2 Mn 0.86369(3) 0.87090(3) 0.94450(9)
C34 C 0.9719(3) 0.8374(3) 0.9203(13)
H33 H 0.9725 0.8334 0.8276
C35 C 0.9382(2) 0.8448(2) 0.9833(10)
O3 O 0.90729(13) 0.84433(13) 0.9077(5)
C36 C 0.79291(19) 0.9107(2) 0.9298(7)
H34 H 0.7736 0.9234 0.9715
C37 C 0.7902(2) 0.9057(2) 0.7862(7)
C38 C 0.7574(2) 0.9154(3) 0.7225(9)
H35 H 0.7387 0.9269 0.7721
C39 C 0.7518(3) 0.9085(4) 0.5872(11)
H36 H 0.7298 0.9154 0.5448
C40 C 0.7795(3) 0.8912(4) 0.5170(10)
H37 H 0.7761 0.8862 0.4257
C41 C 0.8116(3) 0.8812(3) 0.5766(7)
H38 H 0.8298 0.8695 0.5253
C42 C 0.8185(2) 0.8880(2) 0.7127(6)
O4 O 0.85020(13) 0.87626(13) 0.7633(4)
N23 N 0.82748(14) 0.81670(14) 0.9495(5)
Cu1_5 Cu 0.5000 0.0000 0.5000
N7 N 0.48588(13) 0.02635(14) 0.6780(5)
N8 N 0.47579(12) 0.00573(13) 0.7882(4)
C5 C 0.4833(2) 0.06062(19) 0.7211(7)
H5 H 0.4890 0.0809 0.6668
C6 C 0.46741(19) 0.02931(19) 0.8876(7)
H6 H 0.4595 0.0222 0.9731
N9 N 0.47193(18) 0.06436(16) 0.8486(7)
N12_2 N 0.55269(13) 0.03764(14) 0.4536(4)
N13_2 N 0.55489(13) 0.04872(13) 0.3204(4)
C23 C 0.58055(17) 0.05472(18) 0.5108(6)
H22 H 0.5861 0.0522 0.6020
C24_2 C 0.58366(16) 0.07109(17) 0.3082(6)
H23_2 H 0.5912 0.0818 0.2273
N14_2 N 0.60064(14) 0.07647(14) 0.4265(5)
N15_2 N 0.47314(12) 0.03745(13) 0.3869(4)
N16_2 N 0.48715(13) 0.05031(12) 0.2684(4)
C25_2 C 0.44150(17) 0.05419(17) 0.4015(6)
H24_2 H 0.4260 0.0504 0.4752
C26_2 C 0.46272(17) 0.07404(17) 0.2198(6)
H25_2 H 0.4656 0.0869 0.1389
N17_2 N 0.43330(14) 0.07748(14) 0.3005(5)
B2_2 B 0.52550(18) 0.03665(19) 0.2163(6)
H28_2 H 0.5310 0.0470 0.1270
Mn2_2 Mn 0.63631(3) 0.12910(3) 0.44450(9)
N21 N 0.62722(16) 0.13264(15) 0.6411(5)
C29 C 0.5960(3) 0.1397(2) 0.6951(8)
H29 H 0.5947 0.1390 0.7888
C30 C 0.5627(3) 0.1488(2) 0.6233(11)
C31 C 0.5290(3) 0.1505(3) 0.6978(12)
H30 H 0.5287 0.1468 0.7907
C32 C 0.4965(3) 0.1578(3) 0.628(2)
H31 H 0.4742 0.1585 0.6753
C33_2 C 0.4958(4) 0.1640(4) 0.492(2)
H32_2 H 0.4734 0.1693 0.4490
C34_2 C 0.5281(3) 0.1626(3) 0.4203(13)
H33_2 H 0.5275 0.1666 0.3276
C35_2 C 0.5618(2) 0.1552(2) 0.4833(10)
O3_2 O 0.59271(13) 0.15567(13) 0.4077(5)
N22 N 0.68045(15) 0.10064(15) 0.5061(5)
C36_2 C 0.70709(19) 0.0893(2) 0.4298(7)
H34_2 H 0.7264 0.0766 0.4715
C37_2 C 0.7098(2) 0.0943(2) 0.2862(7)
C38_2 C 0.7426(2) 0.0846(3) 0.2225(9)
H35_2 H 0.7613 0.0731 0.2721
C39_2 C 0.7482(3) 0.0915(4) 0.0872(11)
H36_2 H 0.7702 0.0846 0.0448
C40_2 C 0.7205(3) 0.1088(4) 0.0170(10)
C41_2 C 0.6884(3) 0.1188(3) 0.0766(7)
H38_2 H 0.6702 0.1305 0.0253
C42_2 C 0.6815(2) 0.1120(2) 0.2127(6)
O4_2 O 0.64980(13) 0.12374(13) 0.2633(4)
C43 C 0.6603(2) 0.1233(2) 0.7198(6)
H39 H 0.6764 0.1448 0.7270
H40 H 0.6532 0.1157 0.8101
C44 C 0.6805(2) 0.0925(2) 0.6516(7)
H41 H 0.6681 0.0690 0.6689
H42 H 0.7057 0.0909 0.6850
N23_2 N 0.67252(14) 0.18330(14) 0.4495(5)
Mn3_2 Mn 0.37910(3) 0.11369(3) 0.30550(9)
Cu1_6 Cu 0.5000 1.0000 0.5000
N1_2 N 0.44731(13) 0.96236(14) 0.5464(4)
N2_2 N 0.44511(13) 0.95128(13) 0.6796(4)
C1 C 0.41945(17) 0.94528(18) 0.4892(6)
H1 H 0.4139 0.9478 0.3980
C2_2 C 0.41634(16) 0.92891(17) 0.6918(6)
H2_2 H 0.4088 0.9182 0.7727
N3_2 N 0.39936(14) 0.92353(14) 0.5735(5)
N4_2 N 0.52686(12) 0.96255(13) 0.6131(4)
N5_2 N 0.51285(13) 0.94969(12) 0.7316(4)
C3_2 C 0.55850(17) 0.94581(17) 0.5985(6)
H3_2 H 0.5740 0.9496 0.5248
C4_2 C 0.53728(17) 0.92596(17) 0.7802(6)
H4_2 H 0.5344 0.9131 0.8611
N6_2 N 0.56670(14) 0.92252(14) 0.6995(5)
B1_2 B 0.47450(18) 0.96335(19) 0.7837(6)
H7_2 H 0.4690 0.9530 0.8730
Mn1_2 Mn 0.36369(3) 0.87090(3) 0.55550(9)
N10 N 0.37278(16) 0.86736(15) 0.3589(5)
C7 C 0.4040(3) 0.8603(2) 0.3049(8)
H8 H 0.4053 0.8610 0.2112
C8 C 0.4373(3) 0.8512(2) 0.3767(11)
C9 C 0.4710(3) 0.8495(3) 0.3022(12)
H9 H 0.4713 0.8532 0.2093
C10 C 0.5035(3) 0.8422(3) 0.372(2)
H10 H 0.5258 0.8415 0.3247
C11_2 C 0.5042(4) 0.8360(4) 0.508(2)
H11_2 H 0.5266 0.8307 0.5510
C12_2 C 0.4719(3) 0.8374(3) 0.5797(13)
H12_2 H 0.4725 0.8334 0.6724
C13_2 C 0.4382(2) 0.8448(2) 0.5167(10)
O1_2 O 0.40729(13) 0.84433(13) 0.5923(5)
N11 N 0.31955(15) 0.89936(15) 0.4939(5)
C14_2 C 0.29291(19) 0.9107(2) 0.5702(7)
H13_2 H 0.2736 0.9234 0.5285
C15_2 C 0.2902(2) 0.9057(2) 0.7138(7)
C16_2 C 0.2574(2) 0.9154(3) 0.7775(9)
H14_2 H 0.2387 0.9269 0.7279
C17_2 C 0.2518(3) 0.9085(4) 0.9128(11)
H15_2 H 0.2298 0.9154 0.9552
C18_2 C 0.2795(3) 0.8912(4) 0.9830(10)
C19_2 C 0.3116(3) 0.8812(3) 0.9234(7)
H17_2 H 0.3298 0.8695 0.9747
C20_2 C 0.3185(2) 0.8880(2) 0.7873(6)
O2_2 O 0.35020(13) 0.87626(13) 0.7367(4)
C21 C 0.3397(2) 0.8767(2) 0.2802(6)
H18 H 0.3236 0.8552 0.2730
H19 H 0.3468 0.8843 0.1899
C22 C 0.3195(2) 0.9075(2) 0.3484(7)
H20 H 0.3319 0.9310 0.3311
H21 H 0.2943 0.9091 0.3150
N18 N 0.51412(13) 0.97365(14) 0.3220(5)
N19 N 0.52421(12) 0.99427(13) 0.2118(4)
C27 C 0.5167(2) 0.93938(19) 0.2789(7)
H26 H 0.5110 0.9191 0.3332
C28 C 0.53259(19) 0.97069(19) 0.1124(7)
H27 H 0.5405 0.9778 0.0269
N20 N 0.52807(18) 0.93564(16) 0.1514(7)
N24_2 N 0.32748(14) 0.81670(14) 0.5505(5)
Mn4_2 Mn 0.62090(3) 0.88631(3) 0.69450(9)
Cu1_7 Cu 0.7500 0.2500 0.2500
N1_3 N 0.71236(14) 0.30269(13) 0.2964(4)
N2_3 N 0.70128(13) 0.30489(13) 0.4296(4)
C1_2 C 0.69528(18) 0.33055(17) 0.2392(6)
H1_2 H 0.6978 0.3361 0.1480
C2_3 C 0.67891(17) 0.33366(16) 0.4418(6)
H2_3 H 0.6682 0.3412 0.5227
N3_3 N 0.67353(14) 0.35064(14) 0.3235(5)
N4_3 N 0.71255(13) 0.22314(12) 0.3631(4)
N5_3 N 0.69969(12) 0.23715(13) 0.4816(4)
C3_3 C 0.69581(17) 0.19150(17) 0.3485(6)
H3_3 H 0.6996 0.1760 0.2748
C4_3 C 0.67596(17) 0.21272(17) 0.5302(6)
H4_3 H 0.6631 0.2156 0.6111
N7_2 N 0.77635(14) 0.26412(13) 0.4280(5)
N8_2 N 0.75573(13) 0.27421(12) 0.5382(4)
C5_2 C 0.81062(19) 0.2667(2) 0.4711(7)
H5_2 H 0.8309 0.2610 0.4168
C6_2 C 0.77931(19) 0.28259(19) 0.6376(7)
H6_2 H 0.7722 0.2905 0.7231
N9_2 N 0.81436(16) 0.27807(18) 0.5986(7)
B1_3 B 0.71335(19) 0.27550(18) 0.5337(6)
H7_3 H 0.7030 0.2810 0.6230
Mn1_3 Mn 0.62090(3) 0.38631(3) 0.30550(9)
N10_2 N 0.61736(15) 0.37722(16) 0.1089(5)
C7_2 C 0.6103(2) 0.3460(3) 0.0549(8)
C8_2 C 0.6012(2) 0.3127(3) 0.1267(11)
C9_2 C 0.5995(3) 0.2790(3) 0.0522(12)
C10_2 C 0.5922(3) 0.2465(3) 0.122(2)
H10_2 H 0.5915 0.2242 0.0747
C11_3 C 0.5860(4) 0.2458(4) 0.258(2)
H11_3 H 0.5807 0.2234 0.3010
C12_3 C 0.5874(3) 0.2781(3) 0.3297(13)
H12_3 H 0.5834 0.2775 0.4224
C13_3 C 0.5948(2) 0.3118(2) 0.2667(10)
O1_3 O 0.59433(13) 0.34271(13) 0.3423(5)
N11_2 N 0.64936(15) 0.43045(15) 0.2439(5)
C14_3 C 0.6607(2) 0.45709(19) 0.3202(7)
H13_3 H 0.6734 0.4764 0.2785
C15_3 C 0.6557(2) 0.4598(2) 0.4638(7)
C16_3 C 0.6654(3) 0.4926(2) 0.5275(9)
H14_3 H 0.6769 0.5113 0.4779
C17_3 C 0.6585(4) 0.4982(3) 0.6628(11)
H15_3 H 0.6654 0.5202 0.7052
C18_3 C 0.6412(4) 0.4705(3) 0.7330(10)
H16_2 H 0.6362 0.4739 0.8243
C19_3 C 0.6312(3) 0.4384(3) 0.6734(7)
H17_3 H 0.6195 0.4202 0.7247
C20_3 C 0.6380(2) 0.4315(2) 0.5373(6)
O2_3 O 0.62626(13) 0.39980(13) 0.4867(4)
C21_2 C 0.6267(2) 0.4103(2) 0.0302(6)
H18_2 H 0.6052 0.4264 0.0230
C22_2 C 0.6575(2) 0.4305(2) 0.0984(7)
H20_2 H 0.6810 0.4181 0.0811
H21_2 H 0.6591 0.4557 0.0650
N12_3 N 0.78764(14) 0.19731(13) 0.2036(4)
N13_3 N 0.79872(13) 0.19511(13) 0.0704(4)
C23_2 C 0.80472(18) 0.16945(17) 0.2608(6)
H22_2 H 0.8022 0.1639 0.3520
C24_3 C 0.82109(17) 0.16634(16) 0.0582(6)
N14_3 N 0.82647(14) 0.14936(14) 0.1765(5)
N15_3 N 0.78745(13) 0.27686(12) 0.1369(4)
N16_3 N 0.80031(12) 0.26285(13) 0.0184(4)
C25_3 C 0.80419(17) 0.30850(17) 0.1515(6)
H24_3 H 0.8004 0.3240 0.2252
N17_3 N 0.82748(14) 0.31670(14) 0.0505(5)
N18_2 N 0.72365(14) 0.23588(13) 0.0720(5)
C27_2 C 0.68938(19) 0.2333(2) 0.0289(7)
H26_2 H 0.6691 0.2390 0.0832
N21_2 N 0.88264(15) 0.12278(16) 0.3911(5)
C29_2 C 0.8897(2) 0.1540(3) 0.4451(8)
H29_2 H 0.8890 0.1553 0.5388
C30_2 C 0.8988(2) 0.1873(3) 0.3733(11)
C31_2 C 0.9005(3) 0.2210(3) 0.4478(12)
H30_2 H 0.8968 0.2213 0.5407
C32_2 C 0.9078(3) 0.2535(3) 0.378(2)
H31_2 H 0.9085 0.2758 0.4253
C33_3 C 0.9140(4) 0.2542(4) 0.242(2)
H32_3 H 0.9193 0.2766 0.1990
C34_3 C 0.9126(3) 0.2219(3) 0.1703(13)
H33_3 H 0.9166 0.2225 0.0776
C35_3 C 0.9052(2) 0.1882(2) 0.2333(10)
O3_3 O 0.90567(13) 0.15729(13) 0.1577(5)
N22_2 N 0.85064(15) 0.06955(15) 0.2561(5)
C36_3 C 0.8393(2) 0.04291(19) 0.1798(7)
H34_3 H 0.8266 0.0236 0.2215
C37_3 C 0.8443(2) 0.0402(2) 0.0362(7)
O4_3 O 0.87374(13) 0.10020(13) 0.0133(4)
C43_2 C 0.8733(2) 0.0897(2) 0.4698(6)
H39_2 H 0.8948 0.0736 0.4770
H40_2 H 0.8657 0.0968 0.5601
C44_2 C 0.8425(2) 0.0695(2) 0.4016(7)
H41_2 H 0.8190 0.0819 0.4189
H42_2 H 0.8409 0.0443 0.4350
N24_3 N 0.56670(14) 0.42252(14) 0.3005(5)
Mn3_3 Mn 0.86369(3) 0.37090(3) 0.05550(9)
Cu1_8 Cu 0.7500 0.7500 0.7500
N1_4 N 0.78764(14) 0.69731(13) 0.7964(4)
N2_4 N 0.79872(13) 0.69511(13) 0.9296(4)
C1_3 C 0.80472(18) 0.66945(17) 0.7392(6)
H1_3 H 0.8022 0.6639 0.6480
C2_4 C 0.82109(17) 0.66634(16) 0.9418(6)
N3_4 N 0.82647(14) 0.64936(14) 0.8235(5)
N4_4 N 0.78745(13) 0.77686(12) 0.8631(4)
N5_4 N 0.80031(12) 0.76285(13) 0.9816(4)
C3_4 C 0.80419(17) 0.80850(17) 0.8485(6)
H3_4 H 0.8004 0.8240 0.7748
N7_3 N 0.72365(14) 0.73588(13) 0.9280(5)
C5_3 C 0.68938(19) 0.7333(2) 0.9711(7)
H5_3 H 0.6691 0.7390 0.9168
Mn1_4 Mn 0.87910(3) 0.61369(3) 0.80550(9)
N10_3 N 0.88264(15) 0.62278(16) 0.6089(5)
C7_3 C 0.8897(2) 0.6540(3) 0.5549(8)
H8_2 H 0.8890 0.6553 0.4612
C8_3 C 0.8988(2) 0.6873(3) 0.6267(11)
C9_3 C 0.9005(3) 0.7210(3) 0.5522(12)
H9_2 H 0.8968 0.7213 0.4593
C10_3 C 0.9078(3) 0.7535(3) 0.622(2)
H10_3 H 0.9085 0.7758 0.5747
C11_4 C 0.9140(4) 0.7542(4) 0.758(2)
H11_4 H 0.9193 0.7766 0.8010
C12_4 C 0.9126(3) 0.7219(3) 0.8297(13)
H12_4 H 0.9166 0.7225 0.9224
C13_4 C 0.9052(2) 0.6882(2) 0.7667(10)
O1_4 O 0.90567(13) 0.65729(13) 0.8423(5)
N11_3 N 0.85064(15) 0.56955(15) 0.7439(5)
C14_4 C 0.8393(2) 0.54291(19) 0.8202(7)
H13_4 H 0.8266 0.5236 0.7785
C15_4 C 0.8443(2) 0.5402(2) 0.9638(7)
H14_4 H 0.8231 0.4887 0.9779
O2_4 O 0.87374(13) 0.60020(13) 0.9867(4)
C21_3 C 0.8733(2) 0.5897(2) 0.5302(6)
H18_3 H 0.8948 0.5736 0.5230
H19_2 H 0.8657 0.5968 0.4399
C22_3 C 0.8425(2) 0.5695(2) 0.5984(7)
H20_3 H 0.8190 0.5819 0.5811
H21_3 H 0.8409 0.5443 0.5650
N12_4 N 0.71236(14) 0.80269(13) 0.7036(4)
N13_4 N 0.70128(13) 0.80489(13) 0.5704(4)
C23_3 C 0.69528(18) 0.83055(17) 0.7608(6)
H22_3 H 0.6978 0.8361 0.8520
C24_4 C 0.67891(17) 0.83366(16) 0.5582(6)
H23_3 H 0.6682 0.8412 0.4773
N14_4 N 0.67353(14) 0.85064(14) 0.6765(5)
N15_4 N 0.71255(13) 0.72314(12) 0.6369(4)
N16_4 N 0.69969(12) 0.73715(13) 0.5184(4)
C25_4 C 0.69581(17) 0.69150(17) 0.6515(6)
H24_4 H 0.6996 0.6760 0.7252
C26_3 C 0.67596(17) 0.71272(17) 0.4698(6)
H25_3 H 0.6631 0.7156 0.3889
N17_4 N 0.67252(14) 0.68330(14) 0.5505(5)
N18_3 N 0.77635(14) 0.76412(13) 0.5720(5)
N19_2 N 0.75573(13) 0.77421(12) 0.4618(4)
C27_3 C 0.81062(19) 0.7667(2) 0.5289(7)
H26_3 H 0.8309 0.7610 0.5832
C28_2 C 0.77931(19) 0.78259(19) 0.3624(7)
H27_2 H 0.7722 0.7905 0.2769
N20_2 N 0.81436(16) 0.77807(18) 0.4014(7)
B2_3 B 0.71335(19) 0.77550(18) 0.4663(6)
H28_3 H 0.7030 0.7810 0.3770
N21_3 N 0.61736(15) 0.87722(16) 0.8911(5)
C29_3 C 0.6103(2) 0.8460(3) 0.9451(8)
C30_3 C 0.6012(2) 0.8127(3) 0.8733(11)
C31_3 C 0.5995(3) 0.7790(3) 0.9478(12)
C32_3 C 0.5922(3) 0.7465(3) 0.878(2)
H31_3 H 0.5915 0.7242 0.9253
C33_4 C 0.5860(4) 0.7458(4) 0.742(2)
H32_4 H 0.5807 0.7234 0.6990
C34_4 C 0.5874(3) 0.7781(3) 0.6703(13)
H33_4 H 0.5834 0.7775 0.5776
C35_4 C 0.5948(2) 0.8118(2) 0.7333(10)
O3_4 O 0.59433(13) 0.84271(13) 0.6577(5)
N22_3 N 0.64936(15) 0.93045(15) 0.7561(5)
C36_4 C 0.6607(2) 0.95709(19) 0.6798(7)
H34_4 H 0.6734 0.9764 0.7215
C37_4 C 0.6557(2) 0.9598(2) 0.5362(7)
C38_3 C 0.6654(3) 0.9926(2) 0.4725(9)
C39_3 C 0.6585(4) 0.9982(3) 0.3372(11)
C40_3 C 0.6412(4) 0.9705(3) 0.2670(10)
H37_2 H 0.6362 0.9739 0.1757
C41_3 C 0.6312(3) 0.9384(3) 0.3266(7)
H38_3 H 0.6195 0.9202 0.2753
C42_3 C 0.6380(2) 0.9315(2) 0.4627(6)
O4_4 O 0.62626(13) 0.89980(13) 0.5133(4)
C43_3 C 0.6267(2) 0.9103(2) 0.9698(6)
H39_3 H 0.6052 0.9264 0.9770
C44_3 C 0.6575(2) 0.9305(2) 0.9016(7)
H41_3 H 0.6810 0.9181 0.9189
H42_3 H 0.6591 0.9557 0.9350
N24_4 N 0.93330(14) 0.57748(14) 0.8005(5)
Mn3_4 Mn 0.63631(3) 0.62910(3) 0.55550(9)
Cu1_9 Cu 0.5000 0.5000 0.5000
N1_5 N 0.55269(13) 0.53764(14) 0.5464(4)
N2_5 N 0.55489(13) 0.54872(13) 0.6796(4)
C1_4 C 0.58055(17) 0.55472(18) 0.4892(6)
H1_4 H 0.5861 0.5522 0.3980
C2_5 C 0.58366(16) 0.57109(17) 0.6918(6)
H2_4 H 0.5912 0.5818 0.7727
N3_5 N 0.60064(14) 0.57647(14) 0.5735(5)
N4_5 N 0.47314(12) 0.53745(13) 0.6131(4)
N5_5 N 0.48715(13) 0.55031(12) 0.7316(4)
C3_5 C 0.44150(17) 0.55419(17) 0.5985(6)
H3_5 H 0.4260 0.5504 0.5248
C4_4 C 0.46272(17) 0.57404(17) 0.7802(6)
H4_4 H 0.4656 0.5869 0.8611
N6_3 N 0.43330(14) 0.57748(14) 0.6995(5)
N7_4 N 0.51412(13) 0.47365(14) 0.6780(5)
N8_3 N 0.52421(12) 0.49427(13) 0.7882(4)
C5_4 C 0.5167(2) 0.43938(19) 0.7211(7)
H5_4 H 0.5110 0.4191 0.6668
C6_3 C 0.53259(19) 0.47069(19) 0.8876(7)
H6_3 H 0.5405 0.4778 0.9731
N9_3 N 0.52807(18) 0.43564(16) 0.8486(7)
B1_4 B 0.52550(18) 0.53665(19) 0.7837(6)
H7_4 H 0.5310 0.5470 0.8730
N10_4 N 0.62722(16) 0.63264(15) 0.3589(5)
C7_4 C 0.5960(3) 0.6397(2) 0.3049(8)
H8_3 H 0.5947 0.6390 0.2112
C8_4 C 0.5627(3) 0.6488(2) 0.3767(11)
C9_4 C 0.5290(3) 0.6505(3) 0.3022(12)
H9_3 H 0.5287 0.6468 0.2093
C10_4 C 0.4965(3) 0.6578(3) 0.372(2)
H10_4 H 0.4742 0.6585 0.3247
C11_5 C 0.4958(4) 0.6640(4) 0.508(2)
H11_5 H 0.4734 0.6693 0.5510
C12_5 C 0.5281(3) 0.6626(3) 0.5797(13)
H12_5 H 0.5275 0.6666 0.6724
C13_5 C 0.5618(2) 0.6552(2) 0.5167(10)
O1_5 O 0.59271(13) 0.65567(13) 0.5923(5)
N11_4 N 0.68045(15) 0.60064(15) 0.4939(5)
C14_5 C 0.70709(19) 0.5893(2) 0.5702(7)
H13_5 H 0.7264 0.5766 0.5285
C15_5 C 0.7098(2) 0.5943(2) 0.7138(7)
C16_4 C 0.7426(2) 0.5846(3) 0.7775(9)
H14_5 H 0.7613 0.5731 0.7279
C17_4 C 0.7482(3) 0.5915(4) 0.9128(11)
H15_4 H 0.7702 0.5846 0.9552
C18_4 C 0.7205(3) 0.6088(4) 0.9830(10)
C19_4 C 0.6884(3) 0.6188(3) 0.9234(7)
H17_4 H 0.6702 0.6305 0.9747
C20_4 C 0.6815(2) 0.6120(2) 0.7873(6)
O2_5 O 0.64980(13) 0.62374(13) 0.7367(4)
C21_4 C 0.6603(2) 0.6233(2) 0.2802(6)
H18_4 H 0.6764 0.6448 0.2730
H19_3 H 0.6532 0.6157 0.1899
C22_4 C 0.6805(2) 0.5925(2) 0.3484(7)
H20_4 H 0.6681 0.5690 0.3311
H21_4 H 0.7057 0.5909 0.3150
N12_5 N 0.44731(13) 0.46236(14) 0.4536(4)
N13_5 N 0.44511(13) 0.45128(13) 0.3204(4)
C23_4 C 0.41945(17) 0.44528(18) 0.5108(6)
H22_4 H 0.4139 0.4478 0.6020
C24_5 C 0.41634(16) 0.42891(17) 0.3082(6)
H23_4 H 0.4088 0.4182 0.2273
N14_5 N 0.39936(14) 0.42353(14) 0.4265(5)
N15_5 N 0.52686(12) 0.46255(13) 0.3869(4)
N16_5 N 0.51285(13) 0.44969(12) 0.2684(4)
C25_5 C 0.55850(17) 0.44581(17) 0.4015(6)
H24_5 H 0.5740 0.4496 0.4752
C26_4 C 0.53728(17) 0.42596(17) 0.2198(6)
H25_4 H 0.5344 0.4131 0.1389
N18_4 N 0.48588(13) 0.52635(14) 0.3220(5)
N19_3 N 0.47579(12) 0.50573(13) 0.2118(4)
C27_4 C 0.4833(2) 0.56062(19) 0.2789(7)
H26_4 H 0.4890 0.5809 0.3332
C28_3 C 0.46741(19) 0.52931(19) 0.1124(7)
H27_3 H 0.4595 0.5222 0.0269
N20_3 N 0.47193(18) 0.56436(16) 0.1514(7)
B2_4 B 0.47450(18) 0.46335(19) 0.2163(6)
H28_4 H 0.4690 0.4530 0.1270
Mn2_3 Mn 0.36369(3) 0.37090(3) 0.44450(9)
N21_4 N 0.37278(16) 0.36736(15) 0.6411(5)
C29_4 C 0.4040(3) 0.3603(2) 0.6951(8)
H29_3 H 0.4053 0.3610 0.7888
C30_4 C 0.4373(3) 0.3512(2) 0.6233(11)
C31_4 C 0.4710(3) 0.3495(3) 0.6978(12)
H30_3 H 0.4713 0.3532 0.7907
C32_4 C 0.5035(3) 0.3422(3) 0.628(2)
H31_4 H 0.5258 0.3415 0.6753
C33_5 C 0.5042(4) 0.3360(4) 0.492(2)
H32_5 H 0.5266 0.3307 0.4490
C34_5 C 0.4719(3) 0.3374(3) 0.4203(13)
H33_5 H 0.4725 0.3334 0.3276
C35_5 C 0.4382(2) 0.3448(2) 0.4833(10)
O3_5 O 0.40729(13) 0.34433(13) 0.4077(5)
N22_4 N 0.31955(15) 0.39936(15) 0.5061(5)
C36_5 C 0.29291(19) 0.4107(2) 0.4298(7)
H34_5 H 0.2736 0.4234 0.4715
C37_5 C 0.2902(2) 0.4057(2) 0.2862(7)
C38_4 C 0.2574(2) 0.4154(3) 0.2225(9)
H35_3 H 0.2387 0.4269 0.2721
C39_4 C 0.2518(3) 0.4085(4) 0.0872(11)
H36_3 H 0.2298 0.4154 0.0448
C40_4 C 0.2795(3) 0.3912(4) 0.0170(10)
C41_4 C 0.3116(3) 0.3812(3) 0.0766(7)
H38_4 H 0.3298 0.3695 0.0253
C42_4 C 0.3185(2) 0.3880(2) 0.2127(6)
O4_5 O 0.35020(13) 0.37626(13) 0.2633(4)
C43_4 C 0.3397(2) 0.3767(2) 0.7198(6)
H39_4 H 0.3236 0.3552 0.7270
H40_3 H 0.3468 0.3843 0.8101
C44_4 C 0.3195(2) 0.4075(2) 0.6516(7)
H41_4 H 0.3319 0.4310 0.6689
H42_4 H 0.2943 0.4091 0.6850
N23_3 N 0.32748(14) 0.31670(14) 0.4495(5)
Mn4_3 Mn 0.37910(3) 0.61369(3) 0.69450(9)
Cu1_10 Cu 0.0000 0.5000 0.0000
N4_6 N 0.02686(12) 0.46255(13) 0.1131(4)
N5_6 N 0.01285(13) 0.44969(12) 0.2316(4)
C3_6 C 0.05850(17) 0.44581(17) 0.0985(6)
H3_6 H 0.0740 0.4496 0.0248
C4_5 C 0.03728(17) 0.42596(17) 0.2802(6)
H4_5 H 0.0344 0.4131 0.3611
N6_4 N 0.06670(14) 0.42252(14) 0.1995(5)
C11_6 C 0.0042(4) 0.3360(4) 0.008(2)
H11_6 H 0.0266 0.3307 0.0510
C23_5 C 0.08055(17) 0.55472(18) 0.0108(6)
H22_5 H 0.0861 0.5522 0.1020
N21_5 N 0.12722(16) 0.63264(15) 0.1411(5)
C29_5 C 0.0960(3) 0.6397(2) 0.1951(8)
H29_4 H 0.0947 0.6390 0.2888
C30_5 C 0.0627(3) 0.6488(2) 0.1233(11)
C31_5 C 0.0290(3) 0.6505(3) 0.1978(12)
H30_4 H 0.0287 0.6468 0.2907
N22_5 N 0.18045(15) 0.60064(15) 0.0061(5)
C43_5 C 0.1603(2) 0.6233(2) 0.2198(6)
H39_5 H 0.1764 0.6448 0.2270
H40_4 H 0.1532 0.6157 0.3101
C44_5 C 0.1805(2) 0.5925(2) 0.1516(7)
H41_5 H 0.1681 0.5690 0.1689
H42_5 H 0.2057 0.5909 0.1850
Mn4_4 Mn 0.12090(3) 0.38631(3) 0.19450(9)
Cu1_11 Cu 0.0000 0.5000 1.0000
C10_5 C 0.0035(3) 0.3422(3) 0.872(2)
H10_5 H 0.0258 0.3415 0.8247
N12_6 N 0.05269(13) 0.53764(14) 0.9536(4)
N13_6 N 0.05489(13) 0.54872(13) 0.8204(4)
C24_6 C 0.08366(16) 0.57109(17) 0.8082(6)
H23_5 H 0.0912 0.5818 0.7273
N14_6 N 0.10064(14) 0.57647(14) 0.9265(5)
N18_5 N 0.01412(13) 0.47365(14) 0.8220(5)
N19_4 N 0.02421(12) 0.49427(13) 0.7118(4)
C27_5 C 0.0167(2) 0.43938(19) 0.7789(7)
H26_5 H 0.0110 0.4191 0.8332
C28_4 C 0.03259(19) 0.47069(19) 0.6124(7)
H27_4 H 0.0405 0.4778 0.5269
N20_4 N 0.02807(18) 0.43564(16) 0.6514(7)
B2_5 B 0.02550(18) 0.53665(19) 0.7163(6)
H28_5 H 0.0310 0.5470 0.6270
Mn2_4 Mn 0.13631(3) 0.62910(3) 0.94450(9)
C34_6 C 0.0281(3) 0.6626(3) 0.9203(13)
H33_6 H 0.0275 0.6666 0.8276
C35_6 C 0.0618(2) 0.6552(2) 0.9833(10)
O3_6 O 0.09271(13) 0.65567(13) 0.9077(5)
C36_6 C 0.20709(19) 0.5893(2) 0.9298(7)
H34_6 H 0.2264 0.5766 0.9715
C37_6 C 0.2098(2) 0.5943(2) 0.7862(7)
C38_5 C 0.2426(2) 0.5846(3) 0.7225(9)
H35_4 H 0.2613 0.5731 0.7721
C39_5 C 0.2482(3) 0.5915(4) 0.5872(11)
H36_4 H 0.2702 0.5846 0.5448
C40_5 C 0.2205(3) 0.6088(4) 0.5170(10)
H37_3 H 0.2239 0.6138 0.4257
C41_5 C 0.1884(3) 0.6188(3) 0.5766(7)
H38_5 H 0.1702 0.6305 0.5253
C42_5 C 0.1815(2) 0.6120(2) 0.7127(6)
O4_6 O 0.14980(13) 0.62374(13) 0.7633(4)
N23_4 N 0.17252(14) 0.68330(14) 0.9495(5)
Cu1_12 Cu 1.0000 0.5000 0.0000
N1_6 N 0.94731(13) 0.46236(14) 0.0464(4)
N2_6 N 0.94511(13) 0.45128(13) 0.1796(4)
C2_6 C 0.91634(16) 0.42891(17) 0.1918(6)
H2_5 H 0.9088 0.4182 0.2727
N3_6 N 0.89936(14) 0.42353(14) 0.0735(5)
N7_5 N 0.98588(13) 0.52635(14) 0.1780(5)
N8_4 N 0.97579(12) 0.50573(13) 0.2882(4)
C5_5 C 0.9833(2) 0.56062(19) 0.2211(7)
H5_5 H 0.9890 0.5809 0.1668
C6_4 C 0.96741(19) 0.52931(19) 0.3876(7)
H6_4 H 0.9595 0.5222 0.4731
N9_4 N 0.97193(18) 0.56436(16) 0.3486(7)
B1_5 B 0.97450(18) 0.46335(19) 0.2837(6)
H7_5 H 0.9690 0.4530 0.3730
C12_6 C 0.9719(3) 0.3374(3) 0.0797(13)
H12_6 H 0.9725 0.3334 0.1724
C13_6 C 0.9382(2) 0.3448(2) 0.0167(10)
O1_6 O 0.90729(13) 0.34433(13) 0.0923(5)
C14_6 C 0.79291(19) 0.4107(2) 0.0702(7)
H13_6 H 0.7736 0.4234 0.0285
C15_6 C 0.7902(2) 0.4057(2) 0.2138(7)
C16_5 C 0.7574(2) 0.4154(3) 0.2775(9)
H14_6 H 0.7387 0.4269 0.2279
C17_5 C 0.7518(3) 0.4085(4) 0.4128(11)
H15_5 H 0.7298 0.4154 0.4552
C18_5 C 0.7795(3) 0.3912(4) 0.4830(10)
H16_3 H 0.7761 0.3862 0.5743
C19_5 C 0.8116(3) 0.3812(3) 0.4234(7)
H17_5 H 0.8298 0.3695 0.4747
C20_5 C 0.8185(2) 0.3880(2) 0.2873(6)
O2_6 O 0.85020(13) 0.37626(13) 0.2367(4)
C32_5 C 0.9965(3) 0.6578(3) 0.128(2)
H31_5 H 0.9742 0.6585 0.1753
Cu1_13 Cu 1.0000 0.5000 1.0000
C1_5 C 0.91945(17) 0.44528(18) 0.9892(6)
H1_5 H 0.9139 0.4478 0.8980
N10_5 N 0.87278(16) 0.36736(15) 0.8589(5)
C7_5 C 0.9040(3) 0.3603(2) 0.8049(8)
H8_4 H 0.9053 0.3610 0.7112
C8_5 C 0.9373(3) 0.3512(2) 0.8767(11)
C9_5 C 0.9710(3) 0.3495(3) 0.8022(12)
H9_4 H 0.9713 0.3532 0.7093
N11_5 N 0.81955(15) 0.39936(15) 0.9939(5)
C21_5 C 0.8397(2) 0.3767(2) 0.7802(6)
H18_5 H 0.8236 0.3552 0.7730
H19_4 H 0.8468 0.3843 0.6899
C22_5 C 0.8195(2) 0.4075(2) 0.8484(7)
H20_5 H 0.8319 0.4310 0.8311
H21_5 H 0.7943 0.4091 0.8150
N15_6 N 0.97314(12) 0.53745(13) 0.8869(4)
N16_6 N 0.98715(13) 0.55031(12) 0.7684(4)
C25_6 C 0.94150(17) 0.55419(17) 0.9015(6)
H24_6 H 0.9260 0.5504 0.9752
C26_5 C 0.96272(17) 0.57404(17) 0.7198(6)
H25_5 H 0.9656 0.5869 0.6389
C33_6 C 0.9958(4) 0.6640(4) 0.992(2)
H32_6 H 0.9734 0.6693 0.9490
Cu1_14 Cu 0.2500 0.7500 0.7500
N1_7 N 0.21236(14) 0.80269(13) 0.7964(4)
N2_7 N 0.20128(13) 0.80489(13) 0.9296(4)
C1_6 C 0.19528(18) 0.83055(17) 0.7392(6)
H1_6 H 0.1978 0.8361 0.6480
C2_7 C 0.17891(17) 0.83366(16) 0.9418(6)
N3_7 N 0.17353(14) 0.85064(14) 0.8235(5)
N4_7 N 0.21255(13) 0.72314(12) 0.8631(4)
N5_7 N 0.19969(12) 0.73715(13) 0.9816(4)
C3_7 C 0.19581(17) 0.69150(17) 0.8485(6)
H3_7 H 0.1996 0.6760 0.7748
N7_6 N 0.27635(14) 0.76412(13) 0.9280(5)
C5_6 C 0.31062(19) 0.7667(2) 0.9711(7)
H5_6 H 0.3309 0.7610 0.9168
N10_6 N 0.11736(15) 0.87722(16) 0.6089(5)
C7_6 C 0.1103(2) 0.8460(3) 0.5549(8)
H8_5 H 0.1110 0.8447 0.4612
C8_6 C 0.1012(2) 0.8127(3) 0.6267(11)
C9_6 C 0.0995(3) 0.7790(3) 0.5522(12)
H9_5 H 0.1032 0.7787 0.4593
C10_6 C 0.0922(3) 0.7465(3) 0.622(2)
H10_6 H 0.0915 0.7242 0.5747
C11_7 C 0.0860(4) 0.7458(4) 0.758(2)
H11_7 H 0.0807 0.7234 0.8010
C12_7 C 0.0874(3) 0.7781(3) 0.8297(13)
H12_7 H 0.0834 0.7775 0.9224
C13_7 C 0.0948(2) 0.8118(2) 0.7667(10)
O1_7 O 0.09433(13) 0.84271(13) 0.8423(5)
N11_6 N 0.14936(15) 0.93045(15) 0.7439(5)
C14_7 C 0.1607(2) 0.95709(19) 0.8202(7)
H13_7 H 0.1734 0.9764 0.7785
C15_7 C 0.1557(2) 0.9598(2) 0.9638(7)
O2_7 O 0.12626(13) 0.89980(13) 0.9867(4)
C21_6 C 0.1267(2) 0.9103(2) 0.5302(6)
H18_6 H 0.1052 0.9264 0.5230
H19_5 H 0.1343 0.9032 0.4399
C22_6 C 0.1575(2) 0.9305(2) 0.5984(7)
H20_6 H 0.1810 0.9181 0.5811
H21_6 H 0.1591 0.9557 0.5650
N12_7 N 0.28764(14) 0.69731(13) 0.7036(4)
N13_7 N 0.29872(13) 0.69511(13) 0.5704(4)
C23_6 C 0.30472(18) 0.66945(17) 0.7608(6)
H22_6 H 0.3022 0.6639 0.8520
C24_7 C 0.32109(17) 0.66634(16) 0.5582(6)
H23_6 H 0.3318 0.6588 0.4773
N14_7 N 0.32647(14) 0.64936(14) 0.6765(5)
N15_7 N 0.28745(13) 0.77686(12) 0.6369(4)
N16_7 N 0.30031(12) 0.76285(13) 0.5184(4)
C25_7 C 0.30419(17) 0.80850(17) 0.6515(6)
H24_7 H 0.3004 0.8240 0.7252
C26_6 C 0.32404(17) 0.78728(17) 0.4698(6)
H25_6 H 0.3369 0.7844 0.3889
N18_6 N 0.22365(14) 0.73588(13) 0.5720(5)
N19_5 N 0.24427(13) 0.72579(12) 0.4618(4)
C27_6 C 0.18938(19) 0.7333(2) 0.5289(7)
H26_6 H 0.1691 0.7390 0.5832
C28_5 C 0.22069(19) 0.71741(19) 0.3624(7)
H27_5 H 0.2278 0.7095 0.2769
N20_5 N 0.18564(16) 0.72193(18) 0.4014(7)
B2_6 B 0.28665(19) 0.72450(18) 0.4663(6)
H28_6 H 0.2970 0.7190 0.3770
N21_6 N 0.38264(15) 0.62278(16) 0.8911(5)
C29_6 C 0.3897(2) 0.6540(3) 0.9451(8)
C30_6 C 0.3988(2) 0.6873(3) 0.8733(11)
C31_6 C 0.4005(3) 0.7210(3) 0.9478(12)
C32_6 C 0.4078(3) 0.7535(3) 0.878(2)
H31_6 H 0.4085 0.7758 0.9253
C33_7 C 0.4140(4) 0.7542(4) 0.742(2)
H32_7 H 0.4193 0.7766 0.6990
C34_7 C 0.4126(3) 0.7219(3) 0.6703(13)
H33_7 H 0.4166 0.7225 0.5776
C35_7 C 0.4052(2) 0.6882(2) 0.7333(10)
O3_7 O 0.40567(13) 0.65729(13) 0.6577(5)
N22_6 N 0.35064(15) 0.56955(15) 0.7561(5)
C36_7 C 0.3393(2) 0.54291(19) 0.6798(7)
H34_7 H 0.3266 0.5236 0.7215
C37_7 C 0.3443(2) 0.5402(2) 0.5362(7)
C38_6 C 0.3346(3) 0.5074(2) 0.4725(9)
H35_5 H 0.3231 0.4887 0.5221
C39_6 C 0.3415(4) 0.5018(3) 0.3372(11)
H36_5 H 0.3346 0.4798 0.2948
C40_6 C 0.3588(4) 0.5295(3) 0.2670(10)
H37_4 H 0.3638 0.5261 0.1757
C41_6 C 0.3688(3) 0.5616(3) 0.3266(7)
H38_6 H 0.3805 0.5798 0.2753
C42_6 C 0.3620(2) 0.5685(2) 0.4627(6)
O4_7 O 0.37374(13) 0.60020(13) 0.5133(4)
C43_6 C 0.3733(2) 0.5897(2) 0.9698(6)
H39_6 H 0.3948 0.5736 0.9770
C44_6 C 0.3425(2) 0.5695(2) 0.9016(7)
H41_6 H 0.3190 0.5819 0.9189
H42_6 H 0.3409 0.5443 0.9350
Cu1_15 Cu 0.2500 0.2500 0.2500
N1_8 N 0.28764(14) 0.19731(13) 0.2964(4)
N2_8 N 0.29872(13) 0.19511(13) 0.4296(4)
C1_7 C 0.30472(18) 0.16945(17) 0.2392(6)
H1_7 H 0.3022 0.1639 0.1480
C2_8 C 0.32109(17) 0.16634(16) 0.4418(6)
H2_6 H 0.3318 0.1588 0.5227
N3_8 N 0.32647(14) 0.14936(14) 0.3235(5)
N4_8 N 0.28745(13) 0.27686(12) 0.3631(4)
N5_8 N 0.30031(12) 0.26285(13) 0.4816(4)
C3_8 C 0.30419(17) 0.30850(17) 0.3485(6)
H3_8 H 0.3004 0.3240 0.2748
C4_6 C 0.32404(17) 0.28728(17) 0.5302(6)
H4_6 H 0.3369 0.2844 0.6111
N7_7 N 0.22365(14) 0.23588(13) 0.4280(5)
N8_5 N 0.24427(13) 0.22579(12) 0.5382(4)
C5_7 C 0.18938(19) 0.2333(2) 0.4711(7)
H5_7 H 0.1691 0.2390 0.4168
C6_5 C 0.22069(19) 0.21741(19) 0.6376(7)
H6_5 H 0.2278 0.2095 0.7231
N9_5 N 0.18564(16) 0.22193(18) 0.5986(7)
B1_6 B 0.28665(19) 0.22450(18) 0.5337(6)
H7_6 H 0.2970 0.2190 0.6230
N10_7 N 0.38264(15) 0.12278(16) 0.1089(5)
C7_7 C 0.3897(2) 0.1540(3) 0.0549(8)
C8_7 C 0.3988(2) 0.1873(3) 0.1267(11)
C9_7 C 0.4005(3) 0.2210(3) 0.0522(12)
C10_7 C 0.4078(3) 0.2535(3) 0.122(2)
H10_7 H 0.4085 0.2758 0.0747
C11_8 C 0.4140(4) 0.2542(4) 0.258(2)
H11_8 H 0.4193 0.2766 0.3010
C12_8 C 0.4126(3) 0.2219(3) 0.3297(13)
H12_8 H 0.4166 0.2225 0.4224
C13_8 C 0.4052(2) 0.1882(2) 0.2667(10)
O1_8 O 0.40567(13) 0.15729(13) 0.3423(5)
N11_7 N 0.35064(15) 0.06955(15) 0.2439(5)
C14_8 C 0.3393(2) 0.04291(19) 0.3202(7)
H13_8 H 0.3266 0.0236 0.2785
C15_8 C 0.3443(2) 0.0402(2) 0.4638(7)
C16_6 C 0.3346(3) 0.0074(2) 0.5275(9)
C17_6 C 0.3415(4) 0.0018(3) 0.6628(11)
C18_6 C 0.3588(4) 0.0295(3) 0.7330(10)
H16_4 H 0.3638 0.0261 0.8243
C19_6 C 0.3688(3) 0.0616(3) 0.6734(7)
H17_6 H 0.3805 0.0798 0.7247
C20_6 C 0.3620(2) 0.0685(2) 0.5373(6)
O2_8 O 0.37374(13) 0.10020(13) 0.4867(4)
C21_7 C 0.3733(2) 0.0897(2) 0.0302(6)
H18_7 H 0.3948 0.0736 0.0230
C22_7 C 0.3425(2) 0.0695(2) 0.0984(7)
H20_7 H 0.3190 0.0819 0.0811
H21_7 H 0.3409 0.0443 0.0650
N12_8 N 0.21236(14) 0.30269(13) 0.2036(4)
N13_8 N 0.20128(13) 0.30489(13) 0.0704(4)
C23_7 C 0.19528(18) 0.33055(17) 0.2608(6)
H22_7 H 0.1978 0.3361 0.3520
C24_8 C 0.17891(17) 0.33366(16) 0.0582(6)
N14_8 N 0.17353(14) 0.35064(14) 0.1765(5)
N15_8 N 0.21255(13) 0.22314(12) 0.1369(4)
N16_8 N 0.19969(12) 0.23715(13) 0.0184(4)
C25_8 C 0.19581(17) 0.19150(17) 0.1515(6)
H24_8 H 0.1996 0.1760 0.2252
N18_7 N 0.27635(14) 0.26412(13) 0.0720(5)
C27_7 C 0.31062(19) 0.2667(2) 0.0289(7)
H26_7 H 0.3309 0.2610 0.0832
N21_7 N 0.11736(15) 0.37722(16) 0.3911(5)
C29_7 C 0.1103(2) 0.3460(3) 0.4451(8)
H29_5 H 0.1110 0.3447 0.5388
C30_7 C 0.1012(2) 0.3127(3) 0.3733(11)
C31_7 C 0.0995(3) 0.2790(3) 0.4478(12)
H30_5 H 0.1032 0.2787 0.5407
C32_7 C 0.0922(3) 0.2465(3) 0.378(2)
H31_7 H 0.0915 0.2242 0.4253
C33_8 C 0.0860(4) 0.2458(4) 0.242(2)
H32_8 H 0.0807 0.2234 0.1990
C34_8 C 0.0874(3) 0.2781(3) 0.1703(13)
H33_8 H 0.0834 0.2775 0.0776
C35_8 C 0.0948(2) 0.3118(2) 0.2333(10)
O3_8 O 0.09433(13) 0.34271(13) 0.1577(5)
N22_7 N 0.14936(15) 0.43045(15) 0.2561(5)
C36_8 C 0.1607(2) 0.45709(19) 0.1798(7)
H34_8 H 0.1734 0.4764 0.2215
C37_8 C 0.1557(2) 0.4598(2) 0.0362(7)
H35_6 H 0.1769 0.5113 0.0221
O4_8 O 0.12626(13) 0.39980(13) 0.0133(4)
C43_7 C 0.1267(2) 0.4103(2) 0.4698(6)
H39_7 H 0.1052 0.4264 0.4770
H40_5 H 0.1343 0.4032 0.5601
C44_7 C 0.1575(2) 0.4305(2) 0.4016(7)
H41_7 H 0.1810 0.4181 0.4189
H42_7 H 0.1591 0.4557 0.4350
Cu1_16 Cu 0.0000 0.0000 1.0000
C1_8 C 0.08055(17) 0.05472(18) 0.9892(6)
H1_8 H 0.0861 0.0522 0.8980
N10_8 N 0.12722(16) 0.13264(15) 0.8589(5)
C7_8 C 0.0960(3) 0.1397(2) 0.8049(8)
H8_6 H 0.0947 0.1390 0.7112
C8_8 C 0.0627(3) 0.1488(2) 0.8767(11)
C9_8 C 0.0290(3) 0.1505(3) 0.8022(12)
H9_6 H 0.0287 0.1468 0.7093
N11_8 N 0.18045(15) 0.10064(15) 0.9939(5)
C21_8 C 0.1603(2) 0.1233(2) 0.7802(6)
H18_8 H 0.1764 0.1448 0.7730
H19_6 H 0.1532 0.1157 0.6899
C22_8 C 0.1805(2) 0.0925(2) 0.8484(7)
H20_8 H 0.1681 0.0690 0.8311
H21_8 H 0.2057 0.0909 0.8150
Cu1_17 Cu 0.0000 1.0000 0.0000
N7_8 N 0.01412(13) 0.97365(14) 0.1780(5)
N8_6 N 0.02421(12) 0.99427(13) 0.2882(4)
C5_8 C 0.0167(2) 0.93938(19) 0.2211(7)
H5_8 H 0.0110 0.9191 0.1668
C6_6 C 0.03259(19) 0.97069(19) 0.3876(7)
H6_6 H 0.0405 0.9778 0.4731
N9_6 N 0.02807(18) 0.93564(16) 0.3486(7)
C32_8 C 0.0035(3) 0.8422(3) 0.128(2)
H31_8 H 0.0258 0.8415 0.1753
Cu1_18 Cu 1.0000 0.0000 1.0000
C10_8 C 0.9965(3) 0.1578(3) 0.872(2)
H10_8 H 0.9742 0.1585 0.8247
N18_8 N 0.98588(13) 0.02635(14) 0.8220(5)
N19_6 N 0.97579(12) 0.00573(13) 0.7118(4)
C27_8 C 0.9833(2) 0.06062(19) 0.7789(7)
H26_8 H 0.9890 0.0809 0.8332
C28_6 C 0.96741(19) 0.02931(19) 0.6124(7)
H27_6 H 0.9595 0.0222 0.5269
N20_6 N 0.97193(18) 0.06436(16) 0.6514(7)
Cu1_19 Cu 1.0000 1.0000 0.0000
C23_8 C 0.91945(17) 0.94528(18) 0.0108(6)
H22_8 H 0.9139 0.9478 0.1020
N21_8 N 0.87278(16) 0.86736(15) 0.1411(5)
C29_8 C 0.9040(3) 0.8603(2) 0.1951(8)
H29_6 H 0.9053 0.8610 0.2888
C30_8 C 0.9373(3) 0.8512(2) 0.1233(11)
C31_8 C 0.9710(3) 0.8495(3) 0.1978(12)
H30_6 H 0.9713 0.8532 0.2907
N22_8 N 0.81955(15) 0.89936(15) 0.0061(5)
C43_8 C 0.8397(2) 0.8767(2) 0.2198(6)
H39_8 H 0.8236 0.8552 0.2270
H40_6 H 0.8468 0.8843 0.3101
C44_8 C 0.8195(2) 0.9075(2) 0.1516(7)
H41_8 H 0.8319 0.9310 0.1689
H42_8 H 0.7943 0.9091 0.1850
H37_5 H 0.7239 0.1138 0.9257
H16_5 H 0.2761 0.8862 0.0743
H8_7 H 0.6110 0.3447 0.9612
H9_7 H 0.6032 0.2787 0.9593
H19_7 H 0.6343 0.4032 0.9399
H23_7 H 0.8318 0.1588 0.9773
C26_7 C 0.82404(17) 0.28728(17) 0.9698(6)
H25_7 H 0.8369 0.2844 0.8889
N19_7 N 0.74427(13) 0.22579(12) 0.9618(4)
C28_7 C 0.72069(19) 0.21741(19) 0.8624(7)
H27_7 H 0.7278 0.2095 0.7769
N20_7 N 0.68564(16) 0.22193(18) 0.9014(7)
B2_7 B 0.78665(19) 0.22450(18) 0.9663(6)
H28_7 H 0.7970 0.2190 0.8770
C38_7 C 0.8346(3) 0.0074(2) 0.9725(9)
C39_7 C 0.8415(4) 0.0018(3) 0.8372(11)
C40_7 C 0.8588(4) 0.0295(3) 0.7670(10)
H37_6 H 0.8638 0.0261 0.6757
C41_7 C 0.8688(3) 0.0616(3) 0.8266(7)
H38_7 H 0.8805 0.0798 0.7753
C42_7 C 0.8620(2) 0.0685(2) 0.9627(6)
H35_7 H 0.8231 0.9887 0.0221
H36_6 H 0.8346 0.9798 0.7948
H35_8 H 0.6769 0.0113 0.5221
H36_7 H 0.6654 0.0202 0.2948
H2_7 H 0.8318 0.6588 0.0227
C4_7 C 0.82404(17) 0.78728(17) 0.0302(6)
H4_7 H 0.8369 0.7844 0.1111
N8_7 N 0.74427(13) 0.72579(12) 0.0382(4)
C6_7 C 0.72069(19) 0.71741(19) 0.1376(7)
H6_7 H 0.7278 0.7095 0.2231
N9_7 N 0.68564(16) 0.72193(18) 0.0986(7)
B1_7 B 0.78665(19) 0.72450(18) 0.0337(6)
H7_7 H 0.7970 0.7190 0.1230
C16_7 C 0.8346(3) 0.5074(2) 0.0275(9)
C17_7 C 0.8415(4) 0.5018(3) 0.1628(11)
H15_6 H 0.8346 0.4798 0.2052
C18_7 C 0.8588(4) 0.5295(3) 0.2330(10)
H16_6 H 0.8638 0.5261 0.3243
C19_7 C 0.8688(3) 0.5616(3) 0.1734(7)
H17_7 H 0.8805 0.5798 0.2247
C20_7 C 0.8620(2) 0.5685(2) 0.0373(6)
H29_7 H 0.6110 0.8447 0.0388
H30_7 H 0.6032 0.7787 0.0407
H40_7 H 0.6343 0.9032 0.0601
H16_7 H 0.7239 0.6138 0.0743
H37_7 H 0.2761 0.3862 0.9257
H15_7 H 0.1654 0.0202 0.2052
H14_7 H 0.1769 0.0113 0.9779
H2_8 H 0.1682 0.8412 0.0227
C4_8 C 0.17596(17) 0.71272(17) 0.0302(6)
H4_8 H 0.1631 0.7156 0.1111
N8_8 N 0.25573(13) 0.77421(12) 0.0382(4)
C6_8 C 0.27931(19) 0.78259(19) 0.1376(7)
H6_8 H 0.2722 0.7905 0.2231
N9_8 N 0.31436(16) 0.77807(18) 0.0986(7)
B1_8 B 0.21335(19) 0.77550(18) 0.0337(6)
H7_8 H 0.2030 0.7810 0.1230
C16_8 C 0.1654(3) 0.9926(2) 0.0275(9)
C17_8 C 0.1585(4) 0.9982(3) 0.1628(11)
C18_8 C 0.1412(4) 0.9705(3) 0.2330(10)
H16_8 H 0.1362 0.9739 0.3243
C19_8 C 0.1312(3) 0.9384(3) 0.1734(7)
H17_8 H 0.1195 0.9202 0.2247
C20_8 C 0.1380(2) 0.9315(2) 0.0373(6)
H29_8 H 0.3890 0.6553 0.0388
H30_8 H 0.3968 0.7213 0.0407
H40_8 H 0.3657 0.5968 0.0601
H8_8 H 0.3890 0.1553 0.9612
H9_8 H 0.3968 0.2213 0.9593
H19_8 H 0.3657 0.0968 0.9399
H23_8 H 0.1682 0.3412 0.9773
C26_8 C 0.17596(17) 0.21272(17) 0.9698(6)
H25_8 H 0.1631 0.2156 0.8889
N19_8 N 0.25573(13) 0.27421(12) 0.9618(4)
C28_8 C 0.27931(19) 0.28259(19) 0.8624(7)
H27_8 H 0.2722 0.2905 0.7769
N20_8 N 0.31436(16) 0.27807(18) 0.9014(7)
B2_8 B 0.21335(19) 0.27550(18) 0.9663(6)
H28_8 H 0.2030 0.2810 0.8770
C38_8 C 0.1654(3) 0.4926(2) 0.9725(9)
C39_8 C 0.1585(4) 0.4982(3) 0.8372(11)
H36_8 H 0.1654 0.5202 0.7948
C40_8 C 0.1412(4) 0.4705(3) 0.7670(10)
H37_8 H 0.1362 0.4739 0.6757
C41_8 C 0.1312(3) 0.4384(3) 0.8266(7)
H38_8 H 0.1195 0.4202 0.7753
C42_8 C 0.1380(2) 0.4315(2) 0.9627(6)
H14_8 H 0.3231 0.9887 0.4779
H15_8 H 0.3346 0.9798 0.7052
Cl1 Cl 0.39546(7) 0.96662(6) 0.10005(19)
O6 O 0.3659(3) 0.9698(2) 0.1824(10)
O7 O 0.4051(3) 0.9311(2) 0.0982(14)
O8 O 0.4245(4) 0.9886(4) 0.1511(10)
O5 O 0.3920(2) 0.9789(3) 0.9752(8)
Cl1_2 Cl 0.10454(7) 0.03338(6) 0.60005(19)
O5_2 O 0.1080(2) 0.0211(3) 0.4752(8)
O6_2 O 0.1341(3) 0.0302(2) 0.6824(10)
O7_2 O 0.0949(3) 0.0689(2) 0.5982(14)
O8_2 O 0.0755(4) 0.0114(4) 0.6511(10)
Cl1_3 Cl 0.78338(6) 0.64546(7) 0.35005(19)
O5_3 O 0.7711(3) 0.6420(2) 0.2252(8)
O6_3 O 0.7802(2) 0.6159(3) 0.4324(10)
O7_3 O 0.8189(2) 0.6551(3) 0.3482(14)
O8_3 O 0.7614(4) 0.6745(4) 0.4011(10)
Cl1_4 Cl 0.71662(6) 0.35454(7) 0.85005(19)
O5_4 O 0.7289(3) 0.3580(2) 0.7252(8)
O6_4 O 0.7198(2) 0.3841(3) 0.9324(10)
O7_4 O 0.6811(2) 0.3449(3) 0.8482(14)
O8_4 O 0.7386(4) 0.3255(4) 0.9011(10)
Cl1_5 Cl 0.89546(7) 0.46662(6) 0.60005(19)
O5_5 O 0.8920(2) 0.4789(3) 0.4752(8)
O6_5 O 0.8659(3) 0.4698(2) 0.6824(10)
O7_5 O 0.9051(3) 0.4311(2) 0.5982(14)
O8_5 O 0.9245(4) 0.4886(4) 0.6511(10)
Cl1_6 Cl 0.60454(7) 0.53338(6) 0.10005(19)
O6_6 O 0.6341(3) 0.5302(2) 0.1824(10)
O7_6 O 0.5949(3) 0.5689(2) 0.0982(14)
O8_6 O 0.5755(4) 0.5114(4) 0.1511(10)
O5_6 O 0.6080(2) 0.5211(3) 0.9752(8)
Cl1_7 Cl 0.28338(6) 0.14546(7) 0.85005(19)
O5_7 O 0.2711(3) 0.1420(2) 0.7252(8)
O6_7 O 0.2802(2) 0.1159(3) 0.9324(10)
O7_7 O 0.3189(2) 0.1551(3) 0.8482(14)
O8_7 O 0.2614(4) 0.1745(4) 0.9011(10)
Cl1_8 Cl 0.21662(6) 0.85454(7) 0.35005(19)
O5_8 O 0.2289(3) 0.8580(2) 0.2252(8)
O6_8 O 0.2198(2) 0.8841(3) 0.4324(10)
O7_8 O 0.1811(2) 0.8449(3) 0.3482(14)
O8_8 O 0.2386(4) 0.8255(4) 0.4011(10)
O5_9 O 0.6080(2) 0.0211(3) 0.0248(8)
Cl1_9 Cl 0.60454(7) 0.03338(6) 0.89995(19)
O6_9 O 0.6341(3) 0.0302(2) 0.8176(10)
O7_9 O 0.5949(3) 0.0689(2) 0.9018(14)
O8_9 O 0.5755(4) 0.0114(4) 0.8489(10)
Cl1_10 Cl 0.89546(7) 0.96662(6) 0.39995(19)
O5_10 O 0.8920(2) 0.9789(3) 0.5248(8)
O6_10 O 0.8659(3) 0.9698(2) 0.3176(10)
O7_10 O 0.9051(3) 0.9311(2) 0.4018(14)
O8_10 O 0.9245(4) 0.9886(4) 0.3489(10)
Cl1_11 Cl 0.21662(6) 0.35454(7) 0.64995(19)
O5_11 O 0.2289(3) 0.3580(2) 0.7748(8)
O6_11 O 0.2198(2) 0.3841(3) 0.5676(10)
O7_11 O 0.1811(2) 0.3449(3) 0.6518(14)
O8_11 O 0.2386(4) 0.3255(4) 0.5989(10)
Cl1_12 Cl 0.28338(6) 0.64546(7) 0.14995(19)
O5_12 O 0.2711(3) 0.6420(2) 0.2748(8)
O6_12 O 0.2802(2) 0.6159(3) 0.0676(10)
O7_12 O 0.3189(2) 0.6551(3) 0.1518(14)
O8_12 O 0.2614(4) 0.6745(4) 0.0989(10)
Cl1_13 Cl 0.10454(7) 0.53338(6) 0.39995(19)
O5_13 O 0.1080(2) 0.5211(3) 0.5248(8)
O6_13 O 0.1341(3) 0.5302(2) 0.3176(10)
O7_13 O 0.0949(3) 0.5689(2) 0.4018(14)
O8_13 O 0.0755(4) 0.5114(4) 0.3489(10)
O5_14 O 0.3920(2) 0.4789(3) 0.0248(8)
Cl1_14 Cl 0.39546(7) 0.46662(6) 0.89995(19)
O6_14 O 0.3659(3) 0.4698(2) 0.8176(10)
O7_14 O 0.4051(3) 0.4311(2) 0.9018(14)
O8_14 O 0.4245(4) 0.4886(4) 0.8489(10)
Cl1_15 Cl 0.71662(6) 0.85454(7) 0.14995(19)
O5_15 O 0.7289(3) 0.8580(2) 0.2748(8)
O6_15 O 0.7198(2) 0.8841(3) 0.0676(10)
O7_15 O 0.6811(2) 0.8449(3) 0.1518(14)
O8_15 O 0.7386(4) 0.8255(4) 0.0989(10)
Cl1_16 Cl 0.78338(6) 0.14546(7) 0.64995(19)
O5_16 O 0.7711(3) 0.1420(2) 0.7748(8)
O6_16 O 0.7802(2) 0.1159(3) 0.5676(10)
O7_16 O 0.8189(2) 0.1551(3) 0.6518(14)
O8_16 O 0.7614(4) 0.1745(4) 0.5989(10)
loop_
_geom_bond_atom_site_label_1
_geom_bond_atom_site_label_2
_geom_bond_site_symmetry_1
_geom_bond_site_symmetry_2
Cu1 N1 1_555 1_555
N1 N2 1_555 1_555
N2 C2 1_555 1_555
C2 H2 1_555 1_555
B1 N2 1_555 1_555
H7 B1 1_555 1_555
Mn1 N3 1_555 1_555
H12 C12 1_555 1_555
O1 Mn1 1_555 1_555
H13 C14 1_555 1_555
C15 C14 1_555 1_555
C16 C15 1_555 1_555
H14 C16 1_555 1_555
C17 C16 1_555 1_555
H15 C17 1_555 1_555
C18 C17 1_555 1_555
H16 C18 1_555 1_555
C19 C18 1_555 1_555
H17 C19 1_555 1_555
C20 C15 1_555 1_555
O2 Mn1 1_555 1_555
N24 Mn1 1_555 1_555
C2 N3 1_555 1_555
C12 C13 1_555 1_555
C13 O1 1_555 1_555
C19 C20 1_555 1_555
C20 O2 1_555 1_555
N15 Cu1_2 1_555 1_555
N16 N15 1_555 1_555
C25 N15 1_555 1_555
H24 C25 1_555 1_555
C26 N16 1_555 1_555
H25 C26 1_555 1_555
N17 C25 1_555 1_555
H32 C33 1_555 1_555
Mn3 N17 1_555 1_555
C26 N17 1_555 1_555
N4 Cu1_3 1_555 1_555
N5 N4 1_555 1_555
C3 N4 1_555 1_555
H3 C3 1_555 1_555
C4 N5 1_555 1_555
H4 C4 1_555 1_555
N6 C3 1_555 1_555
H11 C11 1_555 1_555
Mn4 N6 1_555 1_555
C4 N6 1_555 1_555
N12 Cu1_4 1_555 1_555
N13 N12 1_555 1_555
C24 N13 1_555 1_555
H23 C24 1_555 1_555
B2 N13 1_555 1_555
H28 B2 1_555 1_555
Mn2 N14 1_555 1_555
H33 C34 1_555 1_555
O3 Mn2 1_555 1_555
H34 C36 1_555 1_555
C37 C36 1_555 1_555
C38 C37 1_555 1_555
H35 C38 1_555 1_555
C39 C38 1_555 1_555
H36 C39 1_555 1_555
C40 C39 1_555 1_555
H37 C40 1_555 1_555
C41 C40 1_555 1_555
H38 C41 1_555 1_555
C42 C37 1_555 1_555
O4 Mn2 1_555 1_555
N23 Mn2 1_555 1_555
C24 N14 1_555 1_555
C34 C35 1_555 1_555
C35 O3 1_555 1_555
C41 C42 1_555 1_555
C42 O4 1_555 1_555
N7 Cu1_5 1_555 1_555
N8 N7 1_555 1_555
C5 N7 1_555 1_555
H5 C5 1_555 1_555
C6 N8 1_555 1_555
H6 C6 1_555 1_555
N9 C5 1_555 1_555
N12_2 Cu1_5 1_555 1_555
N13_2 N12_2 1_555 1_555
C23 N12_2 1_555 1_555
H22 C23 1_555 1_555
C24_2 N13_2 1_555 1_555
H23_2 C24_2 1_555 1_555
N14_2 C23 1_555 1_555
N15_2 Cu1_5 1_555 1_555
N16_2 N15_2 1_555 1_555
C25_2 N15_2 1_555 1_555
H24_2 C25_2 1_555 1_555
C26_2 N16_2 1_555 1_555
H25_2 C26_2 1_555 1_555
N17_2 C25_2 1_555 1_555
B2_2 N13_2 1_555 1_555
H28_2 B2_2 1_555 1_555
Mn2_2 N14_2 1_555 1_555
N21 Mn2_2 1_555 1_555
C29 N21 1_555 1_555
H29 C29 1_555 1_555
C30 C29 1_555 1_555
C31 C30 1_555 1_555
H30 C31 1_555 1_555
C32 C31 1_555 1_555
H31 C32 1_555 1_555
C33_2 C32 1_555 1_555
H32_2 C33_2 1_555 1_555
C34_2 C33_2 1_555 1_555
H33_2 C34_2 1_555 1_555
C35_2 C30 1_555 1_555
O3_2 Mn2_2 1_555 1_555
N22 Mn2_2 1_555 1_555
C36_2 N22 1_555 1_555
H34_2 C36_2 1_555 1_555
C37_2 C36_2 1_555 1_555
C38_2 C37_2 1_555 1_555
H35_2 C38_2 1_555 1_555
C39_2 C38_2 1_555 1_555
H36_2 C39_2 1_555 1_555
C40_2 C39_2 1_555 1_555
C41_2 C40_2 1_555 1_555
H38_2 C41_2 1_555 1_555
C42_2 C37_2 1_555 1_555
O4_2 Mn2_2 1_555 1_555
C43 N21 1_555 1_555
H39 C43 1_555 1_555
H40 C43 1_555 1_555
C44 N22 1_555 1_555
H41 C44 1_555 1_555
H42 C44 1_555 1_555
N23_2 Mn2_2 1_555 1_555
Mn3_2 N17_2 1_555 1_555
C6 N9 1_555 1_555
C24_2 N14_2 1_555 1_555
N16_2 B2_2 1_555 1_555
C26_2 N17_2 1_555 1_555
C34_2 C35_2 1_555 1_555
C35_2 O3_2 1_555 1_555
C41_2 C42_2 1_555 1_555
C42_2 O4_2 1_555 1_555
C43 C44 1_555 1_555
Cu1_6 N1_2 1_555 1_555
N1_2 N2_2 1_555 1_555
N2_2 C2_2 1_555 1_555
C1 N1_2 1_555 1_555
H1 C1 1_555 1_555
C2_2 H2_2 1_555 1_555
N3_2 C1 1_555 1_555
N4_2 Cu1_6 1_555 1_555
N5_2 N4_2 1_555 1_555
C3_2 N4_2 1_555 1_555
H3_2 C3_2 1_555 1_555
C4_2 N5_2 1_555 1_555
H4_2 C4_2 1_555 1_555
N6_2 C3_2 1_555 1_555
B1_2 N2_2 1_555 1_555
H7_2 B1_2 1_555 1_555
Mn1_2 N3_2 1_555 1_555
N10 Mn1_2 1_555 1_555
C7 N10 1_555 1_555
H8 C7 1_555 1_555
C8 C7 1_555 1_555
C9 C8 1_555 1_555
H9 C9 1_555 1_555
C10 C9 1_555 1_555
H10 C10 1_555 1_555
C11_2 C10 1_555 1_555
H11_2 C11_2 1_555 1_555
C12_2 C11_2 1_555 1_555
H12_2 C12_2 1_555 1_555
C13_2 C8 1_555 1_555
O1_2 Mn1_2 1_555 1_555
N11 Mn1_2 1_555 1_555
C14_2 N11 1_555 1_555
H13_2 C14_2 1_555 1_555
C15_2 C14_2 1_555 1_555
C16_2 C15_2 1_555 1_555
H14_2 C16_2 1_555 1_555
C17_2 C16_2 1_555 1_555
H15_2 C17_2 1_555 1_555
C18_2 C17_2 1_555 1_555
C19_2 C18_2 1_555 1_555
H17_2 C19_2 1_555 1_555
C20_2 C15_2 1_555 1_555
O2_2 Mn1_2 1_555 1_555
C21 N10 1_555 1_555
H18 C21 1_555 1_555
H19 C21 1_555 1_555
C22 N11 1_555 1_555
H20 C22 1_555 1_555
H21 C22 1_555 1_555
N18 Cu1_6 1_555 1_555
N19 N18 1_555 1_555
C27 N18 1_555 1_555
H26 C27 1_555 1_555
C28 N19 1_555 1_555
H27 C28 1_555 1_555
N20 C27 1_555 1_555
N24_2 Mn1_2 1_555 1_555
Mn4_2 N6_2 1_555 1_555
C2_2 N3_2 1_555 1_555
N5_2 B1_2 1_555 1_555
C4_2 N6_2 1_555 1_555
C12_2 C13_2 1_555 1_555
C13_2 O1_2 1_555 1_555
C19_2 C20_2 1_555 1_555
C20_2 O2_2 1_555 1_555
C21 C22 1_555 1_555
C28 N20 1_555 1_555
Cu1_7 N1_3 1_555 1_555
N1_3 N2_3 1_555 1_555
N2_3 C2_3 1_555 1_555
C1_2 N1_3 1_555 1_555
H1_2 C1_2 1_555 1_555
C2_3 H2_3 1_555 1_555
N3_3 C1_2 1_555 1_555
N4_3 Cu1_7 1_555 1_555
N5_3 N4_3 1_555 1_555
C3_3 N4_3 1_555 1_555
H3_3 C3_3 1_555 1_555
C4_3 N5_3 1_555 1_555
H4_3 C4_3 1_555 1_555
N23_2 C3_3 1_555 1_555
N7_2 Cu1_7 1_555 1_555
N8_2 N7_2 1_555 1_555
C5_2 N7_2 1_555 1_555
H5_2 C5_2 1_555 1_555
C6_2 N8_2 1_555 1_555
H6_2 C6_2 1_555 1_555
N9_2 C5_2 1_555 1_555
B1_3 N2_3 1_555 1_555
H7_3 B1_3 1_555 1_555
Mn1_3 N3_3 1_555 1_555
N10_2 Mn1_3 1_555 1_555
C7_2 N10_2 1_555 1_555
C8_2 C7_2 1_555 1_555
C9_2 C8_2 1_555 1_555
C10_2 C9_2 1_555 1_555
H10_2 C10_2 1_555 1_555
C11_3 C10_2 1_555 1_555
H11_3 C11_3 1_555 1_555
C12_3 C11_3 1_555 1_555
H12_3 C12_3 1_555 1_555
C13_3 C8_2 1_555 1_555
O1_3 Mn1_3 1_555 1_555
N11_2 Mn1_3 1_555 1_555
C14_3 N11_2 1_555 1_555
H13_3 C14_3 1_555 1_555
C15_3 C14_3 1_555 1_555
C16_3 C15_3 1_555 1_555
H14_3 C16_3 1_555 1_555
C17_3 C16_3 1_555 1_555
H15_3 C17_3 1_555 1_555
C18_3 C17_3 1_555 1_555
H16_2 C18_3 1_555 1_555
C19_3 C18_3 1_555 1_555
H17_3 C19_3 1_555 1_555
C20_3 C15_3 1_555 1_555
O2_3 Mn1_3 1_555 1_555
C21_2 N10_2 1_555 1_555
H18_2 C21_2 1_555 1_555
C22_2 N11_2 1_555 1_555
H20_2 C22_2 1_555 1_555
H21_2 C22_2 1_555 1_555
N12_3 Cu1_7 1_555 1_555
N13_3 N12_3 1_555 1_555
C23_2 N12_3 1_555 1_555
H22_2 C23_2 1_555 1_555
C24_3 N13_3 1_555 1_555
N14_3 C23_2 1_555 1_555
N15_3 Cu1_7 1_555 1_555
N16_3 N15_3 1_555 1_555
C25_3 N15_3 1_555 1_555
H24_3 C25_3 1_555 1_555
N17_3 C25_3 1_555 1_555
N18_2 Cu1_7 1_555 1_555
C27_2 N18_2 1_555 1_555
H26_2 C27_2 1_555 1_555
Mn4 N14_3 1_555 1_555
N21_2 Mn4 1_555 1_555
C29_2 N21_2 1_555 1_555
H29_2 C29_2 1_555 1_555
C30_2 C29_2 1_555 1_555
C31_2 C30_2 1_555 1_555
H30_2 C31_2 1_555 1_555
C32_2 C31_2 1_555 1_555
H31_2 C32_2 1_555 1_555
C33_3 C32_2 1_555 1_555
H32_3 C33_3 1_555 1_555
C34_3 C33_3 1_555 1_555
H33_3 C34_3 1_555 1_555
C35_3 C30_2 1_555 1_555
O3_3 Mn4 1_555 1_555
N22_2 Mn4 1_555 1_555
C36_3 N22_2 1_555 1_555
H34_3 C36_3 1_555 1_555
C37_3 C36_3 1_555 1_555
O4_3 Mn4 1_555 1_555
C43_2 N21_2 1_555 1_555
H39_2 C43_2 1_555 1_555
H40_2 C43_2 1_555 1_555
C44_2 N22_2 1_555 1_555
H41_2 C44_2 1_555 1_555
H42_2 C44_2 1_555 1_555
N24_3 Mn1_3 1_555 1_555
Mn3_3 N17_3 1_555 1_555
C2_3 N3_3 1_555 1_555
N5_3 B1_3 1_555 1_555
C4_3 N23_2 1_555 1_555
N8_2 B1_3 1_555 1_555
C6_2 N9_2 1_555 1_555
C12_3 C13_3 1_555 1_555
C13_3 O1_3 1_555 1_555
C19_3 C20_3 1_555 1_555
C20_3 O2_3 1_555 1_555
C21_2 C22_2 1_555 1_555
C24_3 N14_3 1_555 1_555
C34_3 C35_3 1_555 1_555
C35_3 O3_3 1_555 1_555
C43_2 C44_2 1_555 1_555
Cu1_8 N1_4 1_555 1_555
N1_4 N2_4 1_555 1_555
N2_4 C2_4 1_555 1_555
C1_3 N1_4 1_555 1_555
H1_3 C1_3 1_555 1_555
N3_4 C1_3 1_555 1_555
N4_4 Cu1_8 1_555 1_555
N5_4 N4_4 1_555 1_555
C3_4 N4_4 1_555 1_555
H3_4 C3_4 1_555 1_555
N23 C3_4 1_555 1_555
N7_3 Cu1_8 1_555 1_555
C5_3 N7_3 1_555 1_555
H5_3 C5_3 1_555 1_555
Mn1_4 N3_4 1_555 1_555
N10_3 Mn1_4 1_555 1_555
C7_3 N10_3 1_555 1_555
H8_2 C7_3 1_555 1_555
C8_3 C7_3 1_555 1_555
C9_3 C8_3 1_555 1_555
H9_2 C9_3 1_555 1_555
C10_3 C9_3 1_555 1_555
H10_3 C10_3 1_555 1_555
C11_4 C10_3 1_555 1_555
H11_4 C11_4 1_555 1_555
C12_4 C11_4 1_555 1_555
H12_4 C12_4 1_555 1_555
C13_4 C8_3 1_555 1_555
O1_4 Mn1_4 1_555 1_555
N11_3 Mn1_4 1_555 1_555
C14_4 N11_3 1_555 1_555
H13_4 C14_4 1_555 1_555
C15_4 C14_4 1_555 1_555
O2_4 Mn1_4 1_555 1_555
C21_3 N10_3 1_555 1_555
H18_3 C21_3 1_555 1_555
H19_2 C21_3 1_555 1_555
C22_3 N11_3 1_555 1_555
H20_3 C22_3 1_555 1_555
H21_3 C22_3 1_555 1_555
N12_4 Cu1_8 1_555 1_555
N13_4 N12_4 1_555 1_555
C23_3 N12_4 1_555 1_555
H22_3 C23_3 1_555 1_555
C24_4 N13_4 1_555 1_555
H23_3 C24_4 1_555 1_555
N14_4 C23_3 1_555 1_555
N15_4 Cu1_8 1_555 1_555
N16_4 N15_4 1_555 1_555
C25_4 N15_4 1_555 1_555
H24_4 C25_4 1_555 1_555
C26_3 N16_4 1_555 1_555
H25_3 C26_3 1_555 1_555
N17_4 C25_4 1_555 1_555
N18_3 Cu1_8 1_555 1_555
N19_2 N18_3 1_555 1_555
C27_3 N18_3 1_555 1_555
H26_3 C27_3 1_555 1_555
C28_2 N19_2 1_555 1_555
H27_2 C28_2 1_555 1_555
N20_2 C27_3 1_555 1_555
B2_3 N13_4 1_555 1_555
H28_3 B2_3 1_555 1_555
Mn4_2 N14_4 1_555 1_555
N21_3 Mn4_2 1_555 1_555
C29_3 N21_3 1_555 1_555
C30_3 C29_3 1_555 1_555
C31_3 C30_3 1_555 1_555
C32_3 C31_3 1_555 1_555
H31_3 C32_3 1_555 1_555
C33_4 C32_3 1_555 1_555
H32_4 C33_4 1_555 1_555
C34_4 C33_4 1_555 1_555
H33_4 C34_4 1_555 1_555
C35_4 C30_3 1_555 1_555
O3_4 Mn4_2 1_555 1_555
N22_3 Mn4_2 1_555 1_555
C36_4 N22_3 1_555 1_555
H34_4 C36_4 1_555 1_555
C37_4 C36_4 1_555 1_555
C38_3 C37_4 1_555 1_555
C39_3 C38_3 1_555 1_555
C40_3 C39_3 1_555 1_555
H37_2 C40_3 1_555 1_555
C41_3 C40_3 1_555 1_555
H38_3 C41_3 1_555 1_555
C42_3 C37_4 1_555 1_555
O4_4 Mn4_2 1_555 1_555
C43_3 N21_3 1_555 1_555
H39_3 C43_3 1_555 1_555
C44_3 N22_3 1_555 1_555
H41_3 C44_3 1_555 1_555
H42_3 C44_3 1_555 1_555
N24_4 Mn1_4 1_555 1_555
Mn3_4 N17_4 1_555 1_555
C2_4 N3_4 1_555 1_555
C12_4 C13_4 1_555 1_555
C13_4 O1_4 1_555 1_555
C21_3 C22_3 1_555 1_555
C24_4 N14_4 1_555 1_555
N16_4 B2_3 1_555 1_555
C26_3 N17_4 1_555 1_555
N19_2 B2_3 1_555 1_555
C28_2 N20_2 1_555 1_555
C34_4 C35_4 1_555 1_555
C35_4 O3_4 1_555 1_555
C41_3 C42_3 1_555 1_555
C42_3 O4_4 1_555 1_555
C43_3 C44_3 1_555 1_555
Cu1_9 N1_5 1_555 1_555
N1_5 N2_5 1_555 1_555
N2_5 C2_5 1_555 1_555
C1_4 N1_5 1_555 1_555
H1_4 C1_4 1_555 1_555
C2_5 H2_4 1_555 1_555
N3_5 C1_4 1_555 1_555
N4_5 Cu1_9 1_555 1_555
N5_5 N4_5 1_555 1_555
C3_5 N4_5 1_555 1_555
H3_5 C3_5 1_555 1_555
C4_4 N5_5 1_555 1_555
H4_4 C4_4 1_555 1_555
N6_3 C3_5 1_555 1_555
N7_4 Cu1_9 1_555 1_555
N8_3 N7_4 1_555 1_555
C5_4 N7_4 1_555 1_555
H5_4 C5_4 1_555 1_555
C6_3 N8_3 1_555 1_555
H6_3 C6_3 1_555 1_555
N9_3 C5_4 1_555 1_555
B1_4 N2_5 1_555 1_555
H7_4 B1_4 1_555 1_555
Mn3_4 N3_5 1_555 1_555
N10_4 Mn3_4 1_555 1_555
C7_4 N10_4 1_555 1_555
H8_3 C7_4 1_555 1_555
C8_4 C7_4 1_555 1_555
C9_4 C8_4 1_555 1_555
H9_3 C9_4 1_555 1_555
C10_4 C9_4 1_555 1_555
H10_4 C10_4 1_555 1_555
C11_5 C10_4 1_555 1_555
H11_5 C11_5 1_555 1_555
C12_5 C11_5 1_555 1_555
H12_5 C12_5 1_555 1_555
C13_5 C8_4 1_555 1_555
O1_5 Mn3_4 1_555 1_555
N11_4 Mn3_4 1_555 1_555
C14_5 N11_4 1_555 1_555
H13_5 C14_5 1_555 1_555
C15_5 C14_5 1_555 1_555
C16_4 C15_5 1_555 1_555
H14_5 C16_4 1_555 1_555
C17_4 C16_4 1_555 1_555
H15_4 C17_4 1_555 1_555
C18_4 C17_4 1_555 1_555
C19_4 C18_4 1_555 1_555
H17_4 C19_4 1_555 1_555
C20_4 C15_5 1_555 1_555
O2_5 Mn3_4 1_555 1_555
C21_4 N10_4 1_555 1_555
H18_4 C21_4 1_555 1_555
H19_3 C21_4 1_555 1_555
C22_4 N11_4 1_555 1_555
H20_4 C22_4 1_555 1_555
H21_4 C22_4 1_555 1_555
N12_5 Cu1_9 1_555 1_555
N13_5 N12_5 1_555 1_555
C23_4 N12_5 1_555 1_555
H22_4 C23_4 1_555 1_555
C24_5 N13_5 1_555 1_555
H23_4 C24_5 1_555 1_555
N14_5 C23_4 1_555 1_555
N15_5 Cu1_9 1_555 1_555
N16_5 N15_5 1_555 1_555
C25_5 N15_5 1_555 1_555
H24_5 C25_5 1_555 1_555
C26_4 N16_5 1_555 1_555
H25_4 C26_4 1_555 1_555
N24_3 C25_5 1_555 1_555
N18_4 Cu1_9 1_555 1_555
N19_3 N18_4 1_555 1_555
C27_4 N18_4 1_555 1_555
H26_4 C27_4 1_555 1_555
C28_3 N19_3 1_555 1_555
H27_3 C28_3 1_555 1_555
N20_3 C27_4 1_555 1_555
B2_4 N13_5 1_555 1_555
H28_4 B2_4 1_555 1_555
Mn2_3 N14_5 1_555 1_555
N21_4 Mn2_3 1_555 1_555
C29_4 N21_4 1_555 1_555
H29_3 C29_4 1_555 1_555
C30_4 C29_4 1_555 1_555
C31_4 C30_4 1_555 1_555
H30_3 C31_4 1_555 1_555
C32_4 C31_4 1_555 1_555
H31_4 C32_4 1_555 1_555
C33_5 C32_4 1_555 1_555
H32_5 C33_5 1_555 1_555
C34_5 C33_5 1_555 1_555
H33_5 C34_5 1_555 1_555
C35_5 C30_4 1_555 1_555
O3_5 Mn2_3 1_555 1_555
N22_4 Mn2_3 1_555 1_555
C36_5 N22_4 1_555 1_555
H34_5 C36_5 1_555 1_555
C37_5 C36_5 1_555 1_555
C38_4 C37_5 1_555 1_555
H35_3 C38_4 1_555 1_555
C39_4 C38_4 1_555 1_555
H36_3 C39_4 1_555 1_555
C40_4 C39_4 1_555 1_555
C41_4 C40_4 1_555 1_555
H38_4 C41_4 1_555 1_555
C42_4 C37_5 1_555 1_555
O4_5 Mn2_3 1_555 1_555
C43_4 N21_4 1_555 1_555
H39_4 C43_4 1_555 1_555
H40_3 C43_4 1_555 1_555
C44_4 N22_4 1_555 1_555
H41_4 C44_4 1_555 1_555
H42_4 C44_4 1_555 1_555
N23_3 Mn2_3 1_555 1_555
Mn4_3 N6_3 1_555 1_555
C2_5 N3_5 1_555 1_555
N5_5 B1_4 1_555 1_555
C4_4 N6_3 1_555 1_555
N8_3 B1_4 1_555 1_555
C6_3 N9_3 1_555 1_555
C12_5 C13_5 1_555 1_555
C13_5 O1_5 1_555 1_555
C19_4 C20_4 1_555 1_555
C20_4 O2_5 1_555 1_555
C21_4 C22_4 1_555 1_555
C24_5 N14_5 1_555 1_555
N16_5 B2_4 1_555 1_555
C26_4 N24_3 1_555 1_555
N19_3 B2_4 1_555 1_555
C28_3 N20_3 1_555 1_555
C34_5 C35_5 1_555 1_555
C35_5 O3_5 1_555 1_555
C41_4 C42_4 1_555 1_555
C42_4 O4_5 1_555 1_555
C43_4 C44_4 1_555 1_555
N4_6 Cu1_10 1_555 1_555
N5_6 N4_6 1_555 1_555
C3_6 N4_6 1_555 1_555
H3_6 C3_6 1_555 1_555
C4_5 N5_6 1_555 1_555
H4_5 C4_5 1_555 1_555
N6_4 C3_6 1_555 1_555
H11_6 C11_6 1_555 1_555
H22_5 C23_5 1_555 1_555
C29_5 N21_5 1_555 1_555
H29_4 C29_5 1_555 1_555
C30_5 C29_5 1_555 1_555
C31_5 C30_5 1_555 1_555
H30_4 C31_5 1_555 1_555
C43_5 N21_5 1_555 1_555
H39_5 C43_5 1_555 1_555
H40_4 C43_5 1_555 1_555
C44_5 N22_5 1_555 1_555
H41_5 C44_5 1_555 1_555
H42_5 C44_5 1_555 1_555
Mn4_4 N6_4 1_555 1_555
C4_5 N6_4 1_555 1_555
C43_5 C44_5 1_555 1_555
H10_5 C10_5 1_555 1_555
N12_6 Cu1_11 1_555 1_555
N13_6 N12_6 1_555 1_555
C24_6 N13_6 1_555 1_555
H23_5 C24_6 1_555 1_555
N18_5 Cu1_11 1_555 1_555
N19_4 N18_5 1_555 1_555
C27_5 N18_5 1_555 1_555
H26_5 C27_5 1_555 1_555
C28_4 N19_4 1_555 1_555
H27_4 C28_4 1_555 1_555
N20_4 C27_5 1_555 1_555
B2_5 N13_6 1_555 1_555
H28_5 B2_5 1_555 1_555
Mn2_4 N14_6 1_555 1_555
H33_6 C34_6 1_555 1_555
O3_6 Mn2_4 1_555 1_555
H34_6 C36_6 1_555 1_555
C37_6 C36_6 1_555 1_555
C38_5 C37_6 1_555 1_555
H35_4 C38_5 1_555 1_555
C39_5 C38_5 1_555 1_555
H36_4 C39_5 1_555 1_555
C40_5 C39_5 1_555 1_555
H37_3 C40_5 1_555 1_555
C41_5 C40_5 1_555 1_555
H38_5 C41_5 1_555 1_555
C42_5 C37_6 1_555 1_555
O4_6 Mn2_4 1_555 1_555
N23_4 Mn2_4 1_555 1_555
C24_6 N14_6 1_555 1_555
N19_4 B2_5 1_555 1_555
C28_4 N20_4 1_555 1_555
C34_6 C35_6 1_555 1_555
C35_6 O3_6 1_555 1_555
C41_5 C42_5 1_555 1_555
C42_5 O4_6 1_555 1_555
Cu1_12 N1_6 1_555 1_555
N1_6 N2_6 1_555 1_555
N2_6 C2_6 1_555 1_555
C2_6 H2_5 1_555 1_555
N7_5 Cu1_12 1_555 1_555
N8_4 N7_5 1_555 1_555
C5_5 N7_5 1_555 1_555
H5_5 C5_5 1_555 1_555
C6_4 N8_4 1_555 1_555
H6_4 C6_4 1_555 1_555
N9_4 C5_5 1_555 1_555
B1_5 N2_6 1_555 1_555
H7_5 B1_5 1_555 1_555
Mn3_3 N3_6 1_555 1_555
H12_6 C12_6 1_555 1_555
O1_6 Mn3_3 1_555 1_555
H13_6 C14_6 1_555 1_555
C15_6 C14_6 1_555 1_555
C16_5 C15_6 1_555 1_555
H14_6 C16_5 1_555 1_555
C17_5 C16_5 1_555 1_555
H15_5 C17_5 1_555 1_555
C18_5 C17_5 1_555 1_555
H16_3 C18_5 1_555 1_555
C19_5 C18_5 1_555 1_555
H17_5 C19_5 1_555 1_555
C20_5 C15_6 1_555 1_555
O2_6 Mn3_3 1_555 1_555
H31_5 C32_5 1_555 1_555
C2_6 N3_6 1_555 1_555
N8_4 B1_5 1_555 1_555
C6_4 N9_4 1_555 1_555
C12_6 C13_6 1_555 1_555
C13_6 O1_6 1_555 1_555
C19_5 C20_5 1_555 1_555
C20_5 O2_6 1_555 1_555
H1_5 C1_5 1_555 1_555
C7_5 N10_5 1_555 1_555
H8_4 C7_5 1_555 1_555
C8_5 C7_5 1_555 1_555
C9_5 C8_5 1_555 1_555
H9_4 C9_5 1_555 1_555
C21_5 N10_5 1_555 1_555
H18_5 C21_5 1_555 1_555
H19_4 C21_5 1_555 1_555
C22_5 N11_5 1_555 1_555
H20_5 C22_5 1_555 1_555
H21_5 C22_5 1_555 1_555
N15_6 Cu1_13 1_555 1_555
N16_6 N15_6 1_555 1_555
C25_6 N15_6 1_555 1_555
H24_6 C25_6 1_555 1_555
C26_5 N16_6 1_555 1_555
H25_5 C26_5 1_555 1_555
N24_4 C25_6 1_555 1_555
H32_6 C33_6 1_555 1_555
C21_5 C22_5 1_555 1_555
C26_5 N24_4 1_555 1_555
Cu1_14 N1_7 1_555 1_555
N1_7 N2_7 1_555 1_555
N2_7 C2_7 1_555 1_555
C1_6 N1_7 1_555 1_555
H1_6 C1_6 1_555 1_555
N3_7 C1_6 1_555 1_555
N4_7 Cu1_14 1_555 1_555
N5_7 N4_7 1_555 1_555
C3_7 N4_7 1_555 1_555
H3_7 C3_7 1_555 1_555
N23_4 C3_7 1_555 1_555
N7_6 Cu1_14 1_555 1_555
C5_6 N7_6 1_555 1_555
H5_6 C5_6 1_555 1_555
Mn3 N3_7 1_555 1_555
N10_6 Mn3 1_555 1_555
C7_6 N10_6 1_555 1_555
H8_5 C7_6 1_555 1_555
C8_6 C7_6 1_555 1_555
C9_6 C8_6 1_555 1_555
H9_5 C9_6 1_555 1_555
C10_6 C9_6 1_555 1_555
H10_6 C10_6 1_555 1_555
C11_7 C10_6 1_555 1_555
H11_7 C11_7 1_555 1_555
C12_7 C11_7 1_555 1_555
H12_7 C12_7 1_555 1_555
C13_7 C8_6 1_555 1_555
O1_7 Mn3 1_555 1_555
N11_6 Mn3 1_555 1_555
C14_7 N11_6 1_555 1_555
H13_7 C14_7 1_555 1_555
C15_7 C14_7 1_555 1_555
O2_7 Mn3 1_555 1_555
C21_6 N10_6 1_555 1_555
H18_6 C21_6 1_555 1_555
H19_5 C21_6 1_555 1_555
C22_6 N11_6 1_555 1_555
H20_6 C22_6 1_555 1_555
H21_6 C22_6 1_555 1_555
N12_7 Cu1_14 1_555 1_555
N13_7 N12_7 1_555 1_555
C23_6 N12_7 1_555 1_555
H22_6 C23_6 1_555 1_555
C24_7 N13_7 1_555 1_555
H23_6 C24_7 1_555 1_555
N14_7 C23_6 1_555 1_555
N15_7 Cu1_14 1_555 1_555
N16_7 N15_7 1_555 1_555
C25_7 N15_7 1_555 1_555
H24_7 C25_7 1_555 1_555
C26_6 N16_7 1_555 1_555
H25_6 C26_6 1_555 1_555
N24_2 C25_7 1_555 1_555
N18_6 Cu1_14 1_555 1_555
N19_5 N18_6 1_555 1_555
C27_6 N18_6 1_555 1_555
H26_6 C27_6 1_555 1_555
C28_5 N19_5 1_555 1_555
H27_5 C28_5 1_555 1_555
N20_5 C27_6 1_555 1_555
B2_6 N13_7 1_555 1_555
H28_6 B2_6 1_555 1_555
Mn4_3 N14_7 1_555 1_555
N21_6 Mn4_3 1_555 1_555
C29_6 N21_6 1_555 1_555
C30_6 C29_6 1_555 1_555
C31_6 C30_6 1_555 1_555
C32_6 C31_6 1_555 1_555
H31_6 C32_6 1_555 1_555
C33_7 C32_6 1_555 1_555
H32_7 C33_7 1_555 1_555
C34_7 C33_7 1_555 1_555
H33_7 C34_7 1_555 1_555
C35_7 C30_6 1_555 1_555
O3_7 Mn4_3 1_555 1_555
N22_6 Mn4_3 1_555 1_555
C36_7 N22_6 1_555 1_555
H34_7 C36_7 1_555 1_555
C37_7 C36_7 1_555 1_555
C38_6 C37_7 1_555 1_555
H35_5 C38_6 1_555 1_555
C39_6 C38_6 1_555 1_555
H36_5 C39_6 1_555 1_555
C40_6 C39_6 1_555 1_555
H37_4 C40_6 1_555 1_555
C41_6 C40_6 1_555 1_555
H38_6 C41_6 1_555 1_555
C42_6 C37_7 1_555 1_555
O4_7 Mn4_3 1_555 1_555
C43_6 N21_6 1_555 1_555
H39_6 C43_6 1_555 1_555
C44_6 N22_6 1_555 1_555
H41_6 C44_6 1_555 1_555
H42_6 C44_6 1_555 1_555
C2_7 N3_7 1_555 1_555
C12_7 C13_7 1_555 1_555
C13_7 O1_7 1_555 1_555
C21_6 C22_6 1_555 1_555
C24_7 N14_7 1_555 1_555
N16_7 B2_6 1_555 1_555
C26_6 N24_2 1_555 1_555
N19_5 B2_6 1_555 1_555
C28_5 N20_5 1_555 1_555
C34_7 C35_7 1_555 1_555
C35_7 O3_7 1_555 1_555
C41_6 C42_6 1_555 1_555
C42_6 O4_7 1_555 1_555
C43_6 C44_6 1_555 1_555
Cu1_15 N1_8 1_555 1_555
N1_8 N2_8 1_555 1_555
N2_8 C2_8 1_555 1_555
C1_7 N1_8 1_555 1_555
H1_7 C1_7 1_555 1_555
C2_8 H2_6 1_555 1_555
N3_8 C1_7 1_555 1_555
N4_8 Cu1_15 1_555 1_555
N5_8 N4_8 1_555 1_555
C3_8 N4_8 1_555 1_555
H3_8 C3_8 1_555 1_555
C4_6 N5_8 1_555 1_555
H4_6 C4_6 1_555 1_555
N23_3 C3_8 1_555 1_555
N7_7 Cu1_15 1_555 1_555
N8_5 N7_7 1_555 1_555
C5_7 N7_7 1_555 1_555
H5_7 C5_7 1_555 1_555
C6_5 N8_5 1_555 1_555
H6_5 C6_5 1_555 1_555
N9_5 C5_7 1_555 1_555
B1_6 N2_8 1_555 1_555
H7_6 B1_6 1_555 1_555
Mn3_2 N3_8 1_555 1_555
N10_7 Mn3_2 1_555 1_555
C7_7 N10_7 1_555 1_555
C8_7 C7_7 1_555 1_555
C9_7 C8_7 1_555 1_555
C10_7 C9_7 1_555 1_555
H10_7 C10_7 1_555 1_555
C11_8 C10_7 1_555 1_555
H11_8 C11_8 1_555 1_555
C12_8 C11_8 1_555 1_555
H12_8 C12_8 1_555 1_555
C13_8 C8_7 1_555 1_555
O1_8 Mn3_2 1_555 1_555
N11_7 Mn3_2 1_555 1_555
C14_8 N11_7 1_555 1_555
H13_8 C14_8 1_555 1_555
C15_8 C14_8 1_555 1_555
C16_6 C15_8 1_555 1_555
C17_6 C16_6 1_555 1_555
C18_6 C17_6 1_555 1_555
H16_4 C18_6 1_555 1_555
C19_6 C18_6 1_555 1_555
H17_6 C19_6 1_555 1_555
C20_6 C15_8 1_555 1_555
O2_8 Mn3_2 1_555 1_555
C21_7 N10_7 1_555 1_555
H18_7 C21_7 1_555 1_555
C22_7 N11_7 1_555 1_555
H20_7 C22_7 1_555 1_555
H21_7 C22_7 1_555 1_555
N12_8 Cu1_15 1_555 1_555
N13_8 N12_8 1_555 1_555
C23_7 N12_8 1_555 1_555
H22_7 C23_7 1_555 1_555
C24_8 N13_8 1_555 1_555
N14_8 C23_7 1_555 1_555
N15_8 Cu1_15 1_555 1_555
N16_8 N15_8 1_555 1_555
C25_8 N15_8 1_555 1_555
H24_8 C25_8 1_555 1_555
N24 C25_8 1_555 1_555
N18_7 Cu1_15 1_555 1_555
C27_7 N18_7 1_555 1_555
H26_7 C27_7 1_555 1_555
Mn4_4 N14_8 1_555 1_555
N21_7 Mn4_4 1_555 1_555
C29_7 N21_7 1_555 1_555
H29_5 C29_7 1_555 1_555
C30_7 C29_7 1_555 1_555
C31_7 C30_7 1_555 1_555
H30_5 C31_7 1_555 1_555
C32_7 C31_7 1_555 1_555
H31_7 C32_7 1_555 1_555
C33_8 C32_7 1_555 1_555
H32_8 C33_8 1_555 1_555
C34_8 C33_8 1_555 1_555
H33_8 C34_8 1_555 1_555
C35_8 C30_7 1_555 1_555
O3_8 Mn4_4 1_555 1_555
N22_7 Mn4_4 1_555 1_555
C36_8 N22_7 1_555 1_555
H34_8 C36_8 1_555 1_555
C37_8 C36_8 1_555 1_555
O4_8 Mn4_4 1_555 1_555
C43_7 N21_7 1_555 1_555
H39_7 C43_7 1_555 1_555
H40_5 C43_7 1_555 1_555
C44_7 N22_7 1_555 1_555
H41_7 C44_7 1_555 1_555
H42_7 C44_7 1_555 1_555
C2_8 N3_8 1_555 1_555
N5_8 B1_6 1_555 1_555
C4_6 N23_3 1_555 1_555
N8_5 B1_6 1_555 1_555
C6_5 N9_5 1_555 1_555
C12_8 C13_8 1_555 1_555
C13_8 O1_8 1_555 1_555
C19_6 C20_6 1_555 1_555
C20_6 O2_8 1_555 1_555
C21_7 C22_7 1_555 1_555
C24_8 N14_8 1_555 1_555
C34_8 C35_8 1_555 1_555
C35_8 O3_8 1_555 1_555
C43_7 C44_7 1_555 1_555
H1_8 C1_8 1_555 1_555
C7_8 N10_8 1_555 1_555
H8_6 C7_8 1_555 1_555
C8_8 C7_8 1_555 1_555
C9_8 C8_8 1_555 1_555
H9_6 C9_8 1_555 1_555
C21_8 N10_8 1_555 1_555
H18_8 C21_8 1_555 1_555
H19_6 C21_8 1_555 1_555
C22_8 N11_8 1_555 1_555
H20_8 C22_8 1_555 1_555
H21_8 C22_8 1_555 1_555
C21_8 C22_8 1_555 1_555
N7_8 Cu1_17 1_555 1_555
N8_6 N7_8 1_555 1_555
C5_8 N7_8 1_555 1_555
H5_8 C5_8 1_555 1_555
C6_6 N8_6 1_555 1_555
H6_6 C6_6 1_555 1_555
N9_6 C5_8 1_555 1_555
H31_8 C32_8 1_555 1_555
C6_6 N9_6 1_555 1_555
H10_8 C10_8 1_555 1_555
N18_8 Cu1_18 1_555 1_555
N19_6 N18_8 1_555 1_555
C27_8 N18_8 1_555 1_555
H26_8 C27_8 1_555 1_555
C28_6 N19_6 1_555 1_555
H27_6 C28_6 1_555 1_555
N20_6 C27_8 1_555 1_555
C28_6 N20_6 1_555 1_555
H22_8 C23_8 1_555 1_555
C29_8 N21_8 1_555 1_555
H29_6 C29_8 1_555 1_555
C30_8 C29_8 1_555 1_555
C31_8 C30_8 1_555 1_555
H30_6 C31_8 1_555 1_555
C43_8 N21_8 1_555 1_555
H39_8 C43_8 1_555 1_555
H40_6 C43_8 1_555 1_555
C44_8 N22_8 1_555 1_555
H41_8 C44_8 1_555 1_555
H42_8 C44_8 1_555 1_555
C43_8 C44_8 1_555 1_555
H25_7 C26_7 1_555 1_555
C28_7 N19_7 1_555 1_555
H27_7 C28_7 1_555 1_555
H28_7 B2_7 1_555 1_555
C39_7 C38_7 1_555 1_555
C40_7 C39_7 1_555 1_555
H37_6 C40_7 1_555 1_555
C41_7 C40_7 1_555 1_555
H38_7 C41_7 1_555 1_555
N19_7 B2_7 1_555 1_555
C28_7 N20_7 1_555 1_555
C41_7 C42_7 1_555 1_555
H4_7 C4_7 1_555 1_555
C6_7 N8_7 1_555 1_555
H6_7 C6_7 1_555 1_555
H7_7 B1_7 1_555 1_555
C17_7 C16_7 1_555 1_555
H15_6 C17_7 1_555 1_555
C18_7 C17_7 1_555 1_555
H16_6 C18_7 1_555 1_555
C19_7 C18_7 1_555 1_555
H17_7 C19_7 1_555 1_555
N8_7 B1_7 1_555 1_555
C6_7 N9_7 1_555 1_555
C19_7 C20_7 1_555 1_555
H4_8 C4_8 1_555 1_555
C6_8 N8_8 1_555 1_555
H6_8 C6_8 1_555 1_555
H7_8 B1_8 1_555 1_555
C17_8 C16_8 1_555 1_555
C18_8 C17_8 1_555 1_555
H16_8 C18_8 1_555 1_555
C19_8 C18_8 1_555 1_555
H17_8 C19_8 1_555 1_555
N8_8 B1_8 1_555 1_555
C6_8 N9_8 1_555 1_555
C19_8 C20_8 1_555 1_555
H25_8 C26_8 1_555 1_555
C28_8 N19_8 1_555 1_555
H27_8 C28_8 1_555 1_555
H28_8 B2_8 1_555 1_555
C39_8 C38_8 1_555 1_555
H36_8 C39_8 1_555 1_555
C40_8 C39_8 1_555 1_555
H37_8 C40_8 1_555 1_555
C41_8 C40_8 1_555 1_555
H38_8 C41_8 1_555 1_555
N19_8 B2_8 1_555 1_555
C28_8 N20_8 1_555 1_555
C41_8 C42_8 1_555 1_555
O6 Cl1 1_555 1_555
O7 Cl1 1_555 1_555
O8 Cl1 1_555 1_555
Cl1_2 O5_2 1_555 1_555
O6_2 Cl1_2 1_555 1_555
O7_2 Cl1_2 1_555 1_555
O8_2 Cl1_2 1_555 1_555
Cl1_3 O5_3 1_555 1_555
O6_3 Cl1_3 1_555 1_555
O7_3 Cl1_3 1_555 1_555
O8_3 Cl1_3 1_555 1_555
Cl1_4 O5_4 1_555 1_555
O6_4 Cl1_4 1_555 1_555
O7_4 Cl1_4 1_555 1_555
O8_4 Cl1_4 1_555 1_555
Cl1_5 O5_5 1_555 1_555
O6_5 Cl1_5 1_555 1_555
O7_5 Cl1_5 1_555 1_555
O8_5 Cl1_5 1_555 1_555
O6_6 Cl1_6 1_555 1_555
O7_6 Cl1_6 1_555 1_555
O8_6 Cl1_6 1_555 1_555
Cl1_7 O5_7 1_555 1_555
O6_7 Cl1_7 1_555 1_555
O7_7 Cl1_7 1_555 1_555
O8_7 Cl1_7 1_555 1_555
Cl1_8 O5_8 1_555 1_555
O6_8 Cl1_8 1_555 1_555
O7_8 Cl1_8 1_555 1_555
O8_8 Cl1_8 1_555 1_555
O6_9 Cl1_9 1_555 1_555
O7_9 Cl1_9 1_555 1_555
O8_9 Cl1_9 1_555 1_555
Cl1_10 O5_10 1_555 1_555
O6_10 Cl1_10 1_555 1_555
O7_10 Cl1_10 1_555 1_555
O8_10 Cl1_10 1_555 1_555
Cl1_11 O5_11 1_555 1_555
O6_11 Cl1_11 1_555 1_555
O7_11 Cl1_11 1_555 1_555
O8_11 Cl1_11 1_555 1_555
Cl1_12 O5_12 1_555 1_555
O6_12 Cl1_12 1_555 1_555
O7_12 Cl1_12 1_555 1_555
O8_12 Cl1_12 1_555 1_555
Cl1_13 O5_13 1_555 1_555
O6_13 Cl1_13 1_555 1_555
O7_13 Cl1_13 1_555 1_555
O8_13 Cl1_13 1_555 1_555
O6_14 Cl1_14 1_555 1_555
O7_14 Cl1_14 1_555 1_555
O8_14 Cl1_14 1_555 1_555
Cl1_15 O5_15 1_555 1_555
O6_15 Cl1_15 1_555 1_555
O7_15 Cl1_15 1_555 1_555
O8_15 Cl1_15 1_555 1_555
Cl1_16 O5_16 1_555 1_555
O6_16 Cl1_16 1_555 1_555
O7_16 Cl1_16 1_555 1_555
O8_16 Cl1_16 1_555 1_555

#END
