
###############################################################################
#
# This file contains modified crystal structure data generated from the
# MOF subset of the Cambridge Structural Database (CSD) v543 
# hosted by the Cambridge Crystallographic Data Centre (CCDC).
#
# This work is licensed under the Creative Commons
# Attribution-NonCommercial-ShareAlike 4.0 International License.
# To view a copy of this license, visit
# http://creativecommons.org/licenses/by-nc-sa/4.0/
# or send a letter to
# Creative Commons, PO Box 1866, Mountain View, CA 94042, USA.
#
# CIF created using the CSD Python API on 29 September 2022
# The structure has been converted into the P1 space group
# The structure has a 3D framework
# The original CSD entry YOFXEY is in the tetragonal crystal system
# The framework has been calculated to contain at least 10.0% void space
# The void calculation uses a probe of radius 1.32A, grid spacing 0.4
# The framework is charged, counterions have been retained in the structure
#
###############################################################################

data_YOFXEY
_chemical_formula_moiety         '(C352 H336 B16 Cl16 Cu19 Mn16 N176 O96)n'
_symmetry_cell_setting           triclinic
_symmetry_space_group_name_H-M   'P 1'
_symmetry_Int_Tables_number      1
_space_group_name_Hall           'P 1'
loop_
_symmetry_equiv_pos_site_id
_symmetry_equiv_pos_as_xyz
1 x,y,z
_cell_length_a                   36.102(6)
_cell_length_b                   36.102(6)
_cell_length_c                   9.930(3)
_cell_angle_alpha                90
_cell_angle_beta                 90
_cell_angle_gamma                90
_cell_volume                     12942.3
loop_
_atom_site_label
_atom_site_type_symbol
_atom_site_fract_x
_atom_site_fract_y
_atom_site_fract_z
Cu1 Cu 0.0000 0.5000 0.0000
N4 N 0.02780(12) 0.46246(13) 0.1076(5)
N5 N 0.01507(12) 0.44934(12) 0.2292(5)
C3 C 0.05906(16) 0.44545(16) 0.0870(7)
H3 H 0.0738 0.4497 0.0118
C4 C 0.03989(17) 0.42449(15) 0.2727(7)
H4 H 0.0379 0.4113 0.3529
N6 N 0.06808(13) 0.42116(13) 0.1849(5)
C11 C 0.0045(2) 0.3386(2) 0.0382(15)
H11 H 0.0266 0.3344 0.0837
H22 H 0.0880 0.5526 0.0867
N21 N 0.12540(14) 0.63069(14) 0.1184(6)
C29 C 0.09377(19) 0.63785(18) 0.1733(8)
H29 H 0.0919 0.6372 0.2667
C30 C 0.06107(19) 0.64691(18) 0.0954(10)
C31 C 0.0272(2) 0.6489(2) 0.1641(11)
H30 H 0.0265 0.6453 0.2568
C43 C 0.15767(19) 0.62023(19) 0.2019(7)
H39 H 0.1740 0.6413 0.2136
H40 H 0.1495 0.6120 0.2901
C44 C 0.17753(19) 0.58956(19) 0.1304(7)
H41 H 0.1644 0.5664 0.1430
H42 H 0.2024 0.5868 0.1661
Mn4 Mn 0.12165(2) 0.38586(2) 0.17155(10)
Cu1_2 Cu 0.0000 0.5000 1.0000
C10 C 0.0052(2) 0.3439(2) 0.9047(16)
H10 H 0.0275 0.3427 0.8585
N12 N 0.05267(13) 0.53782(13) 0.9433(5)
N13 N 0.05279(12) 0.54907(12) 0.8091(5)
C23 C 0.08139(16) 0.55475(16) 0.9965(7)
C24 C 0.08167(16) 0.57125(16) 0.7908(7)
H23 H 0.0880 0.5822 0.7092
N14 N 0.10052(13) 0.57577(14) 0.9061(6)
N18 N 0.01152(14) 0.47455(13) 0.8215(6)
N19 N 0.02071(13) 0.49480(13) 0.7088(5)
C27 C 0.0151(2) 0.43983(18) 0.7802(8)
H26 H 0.0105 0.4196 0.8359
C28 C 0.02975(18) 0.47123(18) 0.6108(7)
H27 H 0.0377 0.4784 0.5257
N20 N 0.02598(19) 0.43606(16) 0.6498(7)
B2 B 0.02230(18) 0.53751(18) 0.7111(7)
H28 H 0.0265 0.5477 0.6209
Mn2 Mn 0.13586(2) 0.62835(2) 0.92155(10)
C34 C 0.0284(2) 0.6608(2) 0.8899(11)
H33 H 0.0282 0.6652 0.7976
C35 C 0.06128(17) 0.65362(18) 0.9553(10)
O3 O 0.09255(12) 0.65453(12) 0.8796(5)
N22 N 0.17902(13) 0.59918(13) 0.9854(5)
C36 C 0.20541(17) 0.58667(17) 0.9096(7)
H34 H 0.2235 0.5722 0.9504
C37 C 0.20896(17) 0.59342(17) 0.7664(7)
C38 C 0.2421(2) 0.5822(2) 0.7021(9)
H35 H 0.2596 0.5689 0.7508
C39 C 0.2489(2) 0.5904(3) 0.5688(9)
H36 H 0.2709 0.5827 0.5289
C40 C 0.2232(2) 0.6100(3) 0.4941(9)
H37 H 0.2282 0.6160 0.4048
C41 C 0.1904(2) 0.6205(2) 0.5526(7)
H38 H 0.1730 0.6332 0.5012
C42 C 0.18229(17) 0.61252(18) 0.6871(7)
O4 O 0.15034(12) 0.62422(12) 0.7386(5)
N23 N 0.17116(13) 0.68192(13) 0.9349(5)
Cu1_3 Cu 1.0000 0.5000 0.0000
N1 N 0.94733(13) 0.46218(13) 0.0567(5)
N2 N 0.94721(12) 0.45093(12) 0.1909(5)
C1 C 0.91861(16) 0.44525(16) 0.0035(7)
C2 C 0.91833(16) 0.42875(16) 0.2092(7)
H2 H 0.9120 0.4178 0.2908
N3 N 0.89948(13) 0.42423(14) 0.0939(6)
N7 N 0.98848(14) 0.52545(13) 0.1785(6)
N8 N 0.97929(13) 0.50520(13) 0.2912(5)
C5 C 0.9849(2) 0.56017(18) 0.2198(8)
H5 H 0.9895 0.5804 0.1641
C6 C 0.97025(18) 0.52877(18) 0.3892(7)
H6 H 0.9623 0.5216 0.4743
N9 N 0.97402(19) 0.56394(16) 0.3502(7)
B1 B 0.97770(18) 0.46249(18) 0.2889(7)
H7 H 0.9735 0.4523 0.3791
Mn1 Mn 0.86414(2) 0.37165(2) 0.07845(10)
C12 C 0.9716(2) 0.3392(2) 0.1101(11)
H12 H 0.9718 0.3348 0.2024
C13 C 0.93872(17) 0.34638(18) 0.0447(10)
O1 O 0.90745(12) 0.34547(12) 0.1204(5)
N11 N 0.82098(13) 0.40082(13) 0.0146(5)
C14 C 0.79459(17) 0.41333(17) 0.0904(7)
H13 H 0.7765 0.4278 0.0496
C15 C 0.79104(17) 0.40658(17) 0.2336(7)
C16 C 0.7579(2) 0.4178(2) 0.2979(9)
H14 H 0.7404 0.4311 0.2492
C17 C 0.7511(2) 0.4096(3) 0.4312(9)
H15 H 0.7291 0.4173 0.4711
C18 C 0.7768(2) 0.3900(3) 0.5059(9)
H16 H 0.7718 0.3840 0.5952
C19 C 0.8096(2) 0.3795(2) 0.4474(7)
H17 H 0.8270 0.3668 0.4988
C20 C 0.81771(17) 0.38748(18) 0.3129(7)
O2 O 0.84966(12) 0.37578(12) 0.2614(5)
C32 C 0.9948(2) 0.6561(2) 0.0953(16)
H31 H 0.9725 0.6573 0.1415
N24 N 0.82884(13) 0.31808(13) 0.0651(5)
Cu1_4 Cu 1.0000 0.5000 1.0000
H1 H 0.9120 0.4474 0.9133
N10 N 0.87460(14) 0.36931(14) 0.8816(6)
C7 C 0.90623(19) 0.36215(18) 0.8267(8)
H8 H 0.9081 0.3628 0.7333
C8 C 0.93893(19) 0.35309(18) 0.9046(10)
C9 C 0.9728(2) 0.3511(2) 0.8359(11)
H9 H 0.9735 0.3547 0.7432
C21 C 0.84233(19) 0.37977(19) 0.7981(7)
H18 H 0.8260 0.3587 0.7864
H19 H 0.8505 0.3880 0.7099
C22 C 0.82247(19) 0.41044(19) 0.8696(7)
H20 H 0.8356 0.4336 0.8570
H21 H 0.7976 0.4132 0.8339
N15 N 0.97220(12) 0.53754(13) 0.8924(5)
N16 N 0.98493(12) 0.55066(12) 0.7708(5)
C25 C 0.94094(16) 0.55455(16) 0.9130(7)
H24 H 0.9262 0.5503 0.9882
C26 C 0.96011(17) 0.57551(15) 0.7273(7)
H25 H 0.9621 0.5887 0.6471
N17 N 0.93192(13) 0.57884(13) 0.8151(5)
C33 C 0.9955(2) 0.6614(2) 0.9618(15)
H32 H 0.9734 0.6656 0.9163
Mn3 Mn 0.87835(2) 0.61414(2) 0.82845(10)
Cu1_5 Cu 0.5000 0.5000 0.5000
N1_2 N 0.55267(13) 0.53782(13) 0.5567(5)
N2_2 N 0.55279(12) 0.54907(12) 0.6909(5)
C1_2 C 0.58139(16) 0.55475(16) 0.5035(7)
H1_2 H 0.5880 0.5526 0.4133
C2_2 C 0.58167(16) 0.57125(16) 0.7092(7)
H2_2 H 0.5880 0.5822 0.7908
N3_2 N 0.60052(13) 0.57577(14) 0.5939(6)
N4_2 N 0.47220(12) 0.53754(13) 0.6076(5)
N5_2 N 0.48493(12) 0.55066(12) 0.7292(5)
C3_2 C 0.44094(16) 0.55455(16) 0.5870(7)
H3_2 H 0.4262 0.5503 0.5118
C4_2 C 0.46011(17) 0.57551(15) 0.7727(7)
H4_2 H 0.4621 0.5887 0.8529
N6_2 N 0.43192(13) 0.57884(13) 0.6849(5)
N7_2 N 0.51152(14) 0.47455(13) 0.6785(6)
N8_2 N 0.52071(13) 0.49480(13) 0.7912(5)
C5_2 C 0.5151(2) 0.43983(18) 0.7198(8)
H5_2 H 0.5105 0.4196 0.6641
C6_2 C 0.52975(18) 0.47123(18) 0.8892(7)
H6_2 H 0.5377 0.4784 0.9743
N9_2 N 0.52598(19) 0.43606(16) 0.8502(7)
B1_2 B 0.52230(18) 0.53751(18) 0.7889(7)
H7_2 H 0.5265 0.5477 0.8791
Mn1_2 Mn 0.63586(2) 0.62835(2) 0.57845(10)
N10_2 N 0.62540(14) 0.63069(14) 0.3816(6)
C7_2 C 0.59377(19) 0.63785(18) 0.3267(8)
H8_2 H 0.5919 0.6372 0.2333
C8_2 C 0.56107(19) 0.64691(18) 0.4046(10)
C9_2 C 0.5272(2) 0.6489(2) 0.3359(11)
H9_2 H 0.5265 0.6453 0.2432
C10_2 C 0.4948(2) 0.6561(2) 0.4047(16)
H10_2 H 0.4725 0.6573 0.3585
C11_2 C 0.4955(2) 0.6614(2) 0.5382(15)
H11_2 H 0.4734 0.6656 0.5837
C12_2 C 0.5284(2) 0.6608(2) 0.6101(11)
H12_2 H 0.5282 0.6652 0.7024
C13_2 C 0.56128(17) 0.65362(18) 0.5447(10)
O1_2 O 0.59255(12) 0.65453(12) 0.6204(5)
N11_2 N 0.67902(13) 0.59918(13) 0.5146(5)
C14_2 C 0.70541(17) 0.58667(17) 0.5904(7)
H13_2 H 0.7235 0.5722 0.5496
C15_2 C 0.70896(17) 0.59342(17) 0.7336(7)
C16_2 C 0.7421(2) 0.5822(2) 0.7979(9)
H14_2 H 0.7596 0.5689 0.7492
C17_2 C 0.7489(2) 0.5904(3) 0.9312(9)
H15_2 H 0.7709 0.5827 0.9711
C19_2 C 0.6904(2) 0.6205(2) 0.9474(7)
H17_2 H 0.6730 0.6332 0.9988
C20_2 C 0.68229(17) 0.61252(18) 0.8129(7)
O2_2 O 0.65034(12) 0.62422(12) 0.7614(5)
C21_2 C 0.65767(19) 0.62023(19) 0.2981(7)
H18_2 H 0.6740 0.6413 0.2864
H19_2 H 0.6495 0.6120 0.2099
C22_2 C 0.67753(19) 0.58956(19) 0.3696(7)
H20_2 H 0.6644 0.5664 0.3570
H21_2 H 0.7024 0.5868 0.3339
N12_2 N 0.44733(13) 0.46218(13) 0.4433(5)
N13_2 N 0.44721(12) 0.45093(12) 0.3091(5)
C23_2 C 0.41861(16) 0.44525(16) 0.4965(7)
H22_2 H 0.4120 0.4474 0.5867
C24_2 C 0.41833(16) 0.42875(16) 0.2908(7)
H23_2 H 0.4120 0.4178 0.2092
N14_2 N 0.39948(13) 0.42423(14) 0.4061(6)
N15_2 N 0.52780(12) 0.46246(13) 0.3924(5)
N16_2 N 0.51507(12) 0.44934(12) 0.2708(5)
C25_2 C 0.55906(16) 0.44545(16) 0.4130(7)
H24_2 H 0.5738 0.4497 0.4882
C26_2 C 0.53989(17) 0.42449(15) 0.2273(7)
H25_2 H 0.5379 0.4113 0.1471
N17_2 N 0.56808(13) 0.42116(13) 0.3151(5)
N18_2 N 0.48848(14) 0.52545(13) 0.3215(6)
N19_2 N 0.47929(13) 0.50520(13) 0.2088(5)
C27_2 C 0.4849(2) 0.56017(18) 0.2802(8)
H26_2 H 0.4895 0.5804 0.3359
C28_2 C 0.47025(18) 0.52877(18) 0.1108(7)
H27_2 H 0.4623 0.5216 0.0257
N20_2 N 0.47402(19) 0.56394(16) 0.1498(7)
B2_2 B 0.47770(18) 0.46249(18) 0.2111(7)
H28_2 H 0.4735 0.4523 0.1209
Mn2_2 Mn 0.36414(2) 0.37165(2) 0.42155(10)
N21_2 N 0.37460(14) 0.36931(14) 0.6184(6)
C29_2 C 0.40623(19) 0.36215(18) 0.6733(8)
H29_2 H 0.4081 0.3628 0.7667
C30_2 C 0.43893(19) 0.35309(18) 0.5954(10)
C31_2 C 0.4728(2) 0.3511(2) 0.6641(11)
H30_2 H 0.4735 0.3547 0.7568
C32_2 C 0.5052(2) 0.3439(2) 0.5953(16)
H31_2 H 0.5275 0.3427 0.6415
C33_2 C 0.5045(2) 0.3386(2) 0.4618(15)
H32_2 H 0.5266 0.3344 0.4163
C34_2 C 0.4716(2) 0.3392(2) 0.3899(11)
H33_2 H 0.4718 0.3348 0.2976
C35_2 C 0.43872(17) 0.34638(18) 0.4553(10)
O3_2 O 0.40745(12) 0.34547(12) 0.3796(5)
N22_2 N 0.32098(13) 0.40082(13) 0.4854(5)
C36_2 C 0.29459(17) 0.41333(17) 0.4096(7)
H34_2 H 0.2765 0.4278 0.4504
C37_2 C 0.29104(17) 0.40658(17) 0.2664(7)
C38_2 C 0.2579(2) 0.4178(2) 0.2021(9)
H35_2 H 0.2404 0.4311 0.2508
C39_2 C 0.2511(2) 0.4096(3) 0.0688(9)
H36_2 H 0.2291 0.4173 0.0289
C41_2 C 0.3096(2) 0.3795(2) 0.0526(7)
H38_2 H 0.3270 0.3668 0.0012
C42_2 C 0.31771(17) 0.38748(18) 0.1871(7)
O4_2 O 0.34966(12) 0.37578(12) 0.2386(5)
C43_2 C 0.34233(19) 0.37977(19) 0.7019(7)
H39_2 H 0.3260 0.3587 0.7136
H40_2 H 0.3505 0.3880 0.7901
C44_2 C 0.32247(19) 0.41044(19) 0.6304(7)
H41_2 H 0.3356 0.4336 0.6430
H42_2 H 0.2976 0.4132 0.6661
N23_2 N 0.32884(13) 0.31808(13) 0.4349(5)
N24_2 N 0.67116(13) 0.68192(13) 0.5651(5)
Mn3_2 Mn 0.62165(2) 0.38586(2) 0.32845(10)
Mn4_2 Mn 0.37835(2) 0.61414(2) 0.67155(10)
Cu1_6 Cu 0.2500 0.2500 0.2500
N1_3 N 0.28782(13) 0.19733(13) 0.3067(5)
N2_3 N 0.29907(12) 0.19721(12) 0.4409(5)
C1_3 C 0.30475(16) 0.16861(16) 0.2535(7)
H1_3 H 0.3026 0.1620 0.1633
C2_3 C 0.32125(16) 0.16833(16) 0.4592(7)
H2_3 H 0.3322 0.1620 0.5408
N3_3 N 0.32577(14) 0.14948(13) 0.3439(6)
N4_3 N 0.28754(13) 0.27780(12) 0.3576(5)
N5_3 N 0.30066(12) 0.26507(12) 0.4792(5)
C3_3 C 0.30455(16) 0.30906(16) 0.3370(7)
H3_3 H 0.3003 0.3238 0.2618
C4_3 C 0.32551(15) 0.28989(17) 0.5227(7)
H4_3 H 0.3387 0.2879 0.6029
N7_3 N 0.22455(13) 0.23848(14) 0.4285(6)
N8_3 N 0.24480(13) 0.22929(13) 0.5412(5)
C5_3 C 0.18983(18) 0.2349(2) 0.4698(8)
H5_3 H 0.1696 0.2395 0.4141
C6_3 C 0.22123(18) 0.22025(18) 0.6392(7)
H6_3 H 0.2284 0.2123 0.7243
N9_3 N 0.18606(16) 0.22402(19) 0.6002(7)
B1_3 B 0.28751(18) 0.22770(18) 0.5389(7)
H7_3 H 0.2977 0.2235 0.6291
Mn1_3 Mn 0.37835(2) 0.11414(2) 0.32845(10)
N10_3 N 0.38069(14) 0.12460(14) 0.1316(6)
C7_3 C 0.38785(18) 0.15623(19) 0.0767(8)
C8_3 C 0.39691(18) 0.18893(19) 0.1546(10)
C9_3 C 0.3989(2) 0.2228(2) 0.0859(11)
C10_3 C 0.4061(2) 0.2552(2) 0.1547(16)
H10_3 H 0.4073 0.2775 0.1085
C11_3 C 0.4114(2) 0.2545(2) 0.2882(15)
H11_3 H 0.4156 0.2766 0.3337
C12_3 C 0.4108(2) 0.2216(2) 0.3601(11)
H12_3 H 0.4152 0.2218 0.4524
C13_3 C 0.40362(18) 0.18872(17) 0.2947(10)
O1_3 O 0.40453(12) 0.15745(12) 0.3704(5)
N11_3 N 0.34918(13) 0.07098(13) 0.2646(5)
C14_3 C 0.33667(17) 0.04459(17) 0.3404(7)
H13_3 H 0.3222 0.0265 0.2996
C15_3 C 0.34342(17) 0.04104(17) 0.4836(7)
C16_3 C 0.3322(2) 0.0079(2) 0.5479(9)
C17_3 C 0.3404(3) 0.0011(2) 0.6812(9)
C18_2 C 0.3600(3) 0.0268(2) 0.7559(9)
H16_2 H 0.3660 0.0218 0.8452
C19_3 C 0.3705(2) 0.0596(2) 0.6974(7)
H17_3 H 0.3832 0.0770 0.7488
C20_3 C 0.36252(18) 0.06771(17) 0.5629(7)
O2_3 O 0.37422(12) 0.09966(12) 0.5114(5)
C21_3 C 0.37023(19) 0.09233(19) 0.0481(7)
H18_3 H 0.3913 0.0760 0.0364
C22_3 C 0.33956(19) 0.07247(19) 0.1196(7)
H20_3 H 0.3164 0.0856 0.1070
H21_3 H 0.3368 0.0476 0.0839
N12_3 N 0.21218(13) 0.30267(13) 0.1933(5)
N13_3 N 0.20093(12) 0.30279(12) 0.0591(5)
C23_3 C 0.19525(16) 0.33139(16) 0.2465(7)
H22_3 H 0.1974 0.3380 0.3367
C24_3 C 0.17875(16) 0.33167(16) 0.0408(7)
N14_3 N 0.17423(14) 0.35052(13) 0.1561(6)
N15_3 N 0.21246(13) 0.22220(12) 0.1424(5)
N16_3 N 0.19934(12) 0.23493(12) 0.0208(5)
C25_3 C 0.19545(16) 0.19094(16) 0.1630(7)
H24_3 H 0.1997 0.1762 0.2382
N17_3 N 0.17116(13) 0.18192(13) 0.0651(5)
N18_3 N 0.27545(13) 0.26152(14) 0.0715(6)
C27_3 C 0.31017(18) 0.2651(2) 0.0302(8)
H26_3 H 0.3304 0.2605 0.0859
N21_3 N 0.11931(14) 0.37540(14) 0.3684(6)
C29_3 C 0.11215(18) 0.34377(19) 0.4233(8)
H29_3 H 0.1128 0.3419 0.5167
C30_3 C 0.10309(18) 0.31107(19) 0.3454(10)
C31_3 C 0.1011(2) 0.2772(2) 0.4141(11)
H30_3 H 0.1047 0.2765 0.5068
C32_3 C 0.0939(2) 0.2448(2) 0.3453(16)
H31_3 H 0.0927 0.2225 0.3915
C33_3 C 0.0886(2) 0.2455(2) 0.2118(15)
H32_3 H 0.0844 0.2234 0.1663
C34_3 C 0.0892(2) 0.2784(2) 0.1399(11)
H33_3 H 0.0848 0.2782 0.0476
C35_3 C 0.09638(18) 0.31128(17) 0.2053(10)
O3_3 O 0.09547(12) 0.34255(12) 0.1296(5)
N22_3 N 0.15082(13) 0.42902(13) 0.2354(5)
C36_3 C 0.16333(17) 0.45541(17) 0.1596(7)
H34_3 H 0.1778 0.4735 0.2004
C37_3 C 0.15658(17) 0.45896(17) 0.0164(7)
H35_3 H 0.1811 0.5096 0.0008
C43_3 C 0.12977(19) 0.40767(19) 0.4519(7)
H39_3 H 0.1087 0.4240 0.4636
H40_3 H 0.1380 0.3995 0.5401
C44_3 C 0.16044(19) 0.42753(19) 0.3804(7)
H41_3 H 0.1836 0.4144 0.3930
H42_3 H 0.1632 0.4524 0.4161
N24_3 N 0.43192(13) 0.07884(13) 0.3151(5)
Mn3_3 Mn 0.13586(2) 0.12835(2) 0.07845(10)
Cu1_7 Cu 0.2500 0.7500 0.7500
N1_4 N 0.21218(13) 0.80267(13) 0.8067(5)
N2_4 N 0.20093(12) 0.80279(12) 0.9409(5)
C1_4 C 0.19525(16) 0.83139(16) 0.7535(7)
H1_4 H 0.1974 0.8380 0.6633
C2_4 C 0.17875(16) 0.83167(16) 0.9592(7)
N3_4 N 0.17423(14) 0.85052(13) 0.8439(6)
N4_4 N 0.21246(13) 0.72220(12) 0.8576(5)
N5_4 N 0.19934(12) 0.73493(12) 0.9792(5)
C3_4 C 0.19545(16) 0.69094(16) 0.8370(7)
H3_4 H 0.1997 0.6762 0.7618
N7_4 N 0.27545(13) 0.76152(14) 0.9285(6)
C5_4 C 0.31017(18) 0.7651(2) 0.9698(8)
H5_4 H 0.3304 0.7605 0.9141
Mn1_4 Mn 0.12165(2) 0.88586(2) 0.82845(10)
N10_4 N 0.11931(14) 0.87540(14) 0.6316(6)
C7_4 C 0.11215(18) 0.84377(19) 0.5767(8)
H8_3 H 0.1128 0.8419 0.4833
C8_4 C 0.10309(18) 0.81107(19) 0.6546(10)
C9_4 C 0.1011(2) 0.7772(2) 0.5859(11)
H9_3 H 0.1047 0.7765 0.4932
C10_4 C 0.0939(2) 0.7448(2) 0.6547(16)
H10_4 H 0.0927 0.7225 0.6085
C11_4 C 0.0886(2) 0.7455(2) 0.7882(15)
H11_4 H 0.0844 0.7234 0.8337
C12_4 C 0.0892(2) 0.7784(2) 0.8601(11)
H12_4 H 0.0848 0.7782 0.9524
C13_4 C 0.09638(18) 0.81128(17) 0.7947(10)
O1_4 O 0.09547(12) 0.84255(12) 0.8704(5)
N11_4 N 0.15082(13) 0.92902(13) 0.7646(5)
C14_4 C 0.16333(17) 0.95541(17) 0.8404(7)
H13_4 H 0.1778 0.9735 0.7996
C15_4 C 0.15658(17) 0.95896(17) 0.9836(7)
C21_4 C 0.12977(19) 0.90767(19) 0.5481(7)
H18_4 H 0.1087 0.9240 0.5364
H19_3 H 0.1380 0.8995 0.4599
C22_4 C 0.16044(19) 0.92753(19) 0.6196(7)
H20_4 H 0.1836 0.9144 0.6070
H21_4 H 0.1632 0.9524 0.5839
N12_4 N 0.28782(13) 0.69733(13) 0.6933(5)
N13_4 N 0.29907(12) 0.69721(12) 0.5591(5)
C23_4 C 0.30475(16) 0.66861(16) 0.7465(7)
H22_4 H 0.3026 0.6620 0.8367
C24_4 C 0.32125(16) 0.66833(16) 0.5408(7)
H23_3 H 0.3322 0.6620 0.4592
N14_4 N 0.32577(14) 0.64948(13) 0.6561(6)
N15_4 N 0.28754(13) 0.77780(12) 0.6424(5)
N16_4 N 0.30066(12) 0.76507(12) 0.5208(5)
C25_4 C 0.30455(16) 0.80906(16) 0.6630(7)
H24_4 H 0.3003 0.8238 0.7382
C26_3 C 0.32551(15) 0.78989(17) 0.4773(7)
H25_3 H 0.3387 0.7879 0.3971
N17_4 N 0.32884(13) 0.81808(13) 0.5651(5)
N18_4 N 0.22455(13) 0.73848(14) 0.5715(6)
N19_3 N 0.24480(13) 0.72929(13) 0.4588(5)
C27_4 C 0.18983(18) 0.7349(2) 0.5302(8)
H26_4 H 0.1696 0.7395 0.5859
C28_3 C 0.22123(18) 0.72025(18) 0.3608(7)
H27_3 H 0.2284 0.7123 0.2757
N20_3 N 0.18606(16) 0.72402(19) 0.3998(7)
B2_3 B 0.28751(18) 0.72770(18) 0.4611(7)
H28_3 H 0.2977 0.7235 0.3709
N21_4 N 0.38069(14) 0.62460(14) 0.8684(6)
C29_4 C 0.38785(18) 0.65623(19) 0.9233(8)
C30_4 C 0.39691(18) 0.68893(19) 0.8454(10)
C31_4 C 0.3989(2) 0.7228(2) 0.9141(11)
C32_4 C 0.4061(2) 0.7552(2) 0.8453(16)
H31_4 H 0.4073 0.7775 0.8915
C33_4 C 0.4114(2) 0.7545(2) 0.7118(15)
H32_4 H 0.4156 0.7766 0.6663
C34_4 C 0.4108(2) 0.7216(2) 0.6399(11)
H33_4 H 0.4152 0.7218 0.5476
C35_4 C 0.40362(18) 0.68872(17) 0.7053(10)
O3_4 O 0.40453(12) 0.65745(12) 0.6296(5)
N22_4 N 0.34918(13) 0.57098(13) 0.7354(5)
C36_4 C 0.33667(17) 0.54459(17) 0.6596(7)
H34_4 H 0.3222 0.5265 0.7004
C37_4 C 0.34342(17) 0.54104(17) 0.5164(7)
C38_3 C 0.3322(2) 0.5079(2) 0.4521(9)
H35_4 H 0.3189 0.4904 0.5008
C39_3 C 0.3404(3) 0.5011(2) 0.3188(9)
H36_3 H 0.3327 0.4791 0.2789
C40_2 C 0.3600(3) 0.5268(2) 0.2441(9)
H37_2 H 0.3660 0.5218 0.1548
C41_3 C 0.3705(2) 0.5596(2) 0.3026(7)
H38_3 H 0.3832 0.5770 0.2512
C42_3 C 0.36252(18) 0.56771(17) 0.4371(7)
O4_3 O 0.37422(12) 0.59966(12) 0.4886(5)
C43_4 C 0.37023(19) 0.59233(19) 0.9519(7)
H39_4 H 0.3913 0.5760 0.9636
C44_4 C 0.33956(19) 0.57247(19) 0.8804(7)
H41_4 H 0.3164 0.5856 0.8930
H42_4 H 0.3368 0.5476 0.9161
N24_4 N 0.06808(13) 0.92116(13) 0.8151(5)
Mn3_4 Mn 0.36414(2) 0.87165(2) 0.57845(10)
Cu1_8 Cu 0.5000 -0.0000 0.5000
N7_5 N 0.48848(14) 0.02545(13) 0.6785(6)
N8_4 N 0.47929(13) 0.00520(13) 0.7912(5)
C5_5 C 0.4849(2) 0.06017(18) 0.7198(8)
H5_5 H 0.4895 0.0804 0.6641
C6_4 C 0.47025(18) 0.02877(18) 0.8892(7)
H6_4 H 0.4623 0.0216 0.9743
N9_4 N 0.47402(19) 0.06394(16) 0.8502(7)
N12_5 N 0.55267(13) 0.03782(13) 0.4433(5)
N13_5 N 0.55279(12) 0.04907(12) 0.3091(5)
C23_5 C 0.58139(16) 0.05475(16) 0.4965(7)
H22_5 H 0.5880 0.0526 0.5867
C24_5 C 0.58167(16) 0.07125(16) 0.2908(7)
H23_4 H 0.5880 0.0822 0.2092
N14_5 N 0.60052(13) 0.07577(14) 0.4061(6)
N15_5 N 0.47220(12) 0.03754(13) 0.3924(5)
N16_5 N 0.48493(12) 0.05066(12) 0.2708(5)
C25_5 C 0.44094(16) 0.05455(16) 0.4130(7)
H24_5 H 0.4262 0.0503 0.4882
C26_4 C 0.46011(17) 0.07551(15) 0.2273(7)
H25_4 H 0.4621 0.0887 0.1471
B2_4 B 0.52230(18) 0.03751(18) 0.2111(7)
H28_4 H 0.5265 0.0477 0.1209
Mn2_3 Mn 0.63586(2) 0.12835(2) 0.42155(10)
N21_5 N 0.62540(14) 0.13069(14) 0.6184(6)
C29_5 C 0.59377(19) 0.13785(18) 0.6733(8)
H29_4 H 0.5919 0.1372 0.7667
C30_5 C 0.56107(19) 0.14691(18) 0.5954(10)
C31_5 C 0.5272(2) 0.1489(2) 0.6641(11)
H30_4 H 0.5265 0.1453 0.7568
C32_5 C 0.4948(2) 0.1561(2) 0.5953(16)
H31_5 H 0.4725 0.1573 0.6415
C33_5 C 0.4955(2) 0.1614(2) 0.4618(15)
H32_5 H 0.4734 0.1656 0.4163
C34_5 C 0.5284(2) 0.1608(2) 0.3899(11)
H33_5 H 0.5282 0.1652 0.2976
C35_5 C 0.56128(17) 0.15362(18) 0.4553(10)
O3_5 O 0.59255(12) 0.15453(12) 0.3796(5)
N22_5 N 0.67902(13) 0.09918(13) 0.4854(5)
C36_5 C 0.70541(17) 0.08667(17) 0.4096(7)
H34_5 H 0.7235 0.0722 0.4504
C37_5 C 0.70896(17) 0.09342(17) 0.2664(7)
C38_4 C 0.7421(2) 0.0822(2) 0.2021(9)
H35_5 H 0.7596 0.0689 0.2508
C39_4 C 0.7489(2) 0.0904(3) 0.0688(9)
H36_4 H 0.7709 0.0827 0.0289
C41_4 C 0.6904(2) 0.1205(2) 0.0526(7)
H38_4 H 0.6730 0.1332 0.0012
C42_4 C 0.68229(17) 0.11252(18) 0.1871(7)
O4_4 O 0.65034(12) 0.12422(12) 0.2386(5)
C43_5 C 0.65767(19) 0.12023(19) 0.7019(7)
H39_5 H 0.6740 0.1413 0.7136
H40_4 H 0.6495 0.1120 0.7901
C44_5 C 0.67753(19) 0.08956(19) 0.6304(7)
H41_5 H 0.6644 0.0664 0.6430
H42_5 H 0.7024 0.0868 0.6661
N23_3 N 0.67116(13) 0.18192(13) 0.4349(5)
Cu1_9 Cu 0.5000 1.0000 0.5000
N1_5 N 0.44733(13) 0.96218(13) 0.5567(5)
N2_5 N 0.44721(12) 0.95093(12) 0.6909(5)
C1_5 C 0.41861(16) 0.94525(16) 0.5035(7)
H1_5 H 0.4120 0.9474 0.4133
C2_5 C 0.41833(16) 0.92875(16) 0.7092(7)
H2_4 H 0.4120 0.9178 0.7908
N3_5 N 0.39948(13) 0.92423(14) 0.5939(6)
N4_5 N 0.52780(12) 0.96246(13) 0.6076(5)
N5_5 N 0.51507(12) 0.94934(12) 0.7292(5)
C3_5 C 0.55906(16) 0.94545(16) 0.5870(7)
H3_5 H 0.5738 0.9497 0.5118
C4_4 C 0.53989(17) 0.92449(15) 0.7727(7)
H4_4 H 0.5379 0.9113 0.8529
N6_3 N 0.56808(13) 0.92116(13) 0.6849(5)
B1_4 B 0.47770(18) 0.96249(18) 0.7889(7)
H7_4 H 0.4735 0.9523 0.8791
N10_5 N 0.37460(14) 0.86931(14) 0.3816(6)
C7_5 C 0.40623(19) 0.86215(18) 0.3267(8)
H8_4 H 0.4081 0.8628 0.2333
C8_5 C 0.43893(19) 0.85309(18) 0.4046(10)
C9_5 C 0.4728(2) 0.8511(2) 0.3359(11)
H9_4 H 0.4735 0.8547 0.2432
C10_5 C 0.5052(2) 0.8439(2) 0.4047(16)
H10_5 H 0.5275 0.8427 0.3585
C11_5 C 0.5045(2) 0.8386(2) 0.5382(15)
H11_5 H 0.5266 0.8344 0.5837
C12_5 C 0.4716(2) 0.8392(2) 0.6101(11)
H12_5 H 0.4718 0.8348 0.7024
C13_5 C 0.43872(17) 0.84638(18) 0.5447(10)
O1_5 O 0.40745(12) 0.84547(12) 0.6204(5)
N11_5 N 0.32098(13) 0.90082(13) 0.5146(5)
C14_5 C 0.29459(17) 0.91333(17) 0.5904(7)
H13_5 H 0.2765 0.9278 0.5496
C15_5 C 0.29104(17) 0.90658(17) 0.7336(7)
C16_4 C 0.2579(2) 0.9178(2) 0.7979(9)
H14_3 H 0.2404 0.9311 0.7492
C17_4 C 0.2511(2) 0.9096(3) 0.9312(9)
H15_3 H 0.2291 0.9173 0.9711
C19_4 C 0.3096(2) 0.8795(2) 0.9474(7)
H17_4 H 0.3270 0.8668 0.9988
C20_4 C 0.31771(17) 0.88748(18) 0.8129(7)
O2_4 O 0.34966(12) 0.87578(12) 0.7614(5)
C21_5 C 0.34233(19) 0.87977(19) 0.2981(7)
H18_5 H 0.3260 0.8587 0.2864
H19_4 H 0.3505 0.8880 0.2099
C22_5 C 0.32247(19) 0.91044(19) 0.3696(7)
H20_5 H 0.3356 0.9336 0.3570
H21_5 H 0.2976 0.9132 0.3339
N18_5 N 0.51152(14) 0.97455(13) 0.3215(6)
N19_4 N 0.52071(13) 0.99480(13) 0.2088(5)
C27_5 C 0.5151(2) 0.93983(18) 0.2802(8)
H26_5 H 0.5105 0.9196 0.3359
C28_4 C 0.52975(18) 0.97123(18) 0.1108(7)
H27_4 H 0.5377 0.9784 0.0257
N20_4 N 0.52598(19) 0.93606(16) 0.1498(7)
Mn4_3 Mn 0.62165(2) 0.88586(2) 0.67155(10)
Cu1_10 Cu 0.0000 0.0000 0.0000
N1_6 N 0.05267(13) 0.03782(13) 0.0567(5)
N2_6 N 0.05279(12) 0.04907(12) 0.1909(5)
C1_6 C 0.08139(16) 0.05475(16) 0.0035(7)
C2_6 C 0.08167(16) 0.07125(16) 0.2092(7)
H2_5 H 0.0880 0.0822 0.2908
N3_6 N 0.10052(13) 0.07577(14) 0.0939(6)
B1_5 B 0.02230(18) 0.03751(18) 0.2889(7)
H7_5 H 0.0265 0.0477 0.3791
C12_6 C 0.0284(2) 0.1608(2) 0.1101(11)
H12_6 H 0.0282 0.1652 0.2024
C13_6 C 0.06128(17) 0.15362(18) 0.0447(10)
O1_6 O 0.09255(12) 0.15453(12) 0.1204(5)
N11_6 N 0.17902(13) 0.09918(13) 0.0146(5)
C14_6 C 0.20541(17) 0.08667(17) 0.0904(7)
H13_6 H 0.2235 0.0722 0.0496
C15_6 C 0.20896(17) 0.09342(17) 0.2336(7)
C16_5 C 0.2421(2) 0.0822(2) 0.2979(9)
H14_4 H 0.2596 0.0689 0.2492
C17_5 C 0.2489(2) 0.0904(3) 0.4312(9)
H15_4 H 0.2709 0.0827 0.4711
C18_3 C 0.2232(2) 0.1100(3) 0.5059(9)
H16_3 H 0.2282 0.1160 0.5952
C19_5 C 0.1904(2) 0.1205(2) 0.4474(7)
H17_5 H 0.1730 0.1332 0.4988
C20_5 C 0.18229(17) 0.11252(18) 0.3129(7)
O2_5 O 0.15034(12) 0.12422(12) 0.2614(5)
Cu1_11 Cu 0.0000 1.0000 1.0000
N15_6 N 0.02780(12) 0.96246(13) 0.8924(5)
N16_6 N 0.01507(12) 0.94934(12) 0.7708(5)
C25_6 C 0.05906(16) 0.94545(16) 0.9130(7)
H24_6 H 0.0738 0.9497 0.9882
C26_5 C 0.03989(17) 0.92449(15) 0.7273(7)
H25_5 H 0.0379 0.9113 0.6471
C33_6 C 0.0045(2) 0.8386(2) 0.9618(15)
H32_6 H 0.0266 0.8344 0.9163
Cu1_12 Cu 1.0000 0.0000 0.0000
N4_6 N 0.97220(12) 0.03754(13) 0.1076(5)
N5_6 N 0.98493(12) 0.05066(12) 0.2292(5)
C3_6 C 0.94094(16) 0.05455(16) 0.0870(7)
H3_6 H 0.9262 0.0503 0.0118
C4_5 C 0.96011(17) 0.07551(15) 0.2727(7)
H4_5 H 0.9621 0.0887 0.3529
N6_4 N 0.93192(13) 0.07884(13) 0.1849(5)
C11_6 C 0.9955(2) 0.1614(2) 0.0382(15)
H11_6 H 0.9734 0.1656 0.0837
Mn4_4 Mn 0.87835(2) 0.11414(2) 0.17155(10)
Cu1_13 Cu 1.0000 1.0000 1.0000
N12_6 N 0.94733(13) 0.96218(13) 0.9433(5)
N13_6 N 0.94721(12) 0.95093(12) 0.8091(5)
C23_6 C 0.91861(16) 0.94525(16) 0.9965(7)
C24_6 C 0.91833(16) 0.92875(16) 0.7908(7)
H23_5 H 0.9120 0.9178 0.7092
N14_6 N 0.89948(13) 0.92423(14) 0.9061(6)
B2_5 B 0.97770(18) 0.96249(18) 0.7111(7)
H28_5 H 0.9735 0.9523 0.6209
Mn2_4 Mn 0.86414(2) 0.87165(2) 0.92155(10)
C34_6 C 0.9716(2) 0.8392(2) 0.8899(11)
H33_6 H 0.9718 0.8348 0.7976
C35_6 C 0.93872(17) 0.84638(18) 0.9553(10)
O3_6 O 0.90745(12) 0.84547(12) 0.8796(5)
N22_6 N 0.82098(13) 0.90082(13) 0.9854(5)
C36_6 C 0.79459(17) 0.91333(17) 0.9096(7)
H34_6 H 0.7765 0.9278 0.9504
C37_6 C 0.79104(17) 0.90658(17) 0.7664(7)
C38_5 C 0.7579(2) 0.9178(2) 0.7021(9)
H35_6 H 0.7404 0.9311 0.7508
C39_5 C 0.7511(2) 0.9096(3) 0.5688(9)
H36_5 H 0.7291 0.9173 0.5289
C40_3 C 0.7768(2) 0.8900(3) 0.4941(9)
H37_3 H 0.7718 0.8840 0.4048
C41_5 C 0.8096(2) 0.8795(2) 0.5526(7)
H38_5 H 0.8270 0.8668 0.5012
C42_5 C 0.81771(17) 0.88748(18) 0.6871(7)
O4_5 O 0.84966(12) 0.87578(12) 0.7386(5)
N23_4 N 0.82884(13) 0.81808(13) 0.9349(5)
Cu1_14 Cu 0.7500 0.7500 0.7500
N1_7 N 0.78782(13) 0.69733(13) 0.8067(5)
N2_7 N 0.79907(12) 0.69721(12) 0.9409(5)
C1_7 C 0.80475(16) 0.66861(16) 0.7535(7)
H1_6 H 0.8026 0.6620 0.6633
C2_7 C 0.82125(16) 0.66833(16) 0.9592(7)
N3_7 N 0.82577(14) 0.64948(13) 0.8439(6)
N4_7 N 0.78754(13) 0.77780(12) 0.8576(5)
N5_7 N 0.80066(12) 0.76507(12) 0.9792(5)
C3_7 C 0.80455(16) 0.80906(16) 0.8370(7)
H3_7 H 0.8003 0.8238 0.7618
N7_6 N 0.72455(13) 0.73848(14) 0.9285(6)
C5_6 C 0.68983(18) 0.7349(2) 0.9698(8)
H5_6 H 0.6696 0.7395 0.9141
N10_6 N 0.88069(14) 0.62460(14) 0.6316(6)
C7_6 C 0.88785(18) 0.65623(19) 0.5767(8)
H8_5 H 0.8872 0.6581 0.4833
C8_6 C 0.89691(18) 0.68893(19) 0.6546(10)
C9_6 C 0.8989(2) 0.7228(2) 0.5859(11)
H9_5 H 0.8953 0.7235 0.4932
C10_6 C 0.9061(2) 0.7552(2) 0.6547(16)
H10_6 H 0.9073 0.7775 0.6085
C11_7 C 0.9114(2) 0.7545(2) 0.7882(15)
H11_7 H 0.9156 0.7766 0.8337
C12_7 C 0.9108(2) 0.7216(2) 0.8601(11)
H12_7 H 0.9152 0.7218 0.9524
C13_7 C 0.90362(18) 0.68872(17) 0.7947(10)
O1_7 O 0.90453(12) 0.65745(12) 0.8704(5)
N11_7 N 0.84918(13) 0.57098(13) 0.7646(5)
C14_7 C 0.83667(17) 0.54459(17) 0.8404(7)
H13_7 H 0.8222 0.5265 0.7996
C15_7 C 0.84342(17) 0.54104(17) 0.9836(7)
H14_5 H 0.8189 0.4904 0.9992
C21_6 C 0.87023(19) 0.59233(19) 0.5481(7)
H18_6 H 0.8913 0.5760 0.5364
H19_5 H 0.8620 0.6005 0.4599
C22_6 C 0.83956(19) 0.57247(19) 0.6196(7)
H20_6 H 0.8164 0.5856 0.6070
H21_6 H 0.8368 0.5476 0.5839
N12_7 N 0.71218(13) 0.80267(13) 0.6933(5)
N13_7 N 0.70093(12) 0.80279(12) 0.5591(5)
C23_7 C 0.69525(16) 0.83139(16) 0.7465(7)
H22_6 H 0.6974 0.8380 0.8367
C24_7 C 0.67875(16) 0.83167(16) 0.5408(7)
H23_6 H 0.6678 0.8380 0.4592
N14_7 N 0.67423(14) 0.85052(13) 0.6561(6)
N15_7 N 0.71246(13) 0.72220(12) 0.6424(5)
N16_7 N 0.69934(12) 0.73493(12) 0.5208(5)
C25_7 C 0.69545(16) 0.69094(16) 0.6630(7)
H24_7 H 0.6997 0.6762 0.7382
C26_6 C 0.67449(15) 0.71011(17) 0.4773(7)
H25_6 H 0.6613 0.7121 0.3971
N18_6 N 0.77545(13) 0.76152(14) 0.5715(6)
N19_5 N 0.75520(13) 0.77071(13) 0.4588(5)
C27_6 C 0.81017(18) 0.7651(2) 0.5302(8)
H26_6 H 0.8304 0.7605 0.5859
C28_5 C 0.77877(18) 0.77975(18) 0.3608(7)
H27_5 H 0.7716 0.7877 0.2757
N20_5 N 0.81394(16) 0.77598(19) 0.3998(7)
B2_6 B 0.71249(18) 0.77230(18) 0.4611(7)
H28_6 H 0.7023 0.7765 0.3709
N21_6 N 0.61931(14) 0.87540(14) 0.8684(6)
C29_6 C 0.61215(18) 0.84377(19) 0.9233(8)
C30_6 C 0.60309(18) 0.81107(19) 0.8454(10)
C31_6 C 0.6011(2) 0.7772(2) 0.9141(11)
C32_6 C 0.5939(2) 0.7448(2) 0.8453(16)
H31_6 H 0.5927 0.7225 0.8915
C33_7 C 0.5886(2) 0.7455(2) 0.7118(15)
H32_7 H 0.5844 0.7234 0.6663
C34_7 C 0.5892(2) 0.7784(2) 0.6399(11)
H33_7 H 0.5848 0.7782 0.5476
C35_7 C 0.59638(18) 0.81128(17) 0.7053(10)
O3_7 O 0.59547(12) 0.84255(12) 0.6296(5)
N22_7 N 0.65082(13) 0.92902(13) 0.7354(5)
C36_7 C 0.66333(17) 0.95541(17) 0.6596(7)
H34_7 H 0.6778 0.9735 0.7004
C37_7 C 0.65658(17) 0.95896(17) 0.5164(7)
C38_6 C 0.6678(2) 0.9921(2) 0.4521(9)
C39_6 C 0.6596(3) 0.9989(2) 0.3188(9)
C40_4 C 0.6400(3) 0.9732(2) 0.2441(9)
H37_4 H 0.6340 0.9782 0.1548
C41_6 C 0.6295(2) 0.9404(2) 0.3026(7)
H38_6 H 0.6168 0.9230 0.2512
C42_6 C 0.63748(18) 0.93229(17) 0.4371(7)
O4_6 O 0.62578(12) 0.90034(12) 0.4886(5)
C43_6 C 0.62977(19) 0.90767(19) 0.9519(7)
H39_6 H 0.6087 0.9240 0.9636
C44_6 C 0.66044(19) 0.92753(19) 0.8804(7)
H41_6 H 0.6836 0.9144 0.8930
H42_6 H 0.6632 0.9524 0.9161
Cu1_15 Cu 0.7500 0.2500 0.2500
N1_8 N 0.71218(13) 0.30267(13) 0.3067(5)
N2_8 N 0.70093(12) 0.30279(12) 0.4409(5)
C1_8 C 0.69525(16) 0.33139(16) 0.2535(7)
H1_7 H 0.6974 0.3380 0.1633
C2_8 C 0.67875(16) 0.33167(16) 0.4592(7)
H2_6 H 0.6678 0.3380 0.5408
N3_8 N 0.67423(14) 0.35052(13) 0.3439(6)
N4_8 N 0.71246(13) 0.22220(12) 0.3576(5)
N5_8 N 0.69934(12) 0.23493(12) 0.4792(5)
C3_8 C 0.69545(16) 0.19094(16) 0.3370(7)
H3_8 H 0.6997 0.1762 0.2618
C4_6 C 0.67449(15) 0.21011(17) 0.5227(7)
H4_6 H 0.6613 0.2121 0.6029
N7_7 N 0.77545(13) 0.26152(14) 0.4285(6)
N8_5 N 0.75520(13) 0.27071(13) 0.5412(5)
C5_7 C 0.81017(18) 0.2651(2) 0.4698(8)
H5_7 H 0.8304 0.2605 0.4141
C6_5 C 0.77877(18) 0.27975(18) 0.6392(7)
H6_5 H 0.7716 0.2877 0.7243
N9_5 N 0.81394(16) 0.27598(19) 0.6002(7)
B1_6 B 0.71249(18) 0.27230(18) 0.5389(7)
H7_6 H 0.7023 0.2765 0.6291
N10_7 N 0.61931(14) 0.37540(14) 0.1316(6)
C7_7 C 0.61215(18) 0.34377(19) 0.0767(8)
C8_7 C 0.60309(18) 0.31107(19) 0.1546(10)
C9_7 C 0.6011(2) 0.2772(2) 0.0859(11)
C10_7 C 0.5939(2) 0.2448(2) 0.1547(16)
H10_7 H 0.5927 0.2225 0.1085
C11_8 C 0.5886(2) 0.2455(2) 0.2882(15)
H11_8 H 0.5844 0.2234 0.3337
C12_8 C 0.5892(2) 0.2784(2) 0.3601(11)
H12_8 H 0.5848 0.2782 0.4524
C13_8 C 0.59638(18) 0.31128(17) 0.2947(10)
O1_8 O 0.59547(12) 0.34255(12) 0.3704(5)
N11_8 N 0.65082(13) 0.42902(13) 0.2646(5)
C14_8 C 0.66333(17) 0.45541(17) 0.3404(7)
H13_8 H 0.6778 0.4735 0.2996
C15_8 C 0.65658(17) 0.45896(17) 0.4836(7)
C16_6 C 0.6678(2) 0.4921(2) 0.5479(9)
H14_6 H 0.6811 0.5096 0.4992
C17_6 C 0.6596(3) 0.4989(2) 0.6812(9)
H15_5 H 0.6673 0.5209 0.7211
C18_4 C 0.6400(3) 0.4732(2) 0.7559(9)
H16_4 H 0.6340 0.4782 0.8452
C19_6 C 0.6295(2) 0.4404(2) 0.6974(7)
H17_6 H 0.6168 0.4230 0.7488
C20_6 C 0.63748(18) 0.43229(17) 0.5629(7)
O2_6 O 0.62578(12) 0.40034(12) 0.5114(5)
C21_7 C 0.62977(19) 0.40767(19) 0.0481(7)
H18_7 H 0.6087 0.4240 0.0364
C22_7 C 0.66044(19) 0.42753(19) 0.1196(7)
H20_7 H 0.6836 0.4144 0.1070
H21_7 H 0.6632 0.4524 0.0839
N12_8 N 0.78782(13) 0.19733(13) 0.1933(5)
N13_8 N 0.79907(12) 0.19721(12) 0.0591(5)
C23_8 C 0.80475(16) 0.16861(16) 0.2465(7)
H22_7 H 0.8026 0.1620 0.3367
C24_8 C 0.82125(16) 0.16833(16) 0.0408(7)
N14_8 N 0.82577(14) 0.14948(13) 0.1561(6)
N15_8 N 0.78754(13) 0.27780(12) 0.1424(5)
N16_8 N 0.80066(12) 0.26507(12) 0.0208(5)
C25_8 C 0.80455(16) 0.30906(16) 0.1630(7)
H24_8 H 0.8003 0.3238 0.2382
N18_7 N 0.72455(13) 0.23848(14) 0.0715(6)
C27_7 C 0.68983(18) 0.2349(2) 0.0302(8)
H26_7 H 0.6696 0.2395 0.0859
N21_7 N 0.88069(14) 0.12460(14) 0.3684(6)
C29_7 C 0.88785(18) 0.15623(19) 0.4233(8)
H29_5 H 0.8872 0.1581 0.5167
C30_7 C 0.89691(18) 0.18893(19) 0.3454(10)
C31_7 C 0.8989(2) 0.2228(2) 0.4141(11)
H30_5 H 0.8953 0.2235 0.5068
C32_7 C 0.9061(2) 0.2552(2) 0.3453(16)
H31_7 H 0.9073 0.2775 0.3915
C33_8 C 0.9114(2) 0.2545(2) 0.2118(15)
H32_8 H 0.9156 0.2766 0.1663
C34_8 C 0.9108(2) 0.2216(2) 0.1399(11)
H33_8 H 0.9152 0.2218 0.0476
C35_8 C 0.90362(18) 0.18872(17) 0.2053(10)
O3_8 O 0.90453(12) 0.15745(12) 0.1296(5)
N22_8 N 0.84918(13) 0.07098(13) 0.2354(5)
C36_8 C 0.83667(17) 0.04459(17) 0.1596(7)
H34_8 H 0.8222 0.0265 0.2004
C37_8 C 0.84342(17) 0.04104(17) 0.0164(7)
C43_7 C 0.87023(19) 0.09233(19) 0.4519(7)
H39_7 H 0.8913 0.0760 0.4636
H40_5 H 0.8620 0.1005 0.5401
C44_7 C 0.83956(19) 0.07247(19) 0.3804(7)
H41_7 H 0.8164 0.0856 0.3930
H42_7 H 0.8368 0.0476 0.4161
C18_5 C 0.7232(2) 0.6100(3) 0.0059(9)
H16_5 H 0.7282 0.6160 0.0952
C40_5 C 0.2768(2) 0.3900(3) 0.9941(9)
H37_5 H 0.2718 0.3840 0.9048
H8_6 H 0.3872 0.1581 0.9833
H9_6 H 0.3953 0.2235 0.9932
H19_6 H 0.3620 0.1005 0.9599
H23_7 H 0.1678 0.3380 0.9592
C26_7 C 0.17449(15) 0.21011(17) 0.9773(7)
H25_7 H 0.1613 0.2121 0.8971
N19_6 N 0.25520(13) 0.27071(13) 0.9588(5)
C28_6 C 0.27877(18) 0.27975(18) 0.8608(7)
H27_6 H 0.2716 0.2877 0.7757
N20_6 N 0.31394(16) 0.27598(19) 0.8998(7)
B2_7 B 0.21249(18) 0.27230(18) 0.9611(7)
H28_7 H 0.2023 0.2765 0.8709
C38_7 C 0.1678(2) 0.4921(2) 0.9521(9)
C39_7 C 0.1596(3) 0.4989(2) 0.8188(9)
H36_6 H 0.1673 0.5209 0.7789
C40_6 C 0.1400(3) 0.4732(2) 0.7441(9)
H37_6 H 0.1340 0.4782 0.6548
C41_7 C 0.1295(2) 0.4404(2) 0.8026(7)
H38_7 H 0.1168 0.4230 0.7512
C42_7 C 0.13748(18) 0.43229(17) 0.9371(7)
O4_7 O 0.12578(12) 0.40034(12) 0.9886(5)
H14_7 H 0.3189 0.9904 0.4992
H15_6 H 0.3327 0.9791 0.7211
H15_7 H 0.1673 0.0209 0.2211
H14_8 H 0.1811 0.0096 0.9992
H2_7 H 0.1678 0.8380 0.0408
C4_7 C 0.17449(15) 0.71011(17) 0.0227(7)
H4_7 H 0.1613 0.7121 0.1029
N8_6 N 0.25520(13) 0.77071(13) 0.0412(5)
C6_6 C 0.27877(18) 0.77975(18) 0.1392(7)
H6_6 H 0.2716 0.7877 0.2243
N9_6 N 0.31394(16) 0.77598(19) 0.1002(7)
B1_7 B 0.21249(18) 0.77230(18) 0.0389(7)
H7_7 H 0.2023 0.7765 0.1291
C16_7 C 0.1678(2) 0.9921(2) 0.0479(9)
C17_7 C 0.1596(3) 0.9989(2) 0.1812(9)
C18_6 C 0.1400(3) 0.9732(2) 0.2559(9)
H16_6 H 0.1340 0.9782 0.3452
C19_7 C 0.1295(2) 0.9404(2) 0.1974(7)
H17_7 H 0.1168 0.9230 0.2488
C20_7 C 0.13748(18) 0.93229(17) 0.0629(7)
O2_7 O 0.12578(12) 0.90034(12) 0.0114(5)
H29_6 H 0.3872 0.6581 0.0167
H30_6 H 0.3953 0.7235 0.0068
H40_6 H 0.3620 0.6005 0.0401
C40_7 C 0.7232(2) 0.1100(3) 0.9941(9)
H37_7 H 0.7282 0.1160 0.9048
C18_7 C 0.2768(2) 0.8900(3) 0.0059(9)
H16_7 H 0.2718 0.8840 0.0952
Cu1_16 Cu -0.0000 -0.0000 1.0000
H1_8 H 0.0880 0.0526 0.9133
N10_8 N 0.12540(14) 0.13069(14) 0.8816(6)
C7_8 C 0.09377(19) 0.13785(18) 0.8267(8)
H8_7 H 0.0919 0.1372 0.7333
C8_8 C 0.06107(19) 0.14691(18) 0.9046(10)
C9_8 C 0.0272(2) 0.1489(2) 0.8359(11)
H9_7 H 0.0265 0.1453 0.7432
C21_8 C 0.15767(19) 0.12023(19) 0.7981(7)
H18_8 H 0.1740 0.1413 0.7864
H19_7 H 0.1495 0.1120 0.7099
C22_8 C 0.17753(19) 0.08956(19) 0.8696(7)
H20_8 H 0.1644 0.0664 0.8570
H21_8 H 0.2024 0.0868 0.8339
Cu1_17 Cu 0.0000 1.0000 0.0000
N7_8 N 0.01152(14) 0.97455(13) 0.1785(6)
N8_7 N 0.02071(13) 0.99480(13) 0.2912(5)
C5_8 C 0.0151(2) 0.93983(18) 0.2198(8)
H5_8 H 0.0105 0.9196 0.1641
C6_7 C 0.02975(18) 0.97123(18) 0.3892(7)
H6_7 H 0.0377 0.9784 0.4743
N9_7 N 0.02598(19) 0.93606(16) 0.3502(7)
C32_8 C 0.0052(2) 0.8439(2) 0.0953(16)
H31_8 H 0.0275 0.8427 0.1415
Cu1_18 Cu 1.0000 -0.0000 1.0000
C10_8 C 0.9948(2) 0.1561(2) 0.9047(16)
H10_8 H 0.9725 0.1573 0.8585
N18_8 N 0.98848(14) 0.02545(13) 0.8215(6)
N19_7 N 0.97929(13) 0.00520(13) 0.7088(5)
C27_8 C 0.9849(2) 0.06017(18) 0.7802(8)
H26_8 H 0.9895 0.0804 0.8359
C28_7 C 0.97025(18) 0.02877(18) 0.6108(7)
H27_7 H 0.9623 0.0216 0.5257
N20_7 N 0.97402(19) 0.06394(16) 0.6498(7)
Cu1_19 Cu 1.0000 1.0000 0.0000
H22_8 H 0.9120 0.9474 0.0867
N21_8 N 0.87460(14) 0.86931(14) 0.1184(6)
C29_8 C 0.90623(19) 0.86215(18) 0.1733(8)
H29_7 H 0.9081 0.8628 0.2667
C30_8 C 0.93893(19) 0.85309(18) 0.0954(10)
C31_8 C 0.9728(2) 0.8511(2) 0.1641(11)
H30_7 H 0.9735 0.8547 0.2568
C43_8 C 0.84233(19) 0.87977(19) 0.2019(7)
H39_8 H 0.8260 0.8587 0.2136
H40_7 H 0.8505 0.8880 0.2901
C44_8 C 0.82247(19) 0.91044(19) 0.1304(7)
H41_8 H 0.8356 0.9336 0.1430
H42_8 H 0.7976 0.9132 0.1661
H35_7 H 0.6811 0.0096 0.5008
H36_7 H 0.6673 0.0209 0.2789
H2_8 H 0.8322 0.6620 0.0408
C4_8 C 0.82551(15) 0.78989(17) 0.0227(7)
H4_8 H 0.8387 0.7879 0.1029
N8_8 N 0.74480(13) 0.72929(13) 0.0412(5)
C6_8 C 0.72123(18) 0.72025(18) 0.1392(7)
H6_8 H 0.7284 0.7123 0.2243
N9_8 N 0.68606(16) 0.72402(19) 0.1002(7)
B1_8 B 0.78751(18) 0.72770(18) 0.0389(7)
H7_8 H 0.7977 0.7235 0.1291
C16_8 C 0.8322(2) 0.5079(2) 0.0479(9)
C17_8 C 0.8404(3) 0.5011(2) 0.1812(9)
H15_8 H 0.8327 0.4791 0.2211
C18_8 C 0.8600(3) 0.5268(2) 0.2559(9)
H16_8 H 0.8660 0.5218 0.3452
C19_8 C 0.8705(2) 0.5596(2) 0.1974(7)
H17_8 H 0.8832 0.5770 0.2488
C20_8 C 0.86252(18) 0.56771(17) 0.0629(7)
O2_8 O 0.87422(12) 0.59966(12) 0.0114(5)
H29_8 H 0.6128 0.8419 0.0167
H30_8 H 0.6047 0.7765 0.0068
H40_8 H 0.6380 0.8995 0.0401
H8_8 H 0.6128 0.3419 0.9833
H9_8 H 0.6047 0.2765 0.9932
H19_8 H 0.6380 0.3995 0.9599
H23_8 H 0.8322 0.1620 0.9592
C26_8 C 0.82551(15) 0.28989(17) 0.9773(7)
H25_8 H 0.8387 0.2879 0.8971
N19_8 N 0.74480(13) 0.22929(13) 0.9588(5)
C28_8 C 0.72123(18) 0.22025(18) 0.8608(7)
H27_8 H 0.7284 0.2123 0.7757
N20_8 N 0.68606(16) 0.22402(19) 0.8998(7)
B2_8 B 0.78751(18) 0.22770(18) 0.9611(7)
H28_8 H 0.7977 0.2235 0.8709
C38_8 C 0.8322(2) 0.0079(2) 0.9521(9)
C39_8 C 0.8404(3) 0.0011(2) 0.8188(9)
C40_8 C 0.8600(3) 0.0268(2) 0.7441(9)
H37_8 H 0.8660 0.0218 0.6548
C41_8 C 0.8705(2) 0.0596(2) 0.8026(7)
H38_8 H 0.8832 0.0770 0.7512
C42_8 C 0.86252(18) 0.06771(17) 0.9371(7)
O4_8 O 0.87422(12) 0.09966(12) 0.9886(5)
H35_8 H 0.8189 0.9904 0.0008
H36_8 H 0.8327 0.9791 0.7789
Cl1 Cl 0.89292(6) 0.47002(5) 0.61105(19)
O5 O 0.8921(3) 0.4669(3) 0.4718(9)
O6 O 0.9128(3) 0.5014(2) 0.6306(15)
O7 O 0.8615(3) 0.4745(2) 0.6817(13)
O8 O 0.9091(3) 0.4374(2) 0.6523(10)
Cl1_2 Cl 0.60708(6) 0.52998(5) 0.11105(19)
O6_2 O 0.5872(3) 0.4986(2) 0.1306(15)
O7_2 O 0.6385(3) 0.5255(2) 0.1817(13)
O8_2 O 0.5909(3) 0.5626(2) 0.1523(10)
O5_2 O 0.6079(3) 0.5331(3) 0.9718(9)
Cl1_3 Cl 0.27998(5) 0.14292(6) 0.86105(19)
O5_3 O 0.2831(3) 0.1421(3) 0.7218(9)
O6_3 O 0.2486(2) 0.1628(3) 0.8806(15)
O7_3 O 0.2755(2) 0.1115(3) 0.9317(13)
O8_3 O 0.3126(2) 0.1591(3) 0.9023(10)
Cl1_4 Cl 0.22002(5) 0.85708(6) 0.36105(19)
O5_4 O 0.2169(3) 0.8579(3) 0.2218(9)
O6_4 O 0.2514(2) 0.8372(3) 0.3806(15)
O7_4 O 0.2245(2) 0.8885(3) 0.4317(13)
O8_4 O 0.1874(2) 0.8409(3) 0.4023(10)
O6_5 O 0.4128(3) 0.0014(2) 0.1306(15)
Cl1_5 Cl 0.39292(6) 0.97002(5) 0.11105(19)
O7_5 O 0.3615(3) 0.9745(2) 0.1817(13)
O8_5 O 0.4091(3) 0.9374(2) 0.1523(10)
O5_5 O 0.3921(3) 0.9669(3) 0.9718(9)
Cl1_6 Cl 0.10708(6) 0.02998(5) 0.61105(19)
O5_6 O 0.1079(3) 0.0331(3) 0.4718(9)
O7_6 O 0.1385(3) 0.0255(2) 0.6817(13)
O8_6 O 0.0909(3) 0.0626(2) 0.6523(10)
O6_6 O 0.0872(3) 0.9986(2) 0.6306(15)
Cl1_7 Cl 0.77998(5) 0.64292(6) 0.36105(19)
O5_7 O 0.7831(3) 0.6421(3) 0.2218(9)
O6_7 O 0.7486(2) 0.6628(3) 0.3806(15)
O7_7 O 0.7755(2) 0.6115(3) 0.4317(13)
O8_7 O 0.8126(2) 0.6591(3) 0.4023(10)
Cl1_8 Cl 0.72002(5) 0.35708(6) 0.86105(19)
O5_8 O 0.7169(3) 0.3579(3) 0.7218(9)
O6_8 O 0.7514(2) 0.3372(3) 0.8806(15)
O7_8 O 0.7245(2) 0.3885(3) 0.9317(13)
O8_8 O 0.6874(2) 0.3409(3) 0.9023(10)
Cl1_9 Cl 0.10708(6) 0.52998(5) 0.38895(19)
O5_9 O 0.1079(3) 0.5331(3) 0.5282(9)
O6_9 O 0.0872(3) 0.4986(2) 0.3694(15)
O7_9 O 0.1385(3) 0.5255(2) 0.3183(13)
O8_9 O 0.0909(3) 0.5626(2) 0.3477(10)
O5_10 O 0.3921(3) 0.4669(3) 0.0282(9)
Cl1_10 Cl 0.39292(6) 0.47002(5) 0.88895(19)
O6_10 O 0.4128(3) 0.5014(2) 0.8694(15)
O7_10 O 0.3615(3) 0.4745(2) 0.8183(13)
O8_10 O 0.4091(3) 0.4374(2) 0.8477(10)
Cl1_11 Cl 0.72002(5) 0.85708(6) 0.13895(19)
O5_11 O 0.7169(3) 0.8579(3) 0.2782(9)
O6_11 O 0.7514(2) 0.8372(3) 0.1194(15)
O7_11 O 0.7245(2) 0.8885(3) 0.0683(13)
O8_11 O 0.6874(2) 0.8409(3) 0.0977(10)
Cl1_12 Cl 0.77998(5) 0.14292(6) 0.63895(19)
O5_12 O 0.7831(3) 0.1421(3) 0.7782(9)
O6_12 O 0.7486(2) 0.1628(3) 0.6194(15)
O7_12 O 0.7755(2) 0.1115(3) 0.5683(13)
O8_12 O 0.8126(2) 0.1591(3) 0.5977(10)
O5_13 O 0.6079(3) 0.0331(3) 0.0282(9)
Cl1_13 Cl 0.60708(6) 0.02998(5) 0.88895(19)
O7_13 O 0.6385(3) 0.0255(2) 0.8183(13)
O8_13 O 0.5909(3) 0.0626(2) 0.8477(10)
O6_13 O 0.5872(3) 0.9986(2) 0.8694(15)
O6_14 O 0.9128(3) 0.0014(2) 0.3694(15)
Cl1_14 Cl 0.89292(6) 0.97002(5) 0.38895(19)
O5_14 O 0.8921(3) 0.9669(3) 0.5282(9)
O7_14 O 0.8615(3) 0.9745(2) 0.3183(13)
O8_14 O 0.9091(3) 0.9374(2) 0.3477(10)
Cl1_15 Cl 0.22002(5) 0.35708(6) 0.63895(19)
O5_15 O 0.2169(3) 0.3579(3) 0.7782(9)
O6_15 O 0.2514(2) 0.3372(3) 0.6194(15)
O7_15 O 0.2245(2) 0.3885(3) 0.5683(13)
O8_15 O 0.1874(2) 0.3409(3) 0.5977(10)
Cl1_16 Cl 0.27998(5) 0.64292(6) 0.13895(19)
O5_16 O 0.2831(3) 0.6421(3) 0.2782(9)
O6_16 O 0.2486(2) 0.6628(3) 0.1194(15)
O7_16 O 0.2755(2) 0.6115(3) 0.0683(13)
O8_16 O 0.3126(2) 0.6591(3) 0.0977(10)
loop_
_geom_bond_atom_site_label_1
_geom_bond_atom_site_label_2
_geom_bond_site_symmetry_1
_geom_bond_site_symmetry_2
N4 Cu1 1_555 1_555
N5 N4 1_555 1_555
C3 N4 1_555 1_555
H3 C3 1_555 1_555
C4 N5 1_555 1_555
H4 C4 1_555 1_555
N6 C3 1_555 1_555
H11 C11 1_555 1_555
C29 N21 1_555 1_555
H29 C29 1_555 1_555
C30 C29 1_555 1_555
C31 C30 1_555 1_555
H30 C31 1_555 1_555
C43 N21 1_555 1_555
H39 C43 1_555 1_555
H40 C43 1_555 1_555
H41 C44 1_555 1_555
H42 C44 1_555 1_555
Mn4 N6 1_555 1_555
C4 N6 1_555 1_555
C43 C44 1_555 1_555
H10 C10 1_555 1_555
N12 Cu1_2 1_555 1_555
N13 N12 1_555 1_555
C23 N12 1_555 1_555
C24 N13 1_555 1_555
H23 C24 1_555 1_555
N14 C23 1_555 1_555
N18 Cu1_2 1_555 1_555
N19 N18 1_555 1_555
C27 N18 1_555 1_555
H26 C27 1_555 1_555
C28 N19 1_555 1_555
H27 C28 1_555 1_555
N20 C27 1_555 1_555
B2 N13 1_555 1_555
H28 B2 1_555 1_555
Mn2 N14 1_555 1_555
H33 C34 1_555 1_555
O3 Mn2 1_555 1_555
N22 Mn2 1_555 1_555
C36 N22 1_555 1_555
H34 C36 1_555 1_555
C37 C36 1_555 1_555
C38 C37 1_555 1_555
H35 C38 1_555 1_555
C39 C38 1_555 1_555
H36 C39 1_555 1_555
C40 C39 1_555 1_555
H37 C40 1_555 1_555
C41 C40 1_555 1_555
H38 C41 1_555 1_555
C42 C37 1_555 1_555
O4 Mn2 1_555 1_555
N23 Mn2 1_555 1_555
C24 N14 1_555 1_555
N19 B2 1_555 1_555
C28 N20 1_555 1_555
C34 C35 1_555 1_555
C35 O3 1_555 1_555
C41 C42 1_555 1_555
C42 O4 1_555 1_555
Cu1_3 N1 1_555 1_555
N1 N2 1_555 1_555
N2 C2 1_555 1_555
C1 N1 1_555 1_555
C2 H2 1_555 1_555
N3 C1 1_555 1_555
N7 Cu1_3 1_555 1_555
N8 N7 1_555 1_555
C5 N7 1_555 1_555
H5 C5 1_555 1_555
C6 N8 1_555 1_555
H6 C6 1_555 1_555
N9 C5 1_555 1_555
B1 N2 1_555 1_555
H7 B1 1_555 1_555
Mn1 N3 1_555 1_555
H12 C12 1_555 1_555
O1 Mn1 1_555 1_555
N11 Mn1 1_555 1_555
C14 N11 1_555 1_555
H13 C14 1_555 1_555
C15 C14 1_555 1_555
C16 C15 1_555 1_555
H14 C16 1_555 1_555
C17 C16 1_555 1_555
H15 C17 1_555 1_555
C18 C17 1_555 1_555
H16 C18 1_555 1_555
C19 C18 1_555 1_555
H17 C19 1_555 1_555
C20 C15 1_555 1_555
O2 Mn1 1_555 1_555
H31 C32 1_555 1_555
N24 Mn1 1_555 1_555
C2 N3 1_555 1_555
N8 B1 1_555 1_555
C6 N9 1_555 1_555
C12 C13 1_555 1_555
C13 O1 1_555 1_555
C19 C20 1_555 1_555
C20 O2 1_555 1_555
C7 N10 1_555 1_555
H8 C7 1_555 1_555
C8 C7 1_555 1_555
C9 C8 1_555 1_555
H9 C9 1_555 1_555
C21 N10 1_555 1_555
H18 C21 1_555 1_555
H19 C21 1_555 1_555
H20 C22 1_555 1_555
H21 C22 1_555 1_555
N15 Cu1_4 1_555 1_555
N16 N15 1_555 1_555
C25 N15 1_555 1_555
H24 C25 1_555 1_555
C26 N16 1_555 1_555
H25 C26 1_555 1_555
N17 C25 1_555 1_555
H32 C33 1_555 1_555
Mn3 N17 1_555 1_555
C21 C22 1_555 1_555
C26 N17 1_555 1_555
Cu1_5 N1_2 1_555 1_555
N1_2 N2_2 1_555 1_555
N2_2 C2_2 1_555 1_555
C1_2 N1_2 1_555 1_555
H1_2 C1_2 1_555 1_555
C2_2 H2_2 1_555 1_555
N3_2 C1_2 1_555 1_555
N4_2 Cu1_5 1_555 1_555
N5_2 N4_2 1_555 1_555
C3_2 N4_2 1_555 1_555
H3_2 C3_2 1_555 1_555
C4_2 N5_2 1_555 1_555
H4_2 C4_2 1_555 1_555
N6_2 C3_2 1_555 1_555
N7_2 Cu1_5 1_555 1_555
N8_2 N7_2 1_555 1_555
C5_2 N7_2 1_555 1_555
H5_2 C5_2 1_555 1_555
C6_2 N8_2 1_555 1_555
H6_2 C6_2 1_555 1_555
N9_2 C5_2 1_555 1_555
B1_2 N2_2 1_555 1_555
H7_2 B1_2 1_555 1_555
Mn1_2 N3_2 1_555 1_555
N10_2 Mn1_2 1_555 1_555
C7_2 N10_2 1_555 1_555
H8_2 C7_2 1_555 1_555
C8_2 C7_2 1_555 1_555
C9_2 C8_2 1_555 1_555
H9_2 C9_2 1_555 1_555
C10_2 C9_2 1_555 1_555
H10_2 C10_2 1_555 1_555
C11_2 C10_2 1_555 1_555
H11_2 C11_2 1_555 1_555
C12_2 C11_2 1_555 1_555
H12_2 C12_2 1_555 1_555
C13_2 C8_2 1_555 1_555
O1_2 Mn1_2 1_555 1_555
N11_2 Mn1_2 1_555 1_555
C14_2 N11_2 1_555 1_555
H13_2 C14_2 1_555 1_555
C15_2 C14_2 1_555 1_555
C16_2 C15_2 1_555 1_555
H14_2 C16_2 1_555 1_555
C17_2 C16_2 1_555 1_555
H15_2 C17_2 1_555 1_555
H17_2 C19_2 1_555 1_555
C20_2 C15_2 1_555 1_555
O2_2 Mn1_2 1_555 1_555
C21_2 N10_2 1_555 1_555
H18_2 C21_2 1_555 1_555
H19_2 C21_2 1_555 1_555
C22_2 N11_2 1_555 1_555
H20_2 C22_2 1_555 1_555
H21_2 C22_2 1_555 1_555
N12_2 Cu1_5 1_555 1_555
N13_2 N12_2 1_555 1_555
C23_2 N12_2 1_555 1_555
H22_2 C23_2 1_555 1_555
C24_2 N13_2 1_555 1_555
H23_2 C24_2 1_555 1_555
N14_2 C23_2 1_555 1_555
N15_2 Cu1_5 1_555 1_555
N16_2 N15_2 1_555 1_555
C25_2 N15_2 1_555 1_555
H24_2 C25_2 1_555 1_555
C26_2 N16_2 1_555 1_555
H25_2 C26_2 1_555 1_555
N17_2 C25_2 1_555 1_555
N18_2 Cu1_5 1_555 1_555
N19_2 N18_2 1_555 1_555
C27_2 N18_2 1_555 1_555
H26_2 C27_2 1_555 1_555
C28_2 N19_2 1_555 1_555
H27_2 C28_2 1_555 1_555
N20_2 C27_2 1_555 1_555
B2_2 N13_2 1_555 1_555
H28_2 B2_2 1_555 1_555
Mn2_2 N14_2 1_555 1_555
N21_2 Mn2_2 1_555 1_555
C29_2 N21_2 1_555 1_555
H29_2 C29_2 1_555 1_555
C30_2 C29_2 1_555 1_555
C31_2 C30_2 1_555 1_555
H30_2 C31_2 1_555 1_555
C32_2 C31_2 1_555 1_555
H31_2 C32_2 1_555 1_555
C33_2 C32_2 1_555 1_555
H32_2 C33_2 1_555 1_555
C34_2 C33_2 1_555 1_555
H33_2 C34_2 1_555 1_555
C35_2 C30_2 1_555 1_555
O3_2 Mn2_2 1_555 1_555
N22_2 Mn2_2 1_555 1_555
C36_2 N22_2 1_555 1_555
H34_2 C36_2 1_555 1_555
C37_2 C36_2 1_555 1_555
C38_2 C37_2 1_555 1_555
H35_2 C38_2 1_555 1_555
C39_2 C38_2 1_555 1_555
H36_2 C39_2 1_555 1_555
H38_2 C41_2 1_555 1_555
C42_2 C37_2 1_555 1_555
O4_2 Mn2_2 1_555 1_555
C43_2 N21_2 1_555 1_555
H39_2 C43_2 1_555 1_555
H40_2 C43_2 1_555 1_555
C44_2 N22_2 1_555 1_555
H41_2 C44_2 1_555 1_555
H42_2 C44_2 1_555 1_555
N23_2 Mn2_2 1_555 1_555
N24_2 Mn1_2 1_555 1_555
Mn3_2 N17_2 1_555 1_555
Mn4_2 N6_2 1_555 1_555
C2_2 N3_2 1_555 1_555
N5_2 B1_2 1_555 1_555
C4_2 N6_2 1_555 1_555
N8_2 B1_2 1_555 1_555
C6_2 N9_2 1_555 1_555
C12_2 C13_2 1_555 1_555
C13_2 O1_2 1_555 1_555
C19_2 C20_2 1_555 1_555
C20_2 O2_2 1_555 1_555
C21_2 C22_2 1_555 1_555
C24_2 N14_2 1_555 1_555
N16_2 B2_2 1_555 1_555
C26_2 N17_2 1_555 1_555
N19_2 B2_2 1_555 1_555
C28_2 N20_2 1_555 1_555
C34_2 C35_2 1_555 1_555
C35_2 O3_2 1_555 1_555
C41_2 C42_2 1_555 1_555
C42_2 O4_2 1_555 1_555
C43_2 C44_2 1_555 1_555
Cu1_6 N1_3 1_555 1_555
N1_3 N2_3 1_555 1_555
N2_3 C2_3 1_555 1_555
C1_3 N1_3 1_555 1_555
H1_3 C1_3 1_555 1_555
C2_3 H2_3 1_555 1_555
N3_3 C1_3 1_555 1_555
N4_3 Cu1_6 1_555 1_555
N5_3 N4_3 1_555 1_555
C3_3 N4_3 1_555 1_555
H3_3 C3_3 1_555 1_555
C4_3 N5_3 1_555 1_555
H4_3 C4_3 1_555 1_555
N23_2 C3_3 1_555 1_555
N7_3 Cu1_6 1_555 1_555
N8_3 N7_3 1_555 1_555
C5_3 N7_3 1_555 1_555
H5_3 C5_3 1_555 1_555
C6_3 N8_3 1_555 1_555
H6_3 C6_3 1_555 1_555
N9_3 C5_3 1_555 1_555
B1_3 N2_3 1_555 1_555
H7_3 B1_3 1_555 1_555
Mn1_3 N3_3 1_555 1_555
N10_3 Mn1_3 1_555 1_555
C7_3 N10_3 1_555 1_555
C8_3 C7_3 1_555 1_555
C9_3 C8_3 1_555 1_555
C10_3 C9_3 1_555 1_555
H10_3 C10_3 1_555 1_555
C11_3 C10_3 1_555 1_555
H11_3 C11_3 1_555 1_555
C12_3 C11_3 1_555 1_555
H12_3 C12_3 1_555 1_555
C13_3 C8_3 1_555 1_555
O1_3 Mn1_3 1_555 1_555
N11_3 Mn1_3 1_555 1_555
C14_3 N11_3 1_555 1_555
H13_3 C14_3 1_555 1_555
C15_3 C14_3 1_555 1_555
C16_3 C15_3 1_555 1_555
C17_3 C16_3 1_555 1_555
C18_2 C17_3 1_555 1_555
H16_2 C18_2 1_555 1_555
C19_3 C18_2 1_555 1_555
H17_3 C19_3 1_555 1_555
C20_3 C15_3 1_555 1_555
O2_3 Mn1_3 1_555 1_555
C21_3 N10_3 1_555 1_555
H18_3 C21_3 1_555 1_555
C22_3 N11_3 1_555 1_555
H20_3 C22_3 1_555 1_555
H21_3 C22_3 1_555 1_555
N12_3 Cu1_6 1_555 1_555
N13_3 N12_3 1_555 1_555
C23_3 N12_3 1_555 1_555
H22_3 C23_3 1_555 1_555
C24_3 N13_3 1_555 1_555
N14_3 C23_3 1_555 1_555
N15_3 Cu1_6 1_555 1_555
N16_3 N15_3 1_555 1_555
C25_3 N15_3 1_555 1_555
H24_3 C25_3 1_555 1_555
N17_3 C25_3 1_555 1_555
N18_3 Cu1_6 1_555 1_555
C27_3 N18_3 1_555 1_555
H26_3 C27_3 1_555 1_555
Mn4 N14_3 1_555 1_555
N21_3 Mn4 1_555 1_555
C29_3 N21_3 1_555 1_555
H29_3 C29_3 1_555 1_555
C30_3 C29_3 1_555 1_555
C31_3 C30_3 1_555 1_555
H30_3 C31_3 1_555 1_555
C32_3 C31_3 1_555 1_555
H31_3 C32_3 1_555 1_555
C33_3 C32_3 1_555 1_555
H32_3 C33_3 1_555 1_555
C34_3 C33_3 1_555 1_555
H33_3 C34_3 1_555 1_555
C35_3 C30_3 1_555 1_555
O3_3 Mn4 1_555 1_555
N22_3 Mn4 1_555 1_555
C36_3 N22_3 1_555 1_555
H34_3 C36_3 1_555 1_555
C37_3 C36_3 1_555 1_555
C43_3 N21_3 1_555 1_555
H39_3 C43_3 1_555 1_555
H40_3 C43_3 1_555 1_555
C44_3 N22_3 1_555 1_555
H41_3 C44_3 1_555 1_555
H42_3 C44_3 1_555 1_555
N24_3 Mn1_3 1_555 1_555
Mn3_3 N17_3 1_555 1_555
C2_3 N3_3 1_555 1_555
N5_3 B1_3 1_555 1_555
C4_3 N23_2 1_555 1_555
N8_3 B1_3 1_555 1_555
C6_3 N9_3 1_555 1_555
C12_3 C13_3 1_555 1_555
C13_3 O1_3 1_555 1_555
C19_3 C20_3 1_555 1_555
C20_3 O2_3 1_555 1_555
C21_3 C22_3 1_555 1_555
C24_3 N14_3 1_555 1_555
C34_3 C35_3 1_555 1_555
C35_3 O3_3 1_555 1_555
C43_3 C44_3 1_555 1_555
Cu1_7 N1_4 1_555 1_555
N1_4 N2_4 1_555 1_555
N2_4 C2_4 1_555 1_555
C1_4 N1_4 1_555 1_555
H1_4 C1_4 1_555 1_555
N3_4 C1_4 1_555 1_555
N4_4 Cu1_7 1_555 1_555
N5_4 N4_4 1_555 1_555
C3_4 N4_4 1_555 1_555
H3_4 C3_4 1_555 1_555
N23 C3_4 1_555 1_555
N7_4 Cu1_7 1_555 1_555
C5_4 N7_4 1_555 1_555
H5_4 C5_4 1_555 1_555
Mn1_4 N3_4 1_555 1_555
N10_4 Mn1_4 1_555 1_555
C7_4 N10_4 1_555 1_555
H8_3 C7_4 1_555 1_555
C8_4 C7_4 1_555 1_555
C9_4 C8_4 1_555 1_555
H9_3 C9_4 1_555 1_555
C10_4 C9_4 1_555 1_555
H10_4 C10_4 1_555 1_555
C11_4 C10_4 1_555 1_555
H11_4 C11_4 1_555 1_555
C12_4 C11_4 1_555 1_555
H12_4 C12_4 1_555 1_555
C13_4 C8_4 1_555 1_555
O1_4 Mn1_4 1_555 1_555
N11_4 Mn1_4 1_555 1_555
C14_4 N11_4 1_555 1_555
H13_4 C14_4 1_555 1_555
C15_4 C14_4 1_555 1_555
C21_4 N10_4 1_555 1_555
H18_4 C21_4 1_555 1_555
H19_3 C21_4 1_555 1_555
C22_4 N11_4 1_555 1_555
H20_4 C22_4 1_555 1_555
H21_4 C22_4 1_555 1_555
N12_4 Cu1_7 1_555 1_555
N13_4 N12_4 1_555 1_555
C23_4 N12_4 1_555 1_555
H22_4 C23_4 1_555 1_555
C24_4 N13_4 1_555 1_555
H23_3 C24_4 1_555 1_555
N14_4 C23_4 1_555 1_555
N15_4 Cu1_7 1_555 1_555
N16_4 N15_4 1_555 1_555
C25_4 N15_4 1_555 1_555
H24_4 C25_4 1_555 1_555
C26_3 N16_4 1_555 1_555
H25_3 C26_3 1_555 1_555
N17_4 C25_4 1_555 1_555
N18_4 Cu1_7 1_555 1_555
N19_3 N18_4 1_555 1_555
C27_4 N18_4 1_555 1_555
H26_4 C27_4 1_555 1_555
C28_3 N19_3 1_555 1_555
H27_3 C28_3 1_555 1_555
N20_3 C27_4 1_555 1_555
B2_3 N13_4 1_555 1_555
H28_3 B2_3 1_555 1_555
Mn4_2 N14_4 1_555 1_555
N21_4 Mn4_2 1_555 1_555
C29_4 N21_4 1_555 1_555
C30_4 C29_4 1_555 1_555
C31_4 C30_4 1_555 1_555
C32_4 C31_4 1_555 1_555
H31_4 C32_4 1_555 1_555
C33_4 C32_4 1_555 1_555
H32_4 C33_4 1_555 1_555
C34_4 C33_4 1_555 1_555
H33_4 C34_4 1_555 1_555
C35_4 C30_4 1_555 1_555
O3_4 Mn4_2 1_555 1_555
N22_4 Mn4_2 1_555 1_555
C36_4 N22_4 1_555 1_555
H34_4 C36_4 1_555 1_555
C37_4 C36_4 1_555 1_555
C38_3 C37_4 1_555 1_555
H35_4 C38_3 1_555 1_555
C39_3 C38_3 1_555 1_555
H36_3 C39_3 1_555 1_555
C40_2 C39_3 1_555 1_555
H37_2 C40_2 1_555 1_555
C41_3 C40_2 1_555 1_555
H38_3 C41_3 1_555 1_555
C42_3 C37_4 1_555 1_555
O4_3 Mn4_2 1_555 1_555
C43_4 N21_4 1_555 1_555
H39_4 C43_4 1_555 1_555
C44_4 N22_4 1_555 1_555
H41_4 C44_4 1_555 1_555
H42_4 C44_4 1_555 1_555
N24_4 Mn1_4 1_555 1_555
Mn3_4 N17_4 1_555 1_555
C2_4 N3_4 1_555 1_555
C12_4 C13_4 1_555 1_555
C13_4 O1_4 1_555 1_555
C21_4 C22_4 1_555 1_555
C24_4 N14_4 1_555 1_555
N16_4 B2_3 1_555 1_555
C26_3 N17_4 1_555 1_555
N19_3 B2_3 1_555 1_555
C28_3 N20_3 1_555 1_555
C34_4 C35_4 1_555 1_555
C35_4 O3_4 1_555 1_555
C41_3 C42_3 1_555 1_555
C42_3 O4_3 1_555 1_555
C43_4 C44_4 1_555 1_555
N7_5 Cu1_8 1_555 1_555
N8_4 N7_5 1_555 1_555
C5_5 N7_5 1_555 1_555
H5_5 C5_5 1_555 1_555
C6_4 N8_4 1_555 1_555
H6_4 C6_4 1_555 1_555
N9_4 C5_5 1_555 1_555
N12_5 Cu1_8 1_555 1_555
N13_5 N12_5 1_555 1_555
C23_5 N12_5 1_555 1_555
H22_5 C23_5 1_555 1_555
C24_5 N13_5 1_555 1_555
H23_4 C24_5 1_555 1_555
N14_5 C23_5 1_555 1_555
N15_5 Cu1_8 1_555 1_555
N16_5 N15_5 1_555 1_555
C25_5 N15_5 1_555 1_555
H24_5 C25_5 1_555 1_555
C26_4 N16_5 1_555 1_555
H25_4 C26_4 1_555 1_555
N24_3 C25_5 1_555 1_555
B2_4 N13_5 1_555 1_555
H28_4 B2_4 1_555 1_555
Mn2_3 N14_5 1_555 1_555
N21_5 Mn2_3 1_555 1_555
C29_5 N21_5 1_555 1_555
H29_4 C29_5 1_555 1_555
C30_5 C29_5 1_555 1_555
C31_5 C30_5 1_555 1_555
H30_4 C31_5 1_555 1_555
C32_5 C31_5 1_555 1_555
H31_5 C32_5 1_555 1_555
C33_5 C32_5 1_555 1_555
H32_5 C33_5 1_555 1_555
C34_5 C33_5 1_555 1_555
H33_5 C34_5 1_555 1_555
C35_5 C30_5 1_555 1_555
O3_5 Mn2_3 1_555 1_555
N22_5 Mn2_3 1_555 1_555
C36_5 N22_5 1_555 1_555
H34_5 C36_5 1_555 1_555
C37_5 C36_5 1_555 1_555
C38_4 C37_5 1_555 1_555
H35_5 C38_4 1_555 1_555
C39_4 C38_4 1_555 1_555
H36_4 C39_4 1_555 1_555
H38_4 C41_4 1_555 1_555
C42_4 C37_5 1_555 1_555
O4_4 Mn2_3 1_555 1_555
C43_5 N21_5 1_555 1_555
H39_5 C43_5 1_555 1_555
H40_4 C43_5 1_555 1_555
C44_5 N22_5 1_555 1_555
H41_5 C44_5 1_555 1_555
H42_5 C44_5 1_555 1_555
N23_3 Mn2_3 1_555 1_555
C6_4 N9_4 1_555 1_555
C24_5 N14_5 1_555 1_555
N16_5 B2_4 1_555 1_555
C26_4 N24_3 1_555 1_555
C34_5 C35_5 1_555 1_555
C35_5 O3_5 1_555 1_555
C41_4 C42_4 1_555 1_555
C42_4 O4_4 1_555 1_555
C43_5 C44_5 1_555 1_555
Cu1_9 N1_5 1_555 1_555
N1_5 N2_5 1_555 1_555
N2_5 C2_5 1_555 1_555
C1_5 N1_5 1_555 1_555
H1_5 C1_5 1_555 1_555
C2_5 H2_4 1_555 1_555
N3_5 C1_5 1_555 1_555
N4_5 Cu1_9 1_555 1_555
N5_5 N4_5 1_555 1_555
C3_5 N4_5 1_555 1_555
H3_5 C3_5 1_555 1_555
C4_4 N5_5 1_555 1_555
H4_4 C4_4 1_555 1_555
N6_3 C3_5 1_555 1_555
B1_4 N2_5 1_555 1_555
H7_4 B1_4 1_555 1_555
Mn3_4 N3_5 1_555 1_555
N10_5 Mn3_4 1_555 1_555
C7_5 N10_5 1_555 1_555
H8_4 C7_5 1_555 1_555
C8_5 C7_5 1_555 1_555
C9_5 C8_5 1_555 1_555
H9_4 C9_5 1_555 1_555
C10_5 C9_5 1_555 1_555
H10_5 C10_5 1_555 1_555
C11_5 C10_5 1_555 1_555
H11_5 C11_5 1_555 1_555
C12_5 C11_5 1_555 1_555
H12_5 C12_5 1_555 1_555
C13_5 C8_5 1_555 1_555
O1_5 Mn3_4 1_555 1_555
N11_5 Mn3_4 1_555 1_555
C14_5 N11_5 1_555 1_555
H13_5 C14_5 1_555 1_555
C15_5 C14_5 1_555 1_555
C16_4 C15_5 1_555 1_555
H14_3 C16_4 1_555 1_555
C17_4 C16_4 1_555 1_555
H15_3 C17_4 1_555 1_555
H17_4 C19_4 1_555 1_555
C20_4 C15_5 1_555 1_555
O2_4 Mn3_4 1_555 1_555
C21_5 N10_5 1_555 1_555
H18_5 C21_5 1_555 1_555
H19_4 C21_5 1_555 1_555
C22_5 N11_5 1_555 1_555
H20_5 C22_5 1_555 1_555
H21_5 C22_5 1_555 1_555
N18_5 Cu1_9 1_555 1_555
N19_4 N18_5 1_555 1_555
C27_5 N18_5 1_555 1_555
H26_5 C27_5 1_555 1_555
C28_4 N19_4 1_555 1_555
H27_4 C28_4 1_555 1_555
N20_4 C27_5 1_555 1_555
Mn4_3 N6_3 1_555 1_555
C2_5 N3_5 1_555 1_555
N5_5 B1_4 1_555 1_555
C4_4 N6_3 1_555 1_555
C12_5 C13_5 1_555 1_555
C13_5 O1_5 1_555 1_555
C19_4 C20_4 1_555 1_555
C20_4 O2_4 1_555 1_555
C21_5 C22_5 1_555 1_555
C28_4 N20_4 1_555 1_555
Cu1_10 N1_6 1_555 1_555
N1_6 N2_6 1_555 1_555
N2_6 C2_6 1_555 1_555
C1_6 N1_6 1_555 1_555
C2_6 H2_5 1_555 1_555
N3_6 C1_6 1_555 1_555
B1_5 N2_6 1_555 1_555
H7_5 B1_5 1_555 1_555
Mn3_3 N3_6 1_555 1_555
H12_6 C12_6 1_555 1_555
O1_6 Mn3_3 1_555 1_555
N11_6 Mn3_3 1_555 1_555
C14_6 N11_6 1_555 1_555
H13_6 C14_6 1_555 1_555
C15_6 C14_6 1_555 1_555
C16_5 C15_6 1_555 1_555
H14_4 C16_5 1_555 1_555
C17_5 C16_5 1_555 1_555
H15_4 C17_5 1_555 1_555
C18_3 C17_5 1_555 1_555
H16_3 C18_3 1_555 1_555
C19_5 C18_3 1_555 1_555
H17_5 C19_5 1_555 1_555
C20_5 C15_6 1_555 1_555
O2_5 Mn3_3 1_555 1_555
C2_6 N3_6 1_555 1_555
C12_6 C13_6 1_555 1_555
C13_6 O1_6 1_555 1_555
C19_5 C20_5 1_555 1_555
C20_5 O2_5 1_555 1_555
N15_6 Cu1_11 1_555 1_555
N16_6 N15_6 1_555 1_555
C25_6 N15_6 1_555 1_555
H24_6 C25_6 1_555 1_555
C26_5 N16_6 1_555 1_555
H25_5 C26_5 1_555 1_555
N24_4 C25_6 1_555 1_555
H32_6 C33_6 1_555 1_555
C26_5 N24_4 1_555 1_555
N4_6 Cu1_12 1_555 1_555
N5_6 N4_6 1_555 1_555
C3_6 N4_6 1_555 1_555
H3_6 C3_6 1_555 1_555
C4_5 N5_6 1_555 1_555
H4_5 C4_5 1_555 1_555
N6_4 C3_6 1_555 1_555
H11_6 C11_6 1_555 1_555
Mn4_4 N6_4 1_555 1_555
C4_5 N6_4 1_555 1_555
N12_6 Cu1_13 1_555 1_555
N13_6 N12_6 1_555 1_555
C23_6 N12_6 1_555 1_555
C24_6 N13_6 1_555 1_555
H23_5 C24_6 1_555 1_555
N14_6 C23_6 1_555 1_555
B2_5 N13_6 1_555 1_555
H28_5 B2_5 1_555 1_555
Mn2_4 N14_6 1_555 1_555
H33_6 C34_6 1_555 1_555
O3_6 Mn2_4 1_555 1_555
N22_6 Mn2_4 1_555 1_555
C36_6 N22_6 1_555 1_555
H34_6 C36_6 1_555 1_555
C37_6 C36_6 1_555 1_555
C38_5 C37_6 1_555 1_555
H35_6 C38_5 1_555 1_555
C39_5 C38_5 1_555 1_555
H36_5 C39_5 1_555 1_555
C40_3 C39_5 1_555 1_555
H37_3 C40_3 1_555 1_555
C41_5 C40_3 1_555 1_555
H38_5 C41_5 1_555 1_555
C42_5 C37_6 1_555 1_555
O4_5 Mn2_4 1_555 1_555
N23_4 Mn2_4 1_555 1_555
C24_6 N14_6 1_555 1_555
C34_6 C35_6 1_555 1_555
C35_6 O3_6 1_555 1_555
C41_5 C42_5 1_555 1_555
C42_5 O4_5 1_555 1_555
Cu1_14 N1_7 1_555 1_555
N1_7 N2_7 1_555 1_555
N2_7 C2_7 1_555 1_555
C1_7 N1_7 1_555 1_555
H1_6 C1_7 1_555 1_555
N3_7 C1_7 1_555 1_555
N4_7 Cu1_14 1_555 1_555
N5_7 N4_7 1_555 1_555
C3_7 N4_7 1_555 1_555
H3_7 C3_7 1_555 1_555
N23_4 C3_7 1_555 1_555
N7_6 Cu1_14 1_555 1_555
C5_6 N7_6 1_555 1_555
H5_6 C5_6 1_555 1_555
Mn3 N3_7 1_555 1_555
N10_6 Mn3 1_555 1_555
C7_6 N10_6 1_555 1_555
H8_5 C7_6 1_555 1_555
C8_6 C7_6 1_555 1_555
C9_6 C8_6 1_555 1_555
H9_5 C9_6 1_555 1_555
C10_6 C9_6 1_555 1_555
H10_6 C10_6 1_555 1_555
C11_7 C10_6 1_555 1_555
H11_7 C11_7 1_555 1_555
C12_7 C11_7 1_555 1_555
H12_7 C12_7 1_555 1_555
C13_7 C8_6 1_555 1_555
O1_7 Mn3 1_555 1_555
N11_7 Mn3 1_555 1_555
C14_7 N11_7 1_555 1_555
H13_7 C14_7 1_555 1_555
C15_7 C14_7 1_555 1_555
C21_6 N10_6 1_555 1_555
H18_6 C21_6 1_555 1_555
H19_5 C21_6 1_555 1_555
C22_6 N11_7 1_555 1_555
H20_6 C22_6 1_555 1_555
H21_6 C22_6 1_555 1_555
N12_7 Cu1_14 1_555 1_555
N13_7 N12_7 1_555 1_555
C23_7 N12_7 1_555 1_555
H22_6 C23_7 1_555 1_555
C24_7 N13_7 1_555 1_555
H23_6 C24_7 1_555 1_555
N14_7 C23_7 1_555 1_555
N15_7 Cu1_14 1_555 1_555
N16_7 N15_7 1_555 1_555
C25_7 N15_7 1_555 1_555
H24_7 C25_7 1_555 1_555
C26_6 N16_7 1_555 1_555
H25_6 C26_6 1_555 1_555
N24_2 C25_7 1_555 1_555
N18_6 Cu1_14 1_555 1_555
N19_5 N18_6 1_555 1_555
C27_6 N18_6 1_555 1_555
H26_6 C27_6 1_555 1_555
C28_5 N19_5 1_555 1_555
H27_5 C28_5 1_555 1_555
N20_5 C27_6 1_555 1_555
B2_6 N13_7 1_555 1_555
H28_6 B2_6 1_555 1_555
Mn4_3 N14_7 1_555 1_555
N21_6 Mn4_3 1_555 1_555
C29_6 N21_6 1_555 1_555
C30_6 C29_6 1_555 1_555
C31_6 C30_6 1_555 1_555
C32_6 C31_6 1_555 1_555
H31_6 C32_6 1_555 1_555
C33_7 C32_6 1_555 1_555
H32_7 C33_7 1_555 1_555
C34_7 C33_7 1_555 1_555
H33_7 C34_7 1_555 1_555
C35_7 C30_6 1_555 1_555
O3_7 Mn4_3 1_555 1_555
N22_7 Mn4_3 1_555 1_555
C36_7 N22_7 1_555 1_555
H34_7 C36_7 1_555 1_555
C37_7 C36_7 1_555 1_555
C38_6 C37_7 1_555 1_555
C39_6 C38_6 1_555 1_555
C40_4 C39_6 1_555 1_555
H37_4 C40_4 1_555 1_555
C41_6 C40_4 1_555 1_555
H38_6 C41_6 1_555 1_555
C42_6 C37_7 1_555 1_555
O4_6 Mn4_3 1_555 1_555
C43_6 N21_6 1_555 1_555
H39_6 C43_6 1_555 1_555
C44_6 N22_7 1_555 1_555
H41_6 C44_6 1_555 1_555
H42_6 C44_6 1_555 1_555
C2_7 N3_7 1_555 1_555
C12_7 C13_7 1_555 1_555
C13_7 O1_7 1_555 1_555
C21_6 C22_6 1_555 1_555
C24_7 N14_7 1_555 1_555
N16_7 B2_6 1_555 1_555
C26_6 N24_2 1_555 1_555
N19_5 B2_6 1_555 1_555
C28_5 N20_5 1_555 1_555
C34_7 C35_7 1_555 1_555
C35_7 O3_7 1_555 1_555
C41_6 C42_6 1_555 1_555
C42_6 O4_6 1_555 1_555
C43_6 C44_6 1_555 1_555
Cu1_15 N1_8 1_555 1_555
N1_8 N2_8 1_555 1_555
N2_8 C2_8 1_555 1_555
C1_8 N1_8 1_555 1_555
H1_7 C1_8 1_555 1_555
C2_8 H2_6 1_555 1_555
N3_8 C1_8 1_555 1_555
N4_8 Cu1_15 1_555 1_555
N5_8 N4_8 1_555 1_555
C3_8 N4_8 1_555 1_555
H3_8 C3_8 1_555 1_555
C4_6 N5_8 1_555 1_555
H4_6 C4_6 1_555 1_555
N23_3 C3_8 1_555 1_555
N7_7 Cu1_15 1_555 1_555
N8_5 N7_7 1_555 1_555
C5_7 N7_7 1_555 1_555
H5_7 C5_7 1_555 1_555
C6_5 N8_5 1_555 1_555
H6_5 C6_5 1_555 1_555
N9_5 C5_7 1_555 1_555
B1_6 N2_8 1_555 1_555
H7_6 B1_6 1_555 1_555
Mn3_2 N3_8 1_555 1_555
N10_7 Mn3_2 1_555 1_555
C7_7 N10_7 1_555 1_555
C8_7 C7_7 1_555 1_555
C9_7 C8_7 1_555 1_555
C10_7 C9_7 1_555 1_555
H10_7 C10_7 1_555 1_555
C11_8 C10_7 1_555 1_555
H11_8 C11_8 1_555 1_555
C12_8 C11_8 1_555 1_555
H12_8 C12_8 1_555 1_555
C13_8 C8_7 1_555 1_555
O1_8 Mn3_2 1_555 1_555
N11_8 Mn3_2 1_555 1_555
C14_8 N11_8 1_555 1_555
H13_8 C14_8 1_555 1_555
C15_8 C14_8 1_555 1_555
C16_6 C15_8 1_555 1_555
H14_6 C16_6 1_555 1_555
C17_6 C16_6 1_555 1_555
H15_5 C17_6 1_555 1_555
C18_4 C17_6 1_555 1_555
H16_4 C18_4 1_555 1_555
C19_6 C18_4 1_555 1_555
H17_6 C19_6 1_555 1_555
C20_6 C15_8 1_555 1_555
O2_6 Mn3_2 1_555 1_555
C21_7 N10_7 1_555 1_555
H18_7 C21_7 1_555 1_555
C22_7 N11_8 1_555 1_555
H20_7 C22_7 1_555 1_555
H21_7 C22_7 1_555 1_555
N12_8 Cu1_15 1_555 1_555
N13_8 N12_8 1_555 1_555
C23_8 N12_8 1_555 1_555
H22_7 C23_8 1_555 1_555
C24_8 N13_8 1_555 1_555
N14_8 C23_8 1_555 1_555
N15_8 Cu1_15 1_555 1_555
N16_8 N15_8 1_555 1_555
C25_8 N15_8 1_555 1_555
H24_8 C25_8 1_555 1_555
N24 C25_8 1_555 1_555
N18_7 Cu1_15 1_555 1_555
C27_7 N18_7 1_555 1_555
H26_7 C27_7 1_555 1_555
Mn4_4 N14_8 1_555 1_555
N21_7 Mn4_4 1_555 1_555
C29_7 N21_7 1_555 1_555
H29_5 C29_7 1_555 1_555
C30_7 C29_7 1_555 1_555
C31_7 C30_7 1_555 1_555
H30_5 C31_7 1_555 1_555
C32_7 C31_7 1_555 1_555
H31_7 C32_7 1_555 1_555
C33_8 C32_7 1_555 1_555
H32_8 C33_8 1_555 1_555
C34_8 C33_8 1_555 1_555
H33_8 C34_8 1_555 1_555
C35_8 C30_7 1_555 1_555
O3_8 Mn4_4 1_555 1_555
N22_8 Mn4_4 1_555 1_555
C36_8 N22_8 1_555 1_555
H34_8 C36_8 1_555 1_555
C37_8 C36_8 1_555 1_555
C43_7 N21_7 1_555 1_555
H39_7 C43_7 1_555 1_555
H40_5 C43_7 1_555 1_555
C44_7 N22_8 1_555 1_555
H41_7 C44_7 1_555 1_555
H42_7 C44_7 1_555 1_555
C2_8 N3_8 1_555 1_555
N5_8 B1_6 1_555 1_555
C4_6 N23_3 1_555 1_555
N8_5 B1_6 1_555 1_555
C6_5 N9_5 1_555 1_555
C12_8 C13_8 1_555 1_555
C13_8 O1_8 1_555 1_555
C19_6 C20_6 1_555 1_555
C20_6 O2_6 1_555 1_555
C21_7 C22_7 1_555 1_555
C24_8 N14_8 1_555 1_555
C34_8 C35_8 1_555 1_555
C35_8 O3_8 1_555 1_555
C43_7 C44_7 1_555 1_555
H16_5 C18_5 1_555 1_555
H37_5 C40_5 1_555 1_555
H25_7 C26_7 1_555 1_555
C28_6 N19_6 1_555 1_555
H27_6 C28_6 1_555 1_555
H28_7 B2_7 1_555 1_555
C39_7 C38_7 1_555 1_555
H36_6 C39_7 1_555 1_555
C40_6 C39_7 1_555 1_555
H37_6 C40_6 1_555 1_555
C41_7 C40_6 1_555 1_555
H38_7 C41_7 1_555 1_555
N19_6 B2_7 1_555 1_555
C28_6 N20_6 1_555 1_555
C41_7 C42_7 1_555 1_555
C42_7 O4_7 1_555 1_555
H4_7 C4_7 1_555 1_555
C6_6 N8_6 1_555 1_555
H6_6 C6_6 1_555 1_555
H7_7 B1_7 1_555 1_555
C17_7 C16_7 1_555 1_555
C18_6 C17_7 1_555 1_555
H16_6 C18_6 1_555 1_555
C19_7 C18_6 1_555 1_555
H17_7 C19_7 1_555 1_555
N8_6 B1_7 1_555 1_555
C6_6 N9_6 1_555 1_555
C19_7 C20_7 1_555 1_555
C20_7 O2_7 1_555 1_555
H37_7 C40_7 1_555 1_555
H16_7 C18_7 1_555 1_555
C7_8 N10_8 1_555 1_555
H8_7 C7_8 1_555 1_555
C8_8 C7_8 1_555 1_555
C9_8 C8_8 1_555 1_555
H9_7 C9_8 1_555 1_555
C21_8 N10_8 1_555 1_555
H18_8 C21_8 1_555 1_555
H19_7 C21_8 1_555 1_555
H20_8 C22_8 1_555 1_555
H21_8 C22_8 1_555 1_555
C21_8 C22_8 1_555 1_555
N7_8 Cu1_17 1_555 1_555
N8_7 N7_8 1_555 1_555
C5_8 N7_8 1_555 1_555
H5_8 C5_8 1_555 1_555
C6_7 N8_7 1_555 1_555
H6_7 C6_7 1_555 1_555
N9_7 C5_8 1_555 1_555
H31_8 C32_8 1_555 1_555
C6_7 N9_7 1_555 1_555
H10_8 C10_8 1_555 1_555
N18_8 Cu1_18 1_555 1_555
N19_7 N18_8 1_555 1_555
C27_8 N18_8 1_555 1_555
H26_8 C27_8 1_555 1_555
C28_7 N19_7 1_555 1_555
H27_7 C28_7 1_555 1_555
N20_7 C27_8 1_555 1_555
C28_7 N20_7 1_555 1_555
C29_8 N21_8 1_555 1_555
H29_7 C29_8 1_555 1_555
C30_8 C29_8 1_555 1_555
C31_8 C30_8 1_555 1_555
H30_7 C31_8 1_555 1_555
C43_8 N21_8 1_555 1_555
H39_8 C43_8 1_555 1_555
H40_7 C43_8 1_555 1_555
H41_8 C44_8 1_555 1_555
H42_8 C44_8 1_555 1_555
C43_8 C44_8 1_555 1_555
H4_8 C4_8 1_555 1_555
C6_8 N8_8 1_555 1_555
H6_8 C6_8 1_555 1_555
H7_8 B1_8 1_555 1_555
C17_8 C16_8 1_555 1_555
H15_8 C17_8 1_555 1_555
C18_8 C17_8 1_555 1_555
H16_8 C18_8 1_555 1_555
C19_8 C18_8 1_555 1_555
H17_8 C19_8 1_555 1_555
N8_8 B1_8 1_555 1_555
C6_8 N9_8 1_555 1_555
C19_8 C20_8 1_555 1_555
C20_8 O2_8 1_555 1_555
H25_8 C26_8 1_555 1_555
C28_8 N19_8 1_555 1_555
H27_8 C28_8 1_555 1_555
H28_8 B2_8 1_555 1_555
C39_8 C38_8 1_555 1_555
C40_8 C39_8 1_555 1_555
H37_8 C40_8 1_555 1_555
C41_8 C40_8 1_555 1_555
H38_8 C41_8 1_555 1_555
N19_8 B2_8 1_555 1_555
C28_8 N20_8 1_555 1_555
C41_8 C42_8 1_555 1_555
C42_8 O4_8 1_555 1_555
Cl1 O5 1_555 1_555
O6 Cl1 1_555 1_555
O7 Cl1 1_555 1_555
O8 Cl1 1_555 1_555
O6_2 Cl1_2 1_555 1_555
O7_2 Cl1_2 1_555 1_555
O8_2 Cl1_2 1_555 1_555
Cl1_3 O5_3 1_555 1_555
O6_3 Cl1_3 1_555 1_555
O7_3 Cl1_3 1_555 1_555
O8_3 Cl1_3 1_555 1_555
Cl1_4 O5_4 1_555 1_555
O6_4 Cl1_4 1_555 1_555
O7_4 Cl1_4 1_555 1_555
O8_4 Cl1_4 1_555 1_555
O7_5 Cl1_5 1_555 1_555
O8_5 Cl1_5 1_555 1_555
Cl1_6 O5_6 1_555 1_555
O7_6 Cl1_6 1_555 1_555
O8_6 Cl1_6 1_555 1_555
Cl1_7 O5_7 1_555 1_555
O6_7 Cl1_7 1_555 1_555
O7_7 Cl1_7 1_555 1_555
O8_7 Cl1_7 1_555 1_555
Cl1_8 O5_8 1_555 1_555
O6_8 Cl1_8 1_555 1_555
O7_8 Cl1_8 1_555 1_555
O8_8 Cl1_8 1_555 1_555
Cl1_9 O5_9 1_555 1_555
O6_9 Cl1_9 1_555 1_555
O7_9 Cl1_9 1_555 1_555
O8_9 Cl1_9 1_555 1_555
O6_10 Cl1_10 1_555 1_555
O7_10 Cl1_10 1_555 1_555
O8_10 Cl1_10 1_555 1_555
Cl1_11 O5_11 1_555 1_555
O6_11 Cl1_11 1_555 1_555
O7_11 Cl1_11 1_555 1_555
O8_11 Cl1_11 1_555 1_555
Cl1_12 O5_12 1_555 1_555
O6_12 Cl1_12 1_555 1_555
O7_12 Cl1_12 1_555 1_555
O8_12 Cl1_12 1_555 1_555
O7_13 Cl1_13 1_555 1_555
O8_13 Cl1_13 1_555 1_555
Cl1_14 O5_14 1_555 1_555
O7_14 Cl1_14 1_555 1_555
O8_14 Cl1_14 1_555 1_555
Cl1_15 O5_15 1_555 1_555
O6_15 Cl1_15 1_555 1_555
O7_15 Cl1_15 1_555 1_555
O8_15 Cl1_15 1_555 1_555
Cl1_16 O5_16 1_555 1_555
O6_16 Cl1_16 1_555 1_555
O7_16 Cl1_16 1_555 1_555
O8_16 Cl1_16 1_555 1_555

#END
