
###############################################################################
#
# This file contains modified crystal structure data generated from the
# MOF subset of the Cambridge Structural Database (CSD) v543 
# hosted by the Cambridge Crystallographic Data Centre (CCDC).
#
# This work is licensed under the Creative Commons
# Attribution-NonCommercial-ShareAlike 4.0 International License.
# To view a copy of this license, visit
# http://creativecommons.org/licenses/by-nc-sa/4.0/
# or send a letter to
# Creative Commons, PO Box 1866, Mountain View, CA 94042, USA.
#
# CIF created using the CSD Python API on 29 September 2022
# The structure has been converted into the P1 space group
# The structure has a 3D framework
# The original CSD entry YOGHAF is in the orthorhombic crystal system
# The framework has been calculated to contain at least 10.0% void space
# The void calculation uses a probe of radius 1.32A, grid spacing 0.4
# H atom positions have been added when not included in the experimental data
#
###############################################################################

data_YOGHAF
_chemical_formula_moiety         '(C544 H352 Cu16 N64 O124 Zn32)n'
_symmetry_cell_setting           triclinic
_symmetry_space_group_name_H-M   'P 1'
_symmetry_Int_Tables_number      1
_space_group_name_Hall           'P 1'
loop_
_symmetry_equiv_pos_site_id
_symmetry_equiv_pos_as_xyz
1 x,y,z
_cell_length_a                   28.1305(9)
_cell_length_b                   26.1877(8)
_cell_length_c                   28.1745(17)
_cell_angle_alpha                90
_cell_angle_beta                 90
_cell_angle_gamma                90
_cell_volume                     20755.4
loop_
_atom_site_label
_atom_site_type_symbol
_atom_site_fract_x
_atom_site_fract_y
_atom_site_fract_z
Zn1 Zn 0.19523(3) 0.45826(3) 0.00747(4)
Zn2 Zn 0.23565(3) 0.54651(3) 0.05430(4)
O1 O 0.2500 0.5030(2) 0.0000
O2 O 0.16753(18) 0.56746(19) 0.0429(2)
O3 O 0.1354(2) 0.49782(19) 0.0090(3)
C4 C 0.1346(3) 0.5439(3) 0.0210(3)
C6 C 0.0890(3) 0.5706(3) 0.0128(4)
C8 C 0.0798(3) 0.6183(3) 0.0337(4)
H1 H 0.1021 0.6327 0.0552
C22 C 0.0373(3) 0.6450(4) 0.0229(4)
H10 H 0.0320 0.6785 0.0347
H39 H 0.1637 0.7593 0.0128
O20 O 0.2655(2) 0.6118(2) 0.0525(2)
O22 O 0.2292(2) 0.50647(19) 0.1118(2)
O24 O 0.20056(19) 0.4360(2) 0.0760(2)
H43 H 0.0523728 0.79885 0.0169789
Cu1 Cu 0.0000 0.7500 0.98014(7)
O1_2 O 0.2500 0.5030(2) 1.0000
O5 O 0.2004(2) 0.3926(2) 0.9763(3)
O7 O 0.20056(19) 0.0640(2) 0.5760(2)
C1 C 0.2174(4) 0.0398(3) 0.6137(4)
C7 C 0.2171(6) 0.2519(4) 0.8608(4)
C10 C 0.0035(3) 0.6205(3) 0.9943(5)
C11 C 0.2384(5) 0.2610(4) 0.9028(3)
H3 H 0.2564 0.2346 0.9173
C12 C 0.2207(4) 0.0676(3) 0.6570(3)
C13 C 0.2345(4) 0.3107(4) 0.9265(4)
H4 H 0.2527 0.3178 0.9541
C14 C 0.0540(4) 0.5485(3) 0.9845(7)
H5 H 0.0591 0.5150 0.9726
C15 C 0.2026(5) 0.1440(5) 0.7051(5)
H6 H 0.1872 0.1759 0.7101
C16 C 0.1958(3) 0.3941(4) 0.9331(4)
C17 C 0.2036(4) 0.3472(4) 0.9081(4)
C21 C 0.0132(3) 0.5725(3) 0.9732(6)
N3 N 0.2221(5) 0.2055(3) 0.8401(4)
C23 C 0.1997(4) 0.1183(3) 0.6607(3)
H11 H 0.1845 0.1337 0.6342
C24 C 0.1860(6) 0.3397(4) 0.8673(6)
H12 H 0.1686 0.3668 0.8531
C26 C 0.2458(6) 0.0483(4) 0.6920(4)
H14 H 0.2627 0.0173 0.6873
C27 C 0.2286(8) 0.1208(4) 0.7408(5)
C28 C 0.2479(10) 0.0743(5) 0.7388(6)
H15 H 0.2621 0.0587 0.7657
Cu2 Cu 0.2500 0.2500 0.7500
C29 C 0.2278(6) 0.1988(4) 0.7927(4)
C31 C 0.1906(7) 0.2922(4) 0.8408(6)
H17 H 0.1761 0.2885 0.8106
C32 C 0.2154(10) 0.1624(5) 0.8624(5)
H18 H 0.2064 0.1579 0.8946
O8 O 0.1811(4) 0.4325(3) 0.9133(3)
N4 N 0.2270(6) 0.1478(4) 0.7850(3)
C34 C 0.2241(12) 0.1258(5) 0.8299(6)
H20 H 0.2277 0.0904 0.8367
O12 O 0.2345(2) 0.6118(2) 0.9475(2)
C36 C 0.1167(3) 0.7499(3) 0.9618(3)
C37 C 0.0460(3) 0.8035(3) 0.9791(4)
N5 N 0.0404(3) 0.8541(3) 0.9847(4)
N6 N 0.0924(2) 0.7977(2) 0.9700(4)
C39 C 0.1632(3) 0.6623(3) 0.9459(3)
C43 C 0.1225(3) 0.6718(3) 0.9221(4)
H22 H 0.1109 0.6479 0.8995
C52 C 0.1792(4) 0.6923(4) 0.9788(5)
H27 H 0.2071 0.6840 0.9963
C53 C 0.0978(3) 0.7170(3) 0.9310(3)
H28 H 0.0685 0.7241 0.9156
C54 C 0.1899(4) 0.6112(3) 0.9326(4)
H29 H 0.0086 0.9424 0.9515
C59 C 0.0834(3) 0.8783(4) 0.9838(7)
H33 H 0.0889 0.9132 0.9912
C64 C 0.1153(4) 0.8455(4) 0.9711(7)
H36 H 0.1476 0.8523 0.9638
C67 C 0.1539(3) 0.7375(4) 0.9878(4)
O17 O 0.1726(3) 0.5751(3) 0.9158(6)
Zn5 Zn 0.30477(3) 0.45826(3) 0.99253(4)
Zn7 Zn 0.19523(3) 0.04174(3) 0.50747(4)
Zn8 Zn 0.26435(3) 0.54651(3) 0.94570(4)
C69 C 0.2722(6) 0.3012(4) 0.7073(4)
H42 H 0.19039 0.204455 0.784261
H19 H 0.8363 0.7407 0.0128
Zn4 Zn 0.76435(3) 0.95349(3) 0.05430(4)
O10 O 0.83247(18) 0.93254(19) 0.0429(2)
C38 C 0.8654(3) 0.9561(3) 0.0210(3)
C40 C 0.9110(3) 0.9294(3) 0.0128(4)
C42 C 0.9202(3) 0.8817(3) 0.0337(4)
H21 H 0.8979 0.8673 0.0552
C56 C 0.9627(3) 0.8550(4) 0.0229(4)
H30 H 0.9680 0.8215 0.0347
O18 O 0.7500 0.9970(2) 0.0000
O19 O 0.7345(2) 0.8882(2) 0.0525(2)
O21 O 0.7708(2) 0.99353(19) 0.1118(2)
H41 H 0.947627 0.70115 0.0169789
Cu1_2 Cu 1.0000 0.7500 0.98014(7)
O4 O 0.7655(2) 0.8882(2) 0.9475(2)
C2 C 0.8833(3) 0.7501(3) 0.9618(3)
C3 C 0.9540(3) 0.6965(3) 0.9791(4)
N1 N 0.9596(3) 0.6459(3) 0.9847(4)
N2 N 0.9076(2) 0.7023(2) 0.9700(4)
C5 C 0.8368(3) 0.8377(3) 0.9459(3)
C9 C 0.8775(3) 0.8282(3) 0.9221(4)
H2 H 0.8891 0.8521 0.8995
C18 C 0.8208(4) 0.8077(4) 0.9788(5)
H7 H 0.7929 0.8160 0.9963
C19 C 0.9022(3) 0.7830(3) 0.9310(3)
H8 H 0.9315 0.7759 0.9156
C20 C 0.8101(4) 0.8888(3) 0.9326(4)
H9 H 0.9914 0.5576 0.9515
C25 C 0.9166(3) 0.6217(4) 0.9838(7)
H13 H 0.9111 0.5868 0.9912
C30 C 0.8847(4) 0.6545(4) 0.9711(7)
H16 H 0.8524 0.6477 0.9638
C33 C 0.8461(3) 0.7625(4) 0.9878(4)
O9 O 0.8274(3) 0.9249(3) 0.9158(6)
C44 C 0.9965(3) 0.8795(3) 0.9943(5)
C48 C 0.9460(4) 0.9515(3) 0.9845(7)
H25 H 0.9409 0.9850 0.9726
C55 C 0.9868(3) 0.9275(3) 0.9732(6)
Zn9 Zn 0.73565(3) 0.95349(3) 0.94570(4)
O18_2 O 0.7500 0.9970(2) 1.0000
Cu1_3 Cu 0.5000 0.7500 0.01986(7)
O5_2 O 0.2996(2) 0.3926(2) 0.0237(3)
O7_2 O 0.29944(19) 0.0640(2) 0.4240(2)
C1_2 C 0.2826(4) 0.0398(3) 0.3863(4)
C2_2 C 0.6167(3) 0.7501(3) 0.0382(3)
C3_2 C 0.5460(3) 0.6965(3) 0.0209(4)
N1_2 N 0.5404(3) 0.6459(3) 0.0153(4)
N2_2 N 0.5924(2) 0.7023(2) 0.0300(4)
C5_2 C 0.6632(3) 0.8377(3) 0.0541(3)
C7_2 C 0.2829(6) 0.2519(4) 0.1392(4)
C9_2 C 0.6225(3) 0.8282(3) 0.0779(4)
H2_2 H 0.6109 0.8521 0.1005
C10_2 C 0.4965(3) 0.6205(3) 0.0057(5)
C11_2 C 0.2616(5) 0.2610(4) 0.0972(3)
H3_2 H 0.2436 0.2346 0.0827
C12_2 C 0.2793(4) 0.0676(3) 0.3430(3)
C13_2 C 0.2655(4) 0.3107(4) 0.0735(4)
H4_2 H 0.2473 0.3178 0.0459
C14_2 C 0.4460(4) 0.5485(3) 0.0155(7)
H5_2 H 0.4409 0.5150 0.0274
C15_2 C 0.2974(5) 0.1440(5) 0.2949(5)
H6_2 H 0.3128 0.1759 0.2899
C16_2 C 0.3042(3) 0.3941(4) 0.0669(4)
C17_2 C 0.2964(4) 0.3472(4) 0.0919(4)
C18_2 C 0.6792(4) 0.8077(4) 0.0212(5)
H7_2 H 0.7071 0.8160 0.0037
C19_2 C 0.5978(3) 0.7830(3) 0.0690(3)
H8_2 H 0.5685 0.7759 0.0844
C20_2 C 0.6899(4) 0.8888(3) 0.0674(4)
C21_2 C 0.4868(3) 0.5725(3) 0.0268(6)
H9_2 H 0.5086 0.5576 0.0485
N3_2 N 0.2779(5) 0.2055(3) 0.1599(4)
C23_2 C 0.3003(4) 0.1183(3) 0.3393(3)
H11_2 H 0.3155 0.1337 0.3658
C24_2 C 0.3140(6) 0.3397(4) 0.1327(6)
H12_2 H 0.3314 0.3668 0.1469
C25_2 C 0.5834(3) 0.6217(4) 0.0162(7)
H13_2 H 0.5889 0.5868 0.0088
C26_2 C 0.2542(6) 0.0483(4) 0.3080(4)
H14_2 H 0.2373 0.0173 0.3127
C27_2 C 0.2714(8) 0.1208(4) 0.2592(5)
C28_2 C 0.2521(10) 0.0743(5) 0.2612(6)
H15_2 H 0.2379 0.0587 0.2343
Cu2_2 Cu 0.2500 0.2500 0.2500
C29_2 C 0.2722(6) 0.1988(4) 0.2073(4)
C30_2 C 0.6153(4) 0.6545(4) 0.0289(7)
H16_2 H 0.6476 0.6477 0.0362
C31_2 C 0.3094(7) 0.2922(4) 0.1592(6)
H17_2 H 0.3239 0.2885 0.1894
C32_2 C 0.2846(10) 0.1624(5) 0.1376(5)
H18_2 H 0.2936 0.1579 0.1054
C33_2 C 0.6539(3) 0.7625(4) 0.0122(4)
O8_2 O 0.3189(4) 0.4325(3) 0.0867(3)
O9_2 O 0.6726(3) 0.9249(3) 0.0842(6)
N4_2 N 0.2730(6) 0.1478(4) 0.2150(3)
C34_2 C 0.2759(12) 0.1258(5) 0.1701(6)
H20_2 H 0.2723 0.0904 0.1633
C36_2 C 0.3833(3) 0.7499(3) 0.0382(3)
C37_2 C 0.4540(3) 0.8035(3) 0.0209(4)
N5_2 N 0.4596(3) 0.8541(3) 0.0153(4)
N6_2 N 0.4076(2) 0.7977(2) 0.0300(4)
C39_2 C 0.3368(3) 0.6623(3) 0.0541(3)
C43_2 C 0.3775(3) 0.6718(3) 0.0779(4)
H22_2 H 0.3891 0.6479 0.1005
C44_2 C 0.5035(3) 0.8795(3) 0.0057(5)
C48_2 C 0.5540(4) 0.9515(3) 0.0155(7)
H25_2 H 0.5591 0.9850 0.0274
C52_2 C 0.3208(4) 0.6923(4) 0.0212(5)
H27_2 H 0.2929 0.6840 0.0037
C53_2 C 0.4022(3) 0.7170(3) 0.0690(3)
H28_2 H 0.4315 0.7241 0.0844
C54_2 C 0.3101(4) 0.6112(3) 0.0674(4)
C55_2 C 0.5132(3) 0.9275(3) 0.0268(6)
H29_2 H 0.4914 0.9424 0.0485
C59_2 C 0.4166(3) 0.8783(4) 0.0162(7)
H33_2 H 0.4111 0.9132 0.0088
C64_2 C 0.3847(4) 0.8455(4) 0.0289(7)
H36_2 H 0.3524 0.8523 0.0362
C67_2 C 0.3461(3) 0.7375(4) 0.0122(4)
O17_2 O 0.3274(3) 0.5751(3) 0.0842(6)
Zn7_2 Zn 0.30477(3) 0.04174(3) 0.49253(4)
C69_2 C 0.2278(6) 0.3012(4) 0.2927(4)
H42_2 H 0.30961 0.204455 0.215739
O2_2 O 0.33247(18) 0.56746(19) 0.9571(2)
O3_2 O 0.3646(2) 0.49782(19) 0.9910(3)
C4_2 C 0.3654(3) 0.5439(3) 0.9790(3)
C6_2 C 0.4110(3) 0.5706(3) 0.9872(4)
C8_2 C 0.4202(3) 0.6183(3) 0.9663(4)
H1_2 H 0.3979 0.6327 0.9448
C22_2 C 0.4627(3) 0.6450(4) 0.9771(4)
H10_2 H 0.4680 0.6785 0.9653
H19_2 H 0.6637 0.7407 0.9872
O10_2 O 0.66753(18) 0.93254(19) 0.9571(2)
C38_2 C 0.6346(3) 0.9561(3) 0.9790(3)
C40_2 C 0.5890(3) 0.9294(3) 0.9872(4)
C42_2 C 0.5798(3) 0.8817(3) 0.9663(4)
H21_2 H 0.6021 0.8673 0.9448
C56_2 C 0.5373(3) 0.8550(4) 0.9771(4)
H30_2 H 0.5320 0.8215 0.9653
H39_2 H 0.3363 0.7593 0.9872
O21_2 O 0.7292(2) 0.99353(19) 0.8882(2)
O22_2 O 0.2708(2) 0.50647(19) 0.8882(2)
O24_2 O 0.29944(19) 0.4360(2) 0.9240(2)
H41_2 H 0.552373 0.70115 0.983021
H43_2 H 0.447627 0.79885 0.983021
O11 O 0.1354(2) 0.00218(19) 0.5090(3)
O13 O 0.2004(2) 0.1074(2) 0.4763(3)
C35 C 0.2174(4) 0.4602(3) 0.1137(4)
C41 C 0.2171(6) 0.2481(4) 0.3608(4)
C45 C 0.2384(5) 0.2390(4) 0.4028(3)
H23 H 0.2564 0.2654 0.4173
C46 C 0.2207(4) 0.4324(3) 0.1570(3)
C47 C 0.2345(4) 0.1893(4) 0.4265(4)
H24 H 0.2527 0.1822 0.4541
C49 C 0.2026(5) 0.3560(5) 0.2051(5)
H26 H 0.1872 0.3241 0.2101
C50 C 0.1958(3) 0.1059(4) 0.4331(4)
C51 C 0.2036(4) 0.1528(4) 0.4081(4)
N7 N 0.2221(5) 0.2945(3) 0.3401(4)
C57 C 0.1997(4) 0.3817(3) 0.1607(3)
H31 H 0.1845 0.3663 0.1342
C58 C 0.1860(6) 0.1603(4) 0.3673(6)
H32 H 0.1686 0.1332 0.3531
C60 C 0.2458(6) 0.4517(4) 0.1920(4)
H34 H 0.2627 0.4827 0.1873
C61 C 0.2286(8) 0.3792(4) 0.2408(5)
C62 C 0.2479(10) 0.4257(5) 0.2388(6)
H35 H 0.2621 0.4413 0.2657
C65 C 0.1906(7) 0.2078(4) 0.3408(6)
H37 H 0.1761 0.2115 0.3106
C66 C 0.2154(10) 0.3376(5) 0.3624(5)
H38 H 0.2064 0.3421 0.3946
O16 O 0.1811(4) 0.0675(3) 0.4133(3)
N8 N 0.2270(6) 0.3522(4) 0.2850(3)
C68 C 0.2241(12) 0.3742(5) 0.3299(6)
H40 H 0.2277 0.4096 0.3367
O3_3 O 0.3646(2) 0.00218(19) 0.4910(3)
O5_3 O 0.2996(2) 0.1074(2) 0.5237(3)
C1_3 C 0.2826(4) 0.4602(3) 0.8863(4)
C7_3 C 0.2829(6) 0.2481(4) 0.6392(4)
C11_3 C 0.2616(5) 0.2390(4) 0.5972(3)
H3_3 H 0.2436 0.2654 0.5827
C12_3 C 0.2793(4) 0.4324(3) 0.8430(3)
C13_3 C 0.2655(4) 0.1893(4) 0.5735(4)
H4_3 H 0.2473 0.1822 0.5459
C15_3 C 0.2974(5) 0.3560(5) 0.7949(5)
H6_3 H 0.3128 0.3241 0.7899
C16_3 C 0.3042(3) 0.1059(4) 0.5669(4)
C17_3 C 0.2964(4) 0.1528(4) 0.5919(4)
N3_3 N 0.2779(5) 0.2945(3) 0.6599(4)
C23_3 C 0.3003(4) 0.3817(3) 0.8393(3)
H11_3 H 0.3155 0.3663 0.8658
C24_3 C 0.3140(6) 0.1603(4) 0.6327(6)
H12_3 H 0.3314 0.1332 0.6469
C26_3 C 0.2542(6) 0.4517(4) 0.8080(4)
H14_3 H 0.2373 0.4827 0.8127
C27_3 C 0.2714(8) 0.3792(4) 0.7592(5)
C28_3 C 0.2521(10) 0.4257(5) 0.7612(6)
H15_3 H 0.2379 0.4413 0.7343
C31_3 C 0.3094(7) 0.2078(4) 0.6592(6)
H17_3 H 0.3239 0.2115 0.6894
C32_3 C 0.2846(10) 0.3376(5) 0.6376(5)
H18_3 H 0.2936 0.3421 0.6054
O8_3 O 0.3189(4) 0.0675(3) 0.5867(3)
N4_3 N 0.2730(6) 0.3522(4) 0.7150(3)
C34_3 C 0.2759(12) 0.3742(5) 0.6701(6)
H20_3 H 0.2723 0.4096 0.6633
H42_3 H 0.30961 0.295545 0.715739
H42_4 H 0.19039 0.295545 0.284261
O6 O 0.2292(2) 0.99353(19) 0.6118(2)
Zn11 Zn 0.23565(3) 0.95349(3) 0.55430(4)
Zn3 Zn 0.80477(3) 0.04174(3) 0.00747(4)
O11_2 O 0.8646(2) 0.00218(19) 0.0090(3)
O23 O 0.79944(19) 0.0640(2) 0.0760(2)
O13_2 O 0.7996(2) 0.1074(2) 0.9763(3)
O14 O 0.7708(2) 0.50647(19) 0.6118(2)
O15 O 0.79944(19) 0.4360(2) 0.5760(2)
C35_2 C 0.7826(4) 0.4602(3) 0.6137(4)
C41_2 C 0.7829(6) 0.2481(4) 0.8608(4)
C45_2 C 0.7616(5) 0.2390(4) 0.9028(3)
H23_2 H 0.7436 0.2654 0.9173
C46_2 C 0.7793(4) 0.4324(3) 0.6570(3)
C47_2 C 0.7655(4) 0.1893(4) 0.9265(4)
H24_2 H 0.7473 0.1822 0.9541
C49_2 C 0.7974(5) 0.3560(5) 0.7051(5)
H26_2 H 0.8128 0.3241 0.7101
C50_2 C 0.8042(3) 0.1059(4) 0.9331(4)
C51_2 C 0.7964(4) 0.1528(4) 0.9081(4)
N7_2 N 0.7779(5) 0.2945(3) 0.8401(4)
C57_2 C 0.8003(4) 0.3817(3) 0.6607(3)
H31_2 H 0.8155 0.3663 0.6342
C58_2 C 0.8140(6) 0.1603(4) 0.8673(6)
H32_2 H 0.8314 0.1332 0.8531
C60_2 C 0.7542(6) 0.4517(4) 0.6920(4)
H34_2 H 0.7373 0.4827 0.6873
C61_2 C 0.7714(8) 0.3792(4) 0.7408(5)
C62_2 C 0.7521(10) 0.4257(5) 0.7388(6)
H35_2 H 0.7379 0.4413 0.7657
C63 C 0.7722(6) 0.3012(4) 0.7927(4)
C65_2 C 0.8094(7) 0.2078(4) 0.8408(6)
H37_2 H 0.8239 0.2115 0.8106
C66_2 C 0.7846(10) 0.3376(5) 0.8624(5)
H38_2 H 0.7936 0.3421 0.8946
O16_2 O 0.8189(4) 0.0675(3) 0.9133(3)
N8_2 N 0.7730(6) 0.3522(4) 0.7850(3)
C68_2 C 0.7759(12) 0.3742(5) 0.8299(6)
H40_2 H 0.7723 0.4096 0.8367
Zn6 Zn 0.80477(3) 0.45826(3) 0.50747(4)
Zn10 Zn 0.76435(3) 0.54651(3) 0.55430(4)
Cu3 Cu 0.7500 0.2500 0.7500
Zn5_2 Zn 0.69523(3) 0.04174(3) 0.99253(4)
C69_3 C 0.7278(6) 0.1988(4) 0.7073(4)
H42_5 H 0.80961 0.295545 0.784261
O13_3 O 0.7004(2) 0.1074(2) 0.0237(3)
O14_2 O 0.7292(2) 0.50647(19) 0.3882(2)
O15_2 O 0.70056(19) 0.4360(2) 0.4240(2)
C35_3 C 0.7174(4) 0.4602(3) 0.3863(4)
C41_3 C 0.7171(6) 0.2481(4) 0.1392(4)
C45_3 C 0.7384(5) 0.2390(4) 0.0972(3)
H23_3 H 0.7564 0.2654 0.0827
C46_3 C 0.7207(4) 0.4324(3) 0.3430(3)
C47_3 C 0.7345(4) 0.1893(4) 0.0735(4)
H24_3 H 0.7527 0.1822 0.0459
C49_3 C 0.7026(5) 0.3560(5) 0.2949(5)
H26_3 H 0.6872 0.3241 0.2899
C50_3 C 0.6958(3) 0.1059(4) 0.0669(4)
C51_3 C 0.7036(4) 0.1528(4) 0.0919(4)
N7_3 N 0.7221(5) 0.2945(3) 0.1599(4)
C57_3 C 0.6997(4) 0.3817(3) 0.3393(3)
H31_3 H 0.6845 0.3663 0.3658
C58_3 C 0.6860(6) 0.1603(4) 0.1327(6)
H32_3 H 0.6686 0.1332 0.1469
C60_3 C 0.7458(6) 0.4517(4) 0.3080(4)
H34_3 H 0.7627 0.4827 0.3127
C61_3 C 0.7286(8) 0.3792(4) 0.2592(5)
C62_3 C 0.7479(10) 0.4257(5) 0.2612(6)
H35_3 H 0.7621 0.4413 0.2343
C63_2 C 0.7278(6) 0.3012(4) 0.2073(4)
C65_3 C 0.6906(7) 0.2078(4) 0.1592(6)
H37_3 H 0.6761 0.2115 0.1894
C66_3 C 0.7154(10) 0.3376(5) 0.1376(5)
H38_3 H 0.7064 0.3421 0.1054
O16_3 O 0.6811(4) 0.0675(3) 0.0867(3)
N8_3 N 0.7270(6) 0.3522(4) 0.2150(3)
C68_3 C 0.7241(12) 0.3742(5) 0.1701(6)
H40_3 H 0.7277 0.4096 0.1633
Zn6_2 Zn 0.69523(3) 0.45826(3) 0.49253(4)
Zn10_2 Zn 0.73565(3) 0.54651(3) 0.44570(4)
Cu3_2 Cu 0.7500 0.2500 0.2500
O11_3 O 0.6354(2) 0.00218(19) 0.9910(3)
O23_2 O 0.70056(19) 0.0640(2) 0.9240(2)
O6_2 O 0.2708(2) 0.99353(19) 0.3882(2)
Zn11_2 Zn 0.26435(3) 0.95349(3) 0.44570(4)
C69_4 C 0.7722(6) 0.1988(4) 0.2927(4)
H42_6 H 0.69039 0.295545 0.215739
Cu1_4 Cu -0.0000 0.7500 0.48014(7)
O4_2 O 0.2345(2) 0.8882(2) 0.4475(2)
C2_3 C 0.1167(3) 0.7501(3) 0.4618(3)
C3_3 C 0.0460(3) 0.6965(3) 0.4791(4)
N1_3 N 0.0404(3) 0.6459(3) 0.4847(4)
N2_3 N 0.0924(2) 0.7023(2) 0.4700(4)
C5_3 C 0.1632(3) 0.8377(3) 0.4459(3)
C9_3 C 0.1225(3) 0.8282(3) 0.4221(4)
H2_3 H 0.1109 0.8521 0.3995
C18_3 C 0.1792(4) 0.8077(4) 0.4788(5)
H7_3 H 0.2071 0.8160 0.4963
C19_3 C 0.0978(3) 0.7830(3) 0.4310(3)
H8_3 H 0.0685 0.7759 0.4156
C20_3 C 0.1899(4) 0.8888(3) 0.4326(4)
H9_3 H 0.0086 0.5576 0.4515
C25_3 C 0.0834(3) 0.6217(4) 0.4838(7)
H13_3 H 0.0889 0.5868 0.4912
C30_3 C 0.1153(4) 0.6545(4) 0.4711(7)
H16_3 H 0.1476 0.6477 0.4638
C33_3 C 0.1539(3) 0.7625(4) 0.4878(4)
H19_3 H 0.1637 0.7407 0.5128
O9_3 O 0.1726(3) 0.9249(3) 0.4158(6)
O10_3 O 0.16753(18) 0.93254(19) 0.5429(2)
C38_3 C 0.1346(3) 0.9561(3) 0.5210(3)
C40_3 C 0.0890(3) 0.9294(3) 0.5128(4)
C42_3 C 0.0798(3) 0.8817(3) 0.5337(4)
H21_3 H 0.1021 0.8673 0.5552
C44_3 C 0.0035(3) 0.8795(3) 0.4943(5)
C48_3 C 0.0540(4) 0.9515(3) 0.4845(7)
H25_3 H 0.0591 0.9850 0.4726
C55_3 C 0.0132(3) 0.9275(3) 0.4732(6)
C56_3 C 0.0373(3) 0.8550(4) 0.5229(4)
H30_3 H 0.0320 0.8215 0.5347
O18_3 O 0.2500 0.9970(2) 0.5000
O19_2 O 0.2655(2) 0.8882(2) 0.5525(2)
H41_3 H 0.0523728 0.70115 0.516979
Cu1_5 Cu 1.0000 0.7500 0.48014(7)
O1_3 O 0.7500 0.5030(2) 0.5000
O2_3 O 0.83247(18) 0.56746(19) 0.5429(2)
O3_4 O 0.8646(2) 0.49782(19) 0.5090(3)
O5_4 O 0.7996(2) 0.3926(2) 0.4763(3)
C1_4 C 0.7826(4) 0.0398(3) 0.1137(4)
C4_3 C 0.8654(3) 0.5439(3) 0.5210(3)
C6_3 C 0.9110(3) 0.5706(3) 0.5128(4)
C7_4 C 0.7829(6) 0.2519(4) 0.3608(4)
C8_3 C 0.9202(3) 0.6183(3) 0.5337(4)
H1_3 H 0.8979 0.6327 0.5552
C10_3 C 0.9965(3) 0.6205(3) 0.4943(5)
C11_4 C 0.7616(5) 0.2610(4) 0.4028(3)
H3_4 H 0.7436 0.2346 0.4173
C12_4 C 0.7793(4) 0.0676(3) 0.1570(3)
C13_4 C 0.7655(4) 0.3107(4) 0.4265(4)
H4_4 H 0.7473 0.3178 0.4541
C14_3 C 0.9460(4) 0.5485(3) 0.4845(7)
H5_3 H 0.9409 0.5150 0.4726
C15_4 C 0.7974(5) 0.1440(5) 0.2051(5)
H6_4 H 0.8128 0.1759 0.2101
C16_4 C 0.8042(3) 0.3941(4) 0.4331(4)
C17_4 C 0.7964(4) 0.3472(4) 0.4081(4)
C21_3 C 0.9868(3) 0.5725(3) 0.4732(6)
C22_3 C 0.9627(3) 0.6450(4) 0.5229(4)
H10_3 H 0.9680 0.6785 0.5347
N3_4 N 0.7779(5) 0.2055(3) 0.3401(4)
C23_4 C 0.8003(4) 0.1183(3) 0.1607(3)
H11_4 H 0.8155 0.1337 0.1342
C24_4 C 0.8140(6) 0.3397(4) 0.3673(6)
H12_4 H 0.8314 0.3668 0.3531
C26_4 C 0.7542(6) 0.0483(4) 0.1920(4)
H14_4 H 0.7373 0.0173 0.1873
C27_4 C 0.7714(8) 0.1208(4) 0.2408(5)
C28_4 C 0.7521(10) 0.0743(5) 0.2388(6)
H15_4 H 0.7379 0.0587 0.2657
C31_4 C 0.8094(7) 0.2922(4) 0.3408(6)
H17_4 H 0.8239 0.2885 0.3106
C32_4 C 0.7846(10) 0.1624(5) 0.3624(5)
H18_4 H 0.7936 0.1579 0.3946
O8_4 O 0.8189(4) 0.4325(3) 0.4133(3)
N4_4 N 0.7730(6) 0.1478(4) 0.2850(3)
C34_4 C 0.7759(12) 0.1258(5) 0.3299(6)
H20_4 H 0.7723 0.0904 0.3367
O12_2 O 0.7655(2) 0.6118(2) 0.4475(2)
C36_3 C 0.8833(3) 0.7499(3) 0.4618(3)
C37_3 C 0.9540(3) 0.8035(3) 0.4791(4)
N5_3 N 0.9596(3) 0.8541(3) 0.4847(4)
N6_3 N 0.9076(2) 0.7977(2) 0.4700(4)
C39_3 C 0.8368(3) 0.6623(3) 0.4459(3)
C43_3 C 0.8775(3) 0.6718(3) 0.4221(4)
H22_3 H 0.8891 0.6479 0.3995
C52_3 C 0.8208(4) 0.6923(4) 0.4788(5)
H27_3 H 0.7929 0.6840 0.4963
C53_3 C 0.9022(3) 0.7170(3) 0.4310(3)
H28_3 H 0.9315 0.7241 0.4156
C54_3 C 0.8101(4) 0.6112(3) 0.4326(4)
H29_3 H 0.9914 0.9424 0.4515
C59_3 C 0.9166(3) 0.8783(4) 0.4838(7)
H33_3 H 0.9111 0.9132 0.4912
C64_3 C 0.8847(4) 0.8455(4) 0.4711(7)
H36_3 H 0.8524 0.8523 0.4638
C67_3 C 0.8461(3) 0.7375(4) 0.4878(4)
H39_3 H 0.8363 0.7593 0.5128
O17_3 O 0.8274(3) 0.5751(3) 0.4158(6)
O20_2 O 0.7345(2) 0.6118(2) 0.5525(2)
H42_7 H 0.80961 0.204455 0.284261
H43_3 H 0.947627 0.79885 0.516979
Cu1_6 Cu 0.5000 0.7500 0.51986(7)
O2_4 O 0.33247(18) 0.93254(19) 0.4571(2)
C2_4 C 0.6167(3) 0.7499(3) 0.5382(3)
C3_4 C 0.5460(3) 0.8035(3) 0.5209(4)
N1_4 N 0.5404(3) 0.8541(3) 0.5153(4)
N2_4 N 0.5924(2) 0.7977(2) 0.5300(4)
C4_4 C 0.3654(3) 0.9561(3) 0.4790(3)
C5_4 C 0.6632(3) 0.6623(3) 0.5541(3)
C6_4 C 0.4110(3) 0.9294(3) 0.4872(4)
C8_4 C 0.4202(3) 0.8817(3) 0.4663(4)
H1_4 H 0.3979 0.8673 0.4448
C9_4 C 0.6225(3) 0.6718(3) 0.5779(4)
H2_4 H 0.6109 0.6479 0.6005
C10_4 C 0.4965(3) 0.8795(3) 0.5057(5)
C14_4 C 0.4460(4) 0.9515(3) 0.5155(7)
H5_4 H 0.4409 0.9850 0.5274
C18_4 C 0.6792(4) 0.6923(4) 0.5212(5)
H7_4 H 0.7071 0.6840 0.5037
C19_4 C 0.5978(3) 0.7170(3) 0.5690(3)
H8_4 H 0.5685 0.7241 0.5844
C20_4 C 0.6899(4) 0.6112(3) 0.5674(4)
C21_4 C 0.4868(3) 0.9275(3) 0.5268(6)
H9_4 H 0.5086 0.9424 0.5485
C22_4 C 0.4627(3) 0.8550(4) 0.4771(4)
H10_4 H 0.4680 0.8215 0.4653
C25_4 C 0.5834(3) 0.8783(4) 0.5162(7)
H13_4 H 0.5889 0.9132 0.5088
C30_4 C 0.6153(4) 0.8455(4) 0.5289(7)
H16_4 H 0.6476 0.8523 0.5362
C33_4 C 0.6539(3) 0.7375(4) 0.5122(4)
H19_4 H 0.6637 0.7593 0.4872
O9_4 O 0.6726(3) 0.5751(3) 0.5842(6)
O10_4 O 0.66753(18) 0.56746(19) 0.4571(2)
O11_4 O 0.6354(2) 0.49782(19) 0.4910(3)
O13_4 O 0.7004(2) 0.3926(2) 0.5237(3)
C35_4 C 0.7174(4) 0.0398(3) 0.8863(4)
C36_4 C 0.3833(3) 0.7501(3) 0.5382(3)
C37_4 C 0.4540(3) 0.6965(3) 0.5209(4)
N5_4 N 0.4596(3) 0.6459(3) 0.5153(4)
N6_4 N 0.4076(2) 0.7023(2) 0.5300(4)
C38_4 C 0.6346(3) 0.5439(3) 0.4790(3)
C39_4 C 0.3368(3) 0.8377(3) 0.5541(3)
C40_4 C 0.5890(3) 0.5706(3) 0.4872(4)
C41_4 C 0.7171(6) 0.2519(4) 0.6392(4)
C42_4 C 0.5798(3) 0.6183(3) 0.4663(4)
H21_4 H 0.6021 0.6327 0.4448
C43_4 C 0.3775(3) 0.8282(3) 0.5779(4)
H22_4 H 0.3891 0.8521 0.6005
C44_4 C 0.5035(3) 0.6205(3) 0.5057(5)
C45_4 C 0.7384(5) 0.2610(4) 0.5972(3)
H23_4 H 0.7564 0.2346 0.5827
C46_4 C 0.7207(4) 0.0676(3) 0.8430(3)
C47_4 C 0.7345(4) 0.3107(4) 0.5735(4)
H24_4 H 0.7527 0.3178 0.5459
C48_4 C 0.5540(4) 0.5485(3) 0.5155(7)
H25_4 H 0.5591 0.5150 0.5274
C49_4 C 0.7026(5) 0.1440(5) 0.7949(5)
H26_4 H 0.6872 0.1759 0.7899
C50_4 C 0.6958(3) 0.3941(4) 0.5669(4)
C51_4 C 0.7036(4) 0.3472(4) 0.5919(4)
C52_4 C 0.3208(4) 0.8077(4) 0.5212(5)
H27_4 H 0.2929 0.8160 0.5037
C53_4 C 0.4022(3) 0.7830(3) 0.5690(3)
H28_4 H 0.4315 0.7759 0.5844
C54_4 C 0.3101(4) 0.8888(3) 0.5674(4)
C55_4 C 0.5132(3) 0.5725(3) 0.5268(6)
H29_4 H 0.4914 0.5576 0.5485
C56_4 C 0.5373(3) 0.6450(4) 0.4771(4)
H30_4 H 0.5320 0.6785 0.4653
N7_4 N 0.7221(5) 0.2055(3) 0.6599(4)
C57_4 C 0.6997(4) 0.1183(3) 0.8393(3)
H31_4 H 0.6845 0.1337 0.8658
C58_4 C 0.6860(6) 0.3397(4) 0.6327(6)
H32_4 H 0.6686 0.3668 0.6469
C59_4 C 0.4166(3) 0.6217(4) 0.5162(7)
H33_4 H 0.4111 0.5868 0.5088
C60_4 C 0.7458(6) 0.0483(4) 0.8080(4)
H34_4 H 0.7627 0.0173 0.8127
C61_4 C 0.7286(8) 0.1208(4) 0.7592(5)
C62_4 C 0.7479(10) 0.0743(5) 0.7612(6)
H35_4 H 0.7621 0.0587 0.7343
C64_4 C 0.3847(4) 0.6545(4) 0.5289(7)
H36_4 H 0.3524 0.6477 0.5362
C65_4 C 0.6906(7) 0.2922(4) 0.6592(6)
H37_4 H 0.6761 0.2885 0.6894
C66_4 C 0.7154(10) 0.1624(5) 0.6376(5)
H38_4 H 0.7064 0.1579 0.6054
C67_4 C 0.3461(3) 0.7625(4) 0.5122(4)
H39_4 H 0.3363 0.7407 0.4872
O16_4 O 0.6811(4) 0.4325(3) 0.5867(3)
O17_4 O 0.3274(3) 0.9249(3) 0.5842(6)
N8_4 N 0.7270(6) 0.1478(4) 0.7150(3)
C68_4 C 0.7241(12) 0.1258(5) 0.6701(6)
H40_4 H 0.7277 0.0904 0.6633
H41_4 H 0.552373 0.79885 0.483021
H43_4 H 0.447627 0.70115 0.483021
H42_8 H 0.69039 0.204455 0.715739
O6_3 O 0.2292(2) 0.00647(19) 0.8882(2)
Zn11_3 Zn 0.23565(3) 0.04651(3) 0.94570(4)
Zn3_2 Zn 0.80477(3) 0.95826(3) 0.49253(4)
O11_5 O 0.8646(2) 0.99782(19) 0.4910(3)
O13_5 O 0.7996(2) 0.8926(2) 0.5237(3)
O14_3 O 0.7708(2) 0.49353(19) 0.8882(2)
O15_3 O 0.79944(19) 0.5640(2) 0.9240(2)
C35_5 C 0.7826(4) 0.5398(3) 0.8863(4)
C41_5 C 0.7829(6) 0.7519(4) 0.6392(4)
C45_5 C 0.7616(5) 0.7610(4) 0.5972(3)
H23_5 H 0.7436 0.7346 0.5827
C46_5 C 0.7793(4) 0.5676(3) 0.8430(3)
C47_5 C 0.7655(4) 0.8107(4) 0.5735(4)
H24_5 H 0.7473 0.8178 0.5459
C49_5 C 0.7974(5) 0.6440(5) 0.7949(5)
H26_5 H 0.8128 0.6759 0.7899
C50_5 C 0.8042(3) 0.8941(4) 0.5669(4)
C51_5 C 0.7964(4) 0.8472(4) 0.5919(4)
N7_5 N 0.7779(5) 0.7055(3) 0.6599(4)
C57_5 C 0.8003(4) 0.6183(3) 0.8393(3)
H31_5 H 0.8155 0.6337 0.8658
C58_5 C 0.8140(6) 0.8397(4) 0.6327(6)
H32_5 H 0.8314 0.8668 0.6469
C60_5 C 0.7542(6) 0.5483(4) 0.8080(4)
H34_5 H 0.7373 0.5173 0.8127
C61_5 C 0.7714(8) 0.6208(4) 0.7592(5)
C62_5 C 0.7521(10) 0.5743(5) 0.7612(6)
H35_5 H 0.7379 0.5587 0.7343
C63_3 C 0.7722(6) 0.6988(4) 0.7073(4)
C65_5 C 0.8094(7) 0.7922(4) 0.6592(6)
H37_5 H 0.8239 0.7885 0.6894
C66_5 C 0.7846(10) 0.6624(5) 0.6376(5)
H38_5 H 0.7936 0.6579 0.6054
O16_5 O 0.8189(4) 0.9325(3) 0.5867(3)
N8_5 N 0.7730(6) 0.6478(4) 0.7150(3)
C68_5 C 0.7759(12) 0.6258(5) 0.6701(6)
H40_5 H 0.7723 0.5904 0.6633
Zn6_3 Zn 0.80477(3) 0.54174(3) 0.99253(4)
Zn10_3 Zn 0.76435(3) 0.45349(3) 0.94570(4)
O23_3 O 0.79944(19) 0.9360(2) 0.4240(2)
Cu3_3 Cu 0.7500 0.7500 0.7500
O14_4 O 0.2708(2) 0.00647(19) 0.1118(2)
Zn10_4 Zn 0.26435(3) 0.04651(3) 0.05430(4)
Zn1_2 Zn 0.69523(3) 0.95826(3) 0.50747(4)
O3_5 O 0.6354(2) 0.99782(19) 0.5090(3)
O5_5 O 0.7004(2) 0.8926(2) 0.4763(3)
O6_4 O 0.7292(2) 0.49353(19) 0.1118(2)
O7_3 O 0.70056(19) 0.5640(2) 0.0760(2)
C1_5 C 0.7174(4) 0.5398(3) 0.1137(4)
C7_5 C 0.7171(6) 0.7519(4) 0.3608(4)
C11_5 C 0.7384(5) 0.7610(4) 0.4028(3)
H3_5 H 0.7564 0.7346 0.4173
C12_5 C 0.7207(4) 0.5676(3) 0.1570(3)
C13_5 C 0.7345(4) 0.8107(4) 0.4265(4)
H4_5 H 0.7527 0.8178 0.4541
C15_5 C 0.7026(5) 0.6440(5) 0.2051(5)
H6_5 H 0.6872 0.6759 0.2101
C16_5 C 0.6958(3) 0.8941(4) 0.4331(4)
C17_5 C 0.7036(4) 0.8472(4) 0.4081(4)
N3_5 N 0.7221(5) 0.7055(3) 0.3401(4)
C23_5 C 0.6997(4) 0.6183(3) 0.1607(3)
H11_5 H 0.6845 0.6337 0.1342
C24_5 C 0.6860(6) 0.8397(4) 0.3673(6)
H12_5 H 0.6686 0.8668 0.3531
C26_5 C 0.7458(6) 0.5483(4) 0.1920(4)
H14_5 H 0.7627 0.5173 0.1873
C27_5 C 0.7286(8) 0.6208(4) 0.2408(5)
C28_5 C 0.7479(10) 0.5743(5) 0.2388(6)
H15_5 H 0.7621 0.5587 0.2657
Cu2_3 Cu 0.7500 0.7500 0.2500
C29_3 C 0.7278(6) 0.6988(4) 0.2927(4)
C31_5 C 0.6906(7) 0.7922(4) 0.3408(6)
H17_5 H 0.6761 0.7885 0.3106
C32_5 C 0.7154(10) 0.6624(5) 0.3624(5)
H18_5 H 0.7064 0.6579 0.3946
O8_5 O 0.6811(4) 0.9325(3) 0.4133(3)
N4_5 N 0.7270(6) 0.6478(4) 0.2850(3)
C34_5 C 0.7241(12) 0.6258(5) 0.3299(6)
H20_5 H 0.7277 0.5904 0.3367
Zn7_3 Zn 0.69523(3) 0.54174(3) 0.00747(4)
Zn11_4 Zn 0.73565(3) 0.45349(3) 0.05430(4)
O24_3 O 0.70056(19) 0.9360(2) 0.5760(2)
C69_5 C 0.7722(6) 0.8012(4) 0.2073(4)
H42_9 H 0.69039 0.704455 0.284261
C69_6 C 0.7278(6) 0.8012(4) 0.7927(4)
H42_10 H 0.80961 0.704455 0.715739
Cu1_7 Cu -0.0000 0.2500 0.01986(7)
O4_3 O 0.2345(2) 0.1118(2) 0.0525(2)
C2_5 C 0.1167(3) 0.2499(3) 0.0382(3)
C3_5 C 0.0460(3) 0.3035(3) 0.0209(4)
N1_5 N 0.0404(3) 0.3541(3) 0.0153(4)
N2_5 N 0.0924(2) 0.2977(2) 0.0300(4)
C5_5 C 0.1632(3) 0.1623(3) 0.0541(3)
C9_5 C 0.1225(3) 0.1718(3) 0.0779(4)
H2_5 H 0.1109 0.1479 0.1005
C18_5 C 0.1792(4) 0.1923(4) 0.0212(5)
H7_5 H 0.2071 0.1840 0.0037
C19_5 C 0.0978(3) 0.2170(3) 0.0690(3)
H8_5 H 0.0685 0.2241 0.0844
C20_5 C 0.1899(4) 0.1112(3) 0.0674(4)
H9_5 H 0.0086 0.4424 0.0485
C25_5 C 0.0834(3) 0.3783(4) 0.0162(7)
H13_5 H 0.0889 0.4132 0.0088
C30_5 C 0.1153(4) 0.3455(4) 0.0289(7)
H16_5 H 0.1476 0.3523 0.0362
C33_5 C 0.1539(3) 0.2375(4) 0.0122(4)
O9_5 O 0.1726(3) 0.0751(3) 0.0842(6)
C44_5 C 0.0035(3) 0.1205(3) 0.0057(5)
C48_5 C 0.0540(4) 0.0485(3) 0.0155(7)
H25_5 H 0.0591 0.0150 0.0274
C55_5 C 0.0132(3) 0.0725(3) 0.0268(6)
O18_4 O 0.2500 0.0030(2) 0.0000
H19_5 H 0.1637 0.2593 0.9872
O10_5 O 0.16753(18) 0.06746(19) 0.9571(2)
C38_5 C 0.1346(3) 0.0439(3) 0.9790(3)
C40_5 C 0.0890(3) 0.0706(3) 0.9872(4)
C42_5 C 0.0798(3) 0.1183(3) 0.9663(4)
H21_5 H 0.1021 0.1327 0.9448
C56_5 C 0.0373(3) 0.1450(4) 0.9771(4)
H30_5 H 0.0320 0.1785 0.9653
O18_5 O 0.2500 0.0030(2) 1.0000
O19_3 O 0.2655(2) 0.1118(2) 0.9475(2)
H41_5 H 0.0523728 0.29885 0.983021
Cu1_8 Cu 1.0000 0.2500 0.01986(7)
O1_4 O 0.7500 0.4970(2) 0.0000
O5_6 O 0.7996(2) 0.6074(2) 0.0237(3)
C1_6 C 0.7826(4) 0.9602(3) 0.3863(4)
C7_6 C 0.7829(6) 0.7481(4) 0.1392(4)
C10_5 C 0.9965(3) 0.3795(3) 0.0057(5)
C11_6 C 0.7616(5) 0.7390(4) 0.0972(3)
H3_6 H 0.7436 0.7654 0.0827
C12_6 C 0.7793(4) 0.9324(3) 0.3430(3)
C13_6 C 0.7655(4) 0.6893(4) 0.0735(4)
H4_6 H 0.7473 0.6822 0.0459
C14_5 C 0.9460(4) 0.4515(3) 0.0155(7)
H5_5 H 0.9409 0.4850 0.0274
C15_6 C 0.7974(5) 0.8560(5) 0.2949(5)
H6_6 H 0.8128 0.8241 0.2899
C16_6 C 0.8042(3) 0.6059(4) 0.0669(4)
C17_6 C 0.7964(4) 0.6528(4) 0.0919(4)
C21_5 C 0.9868(3) 0.4275(3) 0.0268(6)
N3_6 N 0.7779(5) 0.7945(3) 0.1599(4)
C23_6 C 0.8003(4) 0.8817(3) 0.3393(3)
H11_6 H 0.8155 0.8663 0.3658
C24_6 C 0.8140(6) 0.6603(4) 0.1327(6)
H12_6 H 0.8314 0.6332 0.1469
C26_6 C 0.7542(6) 0.9517(4) 0.3080(4)
H14_6 H 0.7373 0.9827 0.3127
C27_6 C 0.7714(8) 0.8792(4) 0.2592(5)
C28_6 C 0.7521(10) 0.9257(5) 0.2612(6)
H15_6 H 0.7379 0.9413 0.2343
C31_6 C 0.8094(7) 0.7078(4) 0.1592(6)
H17_6 H 0.8239 0.7115 0.1894
C32_6 C 0.7846(10) 0.8376(5) 0.1376(5)
H18_6 H 0.7936 0.8421 0.1054
O8_6 O 0.8189(4) 0.5675(3) 0.0867(3)
N4_6 N 0.7730(6) 0.8522(4) 0.2150(3)
C34_6 C 0.7759(12) 0.8742(5) 0.1701(6)
H20_6 H 0.7723 0.9096 0.1633
O12_3 O 0.7655(2) 0.3882(2) 0.0525(2)
C36_5 C 0.8833(3) 0.2501(3) 0.0382(3)
C37_5 C 0.9540(3) 0.1965(3) 0.0209(4)
N5_5 N 0.9596(3) 0.1459(3) 0.0153(4)
N6_5 N 0.9076(2) 0.2023(2) 0.0300(4)
C39_5 C 0.8368(3) 0.3377(3) 0.0541(3)
C43_5 C 0.8775(3) 0.3282(3) 0.0779(4)
H22_5 H 0.8891 0.3521 0.1005
C52_5 C 0.8208(4) 0.3077(4) 0.0212(5)
H27_5 H 0.7929 0.3160 0.0037
C53_5 C 0.9022(3) 0.2830(3) 0.0690(3)
H28_5 H 0.9315 0.2759 0.0844
C54_5 C 0.8101(4) 0.3888(3) 0.0674(4)
H29_5 H 0.9914 0.0576 0.0485
C59_5 C 0.9166(3) 0.1217(4) 0.0162(7)
H33_5 H 0.9111 0.0868 0.0088
C64_5 C 0.8847(4) 0.1545(4) 0.0289(7)
H36_5 H 0.8524 0.1477 0.0362
C67_5 C 0.8461(3) 0.2625(4) 0.0122(4)
O17_5 O 0.8274(3) 0.4249(3) 0.0842(6)
H42_11 H 0.80961 0.795545 0.215739
O1_5 O 0.7500 0.4970(2) 1.0000
O2_5 O 0.83247(18) 0.43254(19) 0.9571(2)
O3_6 O 0.8646(2) 0.50218(19) 0.9910(3)
C4_5 C 0.8654(3) 0.4561(3) 0.9790(3)
C6_5 C 0.9110(3) 0.4294(3) 0.9872(4)
C8_5 C 0.9202(3) 0.3817(3) 0.9663(4)
H1_5 H 0.8979 0.3673 0.9448
C22_5 C 0.9627(3) 0.3550(4) 0.9771(4)
H10_5 H 0.9680 0.3215 0.9653
H39_5 H 0.8363 0.2407 0.9872
O20_3 O 0.7345(2) 0.3882(2) 0.9475(2)
H43_5 H 0.947627 0.20115 0.983021
O2_6 O 0.66753(18) 0.43254(19) 0.0429(2)
O3_7 O 0.6354(2) 0.50218(19) 0.0090(3)
C4_6 C 0.6346(3) 0.4561(3) 0.0210(3)
C6_6 C 0.5890(3) 0.4294(3) 0.0128(4)
C8_6 C 0.5798(3) 0.3817(3) 0.0337(4)
H1_6 H 0.6021 0.3673 0.0552
C22_6 C 0.5373(3) 0.3550(4) 0.0229(4)
H10_6 H 0.5320 0.3215 0.0347
H19_6 H 0.3363 0.2593 0.0128
O10_6 O 0.33247(18) 0.06746(19) 0.0429(2)
C38_6 C 0.3654(3) 0.0439(3) 0.0210(3)
C40_6 C 0.4110(3) 0.0706(3) 0.0128(4)
C42_6 C 0.4202(3) 0.1183(3) 0.0337(4)
H21_6 H 0.3979 0.1327 0.0552
C56_6 C 0.4627(3) 0.1450(4) 0.0229(4)
H30_6 H 0.4680 0.1785 0.0347
H39_6 H 0.6637 0.2407 0.0128
H41_6 H 0.447627 0.29885 0.0169789
H43_6 H 0.552373 0.20115 0.0169789
Cu1_9 Cu 0.5000 0.2500 0.98014(7)
O5_7 O 0.7004(2) 0.6074(2) 0.9763(3)
C1_7 C 0.7174(4) 0.9602(3) 0.6137(4)
C2_6 C 0.3833(3) 0.2499(3) 0.9618(3)
C3_6 C 0.4540(3) 0.3035(3) 0.9791(4)
N1_6 N 0.4596(3) 0.3541(3) 0.9847(4)
N2_6 N 0.4076(2) 0.2977(2) 0.9700(4)
C5_6 C 0.3368(3) 0.1623(3) 0.9459(3)
C7_7 C 0.7171(6) 0.7481(4) 0.8608(4)
C9_6 C 0.3775(3) 0.1718(3) 0.9221(4)
H2_6 H 0.3891 0.1479 0.8995
C10_6 C 0.5035(3) 0.3795(3) 0.9943(5)
C11_7 C 0.7384(5) 0.7390(4) 0.9028(3)
H3_7 H 0.7564 0.7654 0.9173
C12_7 C 0.7207(4) 0.9324(3) 0.6570(3)
C13_7 C 0.7345(4) 0.6893(4) 0.9265(4)
H4_7 H 0.7527 0.6822 0.9541
C14_6 C 0.5540(4) 0.4515(3) 0.9845(7)
H5_6 H 0.5591 0.4850 0.9726
C15_7 C 0.7026(5) 0.8560(5) 0.7051(5)
H6_7 H 0.6872 0.8241 0.7101
C16_7 C 0.6958(3) 0.6059(4) 0.9331(4)
C17_7 C 0.7036(4) 0.6528(4) 0.9081(4)
C18_6 C 0.3208(4) 0.1923(4) 0.9788(5)
H7_6 H 0.2929 0.1840 0.9963
C19_6 C 0.4022(3) 0.2170(3) 0.9310(3)
H8_6 H 0.4315 0.2241 0.9156
C20_6 C 0.3101(4) 0.1112(3) 0.9326(4)
C21_6 C 0.5132(3) 0.4275(3) 0.9732(6)
H9_6 H 0.4914 0.4424 0.9515
N3_7 N 0.7221(5) 0.7945(3) 0.8401(4)
C23_7 C 0.6997(4) 0.8817(3) 0.6607(3)
H11_7 H 0.6845 0.8663 0.6342
C24_7 C 0.6860(6) 0.6603(4) 0.8673(6)
H12_7 H 0.6686 0.6332 0.8531
C25_6 C 0.4166(3) 0.3783(4) 0.9838(7)
H13_6 H 0.4111 0.4132 0.9912
C26_7 C 0.7458(6) 0.9517(4) 0.6920(4)
H14_7 H 0.7627 0.9827 0.6873
C27_7 C 0.7286(8) 0.8792(4) 0.7408(5)
C28_7 C 0.7479(10) 0.9257(5) 0.7388(6)
H15_7 H 0.7621 0.9413 0.7657
C30_6 C 0.3847(4) 0.3455(4) 0.9711(7)
H16_6 H 0.3524 0.3523 0.9638
C31_7 C 0.6906(7) 0.7078(4) 0.8408(6)
H17_7 H 0.6761 0.7115 0.8106
C32_7 C 0.7154(10) 0.8376(5) 0.8624(5)
H18_7 H 0.7064 0.8421 0.8946
C33_6 C 0.3461(3) 0.2375(4) 0.9878(4)
O8_7 O 0.6811(4) 0.5675(3) 0.9133(3)
O9_6 O 0.3274(3) 0.0751(3) 0.9158(6)
N4_7 N 0.7270(6) 0.8522(4) 0.7850(3)
C34_7 C 0.7241(12) 0.8742(5) 0.8299(6)
H20_7 H 0.7277 0.9096 0.8367
C36_6 C 0.6167(3) 0.2501(3) 0.9618(3)
C37_6 C 0.5460(3) 0.1965(3) 0.9791(4)
N5_6 N 0.5404(3) 0.1459(3) 0.9847(4)
N6_6 N 0.5924(2) 0.2023(2) 0.9700(4)
C39_6 C 0.6632(3) 0.3377(3) 0.9459(3)
C43_6 C 0.6225(3) 0.3282(3) 0.9221(4)
H22_6 H 0.6109 0.3521 0.8995
C44_6 C 0.4965(3) 0.1205(3) 0.9943(5)
C48_6 C 0.4460(4) 0.0485(3) 0.9845(7)
H25_6 H 0.4409 0.0150 0.9726
C52_6 C 0.6792(4) 0.3077(4) 0.9788(5)
H27_6 H 0.7071 0.3160 0.9963
C53_6 C 0.5978(3) 0.2830(3) 0.9310(3)
H28_6 H 0.5685 0.2759 0.9156
C54_6 C 0.6899(4) 0.3888(3) 0.9326(4)
C55_6 C 0.4868(3) 0.0725(3) 0.9732(6)
H29_6 H 0.5086 0.0576 0.9515
C59_6 C 0.5834(3) 0.1217(4) 0.9838(7)
H33_6 H 0.5889 0.0868 0.9912
C64_6 C 0.6153(4) 0.1545(4) 0.9711(7)
H36_6 H 0.6476 0.1477 0.9638
C67_6 C 0.6539(3) 0.2625(4) 0.9878(4)
O17_6 O 0.6726(3) 0.4249(3) 0.9158(6)
H42_12 H 0.69039 0.795545 0.784261
Zn1_3 Zn 0.19523(3) 0.54174(3) 0.49253(4)
Zn2_2 Zn 0.23565(3) 0.45349(3) 0.44570(4)
Cu1_10 Cu 0.0000 0.2500 0.51986(7)
O1_6 O 0.2500 0.4970(2) 0.5000
O2_7 O 0.16753(18) 0.43254(19) 0.4571(2)
O3_8 O 0.1354(2) 0.50218(19) 0.4910(3)
O5_8 O 0.2004(2) 0.6074(2) 0.5237(3)
O7_4 O 0.20056(19) 0.9360(2) 0.9240(2)
C1_8 C 0.2174(4) 0.9602(3) 0.8863(4)
C4_7 C 0.1346(3) 0.4561(3) 0.4790(3)
C6_7 C 0.0890(3) 0.4294(3) 0.4872(4)
C7_8 C 0.2171(6) 0.7481(4) 0.6392(4)
C8_7 C 0.0798(3) 0.3817(3) 0.4663(4)
H1_7 H 0.1021 0.3673 0.4448
C10_7 C 0.0035(3) 0.3795(3) 0.5057(5)
C11_8 C 0.2384(5) 0.7390(4) 0.5972(3)
H3_8 H 0.2564 0.7654 0.5827
C12_8 C 0.2207(4) 0.9324(3) 0.8430(3)
C13_8 C 0.2345(4) 0.6893(4) 0.5735(4)
H4_8 H 0.2527 0.6822 0.5459
C14_7 C 0.0540(4) 0.4515(3) 0.5155(7)
H5_7 H 0.0591 0.4850 0.5274
C15_8 C 0.2026(5) 0.8560(5) 0.7949(5)
H6_8 H 0.1872 0.8241 0.7899
C16_8 C 0.1958(3) 0.6059(4) 0.5669(4)
C17_8 C 0.2036(4) 0.6528(4) 0.5919(4)
C21_7 C 0.0132(3) 0.4275(3) 0.5268(6)
C22_7 C 0.0373(3) 0.3550(4) 0.4771(4)
H10_7 H 0.0320 0.3215 0.4653
N3_8 N 0.2221(5) 0.7945(3) 0.6599(4)
C23_8 C 0.1997(4) 0.8817(3) 0.8393(3)
H11_8 H 0.1845 0.8663 0.8658
C24_8 C 0.1860(6) 0.6603(4) 0.6327(6)
H12_8 H 0.1686 0.6332 0.6469
C26_8 C 0.2458(6) 0.9517(4) 0.8080(4)
H14_8 H 0.2627 0.9827 0.8127
C27_8 C 0.2286(8) 0.8792(4) 0.7592(5)
C28_8 C 0.2479(10) 0.9257(5) 0.7612(6)
H15_8 H 0.2621 0.9413 0.7343
Cu2_4 Cu 0.2500 0.7500 0.7500
C29_4 C 0.2278(6) 0.8012(4) 0.7073(4)
C31_8 C 0.1906(7) 0.7078(4) 0.6592(6)
H17_8 H 0.1761 0.7115 0.6894
C32_8 C 0.2154(10) 0.8376(5) 0.6376(5)
H18_8 H 0.2064 0.8421 0.6054
O8_8 O 0.1811(4) 0.5675(3) 0.5867(3)
N4_8 N 0.2270(6) 0.8522(4) 0.7150(3)
C34_8 C 0.2241(12) 0.8742(5) 0.6701(6)
H20_8 H 0.2277 0.9096 0.6633
O12_4 O 0.2345(2) 0.3882(2) 0.5525(2)
C36_7 C 0.1167(3) 0.2501(3) 0.5382(3)
C37_7 C 0.0460(3) 0.1965(3) 0.5209(4)
N5_7 N 0.0404(3) 0.1459(3) 0.5153(4)
N6_7 N 0.0924(2) 0.2023(2) 0.5300(4)
C39_7 C 0.1632(3) 0.3377(3) 0.5541(3)
C43_7 C 0.1225(3) 0.3282(3) 0.5779(4)
H22_7 H 0.1109 0.3521 0.6005
C52_7 C 0.1792(4) 0.3077(4) 0.5212(5)
H27_7 H 0.2071 0.3160 0.5037
C53_7 C 0.0978(3) 0.2830(3) 0.5690(3)
H28_7 H 0.0685 0.2759 0.5844
C54_7 C 0.1899(4) 0.3888(3) 0.5674(4)
H29_7 H 0.0086 0.0576 0.5485
C59_7 C 0.0834(3) 0.1217(4) 0.5162(7)
H33_7 H 0.0889 0.0868 0.5088
C64_7 C 0.1153(4) 0.1545(4) 0.5289(7)
H36_7 H 0.1476 0.1477 0.5362
C67_7 C 0.1539(3) 0.2625(4) 0.5122(4)
H39_7 H 0.1637 0.2407 0.4872
O17_7 O 0.1726(3) 0.4249(3) 0.5842(6)
Zn5_3 Zn 0.30477(3) 0.54174(3) 0.50747(4)
Zn7_4 Zn 0.19523(3) 0.95826(3) 0.99253(4)
Zn8_2 Zn 0.26435(3) 0.45349(3) 0.55430(4)
O20_4 O 0.2655(2) 0.3882(2) 0.4475(2)
O22_3 O 0.2292(2) 0.49353(19) 0.3882(2)
O24_4 O 0.20056(19) 0.5640(2) 0.4240(2)
C69_7 C 0.2722(6) 0.6988(4) 0.7927(4)
H42_13 H 0.19039 0.795545 0.715739
H43_7 H 0.0523728 0.20115 0.483021
Cu1_11 Cu 1.0000 0.2500 0.51986(7)
O4_4 O 0.7655(2) 0.1118(2) 0.5525(2)
C2_7 C 0.8833(3) 0.2499(3) 0.5382(3)
C3_7 C 0.9540(3) 0.3035(3) 0.5209(4)
N1_7 N 0.9596(3) 0.3541(3) 0.5153(4)
N2_7 N 0.9076(2) 0.2977(2) 0.5300(4)
C5_7 C 0.8368(3) 0.1623(3) 0.5541(3)
C9_7 C 0.8775(3) 0.1718(3) 0.5779(4)
H2_7 H 0.8891 0.1479 0.6005
C18_7 C 0.8208(4) 0.1923(4) 0.5212(5)
H7_7 H 0.7929 0.1840 0.5037
C19_7 C 0.9022(3) 0.2170(3) 0.5690(3)
H8_7 H 0.9315 0.2241 0.5844
C20_7 C 0.8101(4) 0.1112(3) 0.5674(4)
H9_7 H 0.9914 0.4424 0.5485
C25_7 C 0.9166(3) 0.3783(4) 0.5162(7)
H13_7 H 0.9111 0.4132 0.5088
C30_7 C 0.8847(4) 0.3455(4) 0.5289(7)
H16_7 H 0.8524 0.3523 0.5362
C33_7 C 0.8461(3) 0.2375(4) 0.5122(4)
H19_7 H 0.8363 0.2593 0.4872
O9_7 O 0.8274(3) 0.0751(3) 0.5842(6)
Zn4_2 Zn 0.76435(3) 0.04651(3) 0.44570(4)
O10_7 O 0.83247(18) 0.06746(19) 0.4571(2)
C38_7 C 0.8654(3) 0.0439(3) 0.4790(3)
C40_7 C 0.9110(3) 0.0706(3) 0.4872(4)
C42_7 C 0.9202(3) 0.1183(3) 0.4663(4)
H21_7 H 0.8979 0.1327 0.4448
C44_7 C 0.9965(3) 0.1205(3) 0.5057(5)
C48_7 C 0.9460(4) 0.0485(3) 0.5155(7)
H25_7 H 0.9409 0.0150 0.5274
C55_7 C 0.9868(3) 0.0725(3) 0.5268(6)
C56_7 C 0.9627(3) 0.1450(4) 0.4771(4)
H30_7 H 0.9680 0.1785 0.4653
Zn9_2 Zn 0.73565(3) 0.04651(3) 0.55430(4)
O18_6 O 0.7500 0.0030(2) 0.5000
O19_4 O 0.7345(2) 0.1118(2) 0.4475(2)
O21_3 O 0.7708(2) 0.00647(19) 0.3882(2)
H41_7 H 0.947627 0.29885 0.483021
Cu1_12 Cu 0.5000 0.2500 0.48014(7)
O2_8 O 0.66753(18) 0.06746(19) 0.5429(2)
C2_8 C 0.3833(3) 0.2501(3) 0.4618(3)
C3_8 C 0.4540(3) 0.1965(3) 0.4791(4)
N1_8 N 0.4596(3) 0.1459(3) 0.4847(4)
N2_8 N 0.4076(2) 0.2023(2) 0.4700(4)
C4_8 C 0.6346(3) 0.0439(3) 0.5210(3)
C5_8 C 0.3368(3) 0.3377(3) 0.4459(3)
C6_8 C 0.5890(3) 0.0706(3) 0.5128(4)
C8_8 C 0.5798(3) 0.1183(3) 0.5337(4)
H1_8 H 0.6021 0.1327 0.5552
C9_8 C 0.3775(3) 0.3282(3) 0.4221(4)
H2_8 H 0.3891 0.3521 0.3995
C10_8 C 0.5035(3) 0.1205(3) 0.4943(5)
C14_8 C 0.5540(4) 0.0485(3) 0.4845(7)
H5_8 H 0.5591 0.0150 0.4726
C18_8 C 0.3208(4) 0.3077(4) 0.4788(5)
H7_8 H 0.2929 0.3160 0.4963
C19_8 C 0.4022(3) 0.2830(3) 0.4310(3)
H8_8 H 0.4315 0.2759 0.4156
C20_8 C 0.3101(4) 0.3888(3) 0.4326(4)
C21_8 C 0.5132(3) 0.0725(3) 0.4732(6)
H9_8 H 0.4914 0.0576 0.4515
C22_8 C 0.5373(3) 0.1450(4) 0.5229(4)
H10_8 H 0.5320 0.1785 0.5347
C25_8 C 0.4166(3) 0.1217(4) 0.4838(7)
H13_8 H 0.4111 0.0868 0.4912
C30_8 C 0.3847(4) 0.1545(4) 0.4711(7)
H16_8 H 0.3524 0.1477 0.4638
C33_8 C 0.3461(3) 0.2625(4) 0.4878(4)
H19_8 H 0.3363 0.2407 0.5128
O9_8 O 0.3274(3) 0.4249(3) 0.4158(6)
O10_8 O 0.33247(18) 0.43254(19) 0.5429(2)
O11_6 O 0.3646(2) 0.50218(19) 0.5090(3)
O13_6 O 0.2996(2) 0.6074(2) 0.4763(3)
O15_4 O 0.29944(19) 0.9360(2) 0.0760(2)
C35_6 C 0.2826(4) 0.9602(3) 0.1137(4)
C36_8 C 0.6167(3) 0.2499(3) 0.4618(3)
C37_8 C 0.5460(3) 0.3035(3) 0.4791(4)
N5_8 N 0.5404(3) 0.3541(3) 0.4847(4)
N6_8 N 0.5924(2) 0.2977(2) 0.4700(4)
C38_8 C 0.3654(3) 0.4561(3) 0.5210(3)
C39_8 C 0.6632(3) 0.1623(3) 0.4459(3)
C40_8 C 0.4110(3) 0.4294(3) 0.5128(4)
C41_6 C 0.2829(6) 0.7481(4) 0.3608(4)
C42_8 C 0.4202(3) 0.3817(3) 0.5337(4)
H21_8 H 0.3979 0.3673 0.5552
C43_8 C 0.6225(3) 0.1718(3) 0.4221(4)
H22_8 H 0.6109 0.1479 0.3995
C44_8 C 0.4965(3) 0.3795(3) 0.4943(5)
C45_6 C 0.2616(5) 0.7390(4) 0.4028(3)
H23_6 H 0.2436 0.7654 0.4173
C46_6 C 0.2793(4) 0.9324(3) 0.1570(3)
C47_6 C 0.2655(4) 0.6893(4) 0.4265(4)
H24_6 H 0.2473 0.6822 0.4541
C48_8 C 0.4460(4) 0.4515(3) 0.4845(7)
H25_8 H 0.4409 0.4850 0.4726
C49_6 C 0.2974(5) 0.8560(5) 0.2051(5)
H26_6 H 0.3128 0.8241 0.2101
C50_6 C 0.3042(3) 0.6059(4) 0.4331(4)
C51_6 C 0.2964(4) 0.6528(4) 0.4081(4)
C52_8 C 0.6792(4) 0.1923(4) 0.4788(5)
H27_8 H 0.7071 0.1840 0.4963
C53_8 C 0.5978(3) 0.2170(3) 0.4310(3)
H28_8 H 0.5685 0.2241 0.4156
C54_8 C 0.6899(4) 0.1112(3) 0.4326(4)
C55_8 C 0.4868(3) 0.4275(3) 0.4732(6)
H29_8 H 0.5086 0.4424 0.4515
C56_8 C 0.4627(3) 0.3550(4) 0.5229(4)
H30_8 H 0.4680 0.3215 0.5347
N7_6 N 0.2779(5) 0.7945(3) 0.3401(4)
C57_6 C 0.3003(4) 0.8817(3) 0.1607(3)
H31_6 H 0.3155 0.8663 0.1342
C58_6 C 0.3140(6) 0.6603(4) 0.3673(6)
H32_6 H 0.3314 0.6332 0.3531
C59_8 C 0.5834(3) 0.3783(4) 0.4838(7)
H33_8 H 0.5889 0.4132 0.4912
C60_6 C 0.2542(6) 0.9517(4) 0.1920(4)
H34_6 H 0.2373 0.9827 0.1873
C61_6 C 0.2714(8) 0.8792(4) 0.2408(5)
C62_6 C 0.2521(10) 0.9257(5) 0.2388(6)
H35_6 H 0.2379 0.9413 0.2657
C63_4 C 0.2722(6) 0.8012(4) 0.2927(4)
C64_8 C 0.6153(4) 0.3455(4) 0.4711(7)
H36_8 H 0.6476 0.3523 0.4638
C65_6 C 0.3094(7) 0.7078(4) 0.3408(6)
H37_6 H 0.3239 0.7115 0.3106
C66_6 C 0.2846(10) 0.8376(5) 0.3624(5)
H38_6 H 0.2936 0.8421 0.3946
C67_8 C 0.6539(3) 0.2375(4) 0.4878(4)
H39_8 H 0.6637 0.2593 0.5128
O16_6 O 0.3189(4) 0.5675(3) 0.4133(3)
O17_8 O 0.6726(3) 0.0751(3) 0.4158(6)
N8_6 N 0.2730(6) 0.8522(4) 0.2850(3)
C68_6 C 0.2759(12) 0.8742(5) 0.3299(6)
H40_6 H 0.2723 0.9096 0.3367
Zn6_4 Zn 0.30477(3) 0.95826(3) 0.00747(4)
O21_4 O 0.2708(2) 0.49353(19) 0.6118(2)
O22_4 O 0.7292(2) 0.00647(19) 0.6118(2)
O23_4 O 0.29944(19) 0.5640(2) 0.5760(2)
Cu3_4 Cu 0.2500 0.7500 0.2500
H41_8 H 0.447627 0.20115 0.516979
H43_8 H 0.552373 0.29885 0.516979
C69_8 C 0.2278(6) 0.6988(4) 0.2073(4)
H42_14 H 0.30961 0.795545 0.284261
O13_7 O 0.2004(2) 0.8926(2) 0.0237(3)
C35_7 C 0.2174(4) 0.5398(3) 0.3863(4)
C41_7 C 0.2171(6) 0.7519(4) 0.1392(4)
C45_7 C 0.2384(5) 0.7610(4) 0.0972(3)
H23_7 H 0.2564 0.7346 0.0827
C46_7 C 0.2207(4) 0.5676(3) 0.3430(3)
C47_7 C 0.2345(4) 0.8107(4) 0.0735(4)
H24_7 H 0.2527 0.8178 0.0459
C49_7 C 0.2026(5) 0.6440(5) 0.2949(5)
H26_7 H 0.1872 0.6759 0.2899
C50_7 C 0.1958(3) 0.8941(4) 0.0669(4)
C51_7 C 0.2036(4) 0.8472(4) 0.0919(4)
N7_7 N 0.2221(5) 0.7055(3) 0.1599(4)
C57_7 C 0.1997(4) 0.6183(3) 0.3393(3)
H31_7 H 0.1845 0.6337 0.3658
C58_7 C 0.1860(6) 0.8397(4) 0.1327(6)
H32_7 H 0.1686 0.8668 0.1469
C60_7 C 0.2458(6) 0.5483(4) 0.3080(4)
H34_7 H 0.2627 0.5173 0.3127
C61_7 C 0.2286(8) 0.6208(4) 0.2592(5)
C62_7 C 0.2479(10) 0.5743(5) 0.2612(6)
H35_7 H 0.2621 0.5587 0.2343
C65_7 C 0.1906(7) 0.7922(4) 0.1592(6)
H37_7 H 0.1761 0.7885 0.1894
C66_7 C 0.2154(10) 0.6624(5) 0.1376(5)
H38_7 H 0.2064 0.6579 0.1054
O16_7 O 0.1811(4) 0.9325(3) 0.0867(3)
N8_7 N 0.2270(6) 0.6478(4) 0.2150(3)
C68_7 C 0.2241(12) 0.6258(5) 0.1701(6)
H40_7 H 0.2277 0.5904 0.1633
O11_7 O 0.1354(2) 0.99782(19) 0.9910(3)
H42_15 H 0.19039 0.704455 0.215739
O11_8 O 0.3646(2) 0.99782(19) 0.0090(3)
O13_8 O 0.2996(2) 0.8926(2) 0.9763(3)
C35_8 C 0.2826(4) 0.5398(3) 0.6137(4)
C41_8 C 0.2829(6) 0.7519(4) 0.8608(4)
C45_8 C 0.2616(5) 0.7610(4) 0.9028(3)
H23_8 H 0.2436 0.7346 0.9173
C46_8 C 0.2793(4) 0.5676(3) 0.6570(3)
C47_8 C 0.2655(4) 0.8107(4) 0.9265(4)
H24_8 H 0.2473 0.8178 0.9541
C49_8 C 0.2974(5) 0.6440(5) 0.7051(5)
H26_8 H 0.3128 0.6759 0.7101
C50_8 C 0.3042(3) 0.8941(4) 0.9331(4)
C51_8 C 0.2964(4) 0.8472(4) 0.9081(4)
N7_8 N 0.2779(5) 0.7055(3) 0.8401(4)
C57_8 C 0.3003(4) 0.6183(3) 0.6607(3)
H31_8 H 0.3155 0.6337 0.6342
C58_8 C 0.3140(6) 0.8397(4) 0.8673(6)
H32_8 H 0.3314 0.8668 0.8531
C60_8 C 0.2542(6) 0.5483(4) 0.6920(4)
H34_8 H 0.2373 0.5173 0.6873
C61_8 C 0.2714(8) 0.6208(4) 0.7408(5)
C62_8 C 0.2521(10) 0.5743(5) 0.7388(6)
H35_8 H 0.2379 0.5587 0.7657
C65_8 C 0.3094(7) 0.7922(4) 0.8408(6)
H37_8 H 0.3239 0.7885 0.8106
C66_8 C 0.2846(10) 0.6624(5) 0.8624(5)
H38_8 H 0.2936 0.6579 0.8946
O16_8 O 0.3189(4) 0.9325(3) 0.9133(3)
N8_8 N 0.2730(6) 0.6478(4) 0.7850(3)
C68_8 C 0.2759(12) 0.6258(5) 0.8299(6)
H40_8 H 0.2723 0.5904 0.8367
H42_16 H 0.30961 0.704455 0.784261
loop_
_geom_bond_atom_site_label_1
_geom_bond_atom_site_label_2
_geom_bond_site_symmetry_1
_geom_bond_site_symmetry_2
Zn1 O1 1_555 1_555
Zn2 O1 1_555 1_555
O2 Zn2 1_555 1_555
O3 Zn1 1_555 1_555
C4 O2 1_555 1_555
C6 C4 1_555 1_555
C8 C6 1_555 1_555
H1 C8 1_555 1_555
C22 C8 1_555 1_555
H10 C22 1_555 1_555
O20 Zn2 1_555 1_555
O22 Zn2 1_555 1_555
O24 Zn1 1_555 1_555
O3 C4 1_555 1_555
O1_2 Zn5 1_555 1_555
O7 C1 1_555 1_555
C1 C12 1_555 1_555
C7 C11 1_555 1_555
C10 C21 1_555 1_555
C11 H3 1_555 1_555
C12 C23 1_555 1_555
C13 C11 1_555 1_555
H4 C13 1_555 1_555
H5 C14 1_555 1_555
C15 H6 1_555 1_555
C16 O5 1_555 1_555
C17 C13 1_555 1_555
C21 C14 1_555 1_555
N3 C7 1_555 1_555
C23 C15 1_555 1_555
H11 C23 1_555 1_555
C24 C17 1_555 1_555
H12 C24 1_555 1_555
C26 C12 1_555 1_555
H14 C26 1_555 1_555
C27 C15 1_555 1_555
C28 C26 1_555 1_555
H15 C28 1_555 1_555
Cu2 C29 1_555 1_555
C29 N3 1_555 1_555
C31 C7 1_555 1_555
H17 C31 1_555 1_555
C32 N3 1_555 1_555
H18 C32 1_555 1_555
O8 C16 1_555 1_555
N4 C27 1_555 1_555
C34 C32 1_555 1_555
H20 C34 1_555 1_555
O12 C54 1_555 1_555
C36 N6 1_555 1_555
C37 Cu1 1_555 1_555
N5 C37 1_555 1_555
N6 C37 1_555 1_555
C39 C43 1_555 1_555
C43 H22 1_555 1_555
C52 C39 1_555 1_555
H27 C52 1_555 1_555
C53 C36 1_555 1_555
H28 C53 1_555 1_555
C54 C39 1_555 1_555
C59 N5 1_555 1_555
H33 C59 1_555 1_555
C64 N6 1_555 1_555
H36 C64 1_555 1_555
C67 C36 1_555 1_555
O17 C54 1_555 1_555
Zn7 O7 1_555 1_555
Zn8 O1_2 1_555 1_555
C69 Cu2 1_555 1_555
C16 C17 1_555 1_555
C24 C31 1_555 1_555
C27 C28 1_555 1_555
C29 N4 1_555 1_555
N4 C34 1_555 1_555
O12 Zn8 1_555 1_555
C43 C53 1_555 1_555
C52 C67 1_555 1_555
C59 C64 1_555 1_555
C29 H42 1_555 1_555
Zn4 O10 1_555 1_555
O10 C38 1_555 1_555
C38 C40 1_555 1_555
C40 C42 1_555 1_555
C42 H21 1_555 1_555
C56 C42 1_555 1_555
H30 C56 1_555 1_555
O19 Zn4 1_555 1_555
O21 Zn4 1_555 1_555
Zn4 O18 1_555 1_555
Cu1_2 C3 1_555 1_555
O4 C20 1_555 1_555
C2 N2 1_555 1_555
C3 N1 1_555 1_555
N2 C3 1_555 1_555
C5 C9 1_555 1_555
C9 H2 1_555 1_555
C18 C5 1_555 1_555
H7 C18 1_555 1_555
C19 C2 1_555 1_555
H8 C19 1_555 1_555
C20 C5 1_555 1_555
C25 N1 1_555 1_555
H13 C25 1_555 1_555
C30 N2 1_555 1_555
H16 C30 1_555 1_555
C33 C2 1_555 1_555
O9 C20 1_555 1_555
H25 C48 1_555 1_555
C55 C44 1_555 1_555
Zn9 O4 1_555 1_555
C9 C19 1_555 1_555
C18 C33 1_555 1_555
C25 C30 1_555 1_555
C48 C55 1_555 1_555
Zn9 O18_2 1_555 1_555
Cu1_3 C3_2 1_555 1_555
O19 C20_2 1_555 1_555
O7_2 C1_2 1_555 1_555
C1_2 C12_2 1_555 1_555
C2_2 N2_2 1_555 1_555
C3_2 N1_2 1_555 1_555
N1_2 C10_2 1_555 1_555
N2_2 C3_2 1_555 1_555
C5_2 C9_2 1_555 1_555
C7_2 C11_2 1_555 1_555
C9_2 H2_2 1_555 1_555
C10_2 C21_2 1_555 1_555
C11_2 H3_2 1_555 1_555
C12_2 C23_2 1_555 1_555
C13_2 C11_2 1_555 1_555
H4_2 C13_2 1_555 1_555
H5_2 C14_2 1_555 1_555
C15_2 H6_2 1_555 1_555
C16_2 O5_2 1_555 1_555
C17_2 C13_2 1_555 1_555
C18_2 C5_2 1_555 1_555
H7_2 C18_2 1_555 1_555
C19_2 C2_2 1_555 1_555
H8_2 C19_2 1_555 1_555
C20_2 C5_2 1_555 1_555
C21_2 C14_2 1_555 1_555
H9_2 C21_2 1_555 1_555
N3_2 C7_2 1_555 1_555
C23_2 C15_2 1_555 1_555
H11_2 C23_2 1_555 1_555
C24_2 C17_2 1_555 1_555
H12_2 C24_2 1_555 1_555
C25_2 N1_2 1_555 1_555
H13_2 C25_2 1_555 1_555
C26_2 C12_2 1_555 1_555
H14_2 C26_2 1_555 1_555
C27_2 C15_2 1_555 1_555
C28_2 C26_2 1_555 1_555
H15_2 C28_2 1_555 1_555
Cu2_2 C29_2 1_555 1_555
C29_2 N3_2 1_555 1_555
C30_2 N2_2 1_555 1_555
H16_2 C30_2 1_555 1_555
C31_2 C7_2 1_555 1_555
H17_2 C31_2 1_555 1_555
C32_2 N3_2 1_555 1_555
H18_2 C32_2 1_555 1_555
C33_2 C2_2 1_555 1_555
O8_2 C16_2 1_555 1_555
O9_2 C20_2 1_555 1_555
N4_2 C27_2 1_555 1_555
C34_2 C32_2 1_555 1_555
H20_2 C34_2 1_555 1_555
O20 C54_2 1_555 1_555
C36_2 N6_2 1_555 1_555
C37_2 Cu1_3 1_555 1_555
N5_2 C37_2 1_555 1_555
N6_2 C37_2 1_555 1_555
C39_2 C43_2 1_555 1_555
C43_2 H22_2 1_555 1_555
C44_2 N5_2 1_555 1_555
H25_2 C48_2 1_555 1_555
C52_2 C39_2 1_555 1_555
H27_2 C52_2 1_555 1_555
C53_2 C36_2 1_555 1_555
H28_2 C53_2 1_555 1_555
C54_2 C39_2 1_555 1_555
C55_2 C44_2 1_555 1_555
H29_2 C55_2 1_555 1_555
C59_2 N5_2 1_555 1_555
H33_2 C59_2 1_555 1_555
C64_2 N6_2 1_555 1_555
H36_2 C64_2 1_555 1_555
C67_2 C36_2 1_555 1_555
O17_2 C54_2 1_555 1_555
Zn7_2 O7_2 1_555 1_555
C69_2 Cu2_2 1_555 1_555
C9_2 C19_2 1_555 1_555
C16_2 C17_2 1_555 1_555
C18_2 C33_2 1_555 1_555
C24_2 C31_2 1_555 1_555
C25_2 C30_2 1_555 1_555
C27_2 C28_2 1_555 1_555
C29_2 N4_2 1_555 1_555
N4_2 C34_2 1_555 1_555
C43_2 C53_2 1_555 1_555
C48_2 C55_2 1_555 1_555
C52_2 C67_2 1_555 1_555
C59_2 C64_2 1_555 1_555
C29_2 H42_2 1_555 1_555
O2_2 Zn8 1_555 1_555
O3_2 Zn5 1_555 1_555
C4_2 O2_2 1_555 1_555
C6_2 C4_2 1_555 1_555
C8_2 C6_2 1_555 1_555
H1_2 C8_2 1_555 1_555
C22_2 C8_2 1_555 1_555
H10_2 C22_2 1_555 1_555
Zn9 O10_2 1_555 1_555
O10_2 C38_2 1_555 1_555
C38_2 C40_2 1_555 1_555
C40_2 C42_2 1_555 1_555
C42_2 H21_2 1_555 1_555
C56_2 C42_2 1_555 1_555
H30_2 C56_2 1_555 1_555
O21_2 Zn9 1_555 1_555
O22_2 Zn8 1_555 1_555
O24_2 Zn5 1_555 1_555
O3_2 C4_2 1_555 1_555
Zn7 O11 1_555 1_555
O13 Zn7 1_555 1_555
O22 C35 1_555 1_555
O24 C35 1_555 1_555
C35 C46 1_555 1_555
C41 C45 1_555 1_555
C45 H23 1_555 1_555
C46 C57 1_555 1_555
C47 C45 1_555 1_555
H24 C47 1_555 1_555
C49 H26 1_555 1_555
C50 O13 1_555 1_555
C51 C47 1_555 1_555
N7 C41 1_555 1_555
C57 C49 1_555 1_555
H31 C57 1_555 1_555
C58 C51 1_555 1_555
H32 C58 1_555 1_555
C60 C46 1_555 1_555
H34 C60 1_555 1_555
C61 C49 1_555 1_555
C62 C60 1_555 1_555
H35 C62 1_555 1_555
C69_2 N7 1_555 1_555
C65 C41 1_555 1_555
H37 C65 1_555 1_555
C66 N7 1_555 1_555
H38 C66 1_555 1_555
O16 C50 1_555 1_555
N8 C61 1_555 1_555
C68 C66 1_555 1_555
H40 C68 1_555 1_555
C50 C51 1_555 1_555
C58 C65 1_555 1_555
C61 C62 1_555 1_555
C69_2 N8 1_555 1_555
N8 C68 1_555 1_555
O3_3 Zn7_2 1_555 1_555
O5_3 Zn7_2 1_555 1_555
O22_2 C1_3 1_555 1_555
O24_2 C1_3 1_555 1_555
C1_3 C12_3 1_555 1_555
C7_3 C11_3 1_555 1_555
C11_3 H3_3 1_555 1_555
C12_3 C23_3 1_555 1_555
C13_3 C11_3 1_555 1_555
H4_3 C13_3 1_555 1_555
C15_3 H6_3 1_555 1_555
C16_3 O5_3 1_555 1_555
C17_3 C13_3 1_555 1_555
N3_3 C7_3 1_555 1_555
C23_3 C15_3 1_555 1_555
H11_3 C23_3 1_555 1_555
C24_3 C17_3 1_555 1_555
H12_3 C24_3 1_555 1_555
C26_3 C12_3 1_555 1_555
H14_3 C26_3 1_555 1_555
C27_3 C15_3 1_555 1_555
C28_3 C26_3 1_555 1_555
H15_3 C28_3 1_555 1_555
C69 N3_3 1_555 1_555
C31_3 C7_3 1_555 1_555
H17_3 C31_3 1_555 1_555
C32_3 N3_3 1_555 1_555
H18_3 C32_3 1_555 1_555
O8_3 C16_3 1_555 1_555
N4_3 C27_3 1_555 1_555
C34_3 C32_3 1_555 1_555
H20_3 C34_3 1_555 1_555
C16_3 C17_3 1_555 1_555
C24_3 C31_3 1_555 1_555
C27_3 C28_3 1_555 1_555
C69 N4_3 1_555 1_555
N4_3 C34_3 1_555 1_555
C69 H42_3 1_555 1_555
C69_2 H42_4 1_555 1_555
Zn11 O6 1_555 1_555
Zn3 O11_2 1_555 1_555
O23 Zn3 1_555 1_555
O14 C35_2 1_555 1_555
O15 C35_2 1_555 1_555
C35_2 C46_2 1_555 1_555
C41_2 C45_2 1_555 1_555
C45_2 H23_2 1_555 1_555
C46_2 C57_2 1_555 1_555
C47_2 C45_2 1_555 1_555
H24_2 C47_2 1_555 1_555
C49_2 H26_2 1_555 1_555
C50_2 O13_2 1_555 1_555
C51_2 C47_2 1_555 1_555
N7_2 C41_2 1_555 1_555
C57_2 C49_2 1_555 1_555
H31_2 C57_2 1_555 1_555
C58_2 C51_2 1_555 1_555
H32_2 C58_2 1_555 1_555
C60_2 C46_2 1_555 1_555
H34_2 C60_2 1_555 1_555
C61_2 C49_2 1_555 1_555
C62_2 C60_2 1_555 1_555
H35_2 C62_2 1_555 1_555
C63 N7_2 1_555 1_555
C65_2 C41_2 1_555 1_555
H37_2 C65_2 1_555 1_555
C66_2 N7_2 1_555 1_555
H38_2 C66_2 1_555 1_555
O16_2 C50_2 1_555 1_555
N8_2 C61_2 1_555 1_555
C68_2 C66_2 1_555 1_555
H40_2 C68_2 1_555 1_555
Zn6 O15 1_555 1_555
Zn10 O14 1_555 1_555
Cu3 C63 1_555 1_555
C50_2 C51_2 1_555 1_555
C58_2 C65_2 1_555 1_555
C61_2 C62_2 1_555 1_555
C63 N8_2 1_555 1_555
N8_2 C68_2 1_555 1_555
C69_3 Cu3 1_555 1_555
C63 H42_5 1_555 1_555
O14_2 C35_3 1_555 1_555
O15_2 C35_3 1_555 1_555
C35_3 C46_3 1_555 1_555
C41_3 C45_3 1_555 1_555
C45_3 H23_3 1_555 1_555
C46_3 C57_3 1_555 1_555
C47_3 C45_3 1_555 1_555
H24_3 C47_3 1_555 1_555
C49_3 H26_3 1_555 1_555
C50_3 O13_3 1_555 1_555
C51_3 C47_3 1_555 1_555
N7_3 C41_3 1_555 1_555
C57_3 C49_3 1_555 1_555
H31_3 C57_3 1_555 1_555
C58_3 C51_3 1_555 1_555
H32_3 C58_3 1_555 1_555
C60_3 C46_3 1_555 1_555
H34_3 C60_3 1_555 1_555
C61_3 C49_3 1_555 1_555
C62_3 C60_3 1_555 1_555
H35_3 C62_3 1_555 1_555
C63_2 N7_3 1_555 1_555
C65_3 C41_3 1_555 1_555
H37_3 C65_3 1_555 1_555
C66_3 N7_3 1_555 1_555
H38_3 C66_3 1_555 1_555
O16_3 C50_3 1_555 1_555
N8_3 C61_3 1_555 1_555
C68_3 C66_3 1_555 1_555
H40_3 C68_3 1_555 1_555
Zn6_2 O15_2 1_555 1_555
Zn10_2 O14_2 1_555 1_555
Cu3_2 C63_2 1_555 1_555
C50_3 C51_3 1_555 1_555
C58_3 C65_3 1_555 1_555
C61_3 C62_3 1_555 1_555
C63_2 N8_3 1_555 1_555
N8_3 C68_3 1_555 1_555
Zn5_2 O11_3 1_555 1_555
O23_2 Zn5_2 1_555 1_555
Zn11_2 O6_2 1_555 1_555
C69_4 Cu3_2 1_555 1_555
C63_2 H42_6 1_555 1_555
Cu1_4 C3_3 1_555 1_555
O4_2 C20_3 1_555 1_555
C2_3 N2_3 1_555 1_555
C3_3 N1_3 1_555 1_555
N2_3 C3_3 1_555 1_555
C5_3 C9_3 1_555 1_555
C9_3 H2_3 1_555 1_555
C18_3 C5_3 1_555 1_555
H7_3 C18_3 1_555 1_555
C19_3 C2_3 1_555 1_555
H8_3 C19_3 1_555 1_555
C20_3 C5_3 1_555 1_555
C25_3 N1_3 1_555 1_555
H13_3 C25_3 1_555 1_555
C30_3 N2_3 1_555 1_555
H16_3 C30_3 1_555 1_555
C33_3 C2_3 1_555 1_555
H19_3 C33_3 1_555 1_555
O9_3 C20_3 1_555 1_555
Zn11 O10_3 1_555 1_555
O10_3 C38_3 1_555 1_555
C38_3 C40_3 1_555 1_555
C40_3 C42_3 1_555 1_555
C42_3 H21_3 1_555 1_555
C48_3 C40_3 1_555 1_555
H25_3 C48_3 1_555 1_555
C55_3 C44_3 1_555 1_555
C56_3 C42_3 1_555 1_555
H30_3 C56_3 1_555 1_555
Zn11_2 O4_2 1_555 1_555
O19_2 Zn11 1_555 1_555
C9_3 C19_3 1_555 1_555
C18_3 C33_3 1_555 1_555
C25_3 C30_3 1_555 1_555
Zn11 O18_3 1_555 1_555
C44_3 C56_3 1_555 1_555
C48_3 C55_3 1_555 1_555
Zn11_2 O18_3 1_555 1_555
C3_3 H41_3 1_555 1_555
Zn6 O1_3 1_555 1_555
Zn10 O1_3 1_555 1_555
O1_3 Zn6_2 1_555 1_555
O2_3 Zn10 1_555 1_555
O3_4 Zn6 1_555 1_555
O5_4 Zn6 1_555 1_555
O23 C1_4 1_555 1_555
C1_4 C12_4 1_555 1_555
C4_3 O2_3 1_555 1_555
C6_3 C4_3 1_555 1_555
C7_4 C11_4 1_555 1_555
C8_3 C6_3 1_555 1_555
H1_3 C8_3 1_555 1_555
C10_3 C21_3 1_555 1_555
C11_4 H3_4 1_555 1_555
C12_4 C23_4 1_555 1_555
C13_4 C11_4 1_555 1_555
H4_4 C13_4 1_555 1_555
C14_3 C6_3 1_555 1_555
H5_3 C14_3 1_555 1_555
C15_4 H6_4 1_555 1_555
C16_4 O5_4 1_555 1_555
C17_4 C13_4 1_555 1_555
C21_3 C14_3 1_555 1_555
C22_3 C8_3 1_555 1_555
H10_3 C22_3 1_555 1_555
N3_4 C7_4 1_555 1_555
C23_4 C15_4 1_555 1_555
H11_4 C23_4 1_555 1_555
C24_4 C17_4 1_555 1_555
H12_4 C24_4 1_555 1_555
C26_4 C12_4 1_555 1_555
H14_4 C26_4 1_555 1_555
C27_4 C15_4 1_555 1_555
C28_4 C26_4 1_555 1_555
H15_4 C28_4 1_555 1_555
C69_4 N3_4 1_555 1_555
C31_4 C7_4 1_555 1_555
H17_4 C31_4 1_555 1_555
C32_4 N3_4 1_555 1_555
H18_4 C32_4 1_555 1_555
O8_4 C16_4 1_555 1_555
N4_4 C27_4 1_555 1_555
C34_4 C32_4 1_555 1_555
H20_4 C34_4 1_555 1_555
O12_2 C54_3 1_555 1_555
C36_3 N6_3 1_555 1_555
C37_3 Cu1_5 1_555 1_555
N5_3 C37_3 1_555 1_555
N6_3 C37_3 1_555 1_555
C39_3 C43_3 1_555 1_555
C43_3 H22_3 1_555 1_555
C52_3 C39_3 1_555 1_555
H27_3 C52_3 1_555 1_555
C53_3 C36_3 1_555 1_555
H28_3 C53_3 1_555 1_555
C54_3 C39_3 1_555 1_555
C59_3 N5_3 1_555 1_555
H33_3 C59_3 1_555 1_555
C64_3 N6_3 1_555 1_555
H36_3 C64_3 1_555 1_555
C67_3 C36_3 1_555 1_555
H39_3 C67_3 1_555 1_555
O17_3 C54_3 1_555 1_555
Zn10_2 O1_3 1_555 1_555
O20_2 Zn10 1_555 1_555
O3_4 C4_3 1_555 1_555
C10_3 C22_3 1_555 1_555
C16_4 C17_4 1_555 1_555
C24_4 C31_4 1_555 1_555
C27_4 C28_4 1_555 1_555
C69_4 N4_4 1_555 1_555
N4_4 C34_4 1_555 1_555
O12_2 Zn10_2 1_555 1_555
C43_3 C53_3 1_555 1_555
C52_3 C67_3 1_555 1_555
C59_3 C64_3 1_555 1_555
C69_4 H42_7 1_555 1_555
C37_3 H43_3 1_555 1_555
Cu1_6 C3_4 1_555 1_555
O2_4 Zn11_2 1_555 1_555
O20_2 C20_4 1_555 1_555
C2_4 N2_4 1_555 1_555
C3_4 N1_4 1_555 1_555
N1_4 C10_4 1_555 1_555
N2_4 C3_4 1_555 1_555
C4_4 O2_4 1_555 1_555
C5_4 C9_4 1_555 1_555
C6_4 C4_4 1_555 1_555
C8_4 C6_4 1_555 1_555
H1_4 C8_4 1_555 1_555
C9_4 H2_4 1_555 1_555
C10_4 C21_4 1_555 1_555
C14_4 C6_4 1_555 1_555
H5_4 C14_4 1_555 1_555
C18_4 C5_4 1_555 1_555
H7_4 C18_4 1_555 1_555
C19_4 C2_4 1_555 1_555
H8_4 C19_4 1_555 1_555
C20_4 C5_4 1_555 1_555
C21_4 C14_4 1_555 1_555
H9_4 C21_4 1_555 1_555
C22_4 C8_4 1_555 1_555
H10_4 C22_4 1_555 1_555
C25_4 N1_4 1_555 1_555
H13_4 C25_4 1_555 1_555
C30_4 N2_4 1_555 1_555
H16_4 C30_4 1_555 1_555
C33_4 C2_4 1_555 1_555
H19_4 C33_4 1_555 1_555
O9_4 C20_4 1_555 1_555
Zn6_2 O11_4 1_555 1_555
Zn10_2 O10_4 1_555 1_555
O10_4 C38_4 1_555 1_555
O11_4 C38_4 1_555 1_555
O19_2 C54_4 1_555 1_555
O13_4 Zn6_2 1_555 1_555
O23_2 C35_4 1_555 1_555
C35_4 C46_4 1_555 1_555
C36_4 N6_4 1_555 1_555
C37_4 Cu1_6 1_555 1_555
N5_4 C37_4 1_555 1_555
N6_4 C37_4 1_555 1_555
C38_4 C40_4 1_555 1_555
C39_4 C43_4 1_555 1_555
C40_4 C42_4 1_555 1_555
C41_4 C45_4 1_555 1_555
C42_4 H21_4 1_555 1_555
C43_4 H22_4 1_555 1_555
C44_4 N5_4 1_555 1_555
C45_4 H23_4 1_555 1_555
C46_4 C57_4 1_555 1_555
C47_4 C45_4 1_555 1_555
H24_4 C47_4 1_555 1_555
C48_4 C40_4 1_555 1_555
H25_4 C48_4 1_555 1_555
C49_4 H26_4 1_555 1_555
C50_4 O13_4 1_555 1_555
C51_4 C47_4 1_555 1_555
C52_4 C39_4 1_555 1_555
H27_4 C52_4 1_555 1_555
C53_4 C36_4 1_555 1_555
H28_4 C53_4 1_555 1_555
C54_4 C39_4 1_555 1_555
C55_4 C44_4 1_555 1_555
H29_4 C55_4 1_555 1_555
C56_4 C42_4 1_555 1_555
H30_4 C56_4 1_555 1_555
N7_4 C41_4 1_555 1_555
C57_4 C49_4 1_555 1_555
H31_4 C57_4 1_555 1_555
C58_4 C51_4 1_555 1_555
H32_4 C58_4 1_555 1_555
C59_4 N5_4 1_555 1_555
H33_4 C59_4 1_555 1_555
C60_4 C46_4 1_555 1_555
H34_4 C60_4 1_555 1_555
C61_4 C49_4 1_555 1_555
C62_4 C60_4 1_555 1_555
H35_4 C62_4 1_555 1_555
C69_3 N7_4 1_555 1_555
C64_4 N6_4 1_555 1_555
H36_4 C64_4 1_555 1_555
C65_4 C41_4 1_555 1_555
H37_4 C65_4 1_555 1_555
C66_4 N7_4 1_555 1_555
H38_4 C66_4 1_555 1_555
C67_4 C36_4 1_555 1_555
H39_4 C67_4 1_555 1_555
O16_4 C50_4 1_555 1_555
O17_4 C54_4 1_555 1_555
N8_4 C61_4 1_555 1_555
C68_4 C66_4 1_555 1_555
H40_4 C68_4 1_555 1_555
C9_4 C19_4 1_555 1_555
C10_4 C22_4 1_555 1_555
C18_4 C33_4 1_555 1_555
C25_4 C30_4 1_555 1_555
C43_4 C53_4 1_555 1_555
C44_4 C56_4 1_555 1_555
C48_4 C55_4 1_555 1_555
C50_4 C51_4 1_555 1_555
C52_4 C67_4 1_555 1_555
C58_4 C65_4 1_555 1_555
C59_4 C64_4 1_555 1_555
C61_4 C62_4 1_555 1_555
C69_3 N8_4 1_555 1_555
N8_4 C68_4 1_555 1_555
C3_4 H41_4 1_555 1_555
C37_4 H43_4 1_555 1_555
C69_3 H42_8 1_555 1_555
Zn11_3 O6_3 1_555 1_555
Zn3_2 O11_5 1_555 1_555
O13_5 Zn3_2 1_555 1_555
O14_3 C35_5 1_555 1_555
O15_3 C35_5 1_555 1_555
C35_5 C46_5 1_555 1_555
C41_5 C45_5 1_555 1_555
C45_5 H23_5 1_555 1_555
C46_5 C57_5 1_555 1_555
C47_5 C45_5 1_555 1_555
H24_5 C47_5 1_555 1_555
C49_5 H26_5 1_555 1_555
C50_5 O13_5 1_555 1_555
C51_5 C47_5 1_555 1_555
N7_5 C41_5 1_555 1_555
C57_5 C49_5 1_555 1_555
H31_5 C57_5 1_555 1_555
C58_5 C51_5 1_555 1_555
H32_5 C58_5 1_555 1_555
C60_5 C46_5 1_555 1_555
H34_5 C60_5 1_555 1_555
C61_5 C49_5 1_555 1_555
C62_5 C60_5 1_555 1_555
H35_5 C62_5 1_555 1_555
C63_3 N7_5 1_555 1_555
C65_5 C41_5 1_555 1_555
H37_5 C65_5 1_555 1_555
C66_5 N7_5 1_555 1_555
H38_5 C66_5 1_555 1_555
O16_5 C50_5 1_555 1_555
N8_5 C61_5 1_555 1_555
C68_5 C66_5 1_555 1_555
H40_5 C68_5 1_555 1_555
Zn6_3 O15_3 1_555 1_555
Zn10_3 O14_3 1_555 1_555
O23_3 Zn3_2 1_555 1_555
Cu3_3 C63_3 1_555 1_555
C50_5 C51_5 1_555 1_555
C58_5 C65_5 1_555 1_555
C61_5 C62_5 1_555 1_555
C63_3 N8_5 1_555 1_555
N8_5 C68_5 1_555 1_555
Zn10_4 O14_4 1_555 1_555
O3_5 Zn1_2 1_555 1_555
O5_5 Zn1_2 1_555 1_555
O6_4 C1_5 1_555 1_555
O7_3 C1_5 1_555 1_555
C1_5 C12_5 1_555 1_555
C7_5 C11_5 1_555 1_555
C11_5 H3_5 1_555 1_555
C12_5 C23_5 1_555 1_555
C13_5 C11_5 1_555 1_555
H4_5 C13_5 1_555 1_555
C15_5 H6_5 1_555 1_555
C16_5 O5_5 1_555 1_555
C17_5 C13_5 1_555 1_555
N3_5 C7_5 1_555 1_555
C23_5 C15_5 1_555 1_555
H11_5 C23_5 1_555 1_555
C24_5 C17_5 1_555 1_555
H12_5 C24_5 1_555 1_555
C26_5 C12_5 1_555 1_555
H14_5 C26_5 1_555 1_555
C27_5 C15_5 1_555 1_555
C28_5 C26_5 1_555 1_555
H15_5 C28_5 1_555 1_555
Cu2_3 C29_3 1_555 1_555
C29_3 N3_5 1_555 1_555
C31_5 C7_5 1_555 1_555
H17_5 C31_5 1_555 1_555
C32_5 N3_5 1_555 1_555
H18_5 C32_5 1_555 1_555
O8_5 C16_5 1_555 1_555
N4_5 C27_5 1_555 1_555
C34_5 C32_5 1_555 1_555
H20_5 C34_5 1_555 1_555
Zn7_3 O7_3 1_555 1_555
Zn11_4 O6_4 1_555 1_555
O24_3 Zn1_2 1_555 1_555
C69_5 Cu2_3 1_555 1_555
C16_5 C17_5 1_555 1_555
C24_5 C31_5 1_555 1_555
C27_5 C28_5 1_555 1_555
C29_3 N4_5 1_555 1_555
N4_5 C34_5 1_555 1_555
C29_3 H42_9 1_555 1_555
C69_6 Cu3_3 1_555 1_555
C63_3 H42_10 1_555 1_555
Cu1_7 C3_5 1_555 1_555
O4_3 C20_5 1_555 1_555
C2_5 N2_5 1_555 1_555
C3_5 N1_5 1_555 1_555
N2_5 C3_5 1_555 1_555
C5_5 C9_5 1_555 1_555
C9_5 H2_5 1_555 1_555
C18_5 C5_5 1_555 1_555
H7_5 C18_5 1_555 1_555
C19_5 C2_5 1_555 1_555
H8_5 C19_5 1_555 1_555
C20_5 C5_5 1_555 1_555
C25_5 N1_5 1_555 1_555
H13_5 C25_5 1_555 1_555
C30_5 N2_5 1_555 1_555
H16_5 C30_5 1_555 1_555
C33_5 C2_5 1_555 1_555
O9_5 C20_5 1_555 1_555
H25_5 C48_5 1_555 1_555
C55_5 C44_5 1_555 1_555
Zn10_4 O4_3 1_555 1_555
C9_5 C19_5 1_555 1_555
C18_5 C33_5 1_555 1_555
C25_5 C30_5 1_555 1_555
C48_5 C55_5 1_555 1_555
Zn10_4 O18_4 1_555 1_555
Zn11_3 O10_5 1_555 1_555
O10_5 C38_5 1_555 1_555
C38_5 C40_5 1_555 1_555
C40_5 C42_5 1_555 1_555
C42_5 H21_5 1_555 1_555
C56_5 C42_5 1_555 1_555
H30_5 C56_5 1_555 1_555
O19_3 Zn11_3 1_555 1_555
Zn11_3 O18_5 1_555 1_555
O1_4 Zn7_3 1_555 1_555
O23_3 C1_6 1_555 1_555
C1_6 C12_6 1_555 1_555
C7_6 C11_6 1_555 1_555
C10_5 C21_5 1_555 1_555
C11_6 H3_6 1_555 1_555
C12_6 C23_6 1_555 1_555
C13_6 C11_6 1_555 1_555
H4_6 C13_6 1_555 1_555
H5_5 C14_5 1_555 1_555
C15_6 H6_6 1_555 1_555
C16_6 O5_6 1_555 1_555
C17_6 C13_6 1_555 1_555
C21_5 C14_5 1_555 1_555
N3_6 C7_6 1_555 1_555
C23_6 C15_6 1_555 1_555
H11_6 C23_6 1_555 1_555
C24_6 C17_6 1_555 1_555
H12_6 C24_6 1_555 1_555
C26_6 C12_6 1_555 1_555
H14_6 C26_6 1_555 1_555
C27_6 C15_6 1_555 1_555
C28_6 C26_6 1_555 1_555
H15_6 C28_6 1_555 1_555
C69_5 N3_6 1_555 1_555
C31_6 C7_6 1_555 1_555
H17_6 C31_6 1_555 1_555
C32_6 N3_6 1_555 1_555
H18_6 C32_6 1_555 1_555
O8_6 C16_6 1_555 1_555
N4_6 C27_6 1_555 1_555
C34_6 C32_6 1_555 1_555
H20_6 C34_6 1_555 1_555
O12_3 C54_5 1_555 1_555
C36_5 N6_5 1_555 1_555
C37_5 Cu1_8 1_555 1_555
N5_5 C37_5 1_555 1_555
N6_5 C37_5 1_555 1_555
C39_5 C43_5 1_555 1_555
C43_5 H22_5 1_555 1_555
C52_5 C39_5 1_555 1_555
H27_5 C52_5 1_555 1_555
C53_5 C36_5 1_555 1_555
H28_5 C53_5 1_555 1_555
C54_5 C39_5 1_555 1_555
C59_5 N5_5 1_555 1_555
H33_5 C59_5 1_555 1_555
C64_5 N6_5 1_555 1_555
H36_5 C64_5 1_555 1_555
C67_5 C36_5 1_555 1_555
O17_5 C54_5 1_555 1_555
Zn11_4 O1_4 1_555 1_555
C16_6 C17_6 1_555 1_555
C24_6 C31_6 1_555 1_555
C27_6 C28_6 1_555 1_555
C69_5 N4_6 1_555 1_555
N4_6 C34_6 1_555 1_555
O12_3 Zn11_4 1_555 1_555
C43_5 C53_5 1_555 1_555
C52_5 C67_5 1_555 1_555
C59_5 C64_5 1_555 1_555
C69_5 H42_11 1_555 1_555
Zn6_3 O1_5 1_555 1_555
Zn10_3 O1_5 1_555 1_555
O2_5 Zn10_3 1_555 1_555
O3_6 Zn6_3 1_555 1_555
C4_5 O2_5 1_555 1_555
C6_5 C4_5 1_555 1_555
C8_5 C6_5 1_555 1_555
H1_5 C8_5 1_555 1_555
C22_5 C8_5 1_555 1_555
H10_5 C22_5 1_555 1_555
O20_3 Zn10_3 1_555 1_555
O3_6 C4_5 1_555 1_555
O2_6 Zn11_4 1_555 1_555
O3_7 Zn7_3 1_555 1_555
C4_6 O2_6 1_555 1_555
C6_6 C4_6 1_555 1_555
C8_6 C6_6 1_555 1_555
H1_6 C8_6 1_555 1_555
C22_6 C8_6 1_555 1_555
H10_6 C22_6 1_555 1_555
Zn10_4 O10_6 1_555 1_555
O10_6 C38_6 1_555 1_555
C38_6 C40_6 1_555 1_555
C40_6 C42_6 1_555 1_555
C42_6 H21_6 1_555 1_555
C56_6 C42_6 1_555 1_555
H30_6 C56_6 1_555 1_555
O3_7 C4_6 1_555 1_555
Cu1_9 C3_6 1_555 1_555
O19_3 C20_6 1_555 1_555
O24_3 C1_7 1_555 1_555
C1_7 C12_7 1_555 1_555
C2_6 N2_6 1_555 1_555
C3_6 N1_6 1_555 1_555
N1_6 C10_6 1_555 1_555
N2_6 C3_6 1_555 1_555
C5_6 C9_6 1_555 1_555
C7_7 C11_7 1_555 1_555
C9_6 H2_6 1_555 1_555
C10_6 C21_6 1_555 1_555
C11_7 H3_7 1_555 1_555
C12_7 C23_7 1_555 1_555
C13_7 C11_7 1_555 1_555
H4_7 C13_7 1_555 1_555
H5_6 C14_6 1_555 1_555
C15_7 H6_7 1_555 1_555
C16_7 O5_7 1_555 1_555
C17_7 C13_7 1_555 1_555
C18_6 C5_6 1_555 1_555
H7_6 C18_6 1_555 1_555
C19_6 C2_6 1_555 1_555
H8_6 C19_6 1_555 1_555
C20_6 C5_6 1_555 1_555
C21_6 C14_6 1_555 1_555
H9_6 C21_6 1_555 1_555
N3_7 C7_7 1_555 1_555
C23_7 C15_7 1_555 1_555
H11_7 C23_7 1_555 1_555
C24_7 C17_7 1_555 1_555
H12_7 C24_7 1_555 1_555
C25_6 N1_6 1_555 1_555
H13_6 C25_6 1_555 1_555
C26_7 C12_7 1_555 1_555
H14_7 C26_7 1_555 1_555
C27_7 C15_7 1_555 1_555
C28_7 C26_7 1_555 1_555
H15_7 C28_7 1_555 1_555
C69_6 N3_7 1_555 1_555
C30_6 N2_6 1_555 1_555
H16_6 C30_6 1_555 1_555
C31_7 C7_7 1_555 1_555
H17_7 C31_7 1_555 1_555
C32_7 N3_7 1_555 1_555
H18_7 C32_7 1_555 1_555
C33_6 C2_6 1_555 1_555
O8_7 C16_7 1_555 1_555
O9_6 C20_6 1_555 1_555
N4_7 C27_7 1_555 1_555
C34_7 C32_7 1_555 1_555
H20_7 C34_7 1_555 1_555
O20_3 C54_6 1_555 1_555
C36_6 N6_6 1_555 1_555
C37_6 Cu1_9 1_555 1_555
N5_6 C37_6 1_555 1_555
N6_6 C37_6 1_555 1_555
C39_6 C43_6 1_555 1_555
C43_6 H22_6 1_555 1_555
C44_6 N5_6 1_555 1_555
H25_6 C48_6 1_555 1_555
C52_6 C39_6 1_555 1_555
H27_6 C52_6 1_555 1_555
C53_6 C36_6 1_555 1_555
H28_6 C53_6 1_555 1_555
C54_6 C39_6 1_555 1_555
C55_6 C44_6 1_555 1_555
H29_6 C55_6 1_555 1_555
C59_6 N5_6 1_555 1_555
H33_6 C59_6 1_555 1_555
C64_6 N6_6 1_555 1_555
H36_6 C64_6 1_555 1_555
C67_6 C36_6 1_555 1_555
O17_6 C54_6 1_555 1_555
C9_6 C19_6 1_555 1_555
C16_7 C17_7 1_555 1_555
C18_6 C33_6 1_555 1_555
C24_7 C31_7 1_555 1_555
C25_6 C30_6 1_555 1_555
C27_7 C28_7 1_555 1_555
C69_6 N4_7 1_555 1_555
N4_7 C34_7 1_555 1_555
C43_6 C53_6 1_555 1_555
C48_6 C55_6 1_555 1_555
C52_6 C67_6 1_555 1_555
C59_6 C64_6 1_555 1_555
C69_6 H42_12 1_555 1_555
Zn1_3 O1_6 1_555 1_555
Zn2_2 O1_6 1_555 1_555
O1_6 Zn5_3 1_555 1_555
O2_7 Zn2_2 1_555 1_555
O3_8 Zn1_3 1_555 1_555
O5_8 Zn1_3 1_555 1_555
O7_4 C1_8 1_555 1_555
C1_8 C12_8 1_555 1_555
C4_7 O2_7 1_555 1_555
C6_7 C4_7 1_555 1_555
C7_8 C11_8 1_555 1_555
C8_7 C6_7 1_555 1_555
H1_7 C8_7 1_555 1_555
C10_7 C21_7 1_555 1_555
C11_8 H3_8 1_555 1_555
C12_8 C23_8 1_555 1_555
C13_8 C11_8 1_555 1_555
H4_8 C13_8 1_555 1_555
C14_7 C6_7 1_555 1_555
H5_7 C14_7 1_555 1_555
C15_8 H6_8 1_555 1_555
C16_8 O5_8 1_555 1_555
C17_8 C13_8 1_555 1_555
C21_7 C14_7 1_555 1_555
C22_7 C8_7 1_555 1_555
H10_7 C22_7 1_555 1_555
N3_8 C7_8 1_555 1_555
C23_8 C15_8 1_555 1_555
H11_8 C23_8 1_555 1_555
C24_8 C17_8 1_555 1_555
H12_8 C24_8 1_555 1_555
C26_8 C12_8 1_555 1_555
H14_8 C26_8 1_555 1_555
C27_8 C15_8 1_555 1_555
C28_8 C26_8 1_555 1_555
H15_8 C28_8 1_555 1_555
Cu2_4 C29_4 1_555 1_555
C29_4 N3_8 1_555 1_555
C31_8 C7_8 1_555 1_555
H17_8 C31_8 1_555 1_555
C32_8 N3_8 1_555 1_555
H18_8 C32_8 1_555 1_555
O8_8 C16_8 1_555 1_555
N4_8 C27_8 1_555 1_555
C34_8 C32_8 1_555 1_555
H20_8 C34_8 1_555 1_555
O12_4 C54_7 1_555 1_555
C36_7 N6_7 1_555 1_555
C37_7 Cu1_10 1_555 1_555
N5_7 C37_7 1_555 1_555
N6_7 C37_7 1_555 1_555
C39_7 C43_7 1_555 1_555
C43_7 H22_7 1_555 1_555
C52_7 C39_7 1_555 1_555
H27_7 C52_7 1_555 1_555
C53_7 C36_7 1_555 1_555
H28_7 C53_7 1_555 1_555
C54_7 C39_7 1_555 1_555
C59_7 N5_7 1_555 1_555
H33_7 C59_7 1_555 1_555
C64_7 N6_7 1_555 1_555
H36_7 C64_7 1_555 1_555
C67_7 C36_7 1_555 1_555
H39_7 C67_7 1_555 1_555
O17_7 C54_7 1_555 1_555
Zn7_4 O7_4 1_555 1_555
Zn8_2 O1_6 1_555 1_555
O20_4 Zn2_2 1_555 1_555
O22_3 Zn2_2 1_555 1_555
O24_4 Zn1_3 1_555 1_555
C69_7 Cu2_4 1_555 1_555
O3_8 C4_7 1_555 1_555
C10_7 C22_7 1_555 1_555
C16_8 C17_8 1_555 1_555
C24_8 C31_8 1_555 1_555
C27_8 C28_8 1_555 1_555
C29_4 N4_8 1_555 1_555
N4_8 C34_8 1_555 1_555
O12_4 Zn8_2 1_555 1_555
C43_7 C53_7 1_555 1_555
C52_7 C67_7 1_555 1_555
C59_7 C64_7 1_555 1_555
C29_4 H42_13 1_555 1_555
C37_7 H43_7 1_555 1_555
Cu1_11 C3_7 1_555 1_555
O4_4 C20_7 1_555 1_555
C2_7 N2_7 1_555 1_555
C3_7 N1_7 1_555 1_555
N2_7 C3_7 1_555 1_555
C5_7 C9_7 1_555 1_555
C9_7 H2_7 1_555 1_555
C18_7 C5_7 1_555 1_555
H7_7 C18_7 1_555 1_555
C19_7 C2_7 1_555 1_555
H8_7 C19_7 1_555 1_555
C20_7 C5_7 1_555 1_555
C25_7 N1_7 1_555 1_555
H13_7 C25_7 1_555 1_555
C30_7 N2_7 1_555 1_555
H16_7 C30_7 1_555 1_555
C33_7 C2_7 1_555 1_555
H19_7 C33_7 1_555 1_555
O9_7 C20_7 1_555 1_555
Zn4_2 O10_7 1_555 1_555
O10_7 C38_7 1_555 1_555
C38_7 C40_7 1_555 1_555
C40_7 C42_7 1_555 1_555
C42_7 H21_7 1_555 1_555
C48_7 C40_7 1_555 1_555
H25_7 C48_7 1_555 1_555
C55_7 C44_7 1_555 1_555
C56_7 C42_7 1_555 1_555
H30_7 C56_7 1_555 1_555
Zn9_2 O4_4 1_555 1_555
O19_4 Zn4_2 1_555 1_555
O21_3 Zn4_2 1_555 1_555
C9_7 C19_7 1_555 1_555
C18_7 C33_7 1_555 1_555
C25_7 C30_7 1_555 1_555
Zn4_2 O18_6 1_555 1_555
C44_7 C56_7 1_555 1_555
C48_7 C55_7 1_555 1_555
Zn9_2 O18_6 1_555 1_555
C3_7 H41_7 1_555 1_555
Cu1_12 C3_8 1_555 1_555
O2_8 Zn9_2 1_555 1_555
O20_4 C20_8 1_555 1_555
C2_8 N2_8 1_555 1_555
C3_8 N1_8 1_555 1_555
N1_8 C10_8 1_555 1_555
N2_8 C3_8 1_555 1_555
C4_8 O2_8 1_555 1_555
C5_8 C9_8 1_555 1_555
C6_8 C4_8 1_555 1_555
C8_8 C6_8 1_555 1_555
H1_8 C8_8 1_555 1_555
C9_8 H2_8 1_555 1_555
C10_8 C21_8 1_555 1_555
C14_8 C6_8 1_555 1_555
H5_8 C14_8 1_555 1_555
C18_8 C5_8 1_555 1_555
H7_8 C18_8 1_555 1_555
C19_8 C2_8 1_555 1_555
H8_8 C19_8 1_555 1_555
C20_8 C5_8 1_555 1_555
C21_8 C14_8 1_555 1_555
H9_8 C21_8 1_555 1_555
C22_8 C8_8 1_555 1_555
H10_8 C22_8 1_555 1_555
C25_8 N1_8 1_555 1_555
H13_8 C25_8 1_555 1_555
C30_8 N2_8 1_555 1_555
H16_8 C30_8 1_555 1_555
C33_8 C2_8 1_555 1_555
H19_8 C33_8 1_555 1_555
O9_8 C20_8 1_555 1_555
Zn5_3 O11_6 1_555 1_555
Zn8_2 O10_8 1_555 1_555
O10_8 C38_8 1_555 1_555
O11_6 C38_8 1_555 1_555
O19_4 C54_8 1_555 1_555
O13_6 Zn5_3 1_555 1_555
O15_4 C35_6 1_555 1_555
C35_6 C46_6 1_555 1_555
C36_8 N6_8 1_555 1_555
C37_8 Cu1_12 1_555 1_555
N5_8 C37_8 1_555 1_555
N6_8 C37_8 1_555 1_555
C38_8 C40_8 1_555 1_555
C39_8 C43_8 1_555 1_555
C40_8 C42_8 1_555 1_555
C41_6 C45_6 1_555 1_555
C42_8 H21_8 1_555 1_555
C43_8 H22_8 1_555 1_555
C44_8 N5_8 1_555 1_555
C45_6 H23_6 1_555 1_555
C46_6 C57_6 1_555 1_555
C47_6 C45_6 1_555 1_555
H24_6 C47_6 1_555 1_555
C48_8 C40_8 1_555 1_555
H25_8 C48_8 1_555 1_555
C49_6 H26_6 1_555 1_555
C50_6 O13_6 1_555 1_555
C51_6 C47_6 1_555 1_555
C52_8 C39_8 1_555 1_555
H27_8 C52_8 1_555 1_555
C53_8 C36_8 1_555 1_555
H28_8 C53_8 1_555 1_555
C54_8 C39_8 1_555 1_555
C55_8 C44_8 1_555 1_555
H29_8 C55_8 1_555 1_555
C56_8 C42_8 1_555 1_555
H30_8 C56_8 1_555 1_555
N7_6 C41_6 1_555 1_555
C57_6 C49_6 1_555 1_555
H31_6 C57_6 1_555 1_555
C58_6 C51_6 1_555 1_555
H32_6 C58_6 1_555 1_555
C59_8 N5_8 1_555 1_555
H33_8 C59_8 1_555 1_555
C60_6 C46_6 1_555 1_555
H34_6 C60_6 1_555 1_555
C61_6 C49_6 1_555 1_555
C62_6 C60_6 1_555 1_555
H35_6 C62_6 1_555 1_555
C63_4 N7_6 1_555 1_555
C64_8 N6_8 1_555 1_555
H36_8 C64_8 1_555 1_555
C65_6 C41_6 1_555 1_555
H37_6 C65_6 1_555 1_555
C66_6 N7_6 1_555 1_555
H38_6 C66_6 1_555 1_555
C67_8 C36_8 1_555 1_555
H39_8 C67_8 1_555 1_555
O16_6 C50_6 1_555 1_555
O17_8 C54_8 1_555 1_555
N8_6 C61_6 1_555 1_555
C68_6 C66_6 1_555 1_555
H40_6 C68_6 1_555 1_555
Zn6_4 O15_4 1_555 1_555
O21_4 Zn8_2 1_555 1_555
O22_4 Zn9_2 1_555 1_555
O23_4 Zn5_3 1_555 1_555
Cu3_4 C63_4 1_555 1_555
C9_8 C19_8 1_555 1_555
C10_8 C22_8 1_555 1_555
C18_8 C33_8 1_555 1_555
C25_8 C30_8 1_555 1_555
C43_8 C53_8 1_555 1_555
C44_8 C56_8 1_555 1_555
C48_8 C55_8 1_555 1_555
C50_6 C51_6 1_555 1_555
C52_8 C67_8 1_555 1_555
C58_6 C65_6 1_555 1_555
C59_8 C64_8 1_555 1_555
C61_6 C62_6 1_555 1_555
C63_4 N8_6 1_555 1_555
N8_6 C68_6 1_555 1_555
C3_8 H41_8 1_555 1_555
C37_8 H43_8 1_555 1_555
C69_8 Cu3_4 1_555 1_555
C63_4 H42_14 1_555 1_555
O22_3 C35_7 1_555 1_555
O24_4 C35_7 1_555 1_555
C35_7 C46_7 1_555 1_555
C41_7 C45_7 1_555 1_555
C45_7 H23_7 1_555 1_555
C46_7 C57_7 1_555 1_555
C47_7 C45_7 1_555 1_555
H24_7 C47_7 1_555 1_555
C49_7 H26_7 1_555 1_555
C50_7 O13_7 1_555 1_555
C51_7 C47_7 1_555 1_555
N7_7 C41_7 1_555 1_555
C57_7 C49_7 1_555 1_555
H31_7 C57_7 1_555 1_555
C58_7 C51_7 1_555 1_555
H32_7 C58_7 1_555 1_555
C60_7 C46_7 1_555 1_555
H34_7 C60_7 1_555 1_555
C61_7 C49_7 1_555 1_555
C62_7 C60_7 1_555 1_555
H35_7 C62_7 1_555 1_555
C69_8 N7_7 1_555 1_555
C65_7 C41_7 1_555 1_555
H37_7 C65_7 1_555 1_555
C66_7 N7_7 1_555 1_555
H38_7 C66_7 1_555 1_555
O16_7 C50_7 1_555 1_555
N8_7 C61_7 1_555 1_555
C68_7 C66_7 1_555 1_555
H40_7 C68_7 1_555 1_555
C50_7 C51_7 1_555 1_555
C58_7 C65_7 1_555 1_555
C61_7 C62_7 1_555 1_555
C69_8 N8_7 1_555 1_555
N8_7 C68_7 1_555 1_555
Zn7_4 O11_7 1_555 1_555
C69_8 H42_15 1_555 1_555
Zn6_4 O11_8 1_555 1_555
O21_4 C35_8 1_555 1_555
O23_4 C35_8 1_555 1_555
C35_8 C46_8 1_555 1_555
C41_8 C45_8 1_555 1_555
C45_8 H23_8 1_555 1_555
C46_8 C57_8 1_555 1_555
C47_8 C45_8 1_555 1_555
H24_8 C47_8 1_555 1_555
C49_8 H26_8 1_555 1_555
C50_8 O13_8 1_555 1_555
C51_8 C47_8 1_555 1_555
N7_8 C41_8 1_555 1_555
C57_8 C49_8 1_555 1_555
H31_8 C57_8 1_555 1_555
C58_8 C51_8 1_555 1_555
H32_8 C58_8 1_555 1_555
C60_8 C46_8 1_555 1_555
H34_8 C60_8 1_555 1_555
C61_8 C49_8 1_555 1_555
C62_8 C60_8 1_555 1_555
H35_8 C62_8 1_555 1_555
C69_7 N7_8 1_555 1_555
C65_8 C41_8 1_555 1_555
H37_8 C65_8 1_555 1_555
C66_8 N7_8 1_555 1_555
H38_8 C66_8 1_555 1_555
O16_8 C50_8 1_555 1_555
N8_8 C61_8 1_555 1_555
C68_8 C66_8 1_555 1_555
H40_8 C68_8 1_555 1_555
C50_8 C51_8 1_555 1_555
C58_8 C65_8 1_555 1_555
C61_8 C62_8 1_555 1_555
C69_7 N8_8 1_555 1_555
N8_8 C68_8 1_555 1_555
C69_7 H42_16 1_555 1_555

#END
