
###############################################################################
#
# This file contains modified crystal structure data generated from the
# MOF subset of the Cambridge Structural Database (CSD) v543 
# hosted by the Cambridge Crystallographic Data Centre (CCDC).
#
# This work is licensed under the Creative Commons
# Attribution-NonCommercial-ShareAlike 4.0 International License.
# To view a copy of this license, visit
# http://creativecommons.org/licenses/by-nc-sa/4.0/
# or send a letter to
# Creative Commons, PO Box 1866, Mountain View, CA 94042, USA.
#
# CIF created using the CSD Python API on 29 September 2022
# The structure has been converted into the P1 space group
# The structure has a 3D framework
# The original CSD entry YOGKOW is in the rhombohedral crystal system
# The framework has been calculated to contain at least 10.0% void space
# The void calculation uses a probe of radius 1.32A, grid spacing 0.4
# H atom positions have been added when not included in the experimental data
# Generated hydrogen atom positions removed from atoms on special positions
#
###############################################################################

data_YOGKOW
_chemical_formula_moiety         '(C282 H274 O82 Zn18)n'
_symmetry_cell_setting           triclinic
_symmetry_space_group_name_H-M   'P 1'
_symmetry_Int_Tables_number      1
_space_group_name_Hall           'P 1'
loop_
_symmetry_equiv_pos_site_id
_symmetry_equiv_pos_as_xyz
1 x,y,z
_cell_length_a                   27.063(9)
_cell_length_b                   27.063(9)
_cell_length_c                   16.107(3)
_cell_angle_alpha                90
_cell_angle_beta                 90
_cell_angle_gamma                120
_cell_volume                     10216.4
loop_
_atom_site_label
_atom_site_type_symbol
_atom_site_fract_x
_atom_site_fract_y
_atom_site_fract_z
Zn1 Zn 0.13443(2) 0.26886(2) 0.34117(3)
O1 O 0.19512(11) 0.28390(14) 0.25573(19)
O2 O 0.24271(13) 0.37919(14) 0.2422(2)
O3 O 0.09245(8) 0.18491(16) 0.3448(4)
C1 C 0.3333 0.3766(2) 0.1667
H1 H 0.3333 0.4117 0.1667
C2 C 0.28670(13) 0.32749(16) 0.1964(2)
C3 C 0.28620(13) 0.27624(16) 0.1954(2)
H2 H 0.2534 0.2426 0.2144
C4 C 0.3333 0.27329(19) 0.1667
C5 C 0.23715(15) 0.3307(2) 0.2336(2)
C6 C 0.3333 0.21845(19) 0.1667
C7 C 0.31263(15) 0.18280(15) 0.0976(2)
C8 C 0.29101(19) 0.1971(2) 0.0247(2)
H3 H 0.2906 0.2320 0.0233
O4 O 0.47155(11) 0.42211(18) 0.07760(19)
O5 O 0.42396(13) 0.46981(19) 0.0911(2)
C10 C 0.37997(13) 0.37412(21) 0.1369(2)
C11 C 0.38047(13) 0.32337(21) 0.1379(2)
H5 H 0.4133 0.3225 0.1189
C12 C 0.42952(15) 0.42688(25) 0.0997(2)
C13 C 0.35404(15) 0.20350(21) 0.2357(2)
C14 C 0.37566(19) 0.23942(28) 0.3086(2)
H6 H 0.3761 0.2747 0.3100
C15 C 0.3952(2) 0.2236(3) 0.3747(3)
H7 H 0.4091 0.2479 0.4218
C18 C 0.28620(13) 0.00996(21) 0.1954(2)
H9 H 0.2534 0.0108 0.2144
C19 C 0.3333 0.06001(19) 0.1667
C21 C 0.3333 0.11485(19) 0.1667
C22 C 0.31263(15) 0.12983(21) 0.0976(2)
C23 C 0.29101(19) 0.09391(28) 0.0247(2)
H10 H 0.2906 0.0586 0.0233
O8 O 0.47155(11) 0.04943(14) 0.07760(19)
C25 C 0.37997(13) 0.00584(16) 0.1369(2)
C26 C 0.38047(13) 0.05709(16) 0.1379(2)
H12 H 0.4133 0.0907 0.1189
C27 C 0.42952(15) 0.0026(2) 0.0997(2)
C28 C 0.35404(15) 0.15053(15) 0.2357(2)
C29 C 0.37566(19) 0.1362(2) 0.3086(2)
H13 H 0.3761 0.1013 0.3100
C30 C 0.3952(2) 0.1715(2) 0.3747(3)
H14 H 0.4091 0.1611 0.4218
Zn2 Zn 0.19890(3) 0.39781(2) 0.32550(3)
O10 O 0.24087(18) 0.48176(16) 0.3219(4)
Zn7 Zn 0.46776(3) 0.53224(2) 0.00784(3)
O11 O 0.24455(18) 0.38277(14) 0.41094(19)
O12 O 0.08878(18) 0.28390(14) 0.25573(19)
O13 O 0.13821(11) 0.38277(14) 0.41094(19)
O14 O 0.19685(19) 0.28748(14) 0.4245(2)
O15 O 0.13648(19) 0.37919(14) 0.2422(2)
O16 O 0.09062(13) 0.28748(14) 0.4245(2)
C9 C 0.2715(2) 0.1618(2) 0.9586(3)
H4 H 0.2576 0.1722 0.9115
C24 C 0.2715(2) 0.1097(3) 0.9586(3)
H11 H 0.2576 0.0854 0.9115
Zn4 Zn 0.53224(3) 0.06447(2) 0.99216(3)
Zn5 Zn 0.53224(2) 0.46776(3) 0.99216(3)
O6 O 0.19512(11) 0.91122(18) 0.25573(19)
O7 O 0.24271(13) 0.86352(19) 0.2422(2)
C16 C 0.3333 0.9567(2) 0.1667
H8 H 0.3333 0.9216 0.1667
C17 C 0.28670(13) 0.95921(21) 0.1964(2)
C20 C 0.23715(15) 0.90645(25) 0.2336(2)
O9 O 0.42396(13) 0.95414(14) 0.0911(2)
Zn3 Zn 0.13443(3) 0.86557(2) 0.34117(3)
Zn6 Zn 0.46776(2) 0.93553(2) 0.00784(3)
Zn8 Zn 0.19890(2) 0.80110(3) 0.32550(3)
C16_2 C 0.0433(2) 0.3766(2) 0.1667
H8_2 H 0.0784 0.4117 0.1667
C17_2 C 0.04079(21) 0.32749(25) 0.1964(2)
C20_2 C 0.09355(25) 0.33070(29) 0.2336(2)
O9_2 O 0.04586(14) 0.46981(19) 0.0911(2)
Zn6_2 Zn 0.06447(2) 0.53224(3) 0.00784(3)
C3_2 C 0.72376(16) 0.00996(21) 0.1954(2)
H2_2 H 0.7574 0.0108 0.2144
C4_2 C 0.72671(19) 0.06001(19) 0.1667
C6_2 C 0.78155(19) 0.11485(19) 0.1667
C7_2 C 0.81720(15) 0.12983(21) 0.0976(2)
C8_2 C 0.8029(2) 0.09391(28) 0.0247(2)
H3_2 H 0.7680 0.0586 0.0233
O4_2 O 0.57789(18) 0.04943(21) 0.07760(19)
C10_2 C 0.62588(21) 0.00584(25) 0.1369(2)
C11_2 C 0.67663(21) 0.05709(25) 0.1379(2)
H5_2 H 0.6775 0.0907 0.1189
C12_2 C 0.57312(25) 0.00263(29) 0.0997(2)
C13_2 C 0.79650(21) 0.15053(26) 0.2357(2)
C14_2 C 0.76058(28) 0.13623(34) 0.3086(2)
H6_2 H 0.7253 0.1013 0.3100
C15_2 C 0.7764(3) 0.1715(4) 0.3747(3)
H7_2 H 0.7521 0.1611 0.4218
C18_2 C 0.99004(21) 0.27624(25) 0.1954(2)
H9_2 H 0.9892 0.2426 0.2144
C19_2 C 0.93999(19) 0.27329(19) 0.1667
C21_2 C 0.88515(19) 0.21845(19) 0.1667
C22_2 C 0.87017(21) 0.18280(26) 0.0976(2)
C23_2 C 0.90609(28) 0.19710(34) 0.0247(2)
H10_2 H 0.9414 0.2320 0.0233
O8_2 O 0.95057(14) 0.42211(18) 0.07760(19)
C25_2 C 0.99416(16) 0.37412(21) 0.1369(2)
C26_2 C 0.94291(16) 0.32337(21) 0.1379(2)
H12_2 H 0.9093 0.3225 0.1189
C27_2 C 0.9974(2) 0.42688(25) 0.0997(2)
C28_2 C 0.84947(15) 0.20350(21) 0.2357(2)
C29_2 C 0.8638(2) 0.23942(28) 0.3086(2)
H13_2 H 0.8987 0.2747 0.3100
C30_2 C 0.8285(2) 0.2236(3) 0.3747(3)
H14_2 H 0.8389 0.2479 0.4218
C9_2 C 0.8382(2) 0.1097(3) 0.9586(3)
H4_2 H 0.8278 0.0854 0.9115
C24_2 C 0.8903(3) 0.1618(4) 0.9586(3)
H11_2 H 0.9146 0.1722 0.9115
Zn4_2 Zn 0.93553(2) 0.46776(4) 0.99216(3)
Zn1_2 Zn 0.73114(2) 0.86557(3) 0.34117(3)
O1_2 O 0.71610(14) 0.91122(18) 0.25573(19)
O2_2 O 0.62081(14) 0.86352(19) 0.2422(2)
O3_2 O 0.81509(16) 0.90754(18) 0.3448(4)
C1_2 C 0.6234(2) 0.9567(2) 0.1667
H1_2 H 0.5883 0.9216 0.1667
C2_2 C 0.67251(16) 0.95921(21) 0.1964(2)
C5_2 C 0.6693(2) 0.90645(25) 0.2336(2)
O5_2 O 0.53019(19) 0.95414(23) 0.0911(2)
Zn2_2 Zn 0.60219(2) 0.80110(4) 0.32550(3)
O10_2 O 0.51824(16) 0.75912(24) 0.3219(4)
O11_2 O 0.61723(14) 0.86179(23) 0.41094(19)
O12_2 O 0.71610(14) 0.80488(23) 0.25573(19)
O13_2 O 0.61723(14) 0.75545(18) 0.41094(19)
O14_2 O 0.71252(14) 0.90938(24) 0.4245(2)
O15_2 O 0.62081(14) 0.75729(24) 0.2422(2)
O16_2 O 0.71252(14) 0.80315(19) 0.4245(2)
O1_3 O 0.08878(18) 0.80488(11) 0.25573(19)
O2_3 O 0.13648(19) 0.75729(13) 0.2422(2)
O3_3 O 0.09246(18) 0.90755(8) 0.3448(4)
C1_3 C 0.0433(2) 0.6667 0.1667
H1_3 H 0.0784 0.6667 0.1667
C2_3 C 0.04079(21) 0.71330(13) 0.1964(2)
C5_3 C 0.09355(25) 0.76285(15) 0.2336(2)
O5_3 O 0.04586(23) 0.57604(13) 0.0911(2)
O10_3 O 0.24088(24) 0.75913(18) 0.3219(4)
O11_3 O 0.13821(23) 0.75545(18) 0.41094(19)
O13_3 O 0.24455(18) 0.86179(11) 0.41094(19)
O14_3 O 0.09062(24) 0.80315(19) 0.4245(2)
O16_3 O 0.19685(19) 0.90938(13) 0.4245(2)
C3_3 C 0.99004(21) 0.71380(13) 0.1954(2)
H2_3 H 0.9892 0.7466 0.2144
C4_3 C 0.93999(19) 0.6667 0.1667
C6_3 C 0.88515(19) 0.6667 0.1667
C7_3 C 0.87017(21) 0.68737(15) 0.0976(2)
C8_3 C 0.90609(28) 0.70899(19) 0.0247(2)
H3_3 H 0.9414 0.7094 0.0233
O4_3 O 0.95057(21) 0.52845(11) 0.07760(19)
C10_3 C 0.99416(25) 0.62003(13) 0.1369(2)
C11_3 C 0.94291(25) 0.61953(13) 0.1379(2)
H5_3 H 0.9093 0.5867 0.1189
C12_3 C 0.99737(29) 0.57048(15) 0.0997(2)
C13_3 C 0.84947(26) 0.64596(15) 0.2357(2)
C14_3 C 0.86377(34) 0.62434(19) 0.3086(2)
H6_3 H 0.8987 0.6239 0.3100
C15_3 C 0.8285(4) 0.6048(2) 0.3747(3)
H7_3 H 0.8389 0.5909 0.4218
C16_3 C 0.6234(2) 0.6667 0.1667
H8_3 H 0.5883 0.6667 0.1667
C17_3 C 0.67251(25) 0.71330(13) 0.1964(2)
C18_3 C 0.72376(25) 0.71380(13) 0.1954(2)
H9_3 H 0.7574 0.7466 0.2144
C19_3 C 0.72671(19) 0.6667 0.1667
C20_3 C 0.66930(29) 0.76285(15) 0.2336(2)
C21_3 C 0.78155(19) 0.6667 0.1667
C22_3 C 0.81720(26) 0.68737(15) 0.0976(2)
C23_3 C 0.80290(34) 0.70899(19) 0.0247(2)
H10_3 H 0.7680 0.7094 0.0233
O8_3 O 0.57789(18) 0.52845(11) 0.07760(19)
O9_3 O 0.53019(19) 0.57604(13) 0.0911(2)
C25_3 C 0.62588(21) 0.62003(13) 0.1369(2)
C26_3 C 0.67663(21) 0.61953(13) 0.1379(2)
H12_3 H 0.6775 0.5867 0.1189
C27_3 C 0.57312(25) 0.57048(15) 0.0997(2)
C28_3 C 0.79650(21) 0.64596(15) 0.2357(2)
C29_3 C 0.76058(28) 0.62434(19) 0.3086(2)
H13_3 H 0.7253 0.6239 0.3100
C30_3 C 0.7764(3) 0.6048(2) 0.3747(3)
H14_3 H 0.7521 0.5909 0.4218
C9_3 C 0.8903(3) 0.7285(2) 0.9586(3)
H4_3 H 0.9146 0.7424 0.9115
C24_3 C 0.8382(4) 0.7285(2) 0.9586(3)
H11_3 H 0.8278 0.7424 0.9115
O6_2 O 0.28390(21) 0.08878(18) 0.74427(19)
O7_2 O 0.37919(23) 0.13648(19) 0.7578(2)
C16_4 C 0.3766(2) 0.0433(2) 0.8333
H8_4 H 0.4117 0.0784 0.8333
C17_4 C 0.32749(25) 0.04079(21) 0.8036(2)
C20_4 C 0.33070(29) 0.09355(25) 0.7664(2)
O9_4 O 0.46981(19) 0.04586(14) 0.9089(2)
Zn3_2 Zn 0.26886(4) 0.13443(2) 0.65883(3)
Zn8_2 Zn 0.39781(4) 0.19890(3) 0.67450(3)
C9_4 C 0.1097(3) 0.8382(2) 0.0414(3)
H4_4 H 0.0854 0.8278 0.0885
C24_4 C 0.1618(4) 0.8903(3) 0.0414(3)
H11_4 H 0.1722 0.9146 0.0885
C3_4 C 0.00996(21) 0.72376(16) 0.8046(2)
H2_4 H 0.0108 0.7574 0.7856
C4_4 C 0.06001(19) 0.72671(19) 0.8333
C6_4 C 0.11485(19) 0.78155(19) 0.8333
C7_4 C 0.12983(21) 0.81720(15) 0.9024(2)
C8_4 C 0.09391(28) 0.8029(2) 0.9753(2)
H3_4 H 0.0586 0.7680 0.9767
O4_4 O 0.04943(21) 0.57789(18) 0.92240(19)
C10_4 C 0.00584(25) 0.62588(21) 0.8631(2)
C11_4 C 0.05709(25) 0.67663(21) 0.8621(2)
H5_4 H 0.0907 0.6775 0.8811
C12_4 C 0.00263(29) 0.57312(25) 0.9003(2)
C13_4 C 0.15053(26) 0.79650(21) 0.7643(2)
C14_4 C 0.13623(34) 0.76058(28) 0.6914(2)
H6_4 H 0.1013 0.7253 0.6900
C15_4 C 0.1715(4) 0.7764(3) 0.6253(3)
H7_4 H 0.1611 0.7521 0.5782
C18_4 C 0.27624(25) 0.99004(21) 0.8046(2)
H9_4 H 0.2426 0.9892 0.7856
C19_4 C 0.27329(19) 0.93999(19) 0.8333
C21_4 C 0.21845(19) 0.88515(19) 0.8333
C22_4 C 0.18280(26) 0.87017(21) 0.9024(2)
C23_4 C 0.19710(34) 0.90609(28) 0.9753(2)
H10_4 H 0.2320 0.9414 0.9767
O8_4 O 0.42211(18) 0.95057(14) 0.92240(19)
C25_4 C 0.37412(21) 0.99416(16) 0.8631(2)
C26_4 C 0.32337(21) 0.94291(16) 0.8621(2)
H12_4 H 0.3225 0.9093 0.8811
C27_4 C 0.42688(25) 0.9974(2) 0.9003(2)
C28_4 C 0.20350(21) 0.84947(15) 0.7643(2)
C29_4 C 0.23942(28) 0.8638(2) 0.6914(2)
H13_4 H 0.2747 0.8987 0.6900
C30_4 C 0.2236(3) 0.8285(2) 0.6253(3)
H14_4 H 0.2479 0.8389 0.5782
Zn1_3 Zn 0.86557(3) 0.73114(2) 0.65883(3)
O1_4 O 0.91122(18) 0.71610(14) 0.74427(19)
O2_4 O 0.86352(19) 0.62081(14) 0.7578(2)
O3_4 O 0.90754(18) 0.81509(16) 0.6552(4)
C1_4 C 0.9567(2) 0.6234(2) 0.8333
H1_4 H 0.9216 0.5883 0.8333
C2_4 C 0.95921(21) 0.67251(16) 0.8036(2)
C5_4 C 0.90645(25) 0.6693(2) 0.7664(2)
O5_4 O 0.95414(23) 0.53019(19) 0.9089(2)
Zn2_3 Zn 0.80110(4) 0.60219(2) 0.67450(3)
O10_4 O 0.75912(24) 0.51824(16) 0.6781(4)
O11_4 O 0.86179(23) 0.61723(14) 0.58906(19)
O12_3 O 0.80488(23) 0.71610(14) 0.74427(19)
O13_4 O 0.75545(18) 0.61723(14) 0.58906(19)
O14_4 O 0.90938(24) 0.71252(14) 0.5755(2)
O15_3 O 0.75729(24) 0.62081(14) 0.7578(2)
O16_4 O 0.80315(19) 0.71252(14) 0.5755(2)
Zn1_4 Zn 0.86557(2) 0.13443(3) 0.65883(3)
O1_5 O 0.80488(11) 0.08878(18) 0.74427(19)
O2_5 O 0.75729(13) 0.13648(19) 0.7578(2)
O3_5 O 0.90755(8) 0.09246(18) 0.6552(4)
C1_5 C 0.6667 0.0433(2) 0.8333
H1_5 H 0.6667 0.0784 0.8333
C2_5 C 0.71330(13) 0.04079(21) 0.8036(2)
C5_5 C 0.76285(15) 0.09355(25) 0.7664(2)
O5_5 O 0.57604(13) 0.04586(23) 0.9089(2)
Zn2_4 Zn 0.80110(3) 0.19890(4) 0.67450(3)
O10_5 O 0.75913(18) 0.24088(24) 0.6781(4)
O11_5 O 0.75545(18) 0.13821(23) 0.58906(19)
O12_4 O 0.91122(18) 0.19512(23) 0.74427(19)
O13_5 O 0.86179(11) 0.24455(18) 0.58906(19)
O14_5 O 0.80315(19) 0.09062(24) 0.5755(2)
O15_4 O 0.86352(19) 0.24271(24) 0.7578(2)
O16_5 O 0.90938(13) 0.19685(19) 0.5755(2)
C9_5 C 0.7285(2) 0.8903(3) 0.0414(3)
H4_5 H 0.7424 0.9146 0.0885
C24_5 C 0.7285(2) 0.8382(4) 0.0414(3)
H11_5 H 0.7424 0.8278 0.0885
C3_5 C 0.71380(13) 0.99004(21) 0.8046(2)
H2_5 H 0.7466 0.9892 0.7856
C4_5 C 0.6667 0.93999(19) 0.8333
C6_5 C 0.6667 0.88515(19) 0.8333
C7_5 C 0.68737(15) 0.87017(21) 0.9024(2)
C8_5 C 0.70899(19) 0.90609(28) 0.9753(2)
H3_5 H 0.7094 0.9414 0.9767
O4_5 O 0.52845(11) 0.95057(21) 0.92240(19)
C10_5 C 0.62003(13) 0.99416(25) 0.8631(2)
C11_5 C 0.61953(13) 0.94291(25) 0.8621(2)
H5_5 H 0.5867 0.9093 0.8811
C12_5 C 0.57048(15) 0.99737(29) 0.9003(2)
C13_5 C 0.64596(15) 0.84947(26) 0.7643(2)
C14_5 C 0.62434(19) 0.86377(34) 0.6914(2)
H6_5 H 0.6239 0.8987 0.6900
C15_5 C 0.6048(2) 0.8285(4) 0.6253(3)
H7_5 H 0.5909 0.8389 0.5782
C16_5 C 0.6667 0.6234(2) 0.8333
H8_5 H 0.6667 0.5883 0.8333
C17_5 C 0.71330(13) 0.67251(25) 0.8036(2)
C18_5 C 0.71380(13) 0.72376(25) 0.8046(2)
H9_5 H 0.7466 0.7574 0.7856
C19_5 C 0.6667 0.72671(19) 0.8333
C20_5 C 0.76285(15) 0.66930(29) 0.7664(2)
C21_5 C 0.6667 0.78155(19) 0.8333
C22_5 C 0.68737(15) 0.81720(26) 0.9024(2)
C23_5 C 0.70899(19) 0.80290(34) 0.9753(2)
H10_5 H 0.7094 0.7680 0.9767
O8_5 O 0.52845(11) 0.57789(18) 0.92240(19)
O9_5 O 0.57604(13) 0.53019(19) 0.9089(2)
C25_5 C 0.62003(13) 0.62588(21) 0.8631(2)
C26_5 C 0.61953(13) 0.67663(21) 0.8621(2)
H12_5 H 0.5867 0.6775 0.8811
C27_5 C 0.57048(15) 0.57312(25) 0.9003(2)
C28_5 C 0.64596(15) 0.79650(21) 0.7643(2)
C29_5 C 0.62434(19) 0.76058(28) 0.6914(2)
H13_5 H 0.6239 0.7253 0.6900
C30_5 C 0.6048(2) 0.7764(3) 0.6253(3)
H14_5 H 0.5909 0.7521 0.5782
C9_6 C 0.1618(2) 0.2715(2) 0.0414(3)
H4_6 H 0.1722 0.2576 0.0885
C24_6 C 0.1097(3) 0.2715(2) 0.0414(3)
H11_6 H 0.0854 0.2576 0.0885
O1_6 O 0.28390(14) 0.19512(11) 0.74427(19)
O2_6 O 0.37919(14) 0.24271(13) 0.7578(2)
O3_6 O 0.18491(16) 0.09245(8) 0.6552(4)
C1_6 C 0.3766(2) 0.3333 0.8333
H1_6 H 0.4117 0.3333 0.8333
C2_6 C 0.32749(16) 0.28670(13) 0.8036(2)
C3_6 C 0.27624(16) 0.28620(13) 0.8046(2)
H2_6 H 0.2426 0.2534 0.7856
C4_6 C 0.27329(19) 0.3333 0.8333
C5_6 C 0.3307(2) 0.23715(15) 0.7664(2)
C6_6 C 0.21845(19) 0.3333 0.8333
C7_6 C 0.18280(15) 0.31263(15) 0.9024(2)
C8_6 C 0.1971(2) 0.29101(19) 0.9753(2)
H3_6 H 0.2320 0.2906 0.9767
O4_6 O 0.42211(18) 0.47155(11) 0.92240(19)
O5_6 O 0.46981(19) 0.42396(13) 0.9089(2)
C10_6 C 0.37412(21) 0.37997(13) 0.8631(2)
C11_6 C 0.32337(21) 0.38047(13) 0.8621(2)
H5_6 H 0.3225 0.4133 0.8811
C12_6 C 0.42688(25) 0.42952(15) 0.9003(2)
C13_6 C 0.20350(21) 0.35404(15) 0.7643(2)
C14_6 C 0.23942(28) 0.37566(19) 0.6914(2)
H6_6 H 0.2747 0.3761 0.6900
C15_6 C 0.2236(3) 0.3952(2) 0.6253(3)
H7_6 H 0.2479 0.4091 0.5782
C18_6 C 0.00996(21) 0.28620(13) 0.8046(2)
H9_6 H 0.0108 0.2534 0.7856
C19_6 C 0.06001(19) 0.3333 0.8333
C21_6 C 0.11485(19) 0.3333 0.8333
C22_6 C 0.12983(21) 0.31263(15) 0.9024(2)
C23_6 C 0.09391(28) 0.29101(19) 0.9753(2)
H10_6 H 0.0586 0.2906 0.9767
O8_6 O 0.04943(14) 0.47155(11) 0.92240(19)
C25_6 C 0.00584(16) 0.37997(13) 0.8631(2)
C26_6 C 0.05709(16) 0.38047(13) 0.8621(2)
H12_6 H 0.0907 0.4133 0.8811
C27_6 C 0.0026(2) 0.42952(15) 0.9003(2)
C28_6 C 0.15053(15) 0.35404(15) 0.7643(2)
C29_6 C 0.1362(2) 0.37566(19) 0.6914(2)
H13_6 H 0.1013 0.3761 0.6900
C30_6 C 0.1715(2) 0.3952(2) 0.6253(3)
H14_6 H 0.1611 0.4091 0.5782
O10_6 O 0.48176(16) 0.24087(18) 0.6781(4)
O11_6 O 0.38277(14) 0.24455(18) 0.58906(19)
O13_6 O 0.38277(14) 0.13821(11) 0.58906(19)
O14_6 O 0.28748(14) 0.19685(19) 0.5755(2)
O16_6 O 0.28748(14) 0.09062(13) 0.5755(2)
C16_6 C 0.9567(2) 0.3333 0.8333
H8_6 H 0.9216 0.3333 0.8333
C17_6 C 0.95921(21) 0.28670(13) 0.8036(2)
C20_6 C 0.90645(25) 0.23715(15) 0.7664(2)
O9_6 O 0.95414(14) 0.42396(13) 0.9089(2)
C1_7 C -0.0000 0.7099(2) 0.5000
H1_7 H -0.0000 0.7450 0.5000
C4_7 C -0.0000 0.60662(19) 0.5000
C6_7 C -0.0000 0.55178(19) 0.5000
C10_7 C 0.04663(13) 0.70746(21) 0.4703(2)
C11_7 C 0.04713(13) 0.65671(21) 0.4713(2)
H5_7 H 0.0799 0.6559 0.4523
C12_7 C 0.09618(15) 0.76022(25) 0.4331(2)
C13_7 C 0.02070(15) 0.53684(21) 0.5691(2)
C14_7 C 0.04232(19) 0.57276(28) 0.6420(2)
H6_7 H 0.0427 0.6081 0.6434
C15_7 C 0.0618(2) 0.5570(3) 0.7081(3)
H7_7 H 0.0757 0.5813 0.7552
C16_7 C -0.0000 0.2900(2) 0.5000
H8_7 H -0.0000 0.2549 0.5000
C19_7 C -0.0000 0.39334(19) 0.5000
C21_7 C -0.0000 0.44818(19) 0.5000
C25_7 C 0.04663(13) 0.33918(16) 0.4703(2)
C26_7 C 0.04713(13) 0.39043(16) 0.4713(2)
H12_7 H 0.0799 0.4241 0.4523
C27_7 C 0.09618(15) 0.3360(2) 0.4331(2)
C28_7 C 0.02070(15) 0.48387(15) 0.5691(2)
C29_7 C 0.04232(19) 0.4696(2) 0.6420(2)
H13_7 H 0.0427 0.4347 0.6434
C30_7 C 0.0618(2) 0.5049(2) 0.7081(3)
H14_7 H 0.0757 0.4945 0.7552
C1_8 C 1.0000 0.7099(2) 0.5000
H1_8 H 1.0000 0.7450 0.5000
C2_7 C 0.95337(13) 0.66082(16) 0.5297(2)
C3_7 C 0.95287(13) 0.60957(16) 0.5287(2)
H2_7 H 0.9201 0.5759 0.5477
C4_8 C 1.0000 0.60662(19) 0.5000
C5_7 C 0.90382(15) 0.6640(2) 0.5669(2)
C6_8 C 1.0000 0.55178(19) 0.5000
C7_7 C 0.97930(15) 0.51613(15) 0.4309(2)
C8_7 C 0.95768(19) 0.5304(2) 0.3580(2)
H3_7 H 0.9573 0.5653 0.3566
C9_7 C 0.9382(2) 0.4951(2) 0.2919(3)
H4_7 H 0.9243 0.5055 0.2448
C16_8 C 1.0000 0.2900(2) 0.5000
H8_8 H 1.0000 0.2549 0.5000
C17_7 C 0.95337(13) 0.29254(21) 0.5297(2)
C18_7 C 0.95287(13) 0.34329(21) 0.5287(2)
H9_7 H 0.9201 0.3441 0.5477
C19_8 C 1.0000 0.39334(19) 0.5000
C20_7 C 0.90382(15) 0.23978(25) 0.5669(2)
C21_8 C 1.0000 0.44818(19) 0.5000
C22_7 C 0.97930(15) 0.46316(21) 0.4309(2)
C23_7 C 0.95768(19) 0.42724(28) 0.3580(2)
H10_7 H 0.9573 0.3919 0.3566
C24_7 C 0.9382(2) 0.4430(3) 0.2919(3)
H11_7 H 0.9243 0.4187 0.2448
C1_9 C 0.2901(2) 0.2900(2) 0.5000
H1_9 H 0.2550 0.2549 0.5000
C2_8 C 0.33918(16) 0.29254(21) 0.5297(2)
C3_8 C 0.39043(16) 0.34329(21) 0.5287(2)
H2_8 H 0.4241 0.3441 0.5477
C4_9 C 0.39338(19) 0.39334(19) 0.5000
C5_8 C 0.3360(2) 0.23978(25) 0.5669(2)
C6_9 C 0.44822(19) 0.44818(19) 0.5000
C7_8 C 0.48387(15) 0.46316(21) 0.4309(2)
C8_8 C 0.4696(2) 0.42724(28) 0.3580(2)
H3_8 H 0.4347 0.3919 0.3566
C9_8 C 0.5049(2) 0.4430(3) 0.2919(3)
H4_8 H 0.4945 0.4187 0.2448
C10_8 C 0.29254(21) 0.33918(25) 0.4703(2)
C11_8 C 0.34329(21) 0.39043(25) 0.4713(2)
H5_8 H 0.3441 0.4241 0.4523
C12_8 C 0.23978(25) 0.33597(29) 0.4331(2)
C13_8 C 0.46316(21) 0.48387(26) 0.5691(2)
C14_8 C 0.42724(28) 0.46957(34) 0.6420(2)
H6_8 H 0.3919 0.4347 0.6434
C15_8 C 0.4430(3) 0.5049(4) 0.7081(3)
H7_8 H 0.4187 0.4945 0.7552
C16_9 C 0.7100(2) 0.7099(2) 0.5000
H8_9 H 0.7451 0.7450 0.5000
C17_8 C 0.70746(21) 0.66082(25) 0.5297(2)
C18_8 C 0.65671(21) 0.60957(25) 0.5287(2)
H9_8 H 0.6559 0.5759 0.5477
C19_9 C 0.60666(19) 0.60662(19) 0.5000
C20_8 C 0.76022(25) 0.66403(29) 0.5669(2)
C21_9 C 0.55182(19) 0.55178(19) 0.5000
C22_8 C 0.53684(21) 0.51613(26) 0.4309(2)
C23_8 C 0.57276(28) 0.53043(34) 0.3580(2)
H10_8 H 0.6081 0.5653 0.3566
C24_8 C 0.5570(3) 0.4951(4) 0.2919(3)
H11_8 H 0.5813 0.5055 0.2448
C25_8 C 0.66082(16) 0.70746(21) 0.4703(2)
C26_8 C 0.60957(16) 0.65671(21) 0.4713(2)
H12_8 H 0.5759 0.6559 0.4523
C27_8 C 0.6640(2) 0.76022(25) 0.4331(2)
C28_8 C 0.51613(15) 0.53684(21) 0.5691(2)
C29_8 C 0.5304(2) 0.57276(28) 0.6420(2)
H13_8 H 0.5653 0.6081 0.6434
C30_8 C 0.4951(2) 0.5570(3) 0.7081(3)
H14_8 H 0.5055 0.5813 0.7552
C1_10 C 0.7100(2) 0.0000 0.5000
H1_10 H 0.7451 0.0000 0.5000
C2_9 C 0.70746(21) 0.04663(13) 0.5297(2)
C3_9 C 0.65671(21) 0.04713(13) 0.5287(2)
H2_9 H 0.6559 0.0799 0.5477
C4_10 C 0.60666(19) 0.0000 0.5000
C5_9 C 0.76022(25) 0.09618(15) 0.5669(2)
C6_10 C 0.55182(19) 0.0000 0.5000
C7_9 C 0.53684(21) 0.02070(15) 0.4309(2)
C8_9 C 0.57276(28) 0.04232(19) 0.3580(2)
H3_9 H 0.6081 0.0427 0.3566
C9_9 C 0.5570(3) 0.0618(2) 0.2919(3)
H4_9 H 0.5813 0.0757 0.2448
C16_10 C 0.2901(2) 0.0000 0.5000
H8_10 H 0.2550 0.0000 0.5000
C17_9 C 0.33918(25) 0.04663(13) 0.5297(2)
C18_9 C 0.39043(25) 0.04713(13) 0.5287(2)
H9_9 H 0.4241 0.0799 0.5477
C19_10 C 0.39338(19) 0.0000 0.5000
C20_9 C 0.33597(29) 0.09618(15) 0.5669(2)
C21_10 C 0.44822(19) 0.0000 0.5000
C22_9 C 0.48387(26) 0.02070(15) 0.4309(2)
C23_9 C 0.46957(34) 0.04232(19) 0.3580(2)
H10_9 H 0.4347 0.0427 0.3566
C24_9 C 0.5049(4) 0.0618(2) 0.2919(3)
H11_9 H 0.4945 0.0757 0.2448
C1_11 C 0.7100(2) 1.0000 0.5000
H1_11 H 0.7451 1.0000 0.5000
C4_11 C 0.60666(19) 1.0000 0.5000
C6_11 C 0.55182(19) 1.0000 0.5000
C10_9 C 0.66082(25) 0.95337(13) 0.4703(2)
C11_9 C 0.60957(25) 0.95287(13) 0.4713(2)
H5_9 H 0.5759 0.9201 0.4523
C12_9 C 0.66403(29) 0.90382(15) 0.4331(2)
C13_9 C 0.51613(26) 0.97930(15) 0.5691(2)
C14_9 C 0.53043(34) 0.95768(19) 0.6420(2)
H6_9 H 0.5653 0.9573 0.6434
C15_9 C 0.4951(4) 0.9382(2) 0.7081(3)
H7_9 H 0.5055 0.9243 0.7552
C16_11 C 0.2901(2) 1.0000 0.5000
H8_11 H 0.2550 1.0000 0.5000
C19_11 C 0.39338(19) 1.0000 0.5000
C21_11 C 0.44822(19) 1.0000 0.5000
C25_9 C 0.29254(21) 0.95337(13) 0.4703(2)
C26_9 C 0.34329(21) 0.95287(13) 0.4713(2)
H12_9 H 0.3441 0.9201 0.4523
C27_9 C 0.23978(25) 0.90382(15) 0.4331(2)
C28_9 C 0.46316(21) 0.97930(15) 0.5691(2)
C29_9 C 0.42724(28) 0.95768(19) 0.6420(2)
H13_9 H 0.3919 0.9573 0.6434
C30_9 C 0.4430(3) 0.9382(2) 0.7081(3)
H14_9 H 0.4187 0.9243 0.7552
O3_7 O 0.57421(18) 0.14842(16) 0.9885(4)
O10_7 O 0.42578(24) 0.85158(16) 0.0115(4)
H18 H 0.393137 0.836649 0.97224
O10_8 O 0.42579(18) 0.57422(24) 0.0115(4)
O3_8 O 0.57422(8) 0.42579(18) 0.9885(4)
H18_2 H 0.443511 0.606863 0.97224
O10_9 O 0.14842(16) 0.57421(18) 0.0115(4)
H18_3 H 0.163351 0.556489 0.97224
O3_9 O 0.85158(16) 0.42578(8) 0.9885(4)
H18_4 H 0.556489 0.163351 0.0277599
H18_5 H 0.836649 0.393137 0.0277599
H18_6 H 0.606863 0.443511 0.0277599
H18_7 H 0.606863 0.163351 0.0277599
H18_8 H 0.556489 0.393137 0.0277599
H18_9 H 0.836649 0.443511 0.0277599
H18_10 H 0.443511 0.836649 0.97224
H18_11 H 0.163351 0.606863 0.97224
H18_12 H 0.393137 0.556489 0.97224
loop_
_geom_bond_atom_site_label_1
_geom_bond_atom_site_label_2
_geom_bond_site_symmetry_1
_geom_bond_site_symmetry_2
Zn1 O1 1_555 1_555
O1 C5 1_555 1_555
O2 C5 1_555 1_555
O3 Zn1 1_555 1_555
C1 H1 1_555 1_555
C2 C1 1_555 1_555
C3 C2 1_555 1_555
H2 C3 1_555 1_555
C4 C3 1_555 1_555
C5 C2 1_555 1_555
C6 C4 1_555 1_555
C7 C6 1_555 1_555
C8 C7 1_555 1_555
H3 C8 1_555 1_555
O4 C12 1_555 1_555
O5 C12 1_555 1_555
C10 C1 1_555 1_555
C11 C4 1_555 1_555
H5 C11 1_555 1_555
C12 C10 1_555 1_555
C13 C6 1_555 1_555
C14 C13 1_555 1_555
H6 C14 1_555 1_555
C15 C14 1_555 1_555
H7 C15 1_555 1_555
H9 C18 1_555 1_555
C19 C18 1_555 1_555
C21 C19 1_555 1_555
C22 C7 1_555 1_555
C23 C22 1_555 1_555
H10 C23 1_555 1_555
O8 C27 1_555 1_555
C26 C19 1_555 1_555
H12 C26 1_555 1_555
C27 C25 1_555 1_555
C28 C13 1_555 1_555
C29 C28 1_555 1_555
H13 C29 1_555 1_555
C30 C15 1_555 1_555
H14 C30 1_555 1_555
Zn2 O2 1_555 1_555
O10 Zn2 1_555 1_555
Zn7 O5 1_555 1_555
O11 Zn2 1_555 1_555
O12 Zn1 1_555 1_555
O13 Zn2 1_555 1_555
O14 Zn1 1_555 1_555
O15 Zn2 1_555 1_555
O16 Zn1 1_555 1_555
C10 C11 1_555 1_555
C21 C22 1_555 1_555
C21 C28 1_555 1_555
C25 C26 1_555 1_555
C29 C30 1_555 1_555
H4 C9 1_555 1_555
C24 C9 1_555 1_555
H11 C24 1_555 1_555
O6 C20 1_555 1_555
O7 C20 1_555 1_555
C16 H8 1_555 1_555
C17 C16 1_555 1_555
C20 C17 1_555 1_555
Zn3 O6 1_555 1_555
Zn6 O9 1_555 1_555
Zn8 O7 1_555 1_555
O12 C20_2 1_555 1_555
O15 C20_2 1_555 1_555
C16_2 H8_2 1_555 1_555
C17_2 C16_2 1_555 1_555
C20_2 C17_2 1_555 1_555
Zn6_2 O9_2 1_555 1_555
H2_2 C3_2 1_555 1_555
C4_2 C3_2 1_555 1_555
C6_2 C4_2 1_555 1_555
C7_2 C6_2 1_555 1_555
C8_2 C7_2 1_555 1_555
H3_2 C8_2 1_555 1_555
O4_2 C12_2 1_555 1_555
C11_2 C4_2 1_555 1_555
H5_2 C11_2 1_555 1_555
C12_2 C10_2 1_555 1_555
C13_2 C6_2 1_555 1_555
C14_2 C13_2 1_555 1_555
H6_2 C14_2 1_555 1_555
C15_2 C14_2 1_555 1_555
H7_2 C15_2 1_555 1_555
H9_2 C18_2 1_555 1_555
C19_2 C18_2 1_555 1_555
C21_2 C19_2 1_555 1_555
C22_2 C7_2 1_555 1_555
C23_2 C22_2 1_555 1_555
H10_2 C23_2 1_555 1_555
O8_2 C27_2 1_555 1_555
C26_2 C19_2 1_555 1_555
H12_2 C26_2 1_555 1_555
C27_2 C25_2 1_555 1_555
C28_2 C13_2 1_555 1_555
C29_2 C28_2 1_555 1_555
H13_2 C29_2 1_555 1_555
C30_2 C15_2 1_555 1_555
H14_2 C30_2 1_555 1_555
C10_2 C11_2 1_555 1_555
C21_2 C22_2 1_555 1_555
C21_2 C28_2 1_555 1_555
C25_2 C26_2 1_555 1_555
C29_2 C30_2 1_555 1_555
H4_2 C9_2 1_555 1_555
C24_2 C9_2 1_555 1_555
H11_2 C24_2 1_555 1_555
Zn1_2 O1_2 1_555 1_555
O1_2 C5_2 1_555 1_555
O2_2 C5_2 1_555 1_555
O3_2 Zn1_2 1_555 1_555
C1_2 H1_2 1_555 1_555
C2_2 C1_2 1_555 1_555
C5_2 C2_2 1_555 1_555
Zn2_2 O2_2 1_555 1_555
O10_2 Zn2_2 1_555 1_555
Zn6 O5_2 1_555 1_555
O11_2 Zn2_2 1_555 1_555
O12_2 Zn1_2 1_555 1_555
O13_2 Zn2_2 1_555 1_555
O14_2 Zn1_2 1_555 1_555
O15_2 Zn2_2 1_555 1_555
O16_2 Zn1_2 1_555 1_555
Zn3 O1_3 1_555 1_555
O1_3 C5_3 1_555 1_555
O2_3 C5_3 1_555 1_555
O3_3 Zn3 1_555 1_555
C1_3 H1_3 1_555 1_555
C2_3 C1_3 1_555 1_555
C5_3 C2_3 1_555 1_555
Zn8 O2_3 1_555 1_555
O10_3 Zn8 1_555 1_555
Zn6_2 O5_3 1_555 1_555
O11_3 Zn8 1_555 1_555
O13_3 Zn8 1_555 1_555
O14_3 Zn3 1_555 1_555
O16_3 Zn3 1_555 1_555
H2_3 C3_3 1_555 1_555
C4_3 C3_3 1_555 1_555
C6_3 C4_3 1_555 1_555
C7_3 C6_3 1_555 1_555
C8_3 C7_3 1_555 1_555
H3_3 C8_3 1_555 1_555
O4_3 C12_3 1_555 1_555
C11_3 C4_3 1_555 1_555
H5_3 C11_3 1_555 1_555
C12_3 C10_3 1_555 1_555
C13_3 C6_3 1_555 1_555
C14_3 C13_3 1_555 1_555
H6_3 C14_3 1_555 1_555
C15_3 C14_3 1_555 1_555
H7_3 C15_3 1_555 1_555
O12_2 C20_3 1_555 1_555
O15_2 C20_3 1_555 1_555
C16_3 H8_3 1_555 1_555
C17_3 C16_3 1_555 1_555
C18_3 C17_3 1_555 1_555
H9_3 C18_3 1_555 1_555
C19_3 C18_3 1_555 1_555
C20_3 C17_3 1_555 1_555
C21_3 C19_3 1_555 1_555
C22_3 C7_3 1_555 1_555
C23_3 C22_3 1_555 1_555
H10_3 C23_3 1_555 1_555
O8_3 C27_3 1_555 1_555
O9_3 C27_3 1_555 1_555
C25_3 C16_3 1_555 1_555
C26_3 C19_3 1_555 1_555
H12_3 C26_3 1_555 1_555
C27_3 C25_3 1_555 1_555
C28_3 C13_3 1_555 1_555
C29_3 C28_3 1_555 1_555
H13_3 C29_3 1_555 1_555
C30_3 C15_3 1_555 1_555
H14_3 C30_3 1_555 1_555
Zn7 O9_3 1_555 1_555
C10_3 C11_3 1_555 1_555
C21_3 C22_3 1_555 1_555
C21_3 C28_3 1_555 1_555
C25_3 C26_3 1_555 1_555
C29_3 C30_3 1_555 1_555
H4_3 C9_3 1_555 1_555
C24_3 C9_3 1_555 1_555
H11_3 C24_3 1_555 1_555
O6_2 C20_4 1_555 1_555
O7_2 C20_4 1_555 1_555
C16_4 H8_4 1_555 1_555
C17_4 C16_4 1_555 1_555
C20_4 C17_4 1_555 1_555
Zn3_2 O6_2 1_555 1_555
Zn4 O9_4 1_555 1_555
Zn8_2 O7_2 1_555 1_555
H4_4 C9_4 1_555 1_555
C24_4 C9_4 1_555 1_555
H11_4 C24_4 1_555 1_555
H2_4 C3_4 1_555 1_555
C4_4 C3_4 1_555 1_555
C6_4 C4_4 1_555 1_555
C7_4 C6_4 1_555 1_555
C8_4 C7_4 1_555 1_555
H3_4 C8_4 1_555 1_555
O4_4 C12_4 1_555 1_555
C11_4 C4_4 1_555 1_555
H5_4 C11_4 1_555 1_555
C12_4 C10_4 1_555 1_555
C13_4 C6_4 1_555 1_555
C14_4 C13_4 1_555 1_555
H6_4 C14_4 1_555 1_555
C15_4 C14_4 1_555 1_555
H7_4 C15_4 1_555 1_555
H9_4 C18_4 1_555 1_555
C19_4 C18_4 1_555 1_555
C21_4 C19_4 1_555 1_555
C22_4 C7_4 1_555 1_555
C23_4 C22_4 1_555 1_555
H10_4 C23_4 1_555 1_555
O8_4 C27_4 1_555 1_555
C26_4 C19_4 1_555 1_555
H12_4 C26_4 1_555 1_555
C27_4 C25_4 1_555 1_555
C28_4 C13_4 1_555 1_555
C29_4 C28_4 1_555 1_555
H13_4 C29_4 1_555 1_555
C30_4 C15_4 1_555 1_555
H14_4 C30_4 1_555 1_555
C10_4 C11_4 1_555 1_555
C21_4 C22_4 1_555 1_555
C21_4 C28_4 1_555 1_555
C25_4 C26_4 1_555 1_555
C29_4 C30_4 1_555 1_555
Zn1_3 O1_4 1_555 1_555
O1_4 C5_4 1_555 1_555
O2_4 C5_4 1_555 1_555
O3_4 Zn1_3 1_555 1_555
C1_4 H1_4 1_555 1_555
C2_4 C1_4 1_555 1_555
C5_4 C2_4 1_555 1_555
Zn2_3 O2_4 1_555 1_555
O10_4 Zn2_3 1_555 1_555
Zn4_2 O5_4 1_555 1_555
O11_4 Zn2_3 1_555 1_555
O12_3 Zn1_3 1_555 1_555
O13_4 Zn2_3 1_555 1_555
O14_4 Zn1_3 1_555 1_555
O15_3 Zn2_3 1_555 1_555
O16_4 Zn1_3 1_555 1_555
Zn1_4 O1_5 1_555 1_555
O1_5 C5_5 1_555 1_555
O2_5 C5_5 1_555 1_555
O3_5 Zn1_4 1_555 1_555
C1_5 H1_5 1_555 1_555
C2_5 C1_5 1_555 1_555
C5_5 C2_5 1_555 1_555
Zn2_4 O2_5 1_555 1_555
O10_5 Zn2_4 1_555 1_555
Zn4 O5_5 1_555 1_555
O11_5 Zn2_4 1_555 1_555
O12_4 Zn1_4 1_555 1_555
O13_5 Zn2_4 1_555 1_555
O14_5 Zn1_4 1_555 1_555
O15_4 Zn2_4 1_555 1_555
O16_5 Zn1_4 1_555 1_555
H4_5 C9_5 1_555 1_555
C24_5 C9_5 1_555 1_555
H11_5 C24_5 1_555 1_555
H2_5 C3_5 1_555 1_555
C4_5 C3_5 1_555 1_555
C6_5 C4_5 1_555 1_555
C7_5 C6_5 1_555 1_555
C8_5 C7_5 1_555 1_555
H3_5 C8_5 1_555 1_555
O4_5 C12_5 1_555 1_555
C11_5 C4_5 1_555 1_555
H5_5 C11_5 1_555 1_555
C12_5 C10_5 1_555 1_555
C13_5 C6_5 1_555 1_555
C14_5 C13_5 1_555 1_555
H6_5 C14_5 1_555 1_555
C15_5 C14_5 1_555 1_555
H7_5 C15_5 1_555 1_555
O12_3 C20_5 1_555 1_555
O15_3 C20_5 1_555 1_555
C16_5 H8_5 1_555 1_555
C17_5 C16_5 1_555 1_555
C18_5 C17_5 1_555 1_555
H9_5 C18_5 1_555 1_555
C19_5 C18_5 1_555 1_555
C20_5 C17_5 1_555 1_555
C21_5 C19_5 1_555 1_555
C22_5 C7_5 1_555 1_555
C23_5 C22_5 1_555 1_555
H10_5 C23_5 1_555 1_555
O8_5 C27_5 1_555 1_555
O9_5 C27_5 1_555 1_555
C25_5 C16_5 1_555 1_555
C26_5 C19_5 1_555 1_555
H12_5 C26_5 1_555 1_555
C27_5 C25_5 1_555 1_555
C28_5 C13_5 1_555 1_555
C29_5 C28_5 1_555 1_555
H13_5 C29_5 1_555 1_555
C30_5 C15_5 1_555 1_555
H14_5 C30_5 1_555 1_555
Zn5 O9_5 1_555 1_555
C10_5 C11_5 1_555 1_555
C21_5 C22_5 1_555 1_555
C21_5 C28_5 1_555 1_555
C25_5 C26_5 1_555 1_555
C29_5 C30_5 1_555 1_555
H4_6 C9_6 1_555 1_555
C24_6 C9_6 1_555 1_555
H11_6 C24_6 1_555 1_555
Zn3_2 O1_6 1_555 1_555
O1_6 C5_6 1_555 1_555
O2_6 C5_6 1_555 1_555
O3_6 Zn3_2 1_555 1_555
C1_6 H1_6 1_555 1_555
C2_6 C1_6 1_555 1_555
C3_6 C2_6 1_555 1_555
H2_6 C3_6 1_555 1_555
C4_6 C3_6 1_555 1_555
C5_6 C2_6 1_555 1_555
C6_6 C4_6 1_555 1_555
C7_6 C6_6 1_555 1_555
C8_6 C7_6 1_555 1_555
H3_6 C8_6 1_555 1_555
O4_6 C12_6 1_555 1_555
O5_6 C12_6 1_555 1_555
C10_6 C1_6 1_555 1_555
C11_6 C4_6 1_555 1_555
H5_6 C11_6 1_555 1_555
C12_6 C10_6 1_555 1_555
C13_6 C6_6 1_555 1_555
C14_6 C13_6 1_555 1_555
H6_6 C14_6 1_555 1_555
C15_6 C14_6 1_555 1_555
H7_6 C15_6 1_555 1_555
H9_6 C18_6 1_555 1_555
C19_6 C18_6 1_555 1_555
C21_6 C19_6 1_555 1_555
C22_6 C7_6 1_555 1_555
C23_6 C22_6 1_555 1_555
H10_6 C23_6 1_555 1_555
O8_6 C27_6 1_555 1_555
C26_6 C19_6 1_555 1_555
H12_6 C26_6 1_555 1_555
C27_6 C25_6 1_555 1_555
C28_6 C13_6 1_555 1_555
C29_6 C28_6 1_555 1_555
H13_6 C29_6 1_555 1_555
C30_6 C15_6 1_555 1_555
H14_6 C30_6 1_555 1_555
Zn8_2 O2_6 1_555 1_555
O10_6 Zn8_2 1_555 1_555
Zn5 O5_6 1_555 1_555
O11_6 Zn8_2 1_555 1_555
O13_6 Zn8_2 1_555 1_555
O14_6 Zn3_2 1_555 1_555
O16_6 Zn3_2 1_555 1_555
C10_6 C11_6 1_555 1_555
C21_6 C22_6 1_555 1_555
C21_6 C28_6 1_555 1_555
C25_6 C26_6 1_555 1_555
C29_6 C30_6 1_555 1_555
O12_4 C20_6 1_555 1_555
O15_4 C20_6 1_555 1_555
C16_6 H8_6 1_555 1_555
C17_6 C16_6 1_555 1_555
C20_6 C17_6 1_555 1_555
Zn4_2 O9_6 1_555 1_555
C1_7 H1_7 1_555 1_555
C6_7 C4_7 1_555 1_555
O11_3 C12_7 1_555 1_555
O14_3 C12_7 1_555 1_555
C10_7 C1_7 1_555 1_555
C11_7 C4_7 1_555 1_555
H5_7 C11_7 1_555 1_555
C12_7 C10_7 1_555 1_555
C13_7 C6_7 1_555 1_555
C14_7 C13_7 1_555 1_555
H6_7 C14_7 1_555 1_555
C15_7 C14_7 1_555 1_555
H7_7 C15_7 1_555 1_555
C16_7 H8_7 1_555 1_555
C21_7 C19_7 1_555 1_555
O13 C27_7 1_555 1_555
O16 C27_7 1_555 1_555
C25_7 C16_7 1_555 1_555
C26_7 C19_7 1_555 1_555
H12_7 C26_7 1_555 1_555
C27_7 C25_7 1_555 1_555
C28_7 C13_7 1_555 1_555
C29_7 C28_7 1_555 1_555
H13_7 C29_7 1_555 1_555
C30_7 C15_7 1_555 1_555
H14_7 C30_7 1_555 1_555
C10_7 C11_7 1_555 1_555
C21_7 C28_7 1_555 1_555
C25_7 C26_7 1_555 1_555
C29_7 C30_7 1_555 1_555
O11_4 C5_7 1_555 1_555
O14_4 C5_7 1_555 1_555
C1_8 H1_8 1_555 1_555
C2_7 C1_8 1_555 1_555
C3_7 C2_7 1_555 1_555
H2_7 C3_7 1_555 1_555
C4_8 C3_7 1_555 1_555
C5_7 C2_7 1_555 1_555
C6_8 C4_8 1_555 1_555
C7_7 C6_8 1_555 1_555
C8_7 C7_7 1_555 1_555
H3_7 C8_7 1_555 1_555
C9_7 C8_7 1_555 1_555
H4_7 C9_7 1_555 1_555
O13_5 C20_7 1_555 1_555
O16_5 C20_7 1_555 1_555
C16_8 H8_8 1_555 1_555
C17_7 C16_8 1_555 1_555
C18_7 C17_7 1_555 1_555
H9_7 C18_7 1_555 1_555
C19_8 C18_7 1_555 1_555
C20_7 C17_7 1_555 1_555
C21_8 C19_8 1_555 1_555
C22_7 C7_7 1_555 1_555
C23_7 C22_7 1_555 1_555
H10_7 C23_7 1_555 1_555
C24_7 C9_7 1_555 1_555
H11_7 C24_7 1_555 1_555
C21_8 C22_7 1_555 1_555
C23_7 C24_7 1_555 1_555
O11_6 C5_8 1_555 1_555
O14_6 C5_8 1_555 1_555
C1_9 H1_9 1_555 1_555
C2_8 C1_9 1_555 1_555
C3_8 C2_8 1_555 1_555
H2_8 C3_8 1_555 1_555
C4_9 C3_8 1_555 1_555
C5_8 C2_8 1_555 1_555
C6_9 C4_9 1_555 1_555
C7_8 C6_9 1_555 1_555
C8_8 C7_8 1_555 1_555
H3_8 C8_8 1_555 1_555
C9_8 C8_8 1_555 1_555
H4_8 C9_8 1_555 1_555
O11 C12_8 1_555 1_555
O14 C12_8 1_555 1_555
C10_8 C1_9 1_555 1_555
C11_8 C4_9 1_555 1_555
H5_8 C11_8 1_555 1_555
C12_8 C10_8 1_555 1_555
C13_8 C6_9 1_555 1_555
C14_8 C13_8 1_555 1_555
H6_8 C14_8 1_555 1_555
C15_8 C14_8 1_555 1_555
H7_8 C15_8 1_555 1_555
O13_4 C20_8 1_555 1_555
O16_4 C20_8 1_555 1_555
C16_9 H8_9 1_555 1_555
C17_8 C16_9 1_555 1_555
C18_8 C17_8 1_555 1_555
H9_8 C18_8 1_555 1_555
C19_9 C18_8 1_555 1_555
C20_8 C17_8 1_555 1_555
C21_9 C19_9 1_555 1_555
C22_8 C7_8 1_555 1_555
C23_8 C22_8 1_555 1_555
H10_8 C23_8 1_555 1_555
C24_8 C9_8 1_555 1_555
H11_8 C24_8 1_555 1_555
O13_2 C27_8 1_555 1_555
O16_2 C27_8 1_555 1_555
C25_8 C16_9 1_555 1_555
C26_8 C19_9 1_555 1_555
H12_8 C26_8 1_555 1_555
C27_8 C25_8 1_555 1_555
C28_8 C13_8 1_555 1_555
C29_8 C28_8 1_555 1_555
H13_8 C29_8 1_555 1_555
C30_8 C15_8 1_555 1_555
H14_8 C30_8 1_555 1_555
C10_8 C11_8 1_555 1_555
C21_9 C22_8 1_555 1_555
C21_9 C28_8 1_555 1_555
C23_8 C24_8 1_555 1_555
C25_8 C26_8 1_555 1_555
C29_8 C30_8 1_555 1_555
O11_5 C5_9 1_555 1_555
O14_5 C5_9 1_555 1_555
C1_10 H1_10 1_555 1_555
C2_9 C1_10 1_555 1_555
C3_9 C2_9 1_555 1_555
H2_9 C3_9 1_555 1_555
C4_10 C3_9 1_555 1_555
C5_9 C2_9 1_555 1_555
C6_10 C4_10 1_555 1_555
C7_9 C6_10 1_555 1_555
C8_9 C7_9 1_555 1_555
H3_9 C8_9 1_555 1_555
C9_9 C8_9 1_555 1_555
H4_9 C9_9 1_555 1_555
O13_6 C20_9 1_555 1_555
O16_6 C20_9 1_555 1_555
C16_10 H8_10 1_555 1_555
C17_9 C16_10 1_555 1_555
C18_9 C17_9 1_555 1_555
H9_9 C18_9 1_555 1_555
C19_10 C18_9 1_555 1_555
C20_9 C17_9 1_555 1_555
C21_10 C19_10 1_555 1_555
C22_9 C7_9 1_555 1_555
C23_9 C22_9 1_555 1_555
H10_9 C23_9 1_555 1_555
C24_9 C9_9 1_555 1_555
H11_9 C24_9 1_555 1_555
C21_10 C22_9 1_555 1_555
C23_9 C24_9 1_555 1_555
C1_11 H1_11 1_555 1_555
C6_11 C4_11 1_555 1_555
O11_2 C12_9 1_555 1_555
O14_2 C12_9 1_555 1_555
C10_9 C1_11 1_555 1_555
C11_9 C4_11 1_555 1_555
H5_9 C11_9 1_555 1_555
C12_9 C10_9 1_555 1_555
C13_9 C6_11 1_555 1_555
C14_9 C13_9 1_555 1_555
H6_9 C14_9 1_555 1_555
C15_9 C14_9 1_555 1_555
H7_9 C15_9 1_555 1_555
C16_11 H8_11 1_555 1_555
C21_11 C19_11 1_555 1_555
O13_3 C27_9 1_555 1_555
O16_3 C27_9 1_555 1_555
C25_9 C16_11 1_555 1_555
C26_9 C19_11 1_555 1_555
H12_9 C26_9 1_555 1_555
C27_9 C25_9 1_555 1_555
C28_9 C13_9 1_555 1_555
C29_9 C28_9 1_555 1_555
H13_9 C29_9 1_555 1_555
C30_9 C15_9 1_555 1_555
H14_9 C30_9 1_555 1_555
C10_9 C11_9 1_555 1_555
C21_11 C28_9 1_555 1_555
C25_9 C26_9 1_555 1_555
C29_9 C30_9 1_555 1_555
O3_7 Zn4 1_555 1_555
O10_7 Zn6 1_555 1_555
O10_8 Zn7 1_555 1_555
O3_8 Zn5 1_555 1_555
O10_9 Zn6_2 1_555 1_555
O3_9 Zn4_2 1_555 1_555

#END
