
###############################################################################
#
# This file contains modified crystal structure data generated from the
# MOF subset of the Cambridge Structural Database (CSD) v543 
# hosted by the Cambridge Crystallographic Data Centre (CCDC).
#
# This work is licensed under the Creative Commons
# Attribution-NonCommercial-ShareAlike 4.0 International License.
# To view a copy of this license, visit
# http://creativecommons.org/licenses/by-nc-sa/4.0/
# or send a letter to
# Creative Commons, PO Box 1866, Mountain View, CA 94042, USA.
#
# CIF created using the CSD Python API on 29 September 2022
# The structure has been converted into the P1 space group
# The structure has a 3D framework
# The original CSD entry YOGLOY is in the monoclinic crystal system
# The framework has been calculated to contain at least 10.0% void space
# The void calculation uses a probe of radius 1.32A, grid spacing 0.4
#
###############################################################################

data_YOGLOY
_chemical_formula_moiety         '(C352 H272 N16 O64 S16 Zn8)n'
_symmetry_cell_setting           triclinic
_symmetry_space_group_name_H-M   'P 1'
_symmetry_Int_Tables_number      1
_space_group_name_Hall           'P 1'
loop_
_symmetry_equiv_pos_site_id
_symmetry_equiv_pos_as_xyz
1 x,y,z
_cell_length_a                   23.0418(7)
_cell_length_b                   27.7961(8)
_cell_length_c                   21.0596(7)
_cell_angle_alpha                90
_cell_angle_beta                 98.473(3)
_cell_angle_gamma                90
_cell_volume                     13340.9
loop_
_atom_site_label
_atom_site_type_symbol
_atom_site_fract_x
_atom_site_fract_y
_atom_site_fract_z
Zn1 Zn 0.03498(4) 0.22639(3) 0.21924(5)
C55 C 0.0023(3) 0.3731(3) 0.6778(4)
H48 H 0.0322 0.3811 0.7107
C61 C 0.1432(4) 0.2821(3) 0.0954(5)
C62 C 0.1985(4) 0.2730(3) 0.1254(5)
H53 H 0.2024 0.2581 0.1653
C63 C 0.2473(4) 0.2837(4) 0.1019(5)
H54 H 0.2837 0.2775 0.1260
C64 C 0.2443(4) 0.3032(3) 0.0442(6)
C65 C 0.1884(5) 0.3138(4) 0.0110(5)
C66 C 0.1399(5) 0.3033(4) 0.0351(6)
H56 H 0.1034 0.3102 0.0116
C67 C 0.2966(5) 0.3157(4) 0.0147(6)
C68 C 0.3470(7) 0.3301(6) 0.0497(8)
H57 H 0.3489 0.3331 0.0940
C69 C 0.3999(5) 0.3414(5) 0.0195(8)
H58 H 0.4341 0.3518 0.0449
C73 C 0.0907(4) 0.2688(3) 0.1246(6)
O9 O 0.0979(3) 0.2558(2) 0.1819(3)
O10 O 0.0413(3) 0.2723(3) 0.0928(4)
Zn4 Zn 0.03498(4) 0.27361(3) 0.71924(5)
O18 O 0.0792(3) 0.1920(2) 0.2890(3)
H55 H 0.1853 0.3286 0.9710
C70 C 0.3987(5) 0.3368(4) 0.9568(6)
C71 C 0.3512(6) 0.3195(4) 0.9198(7)
H59 H 0.3516 0.3138 0.8763
C72 C 0.3014(5) 0.3101(4) 0.9471(7)
H60 H 0.2684 0.2993 0.9200
C74 C 0.4585(7) 0.3482(5) 0.9362(8)
O11 O 0.4987(3) 0.3566(4) 0.9639(5)
O12 O 0.4531(4) 0.3359(3) 0.8721(5)
Zn6 Zn 0.56754(4) 0.36212(3) 0.92371(5)
Zn2 Zn 0.56754(4) 0.13788(3) 0.42371(5)
C1 C 0.5901(3) 0.4403(3) 0.3154(4)
C2 C 0.5717(3) 0.4683(3) 0.3632(5)
C3 C 0.5820(3) 0.5183(3) 0.3664(4)
C4 C 0.6118(3) 0.5382(3) 0.3203(4)
H1 H 0.6192 0.5711 0.3220
C5 C 0.6307(3) 0.5123(3) 0.2729(4)
C6 C 0.6204(3) 0.4615(3) 0.2725(4)
C7 C 0.6481(4) 0.5080(3) 0.5791(4)
C8 C 0.6933(4) 0.5429(3) 0.5890(5)
C9 C 0.6958(3) 0.5797(3) 0.5442(4)
C10 C 0.6524(4) 0.5811(3) 0.4891(4)
H2 H 0.6537 0.6056 0.4592
C11 C 0.6076(3) 0.5468(3) 0.4783(4)
C12 C 0.6071(4) 0.5095(3) 0.5242(5)
C13 C 0.8783(3) 0.5361(3) 0.5278(5)
C14 C 0.8835(3) 0.5462(3) 0.4663(5)
C15 C 0.8468(3) 0.5802(2) 0.4302(4)
C16 C 0.8042(3) 0.6017(2) 0.4593(4)
H3 H 0.7797 0.6242 0.4362
C17 C 0.7962(3) 0.5911(3) 0.5223(5)
C18 C 0.8335(4) 0.5579(3) 0.5551(5)
C19 C 0.8206(3) 0.4801(3) 0.2622(5)
C20 C 0.7604(4) 0.4858(3) 0.2378(5)
C21 C 0.7321(3) 0.5278(3) 0.2524(4)
C22 C 0.7626(4) 0.5616(3) 0.2898(4)
H4 H 0.7435 0.5899 0.2979
C23 C 0.8201(4) 0.5563(3) 0.3163(4)
C24 C 0.8479(4) 0.5132(3) 0.3011(4)
C25 C 0.5601(3) 0.5476(3) 0.4189(4)
H5 H 0.5254 0.5312 0.4304
C26 C 0.5413(4) 0.5998(3) 0.3977(4)
H6 H 0.5280 0.6164 0.4328
H7 H 0.5742 0.6166 0.3852
H8 H 0.5101 0.5985 0.3620
C27 C 0.7469(4) 0.6131(3) 0.5528(4)
H9 H 0.7606 0.6154 0.5990
C28 C 0.7296(4) 0.6652(2) 0.5283(4)
H10 H 0.7637 0.6855 0.5347
H11 H 0.7142 0.6641 0.4834
H12 H 0.7004 0.6779 0.5518
C29 C 0.8547(3) 0.5924(3) 0.3619(4)
H13 H 0.8963 0.5875 0.3587
C30 C 0.8406(3) 0.6451(2) 0.3439(4)
H14 H 0.8465 0.6505 0.3002
H15 H 0.8006 0.6518 0.3482
H16 H 0.8661 0.6658 0.3718
C31 C 0.6660(3) 0.5332(2) 0.2242(4)
H17 H 0.6586 0.5132 0.1855
C32 C 0.6478(4) 0.5853(3) 0.2047(4)
H18 H 0.6713 0.5968 0.1739
H19 H 0.6072 0.5858 0.1861
H20 H 0.6535 0.6055 0.2420
C33 C 0.5695(4) 0.4383(3) 0.4704(5)
H21 H 0.5549 0.4085 0.4860
H22 H 0.6109 0.4340 0.4683
C34 C 0.7864(4) 0.5160(3) 0.6360(5)
H23 H 0.7781 0.4924 0.6021
H24 H 0.8014 0.4992 0.6753
C35 C 0.9162(4) 0.4874(3) 0.3926(5)
H25 H 0.8815 0.4701 0.4009
H26 H 0.9486 0.4647 0.3966
C36 C 0.6960(4) 0.4173(3) 0.2275(5)
H27 H 0.7121 0.4134 0.2724
H28 H 0.6968 0.3862 0.2069
C37 C 0.5792(3) 0.3867(3) 0.3152(4)
H29 H 0.5754 0.3742 0.2718
H30 H 0.5434 0.3798 0.3325
C38 C 0.6411(4) 0.4709(3) 0.6312(4)
H31 H 0.6775 0.4669 0.6604
H32 H 0.6291 0.4400 0.6124
C39 C 0.9185(3) 0.4986(2) 0.5659(4)
H33 H 0.9214 0.5045 0.6116
H34 H 0.9576 0.4999 0.5540
C40 C 0.8529(4) 0.4371(3) 0.2394(5)
H35 H 0.8936 0.4454 0.2384
H36 H 0.8353 0.4282 0.1963
C41 C 0.6442(5) 0.2272(4) 0.4296(6)
H37 H 0.6713 0.2092 0.4569
C42 C 0.6568(4) 0.2743(3) 0.4171(6)
H38 H 0.6914 0.2882 0.4374
C43 C 0.6199(4) 0.3002(3) 0.3762(5)
C44 C 0.5688(4) 0.2790(3) 0.3455(5)
H39 H 0.5427 0.2961 0.3158
C45 C 0.5582(4) 0.2328(3) 0.3600(5)
H40 H 0.5243 0.2186 0.3386
C46 C 0.6103(5) 0.3898(3) 0.8040(5)
H41 H 0.6369 0.3651 0.8155
C47 C 0.6170(4) 0.4175(3) 0.7505(5)
H42 H 0.6463 0.4104 0.7258
C48 C 0.5791(4) 0.4560(3) 0.7347(4)
C49 C 0.5365(4) 0.4620(3) 0.7724(4)
H43 H 0.5099 0.4871 0.7632
C50 C 0.5315(4) 0.4333(3) 0.8220(4)
H44 H 0.5011 0.4391 0.8455
C51 C 0.9457(4) 0.3176(3) 0.6163(6)
H45 H 0.9366 0.2856 0.6062
C52 C 0.9143(4) 0.3512(3) 0.5811(5)
H46 H 0.8842 0.3426 0.5486
C53 C 0.9279(4) 0.3998(3) 0.5946(5)
C54 C 0.9718(4) 0.4101(3) 0.6427(5)
H47 H 0.9816 0.4420 0.6524
C56 C 0.9667(4) 0.3151(3) 0.2045(4)
H49 H 0.9863 0.3189 0.1692
C57 C 0.9268(4) 0.3501(3) 0.2172(5)
H50 H 0.9189 0.3766 0.1904
C58 C 0.8998(4) 0.3445(3) 0.2695(5)
C59 C 0.9101(4) 0.3041(3) 0.3083(5)
H51 H 0.8917 0.2999 0.3444
C60 C 0.9479(4) 0.2714(3) 0.2911(5)
H52 H 0.9542 0.2434 0.3153
C75 C 0.6630(7) 0.1041(5) 0.4759(6)
C76 C 0.7004(5) 0.0528(3) 0.5089(4)
C77 C 0.6793(3) 0.0097(4) 0.5299(4)
H61 H 0.6391 0.0048 0.5274
C80 C 0.7995(3) 0.0242(4) 0.5376(5)
H63 H 0.8397 0.0291 0.5402
C81 C 0.7605(5) 0.0601(3) 0.5128(5)
H64 H 0.7747 0.0889 0.4987
N1 N 0.5922(3) 0.2060(2) 0.4023(4)
N2 N 0.5676(3) 0.3969(2) 0.8396(3)
N3 N 0.9903(3) 0.3261(2) 0.6661(3)
N4 N 0.9773(3) 0.2771(2) 0.2405(4)
O1 O 0.5394(2) 0.44711(19) 0.4064(3)
O2 O 0.5634(2) 0.4748(2) 0.5150(3)
O3 O 0.7339(3) 0.5401(2) 0.6441(3)
O4 O 0.8301(2) 0.5489(2) 0.6203(3)
O5 O 0.9292(2) 0.52472(19) 0.4389(3)
O6 O 0.9064(2) 0.50609(18) 0.3285(3)
O7 O 0.7318(3) 0.4500(2) 0.1984(3)
O8 O 0.6360(2) 0.43359(19) 0.2227(3)
O15 O 0.6178(5) 0.0895(4) 0.4798(5)
O16 O 0.6915(5) 0.1270(4) 0.4336(8)
S1 S 0.64041(11) 0.35987(8) 0.36386(16)
S2 S 0.58454(11) 0.49629(9) 0.67244(12)
S3 S 0.88477(10) 0.44001(8) 0.54528(14)
S4 S 0.84876(11) 0.38764(8) 0.29272(14)
N5 N 0.5676(3) 0.1031(2) 0.3396(3)
N6 N 0.9903(3) 0.1739(2) 0.1661(3)
O17 O 0.4987(3) 0.1434(4) 0.4639(5)
C78 C 0.7182(5) 0.9739(3) 0.5548(4)
H62 H 0.7040 0.9451 0.5689
C79 C 0.7783(4) 0.9811(3) 0.5586(4)
C82 C 0.8207(5) 0.9424(4) 0.5846(6)
C83 C 0.8074(5) 0.9124(5) 0.6303(5)
H65 H 0.7711 0.9152 0.6443
C84 C 0.8459(5) 0.8778(4) 0.6568(5)
H66 H 0.8347 0.8585 0.6891
C85 C 0.8984(5) 0.8700(3) 0.6390(5)
C86 C 0.9128(5) 0.8997(4) 0.5926(7)
H67 H 0.9487 0.8955 0.5781
C87 C 0.8752(5) 0.9367(4) 0.5658(6)
H68 H 0.8871 0.9573 0.5354
C88 C 0.9389(5) 0.8324(3) 0.6681(6)
O13 O 0.9881(3) 0.8266(3) 0.6493(4)
O14 O 0.9208(3) 0.8080(2) 0.7110(3)
Zn3 Zn 0.96502(4) 0.77361(3) 0.78076(5)
Zn2_2 Zn 0.43246(4) 0.63788(3) 0.07629(5)
C1_2 C 0.4099(3) 0.9403(3) 0.1846(4)
C2_2 C 0.4283(3) 0.9683(3) 0.1368(5)
C6_2 C 0.3796(3) 0.9615(3) 0.2275(4)
C19_2 C 0.1794(3) 0.9801(3) 0.2378(5)
C20_2 C 0.2396(4) 0.9858(3) 0.2622(5)
C33_2 C 0.4305(4) 0.9383(3) 0.0296(5)
H21_2 H 0.4451 0.9085 0.0140
H22_2 H 0.3891 0.9340 0.0317
C35_2 C 0.0838(4) 0.9874(3) 0.1074(5)
H25_2 H 0.1185 0.9701 0.0991
H26_2 H 0.0514 0.9647 0.1034
C36_2 C 0.3040(4) 0.9173(3) 0.2725(5)
H27_2 H 0.2879 0.9134 0.2276
H28_2 H 0.3032 0.8862 0.2931
C37_2 C 0.4208(3) 0.8867(3) 0.1848(4)
H29_2 H 0.4246 0.8742 0.2282
H30_2 H 0.4566 0.8798 0.1675
C40_2 C 0.1471(4) 0.9371(3) 0.2606(5)
H35_2 H 0.1064 0.9454 0.2616
H36_2 H 0.1647 0.9282 0.3037
C41_2 C 0.3558(5) 0.7272(4) 0.0704(6)
H37_2 H 0.3287 0.7092 0.0431
C42_2 C 0.3432(4) 0.7743(3) 0.0829(6)
H38_2 H 0.3086 0.7882 0.0626
C43_2 C 0.3801(4) 0.8002(3) 0.1238(5)
C44_2 C 0.4312(4) 0.7790(3) 0.1545(5)
H39_2 H 0.4573 0.7961 0.1842
C45_2 C 0.4418(4) 0.7328(3) 0.1400(5)
H40_2 H 0.4757 0.7186 0.1614
C56_2 C 0.0333(4) 0.8151(3) 0.2955(4)
H49_2 H 0.0137 0.8189 0.3308
C57_2 C 0.0732(4) 0.8501(3) 0.2828(5)
H50_2 H 0.0811 0.8766 0.3096
C58_2 C 0.1002(4) 0.8445(3) 0.2305(5)
C59_2 C 0.0899(4) 0.8041(3) 0.1917(5)
H51_2 H 0.1083 0.7999 0.1556
C60_2 C 0.0521(4) 0.7714(3) 0.2089(5)
H52_2 H 0.0458 0.7434 0.1847
C75_2 C 0.3370(7) 0.6041(5) 0.0241(6)
H64_2 H 0.2253 0.5889 0.0013
N1_2 N 0.4078(3) 0.7060(2) 0.0977(4)
N4_2 N 0.0227(3) 0.7771(2) 0.2595(4)
O1_2 O 0.4606(2) 0.94711(19) 0.0936(3)
O7_2 O 0.2682(3) 0.9500(2) 0.3016(3)
O8_2 O 0.3640(2) 0.93359(19) 0.2773(3)
O15_2 O 0.3822(5) 0.5895(4) 0.0202(5)
O16_2 O 0.3085(5) 0.6270(4) 0.0664(8)
S1_2 S 0.35959(11) 0.85987(8) 0.13614(16)
S4_2 S 0.15124(11) 0.88764(8) 0.20728(14)
N5_2 N 0.4324(3) 0.6031(2) 0.1604(3)
N6_2 N 0.0097(3) 0.6739(2) 0.3339(3)
O17_2 O 0.5013(3) 0.6434(4) 0.0361(5)
H23_2 H 0.2219 0.9924 0.8979
H24_2 H 0.1986 0.9992 0.8247
C38_2 C 0.3589(4) 0.9709(3) 0.8688(4)
H31_2 H 0.3225 0.9669 0.8396
H32_2 H 0.3709 0.9400 0.8876
C39_2 C 0.0815(3) 0.9986(2) 0.9341(4)
H34_2 H 0.0424 0.9999 0.9460
C46_2 C 0.3897(5) 0.8898(3) 0.6960(5)
H41_2 H 0.3631 0.8651 0.6845
C47_2 C 0.3830(4) 0.9175(3) 0.7495(5)
H42_2 H 0.3537 0.9104 0.7742
C48_2 C 0.4209(4) 0.9560(3) 0.7653(4)
C49_2 C 0.4635(4) 0.9620(3) 0.7276(4)
H43_2 H 0.4901 0.9871 0.7368
C50_2 C 0.4685(4) 0.9333(3) 0.6780(4)
H44_2 H 0.4989 0.9391 0.6545
C51_2 C 0.0543(4) 0.8176(3) 0.8837(6)
H45_2 H 0.0634 0.7856 0.8938
C52_2 C 0.0857(4) 0.8512(3) 0.9189(5)
H46_2 H 0.1158 0.8426 0.9514
C53_2 C 0.0721(4) 0.8998(3) 0.9054(5)
C54_2 C 0.0282(4) 0.9101(3) 0.8573(5)
H47_2 H 0.0184 0.9420 0.8476
C76_2 C 0.2996(5) 0.5528(3) 0.9911(4)
C77_2 C 0.3207(3) 0.5097(4) 0.9701(4)
H61_2 H 0.3609 0.5048 0.9726
C78_2 C 0.2818(5) 0.4739(3) 0.9452(4)
H62_2 H 0.2960 0.4451 0.9311
C79_2 C 0.2217(4) 0.4811(3) 0.9414(4)
C80_2 C 0.2005(3) 0.5242(4) 0.9624(5)
H63_2 H 0.1603 0.5291 0.9598
C81_2 C 0.2395(5) 0.5601(3) 0.9872(5)
C82_2 C 0.1793(5) 0.4424(4) 0.9154(6)
C83_2 C 0.1926(5) 0.4124(5) 0.8697(5)
H65_2 H 0.2289 0.4152 0.8557
C84_2 C 0.1541(5) 0.3778(4) 0.8432(5)
H66_2 H 0.1653 0.3585 0.8109
C85_2 C 0.1016(5) 0.3700(3) 0.8610(5)
C86_2 C 0.0872(5) 0.3997(4) 0.9074(7)
H67_2 H 0.0513 0.3955 0.9219
C87_2 C 0.1248(5) 0.4367(4) 0.9342(6)
H68_2 H 0.1129 0.4573 0.9646
C88_2 C 0.0611(5) 0.3324(3) 0.8319(6)
N2_2 N 0.4324(3) 0.8969(2) 0.6604(3)
N3_2 N 0.0097(3) 0.8261(2) 0.8339(3)
O2_2 O 0.4366(2) 0.9748(2) 0.9850(3)
O13_2 O 0.0119(3) 0.3266(3) 0.8507(4)
O14_2 O 0.0792(3) 0.3080(2) 0.7890(3)
S2_2 S 0.41546(11) 0.99629(9) 0.82756(12)
S3_2 S 0.11523(10) 0.94001(8) 0.95472(14)
Zn5 Zn 0.43246(4) 0.86212(3) 0.57629(5)
Zn1_2 Zn 0.96502(4) 0.72639(3) 0.28076(5)
C61_2 C 0.8568(4) 0.7821(3) 0.4046(5)
C62_2 C 0.8015(4) 0.7730(3) 0.3746(5)
H53_2 H 0.7976 0.7581 0.3347
C63_2 C 0.7527(4) 0.7837(4) 0.3981(5)
H54_2 H 0.7163 0.7775 0.3740
C64_2 C 0.7557(4) 0.8032(3) 0.4558(6)
C65_2 C 0.8116(5) 0.8138(4) 0.4890(5)
H55_2 H 0.8147 0.8286 0.5290
C66_2 C 0.8601(5) 0.8033(4) 0.4649(6)
H56_2 H 0.8966 0.8102 0.4884
C67_2 C 0.7034(5) 0.8157(4) 0.4853(6)
C68_2 C 0.6530(7) 0.8301(6) 0.4503(8)
H57_2 H 0.6511 0.8331 0.4060
C69_2 C 0.6001(5) 0.8414(5) 0.4805(8)
H58_2 H 0.5659 0.8518 0.4551
C70_2 C 0.6013(5) 0.8368(4) 0.5432(6)
C71_2 C 0.6488(6) 0.8195(4) 0.5802(7)
H59_2 H 0.6484 0.8138 0.6237
C72_2 C 0.6986(5) 0.8101(4) 0.5529(7)
H60_2 H 0.7316 0.7993 0.5800
C73_2 C 0.9093(4) 0.7688(3) 0.3754(6)
C74_2 C 0.5415(7) 0.8482(5) 0.5638(8)
O9_2 O 0.9021(3) 0.7558(2) 0.3181(3)
O10_2 O 0.9587(3) 0.7723(3) 0.4072(4)
O11_2 O 0.5013(3) 0.8566(4) 0.5361(5)
O12_2 O 0.5469(4) 0.8359(3) 0.6279(5)
O18_2 O 0.9208(3) 0.6920(2) 0.2110(3)
C55_2 C 0.9977(3) 0.8731(3) 0.8222(4)
H48_2 H 0.9678 0.8811 0.7893
C78_3 C 0.2818(5) 0.0261(3) 0.4452(4)
H62_3 H 0.2960 0.0549 0.4311
C79_3 C 0.2217(4) 0.0189(3) 0.4414(4)
C82_3 C 0.1793(5) 0.0576(4) 0.4154(6)
C83_3 C 0.1926(5) 0.0876(5) 0.3697(5)
H65_3 H 0.2289 0.0848 0.3557
C84_3 C 0.1541(5) 0.1222(4) 0.3432(5)
H66_3 H 0.1653 0.1415 0.3109
C85_3 C 0.1016(5) 0.1300(3) 0.3610(5)
C86_3 C 0.0872(5) 0.1003(4) 0.4074(7)
H67_3 H 0.0513 0.1045 0.4219
C87_3 C 0.1248(5) 0.0633(4) 0.4342(6)
H68_3 H 0.1129 0.0427 0.4646
C88_3 C 0.0611(5) 0.1676(3) 0.3319(6)
O13_3 O 0.0119(3) 0.1734(3) 0.3507(4)
C1_3 C 0.4099(3) 0.5597(3) 0.6846(4)
C2_3 C 0.4283(3) 0.5317(3) 0.6368(5)
C3_2 C 0.4180(3) 0.4817(3) 0.6336(4)
C4_2 C 0.3882(3) 0.4618(3) 0.6797(4)
H1_2 H 0.3808 0.4289 0.6780
C5_2 C 0.3693(3) 0.4877(3) 0.7271(4)
C6_3 C 0.3796(3) 0.5385(3) 0.7275(4)
C7_2 C 0.3519(4) 0.4920(3) 0.4209(4)
C8_2 C 0.3067(4) 0.4571(3) 0.4110(5)
C9_2 C 0.3042(3) 0.4203(3) 0.4558(4)
C10_2 C 0.3476(4) 0.4189(3) 0.5109(4)
H2_2 H 0.3463 0.3944 0.5408
C11_2 C 0.3924(3) 0.4532(3) 0.5217(4)
C12_2 C 0.3929(4) 0.4905(3) 0.4758(5)
C13_2 C 0.1217(3) 0.4639(3) 0.4722(5)
C14_2 C 0.1165(3) 0.4538(3) 0.5337(5)
C15_2 C 0.1532(3) 0.4198(2) 0.5698(4)
C16_2 C 0.1958(3) 0.3983(2) 0.5407(4)
H3_2 H 0.2203 0.3758 0.5638
C17_2 C 0.2038(3) 0.4089(3) 0.4777(5)
C18_2 C 0.1665(4) 0.4421(3) 0.4449(5)
C19_3 C 0.1794(3) 0.5199(3) 0.7378(5)
C20_3 C 0.2396(4) 0.5142(3) 0.7622(5)
C21_2 C 0.2679(3) 0.4722(3) 0.7476(4)
C22_2 C 0.2374(4) 0.4384(3) 0.7102(4)
H4_2 H 0.2565 0.4101 0.7021
C23_2 C 0.1799(4) 0.4437(3) 0.6837(4)
C24_2 C 0.1521(4) 0.4868(3) 0.6989(4)
C25_2 C 0.4399(3) 0.4524(3) 0.5811(4)
H5_2 H 0.4746 0.4688 0.5696
C26_2 C 0.4587(4) 0.4002(3) 0.6023(4)
H6_2 H 0.4720 0.3836 0.5672
H7_2 H 0.4258 0.3834 0.6148
H8_2 H 0.4899 0.4015 0.6380
C27_2 C 0.2531(4) 0.3869(3) 0.4472(4)
H9_2 H 0.2394 0.3846 0.4010
C28_2 C 0.2704(4) 0.3348(2) 0.4717(4)
H10_2 H 0.2363 0.3145 0.4653
H11_2 H 0.2858 0.3359 0.5166
H12_2 H 0.2996 0.3221 0.4482
C29_2 C 0.1453(3) 0.4076(3) 0.6381(4)
H13_2 H 0.1037 0.4125 0.6413
C30_2 C 0.1594(3) 0.3549(2) 0.6561(4)
H14_2 H 0.1535 0.3495 0.6998
H15_2 H 0.1994 0.3482 0.6518
H16_2 H 0.1339 0.3342 0.6282
C31_2 C 0.3340(3) 0.4668(2) 0.7758(4)
H17_2 H 0.3414 0.4868 0.8145
C32_2 C 0.3522(4) 0.4147(3) 0.7953(4)
H18_2 H 0.3287 0.4032 0.8261
H19_2 H 0.3928 0.4142 0.8139
H20_2 H 0.3465 0.3945 0.7580
C33_3 C 0.4305(4) 0.5617(3) 0.5296(5)
H21_3 H 0.4451 0.5915 0.5140
H22_3 H 0.3891 0.5660 0.5317
C34_2 C 0.2136(4) 0.4840(3) 0.3640(5)
H23_3 H 0.2219 0.5076 0.3979
H24_3 H 0.1986 0.5008 0.3247
C35_3 C 0.0838(4) 0.5126(3) 0.6074(5)
H25_3 H 0.1185 0.5299 0.5991
H26_3 H 0.0514 0.5353 0.6034
C36_3 C 0.3040(4) 0.5827(3) 0.7725(5)
H27_3 H 0.2879 0.5866 0.7276
H28_3 H 0.3032 0.6138 0.7931
C37_3 C 0.4208(3) 0.6133(3) 0.6848(4)
H29_3 H 0.4246 0.6258 0.7282
H30_3 H 0.4566 0.6202 0.6675
C38_3 C 0.3589(4) 0.5291(3) 0.3688(4)
H31_3 H 0.3225 0.5331 0.3396
H32_3 H 0.3709 0.5600 0.3876
C39_3 C 0.0815(3) 0.5014(2) 0.4341(4)
H33_2 H 0.0786 0.4955 0.3884
H34_3 H 0.0424 0.5001 0.4460
C40_3 C 0.1471(4) 0.5629(3) 0.7606(5)
H35_3 H 0.1064 0.5546 0.7616
H36_3 H 0.1647 0.5718 0.8037
C41_3 C 0.3558(5) 0.7728(4) 0.5704(6)
H37_3 H 0.3287 0.7908 0.5431
C42_3 C 0.3432(4) 0.7257(3) 0.5829(6)
H38_3 H 0.3086 0.7118 0.5626
C43_3 C 0.3801(4) 0.6998(3) 0.6238(5)
C44_3 C 0.4312(4) 0.7210(3) 0.6545(5)
H39_3 H 0.4573 0.7039 0.6842
C45_3 C 0.4418(4) 0.7672(3) 0.6400(5)
H40_3 H 0.4757 0.7814 0.6614
C46_3 C 0.3897(5) 0.6102(3) 0.1960(5)
H41_3 H 0.3631 0.6349 0.1845
C47_3 C 0.3830(4) 0.5825(3) 0.2495(5)
H42_3 H 0.3537 0.5896 0.2742
C48_3 C 0.4209(4) 0.5440(3) 0.2653(4)
C49_3 C 0.4635(4) 0.5380(3) 0.2276(4)
H43_3 H 0.4901 0.5129 0.2368
C50_3 C 0.4685(4) 0.5667(3) 0.1780(4)
H44_3 H 0.4989 0.5609 0.1545
C51_3 C 0.0543(4) 0.6824(3) 0.3837(6)
H45_3 H 0.0634 0.7144 0.3938
C52_3 C 0.0857(4) 0.6488(3) 0.4189(5)
H46_3 H 0.1158 0.6574 0.4514
C53_3 C 0.0721(4) 0.6002(3) 0.4054(5)
C54_3 C 0.0282(4) 0.5899(3) 0.3573(5)
H47_3 H 0.0184 0.5580 0.3476
C56_3 C 0.0333(4) 0.6849(3) 0.7955(4)
H49_3 H 0.0137 0.6811 0.8308
C57_3 C 0.0732(4) 0.6499(3) 0.7828(5)
H50_3 H 0.0811 0.6234 0.8096
C58_3 C 0.1002(4) 0.6555(3) 0.7305(5)
C59_3 C 0.0899(4) 0.6959(3) 0.6917(5)
H51_3 H 0.1083 0.7001 0.6556
C60_3 C 0.0521(4) 0.7286(3) 0.7089(5)
H52_3 H 0.0458 0.7566 0.6847
C75_3 C 0.3370(7) 0.8959(5) 0.5241(6)
C76_3 C 0.2996(5) 0.9472(3) 0.4911(4)
C77_3 C 0.3207(3) 0.9903(4) 0.4701(4)
H61_3 H 0.3609 0.9952 0.4726
C80_3 C 0.2005(3) 0.9758(4) 0.4624(5)
H63_3 H 0.1603 0.9709 0.4598
C81_3 C 0.2395(5) 0.9399(3) 0.4872(5)
H64_3 H 0.2253 0.9111 0.5013
N1_3 N 0.4078(3) 0.7940(2) 0.5977(4)
N4_3 N 0.0227(3) 0.7229(2) 0.7595(4)
O1_3 O 0.4606(2) 0.55289(19) 0.5936(3)
O2_3 O 0.4366(2) 0.5252(2) 0.4850(3)
O3_2 O 0.2661(3) 0.4599(2) 0.3559(3)
O4_2 O 0.1699(2) 0.4511(2) 0.3797(3)
O5_2 O 0.0708(2) 0.47528(19) 0.5611(3)
O6_2 O 0.0936(2) 0.49391(18) 0.6715(3)
O7_3 O 0.2682(3) 0.5500(2) 0.8016(3)
O8_3 O 0.3640(2) 0.56641(19) 0.7773(3)
O15_3 O 0.3822(5) 0.9105(4) 0.5202(5)
O16_3 O 0.3085(5) 0.8730(4) 0.5664(8)
S1_3 S 0.35959(11) 0.64013(8) 0.63614(16)
S2_3 S 0.41546(11) 0.50371(9) 0.32756(12)
S3_3 S 0.11523(10) 0.55999(8) 0.45472(14)
S4_3 S 0.15124(11) 0.61236(8) 0.70728(14)
H55_3 H 0.8147 0.6714 0.0290
C70_3 C 0.6013(5) 0.6632(4) 0.0432(6)
C71_3 C 0.6488(6) 0.6805(4) 0.0802(7)
H59_3 H 0.6484 0.6862 0.1237
C72_3 C 0.6986(5) 0.6899(4) 0.0529(7)
H60_3 H 0.7316 0.7007 0.0800
C74_3 C 0.5415(7) 0.6518(5) 0.0638(8)
O12_3 O 0.5469(4) 0.6641(3) 0.1279(5)
C55_3 C 0.9977(3) 0.6269(3) 0.3222(4)
H48_3 H 0.9678 0.6189 0.2893
C61_3 C 0.8568(4) 0.7179(3) 0.9046(5)
C62_3 C 0.8015(4) 0.7270(3) 0.8746(5)
H53_3 H 0.7976 0.7419 0.8347
C63_3 C 0.7527(4) 0.7163(4) 0.8981(5)
H54_3 H 0.7163 0.7225 0.8740
C64_3 C 0.7557(4) 0.6968(3) 0.9558(6)
C65_3 C 0.8116(5) 0.6862(4) 0.9890(5)
C66_3 C 0.8601(5) 0.6967(4) 0.9649(6)
H56_3 H 0.8966 0.6898 0.9884
C67_3 C 0.7034(5) 0.6843(4) 0.9853(6)
C68_3 C 0.6530(7) 0.6699(6) 0.9503(8)
H57_3 H 0.6511 0.6669 0.9060
C69_3 C 0.6001(5) 0.6586(5) 0.9805(8)
H58_3 H 0.5659 0.6482 0.9551
C73_3 C 0.9093(4) 0.7312(3) 0.8754(6)
O9_3 O 0.9021(3) 0.7442(2) 0.8181(3)
O10_3 O 0.9587(3) 0.7277(3) 0.9072(4)
C55_4 C 0.0023(3) 0.1269(3) 0.1778(4)
H48_4 H 0.0322 0.1189 0.2107
C61_4 C 0.1432(4) 0.2179(3) 0.5954(5)
C62_4 C 0.1985(4) 0.2270(3) 0.6254(5)
H53_4 H 0.2024 0.2419 0.6653
C63_4 C 0.2473(4) 0.2163(4) 0.6019(5)
H54_4 H 0.2837 0.2225 0.6260
C64_4 C 0.2443(4) 0.1968(3) 0.5442(6)
C65_4 C 0.1884(5) 0.1862(4) 0.5110(5)
H55_4 H 0.1853 0.1714 0.4710
C66_4 C 0.1399(5) 0.1967(4) 0.5351(6)
H56_4 H 0.1034 0.1898 0.5116
C67_4 C 0.2966(5) 0.1843(4) 0.5147(6)
C68_4 C 0.3470(7) 0.1699(6) 0.5497(8)
H57_4 H 0.3489 0.1669 0.5940
C69_4 C 0.3999(5) 0.1586(5) 0.5195(8)
H58_4 H 0.4341 0.1482 0.5449
C70_4 C 0.3987(5) 0.1632(4) 0.4568(6)
C71_4 C 0.3512(6) 0.1805(4) 0.4198(7)
H59_4 H 0.3516 0.1862 0.3763
C72_4 C 0.3014(5) 0.1899(4) 0.4471(7)
H60_4 H 0.2684 0.2007 0.4200
C73_4 C 0.0907(4) 0.2312(3) 0.6246(6)
C74_4 C 0.4585(7) 0.1518(5) 0.4362(8)
O9_4 O 0.0979(3) 0.2442(2) 0.6819(3)
O10_4 O 0.0413(3) 0.2277(3) 0.5928(4)
O12_4 O 0.4531(4) 0.1641(3) 0.3721(5)
H23_4 H 0.7781 0.0076 0.1021
H24_4 H 0.8014 0.0008 0.1753
C38_4 C 0.6411(4) 0.0291(3) 0.1312(4)
H31_4 H 0.6775 0.0331 0.1604
H32_4 H 0.6291 0.0600 0.1124
C39_4 C 0.9185(3) 0.0014(2) 0.0659(4)
H34_4 H 0.9576 0.0001 0.0540
C46_4 C 0.6103(5) 0.1102(3) 0.3040(5)
H41_4 H 0.6369 0.1349 0.3155
C47_4 C 0.6170(4) 0.0825(3) 0.2505(5)
H42_4 H 0.6463 0.0896 0.2258
C48_4 C 0.5791(4) 0.0440(3) 0.2347(4)
C49_4 C 0.5365(4) 0.0380(3) 0.2724(4)
H43_4 H 0.5099 0.0129 0.2632
C50_4 C 0.5315(4) 0.0667(3) 0.3220(4)
H44_4 H 0.5011 0.0609 0.3455
C51_4 C 0.9457(4) 0.1824(3) 0.1163(6)
H45_4 H 0.9366 0.2144 0.1062
C52_4 C 0.9143(4) 0.1488(3) 0.0811(5)
H46_4 H 0.8842 0.1574 0.0486
C53_4 C 0.9279(4) 0.1002(3) 0.0946(5)
C54_4 C 0.9718(4) 0.0899(3) 0.1427(5)
H47_4 H 0.9816 0.0580 0.1524
C76_4 C 0.7004(5) 0.4472(3) 0.0089(4)
C77_4 C 0.6793(3) 0.4903(4) 0.0299(4)
H61_4 H 0.6391 0.4952 0.0274
C78_4 C 0.7182(5) 0.5261(3) 0.0548(4)
H62_4 H 0.7040 0.5549 0.0689
C79_4 C 0.7783(4) 0.5189(3) 0.0586(4)
C80_4 C 0.7995(3) 0.4758(4) 0.0376(5)
H63_4 H 0.8397 0.4709 0.0402
C81_4 C 0.7605(5) 0.4399(3) 0.0128(5)
C82_4 C 0.8207(5) 0.5576(4) 0.0846(6)
C83_4 C 0.8074(5) 0.5876(5) 0.1303(5)
H65_4 H 0.7711 0.5848 0.1443
C84_4 C 0.8459(5) 0.6222(4) 0.1568(5)
H66_4 H 0.8347 0.6415 0.1891
C85_4 C 0.8984(5) 0.6300(3) 0.1390(5)
C86_4 C 0.9128(5) 0.6003(4) 0.0926(7)
H67_4 H 0.9487 0.6045 0.0781
C87_4 C 0.8752(5) 0.5633(4) 0.0658(6)
H68_4 H 0.8871 0.5427 0.0354
C88_4 C 0.9389(5) 0.6676(3) 0.1681(6)
O2_4 O 0.5634(2) 0.0252(2) 0.0150(3)
O13_4 O 0.9881(3) 0.6734(3) 0.1493(4)
S2_4 S 0.58454(11) 0.00371(9) 0.17244(12)
S3_4 S 0.88477(10) 0.05999(8) 0.04528(14)
C1_4 C 0.5901(3) 0.0597(3) 0.8154(4)
C2_4 C 0.5717(3) 0.0317(3) 0.8632(5)
C6_4 C 0.6204(3) 0.0385(3) 0.7725(4)
C19_4 C 0.8206(3) 0.0199(3) 0.7622(5)
C20_4 C 0.7604(4) 0.0142(3) 0.7378(5)
C33_4 C 0.5695(4) 0.0617(3) 0.9704(5)
H21_4 H 0.5549 0.0915 0.9860
H22_4 H 0.6109 0.0660 0.9683
C35_4 C 0.9162(4) 0.0126(3) 0.8926(5)
H25_4 H 0.8815 0.0299 0.9009
H26_4 H 0.9486 0.0353 0.8966
C36_4 C 0.6960(4) 0.0827(3) 0.7275(5)
H27_4 H 0.7121 0.0866 0.7724
H28_4 H 0.6968 0.1138 0.7069
C37_4 C 0.5792(3) 0.1133(3) 0.8152(4)
H29_4 H 0.5754 0.1258 0.7718
H30_4 H 0.5434 0.1202 0.8325
C40_4 C 0.8529(4) 0.0629(3) 0.7394(5)
H35_4 H 0.8936 0.0546 0.7384
H36_4 H 0.8353 0.0718 0.6963
C41_4 C 0.6442(5) 0.2728(4) 0.9296(6)
H37_4 H 0.6713 0.2908 0.9569
C42_4 C 0.6568(4) 0.2257(3) 0.9171(6)
H38_4 H 0.6914 0.2118 0.9374
C43_4 C 0.6199(4) 0.1998(3) 0.8762(5)
C44_4 C 0.5688(4) 0.2210(3) 0.8455(5)
H39_4 H 0.5427 0.2039 0.8158
C45_4 C 0.5582(4) 0.2672(3) 0.8600(5)
H40_4 H 0.5243 0.2814 0.8386
C56_4 C 0.9667(4) 0.1849(3) 0.7045(4)
H49_4 H 0.9863 0.1811 0.6692
C57_4 C 0.9268(4) 0.1499(3) 0.7172(5)
H50_4 H 0.9189 0.1234 0.6904
C58_4 C 0.8998(4) 0.1555(3) 0.7695(5)
C59_4 C 0.9101(4) 0.1959(3) 0.8083(5)
H51_4 H 0.8917 0.2001 0.8444
C60_4 C 0.9479(4) 0.2286(3) 0.7911(5)
H52_4 H 0.9542 0.2566 0.8153
C75_4 C 0.6630(7) 0.3959(5) 0.9759(6)
H64_4 H 0.7747 0.4111 0.9987
N1_4 N 0.5922(3) 0.2940(2) 0.9023(4)
N4_4 N 0.9773(3) 0.2229(2) 0.7405(4)
O1_4 O 0.5394(2) 0.05289(19) 0.9064(3)
O7_4 O 0.7318(3) 0.0500(2) 0.6984(3)
O8_4 O 0.6360(2) 0.06641(19) 0.7227(3)
O15_4 O 0.6178(5) 0.4105(4) 0.9798(5)
O16_4 O 0.6915(5) 0.3730(4) 0.9336(8)
S1_4 S 0.64041(11) 0.14013(8) 0.86386(16)
S4_4 S 0.84876(11) 0.11236(8) 0.79272(14)
C3_3 C 0.4180(3) 0.0183(3) 0.1336(4)
C4_3 C 0.3882(3) 0.0382(3) 0.1797(4)
H1_3 H 0.3808 0.0711 0.1780
C5_3 C 0.3693(3) 0.0123(3) 0.2271(4)
C10_3 C 0.3476(4) 0.0811(3) 0.0109(4)
H2_3 H 0.3463 0.1056 0.0408
C11_3 C 0.3924(3) 0.0468(3) 0.0217(4)
C14_3 C 0.1165(3) 0.0462(3) 0.0337(5)
C15_3 C 0.1532(3) 0.0802(2) 0.0698(4)
C16_3 C 0.1958(3) 0.1017(2) 0.0407(4)
H3_3 H 0.2203 0.1242 0.0638
C21_3 C 0.2679(3) 0.0278(3) 0.2476(4)
C22_3 C 0.2374(4) 0.0616(3) 0.2102(4)
H4_3 H 0.2565 0.0899 0.2021
C23_3 C 0.1799(4) 0.0563(3) 0.1837(4)
C24_3 C 0.1521(4) 0.0132(3) 0.1989(4)
C25_3 C 0.4399(3) 0.0476(3) 0.0811(4)
H5_3 H 0.4746 0.0312 0.0696
C26_3 C 0.4587(4) 0.0998(3) 0.1023(4)
H6_3 H 0.4720 0.1164 0.0672
H7_3 H 0.4258 0.1166 0.1148
H8_3 H 0.4899 0.0985 0.1380
H11_3 H 0.2858 0.1641 0.0166
C29_3 C 0.1453(3) 0.0924(3) 0.1381(4)
H13_3 H 0.1037 0.0875 0.1413
C30_3 C 0.1594(3) 0.1451(2) 0.1561(4)
H14_3 H 0.1535 0.1505 0.1998
H15_3 H 0.1994 0.1518 0.1518
H16_3 H 0.1339 0.1658 0.1282
C31_3 C 0.3340(3) 0.0332(2) 0.2758(4)
H17_3 H 0.3414 0.0132 0.3145
C32_3 C 0.3522(4) 0.0853(3) 0.2953(4)
H18_3 H 0.3287 0.0968 0.3261
H19_3 H 0.3928 0.0858 0.3139
H20_3 H 0.3465 0.1055 0.2580
O5_3 O 0.0708(2) 0.02472(19) 0.0611(3)
O6_3 O 0.0936(2) 0.00609(18) 0.1715(3)
C7_3 C 0.3519(4) 0.0080(3) 0.9209(4)
C8_3 C 0.3067(4) 0.0429(3) 0.9110(5)
C9_3 C 0.3042(3) 0.0797(3) 0.9558(4)
C12_3 C 0.3929(4) 0.0095(3) 0.9758(5)
C13_3 C 0.1217(3) 0.0361(3) 0.9722(5)
C17_3 C 0.2038(3) 0.0911(3) 0.9777(5)
C18_3 C 0.1665(4) 0.0579(3) 0.9449(5)
C27_3 C 0.2531(4) 0.1131(3) 0.9472(4)
H9_3 H 0.2394 0.1154 0.9010
C28_3 C 0.2704(4) 0.1652(2) 0.9717(4)
H10_3 H 0.2363 0.1855 0.9653
H12_3 H 0.2996 0.1779 0.9482
C34_3 C 0.2136(4) 0.0160(3) 0.8640(5)
H33_3 H 0.0786 0.0045 0.8884
O3_3 O 0.2661(3) 0.0401(2) 0.8559(3)
O4_3 O 0.1699(2) 0.0489(2) 0.8797(3)
C7_4 C 0.6481(4) 0.9920(3) 0.0791(4)
C8_4 C 0.6933(4) 0.9571(3) 0.0890(5)
C9_4 C 0.6958(3) 0.9203(3) 0.0442(4)
C12_4 C 0.6071(4) 0.9905(3) 0.0242(5)
C13_4 C 0.8783(3) 0.9639(3) 0.0278(5)
C17_4 C 0.7962(3) 0.9089(3) 0.0223(5)
C18_4 C 0.8335(4) 0.9421(3) 0.0551(5)
C27_4 C 0.7469(4) 0.8869(3) 0.0528(4)
H9_4 H 0.7606 0.8846 0.0990
C28_4 C 0.7296(4) 0.8348(2) 0.0283(4)
H10_4 H 0.7637 0.8145 0.0347
H12_4 H 0.7004 0.8221 0.0518
C34_4 C 0.7864(4) 0.9840(3) 0.1360(5)
H33_4 H 0.9214 0.9955 0.1116
O3_4 O 0.7339(3) 0.9599(2) 0.1441(3)
O4_4 O 0.8301(2) 0.9511(2) 0.1203(3)
C3_4 C 0.5820(3) 0.9817(3) 0.8664(4)
C4_4 C 0.6118(3) 0.9618(3) 0.8203(4)
H1_4 H 0.6192 0.9289 0.8220
C5_4 C 0.6307(3) 0.9877(3) 0.7729(4)
C10_4 C 0.6524(4) 0.9189(3) 0.9891(4)
H2_4 H 0.6537 0.8944 0.9592
C11_4 C 0.6076(3) 0.9532(3) 0.9783(4)
C14_4 C 0.8835(3) 0.9538(3) 0.9663(5)
C15_4 C 0.8468(3) 0.9198(2) 0.9302(4)
C16_4 C 0.8042(3) 0.8983(2) 0.9593(4)
H3_4 H 0.7797 0.8758 0.9362
C21_4 C 0.7321(3) 0.9722(3) 0.7524(4)
C22_4 C 0.7626(4) 0.9384(3) 0.7898(4)
H4_4 H 0.7435 0.9101 0.7979
C23_4 C 0.8201(4) 0.9437(3) 0.8163(4)
C24_4 C 0.8479(4) 0.9868(3) 0.8011(4)
C25_4 C 0.5601(3) 0.9524(3) 0.9189(4)
H5_4 H 0.5254 0.9688 0.9304
C26_4 C 0.5413(4) 0.9002(3) 0.8977(4)
H6_4 H 0.5280 0.8836 0.9328
H7_4 H 0.5742 0.8834 0.8852
H8_4 H 0.5101 0.9015 0.8620
H11_4 H 0.7142 0.8359 0.9834
C29_4 C 0.8547(3) 0.9076(3) 0.8619(4)
H13_4 H 0.8963 0.9125 0.8587
C30_4 C 0.8406(3) 0.8549(2) 0.8439(4)
H14_4 H 0.8465 0.8495 0.8002
H15_4 H 0.8006 0.8482 0.8482
H16_4 H 0.8661 0.8342 0.8718
C31_4 C 0.6660(3) 0.9668(2) 0.7242(4)
H17_4 H 0.6586 0.9868 0.6855
C32_4 C 0.6478(4) 0.9147(3) 0.7047(4)
H18_4 H 0.6713 0.9032 0.6739
H19_4 H 0.6072 0.9142 0.6861
H20_4 H 0.6535 0.8945 0.7420
O5_4 O 0.9292(2) 0.97528(19) 0.9389(3)
O6_4 O 0.9064(2) 0.99391(18) 0.8285(3)
loop_
_geom_bond_atom_site_label_1
_geom_bond_atom_site_label_2
_geom_bond_site_symmetry_1
_geom_bond_site_symmetry_2
H48 C55 1_555 1_555
C61 C62 1_555 1_555
C62 H53 1_555 1_555
C63 C62 1_555 1_555
H54 C63 1_555 1_555
C64 C63 1_555 1_555
C65 C64 1_555 1_555
C66 C61 1_555 1_555
H56 C66 1_555 1_555
C67 C64 1_555 1_555
C68 C67 1_555 1_555
H57 C68 1_555 1_555
C69 C68 1_555 1_555
H58 C69 1_555 1_555
C73 C61 1_555 1_555
O9 Zn1 1_555 1_555
O10 C73 1_555 1_555
O18 Zn1 1_555 1_555
C65 C66 1_555 1_555
C73 O9 1_555 1_555
C71 C70 1_555 1_555
H59 C71 1_555 1_555
H60 C72 1_555 1_555
C74 C70 1_555 1_555
O11 C74 1_555 1_555
O12 C74 1_555 1_555
Zn6 O11 1_555 1_555
C71 C72 1_555 1_555
Zn2 N1 1_555 1_555
C1 C2 1_555 1_555
C2 C3 1_555 1_555
C3 C4 1_555 1_555
C4 H1 1_555 1_555
C5 C4 1_555 1_555
C6 C1 1_555 1_555
C7 C8 1_555 1_555
C8 C9 1_555 1_555
C9 C10 1_555 1_555
C10 H2 1_555 1_555
C11 C10 1_555 1_555
C12 C7 1_555 1_555
C13 C14 1_555 1_555
C14 C15 1_555 1_555
C15 C16 1_555 1_555
C16 H3 1_555 1_555
C17 C16 1_555 1_555
C18 C13 1_555 1_555
C19 C20 1_555 1_555
C20 C21 1_555 1_555
C21 C22 1_555 1_555
C22 H4 1_555 1_555
C23 C22 1_555 1_555
C24 C19 1_555 1_555
C25 C3 1_555 1_555
H5 C25 1_555 1_555
C26 C25 1_555 1_555
H6 C26 1_555 1_555
H7 C26 1_555 1_555
H8 C26 1_555 1_555
C27 C9 1_555 1_555
H9 C27 1_555 1_555
C28 C27 1_555 1_555
H10 C28 1_555 1_555
H11 C28 1_555 1_555
H12 C28 1_555 1_555
C29 C15 1_555 1_555
H13 C29 1_555 1_555
C30 C29 1_555 1_555
H14 C30 1_555 1_555
H15 C30 1_555 1_555
H16 C30 1_555 1_555
C31 C5 1_555 1_555
H17 C31 1_555 1_555
C32 C31 1_555 1_555
H18 C32 1_555 1_555
H19 C32 1_555 1_555
H20 C32 1_555 1_555
C33 H21 1_555 1_555
H22 C33 1_555 1_555
C34 H23 1_555 1_555
H24 C34 1_555 1_555
C35 H25 1_555 1_555
H26 C35 1_555 1_555
C36 H27 1_555 1_555
H28 C36 1_555 1_555
C37 C1 1_555 1_555
H29 C37 1_555 1_555
H30 C37 1_555 1_555
C38 C7 1_555 1_555
H31 C38 1_555 1_555
H32 C38 1_555 1_555
C39 C13 1_555 1_555
H33 C39 1_555 1_555
H34 C39 1_555 1_555
C40 C19 1_555 1_555
H35 C40 1_555 1_555
H36 C40 1_555 1_555
C41 H37 1_555 1_555
C42 C41 1_555 1_555
H38 C42 1_555 1_555
C43 C42 1_555 1_555
C44 C43 1_555 1_555
H39 C44 1_555 1_555
C45 C44 1_555 1_555
H40 C45 1_555 1_555
C46 H41 1_555 1_555
C47 C46 1_555 1_555
H42 C47 1_555 1_555
C48 C47 1_555 1_555
C49 C48 1_555 1_555
H43 C49 1_555 1_555
C50 C49 1_555 1_555
H44 C50 1_555 1_555
C51 H45 1_555 1_555
C52 C51 1_555 1_555
H46 C52 1_555 1_555
C53 C52 1_555 1_555
C54 C53 1_555 1_555
H47 C54 1_555 1_555
C56 H49 1_555 1_555
C57 C56 1_555 1_555
H50 C57 1_555 1_555
C58 C57 1_555 1_555
C59 C58 1_555 1_555
H51 C59 1_555 1_555
C60 C59 1_555 1_555
H52 C60 1_555 1_555
C75 C76 1_555 1_555
C76 C77 1_555 1_555
C77 H61 1_555 1_555
H63 C80 1_555 1_555
C81 C76 1_555 1_555
H64 C81 1_555 1_555
N1 C41 1_555 1_555
N2 C46 1_555 1_555
N3 C51 1_555 1_555
N4 C56 1_555 1_555
O1 C2 1_555 1_555
O2 C12 1_555 1_555
O3 C8 1_555 1_555
O4 C18 1_555 1_555
O5 C14 1_555 1_555
O6 C24 1_555 1_555
O7 C20 1_555 1_555
O8 C6 1_555 1_555
O15 Zn2 1_555 1_555
O16 C75 1_555 1_555
S1 C37 1_555 1_555
S2 C38 1_555 1_555
S3 C39 1_555 1_555
S4 C40 1_555 1_555
Zn6 N2 1_555 1_555
N5 Zn2 1_555 1_555
O17 Zn2 1_555 1_555
C5 C6 1_555 1_555
C11 C12 1_555 1_555
C11 C25 1_555 1_555
C17 C18 1_555 1_555
C17 C27 1_555 1_555
C21 C31 1_555 1_555
C23 C24 1_555 1_555
C23 C29 1_555 1_555
C33 O1 1_555 1_555
C33 O2 1_555 1_555
C34 O3 1_555 1_555
C34 O4 1_555 1_555
C35 O5 1_555 1_555
C35 O6 1_555 1_555
C36 O7 1_555 1_555
C36 O8 1_555 1_555
C43 S1 1_555 1_555
C45 N1 1_555 1_555
C48 S2 1_555 1_555
C50 N2 1_555 1_555
C53 S3 1_555 1_555
C58 S4 1_555 1_555
C60 N4 1_555 1_555
C75 O15 1_555 1_555
C80 C81 1_555 1_555
H62 C78 1_555 1_555
C79 C78 1_555 1_555
C82 C79 1_555 1_555
C83 C82 1_555 1_555
H65 C83 1_555 1_555
C84 C83 1_555 1_555
H66 C84 1_555 1_555
C85 C84 1_555 1_555
C86 C85 1_555 1_555
H67 C86 1_555 1_555
C87 C82 1_555 1_555
H68 C87 1_555 1_555
C88 C85 1_555 1_555
O13 C88 1_555 1_555
O14 C88 1_555 1_555
Zn3 O14 1_555 1_555
C86 C87 1_555 1_555
Zn2_2 N1_2 1_555 1_555
C1_2 C2_2 1_555 1_555
C6_2 C1_2 1_555 1_555
C19_2 C20_2 1_555 1_555
C33_2 H21_2 1_555 1_555
H22_2 C33_2 1_555 1_555
C35_2 H25_2 1_555 1_555
H26_2 C35_2 1_555 1_555
C36_2 H27_2 1_555 1_555
H28_2 C36_2 1_555 1_555
C37_2 C1_2 1_555 1_555
H29_2 C37_2 1_555 1_555
H30_2 C37_2 1_555 1_555
C40_2 C19_2 1_555 1_555
H35_2 C40_2 1_555 1_555
H36_2 C40_2 1_555 1_555
C41_2 H37_2 1_555 1_555
C42_2 C41_2 1_555 1_555
H38_2 C42_2 1_555 1_555
C43_2 C42_2 1_555 1_555
C44_2 C43_2 1_555 1_555
H39_2 C44_2 1_555 1_555
C45_2 C44_2 1_555 1_555
H40_2 C45_2 1_555 1_555
C56_2 H49_2 1_555 1_555
C57_2 C56_2 1_555 1_555
H50_2 C57_2 1_555 1_555
C58_2 C57_2 1_555 1_555
C59_2 C58_2 1_555 1_555
H51_2 C59_2 1_555 1_555
C60_2 C59_2 1_555 1_555
H52_2 C60_2 1_555 1_555
N1_2 C41_2 1_555 1_555
N4_2 C56_2 1_555 1_555
O1_2 C2_2 1_555 1_555
O7_2 C20_2 1_555 1_555
O8_2 C6_2 1_555 1_555
O15_2 Zn2_2 1_555 1_555
O16_2 C75_2 1_555 1_555
S1_2 C37_2 1_555 1_555
S4_2 C40_2 1_555 1_555
N5_2 Zn2_2 1_555 1_555
O17_2 Zn2_2 1_555 1_555
C33_2 O1_2 1_555 1_555
C36_2 O7_2 1_555 1_555
C36_2 O8_2 1_555 1_555
C43_2 S1_2 1_555 1_555
C45_2 N1_2 1_555 1_555
C58_2 S4_2 1_555 1_555
C60_2 N4_2 1_555 1_555
C75_2 O15_2 1_555 1_555
H31_2 C38_2 1_555 1_555
H32_2 C38_2 1_555 1_555
H34_2 C39_2 1_555 1_555
C46_2 H41_2 1_555 1_555
C47_2 C46_2 1_555 1_555
H42_2 C47_2 1_555 1_555
C48_2 C47_2 1_555 1_555
C49_2 C48_2 1_555 1_555
H43_2 C49_2 1_555 1_555
C50_2 C49_2 1_555 1_555
H44_2 C50_2 1_555 1_555
C51_2 H45_2 1_555 1_555
C52_2 C51_2 1_555 1_555
H46_2 C52_2 1_555 1_555
C53_2 C52_2 1_555 1_555
C54_2 C53_2 1_555 1_555
H47_2 C54_2 1_555 1_555
C76_2 C77_2 1_555 1_555
C77_2 H61_2 1_555 1_555
C78_2 C77_2 1_555 1_555
H62_2 C78_2 1_555 1_555
C79_2 C78_2 1_555 1_555
C80_2 C79_2 1_555 1_555
H63_2 C80_2 1_555 1_555
C81_2 C76_2 1_555 1_555
C82_2 C79_2 1_555 1_555
C83_2 C82_2 1_555 1_555
H65_2 C83_2 1_555 1_555
C84_2 C83_2 1_555 1_555
H66_2 C84_2 1_555 1_555
C85_2 C84_2 1_555 1_555
C86_2 C85_2 1_555 1_555
H67_2 C86_2 1_555 1_555
C87_2 C82_2 1_555 1_555
H68_2 C87_2 1_555 1_555
C88_2 C85_2 1_555 1_555
N2_2 C46_2 1_555 1_555
N3_2 C51_2 1_555 1_555
O13_2 C88_2 1_555 1_555
O14_2 C88_2 1_555 1_555
S2_2 C38_2 1_555 1_555
S3_2 C39_2 1_555 1_555
Zn4 O14_2 1_555 1_555
Zn5 N2_2 1_555 1_555
C48_2 S2_2 1_555 1_555
C50_2 N2_2 1_555 1_555
C53_2 S3_2 1_555 1_555
C80_2 C81_2 1_555 1_555
C86_2 C87_2 1_555 1_555
C61_2 C62_2 1_555 1_555
C62_2 H53_2 1_555 1_555
C63_2 C62_2 1_555 1_555
H54_2 C63_2 1_555 1_555
C64_2 C63_2 1_555 1_555
C65_2 C64_2 1_555 1_555
H55_2 C65_2 1_555 1_555
C66_2 C61_2 1_555 1_555
H56_2 C66_2 1_555 1_555
C67_2 C64_2 1_555 1_555
C68_2 C67_2 1_555 1_555
H57_2 C68_2 1_555 1_555
C69_2 C68_2 1_555 1_555
H58_2 C69_2 1_555 1_555
C70_2 C69_2 1_555 1_555
C71_2 C70_2 1_555 1_555
H59_2 C71_2 1_555 1_555
C72_2 C67_2 1_555 1_555
H60_2 C72_2 1_555 1_555
C73_2 C61_2 1_555 1_555
C74_2 C70_2 1_555 1_555
O9_2 Zn1_2 1_555 1_555
O10_2 C73_2 1_555 1_555
O11_2 C74_2 1_555 1_555
O12_2 C74_2 1_555 1_555
Zn5 O11_2 1_555 1_555
O18_2 Zn1_2 1_555 1_555
C65_2 C66_2 1_555 1_555
C71_2 C72_2 1_555 1_555
C73_2 O9_2 1_555 1_555
H48_2 C55_2 1_555 1_555
H62_3 C78_3 1_555 1_555
C79_3 C78_3 1_555 1_555
C82_3 C79_3 1_555 1_555
C83_3 C82_3 1_555 1_555
H65_3 C83_3 1_555 1_555
C84_3 C83_3 1_555 1_555
H66_3 C84_3 1_555 1_555
C85_3 C84_3 1_555 1_555
C86_3 C85_3 1_555 1_555
H67_3 C86_3 1_555 1_555
C87_3 C82_3 1_555 1_555
H68_3 C87_3 1_555 1_555
C88_3 C85_3 1_555 1_555
O13_3 C88_3 1_555 1_555
O18 C88_3 1_555 1_555
C86_3 C87_3 1_555 1_555
Zn5 N1_3 1_555 1_555
C1_3 C2_3 1_555 1_555
C2_3 C3_2 1_555 1_555
C3_2 C4_2 1_555 1_555
C4_2 H1_2 1_555 1_555
C5_2 C4_2 1_555 1_555
C6_3 C1_3 1_555 1_555
C7_2 C8_2 1_555 1_555
C8_2 C9_2 1_555 1_555
C9_2 C10_2 1_555 1_555
C10_2 H2_2 1_555 1_555
C11_2 C10_2 1_555 1_555
C12_2 C7_2 1_555 1_555
C13_2 C14_2 1_555 1_555
C14_2 C15_2 1_555 1_555
C15_2 C16_2 1_555 1_555
C16_2 H3_2 1_555 1_555
C17_2 C16_2 1_555 1_555
C18_2 C13_2 1_555 1_555
C19_3 C20_3 1_555 1_555
C20_3 C21_2 1_555 1_555
C21_2 C22_2 1_555 1_555
C22_2 H4_2 1_555 1_555
C23_2 C22_2 1_555 1_555
C24_2 C19_3 1_555 1_555
C25_2 C3_2 1_555 1_555
H5_2 C25_2 1_555 1_555
C26_2 C25_2 1_555 1_555
H6_2 C26_2 1_555 1_555
H7_2 C26_2 1_555 1_555
H8_2 C26_2 1_555 1_555
C27_2 C9_2 1_555 1_555
H9_2 C27_2 1_555 1_555
C28_2 C27_2 1_555 1_555
H10_2 C28_2 1_555 1_555
H11_2 C28_2 1_555 1_555
H12_2 C28_2 1_555 1_555
C29_2 C15_2 1_555 1_555
H13_2 C29_2 1_555 1_555
C30_2 C29_2 1_555 1_555
H14_2 C30_2 1_555 1_555
H15_2 C30_2 1_555 1_555
H16_2 C30_2 1_555 1_555
C31_2 C5_2 1_555 1_555
H17_2 C31_2 1_555 1_555
C32_2 C31_2 1_555 1_555
H18_2 C32_2 1_555 1_555
H19_2 C32_2 1_555 1_555
H20_2 C32_2 1_555 1_555
C33_3 H21_3 1_555 1_555
H22_3 C33_3 1_555 1_555
C34_2 H23_3 1_555 1_555
H24_3 C34_2 1_555 1_555
C35_3 H25_3 1_555 1_555
H26_3 C35_3 1_555 1_555
C36_3 H27_3 1_555 1_555
H28_3 C36_3 1_555 1_555
C37_3 C1_3 1_555 1_555
H29_3 C37_3 1_555 1_555
H30_3 C37_3 1_555 1_555
C38_3 C7_2 1_555 1_555
H31_3 C38_3 1_555 1_555
H32_3 C38_3 1_555 1_555
C39_3 C13_2 1_555 1_555
H33_2 C39_3 1_555 1_555
H34_3 C39_3 1_555 1_555
C40_3 C19_3 1_555 1_555
H35_3 C40_3 1_555 1_555
H36_3 C40_3 1_555 1_555
C41_3 H37_3 1_555 1_555
C42_3 C41_3 1_555 1_555
H38_3 C42_3 1_555 1_555
C43_3 C42_3 1_555 1_555
C44_3 C43_3 1_555 1_555
H39_3 C44_3 1_555 1_555
C45_3 C44_3 1_555 1_555
H40_3 C45_3 1_555 1_555
C46_3 H41_3 1_555 1_555
C47_3 C46_3 1_555 1_555
H42_3 C47_3 1_555 1_555
C48_3 C47_3 1_555 1_555
C49_3 C48_3 1_555 1_555
H43_3 C49_3 1_555 1_555
C50_3 C49_3 1_555 1_555
H44_3 C50_3 1_555 1_555
C51_3 H45_3 1_555 1_555
C52_3 C51_3 1_555 1_555
H46_3 C52_3 1_555 1_555
C53_3 C52_3 1_555 1_555
C54_3 C53_3 1_555 1_555
H47_3 C54_3 1_555 1_555
C56_3 H49_3 1_555 1_555
C57_3 C56_3 1_555 1_555
H50_3 C57_3 1_555 1_555
C58_3 C57_3 1_555 1_555
C59_3 C58_3 1_555 1_555
H51_3 C59_3 1_555 1_555
C60_3 C59_3 1_555 1_555
H52_3 C60_3 1_555 1_555
C75_3 C76_3 1_555 1_555
C76_3 C77_3 1_555 1_555
C77_3 H61_3 1_555 1_555
H63_3 C80_3 1_555 1_555
C81_3 C76_3 1_555 1_555
H64_3 C81_3 1_555 1_555
N1_3 C41_3 1_555 1_555
N5_2 C46_3 1_555 1_555
N6_2 C51_3 1_555 1_555
N4_3 C56_3 1_555 1_555
O1_3 C2_3 1_555 1_555
O2_3 C12_2 1_555 1_555
O3_2 C8_2 1_555 1_555
O4_2 C18_2 1_555 1_555
O5_2 C14_2 1_555 1_555
O6_2 C24_2 1_555 1_555
O7_3 C20_3 1_555 1_555
O8_3 C6_3 1_555 1_555
O15_3 Zn5 1_555 1_555
O16_3 C75_3 1_555 1_555
S1_3 C37_3 1_555 1_555
S2_3 C38_3 1_555 1_555
S3_3 C39_3 1_555 1_555
S4_3 C40_3 1_555 1_555
C5_2 C6_3 1_555 1_555
C11_2 C12_2 1_555 1_555
C11_2 C25_2 1_555 1_555
C17_2 C18_2 1_555 1_555
C17_2 C27_2 1_555 1_555
C21_2 C31_2 1_555 1_555
C23_2 C24_2 1_555 1_555
C23_2 C29_2 1_555 1_555
C33_3 O1_3 1_555 1_555
C33_3 O2_3 1_555 1_555
C34_2 O3_2 1_555 1_555
C34_2 O4_2 1_555 1_555
C35_3 O5_2 1_555 1_555
C35_3 O6_2 1_555 1_555
C36_3 O7_3 1_555 1_555
C36_3 O8_3 1_555 1_555
C43_3 S1_3 1_555 1_555
C45_3 N1_3 1_555 1_555
C48_3 S2_3 1_555 1_555
C50_3 N5_2 1_555 1_555
C53_3 S3_3 1_555 1_555
C58_3 S4_3 1_555 1_555
C60_3 N4_3 1_555 1_555
C75_3 O15_3 1_555 1_555
C80_3 C81_3 1_555 1_555
C71_3 C70_3 1_555 1_555
H59_3 C71_3 1_555 1_555
H60_3 C72_3 1_555 1_555
C74_3 C70_3 1_555 1_555
O17_2 C74_3 1_555 1_555
O12_3 C74_3 1_555 1_555
C71_3 C72_3 1_555 1_555
H48_3 C55_3 1_555 1_555
C61_3 C62_3 1_555 1_555
C62_3 H53_3 1_555 1_555
C63_3 C62_3 1_555 1_555
H54_3 C63_3 1_555 1_555
C64_3 C63_3 1_555 1_555
C65_3 C64_3 1_555 1_555
C66_3 C61_3 1_555 1_555
H56_3 C66_3 1_555 1_555
C67_3 C64_3 1_555 1_555
C68_3 C67_3 1_555 1_555
H57_3 C68_3 1_555 1_555
C69_3 C68_3 1_555 1_555
H58_3 C69_3 1_555 1_555
C73_3 C61_3 1_555 1_555
O9_3 Zn3 1_555 1_555
O10_3 C73_3 1_555 1_555
C65_3 C66_3 1_555 1_555
C73_3 O9_3 1_555 1_555
H48_4 C55_4 1_555 1_555
C61_4 C62_4 1_555 1_555
C62_4 H53_4 1_555 1_555
C63_4 C62_4 1_555 1_555
H54_4 C63_4 1_555 1_555
C64_4 C63_4 1_555 1_555
C65_4 C64_4 1_555 1_555
H55_4 C65_4 1_555 1_555
C66_4 C61_4 1_555 1_555
H56_4 C66_4 1_555 1_555
C67_4 C64_4 1_555 1_555
C68_4 C67_4 1_555 1_555
H57_4 C68_4 1_555 1_555
C69_4 C68_4 1_555 1_555
H58_4 C69_4 1_555 1_555
C70_4 C69_4 1_555 1_555
C71_4 C70_4 1_555 1_555
H59_4 C71_4 1_555 1_555
C72_4 C67_4 1_555 1_555
H60_4 C72_4 1_555 1_555
C73_4 C61_4 1_555 1_555
C74_4 C70_4 1_555 1_555
O9_4 Zn4 1_555 1_555
O10_4 C73_4 1_555 1_555
O17 C74_4 1_555 1_555
O12_4 C74_4 1_555 1_555
C65_4 C66_4 1_555 1_555
C71_4 C72_4 1_555 1_555
C73_4 O9_4 1_555 1_555
H31_4 C38_4 1_555 1_555
H32_4 C38_4 1_555 1_555
H34_4 C39_4 1_555 1_555
C46_4 H41_4 1_555 1_555
C47_4 C46_4 1_555 1_555
H42_4 C47_4 1_555 1_555
C48_4 C47_4 1_555 1_555
C49_4 C48_4 1_555 1_555
H43_4 C49_4 1_555 1_555
C50_4 C49_4 1_555 1_555
H44_4 C50_4 1_555 1_555
C51_4 H45_4 1_555 1_555
C52_4 C51_4 1_555 1_555
H46_4 C52_4 1_555 1_555
C53_4 C52_4 1_555 1_555
C54_4 C53_4 1_555 1_555
H47_4 C54_4 1_555 1_555
C76_4 C77_4 1_555 1_555
C77_4 H61_4 1_555 1_555
C78_4 C77_4 1_555 1_555
H62_4 C78_4 1_555 1_555
C79_4 C78_4 1_555 1_555
C80_4 C79_4 1_555 1_555
H63_4 C80_4 1_555 1_555
C81_4 C76_4 1_555 1_555
C82_4 C79_4 1_555 1_555
C83_4 C82_4 1_555 1_555
H65_4 C83_4 1_555 1_555
C84_4 C83_4 1_555 1_555
H66_4 C84_4 1_555 1_555
C85_4 C84_4 1_555 1_555
C86_4 C85_4 1_555 1_555
H67_4 C86_4 1_555 1_555
C87_4 C82_4 1_555 1_555
H68_4 C87_4 1_555 1_555
C88_4 C85_4 1_555 1_555
N5 C46_4 1_555 1_555
N6 C51_4 1_555 1_555
O13_4 C88_4 1_555 1_555
O18_2 C88_4 1_555 1_555
S2_4 C38_4 1_555 1_555
S3_4 C39_4 1_555 1_555
C48_4 S2_4 1_555 1_555
C50_4 N5 1_555 1_555
C53_4 S3_4 1_555 1_555
C80_4 C81_4 1_555 1_555
C86_4 C87_4 1_555 1_555
Zn6 N1_4 1_555 1_555
C1_4 C2_4 1_555 1_555
C6_4 C1_4 1_555 1_555
C19_4 C20_4 1_555 1_555
C33_4 H21_4 1_555 1_555
H22_4 C33_4 1_555 1_555
C35_4 H25_4 1_555 1_555
H26_4 C35_4 1_555 1_555
C36_4 H27_4 1_555 1_555
H28_4 C36_4 1_555 1_555
C37_4 C1_4 1_555 1_555
H29_4 C37_4 1_555 1_555
H30_4 C37_4 1_555 1_555
C40_4 C19_4 1_555 1_555
H35_4 C40_4 1_555 1_555
H36_4 C40_4 1_555 1_555
C41_4 H37_4 1_555 1_555
C42_4 C41_4 1_555 1_555
H38_4 C42_4 1_555 1_555
C43_4 C42_4 1_555 1_555
C44_4 C43_4 1_555 1_555
H39_4 C44_4 1_555 1_555
C45_4 C44_4 1_555 1_555
H40_4 C45_4 1_555 1_555
C56_4 H49_4 1_555 1_555
C57_4 C56_4 1_555 1_555
H50_4 C57_4 1_555 1_555
C58_4 C57_4 1_555 1_555
C59_4 C58_4 1_555 1_555
H51_4 C59_4 1_555 1_555
C60_4 C59_4 1_555 1_555
H52_4 C60_4 1_555 1_555
N1_4 C41_4 1_555 1_555
N4_4 C56_4 1_555 1_555
O1_4 C2_4 1_555 1_555
O7_4 C20_4 1_555 1_555
O8_4 C6_4 1_555 1_555
O15_4 Zn6 1_555 1_555
O16_4 C75_4 1_555 1_555
S1_4 C37_4 1_555 1_555
S4_4 C40_4 1_555 1_555
C33_4 O1_4 1_555 1_555
C36_4 O7_4 1_555 1_555
C36_4 O8_4 1_555 1_555
C43_4 S1_4 1_555 1_555
C45_4 N1_4 1_555 1_555
C58_4 S4_4 1_555 1_555
C60_4 N4_4 1_555 1_555
C75_4 O15_4 1_555 1_555
C3_3 C4_3 1_555 1_555
C4_3 H1_3 1_555 1_555
C5_3 C4_3 1_555 1_555
C10_3 H2_3 1_555 1_555
C11_3 C10_3 1_555 1_555
C14_3 C15_3 1_555 1_555
C15_3 C16_3 1_555 1_555
C16_3 H3_3 1_555 1_555
C21_3 C22_3 1_555 1_555
C22_3 H4_3 1_555 1_555
C23_3 C22_3 1_555 1_555
C25_3 C3_3 1_555 1_555
H5_3 C25_3 1_555 1_555
C26_3 C25_3 1_555 1_555
H6_3 C26_3 1_555 1_555
H7_3 C26_3 1_555 1_555
H8_3 C26_3 1_555 1_555
C29_3 C15_3 1_555 1_555
H13_3 C29_3 1_555 1_555
C30_3 C29_3 1_555 1_555
H14_3 C30_3 1_555 1_555
H15_3 C30_3 1_555 1_555
H16_3 C30_3 1_555 1_555
C31_3 C5_3 1_555 1_555
H17_3 C31_3 1_555 1_555
C32_3 C31_3 1_555 1_555
H18_3 C32_3 1_555 1_555
H19_3 C32_3 1_555 1_555
H20_3 C32_3 1_555 1_555
O5_3 C14_3 1_555 1_555
O6_3 C24_3 1_555 1_555
C11_3 C25_3 1_555 1_555
C21_3 C31_3 1_555 1_555
C23_3 C24_3 1_555 1_555
C23_3 C29_3 1_555 1_555
C7_3 C8_3 1_555 1_555
C8_3 C9_3 1_555 1_555
C12_3 C7_3 1_555 1_555
C18_3 C13_3 1_555 1_555
C27_3 C9_3 1_555 1_555
H9_3 C27_3 1_555 1_555
C28_3 C27_3 1_555 1_555
H10_3 C28_3 1_555 1_555
H12_3 C28_3 1_555 1_555
O3_3 C8_3 1_555 1_555
O4_3 C18_3 1_555 1_555
C17_3 C18_3 1_555 1_555
C17_3 C27_3 1_555 1_555
C34_3 O3_3 1_555 1_555
C34_3 O4_3 1_555 1_555
C7_4 C8_4 1_555 1_555
C8_4 C9_4 1_555 1_555
C12_4 C7_4 1_555 1_555
C18_4 C13_4 1_555 1_555
C27_4 C9_4 1_555 1_555
H9_4 C27_4 1_555 1_555
C28_4 C27_4 1_555 1_555
H10_4 C28_4 1_555 1_555
H12_4 C28_4 1_555 1_555
O3_4 C8_4 1_555 1_555
O4_4 C18_4 1_555 1_555
C17_4 C18_4 1_555 1_555
C17_4 C27_4 1_555 1_555
C34_4 O3_4 1_555 1_555
C34_4 O4_4 1_555 1_555
C3_4 C4_4 1_555 1_555
C4_4 H1_4 1_555 1_555
C5_4 C4_4 1_555 1_555
C10_4 H2_4 1_555 1_555
C11_4 C10_4 1_555 1_555
C14_4 C15_4 1_555 1_555
C15_4 C16_4 1_555 1_555
C16_4 H3_4 1_555 1_555
C21_4 C22_4 1_555 1_555
C22_4 H4_4 1_555 1_555
C23_4 C22_4 1_555 1_555
C25_4 C3_4 1_555 1_555
H5_4 C25_4 1_555 1_555
C26_4 C25_4 1_555 1_555
H6_4 C26_4 1_555 1_555
H7_4 C26_4 1_555 1_555
H8_4 C26_4 1_555 1_555
C29_4 C15_4 1_555 1_555
H13_4 C29_4 1_555 1_555
C30_4 C29_4 1_555 1_555
H14_4 C30_4 1_555 1_555
H15_4 C30_4 1_555 1_555
H16_4 C30_4 1_555 1_555
C31_4 C5_4 1_555 1_555
H17_4 C31_4 1_555 1_555
C32_4 C31_4 1_555 1_555
H18_4 C32_4 1_555 1_555
H19_4 C32_4 1_555 1_555
H20_4 C32_4 1_555 1_555
O5_4 C14_4 1_555 1_555
O6_4 C24_4 1_555 1_555
C11_4 C25_4 1_555 1_555
C21_4 C31_4 1_555 1_555
C23_4 C24_4 1_555 1_555
C23_4 C29_4 1_555 1_555

#END
