
###############################################################################
#
# This file contains modified crystal structure data generated from the
# MOF subset of the Cambridge Structural Database (CSD) v543 
# hosted by the Cambridge Crystallographic Data Centre (CCDC).
#
# This work is licensed under the Creative Commons
# Attribution-NonCommercial-ShareAlike 4.0 International License.
# To view a copy of this license, visit
# http://creativecommons.org/licenses/by-nc-sa/4.0/
# or send a letter to
# Creative Commons, PO Box 1866, Mountain View, CA 94042, USA.
#
# CIF created using the CSD Python API on 29 September 2022
# The structure has been converted into the P1 space group
# The structure has a 3D framework
# The original CSD entry YOGXOK is in the cubic crystal system
# The framework has been calculated to contain at least 10.0% void space
# The void calculation uses a probe of radius 1.32A, grid spacing 0.4
# H atom positions have been added when not included in the experimental data
#
###############################################################################

data_YOGXOK
_chemical_formula_moiety         '(C1248 H768 O212 Zr48)n'
_symmetry_cell_setting           triclinic
_symmetry_space_group_name_H-M   'P 1'
_symmetry_Int_Tables_number      1
_space_group_name_Hall           'P 1'
loop_
_symmetry_equiv_pos_site_id
_symmetry_equiv_pos_as_xyz
1 x,y,z
_cell_length_a                   38.1647
_cell_length_b                   38.1647
_cell_length_c                   38.1647
_cell_angle_alpha                90
_cell_angle_beta                 90
_cell_angle_gamma                90
_cell_volume                     55588.6
loop_
_atom_site_label
_atom_site_type_symbol
_atom_site_fract_x
_atom_site_fract_y
_atom_site_fract_z
O9 O 0.12562 0.07922 0.71316
C38 C 0.12963 0.02905 0.76580
C39 C 0.13204 0.00323 0.79163
C40 C 0.12623 0.04701 0.70299
C41 C 0.12830 0.01974 0.73026
O10 O 0.12562 0.03684 0.67078
O12 O 0.07922 0.12562 0.71316
C53 C 0.02905 0.12963 0.76580
C54 C 0.00323 0.13204 0.79163
Zr3 Zr 0.12500 0.12500 0.68424
C55 C 0.04701 0.12623 0.70299
C56 C 0.01974 0.12830 0.73026
O15 O 0.03684 0.12562 0.67078
O18 O 0.12438 0.17078 0.71316
O19 O 0.17078 0.12438 0.71316
Zr4 Zr 0.06576 0.12500 0.62500
Zr7 Zr 0.12500 0.18424 0.62500
Zr10 Zr 0.12500 0.06576 0.62500
Zr12 Zr 0.18424 0.12500 0.62500
O24 O 0.15677 0.09323 0.65677
O26 O 0.09323 0.15677 0.65677
O28 O 0.15702 0.15702 0.65702
O29 O 0.09298 0.09298 0.65702
H20 H 0.0106511 0.1329 0.819169
H21 H 0.128778 0.0565697 0.773293
H23 H 0.0565697 0.128778 0.773293
H26 H 0.1329 0.0106511 0.819169
O4 O 0.07922 0.71316 0.12562
C12 C 0.02905 0.76580 0.12963
C13 C 0.00323 0.79163 0.13204
C14 C 0.04701 0.70299 0.12623
C15 C 0.01974 0.73026 0.12830
O5 O 0.03684 0.67078 0.12562
O7 O 0.12562 0.71316 0.07922
C27 C 0.12963 0.76580 0.02905
C28 C 0.13204 0.79163 0.00323
Zr2 Zr 0.12500 0.68424 0.12500
O8 O 0.09298 0.65702 0.09298
C29 C 0.12623 0.70299 0.04701
C30 C 0.12830 0.73026 0.01974
O11 O 0.12562 0.67078 0.03684
O17 O 0.12438 0.71316 0.17078
O22 O 0.17078 0.71316 0.12438
Zr5 Zr 0.18424 0.62500 0.12500
Zr8 Zr 0.12500 0.62500 0.06576
Zr13 Zr 0.06576 0.62500 0.12500
Zr14 Zr 0.12500 0.62500 0.18424
O23 O 0.09323 0.65677 0.15677
O25 O 0.15677 0.65677 0.09323
O27 O 0.15702 0.65702 0.15702
H10 H 0.0565697 0.773293 0.128778
H11 H 0.128778 0.773293 0.0565697
H12 H 0.1329 0.819169 0.0106511
H14 H 0.0106511 0.819169 0.1329
O1 O 0.71316 0.07922 0.12562
C1 C 0.76580 0.02905 0.12963
C2 C 0.79163 0.00323 0.13204
Zr1 Zr 0.68424 0.12500 0.12500
O2 O 0.65677 0.15677 0.09323
O3 O 0.65702 0.09298 0.09298
C3 C 0.70299 0.04701 0.12623
C4 C 0.73026 0.01974 0.12830
O6 O 0.67078 0.03684 0.12562
O13 O 0.71316 0.12562 0.07922
C64 C 0.76580 0.12963 0.02905
C65 C 0.79163 0.13204 0.00323
C66 C 0.70299 0.12623 0.04701
C67 C 0.73026 0.12830 0.01974
O14 O 0.67078 0.12562 0.03684
O16 O 0.65677 0.09323 0.15677
O20 O 0.71316 0.12438 0.17078
O21 O 0.71316 0.17078 0.12438
Zr6 Zr 0.62500 0.06576 0.12500
Zr9 Zr 0.62500 0.12500 0.18424
Zr11 Zr 0.62500 0.18424 0.12500
Zr15 Zr 0.62500 0.12500 0.06576
O30 O 0.65702 0.15702 0.15702
H1 H 0.819169 0.0106511 0.1329
H2 H 0.773293 0.0565697 0.128778
H36 H 0.773293 0.128778 0.0565697
H37 H 0.819169 0.1329 0.0106511
O1_2 O 0.03684 0.17078 0.62562
O2_2 O 0.09323 0.09323 0.59323
O3_2 O 0.09298 0.15702 0.59298
C3_2 C 0.04701 0.20299 0.62623
C4_2 C 0.01974 0.23026 0.62830
O6_2 O 0.07922 0.21316 0.62562
C25 C 0.02905 0.26580 0.62963
C26 C 0.00323 0.29163 0.63204
O13_2 O 0.03684 0.12438 0.57922
C66_2 C 0.04701 0.12377 0.54701
C67_2 C 0.01974 0.12170 0.51974
O14_2 O 0.07922 0.12438 0.53684
C75 C 0.02905 0.12037 0.48420
C76 C 0.00323 0.11796 0.45837
O21_2 O 0.03684 0.07922 0.62438
Zr15_2 Zr 0.12500 0.12500 0.56576
H4 H 0.0565697 0.273293 0.628778
H7 H 0.0106511 0.319169 0.6329
H35 H 0.0106511 0.1171 0.430831
H48 H 0.0565697 0.121222 0.476707
C1_2 C 0.98420 0.22095 0.62963
C2_2 C 0.95837 0.24677 0.63204
C5 C 0.96785 0.28215 0.63335
C6 C 0.94081 0.30919 0.63419
C7 C 0.88872 0.36128 0.63501
C8 C 0.92758 0.32242 0.60273
C9 C 0.90217 0.34783 0.66654
C10 C 0.92808 0.32192 0.66614
C11 C 0.90175 0.34825 0.60315
O4_2 O 0.67078 0.53684 0.62562
C12_2 C 0.72095 0.48420 0.62963
C13_2 C 0.74677 0.45837 0.63204
C14_2 C 0.70299 0.54701 0.62623
C15_2 C 0.73026 0.51974 0.62830
C16 C 0.78215 0.46785 0.63335
C17 C 0.80919 0.44081 0.63419
C18 C 0.82242 0.42758 0.60273
C19 C 0.84825 0.40175 0.60315
C20 C 0.84783 0.40217 0.66654
C21 C 0.82192 0.42808 0.66614
C22 C 0.86128 0.38872 0.63501
O5_2 O 0.71316 0.57922 0.62562
C23 C 0.76580 0.52905 0.62963
C24 C 0.79163 0.50323 0.63204
O7_2 O 0.62438 0.53684 0.57922
C27_2 C 0.62037 0.48420 0.52905
C28_2 C 0.61796 0.45837 0.50323
Zr2_2 Zr 0.62500 0.56576 0.62500
O8_2 O 0.65702 0.59298 0.59298
C29_2 C 0.62377 0.54701 0.54701
C30_2 C 0.62170 0.51974 0.51974
C31 C 0.61665 0.46785 0.46785
C32 C 0.61581 0.44081 0.44081
C33 C 0.61499 0.38872 0.38872
C34 C 0.64727 0.42758 0.42758
C35 C 0.58346 0.40217 0.40217
C36 C 0.58386 0.42808 0.42808
C37 C 0.64685 0.40175 0.40175
O9_2 O 0.62438 0.17078 0.21316
C38_2 C 0.62037 0.22095 0.26580
C39_2 C 0.61796 0.24677 0.29163
C40_2 C 0.62377 0.20299 0.20299
C41_2 C 0.62170 0.23026 0.23026
C42 C 0.61665 0.28215 0.28215
C43 C 0.61581 0.30919 0.30919
C44 C 0.64727 0.32242 0.32242
C45 C 0.64685 0.34825 0.34825
C46 C 0.58346 0.34783 0.34783
C47 C 0.58386 0.32192 0.32192
C48 C 0.61499 0.36128 0.36128
O10_2 O 0.62438 0.21316 0.17078
C49 C 0.62037 0.26580 0.22095
C50 C 0.61796 0.29163 0.24677
O11_2 O 0.62438 0.57922 0.53684
C51 C 0.62037 0.52905 0.48420
C52 C 0.61796 0.50323 0.45837
O12_2 O 0.67078 0.12438 0.21316
C53_2 C 0.72095 0.12037 0.26580
C54_2 C 0.74677 0.11796 0.29163
C55_2 C 0.70299 0.12377 0.20299
C56_2 C 0.73026 0.12170 0.23026
C57 C 0.78215 0.11665 0.28215
C58 C 0.80919 0.11581 0.30919
C59 C 0.86128 0.11499 0.36128
C60 C 0.82242 0.14727 0.32242
C61 C 0.84783 0.08346 0.34783
C62 C 0.82192 0.08386 0.32192
C63 C 0.84825 0.14685 0.34825
C64_2 C 0.98420 0.12037 0.52905
C65_2 C 0.95837 0.11796 0.50323
C68 C 0.96785 0.11665 0.46785
C69 C 0.94081 0.11581 0.44081
C70 C 0.92758 0.14727 0.42758
C71 C 0.90175 0.14685 0.40175
C72 C 0.90217 0.08346 0.40217
C73 C 0.92808 0.08386 0.42808
C74 C 0.88872 0.11499 0.38872
C77 C 0.76580 0.12037 0.22095
C78 C 0.79163 0.11796 0.24677
O17_2 O 0.62562 0.53684 0.67078
O18_2 O 0.62562 0.07922 0.21316
O19_2 O 0.57922 0.12562 0.21316
O22_2 O 0.57922 0.53684 0.62438
Zr5_2 Zr 0.56576 0.62500 0.62500
Zr8_2 Zr 0.62500 0.62500 0.56576
Zr12_2 Zr 0.56576 0.12500 0.12500
Zr13_2 Zr 0.68424 0.62500 0.62500
Zr14_2 Zr 0.62500 0.62500 0.68424
O23_2 O 0.65677 0.59323 0.65677
O24_2 O 0.59323 0.15677 0.15677
O25_2 O 0.59323 0.59323 0.59323
O27_2 O 0.59298 0.59298 0.65702
O28_2 O 0.59298 0.09298 0.15702
H1_2 H 0.930831 0.239349 0.6329
H2_2 H 0.976707 0.19343 0.628778
H3 H 0.773293 0.55657 0.628778
H5 H 0.858432 0.391568 0.578516
H6 H 0.857654 0.392346 0.691464
H8 H 0.891568 0.358432 0.578516
H9 H 0.819169 0.510651 0.6329
H10_2 H 0.69343 0.476707 0.628778
H11_2 H 0.621222 0.476707 0.55657
H12_2 H 0.6171 0.430831 0.510651
H13 H 0.938355 0.311645 0.690697
H14_2 H 0.739349 0.430831 0.6329
H15 H 0.812546 0.437454 0.577846
H16 H 0.937454 0.312546 0.577846
H17 H 0.892346 0.357654 0.691464
H18 H 0.811645 0.438355 0.690697
H19 H 0.6171 0.510651 0.430831
H20_2 H 0.739349 0.1171 0.319169
H21_2 H 0.621222 0.19343 0.273293
H22 H 0.559303 0.311645 0.311645
H23_2 H 0.69343 0.121222 0.273293
H24 H 0.558536 0.392346 0.392346
H25 H 0.671484 0.358432 0.358432
H26_2 H 0.6171 0.239349 0.319169
H27 H 0.672154 0.312546 0.312546
H28 H 0.558536 0.357654 0.357654
H29 H 0.6171 0.319169 0.239349
H30 H 0.672154 0.437454 0.437454
H31 H 0.621222 0.55657 0.476707
H32 H 0.671484 0.391568 0.391568
H33 H 0.559303 0.438355 0.438355
H34 H 0.621222 0.273293 0.19343
H36_2 H 0.976707 0.121222 0.55657
H37_2 H 0.930831 0.1171 0.510651
H38 H 0.819169 0.1171 0.239349
H39 H 0.857654 0.0585365 0.357654
H40 H 0.811645 0.0593026 0.311645
H41 H 0.938355 0.0593026 0.438355
H42 H 0.858432 0.171484 0.358432
H43 H 0.937454 0.172154 0.437454
H44 H 0.773293 0.121222 0.19343
H45 H 0.891568 0.171484 0.391568
H46 H 0.892346 0.0585365 0.392346
H47 H 0.812546 0.172154 0.312546
O9_3 O 0.12438 0.57922 0.03684
C40_3 C 0.12377 0.54701 0.04701
C41_3 C 0.12170 0.51974 0.01974
O10_3 O 0.12438 0.53684 0.07922
C49_2 C 0.12037 0.48420 0.02905
C50_2 C 0.11796 0.45837 0.00323
O12_3 O 0.17078 0.62562 0.03684
C55_3 C 0.20299 0.62623 0.04701
C56_3 C 0.23026 0.62830 0.01974
O15_2 O 0.21316 0.62562 0.07922
C77_2 C 0.26580 0.62963 0.02905
C78_2 C 0.29163 0.63204 0.00323
O19_3 O 0.07922 0.62438 0.03684
Zr10_2 Zr 0.12500 0.56576 0.12500
O24_3 O 0.09323 0.59323 0.09323
O29_2 O 0.15702 0.59298 0.09298
H29_2 H 0.1171 0.430831 0.0106511
H34_2 H 0.121222 0.476707 0.0565697
H38_2 H 0.319169 0.6329 0.0106511
H44_2 H 0.273293 0.628778 0.0565697
O1_3 O 0.53684 0.57922 0.62438
C1_3 C 0.48420 0.52905 0.62037
C2_3 C 0.45837 0.50323 0.61796
O2_3 O 0.59323 0.65677 0.65677
C3_3 C 0.54701 0.54701 0.62377
C4_3 C 0.51974 0.51974 0.62170
C5_2 C 0.46785 0.46785 0.61665
C6_2 C 0.44081 0.44081 0.61581
C7_2 C 0.38872 0.38872 0.61499
C8_2 C 0.42758 0.42758 0.64727
C9_2 C 0.40217 0.40217 0.58346
C10_2 C 0.42808 0.42808 0.58386
C11_2 C 0.40175 0.40175 0.64685
O4_3 O 0.17078 0.21316 0.62438
C12_3 C 0.22095 0.26580 0.62037
C13_3 C 0.24677 0.29163 0.61796
C14_3 C 0.20299 0.20299 0.62377
C15_3 C 0.23026 0.23026 0.62170
C16_2 C 0.28215 0.28215 0.61665
C17_2 C 0.30919 0.30919 0.61581
C18_2 C 0.32242 0.32242 0.64727
C19_2 C 0.34825 0.34825 0.64685
C20_2 C 0.34783 0.34783 0.58346
C21_2 C 0.32192 0.32192 0.58386
C22_2 C 0.36128 0.36128 0.61499
O5_3 O 0.21316 0.17078 0.62438
C23_2 C 0.26580 0.22095 0.62037
C24_2 C 0.29163 0.24677 0.61796
C25_2 C 0.52905 0.48420 0.62037
C26_2 C 0.50323 0.45837 0.61796
O7_3 O 0.12438 0.21316 0.67078
C27_3 C 0.12037 0.26580 0.72095
C28_3 C 0.11796 0.29163 0.74677
C29_3 C 0.12377 0.20299 0.70299
C30_3 C 0.12170 0.23026 0.73026
C31_2 C 0.11665 0.28215 0.78215
C32_2 C 0.11581 0.30919 0.80919
C33_2 C 0.11499 0.36128 0.86128
C34_2 C 0.14727 0.32242 0.82242
C35_2 C 0.08346 0.34783 0.84783
C36_2 C 0.08386 0.32192 0.82192
C37_2 C 0.14685 0.34825 0.84825
C38_3 C 0.12037 0.52905 0.98420
C39_3 C 0.11796 0.50323 0.95837
C42_2 C 0.11665 0.46785 0.96785
C43_2 C 0.11581 0.44081 0.94081
C44_2 C 0.14727 0.42758 0.92758
C45_2 C 0.14685 0.40175 0.90175
C46_2 C 0.08346 0.40217 0.90217
C47_2 C 0.08386 0.42808 0.92808
C48_2 C 0.11499 0.38872 0.88872
C51_2 C 0.12037 0.22095 0.76580
C52_2 C 0.11796 0.24677 0.79163
C53_3 C 0.22095 0.62963 0.98420
C54_3 C 0.24677 0.63204 0.95837
C57_2 C 0.28215 0.63335 0.96785
C58_2 C 0.30919 0.63419 0.94081
C59_2 C 0.36128 0.63501 0.88872
C60_2 C 0.32242 0.60273 0.92758
C61_2 C 0.34783 0.66654 0.90217
C62_2 C 0.32192 0.66614 0.92808
C63_2 C 0.34825 0.60315 0.90175
O13_3 O 0.53684 0.62562 0.67078
C64_3 C 0.48420 0.62963 0.72095
C65_3 C 0.45837 0.63204 0.74677
C66_3 C 0.54701 0.62623 0.70299
C67_3 C 0.51974 0.62830 0.73026
C68_2 C 0.46785 0.63335 0.78215
C69_2 C 0.44081 0.63419 0.80919
C70_2 C 0.42758 0.60273 0.82242
C71_2 C 0.40175 0.60315 0.84825
C72_2 C 0.40217 0.66654 0.84783
C73_2 C 0.42808 0.66614 0.82192
C74_2 C 0.38872 0.63501 0.86128
O14_3 O 0.57922 0.62562 0.71316
C75_2 C 0.52905 0.62963 0.76580
C76_2 C 0.50323 0.63204 0.79163
O17_3 O 0.12562 0.21316 0.57922
O20_2 O 0.53684 0.62438 0.57922
O21_3 O 0.53684 0.67078 0.62562
Zr11_2 Zr 0.62500 0.68424 0.62500
O23_3 O 0.15677 0.15677 0.59323
O30_2 O 0.59298 0.65702 0.59298
H1_3 H 0.430831 0.510651 0.6171
H2_3 H 0.476707 0.55657 0.621222
H3_2 H 0.273293 0.19343 0.621222
H4_2 H 0.55657 0.476707 0.621222
H5_2 H 0.358432 0.358432 0.671484
H6_2 H 0.357654 0.357654 0.558536
H7_2 H 0.510651 0.430831 0.6171
H8_2 H 0.391568 0.391568 0.671484
H9_2 H 0.319169 0.239349 0.6171
H10_3 H 0.19343 0.273293 0.621222
H11_3 H 0.121222 0.273293 0.69343
H12_3 H 0.1171 0.319169 0.739349
H13_2 H 0.438355 0.438355 0.559303
H14_3 H 0.239349 0.319169 0.6171
H15_2 H 0.312546 0.312546 0.672154
H16_2 H 0.437454 0.437454 0.672154
H17_2 H 0.392346 0.392346 0.558536
H18_2 H 0.311645 0.311645 0.559303
H19_2 H 0.1171 0.239349 0.819169
H20_3 H 0.239349 0.6329 0.930831
H21_3 H 0.121222 0.55657 0.976707
H22_2 H 0.0593026 0.438355 0.938355
H23_3 H 0.19343 0.628778 0.976707
H24_2 H 0.0585365 0.357654 0.857654
H25_2 H 0.171484 0.391568 0.891568
H26_3 H 0.1171 0.510651 0.930831
H27_2 H 0.172154 0.437454 0.937454
H28_2 H 0.0585365 0.392346 0.892346
H30_2 H 0.172154 0.312546 0.812546
H31_2 H 0.121222 0.19343 0.773293
H32_2 H 0.171484 0.358432 0.858432
H33_2 H 0.0593026 0.311645 0.811645
H35_2 H 0.510651 0.6329 0.819169
H36_3 H 0.476707 0.628778 0.69343
H37_3 H 0.430831 0.6329 0.739349
H39_2 H 0.357654 0.691464 0.892346
H40_2 H 0.311645 0.690697 0.938355
H41_2 H 0.438355 0.690697 0.811645
H42_2 H 0.358432 0.578516 0.891568
H43_2 H 0.437454 0.577846 0.812546
H45_2 H 0.391568 0.578516 0.858432
H46_2 H 0.392346 0.691464 0.857654
H47_2 H 0.312546 0.577846 0.937454
H48_2 H 0.55657 0.628778 0.773293
O4_4 O 0.57922 0.03684 0.12438
C14_4 C 0.54701 0.04701 0.12377
C15_4 C 0.51974 0.01974 0.12170
O5_4 O 0.53684 0.07922 0.12438
C23_3 C 0.48420 0.02905 0.12037
C24_3 C 0.45837 0.00323 0.11796
O7_4 O 0.62562 0.03684 0.17078
C29_4 C 0.62623 0.04701 0.20299
C30_4 C 0.62830 0.01974 0.23026
C51_3 C 0.62963 0.02905 0.26580
C52_3 C 0.63204 0.00323 0.29163
O17_4 O 0.62438 0.03684 0.07922
O23_4 O 0.59323 0.09323 0.09323
H3_3 H 0.476707 0.0565697 0.121222
H9_3 H 0.430831 0.0106511 0.1171
H19_3 H 0.6329 0.0106511 0.319169
H31_3 H 0.628778 0.0565697 0.273293
O1_4 O 0.21316 0.67078 0.12438
C1_4 C 0.26580 0.72095 0.12037
C2_4 C 0.29163 0.74677 0.11796
O2_4 O 0.15677 0.59323 0.15677
C3_4 C 0.20299 0.70299 0.12377
C4_4 C 0.23026 0.73026 0.12170
C5_3 C 0.28215 0.78215 0.11665
C6_3 C 0.30919 0.80919 0.11581
C7_3 C 0.36128 0.86128 0.11499
C8_3 C 0.32242 0.82242 0.14727
C9_3 C 0.34783 0.84783 0.08346
C10_3 C 0.32192 0.82192 0.08386
C11_3 C 0.34825 0.84825 0.14685
C12_4 C 0.52905 0.98420 0.12037
C13_4 C 0.50323 0.95837 0.11796
C16_3 C 0.46785 0.96785 0.11665
C17_3 C 0.44081 0.94081 0.11581
C18_3 C 0.42758 0.92758 0.14727
C19_3 C 0.40175 0.90175 0.14685
C20_3 C 0.40217 0.90217 0.08346
C21_3 C 0.42808 0.92808 0.08386
C22_3 C 0.38872 0.88872 0.11499
C25_3 C 0.22095 0.76580 0.12037
C26_3 C 0.24677 0.79163 0.11796
C27_4 C 0.62963 0.98420 0.22095
C28_4 C 0.63204 0.95837 0.24677
C31_3 C 0.63335 0.96785 0.28215
C32_3 C 0.63419 0.94081 0.30919
C33_3 C 0.63501 0.88872 0.36128
C34_3 C 0.60273 0.92758 0.32242
C35_3 C 0.66654 0.90217 0.34783
C36_3 C 0.66614 0.92808 0.32192
C37_3 C 0.60315 0.90175 0.34825
O9_4 O 0.62562 0.67078 0.53684
C38_4 C 0.62963 0.72095 0.48420
C39_4 C 0.63204 0.74677 0.45837
C40_4 C 0.62623 0.70299 0.54701
C41_4 C 0.62830 0.73026 0.51974
C42_3 C 0.63335 0.78215 0.46785
C43_3 C 0.63419 0.80919 0.44081
C44_3 C 0.60273 0.82242 0.42758
C45_3 C 0.60315 0.84825 0.40175
C46_3 C 0.66654 0.84783 0.40217
C47_3 C 0.66614 0.82192 0.42808
C48_3 C 0.63501 0.86128 0.38872
O10_4 O 0.62562 0.71316 0.57922
C49_3 C 0.62963 0.76580 0.52905
C50_3 C 0.63204 0.79163 0.50323
O12_4 O 0.57922 0.62438 0.53684
C53_4 C 0.52905 0.62037 0.48420
C54_4 C 0.50323 0.61796 0.45837
C55_4 C 0.54701 0.62377 0.54701
C56_4 C 0.51974 0.62170 0.51974
C57_3 C 0.46785 0.61665 0.46785
C58_3 C 0.44081 0.61581 0.44081
C59_3 C 0.38872 0.61499 0.38872
C60_3 C 0.42758 0.64727 0.42758
C61_3 C 0.40217 0.58346 0.40217
C62_3 C 0.42808 0.58386 0.42808
C63_3 C 0.40175 0.64685 0.40175
O13_4 O 0.21316 0.62438 0.17078
C64_4 C 0.26580 0.62037 0.22095
C65_4 C 0.29163 0.61796 0.24677
C66_4 C 0.20299 0.62377 0.20299
C67_4 C 0.23026 0.62170 0.23026
C68_3 C 0.28215 0.61665 0.28215
C69_3 C 0.30919 0.61581 0.30919
C70_3 C 0.32242 0.64727 0.32242
C71_3 C 0.34825 0.64685 0.34825
C72_3 C 0.34783 0.58346 0.34783
C73_3 C 0.32192 0.58386 0.32192
C74_3 C 0.36128 0.61499 0.36128
O14_4 O 0.17078 0.62438 0.21316
C75_3 C 0.22095 0.62037 0.26580
C76_3 C 0.24677 0.61796 0.29163
C77_3 C 0.48420 0.62037 0.52905
C78_3 C 0.45837 0.61796 0.50323
O19_4 O 0.67078 0.62562 0.53684
O21_4 O 0.21316 0.57922 0.12562
O24_4 O 0.65677 0.65677 0.59323
H1_4 H 0.319169 0.739349 0.1171
H2_4 H 0.273293 0.69343 0.121222
H4_3 H 0.19343 0.773293 0.121222
H5_3 H 0.391568 0.891568 0.171484
H6_3 H 0.392346 0.892346 0.0585365
H7_3 H 0.239349 0.819169 0.1171
H8_3 H 0.358432 0.858432 0.171484
H10_4 H 0.55657 0.976707 0.121222
H11_4 H 0.628778 0.976707 0.19343
H12_4 H 0.6329 0.930831 0.239349
H13_3 H 0.311645 0.811645 0.0593026
H14_4 H 0.510651 0.930831 0.1171
H15_3 H 0.437454 0.937454 0.172154
H16_3 H 0.312546 0.812546 0.172154
H17_3 H 0.357654 0.857654 0.0585365
H18_3 H 0.438355 0.938355 0.0593026
H20_4 H 0.510651 0.6171 0.430831
H21_4 H 0.628778 0.69343 0.476707
H22_3 H 0.690697 0.811645 0.438355
H23_4 H 0.55657 0.621222 0.476707
H24_3 H 0.691464 0.892346 0.357654
H25_3 H 0.578516 0.858432 0.391568
H26_4 H 0.6329 0.739349 0.430831
H27_3 H 0.577846 0.812546 0.437454
H28_3 H 0.691464 0.857654 0.392346
H29_3 H 0.6329 0.819169 0.510651
H30_3 H 0.577846 0.937454 0.312546
H32_3 H 0.578516 0.891568 0.358432
H33_3 H 0.690697 0.938355 0.311645
H34_3 H 0.628778 0.773293 0.55657
H35_3 H 0.239349 0.6171 0.319169
H36_4 H 0.273293 0.621222 0.19343
H37_4 H 0.319169 0.6171 0.239349
H38_3 H 0.430831 0.6171 0.510651
H39_3 H 0.392346 0.558536 0.392346
H40_3 H 0.438355 0.559303 0.438355
H41_3 H 0.311645 0.559303 0.311645
H42_3 H 0.391568 0.671484 0.391568
H43_3 H 0.312546 0.672154 0.312546
H44_3 H 0.476707 0.621222 0.55657
H45_3 H 0.358432 0.671484 0.358432
H46_3 H 0.357654 0.558536 0.357654
H47_3 H 0.437454 0.672154 0.437454
H48_3 H 0.19343 0.621222 0.273293
C27_5 C 0.12963 0.26580 0.52905
C28_5 C 0.13204 0.29163 0.50323
C29_5 C 0.12623 0.20299 0.54701
C30_5 C 0.12830 0.23026 0.51974
C31_4 C 0.13335 0.28215 0.46785
C32_4 C 0.13419 0.30919 0.44081
C33_4 C 0.13501 0.36128 0.38872
C34_4 C 0.10273 0.32242 0.42758
C35_4 C 0.16654 0.34783 0.40217
C36_4 C 0.16614 0.32192 0.42808
C37_4 C 0.10315 0.34825 0.40175
O9_5 O 0.12562 0.57922 0.21316
C38_5 C 0.12963 0.52905 0.26580
C39_5 C 0.13204 0.50323 0.29163
C40_5 C 0.12623 0.54701 0.20299
C41_5 C 0.12830 0.51974 0.23026
C42_4 C 0.13335 0.46785 0.28215
C43_4 C 0.13419 0.44081 0.30919
C44_4 C 0.10273 0.42758 0.32242
C45_4 C 0.10315 0.40175 0.34825
C46_4 C 0.16654 0.40217 0.34783
C47_4 C 0.16614 0.42808 0.32192
C48_4 C 0.13501 0.38872 0.36128
O10_5 O 0.12562 0.53684 0.17078
C49_4 C 0.12963 0.48420 0.22095
C50_4 C 0.13204 0.45837 0.24677
O11_3 O 0.12562 0.17078 0.53684
C51_4 C 0.12963 0.22095 0.48420
C52_4 C 0.13204 0.24677 0.45837
O12_5 O 0.07922 0.62562 0.21316
C53_5 C 0.02905 0.62963 0.26580
C54_5 C 0.00323 0.63204 0.29163
C55_5 C 0.04701 0.62623 0.20299
C56_5 C 0.01974 0.62830 0.23026
O15_3 O 0.03684 0.62562 0.17078
O18_3 O 0.12438 0.67078 0.21316
O29_3 O 0.09298 0.59298 0.15702
H11_5 H 0.128778 0.273293 0.55657
H12_5 H 0.1329 0.319169 0.510651
H19_4 H 0.1329 0.239349 0.430831
H20_5 H 0.0106511 0.6329 0.319169
H21_5 H 0.128778 0.55657 0.273293
H22_4 H 0.190697 0.438355 0.311645
H23_5 H 0.0565697 0.628778 0.273293
H24_4 H 0.191464 0.357654 0.392346
H25_4 H 0.0785155 0.391568 0.358432
H26_5 H 0.1329 0.510651 0.319169
H27_4 H 0.0778462 0.437454 0.312546
H28_4 H 0.191464 0.392346 0.357654
H29_4 H 0.1329 0.430831 0.239349
H30_4 H 0.0778462 0.312546 0.437454
H31_4 H 0.128778 0.19343 0.476707
H32_4 H 0.0785155 0.358432 0.391568
H33_4 H 0.190697 0.311645 0.438355
H34_4 H 0.128778 0.476707 0.19343
C57_4 C 0.96785 0.63335 0.28215
C58_4 C 0.94081 0.63419 0.30919
C59_4 C 0.88872 0.63501 0.36128
C60_4 C 0.92758 0.60273 0.32242
C61_4 C 0.90217 0.66654 0.34783
C62_4 C 0.92808 0.66614 0.32192
C63_4 C 0.90175 0.60315 0.34825
O13_5 O 0.71316 0.62562 0.57922
C64_5 C 0.76580 0.62963 0.52905
C65_5 C 0.79163 0.63204 0.50323
C66_5 C 0.70299 0.62623 0.54701
C67_5 C 0.73026 0.62830 0.51974
C68_4 C 0.78215 0.63335 0.46785
C69_4 C 0.80919 0.63419 0.44081
C70_4 C 0.82242 0.60273 0.42758
C71_4 C 0.84825 0.60315 0.40175
C72_4 C 0.84783 0.66654 0.40217
C73_4 C 0.82192 0.66614 0.42808
C74_4 C 0.86128 0.63501 0.38872
C75_4 C 0.72095 0.62963 0.48420
C76_4 C 0.74677 0.63204 0.45837
C77_4 C 0.98420 0.62963 0.22095
C78_4 C 0.95837 0.63204 0.24677
O20_3 O 0.71316 0.62438 0.67078
O21_5 O 0.71316 0.67078 0.62438
O30_3 O 0.65702 0.65702 0.65702
H35_4 H 0.739349 0.6329 0.430831
H36_5 H 0.773293 0.628778 0.55657
H37_5 H 0.819169 0.6329 0.510651
H38_4 H 0.930831 0.6329 0.239349
H39_4 H 0.892346 0.691464 0.357654
H40_4 H 0.938355 0.690697 0.311645
H41_4 H 0.811645 0.690697 0.438355
H42_4 H 0.891568 0.578516 0.358432
H43_4 H 0.812546 0.577846 0.437454
H44_4 H 0.976707 0.628778 0.19343
H45_4 H 0.858432 0.578516 0.391568
H46_4 H 0.857654 0.691464 0.392346
H47_4 H 0.937454 0.577846 0.312546
H48_4 H 0.69343 0.628778 0.476707
O13_6 O 0.03684 0.62438 0.07922
C66_6 C 0.04701 0.62377 0.04701
C67_6 C 0.01974 0.62170 0.01974
O21_6 O 0.03684 0.57922 0.12438
C29_6 C 0.62377 0.04701 0.04701
C30_6 C 0.62170 0.01974 0.01974
O11_4 O 0.62438 0.07922 0.03684
C31_5 C 0.61665 0.96785 0.96785
C32_5 C 0.61581 0.94081 0.94081
C33_5 C 0.61499 0.88872 0.88872
C34_5 C 0.64727 0.92758 0.92758
C35_5 C 0.58346 0.90217 0.90217
C36_5 C 0.58386 0.92808 0.92808
C37_5 C 0.64685 0.90175 0.90175
O9_6 O 0.62438 0.67078 0.71316
C38_6 C 0.62037 0.72095 0.76580
C39_6 C 0.61796 0.74677 0.79163
C40_6 C 0.62377 0.70299 0.70299
C41_6 C 0.62170 0.73026 0.73026
C42_5 C 0.61665 0.78215 0.78215
C43_5 C 0.61581 0.80919 0.80919
C44_5 C 0.64727 0.82242 0.82242
C45_5 C 0.64685 0.84825 0.84825
C46_5 C 0.58346 0.84783 0.84783
C47_5 C 0.58386 0.82192 0.82192
C48_5 C 0.61499 0.86128 0.86128
O10_6 O 0.62438 0.71316 0.67078
C49_5 C 0.62037 0.76580 0.72095
C50_5 C 0.61796 0.79163 0.74677
O12_6 O 0.67078 0.62438 0.71316
C53_6 C 0.72095 0.62037 0.76580
C54_6 C 0.74677 0.61796 0.79163
C55_6 C 0.70299 0.62377 0.70299
C56_6 C 0.73026 0.62170 0.73026
C57_5 C 0.78215 0.61665 0.78215
C58_5 C 0.80919 0.61581 0.80919
C59_5 C 0.86128 0.61499 0.86128
C60_5 C 0.82242 0.64727 0.82242
C61_5 C 0.84783 0.58346 0.84783
C62_5 C 0.82192 0.58386 0.82192
C63_5 C 0.84825 0.64685 0.84825
C68_5 C 0.96785 0.61665 0.96785
C69_5 C 0.94081 0.61581 0.94081
C70_5 C 0.92758 0.64727 0.92758
C71_5 C 0.90175 0.64685 0.90175
C72_5 C 0.90217 0.58346 0.90217
C73_5 C 0.92808 0.58386 0.92808
C74_5 C 0.88872 0.61499 0.88872
C77_5 C 0.76580 0.62037 0.72095
C78_5 C 0.79163 0.61796 0.74677
O18_4 O 0.62562 0.57922 0.71316
H20_6 H 0.739349 0.6171 0.819169
H21_6 H 0.621222 0.69343 0.773293
H22_5 H 0.559303 0.811645 0.811645
H23_6 H 0.69343 0.621222 0.773293
H24_5 H 0.558536 0.892346 0.892346
H25_5 H 0.671484 0.858432 0.858432
H26_6 H 0.6171 0.739349 0.819169
H27_5 H 0.672154 0.812546 0.812546
H28_5 H 0.558536 0.857654 0.857654
H29_5 H 0.6171 0.819169 0.739349
H30_5 H 0.672154 0.937454 0.937454
H32_5 H 0.671484 0.891568 0.891568
H33_5 H 0.559303 0.938355 0.938355
H34_5 H 0.621222 0.773293 0.69343
H38_5 H 0.819169 0.6171 0.739349
H39_5 H 0.857654 0.558536 0.857654
H40_5 H 0.811645 0.559303 0.811645
H41_5 H 0.938355 0.559303 0.938355
H42_5 H 0.858432 0.671484 0.858432
H43_5 H 0.937454 0.672154 0.937454
H44_5 H 0.773293 0.621222 0.69343
H45_5 H 0.891568 0.671484 0.891568
H46_5 H 0.892346 0.558536 0.892346
H47_5 H 0.812546 0.672154 0.812546
O9_7 O 0.12438 0.07922 0.53684
C38_7 C 0.12037 0.02905 0.48420
C39_7 C 0.11796 0.00323 0.45837
C40_7 C 0.12377 0.04701 0.54701
C41_7 C 0.12170 0.01974 0.51974
O10_7 O 0.12438 0.03684 0.57922
O12_7 O 0.17078 0.12562 0.53684
C53_7 C 0.22095 0.12963 0.48420
C54_7 C 0.24677 0.13204 0.45837
C55_7 C 0.20299 0.12623 0.54701
C56_7 C 0.23026 0.12830 0.51974
C57_6 C 0.28215 0.13335 0.46785
C58_6 C 0.30919 0.13419 0.44081
C59_6 C 0.36128 0.13501 0.38872
C60_6 C 0.32242 0.10273 0.42758
C61_6 C 0.34783 0.16654 0.40217
C62_6 C 0.32192 0.16614 0.42808
C63_6 C 0.34825 0.10315 0.40175
O13_7 O 0.53684 0.12562 0.17078
C64_6 C 0.48420 0.12963 0.22095
C65_6 C 0.45837 0.13204 0.24677
C66_7 C 0.54701 0.12623 0.20299
C67_7 C 0.51974 0.12830 0.23026
C68_6 C 0.46785 0.13335 0.28215
C69_6 C 0.44081 0.13419 0.30919
C70_6 C 0.42758 0.10273 0.32242
C71_6 C 0.40175 0.10315 0.34825
C72_6 C 0.40217 0.16654 0.34783
C73_6 C 0.42808 0.16614 0.32192
C74_6 C 0.38872 0.13501 0.36128
C75_5 C 0.52905 0.12963 0.26580
C76_5 C 0.50323 0.13204 0.29163
O15_4 O 0.21316 0.12562 0.57922
C77_6 C 0.26580 0.12963 0.52905
C78_6 C 0.29163 0.13204 0.50323
O20_4 O 0.53684 0.12438 0.07922
O21_7 O 0.53684 0.17078 0.12562
O29_4 O 0.15702 0.09298 0.59298
O30_4 O 0.59298 0.15702 0.09298
H20_7 H 0.239349 0.1329 0.430831
H21_7 H 0.121222 0.0565697 0.476707
H23_7 H 0.19343 0.128778 0.476707
H26_7 H 0.1171 0.0106511 0.430831
H35_5 H 0.510651 0.1329 0.319169
H36_6 H 0.476707 0.128778 0.19343
H37_6 H 0.430831 0.1329 0.239349
H38_6 H 0.319169 0.1329 0.510651
H39_6 H 0.357654 0.191464 0.392346
H40_6 H 0.311645 0.190697 0.438355
H41_6 H 0.438355 0.190697 0.311645
H42_6 H 0.358432 0.0785155 0.391568
H43_6 H 0.437454 0.0778462 0.312546
H44_6 H 0.273293 0.128778 0.55657
H45_6 H 0.391568 0.0785155 0.358432
H46_6 H 0.392346 0.191464 0.357654
H47_6 H 0.312546 0.0778462 0.437454
H48_5 H 0.55657 0.128778 0.273293
C27_6 C 0.12037 0.76580 0.22095
C28_6 C 0.11796 0.79163 0.24677
C29_7 C 0.12377 0.70299 0.20299
C30_7 C 0.12170 0.73026 0.23026
C31_6 C 0.11665 0.78215 0.28215
C32_6 C 0.11581 0.80919 0.30919
C33_6 C 0.11499 0.86128 0.36128
C34_6 C 0.14727 0.82242 0.32242
C35_6 C 0.08346 0.84783 0.34783
C36_6 C 0.08386 0.82192 0.32192
C37_6 C 0.14685 0.84825 0.34825
C42_6 C 0.11665 0.96785 0.46785
C43_6 C 0.11581 0.94081 0.44081
C44_6 C 0.14727 0.92758 0.42758
C45_6 C 0.14685 0.90175 0.40175
C46_6 C 0.08346 0.90217 0.40217
C47_6 C 0.08386 0.92808 0.42808
C48_6 C 0.11499 0.88872 0.38872
C49_6 C 0.12037 0.98420 0.52905
C50_6 C 0.11796 0.95837 0.50323
C51_5 C 0.12037 0.72095 0.26580
C52_5 C 0.11796 0.74677 0.29163
H11_6 H 0.121222 0.773293 0.19343
H12_6 H 0.1171 0.819169 0.239349
H19_5 H 0.1171 0.739349 0.319169
H22_6 H 0.0593026 0.938355 0.438355
H24_6 H 0.0585365 0.857654 0.357654
H25_6 H 0.171484 0.891568 0.391568
H27_6 H 0.172154 0.937454 0.437454
H28_6 H 0.0585365 0.892346 0.392346
H29_6 H 0.1171 0.930831 0.510651
H30_6 H 0.172154 0.812546 0.312546
H31_5 H 0.121222 0.69343 0.273293
H32_6 H 0.171484 0.858432 0.358432
H33_6 H 0.0593026 0.811645 0.311645
H34_6 H 0.121222 0.976707 0.55657
O9_8 O 0.62562 0.17078 0.03684
C40_8 C 0.62623 0.20299 0.04701
C41_8 C 0.62830 0.23026 0.01974
O10_8 O 0.62562 0.21316 0.07922
C49_7 C 0.62963 0.26580 0.02905
C50_7 C 0.63204 0.29163 0.00323
O12_8 O 0.57922 0.12438 0.03684
C55_8 C 0.54701 0.12377 0.04701
C56_8 C 0.51974 0.12170 0.01974
C77_7 C 0.48420 0.12037 0.02905
C78_7 C 0.45837 0.11796 0.00323
H29_7 H 0.6329 0.319169 0.0106511
H34_7 H 0.628778 0.273293 0.0565697
H38_7 H 0.430831 0.1171 0.0106511
H44_7 H 0.476707 0.121222 0.0565697
C27_7 C 0.62963 0.48420 0.72095
C28_7 C 0.63204 0.45837 0.74677
C29_8 C 0.62623 0.54701 0.70299
C30_8 C 0.62830 0.51974 0.73026
C31_7 C 0.63335 0.46785 0.78215
C32_7 C 0.63419 0.44081 0.80919
C33_7 C 0.63501 0.38872 0.86128
C34_7 C 0.60273 0.42758 0.82242
C35_7 C 0.66654 0.40217 0.84783
C36_7 C 0.66614 0.42808 0.82192
C37_7 C 0.60315 0.40175 0.84825
C38_8 C 0.62963 0.22095 0.98420
C39_8 C 0.63204 0.24677 0.95837
C42_7 C 0.63335 0.28215 0.96785
C43_7 C 0.63419 0.30919 0.94081
C44_7 C 0.60273 0.32242 0.92758
C45_7 C 0.60315 0.34825 0.90175
C46_7 C 0.66654 0.34783 0.90217
C47_7 C 0.66614 0.32192 0.92808
C48_7 C 0.63501 0.36128 0.88872
C51_6 C 0.62963 0.52905 0.76580
C52_6 C 0.63204 0.50323 0.79163
C53_8 C 0.52905 0.12037 0.98420
C54_8 C 0.50323 0.11796 0.95837
C57_7 C 0.46785 0.11665 0.96785
C58_7 C 0.44081 0.11581 0.94081
C59_7 C 0.38872 0.11499 0.88872
C60_7 C 0.42758 0.14727 0.92758
C61_7 C 0.40217 0.08346 0.90217
C62_7 C 0.42808 0.08386 0.92808
C63_7 C 0.40175 0.14685 0.90175
O13_8 O 0.21316 0.12438 0.67078
C64_7 C 0.26580 0.12037 0.72095
C65_7 C 0.29163 0.11796 0.74677
C66_8 C 0.20299 0.12377 0.70299
C67_8 C 0.23026 0.12170 0.73026
C68_7 C 0.28215 0.11665 0.78215
C69_7 C 0.30919 0.11581 0.80919
C70_7 C 0.32242 0.14727 0.82242
C71_7 C 0.34825 0.14685 0.84825
C72_7 C 0.34783 0.08346 0.84783
C73_7 C 0.32192 0.08386 0.82192
C74_7 C 0.36128 0.11499 0.86128
C75_6 C 0.22095 0.12037 0.76580
C76_6 C 0.24677 0.11796 0.79163
O21_8 O 0.21316 0.07922 0.62562
H11_7 H 0.628778 0.476707 0.69343
H12_7 H 0.6329 0.430831 0.739349
H19_6 H 0.6329 0.510651 0.819169
H20_8 H 0.510651 0.1171 0.930831
H21_8 H 0.628778 0.19343 0.976707
H22_7 H 0.690697 0.311645 0.938355
H23_8 H 0.55657 0.121222 0.976707
H24_7 H 0.691464 0.392346 0.857654
H25_7 H 0.578516 0.358432 0.891568
H26_8 H 0.6329 0.239349 0.930831
H27_7 H 0.577846 0.312546 0.937454
H28_7 H 0.691464 0.357654 0.892346
H30_7 H 0.577846 0.437454 0.812546
H31_6 H 0.628778 0.55657 0.773293
H32_7 H 0.578516 0.391568 0.858432
H33_7 H 0.690697 0.438355 0.811645
H35_6 H 0.239349 0.1171 0.819169
H36_7 H 0.273293 0.121222 0.69343
H37_7 H 0.319169 0.1171 0.739349
H39_7 H 0.392346 0.0585365 0.892346
H40_7 H 0.438355 0.0593026 0.938355
H41_7 H 0.311645 0.0593026 0.811645
H42_7 H 0.391568 0.171484 0.891568
H43_7 H 0.312546 0.172154 0.812546
H45_7 H 0.358432 0.171484 0.858432
H46_7 H 0.357654 0.0585365 0.857654
H47_7 H 0.437454 0.172154 0.937454
H48_6 H 0.19343 0.121222 0.773293
C1_5 C 0.26580 0.02905 0.62963
C2_5 C 0.29163 0.00323 0.63204
C3_5 C 0.20299 0.04701 0.62623
C4_5 C 0.23026 0.01974 0.62830
O6_3 O 0.17078 0.03684 0.62562
H1_5 H 0.319169 0.0106511 0.6329
H2_5 H 0.273293 0.0565697 0.628778
C5_4 C 0.28215 0.96785 0.63335
C6_4 C 0.30919 0.94081 0.63419
C7_4 C 0.36128 0.88872 0.63501
C8_4 C 0.32242 0.92758 0.60273
C9_4 C 0.34783 0.90217 0.66654
C10_4 C 0.32192 0.92808 0.66614
C11_4 C 0.34825 0.90175 0.60315
O4_5 O 0.57922 0.71316 0.62562
C12_5 C 0.52905 0.76580 0.62963
C13_5 C 0.50323 0.79163 0.63204
C14_5 C 0.54701 0.70299 0.62623
C15_5 C 0.51974 0.73026 0.62830
C16_4 C 0.46785 0.78215 0.63335
C17_4 C 0.44081 0.80919 0.63419
C18_4 C 0.42758 0.82242 0.60273
C19_4 C 0.40175 0.84825 0.60315
C20_4 C 0.40217 0.84783 0.66654
C21_4 C 0.42808 0.82192 0.66614
C22_4 C 0.38872 0.86128 0.63501
C23_4 C 0.48420 0.72095 0.62963
C24_4 C 0.45837 0.74677 0.63204
C25_4 C 0.22095 0.98420 0.62963
C26_4 C 0.24677 0.95837 0.63204
O22_3 O 0.67078 0.71316 0.62438
H3_4 H 0.476707 0.69343 0.628778
H4_4 H 0.19343 0.976707 0.628778
H5_4 H 0.391568 0.858432 0.578516
H6_4 H 0.392346 0.857654 0.691464
H7_4 H 0.239349 0.930831 0.6329
H8_4 H 0.358432 0.891568 0.578516
H9_4 H 0.430831 0.739349 0.6329
H10_5 H 0.55657 0.773293 0.628778
H13_4 H 0.311645 0.938355 0.690697
H14_5 H 0.510651 0.819169 0.6329
H15_4 H 0.437454 0.812546 0.577846
H16_4 H 0.312546 0.937454 0.577846
H17_4 H 0.357654 0.892346 0.691464
H18_4 H 0.438355 0.811645 0.690697
C1_6 C 0.48420 0.22095 0.12963
C2_6 C 0.45837 0.24677 0.13204
C3_6 C 0.54701 0.20299 0.12623
C4_6 C 0.51974 0.23026 0.12830
C5_5 C 0.46785 0.28215 0.13335
C6_5 C 0.44081 0.30919 0.13419
C7_5 C 0.38872 0.36128 0.13501
C8_5 C 0.42758 0.32242 0.10273
C9_5 C 0.40217 0.34783 0.16654
C10_5 C 0.42808 0.32192 0.16614
C11_5 C 0.40175 0.34825 0.10315
O4_6 O 0.17078 0.53684 0.12562
C12_6 C 0.22095 0.48420 0.12963
C13_6 C 0.24677 0.45837 0.13204
C14_6 C 0.20299 0.54701 0.12623
C15_6 C 0.23026 0.51974 0.12830
C16_5 C 0.28215 0.46785 0.13335
C17_5 C 0.30919 0.44081 0.13419
C18_5 C 0.32242 0.42758 0.10273
C19_5 C 0.34825 0.40175 0.10315
C20_5 C 0.34783 0.40217 0.16654
C21_5 C 0.32192 0.42808 0.16614
C22_5 C 0.36128 0.38872 0.13501
C23_5 C 0.26580 0.52905 0.12963
C24_5 C 0.29163 0.50323 0.13204
O6_4 O 0.57922 0.21316 0.12562
C25_5 C 0.52905 0.26580 0.12963
C26_5 C 0.50323 0.29163 0.13204
O22_4 O 0.07922 0.53684 0.12438
H1_6 H 0.430831 0.239349 0.1329
H2_6 H 0.476707 0.19343 0.128778
H3_5 H 0.273293 0.55657 0.128778
H4_5 H 0.55657 0.273293 0.128778
H5_5 H 0.358432 0.391568 0.0785155
H6_5 H 0.357654 0.392346 0.191464
H7_5 H 0.510651 0.319169 0.1329
H8_5 H 0.391568 0.358432 0.0785155
H9_5 H 0.319169 0.510651 0.1329
H10_6 H 0.19343 0.476707 0.128778
H13_5 H 0.438355 0.311645 0.190697
H14_6 H 0.239349 0.430831 0.1329
H15_5 H 0.312546 0.437454 0.0778462
H16_5 H 0.437454 0.312546 0.0778462
H17_5 H 0.392346 0.357654 0.191464
H18_5 H 0.311645 0.438355 0.190697
C3_7 C 0.04701 0.54701 0.12377
C4_7 C 0.01974 0.51974 0.12170
C25_6 C 0.02905 0.48420 0.12037
C26_6 C 0.00323 0.45837 0.11796
H4_6 H 0.0565697 0.476707 0.121222
H7_6 H 0.0106511 0.430831 0.1171
C1_7 C 0.98420 0.52905 0.12037
C2_7 C 0.95837 0.50323 0.11796
C5_6 C 0.96785 0.46785 0.11665
C6_6 C 0.94081 0.44081 0.11581
C7_6 C 0.88872 0.38872 0.11499
C8_6 C 0.92758 0.42758 0.14727
C9_6 C 0.90217 0.40217 0.08346
C10_6 C 0.92808 0.42808 0.08386
C11_6 C 0.90175 0.40175 0.14685
O4_7 O 0.67078 0.21316 0.12438
C12_7 C 0.72095 0.26580 0.12037
C13_7 C 0.74677 0.29163 0.11796
C14_7 C 0.70299 0.20299 0.12377
C15_7 C 0.73026 0.23026 0.12170
C16_6 C 0.78215 0.28215 0.11665
C17_6 C 0.80919 0.30919 0.11581
C18_6 C 0.82242 0.32242 0.14727
C19_6 C 0.84825 0.34825 0.14685
C20_6 C 0.84783 0.34783 0.08346
C21_6 C 0.82192 0.32192 0.08386
C22_6 C 0.86128 0.36128 0.11499
C23_6 C 0.76580 0.22095 0.12037
C24_6 C 0.79163 0.24677 0.11796
H1_7 H 0.930831 0.510651 0.1171
H2_7 H 0.976707 0.55657 0.121222
H3_6 H 0.773293 0.19343 0.121222
H5_6 H 0.858432 0.358432 0.171484
H6_6 H 0.857654 0.357654 0.0585365
H8_6 H 0.891568 0.391568 0.171484
H9_6 H 0.819169 0.239349 0.1171
H10_7 H 0.69343 0.273293 0.121222
H13_6 H 0.938355 0.438355 0.0593026
H14_7 H 0.739349 0.319169 0.1171
H15_6 H 0.812546 0.312546 0.172154
H16_6 H 0.937454 0.437454 0.172154
H17_6 H 0.892346 0.392346 0.0585365
H18_6 H 0.811645 0.311645 0.0593026
O4_8 O 0.07922 0.03684 0.62438
C14_8 C 0.04701 0.04701 0.62377
C15_8 C 0.01974 0.01974 0.62170
C1_8 C 0.76580 0.72095 0.62037
C2_8 C 0.79163 0.74677 0.61796
C3_8 C 0.70299 0.70299 0.62377
C4_8 C 0.73026 0.73026 0.62170
C5_7 C 0.78215 0.78215 0.61665
C6_7 C 0.80919 0.80919 0.61581
C7_7 C 0.86128 0.86128 0.61499
C8_7 C 0.82242 0.82242 0.64727
C9_7 C 0.84783 0.84783 0.58346
C10_7 C 0.82192 0.82192 0.58386
C11_7 C 0.84825 0.84825 0.64685
C16_7 C 0.96785 0.96785 0.61665
C17_7 C 0.94081 0.94081 0.61581
C18_7 C 0.92758 0.92758 0.64727
C19_7 C 0.90175 0.90175 0.64685
C20_7 C 0.90217 0.90217 0.58346
C21_7 C 0.92808 0.92808 0.58386
C22_7 C 0.88872 0.88872 0.61499
C25_7 C 0.72095 0.76580 0.62037
C26_7 C 0.74677 0.79163 0.61796
H1_8 H 0.819169 0.739349 0.6171
H2_8 H 0.773293 0.69343 0.621222
H4_7 H 0.69343 0.773293 0.621222
H5_7 H 0.891568 0.891568 0.671484
H6_7 H 0.892346 0.892346 0.558536
H7_7 H 0.739349 0.819169 0.6171
H8_7 H 0.858432 0.858432 0.671484
H13_7 H 0.811645 0.811645 0.559303
H15_7 H 0.937454 0.937454 0.672154
H16_7 H 0.812546 0.812546 0.672154
H17_7 H 0.857654 0.857654 0.558536
H18_7 H 0.938355 0.938355 0.559303
C31_8 C 0.13335 0.78215 0.96785
C32_8 C 0.13419 0.80919 0.94081
C33_8 C 0.13501 0.86128 0.88872
C34_8 C 0.10273 0.82242 0.92758
C35_8 C 0.16654 0.84783 0.90217
C36_8 C 0.16614 0.82192 0.92808
C37_8 C 0.10315 0.84825 0.90175
C42_8 C 0.13335 0.96785 0.78215
C43_8 C 0.13419 0.94081 0.80919
C44_8 C 0.10273 0.92758 0.82242
C45_8 C 0.10315 0.90175 0.84825
C46_8 C 0.16654 0.90217 0.84783
C47_8 C 0.16614 0.92808 0.82192
C48_8 C 0.13501 0.88872 0.86128
C49_8 C 0.12963 0.98420 0.72095
C50_8 C 0.13204 0.95837 0.74677
C51_7 C 0.12963 0.72095 0.98420
C52_7 C 0.13204 0.74677 0.95837
H19_7 H 0.1329 0.739349 0.930831
H22_8 H 0.190697 0.938355 0.811645
H24_8 H 0.191464 0.857654 0.892346
H25_8 H 0.0785155 0.891568 0.858432
H27_8 H 0.0778462 0.937454 0.812546
H28_8 H 0.191464 0.892346 0.857654
H29_8 H 0.1329 0.930831 0.739349
H30_8 H 0.0778462 0.812546 0.937454
H31_7 H 0.128778 0.69343 0.976707
H32_8 H 0.0785155 0.858432 0.891568
H33_8 H 0.190697 0.811645 0.938355
H34_8 H 0.128778 0.976707 0.69343
C75_7 C 0.02905 0.62037 0.98420
C76_7 C 0.00323 0.61796 0.95837
H35_7 H 0.0106511 0.6171 0.930831
H48_7 H 0.0565697 0.621222 0.976707
C12_8 C 0.02905 0.98420 0.62037
C13_8 C 0.00323 0.95837 0.61796
H10_8 H 0.0565697 0.976707 0.621222
H14_8 H 0.0106511 0.930831 0.6171
C57_8 C 0.96785 0.13335 0.78215
C58_8 C 0.94081 0.13419 0.80919
C59_8 C 0.88872 0.13501 0.86128
C60_8 C 0.92758 0.10273 0.82242
C61_8 C 0.90217 0.16654 0.84783
C62_8 C 0.92808 0.16614 0.82192
C63_8 C 0.90175 0.10315 0.84825
C68_8 C 0.78215 0.13335 0.96785
C69_8 C 0.80919 0.13419 0.94081
C70_8 C 0.82242 0.10273 0.92758
C71_8 C 0.84825 0.10315 0.90175
C72_8 C 0.84783 0.16654 0.90217
C73_8 C 0.82192 0.16614 0.92808
C74_8 C 0.86128 0.13501 0.88872
C75_8 C 0.72095 0.12963 0.98420
C76_8 C 0.74677 0.13204 0.95837
C77_8 C 0.98420 0.12963 0.72095
C78_8 C 0.95837 0.13204 0.74677
H35_8 H 0.739349 0.1329 0.930831
H38_8 H 0.930831 0.1329 0.739349
H39_8 H 0.892346 0.191464 0.857654
H40_8 H 0.938355 0.190697 0.811645
H41_8 H 0.811645 0.190697 0.938355
H42_8 H 0.891568 0.0785155 0.858432
H43_8 H 0.812546 0.0778462 0.937454
H44_8 H 0.976707 0.128778 0.69343
H45_8 H 0.858432 0.0785155 0.891568
H46_8 H 0.857654 0.191464 0.892346
H47_8 H 0.937454 0.0778462 0.812546
H48_8 H 0.69343 0.128778 0.976707
C51_8 C 0.62037 0.02905 0.98420
C52_8 C 0.61796 0.00323 0.95837
H19_8 H 0.6171 0.0106511 0.930831
H31_8 H 0.621222 0.0565697 0.976707
C23_7 C 0.98420 0.02905 0.62037
C24_7 C 0.95837 0.00323 0.61796
H3_7 H 0.976707 0.0565697 0.621222
H9_7 H 0.930831 0.0106511 0.6171
C5_8 C 0.78215 0.96785 0.13335
C6_8 C 0.80919 0.94081 0.13419
C7_8 C 0.86128 0.88872 0.13501
C8_8 C 0.82242 0.92758 0.10273
C9_8 C 0.84783 0.90217 0.16654
C10_8 C 0.82192 0.92808 0.16614
C11_8 C 0.84825 0.90175 0.10315
C16_8 C 0.96785 0.78215 0.13335
C17_8 C 0.94081 0.80919 0.13419
C18_8 C 0.92758 0.82242 0.10273
C19_8 C 0.90175 0.84825 0.10315
C20_8 C 0.90217 0.84783 0.16654
C21_8 C 0.92808 0.82192 0.16614
C22_8 C 0.88872 0.86128 0.13501
C23_8 C 0.98420 0.72095 0.12963
C24_8 C 0.95837 0.74677 0.13204
C25_8 C 0.72095 0.98420 0.12963
C26_8 C 0.74677 0.95837 0.13204
H3_8 H 0.976707 0.69343 0.128778
H4_8 H 0.69343 0.976707 0.128778
H5_8 H 0.891568 0.858432 0.0785155
H6_8 H 0.892346 0.857654 0.191464
H7_8 H 0.739349 0.930831 0.1329
H8_8 H 0.858432 0.891568 0.0785155
H9_8 H 0.930831 0.739349 0.1329
H13_8 H 0.811645 0.938355 0.190697
H15_8 H 0.937454 0.812546 0.0778462
H16_8 H 0.812546 0.937454 0.0778462
H17_8 H 0.857654 0.892346 0.191464
H18_8 H 0.938355 0.811645 0.190697
C27_8 C 0.62037 0.98420 0.02905
C28_8 C 0.61796 0.95837 0.00323
C64_8 C 0.98420 0.62037 0.02905
C65_8 C 0.95837 0.61796 0.00323
H11_8 H 0.621222 0.976707 0.0565697
H12_8 H 0.6171 0.930831 0.0106511
H36_8 H 0.976707 0.621222 0.0565697
H37_8 H 0.930831 0.6171 0.0106511
C1_9 C 0.77905 0.01580 0.37037
C2_9 C 0.75323 0.04163 0.36796
C5_9 C 0.71785 0.03215 0.36665
C6_9 C 0.69081 0.05919 0.36581
C7_9 C 0.63872 0.11128 0.36499
C8_9 C 0.67758 0.07242 0.39727
C9_9 C 0.65217 0.09783 0.33346
C10_9 C 0.67808 0.07192 0.33386
C11_9 C 0.65175 0.09825 0.39685
O4_9 O 0.46316 0.32922 0.37438
C12_9 C 0.51580 0.27905 0.37037
C13_9 C 0.54163 0.25323 0.36796
C14_9 C 0.45299 0.29701 0.37377
C15_9 C 0.48026 0.26974 0.37170
C16_9 C 0.53215 0.21785 0.36665
C17_9 C 0.55919 0.19081 0.36581
C18_9 C 0.57242 0.17758 0.39727
C19_9 C 0.59825 0.15175 0.39685
C20_9 C 0.59783 0.15217 0.33346
C21_9 C 0.57192 0.17808 0.33386
C22_9 C 0.61128 0.13872 0.36499
O5_5 O 0.42078 0.28684 0.37438
C23_9 C 0.47095 0.23420 0.37037
C24_9 C 0.49677 0.20837 0.36796
O7_5 O 0.46316 0.37562 0.42078
C27_9 C 0.51580 0.37963 0.47095
C28_9 C 0.54163 0.38204 0.49677
Zr2_3 Zr 0.43424 0.37500 0.37500
O8_3 O 0.40702 0.34298 0.40702
C29_9 C 0.45299 0.37623 0.45299
C30_9 C 0.48026 0.37830 0.48026
C31_9 C 0.53215 0.38335 0.53215
C32_9 C 0.55919 0.38419 0.55919
C33_9 C 0.61128 0.38501 0.61128
C34_9 C 0.57242 0.35273 0.57242
C35_9 C 0.59783 0.41654 0.59783
C36_9 C 0.57192 0.41614 0.57192
C37_9 C 0.59825 0.35315 0.59825
O9_9 O 0.82922 0.37562 0.78684
C38_9 C 0.77905 0.37963 0.73420
C39_9 C 0.75323 0.38204 0.70837
C40_9 C 0.79701 0.37623 0.79701
C41_9 C 0.76974 0.37830 0.76974
C42_9 C 0.71785 0.38335 0.71785
C43_9 C 0.69081 0.38419 0.69081
C44_9 C 0.67758 0.35273 0.67758
C45_9 C 0.65175 0.35315 0.65175
C46_9 C 0.65217 0.41654 0.65217
C47_9 C 0.67808 0.41614 0.67808
C48_9 C 0.63872 0.38501 0.63872
O10_9 O 0.78684 0.37562 0.82922
C49_9 C 0.73420 0.37963 0.77905
C50_9 C 0.70837 0.38204 0.75323
O11_5 O 0.42078 0.37562 0.46316
C51_9 C 0.47095 0.37963 0.51580
C52_9 C 0.49677 0.38204 0.54163
O12_9 O 0.87562 0.32922 0.78684
C53_9 C 0.87963 0.27905 0.73420
C54_9 C 0.88204 0.25323 0.70837
Zr3_2 Zr 0.87500 0.37500 0.81576
C55_9 C 0.87623 0.29701 0.79701
C56_9 C 0.87830 0.26974 0.76974
C57_9 C 0.88335 0.21785 0.71785
C58_9 C 0.88419 0.19081 0.69081
C59_9 C 0.88501 0.13872 0.63872
C60_9 C 0.85273 0.17758 0.67758
C61_9 C 0.91654 0.15217 0.65217
C62_9 C 0.91614 0.17808 0.67808
C63_9 C 0.85315 0.15175 0.65175
C64_9 C 0.87963 0.01580 0.47095
C65_9 C 0.88204 0.04163 0.49677
C68_9 C 0.88335 0.03215 0.53215
C69_9 C 0.88419 0.05919 0.55919
C70_9 C 0.85273 0.07242 0.57242
C71_9 C 0.85315 0.09825 0.59825
C72_9 C 0.91654 0.09783 0.59783
C73_9 C 0.91614 0.07192 0.57192
C74_9 C 0.88501 0.11128 0.61128
O15_5 O 0.87562 0.28684 0.82922
C77_9 C 0.87963 0.23420 0.77905
C78_9 C 0.88204 0.20837 0.75323
O17_5 O 0.46316 0.37438 0.32922
O18_5 O 0.92078 0.37438 0.78684
O19_5 O 0.87438 0.42078 0.78684
O22_5 O 0.46316 0.42078 0.37562
Zr4_2 Zr 0.87500 0.31576 0.87500
Zr5_3 Zr 0.37500 0.43424 0.37500
Zr7_2 Zr 0.93424 0.37500 0.87500
Zr8_3 Zr 0.37500 0.37500 0.43424
Zr10_3 Zr 0.81576 0.37500 0.87500
Zr12_3 Zr 0.87500 0.43424 0.87500
Zr13_3 Zr 0.37500 0.31576 0.37500
Zr14_3 Zr 0.37500 0.37500 0.31576
O23_5 O 0.40677 0.34323 0.34323
O24_5 O 0.84323 0.40677 0.84323
O25_3 O 0.40677 0.40677 0.40677
O26_2 O 0.90677 0.34323 0.84323
O27_3 O 0.40702 0.40702 0.34298
O28_3 O 0.90702 0.40702 0.84298
O29_5 O 0.84298 0.34298 0.84298
H1_9 H 0.760651 0.0691689 0.3671
H2_9 H 0.80657 0.0232927 0.371222
H3_9 H 0.44343 0.226707 0.371222
H5_9 H 0.608432 0.141568 0.421484
H6_9 H 0.607654 0.142346 0.308536
H8_9 H 0.641568 0.108432 0.421484
H9_9 H 0.489349 0.180831 0.3671
H10_9 H 0.523293 0.30657 0.371222
H11_9 H 0.523293 0.378778 0.44343
H12_9 H 0.569169 0.3829 0.489349
H13_9 H 0.688355 0.0616454 0.309303
H14_9 H 0.569169 0.260651 0.3671
H15_9 H 0.562546 0.187454 0.422154
H16_9 H 0.687454 0.0625458 0.422154
H17_9 H 0.642346 0.107654 0.308536
H18_9 H 0.561645 0.188355 0.309303
H19_9 H 0.489349 0.3829 0.569169
H20_9 H 0.8829 0.260651 0.680831
H21_9 H 0.80657 0.378778 0.726707
H22_9 H 0.688355 0.440697 0.688355
H23_9 H 0.878778 0.30657 0.726707
H24_9 H 0.607654 0.441464 0.607654
H25_9 H 0.641568 0.328516 0.641568
H26_9 H 0.760651 0.3829 0.680831
H27_9 H 0.687454 0.327846 0.687454
H28_9 H 0.642346 0.441464 0.642346
H29_9 H 0.680831 0.3829 0.760651
H30_9 H 0.562546 0.327846 0.562546
H31_9 H 0.44343 0.378778 0.523293
H32_9 H 0.608432 0.328516 0.608432
H33_9 H 0.561645 0.440697 0.561645
H34_9 H 0.726707 0.378778 0.80657
H36_9 H 0.878778 0.0232927 0.44343
H37_9 H 0.8829 0.0691689 0.489349
H38_9 H 0.8829 0.180831 0.760651
H39_9 H 0.941464 0.142346 0.642346
H40_9 H 0.940697 0.188355 0.688355
H41_9 H 0.940697 0.0616454 0.561645
H42_9 H 0.828516 0.141568 0.641568
H43_9 H 0.827846 0.0625458 0.562546
H44_9 H 0.878778 0.226707 0.80657
H45_9 H 0.828516 0.108432 0.608432
H46_9 H 0.941464 0.107654 0.607654
H47_9 H 0.827846 0.187454 0.687454
O1_5 O 0.82922 0.96316 0.37438
Zr1_2 Zr 0.87500 0.93424 0.37500
O2_5 O 0.90677 0.90677 0.40677
O3_3 O 0.84298 0.90702 0.40702
C3_9 C 0.79701 0.95299 0.37377
C4_9 C 0.76974 0.98026 0.37170
O6_5 O 0.78684 0.92078 0.37438
C25_9 C 0.73420 0.97095 0.37037
C26_9 C 0.70837 0.99677 0.36796
O13_9 O 0.87562 0.96316 0.42078
C66_9 C 0.87623 0.95299 0.45299
C67_9 C 0.87830 0.98026 0.48026
O14_5 O 0.87562 0.92078 0.46316
C75_9 C 0.87963 0.97095 0.51580
C76_9 C 0.88204 0.99677 0.54163
O16_2 O 0.84323 0.90677 0.34323
O20_5 O 0.87438 0.96316 0.32922
O21_9 O 0.92078 0.96316 0.37562
Zr6_2 Zr 0.81576 0.87500 0.37500
Zr9_2 Zr 0.87500 0.87500 0.31576
Zr11_3 Zr 0.93424 0.87500 0.37500
Zr15_3 Zr 0.87500 0.87500 0.43424
O30_5 O 0.90702 0.90702 0.34298
H4_9 H 0.726707 0.94343 0.371222
H7_9 H 0.680831 0.989349 0.3671
H35_9 H 0.8829 0.989349 0.569169
H48_9 H 0.878778 0.94343 0.523293
O4_10 O 0.28684 0.92078 0.87438
C12_10 C 0.23420 0.97095 0.87037
C13_10 C 0.20837 0.99677 0.86796
C14_10 C 0.29701 0.95299 0.87377
C15_10 C 0.26974 0.98026 0.87170
O5_6 O 0.32922 0.96316 0.87438
O7_6 O 0.28684 0.87438 0.92078
C27_10 C 0.23420 0.87037 0.97095
C28_10 C 0.20837 0.86796 0.99677
Zr2_4 Zr 0.31576 0.87500 0.87500
O8_4 O 0.34298 0.90702 0.90702
C29_10 C 0.29701 0.87377 0.95299
C30_10 C 0.26974 0.87170 0.98026
O11_6 O 0.32922 0.87438 0.96316
O17_6 O 0.28684 0.87562 0.82922
O22_6 O 0.28684 0.82922 0.87562
Zr5_4 Zr 0.37500 0.81576 0.87500
Zr8_4 Zr 0.37500 0.87500 0.93424
Zr13_4 Zr 0.37500 0.93424 0.87500
Zr14_4 Zr 0.37500 0.87500 0.81576
O23_6 O 0.34323 0.90677 0.84323
O25_4 O 0.34323 0.84323 0.90677
O27_4 O 0.34298 0.84298 0.84298
H10_10 H 0.226707 0.94343 0.871222
H11_10 H 0.226707 0.871222 0.94343
H12_10 H 0.180831 0.8671 0.989349
H14_10 H 0.180831 0.989349 0.8671
O1_6 O 0.92078 0.28684 0.87438
C1_10 C 0.97095 0.23420 0.87037
C2_10 C 0.99677 0.20837 0.86796
O2_6 O 0.84323 0.34323 0.90677
O3_4 O 0.90702 0.34298 0.90702
C3_10 C 0.95299 0.29701 0.87377
C4_10 C 0.98026 0.26974 0.87170
O6_6 O 0.96316 0.32922 0.87438
O13_10 O 0.87438 0.28684 0.92078
C64_10 C 0.87037 0.23420 0.97095
C65_10 C 0.86796 0.20837 0.99677
C66_10 C 0.87377 0.29701 0.95299
C67_10 C 0.87170 0.26974 0.98026
O14_6 O 0.87438 0.32922 0.96316
O21_10 O 0.82922 0.28684 0.87562
Zr15_4 Zr 0.87500 0.37500 0.93424
H1_10 H 0.989349 0.180831 0.8671
H2_10 H 0.94343 0.226707 0.871222
H36_10 H 0.871222 0.226707 0.94343
H37_10 H 0.8671 0.180831 0.989349
O9_10 O 0.92078 0.87438 0.28684
C38_10 C 0.97095 0.87037 0.23420
C39_10 C 0.99677 0.86796 0.20837
C40_10 C 0.95299 0.87377 0.29701
C41_10 C 0.98026 0.87170 0.26974
O10_10 O 0.96316 0.87438 0.32922
O12_10 O 0.87438 0.92078 0.28684
C53_10 C 0.87037 0.97095 0.23420
C54_10 C 0.86796 0.99677 0.20837
C55_10 C 0.87377 0.95299 0.29701
C56_10 C 0.87170 0.98026 0.26974
O18_6 O 0.82922 0.87562 0.28684
O19_6 O 0.87562 0.82922 0.28684
Zr12_4 Zr 0.87500 0.81576 0.37500
O24_6 O 0.90677 0.84323 0.34323
O28_4 O 0.84298 0.84298 0.34298
H20_10 H 0.8671 0.989349 0.180831
H21_10 H 0.94343 0.871222 0.226707
H23_10 H 0.871222 0.94343 0.226707
H26_10 H 0.989349 0.8671 0.180831
O1_7 O 0.32922 0.78684 0.87562
C1_11 C 0.27905 0.73420 0.87963
C2_11 C 0.25323 0.70837 0.88204
O2_7 O 0.40677 0.84323 0.84323
C3_11 C 0.29701 0.79701 0.87623
C4_11 C 0.26974 0.76974 0.87830
C5_10 C 0.21785 0.71785 0.88335
C6_10 C 0.19081 0.69081 0.88419
C7_10 C 0.13872 0.63872 0.88501
C8_10 C 0.17758 0.67758 0.85273
C9_10 C 0.15217 0.65217 0.91654
C10_10 C 0.17808 0.67808 0.91614
C11_10 C 0.15175 0.65175 0.85315
C12_11 C 0.01580 0.47095 0.87963
C13_11 C 0.04163 0.49677 0.88204
C16_10 C 0.03215 0.53215 0.88335
C17_10 C 0.05919 0.55919 0.88419
C18_10 C 0.07242 0.57242 0.85273
C19_10 C 0.09825 0.59825 0.85315
C20_10 C 0.09783 0.59783 0.91654
C21_10 C 0.07192 0.57192 0.91614
C22_10 C 0.11128 0.61128 0.88501
C25_10 C 0.23420 0.77905 0.87963
C26_10 C 0.20837 0.75323 0.88204
C27_11 C 0.01580 0.37037 0.77905
C28_11 C 0.04163 0.36796 0.75323
C31_10 C 0.03215 0.36665 0.71785
C32_10 C 0.05919 0.36581 0.69081
C33_10 C 0.11128 0.36499 0.63872
C34_10 C 0.07242 0.39727 0.67758
C35_10 C 0.09783 0.33346 0.65217
C36_10 C 0.07192 0.33386 0.67808
C37_10 C 0.09825 0.39685 0.65175
O9_11 O 0.32922 0.37438 0.46316
C38_11 C 0.27905 0.37037 0.51580
C39_11 C 0.25323 0.36796 0.54163
C40_11 C 0.29701 0.37377 0.45299
C41_11 C 0.26974 0.37170 0.48026
C42_10 C 0.21785 0.36665 0.53215
C43_10 C 0.19081 0.36581 0.55919
C44_10 C 0.17758 0.39727 0.57242
C45_10 C 0.15175 0.39685 0.59825
C46_10 C 0.15217 0.33346 0.59783
C47_10 C 0.17808 0.33386 0.57192
C48_10 C 0.13872 0.36499 0.61128
O10_11 O 0.28684 0.37438 0.42078
C49_10 C 0.23420 0.37037 0.47095
C50_10 C 0.20837 0.36796 0.49677
O12_11 O 0.37562 0.42078 0.46316
C53_11 C 0.37963 0.47095 0.51580
C54_11 C 0.38204 0.49677 0.54163
C55_11 C 0.37623 0.45299 0.45299
C56_11 C 0.37830 0.48026 0.48026
C57_10 C 0.38335 0.53215 0.53215
C58_10 C 0.38419 0.55919 0.55919
C59_10 C 0.38501 0.61128 0.61128
C60_10 C 0.35273 0.57242 0.57242
C61_10 C 0.41654 0.59783 0.59783
C62_10 C 0.41614 0.57192 0.57192
C63_10 C 0.35315 0.59825 0.59825
O13_11 O 0.37562 0.78684 0.82922
C64_11 C 0.37963 0.73420 0.77905
C65_11 C 0.38204 0.70837 0.75323
C66_11 C 0.37623 0.79701 0.79701
C67_11 C 0.37830 0.76974 0.76974
C68_10 C 0.38335 0.71785 0.71785
C69_10 C 0.38419 0.69081 0.69081
C70_10 C 0.35273 0.67758 0.67758
C71_10 C 0.35315 0.65175 0.65175
C72_10 C 0.41654 0.65217 0.65217
C73_10 C 0.41614 0.67808 0.67808
C74_10 C 0.38501 0.63872 0.63872
O14_7 O 0.37562 0.82922 0.78684
C75_10 C 0.37963 0.77905 0.73420
C76_10 C 0.38204 0.75323 0.70837
O15_6 O 0.37562 0.46316 0.42078
C77_10 C 0.37963 0.51580 0.47095
C78_10 C 0.38204 0.54163 0.49677
O19_7 O 0.37438 0.32922 0.46316
O20_6 O 0.37438 0.78684 0.92078
O21_11 O 0.42078 0.78684 0.87438
Zr10_4 Zr 0.31576 0.37500 0.37500
Zr11_4 Zr 0.43424 0.87500 0.87500
O24_7 O 0.34323 0.34323 0.40677
O29_6 O 0.34298 0.40702 0.40702
O30_6 O 0.40702 0.84298 0.90702
H1_11 H 0.260651 0.680831 0.8829
H2_11 H 0.30657 0.726707 0.878778
H4_10 H 0.226707 0.80657 0.878778
H5_10 H 0.108432 0.608432 0.828516
H6_10 H 0.107654 0.607654 0.941464
H7_10 H 0.180831 0.760651 0.8829
H8_10 H 0.141568 0.641568 0.828516
H10_11 H 0.0232927 0.44343 0.878778
H11_11 H 0.0232927 0.371222 0.80657
H12_11 H 0.0691689 0.3671 0.760651
H13_10 H 0.188355 0.688355 0.940697
H14_11 H 0.0691689 0.489349 0.8829
H15_10 H 0.0625458 0.562546 0.827846
H16_10 H 0.187454 0.687454 0.827846
H17_10 H 0.142346 0.642346 0.941464
H18_10 H 0.0616454 0.561645 0.940697
H20_11 H 0.3829 0.489349 0.569169
H21_11 H 0.30657 0.371222 0.523293
H22_10 H 0.188355 0.309303 0.561645
H23_11 H 0.378778 0.44343 0.523293
H24_10 H 0.107654 0.308536 0.642346
H25_10 H 0.141568 0.421484 0.608432
H26_11 H 0.260651 0.3671 0.569169
H27_10 H 0.187454 0.422154 0.562546
H28_10 H 0.142346 0.308536 0.607654
H29_10 H 0.180831 0.3671 0.489349
H30_10 H 0.0625458 0.422154 0.687454
H32_10 H 0.108432 0.421484 0.641568
H33_10 H 0.0616454 0.309303 0.688355
H34_10 H 0.226707 0.371222 0.44343
H35_10 H 0.3829 0.760651 0.680831
H36_11 H 0.378778 0.726707 0.80657
H37_11 H 0.3829 0.680831 0.760651
H38_10 H 0.3829 0.569169 0.489349
H39_10 H 0.441464 0.607654 0.607654
H40_10 H 0.440697 0.561645 0.561645
H41_10 H 0.440697 0.688355 0.688355
H42_10 H 0.328516 0.608432 0.608432
H43_10 H 0.327846 0.687454 0.687454
H44_10 H 0.378778 0.523293 0.44343
H45_10 H 0.328516 0.641568 0.641568
H46_10 H 0.441464 0.642346 0.642346
H47_10 H 0.327846 0.562546 0.562546
H48_10 H 0.378778 0.80657 0.726707
O4_11 O 0.96316 0.42078 0.87562
C14_11 C 0.95299 0.45299 0.87623
C15_11 C 0.98026 0.48026 0.87830
O5_7 O 0.92078 0.46316 0.87562
C23_10 C 0.97095 0.51580 0.87963
C24_10 C 0.99677 0.54163 0.88204
O7_7 O 0.96316 0.37438 0.82922
C29_11 C 0.95299 0.37377 0.79701
C30_11 C 0.98026 0.37170 0.76974
C51_10 C 0.97095 0.37037 0.73420
C52_10 C 0.99677 0.36796 0.70837
O17_7 O 0.96316 0.37562 0.92078
O23_7 O 0.90677 0.40677 0.90677
H3_10 H 0.94343 0.523293 0.878778
H9_10 H 0.989349 0.569169 0.8829
H19_10 H 0.989349 0.3671 0.680831
H31_10 H 0.94343 0.371222 0.726707
O1_8 O 0.42078 0.46316 0.37562
C1_12 C 0.47095 0.51580 0.37963
C2_12 C 0.49677 0.54163 0.38204
O2_8 O 0.34323 0.40677 0.34323
C3_12 C 0.45299 0.45299 0.37623
C4_12 C 0.48026 0.48026 0.37830
C5_11 C 0.53215 0.53215 0.38335
C6_11 C 0.55919 0.55919 0.38419
C7_11 C 0.61128 0.61128 0.38501
C8_11 C 0.57242 0.57242 0.35273
C9_11 C 0.59783 0.59783 0.41654
C10_11 C 0.57192 0.57192 0.41614
C11_11 C 0.59825 0.59825 0.35315
O4_12 O 0.78684 0.82922 0.37562
C12_12 C 0.73420 0.77905 0.37963
C13_12 C 0.70837 0.75323 0.38204
C14_12 C 0.79701 0.79701 0.37623
C15_12 C 0.76974 0.76974 0.37830
C16_11 C 0.71785 0.71785 0.38335
C17_11 C 0.69081 0.69081 0.38419
C18_11 C 0.67758 0.67758 0.35273
C19_11 C 0.65175 0.65175 0.35315
C20_11 C 0.65217 0.65217 0.41654
C21_11 C 0.67808 0.67808 0.41614
C22_11 C 0.63872 0.63872 0.38501
O5_8 O 0.82922 0.78684 0.37562
C23_11 C 0.77905 0.73420 0.37963
C24_11 C 0.75323 0.70837 0.38204
C25_11 C 0.51580 0.47095 0.37963
C26_11 C 0.54163 0.49677 0.38204
O7_8 O 0.78684 0.87562 0.32922
C27_12 C 0.73420 0.87963 0.27905
C28_12 C 0.70837 0.88204 0.25323
C29_12 C 0.79701 0.87623 0.29701
C30_12 C 0.76974 0.87830 0.26974
C31_11 C 0.71785 0.88335 0.21785
C32_11 C 0.69081 0.88419 0.19081
C33_11 C 0.63872 0.88501 0.13872
C34_11 C 0.67758 0.85273 0.17758
C35_11 C 0.65217 0.91654 0.15217
C36_11 C 0.67808 0.91614 0.17808
C37_11 C 0.65175 0.85315 0.15175
C38_12 C 0.47095 0.87963 0.01580
C39_12 C 0.49677 0.88204 0.04163
C42_11 C 0.53215 0.88335 0.03215
C43_11 C 0.55919 0.88419 0.05919
C44_11 C 0.57242 0.85273 0.07242
C45_11 C 0.59825 0.85315 0.09825
C46_11 C 0.59783 0.91654 0.09783
C47_11 C 0.57192 0.91614 0.07192
C48_11 C 0.61128 0.88501 0.11128
C51_11 C 0.77905 0.87963 0.23420
C52_11 C 0.75323 0.88204 0.20837
C53_12 C 0.37037 0.77905 0.01580
C54_12 C 0.36796 0.75323 0.04163
C57_11 C 0.36665 0.71785 0.03215
C58_11 C 0.36581 0.69081 0.05919
C59_11 C 0.36499 0.63872 0.11128
C60_11 C 0.39727 0.67758 0.07242
C61_11 C 0.33346 0.65217 0.09783
C62_11 C 0.33386 0.67808 0.07192
C63_11 C 0.39685 0.65175 0.09825
O13_12 O 0.37438 0.46316 0.32922
C64_12 C 0.37037 0.51580 0.27905
C65_12 C 0.36796 0.54163 0.25323
C66_12 C 0.37377 0.45299 0.29701
C67_12 C 0.37170 0.48026 0.26974
C68_11 C 0.36665 0.53215 0.21785
C69_11 C 0.36581 0.55919 0.19081
C70_11 C 0.39727 0.57242 0.17758
C71_11 C 0.39685 0.59825 0.15175
C72_11 C 0.33346 0.59783 0.15217
C73_11 C 0.33386 0.57192 0.17808
C74_11 C 0.36499 0.61128 0.13872
O14_8 O 0.37438 0.42078 0.28684
C75_11 C 0.37037 0.47095 0.23420
C76_11 C 0.36796 0.49677 0.20837
O17_8 O 0.78684 0.87438 0.42078
O21_12 O 0.32922 0.46316 0.37438
O23_8 O 0.84323 0.84323 0.40677
H1_12 H 0.489349 0.569169 0.3829
H2_12 H 0.44343 0.523293 0.378778
H3_11 H 0.80657 0.726707 0.378778
H4_11 H 0.523293 0.44343 0.378778
H5_11 H 0.641568 0.641568 0.328516
H6_11 H 0.642346 0.642346 0.441464
H7_11 H 0.569169 0.489349 0.3829
H8_11 H 0.608432 0.608432 0.328516
H9_11 H 0.760651 0.680831 0.3829
H10_12 H 0.726707 0.80657 0.378778
H11_12 H 0.726707 0.878778 0.30657
H12_12 H 0.680831 0.8829 0.260651
H13_11 H 0.561645 0.561645 0.440697
H14_12 H 0.680831 0.760651 0.3829
H15_11 H 0.687454 0.687454 0.327846
H16_11 H 0.562546 0.562546 0.327846
H17_11 H 0.607654 0.607654 0.441464
H18_11 H 0.688355 0.688355 0.440697
H19_11 H 0.760651 0.8829 0.180831
H20_12 H 0.3671 0.760651 0.0691689
H21_12 H 0.44343 0.878778 0.0232927
H22_11 H 0.561645 0.940697 0.0616454
H23_12 H 0.371222 0.80657 0.0232927
H24_11 H 0.642346 0.941464 0.142346
H25_11 H 0.608432 0.828516 0.108432
H26_12 H 0.489349 0.8829 0.0691689
H27_11 H 0.562546 0.827846 0.0625458
H28_11 H 0.607654 0.941464 0.107654
H30_11 H 0.687454 0.827846 0.187454
H31_11 H 0.80657 0.878778 0.226707
H32_11 H 0.641568 0.828516 0.141568
H33_11 H 0.688355 0.940697 0.188355
H35_11 H 0.3671 0.489349 0.180831
H36_12 H 0.371222 0.523293 0.30657
H37_12 H 0.3671 0.569169 0.260651
H39_11 H 0.308536 0.642346 0.107654
H40_11 H 0.309303 0.688355 0.0616454
H41_11 H 0.309303 0.561645 0.188355
H42_11 H 0.421484 0.641568 0.108432
H43_11 H 0.422154 0.562546 0.187454
H45_11 H 0.421484 0.608432 0.141568
H46_11 H 0.308536 0.607654 0.142346
H47_11 H 0.422154 0.687454 0.0625458
H48_11 H 0.371222 0.44343 0.226707
O9_12 O 0.42078 0.87562 0.96316
C40_12 C 0.45299 0.87623 0.95299
C41_12 C 0.48026 0.87830 0.98026
O10_12 O 0.46316 0.87562 0.92078
C49_11 C 0.51580 0.87963 0.97095
C50_11 C 0.54163 0.88204 0.99677
O12_12 O 0.37438 0.82922 0.96316
C55_12 C 0.37377 0.79701 0.95299
C56_12 C 0.37170 0.76974 0.98026
C77_11 C 0.37037 0.73420 0.97095
C78_11 C 0.36796 0.70837 0.99677
O19_8 O 0.37562 0.92078 0.96316
O24_8 O 0.40677 0.90677 0.90677
H29_11 H 0.569169 0.8829 0.989349
H34_11 H 0.523293 0.878778 0.94343
H38_11 H 0.3671 0.680831 0.989349
H44_11 H 0.371222 0.726707 0.94343
C53_13 C 0.87963 0.77905 0.23420
C54_13 C 0.88204 0.75323 0.20837
C55_13 C 0.87623 0.79701 0.29701
C56_13 C 0.87830 0.76974 0.26974
C57_12 C 0.88335 0.71785 0.21785
C58_12 C 0.88419 0.69081 0.19081
C59_12 C 0.88501 0.63872 0.13872
C60_12 C 0.85273 0.67758 0.17758
C61_12 C 0.91654 0.65217 0.15217
C62_12 C 0.91614 0.67808 0.17808
C63_12 C 0.85315 0.65175 0.15175
C68_12 C 0.88335 0.53215 0.03215
C69_12 C 0.88419 0.55919 0.05919
C70_12 C 0.85273 0.57242 0.07242
C71_12 C 0.85315 0.59825 0.09825
C72_12 C 0.91654 0.59783 0.09783
C73_12 C 0.91614 0.57192 0.07192
C74_12 C 0.88501 0.61128 0.11128
C75_12 C 0.87963 0.47095 0.01580
C76_12 C 0.88204 0.49677 0.04163
O15_7 O 0.87562 0.78684 0.32922
C77_12 C 0.87963 0.73420 0.27905
C78_12 C 0.88204 0.70837 0.25323
H20_13 H 0.8829 0.760651 0.180831
H23_13 H 0.878778 0.80657 0.226707
H35_12 H 0.8829 0.489349 0.0691689
H38_12 H 0.8829 0.680831 0.260651
H39_12 H 0.941464 0.642346 0.142346
H40_12 H 0.940697 0.688355 0.188355
H41_12 H 0.940697 0.561645 0.0616454
H42_12 H 0.828516 0.641568 0.141568
H43_12 H 0.827846 0.562546 0.0625458
H44_12 H 0.878778 0.726707 0.30657
H45_12 H 0.828516 0.608432 0.108432
H46_12 H 0.941464 0.607654 0.107654
H47_12 H 0.827846 0.687454 0.187454
H48_12 H 0.878778 0.44343 0.0232927
O1_9 O 0.82922 0.46316 0.87438
C1_13 C 0.77905 0.51580 0.87037
C2_13 C 0.75323 0.54163 0.86796
O3_5 O 0.84298 0.40702 0.90702
C3_13 C 0.79701 0.45299 0.87377
C4_13 C 0.76974 0.48026 0.87170
C5_12 C 0.71785 0.53215 0.86665
C6_12 C 0.69081 0.55919 0.86581
C7_12 C 0.63872 0.61128 0.86499
C8_12 C 0.67758 0.57242 0.89727
C9_12 C 0.65217 0.59783 0.83346
C10_12 C 0.67808 0.57192 0.83386
C11_12 C 0.65175 0.59825 0.89685
O4_13 O 0.46316 0.82922 0.87438
C12_13 C 0.51580 0.77905 0.87037
C13_13 C 0.54163 0.75323 0.86796
C14_13 C 0.45299 0.79701 0.87377
C15_13 C 0.48026 0.76974 0.87170
C16_12 C 0.53215 0.71785 0.86665
C17_12 C 0.55919 0.69081 0.86581
C18_12 C 0.57242 0.67758 0.89727
C19_12 C 0.59825 0.65175 0.89685
C20_12 C 0.59783 0.65217 0.83346
C21_12 C 0.57192 0.67808 0.83386
C22_12 C 0.61128 0.63872 0.86499
C23_12 C 0.47095 0.73420 0.87037
C24_12 C 0.49677 0.70837 0.86796
O6_7 O 0.78684 0.42078 0.87438
C25_12 C 0.73420 0.47095 0.87037
C26_12 C 0.70837 0.49677 0.86796
O13_13 O 0.87562 0.46316 0.92078
C64_13 C 0.87963 0.51580 0.97095
C65_13 C 0.88204 0.54163 0.99677
C66_13 C 0.87623 0.45299 0.95299
C67_13 C 0.87830 0.48026 0.98026
O14_9 O 0.87562 0.42078 0.96316
O17_9 O 0.46316 0.87438 0.82922
O20_7 O 0.87438 0.46316 0.82922
O22_7 O 0.46316 0.92078 0.87562
O27_5 O 0.40702 0.90702 0.84298
H1_13 H 0.760651 0.569169 0.8671
H2_13 H 0.80657 0.523293 0.871222
H3_12 H 0.44343 0.726707 0.871222
H4_12 H 0.726707 0.44343 0.871222
H5_12 H 0.608432 0.641568 0.921484
H6_12 H 0.607654 0.642346 0.808536
H7_12 H 0.680831 0.489349 0.8671
H8_12 H 0.641568 0.608432 0.921484
H9_12 H 0.489349 0.680831 0.8671
H10_13 H 0.523293 0.80657 0.871222
H13_12 H 0.688355 0.561645 0.809303
H14_13 H 0.569169 0.760651 0.8671
H15_12 H 0.562546 0.687454 0.922154
H16_12 H 0.687454 0.562546 0.922154
H17_12 H 0.642346 0.607654 0.808536
H18_12 H 0.561645 0.688355 0.809303
H36_13 H 0.878778 0.523293 0.94343
H37_13 H 0.8829 0.569169 0.989349
C5_13 C 0.03215 0.71785 0.36665
C6_13 C 0.05919 0.69081 0.36581
C7_13 C 0.11128 0.63872 0.36499
C8_13 C 0.07242 0.67758 0.39727
C9_13 C 0.09783 0.65217 0.33346
C10_13 C 0.07192 0.67808 0.33386
C11_13 C 0.09825 0.65175 0.39685
O4_14 O 0.28684 0.42078 0.37438
C12_14 C 0.23420 0.47095 0.37037
C13_14 C 0.20837 0.49677 0.36796
C14_14 C 0.29701 0.45299 0.37377
C15_14 C 0.26974 0.48026 0.37170
C16_13 C 0.21785 0.53215 0.36665
C17_13 C 0.19081 0.55919 0.36581
C18_13 C 0.17758 0.57242 0.39727
C19_13 C 0.15175 0.59825 0.39685
C20_13 C 0.15217 0.59783 0.33346
C21_13 C 0.17808 0.57192 0.33386
C22_13 C 0.13872 0.61128 0.36499
C23_13 C 0.27905 0.51580 0.37037
C24_13 C 0.25323 0.54163 0.36796
C25_13 C 0.01580 0.77905 0.37037
C26_13 C 0.04163 0.75323 0.36796
O17_10 O 0.28684 0.37562 0.32922
O22_8 O 0.28684 0.32922 0.37562
O27_6 O 0.34298 0.34298 0.34298
H3_13 H 0.30657 0.523293 0.371222
H4_13 H 0.0232927 0.80657 0.371222
H5_13 H 0.141568 0.608432 0.421484
H6_13 H 0.142346 0.607654 0.308536
H7_13 H 0.0691689 0.760651 0.3671
H8_13 H 0.108432 0.641568 0.421484
H9_13 H 0.260651 0.569169 0.3671
H10_14 H 0.226707 0.44343 0.371222
H13_13 H 0.0616454 0.688355 0.309303
H14_14 H 0.180831 0.489349 0.3671
H15_13 H 0.187454 0.562546 0.422154
H16_13 H 0.0625458 0.687454 0.422154
H17_13 H 0.107654 0.642346 0.308536
H18_13 H 0.188355 0.561645 0.309303
O1_10 O 0.92078 0.78684 0.37438
C1_14 C 0.97095 0.73420 0.37037
C2_14 C 0.99677 0.70837 0.36796
O3_6 O 0.90702 0.84298 0.40702
C3_14 C 0.95299 0.79701 0.37377
C4_14 C 0.98026 0.76974 0.37170
O6_8 O 0.96316 0.82922 0.37438
C53_14 C 0.87037 0.47095 0.73420
C54_14 C 0.86796 0.49677 0.70837
C55_14 C 0.87377 0.45299 0.79701
C56_14 C 0.87170 0.48026 0.76974
C57_13 C 0.86665 0.53215 0.71785
C58_13 C 0.86581 0.55919 0.69081
C59_13 C 0.86499 0.61128 0.63872
C60_13 C 0.89727 0.57242 0.67758
C61_13 C 0.83346 0.59783 0.65217
C62_13 C 0.83386 0.57192 0.67808
C63_13 C 0.89685 0.59825 0.65175
O13_14 O 0.87438 0.78684 0.42078
C64_14 C 0.87037 0.73420 0.47095
C65_14 C 0.86796 0.70837 0.49677
C66_14 C 0.87377 0.79701 0.45299
C67_14 C 0.87170 0.76974 0.48026
C68_13 C 0.86665 0.71785 0.53215
C69_13 C 0.86581 0.69081 0.55919
C70_13 C 0.89727 0.67758 0.57242
C71_13 C 0.89685 0.65175 0.59825
C72_13 C 0.83346 0.65217 0.59783
C73_13 C 0.83386 0.67808 0.57192
C74_13 C 0.86499 0.63872 0.61128
O14_10 O 0.87438 0.82922 0.46316
C75_13 C 0.87037 0.77905 0.51580
C76_13 C 0.86796 0.75323 0.54163
C77_13 C 0.87037 0.51580 0.77905
C78_13 C 0.86796 0.54163 0.75323
H1_14 H 0.989349 0.680831 0.3671
H2_14 H 0.94343 0.726707 0.371222
H20_14 H 0.8671 0.489349 0.680831
H23_14 H 0.871222 0.44343 0.726707
H35_13 H 0.8671 0.760651 0.569169
H36_14 H 0.871222 0.726707 0.44343
H37_14 H 0.8671 0.680831 0.489349
H38_13 H 0.8671 0.569169 0.760651
H39_13 H 0.808536 0.607654 0.642346
H40_13 H 0.809303 0.561645 0.688355
H41_13 H 0.809303 0.688355 0.561645
H42_13 H 0.921484 0.608432 0.641568
H43_13 H 0.922154 0.687454 0.562546
H44_13 H 0.871222 0.523293 0.80657
H45_13 H 0.921484 0.641568 0.608432
H46_13 H 0.808536 0.642346 0.607654
H47_13 H 0.922154 0.562546 0.687454
H48_13 H 0.871222 0.80657 0.523293
O1_11 O 0.32922 0.28684 0.37562
C1_15 C 0.27905 0.23420 0.37963
C2_15 C 0.25323 0.20837 0.38204
C3_15 C 0.29701 0.29701 0.37623
C4_15 C 0.26974 0.26974 0.37830
C5_14 C 0.21785 0.21785 0.38335
C6_14 C 0.19081 0.19081 0.38419
C7_14 C 0.13872 0.13872 0.38501
C8_14 C 0.17758 0.17758 0.35273
C9_14 C 0.15217 0.15217 0.41654
C10_14 C 0.17808 0.17808 0.41614
C11_14 C 0.15175 0.15175 0.35315
C16_14 C 0.03215 0.03215 0.38335
C17_14 C 0.05919 0.05919 0.38419
C18_14 C 0.07242 0.07242 0.35273
C19_14 C 0.09825 0.09825 0.35315
C20_14 C 0.09783 0.09783 0.41654
C21_14 C 0.07192 0.07192 0.41614
C22_14 C 0.11128 0.11128 0.38501
C25_14 C 0.23420 0.27905 0.37963
C26_14 C 0.20837 0.25323 0.38204
C57_14 C 0.38335 0.03215 0.03215
C58_14 C 0.38419 0.05919 0.05919
C59_14 C 0.38501 0.11128 0.11128
C60_14 C 0.35273 0.07242 0.07242
C61_14 C 0.41654 0.09783 0.09783
C62_14 C 0.41614 0.07192 0.07192
C63_14 C 0.35315 0.09825 0.09825
O13_15 O 0.37562 0.28684 0.32922
C64_15 C 0.37963 0.23420 0.27905
C65_15 C 0.38204 0.20837 0.25323
C66_15 C 0.37623 0.29701 0.29701
C67_15 C 0.37830 0.26974 0.26974
C68_14 C 0.38335 0.21785 0.21785
C69_14 C 0.38419 0.19081 0.19081
C70_14 C 0.35273 0.17758 0.17758
C71_14 C 0.35315 0.15175 0.15175
C72_14 C 0.41654 0.15217 0.15217
C73_14 C 0.41614 0.17808 0.17808
C74_14 C 0.38501 0.13872 0.13872
O14_11 O 0.37562 0.32922 0.28684
C75_14 C 0.37963 0.27905 0.23420
C76_14 C 0.38204 0.25323 0.20837
O20_8 O 0.37438 0.28684 0.42078
H1_15 H 0.260651 0.180831 0.3829
H2_15 H 0.30657 0.226707 0.378778
H4_14 H 0.226707 0.30657 0.378778
H5_14 H 0.108432 0.108432 0.328516
H6_14 H 0.107654 0.107654 0.441464
H7_14 H 0.180831 0.260651 0.3829
H8_14 H 0.141568 0.141568 0.328516
H13_14 H 0.188355 0.188355 0.440697
H15_14 H 0.0625458 0.0625458 0.327846
H16_14 H 0.187454 0.187454 0.327846
H17_14 H 0.142346 0.142346 0.441464
H18_14 H 0.0616454 0.0616454 0.440697
H35_14 H 0.3829 0.260651 0.180831
H36_15 H 0.378778 0.226707 0.30657
H37_15 H 0.3829 0.180831 0.260651
H39_14 H 0.441464 0.107654 0.107654
H40_14 H 0.440697 0.0616454 0.0616454
H41_14 H 0.440697 0.188355 0.188355
H42_14 H 0.328516 0.108432 0.108432
H43_14 H 0.327846 0.187454 0.187454
H45_14 H 0.328516 0.141568 0.141568
H46_14 H 0.441464 0.142346 0.142346
H47_14 H 0.327846 0.0625458 0.0625458
H48_14 H 0.378778 0.30657 0.226707
C55_15 C 0.37623 0.95299 0.95299
C56_15 C 0.37830 0.98026 0.98026
O15_8 O 0.37562 0.96316 0.92078
O4_15 O 0.96316 0.92078 0.37562
C14_15 C 0.95299 0.95299 0.37623
C15_15 C 0.98026 0.98026 0.37830
O17_11 O 0.96316 0.87562 0.42078
C1_16 C 0.47095 0.01580 0.87963
C2_16 C 0.49677 0.04163 0.88204
C5_15 C 0.53215 0.03215 0.88335
C6_15 C 0.55919 0.05919 0.88419
C7_15 C 0.61128 0.11128 0.88501
C8_15 C 0.57242 0.07242 0.85273
C9_15 C 0.59783 0.09783 0.91654
C10_15 C 0.57192 0.07192 0.91614
C11_15 C 0.59825 0.09825 0.85315
O4_16 O 0.78684 0.32922 0.87562
C12_15 C 0.73420 0.27905 0.87963
C13_15 C 0.70837 0.25323 0.88204
C14_16 C 0.79701 0.29701 0.87623
C15_16 C 0.76974 0.26974 0.87830
C16_15 C 0.71785 0.21785 0.88335
C17_15 C 0.69081 0.19081 0.88419
C18_15 C 0.67758 0.17758 0.85273
C19_15 C 0.65175 0.15175 0.85315
C20_15 C 0.65217 0.15217 0.91654
C21_15 C 0.67808 0.17808 0.91614
C22_15 C 0.63872 0.13872 0.88501
C23_14 C 0.77905 0.23420 0.87963
C24_14 C 0.75323 0.20837 0.88204
C53_15 C 0.37037 0.27905 0.51580
C54_15 C 0.36796 0.25323 0.54163
C55_16 C 0.37377 0.29701 0.45299
C56_16 C 0.37170 0.26974 0.48026
C57_15 C 0.36665 0.21785 0.53215
C58_15 C 0.36581 0.19081 0.55919
C59_15 C 0.36499 0.13872 0.61128
C60_15 C 0.39727 0.17758 0.57242
C61_15 C 0.33346 0.15217 0.59783
C62_15 C 0.33386 0.17808 0.57192
C63_15 C 0.39685 0.15175 0.59825
C64_16 C 0.37037 0.01580 0.77905
C65_16 C 0.36796 0.04163 0.75323
C68_15 C 0.36665 0.03215 0.71785
C69_15 C 0.36581 0.05919 0.69081
C70_15 C 0.39727 0.07242 0.67758
C71_15 C 0.39685 0.09825 0.65175
C72_15 C 0.33346 0.09783 0.65217
C73_15 C 0.33386 0.07192 0.67808
C74_15 C 0.36499 0.11128 0.63872
C77_14 C 0.37037 0.23420 0.47095
C78_14 C 0.36796 0.20837 0.49677
O17_12 O 0.78684 0.37438 0.92078
H1_16 H 0.489349 0.0691689 0.8829
H2_16 H 0.44343 0.0232927 0.878778
H3_14 H 0.80657 0.226707 0.878778
H5_15 H 0.641568 0.141568 0.828516
H6_15 H 0.642346 0.142346 0.941464
H8_15 H 0.608432 0.108432 0.828516
H9_14 H 0.760651 0.180831 0.8829
H10_15 H 0.726707 0.30657 0.878778
H13_15 H 0.561645 0.0616454 0.940697
H14_15 H 0.680831 0.260651 0.8829
H15_15 H 0.687454 0.187454 0.827846
H16_15 H 0.562546 0.0625458 0.827846
H17_15 H 0.607654 0.107654 0.941464
H18_15 H 0.688355 0.188355 0.940697
H20_15 H 0.3671 0.260651 0.569169
H23_15 H 0.371222 0.30657 0.523293
H36_16 H 0.371222 0.0232927 0.80657
H37_16 H 0.3671 0.0691689 0.760651
H38_14 H 0.3671 0.180831 0.489349
H39_15 H 0.308536 0.142346 0.607654
H40_15 H 0.309303 0.188355 0.561645
H41_15 H 0.309303 0.0616454 0.688355
H42_15 H 0.421484 0.141568 0.608432
H43_15 H 0.422154 0.0625458 0.687454
H44_14 H 0.371222 0.226707 0.44343
H45_15 H 0.421484 0.108432 0.641568
H46_15 H 0.308536 0.107654 0.642346
H47_15 H 0.422154 0.187454 0.562546
O1_12 O 0.42078 0.96316 0.87562
C3_16 C 0.45299 0.95299 0.87623
C4_16 C 0.48026 0.98026 0.87830
C25_15 C 0.51580 0.97095 0.87963
C26_15 C 0.54163 0.99677 0.88204
O13_16 O 0.37438 0.96316 0.82922
C66_16 C 0.37377 0.95299 0.79701
C67_16 C 0.37170 0.98026 0.76974
O14_12 O 0.37438 0.92078 0.78684
C75_15 C 0.37037 0.97095 0.73420
C76_15 C 0.36796 0.99677 0.70837
H4_15 H 0.523293 0.94343 0.878778
H7_15 H 0.569169 0.989349 0.8829
H35_15 H 0.3671 0.989349 0.680831
H48_15 H 0.371222 0.94343 0.726707
C31_12 C 0.03215 0.38335 0.03215
C32_12 C 0.05919 0.38419 0.05919
C33_12 C 0.11128 0.38501 0.11128
C34_12 C 0.07242 0.35273 0.07242
C35_12 C 0.09783 0.41654 0.09783
C36_12 C 0.07192 0.41614 0.07192
C37_12 C 0.09825 0.35315 0.09825
O9_13 O 0.32922 0.37562 0.28684
C38_13 C 0.27905 0.37963 0.23420
C39_13 C 0.25323 0.38204 0.20837
C40_13 C 0.29701 0.37623 0.29701
C41_13 C 0.26974 0.37830 0.26974
C42_12 C 0.21785 0.38335 0.21785
C43_12 C 0.19081 0.38419 0.19081
C44_12 C 0.17758 0.35273 0.17758
C45_12 C 0.15175 0.35315 0.15175
C46_12 C 0.15217 0.41654 0.15217
C47_12 C 0.17808 0.41614 0.17808
C48_12 C 0.13872 0.38501 0.13872
C49_12 C 0.23420 0.37963 0.27905
C50_12 C 0.20837 0.38204 0.25323
O18_7 O 0.42078 0.37438 0.28684
H21_13 H 0.30657 0.378778 0.226707
H22_12 H 0.188355 0.440697 0.188355
H24_12 H 0.107654 0.441464 0.107654
H25_12 H 0.141568 0.328516 0.141568
H26_13 H 0.260651 0.3829 0.180831
H27_12 H 0.187454 0.327846 0.187454
H28_12 H 0.142346 0.441464 0.142346
H29_12 H 0.180831 0.3829 0.260651
H30_12 H 0.0625458 0.327846 0.0625458
H32_12 H 0.108432 0.328516 0.108432
H33_12 H 0.0616454 0.440697 0.0616454
H34_12 H 0.226707 0.378778 0.30657
C29_13 C 0.95299 0.37623 0.95299
C30_13 C 0.98026 0.37830 0.98026
O11_7 O 0.92078 0.37562 0.96316
C27_13 C 0.73420 0.87037 0.47095
C28_13 C 0.70837 0.86796 0.49677
C29_14 C 0.79701 0.87377 0.45299
C30_14 C 0.76974 0.87170 0.48026
C31_13 C 0.71785 0.86665 0.53215
C32_13 C 0.69081 0.86581 0.55919
C33_13 C 0.63872 0.86499 0.61128
C34_13 C 0.67758 0.89727 0.57242
C35_13 C 0.65217 0.83346 0.59783
C36_13 C 0.67808 0.83386 0.57192
C37_13 C 0.65175 0.89685 0.59825
O9_14 O 0.42078 0.87438 0.78684
C38_14 C 0.47095 0.87037 0.73420
C39_14 C 0.49677 0.86796 0.70837
C40_14 C 0.45299 0.87377 0.79701
C41_14 C 0.48026 0.87170 0.76974
C42_13 C 0.53215 0.86665 0.71785
C43_13 C 0.55919 0.86581 0.69081
C44_13 C 0.57242 0.89727 0.67758
C45_13 C 0.59825 0.89685 0.65175
C46_13 C 0.59783 0.83346 0.65217
C47_13 C 0.57192 0.83386 0.67808
C48_13 C 0.61128 0.86499 0.63872
C49_13 C 0.51580 0.87037 0.77905
C50_13 C 0.54163 0.86796 0.75323
O11_8 O 0.82922 0.87438 0.46316
C51_12 C 0.77905 0.87037 0.51580
C52_12 C 0.75323 0.86796 0.54163
O18_8 O 0.32922 0.87562 0.78684
H11_13 H 0.726707 0.871222 0.44343
H12_13 H 0.680831 0.8671 0.489349
H19_12 H 0.760651 0.8671 0.569169
H21_14 H 0.44343 0.871222 0.726707
H22_13 H 0.561645 0.809303 0.688355
H24_13 H 0.642346 0.808536 0.607654
H25_13 H 0.608432 0.921484 0.641568
H26_14 H 0.489349 0.8671 0.680831
H27_13 H 0.562546 0.922154 0.687454
H28_13 H 0.607654 0.808536 0.642346
H29_13 H 0.569169 0.8671 0.760651
H30_13 H 0.687454 0.922154 0.562546
H31_12 H 0.80657 0.871222 0.523293
H32_13 H 0.641568 0.921484 0.608432
H33_13 H 0.688355 0.809303 0.561645
H34_13 H 0.523293 0.871222 0.80657
C27_14 C 0.51580 0.37037 0.27905
C28_14 C 0.54163 0.36796 0.25323
C29_15 C 0.45299 0.37377 0.29701
C30_15 C 0.48026 0.37170 0.26974
C31_14 C 0.53215 0.36665 0.21785
C32_14 C 0.55919 0.36581 0.19081
C33_14 C 0.61128 0.36499 0.13872
C34_14 C 0.57242 0.39727 0.17758
C35_14 C 0.59783 0.33346 0.15217
C36_14 C 0.57192 0.33386 0.17808
C37_14 C 0.59825 0.39685 0.15175
C38_15 C 0.77905 0.37037 0.01580
C39_15 C 0.75323 0.36796 0.04163
C42_14 C 0.71785 0.36665 0.03215
C43_14 C 0.69081 0.36581 0.05919
C44_14 C 0.67758 0.39727 0.07242
C45_14 C 0.65175 0.39685 0.09825
C46_14 C 0.65217 0.33346 0.09783
C47_14 C 0.67808 0.33386 0.07192
C48_14 C 0.63872 0.36499 0.11128
C51_13 C 0.47095 0.37037 0.23420
C52_13 C 0.49677 0.36796 0.20837
H11_14 H 0.523293 0.371222 0.30657
H12_14 H 0.569169 0.3671 0.260651
H19_13 H 0.489349 0.3671 0.180831
H21_15 H 0.80657 0.371222 0.0232927
H22_14 H 0.688355 0.309303 0.0616454
H24_14 H 0.607654 0.308536 0.142346
H25_14 H 0.641568 0.421484 0.108432
H26_15 H 0.760651 0.3671 0.0691689
H27_14 H 0.687454 0.422154 0.0625458
H28_14 H 0.642346 0.308536 0.107654
H30_14 H 0.562546 0.422154 0.187454
H31_13 H 0.44343 0.371222 0.226707
H32_14 H 0.608432 0.421484 0.141568
H33_14 H 0.561645 0.309303 0.188355
O9_15 O 0.82922 0.37438 0.96316
C40_15 C 0.79701 0.37377 0.95299
C41_15 C 0.76974 0.37170 0.98026
C49_14 C 0.73420 0.37037 0.97095
C50_14 C 0.70837 0.36796 0.99677
H29_14 H 0.680831 0.3671 0.989349
H34_14 H 0.726707 0.371222 0.94343
C27_15 C 0.23420 0.87963 0.77905
C28_15 C 0.20837 0.88204 0.75323
C29_16 C 0.29701 0.87623 0.79701
C30_16 C 0.26974 0.87830 0.76974
C31_15 C 0.21785 0.88335 0.71785
C32_15 C 0.19081 0.88419 0.69081
C33_15 C 0.13872 0.88501 0.63872
C34_15 C 0.17758 0.85273 0.67758
C35_15 C 0.15217 0.91654 0.65217
C36_15 C 0.17808 0.91614 0.67808
C37_15 C 0.15175 0.85315 0.65175
C42_15 C 0.03215 0.88335 0.53215
C43_15 C 0.05919 0.88419 0.55919
C44_15 C 0.07242 0.85273 0.57242
C45_15 C 0.09825 0.85315 0.59825
C46_15 C 0.09783 0.91654 0.59783
C47_15 C 0.07192 0.91614 0.57192
C48_15 C 0.11128 0.88501 0.61128
C49_15 C 0.01580 0.87963 0.47095
C50_15 C 0.04163 0.88204 0.49677
C51_14 C 0.27905 0.87963 0.73420
C52_14 C 0.25323 0.88204 0.70837
H11_15 H 0.226707 0.878778 0.80657
H12_15 H 0.180831 0.8829 0.760651
H19_14 H 0.260651 0.8829 0.680831
H22_15 H 0.0616454 0.940697 0.561645
H24_15 H 0.142346 0.941464 0.642346
H25_15 H 0.108432 0.828516 0.608432
H27_15 H 0.0625458 0.827846 0.562546
H28_15 H 0.107654 0.941464 0.607654
H29_15 H 0.0691689 0.8829 0.489349
H30_15 H 0.187454 0.827846 0.687454
H31_14 H 0.30657 0.878778 0.726707
H32_15 H 0.141568 0.828516 0.641568
H33_15 H 0.188355 0.940697 0.688355
H34_15 H 0.0232927 0.878778 0.44343
O9_16 O 0.92078 0.87562 0.46316
C38_16 C 0.97095 0.87963 0.51580
C39_16 C 0.99677 0.88204 0.54163
C40_16 C 0.95299 0.87623 0.45299
C41_16 C 0.98026 0.87830 0.48026
H21_16 H 0.94343 0.878778 0.523293
H26_16 H 0.989349 0.8829 0.569169
C5_16 C 0.03215 0.21785 0.86665
C6_16 C 0.05919 0.19081 0.86581
C7_16 C 0.11128 0.13872 0.86499
C8_16 C 0.07242 0.17758 0.89727
C9_16 C 0.09783 0.15217 0.83346
C10_16 C 0.07192 0.17808 0.83386
C11_16 C 0.09825 0.15175 0.89685
C16_16 C 0.21785 0.03215 0.86665
C17_16 C 0.19081 0.05919 0.86581
C18_16 C 0.17758 0.07242 0.89727
C19_16 C 0.15175 0.09825 0.89685
C20_16 C 0.15217 0.09783 0.83346
C21_16 C 0.17808 0.07192 0.83386
C22_16 C 0.13872 0.11128 0.86499
C23_15 C 0.27905 0.01580 0.87037
C24_15 C 0.25323 0.04163 0.86796
C25_16 C 0.01580 0.27905 0.87037
C26_16 C 0.04163 0.25323 0.86796
H3_15 H 0.30657 0.0232927 0.871222
H4_16 H 0.0232927 0.30657 0.871222
H5_16 H 0.141568 0.108432 0.921484
H6_16 H 0.142346 0.107654 0.808536
H7_16 H 0.0691689 0.260651 0.8671
H8_16 H 0.108432 0.141568 0.921484
H9_15 H 0.260651 0.0691689 0.8671
H13_16 H 0.0616454 0.188355 0.809303
H15_16 H 0.187454 0.0625458 0.922154
H16_16 H 0.0625458 0.187454 0.922154
H17_16 H 0.107654 0.142346 0.808536
H18_16 H 0.188355 0.0616454 0.809303
C77_15 C 0.37963 0.01580 0.97095
C78_15 C 0.38204 0.04163 0.99677
H38_15 H 0.3829 0.0691689 0.989349
H44_15 H 0.378778 0.0232927 0.94343
C27_16 C 0.01580 0.37963 0.97095
C28_16 C 0.04163 0.38204 0.99677
H11_16 H 0.0232927 0.378778 0.94343
H12_16 H 0.0691689 0.3829 0.989349
C31_16 C 0.21785 0.86665 0.03215
C32_16 C 0.19081 0.86581 0.05919
C33_16 C 0.13872 0.86499 0.11128
C34_16 C 0.17758 0.89727 0.07242
C35_16 C 0.15217 0.83346 0.09783
C36_16 C 0.17808 0.83386 0.07192
C37_16 C 0.15175 0.89685 0.09825
C42_16 C 0.03215 0.86665 0.21785
C43_16 C 0.05919 0.86581 0.19081
C44_16 C 0.07242 0.89727 0.17758
C45_16 C 0.09825 0.89685 0.15175
C46_16 C 0.09783 0.83346 0.15217
C47_16 C 0.07192 0.83386 0.17808
C48_16 C 0.11128 0.86499 0.13872
C49_16 C 0.01580 0.87037 0.27905
C50_16 C 0.04163 0.86796 0.25323
C51_15 C 0.27905 0.87037 0.01580
C52_15 C 0.25323 0.86796 0.04163
H19_15 H 0.260651 0.8671 0.0691689
H22_16 H 0.0616454 0.809303 0.188355
H24_16 H 0.142346 0.808536 0.107654
H25_16 H 0.108432 0.921484 0.141568
H27_16 H 0.0625458 0.922154 0.187454
H28_16 H 0.107654 0.808536 0.142346
H29_16 H 0.0691689 0.8671 0.260651
H30_16 H 0.187454 0.922154 0.0625458
H31_15 H 0.30657 0.871222 0.0232927
H32_16 H 0.141568 0.921484 0.108432
H33_16 H 0.188355 0.809303 0.0616454
H34_16 H 0.0232927 0.871222 0.30657
C12_16 C 0.01580 0.97095 0.37963
C13_16 C 0.04163 0.99677 0.38204
C53_16 C 0.37963 0.97095 0.01580
C54_16 C 0.38204 0.99677 0.04163
H10_16 H 0.0232927 0.94343 0.378778
H14_16 H 0.0691689 0.989349 0.3829
H20_16 H 0.3829 0.989349 0.0691689
H23_16 H 0.378778 0.94343 0.0232927
C57_16 C 0.86665 0.03215 0.21785
C58_16 C 0.86581 0.05919 0.19081
C59_16 C 0.86499 0.11128 0.13872
C60_16 C 0.89727 0.07242 0.17758
C61_16 C 0.83346 0.09783 0.15217
C62_16 C 0.83386 0.07192 0.17808
C63_16 C 0.89685 0.09825 0.15175
C68_16 C 0.86665 0.21785 0.03215
C69_16 C 0.86581 0.19081 0.05919
C70_16 C 0.89727 0.17758 0.07242
C71_16 C 0.89685 0.15175 0.09825
C72_16 C 0.83346 0.15217 0.09783
C73_16 C 0.83386 0.17808 0.07192
C74_16 C 0.86499 0.13872 0.11128
C75_16 C 0.87037 0.27905 0.01580
C76_16 C 0.86796 0.25323 0.04163
C77_16 C 0.87037 0.01580 0.27905
C78_16 C 0.86796 0.04163 0.25323
H35_16 H 0.8671 0.260651 0.0691689
H38_16 H 0.8671 0.0691689 0.260651
H39_16 H 0.808536 0.107654 0.142346
H40_16 H 0.809303 0.0616454 0.188355
H41_16 H 0.809303 0.188355 0.0616454
H42_16 H 0.921484 0.108432 0.141568
H43_16 H 0.922154 0.187454 0.0625458
H44_16 H 0.871222 0.0232927 0.30657
H45_16 H 0.921484 0.141568 0.108432
H46_16 H 0.808536 0.142346 0.107654
H47_16 H 0.922154 0.0625458 0.187454
H48_16 H 0.871222 0.30657 0.0232927
C23_16 C 0.97095 0.01580 0.37963
C24_16 C 0.99677 0.04163 0.38204
H3_16 H 0.94343 0.0232927 0.378778
H9_16 H 0.989349 0.0691689 0.3829
C51_16 C 0.97095 0.37963 0.01580
C52_16 C 0.99677 0.38204 0.04163
H19_16 H 0.989349 0.3829 0.0691689
H31_16 H 0.94343 0.378778 0.0232927
loop_
_geom_bond_atom_site_label_1
_geom_bond_atom_site_label_2
_geom_bond_site_symmetry_1
_geom_bond_site_symmetry_2
O9 C40 1_555 1_555
C38 C39 1_555 1_555
C40 C41 1_555 1_555
C41 C38 1_555 1_555
O10 C40 1_555 1_555
O12 Zr3 1_555 1_555
C53 C54 1_555 1_555
Zr3 O9 1_555 1_555
C55 O12 1_555 1_555
C56 C53 1_555 1_555
O15 C55 1_555 1_555
O18 Zr3 1_555 1_555
O19 Zr3 1_555 1_555
Zr4 Zr3 1_555 1_555
Zr7 Zr3 1_555 1_555
Zr10 O10 1_555 1_555
Zr12 Zr3 1_555 1_555
O24 Zr3 1_555 1_555
O26 Zr3 1_555 1_555
O28 Zr3 1_555 1_555
O29 Zr3 1_555 1_555
Zr3 Zr10 1_555 1_555
C55 C56 1_555 1_555
O15 Zr4 1_555 1_555
Zr4 Zr7 1_555 1_555
Zr4 Zr10 1_555 1_555
Zr4 O26 1_555 1_555
Zr4 O29 1_555 1_555
Zr7 Zr12 1_555 1_555
Zr7 O26 1_555 1_555
Zr7 O28 1_555 1_555
Zr10 Zr12 1_555 1_555
Zr10 O24 1_555 1_555
Zr10 O29 1_555 1_555
Zr12 O24 1_555 1_555
Zr12 O28 1_555 1_555
C54 H20 1_555 1_555
C38 H21 1_555 1_555
C53 H23 1_555 1_555
C39 H26 1_555 1_555
O4 C14 1_555 1_555
C12 C13 1_555 1_555
C14 C15 1_555 1_555
C15 C12 1_555 1_555
O5 C14 1_555 1_555
O7 Zr2 1_555 1_555
C27 C28 1_555 1_555
Zr2 O4 1_555 1_555
O8 Zr2 1_555 1_555
C29 O7 1_555 1_555
C30 C27 1_555 1_555
O11 C29 1_555 1_555
O17 Zr2 1_555 1_555
O22 Zr2 1_555 1_555
Zr5 Zr2 1_555 1_555
Zr8 Zr2 1_555 1_555
Zr13 O5 1_555 1_555
Zr14 Zr2 1_555 1_555
O23 Zr2 1_555 1_555
O25 Zr2 1_555 1_555
O27 Zr2 1_555 1_555
Zr2 Zr13 1_555 1_555
O8 Zr8 1_555 1_555
O8 Zr13 1_555 1_555
C29 C30 1_555 1_555
O11 Zr8 1_555 1_555
Zr5 Zr8 1_555 1_555
Zr5 Zr14 1_555 1_555
Zr5 O25 1_555 1_555
Zr5 O27 1_555 1_555
Zr8 Zr13 1_555 1_555
Zr8 O25 1_555 1_555
Zr13 Zr14 1_555 1_555
Zr13 O23 1_555 1_555
Zr14 O23 1_555 1_555
Zr14 O27 1_555 1_555
C12 H10 1_555 1_555
C27 H11 1_555 1_555
C28 H12 1_555 1_555
C13 H14 1_555 1_555
O1 Zr1 1_555 1_555
C1 C2 1_555 1_555
Zr1 O2 1_555 1_555
O2 Zr11 1_555 1_555
O3 Zr1 1_555 1_555
C3 O1 1_555 1_555
C4 C1 1_555 1_555
O6 C3 1_555 1_555
O13 Zr1 1_555 1_555
C64 C65 1_555 1_555
C66 O13 1_555 1_555
C67 C64 1_555 1_555
O14 C66 1_555 1_555
O16 Zr1 1_555 1_555
O20 Zr1 1_555 1_555
O21 Zr1 1_555 1_555
Zr6 Zr1 1_555 1_555
Zr9 Zr1 1_555 1_555
Zr11 Zr1 1_555 1_555
Zr15 Zr1 1_555 1_555
O30 Zr1 1_555 1_555
O2 Zr15 1_555 1_555
O3 Zr6 1_555 1_555
O3 Zr15 1_555 1_555
C3 C4 1_555 1_555
O6 Zr6 1_555 1_555
C66 C67 1_555 1_555
O14 Zr15 1_555 1_555
O16 Zr6 1_555 1_555
O16 Zr9 1_555 1_555
Zr6 Zr9 1_555 1_555
Zr6 Zr15 1_555 1_555
Zr9 Zr11 1_555 1_555
Zr9 O30 1_555 1_555
Zr11 Zr15 1_555 1_555
Zr11 O30 1_555 1_555
C2 H1 1_555 1_555
C1 H2 1_555 1_555
C64 H36 1_555 1_555
C65 H37 1_555 1_555
O1_2 Zr4 1_555 1_555
Zr4 O2_2 1_555 1_555
O2_2 Zr10 1_555 1_555
O3_2 Zr4 1_555 1_555
C3_2 O1_2 1_555 1_555
O6_2 C3_2 1_555 1_555
C25 C4_2 1_555 1_555
O13_2 Zr4 1_555 1_555
C66_2 O13_2 1_555 1_555
O14_2 C66_2 1_555 1_555
C75 C67_2 1_555 1_555
O21_2 Zr4 1_555 1_555
Zr15_2 Zr4 1_555 1_555
O2_2 Zr15_2 1_555 1_555
O3_2 Zr7 1_555 1_555
O3_2 Zr15_2 1_555 1_555
C3_2 C4_2 1_555 1_555
O6_2 Zr7 1_555 1_555
C25 C26 1_555 1_555
C66_2 C67_2 1_555 1_555
O14_2 Zr15_2 1_555 1_555
C75 C76 1_555 1_555
Zr7 Zr15_2 1_555 1_555
Zr10 Zr15_2 1_555 1_555
C25 H4 1_555 1_555
C26 H7 1_555 1_555
C76 H35 1_555 1_555
C75 H48 1_555 1_555
C1_2 C2_2 1_555 1_555
C2_2 C5 1_555 1_555
C5 C6 1_555 1_555
C6 C8 1_555 1_555
C7 C9 1_555 1_555
C8 C11 1_555 1_555
C9 C10 1_555 1_555
C10 C6 1_555 1_555
C11 C7 1_555 1_555
O4_2 C14_2 1_555 1_555
C12_2 C13_2 1_555 1_555
C13_2 C16 1_555 1_555
C14_2 C15_2 1_555 1_555
C15_2 C12_2 1_555 1_555
C16 C17 1_555 1_555
C17 C18 1_555 1_555
C18 C19 1_555 1_555
C19 C22 1_555 1_555
C20 C21 1_555 1_555
C21 C17 1_555 1_555
C22 C7 1_555 1_555
O5_2 C14_2 1_555 1_555
C23 C15_2 1_555 1_555
C24 C16 1_555 1_555
O7_2 Zr2_2 1_555 1_555
C27_2 C28_2 1_555 1_555
C28_2 C31 1_555 1_555
Zr2_2 O4_2 1_555 1_555
O8_2 Zr2_2 1_555 1_555
C29_2 O7_2 1_555 1_555
C30_2 C27_2 1_555 1_555
C31 C32 1_555 1_555
C32 C34 1_555 1_555
C33 C35 1_555 1_555
C34 C37 1_555 1_555
C35 C36 1_555 1_555
C36 C32 1_555 1_555
C37 C33 1_555 1_555
O9_2 C40_2 1_555 1_555
C38_2 C39_2 1_555 1_555
C39_2 C42 1_555 1_555
C40_2 C41_2 1_555 1_555
C41_2 C38_2 1_555 1_555
C42 C43 1_555 1_555
C43 C44 1_555 1_555
C44 C45 1_555 1_555
C45 C48 1_555 1_555
C46 C47 1_555 1_555
C47 C43 1_555 1_555
C48 C33 1_555 1_555
O10_2 C40_2 1_555 1_555
C49 C41_2 1_555 1_555
C50 C42 1_555 1_555
O11_2 C29_2 1_555 1_555
C51 C30_2 1_555 1_555
C52 C31 1_555 1_555
O12_2 Zr9 1_555 1_555
C53_2 C54_2 1_555 1_555
C54_2 C57 1_555 1_555
Zr9 O9_2 1_555 1_555
C55_2 O12_2 1_555 1_555
C56_2 C53_2 1_555 1_555
C57 C58 1_555 1_555
C58 C60 1_555 1_555
C59 C61 1_555 1_555
C60 C63 1_555 1_555
C61 C62 1_555 1_555
C62 C58 1_555 1_555
C63 C59 1_555 1_555
C64_2 C65_2 1_555 1_555
C65_2 C68 1_555 1_555
C68 C69 1_555 1_555
C69 C70 1_555 1_555
C70 C71 1_555 1_555
C71 C74 1_555 1_555
C72 C73 1_555 1_555
C73 C69 1_555 1_555
C74 C59 1_555 1_555
O20 C55_2 1_555 1_555
C77 C56_2 1_555 1_555
C78 C57 1_555 1_555
O17_2 Zr2_2 1_555 1_555
O18_2 Zr9 1_555 1_555
O19_2 Zr9 1_555 1_555
O22_2 Zr2_2 1_555 1_555
Zr5_2 Zr2_2 1_555 1_555
Zr8_2 Zr2_2 1_555 1_555
Zr11 O10_2 1_555 1_555
Zr12_2 Zr9 1_555 1_555
Zr13_2 O5_2 1_555 1_555
Zr14_2 Zr2_2 1_555 1_555
O23_2 Zr2_2 1_555 1_555
O24_2 Zr9 1_555 1_555
O25_2 Zr2_2 1_555 1_555
O27_2 Zr2_2 1_555 1_555
O28_2 Zr9 1_555 1_555
C20 C22 1_555 1_555
C23 C24 1_555 1_555
Zr2_2 Zr13_2 1_555 1_555
O8_2 Zr8_2 1_555 1_555
O8_2 Zr13_2 1_555 1_555
C29_2 C30_2 1_555 1_555
C46 C48 1_555 1_555
C49 C50 1_555 1_555
O11_2 Zr8_2 1_555 1_555
C51 C52 1_555 1_555
C55_2 C56_2 1_555 1_555
C72 C74 1_555 1_555
C77 C78 1_555 1_555
Zr5_2 Zr8_2 1_555 1_555
Zr5_2 Zr14_2 1_555 1_555
Zr5_2 O25_2 1_555 1_555
Zr5_2 O27_2 1_555 1_555
Zr6 Zr12_2 1_555 1_555
Zr6 O28_2 1_555 1_555
Zr8_2 Zr13_2 1_555 1_555
Zr8_2 O25_2 1_555 1_555
Zr11 Zr12_2 1_555 1_555
Zr11 O24_2 1_555 1_555
Zr12_2 O24_2 1_555 1_555
Zr12_2 O28_2 1_555 1_555
Zr13_2 Zr14_2 1_555 1_555
Zr13_2 O23_2 1_555 1_555
Zr14_2 O23_2 1_555 1_555
Zr14_2 O27_2 1_555 1_555
C2_2 H1_2 1_555 1_555
C1_2 H2_2 1_555 1_555
C23 H3 1_555 1_555
C19 H5 1_555 1_555
C20 H6 1_555 1_555
C11 H8 1_555 1_555
C24 H9 1_555 1_555
C12_2 H10_2 1_555 1_555
C27_2 H11_2 1_555 1_555
C28_2 H12_2 1_555 1_555
C10 H13 1_555 1_555
C13_2 H14_2 1_555 1_555
C18 H15 1_555 1_555
C8 H16 1_555 1_555
C9 H17 1_555 1_555
C21 H18 1_555 1_555
C52 H19 1_555 1_555
C54_2 H20_2 1_555 1_555
C38_2 H21_2 1_555 1_555
C47 H22 1_555 1_555
C53_2 H23_2 1_555 1_555
C35 H24 1_555 1_555
C45 H25 1_555 1_555
C39_2 H26_2 1_555 1_555
C44 H27 1_555 1_555
C46 H28 1_555 1_555
C50 H29 1_555 1_555
C34 H30 1_555 1_555
C51 H31 1_555 1_555
C37 H32 1_555 1_555
C36 H33 1_555 1_555
C49 H34 1_555 1_555
C64_2 H36_2 1_555 1_555
C65_2 H37_2 1_555 1_555
C78 H38 1_555 1_555
C61 H39 1_555 1_555
C62 H40 1_555 1_555
C73 H41 1_555 1_555
C63 H42 1_555 1_555
C70 H43 1_555 1_555
C77 H44 1_555 1_555
C71 H45 1_555 1_555
C72 H46 1_555 1_555
C60 H47 1_555 1_555
O9_3 C40_3 1_555 1_555
C40_3 C41_3 1_555 1_555
O10_3 C40_3 1_555 1_555
C49_2 C41_3 1_555 1_555
O12_3 Zr8 1_555 1_555
Zr8 O9_3 1_555 1_555
C55_3 O12_3 1_555 1_555
O15_2 C55_3 1_555 1_555
C77_2 C56_3 1_555 1_555
O19_3 Zr8 1_555 1_555
Zr10_2 O10_3 1_555 1_555
O24_3 Zr8 1_555 1_555
O29_2 Zr8 1_555 1_555
C49_2 C50_2 1_555 1_555
Zr8 Zr10_2 1_555 1_555
C55_3 C56_3 1_555 1_555
O15_2 Zr5 1_555 1_555
C77_2 C78_2 1_555 1_555
Zr5 Zr10_2 1_555 1_555
Zr5 O29_2 1_555 1_555
Zr10_2 Zr13 1_555 1_555
Zr10_2 O24_3 1_555 1_555
Zr10_2 O29_2 1_555 1_555
Zr13 O24_3 1_555 1_555
C50_2 H29_2 1_555 1_555
C49_2 H34_2 1_555 1_555
C78_2 H38_2 1_555 1_555
C77_2 H44_2 1_555 1_555
O1_3 Zr5_2 1_555 1_555
C1_3 C2_3 1_555 1_555
C2_3 C5_2 1_555 1_555
Zr5_2 O2_3 1_555 1_555
O2_3 Zr11_2 1_555 1_555
C3_3 O1_3 1_555 1_555
C4_3 C1_3 1_555 1_555
C5_2 C6_2 1_555 1_555
C6_2 C8_2 1_555 1_555
C7_2 C9_2 1_555 1_555
C8_2 C11_2 1_555 1_555
C9_2 C10_2 1_555 1_555
C10_2 C6_2 1_555 1_555
C11_2 C7_2 1_555 1_555
O4_3 C14_3 1_555 1_555
C12_3 C13_3 1_555 1_555
C13_3 C16_2 1_555 1_555
C14_3 C15_3 1_555 1_555
C15_3 C12_3 1_555 1_555
C16_2 C17_2 1_555 1_555
C17_2 C18_2 1_555 1_555
C18_2 C19_2 1_555 1_555
C19_2 C22_2 1_555 1_555
C20_2 C21_2 1_555 1_555
C21_2 C17_2 1_555 1_555
C22_2 C7_2 1_555 1_555
O5_3 C14_3 1_555 1_555
C23_2 C15_3 1_555 1_555
C24_2 C16_2 1_555 1_555
O22_2 C3_3 1_555 1_555
C25_2 C4_3 1_555 1_555
C26_2 C5_2 1_555 1_555
O7_3 Zr7 1_555 1_555
C27_3 C28_3 1_555 1_555
C28_3 C31_2 1_555 1_555
Zr7 O4_3 1_555 1_555
C29_3 O7_3 1_555 1_555
C30_3 C27_3 1_555 1_555
C31_2 C32_2 1_555 1_555
C32_2 C34_2 1_555 1_555
C33_2 C35_2 1_555 1_555
C34_2 C37_2 1_555 1_555
C35_2 C36_2 1_555 1_555
C36_2 C32_2 1_555 1_555
C37_2 C33_2 1_555 1_555
C38_3 C39_3 1_555 1_555
C39_3 C42_2 1_555 1_555
C42_2 C43_2 1_555 1_555
C43_2 C44_2 1_555 1_555
C44_2 C45_2 1_555 1_555
C45_2 C48_2 1_555 1_555
C46_2 C47_2 1_555 1_555
C47_2 C43_2 1_555 1_555
C48_2 C33_2 1_555 1_555
O18 C29_3 1_555 1_555
C51_2 C30_3 1_555 1_555
C52_2 C31_2 1_555 1_555
C53_3 C54_3 1_555 1_555
C54_3 C57_2 1_555 1_555
C57_2 C58_2 1_555 1_555
C58_2 C60_2 1_555 1_555
C59_2 C61_2 1_555 1_555
C60_2 C63_2 1_555 1_555
C61_2 C62_2 1_555 1_555
C62_2 C58_2 1_555 1_555
C63_2 C59_2 1_555 1_555
O13_3 Zr5_2 1_555 1_555
C64_3 C65_3 1_555 1_555
C65_3 C68_2 1_555 1_555
C66_3 O13_3 1_555 1_555
C67_3 C64_3 1_555 1_555
C68_2 C69_2 1_555 1_555
C69_2 C70_2 1_555 1_555
C70_2 C71_2 1_555 1_555
C71_2 C74_2 1_555 1_555
C72_2 C73_2 1_555 1_555
C73_2 C69_2 1_555 1_555
C74_2 C59_2 1_555 1_555
O14_3 C66_3 1_555 1_555
C75_2 C67_3 1_555 1_555
C76_2 C68_2 1_555 1_555
O17_3 Zr7 1_555 1_555
O20_2 Zr5_2 1_555 1_555
O21_3 Zr5_2 1_555 1_555
Zr11_2 Zr5_2 1_555 1_555
Zr12 O5_3 1_555 1_555
O23_3 Zr7 1_555 1_555
O30_2 Zr5_2 1_555 1_555
O2_3 Zr14_2 1_555 1_555
C3_3 C4_3 1_555 1_555
C20_2 C22_2 1_555 1_555
C23_2 C24_2 1_555 1_555
C25_2 C26_2 1_555 1_555
C29_3 C30_3 1_555 1_555
C46_2 C48_2 1_555 1_555
C51_2 C52_2 1_555 1_555
C66_3 C67_3 1_555 1_555
C72_2 C74_2 1_555 1_555
O14_3 Zr14_2 1_555 1_555
C75_2 C76_2 1_555 1_555
Zr8_2 Zr11_2 1_555 1_555
Zr8_2 O30_2 1_555 1_555
Zr11_2 Zr14_2 1_555 1_555
Zr11_2 O30_2 1_555 1_555
Zr12 Zr15_2 1_555 1_555
Zr12 O23_3 1_555 1_555
Zr15_2 O23_3 1_555 1_555
C2_3 H1_3 1_555 1_555
C1_3 H2_3 1_555 1_555
C23_2 H3_2 1_555 1_555
C25_2 H4_2 1_555 1_555
C19_2 H5_2 1_555 1_555
C20_2 H6_2 1_555 1_555
C26_2 H7_2 1_555 1_555
C11_2 H8_2 1_555 1_555
C24_2 H9_2 1_555 1_555
C12_3 H10_3 1_555 1_555
C27_3 H11_3 1_555 1_555
C28_3 H12_3 1_555 1_555
C10_2 H13_2 1_555 1_555
C13_3 H14_3 1_555 1_555
C18_2 H15_2 1_555 1_555
C8_2 H16_2 1_555 1_555
C9_2 H17_2 1_555 1_555
C21_2 H18_2 1_555 1_555
C52_2 H19_2 1_555 1_555
C54_3 H20_3 1_555 1_555
C38_3 H21_3 1_555 1_555
C47_2 H22_2 1_555 1_555
C53_3 H23_3 1_555 1_555
C35_2 H24_2 1_555 1_555
C45_2 H25_2 1_555 1_555
C39_3 H26_3 1_555 1_555
C44_2 H27_2 1_555 1_555
C46_2 H28_2 1_555 1_555
C34_2 H30_2 1_555 1_555
C51_2 H31_2 1_555 1_555
C37_2 H32_2 1_555 1_555
C36_2 H33_2 1_555 1_555
C76_2 H35_2 1_555 1_555
C64_3 H36_3 1_555 1_555
C65_3 H37_3 1_555 1_555
C61_2 H39_2 1_555 1_555
C62_2 H40_2 1_555 1_555
C73_2 H41_2 1_555 1_555
C63_2 H42_2 1_555 1_555
C70_2 H43_2 1_555 1_555
C71_2 H45_2 1_555 1_555
C72_2 H46_2 1_555 1_555
C60_2 H47_2 1_555 1_555
C75_2 H48_2 1_555 1_555
O4_4 C14_4 1_555 1_555
C14_4 C15_4 1_555 1_555
O5_4 C14_4 1_555 1_555
C23_3 C15_4 1_555 1_555
O7_4 Zr6 1_555 1_555
Zr6 O4_4 1_555 1_555
C29_4 O7_4 1_555 1_555
O18_2 C29_4 1_555 1_555
C51_3 C30_4 1_555 1_555
O17_4 Zr6 1_555 1_555
Zr12_2 O5_4 1_555 1_555
O23_4 Zr6 1_555 1_555
C23_3 C24_3 1_555 1_555
C29_4 C30_4 1_555 1_555
C51_3 C52_3 1_555 1_555
Zr12_2 Zr15 1_555 1_555
Zr12_2 O23_4 1_555 1_555
Zr15 O23_4 1_555 1_555
C23_3 H3_3 1_555 1_555
C24_3 H9_3 1_555 1_555
C52_3 H19_3 1_555 1_555
C51_3 H31_3 1_555 1_555
O1_4 Zr5 1_555 1_555
C1_4 C2_4 1_555 1_555
C2_4 C5_3 1_555 1_555
Zr5 O2_4 1_555 1_555
O2_4 Zr10_2 1_555 1_555
C3_4 O1_4 1_555 1_555
C4_4 C1_4 1_555 1_555
C5_3 C6_3 1_555 1_555
C6_3 C8_3 1_555 1_555
C7_3 C9_3 1_555 1_555
C8_3 C11_3 1_555 1_555
C9_3 C10_3 1_555 1_555
C10_3 C6_3 1_555 1_555
C11_3 C7_3 1_555 1_555
C12_4 C13_4 1_555 1_555
C13_4 C16_3 1_555 1_555
C16_3 C17_3 1_555 1_555
C17_3 C18_3 1_555 1_555
C18_3 C19_3 1_555 1_555
C19_3 C22_3 1_555 1_555
C20_3 C21_3 1_555 1_555
C21_3 C17_3 1_555 1_555
C22_3 C7_3 1_555 1_555
O22 C3_4 1_555 1_555
C25_3 C4_4 1_555 1_555
C26_3 C5_3 1_555 1_555
C27_4 C28_4 1_555 1_555
C28_4 C31_3 1_555 1_555
C31_3 C32_3 1_555 1_555
C32_3 C34_3 1_555 1_555
C33_3 C35_3 1_555 1_555
C34_3 C37_3 1_555 1_555
C35_3 C36_3 1_555 1_555
C36_3 C32_3 1_555 1_555
C37_3 C33_3 1_555 1_555
O9_4 C40_4 1_555 1_555
C38_4 C39_4 1_555 1_555
C39_4 C42_3 1_555 1_555
C40_4 C41_4 1_555 1_555
C41_4 C38_4 1_555 1_555
C42_3 C43_3 1_555 1_555
C43_3 C44_3 1_555 1_555
C44_3 C45_3 1_555 1_555
C45_3 C48_3 1_555 1_555
C46_3 C47_3 1_555 1_555
C47_3 C43_3 1_555 1_555
C48_3 C33_3 1_555 1_555
O10_4 C40_4 1_555 1_555
C49_3 C41_4 1_555 1_555
C50_3 C42_3 1_555 1_555
O12_4 Zr8_2 1_555 1_555
C53_4 C54_4 1_555 1_555
C54_4 C57_3 1_555 1_555
Zr8_2 O9_4 1_555 1_555
C55_4 O12_4 1_555 1_555
C56_4 C53_4 1_555 1_555
C57_3 C58_3 1_555 1_555
C58_3 C60_3 1_555 1_555
C59_3 C61_3 1_555 1_555
C60_3 C63_3 1_555 1_555
C61_3 C62_3 1_555 1_555
C62_3 C58_3 1_555 1_555
C63_3 C59_3 1_555 1_555
O13_4 Zr5 1_555 1_555
C64_4 C65_4 1_555 1_555
C65_4 C68_3 1_555 1_555
C66_4 O13_4 1_555 1_555
C67_4 C64_4 1_555 1_555
C68_3 C69_3 1_555 1_555
C69_3 C70_3 1_555 1_555
C70_3 C71_3 1_555 1_555
C71_3 C74_3 1_555 1_555
C72_3 C73_3 1_555 1_555
C73_3 C69_3 1_555 1_555
C74_3 C59_3 1_555 1_555
O14_4 C66_4 1_555 1_555
C75_3 C67_4 1_555 1_555
C76_3 C68_3 1_555 1_555
O20_2 C55_4 1_555 1_555
C77_3 C56_4 1_555 1_555
C78_3 C57_3 1_555 1_555
O19_4 Zr8_2 1_555 1_555
O21_4 Zr5 1_555 1_555
Zr11_2 O10_4 1_555 1_555
O24_4 Zr8_2 1_555 1_555
O2_4 Zr14 1_555 1_555
C3_4 C4_4 1_555 1_555
C20_3 C22_3 1_555 1_555
C25_3 C26_3 1_555 1_555
C46_3 C48_3 1_555 1_555
C49_3 C50_3 1_555 1_555
C55_4 C56_4 1_555 1_555
C66_4 C67_4 1_555 1_555
C72_3 C74_3 1_555 1_555
O14_4 Zr14 1_555 1_555
C75_3 C76_3 1_555 1_555
C77_3 C78_3 1_555 1_555
Zr11_2 Zr13_2 1_555 1_555
Zr11_2 O24_4 1_555 1_555
Zr10_2 Zr14 1_555 1_555
Zr13_2 O24_4 1_555 1_555
C2_4 H1_4 1_555 1_555
C1_4 H2_4 1_555 1_555
C25_3 H4_3 1_555 1_555
C19_3 H5_3 1_555 1_555
C20_3 H6_3 1_555 1_555
C26_3 H7_3 1_555 1_555
C11_3 H8_3 1_555 1_555
C12_4 H10_4 1_555 1_555
C27_4 H11_4 1_555 1_555
C28_4 H12_4 1_555 1_555
C10_3 H13_3 1_555 1_555
C13_4 H14_4 1_555 1_555
C18_3 H15_3 1_555 1_555
C8_3 H16_3 1_555 1_555
C9_3 H17_3 1_555 1_555
C21_3 H18_3 1_555 1_555
C54_4 H20_4 1_555 1_555
C38_4 H21_4 1_555 1_555
C47_3 H22_3 1_555 1_555
C53_4 H23_4 1_555 1_555
C35_3 H24_3 1_555 1_555
C45_3 H25_3 1_555 1_555
C39_4 H26_4 1_555 1_555
C44_3 H27_3 1_555 1_555
C46_3 H28_3 1_555 1_555
C50_3 H29_3 1_555 1_555
C34_3 H30_3 1_555 1_555
C37_3 H32_3 1_555 1_555
C36_3 H33_3 1_555 1_555
C49_3 H34_3 1_555 1_555
C76_3 H35_3 1_555 1_555
C64_4 H36_4 1_555 1_555
C65_4 H37_4 1_555 1_555
C78_3 H38_3 1_555 1_555
C61_3 H39_3 1_555 1_555
C62_3 H40_3 1_555 1_555
C73_3 H41_3 1_555 1_555
C63_3 H42_3 1_555 1_555
C70_3 H43_3 1_555 1_555
C77_3 H44_3 1_555 1_555
C71_3 H45_3 1_555 1_555
C72_3 H46_3 1_555 1_555
C60_3 H47_3 1_555 1_555
C75_3 H48_3 1_555 1_555
C27_5 C28_5 1_555 1_555
C28_5 C31_4 1_555 1_555
C29_5 O17_3 1_555 1_555
C30_5 C27_5 1_555 1_555
C31_4 C32_4 1_555 1_555
C32_4 C34_4 1_555 1_555
C33_4 C35_4 1_555 1_555
C34_4 C37_4 1_555 1_555
C35_4 C36_4 1_555 1_555
C36_4 C32_4 1_555 1_555
C37_4 C33_4 1_555 1_555
O9_5 C40_5 1_555 1_555
C38_5 C39_5 1_555 1_555
C39_5 C42_4 1_555 1_555
C40_5 C41_5 1_555 1_555
C41_5 C38_5 1_555 1_555
C42_4 C43_4 1_555 1_555
C43_4 C44_4 1_555 1_555
C44_4 C45_4 1_555 1_555
C45_4 C48_4 1_555 1_555
C46_4 C47_4 1_555 1_555
C47_4 C43_4 1_555 1_555
C48_4 C33_4 1_555 1_555
O10_5 C40_5 1_555 1_555
C49_4 C41_5 1_555 1_555
C50_4 C42_4 1_555 1_555
O11_3 C29_5 1_555 1_555
C51_4 C30_5 1_555 1_555
C52_4 C31_4 1_555 1_555
O12_5 Zr14 1_555 1_555
C53_5 C54_5 1_555 1_555
Zr14 O9_5 1_555 1_555
C55_5 O12_5 1_555 1_555
C56_5 C53_5 1_555 1_555
O15_3 C55_5 1_555 1_555
O18_3 Zr14 1_555 1_555
Zr10_2 O10_5 1_555 1_555
O29_3 Zr14 1_555 1_555
C29_5 C30_5 1_555 1_555
C46_4 C48_4 1_555 1_555
C49_4 C50_4 1_555 1_555
O11_3 Zr15_2 1_555 1_555
C51_4 C52_4 1_555 1_555
C55_5 C56_5 1_555 1_555
O15_3 Zr13 1_555 1_555
Zr13 O29_3 1_555 1_555
Zr10_2 O29_3 1_555 1_555
C27_5 H11_5 1_555 1_555
C28_5 H12_5 1_555 1_555
C52_4 H19_4 1_555 1_555
C54_5 H20_5 1_555 1_555
C38_5 H21_5 1_555 1_555
C47_4 H22_4 1_555 1_555
C53_5 H23_5 1_555 1_555
C35_4 H24_4 1_555 1_555
C45_4 H25_4 1_555 1_555
C39_5 H26_5 1_555 1_555
C44_4 H27_4 1_555 1_555
C46_4 H28_4 1_555 1_555
C50_4 H29_4 1_555 1_555
C34_4 H30_4 1_555 1_555
C51_4 H31_4 1_555 1_555
C37_4 H32_4 1_555 1_555
C36_4 H33_4 1_555 1_555
C49_4 H34_4 1_555 1_555
C57_4 C58_4 1_555 1_555
C58_4 C60_4 1_555 1_555
C59_4 C61_4 1_555 1_555
C60_4 C63_4 1_555 1_555
C61_4 C62_4 1_555 1_555
C62_4 C58_4 1_555 1_555
C63_4 C59_4 1_555 1_555
O13_5 Zr13_2 1_555 1_555
C64_5 C65_5 1_555 1_555
C65_5 C68_4 1_555 1_555
C66_5 O13_5 1_555 1_555
C67_5 C64_5 1_555 1_555
C68_4 C69_4 1_555 1_555
C69_4 C70_4 1_555 1_555
C70_4 C71_4 1_555 1_555
C71_4 C74_4 1_555 1_555
C72_4 C73_4 1_555 1_555
C73_4 C69_4 1_555 1_555
C74_4 C59_4 1_555 1_555
O19_4 C66_5 1_555 1_555
C75_4 C67_5 1_555 1_555
C76_4 C68_4 1_555 1_555
C78_4 C57_4 1_555 1_555
O20_3 Zr13_2 1_555 1_555
O21_5 Zr13_2 1_555 1_555
O30_3 Zr13_2 1_555 1_555
C66_5 C67_5 1_555 1_555
C72_4 C74_4 1_555 1_555
C75_4 C76_4 1_555 1_555
C77_4 C78_4 1_555 1_555
Zr14_2 O30_3 1_555 1_555
Zr11_2 O30_3 1_555 1_555
C76_4 H35_4 1_555 1_555
C64_5 H36_5 1_555 1_555
C65_5 H37_5 1_555 1_555
C78_4 H38_4 1_555 1_555
C61_4 H39_4 1_555 1_555
C62_4 H40_4 1_555 1_555
C73_4 H41_4 1_555 1_555
C63_4 H42_4 1_555 1_555
C70_4 H43_4 1_555 1_555
C77_4 H44_4 1_555 1_555
C71_4 H45_4 1_555 1_555
C72_4 H46_4 1_555 1_555
C60_4 H47_4 1_555 1_555
C75_4 H48_4 1_555 1_555
O13_6 Zr13 1_555 1_555
C66_6 O13_6 1_555 1_555
O19_3 C66_6 1_555 1_555
O21_6 Zr13 1_555 1_555
C66_6 C67_6 1_555 1_555
C29_6 O17_4 1_555 1_555
O11_4 C29_6 1_555 1_555
C29_6 C30_6 1_555 1_555
O11_4 Zr15 1_555 1_555
C31_5 C32_5 1_555 1_555
C32_5 C34_5 1_555 1_555
C33_5 C35_5 1_555 1_555
C34_5 C37_5 1_555 1_555
C35_5 C36_5 1_555 1_555
C36_5 C32_5 1_555 1_555
C37_5 C33_5 1_555 1_555
O9_6 C40_6 1_555 1_555
C38_6 C39_6 1_555 1_555
C39_6 C42_5 1_555 1_555
C40_6 C41_6 1_555 1_555
C41_6 C38_6 1_555 1_555
C42_5 C43_5 1_555 1_555
C43_5 C44_5 1_555 1_555
C44_5 C45_5 1_555 1_555
C45_5 C48_5 1_555 1_555
C46_5 C47_5 1_555 1_555
C47_5 C43_5 1_555 1_555
C48_5 C33_5 1_555 1_555
O10_6 C40_6 1_555 1_555
C49_5 C41_6 1_555 1_555
C50_5 C42_5 1_555 1_555
O12_6 Zr14_2 1_555 1_555
C53_6 C54_6 1_555 1_555
C54_6 C57_5 1_555 1_555
Zr14_2 O9_6 1_555 1_555
C55_6 O12_6 1_555 1_555
C56_6 C53_6 1_555 1_555
C57_5 C58_5 1_555 1_555
C58_5 C60_5 1_555 1_555
C59_5 C61_5 1_555 1_555
C60_5 C63_5 1_555 1_555
C61_5 C62_5 1_555 1_555
C62_5 C58_5 1_555 1_555
C63_5 C59_5 1_555 1_555
C68_5 C69_5 1_555 1_555
C69_5 C70_5 1_555 1_555
C70_5 C71_5 1_555 1_555
C71_5 C74_5 1_555 1_555
C72_5 C73_5 1_555 1_555
C73_5 C69_5 1_555 1_555
C74_5 C59_5 1_555 1_555
O20_3 C55_6 1_555 1_555
C77_5 C56_6 1_555 1_555
C78_5 C57_5 1_555 1_555
O18_4 Zr14_2 1_555 1_555
Zr11_2 O10_6 1_555 1_555
C46_5 C48_5 1_555 1_555
C49_5 C50_5 1_555 1_555
C55_6 C56_6 1_555 1_555
C72_5 C74_5 1_555 1_555
C77_5 C78_5 1_555 1_555
C54_6 H20_6 1_555 1_555
C38_6 H21_6 1_555 1_555
C47_5 H22_5 1_555 1_555
C53_6 H23_6 1_555 1_555
C35_5 H24_5 1_555 1_555
C45_5 H25_5 1_555 1_555
C39_6 H26_6 1_555 1_555
C44_5 H27_5 1_555 1_555
C46_5 H28_5 1_555 1_555
C50_5 H29_5 1_555 1_555
C34_5 H30_5 1_555 1_555
C37_5 H32_5 1_555 1_555
C36_5 H33_5 1_555 1_555
C49_5 H34_5 1_555 1_555
C78_5 H38_5 1_555 1_555
C61_5 H39_5 1_555 1_555
C62_5 H40_5 1_555 1_555
C73_5 H41_5 1_555 1_555
C63_5 H42_5 1_555 1_555
C70_5 H43_5 1_555 1_555
C77_5 H44_5 1_555 1_555
C71_5 H45_5 1_555 1_555
C72_5 H46_5 1_555 1_555
C60_5 H47_5 1_555 1_555
O9_7 C40_7 1_555 1_555
C38_7 C39_7 1_555 1_555
C40_7 C41_7 1_555 1_555
C41_7 C38_7 1_555 1_555
O10_7 C40_7 1_555 1_555
O12_7 Zr15_2 1_555 1_555
C53_7 C54_7 1_555 1_555
C54_7 C57_6 1_555 1_555
Zr15_2 O9_7 1_555 1_555
C55_7 O12_7 1_555 1_555
C56_7 C53_7 1_555 1_555
C57_6 C58_6 1_555 1_555
C58_6 C60_6 1_555 1_555
C59_6 C61_6 1_555 1_555
C60_6 C63_6 1_555 1_555
C61_6 C62_6 1_555 1_555
C62_6 C58_6 1_555 1_555
C63_6 C59_6 1_555 1_555
O13_7 Zr12_2 1_555 1_555
C64_6 C65_6 1_555 1_555
C65_6 C68_6 1_555 1_555
C66_7 O13_7 1_555 1_555
C67_7 C64_6 1_555 1_555
C68_6 C69_6 1_555 1_555
C69_6 C70_6 1_555 1_555
C70_6 C71_6 1_555 1_555
C71_6 C74_6 1_555 1_555
C72_6 C73_6 1_555 1_555
C73_6 C69_6 1_555 1_555
C74_6 C59_6 1_555 1_555
O19_2 C66_7 1_555 1_555
C75_5 C67_7 1_555 1_555
C76_5 C68_6 1_555 1_555
O15_4 C55_7 1_555 1_555
C77_6 C56_7 1_555 1_555
C78_6 C57_6 1_555 1_555
O20_4 Zr12_2 1_555 1_555
O21_7 Zr12_2 1_555 1_555
Zr10 O10_7 1_555 1_555
O29_4 Zr15_2 1_555 1_555
O30_4 Zr12_2 1_555 1_555
C55_7 C56_7 1_555 1_555
C66_7 C67_7 1_555 1_555
C72_6 C74_6 1_555 1_555
C75_5 C76_5 1_555 1_555
O15_4 Zr12 1_555 1_555
C77_6 C78_6 1_555 1_555
Zr12 O29_4 1_555 1_555
Zr15 O30_4 1_555 1_555
Zr10 O29_4 1_555 1_555
Zr11 O30_4 1_555 1_555
C54_7 H20_7 1_555 1_555
C38_7 H21_7 1_555 1_555
C53_7 H23_7 1_555 1_555
C39_7 H26_7 1_555 1_555
C76_5 H35_5 1_555 1_555
C64_6 H36_6 1_555 1_555
C65_6 H37_6 1_555 1_555
C78_6 H38_6 1_555 1_555
C61_6 H39_6 1_555 1_555
C62_6 H40_6 1_555 1_555
C73_6 H41_6 1_555 1_555
C63_6 H42_6 1_555 1_555
C70_6 H43_6 1_555 1_555
C77_6 H44_6 1_555 1_555
C71_6 H45_6 1_555 1_555
C72_6 H46_6 1_555 1_555
C60_6 H47_6 1_555 1_555
C75_5 H48_5 1_555 1_555
C27_6 C28_6 1_555 1_555
C28_6 C31_6 1_555 1_555
C29_7 O17 1_555 1_555
C30_7 C27_6 1_555 1_555
C31_6 C32_6 1_555 1_555
C32_6 C34_6 1_555 1_555
C33_6 C35_6 1_555 1_555
C34_6 C37_6 1_555 1_555
C35_6 C36_6 1_555 1_555
C36_6 C32_6 1_555 1_555
C37_6 C33_6 1_555 1_555
C42_6 C43_6 1_555 1_555
C43_6 C44_6 1_555 1_555
C44_6 C45_6 1_555 1_555
C45_6 C48_6 1_555 1_555
C46_6 C47_6 1_555 1_555
C47_6 C43_6 1_555 1_555
C48_6 C33_6 1_555 1_555
C50_6 C42_6 1_555 1_555
O18_3 C29_7 1_555 1_555
C51_5 C30_7 1_555 1_555
C52_5 C31_6 1_555 1_555
C29_7 C30_7 1_555 1_555
C46_6 C48_6 1_555 1_555
C49_6 C50_6 1_555 1_555
C51_5 C52_5 1_555 1_555
C27_6 H11_6 1_555 1_555
C28_6 H12_6 1_555 1_555
C52_5 H19_5 1_555 1_555
C47_6 H22_6 1_555 1_555
C35_6 H24_6 1_555 1_555
C45_6 H25_6 1_555 1_555
C44_6 H27_6 1_555 1_555
C46_6 H28_6 1_555 1_555
C50_6 H29_6 1_555 1_555
C34_6 H30_6 1_555 1_555
C51_5 H31_5 1_555 1_555
C37_6 H32_6 1_555 1_555
C36_6 H33_6 1_555 1_555
C49_6 H34_6 1_555 1_555
O9_8 C40_8 1_555 1_555
C40_8 C41_8 1_555 1_555
O10_8 C40_8 1_555 1_555
C49_7 C41_8 1_555 1_555
O12_8 Zr15 1_555 1_555
Zr15 O9_8 1_555 1_555
C55_8 O12_8 1_555 1_555
O20_4 C55_8 1_555 1_555
C77_7 C56_8 1_555 1_555
Zr11 O10_8 1_555 1_555
C49_7 C50_7 1_555 1_555
C55_8 C56_8 1_555 1_555
C77_7 C78_7 1_555 1_555
C50_7 H29_7 1_555 1_555
C49_7 H34_7 1_555 1_555
C78_7 H38_7 1_555 1_555
C77_7 H44_7 1_555 1_555
C27_7 C28_7 1_555 1_555
C28_7 C31_7 1_555 1_555
C29_8 O17_2 1_555 1_555
C30_8 C27_7 1_555 1_555
C31_7 C32_7 1_555 1_555
C32_7 C34_7 1_555 1_555
C33_7 C35_7 1_555 1_555
C34_7 C37_7 1_555 1_555
C35_7 C36_7 1_555 1_555
C36_7 C32_7 1_555 1_555
C37_7 C33_7 1_555 1_555
C38_8 C39_8 1_555 1_555
C39_8 C42_7 1_555 1_555
C42_7 C43_7 1_555 1_555
C43_7 C44_7 1_555 1_555
C44_7 C45_7 1_555 1_555
C45_7 C48_7 1_555 1_555
C46_7 C47_7 1_555 1_555
C47_7 C43_7 1_555 1_555
C48_7 C33_7 1_555 1_555
O18_4 C29_8 1_555 1_555
C51_6 C30_8 1_555 1_555
C52_6 C31_7 1_555 1_555
C53_8 C54_8 1_555 1_555
C54_8 C57_7 1_555 1_555
C57_7 C58_7 1_555 1_555
C58_7 C60_7 1_555 1_555
C59_7 C61_7 1_555 1_555
C60_7 C63_7 1_555 1_555
C61_7 C62_7 1_555 1_555
C62_7 C58_7 1_555 1_555
C63_7 C59_7 1_555 1_555
O13_8 Zr12 1_555 1_555
C64_7 C65_7 1_555 1_555
C65_7 C68_7 1_555 1_555
C66_8 O13_8 1_555 1_555
C67_8 C64_7 1_555 1_555
C68_7 C69_7 1_555 1_555
C69_7 C70_7 1_555 1_555
C70_7 C71_7 1_555 1_555
C71_7 C74_7 1_555 1_555
C72_7 C73_7 1_555 1_555
C73_7 C69_7 1_555 1_555
C74_7 C59_7 1_555 1_555
O19 C66_8 1_555 1_555
C75_6 C67_8 1_555 1_555
C76_6 C68_7 1_555 1_555
O21_8 Zr12 1_555 1_555
C29_8 C30_8 1_555 1_555
C46_7 C48_7 1_555 1_555
C51_6 C52_6 1_555 1_555
C66_8 C67_8 1_555 1_555
C72_7 C74_7 1_555 1_555
C75_6 C76_6 1_555 1_555
C27_7 H11_7 1_555 1_555
C28_7 H12_7 1_555 1_555
C52_6 H19_6 1_555 1_555
C54_8 H20_8 1_555 1_555
C38_8 H21_8 1_555 1_555
C47_7 H22_7 1_555 1_555
C53_8 H23_8 1_555 1_555
C35_7 H24_7 1_555 1_555
C45_7 H25_7 1_555 1_555
C39_8 H26_8 1_555 1_555
C44_7 H27_7 1_555 1_555
C46_7 H28_7 1_555 1_555
C34_7 H30_7 1_555 1_555
C51_6 H31_6 1_555 1_555
C37_7 H32_7 1_555 1_555
C36_7 H33_7 1_555 1_555
C76_6 H35_6 1_555 1_555
C64_7 H36_7 1_555 1_555
C65_7 H37_7 1_555 1_555
C61_7 H39_7 1_555 1_555
C62_7 H40_7 1_555 1_555
C73_7 H41_7 1_555 1_555
C63_7 H42_7 1_555 1_555
C70_7 H43_7 1_555 1_555
C71_7 H45_7 1_555 1_555
C72_7 H46_7 1_555 1_555
C60_7 H47_7 1_555 1_555
C75_6 H48_6 1_555 1_555
C1_5 C2_5 1_555 1_555
C3_5 O21_8 1_555 1_555
C4_5 C1_5 1_555 1_555
O6_3 C3_5 1_555 1_555
C3_5 C4_5 1_555 1_555
O6_3 Zr10 1_555 1_555
C2_5 H1_5 1_555 1_555
C1_5 H2_5 1_555 1_555
C5_4 C6_4 1_555 1_555
C6_4 C8_4 1_555 1_555
C7_4 C9_4 1_555 1_555
C8_4 C11_4 1_555 1_555
C9_4 C10_4 1_555 1_555
C10_4 C6_4 1_555 1_555
C11_4 C7_4 1_555 1_555
O4_5 C14_5 1_555 1_555
C12_5 C13_5 1_555 1_555
C13_5 C16_4 1_555 1_555
C14_5 C15_5 1_555 1_555
C15_5 C12_5 1_555 1_555
C16_4 C17_4 1_555 1_555
C17_4 C18_4 1_555 1_555
C18_4 C19_4 1_555 1_555
C19_4 C22_4 1_555 1_555
C20_4 C21_4 1_555 1_555
C21_4 C17_4 1_555 1_555
C22_4 C7_4 1_555 1_555
O21_3 C14_5 1_555 1_555
C23_4 C15_5 1_555 1_555
C24_4 C16_4 1_555 1_555
C26_4 C5_4 1_555 1_555
Zr11_2 O4_5 1_555 1_555
O22_3 Zr11_2 1_555 1_555
C20_4 C22_4 1_555 1_555
C23_4 C24_4 1_555 1_555
C25_4 C26_4 1_555 1_555
C23_4 H3_4 1_555 1_555
C25_4 H4_4 1_555 1_555
C19_4 H5_4 1_555 1_555
C20_4 H6_4 1_555 1_555
C26_4 H7_4 1_555 1_555
C11_4 H8_4 1_555 1_555
C24_4 H9_4 1_555 1_555
C12_5 H10_5 1_555 1_555
C10_4 H13_4 1_555 1_555
C13_5 H14_5 1_555 1_555
C18_4 H15_4 1_555 1_555
C8_4 H16_4 1_555 1_555
C9_4 H17_4 1_555 1_555
C21_4 H18_4 1_555 1_555
C1_6 C2_6 1_555 1_555
C2_6 C5_5 1_555 1_555
C3_6 O21_7 1_555 1_555
C4_6 C1_6 1_555 1_555
C5_5 C6_5 1_555 1_555
C6_5 C8_5 1_555 1_555
C7_5 C9_5 1_555 1_555
C8_5 C11_5 1_555 1_555
C9_5 C10_5 1_555 1_555
C10_5 C6_5 1_555 1_555
C11_5 C7_5 1_555 1_555
O4_6 C14_6 1_555 1_555
C12_6 C13_6 1_555 1_555
C13_6 C16_5 1_555 1_555
C14_6 C15_6 1_555 1_555
C15_6 C12_6 1_555 1_555
C16_5 C17_5 1_555 1_555
C17_5 C18_5 1_555 1_555
C18_5 C19_5 1_555 1_555
C19_5 C22_5 1_555 1_555
C20_5 C21_5 1_555 1_555
C21_5 C17_5 1_555 1_555
C22_5 C7_5 1_555 1_555
O21_4 C14_6 1_555 1_555
C23_5 C15_6 1_555 1_555
C24_5 C16_5 1_555 1_555
O6_4 C3_6 1_555 1_555
C25_5 C4_6 1_555 1_555
C26_5 C5_5 1_555 1_555
Zr10_2 O4_6 1_555 1_555
O22_4 Zr10_2 1_555 1_555
C3_6 C4_6 1_555 1_555
C20_5 C22_5 1_555 1_555
C23_5 C24_5 1_555 1_555
O6_4 Zr11 1_555 1_555
C25_5 C26_5 1_555 1_555
C2_6 H1_6 1_555 1_555
C1_6 H2_6 1_555 1_555
C23_5 H3_5 1_555 1_555
C25_5 H4_5 1_555 1_555
C19_5 H5_5 1_555 1_555
C20_5 H6_5 1_555 1_555
C26_5 H7_5 1_555 1_555
C11_5 H8_5 1_555 1_555
C24_5 H9_5 1_555 1_555
C12_6 H10_6 1_555 1_555
C10_5 H13_5 1_555 1_555
C13_6 H14_6 1_555 1_555
C18_5 H15_5 1_555 1_555
C8_5 H16_5 1_555 1_555
C9_5 H17_5 1_555 1_555
C21_5 H18_5 1_555 1_555
C3_7 O21_6 1_555 1_555
O22_4 C3_7 1_555 1_555
C25_6 C4_7 1_555 1_555
C3_7 C4_7 1_555 1_555
C25_6 C26_6 1_555 1_555
C25_6 H4_6 1_555 1_555
C26_6 H7_6 1_555 1_555
C1_7 C2_7 1_555 1_555
C2_7 C5_6 1_555 1_555
C5_6 C6_6 1_555 1_555
C6_6 C8_6 1_555 1_555
C7_6 C9_6 1_555 1_555
C8_6 C11_6 1_555 1_555
C9_6 C10_6 1_555 1_555
C10_6 C6_6 1_555 1_555
C11_6 C7_6 1_555 1_555
O4_7 C14_7 1_555 1_555
C12_7 C13_7 1_555 1_555
C13_7 C16_6 1_555 1_555
C14_7 C15_7 1_555 1_555
C15_7 C12_7 1_555 1_555
C16_6 C17_6 1_555 1_555
C17_6 C18_6 1_555 1_555
C18_6 C19_6 1_555 1_555
C19_6 C22_6 1_555 1_555
C20_6 C21_6 1_555 1_555
C21_6 C17_6 1_555 1_555
C22_6 C7_6 1_555 1_555
O21 C14_7 1_555 1_555
C23_6 C15_7 1_555 1_555
C24_6 C16_6 1_555 1_555
Zr11 O4_7 1_555 1_555
C20_6 C22_6 1_555 1_555
C23_6 C24_6 1_555 1_555
C2_7 H1_7 1_555 1_555
C1_7 H2_7 1_555 1_555
C23_6 H3_6 1_555 1_555
C19_6 H5_6 1_555 1_555
C20_6 H6_6 1_555 1_555
C11_6 H8_6 1_555 1_555
C24_6 H9_6 1_555 1_555
C12_7 H10_7 1_555 1_555
C10_6 H13_6 1_555 1_555
C13_7 H14_7 1_555 1_555
C18_6 H15_6 1_555 1_555
C8_6 H16_6 1_555 1_555
C9_6 H17_6 1_555 1_555
C21_6 H18_6 1_555 1_555
O4_8 C14_8 1_555 1_555
C14_8 C15_8 1_555 1_555
O21_2 C14_8 1_555 1_555
Zr10 O4_8 1_555 1_555
C1_8 C2_8 1_555 1_555
C2_8 C5_7 1_555 1_555
C3_8 O21_5 1_555 1_555
C4_8 C1_8 1_555 1_555
C5_7 C6_7 1_555 1_555
C6_7 C8_7 1_555 1_555
C7_7 C9_7 1_555 1_555
C8_7 C11_7 1_555 1_555
C9_7 C10_7 1_555 1_555
C10_7 C6_7 1_555 1_555
C11_7 C7_7 1_555 1_555
C16_7 C17_7 1_555 1_555
C17_7 C18_7 1_555 1_555
C18_7 C19_7 1_555 1_555
C19_7 C22_7 1_555 1_555
C20_7 C21_7 1_555 1_555
C21_7 C17_7 1_555 1_555
C22_7 C7_7 1_555 1_555
O22_3 C3_8 1_555 1_555
C25_7 C4_8 1_555 1_555
C26_7 C5_7 1_555 1_555
C3_8 C4_8 1_555 1_555
C20_7 C22_7 1_555 1_555
C25_7 C26_7 1_555 1_555
C2_8 H1_8 1_555 1_555
C1_8 H2_8 1_555 1_555
C25_7 H4_7 1_555 1_555
C19_7 H5_7 1_555 1_555
C20_7 H6_7 1_555 1_555
C26_7 H7_7 1_555 1_555
C11_7 H8_7 1_555 1_555
C10_7 H13_7 1_555 1_555
C18_7 H15_7 1_555 1_555
C8_7 H16_7 1_555 1_555
C9_7 H17_7 1_555 1_555
C21_7 H18_7 1_555 1_555
C31_8 C32_8 1_555 1_555
C32_8 C34_8 1_555 1_555
C33_8 C35_8 1_555 1_555
C34_8 C37_8 1_555 1_555
C35_8 C36_8 1_555 1_555
C36_8 C32_8 1_555 1_555
C37_8 C33_8 1_555 1_555
C42_8 C43_8 1_555 1_555
C43_8 C44_8 1_555 1_555
C44_8 C45_8 1_555 1_555
C45_8 C48_8 1_555 1_555
C46_8 C47_8 1_555 1_555
C47_8 C43_8 1_555 1_555
C48_8 C33_8 1_555 1_555
C50_8 C42_8 1_555 1_555
C52_7 C31_8 1_555 1_555
C46_8 C48_8 1_555 1_555
C49_8 C50_8 1_555 1_555
C51_7 C52_7 1_555 1_555
C52_7 H19_7 1_555 1_555
C47_8 H22_8 1_555 1_555
C35_8 H24_8 1_555 1_555
C45_8 H25_8 1_555 1_555
C44_8 H27_8 1_555 1_555
C46_8 H28_8 1_555 1_555
C50_8 H29_8 1_555 1_555
C34_8 H30_8 1_555 1_555
C51_7 H31_7 1_555 1_555
C37_8 H32_8 1_555 1_555
C36_8 H33_8 1_555 1_555
C49_8 H34_8 1_555 1_555
C75_7 C76_7 1_555 1_555
C76_7 H35_7 1_555 1_555
C75_7 H48_7 1_555 1_555
C12_8 C13_8 1_555 1_555
C12_8 H10_8 1_555 1_555
C13_8 H14_8 1_555 1_555
C57_8 C58_8 1_555 1_555
C58_8 C60_8 1_555 1_555
C59_8 C61_8 1_555 1_555
C60_8 C63_8 1_555 1_555
C61_8 C62_8 1_555 1_555
C62_8 C58_8 1_555 1_555
C63_8 C59_8 1_555 1_555
C68_8 C69_8 1_555 1_555
C69_8 C70_8 1_555 1_555
C70_8 C71_8 1_555 1_555
C71_8 C74_8 1_555 1_555
C72_8 C73_8 1_555 1_555
C73_8 C69_8 1_555 1_555
C74_8 C59_8 1_555 1_555
C76_8 C68_8 1_555 1_555
C78_8 C57_8 1_555 1_555
C72_8 C74_8 1_555 1_555
C75_8 C76_8 1_555 1_555
C77_8 C78_8 1_555 1_555
C76_8 H35_8 1_555 1_555
C78_8 H38_8 1_555 1_555
C61_8 H39_8 1_555 1_555
C62_8 H40_8 1_555 1_555
C73_8 H41_8 1_555 1_555
C63_8 H42_8 1_555 1_555
C70_8 H43_8 1_555 1_555
C77_8 H44_8 1_555 1_555
C71_8 H45_8 1_555 1_555
C72_8 H46_8 1_555 1_555
C60_8 H47_8 1_555 1_555
C75_8 H48_8 1_555 1_555
C51_8 C52_8 1_555 1_555
C52_8 H19_8 1_555 1_555
C51_8 H31_8 1_555 1_555
C23_7 C24_7 1_555 1_555
C23_7 H3_7 1_555 1_555
C24_7 H9_7 1_555 1_555
C5_8 C6_8 1_555 1_555
C6_8 C8_8 1_555 1_555
C7_8 C9_8 1_555 1_555
C8_8 C11_8 1_555 1_555
C9_8 C10_8 1_555 1_555
C10_8 C6_8 1_555 1_555
C11_8 C7_8 1_555 1_555
C16_8 C17_8 1_555 1_555
C17_8 C18_8 1_555 1_555
C18_8 C19_8 1_555 1_555
C19_8 C22_8 1_555 1_555
C20_8 C21_8 1_555 1_555
C21_8 C17_8 1_555 1_555
C22_8 C7_8 1_555 1_555
C24_8 C16_8 1_555 1_555
C26_8 C5_8 1_555 1_555
C20_8 C22_8 1_555 1_555
C23_8 C24_8 1_555 1_555
C25_8 C26_8 1_555 1_555
C23_8 H3_8 1_555 1_555
C25_8 H4_8 1_555 1_555
C19_8 H5_8 1_555 1_555
C20_8 H6_8 1_555 1_555
C26_8 H7_8 1_555 1_555
C11_8 H8_8 1_555 1_555
C24_8 H9_8 1_555 1_555
C10_8 H13_8 1_555 1_555
C18_8 H15_8 1_555 1_555
C8_8 H16_8 1_555 1_555
C9_8 H17_8 1_555 1_555
C21_8 H18_8 1_555 1_555
C27_8 C28_8 1_555 1_555
C64_8 C65_8 1_555 1_555
C27_8 H11_8 1_555 1_555
C28_8 H12_8 1_555 1_555
C64_8 H36_8 1_555 1_555
C65_8 H37_8 1_555 1_555
C1_9 C2_9 1_555 1_555
C2_9 C5_9 1_555 1_555
C5_9 C6_9 1_555 1_555
C6_9 C8_9 1_555 1_555
C7_9 C9_9 1_555 1_555
C8_9 C11_9 1_555 1_555
C9_9 C10_9 1_555 1_555
C10_9 C6_9 1_555 1_555
C11_9 C7_9 1_555 1_555
O4_9 C14_9 1_555 1_555
C12_9 C13_9 1_555 1_555
C13_9 C16_9 1_555 1_555
C14_9 C15_9 1_555 1_555
C15_9 C12_9 1_555 1_555
C16_9 C17_9 1_555 1_555
C17_9 C18_9 1_555 1_555
C18_9 C19_9 1_555 1_555
C19_9 C22_9 1_555 1_555
C20_9 C21_9 1_555 1_555
C21_9 C17_9 1_555 1_555
C22_9 C7_9 1_555 1_555
O5_5 C14_9 1_555 1_555
C23_9 C15_9 1_555 1_555
C24_9 C16_9 1_555 1_555
O7_5 Zr2_3 1_555 1_555
C27_9 C28_9 1_555 1_555
C28_9 C31_9 1_555 1_555
Zr2_3 O4_9 1_555 1_555
O8_3 Zr2_3 1_555 1_555
C29_9 O7_5 1_555 1_555
C30_9 C27_9 1_555 1_555
C31_9 C32_9 1_555 1_555
C32_9 C34_9 1_555 1_555
C33_9 C35_9 1_555 1_555
C34_9 C37_9 1_555 1_555
C35_9 C36_9 1_555 1_555
C36_9 C32_9 1_555 1_555
C37_9 C33_9 1_555 1_555
O9_9 C40_9 1_555 1_555
C38_9 C39_9 1_555 1_555
C39_9 C42_9 1_555 1_555
C40_9 C41_9 1_555 1_555
C41_9 C38_9 1_555 1_555
C42_9 C43_9 1_555 1_555
C43_9 C44_9 1_555 1_555
C44_9 C45_9 1_555 1_555
C45_9 C48_9 1_555 1_555
C46_9 C47_9 1_555 1_555
C47_9 C43_9 1_555 1_555
C48_9 C33_9 1_555 1_555
O10_9 C40_9 1_555 1_555
C49_9 C41_9 1_555 1_555
C50_9 C42_9 1_555 1_555
O11_5 C29_9 1_555 1_555
C51_9 C30_9 1_555 1_555
C52_9 C31_9 1_555 1_555
O12_9 Zr3_2 1_555 1_555
C53_9 C54_9 1_555 1_555
C54_9 C57_9 1_555 1_555
Zr3_2 O9_9 1_555 1_555
C55_9 O12_9 1_555 1_555
C56_9 C53_9 1_555 1_555
C57_9 C58_9 1_555 1_555
C58_9 C60_9 1_555 1_555
C59_9 C61_9 1_555 1_555
C60_9 C63_9 1_555 1_555
C61_9 C62_9 1_555 1_555
C62_9 C58_9 1_555 1_555
C63_9 C59_9 1_555 1_555
C64_9 C65_9 1_555 1_555
C65_9 C68_9 1_555 1_555
C68_9 C69_9 1_555 1_555
C69_9 C70_9 1_555 1_555
C70_9 C71_9 1_555 1_555
C71_9 C74_9 1_555 1_555
C72_9 C73_9 1_555 1_555
C73_9 C69_9 1_555 1_555
C74_9 C59_9 1_555 1_555
O15_5 C55_9 1_555 1_555
C77_9 C56_9 1_555 1_555
C78_9 C57_9 1_555 1_555
O17_5 Zr2_3 1_555 1_555
O18_5 Zr3_2 1_555 1_555
O19_5 Zr3_2 1_555 1_555
O22_5 Zr2_3 1_555 1_555
Zr4_2 Zr3_2 1_555 1_555
Zr5_3 Zr2_3 1_555 1_555
Zr7_2 Zr3_2 1_555 1_555
Zr8_3 Zr2_3 1_555 1_555
Zr10_3 O10_9 1_555 1_555
Zr12_3 Zr3_2 1_555 1_555
Zr13_3 O5_5 1_555 1_555
Zr14_3 Zr2_3 1_555 1_555
O23_5 Zr2_3 1_555 1_555
O24_5 Zr3_2 1_555 1_555
O25_3 Zr2_3 1_555 1_555
O26_2 Zr3_2 1_555 1_555
O27_3 Zr2_3 1_555 1_555
O28_3 Zr3_2 1_555 1_555
O29_5 Zr3_2 1_555 1_555
C20_9 C22_9 1_555 1_555
C23_9 C24_9 1_555 1_555
Zr2_3 Zr13_3 1_555 1_555
O8_3 Zr8_3 1_555 1_555
O8_3 Zr13_3 1_555 1_555
C29_9 C30_9 1_555 1_555
C46_9 C48_9 1_555 1_555
C49_9 C50_9 1_555 1_555
O11_5 Zr8_3 1_555 1_555
C51_9 C52_9 1_555 1_555
Zr3_2 Zr10_3 1_555 1_555
C55_9 C56_9 1_555 1_555
C72_9 C74_9 1_555 1_555
O15_5 Zr4_2 1_555 1_555
C77_9 C78_9 1_555 1_555
Zr4_2 Zr7_2 1_555 1_555
Zr4_2 Zr10_3 1_555 1_555
Zr4_2 O26_2 1_555 1_555
Zr4_2 O29_5 1_555 1_555
Zr5_3 Zr8_3 1_555 1_555
Zr5_3 Zr14_3 1_555 1_555
Zr5_3 O25_3 1_555 1_555
Zr5_3 O27_3 1_555 1_555
Zr7_2 Zr12_3 1_555 1_555
Zr7_2 O26_2 1_555 1_555
Zr7_2 O28_3 1_555 1_555
Zr8_3 Zr13_3 1_555 1_555
Zr8_3 O25_3 1_555 1_555
Zr10_3 Zr12_3 1_555 1_555
Zr10_3 O24_5 1_555 1_555
Zr10_3 O29_5 1_555 1_555
Zr12_3 O24_5 1_555 1_555
Zr12_3 O28_3 1_555 1_555
Zr13_3 Zr14_3 1_555 1_555
Zr13_3 O23_5 1_555 1_555
Zr14_3 O23_5 1_555 1_555
Zr14_3 O27_3 1_555 1_555
C2_9 H1_9 1_555 1_555
C1_9 H2_9 1_555 1_555
C23_9 H3_9 1_555 1_555
C19_9 H5_9 1_555 1_555
C20_9 H6_9 1_555 1_555
C11_9 H8_9 1_555 1_555
C24_9 H9_9 1_555 1_555
C12_9 H10_9 1_555 1_555
C27_9 H11_9 1_555 1_555
C28_9 H12_9 1_555 1_555
C10_9 H13_9 1_555 1_555
C13_9 H14_9 1_555 1_555
C18_9 H15_9 1_555 1_555
C8_9 H16_9 1_555 1_555
C9_9 H17_9 1_555 1_555
C21_9 H18_9 1_555 1_555
C52_9 H19_9 1_555 1_555
C54_9 H20_9 1_555 1_555
C38_9 H21_9 1_555 1_555
C47_9 H22_9 1_555 1_555
C53_9 H23_9 1_555 1_555
C35_9 H24_9 1_555 1_555
C45_9 H25_9 1_555 1_555
C39_9 H26_9 1_555 1_555
C44_9 H27_9 1_555 1_555
C46_9 H28_9 1_555 1_555
C50_9 H29_9 1_555 1_555
C34_9 H30_9 1_555 1_555
C51_9 H31_9 1_555 1_555
C37_9 H32_9 1_555 1_555
C36_9 H33_9 1_555 1_555
C49_9 H34_9 1_555 1_555
C64_9 H36_9 1_555 1_555
C65_9 H37_9 1_555 1_555
C78_9 H38_9 1_555 1_555
C61_9 H39_9 1_555 1_555
C62_9 H40_9 1_555 1_555
C73_9 H41_9 1_555 1_555
C63_9 H42_9 1_555 1_555
C70_9 H43_9 1_555 1_555
C77_9 H44_9 1_555 1_555
C71_9 H45_9 1_555 1_555
C72_9 H46_9 1_555 1_555
C60_9 H47_9 1_555 1_555
O1_5 Zr1_2 1_555 1_555
Zr1_2 O2_5 1_555 1_555
O2_5 Zr11_3 1_555 1_555
O3_3 Zr1_2 1_555 1_555
C3_9 O1_5 1_555 1_555
O6_5 C3_9 1_555 1_555
C25_9 C4_9 1_555 1_555
O13_9 Zr1_2 1_555 1_555
C66_9 O13_9 1_555 1_555
O14_5 C66_9 1_555 1_555
C75_9 C67_9 1_555 1_555
O16_2 Zr1_2 1_555 1_555
O20_5 Zr1_2 1_555 1_555
O21_9 Zr1_2 1_555 1_555
Zr6_2 Zr1_2 1_555 1_555
Zr9_2 Zr1_2 1_555 1_555
Zr11_3 Zr1_2 1_555 1_555
Zr15_3 Zr1_2 1_555 1_555
O30_5 Zr1_2 1_555 1_555
O2_5 Zr15_3 1_555 1_555
O3_3 Zr6_2 1_555 1_555
O3_3 Zr15_3 1_555 1_555
C3_9 C4_9 1_555 1_555
O6_5 Zr6_2 1_555 1_555
C25_9 C26_9 1_555 1_555
C66_9 C67_9 1_555 1_555
O14_5 Zr15_3 1_555 1_555
C75_9 C76_9 1_555 1_555
O16_2 Zr6_2 1_555 1_555
O16_2 Zr9_2 1_555 1_555
Zr6_2 Zr9_2 1_555 1_555
Zr6_2 Zr15_3 1_555 1_555
Zr9_2 Zr11_3 1_555 1_555
Zr9_2 O30_5 1_555 1_555
Zr11_3 Zr15_3 1_555 1_555
Zr11_3 O30_5 1_555 1_555
C25_9 H4_9 1_555 1_555
C26_9 H7_9 1_555 1_555
C76_9 H35_9 1_555 1_555
C75_9 H48_9 1_555 1_555
O4_10 C14_10 1_555 1_555
C12_10 C13_10 1_555 1_555
C14_10 C15_10 1_555 1_555
C15_10 C12_10 1_555 1_555
O5_6 C14_10 1_555 1_555
O7_6 Zr2_4 1_555 1_555
C27_10 C28_10 1_555 1_555
Zr2_4 O4_10 1_555 1_555
O8_4 Zr2_4 1_555 1_555
C29_10 O7_6 1_555 1_555
C30_10 C27_10 1_555 1_555
O11_6 C29_10 1_555 1_555
O17_6 Zr2_4 1_555 1_555
O22_6 Zr2_4 1_555 1_555
Zr5_4 Zr2_4 1_555 1_555
Zr8_4 Zr2_4 1_555 1_555
Zr13_4 O5_6 1_555 1_555
Zr14_4 Zr2_4 1_555 1_555
O23_6 Zr2_4 1_555 1_555
O25_4 Zr2_4 1_555 1_555
O27_4 Zr2_4 1_555 1_555
Zr2_4 Zr13_4 1_555 1_555
O8_4 Zr8_4 1_555 1_555
O8_4 Zr13_4 1_555 1_555
C29_10 C30_10 1_555 1_555
O11_6 Zr8_4 1_555 1_555
Zr5_4 Zr8_4 1_555 1_555
Zr5_4 Zr14_4 1_555 1_555
Zr5_4 O25_4 1_555 1_555
Zr5_4 O27_4 1_555 1_555
Zr8_4 Zr13_4 1_555 1_555
Zr8_4 O25_4 1_555 1_555
Zr13_4 Zr14_4 1_555 1_555
Zr13_4 O23_6 1_555 1_555
Zr14_4 O23_6 1_555 1_555
Zr14_4 O27_4 1_555 1_555
C12_10 H10_10 1_555 1_555
C27_10 H11_10 1_555 1_555
C28_10 H12_10 1_555 1_555
C13_10 H14_10 1_555 1_555
O1_6 Zr4_2 1_555 1_555
C1_10 C2_10 1_555 1_555
Zr4_2 O2_6 1_555 1_555
O2_6 Zr10_3 1_555 1_555
O3_4 Zr4_2 1_555 1_555
C3_10 O1_6 1_555 1_555
C4_10 C1_10 1_555 1_555
O6_6 C3_10 1_555 1_555
O13_10 Zr4_2 1_555 1_555
C64_10 C65_10 1_555 1_555
C66_10 O13_10 1_555 1_555
C67_10 C64_10 1_555 1_555
O14_6 C66_10 1_555 1_555
O21_10 Zr4_2 1_555 1_555
Zr15_4 Zr4_2 1_555 1_555
O2_6 Zr15_4 1_555 1_555
O3_4 Zr7_2 1_555 1_555
O3_4 Zr15_4 1_555 1_555
C3_10 C4_10 1_555 1_555
O6_6 Zr7_2 1_555 1_555
C66_10 C67_10 1_555 1_555
O14_6 Zr15_4 1_555 1_555
Zr7_2 Zr15_4 1_555 1_555
Zr10_3 Zr15_4 1_555 1_555
C2_10 H1_10 1_555 1_555
C1_10 H2_10 1_555 1_555
C64_10 H36_10 1_555 1_555
C65_10 H37_10 1_555 1_555
O9_10 C40_10 1_555 1_555
C38_10 C39_10 1_555 1_555
C40_10 C41_10 1_555 1_555
C41_10 C38_10 1_555 1_555
O10_10 C40_10 1_555 1_555
O12_10 Zr9_2 1_555 1_555
C53_10 C54_10 1_555 1_555
Zr9_2 O9_10 1_555 1_555
C55_10 O12_10 1_555 1_555
C56_10 C53_10 1_555 1_555
O20_5 C55_10 1_555 1_555
O18_6 Zr9_2 1_555 1_555
O19_6 Zr9_2 1_555 1_555
Zr11_3 O10_10 1_555 1_555
Zr12_4 Zr9_2 1_555 1_555
O24_6 Zr9_2 1_555 1_555
O28_4 Zr9_2 1_555 1_555
C55_10 C56_10 1_555 1_555
Zr6_2 Zr12_4 1_555 1_555
Zr6_2 O28_4 1_555 1_555
Zr11_3 Zr12_4 1_555 1_555
Zr11_3 O24_6 1_555 1_555
Zr12_4 O24_6 1_555 1_555
Zr12_4 O28_4 1_555 1_555
C54_10 H20_10 1_555 1_555
C38_10 H21_10 1_555 1_555
C53_10 H23_10 1_555 1_555
C39_10 H26_10 1_555 1_555
O1_7 Zr5_4 1_555 1_555
C1_11 C2_11 1_555 1_555
C2_11 C5_10 1_555 1_555
Zr5_4 O2_7 1_555 1_555
O2_7 Zr11_4 1_555 1_555
C3_11 O1_7 1_555 1_555
C4_11 C1_11 1_555 1_555
C5_10 C6_10 1_555 1_555
C6_10 C8_10 1_555 1_555
C7_10 C9_10 1_555 1_555
C8_10 C11_10 1_555 1_555
C9_10 C10_10 1_555 1_555
C10_10 C6_10 1_555 1_555
C11_10 C7_10 1_555 1_555
C12_11 C13_11 1_555 1_555
C13_11 C16_10 1_555 1_555
C16_10 C17_10 1_555 1_555
C17_10 C18_10 1_555 1_555
C18_10 C19_10 1_555 1_555
C19_10 C22_10 1_555 1_555
C20_10 C21_10 1_555 1_555
C21_10 C17_10 1_555 1_555
C22_10 C7_10 1_555 1_555
O22_6 C3_11 1_555 1_555
C25_10 C4_11 1_555 1_555
C26_10 C5_10 1_555 1_555
C27_11 C28_11 1_555 1_555
C28_11 C31_10 1_555 1_555
C31_10 C32_10 1_555 1_555
C32_10 C34_10 1_555 1_555
C33_10 C35_10 1_555 1_555
C34_10 C37_10 1_555 1_555
C35_10 C36_10 1_555 1_555
C36_10 C32_10 1_555 1_555
C37_10 C33_10 1_555 1_555
O9_11 C40_11 1_555 1_555
C38_11 C39_11 1_555 1_555
C39_11 C42_10 1_555 1_555
C40_11 C41_11 1_555 1_555
C41_11 C38_11 1_555 1_555
C42_10 C43_10 1_555 1_555
C43_10 C44_10 1_555 1_555
C44_10 C45_10 1_555 1_555
C45_10 C48_10 1_555 1_555
C46_10 C47_10 1_555 1_555
C47_10 C43_10 1_555 1_555
C48_10 C33_10 1_555 1_555
O10_11 C40_11 1_555 1_555
C49_10 C41_11 1_555 1_555
C50_10 C42_10 1_555 1_555
O12_11 Zr8_3 1_555 1_555
C53_11 C54_11 1_555 1_555
C54_11 C57_10 1_555 1_555
Zr8_3 O9_11 1_555 1_555
C55_11 O12_11 1_555 1_555
C56_11 C53_11 1_555 1_555
C57_10 C58_10 1_555 1_555
C58_10 C60_10 1_555 1_555
C59_10 C61_10 1_555 1_555
C60_10 C63_10 1_555 1_555
C61_10 C62_10 1_555 1_555
C62_10 C58_10 1_555 1_555
C63_10 C59_10 1_555 1_555
O13_11 Zr5_4 1_555 1_555
C64_11 C65_11 1_555 1_555
C65_11 C68_10 1_555 1_555
C66_11 O13_11 1_555 1_555
C67_11 C64_11 1_555 1_555
C68_10 C69_10 1_555 1_555
C69_10 C70_10 1_555 1_555
C70_10 C71_10 1_555 1_555
C71_10 C74_10 1_555 1_555
C72_10 C73_10 1_555 1_555
C73_10 C69_10 1_555 1_555
C74_10 C59_10 1_555 1_555
O14_7 C66_11 1_555 1_555
C75_10 C67_11 1_555 1_555
C76_10 C68_10 1_555 1_555
O15_6 C55_11 1_555 1_555
C77_10 C56_11 1_555 1_555
C78_10 C57_10 1_555 1_555
O19_7 Zr8_3 1_555 1_555
O20_6 Zr5_4 1_555 1_555
O21_11 Zr5_4 1_555 1_555
Zr10_4 O10_11 1_555 1_555
Zr11_4 Zr5_4 1_555 1_555
O24_7 Zr8_3 1_555 1_555
O29_6 Zr8_3 1_555 1_555
O30_6 Zr5_4 1_555 1_555
O2_7 Zr14_4 1_555 1_555
C3_11 C4_11 1_555 1_555
C20_10 C22_10 1_555 1_555
C25_10 C26_10 1_555 1_555
C46_10 C48_10 1_555 1_555
C49_10 C50_10 1_555 1_555
Zr8_3 Zr10_4 1_555 1_555
C55_11 C56_11 1_555 1_555
C66_11 C67_11 1_555 1_555
C72_10 C74_10 1_555 1_555
O14_7 Zr14_4 1_555 1_555
C75_10 C76_10 1_555 1_555
O15_6 Zr5_3 1_555 1_555
C77_10 C78_10 1_555 1_555
Zr5_3 Zr10_4 1_555 1_555
Zr5_3 O29_6 1_555 1_555
Zr8_4 Zr11_4 1_555 1_555
Zr8_4 O30_6 1_555 1_555
Zr10_4 Zr13_3 1_555 1_555
Zr10_4 O24_7 1_555 1_555
Zr10_4 O29_6 1_555 1_555
Zr11_4 Zr14_4 1_555 1_555
Zr11_4 O30_6 1_555 1_555
Zr13_3 O24_7 1_555 1_555
C2_11 H1_11 1_555 1_555
C1_11 H2_11 1_555 1_555
C25_10 H4_10 1_555 1_555
C19_10 H5_10 1_555 1_555
C20_10 H6_10 1_555 1_555
C26_10 H7_10 1_555 1_555
C11_10 H8_10 1_555 1_555
C12_11 H10_11 1_555 1_555
C27_11 H11_11 1_555 1_555
C28_11 H12_11 1_555 1_555
C10_10 H13_10 1_555 1_555
C13_11 H14_11 1_555 1_555
C18_10 H15_10 1_555 1_555
C8_10 H16_10 1_555 1_555
C9_10 H17_10 1_555 1_555
C21_10 H18_10 1_555 1_555
C54_11 H20_11 1_555 1_555
C38_11 H21_11 1_555 1_555
C47_10 H22_10 1_555 1_555
C53_11 H23_11 1_555 1_555
C35_10 H24_10 1_555 1_555
C45_10 H25_10 1_555 1_555
C39_11 H26_11 1_555 1_555
C44_10 H27_10 1_555 1_555
C46_10 H28_10 1_555 1_555
C50_10 H29_10 1_555 1_555
C34_10 H30_10 1_555 1_555
C37_10 H32_10 1_555 1_555
C36_10 H33_10 1_555 1_555
C49_10 H34_10 1_555 1_555
C76_10 H35_10 1_555 1_555
C64_11 H36_11 1_555 1_555
C65_11 H37_11 1_555 1_555
C78_10 H38_10 1_555 1_555
C61_10 H39_10 1_555 1_555
C62_10 H40_10 1_555 1_555
C73_10 H41_10 1_555 1_555
C63_10 H42_10 1_555 1_555
C70_10 H43_10 1_555 1_555
C77_10 H44_10 1_555 1_555
C71_10 H45_10 1_555 1_555
C72_10 H46_10 1_555 1_555
C60_10 H47_10 1_555 1_555
C75_10 H48_10 1_555 1_555
O4_11 C14_11 1_555 1_555
C14_11 C15_11 1_555 1_555
O5_7 C14_11 1_555 1_555
C23_10 C15_11 1_555 1_555
O7_7 Zr7_2 1_555 1_555
Zr7_2 O4_11 1_555 1_555
C29_11 O7_7 1_555 1_555
O18_5 C29_11 1_555 1_555
C51_10 C30_11 1_555 1_555
O17_7 Zr7_2 1_555 1_555
Zr12_3 O5_7 1_555 1_555
O23_7 Zr7_2 1_555 1_555
C23_10 C24_10 1_555 1_555
C29_11 C30_11 1_555 1_555
C51_10 C52_10 1_555 1_555
Zr12_3 Zr15_4 1_555 1_555
Zr12_3 O23_7 1_555 1_555
Zr15_4 O23_7 1_555 1_555
C23_10 H3_10 1_555 1_555
C24_10 H9_10 1_555 1_555
C52_10 H19_10 1_555 1_555
C51_10 H31_10 1_555 1_555
O1_8 Zr5_3 1_555 1_555
C1_12 C2_12 1_555 1_555
C2_12 C5_11 1_555 1_555
Zr5_3 O2_8 1_555 1_555
O2_8 Zr10_4 1_555 1_555
C3_12 O1_8 1_555 1_555
C4_12 C1_12 1_555 1_555
C5_11 C6_11 1_555 1_555
C6_11 C8_11 1_555 1_555
C7_11 C9_11 1_555 1_555
C8_11 C11_11 1_555 1_555
C9_11 C10_11 1_555 1_555
C10_11 C6_11 1_555 1_555
C11_11 C7_11 1_555 1_555
O4_12 C14_12 1_555 1_555
C12_12 C13_12 1_555 1_555
C13_12 C16_11 1_555 1_555
C14_12 C15_12 1_555 1_555
C15_12 C12_12 1_555 1_555
C16_11 C17_11 1_555 1_555
C17_11 C18_11 1_555 1_555
C18_11 C19_11 1_555 1_555
C19_11 C22_11 1_555 1_555
C20_11 C21_11 1_555 1_555
C21_11 C17_11 1_555 1_555
C22_11 C7_11 1_555 1_555
O5_8 C14_12 1_555 1_555
C23_11 C15_12 1_555 1_555
C24_11 C16_11 1_555 1_555
O22_5 C3_12 1_555 1_555
C25_11 C4_12 1_555 1_555
C26_11 C5_11 1_555 1_555
O7_8 Zr6_2 1_555 1_555
C27_12 C28_12 1_555 1_555
C28_12 C31_11 1_555 1_555
Zr6_2 O4_12 1_555 1_555
C29_12 O7_8 1_555 1_555
C30_12 C27_12 1_555 1_555
C31_11 C32_11 1_555 1_555
C32_11 C34_11 1_555 1_555
C33_11 C35_11 1_555 1_555
C34_11 C37_11 1_555 1_555
C35_11 C36_11 1_555 1_555
C36_11 C32_11 1_555 1_555
C37_11 C33_11 1_555 1_555
C38_12 C39_12 1_555 1_555
C39_12 C42_11 1_555 1_555
C42_11 C43_11 1_555 1_555
C43_11 C44_11 1_555 1_555
C44_11 C45_11 1_555 1_555
C45_11 C48_11 1_555 1_555
C46_11 C47_11 1_555 1_555
C47_11 C43_11 1_555 1_555
C48_11 C33_11 1_555 1_555
O18_6 C29_12 1_555 1_555
C51_11 C30_12 1_555 1_555
C52_11 C31_11 1_555 1_555
C53_12 C54_12 1_555 1_555
C54_12 C57_11 1_555 1_555
C57_11 C58_11 1_555 1_555
C58_11 C60_11 1_555 1_555
C59_11 C61_11 1_555 1_555
C60_11 C63_11 1_555 1_555
C61_11 C62_11 1_555 1_555
C62_11 C58_11 1_555 1_555
C63_11 C59_11 1_555 1_555
O13_12 Zr5_3 1_555 1_555
C64_12 C65_12 1_555 1_555
C65_12 C68_11 1_555 1_555
C66_12 O13_12 1_555 1_555
C67_12 C64_12 1_555 1_555
C68_11 C69_11 1_555 1_555
C69_11 C70_11 1_555 1_555
C70_11 C71_11 1_555 1_555
C71_11 C74_11 1_555 1_555
C72_11 C73_11 1_555 1_555
C73_11 C69_11 1_555 1_555
C74_11 C59_11 1_555 1_555
O14_8 C66_12 1_555 1_555
C75_11 C67_12 1_555 1_555
C76_11 C68_11 1_555 1_555
O17_8 Zr6_2 1_555 1_555
O21_12 Zr5_3 1_555 1_555
Zr12_4 O5_8 1_555 1_555
O23_8 Zr6_2 1_555 1_555
O2_8 Zr14_3 1_555 1_555
C3_12 C4_12 1_555 1_555
C20_11 C22_11 1_555 1_555
C23_11 C24_11 1_555 1_555
C25_11 C26_11 1_555 1_555
C29_12 C30_12 1_555 1_555
C46_11 C48_11 1_555 1_555
C51_11 C52_11 1_555 1_555
C66_12 C67_12 1_555 1_555
C72_11 C74_11 1_555 1_555
O14_8 Zr14_3 1_555 1_555
C75_11 C76_11 1_555 1_555
Zr10_4 Zr14_3 1_555 1_555
Zr12_4 Zr15_3 1_555 1_555
Zr12_4 O23_8 1_555 1_555
Zr15_3 O23_8 1_555 1_555
C2_12 H1_12 1_555 1_555
C1_12 H2_12 1_555 1_555
C23_11 H3_11 1_555 1_555
C25_11 H4_11 1_555 1_555
C19_11 H5_11 1_555 1_555
C20_11 H6_11 1_555 1_555
C26_11 H7_11 1_555 1_555
C11_11 H8_11 1_555 1_555
C24_11 H9_11 1_555 1_555
C12_12 H10_12 1_555 1_555
C27_12 H11_12 1_555 1_555
C28_12 H12_12 1_555 1_555
C10_11 H13_11 1_555 1_555
C13_12 H14_12 1_555 1_555
C18_11 H15_11 1_555 1_555
C8_11 H16_11 1_555 1_555
C9_11 H17_11 1_555 1_555
C21_11 H18_11 1_555 1_555
C52_11 H19_11 1_555 1_555
C54_12 H20_12 1_555 1_555
C38_12 H21_12 1_555 1_555
C47_11 H22_11 1_555 1_555
C53_12 H23_12 1_555 1_555
C35_11 H24_11 1_555 1_555
C45_11 H25_11 1_555 1_555
C39_12 H26_12 1_555 1_555
C44_11 H27_11 1_555 1_555
C46_11 H28_11 1_555 1_555
C34_11 H30_11 1_555 1_555
C51_11 H31_11 1_555 1_555
C37_11 H32_11 1_555 1_555
C36_11 H33_11 1_555 1_555
C76_11 H35_11 1_555 1_555
C64_12 H36_12 1_555 1_555
C65_12 H37_12 1_555 1_555
C61_11 H39_11 1_555 1_555
C62_11 H40_11 1_555 1_555
C73_11 H41_11 1_555 1_555
C63_11 H42_11 1_555 1_555
C70_11 H43_11 1_555 1_555
C71_11 H45_11 1_555 1_555
C72_11 H46_11 1_555 1_555
C60_11 H47_11 1_555 1_555
C75_11 H48_11 1_555 1_555
O9_12 C40_12 1_555 1_555
C40_12 C41_12 1_555 1_555
O10_12 C40_12 1_555 1_555
C49_11 C41_12 1_555 1_555
O12_12 Zr8_4 1_555 1_555
Zr8_4 O9_12 1_555 1_555
C55_12 O12_12 1_555 1_555
O20_6 C55_12 1_555 1_555
C77_11 C56_12 1_555 1_555
O19_8 Zr8_4 1_555 1_555
Zr11_4 O10_12 1_555 1_555
O24_8 Zr8_4 1_555 1_555
C49_11 C50_11 1_555 1_555
C55_12 C56_12 1_555 1_555
C77_11 C78_11 1_555 1_555
Zr11_4 Zr13_4 1_555 1_555
Zr11_4 O24_8 1_555 1_555
Zr13_4 O24_8 1_555 1_555
C50_11 H29_11 1_555 1_555
C49_11 H34_11 1_555 1_555
C78_11 H38_11 1_555 1_555
C77_11 H44_11 1_555 1_555
C53_13 C54_13 1_555 1_555
C54_13 C57_12 1_555 1_555
C55_13 O19_6 1_555 1_555
C56_13 C53_13 1_555 1_555
C57_12 C58_12 1_555 1_555
C58_12 C60_12 1_555 1_555
C59_12 C61_12 1_555 1_555
C60_12 C63_12 1_555 1_555
C61_12 C62_12 1_555 1_555
C62_12 C58_12 1_555 1_555
C63_12 C59_12 1_555 1_555
C68_12 C69_12 1_555 1_555
C69_12 C70_12 1_555 1_555
C70_12 C71_12 1_555 1_555
C71_12 C74_12 1_555 1_555
C72_12 C73_12 1_555 1_555
C73_12 C69_12 1_555 1_555
C74_12 C59_12 1_555 1_555
C76_12 C68_12 1_555 1_555
O15_7 C55_13 1_555 1_555
C77_12 C56_13 1_555 1_555
C78_12 C57_12 1_555 1_555
C55_13 C56_13 1_555 1_555
C72_12 C74_12 1_555 1_555
C75_12 C76_12 1_555 1_555
O15_7 Zr12_4 1_555 1_555
C77_12 C78_12 1_555 1_555
C54_13 H20_13 1_555 1_555
C53_13 H23_13 1_555 1_555
C76_12 H35_12 1_555 1_555
C78_12 H38_12 1_555 1_555
C61_12 H39_12 1_555 1_555
C62_12 H40_12 1_555 1_555
C73_12 H41_12 1_555 1_555
C63_12 H42_12 1_555 1_555
C70_12 H43_12 1_555 1_555
C77_12 H44_12 1_555 1_555
C71_12 H45_12 1_555 1_555
C72_12 H46_12 1_555 1_555
C60_12 H47_12 1_555 1_555
C75_12 H48_12 1_555 1_555
O1_9 Zr12_3 1_555 1_555
C1_13 C2_13 1_555 1_555
C2_13 C5_12 1_555 1_555
O3_5 Zr12_3 1_555 1_555
C3_13 O1_9 1_555 1_555
C4_13 C1_13 1_555 1_555
C5_12 C6_12 1_555 1_555
C6_12 C8_12 1_555 1_555
C7_12 C9_12 1_555 1_555
C8_12 C11_12 1_555 1_555
C9_12 C10_12 1_555 1_555
C10_12 C6_12 1_555 1_555
C11_12 C7_12 1_555 1_555
O4_13 C14_13 1_555 1_555
C12_13 C13_13 1_555 1_555
C13_13 C16_12 1_555 1_555
C14_13 C15_13 1_555 1_555
C15_13 C12_13 1_555 1_555
C16_12 C17_12 1_555 1_555
C17_12 C18_12 1_555 1_555
C18_12 C19_12 1_555 1_555
C19_12 C22_12 1_555 1_555
C20_12 C21_12 1_555 1_555
C21_12 C17_12 1_555 1_555
C22_12 C7_12 1_555 1_555
O21_11 C14_13 1_555 1_555
C23_12 C15_13 1_555 1_555
C24_12 C16_12 1_555 1_555
O6_7 C3_13 1_555 1_555
C25_12 C4_13 1_555 1_555
C26_12 C5_12 1_555 1_555
Zr11_4 O4_13 1_555 1_555
O13_13 Zr12_3 1_555 1_555
C64_13 C65_13 1_555 1_555
C66_13 O13_13 1_555 1_555
C67_13 C64_13 1_555 1_555
O14_9 C66_13 1_555 1_555
O17_9 Zr11_4 1_555 1_555
O20_7 Zr12_3 1_555 1_555
O22_7 Zr11_4 1_555 1_555
O27_5 Zr11_4 1_555 1_555
O3_5 Zr10_3 1_555 1_555
O3_5 Zr15_4 1_555 1_555
C3_13 C4_13 1_555 1_555
C20_12 C22_12 1_555 1_555
C23_12 C24_12 1_555 1_555
O6_7 Zr10_3 1_555 1_555
C25_12 C26_12 1_555 1_555
C66_13 C67_13 1_555 1_555
O14_9 Zr15_4 1_555 1_555
Zr13_4 O27_5 1_555 1_555
Zr14_4 O27_5 1_555 1_555
C2_13 H1_13 1_555 1_555
C1_13 H2_13 1_555 1_555
C23_12 H3_12 1_555 1_555
C25_12 H4_12 1_555 1_555
C19_12 H5_12 1_555 1_555
C20_12 H6_12 1_555 1_555
C26_12 H7_12 1_555 1_555
C11_12 H8_12 1_555 1_555
C24_12 H9_12 1_555 1_555
C12_13 H10_13 1_555 1_555
C10_12 H13_12 1_555 1_555
C13_13 H14_13 1_555 1_555
C18_12 H15_12 1_555 1_555
C8_12 H16_12 1_555 1_555
C9_12 H17_12 1_555 1_555
C21_12 H18_12 1_555 1_555
C64_13 H36_13 1_555 1_555
C65_13 H37_13 1_555 1_555
C5_13 C6_13 1_555 1_555
C6_13 C8_13 1_555 1_555
C7_13 C9_13 1_555 1_555
C8_13 C11_13 1_555 1_555
C9_13 C10_13 1_555 1_555
C10_13 C6_13 1_555 1_555
C11_13 C7_13 1_555 1_555
O4_14 C14_14 1_555 1_555
C12_14 C13_14 1_555 1_555
C13_14 C16_13 1_555 1_555
C14_14 C15_14 1_555 1_555
C15_14 C12_14 1_555 1_555
C16_13 C17_13 1_555 1_555
C17_13 C18_13 1_555 1_555
C18_13 C19_13 1_555 1_555
C19_13 C22_13 1_555 1_555
C20_13 C21_13 1_555 1_555
C21_13 C17_13 1_555 1_555
C22_13 C7_13 1_555 1_555
O21_12 C14_14 1_555 1_555
C23_13 C15_14 1_555 1_555
C24_13 C16_13 1_555 1_555
C26_13 C5_13 1_555 1_555
Zr10_4 O4_14 1_555 1_555
O17_10 Zr10_4 1_555 1_555
O22_8 Zr10_4 1_555 1_555
O27_6 Zr10_4 1_555 1_555
C20_13 C22_13 1_555 1_555
C23_13 C24_13 1_555 1_555
C25_13 C26_13 1_555 1_555
Zr13_3 O27_6 1_555 1_555
Zr14_3 O27_6 1_555 1_555
C23_13 H3_13 1_555 1_555
C25_13 H4_13 1_555 1_555
C19_13 H5_13 1_555 1_555
C20_13 H6_13 1_555 1_555
C26_13 H7_13 1_555 1_555
C11_13 H8_13 1_555 1_555
C24_13 H9_13 1_555 1_555
C12_14 H10_14 1_555 1_555
C10_13 H13_13 1_555 1_555
C13_14 H14_14 1_555 1_555
C18_13 H15_13 1_555 1_555
C8_13 H16_13 1_555 1_555
C9_13 H17_13 1_555 1_555
C21_13 H18_13 1_555 1_555
O1_10 Zr12_4 1_555 1_555
C1_14 C2_14 1_555 1_555
O3_6 Zr12_4 1_555 1_555
C3_14 O1_10 1_555 1_555
C4_14 C1_14 1_555 1_555
O6_8 C3_14 1_555 1_555
C53_14 C54_14 1_555 1_555
C54_14 C57_13 1_555 1_555
C55_14 O19_5 1_555 1_555
C56_14 C53_14 1_555 1_555
C57_13 C58_13 1_555 1_555
C58_13 C60_13 1_555 1_555
C59_13 C61_13 1_555 1_555
C60_13 C63_13 1_555 1_555
C61_13 C62_13 1_555 1_555
C62_13 C58_13 1_555 1_555
C63_13 C59_13 1_555 1_555
O13_14 Zr12_4 1_555 1_555
C64_14 C65_14 1_555 1_555
C65_14 C68_13 1_555 1_555
C66_14 O13_14 1_555 1_555
C67_14 C64_14 1_555 1_555
C68_13 C69_13 1_555 1_555
C69_13 C70_13 1_555 1_555
C70_13 C71_13 1_555 1_555
C71_13 C74_13 1_555 1_555
C72_13 C73_13 1_555 1_555
C73_13 C69_13 1_555 1_555
C74_13 C59_13 1_555 1_555
O14_10 C66_14 1_555 1_555
C75_13 C67_14 1_555 1_555
C76_13 C68_13 1_555 1_555
O20_7 C55_14 1_555 1_555
C77_13 C56_14 1_555 1_555
C78_13 C57_13 1_555 1_555
O3_6 Zr11_3 1_555 1_555
O3_6 Zr15_3 1_555 1_555
C3_14 C4_14 1_555 1_555
O6_8 Zr11_3 1_555 1_555
C55_14 C56_14 1_555 1_555
C66_14 C67_14 1_555 1_555
C72_13 C74_13 1_555 1_555
O14_10 Zr15_3 1_555 1_555
C75_13 C76_13 1_555 1_555
C77_13 C78_13 1_555 1_555
C2_14 H1_14 1_555 1_555
C1_14 H2_14 1_555 1_555
C54_14 H20_14 1_555 1_555
C53_14 H23_14 1_555 1_555
C76_13 H35_13 1_555 1_555
C64_14 H36_14 1_555 1_555
C65_14 H37_14 1_555 1_555
C78_13 H38_13 1_555 1_555
C61_13 H39_13 1_555 1_555
C62_13 H40_13 1_555 1_555
C73_13 H41_13 1_555 1_555
C63_13 H42_13 1_555 1_555
C70_13 H43_13 1_555 1_555
C77_13 H44_13 1_555 1_555
C71_13 H45_13 1_555 1_555
C72_13 H46_13 1_555 1_555
C60_13 H47_13 1_555 1_555
C75_13 H48_13 1_555 1_555
O1_11 Zr13_3 1_555 1_555
C1_15 C2_15 1_555 1_555
C2_15 C5_14 1_555 1_555
C3_15 O1_11 1_555 1_555
C4_15 C1_15 1_555 1_555
C5_14 C6_14 1_555 1_555
C6_14 C8_14 1_555 1_555
C7_14 C9_14 1_555 1_555
C8_14 C11_14 1_555 1_555
C9_14 C10_14 1_555 1_555
C10_14 C6_14 1_555 1_555
C11_14 C7_14 1_555 1_555
C16_14 C17_14 1_555 1_555
C17_14 C18_14 1_555 1_555
C18_14 C19_14 1_555 1_555
C19_14 C22_14 1_555 1_555
C20_14 C21_14 1_555 1_555
C21_14 C17_14 1_555 1_555
C22_14 C7_14 1_555 1_555
O22_8 C3_15 1_555 1_555
C25_14 C4_15 1_555 1_555
C26_14 C5_14 1_555 1_555
C57_14 C58_14 1_555 1_555
C58_14 C60_14 1_555 1_555
C59_14 C61_14 1_555 1_555
C60_14 C63_14 1_555 1_555
C61_14 C62_14 1_555 1_555
C62_14 C58_14 1_555 1_555
C63_14 C59_14 1_555 1_555
O13_15 Zr13_3 1_555 1_555
C64_15 C65_15 1_555 1_555
C65_15 C68_14 1_555 1_555
C66_15 O13_15 1_555 1_555
C67_15 C64_15 1_555 1_555
C68_14 C69_14 1_555 1_555
C69_14 C70_14 1_555 1_555
C70_14 C71_14 1_555 1_555
C71_14 C74_14 1_555 1_555
C72_14 C73_14 1_555 1_555
C73_14 C69_14 1_555 1_555
C74_14 C59_14 1_555 1_555
O14_11 C66_15 1_555 1_555
C75_14 C67_15 1_555 1_555
C76_14 C68_14 1_555 1_555
O20_8 Zr13_3 1_555 1_555
C3_15 C4_15 1_555 1_555
C20_14 C22_14 1_555 1_555
C25_14 C26_14 1_555 1_555
C66_15 C67_15 1_555 1_555
C72_14 C74_14 1_555 1_555
O14_11 Zr14_3 1_555 1_555
C75_14 C76_14 1_555 1_555
C2_15 H1_15 1_555 1_555
C1_15 H2_15 1_555 1_555
C25_14 H4_14 1_555 1_555
C19_14 H5_14 1_555 1_555
C20_14 H6_14 1_555 1_555
C26_14 H7_14 1_555 1_555
C11_14 H8_14 1_555 1_555
C10_14 H13_14 1_555 1_555
C18_14 H15_14 1_555 1_555
C8_14 H16_14 1_555 1_555
C9_14 H17_14 1_555 1_555
C21_14 H18_14 1_555 1_555
C76_14 H35_14 1_555 1_555
C64_15 H36_15 1_555 1_555
C65_15 H37_15 1_555 1_555
C61_14 H39_14 1_555 1_555
C62_14 H40_14 1_555 1_555
C73_14 H41_14 1_555 1_555
C63_14 H42_14 1_555 1_555
C70_14 H43_14 1_555 1_555
C71_14 H45_14 1_555 1_555
C72_14 H46_14 1_555 1_555
C60_14 H47_14 1_555 1_555
C75_14 H48_14 1_555 1_555
C55_15 O19_8 1_555 1_555
O15_8 C55_15 1_555 1_555
C55_15 C56_15 1_555 1_555
O15_8 Zr13_4 1_555 1_555
O4_15 C14_15 1_555 1_555
C14_15 C15_15 1_555 1_555
O21_9 C14_15 1_555 1_555
Zr11_3 O4_15 1_555 1_555
O17_11 Zr11_3 1_555 1_555
C1_16 C2_16 1_555 1_555
C2_16 C5_15 1_555 1_555
C5_15 C6_15 1_555 1_555
C6_15 C8_15 1_555 1_555
C7_15 C9_15 1_555 1_555
C8_15 C11_15 1_555 1_555
C9_15 C10_15 1_555 1_555
C10_15 C6_15 1_555 1_555
C11_15 C7_15 1_555 1_555
O4_16 C14_16 1_555 1_555
C12_15 C13_15 1_555 1_555
C13_15 C16_15 1_555 1_555
C14_16 C15_16 1_555 1_555
C15_16 C12_15 1_555 1_555
C16_15 C17_15 1_555 1_555
C17_15 C18_15 1_555 1_555
C18_15 C19_15 1_555 1_555
C19_15 C22_15 1_555 1_555
C20_15 C21_15 1_555 1_555
C21_15 C17_15 1_555 1_555
C22_15 C7_15 1_555 1_555
O21_10 C14_16 1_555 1_555
C23_14 C15_16 1_555 1_555
C24_14 C16_15 1_555 1_555
Zr10_3 O4_16 1_555 1_555
C53_15 C54_15 1_555 1_555
C54_15 C57_15 1_555 1_555
C55_16 O19_7 1_555 1_555
C56_16 C53_15 1_555 1_555
C57_15 C58_15 1_555 1_555
C58_15 C60_15 1_555 1_555
C59_15 C61_15 1_555 1_555
C60_15 C63_15 1_555 1_555
C61_15 C62_15 1_555 1_555
C62_15 C58_15 1_555 1_555
C63_15 C59_15 1_555 1_555
C64_16 C65_16 1_555 1_555
C65_16 C68_15 1_555 1_555
C68_15 C69_15 1_555 1_555
C69_15 C70_15 1_555 1_555
C70_15 C71_15 1_555 1_555
C71_15 C74_15 1_555 1_555
C72_15 C73_15 1_555 1_555
C73_15 C69_15 1_555 1_555
C74_15 C59_15 1_555 1_555
O20_8 C55_16 1_555 1_555
C77_14 C56_16 1_555 1_555
C78_14 C57_15 1_555 1_555
O17_12 Zr10_3 1_555 1_555
C20_15 C22_15 1_555 1_555
C23_14 C24_14 1_555 1_555
C55_16 C56_16 1_555 1_555
C72_15 C74_15 1_555 1_555
C77_14 C78_14 1_555 1_555
C2_16 H1_16 1_555 1_555
C1_16 H2_16 1_555 1_555
C23_14 H3_14 1_555 1_555
C19_15 H5_15 1_555 1_555
C20_15 H6_15 1_555 1_555
C11_15 H8_15 1_555 1_555
C24_14 H9_14 1_555 1_555
C12_15 H10_15 1_555 1_555
C10_15 H13_15 1_555 1_555
C13_15 H14_15 1_555 1_555
C18_15 H15_15 1_555 1_555
C8_15 H16_15 1_555 1_555
C9_15 H17_15 1_555 1_555
C21_15 H18_15 1_555 1_555
C54_15 H20_15 1_555 1_555
C53_15 H23_15 1_555 1_555
C64_16 H36_16 1_555 1_555
C65_16 H37_16 1_555 1_555
C78_14 H38_14 1_555 1_555
C61_15 H39_15 1_555 1_555
C62_15 H40_15 1_555 1_555
C73_15 H41_15 1_555 1_555
C63_15 H42_15 1_555 1_555
C70_15 H43_15 1_555 1_555
C77_14 H44_14 1_555 1_555
C71_15 H45_15 1_555 1_555
C72_15 H46_15 1_555 1_555
C60_15 H47_15 1_555 1_555
O1_12 Zr13_4 1_555 1_555
C3_16 O1_12 1_555 1_555
O22_7 C3_16 1_555 1_555
C25_15 C4_16 1_555 1_555
O13_16 Zr13_4 1_555 1_555
C66_16 O13_16 1_555 1_555
O14_12 C66_16 1_555 1_555
C75_15 C67_16 1_555 1_555
C3_16 C4_16 1_555 1_555
C25_15 C26_15 1_555 1_555
C66_16 C67_16 1_555 1_555
O14_12 Zr14_4 1_555 1_555
C75_15 C76_15 1_555 1_555
C25_15 H4_15 1_555 1_555
C26_15 H7_15 1_555 1_555
C76_15 H35_15 1_555 1_555
C75_15 H48_15 1_555 1_555
C31_12 C32_12 1_555 1_555
C32_12 C34_12 1_555 1_555
C33_12 C35_12 1_555 1_555
C34_12 C37_12 1_555 1_555
C35_12 C36_12 1_555 1_555
C36_12 C32_12 1_555 1_555
C37_12 C33_12 1_555 1_555
O9_13 C40_13 1_555 1_555
C38_13 C39_13 1_555 1_555
C39_13 C42_12 1_555 1_555
C40_13 C41_13 1_555 1_555
C41_13 C38_13 1_555 1_555
C42_12 C43_12 1_555 1_555
C43_12 C44_12 1_555 1_555
C44_12 C45_12 1_555 1_555
C45_12 C48_12 1_555 1_555
C46_12 C47_12 1_555 1_555
C47_12 C43_12 1_555 1_555
C48_12 C33_12 1_555 1_555
O17_10 C40_13 1_555 1_555
C49_12 C41_13 1_555 1_555
C50_12 C42_12 1_555 1_555
Zr14_3 O9_13 1_555 1_555
O18_7 Zr14_3 1_555 1_555
C46_12 C48_12 1_555 1_555
C49_12 C50_12 1_555 1_555
C38_13 H21_13 1_555 1_555
C47_12 H22_12 1_555 1_555
C35_12 H24_12 1_555 1_555
C45_12 H25_12 1_555 1_555
C39_13 H26_13 1_555 1_555
C44_12 H27_12 1_555 1_555
C46_12 H28_12 1_555 1_555
C50_12 H29_12 1_555 1_555
C34_12 H30_12 1_555 1_555
C37_12 H32_12 1_555 1_555
C36_12 H33_12 1_555 1_555
C49_12 H34_12 1_555 1_555
C29_13 O17_7 1_555 1_555
O11_7 C29_13 1_555 1_555
C29_13 C30_13 1_555 1_555
O11_7 Zr15_4 1_555 1_555
C27_13 C28_13 1_555 1_555
C28_13 C31_13 1_555 1_555
C29_14 O17_8 1_555 1_555
C30_14 C27_13 1_555 1_555
C31_13 C32_13 1_555 1_555
C32_13 C34_13 1_555 1_555
C33_13 C35_13 1_555 1_555
C34_13 C37_13 1_555 1_555
C35_13 C36_13 1_555 1_555
C36_13 C32_13 1_555 1_555
C37_13 C33_13 1_555 1_555
O9_14 C40_14 1_555 1_555
C38_14 C39_14 1_555 1_555
C39_14 C42_13 1_555 1_555
C40_14 C41_14 1_555 1_555
C41_14 C38_14 1_555 1_555
C42_13 C43_13 1_555 1_555
C43_13 C44_13 1_555 1_555
C44_13 C45_13 1_555 1_555
C45_13 C48_13 1_555 1_555
C46_13 C47_13 1_555 1_555
C47_13 C43_13 1_555 1_555
C48_13 C33_13 1_555 1_555
O17_9 C40_14 1_555 1_555
C49_13 C41_14 1_555 1_555
C50_13 C42_13 1_555 1_555
O11_8 C29_14 1_555 1_555
C51_12 C30_14 1_555 1_555
C52_12 C31_13 1_555 1_555
Zr14_4 O9_14 1_555 1_555
O18_8 Zr14_4 1_555 1_555
C29_14 C30_14 1_555 1_555
C46_13 C48_13 1_555 1_555
C49_13 C50_13 1_555 1_555
O11_8 Zr15_3 1_555 1_555
C51_12 C52_12 1_555 1_555
C27_13 H11_13 1_555 1_555
C28_13 H12_13 1_555 1_555
C52_12 H19_12 1_555 1_555
C38_14 H21_14 1_555 1_555
C47_13 H22_13 1_555 1_555
C35_13 H24_13 1_555 1_555
C45_13 H25_13 1_555 1_555
C39_14 H26_14 1_555 1_555
C44_13 H27_13 1_555 1_555
C46_13 H28_13 1_555 1_555
C50_13 H29_13 1_555 1_555
C34_13 H30_13 1_555 1_555
C51_12 H31_12 1_555 1_555
C37_13 H32_13 1_555 1_555
C36_13 H33_13 1_555 1_555
C49_13 H34_13 1_555 1_555
C27_14 C28_14 1_555 1_555
C28_14 C31_14 1_555 1_555
C29_15 O17_5 1_555 1_555
C30_15 C27_14 1_555 1_555
C31_14 C32_14 1_555 1_555
C32_14 C34_14 1_555 1_555
C33_14 C35_14 1_555 1_555
C34_14 C37_14 1_555 1_555
C35_14 C36_14 1_555 1_555
C36_14 C32_14 1_555 1_555
C37_14 C33_14 1_555 1_555
C38_15 C39_15 1_555 1_555
C39_15 C42_14 1_555 1_555
C42_14 C43_14 1_555 1_555
C43_14 C44_14 1_555 1_555
C44_14 C45_14 1_555 1_555
C45_14 C48_14 1_555 1_555
C46_14 C47_14 1_555 1_555
C47_14 C43_14 1_555 1_555
C48_14 C33_14 1_555 1_555
O18_7 C29_15 1_555 1_555
C51_13 C30_15 1_555 1_555
C52_13 C31_14 1_555 1_555
C29_15 C30_15 1_555 1_555
C46_14 C48_14 1_555 1_555
C51_13 C52_13 1_555 1_555
C27_14 H11_14 1_555 1_555
C28_14 H12_14 1_555 1_555
C52_13 H19_13 1_555 1_555
C38_15 H21_15 1_555 1_555
C47_14 H22_14 1_555 1_555
C35_14 H24_14 1_555 1_555
C45_14 H25_14 1_555 1_555
C39_15 H26_15 1_555 1_555
C44_14 H27_14 1_555 1_555
C46_14 H28_14 1_555 1_555
C34_14 H30_14 1_555 1_555
C51_13 H31_13 1_555 1_555
C37_14 H32_14 1_555 1_555
C36_14 H33_14 1_555 1_555
O9_15 C40_15 1_555 1_555
C40_15 C41_15 1_555 1_555
O17_12 C40_15 1_555 1_555
C49_14 C41_15 1_555 1_555
Zr15_4 O9_15 1_555 1_555
C49_14 C50_14 1_555 1_555
C50_14 H29_14 1_555 1_555
C49_14 H34_14 1_555 1_555
C27_15 C28_15 1_555 1_555
C28_15 C31_15 1_555 1_555
C29_16 O17_6 1_555 1_555
C30_16 C27_15 1_555 1_555
C31_15 C32_15 1_555 1_555
C32_15 C34_15 1_555 1_555
C33_15 C35_15 1_555 1_555
C34_15 C37_15 1_555 1_555
C35_15 C36_15 1_555 1_555
C36_15 C32_15 1_555 1_555
C37_15 C33_15 1_555 1_555
C42_15 C43_15 1_555 1_555
C43_15 C44_15 1_555 1_555
C44_15 C45_15 1_555 1_555
C45_15 C48_15 1_555 1_555
C46_15 C47_15 1_555 1_555
C47_15 C43_15 1_555 1_555
C48_15 C33_15 1_555 1_555
C50_15 C42_15 1_555 1_555
O18_8 C29_16 1_555 1_555
C51_14 C30_16 1_555 1_555
C52_14 C31_15 1_555 1_555
C29_16 C30_16 1_555 1_555
C46_15 C48_15 1_555 1_555
C49_15 C50_15 1_555 1_555
C51_14 C52_14 1_555 1_555
C27_15 H11_15 1_555 1_555
C28_15 H12_15 1_555 1_555
C52_14 H19_14 1_555 1_555
C47_15 H22_15 1_555 1_555
C35_15 H24_15 1_555 1_555
C45_15 H25_15 1_555 1_555
C44_15 H27_15 1_555 1_555
C46_15 H28_15 1_555 1_555
C50_15 H29_15 1_555 1_555
C34_15 H30_15 1_555 1_555
C51_14 H31_14 1_555 1_555
C37_15 H32_15 1_555 1_555
C36_15 H33_15 1_555 1_555
C49_15 H34_15 1_555 1_555
O9_16 C40_16 1_555 1_555
C38_16 C39_16 1_555 1_555
C40_16 C41_16 1_555 1_555
C41_16 C38_16 1_555 1_555
O17_11 C40_16 1_555 1_555
Zr15_3 O9_16 1_555 1_555
C38_16 H21_16 1_555 1_555
C39_16 H26_16 1_555 1_555
C5_16 C6_16 1_555 1_555
C6_16 C8_16 1_555 1_555
C7_16 C9_16 1_555 1_555
C8_16 C11_16 1_555 1_555
C9_16 C10_16 1_555 1_555
C10_16 C6_16 1_555 1_555
C11_16 C7_16 1_555 1_555
C16_16 C17_16 1_555 1_555
C17_16 C18_16 1_555 1_555
C18_16 C19_16 1_555 1_555
C19_16 C22_16 1_555 1_555
C20_16 C21_16 1_555 1_555
C21_16 C17_16 1_555 1_555
C22_16 C7_16 1_555 1_555
C24_15 C16_16 1_555 1_555
C26_16 C5_16 1_555 1_555
C20_16 C22_16 1_555 1_555
C23_15 C24_15 1_555 1_555
C25_16 C26_16 1_555 1_555
C23_15 H3_15 1_555 1_555
C25_16 H4_16 1_555 1_555
C19_16 H5_16 1_555 1_555
C20_16 H6_16 1_555 1_555
C26_16 H7_16 1_555 1_555
C11_16 H8_16 1_555 1_555
C24_15 H9_15 1_555 1_555
C10_16 H13_16 1_555 1_555
C18_16 H15_16 1_555 1_555
C8_16 H16_16 1_555 1_555
C9_16 H17_16 1_555 1_555
C21_16 H18_16 1_555 1_555
C77_15 C78_15 1_555 1_555
C78_15 H38_15 1_555 1_555
C77_15 H44_15 1_555 1_555
C27_16 C28_16 1_555 1_555
C27_16 H11_16 1_555 1_555
C28_16 H12_16 1_555 1_555
C31_16 C32_16 1_555 1_555
C32_16 C34_16 1_555 1_555
C33_16 C35_16 1_555 1_555
C34_16 C37_16 1_555 1_555
C35_16 C36_16 1_555 1_555
C36_16 C32_16 1_555 1_555
C37_16 C33_16 1_555 1_555
C42_16 C43_16 1_555 1_555
C43_16 C44_16 1_555 1_555
C44_16 C45_16 1_555 1_555
C45_16 C48_16 1_555 1_555
C46_16 C47_16 1_555 1_555
C47_16 C43_16 1_555 1_555
C48_16 C33_16 1_555 1_555
C50_16 C42_16 1_555 1_555
C52_15 C31_16 1_555 1_555
C46_16 C48_16 1_555 1_555
C49_16 C50_16 1_555 1_555
C51_15 C52_15 1_555 1_555
C52_15 H19_15 1_555 1_555
C47_16 H22_16 1_555 1_555
C35_16 H24_16 1_555 1_555
C45_16 H25_16 1_555 1_555
C44_16 H27_16 1_555 1_555
C46_16 H28_16 1_555 1_555
C50_16 H29_16 1_555 1_555
C34_16 H30_16 1_555 1_555
C51_15 H31_15 1_555 1_555
C37_16 H32_16 1_555 1_555
C36_16 H33_16 1_555 1_555
C49_16 H34_16 1_555 1_555
C12_16 C13_16 1_555 1_555
C53_16 C54_16 1_555 1_555
C12_16 H10_16 1_555 1_555
C13_16 H14_16 1_555 1_555
C54_16 H20_16 1_555 1_555
C53_16 H23_16 1_555 1_555
C57_16 C58_16 1_555 1_555
C58_16 C60_16 1_555 1_555
C59_16 C61_16 1_555 1_555
C60_16 C63_16 1_555 1_555
C61_16 C62_16 1_555 1_555
C62_16 C58_16 1_555 1_555
C63_16 C59_16 1_555 1_555
C68_16 C69_16 1_555 1_555
C69_16 C70_16 1_555 1_555
C70_16 C71_16 1_555 1_555
C71_16 C74_16 1_555 1_555
C72_16 C73_16 1_555 1_555
C73_16 C69_16 1_555 1_555
C74_16 C59_16 1_555 1_555
C76_16 C68_16 1_555 1_555
C78_16 C57_16 1_555 1_555
C72_16 C74_16 1_555 1_555
C75_16 C76_16 1_555 1_555
C77_16 C78_16 1_555 1_555
C76_16 H35_16 1_555 1_555
C78_16 H38_16 1_555 1_555
C61_16 H39_16 1_555 1_555
C62_16 H40_16 1_555 1_555
C73_16 H41_16 1_555 1_555
C63_16 H42_16 1_555 1_555
C70_16 H43_16 1_555 1_555
C77_16 H44_16 1_555 1_555
C71_16 H45_16 1_555 1_555
C72_16 H46_16 1_555 1_555
C60_16 H47_16 1_555 1_555
C75_16 H48_16 1_555 1_555
C23_16 C24_16 1_555 1_555
C23_16 H3_16 1_555 1_555
C24_16 H9_16 1_555 1_555
C51_16 C52_16 1_555 1_555
C52_16 H19_16 1_555 1_555
C51_16 H31_16 1_555 1_555

#END
