
###############################################################################
#
# This file contains modified crystal structure data generated from the
# MOF subset of the Cambridge Structural Database (CSD) v543 
# hosted by the Cambridge Crystallographic Data Centre (CCDC).
#
# This work is licensed under the Creative Commons
# Attribution-NonCommercial-ShareAlike 4.0 International License.
# To view a copy of this license, visit
# http://creativecommons.org/licenses/by-nc-sa/4.0/
# or send a letter to
# Creative Commons, PO Box 1866, Mountain View, CA 94042, USA.
#
# CIF created using the CSD Python API on 29 September 2022
# The structure has been converted into the P1 space group
# The structure has a 3D framework
# The original CSD entry YOKKIU is in the monoclinic crystal system
# The framework has been calculated to contain at least 10.0% void space
# The void calculation uses a probe of radius 1.32A, grid spacing 0.4
#
###############################################################################

data_YOKKIU
_chemical_formula_moiety         '(C164 H124 Co18 N24 O56)n'
_symmetry_cell_setting           triclinic
_symmetry_space_group_name_H-M   'P 1'
_symmetry_Int_Tables_number      1
_space_group_name_Hall           'P 1'
loop_
_symmetry_equiv_pos_site_id
_symmetry_equiv_pos_as_xyz
1 x,y,z
_cell_length_a                   12.329(3)
_cell_length_b                   21.690(4)
_cell_length_c                   17.435(4)
_cell_angle_alpha                90
_cell_angle_beta                 96.32(3)
_cell_angle_gamma                90
_cell_volume                     4634.06
loop_
_atom_site_label
_atom_site_type_symbol
_atom_site_fract_x
_atom_site_fract_y
_atom_site_fract_z
C20 C 0.0026(16) 0.4501(10) 0.8617(12)
H13 H 0.0262 0.4927 0.8673
C21 C 0.0945(19) 0.4077(10) 0.8802(13)
H14 H 0.1311 0.4176 0.9301
H15 H 0.1446 0.4115 0.8421
H16 H 0.0677 0.3661 0.8804
Co1 Co 0.7500 0.2500 0.0000
C1 C 0.7868(5) 0.4036(3) 0.1237(3)
C2 C 0.8462(5) 0.3636(3) 0.1749(4)
H1 H 0.8779 0.3285 0.1565
C3 C 0.8579(6) 0.3762(3) 0.2530(4)
H2 H 0.8971 0.3494 0.2872
C4 C 0.8116(6) 0.4283(3) 0.2805(4)
H3 H 0.8219 0.4372 0.3330
C5 C 0.7493(6) 0.4680(3) 0.2303(3)
C6 C 0.7366(5) 0.4548(3) 0.1516(3)
H4 H 0.6943 0.4804 0.1177
C7 C 0.7760(5) 0.3911(3) 0.0385(3)
C8 C 0.6957(7) 0.5242(3) 0.2598(4)
C9 C 0.5000 0.2308(4) 0.2500
H5 H 0.5000 0.1880 0.2500
C10 C 0.5615(5) 0.2627(3) 0.2010(3)
C11 C 0.5604(6) 0.3266(3) 0.2010(4)
H6 H 0.6006 0.3483 0.1678
C12 C 0.5000 0.3578(5) 0.2500
H7 H 0.5000 0.4007 0.2500
C13 C 0.6312(4) 0.2291(3) 0.1488(3)
O2 O 0.8100(3) 0.34178(18) 0.0128(2)
O3 O 0.6159(6) 0.5459(3) 0.2191(3)
O4 O 0.7357(6) 0.5439(3) 0.3239(3)
O5 O 0.6646(4) 0.25990(19) 0.0948(2)
O6 O 0.6489(4) 0.17288(19) 0.1623(2)
C22 C 0.4385(5) 0.2627(3) 0.2990(3)
C23 C 0.4396(6) 0.3266(3) 0.2990(4)
H17 H 0.3994 0.3483 0.3322
C24 C 0.3688(4) 0.2291(3) 0.3512(3)
O8 O 0.3354(4) 0.25990(19) 0.4052(2)
O9 O 0.3511(4) 0.17288(19) 0.3377(2)
Co6 Co 0.2500 0.2500 0.5000
Co8 Co 0.76365(8) 0.61574(4) 0.39318(4)
Co9 Co 0.73635(8) 0.11574(4) 0.10682(4)
Co10 Co 0.26365(8) 0.11574(4) 0.39318(4)
Co12 Co 0.5000 0.59771(6) 0.2500
N7 N 0.8871(4) 0.2136(2) 0.0690(3)
Co1_2 Co 0.7500 0.2500 1.0000
Co2 Co 0.76365(8) 0.38426(4) 0.89318(4)
Co3 Co 0.5000 0.40229(6) 0.7500
C14 C 0.4500(5) 0.3014(3) 0.8638(4)
C15 C 0.3395(6) 0.2964(4) 0.8380(5)
H8 H 0.3050 0.3216 0.7995
C16 C 0.2836(7) 0.2497(4) 0.8750(5)
H9 H 0.2097 0.2432 0.8602
C17 C 0.3382(6) 0.2133(4) 0.9337(5)
H10 H 0.2996 0.1833 0.9575
C18 C 0.4491(6) 0.2212(4) 0.9569(5)
H11 H 0.4850 0.1969 0.9956
C19 C 0.5044(6) 0.2665(3) 0.9204(4)
H12 H 0.9684 0.4437 0.8095
N1 N 0.5280(5) 0.3446(3) 0.8406(3)
N2 N 0.6192(5) 0.3323(3) 0.8827(3)
N3 N 0.6129(4) 0.2864(2) 0.9310(3)
O1 O 0.7353(5) 0.4317(2) 0.9925(3)
O7 O 0.9264(7) 0.4337(4) 0.9201(5)
Co4 Co 0.23635(8) 0.38426(4) 0.60682(4)
C25 C 0.2132(5) 0.4036(3) 0.3763(3)
C26 C 0.1538(5) 0.3636(3) 0.3251(4)
H18 H 0.1221 0.3285 0.3435
C27 C 0.1421(6) 0.3762(3) 0.2470(4)
H19 H 0.1029 0.3494 0.2128
C28 C 0.1884(6) 0.4283(3) 0.2195(4)
H20 H 0.1781 0.4372 0.1670
C29 C 0.2507(6) 0.4680(3) 0.2697(3)
C30 C 0.2634(5) 0.4548(3) 0.3484(3)
H21 H 0.3057 0.4804 0.3823
C31 C 0.2240(5) 0.3911(3) 0.4615(3)
C32 C 0.3043(7) 0.5242(3) 0.2402(4)
C33 C 0.5500(5) 0.3014(3) 0.6362(4)
C34 C 0.6605(6) 0.2964(4) 0.6620(5)
H22 H 0.6950 0.3216 0.7005
C35 C 0.7164(7) 0.2497(4) 0.6250(5)
H23 H 0.7903 0.2432 0.6398
C36 C 0.6618(6) 0.2133(4) 0.5663(5)
H24 H 0.7004 0.1833 0.5425
C37 C 0.5509(6) 0.2212(4) 0.5431(5)
H25 H 0.5150 0.1969 0.5044
C38 C 0.4956(6) 0.2665(3) 0.5796(4)
H26 H 0.0316 0.4437 0.6905
N4 N 0.4720(5) 0.3446(3) 0.6594(3)
N5 N 0.3808(5) 0.3323(3) 0.6173(3)
N6 N 0.3871(4) 0.2864(2) 0.5690(3)
O10 O 0.2647(5) 0.4317(2) 0.5075(3)
O11 O 0.1900(3) 0.34178(18) 0.4872(2)
O12 O 0.3841(6) 0.5459(3) 0.2809(3)
O13 O 0.2643(6) 0.5439(3) 0.1761(3)
O14 O 0.0736(7) 0.4337(4) 0.5799(5)
Co7 Co 0.23635(8) 0.61574(4) 0.10682(4)
O15 O 0.6900(3) 0.15822(18) 0.9872(2)
O16 O 0.3841(6) 0.4541(3) 0.7809(3)
O17 O 0.6159(6) 0.4541(3) 0.7191(3)
O18 O 0.2643(6) 0.4561(3) 0.6761(3)
O19 O 0.7357(6) 0.4561(3) 0.8239(3)
O20 O 0.8354(4) 0.24010(19) 0.9052(2)
O21 O 0.8511(4) 0.32712(19) 0.8377(2)
O22 O 0.1489(4) 0.32712(19) 0.6623(2)
N7_2 N 0.1129(4) 0.2136(2) 0.4310(3)
O15_2 O 0.3100(3) 0.15822(18) 0.5128(2)
O20_2 O 0.1646(4) 0.24010(19) 0.5948(2)
C8_2 C 0.1957(7) 0.0242(3) 0.2598(4)
O3_2 O 0.1159(6) 0.0459(3) 0.2191(3)
O4_2 O 0.2357(6) 0.0439(3) 0.3239(3)
Co12_2 Co -0.0000 0.09771(6) 0.2500
Co1_3 Co 0.2500 0.7500 0.0000
C1_2 C 0.2868(5) 0.9036(3) 0.1237(3)
C2_2 C 0.3462(5) 0.8636(3) 0.1749(4)
H1_2 H 0.3779 0.8285 0.1565
C3_2 C 0.3579(6) 0.8762(3) 0.2530(4)
H2_2 H 0.3971 0.8494 0.2872
C4_2 C 0.3116(6) 0.9283(3) 0.2805(4)
H3_2 H 0.3219 0.9372 0.3330
C5_2 C 0.2493(6) 0.9680(3) 0.2303(3)
C6_2 C 0.2366(5) 0.9548(3) 0.1516(3)
H4_2 H 0.1943 0.9804 0.1177
C7_2 C 0.2760(5) 0.8911(3) 0.0385(3)
C9_2 C -0.0000 0.7308(4) 0.2500
H5_2 H -0.0000 0.6880 0.2500
C10_2 C 0.0615(5) 0.7627(3) 0.2010(3)
C11_2 C 0.0604(6) 0.8266(3) 0.2010(4)
H6_2 H 0.1006 0.8483 0.1678
C12_2 C -0.0000 0.8578(5) 0.2500
H7_2 H -0.0000 0.9007 0.2500
C13_2 C 0.1312(4) 0.7291(3) 0.1488(3)
O2_2 O 0.3100(3) 0.84178(18) 0.0128(2)
O5_2 O 0.1646(4) 0.75990(19) 0.0948(2)
O6_2 O 0.1489(4) 0.67288(19) 0.1623(2)
N7_3 N 0.3871(4) 0.7136(2) 0.0690(3)
Co1_4 Co 0.2500 0.7500 1.0000
Co2_2 Co 0.26365(8) 0.88426(4) 0.89318(4)
Co3_2 Co -0.0000 0.90229(6) 0.7500
C19_2 C 0.0044(6) 0.7665(3) 0.9204(4)
C20_2 C 0.5026(16) 0.9501(10) 0.8617(12)
H12_2 H 0.4684 0.9437 0.8095
H13_2 H 0.5262 0.9927 0.8673
C21_2 C 0.5945(19) 0.9077(10) 0.8802(13)
H14_2 H 0.6311 0.9176 0.9301
H15_2 H 0.6446 0.9115 0.8421
H16_2 H 0.5677 0.8661 0.8804
N1_2 N 0.0280(5) 0.8446(3) 0.8406(3)
N2_2 N 0.1192(5) 0.8323(3) 0.8827(3)
N3_2 N 0.1129(4) 0.7864(2) 0.9310(3)
O1_2 O 0.2353(5) 0.9317(2) 0.9925(3)
O7_2 O 0.4264(7) 0.9337(4) 0.9201(5)
C33_2 C 0.0500(5) 0.8014(3) 0.6362(4)
C34_2 C 0.1605(6) 0.7964(4) 0.6620(5)
H22_2 H 0.1950 0.8216 0.7005
C35_2 C 0.2164(7) 0.7497(4) 0.6250(5)
H23_2 H 0.2903 0.7432 0.6398
C36_2 C 0.1618(6) 0.7133(4) 0.5663(5)
H24_2 H 0.2004 0.6833 0.5425
C37_2 C 0.0509(6) 0.7212(4) 0.5431(5)
H25_2 H 0.0150 0.6969 0.5044
O15_3 O 0.1900(3) 0.65822(18) 0.9872(2)
O17_2 O 0.1159(6) 0.9541(3) 0.7191(3)
O19_2 O 0.2357(6) 0.9561(3) 0.8239(3)
O20_3 O 0.3354(4) 0.74010(19) 0.9052(2)
O21_2 O 0.3511(4) 0.82712(19) 0.8377(2)
Co12_3 Co 1.0000 0.09771(6) 0.2500
C32_2 C 0.8043(7) 0.0242(3) 0.2402(4)
O12_2 O 0.8841(6) 0.0459(3) 0.2809(3)
O13_2 O 0.7643(6) 0.0439(3) 0.1761(3)
C9_3 C 1.0000 0.7308(4) 0.2500
H5_3 H 1.0000 0.6880 0.2500
C12_3 C 1.0000 0.8578(5) 0.2500
H7_3 H 1.0000 0.9007 0.2500
C22_2 C 0.9385(5) 0.7627(3) 0.2990(3)
C23_2 C 0.9396(6) 0.8266(3) 0.2990(4)
H17_2 H 0.8994 0.8483 0.3322
C24_2 C 0.8688(4) 0.7291(3) 0.3512(3)
O8_2 O 0.8354(4) 0.75990(19) 0.4052(2)
O9_2 O 0.8511(4) 0.67288(19) 0.3377(2)
Co6_2 Co 0.7500 0.7500 0.5000
Co3_3 Co 1.0000 0.90229(6) 0.7500
C14_2 C 0.9500(5) 0.8014(3) 0.8638(4)
C15_2 C 0.8395(6) 0.7964(4) 0.8380(5)
H8_2 H 0.8050 0.8216 0.7995
C16_2 C 0.7836(7) 0.7497(4) 0.8750(5)
H9_2 H 0.7097 0.7432 0.8602
C17_2 C 0.8382(6) 0.7133(4) 0.9337(5)
H10_2 H 0.7996 0.6833 0.9575
C18_2 C 0.9491(6) 0.7212(4) 0.9569(5)
H11_2 H 0.9850 0.6969 0.9956
Co4_2 Co 0.73635(8) 0.88426(4) 0.60682(4)
C25_2 C 0.7132(5) 0.9036(3) 0.3763(3)
C26_2 C 0.6538(5) 0.8636(3) 0.3251(4)
H18_2 H 0.6221 0.8285 0.3435
C27_2 C 0.6421(6) 0.8762(3) 0.2470(4)
H19_2 H 0.6029 0.8494 0.2128
C28_2 C 0.6884(6) 0.9283(3) 0.2195(4)
H20_2 H 0.6781 0.9372 0.1670
C29_2 C 0.7507(6) 0.9680(3) 0.2697(3)
C30_2 C 0.7634(5) 0.9548(3) 0.3484(3)
H21_2 H 0.8057 0.9804 0.3823
C31_2 C 0.7240(5) 0.8911(3) 0.4615(3)
C38_2 C 0.9956(6) 0.7665(3) 0.5796(4)
C39 C 0.4974(16) 0.9501(10) 0.6383(12)
H26_2 H 0.5316 0.9437 0.6905
H27 H 0.4738 0.9927 0.6327
C40 C 0.4055(19) 0.9077(10) 0.6198(13)
H28 H 0.3689 0.9176 0.5699
H29 H 0.3554 0.9115 0.6579
H30 H 0.4323 0.8661 0.6196
N4_2 N 0.9720(5) 0.8446(3) 0.6594(3)
N5_2 N 0.8808(5) 0.8323(3) 0.6173(3)
N6_2 N 0.8871(4) 0.7864(2) 0.5690(3)
O10_2 O 0.7647(5) 0.9317(2) 0.5075(3)
O11_2 O 0.6900(3) 0.84178(18) 0.4872(2)
O14_2 O 0.5736(7) 0.9337(4) 0.5799(5)
O16_2 O 0.8841(6) 0.9541(3) 0.7809(3)
O18_2 O 0.7643(6) 0.9561(3) 0.6761(3)
O22_2 O 0.6489(4) 0.82712(19) 0.6623(2)
N7_4 N 0.6129(4) 0.7136(2) 0.4310(3)
O15_4 O 0.8100(3) 0.65822(18) 0.5128(2)
O20_4 O 0.6646(4) 0.74010(19) 0.5948(2)
C14_3 C 0.5500(5) 0.6986(3) 0.1362(4)
C15_3 C 0.6605(6) 0.7036(4) 0.1620(5)
H8_3 H 0.6950 0.6784 0.2005
C16_3 C 0.7164(7) 0.7503(4) 0.1250(5)
H9_3 H 0.7903 0.7568 0.1398
C17_3 C 0.6618(6) 0.7867(4) 0.0663(5)
H10_3 H 0.7004 0.8167 0.0425
C18_3 C 0.5509(6) 0.7788(4) 0.0431(5)
H11_3 H 0.5150 0.8031 0.0044
C19_3 C 0.4956(6) 0.7335(3) 0.0796(4)
H12_3 H 0.0316 0.5563 0.1905
N1_3 N 0.4720(5) 0.6554(3) 0.1594(3)
N2_3 N 0.3808(5) 0.6677(3) 0.1173(3)
O1_3 O 0.2647(5) 0.5683(2) 0.0075(3)
O7_3 O 0.0736(7) 0.5663(4) 0.0799(5)
C25_3 C 0.7868(5) 0.5964(3) 0.6237(3)
C26_3 C 0.8462(5) 0.6364(3) 0.6749(4)
H18_3 H 0.8779 0.6715 0.6565
C27_3 C 0.8579(6) 0.6238(3) 0.7530(4)
H19_3 H 0.8971 0.6506 0.7872
C28_3 C 0.8116(6) 0.5717(3) 0.7805(4)
H20_3 H 0.8219 0.5628 0.8330
C29_3 C 0.7493(6) 0.5320(3) 0.7303(3)
C30_3 C 0.7366(5) 0.5452(3) 0.6516(3)
H21_3 H 0.6943 0.5196 0.6177
C31_3 C 0.7760(5) 0.6089(3) 0.5385(3)
C32_3 C 0.6957(7) 0.4758(3) 0.7598(4)
C33_3 C 0.4500(5) 0.6986(3) 0.3638(4)
C34_3 C 0.3395(6) 0.7036(4) 0.3380(5)
H22_3 H 0.3050 0.6784 0.2995
C35_3 C 0.2836(7) 0.7503(4) 0.3750(5)
H23_3 H 0.2097 0.7568 0.3602
C36_3 C 0.3382(6) 0.7867(4) 0.4337(5)
H24_3 H 0.2996 0.8167 0.4575
C37_3 C 0.4491(6) 0.7788(4) 0.4569(5)
H25_3 H 0.4850 0.8031 0.4956
C38_3 C 0.5044(6) 0.7335(3) 0.4204(4)
H26_3 H 0.9684 0.5563 0.3095
N4_3 N 0.5280(5) 0.6554(3) 0.3406(3)
N5_3 N 0.6192(5) 0.6677(3) 0.3827(3)
O10_3 O 0.7353(5) 0.5683(2) 0.4925(3)
O14_3 O 0.9264(7) 0.5663(4) 0.4201(5)
C1_3 C 0.2132(5) 0.5964(3) 0.8763(3)
C2_3 C 0.1538(5) 0.6364(3) 0.8251(4)
H1_3 H 0.1221 0.6715 0.8435
C3_3 C 0.1421(6) 0.6238(3) 0.7470(4)
H2_3 H 0.1029 0.6506 0.7128
C4_3 C 0.1884(6) 0.5717(3) 0.7195(4)
H3_3 H 0.1781 0.5628 0.6670
C5_3 C 0.2507(6) 0.5320(3) 0.7697(3)
C6_3 C 0.2634(5) 0.5452(3) 0.8484(3)
H4_3 H 0.3057 0.5196 0.8823
C7_3 C 0.2240(5) 0.6089(3) 0.9615(3)
C8_3 C 0.3043(7) 0.4758(3) 0.7402(4)
C9_4 C 0.5000 0.7692(4) 0.7500
H5_4 H 0.5000 0.8120 0.7500
C10_3 C 0.4385(5) 0.7373(3) 0.7990(3)
C11_3 C 0.4396(6) 0.6734(3) 0.7990(4)
H6_3 H 0.3994 0.6517 0.8322
C12_4 C 0.5000 0.6422(5) 0.7500
H7_4 H 0.5000 0.5993 0.7500
C13_3 C 0.3688(4) 0.7709(3) 0.8512(3)
C22_3 C 0.5615(5) 0.7373(3) 0.7010(3)
C23_3 C 0.5604(6) 0.6734(3) 0.7010(4)
H17_3 H 0.6006 0.6517 0.6678
C24_3 C 0.6312(4) 0.7709(3) 0.6488(3)
C14_4 C 0.0500(5) 0.1986(3) 0.1362(4)
C15_4 C 0.1605(6) 0.2036(4) 0.1620(5)
H8_4 H 0.1950 0.1784 0.2005
C16_4 C 0.2164(7) 0.2503(4) 0.1250(5)
H9_4 H 0.2903 0.2568 0.1398
C17_4 C 0.1618(6) 0.2867(4) 0.0663(5)
H10_4 H 0.2004 0.3167 0.0425
C18_4 C 0.0509(6) 0.2788(4) 0.0431(5)
H11_4 H 0.0150 0.3031 0.0044
C25_4 C 0.2868(5) 0.0964(3) 0.6237(3)
C26_4 C 0.3462(5) 0.1364(3) 0.6749(4)
H18_4 H 0.3779 0.1715 0.6565
C27_4 C 0.3579(6) 0.1238(3) 0.7530(4)
H19_4 H 0.3971 0.1506 0.7872
C28_4 C 0.3116(6) 0.0717(3) 0.7805(4)
H20_4 H 0.3219 0.0628 0.8330
C29_4 C 0.2493(6) 0.0320(3) 0.7303(3)
C30_4 C 0.2366(5) 0.0452(3) 0.6516(3)
H21_4 H 0.1943 0.0196 0.6177
C31_4 C 0.2760(5) 0.1089(3) 0.5385(3)
C38_4 C 0.0044(6) 0.2335(3) 0.4204(4)
C39_2 C 0.5026(16) 0.0499(10) 0.3617(12)
H26_4 H 0.4684 0.0563 0.3095
H27_2 H 0.5262 0.0073 0.3673
C40_2 C 0.5945(19) 0.0923(10) 0.3802(13)
H28_2 H 0.6311 0.0824 0.4301
H29_2 H 0.6446 0.0885 0.3421
H30_2 H 0.5677 0.1339 0.3804
N4_4 N 0.0280(5) 0.1554(3) 0.3406(3)
N5_4 N 0.1192(5) 0.1677(3) 0.3827(3)
O10_4 O 0.2353(5) 0.0683(2) 0.4925(3)
O14_4 O 0.4264(7) 0.0663(4) 0.4201(5)
C9_5 C -0.0000 0.2692(4) 0.7500
H5_5 H -0.0000 0.3120 0.7500
C12_5 C -0.0000 0.1422(5) 0.7500
H7_5 H -0.0000 0.0993 0.7500
C22_4 C 0.0615(5) 0.2373(3) 0.7010(3)
C23_4 C 0.0604(6) 0.1734(3) 0.7010(4)
H17_4 H 0.1006 0.1517 0.6678
C24_4 C 0.1312(4) 0.2709(3) 0.6488(3)
C32_4 C 0.1957(7) 0.9758(3) 0.7598(4)
C19_4 C 0.9956(6) 0.2335(3) 0.0796(4)
C20_3 C 0.4974(16) 0.0499(10) 0.1383(12)
H12_4 H 0.5316 0.0563 0.1905
H13_3 H 0.4738 0.0073 0.1327
C21_3 C 0.4055(19) 0.0923(10) 0.1198(13)
H14_3 H 0.3689 0.0824 0.0699
H15_3 H 0.3554 0.0885 0.1579
H16_3 H 0.4323 0.1339 0.1196
N1_4 N 0.9720(5) 0.1554(3) 0.1594(3)
N2_4 N 0.8808(5) 0.1677(3) 0.1173(3)
O1_4 O 0.7647(5) 0.0683(2) 0.0075(3)
O7_4 O 0.5736(7) 0.0663(4) 0.0799(5)
C33_4 C 0.9500(5) 0.1986(3) 0.3638(4)
C34_4 C 0.8395(6) 0.2036(4) 0.3380(5)
H22_4 H 0.8050 0.1784 0.2995
C35_4 C 0.7836(7) 0.2503(4) 0.3750(5)
H23_4 H 0.7097 0.2568 0.3602
C36_4 C 0.8382(6) 0.2867(4) 0.4337(5)
H24_4 H 0.7996 0.3167 0.4575
C37_4 C 0.9491(6) 0.2788(4) 0.4569(5)
H25_4 H 0.9850 0.3031 0.4956
C1_4 C 0.7132(5) 0.0964(3) 0.8763(3)
C2_4 C 0.6538(5) 0.1364(3) 0.8251(4)
H1_4 H 0.6221 0.1715 0.8435
C3_4 C 0.6421(6) 0.1238(3) 0.7470(4)
H2_4 H 0.6029 0.1506 0.7128
C4_4 C 0.6884(6) 0.0717(3) 0.7195(4)
H3_4 H 0.6781 0.0628 0.6670
C5_4 C 0.7507(6) 0.0320(3) 0.7697(3)
C6_4 C 0.7634(5) 0.0452(3) 0.8484(3)
H4_4 H 0.8057 0.0196 0.8823
C7_4 C 0.7240(5) 0.1089(3) 0.9615(3)
C9_6 C 1.0000 0.2692(4) 0.7500
H5_6 H 1.0000 0.3120 0.7500
C10_4 C 0.9385(5) 0.2373(3) 0.7990(3)
C11_4 C 0.9396(6) 0.1734(3) 0.7990(4)
H6_4 H 0.8994 0.1517 0.8322
C12_6 C 1.0000 0.1422(5) 0.7500
H7_6 H 1.0000 0.0993 0.7500
C13_4 C 0.8688(4) 0.2709(3) 0.8512(3)
C8_4 C 0.8043(7) 0.9758(3) 0.7402(4)
C39_3 C 0.9974(16) 0.4501(10) 0.6383(12)
H27_3 H 0.9738 0.4927 0.6327
C40_3 C 0.9055(19) 0.4077(10) 0.6198(13)
H28_3 H 0.8689 0.4176 0.5699
H29_3 H 0.8554 0.4115 0.6579
H30_3 H 0.9323 0.3661 0.6196
C39_4 C 0.0026(16) 0.5499(10) 0.3617(12)
H27_4 H 0.0262 0.5073 0.3673
C40_4 C 0.0945(19) 0.5923(10) 0.3802(13)
H28_4 H 0.1311 0.5824 0.4301
H29_4 H 0.1446 0.5885 0.3421
H30_4 H 0.0677 0.6339 0.3804
C20_4 C 0.9974(16) 0.5499(10) 0.1383(12)
H13_4 H 0.9738 0.5073 0.1327
C21_4 C 0.9055(19) 0.5923(10) 0.1198(13)
H14_4 H 0.8689 0.5824 0.0699
H15_4 H 0.8554 0.5885 0.1579
H16_4 H 0.9323 0.6339 0.1196
loop_
_geom_bond_atom_site_label_1
_geom_bond_atom_site_label_2
_geom_bond_site_symmetry_1
_geom_bond_site_symmetry_2
H13 C20 1_555 1_555
C21 C20 1_555 1_555
H14 C21 1_555 1_555
H15 C21 1_555 1_555
H16 C21 1_555 1_555
C1 C2 1_555 1_555
C2 H1 1_555 1_555
C3 C2 1_555 1_555
H2 C3 1_555 1_555
C4 C3 1_555 1_555
H3 C4 1_555 1_555
C5 C4 1_555 1_555
C6 C1 1_555 1_555
H4 C6 1_555 1_555
C7 C1 1_555 1_555
C8 C5 1_555 1_555
C9 H5 1_555 1_555
C10 C9 1_555 1_555
C11 C10 1_555 1_555
H6 C11 1_555 1_555
C12 C11 1_555 1_555
H7 C12 1_555 1_555
C13 C10 1_555 1_555
O2 Co1 1_555 1_555
O3 C8 1_555 1_555
O4 C8 1_555 1_555
O5 Co1 1_555 1_555
O6 C13 1_555 1_555
C22 C9 1_555 1_555
C23 C12 1_555 1_555
H17 C23 1_555 1_555
C24 C22 1_555 1_555
O8 C24 1_555 1_555
O9 C24 1_555 1_555
Co6 O8 1_555 1_555
Co8 O4 1_555 1_555
Co9 O6 1_555 1_555
Co10 O9 1_555 1_555
Co12 O3 1_555 1_555
N7 Co1 1_555 1_555
C5 C6 1_555 1_555
C7 O2 1_555 1_555
C13 O5 1_555 1_555
C22 C23 1_555 1_555
Co1_2 N3 1_555 1_555
Co2 N2 1_555 1_555
Co3 N1 1_555 1_555
C14 C15 1_555 1_555
C15 H8 1_555 1_555
C16 C15 1_555 1_555
H9 C16 1_555 1_555
C17 C16 1_555 1_555
H10 C17 1_555 1_555
C18 C17 1_555 1_555
H11 C18 1_555 1_555
C19 C14 1_555 1_555
N1 C14 1_555 1_555
N2 N1 1_555 1_555
N3 C19 1_555 1_555
O1 Co2 1_555 1_555
O7 Co2 1_555 1_555
Co4 N5 1_555 1_555
C25 C26 1_555 1_555
C26 H18 1_555 1_555
C27 C26 1_555 1_555
H19 C27 1_555 1_555
C28 C27 1_555 1_555
H20 C28 1_555 1_555
C29 C28 1_555 1_555
C30 C25 1_555 1_555
H21 C30 1_555 1_555
C31 C25 1_555 1_555
C32 C29 1_555 1_555
C33 C34 1_555 1_555
C34 H22 1_555 1_555
C35 C34 1_555 1_555
H23 C35 1_555 1_555
C36 C35 1_555 1_555
H24 C36 1_555 1_555
C37 C36 1_555 1_555
H25 C37 1_555 1_555
C38 C33 1_555 1_555
N4 Co3 1_555 1_555
N5 N4 1_555 1_555
N6 C38 1_555 1_555
O10 Co4 1_555 1_555
O11 Co4 1_555 1_555
O12 C32 1_555 1_555
O13 C32 1_555 1_555
O14 Co4 1_555 1_555
Co6 N6 1_555 1_555
Co7 O13 1_555 1_555
Co12 O12 1_555 1_555
O15 Co1_2 1_555 1_555
O16 Co3 1_555 1_555
O17 Co3 1_555 1_555
O18 Co4 1_555 1_555
O19 Co2 1_555 1_555
O20 Co1_2 1_555 1_555
O21 Co2 1_555 1_555
O22 Co4 1_555 1_555
C18 C19 1_555 1_555
N2 N3 1_555 1_555
C29 C30 1_555 1_555
C31 O10 1_555 1_555
C31 O11 1_555 1_555
C33 N4 1_555 1_555
C37 C38 1_555 1_555
N5 N6 1_555 1_555
O11 Co6 1_555 1_555
N7_2 Co6 1_555 1_555
O15_2 Co6 1_555 1_555
O20_2 Co6 1_555 1_555
Co10 O15_2 1_555 1_555
O3_2 C8_2 1_555 1_555
O4_2 C8_2 1_555 1_555
Co10 O4_2 1_555 1_555
Co12_2 O3_2 1_555 1_555
C1_2 C2_2 1_555 1_555
C2_2 H1_2 1_555 1_555
C3_2 C2_2 1_555 1_555
H2_2 C3_2 1_555 1_555
C4_2 C3_2 1_555 1_555
H3_2 C4_2 1_555 1_555
C5_2 C4_2 1_555 1_555
C6_2 C1_2 1_555 1_555
H4_2 C6_2 1_555 1_555
C7_2 C1_2 1_555 1_555
C9_2 H5_2 1_555 1_555
C10_2 C9_2 1_555 1_555
C11_2 C10_2 1_555 1_555
H6_2 C11_2 1_555 1_555
C12_2 C11_2 1_555 1_555
H7_2 C12_2 1_555 1_555
C13_2 C10_2 1_555 1_555
O2_2 Co1_3 1_555 1_555
O5_2 Co1_3 1_555 1_555
O6_2 C13_2 1_555 1_555
Co7 O6_2 1_555 1_555
N7_3 Co1_3 1_555 1_555
C5_2 C6_2 1_555 1_555
C7_2 O2_2 1_555 1_555
C13_2 O5_2 1_555 1_555
Co1_4 N3_2 1_555 1_555
Co2_2 N2_2 1_555 1_555
Co3_2 N1_2 1_555 1_555
C20_2 H12_2 1_555 1_555
H13_2 C20_2 1_555 1_555
C21_2 C20_2 1_555 1_555
H14_2 C21_2 1_555 1_555
H15_2 C21_2 1_555 1_555
H16_2 C21_2 1_555 1_555
N2_2 N1_2 1_555 1_555
N3_2 C19_2 1_555 1_555
O1_2 Co2_2 1_555 1_555
O7_2 Co2_2 1_555 1_555
C33_2 C34_2 1_555 1_555
C34_2 H22_2 1_555 1_555
C35_2 C34_2 1_555 1_555
H23_2 C35_2 1_555 1_555
C36_2 C35_2 1_555 1_555
H24_2 C36_2 1_555 1_555
C37_2 C36_2 1_555 1_555
H25_2 C37_2 1_555 1_555
O15_3 Co1_4 1_555 1_555
O17_2 Co3_2 1_555 1_555
O19_2 Co2_2 1_555 1_555
O20_3 Co1_4 1_555 1_555
O21_2 Co2_2 1_555 1_555
C20_2 O7_2 1_555 1_555
N2_2 N3_2 1_555 1_555
O12_2 C32_2 1_555 1_555
O13_2 C32_2 1_555 1_555
Co9 O13_2 1_555 1_555
Co12_3 O12_2 1_555 1_555
C9_3 H5_3 1_555 1_555
H7_3 C12_3 1_555 1_555
C22_2 C9_3 1_555 1_555
C23_2 C12_3 1_555 1_555
H17_2 C23_2 1_555 1_555
C24_2 C22_2 1_555 1_555
O8_2 C24_2 1_555 1_555
O9_2 C24_2 1_555 1_555
Co6_2 O8_2 1_555 1_555
Co8 O9_2 1_555 1_555
C22_2 C23_2 1_555 1_555
C14_2 C15_2 1_555 1_555
C15_2 H8_2 1_555 1_555
C16_2 C15_2 1_555 1_555
H9_2 C16_2 1_555 1_555
C17_2 C16_2 1_555 1_555
H10_2 C17_2 1_555 1_555
C18_2 C17_2 1_555 1_555
H11_2 C18_2 1_555 1_555
Co4_2 N5_2 1_555 1_555
C25_2 C26_2 1_555 1_555
C26_2 H18_2 1_555 1_555
C27_2 C26_2 1_555 1_555
H19_2 C27_2 1_555 1_555
C28_2 C27_2 1_555 1_555
H20_2 C28_2 1_555 1_555
C29_2 C28_2 1_555 1_555
C30_2 C25_2 1_555 1_555
H21_2 C30_2 1_555 1_555
C31_2 C25_2 1_555 1_555
C39 H26_2 1_555 1_555
H27 C39 1_555 1_555
C40 C39 1_555 1_555
H28 C40 1_555 1_555
H29 C40 1_555 1_555
H30 C40 1_555 1_555
N4_2 Co3_3 1_555 1_555
N5_2 N4_2 1_555 1_555
N6_2 C38_2 1_555 1_555
O10_2 Co4_2 1_555 1_555
O11_2 Co4_2 1_555 1_555
O14_2 Co4_2 1_555 1_555
Co6_2 N6_2 1_555 1_555
O16_2 Co3_3 1_555 1_555
O18_2 Co4_2 1_555 1_555
O22_2 Co4_2 1_555 1_555
C29_2 C30_2 1_555 1_555
C31_2 O10_2 1_555 1_555
C31_2 O11_2 1_555 1_555
C39 O14_2 1_555 1_555
N5_2 N6_2 1_555 1_555
O11_2 Co6_2 1_555 1_555
N7_4 Co6_2 1_555 1_555
O15_4 Co6_2 1_555 1_555
O20_4 Co6_2 1_555 1_555
Co8 O15_4 1_555 1_555
Co7 N2_3 1_555 1_555
Co12 N1_3 1_555 1_555
C14_3 C15_3 1_555 1_555
C15_3 H8_3 1_555 1_555
C16_3 C15_3 1_555 1_555
H9_3 C16_3 1_555 1_555
C17_3 C16_3 1_555 1_555
H10_3 C17_3 1_555 1_555
C18_3 C17_3 1_555 1_555
H11_3 C18_3 1_555 1_555
C19_3 C14_3 1_555 1_555
N1_3 C14_3 1_555 1_555
N2_3 N1_3 1_555 1_555
N7_3 C19_3 1_555 1_555
O1_3 Co7 1_555 1_555
O7_3 Co7 1_555 1_555
Co8 N5_3 1_555 1_555
C25_3 C26_3 1_555 1_555
C26_3 H18_3 1_555 1_555
C27_3 C26_3 1_555 1_555
H19_3 C27_3 1_555 1_555
C28_3 C27_3 1_555 1_555
H20_3 C28_3 1_555 1_555
C29_3 C28_3 1_555 1_555
C30_3 C25_3 1_555 1_555
H21_3 C30_3 1_555 1_555
C31_3 C25_3 1_555 1_555
C32_3 C29_3 1_555 1_555
C33_3 C34_3 1_555 1_555
C34_3 H22_3 1_555 1_555
C35_3 C34_3 1_555 1_555
H23_3 C35_3 1_555 1_555
C36_3 C35_3 1_555 1_555
H24_3 C36_3 1_555 1_555
C37_3 C36_3 1_555 1_555
H25_3 C37_3 1_555 1_555
C38_3 C33_3 1_555 1_555
N4_3 Co12 1_555 1_555
N5_3 N4_3 1_555 1_555
N7_4 C38_3 1_555 1_555
O10_3 Co8 1_555 1_555
O17 C32_3 1_555 1_555
O19 C32_3 1_555 1_555
O14_3 Co8 1_555 1_555
C18_3 C19_3 1_555 1_555
N2_3 N7_3 1_555 1_555
C29_3 C30_3 1_555 1_555
C31_3 O10_3 1_555 1_555
C31_3 O15_4 1_555 1_555
C33_3 N4_3 1_555 1_555
C37_3 C38_3 1_555 1_555
N5_3 N7_4 1_555 1_555
C1_3 C2_3 1_555 1_555
C2_3 H1_3 1_555 1_555
C3_3 C2_3 1_555 1_555
H2_3 C3_3 1_555 1_555
C4_3 C3_3 1_555 1_555
H3_3 C4_3 1_555 1_555
C5_3 C4_3 1_555 1_555
C6_3 C1_3 1_555 1_555
H4_3 C6_3 1_555 1_555
C7_3 C1_3 1_555 1_555
C8_3 C5_3 1_555 1_555
C9_4 H5_4 1_555 1_555
C10_3 C9_4 1_555 1_555
C11_3 C10_3 1_555 1_555
H6_3 C11_3 1_555 1_555
C12_4 C11_3 1_555 1_555
H7_4 C12_4 1_555 1_555
C13_3 C10_3 1_555 1_555
O16 C8_3 1_555 1_555
O18 C8_3 1_555 1_555
O21_2 C13_3 1_555 1_555
C22_3 C9_4 1_555 1_555
C23_3 C12_4 1_555 1_555
H17_3 C23_3 1_555 1_555
C24_3 C22_3 1_555 1_555
O20_4 C24_3 1_555 1_555
O22_2 C24_3 1_555 1_555
C5_3 C6_3 1_555 1_555
C7_3 O15_3 1_555 1_555
C13_3 O20_3 1_555 1_555
C22_3 C23_3 1_555 1_555
C14_4 C15_4 1_555 1_555
C15_4 H8_4 1_555 1_555
C16_4 C15_4 1_555 1_555
H9_4 C16_4 1_555 1_555
C17_4 C16_4 1_555 1_555
H10_4 C17_4 1_555 1_555
C18_4 C17_4 1_555 1_555
H11_4 C18_4 1_555 1_555
Co10 N5_4 1_555 1_555
C25_4 C26_4 1_555 1_555
C26_4 H18_4 1_555 1_555
C27_4 C26_4 1_555 1_555
H19_4 C27_4 1_555 1_555
C28_4 C27_4 1_555 1_555
H20_4 C28_4 1_555 1_555
C29_4 C28_4 1_555 1_555
C30_4 C25_4 1_555 1_555
H21_4 C30_4 1_555 1_555
C31_4 C25_4 1_555 1_555
C39_2 H26_4 1_555 1_555
H27_2 C39_2 1_555 1_555
C40_2 C39_2 1_555 1_555
H28_2 C40_2 1_555 1_555
H29_2 C40_2 1_555 1_555
H30_2 C40_2 1_555 1_555
N4_4 Co12_2 1_555 1_555
N5_4 N4_4 1_555 1_555
N7_2 C38_4 1_555 1_555
O10_4 Co10 1_555 1_555
O14_4 Co10 1_555 1_555
C29_4 C30_4 1_555 1_555
C31_4 O10_4 1_555 1_555
C31_4 O15_2 1_555 1_555
C39_2 O14_4 1_555 1_555
N5_4 N7_2 1_555 1_555
C9_5 H5_5 1_555 1_555
H7_5 C12_5 1_555 1_555
C22_4 C9_5 1_555 1_555
C23_4 C12_5 1_555 1_555
H17_4 C23_4 1_555 1_555
C24_4 C22_4 1_555 1_555
O20_2 C24_4 1_555 1_555
O22 C24_4 1_555 1_555
C22_4 C23_4 1_555 1_555
O17_2 C32_4 1_555 1_555
O19_2 C32_4 1_555 1_555
Co9 N2_4 1_555 1_555
Co12_3 N1_4 1_555 1_555
C20_3 H12_4 1_555 1_555
H13_3 C20_3 1_555 1_555
C21_3 C20_3 1_555 1_555
H14_3 C21_3 1_555 1_555
H15_3 C21_3 1_555 1_555
H16_3 C21_3 1_555 1_555
N2_4 N1_4 1_555 1_555
N7 C19_4 1_555 1_555
O1_4 Co9 1_555 1_555
O7_4 Co9 1_555 1_555
C33_4 C34_4 1_555 1_555
C34_4 H22_4 1_555 1_555
C35_4 C34_4 1_555 1_555
H23_4 C35_4 1_555 1_555
C36_4 C35_4 1_555 1_555
H24_4 C36_4 1_555 1_555
C37_4 C36_4 1_555 1_555
H25_4 C37_4 1_555 1_555
C20_3 O7_4 1_555 1_555
N2_4 N7 1_555 1_555
C1_4 C2_4 1_555 1_555
C2_4 H1_4 1_555 1_555
C3_4 C2_4 1_555 1_555
H2_4 C3_4 1_555 1_555
C4_4 C3_4 1_555 1_555
H3_4 C4_4 1_555 1_555
C5_4 C4_4 1_555 1_555
C6_4 C1_4 1_555 1_555
H4_4 C6_4 1_555 1_555
C7_4 C1_4 1_555 1_555
C9_6 H5_6 1_555 1_555
C10_4 C9_6 1_555 1_555
C11_4 C10_4 1_555 1_555
H6_4 C11_4 1_555 1_555
C12_6 C11_4 1_555 1_555
H7_6 C12_6 1_555 1_555
C13_4 C10_4 1_555 1_555
O21 C13_4 1_555 1_555
C5_4 C6_4 1_555 1_555
C7_4 O15 1_555 1_555
C13_4 O20 1_555 1_555
O16_2 C8_4 1_555 1_555
O18_2 C8_4 1_555 1_555
H27_3 C39_3 1_555 1_555
C40_3 C39_3 1_555 1_555
H28_3 C40_3 1_555 1_555
H29_3 C40_3 1_555 1_555
H30_3 C40_3 1_555 1_555
H27_4 C39_4 1_555 1_555
C40_4 C39_4 1_555 1_555
H28_4 C40_4 1_555 1_555
H29_4 C40_4 1_555 1_555
H30_4 C40_4 1_555 1_555
H13_4 C20_4 1_555 1_555
C21_4 C20_4 1_555 1_555
H14_4 C21_4 1_555 1_555
H15_4 C21_4 1_555 1_555
H16_4 C21_4 1_555 1_555

#END
