
###############################################################################
#
# This file contains modified crystal structure data generated from the
# MOF subset of the Cambridge Structural Database (CSD) v543 
# hosted by the Cambridge Crystallographic Data Centre (CCDC).
#
# This work is licensed under the Creative Commons
# Attribution-NonCommercial-ShareAlike 4.0 International License.
# To view a copy of this license, visit
# http://creativecommons.org/licenses/by-nc-sa/4.0/
# or send a letter to
# Creative Commons, PO Box 1866, Mountain View, CA 94042, USA.
#
# CIF created using the CSD Python API on 29 September 2022
# The structure has been converted into the P1 space group
# The structure has a 3D framework
# The original CSD entry YOKQOH is in the monoclinic crystal system
# The original CSD entry YOKQOH is in a Sohncke space group
# The framework has been calculated to contain at least 10.0% void space
# The void calculation uses a probe of radius 1.32A, grid spacing 0.4
#
###############################################################################

data_YOKQOH
_chemical_formula_moiety         '(C288 H192 Cl48 N96 Zn24)n'
_symmetry_cell_setting           triclinic
_symmetry_space_group_name_H-M   'P 1'
_symmetry_Int_Tables_number      1
_space_group_name_Hall           'P 1'
loop_
_symmetry_equiv_pos_site_id
_symmetry_equiv_pos_as_xyz
1 x,y,z
_cell_length_a                   31.0167(15)
_cell_length_b                   14.3695(6)
_cell_length_c                   31.6044(16)
_cell_angle_alpha                90
_cell_angle_beta                 98.544(3)
_cell_angle_gamma                90
_cell_volume                     13929.6
loop_
_atom_site_label
_atom_site_type_symbol
_atom_site_fract_x
_atom_site_fract_y
_atom_site_fract_z
Cl9 Cl 0.0030(2) 0.1928(3) 0.0551(2)
Zn8 Zn 0.12824(6) 0.63274(11) 0.69838(6)
Cl15 Cl 0.10157(16) 0.6387(3) 0.75899(14)
Cl16 Cl 0.15073(13) 0.7530(2) 0.66299(13)
N39 N 0.0840(4) 0.5617(7) 0.6542(4)
H79 H 0.008055 0.168493 0.591816
H80 H 0.005789 0.005633 0.591927
C119 C 0.0764(5) 0.4725(8) 0.6592(5)
H81 H 0.092253 0.439722 0.682621
C120 C 0.0454(6) 0.4257(9) 0.6306(5)
H82 H 0.039510 0.361890 0.634999
C121 C 0.0241(4) 0.4709(7) 0.5970(4)
C122 C 0.0314(4) 0.5652(8) 0.5922(4)
H83 H 0.015596 0.599785 0.569443
C123 C 0.0618(5) 0.6055(8) 0.6210(4)
H84 H 0.067709 0.669649 0.617423
N43 N 0.1786(4) 0.5380(7) 0.7070(4)
N45 N 0.4087(4) 0.2839(8) 0.5877(4)
N46 N 0.2667(3) 0.2454(7) 0.7344(3)
N47 N 0.3219(3) 0.1760(7) 0.7020(3)
N48 N 0.2931(3) 0.3199(7) 0.6778(3)
C127 C 0.1797(5) 0.4674(11) 0.7359(5)
H85 H 0.160290 0.469376 0.756440
C128 C 0.2071(4) 0.3954(9) 0.7364(4)
H86 H 0.206124 0.345998 0.756186
C129 C 0.2358(4) 0.3933(8) 0.7090(4)
C130 C 0.2367(6) 0.4698(11) 0.6802(6)
H87 H 0.257406 0.472606 0.660889
C131 C 0.2065(6) 0.5394(11) 0.6816(6)
H88 H 0.206508 0.590697 0.662655
C132 C 0.2743(5) 0.0228(10) 0.8220(5)
H89 H 0.253798 0.018831 0.841453
C133 C 0.2691(4) 0.0904(9) 0.7914(4)
H90 H 0.244569 0.130623 0.789701
C134 C 0.2982(4) 0.1022(8) 0.7630(4)
C135 C 0.3321(4) 0.0361(8) 0.7653(5)
H91 H 0.351959 0.037145 0.745045
C137 C 0.4188(5) 0.2339(10) 0.6218(5)
H93 H 0.447547 0.209414 0.627254
C138 C 0.3918(4) 0.2142(9) 0.6498(5)
H94 H 0.400817 0.174697 0.673596
C139 C 0.3497(4) 0.2534(9) 0.6433(4)
C140 C 0.3386(6) 0.3055(13) 0.6071(5)
H95 H 0.310127 0.331121 0.600878
C141 C 0.3674(6) 0.3205(13) 0.5806(6)
H96 H 0.359103 0.357840 0.555962
C142 C 0.2670(4) 0.3141(8) 0.7067(4)
C143 C 0.2966(3) 0.1778(8) 0.7306(4)
C144 C 0.3208(4) 0.2486(9) 0.6753(4)
Zn16 Zn 0.45345(9) 0.32697(11) 0.54908(9)
Zn1 Zn 0.13344(12) 0.35138(17) 0.17934(16)
Cl1 Cl 0.10497(18) 0.3582(4) 0.2403(2)
Cl2 Cl 0.1524(2) 0.2243(3) 0.1483(2)
Zn3 Zn 0.47748(8) 0.66341(12) 0.04543(6)
Cl6 Cl 0.54035(13) 0.7152(3) 0.07969(13)
Zn5 Zn 0.93802(9) 0.13560(11) 0.03158(8)
Zn6 Zn 0.83230(6) 0.63551(10) 0.35170(5)
Cl11 Cl 0.87317(16) 0.7434(2) 0.32839(14)
Cl12 Cl 0.77065(12) 0.6628(3) 0.37886(11)
Cl19 Cl 0.51862(15) 0.2898(3) 0.58243(18)
Cl20 Cl 0.42863(18) 0.2837(3) 0.48333(15)
Zn12 Zn 0.81115(6) 0.35326(11) 0.85737(5)
Cl23 Cl 0.84765(12) 0.23133(19) 0.84076(12)
Cl24 Cl 0.74611(12) 0.3511(3) 0.87986(11)
N1 N 0.0898(4) 0.4238(7) 0.1385(4)
C1 C 0.0620(5) 0.3792(9) 0.1090(5)
H1 H 0.065403 0.313956 0.106060
C2 C 0.0289(4) 0.4224(8) 0.0826(5)
H2 H 0.009393 0.386458 0.063109
C3 C 0.0238(4) 0.5175(7) 0.0841(4)
C4 C 0.0528(4) 0.5664(7) 0.1148(4)
H3 H 0.050664 0.632014 0.117740
C5 C 0.0843(4) 0.5165(8) 0.1405(4)
H4 H 0.103670 0.550042 0.161140
H11 H 0.004053 0.824998 0.079504
N7 N 0.4311(4) 0.6934(8) 0.0830(4)
N8 N 0.1832(3) 0.4434(7) 0.1900(3)
N10 N 0.3078(3) 0.6507(8) 0.1651(4)
N11 N 0.2789(3) 0.7253(6) 0.2218(3)
N12 N 0.3393(4) 0.7907(6) 0.1945(3)
C19 C 0.3917(6) 0.6577(13) 0.0727(5)
H13 H 0.384905 0.626218 0.046105
C20 C 0.3597(6) 0.6642(17) 0.0991(5)
H14 H 0.332355 0.634035 0.091885
C21 C 0.3690(5) 0.7158(9) 0.1361(4)
C22 C 0.4090(5) 0.7547(10) 0.1464(5)
H15 H 0.416498 0.789005 0.172131
C23 C 0.4388(5) 0.7424(10) 0.1178(5)
H16 H 0.466410 0.771713 0.124285
C24 C 0.2098(6) 0.4468(13) 0.1602(6)
H17 H 0.207053 0.401343 0.138174
C25 C 0.2417(5) 0.5167(12) 0.1611(6)
H18 H 0.260353 0.518379 0.139805
C26 C 0.2456(4) 0.5820(8) 0.1928(4)
C27 C 0.2185(4) 0.5778(7) 0.2222(4)
H19 H 0.219892 0.623071 0.244258
C28 C 0.1886(4) 0.5060(8) 0.2196(4)
H20 H 0.170563 0.502341 0.241383
C29 C 0.2808(4) 0.9582(7) 0.3036(3)
H21 H 0.258339 0.967628 0.320563
C30 C 0.2787(4) 0.8834(7) 0.2748(4)
H22 H 0.254943 0.841208 0.272833
C31 C 0.3097(4) 0.8707(6) 0.2503(4)
C32 C 0.3447(4) 0.9335(8) 0.2536(4)
H23 H 0.367157 0.927169 0.236317
C34 C 0.3372(4) 0.7191(8) 0.1662(4)
C35 C 0.2793(4) 0.6557(8) 0.1927(4)
C36 C 0.3097(4) 0.7915(7) 0.2199(4)
N15 N 0.4510(4) 0.4703(6) 0.5463(4)
N16 N 0.4694(3) 0.9473(6) 0.5295(3)
N17 N 0.4322(3) 0.8062(6) 0.5064(3)
N18 N 0.4870(3) 0.8069(5) 0.5669(3)
C39 C 0.5225(4) 0.9483(7) 0.5932(4)
C40 C 0.5477(4) 0.9009(7) 0.6256(4)
H27 H 0.546197 0.834940 0.627083
C41 C 0.5752(5) 0.9497(8) 0.6557(5)
H28 H 0.591968 0.916141 0.678339
C44 C 0.4126(4) 0.9482(6) 0.4673(4)
C45 C 0.3814(4) 0.9012(7) 0.4398(4)
H31 H 0.376503 0.836541 0.443266
C46 C 0.3575(4) 0.9511(7) 0.4071(4)
H32 H 0.336779 0.918174 0.387575
C47 C 0.4276(6) 0.5157(8) 0.5142(5)
H33 H 0.409724 0.480911 0.492816
C48 C 0.4281(5) 0.6112(8) 0.5108(4)
H34 H 0.410260 0.641500 0.487772
C49 C 0.4551(4) 0.6633(7) 0.5414(4)
C50 C 0.4785(4) 0.6116(7) 0.5755(4)
H35 H 0.497413 0.642698 0.597333
C51 C 0.4739(5) 0.5195(9) 0.5769(5)
H36 H 0.488068 0.487435 0.601409
C52 C 0.4908(4) 0.8991(7) 0.5607(3)
C53 C 0.4399(4) 0.8967(6) 0.5028(4)
C54 C 0.4578(4) 0.7642(6) 0.5378(3)
N19 N 0.9150(4) 0.8152(7) 0.5872(4)
N21 N 0.8048(3) 0.4498(6) 0.8087(3)
N22 N 0.7959(3) 0.8359(7) 0.6760(3)
N23 N 0.7706(3) 0.7516(6) 0.7322(3)
N24 N 0.8318(4) 0.6971(7) 0.7008(3)
C55 C 0.8737(6) 0.8343(12) 0.5783(6)
H37 H 0.863498 0.858447 0.550644
C56 C 0.8432(5) 0.8224(12) 0.6058(5)
H38 H 0.813703 0.840322 0.597429
C57 C 0.8567(4) 0.7842(8) 0.6453(4)
C58 C 0.9024(5) 0.7613(10) 0.6550(5)
H39 H 0.913406 0.734707 0.681980
C59 C 0.9297(6) 0.7772(13) 0.6262(6)
H40 H 0.959653 0.761580 0.633299
C61 C 0.7341(5) 0.9736(9) 0.6805(4)
H42 H 0.754716 0.980628 0.661260
C62 C 0.7357(4) 0.8941(7) 0.7083(4)
C63 C 0.7072(4) 0.8882(7) 0.7361(4)
H43 H 0.708520 0.837267 0.755391
C64 C 0.6750(4) 0.9586(8) 0.7366(4)
H44 H 0.654936 0.954695 0.756501
C65 C 0.7727(4) 0.5135(8) 0.8068(4)
H45 H 0.750588 0.505960 0.824244
C66 C 0.7714(4) 0.5880(8) 0.7804(4)
H46 H 0.747912 0.630703 0.779418
C67 C 0.8023(4) 0.6038(8) 0.7554(4)
C68 C 0.8360(4) 0.5391(9) 0.7568(4)
H47 H 0.858717 0.547180 0.740111
C69 C 0.8352(5) 0.4619(11) 0.7836(5)
H48 H 0.857374 0.416147 0.783938
C70 C 0.8268(4) 0.7710(7) 0.6757(4)
C71 C 0.7698(4) 0.8241(7) 0.7043(4)
C72 C 0.8019(4) 0.6896(7) 0.7273(4)
N26 N 0.4742(4) 0.5192(7) 0.0467(4)
N28 N 0.4321(3) 0.1853(6) 0.0230(3)
N29 N 0.4794(4) 0.1854(7) 0.0886(3)
N30 N 0.4607(3) 0.0401(7) 0.0536(3)
C78 C 0.4536(7) 0.4693(10) 0.0144(5)
C79 C 0.4460(8) 0.3754(12) 0.0154(6)
C80 C 0.4602(5) 0.3305(8) 0.0530(4)
C81 C 0.4830(7) 0.3775(10) 0.0858(6)
H55 H 0.494359 0.346099 0.111444
C82 C 0.4897(7) 0.4727(10) 0.0817(5)
H56 H 0.506041 0.505337 0.104844
C83 C 0.5531(6) 0.0462(12) 0.1899(6)
H57 H 0.564468 0.078466 0.215340
C84 C 0.5262(5) 0.0921(11) 0.1580(5)
H58 H 0.519431 0.155940 0.161340
C85 C 0.5091(5) 0.0453(9) 0.1213(4)
C88 C 0.4335(4) 0.0903(8) 0.0229(4)
C89 C 0.4564(4) 0.2275(9) 0.0542(4)
C90 C 0.4808(4) 0.0928(8) 0.0854(4)
N32 N 0.8168(3) 0.5368(7) 0.3046(3)
N33 N 0.8964(5) 0.1678(8) 0.0744(5)
N34 N 0.7638(3) 0.2460(7) 0.2276(3)
N35 N 0.8210(4) 0.2939(7) 0.1912(3)
N36 N 0.7827(4) 0.1552(8) 0.1721(4)
C91 C 0.6701(6) 0.0533(11) 0.2506(5)
H61 H 0.653309 0.063896 0.272979
C92 C 0.7029(5) 0.1157(12) 0.2441(5)
H62 H 0.709531 0.167002 0.262942
C93 C 0.7254(4) 0.1030(8) 0.2111(4)
C94 C 0.7177(6) 0.0281(12) 0.1844(6)
H63 H 0.733029 0.020931 0.160691
C96 C 0.7832(4) 0.4816(9) 0.3058(4)
H65 H 0.763705 0.493674 0.325670
C97 C 0.7757(4) 0.4048(8) 0.2780(4)
H66 H 0.751600 0.364923 0.279684
C98 C 0.8022(4) 0.3878(7) 0.2494(4)
C99 C 0.8381(4) 0.4450(10) 0.2483(4)
H67 H 0.858341 0.432840 0.229205
C100 C 0.8434(5) 0.5188(9) 0.2754(4)
H68 H 0.867026 0.559980 0.273701
C101 C 0.9110(7) 0.2221(12) 0.1097(6)
H69 H 0.939388 0.248212 0.113100
C102 C 0.8847(5) 0.2379(12) 0.1394(5)
H70 H 0.895364 0.273546 0.164085
C103 C 0.8414(6) 0.2023(9) 0.1345(4)
C104 C 0.8259(6) 0.1526(14) 0.0982(5)
H71 H 0.797020 0.128774 0.093494
C105 C 0.8548(8) 0.1388(16) 0.0683(7)
H72 H 0.844286 0.107152 0.042410
C106 C 0.7594(4) 0.1697(9) 0.2030(4)
C107 C 0.7960(4) 0.3040(7) 0.2209(3)
C108 C 0.8143(5) 0.2160(9) 0.1673(4)
N37 N 0.8692(3) 0.5625(6) 0.3991(3)
N40 N 0.9319(3) 0.3286(6) 0.5099(3)
N41 N 0.9864(3) 0.3280(6) 0.5703(3)
N42 N 0.9679(3) 0.4703(6) 0.5336(3)
C109 C 0.8669(4) 0.4681(7) 0.4029(4)
H73 H 0.850208 0.433638 0.380600
C110 C 0.8882(4) 0.4201(7) 0.4388(4)
H74 H 0.885384 0.354542 0.441159
C111 C 0.9134(4) 0.4708(7) 0.4705(4)
C112 C 0.9156(4) 0.5663(8) 0.4668(4)
H75 H 0.932444 0.602314 0.488445
C113 C 0.8928(4) 0.6088(7) 0.4308(4)
H76 H 0.894036 0.674710 0.428830
C114 C 0.9297(4) 0.0384(8) 0.5148(4)
H77 H 0.910460 0.004371 0.494279
C115 C 0.9290(4) 0.1335(8) 0.5132(4)
H78 H 0.908863 0.165007 0.492475
C116 C 0.9578(4) 0.1829(7) 0.5421(4)
C117 C 0.9874(4) 0.1357(8) 0.5720(4)
C118 C 0.9858(4) 0.0395(7) 0.5720(4)
C124 C 0.9383(4) 0.4227(7) 0.5069(4)
C125 C 0.9591(4) 0.2882(7) 0.5411(3)
C126 C 0.9904(4) 0.4213(7) 0.5657(4)
Zn14 Zn 0.95675(7) 0.84868(10) 0.54570(7)
N49 N 0.8531(4) 0.4240(6) 0.9030(3)
Zn4 Zn 0.60734(7) 0.89677(14) 0.23315(8)
Cl7 Cl 0.58940(16) 0.9293(4) 0.29629(16)
Cl8 Cl 0.61759(18) 0.7547(3) 0.2095(2)
Cl13 Cl 0.92676(19) 0.8094(3) 0.48095(14)
N27 N 0.5638(4) 0.9550(7) 0.1853(4)
H51 H 0.435013 0.908526 0.000813
C86 C 0.5185(5) 0.9495(8) 0.1181(5)
H59 H 0.506116 0.913868 0.094042
C87 C 0.5454(5) 0.9109(8) 0.1502(5)
H60 H 0.551907 0.846717 0.147770
N31 N 0.6618(4) 0.9758(8) 0.2245(4)
C95 C 0.6872(5) 0.9633(9) 0.1926(6)
H64 H 0.683464 0.908316 0.175730
N38 N 0.9562(4) 0.9924(6) 0.5439(3)
N50 N 0.9418(5) 0.9921(7) 0.0355(4)
N4 N 0.9643(3) 0.5172(6) 0.0265(3)
N5 N 0.9238(3) 0.6539(6) 0.0078(3)
N6 N 0.9841(3) 0.6592(6) 0.0625(3)
C11 C 0.9110(7) 0.9405(10) 0.0148(5)
C12 C 0.9127(6) 0.8464(9) 0.0150(5)
C13 C 0.9481(5) 0.8013(7) 0.0391(4)
C14 C 0.9801(5) 0.8540(8) 0.0622(4)
C15 C 0.9772(5) 0.9527(8) 0.0599(6)
H12 H 0.999374 0.990517 0.075074
C16 C 0.9888(4) 0.5682(7) 0.0565(4)
C17 C 0.9317(4) 0.5645(7) 0.0038(4)
C18 C 0.9515(4) 0.6981(7) 0.0373(4)
C6 C 0.8823(4) 0.3787(8) 0.9300(4)
H5 H 0.885562 0.313722 0.925847
C7 C 0.9083(4) 0.4202(7) 0.9636(4)
H6 H 0.928582 0.384673 0.982535
C8 C 0.9041(4) 0.5151(7) 0.9694(4)
C9 C 0.8730(5) 0.5623(8) 0.9415(4)
H7 H 0.869177 0.627320 0.944987
C10 C 0.8476(6) 0.5157(9) 0.9087(5)
H8 H 0.826043 0.548603 0.889930
H9 H 0.886427 0.970209 0.998860
H10 H 0.890045 0.811207 0.998963
Cl14 Cl 0.02121(16) 0.8037(3) 0.57709(19)
Zn9 Zn 0.31813(7) 0.86893(12) 0.87507(6)
Cl17 Cl 0.25436(14) 0.8520(3) 0.89805(13)
Cl18 Cl 0.35626(18) 0.7536(3) 0.85294(15)
N44 N 0.3069(4) 0.9624(7) 0.8255(4)
C136 C 0.3361(5) 0.9688(10) 0.7979(5)
H92 H 0.359981 0.926697 0.800603
N52 N 0.3580(4) 0.9425(7) 0.9211(4)
C76 C 0.4143(5) 0.9432(9) 0.9820(4)
C77 C 0.3890(5) 0.8997(8) 0.9476(5)
H52 H 0.394185 0.835689 0.942694
Zn2 Zn 0.32261(9) 0.11691(11) 0.35489(7)
Cl3 Cl 0.25886(13) 0.1456(3) 0.37332(11)
Cl4 Cl 0.36210(16) 0.2331(2) 0.33452(14)
Zn11 Zn 0.62015(8) 0.11832(15) 0.69937(9)
Cl21 Cl 0.59321(15) 0.1125(4) 0.76002(17)
Cl22 Cl 0.63699(16) 0.2467(2) 0.66636(18)
N9 N 0.3151(3) 0.0164(6) 0.3070(3)
C33 C 0.3453(4) 0.0040(9) 0.2827(4)
H24 H 0.368939 0.046560 0.285385
N13 N 0.5794(4) 0.0410(6) 0.6548(4)
N14 N 0.3615(3) 0.0428(6) 0.4010(3)
C37 C 0.5554(5) 0.0873(8) 0.6233(5)
H25 H 0.558313 0.152988 0.621744
C38 C 0.5261(4) 0.0419(7) 0.5926(4)
H26 H 0.508505 0.076904 0.571146
C42 C 0.3913(4) 0.0882(7) 0.4285(4)
H29 H 0.394547 0.153394 0.425173
C43 C 0.4179(4) 0.0424(6) 0.4624(4)
H30 H 0.439041 0.075919 0.481271
N20 N 0.6729(4) 0.0315(7) 0.7088(4)
C60 C 0.7020(4) 0.0397(8) 0.6822(4)
H41 H 0.700744 0.092293 0.663841
Cl5 Cl 0.45006(13) 0.7014(2) 0.97890(12)
Cl10 Cl 0.9026(3) 0.1624(3) 0.96733(15)
C73 C 0.3522(5) 0.0341(10) 0.9274(5)
H49 H 0.330678 0.065722 0.908092
C74 C 0.3753(5) 0.0844(9) 0.9601(5)
H50 H 0.369287 0.148454 0.963723
C75 C 0.4089(4) 0.0381(8) 0.9886(4)
H53 H 0.443451 0.501265 0.988504
H54 H 0.431471 0.343075 0.991163
C8_2 C 0.0959(4) 0.0151(7) 0.0306(4)
C9_2 C 0.1270(5) 0.0623(8) 0.0585(4)
H7_2 H 0.130823 0.127320 0.055013
C10_2 C 0.1524(6) 0.0157(9) 0.0913(5)
H8_2 H 0.173957 0.048603 0.110070
H9_2 H 0.113573 0.470209 0.001140
H10_2 H 0.109955 0.311207 0.001037
N3 N 0.0582(5) 0.4921(7) 0.9645(4)
N4_2 N 0.0357(3) 0.0172(6) 0.9735(3)
N5_2 N 0.0762(3) 0.1539(6) 0.9922(3)
N6_2 N 0.0159(3) 0.1592(6) 0.9375(3)
C11_2 C 0.0890(7) 0.4405(10) 0.9852(5)
C12_2 C 0.0873(6) 0.3464(9) 0.9850(5)
C13_2 C 0.0519(5) 0.3013(7) 0.9609(4)
C14_2 C 0.0199(5) 0.3540(8) 0.9378(4)
C15_2 C 0.0228(5) 0.4527(8) 0.9401(6)
H12_2 H 0.000626 0.490517 0.924926
C16_2 C 0.0112(4) 0.0682(7) 0.9435(4)
C17_2 C 0.0683(4) 0.0645(7) 0.9962(4)
C18_2 C 0.0485(4) 0.1981(7) 0.9627(4)
Zn13 Zn 0.06198(9) 0.63560(11) 0.96842(8)
N2 N 0.1469(4) 0.9240(6) 0.0970(3)
C6_2 C 0.1177(4) 0.8787(8) 0.0700(4)
H5_2 H 0.114438 0.813722 0.074153
C7_2 C 0.0917(4) 0.9202(7) 0.0364(4)
H6_2 H 0.071418 0.884673 0.017465
Zn17 Zn 0.18885(6) 0.85326(11) 0.14263(5)
Zn2_2 Zn 0.67739(9) 0.61691(11) 0.64511(7)
Cl3_2 Cl 0.74114(13) 0.6456(3) 0.62668(11)
Cl4_2 Cl 0.63790(16) 0.7331(2) 0.66548(14)
Zn3_2 Zn 0.52252(8) 0.16341(12) 0.95457(6)
Cl6_2 Cl 0.45965(13) 0.2152(3) 0.92031(13)
Zn6_2 Zn 0.16770(6) 0.13551(10) 0.64830(5)
Cl11_2 Cl 0.12683(16) 0.2434(2) 0.67161(14)
Cl12_2 Cl 0.22935(12) 0.1628(3) 0.62114(11)
Zn11_2 Zn 0.37985(8) 0.61832(15) 0.30063(9)
Cl21_2 Cl 0.40679(15) 0.6125(4) 0.23998(17)
Cl22_2 Cl 0.36301(16) 0.7467(2) 0.33364(18)
C3_2 C 0.9762(4) 0.0175(7) 0.9159(4)
C4_2 C 0.9472(4) 0.0664(7) 0.8852(4)
H3_2 H 0.949336 0.132014 0.882260
C5_2 C 0.9157(4) 0.0165(8) 0.8595(4)
H4_2 H 0.896330 0.050042 0.838860
H11_2 H 0.995947 0.324998 0.920496
N7_2 N 0.5689(4) 0.1934(8) 0.9170(4)
N9_2 N 0.6849(3) 0.5164(6) 0.6930(3)
N10_2 N 0.6922(3) 0.1507(8) 0.8349(4)
N11_2 N 0.7211(3) 0.2253(6) 0.7782(3)
N12_2 N 0.6607(4) 0.2907(6) 0.8055(3)
C19_2 C 0.6083(6) 0.1577(13) 0.9273(5)
H13_2 H 0.615095 0.126218 0.953895
C20_2 C 0.6403(6) 0.1642(17) 0.9009(5)
H14_2 H 0.667645 0.134035 0.908115
C21_2 C 0.6310(5) 0.2158(9) 0.8639(4)
C22_2 C 0.5910(5) 0.2547(10) 0.8536(5)
H15_2 H 0.583502 0.289005 0.827869
C23_2 C 0.5612(5) 0.2424(10) 0.8822(5)
H16_2 H 0.533590 0.271713 0.875715
C25_2 C 0.7583(5) 0.0167(12) 0.8389(6)
H18_2 H 0.739647 0.018379 0.860195
C26_2 C 0.7544(4) 0.0820(8) 0.8072(4)
C27_2 C 0.7815(4) 0.0778(7) 0.7778(4)
H19_2 H 0.780108 0.123071 0.755742
C28_2 C 0.8114(4) 0.0060(8) 0.7804(4)
H20_2 H 0.829437 0.002341 0.758617
C29_2 C 0.7192(4) 0.4582(7) 0.6964(3)
H21_2 H 0.741661 0.467628 0.679437
C30_2 C 0.7213(4) 0.3834(7) 0.7252(4)
H22_2 H 0.745057 0.341208 0.727167
C31_2 C 0.6903(4) 0.3707(6) 0.7497(4)
C32_2 C 0.6553(4) 0.4335(8) 0.7464(4)
H23_2 H 0.632843 0.427169 0.763683
C33_2 C 0.6547(4) 0.5040(9) 0.7173(4)
H24_2 H 0.631061 0.546560 0.714615
C34_2 C 0.6628(4) 0.2191(8) 0.8338(4)
C35_2 C 0.7207(4) 0.1557(8) 0.8073(4)
C36_2 C 0.6903(4) 0.2915(7) 0.7801(4)
N13_2 N 0.4206(4) 0.5410(6) 0.3452(4)
N14_2 N 0.6385(3) 0.5428(6) 0.5990(3)
N16_2 N 0.5306(3) 0.4473(6) 0.4705(3)
N17_2 N 0.5678(3) 0.3062(6) 0.4936(3)
N18_2 N 0.5130(3) 0.3069(5) 0.4331(3)
C37_2 C 0.4446(5) 0.5873(8) 0.3767(5)
H25_2 H 0.441687 0.652988 0.378256
C38_2 C 0.4739(4) 0.5419(7) 0.4074(4)
H26_2 H 0.491495 0.576904 0.428854
C39_2 C 0.4775(4) 0.4483(7) 0.4068(4)
C40_2 C 0.4523(4) 0.4009(7) 0.3744(4)
H27_2 H 0.453803 0.334940 0.372917
C41_2 C 0.4248(5) 0.4497(8) 0.3443(5)
H28_2 H 0.408032 0.416141 0.321661
C42_2 C 0.6087(4) 0.5882(7) 0.5715(4)
H29_2 H 0.605453 0.653394 0.574827
C43_2 C 0.5821(4) 0.5424(6) 0.5376(4)
H30_2 H 0.560959 0.575919 0.518729
C44_2 C 0.5874(4) 0.4482(6) 0.5327(4)
C45_2 C 0.6186(4) 0.4012(7) 0.5602(4)
H31_2 H 0.623497 0.336541 0.556734
C46_2 C 0.6425(4) 0.4511(7) 0.5929(4)
H32_2 H 0.663221 0.418174 0.612425
C47_2 C 0.5724(6) 0.0157(8) 0.4858(5)
C48_2 C 0.5719(5) 0.1112(8) 0.4892(4)
H34_2 H 0.589740 0.141500 0.512228
C49_2 C 0.5449(4) 0.1633(7) 0.4586(4)
C50_2 C 0.5215(4) 0.1116(7) 0.4245(4)
H35_2 H 0.502587 0.142698 0.402667
C51_2 C 0.5261(5) 0.0195(9) 0.4231(5)
C52_2 C 0.5092(4) 0.3991(7) 0.4393(3)
C53_2 C 0.5601(4) 0.3967(6) 0.4972(4)
C54_2 C 0.5422(4) 0.2642(6) 0.4622(3)
N19_2 N 0.0850(4) 0.3152(7) 0.4128(4)
N20_2 N 0.3271(4) 0.5315(7) 0.2912(4)
N22_2 N 0.2041(3) 0.3359(7) 0.3240(3)
N23_2 N 0.2294(3) 0.2516(6) 0.2678(3)
N24_2 N 0.1682(4) 0.1971(7) 0.2992(3)
C55_2 C 0.1263(6) 0.3343(12) 0.4217(6)
H37_2 H 0.136502 0.358447 0.449356
C56_2 C 0.1568(5) 0.3224(12) 0.3942(5)
H38_2 H 0.186297 0.340322 0.402571
C57_2 C 0.1433(4) 0.2842(8) 0.3547(4)
C58_2 C 0.0976(5) 0.2613(10) 0.3450(5)
H39_2 H 0.086594 0.234707 0.318020
C59_2 C 0.0703(6) 0.2772(13) 0.3738(6)
H40_2 H 0.040347 0.261580 0.366701
C60_2 C 0.2980(4) 0.5397(8) 0.3178(4)
H41_2 H 0.299256 0.592293 0.336159
C61_2 C 0.2659(5) 0.4736(9) 0.3195(4)
H42_2 H 0.245284 0.480628 0.338740
C62_2 C 0.2643(4) 0.3941(7) 0.2917(4)
C63_2 C 0.2928(4) 0.3882(7) 0.2639(4)
H43_2 H 0.291480 0.337267 0.244609
C64_2 C 0.3250(4) 0.4586(8) 0.2634(4)
H44_2 H 0.345064 0.454695 0.243499
C65_2 C 0.2273(4) 0.0135(8) 0.1932(4)
H45_2 H 0.249412 0.005960 0.175756
C66_2 C 0.2286(4) 0.0880(8) 0.2196(4)
H46_2 H 0.252088 0.130703 0.220582
C67_2 C 0.1977(4) 0.1038(8) 0.2446(4)
C68_2 C 0.1640(4) 0.0391(9) 0.2432(4)
H47_2 H 0.141283 0.047180 0.259889
C70_2 C 0.1732(4) 0.2710(7) 0.3243(4)
C71_2 C 0.2302(4) 0.3241(7) 0.2957(4)
C72_2 C 0.1981(4) 0.1896(7) 0.2727(4)
N26_2 N 0.5258(4) 0.0192(7) 0.9533(4)
H56_2 H 0.493959 0.005337 0.895156
N32_2 N 0.1832(3) 0.0368(7) 0.6954(3)
C100_2 C 0.1566(5) 0.0188(9) 0.7246(4)
H68_2 H 0.132974 0.059980 0.726299
N37_2 N 0.1308(3) 0.0625(6) 0.6009(3)
C112_2 C 0.0844(4) 0.0663(8) 0.5332(4)
H75_2 H 0.067556 0.102314 0.511555
C113_2 C 0.1072(4) 0.1088(7) 0.5692(4)
H76_2 H 0.105964 0.174710 0.571170
Zn14_2 Zn 0.04325(7) 0.34868(10) 0.45430(7)
Cl10_2 Cl 0.0974(3) 0.6624(3) 0.03267(15)
N25 N 0.6420(4) 0.4425(7) 0.0789(4)
C73_2 C 0.6478(5) 0.5341(10) 0.0726(5)
H49_2 H 0.669322 0.565722 0.091908
C74_2 C 0.6247(5) 0.5844(9) 0.0399(5)
H50_2 H 0.630713 0.648454 0.036277
C75_2 C 0.5911(4) 0.5381(8) 0.0114(4)
C76_2 C 0.5857(5) 0.4432(9) 0.0180(4)
C77_2 C 0.6110(5) 0.3997(8) 0.0524(5)
H52_2 H 0.605815 0.335689 0.057306
H54_2 H 0.568529 0.843075 0.008837
Zn15 Zn 0.68187(7) 0.36893(12) 0.12493(6)
Zn1_2 Zn 0.86656(12) 0.85138(17) 0.82066(16)
Cl1_2 Cl 0.89503(18) 0.8582(4) 0.7597(2)
Cl2_2 Cl 0.8476(2) 0.7243(3) 0.8517(2)
Zn4_2 Zn 0.39266(7) 0.39677(14) 0.76685(8)
Cl7_2 Cl 0.41060(16) 0.4293(4) 0.70371(16)
Cl8_2 Cl 0.38241(18) 0.2547(3) 0.7905(2)
Cl13_2 Cl 0.07324(19) 0.3094(3) 0.51905(14)
Zn10 Zn 0.54655(9) 0.82697(11) 0.45092(9)
Cl19_2 Cl 0.48138(15) 0.7898(3) 0.41757(18)
Cl20_2 Cl 0.57137(18) 0.7837(3) 0.51667(15)
Cl23_2 Cl 0.15235(12) 0.73133(19) 0.15924(12)
Cl24_2 Cl 0.25389(12) 0.8511(3) 0.12014(11)
N1_2 N 0.9102(4) 0.9238(7) 0.8615(4)
C1_2 C 0.9380(5) 0.8792(9) 0.8910(5)
H1_2 H 0.934597 0.813956 0.893940
C2_2 C 0.9711(4) 0.9224(8) 0.9174(5)
H2_2 H 0.990607 0.886458 0.936891
N8_2 N 0.8168(3) 0.9434(7) 0.8100(3)
C24_2 C 0.7902(6) 0.9468(13) 0.8398(6)
H17_2 H 0.792947 0.901343 0.861826
N15_2 N 0.5490(4) 0.9703(6) 0.4537(4)
H33_2 H 0.590276 0.980911 0.507184
H36_2 H 0.511932 0.987435 0.398591
N21_2 N 0.1952(3) 0.9498(6) 0.1913(3)
C69_2 C 0.1648(5) 0.9619(11) 0.2164(5)
H48_2 H 0.142626 0.916147 0.216062
N27_2 N 0.4362(4) 0.4550(7) 0.8147(4)
N28_2 N 0.5679(3) 0.6853(6) 0.9770(3)
N29_2 N 0.5206(4) 0.6854(7) 0.9114(3)
N30_2 N 0.5393(3) 0.5401(7) 0.9464(3)
H51_2 H 0.564987 0.408526 0.999187
C78_2 C 0.5464(7) 0.9693(10) 0.9856(5)
C79_2 C 0.5540(8) 0.8754(12) 0.9846(6)
C80_2 C 0.5398(5) 0.8305(8) 0.9470(4)
C81_2 C 0.5170(7) 0.8775(10) 0.9142(6)
H55_2 H 0.505641 0.846099 0.888556
C82_2 C 0.5103(7) 0.9727(10) 0.9183(5)
C83_2 C 0.4469(6) 0.5462(12) 0.8101(6)
H57_2 H 0.435532 0.578466 0.784660
C84_2 C 0.4738(5) 0.5921(11) 0.8420(5)
H58_2 H 0.480569 0.655940 0.838660
C85_2 C 0.4909(5) 0.5453(9) 0.8787(4)
C86_2 C 0.4815(5) 0.4495(8) 0.8819(5)
H59_2 H 0.493884 0.413868 0.905958
C87_2 C 0.4546(5) 0.4109(8) 0.8498(5)
H60_2 H 0.448093 0.346717 0.852230
C88_2 C 0.5665(4) 0.5903(8) 0.9771(4)
C89_2 C 0.5436(4) 0.7275(9) 0.9458(4)
C90_2 C 0.5192(4) 0.5928(8) 0.9146(4)
N31_2 N 0.3382(4) 0.4758(8) 0.7755(4)
N33_2 N 0.1036(5) 0.6678(8) 0.9256(5)
N34_2 N 0.2362(3) 0.7460(7) 0.7724(3)
N35_2 N 0.1790(4) 0.7939(7) 0.8088(3)
N36_2 N 0.2173(4) 0.6552(8) 0.8279(4)
C91_2 C 0.3299(6) 0.5533(11) 0.7494(5)
H61_2 H 0.346691 0.563896 0.727021
C92_2 C 0.2971(5) 0.6157(12) 0.7559(5)
H62_2 H 0.290469 0.667002 0.737058
C93_2 C 0.2746(4) 0.6030(8) 0.7889(4)
C94_2 C 0.2823(6) 0.5281(12) 0.8156(6)
H63_2 H 0.266971 0.520931 0.839309
C95_2 C 0.3128(5) 0.4633(9) 0.8074(6)
H64_2 H 0.316536 0.408316 0.824270
C96_2 C 0.2168(4) 0.9816(9) 0.6942(4)
H65_2 H 0.236295 0.993674 0.674330
C97_2 C 0.2243(4) 0.9048(8) 0.7220(4)
H66_2 H 0.248400 0.864923 0.720316
C98_2 C 0.1978(4) 0.8878(7) 0.7506(4)
C99_2 C 0.1619(4) 0.9450(10) 0.7517(4)
H67_2 H 0.141659 0.932840 0.770795
C101_2 C 0.0890(7) 0.7221(12) 0.8903(6)
H69_2 H 0.060612 0.748212 0.886900
C102_2 C 0.1153(5) 0.7379(12) 0.8606(5)
H70_2 H 0.104636 0.773546 0.835915
C103_2 C 0.1586(6) 0.7023(9) 0.8655(4)
C104_2 C 0.1741(6) 0.6526(14) 0.9018(5)
H71_2 H 0.202980 0.628774 0.906506
C105_2 C 0.1452(8) 0.6388(16) 0.9317(7)
H72_2 H 0.155714 0.607152 0.957590
C106_2 C 0.2406(4) 0.6697(9) 0.7970(4)
C107_2 C 0.2040(4) 0.8040(7) 0.7791(3)
C108_2 C 0.1857(5) 0.7160(9) 0.8327(4)
N38_2 N 0.0438(4) 0.4924(6) 0.4561(3)
N40_2 N 0.0681(3) 0.8286(6) 0.4901(3)
N41_2 N 0.0136(3) 0.8280(6) 0.4297(3)
N42_2 N 0.0321(3) 0.9703(6) 0.4664(3)
C109_2 C 0.1331(4) 0.9681(7) 0.5971(4)
H73_2 H 0.149792 0.933638 0.619400
C110_2 C 0.1118(4) 0.9201(7) 0.5612(4)
H74_2 H 0.114616 0.854542 0.558841
C111_2 C 0.0866(4) 0.9708(7) 0.5295(4)
C114_2 C 0.0703(4) 0.5384(8) 0.4852(4)
H77_2 H 0.089540 0.504371 0.505721
C115_2 C 0.0710(4) 0.6335(8) 0.4868(4)
H78_2 H 0.091137 0.665007 0.507525
C116_2 C 0.0422(4) 0.6829(7) 0.4579(4)
C117_2 C 0.0126(4) 0.6357(8) 0.4280(4)
C118_2 C 0.0142(4) 0.5395(7) 0.4280(4)
C124_2 C 0.0617(4) 0.9227(7) 0.4931(4)
C125_2 C 0.0409(4) 0.7882(7) 0.4589(3)
C126_2 C 0.0096(4) 0.9213(7) 0.4343(4)
N53 N 0.5913(4) 0.7839(8) 0.4123(4)
Cl9_2 Cl 0.9970(2) 0.6928(3) 0.9449(2)
Cl14_2 Cl 0.97879(16) 0.3037(3) 0.42291(19)
Cl17_2 Cl 0.74564(14) 0.3520(3) 0.10195(13)
Cl18_2 Cl 0.64374(18) 0.2536(3) 0.14706(15)
H79_2 H 0.991945 0.668493 0.408184
H80_2 H 0.994211 0.505633 0.408073
C119_2 C 0.9236(5) 0.9725(8) 0.3408(5)
H81_2 H 0.907747 0.939722 0.317379
C120_2 C 0.9546(6) 0.9257(9) 0.3694(5)
H82_2 H 0.960490 0.861890 0.365001
C121_2 C 0.9759(4) 0.9709(7) 0.4030(4)
N44_2 N 0.6931(4) 0.4624(7) 0.1745(4)
N46_2 N 0.7333(3) 0.7454(7) 0.2656(3)
N47_2 N 0.6781(3) 0.6760(7) 0.2980(3)
N48_2 N 0.7069(3) 0.8199(7) 0.3222(3)
C127_2 C 0.8203(5) 0.9674(11) 0.2641(5)
H85_2 H 0.839710 0.969376 0.243560
C128_2 C 0.7929(4) 0.8954(9) 0.2636(4)
H86_2 H 0.793876 0.845998 0.243814
C129_2 C 0.7642(4) 0.8933(8) 0.2910(4)
C130_2 C 0.7633(6) 0.9698(11) 0.3198(6)
H87_2 H 0.742594 0.972606 0.339111
C132_2 C 0.7257(5) 0.5228(10) 0.1780(5)
H89_2 H 0.746202 0.518831 0.158547
C133_2 C 0.7309(4) 0.5904(9) 0.2086(4)
H90_2 H 0.755431 0.630623 0.210299
C134_2 C 0.7018(4) 0.6022(8) 0.2370(4)
C135_2 C 0.6679(4) 0.5361(8) 0.2347(5)
H91_2 H 0.648041 0.537145 0.254955
C136_2 C 0.6639(5) 0.4688(10) 0.2021(5)
H92_2 H 0.640019 0.426697 0.199397
C137_2 C 0.5812(5) 0.7339(10) 0.3782(5)
H93_2 H 0.552453 0.709414 0.372746
C138_2 C 0.6082(4) 0.7142(9) 0.3502(5)
H94_2 H 0.599183 0.674697 0.326404
C139_2 C 0.6503(4) 0.7534(9) 0.3567(4)
C140_2 C 0.6614(6) 0.8055(13) 0.3929(5)
H95_2 H 0.689873 0.831121 0.399122
C141_2 C 0.6326(6) 0.8205(13) 0.4194(6)
H96_2 H 0.640897 0.857840 0.444038
C142_2 C 0.7330(4) 0.8141(8) 0.2933(4)
C143_2 C 0.7034(3) 0.6778(8) 0.2694(4)
C144_2 C 0.6792(4) 0.7486(9) 0.3247(4)
Cl5_2 Cl 0.54994(13) 0.2014(2) 0.02110(12)
H53_2 H 0.556549 0.001265 0.011496
Zn8_2 Zn 0.87176(6) 0.13274(11) 0.30162(6)
Cl15_2 Cl 0.89843(16) 0.1387(3) 0.24101(14)
Cl16_2 Cl 0.84927(13) 0.2530(2) 0.33701(13)
N39_2 N 0.9160(4) 0.0617(7) 0.3458(4)
C122_2 C 0.9686(4) 0.0652(8) 0.4078(4)
H83_2 H 0.984404 0.099785 0.430557
C123_2 C 0.9382(5) 0.1055(8) 0.3790(4)
H84_2 H 0.932291 0.169649 0.382577
N43_2 N 0.8214(4) 0.0380(7) 0.2930(4)
C131_2 C 0.7935(6) 0.0394(11) 0.3184(6)
H88_2 H 0.793492 0.090697 0.337345
loop_
_geom_bond_atom_site_label_1
_geom_bond_atom_site_label_2
_geom_bond_site_symmetry_1
_geom_bond_site_symmetry_2
Zn8 Cl15 1_555 1_555
Cl16 Zn8 1_555 1_555
N39 Zn8 1_555 1_555
C119 N39 1_555 1_555
H81 C119 1_555 1_555
C120 C119 1_555 1_555
H82 C120 1_555 1_555
C121 C120 1_555 1_555
C122 C121 1_555 1_555
H83 C122 1_555 1_555
C123 N39 1_555 1_555
H84 C123 1_555 1_555
N43 Zn8 1_555 1_555
N45 C137 1_555 1_555
N46 C142 1_555 1_555
N47 C143 1_555 1_555
N48 C142 1_555 1_555
C127 N43 1_555 1_555
H85 C127 1_555 1_555
C128 C127 1_555 1_555
H86 C128 1_555 1_555
C129 C128 1_555 1_555
C130 C129 1_555 1_555
H87 C130 1_555 1_555
C131 N43 1_555 1_555
H88 C131 1_555 1_555
H89 C132 1_555 1_555
C133 C132 1_555 1_555
H90 C133 1_555 1_555
C134 C133 1_555 1_555
C135 C134 1_555 1_555
H91 C135 1_555 1_555
C137 H93 1_555 1_555
C138 C137 1_555 1_555
H94 C138 1_555 1_555
C139 C138 1_555 1_555
C140 C139 1_555 1_555
H95 C140 1_555 1_555
C141 N45 1_555 1_555
H96 C141 1_555 1_555
C142 C129 1_555 1_555
C143 N46 1_555 1_555
C144 N47 1_555 1_555
Zn16 N45 1_555 1_555
C122 C123 1_555 1_555
N48 C144 1_555 1_555
C130 C131 1_555 1_555
C134 C143 1_555 1_555
C139 C144 1_555 1_555
C140 C141 1_555 1_555
Zn1 Cl1 1_555 1_555
Cl2 Zn1 1_555 1_555
Cl6 Zn3 1_555 1_555
Zn6 Cl11 1_555 1_555
Cl12 Zn6 1_555 1_555
Zn16 Cl19 1_555 1_555
Cl20 Zn16 1_555 1_555
Zn12 Cl23 1_555 1_555
Cl24 Zn12 1_555 1_555
N1 Zn1 1_555 1_555
C1 N1 1_555 1_555
H1 C1 1_555 1_555
C2 C1 1_555 1_555
H2 C2 1_555 1_555
C3 C2 1_555 1_555
C4 C3 1_555 1_555
H3 C4 1_555 1_555
C5 N1 1_555 1_555
H4 C5 1_555 1_555
N7 Zn3 1_555 1_555
N8 Zn1 1_555 1_555
N10 C34 1_555 1_555
N11 C35 1_555 1_555
N12 C34 1_555 1_555
C19 N7 1_555 1_555
H13 C19 1_555 1_555
C20 C19 1_555 1_555
H14 C20 1_555 1_555
C21 C20 1_555 1_555
C22 C21 1_555 1_555
H15 C22 1_555 1_555
C23 N7 1_555 1_555
H16 C23 1_555 1_555
C24 N8 1_555 1_555
H17 C24 1_555 1_555
C25 C24 1_555 1_555
H18 C25 1_555 1_555
C26 C25 1_555 1_555
C27 C26 1_555 1_555
H19 C27 1_555 1_555
C28 N8 1_555 1_555
H20 C28 1_555 1_555
H21 C29 1_555 1_555
C30 C29 1_555 1_555
H22 C30 1_555 1_555
C31 C30 1_555 1_555
C32 C31 1_555 1_555
H23 C32 1_555 1_555
C34 C21 1_555 1_555
C35 N10 1_555 1_555
C36 N11 1_555 1_555
N15 Zn16 1_555 1_555
N16 C52 1_555 1_555
N17 C53 1_555 1_555
N18 C52 1_555 1_555
C40 C39 1_555 1_555
H27 C40 1_555 1_555
H28 C41 1_555 1_555
C45 C44 1_555 1_555
H31 C45 1_555 1_555
H32 C46 1_555 1_555
C47 N15 1_555 1_555
H33 C47 1_555 1_555
C48 C47 1_555 1_555
H34 C48 1_555 1_555
C49 C48 1_555 1_555
C50 C49 1_555 1_555
H35 C50 1_555 1_555
C51 N15 1_555 1_555
H36 C51 1_555 1_555
C52 C39 1_555 1_555
C53 N16 1_555 1_555
C54 N17 1_555 1_555
N19 C55 1_555 1_555
N21 Zn12 1_555 1_555
N22 C70 1_555 1_555
N23 C71 1_555 1_555
N24 C70 1_555 1_555
C55 H37 1_555 1_555
C56 C55 1_555 1_555
H38 C56 1_555 1_555
C57 C56 1_555 1_555
C58 C57 1_555 1_555
H39 C58 1_555 1_555
C59 N19 1_555 1_555
H40 C59 1_555 1_555
H42 C61 1_555 1_555
C62 C61 1_555 1_555
C63 C62 1_555 1_555
H43 C63 1_555 1_555
H44 C64 1_555 1_555
C65 N21 1_555 1_555
H45 C65 1_555 1_555
C66 C65 1_555 1_555
H46 C66 1_555 1_555
C67 C66 1_555 1_555
C68 C67 1_555 1_555
H47 C68 1_555 1_555
C69 N21 1_555 1_555
H48 C69 1_555 1_555
C70 C57 1_555 1_555
C71 N22 1_555 1_555
C72 N23 1_555 1_555
N26 Zn3 1_555 1_555
N28 C88 1_555 1_555
N29 C89 1_555 1_555
N30 C88 1_555 1_555
C78 N26 1_555 1_555
C79 C78 1_555 1_555
C80 C79 1_555 1_555
C81 C80 1_555 1_555
H55 C81 1_555 1_555
C82 N26 1_555 1_555
H56 C82 1_555 1_555
H57 C83 1_555 1_555
C84 C83 1_555 1_555
H58 C84 1_555 1_555
C85 C84 1_555 1_555
C89 N28 1_555 1_555
C90 N29 1_555 1_555
N32 Zn6 1_555 1_555
N33 Zn5 1_555 1_555
N34 C106 1_555 1_555
N35 C107 1_555 1_555
N36 C106 1_555 1_555
H61 C91 1_555 1_555
C92 C91 1_555 1_555
H62 C92 1_555 1_555
C93 C92 1_555 1_555
C94 C93 1_555 1_555
H63 C94 1_555 1_555
C96 N32 1_555 1_555
H65 C96 1_555 1_555
C97 C96 1_555 1_555
H66 C97 1_555 1_555
C98 C97 1_555 1_555
C99 C98 1_555 1_555
H67 C99 1_555 1_555
C100 N32 1_555 1_555
H68 C100 1_555 1_555
C101 N33 1_555 1_555
H69 C101 1_555 1_555
C102 C101 1_555 1_555
H70 C102 1_555 1_555
C103 C102 1_555 1_555
C104 C103 1_555 1_555
H71 C104 1_555 1_555
C105 N33 1_555 1_555
H72 C105 1_555 1_555
C106 C93 1_555 1_555
C107 N34 1_555 1_555
C108 N35 1_555 1_555
N37 Zn6 1_555 1_555
N40 C124 1_555 1_555
N41 C125 1_555 1_555
N42 C124 1_555 1_555
C109 N37 1_555 1_555
H73 C109 1_555 1_555
C110 C109 1_555 1_555
H74 C110 1_555 1_555
C111 C110 1_555 1_555
C112 C111 1_555 1_555
H75 C112 1_555 1_555
C113 N37 1_555 1_555
H76 C113 1_555 1_555
H77 C114 1_555 1_555
C115 C114 1_555 1_555
H78 C115 1_555 1_555
C116 C115 1_555 1_555
C117 C116 1_555 1_555
C124 C111 1_555 1_555
C125 N40 1_555 1_555
C126 N41 1_555 1_555
Zn14 N19 1_555 1_555
N49 Zn12 1_555 1_555
C4 C5 1_555 1_555
N12 C36 1_555 1_555
C22 C23 1_555 1_555
C26 C35 1_555 1_555
C27 C28 1_555 1_555
C31 C36 1_555 1_555
N18 C54 1_555 1_555
C40 C41 1_555 1_555
C44 C53 1_555 1_555
C45 C46 1_555 1_555
C49 C54 1_555 1_555
C50 C51 1_555 1_555
N24 C72 1_555 1_555
C58 C59 1_555 1_555
C62 C71 1_555 1_555
C63 C64 1_555 1_555
C67 C72 1_555 1_555
C68 C69 1_555 1_555
N30 C90 1_555 1_555
C80 C89 1_555 1_555
C81 C82 1_555 1_555
C85 C90 1_555 1_555
N36 C108 1_555 1_555
C98 C107 1_555 1_555
C99 C100 1_555 1_555
C103 C108 1_555 1_555
C104 C105 1_555 1_555
N42 C126 1_555 1_555
C112 C113 1_555 1_555
C116 C125 1_555 1_555
C117 C118 1_555 1_555
Zn4 Cl7 1_555 1_555
Cl8 Zn4 1_555 1_555
Zn14 Cl13 1_555 1_555
N27 Zn4 1_555 1_555
H59 C86 1_555 1_555
C87 N27 1_555 1_555
H60 C87 1_555 1_555
N31 Zn4 1_555 1_555
C95 N31 1_555 1_555
H64 C95 1_555 1_555
N38 Zn14 1_555 1_555
C86 C87 1_555 1_555
N50 C11 1_555 1_555
N4 C16 1_555 1_555
N5 C17 1_555 1_555
N6 C16 1_555 1_555
C12 C11 1_555 1_555
C13 C12 1_555 1_555
C14 C13 1_555 1_555
C15 N50 1_555 1_555
H12 C15 1_555 1_555
C17 N4 1_555 1_555
C18 N5 1_555 1_555
N6 C18 1_555 1_555
C13 C18 1_555 1_555
C14 C15 1_555 1_555
N49 C6 1_555 1_555
C6 H5 1_555 1_555
C7 C6 1_555 1_555
H6 C7 1_555 1_555
C8 C7 1_555 1_555
C9 C8 1_555 1_555
H7 C9 1_555 1_555
C10 N49 1_555 1_555
H8 C10 1_555 1_555
C9 C10 1_555 1_555
Zn9 Cl17 1_555 1_555
Cl18 Zn9 1_555 1_555
N44 Zn9 1_555 1_555
C136 N44 1_555 1_555
H92 C136 1_555 1_555
N52 Zn9 1_555 1_555
C77 N52 1_555 1_555
H52 C77 1_555 1_555
C76 C77 1_555 1_555
Zn2 Cl3 1_555 1_555
Cl4 Zn2 1_555 1_555
Zn11 Cl21 1_555 1_555
Cl22 Zn11 1_555 1_555
N9 Zn2 1_555 1_555
C33 N9 1_555 1_555
H24 C33 1_555 1_555
N13 Zn11 1_555 1_555
N14 Zn2 1_555 1_555
C37 N13 1_555 1_555
H25 C37 1_555 1_555
C38 C37 1_555 1_555
H26 C38 1_555 1_555
C42 N14 1_555 1_555
H29 C42 1_555 1_555
C43 C42 1_555 1_555
H30 C43 1_555 1_555
N20 Zn11 1_555 1_555
C60 N20 1_555 1_555
H41 C60 1_555 1_555
C73 H49 1_555 1_555
C74 C73 1_555 1_555
H50 C74 1_555 1_555
C75 C74 1_555 1_555
C9_2 C8_2 1_555 1_555
H7_2 C9_2 1_555 1_555
H8_2 C10_2 1_555 1_555
C9_2 C10_2 1_555 1_555
N3 C11_2 1_555 1_555
N4_2 C16_2 1_555 1_555
N5_2 C17_2 1_555 1_555
N6_2 C16_2 1_555 1_555
C12_2 C11_2 1_555 1_555
C13_2 C12_2 1_555 1_555
C14_2 C13_2 1_555 1_555
C15_2 N3 1_555 1_555
H12_2 C15_2 1_555 1_555
C17_2 N4_2 1_555 1_555
C18_2 N5_2 1_555 1_555
Zn13 N3 1_555 1_555
N6_2 C18_2 1_555 1_555
C13_2 C18_2 1_555 1_555
C14_2 C15_2 1_555 1_555
N2 C6_2 1_555 1_555
C6_2 H5_2 1_555 1_555
C7_2 C6_2 1_555 1_555
H6_2 C7_2 1_555 1_555
Zn17 N2 1_555 1_555
Zn2_2 Cl3_2 1_555 1_555
Cl4_2 Zn2_2 1_555 1_555
Cl6_2 Zn3_2 1_555 1_555
Zn6_2 Cl11_2 1_555 1_555
Cl12_2 Zn6_2 1_555 1_555
Zn11_2 Cl21_2 1_555 1_555
Cl22_2 Zn11_2 1_555 1_555
C4_2 C3_2 1_555 1_555
H3_2 C4_2 1_555 1_555
H4_2 C5_2 1_555 1_555
N7_2 Zn3_2 1_555 1_555
N9_2 Zn2_2 1_555 1_555
N10_2 C34_2 1_555 1_555
N11_2 C35_2 1_555 1_555
N12_2 C34_2 1_555 1_555
C19_2 N7_2 1_555 1_555
H13_2 C19_2 1_555 1_555
C20_2 C19_2 1_555 1_555
H14_2 C20_2 1_555 1_555
C21_2 C20_2 1_555 1_555
C22_2 C21_2 1_555 1_555
H15_2 C22_2 1_555 1_555
C23_2 N7_2 1_555 1_555
H16_2 C23_2 1_555 1_555
H18_2 C25_2 1_555 1_555
C26_2 C25_2 1_555 1_555
C27_2 C26_2 1_555 1_555
H19_2 C27_2 1_555 1_555
H20_2 C28_2 1_555 1_555
C29_2 N9_2 1_555 1_555
H21_2 C29_2 1_555 1_555
C30_2 C29_2 1_555 1_555
H22_2 C30_2 1_555 1_555
C31_2 C30_2 1_555 1_555
C32_2 C31_2 1_555 1_555
H23_2 C32_2 1_555 1_555
C33_2 N9_2 1_555 1_555
H24_2 C33_2 1_555 1_555
C34_2 C21_2 1_555 1_555
C35_2 N10_2 1_555 1_555
C36_2 N11_2 1_555 1_555
N13_2 Zn11_2 1_555 1_555
N14_2 Zn2_2 1_555 1_555
N16_2 C52_2 1_555 1_555
N17_2 C53_2 1_555 1_555
N18_2 C52_2 1_555 1_555
C37_2 N13_2 1_555 1_555
H25_2 C37_2 1_555 1_555
C38_2 C37_2 1_555 1_555
H26_2 C38_2 1_555 1_555
C39_2 C38_2 1_555 1_555
C40_2 C39_2 1_555 1_555
H27_2 C40_2 1_555 1_555
C41_2 N13_2 1_555 1_555
H28_2 C41_2 1_555 1_555
C42_2 N14_2 1_555 1_555
H29_2 C42_2 1_555 1_555
C43_2 C42_2 1_555 1_555
H30_2 C43_2 1_555 1_555
C44_2 C43_2 1_555 1_555
C45_2 C44_2 1_555 1_555
H31_2 C45_2 1_555 1_555
C46_2 N14_2 1_555 1_555
H32_2 C46_2 1_555 1_555
C48_2 C47_2 1_555 1_555
H34_2 C48_2 1_555 1_555
C49_2 C48_2 1_555 1_555
C50_2 C49_2 1_555 1_555
H35_2 C50_2 1_555 1_555
C52_2 C39_2 1_555 1_555
C53_2 N16_2 1_555 1_555
C54_2 N17_2 1_555 1_555
N19_2 C55_2 1_555 1_555
N20_2 Zn11_2 1_555 1_555
N22_2 C70_2 1_555 1_555
N23_2 C71_2 1_555 1_555
N24_2 C70_2 1_555 1_555
C55_2 H37_2 1_555 1_555
C56_2 C55_2 1_555 1_555
H38_2 C56_2 1_555 1_555
C57_2 C56_2 1_555 1_555
C58_2 C57_2 1_555 1_555
H39_2 C58_2 1_555 1_555
C59_2 N19_2 1_555 1_555
H40_2 C59_2 1_555 1_555
C60_2 N20_2 1_555 1_555
H41_2 C60_2 1_555 1_555
C61_2 C60_2 1_555 1_555
H42_2 C61_2 1_555 1_555
C62_2 C61_2 1_555 1_555
C63_2 C62_2 1_555 1_555
H43_2 C63_2 1_555 1_555
C64_2 N20_2 1_555 1_555
H44_2 C64_2 1_555 1_555
H45_2 C65_2 1_555 1_555
C66_2 C65_2 1_555 1_555
H46_2 C66_2 1_555 1_555
C67_2 C66_2 1_555 1_555
C68_2 C67_2 1_555 1_555
H47_2 C68_2 1_555 1_555
C70_2 C57_2 1_555 1_555
C71_2 N22_2 1_555 1_555
C72_2 N23_2 1_555 1_555
N26_2 Zn3_2 1_555 1_555
N32_2 Zn6_2 1_555 1_555
C100_2 N32_2 1_555 1_555
H68_2 C100_2 1_555 1_555
N37_2 Zn6_2 1_555 1_555
H75_2 C112_2 1_555 1_555
C113_2 N37_2 1_555 1_555
H76_2 C113_2 1_555 1_555
Zn14_2 N19_2 1_555 1_555
C4_2 C5_2 1_555 1_555
N12_2 C36_2 1_555 1_555
C22_2 C23_2 1_555 1_555
C26_2 C35_2 1_555 1_555
C27_2 C28_2 1_555 1_555
C31_2 C36_2 1_555 1_555
C32_2 C33_2 1_555 1_555
N18_2 C54_2 1_555 1_555
C40_2 C41_2 1_555 1_555
C44_2 C53_2 1_555 1_555
C45_2 C46_2 1_555 1_555
C49_2 C54_2 1_555 1_555
C50_2 C51_2 1_555 1_555
N24_2 C72_2 1_555 1_555
C58_2 C59_2 1_555 1_555
C62_2 C71_2 1_555 1_555
C63_2 C64_2 1_555 1_555
C67_2 C72_2 1_555 1_555
C112_2 C113_2 1_555 1_555
N25 C73_2 1_555 1_555
C73_2 H49_2 1_555 1_555
C74_2 C73_2 1_555 1_555
H50_2 C74_2 1_555 1_555
C75_2 C74_2 1_555 1_555
C76_2 C75_2 1_555 1_555
C77_2 N25 1_555 1_555
H52_2 C77_2 1_555 1_555
Zn15 N25 1_555 1_555
C76_2 C77_2 1_555 1_555
Zn1_2 Cl1_2 1_555 1_555
Cl2_2 Zn1_2 1_555 1_555
Zn4_2 Cl7_2 1_555 1_555
Cl8_2 Zn4_2 1_555 1_555
Zn14_2 Cl13_2 1_555 1_555
Zn10 Cl19_2 1_555 1_555
Cl20_2 Zn10 1_555 1_555
Zn17 Cl23_2 1_555 1_555
Cl24_2 Zn17 1_555 1_555
N1_2 Zn1_2 1_555 1_555
C1_2 N1_2 1_555 1_555
H1_2 C1_2 1_555 1_555
C2_2 C1_2 1_555 1_555
H2_2 C2_2 1_555 1_555
N8_2 Zn1_2 1_555 1_555
C24_2 N8_2 1_555 1_555
H17_2 C24_2 1_555 1_555
N15_2 Zn10 1_555 1_555
N21_2 Zn17 1_555 1_555
C69_2 N21_2 1_555 1_555
H48_2 C69_2 1_555 1_555
N27_2 Zn4_2 1_555 1_555
N28_2 C88_2 1_555 1_555
N29_2 C89_2 1_555 1_555
N30_2 C88_2 1_555 1_555
C79_2 C78_2 1_555 1_555
C80_2 C79_2 1_555 1_555
C81_2 C80_2 1_555 1_555
H55_2 C81_2 1_555 1_555
C83_2 N27_2 1_555 1_555
H57_2 C83_2 1_555 1_555
C84_2 C83_2 1_555 1_555
H58_2 C84_2 1_555 1_555
C85_2 C84_2 1_555 1_555
C86_2 C85_2 1_555 1_555
H59_2 C86_2 1_555 1_555
C87_2 N27_2 1_555 1_555
H60_2 C87_2 1_555 1_555
C89_2 N28_2 1_555 1_555
C90_2 N29_2 1_555 1_555
N31_2 Zn4_2 1_555 1_555
N33_2 Zn13 1_555 1_555
N34_2 C106_2 1_555 1_555
N35_2 C107_2 1_555 1_555
N36_2 C106_2 1_555 1_555
C91_2 N31_2 1_555 1_555
H61_2 C91_2 1_555 1_555
C92_2 C91_2 1_555 1_555
H62_2 C92_2 1_555 1_555
C93_2 C92_2 1_555 1_555
C94_2 C93_2 1_555 1_555
H63_2 C94_2 1_555 1_555
C95_2 N31_2 1_555 1_555
H64_2 C95_2 1_555 1_555
H65_2 C96_2 1_555 1_555
C97_2 C96_2 1_555 1_555
H66_2 C97_2 1_555 1_555
C98_2 C97_2 1_555 1_555
C99_2 C98_2 1_555 1_555
H67_2 C99_2 1_555 1_555
C101_2 N33_2 1_555 1_555
H69_2 C101_2 1_555 1_555
C102_2 C101_2 1_555 1_555
H70_2 C102_2 1_555 1_555
C103_2 C102_2 1_555 1_555
C104_2 C103_2 1_555 1_555
H71_2 C104_2 1_555 1_555
C105_2 N33_2 1_555 1_555
H72_2 C105_2 1_555 1_555
C106_2 C93_2 1_555 1_555
C107_2 N34_2 1_555 1_555
C108_2 N35_2 1_555 1_555
N38_2 Zn14_2 1_555 1_555
N40_2 C124_2 1_555 1_555
N41_2 C125_2 1_555 1_555
N42_2 C124_2 1_555 1_555
H73_2 C109_2 1_555 1_555
C110_2 C109_2 1_555 1_555
H74_2 C110_2 1_555 1_555
C111_2 C110_2 1_555 1_555
C114_2 N38_2 1_555 1_555
H77_2 C114_2 1_555 1_555
C115_2 C114_2 1_555 1_555
H78_2 C115_2 1_555 1_555
C116_2 C115_2 1_555 1_555
C117_2 C116_2 1_555 1_555
C118_2 N38_2 1_555 1_555
C124_2 C111_2 1_555 1_555
C125_2 N40_2 1_555 1_555
C126_2 N41_2 1_555 1_555
N53 Zn10 1_555 1_555
N30_2 C90_2 1_555 1_555
C80_2 C89_2 1_555 1_555
C81_2 C82_2 1_555 1_555
C85_2 C90_2 1_555 1_555
C86_2 C87_2 1_555 1_555
N36_2 C108_2 1_555 1_555
C94_2 C95_2 1_555 1_555
C98_2 C107_2 1_555 1_555
C103_2 C108_2 1_555 1_555
C104_2 C105_2 1_555 1_555
N42_2 C126_2 1_555 1_555
C116_2 C125_2 1_555 1_555
C117_2 C118_2 1_555 1_555
Zn15 Cl17_2 1_555 1_555
Cl18_2 Zn15 1_555 1_555
H81_2 C119_2 1_555 1_555
C120_2 C119_2 1_555 1_555
H82_2 C120_2 1_555 1_555
C121_2 C120_2 1_555 1_555
N44_2 Zn15 1_555 1_555
N53 C137_2 1_555 1_555
N46_2 C142_2 1_555 1_555
N47_2 C143_2 1_555 1_555
N48_2 C142_2 1_555 1_555
H85_2 C127_2 1_555 1_555
C128_2 C127_2 1_555 1_555
H86_2 C128_2 1_555 1_555
C129_2 C128_2 1_555 1_555
C130_2 C129_2 1_555 1_555
H87_2 C130_2 1_555 1_555
C132_2 N44_2 1_555 1_555
H89_2 C132_2 1_555 1_555
C133_2 C132_2 1_555 1_555
H90_2 C133_2 1_555 1_555
C134_2 C133_2 1_555 1_555
C135_2 C134_2 1_555 1_555
H91_2 C135_2 1_555 1_555
C136_2 N44_2 1_555 1_555
H92_2 C136_2 1_555 1_555
C137_2 H93_2 1_555 1_555
C138_2 C137_2 1_555 1_555
H94_2 C138_2 1_555 1_555
C139_2 C138_2 1_555 1_555
C140_2 C139_2 1_555 1_555
H95_2 C140_2 1_555 1_555
C141_2 N53 1_555 1_555
H96_2 C141_2 1_555 1_555
C142_2 C129_2 1_555 1_555
C143_2 N46_2 1_555 1_555
C144_2 N47_2 1_555 1_555
N48_2 C144_2 1_555 1_555
C134_2 C143_2 1_555 1_555
C135_2 C136_2 1_555 1_555
C139_2 C144_2 1_555 1_555
C140_2 C141_2 1_555 1_555
Zn8_2 Cl15_2 1_555 1_555
Cl16_2 Zn8_2 1_555 1_555
N39_2 Zn8_2 1_555 1_555
H83_2 C122_2 1_555 1_555
C123_2 N39_2 1_555 1_555
H84_2 C123_2 1_555 1_555
N43_2 Zn8_2 1_555 1_555
C131_2 N43_2 1_555 1_555
H88_2 C131_2 1_555 1_555
C122_2 C123_2 1_555 1_555

#END
