
###############################################################################
#
# This file contains modified crystal structure data generated from the
# MOF subset of the Cambridge Structural Database (CSD) v543 
# hosted by the Cambridge Crystallographic Data Centre (CCDC).
#
# This work is licensed under the Creative Commons
# Attribution-NonCommercial-ShareAlike 4.0 International License.
# To view a copy of this license, visit
# http://creativecommons.org/licenses/by-nc-sa/4.0/
# or send a letter to
# Creative Commons, PO Box 1866, Mountain View, CA 94042, USA.
#
# CIF created using the CSD Python API on 29 September 2022
# The structure has been converted into the P1 space group
# The structure has a 3D framework
# The original CSD entry YOKZEG is in the orthorhombic crystal system
# The framework has been calculated to contain at least 10.0% void space
# The void calculation uses a probe of radius 1.32A, grid spacing 0.4
# The framework is charged, counterions have been retained in the structure
#
###############################################################################

data_YOKZEG
_chemical_formula_moiety         '(C456 H248 N76 O66 Zn18 4-)n'
_symmetry_cell_setting           triclinic
_symmetry_space_group_name_H-M   'P 1'
_symmetry_Int_Tables_number      1
_space_group_name_Hall           'P 1'
loop_
_symmetry_equiv_pos_site_id
_symmetry_equiv_pos_as_xyz
1 x,y,z
_cell_length_a                   30.7575(11)
_cell_length_b                   10.7569(4)
_cell_length_c                   42.5942(12)
_cell_angle_alpha                90
_cell_angle_beta                 90
_cell_angle_gamma                90
_cell_volume                     14092.5
loop_
_atom_site_label
_atom_site_type_symbol
_atom_site_fract_x
_atom_site_fract_y
_atom_site_fract_z
Zn11 Zn -0.000000 0.750000 0.86266(2)
C50 C 0.00933(16) 0.0368(5) 0.32268(11)
H27 H 0.035619 0.023222 0.333880
Zn7 Zn -0.000000 0.250000 0.36266(2)
Zn2 Zn 0.46056(2) 0.13424(6) 0.27166(2)
O1 O 0.500000 0.250000 0.250000
O2 O 0.41838(14) 0.2269(4) 0.29557(10)
N2 N 0.50046(13) 0.0260(4) 0.29578(9)
O3 O 0.44565(14) 0.3044(5) 0.61883(9)
N3 N 0.56287(13) 0.0141(4) 0.26190(10)
O4 O 0.39659(19) 0.0511(5) 0.31394(14)
C4 C 0.3957(2) 0.1622(7) 0.31389(13)
C7 C 0.3692(2) 0.2364(8) 0.33710(16)
C8 C 0.4057(3) 0.4132(12) 0.58292(18)
C9 C 0.4448(3) 0.3855(11) 0.60037(16)
C10 C 0.3594(3) 0.3576(9) 0.33277(14)
H5 H 0.371110 0.399885 0.315132
O5 O 0.4783(4) 0.4517(12) 0.59674(18)
C11 C 0.3692(3) 0.3595(12) 0.58857(17)
H6 H 0.367697 0.297166 0.604324
C12 C 0.3159(4) 0.3692(15) 0.37747(15)
C13 C 0.3495(3) 0.1706(12) 0.3615(2)
H7 H 0.354426 0.084204 0.364396
C14 C 0.3334(3) 0.4202(10) 0.35274(17)
H8 H 0.327534 0.505372 0.348608
C15 C 0.4053(4) 0.5029(14) 0.5599(2)
H9 H 0.430822 0.549816 0.555717
C16 C 0.3219(3) 0.2387(13) 0.38174(19)
H10 H 0.307200 0.197178 0.398322
C17 C 0.250000 0.500000 0.3815(2)
H11 H 0.250000 0.499999 0.359205
C18 C 0.28536(8) 0.44699(13) 0.39766(15)
C19 C 0.3313(3) 0.3914(14) 0.57186(19)
H12 H 0.304736 0.364031 0.580868
C20 C 0.32056(11) 0.3942(2) 0.44723(10)
H13 H 0.344309 0.358610 0.436167
C21 C 0.28599(12) 0.44604(19) 0.43078(8)
C22 C 0.25030(9) 0.49956(14) 0.44696(11)
C23 C 0.25028(11) 0.49959(17) 0.47960(11)
C24 C 0.28561(15) 0.4466(2) 0.49605(8)
C25 C 0.32037(12) 0.3945(3) 0.47986(10)
H14 H 0.343995 0.359092 0.491104
C26 C 0.3666(4) 0.5257(17) 0.5424(2)
H15 H 0.365686 0.590218 0.527226
C27 C 0.3281(3) 0.4474(17) 0.54829(18)
C28 C 0.28519(18) 0.4473(3) 0.52915(16)
C29 C 0.250000 0.500000 0.5452(2)
H16 H 0.249998 0.500000 0.567469
O6 O 0.08162(14) 0.7731(4) 0.29557(10)
O7 O 0.05435(14) 0.6956(5) 0.61883(9)
O8 O 0.10341(19) 0.9489(5) 0.31394(14)
C30 C 0.1043(2) 0.8378(7) 0.31389(13)
C31 C 0.1308(2) 0.7636(8) 0.33710(16)
C32 C 0.0943(3) 0.5868(12) 0.58292(18)
C33 C 0.0552(3) 0.6145(11) 0.60037(16)
C34 C 0.1406(3) 0.6424(9) 0.33277(14)
H17 H 0.128890 0.600115 0.315132
O9 O 0.0217(4) 0.5483(12) 0.59674(18)
C35 C 0.1308(3) 0.6405(12) 0.58857(17)
H18 H 0.132303 0.702834 0.604324
C36 C 0.1841(4) 0.6308(15) 0.37747(15)
C37 C 0.1505(3) 0.8294(12) 0.3615(2)
H19 H 0.145574 0.915796 0.364396
C38 C 0.1666(3) 0.5798(10) 0.35274(17)
H20 H 0.172466 0.494628 0.348608
C39 C 0.0947(4) 0.4971(14) 0.5599(2)
H21 H 0.069178 0.450184 0.555717
C40 C 0.1781(3) 0.7613(13) 0.38174(19)
H22 H 0.192800 0.802822 0.398322
C41 C 0.21464(8) 0.55301(13) 0.39766(15)
C42 C 0.1687(3) 0.6086(14) 0.57186(19)
H23 H 0.195264 0.635969 0.580868
C43 C 0.17944(11) 0.6058(2) 0.44723(10)
H24 H 0.155691 0.641390 0.436167
C44 C 0.21401(12) 0.55396(19) 0.43078(8)
C45 C 0.21439(15) 0.5534(2) 0.49605(8)
C46 C 0.17963(12) 0.6055(3) 0.47986(10)
H25 H 0.156005 0.640908 0.491104
C47 C 0.1334(4) 0.4743(17) 0.5424(2)
H26 H 0.134314 0.409782 0.527226
C48 C 0.1719(3) 0.5526(17) 0.54829(18)
C49 C 0.21481(18) 0.5527(3) 0.52915(16)
Zn3 Zn 0.03944(2) 0.86576(6) 0.27166(2)
Zn5 Zn 0.53944(2) 0.13424(6) 0.22834(2)
O10 O 0.58162(14) 0.2269(4) 0.20443(10)
N12 N 0.49954(13) 0.0260(4) 0.20422(9)
N13 N 0.43713(13) 0.0141(4) 0.23810(10)
O12 O 0.60341(19) 0.0511(5) 0.18606(14)
C58 C 0.6043(2) 0.1622(7) 0.18611(13)
C61 C 0.6308(2) 0.2364(8) 0.16290(16)
C64 C 0.6406(3) 0.3576(9) 0.16723(14)
H35 H 0.628890 0.399885 0.184868
C66 C 0.6841(4) 0.3692(15) 0.12253(15)
C67 C 0.6505(3) 0.1706(12) 0.1385(2)
H37 H 0.645574 0.084204 0.135604
C68 C 0.6666(3) 0.4202(10) 0.14726(17)
H38 H 0.672466 0.505372 0.151392
C70 C 0.6781(3) 0.2387(13) 0.11826(19)
H40 H 0.692800 0.197178 0.101678
C71 C 0.750000 0.500000 0.1185(2)
H41 H 0.750000 0.499999 0.140795
C72 C 0.71464(8) 0.44699(13) 0.10234(15)
C74 C 0.67944(11) 0.3942(2) 0.05277(10)
H43 H 0.655691 0.358610 0.063833
C75 C 0.71401(12) 0.44604(19) 0.06922(8)
C76 C 0.74970(9) 0.49956(14) 0.05304(11)
C77 C 0.74972(11) 0.49959(17) 0.02040(11)
C78 C 0.71439(15) 0.4466(2) 0.00395(8)
C79 C 0.67963(12) 0.3945(3) 0.02014(10)
H44 H 0.656005 0.359092 0.008896
O14 O 0.91838(14) 0.7731(4) 0.20443(10)
O16 O 0.89659(19) 0.9489(5) 0.18606(14)
C84 C 0.8957(2) 0.8378(7) 0.18611(13)
C85 C 0.8692(2) 0.7636(8) 0.16290(16)
C88 C 0.8594(3) 0.6424(9) 0.16723(14)
H47 H 0.871110 0.600115 0.184868
C90 C 0.8159(4) 0.6308(15) 0.12253(15)
C91 C 0.8495(3) 0.8294(12) 0.1385(2)
H49 H 0.854426 0.915796 0.135604
C92 C 0.8334(3) 0.5798(10) 0.14726(17)
H50 H 0.827534 0.494628 0.151392
C94 C 0.8219(3) 0.7613(13) 0.11826(19)
H52 H 0.807200 0.802822 0.101678
C95 C 0.78536(8) 0.55301(13) 0.10234(15)
C97 C 0.82056(11) 0.6058(2) 0.05277(10)
H54 H 0.844309 0.641390 0.063833
C98 C 0.78599(12) 0.55396(19) 0.06922(8)
C99 C 0.78561(15) 0.5534(2) 0.00395(8)
C100 C 0.82037(12) 0.6055(3) 0.02014(10)
H55 H 0.843995 0.640908 0.008896
Zn8 Zn 0.500000 0.250000 0.63734(2)
Zn9 Zn 0.000000 0.750000 0.63734(2)
Zn13 Zn 0.96056(2) 0.86576(6) 0.22834(2)
Zn14 Zn 0.53944(2) 0.36576(6) 0.27166(2)
Zn16 Zn 0.46056(2) 0.36576(6) 0.22834(2)
O19 O -0.000000 0.750000 0.250000
N22 N 0.06287(13) 0.9859(4) 0.23810(10)
O11 O 0.55435(14) 0.3044(5) 0.88117(9)
C62 C 0.5943(3) 0.4132(12) 0.91708(18)
C63 C 0.5552(3) 0.3855(11) 0.89963(16)
O13 O 0.5217(4) 0.4517(12) 0.90326(18)
C65 C 0.6308(3) 0.3595(12) 0.91143(17)
H36 H 0.632303 0.297166 0.895676
C69 C 0.5947(4) 0.5029(14) 0.9401(2)
H39 H 0.569178 0.549816 0.944283
C73 C 0.6687(3) 0.3914(14) 0.92814(19)
H42 H 0.695264 0.364031 0.919132
C80 C 0.6334(4) 0.5257(17) 0.9576(2)
H45 H 0.634314 0.590218 0.972774
C81 C 0.6719(3) 0.4474(17) 0.95171(18)
C82 C 0.71481(18) 0.4473(3) 0.97085(16)
C83 C 0.750000 0.500000 0.9548(2)
H46 H 0.750002 0.500000 0.932531
O15 O 0.94565(14) 0.6956(5) 0.88117(9)
C86 C 0.9057(3) 0.5868(12) 0.91708(18)
C87 C 0.9448(3) 0.6145(11) 0.89963(16)
O17 O 0.9783(4) 0.5483(12) 0.90326(18)
C89 C 0.8692(3) 0.6405(12) 0.91143(17)
H48 H 0.867697 0.702834 0.895676
C93 C 0.9053(4) 0.4971(14) 0.9401(2)
H51 H 0.930822 0.450184 0.944283
C96 C 0.8313(3) 0.6086(14) 0.92814(19)
H53 H 0.804736 0.635969 0.919132
C101 C 0.8666(4) 0.4743(17) 0.9576(2)
H56 H 0.865686 0.409782 0.972774
C102 C 0.8281(3) 0.5526(17) 0.95171(18)
C103 C 0.78519(18) 0.5527(3) 0.97085(16)
Zn10 Zn 0.500000 0.250000 0.86266(2)
Zn11_2 Zn 1.000000 0.750000 0.86266(2)
Zn1 Zn 0.500000 0.750000 0.36266(2)
N1 N 0.52011(14) 0.8823(3) 0.33211(8)
N4 N 0.61544(19) 0.8671(6) 0.27919(15)
C1 C 0.49067(16) 0.9632(5) 0.32268(11)
H1 H 0.464381 0.976778 0.333880
C2 C 0.53926(14) 0.9824(4) 0.28766(11)
C3 C 0.55218(16) 0.8938(5) 0.30959(11)
N5 N 0.6078(2) 0.7508(5) 0.32598(13)
H2 H 0.586903 0.719417 0.336943
H3 H 0.620223 0.692327 0.315422
C5 C 0.5919(2) 0.8360(6) 0.30550(15)
C6 C 0.6001(2) 0.9470(7) 0.25995(15)
H4 H 0.617219 0.961468 0.241734
Zn4 Zn 0.500000 0.750000 0.13734(2)
N11 N 0.47989(14) 0.8823(3) 0.16789(8)
N14 N 0.38456(19) 0.8671(6) 0.22081(15)
C55 C 0.50933(16) 0.9632(5) 0.17732(11)
H31 H 0.535619 0.976778 0.166120
C56 C 0.46074(14) 0.9824(4) 0.21234(11)
C57 C 0.44782(16) 0.8938(5) 0.19041(11)
N15 N 0.3922(2) 0.7508(5) 0.17402(13)
H32 H 0.413097 0.719417 0.163057
H33 H 0.379777 0.692327 0.184578
C59 C 0.4081(2) 0.8360(6) 0.19450(15)
C60 C 0.3999(2) 0.9470(7) 0.24005(15)
H34 H 0.382781 0.961468 0.258266
N16 N 0.47989(14) 0.6177(3) 0.33211(8)
N17 N 0.49954(13) 0.4740(4) 0.29578(9)
N18 N 0.43713(13) 0.4859(4) 0.26190(10)
N19 N 0.38456(19) 0.6329(6) 0.27919(15)
C104 C 0.50933(16) 0.5368(5) 0.32268(11)
H57 H 0.535619 0.523222 0.333880
C105 C 0.46074(14) 0.5176(4) 0.28766(11)
C106 C 0.44782(16) 0.6062(5) 0.30959(11)
N20 N 0.3922(2) 0.7492(5) 0.32598(13)
H58 H 0.413097 0.780583 0.336943
H59 H 0.379777 0.807673 0.315422
C107 C 0.4081(2) 0.6640(6) 0.30550(15)
C108 C 0.3999(2) 0.5530(7) 0.25995(15)
H60 H 0.382781 0.538532 0.241734
O20 O 0.58162(14) 0.2731(4) 0.29557(10)
N21 N 0.52011(14) 0.6177(3) 0.16789(8)
O21 O 0.55435(14) 0.6956(5) 0.38117(9)
O22 O 0.44565(14) 0.6956(5) 0.11883(9)
O23 O 0.44565(14) 0.8044(5) 0.38117(9)
O24 O 0.55435(14) 0.8044(5) 0.11883(9)
N23 N 0.56287(13) 0.4859(4) 0.23810(10)
N6 N 0.97989(14) 0.1177(3) 0.33211(8)
N9 N 0.88456(19) 0.1329(6) 0.27919(15)
C51 C 0.96074(14) 0.0176(4) 0.28766(11)
C52 C 0.94782(16) 0.1062(5) 0.30959(11)
N10 N 0.8922(2) 0.2492(5) 0.32598(13)
H28 H 0.913097 0.280583 0.336943
H29 H 0.879777 0.307673 0.315422
C53 C 0.9081(2) 0.1640(6) 0.30550(15)
C54 C 0.8999(2) 0.0530(7) 0.25995(15)
H30 H 0.882781 0.038532 0.241734
Zn7_2 Zn 1.000000 0.250000 0.36266(2)
N7 N 0.99954(13) 0.9740(4) 0.29578(9)
N8 N 0.93713(13) 0.9859(4) 0.26190(10)
Zn9_2 Zn 1.000000 0.750000 0.63734(2)
O19_2 O 1.000000 0.750000 0.250000
Zn4_2 Zn 0.000000 0.250000 0.13734(2)
N11_2 N 0.02011(14) 0.1177(3) 0.16789(8)
N14_2 N 0.11544(19) 0.1329(6) 0.22081(15)
C56_2 C 0.03926(14) 0.0176(4) 0.21234(11)
C57_2 C 0.05218(16) 0.1062(5) 0.19041(11)
N15_2 N 0.1078(2) 0.2492(5) 0.17402(13)
H32_2 H 0.086903 0.280583 0.163057
H33_2 H 0.120223 0.307673 0.184578
C59_2 C 0.0919(2) 0.1640(6) 0.19450(15)
C60_2 C 0.1001(2) 0.0530(7) 0.24005(15)
H34_2 H 0.117219 0.038532 0.258266
N16_2 N 0.02011(14) 0.3823(3) 0.33211(8)
N17_2 N 0.00046(13) 0.5260(4) 0.29578(9)
N18_2 N 0.06287(13) 0.5141(4) 0.26190(10)
N19_2 N 0.11544(19) 0.3671(6) 0.27919(15)
C105_2 C 0.03926(14) 0.4824(4) 0.28766(11)
C106_2 C 0.05218(16) 0.3938(5) 0.30959(11)
N20_2 N 0.1078(2) 0.2508(5) 0.32598(13)
H58_2 H 0.086903 0.219417 0.336943
H59_2 H 0.120223 0.192327 0.315422
C107_2 C 0.0919(2) 0.3360(6) 0.30550(15)
C108_2 C 0.1001(2) 0.4470(7) 0.25995(15)
H60_2 H 0.117219 0.461468 0.241734
Zn15 Zn 0.03944(2) 0.63424(6) 0.22834(2)
O22_2 O 0.05435(14) 0.3044(5) 0.11883(9)
O23_2 O 0.05435(14) 0.1956(5) 0.38117(9)
C22_2 C 0.24970(9) 0.50044(14) 0.44696(11)
C23_2 C 0.24972(11) 0.50041(17) 0.47960(11)
N12_2 N 0.00046(13) 0.9740(4) 0.20422(9)
Zn4_3 Zn 1.000000 0.250000 0.13734(2)
C55_2 C 0.99067(16) 0.0368(5) 0.17732(11)
H31_2 H 0.964381 0.023222 0.166120
Zn6 Zn 0.96056(2) 0.63424(6) 0.27166(2)
C104_2 C 0.99067(16) 0.4632(5) 0.32268(11)
H57_2 H 0.964381 0.476778 0.333880
O20_2 O 0.91838(14) 0.7269(4) 0.29557(10)
N21_2 N 0.97989(14) 0.3823(3) 0.16789(8)
O21_2 O 0.94565(14) 0.3044(5) 0.38117(9)
O24_2 O 0.94565(14) 0.1956(5) 0.11883(9)
N23_2 N 0.93713(13) 0.5141(4) 0.23810(10)
C76_2 C 0.75030(9) 0.50044(14) 0.05304(11)
C77_2 C 0.75028(11) 0.50041(17) 0.02040(11)
N17_3 N 0.50046(13) 0.4740(4) 0.20422(9)
N19_3 N 0.61544(19) 0.6329(6) 0.22081(15)
C104_3 C 0.49067(16) 0.5368(5) 0.17732(11)
H57_3 H 0.464381 0.523222 0.166120
C105_3 C 0.53926(14) 0.5176(4) 0.21234(11)
C106_3 C 0.55218(16) 0.6062(5) 0.19041(11)
N20_3 N 0.6078(2) 0.7492(5) 0.17402(13)
H58_3 H 0.586903 0.780583 0.163057
H59_3 H 0.620223 0.807673 0.184578
C107_3 C 0.5919(2) 0.6640(6) 0.19450(15)
C108_3 C 0.6001(2) 0.5530(7) 0.24005(15)
H60_3 H 0.617219 0.538532 0.258266
O20_3 O 0.41838(14) 0.2731(4) 0.20443(10)
C104_4 C 0.00933(16) 0.4632(5) 0.17732(11)
H57_4 H 0.035619 0.476778 0.166120
O20_4 O 0.08162(14) 0.7269(4) 0.20443(10)
N17_4 N 0.99954(13) 0.5260(4) 0.20422(9)
N19_4 N 0.88456(19) 0.3671(6) 0.22081(15)
C105_4 C 0.96074(14) 0.4824(4) 0.21234(11)
C106_4 C 0.94782(16) 0.3938(5) 0.19041(11)
N20_4 N 0.8922(2) 0.2508(5) 0.17402(13)
H58_4 H 0.913097 0.219417 0.163057
H59_4 H 0.879777 0.192327 0.184578
C107_4 C 0.9081(2) 0.3360(6) 0.19450(15)
C108_4 C 0.8999(2) 0.4470(7) 0.24005(15)
H60_4 H 0.882781 0.461468 0.258266
H38_2 H 0.172466 0.005372 0.151392
C71_2 C 0.250000 -0.000000 0.1185(2)
H41_2 H 0.250000 -0.000001 0.140795
O16_2 O 0.39659(19) 0.4489(5) 0.18606(14)
C84_2 C 0.3957(2) 0.3378(7) 0.18611(13)
C85_2 C 0.3692(2) 0.2636(8) 0.16290(16)
C88_2 C 0.3594(3) 0.1424(9) 0.16723(14)
H47_2 H 0.371110 0.100115 0.184868
C90_2 C 0.3159(4) 0.1308(15) 0.12253(15)
C91_2 C 0.3495(3) 0.3294(12) 0.1385(2)
H49_2 H 0.354426 0.415796 0.135604
C92_2 C 0.3334(3) 0.0798(10) 0.14726(17)
C94_2 C 0.3219(3) 0.2613(13) 0.11826(19)
H52_2 H 0.307200 0.302822 0.101678
C95_2 C 0.28536(8) 0.05301(13) 0.10234(15)
C97_2 C 0.32056(11) 0.1058(2) 0.05277(10)
H54_2 H 0.344309 0.141390 0.063833
C98_2 C 0.28599(12) 0.05396(19) 0.06922(8)
C99_2 C 0.28561(15) 0.0534(2) 0.00395(8)
C100_2 C 0.32037(12) 0.1055(3) 0.02014(10)
H55_2 H 0.343995 0.140908 0.008896
C69_2 C 0.0947(4) 0.0029(14) 0.9401(2)
H39_2 H 0.069178 0.049816 0.944283
C80_2 C 0.1334(4) 0.0257(17) 0.9576(2)
H45_2 H 0.134314 0.090218 0.972774
C83_2 C 0.250000 0.000000 0.9548(2)
H46_2 H 0.250002 0.000000 0.932531
O15_2 O 0.44565(14) 0.1956(5) 0.88117(9)
C86_2 C 0.4057(3) 0.0868(12) 0.91708(18)
C87_2 C 0.4448(3) 0.1145(11) 0.89963(16)
O17_2 O 0.4783(4) 0.0483(12) 0.90326(18)
C89_2 C 0.3692(3) 0.1405(12) 0.91143(17)
H48_2 H 0.367697 0.202834 0.895676
C96_2 C 0.3313(3) 0.1086(14) 0.92814(19)
H53_2 H 0.304736 0.135969 0.919132
C102_2 C 0.3281(3) 0.0526(17) 0.95171(18)
C103_2 C 0.28519(18) 0.0527(3) 0.97085(16)
O12_2 O 0.10341(19) 0.5511(5) 0.18606(14)
C58_2 C 0.1043(2) 0.6622(7) 0.18611(13)
C61_2 C 0.1308(2) 0.7364(8) 0.16290(16)
C64_2 C 0.1406(3) 0.8576(9) 0.16723(14)
H35_2 H 0.128890 0.899885 0.184868
C66_2 C 0.1841(4) 0.8692(15) 0.12253(15)
C67_2 C 0.1505(3) 0.6706(12) 0.1385(2)
H37_2 H 0.145574 0.584204 0.135604
C68_2 C 0.1666(3) 0.9202(10) 0.14726(17)
C70_2 C 0.1781(3) 0.7387(13) 0.11826(19)
H40_2 H 0.192800 0.697178 0.101678
C71_3 C 0.250000 1.000000 0.1185(2)
H41_3 H 0.250000 0.999999 0.140795
C72_2 C 0.21464(8) 0.94699(13) 0.10234(15)
C74_2 C 0.17944(11) 0.8942(2) 0.05277(10)
H43_2 H 0.155691 0.858610 0.063833
C75_2 C 0.21401(12) 0.94604(19) 0.06922(8)
C76_3 C 0.24970(9) 0.99956(14) 0.05304(11)
C77_3 C 0.24972(11) 0.99959(17) 0.02040(11)
C78_2 C 0.21439(15) 0.9466(2) 0.00395(8)
C79_2 C 0.17963(12) 0.8945(3) 0.02014(10)
H44_2 H 0.156005 0.859092 0.008896
H50_2 H 0.327534 0.994628 0.151392
O11_2 O 0.05435(14) 0.8044(5) 0.88117(9)
C62_2 C 0.0943(3) 0.9132(12) 0.91708(18)
C63_2 C 0.0552(3) 0.8855(11) 0.89963(16)
O13_2 O 0.0217(4) 0.9517(12) 0.90326(18)
C65_2 C 0.1308(3) 0.8595(12) 0.91143(17)
H36_2 H 0.132303 0.797166 0.895676
C73_2 C 0.1687(3) 0.8914(14) 0.92814(19)
H42_2 H 0.195264 0.864031 0.919132
C81_2 C 0.1719(3) 0.9474(17) 0.95171(18)
C82_2 C 0.21481(18) 0.9473(3) 0.97085(16)
C83_3 C 0.250000 1.000000 0.9548(2)
H46_3 H 0.250002 1.000000 0.932531
C93_2 C 0.4053(4) 0.9971(14) 0.9401(2)
H51_2 H 0.430822 0.950184 0.944283
C101_2 C 0.3666(4) 0.9743(17) 0.9576(2)
H56_2 H 0.365686 0.909782 0.972774
H8_2 H 0.827534 0.005372 0.348608
C15_2 C 0.9053(4) 0.0029(14) 0.5599(2)
H9_2 H 0.930822 0.049816 0.555717
C17_2 C 0.750000 -0.000000 0.3815(2)
H11_2 H 0.750000 -0.000001 0.359205
C26_2 C 0.8666(4) 0.0257(17) 0.5424(2)
H15_2 H 0.865686 0.090218 0.527226
C29_2 C 0.750000 0.000000 0.5452(2)
H16_2 H 0.749998 -0.000000 0.567469
O7_2 O 0.55435(14) 0.1956(5) 0.61883(9)
O8_2 O 0.60341(19) 0.4489(5) 0.31394(14)
C30_2 C 0.6043(2) 0.3378(7) 0.31389(13)
C31_2 C 0.6308(2) 0.2636(8) 0.33710(16)
C32_2 C 0.5943(3) 0.0868(12) 0.58292(18)
C33_2 C 0.5552(3) 0.1145(11) 0.60037(16)
C34_2 C 0.6406(3) 0.1424(9) 0.33277(14)
H17_2 H 0.628890 0.100115 0.315132
O9_2 O 0.5217(4) 0.0483(12) 0.59674(18)
C35_2 C 0.6308(3) 0.1405(12) 0.58857(17)
H18_2 H 0.632303 0.202834 0.604324
C36_2 C 0.6841(4) 0.1308(15) 0.37747(15)
C37_2 C 0.6505(3) 0.3294(12) 0.3615(2)
H19_2 H 0.645574 0.415796 0.364396
C38_2 C 0.6666(3) 0.0798(10) 0.35274(17)
C40_2 C 0.6781(3) 0.2613(13) 0.38174(19)
H22_2 H 0.692800 0.302822 0.398322
C41_2 C 0.71464(8) 0.05301(13) 0.39766(15)
C42_2 C 0.6687(3) 0.1086(14) 0.57186(19)
H23_2 H 0.695264 0.135969 0.580868
C43_2 C 0.67944(11) 0.1058(2) 0.44723(10)
H24_2 H 0.655691 0.141390 0.436167
C44_2 C 0.71401(12) 0.05396(19) 0.43078(8)
C45_2 C 0.71439(15) 0.0534(2) 0.49605(8)
C46_2 C 0.67963(12) 0.1055(3) 0.47986(10)
H25_2 H 0.656005 0.140908 0.491104
C48_2 C 0.6719(3) 0.0526(17) 0.54829(18)
C49_2 C 0.71481(18) 0.0527(3) 0.52915(16)
O3_2 O 0.94565(14) 0.8044(5) 0.61883(9)
O4_2 O 0.89659(19) 0.5511(5) 0.31394(14)
C4_2 C 0.8957(2) 0.6622(7) 0.31389(13)
C7_2 C 0.8692(2) 0.7364(8) 0.33710(16)
C8_2 C 0.9057(3) 0.9132(12) 0.58292(18)
C9_2 C 0.9448(3) 0.8855(11) 0.60037(16)
C10_2 C 0.8594(3) 0.8576(9) 0.33277(14)
H5_2 H 0.871110 0.899885 0.315132
O5_2 O 0.9783(4) 0.9517(12) 0.59674(18)
C11_2 C 0.8692(3) 0.8595(12) 0.58857(17)
H6_2 H 0.867697 0.797166 0.604324
C12_2 C 0.8159(4) 0.8692(15) 0.37747(15)
C13_2 C 0.8495(3) 0.6706(12) 0.3615(2)
H7_2 H 0.854426 0.584204 0.364396
C14_2 C 0.8334(3) 0.9202(10) 0.35274(17)
C16_2 C 0.8219(3) 0.7387(13) 0.38174(19)
H10_2 H 0.807200 0.697178 0.398322
C17_3 C 0.750000 1.000000 0.3815(2)
H11_3 H 0.750000 0.999999 0.359205
C18_2 C 0.78536(8) 0.94699(13) 0.39766(15)
C19_2 C 0.8313(3) 0.8914(14) 0.57186(19)
H12_2 H 0.804736 0.864031 0.580868
C20_2 C 0.82056(11) 0.8942(2) 0.44723(10)
H13_2 H 0.844309 0.858610 0.436167
C21_2 C 0.78599(12) 0.94604(19) 0.43078(8)
C22_3 C 0.75030(9) 0.99956(14) 0.44696(11)
C23_3 C 0.75028(11) 0.99959(17) 0.47960(11)
C24_2 C 0.78561(15) 0.9466(2) 0.49605(8)
C25_2 C 0.82037(12) 0.8945(3) 0.47986(10)
H14_2 H 0.843995 0.859092 0.491104
C27_2 C 0.8281(3) 0.9474(17) 0.54829(18)
C28_2 C 0.78519(18) 0.9473(3) 0.52915(16)
C29_3 C 0.750000 1.000000 0.5452(2)
H16_3 H 0.749998 1.000000 0.567469
H20_2 H 0.672466 0.994628 0.348608
C39_2 C 0.5947(4) 0.9971(14) 0.5599(2)
H21_2 H 0.569178 0.950184 0.555717
C47_2 C 0.6334(4) 0.9743(17) 0.5424(2)
H26_2 H 0.634314 0.909782 0.527226
C22_4 C 0.74970(9) 0.00044(14) 0.44696(11)
C23_4 C 0.74972(11) 0.00041(17) 0.47960(11)
C76_4 C 0.25030(9) 0.00044(14) 0.05304(11)
C77_4 C 0.25028(11) 0.00041(17) 0.02040(11)
N7_2 N 0.00046(13) 0.0260(4) 0.70422(9)
N8_2 N 0.06287(13) 0.0141(4) 0.73810(10)
Zn12 Zn 0.03944(2) 0.13424(6) 0.77166(2)
O19_3 O 0.000000 0.250000 0.750000
N6_2 N 0.02011(14) 0.8823(3) 0.66789(8)
N9_2 N 0.11544(19) 0.8671(6) 0.72081(15)
C51_2 C 0.03926(14) 0.9824(4) 0.71234(11)
C52_2 C 0.05218(16) 0.8938(5) 0.69041(11)
N10_2 N 0.1078(2) 0.7508(5) 0.67402(13)
H28_2 H 0.086903 0.719417 0.663057
H29_2 H 0.120223 0.692327 0.684578
C53_2 C 0.0919(2) 0.8360(6) 0.69450(15)
C54_2 C 0.1001(2) 0.9470(7) 0.74005(15)
H30_2 H 0.117219 0.961468 0.758266
N1_2 N 0.47989(14) 0.1177(3) 0.66789(8)
N4_2 N 0.38456(19) 0.1329(6) 0.72081(15)
C1_2 C 0.50933(16) 0.0368(5) 0.67732(11)
H1_2 H 0.535619 0.023222 0.666120
C2_2 C 0.46074(14) 0.0176(4) 0.71234(11)
C3_2 C 0.44782(16) 0.1062(5) 0.69041(11)
N5_2 N 0.3922(2) 0.2492(5) 0.67402(13)
H2_2 H 0.413097 0.280583 0.663057
H3_2 H 0.379777 0.307673 0.684578
C5_2 C 0.4081(2) 0.1640(6) 0.69450(15)
C6_2 C 0.3999(2) 0.0530(7) 0.74005(15)
H4_2 H 0.382781 0.038532 0.758266
N11_3 N 0.52011(14) 0.1177(3) 0.83211(8)
N14_3 N 0.61544(19) 0.1329(6) 0.77919(15)
C55_3 C 0.49067(16) 0.0368(5) 0.82268(11)
H31_3 H 0.464381 0.023222 0.833880
C56_3 C 0.53926(14) 0.0176(4) 0.78766(11)
C57_3 C 0.55218(16) 0.1062(5) 0.80959(11)
N15_3 N 0.6078(2) 0.2492(5) 0.82598(13)
H32_3 H 0.586903 0.280583 0.836943
H33_3 H 0.620223 0.307673 0.815422
C59_3 C 0.5919(2) 0.1640(6) 0.80550(15)
C60_3 C 0.6001(2) 0.0530(7) 0.75995(15)
H34_3 H 0.617219 0.038532 0.741734
Zn6_2 Zn 0.46056(2) 0.63424(6) 0.72834(2)
N16_3 N 0.52011(14) 0.3823(3) 0.66789(8)
N17_5 N 0.50046(13) 0.5260(4) 0.70422(9)
N18_3 N 0.56287(13) 0.5141(4) 0.73810(10)
N19_5 N 0.61544(19) 0.3671(6) 0.72081(15)
C104_5 C 0.49067(16) 0.4632(5) 0.67732(11)
H57_5 H 0.464381 0.476778 0.666120
C105_5 C 0.53926(14) 0.4824(4) 0.71234(11)
C106_5 C 0.55218(16) 0.3938(5) 0.69041(11)
N20_5 N 0.6078(2) 0.2508(5) 0.67402(13)
H58_5 H 0.586903 0.219417 0.663057
H59_5 H 0.620223 0.192327 0.684578
C107_5 C 0.5919(2) 0.3360(6) 0.69450(15)
C108_5 C 0.6001(2) 0.4470(7) 0.74005(15)
H60_5 H 0.617219 0.461468 0.758266
Zn15_2 Zn 0.53944(2) 0.63424(6) 0.77166(2)
O18 O 0.500000 0.750000 0.750000
O20_5 O 0.41838(14) 0.7269(4) 0.70443(10)
N21_3 N 0.47989(14) 0.3823(3) 0.83211(8)
N23_3 N 0.43713(13) 0.5141(4) 0.76190(10)
C62_3 C 0.4057(3) 0.5868(12) 0.08292(18)
C63_3 C 0.4448(3) 0.6145(11) 0.10037(16)
O13_3 O 0.4783(4) 0.5483(12) 0.09674(18)
C65_3 C 0.3692(3) 0.6405(12) 0.08857(17)
H36_3 H 0.367697 0.702834 0.104324
C69_3 C 0.4053(4) 0.4971(14) 0.0599(2)
H39_3 H 0.430822 0.450184 0.055717
C73_3 C 0.3313(3) 0.6086(14) 0.07186(19)
H42_3 H 0.304736 0.635969 0.080868
C80_3 C 0.3666(4) 0.4743(17) 0.0424(2)
H45_3 H 0.365686 0.409782 0.027226
C81_3 C 0.3281(3) 0.5526(17) 0.04829(18)
C82_3 C 0.28519(18) 0.5527(3) 0.02915(16)
C83_4 C 0.250000 0.500000 0.0452(2)
H46_4 H 0.249998 0.500000 0.067469
C86_3 C 0.0943(3) 0.4132(12) 0.08292(18)
C87_3 C 0.0552(3) 0.3855(11) 0.10037(16)
O17_3 O 0.0217(4) 0.4517(12) 0.09674(18)
C89_3 C 0.1308(3) 0.3595(12) 0.08857(17)
H48_3 H 0.132303 0.297166 0.104324
C93_3 C 0.0947(4) 0.5029(14) 0.0599(2)
H51_3 H 0.069178 0.549816 0.055717
C96_3 C 0.1687(3) 0.3914(14) 0.07186(19)
H53_3 H 0.195264 0.364031 0.080868
C101_3 C 0.1334(4) 0.5257(17) 0.0424(2)
H56_3 H 0.134314 0.590218 0.027226
C102_3 C 0.1719(3) 0.4474(17) 0.04829(18)
C103_3 C 0.21481(18) 0.4473(3) 0.02915(16)
Zn2_2 Zn 0.53944(2) 0.86576(6) 0.72834(2)
O2_2 O 0.58162(14) 0.7731(4) 0.70443(10)
N2_2 N 0.49954(13) 0.9740(4) 0.70422(9)
N3_2 N 0.43713(13) 0.9859(4) 0.73810(10)
O4_3 O 0.60341(19) 0.9489(5) 0.68606(14)
C4_3 C 0.6043(2) 0.8378(7) 0.68611(13)
C7_3 C 0.6308(2) 0.7636(8) 0.66290(16)
C8_3 C 0.5943(3) 0.5868(12) 0.41708(18)
C9_3 C 0.5552(3) 0.6145(11) 0.39963(16)
C10_3 C 0.6406(3) 0.6424(9) 0.66723(14)
H5_3 H 0.628890 0.600115 0.684868
O5_3 O 0.5217(4) 0.5483(12) 0.40326(18)
C11_3 C 0.6308(3) 0.6405(12) 0.41143(17)
H6_3 H 0.632303 0.702834 0.395676
C12_3 C 0.6841(4) 0.6308(15) 0.62253(15)
C13_3 C 0.6505(3) 0.8294(12) 0.6385(2)
H7_3 H 0.645574 0.915796 0.635604
C14_3 C 0.6666(3) 0.5798(10) 0.64726(17)
H8_3 H 0.672466 0.494628 0.651392
C15_3 C 0.5947(4) 0.4971(14) 0.4401(2)
H9_3 H 0.569178 0.450184 0.444283
C16_3 C 0.6781(3) 0.7613(13) 0.61826(19)
H10_3 H 0.692800 0.802822 0.601678
C17_4 C 0.750000 0.500000 0.6185(2)
H11_4 H 0.750000 0.500001 0.640795
C18_3 C 0.71464(8) 0.55301(13) 0.60234(15)
C19_3 C 0.6687(3) 0.6086(14) 0.42814(19)
H12_3 H 0.695264 0.635969 0.419132
C20_3 C 0.67944(11) 0.6058(2) 0.55277(10)
H13_3 H 0.655691 0.641390 0.563833
C21_3 C 0.71401(12) 0.55396(19) 0.56922(8)
C22_5 C 0.74970(9) 0.50044(14) 0.55304(11)
C23_5 C 0.74972(11) 0.50041(17) 0.52040(11)
C24_3 C 0.71439(15) 0.5534(2) 0.50395(8)
C25_3 C 0.67963(12) 0.6055(3) 0.52014(10)
H14_3 H 0.656005 0.640908 0.508896
C26_3 C 0.6334(4) 0.4743(17) 0.4576(2)
H15_3 H 0.634314 0.409782 0.472774
C27_3 C 0.6719(3) 0.5526(17) 0.45171(18)
C28_3 C 0.71481(18) 0.5527(3) 0.47085(16)
C29_4 C 0.750000 0.500000 0.4548(2)
H16_4 H 0.750002 0.500000 0.432531
O6_2 O 0.91838(14) 0.2269(4) 0.70443(10)
O8_3 O 0.89659(19) 0.0511(5) 0.68606(14)
C30_3 C 0.8957(2) 0.1622(7) 0.68611(13)
C31_3 C 0.8692(2) 0.2364(8) 0.66290(16)
C32_3 C 0.9057(3) 0.4132(12) 0.41708(18)
C33_3 C 0.9448(3) 0.3855(11) 0.39963(16)
C34_3 C 0.8594(3) 0.3576(9) 0.66723(14)
H17_3 H 0.871110 0.399885 0.684868
O9_3 O 0.9783(4) 0.4517(12) 0.40326(18)
C35_3 C 0.8692(3) 0.3595(12) 0.41143(17)
H18_3 H 0.867697 0.297166 0.395676
C36_3 C 0.8159(4) 0.3692(15) 0.62253(15)
C37_3 C 0.8495(3) 0.1706(12) 0.6385(2)
H19_3 H 0.854426 0.084204 0.635604
C38_3 C 0.8334(3) 0.4202(10) 0.64726(17)
H20_3 H 0.827534 0.505372 0.651392
C39_3 C 0.9053(4) 0.5029(14) 0.4401(2)
H21_3 H 0.930822 0.549816 0.444283
C40_3 C 0.8219(3) 0.2387(13) 0.61826(19)
H22_3 H 0.807200 0.197178 0.601678
C41_3 C 0.78536(8) 0.44699(13) 0.60234(15)
C42_3 C 0.8313(3) 0.3914(14) 0.42814(19)
H23_3 H 0.804736 0.364031 0.419132
C43_3 C 0.82056(11) 0.3942(2) 0.55277(10)
H24_3 H 0.844309 0.358610 0.563833
C44_3 C 0.78599(12) 0.44604(19) 0.56922(8)
C45_3 C 0.78561(15) 0.4466(2) 0.50395(8)
C46_3 C 0.82037(12) 0.3945(3) 0.52014(10)
H25_3 H 0.843995 0.359092 0.508896
C47_3 C 0.8666(4) 0.5257(17) 0.4576(2)
H26_3 H 0.865686 0.590218 0.472774
C48_3 C 0.8281(3) 0.4474(17) 0.45171(18)
C49_3 C 0.78519(18) 0.4473(3) 0.47085(16)
Zn3_2 Zn 0.96056(2) 0.13424(6) 0.72834(2)
Zn5_2 Zn 0.46056(2) 0.86576(6) 0.77166(2)
O10_2 O 0.41838(14) 0.7731(4) 0.79557(10)
N12_3 N 0.50046(13) 0.9740(4) 0.79578(9)
N13_2 N 0.56287(13) 0.9859(4) 0.76190(10)
O12_3 O 0.39659(19) 0.9489(5) 0.81394(14)
C58_3 C 0.3957(2) 0.8378(7) 0.81389(13)
C61_3 C 0.3692(2) 0.7636(8) 0.83710(16)
C64_3 C 0.3594(3) 0.6424(9) 0.83277(14)
H35_3 H 0.371110 0.600115 0.815132
C66_3 C 0.3159(4) 0.6308(15) 0.87747(15)
C67_3 C 0.3495(3) 0.8294(12) 0.8615(2)
H37_3 H 0.354426 0.915796 0.864396
C68_3 C 0.3334(3) 0.5798(10) 0.85274(17)
H38_3 H 0.327534 0.494628 0.848608
C70_3 C 0.3219(3) 0.7613(13) 0.88174(19)
H40_3 H 0.307200 0.802822 0.898322
C71_4 C 0.250000 0.500000 0.8815(2)
H41_4 H 0.250000 0.500001 0.859205
C72_3 C 0.28536(8) 0.55301(13) 0.89766(15)
C74_3 C 0.32056(11) 0.6058(2) 0.94723(10)
H43_3 H 0.344309 0.641390 0.936167
C75_3 C 0.28599(12) 0.55396(19) 0.93078(8)
C76_5 C 0.25030(9) 0.50044(14) 0.94696(11)
C77_5 C 0.25028(11) 0.50041(17) 0.97960(11)
C78_3 C 0.28561(15) 0.5534(2) 0.99605(8)
C79_3 C 0.32037(12) 0.6055(3) 0.97986(10)
H44_3 H 0.343995 0.640908 0.991104
O14_2 O 0.08162(14) 0.2269(4) 0.79557(10)
O16_3 O 0.10341(19) 0.0511(5) 0.81394(14)
C84_3 C 0.1043(2) 0.1622(7) 0.81389(13)
C85_3 C 0.1308(2) 0.2364(8) 0.83710(16)
C88_3 C 0.1406(3) 0.3576(9) 0.83277(14)
H47_3 H 0.128890 0.399885 0.815132
C90_3 C 0.1841(4) 0.3692(15) 0.87747(15)
C91_3 C 0.1505(3) 0.1706(12) 0.8615(2)
H49_3 H 0.145574 0.084204 0.864396
C92_3 C 0.1666(3) 0.4202(10) 0.85274(17)
H50_3 H 0.172466 0.505372 0.848608
C94_3 C 0.1781(3) 0.2387(13) 0.88174(19)
H52_3 H 0.192800 0.197178 0.898322
C95_3 C 0.21464(8) 0.44699(13) 0.89766(15)
C97_3 C 0.17944(11) 0.3942(2) 0.94723(10)
H54_3 H 0.155691 0.358610 0.936167
C98_3 C 0.21401(12) 0.44604(19) 0.93078(8)
C99_3 C 0.21439(15) 0.4466(2) 0.99605(8)
C100_3 C 0.17963(12) 0.3945(3) 0.97986(10)
H55_3 H 0.156005 0.359092 0.991104
O19_4 O 1.000000 0.250000 0.750000
N22_2 N 0.93713(13) 0.0141(4) 0.76190(10)
C50_2 C 0.99067(16) 0.9632(5) 0.67732(11)
H27_2 H 0.964381 0.976778 0.666120
C76_6 C 0.24970(9) 0.49956(14) 0.94696(11)
C77_6 C 0.24972(11) 0.49959(17) 0.97960(11)
Zn14_2 Zn 0.03944(2) 0.36576(6) 0.72834(2)
C55_4 C 0.00933(16) 0.9632(5) 0.82268(11)
H31_4 H 0.035619 0.976778 0.833880
C104_6 C 0.00933(16) 0.5368(5) 0.67732(11)
H57_6 H 0.035619 0.523222 0.666120
O20_6 O 0.08162(14) 0.2731(4) 0.70443(10)
N21_4 N 0.02011(14) 0.6177(3) 0.83211(8)
N23_4 N 0.06287(13) 0.4859(4) 0.76190(10)
C22_6 C 0.75030(9) 0.49956(14) 0.55304(11)
C23_6 C 0.75028(11) 0.49959(17) 0.52040(11)
N12_4 N 0.99954(13) 0.0260(4) 0.79578(9)
Zn16_2 Zn 0.96056(2) 0.36576(6) 0.77166(2)
N11_4 N 0.97989(14) 0.8823(3) 0.83211(8)
N14_4 N 0.88456(19) 0.8671(6) 0.77919(15)
C56_4 C 0.96074(14) 0.9824(4) 0.78766(11)
C57_4 C 0.94782(16) 0.8938(5) 0.80959(11)
N15_4 N 0.8922(2) 0.7508(5) 0.82598(13)
H32_4 H 0.913097 0.719417 0.836943
H33_4 H 0.879777 0.692327 0.815422
C59_4 C 0.9081(2) 0.8360(6) 0.80550(15)
C60_4 C 0.8999(2) 0.9470(7) 0.75995(15)
H34_4 H 0.882781 0.961468 0.741734
N16_4 N 0.97989(14) 0.6177(3) 0.66789(8)
N17_6 N 0.99954(13) 0.4740(4) 0.70422(9)
N18_4 N 0.93713(13) 0.4859(4) 0.73810(10)
N19_6 N 0.88456(19) 0.6329(6) 0.72081(15)
C105_6 C 0.96074(14) 0.5176(4) 0.71234(11)
C106_6 C 0.94782(16) 0.6062(5) 0.69041(11)
N20_6 N 0.8922(2) 0.7492(5) 0.67402(13)
H58_6 H 0.913097 0.780583 0.663057
H59_6 H 0.879777 0.807673 0.684578
C107_6 C 0.9081(2) 0.6640(6) 0.69450(15)
C108_6 C 0.8999(2) 0.5530(7) 0.74005(15)
H60_6 H 0.882781 0.538532 0.758266
N17_7 N 0.49954(13) 0.5260(4) 0.79578(9)
N19_7 N 0.38456(19) 0.3671(6) 0.77919(15)
C104_7 C 0.50933(16) 0.4632(5) 0.82268(11)
H57_7 H 0.535619 0.476778 0.833880
C105_7 C 0.46074(14) 0.4824(4) 0.78766(11)
C106_7 C 0.44782(16) 0.3938(5) 0.80959(11)
N20_7 N 0.3922(2) 0.2508(5) 0.82598(13)
H58_7 H 0.413097 0.219417 0.836943
H59_7 H 0.379777 0.192327 0.815422
C107_7 C 0.4081(2) 0.3360(6) 0.80550(15)
C108_7 C 0.3999(2) 0.4470(7) 0.75995(15)
H60_7 H 0.382781 0.461468 0.741734
O20_7 O 0.58162(14) 0.7269(4) 0.79557(10)
N17_8 N 0.00046(13) 0.4740(4) 0.79578(9)
N19_8 N 0.11544(19) 0.6329(6) 0.77919(15)
C105_8 C 0.03926(14) 0.5176(4) 0.78766(11)
C106_8 C 0.05218(16) 0.6062(5) 0.80959(11)
N20_8 N 0.1078(2) 0.7492(5) 0.82598(13)
H58_8 H 0.086903 0.780583 0.836943
H59_8 H 0.120223 0.807673 0.815422
C107_8 C 0.0919(2) 0.6640(6) 0.80550(15)
C108_8 C 0.1001(2) 0.5530(7) 0.75995(15)
H60_8 H 0.117219 0.538532 0.741734
C104_8 C 0.99067(16) 0.5368(5) 0.82268(11)
H57_8 H 0.964381 0.523222 0.833880
O20_8 O 0.91838(14) 0.2731(4) 0.79557(10)
O4_4 O 0.10341(19) 0.4489(5) 0.68606(14)
C4_4 C 0.1043(2) 0.3378(7) 0.68611(13)
C7_4 C 0.1308(2) 0.2636(8) 0.66290(16)
C8_4 C 0.0943(3) 0.0868(12) 0.41708(18)
C9_4 C 0.0552(3) 0.1145(11) 0.39963(16)
C10_4 C 0.1406(3) 0.1424(9) 0.66723(14)
H5_4 H 0.128890 0.100115 0.684868
O5_4 O 0.0217(4) 0.0483(12) 0.40326(18)
C11_4 C 0.1308(3) 0.1405(12) 0.41143(17)
H6_4 H 0.132303 0.202834 0.395676
C12_4 C 0.1841(4) 0.1308(15) 0.62253(15)
C13_4 C 0.1505(3) 0.3294(12) 0.6385(2)
H7_4 H 0.145574 0.415796 0.635604
C14_4 C 0.1666(3) 0.0798(10) 0.64726(17)
C16_4 C 0.1781(3) 0.2613(13) 0.61826(19)
H10_4 H 0.192800 0.302822 0.601678
C17_5 C 0.250000 0.000000 0.6185(2)
H11_5 H 0.250000 0.000001 0.640795
C18_4 C 0.21464(8) 0.05301(13) 0.60234(15)
C19_4 C 0.1687(3) 0.1086(14) 0.42814(19)
H12_4 H 0.195264 0.135969 0.419132
C20_4 C 0.17944(11) 0.1058(2) 0.55277(10)
H13_4 H 0.155691 0.141390 0.563833
C21_4 C 0.21401(12) 0.05396(19) 0.56922(8)
C22_7 C 0.24970(9) 0.00044(14) 0.55304(11)
C23_7 C 0.24972(11) 0.00041(17) 0.52040(11)
C24_4 C 0.21439(15) 0.0534(2) 0.50395(8)
C25_4 C 0.17963(12) 0.1055(3) 0.52014(10)
H14_4 H 0.156005 0.140908 0.508896
C27_4 C 0.1719(3) 0.0526(17) 0.45171(18)
C28_4 C 0.21481(18) 0.0527(3) 0.47085(16)
C29_5 C 0.250000 -0.000000 0.4548(2)
H16_5 H 0.250002 -0.000000 0.432531
H20_4 H 0.327534 0.005372 0.651392
C39_4 C 0.4053(4) 0.0029(14) 0.4401(2)
H21_4 H 0.430822 0.049816 0.444283
C47_4 C 0.3666(4) 0.0257(17) 0.4576(2)
H26_4 H 0.365686 0.090218 0.472774
H8_4 H 0.172466 0.994628 0.651392
C15_4 C 0.0947(4) 0.9971(14) 0.4401(2)
H9_4 H 0.069178 0.950184 0.444283
C17_6 C 0.250000 1.000000 0.6185(2)
H11_6 H 0.250000 1.000001 0.640795
C26_4 C 0.1334(4) 0.9743(17) 0.4576(2)
H15_4 H 0.134314 0.909782 0.472774
C29_6 C 0.250000 1.000000 0.4548(2)
H16_6 H 0.250002 1.000000 0.432531
O8_4 O 0.39659(19) 0.5511(5) 0.68606(14)
C30_4 C 0.3957(2) 0.6622(7) 0.68611(13)
C31_4 C 0.3692(2) 0.7364(8) 0.66290(16)
C32_4 C 0.4057(3) 0.9132(12) 0.41708(18)
C33_4 C 0.4448(3) 0.8855(11) 0.39963(16)
C34_4 C 0.3594(3) 0.8576(9) 0.66723(14)
H17_4 H 0.371110 0.899885 0.684868
O9_4 O 0.4783(4) 0.9517(12) 0.40326(18)
C35_4 C 0.3692(3) 0.8595(12) 0.41143(17)
H18_4 H 0.367697 0.797166 0.395676
C36_4 C 0.3159(4) 0.8692(15) 0.62253(15)
C37_4 C 0.3495(3) 0.6706(12) 0.6385(2)
H19_4 H 0.354426 0.584204 0.635604
C38_4 C 0.3334(3) 0.9202(10) 0.64726(17)
C40_4 C 0.3219(3) 0.7387(13) 0.61826(19)
H22_4 H 0.307200 0.697178 0.601678
C41_4 C 0.28536(8) 0.94699(13) 0.60234(15)
C42_4 C 0.3313(3) 0.8914(14) 0.42814(19)
H23_4 H 0.304736 0.864031 0.419132
C43_4 C 0.32056(11) 0.8942(2) 0.55277(10)
H24_4 H 0.344309 0.858610 0.563833
C44_4 C 0.28599(12) 0.94604(19) 0.56922(8)
C45_4 C 0.28561(15) 0.9466(2) 0.50395(8)
C46_4 C 0.32037(12) 0.8945(3) 0.52014(10)
H25_4 H 0.343995 0.859092 0.508896
C48_4 C 0.3281(3) 0.9474(17) 0.45171(18)
C49_4 C 0.28519(18) 0.9473(3) 0.47085(16)
C62_4 C 0.9057(3) 0.0868(12) 0.08292(18)
C63_4 C 0.9448(3) 0.1145(11) 0.10037(16)
O13_4 O 0.9783(4) 0.0483(12) 0.09674(18)
C65_4 C 0.8692(3) 0.1405(12) 0.08857(17)
H36_4 H 0.867697 0.202834 0.104324
C73_4 C 0.8313(3) 0.1086(14) 0.07186(19)
H42_4 H 0.804736 0.135969 0.080868
C81_4 C 0.8281(3) 0.0526(17) 0.04829(18)
C82_4 C 0.78519(18) 0.0527(3) 0.02915(16)
C83_5 C 0.750000 -0.000000 0.0452(2)
H46_5 H 0.749998 0.000000 0.067469
C93_4 C 0.5947(4) 0.0029(14) 0.0599(2)
H51_4 H 0.569178 0.049816 0.055717
C101_4 C 0.6334(4) 0.0257(17) 0.0424(2)
H56_4 H 0.634314 0.090218 0.027226
O12_4 O 0.89659(19) 0.4489(5) 0.81394(14)
C58_4 C 0.8957(2) 0.3378(7) 0.81389(13)
C61_4 C 0.8692(2) 0.2636(8) 0.83710(16)
C64_4 C 0.8594(3) 0.1424(9) 0.83277(14)
H35_4 H 0.871110 0.100115 0.815132
C66_4 C 0.8159(4) 0.1308(15) 0.87747(15)
C67_4 C 0.8495(3) 0.3294(12) 0.8615(2)
H37_4 H 0.854426 0.415796 0.864396
C68_4 C 0.8334(3) 0.0798(10) 0.85274(17)
C70_4 C 0.8219(3) 0.2613(13) 0.88174(19)
H40_4 H 0.807200 0.302822 0.898322
C71_5 C 0.750000 0.000000 0.8815(2)
H41_5 H 0.750000 0.000001 0.859205
C72_4 C 0.78536(8) 0.05301(13) 0.89766(15)
C74_4 C 0.82056(11) 0.1058(2) 0.94723(10)
H43_4 H 0.844309 0.141390 0.936167
C75_4 C 0.78599(12) 0.05396(19) 0.93078(8)
C76_7 C 0.75030(9) 0.00044(14) 0.94696(11)
C77_7 C 0.75028(11) 0.00041(17) 0.97960(11)
C78_4 C 0.78561(15) 0.0534(2) 0.99605(8)
C79_4 C 0.82037(12) 0.1055(3) 0.97986(10)
H44_4 H 0.843995 0.140908 0.991104
H50_4 H 0.672466 0.005372 0.848608
C69_4 C 0.9053(4) 0.9971(14) 0.0599(2)
H39_4 H 0.930822 0.950184 0.055717
C80_4 C 0.8666(4) 0.9743(17) 0.0424(2)
H45_4 H 0.865686 0.909782 0.027226
C83_6 C 0.750000 1.000000 0.0452(2)
H46_6 H 0.749998 1.000000 0.067469
C86_4 C 0.5943(3) 0.9132(12) 0.08292(18)
C87_4 C 0.5552(3) 0.8855(11) 0.10037(16)
O17_4 O 0.5217(4) 0.9517(12) 0.09674(18)
C89_4 C 0.6308(3) 0.8595(12) 0.08857(17)
H48_4 H 0.632303 0.797166 0.104324
C96_4 C 0.6687(3) 0.8914(14) 0.07186(19)
H53_4 H 0.695264 0.864031 0.080868
C102_4 C 0.6719(3) 0.9474(17) 0.04829(18)
C103_4 C 0.71481(18) 0.9473(3) 0.02915(16)
H38_4 H 0.827534 0.994628 0.848608
C71_6 C 0.750000 1.000000 0.8815(2)
H41_6 H 0.750000 1.000001 0.859205
O16_4 O 0.60341(19) 0.5511(5) 0.81394(14)
C84_4 C 0.6043(2) 0.6622(7) 0.81389(13)
C85_4 C 0.6308(2) 0.7364(8) 0.83710(16)
C88_4 C 0.6406(3) 0.8576(9) 0.83277(14)
H47_4 H 0.628890 0.899885 0.815132
C90_4 C 0.6841(4) 0.8692(15) 0.87747(15)
C91_4 C 0.6505(3) 0.6706(12) 0.8615(2)
H49_4 H 0.645574 0.584204 0.864396
C92_4 C 0.6666(3) 0.9202(10) 0.85274(17)
C94_4 C 0.6781(3) 0.7387(13) 0.88174(19)
H52_4 H 0.692800 0.697178 0.898322
C95_4 C 0.71464(8) 0.94699(13) 0.89766(15)
C97_4 C 0.67944(11) 0.8942(2) 0.94723(10)
H54_4 H 0.655691 0.858610 0.936167
C98_4 C 0.71401(12) 0.94604(19) 0.93078(8)
C99_4 C 0.71439(15) 0.9466(2) 0.99605(8)
C100_4 C 0.67963(12) 0.8945(3) 0.97986(10)
H55_4 H 0.656005 0.859092 0.991104
C22_8 C 0.25030(9) 0.99956(14) 0.55304(11)
C23_8 C 0.25028(11) 0.99959(17) 0.52040(11)
C76_8 C 0.74970(9) 0.99956(14) 0.94696(11)
C77_8 C 0.74972(11) 0.99959(17) 0.97960(11)
loop_
_geom_bond_atom_site_label_1
_geom_bond_atom_site_label_2
_geom_bond_site_symmetry_1
_geom_bond_site_symmetry_2
H27 C50 1_555 1_555
Zn2 O1 1_555 1_555
O1 Zn5 1_555 1_555
O2 Zn2 1_555 1_555
N2 Zn2 1_555 1_555
O3 C9 1_555 1_555
O4 C4 1_555 1_555
C4 O2 1_555 1_555
C7 C4 1_555 1_555
C8 C9 1_555 1_555
C9 O5 1_555 1_555
C10 C7 1_555 1_555
H5 C10 1_555 1_555
C11 C8 1_555 1_555
H6 C11 1_555 1_555
C12 C14 1_555 1_555
C13 C7 1_555 1_555
H7 C13 1_555 1_555
C14 C10 1_555 1_555
H8 C14 1_555 1_555
C15 C8 1_555 1_555
H9 C15 1_555 1_555
C16 C12 1_555 1_555
H10 C16 1_555 1_555
C17 H11 1_555 1_555
C18 C12 1_555 1_555
C19 C11 1_555 1_555
H12 C19 1_555 1_555
C20 H13 1_555 1_555
C21 C18 1_555 1_555
C22 C21 1_555 1_555
C23 C22 1_555 1_555
C24 C23 1_555 1_555
C25 C20 1_555 1_555
H14 C25 1_555 1_555
C26 C15 1_555 1_555
H15 C26 1_555 1_555
C27 C19 1_555 1_555
C28 C24 1_555 1_555
C29 C28 1_555 1_555
H16 C29 1_555 1_555
O6 C30 1_555 1_555
O7 C33 1_555 1_555
O8 C30 1_555 1_555
C30 C31 1_555 1_555
C31 C34 1_555 1_555
C32 C33 1_555 1_555
C33 O9 1_555 1_555
C34 H17 1_555 1_555
C35 C32 1_555 1_555
H18 C35 1_555 1_555
C36 C38 1_555 1_555
C37 C31 1_555 1_555
H19 C37 1_555 1_555
C38 C34 1_555 1_555
H20 C38 1_555 1_555
C39 C32 1_555 1_555
H21 C39 1_555 1_555
C40 C36 1_555 1_555
H22 C40 1_555 1_555
C41 C17 1_555 1_555
C42 C35 1_555 1_555
H23 C42 1_555 1_555
C43 H24 1_555 1_555
C44 C22 1_555 1_555
C45 C23 1_555 1_555
C46 C43 1_555 1_555
H25 C46 1_555 1_555
C47 C39 1_555 1_555
H26 C47 1_555 1_555
C48 C42 1_555 1_555
C49 C29 1_555 1_555
Zn3 O6 1_555 1_555
Zn5 N3 1_555 1_555
O10 Zn5 1_555 1_555
N12 Zn5 1_555 1_555
N13 Zn2 1_555 1_555
O12 C58 1_555 1_555
C58 O10 1_555 1_555
C61 C58 1_555 1_555
C64 C61 1_555 1_555
H35 C64 1_555 1_555
C66 C68 1_555 1_555
C67 C61 1_555 1_555
H37 C67 1_555 1_555
C68 C64 1_555 1_555
H38 C68 1_555 1_555
C70 C66 1_555 1_555
H40 C70 1_555 1_555
C71 H41 1_555 1_555
C72 C66 1_555 1_555
C74 H43 1_555 1_555
C75 C72 1_555 1_555
C76 C75 1_555 1_555
C77 C76 1_555 1_555
C78 C77 1_555 1_555
C79 C74 1_555 1_555
H44 C79 1_555 1_555
O14 C84 1_555 1_555
O16 C84 1_555 1_555
C84 C85 1_555 1_555
C85 C88 1_555 1_555
C88 H47 1_555 1_555
C90 C92 1_555 1_555
C91 C85 1_555 1_555
H49 C91 1_555 1_555
C92 C88 1_555 1_555
H50 C92 1_555 1_555
C94 C90 1_555 1_555
H52 C94 1_555 1_555
C95 C71 1_555 1_555
C97 H54 1_555 1_555
C98 C76 1_555 1_555
C99 C77 1_555 1_555
C100 C97 1_555 1_555
H55 C100 1_555 1_555
Zn8 O3 1_555 1_555
Zn9 O7 1_555 1_555
Zn13 O14 1_555 1_555
Zn14 O1 1_555 1_555
Zn16 O1 1_555 1_555
O19 Zn3 1_555 1_555
N22 Zn3 1_555 1_555
C13 C16 1_555 1_555
C17 C18 1_555 1_555
C20 C21 1_555 1_555
C24 C25 1_555 1_555
C26 C27 1_555 1_555
C27 C28 1_555 1_555
C36 C41 1_555 1_555
C37 C40 1_555 1_555
C41 C44 1_555 1_555
C43 C44 1_555 1_555
C45 C46 1_555 1_555
C45 C49 1_555 1_555
C47 C48 1_555 1_555
C48 C49 1_555 1_555
C67 C70 1_555 1_555
C71 C72 1_555 1_555
C74 C75 1_555 1_555
C78 C79 1_555 1_555
C90 C95 1_555 1_555
C91 C94 1_555 1_555
C95 C98 1_555 1_555
C97 C98 1_555 1_555
C99 C100 1_555 1_555
O11 C63 1_555 1_555
C62 C63 1_555 1_555
C63 O13 1_555 1_555
C65 C62 1_555 1_555
H36 C65 1_555 1_555
C69 C62 1_555 1_555
H39 C69 1_555 1_555
C73 C65 1_555 1_555
H42 C73 1_555 1_555
C80 C69 1_555 1_555
H45 C80 1_555 1_555
C81 C73 1_555 1_555
C83 C82 1_555 1_555
H46 C83 1_555 1_555
O15 C87 1_555 1_555
C86 C87 1_555 1_555
C87 O17 1_555 1_555
C89 C86 1_555 1_555
H48 C89 1_555 1_555
C93 C86 1_555 1_555
H51 C93 1_555 1_555
C96 C89 1_555 1_555
H53 C96 1_555 1_555
C101 C93 1_555 1_555
H56 C101 1_555 1_555
C102 C96 1_555 1_555
C103 C83 1_555 1_555
Zn10 O11 1_555 1_555
Zn11_2 O15 1_555 1_555
C80 C81 1_555 1_555
C81 C82 1_555 1_555
C101 C102 1_555 1_555
C102 C103 1_555 1_555
Zn1 N1 1_555 1_555
N1 C1 1_555 1_555
N4 C5 1_555 1_555
H1 C1 1_555 1_555
C3 N1 1_555 1_555
N5 H2 1_555 1_555
H3 N5 1_555 1_555
C5 C3 1_555 1_555
H4 C6 1_555 1_555
Zn4 N11 1_555 1_555
N11 C55 1_555 1_555
N14 C59 1_555 1_555
H31 C55 1_555 1_555
C57 N11 1_555 1_555
N15 H32 1_555 1_555
H33 N15 1_555 1_555
C59 C57 1_555 1_555
H34 C60 1_555 1_555
Zn14 N17 1_555 1_555
N16 Zn1 1_555 1_555
N17 C104 1_555 1_555
N18 C105 1_555 1_555
N19 C107 1_555 1_555
C104 N16 1_555 1_555
H57 C104 1_555 1_555
C105 N17 1_555 1_555
C106 N16 1_555 1_555
N20 H58 1_555 1_555
H59 N20 1_555 1_555
C107 C106 1_555 1_555
C108 N18 1_555 1_555
H60 C108 1_555 1_555
Zn16 N18 1_555 1_555
O20 Zn14 1_555 1_555
N21 Zn4 1_555 1_555
O21 Zn1 1_555 1_555
O22 Zn4 1_555 1_555
O23 Zn1 1_555 1_555
O24 Zn4 1_555 1_555
N23 Zn14 1_555 1_555
N4 C6 1_555 1_555
C2 C3 1_555 1_555
N5 C5 1_555 1_555
N14 C60 1_555 1_555
C56 C57 1_555 1_555
N15 C59 1_555 1_555
N19 C108 1_555 1_555
C105 C106 1_555 1_555
N20 C107 1_555 1_555
N9 C53 1_555 1_555
C52 N6 1_555 1_555
N10 H28 1_555 1_555
H29 N10 1_555 1_555
C53 C52 1_555 1_555
H30 C54 1_555 1_555
Zn7_2 N6 1_555 1_555
N9 C54 1_555 1_555
C51 C52 1_555 1_555
N10 C53 1_555 1_555
Zn13 N8 1_555 1_555
Zn13 O19_2 1_555 1_555
Zn4_2 N11_2 1_555 1_555
N14_2 C59_2 1_555 1_555
C57_2 N11_2 1_555 1_555
N15_2 H32_2 1_555 1_555
H33_2 N15_2 1_555 1_555
C59_2 C57_2 1_555 1_555
H34_2 C60_2 1_555 1_555
N16_2 Zn7 1_555 1_555
N18_2 C105_2 1_555 1_555
N19_2 C107_2 1_555 1_555
C105_2 N17_2 1_555 1_555
C106_2 N16_2 1_555 1_555
N20_2 H58_2 1_555 1_555
H59_2 N20_2 1_555 1_555
C107_2 C106_2 1_555 1_555
C108_2 N18_2 1_555 1_555
H60_2 C108_2 1_555 1_555
Zn15 N18_2 1_555 1_555
O22_2 Zn4_2 1_555 1_555
O23_2 Zn7 1_555 1_555
N14_2 C60_2 1_555 1_555
C56_2 C57_2 1_555 1_555
N15_2 C59_2 1_555 1_555
N19_2 C108_2 1_555 1_555
C105_2 C106_2 1_555 1_555
N20_2 C107_2 1_555 1_555
Zn15 O19 1_555 1_555
C22_2 C44 1_555 1_555
C23_2 C22_2 1_555 1_555
C45 C23_2 1_555 1_555
C21 C22_2 1_555 1_555
C24 C23_2 1_555 1_555
H31_2 C55_2 1_555 1_555
H57_2 C104_2 1_555 1_555
O19_2 Zn6 1_555 1_555
O20_2 Zn6 1_555 1_555
N21_2 Zn4_3 1_555 1_555
O21_2 Zn7_2 1_555 1_555
O24_2 Zn4_3 1_555 1_555
N23_2 Zn6 1_555 1_555
C76_2 C98 1_555 1_555
C77_2 C76_2 1_555 1_555
C99 C77_2 1_555 1_555
C75 C76_2 1_555 1_555
C78 C77_2 1_555 1_555
Zn16 N17_3 1_555 1_555
N17_3 C104_3 1_555 1_555
N23 C105_3 1_555 1_555
N19_3 C107_3 1_555 1_555
C104_3 N21 1_555 1_555
H57_3 C104_3 1_555 1_555
C105_3 N17_3 1_555 1_555
C106_3 N21 1_555 1_555
N20_3 H58_3 1_555 1_555
H59_3 N20_3 1_555 1_555
C107_3 C106_3 1_555 1_555
C108_3 N23 1_555 1_555
H60_3 C108_3 1_555 1_555
O20_3 Zn16 1_555 1_555
N19_3 C108_3 1_555 1_555
C105_3 C106_3 1_555 1_555
N20_3 C107_3 1_555 1_555
H57_4 C104_4 1_555 1_555
O20_4 Zn15 1_555 1_555
N23_2 C105_4 1_555 1_555
N19_4 C107_4 1_555 1_555
C105_4 N17_4 1_555 1_555
C106_4 N21_2 1_555 1_555
N20_4 H58_4 1_555 1_555
H59_4 N20_4 1_555 1_555
C107_4 C106_4 1_555 1_555
C108_4 N23_2 1_555 1_555
H60_4 C108_4 1_555 1_555
N19_4 C108_4 1_555 1_555
C105_4 C106_4 1_555 1_555
N20_4 C107_4 1_555 1_555
C71_2 H41_2 1_555 1_555
O20_3 C84_2 1_555 1_555
O16_2 C84_2 1_555 1_555
C84_2 C85_2 1_555 1_555
C85_2 C88_2 1_555 1_555
C88_2 H47_2 1_555 1_555
C90_2 C92_2 1_555 1_555
C91_2 C85_2 1_555 1_555
H49_2 C91_2 1_555 1_555
C92_2 C88_2 1_555 1_555
C94_2 C90_2 1_555 1_555
H52_2 C94_2 1_555 1_555
C95_2 C71_2 1_555 1_555
C97_2 H54_2 1_555 1_555
C100_2 C97_2 1_555 1_555
H55_2 C100_2 1_555 1_555
C90_2 C95_2 1_555 1_555
C91_2 C94_2 1_555 1_555
C95_2 C98_2 1_555 1_555
C97_2 C98_2 1_555 1_555
C99_2 C100_2 1_555 1_555
H39_2 C69_2 1_555 1_555
C80_2 C69_2 1_555 1_555
H45_2 C80_2 1_555 1_555
H46_2 C83_2 1_555 1_555
O15_2 C87_2 1_555 1_555
C86_2 C87_2 1_555 1_555
C87_2 O17_2 1_555 1_555
C89_2 C86_2 1_555 1_555
H48_2 C89_2 1_555 1_555
C96_2 C89_2 1_555 1_555
H53_2 C96_2 1_555 1_555
C102_2 C96_2 1_555 1_555
C103_2 C83_2 1_555 1_555
Zn10 O15_2 1_555 1_555
C102_2 C103_2 1_555 1_555
O12_2 C58_2 1_555 1_555
C58_2 O20_4 1_555 1_555
C61_2 C58_2 1_555 1_555
C64_2 C61_2 1_555 1_555
H35_2 C64_2 1_555 1_555
C66_2 C68_2 1_555 1_555
C67_2 C61_2 1_555 1_555
H37_2 C67_2 1_555 1_555
C68_2 C64_2 1_555 1_555
C70_2 C66_2 1_555 1_555
H40_2 C70_2 1_555 1_555
C71_3 H41_3 1_555 1_555
C72_2 C66_2 1_555 1_555
C74_2 H43_2 1_555 1_555
C75_2 C72_2 1_555 1_555
C76_3 C75_2 1_555 1_555
C77_3 C76_3 1_555 1_555
C78_2 C77_3 1_555 1_555
C79_2 C74_2 1_555 1_555
H44_2 C79_2 1_555 1_555
C67_2 C70_2 1_555 1_555
C71_3 C72_2 1_555 1_555
C74_2 C75_2 1_555 1_555
C78_2 C79_2 1_555 1_555
O11_2 C63_2 1_555 1_555
C62_2 C63_2 1_555 1_555
C63_2 O13_2 1_555 1_555
C65_2 C62_2 1_555 1_555
H36_2 C65_2 1_555 1_555
C73_2 C65_2 1_555 1_555
H42_2 C73_2 1_555 1_555
C81_2 C73_2 1_555 1_555
C83_3 C82_2 1_555 1_555
H46_3 C83_3 1_555 1_555
H51_2 C93_2 1_555 1_555
C101_2 C93_2 1_555 1_555
H56_2 C101_2 1_555 1_555
Zn11 O11_2 1_555 1_555
C81_2 C82_2 1_555 1_555
H9_2 C15_2 1_555 1_555
C17_2 H11_2 1_555 1_555
C26_2 C15_2 1_555 1_555
H15_2 C26_2 1_555 1_555
H16_2 C29_2 1_555 1_555
O20 C30_2 1_555 1_555
O7_2 C33_2 1_555 1_555
O8_2 C30_2 1_555 1_555
C30_2 C31_2 1_555 1_555
C31_2 C34_2 1_555 1_555
C32_2 C33_2 1_555 1_555
C33_2 O9_2 1_555 1_555
C34_2 H17_2 1_555 1_555
C35_2 C32_2 1_555 1_555
H18_2 C35_2 1_555 1_555
C36_2 C38_2 1_555 1_555
C37_2 C31_2 1_555 1_555
H19_2 C37_2 1_555 1_555
C38_2 C34_2 1_555 1_555
C40_2 C36_2 1_555 1_555
H22_2 C40_2 1_555 1_555
C41_2 C17_2 1_555 1_555
C42_2 C35_2 1_555 1_555
H23_2 C42_2 1_555 1_555
C43_2 H24_2 1_555 1_555
C46_2 C43_2 1_555 1_555
H25_2 C46_2 1_555 1_555
C48_2 C42_2 1_555 1_555
C49_2 C29_2 1_555 1_555
Zn8 O7_2 1_555 1_555
C36_2 C41_2 1_555 1_555
C37_2 C40_2 1_555 1_555
C41_2 C44_2 1_555 1_555
C43_2 C44_2 1_555 1_555
C45_2 C46_2 1_555 1_555
C45_2 C49_2 1_555 1_555
C48_2 C49_2 1_555 1_555
O3_2 C9_2 1_555 1_555
O4_2 C4_2 1_555 1_555
C4_2 O20_2 1_555 1_555
C7_2 C4_2 1_555 1_555
C8_2 C9_2 1_555 1_555
C9_2 O5_2 1_555 1_555
C10_2 C7_2 1_555 1_555
H5_2 C10_2 1_555 1_555
C11_2 C8_2 1_555 1_555
H6_2 C11_2 1_555 1_555
C12_2 C14_2 1_555 1_555
C13_2 C7_2 1_555 1_555
H7_2 C13_2 1_555 1_555
C14_2 C10_2 1_555 1_555
C16_2 C12_2 1_555 1_555
H10_2 C16_2 1_555 1_555
C17_3 H11_3 1_555 1_555
C18_2 C12_2 1_555 1_555
C19_2 C11_2 1_555 1_555
H12_2 C19_2 1_555 1_555
C20_2 H13_2 1_555 1_555
C21_2 C18_2 1_555 1_555
C22_3 C21_2 1_555 1_555
C23_3 C22_3 1_555 1_555
C24_2 C23_3 1_555 1_555
C25_2 C20_2 1_555 1_555
H14_2 C25_2 1_555 1_555
C27_2 C19_2 1_555 1_555
C28_2 C24_2 1_555 1_555
C29_3 C28_2 1_555 1_555
H16_3 C29_3 1_555 1_555
H21_2 C39_2 1_555 1_555
C47_2 C39_2 1_555 1_555
H26_2 C47_2 1_555 1_555
Zn9_2 O3_2 1_555 1_555
C13_2 C16_2 1_555 1_555
C17_3 C18_2 1_555 1_555
C20_2 C21_2 1_555 1_555
C24_2 C25_2 1_555 1_555
C27_2 C28_2 1_555 1_555
C22_4 C44_2 1_555 1_555
C23_4 C22_4 1_555 1_555
C45_2 C23_4 1_555 1_555
C76_4 C98_2 1_555 1_555
C77_4 C76_4 1_555 1_555
C99_2 C77_4 1_555 1_555
Zn12 N8_2 1_555 1_555
Zn12 O19_3 1_555 1_555
N9_2 C53_2 1_555 1_555
C52_2 N6_2 1_555 1_555
N10_2 H28_2 1_555 1_555
H29_2 N10_2 1_555 1_555
C53_2 C52_2 1_555 1_555
H30_2 C54_2 1_555 1_555
Zn9 N6_2 1_555 1_555
N9_2 C54_2 1_555 1_555
C51_2 C52_2 1_555 1_555
N10_2 C53_2 1_555 1_555
Zn8 N1_2 1_555 1_555
N1_2 C1_2 1_555 1_555
N4_2 C5_2 1_555 1_555
H1_2 C1_2 1_555 1_555
C3_2 N1_2 1_555 1_555
N5_2 H2_2 1_555 1_555
H3_2 N5_2 1_555 1_555
C5_2 C3_2 1_555 1_555
H4_2 C6_2 1_555 1_555
Zn10 N11_3 1_555 1_555
N11_3 C55_3 1_555 1_555
N14_3 C59_3 1_555 1_555
H31_3 C55_3 1_555 1_555
C57_3 N11_3 1_555 1_555
N15_3 H32_3 1_555 1_555
H33_3 N15_3 1_555 1_555
C59_3 C57_3 1_555 1_555
H34_3 C60_3 1_555 1_555
Zn6_2 N17_5 1_555 1_555
N16_3 Zn8 1_555 1_555
N17_5 C104_5 1_555 1_555
N18_3 C105_5 1_555 1_555
N19_5 C107_5 1_555 1_555
C104_5 N16_3 1_555 1_555
H57_5 C104_5 1_555 1_555
C105_5 N17_5 1_555 1_555
C106_5 N16_3 1_555 1_555
N20_5 H58_5 1_555 1_555
H59_5 N20_5 1_555 1_555
C107_5 C106_5 1_555 1_555
C108_5 N18_3 1_555 1_555
H60_5 C108_5 1_555 1_555
Zn15_2 N18_3 1_555 1_555
O18 Zn6_2 1_555 1_555
O20_5 Zn6_2 1_555 1_555
N21_3 Zn10 1_555 1_555
N23_3 Zn6_2 1_555 1_555
N4_2 C6_2 1_555 1_555
C2_2 C3_2 1_555 1_555
N5_2 C5_2 1_555 1_555
N14_3 C60_3 1_555 1_555
C56_3 C57_3 1_555 1_555
N15_3 C59_3 1_555 1_555
N19_5 C108_5 1_555 1_555
C105_5 C106_5 1_555 1_555
N20_5 C107_5 1_555 1_555
Zn15_2 O18 1_555 1_555
O22 C63_3 1_555 1_555
C62_3 C63_3 1_555 1_555
C63_3 O13_3 1_555 1_555
C65_3 C62_3 1_555 1_555
H36_3 C65_3 1_555 1_555
C69_3 C62_3 1_555 1_555
H39_3 C69_3 1_555 1_555
C73_3 C65_3 1_555 1_555
H42_3 C73_3 1_555 1_555
C80_3 C69_3 1_555 1_555
H45_3 C80_3 1_555 1_555
C81_3 C73_3 1_555 1_555
C83_4 C82_3 1_555 1_555
H46_4 C83_4 1_555 1_555
O22_2 C87_3 1_555 1_555
C86_3 C87_3 1_555 1_555
C87_3 O17_3 1_555 1_555
C89_3 C86_3 1_555 1_555
H48_3 C89_3 1_555 1_555
C93_3 C86_3 1_555 1_555
H51_3 C93_3 1_555 1_555
C96_3 C89_3 1_555 1_555
H53_3 C96_3 1_555 1_555
C101_3 C93_3 1_555 1_555
H56_3 C101_3 1_555 1_555
C102_3 C96_3 1_555 1_555
C103_3 C83_4 1_555 1_555
C80_3 C81_3 1_555 1_555
C81_3 C82_3 1_555 1_555
C101_3 C102_3 1_555 1_555
C102_3 C103_3 1_555 1_555
Zn2_2 O18 1_555 1_555
O18 Zn5_2 1_555 1_555
O2_2 Zn2_2 1_555 1_555
N2_2 Zn2_2 1_555 1_555
O21 C9_3 1_555 1_555
O4_3 C4_3 1_555 1_555
C4_3 O2_2 1_555 1_555
C7_3 C4_3 1_555 1_555
C8_3 C9_3 1_555 1_555
C9_3 O5_3 1_555 1_555
C10_3 C7_3 1_555 1_555
H5_3 C10_3 1_555 1_555
C11_3 C8_3 1_555 1_555
H6_3 C11_3 1_555 1_555
C12_3 C14_3 1_555 1_555
C13_3 C7_3 1_555 1_555
H7_3 C13_3 1_555 1_555
C14_3 C10_3 1_555 1_555
H8_3 C14_3 1_555 1_555
C15_3 C8_3 1_555 1_555
H9_3 C15_3 1_555 1_555
C16_3 C12_3 1_555 1_555
H10_3 C16_3 1_555 1_555
C17_4 H11_4 1_555 1_555
C18_3 C12_3 1_555 1_555
C19_3 C11_3 1_555 1_555
H12_3 C19_3 1_555 1_555
C20_3 H13_3 1_555 1_555
C21_3 C18_3 1_555 1_555
C22_5 C21_3 1_555 1_555
C23_5 C22_5 1_555 1_555
C24_3 C23_5 1_555 1_555
C25_3 C20_3 1_555 1_555
H14_3 C25_3 1_555 1_555
C26_3 C15_3 1_555 1_555
H15_3 C26_3 1_555 1_555
C27_3 C19_3 1_555 1_555
C28_3 C24_3 1_555 1_555
C29_4 C28_3 1_555 1_555
H16_4 C29_4 1_555 1_555
O6_2 C30_3 1_555 1_555
O21_2 C33_3 1_555 1_555
O8_3 C30_3 1_555 1_555
C30_3 C31_3 1_555 1_555
C31_3 C34_3 1_555 1_555
C32_3 C33_3 1_555 1_555
C33_3 O9_3 1_555 1_555
C34_3 H17_3 1_555 1_555
C35_3 C32_3 1_555 1_555
H18_3 C35_3 1_555 1_555
C36_3 C38_3 1_555 1_555
C37_3 C31_3 1_555 1_555
H19_3 C37_3 1_555 1_555
C38_3 C34_3 1_555 1_555
H20_3 C38_3 1_555 1_555
C39_3 C32_3 1_555 1_555
H21_3 C39_3 1_555 1_555
C40_3 C36_3 1_555 1_555
H22_3 C40_3 1_555 1_555
C41_3 C17_4 1_555 1_555
C42_3 C35_3 1_555 1_555
H23_3 C42_3 1_555 1_555
C43_3 H24_3 1_555 1_555
C44_3 C22_5 1_555 1_555
C45_3 C23_5 1_555 1_555
C46_3 C43_3 1_555 1_555
H25_3 C46_3 1_555 1_555
C47_3 C39_3 1_555 1_555
H26_3 C47_3 1_555 1_555
C48_3 C42_3 1_555 1_555
C49_3 C29_4 1_555 1_555
Zn3_2 O6_2 1_555 1_555
Zn5_2 N3_2 1_555 1_555
O10_2 Zn5_2 1_555 1_555
N12_3 Zn5_2 1_555 1_555
N13_2 Zn2_2 1_555 1_555
O12_3 C58_3 1_555 1_555
C58_3 O10_2 1_555 1_555
C61_3 C58_3 1_555 1_555
C64_3 C61_3 1_555 1_555
H35_3 C64_3 1_555 1_555
C66_3 C68_3 1_555 1_555
C67_3 C61_3 1_555 1_555
H37_3 C67_3 1_555 1_555
C68_3 C64_3 1_555 1_555
H38_3 C68_3 1_555 1_555
C70_3 C66_3 1_555 1_555
H40_3 C70_3 1_555 1_555
C71_4 H41_4 1_555 1_555
C72_3 C66_3 1_555 1_555
C74_3 H43_3 1_555 1_555
C75_3 C72_3 1_555 1_555
C76_5 C75_3 1_555 1_555
C77_5 C76_5 1_555 1_555
C78_3 C77_5 1_555 1_555
C79_3 C74_3 1_555 1_555
H44_3 C79_3 1_555 1_555
O14_2 C84_3 1_555 1_555
O16_3 C84_3 1_555 1_555
C84_3 C85_3 1_555 1_555
C85_3 C88_3 1_555 1_555
C88_3 H47_3 1_555 1_555
C90_3 C92_3 1_555 1_555
C91_3 C85_3 1_555 1_555
H49_3 C91_3 1_555 1_555
C92_3 C88_3 1_555 1_555
H50_3 C92_3 1_555 1_555
C94_3 C90_3 1_555 1_555
H52_3 C94_3 1_555 1_555
C95_3 C71_4 1_555 1_555
C97_3 H54_3 1_555 1_555
C98_3 C76_5 1_555 1_555
C99_3 C77_5 1_555 1_555
C100_3 C97_3 1_555 1_555
H55_3 C100_3 1_555 1_555
Zn12 O14_2 1_555 1_555
O19_4 Zn3_2 1_555 1_555
N22_2 Zn3_2 1_555 1_555
C13_3 C16_3 1_555 1_555
C17_4 C18_3 1_555 1_555
C20_3 C21_3 1_555 1_555
C24_3 C25_3 1_555 1_555
C26_3 C27_3 1_555 1_555
C27_3 C28_3 1_555 1_555
C36_3 C41_3 1_555 1_555
C37_3 C40_3 1_555 1_555
C41_3 C44_3 1_555 1_555
C43_3 C44_3 1_555 1_555
C45_3 C46_3 1_555 1_555
C45_3 C49_3 1_555 1_555
C47_3 C48_3 1_555 1_555
C48_3 C49_3 1_555 1_555
C67_3 C70_3 1_555 1_555
C71_4 C72_3 1_555 1_555
C74_3 C75_3 1_555 1_555
C78_3 C79_3 1_555 1_555
C90_3 C95_3 1_555 1_555
C91_3 C94_3 1_555 1_555
C95_3 C98_3 1_555 1_555
C97_3 C98_3 1_555 1_555
C99_3 C100_3 1_555 1_555
H27_2 C50_2 1_555 1_555
C76_6 C98_3 1_555 1_555
C77_6 C76_6 1_555 1_555
C99_3 C77_6 1_555 1_555
C75_3 C76_6 1_555 1_555
C78_3 C77_6 1_555 1_555
Zn14_2 O19_3 1_555 1_555
H31_4 C55_4 1_555 1_555
H57_6 C104_6 1_555 1_555
O20_6 Zn14_2 1_555 1_555
N21_4 Zn11 1_555 1_555
N23_4 Zn14_2 1_555 1_555
C22_6 C44_3 1_555 1_555
C23_6 C22_6 1_555 1_555
C45_3 C23_6 1_555 1_555
C21_3 C22_6 1_555 1_555
C24_3 C23_6 1_555 1_555
Zn16_2 O19_4 1_555 1_555
Zn11_2 N11_4 1_555 1_555
N14_4 C59_4 1_555 1_555
C57_4 N11_4 1_555 1_555
N15_4 H32_4 1_555 1_555
H33_4 N15_4 1_555 1_555
C59_4 C57_4 1_555 1_555
H34_4 C60_4 1_555 1_555
N16_4 Zn9_2 1_555 1_555
N18_4 C105_6 1_555 1_555
N19_6 C107_6 1_555 1_555
C105_6 N17_6 1_555 1_555
C106_6 N16_4 1_555 1_555
N20_6 H58_6 1_555 1_555
H59_6 N20_6 1_555 1_555
C107_6 C106_6 1_555 1_555
C108_6 N18_4 1_555 1_555
H60_6 C108_6 1_555 1_555
Zn16_2 N18_4 1_555 1_555
N14_4 C60_4 1_555 1_555
C56_4 C57_4 1_555 1_555
N15_4 C59_4 1_555 1_555
N19_6 C108_6 1_555 1_555
C105_6 C106_6 1_555 1_555
N20_6 C107_6 1_555 1_555
Zn15_2 N17_7 1_555 1_555
N17_7 C104_7 1_555 1_555
N23_3 C105_7 1_555 1_555
N19_7 C107_7 1_555 1_555
C104_7 N21_3 1_555 1_555
H57_7 C104_7 1_555 1_555
C105_7 N17_7 1_555 1_555
C106_7 N21_3 1_555 1_555
N20_7 H58_7 1_555 1_555
H59_7 N20_7 1_555 1_555
C107_7 C106_7 1_555 1_555
C108_7 N23_3 1_555 1_555
H60_7 C108_7 1_555 1_555
O20_7 Zn15_2 1_555 1_555
N19_7 C108_7 1_555 1_555
C105_7 C106_7 1_555 1_555
N20_7 C107_7 1_555 1_555
N23_4 C105_8 1_555 1_555
N19_8 C107_8 1_555 1_555
C105_8 N17_8 1_555 1_555
C106_8 N21_4 1_555 1_555
N20_8 H58_8 1_555 1_555
H59_8 N20_8 1_555 1_555
C107_8 C106_8 1_555 1_555
C108_8 N23_4 1_555 1_555
H60_8 C108_8 1_555 1_555
N19_8 C108_8 1_555 1_555
C105_8 C106_8 1_555 1_555
N20_8 C107_8 1_555 1_555
H57_8 C104_8 1_555 1_555
O20_8 Zn16_2 1_555 1_555
O23_2 C9_4 1_555 1_555
O4_4 C4_4 1_555 1_555
C4_4 O20_6 1_555 1_555
C7_4 C4_4 1_555 1_555
C8_4 C9_4 1_555 1_555
C9_4 O5_4 1_555 1_555
C10_4 C7_4 1_555 1_555
H5_4 C10_4 1_555 1_555
C11_4 C8_4 1_555 1_555
H6_4 C11_4 1_555 1_555
C12_4 C14_4 1_555 1_555
C13_4 C7_4 1_555 1_555
H7_4 C13_4 1_555 1_555
C14_4 C10_4 1_555 1_555
C16_4 C12_4 1_555 1_555
H10_4 C16_4 1_555 1_555
C17_5 H11_5 1_555 1_555
C18_4 C12_4 1_555 1_555
C19_4 C11_4 1_555 1_555
H12_4 C19_4 1_555 1_555
C20_4 H13_4 1_555 1_555
C21_4 C18_4 1_555 1_555
C22_7 C21_4 1_555 1_555
C23_7 C22_7 1_555 1_555
C24_4 C23_7 1_555 1_555
C25_4 C20_4 1_555 1_555
H14_4 C25_4 1_555 1_555
C27_4 C19_4 1_555 1_555
C28_4 C24_4 1_555 1_555
C29_5 C28_4 1_555 1_555
H16_5 C29_5 1_555 1_555
H21_4 C39_4 1_555 1_555
C47_4 C39_4 1_555 1_555
H26_4 C47_4 1_555 1_555
C13_4 C16_4 1_555 1_555
C17_5 C18_4 1_555 1_555
C20_4 C21_4 1_555 1_555
C24_4 C25_4 1_555 1_555
C27_4 C28_4 1_555 1_555
H9_4 C15_4 1_555 1_555
C17_6 H11_6 1_555 1_555
C26_4 C15_4 1_555 1_555
H15_4 C26_4 1_555 1_555
H16_6 C29_6 1_555 1_555
O20_5 C30_4 1_555 1_555
O23 C33_4 1_555 1_555
O8_4 C30_4 1_555 1_555
C30_4 C31_4 1_555 1_555
C31_4 C34_4 1_555 1_555
C32_4 C33_4 1_555 1_555
C33_4 O9_4 1_555 1_555
C34_4 H17_4 1_555 1_555
C35_4 C32_4 1_555 1_555
H18_4 C35_4 1_555 1_555
C36_4 C38_4 1_555 1_555
C37_4 C31_4 1_555 1_555
H19_4 C37_4 1_555 1_555
C38_4 C34_4 1_555 1_555
C40_4 C36_4 1_555 1_555
H22_4 C40_4 1_555 1_555
C41_4 C17_6 1_555 1_555
C42_4 C35_4 1_555 1_555
H23_4 C42_4 1_555 1_555
C43_4 H24_4 1_555 1_555
C46_4 C43_4 1_555 1_555
H25_4 C46_4 1_555 1_555
C48_4 C42_4 1_555 1_555
C49_4 C29_6 1_555 1_555
C36_4 C41_4 1_555 1_555
C37_4 C40_4 1_555 1_555
C41_4 C44_4 1_555 1_555
C43_4 C44_4 1_555 1_555
C45_4 C46_4 1_555 1_555
C45_4 C49_4 1_555 1_555
C48_4 C49_4 1_555 1_555
O24_2 C63_4 1_555 1_555
C62_4 C63_4 1_555 1_555
C63_4 O13_4 1_555 1_555
C65_4 C62_4 1_555 1_555
H36_4 C65_4 1_555 1_555
C73_4 C65_4 1_555 1_555
H42_4 C73_4 1_555 1_555
C81_4 C73_4 1_555 1_555
C83_5 C82_4 1_555 1_555
H46_5 C83_5 1_555 1_555
H51_4 C93_4 1_555 1_555
C101_4 C93_4 1_555 1_555
H56_4 C101_4 1_555 1_555
C81_4 C82_4 1_555 1_555
O12_4 C58_4 1_555 1_555
C58_4 O20_8 1_555 1_555
C61_4 C58_4 1_555 1_555
C64_4 C61_4 1_555 1_555
H35_4 C64_4 1_555 1_555
C66_4 C68_4 1_555 1_555
C67_4 C61_4 1_555 1_555
H37_4 C67_4 1_555 1_555
C68_4 C64_4 1_555 1_555
C70_4 C66_4 1_555 1_555
H40_4 C70_4 1_555 1_555
C71_5 H41_5 1_555 1_555
C72_4 C66_4 1_555 1_555
C74_4 H43_4 1_555 1_555
C75_4 C72_4 1_555 1_555
C76_7 C75_4 1_555 1_555
C77_7 C76_7 1_555 1_555
C78_4 C77_7 1_555 1_555
C79_4 C74_4 1_555 1_555
H44_4 C79_4 1_555 1_555
C67_4 C70_4 1_555 1_555
C71_5 C72_4 1_555 1_555
C74_4 C75_4 1_555 1_555
C78_4 C79_4 1_555 1_555
H39_4 C69_4 1_555 1_555
C80_4 C69_4 1_555 1_555
H45_4 C80_4 1_555 1_555
H46_6 C83_6 1_555 1_555
O24 C87_4 1_555 1_555
C86_4 C87_4 1_555 1_555
C87_4 O17_4 1_555 1_555
C89_4 C86_4 1_555 1_555
H48_4 C89_4 1_555 1_555
C96_4 C89_4 1_555 1_555
H53_4 C96_4 1_555 1_555
C102_4 C96_4 1_555 1_555
C103_4 C83_6 1_555 1_555
C102_4 C103_4 1_555 1_555
C71_6 H41_6 1_555 1_555
O20_7 C84_4 1_555 1_555
O16_4 C84_4 1_555 1_555
C84_4 C85_4 1_555 1_555
C85_4 C88_4 1_555 1_555
C88_4 H47_4 1_555 1_555
C90_4 C92_4 1_555 1_555
C91_4 C85_4 1_555 1_555
H49_4 C91_4 1_555 1_555
C92_4 C88_4 1_555 1_555
C94_4 C90_4 1_555 1_555
H52_4 C94_4 1_555 1_555
C95_4 C71_6 1_555 1_555
C97_4 H54_4 1_555 1_555
C100_4 C97_4 1_555 1_555
H55_4 C100_4 1_555 1_555
C90_4 C95_4 1_555 1_555
C91_4 C94_4 1_555 1_555
C95_4 C98_4 1_555 1_555
C97_4 C98_4 1_555 1_555
C99_4 C100_4 1_555 1_555
C22_8 C44_4 1_555 1_555
C23_8 C22_8 1_555 1_555
C45_4 C23_8 1_555 1_555
C76_8 C98_4 1_555 1_555
C77_8 C76_8 1_555 1_555
C99_4 C77_8 1_555 1_555

#END
