
###############################################################################
#
# This file contains modified crystal structure data generated from the
# MOF subset of the Cambridge Structural Database (CSD) v543 
# hosted by the Cambridge Crystallographic Data Centre (CCDC).
#
# This work is licensed under the Creative Commons
# Attribution-NonCommercial-ShareAlike 4.0 International License.
# To view a copy of this license, visit
# http://creativecommons.org/licenses/by-nc-sa/4.0/
# or send a letter to
# Creative Commons, PO Box 1866, Mountain View, CA 94042, USA.
#
# CIF created using the CSD Python API on 29 September 2022
# The structure has been converted into the P1 space group
# The structure has a 3D framework
# The original CSD entry YOLHAL is in the cubic crystal system
# The framework has been calculated to contain at least 10.0% void space
# The void calculation uses a probe of radius 1.32A, grid spacing 0.4
# The framework is charged, counterions have been retained in the structure
# H atom positions have been added when not included in the experimental data
# Generated hydrogen atom positions removed from atoms on special positions
#
###############################################################################

data_YOLHAL
_chemical_formula_moiety         '(C384 H3360 Cu96 N192 O544 Yb72 180+)n'
_symmetry_cell_setting           triclinic
_symmetry_space_group_name_H-M   'P 1'
_symmetry_Int_Tables_number      1
_space_group_name_Hall           'P 1'
loop_
_symmetry_equiv_pos_site_id
_symmetry_equiv_pos_as_xyz
1 x,y,z
_cell_length_a                   42.724(3)
_cell_length_b                   42.724(3)
_cell_length_c                   42.724(3)
_cell_angle_alpha                90
_cell_angle_beta                 90
_cell_angle_gamma                90
_cell_volume                     77985.8
loop_
_atom_site_label
_atom_site_type_symbol
_atom_site_fract_x
_atom_site_fract_y
_atom_site_fract_z
Yb1 Yb 0.500000 0.71544(3) 0.28456(3)
Cu1 Cu 0.36170(6) 0.63830(6) 0.19343(8)
O1 O 0.3374(5) 0.6626(5) 0.1626(5)
O2 O 0.4671(2) 0.7094(3) 0.2459(3)
C1 C 0.4159(4) 0.6782(4) 0.2136(4)
H1 H 0.421628 0.666298 0.230904
N1 N 0.3932(3) 0.6717(3) 0.1948(3)
C2 C 0.4562(6) 0.7199(5) 0.2199(5)
C3 C 0.4300(5) 0.7047(4) 0.2047(4)
O3 O 0.500000 0.7145(9) 0.3311(5)
O4 O 0.5301(9) 0.6903(5) 0.3097(5)
O5 O 0.3724(18) 0.6276(18) 0.2406(12)
O6 O 0.4671(2) 0.7459(3) 0.2094(3)
C4 C 0.4159(4) 0.7136(4) 0.1782(4)
H2 H 0.421628 0.730904 0.166298
N2 N 0.3932(3) 0.6948(3) 0.1717(3)
Cu2 Cu 0.63830(6) 0.80657(8) 0.36170(6)
O7 O 0.5329(2) 0.7541(3) 0.2906(3)
C5 C 0.5841(4) 0.7864(4) 0.3218(4)
H3 H 0.578372 0.769096 0.333702
N3 N 0.6068(3) 0.8052(3) 0.3283(3)
C6 C 0.5438(6) 0.7801(5) 0.2801(5)
C7 C 0.5700(5) 0.7953(4) 0.2953(4)
O8 O 0.500000 0.6689(5) 0.2855(9)
O9 O 0.4699(9) 0.6903(5) 0.3097(5)
O10 O 0.6276(18) 0.7594(12) 0.3724(18)
O11 O 0.5329(2) 0.7906(3) 0.2541(3)
C8 C 0.5841(4) 0.8218(4) 0.2864(4)
H4 H 0.578372 0.833702 0.269096
N4 N 0.6068(3) 0.8283(3) 0.3052(3)
Yb2 Yb 0.500000 0.78456(3) 0.21544(3)
Cu3 Cu 0.36170(6) 0.86170(6) 0.30657(8)
O12 O 0.3374(5) 0.8374(5) 0.3374(5)
O13 O 0.4671(2) 0.7906(3) 0.2541(3)
C9 C 0.4159(4) 0.8218(4) 0.2864(4)
H5 H 0.421628 0.833702 0.269096
N5 N 0.3932(3) 0.8283(3) 0.3052(3)
C10 C 0.4562(6) 0.7801(5) 0.2801(5)
C11 C 0.4300(5) 0.7953(4) 0.2953(4)
O14 O 0.500000 0.7855(9) 0.1689(5)
O15 O 0.5301(9) 0.8097(5) 0.1903(5)
O16 O 0.3724(18) 0.8724(18) 0.2594(12)
O17 O 0.4671(2) 0.7541(3) 0.2906(3)
C12 C 0.4159(4) 0.7864(4) 0.3218(4)
H6 H 0.421628 0.769096 0.333702
N6 N 0.3932(3) 0.8052(3) 0.3283(3)
Cu4 Cu 0.63830(6) 0.69343(8) 0.13830(6)
O18 O 0.5329(2) 0.7459(3) 0.2094(3)
C13 C 0.5841(4) 0.7136(4) 0.1782(4)
H7 H 0.578372 0.730904 0.166298
N7 N 0.6068(3) 0.6948(3) 0.1717(3)
C14 C 0.5438(6) 0.7199(5) 0.2199(5)
C15 C 0.5700(5) 0.7047(4) 0.2047(4)
O19 O 0.500000 0.8311(5) 0.2145(9)
O20 O 0.4699(9) 0.8097(5) 0.1903(5)
O21 O 0.6276(18) 0.7406(12) 0.1276(18)
O22 O 0.5329(2) 0.7094(3) 0.2459(3)
C16 C 0.5841(4) 0.6782(4) 0.2136(4)
H8 H 0.578372 0.666298 0.230904
N8 N 0.6068(3) 0.6717(3) 0.1948(3)
Cu5 Cu 0.63830(6) 0.63830(6) 0.19343(8)
O23 O 0.6276(18) 0.6276(18) 0.2406(12)
Yb3 Yb 0.28456(3) 0.500000 0.28456(3)
O24 O 0.2906(3) 0.5329(2) 0.2459(3)
C17 C 0.3218(4) 0.5841(4) 0.2136(4)
H9 H 0.333702 0.578372 0.230904
N9 N 0.3283(3) 0.6068(3) 0.1948(3)
C18 C 0.2801(5) 0.5438(6) 0.2199(5)
C19 C 0.2953(4) 0.5700(5) 0.2047(4)
O25 O 0.2855(9) 0.500000 0.3311(5)
O26 O 0.3097(5) 0.4699(9) 0.3097(5)
O27 O 0.2541(3) 0.5329(2) 0.2094(3)
C20 C 0.2864(4) 0.5841(4) 0.1782(4)
H10 H 0.269096 0.578372 0.166298
N10 N 0.3052(3) 0.6068(3) 0.1717(3)
Cu6 Cu 0.36170(6) 0.80657(8) 0.36170(6)
O28 O 0.3724(18) 0.7594(12) 0.3724(18)
O29 O 0.7094(3) 0.7541(3) 0.4671(2)
C21 C 0.6782(4) 0.7864(4) 0.4159(4)
H11 H 0.666298 0.769096 0.421628
N11 N 0.6717(3) 0.8052(3) 0.3932(3)
C22 C 0.7199(5) 0.7801(5) 0.4562(6)
C23 C 0.7047(4) 0.7953(4) 0.4300(5)
O30 O 0.7459(3) 0.7906(3) 0.4671(2)
C24 C 0.7136(4) 0.8218(4) 0.4159(4)
H12 H 0.730904 0.833702 0.421628
N12 N 0.6948(3) 0.8283(3) 0.3932(3)
O31 O 0.3311(5) 0.500000 0.2855(9)
O32 O 0.3097(5) 0.5301(9) 0.3097(5)
Yb4 Yb 0.71544(3) 0.71544(3) 0.500000
Yb5 Yb 0.21544(3) 0.500000 0.21544(3)
Yb6 Yb 0.78456(3) 0.78456(3) 0.500000
Cu7 Cu 0.36170(6) 0.69343(8) 0.13830(6)
Cu8 Cu 0.63830(6) 0.86170(6) 0.30657(8)
Cu9 Cu 0.30657(8) 0.63830(6) 0.13830(6)
Cu10 Cu 0.30657(8) 0.86170(6) 0.36170(6)
Cu11 Cu 0.69343(8) 0.86170(6) 0.36170(6)
O33 O 0.6626(5) 0.6626(5) 0.1626(5)
O34 O 0.6626(5) 0.8374(5) 0.3374(5)
O35 O 0.2459(3) 0.5329(2) 0.2906(3)
O36 O 0.2906(3) 0.4671(2) 0.2459(3)
O37 O 0.2459(3) 0.4671(2) 0.2906(3)
N13 N 0.3283(3) 0.8052(3) 0.3932(3)
N14 N 0.6717(3) 0.6068(3) 0.1948(3)
N15 N 0.6717(3) 0.6948(3) 0.1068(3)
N16 N 0.3283(3) 0.8932(3) 0.3052(3)
Yb1_2 Yb 0.500000 0.28456(3) 0.28456(3)
Cu1_2 Cu 0.63830(6) 0.36170(6) 0.19343(8)
O1_2 O 0.6626(5) 0.3374(5) 0.1626(5)
O2_2 O 0.5329(2) 0.2906(3) 0.2459(3)
C1_2 C 0.5841(4) 0.3218(4) 0.2136(4)
H1_2 H 0.578372 0.333702 0.230904
N1_2 N 0.6068(3) 0.3283(3) 0.1948(3)
C2_2 C 0.5438(6) 0.2801(5) 0.2199(5)
C3_2 C 0.5700(5) 0.2953(4) 0.2047(4)
O3_2 O 0.500000 0.2855(9) 0.3311(5)
O4_2 O 0.4699(9) 0.3097(5) 0.3097(5)
O5_2 O 0.6276(18) 0.3724(18) 0.2406(12)
O6_2 O 0.5329(2) 0.2541(3) 0.2094(3)
C4_2 C 0.5841(4) 0.2864(4) 0.1782(4)
H2_2 H 0.578372 0.269096 0.166298
N2_2 N 0.6068(3) 0.3052(3) 0.1717(3)
Cu2_2 Cu 0.36170(6) 0.19343(8) 0.36170(6)
O7_2 O 0.4671(2) 0.2459(3) 0.2906(3)
C5_2 C 0.4159(4) 0.2136(4) 0.3218(4)
H3_2 H 0.421628 0.230904 0.333702
N3_2 N 0.3932(3) 0.1948(3) 0.3283(3)
C6_2 C 0.4562(6) 0.2199(5) 0.2801(5)
C7_2 C 0.4300(5) 0.2047(4) 0.2953(4)
O8_2 O 0.500000 0.3311(5) 0.2855(9)
O9_2 O 0.5301(9) 0.3097(5) 0.3097(5)
O10_2 O 0.3724(18) 0.2406(12) 0.3724(18)
O11_2 O 0.4671(2) 0.2094(3) 0.2541(3)
C8_2 C 0.4159(4) 0.1782(4) 0.2864(4)
H4_2 H 0.421628 0.166298 0.269096
N4_2 N 0.3932(3) 0.1717(3) 0.3052(3)
Yb2_2 Yb 0.500000 0.21544(3) 0.21544(3)
Cu3_2 Cu 0.63830(6) 0.13830(6) 0.30657(8)
O12_2 O 0.6626(5) 0.1626(5) 0.3374(5)
O13_2 O 0.5329(2) 0.2094(3) 0.2541(3)
C9_2 C 0.5841(4) 0.1782(4) 0.2864(4)
H5_2 H 0.578372 0.166298 0.269096
N5_2 N 0.6068(3) 0.1717(3) 0.3052(3)
C10_2 C 0.5438(6) 0.2199(5) 0.2801(5)
C11_2 C 0.5700(5) 0.2047(4) 0.2953(4)
O14_2 O 0.500000 0.2145(9) 0.1689(5)
O15_2 O 0.4699(9) 0.1903(5) 0.1903(5)
O16_2 O 0.6276(18) 0.1276(18) 0.2594(12)
O17_2 O 0.5329(2) 0.2459(3) 0.2906(3)
C12_2 C 0.5841(4) 0.2136(4) 0.3218(4)
H6_2 H 0.578372 0.230904 0.333702
N6_2 N 0.6068(3) 0.1948(3) 0.3283(3)
Cu4_2 Cu 0.36170(6) 0.30657(8) 0.13830(6)
O18_2 O 0.4671(2) 0.2541(3) 0.2094(3)
C13_2 C 0.4159(4) 0.2864(4) 0.1782(4)
H7_2 H 0.421628 0.269096 0.166298
N7_2 N 0.3932(3) 0.3052(3) 0.1717(3)
C14_2 C 0.4562(6) 0.2801(5) 0.2199(5)
C15_2 C 0.4300(5) 0.2953(4) 0.2047(4)
O19_2 O 0.500000 0.1689(5) 0.2145(9)
O20_2 O 0.5301(9) 0.1903(5) 0.1903(5)
O21_2 O 0.3724(18) 0.2594(12) 0.1276(18)
O22_2 O 0.4671(2) 0.2906(3) 0.2459(3)
C16_2 C 0.4159(4) 0.3218(4) 0.2136(4)
H8_2 H 0.421628 0.333702 0.230904
N8_2 N 0.3932(3) 0.3283(3) 0.1948(3)
Cu5_2 Cu 0.36170(6) 0.36170(6) 0.19343(8)
O23_2 O 0.3724(18) 0.3724(18) 0.2406(12)
Yb3_2 Yb 0.71544(3) 0.500000 0.28456(3)
O24_2 O 0.7094(3) 0.4671(2) 0.2459(3)
C17_2 C 0.6782(4) 0.4159(4) 0.2136(4)
H9_2 H 0.666298 0.421628 0.230904
N9_2 N 0.6717(3) 0.3932(3) 0.1948(3)
C18_2 C 0.7199(5) 0.4562(6) 0.2199(5)
C19_2 C 0.7047(4) 0.4300(5) 0.2047(4)
O25_2 O 0.7145(9) 0.500000 0.3311(5)
O26_2 O 0.6903(5) 0.5301(9) 0.3097(5)
O27_2 O 0.7459(3) 0.4671(2) 0.2094(3)
C20_2 C 0.7136(4) 0.4159(4) 0.1782(4)
H10_2 H 0.730904 0.421628 0.166298
N10_2 N 0.6948(3) 0.3932(3) 0.1717(3)
Cu6_2 Cu 0.63830(6) 0.19343(8) 0.36170(6)
O28_2 O 0.6276(18) 0.2406(12) 0.3724(18)
O29_2 O 0.2906(3) 0.2459(3) 0.4671(2)
C21_2 C 0.3218(4) 0.2136(4) 0.4159(4)
H11_2 H 0.333702 0.230904 0.421628
N11_2 N 0.3283(3) 0.1948(3) 0.3932(3)
C22_2 C 0.2801(5) 0.2199(5) 0.4562(6)
C23_2 C 0.2953(4) 0.2047(4) 0.4300(5)
O30_2 O 0.2541(3) 0.2094(3) 0.4671(2)
C24_2 C 0.2864(4) 0.1782(4) 0.4159(4)
H12_2 H 0.269096 0.166298 0.421628
N12_2 N 0.3052(3) 0.1717(3) 0.3932(3)
O31_2 O 0.6689(5) 0.500000 0.2855(9)
O32_2 O 0.6903(5) 0.4699(9) 0.3097(5)
Yb4_2 Yb 0.28456(3) 0.28456(3) 0.500000
Yb5_2 Yb 0.78456(3) 0.500000 0.21544(3)
Yb6_2 Yb 0.21544(3) 0.21544(3) 0.500000
Cu7_2 Cu 0.63830(6) 0.30657(8) 0.13830(6)
Cu8_2 Cu 0.36170(6) 0.13830(6) 0.30657(8)
Cu9_2 Cu 0.69343(8) 0.36170(6) 0.13830(6)
Cu10_2 Cu 0.69343(8) 0.13830(6) 0.36170(6)
Cu11_2 Cu 0.30657(8) 0.13830(6) 0.36170(6)
O33_2 O 0.3374(5) 0.3374(5) 0.1626(5)
O34_2 O 0.3374(5) 0.1626(5) 0.3374(5)
O35_2 O 0.7541(3) 0.4671(2) 0.2906(3)
O36_2 O 0.7094(3) 0.5329(2) 0.2459(3)
O37_2 O 0.7541(3) 0.5329(2) 0.2906(3)
N13_2 N 0.6717(3) 0.1948(3) 0.3932(3)
N14_2 N 0.3283(3) 0.3932(3) 0.1948(3)
N15_2 N 0.3283(3) 0.3052(3) 0.1068(3)
N16_2 N 0.6717(3) 0.1068(3) 0.3052(3)
Yb1_3 Yb 0.500000 0.71544(3) 0.71544(3)
Cu1_3 Cu 0.63830(6) 0.63830(6) 0.80657(8)
O1_3 O 0.6626(5) 0.6626(5) 0.8374(5)
O2_3 O 0.5329(2) 0.7094(3) 0.7541(3)
C1_3 C 0.5841(4) 0.6782(4) 0.7864(4)
H1_3 H 0.578372 0.666298 0.769096
N1_3 N 0.6068(3) 0.6717(3) 0.8052(3)
C2_3 C 0.5438(6) 0.7199(5) 0.7801(5)
C3_3 C 0.5700(5) 0.7047(4) 0.7953(4)
O3_3 O 0.500000 0.7145(9) 0.6689(5)
O4_3 O 0.4699(9) 0.6903(5) 0.6903(5)
O5_3 O 0.6276(18) 0.6276(18) 0.7594(12)
O6_3 O 0.5329(2) 0.7459(3) 0.7906(3)
C4_3 C 0.5841(4) 0.7136(4) 0.8218(4)
H2_3 H 0.578372 0.730904 0.833702
N2_3 N 0.6068(3) 0.6948(3) 0.8283(3)
Cu2_3 Cu 0.36170(6) 0.80657(8) 0.63830(6)
O7_3 O 0.4671(2) 0.7541(3) 0.7094(3)
C5_3 C 0.4159(4) 0.7864(4) 0.6782(4)
H3_3 H 0.421628 0.769096 0.666298
N3_3 N 0.3932(3) 0.8052(3) 0.6717(3)
C6_3 C 0.4562(6) 0.7801(5) 0.7199(5)
C7_3 C 0.4300(5) 0.7953(4) 0.7047(4)
O8_3 O 0.500000 0.6689(5) 0.7145(9)
O9_3 O 0.5301(9) 0.6903(5) 0.6903(5)
O10_3 O 0.3724(18) 0.7594(12) 0.6276(18)
O11_3 O 0.4671(2) 0.7906(3) 0.7459(3)
C8_3 C 0.4159(4) 0.8218(4) 0.7136(4)
H4_3 H 0.421628 0.833702 0.730904
N4_3 N 0.3932(3) 0.8283(3) 0.6948(3)
Yb2_3 Yb 0.500000 0.78456(3) 0.78456(3)
Cu3_3 Cu 0.63830(6) 0.86170(6) 0.69343(8)
O12_3 O 0.6626(5) 0.8374(5) 0.6626(5)
O13_3 O 0.5329(2) 0.7906(3) 0.7459(3)
C9_3 C 0.5841(4) 0.8218(4) 0.7136(4)
H5_3 H 0.578372 0.833702 0.730904
N5_3 N 0.6068(3) 0.8283(3) 0.6948(3)
C10_3 C 0.5438(6) 0.7801(5) 0.7199(5)
C11_3 C 0.5700(5) 0.7953(4) 0.7047(4)
O14_3 O 0.500000 0.7855(9) 0.8311(5)
O15_3 O 0.4699(9) 0.8097(5) 0.8097(5)
O16_3 O 0.6276(18) 0.8724(18) 0.7406(12)
O17_3 O 0.5329(2) 0.7541(3) 0.7094(3)
C12_3 C 0.5841(4) 0.7864(4) 0.6782(4)
H6_3 H 0.578372 0.769096 0.666298
N6_3 N 0.6068(3) 0.8052(3) 0.6717(3)
Cu4_3 Cu 0.36170(6) 0.69343(8) 0.86170(6)
O18_3 O 0.4671(2) 0.7459(3) 0.7906(3)
C13_3 C 0.4159(4) 0.7136(4) 0.8218(4)
H7_3 H 0.421628 0.730904 0.833702
N7_3 N 0.3932(3) 0.6948(3) 0.8283(3)
C14_3 C 0.4562(6) 0.7199(5) 0.7801(5)
C15_3 C 0.4300(5) 0.7047(4) 0.7953(4)
O19_3 O 0.500000 0.8311(5) 0.7855(9)
O20_3 O 0.5301(9) 0.8097(5) 0.8097(5)
O21_3 O 0.3724(18) 0.7406(12) 0.8724(18)
O22_3 O 0.4671(2) 0.7094(3) 0.7541(3)
C16_3 C 0.4159(4) 0.6782(4) 0.7864(4)
H8_3 H 0.421628 0.666298 0.769096
N8_3 N 0.3932(3) 0.6717(3) 0.8052(3)
Cu5_3 Cu 0.36170(6) 0.63830(6) 0.80657(8)
O23_3 O 0.3724(18) 0.6276(18) 0.7594(12)
Yb3_3 Yb 0.71544(3) 0.500000 0.71544(3)
O24_3 O 0.7094(3) 0.5329(2) 0.7541(3)
C17_3 C 0.6782(4) 0.5841(4) 0.7864(4)
H9_3 H 0.666298 0.578372 0.769096
N9_3 N 0.6717(3) 0.6068(3) 0.8052(3)
C18_3 C 0.7199(5) 0.5438(6) 0.7801(5)
C19_3 C 0.7047(4) 0.5700(5) 0.7953(4)
O25_3 O 0.7145(9) 0.500000 0.6689(5)
O26_3 O 0.6903(5) 0.4699(9) 0.6903(5)
O27_3 O 0.7459(3) 0.5329(2) 0.7906(3)
C20_3 C 0.7136(4) 0.5841(4) 0.8218(4)
H10_3 H 0.730904 0.578372 0.833702
N10_3 N 0.6948(3) 0.6068(3) 0.8283(3)
Cu6_3 Cu 0.63830(6) 0.80657(8) 0.63830(6)
O28_3 O 0.6276(18) 0.7594(12) 0.6276(18)
O29_3 O 0.2906(3) 0.7541(3) 0.5329(2)
C21_3 C 0.3218(4) 0.7864(4) 0.5841(4)
H11_3 H 0.333702 0.769096 0.578372
N11_3 N 0.3283(3) 0.8052(3) 0.6068(3)
C22_3 C 0.2801(5) 0.7801(5) 0.5438(6)
C23_3 C 0.2953(4) 0.7953(4) 0.5700(5)
O30_3 O 0.2541(3) 0.7906(3) 0.5329(2)
C24_3 C 0.2864(4) 0.8218(4) 0.5841(4)
H12_3 H 0.269096 0.833702 0.578372
N12_3 N 0.3052(3) 0.8283(3) 0.6068(3)
O31_3 O 0.6689(5) 0.500000 0.7145(9)
O32_3 O 0.6903(5) 0.5301(9) 0.6903(5)
Yb4_3 Yb 0.28456(3) 0.71544(3) 0.500000
Yb5_3 Yb 0.78456(3) 0.500000 0.78456(3)
Yb6_3 Yb 0.21544(3) 0.78456(3) 0.500000
Cu7_3 Cu 0.63830(6) 0.69343(8) 0.86170(6)
Cu8_3 Cu 0.36170(6) 0.86170(6) 0.69343(8)
Cu9_3 Cu 0.69343(8) 0.63830(6) 0.86170(6)
Cu10_3 Cu 0.69343(8) 0.86170(6) 0.63830(6)
Cu11_3 Cu 0.30657(8) 0.86170(6) 0.63830(6)
O33_3 O 0.3374(5) 0.6626(5) 0.8374(5)
O34_3 O 0.3374(5) 0.8374(5) 0.6626(5)
O35_3 O 0.7541(3) 0.5329(2) 0.7094(3)
O36_3 O 0.7094(3) 0.4671(2) 0.7541(3)
O37_3 O 0.7541(3) 0.4671(2) 0.7094(3)
N13_3 N 0.6717(3) 0.8052(3) 0.6068(3)
N14_3 N 0.3283(3) 0.6068(3) 0.8052(3)
N15_3 N 0.3283(3) 0.6948(3) 0.8932(3)
N16_3 N 0.6717(3) 0.8932(3) 0.6948(3)
Yb1_4 Yb 0.500000 0.28456(3) 0.71544(3)
Cu1_4 Cu 0.36170(6) 0.36170(6) 0.80657(8)
O1_4 O 0.3374(5) 0.3374(5) 0.8374(5)
O2_4 O 0.4671(2) 0.2906(3) 0.7541(3)
C1_4 C 0.4159(4) 0.3218(4) 0.7864(4)
H1_4 H 0.421628 0.333702 0.769096
N1_4 N 0.3932(3) 0.3283(3) 0.8052(3)
C2_4 C 0.4562(6) 0.2801(5) 0.7801(5)
C3_4 C 0.4300(5) 0.2953(4) 0.7953(4)
O3_4 O 0.500000 0.2855(9) 0.6689(5)
O4_4 O 0.5301(9) 0.3097(5) 0.6903(5)
O5_4 O 0.3724(18) 0.3724(18) 0.7594(12)
O6_4 O 0.4671(2) 0.2541(3) 0.7906(3)
C4_4 C 0.4159(4) 0.2864(4) 0.8218(4)
H2_4 H 0.421628 0.269096 0.833702
N2_4 N 0.3932(3) 0.3052(3) 0.8283(3)
Cu2_4 Cu 0.63830(6) 0.19343(8) 0.63830(6)
O7_4 O 0.5329(2) 0.2459(3) 0.7094(3)
C5_4 C 0.5841(4) 0.2136(4) 0.6782(4)
H3_4 H 0.578372 0.230904 0.666298
N3_4 N 0.6068(3) 0.1948(3) 0.6717(3)
C6_4 C 0.5438(6) 0.2199(5) 0.7199(5)
C7_4 C 0.5700(5) 0.2047(4) 0.7047(4)
O8_4 O 0.500000 0.3311(5) 0.7145(9)
O9_4 O 0.4699(9) 0.3097(5) 0.6903(5)
O10_4 O 0.6276(18) 0.2406(12) 0.6276(18)
O11_4 O 0.5329(2) 0.2094(3) 0.7459(3)
C8_4 C 0.5841(4) 0.1782(4) 0.7136(4)
H4_4 H 0.578372 0.166298 0.730904
N4_4 N 0.6068(3) 0.1717(3) 0.6948(3)
Yb2_4 Yb 0.500000 0.21544(3) 0.78456(3)
Cu3_4 Cu 0.36170(6) 0.13830(6) 0.69343(8)
O12_4 O 0.3374(5) 0.1626(5) 0.6626(5)
O13_4 O 0.4671(2) 0.2094(3) 0.7459(3)
C9_4 C 0.4159(4) 0.1782(4) 0.7136(4)
H5_4 H 0.421628 0.166298 0.730904
N5_4 N 0.3932(3) 0.1717(3) 0.6948(3)
C10_4 C 0.4562(6) 0.2199(5) 0.7199(5)
C11_4 C 0.4300(5) 0.2047(4) 0.7047(4)
O14_4 O 0.500000 0.2145(9) 0.8311(5)
O15_4 O 0.5301(9) 0.1903(5) 0.8097(5)
O16_4 O 0.3724(18) 0.1276(18) 0.7406(12)
O17_4 O 0.4671(2) 0.2459(3) 0.7094(3)
C12_4 C 0.4159(4) 0.2136(4) 0.6782(4)
H6_4 H 0.421628 0.230904 0.666298
N6_4 N 0.3932(3) 0.1948(3) 0.6717(3)
Cu4_4 Cu 0.63830(6) 0.30657(8) 0.86170(6)
O18_4 O 0.5329(2) 0.2541(3) 0.7906(3)
C13_4 C 0.5841(4) 0.2864(4) 0.8218(4)
H7_4 H 0.578372 0.269096 0.833702
N7_4 N 0.6068(3) 0.3052(3) 0.8283(3)
C14_4 C 0.5438(6) 0.2801(5) 0.7801(5)
C15_4 C 0.5700(5) 0.2953(4) 0.7953(4)
O19_4 O 0.500000 0.1689(5) 0.7855(9)
O20_4 O 0.4699(9) 0.1903(5) 0.8097(5)
O21_4 O 0.6276(18) 0.2594(12) 0.8724(18)
O22_4 O 0.5329(2) 0.2906(3) 0.7541(3)
C16_4 C 0.5841(4) 0.3218(4) 0.7864(4)
H8_4 H 0.578372 0.333702 0.769096
N8_4 N 0.6068(3) 0.3283(3) 0.8052(3)
Cu5_4 Cu 0.63830(6) 0.36170(6) 0.80657(8)
O23_4 O 0.6276(18) 0.3724(18) 0.7594(12)
Yb3_4 Yb 0.28456(3) 0.500000 0.71544(3)
O24_4 O 0.2906(3) 0.4671(2) 0.7541(3)
C17_4 C 0.3218(4) 0.4159(4) 0.7864(4)
H9_4 H 0.333702 0.421628 0.769096
N9_4 N 0.3283(3) 0.3932(3) 0.8052(3)
C18_4 C 0.2801(5) 0.4562(6) 0.7801(5)
C19_4 C 0.2953(4) 0.4300(5) 0.7953(4)
O25_4 O 0.2855(9) 0.500000 0.6689(5)
O26_4 O 0.3097(5) 0.5301(9) 0.6903(5)
O27_4 O 0.2541(3) 0.4671(2) 0.7906(3)
C20_4 C 0.2864(4) 0.4159(4) 0.8218(4)
H10_4 H 0.269096 0.421628 0.833702
N10_4 N 0.3052(3) 0.3932(3) 0.8283(3)
Cu6_4 Cu 0.36170(6) 0.19343(8) 0.63830(6)
O28_4 O 0.3724(18) 0.2406(12) 0.6276(18)
O29_4 O 0.7094(3) 0.2459(3) 0.5329(2)
C21_4 C 0.6782(4) 0.2136(4) 0.5841(4)
H11_4 H 0.666298 0.230904 0.578372
N11_4 N 0.6717(3) 0.1948(3) 0.6068(3)
C22_4 C 0.7199(5) 0.2199(5) 0.5438(6)
C23_4 C 0.7047(4) 0.2047(4) 0.5700(5)
O30_4 O 0.7459(3) 0.2094(3) 0.5329(2)
C24_4 C 0.7136(4) 0.1782(4) 0.5841(4)
H12_4 H 0.730904 0.166298 0.578372
N12_4 N 0.6948(3) 0.1717(3) 0.6068(3)
O31_4 O 0.3311(5) 0.500000 0.7145(9)
O32_4 O 0.3097(5) 0.4699(9) 0.6903(5)
Yb4_4 Yb 0.71544(3) 0.28456(3) 0.500000
Yb5_4 Yb 0.21544(3) 0.500000 0.78456(3)
Yb6_4 Yb 0.78456(3) 0.21544(3) 0.500000
Cu7_4 Cu 0.36170(6) 0.30657(8) 0.86170(6)
Cu8_4 Cu 0.63830(6) 0.13830(6) 0.69343(8)
Cu9_4 Cu 0.30657(8) 0.36170(6) 0.86170(6)
Cu10_4 Cu 0.30657(8) 0.13830(6) 0.63830(6)
Cu11_4 Cu 0.69343(8) 0.13830(6) 0.63830(6)
O33_4 O 0.6626(5) 0.3374(5) 0.8374(5)
O34_4 O 0.6626(5) 0.1626(5) 0.6626(5)
O35_4 O 0.2459(3) 0.4671(2) 0.7094(3)
O36_4 O 0.2906(3) 0.5329(2) 0.7541(3)
O37_4 O 0.2459(3) 0.5329(2) 0.7094(3)
N13_4 N 0.3283(3) 0.1948(3) 0.6068(3)
N14_4 N 0.6717(3) 0.3932(3) 0.8052(3)
N15_4 N 0.6717(3) 0.3052(3) 0.8932(3)
N16_4 N 0.3283(3) 0.1068(3) 0.6948(3)
Cu1_5 Cu 0.19343(8) 0.36170(6) 0.63830(6)
O1_5 O 0.1626(5) 0.3374(5) 0.6626(5)
C1_5 C 0.2136(4) 0.4159(4) 0.6782(4)
H1_5 H 0.230904 0.421628 0.666298
N1_5 N 0.1948(3) 0.3932(3) 0.6717(3)
C2_5 C 0.2199(5) 0.4562(6) 0.7199(5)
C3_5 C 0.2047(4) 0.4300(5) 0.7047(4)
O5_5 O 0.2406(12) 0.3724(18) 0.6276(18)
O6_5 O 0.2094(3) 0.4671(2) 0.7459(3)
C4_5 C 0.1782(4) 0.4159(4) 0.7136(4)
H2_5 H 0.166298 0.421628 0.730904
N2_5 N 0.1717(3) 0.3932(3) 0.6948(3)
C5_5 C 0.3218(4) 0.5841(4) 0.7864(4)
H3_5 H 0.333702 0.578372 0.769096
C6_5 C 0.2801(5) 0.5438(6) 0.7801(5)
C7_5 C 0.2953(4) 0.5700(5) 0.7953(4)
O11_5 O 0.2541(3) 0.5329(2) 0.7906(3)
C8_5 C 0.2864(4) 0.5841(4) 0.8218(4)
H4_5 H 0.269096 0.578372 0.833702
N4_5 N 0.3052(3) 0.6068(3) 0.8283(3)
O14_5 O 0.1689(5) 0.500000 0.7855(9)
O15_5 O 0.1903(5) 0.5301(9) 0.8097(5)
O16_5 O 0.2594(12) 0.3724(18) 0.8724(18)
Cu4_5 Cu 0.13830(6) 0.63830(6) 0.69343(8)
O18_5 O 0.2094(3) 0.5329(2) 0.7459(3)
C13_5 C 0.1782(4) 0.5841(4) 0.7136(4)
H7_5 H 0.166298 0.578372 0.730904
N7_5 N 0.1717(3) 0.6068(3) 0.6948(3)
C14_5 C 0.2199(5) 0.5438(6) 0.7199(5)
C15_5 C 0.2047(4) 0.5700(5) 0.7047(4)
O19_5 O 0.2145(9) 0.500000 0.8311(5)
O20_5 O 0.1903(5) 0.4699(9) 0.8097(5)
O21_5 O 0.1276(18) 0.6276(18) 0.7406(12)
C16_5 C 0.2136(4) 0.5841(4) 0.6782(4)
H8_5 H 0.230904 0.578372 0.666298
N8_5 N 0.1948(3) 0.6068(3) 0.6717(3)
Cu5_5 Cu 0.19343(8) 0.63830(6) 0.63830(6)
O23_5 O 0.2406(12) 0.6276(18) 0.6276(18)
O24_5 O 0.2459(3) 0.2906(3) 0.5329(2)
C17_5 C 0.2136(4) 0.3218(4) 0.5841(4)
H9_5 H 0.230904 0.333702 0.578372
N9_5 N 0.1948(3) 0.3283(3) 0.6068(3)
C18_5 C 0.2199(5) 0.2801(5) 0.5438(6)
C19_5 C 0.2047(4) 0.2953(4) 0.5700(5)
O25_5 O 0.3311(5) 0.2855(9) 0.500000
O26_5 O 0.3097(5) 0.3097(5) 0.4699(9)
O27_5 O 0.2094(3) 0.2541(3) 0.5329(2)
C20_5 C 0.1782(4) 0.2864(4) 0.5841(4)
H10_5 H 0.166298 0.269096 0.578372
N10_5 N 0.1717(3) 0.3052(3) 0.6068(3)
O31_5 O 0.2855(9) 0.3311(5) 0.500000
O32_5 O 0.3097(5) 0.3097(5) 0.5301(9)
Cu7_5 Cu 0.13830(6) 0.36170(6) 0.69343(8)
Cu8_5 Cu 0.30657(8) 0.63830(6) 0.86170(6)
Cu9_5 Cu 0.13830(6) 0.30657(8) 0.63830(6)
O33_5 O 0.1626(5) 0.6626(5) 0.6626(5)
O35_5 O 0.2906(3) 0.2459(3) 0.5329(2)
O36_5 O 0.2459(3) 0.2906(3) 0.4671(2)
N14_5 N 0.1948(3) 0.6717(3) 0.6068(3)
N15_5 N 0.1068(3) 0.6717(3) 0.6948(3)
N16_5 N 0.3052(3) 0.3283(3) 0.8932(3)
Cu1_6 Cu 0.19343(8) 0.63830(6) 0.36170(6)
O1_6 O 0.1626(5) 0.6626(5) 0.3374(5)
C1_6 C 0.2136(4) 0.5841(4) 0.3218(4)
H1_6 H 0.230904 0.578372 0.333702
N1_6 N 0.1948(3) 0.6068(3) 0.3283(3)
C2_6 C 0.2199(5) 0.5438(6) 0.2801(5)
C3_6 C 0.2047(4) 0.5700(5) 0.2953(4)
O5_6 O 0.2406(12) 0.6276(18) 0.3724(18)
O6_6 O 0.2094(3) 0.5329(2) 0.2541(3)
C4_6 C 0.1782(4) 0.5841(4) 0.2864(4)
H2_6 H 0.166298 0.578372 0.269096
N2_6 N 0.1717(3) 0.6068(3) 0.3052(3)
C5_6 C 0.3218(4) 0.4159(4) 0.2136(4)
H3_6 H 0.333702 0.421628 0.230904
C6_6 C 0.2801(5) 0.4562(6) 0.2199(5)
C7_6 C 0.2953(4) 0.4300(5) 0.2047(4)
O11_6 O 0.2541(3) 0.4671(2) 0.2094(3)
C8_6 C 0.2864(4) 0.4159(4) 0.1782(4)
H4_6 H 0.269096 0.421628 0.166298
N4_6 N 0.3052(3) 0.3932(3) 0.1717(3)
O14_6 O 0.1689(5) 0.500000 0.2145(9)
O15_6 O 0.1903(5) 0.4699(9) 0.1903(5)
O16_6 O 0.2594(12) 0.6276(18) 0.1276(18)
Cu4_6 Cu 0.13830(6) 0.36170(6) 0.30657(8)
O18_6 O 0.2094(3) 0.4671(2) 0.2541(3)
C13_6 C 0.1782(4) 0.4159(4) 0.2864(4)
H7_6 H 0.166298 0.421628 0.269096
N7_6 N 0.1717(3) 0.3932(3) 0.3052(3)
C14_6 C 0.2199(5) 0.4562(6) 0.2801(5)
C15_6 C 0.2047(4) 0.4300(5) 0.2953(4)
O19_6 O 0.2145(9) 0.500000 0.1689(5)
O20_6 O 0.1903(5) 0.5301(9) 0.1903(5)
O21_6 O 0.1276(18) 0.3724(18) 0.2594(12)
C16_6 C 0.2136(4) 0.4159(4) 0.3218(4)
H8_6 H 0.230904 0.421628 0.333702
N8_6 N 0.1948(3) 0.3932(3) 0.3283(3)
Cu5_6 Cu 0.19343(8) 0.36170(6) 0.36170(6)
O23_6 O 0.2406(12) 0.3724(18) 0.3724(18)
O24_6 O 0.2459(3) 0.7094(3) 0.4671(2)
C17_6 C 0.2136(4) 0.6782(4) 0.4159(4)
H9_6 H 0.230904 0.666298 0.421628
N9_6 N 0.1948(3) 0.6717(3) 0.3932(3)
C18_6 C 0.2199(5) 0.7199(5) 0.4562(6)
C19_6 C 0.2047(4) 0.7047(4) 0.4300(5)
O25_6 O 0.3311(5) 0.7145(9) 0.500000
O26_6 O 0.3097(5) 0.6903(5) 0.5301(9)
O27_6 O 0.2094(3) 0.7459(3) 0.4671(2)
C20_6 C 0.1782(4) 0.7136(4) 0.4159(4)
H10_6 H 0.166298 0.730904 0.421628
N10_6 N 0.1717(3) 0.6948(3) 0.3932(3)
O31_6 O 0.2855(9) 0.6689(5) 0.500000
O32_6 O 0.3097(5) 0.6903(5) 0.4699(9)
Cu7_6 Cu 0.13830(6) 0.63830(6) 0.30657(8)
Cu8_6 Cu 0.30657(8) 0.36170(6) 0.13830(6)
Cu9_6 Cu 0.13830(6) 0.69343(8) 0.36170(6)
O33_6 O 0.1626(5) 0.3374(5) 0.3374(5)
O35_6 O 0.2906(3) 0.7541(3) 0.4671(2)
O36_6 O 0.2459(3) 0.7094(3) 0.5329(2)
N14_6 N 0.1948(3) 0.3283(3) 0.3932(3)
N15_6 N 0.1068(3) 0.3283(3) 0.3052(3)
N16_6 N 0.3052(3) 0.6717(3) 0.1068(3)
Cu1_7 Cu 0.80657(8) 0.63830(6) 0.63830(6)
O1_7 O 0.8374(5) 0.6626(5) 0.6626(5)
C1_7 C 0.7864(4) 0.5841(4) 0.6782(4)
H1_7 H 0.769096 0.578372 0.666298
N1_7 N 0.8052(3) 0.6068(3) 0.6717(3)
C2_7 C 0.7801(5) 0.5438(6) 0.7199(5)
C3_7 C 0.7953(4) 0.5700(5) 0.7047(4)
O5_7 O 0.7594(12) 0.6276(18) 0.6276(18)
O6_7 O 0.7906(3) 0.5329(2) 0.7459(3)
C4_7 C 0.8218(4) 0.5841(4) 0.7136(4)
H2_7 H 0.833702 0.578372 0.730904
N2_7 N 0.8283(3) 0.6068(3) 0.6948(3)
C5_7 C 0.6782(4) 0.4159(4) 0.7864(4)
H3_7 H 0.666298 0.421628 0.769096
C6_7 C 0.7199(5) 0.4562(6) 0.7801(5)
C7_7 C 0.7047(4) 0.4300(5) 0.7953(4)
O11_7 O 0.7459(3) 0.4671(2) 0.7906(3)
C8_7 C 0.7136(4) 0.4159(4) 0.8218(4)
H4_7 H 0.730904 0.421628 0.833702
N4_7 N 0.6948(3) 0.3932(3) 0.8283(3)
O14_7 O 0.8311(5) 0.500000 0.7855(9)
O15_7 O 0.8097(5) 0.4699(9) 0.8097(5)
O16_7 O 0.7406(12) 0.6276(18) 0.8724(18)
Cu4_7 Cu 0.86170(6) 0.36170(6) 0.69343(8)
O18_7 O 0.7906(3) 0.4671(2) 0.7459(3)
C13_7 C 0.8218(4) 0.4159(4) 0.7136(4)
H7_7 H 0.833702 0.421628 0.730904
N7_7 N 0.8283(3) 0.3932(3) 0.6948(3)
C14_7 C 0.7801(5) 0.4562(6) 0.7199(5)
C15_7 C 0.7953(4) 0.4300(5) 0.7047(4)
O19_7 O 0.7855(9) 0.500000 0.8311(5)
O20_7 O 0.8097(5) 0.5301(9) 0.8097(5)
O21_7 O 0.8724(18) 0.3724(18) 0.7406(12)
C16_7 C 0.7864(4) 0.4159(4) 0.6782(4)
H8_7 H 0.769096 0.421628 0.666298
N8_7 N 0.8052(3) 0.3932(3) 0.6717(3)
Cu5_7 Cu 0.80657(8) 0.36170(6) 0.63830(6)
O23_7 O 0.7594(12) 0.3724(18) 0.6276(18)
O24_7 O 0.7541(3) 0.7094(3) 0.5329(2)
C17_7 C 0.7864(4) 0.6782(4) 0.5841(4)
H9_7 H 0.769096 0.666298 0.578372
N9_7 N 0.8052(3) 0.6717(3) 0.6068(3)
C18_7 C 0.7801(5) 0.7199(5) 0.5438(6)
C19_7 C 0.7953(4) 0.7047(4) 0.5700(5)
O25_7 O 0.6689(5) 0.7145(9) 0.500000
O26_7 O 0.6903(5) 0.6903(5) 0.4699(9)
O27_7 O 0.7906(3) 0.7459(3) 0.5329(2)
C20_7 C 0.8218(4) 0.7136(4) 0.5841(4)
H10_7 H 0.833702 0.730904 0.578372
N10_7 N 0.8283(3) 0.6948(3) 0.6068(3)
O31_7 O 0.7145(9) 0.6689(5) 0.500000
O32_7 O 0.6903(5) 0.6903(5) 0.5301(9)
Cu7_7 Cu 0.86170(6) 0.63830(6) 0.69343(8)
Cu8_7 Cu 0.69343(8) 0.36170(6) 0.86170(6)
Cu9_7 Cu 0.86170(6) 0.69343(8) 0.63830(6)
O33_7 O 0.8374(5) 0.3374(5) 0.6626(5)
O35_7 O 0.7094(3) 0.7541(3) 0.5329(2)
O36_7 O 0.7541(3) 0.7094(3) 0.4671(2)
N14_7 N 0.8052(3) 0.3283(3) 0.6068(3)
N15_7 N 0.8932(3) 0.3283(3) 0.6948(3)
N16_7 N 0.6948(3) 0.6717(3) 0.8932(3)
Cu1_8 Cu 0.80657(8) 0.36170(6) 0.36170(6)
O1_8 O 0.8374(5) 0.3374(5) 0.3374(5)
C1_8 C 0.7864(4) 0.4159(4) 0.3218(4)
H1_8 H 0.769096 0.421628 0.333702
N1_8 N 0.8052(3) 0.3932(3) 0.3283(3)
C2_8 C 0.7801(5) 0.4562(6) 0.2801(5)
C3_8 C 0.7953(4) 0.4300(5) 0.2953(4)
O5_8 O 0.7594(12) 0.3724(18) 0.3724(18)
O6_8 O 0.7906(3) 0.4671(2) 0.2541(3)
C4_8 C 0.8218(4) 0.4159(4) 0.2864(4)
H2_8 H 0.833702 0.421628 0.269096
N2_8 N 0.8283(3) 0.3932(3) 0.3052(3)
C5_8 C 0.6782(4) 0.5841(4) 0.2136(4)
H3_8 H 0.666298 0.578372 0.230904
C6_8 C 0.7199(5) 0.5438(6) 0.2199(5)
C7_8 C 0.7047(4) 0.5700(5) 0.2047(4)
O11_8 O 0.7459(3) 0.5329(2) 0.2094(3)
C8_8 C 0.7136(4) 0.5841(4) 0.1782(4)
H4_8 H 0.730904 0.578372 0.166298
N4_8 N 0.6948(3) 0.6068(3) 0.1717(3)
O14_8 O 0.8311(5) 0.500000 0.2145(9)
O15_8 O 0.8097(5) 0.5301(9) 0.1903(5)
O16_8 O 0.7406(12) 0.3724(18) 0.1276(18)
Cu4_8 Cu 0.86170(6) 0.63830(6) 0.30657(8)
O18_8 O 0.7906(3) 0.5329(2) 0.2541(3)
C13_8 C 0.8218(4) 0.5841(4) 0.2864(4)
H7_8 H 0.833702 0.578372 0.269096
N7_8 N 0.8283(3) 0.6068(3) 0.3052(3)
C14_8 C 0.7801(5) 0.5438(6) 0.2801(5)
C15_8 C 0.7953(4) 0.5700(5) 0.2953(4)
O19_8 O 0.7855(9) 0.500000 0.1689(5)
O20_8 O 0.8097(5) 0.4699(9) 0.1903(5)
O21_8 O 0.8724(18) 0.6276(18) 0.2594(12)
C16_8 C 0.7864(4) 0.5841(4) 0.3218(4)
H8_8 H 0.769096 0.578372 0.333702
N8_8 N 0.8052(3) 0.6068(3) 0.3283(3)
Cu5_8 Cu 0.80657(8) 0.63830(6) 0.36170(6)
O23_8 O 0.7594(12) 0.6276(18) 0.3724(18)
O24_8 O 0.7541(3) 0.2906(3) 0.4671(2)
C17_8 C 0.7864(4) 0.3218(4) 0.4159(4)
H9_8 H 0.769096 0.333702 0.421628
N9_8 N 0.8052(3) 0.3283(3) 0.3932(3)
C18_8 C 0.7801(5) 0.2801(5) 0.4562(6)
C19_8 C 0.7953(4) 0.2953(4) 0.4300(5)
O25_8 O 0.6689(5) 0.2855(9) 0.500000
O26_8 O 0.6903(5) 0.3097(5) 0.5301(9)
O27_8 O 0.7906(3) 0.2541(3) 0.4671(2)
C20_8 C 0.8218(4) 0.2864(4) 0.4159(4)
H10_8 H 0.833702 0.269096 0.421628
N10_8 N 0.8283(3) 0.3052(3) 0.3932(3)
O31_8 O 0.7145(9) 0.3311(5) 0.500000
O32_8 O 0.6903(5) 0.3097(5) 0.4699(9)
Cu7_8 Cu 0.86170(6) 0.36170(6) 0.30657(8)
Cu8_8 Cu 0.69343(8) 0.63830(6) 0.13830(6)
Cu9_8 Cu 0.86170(6) 0.30657(8) 0.36170(6)
O33_8 O 0.8374(5) 0.6626(5) 0.3374(5)
O35_8 O 0.7094(3) 0.2459(3) 0.4671(2)
O36_8 O 0.7541(3) 0.2906(3) 0.5329(2)
N14_8 N 0.8052(3) 0.6717(3) 0.3932(3)
N15_8 N 0.8932(3) 0.6717(3) 0.3052(3)
N16_8 N 0.6948(3) 0.3283(3) 0.1068(3)
C1_9 C 0.6782(4) 0.2136(4) 0.4159(4)
H1_9 H 0.666298 0.230904 0.421628
C2_9 C 0.7199(5) 0.2199(5) 0.4562(6)
C3_9 C 0.7047(4) 0.2047(4) 0.4300(5)
O6_9 O 0.7459(3) 0.2094(3) 0.4671(2)
C4_9 C 0.7136(4) 0.1782(4) 0.4159(4)
H2_9 H 0.730904 0.166298 0.421628
N2_9 N 0.6948(3) 0.1717(3) 0.3932(3)
C5_9 C 0.7864(4) 0.3218(4) 0.5841(4)
H3_9 H 0.769096 0.333702 0.578372
C6_9 C 0.7801(5) 0.2801(5) 0.5438(6)
C7_9 C 0.7953(4) 0.2953(4) 0.5700(5)
O11_9 O 0.7906(3) 0.2541(3) 0.5329(2)
C8_9 C 0.8218(4) 0.2864(4) 0.5841(4)
H4_9 H 0.833702 0.269096 0.578372
N4_9 N 0.8283(3) 0.3052(3) 0.6068(3)
O14_9 O 0.7855(9) 0.1689(5) 0.500000
O15_9 O 0.8097(5) 0.1903(5) 0.5301(9)
O16_9 O 0.8724(18) 0.2594(12) 0.3724(18)
O19_9 O 0.8311(5) 0.2145(9) 0.500000
O20_9 O 0.8097(5) 0.1903(5) 0.4699(9)
O21_9 O 0.7406(12) 0.1276(18) 0.6276(18)
Cu8_9 Cu 0.86170(6) 0.30657(8) 0.63830(6)
N15_9 N 0.6948(3) 0.1068(3) 0.6717(3)
N16_9 N 0.8932(3) 0.3052(3) 0.3283(3)
C1_10 C 0.3218(4) 0.2136(4) 0.5841(4)
H1_10 H 0.333702 0.230904 0.578372
C2_10 C 0.2801(5) 0.2199(5) 0.5438(6)
C3_10 C 0.2953(4) 0.2047(4) 0.5700(5)
O6_10 O 0.2541(3) 0.2094(3) 0.5329(2)
C4_10 C 0.2864(4) 0.1782(4) 0.5841(4)
H2_10 H 0.269096 0.166298 0.578372
N2_10 N 0.3052(3) 0.1717(3) 0.6068(3)
C5_10 C 0.2136(4) 0.3218(4) 0.4159(4)
H3_10 H 0.230904 0.333702 0.421628
C6_10 C 0.2199(5) 0.2801(5) 0.4562(6)
C7_10 C 0.2047(4) 0.2953(4) 0.4300(5)
O11_10 O 0.2094(3) 0.2541(3) 0.4671(2)
C8_10 C 0.1782(4) 0.2864(4) 0.4159(4)
H4_10 H 0.166298 0.269096 0.421628
N4_10 N 0.1717(3) 0.3052(3) 0.3932(3)
O14_10 O 0.2145(9) 0.1689(5) 0.500000
O15_10 O 0.1903(5) 0.1903(5) 0.4699(9)
O16_10 O 0.1276(18) 0.2594(12) 0.6276(18)
O19_10 O 0.1689(5) 0.2145(9) 0.500000
O20_10 O 0.1903(5) 0.1903(5) 0.5301(9)
O21_10 O 0.2594(12) 0.1276(18) 0.3724(18)
Cu8_10 Cu 0.13830(6) 0.30657(8) 0.36170(6)
N15_10 N 0.3052(3) 0.1068(3) 0.3283(3)
N16_10 N 0.1068(3) 0.3052(3) 0.6717(3)
C1_11 C 0.6782(4) 0.7864(4) 0.5841(4)
H1_11 H 0.666298 0.769096 0.578372
C2_11 C 0.7199(5) 0.7801(5) 0.5438(6)
C3_11 C 0.7047(4) 0.7953(4) 0.5700(5)
O6_11 O 0.7459(3) 0.7906(3) 0.5329(2)
C4_11 C 0.7136(4) 0.8218(4) 0.5841(4)
H2_11 H 0.730904 0.833702 0.578372
N2_11 N 0.6948(3) 0.8283(3) 0.6068(3)
C5_11 C 0.7864(4) 0.6782(4) 0.4159(4)
H3_11 H 0.769096 0.666298 0.421628
C6_11 C 0.7801(5) 0.7199(5) 0.4562(6)
C7_11 C 0.7953(4) 0.7047(4) 0.4300(5)
O11_11 O 0.7906(3) 0.7459(3) 0.4671(2)
C8_11 C 0.8218(4) 0.7136(4) 0.4159(4)
H4_11 H 0.833702 0.730904 0.421628
N4_11 N 0.8283(3) 0.6948(3) 0.3932(3)
O14_11 O 0.7855(9) 0.8311(5) 0.500000
O15_11 O 0.8097(5) 0.8097(5) 0.4699(9)
O16_11 O 0.8724(18) 0.7406(12) 0.6276(18)
O19_11 O 0.8311(5) 0.7855(9) 0.500000
O20_11 O 0.8097(5) 0.8097(5) 0.5301(9)
O21_11 O 0.7406(12) 0.8724(18) 0.3724(18)
Cu8_11 Cu 0.86170(6) 0.69343(8) 0.36170(6)
N15_11 N 0.6948(3) 0.8932(3) 0.3283(3)
N16_11 N 0.8932(3) 0.6948(3) 0.6717(3)
C1_12 C 0.3218(4) 0.7864(4) 0.4159(4)
H1_12 H 0.333702 0.769096 0.421628
C2_12 C 0.2801(5) 0.7801(5) 0.4562(6)
C3_12 C 0.2953(4) 0.7953(4) 0.4300(5)
O6_12 O 0.2541(3) 0.7906(3) 0.4671(2)
C4_12 C 0.2864(4) 0.8218(4) 0.4159(4)
H2_12 H 0.269096 0.833702 0.421628
N2_12 N 0.3052(3) 0.8283(3) 0.3932(3)
C5_12 C 0.2136(4) 0.6782(4) 0.5841(4)
H3_12 H 0.230904 0.666298 0.578372
C6_12 C 0.2199(5) 0.7199(5) 0.5438(6)
C7_12 C 0.2047(4) 0.7047(4) 0.5700(5)
O11_12 O 0.2094(3) 0.7459(3) 0.5329(2)
C8_12 C 0.1782(4) 0.7136(4) 0.5841(4)
H4_12 H 0.166298 0.730904 0.578372
N4_12 N 0.1717(3) 0.6948(3) 0.6068(3)
O14_12 O 0.2145(9) 0.8311(5) 0.500000
O15_12 O 0.1903(5) 0.8097(5) 0.5301(9)
O16_12 O 0.1276(18) 0.7406(12) 0.3724(18)
O19_12 O 0.1689(5) 0.7855(9) 0.500000
O20_12 O 0.1903(5) 0.8097(5) 0.4699(9)
O21_12 O 0.2594(12) 0.8724(18) 0.6276(18)
Cu8_12 Cu 0.13830(6) 0.69343(8) 0.63830(6)
N15_12 N 0.3052(3) 0.8932(3) 0.6717(3)
N16_12 N 0.1068(3) 0.6948(3) 0.3283(3)
Yb4_5 Yb 0.71544(3) 0.21544(3) 0.000000
Yb6_5 Yb 0.78456(3) 0.28456(3) 0.000000
O23_9 O 0.6276(18) 0.1276(18) 0.7406(12)
Yb3_5 Yb 0.28456(3) 0.000000 0.78456(3)
O24_9 O 0.2906(3) 0.0329(2) 0.7459(3)
C17_9 C 0.3218(4) 0.0841(4) 0.7136(4)
H9_9 H 0.333702 0.078372 0.730904
C18_9 C 0.2801(5) 0.0438(6) 0.7199(5)
C19_9 C 0.2953(4) 0.0700(5) 0.7047(4)
O25_9 O 0.2855(9) 0.000000 0.8311(5)
O27_9 O 0.2541(3) 0.0329(2) 0.7094(3)
C20_9 C 0.2864(4) 0.0841(4) 0.6782(4)
H10_9 H 0.269096 0.078372 0.666298
N10_9 N 0.3052(3) 0.1068(3) 0.6717(3)
O28_5 O 0.3724(18) 0.2594(12) 0.8724(18)
O29_5 O 0.7094(3) 0.2541(3) 0.9671(2)
C21_5 C 0.6782(4) 0.2864(4) 0.9159(4)
H11_5 H 0.666298 0.269096 0.921628
C22_5 C 0.7199(5) 0.2801(5) 0.9562(6)
C23_5 C 0.7047(4) 0.2953(4) 0.9300(5)
O30_5 O 0.7459(3) 0.2906(3) 0.9671(2)
C24_5 C 0.7136(4) 0.3218(4) 0.9159(4)
H12_5 H 0.730904 0.333702 0.921628
N12_5 N 0.6948(3) 0.3283(3) 0.8932(3)
O31_9 O 0.3311(5) 0.000000 0.7855(9)
O32_9 O 0.3097(5) 0.0301(9) 0.8097(5)
Yb4_6 Yb 0.71544(3) 0.21544(3) 1.000000
Yb5_5 Yb 0.21544(3) 0.000000 0.71544(3)
Yb6_6 Yb 0.78456(3) 0.28456(3) 1.000000
O35_9 O 0.2459(3) 0.0329(2) 0.7906(3)
N13_5 N 0.3283(3) 0.3052(3) 0.8932(3)
N14_9 N 0.6717(3) 0.1068(3) 0.6948(3)
Yb3_6 Yb 0.28456(3) 1.000000 0.78456(3)
O25_10 O 0.2855(9) 1.000000 0.8311(5)
O26_9 O 0.3097(5) 0.9699(9) 0.8097(5)
O31_10 O 0.3311(5) 1.000000 0.7855(9)
Yb5_6 Yb 0.21544(3) 1.000000 0.71544(3)
O36_9 O 0.2906(3) 0.9671(2) 0.7459(3)
O37_5 O 0.2459(3) 0.9671(2) 0.7906(3)
Yb3_7 Yb 0.71544(3) 0.000000 0.78456(3)
O25_11 O 0.7145(9) 0.000000 0.8311(5)
O26_10 O 0.6903(5) 0.0301(9) 0.8097(5)
O31_11 O 0.6689(5) 0.000000 0.7855(9)
Yb5_7 Yb 0.78456(3) 0.000000 0.71544(3)
O36_10 O 0.7094(3) 0.0329(2) 0.7459(3)
O37_6 O 0.7541(3) 0.0329(2) 0.7906(3)
Yb4_7 Yb 0.28456(3) 0.78456(3) 0.000000
Yb6_7 Yb 0.21544(3) 0.71544(3) 0.000000
O23_10 O 0.3724(18) 0.8724(18) 0.7406(12)
Yb3_8 Yb 0.71544(3) 1.000000 0.78456(3)
O24_10 O 0.7094(3) 0.9671(2) 0.7459(3)
C17_10 C 0.6782(4) 0.9159(4) 0.7136(4)
H9_10 H 0.666298 0.921628 0.730904
C18_10 C 0.7199(5) 0.9562(6) 0.7199(5)
C19_10 C 0.7047(4) 0.9300(5) 0.7047(4)
O25_12 O 0.7145(9) 1.000000 0.8311(5)
O27_10 O 0.7459(3) 0.9671(2) 0.7094(3)
C20_10 C 0.7136(4) 0.9159(4) 0.6782(4)
H10_10 H 0.730904 0.921628 0.666298
N10_10 N 0.6948(3) 0.8932(3) 0.6717(3)
O28_6 O 0.6276(18) 0.7406(12) 0.8724(18)
O29_6 O 0.2906(3) 0.7459(3) 0.9671(2)
C21_6 C 0.3218(4) 0.7136(4) 0.9159(4)
H11_6 H 0.333702 0.730904 0.921628
C22_6 C 0.2801(5) 0.7199(5) 0.9562(6)
C23_6 C 0.2953(4) 0.7047(4) 0.9300(5)
O30_6 O 0.2541(3) 0.7094(3) 0.9671(2)
C24_6 C 0.2864(4) 0.6782(4) 0.9159(4)
H12_6 H 0.269096 0.666298 0.921628
N12_6 N 0.3052(3) 0.6717(3) 0.8932(3)
O31_12 O 0.6689(5) 1.000000 0.7855(9)
O32_10 O 0.6903(5) 0.9699(9) 0.8097(5)
Yb4_8 Yb 0.28456(3) 0.78456(3) 1.000000
Yb5_8 Yb 0.78456(3) 1.000000 0.71544(3)
Yb6_8 Yb 0.21544(3) 0.71544(3) 1.000000
O35_10 O 0.7541(3) 0.9671(2) 0.7906(3)
N13_6 N 0.6717(3) 0.6948(3) 0.8932(3)
N14_10 N 0.3283(3) 0.8932(3) 0.6948(3)
O23_11 O 0.3724(18) 0.1276(18) 0.2594(12)
Yb3_9 Yb 0.71544(3) 0.000000 0.21544(3)
O24_11 O 0.7094(3) 0.0329(2) 0.2541(3)
C17_11 C 0.6782(4) 0.0841(4) 0.2864(4)
H9_11 H 0.666298 0.078372 0.269096
C18_11 C 0.7199(5) 0.0438(6) 0.2801(5)
C19_11 C 0.7047(4) 0.0700(5) 0.2953(4)
O25_13 O 0.7145(9) 0.000000 0.1689(5)
O27_11 O 0.7459(3) 0.0329(2) 0.2906(3)
C20_11 C 0.7136(4) 0.0841(4) 0.3218(4)
H10_11 H 0.730904 0.078372 0.333702
N10_11 N 0.6948(3) 0.1068(3) 0.3283(3)
O28_7 O 0.6276(18) 0.2594(12) 0.1276(18)
O29_7 O 0.2906(3) 0.2541(3) 0.0329(2)
C21_7 C 0.3218(4) 0.2864(4) 0.0841(4)
H11_7 H 0.333702 0.269096 0.078372
C22_7 C 0.2801(5) 0.2801(5) 0.0438(6)
C23_7 C 0.2953(4) 0.2953(4) 0.0700(5)
O30_7 O 0.2541(3) 0.2906(3) 0.0329(2)
C24_7 C 0.2864(4) 0.3218(4) 0.0841(4)
H12_7 H 0.269096 0.333702 0.078372
N12_7 N 0.3052(3) 0.3283(3) 0.1068(3)
O31_13 O 0.6689(5) -0.000000 0.2145(9)
O32_11 O 0.6903(5) 0.0301(9) 0.1903(5)
Yb4_9 Yb 0.28456(3) 0.21544(3) 0.000000
Yb5_9 Yb 0.78456(3) 0.000000 0.28456(3)
Yb6_9 Yb 0.21544(3) 0.28456(3) 0.000000
O35_11 O 0.7541(3) 0.0329(2) 0.2094(3)
N13_7 N 0.6717(3) 0.3052(3) 0.1068(3)
N14_11 N 0.3283(3) 0.1068(3) 0.3052(3)
Yb4_10 Yb 0.28456(3) 0.21544(3) 1.000000
Yb6_10 Yb 0.21544(3) 0.28456(3) 1.000000
Yb3_10 Yb 0.71544(3) 1.000000 0.21544(3)
O25_14 O 0.7145(9) 1.000000 0.1689(5)
O26_11 O 0.6903(5) 0.9699(9) 0.1903(5)
O31_14 O 0.6689(5) 1.000000 0.2145(9)
Yb5_10 Yb 0.78456(3) 1.000000 0.28456(3)
O36_11 O 0.7094(3) 0.9671(2) 0.2541(3)
O37_7 O 0.7541(3) 0.9671(2) 0.2094(3)
Yb3_11 Yb 0.28456(3) 0.000000 0.21544(3)
O25_15 O 0.2855(9) 0.000000 0.1689(5)
O26_12 O 0.3097(5) 0.0301(9) 0.1903(5)
O31_15 O 0.3311(5) -0.000000 0.2145(9)
Yb5_11 Yb 0.21544(3) 0.000000 0.28456(3)
O36_12 O 0.2906(3) 0.0329(2) 0.2541(3)
O37_8 O 0.2459(3) 0.0329(2) 0.2094(3)
O23_12 O 0.6276(18) 0.8724(18) 0.2594(12)
Yb3_12 Yb 0.28456(3) 1.000000 0.21544(3)
O24_12 O 0.2906(3) 0.9671(2) 0.2541(3)
C17_12 C 0.3218(4) 0.9159(4) 0.2864(4)
H9_12 H 0.333702 0.921628 0.269096
C18_12 C 0.2801(5) 0.9562(6) 0.2801(5)
C19_12 C 0.2953(4) 0.9300(5) 0.2953(4)
O25_16 O 0.2855(9) 1.000000 0.1689(5)
O27_12 O 0.2541(3) 0.9671(2) 0.2906(3)
C20_12 C 0.2864(4) 0.9159(4) 0.3218(4)
H10_12 H 0.269096 0.921628 0.333702
N10_12 N 0.3052(3) 0.8932(3) 0.3283(3)
O28_8 O 0.3724(18) 0.7406(12) 0.1276(18)
O29_8 O 0.7094(3) 0.7459(3) 0.0329(2)
C21_8 C 0.6782(4) 0.7136(4) 0.0841(4)
H11_8 H 0.666298 0.730904 0.078372
C22_8 C 0.7199(5) 0.7199(5) 0.0438(6)
C23_8 C 0.7047(4) 0.7047(4) 0.0700(5)
O30_8 O 0.7459(3) 0.7094(3) 0.0329(2)
C24_8 C 0.7136(4) 0.6782(4) 0.0841(4)
H12_8 H 0.730904 0.666298 0.078372
N12_8 N 0.6948(3) 0.6717(3) 0.1068(3)
O31_16 O 0.3311(5) 1.000000 0.2145(9)
O32_12 O 0.3097(5) 0.9699(9) 0.1903(5)
Yb4_11 Yb 0.71544(3) 0.78456(3) 0.000000
Yb5_12 Yb 0.21544(3) 1.000000 0.28456(3)
Yb6_11 Yb 0.78456(3) 0.71544(3) 0.000000
O35_12 O 0.2459(3) 0.9671(2) 0.2094(3)
N13_8 N 0.3283(3) 0.6948(3) 0.1068(3)
N14_12 N 0.6717(3) 0.8932(3) 0.3052(3)
Yb4_12 Yb 0.71544(3) 0.78456(3) 1.000000
Yb6_12 Yb 0.78456(3) 0.71544(3) 1.000000
C5_13 C 0.3218(4) 0.0841(4) 0.2864(4)
H3_13 H 0.333702 0.078372 0.269096
C6_13 C 0.2801(5) 0.0438(6) 0.2801(5)
C7_13 C 0.2953(4) 0.0700(5) 0.2953(4)
O11_13 O 0.2541(3) 0.0329(2) 0.2906(3)
C8_13 C 0.2864(4) 0.0841(4) 0.3218(4)
H4_13 H 0.269096 0.078372 0.333702
O14_13 O 0.1689(5) 0.000000 0.2855(9)
O15_13 O 0.1903(5) 0.0301(9) 0.3097(5)
Cu4_9 Cu 0.13830(6) 0.13830(6) 0.19343(8)
O18_9 O 0.2094(3) 0.0329(2) 0.2459(3)
C13_9 C 0.1782(4) 0.0841(4) 0.2136(4)
H7_9 H 0.166298 0.078372 0.230904
N7_9 N 0.1717(3) 0.1068(3) 0.1948(3)
C14_9 C 0.2199(5) 0.0438(6) 0.2199(5)
C15_9 C 0.2047(4) 0.0700(5) 0.2047(4)
O19_13 O 0.2145(9) 0.000000 0.3311(5)
O21_13 O 0.1276(18) 0.1276(18) 0.2406(12)
C16_9 C 0.2136(4) 0.0841(4) 0.1782(4)
H8_9 H 0.230904 0.078372 0.166298
N8_9 N 0.1948(3) 0.1068(3) 0.1717(3)
Cu5_9 Cu 0.19343(8) 0.13830(6) 0.13830(6)
O23_13 O 0.2406(12) 0.1276(18) 0.1276(18)
O33_9 O 0.1626(5) 0.1626(5) 0.1626(5)
N14_13 N 0.1948(3) 0.1717(3) 0.1068(3)
N15_13 N 0.1068(3) 0.1717(3) 0.1948(3)
Cu1_9 Cu 0.19343(8) 0.86170(6) 0.13830(6)
O1_9 O 0.1626(5) 0.8374(5) 0.1626(5)
C1_13 C 0.2136(4) 0.9159(4) 0.1782(4)
H1_13 H 0.230904 0.921628 0.166298
N1_9 N 0.1948(3) 0.8932(3) 0.1717(3)
C2_13 C 0.2199(5) 0.9562(6) 0.2199(5)
C3_13 C 0.2047(4) 0.9300(5) 0.2047(4)
O5_9 O 0.2406(12) 0.8724(18) 0.1276(18)
O6_13 O 0.2094(3) 0.9671(2) 0.2459(3)
C4_13 C 0.1782(4) 0.9159(4) 0.2136(4)
H2_13 H 0.166298 0.921628 0.230904
N2_13 N 0.1717(3) 0.8932(3) 0.1948(3)
O14_14 O 0.1689(5) 1.000000 0.2855(9)
O16_13 O 0.2594(12) 0.8724(18) 0.3724(18)
O19_14 O 0.2145(9) 1.000000 0.3311(5)
O20_13 O 0.1903(5) 0.9699(9) 0.3097(5)
O24_13 O 0.2459(3) 0.7906(3) 0.0329(2)
C17_13 C 0.2136(4) 0.8218(4) 0.0841(4)
H9_13 H 0.230904 0.833702 0.078372
N9_9 N 0.1948(3) 0.8283(3) 0.1068(3)
C18_13 C 0.2199(5) 0.7801(5) 0.0438(6)
C19_13 C 0.2047(4) 0.7953(4) 0.0700(5)
O25_17 O 0.3311(5) 0.7855(9) 0.000000
O27_13 O 0.2094(3) 0.7541(3) 0.0329(2)
C20_13 C 0.1782(4) 0.7864(4) 0.0841(4)
H10_13 H 0.166298 0.769096 0.078372
N10_13 N 0.1717(3) 0.8052(3) 0.1068(3)
O31_17 O 0.2855(9) 0.8311(5) 0.000000
O32_13 O 0.3097(5) 0.8097(5) 0.0301(9)
Cu7_9 Cu 0.13830(6) 0.86170(6) 0.19343(8)
Cu9_9 Cu 0.13830(6) 0.80657(8) 0.13830(6)
O35_13 O 0.2906(3) 0.7459(3) 0.0329(2)
O25_18 O 0.3311(5) 0.7855(9) 1.000000
O26_13 O 0.3097(5) 0.8097(5) 0.9699(9)
O31_18 O 0.2855(9) 0.8311(5) 1.000000
O36_13 O 0.2459(3) 0.7906(3) 0.9671(2)
O25_19 O 0.3311(5) 0.2145(9) 0.000000
O26_14 O 0.3097(5) 0.1903(5) 0.0301(9)
O31_19 O 0.2855(9) 0.1689(5) 0.000000
O36_14 O 0.2459(3) 0.2094(3) 0.0329(2)
Cu1_10 Cu 0.19343(8) 0.13830(6) 0.86170(6)
O1_10 O 0.1626(5) 0.1626(5) 0.8374(5)
C1_14 C 0.2136(4) 0.0841(4) 0.8218(4)
H1_14 H 0.230904 0.078372 0.833702
N1_10 N 0.1948(3) 0.1068(3) 0.8283(3)
C2_14 C 0.2199(5) 0.0438(6) 0.7801(5)
C3_14 C 0.2047(4) 0.0700(5) 0.7953(4)
O5_10 O 0.2406(12) 0.1276(18) 0.8724(18)
O6_14 O 0.2094(3) 0.0329(2) 0.7541(3)
C4_14 C 0.1782(4) 0.0841(4) 0.7864(4)
H2_14 H 0.166298 0.078372 0.769096
N2_14 N 0.1717(3) 0.1068(3) 0.8052(3)
O14_15 O 0.1689(5) -0.000000 0.7145(9)
O16_14 O 0.2594(12) 0.1276(18) 0.6276(18)
O19_15 O 0.2145(9) -0.000000 0.6689(5)
O20_14 O 0.1903(5) 0.0301(9) 0.6903(5)
O24_14 O 0.2459(3) 0.2094(3) 0.9671(2)
C17_14 C 0.2136(4) 0.1782(4) 0.9159(4)
H9_14 H 0.230904 0.166298 0.921628
N9_10 N 0.1948(3) 0.1717(3) 0.8932(3)
C18_14 C 0.2199(5) 0.2199(5) 0.9562(6)
C19_14 C 0.2047(4) 0.2047(4) 0.9300(5)
O25_20 O 0.3311(5) 0.2145(9) 1.000000
O27_14 O 0.2094(3) 0.2459(3) 0.9671(2)
C20_14 C 0.1782(4) 0.2136(4) 0.9159(4)
H10_14 H 0.166298 0.230904 0.921628
N10_14 N 0.1717(3) 0.1948(3) 0.8932(3)
O31_20 O 0.2855(9) 0.1689(5) 1.000000
O32_14 O 0.3097(5) 0.1903(5) 0.9699(9)
Cu7_10 Cu 0.13830(6) 0.13830(6) 0.80657(8)
Cu9_10 Cu 0.13830(6) 0.19343(8) 0.86170(6)
O35_14 O 0.2906(3) 0.2541(3) 0.9671(2)
C5_14 C 0.3218(4) 0.9159(4) 0.7136(4)
H3_14 H 0.333702 0.921628 0.730904
C6_14 C 0.2801(5) 0.9562(6) 0.7199(5)
C7_14 C 0.2953(4) 0.9300(5) 0.7047(4)
O11_14 O 0.2541(3) 0.9671(2) 0.7094(3)
C8_14 C 0.2864(4) 0.9159(4) 0.6782(4)
H4_14 H 0.269096 0.921628 0.666298
O14_16 O 0.1689(5) 1.000000 0.7145(9)
O15_14 O 0.1903(5) 0.9699(9) 0.6903(5)
Cu4_10 Cu 0.13830(6) 0.86170(6) 0.80657(8)
O18_10 O 0.2094(3) 0.9671(2) 0.7541(3)
C13_10 C 0.1782(4) 0.9159(4) 0.7864(4)
H7_10 H 0.166298 0.921628 0.769096
N7_10 N 0.1717(3) 0.8932(3) 0.8052(3)
C14_10 C 0.2199(5) 0.9562(6) 0.7801(5)
C15_10 C 0.2047(4) 0.9300(5) 0.7953(4)
O19_16 O 0.2145(9) 1.000000 0.6689(5)
O21_14 O 0.1276(18) 0.8724(18) 0.7594(12)
C16_10 C 0.2136(4) 0.9159(4) 0.8218(4)
H8_10 H 0.230904 0.921628 0.833702
N8_10 N 0.1948(3) 0.8932(3) 0.8283(3)
Cu5_10 Cu 0.19343(8) 0.86170(6) 0.86170(6)
O23_14 O 0.2406(12) 0.8724(18) 0.8724(18)
O33_10 O 0.1626(5) 0.8374(5) 0.8374(5)
N14_14 N 0.1948(3) 0.8283(3) 0.8932(3)
N15_14 N 0.1068(3) 0.8283(3) 0.8052(3)
Cu1_11 Cu 0.80657(8) 0.13830(6) 0.13830(6)
O1_11 O 0.8374(5) 0.1626(5) 0.1626(5)
C1_15 C 0.7864(4) 0.0841(4) 0.1782(4)
H1_15 H 0.769096 0.078372 0.166298
N1_11 N 0.8052(3) 0.1068(3) 0.1717(3)
C2_15 C 0.7801(5) 0.0438(6) 0.2199(5)
C3_15 C 0.7953(4) 0.0700(5) 0.2047(4)
O5_11 O 0.7594(12) 0.1276(18) 0.1276(18)
O6_15 O 0.7906(3) 0.0329(2) 0.2459(3)
C4_15 C 0.8218(4) 0.0841(4) 0.2136(4)
H2_15 H 0.833702 0.078372 0.230904
N2_15 N 0.8283(3) 0.1068(3) 0.1948(3)
O14_17 O 0.8311(5) -0.000000 0.2855(9)
O16_15 O 0.7406(12) 0.1276(18) 0.3724(18)
O19_17 O 0.7855(9) -0.000000 0.3311(5)
O20_15 O 0.8097(5) 0.0301(9) 0.3097(5)
O24_15 O 0.7541(3) 0.2094(3) 0.0329(2)
C17_15 C 0.7864(4) 0.1782(4) 0.0841(4)
H9_15 H 0.769096 0.166298 0.078372
N9_11 N 0.8052(3) 0.1717(3) 0.1068(3)
C18_15 C 0.7801(5) 0.2199(5) 0.0438(6)
C19_15 C 0.7953(4) 0.2047(4) 0.0700(5)
O25_21 O 0.6689(5) 0.2145(9) 0.000000
O27_15 O 0.7906(3) 0.2459(3) 0.0329(2)
C20_15 C 0.8218(4) 0.2136(4) 0.0841(4)
H10_15 H 0.833702 0.230904 0.078372
N10_15 N 0.8283(3) 0.1948(3) 0.1068(3)
O31_21 O 0.7145(9) 0.1689(5) 0.000000
O32_15 O 0.6903(5) 0.1903(5) 0.0301(9)
Cu7_11 Cu 0.86170(6) 0.13830(6) 0.19343(8)
Cu9_11 Cu 0.86170(6) 0.19343(8) 0.13830(6)
O35_15 O 0.7094(3) 0.2541(3) 0.0329(2)
O25_22 O 0.6689(5) 0.2145(9) 1.000000
O26_15 O 0.6903(5) 0.1903(5) 0.9699(9)
O31_22 O 0.7145(9) 0.1689(5) 1.000000
O36_15 O 0.7541(3) 0.2094(3) 0.9671(2)
C5_15 C 0.6782(4) 0.9159(4) 0.2864(4)
H3_15 H 0.666298 0.921628 0.269096
C6_15 C 0.7199(5) 0.9562(6) 0.2801(5)
C7_15 C 0.7047(4) 0.9300(5) 0.2953(4)
O11_15 O 0.7459(3) 0.9671(2) 0.2906(3)
C8_15 C 0.7136(4) 0.9159(4) 0.3218(4)
H4_15 H 0.730904 0.921628 0.333702
O14_18 O 0.8311(5) 1.000000 0.2855(9)
O15_15 O 0.8097(5) 0.9699(9) 0.3097(5)
Cu4_11 Cu 0.86170(6) 0.86170(6) 0.19343(8)
O18_11 O 0.7906(3) 0.9671(2) 0.2459(3)
C13_11 C 0.8218(4) 0.9159(4) 0.2136(4)
H7_11 H 0.833702 0.921628 0.230904
N7_11 N 0.8283(3) 0.8932(3) 0.1948(3)
C14_11 C 0.7801(5) 0.9562(6) 0.2199(5)
C15_11 C 0.7953(4) 0.9300(5) 0.2047(4)
O19_18 O 0.7855(9) 1.000000 0.3311(5)
O21_15 O 0.8724(18) 0.8724(18) 0.2406(12)
C16_11 C 0.7864(4) 0.9159(4) 0.1782(4)
H8_11 H 0.769096 0.921628 0.166298
N8_11 N 0.8052(3) 0.8932(3) 0.1717(3)
Cu5_11 Cu 0.80657(8) 0.86170(6) 0.13830(6)
O23_15 O 0.7594(12) 0.8724(18) 0.1276(18)
O33_11 O 0.8374(5) 0.8374(5) 0.1626(5)
N14_15 N 0.8052(3) 0.8283(3) 0.1068(3)
N15_15 N 0.8932(3) 0.8283(3) 0.1948(3)
C5_16 C 0.6782(4) 0.0841(4) 0.7136(4)
H3_16 H 0.666298 0.078372 0.730904
C6_16 C 0.7199(5) 0.0438(6) 0.7199(5)
C7_16 C 0.7047(4) 0.0700(5) 0.7047(4)
O11_16 O 0.7459(3) 0.0329(2) 0.7094(3)
C8_16 C 0.7136(4) 0.0841(4) 0.6782(4)
H4_16 H 0.730904 0.078372 0.666298
O14_19 O 0.8311(5) 0.000000 0.7145(9)
O15_16 O 0.8097(5) 0.0301(9) 0.6903(5)
Cu4_12 Cu 0.86170(6) 0.13830(6) 0.80657(8)
O18_12 O 0.7906(3) 0.0329(2) 0.7541(3)
C13_12 C 0.8218(4) 0.0841(4) 0.7864(4)
H7_12 H 0.833702 0.078372 0.769096
N7_12 N 0.8283(3) 0.1068(3) 0.8052(3)
C14_12 C 0.7801(5) 0.0438(6) 0.7801(5)
C15_12 C 0.7953(4) 0.0700(5) 0.7953(4)
O19_19 O 0.7855(9) 0.000000 0.6689(5)
O21_16 O 0.8724(18) 0.1276(18) 0.7594(12)
C16_12 C 0.7864(4) 0.0841(4) 0.8218(4)
H8_12 H 0.769096 0.078372 0.833702
N8_12 N 0.8052(3) 0.1068(3) 0.8283(3)
Cu5_12 Cu 0.80657(8) 0.13830(6) 0.86170(6)
O23_16 O 0.7594(12) 0.1276(18) 0.8724(18)
O33_12 O 0.8374(5) 0.1626(5) 0.8374(5)
N14_16 N 0.8052(3) 0.1717(3) 0.8932(3)
N15_16 N 0.8932(3) 0.1717(3) 0.8052(3)
O25_23 O 0.6689(5) 0.7855(9) 0.000000
O26_16 O 0.6903(5) 0.8097(5) 0.0301(9)
O31_23 O 0.7145(9) 0.8311(5) 0.000000
O36_16 O 0.7541(3) 0.7906(3) 0.0329(2)
Cu1_12 Cu 0.80657(8) 0.86170(6) 0.86170(6)
O1_12 O 0.8374(5) 0.8374(5) 0.8374(5)
C1_16 C 0.7864(4) 0.9159(4) 0.8218(4)
H1_16 H 0.769096 0.921628 0.833702
N1_12 N 0.8052(3) 0.8932(3) 0.8283(3)
C2_16 C 0.7801(5) 0.9562(6) 0.7801(5)
C3_16 C 0.7953(4) 0.9300(5) 0.7953(4)
O5_12 O 0.7594(12) 0.8724(18) 0.8724(18)
O6_16 O 0.7906(3) 0.9671(2) 0.7541(3)
C4_16 C 0.8218(4) 0.9159(4) 0.7864(4)
H2_16 H 0.833702 0.921628 0.769096
N2_16 N 0.8283(3) 0.8932(3) 0.8052(3)
O14_20 O 0.8311(5) 1.000000 0.7145(9)
O16_16 O 0.7406(12) 0.8724(18) 0.6276(18)
O19_20 O 0.7855(9) 1.000000 0.6689(5)
O20_16 O 0.8097(5) 0.9699(9) 0.6903(5)
O24_16 O 0.7541(3) 0.7906(3) 0.9671(2)
C17_16 C 0.7864(4) 0.8218(4) 0.9159(4)
H9_16 H 0.769096 0.833702 0.921628
N9_12 N 0.8052(3) 0.8283(3) 0.8932(3)
C18_16 C 0.7801(5) 0.7801(5) 0.9562(6)
C19_16 C 0.7953(4) 0.7953(4) 0.9300(5)
O25_24 O 0.6689(5) 0.7855(9) 1.000000
O27_16 O 0.7906(3) 0.7541(3) 0.9671(2)
C20_16 C 0.8218(4) 0.7864(4) 0.9159(4)
H10_16 H 0.833702 0.769096 0.921628
N10_16 N 0.8283(3) 0.8052(3) 0.8932(3)
O31_24 O 0.7145(9) 0.8311(5) 1.000000
O32_16 O 0.6903(5) 0.8097(5) 0.9699(9)
Cu7_12 Cu 0.86170(6) 0.86170(6) 0.80657(8)
Cu9_12 Cu 0.86170(6) 0.80657(8) 0.86170(6)
O35_16 O 0.7094(3) 0.7459(3) 0.9671(2)
C5_17 C 0.7864(4) 0.8218(4) 0.0841(4)
H3_17 H 0.769096 0.833702 0.078372
C6_17 C 0.7801(5) 0.7801(5) 0.0438(6)
C7_17 C 0.7953(4) 0.7953(4) 0.0700(5)
O11_17 O 0.7906(3) 0.7541(3) 0.0329(2)
C8_17 C 0.8218(4) 0.7864(4) 0.0841(4)
H4_17 H 0.833702 0.769096 0.078372
N4_13 N 0.8283(3) 0.8052(3) 0.1068(3)
O14_21 O 0.7855(9) 0.6689(5) 0.000000
O15_17 O 0.8097(5) 0.6903(5) 0.0301(9)
O19_21 O 0.8311(5) 0.7145(9) 0.000000
O21_17 O 0.7406(12) 0.6276(18) 0.1276(18)
Cu8_13 Cu 0.86170(6) 0.80657(8) 0.13830(6)
C1_17 C 0.6782(4) 0.7136(4) 0.9159(4)
H1_17 H 0.666298 0.730904 0.921628
C2_17 C 0.7199(5) 0.7199(5) 0.9562(6)
C3_17 C 0.7047(4) 0.7047(4) 0.9300(5)
O6_17 O 0.7459(3) 0.7094(3) 0.9671(2)
C4_17 C 0.7136(4) 0.6782(4) 0.9159(4)
H2_17 H 0.730904 0.666298 0.921628
O14_22 O 0.7855(9) 0.6689(5) 1.000000
O16_17 O 0.8724(18) 0.7594(12) 0.8724(18)
O19_22 O 0.8311(5) 0.7145(9) 1.000000
O20_17 O 0.8097(5) 0.6903(5) 0.9699(9)
N16_13 N 0.8932(3) 0.8052(3) 0.8283(3)
C1_18 C 0.3218(4) 0.7136(4) 0.0841(4)
H1_18 H 0.333702 0.730904 0.078372
C2_18 C 0.2801(5) 0.7199(5) 0.0438(6)
C3_18 C 0.2953(4) 0.7047(4) 0.0700(5)
O6_18 O 0.2541(3) 0.7094(3) 0.0329(2)
C4_18 C 0.2864(4) 0.6782(4) 0.0841(4)
H2_18 H 0.269096 0.666298 0.078372
O14_23 O 0.2145(9) 0.6689(5) -0.000000
O16_18 O 0.1276(18) 0.7594(12) 0.1276(18)
O19_23 O 0.1689(5) 0.7145(9) -0.000000
O20_18 O 0.1903(5) 0.6903(5) 0.0301(9)
N16_14 N 0.1068(3) 0.8052(3) 0.1717(3)
C5_18 C 0.2136(4) 0.8218(4) 0.9159(4)
H3_18 H 0.230904 0.833702 0.921628
C6_18 C 0.2199(5) 0.7801(5) 0.9562(6)
C7_18 C 0.2047(4) 0.7953(4) 0.9300(5)
O11_18 O 0.2094(3) 0.7541(3) 0.9671(2)
C8_18 C 0.1782(4) 0.7864(4) 0.9159(4)
H4_18 H 0.166298 0.769096 0.921628
N4_14 N 0.1717(3) 0.8052(3) 0.8932(3)
O14_24 O 0.2145(9) 0.6689(5) 1.000000
O15_18 O 0.1903(5) 0.6903(5) 0.9699(9)
O19_24 O 0.1689(5) 0.7145(9) 1.000000
O21_18 O 0.2594(12) 0.6276(18) 0.8724(18)
Cu8_14 Cu 0.13830(6) 0.80657(8) 0.86170(6)
C1_19 C 0.6782(4) 0.2864(4) 0.0841(4)
H1_19 H 0.666298 0.269096 0.078372
C2_19 C 0.7199(5) 0.2801(5) 0.0438(6)
C3_19 C 0.7047(4) 0.2953(4) 0.0700(5)
O6_19 O 0.7459(3) 0.2906(3) 0.0329(2)
C4_19 C 0.7136(4) 0.3218(4) 0.0841(4)
H2_19 H 0.730904 0.333702 0.078372
O14_25 O 0.7855(9) 0.3311(5) -0.000000
O16_19 O 0.8724(18) 0.2406(12) 0.1276(18)
O19_25 O 0.8311(5) 0.2855(9) -0.000000
O20_19 O 0.8097(5) 0.3097(5) 0.0301(9)
N16_15 N 0.8932(3) 0.1948(3) 0.1717(3)
C5_19 C 0.7864(4) 0.1782(4) 0.9159(4)
H3_19 H 0.769096 0.166298 0.921628
C6_19 C 0.7801(5) 0.2199(5) 0.9562(6)
C7_19 C 0.7953(4) 0.2047(4) 0.9300(5)
O11_19 O 0.7906(3) 0.2459(3) 0.9671(2)
C8_19 C 0.8218(4) 0.2136(4) 0.9159(4)
H4_19 H 0.833702 0.230904 0.921628
N4_15 N 0.8283(3) 0.1948(3) 0.8932(3)
O14_26 O 0.7855(9) 0.3311(5) 1.000000
O15_19 O 0.8097(5) 0.3097(5) 0.9699(9)
O19_26 O 0.8311(5) 0.2855(9) 1.000000
O21_19 O 0.7406(12) 0.3724(18) 0.8724(18)
Cu8_15 Cu 0.86170(6) 0.19343(8) 0.86170(6)
C5_20 C 0.2136(4) 0.1782(4) 0.0841(4)
H3_20 H 0.230904 0.166298 0.078372
C6_20 C 0.2199(5) 0.2199(5) 0.0438(6)
C7_20 C 0.2047(4) 0.2047(4) 0.0700(5)
O11_20 O 0.2094(3) 0.2459(3) 0.0329(2)
C8_20 C 0.1782(4) 0.2136(4) 0.0841(4)
H4_20 H 0.166298 0.230904 0.078372
N4_16 N 0.1717(3) 0.1948(3) 0.1068(3)
O14_27 O 0.2145(9) 0.3311(5) 0.000000
O15_20 O 0.1903(5) 0.3097(5) 0.0301(9)
O19_27 O 0.1689(5) 0.2855(9) 0.000000
O21_20 O 0.2594(12) 0.3724(18) 0.1276(18)
Cu8_16 Cu 0.13830(6) 0.19343(8) 0.13830(6)
C1_20 C 0.3218(4) 0.2864(4) 0.9159(4)
H1_20 H 0.333702 0.269096 0.921628
C2_20 C 0.2801(5) 0.2801(5) 0.9562(6)
C3_20 C 0.2953(4) 0.2953(4) 0.9300(5)
O6_20 O 0.2541(3) 0.2906(3) 0.9671(2)
C4_20 C 0.2864(4) 0.3218(4) 0.9159(4)
H2_20 H 0.269096 0.333702 0.921628
O14_28 O 0.2145(9) 0.3311(5) 1.000000
O16_20 O 0.1276(18) 0.2406(12) 0.8724(18)
O19_28 O 0.1689(5) 0.2855(9) 1.000000
O20_20 O 0.1903(5) 0.3097(5) 0.9699(9)
N16_16 N 0.1068(3) 0.1948(3) 0.8283(3)
Yb1_5 Yb 0.000000 0.71544(3) 0.78456(3)
O3_5 O 0.000000 0.7145(9) 0.8311(5)
O4_5 O 0.0301(9) 0.6903(5) 0.8097(5)
O7_5 O 0.0329(2) 0.7541(3) 0.7906(3)
C5_21 C 0.0841(4) 0.7864(4) 0.8218(4)
H3_21 H 0.078372 0.769096 0.833702
N3_5 N 0.1068(3) 0.8052(3) 0.8283(3)
C6_21 C 0.0438(6) 0.7801(5) 0.7801(5)
C7_21 C 0.0700(5) 0.7953(4) 0.7953(4)
O8_5 O -0.000000 0.6689(5) 0.7855(9)
O10_5 O 0.1276(18) 0.7594(12) 0.8724(18)
O11_21 O 0.0329(2) 0.7906(3) 0.7541(3)
C8_21 C 0.0841(4) 0.8218(4) 0.7864(4)
H4_21 H 0.078372 0.833702 0.769096
Yb2_5 Yb 0.000000 0.78456(3) 0.71544(3)
O14_29 O 0.000000 0.7855(9) 0.6689(5)
O15_21 O 0.0301(9) 0.8097(5) 0.6903(5)
O18_13 O 0.0329(2) 0.7459(3) 0.7094(3)
C13_13 C 0.0841(4) 0.7136(4) 0.6782(4)
H7_13 H 0.078372 0.730904 0.666298
N7_13 N 0.1068(3) 0.6948(3) 0.6717(3)
C14_13 C 0.0438(6) 0.7199(5) 0.7199(5)
C15_13 C 0.0700(5) 0.7047(4) 0.7047(4)
O19_29 O 0.000000 0.8311(5) 0.7145(9)
O21_21 O 0.1276(18) 0.7406(12) 0.6276(18)
O22_5 O 0.0329(2) 0.7094(3) 0.7459(3)
C16_13 C 0.0841(4) 0.6782(4) 0.7136(4)
H8_13 H 0.078372 0.666298 0.730904
Yb1_6 Yb 1.000000 0.71544(3) 0.78456(3)
O2_5 O 0.9671(2) 0.7094(3) 0.7459(3)
C1_21 C 0.9159(4) 0.6782(4) 0.7136(4)
H1_21 H 0.921628 0.666298 0.730904
N1_13 N 0.8932(3) 0.6717(3) 0.6948(3)
C2_21 C 0.9562(6) 0.7199(5) 0.7199(5)
C3_21 C 0.9300(5) 0.7047(4) 0.7047(4)
O3_6 O 1.000000 0.7145(9) 0.8311(5)
O5_13 O 0.8724(18) 0.6276(18) 0.7406(12)
O6_21 O 0.9671(2) 0.7459(3) 0.7094(3)
C4_21 C 0.9159(4) 0.7136(4) 0.6782(4)
H2_21 H 0.921628 0.730904 0.666298
O8_6 O 1.000000 0.6689(5) 0.7855(9)
O9_5 O 0.9699(9) 0.6903(5) 0.8097(5)
Yb2_6 Yb 1.000000 0.78456(3) 0.71544(3)
O13_5 O 0.9671(2) 0.7906(3) 0.7541(3)
C9_5 C 0.9159(4) 0.8218(4) 0.7864(4)
H5_5 H 0.921628 0.833702 0.769096
N5_5 N 0.8932(3) 0.8283(3) 0.8052(3)
C10_5 C 0.9562(6) 0.7801(5) 0.7801(5)
C11_5 C 0.9300(5) 0.7953(4) 0.7953(4)
O14_30 O 1.000000 0.7855(9) 0.6689(5)
O16_21 O 0.8724(18) 0.8724(18) 0.7594(12)
O17_5 O 0.9671(2) 0.7541(3) 0.7906(3)
C12_5 C 0.9159(4) 0.7864(4) 0.8218(4)
H6_5 H 0.921628 0.769096 0.833702
O19_30 O 1.000000 0.8311(5) 0.7145(9)
O20_21 O 0.9699(9) 0.8097(5) 0.6903(5)
Yb1_7 Yb -0.000000 0.28456(3) 0.78456(3)
O2_6 O 0.0329(2) 0.2906(3) 0.7459(3)
C1_22 C 0.0841(4) 0.3218(4) 0.7136(4)
H1_22 H 0.078372 0.333702 0.730904
N1_14 N 0.1068(3) 0.3283(3) 0.6948(3)
C2_22 C 0.0438(6) 0.2801(5) 0.7199(5)
C3_22 C 0.0700(5) 0.2953(4) 0.7047(4)
O3_7 O -0.000000 0.2855(9) 0.8311(5)
O5_14 O 0.1276(18) 0.3724(18) 0.7406(12)
O6_22 O 0.0329(2) 0.2541(3) 0.7094(3)
C4_22 C 0.0841(4) 0.2864(4) 0.6782(4)
H2_22 H 0.078372 0.269096 0.666298
O8_7 O 0.000000 0.3311(5) 0.7855(9)
O9_6 O 0.0301(9) 0.3097(5) 0.8097(5)
Yb2_7 Yb -0.000000 0.21544(3) 0.71544(3)
O13_6 O 0.0329(2) 0.2094(3) 0.7541(3)
C9_6 C 0.0841(4) 0.1782(4) 0.7864(4)
H5_6 H 0.078372 0.166298 0.769096
N5_6 N 0.1068(3) 0.1717(3) 0.8052(3)
C10_6 C 0.0438(6) 0.2199(5) 0.7801(5)
C11_6 C 0.0700(5) 0.2047(4) 0.7953(4)
O14_31 O -0.000000 0.2145(9) 0.6689(5)
O16_22 O 0.1276(18) 0.1276(18) 0.7594(12)
O17_6 O 0.0329(2) 0.2459(3) 0.7906(3)
C12_6 C 0.0841(4) 0.2136(4) 0.8218(4)
H6_6 H 0.078372 0.230904 0.833702
O19_31 O -0.000000 0.1689(5) 0.7145(9)
O20_22 O 0.0301(9) 0.1903(5) 0.6903(5)
Yb1_8 Yb 1.000000 0.28456(3) 0.78456(3)
O3_8 O 1.000000 0.2855(9) 0.8311(5)
O4_6 O 0.9699(9) 0.3097(5) 0.8097(5)
O7_6 O 0.9671(2) 0.2459(3) 0.7906(3)
C5_22 C 0.9159(4) 0.2136(4) 0.8218(4)
H3_22 H 0.921628 0.230904 0.833702
N3_6 N 0.8932(3) 0.1948(3) 0.8283(3)
C6_22 C 0.9562(6) 0.2199(5) 0.7801(5)
C7_22 C 0.9300(5) 0.2047(4) 0.7953(4)
O8_8 O 1.000000 0.3311(5) 0.7855(9)
O10_6 O 0.8724(18) 0.2406(12) 0.8724(18)
O11_22 O 0.9671(2) 0.2094(3) 0.7541(3)
C8_22 C 0.9159(4) 0.1782(4) 0.7864(4)
H4_22 H 0.921628 0.166298 0.769096
Yb2_8 Yb 1.000000 0.21544(3) 0.71544(3)
O14_32 O 1.000000 0.2145(9) 0.6689(5)
O15_22 O 0.9699(9) 0.1903(5) 0.6903(5)
O18_14 O 0.9671(2) 0.2541(3) 0.7094(3)
C13_14 C 0.9159(4) 0.2864(4) 0.6782(4)
H7_14 H 0.921628 0.269096 0.666298
N7_14 N 0.8932(3) 0.3052(3) 0.6717(3)
C14_14 C 0.9562(6) 0.2801(5) 0.7199(5)
C15_14 C 0.9300(5) 0.2953(4) 0.7047(4)
O19_32 O 1.000000 0.1689(5) 0.7145(9)
O21_22 O 0.8724(18) 0.2594(12) 0.6276(18)
O22_6 O 0.9671(2) 0.2906(3) 0.7459(3)
C16_14 C 0.9159(4) 0.3218(4) 0.7136(4)
H8_14 H 0.921628 0.333702 0.730904
Yb1_9 Yb -0.000000 0.71544(3) 0.21544(3)
O2_7 O 0.0329(2) 0.7094(3) 0.2541(3)
C1_23 C 0.0841(4) 0.6782(4) 0.2864(4)
H1_23 H 0.078372 0.666298 0.269096
N1_15 N 0.1068(3) 0.6717(3) 0.3052(3)
C2_23 C 0.0438(6) 0.7199(5) 0.2801(5)
C3_23 C 0.0700(5) 0.7047(4) 0.2953(4)
O3_9 O -0.000000 0.7145(9) 0.1689(5)
O5_15 O 0.1276(18) 0.6276(18) 0.2594(12)
O6_23 O 0.0329(2) 0.7459(3) 0.2906(3)
C4_23 C 0.0841(4) 0.7136(4) 0.3218(4)
H2_23 H 0.078372 0.730904 0.333702
O8_9 O 0.000000 0.6689(5) 0.2145(9)
O9_7 O 0.0301(9) 0.6903(5) 0.1903(5)
Yb2_9 Yb -0.000000 0.78456(3) 0.28456(3)
O13_7 O 0.0329(2) 0.7906(3) 0.2459(3)
C9_7 C 0.0841(4) 0.8218(4) 0.2136(4)
H5_7 H 0.078372 0.833702 0.230904
N5_7 N 0.1068(3) 0.8283(3) 0.1948(3)
C10_7 C 0.0438(6) 0.7801(5) 0.2199(5)
C11_7 C 0.0700(5) 0.7953(4) 0.2047(4)
O14_33 O -0.000000 0.7855(9) 0.3311(5)
O16_23 O 0.1276(18) 0.8724(18) 0.2406(12)
O17_7 O 0.0329(2) 0.7541(3) 0.2094(3)
C12_7 C 0.0841(4) 0.7864(4) 0.1782(4)
H6_7 H 0.078372 0.769096 0.166298
O19_33 O -0.000000 0.8311(5) 0.2855(9)
O20_23 O 0.0301(9) 0.8097(5) 0.3097(5)
Yb1_10 Yb 1.000000 0.71544(3) 0.21544(3)
O3_10 O 1.000000 0.7145(9) 0.1689(5)
O4_7 O 0.9699(9) 0.6903(5) 0.1903(5)
O7_7 O 0.9671(2) 0.7541(3) 0.2094(3)
C5_23 C 0.9159(4) 0.7864(4) 0.1782(4)
H3_23 H 0.921628 0.769096 0.166298
N3_7 N 0.8932(3) 0.8052(3) 0.1717(3)
C6_23 C 0.9562(6) 0.7801(5) 0.2199(5)
C7_23 C 0.9300(5) 0.7953(4) 0.2047(4)
O8_10 O 1.000000 0.6689(5) 0.2145(9)
O10_7 O 0.8724(18) 0.7594(12) 0.1276(18)
O11_23 O 0.9671(2) 0.7906(3) 0.2459(3)
C8_23 C 0.9159(4) 0.8218(4) 0.2136(4)
H4_23 H 0.921628 0.833702 0.230904
Yb2_10 Yb 1.000000 0.78456(3) 0.28456(3)
O14_34 O 1.000000 0.7855(9) 0.3311(5)
O15_23 O 0.9699(9) 0.8097(5) 0.3097(5)
O18_15 O 0.9671(2) 0.7459(3) 0.2906(3)
C13_15 C 0.9159(4) 0.7136(4) 0.3218(4)
H7_15 H 0.921628 0.730904 0.333702
N7_15 N 0.8932(3) 0.6948(3) 0.3283(3)
C14_15 C 0.9562(6) 0.7199(5) 0.2801(5)
C15_15 C 0.9300(5) 0.7047(4) 0.2953(4)
O19_34 O 1.000000 0.8311(5) 0.2855(9)
O21_23 O 0.8724(18) 0.7406(12) 0.3724(18)
O22_7 O 0.9671(2) 0.7094(3) 0.2541(3)
C16_15 C 0.9159(4) 0.6782(4) 0.2864(4)
H8_15 H 0.921628 0.666298 0.269096
Yb1_11 Yb 0.000000 0.28456(3) 0.21544(3)
O3_11 O 0.000000 0.2855(9) 0.1689(5)
O4_8 O 0.0301(9) 0.3097(5) 0.1903(5)
O7_8 O 0.0329(2) 0.2459(3) 0.2094(3)
C5_24 C 0.0841(4) 0.2136(4) 0.1782(4)
H3_24 H 0.078372 0.230904 0.166298
N3_8 N 0.1068(3) 0.1948(3) 0.1717(3)
C6_24 C 0.0438(6) 0.2199(5) 0.2199(5)
C7_24 C 0.0700(5) 0.2047(4) 0.2047(4)
O8_11 O -0.000000 0.3311(5) 0.2145(9)
O10_8 O 0.1276(18) 0.2406(12) 0.1276(18)
O11_24 O 0.0329(2) 0.2094(3) 0.2459(3)
C8_24 C 0.0841(4) 0.1782(4) 0.2136(4)
H4_24 H 0.078372 0.166298 0.230904
Yb2_11 Yb 0.000000 0.21544(3) 0.28456(3)
O14_35 O 0.000000 0.2145(9) 0.3311(5)
O15_24 O 0.0301(9) 0.1903(5) 0.3097(5)
O18_16 O 0.0329(2) 0.2541(3) 0.2906(3)
C13_16 C 0.0841(4) 0.2864(4) 0.3218(4)
H7_16 H 0.078372 0.269096 0.333702
N7_16 N 0.1068(3) 0.3052(3) 0.3283(3)
C14_16 C 0.0438(6) 0.2801(5) 0.2801(5)
C15_16 C 0.0700(5) 0.2953(4) 0.2953(4)
O19_35 O 0.000000 0.1689(5) 0.2855(9)
O21_24 O 0.1276(18) 0.2594(12) 0.3724(18)
O22_8 O 0.0329(2) 0.2906(3) 0.2541(3)
C16_16 C 0.0841(4) 0.3218(4) 0.2864(4)
H8_16 H 0.078372 0.333702 0.269096
Yb1_12 Yb 1.000000 0.28456(3) 0.21544(3)
O2_8 O 0.9671(2) 0.2906(3) 0.2541(3)
C1_24 C 0.9159(4) 0.3218(4) 0.2864(4)
H1_24 H 0.921628 0.333702 0.269096
N1_16 N 0.8932(3) 0.3283(3) 0.3052(3)
C2_24 C 0.9562(6) 0.2801(5) 0.2801(5)
C3_24 C 0.9300(5) 0.2953(4) 0.2953(4)
O3_12 O 1.000000 0.2855(9) 0.1689(5)
O5_16 O 0.8724(18) 0.3724(18) 0.2594(12)
O6_24 O 0.9671(2) 0.2541(3) 0.2906(3)
C4_24 C 0.9159(4) 0.2864(4) 0.3218(4)
H2_24 H 0.921628 0.269096 0.333702
O8_12 O 1.000000 0.3311(5) 0.2145(9)
O9_8 O 0.9699(9) 0.3097(5) 0.1903(5)
Yb2_12 Yb 1.000000 0.21544(3) 0.28456(3)
O13_8 O 0.9671(2) 0.2094(3) 0.2459(3)
C9_8 C 0.9159(4) 0.1782(4) 0.2136(4)
H5_8 H 0.921628 0.166298 0.230904
N5_8 N 0.8932(3) 0.1717(3) 0.1948(3)
C10_8 C 0.9562(6) 0.2199(5) 0.2199(5)
C11_8 C 0.9300(5) 0.2047(4) 0.2047(4)
O14_36 O 1.000000 0.2145(9) 0.3311(5)
O16_24 O 0.8724(18) 0.1276(18) 0.2406(12)
O17_8 O 0.9671(2) 0.2459(3) 0.2094(3)
C12_8 C 0.9159(4) 0.2136(4) 0.1782(4)
H6_8 H 0.921628 0.230904 0.166298
O19_36 O 1.000000 0.1689(5) 0.2855(9)
O20_24 O 0.9699(9) 0.1903(5) 0.3097(5)
loop_
_geom_bond_atom_site_label_1
_geom_bond_atom_site_label_2
_geom_bond_site_symmetry_1
_geom_bond_site_symmetry_2
Yb1 O2 1_555 1_555
Cu1 O1 1_555 1_555
O1 Cu7 1_555 1_555
O2 C2 1_555 1_555
C1 H1 1_555 1_555
N1 Cu1 1_555 1_555
C2 C3 1_555 1_555
C3 C1 1_555 1_555
O3 Yb1 1_555 1_555
O4 Yb1 1_555 1_555
O5 Cu1 1_555 1_555
O6 C2 1_555 1_555
C4 C3 1_555 1_555
H2 C4 1_555 1_555
N2 N1 1_555 1_555
Cu2 N3 1_555 1_555
O7 Yb1 1_555 1_555
C5 H3 1_555 1_555
N3 C5 1_555 1_555
C6 O7 1_555 1_555
C7 C5 1_555 1_555
O8 Yb1 1_555 1_555
O9 Yb1 1_555 1_555
O10 Cu2 1_555 1_555
O11 C6 1_555 1_555
C8 C7 1_555 1_555
H4 C8 1_555 1_555
N4 N3 1_555 1_555
Yb2 O6 1_555 1_555
Cu3 O12 1_555 1_555
O12 Cu6 1_555 1_555
O13 Yb2 1_555 1_555
C9 H5 1_555 1_555
N5 Cu3 1_555 1_555
C10 O13 1_555 1_555
C11 C9 1_555 1_555
O14 Yb2 1_555 1_555
O15 Yb2 1_555 1_555
O16 Cu3 1_555 1_555
O17 Yb1 1_555 1_555
C12 C11 1_555 1_555
H6 C12 1_555 1_555
N6 N5 1_555 1_555
Cu4 N7 1_555 1_555
O18 Yb2 1_555 1_555
C13 H7 1_555 1_555
N7 C13 1_555 1_555
C14 O18 1_555 1_555
C15 C13 1_555 1_555
O19 Yb2 1_555 1_555
O20 Yb2 1_555 1_555
O21 Cu4 1_555 1_555
O22 Yb1 1_555 1_555
C16 C15 1_555 1_555
H8 C16 1_555 1_555
N8 N7 1_555 1_555
Cu5 N8 1_555 1_555
O23 Cu5 1_555 1_555
Yb3 O24 1_555 1_555
O24 C18 1_555 1_555
C17 H9 1_555 1_555
N9 Cu1 1_555 1_555
C18 C19 1_555 1_555
C19 C17 1_555 1_555
O25 Yb3 1_555 1_555
O26 Yb3 1_555 1_555
O27 C18 1_555 1_555
C20 C19 1_555 1_555
H10 C20 1_555 1_555
N10 N9 1_555 1_555
Cu6 N6 1_555 1_555
O28 Cu6 1_555 1_555
O29 C22 1_555 1_555
C21 H11 1_555 1_555
N11 Cu2 1_555 1_555
C22 C23 1_555 1_555
C23 C21 1_555 1_555
O30 C22 1_555 1_555
C24 C23 1_555 1_555
H12 C24 1_555 1_555
N12 N11 1_555 1_555
O31 Yb3 1_555 1_555
O32 Yb3 1_555 1_555
Yb4 O29 1_555 1_555
Yb5 O27 1_555 1_555
Yb6 O30 1_555 1_555
Cu7 N2 1_555 1_555
Cu8 N4 1_555 1_555
Cu9 O1 1_555 1_555
Cu10 O12 1_555 1_555
Cu11 N12 1_555 1_555
O33 Cu4 1_555 1_555
O34 Cu2 1_555 1_555
O35 Yb3 1_555 1_555
O36 Yb3 1_555 1_555
O37 Yb3 1_555 1_555
N13 Cu6 1_555 1_555
N14 Cu5 1_555 1_555
N15 Cu4 1_555 1_555
N16 Cu3 1_555 1_555
C1 N1 1_555 1_555
C4 N2 1_555 1_555
C6 C7 1_555 1_555
O11 Yb2 1_555 1_555
C8 N4 1_555 1_555
C9 N5 1_555 1_555
C10 C11 1_555 1_555
C10 O17 1_555 1_555
C12 N6 1_555 1_555
C14 C15 1_555 1_555
C14 O22 1_555 1_555
C16 N8 1_555 1_555
Cu5 O33 1_555 1_555
C17 N9 1_555 1_555
C20 N10 1_555 1_555
N10 Cu9 1_555 1_555
C21 N11 1_555 1_555
C24 N12 1_555 1_555
Cu8 O34 1_555 1_555
Cu11 O34 1_555 1_555
Yb1_2 O2_2 1_555 1_555
Cu1_2 O1_2 1_555 1_555
O1_2 Cu7_2 1_555 1_555
O2_2 C2_2 1_555 1_555
C1_2 H1_2 1_555 1_555
N1_2 Cu1_2 1_555 1_555
C2_2 C3_2 1_555 1_555
C3_2 C1_2 1_555 1_555
O3_2 Yb1_2 1_555 1_555
O4_2 Yb1_2 1_555 1_555
O5_2 Cu1_2 1_555 1_555
O6_2 C2_2 1_555 1_555
C4_2 C3_2 1_555 1_555
H2_2 C4_2 1_555 1_555
N2_2 N1_2 1_555 1_555
Cu2_2 N3_2 1_555 1_555
O7_2 Yb1_2 1_555 1_555
C5_2 H3_2 1_555 1_555
N3_2 C5_2 1_555 1_555
C6_2 O7_2 1_555 1_555
C7_2 C5_2 1_555 1_555
O8_2 Yb1_2 1_555 1_555
O9_2 Yb1_2 1_555 1_555
O10_2 Cu2_2 1_555 1_555
O11_2 C6_2 1_555 1_555
C8_2 C7_2 1_555 1_555
H4_2 C8_2 1_555 1_555
N4_2 N3_2 1_555 1_555
Yb2_2 O6_2 1_555 1_555
Cu3_2 O12_2 1_555 1_555
O12_2 Cu6_2 1_555 1_555
O13_2 Yb2_2 1_555 1_555
C9_2 H5_2 1_555 1_555
N5_2 Cu3_2 1_555 1_555
C10_2 O13_2 1_555 1_555
C11_2 C9_2 1_555 1_555
O14_2 Yb2_2 1_555 1_555
O15_2 Yb2_2 1_555 1_555
O16_2 Cu3_2 1_555 1_555
O17_2 Yb1_2 1_555 1_555
C12_2 C11_2 1_555 1_555
H6_2 C12_2 1_555 1_555
N6_2 N5_2 1_555 1_555
Cu4_2 N7_2 1_555 1_555
O18_2 Yb2_2 1_555 1_555
C13_2 H7_2 1_555 1_555
N7_2 C13_2 1_555 1_555
C14_2 O18_2 1_555 1_555
C15_2 C13_2 1_555 1_555
O19_2 Yb2_2 1_555 1_555
O20_2 Yb2_2 1_555 1_555
O21_2 Cu4_2 1_555 1_555
O22_2 Yb1_2 1_555 1_555
C16_2 C15_2 1_555 1_555
H8_2 C16_2 1_555 1_555
N8_2 N7_2 1_555 1_555
Cu5_2 N8_2 1_555 1_555
O23_2 Cu5_2 1_555 1_555
Yb3_2 O24_2 1_555 1_555
O24_2 C18_2 1_555 1_555
C17_2 H9_2 1_555 1_555
N9_2 Cu1_2 1_555 1_555
C18_2 C19_2 1_555 1_555
C19_2 C17_2 1_555 1_555
O25_2 Yb3_2 1_555 1_555
O26_2 Yb3_2 1_555 1_555
O27_2 C18_2 1_555 1_555
C20_2 C19_2 1_555 1_555
H10_2 C20_2 1_555 1_555
N10_2 N9_2 1_555 1_555
Cu6_2 N6_2 1_555 1_555
O28_2 Cu6_2 1_555 1_555
O29_2 C22_2 1_555 1_555
C21_2 H11_2 1_555 1_555
N11_2 Cu2_2 1_555 1_555
C22_2 C23_2 1_555 1_555
C23_2 C21_2 1_555 1_555
O30_2 C22_2 1_555 1_555
C24_2 C23_2 1_555 1_555
H12_2 C24_2 1_555 1_555
N12_2 N11_2 1_555 1_555
O31_2 Yb3_2 1_555 1_555
O32_2 Yb3_2 1_555 1_555
Yb4_2 O29_2 1_555 1_555
Yb5_2 O27_2 1_555 1_555
Yb6_2 O30_2 1_555 1_555
Cu7_2 N2_2 1_555 1_555
Cu8_2 N4_2 1_555 1_555
Cu9_2 O1_2 1_555 1_555
Cu10_2 O12_2 1_555 1_555
Cu11_2 N12_2 1_555 1_555
O33_2 Cu4_2 1_555 1_555
O34_2 Cu2_2 1_555 1_555
O35_2 Yb3_2 1_555 1_555
O36_2 Yb3_2 1_555 1_555
O37_2 Yb3_2 1_555 1_555
N13_2 Cu6_2 1_555 1_555
N14_2 Cu5_2 1_555 1_555
N15_2 Cu4_2 1_555 1_555
N16_2 Cu3_2 1_555 1_555
C1_2 N1_2 1_555 1_555
C4_2 N2_2 1_555 1_555
C6_2 C7_2 1_555 1_555
O11_2 Yb2_2 1_555 1_555
C8_2 N4_2 1_555 1_555
C9_2 N5_2 1_555 1_555
C10_2 C11_2 1_555 1_555
C10_2 O17_2 1_555 1_555
C12_2 N6_2 1_555 1_555
C14_2 C15_2 1_555 1_555
C14_2 O22_2 1_555 1_555
C16_2 N8_2 1_555 1_555
Cu5_2 O33_2 1_555 1_555
C17_2 N9_2 1_555 1_555
C20_2 N10_2 1_555 1_555
N10_2 Cu9_2 1_555 1_555
C21_2 N11_2 1_555 1_555
C24_2 N12_2 1_555 1_555
Cu8_2 O34_2 1_555 1_555
Cu11_2 O34_2 1_555 1_555
Yb1_3 O2_3 1_555 1_555
Cu1_3 O1_3 1_555 1_555
O1_3 Cu7_3 1_555 1_555
O2_3 C2_3 1_555 1_555
C1_3 H1_3 1_555 1_555
N1_3 Cu1_3 1_555 1_555
C2_3 C3_3 1_555 1_555
C3_3 C1_3 1_555 1_555
O3_3 Yb1_3 1_555 1_555
O4_3 Yb1_3 1_555 1_555
O5_3 Cu1_3 1_555 1_555
O6_3 C2_3 1_555 1_555
C4_3 C3_3 1_555 1_555
H2_3 C4_3 1_555 1_555
N2_3 N1_3 1_555 1_555
Cu2_3 N3_3 1_555 1_555
O7_3 Yb1_3 1_555 1_555
C5_3 H3_3 1_555 1_555
N3_3 C5_3 1_555 1_555
C6_3 O7_3 1_555 1_555
C7_3 C5_3 1_555 1_555
O8_3 Yb1_3 1_555 1_555
O9_3 Yb1_3 1_555 1_555
O10_3 Cu2_3 1_555 1_555
O11_3 C6_3 1_555 1_555
C8_3 C7_3 1_555 1_555
H4_3 C8_3 1_555 1_555
N4_3 N3_3 1_555 1_555
Yb2_3 O6_3 1_555 1_555
Cu3_3 O12_3 1_555 1_555
O12_3 Cu6_3 1_555 1_555
O13_3 Yb2_3 1_555 1_555
C9_3 H5_3 1_555 1_555
N5_3 Cu3_3 1_555 1_555
C10_3 O13_3 1_555 1_555
C11_3 C9_3 1_555 1_555
O14_3 Yb2_3 1_555 1_555
O15_3 Yb2_3 1_555 1_555
O16_3 Cu3_3 1_555 1_555
O17_3 Yb1_3 1_555 1_555
C12_3 C11_3 1_555 1_555
H6_3 C12_3 1_555 1_555
N6_3 N5_3 1_555 1_555
Cu4_3 N7_3 1_555 1_555
O18_3 Yb2_3 1_555 1_555
C13_3 H7_3 1_555 1_555
N7_3 C13_3 1_555 1_555
C14_3 O18_3 1_555 1_555
C15_3 C13_3 1_555 1_555
O19_3 Yb2_3 1_555 1_555
O20_3 Yb2_3 1_555 1_555
O21_3 Cu4_3 1_555 1_555
O22_3 Yb1_3 1_555 1_555
C16_3 C15_3 1_555 1_555
H8_3 C16_3 1_555 1_555
N8_3 N7_3 1_555 1_555
Cu5_3 N8_3 1_555 1_555
O23_3 Cu5_3 1_555 1_555
Yb3_3 O24_3 1_555 1_555
O24_3 C18_3 1_555 1_555
C17_3 H9_3 1_555 1_555
N9_3 Cu1_3 1_555 1_555
C18_3 C19_3 1_555 1_555
C19_3 C17_3 1_555 1_555
O25_3 Yb3_3 1_555 1_555
O26_3 Yb3_3 1_555 1_555
O27_3 C18_3 1_555 1_555
C20_3 C19_3 1_555 1_555
H10_3 C20_3 1_555 1_555
N10_3 N9_3 1_555 1_555
Cu6_3 N6_3 1_555 1_555
O28_3 Cu6_3 1_555 1_555
O29_3 C22_3 1_555 1_555
C21_3 H11_3 1_555 1_555
N11_3 Cu2_3 1_555 1_555
C22_3 C23_3 1_555 1_555
C23_3 C21_3 1_555 1_555
O30_3 C22_3 1_555 1_555
C24_3 C23_3 1_555 1_555
H12_3 C24_3 1_555 1_555
N12_3 N11_3 1_555 1_555
O31_3 Yb3_3 1_555 1_555
O32_3 Yb3_3 1_555 1_555
Yb4_3 O29_3 1_555 1_555
Yb5_3 O27_3 1_555 1_555
Yb6_3 O30_3 1_555 1_555
Cu7_3 N2_3 1_555 1_555
Cu8_3 N4_3 1_555 1_555
Cu9_3 O1_3 1_555 1_555
Cu10_3 O12_3 1_555 1_555
Cu11_3 N12_3 1_555 1_555
O33_3 Cu4_3 1_555 1_555
O34_3 Cu2_3 1_555 1_555
O35_3 Yb3_3 1_555 1_555
O36_3 Yb3_3 1_555 1_555
O37_3 Yb3_3 1_555 1_555
N13_3 Cu6_3 1_555 1_555
N14_3 Cu5_3 1_555 1_555
N15_3 Cu4_3 1_555 1_555
N16_3 Cu3_3 1_555 1_555
C1_3 N1_3 1_555 1_555
C4_3 N2_3 1_555 1_555
C6_3 C7_3 1_555 1_555
O11_3 Yb2_3 1_555 1_555
C8_3 N4_3 1_555 1_555
C9_3 N5_3 1_555 1_555
C10_3 C11_3 1_555 1_555
C10_3 O17_3 1_555 1_555
C12_3 N6_3 1_555 1_555
C14_3 C15_3 1_555 1_555
C14_3 O22_3 1_555 1_555
C16_3 N8_3 1_555 1_555
Cu5_3 O33_3 1_555 1_555
C17_3 N9_3 1_555 1_555
C20_3 N10_3 1_555 1_555
N10_3 Cu9_3 1_555 1_555
C21_3 N11_3 1_555 1_555
C24_3 N12_3 1_555 1_555
Cu8_3 O34_3 1_555 1_555
Cu11_3 O34_3 1_555 1_555
Yb1_4 O2_4 1_555 1_555
Cu1_4 O1_4 1_555 1_555
O1_4 Cu7_4 1_555 1_555
O2_4 C2_4 1_555 1_555
C1_4 H1_4 1_555 1_555
N1_4 Cu1_4 1_555 1_555
C2_4 C3_4 1_555 1_555
C3_4 C1_4 1_555 1_555
O3_4 Yb1_4 1_555 1_555
O4_4 Yb1_4 1_555 1_555
O5_4 Cu1_4 1_555 1_555
O6_4 C2_4 1_555 1_555
C4_4 C3_4 1_555 1_555
H2_4 C4_4 1_555 1_555
N2_4 N1_4 1_555 1_555
Cu2_4 N3_4 1_555 1_555
O7_4 Yb1_4 1_555 1_555
C5_4 H3_4 1_555 1_555
N3_4 C5_4 1_555 1_555
C6_4 O7_4 1_555 1_555
C7_4 C5_4 1_555 1_555
O8_4 Yb1_4 1_555 1_555
O9_4 Yb1_4 1_555 1_555
O10_4 Cu2_4 1_555 1_555
O11_4 C6_4 1_555 1_555
C8_4 C7_4 1_555 1_555
H4_4 C8_4 1_555 1_555
N4_4 N3_4 1_555 1_555
Yb2_4 O6_4 1_555 1_555
Cu3_4 O12_4 1_555 1_555
O12_4 Cu6_4 1_555 1_555
O13_4 Yb2_4 1_555 1_555
C9_4 H5_4 1_555 1_555
N5_4 Cu3_4 1_555 1_555
C10_4 O13_4 1_555 1_555
C11_4 C9_4 1_555 1_555
O14_4 Yb2_4 1_555 1_555
O15_4 Yb2_4 1_555 1_555
O16_4 Cu3_4 1_555 1_555
O17_4 Yb1_4 1_555 1_555
C12_4 C11_4 1_555 1_555
H6_4 C12_4 1_555 1_555
N6_4 N5_4 1_555 1_555
Cu4_4 N7_4 1_555 1_555
O18_4 Yb2_4 1_555 1_555
C13_4 H7_4 1_555 1_555
N7_4 C13_4 1_555 1_555
C14_4 O18_4 1_555 1_555
C15_4 C13_4 1_555 1_555
O19_4 Yb2_4 1_555 1_555
O20_4 Yb2_4 1_555 1_555
O21_4 Cu4_4 1_555 1_555
O22_4 Yb1_4 1_555 1_555
C16_4 C15_4 1_555 1_555
H8_4 C16_4 1_555 1_555
N8_4 N7_4 1_555 1_555
Cu5_4 N8_4 1_555 1_555
O23_4 Cu5_4 1_555 1_555
Yb3_4 O24_4 1_555 1_555
O24_4 C18_4 1_555 1_555
C17_4 H9_4 1_555 1_555
N9_4 Cu1_4 1_555 1_555
C18_4 C19_4 1_555 1_555
C19_4 C17_4 1_555 1_555
O25_4 Yb3_4 1_555 1_555
O26_4 Yb3_4 1_555 1_555
O27_4 C18_4 1_555 1_555
C20_4 C19_4 1_555 1_555
H10_4 C20_4 1_555 1_555
N10_4 N9_4 1_555 1_555
Cu6_4 N6_4 1_555 1_555
O28_4 Cu6_4 1_555 1_555
O29_4 C22_4 1_555 1_555
C21_4 H11_4 1_555 1_555
N11_4 Cu2_4 1_555 1_555
C22_4 C23_4 1_555 1_555
C23_4 C21_4 1_555 1_555
O30_4 C22_4 1_555 1_555
C24_4 C23_4 1_555 1_555
H12_4 C24_4 1_555 1_555
N12_4 N11_4 1_555 1_555
O31_4 Yb3_4 1_555 1_555
O32_4 Yb3_4 1_555 1_555
Yb4_4 O29_4 1_555 1_555
Yb5_4 O27_4 1_555 1_555
Yb6_4 O30_4 1_555 1_555
Cu7_4 N2_4 1_555 1_555
Cu8_4 N4_4 1_555 1_555
Cu9_4 O1_4 1_555 1_555
Cu10_4 O12_4 1_555 1_555
Cu11_4 N12_4 1_555 1_555
O33_4 Cu4_4 1_555 1_555
O34_4 Cu2_4 1_555 1_555
O35_4 Yb3_4 1_555 1_555
O36_4 Yb3_4 1_555 1_555
O37_4 Yb3_4 1_555 1_555
N13_4 Cu6_4 1_555 1_555
N14_4 Cu5_4 1_555 1_555
N15_4 Cu4_4 1_555 1_555
N16_4 Cu3_4 1_555 1_555
C1_4 N1_4 1_555 1_555
C4_4 N2_4 1_555 1_555
C6_4 C7_4 1_555 1_555
O11_4 Yb2_4 1_555 1_555
C8_4 N4_4 1_555 1_555
C9_4 N5_4 1_555 1_555
C10_4 C11_4 1_555 1_555
C10_4 O17_4 1_555 1_555
C12_4 N6_4 1_555 1_555
C14_4 C15_4 1_555 1_555
C14_4 O22_4 1_555 1_555
C16_4 N8_4 1_555 1_555
Cu5_4 O33_4 1_555 1_555
C17_4 N9_4 1_555 1_555
C20_4 N10_4 1_555 1_555
N10_4 Cu9_4 1_555 1_555
C21_4 N11_4 1_555 1_555
C24_4 N12_4 1_555 1_555
Cu8_4 O34_4 1_555 1_555
Cu11_4 O34_4 1_555 1_555
Cu1_5 O1_5 1_555 1_555
O1_5 Cu7_5 1_555 1_555
O35_4 C2_5 1_555 1_555
C1_5 H1_5 1_555 1_555
N1_5 Cu1_5 1_555 1_555
C2_5 C3_5 1_555 1_555
C3_5 C1_5 1_555 1_555
O5_5 Cu1_5 1_555 1_555
O6_5 C2_5 1_555 1_555
C4_5 C3_5 1_555 1_555
H2_5 C4_5 1_555 1_555
N2_5 N1_5 1_555 1_555
C5_5 H3_5 1_555 1_555
N14_3 C5_5 1_555 1_555
C6_5 O36_4 1_555 1_555
C7_5 C5_5 1_555 1_555
O11_5 C6_5 1_555 1_555
C8_5 C7_5 1_555 1_555
H4_5 C8_5 1_555 1_555
N4_5 N14_3 1_555 1_555
Yb5_4 O6_5 1_555 1_555
O14_5 Yb5_4 1_555 1_555
O15_5 Yb5_4 1_555 1_555
O16_5 Cu9_4 1_555 1_555
Cu4_5 N7_5 1_555 1_555
O18_5 Yb5_4 1_555 1_555
C13_5 H7_5 1_555 1_555
N7_5 C13_5 1_555 1_555
C14_5 O18_5 1_555 1_555
C15_5 C13_5 1_555 1_555
O19_5 Yb5_4 1_555 1_555
O20_5 Yb5_4 1_555 1_555
O21_5 Cu4_5 1_555 1_555
C16_5 C15_5 1_555 1_555
H8_5 C16_5 1_555 1_555
N8_5 N7_5 1_555 1_555
Cu5_5 N8_5 1_555 1_555
O23_5 Cu5_5 1_555 1_555
Yb4_2 O24_5 1_555 1_555
O24_5 C18_5 1_555 1_555
C17_5 H9_5 1_555 1_555
N9_5 Cu1_5 1_555 1_555
C18_5 C19_5 1_555 1_555
C19_5 C17_5 1_555 1_555
O25_5 Yb4_2 1_555 1_555
O26_5 Yb4_2 1_555 1_555
O27_5 C18_5 1_555 1_555
C20_5 C19_5 1_555 1_555
H10_5 C20_5 1_555 1_555
N10_5 N9_5 1_555 1_555
O31_5 Yb4_2 1_555 1_555
O32_5 Yb4_2 1_555 1_555
Yb6_2 O27_5 1_555 1_555
Cu7_5 N2_5 1_555 1_555
Cu8_5 N4_5 1_555 1_555
Cu9_5 O1_5 1_555 1_555
O33_5 Cu4_5 1_555 1_555
O35_5 Yb4_2 1_555 1_555
O36_5 Yb4_2 1_555 1_555
N14_5 Cu5_5 1_555 1_555
N15_5 Cu4_5 1_555 1_555
N16_5 Cu9_4 1_555 1_555
C1_5 N1_5 1_555 1_555
C4_5 N2_5 1_555 1_555
C6_5 C7_5 1_555 1_555
O11_5 Yb5_4 1_555 1_555
C8_5 N4_5 1_555 1_555
C14_5 C15_5 1_555 1_555
C14_5 O37_4 1_555 1_555
C16_5 N8_5 1_555 1_555
Cu5_5 O33_5 1_555 1_555
C17_5 N9_5 1_555 1_555
C20_5 N10_5 1_555 1_555
N10_5 Cu9_5 1_555 1_555
Cu8_5 O33_3 1_555 1_555
Cu1_6 O1_6 1_555 1_555
O1_6 Cu7_6 1_555 1_555
O35 C2_6 1_555 1_555
C1_6 H1_6 1_555 1_555
N1_6 Cu1_6 1_555 1_555
C2_6 C3_6 1_555 1_555
C3_6 C1_6 1_555 1_555
O5_6 Cu1_6 1_555 1_555
O6_6 C2_6 1_555 1_555
C4_6 C3_6 1_555 1_555
H2_6 C4_6 1_555 1_555
N2_6 N1_6 1_555 1_555
C5_6 H3_6 1_555 1_555
N14_2 C5_6 1_555 1_555
C6_6 O36 1_555 1_555
C7_6 C5_6 1_555 1_555
O11_6 C6_6 1_555 1_555
C8_6 C7_6 1_555 1_555
H4_6 C8_6 1_555 1_555
N4_6 N14_2 1_555 1_555
Yb5 O6_6 1_555 1_555
O14_6 Yb5 1_555 1_555
O15_6 Yb5 1_555 1_555
O16_6 Cu9 1_555 1_555
Cu4_6 N7_6 1_555 1_555
O18_6 Yb5 1_555 1_555
C13_6 H7_6 1_555 1_555
N7_6 C13_6 1_555 1_555
C14_6 O18_6 1_555 1_555
C15_6 C13_6 1_555 1_555
O19_6 Yb5 1_555 1_555
O20_6 Yb5 1_555 1_555
O21_6 Cu4_6 1_555 1_555
C16_6 C15_6 1_555 1_555
H8_6 C16_6 1_555 1_555
N8_6 N7_6 1_555 1_555
Cu5_6 N8_6 1_555 1_555
O23_6 Cu5_6 1_555 1_555
Yb4_3 O24_6 1_555 1_555
O24_6 C18_6 1_555 1_555
C17_6 H9_6 1_555 1_555
N9_6 Cu1_6 1_555 1_555
C18_6 C19_6 1_555 1_555
C19_6 C17_6 1_555 1_555
O25_6 Yb4_3 1_555 1_555
O26_6 Yb4_3 1_555 1_555
O27_6 C18_6 1_555 1_555
C20_6 C19_6 1_555 1_555
H10_6 C20_6 1_555 1_555
N10_6 N9_6 1_555 1_555
O31_6 Yb4_3 1_555 1_555
O32_6 Yb4_3 1_555 1_555
Yb6_3 O27_6 1_555 1_555
Cu7_6 N2_6 1_555 1_555
Cu8_6 N4_6 1_555 1_555
Cu9_6 O1_6 1_555 1_555
O33_6 Cu4_6 1_555 1_555
O35_6 Yb4_3 1_555 1_555
O36_6 Yb4_3 1_555 1_555
N14_6 Cu5_6 1_555 1_555
N15_6 Cu4_6 1_555 1_555
N16_6 Cu9 1_555 1_555
C1_6 N1_6 1_555 1_555
C4_6 N2_6 1_555 1_555
C6_6 C7_6 1_555 1_555
O11_6 Yb5 1_555 1_555
C8_6 N4_6 1_555 1_555
C14_6 C15_6 1_555 1_555
C14_6 O37 1_555 1_555
C16_6 N8_6 1_555 1_555
Cu5_6 O33_6 1_555 1_555
C17_6 N9_6 1_555 1_555
C20_6 N10_6 1_555 1_555
N10_6 Cu9_6 1_555 1_555
Cu8_6 O33_2 1_555 1_555
Cu1_7 O1_7 1_555 1_555
O1_7 Cu7_7 1_555 1_555
O35_3 C2_7 1_555 1_555
C1_7 H1_7 1_555 1_555
N1_7 Cu1_7 1_555 1_555
C2_7 C3_7 1_555 1_555
C3_7 C1_7 1_555 1_555
O5_7 Cu1_7 1_555 1_555
O6_7 C2_7 1_555 1_555
C4_7 C3_7 1_555 1_555
H2_7 C4_7 1_555 1_555
N2_7 N1_7 1_555 1_555
C5_7 H3_7 1_555 1_555
N14_4 C5_7 1_555 1_555
C6_7 O36_3 1_555 1_555
C7_7 C5_7 1_555 1_555
O11_7 C6_7 1_555 1_555
C8_7 C7_7 1_555 1_555
H4_7 C8_7 1_555 1_555
N4_7 N14_4 1_555 1_555
Yb5_3 O6_7 1_555 1_555
O14_7 Yb5_3 1_555 1_555
O15_7 Yb5_3 1_555 1_555
O16_7 Cu9_3 1_555 1_555
Cu4_7 N7_7 1_555 1_555
O18_7 Yb5_3 1_555 1_555
C13_7 H7_7 1_555 1_555
N7_7 C13_7 1_555 1_555
C14_7 O18_7 1_555 1_555
C15_7 C13_7 1_555 1_555
O19_7 Yb5_3 1_555 1_555
O20_7 Yb5_3 1_555 1_555
O21_7 Cu4_7 1_555 1_555
C16_7 C15_7 1_555 1_555
H8_7 C16_7 1_555 1_555
N8_7 N7_7 1_555 1_555
Cu5_7 N8_7 1_555 1_555
O23_7 Cu5_7 1_555 1_555
Yb4 O24_7 1_555 1_555
O24_7 C18_7 1_555 1_555
C17_7 H9_7 1_555 1_555
N9_7 Cu1_7 1_555 1_555
C18_7 C19_7 1_555 1_555
C19_7 C17_7 1_555 1_555
O25_7 Yb4 1_555 1_555
O26_7 Yb4 1_555 1_555
O27_7 C18_7 1_555 1_555
C20_7 C19_7 1_555 1_555
H10_7 C20_7 1_555 1_555
N10_7 N9_7 1_555 1_555
O31_7 Yb4 1_555 1_555
O32_7 Yb4 1_555 1_555
Yb6 O27_7 1_555 1_555
Cu7_7 N2_7 1_555 1_555
Cu8_7 N4_7 1_555 1_555
Cu9_7 O1_7 1_555 1_555
O33_7 Cu4_7 1_555 1_555
O35_7 Yb4 1_555 1_555
O36_7 Yb4 1_555 1_555
N14_7 Cu5_7 1_555 1_555
N15_7 Cu4_7 1_555 1_555
N16_7 Cu9_3 1_555 1_555
C1_7 N1_7 1_555 1_555
C4_7 N2_7 1_555 1_555
C6_7 C7_7 1_555 1_555
O11_7 Yb5_3 1_555 1_555
C8_7 N4_7 1_555 1_555
C14_7 C15_7 1_555 1_555
C14_7 O37_3 1_555 1_555
C16_7 N8_7 1_555 1_555
Cu5_7 O33_7 1_555 1_555
C17_7 N9_7 1_555 1_555
C20_7 N10_7 1_555 1_555
N10_7 Cu9_7 1_555 1_555
Cu8_7 O33_4 1_555 1_555
Cu1_8 O1_8 1_555 1_555
O1_8 Cu7_8 1_555 1_555
O35_2 C2_8 1_555 1_555
C1_8 H1_8 1_555 1_555
N1_8 Cu1_8 1_555 1_555
C2_8 C3_8 1_555 1_555
C3_8 C1_8 1_555 1_555
O5_8 Cu1_8 1_555 1_555
O6_8 C2_8 1_555 1_555
C4_8 C3_8 1_555 1_555
H2_8 C4_8 1_555 1_555
N2_8 N1_8 1_555 1_555
C5_8 H3_8 1_555 1_555
N14 C5_8 1_555 1_555
C6_8 O36_2 1_555 1_555
C7_8 C5_8 1_555 1_555
O11_8 C6_8 1_555 1_555
C8_8 C7_8 1_555 1_555
H4_8 C8_8 1_555 1_555
N4_8 N14 1_555 1_555
Yb5_2 O6_8 1_555 1_555
O14_8 Yb5_2 1_555 1_555
O15_8 Yb5_2 1_555 1_555
O16_8 Cu9_2 1_555 1_555
Cu4_8 N7_8 1_555 1_555
O18_8 Yb5_2 1_555 1_555
C13_8 H7_8 1_555 1_555
N7_8 C13_8 1_555 1_555
C14_8 O18_8 1_555 1_555
C15_8 C13_8 1_555 1_555
O19_8 Yb5_2 1_555 1_555
O20_8 Yb5_2 1_555 1_555
O21_8 Cu4_8 1_555 1_555
C16_8 C15_8 1_555 1_555
H8_8 C16_8 1_555 1_555
N8_8 N7_8 1_555 1_555
Cu5_8 N8_8 1_555 1_555
O23_8 Cu5_8 1_555 1_555
Yb4_4 O24_8 1_555 1_555
O24_8 C18_8 1_555 1_555
C17_8 H9_8 1_555 1_555
N9_8 Cu1_8 1_555 1_555
C18_8 C19_8 1_555 1_555
C19_8 C17_8 1_555 1_555
O25_8 Yb4_4 1_555 1_555
O26_8 Yb4_4 1_555 1_555
O27_8 C18_8 1_555 1_555
C20_8 C19_8 1_555 1_555
H10_8 C20_8 1_555 1_555
N10_8 N9_8 1_555 1_555
O31_8 Yb4_4 1_555 1_555
O32_8 Yb4_4 1_555 1_555
Yb6_4 O27_8 1_555 1_555
Cu7_8 N2_8 1_555 1_555
Cu8_8 N4_8 1_555 1_555
Cu9_8 O1_8 1_555 1_555
O33_8 Cu4_8 1_555 1_555
O35_8 Yb4_4 1_555 1_555
O36_8 Yb4_4 1_555 1_555
N14_8 Cu5_8 1_555 1_555
N15_8 Cu4_8 1_555 1_555
N16_8 Cu9_2 1_555 1_555
C1_8 N1_8 1_555 1_555
C4_8 N2_8 1_555 1_555
C6_8 C7_8 1_555 1_555
O11_8 Yb5_2 1_555 1_555
C8_8 N4_8 1_555 1_555
C14_8 C15_8 1_555 1_555
C14_8 O37_2 1_555 1_555
C16_8 N8_8 1_555 1_555
Cu5_8 O33_8 1_555 1_555
C17_8 N9_8 1_555 1_555
C20_8 N10_8 1_555 1_555
N10_8 Cu9_8 1_555 1_555
Cu8_8 O33 1_555 1_555
O35_8 C2_9 1_555 1_555
C1_9 H1_9 1_555 1_555
C2_9 C3_9 1_555 1_555
C3_9 C1_9 1_555 1_555
O6_9 C2_9 1_555 1_555
C4_9 C3_9 1_555 1_555
H2_9 C4_9 1_555 1_555
N2_9 N13_2 1_555 1_555
C5_9 H3_9 1_555 1_555
N14_7 C5_9 1_555 1_555
C6_9 O36_8 1_555 1_555
C7_9 C5_9 1_555 1_555
O11_9 C6_9 1_555 1_555
C8_9 C7_9 1_555 1_555
H4_9 C8_9 1_555 1_555
N4_9 N14_7 1_555 1_555
Yb6_4 O6_9 1_555 1_555
O14_9 Yb6_4 1_555 1_555
O15_9 Yb6_4 1_555 1_555
O16_9 Cu9_8 1_555 1_555
O19_9 Yb6_4 1_555 1_555
O20_9 Yb6_4 1_555 1_555
O21_9 Cu11_4 1_555 1_555
Cu10_2 N2_9 1_555 1_555
Cu8_9 N4_9 1_555 1_555
N15_9 Cu11_4 1_555 1_555
N16_9 Cu9_8 1_555 1_555
C1_9 N13_2 1_555 1_555
C4_9 N2_9 1_555 1_555
C6_9 C7_9 1_555 1_555
O11_9 Yb6_4 1_555 1_555
C8_9 N4_9 1_555 1_555
Cu8_9 O33_7 1_555 1_555
O35_5 C2_10 1_555 1_555
C1_10 H1_10 1_555 1_555
C2_10 C3_10 1_555 1_555
C3_10 C1_10 1_555 1_555
O6_10 C2_10 1_555 1_555
C4_10 C3_10 1_555 1_555
H2_10 C4_10 1_555 1_555
N2_10 N13_4 1_555 1_555
C5_10 H3_10 1_555 1_555
N14_6 C5_10 1_555 1_555
C6_10 O36_5 1_555 1_555
C7_10 C5_10 1_555 1_555
O11_10 C6_10 1_555 1_555
C8_10 C7_10 1_555 1_555
H4_10 C8_10 1_555 1_555
N4_10 N14_6 1_555 1_555
Yb6_2 O6_10 1_555 1_555
O14_10 Yb6_2 1_555 1_555
O15_10 Yb6_2 1_555 1_555
O16_10 Cu9_5 1_555 1_555
O19_10 Yb6_2 1_555 1_555
O20_10 Yb6_2 1_555 1_555
O21_10 Cu11_2 1_555 1_555
Cu10_4 N2_10 1_555 1_555
Cu8_10 N4_10 1_555 1_555
N15_10 Cu11_2 1_555 1_555
N16_10 Cu9_5 1_555 1_555
C1_10 N13_4 1_555 1_555
C4_10 N2_10 1_555 1_555
C6_10 C7_10 1_555 1_555
O11_10 Yb6_2 1_555 1_555
C8_10 N4_10 1_555 1_555
Cu8_10 O33_6 1_555 1_555
O35_7 C2_11 1_555 1_555
C1_11 H1_11 1_555 1_555
C2_11 C3_11 1_555 1_555
C3_11 C1_11 1_555 1_555
O6_11 C2_11 1_555 1_555
C4_11 C3_11 1_555 1_555
H2_11 C4_11 1_555 1_555
N2_11 N13_3 1_555 1_555
C5_11 H3_11 1_555 1_555
N14_8 C5_11 1_555 1_555
C6_11 O36_7 1_555 1_555
C7_11 C5_11 1_555 1_555
O11_11 C6_11 1_555 1_555
C8_11 C7_11 1_555 1_555
H4_11 C8_11 1_555 1_555
N4_11 N14_8 1_555 1_555
Yb6 O6_11 1_555 1_555
O14_11 Yb6 1_555 1_555
O15_11 Yb6 1_555 1_555
O16_11 Cu9_7 1_555 1_555
O19_11 Yb6 1_555 1_555
O20_11 Yb6 1_555 1_555
O21_11 Cu11 1_555 1_555
Cu10_3 N2_11 1_555 1_555
Cu8_11 N4_11 1_555 1_555
N15_11 Cu11 1_555 1_555
N16_11 Cu9_7 1_555 1_555
C1_11 N13_3 1_555 1_555
C4_11 N2_11 1_555 1_555
C6_11 C7_11 1_555 1_555
O11_11 Yb6 1_555 1_555
C8_11 N4_11 1_555 1_555
Cu8_11 O33_8 1_555 1_555
O35_6 C2_12 1_555 1_555
C1_12 H1_12 1_555 1_555
C2_12 C3_12 1_555 1_555
C3_12 C1_12 1_555 1_555
O6_12 C2_12 1_555 1_555
C4_12 C3_12 1_555 1_555
H2_12 C4_12 1_555 1_555
N2_12 N13 1_555 1_555
C5_12 H3_12 1_555 1_555
N14_5 C5_12 1_555 1_555
C6_12 O36_6 1_555 1_555
C7_12 C5_12 1_555 1_555
O11_12 C6_12 1_555 1_555
C8_12 C7_12 1_555 1_555
H4_12 C8_12 1_555 1_555
N4_12 N14_5 1_555 1_555
Yb6_3 O6_12 1_555 1_555
O14_12 Yb6_3 1_555 1_555
O15_12 Yb6_3 1_555 1_555
O16_12 Cu9_6 1_555 1_555
O19_12 Yb6_3 1_555 1_555
O20_12 Yb6_3 1_555 1_555
O21_12 Cu11_3 1_555 1_555
Cu10 N2_12 1_555 1_555
Cu8_12 N4_12 1_555 1_555
N15_12 Cu11_3 1_555 1_555
N16_12 Cu9_6 1_555 1_555
C1_12 N13 1_555 1_555
C4_12 N2_12 1_555 1_555
C6_12 C7_12 1_555 1_555
O11_12 Yb6_3 1_555 1_555
C8_12 N4_12 1_555 1_555
Cu8_12 O33_5 1_555 1_555
O23_9 Cu8_4 1_555 1_555
Yb3_5 O24_9 1_555 1_555
O24_9 C18_9 1_555 1_555
C17_9 H9_9 1_555 1_555
C18_9 C19_9 1_555 1_555
C19_9 C17_9 1_555 1_555
O25_9 Yb3_5 1_555 1_555
O27_9 C18_9 1_555 1_555
C20_9 C19_9 1_555 1_555
H10_9 C20_9 1_555 1_555
N10_9 N16_4 1_555 1_555
O28_5 Cu7_4 1_555 1_555
O29_5 C22_5 1_555 1_555
C21_5 H11_5 1_555 1_555
C22_5 C23_5 1_555 1_555
C23_5 C21_5 1_555 1_555
O30_5 C22_5 1_555 1_555
C24_5 C23_5 1_555 1_555
H12_5 C24_5 1_555 1_555
N12_5 N15_4 1_555 1_555
O31_9 Yb3_5 1_555 1_555
O32_9 Yb3_5 1_555 1_555
Yb4_6 O29_5 1_555 1_555
Yb5_5 O27_9 1_555 1_555
Yb6_6 O30_5 1_555 1_555
Cu8_7 N12_5 1_555 1_555
O35_9 Yb3_5 1_555 1_555
N13_5 Cu7_4 1_555 1_555
N14_9 Cu8_4 1_555 1_555
C17_9 N16_4 1_555 1_555
C20_9 N10_9 1_555 1_555
N10_9 Cu10_4 1_555 1_555
C21_5 N15_4 1_555 1_555
C24_5 N12_5 1_555 1_555
O25_10 Yb3_6 1_555 1_555
O26_9 Yb3_6 1_555 1_555
O31_10 Yb3_6 1_555 1_555
O36_9 Yb3_6 1_555 1_555
O37_5 Yb3_6 1_555 1_555
O25_11 Yb3_7 1_555 1_555
O26_10 Yb3_7 1_555 1_555
O31_11 Yb3_7 1_555 1_555
O36_10 Yb3_7 1_555 1_555
O37_6 Yb3_7 1_555 1_555
O23_10 Cu8_3 1_555 1_555
Yb3_8 O24_10 1_555 1_555
O24_10 C18_10 1_555 1_555
C17_10 H9_10 1_555 1_555
C18_10 C19_10 1_555 1_555
C19_10 C17_10 1_555 1_555
O25_12 Yb3_8 1_555 1_555
O27_10 C18_10 1_555 1_555
C20_10 C19_10 1_555 1_555
H10_10 C20_10 1_555 1_555
N10_10 N16_3 1_555 1_555
O28_6 Cu7_3 1_555 1_555
O29_6 C22_6 1_555 1_555
C21_6 H11_6 1_555 1_555
C22_6 C23_6 1_555 1_555
C23_6 C21_6 1_555 1_555
O30_6 C22_6 1_555 1_555
C24_6 C23_6 1_555 1_555
H12_6 C24_6 1_555 1_555
N12_6 N15_3 1_555 1_555
O31_12 Yb3_8 1_555 1_555
O32_10 Yb3_8 1_555 1_555
Yb4_8 O29_6 1_555 1_555
Yb5_8 O27_10 1_555 1_555
Yb6_8 O30_6 1_555 1_555
Cu8_5 N12_6 1_555 1_555
O35_10 Yb3_8 1_555 1_555
N13_6 Cu7_3 1_555 1_555
N14_10 Cu8_3 1_555 1_555
C17_10 N16_3 1_555 1_555
C20_10 N10_10 1_555 1_555
N10_10 Cu10_3 1_555 1_555
C21_6 N15_3 1_555 1_555
C24_6 N12_6 1_555 1_555
O23_11 Cu8_2 1_555 1_555
Yb3_9 O24_11 1_555 1_555
O24_11 C18_11 1_555 1_555
C17_11 H9_11 1_555 1_555
C18_11 C19_11 1_555 1_555
C19_11 C17_11 1_555 1_555
O25_13 Yb3_9 1_555 1_555
O27_11 C18_11 1_555 1_555
C20_11 C19_11 1_555 1_555
H10_11 C20_11 1_555 1_555
N10_11 N16_2 1_555 1_555
O28_7 Cu7_2 1_555 1_555
O29_7 C22_7 1_555 1_555
C21_7 H11_7 1_555 1_555
C22_7 C23_7 1_555 1_555
C23_7 C21_7 1_555 1_555
O30_7 C22_7 1_555 1_555
C24_7 C23_7 1_555 1_555
H12_7 C24_7 1_555 1_555
N12_7 N15_2 1_555 1_555
O31_13 Yb3_9 1_555 1_555
O32_11 Yb3_9 1_555 1_555
Yb4_9 O29_7 1_555 1_555
Yb5_9 O27_11 1_555 1_555
Yb6_9 O30_7 1_555 1_555
Cu8_6 N12_7 1_555 1_555
O35_11 Yb3_9 1_555 1_555
N13_7 Cu7_2 1_555 1_555
N14_11 Cu8_2 1_555 1_555
C17_11 N16_2 1_555 1_555
C20_11 N10_11 1_555 1_555
N10_11 Cu10_2 1_555 1_555
C21_7 N15_2 1_555 1_555
C24_7 N12_7 1_555 1_555
O25_14 Yb3_10 1_555 1_555
O26_11 Yb3_10 1_555 1_555
O31_14 Yb3_10 1_555 1_555
O36_11 Yb3_10 1_555 1_555
O37_7 Yb3_10 1_555 1_555
O25_15 Yb3_11 1_555 1_555
O26_12 Yb3_11 1_555 1_555
O31_15 Yb3_11 1_555 1_555
O36_12 Yb3_11 1_555 1_555
O37_8 Yb3_11 1_555 1_555
O23_12 Cu8 1_555 1_555
Yb3_12 O24_12 1_555 1_555
O24_12 C18_12 1_555 1_555
C17_12 H9_12 1_555 1_555
C18_12 C19_12 1_555 1_555
C19_12 C17_12 1_555 1_555
O25_16 Yb3_12 1_555 1_555
O27_12 C18_12 1_555 1_555
C20_12 C19_12 1_555 1_555
H10_12 C20_12 1_555 1_555
N10_12 N16 1_555 1_555
O28_8 Cu7 1_555 1_555
O29_8 C22_8 1_555 1_555
C21_8 H11_8 1_555 1_555
C22_8 C23_8 1_555 1_555
C23_8 C21_8 1_555 1_555
O30_8 C22_8 1_555 1_555
C24_8 C23_8 1_555 1_555
H12_8 C24_8 1_555 1_555
N12_8 N15 1_555 1_555
O31_16 Yb3_12 1_555 1_555
O32_12 Yb3_12 1_555 1_555
Yb4_11 O29_8 1_555 1_555
Yb5_12 O27_12 1_555 1_555
Yb6_11 O30_8 1_555 1_555
Cu8_8 N12_8 1_555 1_555
O35_12 Yb3_12 1_555 1_555
N13_8 Cu7 1_555 1_555
N14_12 Cu8 1_555 1_555
C17_12 N16 1_555 1_555
C20_12 N10_12 1_555 1_555
N10_12 Cu10 1_555 1_555
C21_8 N15 1_555 1_555
C24_8 N12_8 1_555 1_555
C5_13 H3_13 1_555 1_555
N14_11 C5_13 1_555 1_555
C6_13 O36_12 1_555 1_555
C7_13 C5_13 1_555 1_555
O11_13 C6_13 1_555 1_555
C8_13 C7_13 1_555 1_555
H4_13 C8_13 1_555 1_555
N15_10 N14_11 1_555 1_555
O14_13 Yb5_11 1_555 1_555
O15_13 Yb5_11 1_555 1_555
Cu4_9 N7_9 1_555 1_555
O18_9 Yb5_11 1_555 1_555
C13_9 H7_9 1_555 1_555
N7_9 C13_9 1_555 1_555
C14_9 O18_9 1_555 1_555
C15_9 C13_9 1_555 1_555
O19_13 Yb5_11 1_555 1_555
O21_13 Cu4_9 1_555 1_555
C16_9 C15_9 1_555 1_555
H8_9 C16_9 1_555 1_555
N8_9 N7_9 1_555 1_555
Cu5_9 N8_9 1_555 1_555
O23_13 Cu5_9 1_555 1_555
O33_9 Cu4_9 1_555 1_555
N14_13 Cu5_9 1_555 1_555
N15_13 Cu4_9 1_555 1_555
C6_13 C7_13 1_555 1_555
O11_13 Yb5_11 1_555 1_555
C8_13 N15_10 1_555 1_555
C14_9 C15_9 1_555 1_555
C14_9 O37_8 1_555 1_555
C16_9 N8_9 1_555 1_555
Cu5_9 O33_9 1_555 1_555
Cu1_9 O1_9 1_555 1_555
O1_9 Cu7_9 1_555 1_555
O35_12 C2_13 1_555 1_555
C1_13 H1_13 1_555 1_555
N1_9 Cu1_9 1_555 1_555
C2_13 C3_13 1_555 1_555
C3_13 C1_13 1_555 1_555
O5_9 Cu1_9 1_555 1_555
O6_13 C2_13 1_555 1_555
C4_13 C3_13 1_555 1_555
H2_13 C4_13 1_555 1_555
N2_13 N1_9 1_555 1_555
Yb5_12 O6_13 1_555 1_555
O14_14 Yb5_12 1_555 1_555
O16_13 Cu10 1_555 1_555
O19_14 Yb5_12 1_555 1_555
O20_13 Yb5_12 1_555 1_555
Yb4_7 O24_13 1_555 1_555
O24_13 C18_13 1_555 1_555
C17_13 H9_13 1_555 1_555
N9_9 Cu1_9 1_555 1_555
C18_13 C19_13 1_555 1_555
C19_13 C17_13 1_555 1_555
O25_17 Yb4_7 1_555 1_555
O27_13 C18_13 1_555 1_555
C20_13 C19_13 1_555 1_555
H10_13 C20_13 1_555 1_555
N10_13 N9_9 1_555 1_555
O31_17 Yb4_7 1_555 1_555
O32_13 Yb4_7 1_555 1_555
Yb6_7 O27_13 1_555 1_555
Cu7_9 N2_13 1_555 1_555
Cu9_9 O1_9 1_555 1_555
O35_13 Yb4_7 1_555 1_555
C1_13 N1_9 1_555 1_555
C4_13 N2_13 1_555 1_555
C17_13 N9_9 1_555 1_555
C20_13 N10_13 1_555 1_555
N10_13 Cu9_9 1_555 1_555
O25_18 Yb4_8 1_555 1_555
O26_13 Yb4_8 1_555 1_555
O31_18 Yb4_8 1_555 1_555
O36_13 Yb4_8 1_555 1_555
O25_19 Yb4_9 1_555 1_555
O26_14 Yb4_9 1_555 1_555
O31_19 Yb4_9 1_555 1_555
O36_14 Yb4_9 1_555 1_555
Cu1_10 O1_10 1_555 1_555
O1_10 Cu7_10 1_555 1_555
O35_9 C2_14 1_555 1_555
C1_14 H1_14 1_555 1_555
N1_10 Cu1_10 1_555 1_555
C2_14 C3_14 1_555 1_555
C3_14 C1_14 1_555 1_555
O5_10 Cu1_10 1_555 1_555
O6_14 C2_14 1_555 1_555
C4_14 C3_14 1_555 1_555
H2_14 C4_14 1_555 1_555
N2_14 N1_10 1_555 1_555
Yb5_5 O6_14 1_555 1_555
O14_15 Yb5_5 1_555 1_555
O16_14 Cu10_4 1_555 1_555
O19_15 Yb5_5 1_555 1_555
O20_14 Yb5_5 1_555 1_555
Yb4_10 O24_14 1_555 1_555
O24_14 C18_14 1_555 1_555
C17_14 H9_14 1_555 1_555
N9_10 Cu1_10 1_555 1_555
C18_14 C19_14 1_555 1_555
C19_14 C17_14 1_555 1_555
O25_20 Yb4_10 1_555 1_555
O27_14 C18_14 1_555 1_555
C20_14 C19_14 1_555 1_555
H10_14 C20_14 1_555 1_555
N10_14 N9_10 1_555 1_555
O31_20 Yb4_10 1_555 1_555
O32_14 Yb4_10 1_555 1_555
Yb6_10 O27_14 1_555 1_555
Cu7_10 N2_14 1_555 1_555
Cu9_10 O1_10 1_555 1_555
O35_14 Yb4_10 1_555 1_555
C1_14 N1_10 1_555 1_555
C4_14 N2_14 1_555 1_555
C17_14 N9_10 1_555 1_555
C20_14 N10_14 1_555 1_555
N10_14 Cu9_10 1_555 1_555
C5_14 H3_14 1_555 1_555
N14_10 C5_14 1_555 1_555
C6_14 O36_9 1_555 1_555
C7_14 C5_14 1_555 1_555
O11_14 C6_14 1_555 1_555
C8_14 C7_14 1_555 1_555
H4_14 C8_14 1_555 1_555
N15_12 N14_10 1_555 1_555
O14_16 Yb5_6 1_555 1_555
O15_14 Yb5_6 1_555 1_555
Cu4_10 N7_10 1_555 1_555
O18_10 Yb5_6 1_555 1_555
C13_10 H7_10 1_555 1_555
N7_10 C13_10 1_555 1_555
C14_10 O18_10 1_555 1_555
C15_10 C13_10 1_555 1_555
O19_16 Yb5_6 1_555 1_555
O21_14 Cu4_10 1_555 1_555
C16_10 C15_10 1_555 1_555
H8_10 C16_10 1_555 1_555
N8_10 N7_10 1_555 1_555
Cu5_10 N8_10 1_555 1_555
O23_14 Cu5_10 1_555 1_555
O33_10 Cu4_10 1_555 1_555
N14_14 Cu5_10 1_555 1_555
N15_14 Cu4_10 1_555 1_555
C6_14 C7_14 1_555 1_555
O11_14 Yb5_6 1_555 1_555
C8_14 N15_12 1_555 1_555
C14_10 C15_10 1_555 1_555
C14_10 O37_5 1_555 1_555
C16_10 N8_10 1_555 1_555
Cu5_10 O33_10 1_555 1_555
Cu1_11 O1_11 1_555 1_555
O1_11 Cu7_11 1_555 1_555
O35_11 C2_15 1_555 1_555
C1_15 H1_15 1_555 1_555
N1_11 Cu1_11 1_555 1_555
C2_15 C3_15 1_555 1_555
C3_15 C1_15 1_555 1_555
O5_11 Cu1_11 1_555 1_555
O6_15 C2_15 1_555 1_555
C4_15 C3_15 1_555 1_555
H2_15 C4_15 1_555 1_555
N2_15 N1_11 1_555 1_555
Yb5_9 O6_15 1_555 1_555
O14_17 Yb5_9 1_555 1_555
O16_15 Cu10_2 1_555 1_555
O19_17 Yb5_9 1_555 1_555
O20_15 Yb5_9 1_555 1_555
Yb4_5 O24_15 1_555 1_555
O24_15 C18_15 1_555 1_555
C17_15 H9_15 1_555 1_555
N9_11 Cu1_11 1_555 1_555
C18_15 C19_15 1_555 1_555
C19_15 C17_15 1_555 1_555
O25_21 Yb4_5 1_555 1_555
O27_15 C18_15 1_555 1_555
C20_15 C19_15 1_555 1_555
H10_15 C20_15 1_555 1_555
N10_15 N9_11 1_555 1_555
O31_21 Yb4_5 1_555 1_555
O32_15 Yb4_5 1_555 1_555
Yb6_5 O27_15 1_555 1_555
Cu7_11 N2_15 1_555 1_555
Cu9_11 O1_11 1_555 1_555
O35_15 Yb4_5 1_555 1_555
C1_15 N1_11 1_555 1_555
C4_15 N2_15 1_555 1_555
C17_15 N9_11 1_555 1_555
C20_15 N10_15 1_555 1_555
N10_15 Cu9_11 1_555 1_555
O25_22 Yb4_6 1_555 1_555
O26_15 Yb4_6 1_555 1_555
O31_22 Yb4_6 1_555 1_555
O36_15 Yb4_6 1_555 1_555
C5_15 H3_15 1_555 1_555
N14_12 C5_15 1_555 1_555
C6_15 O36_11 1_555 1_555
C7_15 C5_15 1_555 1_555
O11_15 C6_15 1_555 1_555
C8_15 C7_15 1_555 1_555
H4_15 C8_15 1_555 1_555
N15_11 N14_12 1_555 1_555
O14_18 Yb5_10 1_555 1_555
O15_15 Yb5_10 1_555 1_555
Cu4_11 N7_11 1_555 1_555
O18_11 Yb5_10 1_555 1_555
C13_11 H7_11 1_555 1_555
N7_11 C13_11 1_555 1_555
C14_11 O18_11 1_555 1_555
C15_11 C13_11 1_555 1_555
O19_18 Yb5_10 1_555 1_555
O21_15 Cu4_11 1_555 1_555
C16_11 C15_11 1_555 1_555
H8_11 C16_11 1_555 1_555
N8_11 N7_11 1_555 1_555
Cu5_11 N8_11 1_555 1_555
O23_15 Cu5_11 1_555 1_555
O33_11 Cu4_11 1_555 1_555
N14_15 Cu5_11 1_555 1_555
N15_15 Cu4_11 1_555 1_555
C6_15 C7_15 1_555 1_555
O11_15 Yb5_10 1_555 1_555
C8_15 N15_11 1_555 1_555
C14_11 C15_11 1_555 1_555
C14_11 O37_7 1_555 1_555
C16_11 N8_11 1_555 1_555
Cu5_11 O33_11 1_555 1_555
C5_16 H3_16 1_555 1_555
N14_9 C5_16 1_555 1_555
C6_16 O36_10 1_555 1_555
C7_16 C5_16 1_555 1_555
O11_16 C6_16 1_555 1_555
C8_16 C7_16 1_555 1_555
H4_16 C8_16 1_555 1_555
N15_9 N14_9 1_555 1_555
O14_19 Yb5_7 1_555 1_555
O15_16 Yb5_7 1_555 1_555
Cu4_12 N7_12 1_555 1_555
O18_12 Yb5_7 1_555 1_555
C13_12 H7_12 1_555 1_555
N7_12 C13_12 1_555 1_555
C14_12 O18_12 1_555 1_555
C15_12 C13_12 1_555 1_555
O19_19 Yb5_7 1_555 1_555
O21_16 Cu4_12 1_555 1_555
C16_12 C15_12 1_555 1_555
H8_12 C16_12 1_555 1_555
N8_12 N7_12 1_555 1_555
Cu5_12 N8_12 1_555 1_555
O23_16 Cu5_12 1_555 1_555
O33_12 Cu4_12 1_555 1_555
N14_16 Cu5_12 1_555 1_555
N15_16 Cu4_12 1_555 1_555
C6_16 C7_16 1_555 1_555
O11_16 Yb5_7 1_555 1_555
C8_16 N15_9 1_555 1_555
C14_12 C15_12 1_555 1_555
C14_12 O37_6 1_555 1_555
C16_12 N8_12 1_555 1_555
Cu5_12 O33_12 1_555 1_555
O25_23 Yb4_11 1_555 1_555
O26_16 Yb4_11 1_555 1_555
O31_23 Yb4_11 1_555 1_555
O36_16 Yb4_11 1_555 1_555
Cu1_12 O1_12 1_555 1_555
O1_12 Cu7_12 1_555 1_555
O35_10 C2_16 1_555 1_555
C1_16 H1_16 1_555 1_555
N1_12 Cu1_12 1_555 1_555
C2_16 C3_16 1_555 1_555
C3_16 C1_16 1_555 1_555
O5_12 Cu1_12 1_555 1_555
O6_16 C2_16 1_555 1_555
C4_16 C3_16 1_555 1_555
H2_16 C4_16 1_555 1_555
N2_16 N1_12 1_555 1_555
Yb5_8 O6_16 1_555 1_555
O14_20 Yb5_8 1_555 1_555
O16_16 Cu10_3 1_555 1_555
O19_20 Yb5_8 1_555 1_555
O20_16 Yb5_8 1_555 1_555
Yb4_12 O24_16 1_555 1_555
O24_16 C18_16 1_555 1_555
C17_16 H9_16 1_555 1_555
N9_12 Cu1_12 1_555 1_555
C18_16 C19_16 1_555 1_555
C19_16 C17_16 1_555 1_555
O25_24 Yb4_12 1_555 1_555
O27_16 C18_16 1_555 1_555
C20_16 C19_16 1_555 1_555
H10_16 C20_16 1_555 1_555
N10_16 N9_12 1_555 1_555
O31_24 Yb4_12 1_555 1_555
O32_16 Yb4_12 1_555 1_555
Yb6_12 O27_16 1_555 1_555
Cu7_12 N2_16 1_555 1_555
Cu9_12 O1_12 1_555 1_555
O35_16 Yb4_12 1_555 1_555
C1_16 N1_12 1_555 1_555
C4_16 N2_16 1_555 1_555
C17_16 N9_12 1_555 1_555
C20_16 N10_16 1_555 1_555
N10_16 Cu9_12 1_555 1_555
C5_17 H3_17 1_555 1_555
N14_15 C5_17 1_555 1_555
C6_17 O36_16 1_555 1_555
C7_17 C5_17 1_555 1_555
O11_17 C6_17 1_555 1_555
C8_17 C7_17 1_555 1_555
H4_17 C8_17 1_555 1_555
N4_13 N14_15 1_555 1_555
O14_21 Yb6_11 1_555 1_555
O15_17 Yb6_11 1_555 1_555
O19_21 Yb6_11 1_555 1_555
O21_17 Cu8_8 1_555 1_555
Cu8_13 N4_13 1_555 1_555
C6_17 C7_17 1_555 1_555
O11_17 Yb6_11 1_555 1_555
C8_17 N4_13 1_555 1_555
Cu8_13 O33_11 1_555 1_555
O35_16 C2_17 1_555 1_555
C1_17 H1_17 1_555 1_555
C2_17 C3_17 1_555 1_555
C3_17 C1_17 1_555 1_555
O6_17 C2_17 1_555 1_555
C4_17 C3_17 1_555 1_555
H2_17 C4_17 1_555 1_555
N16_7 N13_6 1_555 1_555
Yb6_12 O6_17 1_555 1_555
O14_22 Yb6_12 1_555 1_555
O16_17 Cu9_12 1_555 1_555
O19_22 Yb6_12 1_555 1_555
O20_17 Yb6_12 1_555 1_555
N16_13 Cu9_12 1_555 1_555
C1_17 N13_6 1_555 1_555
C4_17 N16_7 1_555 1_555
O35_13 C2_18 1_555 1_555
C1_18 H1_18 1_555 1_555
C2_18 C3_18 1_555 1_555
C3_18 C1_18 1_555 1_555
O6_18 C2_18 1_555 1_555
C4_18 C3_18 1_555 1_555
H2_18 C4_18 1_555 1_555
N16_6 N13_8 1_555 1_555
Yb6_7 O6_18 1_555 1_555
O14_23 Yb6_7 1_555 1_555
O16_18 Cu9_9 1_555 1_555
O19_23 Yb6_7 1_555 1_555
O20_18 Yb6_7 1_555 1_555
N16_14 Cu9_9 1_555 1_555
C1_18 N13_8 1_555 1_555
C4_18 N16_6 1_555 1_555
C5_18 H3_18 1_555 1_555
N14_14 C5_18 1_555 1_555
C6_18 O36_13 1_555 1_555
C7_18 C5_18 1_555 1_555
O11_18 C6_18 1_555 1_555
C8_18 C7_18 1_555 1_555
H4_18 C8_18 1_555 1_555
N4_14 N14_14 1_555 1_555
O14_24 Yb6_8 1_555 1_555
O15_18 Yb6_8 1_555 1_555
O19_24 Yb6_8 1_555 1_555
O21_18 Cu8_5 1_555 1_555
Cu8_14 N4_14 1_555 1_555
C6_18 C7_18 1_555 1_555
O11_18 Yb6_8 1_555 1_555
C8_18 N4_14 1_555 1_555
Cu8_14 O33_10 1_555 1_555
O35_15 C2_19 1_555 1_555
C1_19 H1_19 1_555 1_555
C2_19 C3_19 1_555 1_555
C3_19 C1_19 1_555 1_555
O6_19 C2_19 1_555 1_555
C4_19 C3_19 1_555 1_555
H2_19 C4_19 1_555 1_555
N16_8 N13_7 1_555 1_555
Yb6_5 O6_19 1_555 1_555
O14_25 Yb6_5 1_555 1_555
O16_19 Cu9_11 1_555 1_555
O19_25 Yb6_5 1_555 1_555
O20_19 Yb6_5 1_555 1_555
N16_15 Cu9_11 1_555 1_555
C1_19 N13_7 1_555 1_555
C4_19 N16_8 1_555 1_555
C5_19 H3_19 1_555 1_555
N14_16 C5_19 1_555 1_555
C6_19 O36_15 1_555 1_555
C7_19 C5_19 1_555 1_555
O11_19 C6_19 1_555 1_555
C8_19 C7_19 1_555 1_555
H4_19 C8_19 1_555 1_555
N4_15 N14_16 1_555 1_555
O14_26 Yb6_6 1_555 1_555
O15_19 Yb6_6 1_555 1_555
O19_26 Yb6_6 1_555 1_555
O21_19 Cu8_7 1_555 1_555
Cu8_15 N4_15 1_555 1_555
C6_19 C7_19 1_555 1_555
O11_19 Yb6_6 1_555 1_555
C8_19 N4_15 1_555 1_555
Cu8_15 O33_12 1_555 1_555
C5_20 H3_20 1_555 1_555
N14_13 C5_20 1_555 1_555
C6_20 O36_14 1_555 1_555
C7_20 C5_20 1_555 1_555
O11_20 C6_20 1_555 1_555
C8_20 C7_20 1_555 1_555
H4_20 C8_20 1_555 1_555
N4_16 N14_13 1_555 1_555
O14_27 Yb6_9 1_555 1_555
O15_20 Yb6_9 1_555 1_555
O19_27 Yb6_9 1_555 1_555
O21_20 Cu8_6 1_555 1_555
Cu8_16 N4_16 1_555 1_555
C6_20 C7_20 1_555 1_555
O11_20 Yb6_9 1_555 1_555
C8_20 N4_16 1_555 1_555
Cu8_16 O33_9 1_555 1_555
O35_14 C2_20 1_555 1_555
C1_20 H1_20 1_555 1_555
C2_20 C3_20 1_555 1_555
C3_20 C1_20 1_555 1_555
O6_20 C2_20 1_555 1_555
C4_20 C3_20 1_555 1_555
H2_20 C4_20 1_555 1_555
N16_5 N13_5 1_555 1_555
Yb6_10 O6_20 1_555 1_555
O14_28 Yb6_10 1_555 1_555
O16_20 Cu9_10 1_555 1_555
O19_28 Yb6_10 1_555 1_555
O20_20 Yb6_10 1_555 1_555
N16_16 Cu9_10 1_555 1_555
C1_20 N13_5 1_555 1_555
C4_20 N16_5 1_555 1_555
O3_5 Yb1_5 1_555 1_555
O4_5 Yb1_5 1_555 1_555
Cu8_14 N3_5 1_555 1_555
O7_5 Yb1_5 1_555 1_555
C5_21 H3_21 1_555 1_555
N3_5 C5_21 1_555 1_555
C6_21 O7_5 1_555 1_555
C7_21 C5_21 1_555 1_555
O8_5 Yb1_5 1_555 1_555
O10_5 Cu8_14 1_555 1_555
O11_21 C6_21 1_555 1_555
C8_21 C7_21 1_555 1_555
H4_21 C8_21 1_555 1_555
N15_14 N3_5 1_555 1_555
O14_29 Yb2_5 1_555 1_555
O15_21 Yb2_5 1_555 1_555
Cu8_12 N7_13 1_555 1_555
O18_13 Yb2_5 1_555 1_555
C13_13 H7_13 1_555 1_555
N7_13 C13_13 1_555 1_555
C14_13 O18_13 1_555 1_555
C15_13 C13_13 1_555 1_555
O19_29 Yb2_5 1_555 1_555
O21_21 Cu8_12 1_555 1_555
O22_5 Yb1_5 1_555 1_555
C16_13 C15_13 1_555 1_555
H8_13 C16_13 1_555 1_555
N15_5 N7_13 1_555 1_555
C6_21 C7_21 1_555 1_555
O11_21 Yb2_5 1_555 1_555
C8_21 N15_14 1_555 1_555
C14_13 C15_13 1_555 1_555
C14_13 O22_5 1_555 1_555
C16_13 N15_5 1_555 1_555
Yb1_6 O2_5 1_555 1_555
O2_5 C2_21 1_555 1_555
C1_21 H1_21 1_555 1_555
N1_13 Cu7_7 1_555 1_555
C2_21 C3_21 1_555 1_555
C3_21 C1_21 1_555 1_555
O3_6 Yb1_6 1_555 1_555
O5_13 Cu7_7 1_555 1_555
O6_21 C2_21 1_555 1_555
C4_21 C3_21 1_555 1_555
H2_21 C4_21 1_555 1_555
N16_11 N1_13 1_555 1_555
O8_6 Yb1_6 1_555 1_555
O9_5 Yb1_6 1_555 1_555
Yb2_6 O6_21 1_555 1_555
O13_5 Yb2_6 1_555 1_555
C9_5 H5_5 1_555 1_555
N5_5 Cu7_12 1_555 1_555
C10_5 O13_5 1_555 1_555
C11_5 C9_5 1_555 1_555
O14_30 Yb2_6 1_555 1_555
O16_21 Cu7_12 1_555 1_555
O17_5 Yb1_6 1_555 1_555
C12_5 C11_5 1_555 1_555
H6_5 C12_5 1_555 1_555
N16_13 N5_5 1_555 1_555
O19_30 Yb2_6 1_555 1_555
O20_21 Yb2_6 1_555 1_555
C1_21 N1_13 1_555 1_555
C4_21 N16_11 1_555 1_555
C9_5 N5_5 1_555 1_555
C10_5 C11_5 1_555 1_555
C10_5 O17_5 1_555 1_555
C12_5 N16_13 1_555 1_555
Yb1_7 O2_6 1_555 1_555
O2_6 C2_22 1_555 1_555
C1_22 H1_22 1_555 1_555
N1_14 Cu7_5 1_555 1_555
C2_22 C3_22 1_555 1_555
C3_22 C1_22 1_555 1_555
O3_7 Yb1_7 1_555 1_555
O5_14 Cu7_5 1_555 1_555
O6_22 C2_22 1_555 1_555
C4_22 C3_22 1_555 1_555
H2_22 C4_22 1_555 1_555
N16_10 N1_14 1_555 1_555
O8_7 Yb1_7 1_555 1_555
O9_6 Yb1_7 1_555 1_555
Yb2_7 O6_22 1_555 1_555
O13_6 Yb2_7 1_555 1_555
C9_6 H5_6 1_555 1_555
N5_6 Cu7_10 1_555 1_555
C10_6 O13_6 1_555 1_555
C11_6 C9_6 1_555 1_555
O14_31 Yb2_7 1_555 1_555
O16_22 Cu7_10 1_555 1_555
O17_6 Yb1_7 1_555 1_555
C12_6 C11_6 1_555 1_555
H6_6 C12_6 1_555 1_555
N16_16 N5_6 1_555 1_555
O19_31 Yb2_7 1_555 1_555
O20_22 Yb2_7 1_555 1_555
C1_22 N1_14 1_555 1_555
C4_22 N16_10 1_555 1_555
C9_6 N5_6 1_555 1_555
C10_6 C11_6 1_555 1_555
C10_6 O17_6 1_555 1_555
C12_6 N16_16 1_555 1_555
O3_8 Yb1_8 1_555 1_555
O4_6 Yb1_8 1_555 1_555
Cu8_15 N3_6 1_555 1_555
O7_6 Yb1_8 1_555 1_555
C5_22 H3_22 1_555 1_555
N3_6 C5_22 1_555 1_555
C6_22 O7_6 1_555 1_555
C7_22 C5_22 1_555 1_555
O8_8 Yb1_8 1_555 1_555
O10_6 Cu8_15 1_555 1_555
O11_22 C6_22 1_555 1_555
C8_22 C7_22 1_555 1_555
H4_22 C8_22 1_555 1_555
N15_16 N3_6 1_555 1_555
O14_32 Yb2_8 1_555 1_555
O15_22 Yb2_8 1_555 1_555
Cu8_9 N7_14 1_555 1_555
O18_14 Yb2_8 1_555 1_555
C13_14 H7_14 1_555 1_555
N7_14 C13_14 1_555 1_555
C14_14 O18_14 1_555 1_555
C15_14 C13_14 1_555 1_555
O19_32 Yb2_8 1_555 1_555
O21_22 Cu8_9 1_555 1_555
O22_6 Yb1_8 1_555 1_555
C16_14 C15_14 1_555 1_555
H8_14 C16_14 1_555 1_555
N15_7 N7_14 1_555 1_555
C6_22 C7_22 1_555 1_555
O11_22 Yb2_8 1_555 1_555
C8_22 N15_16 1_555 1_555
C14_14 C15_14 1_555 1_555
C14_14 O22_6 1_555 1_555
C16_14 N15_7 1_555 1_555
Yb1_9 O2_7 1_555 1_555
O2_7 C2_23 1_555 1_555
C1_23 H1_23 1_555 1_555
N1_15 Cu7_6 1_555 1_555
C2_23 C3_23 1_555 1_555
C3_23 C1_23 1_555 1_555
O3_9 Yb1_9 1_555 1_555
O5_15 Cu7_6 1_555 1_555
O6_23 C2_23 1_555 1_555
C4_23 C3_23 1_555 1_555
H2_23 C4_23 1_555 1_555
N16_12 N1_15 1_555 1_555
O8_9 Yb1_9 1_555 1_555
O9_7 Yb1_9 1_555 1_555
Yb2_9 O6_23 1_555 1_555
O13_7 Yb2_9 1_555 1_555
C9_7 H5_7 1_555 1_555
N5_7 Cu7_9 1_555 1_555
C10_7 O13_7 1_555 1_555
C11_7 C9_7 1_555 1_555
O14_33 Yb2_9 1_555 1_555
O16_23 Cu7_9 1_555 1_555
O17_7 Yb1_9 1_555 1_555
C12_7 C11_7 1_555 1_555
H6_7 C12_7 1_555 1_555
N16_14 N5_7 1_555 1_555
O19_33 Yb2_9 1_555 1_555
O20_23 Yb2_9 1_555 1_555
C1_23 N1_15 1_555 1_555
C4_23 N16_12 1_555 1_555
C9_7 N5_7 1_555 1_555
C10_7 C11_7 1_555 1_555
C10_7 O17_7 1_555 1_555
C12_7 N16_14 1_555 1_555
O3_10 Yb1_10 1_555 1_555
O4_7 Yb1_10 1_555 1_555
Cu8_13 N3_7 1_555 1_555
O7_7 Yb1_10 1_555 1_555
C5_23 H3_23 1_555 1_555
N3_7 C5_23 1_555 1_555
C6_23 O7_7 1_555 1_555
C7_23 C5_23 1_555 1_555
O8_10 Yb1_10 1_555 1_555
O10_7 Cu8_13 1_555 1_555
O11_23 C6_23 1_555 1_555
C8_23 C7_23 1_555 1_555
H4_23 C8_23 1_555 1_555
N15_15 N3_7 1_555 1_555
O14_34 Yb2_10 1_555 1_555
O15_23 Yb2_10 1_555 1_555
Cu8_11 N7_15 1_555 1_555
O18_15 Yb2_10 1_555 1_555
C13_15 H7_15 1_555 1_555
N7_15 C13_15 1_555 1_555
C14_15 O18_15 1_555 1_555
C15_15 C13_15 1_555 1_555
O19_34 Yb2_10 1_555 1_555
O21_23 Cu8_11 1_555 1_555
O22_7 Yb1_10 1_555 1_555
C16_15 C15_15 1_555 1_555
H8_15 C16_15 1_555 1_555
N15_8 N7_15 1_555 1_555
C6_23 C7_23 1_555 1_555
O11_23 Yb2_10 1_555 1_555
C8_23 N15_15 1_555 1_555
C14_15 C15_15 1_555 1_555
C14_15 O22_7 1_555 1_555
C16_15 N15_8 1_555 1_555
O3_11 Yb1_11 1_555 1_555
O4_8 Yb1_11 1_555 1_555
Cu8_16 N3_8 1_555 1_555
O7_8 Yb1_11 1_555 1_555
C5_24 H3_24 1_555 1_555
N3_8 C5_24 1_555 1_555
C6_24 O7_8 1_555 1_555
C7_24 C5_24 1_555 1_555
O8_11 Yb1_11 1_555 1_555
O10_8 Cu8_16 1_555 1_555
O11_24 C6_24 1_555 1_555
C8_24 C7_24 1_555 1_555
H4_24 C8_24 1_555 1_555
N15_13 N3_8 1_555 1_555
O14_35 Yb2_11 1_555 1_555
O15_24 Yb2_11 1_555 1_555
Cu8_10 N7_16 1_555 1_555
O18_16 Yb2_11 1_555 1_555
C13_16 H7_16 1_555 1_555
N7_16 C13_16 1_555 1_555
C14_16 O18_16 1_555 1_555
C15_16 C13_16 1_555 1_555
O19_35 Yb2_11 1_555 1_555
O21_24 Cu8_10 1_555 1_555
O22_8 Yb1_11 1_555 1_555
C16_16 C15_16 1_555 1_555
H8_16 C16_16 1_555 1_555
N15_6 N7_16 1_555 1_555
C6_24 C7_24 1_555 1_555
O11_24 Yb2_11 1_555 1_555
C8_24 N15_13 1_555 1_555
C14_16 C15_16 1_555 1_555
C14_16 O22_8 1_555 1_555
C16_16 N15_6 1_555 1_555
Yb1_12 O2_8 1_555 1_555
O2_8 C2_24 1_555 1_555
C1_24 H1_24 1_555 1_555
N1_16 Cu7_8 1_555 1_555
C2_24 C3_24 1_555 1_555
C3_24 C1_24 1_555 1_555
O3_12 Yb1_12 1_555 1_555
O5_16 Cu7_8 1_555 1_555
O6_24 C2_24 1_555 1_555
C4_24 C3_24 1_555 1_555
H2_24 C4_24 1_555 1_555
N16_9 N1_16 1_555 1_555
O8_12 Yb1_12 1_555 1_555
O9_8 Yb1_12 1_555 1_555
Yb2_12 O6_24 1_555 1_555
O13_8 Yb2_12 1_555 1_555
C9_8 H5_8 1_555 1_555
N5_8 Cu7_11 1_555 1_555
C10_8 O13_8 1_555 1_555
C11_8 C9_8 1_555 1_555
O14_36 Yb2_12 1_555 1_555
O16_24 Cu7_11 1_555 1_555
O17_8 Yb1_12 1_555 1_555
C12_8 C11_8 1_555 1_555
H6_8 C12_8 1_555 1_555
N16_15 N5_8 1_555 1_555
O19_36 Yb2_12 1_555 1_555
O20_24 Yb2_12 1_555 1_555
C1_24 N1_16 1_555 1_555
C4_24 N16_9 1_555 1_555
C9_8 N5_8 1_555 1_555
C10_8 C11_8 1_555 1_555
C10_8 O17_8 1_555 1_555
C12_8 N16_15 1_555 1_555

#END
