
###############################################################################
#
# This file contains modified crystal structure data generated from the
# MOF subset of the Cambridge Structural Database (CSD) v543 
# hosted by the Cambridge Crystallographic Data Centre (CCDC).
#
# This work is licensed under the Creative Commons
# Attribution-NonCommercial-ShareAlike 4.0 International License.
# To view a copy of this license, visit
# http://creativecommons.org/licenses/by-nc-sa/4.0/
# or send a letter to
# Creative Commons, PO Box 1866, Mountain View, CA 94042, USA.
#
# CIF created using the CSD Python API on 29 September 2022
# The structure has been converted into the P1 space group
# The structure has a 3D framework
# The original CSD entry YOLKOB09 is in the orthorhombic crystal system
# The original CSD entry YOLKOB09 is in a Sohncke space group
# The framework has been calculated to contain at least 10.0% void space
# The void calculation uses a probe of radius 1.32A, grid spacing 0.4
#
###############################################################################

data_YOLKOB09
_chemical_formula_moiety         '(C156 H96 F24 N8 O16 S8 Zn4)n'
_symmetry_cell_setting           triclinic
_symmetry_space_group_name_H-M   'P 1'
_symmetry_Int_Tables_number      1
_space_group_name_Hall           'P 1'
loop_
_symmetry_equiv_pos_site_id
_symmetry_equiv_pos_as_xyz
1 x,y,z
_cell_length_a                   7.007(6)
_cell_length_b                   25.170(15)
_cell_length_c                   28.46(19)
_cell_angle_alpha                90
_cell_angle_beta                 90
_cell_angle_gamma                90
_cell_volume                     5019.38
loop_
_atom_site_label
_atom_site_type_symbol
_atom_site_fract_x
_atom_site_fract_y
_atom_site_fract_z
_atom_site_U_iso_or_equiv
_atom_site_thermal_displace_type
C8 C 0.002(12) 0.577(3) 0.321(7) 0.1500 Uiso
H5 H 0.0505 0.5492 0.3388 0.1800 Uiso
C11 C 0.094(10) 0.626(3) 0.320(6) 0.1500 Uiso
H7 H 0.2040 0.6309 0.3374 0.1800 Uiso
C14 C 0.020(12) 0.667(3) 0.293(6) 0.1500 Uiso
C17 C 0.135(10) 0.717(3) 0.286(9) 0.1500 Uiso
C20 C 0.328(9) 0.718(3) 0.298(8) 0.1500 Uiso
C21 C 0.046(10) 0.763(2) 0.270(8) 0.1500 Uiso
H13 H 0.3876 0.6874 0.3086 0.1800 Uiso
C24 C 0.432(10) 0.765(3) 0.293(9) 0.1500 Uiso
C25 C 0.150(12) 0.810(2) 0.265(9) 0.1500 Uiso
H15 H 0.5609 0.7654 0.3004 0.1800 Uiso
C29 C 0.343(13) 0.811(3) 0.277(11) 0.1500 Uiso
H16 H 0.0902 0.8402 0.2543 0.1800 Uiso
C32 C 0.44(2) 0.863(4) 0.269(14) 0.1500 Uiso
O4 O 0.639(13) 0.842(3) 0.277(9) 0.1500 Uiso
O5 O 0.369(11) 0.898(4) 0.249(10) 0.1500 Uiso
Zn2 Zn 0.577(3) 0.9488(7) 0.243(2) 0.1500 Uiso
C38 C 0.95(2) 0.942(3) 0.324(8) 0.1500 Uiso
H23 H 0.9442 0.9054 0.3281 0.1800 Uiso
N3 N 0.808(14) 0.970(5) 0.302(7) 0.1500 Uiso
N1 N 0.699(6) 0.926(3) 0.185(3) 0.1500 Uiso
C1 C 0.597(6) 0.897(3) 0.152(3) 0.1500 Uiso
C2 C 0.892(6) 0.937(3) 0.178(3) 0.1500 Uiso
C4 C 0.688(7) 0.878(3) 0.112(3) 0.1500 Uiso
H1 H 0.4682 0.8904 0.1564 0.1800 Uiso
H2 H 0.9604 0.9561 0.1996 0.1800 Uiso
C5 C 0.983(6) 0.918(3) 0.137(3) 0.1500 Uiso
O3 O 0.296(13) 0.984(4) 0.181(9) 0.1500 Uiso
C7 C 0.880(7) 0.889(3) 0.104(3) 0.1500 Uiso
H3 H 0.6194 0.8589 0.0894 0.1800 Uiso
C10 C 0.972(8) 0.875(3) 0.058(3) 0.1500 Uiso
C13 C 0.859(7) 0.851(3) 0.023(4) 0.1500 Uiso
H9 H 0.7289 0.8437 0.0250 0.1800 Uiso
Zn1 Zn 0.423(3) 0.4488(7) 0.257(2) 0.1500 Uiso
N1_2 N 0.301(6) 0.426(3) 0.315(3) 0.1500 Uiso
O1 O 0.578(13) 0.525(4) 0.272(11) 0.1500 Uiso
N2 N 0.192(14) 0.470(5) 0.198(7) 0.1500 Uiso
O2 O 0.631(11) 0.398(4) 0.251(10) 0.1500 Uiso
C1_2 C 0.403(6) 0.397(3) 0.348(3) 0.1500 Uiso
C2_2 C 0.108(6) 0.437(3) 0.322(3) 0.1500 Uiso
C3 C 0.699(16) 0.528(6) 0.312(9) 0.1500 Uiso
C4_2 C 0.312(7) 0.378(3) 0.388(3) 0.1500 Uiso
H1_2 H 0.5318 0.3904 0.3436 0.1800 Uiso
H2_2 H 0.0396 0.4561 0.3004 0.1800 Uiso
C5_2 C 0.017(6) 0.418(3) 0.363(3) 0.1500 Uiso
C6 C 0.837(14) 0.569(3) 0.294(7) 0.1500 Uiso
O3_2 O 0.704(13) 0.484(4) 0.319(9) 0.1500 Uiso
C7_2 C 0.120(7) 0.389(3) 0.396(3) 0.1500 Uiso
H3_2 H 0.3806 0.3589 0.4106 0.1800 Uiso
C9 C 0.763(11) 0.610(3) 0.267(7) 0.1500 Uiso
C10_2 C 0.028(8) 0.375(3) 0.442(3) 0.1500 Uiso
C12 C 0.855(11) 0.659(3) 0.267(6) 0.1500 Uiso
H6 H 0.6530 0.6052 0.2499 0.1800 Uiso
C13_2 C 0.141(7) 0.351(3) 0.477(4) 0.1500 Uiso
H8 H 0.8064 0.6869 0.2485 0.1800 Uiso
C15 C 0.021(11) 0.340(3) 0.516(3) 0.1500 Uiso
H9_2 H 0.2711 0.3437 0.4750 0.1800 Uiso
C18 C 0.081(9) 0.321(2) 0.564(3) 0.1500 Uiso
C22 C 0.068(8) 0.3439(18) 0.609(3) 0.1500 Uiso
C23 C 0.192(8) 0.274(2) 0.567(2) 0.1500 Uiso
H14 H 0.9169 0.7622 0.2625 0.1800 Uiso
C26 C 0.171(8) 0.3111(18) 0.641(2) 0.1500 Uiso
C27 C 0.03(2) 0.401(2) 0.619(9) 0.1500 Uiso
C28 C 0.248(7) 0.2679(18) 0.615(2) 0.1500 Uiso
F1 F 0.342(10) 0.253(3) 0.536(3) 0.1500 Uiso
F2 F 0.079(10) 0.227(3) 0.553(4) 0.1500 Uiso
F3 F 0.015(9) 0.290(2) 0.671(4) 0.1500 Uiso
F4 F 0.280(9) 0.319(3) 0.684(3) 0.1500 Uiso
C30 C 0.107(12) 0.452(4) 0.611(6) 0.1500 Uiso
F5 F 0.456(8) 0.266(3) 0.619(3) 0.1500 Uiso
F6 F 0.179(10) 0.2175(19) 0.634(3) 0.1500 Uiso
C33 C 0.259(16) 0.454(5) 0.575(7) 0.1500 Uiso
H18 H 0.2082 0.4685 0.5460 0.2250 Uiso
H19 H 0.3062 0.4189 0.5690 0.2250 Uiso
H20 H 0.3622 0.4763 0.5854 0.2250 Uiso
C37 C 0.02(2) 0.551(3) 0.190(9) 0.1500 Uiso
C38_2 C 0.05(2) 0.442(3) 0.176(8) 0.1500 Uiso
C39 C 0.177(14) 0.524(5) 0.205(7) 0.1500 Uiso
H22 H 0.0056 0.5875 0.1940 0.1800 Uiso
H23_2 H 0.0558 0.4054 0.1719 0.1800 Uiso
H24 H 0.2754 0.5426 0.2196 0.1800 Uiso
C8_2 C 0.998(12) 0.077(3) 0.179(7) 0.1500 Uiso
H5_2 H 0.9495 0.0492 0.1612 0.1800 Uiso
C11_2 C 0.906(10) 0.126(3) 0.180(6) 0.1500 Uiso
H7_2 H 0.7960 0.1309 0.1626 0.1800 Uiso
C14_2 C 0.980(12) 0.167(3) 0.207(6) 0.1500 Uiso
C17_2 C 0.865(10) 0.217(3) 0.214(9) 0.1500 Uiso
C20_2 C 0.672(9) 0.218(3) 0.202(8) 0.1500 Uiso
C21_2 C 0.954(10) 0.263(2) 0.230(8) 0.1500 Uiso
H13_2 H 0.6124 0.1874 0.1914 0.1800 Uiso
C24_2 C 0.568(10) 0.265(3) 0.207(9) 0.1500 Uiso
C25_2 C 0.850(12) 0.310(2) 0.235(9) 0.1500 Uiso
H15_2 H 0.4391 0.2654 0.1996 0.1800 Uiso
C29_2 C 0.657(13) 0.311(3) 0.223(11) 0.1500 Uiso
H16_2 H 0.9098 0.3402 0.2457 0.1800 Uiso
C32_2 C 0.56(2) 0.363(4) 0.231(14) 0.1500 Uiso
O4_2 O 0.361(13) 0.342(3) 0.223(9) 0.1500 Uiso
H4 H 0.8884 0.4247 0.3673 0.1800 Uiso
S1 S 0.838(6) 0.3787(13) 0.459(3) 0.1500 Uiso
C16 C 0.834(9) 0.357(3) 0.505(3) 0.1500 Uiso
C19 C 0.669(15) 0.358(4) 0.538(4) 0.1500 Uiso
H10 H 0.5682 0.3794 0.5243 0.2250 Uiso
H11 H 0.7083 0.3737 0.5669 0.2250 Uiso
H12 H 0.6231 0.3228 0.5430 0.2250 Uiso
C31 C 0.841(18) 0.407(3) 0.636(9) 0.1500 Uiso
S2 S 0.963(7) 0.4901(14) 0.622(5) 0.1500 Uiso
C34 C 0.799(10) 0.462(4) 0.638(7) 0.1500 Uiso
H17 H 0.7584 0.3794 0.6440 0.1800 Uiso
C35 C 0.631(15) 0.477(5) 0.668(8) 0.1500 Uiso
C36 C 0.616(16) 0.531(5) 0.661(7) 0.1500 Uiso
C37_2 C 0.48(2) 0.449(3) 0.690(9) 0.1500 Uiso
H21 H 0.7139 0.5498 0.6462 0.1800 Uiso
C38_3 C 0.45(2) 0.558(3) 0.676(8) 0.1500 Uiso
C39_2 C 0.323(14) 0.476(5) 0.705(7) 0.1500 Uiso
H22_2 H 0.4944 0.4125 0.6940 0.1800 Uiso
H23_3 H 0.4442 0.5946 0.6719 0.1800 Uiso
H24_2 H 0.2246 0.4574 0.7196 0.1800 Uiso
N3_2 N 0.308(14) 0.530(5) 0.698(7) 0.1500 Uiso
Zn3 Zn 0.077(3) 0.5512(7) 0.757(2) 0.1500 Uiso
N1_3 N 0.199(6) 0.574(3) 0.815(3) 0.1500 Uiso
C1_3 C 0.097(6) 0.603(3) 0.848(3) 0.1500 Uiso
C2_3 C 0.392(6) 0.563(3) 0.822(3) 0.1500 Uiso
C4_3 C 0.188(7) 0.622(3) 0.888(3) 0.1500 Uiso
H2_3 H 0.4604 0.5439 0.8004 0.1800 Uiso
C5_3 C 0.483(6) 0.582(3) 0.863(3) 0.1500 Uiso
C7_3 C 0.380(7) 0.611(3) 0.896(3) 0.1500 Uiso
H3_3 H 0.1194 0.6411 0.9106 0.1800 Uiso
H4_2 H 0.6116 0.5753 0.8673 0.1800 Uiso
C10_3 C 0.472(8) 0.625(3) 0.942(3) 0.1500 Uiso
C13_3 C 0.359(7) 0.649(3) 0.977(4) 0.1500 Uiso
S1_2 S 0.662(6) 0.6213(13) 0.959(3) 0.1500 Uiso
H9_3 H 0.2289 0.6563 0.9750 0.1800 Uiso
H15_3 H 0.0609 0.7346 0.6996 0.1800 Uiso
O4_3 O 0.139(13) 0.658(3) 0.723(9) 0.1500 Uiso
C15_2 C 0.479(11) 0.660(3) 0.016(3) 0.1500 Uiso
C16_2 C 0.666(9) 0.643(3) 0.005(3) 0.1500 Uiso
C18_2 C 0.419(9) 0.679(2) 0.064(3) 0.1500 Uiso
C19_2 C 0.831(15) 0.642(4) 0.038(4) 0.1500 Uiso
C22_2 C 0.432(8) 0.6561(18) 0.109(3) 0.1500 Uiso
C23_2 C 0.308(8) 0.726(2) 0.067(2) 0.1500 Uiso
H10_2 H 0.9318 0.6206 0.0243 0.2250 Uiso
H11_2 H 0.7917 0.6263 0.0669 0.2250 Uiso
H12_2 H 0.8769 0.6772 0.0430 0.2250 Uiso
C26_2 C 0.329(8) 0.6889(18) 0.141(2) 0.1500 Uiso
C27_2 C 0.47(2) 0.599(2) 0.119(9) 0.1500 Uiso
C28_2 C 0.252(7) 0.7321(18) 0.115(2) 0.1500 Uiso
F1_2 F 0.158(10) 0.747(3) 0.036(3) 0.1500 Uiso
F2_2 F 0.421(10) 0.773(3) 0.053(4) 0.1500 Uiso
F3_2 F 0.485(9) 0.710(2) 0.171(4) 0.1500 Uiso
F4_2 F 0.220(9) 0.681(3) 0.184(3) 0.1500 Uiso
C30_2 C 0.393(12) 0.548(4) 0.111(6) 0.1500 Uiso
C31_2 C 0.659(18) 0.593(3) 0.136(9) 0.1500 Uiso
F5_2 F 0.044(8) 0.734(3) 0.119(3) 0.1500 Uiso
F6_2 F 0.321(10) 0.7825(19) 0.134(3) 0.1500 Uiso
C33_2 C 0.241(16) 0.546(5) 0.075(7) 0.1500 Uiso
S2_2 S 0.537(7) 0.5099(14) 0.122(5) 0.1500 Uiso
C34_2 C 0.701(10) 0.538(4) 0.138(7) 0.1500 Uiso
H17_2 H 0.7416 0.6206 0.1440 0.1800 Uiso
H18_2 H 0.2918 0.5315 0.0460 0.2250 Uiso
H19_2 H 0.1938 0.5811 0.0690 0.2250 Uiso
H20_2 H 0.1378 0.5237 0.0854 0.2250 Uiso
C35_2 C 0.869(15) 0.523(5) 0.168(8) 0.1500 Uiso
C36_2 C 0.884(16) 0.469(5) 0.161(7) 0.1500 Uiso
H21_2 H 0.7861 0.4502 0.1462 0.1800 Uiso
O1_2 O 0.922(13) 0.475(4) 0.772(11) 0.1500 Uiso
O2_2 O 0.869(11) 0.602(4) 0.751(10) 0.1500 Uiso
C3_2 C 0.801(16) 0.472(6) 0.812(9) 0.1500 Uiso
H1_3 H 0.9682 0.6096 0.8436 0.1800 Uiso
C6_2 C 0.663(14) 0.431(3) 0.794(7) 0.1500 Uiso
O3_3 O 0.796(13) 0.516(4) 0.819(9) 0.1500 Uiso
C8_3 C 0.498(12) 0.423(3) 0.821(7) 0.1500 Uiso
C9_2 C 0.737(11) 0.390(3) 0.767(7) 0.1500 Uiso
H5_3 H 0.4495 0.4508 0.8388 0.1800 Uiso
C11_3 C 0.406(10) 0.374(3) 0.820(6) 0.1500 Uiso
C12_2 C 0.645(11) 0.341(3) 0.767(6) 0.1500 Uiso
H6_2 H 0.8470 0.3948 0.7499 0.1800 Uiso
H7_3 H 0.2960 0.3691 0.8374 0.1800 Uiso
C14_3 C 0.480(12) 0.333(3) 0.793(6) 0.1500 Uiso
H8_2 H 0.6936 0.3131 0.7485 0.1800 Uiso
C17_3 C 0.365(10) 0.283(3) 0.786(9) 0.1500 Uiso
C20_3 C 0.172(9) 0.282(3) 0.798(8) 0.1500 Uiso
C21_3 C 0.454(10) 0.237(2) 0.770(8) 0.1500 Uiso
H13_3 H 0.1124 0.3126 0.8086 0.1800 Uiso
C24_3 C 0.068(10) 0.235(3) 0.793(9) 0.1500 Uiso
C25_3 C 0.350(12) 0.190(2) 0.765(9) 0.1500 Uiso
H14_2 H 0.5831 0.2378 0.7625 0.1800 Uiso
C29_3 C 0.157(13) 0.189(3) 0.777(11) 0.1500 Uiso
H16_3 H 0.4098 0.1598 0.7543 0.1800 Uiso
C32_3 C 0.06(2) 0.137(4) 0.769(14) 0.1500 Uiso
O5_2 O 0.131(11) 0.102(4) 0.749(10) 0.1500 Uiso
H1_4 H 0.0318 0.1096 0.6564 0.1800 Uiso
O3_4 O 0.204(13) 0.016(4) 0.681(9) 0.1500 Uiso
O1_3 O 0.078(13) 0.975(4) 0.728(11) 0.1500 Uiso
C3_3 C 0.199(16) 0.972(6) 0.688(9) 0.1500 Uiso
C6_3 C 0.337(14) 0.931(3) 0.706(7) 0.1500 Uiso
C8_4 C 0.502(12) 0.923(3) 0.679(7) 0.1500 Uiso
C9_3 C 0.263(11) 0.890(3) 0.733(7) 0.1500 Uiso
H5_4 H 0.5505 0.9508 0.6612 0.1800 Uiso
C11_4 C 0.594(10) 0.874(3) 0.680(6) 0.1500 Uiso
C12_3 C 0.355(11) 0.841(3) 0.733(6) 0.1500 Uiso
H6_3 H 0.1530 0.8948 0.7501 0.1800 Uiso
H7_4 H 0.7040 0.8691 0.6626 0.1800 Uiso
C14_4 C 0.520(12) 0.833(3) 0.707(6) 0.1500 Uiso
H8_3 H 0.3064 0.8131 0.7515 0.1800 Uiso
C17_4 C 0.635(10) 0.783(3) 0.714(9) 0.1500 Uiso
C20_4 C 0.828(9) 0.782(3) 0.702(8) 0.1500 Uiso
C21_4 C 0.546(10) 0.737(2) 0.730(8) 0.1500 Uiso
H13_4 H 0.8876 0.8126 0.6914 0.1800 Uiso
C24_4 C 0.932(10) 0.735(3) 0.707(9) 0.1500 Uiso
C25_4 C 0.650(12) 0.690(2) 0.735(9) 0.1500 Uiso
H14_3 H 0.4169 0.7378 0.7375 0.1800 Uiso
C29_4 C 0.843(13) 0.689(3) 0.723(11) 0.1500 Uiso
H16_4 H 0.5902 0.6598 0.7457 0.1800 Uiso
C32_4 C 0.94(2) 0.637(4) 0.731(14) 0.1500 Uiso
H15_4 H 0.9391 0.2346 0.8004 0.1800 Uiso
O4_4 O 0.861(13) 0.158(3) 0.777(9) 0.1500 Uiso
Zn2_2 Zn 0.923(3) 0.0512(7) 0.743(2) 0.1500 Uiso
N1_4 N 0.801(6) 0.074(3) 0.685(3) 0.1500 Uiso
N2_2 N 0.692(14) 0.030(5) 0.802(7) 0.1500 Uiso
C1_4 C 0.903(6) 0.103(3) 0.652(3) 0.1500 Uiso
C2_4 C 0.608(6) 0.063(3) 0.678(3) 0.1500 Uiso
C4_4 C 0.812(7) 0.122(3) 0.612(3) 0.1500 Uiso
H2_4 H 0.5396 0.0439 0.6996 0.1800 Uiso
C5_4 C 0.517(6) 0.082(3) 0.637(3) 0.1500 Uiso
C7_4 C 0.620(7) 0.111(3) 0.604(3) 0.1500 Uiso
H3_4 H 0.8806 0.1411 0.5894 0.1800 Uiso
H4_3 H 0.3884 0.0753 0.6327 0.1800 Uiso
C10_4 C 0.528(8) 0.125(3) 0.558(3) 0.1500 Uiso
C13_4 C 0.641(7) 0.149(3) 0.523(4) 0.1500 Uiso
S1_3 S 0.338(6) 0.1213(13) 0.541(3) 0.1500 Uiso
C15_3 C 0.521(11) 0.160(3) 0.484(3) 0.1500 Uiso
H9_4 H 0.7711 0.1563 0.5250 0.1800 Uiso
C16_3 C 0.334(9) 0.143(3) 0.495(3) 0.1500 Uiso
C18_3 C 0.581(9) 0.179(2) 0.436(3) 0.1500 Uiso
C19_3 C 0.169(15) 0.142(4) 0.462(4) 0.1500 Uiso
C22_3 C 0.568(8) 0.1561(18) 0.391(3) 0.1500 Uiso
C23_3 C 0.692(8) 0.226(2) 0.433(2) 0.1500 Uiso
H10_3 H 0.0682 0.1206 0.4757 0.2250 Uiso
H11_3 H 0.2083 0.1263 0.4331 0.2250 Uiso
H12_3 H 0.1231 0.1772 0.4570 0.2250 Uiso
C26_3 C 0.671(8) 0.1889(18) 0.359(2) 0.1500 Uiso
C27_3 C 0.53(2) 0.099(2) 0.381(9) 0.1500 Uiso
C28_3 C 0.748(7) 0.2321(18) 0.385(2) 0.1500 Uiso
F1_3 F 0.842(10) 0.247(3) 0.464(3) 0.1500 Uiso
F2_3 F 0.579(10) 0.273(3) 0.447(4) 0.1500 Uiso
F3_3 F 0.515(9) 0.210(2) 0.329(4) 0.1500 Uiso
F4_3 F 0.780(9) 0.181(3) 0.316(3) 0.1500 Uiso
C30_3 C 0.607(12) 0.048(4) 0.389(6) 0.1500 Uiso
C31_3 C 0.341(18) 0.093(3) 0.364(9) 0.1500 Uiso
F5_3 F 0.956(8) 0.234(3) 0.381(3) 0.1500 Uiso
F6_3 F 0.679(10) 0.2825(19) 0.366(3) 0.1500 Uiso
C33_3 C 0.759(16) 0.046(5) 0.425(7) 0.1500 Uiso
S2_3 S 0.463(7) 0.0099(14) 0.378(5) 0.1500 Uiso
C34_3 C 0.299(10) 0.038(4) 0.362(7) 0.1500 Uiso
H17_3 H 0.2584 0.1206 0.3560 0.1800 Uiso
H18_3 H 0.7082 0.0315 0.4540 0.2250 Uiso
H19_3 H 0.8062 0.0811 0.4310 0.2250 Uiso
H20_3 H 0.8622 0.0237 0.4146 0.2250 Uiso
C35_3 C 0.131(15) 0.023(5) 0.332(8) 0.1500 Uiso
C36_3 C 0.384(16) 0.031(5) 0.839(7) 0.1500 Uiso
H21_3 H 0.2861 0.0498 0.8538 0.1800 Uiso
C38_4 C 0.55(2) 0.058(3) 0.824(8) 0.1500 Uiso
H23_4 H 0.5558 0.0946 0.8281 0.1800 Uiso
C36_4 C 0.116(16) 0.969(5) 0.339(7) 0.1500 Uiso
H21_4 H 0.2139 0.9502 0.3538 0.1800 Uiso
C37_3 C 0.98(2) 0.051(3) 0.310(9) 0.1500 Uiso
C39_3 C 0.823(14) 0.024(5) 0.295(7) 0.1500 Uiso
H22_3 H 0.9944 0.0875 0.3060 0.1800 Uiso
H24_3 H 0.7246 0.0426 0.2804 0.1800 Uiso
H4_4 H 0.1116 0.9247 0.1327 0.1800 Uiso
S1_4 S 0.162(6) 0.8787(13) 0.041(3) 0.1500 Uiso
C16_4 C 0.166(9) 0.857(3) 0.995(3) 0.1500 Uiso
C19_4 C 0.331(15) 0.858(4) 0.962(4) 0.1500 Uiso
H10_4 H 0.4318 0.8794 0.9757 0.2250 Uiso
H11_4 H 0.2917 0.8737 0.9331 0.2250 Uiso
H12_4 H 0.3769 0.8228 0.9570 0.2250 Uiso
C31_4 C 0.159(18) 0.907(3) 0.864(9) 0.1500 Uiso
S2_4 S 0.037(7) 0.9901(14) 0.878(5) 0.1500 Uiso
C34_4 C 0.201(10) 0.962(4) 0.862(7) 0.1500 Uiso
H17_4 H 0.2416 0.8794 0.8560 0.1800 Uiso
C35_4 C 0.369(15) 0.977(5) 0.832(8) 0.1500 Uiso
C37_4 C 0.52(2) 0.949(3) 0.810(9) 0.1500 Uiso
C39_4 C 0.677(14) 0.976(5) 0.795(7) 0.1500 Uiso
H22_4 H 0.5056 0.9125 0.8060 0.1800 Uiso
H24_4 H 0.7754 0.9574 0.7804 0.1800 Uiso
O1_4 O 0.422(13) 0.025(4) 0.228(11) 0.1500 Uiso
C3_4 C 0.301(16) 0.028(6) 0.188(9) 0.1500 Uiso
C6_4 C 0.163(14) 0.069(3) 0.206(7) 0.1500 Uiso
C9_4 C 0.237(11) 0.110(3) 0.233(7) 0.1500 Uiso
C12_4 C 0.145(11) 0.159(3) 0.233(6) 0.1500 Uiso
H6_4 H 0.3470 0.1052 0.2501 0.1800 Uiso
H8_4 H 0.1936 0.1869 0.2515 0.1800 Uiso
H14_4 H 0.0831 0.2622 0.2375 0.1800 Uiso
C15_4 C 0.979(11) 0.840(3) 0.984(3) 0.1500 Uiso
C18_4 C 0.919(9) 0.821(2) 0.936(3) 0.1500 Uiso
C22_4 C 0.932(8) 0.8439(18) 0.891(3) 0.1500 Uiso
C23_4 C 0.808(8) 0.774(2) 0.933(2) 0.1500 Uiso
C26_4 C 0.829(8) 0.8111(18) 0.859(2) 0.1500 Uiso
C27_4 C 0.97(2) 0.901(2) 0.881(9) 0.1500 Uiso
C28_4 C 0.752(7) 0.7679(18) 0.885(2) 0.1500 Uiso
F1_4 F 0.658(10) 0.753(3) 0.964(3) 0.1500 Uiso
F2_4 F 0.921(10) 0.727(3) 0.947(4) 0.1500 Uiso
F3_4 F 0.985(9) 0.790(2) 0.829(4) 0.1500 Uiso
F4_4 F 0.720(9) 0.819(3) 0.816(3) 0.1500 Uiso
C30_4 C 0.893(12) 0.952(4) 0.889(6) 0.1500 Uiso
F5_4 F 0.544(8) 0.766(3) 0.881(3) 0.1500 Uiso
F6_4 F 0.821(10) 0.7175(19) 0.866(3) 0.1500 Uiso
C33_4 C 0.741(16) 0.954(5) 0.925(7) 0.1500 Uiso
H18_4 H 0.7918 0.9685 0.9540 0.2250 Uiso
H19_4 H 0.6938 0.9189 0.9310 0.2250 Uiso
H20_4 H 0.6378 0.9763 0.9146 0.2250 Uiso
loop_
_geom_bond_atom_site_label_1
_geom_bond_atom_site_label_2
_geom_bond_site_symmetry_1
_geom_bond_site_symmetry_2
H5 C8 1_555 1_555
C11 C8 1_555 1_555
H7 C11 1_555 1_555
C14 C11 1_555 1_555
C17 C14 1_555 1_555
C20 C17 1_555 1_555
C21 C17 1_555 1_555
H13 C20 1_555 1_555
C24 C20 1_555 1_555
C25 C21 1_555 1_555
H15 C24 1_555 1_555
C29 C24 1_555 1_555
H16 C25 1_555 1_555
C32 C29 1_555 1_555
O4 C32 1_555 1_555
O5 C32 1_555 1_555
Zn2 O5 1_555 1_555
C25 C29 1_555 1_555
H23 C38 1_555 1_555
N3 C38 1_555 1_555
Zn2 N3 1_555 1_555
Zn2 N1 1_555 1_555
N1 C1 1_555 1_555
C1 C4 1_555 1_555
C2 N1 1_555 1_555
C4 C7 1_555 1_555
H1 C1 1_555 1_555
H2 C2 1_555 1_555
C5 C2 1_555 1_555
C7 C5 1_555 1_555
H3 C4 1_555 1_555
C10 C7 1_555 1_555
C13 C10 1_555 1_555
H9 C13 1_555 1_555
Zn1 N1_2 1_555 1_555
N1_2 C1_2 1_555 1_555
O1 Zn1 1_555 1_555
N2 Zn1 1_555 1_555
O2 Zn1 1_555 1_555
C1_2 C4_2 1_555 1_555
C2_2 N1_2 1_555 1_555
C3 O1 1_555 1_555
C4_2 C7_2 1_555 1_555
H1_2 C1_2 1_555 1_555
H2_2 C2_2 1_555 1_555
C5_2 C2_2 1_555 1_555
C6 C3 1_555 1_555
O3_2 C3 1_555 1_555
C7_2 C5_2 1_555 1_555
H3_2 C4_2 1_555 1_555
C9 C6 1_555 1_555
C10_2 C7_2 1_555 1_555
C12 C9 1_555 1_555
H6 C9 1_555 1_555
C13_2 C10_2 1_555 1_555
H8 C12 1_555 1_555
C15 C13_2 1_555 1_555
H9_2 C13_2 1_555 1_555
C18 C15 1_555 1_555
C22 C18 1_555 1_555
C23 C18 1_555 1_555
C26 C22 1_555 1_555
C27 C22 1_555 1_555
C28 C23 1_555 1_555
F1 C23 1_555 1_555
F2 C23 1_555 1_555
F3 C26 1_555 1_555
F4 C26 1_555 1_555
C30 C27 1_555 1_555
F5 C28 1_555 1_555
F6 C28 1_555 1_555
C33 C30 1_555 1_555
H18 C33 1_555 1_555
H19 C33 1_555 1_555
H20 C33 1_555 1_555
C26 C28 1_555 1_555
C39 C37 1_555 1_555
H22 C37 1_555 1_555
H23_2 C38_2 1_555 1_555
H24 C39 1_555 1_555
N2 C38_2 1_555 1_555
C39 N2 1_555 1_555
H5_2 C8_2 1_555 1_555
C11_2 C8_2 1_555 1_555
H7_2 C11_2 1_555 1_555
C14_2 C11_2 1_555 1_555
C17_2 C14_2 1_555 1_555
C20_2 C17_2 1_555 1_555
C21_2 C17_2 1_555 1_555
H13_2 C20_2 1_555 1_555
C24_2 C20_2 1_555 1_555
C25_2 C21_2 1_555 1_555
H15_2 C24_2 1_555 1_555
C29_2 C24_2 1_555 1_555
H16_2 C25_2 1_555 1_555
C32_2 C29_2 1_555 1_555
O4_2 C32_2 1_555 1_555
O2 C32_2 1_555 1_555
C25_2 C29_2 1_555 1_555
C16 S1 1_555 1_555
C19 C16 1_555 1_555
H10 C19 1_555 1_555
H11 C19 1_555 1_555
H12 C19 1_555 1_555
C34 C31 1_555 1_555
H17 C31 1_555 1_555
C35 C34 1_555 1_555
C36 C35 1_555 1_555
C37_2 C35 1_555 1_555
H21 C36 1_555 1_555
C38_3 C36 1_555 1_555
C39_2 C37_2 1_555 1_555
H22_2 C37_2 1_555 1_555
H23_3 C38_3 1_555 1_555
H24_2 C39_2 1_555 1_555
N3_2 C38_3 1_555 1_555
Zn3 N3_2 1_555 1_555
S2 C34 1_555 1_555
C39_2 N3_2 1_555 1_555
Zn3 N1_3 1_555 1_555
N1_3 C1_3 1_555 1_555
C1_3 C4_3 1_555 1_555
C2_3 N1_3 1_555 1_555
C4_3 C7_3 1_555 1_555
H2_3 C2_3 1_555 1_555
C5_3 C2_3 1_555 1_555
C7_3 C5_3 1_555 1_555
H3_3 C4_3 1_555 1_555
H4_2 C5_3 1_555 1_555
C10_3 C7_3 1_555 1_555
C13_3 C10_3 1_555 1_555
S1_2 C10_3 1_555 1_555
H9_3 C13_3 1_555 1_555
C18_2 C15_2 1_555 1_555
C19_2 C16_2 1_555 1_555
C22_2 C18_2 1_555 1_555
C23_2 C18_2 1_555 1_555
H10_2 C19_2 1_555 1_555
H11_2 C19_2 1_555 1_555
H12_2 C19_2 1_555 1_555
C26_2 C22_2 1_555 1_555
C27_2 C22_2 1_555 1_555
C28_2 C23_2 1_555 1_555
F1_2 C23_2 1_555 1_555
F2_2 C23_2 1_555 1_555
F3_2 C26_2 1_555 1_555
F4_2 C26_2 1_555 1_555
C30_2 C27_2 1_555 1_555
C31_2 C27_2 1_555 1_555
F5_2 C28_2 1_555 1_555
F6_2 C28_2 1_555 1_555
C33_2 C30_2 1_555 1_555
S2_2 C30_2 1_555 1_555
C34_2 C31_2 1_555 1_555
H17_2 C31_2 1_555 1_555
H18_2 C33_2 1_555 1_555
H19_2 C33_2 1_555 1_555
H20_2 C33_2 1_555 1_555
C35_2 C34_2 1_555 1_555
C36_2 C35_2 1_555 1_555
H21_2 C36_2 1_555 1_555
C15_2 C16_2 1_555 1_555
C26_2 C28_2 1_555 1_555
S2_2 C34_2 1_555 1_555
C3_2 O1_2 1_555 1_555
C6_2 C3_2 1_555 1_555
O3_3 C3_2 1_555 1_555
C8_3 C6_2 1_555 1_555
C9_2 C6_2 1_555 1_555
H5_3 C8_3 1_555 1_555
C11_3 C8_3 1_555 1_555
C12_2 C9_2 1_555 1_555
H6_2 C9_2 1_555 1_555
H7_3 C11_3 1_555 1_555
C14_3 C11_3 1_555 1_555
H8_2 C12_2 1_555 1_555
C17_3 C14_3 1_555 1_555
C20_3 C17_3 1_555 1_555
C21_3 C17_3 1_555 1_555
H13_3 C20_3 1_555 1_555
C24_3 C20_3 1_555 1_555
C25_3 C21_3 1_555 1_555
H14_2 C21_3 1_555 1_555
C29_3 C24_3 1_555 1_555
H16_3 C25_3 1_555 1_555
C32_3 C29_3 1_555 1_555
O5_2 C32_3 1_555 1_555
C12_2 C14_3 1_555 1_555
C25_3 C29_3 1_555 1_555
C3_3 O1_3 1_555 1_555
C6_3 C3_3 1_555 1_555
C8_4 C6_3 1_555 1_555
C9_3 C6_3 1_555 1_555
H5_4 C8_4 1_555 1_555
C11_4 C8_4 1_555 1_555
C12_3 C9_3 1_555 1_555
H6_3 C9_3 1_555 1_555
H7_4 C11_4 1_555 1_555
C14_4 C11_4 1_555 1_555
H8_3 C12_3 1_555 1_555
C17_4 C14_4 1_555 1_555
C20_4 C17_4 1_555 1_555
C21_4 C17_4 1_555 1_555
H13_4 C20_4 1_555 1_555
C24_4 C20_4 1_555 1_555
C25_4 C21_4 1_555 1_555
H14_3 C21_4 1_555 1_555
C29_4 C24_4 1_555 1_555
H16_4 C25_4 1_555 1_555
C32_4 C29_4 1_555 1_555
O2_2 C32_4 1_555 1_555
C12_3 C14_4 1_555 1_555
C25_4 C29_4 1_555 1_555
Zn2_2 N1_4 1_555 1_555
N1_4 C1_4 1_555 1_555
N2_2 Zn2_2 1_555 1_555
C1_4 C4_4 1_555 1_555
C2_4 N1_4 1_555 1_555
C4_4 C7_4 1_555 1_555
H2_4 C2_4 1_555 1_555
C5_4 C2_4 1_555 1_555
C7_4 C5_4 1_555 1_555
H3_4 C4_4 1_555 1_555
H4_3 C5_4 1_555 1_555
C10_4 C7_4 1_555 1_555
C13_4 C10_4 1_555 1_555
S1_3 C10_4 1_555 1_555
C15_3 C13_4 1_555 1_555
H9_4 C13_4 1_555 1_555
C16_3 S1_3 1_555 1_555
C18_3 C15_3 1_555 1_555
C19_3 C16_3 1_555 1_555
C22_3 C18_3 1_555 1_555
C23_3 C18_3 1_555 1_555
H10_3 C19_3 1_555 1_555
H11_3 C19_3 1_555 1_555
H12_3 C19_3 1_555 1_555
C26_3 C22_3 1_555 1_555
C27_3 C22_3 1_555 1_555
C28_3 C23_3 1_555 1_555
F1_3 C23_3 1_555 1_555
F2_3 C23_3 1_555 1_555
F3_3 C26_3 1_555 1_555
F4_3 C26_3 1_555 1_555
C30_3 C27_3 1_555 1_555
C31_3 C27_3 1_555 1_555
F5_3 C28_3 1_555 1_555
F6_3 C28_3 1_555 1_555
C33_3 C30_3 1_555 1_555
S2_3 C30_3 1_555 1_555
C34_3 C31_3 1_555 1_555
H17_3 C31_3 1_555 1_555
H18_3 C33_3 1_555 1_555
H19_3 C33_3 1_555 1_555
H20_3 C33_3 1_555 1_555
C35_3 C34_3 1_555 1_555
C15_3 C16_3 1_555 1_555
C26_3 C28_3 1_555 1_555
S2_3 C34_3 1_555 1_555
H21_3 C36_3 1_555 1_555
C38_4 C36_3 1_555 1_555
H23_4 C38_4 1_555 1_555
N2_2 C38_4 1_555 1_555
H21_4 C36_4 1_555 1_555
C39_3 C37_3 1_555 1_555
H22_3 C37_3 1_555 1_555
H24_3 C39_3 1_555 1_555
C19_4 C16_4 1_555 1_555
H10_4 C19_4 1_555 1_555
H11_4 C19_4 1_555 1_555
H12_4 C19_4 1_555 1_555
C34_4 C31_4 1_555 1_555
H17_4 C31_4 1_555 1_555
C35_4 C34_4 1_555 1_555
C37_4 C35_4 1_555 1_555
C39_4 C37_4 1_555 1_555
H22_4 C37_4 1_555 1_555
H24_4 C39_4 1_555 1_555
S2_4 C34_4 1_555 1_555
C3_4 O1_4 1_555 1_555
C6_4 C3_4 1_555 1_555
C9_4 C6_4 1_555 1_555
C12_4 C9_4 1_555 1_555
H6_4 C9_4 1_555 1_555
H8_4 C12_4 1_555 1_555
C18_4 C15_4 1_555 1_555
C22_4 C18_4 1_555 1_555
C23_4 C18_4 1_555 1_555
C26_4 C22_4 1_555 1_555
C27_4 C22_4 1_555 1_555
C28_4 C23_4 1_555 1_555
F1_4 C23_4 1_555 1_555
F2_4 C23_4 1_555 1_555
F3_4 C26_4 1_555 1_555
F4_4 C26_4 1_555 1_555
C30_4 C27_4 1_555 1_555
F5_4 C28_4 1_555 1_555
F6_4 C28_4 1_555 1_555
C33_4 C30_4 1_555 1_555
H18_4 C33_4 1_555 1_555
H19_4 C33_4 1_555 1_555
H20_4 C33_4 1_555 1_555
C26_4 C28_4 1_555 1_555

#END
