
###############################################################################
#
# This file contains modified crystal structure data generated from the
# MOF subset of the Cambridge Structural Database (CSD) v543 
# hosted by the Cambridge Crystallographic Data Centre (CCDC).
#
# This work is licensed under the Creative Commons
# Attribution-NonCommercial-ShareAlike 4.0 International License.
# To view a copy of this license, visit
# http://creativecommons.org/licenses/by-nc-sa/4.0/
# or send a letter to
# Creative Commons, PO Box 1866, Mountain View, CA 94042, USA.
#
# CIF created using the CSD Python API on 29 September 2022
# The structure has been converted into the P1 space group
# The structure has a 3D framework
# The original CSD entry YOLKOB01 is in the orthorhombic crystal system
# The original CSD entry YOLKOB01 is in a Sohncke space group
# The framework has been calculated to contain at least 10.0% void space
# The void calculation uses a probe of radius 1.32A, grid spacing 0.4
#
###############################################################################

data_YOLKOB01
_chemical_formula_moiety         '(C156 H96 F24 N8 O16 S8 Zn4)n'
_symmetry_cell_setting           triclinic
_symmetry_space_group_name_H-M   'P 1'
_symmetry_Int_Tables_number      1
_space_group_name_Hall           'P 1'
loop_
_symmetry_equiv_pos_site_id
_symmetry_equiv_pos_as_xyz
1 x,y,z
_cell_length_a                   6.881(9)
_cell_length_b                   25.14(3)
_cell_length_c                   28.2(3)
_cell_angle_alpha                90
_cell_angle_beta                 90
_cell_angle_gamma                90
_cell_volume                     4878.27
loop_
_atom_site_label
_atom_site_type_symbol
_atom_site_fract_x
_atom_site_fract_y
_atom_site_fract_z
_atom_site_U_iso_or_equiv
_atom_site_thermal_displace_type
C1 C 0.471(12) 0.840(3) 0.261(7) 0.1500 Uiso
C3 C 0.116(16) 0.703(3) 0.281(10) 0.1500 Uiso
C4 C 0.308(17) 0.706(4) 0.296(9) 0.1500 Uiso
H4 H 0.3661 0.6772 0.3108 0.1800 Uiso
C5 C 0.412(15) 0.753(4) 0.289(8) 0.1500 Uiso
H5 H 0.5399 0.7552 0.2993 0.1800 Uiso
C6 C 0.324(15) 0.796(4) 0.267(8) 0.1500 Uiso
C7 C 0.133(17) 0.792(3) 0.252(9) 0.1500 Uiso
H6 H 0.0741 0.8214 0.2367 0.1800 Uiso
C8 C 0.029(15) 0.746(3) 0.258(10) 0.1500 Uiso
O1 O 0.689(16) 0.838(4) 0.279(10) 0.1500 Uiso
O2 O 0.428(19) 0.895(5) 0.236(9) 0.1500 Uiso
C35 C 0.015(16) 0.556(3) 0.297(9) 0.1500 Uiso
H21 H 0.0711 0.5264 0.3112 0.1800 Uiso
C36 C 0.112(17) 0.604(3) 0.296(10) 0.1500 Uiso
H22 H 0.2330 0.6074 0.3103 0.1800 Uiso
C37 C 0.027(19) 0.648(3) 0.274(9) 0.1500 Uiso
Zn3 Zn 0.579(4) 0.9496(10) 0.259(3) 0.1500 Uiso
C17 C 0.94(3) 0.938(4) 0.344(12) 0.1500 Uiso
H16 H 0.9134 0.9021 0.3497 0.1800 Uiso
N2 N 0.81(2) 0.967(8) 0.315(11) 0.1500 Uiso
C10 C 0.856(11) 0.877(5) 0.119(4) 0.1500 Uiso
C11 C 0.657(11) 0.873(4) 0.127(4) 0.1500 Uiso
H11 H 0.5789 0.8552 0.1048 0.1800 Uiso
C12 C 0.575(9) 0.895(4) 0.167(5) 0.1500 Uiso
H12 H 0.4413 0.8928 0.1721 0.1800 Uiso
N1 N 0.691(8) 0.922(4) 0.200(5) 0.1500 Uiso
C13 C 0.890(8) 0.926(4) 0.192(4) 0.1500 Uiso
H13 H 0.9684 0.9432 0.2139 0.1800 Uiso
C14 C 0.973(9) 0.903(4) 0.152(4) 0.1500 Uiso
C21 C 0.819(10) 0.856(4) 0.029(4) 0.1500 Uiso
H19 H 0.6851 0.8510 0.0282 0.1800 Uiso
C22 C 0.929(8) 0.873(5) 0.069(4) 0.1500 Uiso
O4 O 0.248(17) 0.962(5) 0.185(9) 0.1500 Uiso
H7 H 0.9003 0.7434 0.2482 0.1800 Uiso
C9 C 0.29(2) 0.445(8) 0.558(9) 0.1500 Uiso
H8 H 0.2945 0.4709 0.5328 0.2250 Uiso
H9 H 0.2869 0.4098 0.5437 0.2250 Uiso
H10 H 0.4079 0.4478 0.5765 0.2250 Uiso
C10_2 C 0.144(11) 0.377(5) 0.381(4) 0.1500 Uiso
C11_2 C 0.343(11) 0.373(4) 0.373(4) 0.1500 Uiso
H11_2 H 0.4211 0.3552 0.3952 0.1800 Uiso
C12_2 C 0.425(9) 0.395(4) 0.333(5) 0.1500 Uiso
H12_2 H 0.5587 0.3928 0.3279 0.1800 Uiso
N1_2 N 0.309(8) 0.422(4) 0.300(5) 0.1500 Uiso
C13_2 C 0.110(8) 0.426(4) 0.308(4) 0.1500 Uiso
H13_2 H 0.0316 0.4432 0.2861 0.1800 Uiso
C14_2 C 0.027(9) 0.403(4) 0.348(4) 0.1500 Uiso
C20 C 0.051(14) 0.347(5) 0.509(4) 0.1500 Uiso
C21_2 C 0.181(10) 0.356(4) 0.471(4) 0.1500 Uiso
H19_2 H 0.3149 0.3510 0.4718 0.1800 Uiso
C22_2 C 0.071(8) 0.373(5) 0.431(4) 0.1500 Uiso
Zn1 Zn 0.421(4) 0.4496(10) 0.241(3) 0.1500 Uiso
C24 C 0.108(13) 0.319(3) 0.554(4) 0.1500 Uiso
C25 C 0.079(12) 0.344(2) 0.599(5) 0.1500 Uiso
C26 C 0.188(13) 0.316(2) 0.634(4) 0.1500 Uiso
C27 C 0.284(10) 0.273(2) 0.611(4) 0.1500 Uiso
C28 C 0.234(13) 0.275(3) 0.562(4) 0.1500 Uiso
C29 C 0.703(15) 0.506(4) 0.290(7) 0.1500 Uiso
F1 F 0.020(16) 0.299(3) 0.653(8) 0.1500 Uiso
F2 F 0.478(12) 0.278(4) 0.616(5) 0.1500 Uiso
F3 F 0.232(16) 0.227(3) 0.630(4) 0.1500 Uiso
O3 O 0.564(19) 0.531(4) 0.265(10) 0.1500 Uiso
C30 C 0.116(13) 0.453(4) 0.589(7) 0.1500 Uiso
C33 C 0.068(19) 0.403(3) 0.609(8) 0.1500 Uiso
F4 F 0.261(16) 0.322(4) 0.678(5) 0.1500 Uiso
C34 C 0.833(17) 0.551(3) 0.275(9) 0.1500 Uiso
C38 C 0.845(19) 0.644(3) 0.253(8) 0.1500 Uiso
H23 H 0.7889 0.6729 0.2384 0.1800 Uiso
C39 C 0.749(18) 0.595(4) 0.254(8) 0.1500 Uiso
H24 H 0.6271 0.5920 0.2393 0.1800 Uiso
F5 F 0.369(16) 0.249(4) 0.536(5) 0.1500 Uiso
O4_2 O 0.752(17) 0.462(5) 0.315(9) 0.1500 Uiso
F6 F 0.102(17) 0.236(4) 0.552(5) 0.1500 Uiso
N3 N 0.19(2) 0.467(8) 0.185(11) 0.1500 Uiso
O5 O 0.572(19) 0.395(5) 0.264(9) 0.1500 Uiso
C17_2 C 0.06(3) 0.438(4) 0.156(12) 0.1500 Uiso
H16_2 H 0.0866 0.4021 0.1503 0.1800 Uiso
C18 C 0.15(2) 0.521(7) 0.193(9) 0.1500 Uiso
H17 H 0.2341 0.5402 0.2124 0.1800 Uiso
C1_2 C 0.529(12) 0.340(3) 0.239(7) 0.1500 Uiso
C3_2 C 0.884(16) 0.203(3) 0.219(10) 0.1500 Uiso
C4_2 C 0.692(17) 0.206(4) 0.204(9) 0.1500 Uiso
H4_2 H 0.6339 0.1772 0.1892 0.1800 Uiso
C5_2 C 0.588(15) 0.253(4) 0.211(8) 0.1500 Uiso
H5_2 H 0.4601 0.2552 0.2007 0.1800 Uiso
C6_2 C 0.676(15) 0.296(4) 0.233(8) 0.1500 Uiso
C7_2 C 0.867(17) 0.292(3) 0.248(9) 0.1500 Uiso
H6_2 H 0.9259 0.3214 0.2633 0.1800 Uiso
C8_2 C 0.971(15) 0.246(3) 0.242(10) 0.1500 Uiso
O1_2 O 0.311(16) 0.338(4) 0.221(10) 0.1500 Uiso
C35_2 C 0.985(16) 0.056(3) 0.203(9) 0.1500 Uiso
H21_2 H 0.9289 0.0264 0.1888 0.1800 Uiso
C36_2 C 0.888(17) 0.104(3) 0.204(10) 0.1500 Uiso
H22_2 H 0.7670 0.1074 0.1897 0.1800 Uiso
C37_2 C 0.973(19) 0.148(3) 0.226(9) 0.1500 Uiso
C2 C 0.78(3) 0.367(7) 0.542(4) 0.1500 Uiso
H1 H 0.6502 0.3504 0.5438 0.2250 Uiso
H2 H 0.7624 0.4044 0.5484 0.2250 Uiso
H3 H 0.8602 0.3514 0.5654 0.2250 Uiso
H14 H 0.8941 0.4056 0.3534 0.1800 Uiso
C15 C 0.629(18) 0.483(7) 0.642(9) 0.1500 Uiso
C16 C 0.59(2) 0.537(6) 0.634(10) 0.1500 Uiso
H15 H 0.6770 0.5566 0.6145 0.1800 Uiso
C17_3 C 0.44(3) 0.562(4) 0.656(12) 0.1500 Uiso
H16_3 H 0.4134 0.5979 0.6503 0.1800 Uiso
N2_2 N 0.31(2) 0.533(8) 0.685(11) 0.1500 Uiso
C18_2 C 0.35(2) 0.479(7) 0.693(9) 0.1500 Uiso
H17_2 H 0.2659 0.4598 0.7124 0.1800 Uiso
C19 C 0.51(3) 0.454(4) 0.671(9) 0.1500 Uiso
H18 H 0.5294 0.4185 0.6766 0.1800 Uiso
S1 S 0.872(8) 0.3751(19) 0.445(4) 0.1500 Uiso
C23 C 0.860(11) 0.359(5) 0.493(4) 0.1500 Uiso
S2 S 0.955(12) 0.488(2) 0.595(5) 0.1500 Uiso
C31 C 0.808(16) 0.459(4) 0.619(7) 0.1500 Uiso
C32 C 0.88(2) 0.407(3) 0.628(7) 0.1500 Uiso
H20 H 0.8093 0.3800 0.6431 0.1800 Uiso
Zn2 Zn 0.079(4) 0.5504(10) 0.741(3) 0.1500 Uiso
C10_3 C 0.356(11) 0.623(5) 0.881(4) 0.1500 Uiso
C11_3 C 0.157(11) 0.627(4) 0.873(4) 0.1500 Uiso
H11_3 H 0.0789 0.6448 0.8952 0.1800 Uiso
C12_3 C 0.075(9) 0.605(4) 0.833(5) 0.1500 Uiso
N1_3 N 0.191(8) 0.578(4) 0.800(5) 0.1500 Uiso
C13_3 C 0.390(8) 0.574(4) 0.808(4) 0.1500 Uiso
H13_3 H 0.4684 0.5568 0.7861 0.1800 Uiso
C14_3 C 0.473(9) 0.597(4) 0.848(4) 0.1500 Uiso
H14_2 H 0.6059 0.5944 0.8534 0.1800 Uiso
C21_3 C 0.319(10) 0.644(4) 0.971(4) 0.1500 Uiso
H19_3 H 0.1851 0.6490 0.9718 0.1800 Uiso
C22_3 C 0.429(8) 0.627(5) 0.931(4) 0.1500 Uiso
S1_2 S 0.628(8) 0.6249(19) 0.945(4) 0.1500 Uiso
C23_2 C 0.640(11) 0.641(5) 0.993(4) 0.1500 Uiso
H5_3 H 0.0399 0.7448 0.7007 0.1800 Uiso
O1_3 O 0.189(16) 0.662(4) 0.721(10) 0.1500 Uiso
C2_2 C 0.72(3) 0.633(7) 0.042(4) 0.1500 Uiso
H1_2 H 0.8498 0.6496 0.0438 0.2250 Uiso
H2_2 H 0.7376 0.5956 0.0484 0.2250 Uiso
H3_2 H 0.6398 0.6486 0.0654 0.2250 Uiso
C9_2 C 0.21(2) 0.555(8) 0.058(9) 0.1500 Uiso
H8_2 H 0.2055 0.5291 0.0328 0.2250 Uiso
H9_2 H 0.2131 0.5902 0.0437 0.2250 Uiso
H10_2 H 0.0921 0.5522 0.0765 0.2250 Uiso
C15_2 C 0.871(18) 0.517(7) 0.142(9) 0.1500 Uiso
C16_2 C 0.91(2) 0.463(6) 0.134(10) 0.1500 Uiso
H15_2 H 0.8230 0.4434 0.1145 0.1800 Uiso
C19_2 C 0.99(3) 0.546(4) 0.171(9) 0.1500 Uiso
H18_2 H 0.9706 0.5815 0.1766 0.1800 Uiso
C20_2 C 0.449(14) 0.653(5) 0.009(4) 0.1500 Uiso
C24_2 C 0.392(13) 0.681(3) 0.054(4) 0.1500 Uiso
C25_2 C 0.421(12) 0.656(2) 0.099(5) 0.1500 Uiso
C26_2 C 0.312(13) 0.684(2) 0.134(4) 0.1500 Uiso
C27_2 C 0.216(10) 0.727(2) 0.111(4) 0.1500 Uiso
C28_2 C 0.266(13) 0.725(3) 0.062(4) 0.1500 Uiso
F1_2 F 0.480(16) 0.701(3) 0.153(8) 0.1500 Uiso
F2_2 F 0.022(12) 0.722(4) 0.116(5) 0.1500 Uiso
F3_2 F 0.268(16) 0.773(3) 0.130(4) 0.1500 Uiso
C30_2 C 0.384(13) 0.547(4) 0.089(7) 0.1500 Uiso
S2_2 S 0.545(12) 0.512(2) 0.095(5) 0.1500 Uiso
C31_2 C 0.692(16) 0.541(4) 0.119(7) 0.1500 Uiso
C32_2 C 0.62(2) 0.593(3) 0.128(7) 0.1500 Uiso
H20_2 H 0.6907 0.6200 0.1431 0.1800 Uiso
C33_2 C 0.432(19) 0.597(3) 0.109(8) 0.1500 Uiso
F4_2 F 0.239(16) 0.678(4) 0.178(5) 0.1500 Uiso
F5_2 F 0.131(16) 0.751(4) 0.036(5) 0.1500 Uiso
F6_2 F 0.398(17) 0.764(4) 0.052(5) 0.1500 Uiso
C1_3 C 0.029(12) 0.160(3) 0.761(7) 0.1500 Uiso
C3_3 C 0.384(16) 0.297(3) 0.781(10) 0.1500 Uiso
C4_3 C 0.192(17) 0.294(4) 0.796(9) 0.1500 Uiso
H4_3 H 0.1339 0.3228 0.8108 0.1800 Uiso
C5_3 C 0.088(15) 0.247(4) 0.789(8) 0.1500 Uiso
C6_3 C 0.176(15) 0.204(4) 0.767(8) 0.1500 Uiso
C7_3 C 0.367(17) 0.208(3) 0.752(9) 0.1500 Uiso
H6_3 H 0.4259 0.1786 0.7367 0.1800 Uiso
C8_3 C 0.471(15) 0.254(3) 0.758(10) 0.1500 Uiso
H7_2 H 0.5997 0.2566 0.7482 0.1800 Uiso
H12_3 H 0.9413 0.6072 0.8279 0.1800 Uiso
C29_2 C 0.797(15) 0.494(4) 0.790(7) 0.1500 Uiso
O2_2 O 0.072(19) 0.105(5) 0.736(9) 0.1500 Uiso
O3_2 O 0.936(19) 0.469(4) 0.765(10) 0.1500 Uiso
C34_2 C 0.667(17) 0.449(3) 0.775(9) 0.1500 Uiso
C35_3 C 0.485(16) 0.444(3) 0.797(9) 0.1500 Uiso
H21_3 H 0.4289 0.4736 0.8112 0.1800 Uiso
C36_3 C 0.388(17) 0.396(3) 0.796(10) 0.1500 Uiso
H22_3 H 0.2670 0.3926 0.8103 0.1800 Uiso
C37_3 C 0.473(19) 0.352(3) 0.774(9) 0.1500 Uiso
C38_2 C 0.655(19) 0.356(3) 0.753(8) 0.1500 Uiso
H23_2 H 0.7111 0.3271 0.7384 0.1800 Uiso
C39_2 C 0.751(18) 0.405(4) 0.754(8) 0.1500 Uiso
H24_2 H 0.8729 0.4080 0.7393 0.1800 Uiso
O4_3 O 0.748(17) 0.538(5) 0.815(9) 0.1500 Uiso
O5_2 O 0.928(19) 0.605(5) 0.764(9) 0.1500 Uiso
H12_4 H 0.0587 0.1072 0.6721 0.1800 Uiso
O4_4 O 0.252(17) 0.038(5) 0.685(9) 0.1500 Uiso
C1_4 C 0.971(12) 0.660(3) 0.739(7) 0.1500 Uiso
C3_4 C 0.616(16) 0.797(3) 0.719(10) 0.1500 Uiso
C4_4 C 0.808(17) 0.794(4) 0.704(9) 0.1500 Uiso
H4_4 H 0.8661 0.8228 0.6892 0.1800 Uiso
C5_4 C 0.912(15) 0.747(4) 0.711(8) 0.1500 Uiso
C6_4 C 0.824(15) 0.704(4) 0.733(8) 0.1500 Uiso
C7_4 C 0.633(17) 0.708(3) 0.748(9) 0.1500 Uiso
H6_4 H 0.5741 0.6786 0.7633 0.1800 Uiso
C8_4 C 0.529(15) 0.754(3) 0.742(10) 0.1500 Uiso
H7_3 H 0.4003 0.7566 0.7518 0.1800 Uiso
C29_3 C 0.203(15) 0.994(4) 0.710(7) 0.1500 Uiso
O3_3 O 0.064(19) 0.969(4) 0.735(10) 0.1500 Uiso
C34_3 C 0.333(17) 0.949(3) 0.725(9) 0.1500 Uiso
C35_4 C 0.515(16) 0.944(3) 0.703(9) 0.1500 Uiso
H21_4 H 0.5711 0.9736 0.6888 0.1800 Uiso
C36_4 C 0.612(17) 0.896(3) 0.704(10) 0.1500 Uiso
H22_4 H 0.7330 0.8926 0.6897 0.1800 Uiso
C37_4 C 0.527(19) 0.852(3) 0.726(9) 0.1500 Uiso
C38_3 C 0.345(19) 0.856(3) 0.747(8) 0.1500 Uiso
H23_3 H 0.2889 0.8271 0.7616 0.1800 Uiso
C39_3 C 0.249(18) 0.905(4) 0.746(8) 0.1500 Uiso
H24_3 H 0.1271 0.9080 0.7607 0.1800 Uiso
H5_4 H 0.9601 0.2448 0.7993 0.1800 Uiso
O1_4 O 0.811(16) 0.162(4) 0.779(10) 0.1500 Uiso
Zn3_2 Zn 0.921(4) 0.0504(10) 0.759(3) 0.1500 Uiso
C2_3 C 0.28(3) 0.133(7) 0.458(4) 0.1500 Uiso
H1_3 H 0.1502 0.1496 0.4562 0.2250 Uiso
H2_3 H 0.2624 0.0956 0.4516 0.2250 Uiso
H3_3 H 0.3602 0.1486 0.4346 0.2250 Uiso
C9_3 C 0.79(2) 0.055(8) 0.442(9) 0.1500 Uiso
H8_3 H 0.7945 0.0291 0.4672 0.2250 Uiso
H9_3 H 0.7869 0.0902 0.4563 0.2250 Uiso
H10_3 H 0.9079 0.0522 0.4235 0.2250 Uiso
C10_4 C 0.644(11) 0.123(5) 0.619(4) 0.1500 Uiso
C11_4 C 0.843(11) 0.127(4) 0.627(4) 0.1500 Uiso
H11_4 H 0.9211 0.1448 0.6048 0.1800 Uiso
C12_4 C 0.925(9) 0.105(4) 0.667(5) 0.1500 Uiso
N1_4 N 0.809(8) 0.078(4) 0.700(5) 0.1500 Uiso
C13_4 C 0.610(8) 0.074(4) 0.692(4) 0.1500 Uiso
H13_4 H 0.5316 0.0568 0.7139 0.1800 Uiso
C14_4 C 0.527(9) 0.097(4) 0.652(4) 0.1500 Uiso
H14_3 H 0.3941 0.0944 0.6466 0.1800 Uiso
C15_3 C 0.129(18) 0.017(7) 0.358(9) 0.1500 Uiso
C19_3 C 0.01(3) 0.046(4) 0.329(9) 0.1500 Uiso
H18_3 H 0.0294 0.0815 0.3234 0.1800 Uiso
C20_3 C 0.551(14) 0.153(5) 0.491(4) 0.1500 Uiso
C21_4 C 0.681(10) 0.144(4) 0.529(4) 0.1500 Uiso
H19_4 H 0.8149 0.1490 0.5282 0.1800 Uiso
C22_4 C 0.571(8) 0.127(5) 0.569(4) 0.1500 Uiso
S1_3 S 0.372(8) 0.1249(19) 0.555(4) 0.1500 Uiso
C23_3 C 0.360(11) 0.141(5) 0.507(4) 0.1500 Uiso
C24_3 C 0.608(13) 0.181(3) 0.446(4) 0.1500 Uiso
C25_3 C 0.579(12) 0.156(2) 0.401(5) 0.1500 Uiso
C26_3 C 0.688(13) 0.184(2) 0.366(4) 0.1500 Uiso
C27_3 C 0.784(10) 0.227(2) 0.389(4) 0.1500 Uiso
C28_3 C 0.734(13) 0.225(3) 0.438(4) 0.1500 Uiso
F1_3 F 0.520(16) 0.201(3) 0.347(8) 0.1500 Uiso
F2_3 F 0.978(12) 0.222(4) 0.384(5) 0.1500 Uiso
F3_3 F 0.732(16) 0.273(3) 0.370(4) 0.1500 Uiso
C30_3 C 0.616(13) 0.047(4) 0.411(7) 0.1500 Uiso
S2_3 S 0.455(12) 0.012(2) 0.405(5) 0.1500 Uiso
C31_3 C 0.308(16) 0.041(4) 0.381(7) 0.1500 Uiso
C32_3 C 0.38(2) 0.093(3) 0.372(7) 0.1500 Uiso
H20_3 H 0.3093 0.1200 0.3569 0.1800 Uiso
C33_3 C 0.568(19) 0.097(3) 0.391(8) 0.1500 Uiso
F4_3 F 0.761(16) 0.178(4) 0.322(5) 0.1500 Uiso
F5_3 F 0.869(16) 0.251(4) 0.464(5) 0.1500 Uiso
F6_3 F 0.602(17) 0.264(4) 0.448(5) 0.1500 Uiso
N3_2 N 0.69(2) 0.033(8) 0.815(11) 0.1500 Uiso
C16_3 C 0.41(2) 0.037(6) 0.866(10) 0.1500 Uiso
H15_3 H 0.3230 0.0566 0.8855 0.1800 Uiso
C17_4 C 0.56(3) 0.062(4) 0.844(12) 0.1500 Uiso
H16_4 H 0.5866 0.0979 0.8497 0.1800 Uiso
C16_4 C 0.09(2) 0.963(6) 0.366(10) 0.1500 Uiso
H15_4 H 0.1770 0.9434 0.3855 0.1800 Uiso
C18_3 C 0.85(2) 0.021(7) 0.307(9) 0.1500 Uiso
H17_3 H 0.7659 0.0402 0.2876 0.1800 Uiso
H14_4 H 0.1059 0.9056 0.1466 0.1800 Uiso
S1_4 S 0.128(8) 0.8751(19) 0.055(4) 0.1500 Uiso
C23_4 C 0.140(11) 0.859(5) 0.007(4) 0.1500 Uiso
C2_4 C 0.22(3) 0.867(7) 0.958(4) 0.1500 Uiso
H1_4 H 0.3498 0.8504 0.9562 0.2250 Uiso
H2_4 H 0.2376 0.9044 0.9516 0.2250 Uiso
H3_4 H 0.1398 0.8514 0.9346 0.2250 Uiso
C15_4 C 0.371(18) 0.983(7) 0.858(9) 0.1500 Uiso
C18_4 C 0.65(2) 0.979(7) 0.807(9) 0.1500 Uiso
H17_4 H 0.7341 0.9598 0.7876 0.1800 Uiso
C19_4 C 0.49(3) 0.954(4) 0.829(9) 0.1500 Uiso
H18_4 H 0.4706 0.9185 0.8234 0.1800 Uiso
S2_4 S 0.045(12) 0.988(2) 0.905(5) 0.1500 Uiso
C31_4 C 0.192(16) 0.959(4) 0.881(7) 0.1500 Uiso
C32_4 C 0.12(2) 0.907(3) 0.872(7) 0.1500 Uiso
H20_4 H 0.1907 0.8800 0.8569 0.1800 Uiso
H7_4 H 0.0997 0.2434 0.2518 0.1800 Uiso
C29_4 C 0.297(15) 0.006(4) 0.210(7) 0.1500 Uiso
O3_4 O 0.436(19) 0.031(4) 0.235(10) 0.1500 Uiso
C34_4 C 0.167(17) 0.051(3) 0.225(9) 0.1500 Uiso
C38_4 C 0.155(19) 0.144(3) 0.247(8) 0.1500 Uiso
H23_4 H 0.2111 0.1729 0.2616 0.1800 Uiso
C39_4 C 0.251(18) 0.095(4) 0.246(8) 0.1500 Uiso
H24_4 H 0.3729 0.0920 0.2607 0.1800 Uiso
C9_4 C 0.71(2) 0.945(8) 0.942(9) 0.1500 Uiso
H8_4 H 0.7055 0.9709 0.9672 0.2250 Uiso
H9_4 H 0.7131 0.9098 0.9563 0.2250 Uiso
H10_4 H 0.5921 0.9478 0.9235 0.2250 Uiso
C20_4 C 0.949(14) 0.847(5) 0.991(4) 0.1500 Uiso
C24_4 C 0.892(13) 0.819(3) 0.946(4) 0.1500 Uiso
C25_4 C 0.921(12) 0.844(2) 0.901(5) 0.1500 Uiso
C26_4 C 0.812(13) 0.816(2) 0.866(4) 0.1500 Uiso
C27_4 C 0.716(10) 0.773(2) 0.889(4) 0.1500 Uiso
C28_4 C 0.766(13) 0.775(3) 0.938(4) 0.1500 Uiso
F1_4 F 0.980(16) 0.799(3) 0.847(8) 0.1500 Uiso
F2_4 F 0.522(12) 0.778(4) 0.884(5) 0.1500 Uiso
F3_4 F 0.768(16) 0.727(3) 0.870(4) 0.1500 Uiso
C30_4 C 0.884(13) 0.953(4) 0.911(7) 0.1500 Uiso
C33_4 C 0.932(19) 0.903(3) 0.891(8) 0.1500 Uiso
F4_4 F 0.739(16) 0.822(4) 0.822(5) 0.1500 Uiso
F5_4 F 0.631(16) 0.749(4) 0.964(5) 0.1500 Uiso
F6_4 F 0.898(17) 0.736(4) 0.948(5) 0.1500 Uiso
loop_
_geom_bond_atom_site_label_1
_geom_bond_atom_site_label_2
_geom_bond_site_symmetry_1
_geom_bond_site_symmetry_2
C1 C6 1_555 1_555
C3 C4 1_555 1_555
C4 H4 1_555 1_555
C5 C4 1_555 1_555
H5 C5 1_555 1_555
C6 C5 1_555 1_555
C7 C6 1_555 1_555
H6 C7 1_555 1_555
C8 C3 1_555 1_555
O1 C1 1_555 1_555
O2 C1 1_555 1_555
H21 C35 1_555 1_555
C36 C35 1_555 1_555
H22 C36 1_555 1_555
C37 C3 1_555 1_555
Zn3 O2 1_555 1_555
C7 C8 1_555 1_555
C36 C37 1_555 1_555
H16 C17 1_555 1_555
N2 C17 1_555 1_555
Zn3 N2 1_555 1_555
C10 C11 1_555 1_555
C11 H11 1_555 1_555
C12 C11 1_555 1_555
H12 C12 1_555 1_555
N1 C12 1_555 1_555
C13 N1 1_555 1_555
H13 C13 1_555 1_555
C14 C10 1_555 1_555
C21 H19 1_555 1_555
C22 C10 1_555 1_555
Zn3 N1 1_555 1_555
C13 C14 1_555 1_555
C21 C22 1_555 1_555
C9 H8 1_555 1_555
H9 C9 1_555 1_555
H10 C9 1_555 1_555
C10_2 C11_2 1_555 1_555
C11_2 H11_2 1_555 1_555
C12_2 C11_2 1_555 1_555
H12_2 C12_2 1_555 1_555
N1_2 C12_2 1_555 1_555
C13_2 N1_2 1_555 1_555
H13_2 C13_2 1_555 1_555
C14_2 C10_2 1_555 1_555
C20 C21_2 1_555 1_555
C21_2 H19_2 1_555 1_555
C22_2 C10_2 1_555 1_555
Zn1 N1_2 1_555 1_555
C24 C20 1_555 1_555
C25 C24 1_555 1_555
C26 C25 1_555 1_555
C27 C26 1_555 1_555
C28 C24 1_555 1_555
C29 O3 1_555 1_555
F1 C26 1_555 1_555
F2 C27 1_555 1_555
F3 C27 1_555 1_555
O3 Zn1 1_555 1_555
C30 C9 1_555 1_555
C33 C25 1_555 1_555
F4 C26 1_555 1_555
C34 C29 1_555 1_555
H23 C38 1_555 1_555
C39 C34 1_555 1_555
H24 C39 1_555 1_555
F5 C28 1_555 1_555
O4_2 C29 1_555 1_555
F6 C28 1_555 1_555
N3 Zn1 1_555 1_555
O5 Zn1 1_555 1_555
C13_2 C14_2 1_555 1_555
C21_2 C22_2 1_555 1_555
C27 C28 1_555 1_555
C30 C33 1_555 1_555
C38 C39 1_555 1_555
H16_2 C17_2 1_555 1_555
N3 C17_2 1_555 1_555
C18 N3 1_555 1_555
H17 C18 1_555 1_555
C1_2 C6_2 1_555 1_555
C3_2 C4_2 1_555 1_555
C4_2 H4_2 1_555 1_555
C5_2 C4_2 1_555 1_555
H5_2 C5_2 1_555 1_555
C6_2 C5_2 1_555 1_555
C7_2 C6_2 1_555 1_555
H6_2 C7_2 1_555 1_555
C8_2 C3_2 1_555 1_555
O1_2 C1_2 1_555 1_555
O5 C1_2 1_555 1_555
H21_2 C35_2 1_555 1_555
C36_2 C35_2 1_555 1_555
H22_2 C36_2 1_555 1_555
C37_2 C3_2 1_555 1_555
C7_2 C8_2 1_555 1_555
C36_2 C37_2 1_555 1_555
C2 H1 1_555 1_555
H2 C2 1_555 1_555
H3 C2 1_555 1_555
C15 C16 1_555 1_555
C16 H15 1_555 1_555
C17_3 C16 1_555 1_555
H16_3 C17_3 1_555 1_555
N2_2 C17_3 1_555 1_555
C18_2 N2_2 1_555 1_555
H17_2 C18_2 1_555 1_555
C19 C15 1_555 1_555
H18 C19 1_555 1_555
C23 C2 1_555 1_555
C31 C15 1_555 1_555
C32 C31 1_555 1_555
H20 C32 1_555 1_555
Zn2 N2_2 1_555 1_555
C18_2 C19 1_555 1_555
S1 C23 1_555 1_555
S2 C31 1_555 1_555
C10_3 C11_3 1_555 1_555
C11_3 H11_3 1_555 1_555
C12_3 C11_3 1_555 1_555
N1_3 C12_3 1_555 1_555
C13_3 N1_3 1_555 1_555
H13_3 C13_3 1_555 1_555
C14_3 C10_3 1_555 1_555
H14_2 C14_3 1_555 1_555
C21_3 H19_3 1_555 1_555
C22_3 C10_3 1_555 1_555
S1_2 C22_3 1_555 1_555
Zn2 N1_3 1_555 1_555
C13_3 C14_3 1_555 1_555
C21_3 C22_3 1_555 1_555
S1_2 C23_2 1_555 1_555
C2_2 H1_2 1_555 1_555
H2_2 C2_2 1_555 1_555
H3_2 C2_2 1_555 1_555
C9_2 H8_2 1_555 1_555
H9_2 C9_2 1_555 1_555
H10_2 C9_2 1_555 1_555
C15_2 C16_2 1_555 1_555
C16_2 H15_2 1_555 1_555
C19_2 C15_2 1_555 1_555
H18_2 C19_2 1_555 1_555
C24_2 C20_2 1_555 1_555
C25_2 C24_2 1_555 1_555
C26_2 C25_2 1_555 1_555
C27_2 C26_2 1_555 1_555
C28_2 C24_2 1_555 1_555
F1_2 C26_2 1_555 1_555
F2_2 C27_2 1_555 1_555
F3_2 C27_2 1_555 1_555
C30_2 C9_2 1_555 1_555
S2_2 C30_2 1_555 1_555
C31_2 C15_2 1_555 1_555
C32_2 C31_2 1_555 1_555
H20_2 C32_2 1_555 1_555
C33_2 C25_2 1_555 1_555
F4_2 C26_2 1_555 1_555
F5_2 C28_2 1_555 1_555
F6_2 C28_2 1_555 1_555
C27_2 C28_2 1_555 1_555
C30_2 C33_2 1_555 1_555
S2_2 C31_2 1_555 1_555
C32_2 C33_2 1_555 1_555
C1_3 C6_3 1_555 1_555
C3_3 C4_3 1_555 1_555
C4_3 H4_3 1_555 1_555
C5_3 C4_3 1_555 1_555
C6_3 C5_3 1_555 1_555
C7_3 C6_3 1_555 1_555
H6_3 C7_3 1_555 1_555
C8_3 C3_3 1_555 1_555
H7_2 C8_3 1_555 1_555
C29_2 O3_2 1_555 1_555
O2_2 C1_3 1_555 1_555
C34_2 C29_2 1_555 1_555
C35_3 C34_2 1_555 1_555
H21_3 C35_3 1_555 1_555
C36_3 C35_3 1_555 1_555
H22_3 C36_3 1_555 1_555
C37_3 C3_3 1_555 1_555
C38_2 C37_3 1_555 1_555
H23_2 C38_2 1_555 1_555
C39_2 C34_2 1_555 1_555
H24_2 C39_2 1_555 1_555
O4_3 C29_2 1_555 1_555
C7_3 C8_3 1_555 1_555
C36_3 C37_3 1_555 1_555
C38_2 C39_2 1_555 1_555
C1_4 C6_4 1_555 1_555
C3_4 C4_4 1_555 1_555
C4_4 H4_4 1_555 1_555
C5_4 C4_4 1_555 1_555
C6_4 C5_4 1_555 1_555
C7_4 C6_4 1_555 1_555
H6_4 C7_4 1_555 1_555
C8_4 C3_4 1_555 1_555
H7_3 C8_4 1_555 1_555
C29_3 O3_3 1_555 1_555
O5_2 C1_4 1_555 1_555
C34_3 C29_3 1_555 1_555
C35_4 C34_3 1_555 1_555
H21_4 C35_4 1_555 1_555
C36_4 C35_4 1_555 1_555
H22_4 C36_4 1_555 1_555
C37_4 C3_4 1_555 1_555
C38_3 C37_4 1_555 1_555
H23_3 C38_3 1_555 1_555
C39_3 C34_3 1_555 1_555
H24_3 C39_3 1_555 1_555
C7_4 C8_4 1_555 1_555
C36_4 C37_4 1_555 1_555
C38_3 C39_3 1_555 1_555
C2_3 H1_3 1_555 1_555
H2_3 C2_3 1_555 1_555
H3_3 C2_3 1_555 1_555
C9_3 H8_3 1_555 1_555
H9_3 C9_3 1_555 1_555
H10_3 C9_3 1_555 1_555
C10_4 C11_4 1_555 1_555
C11_4 H11_4 1_555 1_555
C12_4 C11_4 1_555 1_555
N1_4 C12_4 1_555 1_555
C13_4 N1_4 1_555 1_555
H13_4 C13_4 1_555 1_555
C14_4 C10_4 1_555 1_555
H14_3 C14_4 1_555 1_555
C19_3 C15_3 1_555 1_555
H18_3 C19_3 1_555 1_555
C20_3 C21_4 1_555 1_555
C21_4 H19_4 1_555 1_555
C22_4 C10_4 1_555 1_555
S1_3 C22_4 1_555 1_555
C23_3 C2_3 1_555 1_555
Zn3_2 N1_4 1_555 1_555
C24_3 C20_3 1_555 1_555
C25_3 C24_3 1_555 1_555
C26_3 C25_3 1_555 1_555
C27_3 C26_3 1_555 1_555
C28_3 C24_3 1_555 1_555
F1_3 C26_3 1_555 1_555
F2_3 C27_3 1_555 1_555
F3_3 C27_3 1_555 1_555
C30_3 C9_3 1_555 1_555
S2_3 C30_3 1_555 1_555
C31_3 C15_3 1_555 1_555
C32_3 C31_3 1_555 1_555
H20_3 C32_3 1_555 1_555
C33_3 C25_3 1_555 1_555
F4_3 C26_3 1_555 1_555
F5_3 C28_3 1_555 1_555
F6_3 C28_3 1_555 1_555
N3_2 Zn3_2 1_555 1_555
C13_4 C14_4 1_555 1_555
C20_3 C23_3 1_555 1_555
C21_4 C22_4 1_555 1_555
S1_3 C23_3 1_555 1_555
C27_3 C28_3 1_555 1_555
C30_3 C33_3 1_555 1_555
S2_3 C31_3 1_555 1_555
C32_3 C33_3 1_555 1_555
C16_3 H15_3 1_555 1_555
C17_4 C16_3 1_555 1_555
H16_4 C17_4 1_555 1_555
N3_2 C17_4 1_555 1_555
C16_4 H15_4 1_555 1_555
H17_3 C18_3 1_555 1_555
S1_4 C23_4 1_555 1_555
C2_4 H1_4 1_555 1_555
H2_4 C2_4 1_555 1_555
H3_4 C2_4 1_555 1_555
H17_4 C18_4 1_555 1_555
C19_4 C15_4 1_555 1_555
H18_4 C19_4 1_555 1_555
C31_4 C15_4 1_555 1_555
C32_4 C31_4 1_555 1_555
H20_4 C32_4 1_555 1_555
C18_4 C19_4 1_555 1_555
S2_4 C31_4 1_555 1_555
C29_4 O3_4 1_555 1_555
C34_4 C29_4 1_555 1_555
H23_4 C38_4 1_555 1_555
C39_4 C34_4 1_555 1_555
H24_4 C39_4 1_555 1_555
C38_4 C39_4 1_555 1_555
C9_4 H8_4 1_555 1_555
H9_4 C9_4 1_555 1_555
H10_4 C9_4 1_555 1_555
C24_4 C20_4 1_555 1_555
C25_4 C24_4 1_555 1_555
C26_4 C25_4 1_555 1_555
C27_4 C26_4 1_555 1_555
C28_4 C24_4 1_555 1_555
F1_4 C26_4 1_555 1_555
F2_4 C27_4 1_555 1_555
F3_4 C27_4 1_555 1_555
C30_4 C9_4 1_555 1_555
C33_4 C25_4 1_555 1_555
F4_4 C26_4 1_555 1_555
F5_4 C28_4 1_555 1_555
F6_4 C28_4 1_555 1_555
C27_4 C28_4 1_555 1_555
C30_4 C33_4 1_555 1_555

#END
