
###############################################################################
#
# This file contains modified crystal structure data generated from the
# MOF subset of the Cambridge Structural Database (CSD) v543 
# hosted by the Cambridge Crystallographic Data Centre (CCDC).
#
# This work is licensed under the Creative Commons
# Attribution-NonCommercial-ShareAlike 4.0 International License.
# To view a copy of this license, visit
# http://creativecommons.org/licenses/by-nc-sa/4.0/
# or send a letter to
# Creative Commons, PO Box 1866, Mountain View, CA 94042, USA.
#
# CIF created using the CSD Python API on 29 September 2022
# The structure has been converted into the P1 space group
# The structure has a 3D framework
# The original CSD entry YOLKOB15 is in the orthorhombic crystal system
# The original CSD entry YOLKOB15 is in a Sohncke space group
# The framework has been calculated to contain at least 10.0% void space
# The void calculation uses a probe of radius 1.32A, grid spacing 0.4
#
###############################################################################

data_YOLKOB15
_chemical_formula_moiety         '(C156 H96 F24 N8 O16 S8 Zn4)n'
_symmetry_cell_setting           triclinic
_symmetry_space_group_name_H-M   'P 1'
_symmetry_Int_Tables_number      1
_space_group_name_Hall           'P 1'
loop_
_symmetry_equiv_pos_site_id
_symmetry_equiv_pos_as_xyz
1 x,y,z
_cell_length_a                   7.072(4)
_cell_length_b                   24.225(15)
_cell_length_c                   30.38(5)
_cell_angle_alpha                90
_cell_angle_beta                 90
_cell_angle_gamma                90
_cell_volume                     5204.68
loop_
_atom_site_label
_atom_site_type_symbol
_atom_site_fract_x
_atom_site_fract_y
_atom_site_fract_z
_atom_site_U_iso_or_equiv
_atom_site_thermal_displace_type
Zn1 Zn 0.385(3) 0.4676(9) 0.2851(10) 0.1130 Uiso
N1 N 0.211(7) 0.504(4) 0.230(3) 0.1130 Uiso
C1 C 0.195(7) 0.557(3) 0.212(3) 0.1130 Uiso
C2 C 0.061(9) 0.468(3) 0.227(3) 0.1130 Uiso
H1 H 0.2960 0.5816 0.2142 0.1350 Uiso
C3 C 0.029(7) 0.573(3) 0.192(3) 0.1130 Uiso
H2 H 0.0716 0.4323 0.2388 0.1350 Uiso
H3 H 0.0181 0.6082 0.1797 0.1350 Uiso
C9 C 0.080(8) 0.439(3) 0.630(3) 0.1130 Uiso
C11 C 0.244(12) 0.426(4) 0.603(4) 0.1130 Uiso
C12 C 0.037(10) 0.317(2) 0.560(2) 0.1130 Uiso
C13 C 0.075(14) 0.297(5) 0.633(2) 0.1130 Uiso
H6 H 0.2451 0.3875 0.5961 0.1690 Uiso
H7 H 0.2372 0.4467 0.5755 0.1690 Uiso
H8 H 0.3579 0.4360 0.6179 0.1690 Uiso
C15 C 0.141(10) 0.267(2) 0.563(3) 0.1130 Uiso
C16 C 0.164(12) 0.254(4) 0.609(3) 0.1130 Uiso
F1 F 0.249(10) 0.292(3) 0.654(3) 0.1130 Uiso
F2 F 0.014(9) 0.267(3) 0.669(4) 0.1130 Uiso
C17 C 0.111(5) 0.367(3) 0.488(2) 0.1130 Uiso
F3 F 0.319(9) 0.247(3) 0.554(4) 0.1130 Uiso
F4 F 0.036(10) 0.219(3) 0.564(3) 0.1130 Uiso
F5 F 0.181(12) 0.191(3) 0.617(4) 0.1130 Uiso
F6 F 0.359(10) 0.228(3) 0.621(4) 0.1130 Uiso
H9 H 0.2410 0.3614 0.4875 0.1350 Uiso
C21 C 0.092(6) 0.410(3) 0.4144(19) 0.1130 Uiso
C23 C 0.288(6) 0.412(3) 0.412(2) 0.1130 Uiso
C24 C 0.074(10) 0.453(3) 0.343(2) 0.1130 Uiso
H14 H 0.3600 0.3985 0.4356 0.1350 Uiso
C25 C 0.377(8) 0.435(2) 0.376(2) 0.1130 Uiso
N2 N 0.270(10) 0.455(3) 0.341(2) 0.1130 Uiso
H15 H 0.0023 0.4672 0.3199 0.1350 Uiso
H16 H 0.5087 0.4360 0.3744 0.1350 Uiso
O1 O 0.515(11) 0.506(3) 0.280(5) 0.1130 Uiso
O2 O 0.554(12) 0.419(3) 0.279(5) 0.1130 Uiso
C26 C 0.697(14) 0.549(3) 0.290(4) 0.1130 Uiso
C27 C 0.782(9) 0.604(3) 0.294(3) 0.1130 Uiso
O3 O 0.676(11) 0.518(3) 0.340(3) 0.1130 Uiso
C28 C 0.726(7) 0.643(3) 0.263(3) 0.1130 Uiso
C29 C 0.961(10) 0.607(3) 0.313(3) 0.1130 Uiso
H17 H 0.6063 0.6406 0.2506 0.1350 Uiso
C30 C 0.848(8) 0.685(3) 0.251(3) 0.1130 Uiso
H18 H 0.9981 0.5811 0.3338 0.1350 Uiso
H19 H 0.8109 0.7110 0.2304 0.1350 Uiso
H21 H 0.9594 0.7776 0.2243 0.1350 Uiso
C31 C 0.917(8) 0.149(3) 0.199(2) 0.1130 Uiso
C32 C 0.973(8) 0.188(3) 0.230(2) 0.1130 Uiso
H20 H 0.7973 0.1516 0.1863 0.1350 Uiso
C33 C 0.845(7) 0.232(3) 0.243(3) 0.1130 Uiso
C34 C 0.917(8) 0.278(3) 0.266(3) 0.1130 Uiso
C35 C 0.659(7) 0.233(3) 0.228(3) 0.1130 Uiso
C36 C 0.803(10) 0.324(3) 0.273(3) 0.1130 Uiso
C37 C 0.546(8) 0.279(3) 0.235(3) 0.1130 Uiso
H22 H 0.6110 0.2024 0.2133 0.1350 Uiso
C38 C 0.618(10) 0.324(3) 0.257(3) 0.1130 Uiso
H23 H 0.8511 0.3544 0.2875 0.1350 Uiso
H24 H 0.4216 0.2792 0.2251 0.1350 Uiso
C39 C 0.481(9) 0.367(4) 0.270(5) 0.1130 Uiso
O4 O 0.305(10) 0.363(3) 0.250(4) 0.1130 Uiso
C4 C 0.894(8) 0.484(2) 0.206(3) 0.1130 Uiso
C5 C 0.878(8) 0.536(2) 0.189(3) 0.1130 Uiso
H4 H 0.7937 0.4590 0.2042 0.1350 Uiso
C6 C 0.706(8) 0.5523(18) 0.165(3) 0.1130 Uiso
C7 C 0.686(9) 0.6080(17) 0.151(3) 0.1130 Uiso
S1 S 0.541(5) 0.5231(17) 0.1520(18) 0.1130 Uiso
C8 C 0.509(10) 0.613(2) 0.129(3) 0.1130 Uiso
H5 H 0.7732 0.6361 0.1555 0.1350 Uiso
C9_2 C 0.420(8) 0.561(3) 0.130(3) 0.1130 Uiso
C10 C 0.503(11) 0.665(3) 0.103(2) 0.1130 Uiso
C11_2 C 0.256(12) 0.574(4) 0.103(4) 0.1130 Uiso
C12_2 C 0.463(10) 0.683(2) 0.060(2) 0.1130 Uiso
C13_2 C 0.425(14) 0.703(5) 0.133(2) 0.1130 Uiso
H6_2 H 0.2549 0.6125 0.0961 0.1690 Uiso
H7_2 H 0.2628 0.5533 0.0755 0.1690 Uiso
H8_2 H 0.1421 0.5640 0.1179 0.1690 Uiso
C14 C 0.510(7) 0.644(3) 0.0245(18) 0.1130 Uiso
C15_2 C 0.359(10) 0.733(2) 0.063(3) 0.1130 Uiso
C16_2 C 0.336(12) 0.746(4) 0.109(3) 0.1130 Uiso
F1_2 F 0.251(10) 0.708(3) 0.154(3) 0.1130 Uiso
F2_2 F 0.486(9) 0.733(3) 0.169(4) 0.1130 Uiso
C18 C 0.697(6) 0.630(3) 0.0119(16) 0.1130 Uiso
F3_2 F 0.181(9) 0.753(3) 0.054(4) 0.1130 Uiso
F4_2 F 0.464(10) 0.781(3) 0.064(3) 0.1130 Uiso
F5_2 F 0.319(12) 0.809(3) 0.117(4) 0.1130 Uiso
F6_2 F 0.141(10) 0.772(3) 0.121(4) 0.1130 Uiso
C20 C 0.868(8) 0.642(4) 0.037(3) 0.1130 Uiso
H10 H 0.9516 0.6108 0.0363 0.1690 Uiso
H11 H 0.9311 0.6736 0.0249 0.1690 Uiso
H12 H 0.8346 0.6497 0.0672 0.1690 Uiso
C17_2 C 0.389(5) 0.633(3) 0.988(2) 0.1130 Uiso
H9_2 H 0.2590 0.6386 0.9875 0.1350 Uiso
C19 C 0.502(5) 0.613(3) 0.9531(19) 0.1130 Uiso
S2 S 0.692(5) 0.6107(15) 0.9678(16) 0.1130 Uiso
C21_2 C 0.408(6) 0.590(3) 0.9144(19) 0.1130 Uiso
C22 C 0.515(7) 0.569(3) 0.8797(18) 0.1130 Uiso
C23_2 C 0.212(6) 0.588(3) 0.912(2) 0.1130 Uiso
C24_2 C 0.426(10) 0.547(3) 0.843(2) 0.1130 Uiso
H13 H 0.6464 0.5703 0.8810 0.1350 Uiso
H14_2 H 0.1400 0.6015 0.9356 0.1350 Uiso
C25_2 C 0.123(8) 0.565(2) 0.876(2) 0.1130 Uiso
N2_2 N 0.230(10) 0.545(3) 0.841(2) 0.1130 Uiso
H15_2 H 0.4977 0.5328 0.8199 0.1350 Uiso
Zn2 Zn 0.115(3) 0.5324(9) 0.7851(10) 0.1130 Uiso
N3 N 0.289(7) 0.496(4) 0.730(3) 0.1130 Uiso
C1_2 C 0.305(7) 0.443(3) 0.712(3) 0.1130 Uiso
C2_2 C 0.439(9) 0.532(3) 0.727(3) 0.1130 Uiso
H1_2 H 0.2040 0.4184 0.7142 0.1350 Uiso
C3_2 C 0.471(7) 0.427(3) 0.692(3) 0.1130 Uiso
C4_2 C 0.606(8) 0.516(2) 0.706(3) 0.1130 Uiso
H2_2 H 0.4284 0.5677 0.7388 0.1350 Uiso
C5_2 C 0.622(8) 0.464(2) 0.689(3) 0.1130 Uiso
H3_2 H 0.4819 0.3918 0.6797 0.1350 Uiso
H4_2 H 0.7063 0.5410 0.7042 0.1350 Uiso
C6_2 C 0.794(8) 0.4477(18) 0.665(3) 0.1130 Uiso
C7_2 C 0.814(9) 0.3920(17) 0.651(3) 0.1130 Uiso
S1_2 S 0.959(5) 0.4769(17) 0.6520(18) 0.1130 Uiso
C8_2 C 0.991(10) 0.387(2) 0.629(3) 0.1130 Uiso
H5_2 H 0.7268 0.3639 0.6555 0.1350 Uiso
C10_2 C 0.997(11) 0.335(3) 0.603(2) 0.1130 Uiso
C14_2 C 0.990(7) 0.356(3) 0.5245(18) 0.1130 Uiso
C18_2 C 0.803(6) 0.370(3) 0.5119(16) 0.1130 Uiso
C19_2 C 0.998(5) 0.387(3) 0.4531(19) 0.1130 Uiso
C20_2 C 0.632(8) 0.358(4) 0.537(3) 0.1130 Uiso
S2_2 S 0.808(5) 0.3893(15) 0.4678(16) 0.1130 Uiso
H10_2 H 0.5484 0.3892 0.5363 0.1690 Uiso
H11_2 H 0.5689 0.3264 0.5249 0.1690 Uiso
H12_2 H 0.6654 0.3503 0.5672 0.1690 Uiso
C22_2 C 0.985(7) 0.431(3) 0.3797(18) 0.1130 Uiso
H13_2 H 0.8536 0.4297 0.3810 0.1350 Uiso
H24_2 H 0.0784 0.7208 0.7251 0.1350 Uiso
C39_2 C 0.019(9) 0.633(4) 0.770(5) 0.1130 Uiso
O4_2 O 0.195(10) 0.637(3) 0.750(4) 0.1130 Uiso
H16_2 H 0.9913 0.5640 0.8744 0.1350 Uiso
O1_2 O 0.985(11) 0.494(3) 0.780(5) 0.1130 Uiso
O2_2 O 0.946(12) 0.581(3) 0.779(5) 0.1130 Uiso
C26_2 C 0.803(14) 0.451(3) 0.790(4) 0.1130 Uiso
C27_2 C 0.718(9) 0.396(3) 0.794(3) 0.1130 Uiso
O3_2 O 0.824(11) 0.482(3) 0.840(3) 0.1130 Uiso
C28_2 C 0.774(7) 0.357(3) 0.763(3) 0.1130 Uiso
C29_2 C 0.539(10) 0.393(3) 0.813(3) 0.1130 Uiso
H17_2 H 0.8937 0.3594 0.7506 0.1350 Uiso
C30_2 C 0.652(8) 0.315(3) 0.751(3) 0.1130 Uiso
C31_2 C 0.417(8) 0.351(3) 0.801(2) 0.1130 Uiso
H18_2 H 0.5019 0.4189 0.8338 0.1350 Uiso
C32_2 C 0.473(8) 0.312(3) 0.770(2) 0.1130 Uiso
H19_2 H 0.6891 0.2890 0.7304 0.1350 Uiso
H20_2 H 0.2973 0.3484 0.8137 0.1350 Uiso
C33_2 C 0.345(7) 0.268(3) 0.757(3) 0.1130 Uiso
C34_2 C 0.417(8) 0.222(3) 0.734(3) 0.1130 Uiso
C35_2 C 0.159(7) 0.267(3) 0.772(3) 0.1130 Uiso
C36_2 C 0.303(10) 0.176(3) 0.727(3) 0.1130 Uiso
H21_2 H 0.5406 0.2224 0.7243 0.1350 Uiso
C37_2 C 0.046(8) 0.221(3) 0.765(3) 0.1130 Uiso
H22_2 H 0.1110 0.2976 0.7867 0.1350 Uiso
C38_2 C 0.118(10) 0.176(3) 0.743(3) 0.1130 Uiso
H23_2 H 0.3511 0.1456 0.7125 0.1350 Uiso
O5 O 0.054(12) 0.081(3) 0.721(5) 0.1130 Uiso
H16_3 H 0.0087 0.0640 0.6256 0.1350 Uiso
O1_3 O 0.015(11) 0.994(3) 0.720(5) 0.1130 Uiso
C26_3 C 0.197(14) 0.951(3) 0.710(4) 0.1130 Uiso
C27_3 C 0.282(9) 0.896(3) 0.706(3) 0.1130 Uiso
O3_3 O 0.176(11) 0.982(3) 0.660(3) 0.1130 Uiso
C28_3 C 0.226(7) 0.857(3) 0.737(3) 0.1130 Uiso
C29_3 C 0.461(10) 0.893(3) 0.687(3) 0.1130 Uiso
H17_3 H 0.1063 0.8594 0.7494 0.1350 Uiso
C30_3 C 0.348(8) 0.815(3) 0.749(3) 0.1130 Uiso
C31_3 C 0.583(8) 0.851(3) 0.699(2) 0.1130 Uiso
H18_3 H 0.4981 0.9189 0.6662 0.1350 Uiso
C32_3 C 0.527(8) 0.812(3) 0.730(2) 0.1130 Uiso
H19_3 H 0.3109 0.7890 0.7696 0.1350 Uiso
H20_3 H 0.7027 0.8484 0.6863 0.1350 Uiso
C33_3 C 0.655(7) 0.768(3) 0.743(3) 0.1130 Uiso
C34_3 C 0.583(8) 0.722(3) 0.766(3) 0.1130 Uiso
C35_3 C 0.841(7) 0.767(3) 0.728(3) 0.1130 Uiso
C36_3 C 0.697(10) 0.676(3) 0.773(3) 0.1130 Uiso
H21_3 H 0.4594 0.7224 0.7757 0.1350 Uiso
C37_3 C 0.954(8) 0.721(3) 0.735(3) 0.1130 Uiso
H22_3 H 0.8890 0.7976 0.7133 0.1350 Uiso
C38_3 C 0.882(10) 0.676(3) 0.757(3) 0.1130 Uiso
H23_3 H 0.6489 0.6456 0.7875 0.1350 Uiso
H24_3 H 0.9216 0.2208 0.7749 0.1350 Uiso
C39_3 C 0.981(9) 0.133(4) 0.730(5) 0.1130 Uiso
O4_3 O 0.805(10) 0.137(3) 0.750(4) 0.1130 Uiso
Zn3 Zn 0.885(3) 0.0324(9) 0.7149(10) 0.1130 Uiso
C2_3 C 0.561(9) 0.032(3) 0.773(3) 0.1130 Uiso
C4_3 C 0.394(8) 0.016(2) 0.794(3) 0.1130 Uiso
H2_3 H 0.5716 0.0677 0.7612 0.1350 Uiso
H4_3 H 0.2937 0.0410 0.7958 0.1350 Uiso
C5_3 C 0.122(8) 0.036(2) 0.311(3) 0.1130 Uiso
C6_3 C 0.294(8) 0.0523(18) 0.335(3) 0.1130 Uiso
C7_3 C 0.314(9) 0.1080(17) 0.349(3) 0.1130 Uiso
S1_3 S 0.459(5) 0.0231(17) 0.3480(18) 0.1130 Uiso
C8_3 C 0.491(10) 0.113(2) 0.371(3) 0.1130 Uiso
H5_3 H 0.2268 0.1361 0.3445 0.1350 Uiso
C9_3 C 0.580(8) 0.061(3) 0.370(3) 0.1130 Uiso
C10_3 C 0.497(11) 0.165(3) 0.397(2) 0.1130 Uiso
C11_3 C 0.744(12) 0.074(4) 0.397(4) 0.1130 Uiso
C12_3 C 0.537(10) 0.183(2) 0.440(2) 0.1130 Uiso
C13_3 C 0.575(14) 0.203(5) 0.367(2) 0.1130 Uiso
H6_3 H 0.7451 0.1125 0.4039 0.1690 Uiso
H7_3 H 0.7372 0.0533 0.4245 0.1690 Uiso
H8_3 H 0.8579 0.0640 0.3821 0.1690 Uiso
C14_3 C 0.490(7) 0.144(3) 0.4755(18) 0.1130 Uiso
C15_3 C 0.641(10) 0.233(2) 0.437(3) 0.1130 Uiso
C16_3 C 0.664(12) 0.246(4) 0.391(3) 0.1130 Uiso
F1_3 F 0.749(10) 0.208(3) 0.346(3) 0.1130 Uiso
F2_3 F 0.514(9) 0.233(3) 0.331(4) 0.1130 Uiso
C17_3 C 0.611(5) 0.133(3) 0.512(2) 0.1130 Uiso
C18_3 C 0.303(6) 0.130(3) 0.4881(16) 0.1130 Uiso
F3_3 F 0.819(9) 0.253(3) 0.446(4) 0.1130 Uiso
F4_3 F 0.536(10) 0.281(3) 0.436(3) 0.1130 Uiso
F5_3 F 0.681(12) 0.309(3) 0.383(4) 0.1130 Uiso
F6_3 F 0.859(10) 0.272(3) 0.379(4) 0.1130 Uiso
H9_3 H 0.7410 0.1386 0.5125 0.1350 Uiso
C19_3 C 0.498(5) 0.113(3) 0.5469(19) 0.1130 Uiso
C20_3 C 0.132(8) 0.142(4) 0.463(3) 0.1130 Uiso
S2_3 S 0.308(5) 0.1107(15) 0.5322(16) 0.1130 Uiso
C21_3 C 0.592(6) 0.090(3) 0.5856(19) 0.1130 Uiso
H10_3 H 0.0484 0.1108 0.4637 0.1690 Uiso
H11_3 H 0.0689 0.1736 0.4751 0.1690 Uiso
H12_3 H 0.1654 0.1497 0.4328 0.1690 Uiso
C22_3 C 0.485(7) 0.069(3) 0.6203(18) 0.1130 Uiso
C23_3 C 0.788(6) 0.088(3) 0.588(2) 0.1130 Uiso
C24_3 C 0.574(10) 0.047(3) 0.657(2) 0.1130 Uiso
H13_3 H 0.3536 0.0703 0.6190 0.1350 Uiso
H14_3 H 0.8600 0.1015 0.5644 0.1350 Uiso
C25_3 C 0.877(8) 0.065(2) 0.624(2) 0.1130 Uiso
N2_3 N 0.770(10) 0.045(3) 0.659(2) 0.1130 Uiso
H15_3 H 0.5023 0.0328 0.6801 0.1350 Uiso
C31_4 C 0.083(8) 0.649(3) 0.301(2) 0.1130 Uiso
C32_4 C 0.027(8) 0.688(3) 0.270(2) 0.1130 Uiso
H20_4 H 0.2027 0.6516 0.3137 0.1350 Uiso
C33_4 C 0.155(7) 0.732(3) 0.257(3) 0.1130 Uiso
C34_4 C 0.083(8) 0.778(3) 0.234(3) 0.1130 Uiso
C35_4 C 0.341(7) 0.733(3) 0.272(3) 0.1130 Uiso
C36_4 C 0.197(10) 0.824(3) 0.227(3) 0.1130 Uiso
C37_4 C 0.454(8) 0.779(3) 0.265(3) 0.1130 Uiso
H22_4 H 0.3890 0.7024 0.2867 0.1350 Uiso
C38_4 C 0.382(10) 0.824(3) 0.243(3) 0.1130 Uiso
H23_4 H 0.1489 0.8544 0.2125 0.1350 Uiso
H24_4 H 0.5784 0.7792 0.2749 0.1350 Uiso
C39_4 C 0.519(9) 0.867(4) 0.230(5) 0.1130 Uiso
O4_4 O 0.695(10) 0.863(3) 0.250(4) 0.1130 Uiso
O5_2 O 0.446(12) 0.919(3) 0.221(5) 0.1130 Uiso
Zn3_2 Zn 0.615(3) 0.9676(9) 0.2149(10) 0.1130 Uiso
C17_4 C 0.889(5) 0.867(3) 0.012(2) 0.1130 Uiso
H9_4 H 0.7590 0.8614 0.0125 0.1350 Uiso
C21_4 C 0.908(6) 0.910(3) 0.0856(19) 0.1130 Uiso
C23_4 C 0.712(6) 0.912(3) 0.088(2) 0.1130 Uiso
C24_4 C 0.926(10) 0.953(3) 0.157(2) 0.1130 Uiso
H14_4 H 0.6400 0.8985 0.0644 0.1350 Uiso
C25_4 C 0.623(8) 0.935(2) 0.124(2) 0.1130 Uiso
N2_4 N 0.730(10) 0.955(3) 0.159(2) 0.1130 Uiso
H15_4 H 0.9977 0.9672 0.1801 0.1350 Uiso
H16_4 H 0.4913 0.9360 0.1256 0.1350 Uiso
C2_4 C 0.939(9) 0.968(3) 0.273(3) 0.1130 Uiso
H2_4 H 0.9284 0.9323 0.2612 0.1350 Uiso
C19_4 C 0.002(5) 0.887(3) 0.0469(19) 0.1130 Uiso
S2_4 S 0.192(5) 0.8893(15) 0.0322(16) 0.1130 Uiso
C22_4 C 0.015(7) 0.931(3) 0.1203(18) 0.1130 Uiso
H13_4 H 0.1464 0.9297 0.1190 0.1350 Uiso
N1_2 N 0.711(7) 0.996(4) 0.770(3) 0.1130 Uiso
C1_3 C 0.695(7) 0.943(3) 0.788(3) 0.1130 Uiso
H1_3 H 0.7960 0.9184 0.7858 0.1350 Uiso
C3_3 C 0.529(7) 0.927(3) 0.808(3) 0.1130 Uiso
C5_4 C 0.378(8) 0.964(2) 0.811(3) 0.1130 Uiso
H3_3 H 0.5181 0.8918 0.8203 0.1350 Uiso
C6_4 C 0.206(8) 0.9477(18) 0.835(3) 0.1130 Uiso
C7_4 C 0.186(9) 0.8920(17) 0.849(3) 0.1130 Uiso
S1_4 S 0.041(5) 0.9769(17) 0.8480(18) 0.1130 Uiso
C8_4 C 0.009(10) 0.887(2) 0.871(3) 0.1130 Uiso
H5_4 H 0.2732 0.8639 0.8445 0.1350 Uiso
C10_4 C 0.003(11) 0.835(3) 0.897(2) 0.1130 Uiso
C14_4 C 0.010(7) 0.856(3) 0.9755(18) 0.1130 Uiso
C18_4 C 0.197(6) 0.870(3) 0.9881(16) 0.1130 Uiso
C20_4 C 0.368(8) 0.858(4) 0.963(3) 0.1130 Uiso
H10_4 H 0.4516 0.8892 0.9637 0.1690 Uiso
H11_4 H 0.4311 0.8264 0.9751 0.1690 Uiso
H12_4 H 0.3346 0.8503 0.9328 0.1690 Uiso
C4_4 C 0.106(8) 0.984(2) 0.294(3) 0.1130 Uiso
H4_4 H 0.2063 0.9590 0.2958 0.1350 Uiso
O1_4 O 0.485(11) 0.006(3) 0.220(5) 0.1130 Uiso
C26_4 C 0.303(14) 0.049(3) 0.210(4) 0.1130 Uiso
C27_4 C 0.218(9) 0.104(3) 0.206(3) 0.1130 Uiso
O3_4 O 0.324(11) 0.018(3) 0.160(3) 0.1130 Uiso
C28_4 C 0.274(7) 0.143(3) 0.237(3) 0.1130 Uiso
C29_4 C 0.039(10) 0.107(3) 0.187(3) 0.1130 Uiso
H17_4 H 0.3937 0.1406 0.2494 0.1350 Uiso
C30_4 C 0.152(8) 0.185(3) 0.249(3) 0.1130 Uiso
H18_4 H 0.0019 0.0811 0.1662 0.1350 Uiso
H19_4 H 0.1891 0.2110 0.2696 0.1350 Uiso
H21_4 H 0.0406 0.2776 0.2757 0.1350 Uiso
N3_2 N 0.789(7) 0.004(4) 0.270(3) 0.1130 Uiso
C1_4 C 0.805(7) 0.057(3) 0.288(3) 0.1130 Uiso
H1_4 H 0.7040 0.0816 0.2858 0.1350 Uiso
C3_4 C 0.971(7) 0.073(3) 0.308(3) 0.1130 Uiso
H3_4 H 0.9819 0.1082 0.3203 0.1350 Uiso
C9_4 C 0.920(8) 0.939(3) 0.870(3) 0.1130 Uiso
C11_4 C 0.756(12) 0.926(4) 0.897(4) 0.1130 Uiso
C12_4 C 0.963(10) 0.817(2) 0.940(2) 0.1130 Uiso
C13_4 C 0.925(14) 0.797(5) 0.867(2) 0.1130 Uiso
H6_4 H 0.7549 0.8875 0.9039 0.1690 Uiso
H7_4 H 0.7628 0.9467 0.9245 0.1690 Uiso
H8_4 H 0.6421 0.9360 0.8821 0.1690 Uiso
C15_4 C 0.859(10) 0.767(2) 0.937(3) 0.1130 Uiso
C16_4 C 0.836(12) 0.754(4) 0.891(3) 0.1130 Uiso
F1_4 F 0.751(10) 0.792(3) 0.846(3) 0.1130 Uiso
F2_4 F 0.986(9) 0.767(3) 0.831(4) 0.1130 Uiso
F3_4 F 0.681(9) 0.747(3) 0.946(4) 0.1130 Uiso
F4_4 F 0.964(10) 0.719(3) 0.936(3) 0.1130 Uiso
F5_4 F 0.819(12) 0.691(3) 0.883(4) 0.1130 Uiso
F6_4 F 0.641(10) 0.728(3) 0.879(4) 0.1130 Uiso
loop_
_geom_bond_atom_site_label_1
_geom_bond_atom_site_label_2
_geom_bond_site_symmetry_1
_geom_bond_site_symmetry_2
Zn1 N1 1_555 1_555
N1 C1 1_555 1_555
C1 H1 1_555 1_555
C2 N1 1_555 1_555
C3 C1 1_555 1_555
H2 C2 1_555 1_555
H3 C3 1_555 1_555
C11 C9 1_555 1_555
H6 C11 1_555 1_555
H7 C11 1_555 1_555
H8 C11 1_555 1_555
C15 C12 1_555 1_555
C16 C13 1_555 1_555
F1 C13 1_555 1_555
F2 C13 1_555 1_555
F3 C15 1_555 1_555
F4 C15 1_555 1_555
F5 C16 1_555 1_555
F6 C16 1_555 1_555
H9 C17 1_555 1_555
C23 C21 1_555 1_555
H14 C23 1_555 1_555
C25 C23 1_555 1_555
N2 C24 1_555 1_555
H15 C24 1_555 1_555
H16 C25 1_555 1_555
O1 C26 1_555 1_555
O2 Zn1 1_555 1_555
C26 C27 1_555 1_555
C27 C28 1_555 1_555
O3 C26 1_555 1_555
C28 H17 1_555 1_555
C29 C27 1_555 1_555
C30 C28 1_555 1_555
H18 C29 1_555 1_555
H19 C30 1_555 1_555
Zn1 N2 1_555 1_555
C15 C16 1_555 1_555
C25 N2 1_555 1_555
O1 Zn1 1_555 1_555
H20 C31 1_555 1_555
C33 C32 1_555 1_555
C34 C33 1_555 1_555
C35 C33 1_555 1_555
C36 C34 1_555 1_555
C37 C35 1_555 1_555
H22 C35 1_555 1_555
C38 C36 1_555 1_555
H23 C36 1_555 1_555
H24 C37 1_555 1_555
C39 C38 1_555 1_555
O4 C39 1_555 1_555
O2 C39 1_555 1_555
C31 C32 1_555 1_555
C37 C38 1_555 1_555
H4 C4 1_555 1_555
C6 C5 1_555 1_555
C7 C6 1_555 1_555
S1 C6 1_555 1_555
C8 C7 1_555 1_555
H5 C7 1_555 1_555
C9_2 S1 1_555 1_555
C10 C8 1_555 1_555
C11_2 C9_2 1_555 1_555
C12_2 C10 1_555 1_555
C13_2 C10 1_555 1_555
H6_2 C11_2 1_555 1_555
H7_2 C11_2 1_555 1_555
H8_2 C11_2 1_555 1_555
C14 C12_2 1_555 1_555
C15_2 C12_2 1_555 1_555
C16_2 C13_2 1_555 1_555
F1_2 C13_2 1_555 1_555
F2_2 C13_2 1_555 1_555
C18 C14 1_555 1_555
F3_2 C15_2 1_555 1_555
F4_2 C15_2 1_555 1_555
F5_2 C16_2 1_555 1_555
F6_2 C16_2 1_555 1_555
C20 C18 1_555 1_555
H10 C20 1_555 1_555
H11 C20 1_555 1_555
H12 C20 1_555 1_555
C4 C5 1_555 1_555
C8 C9_2 1_555 1_555
C15_2 C16_2 1_555 1_555
H9_2 C17_2 1_555 1_555
C19 C17_2 1_555 1_555
C21_2 C19 1_555 1_555
C22 C21_2 1_555 1_555
C23_2 C21_2 1_555 1_555
C24_2 C22 1_555 1_555
H13 C22 1_555 1_555
H14_2 C23_2 1_555 1_555
C25_2 C23_2 1_555 1_555
N2_2 C24_2 1_555 1_555
H15_2 C24_2 1_555 1_555
Zn2 N2_2 1_555 1_555
N3 Zn2 1_555 1_555
C19 S2 1_555 1_555
C25_2 N2_2 1_555 1_555
N3 C1_2 1_555 1_555
C1_2 H1_2 1_555 1_555
C2_2 N3 1_555 1_555
C3_2 C1_2 1_555 1_555
C4_2 C2_2 1_555 1_555
H2_2 C2_2 1_555 1_555
C5_2 C3_2 1_555 1_555
H3_2 C3_2 1_555 1_555
H4_2 C4_2 1_555 1_555
C6_2 C5_2 1_555 1_555
C7_2 C6_2 1_555 1_555
S1_2 C6_2 1_555 1_555
C8_2 C7_2 1_555 1_555
H5_2 C7_2 1_555 1_555
C10_2 C8_2 1_555 1_555
C18_2 C14_2 1_555 1_555
C20_2 C18_2 1_555 1_555
S2_2 C18_2 1_555 1_555
H10_2 C20_2 1_555 1_555
H11_2 C20_2 1_555 1_555
H12_2 C20_2 1_555 1_555
H13_2 C22_2 1_555 1_555
C4_2 C5_2 1_555 1_555
C19_2 S2_2 1_555 1_555
O4_2 C39_2 1_555 1_555
O1_2 C26_2 1_555 1_555
C26_2 C27_2 1_555 1_555
C27_2 C28_2 1_555 1_555
O3_2 C26_2 1_555 1_555
C28_2 H17_2 1_555 1_555
C29_2 C27_2 1_555 1_555
C30_2 C28_2 1_555 1_555
C31_2 C29_2 1_555 1_555
H18_2 C29_2 1_555 1_555
C32_2 C30_2 1_555 1_555
H19_2 C30_2 1_555 1_555
H20_2 C31_2 1_555 1_555
C33_2 C32_2 1_555 1_555
C34_2 C33_2 1_555 1_555
C35_2 C33_2 1_555 1_555
C36_2 C34_2 1_555 1_555
H21_2 C34_2 1_555 1_555
C37_2 C35_2 1_555 1_555
H22_2 C35_2 1_555 1_555
C38_2 C36_2 1_555 1_555
H23_2 C36_2 1_555 1_555
C31_2 C32_2 1_555 1_555
C37_2 C38_2 1_555 1_555
O1_3 C26_3 1_555 1_555
C26_3 C27_3 1_555 1_555
C27_3 C28_3 1_555 1_555
O3_3 C26_3 1_555 1_555
C28_3 H17_3 1_555 1_555
C29_3 C27_3 1_555 1_555
C30_3 C28_3 1_555 1_555
C31_3 C29_3 1_555 1_555
H18_3 C29_3 1_555 1_555
C32_3 C30_3 1_555 1_555
H19_3 C30_3 1_555 1_555
H20_3 C31_3 1_555 1_555
C33_3 C32_3 1_555 1_555
C34_3 C33_3 1_555 1_555
C35_3 C33_3 1_555 1_555
C36_3 C34_3 1_555 1_555
H21_3 C34_3 1_555 1_555
C37_3 C35_3 1_555 1_555
H22_3 C35_3 1_555 1_555
C38_3 C36_3 1_555 1_555
H23_3 C36_3 1_555 1_555
C31_3 C32_3 1_555 1_555
C37_3 C38_3 1_555 1_555
O4_3 C39_3 1_555 1_555
C4_3 C2_3 1_555 1_555
H2_3 C2_3 1_555 1_555
H4_3 C4_3 1_555 1_555
C6_3 C5_3 1_555 1_555
C7_3 C6_3 1_555 1_555
S1_3 C6_3 1_555 1_555
C8_3 C7_3 1_555 1_555
H5_3 C7_3 1_555 1_555
C9_3 S1_3 1_555 1_555
C10_3 C8_3 1_555 1_555
C11_3 C9_3 1_555 1_555
C12_3 C10_3 1_555 1_555
C13_3 C10_3 1_555 1_555
H6_3 C11_3 1_555 1_555
H7_3 C11_3 1_555 1_555
H8_3 C11_3 1_555 1_555
C14_3 C12_3 1_555 1_555
C15_3 C12_3 1_555 1_555
C16_3 C13_3 1_555 1_555
F1_3 C13_3 1_555 1_555
F2_3 C13_3 1_555 1_555
C17_3 C14_3 1_555 1_555
C18_3 C14_3 1_555 1_555
F3_3 C15_3 1_555 1_555
F4_3 C15_3 1_555 1_555
F5_3 C16_3 1_555 1_555
F6_3 C16_3 1_555 1_555
H9_3 C17_3 1_555 1_555
C19_3 C17_3 1_555 1_555
C20_3 C18_3 1_555 1_555
S2_3 C18_3 1_555 1_555
C21_3 C19_3 1_555 1_555
H10_3 C20_3 1_555 1_555
H11_3 C20_3 1_555 1_555
H12_3 C20_3 1_555 1_555
C22_3 C21_3 1_555 1_555
C23_3 C21_3 1_555 1_555
C24_3 C22_3 1_555 1_555
H13_3 C22_3 1_555 1_555
H14_3 C23_3 1_555 1_555
C25_3 C23_3 1_555 1_555
N2_3 C24_3 1_555 1_555
H15_3 C24_3 1_555 1_555
Zn3 N2_3 1_555 1_555
C8_3 C9_3 1_555 1_555
C15_3 C16_3 1_555 1_555
C19_3 S2_3 1_555 1_555
C25_3 N2_3 1_555 1_555
H20_4 C31_4 1_555 1_555
C33_4 C32_4 1_555 1_555
C34_4 C33_4 1_555 1_555
C35_4 C33_4 1_555 1_555
C36_4 C34_4 1_555 1_555
C37_4 C35_4 1_555 1_555
H22_4 C35_4 1_555 1_555
C38_4 C36_4 1_555 1_555
H23_4 C36_4 1_555 1_555
H24_4 C37_4 1_555 1_555
C39_4 C38_4 1_555 1_555
O4_4 C39_4 1_555 1_555
O5_2 C39_4 1_555 1_555
Zn3_2 O5_2 1_555 1_555
C31_4 C32_4 1_555 1_555
C37_4 C38_4 1_555 1_555
H9_4 C17_4 1_555 1_555
C23_4 C21_4 1_555 1_555
H14_4 C23_4 1_555 1_555
C25_4 C23_4 1_555 1_555
N2_4 C24_4 1_555 1_555
H15_4 C24_4 1_555 1_555
H16_4 C25_4 1_555 1_555
Zn3_2 N2_4 1_555 1_555
C25_4 N2_4 1_555 1_555
H2_4 C2_4 1_555 1_555
H13_4 C22_4 1_555 1_555
C19_4 S2_4 1_555 1_555
N1_2 C1_3 1_555 1_555
C1_3 H1_3 1_555 1_555
C3_3 C1_3 1_555 1_555
C5_4 C3_3 1_555 1_555
H3_3 C3_3 1_555 1_555
C6_4 C5_4 1_555 1_555
C7_4 C6_4 1_555 1_555
S1_4 C6_4 1_555 1_555
C8_4 C7_4 1_555 1_555
H5_4 C7_4 1_555 1_555
C10_4 C8_4 1_555 1_555
C18_4 C14_4 1_555 1_555
C20_4 C18_4 1_555 1_555
H10_4 C20_4 1_555 1_555
H11_4 C20_4 1_555 1_555
H12_4 C20_4 1_555 1_555
H4_4 C4_4 1_555 1_555
O1_4 C26_4 1_555 1_555
C26_4 C27_4 1_555 1_555
C27_4 C28_4 1_555 1_555
O3_4 C26_4 1_555 1_555
C28_4 H17_4 1_555 1_555
C29_4 C27_4 1_555 1_555
C30_4 C28_4 1_555 1_555
H18_4 C29_4 1_555 1_555
H19_4 C30_4 1_555 1_555
N3_2 C1_4 1_555 1_555
C1_4 H1_4 1_555 1_555
C3_4 C1_4 1_555 1_555
H3_4 C3_4 1_555 1_555
C11_4 C9_4 1_555 1_555
H6_4 C11_4 1_555 1_555
H7_4 C11_4 1_555 1_555
H8_4 C11_4 1_555 1_555
C15_4 C12_4 1_555 1_555
C16_4 C13_4 1_555 1_555
F1_4 C13_4 1_555 1_555
F2_4 C13_4 1_555 1_555
F3_4 C15_4 1_555 1_555
F4_4 C15_4 1_555 1_555
F5_4 C16_4 1_555 1_555
F6_4 C16_4 1_555 1_555
C15_4 C16_4 1_555 1_555

#END
