
###############################################################################
#
# This file contains modified crystal structure data generated from the
# MOF subset of the Cambridge Structural Database (CSD) v543 
# hosted by the Cambridge Crystallographic Data Centre (CCDC).
#
# This work is licensed under the Creative Commons
# Attribution-NonCommercial-ShareAlike 4.0 International License.
# To view a copy of this license, visit
# http://creativecommons.org/licenses/by-nc-sa/4.0/
# or send a letter to
# Creative Commons, PO Box 1866, Mountain View, CA 94042, USA.
#
# CIF created using the CSD Python API on 29 September 2022
# The structure has been converted into the P1 space group
# The structure has a 3D framework
# The original CSD entry YOLKOB12 is in the orthorhombic crystal system
# The original CSD entry YOLKOB12 is in a Sohncke space group
# The framework has been calculated to contain at least 10.0% void space
# The void calculation uses a probe of radius 1.32A, grid spacing 0.4
#
###############################################################################

data_YOLKOB12
_chemical_formula_moiety         '(C156 H96 F24 N8 O16 S8 Zn4)n'
_symmetry_cell_setting           triclinic
_symmetry_space_group_name_H-M   'P 1'
_symmetry_Int_Tables_number      1
_space_group_name_Hall           'P 1'
loop_
_symmetry_equiv_pos_site_id
_symmetry_equiv_pos_as_xyz
1 x,y,z
_cell_length_a                   6.638(6)
_cell_length_b                   25.42(3)
_cell_length_c                   28.23(8)
_cell_angle_alpha                90
_cell_angle_beta                 90
_cell_angle_gamma                90
_cell_volume                     4763.47
loop_
_atom_site_label
_atom_site_type_symbol
_atom_site_fract_x
_atom_site_fract_y
_atom_site_fract_z
_atom_site_U_iso_or_equiv
_atom_site_thermal_displace_type
C1 C 0.396(7) 0.7665(19) 0.299(2) 0.2400 Uiso
H1 H 0.5265 0.7693 0.3105 0.2880 Uiso
C2 C 0.304(8) 0.8101(16) 0.278(2) 0.2400 Uiso
C3 C 0.109(8) 0.8060(16) 0.260(3) 0.3000 Uiso
H2 H 0.0476 0.8351 0.2467 0.3600 Uiso
C4 C 0.007(8) 0.7583(17) 0.263(3) 0.3700 Uiso
C5 C 0.100(7) 0.7147(15) 0.283(2) 0.2400 Uiso
C6 C 0.294(6) 0.7188(17) 0.301(2) 0.2400 Uiso
H4 H 0.3561 0.6897 0.3146 0.2880 Uiso
H11 H 0.0177 0.5492 0.3331 0.3600 Uiso
C18 C 0.070(7) 0.6243(16) 0.313(2) 0.3000 Uiso
H12 H 0.1897 0.6286 0.3297 0.3600 Uiso
C33 C 0.425(11) 0.858(2) 0.276(3) 0.3000 Uiso
O3 O 0.341(8) 0.898(2) 0.264(3) 0.2200 Uiso
O4 O 0.587(15) 0.855(3) 0.295(4) 0.5200 Uiso
Zn3 Zn 0.585(2) 0.9491(6) 0.2440(7) 0.2350 Uiso
C39 C 0.957(7) 0.952(2) 0.292(2) 0.2400 Uiso
H24 H 0.9366 0.9156 0.2886 0.2880 Uiso
N2 N 0.827(6) 0.987(3) 0.269(2) 0.2400 Uiso
C7 C 0.641(7) 0.8791(18) 0.1055(16) 0.3000 Uiso
H5 H 0.5635 0.8606 0.0837 0.3600 Uiso
C8 C 0.556(8) 0.896(2) 0.1479(17) 0.3000 Uiso
H6 H 0.4214 0.8885 0.1545 0.3600 Uiso
N1 N 0.672(10) 0.9235(17) 0.1805(15) 0.3000 Uiso
C9 C 0.873(10) 0.9344(19) 0.1708(15) 0.2400 Uiso
H7 H 0.9501 0.9528 0.1926 0.2880 Uiso
C10 C 0.958(7) 0.9176(16) 0.1284(15) 0.2400 Uiso
C11 C 0.842(7) 0.8900(12) 0.0958(12) 0.2400 Uiso
O2 O 0.244(9) 0.995(3) 0.180(3) 0.2700 Uiso
C19 C 0.830(4) 0.849(2) 0.0196(14) 0.2400 Uiso
H13 H 0.6941 0.8405 0.0234 0.2880 Uiso
C20 C 0.956(5) 0.8729(15) 0.0540(12) 0.2400 Uiso
H3 H 0.8773 0.7556 0.2509 0.4380 Uiso
Zn1 Zn 0.415(2) 0.4491(6) 0.2560(7) 0.2350 Uiso
O1 O 0.533(10) 0.509(3) 0.267(3) 0.2400 Uiso
C7_2 C 0.359(7) 0.3791(18) 0.3945(16) 0.3000 Uiso
H5_2 H 0.4365 0.3606 0.4163 0.3600 Uiso
C8_2 C 0.444(8) 0.396(2) 0.3521(17) 0.3000 Uiso
H6_2 H 0.5786 0.3885 0.3455 0.3600 Uiso
N1_2 N 0.328(10) 0.4235(17) 0.3195(15) 0.3000 Uiso
C9_2 C 0.127(10) 0.4344(19) 0.3292(15) 0.2400 Uiso
H7_2 H 0.0499 0.4528 0.3074 0.2880 Uiso
C10_2 C 0.042(7) 0.4176(16) 0.3716(15) 0.2400 Uiso
C11_2 C 0.158(7) 0.3900(12) 0.4042(12) 0.2400 Uiso
C12 C 0.668(10) 0.5233(18) 0.293(3) 0.2400 Uiso
O2_2 O 0.756(9) 0.495(3) 0.320(3) 0.2700 Uiso
C13 C 0.994(7) 0.6655(15) 0.286(2) 0.2400 Uiso
C14 C 0.816(7) 0.6592(17) 0.261(2) 0.2400 Uiso
H9 H 0.7650 0.6867 0.2428 0.2880 Uiso
C15 C 0.713(7) 0.6116(18) 0.263(2) 0.3000 Uiso
H10 H 0.5930 0.6073 0.2462 0.3600 Uiso
C16 C 0.788(7) 0.5704(15) 0.290(2) 0.3000 Uiso
C17 C 0.967(8) 0.5768(15) 0.315(2) 0.3000 Uiso
C19_2 C 0.170(4) 0.349(2) 0.4804(14) 0.2400 Uiso
H13_2 H 0.3059 0.3405 0.4766 0.2880 Uiso
C20_2 C 0.044(5) 0.3729(15) 0.4460(12) 0.2400 Uiso
C22 C 0.053(5) 0.3391(19) 0.5215(12) 0.2400 Uiso
C24 C 0.130(7) 0.323(3) 0.5675(14) 0.2000 Uiso
C25 C 0.128(9) 0.3462(17) 0.6133(19) 0.2200 Uiso
C26 C 0.175(12) 0.306(2) 0.6468(13) 0.3000 Uiso
C27 C 0.206(12) 0.2586(17) 0.622(3) 0.3000 Uiso
C28 C 0.178(10) 0.269(3) 0.573(2) 0.2000 Uiso
F1 F 0.118(10) 0.223(3) 0.545(3) 0.3100 Uiso
F2 F 0.374(7) 0.2608(16) 0.534(2) 0.1900 Uiso
F3 F 0.250(10) 0.203(2) 0.651(3) 0.3300 Uiso
F4 F 0.435(9) 0.254(2) 0.600(2) 0.2700 Uiso
F5 F 0.008(11) 0.268(3) 0.675(3) 0.3300 Uiso
F6 F 0.301(12) 0.321(3) 0.692(4) 0.4000 Uiso
C29 C 0.103(5) 0.4474(12) 0.6005(13) 0.2400 Uiso
C32 C 0.027(6) 0.3980(10) 0.615(2) 0.2400 Uiso
C34 C 0.298(7) 0.455(2) 0.578(3) 0.1900 Uiso
H18 H 0.3416 0.4223 0.5639 0.2900 Uiso
H19 H 0.3946 0.4665 0.6006 0.2900 Uiso
H20 H 0.2854 0.4810 0.5532 0.2900 Uiso
O5 O 0.659(8) 0.398(2) 0.236(3) 0.2200 Uiso
N3 N 0.173(6) 0.487(3) 0.231(2) 0.2400 Uiso
C35 C 0.143(6) 0.541(2) 0.226(2) 0.2000 Uiso
H21 H 0.2293 0.5641 0.2409 0.2400 Uiso
C39_2 C 0.043(7) 0.452(2) 0.208(2) 0.2400 Uiso
H24_2 H 0.0634 0.4156 0.2114 0.2880 Uiso
C1_2 C 0.604(7) 0.2665(19) 0.201(2) 0.2400 Uiso
H1_2 H 0.4735 0.2693 0.1895 0.2880 Uiso
C2_2 C 0.696(8) 0.3101(16) 0.222(2) 0.2400 Uiso
C3_2 C 0.891(8) 0.3060(16) 0.240(3) 0.3000 Uiso
H2_2 H 0.9524 0.3351 0.2533 0.3600 Uiso
C4_2 C 0.993(8) 0.2583(17) 0.237(3) 0.3700 Uiso
C5_2 C 0.900(7) 0.2147(15) 0.217(2) 0.2400 Uiso
C6_2 C 0.706(6) 0.2188(17) 0.199(2) 0.2400 Uiso
H4_2 H 0.6439 0.1897 0.1854 0.2880 Uiso
H11_2 H 0.9823 0.0492 0.1669 0.3600 Uiso
C18_2 C 0.930(7) 0.1243(16) 0.187(2) 0.3000 Uiso
H12_2 H 0.8103 0.1286 0.1703 0.3600 Uiso
C33_2 C 0.575(11) 0.358(2) 0.224(3) 0.3000 Uiso
O4_2 O 0.413(15) 0.355(3) 0.205(4) 0.5200 Uiso
H8 H 0.9078 0.4249 0.3782 0.2880 Uiso
S1 S 0.849(4) 0.3783(9) 0.4659(12) 0.2230 Uiso
C21 C 0.854(4) 0.3574(14) 0.5126(10) 0.2400 Uiso
C23 C 0.683(7) 0.349(3) 0.543(2) 0.3000 Uiso
H14 H 0.6405 0.3126 0.5405 0.4500 Uiso
H15 H 0.5749 0.3714 0.5339 0.4500 Uiso
H16 H 0.7205 0.3558 0.5753 0.4500 Uiso
S2 S 0.980(5) 0.4874(10) 0.6200(11) 0.2590 Uiso
C30 C 0.826(4) 0.4628(14) 0.6471(11) 0.2400 Uiso
C31 C 0.855(6) 0.4075(13) 0.6443(19) 0.2400 Uiso
H17 H 0.7758 0.3820 0.6588 0.2880 Uiso
C35_2 C 0.357(6) 0.459(2) 0.726(2) 0.2000 Uiso
H21_2 H 0.2707 0.4359 0.7409 0.2400 Uiso
C36 C 0.516(7) 0.4406(18) 0.699(2) 0.2000 Uiso
H22 H 0.5365 0.4046 0.6956 0.2400 Uiso
C37 C 0.646(6) 0.4757(16) 0.6764(19) 0.2400 Uiso
C38 C 0.616(7) 0.5296(16) 0.6811(18) 0.2400 Uiso
H23 H 0.7024 0.5531 0.6662 0.2880 Uiso
C39_3 C 0.457(7) 0.548(2) 0.708(2) 0.2400 Uiso
H24_3 H 0.4366 0.5844 0.7114 0.2880 Uiso
N2_2 N 0.327(6) 0.513(3) 0.731(2) 0.2400 Uiso
Zn2 Zn 0.085(2) 0.5509(6) 0.7560(7) 0.2350 Uiso
C7_3 C 0.141(7) 0.6209(18) 0.8945(16) 0.3000 Uiso
H5_3 H 0.0635 0.6394 0.9163 0.3600 Uiso
C8_3 C 0.056(8) 0.604(2) 0.8521(17) 0.3000 Uiso
N1_3 N 0.172(10) 0.5765(17) 0.8195(15) 0.3000 Uiso
C9_3 C 0.373(10) 0.5656(19) 0.8292(15) 0.2400 Uiso
H7_3 H 0.4501 0.5472 0.8074 0.2880 Uiso
C10_3 C 0.458(7) 0.5824(16) 0.8716(15) 0.2400 Uiso
H8_2 H 0.5922 0.5751 0.8782 0.2880 Uiso
C11_3 C 0.342(7) 0.6100(12) 0.9042(12) 0.2400 Uiso
C19_3 C 0.330(4) 0.651(2) 0.9804(14) 0.2400 Uiso
H13_3 H 0.1941 0.6595 0.9766 0.2880 Uiso
C20_3 C 0.456(5) 0.6271(15) 0.9460(12) 0.2400 Uiso
S1_2 S 0.651(4) 0.6217(9) 0.9659(12) 0.2230 Uiso
H1_3 H 0.0265 0.7307 0.6895 0.2880 Uiso
O4_3 O 0.087(15) 0.645(3) 0.705(4) 0.5200 Uiso
C21_2 C 0.646(4) 0.6426(14) 0.0126(10) 0.2400 Uiso
C22_2 C 0.447(5) 0.6609(19) 0.0215(12) 0.2400 Uiso
C23_2 C 0.817(7) 0.651(3) 0.043(2) 0.3000 Uiso
H14_2 H 0.8595 0.6874 0.0405 0.4500 Uiso
H15_2 H 0.9251 0.6286 0.0339 0.4500 Uiso
H16_2 H 0.7795 0.6442 0.0753 0.4500 Uiso
C24_2 C 0.370(7) 0.677(3) 0.0675(14) 0.2000 Uiso
C25_2 C 0.372(9) 0.6538(17) 0.1133(19) 0.2200 Uiso
C26_2 C 0.325(12) 0.694(2) 0.1468(13) 0.3000 Uiso
C27_2 C 0.294(12) 0.7414(17) 0.122(3) 0.3000 Uiso
C28_2 C 0.322(10) 0.731(3) 0.073(2) 0.2000 Uiso
F1_2 F 0.382(10) 0.777(3) 0.045(3) 0.3100 Uiso
F2_2 F 0.126(7) 0.7392(16) 0.034(2) 0.1900 Uiso
F3_2 F 0.250(10) 0.797(2) 0.151(3) 0.3300 Uiso
F4_2 F 0.065(9) 0.746(2) 0.100(2) 0.2700 Uiso
F5_2 F 0.492(11) 0.732(3) 0.175(3) 0.3300 Uiso
F6_2 F 0.199(12) 0.679(3) 0.192(4) 0.4000 Uiso
C29_2 C 0.397(5) 0.5526(12) 0.1005(13) 0.2400 Uiso
S2_2 S 0.520(5) 0.5126(10) 0.1200(11) 0.2590 Uiso
C30_2 C 0.674(4) 0.5372(14) 0.1471(11) 0.2400 Uiso
C31_2 C 0.645(6) 0.5925(13) 0.1443(19) 0.2400 Uiso
H17_2 H 0.7242 0.6180 0.1588 0.2880 Uiso
C32_2 C 0.473(6) 0.6020(10) 0.115(2) 0.2400 Uiso
C34_2 C 0.202(7) 0.545(2) 0.078(3) 0.1900 Uiso
H18_2 H 0.1584 0.5777 0.0639 0.2900 Uiso
H19_2 H 0.1054 0.5335 0.1006 0.2900 Uiso
H20_2 H 0.2146 0.5190 0.0532 0.2900 Uiso
C36_2 C 0.984(7) 0.5594(18) 0.199(2) 0.2000 Uiso
H22_2 H 0.9635 0.5954 0.1956 0.2400 Uiso
C37_2 C 0.854(6) 0.5243(16) 0.1764(19) 0.2400 Uiso
C38_2 C 0.884(7) 0.4704(16) 0.1811(18) 0.2400 Uiso
H23_2 H 0.7976 0.4469 0.1662 0.2880 Uiso
C1_3 C 0.104(7) 0.2335(19) 0.799(2) 0.2400 Uiso
C2_3 C 0.196(8) 0.1899(16) 0.778(2) 0.2400 Uiso
C3_3 C 0.391(8) 0.1940(16) 0.760(3) 0.3000 Uiso
H2_3 H 0.4524 0.1649 0.7467 0.3600 Uiso
C4_3 C 0.493(8) 0.2417(17) 0.763(3) 0.3700 Uiso
H3_2 H 0.6227 0.2444 0.7509 0.4380 Uiso
C5_3 C 0.400(7) 0.2853(15) 0.783(2) 0.2400 Uiso
C6_3 C 0.206(6) 0.2812(17) 0.801(2) 0.2400 Uiso
H4_3 H 0.1439 0.3103 0.8146 0.2880 Uiso
O1_2 O 0.967(10) 0.491(3) 0.767(3) 0.2400 Uiso
H6_3 H 0.9214 0.6115 0.8455 0.3600 Uiso
C12_2 C 0.832(10) 0.4767(18) 0.793(3) 0.2400 Uiso
O2_3 O 0.744(9) 0.505(3) 0.820(3) 0.2700 Uiso
C13_2 C 0.506(7) 0.3345(15) 0.786(2) 0.2400 Uiso
C14_2 C 0.684(7) 0.3408(17) 0.761(2) 0.2400 Uiso
H9_2 H 0.7350 0.3133 0.7428 0.2880 Uiso
C15_2 C 0.787(7) 0.3884(18) 0.763(2) 0.3000 Uiso
H10_2 H 0.9070 0.3927 0.7462 0.3600 Uiso
C16_2 C 0.712(7) 0.4296(15) 0.790(2) 0.3000 Uiso
C17_2 C 0.533(8) 0.4232(15) 0.815(2) 0.3000 Uiso
H11_3 H 0.4823 0.4508 0.8331 0.3600 Uiso
C18_3 C 0.430(7) 0.3757(16) 0.813(2) 0.3000 Uiso
H12_3 H 0.3103 0.3714 0.8297 0.3600 Uiso
C33_3 C 0.075(11) 0.142(2) 0.776(3) 0.3000 Uiso
O3_2 O 0.159(8) 0.102(2) 0.764(3) 0.2200 Uiso
O5_2 O 0.841(8) 0.602(2) 0.736(3) 0.2200 Uiso
H6_4 H 0.0786 0.1115 0.6545 0.3600 Uiso
O2_4 O 0.256(9) 0.005(3) 0.680(3) 0.2700 Uiso
C1_4 C 0.896(7) 0.7335(19) 0.701(2) 0.2400 Uiso
C2_4 C 0.804(8) 0.6899(16) 0.722(2) 0.2400 Uiso
C3_4 C 0.609(8) 0.6940(16) 0.740(3) 0.3000 Uiso
H2_4 H 0.5476 0.6649 0.7533 0.3600 Uiso
C4_4 C 0.507(8) 0.7417(17) 0.737(3) 0.3700 Uiso
H3_3 H 0.3773 0.7444 0.7491 0.4380 Uiso
C5_4 C 0.600(7) 0.7853(15) 0.717(2) 0.2400 Uiso
C6_4 C 0.794(6) 0.7812(17) 0.699(2) 0.2400 Uiso
H4_4 H 0.8561 0.8103 0.6854 0.2880 Uiso
O1_3 O 0.033(10) 0.991(3) 0.733(3) 0.2400 Uiso
C12_3 C 0.168(10) 0.9767(18) 0.707(3) 0.2400 Uiso
C13_3 C 0.494(7) 0.8345(15) 0.714(2) 0.2400 Uiso
C14_3 C 0.316(7) 0.8408(17) 0.739(2) 0.2400 Uiso
H9_3 H 0.2650 0.8133 0.7572 0.2880 Uiso
C15_3 C 0.213(7) 0.8884(18) 0.737(2) 0.3000 Uiso
H10_3 H 0.0930 0.8927 0.7538 0.3600 Uiso
C16_3 C 0.288(7) 0.9296(15) 0.710(2) 0.3000 Uiso
C17_3 C 0.467(8) 0.9232(15) 0.685(2) 0.3000 Uiso
H11_4 H 0.5177 0.9508 0.6669 0.3600 Uiso
C18_4 C 0.570(7) 0.8757(16) 0.687(2) 0.3000 Uiso
H12_4 H 0.6897 0.8714 0.6703 0.3600 Uiso
C33_4 C 0.925(11) 0.642(2) 0.724(3) 0.3000 Uiso
H1_4 H 0.9735 0.2307 0.8105 0.2880 Uiso
O4_4 O 0.913(15) 0.145(3) 0.795(4) 0.5200 Uiso
Zn3_2 Zn 0.915(2) 0.0509(6) 0.7440(7) 0.2350 Uiso
C7_4 C 0.859(7) 0.1209(18) 0.6055(16) 0.3000 Uiso
H5_4 H 0.9365 0.1394 0.5837 0.3600 Uiso
C8_4 C 0.944(8) 0.104(2) 0.6479(17) 0.3000 Uiso
N1_4 N 0.828(10) 0.0765(17) 0.6805(15) 0.3000 Uiso
C9_4 C 0.627(10) 0.0656(19) 0.6708(15) 0.2400 Uiso
H7_4 H 0.5499 0.0472 0.6926 0.2880 Uiso
C10_4 C 0.542(7) 0.0824(16) 0.6284(15) 0.2400 Uiso
H8_3 H 0.4078 0.0751 0.6218 0.2880 Uiso
C11_4 C 0.658(7) 0.1100(12) 0.5958(12) 0.2400 Uiso
C19_4 C 0.670(4) 0.151(2) 0.5196(14) 0.2400 Uiso
H13_4 H 0.8059 0.1595 0.5234 0.2880 Uiso
C20_4 C 0.544(5) 0.1271(15) 0.5540(12) 0.2400 Uiso
S1_3 S 0.349(4) 0.1217(9) 0.5341(12) 0.2230 Uiso
C21_3 C 0.354(4) 0.1426(14) 0.4874(10) 0.2400 Uiso
C22_3 C 0.553(5) 0.1609(19) 0.4785(12) 0.2400 Uiso
C23_3 C 0.183(7) 0.151(3) 0.457(2) 0.3000 Uiso
H14_3 H 0.1405 0.1874 0.4595 0.4500 Uiso
H15_3 H 0.0749 0.1286 0.4661 0.4500 Uiso
H16_3 H 0.2205 0.1442 0.4247 0.4500 Uiso
C24_3 C 0.630(7) 0.177(3) 0.4325(14) 0.2000 Uiso
C25_3 C 0.628(9) 0.1538(17) 0.3867(19) 0.2200 Uiso
C26_3 C 0.675(12) 0.194(2) 0.3532(13) 0.3000 Uiso
C27_3 C 0.706(12) 0.2414(17) 0.378(3) 0.3000 Uiso
C28_3 C 0.678(10) 0.231(3) 0.427(2) 0.2000 Uiso
F1_3 F 0.618(10) 0.277(3) 0.455(3) 0.3100 Uiso
F2_3 F 0.874(7) 0.2392(16) 0.466(2) 0.1900 Uiso
F3_3 F 0.750(10) 0.297(2) 0.349(3) 0.3300 Uiso
F4_3 F 0.935(9) 0.246(2) 0.400(2) 0.2700 Uiso
F5_3 F 0.508(11) 0.232(3) 0.325(3) 0.3300 Uiso
F6_3 F 0.801(12) 0.179(3) 0.308(4) 0.4000 Uiso
C29_3 C 0.603(5) 0.0526(12) 0.3995(13) 0.2400 Uiso
S2_3 S 0.480(5) 0.0126(10) 0.3800(11) 0.2590 Uiso
C30_3 C 0.326(4) 0.0372(14) 0.3529(11) 0.2400 Uiso
C31_3 C 0.355(6) 0.0925(13) 0.3557(19) 0.2400 Uiso
H17_3 H 0.2758 0.1180 0.3412 0.2880 Uiso
C32_3 C 0.527(6) 0.1020(10) 0.385(2) 0.2400 Uiso
C34_3 C 0.798(7) 0.045(2) 0.422(3) 0.1900 Uiso
H18_3 H 0.8416 0.0777 0.4361 0.2900 Uiso
H19_3 H 0.8946 0.0335 0.3994 0.2900 Uiso
H20_3 H 0.7854 0.0190 0.4468 0.2900 Uiso
C36_3 C 0.016(7) 0.0594(18) 0.301(2) 0.2000 Uiso
H22_3 H 0.0365 0.0954 0.3044 0.2400 Uiso
C37_3 C 0.146(6) 0.0243(16) 0.3236(19) 0.2400 Uiso
N3_2 N 0.673(6) 0.013(3) 0.769(2) 0.2400 Uiso
C38_3 C 0.384(7) 0.0296(16) 0.8189(18) 0.2400 Uiso
H23_3 H 0.2976 0.0531 0.8338 0.2880 Uiso
C39_4 C 0.543(7) 0.048(2) 0.792(2) 0.2400 Uiso
H24_4 H 0.5634 0.0844 0.7886 0.2880 Uiso
C38_4 C 0.116(7) 0.9704(16) 0.3189(18) 0.2400 Uiso
H23_4 H 0.2024 0.9469 0.3338 0.2880 Uiso
C35_3 C 0.857(6) 0.041(2) 0.274(2) 0.2000 Uiso
H21_3 H 0.7707 0.0641 0.2591 0.2400 Uiso
H8_4 H 0.0922 0.9249 0.1218 0.2880 Uiso
S1_4 S 0.151(4) 0.8783(9) 0.0341(12) 0.2230 Uiso
C21_4 C 0.146(4) 0.8574(14) 0.9874(10) 0.2400 Uiso
C23_4 C 0.317(7) 0.849(3) 0.957(2) 0.3000 Uiso
H14_4 H 0.3595 0.8126 0.9595 0.4500 Uiso
H15_4 H 0.4251 0.8714 0.9661 0.4500 Uiso
H16_4 H 0.2795 0.8558 0.9247 0.4500 Uiso
S2_4 S 0.020(5) 0.9874(10) 0.8800(11) 0.2590 Uiso
C30_4 C 0.174(4) 0.9628(14) 0.8529(11) 0.2400 Uiso
C31_4 C 0.145(6) 0.9075(13) 0.8557(19) 0.2400 Uiso
H17_4 H 0.2242 0.8820 0.8412 0.2880 Uiso
C35_4 C 0.643(6) 0.959(2) 0.774(2) 0.2000 Uiso
H21_4 H 0.7293 0.9359 0.7591 0.2400 Uiso
C36_4 C 0.484(7) 0.9406(18) 0.801(2) 0.2000 Uiso
H22_4 H 0.4635 0.9046 0.8044 0.2400 Uiso
C37_4 C 0.354(6) 0.9757(16) 0.8236(19) 0.2400 Uiso
H3_4 H 0.1227 0.2556 0.2491 0.4380 Uiso
O1_4 O 0.467(10) 0.009(3) 0.233(3) 0.2400 Uiso
C12_4 C 0.332(10) 0.0233(18) 0.207(3) 0.2400 Uiso
C13_4 C 0.006(7) 0.1655(15) 0.214(2) 0.2400 Uiso
C14_4 C 0.184(7) 0.1592(17) 0.239(2) 0.2400 Uiso
H9_4 H 0.2350 0.1867 0.2572 0.2880 Uiso
C15_4 C 0.287(7) 0.1116(18) 0.237(2) 0.3000 Uiso
H10_4 H 0.4070 0.1073 0.2538 0.3600 Uiso
C16_4 C 0.212(7) 0.0704(15) 0.210(2) 0.3000 Uiso
C17_4 C 0.033(8) 0.0768(15) 0.185(2) 0.3000 Uiso
C22_4 C 0.947(5) 0.8391(19) 0.9785(12) 0.2400 Uiso
C24_4 C 0.870(7) 0.823(3) 0.9325(14) 0.2000 Uiso
C25_4 C 0.872(9) 0.8462(17) 0.8867(19) 0.2200 Uiso
C26_4 C 0.825(12) 0.806(2) 0.8532(13) 0.3000 Uiso
C27_4 C 0.794(12) 0.7586(17) 0.878(3) 0.3000 Uiso
C28_4 C 0.822(10) 0.769(3) 0.927(2) 0.2000 Uiso
F1_4 F 0.882(10) 0.723(3) 0.955(3) 0.3100 Uiso
F2_4 F 0.626(7) 0.7608(16) 0.966(2) 0.1900 Uiso
F3_4 F 0.750(10) 0.703(2) 0.849(3) 0.3300 Uiso
F4_4 F 0.565(9) 0.754(2) 0.900(2) 0.2700 Uiso
F5_4 F 0.992(11) 0.768(3) 0.825(3) 0.3300 Uiso
F6_4 F 0.699(12) 0.821(3) 0.808(4) 0.4000 Uiso
C29_4 C 0.897(5) 0.9474(12) 0.8995(13) 0.2400 Uiso
C32_4 C 0.973(6) 0.8980(10) 0.885(2) 0.2400 Uiso
C34_4 C 0.702(7) 0.955(2) 0.922(3) 0.1900 Uiso
H18_4 H 0.6584 0.9223 0.9361 0.2900 Uiso
H19_4 H 0.6054 0.9665 0.8994 0.2900 Uiso
H20_4 H 0.7146 0.9810 0.9468 0.2900 Uiso
loop_
_geom_bond_atom_site_label_1
_geom_bond_atom_site_label_2
_geom_bond_site_symmetry_1
_geom_bond_site_symmetry_2
C1 H1 1_555 1_555
C2 C1 1_555 1_555
C3 C2 1_555 1_555
H2 C3 1_555 1_555
C4 C3 1_555 1_555
C5 C4 1_555 1_555
C6 C1 1_555 1_555
H4 C6 1_555 1_555
H12 C18 1_555 1_555
C33 C2 1_555 1_555
O3 C33 1_555 1_555
O4 C33 1_555 1_555
Zn3 O3 1_555 1_555
C5 C6 1_555 1_555
H24 C39 1_555 1_555
Zn3 N2 1_555 1_555
C39 N2 1_555 1_555
C7 H5 1_555 1_555
C8 C7 1_555 1_555
H6 C8 1_555 1_555
N1 Zn3 1_555 1_555
C9 N1 1_555 1_555
H7 C9 1_555 1_555
C10 C9 1_555 1_555
C11 C7 1_555 1_555
C19 H13 1_555 1_555
C20 C11 1_555 1_555
C8 N1 1_555 1_555
C10 C11 1_555 1_555
C19 C20 1_555 1_555
Zn1 O1 1_555 1_555
O1 C12 1_555 1_555
C7_2 H5_2 1_555 1_555
C8_2 C7_2 1_555 1_555
H6_2 C8_2 1_555 1_555
N1_2 Zn1 1_555 1_555
C9_2 N1_2 1_555 1_555
H7_2 C9_2 1_555 1_555
C10_2 C9_2 1_555 1_555
C11_2 C7_2 1_555 1_555
C12 O2_2 1_555 1_555
C14 C13 1_555 1_555
H9 C14 1_555 1_555
C15 C14 1_555 1_555
H10 C15 1_555 1_555
C16 C12 1_555 1_555
C17 C16 1_555 1_555
C19_2 H13_2 1_555 1_555
C20_2 C11_2 1_555 1_555
C22 C19_2 1_555 1_555
C24 C22 1_555 1_555
C25 C24 1_555 1_555
C26 C25 1_555 1_555
C27 C26 1_555 1_555
C28 C24 1_555 1_555
F1 C28 1_555 1_555
F2 C28 1_555 1_555
F3 C27 1_555 1_555
F4 C27 1_555 1_555
F5 C26 1_555 1_555
F6 C26 1_555 1_555
C32 C25 1_555 1_555
C34 C29 1_555 1_555
H18 C34 1_555 1_555
H19 C34 1_555 1_555
H20 C34 1_555 1_555
O5 Zn1 1_555 1_555
N3 Zn1 1_555 1_555
C8_2 N1_2 1_555 1_555
C10_2 C11_2 1_555 1_555
C15 C16 1_555 1_555
C19_2 C20_2 1_555 1_555
C27 C28 1_555 1_555
C29 C32 1_555 1_555
C35 H21 1_555 1_555
H24_2 C39_2 1_555 1_555
N3 C35 1_555 1_555
C39_2 N3 1_555 1_555
C1_2 H1_2 1_555 1_555
C2_2 C1_2 1_555 1_555
C3_2 C2_2 1_555 1_555
H2_2 C3_2 1_555 1_555
C4_2 C3_2 1_555 1_555
C5_2 C4_2 1_555 1_555
C6_2 C1_2 1_555 1_555
H4_2 C6_2 1_555 1_555
H12_2 C18_2 1_555 1_555
C33_2 C2_2 1_555 1_555
O5 C33_2 1_555 1_555
O4_2 C33_2 1_555 1_555
C5_2 C6_2 1_555 1_555
C21 S1 1_555 1_555
C23 C21 1_555 1_555
H14 C23 1_555 1_555
H15 C23 1_555 1_555
H16 C23 1_555 1_555
S2 C30 1_555 1_555
C30 C31 1_555 1_555
C31 H17 1_555 1_555
C35_2 H21_2 1_555 1_555
C36 C35_2 1_555 1_555
H22 C36 1_555 1_555
C37 C30 1_555 1_555
C38 C37 1_555 1_555
H23 C38 1_555 1_555
C39_3 C38 1_555 1_555
H24_3 C39_3 1_555 1_555
N2_2 C35_2 1_555 1_555
Zn2 N2_2 1_555 1_555
C36 C37 1_555 1_555
C39_3 N2_2 1_555 1_555
C7_3 H5_3 1_555 1_555
C8_3 C7_3 1_555 1_555
N1_3 Zn2 1_555 1_555
C9_3 N1_3 1_555 1_555
H7_3 C9_3 1_555 1_555
C10_3 C9_3 1_555 1_555
H8_2 C10_3 1_555 1_555
C11_3 C7_3 1_555 1_555
C19_3 H13_3 1_555 1_555
C20_3 C11_3 1_555 1_555
S1_2 C20_3 1_555 1_555
C8_3 N1_3 1_555 1_555
C10_3 C11_3 1_555 1_555
C19_3 C20_3 1_555 1_555
C23_2 C21_2 1_555 1_555
H14_2 C23_2 1_555 1_555
H15_2 C23_2 1_555 1_555
H16_2 C23_2 1_555 1_555
C24_2 C22_2 1_555 1_555
C25_2 C24_2 1_555 1_555
C26_2 C25_2 1_555 1_555
C27_2 C26_2 1_555 1_555
C28_2 C24_2 1_555 1_555
F1_2 C28_2 1_555 1_555
F2_2 C28_2 1_555 1_555
F3_2 C27_2 1_555 1_555
F4_2 C27_2 1_555 1_555
F5_2 C26_2 1_555 1_555
F6_2 C26_2 1_555 1_555
C29_2 S2_2 1_555 1_555
S2_2 C30_2 1_555 1_555
C30_2 C31_2 1_555 1_555
C31_2 H17_2 1_555 1_555
C32_2 C25_2 1_555 1_555
C34_2 C29_2 1_555 1_555
H18_2 C34_2 1_555 1_555
H19_2 C34_2 1_555 1_555
H20_2 C34_2 1_555 1_555
H22_2 C36_2 1_555 1_555
C37_2 C30_2 1_555 1_555
C38_2 C37_2 1_555 1_555
H23_2 C38_2 1_555 1_555
C21_2 C22_2 1_555 1_555
C27_2 C28_2 1_555 1_555
C29_2 C32_2 1_555 1_555
C31_2 C32_2 1_555 1_555
C36_2 C37_2 1_555 1_555
C2_3 C1_3 1_555 1_555
C3_3 C2_3 1_555 1_555
H2_3 C3_3 1_555 1_555
C4_3 C3_3 1_555 1_555
H3_2 C4_3 1_555 1_555
C5_3 C4_3 1_555 1_555
C6_3 C1_3 1_555 1_555
H4_3 C6_3 1_555 1_555
O1_2 C12_2 1_555 1_555
C12_2 O2_3 1_555 1_555
C13_2 C5_3 1_555 1_555
C14_2 C13_2 1_555 1_555
H9_2 C14_2 1_555 1_555
C15_2 C14_2 1_555 1_555
H10_2 C15_2 1_555 1_555
C16_2 C12_2 1_555 1_555
C17_2 C16_2 1_555 1_555
H11_3 C17_2 1_555 1_555
C18_3 C13_2 1_555 1_555
H12_3 C18_3 1_555 1_555
C33_3 C2_3 1_555 1_555
O3_2 C33_3 1_555 1_555
C5_3 C6_3 1_555 1_555
C15_2 C16_2 1_555 1_555
C17_2 C18_3 1_555 1_555
C2_4 C1_4 1_555 1_555
C3_4 C2_4 1_555 1_555
H2_4 C3_4 1_555 1_555
C4_4 C3_4 1_555 1_555
H3_3 C4_4 1_555 1_555
C5_4 C4_4 1_555 1_555
C6_4 C1_4 1_555 1_555
H4_4 C6_4 1_555 1_555
O1_3 C12_3 1_555 1_555
C13_3 C5_4 1_555 1_555
C14_3 C13_3 1_555 1_555
H9_3 C14_3 1_555 1_555
C15_3 C14_3 1_555 1_555
H10_3 C15_3 1_555 1_555
C16_3 C12_3 1_555 1_555
C17_3 C16_3 1_555 1_555
H11_4 C17_3 1_555 1_555
C18_4 C13_3 1_555 1_555
H12_4 C18_4 1_555 1_555
C33_4 C2_4 1_555 1_555
O5_2 C33_4 1_555 1_555
C5_4 C6_4 1_555 1_555
C15_3 C16_3 1_555 1_555
C17_3 C18_4 1_555 1_555
C7_4 H5_4 1_555 1_555
C8_4 C7_4 1_555 1_555
N1_4 Zn3_2 1_555 1_555
C9_4 N1_4 1_555 1_555
H7_4 C9_4 1_555 1_555
C10_4 C9_4 1_555 1_555
H8_3 C10_4 1_555 1_555
C11_4 C7_4 1_555 1_555
C19_4 H13_4 1_555 1_555
C20_4 C11_4 1_555 1_555
S1_3 C20_4 1_555 1_555
C21_3 S1_3 1_555 1_555
C22_3 C19_4 1_555 1_555
C23_3 C21_3 1_555 1_555
H14_3 C23_3 1_555 1_555
H15_3 C23_3 1_555 1_555
H16_3 C23_3 1_555 1_555
C24_3 C22_3 1_555 1_555
C25_3 C24_3 1_555 1_555
C26_3 C25_3 1_555 1_555
C27_3 C26_3 1_555 1_555
C28_3 C24_3 1_555 1_555
F1_3 C28_3 1_555 1_555
F2_3 C28_3 1_555 1_555
F3_3 C27_3 1_555 1_555
F4_3 C27_3 1_555 1_555
F5_3 C26_3 1_555 1_555
F6_3 C26_3 1_555 1_555
C29_3 S2_3 1_555 1_555
S2_3 C30_3 1_555 1_555
C30_3 C31_3 1_555 1_555
C31_3 H17_3 1_555 1_555
C32_3 C25_3 1_555 1_555
C34_3 C29_3 1_555 1_555
H18_3 C34_3 1_555 1_555
H19_3 C34_3 1_555 1_555
H20_3 C34_3 1_555 1_555
H22_3 C36_3 1_555 1_555
C37_3 C30_3 1_555 1_555
N3_2 Zn3_2 1_555 1_555
C8_4 N1_4 1_555 1_555
C10_4 C11_4 1_555 1_555
C19_4 C20_4 1_555 1_555
C21_3 C22_3 1_555 1_555
C27_3 C28_3 1_555 1_555
C29_3 C32_3 1_555 1_555
C31_3 C32_3 1_555 1_555
C36_3 C37_3 1_555 1_555
H23_3 C38_3 1_555 1_555
C39_4 C38_3 1_555 1_555
H24_4 C39_4 1_555 1_555
C39_4 N3_2 1_555 1_555
H23_4 C38_4 1_555 1_555
C35_3 H21_3 1_555 1_555
C23_4 C21_4 1_555 1_555
H14_4 C23_4 1_555 1_555
H15_4 C23_4 1_555 1_555
H16_4 C23_4 1_555 1_555
S2_4 C30_4 1_555 1_555
C30_4 C31_4 1_555 1_555
C31_4 H17_4 1_555 1_555
C35_4 H21_4 1_555 1_555
C36_4 C35_4 1_555 1_555
H22_4 C36_4 1_555 1_555
C37_4 C30_4 1_555 1_555
C36_4 C37_4 1_555 1_555
O1_4 C12_4 1_555 1_555
C14_4 C13_4 1_555 1_555
H9_4 C14_4 1_555 1_555
C15_4 C14_4 1_555 1_555
H10_4 C15_4 1_555 1_555
C16_4 C12_4 1_555 1_555
C17_4 C16_4 1_555 1_555
C15_4 C16_4 1_555 1_555
C24_4 C22_4 1_555 1_555
C25_4 C24_4 1_555 1_555
C26_4 C25_4 1_555 1_555
C27_4 C26_4 1_555 1_555
C28_4 C24_4 1_555 1_555
F1_4 C28_4 1_555 1_555
F2_4 C28_4 1_555 1_555
F3_4 C27_4 1_555 1_555
F4_4 C27_4 1_555 1_555
F5_4 C26_4 1_555 1_555
F6_4 C26_4 1_555 1_555
C32_4 C25_4 1_555 1_555
C34_4 C29_4 1_555 1_555
H18_4 C34_4 1_555 1_555
H19_4 C34_4 1_555 1_555
H20_4 C34_4 1_555 1_555
C27_4 C28_4 1_555 1_555
C29_4 C32_4 1_555 1_555

#END
