
###############################################################################
#
# This file contains modified crystal structure data generated from the
# MOF subset of the Cambridge Structural Database (CSD) v543 
# hosted by the Cambridge Crystallographic Data Centre (CCDC).
#
# This work is licensed under the Creative Commons
# Attribution-NonCommercial-ShareAlike 4.0 International License.
# To view a copy of this license, visit
# http://creativecommons.org/licenses/by-nc-sa/4.0/
# or send a letter to
# Creative Commons, PO Box 1866, Mountain View, CA 94042, USA.
#
# CIF created using the CSD Python API on 29 September 2022
# The structure has been converted into the P1 space group
# The structure has a 3D framework
# The original CSD entry YOLKOB is in the orthorhombic crystal system
# The original CSD entry YOLKOB is in a Sohncke space group
# The framework has been calculated to contain at least 10.0% void space
# The void calculation uses a probe of radius 1.32A, grid spacing 0.4
#
###############################################################################

data_YOLKOB
_chemical_formula_moiety         '(C156 H96 F24 N8 O16 S8 Zn4)n'
_symmetry_cell_setting           triclinic
_symmetry_space_group_name_H-M   'P 1'
_symmetry_Int_Tables_number      1
_space_group_name_Hall           'P 1'
loop_
_symmetry_equiv_pos_site_id
_symmetry_equiv_pos_as_xyz
1 x,y,z
_cell_length_a                   7.1674(4)
_cell_length_b                   24.5523(13)
_cell_length_c                   29.5142(18)
_cell_angle_alpha                90
_cell_angle_beta                 90
_cell_angle_gamma                90
_cell_volume                     5193.8
loop_
_atom_site_label
_atom_site_type_symbol
_atom_site_fract_x
_atom_site_fract_y
_atom_site_fract_z
H6 H 0.0717 0.7389 0.7135
C14 C 0.0044(12) 0.6368(3) 0.7399(3)
O4 O 0.1756(7) 0.6437(2) 0.7380(2)
Zn3 Zn 0.09072(9) 0.53741(3) 0.76883(2)
C15 C 0.4399(10) 0.5431(3) 0.7161(2)
H9 H 0.4293 0.5800 0.7230
C16 C 0.5987(10) 0.5265(3) 0.6933(2)
H10 H 0.6910 0.5513 0.6854
C17 C 0.6167(8) 0.4713(3) 0.68253(18)
C18 C 0.4700(9) 0.4374(3) 0.6952(2)
H11 H 0.4722 0.4007 0.6873
C19 C 0.3214(9) 0.4581(3) 0.71947(19)
H12 H 0.2300 0.4342 0.7297
C20 C 0.7779(9) 0.4493(3) 0.65798(18)
C21 C 0.8280(9) 0.3969(3) 0.65079(18)
H13 H 0.7624 0.3673 0.6623
C22 C 0.9882(8) 0.3919(3) 0.62434(18)
C33 C 0.8434(8) 0.3625(3) 0.51711(19)
C34 C 0.6720(9) 0.3576(4) 0.5476(2)
H18 H 0.6938 0.3303 0.5702
H19 H 0.5657 0.3476 0.5297
H20 H 0.6488 0.3920 0.5621
H24 H 0.9023 0.4313 0.3811
F1 F 0.9736(8) 0.2745(2) 0.66518(17)
N1 N 0.3038(6) 0.5112(2) 0.72880(16)
S1 S 0.9383(3) 0.49323(7) 0.63287(6)
S2 S 0.8250(2) 0.39170(8) 0.46343(5)
N3 N 0.2097(7) 0.56475(19) 0.82683(15)
C31 C 0.3614(8) 0.6448(2) 0.9851(2)
H17 H 0.2364 0.6550 0.9843
C32 C 0.4439(8) 0.6197(2) 0.9497(2)
C35 C 0.3662(8) 0.6034(2) 0.90719(19)
C36 C 0.1790(9) 0.6101(3) 0.8969(2)
H21 H 0.1000 0.6270 0.9176
C37 C 0.1098(9) 0.5918(3) 0.8563(2)
C38 C 0.3905(10) 0.5581(3) 0.8370(2)
H23 H 0.4652 0.5402 0.8159
C39 C 0.4720(9) 0.5755(3) 0.8757(2)
H24_2 H 0.5977 0.5687 0.8811
S2_2 S 0.6750(2) 0.60830(8) 0.96343(5)
O2 O 0.2095(6) 0.0014(2) 0.67080(17)
O5 O 0.0773(6) 0.09389(17) 0.75101(16)
C1 C 0.1672(9) 0.9656(3) 0.6987(2)
C2 C 0.2803(9) 0.9140(3) 0.7015(2)
C3 C 0.4391(10) 0.9100(3) 0.6755(2)
H1 H 0.4713 0.9374 0.6552
C4 C 0.5510(11) 0.8636(3) 0.6802(2)
H2 H 0.6549 0.8598 0.6615
C5 C 0.5116(9) 0.8217(2) 0.7126(2)
C6 C 0.3476(8) 0.8270(2) 0.7376(2)
H3 H 0.3138 0.8000 0.7582
C7 C 0.2348(8) 0.8723(2) 0.7319(2)
H4 H 0.1255 0.8750 0.7488
C8 C 0.6374(8) 0.7747(3) 0.7191(2)
C9 C 0.8266(10) 0.7783(3) 0.7106(3)
H5 H 0.8756 0.8107 0.6994
C10 C 0.9443(10) 0.7348(3) 0.7184(3)
C11 C 0.8764(9) 0.6851(3) 0.7333(2)
C12 C 0.6882(9) 0.6813(3) 0.7426(3)
H7 H 0.6392 0.6486 0.7532
C13 C 0.5711(10) 0.7257(3) 0.7363(3)
H8 H 0.4455 0.7226 0.7438
O1 O 0.0336(5) 0.96778(15) 0.72671(15)
O3 O 0.9227(6) 0.59389(17) 0.74899(16)
C1_2 C 0.8328(9) 0.4656(3) 0.8013(2)
C2_2 C 0.7197(9) 0.4140(3) 0.7985(2)
C3_2 C 0.5609(10) 0.4100(3) 0.8245(2)
H1_2 H 0.5287 0.4374 0.8448
C4_2 C 0.4490(11) 0.3636(3) 0.8198(2)
H2_2 H 0.3451 0.3598 0.8385
C5_2 C 0.4884(9) 0.3217(2) 0.7874(2)
C6_2 C 0.6524(8) 0.3270(2) 0.7624(2)
H3_2 H 0.6862 0.3000 0.7418
C7_2 C 0.7652(8) 0.3723(2) 0.7681(2)
H4_2 H 0.8745 0.3750 0.7512
C8_2 C 0.3626(8) 0.2747(3) 0.7809(2)
C9_2 C 0.1734(10) 0.2783(3) 0.7894(3)
H5_2 H 0.1244 0.3107 0.8006
C10_2 C 0.0557(10) 0.2348(3) 0.7816(3)
C11_2 C 0.1236(9) 0.1851(3) 0.7667(2)
C12_2 C 0.3118(9) 0.1813(3) 0.7574(3)
H7_2 H 0.3608 0.1486 0.7468
C13_2 C 0.4289(10) 0.2257(3) 0.7637(3)
H8_2 H 0.5545 0.2226 0.7562
O1_2 O 0.9664(5) 0.46778(15) 0.77329(15)
O2_2 O 0.7905(6) 0.5014(2) 0.82920(17)
C15_2 C 0.5601(10) 0.0431(3) 0.7839(2)
H9_2 H 0.5707 0.0800 0.7770
C16_2 C 0.4013(10) 0.0265(3) 0.8067(2)
H10_2 H 0.3090 0.0513 0.8146
N1_2 N 0.6962(6) 0.0112(2) 0.77120(16)
Zn1 Zn 0.90928(9) 0.03741(3) 0.73117(2)
N3_2 N 0.7903(7) 0.06475(19) 0.67317(15)
C17_2 C 0.1167(8) 0.0287(3) 0.31747(18)
C20_2 C 0.2779(9) 0.0507(3) 0.34202(18)
C21_2 C 0.3280(9) 0.1031(3) 0.34921(18)
H13_2 H 0.2624 0.1327 0.3377
C22_2 C 0.4882(8) 0.1081(3) 0.37566(18)
C23 C 0.5605(9) 0.0611(3) 0.3887(2)
C24 C 0.7364(10) 0.0492(3) 0.4162(3)
H14 H 0.8318 0.0749 0.4083
H15 H 0.7792 0.0130 0.4095
H16 H 0.7089 0.0520 0.4479
C25 C 0.5592(9) 0.1618(2) 0.39049(19)
C26 C 0.6213(11) 0.2031(3) 0.3557(2)
C27 C 0.7206(12) 0.2483(4) 0.3827(2)
C28 C 0.6626(9) 0.2363(3) 0.4317(2)
C29 C 0.5785(8) 0.1810(2) 0.43231(19)
C30 C 0.5226(8) 0.1551(2) 0.4756(2)
C31_2 C 0.6386(8) 0.1448(2) 0.5149(2)
H17_2 H 0.7636 0.1550 0.5157
C32_2 C 0.5561(8) 0.1197(2) 0.5503(2)
C33_2 C 0.3434(8) 0.1375(3) 0.48289(19)
C34_2 C 0.1720(9) 0.1424(4) 0.4524(2)
H18_2 H 0.1938 0.1697 0.4298
H19_2 H 0.0657 0.1524 0.4703
H20_2 H 0.1488 0.1080 0.4379
C35_2 C 0.6338(8) 0.1034(2) 0.59281(19)
C36_2 C 0.8210(9) 0.1101(3) 0.6031(2)
H21_2 H 0.9000 0.1270 0.5824
C37_2 C 0.8902(9) 0.0918(3) 0.6437(2)
C38_2 C 0.6095(10) 0.0581(3) 0.6630(2)
H23_2 H 0.5348 0.0402 0.6841
C39_2 C 0.5280(9) 0.0755(3) 0.6243(2)
H24_3 H 0.4023 0.0687 0.6189
F1_2 F 0.4736(8) 0.2255(2) 0.33482(17)
F2 F 0.7250(9) 0.1826(2) 0.32466(16)
F3 F 0.6935(11) 0.29608(19) 0.36971(15)
F4 F 0.9073(8) 0.2372(3) 0.37939(17)
F5 F 0.5388(7) 0.27386(15) 0.44690(15)
F6 F 0.8125(6) 0.24163(15) 0.46005(13)
S1_2 S 0.4383(3) 0.00677(7) 0.36713(6)
S2_3 S 0.3250(2) 0.10830(8) 0.53657(5)
H6_2 H 0.9283 0.2389 0.7865
C14_2 C 0.9956(12) 0.1368(3) 0.7601(3)
O4_2 O 0.8244(7) 0.1437(2) 0.7620(2)
H24_4 H 0.0977 0.9313 0.1189
S2_4 S 0.1750(2) 0.89170(8) 0.03657(5)
C17_3 C 0.3833(8) 0.9713(3) 0.81747(18)
C18_2 C 0.5300(9) 0.9374(3) 0.8048(2)
H11_2 H 0.5278 0.9007 0.8127
C19_2 C 0.6786(9) 0.9581(3) 0.78053(19)
H12_2 H 0.7700 0.9342 0.7703
C20_3 C 0.2221(9) 0.9493(3) 0.84202(18)
C21_3 C 0.1720(9) 0.8969(3) 0.84921(18)
H13_3 H 0.2376 0.8673 0.8377
C22_3 C 0.0118(8) 0.8919(3) 0.87566(18)
C33_3 C 0.1566(8) 0.8625(3) 0.98289(19)
C34_3 C 0.3280(9) 0.8576(4) 0.9524(2)
H18_3 H 0.3062 0.8303 0.9298
H19_3 H 0.4343 0.8476 0.9703
H20_3 H 0.3512 0.8920 0.9379
F1_3 F 0.0264(8) 0.7745(2) 0.83482(17)
S1_3 S 0.0617(3) 0.99323(7) 0.86713(6)
C31_3 C 0.8614(8) 0.8552(2) 0.0149(2)
H17_3 H 0.7364 0.8450 0.0157
C32_3 C 0.9439(8) 0.8803(2) 0.0503(2)
C35_3 C 0.8662(8) 0.8966(2) 0.09281(19)
C36_3 C 0.6790(9) 0.8899(3) 0.1031(2)
H21_3 H 0.6000 0.8730 0.0824
C37_3 C 0.6098(9) 0.9082(3) 0.1437(2)
H22 H 0.4857 0.9009 0.1507
C38_3 C 0.8905(10) 0.9419(3) 0.1630(2)
H23_3 H 0.9652 0.9598 0.1841
C39_3 C 0.9720(9) 0.9245(3) 0.1243(2)
N2 N 0.7097(7) 0.93525(19) 0.17317(15)
Zn2 Zn 0.59072(9) 0.96259(3) 0.23117(2)
C15_3 C 0.9399(10) 0.9569(3) 0.2839(2)
H9_3 H 0.9293 0.9200 0.2770
N1_3 N 0.8038(6) 0.9888(2) 0.27120(16)
O2_3 O 0.2905(6) 0.9986(2) 0.17080(17)
O5_2 O 0.4227(6) 0.90611(17) 0.25101(16)
C4_3 C 0.0510(11) 0.6364(3) 0.3198(2)
H2_3 H 0.1549 0.6402 0.3385
C5_3 C 0.0116(9) 0.6783(2) 0.2874(2)
C8_3 C 0.1374(8) 0.7253(3) 0.2809(2)
C9_3 C 0.3266(10) 0.7217(3) 0.2894(3)
H5_3 H 0.3756 0.6893 0.3006
C10_3 C 0.4443(10) 0.7652(3) 0.2816(3)
H6_3 H 0.5717 0.7611 0.2865
C11_3 C 0.3764(9) 0.8149(3) 0.2667(2)
C12_3 C 0.1882(9) 0.8187(3) 0.2574(3)
H7_3 H 0.1392 0.8514 0.2468
C13_3 C 0.0711(10) 0.7743(3) 0.2637(3)
C14_3 C 0.5044(12) 0.8632(3) 0.2601(3)
O4_3 O 0.6756(7) 0.8563(2) 0.2620(2)
C23_2 C 0.9395(9) 0.9389(3) 0.8887(2)
C24_2 C 0.7636(10) 0.9508(3) 0.9162(3)
H14_2 H 0.6682 0.9251 0.9083
H15_2 H 0.7208 0.9870 0.9095
H16_2 H 0.7911 0.9480 0.9479
C25_2 C 0.9408(9) 0.8382(2) 0.89049(19)
C26_2 C 0.8787(11) 0.7969(3) 0.8557(2)
C27_2 C 0.7794(12) 0.7517(4) 0.8827(2)
C28_2 C 0.8374(9) 0.7637(3) 0.9317(2)
C29_2 C 0.9215(8) 0.8190(2) 0.93231(19)
C30_2 C 0.9774(8) 0.8449(2) 0.9756(2)
F2_2 F 0.7750(9) 0.8174(2) 0.82466(16)
F3_2 F 0.8065(11) 0.70392(19) 0.86971(15)
F4_2 F 0.5927(8) 0.7628(3) 0.87939(17)
F5_2 F 0.9612(7) 0.72614(15) 0.94690(15)
F6_2 F 0.6875(6) 0.75837(15) 0.96005(13)
H22_2 H 0.0143 0.0991 0.6507
C16_3 C 0.0987(10) 0.9735(3) 0.3067(2)
H10_3 H 0.1910 0.9487 0.3146
C1_3 C 0.3328(9) 0.0344(3) 0.1987(2)
C2_3 C 0.2197(9) 0.0860(3) 0.2015(2)
C3_3 C 0.0609(10) 0.0900(3) 0.1755(2)
H1_3 H 0.0287 0.0626 0.1552
C6_3 C 0.1524(8) 0.1730(2) 0.2376(2)
H3_3 H 0.1862 0.2000 0.2582
C7_3 C 0.2652(8) 0.1277(2) 0.2319(2)
H4_3 H 0.3745 0.1250 0.2488
H8_3 H 0.0545 0.2774 0.2438
C18_3 C 0.9700(9) 0.0626(3) 0.3048(2)
H11_3 H 0.9722 0.0993 0.3127
C19_3 C 0.8214(9) 0.0419(3) 0.28053(19)
H12_3 H 0.7300 0.0658 0.2703
O1_3 O 0.4664(5) 0.03222(15) 0.22671(15)
C4_4 C 0.9490(11) 0.1364(3) 0.1802(2)
H2_4 H 0.8451 0.1402 0.1615
C5_4 C 0.9884(9) 0.1783(2) 0.2126(2)
C8_4 C 0.8626(8) 0.2253(3) 0.2191(2)
C9_4 C 0.6734(10) 0.2217(3) 0.2106(3)
H5_4 H 0.6244 0.1893 0.1994
C10_4 C 0.5557(10) 0.2652(3) 0.2184(3)
H6_4 H 0.4283 0.2611 0.2135
C11_4 C 0.6236(9) 0.3149(3) 0.2333(2)
C12_4 C 0.8118(9) 0.3187(3) 0.2426(3)
H7_4 H 0.8608 0.3514 0.2532
C13_4 C 0.9289(10) 0.2743(3) 0.2363(3)
C14_4 C 0.4956(12) 0.3632(3) 0.2399(3)
O3_2 O 0.5773(6) 0.40611(17) 0.24899(16)
O4_4 O 0.3244(7) 0.3563(2) 0.2380(2)
Zn3_2 Zn 0.40928(9) 0.46259(3) 0.26883(2)
C23_3 C 0.0605(9) 0.4389(3) 0.6113(2)
C24_3 C 0.2364(10) 0.4508(3) 0.5838(3)
H14_3 H 0.3318 0.4251 0.5917
H15_3 H 0.2792 0.4870 0.5905
H16_3 H 0.2089 0.4480 0.5521
C25_3 C 0.0592(9) 0.3382(2) 0.60951(19)
C26_3 C 0.1213(11) 0.2969(3) 0.6443(2)
C27_3 C 0.2206(12) 0.2517(4) 0.6173(2)
C28_3 C 0.1626(9) 0.2637(3) 0.5683(2)
C29_3 C 0.0785(8) 0.3190(2) 0.56769(19)
C30_3 C 0.0226(8) 0.3449(2) 0.5244(2)
C31_4 C 0.1386(8) 0.3552(2) 0.4851(2)
H17_4 H 0.2636 0.3450 0.4843
C32_4 C 0.0561(8) 0.3803(2) 0.4497(2)
C35_4 C 0.1338(8) 0.3966(2) 0.40719(19)
C36_4 C 0.3210(9) 0.3899(3) 0.3969(2)
H21_4 H 0.4000 0.3730 0.4176
C37_4 C 0.3902(9) 0.4082(3) 0.3563(2)
H22_3 H 0.5143 0.4009 0.3493
C38_4 C 0.1095(10) 0.4419(3) 0.3370(2)
H23_4 H 0.0348 0.4598 0.3159
C39_4 C 0.0280(9) 0.4245(3) 0.3757(2)
F2_3 F 0.2250(9) 0.3174(2) 0.67534(16)
F3_3 F 0.1935(11) 0.20392(19) 0.63029(15)
F4_3 F 0.4073(8) 0.2628(3) 0.62061(17)
F5_3 F 0.0388(7) 0.22614(15) 0.55310(15)
F6_3 F 0.3125(6) 0.25837(15) 0.53995(13)
N2_2 N 0.2903(7) 0.43525(19) 0.32683(15)
C1_4 C 0.6672(9) 0.5344(3) 0.3013(2)
C2_4 C 0.7803(9) 0.5860(3) 0.2985(2)
C3_4 C 0.9391(10) 0.5900(3) 0.3245(2)
H1_4 H 0.9713 0.5626 0.3448
C6_4 C 0.8476(8) 0.6730(2) 0.2624(2)
H3_4 H 0.8138 0.7000 0.2418
C7_4 C 0.7348(8) 0.6277(2) 0.2681(2)
H4_4 H 0.6255 0.6250 0.2512
H8_4 H 0.9455 0.7774 0.2562
C15_4 C 0.0601(10) 0.4569(3) 0.2161(2)
H9_4 H 0.0707 0.4200 0.2230
C18_4 C 0.0300(9) 0.5626(3) 0.1952(2)
H11_4 H 0.0278 0.5993 0.1873
C19_4 C 0.1786(9) 0.5419(3) 0.21947(19)
H12_4 H 0.2700 0.5658 0.2297
N1_4 N 0.1962(6) 0.4888(2) 0.22880(16)
O1_4 O 0.5336(5) 0.53222(15) 0.27329(15)
O2_4 O 0.7095(6) 0.4986(2) 0.32920(17)
C16_4 C 0.9013(10) 0.4735(3) 0.1933(2)
H10_4 H 0.8090 0.4487 0.1854
C17_4 C 0.8833(8) 0.5287(3) 0.18253(18)
C20_4 C 0.7221(9) 0.5507(3) 0.15798(18)
C21_4 C 0.6720(9) 0.6031(3) 0.15079(18)
H13_4 H 0.7376 0.6327 0.1623
C22_4 C 0.5118(8) 0.6081(3) 0.12434(18)
C23_4 C 0.4395(9) 0.5611(3) 0.1113(2)
C24_4 C 0.2636(10) 0.5492(3) 0.0838(3)
H14_4 H 0.1682 0.5749 0.0917
H15_4 H 0.2208 0.5130 0.0905
H16_4 H 0.2911 0.5520 0.0521
C25_4 C 0.4408(9) 0.6618(2) 0.10951(19)
C26_4 C 0.3787(11) 0.7031(3) 0.1443(2)
C27_4 C 0.2794(12) 0.7483(4) 0.1173(2)
C28_4 C 0.3374(9) 0.7363(3) 0.0683(2)
C29_4 C 0.4215(8) 0.6810(2) 0.06769(19)
C30_4 C 0.4774(8) 0.6551(2) 0.0244(2)
C33_4 C 0.6566(8) 0.6375(3) 0.01711(19)
C34_4 C 0.8280(9) 0.6424(4) 0.0476(2)
H18_4 H 0.8062 0.6697 0.0702
H19_4 H 0.9343 0.6524 0.0297
H20_4 H 0.8512 0.6080 0.0621
F1_4 F 0.5264(8) 0.7255(2) 0.16518(17)
F2_4 F 0.2750(9) 0.6826(2) 0.17534(16)
F3_4 F 0.3065(11) 0.79608(19) 0.13029(15)
F4_4 F 0.0927(8) 0.7372(3) 0.12061(17)
F5_4 F 0.4612(7) 0.77386(15) 0.05310(15)
F6_4 F 0.1875(6) 0.74163(15) 0.03995(13)
S1_4 S 0.5617(3) 0.50677(7) 0.13287(6)
H22_4 H 0.9857 0.5991 0.8493
loop_
_geom_bond_atom_site_label_1
_geom_bond_atom_site_label_2
_geom_bond_site_symmetry_1
_geom_bond_site_symmetry_2
O4 C14 1_555 1_555
C15 H9 1_555 1_555
C16 C15 1_555 1_555
H10 C16 1_555 1_555
C17 C16 1_555 1_555
C18 C17 1_555 1_555
H11 C18 1_555 1_555
C19 C18 1_555 1_555
H12 C19 1_555 1_555
C20 C17 1_555 1_555
C21 C20 1_555 1_555
H13 C21 1_555 1_555
C22 C21 1_555 1_555
C34 C33 1_555 1_555
H18 C34 1_555 1_555
H19 C34 1_555 1_555
H20 C34 1_555 1_555
N1 C15 1_555 1_555
S1 C20 1_555 1_555
Zn3 N1 1_555 1_555
N3 Zn3 1_555 1_555
C19 N1 1_555 1_555
C33 S2 1_555 1_555
H17 C31 1_555 1_555
C32 C31 1_555 1_555
C35 C32 1_555 1_555
C36 C35 1_555 1_555
H21 C36 1_555 1_555
C37 C36 1_555 1_555
C38 H23 1_555 1_555
C39 C35 1_555 1_555
H24_2 C39 1_555 1_555
N3 C37 1_555 1_555
S2_2 C32 1_555 1_555
C38 C39 1_555 1_555
C38 N3 1_555 1_555
C1 C2 1_555 1_555
C2 C3 1_555 1_555
C3 H1 1_555 1_555
C4 C3 1_555 1_555
H2 C4 1_555 1_555
C5 C4 1_555 1_555
C6 C5 1_555 1_555
H3 C6 1_555 1_555
C7 C2 1_555 1_555
H4 C7 1_555 1_555
C8 C5 1_555 1_555
C9 C8 1_555 1_555
H5 C9 1_555 1_555
C10 C9 1_555 1_555
C11 C10 1_555 1_555
C12 C11 1_555 1_555
H7 C12 1_555 1_555
C13 C8 1_555 1_555
H8 C13 1_555 1_555
O1 C1 1_555 1_555
C6 C7 1_555 1_555
C12 C13 1_555 1_555
C1_2 C2_2 1_555 1_555
C2_2 C3_2 1_555 1_555
C3_2 H1_2 1_555 1_555
C4_2 C3_2 1_555 1_555
H2_2 C4_2 1_555 1_555
C5_2 C4_2 1_555 1_555
C6_2 C5_2 1_555 1_555
H3_2 C6_2 1_555 1_555
C7_2 C2_2 1_555 1_555
H4_2 C7_2 1_555 1_555
C8_2 C5_2 1_555 1_555
C9_2 C8_2 1_555 1_555
H5_2 C9_2 1_555 1_555
C10_2 C9_2 1_555 1_555
C11_2 C10_2 1_555 1_555
C12_2 C11_2 1_555 1_555
H7_2 C12_2 1_555 1_555
C13_2 C8_2 1_555 1_555
H8_2 C13_2 1_555 1_555
O1_2 C1_2 1_555 1_555
O2_2 C1_2 1_555 1_555
C6_2 C7_2 1_555 1_555
C12_2 C13_2 1_555 1_555
C15_2 H9_2 1_555 1_555
C16_2 C15_2 1_555 1_555
H10_2 C16_2 1_555 1_555
N1_2 C15_2 1_555 1_555
Zn1 N1_2 1_555 1_555
N3_2 Zn1 1_555 1_555
C20_2 C17_2 1_555 1_555
C21_2 C20_2 1_555 1_555
H13_2 C21_2 1_555 1_555
C22_2 C21_2 1_555 1_555
C23 C22_2 1_555 1_555
C24 C23 1_555 1_555
H14 C24 1_555 1_555
H15 C24 1_555 1_555
H16 C24 1_555 1_555
C25 C22_2 1_555 1_555
C26 C25 1_555 1_555
C27 C26 1_555 1_555
C28 C27 1_555 1_555
C29 C25 1_555 1_555
C30 C29 1_555 1_555
C31_2 C30 1_555 1_555
H17_2 C31_2 1_555 1_555
C32_2 C31_2 1_555 1_555
C33_2 C30 1_555 1_555
C34_2 C33_2 1_555 1_555
H18_2 C34_2 1_555 1_555
H19_2 C34_2 1_555 1_555
H20_2 C34_2 1_555 1_555
C35_2 C32_2 1_555 1_555
C36_2 C35_2 1_555 1_555
H21_2 C36_2 1_555 1_555
C37_2 C36_2 1_555 1_555
C38_2 H23_2 1_555 1_555
C39_2 C35_2 1_555 1_555
H24_3 C39_2 1_555 1_555
F1_2 C26 1_555 1_555
F2 C26 1_555 1_555
F3 C27 1_555 1_555
F4 C27 1_555 1_555
F5 C28 1_555 1_555
F6 C28 1_555 1_555
N3_2 C37_2 1_555 1_555
S1_2 C20_2 1_555 1_555
S2_3 C32_2 1_555 1_555
C23 S1_2 1_555 1_555
C28 C29 1_555 1_555
C33_2 S2_3 1_555 1_555
C38_2 C39_2 1_555 1_555
C38_2 N3_2 1_555 1_555
O4_2 C14_2 1_555 1_555
C18_2 C17_3 1_555 1_555
H11_2 C18_2 1_555 1_555
C19_2 C18_2 1_555 1_555
H12_2 C19_2 1_555 1_555
C20_3 C17_3 1_555 1_555
C21_3 C20_3 1_555 1_555
H13_3 C21_3 1_555 1_555
C22_3 C21_3 1_555 1_555
C34_3 C33_3 1_555 1_555
H18_3 C34_3 1_555 1_555
H19_3 C34_3 1_555 1_555
H20_3 C34_3 1_555 1_555
S1_3 C20_3 1_555 1_555
H17_3 C31_3 1_555 1_555
C32_3 C31_3 1_555 1_555
C35_3 C32_3 1_555 1_555
C36_3 C35_3 1_555 1_555
H21_3 C36_3 1_555 1_555
C37_3 C36_3 1_555 1_555
H22 C37_3 1_555 1_555
C38_3 H23_3 1_555 1_555
C39_3 C35_3 1_555 1_555
N2 C37_3 1_555 1_555
Zn2 N2 1_555 1_555
C38_3 C39_3 1_555 1_555
C38_3 N2 1_555 1_555
C15_3 H9_3 1_555 1_555
N1_3 C15_3 1_555 1_555
Zn2 N1_3 1_555 1_555
O5_2 Zn2 1_555 1_555
H2_3 C4_3 1_555 1_555
C5_3 C4_3 1_555 1_555
C8_3 C5_3 1_555 1_555
C9_3 C8_3 1_555 1_555
H5_3 C9_3 1_555 1_555
C10_3 C9_3 1_555 1_555
H6_3 C10_3 1_555 1_555
C11_3 C10_3 1_555 1_555
C12_3 C11_3 1_555 1_555
H7_3 C12_3 1_555 1_555
C13_3 C8_3 1_555 1_555
C14_3 C11_3 1_555 1_555
O5_2 C14_3 1_555 1_555
O4_3 C14_3 1_555 1_555
C12_3 C13_3 1_555 1_555
C24_2 C23_2 1_555 1_555
H14_2 C24_2 1_555 1_555
H15_2 C24_2 1_555 1_555
H16_2 C24_2 1_555 1_555
C26_2 C25_2 1_555 1_555
C27_2 C26_2 1_555 1_555
C28_2 C27_2 1_555 1_555
C29_2 C25_2 1_555 1_555
C30_2 C29_2 1_555 1_555
F2_2 C26_2 1_555 1_555
F3_2 C27_2 1_555 1_555
F4_2 C27_2 1_555 1_555
F5_2 C28_2 1_555 1_555
F6_2 C28_2 1_555 1_555
C28_2 C29_2 1_555 1_555
H10_3 C16_3 1_555 1_555
C1_3 C2_3 1_555 1_555
C2_3 C3_3 1_555 1_555
C3_3 H1_3 1_555 1_555
H3_3 C6_3 1_555 1_555
C7_3 C2_3 1_555 1_555
H4_3 C7_3 1_555 1_555
H11_3 C18_3 1_555 1_555
C19_3 C18_3 1_555 1_555
H12_3 C19_3 1_555 1_555
O1_3 C1_3 1_555 1_555
C6_3 C7_3 1_555 1_555
H2_4 C4_4 1_555 1_555
C5_4 C4_4 1_555 1_555
C8_4 C5_4 1_555 1_555
C9_4 C8_4 1_555 1_555
H5_4 C9_4 1_555 1_555
C10_4 C9_4 1_555 1_555
H6_4 C10_4 1_555 1_555
C11_4 C10_4 1_555 1_555
C12_4 C11_4 1_555 1_555
H7_4 C12_4 1_555 1_555
C13_4 C8_4 1_555 1_555
C14_4 C11_4 1_555 1_555
O3_2 C14_4 1_555 1_555
O4_4 C14_4 1_555 1_555
Zn3_2 O3_2 1_555 1_555
C12_4 C13_4 1_555 1_555
C24_3 C23_3 1_555 1_555
H14_3 C24_3 1_555 1_555
H15_3 C24_3 1_555 1_555
H16_3 C24_3 1_555 1_555
C26_3 C25_3 1_555 1_555
C27_3 C26_3 1_555 1_555
C28_3 C27_3 1_555 1_555
C29_3 C25_3 1_555 1_555
C30_3 C29_3 1_555 1_555
C31_4 C30_3 1_555 1_555
H17_4 C31_4 1_555 1_555
C32_4 C31_4 1_555 1_555
C35_4 C32_4 1_555 1_555
C36_4 C35_4 1_555 1_555
H21_4 C36_4 1_555 1_555
C37_4 C36_4 1_555 1_555
H22_3 C37_4 1_555 1_555
C38_4 H23_4 1_555 1_555
C39_4 C35_4 1_555 1_555
F2_3 C26_3 1_555 1_555
F3_3 C27_3 1_555 1_555
F4_3 C27_3 1_555 1_555
F5_3 C28_3 1_555 1_555
F6_3 C28_3 1_555 1_555
N2_2 C37_4 1_555 1_555
Zn3_2 N2_2 1_555 1_555
C28_3 C29_3 1_555 1_555
C38_4 C39_4 1_555 1_555
C38_4 N2_2 1_555 1_555
C1_4 C2_4 1_555 1_555
C2_4 C3_4 1_555 1_555
C3_4 H1_4 1_555 1_555
H3_4 C6_4 1_555 1_555
C7_4 C2_4 1_555 1_555
H4_4 C7_4 1_555 1_555
C15_4 H9_4 1_555 1_555
H11_4 C18_4 1_555 1_555
C19_4 C18_4 1_555 1_555
H12_4 C19_4 1_555 1_555
N1_4 C15_4 1_555 1_555
O1_4 C1_4 1_555 1_555
O2_4 C1_4 1_555 1_555
Zn3_2 N1_4 1_555 1_555
C6_4 C7_4 1_555 1_555
C19_4 N1_4 1_555 1_555
O1_4 Zn3_2 1_555 1_555
H10_4 C16_4 1_555 1_555
C17_4 C16_4 1_555 1_555
C20_4 C17_4 1_555 1_555
C21_4 C20_4 1_555 1_555
H13_4 C21_4 1_555 1_555
C22_4 C21_4 1_555 1_555
C23_4 C22_4 1_555 1_555
C24_4 C23_4 1_555 1_555
H14_4 C24_4 1_555 1_555
H15_4 C24_4 1_555 1_555
H16_4 C24_4 1_555 1_555
C25_4 C22_4 1_555 1_555
C26_4 C25_4 1_555 1_555
C27_4 C26_4 1_555 1_555
C28_4 C27_4 1_555 1_555
C29_4 C25_4 1_555 1_555
C30_4 C29_4 1_555 1_555
C33_4 C30_4 1_555 1_555
C34_4 C33_4 1_555 1_555
H18_4 C34_4 1_555 1_555
H19_4 C34_4 1_555 1_555
H20_4 C34_4 1_555 1_555
F1_4 C26_4 1_555 1_555
F2_4 C26_4 1_555 1_555
F3_4 C27_4 1_555 1_555
F4_4 C27_4 1_555 1_555
F5_4 C28_4 1_555 1_555
F6_4 C28_4 1_555 1_555
S1_4 C20_4 1_555 1_555
C23_4 S1_4 1_555 1_555
C28_4 C29_4 1_555 1_555

#END
