
###############################################################################
#
# This file contains modified crystal structure data generated from the
# MOF subset of the Cambridge Structural Database (CSD) v543 
# hosted by the Cambridge Crystallographic Data Centre (CCDC).
#
# This work is licensed under the Creative Commons
# Attribution-NonCommercial-ShareAlike 4.0 International License.
# To view a copy of this license, visit
# http://creativecommons.org/licenses/by-nc-sa/4.0/
# or send a letter to
# Creative Commons, PO Box 1866, Mountain View, CA 94042, USA.
#
# CIF created using the CSD Python API on 29 September 2022
# The structure has been converted into the P1 space group
# The structure has a 3D framework
# The original CSD entry YOLKOB17 is in the orthorhombic crystal system
# The original CSD entry YOLKOB17 is in a Sohncke space group
# The framework has been calculated to contain at least 10.0% void space
# The void calculation uses a probe of radius 1.32A, grid spacing 0.4
#
###############################################################################

data_YOLKOB17
_chemical_formula_moiety         '(C158 H98 F24 N8 O16 S8 Zn4)n'
_symmetry_cell_setting           triclinic
_symmetry_space_group_name_H-M   'P 1'
_symmetry_Int_Tables_number      1
_space_group_name_Hall           'P 1'
loop_
_symmetry_equiv_pos_site_id
_symmetry_equiv_pos_as_xyz
1 x,y,z
_cell_length_a                   7.029(3)
_cell_length_b                   24.125(10)
_cell_length_c                   30.55(4)
_cell_angle_alpha                90
_cell_angle_beta                 90
_cell_angle_gamma                90
_cell_volume                     5180.5
loop_
_atom_site_label
_atom_site_type_symbol
_atom_site_fract_x
_atom_site_fract_y
_atom_site_fract_z
_atom_site_U_iso_or_equiv
_atom_site_thermal_displace_type
C12 C 0.087(4) 0.6436(16) 0.3079(14) 0.1230 Uiso
H7 H 0.2076 0.6416 0.3203 0.1480 Uiso
C13 C 0.037(5) 0.6892(13) 0.2826(11) 0.1230 Uiso
C22 C 0.361(5) 0.7335(17) 0.292(2) 0.1230 Uiso
H14 H 0.3973 0.7029 0.3088 0.1480 Uiso
C23 C 0.490(5) 0.7760(19) 0.284(2) 0.1230 Uiso
H15 H 0.6129 0.7737 0.2954 0.1480 Uiso
C24 C 0.435(5) 0.8218(17) 0.260(2) 0.1230 Uiso
C25 C 0.251(6) 0.8252(17) 0.243(2) 0.1230 Uiso
H16 H 0.2146 0.8558 0.2269 0.1480 Uiso
C26 C 0.122(5) 0.7828(18) 0.2513(19) 0.1230 Uiso
C27 C 0.177(5) 0.7369(16) 0.2759(18) 0.1230 Uiso
C39 C 0.576(7) 0.869(2) 0.251(2) 0.1230 Uiso
O3 O 0.475(8) 0.904(2) 0.228(3) 0.1230 Uiso
O4 O 0.751(8) 0.877(3) 0.266(3) 0.1230 Uiso
Zn3 Zn 0.6245(16) 0.9728(6) 0.2131(7) 0.1230 Uiso
N1 N 0.850(7) 0.991(2) 0.253(2) 0.1230 Uiso
C9 C 1.000(8) 0.957(2) 0.266(2) 0.1230 Uiso
C17 C 0.621(6) 0.930(2) 0.123(2) 0.1230 Uiso
H10 H 0.4893 0.9323 0.1261 0.1480 Uiso
N2 N 0.737(9) 0.937(2) 0.1598(17) 0.1230 Uiso
C18 C 0.933(8) 0.934(2) 0.1554(14) 0.1230 Uiso
C20 C 0.898(4) 0.919(2) 0.0779(15) 0.1230 Uiso
C21 C 0.702(4) 0.922(2) 0.0823(18) 0.1230 Uiso
H13 H 0.6244 0.9175 0.0578 0.1480 Uiso
C30 C 0.877(3) 0.871(2) 0.0016(16) 0.1230 Uiso
H18 H 0.7454 0.8685 0.0000 0.1480 Uiso
C31 C 0.983(3) 0.8979(17) 0.0351(14) 0.1230 Uiso
Zn1 Zn 0.3755(16) 0.4728(6) 0.2869(7) 0.1230 Uiso
C4 C 0.066(5) 0.4295(14) 0.6234(16) 0.1230 Uiso
O1 O 0.493(5) 0.5126(14) 0.3105(8) 0.1230 Uiso
C10 C 0.634(4) 0.5577(13) 0.3035(7) 0.1230 Uiso
C11 C 0.957(5) 0.6011(14) 0.3146(12) 0.1230 Uiso
H6 H 0.9908 0.5706 0.3316 0.1480 Uiso
C14 C 0.857(5) 0.6922(13) 0.2640(13) 0.1230 Uiso
H8 H 0.8229 0.7227 0.2470 0.1480 Uiso
C15 C 0.727(5) 0.6496(14) 0.2707(13) 0.1230 Uiso
H9 H 0.6060 0.6516 0.2583 0.1480 Uiso
C16 C 0.777(4) 0.6040(12) 0.2960(9) 0.1230 Uiso
C17_2 C 0.379(6) 0.430(2) 0.377(2) 0.1230 Uiso
H10_2 H 0.5107 0.4323 0.3739 0.1480 Uiso
N2_2 N 0.263(9) 0.437(2) 0.3402(17) 0.1230 Uiso
C18_2 C 0.067(8) 0.434(2) 0.3446(14) 0.1230 Uiso
C20_2 C 0.102(4) 0.419(2) 0.4221(15) 0.1230 Uiso
C21_2 C 0.298(4) 0.422(2) 0.4177(18) 0.1230 Uiso
H13_2 H 0.3756 0.4175 0.4422 0.1480 Uiso
H17 H 0.9990 0.7850 0.2403 0.1480 Uiso
O2 O 0.727(6) 0.517(2) 0.3333(18) 0.1230 Uiso
C30_2 C 0.123(3) 0.371(2) 0.4984(16) 0.1230 Uiso
H18_2 H 0.2546 0.3685 0.5000 0.1480 Uiso
C31_2 C 0.017(3) 0.3979(17) 0.4649(14) 0.1230 Uiso
C32 C 0.044(5) 0.3063(15) 0.5644(13) 0.1230 Uiso
C33 C 0.065(5) 0.3303(11) 0.6065(15) 0.1230 Uiso
C34 C 0.178(5) 0.2940(12) 0.6323(11) 0.1230 Uiso
C35 C 0.226(4) 0.2475(11) 0.6060(11) 0.1230 Uiso
C36 C 0.144(4) 0.2552(13) 0.5641(10) 0.1230 Uiso
F1 F 0.011(5) 0.223(2) 0.5483(16) 0.1230 Uiso
F2 F 0.266(5) 0.2539(19) 0.5272(13) 0.1230 Uiso
F3 F 0.425(4) 0.2301(15) 0.6055(13) 0.1230 Uiso
F4 F 0.106(5) 0.2835(16) 0.6759(15) 0.1230 Uiso
C37 C 0.242(7) 0.438(3) 0.597(2) 0.1230 Uiso
H19 H 0.2074 0.4454 0.5669 0.1850 Uiso
H20 H 0.3188 0.4050 0.5979 0.1850 Uiso
H21 H 0.3127 0.4687 0.6083 0.1850 Uiso
F5 F 0.337(5) 0.3236(14) 0.6508(18) 0.1230 Uiso
F6 F 0.180(5) 0.1937(12) 0.6255(12) 0.1230 Uiso
N3 N 0.150(7) 0.491(2) 0.247(2) 0.1230 Uiso
O5 O 0.525(8) 0.404(2) 0.272(3) 0.1230 Uiso
C5 C 0.160(7) 0.545(2) 0.233(2) 0.1230 Uiso
H2 H 0.2597 0.5682 0.2412 0.1480 Uiso
C6 C 0.019(8) 0.566(2) 0.205(2) 0.1230 Uiso
H3 H 0.0257 0.6023 0.1949 0.1480 Uiso
C9_2 C 0.000(8) 0.457(2) 0.234(2) 0.1230 Uiso
C12_2 C 0.913(4) 0.1436(16) 0.1921(14) 0.1230 Uiso
H7_2 H 0.7924 0.1416 0.1797 0.1480 Uiso
C13_2 C 0.963(5) 0.1892(13) 0.2174(11) 0.1230 Uiso
C22_2 C 0.639(5) 0.2335(17) 0.208(2) 0.1230 Uiso
H14_2 H 0.6027 0.2029 0.1912 0.1480 Uiso
C23_2 C 0.510(5) 0.2760(19) 0.216(2) 0.1230 Uiso
H15_2 H 0.3871 0.2737 0.2046 0.1480 Uiso
C24_2 C 0.565(5) 0.3218(17) 0.240(2) 0.1230 Uiso
C25_2 C 0.749(6) 0.3252(17) 0.257(2) 0.1230 Uiso
H16_2 H 0.7854 0.3558 0.2731 0.1480 Uiso
C26_2 C 0.878(5) 0.2828(18) 0.2487(19) 0.1230 Uiso
C27_2 C 0.823(5) 0.2369(16) 0.2241(18) 0.1230 Uiso
C39_2 C 0.424(7) 0.369(2) 0.249(2) 0.1230 Uiso
O4_2 O 0.249(8) 0.377(3) 0.234(3) 0.1230 Uiso
S1 S 0.968(4) 0.4707(10) 0.6478(13) 0.1230 Uiso
C1 C 0.801(4) 0.4463(14) 0.6654(13) 0.1230 Uiso
C2 C 0.795(6) 0.3900(13) 0.652(2) 0.1230 Uiso
H1 H 0.7011 0.3644 0.6588 0.1480 Uiso
C3 C 0.959(7) 0.3796(13) 0.626(2) 0.1230 Uiso
N1_2 N 0.350(7) 0.509(2) 0.747(2) 0.1230 Uiso
C5_2 C 0.340(7) 0.455(2) 0.733(2) 0.1230 Uiso
H2_2 H 0.2403 0.4318 0.7412 0.1480 Uiso
C6_2 C 0.481(8) 0.434(2) 0.705(2) 0.1230 Uiso
H3_2 H 0.4743 0.3977 0.6949 0.1480 Uiso
C7 C 0.630(6) 0.468(2) 0.6919(19) 0.1230 Uiso
C8 C 0.640(6) 0.522(2) 0.707(2) 0.1230 Uiso
H4 H 0.7399 0.5451 0.6981 0.1480 Uiso
C9_3 C 0.500(8) 0.543(2) 0.734(2) 0.1230 Uiso
H5 H 0.5059 0.5793 0.7444 0.1480 Uiso
H11 H 0.9894 0.4378 0.3201 0.1480 Uiso
C19 C 0.986(6) 0.425(2) 0.3855(15) 0.1230 Uiso
H12 H 0.8543 0.4231 0.3884 0.1480 Uiso
C28 C 0.805(4) 0.3617(15) 0.5144(13) 0.1230 Uiso
C29 C 0.992(4) 0.3487(19) 0.5290(15) 0.1230 Uiso
S2 S 0.821(3) 0.3922(11) 0.4748(11) 0.1230 Uiso
C38 C 0.639(10) 0.341(3) 0.541(3) 0.1230 Uiso
H22 H 0.6783 0.3095 0.5584 0.1850 Uiso
H23 H 0.5370 0.3302 0.5222 0.1850 Uiso
H24 H 0.5958 0.3699 0.5605 0.1850 Uiso
Zn2 Zn 0.1245(16) 0.5272(6) 0.7869(7) 0.1230 Uiso
O1_2 O 0.007(5) 0.4874(14) 0.8105(8) 0.1230 Uiso
C17_3 C 0.121(6) 0.570(2) 0.877(2) 0.1230 Uiso
N2_3 N 0.237(9) 0.563(2) 0.8402(17) 0.1230 Uiso
C18_3 C 0.433(8) 0.566(2) 0.8446(14) 0.1230 Uiso
H11_2 H 0.5106 0.5622 0.8201 0.1480 Uiso
C19_2 C 0.514(6) 0.575(2) 0.8855(15) 0.1230 Uiso
H12_2 H 0.6457 0.5769 0.8884 0.1480 Uiso
C20_3 C 0.398(4) 0.581(2) 0.9221(15) 0.1230 Uiso
C21_3 C 0.202(4) 0.578(2) 0.9177(18) 0.1230 Uiso
H13_3 H 0.1244 0.5825 0.9422 0.1480 Uiso
C30_3 C 0.377(3) 0.629(2) 0.9984(16) 0.1230 Uiso
H18_3 H 0.2454 0.6315 1.0000 0.1480 Uiso
C31_3 C 0.483(3) 0.6021(17) 0.9649(14) 0.1230 Uiso
S2_2 S 0.679(3) 0.6078(11) 0.9748(11) 0.1230 Uiso
H15_3 H 0.1129 0.7263 0.7046 0.1480 Uiso
C39_3 C 0.076(7) 0.631(2) 0.749(2) 0.1230 Uiso
O4_3 O 0.251(8) 0.623(3) 0.734(3) 0.1230 Uiso
S1_2 S 0.532(4) 0.5293(10) 0.1478(13) 0.1230 Uiso
C1_2 C 0.699(4) 0.5537(14) 0.1654(13) 0.1230 Uiso
C2_2 C 0.705(6) 0.6100(13) 0.152(2) 0.1230 Uiso
H1_2 H 0.7989 0.6356 0.1588 0.1480 Uiso
C3_2 C 0.541(7) 0.6204(13) 0.126(2) 0.1230 Uiso
C4_2 C 0.434(5) 0.5705(14) 0.1234(16) 0.1230 Uiso
C7_2 C 0.870(6) 0.532(2) 0.1919(19) 0.1230 Uiso
C8_2 C 0.860(6) 0.478(2) 0.207(2) 0.1230 Uiso
H4_2 H 0.7601 0.4549 0.1981 0.1480 Uiso
C9_4 C 1.000(8) 0.457(2) 0.234(2) 0.1230 Uiso
H5_2 H 0.9941 0.4207 0.2444 0.1480 Uiso
C28_2 C 0.695(4) 0.6383(15) 0.0144(13) 0.1230 Uiso
C29_2 C 0.508(4) 0.6513(19) 0.0290(15) 0.1230 Uiso
H18_4 H 0.2454 0.6315 -0.0000 0.1480 Uiso
C32_2 C 0.456(5) 0.6937(15) 0.0644(13) 0.1230 Uiso
C33_2 C 0.435(5) 0.6697(11) 0.1065(15) 0.1230 Uiso
C34_2 C 0.322(5) 0.7060(12) 0.1323(11) 0.1230 Uiso
C35_2 C 0.274(4) 0.7525(11) 0.1060(11) 0.1230 Uiso
C36_2 C 0.356(4) 0.7448(13) 0.0641(10) 0.1230 Uiso
F1_2 F 0.489(5) 0.777(2) 0.0483(16) 0.1230 Uiso
F2_2 F 0.234(5) 0.7461(19) 0.0272(13) 0.1230 Uiso
F3_2 F 0.075(4) 0.7699(15) 0.1055(13) 0.1230 Uiso
F4_2 F 0.394(5) 0.7165(16) 0.1759(15) 0.1230 Uiso
C37_2 C 0.258(7) 0.562(3) 0.097(2) 0.1230 Uiso
H19_2 H 0.2926 0.5546 0.0669 0.1850 Uiso
H20_2 H 0.1812 0.5950 0.0979 0.1850 Uiso
H21_2 H 0.1873 0.5313 0.1083 0.1850 Uiso
C38_2 C 0.861(10) 0.659(3) 0.041(3) 0.1230 Uiso
H22_2 H 0.8217 0.6905 0.0584 0.1850 Uiso
H23_2 H 0.9630 0.6698 0.0222 0.1850 Uiso
H24_2 H 0.9042 0.6301 0.0605 0.1850 Uiso
F5_2 F 0.163(5) 0.6764(14) 0.1508(18) 0.1230 Uiso
F6_2 F 0.320(5) 0.8063(12) 0.1255(12) 0.1230 Uiso
C10_2 C 0.866(4) 0.4423(13) 0.8035(7) 0.1230 Uiso
C11_2 C 0.543(5) 0.3989(14) 0.8146(12) 0.1230 Uiso
H6_2 H 0.5092 0.4294 0.8316 0.1480 Uiso
C12_3 C 0.413(4) 0.3564(16) 0.8079(14) 0.1230 Uiso
H7_3 H 0.2924 0.3584 0.8203 0.1480 Uiso
C13_3 C 0.463(5) 0.3108(13) 0.7826(11) 0.1230 Uiso
C14_2 C 0.643(5) 0.3078(13) 0.7640(13) 0.1230 Uiso
H8_2 H 0.6771 0.2773 0.7470 0.1480 Uiso
C15_2 C 0.773(5) 0.3504(14) 0.7707(13) 0.1230 Uiso
H9_2 H 0.8940 0.3484 0.7583 0.1480 Uiso
C16_2 C 0.723(4) 0.3960(12) 0.7960(9) 0.1230 Uiso
H10_3 H 0.9893 0.5677 0.8739 0.1480 Uiso
C22_3 C 0.139(5) 0.2665(17) 0.792(2) 0.1230 Uiso
H14_3 H 0.1027 0.2971 0.8088 0.1480 Uiso
C23_3 C 0.010(5) 0.2240(19) 0.784(2) 0.1230 Uiso
C24_3 C 0.065(5) 0.1782(17) 0.760(2) 0.1230 Uiso
C25_3 C 0.249(6) 0.1748(17) 0.743(2) 0.1230 Uiso
H16_3 H 0.2854 0.1442 0.7269 0.1480 Uiso
C26_3 C 0.378(5) 0.2172(18) 0.7513(19) 0.1230 Uiso
H17_2 H 0.5010 0.2150 0.7403 0.1480 Uiso
C27_3 C 0.323(5) 0.2631(16) 0.7759(18) 0.1230 Uiso
O2_2 O 0.773(6) 0.483(2) 0.8333(18) 0.1230 Uiso
O3_2 O 0.025(8) 0.096(2) 0.728(3) 0.1230 Uiso
O5_2 O 0.975(8) 0.596(2) 0.772(3) 0.1230 Uiso
H10_4 H 0.0107 0.0677 0.6261 0.1480 Uiso
C10_3 C 0.134(4) 0.9423(13) 0.6965(7) 0.1230 Uiso
C11_3 C 0.457(5) 0.8989(14) 0.6854(12) 0.1230 Uiso
H6_3 H 0.4908 0.9294 0.6684 0.1480 Uiso
C12_4 C 0.587(4) 0.8564(16) 0.6921(14) 0.1230 Uiso
H7_4 H 0.7076 0.8584 0.6797 0.1480 Uiso
C13_4 C 0.537(5) 0.8108(13) 0.7174(11) 0.1230 Uiso
C14_3 C 0.357(5) 0.8078(13) 0.7360(13) 0.1230 Uiso
H8_3 H 0.3229 0.7773 0.7530 0.1480 Uiso
C15_3 C 0.227(5) 0.8504(14) 0.7293(13) 0.1230 Uiso
H9_3 H 0.1060 0.8484 0.7417 0.1480 Uiso
C16_3 C 0.277(4) 0.8960(12) 0.7040(9) 0.1230 Uiso
C22_4 C 0.861(5) 0.7665(17) 0.708(2) 0.1230 Uiso
H14_4 H 0.8973 0.7971 0.6912 0.1480 Uiso
C23_4 C 0.990(5) 0.7240(19) 0.716(2) 0.1230 Uiso
C24_4 C 0.935(5) 0.6782(17) 0.740(2) 0.1230 Uiso
C25_4 C 0.751(6) 0.6748(17) 0.757(2) 0.1230 Uiso
H16_4 H 0.7146 0.6442 0.7731 0.1480 Uiso
C26_4 C 0.622(5) 0.7172(18) 0.7487(19) 0.1230 Uiso
H17_3 H 0.4990 0.7150 0.7597 0.1480 Uiso
C27_4 C 0.677(5) 0.7631(16) 0.7241(18) 0.1230 Uiso
O2_3 O 0.227(6) 0.983(2) 0.6667(18) 0.1230 Uiso
H15_4 H 0.8871 0.2263 0.7954 0.1480 Uiso
C39_4 C 0.924(7) 0.131(2) 0.751(2) 0.1230 Uiso
O4_4 O 0.749(8) 0.123(3) 0.766(3) 0.1230 Uiso
Zn3_2 Zn 0.8755(16) 0.0272(6) 0.7131(7) 0.1230 Uiso
S1_3 S 0.468(4) 0.0293(10) 0.3522(13) 0.1230 Uiso
C1_3 C 0.301(4) 0.0537(14) 0.3346(13) 0.1230 Uiso
C2_3 C 0.295(6) 0.1100(13) 0.348(2) 0.1230 Uiso
H1_3 H 0.2011 0.1356 0.3412 0.1480 Uiso
C3_3 C 0.459(7) 0.1204(13) 0.374(2) 0.1230 Uiso
C4_3 C 0.566(5) 0.0705(14) 0.3766(16) 0.1230 Uiso
C7_3 C 0.130(6) 0.032(2) 0.3081(19) 0.1230 Uiso
C17_4 C 0.879(6) 0.070(2) 0.623(2) 0.1230 Uiso
N2_4 N 0.763(9) 0.063(2) 0.6598(17) 0.1230 Uiso
C18_4 C 0.567(8) 0.066(2) 0.6554(14) 0.1230 Uiso
H11_3 H 0.4894 0.0622 0.6799 0.1480 Uiso
C19_3 C 0.486(6) 0.075(2) 0.6145(15) 0.1230 Uiso
H12_3 H 0.3543 0.0769 0.6116 0.1480 Uiso
C20_4 C 0.602(4) 0.081(2) 0.5779(15) 0.1230 Uiso
C21_4 C 0.798(4) 0.078(2) 0.5823(18) 0.1230 Uiso
H13_4 H 0.8756 0.0825 0.5578 0.1480 Uiso
C28_3 C 0.305(4) 0.1383(15) 0.4856(13) 0.1230 Uiso
C29_3 C 0.492(4) 0.1513(19) 0.4710(15) 0.1230 Uiso
C30_4 C 0.623(3) 0.129(2) 0.5016(16) 0.1230 Uiso
H18_5 H 0.7546 0.1315 0.5000 0.1480 Uiso
C31_4 C 0.517(3) 0.1021(17) 0.5351(14) 0.1230 Uiso
S2_3 S 0.321(3) 0.1078(11) 0.5252(11) 0.1230 Uiso
C32_3 C 0.544(5) 0.1937(15) 0.4356(13) 0.1230 Uiso
C33_3 C 0.565(5) 0.1697(11) 0.3935(15) 0.1230 Uiso
C34_3 C 0.678(5) 0.2060(12) 0.3677(11) 0.1230 Uiso
C35_3 C 0.726(4) 0.2525(11) 0.3940(11) 0.1230 Uiso
C36_3 C 0.644(4) 0.2448(13) 0.4359(10) 0.1230 Uiso
F1_3 F 0.511(5) 0.277(2) 0.4517(16) 0.1230 Uiso
F2_3 F 0.766(5) 0.2461(19) 0.4728(13) 0.1230 Uiso
F3_3 F 0.925(4) 0.2699(15) 0.3945(13) 0.1230 Uiso
F4_3 F 0.606(5) 0.2165(16) 0.3241(15) 0.1230 Uiso
C37_3 C 0.742(7) 0.062(3) 0.403(2) 0.1230 Uiso
H19_3 H 0.7074 0.0546 0.4331 0.1850 Uiso
H20_3 H 0.8188 0.0950 0.4021 0.1850 Uiso
H21_3 H 0.8127 0.0313 0.3917 0.1850 Uiso
C38_3 C 0.139(10) 0.159(3) 0.459(3) 0.1230 Uiso
H22_3 H 0.1783 0.1905 0.4416 0.1850 Uiso
H23_3 H 0.0370 0.1698 0.4778 0.1850 Uiso
H24_3 H 0.0958 0.1301 0.4395 0.1850 Uiso
F5_3 F 0.837(5) 0.1764(14) 0.3492(18) 0.1230 Uiso
F6_3 F 0.680(5) 0.3063(12) 0.3745(12) 0.1230 Uiso
N3_2 N 0.650(7) 0.009(2) 0.753(2) 0.1230 Uiso
C8_3 C 0.360(6) 0.022(2) 0.793(2) 0.1230 Uiso
H4_3 H 0.2601 0.0451 0.8019 0.1480 Uiso
C9_5 C 0.500(8) 0.043(2) 0.766(2) 0.1230 Uiso
H5_3 H 0.4941 0.0793 0.7556 0.1480 Uiso
O1_3 O 0.993(5) 0.9874(14) 0.6895(8) 0.1230 Uiso
C8_4 C 0.140(6) 0.978(2) 0.293(2) 0.1230 Uiso
H4_4 H 0.2399 0.9549 0.3019 0.1480 Uiso
C9_6 C 0.000(8) 0.957(2) 0.266(2) 0.1230 Uiso
H5_4 H 0.0059 0.9207 0.2556 0.1480 Uiso
C5_3 C 0.840(7) 0.045(2) 0.267(2) 0.1230 Uiso
H2_3 H 0.7403 0.0682 0.2588 0.1480 Uiso
C6_3 C 0.981(8) 0.066(2) 0.295(2) 0.1230 Uiso
H3_3 H 0.9743 0.1023 0.3051 0.1480 Uiso
H11_4 H 0.0106 0.9378 0.1799 0.1480 Uiso
C19_4 C 0.014(6) 0.925(2) 0.1145(15) 0.1230 Uiso
H12_4 H 0.1457 0.9231 0.1116 0.1480 Uiso
S2_4 S 0.179(3) 0.8922(11) 0.0252(11) 0.1230 Uiso
S1_4 S 0.032(4) 0.9707(10) 0.8522(13) 0.1230 Uiso
C1_4 C 0.199(4) 0.9463(14) 0.8346(13) 0.1230 Uiso
C2_4 C 0.205(6) 0.8900(13) 0.848(2) 0.1230 Uiso
H1_4 H 0.2989 0.8644 0.8412 0.1480 Uiso
C3_4 C 0.041(7) 0.8796(13) 0.874(2) 0.1230 Uiso
C5_4 C 0.660(7) 0.955(2) 0.767(2) 0.1230 Uiso
H2_4 H 0.7597 0.9318 0.7588 0.1480 Uiso
C6_4 C 0.519(8) 0.934(2) 0.795(2) 0.1230 Uiso
H3_4 H 0.5257 0.8977 0.8051 0.1480 Uiso
C7_4 C 0.370(6) 0.968(2) 0.8081(19) 0.1230 Uiso
C28_4 C 0.195(4) 0.8617(15) 0.9856(13) 0.1230 Uiso
C29_4 C 0.008(4) 0.8487(19) 0.9710(15) 0.1230 Uiso
C38_4 C 0.361(10) 0.841(3) 0.959(3) 0.1230 Uiso
H22_4 H 0.3217 0.8095 0.9416 0.1850 Uiso
H23_4 H 0.4630 0.8302 0.9778 0.1850 Uiso
H24_4 H 0.4042 0.8699 0.9395 0.1850 Uiso
O1_4 O 0.507(5) 0.0126(14) 0.1895(8) 0.1230 Uiso
C10_4 C 0.366(4) 0.0577(13) 0.1965(7) 0.1230 Uiso
C11_4 C 0.043(5) 0.1011(14) 0.1854(12) 0.1230 Uiso
H6_4 H 0.0092 0.0706 0.1684 0.1480 Uiso
C14_4 C 0.143(5) 0.1922(13) 0.2360(13) 0.1230 Uiso
H8_4 H 0.1771 0.2227 0.2530 0.1480 Uiso
C15_4 C 0.273(5) 0.1496(14) 0.2293(13) 0.1230 Uiso
H9_4 H 0.3940 0.1516 0.2417 0.1480 Uiso
C16_4 C 0.223(4) 0.1040(12) 0.2040(9) 0.1230 Uiso
H17_4 H 0.0010 0.2850 0.2597 0.1480 Uiso
O2_4 O 0.273(6) 0.017(2) 0.1667(18) 0.1230 Uiso
C4_4 C 0.934(5) 0.9295(14) 0.8766(16) 0.1230 Uiso
H18_6 H 0.7454 0.8685 1.0000 0.1480 Uiso
C32_4 C 0.956(5) 0.8063(15) 0.9356(13) 0.1230 Uiso
C33_4 C 0.935(5) 0.8303(11) 0.8935(15) 0.1230 Uiso
C34_4 C 0.822(5) 0.7940(12) 0.8677(11) 0.1230 Uiso
C35_4 C 0.774(4) 0.7475(11) 0.8940(11) 0.1230 Uiso
C36_4 C 0.856(4) 0.7552(13) 0.9359(10) 0.1230 Uiso
F1_4 F 0.989(5) 0.723(2) 0.9517(16) 0.1230 Uiso
F2_4 F 0.734(5) 0.7539(19) 0.9728(13) 0.1230 Uiso
F3_4 F 0.575(4) 0.7301(15) 0.8945(13) 0.1230 Uiso
F4_4 F 0.894(5) 0.7835(16) 0.8241(15) 0.1230 Uiso
C37_4 C 0.758(7) 0.938(3) 0.903(2) 0.1230 Uiso
H19_4 H 0.7926 0.9454 0.9331 0.1850 Uiso
H20_4 H 0.6812 0.9050 0.9021 0.1850 Uiso
H21_4 H 0.6873 0.9687 0.8917 0.1850 Uiso
F5_4 F 0.663(5) 0.8236(14) 0.8492(18) 0.1230 Uiso
F6_4 F 0.820(5) 0.6937(12) 0.8745(12) 0.1230 Uiso
loop_
_geom_bond_atom_site_label_1
_geom_bond_atom_site_label_2
_geom_bond_site_symmetry_1
_geom_bond_site_symmetry_2
H7 C12 1_555 1_555
C13 C12 1_555 1_555
C22 H14 1_555 1_555
C23 C22 1_555 1_555
H15 C23 1_555 1_555
C24 C23 1_555 1_555
C25 C24 1_555 1_555
H16 C25 1_555 1_555
C26 C25 1_555 1_555
C27 C13 1_555 1_555
C39 C24 1_555 1_555
O3 C39 1_555 1_555
O4 C39 1_555 1_555
Zn3 O3 1_555 1_555
C22 C27 1_555 1_555
C26 C27 1_555 1_555
C9 N1 1_555 1_555
Zn3 N1 1_555 1_555
C17 H10 1_555 1_555
N2 Zn3 1_555 1_555
C18 N2 1_555 1_555
C21 C17 1_555 1_555
H13 C21 1_555 1_555
C30 H18 1_555 1_555
C31 C20 1_555 1_555
C17 N2 1_555 1_555
C20 C21 1_555 1_555
C30 C31 1_555 1_555
Zn1 O1 1_555 1_555
O1 C10 1_555 1_555
C10 C16 1_555 1_555
C11 H6 1_555 1_555
H8 C14 1_555 1_555
C15 C14 1_555 1_555
H9 C15 1_555 1_555
C16 C11 1_555 1_555
C17_2 H10_2 1_555 1_555
N2_2 Zn1 1_555 1_555
C18_2 N2_2 1_555 1_555
C21_2 C17_2 1_555 1_555
H13_2 C21_2 1_555 1_555
O2 C10 1_555 1_555
C30_2 H18_2 1_555 1_555
C31_2 C20_2 1_555 1_555
C34 C33 1_555 1_555
C35 C34 1_555 1_555
C36 C32 1_555 1_555
F1 C36 1_555 1_555
F2 C36 1_555 1_555
F3 C35 1_555 1_555
F4 C34 1_555 1_555
C37 C4 1_555 1_555
H19 C37 1_555 1_555
H20 C37 1_555 1_555
H21 C37 1_555 1_555
F5 C34 1_555 1_555
F6 C35 1_555 1_555
N3 Zn1 1_555 1_555
O5 Zn1 1_555 1_555
C15 C16 1_555 1_555
C17_2 N2_2 1_555 1_555
C20_2 C21_2 1_555 1_555
C30_2 C31_2 1_555 1_555
C32 C33 1_555 1_555
C35 C36 1_555 1_555
N3 C5 1_555 1_555
C5 H2 1_555 1_555
C6 C5 1_555 1_555
H3 C6 1_555 1_555
C9_2 N3 1_555 1_555
H7_2 C12_2 1_555 1_555
C13_2 C12_2 1_555 1_555
C22_2 H14_2 1_555 1_555
C23_2 C22_2 1_555 1_555
H15_2 C23_2 1_555 1_555
C24_2 C23_2 1_555 1_555
C25_2 C24_2 1_555 1_555
H16_2 C25_2 1_555 1_555
C26_2 C25_2 1_555 1_555
C27_2 C13_2 1_555 1_555
C39_2 C24_2 1_555 1_555
O5 C39_2 1_555 1_555
O4_2 C39_2 1_555 1_555
C22_2 C27_2 1_555 1_555
C26_2 C27_2 1_555 1_555
S1 C1 1_555 1_555
C1 C2 1_555 1_555
C2 H1 1_555 1_555
C3 C2 1_555 1_555
N1_2 C5_2 1_555 1_555
C5_2 H2_2 1_555 1_555
C6_2 C5_2 1_555 1_555
H3_2 C6_2 1_555 1_555
C7 C1 1_555 1_555
C8 C7 1_555 1_555
H4 C8 1_555 1_555
C9_3 N1_2 1_555 1_555
H5 C9_3 1_555 1_555
H12 C19 1_555 1_555
C28 C29 1_555 1_555
S2 C28 1_555 1_555
C38 C28 1_555 1_555
H22 C38 1_555 1_555
H23 C38 1_555 1_555
H24 C38 1_555 1_555
Zn2 N1_2 1_555 1_555
C6_2 C7 1_555 1_555
C8 C9_3 1_555 1_555
Zn2 O1_2 1_555 1_555
N2_3 Zn2 1_555 1_555
C18_3 N2_3 1_555 1_555
H11_2 C18_3 1_555 1_555
C19_2 C18_3 1_555 1_555
H12_2 C19_2 1_555 1_555
C20_3 C19_2 1_555 1_555
C21_3 C17_3 1_555 1_555
H13_3 C21_3 1_555 1_555
C30_3 H18_3 1_555 1_555
C31_3 C20_3 1_555 1_555
C17_3 N2_3 1_555 1_555
C20_3 C21_3 1_555 1_555
C30_3 C31_3 1_555 1_555
C31_3 S2_2 1_555 1_555
O4_3 C39_3 1_555 1_555
S1_2 C1_2 1_555 1_555
C1_2 C2_2 1_555 1_555
C2_2 H1_2 1_555 1_555
C3_2 C2_2 1_555 1_555
C4_2 S1_2 1_555 1_555
C7_2 C1_2 1_555 1_555
C8_2 C7_2 1_555 1_555
H4_2 C8_2 1_555 1_555
H5_2 C9_4 1_555 1_555
C28_2 C29_2 1_555 1_555
C32_2 C29_2 1_555 1_555
C33_2 C3_2 1_555 1_555
C34_2 C33_2 1_555 1_555
C35_2 C34_2 1_555 1_555
C36_2 C32_2 1_555 1_555
F1_2 C36_2 1_555 1_555
F2_2 C36_2 1_555 1_555
F3_2 C35_2 1_555 1_555
F4_2 C34_2 1_555 1_555
C37_2 C4_2 1_555 1_555
H19_2 C37_2 1_555 1_555
H20_2 C37_2 1_555 1_555
H21_2 C37_2 1_555 1_555
C38_2 C28_2 1_555 1_555
H22_2 C38_2 1_555 1_555
H23_2 C38_2 1_555 1_555
H24_2 C38_2 1_555 1_555
F5_2 C34_2 1_555 1_555
F6_2 C35_2 1_555 1_555
C3_2 C4_2 1_555 1_555
C8_2 C9_4 1_555 1_555
C32_2 C33_2 1_555 1_555
C35_2 C36_2 1_555 1_555
C10_2 C16_2 1_555 1_555
C11_2 H6_2 1_555 1_555
C12_3 C11_2 1_555 1_555
H7_3 C12_3 1_555 1_555
C13_3 C12_3 1_555 1_555
C14_2 C13_3 1_555 1_555
H8_2 C14_2 1_555 1_555
C15_2 C14_2 1_555 1_555
H9_2 C15_2 1_555 1_555
C16_2 C11_2 1_555 1_555
C22_3 H14_3 1_555 1_555
C23_3 C22_3 1_555 1_555
C24_3 C23_3 1_555 1_555
C25_3 C24_3 1_555 1_555
H16_3 C25_3 1_555 1_555
C26_3 C25_3 1_555 1_555
H17_2 C26_3 1_555 1_555
C27_3 C13_3 1_555 1_555
O2_2 C10_2 1_555 1_555
C15_2 C16_2 1_555 1_555
C22_3 C27_3 1_555 1_555
C26_3 C27_3 1_555 1_555
C10_3 C16_3 1_555 1_555
C11_3 H6_3 1_555 1_555
C12_4 C11_3 1_555 1_555
H7_4 C12_4 1_555 1_555
C13_4 C12_4 1_555 1_555
C14_3 C13_4 1_555 1_555
H8_3 C14_3 1_555 1_555
C15_3 C14_3 1_555 1_555
H9_3 C15_3 1_555 1_555
C16_3 C11_3 1_555 1_555
C22_4 H14_4 1_555 1_555
C23_4 C22_4 1_555 1_555
C24_4 C23_4 1_555 1_555
C25_4 C24_4 1_555 1_555
H16_4 C25_4 1_555 1_555
C26_4 C25_4 1_555 1_555
H17_3 C26_4 1_555 1_555
C27_4 C13_4 1_555 1_555
O2_3 C10_3 1_555 1_555
C15_3 C16_3 1_555 1_555
C22_4 C27_4 1_555 1_555
C26_4 C27_4 1_555 1_555
O4_4 C39_4 1_555 1_555
S1_3 C1_3 1_555 1_555
C1_3 C2_3 1_555 1_555
C2_3 H1_3 1_555 1_555
C3_3 C2_3 1_555 1_555
C4_3 S1_3 1_555 1_555
C7_3 C1_3 1_555 1_555
N2_4 Zn3_2 1_555 1_555
C18_4 N2_4 1_555 1_555
H11_3 C18_4 1_555 1_555
C19_3 C18_4 1_555 1_555
H12_3 C19_3 1_555 1_555
C20_4 C19_3 1_555 1_555
C21_4 C17_4 1_555 1_555
H13_4 C21_4 1_555 1_555
C28_3 C29_3 1_555 1_555
C29_3 C30_4 1_555 1_555
C30_4 H18_5 1_555 1_555
C31_4 C20_4 1_555 1_555
S2_3 C28_3 1_555 1_555
C32_3 C29_3 1_555 1_555
C33_3 C3_3 1_555 1_555
C34_3 C33_3 1_555 1_555
C35_3 C34_3 1_555 1_555
C36_3 C32_3 1_555 1_555
F1_3 C36_3 1_555 1_555
F2_3 C36_3 1_555 1_555
F3_3 C35_3 1_555 1_555
F4_3 C34_3 1_555 1_555
C37_3 C4_3 1_555 1_555
H19_3 C37_3 1_555 1_555
H20_3 C37_3 1_555 1_555
H21_3 C37_3 1_555 1_555
C38_3 C28_3 1_555 1_555
H22_3 C38_3 1_555 1_555
H23_3 C38_3 1_555 1_555
H24_3 C38_3 1_555 1_555
F5_3 C34_3 1_555 1_555
F6_3 C35_3 1_555 1_555
N3_2 Zn3_2 1_555 1_555
C3_3 C4_3 1_555 1_555
C17_4 N2_4 1_555 1_555
C20_4 C21_4 1_555 1_555
C30_4 C31_4 1_555 1_555
C31_4 S2_3 1_555 1_555
C32_3 C33_3 1_555 1_555
C35_3 C36_3 1_555 1_555
H4_3 C8_3 1_555 1_555
C9_5 N3_2 1_555 1_555
H5_3 C9_5 1_555 1_555
C8_3 C9_5 1_555 1_555
H4_4 C8_4 1_555 1_555
H5_4 C9_6 1_555 1_555
C8_4 C9_6 1_555 1_555
C5_3 H2_3 1_555 1_555
C6_3 C5_3 1_555 1_555
H3_3 C6_3 1_555 1_555
H12_4 C19_4 1_555 1_555
S1_4 C1_4 1_555 1_555
C1_4 C2_4 1_555 1_555
C2_4 H1_4 1_555 1_555
C3_4 C2_4 1_555 1_555
C5_4 H2_4 1_555 1_555
C6_4 C5_4 1_555 1_555
H3_4 C6_4 1_555 1_555
C7_4 C1_4 1_555 1_555
C28_4 C29_4 1_555 1_555
C38_4 C28_4 1_555 1_555
H22_4 C38_4 1_555 1_555
H23_4 C38_4 1_555 1_555
H24_4 C38_4 1_555 1_555
C6_4 C7_4 1_555 1_555
O1_4 C10_4 1_555 1_555
C10_4 C16_4 1_555 1_555
C11_4 H6_4 1_555 1_555
H8_4 C14_4 1_555 1_555
C15_4 C14_4 1_555 1_555
H9_4 C15_4 1_555 1_555
C16_4 C11_4 1_555 1_555
O2_4 C10_4 1_555 1_555
C15_4 C16_4 1_555 1_555
C34_4 C33_4 1_555 1_555
C35_4 C34_4 1_555 1_555
C36_4 C32_4 1_555 1_555
F1_4 C36_4 1_555 1_555
F2_4 C36_4 1_555 1_555
F3_4 C35_4 1_555 1_555
F4_4 C34_4 1_555 1_555
C37_4 C4_4 1_555 1_555
H19_4 C37_4 1_555 1_555
H20_4 C37_4 1_555 1_555
H21_4 C37_4 1_555 1_555
F5_4 C34_4 1_555 1_555
F6_4 C35_4 1_555 1_555
C32_4 C33_4 1_555 1_555
C35_4 C36_4 1_555 1_555

#END
