
###############################################################################
#
# This file contains modified crystal structure data generated from the
# MOF subset of the Cambridge Structural Database (CSD) v543 
# hosted by the Cambridge Crystallographic Data Centre (CCDC).
#
# This work is licensed under the Creative Commons
# Attribution-NonCommercial-ShareAlike 4.0 International License.
# To view a copy of this license, visit
# http://creativecommons.org/licenses/by-nc-sa/4.0/
# or send a letter to
# Creative Commons, PO Box 1866, Mountain View, CA 94042, USA.
#
# CIF created using the CSD Python API on 29 September 2022
# The structure has been converted into the P1 space group
# The structure has a 3D framework
# The original CSD entry YOLTUQ is in the triclinic crystal system
# The framework has been calculated to contain at least 10.0% void space
# The void calculation uses a probe of radius 1.32A, grid spacing 0.4
#
###############################################################################

data_YOLTUQ
_chemical_formula_moiety         '(C36 H40 N4 Ni5 O14 P4)n'
_symmetry_cell_setting           triclinic
_symmetry_space_group_name_H-M   'P 1'
_symmetry_Int_Tables_number      1
_space_group_name_Hall           'P 1'
loop_
_symmetry_equiv_pos_site_id
_symmetry_equiv_pos_as_xyz
1 x,y,z
_cell_length_a                   10.3111(16)
_cell_length_b                   10.7447(17)
_cell_length_c                   11.805(2)
_cell_angle_alpha                71.192(4)
_cell_angle_beta                 65.659(4)
_cell_angle_gamma                83.226(4)
_cell_volume                     1127.82
loop_
_atom_site_label
_atom_site_type_symbol
_atom_site_fract_x
_atom_site_fract_y
_atom_site_fract_z
Ni2 Ni -0.0000 0.0000 0.5000
O2 O 0.1298(4) 0.1490(3) 0.4661(3)
H2 H 0.0916 0.2200 0.4804
H3 H 0.2043 0.1799 0.3983
Ni4 Ni -0.0000 0.5000 0.5000
Ni2_2 Ni -0.0000 1.0000 0.5000
O15 O 0.1781(3) 0.9044(3) 0.4148(3)
N5 N 0.0096(5) 0.9161(4) 0.6847(4)
C31 C 0.1071(6) 0.1678(6) 0.0840(6)
H33 H 0.1921 0.1807 0.0104
C32 C 0.1068(7) 0.1083(6) 0.2057(6)
H34 H 0.1937 0.0835 0.2118
Ni2_3 Ni 1.0000 0.0000 0.5000
O1 O 0.3430(4) 0.3161(3) 0.2550(3)
H1 H 0.4180 0.3212 0.1911
O3 O 0.3767(4) 0.5589(3) 0.2096(3)
O4 O 0.1972(3) 0.4191(3) 0.4258(3)
O5 O 0.8219(3) 0.0956(3) 0.5852(3)
O6 O 0.7133(4) 0.2309(3) 0.7310(3)
H4 H 0.6904 0.3053 0.7357
O7 O 0.9125(3) 0.3301(3) 0.5094(3)
N1 N 0.0055(4) 0.5924(4) 0.3111(4)
P1 P 0.33976(14) 0.42937(14) 0.31602(13)
P2 P 0.78745(15) 0.23527(14) 0.58385(13)
C1 C 0.4726(6) 0.3845(5) 0.3832(5)
C2 C 0.6000(5) 0.4519(5) 0.3400(5)
C3 C 0.6868(5) 0.4037(5) 0.4077(5)
H5 H 0.7705 0.4502 0.3801
C4 C 0.6578(5) 0.2916(5) 0.5132(5)
C5 C 0.5305(6) 0.2216(5) 0.5568(6)
C6 C 0.4423(6) 0.2706(5) 0.4919(6)
H6 H 0.3571 0.2256 0.5217
C7 C 0.6517(6) 0.5706(6) 0.2229(6)
H7 H 0.5838 0.6395 0.2345
H8 H 0.6628 0.5487 0.1468
H9 H 0.7417 0.5997 0.2123
C8 C 0.4875(7) 0.0948(6) 0.6717(6)
H10 H 0.4885 0.1102 0.7470
H11 H 0.5536 0.0270 0.6496
H12 H 0.3936 0.0676 0.6903
C11 C 0.0183(6) 0.7227(5) 0.0605(5)
C17 C 0.0691(6) 0.5980(6) 0.0918(5)
H19 H 0.1099 0.5551 0.0285
C18 C 0.0600(6) 0.5364(5) 0.2165(5)
H20 H 0.0936 0.4512 0.2356
C27 C 0.0427(6) 0.2851(5) 0.7191(5)
H31 H 0.0809 0.2435 0.6546
C28 C 0.0383(6) 0.2189(6) 0.8405(5)
H32 H 0.0734 0.1341 0.8571
Ni4_2 Ni 1.0000 0.5000 0.5000
O17 O 0.0875(3) 0.6699(3) 0.4906(3)
N6 N 0.9904(5) 0.0839(4) 0.3153(4)
C12 C 0.0187(6) 0.7919(5) 0.9285(5)
C15 C 0.1319(6) 0.8784(6) 0.6981(5)
H17 H 0.2161 0.8964 0.6236
C16 C 0.1395(6) 0.8145(6) 0.8163(5)
H18 H 0.2269 0.7866 0.8200
Ni2_4 Ni 1.0000 1.0000 0.5000
O14 O 0.8702(4) 0.8510(3) 0.5339(3)
H39 H 0.9084 0.7800 0.5196
H40 H 0.7957 0.8201 0.6017
C30 C 0.9813(6) 0.2081(5) 0.0715(5)
C33 C 0.8681(6) 0.1216(6) 0.3019(5)
H35 H 0.7839 0.1036 0.3764
C34 C 0.8605(6) 0.1855(6) 0.1837(5)
H36 H 0.7731 0.2134 0.1800
C9 C 0.9573(6) 0.7149(5) 0.2809(5)
H13 H 0.9191 0.7565 0.3454
C10 C 0.9617(6) 0.7811(6) 0.1595(5)
H14 H 0.9266 0.8659 0.1429
O8 O 0.6570(4) 0.6839(3) 0.7450(3)
H21 H 0.5820 0.6788 0.8089
O9 O 0.6233(4) 0.4411(3) 0.7904(3)
O10 O 0.8028(3) 0.5809(3) 0.5742(3)
O12 O 0.2867(4) 0.7691(3) 0.2690(3)
H22 H 0.3096 0.6947 0.2643
N3 N 0.9945(4) 0.4076(4) 0.6889(4)
P3 P 0.66024(14) 0.57063(14) 0.68398(13)
P4 P 0.21255(15) 0.76473(14) 0.41615(13)
C19 C 0.5274(6) 0.6155(5) 0.6168(5)
C20 C 0.4000(5) 0.5481(5) 0.6600(5)
C21 C 0.3132(5) 0.5963(5) 0.5923(5)
H23 H 0.2295 0.5498 0.6199
C22 C 0.3422(5) 0.7084(5) 0.4868(5)
C23 C 0.4695(6) 0.7784(5) 0.4432(6)
C24 C 0.5577(6) 0.7294(5) 0.5081(6)
H24 H 0.6429 0.7744 0.4783
C25 C 0.3483(6) 0.4294(6) 0.7771(6)
H25 H 0.4162 0.3605 0.7655
H26 H 0.3372 0.4513 0.8532
H27 H 0.2583 0.4003 0.7877
C26 C 0.5125(7) 0.9052(6) 0.3283(6)
H28 H 0.5115 0.8898 0.2530
H29 H 0.4464 0.9730 0.3504
H30 H 0.6064 0.9324 0.3097
C29 C 0.9817(6) 0.2773(5) 0.9395(5)
C35 C 0.9309(6) 0.4020(6) 0.9082(5)
H37 H 0.8901 0.4449 0.9715
C36 C 0.9400(6) 0.4636(5) 0.7835(5)
H38 H 0.9064 0.5488 0.7644
C13 C 0.8929(6) 0.8322(6) 0.9160(6)
H15 H 0.8079 0.8193 0.9896
C14 C 0.8932(7) 0.8917(6) 0.7943(6)
H16 H 0.8063 0.9165 0.7882
loop_
_geom_bond_atom_site_label_1
_geom_bond_atom_site_label_2
_geom_bond_site_symmetry_1
_geom_bond_site_symmetry_2
Ni2 O2 1_555 1_555
O2 H2 1_555 1_555
H3 O2 1_555 1_555
O15 Ni2_2 1_555 1_555
N5 Ni2_2 1_555 1_555
H33 C31 1_555 1_555
C32 C31 1_555 1_555
H34 C32 1_555 1_555
Ni4 O4 1_555 1_555
O1 H1 1_555 1_555
O3 P1 1_555 1_555
O4 P1 1_555 1_555
O5 Ni2_3 1_555 1_555
O6 H4 1_555 1_555
O7 P2 1_555 1_555
N1 Ni4 1_555 1_555
P1 O1 1_555 1_555
P2 O5 1_555 1_555
C1 P1 1_555 1_555
C2 C1 1_555 1_555
C3 C2 1_555 1_555
H5 C3 1_555 1_555
C4 P2 1_555 1_555
C5 C4 1_555 1_555
C6 C1 1_555 1_555
H6 C6 1_555 1_555
C7 C2 1_555 1_555
H7 C7 1_555 1_555
H8 C7 1_555 1_555
H9 C7 1_555 1_555
C8 C5 1_555 1_555
H10 C8 1_555 1_555
H11 C8 1_555 1_555
H12 C8 1_555 1_555
C17 C11 1_555 1_555
H19 C17 1_555 1_555
C18 N1 1_555 1_555
H20 C18 1_555 1_555
H31 C27 1_555 1_555
C28 C27 1_555 1_555
H32 C28 1_555 1_555
Ni4_2 O7 1_555 1_555
O17 Ni4 1_555 1_555
N6 Ni2_3 1_555 1_555
O6 P2 1_555 1_555
C3 C4 1_555 1_555
C5 C6 1_555 1_555
C17 C18 1_555 1_555
C15 N5 1_555 1_555
H17 C15 1_555 1_555
C16 C12 1_555 1_555
H18 C16 1_555 1_555
C15 C16 1_555 1_555
O14 Ni2_4 1_555 1_555
H39 O14 1_555 1_555
H40 O14 1_555 1_555
C33 N6 1_555 1_555
H35 C33 1_555 1_555
C34 C30 1_555 1_555
H36 C34 1_555 1_555
C33 C34 1_555 1_555
H13 C9 1_555 1_555
C10 C9 1_555 1_555
H14 C10 1_555 1_555
O8 H21 1_555 1_555
O9 P3 1_555 1_555
O10 Ni4_2 1_555 1_555
O15 P4 1_555 1_555
O12 H22 1_555 1_555
O17 P4 1_555 1_555
N3 Ni4_2 1_555 1_555
P3 O8 1_555 1_555
P4 O12 1_555 1_555
C19 P3 1_555 1_555
C20 C19 1_555 1_555
C21 C20 1_555 1_555
H23 C21 1_555 1_555
C22 P4 1_555 1_555
C23 C22 1_555 1_555
C24 C19 1_555 1_555
H24 C24 1_555 1_555
C25 C20 1_555 1_555
H25 C25 1_555 1_555
H26 C25 1_555 1_555
H27 C25 1_555 1_555
C26 C23 1_555 1_555
H28 C26 1_555 1_555
H29 C26 1_555 1_555
H30 C26 1_555 1_555
C35 C29 1_555 1_555
H37 C35 1_555 1_555
C36 N3 1_555 1_555
H38 C36 1_555 1_555
O10 P3 1_555 1_555
C21 C22 1_555 1_555
C23 C24 1_555 1_555
C35 C36 1_555 1_555
H15 C13 1_555 1_555
C14 C13 1_555 1_555
H16 C14 1_555 1_555

#END
