
###############################################################################
#
# This file contains modified crystal structure data generated from the
# MOF subset of the Cambridge Structural Database (CSD) v543 
# hosted by the Cambridge Crystallographic Data Centre (CCDC).
#
# This work is licensed under the Creative Commons
# Attribution-NonCommercial-ShareAlike 4.0 International License.
# To view a copy of this license, visit
# http://creativecommons.org/licenses/by-nc-sa/4.0/
# or send a letter to
# Creative Commons, PO Box 1866, Mountain View, CA 94042, USA.
#
# CIF created using the CSD Python API on 29 September 2022
# The structure has been converted into the P1 space group
# The structure has a 3D framework
# The original CSD entry YOMBAE is in the monoclinic crystal system
# The framework has been calculated to contain at least 10.0% void space
# The void calculation uses a probe of radius 1.32A, grid spacing 0.4
# H atom positions have been added when not included in the experimental data
# Generated hydrogen atom positions removed from atoms on special positions
#
###############################################################################

data_YOMBAE
_chemical_formula_moiety         '(C80 H120 Cu8 Mo22 N16 O107 P8 8+)n'
_symmetry_cell_setting           triclinic
_symmetry_space_group_name_H-M   'P 1'
_symmetry_Int_Tables_number      1
_space_group_name_Hall           'P 1'
loop_
_symmetry_equiv_pos_site_id
_symmetry_equiv_pos_as_xyz
1 x,y,z
_cell_length_a                   17.667(3)
_cell_length_b                   13.669(3)
_cell_length_c                   25.067(5)
_cell_angle_alpha                90
_cell_angle_beta                 107.479(3)
_cell_angle_gamma                90
_cell_volume                     5773.93
loop_
_atom_site_label
_atom_site_type_symbol
_atom_site_fract_x
_atom_site_fract_y
_atom_site_fract_z
Cu2 Cu 0.5000 -0.0000 0.0000
Cu2_2 Cu 0.5000 -0.0000 1.0000
Mo1 Mo 0.08136(5) 0.49569(7) 0.17231(4)
Mo2 Mo -0.0000 0.35247(11) 0.2500
Cu1 Cu 0.0000 0.5000 0.0000
P1 P 0.09439(16) 0.5688(2) 0.30899(12)
O1 O 0.0898(4) 0.4855(5) 0.2672(3)
O2 O 0.0110(5) 0.3940(6) 0.1802(3)
O3 O 0.0117(4) 0.5935(5) 0.3139(3)
O4 O 0.1281(4) 0.6256(6) 0.1886(3)
O5 O 0.0459(4) 0.5041(5) 0.1003(3)
O6 O 0.1684(5) 0.4337(6) 0.1842(3)
O7 O 0.0789(6) 0.2751(7) 0.2735(4)
O8 O 0.1303(4) 0.6592(6) 0.2924(3)
O9 O -0.0000 0.7714(8) 0.2500
O12 O 0.1430(4) 0.5347(7) 0.3688(3)
H1 H 0.1888 0.5226 0.3695
N2 N 0.0868(5) 0.3996(7) 0.0028(4)
C4 C 0.1889(9) 0.7097(10) 0.0463(6)
H4 H 0.2165 0.7405 0.0795
C5 C 0.1244(8) 0.6551(10) 0.0447(6)
H5 H 0.1086 0.6514 0.0769
C8 C 0.2158(7) 0.2792(9) 0.0001(5)
C9 C 0.2165(7) 0.3357(10) 0.0469(5)
H8 H 0.2604 0.3333 0.0786
C10 C 0.1524(7) 0.3955(10) 0.0466(5)
H9 H 0.1553 0.4337 0.0778
Mo5 Mo 0.07060(6) 0.73312(7) 0.20896(5)
Cu2_3 Cu 0.5000 1.0000 0.0000
Cu4 Cu -0.0000 0.5000 0.5000
O22 O 0.0192(5) 0.7780(6) 0.1449(4)
O23 O 0.1457(5) 0.8158(6) 0.2297(4)
N3 N 0.4178(5) 0.8940(6) 0.0009(4)
C11 C 0.3948(8) 0.8821(11) 0.0463(5)
H11 H 0.4238 0.9131 0.0791
C12 C 0.3319(8) 0.8275(11) 0.0474(6)
H12 H 0.3195 0.8222 0.0808
C13 C 0.2848(6) 0.7788(8) 0.0006(5)
C16 C 0.4147(7) 0.1552(10) 0.0416(5)
H15 H 0.4593 0.1521 0.0728
C17 C 0.3538(7) 0.2157(10) 0.0430(5)
H16 H 0.3596 0.2548 0.0744
Cu1_2 Cu 0.0000 0.5000 1.0000
N1 N 0.0822(5) 0.6060(6) 0.9991(4)
C1 C 0.1052(8) 0.6179(11) 0.9537(5)
H2 H 0.0762 0.5869 0.9209
C2 C 0.1681(8) 0.6725(11) 0.9526(6)
H3 H 0.1805 0.6778 0.9192
C3 C 0.2152(6) 0.7212(8) 0.9994(5)
C6 C 0.0853(7) 0.3448(10) 0.9584(5)
H6 H 0.0407 0.3479 0.9272
C7 C 0.1462(7) 0.2843(10) 0.9570(5)
H7 H 0.1404 0.2452 0.9256
Cu2_4 Cu 0.5000 1.0000 1.0000
N5 N 0.4132(5) 0.1004(7) 0.9972(4)
C14 C 0.3111(9) 0.7903(10) 0.9537(6)
H13 H 0.2835 0.7595 0.9205
C15 C 0.3756(8) 0.8449(10) 0.9553(6)
H14 H 0.3914 0.8486 0.9231
C18 C 0.2842(7) 0.2208(9) 0.9999(5)
C19 C 0.2835(7) 0.1643(10) 0.9531(5)
H17 H 0.2396 0.1667 0.9214
C20 C 0.3476(7) 0.1045(10) 0.9534(5)
H18 H 0.3447 0.0663 0.9222
Mo2_2 Mo 1.0000 0.35247(11) 0.2500
Mo3 Mo 0.92940(6) 0.73312(7) 0.29104(5)
Cu1_3 Cu 1.0000 0.5000 0.0000
O9_2 O 1.0000 0.7714(8) 0.2500
O10 O 0.9808(5) 0.7780(6) 0.3551(4)
O11 O 0.8543(5) 0.8158(6) 0.2703(4)
Mo4 Mo 0.91864(5) 0.49569(7) 0.32769(4)
Cu4_2 Cu 1.0000 0.5000 0.5000
P2 P 0.90561(16) 0.5688(2) 0.19101(12)
O13 O 0.9102(4) 0.4855(5) 0.2328(3)
O14 O 0.9890(5) 0.3940(6) 0.3198(3)
O15 O 0.9883(4) 0.5935(5) 0.1861(3)
O16 O 0.8719(4) 0.6256(6) 0.3114(3)
O17 O 0.9541(4) 0.5041(5) 0.3997(3)
O19 O 0.8316(5) 0.4337(6) 0.3158(3)
O20 O 0.9211(6) 0.2751(7) 0.2265(4)
O21 O 0.8697(4) 0.6592(6) 0.2076(3)
O24 O 0.8570(4) 0.5347(7) 0.1312(3)
H10 H 0.8112 0.5226 0.1305
N4 N 0.9178(5) 0.3940(6) 0.0009(4)
Cu1_4 Cu 1.0000 0.5000 1.0000
O18 O 0.9541(4) 0.4959(5) 0.8997(3)
N6 N 0.9132(5) 0.6004(7) 0.9972(4)
Mo3_2 Mo 0.42940(6) 0.23312(7) 0.29104(5)
P1_2 P 0.59439(16) 0.0688(2) 0.30899(12)
O3_2 O 0.5117(4) 0.0935(5) 0.3139(3)
O4_2 O 0.6281(4) 0.1256(6) 0.1886(3)
O5_2 O 0.5459(4) 0.0041(5) 0.1003(3)
O8_2 O 0.6303(4) 0.1592(6) 0.2924(3)
O9_3 O 0.5000 0.2714(8) 0.2500
O10_2 O 0.4808(5) 0.2780(6) 0.3551(4)
O11_2 O 0.3543(5) 0.3158(6) 0.2703(4)
O12_2 O 0.6430(4) 0.0347(7) 0.3688(3)
H1_2 H 0.6888 0.0226 0.3695
C4_2 C 0.6889(9) 0.2097(10) 0.0463(6)
H4_2 H 0.7165 0.2405 0.0795
C5_2 C 0.6244(8) 0.1551(10) 0.0447(6)
H5_2 H 0.6086 0.1514 0.0769
Mo5_2 Mo 0.57060(6) 0.23312(7) 0.20896(5)
Cu4_3 Cu 0.5000 -0.0000 0.5000
P2_2 P 0.40561(16) 0.0688(2) 0.19101(12)
O15_2 O 0.4883(4) 0.0935(5) 0.1861(3)
O16_2 O 0.3719(4) 0.1256(6) 0.3114(3)
O17_2 O 0.4541(4) 0.0041(5) 0.3997(3)
O21_2 O 0.3697(4) 0.1592(6) 0.2076(3)
O22_2 O 0.5192(5) 0.2780(6) 0.1449(4)
O23_2 O 0.6457(5) 0.3158(6) 0.2297(4)
O24_2 O 0.3570(4) 0.0347(7) 0.1312(3)
H10_2 H 0.3112 0.0226 0.1305
C11_2 C 0.8948(8) 0.3821(11) 0.0463(5)
H11_2 H 0.9238 0.4131 0.0791
C12_2 C 0.8319(8) 0.3275(11) 0.0474(6)
H12_2 H 0.8195 0.3222 0.0808
C13_2 C 0.7848(6) 0.2788(8) 0.0006(5)
N1_2 N 0.5822(5) 0.1060(6) 0.9991(4)
C1_2 C 0.6052(8) 0.1179(11) 0.9537(5)
H2_2 H 0.5762 0.0869 0.9209
C2_2 C 0.6681(8) 0.1725(11) 0.9526(6)
H3_2 H 0.6805 0.1778 0.9192
C3_2 C 0.7152(6) 0.2212(8) 0.9994(5)
C14_2 C 0.8111(9) 0.2903(10) 0.9537(6)
H13_2 H 0.7835 0.2595 0.9205
C15_2 C 0.8756(8) 0.3449(10) 0.9553(6)
H14_2 H 0.8914 0.3486 0.9231
Mo1_2 Mo 0.58136(5) 0.99569(7) 0.17231(4)
Mo2_3 Mo 0.5000 0.85247(11) 0.2500
O1_2 O 0.5898(4) 0.9855(5) 0.2672(3)
O2_2 O 0.5110(5) 0.8940(6) 0.1802(3)
O6_2 O 0.6684(5) 0.9337(6) 0.1842(3)
O7_2 O 0.5789(6) 0.7751(7) 0.2735(4)
N2_2 N 0.5868(5) 0.8996(7) 0.0028(4)
C8_2 C 0.7158(7) 0.7792(9) 0.0001(5)
C9_2 C 0.7165(7) 0.8357(10) 0.0469(5)
H8_2 H 0.7604 0.8333 0.0786
C10_2 C 0.6524(7) 0.8955(10) 0.0466(5)
H9_2 H 0.6553 0.9337 0.0778
Mo4_2 Mo 0.41864(5) 0.99569(7) 0.32769(4)
Cu4_4 Cu 0.5000 1.0000 0.5000
O13_2 O 0.4102(4) 0.9855(5) 0.2328(3)
O14_2 O 0.4890(5) 0.8940(6) 0.3198(3)
O19_2 O 0.3316(5) 0.9337(6) 0.3158(3)
O20_2 O 0.4211(6) 0.7751(7) 0.2265(4)
C16_2 C 0.9147(7) 0.6552(10) 0.0416(5)
H15_2 H 0.9593 0.6521 0.0728
C17_2 C 0.8538(7) 0.7157(10) 0.0430(5)
H16_2 H 0.8596 0.7548 0.0744
C6_2 C 0.5853(7) 0.8448(10) 0.9584(5)
H6_2 H 0.5407 0.8479 0.9272
C7_2 C 0.6462(7) 0.7843(10) 0.9570(5)
H7_2 H 0.6404 0.7452 0.9256
O18_2 O 0.4541(4) 0.9959(5) 0.8997(3)
C18_2 C 0.7842(7) 0.7208(9) 0.9999(5)
C19_2 C 0.7835(7) 0.6643(10) 0.9531(5)
H17_2 H 0.7396 0.6667 0.9214
C20_2 C 0.8476(7) 0.6045(10) 0.9534(5)
H18_2 H 0.8447 0.5663 0.9222
O18_3 O 0.0459(4) 0.4959(5) 0.6003(3)
N4_2 N 0.0822(5) 0.3940(6) 0.4991(4)
N6_2 N 0.0868(5) 0.6004(7) 0.5028(4)
N1_3 N 0.9178(5) 0.6060(6) 0.5009(4)
N2_3 N 0.9132(5) 0.3996(7) 0.4972(4)
C1_3 C 0.8948(8) 0.6179(11) 0.5463(5)
H2_3 H 0.9238 0.5869 0.5791
C2_3 C 0.8319(8) 0.6725(11) 0.5474(6)
H3_3 H 0.8195 0.6778 0.5808
C3_3 C 0.7848(6) 0.7212(8) 0.5006(5)
C4_3 C 0.8111(9) 0.7097(10) 0.4537(6)
H4_3 H 0.7835 0.7405 0.4205
C5_3 C 0.8756(8) 0.6551(10) 0.4553(6)
H5_3 H 0.8914 0.6514 0.4231
C6_3 C 0.9147(7) 0.3448(10) 0.5416(5)
H6_3 H 0.9593 0.3479 0.5728
C7_3 C 0.8538(7) 0.2843(10) 0.5430(5)
H7_3 H 0.8596 0.2452 0.5744
C8_3 C 0.7842(7) 0.2792(9) 0.4999(5)
C9_3 C 0.7835(7) 0.3357(10) 0.4531(5)
H8_3 H 0.7396 0.3333 0.4214
C10_3 C 0.8476(7) 0.3955(10) 0.4534(5)
H9_3 H 0.8447 0.4337 0.4222
N3_2 N 0.5822(5) 0.8940(6) 0.4991(4)
N5_2 N 0.5868(5) 0.1004(7) 0.5028(4)
C11_3 C 0.6052(8) 0.8821(11) 0.4537(5)
H11_3 H 0.5762 0.9131 0.4209
C12_3 C 0.6681(8) 0.8275(11) 0.4526(6)
H12_3 H 0.6805 0.8222 0.4192
C13_3 C 0.7152(6) 0.7788(8) 0.4994(5)
C14_3 C 0.6889(9) 0.7903(10) 0.5463(6)
H13_3 H 0.7165 0.7595 0.5795
C15_3 C 0.6244(8) 0.8449(10) 0.5447(6)
H14_3 H 0.6086 0.8486 0.5769
C16_3 C 0.5853(7) 0.1552(10) 0.4584(5)
H15_3 H 0.5407 0.1521 0.4272
C17_3 C 0.6462(7) 0.2157(10) 0.4570(5)
H16_3 H 0.6404 0.2548 0.4256
C18_3 C 0.7158(7) 0.2208(9) 0.5001(5)
C19_3 C 0.7165(7) 0.1643(10) 0.5469(5)
H17_3 H 0.7604 0.1667 0.5786
C20_3 C 0.6524(7) 0.1045(10) 0.5466(5)
H18_3 H 0.6553 0.0663 0.5778
N1_4 N 0.4178(5) 0.1060(6) 0.5009(4)
C1_4 C 0.3948(8) 0.1179(11) 0.5463(5)
H2_4 H 0.4238 0.0869 0.5791
C2_4 C 0.3319(8) 0.1725(11) 0.5474(6)
H3_4 H 0.3195 0.1778 0.5808
C3_4 C 0.2848(6) 0.2212(8) 0.5006(5)
C4_4 C 0.3111(9) 0.2097(10) 0.4537(6)
H4_4 H 0.2835 0.2405 0.4205
C5_4 C 0.3756(8) 0.1551(10) 0.4553(6)
H5_4 H 0.3914 0.1514 0.4231
C11_4 C 0.1052(8) 0.3821(11) 0.4537(5)
H11_4 H 0.0762 0.4131 0.4209
C12_4 C 0.1681(8) 0.3275(11) 0.4526(6)
H12_4 H 0.1805 0.3222 0.4192
C13_4 C 0.2152(6) 0.2788(8) 0.4994(5)
C14_4 C 0.1889(9) 0.2903(10) 0.5463(6)
H13_4 H 0.2165 0.2595 0.5795
C15_4 C 0.1244(8) 0.3449(10) 0.5447(6)
H14_4 H 0.1086 0.3486 0.5769
N2_4 N 0.4132(5) 0.8996(7) 0.4972(4)
C6_4 C 0.4147(7) 0.8448(10) 0.5416(5)
H6_4 H 0.4593 0.8479 0.5728
C7_4 C 0.3538(7) 0.7843(10) 0.5430(5)
H7_4 H 0.3596 0.7452 0.5744
C8_4 C 0.2842(7) 0.7792(9) 0.4999(5)
C9_4 C 0.2835(7) 0.8357(10) 0.4531(5)
H8_4 H 0.2396 0.8333 0.4214
C10_4 C 0.3476(7) 0.8955(10) 0.4534(5)
H9_4 H 0.3447 0.9337 0.4222
O18_4 O 0.5459(4) 0.9959(5) 0.6003(3)
C16_4 C 0.0853(7) 0.6552(10) 0.4584(5)
H15_4 H 0.0407 0.6521 0.4272
C17_4 C 0.1462(7) 0.7157(10) 0.4570(5)
H16_4 H 0.1404 0.7548 0.4256
C18_4 C 0.2158(7) 0.7208(9) 0.5001(5)
C19_4 C 0.2165(7) 0.6643(10) 0.5469(5)
H17_4 H 0.2604 0.6667 0.5786
C20_4 C 0.1524(7) 0.6045(10) 0.5466(5)
H18_4 H 0.1553 0.5663 0.5778
Mo2_4 Mo 0.0000 0.64753(11) 0.7500
Mo3_3 Mo 0.07060(6) 0.26688(7) 0.70896(5)
O9_4 O 0.0000 0.2286(8) 0.7500
O10_3 O 0.0192(5) 0.2220(6) 0.6449(4)
O11_3 O 0.1457(5) 0.1842(6) 0.7297(4)
Mo4_3 Mo 0.08136(5) 0.50431(7) 0.67231(4)
P2_3 P 0.09439(16) 0.4312(2) 0.80899(12)
O13_3 O 0.0898(4) 0.5145(5) 0.7672(3)
O14_3 O 0.0110(5) 0.6060(6) 0.6802(3)
O15_3 O 0.0117(4) 0.4065(5) 0.8139(3)
O16_3 O 0.1281(4) 0.3744(6) 0.6886(3)
O19_3 O 0.1684(5) 0.5663(6) 0.6842(3)
O20_3 O 0.0789(6) 0.7249(7) 0.7735(4)
O21_3 O 0.1303(4) 0.3408(6) 0.7924(3)
O24_3 O 0.1430(4) 0.4653(7) 0.8688(3)
H10_3 H 0.1888 0.4774 0.8695
Mo1_3 Mo 0.91864(5) 0.50431(7) 0.82769(4)
Mo2_5 Mo 1.0000 0.64753(11) 0.7500
P1_3 P 0.90561(16) 0.4312(2) 0.69101(12)
O1_3 O 0.9102(4) 0.5145(5) 0.7328(3)
O2_3 O 0.9890(5) 0.6060(6) 0.8198(3)
O3_3 O 0.9883(4) 0.4065(5) 0.6861(3)
O4_3 O 0.8719(4) 0.3744(6) 0.8114(3)
O6_3 O 0.8316(5) 0.5663(6) 0.8158(3)
O7_3 O 0.9211(6) 0.7249(7) 0.7265(4)
O8_3 O 0.8697(4) 0.3408(6) 0.7076(3)
O9_5 O 1.0000 0.2286(8) 0.7500
O12_3 O 0.8570(4) 0.4653(7) 0.6312(3)
H1_3 H 0.8112 0.4774 0.6305
Mo5_3 Mo 0.92940(6) 0.26688(7) 0.79104(5)
O22_3 O 0.9808(5) 0.2220(6) 0.8551(4)
O23_3 O 0.8543(5) 0.1842(6) 0.7703(4)
Mo1_4 Mo 0.41864(5) 0.00431(7) 0.82769(4)
Mo2_6 Mo 0.5000 0.14753(11) 0.7500
O1_4 O 0.4102(4) 0.0145(5) 0.7328(3)
O2_4 O 0.4890(5) 0.1060(6) 0.8198(3)
O6_4 O 0.3316(5) 0.0663(6) 0.8158(3)
O7_4 O 0.4211(6) 0.2249(7) 0.7265(4)
Mo4_4 Mo 0.58136(5) 0.00431(7) 0.67231(4)
O13_4 O 0.5898(4) 0.0145(5) 0.7672(3)
O14_4 O 0.5110(5) 0.1060(6) 0.6802(3)
O19_4 O 0.6684(5) 0.0663(6) 0.6842(3)
O20_4 O 0.5789(6) 0.2249(7) 0.7735(4)
Mo3_4 Mo 0.57060(6) 0.76688(7) 0.70896(5)
P1_4 P 0.40561(16) 0.9312(2) 0.69101(12)
O3_4 O 0.4883(4) 0.9065(5) 0.6861(3)
O4_4 O 0.3719(4) 0.8744(6) 0.8114(3)
O8_4 O 0.3697(4) 0.8408(6) 0.7076(3)
O9_6 O 0.5000 0.7286(8) 0.7500
O10_4 O 0.5192(5) 0.7220(6) 0.6449(4)
O11_4 O 0.6457(5) 0.6842(6) 0.7297(4)
O12_4 O 0.3570(4) 0.9653(7) 0.6312(3)
H1_4 H 0.3112 0.9774 0.6305
Mo5_4 Mo 0.42940(6) 0.76688(7) 0.79104(5)
P2_4 P 0.59439(16) 0.9312(2) 0.80899(12)
O15_4 O 0.5117(4) 0.9065(5) 0.8139(3)
O16_4 O 0.6281(4) 0.8744(6) 0.6886(3)
O21_4 O 0.6303(4) 0.8408(6) 0.7924(3)
O22_4 O 0.4808(5) 0.7220(6) 0.8551(4)
O23_4 O 0.3543(5) 0.6842(6) 0.7703(4)
O24_4 O 0.6430(4) 0.9653(7) 0.8688(3)
H10_4 H 0.6888 0.9774 0.8695
O25 O 0.3681(11) 0.6143(18) 0.6609(7)
O25_2 O 0.8681(11) 0.1143(18) 0.6609(7)
O25_3 O 0.6319(11) 0.6143(18) 0.8391(7)
O25_4 O 0.1319(11) 0.1143(18) 0.8391(7)
O25_5 O 0.6319(11) 0.3857(18) 0.3391(7)
O25_6 O 0.1319(11) 0.8857(18) 0.3391(7)
O25_7 O 0.3681(11) 0.3857(18) 0.1609(7)
O25_8 O 0.8681(11) 0.8857(18) 0.1609(7)
O26 O 0.2918(7) 0.4907(10) 0.3978(5)
H23 H 0.764721 0.0500153 0.378222
O26_2 O 0.7918(7) 0.9907(10) 0.3978(5)
H22 H 0.848006 0.9907 0.3978
H24 H 0.764721 0.931385 0.378222
O26_3 O 0.7082(7) 0.4907(10) 0.1022(5)
H23_2 H 0.235279 0.0500153 0.121778
O26_4 O 0.2082(7) 0.9907(10) 0.1022(5)
H22_2 H 0.151994 0.9907 0.1022
H24_2 H 0.235279 0.931385 0.121778
O26_5 O 0.7082(7) 0.5093(10) 0.6022(5)
O26_6 O 0.2082(7) 0.0093(10) 0.6022(5)
H22_3 H 0.151994 0.0093 0.6022
H24_3 H 0.235279 0.0686153 0.621778
H23_3 H 0.235279 0.949985 0.621778
O26_7 O 0.2918(7) 0.5093(10) 0.8978(5)
O26_8 O 0.7918(7) 0.0093(10) 0.8978(5)
H22_4 H 0.848006 0.0093 0.8978
H24_4 H 0.764721 0.0686153 0.878222
H23_4 H 0.764721 0.949985 0.878222
loop_
_geom_bond_atom_site_label_1
_geom_bond_atom_site_label_2
_geom_bond_site_symmetry_1
_geom_bond_site_symmetry_2
Mo1 O1 1_555 1_555
Mo2 O1 1_555 1_555
Cu1 O5 1_555 1_555
P1 O1 1_555 1_555
O2 Mo1 1_555 1_555
O3 P1 1_555 1_555
O4 Mo1 1_555 1_555
O5 Mo1 1_555 1_555
O6 Mo1 1_555 1_555
O7 Mo2 1_555 1_555
O8 P1 1_555 1_555
O12 P1 1_555 1_555
H1 O12 1_555 1_555
N2 Cu1 1_555 1_555
H4 C4 1_555 1_555
H5 C5 1_555 1_555
C9 C8 1_555 1_555
H8 C9 1_555 1_555
C10 N2 1_555 1_555
H9 C10 1_555 1_555
Mo5 O4 1_555 1_555
Cu2_3 N3 1_555 1_555
O22 Mo5 1_555 1_555
O23 Mo5 1_555 1_555
N3 C11 1_555 1_555
C11 H11 1_555 1_555
C12 C11 1_555 1_555
H12 C12 1_555 1_555
C16 H15 1_555 1_555
C17 C16 1_555 1_555
H16 C17 1_555 1_555
Mo2 O2 1_555 1_555
O8 Mo5 1_555 1_555
O9 Mo5 1_555 1_555
C4 C5 1_555 1_555
C9 C10 1_555 1_555
C12 C13 1_555 1_555
N1 Cu1_2 1_555 1_555
C1 N1 1_555 1_555
H2 C1 1_555 1_555
C2 C1 1_555 1_555
H3 C2 1_555 1_555
C3 C2 1_555 1_555
H6 C6 1_555 1_555
C7 C6 1_555 1_555
H7 C7 1_555 1_555
Cu2_2 N5 1_555 1_555
H13 C14 1_555 1_555
H14 C15 1_555 1_555
C19 C18 1_555 1_555
H17 C19 1_555 1_555
C20 N5 1_555 1_555
H18 C20 1_555 1_555
C14 C15 1_555 1_555
C19 C20 1_555 1_555
O9_2 Mo3 1_555 1_555
O10 Mo3 1_555 1_555
O11 Mo3 1_555 1_555
Cu4_2 O17 1_555 1_555
P2 O13 1_555 1_555
O13 Mo2_2 1_555 1_555
O14 Mo2_2 1_555 1_555
O16 Mo3 1_555 1_555
O17 Mo4 1_555 1_555
O19 Mo4 1_555 1_555
O20 Mo2_2 1_555 1_555
O21 Mo3 1_555 1_555
O24 P2 1_555 1_555
H10 O24 1_555 1_555
N4 Cu1_3 1_555 1_555
Mo4 O13 1_555 1_555
Mo4 O14 1_555 1_555
Mo4 O16 1_555 1_555
P2 O15 1_555 1_555
P2 O21 1_555 1_555
O18 Cu1_4 1_555 1_555
N6 Cu1_4 1_555 1_555
Mo3_2 O3_2 1_555 1_555
Cu2 O5_2 1_555 1_555
O3_2 P1_2 1_555 1_555
O8_2 P1_2 1_555 1_555
O9_3 Mo3_2 1_555 1_555
O10_2 Mo3_2 1_555 1_555
O11_2 Mo3_2 1_555 1_555
O12_2 P1_2 1_555 1_555
H1_2 O12_2 1_555 1_555
H4_2 C4_2 1_555 1_555
H5_2 C5_2 1_555 1_555
Mo5_2 O4_2 1_555 1_555
Cu4_3 O17_2 1_555 1_555
O16_2 Mo3_2 1_555 1_555
O21_2 Mo3_2 1_555 1_555
O22_2 Mo5_2 1_555 1_555
O23_2 Mo5_2 1_555 1_555
O24_2 P2_2 1_555 1_555
H10_2 O24_2 1_555 1_555
N4 C11_2 1_555 1_555
C11_2 H11_2 1_555 1_555
C12_2 C11_2 1_555 1_555
H12_2 C12_2 1_555 1_555
O8_2 Mo5_2 1_555 1_555
O9_3 Mo5_2 1_555 1_555
C4_2 C5_2 1_555 1_555
Mo5_2 O15_2 1_555 1_555
P2_2 O15_2 1_555 1_555
P2_2 O21_2 1_555 1_555
C12_2 C13_2 1_555 1_555
N1_2 Cu2_2 1_555 1_555
C1_2 N1_2 1_555 1_555
H2_2 C1_2 1_555 1_555
C2_2 C1_2 1_555 1_555
H3_2 C2_2 1_555 1_555
C3_2 C2_2 1_555 1_555
H13_2 C14_2 1_555 1_555
H14_2 C15_2 1_555 1_555
C14_2 C15_2 1_555 1_555
Mo1_2 O1_2 1_555 1_555
Mo2_3 O1_2 1_555 1_555
O2_2 Mo1_2 1_555 1_555
O6_2 Mo1_2 1_555 1_555
O7_2 Mo2_3 1_555 1_555
N2_2 Cu2_3 1_555 1_555
C9_2 C8_2 1_555 1_555
H8_2 C9_2 1_555 1_555
C10_2 N2_2 1_555 1_555
H9_2 C10_2 1_555 1_555
O13_2 Mo2_3 1_555 1_555
O14_2 Mo2_3 1_555 1_555
O19_2 Mo4_2 1_555 1_555
O20_2 Mo2_3 1_555 1_555
C16_2 H15_2 1_555 1_555
C17_2 C16_2 1_555 1_555
H16_2 C17_2 1_555 1_555
Mo2_3 O2_2 1_555 1_555
C9_2 C10_2 1_555 1_555
Mo4_2 O13_2 1_555 1_555
Mo4_2 O14_2 1_555 1_555
H6_2 C6_2 1_555 1_555
C7_2 C6_2 1_555 1_555
H7_2 C7_2 1_555 1_555
O18_2 Cu2_4 1_555 1_555
C19_2 C18_2 1_555 1_555
H17_2 C19_2 1_555 1_555
C20_2 N6 1_555 1_555
H18_2 C20_2 1_555 1_555
C19_2 C20_2 1_555 1_555
O18_3 Cu4 1_555 1_555
N4_2 Cu4 1_555 1_555
N6_2 Cu4 1_555 1_555
N1_3 Cu4_2 1_555 1_555
N2_3 Cu4_2 1_555 1_555
C1_3 N1_3 1_555 1_555
H2_3 C1_3 1_555 1_555
C2_3 C1_3 1_555 1_555
H3_3 C2_3 1_555 1_555
C3_3 C2_3 1_555 1_555
C4_3 C3_3 1_555 1_555
H4_3 C4_3 1_555 1_555
C5_3 N1_3 1_555 1_555
H5_3 C5_3 1_555 1_555
C6_3 N2_3 1_555 1_555
H6_3 C6_3 1_555 1_555
C7_3 C6_3 1_555 1_555
H7_3 C7_3 1_555 1_555
C8_3 C7_3 1_555 1_555
C9_3 C8_3 1_555 1_555
H8_3 C9_3 1_555 1_555
C10_3 N2_3 1_555 1_555
H9_3 C10_3 1_555 1_555
Cu4_4 N3_2 1_555 1_555
Cu4_3 N5_2 1_555 1_555
N3_2 C11_3 1_555 1_555
N5_2 C16_3 1_555 1_555
C11_3 H11_3 1_555 1_555
C12_3 C11_3 1_555 1_555
H12_3 C12_3 1_555 1_555
C13_3 C3_3 1_555 1_555
C14_3 C13_3 1_555 1_555
H13_3 C14_3 1_555 1_555
C15_3 N3_2 1_555 1_555
H14_3 C15_3 1_555 1_555
C16_3 H15_3 1_555 1_555
C17_3 C16_3 1_555 1_555
H16_3 C17_3 1_555 1_555
C18_3 C8_3 1_555 1_555
C19_3 C18_3 1_555 1_555
H17_3 C19_3 1_555 1_555
C20_3 N5_2 1_555 1_555
H18_3 C20_3 1_555 1_555
C4_3 C5_3 1_555 1_555
C9_3 C10_3 1_555 1_555
C12_3 C13_3 1_555 1_555
C14_3 C15_3 1_555 1_555
C17_3 C18_3 1_555 1_555
C19_3 C20_3 1_555 1_555
N1_4 Cu4_3 1_555 1_555
C1_4 N1_4 1_555 1_555
H2_4 C1_4 1_555 1_555
C2_4 C1_4 1_555 1_555
H3_4 C2_4 1_555 1_555
C3_4 C2_4 1_555 1_555
C4_4 C3_4 1_555 1_555
H4_4 C4_4 1_555 1_555
C5_4 N1_4 1_555 1_555
H5_4 C5_4 1_555 1_555
N4_2 C11_4 1_555 1_555
C11_4 H11_4 1_555 1_555
C12_4 C11_4 1_555 1_555
H12_4 C12_4 1_555 1_555
C13_4 C3_4 1_555 1_555
C14_4 C13_4 1_555 1_555
H13_4 C14_4 1_555 1_555
C15_4 N4_2 1_555 1_555
H14_4 C15_4 1_555 1_555
C4_4 C5_4 1_555 1_555
C12_4 C13_4 1_555 1_555
C14_4 C15_4 1_555 1_555
N2_4 Cu4_4 1_555 1_555
C6_4 N2_4 1_555 1_555
H6_4 C6_4 1_555 1_555
C7_4 C6_4 1_555 1_555
H7_4 C7_4 1_555 1_555
C8_4 C7_4 1_555 1_555
C9_4 C8_4 1_555 1_555
H8_4 C9_4 1_555 1_555
C10_4 N2_4 1_555 1_555
H9_4 C10_4 1_555 1_555
O18_4 Cu4_4 1_555 1_555
N6_2 C16_4 1_555 1_555
C16_4 H15_4 1_555 1_555
C17_4 C16_4 1_555 1_555
H16_4 C17_4 1_555 1_555
C18_4 C8_4 1_555 1_555
C19_4 C18_4 1_555 1_555
H17_4 C19_4 1_555 1_555
C20_4 N6_2 1_555 1_555
H18_4 C20_4 1_555 1_555
C9_4 C10_4 1_555 1_555
C17_4 C18_4 1_555 1_555
C19_4 C20_4 1_555 1_555
O9_4 Mo3_3 1_555 1_555
O10_3 Mo3_3 1_555 1_555
O11_3 Mo3_3 1_555 1_555
P2_3 O13_3 1_555 1_555
O13_3 Mo2_4 1_555 1_555
O14_3 Mo2_4 1_555 1_555
O16_3 Mo3_3 1_555 1_555
O18_3 Mo4_3 1_555 1_555
O19_3 Mo4_3 1_555 1_555
O20_3 Mo2_4 1_555 1_555
O21_3 Mo3_3 1_555 1_555
O24_3 P2_3 1_555 1_555
H10_3 O24_3 1_555 1_555
Mo4_3 O13_3 1_555 1_555
Mo4_3 O14_3 1_555 1_555
Mo4_3 O16_3 1_555 1_555
P2_3 O15_3 1_555 1_555
P2_3 O21_3 1_555 1_555
Mo1_3 O1_3 1_555 1_555
Mo2_5 O1_3 1_555 1_555
P1_3 O1_3 1_555 1_555
O2_3 Mo1_3 1_555 1_555
O3_3 P1_3 1_555 1_555
O4_3 Mo1_3 1_555 1_555
O18 Mo1_3 1_555 1_555
O6_3 Mo1_3 1_555 1_555
O7_3 Mo2_5 1_555 1_555
O8_3 P1_3 1_555 1_555
O12_3 P1_3 1_555 1_555
H1_3 O12_3 1_555 1_555
Mo5_3 O4_3 1_555 1_555
O22_3 Mo5_3 1_555 1_555
O23_3 Mo5_3 1_555 1_555
Mo2_5 O2_3 1_555 1_555
O8_3 Mo5_3 1_555 1_555
O9_5 Mo5_3 1_555 1_555
Mo1_4 O1_4 1_555 1_555
Mo2_6 O1_4 1_555 1_555
O2_4 Mo1_4 1_555 1_555
O6_4 Mo1_4 1_555 1_555
O7_4 Mo2_6 1_555 1_555
O13_4 Mo2_6 1_555 1_555
O14_4 Mo2_6 1_555 1_555
O19_4 Mo4_4 1_555 1_555
O20_4 Mo2_6 1_555 1_555
Mo2_6 O2_4 1_555 1_555
Mo4_4 O13_4 1_555 1_555
Mo4_4 O14_4 1_555 1_555
Mo3_4 O3_4 1_555 1_555
O3_4 P1_4 1_555 1_555
O8_4 P1_4 1_555 1_555
O9_6 Mo3_4 1_555 1_555
O10_4 Mo3_4 1_555 1_555
O11_4 Mo3_4 1_555 1_555
O12_4 P1_4 1_555 1_555
H1_4 O12_4 1_555 1_555
Mo5_4 O4_4 1_555 1_555
O16_4 Mo3_4 1_555 1_555
O21_4 Mo3_4 1_555 1_555
O22_4 Mo5_4 1_555 1_555
O23_4 Mo5_4 1_555 1_555
O24_4 P2_4 1_555 1_555
H10_4 O24_4 1_555 1_555
O8_4 Mo5_4 1_555 1_555
O9_6 Mo5_4 1_555 1_555
Mo5_4 O15_4 1_555 1_555
P2_4 O15_4 1_555 1_555
P2_4 O21_4 1_555 1_555
O26_2 H22 1_555 1_555
O26_2 H24 1_555 1_555
O26_4 H22_2 1_555 1_555
O26_4 H24_2 1_555 1_555
O26_6 H22_3 1_555 1_555
O26_6 H24_3 1_555 1_555
O26_8 H22_4 1_555 1_555
O26_8 H24_4 1_555 1_555

#END
