
###############################################################################
#
# This file contains modified crystal structure data generated from the
# MOF subset of the Cambridge Structural Database (CSD) v543 
# hosted by the Cambridge Crystallographic Data Centre (CCDC).
#
# This work is licensed under the Creative Commons
# Attribution-NonCommercial-ShareAlike 4.0 International License.
# To view a copy of this license, visit
# http://creativecommons.org/licenses/by-nc-sa/4.0/
# or send a letter to
# Creative Commons, PO Box 1866, Mountain View, CA 94042, USA.
#
# CIF created using the CSD Python API on 29 September 2022
# The structure has been converted into the P1 space group
# The structure has a 3D framework
# The original CSD entry YOMTAY is in the rhombohedral crystal system
# The framework has been calculated to contain at least 10.0% void space
# The void calculation uses a probe of radius 1.32A, grid spacing 0.4
#
###############################################################################

data_YOMTAY
_chemical_formula_moiety         '(C126 H126 N72 Ni16 S18)n'
_symmetry_cell_setting           triclinic
_symmetry_space_group_name_H-M   'P 1'
_symmetry_Int_Tables_number      1
_space_group_name_Hall           'P 1'
loop_
_symmetry_equiv_pos_site_id
_symmetry_equiv_pos_as_xyz
1 x,y,z
_cell_length_a                   27.712(3)
_cell_length_b                   27.712(3)
_cell_length_c                   7.3806(8)
_cell_angle_alpha                90
_cell_angle_beta                 90
_cell_angle_gamma                120
_cell_volume                     4908.6
loop_
_atom_site_label
_atom_site_type_symbol
_atom_site_fract_x
_atom_site_fract_y
_atom_site_fract_z
H8 H 0.843167 0.000481 0.523969
C11 C 0.78673(17) 0.03416(16) 0.0659(5)
H11 H 0.798757 0.033649 0.185986
H12 H 0.836447 0.115720 0.028317
N8 N 0.79528(13) 0.08738(12) 0.7988(4)
C12 C 0.80910(16) 0.08276(16) 0.9699(5)
C13 C 0.75698(19) 0.04061(16) 0.7208(6)
H13 H 0.747424 0.042314 0.598269
Ni2 Ni 0.833334 0.166667 0.666666
H6 H 0.585909 0.624353 0.068398
Ni3 Ni 0.500000 0.500001 -0.000000
Ni3_2 Ni 0.499999 -0.000000 -0.000000
N8_2 N 0.91262(12) 0.70791(18) 0.7988(4)
C12_2 C 0.91724(16) 0.72635(23) 0.9699(5)
C13_2 C 0.95939(16) 0.71638(25) 0.7208(6)
H13_2 H 0.957686 0.705111 0.598269
Ni2_2 Ni 0.833333 0.666666 0.666666
H2 H 0.205803 0.496943 0.993072
N8_3 N 0.29209(18) 0.20472(13) 0.7988(4)
C10 C 0.23932(21) 0.25441(15) 0.9836(5)
C12_3 C 0.27365(23) 0.19090(16) 0.9699(5)
C13_3 C 0.28362(25) 0.24302(19) 0.7208(6)
H13_3 H 0.294889 0.252576 0.598269
C14 C 0.25932(26) 0.2698(2) 0.8074(6)
H14 H 0.256380 0.298523 0.747315
Ni2_3 Ni 0.333334 0.166666 0.666666
Ni3_3 Ni 1.000000 0.500000 -0.000000
S1 S 0.26471(5) 0.13508(4) 0.43075(15)
N1 N 0.1780(3) 0.0331(3) 0.4315(10)
H2_2 H 0.169724 0.042193 0.326405
N2 N 0.23013(17) 0.0510(2) 0.6821(7)
N3 N 0.27628(14) 0.08861(13) 0.7773(5)
C1 C 0.2238(2) 0.0715(2) 0.5262(8)
C2 C 0.28394(18) 0.06924(16) 0.9293(5)
H3 H 0.315135 0.096024 0.996528
S2 S 0.40196(5) 0.19825(4) 0.90258(15)
N5 N 0.4887(3) 0.3002(3) 0.9018(10)
H8_2 H 0.509834 0.333814 0.857302
N6 N 0.43654(17) 0.2823(2) 0.6512(7)
N7 N 0.39039(14) 0.24472(13) 0.5560(5)
N8_4 N 0.46195(13) 0.42071(12) 0.1321(4)
C8 C 0.4429(2) 0.2618(2) 0.8071(8)
C9 C 0.38273(18) 0.26409(16) 0.4040(5)
H10 H 0.351532 0.237309 0.336805
C10_2 C 0.41226(15) 0.31825(15) 0.3169(5)
C11_2 C 0.45340(17) 0.36749(16) 0.3992(5)
H11_2 H 0.465424 0.366982 0.519319
C12_4 C 0.47577(16) 0.41609(16) 0.3032(5)
H12_2 H 0.503114 0.449053 0.361650
C13_4 C 0.42365(19) 0.37394(16) 0.0541(6)
C14_2 C 0.3969(2) 0.32289(16) 0.1407(6)
H14_2 H 0.368144 0.291191 0.080648
N9 N 0.37457(18) 0.12862(13) 0.5346(4)
S1_2 S 0.86492(4) 0.12962(6) 0.43075(15)
N1_2 N 0.9669(3) 0.1448(4) 0.4315(10)
H2_3 H 0.957807 0.127530 0.326405
N2_2 N 0.9490(2) 0.17909(26) 0.6821(7)
N3_2 N 0.91139(13) 0.18766(19) 0.7773(5)
C1_2 C 0.9285(2) 0.1522(3) 0.5262(8)
C2_2 C 0.93076(16) 0.21469(24) 0.9293(5)
H3_2 H 0.903976 0.219110 0.996528
S2_2 S 0.80175(4) 0.20371(6) 0.90258(15)
N5_2 N 0.6998(3) 0.1885(4) 0.9018(10)
H8_3 H 0.666186 0.176020 0.857302
N6_2 N 0.7177(2) 0.15424(26) 0.6512(7)
N7_2 N 0.75528(13) 0.14567(19) 0.5560(5)
N8_5 N 0.57929(12) 0.04124(18) 0.1321(4)
C8_2 C 0.7382(2) 0.1811(3) 0.8071(8)
C9_2 C 0.73591(16) 0.11864(24) 0.4040(5)
H10_2 H 0.762691 0.114223 0.336805
C10_3 C 0.68175(15) 0.09401(21) 0.3169(5)
C11_3 C 0.63251(16) 0.08591(23) 0.3992(5)
H11_3 H 0.633018 0.098442 0.519319
C12_5 C 0.58391(16) 0.05968(23) 0.3032(5)
H12_3 H 0.550947 0.054061 0.361650
C13_5 C 0.62606(16) 0.04971(25) 0.0541(6)
C14_3 C 0.67711(16) 0.07401(26) 0.1407(6)
H14_3 H 0.708809 0.076953 0.080648
N9_2 N 0.87138(13) 0.24596(22) 0.5346(4)
S1_3 S 0.87038(6) 0.73529(5) 0.43075(15)
N1_3 N 0.8552(4) 0.8220(3) 0.4315(10)
H1 H 0.842687 0.843167 0.476031
H2_4 H 0.872470 0.830276 0.326405
N2_3 N 0.82091(26) 0.76987(17) 0.6821(7)
N3_3 N 0.81234(19) 0.72372(14) 0.7773(5)
C1_3 C 0.8478(3) 0.7762(2) 0.5262(8)
C2_3 C 0.78531(24) 0.71606(18) 0.9293(5)
H3_3 H 0.780890 0.684865 0.996528
C4 C 0.75258(23) 0.78673(17) 0.9341(5)
H4 H 0.765109 0.798757 0.814014
H5 H 0.720728 0.836447 0.971683
S2_3 S 0.79629(6) 0.59804(5) 0.90258(15)
N5_3 N 0.8115(4) 0.5113(3) 0.9018(10)
H8_4 H 0.823980 0.490166 0.857302
N6_3 N 0.84576(26) 0.56346(17) 0.6512(7)
N7_3 N 0.85433(19) 0.60961(14) 0.5560(5)
N8_6 N 0.95876(18) 0.53805(13) 0.1321(4)
C8_3 C 0.8189(3) 0.5571(2) 0.8071(8)
C9_3 C 0.88136(24) 0.61727(18) 0.4040(5)
H10_3 H 0.885777 0.648468 0.336805
C10_4 C 0.90599(21) 0.58774(15) 0.3169(5)
C11_4 C 0.91409(23) 0.54660(17) 0.3992(5)
H11_4 H 0.901558 0.534576 0.519319
C12_6 C 0.94032(23) 0.52423(16) 0.3032(5)
H12_4 H 0.945939 0.496886 0.361650
C13_6 C 0.95029(25) 0.57635(19) 0.0541(6)
C14_4 C 0.92599(26) 0.6031(2) 0.1407(6)
H14_4 H 0.923047 0.631856 0.080648
N9_3 N 0.75404(22) 0.62543(18) 0.5346(4)
N2_4 N 0.89679(17) 0.3844(2) 0.0155(7)
N3_4 N 0.94294(14) 0.42195(13) 0.1107(5)
C2_4 C 0.95060(18) 0.40258(16) 0.2627(5)
H3_4 H 0.981801 0.429358 0.329862
C3 C 0.92107(15) 0.34842(15) 0.3498(5)
C4_2 C 0.87993(17) 0.29918(16) 0.2675(5)
H4_2 H 0.867909 0.299685 0.147348
C5 C 0.85756(16) 0.25058(16) 0.3635(5)
H5_2 H 0.830219 0.217614 0.305017
C6 C 0.90968(19) 0.29273(16) 0.6126(6)
H6_2 H 0.919242 0.291020 0.735065
C7 C 0.9364(2) 0.34378(16) 0.5260(6)
H7 H 0.965189 0.375476 0.586019
N2_5 N 0.6156(2) 0.51243(26) 0.0155(7)
N3_5 N 0.57805(13) 0.52100(19) 0.1107(5)
C2_5 C 0.59742(16) 0.54803(24) 0.2627(5)
H3_5 H 0.570642 0.552444 0.329862
C3_2 C 0.65158(15) 0.57266(21) 0.3498(5)
C4_3 C 0.70082(16) 0.58076(23) 0.2675(5)
H4_3 H 0.700315 0.568225 0.147348
C5_2 C 0.74942(16) 0.60699(23) 0.3635(5)
H5_3 H 0.782386 0.612606 0.305017
C6_2 C 0.70727(16) 0.61696(25) 0.6126(6)
H6_3 H 0.708980 0.628223 0.735065
C7_2 C 0.65622(16) 0.59266(26) 0.5260(6)
H7_2 H 0.624524 0.589714 0.586019
S2_4 S 0.46842(4) 0.53704(6) 0.23591(15)
N5_4 N 0.3665(3) 0.5218(4) 0.2351(10)
H8_5 H 0.332853 0.509353 0.190635
H9 H 0.375527 0.539136 0.340261
C8_4 C 0.4049(2) 0.5144(3) 0.1404(8)
N2_6 N 0.48757(26) 0.10321(17) 0.0155(7)
N3_6 N 0.47900(19) 0.05706(14) 0.1107(5)
C2_6 C 0.45197(24) 0.04940(18) 0.2627(5)
H3_6 H 0.447556 0.018199 0.329862
C3_3 C 0.42734(21) 0.07893(15) 0.3498(5)
C4_4 C 0.41924(23) 0.12007(17) 0.2675(5)
H4_4 H 0.431775 0.132091 0.147348
C5_3 C 0.39301(23) 0.14244(16) 0.3635(5)
H5_4 H 0.387394 0.169781 0.305017
C6_3 C 0.38304(25) 0.09032(19) 0.6126(6)
H6_4 H 0.371777 0.080758 0.735065
C7_3 C 0.40734(26) 0.0636(2) 0.5260(6)
H7_3 H 0.410286 0.034811 0.586019
Ni1 Ni 0.666667 0.833333 0.333333
S1_4 S 0.59804(5) 0.80175(4) 0.09742(15)
N1_4 N 0.5113(3) 0.6998(3) 0.0982(10)
H1_2 H 0.490166 0.666186 0.142698
N2_7 N 0.56346(17) 0.7177(2) 0.3488(7)
N3_7 N 0.60961(14) 0.75528(13) 0.4440(5)
N4 N 0.53805(13) 0.57929(12) 0.8679(4)
C1_4 C 0.5571(2) 0.7382(2) 0.1929(8)
C2_7 C 0.61727(18) 0.73591(16) 0.5960(5)
H3_7 H 0.648468 0.762691 0.663195
C3_4 C 0.58774(15) 0.68175(15) 0.6831(5)
C4_5 C 0.54660(17) 0.63251(16) 0.6008(5)
H4_5 H 0.534576 0.633018 0.480681
C5_4 C 0.52423(16) 0.58391(16) 0.6968(5)
H5_5 H 0.496886 0.550947 0.638350
C6_4 C 0.57635(19) 0.62606(16) 0.9459(6)
C7_4 C 0.6031(2) 0.67711(16) 0.8593(6)
H7_4 H 0.631856 0.708809 0.919352
S2_5 S 0.73529(5) 0.86492(4) 0.56925(15)
N5_5 N 0.8220(3) 0.9669(3) 0.5685(10)
H9_2 H 0.830276 0.957807 0.673595
N6_4 N 0.76987(17) 0.9490(2) 0.3179(7)
N7_4 N 0.72372(14) 0.91139(13) 0.2227(5)
C8_5 C 0.7762(2) 0.9285(2) 0.4738(8)
C9_4 C 0.71606(18) 0.93076(16) 0.0707(5)
H10_4 H 0.684865 0.903976 0.003472
Ni3_4 Ni 0.500000 0.500001 1.000000
N9_4 N 0.70791(18) 0.79528(13) 0.2012(4)
N10 N 0.62543(18) 0.87138(13) 0.4654(4)
Ni1_2 Ni 0.166667 0.833334 0.333333
S1_5 S 0.19825(4) 0.79629(6) 0.09742(15)
N1_5 N 0.3002(3) 0.8115(4) 0.0982(10)
H1_3 H 0.333814 0.823980 0.142698
N2_8 N 0.2823(2) 0.84576(26) 0.3488(7)
N3_8 N 0.24472(13) 0.85433(19) 0.4440(5)
N4_2 N 0.42071(12) 0.95876(18) 0.8679(4)
C1_5 C 0.2618(2) 0.8189(3) 0.1929(8)
C2_8 C 0.26409(16) 0.88136(24) 0.5960(5)
H3_8 H 0.237309 0.885777 0.663195
C3_5 C 0.31825(15) 0.90599(21) 0.6831(5)
C4_6 C 0.36749(16) 0.91409(23) 0.6008(5)
H4_6 H 0.366982 0.901558 0.480681
C5_5 C 0.41609(16) 0.94032(23) 0.6968(5)
H5_6 H 0.449053 0.945939 0.638350
C6_5 C 0.37394(16) 0.95029(25) 0.9459(6)
C7_5 C 0.32289(16) 0.92599(26) 0.8593(6)
H7_5 H 0.291191 0.923047 0.919352
S2_6 S 0.13508(4) 0.87038(6) 0.56925(15)
N5_6 N 0.0331(3) 0.8552(4) 0.5685(10)
H9_3 H 0.042193 0.872470 0.673595
N6_5 N 0.0510(2) 0.82091(26) 0.3179(7)
N7_5 N 0.08861(13) 0.81234(19) 0.2227(5)
C8_6 C 0.0715(2) 0.8478(3) 0.4738(8)
C9_5 C 0.06924(16) 0.78531(24) 0.0707(5)
H10_5 H 0.096024 0.780890 0.003472
Ni3_5 Ni 0.499999 1.000000 1.000000
N9_5 N 0.20472(13) 0.91262(22) 0.2012(4)
N10_2 N 0.12862(13) 0.75404(22) 0.4654(4)
Ni1_3 Ni 0.166666 0.333333 0.333333
S1_6 S 0.20371(6) 0.40196(5) 0.09742(15)
N1_6 N 0.1885(4) 0.4887(3) 0.0982(10)
H1_4 H 0.176020 0.509834 0.142698
N2_9 N 0.15424(26) 0.43654(17) 0.3488(7)
N3_9 N 0.14567(19) 0.39039(14) 0.4440(5)
N4_3 N 0.04124(18) 0.46195(13) 0.8679(4)
C1_6 C 0.1811(3) 0.4429(2) 0.1929(8)
C2_9 C 0.11864(24) 0.38273(18) 0.5960(5)
H3_9 H 0.114223 0.351532 0.663195
C3_6 C 0.09401(21) 0.41226(15) 0.6831(5)
C4_7 C 0.08591(23) 0.45340(17) 0.6008(5)
H4_7 H 0.098442 0.465424 0.480681
C5_6 C 0.05968(23) 0.47577(16) 0.6968(5)
H5_7 H 0.054061 0.503114 0.638350
C6_6 C 0.04971(25) 0.42365(19) 0.9459(6)
C7_6 C 0.07401(26) 0.3969(2) 0.8593(6)
H7_6 H 0.076953 0.368144 0.919352
S2_7 S 0.12962(6) 0.26471(5) 0.56925(15)
N5_7 N 0.1448(4) 0.1780(3) 0.5685(10)
H8_6 H 0.157313 0.156833 0.523969
H9_4 H 0.127530 0.169724 0.673595
N6_6 N 0.17909(26) 0.23013(17) 0.3179(7)
N7_6 N 0.18766(19) 0.27628(14) 0.2227(5)
C8_7 C 0.1522(3) 0.2238(2) 0.4738(8)
C9_6 C 0.21469(24) 0.28394(18) 0.0707(5)
H10_6 H 0.219110 0.315135 0.003472
C11_5 C 0.24742(23) 0.21327(17) 0.0659(5)
H11_5 H 0.234891 0.201243 0.185986
H12_5 H 0.279272 0.163553 0.028317
Ni3_6 Ni 0.000000 0.500000 1.000000
N9_6 N 0.08738(22) 0.29209(18) 0.2012(4)
N10_3 N 0.24596(22) 0.37457(18) 0.4654(4)
H13_4 H 0.414091 0.375647 0.931602
C5_7 C 0.19090(16) 0.91724(16) 0.0301(5)
C6_7 C 0.24302(19) 0.95939(16) 0.2792(6)
H6_5 H 0.252576 0.957686 0.401731
C5_8 C 0.08276(16) 0.27365(23) 0.0301(5)
C6_8 C 0.04061(16) 0.28362(25) 0.2792(6)
H6_6 H 0.042314 0.294889 0.401731
C3_7 C 0.76068(21) 0.74559(15) 0.0164(5)
C5_9 C 0.72635(23) 0.80910(16) 0.0301(5)
C6_9 C 0.71638(25) 0.75698(19) 0.2792(6)
H6_7 H 0.705111 0.747424 0.401731
C7_7 C 0.74068(26) 0.7302(2) 0.1926(6)
H7_7 H 0.743620 0.701477 0.252685
H9_5 H 0.794197 0.503057 0.006928
N6_7 N 0.10321(17) 0.6156(2) 0.9845(7)
N7_7 N 0.05706(14) 0.57805(13) 0.8893(5)
C9_7 C 0.04940(18) 0.59742(16) 0.7373(5)
H10_7 H 0.018199 0.570642 0.670138
C10_5 C 0.07893(15) 0.65158(15) 0.6502(5)
C11_6 C 0.12007(17) 0.70082(16) 0.7325(5)
H11_6 H 0.132091 0.700315 0.852652
C12_7 C 0.14244(16) 0.74942(16) 0.6365(5)
H12_6 H 0.169781 0.782386 0.694983
C13_7 C 0.09032(19) 0.70727(16) 0.3874(6)
H13_5 H 0.080758 0.708980 0.264935
C14_5 C 0.0636(2) 0.65622(16) 0.4740(6)
H14_5 H 0.034811 0.624524 0.413981
S1_7 S 0.53158(4) 0.46296(6) 0.76409(15)
N1_7 N 0.6335(3) 0.4782(4) 0.7649(10)
H1_5 H 0.667147 0.490647 0.809365
H2_5 H 0.624473 0.460864 0.659739
C1_7 C 0.5951(2) 0.4856(3) 0.8596(8)
N6_8 N 0.3844(2) 0.48757(26) 0.9845(7)
N7_8 N 0.42195(13) 0.47900(19) 0.8893(5)
C9_8 C 0.40258(16) 0.45197(24) 0.7373(5)
H10_8 H 0.429358 0.447556 0.670138
C10_6 C 0.34842(15) 0.42734(21) 0.6502(5)
C11_7 C 0.29918(16) 0.41924(23) 0.7325(5)
H11_7 H 0.299685 0.431775 0.852652
C12_8 C 0.25058(16) 0.39301(23) 0.6365(5)
H12_7 H 0.217614 0.387394 0.694983
C13_8 C 0.29273(16) 0.38304(25) 0.3874(6)
H13_6 H 0.291020 0.371777 0.264935
C14_6 C 0.34378(16) 0.40734(26) 0.4740(6)
H14_6 H 0.375476 0.410286 0.413981
N6_9 N 0.51243(26) 0.89679(17) 0.9845(7)
N7_9 N 0.52100(19) 0.94294(14) 0.8893(5)
C9_9 C 0.54803(24) 0.95060(18) 0.7373(5)
H10_9 H 0.552444 0.981801 0.670138
C10_7 C 0.57266(21) 0.92107(15) 0.6502(5)
C11_8 C 0.58076(23) 0.87993(17) 0.7325(5)
H11_8 H 0.568225 0.867909 0.852652
C12_9 C 0.60699(23) 0.85756(16) 0.6365(5)
H12_8 H 0.612606 0.830219 0.694983
C13_9 C 0.61696(25) 0.90968(19) 0.3874(6)
H13_7 H 0.628223 0.919242 0.264935
C14_7 C 0.59266(26) 0.9364(2) 0.4740(6)
H14_7 H 0.589714 0.965189 0.413981
H2_6 H 0.503057 0.708860 0.993072
C10_8 C 0.74559(15) 0.98492(15) 0.9836(5)
C14_8 C 0.7302(2) 0.98956(16) 0.8074(6)
H14_8 H 0.701477 0.957858 0.747315
Ni3_7 Ni 0.499999 -0.000000 1.000000
H13_8 H 0.624353 0.038444 0.931602
S1_8 S 0.53704(6) 0.06863(5) 0.76409(15)
N1_8 N 0.5218(4) 0.1554(3) 0.7649(10)
H1_6 H 0.509353 0.176501 0.809365
H2_7 H 0.539136 0.163610 0.659739
C1_8 C 0.5144(3) 0.1096(2) 0.8596(8)
H6_8 H 0.375647 0.961556 0.068398
Ni3_8 Ni 0.499999 1.000000 -0.000000
S2_8 S 0.46296(6) 0.93137(5) 0.23591(15)
N5_8 N 0.4782(4) 0.8446(3) 0.2351(10)
H8_7 H 0.490647 0.823499 0.190635
H9_6 H 0.460864 0.836390 0.340261
C8_8 C 0.4856(3) 0.8904(2) 0.1404(8)
H2_8 H 0.291140 0.794197 0.993072
C10_9 C 0.01508(15) 0.76068(21) 0.9836(5)
C14_9 C 0.01044(16) 0.74068(26) 0.8074(6)
H14_9 H 0.042142 0.743620 0.747315
H8_8 H 0.999519 0.842687 0.523969
C11_9 C 0.96584(16) 0.75258(23) 0.0659(5)
H11_9 H 0.966351 0.765109 0.185986
H12_9 H 0.884280 0.720728 0.028317
H6_9 H 0.038444 0.414091 0.068398
Ni3_9 Ni 0.000000 0.500000 -0.000000
S2_9 S 0.06863(5) 0.53158(4) 0.23591(15)
N5_9 N 0.1554(3) 0.6335(3) 0.2351(10)
H8_9 H 0.176501 0.667147 0.190635
H9_7 H 0.163610 0.624473 0.340261
C8_9 C 0.1096(2) 0.5951(2) 0.1404(8)
Ni3_10 Ni 1.000000 0.500000 1.000000
H13_9 H 0.961556 0.585909 0.931602
S1_9 S 0.93137(5) 0.46842(4) 0.76409(15)
N1_9 N 0.8446(3) 0.3665(3) 0.7649(10)
H1_7 H 0.823499 0.332853 0.809365
H2_9 H 0.836390 0.375527 0.659739
C1_9 C 0.8904(2) 0.4049(2) 0.8596(8)
C3_8 C 0.25441(15) 0.01508(15) 0.0164(5)
C7_8 C 0.2698(2) 0.01044(16) 0.1926(6)
H7_8 H 0.298523 0.042142 0.252685
H9_8 H 0.496943 0.291140 0.006928
H1_8 H 0.156833 0.999519 0.476031
C4_8 C 0.21327(17) 0.96584(16) 0.9341(5)
H4_8 H 0.201243 0.966351 0.814014
H5_8 H 0.163553 0.884280 0.971683
H1_9 H 0.000481 0.157313 0.476031
C4_9 C 0.03416(16) 0.24742(23) 0.9341(5)
H4_9 H 0.033649 0.234891 0.814014
H5_9 H 0.115720 0.279272 0.971683
C3_9 C 0.98492(15) 0.23932(21) 0.0164(5)
C7_9 C 0.98956(16) 0.25932(26) 0.1926(6)
H7_9 H 0.957858 0.256380 0.252685
H9_9 H 0.708860 0.205803 0.006928
loop_
_geom_bond_atom_site_label_1
_geom_bond_atom_site_label_2
_geom_bond_site_symmetry_1
_geom_bond_site_symmetry_2
H11 C11 1_555 1_555
N8 C12 1_555 1_555
C13 N8 1_555 1_555
H13 C13 1_555 1_555
Ni2 N8 1_555 1_555
N8_2 C12_2 1_555 1_555
C13_2 N8_2 1_555 1_555
H13_2 C13_2 1_555 1_555
Ni2_2 N8_2 1_555 1_555
N8_3 C12_3 1_555 1_555
C13_3 N8_3 1_555 1_555
H13_3 C13_3 1_555 1_555
C14 C10 1_555 1_555
H14 C14 1_555 1_555
Ni2_3 N8_3 1_555 1_555
C13_3 C14 1_555 1_555
Ni2_3 S1 1_555 1_555
S1 C1 1_555 1_555
H2_2 N1 1_555 1_555
N2 N3 1_555 1_555
N3 Ni2_3 1_555 1_555
C1 N1 1_555 1_555
C2 N3 1_555 1_555
H3 C2 1_555 1_555
S2 Ni2_3 1_555 1_555
N5 H8_2 1_555 1_555
N6 N7 1_555 1_555
N7 Ni2_3 1_555 1_555
N8_4 C12_4 1_555 1_555
C8 S2 1_555 1_555
C9 N7 1_555 1_555
H10 C9 1_555 1_555
C10_2 C9 1_555 1_555
C11_2 C10_2 1_555 1_555
H11_2 C11_2 1_555 1_555
C12_4 C11_2 1_555 1_555
H12_2 C12_4 1_555 1_555
C13_4 N8_4 1_555 1_555
C14_2 C10_2 1_555 1_555
H14_2 C14_2 1_555 1_555
Ni3 N8_4 1_555 1_555
N9 Ni2_3 1_555 1_555
N2 C1 1_555 1_555
N5 C8 1_555 1_555
N6 C8 1_555 1_555
C13_4 C14_2 1_555 1_555
Ni2 S1_2 1_555 1_555
S1_2 C1_2 1_555 1_555
H2_3 N1_2 1_555 1_555
N2_2 N3_2 1_555 1_555
N3_2 Ni2 1_555 1_555
C1_2 N1_2 1_555 1_555
C2_2 N3_2 1_555 1_555
H3_2 C2_2 1_555 1_555
S2_2 Ni2 1_555 1_555
N5_2 H8_3 1_555 1_555
N6_2 N7_2 1_555 1_555
N7_2 Ni2 1_555 1_555
N8_5 C12_5 1_555 1_555
C8_2 S2_2 1_555 1_555
C9_2 N7_2 1_555 1_555
H10_2 C9_2 1_555 1_555
C10_3 C9_2 1_555 1_555
C11_3 C10_3 1_555 1_555
H11_3 C11_3 1_555 1_555
C12_5 C11_3 1_555 1_555
H12_3 C12_5 1_555 1_555
C13_5 N8_5 1_555 1_555
C14_3 C10_3 1_555 1_555
H14_3 C14_3 1_555 1_555
Ni3_2 N8_5 1_555 1_555
N9_2 Ni2 1_555 1_555
N2_2 C1_2 1_555 1_555
N5_2 C8_2 1_555 1_555
N6_2 C8_2 1_555 1_555
C13_5 C14_3 1_555 1_555
Ni2_2 S1_3 1_555 1_555
S1_3 C1_3 1_555 1_555
N1_3 H1 1_555 1_555
H2_4 N1_3 1_555 1_555
N2_3 N3_3 1_555 1_555
N3_3 Ni2_2 1_555 1_555
C1_3 N1_3 1_555 1_555
C2_3 N3_3 1_555 1_555
H3_3 C2_3 1_555 1_555
H4 C4 1_555 1_555
S2_3 Ni2_2 1_555 1_555
N5_3 H8_4 1_555 1_555
N6_3 N7_3 1_555 1_555
N7_3 Ni2_2 1_555 1_555
N8_6 C12_6 1_555 1_555
C8_3 S2_3 1_555 1_555
C9_3 N7_3 1_555 1_555
H10_3 C9_3 1_555 1_555
C10_4 C9_3 1_555 1_555
C11_4 C10_4 1_555 1_555
H11_4 C11_4 1_555 1_555
C12_6 C11_4 1_555 1_555
H12_4 C12_6 1_555 1_555
C13_6 N8_6 1_555 1_555
C14_4 C10_4 1_555 1_555
H14_4 C14_4 1_555 1_555
Ni3_3 N8_6 1_555 1_555
N9_3 Ni2_2 1_555 1_555
N2_3 C1_3 1_555 1_555
N5_3 C8_3 1_555 1_555
N6_3 C8_3 1_555 1_555
C13_6 C14_4 1_555 1_555
N2_4 N3_4 1_555 1_555
N3_4 Ni3_3 1_555 1_555
N9_2 C5 1_555 1_555
C2_4 N3_4 1_555 1_555
H3_4 C2_4 1_555 1_555
C3 C2_4 1_555 1_555
C4_2 C3 1_555 1_555
H4_2 C4_2 1_555 1_555
C5 C4_2 1_555 1_555
H5_2 C5 1_555 1_555
C6 N9_2 1_555 1_555
H6_2 C6 1_555 1_555
C7 C3 1_555 1_555
H7 C7 1_555 1_555
C6 C7 1_555 1_555
N2_5 N3_5 1_555 1_555
N3_5 Ni3 1_555 1_555
N9_3 C5_2 1_555 1_555
C2_5 N3_5 1_555 1_555
H3_5 C2_5 1_555 1_555
C3_2 C2_5 1_555 1_555
C4_3 C3_2 1_555 1_555
H4_3 C4_3 1_555 1_555
C5_2 C4_3 1_555 1_555
H5_3 C5_2 1_555 1_555
C6_2 N9_3 1_555 1_555
H6_3 C6_2 1_555 1_555
C7_2 C3_2 1_555 1_555
H7_2 C7_2 1_555 1_555
S2_4 Ni3 1_555 1_555
N5_4 H8_5 1_555 1_555
H9 N5_4 1_555 1_555
C8_4 S2_4 1_555 1_555
C6_2 C7_2 1_555 1_555
N5_4 C8_4 1_555 1_555
N2_6 N3_6 1_555 1_555
N3_6 Ni3_2 1_555 1_555
N9 C5_3 1_555 1_555
C2_6 N3_6 1_555 1_555
H3_6 C2_6 1_555 1_555
C3_3 C2_6 1_555 1_555
C4_4 C3_3 1_555 1_555
H4_4 C4_4 1_555 1_555
C5_3 C4_4 1_555 1_555
H5_4 C5_3 1_555 1_555
C6_3 N9 1_555 1_555
H6_4 C6_3 1_555 1_555
C7_3 C3_3 1_555 1_555
H7_3 C7_3 1_555 1_555
C6_3 C7_3 1_555 1_555
Ni1 S1_4 1_555 1_555
S1_4 C1_4 1_555 1_555
N1_4 H1_2 1_555 1_555
N2_7 N3_7 1_555 1_555
N3_7 Ni1 1_555 1_555
N4 C5_4 1_555 1_555
C1_4 N1_4 1_555 1_555
C2_7 N3_7 1_555 1_555
H3_7 C2_7 1_555 1_555
C3_4 C2_7 1_555 1_555
C4_5 C3_4 1_555 1_555
H4_5 C4_5 1_555 1_555
C5_4 C4_5 1_555 1_555
H5_5 C5_4 1_555 1_555
C6_4 N4 1_555 1_555
C7_4 C3_4 1_555 1_555
H7_4 C7_4 1_555 1_555
S2_5 Ni1 1_555 1_555
H9_2 N5_5 1_555 1_555
N6_4 N7_4 1_555 1_555
N7_4 Ni1 1_555 1_555
C8_5 S2_5 1_555 1_555
C9_4 N7_4 1_555 1_555
H10_4 C9_4 1_555 1_555
Ni3_4 N4 1_555 1_555
N9_4 Ni1 1_555 1_555
N10 Ni1 1_555 1_555
N2_7 C1_4 1_555 1_555
C6_4 C7_4 1_555 1_555
N5_5 C8_5 1_555 1_555
N6_4 C8_5 1_555 1_555
Ni1_2 S1_5 1_555 1_555
S1_5 C1_5 1_555 1_555
N1_5 H1_3 1_555 1_555
N2_8 N3_8 1_555 1_555
N3_8 Ni1_2 1_555 1_555
N4_2 C5_5 1_555 1_555
C1_5 N1_5 1_555 1_555
C2_8 N3_8 1_555 1_555
H3_8 C2_8 1_555 1_555
C3_5 C2_8 1_555 1_555
C4_6 C3_5 1_555 1_555
H4_6 C4_6 1_555 1_555
C5_5 C4_6 1_555 1_555
H5_6 C5_5 1_555 1_555
C6_5 N4_2 1_555 1_555
C7_5 C3_5 1_555 1_555
H7_5 C7_5 1_555 1_555
S2_6 Ni1_2 1_555 1_555
H9_3 N5_6 1_555 1_555
N6_5 N7_5 1_555 1_555
N7_5 Ni1_2 1_555 1_555
C8_6 S2_6 1_555 1_555
C9_5 N7_5 1_555 1_555
H10_5 C9_5 1_555 1_555
Ni3_5 N4_2 1_555 1_555
N9_5 Ni1_2 1_555 1_555
N10_2 Ni1_2 1_555 1_555
N2_8 C1_5 1_555 1_555
C6_5 C7_5 1_555 1_555
N5_6 C8_6 1_555 1_555
N6_5 C8_6 1_555 1_555
Ni1_3 S1_6 1_555 1_555
S1_6 C1_6 1_555 1_555
N1_6 H1_4 1_555 1_555
N2_9 N3_9 1_555 1_555
N3_9 Ni1_3 1_555 1_555
N4_3 C5_6 1_555 1_555
C1_6 N1_6 1_555 1_555
C2_9 N3_9 1_555 1_555
H3_9 C2_9 1_555 1_555
C3_6 C2_9 1_555 1_555
C4_7 C3_6 1_555 1_555
H4_7 C4_7 1_555 1_555
C5_6 C4_7 1_555 1_555
H5_7 C5_6 1_555 1_555
C6_6 N4_3 1_555 1_555
C7_6 C3_6 1_555 1_555
H7_6 C7_6 1_555 1_555
S2_7 Ni1_3 1_555 1_555
N5_7 H8_6 1_555 1_555
H9_4 N5_7 1_555 1_555
N6_6 N7_6 1_555 1_555
N7_6 Ni1_3 1_555 1_555
C8_7 S2_7 1_555 1_555
C9_6 N7_6 1_555 1_555
H10_6 C9_6 1_555 1_555
H11_5 C11_5 1_555 1_555
Ni3_6 N4_3 1_555 1_555
N9_6 Ni1_3 1_555 1_555
N10_3 Ni1_3 1_555 1_555
N2_9 C1_6 1_555 1_555
C6_6 C7_6 1_555 1_555
N5_7 C8_7 1_555 1_555
N6_6 C8_7 1_555 1_555
N9_5 C5_7 1_555 1_555
C6_7 N9_5 1_555 1_555
H6_5 C6_7 1_555 1_555
N9_6 C5_8 1_555 1_555
C6_8 N9_6 1_555 1_555
H6_6 C6_8 1_555 1_555
N9_4 C5_9 1_555 1_555
C6_9 N9_4 1_555 1_555
H6_7 C6_9 1_555 1_555
C7_7 C3_7 1_555 1_555
H7_7 C7_7 1_555 1_555
C6_9 C7_7 1_555 1_555
N6_7 N7_7 1_555 1_555
N7_7 Ni3_6 1_555 1_555
N10_2 C12_7 1_555 1_555
C9_7 N7_7 1_555 1_555
H10_7 C9_7 1_555 1_555
C10_5 C9_7 1_555 1_555
C11_6 C10_5 1_555 1_555
H11_6 C11_6 1_555 1_555
C12_7 C11_6 1_555 1_555
H12_6 C12_7 1_555 1_555
C13_7 N10_2 1_555 1_555
H13_5 C13_7 1_555 1_555
C14_5 C10_5 1_555 1_555
H14_5 C14_5 1_555 1_555
C13_7 C14_5 1_555 1_555
Ni3_4 S1_7 1_555 1_555
S1_7 C1_7 1_555 1_555
N1_7 H1_5 1_555 1_555
H2_5 N1_7 1_555 1_555
C1_7 N1_7 1_555 1_555
N6_8 N7_8 1_555 1_555
N7_8 Ni3_4 1_555 1_555
N10_3 C12_8 1_555 1_555
C9_8 N7_8 1_555 1_555
H10_8 C9_8 1_555 1_555
C10_6 C9_8 1_555 1_555
C11_7 C10_6 1_555 1_555
H11_7 C11_7 1_555 1_555
C12_8 C11_7 1_555 1_555
H12_7 C12_8 1_555 1_555
C13_8 N10_3 1_555 1_555
H13_6 C13_8 1_555 1_555
C14_6 C10_6 1_555 1_555
H14_6 C14_6 1_555 1_555
C13_8 C14_6 1_555 1_555
N6_9 N7_9 1_555 1_555
N7_9 Ni3_5 1_555 1_555
N10 C12_9 1_555 1_555
C9_9 N7_9 1_555 1_555
H10_9 C9_9 1_555 1_555
C10_7 C9_9 1_555 1_555
C11_8 C10_7 1_555 1_555
H11_8 C11_8 1_555 1_555
C12_9 C11_8 1_555 1_555
H12_8 C12_9 1_555 1_555
C13_9 N10 1_555 1_555
H13_7 C13_9 1_555 1_555
C14_7 C10_7 1_555 1_555
H14_7 C14_7 1_555 1_555
C13_9 C14_7 1_555 1_555
C14_8 C10_8 1_555 1_555
H14_8 C14_8 1_555 1_555
Ni3_7 S1_8 1_555 1_555
S1_8 C1_8 1_555 1_555
N1_8 H1_6 1_555 1_555
H2_7 N1_8 1_555 1_555
C1_8 N1_8 1_555 1_555
S2_8 Ni3_8 1_555 1_555
N5_8 H8_7 1_555 1_555
H9_6 N5_8 1_555 1_555
C8_8 S2_8 1_555 1_555
N5_8 C8_8 1_555 1_555
C14_9 C10_9 1_555 1_555
H14_9 C14_9 1_555 1_555
H11_9 C11_9 1_555 1_555
S2_9 Ni3_9 1_555 1_555
N5_9 H8_9 1_555 1_555
H9_7 N5_9 1_555 1_555
C8_9 S2_9 1_555 1_555
N5_9 C8_9 1_555 1_555
Ni3_10 S1_9 1_555 1_555
S1_9 C1_9 1_555 1_555
N1_9 H1_7 1_555 1_555
H2_9 N1_9 1_555 1_555
C1_9 N1_9 1_555 1_555
C7_8 C3_8 1_555 1_555
H7_8 C7_8 1_555 1_555
H4_8 C4_8 1_555 1_555
H4_9 C4_9 1_555 1_555
C7_9 C3_9 1_555 1_555
H7_9 C7_9 1_555 1_555

#END
