
###############################################################################
#
# This file contains modified crystal structure data generated from the
# MOF subset of the Cambridge Structural Database (CSD) v543 
# hosted by the Cambridge Crystallographic Data Centre (CCDC).
#
# This work is licensed under the Creative Commons
# Attribution-NonCommercial-ShareAlike 4.0 International License.
# To view a copy of this license, visit
# http://creativecommons.org/licenses/by-nc-sa/4.0/
# or send a letter to
# Creative Commons, PO Box 1866, Mountain View, CA 94042, USA.
#
# CIF created using the CSD Python API on 29 September 2022
# The structure has been converted into the P1 space group
# The structure has a 3D framework
# The original CSD entry YOMZIL is in the triclinic crystal system
# The framework has been calculated to contain at least 10.0% void space
# The void calculation uses a probe of radius 1.32A, grid spacing 0.4
#
###############################################################################

data_YOMZIL
_chemical_formula_moiety         '(C166 H178 Ag6 P8 S6)n'
_symmetry_cell_setting           triclinic
_symmetry_space_group_name_H-M   'P 1'
_symmetry_Int_Tables_number      1
_space_group_name_Hall           'P 1'
loop_
_symmetry_equiv_pos_site_id
_symmetry_equiv_pos_as_xyz
1 x,y,z
_cell_length_a                   16.2893(4)
_cell_length_b                   16.7991(5)
_cell_length_c                   17.4829(5)
_cell_angle_alpha                86.419(2)
_cell_angle_beta                 87.725(2)
_cell_angle_gamma                66.905(2)
_cell_volume                     4391.5
loop_
_atom_site_label
_atom_site_type_symbol
_atom_site_fract_x
_atom_site_fract_y
_atom_site_fract_z
_atom_site_U_iso_or_equiv
_atom_site_thermal_displace_type
C69 C 0.07424(18) 0.1356(2) 0.22764(16) 0.0501 Uani
C70 C 0.08714(16) 0.0495(2) 0.22404(14) 0.0464 Uani
H69 H 0.1445 0.0091 0.2095 0.0560 Uiso
C71 C 0.01974(15) 0.01966(17) 0.24078(12) 0.0379 Uani
C73 C 0.1500(2) 0.1651(3) 0.2104(2) 0.0698 Uani
H73 H 0.1256 0.2263 0.1929 0.1050 Uiso
H74 H 0.1889 0.1304 0.1702 0.1050 Uiso
H75 H 0.1845 0.1576 0.2569 0.1050 Uiso
H93 H 0.3310 0.0095 0.2611 0.0490 Uiso
H101 H 0.1235 0.0207 0.4504 0.0350 Uiso
C115 C 0.39235(19) 0.0733(2) 0.09169(17) 0.0502 Uani
H120 H 0.4366 0.0775 0.1232 0.0600 Uiso
C116 C 0.3364(2) 0.1453(2) 0.0495(2) 0.0588 Uani
H121 H 0.3419 0.1993 0.0527 0.0710 Uiso
C117 C 0.27235(18) 0.13963(19) 0.00279(17) 0.0482 Uani
C124 C 0.10636(15) 0.02402(17) 0.01032(12) 0.0350 Uani
H128 H 0.0810 0.0732 0.0443 0.0420 Uiso
P7 P 0.18158(4) 0.04608(4) 0.93874(3) 0.0305 Uani
C112 C 0.26319(14) 0.06094(15) 0.99860(12) 0.0325 Uani
H122 H 0.2347 0.1893 0.9736 0.0580 Uiso
C118 C 0.11503(14) 0.15404(15) 0.89850(13) 0.0329 Uani
C119 C 0.11955(17) 0.16942(18) 0.82004(14) 0.0438 Uani
H123 H 0.1567 0.1241 0.7891 0.0530 Uiso
C120 C 0.0706(2) 0.2502(2) 0.78617(17) 0.0577 Uani
H124 H 0.0744 0.2599 0.7323 0.0690 Uiso
C121 C 0.01651(19) 0.31618(19) 0.83013(18) 0.0541 Uani
C122 C 0.01040(18) 0.30203(19) 0.90826(17) 0.0515 Uani
C123 C 0.05912(17) 0.22132(18) 0.94230(15) 0.0429 Uani
H127 H 0.0544 0.2117 0.9961 0.0520 Uiso
C125 C 0.03075(15) 0.01095(17) 0.97100(12) 0.0347 Uani
H22 H 0.0378 0.7231 0.5360 0.0620 Uiso
H23 H 0.0276 0.7818 0.4116 0.0590 Uiso
H36 H 0.0167 0.6284 0.1933 0.0650 Uiso
H37 H 0.0272 0.6524 0.0613 0.0620 Uiso
H42 H 0.0045 0.9355 0.0594 0.0420 Uiso
C74 C 0.03857(17) 0.92529(18) 0.23659(15) 0.0459 Uani
H76 H 0.0309 0.9013 0.2876 0.0690 Uiso
H77 H 0.1000 0.8947 0.2183 0.0690 Uiso
P5 P 0.22646(3) 0.87899(4) 0.48125(3) 0.0264 Uani
C84 C 0.30631(14) 0.89693(14) 0.41330(11) 0.0288 Uani
C85 C 0.39642(14) 0.85000(15) 0.42732(13) 0.0326 Uani
H90 H 0.4137 0.8096 0.4701 0.0390 Uiso
C86 C 0.46147(16) 0.86158(16) 0.37944(14) 0.0384 Uani
H91 H 0.5228 0.8284 0.3890 0.0460 Uiso
C87 C 0.43698(17) 0.92111(17) 0.31828(14) 0.0411 Uani
H92 H 0.4815 0.9296 0.2861 0.0490 Uiso
C88 C 0.34765(18) 0.96862(17) 0.30355(13) 0.0408 Uani
C89 C 0.28179(16) 0.95675(16) 0.35097(12) 0.0351 Uani
H94 H 0.2205 0.9894 0.3407 0.0420 Uiso
C90 C 0.22038(13) 0.78068(14) 0.44583(12) 0.0305 Uani
C91 C 0.22391(15) 0.71297(16) 0.49665(14) 0.0371 Uani
H95 H 0.2291 0.7174 0.5500 0.0450 Uiso
C92 C 0.2198(2) 0.63859(18) 0.46990(18) 0.0505 Uani
H96 H 0.2228 0.5921 0.5050 0.0610 Uiso
C93 C 0.21152(19) 0.63183(19) 0.39286(18) 0.0505 Uani
H97 H 0.2085 0.5808 0.3749 0.0610 Uiso
C94 C 0.20759(17) 0.69859(19) 0.34203(16) 0.0456 Uani
H98 H 0.2018 0.6939 0.2888 0.0550 Uiso
C95 C 0.21210(15) 0.77295(16) 0.36799(13) 0.0362 Uani
H99 H 0.2095 0.8190 0.3325 0.0430 Uiso
C96 C 0.11857(13) 0.96363(14) 0.45369(12) 0.0290 Uani
H100 H 0.1026 0.9527 0.4024 0.0350 Uiso
C97 C 0.04498(13) 0.96578(14) 0.51171(12) 0.0305 Uani
H102 H 0.0603 0.9781 0.5627 0.0370 Uiso
H103 H 0.0412 0.9083 0.5160 0.0370 Uiso
C113 C 0.31924(17) 0.98954(17) 0.04165(15) 0.0431 Uani
H118 H 0.3135 0.9356 0.0396 0.0520 Uiso
C114 C 0.38331(18) 0.99585(19) 0.08758(16) 0.0480 Uani
H119 H 0.4214 0.9462 0.1165 0.0580 Uiso
H129 H 0.1404 0.9714 0.0423 0.0420 Uiso
Ag9 Ag 0.26851(2) 0.90010(2) 0.60946(2) 0.0305 Uani
H130 H 0.0564 0.9634 0.9353 0.0420 Uiso
Ag7 Ag 0.22096(2) 0.92894(2) 0.85078(2) 0.0322 Uani
Ag1 Ag 0.77904(2) 0.07106(2) 0.14922(2) 0.0322 Uani
Ag2 Ag 0.60357(2) 0.29885(2) 0.20186(2) 0.0311 Uani
Ag3 Ag 0.73149(2) 0.09990(2) 0.39054(2) 0.0305 Uani
S1 S 0.72035(4) 0.22555(4) 0.10260(3) 0.0326 Uani
S2 S 0.84658(4) 0.04202(4) 0.27879(3) 0.0315 Uani
S3 S 0.59986(4) 0.19271(4) 0.30620(3) 0.0330 Uani
P1 P 0.77354(3) 0.12101(4) 0.51875(3) 0.0264 Uani
P4 P 0.49932(4) 0.44823(4) 0.19426(3) 0.0303 Uani
C1 C 0.69369(14) 0.10307(14) 0.58670(11) 0.0288 Uani
C2 C 0.60358(14) 0.15000(15) 0.57268(13) 0.0326 Uani
H1 H 0.5863 0.1904 0.5299 0.0390 Uiso
C3 C 0.53853(16) 0.13842(16) 0.62056(14) 0.0384 Uani
H2 H 0.4772 0.1716 0.6110 0.0460 Uiso
C4 C 0.56302(17) 0.07889(17) 0.68172(14) 0.0411 Uani
H3 H 0.5185 0.0704 0.7139 0.0490 Uiso
C5 C 0.65235(18) 0.03138(17) 0.69645(13) 0.0408 Uani
C6 C 0.71821(16) 0.04325(16) 0.64903(12) 0.0351 Uani
H5 H 0.7795 0.0106 0.6593 0.0420 Uiso
C7 C 0.77962(13) 0.21932(14) 0.55417(12) 0.0305 Uani
C8 C 0.77609(15) 0.28703(16) 0.50335(14) 0.0371 Uani
H6 H 0.7709 0.2826 0.4500 0.0450 Uiso
C9 C 0.7802(2) 0.36141(18) 0.53010(18) 0.0505 Uani
H7 H 0.7772 0.4079 0.4950 0.0610 Uiso
C10 C 0.78848(19) 0.36817(19) 0.60714(18) 0.0505 Uani
H8 H 0.7915 0.4192 0.6251 0.0610 Uiso
C11 C 0.79241(17) 0.30141(19) 0.65797(16) 0.0456 Uani
H9 H 0.7982 0.3061 0.7112 0.0550 Uiso
C12 C 0.78790(15) 0.22705(16) 0.63201(13) 0.0362 Uani
H10 H 0.7905 0.1810 0.6675 0.0430 Uiso
C13 C 0.88143(13) 0.03637(14) 0.54631(12) 0.0290 Uani
H11 H 0.8974 0.0473 0.5976 0.0350 Uiso
C14 C 0.95502(13) 0.03422(14) 0.48829(12) 0.0305 Uani
H13 H 0.9397 0.0219 0.4373 0.0370 Uiso
H14 H 0.9588 0.0917 0.4840 0.0370 Uiso
H15 H 0.6523 0.0173 0.2695 0.0430 Uiso
C28 C 0.53351(13) 0.00473(13) 0.46996(11) 0.0265 Uani
H28 H 0.5284 0.0655 0.4663 0.0320 Uiso
H41 H 0.9436 0.0366 0.0647 0.0420 Uiso
C43 C 0.50785(16) 0.51368(14) 0.26999(12) 0.0336 Uani
C44 C 0.43795(19) 0.55457(18) 0.32052(14) 0.0455 Uani
H43 H 0.3828 0.5482 0.3167 0.0550 Uiso
C45 C 0.4485(2) 0.6044(2) 0.37623(16) 0.0553 Uani
H44 H 0.4002 0.6323 0.4103 0.0660 Uiso
C46 C 0.5272(2) 0.61396(18) 0.38299(16) 0.0539 Uani
H45 H 0.5333 0.6494 0.4208 0.0650 Uiso
C47 C 0.5984(2) 0.5717(2) 0.33435(17) 0.0553 Uani
H46 H 0.6536 0.5774 0.3394 0.0660 Uiso
C48 C 0.58896(18) 0.52111(18) 0.27830(14) 0.0458 Uani
H47 H 0.6381 0.4915 0.2456 0.0550 Uiso
C49 C 0.38250(15) 0.46276(15) 0.19258(12) 0.0350 Uani
C50 C 0.36084(18) 0.39265(19) 0.21336(16) 0.0500 Uani
H48 H 0.4061 0.3392 0.2304 0.0600 Uiso
C51 C 0.2732(2) 0.3999(2) 0.2094(2) 0.0664 Uani
H49 H 0.2586 0.3516 0.2244 0.0800 Uiso
C52 C 0.2074(2) 0.4767(2) 0.1840(2) 0.0659 Uani
H50 H 0.1478 0.4810 0.1805 0.0790 Uiso
C53 C 0.22787(19) 0.5473(2) 0.16350(19) 0.0589 Uani
H51 H 0.1823 0.6006 0.1468 0.0710 Uiso
C54 C 0.31486(18) 0.54027(18) 0.16740(17) 0.0484 Uani
H52 H 0.3289 0.5889 0.1527 0.0580 Uiso
C55 C 0.51045(16) 0.51171(14) 0.10832(12) 0.0340 Uani
H53 H 0.4648 0.5715 0.1102 0.0410 Uiso
H54 H 0.5700 0.5148 0.1074 0.0410 Uiso
C56 C 0.49937(17) 0.47190(15) 0.03573(12) 0.0362 Uani
H55 H 0.4421 0.4641 0.0388 0.0430 Uiso
H56 H 0.5482 0.4140 0.0318 0.0430 Uiso
C57 C 0.67253(16) 0.23017(14) 0.01231(12) 0.0326 Uani
C58 C 0.58782(17) 0.22834(15) 0.00450(14) 0.0384 Uani
C63 C 0.53379(19) 0.2165(2) 0.07236(17) 0.0533 Uani
H59 H 0.5717 0.1685 0.1062 0.0800 Uiso
H60 H 0.4842 0.2035 0.0549 0.0800 Uiso
H61 H 0.5101 0.2699 0.1004 0.0800 Uiso
C66 C 0.93346(14) 0.07984(16) 0.26062(11) 0.0331 Uani
C67 C 0.91918(16) 0.16758(17) 0.26411(13) 0.0376 Uani
C68 C 0.98957(18) 0.1936(2) 0.24809(15) 0.0460 Uani
H68 H 0.9794 0.2530 0.2512 0.0550 Uiso
C72 C 0.82849(17) 0.23466(17) 0.28271(15) 0.0423 Uani
H70 H 0.7867 0.2380 0.2426 0.0630 Uiso
H71 H 0.8324 0.2912 0.2855 0.0630 Uiso
H72 H 0.8072 0.2185 0.3321 0.0630 Uiso
C75 C 0.49736(14) 0.24707(14) 0.35550(12) 0.0325 Uani
C76 C 0.48504(16) 0.31777(15) 0.40044(12) 0.0358 Uani
C77 C 0.40161(18) 0.36182(18) 0.43395(15) 0.0469 Uani
H79 H 0.3929 0.4109 0.4625 0.0560 Uiso
C78 C 0.3313(2) 0.3367(2) 0.4271(2) 0.0600 Uani
C79 C 0.34498(18) 0.26688(19) 0.38244(19) 0.0549 Uani
H80 H 0.2970 0.2491 0.3767 0.0660 Uiso
C80 C 0.42541(17) 0.22222(16) 0.34611(15) 0.0413 Uani
C81 C 0.55956(17) 0.34594(17) 0.41228(13) 0.0401 Uani
H81 H 0.6063 0.3005 0.4421 0.0600 Uiso
H82 H 0.5370 0.3995 0.4400 0.0600 Uiso
H83 H 0.5843 0.3563 0.3624 0.0600 Uiso
C82 C 0.2420(3) 0.3849(3) 0.4658(3) 0.1066 Uani
H84 H 0.2514 0.4088 0.5129 0.1600 Uiso
H85 H 0.2124 0.3450 0.4785 0.1600 Uiso
H86 H 0.2046 0.4322 0.4311 0.1600 Uiso
C83 C 0.4334(2) 0.15129(19) 0.29481(18) 0.0528 Uani
H87 H 0.4459 0.1674 0.2421 0.0790 Uiso
H88 H 0.3773 0.1425 0.2965 0.0790 Uiso
H89 H 0.4821 0.0976 0.3122 0.0790 Uiso
P6 P 0.28756(3) 0.04593(3) 0.57902(3) 0.0272 Uani
C98 C 0.30799(14) 0.09464(14) 0.66330(12) 0.0314 Uani
C99 C 0.33910(15) 0.04202(16) 0.72961(13) 0.0354 Uani
C100 C 0.35761(17) 0.07555(19) 0.79435(14) 0.0429 Uani
H105 H 0.3789 0.0392 0.8391 0.0520 Uiso
C101 C 0.34507(18) 0.1617(2) 0.79350(16) 0.0482 Uani
H106 H 0.3577 0.1847 0.8378 0.0580 Uiso
C102 C 0.31422(19) 0.21464(19) 0.72852(18) 0.0497 Uani
H107 H 0.3056 0.2740 0.7281 0.0600 Uiso
C103 C 0.29568(17) 0.18142(16) 0.66369(15) 0.0412 Uani
H108 H 0.2744 0.2183 0.6192 0.0500 Uiso
C104 C 0.18420(14) 0.12811(14) 0.54106(13) 0.0313 Uani
C105 C 0.17695(16) 0.16454(16) 0.46655(14) 0.0398 Uani
H109 H 0.2289 0.1515 0.4350 0.0480 Uiso
C106 C 0.09484(18) 0.21960(19) 0.43801(17) 0.0494 Uani
H110 H 0.0908 0.2439 0.3871 0.0590 Uiso
C107 C 0.01855(17) 0.23928(19) 0.48365(18) 0.0518 Uani
C108 C 0.02468(16) 0.20428(18) 0.55711(18) 0.0491 Uani
C109 C 0.10653(16) 0.14863(16) 0.58639(15) 0.0402 Uani
H113 H 0.1098 0.1244 0.6373 0.0480 Uiso
C110 C 0.37145(13) 0.05493(14) 0.50917(12) 0.0293 Uani
H114 H 0.3669 0.1156 0.5056 0.0350 Uiso
H115 H 0.3582 0.0409 0.4581 0.0350 Uiso
H116 H 0.4806 0.0095 0.5807 0.0320 Uiso
H167 H 0.0029 0.0818 0.7989 0.0690 Uiso
C30 C 0.68076(17) 0.01046(17) 0.95835(15) 0.0431 Uani
H29 H 0.6865 0.0644 0.9604 0.0520 Uiso
C31 C 0.61669(18) 0.00415(19) 0.91242(16) 0.0480 Uani
H30 H 0.5786 0.0538 0.8835 0.0580 Uiso
H40 H 0.8596 0.0286 0.9577 0.0420 Uiso
C59 C 0.5535(2) 0.23483(17) 0.93147(16) 0.0478 Uani
H57 H 0.4951 0.2360 0.9268 0.0570 Uiso
C60 C 0.6018(2) 0.23962(16) 0.86562(15) 0.0527 Uani
C61 C 0.6862(2) 0.23799(17) 0.87418(14) 0.0498 Uani
H58 H 0.7208 0.2395 0.8294 0.0600 Uiso
C62 C 0.72310(18) 0.23428(15) 0.94538(13) 0.0398 Uani
C64 C 0.5612(3) 0.2470(2) 0.78757(18) 0.0785 Uani
H62 H 0.5245 0.2125 0.7888 0.1180 Uiso
H63 H 0.6090 0.2253 0.7490 0.1180 Uiso
H64 H 0.5239 0.3078 0.7745 0.1180 Uiso
C65 C 0.8143(2) 0.2343(2) 0.94980(16) 0.0512 Uani
H65 H 0.8101 0.2891 0.9698 0.0770 Uiso
H66 H 0.8419 0.2281 0.8985 0.0770 Uiso
H67 H 0.8507 0.1859 0.9840 0.0770 Uiso
H125 H 0.9833 0.3716 0.8067 0.0650 Uiso
H126 H 0.9728 0.3476 0.9387 0.0620 Uiso
H131 H 0.9955 0.0645 0.9406 0.0420 Uiso
P8 P 0.50068(4) 0.55177(4) 0.80574(3) 0.0303 Uani
C126 C 0.49215(16) 0.48632(14) 0.73001(12) 0.0336 Uani
C127 C 0.56205(19) 0.44543(18) 0.67948(14) 0.0455 Uani
H132 H 0.6172 0.4518 0.6833 0.0550 Uiso
C128 C 0.5515(2) 0.3956(2) 0.62377(16) 0.0553 Uani
H133 H 0.5998 0.3677 0.5897 0.0660 Uiso
C129 C 0.4728(2) 0.38604(18) 0.61701(16) 0.0539 Uani
H134 H 0.4667 0.3506 0.5792 0.0650 Uiso
C130 C 0.4016(2) 0.4283(2) 0.66565(17) 0.0553 Uani
H135 H 0.3464 0.4226 0.6606 0.0660 Uiso
C131 C 0.41104(18) 0.47889(18) 0.72170(14) 0.0458 Uani
H136 H 0.3619 0.5085 0.7544 0.0550 Uiso
C132 C 0.61750(15) 0.53724(15) 0.80742(12) 0.0350 Uani
C133 C 0.63916(18) 0.60735(19) 0.78664(16) 0.0500 Uani
H137 H 0.5939 0.6608 0.7696 0.0600 Uiso
C134 C 0.7268(2) 0.6001(2) 0.7906(2) 0.0664 Uani
H138 H 0.7414 0.6484 0.7756 0.0800 Uiso
C135 C 0.7926(2) 0.5233(2) 0.8160(2) 0.0659 Uani
H139 H 0.8522 0.5190 0.8195 0.0790 Uiso
C136 C 0.77213(19) 0.4527(2) 0.83650(19) 0.0589 Uani
H140 H 0.8177 0.3994 0.8532 0.0710 Uiso
C137 C 0.68514(18) 0.45973(18) 0.83260(17) 0.0484 Uani
H141 H 0.6711 0.4111 0.8473 0.0580 Uiso
C138 C 0.48955(16) 0.48829(14) 0.89168(12) 0.0340 Uani
H142 H 0.5352 0.4285 0.8898 0.0410 Uiso
H143 H 0.4300 0.4852 0.8926 0.0410 Uiso
C139 C 0.50063(17) 0.52810(15) 0.96427(12) 0.0362 Uani
H144 H 0.5579 0.5359 0.9612 0.0430 Uiso
H145 H 0.4518 0.5860 0.9682 0.0430 Uiso
Ag8 Ag 0.39643(2) 0.70115(2) 0.79814(2) 0.0311 Uani
C142 C 0.4465(2) 0.76517(17) 0.06853(16) 0.0478 Uani
H146 H 0.5049 0.7640 0.0732 0.0570 Uiso
C143 C 0.3982(2) 0.76038(16) 0.13438(15) 0.0527 Uani
C144 C 0.3138(2) 0.76201(17) 0.12582(14) 0.0498 Uani
H147 H 0.2792 0.7605 0.1706 0.0600 Uiso
C145 C 0.27690(18) 0.76572(15) 0.05462(13) 0.0398 Uani
C147 C 0.4388(3) 0.7530(2) 0.21243(18) 0.0785 Uani
H151 H 0.4755 0.7875 0.2112 0.1180 Uiso
H152 H 0.3910 0.7747 0.2510 0.1180 Uiso
H153 H 0.4761 0.6922 0.2255 0.1180 Uiso
C148 C 0.1857(2) 0.7657(2) 0.05020(16) 0.0512 Uani
H154 H 0.1899 0.7109 0.0302 0.0770 Uiso
H155 H 0.1581 0.7719 0.1015 0.0770 Uiso
H156 H 0.1493 0.8141 0.0160 0.0770 Uiso
P2 P 0.71244(3) 0.95407(3) 0.42098(3) 0.0272 Uani
P3 P 0.81842(4) 0.95392(4) 0.06126(3) 0.0305 Uani
H4 H 0.6690 0.9905 0.7389 0.0490 Uiso
H12 H 0.8765 0.9793 0.5496 0.0350 Uiso
C15 C 0.69201(14) 0.90536(14) 0.33670(12) 0.0314 Uani
C16 C 0.66090(15) 0.95798(16) 0.27039(13) 0.0354 Uani
C17 C 0.64239(17) 0.92445(19) 0.20565(14) 0.0429 Uani
H16 H 0.6211 0.9608 0.1609 0.0520 Uiso
C18 C 0.65493(18) 0.8383(2) 0.20650(16) 0.0482 Uani
H17 H 0.6423 0.8153 0.1622 0.0580 Uiso
C19 C 0.68578(19) 0.78536(19) 0.27148(18) 0.0497 Uani
H18 H 0.6944 0.7260 0.2719 0.0600 Uiso
C20 C 0.70432(17) 0.81858(16) 0.33631(15) 0.0412 Uani
H19 H 0.7256 0.7817 0.3808 0.0500 Uiso
C21 C 0.81580(14) 0.87189(14) 0.45894(13) 0.0313 Uani
C22 C 0.82305(16) 0.83546(16) 0.53345(14) 0.0398 Uani
H20 H 0.7711 0.8485 0.5650 0.0480 Uiso
C23 C 0.90516(18) 0.78040(19) 0.56199(17) 0.0494 Uani
H21 H 0.9092 0.7561 0.6129 0.0590 Uiso
C24 C 0.98145(17) 0.76072(19) 0.51635(18) 0.0518 Uani
C25 C 0.97532(16) 0.79572(18) 0.44289(18) 0.0491 Uani
C26 C 0.89347(16) 0.85137(16) 0.41361(15) 0.0402 Uani
H24 H 0.8902 0.8756 0.3627 0.0480 Uiso
C27 C 0.62855(13) 0.94507(14) 0.49083(12) 0.0293 Uani
H25 H 0.6331 0.8844 0.4944 0.0350 Uiso
H26 H 0.6418 0.9591 0.5419 0.0350 Uiso
H27 H 0.5194 0.9905 0.4193 0.0320 Uiso
C29 C 0.73681(14) 0.93906(15) 0.00140(12) 0.0325 Uani
H33 H 0.7653 0.8107 0.0264 0.0580 Uiso
C35 C 0.88497(14) 0.84596(15) 0.10150(13) 0.0329 Uani
C36 C 0.88045(17) 0.83058(18) 0.17996(14) 0.0438 Uani
H34 H 0.8433 0.8759 0.2109 0.0530 Uiso
C37 C 0.9294(2) 0.7498(2) 0.21383(17) 0.0577 Uani
H35 H 0.9256 0.7401 0.2677 0.0690 Uiso
C38 C 0.98349(19) 0.68382(19) 0.16987(18) 0.0541 Uani
C39 C 0.98960(18) 0.69797(19) 0.09174(17) 0.0515 Uani
C40 C 0.94088(17) 0.77868(18) 0.05770(15) 0.0429 Uani
H38 H 0.9456 0.7883 0.0039 0.0520 Uiso
C42 C 0.96925(15) 0.98905(17) 0.02900(12) 0.0347 Uani
H78 H 0.9971 0.9182 0.2011 0.0690 Uiso
H104 H 0.3477 0.9827 0.7305 0.0430 Uiso
C111 C 0.46649(13) 0.99527(13) 0.53004(11) 0.0265 Uani
H117 H 0.4716 0.9345 0.5337 0.0320 Uiso
S4 S 0.27965(4) 0.77445(4) 0.89740(3) 0.0326 Uani
S5 S 0.15342(4) 0.95798(4) 0.72121(3) 0.0315 Uani
S6 S 0.40014(4) 0.80729(4) 0.69380(3) 0.0330 Uani
C140 C 0.32747(16) 0.76983(14) 0.98769(12) 0.0326 Uani
C141 C 0.41218(17) 0.77166(15) 0.99550(14) 0.0384 Uani
C146 C 0.46621(19) 0.7835(2) 0.92764(17) 0.0533 Uani
H148 H 0.4283 0.8315 0.8938 0.0800 Uiso
H149 H 0.5158 0.7965 0.9451 0.0800 Uiso
H150 H 0.4899 0.7301 0.8996 0.0800 Uiso
C149 C 0.06654(14) 0.92016(16) 0.73938(11) 0.0331 Uani
C150 C 0.08082(16) 0.83242(17) 0.73589(13) 0.0376 Uani
C151 C 0.01043(18) 0.8064(2) 0.75191(15) 0.0460 Uani
H157 H 0.0206 0.7470 0.7488 0.0550 Uiso
C155 C 0.17151(17) 0.76534(17) 0.71729(15) 0.0423 Uani
H159 H 0.2133 0.7620 0.7574 0.0630 Uiso
H160 H 0.1676 0.7088 0.7145 0.0630 Uiso
H161 H 0.1928 0.7815 0.6679 0.0630 Uiso
C158 C 0.50264(14) 0.75293(14) 0.64450(12) 0.0325 Uani
C159 C 0.51496(16) 0.68223(15) 0.59956(12) 0.0358 Uani
C160 C 0.59839(18) 0.63818(18) 0.56605(15) 0.0469 Uani
H168 H 0.6071 0.5891 0.5375 0.0560 Uiso
C161 C 0.6687(2) 0.6633(2) 0.5729(2) 0.0600 Uani
C162 C 0.65502(18) 0.73312(19) 0.61756(19) 0.0549 Uani
H169 H 0.7030 0.7509 0.6233 0.0660 Uiso
C163 C 0.57459(17) 0.77778(16) 0.65389(15) 0.0413 Uani
C164 C 0.44044(17) 0.65406(17) 0.58772(13) 0.0401 Uani
H170 H 0.3937 0.6995 0.5579 0.0600 Uiso
H171 H 0.4630 0.6005 0.5600 0.0600 Uiso
H172 H 0.4157 0.6437 0.6376 0.0600 Uiso
C165 C 0.7580(3) 0.6151(3) 0.5342(3) 0.1066 Uani
H173 H 0.7486 0.5912 0.4871 0.1600 Uiso
H174 H 0.7876 0.6550 0.5215 0.1600 Uiso
H175 H 0.7954 0.5678 0.5689 0.1600 Uiso
C166 C 0.5666(2) 0.84871(19) 0.70519(18) 0.0528 Uani
H176 H 0.5541 0.8326 0.7579 0.0790 Uiso
H177 H 0.6227 0.8575 0.7035 0.0790 Uiso
H178 H 0.5179 0.9024 0.6878 0.0790 Uiso
C32 C 0.60765(19) 0.9267(2) 0.90831(17) 0.0502 Uani
H31 H 0.5634 0.9225 0.8768 0.0600 Uiso
C33 C 0.6636(2) 0.8547(2) 0.9505(2) 0.0588 Uani
H32 H 0.6581 0.8007 0.9473 0.0710 Uiso
C34 C 0.72765(18) 0.86037(19) 0.99721(17) 0.0482 Uani
C41 C 0.89364(15) 0.97598(17) 0.98968(12) 0.0350 Uani
H39 H 0.9190 0.9268 0.9557 0.0420 Uiso
H111 H 0.9622 0.2769 0.4640 0.0620 Uiso
H112 H 0.9724 0.2182 0.5884 0.0590 Uiso
C157 C 0.96143(17) 0.07471(18) 0.76341(15) 0.0459 Uani
H165 H 0.9691 0.0987 0.7124 0.0690 Uiso
H166 H 0.9000 0.1053 0.7817 0.0690 Uiso
C152 C 0.92576(18) 0.8644(2) 0.77236(16) 0.0501 Uani
C153 C 0.91286(16) 0.9505(2) 0.77596(14) 0.0464 Uani
H158 H 0.8555 0.9909 0.7905 0.0560 Uiso
C154 C 0.98026(15) 0.98034(17) 0.75922(12) 0.0379 Uani
C156 C 0.8500(2) 0.8349(3) 0.7896(2) 0.0698 Uani
H162 H 0.8744 0.7737 0.8071 0.1050 Uiso
H163 H 0.8111 0.8696 0.8298 0.1050 Uiso
H164 H 0.8155 0.8424 0.7431 0.1050 Uiso
loop_
_atom_site_aniso_label
_atom_site_aniso_U_11
_atom_site_aniso_U_22
_atom_site_aniso_U_33
_atom_site_aniso_U_23
_atom_site_aniso_U_13
_atom_site_aniso_U_12
C69 0.0368 0.073 0.0447 0.0083 -0.0035 -0.0275
C70 0.0303 0.0686 0.0345 0.0025 -0.0005 -0.0137
C71 0.0304 0.0542 0.0237 0.0009 -0.0023 -0.0109
C73 0.0459 0.087 0.084 0.0081 0.0025 -0.0363
C115 0.0452 0.0556 0.0583 -0.0019 -0.0189 -0.0273
C116 0.0578 0.0494 0.082 0.0056 -0.0219 -0.0342
C117 0.0453 0.0475 0.0604 0.0112 -0.0161 -0.028
C124 0.0356 0.0499 0.0259 -0.002 0.0006 -0.0237
P7 0.0292 0.0376 0.0273 -0.0026 -0.0001 -0.0158
C112 0.0287 0.0415 0.0308 -0.0064 0.0011 -0.017
C118 0.0264 0.0388 0.0351 -0.0039 0.0002 -0.0142
C119 0.039 0.0453 0.0383 -0.0005 0.0051 -0.0077
C120 0.0554 0.0527 0.0462 0.0069 0.0021 -0.0026
C121 0.0409 0.0425 0.0642 0.0028 -0.0002 -0.0013
C122 0.04 0.044 0.0611 -0.0113 0.0056 -0.0057
C123 0.04 0.0485 0.04 -0.008 0.0044 -0.0166
C125 0.0346 0.0473 0.0283 -0.002 0.0013 -0.0226
C74 0.0373 0.0523 0.0384 -0.0032 -0.0017 -0.0068
P5 0.0236 0.0289 0.0256 -0.00174 0.00063 -0.0092
C84 0.0288 0.0311 0.0275 -0.0051 0.0027 -0.0125
C85 0.0289 0.0331 0.0368 -0.0061 0.0026 -0.0128
C86 0.0297 0.0405 0.0484 -0.0147 0.0074 -0.0164
C87 0.0431 0.0479 0.0427 -0.0153 0.0166 -0.0287
C88 0.0511 0.0466 0.0306 -0.0026 0.007 -0.0261
C89 0.0349 0.0406 0.0308 -0.0016 0.0014 -0.0162
C90 0.0243 0.0331 0.0342 -0.0051 0.0025 -0.011
C91 0.0346 0.0384 0.0394 -0.003 0.0045 -0.0157
C92 0.0532 0.039 0.0628 -0.0033 0.0108 -0.0228
C93 0.0492 0.0431 0.0674 -0.021 0.0119 -0.0254
C94 0.0394 0.0543 0.0478 -0.0199 0.0049 -0.0213
C95 0.0326 0.04 0.0358 -0.0075 -0.0004 -0.0131
C96 0.0252 0.0308 0.0283 -0.0014 0.0008 -0.0083
C97 0.0247 0.0329 0.0316 -0.0018 0.0015 -0.0091
C113 0.0428 0.0381 0.0499 -0.0059 -0.0103 -0.0159
C114 0.0451 0.0479 0.0513 -0.0002 -0.0183 -0.0171
Ag9 0.03097 0.03269 0.02584 -0.00027 -0.00072 -0.01054
Ag7 0.02916 0.03821 0.02833 -0.00066 -0.00057 -0.0123
Ag1 0.02916 0.03821 0.02833 -0.00066 -0.00057 -0.0123
Ag2 0.03175 0.02965 0.02785 -0.00022 -0.00064 -0.00781
Ag3 0.03097 0.03269 0.02584 -0.00027 -0.00072 -0.01054
S1 0.0327 0.0344 0.0278 -0.00443 -0.00078 -0.0096
S2 0.0308 0.0379 0.0248 -0.00127 0.00084 -0.0126
S3 0.034 0.03 0.0298 0.00407 -0.0025 -0.0074
P1 0.0236 0.0289 0.0256 -0.00174 0.00063 -0.0092
P4 0.0326 0.028 0.0255 0.00051 0.0012 -0.007
C1 0.0288 0.0311 0.0275 -0.0051 0.0027 -0.0125
C2 0.0289 0.0331 0.0368 -0.0061 0.0026 -0.0128
C3 0.0297 0.0405 0.0484 -0.0147 0.0074 -0.0164
C4 0.0431 0.0479 0.0427 -0.0153 0.0166 -0.0287
C5 0.0511 0.0466 0.0306 -0.0026 0.007 -0.0261
C6 0.0349 0.0406 0.0308 -0.0016 0.0014 -0.0162
C7 0.0243 0.0331 0.0342 -0.0051 0.0025 -0.011
C8 0.0346 0.0384 0.0394 -0.003 0.0045 -0.0157
C9 0.0532 0.039 0.0628 -0.0033 0.0108 -0.0228
C10 0.0492 0.0431 0.0674 -0.021 0.0119 -0.0254
C11 0.0394 0.0543 0.0478 -0.0199 0.0049 -0.0213
C12 0.0326 0.04 0.0358 -0.0075 -0.0004 -0.0131
C13 0.0252 0.0308 0.0283 -0.0014 0.0008 -0.0083
C14 0.0247 0.0329 0.0316 -0.0018 0.0015 -0.0091
C28 0.0245 0.0287 0.0269 -0.0017 0.0011 -0.0112
C43 0.0389 0.0299 0.0267 0.0008 -0.0029 -0.008
C44 0.0463 0.0478 0.0352 -0.01 0.0026 -0.0098
C45 0.0559 0.0548 0.0396 -0.0158 -0.0028 -0.0028
C46 0.074 0.0388 0.0411 -0.0082 -0.0151 -0.0113
C47 0.0581 0.061 0.0495 -0.0029 -0.0156 -0.0248
C48 0.0459 0.0506 0.037 -0.004 -0.0029 -0.0143
C49 0.0349 0.0361 0.0292 0.0019 -0.0003 -0.0091
C50 0.0421 0.0487 0.056 0.0192 -0.0085 -0.0169
C51 0.0495 0.065 0.088 0.0275 -0.0165 -0.029
C52 0.0341 0.074 0.087 0.0169 -0.0107 -0.0206
C53 0.0357 0.0519 0.075 0.0099 -0.0082 -0.0032
C54 0.0409 0.0379 0.0589 0.005 -0.0015 -0.0085
C55 0.045 0.0288 0.0262 0.0007 0.0017 -0.0129
C56 0.0498 0.03 0.0261 0.0005 0.0012 -0.013
C57 0.0405 0.0253 0.0289 -0.002 -0.0039 -0.009
C58 0.0434 0.0299 0.0403 -0.0037 -0.0078 -0.0117
C63 0.0465 0.07 0.055 -0.0133 -0.0003 -0.0338
C66 0.0304 0.0455 0.0227 0.0027 -0.0026 -0.0144
C67 0.0343 0.0495 0.0305 0.0011 -0.0025 -0.0182
C68 0.0424 0.0549 0.0462 0.0054 -0.0045 -0.0259
C72 0.0411 0.0445 0.0437 -0.0031 0.0026 -0.0194
C75 0.0321 0.0308 0.031 0.0081 -0.0032 -0.0096
C76 0.0391 0.0336 0.029 0.0051 -0.0023 -0.0088
C77 0.0458 0.0402 0.044 0.0039 0.0083 -0.0071
C78 0.0438 0.0457 0.077 0.0123 0.0177 -0.0068
C79 0.0369 0.0482 0.079 0.0223 -0.0001 -0.0199
C80 0.0402 0.0366 0.0482 0.0143 -0.007 -0.0181
C81 0.0488 0.0388 0.0328 0.0014 -0.0068 -0.017
C82 0.058 0.069 0.175 0 0.055 -0.012
C83 0.0561 0.0453 0.0644 0.0093 -0.016 -0.0283
P6 0.0248 0.0256 0.0299 8e-05 0.00319 -0.009
C98 0.0286 0.0315 0.0343 -0.0065 0.0102 -0.0121
C99 0.0341 0.0375 0.0344 -0.0038 0.0067 -0.0141
C100 0.0382 0.0587 0.0348 -0.0102 0.0065 -0.0216
C101 0.0434 0.0623 0.0476 -0.0244 0.0104 -0.0278
C102 0.0507 0.0403 0.0644 -0.018 0.01 -0.0233
C103 0.0404 0.0359 0.049 -0.006 0.0043 -0.0165
C104 0.0263 0.0257 0.0408 -0.0002 0.0015 -0.0093
C105 0.0302 0.0407 0.0451 0.008 -0.002 -0.0115
C106 0.0395 0.0465 0.057 0.015 -0.0114 -0.0127
C107 0.0287 0.0442 0.076 0.0082 -0.0103 -0.0079
C108 0.0267 0.041 0.0743 -0.0018 0.0066 -0.0083
C109 0.0328 0.0351 0.0503 -0.0013 0.0083 -0.0117
C110 0.0269 0.0292 0.0307 -0.0001 0.004 -0.0105
C30 0.0428 0.0381 0.0499 -0.0059 -0.0103 -0.0159
C31 0.0451 0.0479 0.0513 -0.0002 -0.0183 -0.0171
C59 0.0569 0.0322 0.0528 -0.0044 -0.023 -0.0133
C60 0.09 0.0277 0.0367 0.001 -0.0235 -0.0173
C61 0.085 0.0328 0.0305 -0.0024 0.0001 -0.0219
C62 0.0577 0.0305 0.0305 -0.0043 0.0034 -0.0165
C64 0.14 0.0463 0.0498 0.0054 -0.045 -0.034
C65 0.0576 0.0555 0.0429 -0.0115 0.0182 -0.025
P8 0.0326 0.028 0.0255 0.00051 0.0012 -0.007
C126 0.0389 0.0299 0.0267 0.0008 -0.0029 -0.008
C127 0.0463 0.0478 0.0352 -0.01 0.0026 -0.0098
C128 0.0559 0.0548 0.0396 -0.0158 -0.0028 -0.0028
C129 0.074 0.0388 0.0411 -0.0082 -0.0151 -0.0113
C130 0.0581 0.061 0.0495 -0.0029 -0.0156 -0.0248
C131 0.0459 0.0506 0.037 -0.004 -0.0029 -0.0143
C132 0.0349 0.0361 0.0292 0.0019 -0.0003 -0.0091
C133 0.0421 0.0487 0.056 0.0192 -0.0085 -0.0169
C134 0.0495 0.065 0.088 0.0275 -0.0165 -0.029
C135 0.0341 0.074 0.087 0.0169 -0.0107 -0.0206
C136 0.0357 0.0519 0.075 0.0099 -0.0082 -0.0032
C137 0.0409 0.0379 0.0589 0.005 -0.0015 -0.0085
C138 0.045 0.0288 0.0262 0.0007 0.0017 -0.0129
C139 0.0498 0.03 0.0261 0.0005 0.0012 -0.013
Ag8 0.03175 0.02965 0.02785 -0.00022 -0.00064 -0.00781
C142 0.0569 0.0322 0.0528 -0.0044 -0.023 -0.0133
C143 0.09 0.0277 0.0367 0.001 -0.0235 -0.0173
C144 0.085 0.0328 0.0305 -0.0024 0.0001 -0.0219
C145 0.0577 0.0305 0.0305 -0.0043 0.0034 -0.0165
C147 0.14 0.0463 0.0498 0.0054 -0.045 -0.034
C148 0.0576 0.0555 0.0429 -0.0115 0.0182 -0.025
P2 0.0248 0.0256 0.0299 8e-05 0.00319 -0.009
P3 0.0292 0.0376 0.0273 -0.0026 -0.0001 -0.0158
C15 0.0286 0.0315 0.0343 -0.0065 0.0102 -0.0121
C16 0.0341 0.0375 0.0344 -0.0038 0.0067 -0.0141
C17 0.0382 0.0587 0.0348 -0.0102 0.0065 -0.0216
C18 0.0434 0.0623 0.0476 -0.0244 0.0104 -0.0278
C19 0.0507 0.0403 0.0644 -0.018 0.01 -0.0233
C20 0.0404 0.0359 0.049 -0.006 0.0043 -0.0165
C21 0.0263 0.0257 0.0408 -0.0002 0.0015 -0.0093
C22 0.0302 0.0407 0.0451 0.008 -0.002 -0.0115
C23 0.0395 0.0465 0.057 0.015 -0.0114 -0.0127
C24 0.0287 0.0442 0.076 0.0082 -0.0103 -0.0079
C25 0.0267 0.041 0.0743 -0.0018 0.0066 -0.0083
C26 0.0328 0.0351 0.0503 -0.0013 0.0083 -0.0117
C27 0.0269 0.0292 0.0307 -0.0001 0.004 -0.0105
C29 0.0287 0.0415 0.0308 -0.0064 0.0011 -0.017
C35 0.0264 0.0388 0.0351 -0.0039 0.0002 -0.0142
C36 0.039 0.0453 0.0383 -0.0005 0.0051 -0.0077
C37 0.0554 0.0527 0.0462 0.0069 0.0021 -0.0026
C38 0.0409 0.0425 0.0642 0.0028 -0.0002 -0.0013
C39 0.04 0.044 0.0611 -0.0113 0.0056 -0.0057
C40 0.04 0.0485 0.04 -0.008 0.0044 -0.0166
C42 0.0346 0.0473 0.0283 -0.002 0.0013 -0.0226
C111 0.0245 0.0287 0.0269 -0.0017 0.0011 -0.0112
S4 0.0327 0.0344 0.0278 -0.00443 -0.00078 -0.0096
S5 0.0308 0.0379 0.0248 -0.00127 0.00084 -0.0126
S6 0.034 0.03 0.0298 0.00407 -0.0025 -0.0074
C140 0.0405 0.0253 0.0289 -0.002 -0.0039 -0.009
C141 0.0434 0.0299 0.0403 -0.0037 -0.0078 -0.0117
C146 0.0465 0.07 0.055 -0.0133 -0.0003 -0.0338
C149 0.0304 0.0455 0.0227 0.0027 -0.0026 -0.0144
C150 0.0343 0.0495 0.0305 0.0011 -0.0025 -0.0182
C151 0.0424 0.0549 0.0462 0.0054 -0.0045 -0.0259
C155 0.0411 0.0445 0.0437 -0.0031 0.0026 -0.0194
C158 0.0321 0.0308 0.031 0.0081 -0.0032 -0.0096
C159 0.0391 0.0336 0.029 0.0051 -0.0023 -0.0088
C160 0.0458 0.0402 0.044 0.0039 0.0083 -0.0071
C161 0.0438 0.0457 0.077 0.0123 0.0177 -0.0068
C162 0.0369 0.0482 0.079 0.0223 -0.0001 -0.0199
C163 0.0402 0.0366 0.0482 0.0143 -0.007 -0.0181
C164 0.0488 0.0388 0.0328 0.0014 -0.0068 -0.017
C165 0.058 0.069 0.175 0 0.055 -0.012
C166 0.0561 0.0453 0.0644 0.0093 -0.016 -0.0283
C32 0.0452 0.0556 0.0583 -0.0019 -0.0189 -0.0273
C33 0.0578 0.0494 0.082 0.0056 -0.0219 -0.0342
C34 0.0453 0.0475 0.0604 0.0112 -0.0161 -0.028
C41 0.0356 0.0499 0.0259 -0.002 0.0006 -0.0237
C157 0.0373 0.0523 0.0384 -0.0032 -0.0017 -0.0068
C152 0.0368 0.073 0.0447 0.0083 -0.0035 -0.0275
C153 0.0303 0.0686 0.0345 0.0025 -0.0005 -0.0137
C154 0.0304 0.0542 0.0237 0.0009 -0.0023 -0.0109
C156 0.0459 0.087 0.084 0.0081 0.0025 -0.0363
loop_
_geom_bond_atom_site_label_1
_geom_bond_atom_site_label_2
_geom_bond_site_symmetry_1
_geom_bond_site_symmetry_2
C70 C69 1_555 1_555
H69 C70 1_555 1_555
C73 C69 1_555 1_555
H73 C73 1_555 1_555
H74 C73 1_555 1_555
H75 C73 1_555 1_555
H120 C115 1_555 1_555
C116 C115 1_555 1_555
H121 C116 1_555 1_555
H128 C124 1_555 1_555
C70 C71 1_555 1_555
C116 C117 1_555 1_555
P7 C112 1_555 1_555
C118 P7 1_555 1_555
C119 C118 1_555 1_555
H123 C119 1_555 1_555
C120 C119 1_555 1_555
H124 C120 1_555 1_555
C121 C120 1_555 1_555
C122 C121 1_555 1_555
C123 C118 1_555 1_555
H127 C123 1_555 1_555
C122 C123 1_555 1_555
H76 C74 1_555 1_555
H77 C74 1_555 1_555
P5 C84 1_555 1_555
C84 C85 1_555 1_555
C85 H90 1_555 1_555
C86 C85 1_555 1_555
H91 C86 1_555 1_555
C87 C86 1_555 1_555
H92 C87 1_555 1_555
C88 C87 1_555 1_555
C89 C84 1_555 1_555
H94 C89 1_555 1_555
C90 P5 1_555 1_555
C91 C90 1_555 1_555
H95 C91 1_555 1_555
C92 C91 1_555 1_555
H96 C92 1_555 1_555
C93 C92 1_555 1_555
H97 C93 1_555 1_555
C94 C93 1_555 1_555
H98 C94 1_555 1_555
C95 C90 1_555 1_555
H99 C95 1_555 1_555
C96 P5 1_555 1_555
H100 C96 1_555 1_555
H102 C97 1_555 1_555
H103 C97 1_555 1_555
C113 H118 1_555 1_555
C114 C113 1_555 1_555
H119 C114 1_555 1_555
Ag9 P5 1_555 1_555
C88 C89 1_555 1_555
C94 C95 1_555 1_555
C96 C97 1_555 1_555
Ag1 S1 1_555 1_555
Ag2 S1 1_555 1_555
Ag3 S2 1_555 1_555
S1 C57 1_555 1_555
S2 Ag1 1_555 1_555
S3 Ag2 1_555 1_555
P1 Ag3 1_555 1_555
P4 Ag2 1_555 1_555
C1 P1 1_555 1_555
C2 C1 1_555 1_555
H1 C2 1_555 1_555
C3 C2 1_555 1_555
H2 C3 1_555 1_555
C4 C3 1_555 1_555
H3 C4 1_555 1_555
C5 C4 1_555 1_555
C6 C1 1_555 1_555
H5 C6 1_555 1_555
C7 P1 1_555 1_555
C8 C7 1_555 1_555
H6 C8 1_555 1_555
C9 C8 1_555 1_555
H7 C9 1_555 1_555
C10 C9 1_555 1_555
H8 C10 1_555 1_555
C11 C10 1_555 1_555
H9 C11 1_555 1_555
C12 C7 1_555 1_555
H10 C12 1_555 1_555
C13 P1 1_555 1_555
H11 C13 1_555 1_555
C14 C13 1_555 1_555
H13 C14 1_555 1_555
H14 C14 1_555 1_555
H28 C28 1_555 1_555
C43 P4 1_555 1_555
C44 C43 1_555 1_555
H43 C44 1_555 1_555
C45 C44 1_555 1_555
H44 C45 1_555 1_555
C46 C45 1_555 1_555
H45 C46 1_555 1_555
C47 C46 1_555 1_555
H46 C47 1_555 1_555
C48 C43 1_555 1_555
H47 C48 1_555 1_555
C49 P4 1_555 1_555
C50 C49 1_555 1_555
H48 C50 1_555 1_555
C51 C50 1_555 1_555
H49 C51 1_555 1_555
C52 C51 1_555 1_555
H50 C52 1_555 1_555
C53 C52 1_555 1_555
H51 C53 1_555 1_555
C54 C49 1_555 1_555
H52 C54 1_555 1_555
C55 P4 1_555 1_555
H53 C55 1_555 1_555
H54 C55 1_555 1_555
C56 C55 1_555 1_555
H55 C56 1_555 1_555
H56 C56 1_555 1_555
C57 C58 1_555 1_555
C63 C58 1_555 1_555
H59 C63 1_555 1_555
H60 C63 1_555 1_555
H61 C63 1_555 1_555
C66 S2 1_555 1_555
C67 C66 1_555 1_555
C68 C67 1_555 1_555
H68 C68 1_555 1_555
C72 C67 1_555 1_555
H70 C72 1_555 1_555
H71 C72 1_555 1_555
H72 C72 1_555 1_555
C75 S3 1_555 1_555
C76 C75 1_555 1_555
C77 C76 1_555 1_555
H79 C77 1_555 1_555
C78 C77 1_555 1_555
C79 C78 1_555 1_555
H80 C79 1_555 1_555
C80 C75 1_555 1_555
C81 C76 1_555 1_555
H81 C81 1_555 1_555
H82 C81 1_555 1_555
H83 C81 1_555 1_555
C82 C78 1_555 1_555
H84 C82 1_555 1_555
H85 C82 1_555 1_555
H86 C82 1_555 1_555
C83 C80 1_555 1_555
H87 C83 1_555 1_555
H88 C83 1_555 1_555
H89 C83 1_555 1_555
P6 C98 1_555 1_555
C98 C99 1_555 1_555
C100 C99 1_555 1_555
H105 C100 1_555 1_555
C101 C100 1_555 1_555
H106 C101 1_555 1_555
C102 C101 1_555 1_555
H107 C102 1_555 1_555
C103 C98 1_555 1_555
H108 C103 1_555 1_555
C104 P6 1_555 1_555
C105 C104 1_555 1_555
H109 C105 1_555 1_555
C106 C105 1_555 1_555
H110 C106 1_555 1_555
C107 C106 1_555 1_555
C108 C107 1_555 1_555
C109 C104 1_555 1_555
H113 C109 1_555 1_555
C110 P6 1_555 1_555
H114 C110 1_555 1_555
H115 C110 1_555 1_555
Ag3 S3 1_555 1_555
C5 C6 1_555 1_555
C11 C12 1_555 1_555
C47 C48 1_555 1_555
C53 C54 1_555 1_555
C79 C80 1_555 1_555
C102 C103 1_555 1_555
C108 C109 1_555 1_555
H29 C30 1_555 1_555
C31 C30 1_555 1_555
H30 C31 1_555 1_555
C59 H57 1_555 1_555
C60 C59 1_555 1_555
C61 C60 1_555 1_555
H58 C61 1_555 1_555
C64 C60 1_555 1_555
H62 C64 1_555 1_555
H63 C64 1_555 1_555
H64 C64 1_555 1_555
C65 C62 1_555 1_555
H65 C65 1_555 1_555
H66 C65 1_555 1_555
H67 C65 1_555 1_555
P8 C126 1_555 1_555
C126 C127 1_555 1_555
C127 H132 1_555 1_555
C128 C127 1_555 1_555
H133 C128 1_555 1_555
C129 C128 1_555 1_555
H134 C129 1_555 1_555
C130 C129 1_555 1_555
H135 C130 1_555 1_555
C131 C126 1_555 1_555
H136 C131 1_555 1_555
C132 P8 1_555 1_555
C133 C132 1_555 1_555
H137 C133 1_555 1_555
C134 C133 1_555 1_555
H138 C134 1_555 1_555
C135 C134 1_555 1_555
H139 C135 1_555 1_555
C136 C135 1_555 1_555
H140 C136 1_555 1_555
C137 C132 1_555 1_555
H141 C137 1_555 1_555
C138 P8 1_555 1_555
H142 C138 1_555 1_555
H143 C138 1_555 1_555
H144 C139 1_555 1_555
H145 C139 1_555 1_555
Ag8 P8 1_555 1_555
C61 C62 1_555 1_555
C130 C131 1_555 1_555
C136 C137 1_555 1_555
C138 C139 1_555 1_555
C142 H146 1_555 1_555
C143 C142 1_555 1_555
C144 C143 1_555 1_555
H147 C144 1_555 1_555
C147 C143 1_555 1_555
H151 C147 1_555 1_555
H152 C147 1_555 1_555
H153 C147 1_555 1_555
C148 C145 1_555 1_555
H154 C148 1_555 1_555
H155 C148 1_555 1_555
H156 C148 1_555 1_555
C144 C145 1_555 1_555
C15 P2 1_555 1_555
C16 C15 1_555 1_555
C17 C16 1_555 1_555
H16 C17 1_555 1_555
C18 C17 1_555 1_555
H17 C18 1_555 1_555
C19 C18 1_555 1_555
H18 C19 1_555 1_555
C20 C15 1_555 1_555
H19 C20 1_555 1_555
C21 P2 1_555 1_555
C22 C21 1_555 1_555
H20 C22 1_555 1_555
C23 C22 1_555 1_555
H21 C23 1_555 1_555
C24 C23 1_555 1_555
C25 C24 1_555 1_555
C26 C21 1_555 1_555
H24 C26 1_555 1_555
C27 P2 1_555 1_555
H25 C27 1_555 1_555
H26 C27 1_555 1_555
C29 P3 1_555 1_555
C35 P3 1_555 1_555
C36 C35 1_555 1_555
H34 C36 1_555 1_555
C37 C36 1_555 1_555
H35 C37 1_555 1_555
C38 C37 1_555 1_555
C39 C38 1_555 1_555
C40 C35 1_555 1_555
H38 C40 1_555 1_555
H117 C111 1_555 1_555
Ag7 S4 1_555 1_555
Ag8 S4 1_555 1_555
S4 C140 1_555 1_555
S5 Ag7 1_555 1_555
S6 Ag8 1_555 1_555
C140 C141 1_555 1_555
C146 C141 1_555 1_555
H148 C146 1_555 1_555
H149 C146 1_555 1_555
H150 C146 1_555 1_555
C149 S5 1_555 1_555
C150 C149 1_555 1_555
C151 C150 1_555 1_555
H157 C151 1_555 1_555
C155 C150 1_555 1_555
H159 C155 1_555 1_555
H160 C155 1_555 1_555
H161 C155 1_555 1_555
C158 S6 1_555 1_555
C159 C158 1_555 1_555
C160 C159 1_555 1_555
H168 C160 1_555 1_555
C161 C160 1_555 1_555
C162 C161 1_555 1_555
H169 C162 1_555 1_555
C163 C158 1_555 1_555
C164 C159 1_555 1_555
H170 C164 1_555 1_555
H171 C164 1_555 1_555
H172 C164 1_555 1_555
C165 C161 1_555 1_555
H173 C165 1_555 1_555
H174 C165 1_555 1_555
H175 C165 1_555 1_555
C166 C163 1_555 1_555
H176 C166 1_555 1_555
H177 C166 1_555 1_555
H178 C166 1_555 1_555
C19 C20 1_555 1_555
C25 C26 1_555 1_555
C39 C40 1_555 1_555
Ag9 S5 1_555 1_555
Ag9 S6 1_555 1_555
C162 C163 1_555 1_555
H31 C32 1_555 1_555
C33 C32 1_555 1_555
H32 C33 1_555 1_555
H39 C41 1_555 1_555
C33 C34 1_555 1_555
H165 C157 1_555 1_555
H166 C157 1_555 1_555
C153 C152 1_555 1_555
H158 C153 1_555 1_555
C156 C152 1_555 1_555
H162 C156 1_555 1_555
H163 C156 1_555 1_555
H164 C156 1_555 1_555
C153 C154 1_555 1_555

#END
