
###############################################################################
#
# This file contains modified crystal structure data generated from the
# MOF subset of the Cambridge Structural Database (CSD) v543 
# hosted by the Cambridge Crystallographic Data Centre (CCDC).
#
# This work is licensed under the Creative Commons
# Attribution-NonCommercial-ShareAlike 4.0 International License.
# To view a copy of this license, visit
# http://creativecommons.org/licenses/by-nc-sa/4.0/
# or send a letter to
# Creative Commons, PO Box 1866, Mountain View, CA 94042, USA.
#
# CIF created using the CSD Python API on 29 September 2022
# The structure has been converted into the P1 space group
# The structure has a 3D framework
# The original CSD entry YONNUL is in the monoclinic crystal system
# The framework has been calculated to contain at least 10.0% void space
# The void calculation uses a probe of radius 1.32A, grid spacing 0.4
#
###############################################################################

data_YONNUL
_chemical_formula_moiety         '(C344 H256 N16 O90 Zn12)n'
_symmetry_cell_setting           triclinic
_symmetry_space_group_name_H-M   'P 1'
_symmetry_Int_Tables_number      1
_space_group_name_Hall           'P 1'
loop_
_symmetry_equiv_pos_site_id
_symmetry_equiv_pos_as_xyz
1 x,y,z
_cell_length_a                   20.048(3)
_cell_length_b                   19.537(2)
_cell_length_c                   30.521(4)
_cell_angle_alpha                90
_cell_angle_beta                 96.874(2)
_cell_angle_gamma                90
_cell_volume                     11868.5
loop_
_atom_site_label
_atom_site_type_symbol
_atom_site_fract_x
_atom_site_fract_y
_atom_site_fract_z
Zn4 Zn 0.10155(3) 0.29658(3) 0.03120(2)
O9 O 0.0281(2) 0.3484(2) 0.99505(13)
O12 O 0.0584(2) 0.6778(2) 0.58685(13)
H23 H 0.0283 0.6101 0.6531
C33 C 0.0021(3) 0.7047(3) 0.59041(19)
Zn5 Zn 0.10155(3) 0.70342(3) 0.53120(2)
Zn3 Zn 0.60155(3) 0.79658(3) 0.03120(2)
Zn6 Zn 0.49638(3) 0.69209(3) 0.01458(2)
Zn7 Zn 0.99638(3) 0.19209(3) 0.01458(2)
Zn1 Zn 0.60155(3) 0.20342(3) 0.53120(2)
Zn2 Zn 0.49638(3) 0.30791(3) 0.51458(2)
O1 O 0.7791(2) 0.4793(3) 0.71106(13)
O2 O 0.6429(3) 0.2839(2) 0.56455(15)
O3 O 0.5603(3) 0.3592(2) 0.56273(14)
O4 O 0.7136(2) 0.5844(2) 0.81216(14)
O5 O 0.6182(2) 0.7469(2) 0.97312(13)
O6 O 0.5517(2) 0.6549(2) 0.96989(13)
O7 O 0.8657(3) 0.5114(2) 0.84100(13)
O8 O 0.9578(2) 0.2651(2) 0.97008(14)
O10 O 0.8520(2) 0.6307(2) 0.72786(14)
O11 O 0.9727(2) 0.7480(2) 0.56392(13)
N1 N 0.6772(3) 0.1338(2) 0.52984(15)
C1 C 0.8041(3) 0.5512(3) 0.77423(18)
C2 C 0.7512(3) 0.5318(4) 0.73592(19)
H1 H 0.7395 0.5714 0.7174
H2 H 0.7109 0.5153 0.7471
C3 C 0.7376(3) 0.4494(3) 0.67761(19)
C4 C 0.7621(4) 0.3898(4) 0.6599(2)
H3 H 0.8042 0.3729 0.6707
C5 C 0.7241(4) 0.3571(4) 0.6271(2)
H4 H 0.7414 0.3181 0.6151
C6 C 0.6602(3) 0.3790(3) 0.61037(18)
C7 C 0.6373(4) 0.4398(3) 0.6275(2)
H5 H 0.5956 0.4572 0.6160
C8 C 0.6751(4) 0.4742(3) 0.6610(2)
H6 H 0.6587 0.5141 0.6724
C9 C 0.6181(3) 0.3375(3) 0.57694(19)
C10 C 0.7754(3) 0.6096(3) 0.7993(2)
H7 H 0.8061 0.6220 0.8250
H8 H 0.7673 0.6495 0.7805
C11 C 0.6877(3) 0.6139(3) 0.84605(19)
C12 C 0.7117(4) 0.6744(3) 0.8675(2)
H9 H 0.7471 0.6984 0.8575
C13 C 0.6828(4) 0.6977(3) 0.9031(2)
H10 H 0.6999 0.7368 0.9177
C14 C 0.6287(3) 0.6647(3) 0.91775(18)
C15 C 0.6046(3) 0.6050(3) 0.8962(2)
H11 H 0.5690 0.5814 0.9061
C16 C 0.6333(3) 0.5806(3) 0.8603(2)
H12 H 0.6161 0.5415 0.8457
C17 C 0.5979(3) 0.6910(3) 0.95655(19)
C18 C 0.8181(3) 0.4889(3) 0.80380(19)
H13 H 0.7770 0.4726 0.8140
H14 H 0.8373 0.4523 0.7879
C19 C 0.8889(3) 0.4640(3) 0.87134(19)
C20 C 0.8687(4) 0.3963(3) 0.8711(2)
H15 H 0.8364 0.3809 0.8489
C21 C 0.8956(4) 0.3514(3) 0.9032(2)
H16 H 0.8809 0.3063 0.9029
C22 C 0.9455(3) 0.3742(3) 0.93667(19)
C23 C 0.9657(3) 0.4422(3) 0.9369(2)
H17 H 0.9988 0.4576 0.9586
C24 C 0.9367(4) 0.4873(3) 0.9049(2)
H18 H 0.9492 0.5331 0.9059
C25 C 0.9800(3) 0.3253(3) 0.96948(18)
C26 C 0.8683(3) 0.5734(3) 0.75618(19)
H19 H 0.8857 0.5363 0.7398
H20 H 0.9022 0.5861 0.7802
C27 C 0.8925(3) 0.6460(3) 0.69648(19)
C28 C 0.8705(4) 0.7001(4) 0.6689(2)
H21 H 0.8314 0.7235 0.6731
C29 C 0.9067(4) 0.7190(4) 0.6351(2)
H22 H 0.8921 0.7555 0.6169
C30 C 0.9645(3) 0.6841(3) 0.62815(19)
C31 C 0.9882(3) 0.6319(3) 0.65688(18)
C32 C 0.9527(3) 0.6120(3) 0.69104(18)
H24 H 0.9685 0.5767 0.7100
C34 C 0.7147(4) 0.1340(3) 0.4961(2)
H25 H 0.7083 0.1687 0.4751
C35 C 0.7624(3) 0.0842(3) 0.4917(2)
H26 H 0.7873 0.0856 0.4679
C36 C 0.7734(3) 0.0324(3) 0.52249(19)
C37 C 0.7338(3) 0.0325(3) 0.55765(19)
C38 C 0.6877(3) 0.0835(3) 0.55963(19)
H28 H 0.6621 0.0833 0.5831
H31 H 0.8878 0.0346 0.4870
Zn8 Zn 0.99638(3) 0.80791(3) 0.51458(2)
O13 O 0.6182(2) 0.2531(2) 0.47312(13)
O14 O 0.5517(2) 0.3451(2) 0.46989(13)
O15 O 0.4578(2) 0.2349(2) 0.47008(14)
O16 O 0.5281(2) 0.1516(2) 0.49505(13)
O17 O 0.4727(2) 0.2480(2) 0.56392(13)
O18 O 0.5584(2) 0.1778(2) 0.58685(13)
N3 N 0.4208(3) 0.3779(2) 0.51179(16)
N2 N 0.9208(3) 0.8779(2) 0.51179(16)
H27 H 0.7390 0.9985 0.5791
C39 C 0.8645(4) 0.8639(4) 0.5303(3)
H29 H 0.8583 0.8200 0.5410
C40 C 0.8162(4) 0.9128(4) 0.5338(3)
H30 H 0.7776 0.9013 0.5464
C41 C 0.8240(3) 0.9788(3) 0.5188(2)
C42 C 0.8808(4) 0.9915(3) 0.4986(2)
C43 C 0.9276(4) 0.9389(3) 0.4955(2)
H32 H 0.9652 0.9480 0.4813
O4_2 O 0.2136(2) 0.0844(2) 0.81216(14)
O5_2 O 0.1182(2) 0.2469(2) 0.97312(13)
O6_2 O 0.0517(2) 0.1549(2) 0.96989(13)
O7_2 O 0.3657(3) 0.0114(2) 0.84100(13)
O10_2 O 0.3520(2) 0.1307(2) 0.72786(14)
C1_2 C 0.3041(3) 0.0512(3) 0.77423(18)
C2_2 C 0.2512(3) 0.0318(4) 0.73592(19)
H1_2 H 0.2395 0.0714 0.7174
H2_2 H 0.2109 0.0153 0.7471
H6_2 H 0.1587 0.0141 0.6724
C10_2 C 0.2754(3) 0.1096(3) 0.7993(2)
H7_2 H 0.3061 0.1220 0.8250
H8_2 H 0.2673 0.1495 0.7805
C11_2 C 0.1877(3) 0.1139(3) 0.84605(19)
C12_2 C 0.2117(4) 0.1744(3) 0.8675(2)
H9_2 H 0.2471 0.1984 0.8575
C13_2 C 0.1828(4) 0.1977(3) 0.9031(2)
H10_2 H 0.1999 0.2368 0.9177
C14_2 C 0.1287(3) 0.1647(3) 0.91775(18)
C15_2 C 0.1046(3) 0.1050(3) 0.8962(2)
H11_2 H 0.0690 0.0814 0.9061
C16_2 C 0.1333(3) 0.0806(3) 0.8603(2)
H12_2 H 0.1161 0.0415 0.8457
C17_2 C 0.0979(3) 0.1910(3) 0.95655(19)
H18_2 H 0.4492 0.0331 0.9059
C26_2 C 0.3683(3) 0.0734(3) 0.75618(19)
H19_2 H 0.3857 0.0363 0.7398
H20_2 H 0.4022 0.0861 0.7802
C27_2 C 0.3925(3) 0.1460(3) 0.69648(19)
C28_2 C 0.3705(4) 0.2001(4) 0.6689(2)
H21_2 H 0.3314 0.2235 0.6731
C29_2 C 0.4067(4) 0.2190(4) 0.6351(2)
H22_2 H 0.3921 0.2555 0.6169
C30_2 C 0.4645(3) 0.1841(3) 0.62815(19)
C31_2 C 0.4882(3) 0.1319(3) 0.65688(18)
H23_2 H 0.5283 0.1101 0.6531
C32_2 C 0.4527(3) 0.1120(3) 0.69104(18)
H24_2 H 0.4685 0.0767 0.7100
C33_2 C 0.5021(3) 0.2047(3) 0.59041(19)
O1_2 O 0.2791(2) 0.9793(3) 0.71106(13)
O2_2 O 0.1429(3) 0.7839(2) 0.56455(15)
O3_2 O 0.0603(3) 0.8592(2) 0.56273(14)
O8_2 O 0.4578(2) 0.7651(2) 0.97008(14)
O9_2 O 0.5281(2) 0.8484(2) 0.99505(13)
N1_2 N 0.1772(3) 0.6338(2) 0.52984(15)
C3_2 C 0.2376(3) 0.9494(3) 0.67761(19)
C4_2 C 0.2621(4) 0.8898(4) 0.6599(2)
H3_2 H 0.3042 0.8729 0.6707
C5_2 C 0.2241(4) 0.8571(4) 0.6271(2)
H4_2 H 0.2414 0.8181 0.6151
C6_2 C 0.1602(3) 0.8790(3) 0.61037(18)
C7_2 C 0.1373(4) 0.9398(3) 0.6275(2)
H5_2 H 0.0956 0.9572 0.6160
C8_2 C 0.1751(4) 0.9742(3) 0.6610(2)
C9_2 C 0.1181(3) 0.8375(3) 0.57694(19)
C18_2 C 0.3181(3) 0.9889(3) 0.80380(19)
H13_2 H 0.2770 0.9726 0.8140
H14_2 H 0.3373 0.9523 0.7879
C19_2 C 0.3889(3) 0.9640(3) 0.87134(19)
C20_2 C 0.3687(4) 0.8963(3) 0.8711(2)
H15_2 H 0.3364 0.8809 0.8489
C21_2 C 0.3956(4) 0.8514(3) 0.9032(2)
H16_2 H 0.3809 0.8063 0.9029
C22_2 C 0.4455(3) 0.8742(3) 0.93667(19)
C23_2 C 0.4657(3) 0.9422(3) 0.9369(2)
H17_2 H 0.4988 0.9576 0.9586
C24_2 C 0.4367(4) 0.9873(3) 0.9049(2)
C25_2 C 0.4800(3) 0.8253(3) 0.96948(18)
C34_2 C 0.2147(4) 0.6340(3) 0.4961(2)
H25_2 H 0.2083 0.6687 0.4751
C35_2 C 0.2624(3) 0.5842(3) 0.4917(2)
H26_2 H 0.2873 0.5856 0.4679
C36_2 C 0.2734(3) 0.5324(3) 0.52249(19)
C37_2 C 0.2338(3) 0.5325(3) 0.55765(19)
H27_2 H 0.2390 0.4985 0.5791
C38_2 C 0.1877(3) 0.5835(3) 0.55963(19)
H28_2 H 0.1621 0.5833 0.5831
C39_2 C 0.3645(4) 0.3639(4) 0.5303(3)
H29_2 H 0.3583 0.3200 0.5410
C40_2 C 0.3162(4) 0.4128(4) 0.5338(3)
H30_2 H 0.2776 0.4013 0.5464
C41_2 C 0.3240(3) 0.4788(3) 0.5188(2)
C42_2 C 0.3808(4) 0.4915(3) 0.4986(2)
H31_2 H 0.3878 0.5346 0.4870
C43_2 C 0.4276(4) 0.4389(3) 0.4955(2)
H32_2 H 0.4652 0.4480 0.4813
O13_2 O 0.1182(2) 0.7531(2) 0.47312(13)
O14_2 O 0.0517(2) 0.8451(2) 0.46989(13)
O16_2 O 0.0281(2) 0.6516(2) 0.49505(13)
O15_2 O 0.9578(2) 0.7349(2) 0.47008(14)
O12_2 O 0.0584(2) 0.3222(2) 0.08685(13)
H23_3 H 0.0283 0.3899 0.1531
C33_3 C 0.0021(3) 0.2953(3) 0.09041(19)
N2_2 N 0.9208(3) 0.1221(2) 0.01179(16)
H27_3 H 0.7390 0.0015 0.0791
C39_3 C 0.8645(4) 0.1361(4) 0.0303(3)
H29_3 H 0.8583 0.1800 0.0410
C40_3 C 0.8162(4) 0.0872(4) 0.0338(3)
H30_3 H 0.7776 0.0987 0.0464
C41_3 C 0.8240(3) 0.0212(3) 0.0188(2)
O1_3 O 0.7791(2) 0.5207(3) 0.21106(13)
O2_3 O 0.6429(3) 0.7161(2) 0.06455(15)
O3_3 O 0.5603(3) 0.6408(2) 0.06273(14)
O4_3 O 0.7136(2) 0.4156(2) 0.31216(14)
O7_3 O 0.8657(3) 0.4886(2) 0.34100(13)
O10_3 O 0.8520(2) 0.3693(2) 0.22786(14)
O11_2 O 0.9727(2) 0.2520(2) 0.06392(13)
N1_3 N 0.6772(3) 0.8662(2) 0.02984(15)
C1_3 C 0.8041(3) 0.4488(3) 0.27423(18)
C2_3 C 0.7512(3) 0.4682(4) 0.23592(19)
H1_3 H 0.7395 0.4286 0.2174
H2_3 H 0.7109 0.4847 0.2471
C3_3 C 0.7376(3) 0.5506(3) 0.17761(19)
C4_3 C 0.7621(4) 0.6102(4) 0.1599(2)
H3_3 H 0.8042 0.6271 0.1707
C5_3 C 0.7241(4) 0.6429(4) 0.1271(2)
H4_3 H 0.7414 0.6819 0.1151
C6_3 C 0.6602(3) 0.6210(3) 0.11037(18)
C7_3 C 0.6373(4) 0.5602(3) 0.1275(2)
H5_3 H 0.5956 0.5428 0.1160
C8_3 C 0.6751(4) 0.5258(3) 0.1610(2)
H6_3 H 0.6587 0.4859 0.1724
C9_3 C 0.6181(3) 0.6625(3) 0.07694(19)
C10_3 C 0.7754(3) 0.3904(3) 0.2993(2)
H7_3 H 0.8061 0.3780 0.3250
H8_3 H 0.7673 0.3505 0.2805
C11_3 C 0.6877(3) 0.3861(3) 0.34605(19)
C12_3 C 0.7117(4) 0.3256(3) 0.3675(2)
H9_3 H 0.7471 0.3016 0.3575
C13_3 C 0.6828(4) 0.3023(3) 0.4031(2)
H10_3 H 0.6999 0.2632 0.4177
C14_3 C 0.6287(3) 0.3353(3) 0.41775(18)
C15_3 C 0.6046(3) 0.3950(3) 0.3962(2)
H11_3 H 0.5690 0.4186 0.4061
C16_3 C 0.6333(3) 0.4194(3) 0.3603(2)
H12_3 H 0.6161 0.4585 0.3457
C17_3 C 0.5979(3) 0.3090(3) 0.45655(19)
C18_3 C 0.8181(3) 0.5111(3) 0.30380(19)
H13_3 H 0.7770 0.5274 0.3140
H14_3 H 0.8373 0.5477 0.2879
C19_3 C 0.8889(3) 0.5360(3) 0.37134(19)
C20_3 C 0.8687(4) 0.6037(3) 0.3711(2)
H15_3 H 0.8364 0.6191 0.3489
C21_3 C 0.8956(4) 0.6486(3) 0.4032(2)
H16_3 H 0.8809 0.6937 0.4029
C22_3 C 0.9455(3) 0.6258(3) 0.43667(19)
C23_3 C 0.9657(3) 0.5578(3) 0.4369(2)
H17_3 H 0.9988 0.5424 0.4586
C24_3 C 0.9367(4) 0.5127(3) 0.4049(2)
H18_3 H 0.9492 0.4669 0.4059
C25_3 C 0.9800(3) 0.6747(3) 0.46948(18)
C26_3 C 0.8683(3) 0.4266(3) 0.25618(19)
H19_3 H 0.8857 0.4637 0.2398
H20_3 H 0.9022 0.4139 0.2802
C27_3 C 0.8925(3) 0.3540(3) 0.19648(19)
C28_3 C 0.8705(4) 0.2999(4) 0.1689(2)
H21_3 H 0.8314 0.2765 0.1731
C29_3 C 0.9067(4) 0.2810(4) 0.1351(2)
H22_3 H 0.8921 0.2445 0.1169
C30_3 C 0.9645(3) 0.3159(3) 0.12815(19)
C31_3 C 0.9882(3) 0.3681(3) 0.15688(18)
C32_3 C 0.9527(3) 0.3880(3) 0.19104(18)
H24_3 H 0.9685 0.4233 0.2100
C36_3 C 0.7734(3) 0.9676(3) 0.02249(19)
C37_3 C 0.7338(3) 0.9675(3) 0.05765(19)
C38_3 C 0.6877(3) 0.9165(3) 0.05963(19)
H28_3 H 0.6621 0.9167 0.0831
O17_2 O 0.4727(2) 0.7520(2) 0.06392(13)
O18_2 O 0.5584(2) 0.8222(2) 0.08685(13)
N3_2 N 0.4208(3) 0.6221(2) 0.01179(16)
C34_3 C 0.7147(4) 0.8660(3) 0.9961(2)
H25_3 H 0.7083 0.8313 0.9751
C35_3 C 0.7624(3) 0.9158(3) 0.9917(2)
H26_3 H 0.7873 0.9144 0.9679
H31_3 H 0.8878 0.9654 0.9870
O1_4 O 0.2791(2) 0.0207(3) 0.21106(13)
O2_4 O 0.1429(3) 0.2161(2) 0.06455(15)
O3_4 O 0.0603(3) 0.1408(2) 0.06273(14)
N1_4 N 0.1772(3) 0.3662(2) 0.02984(15)
C3_4 C 0.2376(3) 0.0506(3) 0.17761(19)
C4_4 C 0.2621(4) 0.1102(4) 0.1599(2)
H3_4 H 0.3042 0.1271 0.1707
C5_4 C 0.2241(4) 0.1429(4) 0.1271(2)
H4_4 H 0.2414 0.1819 0.1151
C6_4 C 0.1602(3) 0.1210(3) 0.11037(18)
C7_4 C 0.1373(4) 0.0602(3) 0.1275(2)
H5_4 H 0.0956 0.0428 0.1160
C8_4 C 0.1751(4) 0.0258(3) 0.1610(2)
C9_4 C 0.1181(3) 0.1625(3) 0.07694(19)
C18_4 C 0.3181(3) 0.0111(3) 0.30380(19)
H13_4 H 0.2770 0.0274 0.3140
H14_4 H 0.3373 0.0477 0.2879
C19_4 C 0.3889(3) 0.0360(3) 0.37134(19)
C20_4 C 0.3687(4) 0.1037(3) 0.3711(2)
H15_4 H 0.3364 0.1191 0.3489
C21_4 C 0.3956(4) 0.1486(3) 0.4032(2)
H16_4 H 0.3809 0.1937 0.4029
C22_4 C 0.4455(3) 0.1258(3) 0.43667(19)
C23_4 C 0.4657(3) 0.0578(3) 0.4369(2)
H17_4 H 0.4988 0.0424 0.4586
C24_4 C 0.4367(4) 0.0127(3) 0.4049(2)
C25_4 C 0.4800(3) 0.1747(3) 0.46948(18)
C36_4 C 0.2734(3) 0.4676(3) 0.02249(19)
C37_4 C 0.2338(3) 0.4675(3) 0.05765(19)
H27_4 H 0.2390 0.5015 0.0791
C38_4 C 0.1877(3) 0.4165(3) 0.05963(19)
H28_4 H 0.1621 0.4167 0.0831
C39_4 C 0.3645(4) 0.6361(4) 0.0303(3)
H29_4 H 0.3583 0.6800 0.0410
C40_4 C 0.3162(4) 0.5872(4) 0.0338(3)
H30_4 H 0.2776 0.5987 0.0464
C41_4 C 0.3240(3) 0.5212(3) 0.0188(2)
C34_4 C 0.2147(4) 0.3660(3) 0.9961(2)
H25_4 H 0.2083 0.3313 0.9751
C35_4 C 0.2624(3) 0.4158(3) 0.9917(2)
H26_4 H 0.2873 0.4144 0.9679
C42_3 C 0.3808(4) 0.5085(3) 0.9986(2)
H31_4 H 0.3878 0.4654 0.9870
C43_3 C 0.4276(4) 0.5611(3) 0.9955(2)
H32_3 H 0.4652 0.5520 0.9813
O4_4 O 0.2136(2) 0.9156(2) 0.31216(14)
O7_4 O 0.3657(3) 0.9886(2) 0.34100(13)
O10_4 O 0.3520(2) 0.8693(2) 0.22786(14)
C1_4 C 0.3041(3) 0.9488(3) 0.27423(18)
C2_4 C 0.2512(3) 0.9682(4) 0.23592(19)
H1_4 H 0.2395 0.9286 0.2174
H2_4 H 0.2109 0.9847 0.2471
H6_4 H 0.1587 0.9859 0.1724
C10_4 C 0.2754(3) 0.8904(3) 0.2993(2)
H7_4 H 0.3061 0.8780 0.3250
H8_4 H 0.2673 0.8505 0.2805
C11_4 C 0.1877(3) 0.8861(3) 0.34605(19)
C12_4 C 0.2117(4) 0.8256(3) 0.3675(2)
H9_4 H 0.2471 0.8016 0.3575
C13_4 C 0.1828(4) 0.8023(3) 0.4031(2)
H10_4 H 0.1999 0.7632 0.4177
C14_4 C 0.1287(3) 0.8353(3) 0.41775(18)
C15_4 C 0.1046(3) 0.8950(3) 0.3962(2)
H11_4 H 0.0690 0.9186 0.4061
C16_4 C 0.1333(3) 0.9194(3) 0.3603(2)
H12_4 H 0.1161 0.9585 0.3457
C17_4 C 0.0979(3) 0.8090(3) 0.45655(19)
H18_4 H 0.4492 0.9669 0.4059
C26_4 C 0.3683(3) 0.9266(3) 0.25618(19)
H19_4 H 0.3857 0.9637 0.2398
H20_4 H 0.4022 0.9139 0.2802
C27_4 C 0.3925(3) 0.8540(3) 0.19648(19)
C28_4 C 0.3705(4) 0.7999(4) 0.1689(2)
H21_4 H 0.3314 0.7765 0.1731
C29_4 C 0.4067(4) 0.7810(4) 0.1351(2)
H22_4 H 0.3921 0.7445 0.1169
C30_4 C 0.4645(3) 0.8159(3) 0.12815(19)
C31_4 C 0.4882(3) 0.8681(3) 0.15688(18)
H23_4 H 0.5283 0.8899 0.1531
C32_4 C 0.4527(3) 0.8880(3) 0.19104(18)
H24_4 H 0.4685 0.9233 0.2100
C33_4 C 0.5021(3) 0.7953(3) 0.09041(19)
C34_5 C 0.2853(4) 0.1340(3) 0.0039(2)
H25_5 H 0.2917 0.1687 0.0249
C35_5 C 0.2376(3) 0.0842(3) 0.0083(2)
H26_5 H 0.2127 0.0856 0.0321
H31_5 H 0.1122 0.0346 0.0130
O13_3 O 0.3818(2) 0.2531(2) 0.02688(13)
O14_3 O 0.4483(2) 0.3451(2) 0.03011(13)
O15_3 O 0.5422(2) 0.2349(2) 0.02992(14)
O16_3 O 0.4719(2) 0.1516(2) 0.00495(13)
Zn1_2 Zn 0.39845(3) 0.20342(3) 0.96880(2)
Zn2_2 Zn 0.50362(3) 0.30791(3) 0.98542(2)
O1_5 O 0.2209(2) 0.4793(3) 0.78894(13)
O2_5 O 0.3571(3) 0.2839(2) 0.93545(15)
O3_5 O 0.4397(3) 0.3592(2) 0.93727(14)
O4_5 O 0.2864(2) 0.5844(2) 0.68784(14)
O5_3 O 0.3818(2) 0.7469(2) 0.52688(13)
O6_3 O 0.4483(2) 0.6549(2) 0.53011(13)
O7_5 O 0.1343(3) 0.5114(2) 0.65900(13)
O8_3 O 0.0422(2) 0.2651(2) 0.52992(14)
O10_5 O 0.1480(2) 0.6307(2) 0.77214(14)
O11_3 O 0.0273(2) 0.7480(2) 0.93608(13)
N1_5 N 0.3228(3) 0.1338(2) 0.97016(15)
C1_5 C 0.1959(3) 0.5512(3) 0.72577(18)
C2_5 C 0.2488(3) 0.5318(4) 0.76408(19)
H1_5 H 0.2605 0.5714 0.7826
H2_5 H 0.2891 0.5153 0.7529
C3_5 C 0.2624(3) 0.4494(3) 0.82239(19)
C4_5 C 0.2379(4) 0.3898(4) 0.8401(2)
H3_5 H 0.1958 0.3729 0.8293
C5_5 C 0.2759(4) 0.3571(4) 0.8729(2)
H4_5 H 0.2586 0.3181 0.8849
C6_5 C 0.3398(3) 0.3790(3) 0.88963(18)
C7_5 C 0.3627(4) 0.4398(3) 0.8725(2)
H5_5 H 0.4044 0.4572 0.8840
C8_5 C 0.3249(4) 0.4742(3) 0.8390(2)
H6_5 H 0.3413 0.5141 0.8276
C9_5 C 0.3819(3) 0.3375(3) 0.92306(19)
C10_5 C 0.2246(3) 0.6096(3) 0.7007(2)
H7_5 H 0.1939 0.6220 0.6750
H8_5 H 0.2327 0.6495 0.7195
C11_5 C 0.3123(3) 0.6139(3) 0.65395(19)
C12_5 C 0.2883(4) 0.6744(3) 0.6325(2)
H9_5 H 0.2529 0.6984 0.6425
C13_5 C 0.3172(4) 0.6977(3) 0.5969(2)
H10_5 H 0.3001 0.7368 0.5823
C14_5 C 0.3713(3) 0.6647(3) 0.58225(18)
C15_5 C 0.3954(3) 0.6050(3) 0.6038(2)
H11_5 H 0.4310 0.5814 0.5939
C16_5 C 0.3667(3) 0.5806(3) 0.6397(2)
H12_5 H 0.3839 0.5415 0.6543
C17_5 C 0.4021(3) 0.6910(3) 0.54345(19)
C18_5 C 0.1819(3) 0.4889(3) 0.69620(19)
H13_5 H 0.2230 0.4726 0.6860
H14_5 H 0.1627 0.4523 0.7121
C19_5 C 0.1111(3) 0.4640(3) 0.62866(19)
C20_5 C 0.1313(4) 0.3963(3) 0.6289(2)
H15_5 H 0.1636 0.3809 0.6511
C21_5 C 0.1044(4) 0.3514(3) 0.5968(2)
H16_5 H 0.1191 0.3063 0.5971
C22_5 C 0.0545(3) 0.3742(3) 0.56333(19)
C23_5 C 0.0343(3) 0.4422(3) 0.5631(2)
H17_5 H 0.0012 0.4576 0.5414
C24_5 C 0.0633(4) 0.4873(3) 0.5951(2)
H18_5 H 0.0508 0.5331 0.5941
C25_5 C 0.0200(3) 0.3253(3) 0.53052(18)
C26_5 C 0.1317(3) 0.5734(3) 0.74382(19)
H19_5 H 0.1143 0.5363 0.7602
H20_5 H 0.0978 0.5861 0.7198
C27_5 C 0.1075(3) 0.6460(3) 0.80352(19)
C28_5 C 0.1295(4) 0.7001(4) 0.8311(2)
H21_5 H 0.1686 0.7235 0.8269
C29_5 C 0.0933(4) 0.7190(4) 0.8649(2)
H22_5 H 0.1079 0.7555 0.8831
C30_5 C 0.0355(3) 0.6841(3) 0.87185(19)
C31_5 C 0.0118(3) 0.6319(3) 0.84312(18)
C32_5 C 0.0473(3) 0.6120(3) 0.80896(18)
H24_5 H 0.0315 0.5767 0.7900
C36_5 C 0.2266(3) 0.0324(3) 0.97751(19)
C37_5 C 0.2662(3) 0.0325(3) 0.94235(19)
C38_5 C 0.3123(3) 0.0835(3) 0.94037(19)
H28_5 H 0.3379 0.0833 0.9169
Zn3_2 Zn 0.39845(3) 0.79658(3) 0.46880(2)
Zn6_2 Zn 0.50362(3) 0.69209(3) 0.48542(2)
Zn7_2 Zn 0.00362(3) 0.19209(3) 0.48542(2)
Zn8_2 Zn 0.00362(3) 0.80791(3) 0.98542(2)
O17_3 O 0.5273(2) 0.2480(2) 0.93608(13)
O18_3 O 0.4416(2) 0.1778(2) 0.91315(13)
N3_3 N 0.5792(3) 0.3779(2) 0.98821(16)
N2_3 N 0.0792(3) 0.8779(2) 0.98821(16)
H27_5 H 0.2610 0.9985 0.9209
C39_5 C 0.1355(4) 0.8639(4) 0.9697(3)
H29_5 H 0.1417 0.8200 0.9590
C40_5 C 0.1838(4) 0.9128(4) 0.9662(3)
H30_5 H 0.2224 0.9013 0.9536
C41_5 C 0.1760(3) 0.9788(3) 0.9812(2)
O9_3 O 0.9719(2) 0.3484(2) 0.50495(13)
O12_3 O 0.9416(2) 0.6778(2) 0.91315(13)
H23_5 H 0.9717 0.6101 0.8469
C33_5 C 0.9979(3) 0.7047(3) 0.90959(19)
Zn4_2 Zn 0.89845(3) 0.29658(3) 0.46880(2)
Zn5_2 Zn 0.89845(3) 0.70342(3) 0.96880(2)
O15_4 O 0.0422(2) 0.7349(2) 0.02992(14)
O4_6 O 0.7864(2) 0.0844(2) 0.68784(14)
O5_4 O 0.8818(2) 0.2469(2) 0.52688(13)
O6_4 O 0.9483(2) 0.1549(2) 0.53011(13)
O7_6 O 0.6343(3) 0.0114(2) 0.65900(13)
O10_6 O 0.6480(2) 0.1307(2) 0.77214(14)
C1_6 C 0.6959(3) 0.0512(3) 0.72577(18)
C2_6 C 0.7488(3) 0.0318(4) 0.76408(19)
H1_6 H 0.7605 0.0714 0.7826
H2_6 H 0.7891 0.0153 0.7529
H6_6 H 0.8413 0.0141 0.8276
C10_6 C 0.7246(3) 0.1096(3) 0.7007(2)
H7_6 H 0.6939 0.1220 0.6750
H8_6 H 0.7327 0.1495 0.7195
C11_6 C 0.8123(3) 0.1139(3) 0.65395(19)
C12_6 C 0.7883(4) 0.1744(3) 0.6325(2)
H9_6 H 0.7529 0.1984 0.6425
C13_6 C 0.8172(4) 0.1977(3) 0.5969(2)
H10_6 H 0.8001 0.2368 0.5823
C14_6 C 0.8713(3) 0.1647(3) 0.58225(18)
C15_6 C 0.8954(3) 0.1050(3) 0.6038(2)
H11_6 H 0.9310 0.0814 0.5939
C16_6 C 0.8667(3) 0.0806(3) 0.6397(2)
H12_6 H 0.8839 0.0415 0.6543
C17_6 C 0.9021(3) 0.1910(3) 0.54345(19)
H18_6 H 0.5508 0.0331 0.5941
C26_6 C 0.6317(3) 0.0734(3) 0.74382(19)
H19_6 H 0.6143 0.0363 0.7602
H20_6 H 0.5978 0.0861 0.7198
C27_6 C 0.6075(3) 0.1460(3) 0.80352(19)
C28_6 C 0.6295(4) 0.2001(4) 0.8311(2)
H21_6 H 0.6686 0.2235 0.8269
C29_6 C 0.5933(4) 0.2190(4) 0.8649(2)
H22_6 H 0.6079 0.2555 0.8831
C30_6 C 0.5355(3) 0.1841(3) 0.87185(19)
C31_6 C 0.5118(3) 0.1319(3) 0.84312(18)
H23_6 H 0.4717 0.1101 0.8469
C32_6 C 0.5473(3) 0.1120(3) 0.80896(18)
H24_6 H 0.5315 0.0767 0.7900
C33_6 C 0.4979(3) 0.2047(3) 0.90959(19)
C34_6 C 0.7853(4) 0.6340(3) 0.0039(2)
H25_6 H 0.7917 0.6687 0.0249
C35_6 C 0.7376(3) 0.5842(3) 0.0083(2)
H26_6 H 0.7127 0.5856 0.0321
C42_4 C 0.6192(4) 0.4915(3) 0.0014(2)
H31_6 H 0.6122 0.5346 0.0130
C43_4 C 0.5724(4) 0.4389(3) 0.0045(2)
H32_4 H 0.5348 0.4480 0.0187
O13_4 O 0.8818(2) 0.7531(2) 0.02688(13)
O14_4 O 0.9483(2) 0.8451(2) 0.03011(13)
O16_4 O 0.9719(2) 0.6516(2) 0.00495(13)
O1_6 O 0.7209(2) 0.9793(3) 0.78894(13)
O2_6 O 0.8571(3) 0.7839(2) 0.93545(15)
O3_6 O 0.9397(3) 0.8592(2) 0.93727(14)
O8_4 O 0.5422(2) 0.7651(2) 0.52992(14)
O9_4 O 0.4719(2) 0.8484(2) 0.50495(13)
N1_6 N 0.8228(3) 0.6338(2) 0.97016(15)
C3_6 C 0.7624(3) 0.9494(3) 0.82239(19)
C4_6 C 0.7379(4) 0.8898(4) 0.8401(2)
H3_6 H 0.6958 0.8729 0.8293
C5_6 C 0.7759(4) 0.8571(4) 0.8729(2)
H4_6 H 0.7586 0.8181 0.8849
C6_6 C 0.8398(3) 0.8790(3) 0.88963(18)
C7_6 C 0.8627(4) 0.9398(3) 0.8725(2)
H5_6 H 0.9044 0.9572 0.8840
C8_6 C 0.8249(4) 0.9742(3) 0.8390(2)
C9_6 C 0.8819(3) 0.8375(3) 0.92306(19)
C18_6 C 0.6819(3) 0.9889(3) 0.69620(19)
H13_6 H 0.7230 0.9726 0.6860
H14_6 H 0.6627 0.9523 0.7121
C19_6 C 0.6111(3) 0.9640(3) 0.62866(19)
C20_6 C 0.6313(4) 0.8963(3) 0.6289(2)
H15_6 H 0.6636 0.8809 0.6511
C21_6 C 0.6044(4) 0.8514(3) 0.5968(2)
H16_6 H 0.6191 0.8063 0.5971
C22_6 C 0.5545(3) 0.8742(3) 0.56333(19)
C23_6 C 0.5343(3) 0.9422(3) 0.5631(2)
H17_6 H 0.5012 0.9576 0.5414
C24_6 C 0.5633(4) 0.9873(3) 0.5951(2)
C25_6 C 0.5200(3) 0.8253(3) 0.53052(18)
C36_6 C 0.7266(3) 0.5324(3) 0.97751(19)
C37_6 C 0.7662(3) 0.5325(3) 0.94235(19)
H27_6 H 0.7610 0.4985 0.9209
C38_6 C 0.8123(3) 0.5835(3) 0.94037(19)
H28_6 H 0.8379 0.5833 0.9169
C39_6 C 0.6355(4) 0.3639(4) 0.9697(3)
H29_6 H 0.6417 0.3200 0.9590
C40_6 C 0.6838(4) 0.4128(4) 0.9662(3)
H30_6 H 0.7224 0.4013 0.9536
C41_6 C 0.6760(3) 0.4788(3) 0.9812(2)
N2_4 N 0.0792(3) 0.1221(2) 0.48821(16)
H27_7 H 0.2610 0.0015 0.4209
C39_7 C 0.1355(4) 0.1361(4) 0.4697(3)
H29_7 H 0.1417 0.1800 0.4590
C40_7 C 0.1838(4) 0.0872(4) 0.4662(3)
H30_7 H 0.2224 0.0987 0.4536
C41_7 C 0.1760(3) 0.0212(3) 0.4812(2)
C42_5 C 0.1192(4) 0.0085(3) 0.5014(2)
C43_5 C 0.0724(4) 0.0611(3) 0.5045(2)
H32_5 H 0.0348 0.0520 0.5187
O1_7 O 0.2209(2) 0.5207(3) 0.28894(13)
O2_7 O 0.3571(3) 0.7161(2) 0.43545(15)
O3_7 O 0.4397(3) 0.6408(2) 0.43727(14)
O4_7 O 0.2864(2) 0.4156(2) 0.18784(14)
O7_7 O 0.1343(3) 0.4886(2) 0.15900(13)
O10_7 O 0.1480(2) 0.3693(2) 0.27214(14)
O11_4 O 0.0273(2) 0.2520(2) 0.43608(13)
N1_7 N 0.3228(3) 0.8662(2) 0.47016(15)
C1_7 C 0.1959(3) 0.4488(3) 0.22577(18)
C2_7 C 0.2488(3) 0.4682(4) 0.26408(19)
H1_7 H 0.2605 0.4286 0.2826
H2_7 H 0.2891 0.4847 0.2529
C3_7 C 0.2624(3) 0.5506(3) 0.32239(19)
C4_7 C 0.2379(4) 0.6102(4) 0.3401(2)
H3_7 H 0.1958 0.6271 0.3293
C5_7 C 0.2759(4) 0.6429(4) 0.3729(2)
H4_7 H 0.2586 0.6819 0.3849
C6_7 C 0.3398(3) 0.6210(3) 0.38963(18)
C7_7 C 0.3627(4) 0.5602(3) 0.3725(2)
H5_7 H 0.4044 0.5428 0.3840
C8_7 C 0.3249(4) 0.5258(3) 0.3390(2)
H6_7 H 0.3413 0.4859 0.3276
C9_7 C 0.3819(3) 0.6625(3) 0.42306(19)
C10_7 C 0.2246(3) 0.3904(3) 0.2007(2)
H7_7 H 0.1939 0.3780 0.1750
H8_7 H 0.2327 0.3505 0.2195
C11_7 C 0.3123(3) 0.3861(3) 0.15395(19)
C12_7 C 0.2883(4) 0.3256(3) 0.1325(2)
H9_7 H 0.2529 0.3016 0.1425
C13_7 C 0.3172(4) 0.3023(3) 0.0969(2)
H10_7 H 0.3001 0.2632 0.0823
C14_7 C 0.3713(3) 0.3353(3) 0.08225(18)
C15_7 C 0.3954(3) 0.3950(3) 0.1038(2)
H11_7 H 0.4310 0.4186 0.0939
C16_7 C 0.3667(3) 0.4194(3) 0.1397(2)
H12_7 H 0.3839 0.4585 0.1543
C17_7 C 0.4021(3) 0.3090(3) 0.04345(19)
C18_7 C 0.1819(3) 0.5111(3) 0.19620(19)
H13_7 H 0.2230 0.5274 0.1860
H14_7 H 0.1627 0.5477 0.2121
C19_7 C 0.1111(3) 0.5360(3) 0.12866(19)
C20_7 C 0.1313(4) 0.6037(3) 0.1289(2)
H15_7 H 0.1636 0.6191 0.1511
C21_7 C 0.1044(4) 0.6486(3) 0.0968(2)
H16_7 H 0.1191 0.6937 0.0971
C22_7 C 0.0545(3) 0.6258(3) 0.06333(19)
C23_7 C 0.0343(3) 0.5578(3) 0.0631(2)
H17_7 H 0.0012 0.5424 0.0414
C24_7 C 0.0633(4) 0.5127(3) 0.0951(2)
H18_7 H 0.0508 0.4669 0.0941
C25_7 C 0.0200(3) 0.6747(3) 0.03052(18)
C26_7 C 0.1317(3) 0.4266(3) 0.24382(19)
H19_7 H 0.1143 0.4637 0.2602
H20_7 H 0.0978 0.4139 0.2198
C27_7 C 0.1075(3) 0.3540(3) 0.30352(19)
C28_7 C 0.1295(4) 0.2999(4) 0.3311(2)
H21_7 H 0.1686 0.2765 0.3269
C29_7 C 0.0933(4) 0.2810(4) 0.3649(2)
H22_7 H 0.1079 0.2445 0.3831
C30_7 C 0.0355(3) 0.3159(3) 0.37185(19)
C31_7 C 0.0118(3) 0.3681(3) 0.34312(18)
C32_7 C 0.0473(3) 0.3880(3) 0.30896(18)
H24_7 H 0.0315 0.4233 0.2900
C34_7 C 0.2853(4) 0.8660(3) 0.5039(2)
H25_7 H 0.2917 0.8313 0.5249
C35_7 C 0.2376(3) 0.9158(3) 0.5083(2)
H26_7 H 0.2127 0.9144 0.5321
C36_7 C 0.2266(3) 0.9676(3) 0.47751(19)
C37_7 C 0.2662(3) 0.9675(3) 0.44235(19)
C38_7 C 0.3123(3) 0.9165(3) 0.44037(19)
H28_7 H 0.3379 0.9167 0.4169
H31_7 H 0.1122 0.9654 0.5130
O17_4 O 0.5273(2) 0.7520(2) 0.43608(13)
O18_4 O 0.4416(2) 0.8222(2) 0.41315(13)
N3_4 N 0.5792(3) 0.6221(2) 0.48821(16)
O12_4 O 0.9416(2) 0.3222(2) 0.41315(13)
H23_7 H 0.9717 0.3899 0.3469
C33_7 C 0.9979(3) 0.2953(3) 0.40959(19)
O1_8 O 0.7209(2) 0.0207(3) 0.28894(13)
O2_8 O 0.8571(3) 0.2161(2) 0.43545(15)
O3_8 O 0.9397(3) 0.1408(2) 0.43727(14)
N1_8 N 0.8228(3) 0.3662(2) 0.47016(15)
C3_8 C 0.7624(3) 0.0506(3) 0.32239(19)
C4_8 C 0.7379(4) 0.1102(4) 0.3401(2)
H3_8 H 0.6958 0.1271 0.3293
C5_8 C 0.7759(4) 0.1429(4) 0.3729(2)
H4_8 H 0.7586 0.1819 0.3849
C6_8 C 0.8398(3) 0.1210(3) 0.38963(18)
C7_8 C 0.8627(4) 0.0602(3) 0.3725(2)
H5_8 H 0.9044 0.0428 0.3840
C8_8 C 0.8249(4) 0.0258(3) 0.3390(2)
C9_8 C 0.8819(3) 0.1625(3) 0.42306(19)
C18_8 C 0.6819(3) 0.0111(3) 0.19620(19)
H13_8 H 0.7230 0.0274 0.1860
H14_8 H 0.6627 0.0477 0.2121
C19_8 C 0.6111(3) 0.0360(3) 0.12866(19)
C20_8 C 0.6313(4) 0.1037(3) 0.1289(2)
H15_8 H 0.6636 0.1191 0.1511
C21_8 C 0.6044(4) 0.1486(3) 0.0968(2)
H16_8 H 0.6191 0.1937 0.0971
C22_8 C 0.5545(3) 0.1258(3) 0.06333(19)
C23_8 C 0.5343(3) 0.0578(3) 0.0631(2)
H17_8 H 0.5012 0.0424 0.0414
C24_8 C 0.5633(4) 0.0127(3) 0.0951(2)
C25_8 C 0.5200(3) 0.1747(3) 0.03052(18)
C34_8 C 0.7853(4) 0.3660(3) 0.5039(2)
H25_8 H 0.7917 0.3313 0.5249
C35_8 C 0.7376(3) 0.4158(3) 0.5083(2)
H26_8 H 0.7127 0.4144 0.5321
C36_8 C 0.7266(3) 0.4676(3) 0.47751(19)
C37_8 C 0.7662(3) 0.4675(3) 0.44235(19)
H27_8 H 0.7610 0.5015 0.4209
C38_8 C 0.8123(3) 0.4165(3) 0.44037(19)
H28_8 H 0.8379 0.4167 0.4169
C39_8 C 0.6355(4) 0.6361(4) 0.4697(3)
H29_8 H 0.6417 0.6800 0.4590
C40_8 C 0.6838(4) 0.5872(4) 0.4662(3)
H30_8 H 0.7224 0.5987 0.4536
C41_8 C 0.6760(3) 0.5212(3) 0.4812(2)
C42_6 C 0.6192(4) 0.5085(3) 0.5014(2)
H31_8 H 0.6122 0.4654 0.5130
C43_6 C 0.5724(4) 0.5611(3) 0.5045(2)
H32_6 H 0.5348 0.5520 0.5187
O4_8 O 0.7864(2) 0.9156(2) 0.18784(14)
O7_8 O 0.6343(3) 0.9886(2) 0.15900(13)
O10_8 O 0.6480(2) 0.8693(2) 0.27214(14)
C1_8 C 0.6959(3) 0.9488(3) 0.22577(18)
C2_8 C 0.7488(3) 0.9682(4) 0.26408(19)
H1_8 H 0.7605 0.9286 0.2826
H2_8 H 0.7891 0.9847 0.2529
H6_8 H 0.8413 0.9859 0.3276
C10_8 C 0.7246(3) 0.8904(3) 0.2007(2)
H7_8 H 0.6939 0.8780 0.1750
H8_8 H 0.7327 0.8505 0.2195
C11_8 C 0.8123(3) 0.8861(3) 0.15395(19)
C12_8 C 0.7883(4) 0.8256(3) 0.1325(2)
H9_8 H 0.7529 0.8016 0.1425
C13_8 C 0.8172(4) 0.8023(3) 0.0969(2)
H10_8 H 0.8001 0.7632 0.0823
C14_8 C 0.8713(3) 0.8353(3) 0.08225(18)
C15_8 C 0.8954(3) 0.8950(3) 0.1038(2)
H11_8 H 0.9310 0.9186 0.0939
C16_8 C 0.8667(3) 0.9194(3) 0.1397(2)
H12_8 H 0.8839 0.9585 0.1543
C17_8 C 0.9021(3) 0.8090(3) 0.04345(19)
H18_8 H 0.5508 0.9669 0.0941
C26_8 C 0.6317(3) 0.9266(3) 0.24382(19)
H19_8 H 0.6143 0.9637 0.2602
H20_8 H 0.5978 0.9139 0.2198
C27_8 C 0.6075(3) 0.8540(3) 0.30352(19)
C28_8 C 0.6295(4) 0.7999(4) 0.3311(2)
H21_8 H 0.6686 0.7765 0.3269
C29_8 C 0.5933(4) 0.7810(4) 0.3649(2)
H22_8 H 0.6079 0.7445 0.3831
C30_8 C 0.5355(3) 0.8159(3) 0.37185(19)
C31_8 C 0.5118(3) 0.8681(3) 0.34312(18)
H23_8 H 0.4717 0.8899 0.3469
C32_8 C 0.5473(3) 0.8880(3) 0.30896(18)
H24_8 H 0.5315 0.9233 0.2900
C33_8 C 0.4979(3) 0.7953(3) 0.40959(19)
C42_7 C 0.1192(4) 0.9915(3) 0.0014(2)
C43_7 C 0.0724(4) 0.9389(3) 0.0045(2)
H32_7 H 0.0348 0.9480 0.0187
C42_8 C 0.8808(4) 0.0085(3) 0.9986(2)
C43_8 C 0.9276(4) 0.0611(3) 0.9955(2)
H32_8 H 0.9652 0.0520 0.9813
loop_
_geom_bond_atom_site_label_1
_geom_bond_atom_site_label_2
_geom_bond_site_symmetry_1
_geom_bond_site_symmetry_2
O12 C33 1_555 1_555
Zn5 O12 1_555 1_555
Zn1 O2 1_555 1_555
Zn2 O3 1_555 1_555
O1 C2 1_555 1_555
O2 C9 1_555 1_555
O3 C9 1_555 1_555
O4 C10 1_555 1_555
O5 C17 1_555 1_555
O6 C17 1_555 1_555
O7 C18 1_555 1_555
O8 C25 1_555 1_555
O10 C26 1_555 1_555
N1 Zn1 1_555 1_555
C1 C2 1_555 1_555
C2 H1 1_555 1_555
H2 C2 1_555 1_555
C3 O1 1_555 1_555
C4 C3 1_555 1_555
H3 C4 1_555 1_555
C5 C4 1_555 1_555
H4 C5 1_555 1_555
C6 C5 1_555 1_555
C7 C6 1_555 1_555
H5 C7 1_555 1_555
C8 C3 1_555 1_555
H6 C8 1_555 1_555
C9 C6 1_555 1_555
C10 C1 1_555 1_555
H7 C10 1_555 1_555
H8 C10 1_555 1_555
C11 O4 1_555 1_555
C12 C11 1_555 1_555
H9 C12 1_555 1_555
C13 C12 1_555 1_555
H10 C13 1_555 1_555
C14 C13 1_555 1_555
C15 C14 1_555 1_555
H11 C15 1_555 1_555
C16 C11 1_555 1_555
H12 C16 1_555 1_555
C17 C14 1_555 1_555
C18 C1 1_555 1_555
H13 C18 1_555 1_555
H14 C18 1_555 1_555
C19 O7 1_555 1_555
C20 C19 1_555 1_555
H15 C20 1_555 1_555
C21 C20 1_555 1_555
H16 C21 1_555 1_555
C22 C21 1_555 1_555
C23 C22 1_555 1_555
H17 C23 1_555 1_555
C24 C19 1_555 1_555
H18 C24 1_555 1_555
C25 C22 1_555 1_555
C26 C1 1_555 1_555
H19 C26 1_555 1_555
H20 C26 1_555 1_555
C27 O10 1_555 1_555
C28 C27 1_555 1_555
H21 C28 1_555 1_555
C29 C28 1_555 1_555
H22 C29 1_555 1_555
C30 C29 1_555 1_555
C31 C30 1_555 1_555
C32 C27 1_555 1_555
H24 C32 1_555 1_555
C34 N1 1_555 1_555
H25 C34 1_555 1_555
C35 C34 1_555 1_555
H26 C35 1_555 1_555
C36 C35 1_555 1_555
C37 C36 1_555 1_555
C38 N1 1_555 1_555
H28 C38 1_555 1_555
Zn8 O11 1_555 1_555
O13 Zn1 1_555 1_555
O14 Zn2 1_555 1_555
O15 Zn2 1_555 1_555
O16 Zn1 1_555 1_555
O17 Zn2 1_555 1_555
O18 Zn1 1_555 1_555
N3 Zn2 1_555 1_555
C7 C8 1_555 1_555
C15 C16 1_555 1_555
C23 C24 1_555 1_555
C31 C32 1_555 1_555
C37 C38 1_555 1_555
N2 C39 1_555 1_555
C39 H29 1_555 1_555
C40 C39 1_555 1_555
H30 C40 1_555 1_555
C42 C41 1_555 1_555
C43 N2 1_555 1_555
H32 C43 1_555 1_555
Zn8 N2 1_555 1_555
C40 C41 1_555 1_555
C42 C43 1_555 1_555
O4_2 C10_2 1_555 1_555
O5_2 C17_2 1_555 1_555
O6_2 C17_2 1_555 1_555
O10_2 C26_2 1_555 1_555
O17 C33_2 1_555 1_555
O18 C33_2 1_555 1_555
C1_2 C2_2 1_555 1_555
C2_2 H1_2 1_555 1_555
H2_2 C2_2 1_555 1_555
C10_2 C1_2 1_555 1_555
H7_2 C10_2 1_555 1_555
H8_2 C10_2 1_555 1_555
C11_2 O4_2 1_555 1_555
C12_2 C11_2 1_555 1_555
H9_2 C12_2 1_555 1_555
C13_2 C12_2 1_555 1_555
H10_2 C13_2 1_555 1_555
C14_2 C13_2 1_555 1_555
C15_2 C14_2 1_555 1_555
H11_2 C15_2 1_555 1_555
C16_2 C11_2 1_555 1_555
H12_2 C16_2 1_555 1_555
C17_2 C14_2 1_555 1_555
C26_2 C1_2 1_555 1_555
H19_2 C26_2 1_555 1_555
H20_2 C26_2 1_555 1_555
C27_2 O10_2 1_555 1_555
C28_2 C27_2 1_555 1_555
H21_2 C28_2 1_555 1_555
C29_2 C28_2 1_555 1_555
H22_2 C29_2 1_555 1_555
C30_2 C29_2 1_555 1_555
C31_2 C30_2 1_555 1_555
H23_2 C31_2 1_555 1_555
C32_2 C27_2 1_555 1_555
H24_2 C32_2 1_555 1_555
C33_2 C30_2 1_555 1_555
C15_2 C16_2 1_555 1_555
C31_2 C32_2 1_555 1_555
Zn5 O2_2 1_555 1_555
O2_2 C9_2 1_555 1_555
O3_2 C9_2 1_555 1_555
O8_2 C25_2 1_555 1_555
O9_2 C25_2 1_555 1_555
N1_2 Zn5 1_555 1_555
N3 C39_2 1_555 1_555
C3_2 O1_2 1_555 1_555
C4_2 C3_2 1_555 1_555
H3_2 C4_2 1_555 1_555
C5_2 C4_2 1_555 1_555
H4_2 C5_2 1_555 1_555
C6_2 C5_2 1_555 1_555
C7_2 C6_2 1_555 1_555
H5_2 C7_2 1_555 1_555
C8_2 C3_2 1_555 1_555
C9_2 C6_2 1_555 1_555
H13_2 C18_2 1_555 1_555
H14_2 C18_2 1_555 1_555
C20_2 C19_2 1_555 1_555
H15_2 C20_2 1_555 1_555
C21_2 C20_2 1_555 1_555
H16_2 C21_2 1_555 1_555
C22_2 C21_2 1_555 1_555
C23_2 C22_2 1_555 1_555
H17_2 C23_2 1_555 1_555
C24_2 C19_2 1_555 1_555
C25_2 C22_2 1_555 1_555
C34_2 N1_2 1_555 1_555
H25_2 C34_2 1_555 1_555
C35_2 C34_2 1_555 1_555
H26_2 C35_2 1_555 1_555
C36_2 C35_2 1_555 1_555
C37_2 C36_2 1_555 1_555
H27_2 C37_2 1_555 1_555
C38_2 N1_2 1_555 1_555
H28_2 C38_2 1_555 1_555
C39_2 H29_2 1_555 1_555
C40_2 C39_2 1_555 1_555
H30_2 C40_2 1_555 1_555
C41_2 C36_2 1_555 1_555
C42_2 C41_2 1_555 1_555
H31_2 C42_2 1_555 1_555
C43_2 N3 1_555 1_555
H32_2 C43_2 1_555 1_555
O13_2 Zn5 1_555 1_555
O16_2 Zn5 1_555 1_555
C7_2 C8_2 1_555 1_555
C23_2 C24_2 1_555 1_555
C37_2 C38_2 1_555 1_555
C40_2 C41_2 1_555 1_555
C42_2 C43_2 1_555 1_555
O15_2 Zn8 1_555 1_555
O12_2 C33_3 1_555 1_555
Zn4 O12_2 1_555 1_555
N2_2 C39_3 1_555 1_555
C39_3 H29_3 1_555 1_555
C40_3 C39_3 1_555 1_555
H30_3 C40_3 1_555 1_555
Zn7 N2_2 1_555 1_555
C40_3 C41_3 1_555 1_555
Zn3 O2_3 1_555 1_555
Zn6 O3_3 1_555 1_555
O1_3 C2_3 1_555 1_555
O2_3 C9_3 1_555 1_555
O3_3 C9_3 1_555 1_555
O4_3 C10_3 1_555 1_555
O13 C17_3 1_555 1_555
O14 C17_3 1_555 1_555
O7_3 C18_3 1_555 1_555
O15_2 C25_3 1_555 1_555
O10_3 C26_3 1_555 1_555
N1_3 Zn3 1_555 1_555
C1_3 C2_3 1_555 1_555
C2_3 H1_3 1_555 1_555
H2_3 C2_3 1_555 1_555
C3_3 O1_3 1_555 1_555
C4_3 C3_3 1_555 1_555
H3_3 C4_3 1_555 1_555
C5_3 C4_3 1_555 1_555
H4_3 C5_3 1_555 1_555
C6_3 C5_3 1_555 1_555
C7_3 C6_3 1_555 1_555
H5_3 C7_3 1_555 1_555
C8_3 C3_3 1_555 1_555
H6_3 C8_3 1_555 1_555
C9_3 C6_3 1_555 1_555
C10_3 C1_3 1_555 1_555
H7_3 C10_3 1_555 1_555
H8_3 C10_3 1_555 1_555
C11_3 O4_3 1_555 1_555
C12_3 C11_3 1_555 1_555
H9_3 C12_3 1_555 1_555
C13_3 C12_3 1_555 1_555
H10_3 C13_3 1_555 1_555
C14_3 C13_3 1_555 1_555
C15_3 C14_3 1_555 1_555
H11_3 C15_3 1_555 1_555
C16_3 C11_3 1_555 1_555
H12_3 C16_3 1_555 1_555
C17_3 C14_3 1_555 1_555
C18_3 C1_3 1_555 1_555
H13_3 C18_3 1_555 1_555
H14_3 C18_3 1_555 1_555
C19_3 O7_3 1_555 1_555
C20_3 C19_3 1_555 1_555
H15_3 C20_3 1_555 1_555
C21_3 C20_3 1_555 1_555
H16_3 C21_3 1_555 1_555
C22_3 C21_3 1_555 1_555
C23_3 C22_3 1_555 1_555
H17_3 C23_3 1_555 1_555
C24_3 C19_3 1_555 1_555
H18_3 C24_3 1_555 1_555
C25_3 C22_3 1_555 1_555
C26_3 C1_3 1_555 1_555
H19_3 C26_3 1_555 1_555
H20_3 C26_3 1_555 1_555
C27_3 O10_3 1_555 1_555
C28_3 C27_3 1_555 1_555
H21_3 C28_3 1_555 1_555
C29_3 C28_3 1_555 1_555
H22_3 C29_3 1_555 1_555
C30_3 C29_3 1_555 1_555
C31_3 C30_3 1_555 1_555
C32_3 C27_3 1_555 1_555
H24_3 C32_3 1_555 1_555
C37_3 C36_3 1_555 1_555
C38_3 N1_3 1_555 1_555
H28_3 C38_3 1_555 1_555
Zn7 O11_2 1_555 1_555
O17_2 Zn6 1_555 1_555
O18_2 Zn3 1_555 1_555
N3_2 Zn6 1_555 1_555
C7_3 C8_3 1_555 1_555
C15_3 C16_3 1_555 1_555
C23_3 C24_3 1_555 1_555
C31_3 C32_3 1_555 1_555
C37_3 C38_3 1_555 1_555
H25_3 C34_3 1_555 1_555
C35_3 C34_3 1_555 1_555
H26_3 C35_3 1_555 1_555
Zn4 O2_4 1_555 1_555
O2_4 C9_4 1_555 1_555
O3_4 C9_4 1_555 1_555
O15 C25_4 1_555 1_555
O16 C25_4 1_555 1_555
N1_4 Zn4 1_555 1_555
N3_2 C39_4 1_555 1_555
C3_4 O1_4 1_555 1_555
C4_4 C3_4 1_555 1_555
H3_4 C4_4 1_555 1_555
C5_4 C4_4 1_555 1_555
H4_4 C5_4 1_555 1_555
C6_4 C5_4 1_555 1_555
C7_4 C6_4 1_555 1_555
H5_4 C7_4 1_555 1_555
C8_4 C3_4 1_555 1_555
C9_4 C6_4 1_555 1_555
H13_4 C18_4 1_555 1_555
H14_4 C18_4 1_555 1_555
C20_4 C19_4 1_555 1_555
H15_4 C20_4 1_555 1_555
C21_4 C20_4 1_555 1_555
H16_4 C21_4 1_555 1_555
C22_4 C21_4 1_555 1_555
C23_4 C22_4 1_555 1_555
H17_4 C23_4 1_555 1_555
C24_4 C19_4 1_555 1_555
C25_4 C22_4 1_555 1_555
C37_4 C36_4 1_555 1_555
H27_4 C37_4 1_555 1_555
C38_4 N1_4 1_555 1_555
H28_4 C38_4 1_555 1_555
C39_4 H29_4 1_555 1_555
C40_4 C39_4 1_555 1_555
H30_4 C40_4 1_555 1_555
C41_4 C36_4 1_555 1_555
C7_4 C8_4 1_555 1_555
C23_4 C24_4 1_555 1_555
C37_4 C38_4 1_555 1_555
C40_4 C41_4 1_555 1_555
H25_4 C34_4 1_555 1_555
C35_4 C34_4 1_555 1_555
H26_4 C35_4 1_555 1_555
H31_4 C42_3 1_555 1_555
H32_3 C43_3 1_555 1_555
C42_3 C43_3 1_555 1_555
O4_4 C10_4 1_555 1_555
O13_2 C17_4 1_555 1_555
O14_2 C17_4 1_555 1_555
O10_4 C26_4 1_555 1_555
O17_2 C33_4 1_555 1_555
O18_2 C33_4 1_555 1_555
C1_4 C2_4 1_555 1_555
C2_4 H1_4 1_555 1_555
H2_4 C2_4 1_555 1_555
C10_4 C1_4 1_555 1_555
H7_4 C10_4 1_555 1_555
H8_4 C10_4 1_555 1_555
C11_4 O4_4 1_555 1_555
C12_4 C11_4 1_555 1_555
H9_4 C12_4 1_555 1_555
C13_4 C12_4 1_555 1_555
H10_4 C13_4 1_555 1_555
C14_4 C13_4 1_555 1_555
C15_4 C14_4 1_555 1_555
H11_4 C15_4 1_555 1_555
C16_4 C11_4 1_555 1_555
H12_4 C16_4 1_555 1_555
C17_4 C14_4 1_555 1_555
C26_4 C1_4 1_555 1_555
H19_4 C26_4 1_555 1_555
H20_4 C26_4 1_555 1_555
C27_4 O10_4 1_555 1_555
C28_4 C27_4 1_555 1_555
H21_4 C28_4 1_555 1_555
C29_4 C28_4 1_555 1_555
H22_4 C29_4 1_555 1_555
C30_4 C29_4 1_555 1_555
C31_4 C30_4 1_555 1_555
H23_4 C31_4 1_555 1_555
C32_4 C27_4 1_555 1_555
H24_4 C32_4 1_555 1_555
C33_4 C30_4 1_555 1_555
C15_4 C16_4 1_555 1_555
C31_4 C32_4 1_555 1_555
H25_5 C34_5 1_555 1_555
C35_5 C34_5 1_555 1_555
H26_5 C35_5 1_555 1_555
Zn1_2 O2_5 1_555 1_555
Zn2_2 O3_5 1_555 1_555
O1_5 C2_5 1_555 1_555
O2_5 C9_5 1_555 1_555
O3_5 C9_5 1_555 1_555
O4_5 C10_5 1_555 1_555
O5_3 C17_5 1_555 1_555
O6_3 C17_5 1_555 1_555
O7_5 C18_5 1_555 1_555
O8_3 C25_5 1_555 1_555
O10_5 C26_5 1_555 1_555
N1_5 Zn1_2 1_555 1_555
C1_5 C2_5 1_555 1_555
C2_5 H1_5 1_555 1_555
H2_5 C2_5 1_555 1_555
C3_5 O1_5 1_555 1_555
C4_5 C3_5 1_555 1_555
H3_5 C4_5 1_555 1_555
C5_5 C4_5 1_555 1_555
H4_5 C5_5 1_555 1_555
C6_5 C5_5 1_555 1_555
C7_5 C6_5 1_555 1_555
H5_5 C7_5 1_555 1_555
C8_5 C3_5 1_555 1_555
H6_5 C8_5 1_555 1_555
C9_5 C6_5 1_555 1_555
C10_5 C1_5 1_555 1_555
H7_5 C10_5 1_555 1_555
H8_5 C10_5 1_555 1_555
C11_5 O4_5 1_555 1_555
C12_5 C11_5 1_555 1_555
H9_5 C12_5 1_555 1_555
C13_5 C12_5 1_555 1_555
H10_5 C13_5 1_555 1_555
C14_5 C13_5 1_555 1_555
C15_5 C14_5 1_555 1_555
H11_5 C15_5 1_555 1_555
C16_5 C11_5 1_555 1_555
H12_5 C16_5 1_555 1_555
C17_5 C14_5 1_555 1_555
C18_5 C1_5 1_555 1_555
H13_5 C18_5 1_555 1_555
H14_5 C18_5 1_555 1_555
C19_5 O7_5 1_555 1_555
C20_5 C19_5 1_555 1_555
H15_5 C20_5 1_555 1_555
C21_5 C20_5 1_555 1_555
H16_5 C21_5 1_555 1_555
C22_5 C21_5 1_555 1_555
C23_5 C22_5 1_555 1_555
H17_5 C23_5 1_555 1_555
C24_5 C19_5 1_555 1_555
H18_5 C24_5 1_555 1_555
C25_5 C22_5 1_555 1_555
C26_5 C1_5 1_555 1_555
H19_5 C26_5 1_555 1_555
H20_5 C26_5 1_555 1_555
C27_5 O10_5 1_555 1_555
C28_5 C27_5 1_555 1_555
H21_5 C28_5 1_555 1_555
C29_5 C28_5 1_555 1_555
H22_5 C29_5 1_555 1_555
C30_5 C29_5 1_555 1_555
C31_5 C30_5 1_555 1_555
C32_5 C27_5 1_555 1_555
H24_5 C32_5 1_555 1_555
C37_5 C36_5 1_555 1_555
C38_5 N1_5 1_555 1_555
H28_5 C38_5 1_555 1_555
Zn3_2 O5_3 1_555 1_555
Zn6_2 O6_3 1_555 1_555
Zn7_2 O8_3 1_555 1_555
Zn8_2 O11_3 1_555 1_555
O17_3 Zn2_2 1_555 1_555
O18_3 Zn1_2 1_555 1_555
N3_3 Zn2_2 1_555 1_555
C7_5 C8_5 1_555 1_555
C15_5 C16_5 1_555 1_555
C23_5 C24_5 1_555 1_555
C31_5 C32_5 1_555 1_555
C37_5 C38_5 1_555 1_555
N2_3 C39_5 1_555 1_555
C39_5 H29_5 1_555 1_555
C40_5 C39_5 1_555 1_555
H30_5 C40_5 1_555 1_555
Zn8_2 N2_3 1_555 1_555
C40_5 C41_5 1_555 1_555
O12_3 C33_5 1_555 1_555
Zn4_2 O9_3 1_555 1_555
Zn5_2 O12_3 1_555 1_555
O4_6 C10_6 1_555 1_555
O5_4 C17_6 1_555 1_555
O6_4 C17_6 1_555 1_555
O10_6 C26_6 1_555 1_555
O17_3 C33_6 1_555 1_555
O18_3 C33_6 1_555 1_555
C1_6 C2_6 1_555 1_555
C2_6 H1_6 1_555 1_555
H2_6 C2_6 1_555 1_555
C10_6 C1_6 1_555 1_555
H7_6 C10_6 1_555 1_555
H8_6 C10_6 1_555 1_555
C11_6 O4_6 1_555 1_555
C12_6 C11_6 1_555 1_555
H9_6 C12_6 1_555 1_555
C13_6 C12_6 1_555 1_555
H10_6 C13_6 1_555 1_555
C14_6 C13_6 1_555 1_555
C15_6 C14_6 1_555 1_555
H11_6 C15_6 1_555 1_555
C16_6 C11_6 1_555 1_555
H12_6 C16_6 1_555 1_555
C17_6 C14_6 1_555 1_555
C26_6 C1_6 1_555 1_555
H19_6 C26_6 1_555 1_555
H20_6 C26_6 1_555 1_555
C27_6 O10_6 1_555 1_555
C28_6 C27_6 1_555 1_555
H21_6 C28_6 1_555 1_555
C29_6 C28_6 1_555 1_555
H22_6 C29_6 1_555 1_555
C30_6 C29_6 1_555 1_555
C31_6 C30_6 1_555 1_555
H23_6 C31_6 1_555 1_555
C32_6 C27_6 1_555 1_555
H24_6 C32_6 1_555 1_555
C33_6 C30_6 1_555 1_555
Zn4_2 O5_4 1_555 1_555
C15_6 C16_6 1_555 1_555
C31_6 C32_6 1_555 1_555
H25_6 C34_6 1_555 1_555
C35_6 C34_6 1_555 1_555
H26_6 C35_6 1_555 1_555
H31_6 C42_4 1_555 1_555
H32_4 C43_4 1_555 1_555
C42_4 C43_4 1_555 1_555
Zn5_2 O2_6 1_555 1_555
O2_6 C9_6 1_555 1_555
O3_6 C9_6 1_555 1_555
O8_4 C25_6 1_555 1_555
O9_4 C25_6 1_555 1_555
N1_6 Zn5_2 1_555 1_555
N3_3 C39_6 1_555 1_555
C3_6 O1_6 1_555 1_555
C4_6 C3_6 1_555 1_555
H3_6 C4_6 1_555 1_555
C5_6 C4_6 1_555 1_555
H4_6 C5_6 1_555 1_555
C6_6 C5_6 1_555 1_555
C7_6 C6_6 1_555 1_555
H5_6 C7_6 1_555 1_555
C8_6 C3_6 1_555 1_555
C9_6 C6_6 1_555 1_555
H13_6 C18_6 1_555 1_555
H14_6 C18_6 1_555 1_555
C20_6 C19_6 1_555 1_555
H15_6 C20_6 1_555 1_555
C21_6 C20_6 1_555 1_555
H16_6 C21_6 1_555 1_555
C22_6 C21_6 1_555 1_555
C23_6 C22_6 1_555 1_555
H17_6 C23_6 1_555 1_555
C24_6 C19_6 1_555 1_555
C25_6 C22_6 1_555 1_555
C37_6 C36_6 1_555 1_555
H27_6 C37_6 1_555 1_555
C38_6 N1_6 1_555 1_555
H28_6 C38_6 1_555 1_555
C39_6 H29_6 1_555 1_555
C40_6 C39_6 1_555 1_555
H30_6 C40_6 1_555 1_555
C41_6 C36_6 1_555 1_555
Zn3_2 O9_4 1_555 1_555
Zn6_2 O8_4 1_555 1_555
C7_6 C8_6 1_555 1_555
C23_6 C24_6 1_555 1_555
C37_6 C38_6 1_555 1_555
C40_6 C41_6 1_555 1_555
N2_4 C39_7 1_555 1_555
C39_7 H29_7 1_555 1_555
C40_7 C39_7 1_555 1_555
H30_7 C40_7 1_555 1_555
C42_5 C41_7 1_555 1_555
C43_5 N2_4 1_555 1_555
H32_5 C43_5 1_555 1_555
Zn7_2 N2_4 1_555 1_555
C40_7 C41_7 1_555 1_555
C42_5 C43_5 1_555 1_555
Zn3_2 O2_7 1_555 1_555
Zn6_2 O3_7 1_555 1_555
O1_7 C2_7 1_555 1_555
O2_7 C9_7 1_555 1_555
O3_7 C9_7 1_555 1_555
O4_7 C10_7 1_555 1_555
O13_3 C17_7 1_555 1_555
O14_3 C17_7 1_555 1_555
O7_7 C18_7 1_555 1_555
O15_4 C25_7 1_555 1_555
O10_7 C26_7 1_555 1_555
N1_7 Zn3_2 1_555 1_555
C1_7 C2_7 1_555 1_555
C2_7 H1_7 1_555 1_555
H2_7 C2_7 1_555 1_555
C3_7 O1_7 1_555 1_555
C4_7 C3_7 1_555 1_555
H3_7 C4_7 1_555 1_555
C5_7 C4_7 1_555 1_555
H4_7 C5_7 1_555 1_555
C6_7 C5_7 1_555 1_555
C7_7 C6_7 1_555 1_555
H5_7 C7_7 1_555 1_555
C8_7 C3_7 1_555 1_555
H6_7 C8_7 1_555 1_555
C9_7 C6_7 1_555 1_555
C10_7 C1_7 1_555 1_555
H7_7 C10_7 1_555 1_555
H8_7 C10_7 1_555 1_555
C11_7 O4_7 1_555 1_555
C12_7 C11_7 1_555 1_555
H9_7 C12_7 1_555 1_555
C13_7 C12_7 1_555 1_555
H10_7 C13_7 1_555 1_555
C14_7 C13_7 1_555 1_555
C15_7 C14_7 1_555 1_555
H11_7 C15_7 1_555 1_555
C16_7 C11_7 1_555 1_555
H12_7 C16_7 1_555 1_555
C17_7 C14_7 1_555 1_555
C18_7 C1_7 1_555 1_555
H13_7 C18_7 1_555 1_555
H14_7 C18_7 1_555 1_555
C19_7 O7_7 1_555 1_555
C20_7 C19_7 1_555 1_555
H15_7 C20_7 1_555 1_555
C21_7 C20_7 1_555 1_555
H16_7 C21_7 1_555 1_555
C22_7 C21_7 1_555 1_555
C23_7 C22_7 1_555 1_555
H17_7 C23_7 1_555 1_555
C24_7 C19_7 1_555 1_555
H18_7 C24_7 1_555 1_555
C25_7 C22_7 1_555 1_555
C26_7 C1_7 1_555 1_555
H19_7 C26_7 1_555 1_555
H20_7 C26_7 1_555 1_555
C27_7 O10_7 1_555 1_555
C28_7 C27_7 1_555 1_555
H21_7 C28_7 1_555 1_555
C29_7 C28_7 1_555 1_555
H22_7 C29_7 1_555 1_555
C30_7 C29_7 1_555 1_555
C31_7 C30_7 1_555 1_555
C32_7 C27_7 1_555 1_555
H24_7 C32_7 1_555 1_555
C34_7 N1_7 1_555 1_555
H25_7 C34_7 1_555 1_555
C35_7 C34_7 1_555 1_555
H26_7 C35_7 1_555 1_555
C36_7 C35_7 1_555 1_555
C37_7 C36_7 1_555 1_555
C38_7 N1_7 1_555 1_555
H28_7 C38_7 1_555 1_555
Zn7_2 O11_4 1_555 1_555
O17_4 Zn6_2 1_555 1_555
O18_4 Zn3_2 1_555 1_555
N3_4 Zn6_2 1_555 1_555
C7_7 C8_7 1_555 1_555
C15_7 C16_7 1_555 1_555
C23_7 C24_7 1_555 1_555
C31_7 C32_7 1_555 1_555
C37_7 C38_7 1_555 1_555
O12_4 C33_7 1_555 1_555
Zn4_2 O12_4 1_555 1_555
Zn4_2 O2_8 1_555 1_555
O2_8 C9_8 1_555 1_555
O3_8 C9_8 1_555 1_555
O15_3 C25_8 1_555 1_555
O16_3 C25_8 1_555 1_555
N1_8 Zn4_2 1_555 1_555
N3_4 C39_8 1_555 1_555
C3_8 O1_8 1_555 1_555
C4_8 C3_8 1_555 1_555
H3_8 C4_8 1_555 1_555
C5_8 C4_8 1_555 1_555
H4_8 C5_8 1_555 1_555
C6_8 C5_8 1_555 1_555
C7_8 C6_8 1_555 1_555
H5_8 C7_8 1_555 1_555
C8_8 C3_8 1_555 1_555
C9_8 C6_8 1_555 1_555
H13_8 C18_8 1_555 1_555
H14_8 C18_8 1_555 1_555
C20_8 C19_8 1_555 1_555
H15_8 C20_8 1_555 1_555
C21_8 C20_8 1_555 1_555
H16_8 C21_8 1_555 1_555
C22_8 C21_8 1_555 1_555
C23_8 C22_8 1_555 1_555
H17_8 C23_8 1_555 1_555
C24_8 C19_8 1_555 1_555
C25_8 C22_8 1_555 1_555
C34_8 N1_8 1_555 1_555
H25_8 C34_8 1_555 1_555
C35_8 C34_8 1_555 1_555
H26_8 C35_8 1_555 1_555
C36_8 C35_8 1_555 1_555
C37_8 C36_8 1_555 1_555
H27_8 C37_8 1_555 1_555
C38_8 N1_8 1_555 1_555
H28_8 C38_8 1_555 1_555
C39_8 H29_8 1_555 1_555
C40_8 C39_8 1_555 1_555
H30_8 C40_8 1_555 1_555
C41_8 C36_8 1_555 1_555
C42_6 C41_8 1_555 1_555
H31_8 C42_6 1_555 1_555
C43_6 N3_4 1_555 1_555
H32_6 C43_6 1_555 1_555
C7_8 C8_8 1_555 1_555
C23_8 C24_8 1_555 1_555
C37_8 C38_8 1_555 1_555
C40_8 C41_8 1_555 1_555
C42_6 C43_6 1_555 1_555
O4_8 C10_8 1_555 1_555
O13_4 C17_8 1_555 1_555
O14_4 C17_8 1_555 1_555
O10_8 C26_8 1_555 1_555
O17_4 C33_8 1_555 1_555
O18_4 C33_8 1_555 1_555
C1_8 C2_8 1_555 1_555
C2_8 H1_8 1_555 1_555
H2_8 C2_8 1_555 1_555
C10_8 C1_8 1_555 1_555
H7_8 C10_8 1_555 1_555
H8_8 C10_8 1_555 1_555
C11_8 O4_8 1_555 1_555
C12_8 C11_8 1_555 1_555
H9_8 C12_8 1_555 1_555
C13_8 C12_8 1_555 1_555
H10_8 C13_8 1_555 1_555
C14_8 C13_8 1_555 1_555
C15_8 C14_8 1_555 1_555
H11_8 C15_8 1_555 1_555
C16_8 C11_8 1_555 1_555
H12_8 C16_8 1_555 1_555
C17_8 C14_8 1_555 1_555
C26_8 C1_8 1_555 1_555
H19_8 C26_8 1_555 1_555
H20_8 C26_8 1_555 1_555
C27_8 O10_8 1_555 1_555
C28_8 C27_8 1_555 1_555
H21_8 C28_8 1_555 1_555
C29_8 C28_8 1_555 1_555
H22_8 C29_8 1_555 1_555
C30_8 C29_8 1_555 1_555
C31_8 C30_8 1_555 1_555
H23_8 C31_8 1_555 1_555
C32_8 C27_8 1_555 1_555
H24_8 C32_8 1_555 1_555
C33_8 C30_8 1_555 1_555
C15_8 C16_8 1_555 1_555
C31_8 C32_8 1_555 1_555
H32_7 C43_7 1_555 1_555
C42_7 C43_7 1_555 1_555
H32_8 C43_8 1_555 1_555
C42_8 C43_8 1_555 1_555

#END
