
###############################################################################
#
# This file contains modified crystal structure data generated from the
# MOF subset of the Cambridge Structural Database (CSD) v543 
# hosted by the Cambridge Crystallographic Data Centre (CCDC).
#
# This work is licensed under the Creative Commons
# Attribution-NonCommercial-ShareAlike 4.0 International License.
# To view a copy of this license, visit
# http://creativecommons.org/licenses/by-nc-sa/4.0/
# or send a letter to
# Creative Commons, PO Box 1866, Mountain View, CA 94042, USA.
#
# CIF created using the CSD Python API on 29 September 2022
# The structure has been converted into the P1 space group
# The structure has a 3D framework
# The original CSD entry YOPJOF is in the tetragonal crystal system
# The framework has been calculated to contain at least 10.0% void space
# The void calculation uses a probe of radius 1.32A, grid spacing 0.4
#
###############################################################################

data_YOPJOF
_chemical_formula_moiety         '(C208 H128 Cd4 F22 N32 O32 Si4)n'
_symmetry_cell_setting           triclinic
_symmetry_space_group_name_H-M   'P 1'
_symmetry_Int_Tables_number      1
_space_group_name_Hall           'P 1'
loop_
_symmetry_equiv_pos_site_id
_symmetry_equiv_pos_as_xyz
1 x,y,z
_cell_length_a                   21.4522(12)
_cell_length_b                   21.4522(12)
_cell_length_c                   16.4478(19)
_cell_angle_alpha                90
_cell_angle_beta                 90
_cell_angle_gamma                90
_cell_volume                     7569.23
loop_
_atom_site_label
_atom_site_type_symbol
_atom_site_fract_x
_atom_site_fract_y
_atom_site_fract_z
Cd2 Cd 0.2500 0.2500 0.34232(7)
O1 O 0.7771(4) 0.1036(4) 0.0552(4)
O2 O 0.8284(4) 0.0655(3) 0.3180(4)
O3 O 0.5606(3) 0.3310(3) 0.1843(4)
O4 O 0.6035(4) 0.2825(4) 0.4472(4)
C6 C 0.8500(5) 0.0388(5) 0.1620(6)
H5 H 0.8854 0.0410 0.2005
H6 H 0.8658 0.0501 0.1074
C7 C 0.7680(4) 0.1162(5) 0.1276(6)
C8 C 0.7221(5) 0.1613(5) 0.1542(6)
C9 C 0.7137(4) 0.1718(4) 0.2386(5)
C10 C 0.7470(5) 0.1379(4) 0.2972(6)
C11 C 0.7961(5) 0.0935(5) 0.2706(6)
C12 C 0.7379(6) 0.1472(5) 0.3799(6)
H7 H 0.7614 0.1244 0.4189
C13 C 0.6936(5) 0.1906(5) 0.4044(6)
H8 H 0.6869 0.1963 0.4610
C14 C 0.6587(5) 0.2263(5) 0.3503(6)
C15 C 0.6138(4) 0.2727(5) 0.3759(6)
C16 C 0.5900(4) 0.2985(5) 0.2327(6)
C17 C 0.6360(4) 0.2507(6) 0.2061(5)
C18 C 0.6686(5) 0.2158(4) 0.2636(5)
C19 C 0.6435(5) 0.2376(4) 0.1243(5)
H9 H 0.6192 0.2591 0.0850
C20 C 0.6864(5) 0.1932(5) 0.0997(6)
H10 H 0.6911 0.1848 0.0433
C21 C 0.5392(5) 0.3560(5) 0.3422(6)
H11 H 0.5418 0.3921 0.3049
H12 H 0.5505 0.3703 0.3975
C22 C 0.4727(4) 0.3305(5) 0.3426(6)
C23 C 0.4516(6) 0.2937(6) 0.4045(8)
H13 H 0.4788 0.2832 0.4480
C24 C 0.3910(5) 0.2715(6) 0.4042(7)
H14 H 0.3770 0.2465 0.4481
C25 C 0.3718(5) 0.3199(5) 0.2807(6)
H15 H 0.3446 0.3289 0.2365
C26 C 0.4314(5) 0.3435(5) 0.2796(7)
H16 H 0.4445 0.3689 0.2355
N2 N 0.8026(4) 0.0840(4) 0.1865(5)
N3 N 0.3510(4) 0.2849(4) 0.3419(5)
N4 N 0.5829(4) 0.3072(4) 0.3157(5)
Si1 Si 0.2500 0.2500 0.0903(3)
F4 F 0.1928(3) 0.1972(3) 0.0926(3)
F6 F 0.2500 0.2500 0.1965(5)
F7 F 0.3072(3) 0.3028(3) 0.0926(3)
F8 F 0.3028(3) 0.1928(3) 0.0926(3)
F9 F 0.1972(3) 0.3072(3) 0.0926(3)
C48 C 0.0273(4) 0.1695(5) 0.3426(6)
C49 C 0.0484(6) 0.2063(6) 0.4045(8)
H29 H 0.0212 0.2168 0.4480
C50 C 0.1090(5) 0.2285(6) 0.4042(7)
H30 H 0.1230 0.2535 0.4481
C51 C 0.1282(5) 0.1801(5) 0.2807(6)
H31 H 0.1554 0.1711 0.2365
C52 C 0.0686(5) 0.1565(5) 0.2796(7)
H32 H 0.0555 0.1311 0.2355
N7 N 0.1490(4) 0.2151(4) 0.3419(5)
C100 C 0.3305(5) 0.0273(4) 0.3426(6)
C101 C 0.2937(6) 0.0484(6) 0.4045(8)
H61 H 0.2832 0.0212 0.4480
C102 C 0.2715(6) 0.1090(5) 0.4042(7)
H62 H 0.2465 0.1230 0.4481
C103 C 0.3199(5) 0.1282(5) 0.2807(6)
H63 H 0.3289 0.1554 0.2365
C104 C 0.3435(5) 0.0686(5) 0.2796(7)
H64 H 0.3689 0.0555 0.2355
N15 N 0.2849(4) 0.1490(4) 0.3419(5)
N19 N 0.2151(4) 0.3510(4) 0.3419(5)
F13 F 0.2500 0.2500 0.4877(6)
F5 F 0.2500 0.2500 0.9898(7)
Cd5 Cd 0.2500 0.2500 0.84305(7)
Cd1 Cd 0.7500 0.7500 0.15695(7)
C1 C 0.7691(5) 0.8904(5) 0.1000(6)
H1 H 0.7441 0.8755 0.0564
C2 C 0.7896(5) 0.9512(5) 0.0977(6)
H2 H 0.7786 0.9774 0.0534
C3 C 0.8260(5) 0.9740(5) 0.1598(6)
C4 C 0.8393(5) 0.9329(5) 0.2248(6)
H3 H 0.8636 0.9462 0.2698
C5 C 0.8164(6) 0.8738(6) 0.2211(7)
H4 H 0.8254 0.8466 0.2652
N1 N 0.7826(4) 0.8516(4) 0.1606(5)
Si2 Si 0.7500 0.7500 0.4101(3)
F1 F 0.7500 0.7500 0.5123(6)
F2 F 0.7430(3) 0.6721(2) 0.4090(3)
F3 F 0.7500 0.7500 0.3053(5)
F10 F 0.7570(3) 0.8279(2) 0.4090(3)
F11 F 0.8279(2) 0.7430(3) 0.4090(3)
F12 F 0.6721(2) 0.7570(3) 0.4090(3)
O9 O 0.3964(4) 0.7771(4) 0.0552(4)
O10 O 0.4345(3) 0.8284(4) 0.3180(4)
O11 O 0.1690(3) 0.5606(3) 0.1843(4)
O12 O 0.2175(4) 0.6035(4) 0.4472(4)
C53 C 0.6096(5) 0.7691(5) 0.1000(6)
H33 H 0.6245 0.7441 0.0564
C54 C 0.5488(5) 0.7896(5) 0.0977(6)
H34 H 0.5226 0.7786 0.0534
C55 C 0.5260(5) 0.8260(5) 0.1598(6)
C56 C 0.5671(5) 0.8393(5) 0.2248(6)
H35 H 0.5538 0.8636 0.2698
C57 C 0.6262(6) 0.8164(6) 0.2211(7)
H36 H 0.6534 0.8254 0.2652
C58 C 0.4612(5) 0.8500(5) 0.1620(6)
H37 H 0.4590 0.8854 0.2005
H38 H 0.4499 0.8658 0.1074
C59 C 0.3838(5) 0.7680(4) 0.1276(6)
C60 C 0.3387(5) 0.7221(5) 0.1542(6)
C61 C 0.3282(4) 0.7137(4) 0.2386(5)
C62 C 0.3621(4) 0.7470(5) 0.2972(6)
C63 C 0.4065(5) 0.7961(5) 0.2706(6)
C64 C 0.3528(5) 0.7379(6) 0.3799(6)
H39 H 0.3756 0.7614 0.4189
C65 C 0.3094(5) 0.6936(5) 0.4044(6)
H40 H 0.3037 0.6869 0.4610
C66 C 0.2737(5) 0.6587(5) 0.3503(6)
C67 C 0.2273(5) 0.6138(4) 0.3759(6)
C68 C 0.2015(5) 0.5900(4) 0.2327(6)
C69 C 0.2493(6) 0.6360(4) 0.2061(5)
C70 C 0.2842(4) 0.6686(5) 0.2636(5)
C71 C 0.2624(4) 0.6435(5) 0.1243(5)
H41 H 0.2409 0.6192 0.0850
C72 C 0.3068(5) 0.6864(5) 0.0997(6)
H42 H 0.3152 0.6911 0.0433
C73 C 0.1440(5) 0.5392(5) 0.3422(6)
H43 H 0.1079 0.5418 0.3049
H44 H 0.1297 0.5505 0.3975
C74 C 0.1695(5) 0.4727(4) 0.3426(6)
C75 C 0.2063(6) 0.4516(6) 0.4045(8)
H45 H 0.2168 0.4788 0.4480
C76 C 0.2285(6) 0.3910(5) 0.4042(7)
H46 H 0.2535 0.3770 0.4481
C77 C 0.1801(5) 0.3718(5) 0.2807(6)
H47 H 0.1711 0.3446 0.2365
C78 C 0.1565(5) 0.4314(5) 0.2796(7)
H48 H 0.1311 0.4445 0.2355
N9 N 0.6484(4) 0.7826(4) 0.1606(5)
N10 N 0.4160(4) 0.8026(4) 0.1865(5)
N12 N 0.1928(4) 0.5829(4) 0.3157(5)
O13 O 0.1036(4) 0.7229(4) 0.0552(4)
O14 O 0.0655(3) 0.6716(4) 0.3180(4)
O15 O 0.3310(3) 0.9394(3) 0.1843(4)
O16 O 0.2825(4) 0.8965(4) 0.4472(4)
C84 C 0.0388(5) 0.6500(5) 0.1620(6)
H53 H 0.0410 0.6146 0.2005
H54 H 0.0501 0.6342 0.1074
C85 C 0.1162(5) 0.7320(4) 0.1276(6)
C86 C 0.1613(5) 0.7779(5) 0.1542(6)
C87 C 0.1718(4) 0.7863(4) 0.2386(5)
C88 C 0.1379(4) 0.7530(5) 0.2972(6)
C89 C 0.0935(5) 0.7039(5) 0.2706(6)
C90 C 0.1472(5) 0.7621(6) 0.3799(6)
H55 H 0.1244 0.7386 0.4189
C91 C 0.1906(5) 0.8064(5) 0.4044(6)
H56 H 0.1963 0.8131 0.4610
C92 C 0.2263(5) 0.8413(5) 0.3503(6)
C93 C 0.2727(5) 0.8862(4) 0.3759(6)
C94 C 0.2985(5) 0.9100(4) 0.2327(6)
C95 C 0.2507(6) 0.8640(4) 0.2061(5)
C96 C 0.2158(4) 0.8314(5) 0.2636(5)
C97 C 0.2376(4) 0.8565(5) 0.1243(5)
H57 H 0.2591 0.8808 0.0850
C98 C 0.1932(5) 0.8136(5) 0.0997(6)
H58 H 0.1848 0.8089 0.0433
C99 C 0.3560(5) 0.9608(5) 0.3422(6)
H59 H 0.3921 0.9582 0.3049
H60 H 0.3703 0.9495 0.3975
N14 N 0.0840(4) 0.6974(4) 0.1865(5)
N16 N 0.3072(4) 0.9171(4) 0.3157(5)
Cd7 Cd 0.7500 0.7500 0.65768(7)
N17 N 0.7174(4) 0.6484(4) 0.1606(5)
N18 N 0.8516(4) 0.7174(4) 0.1606(5)
F14 F 0.7500 0.7500 0.0102(7)
O5 O 0.7229(4) 0.3964(4) 0.0552(4)
O6 O 0.6716(4) 0.4345(3) 0.3180(4)
O7 O 0.9394(3) 0.1690(3) 0.1843(4)
O8 O 0.8965(4) 0.2175(4) 0.4472(4)
C27 C 0.7309(5) 0.6096(5) 0.1000(6)
H17 H 0.7559 0.6245 0.0564
C28 C 0.7104(5) 0.5488(5) 0.0977(6)
H18 H 0.7214 0.5226 0.0534
C29 C 0.6740(5) 0.5260(5) 0.1598(6)
C30 C 0.6607(5) 0.5671(5) 0.2248(6)
H19 H 0.6364 0.5538 0.2698
C31 C 0.6836(6) 0.6262(6) 0.2211(7)
H20 H 0.6746 0.6534 0.2652
C32 C 0.6500(5) 0.4612(5) 0.1620(6)
H21 H 0.6146 0.4590 0.2005
H22 H 0.6342 0.4499 0.1074
C33 C 0.7320(4) 0.3838(5) 0.1276(6)
C34 C 0.7779(5) 0.3387(5) 0.1542(6)
C35 C 0.7863(4) 0.3282(4) 0.2386(5)
C36 C 0.7530(5) 0.3621(4) 0.2972(6)
C37 C 0.7039(5) 0.4065(5) 0.2706(6)
C38 C 0.7621(6) 0.3528(5) 0.3799(6)
H23 H 0.7386 0.3756 0.4189
C39 C 0.8064(5) 0.3094(5) 0.4044(6)
H24 H 0.8131 0.3037 0.4610
C40 C 0.8413(5) 0.2737(5) 0.3503(6)
C41 C 0.8862(4) 0.2273(5) 0.3759(6)
C42 C 0.9100(4) 0.2015(5) 0.2327(6)
C43 C 0.8640(4) 0.2493(6) 0.2061(5)
C44 C 0.8314(5) 0.2842(4) 0.2636(5)
C45 C 0.8565(5) 0.2624(4) 0.1243(5)
H25 H 0.8808 0.2409 0.0850
C46 C 0.8136(5) 0.3068(5) 0.0997(6)
H26 H 0.8089 0.3152 0.0433
C47 C 0.9608(5) 0.1440(5) 0.3422(6)
H27 H 0.9582 0.1079 0.3049
H28 H 0.9495 0.1297 0.3975
N6 N 0.6974(4) 0.4160(4) 0.1865(5)
N8 N 0.9171(4) 0.1928(4) 0.3157(5)
C79 C 0.8904(5) 0.7309(5) 0.1000(6)
H49 H 0.8755 0.7559 0.0564
C80 C 0.9512(5) 0.7104(5) 0.0977(6)
H50 H 0.9774 0.7214 0.0534
C81 C 0.9740(5) 0.6740(5) 0.1598(6)
C82 C 0.9329(5) 0.6607(5) 0.2248(6)
H51 H 0.9462 0.6364 0.2698
C83 C 0.8738(6) 0.6836(6) 0.2211(7)
H52 H 0.8466 0.6746 0.2652
C79_2 C 0.1096(5) 0.2691(5) 0.9000(6)
H49_2 H 0.1245 0.2441 0.9436
C80_2 C 0.0488(5) 0.2896(5) 0.9023(6)
H50_2 H 0.0226 0.2786 0.9466
C81_2 C 0.0260(5) 0.3260(5) 0.8402(6)
C82_2 C 0.0671(5) 0.3393(5) 0.7752(6)
H51_2 H 0.0538 0.3636 0.7302
C83_2 C 0.1262(6) 0.3164(6) 0.7789(7)
H52_2 H 0.1534 0.3254 0.7348
N13 N 0.1484(4) 0.2826(4) 0.8394(5)
O5_2 O 0.2771(4) 0.6036(4) 0.9448(4)
O6_2 O 0.3284(4) 0.5655(3) 0.6820(4)
O7_2 O 0.0606(3) 0.8310(3) 0.8157(4)
O8_2 O 0.1035(4) 0.7825(4) 0.5528(4)
C27_2 C 0.2691(5) 0.3904(5) 0.9000(6)
H17_2 H 0.2441 0.3755 0.9436
C28_2 C 0.2896(5) 0.4512(5) 0.9023(6)
H18_2 H 0.2786 0.4774 0.9466
C29_2 C 0.3260(5) 0.4740(5) 0.8402(6)
C30_2 C 0.3393(5) 0.4329(5) 0.7752(6)
H19_2 H 0.3636 0.4462 0.7302
C31_2 C 0.3164(6) 0.3738(6) 0.7789(7)
H20_2 H 0.3254 0.3466 0.7348
C32_2 C 0.3500(5) 0.5388(5) 0.8380(6)
H21_2 H 0.3854 0.5410 0.7995
H22_2 H 0.3658 0.5501 0.8926
C33_2 C 0.2680(4) 0.6162(5) 0.8724(6)
C34_2 C 0.2221(5) 0.6613(5) 0.8458(6)
C35_2 C 0.2137(4) 0.6718(4) 0.7614(5)
C36_2 C 0.2470(5) 0.6379(4) 0.7028(6)
C37_2 C 0.2961(5) 0.5935(5) 0.7294(6)
C38_2 C 0.2379(6) 0.6472(5) 0.6201(6)
H23_2 H 0.2614 0.6244 0.5811
C39_2 C 0.1936(5) 0.6906(5) 0.5956(6)
H24_2 H 0.1869 0.6963 0.5390
C40_2 C 0.1587(5) 0.7263(5) 0.6497(6)
C41_2 C 0.1138(4) 0.7727(5) 0.6241(6)
C42_2 C 0.0900(4) 0.7985(5) 0.7673(6)
C43_2 C 0.1360(4) 0.7507(6) 0.7939(5)
C44_2 C 0.1686(5) 0.7158(4) 0.7364(5)
C45_2 C 0.1435(5) 0.7376(4) 0.8757(5)
H25_2 H 0.1192 0.7591 0.9150
C46_2 C 0.1864(5) 0.6932(5) 0.9003(6)
H26_2 H 0.1911 0.6848 0.9567
C47_2 C 0.0392(5) 0.8560(5) 0.6578(6)
H27_2 H 0.0418 0.8921 0.6951
H28_2 H 0.0505 0.8703 0.6025
N5 N 0.2826(4) 0.3516(4) 0.8394(5)
N6_2 N 0.3026(4) 0.5840(4) 0.8135(5)
N8_2 N 0.0829(4) 0.8072(4) 0.6843(5)
C1_2 C 0.2309(5) 0.1096(5) 0.9000(6)
H1_2 H 0.2559 0.1245 0.9436
C2_2 C 0.2104(5) 0.0488(5) 0.9023(6)
H2_2 H 0.2214 0.0226 0.9466
C3_2 C 0.1740(5) 0.0260(5) 0.8402(6)
C4_2 C 0.1607(5) 0.0671(5) 0.7752(6)
H3_2 H 0.1364 0.0538 0.7302
C5_2 C 0.1836(6) 0.1262(6) 0.7789(7)
H4_2 H 0.1746 0.1534 0.7348
N1_2 N 0.2174(4) 0.1484(4) 0.8394(5)
Si2_2 Si 0.2500 0.2500 0.5899(3)
F2_2 F 0.2570(3) 0.3279(2) 0.5910(3)
F3_2 F 0.2500 0.2500 0.6947(5)
F10_2 F 0.2430(3) 0.1721(2) 0.5910(3)
F11_2 F 0.1721(2) 0.2570(3) 0.5910(3)
F12_2 F 0.3279(2) 0.2430(3) 0.5910(3)
O9_2 O 0.6036(4) 0.2229(4) 0.9448(4)
O10_2 O 0.5655(3) 0.1716(4) 0.6820(4)
O11_2 O 0.8310(3) 0.4394(3) 0.8157(4)
O12_2 O 0.7825(4) 0.3965(4) 0.5528(4)
C53_2 C 0.3904(5) 0.2309(5) 0.9000(6)
H33_2 H 0.3755 0.2559 0.9436
C54_2 C 0.4512(5) 0.2104(5) 0.9023(6)
H34_2 H 0.4774 0.2214 0.9466
C55_2 C 0.4740(5) 0.1740(5) 0.8402(6)
C56_2 C 0.4329(5) 0.1607(5) 0.7752(6)
H35_2 H 0.4462 0.1364 0.7302
C57_2 C 0.3738(6) 0.1836(6) 0.7789(7)
H36_2 H 0.3466 0.1746 0.7348
C58_2 C 0.5388(5) 0.1500(5) 0.8380(6)
H37_2 H 0.5410 0.1146 0.7995
H38_2 H 0.5501 0.1342 0.8926
C59_2 C 0.6162(5) 0.2320(4) 0.8724(6)
C60_2 C 0.6613(5) 0.2779(5) 0.8458(6)
C61_2 C 0.6718(4) 0.2863(4) 0.7614(5)
C62_2 C 0.6379(4) 0.2530(5) 0.7028(6)
C63_2 C 0.5935(5) 0.2039(5) 0.7294(6)
C64_2 C 0.6472(5) 0.2621(6) 0.6201(6)
H39_2 H 0.6244 0.2386 0.5811
C65_2 C 0.6906(5) 0.3064(5) 0.5956(6)
H40_2 H 0.6963 0.3131 0.5390
C66_2 C 0.7263(5) 0.3413(5) 0.6497(6)
C67_2 C 0.7727(5) 0.3862(4) 0.6241(6)
C68_2 C 0.7985(5) 0.4100(4) 0.7673(6)
C69_2 C 0.7507(6) 0.3640(4) 0.7939(5)
C70_2 C 0.7158(4) 0.3314(5) 0.7364(5)
C71_2 C 0.7376(4) 0.3565(5) 0.8757(5)
H41_2 H 0.7591 0.3808 0.9150
C72_2 C 0.6932(5) 0.3136(5) 0.9003(6)
H42_2 H 0.6848 0.3089 0.9567
C73_2 C 0.8560(5) 0.4608(5) 0.6578(6)
H43_2 H 0.8921 0.4582 0.6951
H44_2 H 0.8703 0.4495 0.6025
C74_2 C 0.8305(5) 0.5273(4) 0.6574(6)
C75_2 C 0.7937(6) 0.5484(6) 0.5955(8)
H45_2 H 0.7832 0.5212 0.5520
C76_2 C 0.7715(6) 0.6090(5) 0.5958(7)
H46_2 H 0.7465 0.6230 0.5519
C77_2 C 0.8199(5) 0.6282(5) 0.7193(6)
H47_2 H 0.8289 0.6554 0.7635
C78_2 C 0.8435(5) 0.5686(5) 0.7204(7)
H48_2 H 0.8689 0.5555 0.7645
N9_2 N 0.3516(4) 0.2174(4) 0.8394(5)
N10_2 N 0.5840(4) 0.1974(4) 0.8135(5)
N11 N 0.7849(4) 0.6490(4) 0.6581(5)
N12_2 N 0.8072(4) 0.4171(4) 0.6843(5)
O13_2 O 0.8964(4) 0.2771(4) 0.9448(4)
O14_2 O 0.9345(3) 0.3284(4) 0.6820(4)
O15_2 O 0.6690(3) 0.0606(3) 0.8157(4)
O16_2 O 0.7175(4) 0.1035(4) 0.5528(4)
C84_2 C 0.9612(5) 0.3500(5) 0.8380(6)
H53_2 H 0.9590 0.3854 0.7995
H54_2 H 0.9499 0.3658 0.8926
C85_2 C 0.8838(5) 0.2680(4) 0.8724(6)
C86_2 C 0.8387(5) 0.2221(5) 0.8458(6)
C87_2 C 0.8282(4) 0.2137(4) 0.7614(5)
C88_2 C 0.8621(4) 0.2470(5) 0.7028(6)
C89_2 C 0.9065(5) 0.2961(5) 0.7294(6)
C90_2 C 0.8528(5) 0.2379(6) 0.6201(6)
H55_2 H 0.8756 0.2614 0.5811
C91_2 C 0.8094(5) 0.1936(5) 0.5956(6)
H56_2 H 0.8037 0.1869 0.5390
C92_2 C 0.7737(5) 0.1587(5) 0.6497(6)
C93_2 C 0.7273(5) 0.1138(4) 0.6241(6)
C94_2 C 0.7015(5) 0.0900(4) 0.7673(6)
C95_2 C 0.7493(6) 0.1360(4) 0.7939(5)
C96_2 C 0.7842(4) 0.1686(5) 0.7364(5)
C97_2 C 0.7624(4) 0.1435(5) 0.8757(5)
H57_2 H 0.7409 0.1192 0.9150
C98_2 C 0.8068(5) 0.1864(5) 0.9003(6)
H58_2 H 0.8152 0.1911 0.9567
C99_2 C 0.6440(5) 0.0392(5) 0.6578(6)
H59_2 H 0.6079 0.0418 0.6951
H60_2 H 0.6297 0.0505 0.6025
N14_2 N 0.9160(4) 0.3026(4) 0.8135(5)
N16_2 N 0.6928(4) 0.0829(4) 0.6843(5)
O1_2 O 0.2229(4) 0.8964(4) 0.9448(4)
O2_2 O 0.1716(4) 0.9345(3) 0.6820(4)
O3_2 O 0.4394(3) 0.6690(3) 0.8157(4)
O4_2 O 0.3965(4) 0.7175(4) 0.5528(4)
C6_2 C 0.1500(5) 0.9612(5) 0.8380(6)
H5_2 H 0.1146 0.9590 0.7995
H6_2 H 0.1342 0.9499 0.8926
C7_2 C 0.2320(4) 0.8838(5) 0.8724(6)
C8_2 C 0.2779(5) 0.8387(5) 0.8458(6)
C9_2 C 0.2863(4) 0.8282(4) 0.7614(5)
C10_2 C 0.2530(5) 0.8621(4) 0.7028(6)
C11_2 C 0.2039(5) 0.9065(5) 0.7294(6)
C12_2 C 0.2621(6) 0.8528(5) 0.6201(6)
H7_2 H 0.2386 0.8756 0.5811
C13_2 C 0.3064(5) 0.8094(5) 0.5956(6)
H8_2 H 0.3131 0.8037 0.5390
C14_2 C 0.3413(5) 0.7737(5) 0.6497(6)
C15_2 C 0.3862(4) 0.7273(5) 0.6241(6)
C16_2 C 0.4100(4) 0.7015(5) 0.7673(6)
C17_2 C 0.3640(4) 0.7493(6) 0.7939(5)
C18_2 C 0.3314(5) 0.7842(4) 0.7364(5)
C19_2 C 0.3565(5) 0.7624(4) 0.8757(5)
H9_2 H 0.3808 0.7409 0.9150
C20_2 C 0.3136(5) 0.8068(5) 0.9003(6)
H10_2 H 0.3089 0.8152 0.9567
C21_2 C 0.4608(5) 0.6440(5) 0.6578(6)
H11_2 H 0.4582 0.6079 0.6951
H12_2 H 0.4495 0.6297 0.6025
C22_2 C 0.5273(4) 0.6695(5) 0.6574(6)
C23_2 C 0.5484(6) 0.7063(6) 0.5955(8)
H13_2 H 0.5212 0.7168 0.5520
C24_2 C 0.6090(5) 0.7285(6) 0.5958(7)
H14_2 H 0.6230 0.7535 0.5519
C25_2 C 0.6282(5) 0.6801(5) 0.7193(6)
H15_2 H 0.6554 0.6711 0.7635
C26_2 C 0.5686(5) 0.6565(5) 0.7204(7)
H16_2 H 0.5555 0.6311 0.7645
N2_2 N 0.1974(4) 0.9160(4) 0.8135(5)
N3_2 N 0.6490(4) 0.7151(4) 0.6581(5)
N4_2 N 0.4171(4) 0.6928(4) 0.6843(5)
Si1_2 Si 0.7500 0.7500 0.9097(3)
F4_2 F 0.8072(3) 0.8028(3) 0.9074(3)
F6_2 F 0.7500 0.7500 0.8035(5)
F7_2 F 0.6928(3) 0.6972(3) 0.9074(3)
F8_2 F 0.6972(3) 0.8072(3) 0.9074(3)
F9_2 F 0.8028(3) 0.6928(3) 0.9074(3)
C48_2 C 0.9727(4) 0.8305(5) 0.6574(6)
C49_2 C 0.9516(6) 0.7937(6) 0.5955(8)
H29_2 H 0.9788 0.7832 0.5520
C50_2 C 0.8910(5) 0.7715(6) 0.5958(7)
H30_2 H 0.8770 0.7465 0.5519
C51_2 C 0.8718(5) 0.8199(5) 0.7193(6)
H31_2 H 0.8446 0.8289 0.7635
C52_2 C 0.9314(5) 0.8435(5) 0.7204(7)
H32_2 H 0.9445 0.8689 0.7645
N7_2 N 0.8510(4) 0.7849(4) 0.6581(5)
C100_2 C 0.6695(5) 0.9727(4) 0.6574(6)
C101_2 C 0.7063(6) 0.9516(6) 0.5955(8)
H61_2 H 0.7168 0.9788 0.5520
C102_2 C 0.7285(6) 0.8910(5) 0.5958(7)
H62_2 H 0.7535 0.8770 0.5519
C103_2 C 0.6801(5) 0.8718(5) 0.7193(6)
H63_2 H 0.6711 0.8446 0.7635
C104_2 C 0.6565(5) 0.9314(5) 0.7204(7)
H64_2 H 0.6311 0.9445 0.7645
N15_2 N 0.7151(4) 0.8510(4) 0.6581(5)
loop_
_geom_bond_atom_site_label_1
_geom_bond_atom_site_label_2
_geom_bond_site_symmetry_1
_geom_bond_site_symmetry_2
Cd2 N3 1_555 1_555
O1 C7 1_555 1_555
O2 C11 1_555 1_555
O3 C16 1_555 1_555
O4 C15 1_555 1_555
H5 C6 1_555 1_555
H6 C6 1_555 1_555
C7 C8 1_555 1_555
C8 C9 1_555 1_555
C9 C10 1_555 1_555
C10 C11 1_555 1_555
C11 N2 1_555 1_555
C12 C10 1_555 1_555
H7 C12 1_555 1_555
C13 C12 1_555 1_555
H8 C13 1_555 1_555
C14 C13 1_555 1_555
C15 C14 1_555 1_555
C16 C17 1_555 1_555
C17 C18 1_555 1_555
C18 C9 1_555 1_555
C19 C17 1_555 1_555
H9 C19 1_555 1_555
C20 C8 1_555 1_555
H10 C20 1_555 1_555
C21 H11 1_555 1_555
H12 C21 1_555 1_555
C22 C21 1_555 1_555
C23 C22 1_555 1_555
H13 C23 1_555 1_555
C24 C23 1_555 1_555
H14 C24 1_555 1_555
C25 H15 1_555 1_555
C26 C22 1_555 1_555
H16 C26 1_555 1_555
N2 C6 1_555 1_555
N3 C24 1_555 1_555
N4 C15 1_555 1_555
Si1 F4 1_555 1_555
F6 Cd2 1_555 1_555
F7 Si1 1_555 1_555
F8 Si1 1_555 1_555
F9 Si1 1_555 1_555
C49 C48 1_555 1_555
H29 C49 1_555 1_555
C50 C49 1_555 1_555
H30 C50 1_555 1_555
C51 H31 1_555 1_555
C52 C48 1_555 1_555
H32 C52 1_555 1_555
N7 Cd2 1_555 1_555
C101 C100 1_555 1_555
H61 C101 1_555 1_555
C102 C101 1_555 1_555
H62 C102 1_555 1_555
C103 H63 1_555 1_555
C104 C100 1_555 1_555
H64 C104 1_555 1_555
N15 Cd2 1_555 1_555
N19 Cd2 1_555 1_555
F13 Cd2 1_555 1_555
C7 N2 1_555 1_555
C14 C18 1_555 1_555
C16 N4 1_555 1_555
C19 C20 1_555 1_555
C21 N4 1_555 1_555
C25 C26 1_555 1_555
C25 N3 1_555 1_555
Si1 F6 1_555 1_555
C50 N7 1_555 1_555
C51 C52 1_555 1_555
C51 N7 1_555 1_555
C102 N15 1_555 1_555
C103 C104 1_555 1_555
C103 N15 1_555 1_555
Cd5 F5 1_555 1_555
Cd1 N1 1_555 1_555
C1 H1 1_555 1_555
C2 C1 1_555 1_555
H2 C2 1_555 1_555
C3 C2 1_555 1_555
C4 C3 1_555 1_555
H3 C4 1_555 1_555
C5 C4 1_555 1_555
H4 C5 1_555 1_555
N1 C1 1_555 1_555
Si2 F1 1_555 1_555
F1 Cd7 1_555 1_555
F2 Si2 1_555 1_555
F3 Cd1 1_555 1_555
F10 Si2 1_555 1_555
F11 Si2 1_555 1_555
F12 Si2 1_555 1_555
O9 C59 1_555 1_555
O10 C63 1_555 1_555
O11 C68 1_555 1_555
O12 C67 1_555 1_555
C53 H33 1_555 1_555
C54 C53 1_555 1_555
H34 C54 1_555 1_555
C55 C54 1_555 1_555
C56 C55 1_555 1_555
H35 C56 1_555 1_555
C57 C56 1_555 1_555
H36 C57 1_555 1_555
C58 C55 1_555 1_555
H37 C58 1_555 1_555
H38 C58 1_555 1_555
C59 C60 1_555 1_555
C60 C61 1_555 1_555
C61 C62 1_555 1_555
C62 C63 1_555 1_555
C63 N10 1_555 1_555
C64 C62 1_555 1_555
H39 C64 1_555 1_555
C65 C64 1_555 1_555
H40 C65 1_555 1_555
C66 C65 1_555 1_555
C67 C66 1_555 1_555
C68 C69 1_555 1_555
C69 C70 1_555 1_555
C70 C61 1_555 1_555
C71 C69 1_555 1_555
H41 C71 1_555 1_555
C72 C60 1_555 1_555
H42 C72 1_555 1_555
C73 H43 1_555 1_555
H44 C73 1_555 1_555
C74 C73 1_555 1_555
C75 C74 1_555 1_555
H45 C75 1_555 1_555
C76 C75 1_555 1_555
H46 C76 1_555 1_555
C77 H47 1_555 1_555
C78 C74 1_555 1_555
H48 C78 1_555 1_555
N9 Cd1 1_555 1_555
N10 C58 1_555 1_555
N19 C76 1_555 1_555
N12 C67 1_555 1_555
O13 C85 1_555 1_555
O14 C89 1_555 1_555
O15 C94 1_555 1_555
O16 C93 1_555 1_555
H53 C84 1_555 1_555
H54 C84 1_555 1_555
C85 C86 1_555 1_555
C86 C87 1_555 1_555
C87 C88 1_555 1_555
C88 C89 1_555 1_555
C89 N14 1_555 1_555
C90 C88 1_555 1_555
H55 C90 1_555 1_555
C91 C90 1_555 1_555
H56 C91 1_555 1_555
C92 C91 1_555 1_555
C93 C92 1_555 1_555
C94 C95 1_555 1_555
C95 C96 1_555 1_555
C96 C87 1_555 1_555
C97 C95 1_555 1_555
H57 C97 1_555 1_555
C98 C86 1_555 1_555
H58 C98 1_555 1_555
C99 H59 1_555 1_555
H60 C99 1_555 1_555
N14 C84 1_555 1_555
N16 C93 1_555 1_555
N17 Cd1 1_555 1_555
N18 Cd1 1_555 1_555
F14 Cd1 1_555 1_555
C5 N1 1_555 1_555
Si2 F3 1_555 1_555
C53 N9 1_555 1_555
C57 N9 1_555 1_555
C59 N10 1_555 1_555
C66 C70 1_555 1_555
C68 N12 1_555 1_555
C71 C72 1_555 1_555
C73 N12 1_555 1_555
C77 C78 1_555 1_555
C77 N19 1_555 1_555
C85 N14 1_555 1_555
C92 C96 1_555 1_555
C94 N16 1_555 1_555
C97 C98 1_555 1_555
C99 N16 1_555 1_555
O5 C33 1_555 1_555
O6 C37 1_555 1_555
O7 C42 1_555 1_555
O8 C41 1_555 1_555
C27 H17 1_555 1_555
C28 C27 1_555 1_555
H18 C28 1_555 1_555
C29 C28 1_555 1_555
C30 C29 1_555 1_555
H19 C30 1_555 1_555
C31 C30 1_555 1_555
H20 C31 1_555 1_555
C32 C29 1_555 1_555
H21 C32 1_555 1_555
H22 C32 1_555 1_555
C33 C34 1_555 1_555
C34 C35 1_555 1_555
C35 C36 1_555 1_555
C36 C37 1_555 1_555
C37 N6 1_555 1_555
C38 C36 1_555 1_555
H23 C38 1_555 1_555
C39 C38 1_555 1_555
H24 C39 1_555 1_555
C40 C39 1_555 1_555
C41 C40 1_555 1_555
C42 C43 1_555 1_555
C43 C44 1_555 1_555
C44 C35 1_555 1_555
C45 C43 1_555 1_555
H25 C45 1_555 1_555
C46 C34 1_555 1_555
H26 C46 1_555 1_555
C47 H27 1_555 1_555
H28 C47 1_555 1_555
N17 C27 1_555 1_555
N6 C32 1_555 1_555
N8 C41 1_555 1_555
C31 N17 1_555 1_555
C33 N6 1_555 1_555
C40 C44 1_555 1_555
C42 N8 1_555 1_555
C45 C46 1_555 1_555
C47 N8 1_555 1_555
C79 H49 1_555 1_555
C80 C79 1_555 1_555
H50 C80 1_555 1_555
C81 C80 1_555 1_555
C82 C81 1_555 1_555
H51 C82 1_555 1_555
C83 C82 1_555 1_555
H52 C83 1_555 1_555
N18 C79 1_555 1_555
C83 N18 1_555 1_555
C79_2 H49_2 1_555 1_555
C80_2 C79_2 1_555 1_555
H50_2 C80_2 1_555 1_555
C81_2 C80_2 1_555 1_555
C82_2 C81_2 1_555 1_555
H51_2 C82_2 1_555 1_555
C83_2 C82_2 1_555 1_555
H52_2 C83_2 1_555 1_555
N13 C79_2 1_555 1_555
Cd5 N13 1_555 1_555
C83_2 N13 1_555 1_555
O5_2 C33_2 1_555 1_555
O6_2 C37_2 1_555 1_555
O7_2 C42_2 1_555 1_555
O8_2 C41_2 1_555 1_555
C27_2 H17_2 1_555 1_555
C28_2 C27_2 1_555 1_555
H18_2 C28_2 1_555 1_555
C29_2 C28_2 1_555 1_555
C30_2 C29_2 1_555 1_555
H19_2 C30_2 1_555 1_555
C31_2 C30_2 1_555 1_555
H20_2 C31_2 1_555 1_555
C32_2 C29_2 1_555 1_555
H21_2 C32_2 1_555 1_555
H22_2 C32_2 1_555 1_555
C33_2 C34_2 1_555 1_555
C34_2 C35_2 1_555 1_555
C35_2 C36_2 1_555 1_555
C36_2 C37_2 1_555 1_555
C37_2 N6_2 1_555 1_555
C38_2 C36_2 1_555 1_555
H23_2 C38_2 1_555 1_555
C39_2 C38_2 1_555 1_555
H24_2 C39_2 1_555 1_555
C40_2 C39_2 1_555 1_555
C41_2 C40_2 1_555 1_555
C42_2 C43_2 1_555 1_555
C43_2 C44_2 1_555 1_555
C44_2 C35_2 1_555 1_555
C45_2 C43_2 1_555 1_555
H25_2 C45_2 1_555 1_555
C46_2 C34_2 1_555 1_555
H26_2 C46_2 1_555 1_555
C47_2 H27_2 1_555 1_555
H28_2 C47_2 1_555 1_555
N5 C27_2 1_555 1_555
N6_2 C32_2 1_555 1_555
N8_2 C41_2 1_555 1_555
Cd5 N5 1_555 1_555
C31_2 N5 1_555 1_555
C33_2 N6_2 1_555 1_555
C40_2 C44_2 1_555 1_555
C42_2 N8_2 1_555 1_555
C45_2 C46_2 1_555 1_555
C47_2 N8_2 1_555 1_555
Cd5 N1_2 1_555 1_555
C1_2 H1_2 1_555 1_555
C2_2 C1_2 1_555 1_555
H2_2 C2_2 1_555 1_555
C3_2 C2_2 1_555 1_555
C4_2 C3_2 1_555 1_555
H3_2 C4_2 1_555 1_555
C5_2 C4_2 1_555 1_555
H4_2 C5_2 1_555 1_555
N1_2 C1_2 1_555 1_555
Si2_2 F13 1_555 1_555
F2_2 Si2_2 1_555 1_555
F3_2 Cd5 1_555 1_555
F10_2 Si2_2 1_555 1_555
F11_2 Si2_2 1_555 1_555
F12_2 Si2_2 1_555 1_555
O9_2 C59_2 1_555 1_555
O10_2 C63_2 1_555 1_555
O11_2 C68_2 1_555 1_555
O12_2 C67_2 1_555 1_555
C53_2 H33_2 1_555 1_555
C54_2 C53_2 1_555 1_555
H34_2 C54_2 1_555 1_555
C55_2 C54_2 1_555 1_555
C56_2 C55_2 1_555 1_555
H35_2 C56_2 1_555 1_555
C57_2 C56_2 1_555 1_555
H36_2 C57_2 1_555 1_555
C58_2 C55_2 1_555 1_555
H37_2 C58_2 1_555 1_555
H38_2 C58_2 1_555 1_555
C59_2 C60_2 1_555 1_555
C60_2 C61_2 1_555 1_555
C61_2 C62_2 1_555 1_555
C62_2 C63_2 1_555 1_555
C63_2 N10_2 1_555 1_555
C64_2 C62_2 1_555 1_555
H39_2 C64_2 1_555 1_555
C65_2 C64_2 1_555 1_555
H40_2 C65_2 1_555 1_555
C66_2 C65_2 1_555 1_555
C67_2 C66_2 1_555 1_555
C68_2 C69_2 1_555 1_555
C69_2 C70_2 1_555 1_555
C70_2 C61_2 1_555 1_555
C71_2 C69_2 1_555 1_555
H41_2 C71_2 1_555 1_555
C72_2 C60_2 1_555 1_555
H42_2 C72_2 1_555 1_555
C73_2 H43_2 1_555 1_555
H44_2 C73_2 1_555 1_555
C74_2 C73_2 1_555 1_555
C75_2 C74_2 1_555 1_555
H45_2 C75_2 1_555 1_555
C76_2 C75_2 1_555 1_555
H46_2 C76_2 1_555 1_555
C77_2 H47_2 1_555 1_555
C78_2 C74_2 1_555 1_555
H48_2 C78_2 1_555 1_555
N9_2 Cd5 1_555 1_555
N10_2 C58_2 1_555 1_555
N11 C76_2 1_555 1_555
N12_2 C67_2 1_555 1_555
O13_2 C85_2 1_555 1_555
O14_2 C89_2 1_555 1_555
O15_2 C94_2 1_555 1_555
O16_2 C93_2 1_555 1_555
H53_2 C84_2 1_555 1_555
H54_2 C84_2 1_555 1_555
C85_2 C86_2 1_555 1_555
C86_2 C87_2 1_555 1_555
C87_2 C88_2 1_555 1_555
C88_2 C89_2 1_555 1_555
C89_2 N14_2 1_555 1_555
C90_2 C88_2 1_555 1_555
H55_2 C90_2 1_555 1_555
C91_2 C90_2 1_555 1_555
H56_2 C91_2 1_555 1_555
C92_2 C91_2 1_555 1_555
C93_2 C92_2 1_555 1_555
C94_2 C95_2 1_555 1_555
C95_2 C96_2 1_555 1_555
C96_2 C87_2 1_555 1_555
C97_2 C95_2 1_555 1_555
H57_2 C97_2 1_555 1_555
C98_2 C86_2 1_555 1_555
H58_2 C98_2 1_555 1_555
C99_2 H59_2 1_555 1_555
H60_2 C99_2 1_555 1_555
N14_2 C84_2 1_555 1_555
N16_2 C93_2 1_555 1_555
Cd7 N11 1_555 1_555
C5_2 N1_2 1_555 1_555
Si2_2 F3_2 1_555 1_555
C53_2 N9_2 1_555 1_555
C57_2 N9_2 1_555 1_555
C59_2 N10_2 1_555 1_555
C66_2 C70_2 1_555 1_555
C68_2 N12_2 1_555 1_555
C71_2 C72_2 1_555 1_555
C73_2 N12_2 1_555 1_555
C77_2 C78_2 1_555 1_555
C77_2 N11 1_555 1_555
C85_2 N14_2 1_555 1_555
C92_2 C96_2 1_555 1_555
C94_2 N16_2 1_555 1_555
C97_2 C98_2 1_555 1_555
C99_2 N16_2 1_555 1_555
Cd7 N3_2 1_555 1_555
O1_2 C7_2 1_555 1_555
O2_2 C11_2 1_555 1_555
O3_2 C16_2 1_555 1_555
O4_2 C15_2 1_555 1_555
H5_2 C6_2 1_555 1_555
H6_2 C6_2 1_555 1_555
C7_2 C8_2 1_555 1_555
C8_2 C9_2 1_555 1_555
C9_2 C10_2 1_555 1_555
C10_2 C11_2 1_555 1_555
C11_2 N2_2 1_555 1_555
C12_2 C10_2 1_555 1_555
H7_2 C12_2 1_555 1_555
C13_2 C12_2 1_555 1_555
H8_2 C13_2 1_555 1_555
C14_2 C13_2 1_555 1_555
C15_2 C14_2 1_555 1_555
C16_2 C17_2 1_555 1_555
C17_2 C18_2 1_555 1_555
C18_2 C9_2 1_555 1_555
C19_2 C17_2 1_555 1_555
H9_2 C19_2 1_555 1_555
C20_2 C8_2 1_555 1_555
H10_2 C20_2 1_555 1_555
C21_2 H11_2 1_555 1_555
H12_2 C21_2 1_555 1_555
C22_2 C21_2 1_555 1_555
C23_2 C22_2 1_555 1_555
H13_2 C23_2 1_555 1_555
C24_2 C23_2 1_555 1_555
H14_2 C24_2 1_555 1_555
C25_2 H15_2 1_555 1_555
C26_2 C22_2 1_555 1_555
H16_2 C26_2 1_555 1_555
N2_2 C6_2 1_555 1_555
N3_2 C24_2 1_555 1_555
N4_2 C15_2 1_555 1_555
Si1_2 F4_2 1_555 1_555
F6_2 Cd7 1_555 1_555
F7_2 Si1_2 1_555 1_555
F8_2 Si1_2 1_555 1_555
F9_2 Si1_2 1_555 1_555
C49_2 C48_2 1_555 1_555
H29_2 C49_2 1_555 1_555
C50_2 C49_2 1_555 1_555
H30_2 C50_2 1_555 1_555
C51_2 H31_2 1_555 1_555
C52_2 C48_2 1_555 1_555
H32_2 C52_2 1_555 1_555
N7_2 Cd7 1_555 1_555
C101_2 C100_2 1_555 1_555
H61_2 C101_2 1_555 1_555
C102_2 C101_2 1_555 1_555
H62_2 C102_2 1_555 1_555
C103_2 H63_2 1_555 1_555
C104_2 C100_2 1_555 1_555
H64_2 C104_2 1_555 1_555
N15_2 Cd7 1_555 1_555
C7_2 N2_2 1_555 1_555
C14_2 C18_2 1_555 1_555
C16_2 N4_2 1_555 1_555
C19_2 C20_2 1_555 1_555
C21_2 N4_2 1_555 1_555
C25_2 C26_2 1_555 1_555
C25_2 N3_2 1_555 1_555
Si1_2 F6_2 1_555 1_555
C50_2 N7_2 1_555 1_555
C51_2 C52_2 1_555 1_555
C51_2 N7_2 1_555 1_555
C102_2 N15_2 1_555 1_555
C103_2 C104_2 1_555 1_555
C103_2 N15_2 1_555 1_555

#END
