
###############################################################################
#
# This file contains modified crystal structure data generated from the
# MOF subset of the Cambridge Structural Database (CSD) v543 
# hosted by the Cambridge Crystallographic Data Centre (CCDC).
#
# This work is licensed under the Creative Commons
# Attribution-NonCommercial-ShareAlike 4.0 International License.
# To view a copy of this license, visit
# http://creativecommons.org/licenses/by-nc-sa/4.0/
# or send a letter to
# Creative Commons, PO Box 1866, Mountain View, CA 94042, USA.
#
# CIF created using the CSD Python API on 29 September 2022
# The structure has been converted into the P1 space group
# The structure has a 3D framework
# The original CSD entry YOPMAS is in the monoclinic crystal system
# The framework has been calculated to contain at least 10.0% void space
# The void calculation uses a probe of radius 1.32A, grid spacing 0.4
#
###############################################################################

data_YOPMAS
_chemical_formula_moiety         '(C152 H104 Co10 N16 O56)n'
_symmetry_cell_setting           triclinic
_symmetry_space_group_name_H-M   'P 1'
_symmetry_Int_Tables_number      1
_space_group_name_Hall           'P 1'
loop_
_symmetry_equiv_pos_site_id
_symmetry_equiv_pos_as_xyz
1 x,y,z
_cell_length_a                   30.386(5)
_cell_length_b                   11.0580(19)
_cell_length_c                   12.034(2)
_cell_angle_alpha                90
_cell_angle_beta                 100.592(3)
_cell_angle_gamma                90
_cell_volume                     3974.63
loop_
_atom_site_label
_atom_site_type_symbol
_atom_site_fract_x
_atom_site_fract_y
_atom_site_fract_z
C20 C 0.5129(3) 0.0569(7) 0.5056(7)
C21 C 0.5407(3) 0.0883(8) 0.6084(8)
C22 C 0.5659(3) 0.1913(9) 0.6148(8)
N3 N 0.5659(2) 0.2676(6) 0.5284(6)
C23 C 0.5373(3) 0.2416(8) 0.4331(8)
C24 C 0.5107(3) 0.1388(8) 0.4199(7)
H14 H 0.4911 0.1256 0.3520
H15 H 0.5353 0.2949 0.3725
H16 H 0.5843 0.2094 0.6835
H17 H 0.5418 0.0392 0.6717
Co6 Co 0.61286(3) 0.40811(9) 0.52844(8)
Co1 Co 0.38714(3) 0.59189(9) 0.47156(8)
Co2 Co 0.5000 0.55244(13) 0.2500
O1 O 0.46156(18) 0.4272(5) 0.3008(5)
O2 O 0.39912(18) 0.5251(5) 0.3188(4)
O3 O 0.38087(19) 0.3512(5) 0.1311(4)
O4 O 0.3457(2) 0.1756(6) 0.1038(5)
O5 O 0.43929(19) 0.4815(5) 0.5499(5)
O6 O 0.4702(2) 0.3236(5) 0.6440(5)
O7 O 0.3355(2) 0.7215(6) 0.3989(5)
H1 H 0.3223 0.7708 0.4460
H2 H 0.3268 0.7273 0.3209
N1 N 0.4341(2) 0.7324(6) 0.4716(6)
N2 N 0.3356(2) 0.4617(6) 0.4810(6)
C1 C 0.4059(2) 0.3136(7) 0.3633(6)
C2 C 0.4174(3) 0.2838(7) 0.4785(7)
C3 C 0.4030(3) 0.1769(8) 0.5182(7)
H3 H 0.4109 0.1588 0.5947
C4 C 0.3772(3) 0.0965(8) 0.4479(8)
H4 H 0.3672 0.0254 0.4762
C5 C 0.3664(3) 0.1233(8) 0.3334(7)
H5 H 0.3491 0.0689 0.2849
C6 C 0.3806(3) 0.2287(7) 0.2901(7)
C7 C 0.4225(3) 0.4325(7) 0.3218(6)
C8 C 0.4439(2) 0.3694(7) 0.5613(6)
C9 C 0.3677(2) 0.2525(7) 0.1651(7)
C10 C 0.4341(3) 0.8087(9) 0.3852(8)
H6 H 0.4157 0.7906 0.3165
C11 C 0.4593(3) 0.9117(8) 0.3916(8)
H7 H 0.4582 0.9608 0.3283
C12 C 0.4871(3) 0.9431(7) 0.4944(7)
C13 C 0.4893(3) 0.8612(8) 0.5801(7)
H8 H 0.5089 0.8744 0.6480
C14 C 0.4627(3) 0.7584(8) 0.5669(8)
H9 H 0.4647 0.7051 0.6275
C15 C 0.3301(3) 0.4173(9) 0.5797(8)
H10 H 0.3490 0.4435 0.6449
C16 C 0.2975(3) 0.3343(9) 0.5898(8)
H11 H 0.2954 0.3039 0.6608
C17 C 0.2677(3) 0.2953(8) 0.4960(7)
C18 C 0.2746(3) 0.3384(10) 0.3934(8)
H12 H 0.2564 0.3128 0.3268
C19 C 0.3088(3) 0.4201(9) 0.3896(8)
H13 H 0.3132 0.4473 0.3193
C25 C 0.2323(3) 0.2047(8) 0.5040(7)
C26 C 0.2025(3) 0.1657(9) 0.4102(8)
C27 C 0.1699(3) 0.0827(9) 0.4203(8)
N4 N 0.1644(2) 0.0383(6) 0.5190(6)
C28 C 0.1912(3) 0.0799(9) 0.6104(8)
C29 C 0.2254(3) 0.1616(10) 0.6066(8)
H18 H 0.2436 0.1872 0.6732
H19 H 0.1868 0.0527 0.6807
H20 H 0.1510 0.0565 0.3551
H21 H 0.2046 0.1961 0.3392
O8 O 0.53844(18) 0.4272(5) 0.1992(5)
O9 O 0.60088(18) 0.5251(5) 0.1812(4)
O10 O 0.61913(19) 0.3512(5) 0.3689(4)
O11 O 0.6543(2) 0.1756(6) 0.3962(5)
C30 C 0.5941(2) 0.3136(7) 0.1367(6)
C31 C 0.5826(3) 0.2838(7) 0.0215(7)
C33 C 0.6228(3) 0.0965(8) 0.0521(8)
H23 H 0.6328 0.0254 0.0238
C34 C 0.6336(3) 0.1233(8) 0.1666(7)
H24 H 0.6509 0.0689 0.2151
C35 C 0.6194(3) 0.2287(7) 0.2099(7)
C36 C 0.5775(3) 0.4325(7) 0.1782(6)
C38 C 0.6323(2) 0.2525(7) 0.3349(7)
Co3 Co 0.61286(3) 0.59189(9) 0.02844(8)
O14 O 0.6645(2) 0.7215(6) 0.1011(5)
H25 H 0.6777 0.7708 0.0540
H26 H 0.6732 0.7273 0.1791
O15 O 0.38087(19) 0.6488(5) 0.6311(4)
O16 O 0.5298(2) 0.6764(5) 0.3560(5)
O17 O 0.4702(2) 0.6764(5) 0.1440(5)
Co5 Co 0.5000 0.44756(13) 0.7500
N5 N 0.5659(2) 0.7324(6) 0.0284(6)
N6 N 0.6644(2) 0.4617(6) 0.0190(6)
O12 O 0.56071(19) 0.4815(5) 0.9501(5)
O13 O 0.5298(2) 0.3236(5) 0.8560(5)
C32 C 0.5970(3) 0.1769(8) 0.9818(7)
H22 H 0.5891 0.1588 0.9053
C37 C 0.5561(2) 0.3694(7) 0.9387(6)
Co4 Co 0.38714(3) 0.40811(9) 0.97156(8)
O18 O 0.61913(19) 0.6488(5) 0.8689(4)
Co7 Co 0.11286(3) 0.90811(9) 0.52844(8)
C23_2 C 0.4627(3) 0.2416(8) 0.0669(8)
C24_2 C 0.4893(3) 0.1388(8) 0.0801(7)
H14_2 H 0.5089 0.1256 0.1480
H15_2 H 0.4647 0.2949 0.1275
C20_2 C 0.4871(3) 0.0569(7) 0.9944(7)
C21_2 C 0.4593(3) 0.0883(8) 0.8916(8)
C22_2 C 0.4341(3) 0.1913(9) 0.8852(8)
N3_2 N 0.4341(2) 0.2676(6) 0.9716(6)
H16_2 H 0.4157 0.2094 0.8165
H17_2 H 0.4582 0.0392 0.8283
C10_2 C 0.5659(3) 0.8087(9) 0.1148(8)
H6_2 H 0.5843 0.7906 0.1835
C11_2 C 0.5407(3) 0.9117(8) 0.1084(8)
H7_2 H 0.5418 0.9608 0.1717
C12_2 C 0.5129(3) 0.9431(7) 0.0056(7)
C17_2 C 0.7323(3) 0.2953(8) 0.0040(7)
C18_2 C 0.7254(3) 0.3384(10) 0.1066(8)
H12_2 H 0.7436 0.3128 0.1732
C19_2 C 0.6912(3) 0.4201(9) 0.1104(8)
H13_2 H 0.6868 0.4473 0.1807
C26_2 C 0.7975(3) 0.1657(9) 0.0898(8)
C27_2 C 0.8301(3) 0.0827(9) 0.0797(8)
H20_2 H 0.8490 0.0565 0.1449
H21_2 H 0.7954 0.1961 0.1608
C13_2 C 0.5107(3) 0.8612(8) 0.9199(7)
H8_2 H 0.4911 0.8744 0.8520
C14_2 C 0.5373(3) 0.7584(8) 0.9331(8)
H9_2 H 0.5353 0.7051 0.8725
C15_2 C 0.6699(3) 0.4173(9) 0.9203(8)
H10_2 H 0.6510 0.4435 0.8551
C16_2 C 0.7025(3) 0.3343(9) 0.9102(8)
H11_2 H 0.7046 0.3039 0.8392
C25_2 C 0.7677(3) 0.2047(8) 0.9960(7)
N4_2 N 0.8356(2) 0.0383(6) 0.9810(6)
C28_2 C 0.8088(3) 0.0799(9) 0.8896(8)
C29_2 C 0.7746(3) 0.1616(10) 0.8934(8)
H18_2 H 0.7564 0.1872 0.8268
H19_2 H 0.8132 0.0527 0.8193
Co7_2 Co 0.88714(3) 0.90811(9) 0.97156(8)
Co2_2 Co -0.0000 0.05244(13) 0.2500
H8_3 H 0.0089 0.3744 0.6480
C20_3 C 0.0129(3) 0.5569(7) 0.5056(7)
C21_3 C 0.0407(3) 0.5883(8) 0.6084(8)
C22_3 C 0.0659(3) 0.6913(9) 0.6148(8)
N3_3 N 0.0659(2) 0.7676(6) 0.5284(6)
C23_3 C 0.0373(3) 0.7416(8) 0.4331(8)
C24_3 C 0.0107(3) 0.6388(8) 0.4199(7)
H15_3 H 0.0353 0.7949 0.3725
H16_3 H 0.0843 0.7094 0.6835
H17_3 H 0.0418 0.5392 0.6717
O9_2 O 0.10088(18) 0.0251(5) 0.1812(4)
Co3_2 Co 0.11286(3) 0.09189(9) 0.02844(8)
O14_2 O 0.1645(2) 0.2215(6) 0.1011(5)
H25_2 H 0.1777 0.2708 0.0540
H26_2 H 0.1732 0.2273 0.1791
O16_2 O 0.0298(2) 0.1764(5) 0.3560(5)
N5_2 N 0.0659(2) 0.2324(6) 0.0284(6)
O18_2 O 0.11913(19) 0.1488(5) 0.8689(4)
O8_2 O 0.03844(18) 0.9272(5) 0.1992(5)
O10_2 O 0.11913(19) 0.8512(5) 0.3689(4)
O11_2 O 0.1543(2) 0.6756(6) 0.3962(5)
C30_2 C 0.0941(2) 0.8136(7) 0.1367(6)
C31_2 C 0.0826(3) 0.7838(7) 0.0215(7)
C33_2 C 0.1228(3) 0.5965(8) 0.0521(8)
H23_2 H 0.1328 0.5254 0.0238
C34_2 C 0.1336(3) 0.6233(8) 0.1666(7)
H24_2 H 0.1509 0.5689 0.2151
C35_2 C 0.1194(3) 0.7287(7) 0.2099(7)
C36_2 C 0.0775(3) 0.9325(7) 0.1782(6)
C38_2 C 0.1323(2) 0.7525(7) 0.3349(7)
Co5_2 Co 0.0000 0.94756(13) 0.7500
N6_2 N 0.1644(2) 0.9617(6) 0.0190(6)
O12_2 O 0.06071(19) 0.9815(5) 0.9501(5)
O13_2 O 0.0298(2) 0.8236(5) 0.8560(5)
C32_2 C 0.0970(3) 0.6769(8) 0.9818(7)
H22_2 H 0.0891 0.6588 0.9053
C37_2 C 0.0561(2) 0.8694(7) 0.9387(6)
Co1_2 Co 0.88714(3) 0.09189(9) 0.47156(8)
Co2_3 Co 1.0000 0.05244(13) 0.2500
O2_2 O 0.89912(18) 0.0251(5) 0.3188(4)
O7_2 O 0.8355(2) 0.2215(6) 0.3989(5)
H1_2 H 0.8223 0.2708 0.4460
H2_2 H 0.8268 0.2273 0.3209
N1_2 N 0.9341(2) 0.2324(6) 0.4716(6)
C10_3 C 0.9341(3) 0.3087(9) 0.3852(8)
H6_3 H 0.9157 0.2906 0.3165
C11_3 C 0.9593(3) 0.4117(8) 0.3916(8)
H7_3 H 0.9582 0.4608 0.3283
C12_3 C 0.9871(3) 0.4431(7) 0.4944(7)
C13_3 C 0.9893(3) 0.3612(8) 0.5801(7)
C14_3 C 0.9627(3) 0.2584(8) 0.5669(8)
H9_3 H 0.9647 0.2051 0.6275
H14_3 H 0.9911 0.6256 0.3520
O15_2 O 0.88087(19) 0.1488(5) 0.6311(4)
O17_2 O 0.9702(2) 0.1764(5) 0.1440(5)
O1_2 O 0.96156(18) 0.9272(5) 0.3008(5)
O3_2 O 0.88087(19) 0.8512(5) 0.1311(4)
O4_2 O 0.8457(2) 0.6756(6) 0.1038(5)
O5_2 O 0.93929(19) 0.9815(5) 0.5499(5)
O6_2 O 0.9702(2) 0.8236(5) 0.6440(5)
N2_2 N 0.8356(2) 0.9617(6) 0.4810(6)
C1_2 C 0.9059(2) 0.8136(7) 0.3633(6)
C2_2 C 0.9174(3) 0.7838(7) 0.4785(7)
C3_2 C 0.9030(3) 0.6769(8) 0.5182(7)
H3_2 H 0.9109 0.6588 0.5947
C4_2 C 0.8772(3) 0.5965(8) 0.4479(8)
H4_2 H 0.8672 0.5254 0.4762
C5_2 C 0.8664(3) 0.6233(8) 0.3334(7)
H5_2 H 0.8491 0.5689 0.2849
C6_2 C 0.8806(3) 0.7287(7) 0.2901(7)
C7_2 C 0.9225(3) 0.9325(7) 0.3218(6)
C8_2 C 0.9439(2) 0.8694(7) 0.5613(6)
C9_2 C 0.8677(2) 0.7525(7) 0.1651(7)
C15_3 C 0.8301(3) 0.9173(9) 0.5797(8)
H10_3 H 0.8490 0.9435 0.6449
C16_3 C 0.7975(3) 0.8343(9) 0.5898(8)
H11_3 H 0.7954 0.8039 0.6608
C17_3 C 0.7677(3) 0.7953(8) 0.4960(7)
C18_3 C 0.7746(3) 0.8384(10) 0.3934(8)
H12_3 H 0.7564 0.8128 0.3268
C19_3 C 0.8088(3) 0.9201(9) 0.3896(8)
H13_3 H 0.8132 0.9473 0.3193
C25_3 C 0.7323(3) 0.7047(8) 0.5040(7)
C26_3 C 0.7025(3) 0.6657(9) 0.4102(8)
C27_3 C 0.6699(3) 0.5827(9) 0.4203(8)
N4_3 N 0.6644(2) 0.5383(6) 0.5190(6)
C28_3 C 0.6912(3) 0.5799(9) 0.6104(8)
C29_3 C 0.7254(3) 0.6616(10) 0.6066(8)
H18_3 H 0.7436 0.6872 0.6732
H19_3 H 0.6868 0.5527 0.6807
H20_3 H 0.6510 0.5565 0.3551
H21_3 H 0.7046 0.6961 0.3392
Co5_3 Co 1.0000 0.94756(13) 0.7500
C10_4 C 0.0659(3) 0.3087(9) 0.1148(8)
H6_4 H 0.0843 0.2906 0.1835
C11_4 C 0.0407(3) 0.4117(8) 0.1084(8)
H7_4 H 0.0418 0.4608 0.1717
C12_4 C 0.0129(3) 0.4431(7) 0.0056(7)
H14_4 H 0.0089 0.6256 0.1480
C13_4 C 0.0107(3) 0.3612(8) 0.9199(7)
C14_4 C 0.0373(3) 0.2584(8) 0.9331(8)
H9_4 H 0.0353 0.2051 0.8725
C17_4 C 0.2323(3) 0.7953(8) 0.0040(7)
C18_4 C 0.2254(3) 0.8384(10) 0.1066(8)
H12_4 H 0.2436 0.8128 0.1732
C19_4 C 0.1912(3) 0.9201(9) 0.1104(8)
H13_4 H 0.1868 0.9473 0.1807
C26_4 C 0.2975(3) 0.6657(9) 0.0898(8)
C27_4 C 0.3301(3) 0.5827(9) 0.0797(8)
H20_4 H 0.3490 0.5565 0.1449
H21_4 H 0.2954 0.6961 0.1608
C15_4 C 0.1699(3) 0.9173(9) 0.9203(8)
H10_4 H 0.1510 0.9435 0.8551
C16_4 C 0.2025(3) 0.8343(9) 0.9102(8)
H11_4 H 0.2046 0.8039 0.8392
C25_4 C 0.2677(3) 0.7047(8) 0.9960(7)
N4_4 N 0.3356(2) 0.5383(6) 0.9810(6)
C28_4 C 0.3088(3) 0.5799(9) 0.8896(8)
C29_4 C 0.2746(3) 0.6616(10) 0.8934(8)
H18_4 H 0.2564 0.6872 0.8268
H19_4 H 0.3132 0.5527 0.8193
C23_4 C 0.9627(3) 0.7416(8) 0.0669(8)
C24_4 C 0.9893(3) 0.6388(8) 0.0801(7)
H15_4 H 0.9647 0.7949 0.1275
H8_4 H 0.9911 0.3744 0.8520
C20_4 C 0.9871(3) 0.5569(7) 0.9944(7)
C21_4 C 0.9593(3) 0.5883(8) 0.8916(8)
C22_4 C 0.9341(3) 0.6913(9) 0.8852(8)
N3_4 N 0.9341(2) 0.7676(6) 0.9716(6)
H16_4 H 0.9157 0.7094 0.8165
H17_4 H 0.9582 0.5392 0.8283
O12_3 O 0.43929(19) 0.5185(5) 0.0499(5)
C32_3 C 0.4030(3) 0.8231(8) 0.0182(7)
H22_3 H 0.4109 0.8412 0.0947
C37_3 C 0.4439(2) 0.6306(7) 0.0613(6)
O1_3 O 0.53844(18) 0.5728(5) 0.6992(5)
O2_3 O 0.60088(18) 0.4749(5) 0.6812(4)
O4_3 O 0.6543(2) 0.8244(6) 0.8962(5)
O5_3 O 0.56071(19) 0.5185(5) 0.4501(5)
O7_3 O 0.6645(2) 0.2785(6) 0.6011(5)
H1_3 H 0.6777 0.2292 0.5540
H2_3 H 0.6732 0.2727 0.6791
C1_3 C 0.5941(2) 0.6864(7) 0.6367(6)
C2_3 C 0.5826(3) 0.7162(7) 0.5215(7)
C3_3 C 0.5970(3) 0.8231(8) 0.4818(7)
H3_3 H 0.5891 0.8412 0.4053
C4_3 C 0.6228(3) 0.9035(8) 0.5521(8)
H4_3 H 0.6328 0.9746 0.5238
C5_3 C 0.6336(3) 0.8767(8) 0.6666(7)
H5_3 H 0.6509 0.9311 0.7151
C6_3 C 0.6194(3) 0.7713(7) 0.7099(7)
C7_3 C 0.5775(3) 0.5675(7) 0.6782(6)
C8_3 C 0.5561(2) 0.6306(7) 0.4387(6)
C9_3 C 0.6323(2) 0.7475(7) 0.8349(7)
O8_3 O 0.46156(18) 0.5728(5) 0.8008(5)
O9_3 O 0.39912(18) 0.4749(5) 0.8188(4)
O11_3 O 0.3457(2) 0.8244(6) 0.6038(5)
C30_3 C 0.4059(2) 0.6864(7) 0.8633(6)
C31_3 C 0.4174(3) 0.7162(7) 0.9785(7)
C33_3 C 0.3772(3) 0.9035(8) 0.9479(8)
H23_3 H 0.3672 0.9746 0.9762
C34_3 C 0.3664(3) 0.8767(8) 0.8334(7)
H24_3 H 0.3491 0.9311 0.7849
C35_3 C 0.3806(3) 0.7713(7) 0.7901(7)
C36_3 C 0.4225(3) 0.5675(7) 0.8218(6)
C38_3 C 0.3677(2) 0.7475(7) 0.6651(7)
O14_3 O 0.3355(2) 0.2785(6) 0.8989(5)
H25_3 H 0.3223 0.2292 0.9460
H26_3 H 0.3268 0.2727 0.8209
O1_4 O 0.03844(18) 0.0728(5) 0.6992(5)
O4_4 O 0.1543(2) 0.3244(6) 0.8962(5)
O5_4 O 0.06071(19) 0.0185(5) 0.4501(5)
C1_4 C 0.0941(2) 0.1864(7) 0.6367(6)
C2_4 C 0.0826(3) 0.2162(7) 0.5215(7)
C3_4 C 0.0970(3) 0.3231(8) 0.4818(7)
H3_4 H 0.0891 0.3412 0.4053
C4_4 C 0.1228(3) 0.4035(8) 0.5521(8)
H4_4 H 0.1328 0.4746 0.5238
C5_4 C 0.1336(3) 0.3767(8) 0.6666(7)
H5_4 H 0.1509 0.4311 0.7151
C6_4 C 0.1194(3) 0.2713(7) 0.7099(7)
C7_4 C 0.0775(3) 0.0675(7) 0.6782(6)
C8_4 C 0.0561(2) 0.1306(7) 0.4387(6)
C9_4 C 0.1323(2) 0.2475(7) 0.8349(7)
O2_4 O 0.10088(18) 0.9749(5) 0.6812(4)
O7_4 O 0.1645(2) 0.7785(6) 0.6011(5)
H1_4 H 0.1777 0.7292 0.5540
H2_4 H 0.1732 0.7727 0.6791
O12_4 O 0.93929(19) 0.0185(5) 0.0499(5)
C32_4 C 0.9030(3) 0.3231(8) 0.0182(7)
H22_4 H 0.9109 0.3412 0.0947
C37_4 C 0.9439(2) 0.1306(7) 0.0613(6)
O8_4 O 0.96156(18) 0.0728(5) 0.8008(5)
O11_4 O 0.8457(2) 0.3244(6) 0.6038(5)
C30_4 C 0.9059(2) 0.1864(7) 0.8633(6)
C31_4 C 0.9174(3) 0.2162(7) 0.9785(7)
C33_4 C 0.8772(3) 0.4035(8) 0.9479(8)
H23_4 H 0.8672 0.4746 0.9762
C34_4 C 0.8664(3) 0.3767(8) 0.8334(7)
H24_4 H 0.8491 0.4311 0.7849
C35_4 C 0.8806(3) 0.2713(7) 0.7901(7)
C36_4 C 0.9225(3) 0.0675(7) 0.8218(6)
C38_4 C 0.8677(2) 0.2475(7) 0.6651(7)
O9_4 O 0.89912(18) 0.9749(5) 0.8188(4)
O14_4 O 0.8355(2) 0.7785(6) 0.8989(5)
H25_4 H 0.8223 0.7292 0.9460
H26_4 H 0.8268 0.7727 0.8209
loop_
_geom_bond_atom_site_label_1
_geom_bond_atom_site_label_2
_geom_bond_site_symmetry_1
_geom_bond_site_symmetry_2
C21 C20 1_555 1_555
C22 C21 1_555 1_555
N3 C22 1_555 1_555
C23 N3 1_555 1_555
C24 C20 1_555 1_555
H14 C24 1_555 1_555
H15 C23 1_555 1_555
H16 C22 1_555 1_555
H17 C21 1_555 1_555
Co6 N3 1_555 1_555
C23 C24 1_555 1_555
Co1 O2 1_555 1_555
Co2 O1 1_555 1_555
O1 C7 1_555 1_555
O2 C7 1_555 1_555
O3 C9 1_555 1_555
O4 C9 1_555 1_555
O5 Co1 1_555 1_555
O6 C8 1_555 1_555
O7 Co1 1_555 1_555
H1 O7 1_555 1_555
H2 O7 1_555 1_555
N1 Co1 1_555 1_555
N2 Co1 1_555 1_555
C1 C2 1_555 1_555
C2 C3 1_555 1_555
C3 H3 1_555 1_555
C4 C3 1_555 1_555
H4 C4 1_555 1_555
C5 C4 1_555 1_555
H5 C5 1_555 1_555
C6 C1 1_555 1_555
C7 C1 1_555 1_555
C8 O5 1_555 1_555
C9 C6 1_555 1_555
C10 N1 1_555 1_555
H6 C10 1_555 1_555
C11 C10 1_555 1_555
H7 C11 1_555 1_555
C12 C11 1_555 1_555
C13 C12 1_555 1_555
H8 C13 1_555 1_555
C14 N1 1_555 1_555
H9 C14 1_555 1_555
C15 N2 1_555 1_555
H10 C15 1_555 1_555
C16 C15 1_555 1_555
H11 C16 1_555 1_555
C17 C16 1_555 1_555
C18 C17 1_555 1_555
H12 C18 1_555 1_555
C19 N2 1_555 1_555
H13 C19 1_555 1_555
C25 C17 1_555 1_555
C26 C25 1_555 1_555
C27 C26 1_555 1_555
N4 C27 1_555 1_555
C28 N4 1_555 1_555
C29 C25 1_555 1_555
H18 C29 1_555 1_555
H19 C28 1_555 1_555
H20 C27 1_555 1_555
H21 C26 1_555 1_555
O8 Co2 1_555 1_555
O9 C36 1_555 1_555
O10 C38 1_555 1_555
O11 C38 1_555 1_555
C30 C31 1_555 1_555
H23 C33 1_555 1_555
C34 C33 1_555 1_555
H24 C34 1_555 1_555
C35 C30 1_555 1_555
C36 O8 1_555 1_555
C38 C35 1_555 1_555
Co3 O9 1_555 1_555
O14 Co3 1_555 1_555
H25 O14 1_555 1_555
H26 O14 1_555 1_555
O15 Co1 1_555 1_555
O16 Co2 1_555 1_555
O17 Co2 1_555 1_555
Co5 O6 1_555 1_555
Co6 O10 1_555 1_555
N5 Co3 1_555 1_555
N6 Co3 1_555 1_555
C2 C8 1_555 1_555
C5 C6 1_555 1_555
C13 C14 1_555 1_555
C18 C19 1_555 1_555
C28 C29 1_555 1_555
C30 C36 1_555 1_555
C34 C35 1_555 1_555
O12 C37 1_555 1_555
O13 C37 1_555 1_555
C32 H22 1_555 1_555
Co5 O13 1_555 1_555
H14_2 C24_2 1_555 1_555
H15_2 C23_2 1_555 1_555
C23_2 C24_2 1_555 1_555
C21_2 C20_2 1_555 1_555
C22_2 C21_2 1_555 1_555
N3_2 C22_2 1_555 1_555
H16_2 C22_2 1_555 1_555
H17_2 C21_2 1_555 1_555
Co4 N3_2 1_555 1_555
C10_2 N5 1_555 1_555
H6_2 C10_2 1_555 1_555
C11_2 C10_2 1_555 1_555
H7_2 C11_2 1_555 1_555
C12_2 C11_2 1_555 1_555
C18_2 C17_2 1_555 1_555
H12_2 C18_2 1_555 1_555
C19_2 N6 1_555 1_555
H13_2 C19_2 1_555 1_555
C27_2 C26_2 1_555 1_555
H20_2 C27_2 1_555 1_555
H21_2 C26_2 1_555 1_555
C18_2 C19_2 1_555 1_555
H8_2 C13_2 1_555 1_555
H9_2 C14_2 1_555 1_555
H10_2 C15_2 1_555 1_555
C16_2 C15_2 1_555 1_555
H11_2 C16_2 1_555 1_555
C28_2 N4_2 1_555 1_555
C29_2 C25_2 1_555 1_555
H18_2 C29_2 1_555 1_555
H19_2 C28_2 1_555 1_555
C13_2 C14_2 1_555 1_555
C28_2 C29_2 1_555 1_555
C21_3 C20_3 1_555 1_555
C22_3 C21_3 1_555 1_555
N3_3 C22_3 1_555 1_555
C23_3 N3_3 1_555 1_555
C24_3 C20_3 1_555 1_555
H15_3 C23_3 1_555 1_555
H16_3 C22_3 1_555 1_555
H17_3 C21_3 1_555 1_555
Co3_2 O9_2 1_555 1_555
O14_2 Co3_2 1_555 1_555
H25_2 O14_2 1_555 1_555
H26_2 O14_2 1_555 1_555
O16_2 Co2_2 1_555 1_555
Co7 N3_3 1_555 1_555
N5_2 Co3_2 1_555 1_555
C23_3 C24_3 1_555 1_555
O10_2 C38_2 1_555 1_555
O11_2 C38_2 1_555 1_555
C30_2 C31_2 1_555 1_555
H23_2 C33_2 1_555 1_555
C34_2 C33_2 1_555 1_555
H24_2 C34_2 1_555 1_555
C35_2 C30_2 1_555 1_555
C36_2 O8_2 1_555 1_555
C38_2 C35_2 1_555 1_555
Co7 O10_2 1_555 1_555
C30_2 C36_2 1_555 1_555
C34_2 C35_2 1_555 1_555
O12_2 C37_2 1_555 1_555
O13_2 C37_2 1_555 1_555
C32_2 H22_2 1_555 1_555
Co5_2 O13_2 1_555 1_555
Co1_2 O2_2 1_555 1_555
O7_2 Co1_2 1_555 1_555
H1_2 O7_2 1_555 1_555
H2_2 O7_2 1_555 1_555
N1_2 Co1_2 1_555 1_555
C10_3 N1_2 1_555 1_555
H6_3 C10_3 1_555 1_555
C11_3 C10_3 1_555 1_555
H7_3 C11_3 1_555 1_555
C12_3 C11_3 1_555 1_555
C13_3 C12_3 1_555 1_555
C14_3 N1_2 1_555 1_555
H9_3 C14_3 1_555 1_555
O15_2 Co1_2 1_555 1_555
O17_2 Co2_3 1_555 1_555
C13_3 C14_3 1_555 1_555
O1_2 C7_2 1_555 1_555
O3_2 C9_2 1_555 1_555
O4_2 C9_2 1_555 1_555
O6_2 C8_2 1_555 1_555
C1_2 C2_2 1_555 1_555
C2_2 C3_2 1_555 1_555
C3_2 H3_2 1_555 1_555
C4_2 C3_2 1_555 1_555
H4_2 C4_2 1_555 1_555
C5_2 C4_2 1_555 1_555
H5_2 C5_2 1_555 1_555
C6_2 C1_2 1_555 1_555
C7_2 C1_2 1_555 1_555
C8_2 O5_2 1_555 1_555
C9_2 C6_2 1_555 1_555
C15_3 N2_2 1_555 1_555
H10_3 C15_3 1_555 1_555
C16_3 C15_3 1_555 1_555
H11_3 C16_3 1_555 1_555
C17_3 C16_3 1_555 1_555
C18_3 C17_3 1_555 1_555
H12_3 C18_3 1_555 1_555
C19_3 N2_2 1_555 1_555
H13_3 C19_3 1_555 1_555
C25_3 C17_3 1_555 1_555
C26_3 C25_3 1_555 1_555
C27_3 C26_3 1_555 1_555
N4_3 C27_3 1_555 1_555
C28_3 N4_3 1_555 1_555
C29_3 C25_3 1_555 1_555
H18_3 C29_3 1_555 1_555
H19_3 C28_3 1_555 1_555
H20_3 C27_3 1_555 1_555
H21_3 C26_3 1_555 1_555
Co5_3 O6_2 1_555 1_555
Co6 N4_3 1_555 1_555
C2_2 C8_2 1_555 1_555
C5_2 C6_2 1_555 1_555
C18_3 C19_3 1_555 1_555
C28_3 C29_3 1_555 1_555
C10_4 N5_2 1_555 1_555
H6_4 C10_4 1_555 1_555
C11_4 C10_4 1_555 1_555
H7_4 C11_4 1_555 1_555
C12_4 C11_4 1_555 1_555
H9_4 C14_4 1_555 1_555
C13_4 C14_4 1_555 1_555
C18_4 C17_4 1_555 1_555
H12_4 C18_4 1_555 1_555
C19_4 N6_2 1_555 1_555
H13_4 C19_4 1_555 1_555
C27_4 C26_4 1_555 1_555
H20_4 C27_4 1_555 1_555
H21_4 C26_4 1_555 1_555
C18_4 C19_4 1_555 1_555
H10_4 C15_4 1_555 1_555
C16_4 C15_4 1_555 1_555
H11_4 C16_4 1_555 1_555
C28_4 N4_4 1_555 1_555
C29_4 C25_4 1_555 1_555
H18_4 C29_4 1_555 1_555
H19_4 C28_4 1_555 1_555
Co4 N4_4 1_555 1_555
C28_4 C29_4 1_555 1_555
H15_4 C23_4 1_555 1_555
C23_4 C24_4 1_555 1_555
C21_4 C20_4 1_555 1_555
C22_4 C21_4 1_555 1_555
N3_4 C22_4 1_555 1_555
H16_4 C22_4 1_555 1_555
H17_4 C21_4 1_555 1_555
Co7_2 N3_4 1_555 1_555
O12_3 C37_3 1_555 1_555
O17 C37_3 1_555 1_555
C32_3 H22_3 1_555 1_555
Co6 O2_3 1_555 1_555
Co5 O1_3 1_555 1_555
O1_3 C7_3 1_555 1_555
O2_3 C7_3 1_555 1_555
O18 C9_3 1_555 1_555
O4_3 C9_3 1_555 1_555
O5_3 Co6 1_555 1_555
O16 C8_3 1_555 1_555
O7_3 Co6 1_555 1_555
H1_3 O7_3 1_555 1_555
H2_3 O7_3 1_555 1_555
C1_3 C2_3 1_555 1_555
C2_3 C3_3 1_555 1_555
C3_3 H3_3 1_555 1_555
C4_3 C3_3 1_555 1_555
H4_3 C4_3 1_555 1_555
C5_3 C4_3 1_555 1_555
H5_3 C5_3 1_555 1_555
C6_3 C1_3 1_555 1_555
C7_3 C1_3 1_555 1_555
C8_3 O5_3 1_555 1_555
C9_3 C6_3 1_555 1_555
O8_3 Co5 1_555 1_555
O9_3 C36_3 1_555 1_555
O15 C38_3 1_555 1_555
O11_3 C38_3 1_555 1_555
C30_3 C31_3 1_555 1_555
H23_3 C33_3 1_555 1_555
C34_3 C33_3 1_555 1_555
H24_3 C34_3 1_555 1_555
C35_3 C30_3 1_555 1_555
C36_3 O8_3 1_555 1_555
C38_3 C35_3 1_555 1_555
Co4 O9_3 1_555 1_555
O14_3 Co4 1_555 1_555
H25_3 O14_3 1_555 1_555
H26_3 O14_3 1_555 1_555
C2_3 C8_3 1_555 1_555
C5_3 C6_3 1_555 1_555
C30_3 C36_3 1_555 1_555
C34_3 C35_3 1_555 1_555
O1_4 C7_4 1_555 1_555
O18_2 C9_4 1_555 1_555
O4_4 C9_4 1_555 1_555
O16_2 C8_4 1_555 1_555
C1_4 C2_4 1_555 1_555
C2_4 C3_4 1_555 1_555
C3_4 H3_4 1_555 1_555
C4_4 C3_4 1_555 1_555
H4_4 C4_4 1_555 1_555
C5_4 C4_4 1_555 1_555
H5_4 C5_4 1_555 1_555
C6_4 C1_4 1_555 1_555
C7_4 C1_4 1_555 1_555
C8_4 O5_4 1_555 1_555
C9_4 C6_4 1_555 1_555
C2_4 C8_4 1_555 1_555
C5_4 C6_4 1_555 1_555
Co7 O2_4 1_555 1_555
O7_4 Co7 1_555 1_555
H1_4 O7_4 1_555 1_555
H2_4 O7_4 1_555 1_555
O12_4 C37_4 1_555 1_555
O17_2 C37_4 1_555 1_555
C32_4 H22_4 1_555 1_555
O15_2 C38_4 1_555 1_555
O11_4 C38_4 1_555 1_555
C30_4 C31_4 1_555 1_555
H23_4 C33_4 1_555 1_555
C34_4 C33_4 1_555 1_555
H24_4 C34_4 1_555 1_555
C35_4 C30_4 1_555 1_555
C36_4 O8_4 1_555 1_555
C38_4 C35_4 1_555 1_555
C30_4 C36_4 1_555 1_555
C34_4 C35_4 1_555 1_555
Co7_2 O9_4 1_555 1_555
O14_4 Co7_2 1_555 1_555
H25_4 O14_4 1_555 1_555
H26_4 O14_4 1_555 1_555

#END
