
###############################################################################
#
# This file contains modified crystal structure data generated from the
# MOF subset of the Cambridge Structural Database (CSD) v543 
# hosted by the Cambridge Crystallographic Data Centre (CCDC).
#
# This work is licensed under the Creative Commons
# Attribution-NonCommercial-ShareAlike 4.0 International License.
# To view a copy of this license, visit
# http://creativecommons.org/licenses/by-nc-sa/4.0/
# or send a letter to
# Creative Commons, PO Box 1866, Mountain View, CA 94042, USA.
#
# CIF created using the CSD Python API on 29 September 2022
# The structure has been converted into the P1 space group
# The structure has a 3D framework
# The original CSD entry YOPNUO is in the monoclinic crystal system
# The framework has been calculated to contain at least 10.0% void space
# The void calculation uses a probe of radius 1.32A, grid spacing 0.4
#
###############################################################################

data_YOPNUO
_chemical_formula_moiety         '(C88 H104 Cd8 N8 O42)n'
_symmetry_cell_setting           triclinic
_symmetry_space_group_name_H-M   'P 1'
_symmetry_Int_Tables_number      1
_space_group_name_Hall           'P 1'
loop_
_symmetry_equiv_pos_site_id
_symmetry_equiv_pos_as_xyz
1 x,y,z
_cell_length_a                   9.374(3)
_cell_length_b                   21.316(6)
_cell_length_c                   17.130(4)
_cell_angle_alpha                90
_cell_angle_beta                 118.334(12)
_cell_angle_gamma                90
_cell_volume                     3012.78
loop_
_atom_site_label
_atom_site_type_symbol
_atom_site_fract_x
_atom_site_fract_y
_atom_site_fract_z
C6 C 0.0636(14) 0.0291(4) 0.4209(6)
H10 H 0.1758 0.0251 0.4502
H11 H 0.0552 0.1216 0.4612
N1 N 0.1813(11) 0.7541(3) 0.1807(5)
C1 C 0.2757(14) 0.7856(4) 0.2525(7)
H1 H 0.3845 0.7743 0.2826
C2 C 0.0252(15) 0.7704(5) 0.1400(7)
C8 C 0.0400(9) 0.9183(2) 0.3573(4)
H12 H 0.1568 0.9189 0.3938
C9 C 0.0027(9) 0.9067(2) 0.2670(4)
H14 H 0.0346 0.9438 0.2465
C10 C 0.0702(9) 0.8520(2) 0.2421(4)
C12 C 0.2269(15) 0.8331(4) 0.2862(7)
H17 H 0.2995 0.8526 0.3388
Cd3 Cd 0.27763(9) 0.68701(3) 0.11119(4)
Cd1 Cd 0.72237(9) 0.18701(3) 0.38881(4)
O1 O 0.4702(9) 0.1335(3) 0.3677(4)
O2 O 0.4644(8) 0.2104(3) 0.2842(4)
O3 O 0.3121(9) 0.0777(3) 0.1796(4)
O4 O 0.1087(9) 0.0132(3) 0.1478(4)
O11 O 0.5393(12) 0.0337(5) 0.1061(7)
H7 H 0.5902 0.0450 0.0786
N2 N 0.8318(10) 0.0924(3) 0.3891(5)
C3 C 0.7392(14) 0.0452(4) 0.3395(7)
H8 H 0.6272 0.0503 0.3108
C7 C 0.9906(9) 0.0881(2) 0.4288(4)
C15 C 0.1314(12) 0.2068(4) 0.1699(6)
H19 H 0.1762 0.2489 0.1818
H20 H 0.1599 0.1873 0.1280
C16 C 0.2068(12) 0.1690(3) 0.2565(6)
H21 H 0.1734 0.1900 0.2961
C17 C 0.3932(13) 0.1691(4) 0.3053(6)
C18 C 0.1342(11) 0.1032(4) 0.2410(5)
H22 H 0.1767 0.0830 0.2992
C21 C 0.1872(13) 0.0625(4) 0.1842(6)
N3 N 0.8187(11) 0.2541(3) 0.3193(5)
O13 O 0.9614(9) 0.2149(3) 0.5276(4)
O14 O 0.7212(9) 0.2516(3) 0.4965(4)
H2 H 0.9542 0.7479 0.0900
Cd2 Cd 0.29308(11) 0.99253(3) 0.09029(5)
O10 O 0.4134(12) 0.9295(4) 0.2100(5)
H5 H 0.4606 0.8998 0.1982
H6 H 0.4830 0.9504 0.2539
C4 C 0.8018(12) 0.9899(3) 0.3292(5)
H9 H 0.7322 0.9585 0.2939
C5 C 0.9705(12) 0.9799(3) 0.3713(5)
H13 H 0.9983 0.8838 0.3775
H15 H 0.8856 0.9038 0.2327
C11 C 0.9637(16) 0.8192(5) 0.1684(7)
H16 H 0.8541 0.8294 0.1386
H26 H 0.57(2) 0.996(4) 0.121(15)
H2_2 H 0.0458 0.2479 0.4100
Cd2_2 Cd 0.70692(11) 0.49253(3) 0.40971(5)
O1_2 O 0.5298(9) 0.6335(3) 0.1323(4)
O2_2 O 0.5356(8) 0.7104(3) 0.2158(4)
O3_2 O 0.6879(9) 0.5777(3) 0.3204(4)
O4_2 O 0.8913(9) 0.5132(3) 0.3522(4)
O9 O 0.8580(9) 0.5588(3) 0.5290(4)
H3 H 0.9034 0.5374 0.5765
H4 H 0.9307 0.5778 0.5202
O10_2 O 0.5866(12) 0.4295(4) 0.2900(5)
H5_2 H 0.5394 0.3998 0.3018
H6_2 H 0.5170 0.4504 0.2461
O11_2 O 0.4607(12) 0.5337(5) 0.3939(7)
H7_2 H 0.4098 0.5450 0.4214
N2_2 N 0.1682(10) 0.5924(3) 0.1109(5)
C3_2 C 0.2608(14) 0.5452(4) 0.1605(7)
H8_2 H 0.3728 0.5503 0.1892
C4_2 C 0.1982(12) 0.4899(3) 0.1708(5)
H9_2 H 0.2678 0.4585 0.2061
C5_2 C 0.0295(12) 0.4799(3) 0.1287(5)
C7_2 C 0.0094(9) 0.5881(2) 0.0712(4)
H13_2 H 0.0017 0.3838 0.1225
H15_2 H 0.1144 0.4038 0.2673
C11_2 C 0.0363(16) 0.3192(5) 0.3316(7)
H16_2 H 0.1459 0.3294 0.3614
C15_2 C 0.8686(12) 0.7068(4) 0.3301(6)
H19_2 H 0.8238 0.7489 0.3182
H20_2 H 0.8401 0.6873 0.3720
C16_2 C 0.7932(12) 0.6690(3) 0.2435(6)
H21_2 H 0.8266 0.6900 0.2039
C17_2 C 0.6068(13) 0.6691(4) 0.1947(6)
C18_2 C 0.8658(11) 0.6032(4) 0.2590(5)
H22_2 H 0.8233 0.5830 0.2008
C21_2 C 0.8128(13) 0.5625(4) 0.3158(6)
H26_2 H 0.43(2) 0.496(4) 0.379(15)
O12 O 0.7168(9) 0.4293(3) 0.5132(4)
O14_2 O 0.2788(9) 0.7516(3) 0.0035(4)
C1_2 C 0.7243(14) 0.2856(4) 0.2475(7)
H1_2 H 0.6155 0.2743 0.2174
C2_2 C 0.9748(15) 0.2704(5) 0.3600(7)
C6_2 C 0.9364(14) 0.5291(4) 0.0791(6)
H10_2 H 0.8242 0.5251 0.0498
H11_2 H 0.9448 0.6216 0.0388
C8_2 C 0.9600(9) 0.4183(2) 0.1427(4)
H12_2 H 0.8432 0.4189 0.1062
C9_2 C 0.9973(9) 0.4067(2) 0.2330(4)
H14_2 H 0.9654 0.4438 0.2535
C10_2 C 0.9298(9) 0.3520(2) 0.2579(4)
C12_2 C 0.7731(15) 0.3331(4) 0.2138(7)
H17_2 H 0.7005 0.3526 0.1612
O5 O 0.0899(10) 0.8819(3) 0.0028(4)
O5_2 O 0.9101(10) 0.3819(3) 0.4972(4)
C13 C 0.8729(13) 0.2501(4) 0.5447(6)
C14 C 0.9515(12) 0.2894(4) 0.6296(6)
H18 H 0.9322 0.2655 0.6726
C19 C 0.9486(12) 0.3914(4) 0.7030(6)
H23 H 0.9027 0.4333 0.6900
H24 H 0.9264 0.3738 0.7483
C20 C 0.8626(12) 0.3517(4) 0.6194(6)
H25 H 0.7557 0.3413 0.6130
C22 C 0.8336(13) 0.3889(4) 0.5376(6)
O9_2 O 0.1420(9) 0.0588(3) 0.9710(4)
H3_2 H 0.0966 0.0374 0.9235
H4_2 H 0.0693 0.0778 0.9798
O12_2 O 0.2832(9) 0.9293(3) 0.9868(4)
O13_2 O 0.0386(9) 0.7149(3) 0.9724(4)
C13_2 C 0.1271(13) 0.7501(4) 0.9553(6)
C14_2 C 0.0485(12) 0.7894(4) 0.8704(6)
H18_2 H 0.0678 0.7655 0.8274
C19_2 C 0.0514(12) 0.8914(4) 0.7970(6)
H23_2 H 0.0973 0.9333 0.8100
H24_2 H 0.0736 0.8738 0.7517
C20_2 C 0.1374(12) 0.8517(4) 0.8806(6)
H25_2 H 0.2443 0.8413 0.8870
C22_2 C 0.1664(13) 0.8889(4) 0.9624(6)
O6 O 0.7168(9) 0.0707(3) 0.0132(4)
O7 O 0.9614(9) 0.2851(3) 0.0276(4)
C13_3 C 0.8729(13) 0.2499(4) 0.0447(6)
C14_3 C 0.9515(12) 0.2106(4) 0.1296(6)
H18_3 H 0.9322 0.2345 0.1726
C19_3 C 0.9486(12) 0.1086(4) 0.2030(6)
H23_3 H 0.9027 0.0667 0.1900
H24_3 H 0.9264 0.1262 0.2483
C20_3 C 0.8626(12) 0.1483(4) 0.1194(6)
H25_3 H 0.7557 0.1587 0.1130
C22_3 C 0.8336(13) 0.1111(4) 0.0376(6)
O5_3 O 0.9101(10) 0.1181(3) 0.9972(4)
O8 O 0.7212(9) 0.2484(3) 0.9965(4)
Cd4 Cd 0.72237(9) 0.31299(3) 0.88881(4)
Cd5 Cd 0.70692(11) 0.00747(3) 0.90971(5)
O5_4 O 0.0899(10) 0.6181(3) 0.5028(4)
O6_2 O 0.2832(9) 0.5707(3) 0.4868(4)
O7_2 O 0.0386(9) 0.7851(3) 0.4724(4)
O8_2 O 0.2788(9) 0.7484(3) 0.5035(4)
C13_4 C 0.1271(13) 0.7499(4) 0.4553(6)
C14_4 C 0.0485(12) 0.7106(4) 0.3704(6)
H18_4 H 0.0678 0.7345 0.3274
C19_4 C 0.0514(12) 0.6086(4) 0.2970(6)
H23_4 H 0.0973 0.5667 0.3100
H24_4 H 0.0736 0.6262 0.2517
C20_4 C 0.1374(12) 0.6483(4) 0.3806(6)
H25_4 H 0.2443 0.6587 0.3870
C22_4 C 0.1664(13) 0.6111(4) 0.4624(6)
Cd4_2 Cd 0.27763(9) 0.81299(3) 0.61119(4)
Cd5_2 Cd 0.29308(11) 0.50747(3) 0.59029(5)
H2_3 H 0.0458 0.2521 0.9100
O10_3 O 0.5866(12) 0.0705(4) 0.7900(5)
H5_3 H 0.5394 0.1002 0.8018
H6_3 H 0.5170 0.0496 0.7461
C4_3 C 0.1982(12) 0.0101(3) 0.6708(5)
H9_3 H 0.2678 0.0415 0.7061
C5_3 C 0.0295(12) 0.0201(3) 0.6287(5)
H13_3 H 0.0017 0.1162 0.6225
H15_3 H 0.1144 0.0962 0.7673
C11_3 C 0.0363(16) 0.1808(5) 0.8316(7)
H16_3 H 0.1459 0.1706 0.8614
H26_3 H 0.43(2) 0.004(4) 0.879(15)
O1_3 O 0.5298(9) 0.8665(3) 0.6323(4)
O2_3 O 0.5356(8) 0.7896(3) 0.7158(4)
O3_3 O 0.6879(9) 0.9223(3) 0.8204(4)
O4_3 O 0.8913(9) 0.9868(3) 0.8522(4)
O11_3 O 0.4607(12) 0.9663(5) 0.8939(7)
H7_3 H 0.4098 0.9550 0.9214
N2_3 N 0.1682(10) 0.9076(3) 0.6109(5)
C3_3 C 0.2608(14) 0.9548(4) 0.6605(7)
H8_3 H 0.3728 0.9497 0.6892
C7_3 C 0.0094(9) 0.9119(2) 0.5712(4)
C15_3 C 0.8686(12) 0.7932(4) 0.8301(6)
H19_3 H 0.8238 0.7511 0.8182
H20_3 H 0.8401 0.8127 0.8720
C16_3 C 0.7932(12) 0.8310(3) 0.7435(6)
H21_3 H 0.8266 0.8100 0.7039
C17_3 C 0.6068(13) 0.8309(4) 0.6947(6)
C18_3 C 0.8658(11) 0.8968(4) 0.7590(5)
H22_3 H 0.8233 0.9170 0.7008
C21_3 C 0.8128(13) 0.9375(4) 0.8158(6)
N3_2 N 0.1813(11) 0.7459(3) 0.6807(5)
N1_2 N 0.8187(11) 0.2459(3) 0.8193(5)
C1_3 C 0.7243(14) 0.2144(4) 0.7475(7)
H1_3 H 0.6155 0.2257 0.7174
C2_3 C 0.9748(15) 0.2296(5) 0.8600(7)
C8_3 C 0.9600(9) 0.0817(2) 0.6427(4)
H12_3 H 0.8432 0.0811 0.6062
C9_3 C 0.9973(9) 0.0933(2) 0.7330(4)
H14_3 H 0.9654 0.0562 0.7535
C10_3 C 0.9298(9) 0.1480(2) 0.7579(4)
C12_3 C 0.7731(15) 0.1669(4) 0.7138(7)
H17_3 H 0.7005 0.1474 0.6612
C1_4 C 0.2757(14) 0.7144(4) 0.7525(7)
H1_4 H 0.3845 0.7257 0.7826
C2_4 C 0.0252(15) 0.7296(5) 0.6400(7)
C6_3 C 0.0636(14) 0.4709(4) 0.9209(6)
H10_3 H 0.1758 0.4749 0.9502
H11_3 H 0.0552 0.3784 0.9612
C8_4 C 0.0400(9) 0.5817(2) 0.8573(4)
H12_4 H 0.1568 0.5811 0.8938
C9_4 C 0.0027(9) 0.5933(2) 0.7670(4)
H14_4 H 0.0346 0.5562 0.7465
C10_4 C 0.0702(9) 0.6480(2) 0.7421(4)
C12_4 C 0.2269(15) 0.6669(4) 0.7862(7)
H17_4 H 0.2995 0.6474 0.8388
H2_4 H 0.9542 0.7521 0.5900
O1_4 O 0.4702(9) 0.3665(3) 0.8677(4)
O2_4 O 0.4644(8) 0.2896(3) 0.7842(4)
O3_4 O 0.3121(9) 0.4223(3) 0.6796(4)
O4_4 O 0.1087(9) 0.4868(3) 0.6478(4)
O9_3 O 0.1420(9) 0.4412(3) 0.4710(4)
H3_3 H 0.0966 0.4626 0.4235
H4_3 H 0.0693 0.4222 0.4798
O10_4 O 0.4134(12) 0.5705(4) 0.7100(5)
H5_4 H 0.4606 0.6002 0.6982
H6_4 H 0.4830 0.5496 0.7539
O11_4 O 0.5393(12) 0.4663(5) 0.6061(7)
H7_4 H 0.5902 0.4550 0.5786
N2_4 N 0.8318(10) 0.4076(3) 0.8891(5)
C3_4 C 0.7392(14) 0.4548(4) 0.8395(7)
H8_4 H 0.6272 0.4497 0.8108
C4_4 C 0.8018(12) 0.5101(3) 0.8292(5)
H9_4 H 0.7322 0.5415 0.7939
C5_4 C 0.9705(12) 0.5201(3) 0.8713(5)
C7_4 C 0.9906(9) 0.4119(2) 0.9288(4)
H13_4 H 0.9983 0.6162 0.8775
H15_4 H 0.8856 0.5962 0.7327
C11_4 C 0.9637(16) 0.6808(5) 0.6684(7)
H16_4 H 0.8541 0.6706 0.6386
C15_4 C 0.1314(12) 0.2932(4) 0.6699(6)
H19_4 H 0.1762 0.2511 0.6818
H20_4 H 0.1599 0.3127 0.6280
C16_4 C 0.2068(12) 0.3310(3) 0.7565(6)
H21_4 H 0.1734 0.3100 0.7961
C17_4 C 0.3932(13) 0.3309(4) 0.8053(6)
C18_4 C 0.1342(11) 0.3968(4) 0.7410(5)
H22_4 H 0.1767 0.4170 0.7992
C21_4 C 0.1872(13) 0.4375(4) 0.6842(6)
H26_4 H 0.57(2) 0.504(4) 0.621(15)
O9_4 O 0.8580(9) 0.9412(3) 0.0290(4)
H3_4 H 0.9034 0.9626 0.0765
H4_4 H 0.9307 0.9222 0.0202
C6_4 C 0.9364(14) 0.9709(4) 0.5791(6)
H10_4 H 0.8242 0.9749 0.5498
H11_4 H 0.9448 0.8784 0.5388
loop_
_geom_bond_atom_site_label_1
_geom_bond_atom_site_label_2
_geom_bond_site_symmetry_1
_geom_bond_site_symmetry_2
H10 C6 1_555 1_555
N1 C1 1_555 1_555
C1 H1 1_555 1_555
C2 N1 1_555 1_555
H12 C8 1_555 1_555
C9 C8 1_555 1_555
H14 C9 1_555 1_555
C10 C9 1_555 1_555
C12 C1 1_555 1_555
H17 C12 1_555 1_555
Cd3 N1 1_555 1_555
C10 C12 1_555 1_555
Cd1 O1 1_555 1_555
O1 C17 1_555 1_555
O2 Cd1 1_555 1_555
O3 C21 1_555 1_555
H7 O11 1_555 1_555
N2 Cd1 1_555 1_555
C3 N2 1_555 1_555
H8 C3 1_555 1_555
C7 N2 1_555 1_555
H19 C15 1_555 1_555
H20 C15 1_555 1_555
C16 C15 1_555 1_555
H21 C16 1_555 1_555
C17 O2 1_555 1_555
C18 C16 1_555 1_555
H22 C18 1_555 1_555
C21 O4 1_555 1_555
N3 Cd1 1_555 1_555
O13 Cd1 1_555 1_555
O14 Cd1 1_555 1_555
C16 C17 1_555 1_555
C18 C21 1_555 1_555
O10 Cd2 1_555 1_555
H5 O10 1_555 1_555
H6 O10 1_555 1_555
H9 C4 1_555 1_555
C5 C4 1_555 1_555
H16 C11 1_555 1_555
Cd3 O1_2 1_555 1_555
Cd2_2 O3_2 1_555 1_555
O1_2 C17_2 1_555 1_555
O2_2 Cd3 1_555 1_555
O3_2 C21_2 1_555 1_555
O4_2 Cd2_2 1_555 1_555
O9 Cd2_2 1_555 1_555
H3 O9 1_555 1_555
H4 O9 1_555 1_555
O10_2 Cd2_2 1_555 1_555
H5_2 O10_2 1_555 1_555
H6_2 O10_2 1_555 1_555
O11_2 Cd2_2 1_555 1_555
H7_2 O11_2 1_555 1_555
N2_2 Cd3 1_555 1_555
C3_2 N2_2 1_555 1_555
H8_2 C3_2 1_555 1_555
C4_2 C3_2 1_555 1_555
H9_2 C4_2 1_555 1_555
C5_2 C4_2 1_555 1_555
C7_2 N2_2 1_555 1_555
H16_2 C11_2 1_555 1_555
H19_2 C15_2 1_555 1_555
H20_2 C15_2 1_555 1_555
C16_2 C15_2 1_555 1_555
H21_2 C16_2 1_555 1_555
C17_2 O2_2 1_555 1_555
C18_2 C16_2 1_555 1_555
H22_2 C18_2 1_555 1_555
C21_2 O4_2 1_555 1_555
H26_2 O11_2 1_555 1_555
O12 Cd2_2 1_555 1_555
O14_2 Cd3 1_555 1_555
C16_2 C17_2 1_555 1_555
C18_2 C21_2 1_555 1_555
N3 C1_2 1_555 1_555
C1_2 H1_2 1_555 1_555
C2_2 N3 1_555 1_555
H10_2 C6_2 1_555 1_555
H12_2 C8_2 1_555 1_555
C9_2 C8_2 1_555 1_555
H14_2 C9_2 1_555 1_555
C10_2 C9_2 1_555 1_555
C12_2 C1_2 1_555 1_555
H17_2 C12_2 1_555 1_555
C10_2 C12_2 1_555 1_555
O5_2 C22 1_555 1_555
O12 C22 1_555 1_555
O13 C13 1_555 1_555
O14 C13 1_555 1_555
C13 C14 1_555 1_555
C14 H18 1_555 1_555
H23 C19 1_555 1_555
H24 C19 1_555 1_555
C20 C14 1_555 1_555
H25 C20 1_555 1_555
C22 C20 1_555 1_555
C19 C20 1_555 1_555
H3_2 O9_2 1_555 1_555
H4_2 O9_2 1_555 1_555
O12_2 C22_2 1_555 1_555
O13_2 C13_2 1_555 1_555
C13_2 C14_2 1_555 1_555
C14_2 H18_2 1_555 1_555
H23_2 C19_2 1_555 1_555
H24_2 C19_2 1_555 1_555
C20_2 C14_2 1_555 1_555
H25_2 C20_2 1_555 1_555
C22_2 C20_2 1_555 1_555
C19_2 C20_2 1_555 1_555
O6 C22_3 1_555 1_555
O7 C13_3 1_555 1_555
C13_3 C14_3 1_555 1_555
C14_3 H18_3 1_555 1_555
H23_3 C19_3 1_555 1_555
H24_3 C19_3 1_555 1_555
C20_3 C14_3 1_555 1_555
H25_3 C20_3 1_555 1_555
C22_3 C20_3 1_555 1_555
C19_3 C20_3 1_555 1_555
O8 Cd4 1_555 1_555
O5_4 C22_4 1_555 1_555
O6_2 C22_4 1_555 1_555
O7_2 C13_4 1_555 1_555
O8_2 C13_4 1_555 1_555
C13_4 C14_4 1_555 1_555
C14_4 H18_4 1_555 1_555
H23_4 C19_4 1_555 1_555
H24_4 C19_4 1_555 1_555
C20_4 C14_4 1_555 1_555
H25_4 C20_4 1_555 1_555
C22_4 C20_4 1_555 1_555
Cd4_2 O7_2 1_555 1_555
Cd5_2 O6_2 1_555 1_555
O8_2 Cd4_2 1_555 1_555
C19_4 C20_4 1_555 1_555
O10_3 Cd5 1_555 1_555
H5_3 O10_3 1_555 1_555
H6_3 O10_3 1_555 1_555
H9_3 C4_3 1_555 1_555
C5_3 C4_3 1_555 1_555
H16_3 C11_3 1_555 1_555
Cd4_2 O1_3 1_555 1_555
O1_3 C17_3 1_555 1_555
O2_3 Cd4_2 1_555 1_555
O3_3 C21_3 1_555 1_555
H7_3 O11_3 1_555 1_555
N2_3 Cd4_2 1_555 1_555
C3_3 N2_3 1_555 1_555
H8_3 C3_3 1_555 1_555
C7_3 N2_3 1_555 1_555
H19_3 C15_3 1_555 1_555
H20_3 C15_3 1_555 1_555
C16_3 C15_3 1_555 1_555
H21_3 C16_3 1_555 1_555
C17_3 O2_3 1_555 1_555
C18_3 C16_3 1_555 1_555
H22_3 C18_3 1_555 1_555
C21_3 O4_3 1_555 1_555
N3_2 Cd4_2 1_555 1_555
C16_3 C17_3 1_555 1_555
C18_3 C21_3 1_555 1_555
N1_2 C1_3 1_555 1_555
C1_3 H1_3 1_555 1_555
C2_3 N1_2 1_555 1_555
H12_3 C8_3 1_555 1_555
C9_3 C8_3 1_555 1_555
H14_3 C9_3 1_555 1_555
C10_3 C9_3 1_555 1_555
C12_3 C1_3 1_555 1_555
H17_3 C12_3 1_555 1_555
Cd4 N1_2 1_555 1_555
C10_3 C12_3 1_555 1_555
N3_2 C1_4 1_555 1_555
C1_4 H1_4 1_555 1_555
C2_4 N3_2 1_555 1_555
H10_3 C6_3 1_555 1_555
H12_4 C8_4 1_555 1_555
C9_4 C8_4 1_555 1_555
H14_4 C9_4 1_555 1_555
C10_4 C9_4 1_555 1_555
C12_4 C1_4 1_555 1_555
H17_4 C12_4 1_555 1_555
C10_4 C12_4 1_555 1_555
Cd4 O1_4 1_555 1_555
Cd5_2 O3_4 1_555 1_555
O1_4 C17_4 1_555 1_555
O2_4 Cd4 1_555 1_555
O3_4 C21_4 1_555 1_555
O4_4 Cd5_2 1_555 1_555
O9_3 Cd5_2 1_555 1_555
H3_3 O9_3 1_555 1_555
H4_3 O9_3 1_555 1_555
O10_4 Cd5_2 1_555 1_555
H5_4 O10_4 1_555 1_555
H6_4 O10_4 1_555 1_555
O11_4 Cd5_2 1_555 1_555
H7_4 O11_4 1_555 1_555
N2_4 Cd4 1_555 1_555
C3_4 N2_4 1_555 1_555
H8_4 C3_4 1_555 1_555
C4_4 C3_4 1_555 1_555
H9_4 C4_4 1_555 1_555
C5_4 C4_4 1_555 1_555
C7_4 N2_4 1_555 1_555
H16_4 C11_4 1_555 1_555
H19_4 C15_4 1_555 1_555
H20_4 C15_4 1_555 1_555
C16_4 C15_4 1_555 1_555
H21_4 C16_4 1_555 1_555
C17_4 O2_4 1_555 1_555
C18_4 C16_4 1_555 1_555
H22_4 C18_4 1_555 1_555
C21_4 O4_4 1_555 1_555
H26_4 O11_4 1_555 1_555
C16_4 C17_4 1_555 1_555
C18_4 C21_4 1_555 1_555
H3_4 O9_4 1_555 1_555
H4_4 O9_4 1_555 1_555
H10_4 C6_4 1_555 1_555

#END
