
###############################################################################
#
# This file contains modified crystal structure data generated from the
# MOF subset of the Cambridge Structural Database (CSD) v543 
# hosted by the Cambridge Crystallographic Data Centre (CCDC).
#
# This work is licensed under the Creative Commons
# Attribution-NonCommercial-ShareAlike 4.0 International License.
# To view a copy of this license, visit
# http://creativecommons.org/licenses/by-nc-sa/4.0/
# or send a letter to
# Creative Commons, PO Box 1866, Mountain View, CA 94042, USA.
#
# CIF created using the CSD Python API on 29 September 2022
# The structure has been converted into the P1 space group
# The structure has a 3D framework
# The original CSD entry YOPPAW is in the triclinic crystal system
# The framework has been calculated to contain at least 10.0% void space
# The void calculation uses a probe of radius 1.32A, grid spacing 0.4
#
###############################################################################

data_YOPPAW
_chemical_formula_moiety         '(C56 H54 Cd4 N6 O18)n'
_symmetry_cell_setting           triclinic
_symmetry_space_group_name_H-M   'P 1'
_symmetry_Int_Tables_number      1
_space_group_name_Hall           'P 1'
loop_
_symmetry_equiv_pos_site_id
_symmetry_equiv_pos_as_xyz
1 x,y,z
_cell_length_a                   10.100(4)
_cell_length_b                   13.978(6)
_cell_length_c                   14.481(6)
_cell_angle_alpha                63.119(5)
_cell_angle_beta                 71.811(6)
_cell_angle_gamma                79.588(5)
_cell_volume                     1730.49
loop_
_atom_site_label
_atom_site_type_symbol
_atom_site_fract_x
_atom_site_fract_y
_atom_site_fract_z
_atom_site_U_iso_or_equiv
_atom_site_thermal_displace_type
O6 O 0.0629(9) 0.1233(7) 0.2798(7) 0.0715 Uani
O7 O 0.1123(8) 0.2227(7) 0.0030(7) 0.0747 Uani
O8 O 0.0196(8) 0.0663(6) 0.1151(6) 0.0631 Uani
C27 C 0.0192(12) 0.1657(10) 0.0831(9) 0.0562 Uani
Cd6 Cd 0.19568(8) 0.03405(6) 0.39392(6) 0.0544 Uani
Cd10 Cd 0.23190(8) 0.07137(7) 0.97406(6) 0.0552 Uani
O1 O 0.4337(9) 0.0358(7) 0.3457(8) 0.0825 Uani
O3 O 0.3805(9) 0.1561(7) 0.1957(7) 0.0776 Uani
O5 O 0.8899(9) 0.0433(6) 0.4209(7) 0.0706 Uani
O9 O 0.6530(10) 0.0419(8) 0.0992(7) 0.0883 Uani
C19 C 0.4643(12) 0.1134(10) 0.2501(12) 0.0626 Uani
C20 C 0.6084(11) 0.1624(9) 0.2161(8) 0.0522 Uani
H20 H 0.5857 0.2239 0.2345 0.0630 Uiso
C21 C 0.7166(11) 0.0952(9) 0.2766(8) 0.0556 Uani
H21 H 0.6721 0.0631 0.3529 0.0670 Uiso
H22 H 0.7551 0.0376 0.2546 0.0670 Uiso
C22 C 0.8333(11) 0.1632(8) 0.2548(8) 0.0503 Uani
H23 H 0.7864 0.2180 0.2801 0.0600 Uiso
C23 C 0.9034(11) 0.2275(9) 0.1357(8) 0.0582 Uani
H24 H 0.9493 0.2855 0.1323 0.0700 Uiso
C24 C 0.7952(11) 0.2837(9) 0.0683(9) 0.0606 Uani
H25 H 0.7543 0.3469 0.0802 0.0730 Uiso
C25 C 0.6766(11) 0.2125(9) 0.0942(9) 0.0560 Uani
H27 H 0.6052 0.2601 0.0600 0.0670 Uiso
C26 C 0.9372(14) 0.1035(9) 0.3237(10) 0.0549 Uani
C28 C 0.7199(13) 0.1279(11) 0.0499(10) 0.0607 Uani
N7 N 0.1913(12) 0.1907(9) 0.4177(9) 0.0767 Uani
O14 O 0.3668(9) 0.0415(8) 0.0892(7) 0.0879 Uani
H35 H 0.4079 0.0985 0.0682 0.1320 Uiso
Cd2 Cd 0.76810(8) 0.92863(7) 0.02594(6) 0.0552 Uani
O2 O 0.9180(8) 0.8852(6) 0.1387(6) 0.0677 Uani
H1 H 0.9907 0.9212 0.1030 0.1020 Uiso
H2 H 0.8758 0.9007 0.1913 0.1020 Uiso
N1 N 0.1949(10) 0.8664(8) 0.3973(8) 0.0638 Uani
N3 N 0.6073(11) 0.8075(9) 0.1725(8) 0.0746 Uani
C1 C 0.1963(15) 0.7728(10) 0.4853(11) 0.0788 Uani
H5 H 0.2126 0.7734 0.5448 0.0950 Uiso
C2 C 0.1743(16) 0.6781(11) 0.4887(12) 0.0909 Uani
H6 H 0.1783 0.6160 0.5506 0.1090 Uiso
C3 C 0.1465(19) 0.6685(11) 0.4061(13) 0.1024 Uani
C4 C 0.1573(18) 0.7603(12) 0.3162(12) 0.1066 Uani
H7 H 0.1520 0.7577 0.2545 0.1280 Uiso
C5 C 0.1766(18) 0.8615(12) 0.3107(12) 0.1002 Uani
H8 H 0.1767 0.9237 0.2481 0.1200 Uiso
C6 C 0.094(2) 0.5668(11) 0.4148(13) 0.1261 Uani
H9 H 0.0417 0.5757 0.3689 0.1520 Uiso
C7 C 0.121(2) 0.4635(12) 0.4862(15) 0.1333 Uani
H10 H 0.1150 0.4514 0.5560 0.1600 Uiso
C8 C 0.1588(14) 0.3707(12) 0.4579(15) 0.0856 Uani
C9 C 0.1754(17) 0.2696(13) 0.5409(15) 0.1027 Uani
H11 H 0.1770 0.2606 0.6083 0.1230 Uiso
C10 C 0.1890(17) 0.1854(12) 0.5139(15) 0.1054 Uani
H12 H 0.1975 0.1170 0.5676 0.1260 Uiso
C11 C 0.1810(15) 0.2873(10) 0.3415(11) 0.0808 Uani
H13 H 0.1846 0.2940 0.2739 0.0970 Uiso
C12 C 0.1649(15) 0.3787(12) 0.3575(15) 0.0985 Uani
H14 H 0.1582 0.4457 0.3014 0.1190 Uiso
C13 C 0.5877(14) 0.8022(11) 0.2699(11) 0.0803 Uani
H15 H 0.6021 0.8626 0.2762 0.0960 Uiso
C14 C 0.5457(13) 0.7079(13) 0.3642(10) 0.0819 Uani
H16 H 0.5335 0.7068 0.4311 0.0980 Uiso
C15 C 0.5235(14) 0.6202(13) 0.3573(11) 0.0797 Uani
C16 C 0.5362(16) 0.6263(12) 0.2596(12) 0.0955 Uani
H17 H 0.5178 0.5670 0.2533 0.1150 Uiso
C17 C 0.5764(16) 0.7202(12) 0.1682(11) 0.0896 Uani
H18 H 0.5823 0.7228 0.1017 0.1070 Uiso
C18 C 0.4951(15) 0.5113(13) 0.4524(10) 0.0914 Uani
H19 H 0.4691 0.4574 0.4417 0.1090 Uiso
N4 N 0.3927(11) 0.1925(9) 0.8275(8) 0.0746 Uani
C29 C 0.4123(14) 0.1978(11) 0.7301(11) 0.0803 Uani
H28 H 0.3979 0.1374 0.7238 0.0960 Uiso
C30 C 0.4543(13) 0.2921(13) 0.6358(10) 0.0819 Uani
H29 H 0.4665 0.2932 0.5689 0.0980 Uiso
C31 C 0.4765(14) 0.3798(13) 0.6427(11) 0.0797 Uani
C32 C 0.4638(16) 0.3737(12) 0.7404(12) 0.0955 Uani
H30 H 0.4822 0.4330 0.7467 0.1150 Uiso
C33 C 0.4236(16) 0.2798(12) 0.8318(11) 0.0896 Uani
H31 H 0.4177 0.2772 0.8983 0.1070 Uiso
C34 C 0.5049(15) 0.4887(13) 0.5476(10) 0.0914 Uani
H32 H 0.5309 0.5426 0.5583 0.1090 Uiso
O12 O 0.0820(8) 0.1148(6) 0.8613(6) 0.0677 Uani
H33 H 0.0093 0.0788 0.8970 0.1020 Uiso
H34 H 0.1242 0.0993 0.8087 0.1020 Uiso
N5 N 0.8051(10) 0.1336(8) 0.6027(8) 0.0638 Uani
N6 N 0.8087(12) 0.8093(9) 0.5823(9) 0.0767 Uani
C35 C 0.8037(15) 0.2272(10) 0.5147(11) 0.0788 Uani
H37 H 0.7874 0.2266 0.4552 0.0950 Uiso
C36 C 0.8257(16) 0.3219(11) 0.5113(12) 0.0909 Uani
H38 H 0.8217 0.3840 0.4494 0.1090 Uiso
C37 C 0.8535(19) 0.3315(11) 0.5939(13) 0.1024 Uani
C38 C 0.8427(18) 0.2397(12) 0.6838(12) 0.1066 Uani
H39 H 0.8480 0.2423 0.7455 0.1280 Uiso
C39 C 0.8234(18) 0.1385(12) 0.6893(12) 0.1002 Uani
H40 H 0.8233 0.0763 0.7519 0.1200 Uiso
C40 C 0.906(2) 0.4332(11) 0.5852(13) 0.1261 Uani
H41 H 0.9583 0.4243 0.6311 0.1520 Uiso
C41 C 0.879(2) 0.5365(12) 0.5138(15) 0.1333 Uani
H42 H 0.8850 0.5486 0.4440 0.1600 Uiso
C42 C 0.8412(14) 0.6293(12) 0.5421(15) 0.0856 Uani
C43 C 0.8246(17) 0.7304(13) 0.4591(15) 0.1027 Uani
H43 H 0.8230 0.7394 0.3917 0.1230 Uiso
C44 C 0.8110(17) 0.8146(12) 0.4861(15) 0.1054 Uani
H44 H 0.8025 0.8830 0.4324 0.1260 Uiso
C45 C 0.8190(15) 0.7127(10) 0.6585(11) 0.0808 Uani
H45 H 0.8154 0.7060 0.7261 0.0970 Uiso
C46 C 0.8351(15) 0.6213(12) 0.6425(15) 0.0985 Uani
H46 H 0.8418 0.5543 0.6986 0.1190 Uiso
Cd8 Cd 0.80432(8) 0.96595(6) 0.60608(6) 0.0544 Uani
O22 O 0.1101(9) 0.9567(6) 0.5791(7) 0.0706 Uani
O4 O 0.6332(9) 0.9585(8) 0.9108(7) 0.0879 Uani
H3 H 0.5921 0.9015 0.9318 0.1320 Uiso
O26 O 0.8877(8) 0.7773(7) 0.9970(7) 0.0747 Uani
O28 O 0.9804(8) 0.9337(6) 0.8849(6) 0.0631 Uani
O11 O 0.5663(9) 0.9642(7) 0.6543(8) 0.0825 Uani
O13 O 0.6195(9) 0.8439(7) 0.8043(7) 0.0776 Uani
O19 O 0.3470(10) 0.9581(8) 0.9008(7) 0.0883 Uani
C47 C 0.5357(12) 0.8866(10) 0.7499(12) 0.0626 Uani
C48 C 0.3916(11) 0.8376(9) 0.7839(8) 0.0522 Uani
H47 H 0.4143 0.7761 0.7655 0.0630 Uiso
C49 C 0.2834(11) 0.9048(9) 0.7234(8) 0.0556 Uani
H48 H 0.3279 0.9369 0.6471 0.0670 Uiso
H49 H 0.2449 0.9624 0.7454 0.0670 Uiso
C50 C 0.1667(11) 0.8368(8) 0.7452(8) 0.0503 Uani
H50 H 0.2136 0.7820 0.7199 0.0600 Uiso
C51 C 0.0966(11) 0.7725(9) 0.8643(8) 0.0582 Uani
H51 H 0.0507 0.7145 0.8677 0.0700 Uiso
C52 C 0.2048(11) 0.7163(9) 0.9317(9) 0.0606 Uani
H52 H 0.2457 0.6531 0.9198 0.0730 Uiso
C53 C 0.3234(11) 0.7875(9) 0.9058(9) 0.0560 Uani
H54 H 0.3948 0.7399 0.9400 0.0670 Uiso
C54 C 0.0628(14) 0.8965(9) 0.6763(10) 0.0549 Uani
C56 C 0.2801(13) 0.8721(11) 0.9501(10) 0.0607 Uani
O24 O 0.9371(9) 0.8767(7) 0.7202(7) 0.0715 Uani
C55 C 0.9808(12) 0.8343(10) 0.9169(9) 0.0562 Uani
H4 H 0.5730 0.0093 0.9119 0.1320 Uiso
O10 O 0.8110(10) 0.1487(9) 0.9610(7) 0.0949 Uani
H26 H 0.8438 0.3076 0.9929 0.0730 Uiso
H36 H 0.4270 0.9907 0.0881 0.1320 Uiso
O20 O 0.1890(10) 0.8513(9) 0.0390(7) 0.0949 Uani
H53 H 0.1562 0.6924 0.0071 0.0730 Uiso
loop_
_atom_site_aniso_label
_atom_site_aniso_U_11
_atom_site_aniso_U_22
_atom_site_aniso_U_33
_atom_site_aniso_U_23
_atom_site_aniso_U_13
_atom_site_aniso_U_12
O6 0.05 0.087 0.083 -0.043 -0.015 -0.001
O7 0.058 0.081 0.071 -0.036 0.011 -0.01
O8 0.071 0.054 0.072 -0.039 -0.012 0.001
C27 0.058 0.059 0.059 -0.033 -0.016 0.003
Cd6 0.05 0.0544 0.0618 -0.0308 -0.0079 -0.0045
Cd10 0.0528 0.0618 0.055 -0.0336 -0.006 -0.0021
O1 0.064 0.072 0.095 -0.031 -0.001 -0.012
O3 0.047 0.102 0.095 -0.049 -0.024 0
O5 0.083 0.072 0.057 -0.026 -0.017 -0.01
O9 0.109 0.08 0.085 -0.057 0.001 -0.012
C19 0.037 0.067 0.1 -0.062 -0.001 0.003
C20 0.052 0.063 0.048 -0.032 -0.007 -0.005
C21 0.062 0.054 0.045 -0.017 -0.004 -0.018
C22 0.051 0.048 0.056 -0.032 -0.008 0.005
C23 0.052 0.067 0.058 -0.033 -0.005 -0.007
C24 0.052 0.048 0.065 -0.013 -0.01 -0.003
C25 0.042 0.058 0.069 -0.036 -0.008 0.009
C26 0.074 0.05 0.063 -0.039 -0.034 0.015
C28 0.061 0.08 0.062 -0.049 -0.024 0.014
N7 0.11 0.066 0.07 -0.043 -0.016 -0.016
O14 0.073 0.122 0.091 -0.058 -0.031 -0.004
Cd2 0.0528 0.0618 0.055 -0.0336 -0.006 -0.0021
O2 0.064 0.075 0.061 -0.034 -0.004 -0.004
N1 0.068 0.062 0.065 -0.032 -0.015 -0.002
N3 0.088 0.078 0.061 -0.035 -0.008 -0.017
C1 0.11 0.062 0.083 -0.051 -0.028 0.013
C2 0.134 0.063 0.096 -0.051 -0.047 0.026
C3 0.166 0.067 0.107 -0.061 -0.064 0.035
C4 0.167 0.086 0.093 -0.061 -0.054 0.032
C5 0.151 0.089 0.085 -0.057 -0.05 0.027
C6 0.198 0.08 0.134 -0.057 -0.09 0.03
C7 0.21 0.084 0.148 -0.069 -0.096 0.037
C8 0.064 0.075 0.143 -0.068 -0.035 0.012
C9 0.108 0.091 0.148 -0.073 -0.055 0.004
C10 0.121 0.075 0.142 -0.067 -0.021 -0.022
C11 0.102 0.054 0.077 -0.033 0 -0.009
C12 0.075 0.08 0.13 -0.061 0.017 -0.012
C13 0.088 0.078 0.071 -0.038 -0.004 -0.007
C14 0.074 0.128 0.049 -0.05 0.006 -0.022
C15 0.078 0.098 0.064 -0.041 -0.01 -0.003
C16 0.117 0.074 0.094 -0.041 -0.008 -0.021
C17 0.119 0.086 0.057 -0.027 -0.004 -0.032
C18 0.08 0.101 0.087 -0.039 -0.014 -0.006
N4 0.088 0.078 0.061 -0.035 -0.008 -0.017
C29 0.088 0.078 0.071 -0.038 -0.004 -0.007
C30 0.074 0.128 0.049 -0.05 0.006 -0.022
C31 0.078 0.098 0.064 -0.041 -0.01 -0.003
C32 0.117 0.074 0.094 -0.041 -0.008 -0.021
C33 0.119 0.086 0.057 -0.027 -0.004 -0.032
C34 0.08 0.101 0.087 -0.039 -0.014 -0.006
O12 0.064 0.075 0.061 -0.034 -0.004 -0.004
N5 0.068 0.062 0.065 -0.032 -0.015 -0.002
N6 0.11 0.066 0.07 -0.043 -0.016 -0.016
C35 0.11 0.062 0.083 -0.051 -0.028 0.013
C36 0.134 0.063 0.096 -0.051 -0.047 0.026
C37 0.166 0.067 0.107 -0.061 -0.064 0.035
C38 0.167 0.086 0.093 -0.061 -0.054 0.032
C39 0.151 0.089 0.085 -0.057 -0.05 0.027
C40 0.198 0.08 0.134 -0.057 -0.09 0.03
C41 0.21 0.084 0.148 -0.069 -0.096 0.037
C42 0.064 0.075 0.143 -0.068 -0.035 0.012
C43 0.108 0.091 0.148 -0.073 -0.055 0.004
C44 0.121 0.075 0.142 -0.067 -0.021 -0.022
C45 0.102 0.054 0.077 -0.033 0 -0.009
C46 0.075 0.08 0.13 -0.061 0.017 -0.012
Cd8 0.05 0.0544 0.0618 -0.0308 -0.0079 -0.0045
O22 0.083 0.072 0.057 -0.026 -0.017 -0.01
O4 0.073 0.122 0.091 -0.058 -0.031 -0.004
O26 0.058 0.081 0.071 -0.036 0.011 -0.01
O28 0.071 0.054 0.072 -0.039 -0.012 0.001
O11 0.064 0.072 0.095 -0.031 -0.001 -0.012
O13 0.047 0.102 0.095 -0.049 -0.024 0
O19 0.109 0.08 0.085 -0.057 0.001 -0.012
C47 0.037 0.067 0.1 -0.062 -0.001 0.003
C48 0.052 0.063 0.048 -0.032 -0.007 -0.005
C49 0.062 0.054 0.045 -0.017 -0.004 -0.018
C50 0.051 0.048 0.056 -0.032 -0.008 0.005
C51 0.052 0.067 0.058 -0.033 -0.005 -0.007
C52 0.052 0.048 0.065 -0.013 -0.01 -0.003
C53 0.042 0.058 0.069 -0.036 -0.008 0.009
C54 0.074 0.05 0.063 -0.039 -0.034 0.015
C56 0.061 0.08 0.062 -0.049 -0.024 0.014
O24 0.05 0.087 0.083 -0.043 -0.015 -0.001
C55 0.058 0.059 0.059 -0.033 -0.016 0.003
O10 0.086 0.152 0.074 -0.077 -0.022 0.013
O20 0.086 0.152 0.074 -0.077 -0.022 0.013
loop_
_geom_bond_atom_site_label_1
_geom_bond_atom_site_label_2
_geom_bond_site_symmetry_1
_geom_bond_site_symmetry_2
O7 C27 1_555 1_555
O8 C27 1_555 1_555
Cd6 O6 1_555 1_555
Cd6 O1 1_555 1_555
O1 C19 1_555 1_555
O3 C19 1_555 1_555
O5 C26 1_555 1_555
C19 C20 1_555 1_555
C20 H20 1_555 1_555
C21 C20 1_555 1_555
H21 C21 1_555 1_555
H22 C21 1_555 1_555
C22 C21 1_555 1_555
H23 C22 1_555 1_555
C23 C22 1_555 1_555
H24 C23 1_555 1_555
C24 C23 1_555 1_555
H25 C24 1_555 1_555
C25 C20 1_555 1_555
H27 C25 1_555 1_555
C26 C22 1_555 1_555
C28 O9 1_555 1_555
N7 Cd6 1_555 1_555
C24 C25 1_555 1_555
C25 C28 1_555 1_555
H35 O14 1_555 1_555
Cd2 O2 1_555 1_555
O2 H1 1_555 1_555
H2 O2 1_555 1_555
N7 C10 1_555 1_555
N3 Cd2 1_555 1_555
C1 N1 1_555 1_555
H5 C1 1_555 1_555
C2 C1 1_555 1_555
H6 C2 1_555 1_555
C3 C2 1_555 1_555
C4 C3 1_555 1_555
H7 C4 1_555 1_555
C5 N1 1_555 1_555
H8 C5 1_555 1_555
C6 C3 1_555 1_555
H9 C6 1_555 1_555
C7 C6 1_555 1_555
H10 C7 1_555 1_555
C8 C7 1_555 1_555
C9 C8 1_555 1_555
H11 C9 1_555 1_555
C10 C9 1_555 1_555
H12 C10 1_555 1_555
C11 N7 1_555 1_555
H13 C11 1_555 1_555
C12 C8 1_555 1_555
H14 C12 1_555 1_555
C13 N3 1_555 1_555
H15 C13 1_555 1_555
C14 C13 1_555 1_555
H16 C14 1_555 1_555
C15 C14 1_555 1_555
C16 C15 1_555 1_555
H17 C16 1_555 1_555
C17 N3 1_555 1_555
H18 C17 1_555 1_555
C18 C15 1_555 1_555
H19 C18 1_555 1_555
N4 C29 1_555 1_555
C29 H28 1_555 1_555
C30 C29 1_555 1_555
H29 C30 1_555 1_555
C31 C30 1_555 1_555
C32 C31 1_555 1_555
H30 C32 1_555 1_555
C33 N4 1_555 1_555
H31 C33 1_555 1_555
C34 C18 1_555 1_555
H32 C34 1_555 1_555
Cd10 N4 1_555 1_555
O12 Cd10 1_555 1_555
H33 O12 1_555 1_555
H34 O12 1_555 1_555
N6 C44 1_555 1_555
C35 N5 1_555 1_555
H37 C35 1_555 1_555
C36 C35 1_555 1_555
H38 C36 1_555 1_555
C37 C36 1_555 1_555
C38 C37 1_555 1_555
H39 C38 1_555 1_555
C39 N5 1_555 1_555
H40 C39 1_555 1_555
C40 C37 1_555 1_555
H41 C40 1_555 1_555
C41 C40 1_555 1_555
H42 C41 1_555 1_555
C42 C41 1_555 1_555
C43 C42 1_555 1_555
H43 C43 1_555 1_555
C44 C43 1_555 1_555
H44 C44 1_555 1_555
C45 N6 1_555 1_555
H45 C45 1_555 1_555
C46 C42 1_555 1_555
H46 C46 1_555 1_555
C4 C5 1_555 1_555
C11 C12 1_555 1_555
C16 C17 1_555 1_555
C31 C34 1_555 1_555
C32 C33 1_555 1_555
N6 Cd8 1_555 1_555
C38 C39 1_555 1_555
C45 C46 1_555 1_555
H3 O4 1_555 1_555
Cd8 O11 1_555 1_555
O11 C47 1_555 1_555
O13 C47 1_555 1_555
O22 C54 1_555 1_555
C47 C48 1_555 1_555
C48 H47 1_555 1_555
C49 C48 1_555 1_555
H48 C49 1_555 1_555
H49 C49 1_555 1_555
C50 C49 1_555 1_555
H50 C50 1_555 1_555
C51 C50 1_555 1_555
H51 C51 1_555 1_555
C52 C51 1_555 1_555
H52 C52 1_555 1_555
C53 C48 1_555 1_555
H54 C53 1_555 1_555
C54 C50 1_555 1_555
C56 O19 1_555 1_555
O24 Cd8 1_555 1_555
C52 C53 1_555 1_555
C53 C56 1_555 1_555
O26 C55 1_555 1_555
O28 C55 1_555 1_555

#END
