
###############################################################################
#
# This file contains modified crystal structure data generated from the
# MOF subset of the Cambridge Structural Database (CSD) v543 
# hosted by the Cambridge Crystallographic Data Centre (CCDC).
#
# This work is licensed under the Creative Commons
# Attribution-NonCommercial-ShareAlike 4.0 International License.
# To view a copy of this license, visit
# http://creativecommons.org/licenses/by-nc-sa/4.0/
# or send a letter to
# Creative Commons, PO Box 1866, Mountain View, CA 94042, USA.
#
# CIF created using the CSD Python API on 29 September 2022
# The structure has been converted into the P1 space group
# The structure has a 3D framework
# The original CSD entry YOPSUS is in the tetragonal crystal system
# The framework has been calculated to contain at least 10.0% void space
# The void calculation uses a probe of radius 1.32A, grid spacing 0.4
#
###############################################################################

data_YOPSUS
_chemical_formula_moiety         '(C256 H192 Cu6 N48 O24)n'
_symmetry_cell_setting           triclinic
_symmetry_space_group_name_H-M   'P 1'
_symmetry_Int_Tables_number      1
_space_group_name_Hall           'P 1'
loop_
_symmetry_equiv_pos_site_id
_symmetry_equiv_pos_as_xyz
1 x,y,z
_cell_length_a                   22.7841(16)
_cell_length_b                   22.7841(16)
_cell_length_c                   15.297(2)
_cell_angle_alpha                90
_cell_angle_beta                 90
_cell_angle_gamma                90
_cell_volume                     7940.91
loop_
_atom_site_label
_atom_site_type_symbol
_atom_site_fract_x
_atom_site_fract_y
_atom_site_fract_z
H21 H 0.5764 0.6858 0.0040
Cu1 Cu 0.32046(3) 0.43845(3) 0.43776(4)
N1 N 0.5579(3) 0.6000(2) 0.1265(3)
N2 N 0.5016(3) 0.5793(2) 0.1058(3)
N3 N 0.3146(2) 0.5179(2) 0.3778(3)
N4 N 0.65586(19) 0.6356(2) 0.4956(3)
N5 N 0.5943(2) 0.7261(2) 0.8931(3)
N6 N 0.2425(5) 0.5096(4) 0.8007(5)
C1 C 0.5626(3) 0.5976(3) 0.2103(3)
C2 C 0.6125(3) 0.6138(2) 0.2629(3)
C3 C 0.6630(3) 0.6304(2) 0.2204(3)
H1 H 0.6639 0.6305 0.1597
C4 C 0.7119(3) 0.6467(3) 0.2661(4)
H2 H 0.7464 0.6562 0.2369
C5 C 0.7093(3) 0.6489(3) 0.3581(3)
H3 H 0.7421 0.6603 0.3901
C6 C 0.6587(3) 0.6341(2) 0.3998(3)
C7 C 0.6108(3) 0.6162(2) 0.3547(3)
H4 H 0.5768 0.6055 0.3844
C8 C 0.4757(3) 0.5680(2) 0.1794(3)
C9 C 0.4174(3) 0.5482(2) 0.1939(3)
C10 C 0.3782(3) 0.5418(3) 0.1222(4)
H5 H 0.3915 0.5483 0.0655
C11 C 0.3209(3) 0.5260(3) 0.1359(4)
H6 H 0.2961 0.5212 0.0881
C12 C 0.2992(3) 0.5171(3) 0.2187(4)
H7 H 0.2601 0.5069 0.2272
C13 C 0.3372(3) 0.5237(2) 0.2902(4)
C14 C 0.3943(3) 0.5383(2) 0.2778(3)
H8 H 0.4189 0.5418 0.3260
C15 C 0.2857(3) 0.6226(3) 0.3601(4)
H9 H 0.3235 0.6412 0.3575
H10 H 0.2584 0.6481 0.3890
H11 H 0.2722 0.6146 0.3019
C16 C 0.2908(3) 0.5649(3) 0.4111(4)
C17 C 0.2680(3) 0.5665(3) 0.4975(4)
H12 H 0.2488 0.6008 0.5141
C18 C 0.2712(2) 0.5240(3) 0.5571(4)
C19 C 0.2497(3) 0.5336(3) 0.6494(4)
C20 C 0.2132(4) 0.5772(4) 0.6698(5)
H13 H 0.2003 0.6011 0.6244
C21 C 0.2085(4) 0.5567(5) 0.8136(7)
H14 H 0.1958 0.5655 0.8699
C22 C 0.1933(5) 0.5895(5) 0.7512(6)
H15 H 0.1689 0.6216 0.7609
C23 C 0.6364(4) 0.7411(3) 0.4785(4)
H16 H 0.6230 0.7311 0.4209
H17 H 0.6082 0.7661 0.5064
H18 H 0.6734 0.7612 0.4745
C24 C 0.6440(3) 0.6854(3) 0.5321(3)
C25 C 0.6376(3) 0.6922(3) 0.6245(3)
H19 H 0.6346 0.7303 0.6458
C26 C 0.6355(2) 0.6476(3) 0.6843(3)
C27 C 0.6196(2) 0.6599(2) 0.7758(3)
C28 C 0.6103(2) 0.7141(3) 0.8092(3)
H20 H 0.6152 0.7459 0.7717
C29 C 0.5874(3) 0.6795(3) 0.9462(3)
C30 C 0.5958(3) 0.6243(3) 0.9188(3)
H22 H 0.5901 0.5933 0.9575
C31 C 0.6129(3) 0.6126(3) 0.8329(4)
H23 H 0.6196 0.5743 0.8143
C32 C 0.2637(4) 0.4976(4) 0.7134(5)
H24 H 0.2869 0.4648 0.7026
O1 O 0.51235(16) 0.57758(15) 0.2481(2)
O2 O 0.29367(17) 0.47188(18) 0.5453(2)
O3 O 0.64450(16) 0.59364(17) 0.6662(2)
Cu2 Cu 0.67954(3) 0.56155(3) 0.56224(4)
Cu3 Cu 0.56155(3) 0.82046(3) 0.93776(4)
N7 N 0.34414(19) 0.3644(2) 0.5044(3)
N8 N 0.2261(2) 0.4057(2) 0.3931(3)
O4 O 0.35550(16) 0.40636(17) 0.3338(2)
Cu1_2 Cu 0.17954(3) 0.06155(3) 0.43776(4)
C32_2 C 0.2363(4) 0.0024(4) 0.7134(5)
H24_2 H 0.2131 0.0352 0.7026
O2_2 O 0.20633(17) 0.02812(18) 0.5453(2)
N7_2 N 0.15586(19) 0.1356(2) 0.5044(3)
N8_2 N 0.2739(2) 0.0943(2) 0.3931(3)
O4_2 O 0.14450(16) 0.09364(17) 0.3338(2)
N1_2 N 0.9421(3) 0.9000(2) 0.1265(3)
N2_2 N 0.9984(3) 0.9207(2) 0.1058(3)
N4_2 N 0.84414(19) 0.8644(2) 0.4956(3)
N5_2 N 0.9057(2) 0.7739(2) 0.8931(3)
C1_2 C 0.9374(3) 0.9024(3) 0.2103(3)
C2_2 C 0.8875(3) 0.8862(2) 0.2629(3)
C3_2 C 0.8370(3) 0.8696(2) 0.2204(3)
H1_2 H 0.8361 0.8695 0.1597
C4_2 C 0.7881(3) 0.8533(3) 0.2661(4)
H2_2 H 0.7536 0.8438 0.2369
C5_2 C 0.7907(3) 0.8511(3) 0.3581(3)
H3_2 H 0.7579 0.8397 0.3901
C6_2 C 0.8413(3) 0.8659(2) 0.3998(3)
C7_2 C 0.8892(3) 0.8838(2) 0.3547(3)
H4_2 H 0.9232 0.8945 0.3844
C23_2 C 0.8636(4) 0.7589(3) 0.4785(4)
H16_2 H 0.8770 0.7689 0.4209
H17_2 H 0.8918 0.7339 0.5064
H18_2 H 0.8266 0.7388 0.4745
C24_2 C 0.8560(3) 0.8146(3) 0.5321(3)
C25_2 C 0.8624(3) 0.8078(3) 0.6245(3)
H19_2 H 0.8654 0.7697 0.6458
C26_2 C 0.8645(2) 0.8524(3) 0.6843(3)
C27_2 C 0.8804(2) 0.8401(2) 0.7758(3)
C28_2 C 0.8897(2) 0.7859(3) 0.8092(3)
H20_2 H 0.8848 0.7541 0.7717
C29_2 C 0.9126(3) 0.8205(3) 0.9462(3)
C30_2 C 0.9042(3) 0.8757(3) 0.9188(3)
H22_2 H 0.9099 0.9067 0.9575
C31_2 C 0.8871(3) 0.8874(3) 0.8329(4)
H23_2 H 0.8804 0.9257 0.8143
O1_2 O 0.98765(16) 0.92242(15) 0.2481(2)
O3_2 O 0.85550(16) 0.90636(17) 0.6662(2)
Cu2_2 Cu 0.82046(3) 0.93845(3) 0.56224(4)
Cu3_2 Cu 0.93845(3) 0.67954(3) 0.93776(4)
H17_3 H 0.2339 0.1082 0.0064
C24_3 C 0.3146(3) 0.1440(3) 0.0321(3)
C25_3 C 0.3078(3) 0.1376(3) 0.1245(3)
H19_3 H 0.2697 0.1346 0.1458
C26_3 C 0.3524(3) 0.1355(2) 0.1843(3)
C27_3 C 0.3401(2) 0.1196(2) 0.2758(3)
C28_3 C 0.2859(3) 0.1103(2) 0.3092(3)
H20_3 H 0.2541 0.1152 0.2717
C29_3 C 0.3205(3) 0.0874(3) 0.4462(3)
H21_2 H 0.3142 0.0764 0.5040
C30_3 C 0.3757(3) 0.0958(3) 0.4188(3)
H22_3 H 0.4067 0.0901 0.4575
C31_3 C 0.3874(3) 0.1129(3) 0.3329(4)
H23_3 H 0.4257 0.1196 0.3143
O3_3 O 0.40636(17) 0.14450(16) 0.1662(2)
Cu2_3 Cu 0.43845(3) 0.17954(3) 0.06224(4)
N3_2 N 0.4821(2) 0.8146(2) 0.8778(3)
C8_2 C 0.4320(2) 0.9757(3) 0.6794(3)
C9_2 C 0.4518(2) 0.9174(3) 0.6939(3)
C10_2 C 0.4582(3) 0.8782(3) 0.6222(4)
H5_2 H 0.4517 0.8915 0.5655
C11_2 C 0.4740(3) 0.8209(3) 0.6359(4)
H6_2 H 0.4788 0.7961 0.5881
C12_2 C 0.4829(3) 0.7992(3) 0.7187(4)
H7_2 H 0.4931 0.7601 0.7272
C13_2 C 0.4763(2) 0.8372(3) 0.7902(4)
C14_2 C 0.4617(2) 0.8943(3) 0.7778(3)
H8_2 H 0.4582 0.9189 0.8260
C15_2 C 0.3774(3) 0.7857(3) 0.8601(4)
H9_2 H 0.3588 0.8235 0.8575
H10_2 H 0.3519 0.7584 0.8890
H11_2 H 0.3854 0.7722 0.8019
C16_2 C 0.4351(3) 0.7908(3) 0.9111(4)
C17_2 C 0.4335(3) 0.7680(3) 0.9975(4)
O4_3 O 0.59364(17) 0.85550(16) 0.8338(2)
N6_2 N 0.0096(4) 0.7575(5) 0.3007(5)
H12_2 H 0.1008 0.7512 0.0141
C18_2 C 0.0240(3) 0.7288(2) 0.0571(4)
C19_2 C 0.0336(3) 0.7503(3) 0.1494(4)
C20_2 C 0.0772(4) 0.7868(4) 0.1698(5)
H13_2 H 0.1011 0.7997 0.1244
C21_2 C 0.0567(5) 0.7915(4) 0.3136(7)
H14_2 H 0.0655 0.8042 0.3699
C22_2 C 0.0895(5) 0.8067(5) 0.2512(6)
H15_2 H 0.1216 0.8311 0.2609
H17_4 H 0.2661 0.3918 0.0064
C24_4 C 0.1854(3) 0.3560(3) 0.0321(3)
C25_4 C 0.1922(3) 0.3624(3) 0.1245(3)
H19_4 H 0.2303 0.3654 0.1458
C26_4 C 0.1476(3) 0.3645(2) 0.1843(3)
C27_4 C 0.1599(2) 0.3804(2) 0.2758(3)
C28_4 C 0.2141(3) 0.3897(2) 0.3092(3)
H20_4 H 0.2459 0.3848 0.2717
C29_4 C 0.1795(3) 0.4126(3) 0.4462(3)
H21_3 H 0.1858 0.4236 0.5040
C30_4 C 0.1243(3) 0.4042(3) 0.4188(3)
H22_4 H 0.0933 0.4099 0.4575
C31_4 C 0.1126(3) 0.3871(3) 0.3329(4)
H23_4 H 0.0743 0.3804 0.3143
O3_4 O 0.09364(17) 0.35550(16) 0.1662(2)
Cu2_4 Cu 0.06155(3) 0.32046(3) 0.06224(4)
O4_4 O 0.90636(17) 0.64450(16) 0.8338(2)
N1_3 N 0.4421(3) 0.4000(2) 0.8735(3)
N2_3 N 0.4984(3) 0.4207(2) 0.8942(3)
N3_3 N 0.6854(2) 0.4821(2) 0.6222(3)
N5_3 N 0.4057(2) 0.2739(2) 0.1069(3)
N6_3 N 0.7575(5) 0.4904(4) 0.1993(5)
C1_3 C 0.4374(3) 0.4024(3) 0.7897(3)
C2_3 C 0.3875(3) 0.3862(2) 0.7371(3)
C3_3 C 0.3370(3) 0.3696(2) 0.7796(3)
H1_3 H 0.3361 0.3695 0.8403
C4_3 C 0.2881(3) 0.3533(3) 0.7339(4)
H2_3 H 0.2536 0.3438 0.7631
C5_3 C 0.2907(3) 0.3511(3) 0.6419(3)
H3_3 H 0.2579 0.3397 0.6099
C6_3 C 0.3413(3) 0.3659(2) 0.6002(3)
C7_3 C 0.3892(3) 0.3838(2) 0.6453(3)
H4_3 H 0.4232 0.3945 0.6156
C8_3 C 0.5243(3) 0.4320(2) 0.8206(3)
C9_3 C 0.5826(3) 0.4518(2) 0.8061(3)
C10_3 C 0.6218(3) 0.4582(3) 0.8778(4)
H5_3 H 0.6085 0.4517 0.9345
C11_3 C 0.6791(3) 0.4740(3) 0.8641(4)
H6_3 H 0.7039 0.4788 0.9119
C12_3 C 0.7008(3) 0.4829(3) 0.7813(4)
H7_3 H 0.7399 0.4931 0.7728
C13_3 C 0.6628(3) 0.4763(2) 0.7098(4)
C14_3 C 0.6057(3) 0.4617(2) 0.7222(3)
H8_3 H 0.5811 0.4582 0.6740
C15_3 C 0.7143(3) 0.3774(3) 0.6399(4)
H9_3 H 0.6765 0.3588 0.6425
H10_3 H 0.7416 0.3519 0.6110
H11_3 H 0.7278 0.3854 0.6981
C16_3 C 0.7092(3) 0.4351(3) 0.5889(4)
C17_3 C 0.7320(3) 0.4335(3) 0.5025(4)
H12_3 H 0.7512 0.3992 0.4859
C18_3 C 0.7288(2) 0.4760(3) 0.4429(4)
C19_3 C 0.7503(3) 0.4664(3) 0.3506(4)
C20_3 C 0.7868(4) 0.4228(4) 0.3302(5)
H13_3 H 0.7997 0.3989 0.3756
C21_3 C 0.7915(4) 0.4433(5) 0.1864(7)
H14_3 H 0.8042 0.4345 0.1301
C22_3 C 0.8067(5) 0.4105(5) 0.2488(6)
H15_3 H 0.8311 0.3784 0.2391
C23_3 C 0.3636(4) 0.2589(3) 0.5215(4)
H16_3 H 0.3770 0.2689 0.5791
H17_5 H 0.3918 0.2339 0.4936
H18_3 H 0.3266 0.2388 0.5255
C24_5 C 0.3560(3) 0.3146(3) 0.4679(3)
C25_5 C 0.3624(3) 0.3078(3) 0.3755(3)
H19_5 H 0.3654 0.2697 0.3542
C26_5 C 0.3645(2) 0.3524(3) 0.3157(3)
C27_5 C 0.3804(2) 0.3401(2) 0.2242(3)
C28_5 C 0.3897(2) 0.2859(3) 0.1908(3)
H20_5 H 0.3848 0.2541 0.2283
C29_5 C 0.4126(3) 0.3205(3) 0.0538(3)
C30_5 C 0.4042(3) 0.3757(3) 0.0812(3)
H22_5 H 0.4099 0.4067 0.0425
C31_5 C 0.3871(3) 0.3874(3) 0.1671(4)
H23_5 H 0.3804 0.4257 0.1857
C32_3 C 0.7363(4) 0.5024(4) 0.2866(5)
H24_3 H 0.7131 0.5352 0.2974
O1_3 O 0.48765(16) 0.42242(15) 0.7519(2)
O2_3 O 0.70633(17) 0.52812(18) 0.4547(2)
N8_3 N 0.7739(2) 0.5943(2) 0.6069(3)
N1_4 N 0.0579(3) 0.1000(2) 0.8735(3)
N2_4 N 0.0016(3) 0.0793(2) 0.8942(3)
N5_4 N 0.0943(2) 0.2261(2) 0.1069(3)
C1_4 C 0.0626(3) 0.0976(3) 0.7897(3)
C2_4 C 0.1125(3) 0.1138(2) 0.7371(3)
C3_4 C 0.1630(3) 0.1304(2) 0.7796(3)
H1_4 H 0.1639 0.1305 0.8403
C4_4 C 0.2119(3) 0.1467(3) 0.7339(4)
H2_4 H 0.2464 0.1562 0.7631
C5_4 C 0.2093(3) 0.1489(3) 0.6419(3)
H3_4 H 0.2421 0.1603 0.6099
C6_4 C 0.1587(3) 0.1341(2) 0.6002(3)
C7_4 C 0.1108(3) 0.1162(2) 0.6453(3)
H4_4 H 0.0768 0.1055 0.6156
C23_4 C 0.1364(4) 0.2411(3) 0.5215(4)
H16_4 H 0.1230 0.2311 0.5791
H17_6 H 0.1082 0.2661 0.4936
H18_4 H 0.1734 0.2612 0.5255
C24_6 C 0.1440(3) 0.1854(3) 0.4679(3)
C25_6 C 0.1376(3) 0.1922(3) 0.3755(3)
H19_6 H 0.1346 0.2303 0.3542
C26_6 C 0.1355(2) 0.1476(3) 0.3157(3)
C27_6 C 0.1196(2) 0.1599(2) 0.2242(3)
C28_6 C 0.1103(2) 0.2141(3) 0.1908(3)
H20_6 H 0.1152 0.2459 0.2283
C29_6 C 0.0874(3) 0.1795(3) 0.0538(3)
C30_6 C 0.0958(3) 0.1243(3) 0.0812(3)
H22_6 H 0.0901 0.0933 0.0425
C31_6 C 0.1129(3) 0.1126(3) 0.1671(4)
H23_6 H 0.1196 0.0743 0.1857
O1_4 O 0.01235(16) 0.07758(15) 0.7519(2)
C32_4 C 0.7637(4) 0.9976(4) 0.2866(5)
H24_4 H 0.7869 0.9648 0.2974
O2_4 O 0.79367(17) 0.97188(18) 0.4547(2)
N8_4 N 0.7261(2) 0.9057(2) 0.6069(3)
N3_4 N 0.5179(2) 0.1854(2) 0.1222(3)
C8_4 C 0.5680(2) 0.0243(3) 0.3206(3)
C9_4 C 0.5482(2) 0.0826(3) 0.3061(3)
C10_4 C 0.5418(3) 0.1218(3) 0.3778(4)
H5_4 H 0.5483 0.1085 0.4345
C11_4 C 0.5260(3) 0.1791(3) 0.3641(4)
H6_4 H 0.5212 0.2039 0.4119
C12_4 C 0.5171(3) 0.2008(3) 0.2813(4)
H7_4 H 0.5069 0.2399 0.2728
C13_4 C 0.5237(2) 0.1628(3) 0.2098(4)
C14_4 C 0.5383(2) 0.1057(3) 0.2222(3)
H8_4 H 0.5418 0.0811 0.1740
C15_4 C 0.6226(3) 0.2143(3) 0.1399(4)
H9_4 H 0.6412 0.1765 0.1425
H10_4 H 0.6481 0.2416 0.1110
H11_4 H 0.6146 0.2278 0.1981
C16_4 C 0.5649(3) 0.2092(3) 0.0889(4)
C17_4 C 0.5665(3) 0.2320(3) 0.0025(4)
H17_7 H 0.7661 0.8918 0.9936
C24_7 C 0.6854(3) 0.8560(3) 0.9679(3)
C25_7 C 0.6922(3) 0.8624(3) 0.8755(3)
H19_7 H 0.7303 0.8654 0.8542
C26_7 C 0.6476(3) 0.8645(2) 0.8157(3)
C27_7 C 0.6599(2) 0.8804(2) 0.7242(3)
C28_7 C 0.7141(3) 0.8897(2) 0.6908(3)
H20_7 H 0.7459 0.8848 0.7283
C29_7 C 0.6795(3) 0.9126(3) 0.5538(3)
H21_4 H 0.6858 0.9236 0.4960
C30_7 C 0.6243(3) 0.9042(3) 0.5812(3)
H22_7 H 0.5933 0.9099 0.5425
C31_7 C 0.6126(3) 0.8871(3) 0.6671(4)
H23_7 H 0.5743 0.8804 0.6857
N6_4 N 0.9904(4) 0.2425(5) 0.6993(5)
H12_4 H 0.8992 0.2488 0.9859
C18_4 C 0.9760(3) 0.2712(2) 0.9429(4)
C19_4 C 0.9664(3) 0.2497(3) 0.8506(4)
C20_4 C 0.9228(4) 0.2132(4) 0.8302(5)
H13_4 H 0.8989 0.2003 0.8756
C21_4 C 0.9433(5) 0.2085(4) 0.6864(7)
H14_4 H 0.9345 0.1958 0.6301
C22_4 C 0.9105(5) 0.1933(5) 0.7488(6)
H15_4 H 0.8784 0.1689 0.7391
H17_8 H 0.7339 0.6082 0.9936
C24_8 C 0.8146(3) 0.6440(3) 0.9679(3)
C25_8 C 0.8078(3) 0.6376(3) 0.8755(3)
H19_8 H 0.7697 0.6346 0.8542
C26_8 C 0.8524(3) 0.6355(2) 0.8157(3)
C27_8 C 0.8401(2) 0.6196(2) 0.7242(3)
C28_8 C 0.7859(3) 0.6103(2) 0.6908(3)
H20_8 H 0.7541 0.6152 0.7283
C29_8 C 0.8205(3) 0.5874(3) 0.5538(3)
H21_5 H 0.8142 0.5764 0.4960
C30_8 C 0.8757(3) 0.5958(3) 0.5812(3)
H22_8 H 0.9067 0.5901 0.5425
C31_8 C 0.8874(3) 0.6129(3) 0.6671(4)
H23_8 H 0.9257 0.6196 0.6857
N3_5 N 0.1854(2) 0.9821(2) 0.3778(3)
N6_5 N 0.2575(5) 0.9904(4) 0.8007(5)
C8_5 C 0.0243(3) 0.9320(2) 0.1794(3)
C9_5 C 0.0826(3) 0.9518(2) 0.1939(3)
C10_5 C 0.1218(3) 0.9582(3) 0.1222(4)
H5_5 H 0.1085 0.9517 0.0655
C11_5 C 0.1791(3) 0.9740(3) 0.1359(4)
H6_5 H 0.2039 0.9788 0.0881
C12_5 C 0.2008(3) 0.9829(3) 0.2187(4)
H7_5 H 0.2399 0.9931 0.2272
C13_5 C 0.1628(3) 0.9763(2) 0.2902(4)
C14_5 C 0.1057(3) 0.9617(2) 0.2778(3)
H8_5 H 0.0811 0.9582 0.3260
C15_5 C 0.2143(3) 0.8774(3) 0.3601(4)
H9_5 H 0.1765 0.8588 0.3575
H10_5 H 0.2416 0.8519 0.3890
H11_5 H 0.2278 0.8854 0.3019
C16_5 C 0.2092(3) 0.9351(3) 0.4111(4)
C17_5 C 0.2320(3) 0.9335(3) 0.4975(4)
H12_5 H 0.2512 0.8992 0.5141
C18_5 C 0.2288(2) 0.9760(3) 0.5571(4)
C19_5 C 0.2503(3) 0.9664(3) 0.6494(4)
C20_5 C 0.2868(4) 0.9228(4) 0.6698(5)
H13_5 H 0.2997 0.8989 0.6244
C21_5 C 0.2915(4) 0.9433(5) 0.8136(7)
H14_5 H 0.3042 0.9345 0.8699
C22_5 C 0.3067(5) 0.9105(5) 0.7512(6)
H15_5 H 0.3311 0.8784 0.7609
H21_6 H 0.9236 0.8142 0.0040
N1_5 N 0.4000(2) 0.0579(3) 0.6265(3)
N2_5 N 0.4207(2) 0.0016(3) 0.6058(3)
N4_3 N 0.3644(2) 0.15586(19) 0.9956(3)
C1_5 C 0.4024(3) 0.0626(3) 0.7103(3)
C2_5 C 0.3862(2) 0.1125(3) 0.7629(3)
C3_5 C 0.3696(2) 0.1630(3) 0.7204(3)
H1_5 H 0.3695 0.1639 0.6597
C4_5 C 0.3533(3) 0.2119(3) 0.7661(4)
H2_5 H 0.3438 0.2464 0.7369
C5_5 C 0.3511(3) 0.2093(3) 0.8581(3)
H3_5 H 0.3397 0.2421 0.8901
C6_5 C 0.3659(2) 0.1587(3) 0.8998(3)
C7_5 C 0.3838(2) 0.1108(3) 0.8547(3)
H4_5 H 0.3945 0.0768 0.8844
C23_5 C 0.2589(3) 0.1364(4) 0.9785(4)
H16_5 H 0.2689 0.1230 0.9209
H18_5 H 0.2388 0.1734 0.9745
O1_5 O 0.42242(15) 0.01235(16) 0.7481(2)
N6_6 N 0.5096(4) 0.2575(5) 0.6993(5)
H12_6 H 0.6008 0.2512 0.9859
C18_6 C 0.5240(3) 0.2288(2) 0.9429(4)
C19_6 C 0.5336(3) 0.2503(3) 0.8506(4)
C20_6 C 0.5772(4) 0.2868(4) 0.8302(5)
H13_6 H 0.6011 0.2997 0.8756
C21_6 C 0.5567(5) 0.2915(4) 0.6864(7)
H14_6 H 0.5655 0.3042 0.6301
C22_6 C 0.5895(5) 0.3067(5) 0.7488(6)
H15_6 H 0.6216 0.3311 0.7391
C32_5 C 0.4976(4) 0.2363(4) 0.7866(5)
H24_5 H 0.4648 0.2131 0.7974
O2_5 O 0.47188(18) 0.20633(17) 0.9547(2)
N6_7 N 0.4904(4) 0.7425(5) 0.3007(5)
H12_7 H 0.3992 0.7488 0.0141
C18_7 C 0.4760(3) 0.7712(2) 0.0571(4)
C19_7 C 0.4664(3) 0.7497(3) 0.1494(4)
C20_7 C 0.4228(4) 0.7132(4) 0.1698(5)
H13_7 H 0.3989 0.7003 0.1244
C21_7 C 0.4433(5) 0.7085(4) 0.3136(7)
H14_7 H 0.4345 0.6958 0.3699
C22_7 C 0.4105(5) 0.6933(5) 0.2512(6)
H15_7 H 0.3784 0.6689 0.2609
C32_6 C 0.5024(4) 0.7637(4) 0.2134(5)
H24_6 H 0.5352 0.7869 0.2026
O2_6 O 0.52812(18) 0.79367(17) 0.0453(2)
N7_3 N 0.6356(2) 0.84414(19) 0.0044(3)
N1_6 N 0.6000(2) 0.9421(3) 0.3735(3)
N2_6 N 0.5793(2) 0.9984(3) 0.3942(3)
C1_6 C 0.5976(3) 0.9374(3) 0.2897(3)
C2_6 C 0.6138(2) 0.8875(3) 0.2371(3)
C3_6 C 0.6304(2) 0.8370(3) 0.2796(3)
H1_6 H 0.6305 0.8361 0.3403
C4_6 C 0.6467(3) 0.7881(3) 0.2339(4)
H2_6 H 0.6562 0.7536 0.2631
C5_6 C 0.6489(3) 0.7907(3) 0.1419(3)
H3_6 H 0.6603 0.7579 0.1099
C6_6 C 0.6341(2) 0.8413(3) 0.1002(3)
C7_6 C 0.6162(2) 0.8892(3) 0.1453(3)
H4_6 H 0.6055 0.9232 0.1156
C23_6 C 0.7411(3) 0.8636(4) 0.0215(4)
H16_6 H 0.7311 0.8770 0.0791
H18_6 H 0.7612 0.8266 0.0255
O1_6 O 0.57758(15) 0.98765(16) 0.2519(2)
N1_7 N 0.1000(2) 0.4421(3) 0.6265(3)
N2_7 N 0.0793(2) 0.4984(3) 0.6058(3)
N3_6 N 0.0179(2) 0.6854(2) 0.8778(3)
N4_4 N 0.1356(2) 0.34414(19) 0.9956(3)
C1_7 C 0.0976(3) 0.4374(3) 0.7103(3)
C2_7 C 0.1138(2) 0.3875(3) 0.7629(3)
C3_7 C 0.1304(2) 0.3370(3) 0.7204(3)
H1_7 H 0.1305 0.3361 0.6597
C4_7 C 0.1467(3) 0.2881(3) 0.7661(4)
H2_7 H 0.1562 0.2536 0.7369
C5_7 C 0.1489(3) 0.2907(3) 0.8581(3)
H3_7 H 0.1603 0.2579 0.8901
C6_7 C 0.1341(2) 0.3413(3) 0.8998(3)
C7_7 C 0.1162(2) 0.3892(3) 0.8547(3)
H4_7 H 0.1055 0.4232 0.8844
C8_6 C 0.0680(2) 0.5243(3) 0.6794(3)
C9_6 C 0.0482(2) 0.5826(3) 0.6939(3)
C10_6 C 0.0418(3) 0.6218(3) 0.6222(4)
H5_6 H 0.0483 0.6085 0.5655
C11_6 C 0.0260(3) 0.6791(3) 0.6359(4)
H6_6 H 0.0212 0.7039 0.5881
C12_6 C 0.0171(3) 0.7008(3) 0.7187(4)
H7_6 H 0.0069 0.7399 0.7272
C13_6 C 0.0237(2) 0.6628(3) 0.7902(4)
C14_6 C 0.0383(2) 0.6057(3) 0.7778(3)
H8_6 H 0.0418 0.5811 0.8260
C15_6 C 0.1226(3) 0.7143(3) 0.8601(4)
H9_6 H 0.1412 0.6765 0.8575
H10_6 H 0.1481 0.7416 0.8890
H11_6 H 0.1146 0.7278 0.8019
C16_6 C 0.0649(3) 0.7092(3) 0.9111(4)
C17_6 C 0.0665(3) 0.7320(3) 0.9975(4)
C23_7 C 0.2411(3) 0.3636(4) 0.9785(4)
H16_7 H 0.2311 0.3770 0.9209
H18_7 H 0.2612 0.3266 0.9745
O1_7 O 0.07758(15) 0.48765(16) 0.7481(2)
C32_7 C 0.0024(4) 0.2637(4) 0.7866(5)
H24_7 H 0.0352 0.2869 0.7974
O2_7 O 0.02812(18) 0.29367(17) 0.9547(2)
C32_8 C 0.9976(4) 0.7363(4) 0.2134(5)
H24_8 H 0.9648 0.7131 0.2026
O2_8 O 0.97188(18) 0.70633(17) 0.0453(2)
N7_4 N 0.8644(2) 0.65586(19) 0.0044(3)
N1_8 N 0.9000(2) 0.5579(3) 0.3735(3)
N2_8 N 0.9207(2) 0.5016(3) 0.3942(3)
N3_7 N 0.9821(2) 0.3146(2) 0.1222(3)
C1_8 C 0.9024(3) 0.5626(3) 0.2897(3)
C2_8 C 0.8862(2) 0.6125(3) 0.2371(3)
C3_8 C 0.8696(2) 0.6630(3) 0.2796(3)
H1_8 H 0.8695 0.6639 0.3403
C4_8 C 0.8533(3) 0.7119(3) 0.2339(4)
H2_8 H 0.8438 0.7464 0.2631
C5_8 C 0.8511(3) 0.7093(3) 0.1419(3)
H3_8 H 0.8397 0.7421 0.1099
C6_8 C 0.8659(2) 0.6587(3) 0.1002(3)
C7_8 C 0.8838(2) 0.6108(3) 0.1453(3)
H4_8 H 0.8945 0.5768 0.1156
C8_7 C 0.9320(2) 0.4757(3) 0.3206(3)
C9_7 C 0.9518(2) 0.4174(3) 0.3061(3)
C10_7 C 0.9582(3) 0.3782(3) 0.3778(4)
H5_7 H 0.9517 0.3915 0.4345
C11_7 C 0.9740(3) 0.3209(3) 0.3641(4)
H6_7 H 0.9788 0.2961 0.4119
C12_7 C 0.9829(3) 0.2992(3) 0.2813(4)
H7_7 H 0.9931 0.2601 0.2728
C13_7 C 0.9763(2) 0.3372(3) 0.2098(4)
C14_7 C 0.9617(2) 0.3943(3) 0.2222(3)
H8_7 H 0.9582 0.4189 0.1740
C15_7 C 0.8774(3) 0.2857(3) 0.1399(4)
H9_7 H 0.8588 0.3235 0.1425
H10_7 H 0.8519 0.2584 0.1110
H11_7 H 0.8854 0.2722 0.1981
C16_7 C 0.9351(3) 0.2908(3) 0.0889(4)
C17_7 C 0.9335(3) 0.2680(3) 0.0025(4)
C23_8 C 0.7589(3) 0.6364(4) 0.0215(4)
H16_8 H 0.7689 0.6230 0.0791
H18_8 H 0.7388 0.6734 0.0255
O1_8 O 0.92242(15) 0.51235(16) 0.2519(2)
H21_7 H 0.4236 0.3142 0.9960
H21_8 H 0.0764 0.1858 0.9960
N3_8 N 0.8146(2) 0.0179(2) 0.6222(3)
N6_8 N 0.7425(5) 0.0096(4) 0.1993(5)
C8_8 C 0.9757(3) 0.0680(2) 0.8206(3)
C9_8 C 0.9174(3) 0.0482(2) 0.8061(3)
C10_8 C 0.8782(3) 0.0418(3) 0.8778(4)
H5_8 H 0.8915 0.0483 0.9345
C11_8 C 0.8209(3) 0.0260(3) 0.8641(4)
H6_8 H 0.7961 0.0212 0.9119
C12_8 C 0.7992(3) 0.0171(3) 0.7813(4)
H7_8 H 0.7601 0.0069 0.7728
C13_8 C 0.8372(3) 0.0237(2) 0.7098(4)
C14_8 C 0.8943(3) 0.0383(2) 0.7222(3)
H8_8 H 0.9189 0.0418 0.6740
C15_8 C 0.7857(3) 0.1226(3) 0.6399(4)
H9_8 H 0.8235 0.1412 0.6425
H10_8 H 0.7584 0.1481 0.6110
H11_8 H 0.7722 0.1146 0.6981
C16_8 C 0.7908(3) 0.0649(3) 0.5889(4)
C17_8 C 0.7680(3) 0.0665(3) 0.5025(4)
H12_8 H 0.7488 0.1008 0.4859
C18_8 C 0.7712(2) 0.0240(3) 0.4429(4)
C19_8 C 0.7497(3) 0.0336(3) 0.3506(4)
C20_8 C 0.7132(4) 0.0772(4) 0.3302(5)
H13_8 H 0.7003 0.1011 0.3756
C21_8 C 0.7085(4) 0.0567(5) 0.1864(7)
H14_8 H 0.6958 0.0655 0.1301
C22_8 C 0.6933(5) 0.0895(5) 0.2488(6)
H15_8 H 0.6689 0.1216 0.2391
loop_
_geom_bond_atom_site_label_1
_geom_bond_atom_site_label_2
_geom_bond_site_symmetry_1
_geom_bond_site_symmetry_2
Cu1 N3 1_555 1_555
N1 N2 1_555 1_555
N2 C8 1_555 1_555
N3 C13 1_555 1_555
N4 C6 1_555 1_555
N5 C28 1_555 1_555
N6 C21 1_555 1_555
C1 N1 1_555 1_555
C2 C1 1_555 1_555
C3 C2 1_555 1_555
H1 C3 1_555 1_555
C4 C3 1_555 1_555
H2 C4 1_555 1_555
C5 C4 1_555 1_555
H3 C5 1_555 1_555
C6 C5 1_555 1_555
C7 C2 1_555 1_555
H4 C7 1_555 1_555
C8 C9 1_555 1_555
C9 C10 1_555 1_555
C10 H5 1_555 1_555
C11 C10 1_555 1_555
H6 C11 1_555 1_555
C12 C11 1_555 1_555
H7 C12 1_555 1_555
C13 C12 1_555 1_555
C14 C9 1_555 1_555
H8 C14 1_555 1_555
C15 H9 1_555 1_555
H10 C15 1_555 1_555
H11 C15 1_555 1_555
C16 N3 1_555 1_555
C17 C16 1_555 1_555
H12 C17 1_555 1_555
C18 C17 1_555 1_555
C19 C18 1_555 1_555
C20 C19 1_555 1_555
H13 C20 1_555 1_555
C21 H14 1_555 1_555
C22 C20 1_555 1_555
H15 C22 1_555 1_555
C23 H16 1_555 1_555
H17 C23 1_555 1_555
H18 C23 1_555 1_555
C24 N4 1_555 1_555
C25 C24 1_555 1_555
H19 C25 1_555 1_555
C26 C25 1_555 1_555
C27 C26 1_555 1_555
C28 C27 1_555 1_555
H20 C28 1_555 1_555
C29 N5 1_555 1_555
C30 C29 1_555 1_555
H22 C30 1_555 1_555
C31 C27 1_555 1_555
H23 C31 1_555 1_555
C32 N6 1_555 1_555
H24 C32 1_555 1_555
O1 C1 1_555 1_555
O2 Cu1 1_555 1_555
O3 C26 1_555 1_555
Cu2 N4 1_555 1_555
Cu3 N5 1_555 1_555
N7 Cu1 1_555 1_555
N8 Cu1 1_555 1_555
O4 Cu1 1_555 1_555
C6 C7 1_555 1_555
C8 O1 1_555 1_555
C13 C14 1_555 1_555
C15 C16 1_555 1_555
C18 O2 1_555 1_555
C19 C32 1_555 1_555
C21 C22 1_555 1_555
C23 C24 1_555 1_555
C30 C31 1_555 1_555
O3 Cu2 1_555 1_555
H24_2 C32_2 1_555 1_555
O2_2 Cu1_2 1_555 1_555
N7_2 Cu1_2 1_555 1_555
N8_2 Cu1_2 1_555 1_555
O4_2 Cu1_2 1_555 1_555
N1_2 N2_2 1_555 1_555
N4_2 C6_2 1_555 1_555
N5_2 C28_2 1_555 1_555
C1_2 N1_2 1_555 1_555
C2_2 C1_2 1_555 1_555
C3_2 C2_2 1_555 1_555
H1_2 C3_2 1_555 1_555
C4_2 C3_2 1_555 1_555
H2_2 C4_2 1_555 1_555
C5_2 C4_2 1_555 1_555
H3_2 C5_2 1_555 1_555
C6_2 C5_2 1_555 1_555
C7_2 C2_2 1_555 1_555
H4_2 C7_2 1_555 1_555
C23_2 H16_2 1_555 1_555
H17_2 C23_2 1_555 1_555
H18_2 C23_2 1_555 1_555
C24_2 N4_2 1_555 1_555
C25_2 C24_2 1_555 1_555
H19_2 C25_2 1_555 1_555
C26_2 C25_2 1_555 1_555
C27_2 C26_2 1_555 1_555
C28_2 C27_2 1_555 1_555
H20_2 C28_2 1_555 1_555
C29_2 N5_2 1_555 1_555
C30_2 C29_2 1_555 1_555
H22_2 C30_2 1_555 1_555
C31_2 C27_2 1_555 1_555
H23_2 C31_2 1_555 1_555
O1_2 C1_2 1_555 1_555
O3_2 C26_2 1_555 1_555
Cu2_2 N4_2 1_555 1_555
Cu3_2 N5_2 1_555 1_555
C6_2 C7_2 1_555 1_555
C23_2 C24_2 1_555 1_555
C30_2 C31_2 1_555 1_555
O3_2 Cu2_2 1_555 1_555
N8_2 C28_3 1_555 1_555
C25_3 C24_3 1_555 1_555
H19_3 C25_3 1_555 1_555
C26_3 C25_3 1_555 1_555
C27_3 C26_3 1_555 1_555
C28_3 C27_3 1_555 1_555
H20_3 C28_3 1_555 1_555
C29_3 N8_2 1_555 1_555
H21_2 C29_3 1_555 1_555
C30_3 C29_3 1_555 1_555
H22_3 C30_3 1_555 1_555
C31_3 C27_3 1_555 1_555
H23_3 C31_3 1_555 1_555
O3_3 C26_3 1_555 1_555
C30_3 C31_3 1_555 1_555
O3_3 Cu2_3 1_555 1_555
Cu3 N3_2 1_555 1_555
N3_2 C13_2 1_555 1_555
C8_2 C9_2 1_555 1_555
C9_2 C10_2 1_555 1_555
C10_2 H5_2 1_555 1_555
C11_2 C10_2 1_555 1_555
H6_2 C11_2 1_555 1_555
C12_2 C11_2 1_555 1_555
H7_2 C12_2 1_555 1_555
C13_2 C12_2 1_555 1_555
C14_2 C9_2 1_555 1_555
H8_2 C14_2 1_555 1_555
C15_2 H9_2 1_555 1_555
H10_2 C15_2 1_555 1_555
H11_2 C15_2 1_555 1_555
C16_2 N3_2 1_555 1_555
C17_2 C16_2 1_555 1_555
O4_3 Cu3 1_555 1_555
C13_2 C14_2 1_555 1_555
C15_2 C16_2 1_555 1_555
N8 C28_4 1_555 1_555
N6_2 C21_2 1_555 1_555
C19_2 C18_2 1_555 1_555
C20_2 C19_2 1_555 1_555
H13_2 C20_2 1_555 1_555
C21_2 H14_2 1_555 1_555
C22_2 C20_2 1_555 1_555
H15_2 C22_2 1_555 1_555
C25_4 C24_4 1_555 1_555
H19_4 C25_4 1_555 1_555
C26_4 C25_4 1_555 1_555
C27_4 C26_4 1_555 1_555
C28_4 C27_4 1_555 1_555
H20_4 C28_4 1_555 1_555
C29_4 N8 1_555 1_555
H21_3 C29_4 1_555 1_555
C30_4 C29_4 1_555 1_555
H22_4 C30_4 1_555 1_555
C31_4 C27_4 1_555 1_555
H23_4 C31_4 1_555 1_555
O3_4 C26_4 1_555 1_555
C21_2 C22_2 1_555 1_555
C30_4 C31_4 1_555 1_555
O3_4 Cu2_4 1_555 1_555
O4_4 Cu3_2 1_555 1_555
Cu2 N3_3 1_555 1_555
N1_3 N2_3 1_555 1_555
N2_3 C8_3 1_555 1_555
N3_3 C13_3 1_555 1_555
N7 C6_3 1_555 1_555
N5_3 C28_5 1_555 1_555
N6_3 C21_3 1_555 1_555
C1_3 N1_3 1_555 1_555
C2_3 C1_3 1_555 1_555
C3_3 C2_3 1_555 1_555
H1_3 C3_3 1_555 1_555
C4_3 C3_3 1_555 1_555
H2_3 C4_3 1_555 1_555
C5_3 C4_3 1_555 1_555
H3_3 C5_3 1_555 1_555
C6_3 C5_3 1_555 1_555
C7_3 C2_3 1_555 1_555
H4_3 C7_3 1_555 1_555
C8_3 C9_3 1_555 1_555
C9_3 C10_3 1_555 1_555
C10_3 H5_3 1_555 1_555
C11_3 C10_3 1_555 1_555
H6_3 C11_3 1_555 1_555
C12_3 C11_3 1_555 1_555
H7_3 C12_3 1_555 1_555
C13_3 C12_3 1_555 1_555
C14_3 C9_3 1_555 1_555
H8_3 C14_3 1_555 1_555
C15_3 H9_3 1_555 1_555
H10_3 C15_3 1_555 1_555
H11_3 C15_3 1_555 1_555
C16_3 N3_3 1_555 1_555
C17_3 C16_3 1_555 1_555
H12_3 C17_3 1_555 1_555
C18_3 C17_3 1_555 1_555
C19_3 C18_3 1_555 1_555
C20_3 C19_3 1_555 1_555
H13_3 C20_3 1_555 1_555
C21_3 H14_3 1_555 1_555
C22_3 C20_3 1_555 1_555
H15_3 C22_3 1_555 1_555
C23_3 H16_3 1_555 1_555
H17_5 C23_3 1_555 1_555
H18_3 C23_3 1_555 1_555
C24_5 N7 1_555 1_555
C25_5 C24_5 1_555 1_555
H19_5 C25_5 1_555 1_555
C26_5 C25_5 1_555 1_555
C27_5 C26_5 1_555 1_555
C28_5 C27_5 1_555 1_555
H20_5 C28_5 1_555 1_555
C29_5 N5_3 1_555 1_555
C30_5 C29_5 1_555 1_555
H22_5 C30_5 1_555 1_555
C31_5 C27_5 1_555 1_555
H23_5 C31_5 1_555 1_555
C32_3 N6_3 1_555 1_555
H24_3 C32_3 1_555 1_555
O1_3 C1_3 1_555 1_555
O2_3 Cu2 1_555 1_555
O4 C26_5 1_555 1_555
Cu2_3 N5_3 1_555 1_555
N8_3 Cu2 1_555 1_555
C6_3 C7_3 1_555 1_555
C8_3 O1_3 1_555 1_555
C13_3 C14_3 1_555 1_555
C15_3 C16_3 1_555 1_555
C18_3 O2_3 1_555 1_555
C19_3 C32_3 1_555 1_555
C21_3 C22_3 1_555 1_555
C23_3 C24_5 1_555 1_555
C30_5 C31_5 1_555 1_555
N1_4 N2_4 1_555 1_555
N7_2 C6_4 1_555 1_555
N5_4 C28_6 1_555 1_555
C1_4 N1_4 1_555 1_555
C2_4 C1_4 1_555 1_555
C3_4 C2_4 1_555 1_555
H1_4 C3_4 1_555 1_555
C4_4 C3_4 1_555 1_555
H2_4 C4_4 1_555 1_555
C5_4 C4_4 1_555 1_555
H3_4 C5_4 1_555 1_555
C6_4 C5_4 1_555 1_555
C7_4 C2_4 1_555 1_555
H4_4 C7_4 1_555 1_555
C23_4 H16_4 1_555 1_555
H17_6 C23_4 1_555 1_555
H18_4 C23_4 1_555 1_555
C24_6 N7_2 1_555 1_555
C25_6 C24_6 1_555 1_555
H19_6 C25_6 1_555 1_555
C26_6 C25_6 1_555 1_555
C27_6 C26_6 1_555 1_555
C28_6 C27_6 1_555 1_555
H20_6 C28_6 1_555 1_555
C29_6 N5_4 1_555 1_555
C30_6 C29_6 1_555 1_555
H22_6 C30_6 1_555 1_555
C31_6 C27_6 1_555 1_555
H23_6 C31_6 1_555 1_555
O1_4 C1_4 1_555 1_555
O4_2 C26_6 1_555 1_555
Cu2_4 N5_4 1_555 1_555
C6_4 C7_4 1_555 1_555
C23_4 C24_6 1_555 1_555
C30_6 C31_6 1_555 1_555
H24_4 C32_4 1_555 1_555
O2_4 Cu2_2 1_555 1_555
N8_4 Cu2_2 1_555 1_555
Cu2_3 N3_4 1_555 1_555
N3_4 C13_4 1_555 1_555
C8_4 C9_4 1_555 1_555
C9_4 C10_4 1_555 1_555
C10_4 H5_4 1_555 1_555
C11_4 C10_4 1_555 1_555
H6_4 C11_4 1_555 1_555
C12_4 C11_4 1_555 1_555
H7_4 C12_4 1_555 1_555
C13_4 C12_4 1_555 1_555
C14_4 C9_4 1_555 1_555
H8_4 C14_4 1_555 1_555
C15_4 H9_4 1_555 1_555
H10_4 C15_4 1_555 1_555
H11_4 C15_4 1_555 1_555
C16_4 N3_4 1_555 1_555
C17_4 C16_4 1_555 1_555
C13_4 C14_4 1_555 1_555
C15_4 C16_4 1_555 1_555
N8_4 C28_7 1_555 1_555
C25_7 C24_7 1_555 1_555
H19_7 C25_7 1_555 1_555
C26_7 C25_7 1_555 1_555
C27_7 C26_7 1_555 1_555
C28_7 C27_7 1_555 1_555
H20_7 C28_7 1_555 1_555
C29_7 N8_4 1_555 1_555
H21_4 C29_7 1_555 1_555
C30_7 C29_7 1_555 1_555
H22_7 C30_7 1_555 1_555
C31_7 C27_7 1_555 1_555
H23_7 C31_7 1_555 1_555
O4_3 C26_7 1_555 1_555
C30_7 C31_7 1_555 1_555
N8_3 C28_8 1_555 1_555
N6_4 C21_4 1_555 1_555
C19_4 C18_4 1_555 1_555
C20_4 C19_4 1_555 1_555
H13_4 C20_4 1_555 1_555
C21_4 H14_4 1_555 1_555
C22_4 C20_4 1_555 1_555
H15_4 C22_4 1_555 1_555
C25_8 C24_8 1_555 1_555
H19_8 C25_8 1_555 1_555
C26_8 C25_8 1_555 1_555
C27_8 C26_8 1_555 1_555
C28_8 C27_8 1_555 1_555
H20_8 C28_8 1_555 1_555
C29_8 N8_3 1_555 1_555
H21_5 C29_8 1_555 1_555
C30_8 C29_8 1_555 1_555
H22_8 C30_8 1_555 1_555
C31_8 C27_8 1_555 1_555
H23_8 C31_8 1_555 1_555
O4_4 C26_8 1_555 1_555
C21_4 C22_4 1_555 1_555
C30_8 C31_8 1_555 1_555
N3_5 C13_5 1_555 1_555
N6_5 C21_5 1_555 1_555
C8_5 C9_5 1_555 1_555
C9_5 C10_5 1_555 1_555
C10_5 H5_5 1_555 1_555
C11_5 C10_5 1_555 1_555
H6_5 C11_5 1_555 1_555
C12_5 C11_5 1_555 1_555
H7_5 C12_5 1_555 1_555
C13_5 C12_5 1_555 1_555
C14_5 C9_5 1_555 1_555
H8_5 C14_5 1_555 1_555
C15_5 H9_5 1_555 1_555
H10_5 C15_5 1_555 1_555
H11_5 C15_5 1_555 1_555
C16_5 N3_5 1_555 1_555
C17_5 C16_5 1_555 1_555
H12_5 C17_5 1_555 1_555
C18_5 C17_5 1_555 1_555
C19_5 C18_5 1_555 1_555
C20_5 C19_5 1_555 1_555
H13_5 C20_5 1_555 1_555
C21_5 H14_5 1_555 1_555
C22_5 C20_5 1_555 1_555
H15_5 C22_5 1_555 1_555
C13_5 C14_5 1_555 1_555
C15_5 C16_5 1_555 1_555
C21_5 C22_5 1_555 1_555
N1_5 N2_5 1_555 1_555
N4_3 C6_5 1_555 1_555
C1_5 N1_5 1_555 1_555
C2_5 C1_5 1_555 1_555
C3_5 C2_5 1_555 1_555
H1_5 C3_5 1_555 1_555
C4_5 C3_5 1_555 1_555
H2_5 C4_5 1_555 1_555
C5_5 C4_5 1_555 1_555
H3_5 C5_5 1_555 1_555
C6_5 C5_5 1_555 1_555
C7_5 C2_5 1_555 1_555
H4_5 C7_5 1_555 1_555
C23_5 H16_5 1_555 1_555
H18_5 C23_5 1_555 1_555
O1_5 C1_5 1_555 1_555
C6_5 C7_5 1_555 1_555
N6_6 C21_6 1_555 1_555
C19_6 C18_6 1_555 1_555
C20_6 C19_6 1_555 1_555
H13_6 C20_6 1_555 1_555
C21_6 H14_6 1_555 1_555
C22_6 C20_6 1_555 1_555
H15_6 C22_6 1_555 1_555
C32_5 N6_6 1_555 1_555
H24_5 C32_5 1_555 1_555
C18_6 O2_5 1_555 1_555
C19_6 C32_5 1_555 1_555
C21_6 C22_6 1_555 1_555
N6_7 C21_7 1_555 1_555
C19_7 C18_7 1_555 1_555
C20_7 C19_7 1_555 1_555
H13_7 C20_7 1_555 1_555
C21_7 H14_7 1_555 1_555
C22_7 C20_7 1_555 1_555
H15_7 C22_7 1_555 1_555
C32_6 N6_7 1_555 1_555
H24_6 C32_6 1_555 1_555
C18_7 O2_6 1_555 1_555
C19_7 C32_6 1_555 1_555
C21_7 C22_7 1_555 1_555
N1_6 N2_6 1_555 1_555
N7_3 C6_6 1_555 1_555
C1_6 N1_6 1_555 1_555
C2_6 C1_6 1_555 1_555
C3_6 C2_6 1_555 1_555
H1_6 C3_6 1_555 1_555
C4_6 C3_6 1_555 1_555
H2_6 C4_6 1_555 1_555
C5_6 C4_6 1_555 1_555
H3_6 C5_6 1_555 1_555
C6_6 C5_6 1_555 1_555
C7_6 C2_6 1_555 1_555
H4_6 C7_6 1_555 1_555
C23_6 H16_6 1_555 1_555
H18_6 C23_6 1_555 1_555
O1_6 C1_6 1_555 1_555
C6_6 C7_6 1_555 1_555
N1_7 N2_7 1_555 1_555
N2_7 C8_6 1_555 1_555
N3_6 C13_6 1_555 1_555
N4_4 C6_7 1_555 1_555
C1_7 N1_7 1_555 1_555
C2_7 C1_7 1_555 1_555
C3_7 C2_7 1_555 1_555
H1_7 C3_7 1_555 1_555
C4_7 C3_7 1_555 1_555
H2_7 C4_7 1_555 1_555
C5_7 C4_7 1_555 1_555
H3_7 C5_7 1_555 1_555
C6_7 C5_7 1_555 1_555
C7_7 C2_7 1_555 1_555
H4_7 C7_7 1_555 1_555
C8_6 C9_6 1_555 1_555
C9_6 C10_6 1_555 1_555
C10_6 H5_6 1_555 1_555
C11_6 C10_6 1_555 1_555
H6_6 C11_6 1_555 1_555
C12_6 C11_6 1_555 1_555
H7_6 C12_6 1_555 1_555
C13_6 C12_6 1_555 1_555
C14_6 C9_6 1_555 1_555
H8_6 C14_6 1_555 1_555
C15_6 H9_6 1_555 1_555
H10_6 C15_6 1_555 1_555
H11_6 C15_6 1_555 1_555
C16_6 N3_6 1_555 1_555
C17_6 C16_6 1_555 1_555
C23_7 H16_7 1_555 1_555
H18_7 C23_7 1_555 1_555
O1_7 C1_7 1_555 1_555
C6_7 C7_7 1_555 1_555
C8_6 O1_7 1_555 1_555
C13_6 C14_6 1_555 1_555
C15_6 C16_6 1_555 1_555
H24_7 C32_7 1_555 1_555
H24_8 C32_8 1_555 1_555
N1_8 N2_8 1_555 1_555
N2_8 C8_7 1_555 1_555
N3_7 C13_7 1_555 1_555
N7_4 C6_8 1_555 1_555
C1_8 N1_8 1_555 1_555
C2_8 C1_8 1_555 1_555
C3_8 C2_8 1_555 1_555
H1_8 C3_8 1_555 1_555
C4_8 C3_8 1_555 1_555
H2_8 C4_8 1_555 1_555
C5_8 C4_8 1_555 1_555
H3_8 C5_8 1_555 1_555
C6_8 C5_8 1_555 1_555
C7_8 C2_8 1_555 1_555
H4_8 C7_8 1_555 1_555
C8_7 C9_7 1_555 1_555
C9_7 C10_7 1_555 1_555
C10_7 H5_7 1_555 1_555
C11_7 C10_7 1_555 1_555
H6_7 C11_7 1_555 1_555
C12_7 C11_7 1_555 1_555
H7_7 C12_7 1_555 1_555
C13_7 C12_7 1_555 1_555
C14_7 C9_7 1_555 1_555
H8_7 C14_7 1_555 1_555
C15_7 H9_7 1_555 1_555
H10_7 C15_7 1_555 1_555
H11_7 C15_7 1_555 1_555
C16_7 N3_7 1_555 1_555
C17_7 C16_7 1_555 1_555
C23_8 H16_8 1_555 1_555
H18_8 C23_8 1_555 1_555
O1_8 C1_8 1_555 1_555
C6_8 C7_8 1_555 1_555
C8_7 O1_8 1_555 1_555
C13_7 C14_7 1_555 1_555
C15_7 C16_7 1_555 1_555
N3_8 C13_8 1_555 1_555
N6_8 C21_8 1_555 1_555
C8_8 C9_8 1_555 1_555
C9_8 C10_8 1_555 1_555
C10_8 H5_8 1_555 1_555
C11_8 C10_8 1_555 1_555
H6_8 C11_8 1_555 1_555
C12_8 C11_8 1_555 1_555
H7_8 C12_8 1_555 1_555
C13_8 C12_8 1_555 1_555
C14_8 C9_8 1_555 1_555
H8_8 C14_8 1_555 1_555
C15_8 H9_8 1_555 1_555
H10_8 C15_8 1_555 1_555
H11_8 C15_8 1_555 1_555
C16_8 N3_8 1_555 1_555
C17_8 C16_8 1_555 1_555
H12_8 C17_8 1_555 1_555
C18_8 C17_8 1_555 1_555
C19_8 C18_8 1_555 1_555
C20_8 C19_8 1_555 1_555
H13_8 C20_8 1_555 1_555
C21_8 H14_8 1_555 1_555
C22_8 C20_8 1_555 1_555
H15_8 C22_8 1_555 1_555
C13_8 C14_8 1_555 1_555
C15_8 C16_8 1_555 1_555
C21_8 C22_8 1_555 1_555

#END
