
###############################################################################
#
# This file contains modified crystal structure data generated from the
# MOF subset of the Cambridge Structural Database (CSD) v543 
# hosted by the Cambridge Crystallographic Data Centre (CCDC).
#
# This work is licensed under the Creative Commons
# Attribution-NonCommercial-ShareAlike 4.0 International License.
# To view a copy of this license, visit
# http://creativecommons.org/licenses/by-nc-sa/4.0/
# or send a letter to
# Creative Commons, PO Box 1866, Mountain View, CA 94042, USA.
#
# CIF created using the CSD Python API on 29 September 2022
# The structure has been converted into the P1 space group
# The structure has a 3D framework
# The original CSD entry YOQKEX13 is in the monoclinic crystal system
# The framework has been calculated to contain at least 10.0% void space
# The void calculation uses a probe of radius 1.32A, grid spacing 0.4
#
###############################################################################

data_YOQKEX13
_chemical_formula_moiety         '(C128 H80 Au16 Fe8 N80)n'
_symmetry_cell_setting           triclinic
_symmetry_space_group_name_H-M   'P 1'
_symmetry_Int_Tables_number      1
_space_group_name_Hall           'P 1'
loop_
_symmetry_equiv_pos_site_id
_symmetry_equiv_pos_as_xyz
1 x,y,z
_cell_length_a                   31.708(2)
_cell_length_b                   12.8368(8)
_cell_length_c                   16.4515(10)
_cell_angle_alpha                90
_cell_angle_beta                 111.936(2)
_cell_angle_gamma                90
_cell_volume                     6211.45
loop_
_atom_site_label
_atom_site_type_symbol
_atom_site_fract_x
_atom_site_fract_y
_atom_site_fract_z
H8 H 0.4792 0.0827 0.0010
Fe3 Fe 0.05392(2) 0.75021(5) 0.03097(5)
Fe4 Fe 0.55392(2) 0.25021(5) 0.03097(5)
Au1 Au 0.05513(2) 0.49664(2) 0.78645(2)
Au2 Au 0.05061(2) 0.01836(2) 0.26590(2)
Fe1 Fe 0.05392(2) 0.24979(5) 0.53097(5)
N1 N 0.05281(16) 0.3570(3) 0.6305(3)
N2 N 0.05586(16) 0.1455(4) 0.4309(3)
N3 N 0.12721(15) 0.2280(3) 0.6021(3)
N4 N 0.28192(17) 0.0660(4) 0.7415(4)
N5 N 0.32811(18) 0.0645(4) 0.7880(4)
N6 N 0.30403(16) 0.2250(4) 0.7831(3)
N7 N 0.30418(16) 0.3321(4) 0.8003(4)
H1 H 0.2892 0.3686 0.7485
H2 H 0.2889 0.3409 0.8364
N8 N 0.47997(16) 0.2268(3) 0.9605(3)
N9 N 0.06343(17) 0.6263(4) 0.9515(3)
C1 C 0.05316(19) 0.4100(4) 0.6859(4)
C2 C 0.05559(19) 0.1001(4) 0.3715(4)
C3 C 0.1451(2) 0.1331(4) 0.6081(4)
H3 H 0.1254 0.0771 0.5801
C4 C 0.1902(2) 0.1115(4) 0.6524(4)
H4 H 0.2011 0.0422 0.6547
C5 C 0.22012(19) 0.1911(4) 0.6938(4)
C6 C 0.2020(2) 0.2897(4) 0.6878(4)
H5 H 0.2210 0.3471 0.7149
C7 C 0.15610(19) 0.3042(4) 0.6422(4)
H6 H 0.1443 0.3728 0.6391
C8 C 0.2678(2) 0.1621(4) 0.7385(4)
C9 C 0.3407(2) 0.1610(4) 0.8119(4)
C10 C 0.38819(19) 0.1882(4) 0.8631(4)
C11 C 0.4161(2) 0.1135(4) 0.9164(4)
H7 H 0.4042 0.0465 0.9203
C12 C 0.4609(2) 0.1353(4) 0.9639(4)
C13 C 0.4532(2) 0.2994(5) 0.9090(4)
H9 H 0.4661 0.3654 0.9062
C14 C 0.4080(2) 0.2840(5) 0.8596(5)
H10 H 0.3903 0.3383 0.8235
C15 C 0.0605(2) 0.5798(4) 0.8914(4)
N12 N 0.06343(17) 0.3737(4) 0.4515(3)
N13 N 0.04362(17) 0.1230(3) 0.6069(3)
N10 N 0.04362(17) 0.8770(3) 0.1069(3)
C16 C 0.04605(18) 0.9313(4) 0.1628(4)
N11 N 0.97997(16) 0.2732(3) 0.4605(3)
N9_2 N 0.56343(17) 0.1263(4) 0.9515(3)
C15_2 C 0.5605(2) 0.0798(4) 0.8914(4)
Au1_2 Au 0.55513(2) 0.99664(2) 0.78645(2)
Au2_2 Au 0.55061(2) 0.51836(2) 0.26590(2)
Fe1_2 Fe 0.55392(2) 0.74979(5) 0.53097(5)
N1_2 N 0.55281(16) 0.8570(3) 0.6305(3)
N2_2 N 0.55586(16) 0.6455(4) 0.4309(3)
N3_2 N 0.62721(15) 0.7280(3) 0.6021(3)
N4_2 N 0.78192(17) 0.5660(4) 0.7415(4)
N5_2 N 0.82811(18) 0.5645(4) 0.7880(4)
N6_2 N 0.80403(16) 0.7250(4) 0.7831(3)
N7_2 N 0.80418(16) 0.8321(4) 0.8003(4)
H1_2 H 0.7892 0.8686 0.7485
H2_2 H 0.7889 0.8409 0.8364
N8_2 N 0.97997(16) 0.7268(3) 0.9605(3)
N10_2 N 0.54362(17) 0.3770(3) 0.1069(3)
C1_2 C 0.55316(19) 0.9100(4) 0.6859(4)
C2_2 C 0.55559(19) 0.6001(4) 0.3715(4)
C3_2 C 0.6451(2) 0.6331(4) 0.6081(4)
H3_2 H 0.6254 0.5771 0.5801
C4_2 C 0.6902(2) 0.6115(4) 0.6524(4)
H4_2 H 0.7011 0.5422 0.6547
C5_2 C 0.72012(19) 0.6911(4) 0.6938(4)
C6_2 C 0.7020(2) 0.7897(4) 0.6878(4)
H5_2 H 0.7210 0.8471 0.7149
C7_2 C 0.65610(19) 0.8042(4) 0.6422(4)
H6_2 H 0.6443 0.8728 0.6391
C8_2 C 0.7678(2) 0.6621(4) 0.7385(4)
C9_2 C 0.8407(2) 0.6610(4) 0.8119(4)
C10_2 C 0.88819(19) 0.6882(4) 0.8631(4)
C11_2 C 0.9161(2) 0.6135(4) 0.9164(4)
H7_2 H 0.9042 0.5465 0.9203
C12_2 C 0.9609(2) 0.6353(4) 0.9639(4)
C13_2 C 0.9532(2) 0.7994(5) 0.9090(4)
H9_2 H 0.9661 0.8654 0.9062
C14_2 C 0.9080(2) 0.7840(5) 0.8596(5)
H10_2 H 0.8903 0.8383 0.8235
C16_2 C 0.54605(18) 0.4313(4) 0.1628(4)
N11_2 N 0.47997(16) 0.7732(3) 0.4605(3)
N12_2 N 0.56343(17) 0.8737(4) 0.4515(3)
N13_2 N 0.54362(17) 0.6230(3) 0.6069(3)
C16_3 C 0.04605(18) 0.0687(4) 0.6628(4)
Au1_3 Au 0.05513(2) 0.50336(2) 0.28645(2)
N1_3 N 0.05281(16) 0.6430(3) 0.1305(3)
N3_3 N 0.12721(15) 0.7720(3) 0.1021(3)
N4_3 N 0.28192(17) 0.9340(4) 0.2415(4)
N5_3 N 0.32811(18) 0.9355(4) 0.2880(4)
N6_3 N 0.30403(16) 0.7750(4) 0.2831(3)
N7_3 N 0.30418(16) 0.6679(4) 0.3003(4)
H1_3 H 0.2892 0.6314 0.2485
H2_3 H 0.2889 0.6591 0.3364
C1_3 C 0.05316(19) 0.5900(4) 0.1859(4)
C3_3 C 0.1451(2) 0.8669(4) 0.1081(4)
H3_3 H 0.1254 0.9229 0.0801
C4_3 C 0.1902(2) 0.8885(4) 0.1524(4)
H4_3 H 0.2011 0.9578 0.1547
C5_3 C 0.22012(19) 0.8089(4) 0.1938(4)
C6_3 C 0.2020(2) 0.7103(4) 0.1878(4)
H5_3 H 0.2210 0.6529 0.2149
C7_3 C 0.15610(19) 0.6958(4) 0.1422(4)
H6_3 H 0.1443 0.6272 0.1391
C8_3 C 0.2678(2) 0.8379(4) 0.2385(4)
C9_3 C 0.3407(2) 0.8390(4) 0.3119(4)
C10_3 C 0.38819(19) 0.8118(4) 0.3631(4)
C11_3 C 0.4161(2) 0.8865(4) 0.4164(4)
H7_3 H 0.4042 0.9535 0.4203
C12_3 C 0.4609(2) 0.8647(4) 0.4639(4)
H8_2 H 0.4792 0.9173 0.5010
C13_3 C 0.4532(2) 0.7006(5) 0.4090(4)
H9_3 H 0.4661 0.6346 0.4062
C14_3 C 0.4080(2) 0.7160(5) 0.3596(5)
H10_3 H 0.3903 0.6617 0.3235
C15_3 C 0.0605(2) 0.4202(4) 0.3914(4)
Au2_3 Au 0.05061(2) 0.98164(2) 0.76590(2)
N2_3 N 0.05586(16) 0.8545(4) 0.9309(3)
C2_3 C 0.05559(19) 0.8999(4) 0.8715(4)
Au1_4 Au 0.55513(2) 0.00336(2) 0.28645(2)
N1_4 N 0.55281(16) 0.1430(3) 0.1305(3)
N3_4 N 0.62721(15) 0.2720(3) 0.1021(3)
N4_4 N 0.78192(17) 0.4340(4) 0.2415(4)
N5_4 N 0.82811(18) 0.4355(4) 0.2880(4)
N6_4 N 0.80403(16) 0.2750(4) 0.2831(3)
N7_4 N 0.80418(16) 0.1679(4) 0.3003(4)
H1_4 H 0.7892 0.1314 0.2485
H2_4 H 0.7889 0.1591 0.3364
C1_4 C 0.55316(19) 0.0900(4) 0.1859(4)
C3_4 C 0.6451(2) 0.3669(4) 0.1081(4)
H3_4 H 0.6254 0.4229 0.0801
C4_4 C 0.6902(2) 0.3885(4) 0.1524(4)
H4_4 H 0.7011 0.4578 0.1547
C5_4 C 0.72012(19) 0.3089(4) 0.1938(4)
C6_4 C 0.7020(2) 0.2103(4) 0.1878(4)
H5_4 H 0.7210 0.1529 0.2149
C7_4 C 0.65610(19) 0.1958(4) 0.1422(4)
H6_4 H 0.6443 0.1272 0.1391
C8_4 C 0.7678(2) 0.3379(4) 0.2385(4)
C9_4 C 0.8407(2) 0.3390(4) 0.3119(4)
C10_4 C 0.88819(19) 0.3118(4) 0.3631(4)
C11_4 C 0.9161(2) 0.3865(4) 0.4164(4)
H7_4 H 0.9042 0.4535 0.4203
C12_4 C 0.9609(2) 0.3647(4) 0.4639(4)
H8_3 H 0.9792 0.4173 0.5010
C13_4 C 0.9532(2) 0.2006(5) 0.4090(4)
H9_4 H 0.9661 0.1346 0.4062
C14_4 C 0.9080(2) 0.2160(5) 0.3596(5)
H10_4 H 0.8903 0.1617 0.3235
Au2_4 Au 0.55061(2) 0.48164(2) 0.76590(2)
N2_4 N 0.55586(16) 0.3545(4) 0.9309(3)
C2_4 C 0.55559(19) 0.3999(4) 0.8715(4)
C16_4 C 0.54605(18) 0.5687(4) 0.6628(4)
C15_4 C 0.5605(2) 0.9202(4) 0.3914(4)
N11_3 N 0.02003(16) 0.2732(3) 0.0395(3)
Au2_5 Au 0.94939(2) 0.01836(2) 0.23410(2)
N2_5 N 0.94414(16) 0.1455(4) 0.0691(3)
C2_5 C 0.94441(19) 0.1001(4) 0.1285(4)
N12_3 N 0.93657(17) 0.3737(4) 0.0485(3)
Au1_5 Au 0.94487(2) 0.49664(2) 0.71355(2)
Fe1_3 Fe 0.94608(2) 0.24979(5) 0.96903(5)
N1_5 N 0.94719(16) 0.3570(3) 0.8695(3)
N3_5 N 0.87279(15) 0.2280(3) 0.8979(3)
N4_5 N 0.71808(17) 0.0660(4) 0.7585(4)
N5_5 N 0.67189(18) 0.0645(4) 0.7120(4)
N6_5 N 0.69597(16) 0.2250(4) 0.7169(3)
N7_5 N 0.69582(16) 0.3321(4) 0.6997(4)
H1_5 H 0.7108 0.3686 0.7515
H2_5 H 0.7111 0.3409 0.6636
N8_3 N 0.52003(16) 0.2268(3) 0.5395(3)
N9_3 N 0.93657(17) 0.6263(4) 0.5485(3)
C1_5 C 0.94684(19) 0.4100(4) 0.8141(4)
C3_5 C 0.8549(2) 0.1331(4) 0.8919(4)
H3_5 H 0.8746 0.0771 0.9199
C4_5 C 0.8098(2) 0.1115(4) 0.8476(4)
H4_5 H 0.7989 0.0422 0.8453
C5_5 C 0.77988(19) 0.1911(4) 0.8062(4)
C6_5 C 0.7980(2) 0.2897(4) 0.8122(4)
H5_5 H 0.7790 0.3471 0.7851
C7_5 C 0.84390(19) 0.3042(4) 0.8578(4)
H6_5 H 0.8557 0.3728 0.8609
C8_5 C 0.7322(2) 0.1621(4) 0.7615(4)
C9_5 C 0.6593(2) 0.1610(4) 0.6881(4)
C10_5 C 0.61181(19) 0.1882(4) 0.6369(4)
C11_5 C 0.5839(2) 0.1135(4) 0.5836(4)
H7_5 H 0.5958 0.0465 0.5797
C12_5 C 0.5391(2) 0.1353(4) 0.5361(4)
H8_4 H 0.5208 0.0827 0.4990
C13_5 C 0.5468(2) 0.2994(5) 0.5910(4)
H9_5 H 0.5339 0.3654 0.5938
C14_5 C 0.5920(2) 0.2840(5) 0.6404(5)
H10_5 H 0.6097 0.3383 0.6765
C15_5 C 0.9395(2) 0.5798(4) 0.6086(4)
Fe3_2 Fe 0.94608(2) 0.75021(5) 0.46903(5)
Fe4_2 Fe 0.44608(2) 0.25021(5) 0.46903(5)
N13_3 N 0.95638(17) 0.1230(3) 0.8931(3)
N10_3 N 0.95638(17) 0.8770(3) 0.3931(3)
C16_5 C 0.95395(18) 0.9313(4) 0.3372(4)
N9_4 N 0.43657(17) 0.1263(4) 0.5485(3)
C15_6 C 0.4395(2) 0.0798(4) 0.6086(4)
Au2_6 Au 0.44939(2) 0.51836(2) 0.23410(2)
N2_6 N 0.44414(16) 0.6455(4) 0.0691(3)
N10_4 N 0.45638(17) 0.3770(3) 0.3931(3)
C2_6 C 0.44441(19) 0.6001(4) 0.1285(4)
C16_6 C 0.45395(18) 0.4313(4) 0.3372(4)
N11_4 N 0.52003(16) 0.7732(3) 0.0395(3)
N12_4 N 0.43657(17) 0.8737(4) 0.0485(3)
Au1_6 Au 0.44487(2) 0.99664(2) 0.71355(2)
Fe1_4 Fe 0.44608(2) 0.74979(5) 0.96903(5)
N1_6 N 0.44719(16) 0.8570(3) 0.8695(3)
N3_6 N 0.37279(15) 0.7280(3) 0.8979(3)
N4_6 N 0.21808(17) 0.5660(4) 0.7585(4)
N5_6 N 0.17189(18) 0.5645(4) 0.7120(4)
N6_6 N 0.19597(16) 0.7250(4) 0.7169(3)
N7_6 N 0.19582(16) 0.8321(4) 0.6997(4)
H1_6 H 0.2108 0.8686 0.7515
H2_6 H 0.2111 0.8409 0.6636
N8_4 N 0.02003(16) 0.7268(3) 0.5395(3)
C1_6 C 0.44684(19) 0.9100(4) 0.8141(4)
C3_6 C 0.3549(2) 0.6331(4) 0.8919(4)
H3_6 H 0.3746 0.5771 0.9199
C4_6 C 0.3098(2) 0.6115(4) 0.8476(4)
H4_6 H 0.2989 0.5422 0.8453
C5_6 C 0.27988(19) 0.6911(4) 0.8062(4)
C6_6 C 0.2980(2) 0.7897(4) 0.8122(4)
H5_6 H 0.2790 0.8471 0.7851
C7_6 C 0.34390(19) 0.8042(4) 0.8578(4)
H6_6 H 0.3557 0.8728 0.8609
C8_6 C 0.2322(2) 0.6621(4) 0.7615(4)
C9_6 C 0.1593(2) 0.6610(4) 0.6881(4)
C10_6 C 0.11181(19) 0.6882(4) 0.6369(4)
C11_6 C 0.0839(2) 0.6135(4) 0.5836(4)
H7_6 H 0.0958 0.5465 0.5797
C12_6 C 0.0391(2) 0.6353(4) 0.5361(4)
H8_5 H 0.0208 0.5827 0.4990
C13_6 C 0.0468(2) 0.7994(5) 0.5910(4)
H9_6 H 0.0339 0.8654 0.5938
C14_6 C 0.0920(2) 0.7840(5) 0.6404(5)
H10_6 H 0.1097 0.8383 0.6765
N13_4 N 0.45638(17) 0.6230(3) 0.8931(3)
C16_7 C 0.95395(18) 0.0687(4) 0.8372(4)
Au1_7 Au 0.94487(2) 0.50336(2) 0.21355(2)
Au2_7 Au 0.94939(2) 0.98164(2) 0.73410(2)
N1_7 N 0.94719(16) 0.6430(3) 0.3695(3)
N2_7 N 0.94414(16) 0.8545(4) 0.5691(3)
N3_7 N 0.87279(15) 0.7720(3) 0.3979(3)
N4_7 N 0.71808(17) 0.9340(4) 0.2585(4)
N5_7 N 0.67189(18) 0.9355(4) 0.2120(4)
N6_7 N 0.69597(16) 0.7750(4) 0.2169(3)
N7_7 N 0.69582(16) 0.6679(4) 0.1997(4)
H1_7 H 0.7108 0.6314 0.2515
H2_7 H 0.7111 0.6591 0.1636
C1_7 C 0.94684(19) 0.5900(4) 0.3141(4)
C2_7 C 0.94441(19) 0.8999(4) 0.6285(4)
C3_7 C 0.8549(2) 0.8669(4) 0.3919(4)
H3_7 H 0.8746 0.9229 0.4199
C4_7 C 0.8098(2) 0.8885(4) 0.3476(4)
H4_7 H 0.7989 0.9578 0.3453
C5_7 C 0.77988(19) 0.8089(4) 0.3062(4)
C6_7 C 0.7980(2) 0.7103(4) 0.3122(4)
H5_7 H 0.7790 0.6529 0.2851
C7_7 C 0.84390(19) 0.6958(4) 0.3578(4)
H6_7 H 0.8557 0.6272 0.3609
C8_7 C 0.7322(2) 0.8379(4) 0.2615(4)
C9_7 C 0.6593(2) 0.8390(4) 0.1881(4)
C10_7 C 0.61181(19) 0.8118(4) 0.1369(4)
C11_7 C 0.5839(2) 0.8865(4) 0.0836(4)
H7_7 H 0.5958 0.9535 0.0797
C12_7 C 0.5391(2) 0.8647(4) 0.0361(4)
C13_7 C 0.5468(2) 0.7006(5) 0.0910(4)
H9_7 H 0.5339 0.6346 0.0938
C14_7 C 0.5920(2) 0.7160(5) 0.1404(5)
H10_7 H 0.6097 0.6617 0.1765
C15_7 C 0.9395(2) 0.4202(4) 0.1086(4)
H8_6 H 0.5208 0.9173 0.9990
Au1_8 Au 0.44487(2) 0.00336(2) 0.21355(2)
Au2_8 Au 0.44939(2) 0.48164(2) 0.73410(2)
N1_8 N 0.44719(16) 0.1430(3) 0.3695(3)
N2_8 N 0.44414(16) 0.3545(4) 0.5691(3)
N3_8 N 0.37279(15) 0.2720(3) 0.3979(3)
N4_8 N 0.21808(17) 0.4340(4) 0.2585(4)
N5_8 N 0.17189(18) 0.4355(4) 0.2120(4)
N6_8 N 0.19597(16) 0.2750(4) 0.2169(3)
N7_8 N 0.19582(16) 0.1679(4) 0.1997(4)
H1_8 H 0.2108 0.1314 0.2515
H2_8 H 0.2111 0.1591 0.1636
C1_8 C 0.44684(19) 0.0900(4) 0.3141(4)
C2_8 C 0.44441(19) 0.3999(4) 0.6285(4)
C3_8 C 0.3549(2) 0.3669(4) 0.3919(4)
H3_8 H 0.3746 0.4229 0.4199
C4_8 C 0.3098(2) 0.3885(4) 0.3476(4)
H4_8 H 0.2989 0.4578 0.3453
C5_8 C 0.27988(19) 0.3089(4) 0.3062(4)
C6_8 C 0.2980(2) 0.2103(4) 0.3122(4)
H5_8 H 0.2790 0.1529 0.2851
C7_8 C 0.34390(19) 0.1958(4) 0.3578(4)
H6_8 H 0.3557 0.1272 0.3609
C8_8 C 0.2322(2) 0.3379(4) 0.2615(4)
C9_8 C 0.1593(2) 0.3390(4) 0.1881(4)
C10_8 C 0.11181(19) 0.3118(4) 0.1369(4)
C11_8 C 0.0839(2) 0.3865(4) 0.0836(4)
H7_8 H 0.0958 0.4535 0.0797
C12_8 C 0.0391(2) 0.3647(4) 0.0361(4)
C13_8 C 0.0468(2) 0.2006(5) 0.0910(4)
H9_8 H 0.0339 0.1346 0.0938
C14_8 C 0.0920(2) 0.2160(5) 0.1404(5)
H10_8 H 0.1097 0.1617 0.1765
C16_8 C 0.45395(18) 0.5687(4) 0.8372(4)
C15_8 C 0.4395(2) 0.9202(4) 0.1086(4)
H8_7 H 0.9792 0.5827 0.0010
H8_8 H 0.0208 0.4173 0.9990
loop_
_geom_bond_atom_site_label_1
_geom_bond_atom_site_label_2
_geom_bond_site_symmetry_1
_geom_bond_site_symmetry_2
Au1 C1 1_555 1_555
Au2 C2 1_555 1_555
Fe1 N1 1_555 1_555
N1 C1 1_555 1_555
N2 Fe1 1_555 1_555
N3 Fe1 1_555 1_555
N4 N5 1_555 1_555
N5 C9 1_555 1_555
N6 N7 1_555 1_555
N7 H1 1_555 1_555
H2 N7 1_555 1_555
N8 C12 1_555 1_555
N9 C15 1_555 1_555
C2 N2 1_555 1_555
C3 N3 1_555 1_555
H3 C3 1_555 1_555
C4 C3 1_555 1_555
H4 C4 1_555 1_555
C5 C4 1_555 1_555
C6 C5 1_555 1_555
H5 C6 1_555 1_555
C7 N3 1_555 1_555
H6 C7 1_555 1_555
C8 N4 1_555 1_555
C9 N6 1_555 1_555
C10 C9 1_555 1_555
C11 C10 1_555 1_555
H7 C11 1_555 1_555
C12 C11 1_555 1_555
C13 N8 1_555 1_555
H9 C13 1_555 1_555
C14 C10 1_555 1_555
H10 C14 1_555 1_555
C15 Au1 1_555 1_555
N12 Fe1 1_555 1_555
N13 Fe1 1_555 1_555
N6 C8 1_555 1_555
C5 C8 1_555 1_555
C6 C7 1_555 1_555
C13 C14 1_555 1_555
N10 C16 1_555 1_555
Fe3 N10 1_555 1_555
N9_2 C15_2 1_555 1_555
Au1_2 C1_2 1_555 1_555
Au2_2 C2_2 1_555 1_555
Fe1_2 N1_2 1_555 1_555
N1_2 C1_2 1_555 1_555
N2_2 Fe1_2 1_555 1_555
N3_2 Fe1_2 1_555 1_555
N4_2 N5_2 1_555 1_555
N5_2 C9_2 1_555 1_555
N6_2 N7_2 1_555 1_555
N7_2 H1_2 1_555 1_555
H2_2 N7_2 1_555 1_555
N8_2 C12_2 1_555 1_555
N10_2 C16_2 1_555 1_555
C2_2 N2_2 1_555 1_555
C3_2 N3_2 1_555 1_555
H3_2 C3_2 1_555 1_555
C4_2 C3_2 1_555 1_555
H4_2 C4_2 1_555 1_555
C5_2 C4_2 1_555 1_555
C6_2 C5_2 1_555 1_555
H5_2 C6_2 1_555 1_555
C7_2 N3_2 1_555 1_555
H6_2 C7_2 1_555 1_555
C8_2 N4_2 1_555 1_555
C9_2 N6_2 1_555 1_555
C10_2 C9_2 1_555 1_555
C11_2 C10_2 1_555 1_555
H7_2 C11_2 1_555 1_555
C12_2 C11_2 1_555 1_555
C13_2 N8_2 1_555 1_555
H9_2 C13_2 1_555 1_555
C14_2 C10_2 1_555 1_555
H10_2 C14_2 1_555 1_555
C16_2 Au2_2 1_555 1_555
Fe4 N10_2 1_555 1_555
N11_2 Fe1_2 1_555 1_555
N12_2 Fe1_2 1_555 1_555
N13_2 Fe1_2 1_555 1_555
N6_2 C8_2 1_555 1_555
C5_2 C8_2 1_555 1_555
C6_2 C7_2 1_555 1_555
C13_2 C14_2 1_555 1_555
N13 C16_3 1_555 1_555
Au1_3 C1_3 1_555 1_555
Fe3 N1_3 1_555 1_555
N1_3 C1_3 1_555 1_555
N3_3 Fe3 1_555 1_555
N4_3 N5_3 1_555 1_555
N5_3 C9_3 1_555 1_555
N6_3 N7_3 1_555 1_555
N7_3 H1_3 1_555 1_555
H2_3 N7_3 1_555 1_555
N11_2 C12_3 1_555 1_555
N12 C15_3 1_555 1_555
C3_3 N3_3 1_555 1_555
H3_3 C3_3 1_555 1_555
C4_3 C3_3 1_555 1_555
H4_3 C4_3 1_555 1_555
C5_3 C4_3 1_555 1_555
C6_3 C5_3 1_555 1_555
H5_3 C6_3 1_555 1_555
C7_3 N3_3 1_555 1_555
H6_3 C7_3 1_555 1_555
C8_3 N4_3 1_555 1_555
C9_3 N6_3 1_555 1_555
C10_3 C9_3 1_555 1_555
C11_3 C10_3 1_555 1_555
H7_3 C11_3 1_555 1_555
C12_3 C11_3 1_555 1_555
H8_2 C12_3 1_555 1_555
C13_3 N11_2 1_555 1_555
H9_3 C13_3 1_555 1_555
C14_3 C10_3 1_555 1_555
H10_3 C14_3 1_555 1_555
C15_3 Au1_3 1_555 1_555
N6_3 C8_3 1_555 1_555
C5_3 C8_3 1_555 1_555
C6_3 C7_3 1_555 1_555
C13_3 C14_3 1_555 1_555
Au2_3 C2_3 1_555 1_555
C2_3 N2_3 1_555 1_555
Au1_4 C1_4 1_555 1_555
Fe4 N1_4 1_555 1_555
N1_4 C1_4 1_555 1_555
N3_4 Fe4 1_555 1_555
N4_4 N5_4 1_555 1_555
N5_4 C9_4 1_555 1_555
N6_4 N7_4 1_555 1_555
N7_4 H1_4 1_555 1_555
H2_4 N7_4 1_555 1_555
N11 C12_4 1_555 1_555
C3_4 N3_4 1_555 1_555
H3_4 C3_4 1_555 1_555
C4_4 C3_4 1_555 1_555
H4_4 C4_4 1_555 1_555
C5_4 C4_4 1_555 1_555
C6_4 C5_4 1_555 1_555
H5_4 C6_4 1_555 1_555
C7_4 N3_4 1_555 1_555
H6_4 C7_4 1_555 1_555
C8_4 N4_4 1_555 1_555
C9_4 N6_4 1_555 1_555
C10_4 C9_4 1_555 1_555
C11_4 C10_4 1_555 1_555
H7_4 C11_4 1_555 1_555
C12_4 C11_4 1_555 1_555
H8_3 C12_4 1_555 1_555
C13_4 N11 1_555 1_555
H9_4 C13_4 1_555 1_555
C14_4 C10_4 1_555 1_555
H10_4 C14_4 1_555 1_555
N6_4 C8_4 1_555 1_555
C5_4 C8_4 1_555 1_555
C6_4 C7_4 1_555 1_555
C13_4 C14_4 1_555 1_555
Au2_4 C2_4 1_555 1_555
N13_2 C16_4 1_555 1_555
C2_4 N2_4 1_555 1_555
C16_4 Au2_4 1_555 1_555
N12_2 C15_4 1_555 1_555
Au2_5 C2_5 1_555 1_555
C2_5 N2_5 1_555 1_555
Au1_5 C1_5 1_555 1_555
Fe1_3 N1_5 1_555 1_555
N1_5 C1_5 1_555 1_555
N3_5 Fe1_3 1_555 1_555
N4_5 N5_5 1_555 1_555
N5_5 C9_5 1_555 1_555
N6_5 N7_5 1_555 1_555
N7_5 H1_5 1_555 1_555
H2_5 N7_5 1_555 1_555
N8_3 C12_5 1_555 1_555
N9_3 C15_5 1_555 1_555
C3_5 N3_5 1_555 1_555
H3_5 C3_5 1_555 1_555
C4_5 C3_5 1_555 1_555
H4_5 C4_5 1_555 1_555
C5_5 C4_5 1_555 1_555
C6_5 C5_5 1_555 1_555
H5_5 C6_5 1_555 1_555
C7_5 N3_5 1_555 1_555
H6_5 C7_5 1_555 1_555
C8_5 N4_5 1_555 1_555
C9_5 N6_5 1_555 1_555
C10_5 C9_5 1_555 1_555
C11_5 C10_5 1_555 1_555
H7_5 C11_5 1_555 1_555
C12_5 C11_5 1_555 1_555
H8_4 C12_5 1_555 1_555
C13_5 N8_3 1_555 1_555
H9_5 C13_5 1_555 1_555
C14_5 C10_5 1_555 1_555
H10_5 C14_5 1_555 1_555
C15_5 Au1_5 1_555 1_555
Fe3_2 N9_3 1_555 1_555
Fe4_2 N8_3 1_555 1_555
N13_3 Fe1_3 1_555 1_555
N6_5 C8_5 1_555 1_555
C5_5 C8_5 1_555 1_555
C6_5 C7_5 1_555 1_555
C13_5 C14_5 1_555 1_555
N10_3 C16_5 1_555 1_555
Fe3_2 N10_3 1_555 1_555
N9_4 C15_6 1_555 1_555
Fe4_2 N9_4 1_555 1_555
Au2_6 C2_6 1_555 1_555
N10_4 C16_6 1_555 1_555
C2_6 N2_6 1_555 1_555
C16_6 Au2_6 1_555 1_555
Fe4_2 N10_4 1_555 1_555
Au1_6 C1_6 1_555 1_555
Fe1_4 N1_6 1_555 1_555
N1_6 C1_6 1_555 1_555
N3_6 Fe1_4 1_555 1_555
N4_6 N5_6 1_555 1_555
N5_6 C9_6 1_555 1_555
N6_6 N7_6 1_555 1_555
N7_6 H1_6 1_555 1_555
H2_6 N7_6 1_555 1_555
N8_4 C12_6 1_555 1_555
C3_6 N3_6 1_555 1_555
H3_6 C3_6 1_555 1_555
C4_6 C3_6 1_555 1_555
H4_6 C4_6 1_555 1_555
C5_6 C4_6 1_555 1_555
C6_6 C5_6 1_555 1_555
H5_6 C6_6 1_555 1_555
C7_6 N3_6 1_555 1_555
H6_6 C7_6 1_555 1_555
C8_6 N4_6 1_555 1_555
C9_6 N6_6 1_555 1_555
C10_6 C9_6 1_555 1_555
C11_6 C10_6 1_555 1_555
H7_6 C11_6 1_555 1_555
C12_6 C11_6 1_555 1_555
H8_5 C12_6 1_555 1_555
C13_6 N8_4 1_555 1_555
H9_6 C13_6 1_555 1_555
C14_6 C10_6 1_555 1_555
H10_6 C14_6 1_555 1_555
N13_4 Fe1_4 1_555 1_555
N6_6 C8_6 1_555 1_555
C5_6 C8_6 1_555 1_555
C6_6 C7_6 1_555 1_555
C13_6 C14_6 1_555 1_555
N13_3 C16_7 1_555 1_555
Au1_7 C1_7 1_555 1_555
Au2_7 C2_7 1_555 1_555
Fe3_2 N1_7 1_555 1_555
N1_7 C1_7 1_555 1_555
N2_7 Fe3_2 1_555 1_555
N3_7 Fe3_2 1_555 1_555
N4_7 N5_7 1_555 1_555
N5_7 C9_7 1_555 1_555
N6_7 N7_7 1_555 1_555
N7_7 H1_7 1_555 1_555
H2_7 N7_7 1_555 1_555
N11_4 C12_7 1_555 1_555
N12_3 C15_7 1_555 1_555
C2_7 N2_7 1_555 1_555
C3_7 N3_7 1_555 1_555
H3_7 C3_7 1_555 1_555
C4_7 C3_7 1_555 1_555
H4_7 C4_7 1_555 1_555
C5_7 C4_7 1_555 1_555
C6_7 C5_7 1_555 1_555
H5_7 C6_7 1_555 1_555
C7_7 N3_7 1_555 1_555
H6_7 C7_7 1_555 1_555
C8_7 N4_7 1_555 1_555
C9_7 N6_7 1_555 1_555
C10_7 C9_7 1_555 1_555
C11_7 C10_7 1_555 1_555
H7_7 C11_7 1_555 1_555
C12_7 C11_7 1_555 1_555
C13_7 N11_4 1_555 1_555
H9_7 C13_7 1_555 1_555
C14_7 C10_7 1_555 1_555
H10_7 C14_7 1_555 1_555
C15_7 Au1_7 1_555 1_555
N6_7 C8_7 1_555 1_555
C5_7 C8_7 1_555 1_555
C6_7 C7_7 1_555 1_555
C13_7 C14_7 1_555 1_555
Au1_8 C1_8 1_555 1_555
Au2_8 C2_8 1_555 1_555
Fe4_2 N1_8 1_555 1_555
N1_8 C1_8 1_555 1_555
N2_8 Fe4_2 1_555 1_555
N3_8 Fe4_2 1_555 1_555
N4_8 N5_8 1_555 1_555
N5_8 C9_8 1_555 1_555
N6_8 N7_8 1_555 1_555
N7_8 H1_8 1_555 1_555
H2_8 N7_8 1_555 1_555
N11_3 C12_8 1_555 1_555
N13_4 C16_8 1_555 1_555
C2_8 N2_8 1_555 1_555
C3_8 N3_8 1_555 1_555
H3_8 C3_8 1_555 1_555
C4_8 C3_8 1_555 1_555
H4_8 C4_8 1_555 1_555
C5_8 C4_8 1_555 1_555
C6_8 C5_8 1_555 1_555
H5_8 C6_8 1_555 1_555
C7_8 N3_8 1_555 1_555
H6_8 C7_8 1_555 1_555
C8_8 N4_8 1_555 1_555
C9_8 N6_8 1_555 1_555
C10_8 C9_8 1_555 1_555
C11_8 C10_8 1_555 1_555
H7_8 C11_8 1_555 1_555
C12_8 C11_8 1_555 1_555
C13_8 N11_3 1_555 1_555
H9_8 C13_8 1_555 1_555
C14_8 C10_8 1_555 1_555
H10_8 C14_8 1_555 1_555
C16_8 Au2_8 1_555 1_555
N6_8 C8_8 1_555 1_555
C5_8 C8_8 1_555 1_555
C6_8 C7_8 1_555 1_555
C13_8 C14_8 1_555 1_555
N12_4 C15_8 1_555 1_555

#END
