
###############################################################################
#
# This file contains modified crystal structure data generated from the
# MOF subset of the Cambridge Structural Database (CSD) v543 
# hosted by the Cambridge Crystallographic Data Centre (CCDC).
#
# This work is licensed under the Creative Commons
# Attribution-NonCommercial-ShareAlike 4.0 International License.
# To view a copy of this license, visit
# http://creativecommons.org/licenses/by-nc-sa/4.0/
# or send a letter to
# Creative Commons, PO Box 1866, Mountain View, CA 94042, USA.
#
# CIF created using the CSD Python API on 29 September 2022
# The structure has been converted into the P1 space group
# The structure has a 3D framework
# The original CSD entry YOQKEX is in the monoclinic crystal system
# The framework has been calculated to contain at least 10.0% void space
# The void calculation uses a probe of radius 1.32A, grid spacing 0.4
#
###############################################################################

data_YOQKEX
_chemical_formula_moiety         '(C128 H80 Au16 Fe8 N80)n'
_symmetry_cell_setting           triclinic
_symmetry_space_group_name_H-M   'P 1'
_symmetry_Int_Tables_number      1
_space_group_name_Hall           'P 1'
loop_
_symmetry_equiv_pos_site_id
_symmetry_equiv_pos_as_xyz
1 x,y,z
_cell_length_a                   31.8296(12)
_cell_length_b                   12.8950(5)
_cell_length_c                   16.4738(6)
_cell_angle_alpha                90
_cell_angle_beta                 112.0410(10)
_cell_angle_gamma                90
_cell_volume                     6267.39
loop_
_atom_site_label
_atom_site_type_symbol
_atom_site_fract_x
_atom_site_fract_y
_atom_site_fract_z
H8 H 0.4790 0.0834 0.0004
Fe3 Fe 0.05392(2) 0.75021(5) 0.03096(5)
Fe4 Fe 0.55392(2) 0.25021(5) 0.03096(5)
Au1 Au 0.05513(2) 0.49663(2) 0.78645(2)
Au2 Au 0.05061(2) 0.01837(2) 0.26590(2)
Fe1 Fe 0.05392(2) 0.24979(5) 0.53096(5)
N1 N 0.05281(16) 0.3570(3) 0.6304(3)
N2 N 0.05591(16) 0.1455(4) 0.4308(3)
N3 N 0.12729(15) 0.2281(3) 0.6021(3)
N4 N 0.28188(17) 0.0660(4) 0.7415(4)
N5 N 0.32813(18) 0.0646(4) 0.7882(4)
N6 N 0.30406(15) 0.2251(3) 0.7831(3)
N7 N 0.30412(16) 0.3321(4) 0.8002(4)
H1 H 0.2892 0.3687 0.7485
H2 H 0.2888 0.3410 0.8363
N8 N 0.47994(16) 0.2268(3) 0.9605(3)
N9 N 0.06350(16) 0.6264(4) 0.9515(3)
C1 C 0.05317(19) 0.4101(4) 0.6859(4)
C2 C 0.05563(18) 0.1002(4) 0.3715(4)
C3 C 0.1452(2) 0.1331(4) 0.6082(4)
H3 H 0.1257 0.0780 0.5805
C4 C 0.1902(2) 0.1115(4) 0.6525(4)
H4 H 0.2009 0.0432 0.6550
C5 C 0.22012(19) 0.1911(4) 0.6939(4)
C6 C 0.2020(2) 0.2896(4) 0.6878(4)
H5 H 0.2207 0.3461 0.7146
C7 C 0.15612(19) 0.3042(4) 0.6421(4)
H6 H 0.1445 0.3718 0.6389
C8 C 0.26782(19) 0.1621(4) 0.7384(4)
C9 C 0.3408(2) 0.1610(4) 0.8119(4)
C10 C 0.38824(18) 0.1882(4) 0.8632(4)
C11 C 0.41608(19) 0.1135(4) 0.9164(4)
H7 H 0.4044 0.0475 0.9202
C12 C 0.4608(2) 0.1354(4) 0.9638(4)
C13 C 0.4532(2) 0.2993(5) 0.9091(4)
H9 H 0.4659 0.3645 0.9064
C14 C 0.4080(2) 0.2838(5) 0.8595(5)
H10 H 0.3906 0.3371 0.8236
C15 C 0.06042(19) 0.5798(4) 0.8914(4)
N12 N 0.06350(16) 0.3736(4) 0.4515(3)
N13 N 0.04357(17) 0.1231(3) 0.6069(3)
N10 N 0.04357(17) 0.8769(3) 0.1069(3)
C16 C 0.04606(18) 0.9314(4) 0.1629(4)
Au3 Au 0.94939(2) 0.01837(2) 0.23410(2)
N11 N 0.97994(16) 0.2732(3) 0.4605(3)
N11_2 N 0.02006(16) 0.2732(3) 0.0395(3)
N2_2 N 0.94409(16) 0.1455(4) 0.0692(3)
C2_2 C 0.94437(18) 0.1002(4) 0.1285(4)
N12_2 N 0.93650(16) 0.3736(4) 0.0485(3)
Au1_2 Au 0.94487(2) 0.49663(2) 0.71355(2)
Fe1_2 Fe 0.94608(2) 0.24979(5) 0.96904(5)
N1_2 N 0.94719(16) 0.3570(3) 0.8696(3)
N3_2 N 0.87271(15) 0.2281(3) 0.8979(3)
N4_2 N 0.71812(17) 0.0660(4) 0.7585(4)
N5_2 N 0.67187(18) 0.0646(4) 0.7118(4)
N6_2 N 0.69594(15) 0.2251(3) 0.7169(3)
N7_2 N 0.69588(16) 0.3321(4) 0.6998(4)
H1_2 H 0.7108 0.3687 0.7515
H2_2 H 0.7112 0.3410 0.6637
N8_2 N 0.52006(16) 0.2268(3) 0.5395(3)
N9_2 N 0.93650(16) 0.6264(4) 0.5485(3)
C1_2 C 0.94683(19) 0.4101(4) 0.8141(4)
C3_2 C 0.8548(2) 0.1331(4) 0.8918(4)
H3_2 H 0.8743 0.0780 0.9195
C4_2 C 0.8098(2) 0.1115(4) 0.8475(4)
H4_2 H 0.7991 0.0432 0.8450
C5_2 C 0.77988(19) 0.1911(4) 0.8061(4)
C6_2 C 0.7980(2) 0.2896(4) 0.8122(4)
H5_2 H 0.7793 0.3461 0.7854
C7_2 C 0.84388(19) 0.3042(4) 0.8579(4)
H6_2 H 0.8555 0.3718 0.8611
C8_2 C 0.73218(19) 0.1621(4) 0.7616(4)
C9_2 C 0.6592(2) 0.1610(4) 0.6881(4)
C10_2 C 0.61176(18) 0.1882(4) 0.6368(4)
C11_2 C 0.58392(19) 0.1135(4) 0.5836(4)
H7_2 H 0.5956 0.0475 0.5798
C12_2 C 0.5392(2) 0.1354(4) 0.5362(4)
H8_2 H 0.5210 0.0834 0.4996
C13_2 C 0.5468(2) 0.2993(5) 0.5909(4)
H9_2 H 0.5341 0.3645 0.5936
C14_2 C 0.5920(2) 0.2838(5) 0.6405(5)
H10_2 H 0.6094 0.3371 0.6764
C15_2 C 0.93958(19) 0.5798(4) 0.6086(4)
Fe3_2 Fe 0.94608(2) 0.75021(5) 0.46904(5)
Fe4_2 Fe 0.44608(2) 0.25021(5) 0.46904(5)
N13_2 N 0.95643(17) 0.1231(3) 0.8931(3)
N10_2 N 0.95643(17) 0.8769(3) 0.3931(3)
C16_2 C 0.95394(18) 0.9314(4) 0.3371(4)
N9_3 N 0.56350(16) 0.1264(4) 0.9515(3)
C15_3 C 0.56042(19) 0.0798(4) 0.8914(4)
Au1_3 Au 0.55513(2) 0.99663(2) 0.78645(2)
Au2_2 Au 0.55061(2) 0.51837(2) 0.26590(2)
Fe1_3 Fe 0.55392(2) 0.74979(5) 0.53096(5)
N1_3 N 0.55281(16) 0.8570(3) 0.6304(3)
N2_3 N 0.55591(16) 0.6455(4) 0.4308(3)
N3_3 N 0.62729(15) 0.7281(3) 0.6021(3)
N4_3 N 0.78188(17) 0.5660(4) 0.7415(4)
N5_3 N 0.82813(18) 0.5646(4) 0.7882(4)
N6_3 N 0.80406(15) 0.7251(3) 0.7831(3)
N7_3 N 0.80412(16) 0.8321(4) 0.8002(4)
H1_3 H 0.7892 0.8687 0.7485
H2_3 H 0.7888 0.8410 0.8363
N8_3 N 0.97994(16) 0.7268(3) 0.9605(3)
N10_3 N 0.54357(17) 0.3769(3) 0.1069(3)
C1_3 C 0.55317(19) 0.9101(4) 0.6859(4)
C2_3 C 0.55563(18) 0.6002(4) 0.3715(4)
C3_3 C 0.6452(2) 0.6331(4) 0.6082(4)
H3_3 H 0.6257 0.5780 0.5805
C4_3 C 0.6902(2) 0.6115(4) 0.6525(4)
H4_3 H 0.7009 0.5432 0.6550
C5_3 C 0.72012(19) 0.6911(4) 0.6939(4)
C6_3 C 0.7020(2) 0.7896(4) 0.6878(4)
H5_3 H 0.7207 0.8461 0.7146
C7_3 C 0.65612(19) 0.8042(4) 0.6421(4)
H6_3 H 0.6445 0.8718 0.6389
C8_3 C 0.76782(19) 0.6621(4) 0.7384(4)
C9_3 C 0.8408(2) 0.6610(4) 0.8119(4)
C10_3 C 0.88824(18) 0.6882(4) 0.8632(4)
C11_3 C 0.91608(19) 0.6135(4) 0.9164(4)
H7_3 H 0.9044 0.5475 0.9202
C12_3 C 0.9608(2) 0.6354(4) 0.9638(4)
C13_3 C 0.9532(2) 0.7993(5) 0.9091(4)
H9_3 H 0.9659 0.8645 0.9064
C14_3 C 0.9080(2) 0.7838(5) 0.8595(5)
H10_3 H 0.8906 0.8371 0.8236
C16_3 C 0.54606(18) 0.4314(4) 0.1629(4)
Au3_2 Au 0.44939(2) 0.51837(2) 0.23410(2)
N11_3 N 0.47994(16) 0.7732(3) 0.4605(3)
N12_3 N 0.56350(16) 0.8736(4) 0.4515(3)
N13_3 N 0.54357(17) 0.6231(3) 0.6069(3)
N9_4 N 0.43650(16) 0.1264(4) 0.5485(3)
C15_4 C 0.43958(19) 0.0798(4) 0.6086(4)
N2_4 N 0.44409(16) 0.6455(4) 0.0692(3)
N10_4 N 0.45643(17) 0.3769(3) 0.3931(3)
C2_4 C 0.44437(18) 0.6002(4) 0.1285(4)
C16_4 C 0.45394(18) 0.4314(4) 0.3371(4)
N11_4 N 0.52006(16) 0.7732(3) 0.0395(3)
N12_4 N 0.43650(16) 0.8736(4) 0.0485(3)
Au1_4 Au 0.44487(2) 0.99663(2) 0.71355(2)
Fe1_4 Fe 0.44608(2) 0.74979(5) 0.96904(5)
N1_4 N 0.44719(16) 0.8570(3) 0.8696(3)
N3_4 N 0.37271(15) 0.7281(3) 0.8979(3)
N4_4 N 0.21812(17) 0.5660(4) 0.7585(4)
N5_4 N 0.17187(18) 0.5646(4) 0.7118(4)
N6_4 N 0.19594(15) 0.7251(3) 0.7169(3)
N7_4 N 0.19588(16) 0.8321(4) 0.6998(4)
H1_4 H 0.2108 0.8687 0.7515
H2_4 H 0.2112 0.8410 0.6637
N8_4 N 0.02006(16) 0.7268(3) 0.5395(3)
C1_4 C 0.44683(19) 0.9101(4) 0.8141(4)
C3_4 C 0.3548(2) 0.6331(4) 0.8918(4)
H3_4 H 0.3743 0.5780 0.9195
C4_4 C 0.3098(2) 0.6115(4) 0.8475(4)
H4_4 H 0.2991 0.5432 0.8450
C5_4 C 0.27988(19) 0.6911(4) 0.8061(4)
C6_4 C 0.2980(2) 0.7896(4) 0.8122(4)
H5_4 H 0.2793 0.8461 0.7854
C7_4 C 0.34388(19) 0.8042(4) 0.8579(4)
H6_4 H 0.3555 0.8718 0.8611
C8_4 C 0.23218(19) 0.6621(4) 0.7616(4)
C9_4 C 0.1592(2) 0.6610(4) 0.6881(4)
C10_4 C 0.11176(18) 0.6882(4) 0.6368(4)
C11_4 C 0.08392(19) 0.6135(4) 0.5836(4)
H7_4 H 0.0956 0.5475 0.5798
C12_4 C 0.0392(2) 0.6354(4) 0.5362(4)
H8_3 H 0.0210 0.5834 0.4996
C13_4 C 0.0468(2) 0.7993(5) 0.5909(4)
H9_4 H 0.0341 0.8645 0.5936
C14_4 C 0.0920(2) 0.7838(5) 0.6405(5)
H10_4 H 0.1094 0.8371 0.6764
N13_4 N 0.45643(17) 0.6231(3) 0.8931(3)
Au3_3 Au 0.05061(2) 0.98163(2) 0.76590(2)
C16_5 C 0.95394(18) 0.0686(4) 0.8371(4)
Au1_5 Au 0.94487(2) 0.50337(2) 0.21355(2)
Au2_3 Au 0.94939(2) 0.98163(2) 0.73410(2)
N1_5 N 0.94719(16) 0.6430(3) 0.3696(3)
N2_5 N 0.94409(16) 0.8545(4) 0.5692(3)
N3_5 N 0.87271(15) 0.7719(3) 0.3979(3)
N4_5 N 0.71812(17) 0.9340(4) 0.2585(4)
N5_5 N 0.67187(18) 0.9354(4) 0.2118(4)
N6_5 N 0.69594(15) 0.7749(3) 0.2169(3)
N7_5 N 0.69588(16) 0.6679(4) 0.1998(4)
H1_5 H 0.7108 0.6313 0.2515
H2_5 H 0.7112 0.6590 0.1637
C1_5 C 0.94683(19) 0.5899(4) 0.3141(4)
C2_5 C 0.94437(18) 0.8998(4) 0.6285(4)
C3_5 C 0.8548(2) 0.8669(4) 0.3918(4)
H3_5 H 0.8743 0.9220 0.4195
C4_5 C 0.8098(2) 0.8885(4) 0.3475(4)
H4_5 H 0.7991 0.9568 0.3450
C5_5 C 0.77988(19) 0.8089(4) 0.3061(4)
C6_5 C 0.7980(2) 0.7104(4) 0.3122(4)
H5_5 H 0.7793 0.6539 0.2854
C7_5 C 0.84388(19) 0.6958(4) 0.3579(4)
H6_5 H 0.8555 0.6282 0.3611
C8_5 C 0.73218(19) 0.8379(4) 0.2616(4)
C9_5 C 0.6592(2) 0.8390(4) 0.1881(4)
C10_5 C 0.61176(18) 0.8118(4) 0.1368(4)
C11_5 C 0.58392(19) 0.8865(4) 0.0836(4)
H7_5 H 0.5956 0.9525 0.0798
C12_5 C 0.5392(2) 0.8646(4) 0.0362(4)
C13_5 C 0.5468(2) 0.7007(5) 0.0909(4)
H9_5 H 0.5341 0.6355 0.0936
C14_5 C 0.5920(2) 0.7162(5) 0.1405(5)
H10_5 H 0.6094 0.6629 0.1764
C15_5 C 0.93958(19) 0.4202(4) 0.1086(4)
H8_4 H 0.5210 0.9166 0.9996
C16_6 C 0.04606(18) 0.0686(4) 0.6629(4)
Au1_6 Au 0.05513(2) 0.50337(2) 0.28645(2)
N1_6 N 0.05281(16) 0.6430(3) 0.1304(3)
N3_6 N 0.12729(15) 0.7719(3) 0.1021(3)
N4_6 N 0.28188(17) 0.9340(4) 0.2415(4)
N5_6 N 0.32813(18) 0.9354(4) 0.2882(4)
N6_6 N 0.30406(15) 0.7749(3) 0.2831(3)
N7_6 N 0.30412(16) 0.6679(4) 0.3002(4)
H1_6 H 0.2892 0.6313 0.2485
H2_6 H 0.2888 0.6590 0.3363
C1_6 C 0.05317(19) 0.5899(4) 0.1859(4)
C3_6 C 0.1452(2) 0.8669(4) 0.1082(4)
H3_6 H 0.1257 0.9220 0.0805
C4_6 C 0.1902(2) 0.8885(4) 0.1525(4)
H4_6 H 0.2009 0.9568 0.1550
C5_6 C 0.22012(19) 0.8089(4) 0.1939(4)
C6_6 C 0.2020(2) 0.7104(4) 0.1878(4)
H5_6 H 0.2207 0.6539 0.2146
C7_6 C 0.15612(19) 0.6958(4) 0.1421(4)
H6_6 H 0.1445 0.6282 0.1389
C8_6 C 0.26782(19) 0.8379(4) 0.2384(4)
C9_6 C 0.3408(2) 0.8390(4) 0.3119(4)
C10_6 C 0.38824(18) 0.8118(4) 0.3632(4)
C11_6 C 0.41608(19) 0.8865(4) 0.4164(4)
H7_6 H 0.4044 0.9525 0.4202
C12_6 C 0.4608(2) 0.8646(4) 0.4638(4)
H8_5 H 0.4790 0.9166 0.5004
C13_6 C 0.4532(2) 0.7007(5) 0.4091(4)
H9_6 H 0.4659 0.6355 0.4064
C14_6 C 0.4080(2) 0.7162(5) 0.3595(5)
H10_6 H 0.3906 0.6629 0.3236
C15_6 C 0.06042(19) 0.4202(4) 0.3914(4)
N2_6 N 0.05591(16) 0.8545(4) 0.9308(3)
C2_6 C 0.05563(18) 0.8998(4) 0.8715(4)
Au1_7 Au 0.44487(2) 0.00337(2) 0.21355(2)
Au2_4 Au 0.44939(2) 0.48163(2) 0.73410(2)
N1_7 N 0.44719(16) 0.1430(3) 0.3696(3)
N2_7 N 0.44409(16) 0.3545(4) 0.5692(3)
N3_7 N 0.37271(15) 0.2719(3) 0.3979(3)
N4_7 N 0.21812(17) 0.4340(4) 0.2585(4)
N5_7 N 0.17187(18) 0.4354(4) 0.2118(4)
N6_7 N 0.19594(15) 0.2749(3) 0.2169(3)
N7_7 N 0.19588(16) 0.1679(4) 0.1998(4)
H1_7 H 0.2108 0.1313 0.2515
H2_7 H 0.2112 0.1590 0.1637
C1_7 C 0.44683(19) 0.0899(4) 0.3141(4)
C2_7 C 0.44437(18) 0.3998(4) 0.6285(4)
C3_7 C 0.3548(2) 0.3669(4) 0.3918(4)
H3_7 H 0.3743 0.4220 0.4195
C4_7 C 0.3098(2) 0.3885(4) 0.3475(4)
H4_7 H 0.2991 0.4568 0.3450
C5_7 C 0.27988(19) 0.3089(4) 0.3061(4)
C6_7 C 0.2980(2) 0.2104(4) 0.3122(4)
H5_7 H 0.2793 0.1539 0.2854
C7_7 C 0.34388(19) 0.1958(4) 0.3579(4)
H6_7 H 0.3555 0.1282 0.3611
C8_7 C 0.23218(19) 0.3379(4) 0.2616(4)
C9_7 C 0.1592(2) 0.3390(4) 0.1881(4)
C10_7 C 0.11176(18) 0.3118(4) 0.1368(4)
C11_7 C 0.08392(19) 0.3865(4) 0.0836(4)
H7_7 H 0.0956 0.4525 0.0798
C12_7 C 0.0392(2) 0.3646(4) 0.0362(4)
C13_7 C 0.0468(2) 0.2007(5) 0.0909(4)
H9_7 H 0.0341 0.1355 0.0936
C14_7 C 0.0920(2) 0.2162(5) 0.1405(5)
H10_7 H 0.1094 0.1629 0.1764
C16_7 C 0.45394(18) 0.5686(4) 0.8371(4)
Au3_4 Au 0.55061(2) 0.48163(2) 0.76590(2)
C15_7 C 0.43958(19) 0.9202(4) 0.1086(4)
Au1_8 Au 0.55513(2) 0.00337(2) 0.28645(2)
N1_8 N 0.55281(16) 0.1430(3) 0.1304(3)
N3_8 N 0.62729(15) 0.2719(3) 0.1021(3)
N4_8 N 0.78188(17) 0.4340(4) 0.2415(4)
N5_8 N 0.82813(18) 0.4354(4) 0.2882(4)
N6_8 N 0.80406(15) 0.2749(3) 0.2831(3)
N7_8 N 0.80412(16) 0.1679(4) 0.3002(4)
H1_8 H 0.7892 0.1313 0.2485
H2_8 H 0.7888 0.1590 0.3363
C1_8 C 0.55317(19) 0.0899(4) 0.1859(4)
C3_8 C 0.6452(2) 0.3669(4) 0.1082(4)
H3_8 H 0.6257 0.4220 0.0805
C4_8 C 0.6902(2) 0.3885(4) 0.1525(4)
H4_8 H 0.7009 0.4568 0.1550
C5_8 C 0.72012(19) 0.3089(4) 0.1939(4)
C6_8 C 0.7020(2) 0.2104(4) 0.1878(4)
H5_8 H 0.7207 0.1539 0.2146
C7_8 C 0.65612(19) 0.1958(4) 0.1421(4)
H6_8 H 0.6445 0.1282 0.1389
C8_8 C 0.76782(19) 0.3379(4) 0.2384(4)
C9_8 C 0.8408(2) 0.3390(4) 0.3119(4)
C10_8 C 0.88824(18) 0.3118(4) 0.3632(4)
C11_8 C 0.91608(19) 0.3865(4) 0.4164(4)
H7_8 H 0.9044 0.4525 0.4202
C12_8 C 0.9608(2) 0.3646(4) 0.4638(4)
H8_6 H 0.9790 0.4166 0.5004
C13_8 C 0.9532(2) 0.2007(5) 0.4091(4)
H9_8 H 0.9659 0.1355 0.4064
C14_8 C 0.9080(2) 0.2162(5) 0.3595(5)
H10_8 H 0.8906 0.1629 0.3236
N2_8 N 0.55591(16) 0.3545(4) 0.9308(3)
C2_8 C 0.55563(18) 0.3998(4) 0.8715(4)
C16_8 C 0.54606(18) 0.5686(4) 0.6629(4)
C15_8 C 0.56042(19) 0.9202(4) 0.3914(4)
H8_7 H 0.9790 0.5834 0.0004
H8_8 H 0.0210 0.4166 0.9996
loop_
_geom_bond_atom_site_label_1
_geom_bond_atom_site_label_2
_geom_bond_site_symmetry_1
_geom_bond_site_symmetry_2
Au1 C1 1_555 1_555
Au2 C2 1_555 1_555
Fe1 N1 1_555 1_555
N1 C1 1_555 1_555
N2 Fe1 1_555 1_555
N3 Fe1 1_555 1_555
N4 N5 1_555 1_555
N5 C9 1_555 1_555
N6 N7 1_555 1_555
N7 H1 1_555 1_555
H2 N7 1_555 1_555
N8 C12 1_555 1_555
N9 C15 1_555 1_555
C2 N2 1_555 1_555
C3 N3 1_555 1_555
H3 C3 1_555 1_555
C4 C3 1_555 1_555
H4 C4 1_555 1_555
C5 C4 1_555 1_555
C6 C5 1_555 1_555
H5 C6 1_555 1_555
C7 N3 1_555 1_555
H6 C7 1_555 1_555
C8 N4 1_555 1_555
C9 N6 1_555 1_555
C10 C9 1_555 1_555
C11 C10 1_555 1_555
H7 C11 1_555 1_555
C12 C11 1_555 1_555
C13 N8 1_555 1_555
H9 C13 1_555 1_555
C14 C10 1_555 1_555
H10 C14 1_555 1_555
C15 Au1 1_555 1_555
N12 Fe1 1_555 1_555
N13 Fe1 1_555 1_555
N6 C8 1_555 1_555
C5 C8 1_555 1_555
C6 C7 1_555 1_555
C13 C14 1_555 1_555
N10 C16 1_555 1_555
Fe3 N10 1_555 1_555
Au3 C2_2 1_555 1_555
C2_2 N2_2 1_555 1_555
Au1_2 C1_2 1_555 1_555
Fe1_2 N1_2 1_555 1_555
N1_2 C1_2 1_555 1_555
N3_2 Fe1_2 1_555 1_555
N4_2 N5_2 1_555 1_555
N5_2 C9_2 1_555 1_555
N6_2 N7_2 1_555 1_555
N7_2 H1_2 1_555 1_555
H2_2 N7_2 1_555 1_555
N8_2 C12_2 1_555 1_555
N9_2 C15_2 1_555 1_555
C3_2 N3_2 1_555 1_555
H3_2 C3_2 1_555 1_555
C4_2 C3_2 1_555 1_555
H4_2 C4_2 1_555 1_555
C5_2 C4_2 1_555 1_555
C6_2 C5_2 1_555 1_555
H5_2 C6_2 1_555 1_555
C7_2 N3_2 1_555 1_555
H6_2 C7_2 1_555 1_555
C8_2 N4_2 1_555 1_555
C9_2 N6_2 1_555 1_555
C10_2 C9_2 1_555 1_555
C11_2 C10_2 1_555 1_555
H7_2 C11_2 1_555 1_555
C12_2 C11_2 1_555 1_555
H8_2 C12_2 1_555 1_555
C13_2 N8_2 1_555 1_555
H9_2 C13_2 1_555 1_555
C14_2 C10_2 1_555 1_555
H10_2 C14_2 1_555 1_555
C15_2 Au1_2 1_555 1_555
Fe3_2 N9_2 1_555 1_555
Fe4_2 N8_2 1_555 1_555
N13_2 Fe1_2 1_555 1_555
N6_2 C8_2 1_555 1_555
C5_2 C8_2 1_555 1_555
C6_2 C7_2 1_555 1_555
C13_2 C14_2 1_555 1_555
N10_2 C16_2 1_555 1_555
Fe3_2 N10_2 1_555 1_555
N9_3 C15_3 1_555 1_555
Au1_3 C1_3 1_555 1_555
Au2_2 C2_3 1_555 1_555
Fe1_3 N1_3 1_555 1_555
N1_3 C1_3 1_555 1_555
N2_3 Fe1_3 1_555 1_555
N3_3 Fe1_3 1_555 1_555
N4_3 N5_3 1_555 1_555
N5_3 C9_3 1_555 1_555
N6_3 N7_3 1_555 1_555
N7_3 H1_3 1_555 1_555
H2_3 N7_3 1_555 1_555
N8_3 C12_3 1_555 1_555
N10_3 C16_3 1_555 1_555
C2_3 N2_3 1_555 1_555
C3_3 N3_3 1_555 1_555
H3_3 C3_3 1_555 1_555
C4_3 C3_3 1_555 1_555
H4_3 C4_3 1_555 1_555
C5_3 C4_3 1_555 1_555
C6_3 C5_3 1_555 1_555
H5_3 C6_3 1_555 1_555
C7_3 N3_3 1_555 1_555
H6_3 C7_3 1_555 1_555
C8_3 N4_3 1_555 1_555
C9_3 N6_3 1_555 1_555
C10_3 C9_3 1_555 1_555
C11_3 C10_3 1_555 1_555
H7_3 C11_3 1_555 1_555
C12_3 C11_3 1_555 1_555
C13_3 N8_3 1_555 1_555
H9_3 C13_3 1_555 1_555
C14_3 C10_3 1_555 1_555
H10_3 C14_3 1_555 1_555
C16_3 Au2_2 1_555 1_555
Au3_2 Au2_2 1_555 1_555
Fe4 N10_3 1_555 1_555
N11_3 Fe1_3 1_555 1_555
N12_3 Fe1_3 1_555 1_555
N13_3 Fe1_3 1_555 1_555
N6_3 C8_3 1_555 1_555
C5_3 C8_3 1_555 1_555
C6_3 C7_3 1_555 1_555
C13_3 C14_3 1_555 1_555
N9_4 C15_4 1_555 1_555
Fe4_2 N9_4 1_555 1_555
Au3_2 C2_4 1_555 1_555
N10_4 C16_4 1_555 1_555
C2_4 N2_4 1_555 1_555
C16_4 Au3_2 1_555 1_555
Fe4_2 N10_4 1_555 1_555
Au1_4 C1_4 1_555 1_555
Fe1_4 N1_4 1_555 1_555
N1_4 C1_4 1_555 1_555
N3_4 Fe1_4 1_555 1_555
N4_4 N5_4 1_555 1_555
N5_4 C9_4 1_555 1_555
N6_4 N7_4 1_555 1_555
N7_4 H1_4 1_555 1_555
H2_4 N7_4 1_555 1_555
N8_4 C12_4 1_555 1_555
C3_4 N3_4 1_555 1_555
H3_4 C3_4 1_555 1_555
C4_4 C3_4 1_555 1_555
H4_4 C4_4 1_555 1_555
C5_4 C4_4 1_555 1_555
C6_4 C5_4 1_555 1_555
H5_4 C6_4 1_555 1_555
C7_4 N3_4 1_555 1_555
H6_4 C7_4 1_555 1_555
C8_4 N4_4 1_555 1_555
C9_4 N6_4 1_555 1_555
C10_4 C9_4 1_555 1_555
C11_4 C10_4 1_555 1_555
H7_4 C11_4 1_555 1_555
C12_4 C11_4 1_555 1_555
H8_3 C12_4 1_555 1_555
C13_4 N8_4 1_555 1_555
H9_4 C13_4 1_555 1_555
C14_4 C10_4 1_555 1_555
H10_4 C14_4 1_555 1_555
N13_4 Fe1_4 1_555 1_555
N6_4 C8_4 1_555 1_555
C5_4 C8_4 1_555 1_555
C6_4 C7_4 1_555 1_555
C13_4 C14_4 1_555 1_555
N13_2 C16_5 1_555 1_555
Au1_5 C1_5 1_555 1_555
Au2_3 C2_5 1_555 1_555
Fe3_2 N1_5 1_555 1_555
N1_5 C1_5 1_555 1_555
N2_5 Fe3_2 1_555 1_555
N3_5 Fe3_2 1_555 1_555
N4_5 N5_5 1_555 1_555
N5_5 C9_5 1_555 1_555
N6_5 N7_5 1_555 1_555
N7_5 H1_5 1_555 1_555
H2_5 N7_5 1_555 1_555
N11_4 C12_5 1_555 1_555
N12_2 C15_5 1_555 1_555
C2_5 N2_5 1_555 1_555
C3_5 N3_5 1_555 1_555
H3_5 C3_5 1_555 1_555
C4_5 C3_5 1_555 1_555
H4_5 C4_5 1_555 1_555
C5_5 C4_5 1_555 1_555
C6_5 C5_5 1_555 1_555
H5_5 C6_5 1_555 1_555
C7_5 N3_5 1_555 1_555
H6_5 C7_5 1_555 1_555
C8_5 N4_5 1_555 1_555
C9_5 N6_5 1_555 1_555
C10_5 C9_5 1_555 1_555
C11_5 C10_5 1_555 1_555
H7_5 C11_5 1_555 1_555
C12_5 C11_5 1_555 1_555
C13_5 N11_4 1_555 1_555
H9_5 C13_5 1_555 1_555
C14_5 C10_5 1_555 1_555
H10_5 C14_5 1_555 1_555
C15_5 Au1_5 1_555 1_555
N6_5 C8_5 1_555 1_555
C5_5 C8_5 1_555 1_555
C6_5 C7_5 1_555 1_555
C13_5 C14_5 1_555 1_555
N13 C16_6 1_555 1_555
Au1_6 C1_6 1_555 1_555
Fe3 N1_6 1_555 1_555
N1_6 C1_6 1_555 1_555
N3_6 Fe3 1_555 1_555
N4_6 N5_6 1_555 1_555
N5_6 C9_6 1_555 1_555
N6_6 N7_6 1_555 1_555
N7_6 H1_6 1_555 1_555
H2_6 N7_6 1_555 1_555
N11_3 C12_6 1_555 1_555
N12 C15_6 1_555 1_555
C3_6 N3_6 1_555 1_555
H3_6 C3_6 1_555 1_555
C4_6 C3_6 1_555 1_555
H4_6 C4_6 1_555 1_555
C5_6 C4_6 1_555 1_555
C6_6 C5_6 1_555 1_555
H5_6 C6_6 1_555 1_555
C7_6 N3_6 1_555 1_555
H6_6 C7_6 1_555 1_555
C8_6 N4_6 1_555 1_555
C9_6 N6_6 1_555 1_555
C10_6 C9_6 1_555 1_555
C11_6 C10_6 1_555 1_555
H7_6 C11_6 1_555 1_555
C12_6 C11_6 1_555 1_555
H8_5 C12_6 1_555 1_555
C13_6 N11_3 1_555 1_555
H9_6 C13_6 1_555 1_555
C14_6 C10_6 1_555 1_555
H10_6 C14_6 1_555 1_555
C15_6 Au1_6 1_555 1_555
N6_6 C8_6 1_555 1_555
C5_6 C8_6 1_555 1_555
C6_6 C7_6 1_555 1_555
C13_6 C14_6 1_555 1_555
Au3_3 C2_6 1_555 1_555
C2_6 N2_6 1_555 1_555
Au1_7 C1_7 1_555 1_555
Au2_4 C2_7 1_555 1_555
Fe4_2 N1_7 1_555 1_555
N1_7 C1_7 1_555 1_555
N2_7 Fe4_2 1_555 1_555
N3_7 Fe4_2 1_555 1_555
N4_7 N5_7 1_555 1_555
N5_7 C9_7 1_555 1_555
N6_7 N7_7 1_555 1_555
N7_7 H1_7 1_555 1_555
H2_7 N7_7 1_555 1_555
N11_2 C12_7 1_555 1_555
N13_4 C16_7 1_555 1_555
C2_7 N2_7 1_555 1_555
C3_7 N3_7 1_555 1_555
H3_7 C3_7 1_555 1_555
C4_7 C3_7 1_555 1_555
H4_7 C4_7 1_555 1_555
C5_7 C4_7 1_555 1_555
C6_7 C5_7 1_555 1_555
H5_7 C6_7 1_555 1_555
C7_7 N3_7 1_555 1_555
H6_7 C7_7 1_555 1_555
C8_7 N4_7 1_555 1_555
C9_7 N6_7 1_555 1_555
C10_7 C9_7 1_555 1_555
C11_7 C10_7 1_555 1_555
H7_7 C11_7 1_555 1_555
C12_7 C11_7 1_555 1_555
C13_7 N11_2 1_555 1_555
H9_7 C13_7 1_555 1_555
C14_7 C10_7 1_555 1_555
H10_7 C14_7 1_555 1_555
C16_7 Au2_4 1_555 1_555
Au3_4 Au2_4 1_555 1_555
N6_7 C8_7 1_555 1_555
C5_7 C8_7 1_555 1_555
C6_7 C7_7 1_555 1_555
C13_7 C14_7 1_555 1_555
N12_4 C15_7 1_555 1_555
Au1_8 C1_8 1_555 1_555
Fe4 N1_8 1_555 1_555
N1_8 C1_8 1_555 1_555
N3_8 Fe4 1_555 1_555
N4_8 N5_8 1_555 1_555
N5_8 C9_8 1_555 1_555
N6_8 N7_8 1_555 1_555
N7_8 H1_8 1_555 1_555
H2_8 N7_8 1_555 1_555
N11 C12_8 1_555 1_555
C3_8 N3_8 1_555 1_555
H3_8 C3_8 1_555 1_555
C4_8 C3_8 1_555 1_555
H4_8 C4_8 1_555 1_555
C5_8 C4_8 1_555 1_555
C6_8 C5_8 1_555 1_555
H5_8 C6_8 1_555 1_555
C7_8 N3_8 1_555 1_555
H6_8 C7_8 1_555 1_555
C8_8 N4_8 1_555 1_555
C9_8 N6_8 1_555 1_555
C10_8 C9_8 1_555 1_555
C11_8 C10_8 1_555 1_555
H7_8 C11_8 1_555 1_555
C12_8 C11_8 1_555 1_555
H8_6 C12_8 1_555 1_555
C13_8 N11 1_555 1_555
H9_8 C13_8 1_555 1_555
C14_8 C10_8 1_555 1_555
H10_8 C14_8 1_555 1_555
N6_8 C8_8 1_555 1_555
C5_8 C8_8 1_555 1_555
C6_8 C7_8 1_555 1_555
C13_8 C14_8 1_555 1_555
Au3_4 C2_8 1_555 1_555
N13_3 C16_8 1_555 1_555
C2_8 N2_8 1_555 1_555
C16_8 Au3_4 1_555 1_555
N12_3 C15_8 1_555 1_555

#END
