
###############################################################################
#
# This file contains modified crystal structure data generated from the
# MOF subset of the Cambridge Structural Database (CSD) v543 
# hosted by the Cambridge Crystallographic Data Centre (CCDC).
#
# This work is licensed under the Creative Commons
# Attribution-NonCommercial-ShareAlike 4.0 International License.
# To view a copy of this license, visit
# http://creativecommons.org/licenses/by-nc-sa/4.0/
# or send a letter to
# Creative Commons, PO Box 1866, Mountain View, CA 94042, USA.
#
# CIF created using the CSD Python API on 29 September 2022
# The structure has been converted into the P1 space group
# The structure has a 3D framework
# The original CSD entry YOQKEX02 is in the monoclinic crystal system
# The framework has been calculated to contain at least 10.0% void space
# The void calculation uses a probe of radius 1.32A, grid spacing 0.4
#
###############################################################################

data_YOQKEX02
_chemical_formula_moiety         '(C128 H80 Au16 Fe8 N80)n'
_symmetry_cell_setting           triclinic
_symmetry_space_group_name_H-M   'P 1'
_symmetry_Int_Tables_number      1
_space_group_name_Hall           'P 1'
loop_
_symmetry_equiv_pos_site_id
_symmetry_equiv_pos_as_xyz
1 x,y,z
_cell_length_a                   31.6317(12)
_cell_length_b                   12.7723(5)
_cell_length_c                   15.7074(4)
_cell_angle_alpha                90
_cell_angle_beta                 113.5720(10)
_cell_angle_gamma                90
_cell_volume                     5816.42
loop_
_atom_site_label
_atom_site_type_symbol
_atom_site_fract_x
_atom_site_fract_y
_atom_site_fract_z
Fe3 Fe 0.05368(3) 0.74997(6) 0.03066(5)
Fe4 Fe 0.55368(3) 0.24997(6) 0.03066(5)
Au1 Au 0.05486(2) 0.49357(2) 0.78745(2)
Au2 Au 0.05028(2) 0.01693(2) 0.26591(2)
Fe1 Fe 0.05368(3) 0.25003(6) 0.53066(5)
N1 N 0.05379(17) 0.3472(4) 0.6260(3)
N2 N 0.05401(17) 0.1548(4) 0.4344(3)
N3 N 0.12201(17) 0.2333(4) 0.5966(3)
N4 N 0.28121(19) 0.0772(4) 0.7354(4)
N5 N 0.32812(19) 0.0760(4) 0.7830(4)
N6 N 0.30428(18) 0.2373(4) 0.7807(4)
N7 N 0.3040(2) 0.3455(4) 0.7983(5)
H1 H 0.2891 0.3820 0.7465
H2 H 0.2887 0.3543 0.8344
N8 N 0.48550(17) 0.2323(4) 0.9637(3)
N9 N 0.06064(17) 0.6377(4) 0.9532(3)
C1 C 0.0537(2) 0.4018(5) 0.6842(4)
C2 C 0.0545(2) 0.1050(4) 0.3739(4)
C3 C 0.1409(2) 0.1371(5) 0.6050(4)
H3 H 0.1210 0.0793 0.5786
C4 C 0.1873(2) 0.1186(5) 0.6499(5)
H4 H 0.1988 0.0493 0.6541
C5 C 0.2178(2) 0.2014(5) 0.6896(4)
C6 C 0.1987(2) 0.3014(5) 0.6816(4)
H5 H 0.2178 0.3605 0.7075
C7 C 0.1510(2) 0.3129(4) 0.6348(4)
H6 H 0.1383 0.3813 0.6299
C8 C 0.2668(2) 0.1747(5) 0.7344(5)
C9 C 0.3418(2) 0.1736(5) 0.8096(4)
C10 C 0.3903(2) 0.1998(5) 0.8620(4)
C11 C 0.4196(2) 0.1188(5) 0.9106(4)
H7 H 0.4076 0.0506 0.9105
C12 C 0.4659(2) 0.1377(5) 0.9587(4)
H8 H 0.4851 0.0809 0.9902
C13 C 0.4572(2) 0.3112(5) 0.9186(4)
H9 H 0.4701 0.3791 0.9221
C14 C 0.4102(2) 0.2984(5) 0.8671(4)
H10 H 0.3918 0.3564 0.8355
C15 C 0.0589(2) 0.5836(5) 0.8932(4)
N12 N 0.06064(17) 0.3623(4) 0.4532(3)
N13 N 0.04619(17) 0.1361(4) 0.6065(3)
N10 N 0.04619(17) 0.8639(4) 0.1065(3)
C16 C 0.0470(2) 0.9236(4) 0.1619(4)
N11 N 0.98550(17) 0.2677(4) 0.4637(3)
N9_2 N 0.56064(17) 0.1377(4) 0.9532(3)
C15_2 C 0.5589(2) 0.0836(5) 0.8932(4)
Au1_2 Au 0.55486(2) 0.99357(2) 0.78745(2)
Au2_2 Au 0.55028(2) 0.51693(2) 0.26591(2)
Fe1_2 Fe 0.55368(3) 0.75003(6) 0.53066(5)
N1_2 N 0.55379(17) 0.8472(4) 0.6260(3)
N2_2 N 0.55401(17) 0.6548(4) 0.4344(3)
N3_2 N 0.62201(17) 0.7333(4) 0.5966(3)
N4_2 N 0.78121(19) 0.5772(4) 0.7354(4)
N5_2 N 0.82812(19) 0.5760(4) 0.7830(4)
N6_2 N 0.80428(18) 0.7373(4) 0.7807(4)
N7_2 N 0.8040(2) 0.8455(4) 0.7983(5)
H1_2 H 0.7891 0.8820 0.7465
H2_2 H 0.7887 0.8543 0.8344
N8_2 N 0.98550(17) 0.7323(4) 0.9637(3)
N10_2 N 0.54619(17) 0.3639(4) 0.1065(3)
C1_2 C 0.5537(2) 0.9018(5) 0.6842(4)
C2_2 C 0.5545(2) 0.6050(4) 0.3739(4)
C3_2 C 0.6409(2) 0.6371(5) 0.6050(4)
H3_2 H 0.6210 0.5793 0.5786
C4_2 C 0.6873(2) 0.6186(5) 0.6499(5)
H4_2 H 0.6988 0.5493 0.6541
C5_2 C 0.7178(2) 0.7014(5) 0.6896(4)
C6_2 C 0.6987(2) 0.8014(5) 0.6816(4)
H5_2 H 0.7178 0.8605 0.7075
C7_2 C 0.6510(2) 0.8129(4) 0.6348(4)
H6_2 H 0.6383 0.8813 0.6299
C8_2 C 0.7668(2) 0.6747(5) 0.7344(5)
C9_2 C 0.8418(2) 0.6736(5) 0.8096(4)
C10_2 C 0.8903(2) 0.6998(5) 0.8620(4)
C11_2 C 0.9196(2) 0.6188(5) 0.9106(4)
H7_2 H 0.9076 0.5506 0.9105
C12_2 C 0.9659(2) 0.6377(5) 0.9587(4)
H8_2 H 0.9851 0.5809 0.9902
C13_2 C 0.9572(2) 0.8112(5) 0.9186(4)
H9_2 H 0.9701 0.8791 0.9221
C14_2 C 0.9102(2) 0.7984(5) 0.8671(4)
H10_2 H 0.8918 0.8564 0.8355
C16_2 C 0.5470(2) 0.4236(4) 0.1619(4)
N11_2 N 0.48550(17) 0.7677(4) 0.4637(3)
N12_2 N 0.56064(17) 0.8623(4) 0.4532(3)
N13_2 N 0.54619(17) 0.6361(4) 0.6065(3)
C16_3 C 0.0470(2) 0.0764(4) 0.6619(4)
Au1_3 Au 0.05486(2) 0.50643(2) 0.28745(2)
N1_3 N 0.05379(17) 0.6528(4) 0.1260(3)
N3_3 N 0.12201(17) 0.7667(4) 0.0966(3)
N4_3 N 0.28121(19) 0.9228(4) 0.2354(4)
N5_3 N 0.32812(19) 0.9240(4) 0.2830(4)
N6_3 N 0.30428(18) 0.7627(4) 0.2807(4)
N7_3 N 0.3040(2) 0.6545(4) 0.2983(5)
H1_3 H 0.2891 0.6180 0.2465
H2_3 H 0.2887 0.6457 0.3344
C1_3 C 0.0537(2) 0.5982(5) 0.1842(4)
C3_3 C 0.1409(2) 0.8629(5) 0.1050(4)
H3_3 H 0.1210 0.9207 0.0786
C4_3 C 0.1873(2) 0.8814(5) 0.1499(5)
H4_3 H 0.1988 0.9507 0.1541
C5_3 C 0.2178(2) 0.7986(5) 0.1896(4)
C6_3 C 0.1987(2) 0.6986(5) 0.1816(4)
H5_3 H 0.2178 0.6395 0.2075
C7_3 C 0.1510(2) 0.6871(4) 0.1348(4)
H6_3 H 0.1383 0.6187 0.1299
C8_3 C 0.2668(2) 0.8253(5) 0.2344(5)
C9_3 C 0.3418(2) 0.8264(5) 0.3096(4)
C10_3 C 0.3903(2) 0.8002(5) 0.3620(4)
C11_3 C 0.4196(2) 0.8812(5) 0.4106(4)
H7_3 H 0.4076 0.9494 0.4105
C12_3 C 0.4659(2) 0.8623(5) 0.4587(4)
H8_3 H 0.4851 0.9191 0.4902
C13_3 C 0.4572(2) 0.6888(5) 0.4186(4)
H9_3 H 0.4701 0.6209 0.4221
C14_3 C 0.4102(2) 0.7016(5) 0.3671(4)
H10_3 H 0.3918 0.6436 0.3355
C15_3 C 0.0589(2) 0.4164(5) 0.3932(4)
Au2_3 Au 0.05028(2) 0.98307(2) 0.76591(2)
N2_3 N 0.05401(17) 0.8452(4) 0.9344(3)
C2_3 C 0.0545(2) 0.8950(4) 0.8739(4)
Au1_4 Au 0.55486(2) 0.00643(2) 0.28745(2)
N1_4 N 0.55379(17) 0.1528(4) 0.1260(3)
N3_4 N 0.62201(17) 0.2667(4) 0.0966(3)
N4_4 N 0.78121(19) 0.4228(4) 0.2354(4)
N5_4 N 0.82812(19) 0.4240(4) 0.2830(4)
N6_4 N 0.80428(18) 0.2627(4) 0.2807(4)
N7_4 N 0.8040(2) 0.1545(4) 0.2983(5)
H1_4 H 0.7891 0.1180 0.2465
H2_4 H 0.7887 0.1457 0.3344
C1_4 C 0.5537(2) 0.0982(5) 0.1842(4)
C3_4 C 0.6409(2) 0.3629(5) 0.1050(4)
H3_4 H 0.6210 0.4207 0.0786
C4_4 C 0.6873(2) 0.3814(5) 0.1499(5)
H4_4 H 0.6988 0.4507 0.1541
C5_4 C 0.7178(2) 0.2986(5) 0.1896(4)
C6_4 C 0.6987(2) 0.1986(5) 0.1816(4)
H5_4 H 0.7178 0.1395 0.2075
C7_4 C 0.6510(2) 0.1871(4) 0.1348(4)
H6_4 H 0.6383 0.1187 0.1299
C8_4 C 0.7668(2) 0.3253(5) 0.2344(5)
C9_4 C 0.8418(2) 0.3264(5) 0.3096(4)
C10_4 C 0.8903(2) 0.3002(5) 0.3620(4)
C11_4 C 0.9196(2) 0.3812(5) 0.4106(4)
H7_4 H 0.9076 0.4494 0.4105
C12_4 C 0.9659(2) 0.3623(5) 0.4587(4)
H8_4 H 0.9851 0.4191 0.4902
C13_4 C 0.9572(2) 0.1888(5) 0.4186(4)
H9_4 H 0.9701 0.1209 0.4221
C14_4 C 0.9102(2) 0.2016(5) 0.3671(4)
H10_4 H 0.8918 0.1436 0.3355
Au2_4 Au 0.55028(2) 0.48307(2) 0.76591(2)
N2_4 N 0.55401(17) 0.3452(4) 0.9344(3)
C2_4 C 0.5545(2) 0.3950(4) 0.8739(4)
C16_4 C 0.5470(2) 0.5764(4) 0.6619(4)
C15_4 C 0.5589(2) 0.9164(5) 0.3932(4)
N11_3 N 0.01450(17) 0.2677(4) 0.0363(3)
Au2_5 Au 0.94972(2) 0.01693(2) 0.23409(2)
N2_5 N 0.94599(17) 0.1548(4) 0.0656(3)
C2_5 C 0.9455(2) 0.1050(4) 0.1261(4)
N12_3 N 0.93936(17) 0.3623(4) 0.0468(3)
Au1_5 Au 0.94514(2) 0.49357(2) 0.71255(2)
Fe1_3 Fe 0.94632(3) 0.25003(6) 0.96934(5)
N1_5 N 0.94621(17) 0.3472(4) 0.8740(3)
N3_5 N 0.87799(17) 0.2333(4) 0.9034(3)
N4_5 N 0.71879(19) 0.0772(4) 0.7646(4)
N5_5 N 0.67188(19) 0.0760(4) 0.7170(4)
N6_5 N 0.69572(18) 0.2373(4) 0.7193(4)
N7_5 N 0.6960(2) 0.3455(4) 0.7017(5)
H1_5 H 0.7109 0.3820 0.7535
H2_5 H 0.7113 0.3543 0.6656
N8_3 N 0.51450(17) 0.2323(4) 0.5363(3)
N9_3 N 0.93936(17) 0.6377(4) 0.5468(3)
C1_5 C 0.9463(2) 0.4018(5) 0.8158(4)
C3_5 C 0.8591(2) 0.1371(5) 0.8950(4)
H3_5 H 0.8790 0.0793 0.9214
C4_5 C 0.8127(2) 0.1186(5) 0.8501(5)
H4_5 H 0.8012 0.0493 0.8459
C5_5 C 0.7822(2) 0.2014(5) 0.8104(4)
C6_5 C 0.8013(2) 0.3014(5) 0.8184(4)
H5_5 H 0.7822 0.3605 0.7925
C7_5 C 0.8490(2) 0.3129(4) 0.8652(4)
H6_5 H 0.8617 0.3813 0.8701
C8_5 C 0.7332(2) 0.1747(5) 0.7656(5)
C9_5 C 0.6582(2) 0.1736(5) 0.6904(4)
C10_5 C 0.6097(2) 0.1998(5) 0.6380(4)
C11_5 C 0.5804(2) 0.1188(5) 0.5894(4)
H7_5 H 0.5924 0.0506 0.5895
C12_5 C 0.5341(2) 0.1377(5) 0.5413(4)
H8_5 H 0.5149 0.0809 0.5098
C13_5 C 0.5428(2) 0.3112(5) 0.5814(4)
H9_5 H 0.5299 0.3791 0.5779
C14_5 C 0.5898(2) 0.2984(5) 0.6329(4)
H10_5 H 0.6082 0.3564 0.6645
C15_5 C 0.9411(2) 0.5836(5) 0.6068(4)
Fe3_2 Fe 0.94632(3) 0.74997(6) 0.46934(5)
Fe4_2 Fe 0.44632(3) 0.24997(6) 0.46934(5)
N13_3 N 0.95381(17) 0.1361(4) 0.8935(3)
N10_3 N 0.95381(17) 0.8639(4) 0.3935(3)
C16_5 C 0.9530(2) 0.9236(4) 0.3381(4)
N9_4 N 0.43936(17) 0.1377(4) 0.5468(3)
C15_6 C 0.4411(2) 0.0836(5) 0.6068(4)
Au2_6 Au 0.44972(2) 0.51693(2) 0.23409(2)
N2_6 N 0.44599(17) 0.6548(4) 0.0656(3)
N10_4 N 0.45381(17) 0.3639(4) 0.3935(3)
C2_6 C 0.4455(2) 0.6050(4) 0.1261(4)
C16_6 C 0.4530(2) 0.4236(4) 0.3381(4)
N11_4 N 0.51450(17) 0.7677(4) 0.0363(3)
N12_4 N 0.43936(17) 0.8623(4) 0.0468(3)
Au1_6 Au 0.44514(2) 0.99357(2) 0.71255(2)
Fe1_4 Fe 0.44632(3) 0.75003(6) 0.96934(5)
N1_6 N 0.44621(17) 0.8472(4) 0.8740(3)
N3_6 N 0.37799(17) 0.7333(4) 0.9034(3)
N4_6 N 0.21879(19) 0.5772(4) 0.7646(4)
N5_6 N 0.17188(19) 0.5760(4) 0.7170(4)
N6_6 N 0.19572(18) 0.7373(4) 0.7193(4)
N7_6 N 0.1960(2) 0.8455(4) 0.7017(5)
H1_6 H 0.2109 0.8820 0.7535
H2_6 H 0.2113 0.8543 0.6656
N8_4 N 0.01450(17) 0.7323(4) 0.5363(3)
C1_6 C 0.4463(2) 0.9018(5) 0.8158(4)
C3_6 C 0.3591(2) 0.6371(5) 0.8950(4)
H3_6 H 0.3790 0.5793 0.9214
C4_6 C 0.3127(2) 0.6186(5) 0.8501(5)
H4_6 H 0.3012 0.5493 0.8459
C5_6 C 0.2822(2) 0.7014(5) 0.8104(4)
C6_6 C 0.3013(2) 0.8014(5) 0.8184(4)
H5_6 H 0.2822 0.8605 0.7925
C7_6 C 0.3490(2) 0.8129(4) 0.8652(4)
H6_6 H 0.3617 0.8813 0.8701
C8_6 C 0.2332(2) 0.6747(5) 0.7656(5)
C9_6 C 0.1582(2) 0.6736(5) 0.6904(4)
C10_6 C 0.1097(2) 0.6998(5) 0.6380(4)
C11_6 C 0.0804(2) 0.6188(5) 0.5894(4)
H7_6 H 0.0924 0.5506 0.5895
C12_6 C 0.0341(2) 0.6377(5) 0.5413(4)
H8_6 H 0.0149 0.5809 0.5098
C13_6 C 0.0428(2) 0.8112(5) 0.5814(4)
H9_6 H 0.0299 0.8791 0.5779
C14_6 C 0.0898(2) 0.7984(5) 0.6329(4)
H10_6 H 0.1082 0.8564 0.6645
N13_4 N 0.45381(17) 0.6361(4) 0.8935(3)
C16_7 C 0.9530(2) 0.0764(4) 0.8381(4)
Au1_7 Au 0.94514(2) 0.50643(2) 0.21255(2)
Au2_7 Au 0.94972(2) 0.98307(2) 0.73409(2)
N1_7 N 0.94621(17) 0.6528(4) 0.3740(3)
N2_7 N 0.94599(17) 0.8452(4) 0.5656(3)
N3_7 N 0.87799(17) 0.7667(4) 0.4034(3)
N4_7 N 0.71879(19) 0.9228(4) 0.2646(4)
N5_7 N 0.67188(19) 0.9240(4) 0.2170(4)
N6_7 N 0.69572(18) 0.7627(4) 0.2193(4)
N7_7 N 0.6960(2) 0.6545(4) 0.2017(5)
H1_7 H 0.7109 0.6180 0.2535
H2_7 H 0.7113 0.6457 0.1656
C1_7 C 0.9463(2) 0.5982(5) 0.3158(4)
C2_7 C 0.9455(2) 0.8950(4) 0.6261(4)
C3_7 C 0.8591(2) 0.8629(5) 0.3950(4)
H3_7 H 0.8790 0.9207 0.4214
C4_7 C 0.8127(2) 0.8814(5) 0.3501(5)
H4_7 H 0.8012 0.9507 0.3459
C5_7 C 0.7822(2) 0.7986(5) 0.3104(4)
C6_7 C 0.8013(2) 0.6986(5) 0.3184(4)
H5_7 H 0.7822 0.6395 0.2925
C7_7 C 0.8490(2) 0.6871(4) 0.3652(4)
H6_7 H 0.8617 0.6187 0.3701
C8_7 C 0.7332(2) 0.8253(5) 0.2656(5)
C9_7 C 0.6582(2) 0.8264(5) 0.1904(4)
C10_7 C 0.6097(2) 0.8002(5) 0.1380(4)
C11_7 C 0.5804(2) 0.8812(5) 0.0894(4)
H7_7 H 0.5924 0.9494 0.0895
C12_7 C 0.5341(2) 0.8623(5) 0.0413(4)
H8_7 H 0.5149 0.9191 0.0098
C13_7 C 0.5428(2) 0.6888(5) 0.0814(4)
H9_7 H 0.5299 0.6209 0.0779
C14_7 C 0.5898(2) 0.7016(5) 0.1329(4)
H10_7 H 0.6082 0.6436 0.1645
C15_7 C 0.9411(2) 0.4164(5) 0.1068(4)
Au1_8 Au 0.44514(2) 0.00643(2) 0.21255(2)
Au2_8 Au 0.44972(2) 0.48307(2) 0.73409(2)
N1_8 N 0.44621(17) 0.1528(4) 0.3740(3)
N2_8 N 0.44599(17) 0.3452(4) 0.5656(3)
N3_8 N 0.37799(17) 0.2667(4) 0.4034(3)
N4_8 N 0.21879(19) 0.4228(4) 0.2646(4)
N5_8 N 0.17188(19) 0.4240(4) 0.2170(4)
N6_8 N 0.19572(18) 0.2627(4) 0.2193(4)
N7_8 N 0.1960(2) 0.1545(4) 0.2017(5)
H1_8 H 0.2109 0.1180 0.2535
H2_8 H 0.2113 0.1457 0.1656
C1_8 C 0.4463(2) 0.0982(5) 0.3158(4)
C2_8 C 0.4455(2) 0.3950(4) 0.6261(4)
C3_8 C 0.3591(2) 0.3629(5) 0.3950(4)
H3_8 H 0.3790 0.4207 0.4214
C4_8 C 0.3127(2) 0.3814(5) 0.3501(5)
H4_8 H 0.3012 0.4507 0.3459
C5_8 C 0.2822(2) 0.2986(5) 0.3104(4)
C6_8 C 0.3013(2) 0.1986(5) 0.3184(4)
H5_8 H 0.2822 0.1395 0.2925
C7_8 C 0.3490(2) 0.1871(4) 0.3652(4)
H6_8 H 0.3617 0.1187 0.3701
C8_8 C 0.2332(2) 0.3253(5) 0.2656(5)
C9_8 C 0.1582(2) 0.3264(5) 0.1904(4)
C10_8 C 0.1097(2) 0.3002(5) 0.1380(4)
C11_8 C 0.0804(2) 0.3812(5) 0.0894(4)
H7_8 H 0.0924 0.4494 0.0895
C12_8 C 0.0341(2) 0.3623(5) 0.0413(4)
H8_8 H 0.0149 0.4191 0.0098
C13_8 C 0.0428(2) 0.1888(5) 0.0814(4)
H9_8 H 0.0299 0.1209 0.0779
C14_8 C 0.0898(2) 0.2016(5) 0.1329(4)
H10_8 H 0.1082 0.1436 0.1645
C16_8 C 0.4530(2) 0.5764(4) 0.8381(4)
C15_8 C 0.4411(2) 0.9164(5) 0.1068(4)
loop_
_geom_bond_atom_site_label_1
_geom_bond_atom_site_label_2
_geom_bond_site_symmetry_1
_geom_bond_site_symmetry_2
Au1 C1 1_555 1_555
Au2 C2 1_555 1_555
Fe1 N1 1_555 1_555
N1 C1 1_555 1_555
N2 Fe1 1_555 1_555
N3 Fe1 1_555 1_555
N4 N5 1_555 1_555
N5 C9 1_555 1_555
N6 N7 1_555 1_555
N7 H1 1_555 1_555
H2 N7 1_555 1_555
N8 C12 1_555 1_555
N9 C15 1_555 1_555
C2 N2 1_555 1_555
C3 N3 1_555 1_555
H3 C3 1_555 1_555
C4 C3 1_555 1_555
H4 C4 1_555 1_555
C5 C4 1_555 1_555
C6 C5 1_555 1_555
H5 C6 1_555 1_555
C7 N3 1_555 1_555
H6 C7 1_555 1_555
C8 N4 1_555 1_555
C9 N6 1_555 1_555
C10 C9 1_555 1_555
C11 C10 1_555 1_555
H7 C11 1_555 1_555
C12 C11 1_555 1_555
H8 C12 1_555 1_555
C13 N8 1_555 1_555
H9 C13 1_555 1_555
C14 C10 1_555 1_555
H10 C14 1_555 1_555
C15 Au1 1_555 1_555
N12 Fe1 1_555 1_555
N13 Fe1 1_555 1_555
N6 C8 1_555 1_555
C5 C8 1_555 1_555
C6 C7 1_555 1_555
C13 C14 1_555 1_555
N10 C16 1_555 1_555
Fe3 N10 1_555 1_555
N9_2 C15_2 1_555 1_555
Au1_2 C1_2 1_555 1_555
Au2_2 C2_2 1_555 1_555
Fe1_2 N1_2 1_555 1_555
N1_2 C1_2 1_555 1_555
N2_2 Fe1_2 1_555 1_555
N3_2 Fe1_2 1_555 1_555
N4_2 N5_2 1_555 1_555
N5_2 C9_2 1_555 1_555
N6_2 N7_2 1_555 1_555
N7_2 H1_2 1_555 1_555
H2_2 N7_2 1_555 1_555
N8_2 C12_2 1_555 1_555
N10_2 C16_2 1_555 1_555
C2_2 N2_2 1_555 1_555
C3_2 N3_2 1_555 1_555
H3_2 C3_2 1_555 1_555
C4_2 C3_2 1_555 1_555
H4_2 C4_2 1_555 1_555
C5_2 C4_2 1_555 1_555
C6_2 C5_2 1_555 1_555
H5_2 C6_2 1_555 1_555
C7_2 N3_2 1_555 1_555
H6_2 C7_2 1_555 1_555
C8_2 N4_2 1_555 1_555
C9_2 N6_2 1_555 1_555
C10_2 C9_2 1_555 1_555
C11_2 C10_2 1_555 1_555
H7_2 C11_2 1_555 1_555
C12_2 C11_2 1_555 1_555
H8_2 C12_2 1_555 1_555
C13_2 N8_2 1_555 1_555
H9_2 C13_2 1_555 1_555
C14_2 C10_2 1_555 1_555
H10_2 C14_2 1_555 1_555
C16_2 Au2_2 1_555 1_555
Fe4 N10_2 1_555 1_555
N11_2 Fe1_2 1_555 1_555
N12_2 Fe1_2 1_555 1_555
N13_2 Fe1_2 1_555 1_555
N6_2 C8_2 1_555 1_555
C5_2 C8_2 1_555 1_555
C6_2 C7_2 1_555 1_555
C13_2 C14_2 1_555 1_555
N13 C16_3 1_555 1_555
Au1_3 C1_3 1_555 1_555
Fe3 N1_3 1_555 1_555
N1_3 C1_3 1_555 1_555
N3_3 Fe3 1_555 1_555
N4_3 N5_3 1_555 1_555
N5_3 C9_3 1_555 1_555
N6_3 N7_3 1_555 1_555
N7_3 H1_3 1_555 1_555
H2_3 N7_3 1_555 1_555
N11_2 C12_3 1_555 1_555
N12 C15_3 1_555 1_555
C3_3 N3_3 1_555 1_555
H3_3 C3_3 1_555 1_555
C4_3 C3_3 1_555 1_555
H4_3 C4_3 1_555 1_555
C5_3 C4_3 1_555 1_555
C6_3 C5_3 1_555 1_555
H5_3 C6_3 1_555 1_555
C7_3 N3_3 1_555 1_555
H6_3 C7_3 1_555 1_555
C8_3 N4_3 1_555 1_555
C9_3 N6_3 1_555 1_555
C10_3 C9_3 1_555 1_555
C11_3 C10_3 1_555 1_555
H7_3 C11_3 1_555 1_555
C12_3 C11_3 1_555 1_555
H8_3 C12_3 1_555 1_555
C13_3 N11_2 1_555 1_555
H9_3 C13_3 1_555 1_555
C14_3 C10_3 1_555 1_555
H10_3 C14_3 1_555 1_555
C15_3 Au1_3 1_555 1_555
N6_3 C8_3 1_555 1_555
C5_3 C8_3 1_555 1_555
C6_3 C7_3 1_555 1_555
C13_3 C14_3 1_555 1_555
Au2_3 C2_3 1_555 1_555
C2_3 N2_3 1_555 1_555
Au1_4 C1_4 1_555 1_555
Fe4 N1_4 1_555 1_555
N1_4 C1_4 1_555 1_555
N3_4 Fe4 1_555 1_555
N4_4 N5_4 1_555 1_555
N5_4 C9_4 1_555 1_555
N6_4 N7_4 1_555 1_555
N7_4 H1_4 1_555 1_555
H2_4 N7_4 1_555 1_555
N11 C12_4 1_555 1_555
C3_4 N3_4 1_555 1_555
H3_4 C3_4 1_555 1_555
C4_4 C3_4 1_555 1_555
H4_4 C4_4 1_555 1_555
C5_4 C4_4 1_555 1_555
C6_4 C5_4 1_555 1_555
H5_4 C6_4 1_555 1_555
C7_4 N3_4 1_555 1_555
H6_4 C7_4 1_555 1_555
C8_4 N4_4 1_555 1_555
C9_4 N6_4 1_555 1_555
C10_4 C9_4 1_555 1_555
C11_4 C10_4 1_555 1_555
H7_4 C11_4 1_555 1_555
C12_4 C11_4 1_555 1_555
H8_4 C12_4 1_555 1_555
C13_4 N11 1_555 1_555
H9_4 C13_4 1_555 1_555
C14_4 C10_4 1_555 1_555
H10_4 C14_4 1_555 1_555
N6_4 C8_4 1_555 1_555
C5_4 C8_4 1_555 1_555
C6_4 C7_4 1_555 1_555
C13_4 C14_4 1_555 1_555
Au2_4 C2_4 1_555 1_555
N13_2 C16_4 1_555 1_555
C2_4 N2_4 1_555 1_555
C16_4 Au2_4 1_555 1_555
N12_2 C15_4 1_555 1_555
Au2_5 C2_5 1_555 1_555
C2_5 N2_5 1_555 1_555
Au1_5 C1_5 1_555 1_555
Fe1_3 N1_5 1_555 1_555
N1_5 C1_5 1_555 1_555
N3_5 Fe1_3 1_555 1_555
N4_5 N5_5 1_555 1_555
N5_5 C9_5 1_555 1_555
N6_5 N7_5 1_555 1_555
N7_5 H1_5 1_555 1_555
H2_5 N7_5 1_555 1_555
N8_3 C12_5 1_555 1_555
N9_3 C15_5 1_555 1_555
C3_5 N3_5 1_555 1_555
H3_5 C3_5 1_555 1_555
C4_5 C3_5 1_555 1_555
H4_5 C4_5 1_555 1_555
C5_5 C4_5 1_555 1_555
C6_5 C5_5 1_555 1_555
H5_5 C6_5 1_555 1_555
C7_5 N3_5 1_555 1_555
H6_5 C7_5 1_555 1_555
C8_5 N4_5 1_555 1_555
C9_5 N6_5 1_555 1_555
C10_5 C9_5 1_555 1_555
C11_5 C10_5 1_555 1_555
H7_5 C11_5 1_555 1_555
C12_5 C11_5 1_555 1_555
H8_5 C12_5 1_555 1_555
C13_5 N8_3 1_555 1_555
H9_5 C13_5 1_555 1_555
C14_5 C10_5 1_555 1_555
H10_5 C14_5 1_555 1_555
C15_5 Au1_5 1_555 1_555
Fe3_2 N9_3 1_555 1_555
Fe4_2 N8_3 1_555 1_555
N13_3 Fe1_3 1_555 1_555
N6_5 C8_5 1_555 1_555
C5_5 C8_5 1_555 1_555
C6_5 C7_5 1_555 1_555
C13_5 C14_5 1_555 1_555
N10_3 C16_5 1_555 1_555
Fe3_2 N10_3 1_555 1_555
N9_4 C15_6 1_555 1_555
Fe4_2 N9_4 1_555 1_555
Au2_6 C2_6 1_555 1_555
N10_4 C16_6 1_555 1_555
C2_6 N2_6 1_555 1_555
C16_6 Au2_6 1_555 1_555
Fe4_2 N10_4 1_555 1_555
Au1_6 C1_6 1_555 1_555
Fe1_4 N1_6 1_555 1_555
N1_6 C1_6 1_555 1_555
N3_6 Fe1_4 1_555 1_555
N4_6 N5_6 1_555 1_555
N5_6 C9_6 1_555 1_555
N6_6 N7_6 1_555 1_555
N7_6 H1_6 1_555 1_555
H2_6 N7_6 1_555 1_555
N8_4 C12_6 1_555 1_555
C3_6 N3_6 1_555 1_555
H3_6 C3_6 1_555 1_555
C4_6 C3_6 1_555 1_555
H4_6 C4_6 1_555 1_555
C5_6 C4_6 1_555 1_555
C6_6 C5_6 1_555 1_555
H5_6 C6_6 1_555 1_555
C7_6 N3_6 1_555 1_555
H6_6 C7_6 1_555 1_555
C8_6 N4_6 1_555 1_555
C9_6 N6_6 1_555 1_555
C10_6 C9_6 1_555 1_555
C11_6 C10_6 1_555 1_555
H7_6 C11_6 1_555 1_555
C12_6 C11_6 1_555 1_555
H8_6 C12_6 1_555 1_555
C13_6 N8_4 1_555 1_555
H9_6 C13_6 1_555 1_555
C14_6 C10_6 1_555 1_555
H10_6 C14_6 1_555 1_555
N13_4 Fe1_4 1_555 1_555
N6_6 C8_6 1_555 1_555
C5_6 C8_6 1_555 1_555
C6_6 C7_6 1_555 1_555
C13_6 C14_6 1_555 1_555
N13_3 C16_7 1_555 1_555
Au1_7 C1_7 1_555 1_555
Au2_7 C2_7 1_555 1_555
Fe3_2 N1_7 1_555 1_555
N1_7 C1_7 1_555 1_555
N2_7 Fe3_2 1_555 1_555
N3_7 Fe3_2 1_555 1_555
N4_7 N5_7 1_555 1_555
N5_7 C9_7 1_555 1_555
N6_7 N7_7 1_555 1_555
N7_7 H1_7 1_555 1_555
H2_7 N7_7 1_555 1_555
N11_4 C12_7 1_555 1_555
N12_3 C15_7 1_555 1_555
C2_7 N2_7 1_555 1_555
C3_7 N3_7 1_555 1_555
H3_7 C3_7 1_555 1_555
C4_7 C3_7 1_555 1_555
H4_7 C4_7 1_555 1_555
C5_7 C4_7 1_555 1_555
C6_7 C5_7 1_555 1_555
H5_7 C6_7 1_555 1_555
C7_7 N3_7 1_555 1_555
H6_7 C7_7 1_555 1_555
C8_7 N4_7 1_555 1_555
C9_7 N6_7 1_555 1_555
C10_7 C9_7 1_555 1_555
C11_7 C10_7 1_555 1_555
H7_7 C11_7 1_555 1_555
C12_7 C11_7 1_555 1_555
H8_7 C12_7 1_555 1_555
C13_7 N11_4 1_555 1_555
H9_7 C13_7 1_555 1_555
C14_7 C10_7 1_555 1_555
H10_7 C14_7 1_555 1_555
C15_7 Au1_7 1_555 1_555
N6_7 C8_7 1_555 1_555
C5_7 C8_7 1_555 1_555
C6_7 C7_7 1_555 1_555
C13_7 C14_7 1_555 1_555
Au1_8 C1_8 1_555 1_555
Au2_8 C2_8 1_555 1_555
Fe4_2 N1_8 1_555 1_555
N1_8 C1_8 1_555 1_555
N2_8 Fe4_2 1_555 1_555
N3_8 Fe4_2 1_555 1_555
N4_8 N5_8 1_555 1_555
N5_8 C9_8 1_555 1_555
N6_8 N7_8 1_555 1_555
N7_8 H1_8 1_555 1_555
H2_8 N7_8 1_555 1_555
N11_3 C12_8 1_555 1_555
N13_4 C16_8 1_555 1_555
C2_8 N2_8 1_555 1_555
C3_8 N3_8 1_555 1_555
H3_8 C3_8 1_555 1_555
C4_8 C3_8 1_555 1_555
H4_8 C4_8 1_555 1_555
C5_8 C4_8 1_555 1_555
C6_8 C5_8 1_555 1_555
H5_8 C6_8 1_555 1_555
C7_8 N3_8 1_555 1_555
H6_8 C7_8 1_555 1_555
C8_8 N4_8 1_555 1_555
C9_8 N6_8 1_555 1_555
C10_8 C9_8 1_555 1_555
C11_8 C10_8 1_555 1_555
H7_8 C11_8 1_555 1_555
C12_8 C11_8 1_555 1_555
H8_8 C12_8 1_555 1_555
C13_8 N11_3 1_555 1_555
H9_8 C13_8 1_555 1_555
C14_8 C10_8 1_555 1_555
H10_8 C14_8 1_555 1_555
C16_8 Au2_8 1_555 1_555
N6_8 C8_8 1_555 1_555
C5_8 C8_8 1_555 1_555
C6_8 C7_8 1_555 1_555
C13_8 C14_8 1_555 1_555
N12_4 C15_8 1_555 1_555

#END
