
###############################################################################
#
# This file contains modified crystal structure data generated from the
# MOF subset of the Cambridge Structural Database (CSD) v543 
# hosted by the Cambridge Crystallographic Data Centre (CCDC).
#
# This work is licensed under the Creative Commons
# Attribution-NonCommercial-ShareAlike 4.0 International License.
# To view a copy of this license, visit
# http://creativecommons.org/licenses/by-nc-sa/4.0/
# or send a letter to
# Creative Commons, PO Box 1866, Mountain View, CA 94042, USA.
#
# CIF created using the CSD Python API on 29 September 2022
# The structure has been converted into the P1 space group
# The structure has a 3D framework
# The original CSD entry YOQPIF is in the monoclinic crystal system
# The framework has been calculated to contain at least 10.0% void space
# The void calculation uses a probe of radius 1.32A, grid spacing 0.4
#
###############################################################################

data_YOQPIF
_chemical_formula_moiety         '(C144 H120 Cd11 N24 O32)n'
_symmetry_cell_setting           triclinic
_symmetry_space_group_name_H-M   'P 1'
_symmetry_Int_Tables_number      1
_space_group_name_Hall           'P 1'
loop_
_symmetry_equiv_pos_site_id
_symmetry_equiv_pos_as_xyz
1 x,y,z
_cell_length_a                   11.5235(11)
_cell_length_b                   15.7807(15)
_cell_length_c                   22.220(2)
_cell_angle_alpha                90
_cell_angle_beta                 94.678(2)
_cell_angle_gamma                90
_cell_volume                     4027.22
loop_
_atom_site_label
_atom_site_type_symbol
_atom_site_fract_x
_atom_site_fract_y
_atom_site_fract_z
Cd5 Cd 0.22370(3) 0.04477(2) 0.676419(17)
H54 H 0.0110 0.7244 0.7140
C70 C 0.0812(5) 0.8827(4) 0.7112(3)
H56 H 0.0729 0.8677 0.6706
C71 C 0.1247(5) 0.9495(4) 0.7924(3)
H57 H 0.1536 0.9905 0.8197
C72 C 0.0678(5) 0.8792(4) 0.8068(3)
H58 H 0.0499 0.8628 0.8452
N9 N 0.1336(4) 0.9515(3) 0.7319(2)
N10 N 0.0416(4) 0.8371(3) 0.7548(3)
H17 H 0.9890 0.2756 0.2860
C27 C 0.9188(5) 0.1173(4) 0.2888(3)
H19 H 0.9271 0.1323 0.3294
C28 C 0.8753(5) 0.0505(4) 0.2076(3)
H20 H 0.8464 0.0095 0.1803
C29 C 0.9322(5) 0.1208(4) 0.1932(3)
H21 H 0.9501 0.1372 0.1548
N1 N 0.8664(4) 0.0485(3) 0.2681(2)
N2 N 0.9584(4) 0.1629(3) 0.2452(3)
Cd4 Cd 0.77630(3) 0.95523(2) 0.323581(17)
Cd6 Cd -0.0000 -0.0000 -0.0000
Cd6_2 Cd -0.0000 1.0000 -0.0000
C1 C 0.1855(5) 0.0200(4) 0.5552(3)
C2 C 0.1714(4) 0.0030(3) 0.4881(2)
C6 C 0.2037(5) 0.0415(4) 0.3872(3)
H3 H 0.2323 0.0801 0.3605
C7 C 0.2106(5) 0.0594(3) 0.4491(3)
H4 H 0.2423 0.1106 0.4633
C32 C 0.0595(5) 0.3493(3) 0.0699(3)
H24 H 0.1430 0.3410 0.0701
H25 H 0.0416 0.3587 0.1112
C33 C 0.0259(5) 0.4273(3) 0.0331(2)
C36 C 0.0495(5) 0.1990(3) 0.0329(3)
H28 H 0.1295 0.1902 0.0349
N5 N 0.0001(4) 0.2721(3) 0.0472(2)
O7 O 0.2085(3) 0.0926(2) 0.57485(16)
C46 C 0.8805(5) 0.0712(4) 0.5341(3)
H38 H 0.9101 0.1097 0.5076
C47 C 0.8885(5) 0.0881(4) 0.5943(2)
H39 H 0.9240 0.1379 0.6087
C48 C 0.8451(4) 0.0327(4) 0.6338(2)
C51 C 0.7758(4) 0.0393(3) 0.7327(2)
C52 C 0.6558(4) 0.0411(3) 0.7166(2)
H42 H 0.6285 0.0467 0.6762
C53 C 0.5777(4) 0.0347(3) 0.7607(2)
C54 C 0.6186(5) 0.0250(3) 0.8194(2)
H43 H 0.5662 0.0207 0.8490
C55 C 0.7381(5) 0.0214(3) 0.8363(2)
C56 C 0.8146(4) 0.0273(3) 0.7930(2)
H44 H 0.8941 0.0232 0.8039
C57 C 0.7845(6) 0.0114(4) 0.9014(3)
C58 C 0.4486(5) 0.0398(3) 0.7443(3)
C59 C 0.1882(6) 0.2446(4) 0.6887(4)
H45 H 0.2337 0.2557 0.6569
C60 C 0.1407(6) 0.3032(4) 0.7243(4)
H46 H 0.1461 0.3617 0.7202
C61 C 0.0959(5) 0.1811(4) 0.7536(3)
H47 H 0.0631 0.1380 0.7752
C62 C 0.0180(5) 0.2978(4) 0.8116(3)
H48 H 0.0402 0.2704 0.8499
H49 H 0.0356 0.3577 0.8161
N11 N 0.1574(4) 0.1678(3) 0.7081(2)
N12 N 0.0848(4) 0.2627(3) 0.7660(3)
O9 O 0.3805(3) 0.0371(3) 0.7835(2)
O10 O 0.4153(3) 0.0460(3) 0.68959(17)
O11 O 0.8611(3) 0.0517(3) 0.69406(16)
O12 O 0.8905(3) 0.0081(3) 0.91183(17)
O13 O 0.7112(4) 0.0082(3) 0.9403(2)
O14 O 0.8201(3) 0.0423(2) 0.40790(16)
Cd6_3 Cd 1.0000 -0.0000 1.0000
C3 C 0.1195(5) 0.9288(4) 0.4659(3)
H1 H 0.0899 0.8903 0.4924
C4 C 0.1115(5) 0.9119(4) 0.4057(2)
H2 H 0.0760 0.8621 0.3913
C5 C 0.1549(4) 0.9673(4) 0.3662(2)
C8 C 0.2242(4) 0.9607(3) 0.2673(2)
C9 C 0.3442(4) 0.9589(3) 0.2834(2)
H5 H 0.3715 0.9533 0.3238
C10 C 0.4223(4) 0.9653(3) 0.2393(2)
C11 C 0.3814(5) 0.9750(3) 0.1806(2)
H6 H 0.4338 0.9793 0.1510
C12 C 0.2619(5) 0.9786(3) 0.1637(2)
C13 C 0.1854(4) 0.9727(3) 0.2070(2)
H7 H 0.1059 0.9768 0.1961
C14 C 0.2155(6) 0.9886(4) 0.0986(3)
C15 C 0.5514(5) 0.9602(3) 0.2557(3)
C16 C 0.8118(6) 0.7554(4) 0.3113(4)
H8 H 0.7663 0.7443 0.3431
C17 C 0.8593(6) 0.6968(4) 0.2757(4)
H9 H 0.8539 0.6383 0.2798
C18 C 0.9041(5) 0.8189(4) 0.2464(3)
H10 H 0.9369 0.8620 0.2248
C19 C 0.9820(5) 0.7022(4) 0.1884(3)
H11 H 0.9598 0.7296 0.1501
H12 H 0.9644 0.6423 0.1839
N3 N 0.8426(4) 0.8322(3) 0.2919(2)
N4 N 0.9152(4) 0.7373(3) 0.2340(3)
O1 O 0.6195(3) 0.9629(3) 0.2165(2)
O2 O 0.5847(3) 0.9540(3) 0.31041(17)
O3 O 0.1389(3) 0.9483(3) 0.30594(16)
O4 O 0.1095(3) 0.9919(3) 0.08817(17)
O5 O 0.2888(4) 0.9918(3) 0.0597(2)
O6 O 0.1799(3) 0.9577(2) 0.59210(16)
C44 C 0.8145(5) 0.9800(4) 0.4448(3)
C45 C 0.8286(4) 0.9970(3) 0.5119(2)
C49 C 0.7963(5) 0.9585(4) 0.6128(3)
H40 H 0.7677 0.9199 0.6395
C50 C 0.7894(5) 0.9406(3) 0.5509(3)
H41 H 0.7577 0.8894 0.5367
O15 O 0.7915(3) 0.9074(2) 0.42515(16)
Cd6_4 Cd 1.0000 1.0000 1.0000
C39 C 0.9405(5) 0.6507(3) 0.9301(3)
H33 H 0.8570 0.6590 0.9299
H34 H 0.9584 0.6413 0.8888
C40 C 0.9741(5) 0.5727(3) 0.9669(2)
C43 C 0.9505(5) 0.8010(3) 0.9671(3)
H37 H 0.8705 0.8098 0.9651
N7 N 0.9999(4) 0.7279(3) 0.9528(2)
C37 C 0.3698(5) 0.3197(3) 0.5202(3)
H31 H 0.2978 0.3452 0.5107
C38 C 0.3840(5) 0.2395(3) 0.5399(3)
H32 H 0.3261 0.2006 0.5470
C39_2 C 0.5595(5) 0.1507(3) 0.5699(3)
H33_2 H 0.6430 0.1590 0.5701
H34_2 H 0.5416 0.1413 0.6112
C40_2 C 0.5259(5) 0.0727(3) 0.5331(2)
C41 C 0.5426(5) 0.0697(3) 0.4731(3)
H35 H 0.5724 0.1167 0.4544
C42 C 0.4846(5) 0.0030(4) 0.5600(2)
H36 H 0.4745 0.0040 0.6011
C43_2 C 0.5495(5) 0.3010(3) 0.5329(3)
H37_2 H 0.6295 0.3098 0.5349
N7_2 N 0.5001(4) 0.2279(3) 0.5472(2)
N8 N 0.4731(4) 0.3587(2) 0.5159(2)
Cd7 Cd 0.5000 0.5000 0.5000
C2_2 C 0.3286(4) 0.5030(3) 0.0119(2)
C3_2 C 0.3805(5) 0.4288(4) 0.0341(3)
H1_2 H 0.4101 0.3903 0.0076
C4_2 C 0.3885(5) 0.4119(4) 0.0943(2)
H2_2 H 0.4240 0.3621 0.1087
C5_2 C 0.3451(4) 0.4673(4) 0.1338(2)
C6_2 C 0.2963(5) 0.5415(4) 0.1128(3)
H3_2 H 0.2677 0.5801 0.1395
C7_2 C 0.2894(5) 0.5594(3) 0.0509(3)
H4_2 H 0.2577 0.6106 0.0367
C8_2 C 0.2758(4) 0.4607(3) 0.2327(2)
C9_2 C 0.1558(4) 0.4589(3) 0.2166(2)
H5_2 H 0.1285 0.4533 0.1762
C10_2 C 0.0777(4) 0.4653(3) 0.2607(2)
C11_2 C 0.1186(5) 0.4750(3) 0.3194(2)
H6_2 H 0.0662 0.4793 0.3490
C12_2 C 0.2381(5) 0.4786(3) 0.3363(2)
C13_2 C 0.3146(4) 0.4727(3) 0.2930(2)
H7_2 H 0.3941 0.4768 0.3039
C14_2 C 0.2845(6) 0.4886(4) 0.4014(3)
C30 C 0.6302(5) 0.6803(3) 0.4798(3)
H22 H 0.7022 0.6548 0.4893
C31 C 0.6160(5) 0.7605(3) 0.4601(3)
H23 H 0.6739 0.7994 0.4530
C32_2 C 0.4405(5) 0.8493(3) 0.4301(3)
H24_2 H 0.3570 0.8410 0.4299
H25_2 H 0.4584 0.8587 0.3888
C33_2 C 0.4741(5) 0.9273(3) 0.4669(2)
C34 C 0.4574(5) 0.9303(3) 0.5269(3)
H26 H 0.4276 0.8833 0.5456
C35 C 0.5154(5) 0.9970(4) 0.4400(2)
H27 H 0.5255 0.9960 0.3989
C36_2 C 0.4505(5) 0.6990(3) 0.4671(3)
H28_2 H 0.3705 0.6902 0.4651
N5_2 N 0.4999(4) 0.7721(3) 0.4528(2)
N6 N 0.5269(4) 0.6413(2) 0.4841(2)
O3_2 O 0.3611(3) 0.4483(3) 0.19406(16)
O4_2 O 0.3905(3) 0.4919(3) 0.41183(17)
O5_2 O 0.2112(4) 0.4918(3) 0.4403(2)
O8 O 0.6731(3) 0.4769(2) 0.45403(16)
H29 H 0.7478 0.4808 0.4760
H30 H 0.6967 0.4374 0.4331
O16 O 0.3269(3) 0.5231(2) 0.54597(16)
H59 H 0.2522 0.5192 0.5240
H60 H 0.3033 0.5626 0.5669
O17 O 0.6095(3) 0.5081(3) 0.58817(17)
C45_2 C 0.6714(4) 0.4970(3) 0.9881(2)
C46_2 C 0.6195(5) 0.5712(4) 0.9659(3)
H38_2 H 0.5899 0.6097 0.9924
C47_2 C 0.6115(5) 0.5881(4) 0.9057(2)
H39_2 H 0.5760 0.6379 0.8913
C48_2 C 0.6549(4) 0.5327(4) 0.8662(2)
C49_2 C 0.7037(5) 0.4585(4) 0.8872(3)
H40_2 H 0.7323 0.4199 0.8605
C50_2 C 0.7106(5) 0.4406(3) 0.9491(3)
H41_2 H 0.7423 0.3894 0.9633
C51_2 C 0.7242(4) 0.5393(3) 0.7673(2)
C52_2 C 0.8442(4) 0.5411(3) 0.7834(2)
H42_2 H 0.8715 0.5467 0.8238
C53_2 C 0.9223(4) 0.5347(3) 0.7393(2)
C54_2 C 0.8814(5) 0.5250(3) 0.6806(2)
H43_2 H 0.9338 0.5207 0.6510
C55_2 C 0.7619(5) 0.5214(3) 0.6637(2)
C56_2 C 0.6854(4) 0.5273(3) 0.7070(2)
H44_2 H 0.6059 0.5232 0.6961
C57_2 C 0.7155(6) 0.5114(4) 0.5986(3)
O11_2 O 0.6389(3) 0.5517(3) 0.80594(16)
O13_2 O 0.7888(4) 0.5082(3) 0.5597(2)
C1_2 C 0.3145(5) 0.5200(4) 0.9448(3)
O6_2 O 0.3201(3) 0.4577(2) 0.90790(16)
O7_2 O 0.2915(3) 0.5926(2) 0.92515(16)
C58_2 C 0.0514(5) 0.5398(3) 0.7557(3)
C59_2 C 0.3118(6) 0.7446(4) 0.8113(4)
H45_2 H 0.2663 0.7557 0.8431
C60_2 C 0.3593(6) 0.8032(4) 0.7757(4)
H46_2 H 0.3539 0.8617 0.7798
C61_2 C 0.4041(5) 0.6811(4) 0.7464(3)
H47_2 H 0.4369 0.6380 0.7248
C62_2 C 0.4820(5) 0.7978(4) 0.6884(3)
H48_2 H 0.4598 0.7704 0.6501
H49_2 H 0.4644 0.8577 0.6839
C63 C 0.6111(6) 0.7867(4) 0.7037(4)
C64 C 0.6628(6) 0.8088(4) 0.7589(4)
H50 H 0.6170 0.8318 0.7873
C65 C 0.7792(6) 0.7984(4) 0.7739(4)
H51 H 0.8108 0.8132 0.8123
C66 C 0.8506(6) 0.7661(4) 0.7322(4)
C67 C 0.8012(8) 0.7426(4) 0.6772(4)
H52 H 0.8464 0.7194 0.6486
C68 C 0.6801(7) 0.7541(4) 0.6642(4)
H53 H 0.6469 0.7381 0.6263
C69 C 0.9792(6) 0.7556(4) 0.7465(4)
H55 H 0.9926 0.7222 0.7831
Cd3 Cd 0.27630(3) 0.54477(2) 0.823581(17)
N11_2 N 0.3426(4) 0.6678(3) 0.7919(2)
N12_2 N 0.4152(4) 0.7627(3) 0.7340(3)
O9_2 O 0.1195(3) 0.5371(3) 0.7165(2)
O10_2 O 0.0847(3) 0.5460(3) 0.81041(17)
N14 N 0.3664(4) 0.4515(3) 0.7681(2)
Cd6_5 Cd 1.0000 -0.0000 -0.0000
Cd6_6 Cd 1.0000 1.0000 -0.0000
C30_2 C 0.8698(5) 0.1803(3) 0.0202(3)
H22_2 H 0.7978 0.1548 0.0107
C31_2 C 0.8840(5) 0.2605(3) 0.0399(3)
H23_2 H 0.8261 0.2994 0.0470
C35_2 C 0.9846(5) 0.4970(4) 0.0600(2)
H27_2 H 0.9745 0.4960 0.1011
N6_2 N 0.9731(4) 0.1413(2) 0.0159(2)
C41_2 C 0.9574(5) 0.5697(3) 0.0269(3)
H35_2 H 0.9276 0.6167 0.0456
C63_2 C 0.8889(6) 0.2867(4) 0.7963(4)
C64_2 C 0.8372(6) 0.3088(4) 0.7411(4)
H50_2 H 0.8830 0.3318 0.7127
C65_2 C 0.7208(6) 0.2984(4) 0.7261(4)
H51_2 H 0.6892 0.3132 0.6877
C66_2 C 0.6494(6) 0.2661(4) 0.7678(4)
C67_2 C 0.6988(8) 0.2426(4) 0.8228(4)
H52_2 H 0.6536 0.2194 0.8514
C68_2 C 0.8199(7) 0.2541(4) 0.8358(4)
H53_2 H 0.8531 0.2381 0.8737
C69_2 C 0.5208(6) 0.2556(4) 0.7535(4)
H54_2 H 0.4890 0.2244 0.7860
H55_2 H 0.5074 0.2222 0.7169
C70_2 C 0.4188(5) 0.3827(4) 0.7888(3)
H56_2 H 0.4271 0.3677 0.8294
C71_2 C 0.3753(5) 0.4495(4) 0.7076(3)
H57_2 H 0.3464 0.4905 0.6803
C72_2 C 0.4322(5) 0.3792(4) 0.6932(3)
H58_2 H 0.4501 0.3628 0.6548
N10_2 N 0.4584(4) 0.3371(3) 0.7452(3)
O8_2 O 0.8269(3) 0.9769(2) 0.04597(16)
H29_2 H 0.7522 0.9808 0.0240
H30_2 H 0.8033 0.9374 0.0669
C15_2 C 0.9486(5) 0.4602(3) 0.2443(3)
C16_2 C 0.6882(6) 0.2554(4) 0.1887(4)
H8_2 H 0.7337 0.2443 0.1569
C17_2 C 0.6407(6) 0.1968(4) 0.2243(4)
H9_2 H 0.6461 0.1383 0.2202
C18_2 C 0.5959(5) 0.3189(4) 0.2536(3)
H10_2 H 0.5631 0.3620 0.2752
C19_2 C 0.5180(5) 0.2022(4) 0.3116(3)
H11_2 H 0.5402 0.2296 0.3499
H12_2 H 0.5356 0.1423 0.3161
C20 C 0.3889(6) 0.2133(4) 0.2963(4)
C21 C 0.3372(6) 0.1912(4) 0.2411(4)
H13 H 0.3830 0.1682 0.2127
C22 C 0.2208(6) 0.2016(4) 0.2261(4)
H14 H 0.1892 0.1868 0.1877
C23 C 0.1494(6) 0.2339(4) 0.2678(4)
C24 C 0.1988(8) 0.2574(4) 0.3228(4)
H15 H 0.1536 0.2806 0.3514
C25 C 0.3199(7) 0.2459(4) 0.3358(4)
H16 H 0.3531 0.2619 0.3737
C26 C 0.0208(6) 0.2444(4) 0.2535(4)
H18 H 0.0074 0.2778 0.2169
Cd1 Cd 0.72370(3) 0.45523(2) 0.176419(17)
N3_2 N 0.6574(4) 0.3322(3) 0.2081(2)
N4_2 N 0.5848(4) 0.2373(3) 0.2660(3)
O1_2 O 0.8805(3) 0.4629(3) 0.2835(2)
O2_2 O 0.9153(3) 0.4540(3) 0.18959(17)
C44_2 C 0.6855(5) 0.4800(4) 0.0552(3)
O14_2 O 0.6799(3) 0.5423(2) 0.09210(16)
O15_2 O 0.7085(3) 0.4074(2) 0.07485(16)
N13 N 0.6336(4) 0.5485(3) 0.2319(2)
Cd6_7 Cd -0.0000 -0.0000 1.0000
C20_2 C 0.1111(6) 0.7133(4) 0.2037(4)
C21_2 C 0.1628(6) 0.6912(4) 0.2589(4)
H13_2 H 0.1170 0.6682 0.2873
C22_2 C 0.2792(6) 0.7016(4) 0.2739(4)
H14_2 H 0.3108 0.6868 0.3123
C23_2 C 0.3506(6) 0.7339(4) 0.2322(4)
C24_2 C 0.3012(8) 0.7574(4) 0.1772(4)
H15_2 H 0.3464 0.7806 0.1486
C25_2 C 0.1801(7) 0.7459(4) 0.1642(4)
H16_2 H 0.1469 0.7619 0.1263
C26_2 C 0.4792(6) 0.7444(4) 0.2465(4)
H17_2 H 0.5110 0.7756 0.2140
H18_2 H 0.4926 0.7778 0.2831
C27_2 C 0.5812(5) 0.6173(4) 0.2112(3)
H19_2 H 0.5729 0.6323 0.1706
C28_2 C 0.6247(5) 0.5505(4) 0.2924(3)
H20_2 H 0.6536 0.5095 0.3197
C29_2 C 0.5678(5) 0.6208(4) 0.3068(3)
H21_2 H 0.5499 0.6372 0.3452
N2_2 N 0.5416(4) 0.6629(3) 0.2548(3)
Cd6_8 Cd -0.0000 1.0000 1.0000
C34_2 C 0.0426(5) 0.4303(3) 0.9731(3)
H26_2 H 0.0724 0.3833 0.9544
C37_2 C 0.1302(5) 0.8197(3) 0.9798(3)
H31_2 H 0.2022 0.8452 0.9893
C38_2 C 0.1160(5) 0.7395(3) 0.9601(3)
H32_2 H 0.1739 0.7006 0.9530
C42_2 C 0.0154(5) 0.5030(4) 0.9400(2)
H36_2 H 0.0255 0.5040 0.8989
N8_2 N 0.0269(4) 0.8587(2) 0.9841(2)
O16_2 O 0.1731(3) 0.0231(2) 0.95403(16)
H59_2 H 0.2478 0.0192 0.9760
H60_2 H 0.1967 0.0626 0.9331
loop_
_geom_bond_atom_site_label_1
_geom_bond_atom_site_label_2
_geom_bond_site_symmetry_1
_geom_bond_site_symmetry_2
C70 H56 1_555 1_555
C71 H57 1_555 1_555
C72 C71 1_555 1_555
H58 C72 1_555 1_555
N9 C70 1_555 1_555
C70 N10 1_555 1_555
C71 N9 1_555 1_555
C72 N10 1_555 1_555
C27 H19 1_555 1_555
C28 H20 1_555 1_555
C29 C28 1_555 1_555
H21 C29 1_555 1_555
N1 C27 1_555 1_555
C27 N2 1_555 1_555
C28 N1 1_555 1_555
C29 N2 1_555 1_555
C1 C2 1_555 1_555
H3 C6 1_555 1_555
C7 C2 1_555 1_555
H4 C7 1_555 1_555
C32 H24 1_555 1_555
H25 C32 1_555 1_555
C33 C32 1_555 1_555
C36 H28 1_555 1_555
O7 C1 1_555 1_555
C46 H38 1_555 1_555
C47 C46 1_555 1_555
H39 C47 1_555 1_555
C48 C47 1_555 1_555
C51 C52 1_555 1_555
C52 H42 1_555 1_555
C53 C52 1_555 1_555
C54 C53 1_555 1_555
H43 C54 1_555 1_555
C55 C54 1_555 1_555
C56 C51 1_555 1_555
H44 C56 1_555 1_555
C57 C55 1_555 1_555
C58 C53 1_555 1_555
C59 H45 1_555 1_555
C60 C59 1_555 1_555
H46 C60 1_555 1_555
C61 H47 1_555 1_555
C62 H48 1_555 1_555
H49 C62 1_555 1_555
N11 C59 1_555 1_555
N12 C60 1_555 1_555
O9 C58 1_555 1_555
O10 C58 1_555 1_555
O11 C48 1_555 1_555
O12 C57 1_555 1_555
O13 C57 1_555 1_555
Cd6_3 O12 1_555 1_555
C6 C7 1_555 1_555
C32 N5 1_555 1_555
C36 N5 1_555 1_555
O7 Cd5 1_555 1_555
C51 O11 1_555 1_555
C55 C56 1_555 1_555
C61 N11 1_555 1_555
C61 N12 1_555 1_555
C62 N12 1_555 1_555
Cd5 N11 1_555 1_555
Cd5 O10 1_555 1_555
C3 H1 1_555 1_555
C4 C3 1_555 1_555
H2 C4 1_555 1_555
C5 C4 1_555 1_555
C8 C9 1_555 1_555
C9 H5 1_555 1_555
C10 C9 1_555 1_555
C11 C10 1_555 1_555
H6 C11 1_555 1_555
C12 C11 1_555 1_555
C13 C8 1_555 1_555
H7 C13 1_555 1_555
C14 C12 1_555 1_555
C15 C10 1_555 1_555
C16 H8 1_555 1_555
C17 C16 1_555 1_555
H9 C17 1_555 1_555
C18 H10 1_555 1_555
C19 H11 1_555 1_555
H12 C19 1_555 1_555
Cd4 N3 1_555 1_555
N3 C16 1_555 1_555
N4 C17 1_555 1_555
O1 C15 1_555 1_555
O2 C15 1_555 1_555
O3 C5 1_555 1_555
O4 C14 1_555 1_555
O5 C14 1_555 1_555
C44 C45 1_555 1_555
H40 C49 1_555 1_555
C50 C45 1_555 1_555
H41 C50 1_555 1_555
O15 Cd4 1_555 1_555
C8 O3 1_555 1_555
C12 C13 1_555 1_555
C18 N3 1_555 1_555
C18 N4 1_555 1_555
C19 N4 1_555 1_555
Cd4 O2 1_555 1_555
Cd6_2 O4 1_555 1_555
C44 O15 1_555 1_555
C49 C50 1_555 1_555
C39 H33 1_555 1_555
H34 C39 1_555 1_555
C40 C39 1_555 1_555
C43 H37 1_555 1_555
C39 N7 1_555 1_555
C43 N7 1_555 1_555
C37 H31 1_555 1_555
C38 C37 1_555 1_555
H32 C38 1_555 1_555
C39_2 H33_2 1_555 1_555
H34_2 C39_2 1_555 1_555
C40_2 C39_2 1_555 1_555
H35 C41 1_555 1_555
H36 C42 1_555 1_555
C43_2 H37_2 1_555 1_555
N7_2 C38 1_555 1_555
N8 C37 1_555 1_555
Cd7 N8 1_555 1_555
C39_2 N7_2 1_555 1_555
C40_2 C41 1_555 1_555
C40_2 C42 1_555 1_555
C43_2 N7_2 1_555 1_555
C43_2 N8 1_555 1_555
C2_2 C3_2 1_555 1_555
C3_2 H1_2 1_555 1_555
C4_2 C3_2 1_555 1_555
H2_2 C4_2 1_555 1_555
C5_2 C4_2 1_555 1_555
C6_2 C5_2 1_555 1_555
H3_2 C6_2 1_555 1_555
C7_2 C2_2 1_555 1_555
H4_2 C7_2 1_555 1_555
C8_2 C9_2 1_555 1_555
C9_2 H5_2 1_555 1_555
C10_2 C9_2 1_555 1_555
C11_2 C10_2 1_555 1_555
H6_2 C11_2 1_555 1_555
C12_2 C11_2 1_555 1_555
C13_2 C8_2 1_555 1_555
H7_2 C13_2 1_555 1_555
C14_2 C12_2 1_555 1_555
C30 H22 1_555 1_555
C31 C30 1_555 1_555
H23 C31 1_555 1_555
C32_2 H24_2 1_555 1_555
H25_2 C32_2 1_555 1_555
C33_2 C32_2 1_555 1_555
C34 C33_2 1_555 1_555
H26 C34 1_555 1_555
C35 C33_2 1_555 1_555
H27 C35 1_555 1_555
C36_2 H28_2 1_555 1_555
Cd7 N6 1_555 1_555
N5_2 C31 1_555 1_555
N6 C30 1_555 1_555
O3_2 C5_2 1_555 1_555
O4_2 C14_2 1_555 1_555
O5_2 C14_2 1_555 1_555
O8 Cd7 1_555 1_555
H29 O8 1_555 1_555
H30 O8 1_555 1_555
O16 Cd7 1_555 1_555
H59 O16 1_555 1_555
H60 O16 1_555 1_555
O17 Cd7 1_555 1_555
C6_2 C7_2 1_555 1_555
C8_2 O3_2 1_555 1_555
C12_2 C13_2 1_555 1_555
C32_2 N5_2 1_555 1_555
C36_2 N5_2 1_555 1_555
C36_2 N6 1_555 1_555
Cd7 O4_2 1_555 1_555
C45_2 C46_2 1_555 1_555
C46_2 H38_2 1_555 1_555
C47_2 C46_2 1_555 1_555
H39_2 C47_2 1_555 1_555
C48_2 C47_2 1_555 1_555
C49_2 C48_2 1_555 1_555
H40_2 C49_2 1_555 1_555
C50_2 C45_2 1_555 1_555
H41_2 C50_2 1_555 1_555
C51_2 C52_2 1_555 1_555
C52_2 H42_2 1_555 1_555
C53_2 C52_2 1_555 1_555
C54_2 C53_2 1_555 1_555
H43_2 C54_2 1_555 1_555
C55_2 C54_2 1_555 1_555
C56_2 C51_2 1_555 1_555
H44_2 C56_2 1_555 1_555
C57_2 C55_2 1_555 1_555
O11_2 C48_2 1_555 1_555
O17 C57_2 1_555 1_555
O13_2 C57_2 1_555 1_555
C49_2 C50_2 1_555 1_555
C51_2 O11_2 1_555 1_555
C55_2 C56_2 1_555 1_555
O6_2 C1_2 1_555 1_555
O7_2 C1_2 1_555 1_555
C59_2 H45_2 1_555 1_555
C60_2 C59_2 1_555 1_555
H46_2 C60_2 1_555 1_555
C61_2 H47_2 1_555 1_555
C62_2 H48_2 1_555 1_555
H49_2 C62_2 1_555 1_555
C63 C62_2 1_555 1_555
C64 C63 1_555 1_555
H50 C64 1_555 1_555
C65 C64 1_555 1_555
H51 C65 1_555 1_555
C66 C65 1_555 1_555
C67 C66 1_555 1_555
H52 C67 1_555 1_555
C68 C63 1_555 1_555
H53 C68 1_555 1_555
C69 C66 1_555 1_555
H55 C69 1_555 1_555
Cd3 O6_2 1_555 1_555
N11_2 C59_2 1_555 1_555
N12_2 C60_2 1_555 1_555
O9_2 C58_2 1_555 1_555
O10_2 C58_2 1_555 1_555
N14 Cd3 1_555 1_555
O7_2 Cd3 1_555 1_555
C61_2 N11_2 1_555 1_555
C61_2 N12_2 1_555 1_555
C62_2 N12_2 1_555 1_555
C67 C68 1_555 1_555
Cd3 N11_2 1_555 1_555
Cd3 O10_2 1_555 1_555
C30_2 H22_2 1_555 1_555
C31_2 C30_2 1_555 1_555
H23_2 C31_2 1_555 1_555
H27_2 C35_2 1_555 1_555
Cd6_5 N6_2 1_555 1_555
N6_2 C30_2 1_555 1_555
C41_2 C35_2 1_555 1_555
H35_2 C41_2 1_555 1_555
C64_2 C63_2 1_555 1_555
H50_2 C64_2 1_555 1_555
C65_2 C64_2 1_555 1_555
H51_2 C65_2 1_555 1_555
C66_2 C65_2 1_555 1_555
C67_2 C66_2 1_555 1_555
H52_2 C67_2 1_555 1_555
C68_2 C63_2 1_555 1_555
H53_2 C68_2 1_555 1_555
C69_2 C66_2 1_555 1_555
H54_2 C69_2 1_555 1_555
H55_2 C69_2 1_555 1_555
C70_2 H56_2 1_555 1_555
C71_2 H57_2 1_555 1_555
C72_2 C71_2 1_555 1_555
H58_2 C72_2 1_555 1_555
N14 C70_2 1_555 1_555
N10_2 C69_2 1_555 1_555
C67_2 C68_2 1_555 1_555
C70_2 N10_2 1_555 1_555
C71_2 N14 1_555 1_555
C72_2 N10_2 1_555 1_555
O8_2 Cd6_6 1_555 1_555
H29_2 O8_2 1_555 1_555
H30_2 O8_2 1_555 1_555
C16_2 H8_2 1_555 1_555
C17_2 C16_2 1_555 1_555
H9_2 C17_2 1_555 1_555
C18_2 H10_2 1_555 1_555
C19_2 H11_2 1_555 1_555
H12_2 C19_2 1_555 1_555
C20 C19_2 1_555 1_555
C21 C20 1_555 1_555
H13 C21 1_555 1_555
C22 C21 1_555 1_555
H14 C22 1_555 1_555
C23 C22 1_555 1_555
C24 C23 1_555 1_555
H15 C24 1_555 1_555
C25 C20 1_555 1_555
H16 C25 1_555 1_555
C26 C23 1_555 1_555
H18 C26 1_555 1_555
Cd1 N3_2 1_555 1_555
N3_2 C16_2 1_555 1_555
N4_2 C17_2 1_555 1_555
O1_2 C15_2 1_555 1_555
O2_2 C15_2 1_555 1_555
O14_2 Cd1 1_555 1_555
O15_2 Cd1 1_555 1_555
N13 Cd1 1_555 1_555
C18_2 N3_2 1_555 1_555
C18_2 N4_2 1_555 1_555
C19_2 N4_2 1_555 1_555
C24 C25 1_555 1_555
Cd1 O2_2 1_555 1_555
C44_2 O14_2 1_555 1_555
C44_2 O15_2 1_555 1_555
C21_2 C20_2 1_555 1_555
H13_2 C21_2 1_555 1_555
C22_2 C21_2 1_555 1_555
H14_2 C22_2 1_555 1_555
C23_2 C22_2 1_555 1_555
C24_2 C23_2 1_555 1_555
H15_2 C24_2 1_555 1_555
C25_2 C20_2 1_555 1_555
H16_2 C25_2 1_555 1_555
C26_2 C23_2 1_555 1_555
H17_2 C26_2 1_555 1_555
H18_2 C26_2 1_555 1_555
C27_2 H19_2 1_555 1_555
C28_2 H20_2 1_555 1_555
C29_2 C28_2 1_555 1_555
H21_2 C29_2 1_555 1_555
N13 C27_2 1_555 1_555
N2_2 C26_2 1_555 1_555
C24_2 C25_2 1_555 1_555
C27_2 N2_2 1_555 1_555
C28_2 N13 1_555 1_555
C29_2 N2_2 1_555 1_555
H26_2 C34_2 1_555 1_555
C37_2 H31_2 1_555 1_555
C38_2 C37_2 1_555 1_555
H32_2 C38_2 1_555 1_555
C42_2 C34_2 1_555 1_555
H36_2 C42_2 1_555 1_555
N8_2 C37_2 1_555 1_555
O16_2 Cd6_7 1_555 1_555
H59_2 O16_2 1_555 1_555
H60_2 O16_2 1_555 1_555
Cd6_8 N8_2 1_555 1_555

#END
