
###############################################################################
#
# This file contains modified crystal structure data generated from the
# MOF subset of the Cambridge Structural Database (CSD) v543 
# hosted by the Cambridge Crystallographic Data Centre (CCDC).
#
# This work is licensed under the Creative Commons
# Attribution-NonCommercial-ShareAlike 4.0 International License.
# To view a copy of this license, visit
# http://creativecommons.org/licenses/by-nc-sa/4.0/
# or send a letter to
# Creative Commons, PO Box 1866, Mountain View, CA 94042, USA.
#
# CIF created using the CSD Python API on 29 September 2022
# The structure has been converted into the P1 space group
# The structure has a 3D framework
# The original CSD entry YORFIX is in the monoclinic crystal system
# The framework has been calculated to contain at least 10.0% void space
# The void calculation uses a probe of radius 1.32A, grid spacing 0.4
#
###############################################################################

data_YORFIX
_chemical_formula_moiety         '(C160 H112 Co8 N32 O40)n'
_symmetry_cell_setting           triclinic
_symmetry_space_group_name_H-M   'P 1'
_symmetry_Int_Tables_number      1
_space_group_name_Hall           'P 1'
loop_
_symmetry_equiv_pos_site_id
_symmetry_equiv_pos_as_xyz
1 x,y,z
_cell_length_a                   15.685(3)
_cell_length_b                   17.095(4)
_cell_length_c                   18.757(4)
_cell_angle_alpha                90
_cell_angle_beta                 99.516(3)
_cell_angle_gamma                90
_cell_volume                     4960.2
loop_
_atom_site_label
_atom_site_type_symbol
_atom_site_fract_x
_atom_site_fract_y
_atom_site_fract_z
Co1 Co 0.23445(2) 0.83810(2) 0.07125(2)
O1 O 0.22942(15) 0.72406(13) 0.09719(14)
O2 O 0.26891(15) 0.62643(15) 0.03117(12)
O3 O 0.25676(18) 0.46470(16) 0.39161(13)
O4 O 0.26712(17) 0.36854(16) 0.31843(14)
N1 N 0.09498(17) 0.84146(16) 0.05041(16)
C1 C 0.25020(19) 0.65466(18) 0.08877(17)
C2 C 0.2529(2) 0.60010(18) 0.15102(17)
C3 C 0.2543(3) 0.6284(2) 0.22090(19)
H2 H 0.252358 0.683187 0.229010
C4 C 0.2585(3) 0.5773(2) 0.27839(19)
H3 H 0.261442 0.597437 0.325953
C5 C 0.2584(2) 0.4970(2) 0.26764(18)
C6 C 0.2554(3) 0.4690(2) 0.1983(2)
H4 H 0.254929 0.414211 0.189867
C7 C 0.2532(3) 0.5203(2) 0.14072(19)
H5 H 0.251767 0.500068 0.093371
C8 C 0.2609(2) 0.4407(2) 0.32937(19)
C9 C 0.0484(2) 0.7941(2) 0.0870(2)
H6 H 0.078664 0.757912 0.120383
C13 C 0.0499(2) 0.8889(2) 0.0022(2)
Co3 Co 0.26555(2) 0.33810(2) 0.42875(2)
O7 O 0.24324(18) 0.96470(16) 0.10839(13)
O8 O 0.23288(17) 0.86854(16) 0.18157(14)
N5 N 0.37465(17) 0.83171(16) 0.08733(16)
H9 H 0.080763 0.921502 0.974327
Co4 Co 0.26555(2) 0.66190(2) 0.92875(2)
O6 O 0.23109(15) 0.87357(15) 0.96883(12)
O5 O 0.6842(2) 0.7557(3) 0.1491(3)
N2 N 0.77855(17) 0.82076(19) 0.06554(19)
N3 N 0.68973(18) 0.83173(17) 0.05567(18)
H1 H 0.662503 0.859482 0.019395
C10 C 0.9601(2) 0.7955(3) 0.0786(2)
H7 H 0.930360 0.761003 0.105694
C11 C 0.9143(2) 0.8478(2) 0.0301(2)
C14 C 0.8181(2) 0.8541(2) 0.0172(2)
C15 C 0.6481(2) 0.7985(2) 0.1033(2)
C16 C 0.5534(2) 0.8123(2) 0.0966(2)
C17 C 0.5075(2) 0.7716(3) 0.1411(2)
H11 H 0.536444 0.736355 0.176153
C18 C 0.4189(2) 0.7823(3) 0.1345(2)
H12 H 0.388322 0.753022 0.165161
C19 C 0.4201(2) 0.8726(2) 0.0452(2)
H13 H 0.390029 0.908785 0.011655
C20 C 0.5076(2) 0.8648(3) 0.0481(2)
H14 H 0.536740 0.895108 0.017128
N4 N 0.12535(17) 0.33171(16) 0.41267(16)
C18_2 C 0.0811(2) 0.2823(3) 0.3655(2)
H12_2 H 0.111678 0.253022 0.334839
C19_2 C 0.0799(2) 0.3726(2) 0.4548(2)
H13_2 H 0.109971 0.408785 0.488345
O1_2 O 0.27058(15) 0.22406(13) 0.40281(14)
O2_2 O 0.23109(15) 0.12643(15) 0.46883(12)
O5_2 O 0.8158(2) 0.2557(3) 0.3509(3)
N1_2 N 0.40502(17) 0.34146(16) 0.44959(16)
N2_2 N 0.72145(17) 0.32076(19) 0.43446(19)
N3_2 N 0.81027(18) 0.33173(17) 0.44433(18)
H1_2 H 0.837497 0.359482 0.480605
C1_2 C 0.24980(19) 0.15466(18) 0.41123(17)
C2_2 C 0.2471(2) 0.10010(18) 0.34898(17)
C3_2 C 0.2457(3) 0.1284(2) 0.27910(19)
H2_2 H 0.247642 0.183187 0.270990
C4_2 C 0.2415(3) 0.0773(2) 0.22161(19)
H3_2 H 0.238558 0.097437 0.174047
C7_2 C 0.2468(3) 0.0203(2) 0.35928(19)
H5_2 H 0.248233 0.000068 0.406629
C9_2 C 0.4516(2) 0.2941(2) 0.4130(2)
H6_2 H 0.421336 0.257912 0.379617
C10_2 C 0.5399(2) 0.2955(3) 0.4214(2)
H7_2 H 0.569640 0.261003 0.394306
C11_2 C 0.5857(2) 0.3478(2) 0.4699(2)
C12 C 0.5390(2) 0.3935(2) 0.5099(2)
H8 H 0.567876 0.428014 0.545605
C13_2 C 0.4501(2) 0.3889(2) 0.4978(2)
H9_2 H 0.419237 0.421502 0.525673
C14_2 C 0.6819(2) 0.3541(2) 0.4828(2)
H10 H 0.712624 0.380750 0.523591
C15_2 C 0.8519(2) 0.2985(2) 0.3967(2)
C16_2 C 0.9466(2) 0.3123(2) 0.4034(2)
C17_2 C 0.9925(2) 0.2716(3) 0.3589(2)
H11_2 H 0.963556 0.236355 0.323847
C20_2 C 0.9924(2) 0.3648(3) 0.4519(2)
H14_2 H 0.963260 0.395108 0.482872
Co4_2 Co 0.23445(2) 0.16190(2) 0.57125(2)
O6_2 O 0.26891(15) 0.37357(15) 0.53117(12)
C5_2 C 0.2416(2) 0.9970(2) 0.23236(18)
C6_2 C 0.2446(3) 0.9690(2) 0.3017(2)
H4_2 H 0.245071 0.914211 0.310133
C8_2 C 0.2391(2) 0.9407(2) 0.17063(19)
O1_3 O 0.22942(15) 0.27594(13) 0.59719(14)
O3_2 O 0.25676(18) 0.53530(16) 0.89161(13)
O4_2 O 0.26712(17) 0.63146(16) 0.81843(14)
N1_3 N 0.09498(17) 0.15854(16) 0.55041(16)
C1_3 C 0.25020(19) 0.34534(18) 0.58877(17)
C2_3 C 0.2529(2) 0.39990(18) 0.65102(17)
C3_3 C 0.2543(3) 0.3716(2) 0.72090(19)
H2_3 H 0.252358 0.316813 0.729010
C4_3 C 0.2585(3) 0.4227(2) 0.77839(19)
H3_3 H 0.261442 0.402563 0.825953
C5_3 C 0.2584(2) 0.5030(2) 0.76764(18)
C6_3 C 0.2554(3) 0.5310(2) 0.6983(2)
H4_3 H 0.254929 0.585789 0.689867
C7_3 C 0.2532(3) 0.4797(2) 0.64072(19)
H5_3 H 0.251767 0.499932 0.593371
C8_3 C 0.2609(2) 0.5593(2) 0.82937(19)
C9_3 C 0.0484(2) 0.2059(2) 0.5870(2)
H6_3 H 0.078664 0.242088 0.620383
C13_3 C 0.0499(2) 0.1111(2) 0.5022(2)
H9_3 H 0.080763 0.078498 0.474327
O7_2 O 0.24324(18) 0.03530(16) 0.60839(13)
O8_2 O 0.23288(17) 0.13146(16) 0.68157(14)
N5_2 N 0.37465(17) 0.16829(16) 0.58733(16)
O5_3 O 0.6842(2) 0.2443(3) 0.6491(3)
N2_3 N 0.77855(17) 0.17924(19) 0.56554(19)
N3_3 N 0.68973(18) 0.16827(17) 0.55567(18)
H1_3 H 0.662503 0.140518 0.519395
C10_3 C 0.9601(2) 0.2045(3) 0.5786(2)
H7_3 H 0.930360 0.238997 0.605694
C11_3 C 0.9143(2) 0.1522(2) 0.5301(2)
C12_2 C 0.9610(2) 0.1065(2) 0.4901(2)
H8_2 H 0.932124 0.071986 0.454395
C14_3 C 0.8181(2) 0.1459(2) 0.5172(2)
H10_2 H 0.787376 0.119250 0.476409
C15_3 C 0.6481(2) 0.2015(2) 0.6033(2)
C16_3 C 0.5534(2) 0.1877(2) 0.5966(2)
C17_3 C 0.5075(2) 0.2284(3) 0.6411(2)
H11_3 H 0.536444 0.263645 0.676153
C18_3 C 0.4189(2) 0.2177(3) 0.6345(2)
H12_3 H 0.388322 0.246978 0.665161
C19_3 C 0.4201(2) 0.1274(2) 0.5452(2)
H13_3 H 0.390029 0.091215 0.511655
C20_3 C 0.5076(2) 0.1352(3) 0.5481(2)
H14_3 H 0.536740 0.104892 0.517128
N4_2 N 0.12535(17) 0.66829(16) 0.91267(16)
C18_4 C 0.0811(2) 0.7177(3) 0.8655(2)
H12_4 H 0.111678 0.746978 0.834839
C19_4 C 0.0799(2) 0.6274(2) 0.9548(2)
H13_4 H 0.109971 0.591215 0.988345
C5_4 C 0.2416(2) 0.0030(2) 0.73236(18)
C6_4 C 0.2446(3) 0.0310(2) 0.8017(2)
H4_4 H 0.245071 0.085789 0.810133
C8_4 C 0.2391(2) 0.0593(2) 0.67063(19)
C12_3 C 0.5390(2) 0.6065(2) 0.0099(2)
H8_3 H 0.567876 0.571986 0.045605
H9_4 H 0.419237 0.578498 0.025673
H10_3 H 0.712624 0.619250 0.023591
O1_4 O 0.27058(15) 0.77594(13) 0.90281(14)
O5_4 O 0.8158(2) 0.7443(3) 0.8509(3)
N1_4 N 0.40502(17) 0.65854(16) 0.94959(16)
N2_4 N 0.72145(17) 0.67924(19) 0.93446(19)
N3_4 N 0.81027(18) 0.66827(17) 0.94433(18)
H1_4 H 0.837497 0.640518 0.980605
C1_4 C 0.24980(19) 0.84534(18) 0.91123(17)
C2_4 C 0.2471(2) 0.89990(18) 0.84898(17)
C3_4 C 0.2457(3) 0.8716(2) 0.77910(19)
H2_4 H 0.247642 0.816813 0.770990
C4_4 C 0.2415(3) 0.9227(2) 0.72161(19)
H3_4 H 0.238558 0.902563 0.674047
C7_4 C 0.2468(3) 0.9797(2) 0.85928(19)
H5_4 H 0.248233 0.999932 0.906629
C9_4 C 0.4516(2) 0.7059(2) 0.9130(2)
H6_4 H 0.421336 0.742088 0.879617
C10_4 C 0.5399(2) 0.7045(3) 0.9214(2)
H7_4 H 0.569640 0.738997 0.894306
C11_4 C 0.5857(2) 0.6522(2) 0.9699(2)
C13_4 C 0.4501(2) 0.6111(2) 0.9978(2)
C14_4 C 0.6819(2) 0.6459(2) 0.9828(2)
C15_4 C 0.8519(2) 0.7015(2) 0.8967(2)
C16_4 C 0.9466(2) 0.6877(2) 0.9034(2)
C17_4 C 0.9925(2) 0.7284(3) 0.8589(2)
H11_4 H 0.963556 0.763645 0.823847
C20_4 C 0.9924(2) 0.6352(3) 0.9519(2)
H14_4 H 0.963260 0.604892 0.982872
C12_4 C 0.9610(2) 0.8935(2) 0.9901(2)
H8_4 H 0.932124 0.928014 0.954395
H10_4 H 0.787376 0.880750 0.976409
O5_5 O 0.3158(2) 0.7557(3) 0.3509(3)
N2_5 N 0.22145(17) 0.82076(19) 0.43446(19)
N3_5 N 0.31027(18) 0.83173(17) 0.44433(18)
H1_5 H 0.337497 0.859482 0.480605
N4_3 N 0.62535(17) 0.83171(16) 0.41267(16)
C10_5 C 0.0399(2) 0.7955(3) 0.4214(2)
H7_5 H 0.069640 0.761003 0.394306
C11_5 C 0.0857(2) 0.8478(2) 0.4699(2)
C12_5 C 0.0390(2) 0.8935(2) 0.5099(2)
H8_5 H 0.067876 0.928014 0.545605
C14_5 C 0.1819(2) 0.8541(2) 0.4828(2)
H10_5 H 0.212624 0.880750 0.523591
C15_5 C 0.3519(2) 0.7985(2) 0.3967(2)
C16_5 C 0.4466(2) 0.8123(2) 0.4034(2)
C17_5 C 0.4925(2) 0.7716(3) 0.3589(2)
H11_5 H 0.463556 0.736355 0.323847
C18_5 C 0.5811(2) 0.7823(3) 0.3655(2)
H12_5 H 0.611678 0.753022 0.334839
C19_5 C 0.5799(2) 0.8726(2) 0.4548(2)
H13_5 H 0.609971 0.908785 0.488345
C20_5 C 0.4924(2) 0.8648(3) 0.4519(2)
H14_5 H 0.463260 0.895108 0.482872
Co2 Co 0.76555(2) 0.83810(2) 0.42875(2)
O1_5 O 0.77058(15) 0.72406(13) 0.40281(14)
O2_3 O 0.73109(15) 0.62643(15) 0.46883(12)
O3_3 O 0.74324(18) 0.46470(16) 0.10839(13)
O4_3 O 0.73288(17) 0.36854(16) 0.18157(14)
N1_5 N 0.90502(17) 0.84146(16) 0.44959(16)
C1_5 C 0.74980(19) 0.65466(18) 0.41123(17)
C2_5 C 0.7471(2) 0.60010(18) 0.34898(17)
C3_5 C 0.7457(3) 0.6284(2) 0.27910(19)
H2_5 H 0.747642 0.683187 0.270990
C4_5 C 0.7415(3) 0.5773(2) 0.22161(19)
H3_5 H 0.738558 0.597437 0.174047
C5_5 C 0.7416(2) 0.4970(2) 0.23236(18)
C6_5 C 0.7446(3) 0.4690(2) 0.3017(2)
H4_5 H 0.745071 0.414211 0.310133
C7_5 C 0.7468(3) 0.5203(2) 0.35928(19)
H5_5 H 0.748233 0.500068 0.406629
C8_5 C 0.7391(2) 0.4407(2) 0.17063(19)
C9_5 C 0.9516(2) 0.7941(2) 0.4130(2)
H6_5 H 0.921336 0.757912 0.379617
C13_5 C 0.9501(2) 0.8889(2) 0.4978(2)
H9_5 H 0.919237 0.921502 0.525673
Co3_2 Co 0.73445(2) 0.33810(2) 0.07125(2)
Co4_3 Co 0.73445(2) 0.66190(2) 0.57125(2)
O6_3 O 0.76891(15) 0.87357(15) 0.53117(12)
O7_3 O 0.75676(18) 0.96470(16) 0.39161(13)
O8_3 O 0.76712(17) 0.86854(16) 0.31843(14)
O1_6 O 0.72942(15) 0.22406(13) 0.09719(14)
O2_4 O 0.76891(15) 0.12643(15) 0.03117(12)
O5_6 O 0.1842(2) 0.2557(3) 0.1491(3)
N1_6 N 0.59498(17) 0.34146(16) 0.05041(16)
N2_6 N 0.27855(17) 0.32076(19) 0.06554(19)
N3_6 N 0.18973(18) 0.33173(17) 0.05567(18)
H1_6 H 0.162503 0.359482 0.019395
C1_6 C 0.75020(19) 0.15466(18) 0.08877(17)
C2_6 C 0.7529(2) 0.10010(18) 0.15102(17)
C3_6 C 0.7543(3) 0.1284(2) 0.22090(19)
H2_6 H 0.752358 0.183187 0.229010
C4_6 C 0.7585(3) 0.0773(2) 0.27839(19)
H3_6 H 0.761442 0.097437 0.325953
C7_6 C 0.7532(3) 0.0203(2) 0.14072(19)
H5_6 H 0.751767 0.000068 0.093371
C9_6 C 0.5484(2) 0.2941(2) 0.0870(2)
H6_6 H 0.578664 0.257912 0.120383
C10_6 C 0.4601(2) 0.2955(3) 0.0786(2)
H7_6 H 0.430360 0.261003 0.105694
C11_6 C 0.4143(2) 0.3478(2) 0.0301(2)
C13_6 C 0.5499(2) 0.3889(2) 0.0022(2)
C14_6 C 0.3181(2) 0.3541(2) 0.0172(2)
C15_6 C 0.1481(2) 0.2985(2) 0.1033(2)
C16_6 C 0.0534(2) 0.3123(2) 0.0966(2)
C17_6 C 0.0075(2) 0.2716(3) 0.1411(2)
H11_6 H 0.036444 0.236355 0.176153
C20_6 C 0.0076(2) 0.3648(3) 0.0481(2)
H14_6 H 0.036740 0.395108 0.017128
N5_3 N 0.87465(17) 0.33171(16) 0.08733(16)
C12_6 C 0.4610(2) 0.3935(2) 0.9901(2)
H8_6 H 0.432124 0.428014 0.954395
H9_6 H 0.580763 0.421502 0.974327
H10_6 H 0.287376 0.380750 0.976409
Co4_4 Co 0.76555(2) 0.16190(2) 0.92875(2)
O6_4 O 0.73109(15) 0.37357(15) 0.96883(12)
C5_6 C 0.7584(2) 0.9970(2) 0.26764(18)
C6_6 C 0.7554(3) 0.9690(2) 0.1983(2)
H4_6 H 0.754929 0.914211 0.189867
C8_6 C 0.7609(2) 0.9407(2) 0.32937(19)
C18_6 C 0.9189(2) 0.2823(3) 0.1345(2)
H12_6 H 0.888322 0.253022 0.165161
C19_6 C 0.9201(2) 0.3726(2) 0.0452(2)
H13_6 H 0.890029 0.408785 0.011655
O5_7 O 0.3158(2) 0.2443(3) 0.8509(3)
N2_7 N 0.22145(17) 0.17924(19) 0.93446(19)
N3_7 N 0.31027(18) 0.16827(17) 0.94433(18)
H1_7 H 0.337497 0.140518 0.980605
N4_4 N 0.62535(17) 0.16829(16) 0.91267(16)
C10_7 C 0.0399(2) 0.2045(3) 0.9214(2)
H7_7 H 0.069640 0.238997 0.894306
C11_7 C 0.0857(2) 0.1522(2) 0.9699(2)
C14_7 C 0.1819(2) 0.1459(2) 0.9828(2)
C15_7 C 0.3519(2) 0.2015(2) 0.8967(2)
C16_7 C 0.4466(2) 0.1877(2) 0.9034(2)
C17_7 C 0.4925(2) 0.2284(3) 0.8589(2)
H11_7 H 0.463556 0.263645 0.823847
C18_7 C 0.5811(2) 0.2177(3) 0.8655(2)
H12_7 H 0.611678 0.246978 0.834839
C19_7 C 0.5799(2) 0.1274(2) 0.9548(2)
H13_7 H 0.609971 0.091215 0.988345
C20_7 C 0.4924(2) 0.1352(3) 0.9519(2)
H14_7 H 0.463260 0.104892 0.982872
H9_7 H 0.919237 0.078498 0.025673
O1_7 O 0.77058(15) 0.27594(13) 0.90281(14)
O3_4 O 0.74324(18) 0.53530(16) 0.60839(13)
O4_4 O 0.73288(17) 0.63146(16) 0.68157(14)
N1_7 N 0.90502(17) 0.15854(16) 0.94959(16)
C1_7 C 0.74980(19) 0.34534(18) 0.91123(17)
C2_7 C 0.7471(2) 0.39990(18) 0.84898(17)
C3_7 C 0.7457(3) 0.3716(2) 0.77910(19)
H2_7 H 0.747642 0.316813 0.770990
C4_7 C 0.7415(3) 0.4227(2) 0.72161(19)
H3_7 H 0.738558 0.402563 0.674047
C5_7 C 0.7416(2) 0.5030(2) 0.73236(18)
C6_7 C 0.7446(3) 0.5310(2) 0.8017(2)
H4_7 H 0.745071 0.585789 0.810133
C7_7 C 0.7468(3) 0.4797(2) 0.85928(19)
H5_7 H 0.748233 0.499932 0.906629
C8_7 C 0.7391(2) 0.5593(2) 0.67063(19)
C9_7 C 0.9516(2) 0.2059(2) 0.9130(2)
H6_7 H 0.921336 0.242088 0.879617
C13_7 C 0.9501(2) 0.1111(2) 0.9978(2)
O7_4 O 0.75676(18) 0.03530(16) 0.89161(13)
O8_4 O 0.76712(17) 0.13146(16) 0.81843(14)
C5_8 C 0.7584(2) 0.0030(2) 0.76764(18)
C6_8 C 0.7554(3) 0.0310(2) 0.6983(2)
H4_8 H 0.754929 0.085789 0.689867
C8_8 C 0.7609(2) 0.0593(2) 0.82937(19)
O1_8 O 0.72942(15) 0.77594(13) 0.59719(14)
O5_8 O 0.1842(2) 0.7443(3) 0.6491(3)
N1_8 N 0.59498(17) 0.65854(16) 0.55041(16)
N2_8 N 0.27855(17) 0.67924(19) 0.56554(19)
N3_8 N 0.18973(18) 0.66827(17) 0.55567(18)
H1_8 H 0.162503 0.640518 0.519395
C1_8 C 0.75020(19) 0.84534(18) 0.58877(17)
C2_8 C 0.7529(2) 0.89990(18) 0.65102(17)
C3_8 C 0.7543(3) 0.8716(2) 0.72090(19)
H2_8 H 0.752358 0.816813 0.729010
C4_8 C 0.7585(3) 0.9227(2) 0.77839(19)
H3_8 H 0.761442 0.902563 0.825953
C7_8 C 0.7532(3) 0.9797(2) 0.64072(19)
H5_8 H 0.751767 0.999932 0.593371
C9_8 C 0.5484(2) 0.7059(2) 0.5870(2)
H6_8 H 0.578664 0.742088 0.620383
C10_8 C 0.4601(2) 0.7045(3) 0.5786(2)
H7_8 H 0.430360 0.738997 0.605694
C11_8 C 0.4143(2) 0.6522(2) 0.5301(2)
C12_7 C 0.4610(2) 0.6065(2) 0.4901(2)
H8_7 H 0.432124 0.571986 0.454395
C13_8 C 0.5499(2) 0.6111(2) 0.5022(2)
H9_8 H 0.580763 0.578498 0.474327
C14_8 C 0.3181(2) 0.6459(2) 0.5172(2)
H10_7 H 0.287376 0.619250 0.476409
C15_8 C 0.1481(2) 0.7015(2) 0.6033(2)
C16_8 C 0.0534(2) 0.6877(2) 0.5966(2)
C17_8 C 0.0075(2) 0.7284(3) 0.6411(2)
H11_8 H 0.036444 0.763645 0.676153
C20_8 C 0.0076(2) 0.6352(3) 0.5481(2)
H14_8 H 0.036740 0.604892 0.517128
N5_4 N 0.87465(17) 0.66829(16) 0.58733(16)
C18_8 C 0.9189(2) 0.7177(3) 0.6345(2)
H12_8 H 0.888322 0.746978 0.665161
C19_8 C 0.9201(2) 0.6274(2) 0.5452(2)
H13_8 H 0.890029 0.591215 0.511655
C12_8 C 0.0390(2) 0.1065(2) 0.0099(2)
H8_8 H 0.067876 0.071986 0.045605
H10_8 H 0.212624 0.119250 0.023591
loop_
_geom_bond_atom_site_label_1
_geom_bond_atom_site_label_2
_geom_bond_site_symmetry_1
_geom_bond_site_symmetry_2
Co1 O1 1_555 1_555
O1 C1 1_555 1_555
O2 C1 1_555 1_555
O3 C8 1_555 1_555
O4 C8 1_555 1_555
N1 Co1 1_555 1_555
C1 C2 1_555 1_555
C2 C3 1_555 1_555
C3 H2 1_555 1_555
C4 C3 1_555 1_555
H3 C4 1_555 1_555
C5 C4 1_555 1_555
C6 C5 1_555 1_555
H4 C6 1_555 1_555
C7 C2 1_555 1_555
H5 C7 1_555 1_555
C8 C5 1_555 1_555
C9 N1 1_555 1_555
H6 C9 1_555 1_555
C13 N1 1_555 1_555
Co3 O3 1_555 1_555
O7 Co1 1_555 1_555
O8 Co1 1_555 1_555
N5 Co1 1_555 1_555
O4 Co3 1_555 1_555
C6 C7 1_555 1_555
O5 C15 1_555 1_555
N2 N3 1_555 1_555
N3 H1 1_555 1_555
N5 C18 1_555 1_555
H7 C10 1_555 1_555
C11 C10 1_555 1_555
C14 N2 1_555 1_555
C15 N3 1_555 1_555
C16 C15 1_555 1_555
C17 C16 1_555 1_555
H11 C17 1_555 1_555
C18 C17 1_555 1_555
H12 C18 1_555 1_555
C19 N5 1_555 1_555
H13 C19 1_555 1_555
C20 C16 1_555 1_555
H14 C20 1_555 1_555
C11 C14 1_555 1_555
C19 C20 1_555 1_555
N4 C18_2 1_555 1_555
H12_2 C18_2 1_555 1_555
C19_2 N4 1_555 1_555
H13_2 C19_2 1_555 1_555
Co3 N4 1_555 1_555
Co3 O1_2 1_555 1_555
O1_2 C1_2 1_555 1_555
O2_2 C1_2 1_555 1_555
O5_2 C15_2 1_555 1_555
N1_2 Co3 1_555 1_555
N2_2 N3_2 1_555 1_555
N3_2 H1_2 1_555 1_555
C1_2 C2_2 1_555 1_555
C2_2 C3_2 1_555 1_555
C3_2 H2_2 1_555 1_555
C4_2 C3_2 1_555 1_555
H3_2 C4_2 1_555 1_555
C7_2 C2_2 1_555 1_555
H5_2 C7_2 1_555 1_555
C9_2 N1_2 1_555 1_555
H6_2 C9_2 1_555 1_555
C10_2 C9_2 1_555 1_555
H7_2 C10_2 1_555 1_555
C11_2 C10_2 1_555 1_555
C12 C11_2 1_555 1_555
H8 C12 1_555 1_555
C13_2 N1_2 1_555 1_555
H9_2 C13_2 1_555 1_555
C14_2 N2_2 1_555 1_555
H10 C14_2 1_555 1_555
C15_2 N3_2 1_555 1_555
C16_2 C15_2 1_555 1_555
C17_2 C16_2 1_555 1_555
H11_2 C17_2 1_555 1_555
C20_2 C16_2 1_555 1_555
H14_2 C20_2 1_555 1_555
Co4_2 O2_2 1_555 1_555
O6_2 Co3 1_555 1_555
C11_2 C14_2 1_555 1_555
C12 C13_2 1_555 1_555
O7 C8_2 1_555 1_555
O8 C8_2 1_555 1_555
C6_2 C5_2 1_555 1_555
H4_2 C6_2 1_555 1_555
C8_2 C5_2 1_555 1_555
Co4_2 O1_3 1_555 1_555
O1_3 C1_3 1_555 1_555
O6_2 C1_3 1_555 1_555
O3_2 C8_3 1_555 1_555
O4_2 C8_3 1_555 1_555
N1_3 Co4_2 1_555 1_555
C1_3 C2_3 1_555 1_555
C2_3 C3_3 1_555 1_555
C3_3 H2_3 1_555 1_555
C4_3 C3_3 1_555 1_555
H3_3 C4_3 1_555 1_555
C5_3 C4_3 1_555 1_555
C6_3 C5_3 1_555 1_555
H4_3 C6_3 1_555 1_555
C7_3 C2_3 1_555 1_555
H5_3 C7_3 1_555 1_555
C8_3 C5_3 1_555 1_555
C9_3 N1_3 1_555 1_555
H6_3 C9_3 1_555 1_555
C13_3 N1_3 1_555 1_555
H9_3 C13_3 1_555 1_555
Co4 O3_2 1_555 1_555
O7_2 Co4_2 1_555 1_555
O8_2 Co4_2 1_555 1_555
N5_2 Co4_2 1_555 1_555
O4_2 Co4 1_555 1_555
C6_3 C7_3 1_555 1_555
O5_3 C15_3 1_555 1_555
N2_3 N3_3 1_555 1_555
N3_3 H1_3 1_555 1_555
N5_2 C18_3 1_555 1_555
H7_3 C10_3 1_555 1_555
C11_3 C10_3 1_555 1_555
C12_2 C11_3 1_555 1_555
H8_2 C12_2 1_555 1_555
C14_3 N2_3 1_555 1_555
H10_2 C14_3 1_555 1_555
C15_3 N3_3 1_555 1_555
C16_3 C15_3 1_555 1_555
C17_3 C16_3 1_555 1_555
H11_3 C17_3 1_555 1_555
C18_3 C17_3 1_555 1_555
H12_3 C18_3 1_555 1_555
C19_3 N5_2 1_555 1_555
H13_3 C19_3 1_555 1_555
C20_3 C16_3 1_555 1_555
H14_3 C20_3 1_555 1_555
C11_3 C14_3 1_555 1_555
C19_3 C20_3 1_555 1_555
N4_2 C18_4 1_555 1_555
H12_4 C18_4 1_555 1_555
C19_4 N4_2 1_555 1_555
H13_4 C19_4 1_555 1_555
Co4 N4_2 1_555 1_555
O7_2 C8_4 1_555 1_555
O8_2 C8_4 1_555 1_555
C6_4 C5_4 1_555 1_555
H4_4 C6_4 1_555 1_555
C8_4 C5_4 1_555 1_555
H8_3 C12_3 1_555 1_555
Co4 O1_4 1_555 1_555
O1_4 C1_4 1_555 1_555
O6 C1_4 1_555 1_555
O5_4 C15_4 1_555 1_555
N1_4 Co4 1_555 1_555
N2_4 N3_4 1_555 1_555
N3_4 H1_4 1_555 1_555
C1_4 C2_4 1_555 1_555
C2_4 C3_4 1_555 1_555
C3_4 H2_4 1_555 1_555
C4_4 C3_4 1_555 1_555
H3_4 C4_4 1_555 1_555
C7_4 C2_4 1_555 1_555
H5_4 C7_4 1_555 1_555
C9_4 N1_4 1_555 1_555
H6_4 C9_4 1_555 1_555
C10_4 C9_4 1_555 1_555
H7_4 C10_4 1_555 1_555
C11_4 C10_4 1_555 1_555
C13_4 N1_4 1_555 1_555
C14_4 N2_4 1_555 1_555
C15_4 N3_4 1_555 1_555
C16_4 C15_4 1_555 1_555
C17_4 C16_4 1_555 1_555
H11_4 C17_4 1_555 1_555
C20_4 C16_4 1_555 1_555
H14_4 C20_4 1_555 1_555
C11_4 C14_4 1_555 1_555
H8_4 C12_4 1_555 1_555
O5_5 C15_5 1_555 1_555
N2_5 N3_5 1_555 1_555
N3_5 H1_5 1_555 1_555
N4_3 C18_5 1_555 1_555
H7_5 C10_5 1_555 1_555
C11_5 C10_5 1_555 1_555
C12_5 C11_5 1_555 1_555
H8_5 C12_5 1_555 1_555
C14_5 N2_5 1_555 1_555
H10_5 C14_5 1_555 1_555
C15_5 N3_5 1_555 1_555
C16_5 C15_5 1_555 1_555
C17_5 C16_5 1_555 1_555
H11_5 C17_5 1_555 1_555
C18_5 C17_5 1_555 1_555
H12_5 C18_5 1_555 1_555
C19_5 N4_3 1_555 1_555
H13_5 C19_5 1_555 1_555
C20_5 C16_5 1_555 1_555
H14_5 C20_5 1_555 1_555
Co2 N4_3 1_555 1_555
C11_5 C14_5 1_555 1_555
C19_5 C20_5 1_555 1_555
Co2 O1_5 1_555 1_555
O1_5 C1_5 1_555 1_555
O2_3 C1_5 1_555 1_555
O3_3 C8_5 1_555 1_555
O4_3 C8_5 1_555 1_555
N1_5 Co2 1_555 1_555
C1_5 C2_5 1_555 1_555
C2_5 C3_5 1_555 1_555
C3_5 H2_5 1_555 1_555
C4_5 C3_5 1_555 1_555
H3_5 C4_5 1_555 1_555
C5_5 C4_5 1_555 1_555
C6_5 C5_5 1_555 1_555
H4_5 C6_5 1_555 1_555
C7_5 C2_5 1_555 1_555
H5_5 C7_5 1_555 1_555
C8_5 C5_5 1_555 1_555
C9_5 N1_5 1_555 1_555
H6_5 C9_5 1_555 1_555
C13_5 N1_5 1_555 1_555
H9_5 C13_5 1_555 1_555
Co3_2 O3_3 1_555 1_555
Co4_3 O2_3 1_555 1_555
O6_3 Co2 1_555 1_555
O7_3 Co2 1_555 1_555
O8_3 Co2 1_555 1_555
O4_3 Co3_2 1_555 1_555
C6_5 C7_5 1_555 1_555
Co3_2 O1_6 1_555 1_555
O1_6 C1_6 1_555 1_555
O2_4 C1_6 1_555 1_555
O5_6 C15_6 1_555 1_555
N1_6 Co3_2 1_555 1_555
N2_6 N3_6 1_555 1_555
N3_6 H1_6 1_555 1_555
C1_6 C2_6 1_555 1_555
C2_6 C3_6 1_555 1_555
C3_6 H2_6 1_555 1_555
C4_6 C3_6 1_555 1_555
H3_6 C4_6 1_555 1_555
C7_6 C2_6 1_555 1_555
H5_6 C7_6 1_555 1_555
C9_6 N1_6 1_555 1_555
H6_6 C9_6 1_555 1_555
C10_6 C9_6 1_555 1_555
H7_6 C10_6 1_555 1_555
C11_6 C10_6 1_555 1_555
C13_6 N1_6 1_555 1_555
C14_6 N2_6 1_555 1_555
C15_6 N3_6 1_555 1_555
C16_6 C15_6 1_555 1_555
C17_6 C16_6 1_555 1_555
H11_6 C17_6 1_555 1_555
C20_6 C16_6 1_555 1_555
H14_6 C20_6 1_555 1_555
N5_3 Co3_2 1_555 1_555
C11_6 C14_6 1_555 1_555
H8_6 C12_6 1_555 1_555
O7_3 C8_6 1_555 1_555
O8_3 C8_6 1_555 1_555
C6_6 C5_6 1_555 1_555
H4_6 C6_6 1_555 1_555
C8_6 C5_6 1_555 1_555
N5_3 C18_6 1_555 1_555
H12_6 C18_6 1_555 1_555
C19_6 N5_3 1_555 1_555
H13_6 C19_6 1_555 1_555
O5_7 C15_7 1_555 1_555
N2_7 N3_7 1_555 1_555
N3_7 H1_7 1_555 1_555
N4_4 C18_7 1_555 1_555
H7_7 C10_7 1_555 1_555
C11_7 C10_7 1_555 1_555
C14_7 N2_7 1_555 1_555
C15_7 N3_7 1_555 1_555
C16_7 C15_7 1_555 1_555
C17_7 C16_7 1_555 1_555
H11_7 C17_7 1_555 1_555
C18_7 C17_7 1_555 1_555
H12_7 C18_7 1_555 1_555
C19_7 N4_4 1_555 1_555
H13_7 C19_7 1_555 1_555
C20_7 C16_7 1_555 1_555
H14_7 C20_7 1_555 1_555
Co4_4 N4_4 1_555 1_555
C11_7 C14_7 1_555 1_555
C19_7 C20_7 1_555 1_555
Co4_4 O1_7 1_555 1_555
O1_7 C1_7 1_555 1_555
O6_4 C1_7 1_555 1_555
O3_4 C8_7 1_555 1_555
O4_4 C8_7 1_555 1_555
N1_7 Co4_4 1_555 1_555
C1_7 C2_7 1_555 1_555
C2_7 C3_7 1_555 1_555
C3_7 H2_7 1_555 1_555
C4_7 C3_7 1_555 1_555
H3_7 C4_7 1_555 1_555
C5_7 C4_7 1_555 1_555
C6_7 C5_7 1_555 1_555
H4_7 C6_7 1_555 1_555
C7_7 C2_7 1_555 1_555
H5_7 C7_7 1_555 1_555
C8_7 C5_7 1_555 1_555
C9_7 N1_7 1_555 1_555
H6_7 C9_7 1_555 1_555
C13_7 N1_7 1_555 1_555
Co4_3 O3_4 1_555 1_555
O7_4 Co4_4 1_555 1_555
O8_4 Co4_4 1_555 1_555
O4_4 Co4_3 1_555 1_555
C6_7 C7_7 1_555 1_555
O7_4 C8_8 1_555 1_555
O8_4 C8_8 1_555 1_555
C6_8 C5_8 1_555 1_555
H4_8 C6_8 1_555 1_555
C8_8 C5_8 1_555 1_555
Co4_3 O1_8 1_555 1_555
O1_8 C1_8 1_555 1_555
O6_3 C1_8 1_555 1_555
O5_8 C15_8 1_555 1_555
N1_8 Co4_3 1_555 1_555
N2_8 N3_8 1_555 1_555
N3_8 H1_8 1_555 1_555
C1_8 C2_8 1_555 1_555
C2_8 C3_8 1_555 1_555
C3_8 H2_8 1_555 1_555
C4_8 C3_8 1_555 1_555
H3_8 C4_8 1_555 1_555
C7_8 C2_8 1_555 1_555
H5_8 C7_8 1_555 1_555
C9_8 N1_8 1_555 1_555
H6_8 C9_8 1_555 1_555
C10_8 C9_8 1_555 1_555
H7_8 C10_8 1_555 1_555
C11_8 C10_8 1_555 1_555
C12_7 C11_8 1_555 1_555
H8_7 C12_7 1_555 1_555
C13_8 N1_8 1_555 1_555
H9_8 C13_8 1_555 1_555
C14_8 N2_8 1_555 1_555
H10_7 C14_8 1_555 1_555
C15_8 N3_8 1_555 1_555
C16_8 C15_8 1_555 1_555
C17_8 C16_8 1_555 1_555
H11_8 C17_8 1_555 1_555
C20_8 C16_8 1_555 1_555
H14_8 C20_8 1_555 1_555
N5_4 Co4_3 1_555 1_555
C11_8 C14_8 1_555 1_555
C12_7 C13_8 1_555 1_555
N5_4 C18_8 1_555 1_555
H12_8 C18_8 1_555 1_555
C19_8 N5_4 1_555 1_555
H13_8 C19_8 1_555 1_555
H8_8 C12_8 1_555 1_555

#END
