
###############################################################################
#
# This file contains modified crystal structure data generated from the
# MOF subset of the Cambridge Structural Database (CSD) v543 
# hosted by the Cambridge Crystallographic Data Centre (CCDC).
#
# This work is licensed under the Creative Commons
# Attribution-NonCommercial-ShareAlike 4.0 International License.
# To view a copy of this license, visit
# http://creativecommons.org/licenses/by-nc-sa/4.0/
# or send a letter to
# Creative Commons, PO Box 1866, Mountain View, CA 94042, USA.
#
# CIF created using the CSD Python API on 29 September 2022
# The structure has been converted into the P1 space group
# The structure has a 3D framework
# The original CSD entry YORGOD is in the triclinic crystal system
# The framework has been calculated to contain at least 10.0% void space
# The void calculation uses a probe of radius 1.32A, grid spacing 0.4
# H atom positions have been added when not included in the experimental data
#
###############################################################################

data_YORGOD
_chemical_formula_moiety         '(C146 H96 N8 O18 Zn4)n'
_symmetry_cell_setting           triclinic
_symmetry_space_group_name_H-M   'P 1'
_symmetry_Int_Tables_number      1
_space_group_name_Hall           'P 1'
loop_
_symmetry_equiv_pos_site_id
_symmetry_equiv_pos_as_xyz
1 x,y,z
_cell_length_a                   15.637(5)
_cell_length_b                   15.691(5)
_cell_length_c                   16.291(5)
_cell_angle_alpha                90.097(5)
_cell_angle_beta                 90.067(5)
_cell_angle_gamma                90.015(5)
_cell_volume                     3997.15
loop_
_atom_site_label
_atom_site_type_symbol
_atom_site_fract_x
_atom_site_fract_y
_atom_site_fract_z
O5 O 0.1975(2) 0.0008(3) 0.33946(19)
O8 O 0.5121(2) 0.0007(4) 0.09745(19)
C3 C 0.3550(3) 0.0003(4) 0.2569(3)
H1 H 0.3055 0.0019 0.2252
C4 C 0.4417(3) 0.0012(4) 0.1283(3)
C7 C 0.4219(3) 0.0008(6) 0.3895(3)
H4 H 0.4182 0.0017 0.4465
O10 O 0.5709(2) 0.0002(7) 0.4027(2)
C9 C 0.2628(3) 0.0000(5) 0.3840(3)
C15 C 0.5026(3) 0.0003(7) 0.3507(3)
C50 C 0.6509 0.0594 0.3705
H32 H 0.6967 0.0481 0.4093
H33 H 0.6686 0.0328 0.3195
C51 C 0.7306 0.1842 0.3088
H34 H 0.7695 0.1425 0.2929
C52 C 0.6578 0.1615 0.3526
C53 C 0.5996 0.2237 0.3764
H35 H 0.5509 0.2086 0.4057
C54 C 0.6142 0.3086 0.3566
H36 H 0.5753 0.3502 0.3725
C55 C 0.6870 0.3313 0.3128
H37 H 0.6968 0.3880 0.2995
C56 C 0.7452 0.2690 0.2890
H38 H 0.7939 0.2842 0.2597
Zn4 Zn 0.12529(3) 0.00007(7) 0.46407(3)
Zn7 Zn 0.62530(3) 0.00012(7) 0.03584(3)
O2 O 0.1264(2) 0.0004(4) 0.58781(18)
O6 O 0.30254(19) 0.0005(3) 0.83900(19)
C12 C 0.1512(3) 0.0007(5) 0.8417(3)
O13 O 0.0129(2) 0.0005(4) 0.40325(19)
N5 N 0.3808(3) 0.1318(6) 0.9614(3)
N6 N 0.1199(3) 0.1312(6) 0.4619(3)
O1 O 0.3736(2) 0.9989(3) 0.08886(18)
O4 O 0.2604(2) 0.9996(4) 0.4593(2)
C2 C 0.4341(3) 0.9985(5) 0.2198(3)
C9_2 C 0.2628(3) 1.0000(5) 0.3840(3)
C13 C 0.3497(3) 0.9998(4) 0.3429(3)
C14 C 0.5091(3) 0.9990(5) 0.2651(3)
H6 H 0.5622 0.9984 0.2394
C21 C 0.3525(6) 0.8128(8) 0.0248(5)
H7 H 0.3326 0.8397 0.0720
C22 C 0.3523(6) 0.1838(9) 0.0251(5)
H8 H 0.3317 0.1564 0.0717
C23 C 0.3527(8) 0.7275(9) 0.0257(6)
H9 H 0.3319 0.6981 0.0710
C38 C 0.3513(7) 0.2690(8) 0.0263(5)
H20 H 0.3295 0.2968 0.0722
C41 C 0.3697(16) 0.4550(13) 0.0262(11)
H23 H 0.3622 0.4257 0.0752
C47 C 0.3667(13) 0.5431(13) 0.0286(10)
H29 H 0.3540 0.5698 0.0781
Zn2 Zn 0.37470(3) 0.99988(7) 0.96416(3)
O3 O 0.2400(2) 0.9993(4) 0.9588(2)
C1 C 0.0671(3) 0.9997(5) 0.7200(3)
C5 C 0.1451(3) 0.9984(4) 0.7586(3)
H2 H 0.1947 0.9958 0.7273
C6 C 0.0775(3) 0.9994(5) 0.8900(3)
H3 H 0.0815 0.9978 0.9469
C8 C 0.0591(3) 0.9991(4) 0.6284(3)
C10 C 0.2368(3) 0.9991(5) 0.8844(3)
N2 N 0.1191(3) 0.8705(6) 0.4608(3)
N3 N 0.3792(3) 0.8663(6) 0.9606(3)
C17 C 0.1177(5) 0.6821(9) 0.4597(5)
C18 C 0.3835(5) 0.6844(8) 0.9598(5)
C19 C 0.1172(6) 0.5898(10) 0.4594(6)
C20 C 0.3821(5) 0.5937(8) 0.9597(5)
C24 C 0.1499(6) 0.8126(11) 0.5229(5)
H10 H 0.1759 0.8378 0.5681
C25 C 0.1460(9) 0.7272(10) 0.5239(6)
H11 H 0.1636 0.6984 0.5709
C26 C 0.1483(6) 0.1829(10) 0.5236(5)
H12 H 0.1699 0.1559 0.5700
C27 C 0.1483(8) 0.2711(10) 0.5249(5)
H13 H 0.1695 0.3000 0.5705
C28 C 0.0860(6) 0.1796(10) 0.3993(5)
H14 H 0.0619 0.1505 0.3552
C29 C 0.4145(7) 0.8189(10) 0.8978(5)
H15 H 0.4391 0.8476 0.8538
C30 C 0.0876(7) 0.7381(10) 0.3959(5)
H16 H 0.0641 0.7126 0.3495
C31 C 0.0902(7) 0.8272(9) 0.3969(5)
H17 H 0.0710 0.8569 0.3512
C32 C 0.4153(9) 0.7310(11) 0.8969(7)
H18 H 0.4382 0.7029 0.8517
C33 C 0.4116(7) 0.1843(9) 0.8984(5)
H19 H 0.4282 0.1563 0.8507
C34 C 0.1178(5) 0.3154(8) 0.4604(5)
C35 C 0.3828(5) 0.3186(9) 0.9593(5)
C36 C 0.3824(5) 0.4099(8) 0.9587(5)
C37 C 0.1184(5) 0.4084(9) 0.4594(5)
C39 C 0.4200(7) 0.2663(9) 0.8974(6)
H21 H 0.4511 0.2916 0.8553
C40 C 0.0846(7) 0.2675(9) 0.3963(6)
H22 H 0.0612 0.2948 0.3509
C42 C 0.4014(13) 0.4636(14) 0.8925(8)
H24 H 0.4081 0.4385 0.8412
C43 C 0.0981(14) 0.5410(13) 0.3934(8)
H25 H 0.0817 0.5687 0.3455
C44 C 0.1010(14) 0.4562(13) 0.3917(8)
H26 H 0.0907 0.4285 0.3422
C45 C 0.4103(17) 0.5460(12) 0.8975(10)
H27 H 0.4382 0.5736 0.8547
C46 C 0.1312(15) 0.4578(12) 0.5258(10)
H28 H 0.1375 0.4309 0.5762
C48 C 0.1354(13) 0.5382(12) 0.5245(9)
O14 O 0.4879(2) 0.9993(4) 0.90255(19)
H48 H 0.155574 0.569493 0.581013
O7 O 0.9871(2) 0.9995(4) 0.59675(19)
Zn5 Zn 0.87471(3) 0.99993(7) 0.53593(3)
O3_2 O 0.7600(2) 0.0007(4) 0.0412(2)
C1_2 C 0.9329(3) 0.0003(5) 0.2800(3)
C5_2 C 0.8549(3) 0.0016(4) 0.2414(3)
H2_2 H 0.8053 0.0042 0.2727
C6_2 C 0.9225(3) 0.0006(5) 0.1100(3)
H3_2 H 0.9185 0.0022 0.0531
C8_2 C 0.9409(3) 0.0009(4) 0.3716(3)
C10_2 C 0.7632(3) 0.0009(5) 0.1156(3)
N1 N 0.6192(3) 0.8682(6) 0.0386(3)
N2_2 N 0.8809(3) 0.1295(6) 0.5392(3)
N3_2 N 0.6208(3) 0.1337(6) 0.0394(3)
N4 N 0.8801(3) 0.8688(6) 0.5381(3)
C17_2 C 0.8823(5) 0.3179(9) 0.5403(5)
C18_2 C 0.6165(5) 0.3156(8) 0.0402(5)
C19_2 C 0.8828(6) 0.4102(10) 0.5406(6)
C20_2 C 0.6179(5) 0.4063(8) 0.0403(5)
C24_2 C 0.8501(6) 0.1874(11) 0.4771(5)
H10_2 H 0.8241 0.1622 0.4319
C25_2 C 0.8540(9) 0.2728(10) 0.4761(6)
H11_2 H 0.8364 0.3016 0.4291
C26_2 C 0.8517(6) 0.8171(10) 0.4764(5)
H12_2 H 0.8301 0.8441 0.4300
C27_2 C 0.8517(8) 0.7289(10) 0.4751(5)
H13_2 H 0.8305 0.7000 0.4295
C28_2 C 0.9140(6) 0.8204(10) 0.6007(5)
H14_2 H 0.9381 0.8495 0.6448
C29_2 C 0.5855(7) 0.1811(10) 0.1022(5)
H15_2 H 0.5609 0.1524 0.1462
C30_2 C 0.9124(7) 0.2619(10) 0.6041(5)
H16_2 H 0.9359 0.2874 0.6505
C31_2 C 0.9098(7) 0.1728(9) 0.6031(5)
H17_2 H 0.9290 0.1431 0.6488
C32_2 C 0.5847(9) 0.2690(11) 0.1031(7)
H18_2 H 0.5618 0.2971 0.1483
C33_2 C 0.5884(7) 0.8157(9) 0.1016(5)
H19_2 H 0.5718 0.8437 0.1493
C34_2 C 0.8822(5) 0.6846(8) 0.5396(5)
C35_2 C 0.6172(5) 0.6814(9) 0.0407(5)
C36_2 C 0.6176(5) 0.5901(8) 0.0413(5)
C37_2 C 0.8816(5) 0.5916(9) 0.5406(5)
C39_2 C 0.5800(7) 0.7337(9) 0.1026(6)
H21_2 H 0.5489 0.7084 0.1447
C40_2 C 0.9154(7) 0.7325(9) 0.6037(6)
H22_2 H 0.9388 0.7052 0.6491
C42_2 C 0.5986(13) 0.5364(14) 0.1075(8)
H24_2 H 0.5919 0.5615 0.1588
C43_2 C 0.9019(14) 0.4590(13) 0.6066(8)
H25_2 H 0.9183 0.4313 0.6545
C44_2 C 0.8990(14) 0.5438(13) 0.6083(8)
H26_2 H 0.9093 0.5715 0.6578
C45_2 C 0.5897(17) 0.4540(12) 0.1025(10)
H27_2 H 0.5618 0.4264 0.1453
C46_2 C 0.8688(15) 0.5422(12) 0.4742(10)
H28_2 H 0.8625 0.5691 0.4238
C48_2 C 0.8646(13) 0.4618(12) 0.4755(9)
O11 O 0.7396(2) 0.0004(4) 0.5407(2)
H48_2 H 0.844426 0.430507 0.418987
O1_2 O 0.6264(2) 0.0011(3) 0.91114(18)
C2_2 C 0.5659(3) 0.0015(5) 0.7802(3)
C9_3 C 0.7372(3) 0.0000(5) 0.6160(3)
C13_2 C 0.6503(3) 0.0002(4) 0.6571(3)
C14_2 C 0.4909(3) 0.0010(5) 0.7349(3)
H6_2 H 0.4378 0.0016 0.7606
C21_2 C 0.6475(6) 0.1872(8) 0.9752(5)
H7_2 H 0.6674 0.1603 0.9280
C22_2 C 0.6477(6) 0.8162(9) 0.9749(5)
H8_2 H 0.6683 0.8436 0.9283
C23_2 C 0.6473(8) 0.2725(9) 0.9743(6)
H9_2 H 0.6681 0.3019 0.9290
C38_2 C 0.6487(7) 0.7310(8) 0.9737(5)
H20_2 H 0.6705 0.7032 0.9278
C41_2 C 0.6303(16) 0.5450(13) 0.9738(11)
H23_2 H 0.6378 0.5743 0.9248
C47_2 C 0.6333(13) 0.4569(13) 0.9714(10)
H29_2 H 0.6460 0.4302 0.9219
O2_2 O 0.8736(2) 0.9996(4) 0.41219(18)
O6_2 O 0.69746(19) 0.9995(3) 0.16100(19)
C12_2 C 0.8488(3) 0.9993(5) 0.1583(3)
O12 O 0.8025(2) 0.9992(3) 0.66054(19)
C3_2 C 0.6450(3) 0.9997(4) 0.7431(3)
H1_2 H 0.6945 0.9981 0.7748
C4_2 C 0.5583(3) 0.9988(4) 0.8717(3)
C7_2 C 0.5781(3) 0.9992(6) 0.6105(3)
H4_2 H 0.5818 0.9983 0.5535
O10_2 O 0.4291(2) 0.9998(7) 0.5973(2)
C9_4 C 0.7372(3) 1.0000(5) 0.6160(3)
C15_2 C 0.4974(3) 0.9997(7) 0.6493(3)
C50_2 C 0.3491 0.9406 0.6295
H32_2 H 0.3033 0.9519 0.5907
H33_2 H 0.3314 0.9672 0.6805
C51_2 C 0.2694 0.8158 0.6912
H34_2 H 0.2305 0.8575 0.7071
C52_2 C 0.3422 0.8385 0.6474
C53_2 C 0.4004 0.7763 0.6236
H35_2 H 0.4491 0.7914 0.5943
C54_2 C 0.3858 0.6914 0.6434
H36_2 H 0.4247 0.6498 0.6275
C55_2 C 0.3130 0.6687 0.6872
H37_2 H 0.3032 0.6120 0.7005
C56_2 C 0.2548 0.7310 0.7110
H38_2 H 0.2061 0.7158 0.7403
O9 O 0.9287(2) 0.0042(6) 0.9023(2)
C11 C 0.9904(3) 0.0008(6) 0.7665(3)
H5 H 0.9372 0.0017 0.7409
C16 C 0.9976(3) 0.0006(8) 0.8515(3)
C49 C 0.8505 0.0674 0.8679
H30 H 0.8081 0.0614 0.9110
H31 H 0.8281 0.0341 0.8225
C57 C 0.8577 0.3330 0.8367
C58 C 0.7864 0.3173 0.7900
C59 C 0.9154 0.1966 0.8569
H39 H 0.9610 0.1586 0.8548
C60 C 0.8318 0.1673 0.8356
C61 C 0.9304 0.2797 0.8805
H40 H 0.9736 0.3000 0.9146
C62 C 0.7706 0.2247 0.7946
C63 C 0.7418 0.4845 0.7956
C64 C 0.6544 0.3811 0.7201
C65 C 0.7352 0.3960 0.7672
C66 C 0.6162 0.4670 0.7025
H41 H 0.5681 0.4618 0.6692
C67 C 0.6324 0.5558 0.7222
H42 H 0.5945 0.6006 0.7135
C68 C 0.7172 0.5638 0.7576
H43 H 0.7507 0.6127 0.7561
C69 C 0.8265 0.4957 0.8234
H44 H 0.8528 0.5489 0.8232
C70 C 0.6403 0.2861 0.7181
H45 H 0.5857 0.2699 0.7016
C71 C 0.8697 0.4221 0.8513
H46 H 0.9151 0.4341 0.8864
C72 C 0.6983 0.2130 0.7376
H47 H 0.6886 0.1600 0.7137
O9_2 O 0.0713(2) 0.9958(6) 0.0977(2)
C11_2 C 0.0096(3) 0.9992(6) 0.2335(3)
H5_2 H 0.0628 0.9983 0.2591
C16_2 C 0.0024(3) 0.9994(8) 0.1485(3)
C49_2 C 0.1495 0.9326 0.1321
H30_2 H 0.1919 0.9386 0.0890
H31_2 H 0.1719 0.9659 0.1775
C57_2 C 0.1423 0.6670 0.1633
C58_2 C 0.2136 0.6827 0.2100
C59_2 C 0.0846 0.8034 0.1431
H39_2 H 0.0390 0.8414 0.1452
C60_2 C 0.1682 0.8327 0.1644
C61_2 C 0.0696 0.7203 0.1195
H40_2 H 0.0264 0.7000 0.0854
C62_2 C 0.2294 0.7753 0.2054
C63_2 C 0.2582 0.5155 0.2044
C64_2 C 0.3456 0.6189 0.2799
C65_2 C 0.2648 0.6040 0.2328
C66_2 C 0.3838 0.5330 0.2975
H41_2 H 0.4319 0.5382 0.3308
C67_2 C 0.3676 0.4442 0.2778
H42_2 H 0.4055 0.3994 0.2865
C68_2 C 0.2828 0.4362 0.2424
H43_2 H 0.2493 0.3873 0.2439
C69_2 C 0.1735 0.5043 0.1766
H44_2 H 0.1472 0.4511 0.1768
C70_2 C 0.3597 0.7139 0.2819
H45_2 H 0.4143 0.7301 0.2984
C71_2 C 0.1303 0.5779 0.1487
H46_2 H 0.0849 0.5659 0.1136
C72_2 C 0.3017 0.7870 0.2624
H47_2 H 0.3114 0.8400 0.2863
loop_
_geom_bond_atom_site_label_1
_geom_bond_atom_site_label_2
_geom_bond_site_symmetry_1
_geom_bond_site_symmetry_2
O5 C9 1_555 1_555
O8 C4 1_555 1_555
C3 H1 1_555 1_555
C7 H4 1_555 1_555
O10 C15 1_555 1_555
C15 C7 1_555 1_555
C50 O10 1_555 1_555
H32 C50 1_555 1_555
H33 C50 1_555 1_555
C51 H34 1_555 1_555
C52 C50 1_555 1_555
C53 C52 1_555 1_555
H35 C53 1_555 1_555
C54 C53 1_555 1_555
H36 C54 1_555 1_555
C55 C54 1_555 1_555
H37 C55 1_555 1_555
C56 C51 1_555 1_555
H38 C56 1_555 1_555
Zn7 O8 1_555 1_555
O5 Zn4 1_555 1_555
C51 C52 1_555 1_555
C55 C56 1_555 1_555
Zn4 O2 1_555 1_555
O13 Zn4 1_555 1_555
N6 Zn4 1_555 1_555
O4 C9_2 1_555 1_555
C9_2 C13 1_555 1_555
C14 C2 1_555 1_555
H6 C14 1_555 1_555
H7 C21 1_555 1_555
C22 H8 1_555 1_555
H9 C23 1_555 1_555
C38 C22 1_555 1_555
H20 C38 1_555 1_555
C41 H23 1_555 1_555
H29 C47 1_555 1_555
C21 C23 1_555 1_555
C41 C47 1_555 1_555
O3 Zn2 1_555 1_555
C1 C5 1_555 1_555
C5 H2 1_555 1_555
C6 H3 1_555 1_555
C8 C1 1_555 1_555
C10 O3 1_555 1_555
N3 Zn2 1_555 1_555
N6 C26 1_555 1_555
C17 C19 1_555 1_555
C18 C20 1_555 1_555
C19 C43 1_555 1_555
C20 C45 1_555 1_555
C24 N2 1_555 1_555
H10 C24 1_555 1_555
C25 C17 1_555 1_555
H11 C25 1_555 1_555
C26 H12 1_555 1_555
C27 C26 1_555 1_555
H13 C27 1_555 1_555
C28 N6 1_555 1_555
H14 C28 1_555 1_555
C29 N3 1_555 1_555
H15 C29 1_555 1_555
C30 C17 1_555 1_555
H16 C30 1_555 1_555
C31 N2 1_555 1_555
H17 C31 1_555 1_555
C32 C18 1_555 1_555
H18 C32 1_555 1_555
C33 N5 1_555 1_555
H19 C33 1_555 1_555
C34 C27 1_555 1_555
C35 C36 1_555 1_555
C37 C34 1_555 1_555
C39 C33 1_555 1_555
H21 C39 1_555 1_555
C40 C28 1_555 1_555
H22 C40 1_555 1_555
C42 C36 1_555 1_555
H24 C42 1_555 1_555
C43 H25 1_555 1_555
C44 C37 1_555 1_555
H26 C44 1_555 1_555
C45 C42 1_555 1_555
H27 C45 1_555 1_555
C46 C37 1_555 1_555
H28 C46 1_555 1_555
C48 C19 1_555 1_555
O14 Zn2 1_555 1_555
C24 C25 1_555 1_555
C29 C32 1_555 1_555
C30 C31 1_555 1_555
C34 C40 1_555 1_555
C35 C39 1_555 1_555
C43 C44 1_555 1_555
C46 C48 1_555 1_555
C48 H48 1_555 1_555
Zn5 O7 1_555 1_555
O3_2 Zn7 1_555 1_555
C1_2 C5_2 1_555 1_555
C5_2 H2_2 1_555 1_555
C6_2 H3_2 1_555 1_555
C8_2 C1_2 1_555 1_555
C10_2 O3_2 1_555 1_555
N3_2 Zn7 1_555 1_555
N4 C26_2 1_555 1_555
C17_2 C19_2 1_555 1_555
C18_2 C20_2 1_555 1_555
C19_2 C43_2 1_555 1_555
C20_2 C45_2 1_555 1_555
C24_2 N2_2 1_555 1_555
H10_2 C24_2 1_555 1_555
C25_2 C17_2 1_555 1_555
H11_2 C25_2 1_555 1_555
C26_2 H12_2 1_555 1_555
C27_2 C26_2 1_555 1_555
H13_2 C27_2 1_555 1_555
C28_2 N4 1_555 1_555
H14_2 C28_2 1_555 1_555
C29_2 N3_2 1_555 1_555
H15_2 C29_2 1_555 1_555
C30_2 C17_2 1_555 1_555
H16_2 C30_2 1_555 1_555
C31_2 N2_2 1_555 1_555
H17_2 C31_2 1_555 1_555
C32_2 C18_2 1_555 1_555
H18_2 C32_2 1_555 1_555
C33_2 N1 1_555 1_555
H19_2 C33_2 1_555 1_555
C34_2 C27_2 1_555 1_555
C35_2 C36_2 1_555 1_555
C37_2 C34_2 1_555 1_555
C39_2 C33_2 1_555 1_555
H21_2 C39_2 1_555 1_555
C40_2 C28_2 1_555 1_555
H22_2 C40_2 1_555 1_555
C42_2 C36_2 1_555 1_555
H24_2 C42_2 1_555 1_555
C43_2 H25_2 1_555 1_555
C44_2 C37_2 1_555 1_555
H26_2 C44_2 1_555 1_555
C45_2 C42_2 1_555 1_555
H27_2 C45_2 1_555 1_555
C46_2 C37_2 1_555 1_555
H28_2 C46_2 1_555 1_555
C48_2 C19_2 1_555 1_555
Zn5 N4 1_555 1_555
C24_2 C25_2 1_555 1_555
C29_2 C32_2 1_555 1_555
C30_2 C31_2 1_555 1_555
C34_2 C40_2 1_555 1_555
C35_2 C39_2 1_555 1_555
C43_2 C44_2 1_555 1_555
C46_2 C48_2 1_555 1_555
C48_2 H48_2 1_555 1_555
O11 C9_3 1_555 1_555
C9_3 C13_2 1_555 1_555
C14_2 C2_2 1_555 1_555
H6_2 C14_2 1_555 1_555
H7_2 C21_2 1_555 1_555
C22_2 H8_2 1_555 1_555
H9_2 C23_2 1_555 1_555
C38_2 C22_2 1_555 1_555
H20_2 C38_2 1_555 1_555
C41_2 H23_2 1_555 1_555
H29_2 C47_2 1_555 1_555
C21_2 C23_2 1_555 1_555
C41_2 C47_2 1_555 1_555
Zn5 O2_2 1_555 1_555
O12 Zn5 1_555 1_555
O12 C9_4 1_555 1_555
O14 C4_2 1_555 1_555
C3_2 H1_2 1_555 1_555
C7_2 H4_2 1_555 1_555
O10_2 C15_2 1_555 1_555
C15_2 C7_2 1_555 1_555
C50_2 O10_2 1_555 1_555
H32_2 C50_2 1_555 1_555
H33_2 C50_2 1_555 1_555
C51_2 H34_2 1_555 1_555
C52_2 C50_2 1_555 1_555
C53_2 C52_2 1_555 1_555
H35_2 C53_2 1_555 1_555
C54_2 C53_2 1_555 1_555
H36_2 C54_2 1_555 1_555
C55_2 C54_2 1_555 1_555
H37_2 C55_2 1_555 1_555
C56_2 C51_2 1_555 1_555
H38_2 C56_2 1_555 1_555
C51_2 C52_2 1_555 1_555
C55_2 C56_2 1_555 1_555
O9 C16 1_555 1_555
H5 C11 1_555 1_555
C49 O9 1_555 1_555
H30 C49 1_555 1_555
H31 C49 1_555 1_555
C57 C58 1_555 1_555
C58 C62 1_555 1_555
C59 H39 1_555 1_555
C60 C49 1_555 1_555
C61 C57 1_555 1_555
H40 C61 1_555 1_555
C62 C60 1_555 1_555
C63 C65 1_555 1_555
C64 C65 1_555 1_555
C65 C58 1_555 1_555
C66 C64 1_555 1_555
H41 C66 1_555 1_555
C67 C66 1_555 1_555
H42 C67 1_555 1_555
C68 C63 1_555 1_555
H43 C68 1_555 1_555
C69 C63 1_555 1_555
H44 C69 1_555 1_555
C70 C64 1_555 1_555
H45 C70 1_555 1_555
C71 C57 1_555 1_555
H46 C71 1_555 1_555
C72 C62 1_555 1_555
H47 C72 1_555 1_555
C11 C16 1_555 1_555
C59 C60 1_555 1_555
C59 C61 1_555 1_555
C67 C68 1_555 1_555
C69 C71 1_555 1_555
C70 C72 1_555 1_555
O9_2 C16_2 1_555 1_555
H5_2 C11_2 1_555 1_555
C49_2 O9_2 1_555 1_555
H30_2 C49_2 1_555 1_555
H31_2 C49_2 1_555 1_555
C57_2 C58_2 1_555 1_555
C58_2 C62_2 1_555 1_555
C59_2 H39_2 1_555 1_555
C60_2 C49_2 1_555 1_555
C61_2 C57_2 1_555 1_555
H40_2 C61_2 1_555 1_555
C62_2 C60_2 1_555 1_555
C63_2 C65_2 1_555 1_555
C64_2 C65_2 1_555 1_555
C65_2 C58_2 1_555 1_555
C66_2 C64_2 1_555 1_555
H41_2 C66_2 1_555 1_555
C67_2 C66_2 1_555 1_555
H42_2 C67_2 1_555 1_555
C68_2 C63_2 1_555 1_555
H43_2 C68_2 1_555 1_555
C69_2 C63_2 1_555 1_555
H44_2 C69_2 1_555 1_555
C70_2 C64_2 1_555 1_555
H45_2 C70_2 1_555 1_555
C71_2 C57_2 1_555 1_555
H46_2 C71_2 1_555 1_555
C72_2 C62_2 1_555 1_555
H47_2 C72_2 1_555 1_555
C11_2 C16_2 1_555 1_555
C59_2 C60_2 1_555 1_555
C59_2 C61_2 1_555 1_555
C67_2 C68_2 1_555 1_555
C69_2 C71_2 1_555 1_555
C70_2 C72_2 1_555 1_555

#END
