
###############################################################################
#
# This file contains modified crystal structure data generated from the
# MOF subset of the Cambridge Structural Database (CSD) v543 
# hosted by the Cambridge Crystallographic Data Centre (CCDC).
#
# This work is licensed under the Creative Commons
# Attribution-NonCommercial-ShareAlike 4.0 International License.
# To view a copy of this license, visit
# http://creativecommons.org/licenses/by-nc-sa/4.0/
# or send a letter to
# Creative Commons, PO Box 1866, Mountain View, CA 94042, USA.
#
# CIF created using the CSD Python API on 29 September 2022
# The structure has been converted into the P1 space group
# The structure has a 3D framework
# The original CSD entry YORGIX is in the triclinic crystal system
# The framework has been calculated to contain at least 10.0% void space
# The void calculation uses a probe of radius 1.32A, grid spacing 0.4
#
###############################################################################

data_YORGIX
_chemical_formula_moiety         '(C132 H92 N8 O20 Zn4)n'
_symmetry_cell_setting           triclinic
_symmetry_space_group_name_H-M   'P 1'
_symmetry_Int_Tables_number      1
_space_group_name_Hall           'P 1'
loop_
_symmetry_equiv_pos_site_id
_symmetry_equiv_pos_as_xyz
1 x,y,z
_cell_length_a                   15.558(4)
_cell_length_b                   15.599(4)
_cell_length_c                   16.283(4)
_cell_angle_alpha                89.943(7)
_cell_angle_beta                 89.961(6)
_cell_angle_gamma                83.859(7)
_cell_volume                     3929.03
loop_
_atom_site_label
_atom_site_type_symbol
_atom_site_fract_x
_atom_site_fract_y
_atom_site_fract_z
N2 N 0.1236(5) 0.3800(7) 0.0377(5)
C7 C 0.1094(11) 0.0568(10) 0.1039(10)
H6 H 0.1024 0.0878 0.1527
C11 C 0.0876(10) 0.2468(10) 0.0981(9)
H10 H 0.0669 0.2190 0.1435
C27 C 0.1229(8) 0.1973(7) 0.0356(7)
C29 C 0.1215(7) 0.0989(7) 0.0356(7)
C40 C 0.0807(9) 0.3348(10) 0.0985(7)
H27 H 0.0477 0.3653 0.1386
Zn3 Zn 0.12408(6) 0.51006(7) 0.03651(6)
N1 N 0.1195(4) 0.6478(5) 0.0331(4)
C1 C 0.1166(7) 0.8250(7) 0.0364(7)
C2 C 0.0770(9) 0.6976(8) 0.0936(8)
H1 H 0.0488 0.6707 0.1352
C3 C 0.0755(8) 0.7814(8) 0.0943(8)
H2 H 0.0452 0.8124 0.1358
C5 C 0.1067(11) 0.9677(11) 0.1063(10)
H4 H 0.0948 0.9398 0.1549
O1 O 0.0744(6) 0.5075(8) 0.4006(5)
O2 O 0.5725(6) 0.5079(8) 0.0998(5)
C13 C 0.0021(9) 0.5145(11) 0.3530(8)
C14 C 0.5005(10) 0.5237(12) 0.1493(8)
C15 C 0.4236(7) 0.5075(10) 0.1126(8)
H12 H 0.4216 0.4990 0.0561
C17 C 0.6447(11) 0.5632(9) 0.1294(12)
H14 H 0.6633 0.5399 0.1825
H15 H 0.6930 0.5494 0.0924
C18 C 0.3552(7) 0.5092(8) 0.2411(6)
H16 H 0.3044 0.5122 0.2715
C19 C 0.0083(7) 0.5134(9) 0.2624(6)
H17 H 0.0608 0.5151 0.2354
C25 C 0.5076(7) 0.5160(8) 0.2379(6)
H20 H 0.5608 0.5148 0.2642
C28 C 0.1223(8) 0.9222(7) 0.0345(7)
O4 O 0.3728(5) 0.4934(6) 0.4153(4)
O5 O 0.2625(4) 0.5022(5) 0.0404(4)
O7 O 0.1976(4) 0.5062(5) 0.1618(4)
C33 C 0.2627(6) 0.5038(7) 0.1149(6)
O9 O 0.5092(4) 0.5230(5) 0.4028(4)
O10 O 0.0103(4) 0.5229(5) 0.0976(4)
C44 C 0.3501(6) 0.5039(10) 0.1590(6)
C45 C 0.4319(7) 0.5105(10) 0.2821(6)
C49 C 0.4406(6) 0.5107(7) 0.3715(6)
C50 C 0.6355(14) 0.6617(10) 0.1392(14)
C51 C 0.1403(10) 0.5735(9) 0.3737(10)
H33 H 0.1854 0.5637 0.4149
H34 H 0.1655 0.5472 0.3241
C52 C 0.1398(11) 0.6692(10) 0.3558(11)
C53 C 0.1802(13) 0.6820(10) 0.2874(13)
H35 H 0.2008 0.6410 0.2487
C54 C 0.6173(19) 0.722(2) 0.0868(19)
H36 H 0.5882 0.7027 0.0419
C55 C 0.629(2) 0.811(2) 0.0775(12)
H37 H 0.6299 0.8463 0.0312
C56 C 0.6764 0.6803 0.2069
H38 H 0.6974 0.6385 0.2447
C57 C 0.6860 0.7729 0.2178
H39 H 0.7209 0.7931 0.2582
C58 C 0.1183 0.7198 0.4176
C59 C 0.1176 0.6958 0.5019
H40 H 0.1170 0.6371 0.5115
C60 C 0.130(2) 0.858(2) 0.477(2)
H41 H 0.1521 0.9104 0.4720
C61 C 0.1201(19) 0.8109(12) 0.400(2)
C62 C 0.1462(15) 0.8455(17) 0.3318(15)
H42 H 0.1403 0.9034 0.3170
C63 C 0.6372(16) 0.8291(15) 0.1612(10)
H43 H 0.6094 0.8805 0.1814
C64 C 0.186(2) 0.7730(11) 0.2849(19)
H44 H 0.2236 0.7890 0.2445
C65 C 0.113(2) 0.837(3) 0.544(3)
H45 H 0.0927 0.8833 0.5776
C66 C 0.118(3) 0.755(3) 0.584(3)
H46 H 0.1201 0.7398 0.6389
Zn6 Zn 0.62406(7) 0.51047(9) 0.46352(6)
Zn7 Zn 0.37594(7) 0.48953(9) 0.53648(6)
C4 C 0.1552(8) 0.6866(8) 0.9779(7)
H3 H 0.1818 0.6543 0.9353
C6 C 0.1223(10) 0.9652(8) 0.9660(9)
H5 H 0.1176 0.9364 0.9165
C39 C 0.1575(15) 0.7677(10) 0.9765(11)
H26 H 0.1875 0.7910 0.9340
O11 O 0.1258(3) 0.5088(4) 0.9139(3)
N3 N 0.6236(5) 0.3822(6) 0.4618(5)
C9 C 0.6335(16) 0.0548(18) 0.5341(16)
H8 H 0.6486 0.0815 0.5822
C10 C 0.6056(14) 0.0586(15) 0.3940(14)
H9 H 0.5952 0.0892 0.3453
C16 C 0.9227(7) 0.5048(10) 0.3894(8)
H13 H 0.9186 0.4991 0.4461
C22 C 0.6235(8) 0.1960(9) 0.4622(8)
C23 C 0.6186(11) 0.1021(13) 0.4630(11)
C24 C 0.9397(7) 0.5037(8) 0.1279(6)
O3 O 0.8742(3) 0.4912(4) 0.0861(3)
O6 O 0.7616(4) 0.4999(5) 0.4600(4)
O8 O 0.6977(4) 0.5068(5) 0.3391(4)
C32 C 0.7633(6) 0.5046(7) 0.3842(6)
C34 C 0.6616(10) 0.3241(9) 0.5192(7)
H22 H 0.6925 0.3477 0.5608
C36 C 0.6596(10) 0.2347(9) 0.5227(9)
H24 H 0.6834 0.2032 0.5673
C37 C 0.8507(7) 0.5038(10) 0.3412(7)
C42 C 0.5832(10) 0.3348(11) 0.4002(7)
H29 H 0.5517 0.3650 0.3590
C43 C 0.9327(6) 0.5096(9) 0.2206(6)
C46 C 0.8569(7) 0.5015(8) 0.2576(6)
H30 H 0.8084 0.4941 0.2261
C47 C 0.5892(14) 0.2455(11) 0.3998(10)
H31 H 0.5686 0.2183 0.3541
N6 N 0.6176(5) 0.6418(5) 0.4672(5)
O12 O 0.6272(5) 0.5066(6) 0.5847(4)
Zn4 Zn 0.87592(6) 0.48994(7) 0.96349(6)
C8 C 0.6259(13) 0.9691(15) 0.5337(13)
H7 H 0.6277 0.9400 0.5836
C26 C 0.6535(10) 0.6905(10) 0.5221(8)
H21 H 0.6815 0.6603 0.5655
C30 C 0.6183(10) 0.8236(10) 0.4636(9)
C31 C 0.6155(11) 0.9216(12) 0.4613(11)
C35 C 0.6071(14) 0.9665(14) 0.3924(11)
H23 H 0.6021 0.9382 0.3427
C38 C 0.6556(11) 0.7765(10) 0.5245(9)
H25 H 0.6824 0.8023 0.5675
C41 C 0.5747(9) 0.6942(10) 0.4061(8)
H28 H 0.5449 0.6683 0.3651
C48 C 0.5751(10) 0.7832(10) 0.4048(9)
H32 H 0.5458 0.8154 0.3635
N4 N 0.3824(5) 0.3582(5) 0.5328(5)
C8_2 C 0.3741(13) 0.0309(15) 0.4663(13)
H7_2 H 0.3723 0.0600 0.4164
C26_2 C 0.3465(10) 0.3095(10) 0.4779(8)
H21_2 H 0.3185 0.3397 0.4345
C30_2 C 0.3817(10) 0.1764(10) 0.5364(9)
C31_2 C 0.3845(11) 0.0784(12) 0.5387(11)
C35_2 C 0.3929(14) 0.0335(14) 0.6076(11)
H23_2 H 0.3979 0.0618 0.6573
C38_2 C 0.3444(11) 0.2235(10) 0.4755(9)
H25_2 H 0.3176 0.1977 0.4325
C41_2 C 0.4253(9) 0.3058(10) 0.5939(8)
H28_2 H 0.4551 0.3317 0.6349
C48_2 C 0.4249(10) 0.2168(10) 0.5952(9)
H32_2 H 0.4542 0.1846 0.6365
N3_2 N 0.3764(5) 0.6178(6) 0.5382(5)
C9_2 C 0.3665(16) 0.9452(18) 0.4659(16)
H8_2 H 0.3514 0.9185 0.4178
C10_2 C 0.3944(14) 0.9414(15) 0.6060(14)
H9_2 H 0.4048 0.9108 0.6547
C16_2 C 0.0773(7) 0.4952(10) 0.6106(8)
H13_2 H 0.0814 0.5009 0.5539
C22_2 C 0.3765(8) 0.8040(9) 0.5378(8)
C23_2 C 0.3814(11) 0.8979(13) 0.5370(11)
C24_2 C 0.0603(7) 0.4963(8) 0.8721(6)
O6_2 O 0.2384(4) 0.5001(5) 0.5400(4)
O8_2 O 0.3023(4) 0.4932(5) 0.6609(4)
C32_2 C 0.2367(6) 0.4954(7) 0.6158(6)
C34_2 C 0.3384(10) 0.6759(9) 0.4808(7)
H22_2 H 0.3075 0.6523 0.4392
C36_2 C 0.3404(10) 0.7653(9) 0.4773(9)
H24_2 H 0.3166 0.7968 0.4327
C37_2 C 0.1493(7) 0.4962(10) 0.6588(7)
C42_2 C 0.4168(10) 0.6652(11) 0.5998(7)
H29_2 H 0.4483 0.6350 0.6410
C43_2 C 0.0673(6) 0.4904(9) 0.7794(6)
C46_2 C 0.1431(7) 0.4985(8) 0.7424(6)
H30_2 H 0.1916 0.5059 0.7739
C47_2 C 0.4108(14) 0.7545(11) 0.6002(10)
H31_2 H 0.4314 0.7817 0.6459
O13 O 0.4908(4) 0.4770(5) 0.5972(4)
C4_2 C 0.8448(8) 0.3134(8) 0.0221(7)
H3_2 H 0.8182 0.3457 0.0647
C6_2 C 0.8777(10) 0.0348(8) 0.0340(9)
H5_2 H 0.8824 0.0636 0.0835
C39_2 C 0.8425(15) 0.2323(10) 0.0235(11)
H26_2 H 0.8125 0.2090 0.0660
N1_2 N 0.8805(4) 0.3522(5) 0.9669(4)
C1_2 C 0.8834(7) 0.1750(7) 0.9636(7)
C2_2 C 0.9230(9) 0.3024(8) 0.9064(8)
H1_2 H 0.9512 0.3293 0.8648
C3_2 C 0.9245(8) 0.2186(8) 0.9057(8)
H2_2 H 0.9548 0.1876 0.8642
C5_2 C 0.8933(11) 0.0323(11) 0.8937(10)
H4_2 H 0.9052 0.0602 0.8451
O1_2 O 0.9256(6) 0.4925(8) 0.5994(5)
O2_2 O 0.4275(6) 0.4921(8) 0.9002(5)
C13_2 C 0.9979(9) 0.4855(11) 0.6470(8)
C14_2 C 0.4995(10) 0.4763(12) 0.8507(8)
C15_2 C 0.5764(7) 0.4925(10) 0.8874(8)
H12_2 H 0.5784 0.5010 0.9439
C17_2 C 0.3553(11) 0.4368(9) 0.8706(12)
H14_2 H 0.3367 0.4601 0.8175
H15_2 H 0.3070 0.4506 0.9076
C18_2 C 0.6448(7) 0.4908(8) 0.7589(6)
H16_2 H 0.6956 0.4878 0.7285
C19_2 C 0.9917(7) 0.4866(9) 0.7376(6)
H17_2 H 0.9392 0.4849 0.7646
C25_2 C 0.4924(7) 0.4840(8) 0.7621(6)
H20_2 H 0.4392 0.4852 0.7358
C28_2 C 0.8777(8) 0.0778(7) 0.9655(7)
O5_2 O 0.7375(4) 0.4978(5) 0.9596(4)
O7_2 O 0.8024(4) 0.4938(5) 0.8382(4)
C33_2 C 0.7373(6) 0.4962(7) 0.8851(6)
O10_2 O 0.9897(4) 0.4771(5) 0.9024(4)
C44_2 C 0.6499(6) 0.4961(10) 0.8410(6)
C45_2 C 0.5681(7) 0.4895(10) 0.7179(6)
C49_2 C 0.5594(6) 0.4893(7) 0.6285(6)
C50_2 C 0.3645(14) 0.3383(10) 0.8608(14)
C51_2 C 0.8597(10) 0.4265(9) 0.6263(10)
H33_2 H 0.8146 0.4363 0.5851
H34_2 H 0.8345 0.4528 0.6759
C52_2 C 0.8602(11) 0.3308(10) 0.6442(11)
C53_2 C 0.8198(13) 0.3180(10) 0.7126(13)
H35_2 H 0.7992 0.3590 0.7513
C54_2 C 0.3827(19) 0.278(2) 0.9132(19)
H36_2 H 0.4118 0.2973 0.9581
C55_2 C 0.371(2) 0.189(2) 0.9225(12)
H37_2 H 0.3701 0.1537 0.9688
C56_2 C 0.3236 0.3197 0.7931
H38_2 H 0.3026 0.3615 0.7553
C57_2 C 0.3140 0.2271 0.7822
H39_2 H 0.2791 0.2069 0.7418
C58_2 C 0.8817 0.2802 0.5824
C59_2 C 0.8824 0.3042 0.4981
H40_2 H 0.8830 0.3629 0.4885
C60_2 C 0.870(2) 0.142(2) 0.523(2)
H41_2 H 0.8479 0.0896 0.5280
C61_2 C 0.8799(19) 0.1891(12) 0.600(2)
C62_2 C 0.8538(15) 0.1545(17) 0.6682(15)
H42_2 H 0.8597 0.0966 0.6830
C63_2 C 0.3628(16) 0.1709(15) 0.8388(10)
H43_2 H 0.3906 0.1195 0.8186
C64_2 C 0.814(2) 0.2270(11) 0.7151(19)
H44_2 H 0.7764 0.2110 0.7555
C65_2 C 0.887(2) 0.163(3) 0.456(3)
H45_2 H 0.9073 0.1167 0.4224
C66_2 C 0.882(3) 0.245(3) 0.416(3)
H46_2 H 0.8799 0.2602 0.3611
N5 N 0.8764(5) 0.6200(7) 0.9623(5)
C7_2 C 0.8906(11) 0.9432(10) 0.8961(10)
H6_2 H 0.8976 0.9122 0.8473
C11_2 C 0.9124(10) 0.7532(10) 0.9019(9)
H10_2 H 0.9331 0.7810 0.8565
C27_2 C 0.8771(8) 0.8027(7) 0.9644(7)
C29_2 C 0.8785(7) 0.9011(7) 0.9644(7)
C40_2 C 0.9193(9) 0.6652(10) 0.9015(7)
H27_2 H 0.9523 0.6347 0.8614
C12 C 0.1617(9) 0.3245(9) 0.9800(7)
H11 H 0.1931 0.3487 0.9390
C20 C 0.1584(9) 0.2396(9) 0.9763(9)
H18 H 0.1817 0.2093 0.9309
C21 C 0.1293(10) 0.0567(10) 0.9654(10)
H19 H 0.1391 0.0852 0.9167
C12_2 C 0.8383(9) 0.6755(9) 0.0200(7)
H11_2 H 0.8069 0.6513 0.0610
C20_2 C 0.8416(9) 0.7604(9) 0.0237(9)
H18_2 H 0.8183 0.7907 0.0691
C21_2 C 0.8707(10) 0.9433(10) 0.0346(10)
H19_2 H 0.8609 0.9148 0.0833
loop_
_geom_bond_atom_site_label_1
_geom_bond_atom_site_label_2
_geom_bond_site_symmetry_1
_geom_bond_site_symmetry_2
H6 C7 1_555 1_555
C11 H10 1_555 1_555
C27 C11 1_555 1_555
C29 C7 1_555 1_555
C40 N2 1_555 1_555
H27 C40 1_555 1_555
Zn3 N2 1_555 1_555
C11 C40 1_555 1_555
C27 C29 1_555 1_555
Zn3 N1 1_555 1_555
N1 C2 1_555 1_555
C1 C3 1_555 1_555
C2 H1 1_555 1_555
C3 C2 1_555 1_555
H2 C3 1_555 1_555
C5 H4 1_555 1_555
O1 C13 1_555 1_555
O2 C14 1_555 1_555
C14 C15 1_555 1_555
C15 H12 1_555 1_555
C17 O2 1_555 1_555
H14 C17 1_555 1_555
H15 C17 1_555 1_555
C18 H16 1_555 1_555
C19 C13 1_555 1_555
H17 C19 1_555 1_555
C25 C14 1_555 1_555
H20 C25 1_555 1_555
C28 C1 1_555 1_555
O4 C49 1_555 1_555
O5 Zn3 1_555 1_555
O7 Zn3 1_555 1_555
C33 O5 1_555 1_555
O9 C49 1_555 1_555
O10 Zn3 1_555 1_555
C44 C15 1_555 1_555
C45 C18 1_555 1_555
C49 C45 1_555 1_555
C50 C17 1_555 1_555
C51 O1 1_555 1_555
H33 C51 1_555 1_555
H34 C51 1_555 1_555
C52 C51 1_555 1_555
C53 C52 1_555 1_555
H35 C53 1_555 1_555
C54 C50 1_555 1_555
H36 C54 1_555 1_555
C55 C54 1_555 1_555
H37 C55 1_555 1_555
C56 C50 1_555 1_555
H38 C56 1_555 1_555
C57 C56 1_555 1_555
H39 C57 1_555 1_555
C58 C52 1_555 1_555
C59 C58 1_555 1_555
H40 C59 1_555 1_555
C60 H41 1_555 1_555
C61 C58 1_555 1_555
C62 C61 1_555 1_555
H42 C62 1_555 1_555
C63 C55 1_555 1_555
H43 C63 1_555 1_555
C64 C53 1_555 1_555
H44 C64 1_555 1_555
C65 C60 1_555 1_555
H45 C65 1_555 1_555
C66 C59 1_555 1_555
H46 C66 1_555 1_555
Zn6 O9 1_555 1_555
Zn7 O4 1_555 1_555
C5 C28 1_555 1_555
C18 C44 1_555 1_555
C25 C45 1_555 1_555
O7 C33 1_555 1_555
C33 C44 1_555 1_555
C57 C63 1_555 1_555
C60 C61 1_555 1_555
C62 C64 1_555 1_555
C65 C66 1_555 1_555
H3 C4 1_555 1_555
C6 H5 1_555 1_555
H26 C39 1_555 1_555
C4 C39 1_555 1_555
Zn6 N3 1_555 1_555
N3 C34 1_555 1_555
H8 C9 1_555 1_555
C10 H9 1_555 1_555
C16 H13 1_555 1_555
C22 C23 1_555 1_555
C23 C9 1_555 1_555
C24 O3 1_555 1_555
O6 Zn6 1_555 1_555
O8 Zn6 1_555 1_555
C32 O6 1_555 1_555
C34 H22 1_555 1_555
C36 C22 1_555 1_555
H24 C36 1_555 1_555
C37 C16 1_555 1_555
C42 N3 1_555 1_555
H29 C42 1_555 1_555
C46 C37 1_555 1_555
H30 C46 1_555 1_555
C47 C22 1_555 1_555
H31 C47 1_555 1_555
N6 Zn6 1_555 1_555
O12 Zn6 1_555 1_555
C10 C23 1_555 1_555
C24 C43 1_555 1_555
O8 C32 1_555 1_555
C32 C37 1_555 1_555
C34 C36 1_555 1_555
C42 C47 1_555 1_555
C43 C46 1_555 1_555
N6 C26 1_555 1_555
C8 H7 1_555 1_555
C26 H21 1_555 1_555
C30 C31 1_555 1_555
C31 C8 1_555 1_555
H23 C35 1_555 1_555
C38 C26 1_555 1_555
H25 C38 1_555 1_555
C41 N6 1_555 1_555
H28 C41 1_555 1_555
C48 C30 1_555 1_555
H32 C48 1_555 1_555
C30 C38 1_555 1_555
C31 C35 1_555 1_555
C41 C48 1_555 1_555
N4 C26_2 1_555 1_555
C8_2 H7_2 1_555 1_555
C26_2 H21_2 1_555 1_555
C30_2 C31_2 1_555 1_555
C31_2 C8_2 1_555 1_555
H23_2 C35_2 1_555 1_555
C38_2 C26_2 1_555 1_555
H25_2 C38_2 1_555 1_555
C41_2 N4 1_555 1_555
H28_2 C41_2 1_555 1_555
C48_2 C30_2 1_555 1_555
H32_2 C48_2 1_555 1_555
Zn7 N4 1_555 1_555
C30_2 C38_2 1_555 1_555
C31_2 C35_2 1_555 1_555
C41_2 C48_2 1_555 1_555
Zn7 N3_2 1_555 1_555
N3_2 C34_2 1_555 1_555
H8_2 C9_2 1_555 1_555
C10_2 H9_2 1_555 1_555
C16_2 H13_2 1_555 1_555
C22_2 C23_2 1_555 1_555
C23_2 C9_2 1_555 1_555
C24_2 O11 1_555 1_555
O6_2 Zn7 1_555 1_555
O8_2 Zn7 1_555 1_555
C32_2 O6_2 1_555 1_555
C34_2 H22_2 1_555 1_555
C36_2 C22_2 1_555 1_555
H24_2 C36_2 1_555 1_555
C37_2 C16_2 1_555 1_555
C42_2 N3_2 1_555 1_555
H29_2 C42_2 1_555 1_555
C46_2 C37_2 1_555 1_555
H30_2 C46_2 1_555 1_555
C47_2 C22_2 1_555 1_555
H31_2 C47_2 1_555 1_555
O13 Zn7 1_555 1_555
C10_2 C23_2 1_555 1_555
C24_2 C43_2 1_555 1_555
O8_2 C32_2 1_555 1_555
C32_2 C37_2 1_555 1_555
C34_2 C36_2 1_555 1_555
C42_2 C47_2 1_555 1_555
C43_2 C46_2 1_555 1_555
H3_2 C4_2 1_555 1_555
C6_2 H5_2 1_555 1_555
H26_2 C39_2 1_555 1_555
C4_2 C39_2 1_555 1_555
Zn4 N1_2 1_555 1_555
N1_2 C2_2 1_555 1_555
C1_2 C3_2 1_555 1_555
C2_2 H1_2 1_555 1_555
C3_2 C2_2 1_555 1_555
H2_2 C3_2 1_555 1_555
C5_2 H4_2 1_555 1_555
O1_2 C13_2 1_555 1_555
O2_2 C14_2 1_555 1_555
C14_2 C15_2 1_555 1_555
C15_2 H12_2 1_555 1_555
C17_2 O2_2 1_555 1_555
H14_2 C17_2 1_555 1_555
H15_2 C17_2 1_555 1_555
C18_2 H16_2 1_555 1_555
C19_2 C13_2 1_555 1_555
H17_2 C19_2 1_555 1_555
C25_2 C14_2 1_555 1_555
H20_2 C25_2 1_555 1_555
C28_2 C1_2 1_555 1_555
O12 C49_2 1_555 1_555
O5_2 Zn4 1_555 1_555
O7_2 Zn4 1_555 1_555
C33_2 O5_2 1_555 1_555
O13 C49_2 1_555 1_555
O10_2 Zn4 1_555 1_555
C44_2 C15_2 1_555 1_555
C45_2 C18_2 1_555 1_555
C49_2 C45_2 1_555 1_555
C50_2 C17_2 1_555 1_555
C51_2 O1_2 1_555 1_555
H33_2 C51_2 1_555 1_555
H34_2 C51_2 1_555 1_555
C52_2 C51_2 1_555 1_555
C53_2 C52_2 1_555 1_555
H35_2 C53_2 1_555 1_555
C54_2 C50_2 1_555 1_555
H36_2 C54_2 1_555 1_555
C55_2 C54_2 1_555 1_555
H37_2 C55_2 1_555 1_555
C56_2 C50_2 1_555 1_555
H38_2 C56_2 1_555 1_555
C57_2 C56_2 1_555 1_555
H39_2 C57_2 1_555 1_555
C58_2 C52_2 1_555 1_555
C59_2 C58_2 1_555 1_555
H40_2 C59_2 1_555 1_555
C60_2 H41_2 1_555 1_555
C61_2 C58_2 1_555 1_555
C62_2 C61_2 1_555 1_555
H42_2 C62_2 1_555 1_555
C63_2 C55_2 1_555 1_555
H43_2 C63_2 1_555 1_555
C64_2 C53_2 1_555 1_555
H44_2 C64_2 1_555 1_555
C65_2 C60_2 1_555 1_555
H45_2 C65_2 1_555 1_555
C66_2 C59_2 1_555 1_555
H46_2 C66_2 1_555 1_555
N5 Zn4 1_555 1_555
C5_2 C28_2 1_555 1_555
C18_2 C44_2 1_555 1_555
C25_2 C45_2 1_555 1_555
O7_2 C33_2 1_555 1_555
C33_2 C44_2 1_555 1_555
C57_2 C63_2 1_555 1_555
C60_2 C61_2 1_555 1_555
C62_2 C64_2 1_555 1_555
C65_2 C66_2 1_555 1_555
H6_2 C7_2 1_555 1_555
C11_2 H10_2 1_555 1_555
C27_2 C11_2 1_555 1_555
C29_2 C7_2 1_555 1_555
C40_2 N5 1_555 1_555
H27_2 C40_2 1_555 1_555
C11_2 C40_2 1_555 1_555
C27_2 C29_2 1_555 1_555
C12 H11 1_555 1_555
C20 C12 1_555 1_555
H18 C20 1_555 1_555
H19 C21 1_555 1_555
C12_2 H11_2 1_555 1_555
C20_2 C12_2 1_555 1_555
H18_2 C20_2 1_555 1_555
H19_2 C21_2 1_555 1_555

#END
