
###############################################################################
#
# This file contains modified crystal structure data generated from the
# MOF subset of the Cambridge Structural Database (CSD) v543 
# hosted by the Cambridge Crystallographic Data Centre (CCDC).
#
# This work is licensed under the Creative Commons
# Attribution-NonCommercial-ShareAlike 4.0 International License.
# To view a copy of this license, visit
# http://creativecommons.org/licenses/by-nc-sa/4.0/
# or send a letter to
# Creative Commons, PO Box 1866, Mountain View, CA 94042, USA.
#
# CIF created using the CSD Python API on 29 September 2022
# The structure has been converted into the P1 space group
# The structure has a 3D framework
# The original CSD entry YORKOG is in the orthorhombic crystal system
# The framework has been calculated to contain at least 10.0% void space
# The void calculation uses a probe of radius 1.32A, grid spacing 0.4
# H atom positions have been added when not included in the experimental data
#
###############################################################################

data_YORKOG
_chemical_formula_moiety         '(C136 H152 N16 Ni8 O37)n'
_symmetry_cell_setting           triclinic
_symmetry_space_group_name_H-M   'P 1'
_symmetry_Int_Tables_number      1
_space_group_name_Hall           'P 1'
loop_
_symmetry_equiv_pos_site_id
_symmetry_equiv_pos_as_xyz
1 x,y,z
_cell_length_a                   21.140(3)
_cell_length_b                   10.4028(16)
_cell_length_c                   19.250(3)
_cell_angle_alpha                90
_cell_angle_beta                 90
_cell_angle_gamma                90
_cell_volume                     4233.37
loop_
_atom_site_label
_atom_site_type_symbol
_atom_site_fract_x
_atom_site_fract_y
_atom_site_fract_z
Ni5 Ni 0.03067(3) 0.27509(7) 0.80865(4)
O6 O 0.0772(2) 0.0660(4) 0.8252(2)
H18 H 0.007(4) 0.126(3) 0.721(4)
O8 O 0.0512(2) 0.7220(4) 0.6552(2)
O10 O 0.02502(19) 0.9668(3) 0.7407(2)
O12 O 0.0050(2) 0.7025(4) 0.7808(2)
O14 O 0.1520(2) 0.7254(5) 0.6900(3)
C31 C 0.0724(3) 0.7212(5) 0.7766(3)
H33 H 0.0928 0.6474 0.7991
C32 C 0.0943(3) 0.7245(5) 0.7019(4)
C33 C 0.0618(3) 0.9674(5) 0.7930(3)
C34 C 0.0895(3) 0.8411(6) 0.8183(3)
H34 H 0.0760 0.8279 0.8659
H35 H 0.1352 0.8492 0.8188
H1 H 0.5455 0.0261 0.1167
C10 C 0.5817(4) 0.0128(7) 0.0216(4)
H10 H 0.5858 0.1009 0.0149
H7 H 0.7210 0.0767 0.8252
H12 H 0.6239 0.0681 0.9006
H19 H 0.9545 0.0261 0.6167
H25 H 0.7790 0.0767 0.3252
C27 C 0.9183(4) 0.0128(7) 0.5216(4)
H28 H 0.9142 0.1009 0.5149
H30 H 0.8761 0.0681 0.4006
N2 N 0.5533(3) 0.8426(5) 0.0972(3)
C1 C 0.5584(4) 0.9673(7) 0.0832(4)
C11 C 0.5678(4) 0.7621(7) 0.0461(4)
H11 H 0.5626 0.6744 0.0535
Ni3 Ni 0.53067(3) 0.77509(7) 0.19135(4)
Ni1 Ni 0.96933(3) 0.77509(7) 0.69135(4)
N1 N 0.8895(2) 0.8393(5) 0.7346(3)
C2 C 0.8870(3) 0.8769(6) 0.8008(3)
H2 H 0.9233 0.8717 0.8278
C3 C 0.6923(3) 0.9314(7) 0.8869(4)
H3 H 0.7197 0.9595 0.9244
H4 H 0.6936 0.8383 0.8852
C4 C 0.5992(3) 0.9297(7) 0.9698(3)
C5 C 0.8321(3) 0.9231(7) 0.8304(4)
H5 H 0.8320 0.9484 0.8767
C6 C 0.8359(3) 0.8478(8) 0.6977(4)
H6 H 0.8363 0.8197 0.6518
C7 C 0.7161(4) 0.9846(10) 0.8197(5)
H8 H 0.6837 0.9709 0.7848
C8 C 0.7771(3) 0.9323(7) 0.7918(4)
C9 C 0.7809(4) 0.8956(8) 0.7239(4)
H9 H 0.7456 0.9031 0.6954
C12 C 0.6251(4) 0.9749(8) 0.9016(4)
H13 H 0.5979 0.9439 0.8647
C13 C 0.5901(4) 0.8020(7) 0.9834(4)
H14 H 0.5994 0.7415 0.9493
O1 O 0.9228(2) 0.5660(4) 0.6748(2)
O2 O 0.9488(2) 0.2220(4) 0.8448(2)
O3 O 0.97498(19) 0.4668(3) 0.7593(2)
O4 O 0.9950(2) 0.2025(4) 0.7192(2)
O5 O 0.8480(2) 0.2254(5) 0.8100(3)
C14 C 0.9276(3) 0.2212(5) 0.7234(3)
H15 H 0.9072 0.1474 0.7009
C15 C 0.9057(3) 0.2245(5) 0.7981(4)
C16 C 0.9382(3) 0.4674(5) 0.7070(3)
C17 C 0.9105(3) 0.3411(6) 0.6817(3)
H16 H 0.9240 0.3279 0.6341
H17 H 0.8648 0.3492 0.6812
N3 N 0.6105(2) 0.8393(5) 0.2346(3)
N4 N 0.9467(3) 0.8426(5) 0.5972(3)
C18 C 0.9416(4) 0.9673(7) 0.5832(4)
C19 C 0.6130(3) 0.8769(6) 0.3008(3)
H20 H 0.5767 0.8717 0.3278
C20 C 0.8077(3) 0.9314(7) 0.3869(4)
H21 H 0.7803 0.9595 0.4244
H22 H 0.8064 0.8383 0.3852
C21 C 0.9008(3) 0.9297(7) 0.4698(3)
C22 C 0.6679(3) 0.9231(7) 0.3304(4)
H23 H 0.6680 0.9484 0.3767
C23 C 0.6641(3) 0.8478(8) 0.1977(4)
H24 H 0.6637 0.8197 0.1518
C24 C 0.7839(4) 0.9846(10) 0.3197(5)
H26 H 0.8163 0.9709 0.2848
C25 C 0.7229(3) 0.9323(7) 0.2918(4)
C26 C 0.7191(4) 0.8956(8) 0.2239(4)
H27 H 0.7544 0.9031 0.1954
C28 C 0.9322(4) 0.7621(7) 0.5461(4)
H29 H 0.9374 0.6744 0.5535
C29 C 0.8749(4) 0.9749(8) 0.4016(4)
H31 H 0.9021 0.9439 0.3647
C30 C 0.9099(4) 0.8020(7) 0.4834(4)
H32 H 0.9006 0.7415 0.4493
O7 O 0.5772(2) 0.5660(4) 0.1748(2)
O9 O 0.4488(2) 0.7220(4) 0.1552(2)
O11 O 0.47498(19) 0.9668(3) 0.2407(2)
O13 O 0.4950(2) 0.7025(4) 0.2808(2)
H36 H 0.993(4) 0.626(3) 0.779(4)
H37 H 0.507(4) 0.626(3) 0.279(4)
H38 H 0.448129 0.708523 0.281754
Ni2 Ni 0.46933(3) 0.27509(7) 0.30865(4)
N3_2 N 0.3895(2) 0.3393(5) 0.2654(3)
N5 N 0.4467(3) 0.3426(5) 0.4028(3)
C19_2 C 0.3870(3) 0.3769(6) 0.1992(3)
H20_2 H 0.4233 0.3717 0.1722
C20_2 C 0.1923(3) 0.4314(7) 0.1131(4)
H21_2 H 0.2197 0.4595 0.0756
H22_2 H 0.1936 0.3383 0.1148
C21_2 C 0.0992(3) 0.4297(7) 0.0302(3)
C22_2 C 0.3321(3) 0.4231(7) 0.1696(4)
H23_2 H 0.3320 0.4484 0.1233
C23_2 C 0.3359(3) 0.3478(8) 0.3023(4)
H24_2 H 0.3363 0.3197 0.3482
C24_2 C 0.2161(4) 0.4846(10) 0.1803(5)
H25_2 H 0.2210 0.5767 0.1748
H26_2 H 0.1837 0.4709 0.2152
C25_2 C 0.2771(3) 0.4323(7) 0.2082(4)
C26_2 C 0.2809(4) 0.3956(8) 0.2761(4)
H27_2 H 0.2456 0.4031 0.3046
C29_2 C 0.1251(4) 0.4749(8) 0.0984(4)
H30_2 H 0.1239 0.5681 0.0994
H31_2 H 0.0979 0.4439 0.1353
C30_2 C 0.0901(4) 0.3020(7) 0.0166(4)
H32_2 H 0.0994 0.2415 0.0507
O7_2 O 0.4228(2) 0.0660(4) 0.3252(2)
O9_2 O 0.5512(2) 0.2220(4) 0.3448(2)
O11_2 O 0.52502(19) 0.4668(3) 0.2593(2)
O13_2 O 0.5050(2) 0.2025(4) 0.2192(2)
H37_2 H 0.493(4) 0.126(3) 0.221(4)
H38_2 H 0.551871 0.208523 0.218246
N1_2 N 0.1105(2) 0.3393(5) 0.7654(3)
C1_2 C 0.4416(4) 0.4673(7) 0.4168(4)
H1_2 H 0.4545 0.5261 0.3833
C2_2 C 0.1130(3) 0.3769(6) 0.6992(3)
H2_2 H 0.0767 0.3717 0.6722
C3_2 C 0.3077(3) 0.4314(7) 0.6131(4)
H3_2 H 0.2803 0.4595 0.5756
H4_2 H 0.3064 0.3383 0.6148
C4_2 C 0.4008(3) 0.4297(7) 0.5302(3)
C5_2 C 0.1679(3) 0.4231(7) 0.6696(4)
H5_2 H 0.1680 0.4484 0.6233
C6_2 C 0.1641(3) 0.3478(8) 0.8023(4)
H6_2 H 0.1637 0.3197 0.8482
C7_2 C 0.2839(4) 0.4846(10) 0.6803(5)
H7_2 H 0.2790 0.5767 0.6748
H8_2 H 0.3163 0.4709 0.7152
C8_2 C 0.2229(3) 0.4323(7) 0.7082(4)
C9_2 C 0.2191(4) 0.3956(8) 0.7761(4)
H9_2 H 0.2544 0.4031 0.8046
C10_2 C 0.4183(4) 0.5128(7) 0.4784(4)
H10_2 H 0.4142 0.6009 0.4851
C11_2 C 0.4322(4) 0.2621(7) 0.4539(4)
H11_2 H 0.4374 0.1744 0.4465
C12_2 C 0.3749(4) 0.4749(8) 0.5984(4)
H12_2 H 0.3761 0.5681 0.5994
H13_2 H 0.4021 0.4439 0.6353
C13_2 C 0.4099(4) 0.3020(7) 0.5166(4)
H14_2 H 0.4006 0.2415 0.5507
N4_2 N 0.0533(3) 0.3426(5) 0.9028(3)
C18_2 C 0.0584(4) 0.4673(7) 0.9168(4)
H19_2 H 0.0455 0.5261 0.8833
C27_2 C 0.0817(4) 0.5128(7) 0.9784(4)
H28_2 H 0.0858 0.6009 0.9851
C28_2 C 0.0678(4) 0.2621(7) 0.9539(4)
H29_2 H 0.0626 0.1744 0.9465
O14_2 O 0.6520(2) 0.2254(5) 0.3100(3)
C31_2 C 0.5724(3) 0.2212(5) 0.2234(3)
H33_2 H 0.5928 0.1474 0.2009
C32_2 C 0.5943(3) 0.2245(5) 0.2981(4)
C33_2 C 0.5618(3) 0.4674(5) 0.2070(3)
C34_2 C 0.5895(3) 0.3411(6) 0.1817(3)
H34_2 H 0.5760 0.3279 0.1341
H35_2 H 0.6352 0.3492 0.1812
O5_2 O 0.3480(2) 0.7254(5) 0.1900(3)
C14_2 C 0.4276(3) 0.7212(5) 0.2766(3)
H15_2 H 0.4072 0.6474 0.2991
C15_2 C 0.4057(3) 0.7245(5) 0.2019(4)
C16_2 C 0.4382(3) 0.9674(5) 0.2930(3)
C17_2 C 0.4105(3) 0.8411(6) 0.3183(3)
H16_2 H 0.4240 0.8279 0.3659
H17_2 H 0.3648 0.8492 0.3188
H38_3 H 0.948129 0.208523 0.718246
H38_4 H 0.0518709 0.708523 0.781754
O9_3 O 0.0512(2) 0.7780(4) 0.1552(2)
O11_3 O 0.02502(19) 0.5332(3) 0.2407(2)
O13_3 O 0.0050(2) 0.7975(4) 0.2808(2)
H38_5 H 0.0518709 0.791477 0.281754
O2_2 O 0.5512(2) 0.2780(4) 0.8448(2)
O3_2 O 0.52502(19) 0.0332(3) 0.7593(2)
O4_2 O 0.5050(2) 0.2975(4) 0.7192(2)
O5_3 O 0.6520(2) 0.2746(5) 0.8100(3)
C14_3 C 0.5724(3) 0.2788(5) 0.7234(3)
H15_3 H 0.5928 0.3526 0.7009
C15_3 C 0.5943(3) 0.2755(5) 0.7981(4)
C16_3 C 0.5618(3) 0.0326(5) 0.7070(3)
C17_3 C 0.5895(3) 0.1589(6) 0.6817(3)
H16_3 H 0.5760 0.1721 0.6341
H17_3 H 0.6352 0.1508 0.6812
H18_2 H 0.493(4) 0.374(3) 0.721(4)
Ni4 Ni 0.46933(3) 0.22491(7) 0.80865(4)
N2_2 N 0.9467(3) 0.6574(5) 0.0972(3)
C1_3 C 0.9416(4) 0.5327(7) 0.0832(4)
H1_3 H 0.9545 0.4739 0.1167
C10_3 C 0.9183(4) 0.4872(7) 0.0216(4)
H10_3 H 0.9142 0.3991 0.0149
C11_3 C 0.9322(4) 0.7379(7) 0.0461(4)
H11_3 H 0.9374 0.8256 0.0535
Ni3_2 Ni 0.96933(3) 0.72491(7) 0.19135(4)
Ni1_2 Ni 0.53067(3) 0.72491(7) 0.69135(4)
N1_3 N 0.6105(2) 0.6607(5) 0.7346(3)
C2_3 C 0.6130(3) 0.6231(6) 0.8008(3)
H2_3 H 0.5767 0.6283 0.8278
C3_3 C 0.8077(3) 0.5686(7) 0.8869(4)
H3_3 H 0.7803 0.5405 0.9244
H4_3 H 0.8064 0.6617 0.8852
C4_3 C 0.9008(3) 0.5703(7) 0.9698(3)
C5_3 C 0.6679(3) 0.5769(7) 0.8304(4)
H5_3 H 0.6680 0.5516 0.8767
C6_3 C 0.6641(3) 0.6522(8) 0.6977(4)
H6_3 H 0.6637 0.6803 0.6518
C7_3 C 0.7839(4) 0.5154(10) 0.8197(5)
H7_3 H 0.7790 0.4233 0.8252
H8_3 H 0.8163 0.5291 0.7848
C8_3 C 0.7229(3) 0.5677(7) 0.7918(4)
C9_3 C 0.7191(4) 0.6044(8) 0.7239(4)
H9_3 H 0.7544 0.5969 0.6954
C12_3 C 0.8749(4) 0.5251(8) 0.9016(4)
H12_3 H 0.8761 0.4319 0.9006
H13_3 H 0.9021 0.5561 0.8647
C13_3 C 0.9099(4) 0.6980(7) 0.9834(4)
H14_3 H 0.9006 0.7585 0.9493
O1_2 O 0.5772(2) 0.9340(4) 0.6748(2)
N3_3 N 0.8895(2) 0.6607(5) 0.2346(3)
N4_3 N 0.5533(3) 0.6574(5) 0.5972(3)
C18_3 C 0.5584(4) 0.5327(7) 0.5832(4)
H19_3 H 0.5455 0.4739 0.6167
C19_3 C 0.8870(3) 0.6231(6) 0.3008(3)
H20_3 H 0.9233 0.6283 0.3278
C20_3 C 0.6923(3) 0.5686(7) 0.3869(4)
H21_3 H 0.7197 0.5405 0.4244
H22_3 H 0.6936 0.6617 0.3852
C21_3 C 0.5992(3) 0.5703(7) 0.4698(3)
C22_3 C 0.8321(3) 0.5769(7) 0.3304(4)
H23_3 H 0.8320 0.5516 0.3767
C23_3 C 0.8359(3) 0.6522(8) 0.1977(4)
H24_3 H 0.8363 0.6803 0.1518
C24_3 C 0.7161(4) 0.5154(10) 0.3197(5)
H25_3 H 0.7210 0.4233 0.3252
H26_3 H 0.6837 0.5291 0.2848
C25_3 C 0.7771(3) 0.5677(7) 0.2918(4)
C26_3 C 0.7809(4) 0.6044(8) 0.2239(4)
H27_3 H 0.7456 0.5969 0.1954
C27_3 C 0.5817(4) 0.4872(7) 0.5216(4)
H28_3 H 0.5858 0.3991 0.5149
C28_3 C 0.5678(4) 0.7379(7) 0.5461(4)
H29_3 H 0.5626 0.8256 0.5535
C29_3 C 0.6251(4) 0.5251(8) 0.4016(4)
H30_3 H 0.6239 0.4319 0.4006
H31_3 H 0.5979 0.5561 0.3647
C30_3 C 0.5901(4) 0.6980(7) 0.4834(4)
H32_3 H 0.5994 0.7585 0.4493
O6_2 O 0.4228(2) 0.4340(4) 0.8252(2)
O7_3 O 0.9228(2) 0.9340(4) 0.1748(2)
O8_2 O 0.4488(2) 0.7780(4) 0.6552(2)
O10_2 O 0.47498(19) 0.5332(3) 0.7407(2)
O12_2 O 0.4950(2) 0.7975(4) 0.7808(2)
O14_3 O 0.3480(2) 0.7746(5) 0.6900(3)
C31_3 C 0.4276(3) 0.7788(5) 0.7766(3)
H33_3 H 0.4072 0.8526 0.7991
C32_3 C 0.4057(3) 0.7755(5) 0.7019(4)
C33_3 C 0.4382(3) 0.5326(5) 0.7930(3)
C34_3 C 0.4105(3) 0.6589(6) 0.8183(3)
H34_3 H 0.4240 0.6721 0.8659
H35_3 H 0.3648 0.6508 0.8188
H36_2 H 0.507(4) 0.874(3) 0.779(4)
H37_3 H 0.993(4) 0.874(3) 0.279(4)
Ni2_2 Ni 0.03067(3) 0.22491(7) 0.30865(4)
N3_4 N 0.1105(2) 0.1607(5) 0.2654(3)
N5_2 N 0.0533(3) 0.1574(5) 0.4028(3)
C19_4 C 0.1130(3) 0.1231(6) 0.1992(3)
H20_4 H 0.0767 0.1283 0.1722
C20_4 C 0.3077(3) 0.0686(7) 0.1131(4)
H21_4 H 0.2803 0.0405 0.0756
H22_4 H 0.3064 0.1617 0.1148
C21_4 C 0.4008(3) 0.0703(7) 0.0302(3)
C22_4 C 0.1679(3) 0.0769(7) 0.1696(4)
H23_4 H 0.1680 0.0516 0.1233
C23_4 C 0.1641(3) 0.1522(8) 0.3023(4)
H24_4 H 0.1637 0.1803 0.3482
C24_4 C 0.2839(4) 0.0154(10) 0.1803(5)
H26_4 H 0.3163 0.0291 0.2152
C25_4 C 0.2229(3) 0.0677(7) 0.2082(4)
C26_4 C 0.2191(4) 0.1044(8) 0.2761(4)
H27_4 H 0.2544 0.0969 0.3046
C29_4 C 0.3749(4) 0.0251(8) 0.0984(4)
H31_4 H 0.4021 0.0561 0.1353
C30_4 C 0.4099(4) 0.1980(7) 0.0166(4)
H32_4 H 0.4006 0.2585 0.0507
O7_4 O 0.0772(2) 0.4340(4) 0.3252(2)
H37_4 H 0.007(4) 0.374(3) 0.221(4)
N1_4 N 0.3895(2) 0.1607(5) 0.7654(3)
C1_4 C 0.0584(4) 0.0327(7) 0.4168(4)
C2_4 C 0.3870(3) 0.1231(6) 0.6992(3)
H2_4 H 0.4233 0.1283 0.6722
C3_4 C 0.1923(3) 0.0686(7) 0.6131(4)
H3_4 H 0.2197 0.0405 0.5756
H4_4 H 0.1936 0.1617 0.6148
C4_4 C 0.0992(3) 0.0703(7) 0.5302(3)
C5_4 C 0.3321(3) 0.0769(7) 0.6696(4)
H5_4 H 0.3320 0.0516 0.6233
C6_4 C 0.3359(3) 0.1522(8) 0.8023(4)
H6_4 H 0.3363 0.1803 0.8482
C7_4 C 0.2161(4) 0.0154(10) 0.6803(5)
H8_4 H 0.1837 0.0291 0.7152
C8_4 C 0.2771(3) 0.0677(7) 0.7082(4)
C9_4 C 0.2809(4) 0.1044(8) 0.7761(4)
H9_4 H 0.2456 0.0969 0.8046
C11_4 C 0.0678(4) 0.2379(7) 0.4539(4)
H11_4 H 0.0626 0.3256 0.4465
C12_4 C 0.1251(4) 0.0251(8) 0.5984(4)
H13_4 H 0.0979 0.0561 0.6353
C13_4 C 0.0901(4) 0.1980(7) 0.5166(4)
H14_4 H 0.0994 0.2585 0.5507
N4_4 N 0.4467(3) 0.1574(5) 0.9028(3)
C18_4 C 0.4416(4) 0.0327(7) 0.9168(4)
C28_4 C 0.4322(4) 0.2379(7) 0.9539(4)
H29_4 H 0.4374 0.3256 0.9465
H25_4 H 0.2790 0.9233 0.1748
H30_4 H 0.3761 0.9319 0.0994
H1_4 H 0.0455 0.9739 0.3833
H7_4 H 0.2210 0.9233 0.6748
C10_4 C 0.0817(4) 0.9872(7) 0.4784(4)
H10_4 H 0.0858 0.8991 0.4851
H12_4 H 0.1239 0.9319 0.5994
H19_4 H 0.4545 0.9739 0.8833
C27_4 C 0.4183(4) 0.9872(7) 0.9784(4)
H28_4 H 0.4142 0.8991 0.9851
O9_4 O 0.9488(2) 0.2780(4) 0.3448(2)
O11_4 O 0.97498(19) 0.0332(3) 0.2593(2)
O13_4 O 0.9950(2) 0.2975(4) 0.2192(2)
H38_6 H 0.948129 0.291477 0.218246
O5_4 O 0.1520(2) 0.7746(5) 0.1900(3)
C14_4 C 0.0724(3) 0.7788(5) 0.2766(3)
H15_4 H 0.0928 0.8526 0.2991
C15_4 C 0.0943(3) 0.7755(5) 0.2019(4)
C16_4 C 0.0618(3) 0.5326(5) 0.2930(3)
C17_4 C 0.0895(3) 0.6589(6) 0.3183(3)
H16_4 H 0.0760 0.6721 0.3659
H17_4 H 0.1352 0.6508 0.3188
H38_7 H 0.551871 0.291477 0.718246
O14_4 O 0.8480(2) 0.2746(5) 0.3100(3)
C31_4 C 0.9276(3) 0.2788(5) 0.2234(3)
H33_4 H 0.9072 0.3526 0.2009
C32_4 C 0.9057(3) 0.2755(5) 0.2981(4)
C33_4 C 0.9382(3) 0.0326(5) 0.2070(3)
C34_4 C 0.9105(3) 0.1589(6) 0.1817(3)
H34_4 H 0.9240 0.1721 0.1341
H35_4 H 0.8648 0.1508 0.1812
H38_8 H 0.448129 0.791477 0.781754
loop_
_geom_bond_atom_site_label_1
_geom_bond_atom_site_label_2
_geom_bond_site_symmetry_1
_geom_bond_site_symmetry_2
Ni5 O6 1_555 1_555
O14 C32 1_555 1_555
C31 O12 1_555 1_555
H33 C31 1_555 1_555
C32 O8 1_555 1_555
C33 O10 1_555 1_555
C34 C31 1_555 1_555
H34 C34 1_555 1_555
H35 C34 1_555 1_555
C31 C32 1_555 1_555
C33 C34 1_555 1_555
H10 C10 1_555 1_555
H28 C27 1_555 1_555
N2 C1 1_555 1_555
C11 N2 1_555 1_555
H11 C11 1_555 1_555
Ni3 N2 1_555 1_555
Ni1 N1 1_555 1_555
N1 C2 1_555 1_555
C2 H2 1_555 1_555
C3 H3 1_555 1_555
H4 C3 1_555 1_555
C5 C2 1_555 1_555
H5 C5 1_555 1_555
C6 N1 1_555 1_555
H6 C6 1_555 1_555
C7 C3 1_555 1_555
H8 C7 1_555 1_555
C8 C5 1_555 1_555
C9 C6 1_555 1_555
H9 C9 1_555 1_555
C12 C3 1_555 1_555
H13 C12 1_555 1_555
C13 C4 1_555 1_555
H14 C13 1_555 1_555
O1 Ni1 1_555 1_555
O2 C15 1_555 1_555
O3 C16 1_555 1_555
O4 C14 1_555 1_555
O5 C15 1_555 1_555
C14 H15 1_555 1_555
C15 C14 1_555 1_555
C16 O1 1_555 1_555
C17 C14 1_555 1_555
H16 C17 1_555 1_555
H17 C17 1_555 1_555
Ni3 N3 1_555 1_555
N3 C19 1_555 1_555
N4 Ni1 1_555 1_555
C18 N4 1_555 1_555
C19 H20 1_555 1_555
C20 H21 1_555 1_555
H22 C20 1_555 1_555
C22 C19 1_555 1_555
H23 C22 1_555 1_555
C23 N3 1_555 1_555
H24 C23 1_555 1_555
C24 C20 1_555 1_555
H26 C24 1_555 1_555
C25 C22 1_555 1_555
C26 C23 1_555 1_555
H27 C26 1_555 1_555
C28 N4 1_555 1_555
H29 C28 1_555 1_555
C29 C20 1_555 1_555
H31 C29 1_555 1_555
C30 C21 1_555 1_555
H32 C30 1_555 1_555
O7 Ni3 1_555 1_555
O9 Ni3 1_555 1_555
O11 Ni3 1_555 1_555
O13 Ni3 1_555 1_555
H37 O13 1_555 1_555
C4 C12 1_555 1_555
C7 C8 1_555 1_555
C8 C9 1_555 1_555
C16 C17 1_555 1_555
C21 C29 1_555 1_555
C24 C25 1_555 1_555
C25 C26 1_555 1_555
C28 C30 1_555 1_555
O13 H38 1_555 1_555
Ni2 N3_2 1_555 1_555
N3_2 C19_2 1_555 1_555
N5 Ni2 1_555 1_555
C19_2 H20_2 1_555 1_555
C20_2 H21_2 1_555 1_555
H22_2 C20_2 1_555 1_555
C22_2 C19_2 1_555 1_555
H23_2 C22_2 1_555 1_555
C23_2 N3_2 1_555 1_555
H24_2 C23_2 1_555 1_555
C24_2 C20_2 1_555 1_555
H25_2 C24_2 1_555 1_555
H26_2 C24_2 1_555 1_555
C25_2 C22_2 1_555 1_555
C26_2 C23_2 1_555 1_555
H27_2 C26_2 1_555 1_555
C29_2 C20_2 1_555 1_555
H30_2 C29_2 1_555 1_555
H31_2 C29_2 1_555 1_555
C30_2 C21_2 1_555 1_555
H32_2 C30_2 1_555 1_555
O7_2 Ni2 1_555 1_555
O9_2 Ni2 1_555 1_555
O11_2 Ni2 1_555 1_555
O13_2 Ni2 1_555 1_555
H37_2 O13_2 1_555 1_555
C21_2 C29_2 1_555 1_555
C24_2 C25_2 1_555 1_555
C25_2 C26_2 1_555 1_555
O13_2 H38_2 1_555 1_555
Ni5 N1_2 1_555 1_555
N1_2 C2_2 1_555 1_555
N5 C1_2 1_555 1_555
C1_2 H1_2 1_555 1_555
C2_2 H2_2 1_555 1_555
C3_2 H3_2 1_555 1_555
H4_2 C3_2 1_555 1_555
C4_2 C10_2 1_555 1_555
C5_2 C2_2 1_555 1_555
H5_2 C5_2 1_555 1_555
C6_2 N1_2 1_555 1_555
H6_2 C6_2 1_555 1_555
C7_2 C3_2 1_555 1_555
H7_2 C7_2 1_555 1_555
H8_2 C7_2 1_555 1_555
C8_2 C5_2 1_555 1_555
C9_2 C6_2 1_555 1_555
H9_2 C9_2 1_555 1_555
C10_2 C1_2 1_555 1_555
H10_2 C10_2 1_555 1_555
C11_2 N5 1_555 1_555
H11_2 C11_2 1_555 1_555
C12_2 C3_2 1_555 1_555
H12_2 C12_2 1_555 1_555
H13_2 C12_2 1_555 1_555
C13_2 C4_2 1_555 1_555
H14_2 C13_2 1_555 1_555
N4_2 Ni5 1_555 1_555
C18_2 N4_2 1_555 1_555
H19_2 C18_2 1_555 1_555
C27_2 C18_2 1_555 1_555
H28_2 C27_2 1_555 1_555
C28_2 N4_2 1_555 1_555
H29_2 C28_2 1_555 1_555
C4_2 C12_2 1_555 1_555
C7_2 C8_2 1_555 1_555
C8_2 C9_2 1_555 1_555
C11_2 C13_2 1_555 1_555
O7 C33_2 1_555 1_555
O14_2 C32_2 1_555 1_555
C31_2 O13_2 1_555 1_555
H33_2 C31_2 1_555 1_555
C32_2 O9_2 1_555 1_555
C33_2 O11_2 1_555 1_555
C34_2 C31_2 1_555 1_555
H34_2 C34_2 1_555 1_555
H35_2 C34_2 1_555 1_555
C31_2 C32_2 1_555 1_555
C33_2 C34_2 1_555 1_555
O9 C15_2 1_555 1_555
O11 C16_2 1_555 1_555
O13 C14_2 1_555 1_555
O5_2 C15_2 1_555 1_555
C14_2 H15_2 1_555 1_555
C15_2 C14_2 1_555 1_555
C17_2 C14_2 1_555 1_555
H16_2 C17_2 1_555 1_555
H17_2 C17_2 1_555 1_555
C16_2 C17_2 1_555 1_555
O4 H38_3 1_555 1_555
O12 H38_4 1_555 1_555
O13_3 H38_5 1_555 1_555
O2_2 C15_3 1_555 1_555
O3_2 C16_3 1_555 1_555
O4_2 C14_3 1_555 1_555
O5_3 C15_3 1_555 1_555
C14_3 H15_3 1_555 1_555
C15_3 C14_3 1_555 1_555
C17_3 C14_3 1_555 1_555
H16_3 C17_3 1_555 1_555
H17_3 C17_3 1_555 1_555
H18_2 O4_2 1_555 1_555
Ni4 O2_2 1_555 1_555
O3_2 Ni4 1_555 1_555
O4_2 Ni4 1_555 1_555
C16_3 C17_3 1_555 1_555
N2_2 C1_3 1_555 1_555
C1_3 H1_3 1_555 1_555
C10_3 C1_3 1_555 1_555
H10_3 C10_3 1_555 1_555
C11_3 N2_2 1_555 1_555
H11_3 C11_3 1_555 1_555
Ni3_2 N2_2 1_555 1_555
Ni1_2 N1_3 1_555 1_555
N1_3 C2_3 1_555 1_555
C2_3 H2_3 1_555 1_555
C3_3 H3_3 1_555 1_555
H4_3 C3_3 1_555 1_555
C5_3 C2_3 1_555 1_555
H5_3 C5_3 1_555 1_555
C6_3 N1_3 1_555 1_555
H6_3 C6_3 1_555 1_555
C7_3 C3_3 1_555 1_555
H7_3 C7_3 1_555 1_555
H8_3 C7_3 1_555 1_555
C8_3 C5_3 1_555 1_555
C9_3 C6_3 1_555 1_555
H9_3 C9_3 1_555 1_555
C12_3 C3_3 1_555 1_555
H12_3 C12_3 1_555 1_555
H13_3 C12_3 1_555 1_555
C13_3 C4_3 1_555 1_555
H14_3 C13_3 1_555 1_555
O1_2 Ni1_2 1_555 1_555
Ni3_2 N3_3 1_555 1_555
Ni4 O6_2 1_555 1_555
N3_3 C19_3 1_555 1_555
N4_3 Ni1_2 1_555 1_555
C18_3 N4_3 1_555 1_555
H19_3 C18_3 1_555 1_555
C19_3 H20_3 1_555 1_555
C20_3 H21_3 1_555 1_555
H22_3 C20_3 1_555 1_555
C21_3 C27_3 1_555 1_555
C22_3 C19_3 1_555 1_555
H23_3 C22_3 1_555 1_555
C23_3 N3_3 1_555 1_555
H24_3 C23_3 1_555 1_555
C24_3 C20_3 1_555 1_555
H25_3 C24_3 1_555 1_555
H26_3 C24_3 1_555 1_555
C25_3 C22_3 1_555 1_555
C26_3 C23_3 1_555 1_555
H27_3 C26_3 1_555 1_555
C27_3 C18_3 1_555 1_555
H28_3 C27_3 1_555 1_555
C28_3 N4_3 1_555 1_555
H29_3 C28_3 1_555 1_555
C29_3 C20_3 1_555 1_555
H30_3 C29_3 1_555 1_555
H31_3 C29_3 1_555 1_555
C30_3 C21_3 1_555 1_555
H32_3 C30_3 1_555 1_555
O6_2 C33_3 1_555 1_555
O7_3 Ni3_2 1_555 1_555
O8_2 Ni1_2 1_555 1_555
O10_2 Ni1_2 1_555 1_555
O12_2 Ni1_2 1_555 1_555
O14_3 C32_3 1_555 1_555
C31_3 O12_2 1_555 1_555
H33_3 C31_3 1_555 1_555
C32_3 O8_2 1_555 1_555
C33_3 O10_2 1_555 1_555
C34_3 C31_3 1_555 1_555
H34_3 C34_3 1_555 1_555
H35_3 C34_3 1_555 1_555
H36_2 O12_2 1_555 1_555
C4_3 C12_3 1_555 1_555
C7_3 C8_3 1_555 1_555
C8_3 C9_3 1_555 1_555
C21_3 C29_3 1_555 1_555
C24_3 C25_3 1_555 1_555
C25_3 C26_3 1_555 1_555
C28_3 C30_3 1_555 1_555
C31_3 C32_3 1_555 1_555
C33_3 C34_3 1_555 1_555
Ni2_2 N3_4 1_555 1_555
N3_4 C19_4 1_555 1_555
N5_2 Ni2_2 1_555 1_555
C19_4 H20_4 1_555 1_555
C20_4 H21_4 1_555 1_555
H22_4 C20_4 1_555 1_555
C22_4 C19_4 1_555 1_555
H23_4 C22_4 1_555 1_555
C23_4 N3_4 1_555 1_555
H24_4 C23_4 1_555 1_555
C24_4 C20_4 1_555 1_555
H26_4 C24_4 1_555 1_555
C25_4 C22_4 1_555 1_555
C26_4 C23_4 1_555 1_555
H27_4 C26_4 1_555 1_555
C29_4 C20_4 1_555 1_555
H31_4 C29_4 1_555 1_555
C30_4 C21_4 1_555 1_555
H32_4 C30_4 1_555 1_555
O7_4 Ni2_2 1_555 1_555
C21_4 C29_4 1_555 1_555
C24_4 C25_4 1_555 1_555
C25_4 C26_4 1_555 1_555
Ni4 N1_4 1_555 1_555
N1_4 C2_4 1_555 1_555
N5_2 C1_4 1_555 1_555
C2_4 H2_4 1_555 1_555
C3_4 H3_4 1_555 1_555
H4_4 C3_4 1_555 1_555
C5_4 C2_4 1_555 1_555
H5_4 C5_4 1_555 1_555
C6_4 N1_4 1_555 1_555
H6_4 C6_4 1_555 1_555
C7_4 C3_4 1_555 1_555
H8_4 C7_4 1_555 1_555
C8_4 C5_4 1_555 1_555
C9_4 C6_4 1_555 1_555
H9_4 C9_4 1_555 1_555
C11_4 N5_2 1_555 1_555
H11_4 C11_4 1_555 1_555
C12_4 C3_4 1_555 1_555
H13_4 C12_4 1_555 1_555
C13_4 C4_4 1_555 1_555
H14_4 C13_4 1_555 1_555
N4_4 Ni4 1_555 1_555
C18_4 N4_4 1_555 1_555
C28_4 N4_4 1_555 1_555
H29_4 C28_4 1_555 1_555
C4_4 C12_4 1_555 1_555
C7_4 C8_4 1_555 1_555
C8_4 C9_4 1_555 1_555
C11_4 C13_4 1_555 1_555
H10_4 C10_4 1_555 1_555
H28_4 C27_4 1_555 1_555
O13_4 H38_6 1_555 1_555
O9_3 C15_4 1_555 1_555
O11_3 C16_4 1_555 1_555
O13_3 C14_4 1_555 1_555
O5_4 C15_4 1_555 1_555
C14_4 H15_4 1_555 1_555
C15_4 C14_4 1_555 1_555
C16_4 O7_4 1_555 1_555
C17_4 C14_4 1_555 1_555
H16_4 C17_4 1_555 1_555
H17_4 C17_4 1_555 1_555
C16_4 C17_4 1_555 1_555
O4_2 H38_7 1_555 1_555
O14_4 C32_4 1_555 1_555
C31_4 O13_4 1_555 1_555
H33_4 C31_4 1_555 1_555
C32_4 O9_4 1_555 1_555
C33_4 O11_4 1_555 1_555
C34_4 C31_4 1_555 1_555
H34_4 C34_4 1_555 1_555
H35_4 C34_4 1_555 1_555
C31_4 C32_4 1_555 1_555
C33_4 C34_4 1_555 1_555
O12_2 H38_8 1_555 1_555

#END
