
###############################################################################
#
# This file contains modified crystal structure data generated from the
# MOF subset of the Cambridge Structural Database (CSD) v543 
# hosted by the Cambridge Crystallographic Data Centre (CCDC).
#
# This work is licensed under the Creative Commons
# Attribution-NonCommercial-ShareAlike 4.0 International License.
# To view a copy of this license, visit
# http://creativecommons.org/licenses/by-nc-sa/4.0/
# or send a letter to
# Creative Commons, PO Box 1866, Mountain View, CA 94042, USA.
#
# CIF created using the CSD Python API on 29 September 2022
# The structure has been converted into the P1 space group
# The structure has a 3D framework
# The original CSD entry YORKAS is in the triclinic crystal system
# The framework has been calculated to contain at least 10.0% void space
# The void calculation uses a probe of radius 1.32A, grid spacing 0.4
#
###############################################################################

data_YORKAS
_chemical_formula_moiety         '(C34 H22 Cu4 N8 O8 S2)n'
_symmetry_cell_setting           triclinic
_symmetry_space_group_name_H-M   'P 1'
_symmetry_Int_Tables_number      1
_space_group_name_Hall           'P 1'
loop_
_symmetry_equiv_pos_site_id
_symmetry_equiv_pos_as_xyz
1 x,y,z
_cell_length_a                   8.807(4)
_cell_length_b                   11.139(6)
_cell_length_c                   11.291(5)
_cell_angle_alpha                75.337(7)
_cell_angle_beta                 73.584(5)
_cell_angle_gamma                66.795(5)
_cell_volume                     963.841
loop_
_atom_site_label
_atom_site_type_symbol
_atom_site_fract_x
_atom_site_fract_y
_atom_site_fract_z
Cu4 Cu 0.5000 -0.0000 0.0000
N4 N 0.3356(7) 0.1271(6) 0.8714(5)
C8 C 0.1058(9) 0.2619(7) 0.7142(7)
C9 C 0.0814(9) 0.3016(8) 0.8284(7)
C10 C 0.2012(8) 0.2312(7) 0.9028(7)
H8 H 0.1861 0.2586 0.9779
C11 C 0.2509(10) 0.1549(8) 0.6801(7)
H9 H 0.2732 0.1283 0.6034
C12 C 0.3599(9) 0.0895(8) 0.7601(7)
H10 H 0.4540 0.0168 0.7373
Cu4_2 Cu 0.5000 -0.0000 1.0000
Cu4_3 Cu 0.5000 1.0000 0.0000
Cu4_4 Cu 0.5000 1.0000 1.0000
O3 O 0.3046(6) 0.0127(5) 0.1580(4)
O9 O 0.5294(5) 0.1701(4) 0.0234(5)
Cu1 Cu 0.5000 0.5000 0.0000
S1 S 0.9995(3) 0.27876(19) 0.49718(19)
O1 O 0.3322(5) 0.6888(4) 0.0203(4)
O4 O 0.0869(7) 0.9874(6) 0.3034(5)
O5 O 0.3124(6) 0.4332(5) 0.1283(5)
H1 H 0.2745 0.4736 0.1877
H2 H 0.3568 0.3525 0.1499
N1 N 0.6204(7) 0.4974(5) 0.1463(5)
N2 N 0.7722(7) 0.4970(6) 0.5524(5)
N3 N 0.8605(7) 0.4470(6) 0.6479(5)
C1 C 0.5404(8) 0.5699(7) 0.2393(6)
H3 H 0.4370 0.6369 0.2328
C2 C 0.6054(8) 0.5493(7) 0.3453(6)
H4 H 0.5463 0.6006 0.4083
C3 C 0.7603(8) 0.4503(6) 0.3541(6)
C4 C 0.8479(9) 0.3813(7) 0.2553(7)
H5 H 0.9548 0.3179 0.2568
C5 C 0.7726(8) 0.4088(7) 0.1530(7)
H6 H 0.8324 0.3624 0.0865
C6 C 0.8310(9) 0.4205(7) 0.4677(6)
C7 C 0.9835(9) 0.3334(7) 0.6304(6)
H7 H 0.9876 0.3731 0.8540
C14 C 0.1661(7) 0.9122(5) 0.0003(6)
C15 C 0.0826(7) 0.9912(5) 0.0938(5)
C16 C 0.1650(8) 0.9949(6) 0.1943(6)
N10 N 0.6644(7) 0.8729(6) 0.1286(5)
Cu1_2 Cu 0.5000 0.5000 1.0000
O2 O 0.4706(5) 0.8299(4) 0.9766(5)
C13 C 0.3396(7) 0.8035(6) 0.9989(5)
C17 C 0.0832(7) 0.9231(6) 0.9070(6)
H11 H 0.1401 0.8719 0.8437
S2 S 0.0005(3) 0.72124(19) 0.50282(19)
O7 O 0.6678(5) 0.3112(4) 0.9797(4)
O11 O 0.6954(6) 0.9873(5) 0.8420(4)
O13 O 0.6876(6) 0.5668(5) 0.8717(5)
H12 H 0.7255 0.5264 0.8123
H13 H 0.6432 0.6475 0.8501
N5 N 0.3796(7) 0.5026(5) 0.8537(5)
N6 N 0.2278(7) 0.5030(6) 0.4476(5)
N7 N 0.1395(7) 0.5530(6) 0.3521(5)
C18 C 0.4596(8) 0.4301(7) 0.7607(6)
H14 H 0.5630 0.3631 0.7672
C19 C 0.3946(8) 0.4507(7) 0.6547(6)
H15 H 0.4537 0.3994 0.5917
C20 C 0.2397(8) 0.5497(6) 0.6459(6)
C21 C 0.1521(9) 0.6187(7) 0.7447(7)
H16 H 0.0452 0.6821 0.7432
C22 C 0.2274(8) 0.5912(7) 0.8470(7)
H17 H 0.1676 0.6376 0.9135
C23 C 0.1690(9) 0.5795(7) 0.5323(6)
C24 C 0.0165(9) 0.6666(7) 0.3696(6)
H18 H 0.0124 0.6269 0.1460
C30 C 0.6604(7) 0.1965(6) 0.0011(5)
C34 C 0.9168(7) 0.0769(6) 0.0930(6)
H22 H 0.8599 0.1281 0.1563
O12 O 0.9131(7) 0.0126(6) 0.6966(5)
C31 C 0.8339(7) 0.0878(5) 0.9997(6)
C32 C 0.9174(7) 0.0088(5) 0.9062(5)
C33 C 0.8350(8) 0.0051(6) 0.8057(6)
C25 C 0.8942(9) 0.7381(7) 0.2858(7)
C26 C 0.9186(9) 0.6984(8) 0.1716(7)
C27 C 0.7988(8) 0.7688(7) 0.0972(7)
H19 H 0.8139 0.7414 0.0221
C28 C 0.7491(10) 0.8451(8) 0.3199(7)
H20 H 0.7268 0.8717 0.3966
C29 C 0.6401(9) 0.9105(8) 0.2399(7)
H21 H 0.5460 0.9832 0.2627
loop_
_geom_bond_atom_site_label_1
_geom_bond_atom_site_label_2
_geom_bond_site_symmetry_1
_geom_bond_site_symmetry_2
N4 C10 1_555 1_555
C9 C8 1_555 1_555
C10 C9 1_555 1_555
H8 C10 1_555 1_555
C11 C8 1_555 1_555
H9 C11 1_555 1_555
C12 N4 1_555 1_555
H10 C12 1_555 1_555
Cu4_2 N4 1_555 1_555
C11 C12 1_555 1_555
O3 Cu4 1_555 1_555
O9 Cu4 1_555 1_555
Cu1 O1 1_555 1_555
S1 C6 1_555 1_555
O4 C16 1_555 1_555
O5 Cu1 1_555 1_555
H1 O5 1_555 1_555
H2 O5 1_555 1_555
N1 Cu1 1_555 1_555
N2 N3 1_555 1_555
N3 C7 1_555 1_555
C1 N1 1_555 1_555
H3 C1 1_555 1_555
C2 C1 1_555 1_555
H4 C2 1_555 1_555
C3 C2 1_555 1_555
C4 C3 1_555 1_555
H5 C4 1_555 1_555
C5 N1 1_555 1_555
H6 C5 1_555 1_555
C6 N2 1_555 1_555
C7 S1 1_555 1_555
C14 C15 1_555 1_555
C15 C16 1_555 1_555
N10 Cu4_3 1_555 1_555
C3 C6 1_555 1_555
C4 C5 1_555 1_555
Cu4_4 O2 1_555 1_555
O2 C13 1_555 1_555
H11 C17 1_555 1_555
S2 C23 1_555 1_555
O7 Cu1_2 1_555 1_555
O11 Cu4_4 1_555 1_555
O13 Cu1_2 1_555 1_555
H12 O13 1_555 1_555
H13 O13 1_555 1_555
N5 Cu1_2 1_555 1_555
N6 N7 1_555 1_555
N7 C24 1_555 1_555
C18 N5 1_555 1_555
H14 C18 1_555 1_555
C19 C18 1_555 1_555
H15 C19 1_555 1_555
C20 C19 1_555 1_555
C21 C20 1_555 1_555
H16 C21 1_555 1_555
C22 N5 1_555 1_555
H17 C22 1_555 1_555
C23 N6 1_555 1_555
C24 S2 1_555 1_555
C20 C23 1_555 1_555
C21 C22 1_555 1_555
O9 C30 1_555 1_555
H22 C34 1_555 1_555
O12 C33 1_555 1_555
C31 C32 1_555 1_555
C32 C33 1_555 1_555
N10 C27 1_555 1_555
C26 C25 1_555 1_555
C27 C26 1_555 1_555
H19 C27 1_555 1_555
C28 C25 1_555 1_555
H20 C28 1_555 1_555
C29 N10 1_555 1_555
H21 C29 1_555 1_555
C28 C29 1_555 1_555

#END
