
###############################################################################
#
# This file contains modified crystal structure data generated from the
# MOF subset of the Cambridge Structural Database (CSD) v543 
# hosted by the Cambridge Crystallographic Data Centre (CCDC).
#
# This work is licensed under the Creative Commons
# Attribution-NonCommercial-ShareAlike 4.0 International License.
# To view a copy of this license, visit
# http://creativecommons.org/licenses/by-nc-sa/4.0/
# or send a letter to
# Creative Commons, PO Box 1866, Mountain View, CA 94042, USA.
#
# CIF created using the CSD Python API on 29 September 2022
# The structure has been converted into the P1 space group
# The structure has a 3D framework
# The original CSD entry YORPUT is in the orthorhombic crystal system
# The original CSD entry YORPUT is in a Sohncke space group
# The framework has been calculated to contain at least 10.0% void space
# The void calculation uses a probe of radius 1.32A, grid spacing 0.4
#
###############################################################################

data_YORPUT
_chemical_formula_moiety         '(C288 H208 Co4 N32 O64)n'
_symmetry_cell_setting           triclinic
_symmetry_space_group_name_H-M   'P 1'
_symmetry_Int_Tables_number      1
_space_group_name_Hall           'P 1'
loop_
_symmetry_equiv_pos_site_id
_symmetry_equiv_pos_as_xyz
1 x,y,z
_cell_length_a                   16.542(3)
_cell_length_b                   32.782(5)
_cell_length_c                   14.291(2)
_cell_angle_alpha                90
_cell_angle_beta                 90
_cell_angle_gamma                90
_cell_volume                     7749.72
loop_
_atom_site_label
_atom_site_type_symbol
_atom_site_fract_x
_atom_site_fract_y
_atom_site_fract_z
Co2 Co 0.53084(4) 0.36355(2) 0.03251(4)
Co1 Co 0.46916(4) 0.63645(2) 0.53251(4)
O1 O 0.55075(19) 0.67657(10) 0.4984(2)
O2 O 0.4594(2) 0.72506(9) 0.4830(2)
O4 O 0.9488(4) 0.63502(19) 0.0370(6)
O5 O 0.5465(2) 0.59480(10) 0.5703(2)
O6 O 0.4367(3) 0.55694(12) 0.5702(3)
O7 O 0.8852(2) 0.32465(12) 0.4169(3)
O8 O 0.9093(2) 0.29183(11) 0.5505(2)
H2 H 0.9232 0.2736 0.5148
N1 N 0.8169(3) 0.81639(12) 0.2615(3)
N2 N 0.8993(3) 0.84767(12) 0.3582(3)
N3 N 0.6554(2) 0.40094(11) 0.7945(3)
N4 N 0.5877(2) 0.37312(12) 0.9099(3)
C1 C 0.5285(3) 0.71182(13) 0.4710(3)
C2 C 0.5903(3) 0.73505(14) 0.4167(3)
C3 C 0.6685(3) 0.72080(14) 0.4112(3)
H3 H 0.6845 0.6989 0.4481
C4 C 0.7229(3) 0.73863(15) 0.3518(3)
H4 H 0.7753 0.7285 0.3481
C5 C 0.7007(3) 0.77154(15) 0.2972(3)
C6 C 0.7582(3) 0.78798(16) 0.2225(3)
H5 H 0.7250 0.8037 0.1786
C7 C 0.8528(3) 0.81668(15) 0.3453(3)
H6 H 0.8449 0.7964 0.3900
C8 C 0.8981(5) 0.8678(2) 0.2756(4)
H7 H 0.9281 0.8911 0.2621
C9 C 0.8471(4) 0.8491(2) 0.2160(5)
H8 H 0.8350 0.8572 0.1552
C10 C 0.7939(3) 0.75318(16) 0.1675(4)
C11 C 0.7421(4) 0.7292(2) 0.1155(4)
H9 H 0.6880 0.7366 0.1109
C12 C 0.7680(4) 0.69479(19) 0.0710(4)
H10 H 0.7316 0.6789 0.0374
C13 C 0.8487(4) 0.68368(19) 0.0759(4)
C14 C 0.8770(6) 0.6458(2) 0.0300(7)
C15 C 0.9010(4) 0.7072(2) 0.1266(4)
H11 H 0.9551 0.6997 0.1308
C16 C 0.8744(3) 0.74198(19) 0.1718(4)
H12 H 0.9108 0.7579 0.2052
C17 C 0.6235(3) 0.78728(16) 0.3059(4)
H13 H 0.6086 0.8101 0.2715
C18 C 0.5688(3) 0.76917(15) 0.3654(3)
H14 H 0.5170 0.7799 0.3711
C19 C 0.5097(4) 0.56105(16) 0.5847(4)
C20 C 0.5608(3) 0.52650(14) 0.6210(3)
C21 C 0.6397(4) 0.53299(15) 0.6473(4)
H15 H 0.6631 0.5585 0.6383
C22 C 0.6840(3) 0.50224(16) 0.6865(4)
H16 H 0.7365 0.5074 0.7066
C23 C 0.6522(3) 0.46384(13) 0.6967(3)
C24 C 0.7046(3) 0.43114(14) 0.7420(4)
H17 H 0.7406 0.4447 0.7868
C25 C 0.6324(3) 0.40465(15) 0.8834(3)
H18 H 0.6459 0.4265 0.9219
C26 C 0.5822(3) 0.34869(15) 0.8320(4)
H19 H 0.5541 0.3242 0.8291
C27 C 0.6235(3) 0.36556(16) 0.7605(3)
H20 H 0.6290 0.3552 0.7003
C28 C 0.7567(3) 0.40746(13) 0.6743(3)
C29 C 0.7437(3) 0.40625(16) 0.5792(4)
H21 H 0.7045 0.4229 0.5525
C30 C 0.7882(3) 0.38048(16) 0.5238(4)
H22 H 0.7801 0.3808 0.4594
C31 C 0.8439(3) 0.35439(15) 0.5608(3)
C32 C 0.8814(3) 0.32265(17) 0.5020(4)
C33 C 0.8603(3) 0.35665(17) 0.6563(4)
H23 H 0.9001 0.3402 0.6826
C34 C 0.8177(4) 0.38312(16) 0.7111(4)
H24 H 0.8298 0.3849 0.7745
C35 C 0.5747(3) 0.45702(15) 0.6667(4)
H25 H 0.5524 0.4311 0.6716
C36 C 0.5296(3) 0.48837(15) 0.6293(4)
H26 H 0.4770 0.4833 0.6094
Co3 Co 0.96916(4) 0.86355(2) 0.46749(4)
N5 N 0.3993(3) 0.65233(12) 0.6418(3)
N6 N 0.4123(2) 0.62688(12) 0.4099(3)
O5_2 O 0.4535(2) 0.40520(10) 0.0703(2)
O6_2 O 0.5633(3) 0.44306(12) 0.0702(3)
O8_2 O 0.0907(2) 0.70817(11) 0.0505(2)
H2_2 H 0.0768 0.7264 0.0148
N3_2 N 0.3446(2) 0.59906(11) 0.2945(3)
C19_2 C 0.4903(4) 0.43895(16) 0.0847(4)
C20_2 C 0.4392(3) 0.47350(14) 0.1210(3)
C21_2 C 0.3603(4) 0.46701(15) 0.1473(4)
H15_2 H 0.3369 0.4415 0.1383
C22_2 C 0.3160(3) 0.49776(16) 0.1865(4)
H16_2 H 0.2635 0.4926 0.2066
C23_2 C 0.3478(3) 0.53616(13) 0.1967(3)
C24_2 C 0.2954(3) 0.56886(14) 0.2420(4)
H17_2 H 0.2594 0.5553 0.2868
C25_2 C 0.3676(3) 0.59535(15) 0.3834(3)
H18_2 H 0.3541 0.5735 0.4219
C26_2 C 0.4178(3) 0.65131(15) 0.3320(4)
H19_2 H 0.4459 0.6758 0.3291
C27_2 C 0.3765(3) 0.63444(16) 0.2605(3)
H20_2 H 0.3710 0.6448 0.2003
C28_2 C 0.2433(3) 0.59254(13) 0.1743(3)
C29_2 C 0.2563(3) 0.59375(16) 0.0792(4)
H21_2 H 0.2955 0.5771 0.0525
C30_2 C 0.2118(3) 0.61952(16) 0.0238(4)
C31_2 C 0.1561(3) 0.64561(15) 0.0608(3)
C32_2 C 0.1186(3) 0.67735(17) 0.0020(4)
C33_2 C 0.1397(3) 0.64335(17) 0.1563(4)
H23_2 H 0.0999 0.6598 0.1826
C34_2 C 0.1823(4) 0.61688(16) 0.2111(4)
H24_2 H 0.1702 0.6151 0.2745
C35_2 C 0.4253(3) 0.54298(15) 0.1667(4)
H25_2 H 0.4476 0.5689 0.1716
C36_2 C 0.4704(3) 0.51163(15) 0.1293(4)
H26_2 H 0.5230 0.5167 0.1094
N5_2 N 0.6007(3) 0.34767(12) 0.1418(3)
O1_2 O 0.44925(19) 0.32343(10) 0.9984(2)
O2_2 O 0.5406(2) 0.27494(9) 0.9830(2)
O3 O 0.1753(4) 0.3738(2) 0.4847(6)
H1 H 0.1530 0.3915 0.4535
O4_2 O 0.0512(4) 0.36498(19) 0.5370(6)
O7_2 O 0.1148(2) 0.67535(12) 0.9169(3)
N1_2 N 0.1831(3) 0.18361(12) 0.7615(3)
N2_2 N 0.1007(3) 0.15233(12) 0.8582(3)
C1_2 C 0.4715(3) 0.28818(13) 0.9710(3)
C2_2 C 0.4097(3) 0.26495(14) 0.9167(3)
C3_2 C 0.3315(3) 0.27920(14) 0.9112(3)
H3_2 H 0.3155 0.3011 0.9481
C4_2 C 0.2771(3) 0.26137(15) 0.8518(3)
H4_2 H 0.2247 0.2715 0.8481
C5_2 C 0.2993(3) 0.22846(15) 0.7972(3)
C6_2 C 0.2418(3) 0.21202(16) 0.7225(3)
H5_2 H 0.2750 0.1963 0.6786
C7_2 C 0.1472(3) 0.18332(15) 0.8453(3)
H6_2 H 0.1551 0.2036 0.8900
C8_2 C 0.1019(5) 0.1322(2) 0.7756(4)
H7_2 H 0.0719 0.1089 0.7621
C9_2 C 0.1529(4) 0.1509(2) 0.7160(5)
H8_2 H 0.1650 0.1428 0.6552
C10_2 C 0.2061(3) 0.24682(16) 0.6675(4)
C11_2 C 0.2579(4) 0.2708(2) 0.6155(4)
H9_2 H 0.3120 0.2634 0.6109
C12_2 C 0.2320(4) 0.30521(19) 0.5710(4)
H10_2 H 0.2684 0.3211 0.5374
C13_2 C 0.1513(4) 0.31632(19) 0.5759(4)
C14_2 C 0.1230(6) 0.3542(2) 0.5300(7)
C15_2 C 0.0990(4) 0.2928(2) 0.6266(4)
H11_2 H 0.0449 0.3003 0.6308
C16_2 C 0.1256(3) 0.25802(19) 0.6718(4)
H12_2 H 0.0892 0.2421 0.7052
C17_2 C 0.3765(3) 0.21272(16) 0.8059(4)
H13_2 H 0.3914 0.1899 0.7715
C18_2 C 0.4312(3) 0.23083(15) 0.8654(3)
H14_2 H 0.4830 0.2201 0.8711
H22_2 H 0.2199 0.6192 0.9594
Co3_2 Co 0.03084(4) 0.13645(2) 0.96749(4)
O6_3 O 0.0633(3) 0.05694(12) 0.9298(3)
O1_3 O 0.94925(19) 0.17657(10) 0.0016(2)
O3_2 O 0.6753(4) 0.1262(2) 0.5153(6)
H1_2 H 0.6530 0.1085 0.5465
O4_3 O 0.5512(4) 0.13502(19) 0.4630(6)
N1_3 N 0.6831(3) 0.31639(12) 0.2385(3)
C1_3 C 0.9715(3) 0.21182(13) 0.0290(3)
C2_3 C 0.9097(3) 0.23505(14) 0.0833(3)
C3_3 C 0.8315(3) 0.22080(14) 0.0888(3)
H3_3 H 0.8155 0.1989 0.0519
C4_3 C 0.7771(3) 0.23863(15) 0.1482(3)
H4_3 H 0.7247 0.2285 0.1519
C5_3 C 0.7993(3) 0.27154(15) 0.2028(3)
C6_3 C 0.7418(3) 0.28798(16) 0.2775(3)
H5_3 H 0.7750 0.3037 0.3214
C7_3 C 0.6472(3) 0.31668(15) 0.1547(3)
H6_3 H 0.6551 0.2964 0.1100
C8_3 C 0.6019(5) 0.3678(2) 0.2244(4)
H7_3 H 0.5719 0.3911 0.2379
C9_3 C 0.6529(4) 0.3491(2) 0.2840(5)
H8_3 H 0.6650 0.3572 0.3448
C10_3 C 0.7061(3) 0.25318(16) 0.3325(4)
C11_3 C 0.7579(4) 0.2292(2) 0.3845(4)
H9_3 H 0.8120 0.2366 0.3891
C12_3 C 0.7320(4) 0.19479(19) 0.4290(4)
H10_3 H 0.7684 0.1789 0.4626
C13_3 C 0.6513(4) 0.18368(19) 0.4241(4)
C14_3 C 0.6230(6) 0.1458(2) 0.4700(7)
C15_3 C 0.5990(4) 0.2072(2) 0.3734(4)
H11_3 H 0.5449 0.1997 0.3692
C16_3 C 0.6256(3) 0.24198(19) 0.3282(4)
H12_3 H 0.5892 0.2579 0.2948
C17_3 C 0.8765(3) 0.28728(16) 0.1941(4)
H13_3 H 0.8914 0.3101 0.2285
C18_3 C 0.9312(3) 0.26917(15) 0.1346(3)
H14_3 H 0.9830 0.2799 0.1289
O8_3 O 0.5907(2) 0.79183(11) 0.9495(2)
H2_3 H 0.5768 0.7736 0.9852
N3_3 N 0.8446(2) 0.90094(11) 0.7055(3)
N4_2 N 0.9123(2) 0.87312(12) 0.5901(3)
C23_3 C 0.8478(3) 0.96384(13) 0.8033(3)
C24_3 C 0.7954(3) 0.93114(14) 0.7580(4)
H17_3 H 0.7594 0.9447 0.7132
C25_3 C 0.8676(3) 0.90465(15) 0.6166(3)
H18_3 H 0.8541 0.9265 0.5781
C26_3 C 0.9178(3) 0.84869(15) 0.6680(4)
H19_3 H 0.9459 0.8242 0.6709
C27_3 C 0.8765(3) 0.86556(16) 0.7395(3)
H20_3 H 0.8710 0.8552 0.7997
C28_3 C 0.7433(3) 0.90746(13) 0.8257(3)
C29_3 C 0.7563(3) 0.90625(16) 0.9208(4)
H21_3 H 0.7955 0.9229 0.9475
C30_3 C 0.7118(3) 0.88048(16) 0.9762(4)
C31_3 C 0.6561(3) 0.85439(15) 0.9392(3)
C32_3 C 0.6186(3) 0.82265(17) 0.9980(4)
C33_3 C 0.6397(3) 0.85665(17) 0.8437(4)
H23_3 H 0.5999 0.8402 0.8174
C34_3 C 0.6823(4) 0.88312(16) 0.7889(4)
H24_3 H 0.6702 0.8849 0.7255
C35_3 C 0.9253(3) 0.95702(15) 0.8333(4)
H25_3 H 0.9476 0.9311 0.8284
C36_3 C 0.9704(3) 0.98837(15) 0.8707(4)
O1_4 O 0.05075(19) 0.82343(10) 0.5016(2)
O4_4 O 0.4488(4) 0.86498(19) 0.9630(6)
O5_3 O 0.0465(2) 0.90520(10) 0.4297(2)
N1_4 N 0.3169(3) 0.68361(12) 0.7385(3)
C1_4 C 0.0285(3) 0.78818(13) 0.5290(3)
C2_4 C 0.0903(3) 0.76495(14) 0.5833(3)
C3_4 C 0.1685(3) 0.77920(14) 0.5888(3)
H3_4 H 0.1845 0.8011 0.5519
C4_4 C 0.2229(3) 0.76137(15) 0.6482(3)
H4_4 H 0.2753 0.7715 0.6519
C5_4 C 0.2007(3) 0.72846(15) 0.7028(3)
C6_4 C 0.2582(3) 0.71202(16) 0.7775(3)
H5_4 H 0.2250 0.6963 0.8214
C7_4 C 0.3528(3) 0.68332(15) 0.6547(3)
H6_4 H 0.3449 0.7036 0.6100
C8_4 C 0.3981(5) 0.6322(2) 0.7244(4)
H7_4 H 0.4281 0.6089 0.7379
C9_4 C 0.3471(4) 0.6509(2) 0.7840(5)
H8_4 H 0.3350 0.6428 0.8448
C10_4 C 0.2939(3) 0.74682(16) 0.8325(4)
C11_4 C 0.2421(4) 0.7708(2) 0.8845(4)
H9_4 H 0.1880 0.7634 0.8891
C12_4 C 0.2680(4) 0.80521(19) 0.9290(4)
H10_4 H 0.2316 0.8211 0.9626
C13_4 C 0.3487(4) 0.81632(19) 0.9241(4)
C14_4 C 0.3770(6) 0.8542(2) 0.9700(7)
C15_4 C 0.4010(4) 0.7928(2) 0.8734(4)
H11_4 H 0.4551 0.8003 0.8692
C16_4 C 0.3744(3) 0.75802(19) 0.8282(4)
H12_4 H 0.4108 0.7421 0.7948
C17_4 C 0.1235(3) 0.71272(16) 0.6941(4)
H13_4 H 0.1086 0.6899 0.7285
C18_4 C 0.0688(3) 0.73083(15) 0.6346(3)
H14_4 H 0.0170 0.7201 0.6289
C19_3 C 0.0097(4) 0.93895(16) 0.4153(4)
C20_3 C 0.0608(3) 0.97350(14) 0.3790(3)
C21_3 C 0.1397(4) 0.96701(15) 0.3527(4)
H15_3 H 0.1631 0.9415 0.3617
C22_3 C 0.1840(3) 0.99776(16) 0.3135(4)
H16_3 H 0.2365 0.9926 0.2934
O2_3 O 0.9594(2) 0.77494(9) 0.5170(2)
O6_4 O 0.9367(3) 0.94306(12) 0.4298(3)
O3_3 O 0.8247(4) 0.6262(2) 0.9847(6)
H1_3 H 0.8470 0.6085 0.9535
O1_5 O 0.44925(19) 0.67657(10) 0.0016(2)
O2_4 O 0.5406(2) 0.72506(9) 0.0170(2)
O3_4 O 0.1753(4) 0.6262(2) 0.5153(6)
H1_4 H 0.1530 0.6085 0.5465
O4_5 O 0.0512(4) 0.63502(19) 0.4630(6)
O7_3 O 0.1148(2) 0.32465(12) 0.0831(3)
N1_5 N 0.1831(3) 0.81639(12) 0.2385(3)
N2_3 N 0.1007(3) 0.84767(12) 0.1418(3)
C1_5 C 0.4715(3) 0.71182(13) 0.0290(3)
C2_5 C 0.4097(3) 0.73505(14) 0.0833(3)
C3_5 C 0.3315(3) 0.72080(14) 0.0888(3)
H3_5 H 0.3155 0.6989 0.0519
C4_5 C 0.2771(3) 0.73863(15) 0.1482(3)
H4_5 H 0.2247 0.7285 0.1519
C5_5 C 0.2993(3) 0.77154(15) 0.2028(3)
C6_5 C 0.2418(3) 0.78798(16) 0.2775(3)
H5_5 H 0.2750 0.8037 0.3214
C7_5 C 0.1472(3) 0.81668(15) 0.1547(3)
H6_5 H 0.1551 0.7964 0.1100
C8_5 C 0.1019(5) 0.8678(2) 0.2244(4)
H7_5 H 0.0719 0.8911 0.2379
C9_5 C 0.1529(4) 0.8491(2) 0.2840(5)
H8_5 H 0.1650 0.8572 0.3448
C10_5 C 0.2061(3) 0.75318(16) 0.3325(4)
C11_5 C 0.2579(4) 0.7292(2) 0.3845(4)
H9_5 H 0.3120 0.7366 0.3891
C12_5 C 0.2320(4) 0.69479(19) 0.4290(4)
H10_5 H 0.2684 0.6789 0.4626
C13_5 C 0.1513(4) 0.68368(19) 0.4241(4)
C14_5 C 0.1230(6) 0.6458(2) 0.4700(7)
C15_5 C 0.0990(4) 0.7072(2) 0.3734(4)
H11_5 H 0.0449 0.6997 0.3692
C16_5 C 0.1256(3) 0.74198(19) 0.3282(4)
H12_5 H 0.0892 0.7579 0.2948
C17_5 C 0.3765(3) 0.78728(16) 0.1941(4)
H13_5 H 0.3914 0.8101 0.2285
C18_5 C 0.4312(3) 0.76917(15) 0.1346(3)
H14_5 H 0.4830 0.7799 0.1289
H22_3 H 0.2199 0.3808 0.0406
Co3_3 Co 0.03084(4) 0.86355(2) 0.03251(4)
N6_2 N 0.5877(2) 0.62688(12) 0.0901(3)
Co1_2 Co 0.53084(4) 0.63645(2) 0.96749(4)
O5_4 O 0.4535(2) 0.59480(10) 0.9297(2)
O6_5 O 0.5633(3) 0.55694(12) 0.9298(3)
O8_4 O 0.0907(2) 0.29183(11) 0.9495(2)
H2_4 H 0.0768 0.2736 0.9852
N3_4 N 0.3446(2) 0.40094(11) 0.7055(3)
N4_3 N 0.4123(2) 0.37312(12) 0.5901(3)
C19_4 C 0.4903(4) 0.56105(16) 0.9153(4)
C20_4 C 0.4392(3) 0.52650(14) 0.8790(3)
C21_4 C 0.3603(4) 0.53299(15) 0.8527(4)
H15_4 H 0.3369 0.5585 0.8617
C22_4 C 0.3160(3) 0.50224(16) 0.8135(4)
H16_4 H 0.2635 0.5074 0.7934
C23_4 C 0.3478(3) 0.46384(13) 0.8033(3)
C24_4 C 0.2954(3) 0.43114(14) 0.7580(4)
H17_4 H 0.2594 0.4447 0.7132
C25_4 C 0.3676(3) 0.40465(15) 0.6166(3)
H18_4 H 0.3541 0.4265 0.5781
C26_4 C 0.4178(3) 0.34869(15) 0.6680(4)
H19_4 H 0.4459 0.3242 0.6709
C27_4 C 0.3765(3) 0.36556(16) 0.7395(3)
H20_4 H 0.3710 0.3552 0.7997
C28_4 C 0.2433(3) 0.40746(13) 0.8257(3)
C29_4 C 0.2563(3) 0.40625(16) 0.9208(4)
H21_4 H 0.2955 0.4229 0.9475
C30_4 C 0.2118(3) 0.38048(16) 0.9762(4)
C31_4 C 0.1561(3) 0.35439(15) 0.9392(3)
C32_4 C 0.1186(3) 0.32265(17) 0.9980(4)
C33_4 C 0.1397(3) 0.35665(17) 0.8437(4)
H23_4 H 0.0999 0.3402 0.8174
C34_4 C 0.1823(4) 0.38312(16) 0.7889(4)
H24_4 H 0.1702 0.3849 0.7255
C35_4 C 0.4253(3) 0.45702(15) 0.8333(4)
H25_4 H 0.4476 0.4311 0.8284
C36_4 C 0.4704(3) 0.48837(15) 0.8707(4)
H26_3 H 0.5230 0.4833 0.8906
Co2_2 Co 0.46916(4) 0.36355(2) 0.46749(4)
N5_3 N 0.6007(3) 0.65233(12) 0.8582(3)
O1_6 O 0.55075(19) 0.32343(10) 0.5016(2)
O2_5 O 0.4594(2) 0.27494(9) 0.5170(2)
O4_6 O 0.9488(4) 0.36498(19) 0.9630(6)
O5_5 O 0.5465(2) 0.40520(10) 0.4297(2)
O6_6 O 0.4367(3) 0.44306(12) 0.4298(3)
O7_4 O 0.8852(2) 0.67535(12) 0.5831(3)
O8_5 O 0.9093(2) 0.70817(11) 0.4495(2)
H2_5 H 0.9232 0.7264 0.4852
N1_6 N 0.8169(3) 0.18361(12) 0.7385(3)
N2_4 N 0.8993(3) 0.15233(12) 0.6418(3)
N3_5 N 0.6554(2) 0.59906(11) 0.2055(3)
C1_6 C 0.5285(3) 0.28818(13) 0.5290(3)
C2_6 C 0.5903(3) 0.26495(14) 0.5833(3)
C3_6 C 0.6685(3) 0.27920(14) 0.5888(3)
H3_6 H 0.6845 0.3011 0.5519
C4_6 C 0.7229(3) 0.26137(15) 0.6482(3)
H4_6 H 0.7753 0.2715 0.6519
C5_6 C 0.7007(3) 0.22846(15) 0.7028(3)
C6_6 C 0.7582(3) 0.21202(16) 0.7775(3)
H5_6 H 0.7250 0.1963 0.8214
C7_6 C 0.8528(3) 0.18332(15) 0.6547(3)
H6_6 H 0.8449 0.2036 0.6100
C8_6 C 0.8981(5) 0.1322(2) 0.7244(4)
H7_6 H 0.9281 0.1089 0.7379
C9_6 C 0.8471(4) 0.1509(2) 0.7840(5)
H8_6 H 0.8350 0.1428 0.8448
C10_6 C 0.7939(3) 0.24682(16) 0.8325(4)
C11_6 C 0.7421(4) 0.2708(2) 0.8845(4)
H9_6 H 0.6880 0.2634 0.8891
C12_6 C 0.7680(4) 0.30521(19) 0.9290(4)
H10_6 H 0.7316 0.3211 0.9626
C13_6 C 0.8487(4) 0.31632(19) 0.9241(4)
C14_6 C 0.8770(6) 0.3542(2) 0.9700(7)
C15_6 C 0.9010(4) 0.2928(2) 0.8734(4)
H11_6 H 0.9551 0.3003 0.8692
C16_6 C 0.8744(3) 0.25802(19) 0.8282(4)
H12_6 H 0.9108 0.2421 0.7948
C17_6 C 0.6235(3) 0.21272(16) 0.6941(4)
H13_6 H 0.6086 0.1899 0.7285
C18_6 C 0.5688(3) 0.23083(15) 0.6346(3)
H14_6 H 0.5170 0.2201 0.6289
C19_5 C 0.5097(4) 0.43895(16) 0.4153(4)
C20_5 C 0.5608(3) 0.47350(14) 0.3790(3)
C21_5 C 0.6397(4) 0.46701(15) 0.3527(4)
H15_5 H 0.6631 0.4415 0.3617
C22_5 C 0.6840(3) 0.49776(16) 0.3135(4)
H16_5 H 0.7365 0.4926 0.2934
C23_5 C 0.6522(3) 0.53616(13) 0.3033(3)
C24_5 C 0.7046(3) 0.56886(14) 0.2580(4)
H17_5 H 0.7406 0.5553 0.2132
C25_5 C 0.6324(3) 0.59535(15) 0.1166(3)
H18_5 H 0.6459 0.5735 0.0781
C26_5 C 0.5822(3) 0.65131(15) 0.1680(4)
H19_5 H 0.5541 0.6758 0.1709
C27_5 C 0.6235(3) 0.63444(16) 0.2395(3)
H20_5 H 0.6290 0.6448 0.2997
C28_5 C 0.7567(3) 0.59254(13) 0.3257(3)
C29_5 C 0.7437(3) 0.59375(16) 0.4208(4)
H21_5 H 0.7045 0.5771 0.4475
C30_5 C 0.7882(3) 0.61952(16) 0.4762(4)
H22_4 H 0.7801 0.6192 0.5406
C31_5 C 0.8439(3) 0.64561(15) 0.4392(3)
C32_5 C 0.8814(3) 0.67735(17) 0.4980(4)
C33_5 C 0.8603(3) 0.64335(17) 0.3437(4)
H23_5 H 0.9001 0.6598 0.3174
C34_5 C 0.8177(4) 0.61688(16) 0.2889(4)
H24_5 H 0.8298 0.6151 0.2255
C35_5 C 0.5747(3) 0.54298(15) 0.3333(4)
H25_5 H 0.5524 0.5689 0.3284
C36_5 C 0.5296(3) 0.51163(15) 0.3707(4)
H26_4 H 0.4770 0.5167 0.3906
Co3_4 Co 0.96916(4) 0.13645(2) 0.53251(4)
N5_4 N 0.3993(3) 0.34767(12) 0.3582(3)
O1_7 O 0.05075(19) 0.17657(10) 0.4984(2)
O4_7 O 0.4488(4) 0.13502(19) 0.0370(6)
O5_6 O 0.0465(2) 0.09480(10) 0.5703(2)
N1_7 N 0.3169(3) 0.31639(12) 0.2615(3)
C1_7 C 0.0285(3) 0.21182(13) 0.4710(3)
C2_7 C 0.0903(3) 0.23505(14) 0.4167(3)
C3_7 C 0.1685(3) 0.22080(14) 0.4112(3)
H3_7 H 0.1845 0.1989 0.4481
C4_7 C 0.2229(3) 0.23863(15) 0.3518(3)
H4_7 H 0.2753 0.2285 0.3481
C5_7 C 0.2007(3) 0.27154(15) 0.2972(3)
C6_7 C 0.2582(3) 0.28798(16) 0.2225(3)
H5_7 H 0.2250 0.3037 0.1786
C7_7 C 0.3528(3) 0.31668(15) 0.3453(3)
H6_7 H 0.3449 0.2964 0.3900
C8_7 C 0.3981(5) 0.3678(2) 0.2756(4)
H7_7 H 0.4281 0.3911 0.2621
C9_7 C 0.3471(4) 0.3491(2) 0.2160(5)
H8_7 H 0.3350 0.3572 0.1552
C10_7 C 0.2939(3) 0.25318(16) 0.1675(4)
C11_7 C 0.2421(4) 0.2292(2) 0.1155(4)
H9_7 H 0.1880 0.2366 0.1109
C12_7 C 0.2680(4) 0.19479(19) 0.0710(4)
H10_7 H 0.2316 0.1789 0.0374
C13_7 C 0.3487(4) 0.18368(19) 0.0759(4)
C14_7 C 0.3770(6) 0.1458(2) 0.0300(7)
C15_7 C 0.4010(4) 0.2072(2) 0.1266(4)
H11_7 H 0.4551 0.1997 0.1308
C16_7 C 0.3744(3) 0.24198(19) 0.1718(4)
H12_7 H 0.4108 0.2579 0.2052
C17_7 C 0.1235(3) 0.28728(16) 0.3059(4)
H13_7 H 0.1086 0.3101 0.2715
C18_7 C 0.0688(3) 0.26917(15) 0.3654(3)
H14_7 H 0.0170 0.2799 0.3711
C19_6 C 0.0097(4) 0.06105(16) 0.5847(4)
C20_6 C 0.0608(3) 0.02650(14) 0.6210(3)
C21_6 C 0.1397(4) 0.03299(15) 0.6473(4)
H15_6 H 0.1631 0.0585 0.6383
C22_6 C 0.1840(3) 0.00224(16) 0.6865(4)
H16_6 H 0.2365 0.0074 0.7066
O2_6 O 0.9594(2) 0.22506(9) 0.4830(2)
O6_7 O 0.9367(3) 0.05694(12) 0.5702(3)
N6_3 N 0.9123(2) 0.12688(12) 0.4099(3)
O6_8 O 0.0633(3) 0.94306(12) 0.0702(3)
O8_6 O 0.5907(2) 0.20817(11) 0.0505(2)
H2_6 H 0.5768 0.2264 0.0148
N3_6 N 0.8446(2) 0.09906(11) 0.2945(3)
C23_6 C 0.8478(3) 0.03616(13) 0.1967(3)
C24_6 C 0.7954(3) 0.06886(14) 0.2420(4)
H17_6 H 0.7594 0.0553 0.2868
C25_6 C 0.8676(3) 0.09535(15) 0.3834(3)
H18_6 H 0.8541 0.0735 0.4219
C26_6 C 0.9178(3) 0.15131(15) 0.3320(4)
H19_6 H 0.9459 0.1758 0.3291
C27_6 C 0.8765(3) 0.13444(16) 0.2605(3)
H20_6 H 0.8710 0.1448 0.2003
C28_6 C 0.7433(3) 0.09254(13) 0.1743(3)
C29_6 C 0.7563(3) 0.09375(16) 0.0792(4)
H21_6 H 0.7955 0.0771 0.0525
C30_6 C 0.7118(3) 0.11952(16) 0.0238(4)
C31_6 C 0.6561(3) 0.14561(15) 0.0608(3)
C32_6 C 0.6186(3) 0.17735(17) 0.0020(4)
C33_6 C 0.6397(3) 0.14335(17) 0.1563(4)
H23_6 H 0.5999 0.1598 0.1826
C34_6 C 0.6823(4) 0.11688(16) 0.2111(4)
H24_6 H 0.6702 0.1151 0.2745
C35_6 C 0.9253(3) 0.04298(15) 0.1667(4)
H25_6 H 0.9476 0.0689 0.1716
C36_6 C 0.9704(3) 0.01163(15) 0.1293(4)
O1_8 O 0.94925(19) 0.82343(10) 0.9984(2)
O3_5 O 0.6753(4) 0.8738(2) 0.4847(6)
H1_5 H 0.6530 0.8915 0.4535
O4_8 O 0.5512(4) 0.86498(19) 0.5370(6)
N1_8 N 0.6831(3) 0.68361(12) 0.7615(3)
C1_8 C 0.9715(3) 0.78818(13) 0.9710(3)
C2_8 C 0.9097(3) 0.76495(14) 0.9167(3)
C3_8 C 0.8315(3) 0.77920(14) 0.9112(3)
H3_8 H 0.8155 0.8011 0.9481
C4_8 C 0.7771(3) 0.76137(15) 0.8518(3)
H4_8 H 0.7247 0.7715 0.8481
C5_8 C 0.7993(3) 0.72846(15) 0.7972(3)
C6_8 C 0.7418(3) 0.71202(16) 0.7225(3)
H5_8 H 0.7750 0.6963 0.6786
C7_8 C 0.6472(3) 0.68332(15) 0.8453(3)
H6_8 H 0.6551 0.7036 0.8900
C8_8 C 0.6019(5) 0.6322(2) 0.7756(4)
H7_8 H 0.5719 0.6089 0.7621
C9_8 C 0.6529(4) 0.6509(2) 0.7160(5)
H8_8 H 0.6650 0.6428 0.6552
C10_8 C 0.7061(3) 0.74682(16) 0.6675(4)
C11_8 C 0.7579(4) 0.7708(2) 0.6155(4)
H9_8 H 0.8120 0.7634 0.6109
C12_8 C 0.7320(4) 0.80521(19) 0.5710(4)
H10_8 H 0.7684 0.8211 0.5374
C13_8 C 0.6513(4) 0.81632(19) 0.5759(4)
C14_8 C 0.6230(6) 0.8542(2) 0.5300(7)
C15_8 C 0.5990(4) 0.7928(2) 0.6266(4)
H11_8 H 0.5449 0.8003 0.6308
C16_8 C 0.6256(3) 0.75802(19) 0.6718(4)
H12_8 H 0.5892 0.7421 0.7052
C17_8 C 0.8765(3) 0.71272(16) 0.8059(4)
H13_8 H 0.8914 0.6899 0.7715
C18_8 C 0.9312(3) 0.73083(15) 0.8654(3)
H14_8 H 0.9830 0.7201 0.8711
O3_6 O 0.8247(4) 0.3738(2) 0.0153(6)
H1_6 H 0.8470 0.3915 0.0465
O3_7 O 0.3247(4) 0.1262(2) 0.9847(6)
H1_7 H 0.3470 0.1085 0.9535
O7_5 O 0.3852(2) 0.82465(12) 0.4169(3)
O8_7 O 0.4093(2) 0.79183(11) 0.5505(2)
H2_7 H 0.4232 0.7736 0.5148
N3_7 N 0.1554(2) 0.90094(11) 0.7945(3)
N4_4 N 0.0877(2) 0.87312(12) 0.9099(3)
C23_7 C 0.1522(3) 0.96384(13) 0.6967(3)
C24_7 C 0.2046(3) 0.93114(14) 0.7420(4)
H17_7 H 0.2406 0.9447 0.7868
C25_7 C 0.1324(3) 0.90465(15) 0.8834(3)
H18_7 H 0.1459 0.9265 0.9219
C26_7 C 0.0822(3) 0.84869(15) 0.8320(4)
H19_7 H 0.0541 0.8242 0.8291
C27_7 C 0.1235(3) 0.86556(16) 0.7605(3)
H20_7 H 0.1290 0.8552 0.7003
C28_7 C 0.2567(3) 0.90746(13) 0.6743(3)
C29_7 C 0.2437(3) 0.90625(16) 0.5792(4)
H21_7 H 0.2045 0.9229 0.5525
C30_7 C 0.2882(3) 0.88048(16) 0.5238(4)
H22_5 H 0.2801 0.8808 0.4594
C31_7 C 0.3439(3) 0.85439(15) 0.5608(3)
C32_7 C 0.3814(3) 0.82265(17) 0.5020(4)
C33_7 C 0.3603(3) 0.85665(17) 0.6563(4)
H23_7 H 0.4001 0.8402 0.6826
C34_7 C 0.3177(4) 0.88312(16) 0.7111(4)
H24_7 H 0.3298 0.8849 0.7745
C35_7 C 0.0747(3) 0.95702(15) 0.6667(4)
H25_7 H 0.0524 0.9311 0.6716
C36_7 C 0.0296(3) 0.98837(15) 0.6293(4)
O2_7 O 0.0406(2) 0.77494(9) 0.9830(2)
H26_5 H 0.9770 0.9833 0.6094
H26_6 H 0.0230 0.0167 0.1094
O7_6 O 0.6148(2) 0.17535(12) 0.9169(3)
H22_6 H 0.7199 0.1192 0.9594
O5_7 O 0.9535(2) 0.90520(10) 0.0703(2)
C19_7 C 0.9903(4) 0.93895(16) 0.0847(4)
C20_7 C 0.9392(3) 0.97350(14) 0.1210(3)
C21_7 C 0.8603(4) 0.96701(15) 0.1473(4)
H15_7 H 0.8369 0.9415 0.1383
C22_7 C 0.8160(3) 0.99776(16) 0.1865(4)
H16_7 H 0.7635 0.9926 0.2066
O2_8 O 0.0406(2) 0.22506(9) 0.0170(2)
N6_4 N 0.0877(2) 0.12688(12) 0.0901(3)
O7_7 O 0.3852(2) 0.17535(12) 0.5831(3)
O8_8 O 0.4093(2) 0.20817(11) 0.4495(2)
H2_8 H 0.4232 0.2264 0.4852
N3_8 N 0.1554(2) 0.09906(11) 0.2055(3)
C23_8 C 0.1522(3) 0.03616(13) 0.3033(3)
C24_8 C 0.2046(3) 0.06886(14) 0.2580(4)
H17_8 H 0.2406 0.0553 0.2132
C25_8 C 0.1324(3) 0.09535(15) 0.1166(3)
H18_8 H 0.1459 0.0735 0.0781
C26_8 C 0.0822(3) 0.15131(15) 0.1680(4)
H19_8 H 0.0541 0.1758 0.1709
C27_8 C 0.1235(3) 0.13444(16) 0.2395(3)
H20_8 H 0.1290 0.1448 0.2997
C28_8 C 0.2567(3) 0.09254(13) 0.3257(3)
C29_8 C 0.2437(3) 0.09375(16) 0.4208(4)
H21_8 H 0.2045 0.0771 0.4475
C30_8 C 0.2882(3) 0.11952(16) 0.4762(4)
H22_7 H 0.2801 0.1192 0.5406
C31_8 C 0.3439(3) 0.14561(15) 0.4392(3)
C32_8 C 0.3814(3) 0.17735(17) 0.4980(4)
C33_8 C 0.3603(3) 0.14335(17) 0.3437(4)
H23_8 H 0.4001 0.1598 0.3174
C34_8 C 0.3177(4) 0.11688(16) 0.2889(4)
H24_8 H 0.3298 0.1151 0.2255
C35_8 C 0.0747(3) 0.04298(15) 0.3333(4)
H25_8 H 0.0524 0.0689 0.3284
C36_8 C 0.0296(3) 0.01163(15) 0.3707(4)
H26_7 H 0.0230 0.9833 0.8906
O5_8 O 0.9535(2) 0.09480(10) 0.9297(2)
C19_8 C 0.9903(4) 0.06105(16) 0.9153(4)
C20_8 C 0.9392(3) 0.02650(14) 0.8790(3)
C21_8 C 0.8603(4) 0.03299(15) 0.8527(4)
H15_8 H 0.8369 0.0585 0.8617
C22_8 C 0.8160(3) 0.00224(16) 0.8135(4)
H16_8 H 0.7635 0.0074 0.7934
O7_8 O 0.6148(2) 0.82465(12) 0.0831(3)
H22_8 H 0.7199 0.8808 0.0406
O3_8 O 0.3247(4) 0.8738(2) 0.0153(6)
H1_8 H 0.3470 0.8915 0.0465
H26_8 H 0.9770 0.0167 0.3906
loop_
_geom_bond_atom_site_label_1
_geom_bond_atom_site_label_2
_geom_bond_site_symmetry_1
_geom_bond_site_symmetry_2
Co1 O1 1_555 1_555
O1 C1 1_555 1_555
O2 C1 1_555 1_555
O4 C14 1_555 1_555
O5 Co1 1_555 1_555
O6 C19 1_555 1_555
O7 C32 1_555 1_555
O8 H2 1_555 1_555
N1 C6 1_555 1_555
N2 C7 1_555 1_555
N3 C24 1_555 1_555
N4 C25 1_555 1_555
C1 C2 1_555 1_555
C2 C3 1_555 1_555
C3 H3 1_555 1_555
C4 C3 1_555 1_555
H4 C4 1_555 1_555
C5 C4 1_555 1_555
C6 C5 1_555 1_555
H5 C6 1_555 1_555
C7 N1 1_555 1_555
H6 C7 1_555 1_555
C8 N2 1_555 1_555
H7 C8 1_555 1_555
C9 N1 1_555 1_555
H8 C9 1_555 1_555
C10 C6 1_555 1_555
C11 C10 1_555 1_555
H9 C11 1_555 1_555
C12 C11 1_555 1_555
H10 C12 1_555 1_555
C13 C12 1_555 1_555
C15 C13 1_555 1_555
H11 C15 1_555 1_555
C16 C10 1_555 1_555
H12 C16 1_555 1_555
C17 C5 1_555 1_555
H13 C17 1_555 1_555
C18 C2 1_555 1_555
H14 C18 1_555 1_555
C19 O5 1_555 1_555
C20 C19 1_555 1_555
C21 C20 1_555 1_555
H15 C21 1_555 1_555
C22 C21 1_555 1_555
H16 C22 1_555 1_555
C23 C22 1_555 1_555
C24 C23 1_555 1_555
H17 C24 1_555 1_555
C25 N3 1_555 1_555
H18 C25 1_555 1_555
C26 N4 1_555 1_555
H19 C26 1_555 1_555
C27 N3 1_555 1_555
H20 C27 1_555 1_555
C28 C24 1_555 1_555
C29 C28 1_555 1_555
H21 C29 1_555 1_555
C30 C29 1_555 1_555
H22 C30 1_555 1_555
C31 C30 1_555 1_555
C32 O8 1_555 1_555
C33 C31 1_555 1_555
H23 C33 1_555 1_555
C34 C28 1_555 1_555
H24 C34 1_555 1_555
C35 C23 1_555 1_555
H25 C35 1_555 1_555
C36 C20 1_555 1_555
H26 C36 1_555 1_555
Co3 N2 1_555 1_555
N5 Co1 1_555 1_555
N6 Co1 1_555 1_555
C8 C9 1_555 1_555
C13 C14 1_555 1_555
C15 C16 1_555 1_555
C17 C18 1_555 1_555
C26 C27 1_555 1_555
C31 C32 1_555 1_555
C33 C34 1_555 1_555
C35 C36 1_555 1_555
O5_2 Co2 1_555 1_555
O6_2 C19_2 1_555 1_555
O8_2 H2_2 1_555 1_555
N3_2 C24_2 1_555 1_555
N6 C25_2 1_555 1_555
C19_2 O5_2 1_555 1_555
C20_2 C19_2 1_555 1_555
C21_2 C20_2 1_555 1_555
H15_2 C21_2 1_555 1_555
C22_2 C21_2 1_555 1_555
H16_2 C22_2 1_555 1_555
C23_2 C22_2 1_555 1_555
C24_2 C23_2 1_555 1_555
H17_2 C24_2 1_555 1_555
C25_2 N3_2 1_555 1_555
H18_2 C25_2 1_555 1_555
C26_2 N6 1_555 1_555
H19_2 C26_2 1_555 1_555
C27_2 N3_2 1_555 1_555
H20_2 C27_2 1_555 1_555
C28_2 C24_2 1_555 1_555
C29_2 C28_2 1_555 1_555
H21_2 C29_2 1_555 1_555
C30_2 C29_2 1_555 1_555
C31_2 C30_2 1_555 1_555
C32_2 O8_2 1_555 1_555
C33_2 C31_2 1_555 1_555
H23_2 C33_2 1_555 1_555
C34_2 C28_2 1_555 1_555
H24_2 C34_2 1_555 1_555
C35_2 C23_2 1_555 1_555
H25_2 C35_2 1_555 1_555
C36_2 C20_2 1_555 1_555
H26_2 C36_2 1_555 1_555
N5_2 Co2 1_555 1_555
C26_2 C27_2 1_555 1_555
C31_2 C32_2 1_555 1_555
C33_2 C34_2 1_555 1_555
C35_2 C36_2 1_555 1_555
O1_2 C1_2 1_555 1_555
O2_2 C1_2 1_555 1_555
O3 H1 1_555 1_555
O4_2 C14_2 1_555 1_555
N1_2 C6_2 1_555 1_555
N2_2 C7_2 1_555 1_555
C1_2 C2_2 1_555 1_555
C2_2 C3_2 1_555 1_555
C3_2 H3_2 1_555 1_555
C4_2 C3_2 1_555 1_555
H4_2 C4_2 1_555 1_555
C5_2 C4_2 1_555 1_555
C6_2 C5_2 1_555 1_555
H5_2 C6_2 1_555 1_555
C7_2 N1_2 1_555 1_555
H6_2 C7_2 1_555 1_555
C8_2 N2_2 1_555 1_555
H7_2 C8_2 1_555 1_555
C9_2 N1_2 1_555 1_555
H8_2 C9_2 1_555 1_555
C10_2 C6_2 1_555 1_555
C11_2 C10_2 1_555 1_555
H9_2 C11_2 1_555 1_555
C12_2 C11_2 1_555 1_555
H10_2 C12_2 1_555 1_555
C13_2 C12_2 1_555 1_555
C14_2 O3 1_555 1_555
C15_2 C13_2 1_555 1_555
H11_2 C15_2 1_555 1_555
C16_2 C10_2 1_555 1_555
H12_2 C16_2 1_555 1_555
C17_2 C5_2 1_555 1_555
H13_2 C17_2 1_555 1_555
C18_2 C2_2 1_555 1_555
H14_2 C18_2 1_555 1_555
Co3_2 N2_2 1_555 1_555
C8_2 C9_2 1_555 1_555
C13_2 C14_2 1_555 1_555
C15_2 C16_2 1_555 1_555
C17_2 C18_2 1_555 1_555
O1_3 C1_3 1_555 1_555
O3_2 H1_2 1_555 1_555
O4_3 C14_3 1_555 1_555
N1_3 C6_3 1_555 1_555
N5_2 C7_3 1_555 1_555
C1_3 C2_3 1_555 1_555
C2_3 C3_3 1_555 1_555
C3_3 H3_3 1_555 1_555
C4_3 C3_3 1_555 1_555
H4_3 C4_3 1_555 1_555
C5_3 C4_3 1_555 1_555
C6_3 C5_3 1_555 1_555
H5_3 C6_3 1_555 1_555
C7_3 N1_3 1_555 1_555
H6_3 C7_3 1_555 1_555
C8_3 N5_2 1_555 1_555
H7_3 C8_3 1_555 1_555
C9_3 N1_3 1_555 1_555
H8_3 C9_3 1_555 1_555
C10_3 C6_3 1_555 1_555
C11_3 C10_3 1_555 1_555
H9_3 C11_3 1_555 1_555
C12_3 C11_3 1_555 1_555
H10_3 C12_3 1_555 1_555
C13_3 C12_3 1_555 1_555
C14_3 O3_2 1_555 1_555
C15_3 C13_3 1_555 1_555
H11_3 C15_3 1_555 1_555
C16_3 C10_3 1_555 1_555
H12_3 C16_3 1_555 1_555
C17_3 C5_3 1_555 1_555
H13_3 C17_3 1_555 1_555
C18_3 C2_3 1_555 1_555
H14_3 C18_3 1_555 1_555
C8_3 C9_3 1_555 1_555
C13_3 C14_3 1_555 1_555
C15_3 C16_3 1_555 1_555
C17_3 C18_3 1_555 1_555
O8_3 H2_3 1_555 1_555
N3_3 C24_3 1_555 1_555
N4_2 C25_3 1_555 1_555
C24_3 C23_3 1_555 1_555
H17_3 C24_3 1_555 1_555
C25_3 N3_3 1_555 1_555
H18_3 C25_3 1_555 1_555
C26_3 N4_2 1_555 1_555
H19_3 C26_3 1_555 1_555
C27_3 N3_3 1_555 1_555
H20_3 C27_3 1_555 1_555
C28_3 C24_3 1_555 1_555
C29_3 C28_3 1_555 1_555
H21_3 C29_3 1_555 1_555
C30_3 C29_3 1_555 1_555
C31_3 C30_3 1_555 1_555
C32_3 O8_3 1_555 1_555
C33_3 C31_3 1_555 1_555
H23_3 C33_3 1_555 1_555
C34_3 C28_3 1_555 1_555
H24_3 C34_3 1_555 1_555
C35_3 C23_3 1_555 1_555
H25_3 C35_3 1_555 1_555
Co3 N4_2 1_555 1_555
C26_3 C27_3 1_555 1_555
C31_3 C32_3 1_555 1_555
C33_3 C34_3 1_555 1_555
C35_3 C36_3 1_555 1_555
O1_4 C1_4 1_555 1_555
O4_4 C14_4 1_555 1_555
N1_4 C6_4 1_555 1_555
N5 C7_4 1_555 1_555
C1_4 C2_4 1_555 1_555
C2_4 C3_4 1_555 1_555
C3_4 H3_4 1_555 1_555
C4_4 C3_4 1_555 1_555
H4_4 C4_4 1_555 1_555
C5_4 C4_4 1_555 1_555
C6_4 C5_4 1_555 1_555
H5_4 C6_4 1_555 1_555
C7_4 N1_4 1_555 1_555
H6_4 C7_4 1_555 1_555
C8_4 N5 1_555 1_555
H7_4 C8_4 1_555 1_555
C9_4 N1_4 1_555 1_555
H8_4 C9_4 1_555 1_555
C10_4 C6_4 1_555 1_555
C11_4 C10_4 1_555 1_555
H9_4 C11_4 1_555 1_555
C12_4 C11_4 1_555 1_555
H10_4 C12_4 1_555 1_555
C13_4 C12_4 1_555 1_555
C15_4 C13_4 1_555 1_555
H11_4 C15_4 1_555 1_555
C16_4 C10_4 1_555 1_555
H12_4 C16_4 1_555 1_555
C17_4 C5_4 1_555 1_555
H13_4 C17_4 1_555 1_555
C18_4 C2_4 1_555 1_555
H14_4 C18_4 1_555 1_555
C19_3 O5_3 1_555 1_555
C20_3 C19_3 1_555 1_555
C21_3 C20_3 1_555 1_555
H15_3 C21_3 1_555 1_555
C22_3 C21_3 1_555 1_555
H16_3 C22_3 1_555 1_555
C8_4 C9_4 1_555 1_555
C13_4 C14_4 1_555 1_555
C15_4 C16_4 1_555 1_555
C17_4 C18_4 1_555 1_555
O3_3 H1_3 1_555 1_555
O1_5 C1_5 1_555 1_555
O2_4 C1_5 1_555 1_555
O3_4 H1_4 1_555 1_555
O4_5 C14_5 1_555 1_555
N1_5 C6_5 1_555 1_555
N2_3 C7_5 1_555 1_555
C1_5 C2_5 1_555 1_555
C2_5 C3_5 1_555 1_555
C3_5 H3_5 1_555 1_555
C4_5 C3_5 1_555 1_555
H4_5 C4_5 1_555 1_555
C5_5 C4_5 1_555 1_555
C6_5 C5_5 1_555 1_555
H5_5 C6_5 1_555 1_555
C7_5 N1_5 1_555 1_555
H6_5 C7_5 1_555 1_555
C8_5 N2_3 1_555 1_555
H7_5 C8_5 1_555 1_555
C9_5 N1_5 1_555 1_555
H8_5 C9_5 1_555 1_555
C10_5 C6_5 1_555 1_555
C11_5 C10_5 1_555 1_555
H9_5 C11_5 1_555 1_555
C12_5 C11_5 1_555 1_555
H10_5 C12_5 1_555 1_555
C13_5 C12_5 1_555 1_555
C14_5 O3_4 1_555 1_555
C15_5 C13_5 1_555 1_555
H11_5 C15_5 1_555 1_555
C16_5 C10_5 1_555 1_555
H12_5 C16_5 1_555 1_555
C17_5 C5_5 1_555 1_555
H13_5 C17_5 1_555 1_555
C18_5 C2_5 1_555 1_555
H14_5 C18_5 1_555 1_555
Co3_3 N2_3 1_555 1_555
C8_5 C9_5 1_555 1_555
C13_5 C14_5 1_555 1_555
C15_5 C16_5 1_555 1_555
C17_5 C18_5 1_555 1_555
O5_4 Co1_2 1_555 1_555
O6_5 C19_4 1_555 1_555
O8_4 H2_4 1_555 1_555
N3_4 C24_4 1_555 1_555
N4_3 C25_4 1_555 1_555
C19_4 O5_4 1_555 1_555
C20_4 C19_4 1_555 1_555
C21_4 C20_4 1_555 1_555
H15_4 C21_4 1_555 1_555
C22_4 C21_4 1_555 1_555
H16_4 C22_4 1_555 1_555
C23_4 C22_4 1_555 1_555
C24_4 C23_4 1_555 1_555
H17_4 C24_4 1_555 1_555
C25_4 N3_4 1_555 1_555
H18_4 C25_4 1_555 1_555
C26_4 N4_3 1_555 1_555
H19_4 C26_4 1_555 1_555
C27_4 N3_4 1_555 1_555
H20_4 C27_4 1_555 1_555
C28_4 C24_4 1_555 1_555
C29_4 C28_4 1_555 1_555
H21_4 C29_4 1_555 1_555
C30_4 C29_4 1_555 1_555
C31_4 C30_4 1_555 1_555
C32_4 O8_4 1_555 1_555
C33_4 C31_4 1_555 1_555
H23_4 C33_4 1_555 1_555
C34_4 C28_4 1_555 1_555
H24_4 C34_4 1_555 1_555
C35_4 C23_4 1_555 1_555
H25_4 C35_4 1_555 1_555
C36_4 C20_4 1_555 1_555
H26_3 C36_4 1_555 1_555
Co2_2 N4_3 1_555 1_555
N5_3 Co1_2 1_555 1_555
C26_4 C27_4 1_555 1_555
C31_4 C32_4 1_555 1_555
C33_4 C34_4 1_555 1_555
C35_4 C36_4 1_555 1_555
Co2_2 O1_6 1_555 1_555
O1_6 C1_6 1_555 1_555
O2_5 C1_6 1_555 1_555
O4_6 C14_6 1_555 1_555
O5_5 Co2_2 1_555 1_555
O6_6 C19_5 1_555 1_555
O7_4 C32_5 1_555 1_555
O8_5 H2_5 1_555 1_555
N1_6 C6_6 1_555 1_555
N2_4 C7_6 1_555 1_555
N3_5 C24_5 1_555 1_555
N6_2 C25_5 1_555 1_555
C1_6 C2_6 1_555 1_555
C2_6 C3_6 1_555 1_555
C3_6 H3_6 1_555 1_555
C4_6 C3_6 1_555 1_555
H4_6 C4_6 1_555 1_555
C5_6 C4_6 1_555 1_555
C6_6 C5_6 1_555 1_555
H5_6 C6_6 1_555 1_555
C7_6 N1_6 1_555 1_555
H6_6 C7_6 1_555 1_555
C8_6 N2_4 1_555 1_555
H7_6 C8_6 1_555 1_555
C9_6 N1_6 1_555 1_555
H8_6 C9_6 1_555 1_555
C10_6 C6_6 1_555 1_555
C11_6 C10_6 1_555 1_555
H9_6 C11_6 1_555 1_555
C12_6 C11_6 1_555 1_555
H10_6 C12_6 1_555 1_555
C13_6 C12_6 1_555 1_555
C15_6 C13_6 1_555 1_555
H11_6 C15_6 1_555 1_555
C16_6 C10_6 1_555 1_555
H12_6 C16_6 1_555 1_555
C17_6 C5_6 1_555 1_555
H13_6 C17_6 1_555 1_555
C18_6 C2_6 1_555 1_555
H14_6 C18_6 1_555 1_555
C19_5 O5_5 1_555 1_555
C20_5 C19_5 1_555 1_555
C21_5 C20_5 1_555 1_555
H15_5 C21_5 1_555 1_555
C22_5 C21_5 1_555 1_555
H16_5 C22_5 1_555 1_555
C23_5 C22_5 1_555 1_555
C24_5 C23_5 1_555 1_555
H17_5 C24_5 1_555 1_555
C25_5 N3_5 1_555 1_555
H18_5 C25_5 1_555 1_555
C26_5 N6_2 1_555 1_555
H19_5 C26_5 1_555 1_555
C27_5 N3_5 1_555 1_555
H20_5 C27_5 1_555 1_555
C28_5 C24_5 1_555 1_555
C29_5 C28_5 1_555 1_555
H21_5 C29_5 1_555 1_555
C30_5 C29_5 1_555 1_555
H22_4 C30_5 1_555 1_555
C31_5 C30_5 1_555 1_555
C32_5 O8_5 1_555 1_555
C33_5 C31_5 1_555 1_555
H23_5 C33_5 1_555 1_555
C34_5 C28_5 1_555 1_555
H24_5 C34_5 1_555 1_555
C35_5 C23_5 1_555 1_555
H25_5 C35_5 1_555 1_555
C36_5 C20_5 1_555 1_555
H26_4 C36_5 1_555 1_555
Co3_4 N2_4 1_555 1_555
N5_4 Co2_2 1_555 1_555
C8_6 C9_6 1_555 1_555
C13_6 C14_6 1_555 1_555
C15_6 C16_6 1_555 1_555
C17_6 C18_6 1_555 1_555
C26_5 C27_5 1_555 1_555
C31_5 C32_5 1_555 1_555
C33_5 C34_5 1_555 1_555
C35_5 C36_5 1_555 1_555
O1_7 C1_7 1_555 1_555
O4_7 C14_7 1_555 1_555
N1_7 C6_7 1_555 1_555
N5_4 C7_7 1_555 1_555
C1_7 C2_7 1_555 1_555
C2_7 C3_7 1_555 1_555
C3_7 H3_7 1_555 1_555
C4_7 C3_7 1_555 1_555
H4_7 C4_7 1_555 1_555
C5_7 C4_7 1_555 1_555
C6_7 C5_7 1_555 1_555
H5_7 C6_7 1_555 1_555
C7_7 N1_7 1_555 1_555
H6_7 C7_7 1_555 1_555
C8_7 N5_4 1_555 1_555
H7_7 C8_7 1_555 1_555
C9_7 N1_7 1_555 1_555
H8_7 C9_7 1_555 1_555
C10_7 C6_7 1_555 1_555
C11_7 C10_7 1_555 1_555
H9_7 C11_7 1_555 1_555
C12_7 C11_7 1_555 1_555
H10_7 C12_7 1_555 1_555
C13_7 C12_7 1_555 1_555
C15_7 C13_7 1_555 1_555
H11_7 C15_7 1_555 1_555
C16_7 C10_7 1_555 1_555
H12_7 C16_7 1_555 1_555
C17_7 C5_7 1_555 1_555
H13_7 C17_7 1_555 1_555
C18_7 C2_7 1_555 1_555
H14_7 C18_7 1_555 1_555
C19_6 O5_6 1_555 1_555
C20_6 C19_6 1_555 1_555
C21_6 C20_6 1_555 1_555
H15_6 C21_6 1_555 1_555
C22_6 C21_6 1_555 1_555
H16_6 C22_6 1_555 1_555
C8_7 C9_7 1_555 1_555
C13_7 C14_7 1_555 1_555
C15_7 C16_7 1_555 1_555
C17_7 C18_7 1_555 1_555
N6_3 Co3_4 1_555 1_555
O8_6 H2_6 1_555 1_555
N3_6 C24_6 1_555 1_555
N6_3 C25_6 1_555 1_555
C24_6 C23_6 1_555 1_555
H17_6 C24_6 1_555 1_555
C25_6 N3_6 1_555 1_555
H18_6 C25_6 1_555 1_555
C26_6 N6_3 1_555 1_555
H19_6 C26_6 1_555 1_555
C27_6 N3_6 1_555 1_555
H20_6 C27_6 1_555 1_555
C28_6 C24_6 1_555 1_555
C29_6 C28_6 1_555 1_555
H21_6 C29_6 1_555 1_555
C30_6 C29_6 1_555 1_555
C31_6 C30_6 1_555 1_555
C32_6 O8_6 1_555 1_555
C33_6 C31_6 1_555 1_555
H23_6 C33_6 1_555 1_555
C34_6 C28_6 1_555 1_555
H24_6 C34_6 1_555 1_555
C35_6 C23_6 1_555 1_555
H25_6 C35_6 1_555 1_555
C26_6 C27_6 1_555 1_555
C31_6 C32_6 1_555 1_555
C33_6 C34_6 1_555 1_555
C35_6 C36_6 1_555 1_555
O1_8 C1_8 1_555 1_555
O3_5 H1_5 1_555 1_555
O4_8 C14_8 1_555 1_555
N1_8 C6_8 1_555 1_555
N5_3 C7_8 1_555 1_555
C1_8 C2_8 1_555 1_555
C2_8 C3_8 1_555 1_555
C3_8 H3_8 1_555 1_555
C4_8 C3_8 1_555 1_555
H4_8 C4_8 1_555 1_555
C5_8 C4_8 1_555 1_555
C6_8 C5_8 1_555 1_555
H5_8 C6_8 1_555 1_555
C7_8 N1_8 1_555 1_555
H6_8 C7_8 1_555 1_555
C8_8 N5_3 1_555 1_555
H7_8 C8_8 1_555 1_555
C9_8 N1_8 1_555 1_555
H8_8 C9_8 1_555 1_555
C10_8 C6_8 1_555 1_555
C11_8 C10_8 1_555 1_555
H9_8 C11_8 1_555 1_555
C12_8 C11_8 1_555 1_555
H10_8 C12_8 1_555 1_555
C13_8 C12_8 1_555 1_555
C14_8 O3_5 1_555 1_555
C15_8 C13_8 1_555 1_555
H11_8 C15_8 1_555 1_555
C16_8 C10_8 1_555 1_555
H12_8 C16_8 1_555 1_555
C17_8 C5_8 1_555 1_555
H13_8 C17_8 1_555 1_555
C18_8 C2_8 1_555 1_555
H14_8 C18_8 1_555 1_555
C8_8 C9_8 1_555 1_555
C13_8 C14_8 1_555 1_555
C15_8 C16_8 1_555 1_555
C17_8 C18_8 1_555 1_555
O3_6 H1_6 1_555 1_555
O3_7 H1_7 1_555 1_555
O7_5 C32_7 1_555 1_555
O8_7 H2_7 1_555 1_555
N3_7 C24_7 1_555 1_555
N4_4 C25_7 1_555 1_555
C24_7 C23_7 1_555 1_555
H17_7 C24_7 1_555 1_555
C25_7 N3_7 1_555 1_555
H18_7 C25_7 1_555 1_555
C26_7 N4_4 1_555 1_555
H19_7 C26_7 1_555 1_555
C27_7 N3_7 1_555 1_555
H20_7 C27_7 1_555 1_555
C28_7 C24_7 1_555 1_555
C29_7 C28_7 1_555 1_555
H21_7 C29_7 1_555 1_555
C30_7 C29_7 1_555 1_555
H22_5 C30_7 1_555 1_555
C31_7 C30_7 1_555 1_555
C32_7 O8_7 1_555 1_555
C33_7 C31_7 1_555 1_555
H23_7 C33_7 1_555 1_555
C34_7 C28_7 1_555 1_555
H24_7 C34_7 1_555 1_555
C35_7 C23_7 1_555 1_555
H25_7 C35_7 1_555 1_555
C26_7 C27_7 1_555 1_555
C31_7 C32_7 1_555 1_555
C33_7 C34_7 1_555 1_555
C35_7 C36_7 1_555 1_555
C19_7 O5_7 1_555 1_555
C20_7 C19_7 1_555 1_555
C21_7 C20_7 1_555 1_555
H15_7 C21_7 1_555 1_555
C22_7 C21_7 1_555 1_555
H16_7 C22_7 1_555 1_555
O7_7 C32_8 1_555 1_555
O8_8 H2_8 1_555 1_555
N3_8 C24_8 1_555 1_555
N6_4 C25_8 1_555 1_555
C24_8 C23_8 1_555 1_555
H17_8 C24_8 1_555 1_555
C25_8 N3_8 1_555 1_555
H18_8 C25_8 1_555 1_555
C26_8 N6_4 1_555 1_555
H19_8 C26_8 1_555 1_555
C27_8 N3_8 1_555 1_555
H20_8 C27_8 1_555 1_555
C28_8 C24_8 1_555 1_555
C29_8 C28_8 1_555 1_555
H21_8 C29_8 1_555 1_555
C30_8 C29_8 1_555 1_555
H22_7 C30_8 1_555 1_555
C31_8 C30_8 1_555 1_555
C32_8 O8_8 1_555 1_555
C33_8 C31_8 1_555 1_555
H23_8 C33_8 1_555 1_555
C34_8 C28_8 1_555 1_555
H24_8 C34_8 1_555 1_555
C35_8 C23_8 1_555 1_555
H25_8 C35_8 1_555 1_555
C26_8 C27_8 1_555 1_555
C31_8 C32_8 1_555 1_555
C33_8 C34_8 1_555 1_555
C35_8 C36_8 1_555 1_555
C19_8 O5_8 1_555 1_555
C20_8 C19_8 1_555 1_555
C21_8 C20_8 1_555 1_555
H15_8 C21_8 1_555 1_555
C22_8 C21_8 1_555 1_555
H16_8 C22_8 1_555 1_555
O3_8 H1_8 1_555 1_555

#END
