
###############################################################################
#
# This file contains modified crystal structure data generated from the
# MOF subset of the Cambridge Structural Database (CSD) v543 
# hosted by the Cambridge Crystallographic Data Centre (CCDC).
#
# This work is licensed under the Creative Commons
# Attribution-NonCommercial-ShareAlike 4.0 International License.
# To view a copy of this license, visit
# http://creativecommons.org/licenses/by-nc-sa/4.0/
# or send a letter to
# Creative Commons, PO Box 1866, Mountain View, CA 94042, USA.
#
# CIF created using the CSD Python API on 29 September 2022
# The structure has been converted into the P1 space group
# The structure has a 3D framework
# The original CSD entry YORQAZ is in the monoclinic crystal system
# The framework has been calculated to contain at least 10.0% void space
# The void calculation uses a probe of radius 1.32A, grid spacing 0.4
#
###############################################################################

data_YORQAZ
_chemical_formula_moiety         '(C120 H80 Cu8 N8 O32)n'
_symmetry_cell_setting           triclinic
_symmetry_space_group_name_H-M   'P 1'
_symmetry_Int_Tables_number      1
_space_group_name_Hall           'P 1'
loop_
_symmetry_equiv_pos_site_id
_symmetry_equiv_pos_as_xyz
1 x,y,z
_cell_length_a                   16.773(5)
_cell_length_b                   20.409(6)
_cell_length_c                   10.371(3)
_cell_angle_alpha                90
_cell_angle_beta                 115.502(4)
_cell_angle_gamma                90
_cell_volume                     3204.31
loop_
_atom_site_label
_atom_site_type_symbol
_atom_site_fract_x
_atom_site_fract_y
_atom_site_fract_z
Cu6 Cu 0.05449(2) 0.775548(17) 0.40791(4)
Cu1 Cu 0.44551(2) 0.275548(17) 0.09209(4)
O1 O 0.52931(18) 0.34783(14) 0.0923(3)
C1 C 0.5889(2) 0.37042(18) 0.2069(4)
C2 C 0.6366(3) 0.4304(2) 0.1941(5)
C3 C 0.7109(4) 0.4521(3) 0.3054(6)
H1 H 0.7319 0.4283 0.3901
C4 C 0.7588(4) 0.5091(4) 0.3006(6)
H2 H 0.8116 0.5198 0.3781
C5 C 0.6022(5) 0.4719(4) 0.0814(9)
H3 H 0.5482 0.4624 0.0055
C10 C 0.6478(5) 0.5288(4) 0.0790(8)
C12 C 0.7265(3) 0.5482(3) 0.1811(5)
C13 C 0.7756(3) 0.6060(2) 0.1745(5)
C14 C 0.8470(3) 0.6280(2) 0.2838(4)
C15 C 0.8988(3) 0.68518(19) 0.2689(4)
O2 O 0.8778(2) 0.70684(16) 0.1462(3)
O3 O 0.9598(2) 0.70676(16) 0.3816(3)
O4 O 0.61182(19) 0.34624(14) 0.3304(3)
H9 H 0.862(3) 0.605(2) 0.375(3)
H10 H 0.750(3) 0.635(2) 0.093(3)
Cu2 Cu 0.55449(2) 0.275548(17) 0.40791(4)
O5 O 0.47069(18) 0.34783(14) 0.4077(3)
C21 C 0.4111(2) 0.37042(18) 0.2931(4)
C22 C 0.3634(3) 0.4304(2) 0.3059(5)
C23 C 0.2891(4) 0.4521(3) 0.1946(6)
H15 H 0.2681 0.4283 0.1099
C24 C 0.2412(4) 0.5091(4) 0.1994(6)
H16 H 0.1884 0.5198 0.1219
C25 C 0.3978(5) 0.4719(4) 0.4186(9)
H17 H 0.4518 0.4624 0.4945
C26 C 0.3522(5) 0.5288(4) 0.4210(8)
H18 H 0.3787 0.5559 0.5004
C27 C 0.2735(3) 0.5482(3) 0.3189(5)
C28 C 0.2244(3) 0.6060(2) 0.3255(5)
C29 C 0.1530(3) 0.6280(2) 0.2162(4)
C30 C 0.1012(3) 0.68518(19) 0.2311(4)
O6 O 0.1222(2) 0.70684(16) 0.3538(3)
O7 O 0.0402(2) 0.70676(16) 0.1184(3)
O8 O 0.38818(19) 0.34624(14) 0.1696(3)
H19 H 0.138(3) 0.605(2) 0.125(3)
H20 H 0.250(3) 0.635(2) 0.407(3)
Cu4 Cu 0.94551(2) 0.775548(17) 0.09209(4)
N3 N 0.6271(2) 0.26821(14) 0.6254(4)
O9 O 0.3778(2) 0.20684(16) 0.1462(3)
O10 O 0.6222(2) 0.20684(16) 0.3538(3)
O11 O 0.4598(2) 0.20676(16) 0.3816(3)
O12 O 0.5402(2) 0.20676(16) 0.1184(3)
C6 C 0.7479(4) 0.2233(2) 0.8263(6)
H4 H 0.7980 0.1969 0.8594
C7 C 0.6982(4) 0.2313(2) 0.6818(5)
H5 H 0.7160 0.2093 0.6201
C8 C 0.6062(4) 0.3006(4) 0.7173(5)
H6 H 0.5578 0.3286 0.6813
C9 C 0.6521(4) 0.2951(4) 0.8614(6)
H7 H 0.6347 0.3197 0.9204
C11 C 0.7235(3) 0.2540(2) 0.9218(4)
C4_2 C 0.2588(4) 0.0091(4) 0.3006(6)
H2_2 H 0.3116 0.0198 0.3781
C10_2 C 0.1478(5) 0.0288(4) 0.0790(8)
C12_2 C 0.2265(3) 0.0482(3) 0.1811(5)
C13_2 C 0.2756(3) 0.1060(2) 0.1745(5)
C14_2 C 0.3470(3) 0.1280(2) 0.2838(4)
C15_2 C 0.3988(3) 0.18518(19) 0.2689(4)
H9_2 H 0.362(3) 0.105(2) 0.375(3)
H10_2 H 0.250(3) 0.135(2) 0.093(3)
O1_2 O 0.02931(18) 0.84783(14) 0.0923(3)
C1_2 C 0.0889(2) 0.87042(18) 0.2069(4)
C2_2 C 0.1366(3) 0.9304(2) 0.1941(5)
C3_2 C 0.2109(4) 0.9521(3) 0.3054(6)
H1_2 H 0.2319 0.9283 0.3901
C5_2 C 0.1022(5) 0.9719(4) 0.0814(9)
H3_2 H 0.0482 0.9624 0.0055
O4_2 O 0.11182(19) 0.84624(14) 0.3304(3)
N3_2 N 0.1271(2) 0.76821(14) 0.6254(4)
C24_2 C 0.7412(4) 0.0091(4) 0.1994(6)
H16_2 H 0.6884 0.0198 0.1219
C26_2 C 0.8522(5) 0.0288(4) 0.4210(8)
H18_2 H 0.8787 0.0559 0.5004
C27_2 C 0.7735(3) 0.0482(3) 0.3189(5)
C28_2 C 0.7244(3) 0.1060(2) 0.3255(5)
C29_2 C 0.6530(3) 0.1280(2) 0.2162(4)
C30_2 C 0.6012(3) 0.18518(19) 0.2311(4)
H19_2 H 0.638(3) 0.105(2) 0.125(3)
H20_2 H 0.750(3) 0.135(2) 0.407(3)
O5_2 O 0.97069(18) 0.84783(14) 0.4077(3)
C21_2 C 0.9111(2) 0.87042(18) 0.2931(4)
C22_2 C 0.8634(3) 0.9304(2) 0.3059(5)
C23_2 C 0.7891(4) 0.9521(3) 0.1946(6)
H15_2 H 0.7681 0.9283 0.1099
C25_2 C 0.8978(5) 0.9719(4) 0.4186(9)
H17_2 H 0.9518 0.9624 0.4945
O8_2 O 0.88818(19) 0.84624(14) 0.1696(3)
C6_2 C 0.2479(4) 0.7233(2) 0.8263(6)
H4_2 H 0.2980 0.6969 0.8594
C7_2 C 0.1982(4) 0.7313(2) 0.6818(5)
H5_2 H 0.2160 0.7093 0.6201
C8_2 C 0.1062(4) 0.8006(4) 0.7173(5)
H6_2 H 0.0578 0.8286 0.6813
C9_2 C 0.1521(4) 0.7951(4) 0.8614(6)
H7_2 H 0.1347 0.8197 0.9204
C11_2 C 0.2235(3) 0.7540(2) 0.9218(4)
N1 N 0.3729(2) 0.26821(14) 0.8746(4)
C6_3 C 0.2521(4) 0.2233(2) 0.6737(6)
H4_3 H 0.2020 0.1969 0.6406
C7_3 C 0.3018(4) 0.2313(2) 0.8182(5)
H5_3 H 0.2840 0.2093 0.8799
C8_3 C 0.3938(4) 0.3006(4) 0.7827(5)
H6_3 H 0.4422 0.3286 0.8187
C9_3 C 0.3479(4) 0.2951(4) 0.6386(6)
H7_3 H 0.3653 0.3197 0.5796
H8 H 0.6213 0.5559 0.9996
C11_3 C 0.2765(3) 0.2540(2) 0.5782(4)
N2 N 0.1271(2) 0.23179(14) 0.1254(4)
C16 C 0.2479(4) 0.2767(2) 0.3263(6)
H11 H 0.2980 0.3031 0.3594
C17 C 0.1982(4) 0.2687(2) 0.1818(5)
H12 H 0.2160 0.2907 0.1201
C18 C 0.1062(4) 0.1994(4) 0.2173(5)
H13 H 0.0578 0.1714 0.1813
C19 C 0.1521(4) 0.2049(4) 0.3614(6)
H14 H 0.1347 0.1803 0.4204
C20 C 0.2235(3) 0.2460(2) 0.4218(4)
Cu7 Cu 0.05449(2) 0.224452(17) 0.90791(4)
N2_2 N 0.8729(2) 0.23179(14) 0.3746(4)
C16_2 C 0.7521(4) 0.2767(2) 0.1737(6)
H11_2 H 0.7020 0.3031 0.1406
C17_2 C 0.8018(4) 0.2687(2) 0.3182(5)
H12_2 H 0.7840 0.2907 0.3799
C18_2 C 0.8938(4) 0.1994(4) 0.2827(5)
H13_2 H 0.9422 0.1714 0.3187
C19_2 C 0.8479(4) 0.2049(4) 0.1386(6)
H14_2 H 0.8653 0.1803 0.0796
C20_2 C 0.7765(3) 0.2460(2) 0.0782(4)
Cu7_2 Cu 0.94551(2) 0.224452(17) 0.59209(4)
Cu7_3 Cu 0.55449(2) 0.724452(17) 0.90791(4)
N2_3 N 0.3729(2) 0.73179(14) 0.3746(4)
C16_3 C 0.2521(4) 0.7767(2) 0.1737(6)
H11_3 H 0.2020 0.8031 0.1406
C17_3 C 0.3018(4) 0.7687(2) 0.3182(5)
H12_3 H 0.2840 0.7907 0.3799
C18_3 C 0.3938(4) 0.6994(4) 0.2827(5)
H13_3 H 0.4422 0.6714 0.3187
C19_3 C 0.3479(4) 0.7049(4) 0.1386(6)
H14_3 H 0.3653 0.6803 0.0796
C20_3 C 0.2765(3) 0.7460(2) 0.0782(4)
Cu7_4 Cu 0.44551(2) 0.724452(17) 0.59209(4)
O1_3 O 0.47069(18) 0.65217(14) 0.9077(3)
C1_3 C 0.4111(2) 0.62958(18) 0.7931(4)
C2_3 C 0.3634(3) 0.5696(2) 0.8059(5)
C3_3 C 0.2891(4) 0.5479(3) 0.6946(6)
H1_3 H 0.2681 0.5717 0.6099
C4_3 C 0.2412(4) 0.4909(4) 0.6994(6)
H2_3 H 0.1884 0.4802 0.6219
C5_3 C 0.3978(5) 0.5281(4) 0.9186(9)
H3_3 H 0.4518 0.5376 0.9945
C10_3 C 0.3522(5) 0.4712(4) 0.9210(8)
C12_3 C 0.2735(3) 0.4518(3) 0.8189(5)
C13_3 C 0.2244(3) 0.3940(2) 0.8255(5)
C14_3 C 0.1530(3) 0.3720(2) 0.7162(4)
C15_3 C 0.1012(3) 0.31482(19) 0.7311(4)
O2_2 O 0.1222(2) 0.29316(16) 0.8538(3)
O3_2 O 0.0402(2) 0.29324(16) 0.6184(3)
O4_3 O 0.38818(19) 0.65376(14) 0.6696(3)
H9_3 H 0.138(3) 0.395(2) 0.625(3)
H10_3 H 0.250(3) 0.365(2) 0.907(3)
O5_3 O 0.52931(18) 0.65217(14) 0.5923(3)
C21_3 C 0.5889(2) 0.62958(18) 0.7069(4)
C22_3 C 0.6366(3) 0.5696(2) 0.6941(5)
C23_3 C 0.7109(4) 0.5479(3) 0.8054(6)
H15_3 H 0.7319 0.5717 0.8901
C24_3 C 0.7588(4) 0.4909(4) 0.8006(6)
H16_3 H 0.8116 0.4802 0.8781
C25_3 C 0.6022(5) 0.5281(4) 0.5814(9)
H17_3 H 0.5482 0.5376 0.5055
C26_3 C 0.6478(5) 0.4712(4) 0.5790(8)
H18_3 H 0.6213 0.4441 0.4996
C27_3 C 0.7265(3) 0.4518(3) 0.6811(5)
C28_3 C 0.7756(3) 0.3940(2) 0.6745(5)
C29_3 C 0.8470(3) 0.3720(2) 0.7838(4)
C30_3 C 0.8988(3) 0.31482(19) 0.7689(4)
O6_2 O 0.8778(2) 0.29316(16) 0.6462(3)
O7_2 O 0.9598(2) 0.29324(16) 0.8816(3)
O8_3 O 0.61182(19) 0.65376(14) 0.8304(3)
H19_3 H 0.862(3) 0.395(2) 0.875(3)
H20_3 H 0.750(3) 0.365(2) 0.593(3)
O9_2 O 0.6222(2) 0.79316(16) 0.8538(3)
O10_2 O 0.3778(2) 0.79316(16) 0.6462(3)
O11_2 O 0.5402(2) 0.79324(16) 0.6184(3)
O12_2 O 0.4598(2) 0.79324(16) 0.8816(3)
O5_4 O 0.02931(18) 0.15217(14) 0.5923(3)
C21_4 C 0.0889(2) 0.12958(18) 0.7069(4)
C22_4 C 0.1366(3) 0.0696(2) 0.6941(5)
C23_4 C 0.2109(4) 0.0479(3) 0.8054(6)
H15_4 H 0.2319 0.0717 0.8901
C25_4 C 0.1022(5) 0.0281(4) 0.5814(9)
H17_4 H 0.0482 0.0376 0.5055
O8_4 O 0.11182(19) 0.15376(14) 0.8304(3)
C24_4 C 0.2588(4) 0.9909(4) 0.8006(6)
H16_4 H 0.3116 0.9802 0.8781
C26_4 C 0.1478(5) 0.9712(4) 0.5790(8)
H18_4 H 0.1213 0.9441 0.4996
C27_4 C 0.2265(3) 0.9518(3) 0.6811(5)
C28_4 C 0.2756(3) 0.8940(2) 0.6745(5)
C29_4 C 0.3470(3) 0.8720(2) 0.7838(4)
C30_4 C 0.3988(3) 0.81482(19) 0.7689(4)
H19_4 H 0.362(3) 0.895(2) 0.875(3)
H20_4 H 0.250(3) 0.865(2) 0.593(3)
O1_4 O 0.97069(18) 0.15217(14) 0.9077(3)
C1_4 C 0.9111(2) 0.12958(18) 0.7931(4)
C2_4 C 0.8634(3) 0.0696(2) 0.8059(5)
C3_4 C 0.7891(4) 0.0479(3) 0.6946(6)
H1_4 H 0.7681 0.0717 0.6099
C5_4 C 0.8978(5) 0.0281(4) 0.9186(9)
H3_4 H 0.9518 0.0376 0.9945
O4_4 O 0.88818(19) 0.15376(14) 0.6696(3)
C4_4 C 0.7412(4) 0.9909(4) 0.6994(6)
H2_4 H 0.6884 0.9802 0.6219
C10_4 C 0.8522(5) 0.9712(4) 0.9210(8)
C12_4 C 0.7735(3) 0.9518(3) 0.8189(5)
C13_4 C 0.7244(3) 0.8940(2) 0.8255(5)
C14_4 C 0.6530(3) 0.8720(2) 0.7162(4)
C15_4 C 0.6012(3) 0.81482(19) 0.7311(4)
H9_4 H 0.638(3) 0.895(2) 0.625(3)
H10_4 H 0.750(3) 0.865(2) 0.907(3)
H8_2 H 0.1213 0.0559 0.9996
N1_2 N 0.8729(2) 0.76821(14) 0.8746(4)
C6_4 C 0.7521(4) 0.7233(2) 0.6737(6)
H4_4 H 0.7020 0.6969 0.6406
C7_4 C 0.8018(4) 0.7313(2) 0.8182(5)
H5_4 H 0.7840 0.7093 0.8799
C8_4 C 0.8938(4) 0.8006(4) 0.7827(5)
H6_4 H 0.9422 0.8286 0.8187
C9_4 C 0.8479(4) 0.7951(4) 0.6386(6)
H7_4 H 0.8653 0.8197 0.5796
C11_4 C 0.7765(3) 0.7540(2) 0.5782(4)
N2_4 N 0.6271(2) 0.73179(14) 0.1254(4)
C16_4 C 0.7479(4) 0.7767(2) 0.3263(6)
H11_4 H 0.7980 0.8031 0.3594
C17_4 C 0.6982(4) 0.7687(2) 0.1818(5)
H12_4 H 0.7160 0.7907 0.1201
C18_4 C 0.6062(4) 0.6994(4) 0.2173(5)
H13_4 H 0.5578 0.6714 0.1813
C19_4 C 0.6521(4) 0.7049(4) 0.3614(6)
H14_4 H 0.6347 0.6803 0.4204
C20_4 C 0.7235(3) 0.7460(2) 0.4218(4)
H8_3 H 0.3787 0.4441 0.0004
H8_4 H 0.8787 0.9441 0.0004
loop_
_geom_bond_atom_site_label_1
_geom_bond_atom_site_label_2
_geom_bond_site_symmetry_1
_geom_bond_site_symmetry_2
Cu1 O1 1_555 1_555
O1 C1 1_555 1_555
C1 C2 1_555 1_555
C2 C3 1_555 1_555
C3 H1 1_555 1_555
C4 C3 1_555 1_555
H2 C4 1_555 1_555
C5 C2 1_555 1_555
H3 C5 1_555 1_555
C10 C5 1_555 1_555
C12 C4 1_555 1_555
C13 C12 1_555 1_555
C14 C13 1_555 1_555
C15 C14 1_555 1_555
O2 C15 1_555 1_555
O3 C15 1_555 1_555
O4 C1 1_555 1_555
H9 C14 1_555 1_555
H10 C13 1_555 1_555
Cu2 O4 1_555 1_555
O5 Cu2 1_555 1_555
C21 O5 1_555 1_555
C22 C21 1_555 1_555
C23 C22 1_555 1_555
H15 C23 1_555 1_555
C24 C23 1_555 1_555
H16 C24 1_555 1_555
C25 C22 1_555 1_555
H17 C25 1_555 1_555
C26 C25 1_555 1_555
H18 C26 1_555 1_555
C27 C24 1_555 1_555
C28 C27 1_555 1_555
C29 C28 1_555 1_555
C30 C29 1_555 1_555
O6 C30 1_555 1_555
O7 C30 1_555 1_555
O8 Cu1 1_555 1_555
H19 C29 1_555 1_555
H20 C28 1_555 1_555
Cu4 O2 1_555 1_555
Cu6 O6 1_555 1_555
N3 Cu2 1_555 1_555
O9 Cu1 1_555 1_555
O10 Cu2 1_555 1_555
O11 Cu2 1_555 1_555
O12 Cu1 1_555 1_555
C10 C12 1_555 1_555
C21 O8 1_555 1_555
C26 C27 1_555 1_555
C6 H4 1_555 1_555
C7 N3 1_555 1_555
H5 C7 1_555 1_555
C8 N3 1_555 1_555
H6 C8 1_555 1_555
C9 C8 1_555 1_555
H7 C9 1_555 1_555
C11 C6 1_555 1_555
C6 C7 1_555 1_555
C9 C11 1_555 1_555
H2_2 C4_2 1_555 1_555
C12_2 C4_2 1_555 1_555
C13_2 C12_2 1_555 1_555
C14_2 C13_2 1_555 1_555
C15_2 C14_2 1_555 1_555
O9 C15_2 1_555 1_555
O11 C15_2 1_555 1_555
H9_2 C14_2 1_555 1_555
H10_2 C13_2 1_555 1_555
C10_2 C12_2 1_555 1_555
O1_2 C1_2 1_555 1_555
C1_2 C2_2 1_555 1_555
C2_2 C3_2 1_555 1_555
C3_2 H1_2 1_555 1_555
C5_2 C2_2 1_555 1_555
H3_2 C5_2 1_555 1_555
O4_2 C1_2 1_555 1_555
Cu6 O4_2 1_555 1_555
N3_2 Cu6 1_555 1_555
H16_2 C24_2 1_555 1_555
H18_2 C26_2 1_555 1_555
C27_2 C24_2 1_555 1_555
C28_2 C27_2 1_555 1_555
C29_2 C28_2 1_555 1_555
C30_2 C29_2 1_555 1_555
O10 C30_2 1_555 1_555
O12 C30_2 1_555 1_555
H19_2 C29_2 1_555 1_555
H20_2 C28_2 1_555 1_555
C26_2 C27_2 1_555 1_555
C21_2 O5_2 1_555 1_555
C22_2 C21_2 1_555 1_555
C23_2 C22_2 1_555 1_555
H15_2 C23_2 1_555 1_555
C25_2 C22_2 1_555 1_555
H17_2 C25_2 1_555 1_555
O8_2 Cu4 1_555 1_555
C21_2 O8_2 1_555 1_555
C6_2 H4_2 1_555 1_555
C7_2 N3_2 1_555 1_555
H5_2 C7_2 1_555 1_555
C8_2 N3_2 1_555 1_555
H6_2 C8_2 1_555 1_555
C9_2 C8_2 1_555 1_555
H7_2 C9_2 1_555 1_555
C11_2 C6_2 1_555 1_555
C6_2 C7_2 1_555 1_555
C9_2 C11_2 1_555 1_555
C6_3 H4_3 1_555 1_555
C7_3 N1 1_555 1_555
H5_3 C7_3 1_555 1_555
C8_3 N1 1_555 1_555
H6_3 C8_3 1_555 1_555
C9_3 C8_3 1_555 1_555
H7_3 C9_3 1_555 1_555
C11_3 C6_3 1_555 1_555
N2 C17 1_555 1_555
C16 H11 1_555 1_555
C17 C16 1_555 1_555
H12 C17 1_555 1_555
C18 N2 1_555 1_555
H13 C18 1_555 1_555
C19 C18 1_555 1_555
H14 C19 1_555 1_555
C20 C11_3 1_555 1_555
C6_3 C7_3 1_555 1_555
C9_3 C11_3 1_555 1_555
C16 C20 1_555 1_555
C19 C20 1_555 1_555
N2_2 C17_2 1_555 1_555
C16_2 H11_2 1_555 1_555
C17_2 C16_2 1_555 1_555
H12_2 C17_2 1_555 1_555
C18_2 N2_2 1_555 1_555
H13_2 C18_2 1_555 1_555
C19_2 C18_2 1_555 1_555
H14_2 C19_2 1_555 1_555
Cu7_2 N2_2 1_555 1_555
C16_2 C20_2 1_555 1_555
C19_2 C20_2 1_555 1_555
N2_3 C17_3 1_555 1_555
C16_3 H11_3 1_555 1_555
C17_3 C16_3 1_555 1_555
H12_3 C17_3 1_555 1_555
C18_3 N2_3 1_555 1_555
H13_3 C18_3 1_555 1_555
C19_3 C18_3 1_555 1_555
H14_3 C19_3 1_555 1_555
Cu7_4 N2_3 1_555 1_555
C16_3 C20_3 1_555 1_555
C19_3 C20_3 1_555 1_555
Cu7_3 O1_3 1_555 1_555
O1_3 C1_3 1_555 1_555
C1_3 C2_3 1_555 1_555
C2_3 C3_3 1_555 1_555
C3_3 H1_3 1_555 1_555
C4_3 C3_3 1_555 1_555
H2_3 C4_3 1_555 1_555
C5_3 C2_3 1_555 1_555
H3_3 C5_3 1_555 1_555
C10_3 C5_3 1_555 1_555
C12_3 C4_3 1_555 1_555
C13_3 C12_3 1_555 1_555
C14_3 C13_3 1_555 1_555
C15_3 C14_3 1_555 1_555
O2_2 C15_3 1_555 1_555
O3_2 C15_3 1_555 1_555
O4_3 C1_3 1_555 1_555
H9_3 C14_3 1_555 1_555
H10_3 C13_3 1_555 1_555
Cu7_4 O4_3 1_555 1_555
O5_3 Cu7_4 1_555 1_555
C21_3 O5_3 1_555 1_555
C22_3 C21_3 1_555 1_555
C23_3 C22_3 1_555 1_555
H15_3 C23_3 1_555 1_555
C24_3 C23_3 1_555 1_555
H16_3 C24_3 1_555 1_555
C25_3 C22_3 1_555 1_555
H17_3 C25_3 1_555 1_555
C26_3 C25_3 1_555 1_555
H18_3 C26_3 1_555 1_555
C27_3 C24_3 1_555 1_555
C28_3 C27_3 1_555 1_555
C29_3 C28_3 1_555 1_555
C30_3 C29_3 1_555 1_555
O6_2 C30_3 1_555 1_555
O7_2 C30_3 1_555 1_555
O8_3 Cu7_3 1_555 1_555
H19_3 C29_3 1_555 1_555
H20_3 C28_3 1_555 1_555
Cu7 O2_2 1_555 1_555
Cu7_2 O6_2 1_555 1_555
O9_2 Cu7_3 1_555 1_555
O10_2 Cu7_4 1_555 1_555
O11_2 Cu7_4 1_555 1_555
O12_2 Cu7_3 1_555 1_555
C10_3 C12_3 1_555 1_555
C21_3 O8_3 1_555 1_555
C26_3 C27_3 1_555 1_555
C21_4 O5_4 1_555 1_555
C22_4 C21_4 1_555 1_555
C23_4 C22_4 1_555 1_555
H15_4 C23_4 1_555 1_555
C25_4 C22_4 1_555 1_555
H17_4 C25_4 1_555 1_555
O8_4 Cu7 1_555 1_555
C21_4 O8_4 1_555 1_555
H16_4 C24_4 1_555 1_555
H18_4 C26_4 1_555 1_555
C27_4 C24_4 1_555 1_555
C28_4 C27_4 1_555 1_555
C29_4 C28_4 1_555 1_555
C30_4 C29_4 1_555 1_555
O10_2 C30_4 1_555 1_555
O12_2 C30_4 1_555 1_555
H19_4 C29_4 1_555 1_555
H20_4 C28_4 1_555 1_555
C26_4 C27_4 1_555 1_555
O1_4 C1_4 1_555 1_555
C1_4 C2_4 1_555 1_555
C2_4 C3_4 1_555 1_555
C3_4 H1_4 1_555 1_555
C5_4 C2_4 1_555 1_555
H3_4 C5_4 1_555 1_555
O4_4 C1_4 1_555 1_555
Cu7_2 O4_4 1_555 1_555
H2_4 C4_4 1_555 1_555
C12_4 C4_4 1_555 1_555
C13_4 C12_4 1_555 1_555
C14_4 C13_4 1_555 1_555
C15_4 C14_4 1_555 1_555
O9_2 C15_4 1_555 1_555
O11_2 C15_4 1_555 1_555
H9_4 C14_4 1_555 1_555
H10_4 C13_4 1_555 1_555
C10_4 C12_4 1_555 1_555
C6_4 H4_4 1_555 1_555
C7_4 N1_2 1_555 1_555
H5_4 C7_4 1_555 1_555
C8_4 N1_2 1_555 1_555
H6_4 C8_4 1_555 1_555
C9_4 C8_4 1_555 1_555
H7_4 C9_4 1_555 1_555
C11_4 C6_4 1_555 1_555
N2_4 C17_4 1_555 1_555
C16_4 H11_4 1_555 1_555
C17_4 C16_4 1_555 1_555
H12_4 C17_4 1_555 1_555
C18_4 N2_4 1_555 1_555
H13_4 C18_4 1_555 1_555
C19_4 C18_4 1_555 1_555
H14_4 C19_4 1_555 1_555
C20_4 C11_4 1_555 1_555
C6_4 C7_4 1_555 1_555
C9_4 C11_4 1_555 1_555
C16_4 C20_4 1_555 1_555
C19_4 C20_4 1_555 1_555

#END
