
###############################################################################
#
# This file contains modified crystal structure data generated from the
# MOF subset of the Cambridge Structural Database (CSD) v543 
# hosted by the Cambridge Crystallographic Data Centre (CCDC).
#
# This work is licensed under the Creative Commons
# Attribution-NonCommercial-ShareAlike 4.0 International License.
# To view a copy of this license, visit
# http://creativecommons.org/licenses/by-nc-sa/4.0/
# or send a letter to
# Creative Commons, PO Box 1866, Mountain View, CA 94042, USA.
#
# CIF created using the CSD Python API on 29 September 2022
# The structure has been converted into the P1 space group
# The structure has a 3D framework
# The original CSD entry YORQII is in the monoclinic crystal system
# The framework has been calculated to contain at least 10.0% void space
# The void calculation uses a probe of radius 1.32A, grid spacing 0.4
#
###############################################################################

data_YORQII
_chemical_formula_moiety         '(C256 H160 N64 O56 Zn16)n'
_symmetry_cell_setting           triclinic
_symmetry_space_group_name_H-M   'P 1'
_symmetry_Int_Tables_number      1
_space_group_name_Hall           'P 1'
loop_
_symmetry_equiv_pos_site_id
_symmetry_equiv_pos_as_xyz
1 x,y,z
_cell_length_a                   16.0005(10)
_cell_length_b                   22.7827(13)
_cell_length_c                   21.0164(13)
_cell_angle_alpha                90
_cell_angle_beta                 107.8760(10)
_cell_angle_gamma                90
_cell_volume                     7291.35
loop_
_atom_site_label
_atom_site_type_symbol
_atom_site_fract_x
_atom_site_fract_y
_atom_site_fract_z
O11 O 0.36221(14) 0.02978(9) 0.71037(9)
N9 N 0.38685(15) 0.03357(9) 0.57517(11)
Zn1 Zn 0.41310(2) 0.48084(2) 0.41874(2)
Zn2 Zn 0.42206(2) 0.98206(2) 0.65838(2)
O1 O 0.35478(12) 0.40550(8) 0.41607(9)
O2 O 0.45529(13) 0.38989(8) 0.51399(9)
O3 O 0.15553(14) 0.03588(8) 0.15095(9)
O5 O 0.35708(14) 0.90908(8) 0.63462(12)
O6 O 0.47019(14) 0.89266(9) 0.59840(11)
O7 O 0.13779(14) 0.52978(9) 0.78963(9)
O8 O 0.05015(14) 0.49046(10) 0.69773(11)
N2 N 0.44219(15) 0.03218(11) 0.53543(11)
N3 N 0.33647(14) 0.09490(9) 0.49460(10)
N4 N 0.27944(14) 0.13421(9) 0.45083(10)
N5 N 0.39707(13) 0.53293(9) 0.49395(10)
N6 N 0.45525(13) 0.53680(9) 0.55789(10)
N7 N 0.34796(14) 0.59730(9) 0.54902(10)
N8 N 0.29100(14) 0.63732(9) 0.56521(11)
C1 C 0.39496(17) 0.37211(11) 0.46569(13)
C2 C 0.36454(17) 0.30985(11) 0.46219(13)
C3 C 0.29366(19) 0.29058(12) 0.40974(14)
H1 H 0.263775 0.317453 0.375818
C4 C 0.26593(19) 0.23288(12) 0.40613(14)
H2 H 0.216555 0.220444 0.370478
C5 C 0.31055(17) 0.19316(11) 0.45485(12)
C6 C 0.38091(18) 0.21199(11) 0.50763(13)
H3 H 0.411332 0.185112 0.541360
C7 C 0.40672(18) 0.27019(12) 0.51102(13)
H4 H 0.454448 0.283055 0.547720
C8 C 0.13137(18) 0.01942(12) 0.20057(13)
C9 C 0.16952(17) 0.05098(11) 0.26539(12)
C10 C 0.13026(18) 0.04578(12) 0.31521(13)
H5 H 0.079060 0.022376 0.308034
C11 C 0.16535(18) 0.07461(12) 0.37561(13)
H6 H 0.137864 0.071909 0.409659
C12 C 0.24096(17) 0.10734(10) 0.38549(12)
C13 C 0.28124(18) 0.11266(12) 0.33612(13)
H7 H 0.333625 0.134926 0.343944
C14 C 0.24436(18) 0.08523(11) 0.27543(13)
H8 H 0.270092 0.089735 0.240558
C15 C 0.41049(17) 0.06971(12) 0.48787(13)
H9 H 0.435285 0.078422 0.453280
C16 C 0.32415(17) 0.07108(11) 0.54976(12)
H10 H 0.277477 0.080175 0.567184
C17 C 0.11199(17) 0.52420(11) 0.72731(13)
C18 C 0.16147(16) 0.55469(11) 0.68736(12)
C19 C 0.13652(18) 0.54491(13) 0.61927(14)
H11 H 0.090035 0.518345 0.599488
C20 C 0.17853(17) 0.57340(13) 0.57958(13)
H12 H 0.160194 0.567328 0.532593
C21 C 0.24732(16) 0.61069(10) 0.60906(13)
C22 C 0.27479(17) 0.61973(11) 0.67716(13)
H13 H 0.323220 0.644814 0.696991
C23 C 0.23129(17) 0.59195(11) 0.71666(13)
H14 H 0.249268 0.598426 0.763571
C24 C 0.40252(19) 0.87552(12) 0.60823(14)
C25 C 0.37131(18) 0.81391(11) 0.59321(14)
C26 C 0.41955(19) 0.77401(12) 0.56917(14)
H15 H 0.470427 0.786952 0.558983
C27 C 0.39501(18) 0.71553(12) 0.55970(14)
H16 H 0.428911 0.688661 0.543297
C28 C 0.32072(17) 0.69653(11) 0.57431(13)
C29 C 0.26910(18) 0.73678(11) 0.59504(15)
H17 H 0.216078 0.724373 0.602307
C30 C 0.29481(18) 0.79464(12) 0.60504(15)
H18 H 0.259934 0.821720 0.620192
C31 C 0.42412(16) 0.57576(10) 0.59046(12)
H19 H 0.450592 0.587052 0.635701
C32 C 0.33322(16) 0.56975(10) 0.48952(12)
H20 H 0.284357 0.576208 0.450888
Zn4 Zn 0.58690(2) 0.51916(2) 0.58126(2)
Zn7 Zn 0.07794(2) 0.48206(2) 0.84162(2)
O9 O 0.34447(14) 0.53588(8) 0.34905(9)
O10 O 0.42186(14) 0.47881(9) 0.30494(10)
O12 O 0.55015(14) 0.99046(10) 0.69773(11)
N10 N 0.54475(13) 0.46320(9) 0.44211(10)
O4 O 0.07814(14) 0.97881(9) 0.19506(10)
Zn3 Zn 0.08690(2) 0.98084(2) 0.08126(2)
Zn6 Zn 0.92206(2) 0.48206(2) 0.65838(2)
O11_2 O 0.63779(14) 0.02978(9) 0.78963(9)
N9_2 N 0.61315(15) 0.03357(9) 0.92483(11)
Zn1_2 Zn 0.58690(2) 0.48084(2) 0.08126(2)
O1_2 O 0.64522(12) 0.40550(8) 0.08393(9)
O3_2 O 0.84447(14) 0.03588(8) 0.34905(9)
N3_2 N 0.66353(14) 0.09490(9) 0.00540(10)
N4_2 N 0.72056(14) 0.13421(9) 0.04917(10)
N5_2 N 0.60293(13) 0.53293(9) 0.00605(10)
C1_2 C 0.60504(17) 0.37211(11) 0.03431(13)
C2_2 C 0.63546(17) 0.30985(11) 0.03781(13)
C3_2 C 0.70634(19) 0.29058(12) 0.09026(14)
H1_2 H 0.736225 0.317453 0.124182
C4_2 C 0.73407(19) 0.23288(12) 0.09387(14)
H2_2 H 0.783445 0.220444 0.129522
C5_2 C 0.68945(17) 0.19316(11) 0.04515(12)
C8_2 C 0.86863(18) 0.01942(12) 0.29943(13)
C9_2 C 0.83048(17) 0.05098(11) 0.23461(12)
C10_2 C 0.86974(18) 0.04578(12) 0.18479(13)
H5_2 H 0.920940 0.022376 0.191966
C11_2 C 0.83465(18) 0.07461(12) 0.12439(13)
H6_2 H 0.862136 0.071909 0.090341
C12_2 C 0.75904(17) 0.10734(10) 0.11451(12)
C13_2 C 0.71876(18) 0.11266(12) 0.16388(13)
H7_2 H 0.666375 0.134926 0.156056
C14_2 C 0.75564(18) 0.08523(11) 0.22457(13)
H8_2 H 0.729908 0.089735 0.259442
C15_2 C 0.58951(17) 0.06971(12) 0.01213(13)
H9_2 H 0.564715 0.078422 0.046720
C32_2 C 0.66678(16) 0.56975(10) 0.01048(12)
H20_2 H 0.715643 0.576208 0.049112
O9_2 O 0.65553(14) 0.53588(8) 0.15095(9)
O10_2 O 0.57814(14) 0.47881(9) 0.19506(10)
N10_2 N 0.45525(13) 0.46320(9) 0.05789(10)
Zn2_2 Zn 0.57794(2) 0.98206(2) 0.84162(2)
O2_2 O 0.54471(13) 0.38989(8) 0.98601(9)
O5_2 O 0.64292(14) 0.90908(8) 0.86538(12)
O6_2 O 0.52981(14) 0.89266(9) 0.90160(11)
O7_2 O 0.86221(14) 0.52978(9) 0.71037(9)
O8_2 O 0.94985(14) 0.49046(10) 0.80227(11)
N2_2 N 0.55781(15) 0.03218(11) 0.96457(11)
N6_2 N 0.54475(13) 0.53680(9) 0.94211(10)
N7_2 N 0.65204(14) 0.59730(9) 0.95098(10)
N8_2 N 0.70900(14) 0.63732(9) 0.93479(11)
C6_2 C 0.61909(18) 0.21199(11) 0.99237(13)
H3_2 H 0.588668 0.185112 0.958640
C7_2 C 0.59328(18) 0.27019(12) 0.98898(13)
H4_2 H 0.545552 0.283055 0.952280
C16_2 C 0.67585(17) 0.07108(11) 0.95024(12)
H10_2 H 0.722523 0.080175 0.932816
C17_2 C 0.88801(17) 0.52420(11) 0.77269(13)
C18_2 C 0.83853(16) 0.55469(11) 0.81264(12)
C19_2 C 0.86348(18) 0.54491(13) 0.88073(14)
H11_2 H 0.909965 0.518345 0.900512
C20_2 C 0.82147(17) 0.57340(13) 0.92042(13)
H12_2 H 0.839806 0.567328 0.967407
C21_2 C 0.75268(16) 0.61069(10) 0.89094(13)
C22_2 C 0.72521(17) 0.61973(11) 0.82284(13)
H13_2 H 0.676780 0.644814 0.803009
C23_2 C 0.76871(17) 0.59195(11) 0.78334(13)
H14_2 H 0.750732 0.598426 0.736429
C24_2 C 0.59748(19) 0.87552(12) 0.89177(14)
C25_2 C 0.62869(18) 0.81391(11) 0.90679(14)
C26_2 C 0.58045(19) 0.77401(12) 0.93083(14)
H15_2 H 0.529573 0.786952 0.941017
C27_2 C 0.60499(18) 0.71553(12) 0.94030(14)
H16_2 H 0.571089 0.688661 0.956703
C28_2 C 0.67928(17) 0.69653(11) 0.92569(13)
C29_2 C 0.73090(18) 0.73678(11) 0.90496(15)
H17_2 H 0.783922 0.724373 0.897693
C30_2 C 0.70519(18) 0.79464(12) 0.89496(15)
H18_2 H 0.740066 0.821720 0.879808
C31_2 C 0.57588(16) 0.57576(10) 0.90954(12)
H19_2 H 0.549408 0.587052 0.864299
Zn4_2 Zn 0.41310(2) 0.51916(2) 0.91874(2)
O12_2 O 0.44985(14) 0.99046(10) 0.80227(11)
O4_2 O 0.92186(14) 0.97881(9) 0.30494(10)
Zn3_2 Zn 0.91310(2) 0.98084(2) 0.41874(2)
Zn4_3 Zn 0.08690(2) 0.01916(2) 0.58126(2)
N10_3 N 0.04475(13) 0.96320(9) 0.44211(10)
O5_3 O 0.85708(14) 0.40908(8) 0.63462(12)
O6_3 O 0.97019(14) 0.39266(9) 0.59840(11)
N5_3 N 0.89707(13) 0.03293(9) 0.49395(10)
N6_3 N 0.95525(13) 0.03680(9) 0.55789(10)
N7_3 N 0.84796(14) 0.09730(9) 0.54902(10)
N8_3 N 0.79100(14) 0.13732(9) 0.56521(11)
C17_3 C 0.61199(17) 0.02420(11) 0.72731(13)
C18_3 C 0.66147(16) 0.05469(11) 0.68736(12)
C19_3 C 0.63652(18) 0.04491(13) 0.61927(14)
H11_3 H 0.590035 0.018345 0.599488
C20_3 C 0.67853(17) 0.07340(13) 0.57958(13)
H12_3 H 0.660194 0.067328 0.532593
C21_3 C 0.74732(16) 0.11069(10) 0.60906(13)
C22_3 C 0.77479(17) 0.11973(11) 0.67716(13)
H13_3 H 0.823220 0.144814 0.696991
C23_3 C 0.73129(17) 0.09195(11) 0.71666(13)
H14_3 H 0.749268 0.098426 0.763571
C24_3 C 0.90252(19) 0.37552(12) 0.60823(14)
C25_3 C 0.87131(18) 0.31391(11) 0.59321(14)
C26_3 C 0.91955(19) 0.27401(12) 0.56917(14)
H15_3 H 0.970427 0.286952 0.558983
C27_3 C 0.89501(18) 0.21553(12) 0.55970(14)
H16_3 H 0.928911 0.188661 0.543297
C28_3 C 0.82072(17) 0.19653(11) 0.57431(13)
C29_3 C 0.76910(18) 0.23678(11) 0.59504(15)
H17_3 H 0.716078 0.224373 0.602307
C30_3 C 0.79481(18) 0.29464(12) 0.60504(15)
H18_3 H 0.759934 0.321720 0.620192
C31_3 C 0.92412(16) 0.07576(10) 0.59046(12)
H19_3 H 0.950592 0.087052 0.635701
C32_3 C 0.83322(16) 0.06975(10) 0.48952(12)
H20_3 H 0.784357 0.076208 0.450888
N9_3 N 0.88685(15) 0.53357(9) 0.57517(11)
O1_3 O 0.85478(12) 0.90550(8) 0.41607(9)
O2_3 O 0.95529(13) 0.88989(8) 0.51399(9)
N2_3 N 0.94219(15) 0.53218(11) 0.53543(11)
N3_3 N 0.83647(14) 0.59490(9) 0.49460(10)
N4_3 N 0.77944(14) 0.63421(9) 0.45083(10)
C1_3 C 0.89496(17) 0.87211(11) 0.46569(13)
C2_3 C 0.86454(17) 0.80985(11) 0.46219(13)
C3_3 C 0.79366(19) 0.79058(12) 0.40974(14)
H1_3 H 0.763775 0.817453 0.375818
C4_3 C 0.76593(19) 0.73288(12) 0.40613(14)
H2_3 H 0.716555 0.720444 0.370478
C5_3 C 0.81055(17) 0.69316(11) 0.45485(12)
C6_3 C 0.88091(18) 0.71199(11) 0.50763(13)
H3_3 H 0.911332 0.685112 0.541360
C7_3 C 0.90672(18) 0.77019(12) 0.51102(13)
H4_3 H 0.954448 0.783055 0.547720
C8_3 C 0.63137(18) 0.51942(12) 0.20057(13)
C9_3 C 0.66952(17) 0.55098(11) 0.26539(12)
C10_3 C 0.63026(18) 0.54578(12) 0.31521(13)
H5_3 H 0.579060 0.522376 0.308034
C11_3 C 0.66535(18) 0.57461(12) 0.37561(13)
H6_3 H 0.637864 0.571909 0.409659
C12_3 C 0.74096(17) 0.60734(10) 0.38549(12)
C13_3 C 0.78124(18) 0.61266(12) 0.33612(13)
H7_3 H 0.833625 0.634926 0.343944
C14_3 C 0.74436(18) 0.58523(11) 0.27543(13)
H8_3 H 0.770092 0.589735 0.240558
C15_3 C 0.91049(17) 0.56971(12) 0.48787(13)
H9_3 H 0.935285 0.578422 0.453280
C16_3 C 0.82415(17) 0.57108(11) 0.54976(12)
H10_3 H 0.777477 0.580175 0.567184
N5_4 N 0.10293(13) 0.03293(9) 0.00605(10)
C32_4 C 0.16678(16) 0.06975(10) 0.01048(12)
H20_4 H 0.215643 0.076208 0.049112
O5_4 O 0.14292(14) 0.40908(8) 0.86538(12)
O6_4 O 0.02981(14) 0.39266(9) 0.90160(11)
N6_4 N 0.04475(13) 0.03680(9) 0.94211(10)
N7_4 N 0.15204(14) 0.09730(9) 0.95098(10)
N8_4 N 0.20900(14) 0.13732(9) 0.93479(11)
C17_4 C 0.38801(17) 0.02420(11) 0.77269(13)
C18_4 C 0.33853(16) 0.05469(11) 0.81264(12)
C19_4 C 0.36348(18) 0.04491(13) 0.88073(14)
H11_4 H 0.409965 0.018345 0.900512
C20_4 C 0.32147(17) 0.07340(13) 0.92042(13)
H12_4 H 0.339806 0.067328 0.967407
C21_4 C 0.25268(16) 0.11069(10) 0.89094(13)
C22_4 C 0.22521(17) 0.11973(11) 0.82284(13)
H13_4 H 0.176780 0.144814 0.803009
C23_4 C 0.26871(17) 0.09195(11) 0.78334(13)
H14_4 H 0.250732 0.098426 0.736429
C24_4 C 0.09748(19) 0.37552(12) 0.89177(14)
C25_4 C 0.12869(18) 0.31391(11) 0.90679(14)
C26_4 C 0.08045(19) 0.27401(12) 0.93083(14)
H15_4 H 0.029573 0.286952 0.941017
C27_4 C 0.10499(18) 0.21553(12) 0.94030(14)
H16_4 H 0.071089 0.188661 0.956703
C28_4 C 0.17928(17) 0.19653(11) 0.92569(13)
C29_4 C 0.23090(18) 0.23678(11) 0.90496(15)
H17_4 H 0.283922 0.224373 0.897693
C30_4 C 0.20519(18) 0.29464(12) 0.89496(15)
H18_4 H 0.240066 0.321720 0.879808
C31_4 C 0.07588(16) 0.07576(10) 0.90954(12)
H19_4 H 0.049408 0.087052 0.864299
N9_4 N 0.11315(15) 0.53357(9) 0.92483(11)
O1_4 O 0.14522(12) 0.90550(8) 0.08393(9)
N3_4 N 0.16353(14) 0.59490(9) 0.00540(10)
N4_4 N 0.22056(14) 0.63421(9) 0.04917(10)
C1_4 C 0.10504(17) 0.87211(11) 0.03431(13)
C2_4 C 0.13546(17) 0.80985(11) 0.03781(13)
C3_4 C 0.20634(19) 0.79058(12) 0.09026(14)
H1_4 H 0.236225 0.817453 0.124182
C4_4 C 0.23407(19) 0.73288(12) 0.09387(14)
H2_4 H 0.283445 0.720444 0.129522
C5_4 C 0.18945(17) 0.69316(11) 0.04515(12)
C8_4 C 0.36863(18) 0.51942(12) 0.29943(13)
C9_4 C 0.33048(17) 0.55098(11) 0.23461(12)
C10_4 C 0.36974(18) 0.54578(12) 0.18479(13)
H5_4 H 0.420940 0.522376 0.191966
C11_4 C 0.33465(18) 0.57461(12) 0.12439(13)
H6_4 H 0.362136 0.571909 0.090341
C12_4 C 0.25904(17) 0.60734(10) 0.11451(12)
C13_4 C 0.21876(18) 0.61266(12) 0.16388(13)
H7_4 H 0.166375 0.634926 0.156056
C14_4 C 0.25564(18) 0.58523(11) 0.22457(13)
H8_4 H 0.229908 0.589735 0.259442
C15_4 C 0.08951(17) 0.56971(12) 0.01213(13)
H9_4 H 0.064715 0.578422 0.046720
O2_4 O 0.04471(13) 0.88989(8) 0.98601(9)
N2_4 N 0.05781(15) 0.53218(11) 0.96457(11)
C6_4 C 0.11909(18) 0.71199(11) 0.99237(13)
H3_4 H 0.088668 0.685112 0.958640
C7_4 C 0.09328(18) 0.77019(12) 0.98898(13)
H4_4 H 0.045552 0.783055 0.952280
C16_4 C 0.17585(17) 0.57108(11) 0.95024(12)
H10_4 H 0.222523 0.580175 0.932816
Zn4_4 Zn 0.91310(2) 0.01916(2) 0.91874(2)
N10_4 N 0.95525(13) 0.96320(9) 0.05789(10)
Zn6_2 Zn 0.07794(2) 0.51794(2) 0.34162(2)
O4_3 O 0.92186(14) 0.02119(9) 0.80494(10)
Zn5 Zn 0.57794(2) 0.01794(2) 0.34162(2)
O1_5 O 0.64522(12) 0.59450(8) 0.58393(9)
O2_5 O 0.54471(13) 0.61011(8) 0.48601(9)
O3_3 O 0.84447(14) 0.96412(8) 0.84905(9)
O5_5 O 0.64292(14) 0.09092(8) 0.36538(12)
O6_5 O 0.52981(14) 0.10734(9) 0.40160(11)
O7_3 O 0.86221(14) 0.47022(9) 0.21037(9)
O8_3 O 0.94985(14) 0.50954(10) 0.30227(11)
N1 N 0.61315(15) 0.96643(9) 0.42483(11)
N2_5 N 0.55781(15) 0.96782(11) 0.46457(11)
N3_5 N 0.66353(14) 0.90510(9) 0.50540(10)
N4_5 N 0.72056(14) 0.86579(9) 0.54917(10)
N5_5 N 0.60293(13) 0.46707(9) 0.50605(10)
N7_5 N 0.65204(14) 0.40270(9) 0.45098(10)
N8_5 N 0.70900(14) 0.36268(9) 0.43479(11)
C1_5 C 0.60504(17) 0.62789(11) 0.53431(13)
C2_5 C 0.63546(17) 0.69015(11) 0.53781(13)
C3_5 C 0.70634(19) 0.70942(12) 0.59026(14)
H1_5 H 0.736225 0.682547 0.624182
C4_5 C 0.73407(19) 0.76712(12) 0.59387(14)
H2_5 H 0.783445 0.779556 0.629522
C5_5 C 0.68945(17) 0.80684(11) 0.54515(12)
C6_5 C 0.61909(18) 0.78801(11) 0.49237(13)
H3_5 H 0.588668 0.814888 0.458640
C7_5 C 0.59328(18) 0.72981(12) 0.48898(13)
H4_5 H 0.545552 0.716945 0.452280
C8_5 C 0.86863(18) 0.98058(12) 0.79943(13)
C9_5 C 0.83048(17) 0.94902(11) 0.73461(12)
C10_5 C 0.86974(18) 0.95422(12) 0.68479(13)
H5_5 H 0.920940 0.977624 0.691966
C11_5 C 0.83465(18) 0.92539(12) 0.62439(13)
H6_5 H 0.862136 0.928091 0.590341
C12_5 C 0.75904(17) 0.89266(10) 0.61451(12)
C13_5 C 0.71876(18) 0.88734(12) 0.66388(13)
H7_5 H 0.666375 0.865074 0.656056
C14_5 C 0.75564(18) 0.91477(11) 0.72457(13)
H8_5 H 0.729908 0.910265 0.759442
C15_5 C 0.58951(17) 0.93029(12) 0.51213(13)
H9_5 H 0.564715 0.921578 0.546720
C16_5 C 0.67585(17) 0.92892(11) 0.45024(12)
H10_5 H 0.722523 0.919825 0.432816
C17_5 C 0.88801(17) 0.47580(11) 0.27269(13)
C18_5 C 0.83853(16) 0.44531(11) 0.31264(12)
C19_5 C 0.86348(18) 0.45509(13) 0.38073(14)
H11_5 H 0.909965 0.481655 0.400512
C20_5 C 0.82147(17) 0.42660(13) 0.42042(13)
H12_5 H 0.839806 0.432672 0.467407
C21_5 C 0.75268(16) 0.38931(10) 0.39094(13)
C22_5 C 0.72521(17) 0.38027(11) 0.32284(13)
H13_5 H 0.676780 0.355186 0.303009
C23_5 C 0.76871(17) 0.40805(11) 0.28334(13)
H14_5 H 0.750732 0.401574 0.236429
C24_5 C 0.59748(19) 0.12448(12) 0.39177(14)
C25_5 C 0.62869(18) 0.18609(11) 0.40679(14)
C26_5 C 0.58045(19) 0.22599(12) 0.43083(14)
H15_5 H 0.529573 0.213048 0.441017
C27_5 C 0.60499(18) 0.28447(12) 0.44030(14)
H16_5 H 0.571089 0.311339 0.456703
C28_5 C 0.67928(17) 0.30347(11) 0.42569(13)
C29_5 C 0.73090(18) 0.26322(11) 0.40496(15)
H17_5 H 0.783922 0.275627 0.397693
C30_5 C 0.70519(18) 0.20536(12) 0.39496(15)
H18_5 H 0.740066 0.178280 0.379808
C31_5 C 0.57588(16) 0.42424(10) 0.40954(12)
H19_5 H 0.549408 0.412948 0.364299
C32_5 C 0.66678(16) 0.43025(10) 0.51048(12)
H20_5 H 0.715643 0.423792 0.549112
Zn7_2 Zn 0.92206(2) 0.51794(2) 0.15838(2)
O9_3 O 0.65553(14) 0.46412(8) 0.65095(9)
O10_3 O 0.57814(14) 0.52119(9) 0.69506(10)
O12_3 O 0.44985(14) 0.00954(10) 0.30227(11)
O11_3 O 0.63779(14) 0.97022(9) 0.28963(9)
Zn5_2 Zn 0.42206(2) 0.01794(2) 0.15838(2)
O4_4 O 0.07814(14) 0.02119(9) 0.69506(10)
O2_6 O 0.45529(13) 0.61011(8) 0.01399(9)
O5_6 O 0.35708(14) 0.09092(8) 0.13462(12)
O6_6 O 0.47019(14) 0.10734(9) 0.09840(11)
O7_4 O 0.13779(14) 0.47022(9) 0.28963(9)
O8_4 O 0.05015(14) 0.50954(10) 0.19773(11)
N1_2 N 0.38685(15) 0.96643(9) 0.07517(11)
N2_6 N 0.44219(15) 0.96782(11) 0.03543(11)
N7_6 N 0.34796(14) 0.40270(9) 0.04902(10)
N8_6 N 0.29100(14) 0.36268(9) 0.06521(11)
C6_6 C 0.38091(18) 0.78801(11) 0.00763(13)
H3_6 H 0.411332 0.814888 0.041360
C7_6 C 0.40672(18) 0.72981(12) 0.01102(13)
H4_6 H 0.454448 0.716945 0.047720
C16_6 C 0.32415(17) 0.92892(11) 0.04976(12)
H10_6 H 0.277477 0.919825 0.067184
C17_6 C 0.11199(17) 0.47580(11) 0.22731(13)
C18_6 C 0.16147(16) 0.44531(11) 0.18736(12)
C19_6 C 0.13652(18) 0.45509(13) 0.11927(14)
H11_6 H 0.090035 0.481655 0.099488
C20_6 C 0.17853(17) 0.42660(13) 0.07958(13)
H12_6 H 0.160194 0.432672 0.032593
C21_6 C 0.24732(16) 0.38931(10) 0.10906(13)
C22_6 C 0.27479(17) 0.38027(11) 0.17716(13)
H13_6 H 0.323220 0.355186 0.196991
C23_6 C 0.23129(17) 0.40805(11) 0.21666(13)
H14_6 H 0.249268 0.401574 0.263571
C24_6 C 0.40252(19) 0.12448(12) 0.10823(14)
C25_6 C 0.37131(18) 0.18609(11) 0.09321(14)
C26_6 C 0.41955(19) 0.22599(12) 0.06917(14)
H15_6 H 0.470427 0.213048 0.058983
C27_6 C 0.39501(18) 0.28447(12) 0.05970(14)
H16_6 H 0.428911 0.311339 0.043297
C28_6 C 0.32072(17) 0.30347(11) 0.07431(13)
C29_6 C 0.26910(18) 0.26322(11) 0.09504(15)
H17_6 H 0.216078 0.275627 0.102307
C30_6 C 0.29481(18) 0.20536(12) 0.10504(15)
H18_6 H 0.259934 0.178280 0.120192
C31_6 C 0.42412(16) 0.42424(10) 0.09046(12)
H19_6 H 0.450592 0.412948 0.135701
O12_4 O 0.55015(14) 0.00954(10) 0.19773(11)
O1_6 O 0.35478(12) 0.59450(8) 0.91607(9)
O3_4 O 0.15553(14) 0.96412(8) 0.65095(9)
N3_6 N 0.33647(14) 0.90510(9) 0.99460(10)
N4_6 N 0.27944(14) 0.86579(9) 0.95083(10)
N5_6 N 0.39707(13) 0.46707(9) 0.99395(10)
C1_6 C 0.39496(17) 0.62789(11) 0.96569(13)
C2_6 C 0.36454(17) 0.69015(11) 0.96219(13)
C3_6 C 0.29366(19) 0.70942(12) 0.90974(14)
H1_6 H 0.263775 0.682547 0.875818
C4_6 C 0.26593(19) 0.76712(12) 0.90613(14)
H2_6 H 0.216555 0.779556 0.870478
C5_6 C 0.31055(17) 0.80684(11) 0.95485(12)
C8_6 C 0.13137(18) 0.98058(12) 0.70057(13)
C9_6 C 0.16952(17) 0.94902(11) 0.76539(12)
C10_6 C 0.13026(18) 0.95422(12) 0.81521(13)
H5_6 H 0.079060 0.977624 0.808034
C11_6 C 0.16535(18) 0.92539(12) 0.87561(13)
H6_6 H 0.137864 0.928091 0.909659
C12_6 C 0.24096(17) 0.89266(10) 0.88549(12)
C13_6 C 0.28124(18) 0.88734(12) 0.83612(13)
H7_6 H 0.333625 0.865074 0.843944
C14_6 C 0.24436(18) 0.91477(11) 0.77543(13)
H8_6 H 0.270092 0.910265 0.740558
C15_6 C 0.41049(17) 0.93029(12) 0.98787(13)
H9_6 H 0.435285 0.921578 0.953280
C32_6 C 0.33322(16) 0.43025(10) 0.98952(12)
H20_6 H 0.284357 0.423792 0.950888
O9_4 O 0.34447(14) 0.46412(8) 0.84905(9)
O10_4 O 0.42186(14) 0.52119(9) 0.80494(10)
O11_4 O 0.36221(14) 0.97022(9) 0.21037(9)
O1_7 O 0.14522(12) 0.09450(8) 0.58393(9)
O2_7 O 0.04471(13) 0.11011(8) 0.48601(9)
N1_3 N 0.11315(15) 0.46643(9) 0.42483(11)
N2_7 N 0.05781(15) 0.46782(11) 0.46457(11)
N3_7 N 0.16353(14) 0.40510(9) 0.50540(10)
N4_7 N 0.22056(14) 0.36579(9) 0.54917(10)
C1_7 C 0.10504(17) 0.12789(11) 0.53431(13)
C2_7 C 0.13546(17) 0.19015(11) 0.53781(13)
C3_7 C 0.20634(19) 0.20942(12) 0.59026(14)
H1_7 H 0.236225 0.182547 0.624182
C4_7 C 0.23407(19) 0.26712(12) 0.59387(14)
H2_7 H 0.283445 0.279556 0.629522
C5_7 C 0.18945(17) 0.30684(11) 0.54515(12)
C6_7 C 0.11909(18) 0.28801(11) 0.49237(13)
H3_7 H 0.088668 0.314888 0.458640
C7_7 C 0.09328(18) 0.22981(12) 0.48898(13)
H4_7 H 0.045552 0.216945 0.452280
C8_7 C 0.36863(18) 0.48058(12) 0.79943(13)
C9_7 C 0.33048(17) 0.44902(11) 0.73461(12)
C10_7 C 0.36974(18) 0.45422(12) 0.68479(13)
H5_7 H 0.420940 0.477624 0.691966
C11_7 C 0.33465(18) 0.42539(12) 0.62439(13)
H6_7 H 0.362136 0.428091 0.590341
C12_7 C 0.25904(17) 0.39266(10) 0.61451(12)
C13_7 C 0.21876(18) 0.38734(12) 0.66388(13)
H7_7 H 0.166375 0.365074 0.656056
C14_7 C 0.25564(18) 0.41477(11) 0.72457(13)
H8_7 H 0.229908 0.410265 0.759442
C15_7 C 0.08951(17) 0.43029(12) 0.51213(13)
H9_7 H 0.064715 0.421578 0.546720
C16_7 C 0.17585(17) 0.42892(11) 0.45024(12)
H10_7 H 0.222523 0.419825 0.432816
O5_7 O 0.14292(14) 0.59092(8) 0.36538(12)
O6_7 O 0.02981(14) 0.60734(9) 0.40160(11)
N5_7 N 0.10293(13) 0.96707(9) 0.50605(10)
N7_7 N 0.15204(14) 0.90270(9) 0.45098(10)
N8_7 N 0.20900(14) 0.86268(9) 0.43479(11)
C17_7 C 0.38801(17) 0.97580(11) 0.27269(13)
C18_7 C 0.33853(16) 0.94531(11) 0.31264(12)
C19_7 C 0.36348(18) 0.95509(13) 0.38073(14)
H11_7 H 0.409965 0.981655 0.400512
C20_7 C 0.32147(17) 0.92660(13) 0.42042(13)
H12_7 H 0.339806 0.932672 0.467407
C21_7 C 0.25268(16) 0.88931(10) 0.39094(13)
C22_7 C 0.22521(17) 0.88027(11) 0.32284(13)
H13_7 H 0.176780 0.855186 0.303009
C23_7 C 0.26871(17) 0.90805(11) 0.28334(13)
H14_7 H 0.250732 0.901574 0.236429
C24_7 C 0.09748(19) 0.62448(12) 0.39177(14)
C25_7 C 0.12869(18) 0.68609(11) 0.40679(14)
C26_7 C 0.08045(19) 0.72599(12) 0.43083(14)
H15_7 H 0.029573 0.713048 0.441017
C27_7 C 0.10499(18) 0.78447(12) 0.44030(14)
H16_7 H 0.071089 0.811339 0.456703
C28_7 C 0.17928(17) 0.80347(11) 0.42569(13)
C29_7 C 0.23090(18) 0.76322(11) 0.40496(15)
H17_7 H 0.283922 0.775627 0.397693
C30_7 C 0.20519(18) 0.70536(12) 0.39496(15)
H18_7 H 0.240066 0.678280 0.379808
C31_7 C 0.07588(16) 0.92424(10) 0.40954(12)
H19_7 H 0.049408 0.912948 0.364299
C32_7 C 0.16678(16) 0.93025(10) 0.51048(12)
H20_7 H 0.215643 0.923792 0.549112
O2_8 O 0.95529(13) 0.11011(8) 0.01399(9)
N1_4 N 0.88685(15) 0.46643(9) 0.07517(11)
N2_8 N 0.94219(15) 0.46782(11) 0.03543(11)
C6_8 C 0.88091(18) 0.28801(11) 0.00763(13)
H3_8 H 0.911332 0.314888 0.041360
C7_8 C 0.90672(18) 0.22981(12) 0.01102(13)
H4_8 H 0.954448 0.216945 0.047720
C16_8 C 0.82415(17) 0.42892(11) 0.04976(12)
H10_8 H 0.777477 0.419825 0.067184
O1_8 O 0.85478(12) 0.09450(8) 0.91607(9)
N3_8 N 0.83647(14) 0.40510(9) 0.99460(10)
N4_8 N 0.77944(14) 0.36579(9) 0.95083(10)
C1_8 C 0.89496(17) 0.12789(11) 0.96569(13)
C2_8 C 0.86454(17) 0.19015(11) 0.96219(13)
C3_8 C 0.79366(19) 0.20942(12) 0.90974(14)
H1_8 H 0.763775 0.182547 0.875818
C4_8 C 0.76593(19) 0.26712(12) 0.90613(14)
H2_8 H 0.716555 0.279556 0.870478
C5_8 C 0.81055(17) 0.30684(11) 0.95485(12)
C8_8 C 0.63137(18) 0.48058(12) 0.70057(13)
C9_8 C 0.66952(17) 0.44902(11) 0.76539(12)
C10_8 C 0.63026(18) 0.45422(12) 0.81521(13)
H5_8 H 0.579060 0.477624 0.808034
C11_8 C 0.66535(18) 0.42539(12) 0.87561(13)
H6_8 H 0.637864 0.428091 0.909659
C12_8 C 0.74096(17) 0.39266(10) 0.88549(12)
C13_8 C 0.78124(18) 0.38734(12) 0.83612(13)
H7_8 H 0.833625 0.365074 0.843944
C14_8 C 0.74436(18) 0.41477(11) 0.77543(13)
H8_8 H 0.770092 0.410265 0.740558
C15_8 C 0.91049(17) 0.43029(12) 0.98787(13)
H9_8 H 0.935285 0.421578 0.953280
O5_8 O 0.85708(14) 0.59092(8) 0.13462(12)
O6_8 O 0.97019(14) 0.60734(9) 0.09840(11)
N7_8 N 0.84796(14) 0.90270(9) 0.04902(10)
N8_8 N 0.79100(14) 0.86268(9) 0.06521(11)
C17_8 C 0.61199(17) 0.97580(11) 0.22731(13)
C18_8 C 0.66147(16) 0.94531(11) 0.18736(12)
C19_8 C 0.63652(18) 0.95509(13) 0.11927(14)
H11_8 H 0.590035 0.981655 0.099488
C20_8 C 0.67853(17) 0.92660(13) 0.07958(13)
H12_8 H 0.660194 0.932672 0.032593
C21_8 C 0.74732(16) 0.88931(10) 0.10906(13)
C22_8 C 0.77479(17) 0.88027(11) 0.17716(13)
H13_8 H 0.823220 0.855186 0.196991
C23_8 C 0.73129(17) 0.90805(11) 0.21666(13)
H14_8 H 0.749268 0.901574 0.263571
C24_8 C 0.90252(19) 0.62448(12) 0.10823(14)
C25_8 C 0.87131(18) 0.68609(11) 0.09321(14)
C26_8 C 0.91955(19) 0.72599(12) 0.06917(14)
H15_8 H 0.970427 0.713048 0.058983
C27_8 C 0.89501(18) 0.78447(12) 0.05970(14)
H16_8 H 0.928911 0.811339 0.043297
C28_8 C 0.82072(17) 0.80347(11) 0.07431(13)
C29_8 C 0.76910(18) 0.76322(11) 0.09504(15)
H17_8 H 0.716078 0.775627 0.102307
C30_8 C 0.79481(18) 0.70536(12) 0.10504(15)
H18_8 H 0.759934 0.678280 0.120192
C31_8 C 0.92412(16) 0.92424(10) 0.09046(12)
H19_8 H 0.950592 0.912948 0.135701
N5_8 N 0.89707(13) 0.96707(9) 0.99395(10)
C32_8 C 0.83322(16) 0.93025(10) 0.98952(12)
H20_8 H 0.784357 0.923792 0.950888
loop_
_geom_bond_atom_site_label_1
_geom_bond_atom_site_label_2
_geom_bond_site_symmetry_1
_geom_bond_site_symmetry_2
Zn1 O1 1_555 1_555
Zn2 O5 1_555 1_555
O1 C1 1_555 1_555
O2 C1 1_555 1_555
O3 C8 1_555 1_555
O5 C24 1_555 1_555
O6 C24 1_555 1_555
O7 C17 1_555 1_555
O8 C17 1_555 1_555
N9 N2 1_555 1_555
N2 C15 1_555 1_555
N3 N4 1_555 1_555
N4 C5 1_555 1_555
N5 Zn1 1_555 1_555
N6 N5 1_555 1_555
N7 N8 1_555 1_555
N8 C21 1_555 1_555
C1 C2 1_555 1_555
C2 C3 1_555 1_555
C3 H1 1_555 1_555
C4 C3 1_555 1_555
H2 C4 1_555 1_555
C5 C4 1_555 1_555
C6 C5 1_555 1_555
H3 C6 1_555 1_555
C7 C2 1_555 1_555
H4 C7 1_555 1_555
C8 C9 1_555 1_555
C9 C10 1_555 1_555
C10 H5 1_555 1_555
C11 C10 1_555 1_555
H6 C11 1_555 1_555
C12 N4 1_555 1_555
C13 C12 1_555 1_555
H7 C13 1_555 1_555
C14 C9 1_555 1_555
H8 C14 1_555 1_555
C15 N3 1_555 1_555
H9 C15 1_555 1_555
C16 N9 1_555 1_555
H10 C16 1_555 1_555
C17 C18 1_555 1_555
C18 C19 1_555 1_555
C19 H11 1_555 1_555
C20 C19 1_555 1_555
H12 C20 1_555 1_555
C21 C20 1_555 1_555
C22 C21 1_555 1_555
H13 C22 1_555 1_555
C23 C18 1_555 1_555
H14 C23 1_555 1_555
C24 C25 1_555 1_555
C25 C26 1_555 1_555
C26 H15 1_555 1_555
C27 C26 1_555 1_555
H16 C27 1_555 1_555
C28 N8 1_555 1_555
C29 C28 1_555 1_555
H17 C29 1_555 1_555
C30 C25 1_555 1_555
H18 C30 1_555 1_555
C31 N6 1_555 1_555
H19 C31 1_555 1_555
C32 N5 1_555 1_555
H20 C32 1_555 1_555
Zn4 N6 1_555 1_555
Zn7 O7 1_555 1_555
O9 Zn1 1_555 1_555
O10 Zn1 1_555 1_555
O12 Zn2 1_555 1_555
N10 Zn1 1_555 1_555
N3 C16 1_555 1_555
N7 C31 1_555 1_555
N7 C32 1_555 1_555
C6 C7 1_555 1_555
C11 C12 1_555 1_555
C13 C14 1_555 1_555
C22 C23 1_555 1_555
C27 C28 1_555 1_555
C29 C30 1_555 1_555
O4 Zn3 1_555 1_555
Zn1_2 O1_2 1_555 1_555
O1_2 C1_2 1_555 1_555
O3_2 C8_2 1_555 1_555
N3_2 N4_2 1_555 1_555
N4_2 C5_2 1_555 1_555
N5_2 Zn1_2 1_555 1_555
C1_2 C2_2 1_555 1_555
C2_2 C3_2 1_555 1_555
C3_2 H1_2 1_555 1_555
C4_2 C3_2 1_555 1_555
H2_2 C4_2 1_555 1_555
C5_2 C4_2 1_555 1_555
C8_2 C9_2 1_555 1_555
C9_2 C10_2 1_555 1_555
C10_2 H5_2 1_555 1_555
C11_2 C10_2 1_555 1_555
H6_2 C11_2 1_555 1_555
C12_2 N4_2 1_555 1_555
C13_2 C12_2 1_555 1_555
H7_2 C13_2 1_555 1_555
C14_2 C9_2 1_555 1_555
H8_2 C14_2 1_555 1_555
C15_2 N3_2 1_555 1_555
H9_2 C15_2 1_555 1_555
C32_2 N5_2 1_555 1_555
H20_2 C32_2 1_555 1_555
O9_2 Zn1_2 1_555 1_555
O10_2 Zn1_2 1_555 1_555
N10_2 Zn1_2 1_555 1_555
C11_2 C12_2 1_555 1_555
C13_2 C14_2 1_555 1_555
Zn2_2 O5_2 1_555 1_555
O5_2 C24_2 1_555 1_555
O6_2 C24_2 1_555 1_555
O7_2 C17_2 1_555 1_555
O8_2 C17_2 1_555 1_555
N9_2 N2_2 1_555 1_555
N7_2 N8_2 1_555 1_555
N8_2 C21_2 1_555 1_555
H3_2 C6_2 1_555 1_555
H4_2 C7_2 1_555 1_555
C16_2 N9_2 1_555 1_555
H10_2 C16_2 1_555 1_555
C17_2 C18_2 1_555 1_555
C18_2 C19_2 1_555 1_555
C19_2 H11_2 1_555 1_555
C20_2 C19_2 1_555 1_555
H12_2 C20_2 1_555 1_555
C21_2 C20_2 1_555 1_555
C22_2 C21_2 1_555 1_555
H13_2 C22_2 1_555 1_555
C23_2 C18_2 1_555 1_555
H14_2 C23_2 1_555 1_555
C24_2 C25_2 1_555 1_555
C25_2 C26_2 1_555 1_555
C26_2 H15_2 1_555 1_555
C27_2 C26_2 1_555 1_555
H16_2 C27_2 1_555 1_555
C28_2 N8_2 1_555 1_555
C29_2 C28_2 1_555 1_555
H17_2 C29_2 1_555 1_555
C30_2 C25_2 1_555 1_555
H18_2 C30_2 1_555 1_555
C31_2 N6_2 1_555 1_555
H19_2 C31_2 1_555 1_555
Zn4_2 N6_2 1_555 1_555
Zn6 O7_2 1_555 1_555
O12_2 Zn2_2 1_555 1_555
N7_2 C31_2 1_555 1_555
C6_2 C7_2 1_555 1_555
C22_2 C23_2 1_555 1_555
C27_2 C28_2 1_555 1_555
C29_2 C30_2 1_555 1_555
O4_2 Zn3_2 1_555 1_555
Zn6 O5_3 1_555 1_555
O5_3 C24_3 1_555 1_555
O6_3 C24_3 1_555 1_555
O11_2 C17_3 1_555 1_555
N6_3 N5_3 1_555 1_555
N7_3 N8_3 1_555 1_555
N8_3 C21_3 1_555 1_555
C17_3 C18_3 1_555 1_555
C18_3 C19_3 1_555 1_555
C19_3 H11_3 1_555 1_555
C20_3 C19_3 1_555 1_555
H12_3 C20_3 1_555 1_555
C21_3 C20_3 1_555 1_555
C22_3 C21_3 1_555 1_555
H13_3 C22_3 1_555 1_555
C23_3 C18_3 1_555 1_555
H14_3 C23_3 1_555 1_555
C24_3 C25_3 1_555 1_555
C25_3 C26_3 1_555 1_555
C26_3 H15_3 1_555 1_555
C27_3 C26_3 1_555 1_555
H16_3 C27_3 1_555 1_555
C28_3 N8_3 1_555 1_555
C29_3 C28_3 1_555 1_555
H17_3 C29_3 1_555 1_555
C30_3 C25_3 1_555 1_555
H18_3 C30_3 1_555 1_555
C31_3 N6_3 1_555 1_555
H19_3 C31_3 1_555 1_555
C32_3 N5_3 1_555 1_555
H20_3 C32_3 1_555 1_555
N9_3 Zn6 1_555 1_555
N7_3 C31_3 1_555 1_555
N7_3 C32_3 1_555 1_555
C22_3 C23_3 1_555 1_555
C27_3 C28_3 1_555 1_555
C29_3 C30_3 1_555 1_555
Zn3_2 O1_3 1_555 1_555
O1_3 C1_3 1_555 1_555
O2_3 C1_3 1_555 1_555
O9_2 C8_3 1_555 1_555
O10_2 C8_3 1_555 1_555
N9_3 N2_3 1_555 1_555
N2_3 C15_3 1_555 1_555
N3_3 N4_3 1_555 1_555
N4_3 C5_3 1_555 1_555
C1_3 C2_3 1_555 1_555
C2_3 C3_3 1_555 1_555
C3_3 H1_3 1_555 1_555
C4_3 C3_3 1_555 1_555
H2_3 C4_3 1_555 1_555
C5_3 C4_3 1_555 1_555
C6_3 C5_3 1_555 1_555
H3_3 C6_3 1_555 1_555
C7_3 C2_3 1_555 1_555
H4_3 C7_3 1_555 1_555
C8_3 C9_3 1_555 1_555
C9_3 C10_3 1_555 1_555
C10_3 H5_3 1_555 1_555
C11_3 C10_3 1_555 1_555
H6_3 C11_3 1_555 1_555
C12_3 N4_3 1_555 1_555
C13_3 C12_3 1_555 1_555
H7_3 C13_3 1_555 1_555
C14_3 C9_3 1_555 1_555
H8_3 C14_3 1_555 1_555
C15_3 N3_3 1_555 1_555
H9_3 C15_3 1_555 1_555
C16_3 N9_3 1_555 1_555
H10_3 C16_3 1_555 1_555
N3_3 C16_3 1_555 1_555
C6_3 C7_3 1_555 1_555
C11_3 C12_3 1_555 1_555
C13_3 C14_3 1_555 1_555
C32_4 N5_4 1_555 1_555
H20_4 C32_4 1_555 1_555
Zn7 O5_4 1_555 1_555
O5_4 C24_4 1_555 1_555
O6_4 C24_4 1_555 1_555
O11 C17_4 1_555 1_555
N7_4 N8_4 1_555 1_555
N8_4 C21_4 1_555 1_555
C17_4 C18_4 1_555 1_555
C18_4 C19_4 1_555 1_555
C19_4 H11_4 1_555 1_555
C20_4 C19_4 1_555 1_555
H12_4 C20_4 1_555 1_555
C21_4 C20_4 1_555 1_555
C22_4 C21_4 1_555 1_555
H13_4 C22_4 1_555 1_555
C23_4 C18_4 1_555 1_555
H14_4 C23_4 1_555 1_555
C24_4 C25_4 1_555 1_555
C25_4 C26_4 1_555 1_555
C26_4 H15_4 1_555 1_555
C27_4 C26_4 1_555 1_555
H16_4 C27_4 1_555 1_555
C28_4 N8_4 1_555 1_555
C29_4 C28_4 1_555 1_555
H17_4 C29_4 1_555 1_555
C30_4 C25_4 1_555 1_555
H18_4 C30_4 1_555 1_555
C31_4 N6_4 1_555 1_555
H19_4 C31_4 1_555 1_555
N9_4 Zn7 1_555 1_555
N7_4 C31_4 1_555 1_555
C22_4 C23_4 1_555 1_555
C27_4 C28_4 1_555 1_555
C29_4 C30_4 1_555 1_555
Zn3 O1_4 1_555 1_555
O1_4 C1_4 1_555 1_555
O9 C8_4 1_555 1_555
O10 C8_4 1_555 1_555
N3_4 N4_4 1_555 1_555
N4_4 C5_4 1_555 1_555
C1_4 C2_4 1_555 1_555
C2_4 C3_4 1_555 1_555
C3_4 H1_4 1_555 1_555
C4_4 C3_4 1_555 1_555
H2_4 C4_4 1_555 1_555
C5_4 C4_4 1_555 1_555
C8_4 C9_4 1_555 1_555
C9_4 C10_4 1_555 1_555
C10_4 H5_4 1_555 1_555
C11_4 C10_4 1_555 1_555
H6_4 C11_4 1_555 1_555
C12_4 N4_4 1_555 1_555
C13_4 C12_4 1_555 1_555
H7_4 C13_4 1_555 1_555
C14_4 C9_4 1_555 1_555
H8_4 C14_4 1_555 1_555
C15_4 N3_4 1_555 1_555
H9_4 C15_4 1_555 1_555
C11_4 C12_4 1_555 1_555
C13_4 C14_4 1_555 1_555
N9_4 N2_4 1_555 1_555
H3_4 C6_4 1_555 1_555
H4_4 C7_4 1_555 1_555
C16_4 N9_4 1_555 1_555
H10_4 C16_4 1_555 1_555
C6_4 C7_4 1_555 1_555
O4_3 Zn4_4 1_555 1_555
Zn4 O1_5 1_555 1_555
Zn5 O5_5 1_555 1_555
O1_5 C1_5 1_555 1_555
O2_5 C1_5 1_555 1_555
O3_3 C8_5 1_555 1_555
O5_5 C24_5 1_555 1_555
O6_5 C24_5 1_555 1_555
O7_3 C17_5 1_555 1_555
O8_3 C17_5 1_555 1_555
N1 N2_5 1_555 1_555
N2_5 C15_5 1_555 1_555
N3_5 N4_5 1_555 1_555
N4_5 C5_5 1_555 1_555
N5_5 Zn4 1_555 1_555
N10 N5_5 1_555 1_555
N7_5 N8_5 1_555 1_555
N8_5 C21_5 1_555 1_555
C1_5 C2_5 1_555 1_555
C2_5 C3_5 1_555 1_555
C3_5 H1_5 1_555 1_555
C4_5 C3_5 1_555 1_555
H2_5 C4_5 1_555 1_555
C5_5 C4_5 1_555 1_555
C6_5 C5_5 1_555 1_555
H3_5 C6_5 1_555 1_555
C7_5 C2_5 1_555 1_555
H4_5 C7_5 1_555 1_555
C8_5 C9_5 1_555 1_555
C9_5 C10_5 1_555 1_555
C10_5 H5_5 1_555 1_555
C11_5 C10_5 1_555 1_555
H6_5 C11_5 1_555 1_555
C12_5 N4_5 1_555 1_555
C13_5 C12_5 1_555 1_555
H7_5 C13_5 1_555 1_555
C14_5 C9_5 1_555 1_555
H8_5 C14_5 1_555 1_555
C15_5 N3_5 1_555 1_555
H9_5 C15_5 1_555 1_555
C16_5 N1 1_555 1_555
H10_5 C16_5 1_555 1_555
C17_5 C18_5 1_555 1_555
C18_5 C19_5 1_555 1_555
C19_5 H11_5 1_555 1_555
C20_5 C19_5 1_555 1_555
H12_5 C20_5 1_555 1_555
C21_5 C20_5 1_555 1_555
C22_5 C21_5 1_555 1_555
H13_5 C22_5 1_555 1_555
C23_5 C18_5 1_555 1_555
H14_5 C23_5 1_555 1_555
C24_5 C25_5 1_555 1_555
C25_5 C26_5 1_555 1_555
C26_5 H15_5 1_555 1_555
C27_5 C26_5 1_555 1_555
H16_5 C27_5 1_555 1_555
C28_5 N8_5 1_555 1_555
C29_5 C28_5 1_555 1_555
H17_5 C29_5 1_555 1_555
C30_5 C25_5 1_555 1_555
H18_5 C30_5 1_555 1_555
C31_5 N10 1_555 1_555
H19_5 C31_5 1_555 1_555
C32_5 N5_5 1_555 1_555
H20_5 C32_5 1_555 1_555
Zn7_2 O7_3 1_555 1_555
O9_3 Zn4 1_555 1_555
O10_3 Zn4 1_555 1_555
O12_3 Zn5 1_555 1_555
N3_5 C16_5 1_555 1_555
N7_5 C31_5 1_555 1_555
N7_5 C32_5 1_555 1_555
C6_5 C7_5 1_555 1_555
C11_5 C12_5 1_555 1_555
C13_5 C14_5 1_555 1_555
C22_5 C23_5 1_555 1_555
C27_5 C28_5 1_555 1_555
C29_5 C30_5 1_555 1_555
O4_4 Zn4_3 1_555 1_555
Zn5_2 O5_6 1_555 1_555
O5_6 C24_6 1_555 1_555
O6_6 C24_6 1_555 1_555
O7_4 C17_6 1_555 1_555
O8_4 C17_6 1_555 1_555
N1_2 N2_6 1_555 1_555
N7_6 N8_6 1_555 1_555
N8_6 C21_6 1_555 1_555
H3_6 C6_6 1_555 1_555
H4_6 C7_6 1_555 1_555
C16_6 N1_2 1_555 1_555
H10_6 C16_6 1_555 1_555
C17_6 C18_6 1_555 1_555
C18_6 C19_6 1_555 1_555
C19_6 H11_6 1_555 1_555
C20_6 C19_6 1_555 1_555
H12_6 C20_6 1_555 1_555
C21_6 C20_6 1_555 1_555
C22_6 C21_6 1_555 1_555
H13_6 C22_6 1_555 1_555
C23_6 C18_6 1_555 1_555
H14_6 C23_6 1_555 1_555
C24_6 C25_6 1_555 1_555
C25_6 C26_6 1_555 1_555
C26_6 H15_6 1_555 1_555
C27_6 C26_6 1_555 1_555
H16_6 C27_6 1_555 1_555
C28_6 N8_6 1_555 1_555
C29_6 C28_6 1_555 1_555
H17_6 C29_6 1_555 1_555
C30_6 C25_6 1_555 1_555
H18_6 C30_6 1_555 1_555
C31_6 N10_2 1_555 1_555
H19_6 C31_6 1_555 1_555
Zn6_2 O7_4 1_555 1_555
O12_4 Zn5_2 1_555 1_555
N7_6 C31_6 1_555 1_555
C6_6 C7_6 1_555 1_555
C22_6 C23_6 1_555 1_555
C27_6 C28_6 1_555 1_555
C29_6 C30_6 1_555 1_555
Zn4_2 O1_6 1_555 1_555
O1_6 C1_6 1_555 1_555
O3_4 C8_6 1_555 1_555
N3_6 N4_6 1_555 1_555
N4_6 C5_6 1_555 1_555
N5_6 Zn4_2 1_555 1_555
C1_6 C2_6 1_555 1_555
C2_6 C3_6 1_555 1_555
C3_6 H1_6 1_555 1_555
C4_6 C3_6 1_555 1_555
H2_6 C4_6 1_555 1_555
C5_6 C4_6 1_555 1_555
C8_6 C9_6 1_555 1_555
C9_6 C10_6 1_555 1_555
C10_6 H5_6 1_555 1_555
C11_6 C10_6 1_555 1_555
H6_6 C11_6 1_555 1_555
C12_6 N4_6 1_555 1_555
C13_6 C12_6 1_555 1_555
H7_6 C13_6 1_555 1_555
C14_6 C9_6 1_555 1_555
H8_6 C14_6 1_555 1_555
C15_6 N3_6 1_555 1_555
H9_6 C15_6 1_555 1_555
C32_6 N5_6 1_555 1_555
H20_6 C32_6 1_555 1_555
O9_4 Zn4_2 1_555 1_555
O10_4 Zn4_2 1_555 1_555
C11_6 C12_6 1_555 1_555
C13_6 C14_6 1_555 1_555
Zn4_3 O1_7 1_555 1_555
O1_7 C1_7 1_555 1_555
O2_7 C1_7 1_555 1_555
O9_4 C8_7 1_555 1_555
O10_4 C8_7 1_555 1_555
N1_3 N2_7 1_555 1_555
N2_7 C15_7 1_555 1_555
N3_7 N4_7 1_555 1_555
N4_7 C5_7 1_555 1_555
C1_7 C2_7 1_555 1_555
C2_7 C3_7 1_555 1_555
C3_7 H1_7 1_555 1_555
C4_7 C3_7 1_555 1_555
H2_7 C4_7 1_555 1_555
C5_7 C4_7 1_555 1_555
C6_7 C5_7 1_555 1_555
H3_7 C6_7 1_555 1_555
C7_7 C2_7 1_555 1_555
H4_7 C7_7 1_555 1_555
C8_7 C9_7 1_555 1_555
C9_7 C10_7 1_555 1_555
C10_7 H5_7 1_555 1_555
C11_7 C10_7 1_555 1_555
H6_7 C11_7 1_555 1_555
C12_7 N4_7 1_555 1_555
C13_7 C12_7 1_555 1_555
H7_7 C13_7 1_555 1_555
C14_7 C9_7 1_555 1_555
H8_7 C14_7 1_555 1_555
C15_7 N3_7 1_555 1_555
H9_7 C15_7 1_555 1_555
C16_7 N1_3 1_555 1_555
H10_7 C16_7 1_555 1_555
Zn6_2 N1_3 1_555 1_555
N3_7 C16_7 1_555 1_555
C6_7 C7_7 1_555 1_555
C11_7 C12_7 1_555 1_555
C13_7 C14_7 1_555 1_555
Zn6_2 O5_7 1_555 1_555
O5_7 C24_7 1_555 1_555
O6_7 C24_7 1_555 1_555
O11_4 C17_7 1_555 1_555
N10_3 N5_7 1_555 1_555
N7_7 N8_7 1_555 1_555
N8_7 C21_7 1_555 1_555
C17_7 C18_7 1_555 1_555
C18_7 C19_7 1_555 1_555
C19_7 H11_7 1_555 1_555
C20_7 C19_7 1_555 1_555
H12_7 C20_7 1_555 1_555
C21_7 C20_7 1_555 1_555
C22_7 C21_7 1_555 1_555
H13_7 C22_7 1_555 1_555
C23_7 C18_7 1_555 1_555
H14_7 C23_7 1_555 1_555
C24_7 C25_7 1_555 1_555
C25_7 C26_7 1_555 1_555
C26_7 H15_7 1_555 1_555
C27_7 C26_7 1_555 1_555
H16_7 C27_7 1_555 1_555
C28_7 N8_7 1_555 1_555
C29_7 C28_7 1_555 1_555
H17_7 C29_7 1_555 1_555
C30_7 C25_7 1_555 1_555
H18_7 C30_7 1_555 1_555
C31_7 N10_3 1_555 1_555
H19_7 C31_7 1_555 1_555
C32_7 N5_7 1_555 1_555
H20_7 C32_7 1_555 1_555
N7_7 C31_7 1_555 1_555
N7_7 C32_7 1_555 1_555
C22_7 C23_7 1_555 1_555
C27_7 C28_7 1_555 1_555
C29_7 C30_7 1_555 1_555
N1_4 N2_8 1_555 1_555
H3_8 C6_8 1_555 1_555
H4_8 C7_8 1_555 1_555
C16_8 N1_4 1_555 1_555
H10_8 C16_8 1_555 1_555
Zn7_2 N1_4 1_555 1_555
C6_8 C7_8 1_555 1_555
Zn4_4 O1_8 1_555 1_555
O1_8 C1_8 1_555 1_555
O9_3 C8_8 1_555 1_555
O10_3 C8_8 1_555 1_555
N3_8 N4_8 1_555 1_555
N4_8 C5_8 1_555 1_555
C1_8 C2_8 1_555 1_555
C2_8 C3_8 1_555 1_555
C3_8 H1_8 1_555 1_555
C4_8 C3_8 1_555 1_555
H2_8 C4_8 1_555 1_555
C5_8 C4_8 1_555 1_555
C8_8 C9_8 1_555 1_555
C9_8 C10_8 1_555 1_555
C10_8 H5_8 1_555 1_555
C11_8 C10_8 1_555 1_555
H6_8 C11_8 1_555 1_555
C12_8 N4_8 1_555 1_555
C13_8 C12_8 1_555 1_555
H7_8 C13_8 1_555 1_555
C14_8 C9_8 1_555 1_555
H8_8 C14_8 1_555 1_555
C15_8 N3_8 1_555 1_555
H9_8 C15_8 1_555 1_555
C11_8 C12_8 1_555 1_555
C13_8 C14_8 1_555 1_555
Zn7_2 O5_8 1_555 1_555
O5_8 C24_8 1_555 1_555
O6_8 C24_8 1_555 1_555
O11_3 C17_8 1_555 1_555
N7_8 N8_8 1_555 1_555
N8_8 C21_8 1_555 1_555
C17_8 C18_8 1_555 1_555
C18_8 C19_8 1_555 1_555
C19_8 H11_8 1_555 1_555
C20_8 C19_8 1_555 1_555
H12_8 C20_8 1_555 1_555
C21_8 C20_8 1_555 1_555
C22_8 C21_8 1_555 1_555
H13_8 C22_8 1_555 1_555
C23_8 C18_8 1_555 1_555
H14_8 C23_8 1_555 1_555
C24_8 C25_8 1_555 1_555
C25_8 C26_8 1_555 1_555
C26_8 H15_8 1_555 1_555
C27_8 C26_8 1_555 1_555
H16_8 C27_8 1_555 1_555
C28_8 N8_8 1_555 1_555
C29_8 C28_8 1_555 1_555
H17_8 C29_8 1_555 1_555
C30_8 C25_8 1_555 1_555
H18_8 C30_8 1_555 1_555
C31_8 N10_4 1_555 1_555
H19_8 C31_8 1_555 1_555
N7_8 C31_8 1_555 1_555
C22_8 C23_8 1_555 1_555
C27_8 C28_8 1_555 1_555
C29_8 C30_8 1_555 1_555
C32_8 N5_8 1_555 1_555
H20_8 C32_8 1_555 1_555

#END
