
###############################################################################
#
# This file contains modified crystal structure data generated from the
# MOF subset of the Cambridge Structural Database (CSD) v543 
# hosted by the Cambridge Crystallographic Data Centre (CCDC).
#
# This work is licensed under the Creative Commons
# Attribution-NonCommercial-ShareAlike 4.0 International License.
# To view a copy of this license, visit
# http://creativecommons.org/licenses/by-nc-sa/4.0/
# or send a letter to
# Creative Commons, PO Box 1866, Mountain View, CA 94042, USA.
#
# CIF created using the CSD Python API on 29 September 2022
# The structure has been converted into the P1 space group
# The structure has a 3D framework
# The original CSD entry YOSCUG is in the rhombohedral crystal system
# The framework has been calculated to contain at least 10.0% void space
# The void calculation uses a probe of radius 1.32A, grid spacing 0.4
#
###############################################################################

data_YOSCUG
_chemical_formula_moiety         '(C504 H324 N72 Ni16 O108)n'
_symmetry_cell_setting           triclinic
_symmetry_space_group_name_H-M   'P 1'
_symmetry_Int_Tables_number      1
_space_group_name_Hall           'P 1'
loop_
_symmetry_equiv_pos_site_id
_symmetry_equiv_pos_as_xyz
1 x,y,z
_cell_length_a                   16.7246(7)
_cell_length_b                   16.7246(7)
_cell_length_c                   59.874(5)
_cell_angle_alpha                90
_cell_angle_beta                 90
_cell_angle_gamma                120
_cell_volume                     14503.8
loop_
_atom_site_label
_atom_site_type_symbol
_atom_site_fract_x
_atom_site_fract_y
_atom_site_fract_z
Ni1 Ni 0.34317(4) 0.02116(4) 0.281142(9)
O1 O 0.4903(2) 0.0880(2) 0.27711(5)
N1 N 0.3309(3) 0.0063(3) 0.24651(7)
C1 C 0.3035(5) 0.0565(4) 0.23502(9)
H1 H 0.2883 0.0948 0.2430
O2 O 0.4177(2) 0.1666(2) 0.27651(5)
C2 C 0.2960(5) 0.0555(5) 0.21181(10)
H2 H 0.2770 0.0924 0.2046
O3 O 0.2227(2) 0.0169(2) 0.28239(6)
N4 N 0.3034(3) 0.0191(4) 0.05288(7)
H4 H 0.2976 0.0647 0.0575
O5 O 0.2290(6) 0.0594(6) 0.16795(9)
C6 C 0.2749(7) 0.0256(7) 0.16257(11)
C7 C 0.2884(6) 0.0130(6) 0.13800(10)
C8 C 0.3795(5) 0.0590(5) 0.12789(10)
C9 C 0.4627(5) 0.1177(6) 0.13988(12)
H7 H 0.4602 0.1251 0.1552
C10 C 0.5439(6) 0.1618(7) 0.12937(14)
H8 H 0.5968 0.2000 0.1375
C11 C 0.5513(6) 0.1519(7) 0.10640(15)
H9 H 0.6085 0.1820 0.0993
C12 C 0.4721(6) 0.0966(6) 0.09447(12)
H10 H 0.4765 0.0912 0.0791
C13 C 0.3860(5) 0.0485(5) 0.10451(10)
C18 C 0.3023(4) 0.0064(4) 0.02932(8)
C19 C 0.2946(6) 0.0684(5) 0.01606(9)
H13 H 0.2914 0.1174 0.0224
C23 C 0.4919(3) 0.1636(3) 0.27610(7)
C24 C 0.5828(3) 0.2512(3) 0.27481(8)
C25 C 0.5863(3) 0.3373(3) 0.27477(8)
H17 H 0.5317 0.3393 0.2747
C26 C 0.0910(3) 0.0683(3) 0.28728(8)
H18 H 0.1527 0.1147 0.2873
O7 O 0.9120(2) 0.4023(3) 0.27711(5)
O8 O 0.8334(2) 0.2511(3) 0.27651(5)
C29 C 0.8364(3) 0.3283(4) 0.27610(7)
C30 C 0.7488(3) 0.3316(4) 0.27481(8)
C31 C 0.6627(3) 0.2490(4) 0.27477(8)
H19 H 0.6607 0.1924 0.2747
O9 O 0.5977(3) 0.5097(2) 0.27711(5)
O10 O 0.7489(3) 0.5823(2) 0.27651(5)
C32 C 0.6717(4) 0.5081(3) 0.27610(7)
C33 C 0.6684(4) 0.4172(3) 0.27481(8)
C34 C 0.7510(4) 0.4137(3) 0.27477(8)
H20 H 0.8076 0.4683 0.2747
O12 O 0.1275(3) 0.2520(4) 0.29199(7)
C36 C 0.0229(3) 0.0920(4) 0.28725(8)
C37 C 0.0476(3) 0.1924(4) 0.28713(8)
N7 N 0.0063(4) 0.3201(6) 0.17685(8)
H25 H 0.0335 0.3739 0.1708
C43 C 0.0020(4) 0.3195(6) 0.19991(9)
C44 C 0.0526(6) 0.3976(8) 0.21192(10)
H27 H 0.0920 0.4523 0.2045
C45 C 0.0474(5) 0.3983(8) 0.23460(9)
H28 H 0.0837 0.4538 0.2421
O16 O 0.0969(4) 0.4234(6) 0.06436(8)
C54 C 0.0088(5) 0.3144(7) 0.09251(9)
C55 C 0.0517(6) 0.2734(8) 0.10255(11)
H33 H 0.0912 0.2603 0.0944
C56 C 0.0355(7) 0.2503(9) 0.12571(11)
H34 H 0.0601 0.2169 0.1322
C57 C 0.0328(5) 0.3453(7) 0.06856(10)
C62 C 0.0622(5) 0.3720(7) 0.01925(9)
H38 H 0.1054 0.4214 0.0277
Ni4 Ni 0.97884(4) 0.32201(6) 0.281142(9)
Ni5 Ni 0.67799(6) 0.65683(4) 0.281142(9)
N15 N 0.3601(4) 0.0354(3) 0.31608(6)
C20 C 0.2917(6) 0.0581(5) 0.99300(9)
H14 H 0.2851 0.1004 0.9843
N6 N 0.0087(3) 0.3066(4) 0.98275(6)
C61 C 0.0667(4) 0.3747(6) 0.99638(9)
H37 H 0.1136 0.4279 0.9898
Ni8 Ni 0.01132(6) 0.32350(4) 0.947809(9)
N2 N 0.2979(3) 0.9913(3) 0.98275(6)
C21 C 0.3080(5) 0.9333(4) 0.99638(9)
H15 H 0.3143 0.8864 0.9898
Ni7 Ni 0.31217(4) 0.98868(6) 0.947809(9)
O11 O 0.9831(2) 0.2058(3) 0.28239(6)
C35 C 0.9317(3) 0.0227(4) 0.28728(8)
H21 H 0.8853 0.0380 0.2873
N5 N 0.9937(3) 0.3246(4) 0.24651(7)
C41 C 0.9435(4) 0.2470(6) 0.23502(9)
H23 H 0.9052 0.1935 0.2430
C42 C 0.9445(5) 0.2405(7) 0.21181(10)
H24 H 0.9076 0.1846 0.2046
N8 N 0.9809(4) 0.2843(5) 0.05288(7)
H26 H 0.9353 0.2329 0.0575
O15 O 0.9406(6) 0.1696(8) 0.16795(9)
C46 C 0.9744(7) 0.2493(10) 0.16257(11)
C47 C 0.9870(6) 0.2754(8) 0.13800(10)
C48 C 0.9410(5) 0.3205(7) 0.12789(10)
C49 C 0.8823(6) 0.3450(8) 0.13988(12)
H29 H 0.8749 0.3351 0.1552
C50 C 0.8382(7) 0.3821(9) 0.12937(14)
H30 H 0.8000 0.3968 0.1375
C51 C 0.8481(7) 0.3994(9) 0.10640(15)
H31 H 0.8180 0.4265 0.0993
C52 C 0.9034(6) 0.3755(8) 0.09447(12)
H32 H 0.9088 0.3853 0.0791
C53 C 0.9515(5) 0.3375(7) 0.10451(10)
C58 C 0.9936(4) 0.2959(6) 0.02932(8)
C59 C 0.9316(5) 0.2262(8) 0.01606(9)
H35 H 0.8826 0.1740 0.0224
N13 N 0.9646(3) 0.3246(3) 0.31608(6)
O13 O 0.7942(3) 0.7773(2) 0.28239(6)
O14 O 0.7480(4) 0.8755(3) 0.29199(7)
C38 C 0.9773(4) 0.9090(3) 0.28728(8)
H22 H 0.9620 0.8473 0.2873
C39 C 0.9080(4) 0.9309(3) 0.28725(8)
C40 C 0.8076(4) 0.8552(3) 0.28713(8)
N9 N 0.6754(4) 0.6691(3) 0.24651(7)
C63 C 0.7530(6) 0.6965(5) 0.23502(9)
H39 H 0.8065 0.7117 0.2430
C64 C 0.7595(7) 0.7040(5) 0.21181(10)
H40 H 0.8154 0.7230 0.2046
N11 N 0.6799(6) 0.6862(4) 0.17685(8)
H41 H 0.6261 0.6596 0.1708
C65 C 0.6805(6) 0.6825(5) 0.19991(9)
N12 N 0.7157(5) 0.6966(3) 0.05288(7)
H42 H 0.7671 0.7024 0.0575
C66 C 0.6024(8) 0.6550(6) 0.21192(10)
H43 H 0.5477 0.6397 0.2045
C67 C 0.6017(8) 0.6491(6) 0.23460(9)
H44 H 0.5462 0.6299 0.2421
O17 O 0.8304(8) 0.7710(6) 0.16795(9)
C68 C 0.7507(10) 0.7251(7) 0.16257(11)
O18 O 0.5766(6) 0.6735(5) 0.06436(8)
C69 C 0.7246(8) 0.7116(6) 0.13800(10)
C70 C 0.6795(7) 0.6205(5) 0.12789(10)
C71 C 0.6550(8) 0.5373(5) 0.13988(12)
H45 H 0.6649 0.5398 0.1552
C72 C 0.6179(9) 0.4561(6) 0.12937(14)
H46 H 0.6032 0.4032 0.1375
C73 C 0.6006(9) 0.4487(6) 0.10640(15)
H47 H 0.5735 0.3915 0.0993
C74 C 0.6245(8) 0.5279(6) 0.09447(12)
H48 H 0.6147 0.5235 0.0791
C75 C 0.6625(7) 0.6140(5) 0.10451(10)
C76 C 0.6856(7) 0.6944(5) 0.09251(9)
C77 C 0.7266(8) 0.7783(6) 0.10255(11)
H49 H 0.7397 0.8309 0.0944
C78 C 0.7497(9) 0.7852(6) 0.12571(11)
H50 H 0.7831 0.8432 0.1322
C79 C 0.6547(7) 0.6875(5) 0.06856(10)
C80 C 0.7041(6) 0.6977(4) 0.02932(8)
C81 C 0.7738(8) 0.7054(6) 0.01606(9)
H51 H 0.8260 0.7086 0.0224
C84 C 0.6280(7) 0.6902(5) 0.01925(9)
H54 H 0.5786 0.6840 0.0277
N14 N 0.6754(3) 0.6399(4) 0.31608(6)
N10 N 0.6934(4) 0.7021(3) 0.98275(6)
C82 C 0.7664(8) 0.7083(6) 0.99300(9)
H52 H 0.8153 0.7149 0.9843
C83 C 0.6253(6) 0.6920(5) 0.99638(9)
H53 H 0.5721 0.6857 0.9898
Ni6 Ni 0.67650(4) 0.68783(4) 0.947809(9)
Ni1_2 Ni 0.00984(4) 0.35449(4) 0.614475(9)
O1_2 O 0.1570(2) 0.4213(2) 0.61044(5)
O2_2 O 0.0844(2) 0.4999(2) 0.60984(5)
H3 H 0.0071 0.2998 0.5041
C4 C 0.0117(6) 0.2807(6) 0.54525(10)
H5 H 0.0270 0.2413 0.5378
C5 C 0.0176(6) 0.2859(5) 0.56793(9)
H6 H 0.0368 0.2496 0.5754
C8_2 C 0.0462(5) 0.3923(5) 0.46122(10)
C9_2 C 0.1294(5) 0.4510(6) 0.47321(12)
H7_2 H 0.1269 0.4584 0.4885
C10_2 C 0.2106(6) 0.4951(7) 0.46270(14)
H8_2 H 0.2635 0.5333 0.4708
C11_2 C 0.2180(6) 0.4852(7) 0.43973(15)
H9_2 H 0.2752 0.5153 0.4326
C12_2 C 0.1388(6) 0.4299(6) 0.42780(12)
H10_2 H 0.1432 0.4245 0.4124
C13_2 C 0.0527(5) 0.3818(5) 0.43784(10)
C23_2 C 0.1586(3) 0.4969(3) 0.60943(7)
C24_2 C 0.2495(3) 0.5845(3) 0.60814(8)
C25_2 C 0.2530(3) 0.6706(3) 0.60810(8)
H17_2 H 0.1984 0.6726 0.6080
O7_2 O 0.5787(2) 0.7356(3) 0.61044(5)
O8_2 O 0.5001(2) 0.5844(3) 0.60984(5)
C29_2 C 0.5031(3) 0.6616(4) 0.60943(7)
C30_2 C 0.4155(3) 0.6649(4) 0.60814(8)
C31_2 C 0.3294(3) 0.5823(4) 0.60810(8)
H19_2 H 0.3274 0.5257 0.6080
O9_2 O 0.2644(3) 0.8430(2) 0.61044(5)
O10_2 O 0.4156(3) 0.9156(2) 0.60984(5)
C32_2 C 0.3384(4) 0.8414(3) 0.60943(7)
C33_2 C 0.3351(4) 0.7505(3) 0.60814(8)
C34_2 C 0.4177(4) 0.7470(3) 0.60810(8)
H20_2 H 0.4743 0.8016 0.6080
Ni4_2 Ni 0.64551(4) 0.65534(6) 0.614475(9)
Ni5_2 Ni 0.34466(6) 0.99016(4) 0.614475(9)
N15_2 N 0.0267(4) 0.3688(3) 0.64942(6)
N1_2 N 0.9976(3) 0.3396(3) 0.57984(7)
C1_2 C 0.9702(5) 0.3898(4) 0.56835(9)
H1_2 H 0.9550 0.4281 0.5763
C2_2 C 0.9627(5) 0.3888(5) 0.54514(10)
H2_2 H 0.9437 0.4257 0.5379
O3_2 O 0.8894(2) 0.3502(2) 0.61572(6)
N3 N 0.9805(4) 0.3270(4) 0.51018(8)
C3 C 0.9842(5) 0.3313(4) 0.53324(9)
O4 O 0.7912(3) 0.2058(3) 0.62532(7)
N4_2 N 0.9701(3) 0.3524(4) 0.38621(7)
H4_2 H 0.9643 0.3980 0.3908
O5_2 O 0.8957(6) 0.3927(6) 0.50128(9)
C6_2 C 0.9416(7) 0.3589(7) 0.49590(11)
O6 O 0.9932(5) 0.2364(4) 0.39769(8)
C7_2 C 0.9551(6) 0.3463(6) 0.47133(10)
C14 C 0.9723(5) 0.3245(5) 0.42584(9)
C15 C 0.8884(6) 0.2816(6) 0.43588(11)
H11 H 0.8358 0.2421 0.4277
C16 C 0.8815(6) 0.2978(7) 0.45904(11)
H12 H 0.8235 0.2732 0.4655
C17 C 0.9792(5) 0.3005(5) 0.40189(10)
C18_2 C 0.9690(4) 0.3397(4) 0.36265(8)
C19_2 C 0.9613(6) 0.4017(5) 0.34939(9)
H13_2 H 0.9581 0.4507 0.3557
C20_2 C 0.9584(6) 0.3914(5) 0.32633(9)
H14_2 H 0.9518 0.4337 0.3176
C21_2 C 0.9747(5) 0.2666(4) 0.32971(9)
H15_2 H 0.9810 0.2197 0.3231
C22 C 0.9765(5) 0.2711(5) 0.35258(9)
H16 H 0.9827 0.2279 0.3610
C26_2 C 0.7577(3) 0.4016(3) 0.62061(8)
H18_2 H 0.8194 0.4480 0.6206
C27 C 0.7358(3) 0.3104(3) 0.62058(8)
C28 C 0.8115(3) 0.2857(3) 0.62046(8)
O11_2 O 0.6498(2) 0.5391(3) 0.61572(6)
O12_2 O 0.7942(3) 0.5853(4) 0.62532(7)
C35_2 C 0.5984(3) 0.3560(4) 0.62061(8)
H21_2 H 0.5520 0.3713 0.6206
C36_2 C 0.6896(3) 0.4253(4) 0.62058(8)
C37_2 C 0.7143(3) 0.5257(4) 0.62046(8)
O13_2 O 0.4609(3) 0.1106(2) 0.61572(6)
O14_2 O 0.4147(4) 0.2088(3) 0.62532(7)
C38_2 C 0.6440(4) 0.2423(3) 0.62061(8)
H22_2 H 0.6287 0.1806 0.6206
C39_2 C 0.5747(4) 0.2642(3) 0.62058(8)
C40_2 C 0.4743(4) 0.1885(3) 0.62046(8)
N5_2 N 0.6604(3) 0.6579(4) 0.57984(7)
C41_2 C 0.6102(4) 0.5803(6) 0.56835(9)
H23_2 H 0.5719 0.5268 0.5763
C42_2 C 0.6112(5) 0.5738(7) 0.54514(10)
H24_2 H 0.5743 0.5179 0.5379
N7_2 N 0.6730(4) 0.6534(6) 0.51018(8)
H25_2 H 0.7002 0.7072 0.5041
C43_2 C 0.6687(4) 0.6528(6) 0.53324(9)
N8_2 N 0.6476(4) 0.6176(5) 0.38621(7)
H26_2 H 0.6020 0.5662 0.3908
C44_2 C 0.7193(6) 0.7309(8) 0.54525(10)
H27_2 H 0.7587 0.7856 0.5378
C45_2 C 0.7141(5) 0.7316(8) 0.56793(9)
H28_2 H 0.7504 0.7871 0.5754
O15_2 O 0.6073(6) 0.5029(8) 0.50128(9)
C46_2 C 0.6411(7) 0.5826(10) 0.49590(11)
O16_2 O 0.7636(4) 0.7567(6) 0.39769(8)
C47_2 C 0.6537(6) 0.6087(8) 0.47133(10)
C48_2 C 0.6077(5) 0.6538(7) 0.46122(10)
C49_2 C 0.5490(6) 0.6783(8) 0.47321(12)
H29_2 H 0.5416 0.6684 0.4885
C50_2 C 0.5049(7) 0.7154(9) 0.46270(14)
H30_2 H 0.4667 0.7301 0.4708
C51_2 C 0.5148(7) 0.7327(9) 0.43973(15)
H31_2 H 0.4847 0.7598 0.4326
C52_2 C 0.5701(6) 0.7088(8) 0.42780(12)
H32_2 H 0.5755 0.7186 0.4124
C53_2 C 0.6182(5) 0.6708(7) 0.43784(10)
C54_2 C 0.6755(5) 0.6477(7) 0.42584(9)
C55_2 C 0.7184(6) 0.6067(8) 0.43588(11)
H33_2 H 0.7579 0.5936 0.4277
C56_2 C 0.7022(7) 0.5836(9) 0.45904(11)
H34_2 H 0.7268 0.5502 0.4655
C57_2 C 0.6995(5) 0.6786(7) 0.40189(10)
C58_2 C 0.6603(4) 0.6292(6) 0.36265(8)
C59_2 C 0.5983(5) 0.5595(8) 0.34939(9)
H35_2 H 0.5493 0.5073 0.3557
C60 C 0.6086(5) 0.5669(8) 0.32633(9)
H36 H 0.5663 0.5180 0.3176
C61_2 C 0.7334(4) 0.7080(6) 0.32971(9)
H37_2 H 0.7803 0.7612 0.3231
C62_2 C 0.7289(5) 0.7053(7) 0.35258(9)
H38_2 H 0.7721 0.7547 0.3610
N9_2 N 0.3421(4) 0.0024(3) 0.57984(7)
C63_2 C 0.4197(6) 0.0298(5) 0.56835(9)
H39_2 H 0.4732 0.0450 0.5763
C64_2 C 0.4262(7) 0.0373(5) 0.54514(10)
H40_2 H 0.4821 0.0563 0.5379
N11_2 N 0.3466(6) 0.0195(4) 0.51018(8)
C65_2 C 0.3472(6) 0.0158(5) 0.53324(9)
N12_2 N 0.3824(5) 0.0299(3) 0.38621(7)
H42_2 H 0.4338 0.0357 0.3908
O17_2 O 0.4971(8) 0.1043(6) 0.50128(9)
C68_2 C 0.4174(10) 0.0584(7) 0.49590(11)
O18_2 O 0.2433(6) 0.0068(5) 0.39769(8)
C69_2 C 0.3913(8) 0.0449(6) 0.47133(10)
C76_2 C 0.3523(7) 0.0277(5) 0.42584(9)
C77_2 C 0.3933(8) 0.1116(6) 0.43588(11)
H49_2 H 0.4064 0.1642 0.4277
C78_2 C 0.4164(9) 0.1185(6) 0.45904(11)
H50_2 H 0.4498 0.1765 0.4655
C79_2 C 0.3214(7) 0.0208(5) 0.40189(10)
C80_2 C 0.3708(6) 0.0310(4) 0.36265(8)
C81_2 C 0.4405(8) 0.0387(6) 0.34939(9)
H51_2 H 0.4927 0.0419 0.3557
C82_2 C 0.4331(8) 0.0416(6) 0.32633(9)
H52_2 H 0.4820 0.0482 0.3176
C83_2 C 0.2920(6) 0.0253(5) 0.32971(9)
H53_2 H 0.2388 0.0190 0.3231
C84_2 C 0.2947(7) 0.0235(5) 0.35258(9)
H54_2 H 0.2453 0.0173 0.3610
N13_2 N 0.6312(3) 0.6580(3) 0.64942(6)
H41_2 H 0.2928 0.9929 0.5041
C66_2 C 0.2691(8) 0.9883(6) 0.54525(10)
H43_2 H 0.2144 0.9730 0.5378
C67_2 C 0.2684(8) 0.9824(6) 0.56793(9)
H44_2 H 0.2129 0.9632 0.5754
C70_2 C 0.3462(7) 0.9538(5) 0.46122(10)
C71_2 C 0.3217(8) 0.8706(5) 0.47321(12)
H45_2 H 0.3316 0.8731 0.4885
C72_2 C 0.2846(9) 0.7894(6) 0.46270(14)
H46_2 H 0.2699 0.7365 0.4708
C73_2 C 0.2673(9) 0.7820(6) 0.43973(15)
H47_2 H 0.2402 0.7248 0.4326
C74_2 C 0.2912(8) 0.8612(6) 0.42780(12)
H48_2 H 0.2814 0.8568 0.4124
C75_2 C 0.3292(7) 0.9473(5) 0.43784(10)
N14_2 N 0.3420(3) 0.9733(4) 0.64942(6)
O7_3 O 0.2453(2) 0.0690(3) 0.94378(5)
O10_3 O 0.0822(3) 0.2490(2) 0.94318(5)
C32_3 C 0.0050(4) 0.1748(3) 0.94277(7)
C33_3 C 0.0017(4) 0.0839(3) 0.94148(8)
C34_3 C 0.0843(4) 0.0804(3) 0.94144(8)
H20_3 H 0.1409 0.1350 0.9414
O8_3 O 0.1667(2) 0.9178(3) 0.94318(5)
C29_3 C 0.1697(3) 0.9950(4) 0.94277(7)
C30_3 C 0.0821(3) 0.9983(4) 0.94148(8)
C25_3 C 0.9196(3) 0.0040(3) 0.94144(8)
H17_3 H 0.8650 0.0060 0.9414
O9_3 O 0.9310(3) 0.1764(2) 0.94378(5)
H25_3 H 0.3668 0.0406 0.8375
C44_3 C 0.3859(6) 0.0643(8) 0.87859(10)
H27_3 H 0.4253 0.1190 0.8712
C45_3 C 0.3807(5) 0.0650(8) 0.90127(9)
H28_3 H 0.4170 0.1205 0.9088
O16_3 O 0.4302(4) 0.0901(6) 0.73103(8)
C49_3 C 0.2156(6) 0.0117(8) 0.80655(12)
H29_3 H 0.2082 0.0018 0.8219
C50_3 C 0.1715(7) 0.0488(9) 0.79604(14)
H30_3 H 0.1333 0.0635 0.8042
C51_3 C 0.1814(7) 0.0661(9) 0.77307(15)
H31_3 H 0.1513 0.0932 0.7660
C52_3 C 0.2367(6) 0.0422(8) 0.76114(12)
H32_3 H 0.2421 0.0520 0.7458
C53_3 C 0.2848(5) 0.0042(7) 0.77118(10)
C57_3 C 0.3661(5) 0.0120(7) 0.73523(10)
C61_3 C 0.4000(4) 0.0414(6) 0.66305(9)
H37_3 H 0.4469 0.0946 0.6565
C62_3 C 0.3955(5) 0.0387(7) 0.68592(9)
H38_3 H 0.4387 0.0881 0.6944
O1_3 O 0.8236(2) 0.7547(2) 0.94378(5)
N1_3 N 0.6642(3) 0.6730(3) 0.91318(7)
C1_3 C 0.6368(5) 0.7232(4) 0.90169(9)
H1_3 H 0.6216 0.7615 0.9097
O2_3 O 0.7510(2) 0.8333(2) 0.94318(5)
C2_3 C 0.6293(5) 0.7222(5) 0.87848(10)
H2_3 H 0.6103 0.7591 0.8713
O3_3 O 0.5560(2) 0.6836(2) 0.94906(6)
N3_2 N 0.6471(4) 0.6604(4) 0.84352(8)
H3_2 H 0.6737 0.6332 0.8375
C3_2 C 0.6508(5) 0.6647(4) 0.86658(9)
O4_2 O 0.4578(3) 0.5392(3) 0.95866(7)
N4_3 N 0.6367(3) 0.6858(4) 0.71955(7)
H4_3 H 0.6309 0.7314 0.7242
C4_2 C 0.6783(6) 0.6141(6) 0.87859(10)
H5_2 H 0.6936 0.5747 0.8712
C5_2 C 0.6842(6) 0.6193(5) 0.90127(9)
H6_2 H 0.7034 0.5830 0.9088
O5_3 O 0.5623(6) 0.7261(6) 0.83462(9)
C6_3 C 0.6082(7) 0.6923(7) 0.82924(11)
O6_2 O 0.6598(5) 0.5698(4) 0.73103(8)
C7_3 C 0.6217(6) 0.6797(6) 0.80467(10)
C8_3 C 0.7128(5) 0.7257(5) 0.79456(10)
C9_3 C 0.7960(5) 0.7844(6) 0.80655(12)
H7_3 H 0.7935 0.7918 0.8219
C10_3 C 0.8772(6) 0.8285(7) 0.79604(14)
H8_3 H 0.9301 0.8667 0.8042
C11_3 C 0.8846(6) 0.8186(7) 0.77307(15)
H9_3 H 0.9418 0.8487 0.7660
C12_3 C 0.8054(6) 0.7633(6) 0.76114(12)
H10_3 H 0.8098 0.7579 0.7458
C13_3 C 0.7193(5) 0.7152(5) 0.77118(10)
C14_2 C 0.6389(5) 0.6579(5) 0.75918(9)
C15_2 C 0.5550(6) 0.6150(6) 0.76922(11)
H11_2 H 0.5024 0.5755 0.7611
C16_2 C 0.5481(6) 0.6312(7) 0.79238(11)
H12_2 H 0.4901 0.6066 0.7989
C17_2 C 0.6458(5) 0.6339(5) 0.73523(10)
C18_3 C 0.6356(4) 0.6731(4) 0.69599(8)
C19_3 C 0.6279(6) 0.7351(5) 0.68273(9)
H13_3 H 0.6247 0.7841 0.6891
C20_3 C 0.6250(6) 0.7248(5) 0.65967(9)
H14_3 H 0.6184 0.7671 0.6510
C21_3 C 0.6413(5) 0.6000(4) 0.66305(9)
H15_3 H 0.6476 0.5531 0.6565
C22_2 C 0.6431(5) 0.6045(5) 0.68592(9)
H16_2 H 0.6493 0.5613 0.6944
C23_3 C 0.8252(3) 0.8303(3) 0.94277(7)
C24_3 C 0.9161(3) 0.9179(3) 0.94148(8)
C26_3 C 0.4243(3) 0.7350(3) 0.95395(8)
H18_3 H 0.4860 0.7814 0.9540
C27_2 C 0.4024(3) 0.6438(3) 0.95392(8)
C28_2 C 0.4781(3) 0.6191(3) 0.95380(8)
C31_3 C 0.9960(3) 0.9157(4) 0.94144(8)
H19_3 H 0.9940 0.8591 0.9414
O11_3 O 0.3164(2) 0.8725(3) 0.94906(6)
O12_3 O 0.4608(3) 0.9187(4) 0.95866(7)
C35_3 C 0.2650(3) 0.6894(4) 0.95395(8)
H21_3 H 0.2186 0.7047 0.9540
C36_3 C 0.3562(3) 0.7587(4) 0.95392(8)
C37_3 C 0.3809(3) 0.8591(4) 0.95380(8)
O13_3 O 0.1275(3) 0.4440(2) 0.94906(6)
O14_3 O 0.0813(4) 0.5422(3) 0.95866(7)
C38_3 C 0.3106(4) 0.5757(3) 0.95395(8)
H22_3 H 0.2953 0.5140 0.9540
C39_3 C 0.2413(4) 0.5976(3) 0.95392(8)
C40_3 C 0.1409(4) 0.5219(3) 0.95380(8)
N5_3 N 0.3270(3) 0.9913(4) 0.91318(7)
C41_3 C 0.2768(4) 0.9137(6) 0.90169(9)
H23_3 H 0.2385 0.8602 0.9097
C42_3 C 0.2778(5) 0.9072(7) 0.87848(10)
H24_3 H 0.2409 0.8513 0.8713
N7_3 N 0.3396(4) 0.9868(6) 0.84352(8)
C43_3 C 0.3353(4) 0.9862(6) 0.86658(9)
N8_3 N 0.3142(4) 0.9510(5) 0.71955(7)
H26_3 H 0.2686 0.8996 0.7242
O15_3 O 0.2739(6) 0.8363(8) 0.83462(9)
C46_3 C 0.3077(7) 0.9160(10) 0.82924(11)
C47_3 C 0.3203(6) 0.9421(8) 0.80467(10)
C48_3 C 0.2743(5) 0.9872(7) 0.79456(10)
C54_3 C 0.3421(5) 0.9811(7) 0.75918(9)
C55_3 C 0.3850(6) 0.9401(8) 0.76922(11)
H33_3 H 0.4245 0.9270 0.7611
C56_3 C 0.3688(7) 0.9170(9) 0.79238(11)
H34_3 H 0.3934 0.8836 0.7989
C58_3 C 0.3269(4) 0.9626(6) 0.69599(8)
C59_3 C 0.2649(5) 0.8929(8) 0.68273(9)
H35_3 H 0.2159 0.8407 0.6891
C60_2 C 0.2752(5) 0.9003(8) 0.65967(9)
H36_2 H 0.2329 0.8514 0.6510
N9_3 N 0.0087(4) 0.3358(3) 0.91318(7)
C63_3 C 0.0863(6) 0.3632(5) 0.90169(9)
H39_3 H 0.1398 0.3784 0.9097
C64_3 C 0.0928(7) 0.3707(5) 0.87848(10)
H40_3 H 0.1487 0.3897 0.8713
N11_3 N 0.0132(6) 0.3529(4) 0.84352(8)
C65_3 C 0.0138(6) 0.3492(5) 0.86658(9)
N12_3 N 0.0490(5) 0.3633(3) 0.71955(7)
H42_3 H 0.1004 0.3691 0.7242
O17_3 O 0.1637(8) 0.4377(6) 0.83462(9)
C68_3 C 0.0840(10) 0.3918(7) 0.82924(11)
C69_3 C 0.0579(8) 0.3783(6) 0.80467(10)
C70_3 C 0.0128(7) 0.2872(5) 0.79456(10)
C76_3 C 0.0189(7) 0.3611(5) 0.75918(9)
C77_3 C 0.0599(8) 0.4450(6) 0.76922(11)
H49_3 H 0.0730 0.4976 0.7611
C78_3 C 0.0830(9) 0.4519(6) 0.79238(11)
H50_3 H 0.1164 0.5099 0.7989
C80_3 C 0.0374(6) 0.3644(4) 0.69599(8)
C81_3 C 0.1071(8) 0.3721(6) 0.68273(9)
H51_3 H 0.1593 0.3753 0.6891
C82_3 C 0.0997(8) 0.3750(6) 0.65967(9)
H52_3 H 0.1486 0.3816 0.6510
H41_3 H 0.9594 0.3263 0.8375
C66_3 C 0.9357(8) 0.3217(6) 0.87859(10)
H43_3 H 0.8810 0.3064 0.8712
C67_3 C 0.9350(8) 0.3158(6) 0.90127(9)
H44_3 H 0.8795 0.2966 0.9088
O18_3 O 0.9099(6) 0.3402(5) 0.73103(8)
C71_3 C 0.9883(8) 0.2040(5) 0.80655(12)
H45_3 H 0.9982 0.2065 0.8219
C72_3 C 0.9512(9) 0.1228(6) 0.79604(14)
H46_3 H 0.9365 0.0699 0.8042
C73_3 C 0.9339(9) 0.1154(6) 0.77307(15)
H47_3 H 0.9068 0.0582 0.7660
C74_3 C 0.9578(8) 0.1946(6) 0.76114(12)
H48_3 H 0.9480 0.1902 0.7458
C75_3 C 0.9958(7) 0.2807(5) 0.77118(10)
C79_3 C 0.9880(7) 0.3542(5) 0.73523(10)
C83_3 C 0.9586(6) 0.3587(5) 0.66305(9)
H53_3 H 0.9054 0.3524 0.6565
C84_3 C 0.9613(7) 0.3569(5) 0.68592(9)
H54_3 H 0.9119 0.3507 0.6944
N3_3 N 0.3138(4) 0.9937(4) 0.17685(8)
H3_3 H 0.3404 0.9665 0.1708
C3_3 C 0.3175(5) 0.9980(4) 0.19991(9)
O4_3 O 0.1245(3) 0.8725(3) 0.29199(7)
C4_3 C 0.3450(6) 0.9474(6) 0.21192(10)
H5_3 H 0.3603 0.9080 0.2045
C5_3 C 0.3509(6) 0.9526(5) 0.23460(9)
H6_3 H 0.3701 0.9163 0.2421
O6_3 O 0.3265(5) 0.9031(4) 0.06436(8)
C14_3 C 0.3056(5) 0.9912(5) 0.09251(9)
C15_3 C 0.2217(6) 0.9483(6) 0.10255(11)
H11_3 H 0.1691 0.9088 0.0944
C16_3 C 0.2148(6) 0.9645(7) 0.12571(11)
H12_3 H 0.1568 0.9399 0.1322
C17_3 C 0.3125(5) 0.9672(5) 0.06856(10)
C22_3 C 0.3098(5) 0.9378(5) 0.01925(9)
H16_3 H 0.3160 0.8946 0.0277
C27_3 C 0.0691(3) 0.9771(3) 0.28725(8)
C28_3 C 0.1448(3) 0.9524(3) 0.28713(8)
C60_3 C 0.9419(5) 0.2336(8) 0.99300(9)
H36_3 H 0.8996 0.1847 0.9843
N10_2 N 0.3066(4) 0.2979(3) 0.01725(6)
C82_4 C 0.2336(8) 0.2917(6) 0.00700(9)
H52_4 H 0.1847 0.2851 0.0157
C83_4 C 0.3747(6) 0.3080(5) 0.00362(9)
H53_4 H 0.4279 0.3143 0.0102
Ni6_2 Ni 0.32350(4) 0.31217(4) 0.052191(9)
O13_4 O 0.2058(3) 0.2227(2) 0.71761(6)
O14_4 O 0.2520(4) 0.1245(3) 0.70801(7)
C38_4 C 0.0227(4) 0.0910(3) 0.71272(8)
H22_4 H 0.0380 0.1527 0.7127
C39_4 C 0.0920(4) 0.0691(3) 0.71275(8)
C40_4 C 0.1924(4) 0.1448(3) 0.71287(8)
Ni3 Ni 0.32201(6) 0.34317(4) 0.718858(9)
N9_4 N 0.3246(4) 0.3309(3) 0.75349(7)
C63_4 C 0.2470(6) 0.3035(5) 0.76498(9)
H39_4 H 0.1935 0.2883 0.7570
C64_4 C 0.2405(7) 0.2960(5) 0.78819(10)
H40_4 H 0.1846 0.2770 0.7954
N11_4 N 0.3201(6) 0.3138(4) 0.82315(8)
H41_4 H 0.3739 0.3404 0.8292
C65_4 C 0.3195(6) 0.3175(5) 0.80009(9)
N12_4 N 0.2843(5) 0.3034(3) 0.94712(7)
H42_4 H 0.2329 0.2976 0.9425
C66_4 C 0.3976(8) 0.3450(6) 0.78808(10)
H43_4 H 0.4523 0.3603 0.7955
C67_4 C 0.3983(8) 0.3509(6) 0.76540(9)
H44_4 H 0.4538 0.3701 0.7579
O17_4 O 0.1696(8) 0.2290(6) 0.83205(9)
C68_4 C 0.2493(10) 0.2749(7) 0.83743(11)
O18_4 O 0.4234(6) 0.3265(5) 0.93564(8)
C69_4 C 0.2754(8) 0.2884(6) 0.86200(10)
C70_4 C 0.3205(7) 0.3795(5) 0.87211(10)
C71_4 C 0.3450(8) 0.4627(5) 0.86012(12)
H45_4 H 0.3351 0.4602 0.8448
C72_4 C 0.3821(9) 0.5439(6) 0.87063(14)
H46_4 H 0.3968 0.5968 0.8625
C73_4 C 0.3994(9) 0.5513(6) 0.89360(15)
H47_4 H 0.4265 0.6085 0.9007
C74_4 C 0.3755(8) 0.4721(6) 0.90553(12)
H48_4 H 0.3853 0.4765 0.9209
C75_4 C 0.3375(7) 0.3860(5) 0.89549(10)
C76_4 C 0.3144(7) 0.3056(5) 0.90749(9)
C77_4 C 0.2734(8) 0.2217(6) 0.89745(11)
H49_4 H 0.2603 0.1691 0.9056
C78_4 C 0.2503(9) 0.2148(6) 0.87429(11)
H50_4 H 0.2169 0.1568 0.8678
C79_4 C 0.3453(7) 0.3125(5) 0.93144(10)
C80_4 C 0.2959(6) 0.3023(4) 0.97068(8)
C81_4 C 0.2262(8) 0.2946(6) 0.98394(9)
H51_4 H 0.1740 0.2914 0.9776
C84_4 C 0.3720(7) 0.3098(5) 0.98075(9)
H54_4 H 0.4214 0.3160 0.9723
O20 O 0.4023(3) 0.4903(2) 0.72289(5)
O22 O 0.2511(3) 0.4177(2) 0.72349(5)
N14_3 N 0.3246(3) 0.3601(4) 0.68392(6)
O11_4 O 0.0169(2) 0.7942(3) 0.71761(6)
C35_4 C 0.0683(3) 0.9773(4) 0.71272(8)
H21_4 H 0.1147 0.9620 0.7127
Ni2 Ni 0.02116(4) 0.67799(6) 0.718858(9)
N5_4 N 0.0063(3) 0.6754(4) 0.75349(7)
C41_4 C 0.0565(4) 0.7530(6) 0.76498(9)
H23_4 H 0.0948 0.8065 0.7570
C42_4 C 0.0555(5) 0.7595(7) 0.78819(10)
H24_4 H 0.0924 0.8154 0.7954
N8_4 N 0.0191(4) 0.7157(5) 0.94712(7)
H26_4 H 0.0647 0.7671 0.9425
O15_4 O 0.0594(6) 0.8304(8) 0.83205(9)
C46_4 C 0.0256(7) 0.7507(10) 0.83743(11)
C47_4 C 0.0130(6) 0.7246(8) 0.86200(10)
C48_4 C 0.0590(5) 0.6795(7) 0.87211(10)
C49_4 C 0.1177(6) 0.6550(8) 0.86012(12)
H29_4 H 0.1251 0.6649 0.8448
C50_4 C 0.1618(7) 0.6179(9) 0.87063(14)
H30_4 H 0.2000 0.6032 0.8625
C51_4 C 0.1519(7) 0.6006(9) 0.89360(15)
H31_4 H 0.1820 0.5735 0.9007
C52_4 C 0.0966(6) 0.6245(8) 0.90553(12)
H32_4 H 0.0912 0.6147 0.9209
C53_4 C 0.0485(5) 0.6625(7) 0.89549(10)
C58_4 C 0.0064(4) 0.7041(6) 0.97068(8)
C59_4 C 0.0684(5) 0.7738(8) 0.98394(9)
H35_4 H 0.1174 0.8260 0.9776
O19 O 0.0880(2) 0.5977(3) 0.72289(5)
O21 O 0.1666(2) 0.7489(3) 0.72349(5)
N13_3 N 0.0354(3) 0.6754(3) 0.68392(6)
N2_2 N 0.7021(3) 0.0087(3) 0.01725(6)
C21_4 C 0.6920(5) 0.0667(4) 0.00362(9)
H15_4 H 0.6857 0.1136 0.0102
Ni7_2 Ni 0.68783(4) 0.01132(6) 0.052191(9)
C20_4 C 0.7083(6) 0.9419(5) 0.00700(9)
H14_4 H 0.7149 0.8996 0.0157
N6_2 N 0.9913(3) 0.6934(4) 0.01725(6)
C61_4 C 0.9333(4) 0.6253(6) 0.00362(9)
H37_4 H 0.8864 0.5721 0.0102
Ni8_2 Ni 0.98868(6) 0.67650(4) 0.052191(9)
Ni1_3 Ni 0.65683(4) 0.97884(4) 0.718858(9)
O1_4 O 0.5097(2) 0.9120(2) 0.72289(5)
N1_4 N 0.6691(3) 0.9937(3) 0.75349(7)
C1_4 C 0.6965(5) 0.9435(4) 0.76498(9)
H1_4 H 0.7117 0.9052 0.7570
O2_4 O 0.5823(2) 0.8334(2) 0.72349(5)
C2_4 C 0.7040(5) 0.9445(5) 0.78819(10)
H2_4 H 0.7230 0.9076 0.7954
O3_4 O 0.7773(2) 0.9831(2) 0.71761(6)
N4_4 N 0.6966(3) 0.9809(4) 0.94712(7)
H4_4 H 0.7024 0.9353 0.9425
O5_4 O 0.7710(6) 0.9406(6) 0.83205(9)
C6_4 C 0.7251(7) 0.9744(7) 0.83743(11)
C7_4 C 0.7116(6) 0.9870(6) 0.86200(10)
C8_4 C 0.6205(5) 0.9410(5) 0.87211(10)
C9_4 C 0.5373(5) 0.8823(6) 0.86012(12)
H7_4 H 0.5398 0.8749 0.8448
C10_4 C 0.4561(6) 0.8382(7) 0.87063(14)
H8_4 H 0.4032 0.8000 0.8625
C11_4 C 0.4487(6) 0.8481(7) 0.89360(15)
H9_4 H 0.3915 0.8180 0.9007
C12_4 C 0.5279(6) 0.9034(6) 0.90553(12)
H10_4 H 0.5235 0.9088 0.9209
C13_4 C 0.6140(5) 0.9515(5) 0.89549(10)
C18_4 C 0.6977(4) 0.9936(4) 0.97068(8)
C19_4 C 0.7054(6) 0.9316(5) 0.98394(9)
H13_4 H 0.7086 0.8826 0.9776
C23_4 C 0.5081(3) 0.8364(3) 0.72390(7)
C24_4 C 0.4172(3) 0.7488(3) 0.72519(8)
C25_4 C 0.4137(3) 0.6627(3) 0.72523(8)
H17_4 H 0.4683 0.6607 0.7253
C26_4 C 0.9090(3) 0.9317(3) 0.71272(8)
H18_4 H 0.8473 0.8853 0.7127
C29_4 C 0.1636(3) 0.6717(4) 0.72390(7)
C30_4 C 0.2512(3) 0.6684(4) 0.72519(8)
C31_4 C 0.3373(3) 0.7510(4) 0.72523(8)
H19_4 H 0.3393 0.8076 0.7253
C32_4 C 0.3283(4) 0.4919(3) 0.72390(7)
C33_4 C 0.3316(4) 0.5828(3) 0.72519(8)
C34_4 C 0.2490(4) 0.5863(3) 0.72523(8)
H20_4 H 0.1924 0.5317 0.7253
O12_4 O 0.8725(3) 0.7480(4) 0.70801(7)
C36_4 C 0.9771(3) 0.9080(4) 0.71275(8)
C37_4 C 0.9524(3) 0.8076(4) 0.71287(8)
N7_4 N 0.9937(4) 0.6799(6) 0.82315(8)
H25_4 H 0.9665 0.6261 0.8292
C43_4 C 0.9980(4) 0.6805(6) 0.80009(9)
C44_4 C 0.9474(6) 0.6024(8) 0.78808(10)
H27_4 H 0.9080 0.5477 0.7955
C45_4 C 0.9526(5) 0.6017(8) 0.76540(9)
H28_4 H 0.9163 0.5462 0.7579
O16_4 O 0.9031(4) 0.5766(6) 0.93564(8)
C54_4 C 0.9912(5) 0.6856(7) 0.90749(9)
C55_4 C 0.9483(6) 0.7266(8) 0.89745(11)
H33_4 H 0.9088 0.7397 0.9056
C56_4 C 0.9645(7) 0.7497(9) 0.87429(11)
H34_4 H 0.9399 0.7831 0.8678
C57_4 C 0.9672(5) 0.6547(7) 0.93144(10)
C62_4 C 0.9378(5) 0.6280(7) 0.98075(9)
H38_4 H 0.8946 0.5786 0.9723
N15_3 N 0.6399(4) 0.9646(3) 0.68392(6)
Ni3_2 Ni 0.65534(6) 0.00984(4) 0.385525(9)
H41_5 H 0.7072 0.0071 0.4959
C66_5 C 0.7309(8) 0.0117(6) 0.45475(10)
H43_5 H 0.7856 0.0270 0.4622
C67_5 C 0.7316(8) 0.0176(6) 0.43207(9)
H44_5 H 0.7871 0.0368 0.4246
C70_5 C 0.6538(7) 0.0462(5) 0.53878(10)
C71_5 C 0.6783(8) 0.1294(5) 0.52679(12)
H45_5 H 0.6684 0.1269 0.5115
C72_5 C 0.7154(9) 0.2106(6) 0.53730(14)
H46_5 H 0.7301 0.2635 0.5292
C73_5 C 0.7327(9) 0.2180(6) 0.56027(15)
H47_5 H 0.7598 0.2752 0.5674
C74_5 C 0.7088(8) 0.1388(6) 0.57220(12)
H48_5 H 0.7186 0.1432 0.5876
C75_5 C 0.6708(7) 0.0527(5) 0.56216(10)
O20_2 O 0.7356(3) 0.1570(2) 0.38956(5)
O22_2 O 0.5844(3) 0.0844(2) 0.39016(5)
N14_4 N 0.6580(3) 0.0267(4) 0.35058(6)
N1_5 N 0.0024(3) 0.6604(3) 0.42016(7)
C1_5 C 0.0298(5) 0.6102(4) 0.43165(9)
H1_5 H 0.0450 0.5719 0.4237
C2_5 C 0.0373(5) 0.6112(5) 0.45486(10)
H2_5 H 0.0563 0.5743 0.4621
O3_5 O 0.1106(2) 0.6498(2) 0.38428(6)
N3_4 N 0.0195(4) 0.6730(4) 0.48982(8)
C3_4 C 0.0158(5) 0.6687(4) 0.46676(9)
O4_4 O 0.2088(3) 0.7942(3) 0.37468(7)
N4_5 N 0.0299(3) 0.6476(4) 0.61379(7)
H4_5 H 0.0357 0.6020 0.6092
O5_5 O 0.1043(6) 0.6073(6) 0.49872(9)
C6_5 C 0.0584(7) 0.6411(7) 0.50410(11)
O6_4 O 0.0068(5) 0.7636(4) 0.60231(8)
C7_5 C 0.0449(6) 0.6537(6) 0.52867(10)
C14_4 C 0.0277(5) 0.6755(5) 0.57416(9)
C15_4 C 0.1116(6) 0.7184(6) 0.56412(11)
H11_4 H 0.1642 0.7579 0.5723
C16_4 C 0.1185(6) 0.7022(7) 0.54096(11)
H12_4 H 0.1765 0.7268 0.5345
C17_4 C 0.0208(5) 0.6995(5) 0.59811(10)
C18_5 C 0.0310(4) 0.6603(4) 0.63735(8)
C19_5 C 0.0387(6) 0.5983(5) 0.65061(9)
H13_5 H 0.0419 0.5493 0.6443
C20_5 C 0.0416(6) 0.6086(5) 0.67367(9)
H14_5 H 0.0482 0.5663 0.6824
C21_5 C 0.0253(5) 0.7334(4) 0.67029(9)
H15_5 H 0.0190 0.7803 0.6769
C22_4 C 0.0235(5) 0.7289(5) 0.64742(9)
H16_4 H 0.0173 0.7721 0.6390
C26_5 C 0.2423(3) 0.5984(3) 0.37939(8)
H18_5 H 0.1806 0.5520 0.3794
C27_4 C 0.2642(3) 0.6896(3) 0.37942(8)
C28_4 C 0.1885(3) 0.7143(3) 0.37954(8)
O11_5 O 0.3502(2) 0.4609(3) 0.38428(6)
O12_5 O 0.2058(3) 0.4147(4) 0.37468(7)
C35_5 C 0.4016(3) 0.6440(4) 0.37939(8)
H21_5 H 0.4480 0.6287 0.3794
C36_5 C 0.3104(3) 0.5747(4) 0.37942(8)
C37_5 C 0.2857(3) 0.4743(4) 0.37954(8)
O13_5 O 0.5391(3) 0.8894(2) 0.38428(6)
O14_5 O 0.5853(4) 0.7912(3) 0.37468(7)
C38_5 C 0.3560(4) 0.7577(3) 0.37939(8)
H22_5 H 0.3713 0.8194 0.3794
C39_5 C 0.4253(4) 0.7358(3) 0.37942(8)
C40_5 C 0.5257(4) 0.8115(3) 0.37954(8)
Ni2_2 Ni 0.35449(4) 0.34466(6) 0.385525(9)
N5_5 N 0.3396(3) 0.3421(4) 0.42016(7)
C41_5 C 0.3898(4) 0.4197(6) 0.43165(9)
H23_5 H 0.4281 0.4732 0.4237
C42_5 C 0.3888(5) 0.4262(7) 0.45486(10)
H24_5 H 0.4257 0.4821 0.4621
N7_5 N 0.3270(4) 0.3466(6) 0.48982(8)
H25_5 H 0.2998 0.2928 0.4959
C43_5 C 0.3313(4) 0.3472(6) 0.46676(9)
N8_5 N 0.3524(4) 0.3824(5) 0.61379(7)
H26_5 H 0.3980 0.4338 0.6092
C44_5 C 0.2807(6) 0.2691(8) 0.45475(10)
H27_5 H 0.2413 0.2144 0.4622
C45_5 C 0.2859(5) 0.2684(8) 0.43207(9)
H28_5 H 0.2496 0.2129 0.4246
O15_5 O 0.3927(6) 0.4971(8) 0.49872(9)
C46_5 C 0.3589(7) 0.4174(10) 0.50410(11)
O16_5 O 0.2364(4) 0.2433(6) 0.60231(8)
C47_5 C 0.3463(6) 0.3913(8) 0.52867(10)
C48_5 C 0.3923(5) 0.3462(7) 0.53878(10)
C49_5 C 0.4510(6) 0.3217(8) 0.52679(12)
H29_5 H 0.4584 0.3316 0.5115
C50_5 C 0.4951(7) 0.2846(9) 0.53730(14)
H30_5 H 0.5333 0.2699 0.5292
C51_5 C 0.4852(7) 0.2673(9) 0.56027(15)
H31_5 H 0.5153 0.2402 0.5674
C52_5 C 0.4299(6) 0.2912(8) 0.57220(12)
H32_5 H 0.4245 0.2814 0.5876
C53_5 C 0.3818(5) 0.3292(7) 0.56216(10)
C54_5 C 0.3245(5) 0.3523(7) 0.57416(9)
C55_5 C 0.2816(6) 0.3933(8) 0.56412(11)
H33_5 H 0.2421 0.4064 0.5723
C56_5 C 0.2978(7) 0.4164(9) 0.54096(11)
H34_5 H 0.2732 0.4498 0.5345
C57_5 C 0.3005(5) 0.3214(7) 0.59811(10)
C58_5 C 0.3397(4) 0.3708(6) 0.63735(8)
C59_5 C 0.4017(5) 0.4405(8) 0.65061(9)
H35_5 H 0.4507 0.4927 0.6443
C60_4 C 0.3914(5) 0.4331(8) 0.67367(9)
H36_4 H 0.4337 0.4820 0.6824
C61_5 C 0.2666(4) 0.2920(6) 0.67029(9)
H37_5 H 0.2197 0.2388 0.6769
C62_5 C 0.2711(5) 0.2947(7) 0.64742(9)
H38_5 H 0.2279 0.2453 0.6390
N9_5 N 0.6579(4) 0.9976(3) 0.42016(7)
C63_5 C 0.5803(6) 0.9702(5) 0.43165(9)
H39_5 H 0.5268 0.9550 0.4237
C64_5 C 0.5738(7) 0.9627(5) 0.45486(10)
H40_5 H 0.5179 0.9437 0.4621
N11_5 N 0.6534(6) 0.9805(4) 0.48982(8)
C65_5 C 0.6528(6) 0.9842(5) 0.46676(9)
N12_5 N 0.6176(5) 0.9701(3) 0.61379(7)
H42_5 H 0.5662 0.9643 0.6092
O17_5 O 0.5029(8) 0.8957(6) 0.49872(9)
C68_5 C 0.5826(10) 0.9416(7) 0.50410(11)
O18_5 O 0.7567(6) 0.9932(5) 0.60231(8)
C69_5 C 0.6087(8) 0.9551(6) 0.52867(10)
C76_5 C 0.6477(7) 0.9723(5) 0.57416(9)
C77_5 C 0.6067(8) 0.8884(6) 0.56412(11)
H49_5 H 0.5936 0.8358 0.5723
C78_5 C 0.5836(9) 0.8815(6) 0.54096(11)
H50_5 H 0.5502 0.8235 0.5345
C79_5 C 0.6786(7) 0.9792(5) 0.59811(10)
C80_5 C 0.6292(6) 0.9690(4) 0.63735(8)
C81_5 C 0.5595(8) 0.9613(6) 0.65061(9)
H51_5 H 0.5073 0.9581 0.6443
C82_5 C 0.5669(8) 0.9584(6) 0.67367(9)
H52_5 H 0.5180 0.9518 0.6824
C83_5 C 0.7080(6) 0.9747(5) 0.67029(9)
H53_5 H 0.7612 0.9810 0.6769
C84_5 C 0.7053(7) 0.9765(5) 0.64742(9)
H54_5 H 0.7547 0.9827 0.6390
O19_2 O 0.4213(2) 0.2644(3) 0.38956(5)
O21_2 O 0.4999(2) 0.4156(3) 0.39016(5)
N13_4 N 0.3688(3) 0.3420(3) 0.35058(6)
Ni1_4 Ni 0.99016(4) 0.64551(4) 0.385525(9)
O1_5 O 0.8430(2) 0.5787(2) 0.38956(5)
O2_5 O 0.9156(2) 0.5001(2) 0.39016(5)
H3_4 H 0.9929 0.7002 0.4959
C4_4 C 0.9883(6) 0.7193(6) 0.45475(10)
H5_4 H 0.9730 0.7587 0.4622
C5_4 C 0.9824(6) 0.7141(5) 0.43207(9)
H6_4 H 0.9632 0.7504 0.4246
C8_5 C 0.9538(5) 0.6077(5) 0.53878(10)
C9_5 C 0.8706(5) 0.5490(6) 0.52679(12)
H7_5 H 0.8731 0.5416 0.5115
C10_5 C 0.7894(6) 0.5049(7) 0.53730(14)
H8_5 H 0.7365 0.4667 0.5292
C11_5 C 0.7820(6) 0.5148(7) 0.56027(15)
H9_5 H 0.7248 0.4847 0.5674
C12_5 C 0.8612(6) 0.5701(6) 0.57220(12)
H10_5 H 0.8568 0.5755 0.5876
C13_5 C 0.9473(5) 0.6182(5) 0.56216(10)
C23_5 C 0.8414(3) 0.5031(3) 0.39057(7)
C24_5 C 0.7505(3) 0.4155(3) 0.39186(8)
C25_5 C 0.7470(3) 0.3294(3) 0.39190(8)
H17_5 H 0.8016 0.3274 0.3920
C29_5 C 0.4969(3) 0.3384(4) 0.39057(7)
C30_5 C 0.5845(3) 0.3351(4) 0.39186(8)
C31_5 C 0.6706(3) 0.4177(4) 0.39190(8)
H19_5 H 0.6726 0.4743 0.3920
C32_5 C 0.6616(4) 0.1586(3) 0.39057(7)
C33_5 C 0.6649(4) 0.2495(3) 0.39186(8)
C34_5 C 0.5823(4) 0.2530(3) 0.39190(8)
H20_5 H 0.5257 0.1984 0.3920
N15_4 N 0.9733(4) 0.6312(3) 0.35058(6)
H41_6 H 0.0406 0.6737 0.1625
C66_6 C 0.0643(8) 0.6783(6) 0.12141(10)
H43_6 H 0.1190 0.6936 0.1288
C67_6 C 0.0650(8) 0.6842(6) 0.09873(9)
H44_6 H 0.1205 0.7034 0.0912
O18_6 O 0.0901(6) 0.6598(5) 0.26897(8)
C71_6 C 0.0117(8) 0.7960(5) 0.19345(12)
H45_6 H 0.0018 0.7935 0.1781
C72_6 C 0.0488(9) 0.8772(6) 0.20396(14)
H46_6 H 0.0635 0.9301 0.1958
C73_6 C 0.0661(9) 0.8846(6) 0.22693(15)
H47_6 H 0.0932 0.9418 0.2340
C74_6 C 0.0422(8) 0.8054(6) 0.23886(12)
H48_6 H 0.0520 0.8098 0.2542
C75_6 C 0.0042(7) 0.7193(5) 0.22882(10)
C79_6 C 0.0120(7) 0.6458(5) 0.26477(10)
C83_6 C 0.0414(6) 0.6413(5) 0.33695(9)
H53_6 H 0.0946 0.6476 0.3435
C84_6 C 0.0387(7) 0.6431(5) 0.31408(9)
H54_6 H 0.0881 0.6493 0.3056
O20_3 O 0.0690(3) 0.8236(2) 0.05622(5)
O1_6 O 0.1764(2) 0.2453(2) 0.05622(5)
N1_6 N 0.3358(3) 0.3270(3) 0.08682(7)
C1_6 C 0.3632(5) 0.2768(4) 0.09831(9)
H1_6 H 0.3784 0.2385 0.0903
O2_6 O 0.2490(2) 0.1667(2) 0.05682(5)
C2_6 C 0.3707(5) 0.2778(5) 0.12152(10)
H2_6 H 0.3897 0.2409 0.1287
O3_6 O 0.4440(2) 0.3164(2) 0.05094(6)
N3_5 N 0.3529(4) 0.3396(4) 0.15648(8)
H3_5 H 0.3263 0.3668 0.1625
C3_5 C 0.3492(5) 0.3353(4) 0.13342(9)
O4_5 O 0.5422(3) 0.4608(3) 0.04134(7)
N4_6 N 0.3633(3) 0.3142(4) 0.28045(7)
H4_6 H 0.3691 0.2686 0.2758
C4_5 C 0.3217(6) 0.3859(6) 0.12141(10)
H5_5 H 0.3064 0.4253 0.1288
C5_5 C 0.3158(6) 0.3807(5) 0.09873(9)
H6_5 H 0.2966 0.4170 0.0912
O5_6 O 0.4377(6) 0.2739(6) 0.16538(9)
C6_6 C 0.3918(7) 0.3077(7) 0.17076(11)
O6_5 O 0.3402(5) 0.4302(4) 0.26897(8)
C7_6 C 0.3783(6) 0.3203(6) 0.19533(10)
C8_6 C 0.2872(5) 0.2743(5) 0.20544(10)
C9_6 C 0.2040(5) 0.2156(6) 0.19345(12)
H7_6 H 0.2065 0.2082 0.1781
C10_6 C 0.1228(6) 0.1715(7) 0.20396(14)
H8_6 H 0.0699 0.1333 0.1958
C11_6 C 0.1154(6) 0.1814(7) 0.22693(15)
H9_6 H 0.0582 0.1513 0.2340
C12_6 C 0.1946(6) 0.2367(6) 0.23886(12)
H10_6 H 0.1902 0.2421 0.2542
C13_6 C 0.2807(5) 0.2848(5) 0.22882(10)
C14_5 C 0.3611(5) 0.3421(5) 0.24082(9)
C15_5 C 0.4450(6) 0.3850(6) 0.23078(11)
H11_5 H 0.4976 0.4245 0.2389
C16_5 C 0.4519(6) 0.3688(7) 0.20762(11)
H12_5 H 0.5099 0.3934 0.2011
C17_5 C 0.3542(5) 0.3661(5) 0.26477(10)
C18_6 C 0.3644(4) 0.3269(4) 0.30401(8)
C19_6 C 0.3721(6) 0.2649(5) 0.31727(9)
H13_6 H 0.3753 0.2159 0.3109
C20_6 C 0.3750(6) 0.2752(5) 0.34033(9)
H14_6 H 0.3816 0.2329 0.3490
C21_6 C 0.3587(5) 0.4000(4) 0.33695(9)
H15_6 H 0.3524 0.4469 0.3435
C22_5 C 0.3569(5) 0.3955(5) 0.31408(9)
H16_5 H 0.3507 0.4387 0.3056
C23_6 C 0.1748(3) 0.1697(3) 0.05723(7)
C24_6 C 0.0839(3) 0.0821(3) 0.05852(8)
C26_6 C 0.5757(3) 0.2650(3) 0.04605(8)
H18_6 H 0.5140 0.2186 0.0460
C27_5 C 0.5976(3) 0.3562(3) 0.04608(8)
C28_5 C 0.5219(3) 0.3809(3) 0.04620(8)
C31_6 C 0.0040(3) 0.0843(4) 0.05856(8)
H19_6 H 0.0060 0.1409 0.0586
O11_6 O 0.6836(2) 0.1275(3) 0.05094(6)
O12_6 O 0.5392(3) 0.0813(4) 0.04134(7)
C35_6 C 0.7350(3) 0.3106(4) 0.04605(8)
H21_6 H 0.7814 0.2953 0.0460
C36_6 C 0.6438(3) 0.2413(4) 0.04608(8)
C37_6 C 0.6191(3) 0.1409(4) 0.04620(8)
O13_6 O 0.8725(3) 0.5560(2) 0.05094(6)
O14_6 O 0.9187(4) 0.4578(3) 0.04134(7)
C38_6 C 0.6894(4) 0.4243(3) 0.04605(8)
H22_6 H 0.7047 0.4860 0.0460
C39_6 C 0.7587(4) 0.4024(3) 0.04608(8)
C40_6 C 0.8591(4) 0.4781(3) 0.04620(8)
N5_6 N 0.6730(3) 0.0087(4) 0.08682(7)
C41_6 C 0.7232(4) 0.0863(6) 0.09831(9)
H23_6 H 0.7615 0.1398 0.0903
C42_6 C 0.7222(5) 0.0928(7) 0.12152(10)
H24_6 H 0.7591 0.1487 0.1287
N7_6 N 0.6604(4) 0.0132(6) 0.15648(8)
C43_6 C 0.6647(4) 0.0138(6) 0.13342(9)
N8_6 N 0.6858(4) 0.0490(5) 0.28045(7)
H26_6 H 0.7314 0.1004 0.2758
O15_6 O 0.7261(6) 0.1637(8) 0.16538(9)
C46_6 C 0.6923(7) 0.0840(10) 0.17076(11)
C47_6 C 0.6797(6) 0.0579(8) 0.19533(10)
C48_6 C 0.7257(5) 0.0128(7) 0.20544(10)
C54_6 C 0.6579(5) 0.0189(7) 0.24082(9)
C55_6 C 0.6150(6) 0.0599(8) 0.23078(11)
H33_6 H 0.5755 0.0730 0.2389
C56_6 C 0.6312(7) 0.0830(9) 0.20762(11)
H34_6 H 0.6066 0.1164 0.2011
C58_6 C 0.6731(4) 0.0374(6) 0.30401(8)
C59_6 C 0.7351(5) 0.1071(8) 0.31727(9)
H35_6 H 0.7841 0.1593 0.3109
C60_5 C 0.7248(5) 0.0997(8) 0.34033(9)
H36_5 H 0.7671 0.1486 0.3490
N9_6 N 0.9913(4) 0.6642(3) 0.08682(7)
C63_6 C 0.9137(6) 0.6368(5) 0.09831(9)
H39_6 H 0.8602 0.6216 0.0903
C64_6 C 0.9072(7) 0.6293(5) 0.12152(10)
H40_6 H 0.8513 0.6103 0.1287
N11_6 N 0.9868(6) 0.6471(4) 0.15648(8)
C65_6 C 0.9862(6) 0.6508(5) 0.13342(9)
N12_6 N 0.9510(5) 0.6367(3) 0.28045(7)
H42_6 H 0.8996 0.6309 0.2758
O17_6 O 0.8363(8) 0.5623(6) 0.16538(9)
C68_6 C 0.9160(10) 0.6082(7) 0.17076(11)
C69_6 C 0.9421(8) 0.6217(6) 0.19533(10)
C70_6 C 0.9872(7) 0.7128(5) 0.20544(10)
C76_6 C 0.9811(7) 0.6389(5) 0.24082(9)
C77_6 C 0.9401(8) 0.5550(6) 0.23078(11)
H49_6 H 0.9270 0.5024 0.2389
C78_6 C 0.9170(9) 0.5481(6) 0.20762(11)
H50_6 H 0.8836 0.4901 0.2011
C80_6 C 0.9626(6) 0.6356(4) 0.30401(8)
C81_6 C 0.8929(8) 0.6279(6) 0.31727(9)
H51_6 H 0.8407 0.6247 0.3109
C82_6 C 0.9003(8) 0.6250(6) 0.34033(9)
H52_6 H 0.8514 0.6184 0.3490
O21_3 O 0.8333(2) 0.0822(3) 0.05682(5)
O22_3 O 0.9178(3) 0.7510(2) 0.05682(5)
C25_6 C 0.0804(3) 0.9960(3) 0.05856(8)
H17_6 H 0.1350 0.9940 0.0586
H25_6 H 0.6332 0.9594 0.1625
C44_6 C 0.6141(6) 0.9357(8) 0.12141(10)
H27_6 H 0.5747 0.8810 0.1288
C45_6 C 0.6193(5) 0.9350(8) 0.09873(9)
H28_6 H 0.5830 0.8795 0.0912
O16_6 O 0.5698(4) 0.9099(6) 0.26897(8)
C49_6 C 0.7844(6) 0.9883(8) 0.19345(12)
H29_6 H 0.7918 0.9982 0.1781
C50_6 C 0.8285(7) 0.9512(9) 0.20396(14)
H30_6 H 0.8667 0.9365 0.1958
C51_6 C 0.8186(7) 0.9339(9) 0.22693(15)
H31_6 H 0.8487 0.9068 0.2340
C52_6 C 0.7633(6) 0.9578(8) 0.23886(12)
H32_6 H 0.7579 0.9480 0.2542
C53_6 C 0.7152(5) 0.9958(7) 0.22882(10)
C57_6 C 0.6339(5) 0.9880(7) 0.26477(10)
C61_6 C 0.6000(4) 0.9586(6) 0.33695(9)
H37_6 H 0.5531 0.9054 0.3435
C62_6 C 0.6045(5) 0.9613(7) 0.31408(9)
H38_6 H 0.5613 0.9119 0.3056
O19_3 O 0.7547(2) 0.9310(3) 0.05622(5)
C29_6 C 0.8303(3) 0.0050(4) 0.05723(7)
C30_6 C 0.9179(3) 0.0017(4) 0.05852(8)
C32_6 C 0.9950(4) 0.8252(3) 0.05723(7)
C33_6 C 0.9983(4) 0.9161(3) 0.05852(8)
C34_6 C 0.9157(4) 0.9196(3) 0.05856(8)
H20_6 H 0.8591 0.8650 0.0586
C60_6 C 0.0581(5) 0.7664(8) 0.00700(9)
H36_6 H 0.1004 0.8153 0.0157
N3_6 N 0.6862(4) 0.0063(4) 0.82315(8)
H3_6 H 0.6596 0.0335 0.8292
C3_6 C 0.6825(5) 0.0020(4) 0.80009(9)
O4_6 O 0.8755(3) 0.1275(3) 0.70801(7)
C4_6 C 0.6550(6) 0.0526(6) 0.78808(10)
H5_6 H 0.6397 0.0920 0.7955
C5_6 C 0.6491(6) 0.0474(5) 0.76540(9)
H6_6 H 0.6299 0.0837 0.7579
O6_6 O 0.6735(5) 0.0969(4) 0.93564(8)
C14_6 C 0.6944(5) 0.0088(5) 0.90749(9)
C15_6 C 0.7783(6) 0.0517(6) 0.89745(11)
H11_6 H 0.8309 0.0912 0.9056
C16_6 C 0.7852(6) 0.0355(7) 0.87429(11)
H12_6 H 0.8432 0.0601 0.8678
C17_6 C 0.6875(5) 0.0328(5) 0.93144(10)
C22_6 C 0.6902(5) 0.0622(5) 0.98075(9)
H16_6 H 0.6840 0.1054 0.9723
C27_6 C 0.9309(3) 0.0229(3) 0.71275(8)
C28_6 C 0.8552(3) 0.0476(3) 0.71287(8)
loop_
_geom_bond_atom_site_label_1
_geom_bond_atom_site_label_2
_geom_bond_site_symmetry_1
_geom_bond_site_symmetry_2
Ni1 O1 1_555 1_555
O1 C23 1_555 1_555
N1 Ni1 1_555 1_555
C1 N1 1_555 1_555
H1 C1 1_555 1_555
O2 Ni1 1_555 1_555
C2 C1 1_555 1_555
H2 C2 1_555 1_555
O3 Ni1 1_555 1_555
N4 H4 1_555 1_555
O5 C6 1_555 1_555
C7 C6 1_555 1_555
C8 C7 1_555 1_555
C9 C8 1_555 1_555
H7 C9 1_555 1_555
C10 C9 1_555 1_555
H8 C10 1_555 1_555
C11 C10 1_555 1_555
H9 C11 1_555 1_555
C12 C11 1_555 1_555
H10 C12 1_555 1_555
C13 C8 1_555 1_555
C18 N4 1_555 1_555
C19 C18 1_555 1_555
H13 C19 1_555 1_555
C23 O2 1_555 1_555
C24 C23 1_555 1_555
C25 C24 1_555 1_555
H17 C25 1_555 1_555
C26 H18 1_555 1_555
O7 C29 1_555 1_555
O8 C29 1_555 1_555
C29 C30 1_555 1_555
C30 C31 1_555 1_555
C31 C24 1_555 1_555
H19 C31 1_555 1_555
O9 C32 1_555 1_555
O10 C32 1_555 1_555
C32 C33 1_555 1_555
C33 C25 1_555 1_555
C34 C30 1_555 1_555
H20 C34 1_555 1_555
O12 C37 1_555 1_555
C36 C26 1_555 1_555
C37 C36 1_555 1_555
N7 H25 1_555 1_555
C44 C43 1_555 1_555
H27 C44 1_555 1_555
H28 C45 1_555 1_555
O16 C57 1_555 1_555
C55 C54 1_555 1_555
H33 C55 1_555 1_555
H34 C56 1_555 1_555
H38 C62 1_555 1_555
Ni4 O7 1_555 1_555
Ni5 O9 1_555 1_555
N15 Ni1 1_555 1_555
C12 C13 1_555 1_555
O8 Ni4 1_555 1_555
O10 Ni5 1_555 1_555
C33 C34 1_555 1_555
N7 C43 1_555 1_555
C44 C45 1_555 1_555
C54 C57 1_555 1_555
C55 C56 1_555 1_555
H14 C20 1_555 1_555
C61 N6 1_555 1_555
H37 C61 1_555 1_555
Ni8 N6 1_555 1_555
C21 N2 1_555 1_555
H15 C21 1_555 1_555
Ni7 N2 1_555 1_555
C35 H21 1_555 1_555
Ni4 O11 1_555 1_555
N5 Ni4 1_555 1_555
C41 N5 1_555 1_555
H23 C41 1_555 1_555
C42 C41 1_555 1_555
H24 C42 1_555 1_555
N8 H26 1_555 1_555
O15 C46 1_555 1_555
C47 C46 1_555 1_555
C48 C47 1_555 1_555
C49 C48 1_555 1_555
H29 C49 1_555 1_555
C50 C49 1_555 1_555
H30 C50 1_555 1_555
C51 C50 1_555 1_555
H31 C51 1_555 1_555
C52 C51 1_555 1_555
H32 C52 1_555 1_555
C53 C48 1_555 1_555
C58 N8 1_555 1_555
C59 C58 1_555 1_555
H35 C59 1_555 1_555
N13 Ni4 1_555 1_555
C52 C53 1_555 1_555
O13 C40 1_555 1_555
O14 C40 1_555 1_555
H22 C38 1_555 1_555
C40 C39 1_555 1_555
Ni5 O13 1_555 1_555
N9 Ni5 1_555 1_555
C63 N9 1_555 1_555
H39 C63 1_555 1_555
C64 C63 1_555 1_555
H40 C64 1_555 1_555
N11 H41 1_555 1_555
C65 C64 1_555 1_555
N12 H42 1_555 1_555
C66 C65 1_555 1_555
H43 C66 1_555 1_555
C67 N9 1_555 1_555
H44 C67 1_555 1_555
O17 C68 1_555 1_555
C68 N11 1_555 1_555
O18 C79 1_555 1_555
C69 C68 1_555 1_555
C70 C69 1_555 1_555
C71 C70 1_555 1_555
H45 C71 1_555 1_555
C72 C71 1_555 1_555
H46 C72 1_555 1_555
C73 C72 1_555 1_555
H47 C73 1_555 1_555
C74 C73 1_555 1_555
H48 C74 1_555 1_555
C75 C70 1_555 1_555
C76 C75 1_555 1_555
C77 C76 1_555 1_555
H49 C77 1_555 1_555
C78 C69 1_555 1_555
H50 C78 1_555 1_555
C79 N12 1_555 1_555
C80 N12 1_555 1_555
C81 C80 1_555 1_555
H51 C81 1_555 1_555
C84 C80 1_555 1_555
H54 C84 1_555 1_555
N14 Ni5 1_555 1_555
C38 C39 1_555 1_555
N11 C65 1_555 1_555
C66 C67 1_555 1_555
C74 C75 1_555 1_555
C76 C79 1_555 1_555
C77 C78 1_555 1_555
N10 C82 1_555 1_555
H52 C82 1_555 1_555
C83 N10 1_555 1_555
H53 C83 1_555 1_555
Ni6 N10 1_555 1_555
Ni1_2 O1_2 1_555 1_555
O1_2 C23_2 1_555 1_555
O2_2 Ni1_2 1_555 1_555
H5 C4 1_555 1_555
H6 C5 1_555 1_555
C9_2 C8_2 1_555 1_555
H7_2 C9_2 1_555 1_555
C10_2 C9_2 1_555 1_555
H8_2 C10_2 1_555 1_555
C11_2 C10_2 1_555 1_555
H9_2 C11_2 1_555 1_555
C12_2 C11_2 1_555 1_555
H10_2 C12_2 1_555 1_555
C13_2 C8_2 1_555 1_555
C23_2 O2_2 1_555 1_555
C24_2 C23_2 1_555 1_555
C25_2 C24_2 1_555 1_555
H17_2 C25_2 1_555 1_555
O7_2 C29_2 1_555 1_555
O8_2 C29_2 1_555 1_555
C29_2 C30_2 1_555 1_555
C30_2 C31_2 1_555 1_555
C31_2 C24_2 1_555 1_555
H19_2 C31_2 1_555 1_555
O9_2 C32_2 1_555 1_555
O10_2 C32_2 1_555 1_555
C32_2 C33_2 1_555 1_555
C33_2 C25_2 1_555 1_555
C34_2 C30_2 1_555 1_555
H20_2 C34_2 1_555 1_555
Ni4_2 O7_2 1_555 1_555
Ni5_2 O9_2 1_555 1_555
N15_2 Ni1_2 1_555 1_555
C4 C5 1_555 1_555
C12_2 C13_2 1_555 1_555
O8_2 Ni4_2 1_555 1_555
O10_2 Ni5_2 1_555 1_555
C33_2 C34_2 1_555 1_555
C1_2 N1_2 1_555 1_555
H1_2 C1_2 1_555 1_555
N13 C20_2 1_555 1_555
C2_2 C1_2 1_555 1_555
H2_2 C2_2 1_555 1_555
C3 C2_2 1_555 1_555
O4 C28 1_555 1_555
N4_2 H4_2 1_555 1_555
O5_2 C6_2 1_555 1_555
C6_2 N3 1_555 1_555
O6 C17 1_555 1_555
C7_2 C6_2 1_555 1_555
C15 C14 1_555 1_555
H11 C15 1_555 1_555
C16 C7_2 1_555 1_555
H12 C16 1_555 1_555
C17 N4_2 1_555 1_555
C18_2 N4_2 1_555 1_555
C19_2 C18_2 1_555 1_555
H13_2 C19_2 1_555 1_555
C20_2 C19_2 1_555 1_555
H14_2 C20_2 1_555 1_555
C21_2 N13 1_555 1_555
H15_2 C21_2 1_555 1_555
C22 C18_2 1_555 1_555
H16 C22 1_555 1_555
C26_2 H18_2 1_555 1_555
C27 C26_2 1_555 1_555
C28 O3_2 1_555 1_555
O11_2 C37_2 1_555 1_555
O12_2 C37_2 1_555 1_555
C35_2 H21_2 1_555 1_555
C36_2 C26_2 1_555 1_555
C37_2 C36_2 1_555 1_555
O13_2 C40_2 1_555 1_555
O14_2 C40_2 1_555 1_555
C38_2 C27 1_555 1_555
H22_2 C38_2 1_555 1_555
C39_2 C35_2 1_555 1_555
C40_2 C39_2 1_555 1_555
Ni4_2 O11_2 1_555 1_555
N5_2 Ni4_2 1_555 1_555
C41_2 N5_2 1_555 1_555
H23_2 C41_2 1_555 1_555
N14 C60 1_555 1_555
C42_2 C41_2 1_555 1_555
H24_2 C42_2 1_555 1_555
N7_2 H25_2 1_555 1_555
C43_2 C42_2 1_555 1_555
N8_2 H26_2 1_555 1_555
C44_2 C43_2 1_555 1_555
H27_2 C44_2 1_555 1_555
C45_2 N5_2 1_555 1_555
H28_2 C45_2 1_555 1_555
O15_2 C46_2 1_555 1_555
C46_2 N7_2 1_555 1_555
O16_2 C57_2 1_555 1_555
C47_2 C46_2 1_555 1_555
C48_2 C47_2 1_555 1_555
C49_2 C48_2 1_555 1_555
H29_2 C49_2 1_555 1_555
C50_2 C49_2 1_555 1_555
H30_2 C50_2 1_555 1_555
C51_2 C50_2 1_555 1_555
H31_2 C51_2 1_555 1_555
C52_2 C51_2 1_555 1_555
H32_2 C52_2 1_555 1_555
C53_2 C48_2 1_555 1_555
C54_2 C53_2 1_555 1_555
C55_2 C54_2 1_555 1_555
H33_2 C55_2 1_555 1_555
C56_2 C47_2 1_555 1_555
H34_2 C56_2 1_555 1_555
C57_2 N8_2 1_555 1_555
C58_2 N8_2 1_555 1_555
C59_2 C58_2 1_555 1_555
H35_2 C59_2 1_555 1_555
C60 C59_2 1_555 1_555
H36 C60 1_555 1_555
C61_2 N14 1_555 1_555
H37_2 C61_2 1_555 1_555
C62_2 C58_2 1_555 1_555
H38_2 C62_2 1_555 1_555
C63_2 N9_2 1_555 1_555
H39_2 C63_2 1_555 1_555
N15 C82_2 1_555 1_555
C64_2 C63_2 1_555 1_555
H40_2 C64_2 1_555 1_555
C65_2 C64_2 1_555 1_555
N12_2 H42_2 1_555 1_555
O17_2 C68_2 1_555 1_555
C68_2 N11_2 1_555 1_555
O18_2 C79_2 1_555 1_555
C69_2 C68_2 1_555 1_555
C77_2 C76_2 1_555 1_555
H49_2 C77_2 1_555 1_555
C78_2 C69_2 1_555 1_555
H50_2 C78_2 1_555 1_555
C79_2 N12_2 1_555 1_555
C80_2 N12_2 1_555 1_555
C81_2 C80_2 1_555 1_555
H51_2 C81_2 1_555 1_555
C82_2 C81_2 1_555 1_555
H52_2 C82_2 1_555 1_555
C83_2 N15 1_555 1_555
H53_2 C83_2 1_555 1_555
C84_2 C80_2 1_555 1_555
H54_2 C84_2 1_555 1_555
N13_2 Ni4_2 1_555 1_555
N3 C3 1_555 1_555
C14 C17 1_555 1_555
C15 C16 1_555 1_555
C21_2 C22 1_555 1_555
C27 C28 1_555 1_555
C35_2 C36_2 1_555 1_555
C38_2 C39_2 1_555 1_555
N7_2 C43_2 1_555 1_555
C44_2 C45_2 1_555 1_555
C52_2 C53_2 1_555 1_555
C54_2 C57_2 1_555 1_555
C55_2 C56_2 1_555 1_555
C61_2 C62_2 1_555 1_555
N11_2 C65_2 1_555 1_555
C76_2 C79_2 1_555 1_555
C77_2 C78_2 1_555 1_555
C83_2 C84_2 1_555 1_555
H43_2 C66_2 1_555 1_555
H44_2 C67_2 1_555 1_555
C71_2 C70_2 1_555 1_555
H45_2 C71_2 1_555 1_555
C72_2 C71_2 1_555 1_555
H46_2 C72_2 1_555 1_555
C73_2 C72_2 1_555 1_555
H47_2 C73_2 1_555 1_555
C74_2 C73_2 1_555 1_555
H48_2 C74_2 1_555 1_555
C75_2 C70_2 1_555 1_555
N14_2 Ni5_2 1_555 1_555
C66_2 C67_2 1_555 1_555
C74_2 C75_2 1_555 1_555
O10_3 C32_3 1_555 1_555
C32_3 C33_3 1_555 1_555
H20_3 C34_3 1_555 1_555
O10_3 Ni8 1_555 1_555
C33_3 C34_3 1_555 1_555
O8_3 C29_3 1_555 1_555
C29_3 C30_3 1_555 1_555
O8_3 Ni7 1_555 1_555
H17_3 C25_3 1_555 1_555
H27_3 C44_3 1_555 1_555
H28_3 C45_3 1_555 1_555
O16_3 C57_3 1_555 1_555
H29_3 C49_3 1_555 1_555
C50_3 C49_3 1_555 1_555
H30_3 C50_3 1_555 1_555
C51_3 C50_3 1_555 1_555
H31_3 C51_3 1_555 1_555
C52_3 C51_3 1_555 1_555
H32_3 C52_3 1_555 1_555
H37_3 C61_3 1_555 1_555
H38_3 C62_3 1_555 1_555
C44_3 C45_3 1_555 1_555
C52_3 C53_3 1_555 1_555
C61_3 C62_3 1_555 1_555
Ni6 O1_3 1_555 1_555
O1_3 C23_3 1_555 1_555
N1_3 Ni6 1_555 1_555
C1_3 N1_3 1_555 1_555
H1_3 C1_3 1_555 1_555
O2_3 Ni6 1_555 1_555
N13_2 C20_3 1_555 1_555
C2_3 C1_3 1_555 1_555
H2_3 C2_3 1_555 1_555
O3_3 Ni6 1_555 1_555
N3_2 H3_2 1_555 1_555
C3_2 C2_3 1_555 1_555
O4_2 C28_2 1_555 1_555
N4_3 H4_3 1_555 1_555
C4_2 C3_2 1_555 1_555
H5_2 C4_2 1_555 1_555
C5_2 N1_3 1_555 1_555
H6_2 C5_2 1_555 1_555
O5_3 C6_3 1_555 1_555
C6_3 N3_2 1_555 1_555
O6_2 C17_2 1_555 1_555
C7_3 C6_3 1_555 1_555
C8_3 C7_3 1_555 1_555
C9_3 C8_3 1_555 1_555
H7_3 C9_3 1_555 1_555
C10_3 C9_3 1_555 1_555
H8_3 C10_3 1_555 1_555
C11_3 C10_3 1_555 1_555
H9_3 C11_3 1_555 1_555
C12_3 C11_3 1_555 1_555
H10_3 C12_3 1_555 1_555
C13_3 C8_3 1_555 1_555
C14_2 C13_3 1_555 1_555
C15_2 C14_2 1_555 1_555
H11_2 C15_2 1_555 1_555
C16_2 C7_3 1_555 1_555
H12_2 C16_2 1_555 1_555
C17_2 N4_3 1_555 1_555
C18_3 N4_3 1_555 1_555
C19_3 C18_3 1_555 1_555
H13_3 C19_3 1_555 1_555
C20_3 C19_3 1_555 1_555
H14_3 C20_3 1_555 1_555
C21_3 N13_2 1_555 1_555
H15_3 C21_3 1_555 1_555
C22_2 C18_3 1_555 1_555
H16_2 C22_2 1_555 1_555
C23_3 O2_3 1_555 1_555
C24_3 C23_3 1_555 1_555
C26_3 H18_3 1_555 1_555
C27_2 C26_3 1_555 1_555
C28_2 O3_3 1_555 1_555
C31_3 C24_3 1_555 1_555
H19_3 C31_3 1_555 1_555
O11_3 C37_3 1_555 1_555
O12_3 C37_3 1_555 1_555
C35_3 H21_3 1_555 1_555
C36_3 C26_3 1_555 1_555
C37_3 C36_3 1_555 1_555
O13_3 C40_3 1_555 1_555
O14_3 C40_3 1_555 1_555
C38_3 C27_2 1_555 1_555
H22_3 C38_3 1_555 1_555
C39_3 C35_3 1_555 1_555
C40_3 C39_3 1_555 1_555
Ni7 O11_3 1_555 1_555
N5_3 Ni7 1_555 1_555
C41_3 N5_3 1_555 1_555
H23_3 C41_3 1_555 1_555
N14_2 C60_2 1_555 1_555
C42_3 C41_3 1_555 1_555
H24_3 C42_3 1_555 1_555
C43_3 C42_3 1_555 1_555
N8_3 H26_3 1_555 1_555
O15_3 C46_3 1_555 1_555
C46_3 N7_3 1_555 1_555
C47_3 C46_3 1_555 1_555
C48_3 C47_3 1_555 1_555
C55_3 C54_3 1_555 1_555
H33_3 C55_3 1_555 1_555
C56_3 C47_3 1_555 1_555
H34_3 C56_3 1_555 1_555
C58_3 N8_3 1_555 1_555
C59_3 C58_3 1_555 1_555
H35_3 C59_3 1_555 1_555
C60_2 C59_3 1_555 1_555
H36_2 C60_2 1_555 1_555
Ni8 O13_3 1_555 1_555
N9_3 Ni8 1_555 1_555
C63_3 N9_3 1_555 1_555
H39_3 C63_3 1_555 1_555
N15_2 C82_3 1_555 1_555
C64_3 C63_3 1_555 1_555
H40_3 C64_3 1_555 1_555
C65_3 C64_3 1_555 1_555
N12_3 H42_3 1_555 1_555
O17_3 C68_3 1_555 1_555
C68_3 N11_3 1_555 1_555
C69_3 C68_3 1_555 1_555
C70_3 C69_3 1_555 1_555
C77_3 C76_3 1_555 1_555
H49_3 C77_3 1_555 1_555
C78_3 C69_3 1_555 1_555
H50_3 C78_3 1_555 1_555
C80_3 N12_3 1_555 1_555
C81_3 C80_3 1_555 1_555
H51_3 C81_3 1_555 1_555
C82_3 C81_3 1_555 1_555
H52_3 C82_3 1_555 1_555
N3_2 C3_2 1_555 1_555
C4_2 C5_2 1_555 1_555
C12_3 C13_3 1_555 1_555
C14_2 C17_2 1_555 1_555
C15_2 C16_2 1_555 1_555
C21_3 C22_2 1_555 1_555
C27_2 C28_2 1_555 1_555
C35_3 C36_3 1_555 1_555
C38_3 C39_3 1_555 1_555
N7_3 C43_3 1_555 1_555
C55_3 C56_3 1_555 1_555
N11_3 C65_3 1_555 1_555
C77_3 C78_3 1_555 1_555
H43_3 C66_3 1_555 1_555
H44_3 C67_3 1_555 1_555
O18_3 C79_3 1_555 1_555
H45_3 C71_3 1_555 1_555
C72_3 C71_3 1_555 1_555
H46_3 C72_3 1_555 1_555
C73_3 C72_3 1_555 1_555
H47_3 C73_3 1_555 1_555
C74_3 C73_3 1_555 1_555
H48_3 C74_3 1_555 1_555
H53_3 C83_3 1_555 1_555
H54_3 C84_3 1_555 1_555
C66_3 C67_3 1_555 1_555
C74_3 C75_3 1_555 1_555
C83_3 C84_3 1_555 1_555
N3_3 H3_3 1_555 1_555
O4_3 C28_3 1_555 1_555
C4_3 C3_3 1_555 1_555
H5_3 C4_3 1_555 1_555
H6_3 C5_3 1_555 1_555
O6_3 C17_3 1_555 1_555
C15_3 C14_3 1_555 1_555
H11_3 C15_3 1_555 1_555
H12_3 C16_3 1_555 1_555
H16_3 C22_3 1_555 1_555
N3_3 C3_3 1_555 1_555
C4_3 C5_3 1_555 1_555
C14_3 C17_3 1_555 1_555
C15_3 C16_3 1_555 1_555
C27_3 C28_3 1_555 1_555
H36_3 C60_3 1_555 1_555
N10_2 C82_4 1_555 1_555
H52_4 C82_4 1_555 1_555
C83_4 N10_2 1_555 1_555
H53_4 C83_4 1_555 1_555
Ni6_2 N10_2 1_555 1_555
O13_4 C40_4 1_555 1_555
O14_4 C40_4 1_555 1_555
H22_4 C38_4 1_555 1_555
C40_4 C39_4 1_555 1_555
Ni3 O13_4 1_555 1_555
N9_4 Ni3 1_555 1_555
C63_4 N9_4 1_555 1_555
H39_4 C63_4 1_555 1_555
C64_4 C63_4 1_555 1_555
H40_4 C64_4 1_555 1_555
N11_4 H41_4 1_555 1_555
C65_4 C64_4 1_555 1_555
N12_4 H42_4 1_555 1_555
C66_4 C65_4 1_555 1_555
H43_4 C66_4 1_555 1_555
C67_4 N9_4 1_555 1_555
H44_4 C67_4 1_555 1_555
O17_4 C68_4 1_555 1_555
C68_4 N11_4 1_555 1_555
O18_4 C79_4 1_555 1_555
C69_4 C68_4 1_555 1_555
C70_4 C69_4 1_555 1_555
C71_4 C70_4 1_555 1_555
H45_4 C71_4 1_555 1_555
C72_4 C71_4 1_555 1_555
H46_4 C72_4 1_555 1_555
C73_4 C72_4 1_555 1_555
H47_4 C73_4 1_555 1_555
C74_4 C73_4 1_555 1_555
H48_4 C74_4 1_555 1_555
C75_4 C70_4 1_555 1_555
C76_4 C75_4 1_555 1_555
C77_4 C76_4 1_555 1_555
H49_4 C77_4 1_555 1_555
C78_4 C69_4 1_555 1_555
H50_4 C78_4 1_555 1_555
C79_4 N12_4 1_555 1_555
C80_4 N12_4 1_555 1_555
C81_4 C80_4 1_555 1_555
H51_4 C81_4 1_555 1_555
C84_4 C80_4 1_555 1_555
H54_4 C84_4 1_555 1_555
O20 Ni3 1_555 1_555
O22 Ni3 1_555 1_555
N14_3 Ni3 1_555 1_555
C38_4 C39_4 1_555 1_555
N11_4 C65_4 1_555 1_555
C66_4 C67_4 1_555 1_555
C74_4 C75_4 1_555 1_555
C76_4 C79_4 1_555 1_555
C77_4 C78_4 1_555 1_555
C35_4 H21_4 1_555 1_555
Ni2 O11_4 1_555 1_555
N5_4 Ni2 1_555 1_555
C41_4 N5_4 1_555 1_555
H23_4 C41_4 1_555 1_555
C42_4 C41_4 1_555 1_555
H24_4 C42_4 1_555 1_555
N8_4 H26_4 1_555 1_555
O15_4 C46_4 1_555 1_555
C47_4 C46_4 1_555 1_555
C48_4 C47_4 1_555 1_555
C49_4 C48_4 1_555 1_555
H29_4 C49_4 1_555 1_555
C50_4 C49_4 1_555 1_555
H30_4 C50_4 1_555 1_555
C51_4 C50_4 1_555 1_555
H31_4 C51_4 1_555 1_555
C52_4 C51_4 1_555 1_555
H32_4 C52_4 1_555 1_555
C53_4 C48_4 1_555 1_555
C58_4 N8_4 1_555 1_555
C59_4 C58_4 1_555 1_555
H35_4 C59_4 1_555 1_555
O19 Ni2 1_555 1_555
O21 Ni2 1_555 1_555
N13_3 Ni2 1_555 1_555
C52_4 C53_4 1_555 1_555
C21_4 N2_2 1_555 1_555
H15_4 C21_4 1_555 1_555
Ni7_2 N2_2 1_555 1_555
H14_4 C20_4 1_555 1_555
C61_4 N6_2 1_555 1_555
H37_4 C61_4 1_555 1_555
Ni8_2 N6_2 1_555 1_555
Ni1_3 O1_4 1_555 1_555
O1_4 C23_4 1_555 1_555
N1_4 Ni1_3 1_555 1_555
C1_4 N1_4 1_555 1_555
H1_4 C1_4 1_555 1_555
O2_4 Ni1_3 1_555 1_555
C2_4 C1_4 1_555 1_555
H2_4 C2_4 1_555 1_555
O3_4 Ni1_3 1_555 1_555
N4_4 H4_4 1_555 1_555
O5_4 C6_4 1_555 1_555
C7_4 C6_4 1_555 1_555
C8_4 C7_4 1_555 1_555
C9_4 C8_4 1_555 1_555
H7_4 C9_4 1_555 1_555
C10_4 C9_4 1_555 1_555
H8_4 C10_4 1_555 1_555
C11_4 C10_4 1_555 1_555
H9_4 C11_4 1_555 1_555
C12_4 C11_4 1_555 1_555
H10_4 C12_4 1_555 1_555
C13_4 C8_4 1_555 1_555
C18_4 N4_4 1_555 1_555
C19_4 C18_4 1_555 1_555
H13_4 C19_4 1_555 1_555
C23_4 O2_4 1_555 1_555
C24_4 C23_4 1_555 1_555
C25_4 C24_4 1_555 1_555
H17_4 C25_4 1_555 1_555
C26_4 H18_4 1_555 1_555
O19 C29_4 1_555 1_555
O21 C29_4 1_555 1_555
C29_4 C30_4 1_555 1_555
C30_4 C31_4 1_555 1_555
C31_4 C24_4 1_555 1_555
H19_4 C31_4 1_555 1_555
O20 C32_4 1_555 1_555
O22 C32_4 1_555 1_555
C32_4 C33_4 1_555 1_555
C33_4 C25_4 1_555 1_555
C34_4 C30_4 1_555 1_555
H20_4 C34_4 1_555 1_555
O12_4 C37_4 1_555 1_555
C36_4 C26_4 1_555 1_555
C37_4 C36_4 1_555 1_555
N7_4 H25_4 1_555 1_555
C44_4 C43_4 1_555 1_555
H27_4 C44_4 1_555 1_555
H28_4 C45_4 1_555 1_555
O16_4 C57_4 1_555 1_555
C55_4 C54_4 1_555 1_555
H33_4 C55_4 1_555 1_555
H34_4 C56_4 1_555 1_555
H38_4 C62_4 1_555 1_555
N15_3 Ni1_3 1_555 1_555
C12_4 C13_4 1_555 1_555
C33_4 C34_4 1_555 1_555
N7_4 C43_4 1_555 1_555
C44_4 C45_4 1_555 1_555
C54_4 C57_4 1_555 1_555
C55_4 C56_4 1_555 1_555
H43_5 C66_5 1_555 1_555
H44_5 C67_5 1_555 1_555
C71_5 C70_5 1_555 1_555
H45_5 C71_5 1_555 1_555
C72_5 C71_5 1_555 1_555
H46_5 C72_5 1_555 1_555
C73_5 C72_5 1_555 1_555
H47_5 C73_5 1_555 1_555
C74_5 C73_5 1_555 1_555
H48_5 C74_5 1_555 1_555
C75_5 C70_5 1_555 1_555
O20_2 Ni3_2 1_555 1_555
O22_2 Ni3_2 1_555 1_555
N14_4 Ni3_2 1_555 1_555
C66_5 C67_5 1_555 1_555
C74_5 C75_5 1_555 1_555
C1_5 N1_5 1_555 1_555
H1_5 C1_5 1_555 1_555
N13_3 C20_5 1_555 1_555
C2_5 C1_5 1_555 1_555
H2_5 C2_5 1_555 1_555
C3_4 C2_5 1_555 1_555
O4_4 C28_4 1_555 1_555
N4_5 H4_5 1_555 1_555
O5_5 C6_5 1_555 1_555
C6_5 N3_4 1_555 1_555
O6_4 C17_4 1_555 1_555
C7_5 C6_5 1_555 1_555
C15_4 C14_4 1_555 1_555
H11_4 C15_4 1_555 1_555
C16_4 C7_5 1_555 1_555
H12_4 C16_4 1_555 1_555
C17_4 N4_5 1_555 1_555
C18_5 N4_5 1_555 1_555
C19_5 C18_5 1_555 1_555
H13_5 C19_5 1_555 1_555
C20_5 C19_5 1_555 1_555
H14_5 C20_5 1_555 1_555
C21_5 N13_3 1_555 1_555
H15_5 C21_5 1_555 1_555
C22_4 C18_5 1_555 1_555
H16_4 C22_4 1_555 1_555
C26_5 H18_5 1_555 1_555
C27_4 C26_5 1_555 1_555
C28_4 O3_5 1_555 1_555
O11_5 C37_5 1_555 1_555
O12_5 C37_5 1_555 1_555
C35_5 H21_5 1_555 1_555
C36_5 C26_5 1_555 1_555
C37_5 C36_5 1_555 1_555
O13_5 C40_5 1_555 1_555
O14_5 C40_5 1_555 1_555
C38_5 C27_4 1_555 1_555
H22_5 C38_5 1_555 1_555
C39_5 C35_5 1_555 1_555
C40_5 C39_5 1_555 1_555
Ni2_2 O11_5 1_555 1_555
N5_5 Ni2_2 1_555 1_555
C41_5 N5_5 1_555 1_555
H23_5 C41_5 1_555 1_555
N14_3 C60_4 1_555 1_555
C42_5 C41_5 1_555 1_555
H24_5 C42_5 1_555 1_555
N7_5 H25_5 1_555 1_555
C43_5 C42_5 1_555 1_555
N8_5 H26_5 1_555 1_555
C44_5 C43_5 1_555 1_555
H27_5 C44_5 1_555 1_555
C45_5 N5_5 1_555 1_555
H28_5 C45_5 1_555 1_555
O15_5 C46_5 1_555 1_555
C46_5 N7_5 1_555 1_555
O16_5 C57_5 1_555 1_555
C47_5 C46_5 1_555 1_555
C48_5 C47_5 1_555 1_555
C49_5 C48_5 1_555 1_555
H29_5 C49_5 1_555 1_555
C50_5 C49_5 1_555 1_555
H30_5 C50_5 1_555 1_555
C51_5 C50_5 1_555 1_555
H31_5 C51_5 1_555 1_555
C52_5 C51_5 1_555 1_555
H32_5 C52_5 1_555 1_555
C53_5 C48_5 1_555 1_555
C54_5 C53_5 1_555 1_555
C55_5 C54_5 1_555 1_555
H33_5 C55_5 1_555 1_555
C56_5 C47_5 1_555 1_555
H34_5 C56_5 1_555 1_555
C57_5 N8_5 1_555 1_555
C58_5 N8_5 1_555 1_555
C59_5 C58_5 1_555 1_555
H35_5 C59_5 1_555 1_555
C60_4 C59_5 1_555 1_555
H36_4 C60_4 1_555 1_555
C61_5 N14_3 1_555 1_555
H37_5 C61_5 1_555 1_555
C62_5 C58_5 1_555 1_555
H38_5 C62_5 1_555 1_555
C63_5 N9_5 1_555 1_555
H39_5 C63_5 1_555 1_555
N15_3 C82_5 1_555 1_555
C64_5 C63_5 1_555 1_555
H40_5 C64_5 1_555 1_555
C65_5 C64_5 1_555 1_555
N12_5 H42_5 1_555 1_555
O17_5 C68_5 1_555 1_555
C68_5 N11_5 1_555 1_555
O18_5 C79_5 1_555 1_555
C69_5 C68_5 1_555 1_555
C77_5 C76_5 1_555 1_555
H49_5 C77_5 1_555 1_555
C78_5 C69_5 1_555 1_555
H50_5 C78_5 1_555 1_555
C79_5 N12_5 1_555 1_555
C80_5 N12_5 1_555 1_555
C81_5 C80_5 1_555 1_555
H51_5 C81_5 1_555 1_555
C82_5 C81_5 1_555 1_555
H52_5 C82_5 1_555 1_555
C83_5 N15_3 1_555 1_555
H53_5 C83_5 1_555 1_555
C84_5 C80_5 1_555 1_555
H54_5 C84_5 1_555 1_555
O19_2 Ni2_2 1_555 1_555
O21_2 Ni2_2 1_555 1_555
N13_4 Ni2_2 1_555 1_555
N3_4 C3_4 1_555 1_555
C14_4 C17_4 1_555 1_555
C15_4 C16_4 1_555 1_555
C21_5 C22_4 1_555 1_555
C27_4 C28_4 1_555 1_555
C35_5 C36_5 1_555 1_555
C38_5 C39_5 1_555 1_555
N7_5 C43_5 1_555 1_555
C44_5 C45_5 1_555 1_555
C52_5 C53_5 1_555 1_555
C54_5 C57_5 1_555 1_555
C55_5 C56_5 1_555 1_555
C61_5 C62_5 1_555 1_555
N11_5 C65_5 1_555 1_555
C76_5 C79_5 1_555 1_555
C77_5 C78_5 1_555 1_555
C83_5 C84_5 1_555 1_555
Ni1_4 O1_5 1_555 1_555
O1_5 C23_5 1_555 1_555
O2_5 Ni1_4 1_555 1_555
H5_4 C4_4 1_555 1_555
H6_4 C5_4 1_555 1_555
C9_5 C8_5 1_555 1_555
H7_5 C9_5 1_555 1_555
C10_5 C9_5 1_555 1_555
H8_5 C10_5 1_555 1_555
C11_5 C10_5 1_555 1_555
H9_5 C11_5 1_555 1_555
C12_5 C11_5 1_555 1_555
H10_5 C12_5 1_555 1_555
C13_5 C8_5 1_555 1_555
C23_5 O2_5 1_555 1_555
C24_5 C23_5 1_555 1_555
C25_5 C24_5 1_555 1_555
H17_5 C25_5 1_555 1_555
O19_2 C29_5 1_555 1_555
O21_2 C29_5 1_555 1_555
C29_5 C30_5 1_555 1_555
C30_5 C31_5 1_555 1_555
C31_5 C24_5 1_555 1_555
H19_5 C31_5 1_555 1_555
O20_2 C32_5 1_555 1_555
O22_2 C32_5 1_555 1_555
C32_5 C33_5 1_555 1_555
C33_5 C25_5 1_555 1_555
C34_5 C30_5 1_555 1_555
H20_5 C34_5 1_555 1_555
N15_4 Ni1_4 1_555 1_555
C4_4 C5_4 1_555 1_555
C12_5 C13_5 1_555 1_555
C33_5 C34_5 1_555 1_555
H43_6 C66_6 1_555 1_555
H44_6 C67_6 1_555 1_555
O18_6 C79_6 1_555 1_555
H45_6 C71_6 1_555 1_555
C72_6 C71_6 1_555 1_555
H46_6 C72_6 1_555 1_555
C73_6 C72_6 1_555 1_555
H47_6 C73_6 1_555 1_555
C74_6 C73_6 1_555 1_555
H48_6 C74_6 1_555 1_555
H53_6 C83_6 1_555 1_555
H54_6 C84_6 1_555 1_555
C66_6 C67_6 1_555 1_555
C74_6 C75_6 1_555 1_555
C83_6 C84_6 1_555 1_555
Ni6_2 O1_6 1_555 1_555
O1_6 C23_6 1_555 1_555
N1_6 Ni6_2 1_555 1_555
C1_6 N1_6 1_555 1_555
H1_6 C1_6 1_555 1_555
O2_6 Ni6_2 1_555 1_555
N13_4 C20_6 1_555 1_555
C2_6 C1_6 1_555 1_555
H2_6 C2_6 1_555 1_555
O3_6 Ni6_2 1_555 1_555
N3_5 H3_5 1_555 1_555
C3_5 C2_6 1_555 1_555
O4_5 C28_5 1_555 1_555
N4_6 H4_6 1_555 1_555
C4_5 C3_5 1_555 1_555
H5_5 C4_5 1_555 1_555
C5_5 N1_6 1_555 1_555
H6_5 C5_5 1_555 1_555
O5_6 C6_6 1_555 1_555
C6_6 N3_5 1_555 1_555
O6_5 C17_5 1_555 1_555
C7_6 C6_6 1_555 1_555
C8_6 C7_6 1_555 1_555
C9_6 C8_6 1_555 1_555
H7_6 C9_6 1_555 1_555
C10_6 C9_6 1_555 1_555
H8_6 C10_6 1_555 1_555
C11_6 C10_6 1_555 1_555
H9_6 C11_6 1_555 1_555
C12_6 C11_6 1_555 1_555
H10_6 C12_6 1_555 1_555
C13_6 C8_6 1_555 1_555
C14_5 C13_6 1_555 1_555
C15_5 C14_5 1_555 1_555
H11_5 C15_5 1_555 1_555
C16_5 C7_6 1_555 1_555
H12_5 C16_5 1_555 1_555
C17_5 N4_6 1_555 1_555
C18_6 N4_6 1_555 1_555
C19_6 C18_6 1_555 1_555
H13_6 C19_6 1_555 1_555
C20_6 C19_6 1_555 1_555
H14_6 C20_6 1_555 1_555
C21_6 N13_4 1_555 1_555
H15_6 C21_6 1_555 1_555
C22_5 C18_6 1_555 1_555
H16_5 C22_5 1_555 1_555
C23_6 O2_6 1_555 1_555
C24_6 C23_6 1_555 1_555
C26_6 H18_6 1_555 1_555
C27_5 C26_6 1_555 1_555
C28_5 O3_6 1_555 1_555
C31_6 C24_6 1_555 1_555
H19_6 C31_6 1_555 1_555
O11_6 C37_6 1_555 1_555
O12_6 C37_6 1_555 1_555
C35_6 H21_6 1_555 1_555
C36_6 C26_6 1_555 1_555
C37_6 C36_6 1_555 1_555
O13_6 C40_6 1_555 1_555
O14_6 C40_6 1_555 1_555
C38_6 C27_5 1_555 1_555
H22_6 C38_6 1_555 1_555
C39_6 C35_6 1_555 1_555
C40_6 C39_6 1_555 1_555
Ni7_2 O11_6 1_555 1_555
N5_6 Ni7_2 1_555 1_555
C41_6 N5_6 1_555 1_555
H23_6 C41_6 1_555 1_555
N14_4 C60_5 1_555 1_555
C42_6 C41_6 1_555 1_555
H24_6 C42_6 1_555 1_555
C43_6 C42_6 1_555 1_555
N8_6 H26_6 1_555 1_555
O15_6 C46_6 1_555 1_555
C46_6 N7_6 1_555 1_555
C47_6 C46_6 1_555 1_555
C48_6 C47_6 1_555 1_555
C55_6 C54_6 1_555 1_555
H33_6 C55_6 1_555 1_555
C56_6 C47_6 1_555 1_555
H34_6 C56_6 1_555 1_555
C58_6 N8_6 1_555 1_555
C59_6 C58_6 1_555 1_555
H35_6 C59_6 1_555 1_555
C60_5 C59_6 1_555 1_555
H36_5 C60_5 1_555 1_555
Ni8_2 O13_6 1_555 1_555
N9_6 Ni8_2 1_555 1_555
C63_6 N9_6 1_555 1_555
H39_6 C63_6 1_555 1_555
N15_4 C82_6 1_555 1_555
C64_6 C63_6 1_555 1_555
H40_6 C64_6 1_555 1_555
C65_6 C64_6 1_555 1_555
N12_6 H42_6 1_555 1_555
O17_6 C68_6 1_555 1_555
C68_6 N11_6 1_555 1_555
C69_6 C68_6 1_555 1_555
C70_6 C69_6 1_555 1_555
C77_6 C76_6 1_555 1_555
H49_6 C77_6 1_555 1_555
C78_6 C69_6 1_555 1_555
H50_6 C78_6 1_555 1_555
C80_6 N12_6 1_555 1_555
C81_6 C80_6 1_555 1_555
H51_6 C81_6 1_555 1_555
C82_6 C81_6 1_555 1_555
H52_6 C82_6 1_555 1_555
O21_3 Ni7_2 1_555 1_555
O22_3 Ni8_2 1_555 1_555
N3_5 C3_5 1_555 1_555
C4_5 C5_5 1_555 1_555
C12_6 C13_6 1_555 1_555
C14_5 C17_5 1_555 1_555
C15_5 C16_5 1_555 1_555
C21_6 C22_5 1_555 1_555
C27_5 C28_5 1_555 1_555
C35_6 C36_6 1_555 1_555
C38_6 C39_6 1_555 1_555
N7_6 C43_6 1_555 1_555
C55_6 C56_6 1_555 1_555
N11_6 C65_6 1_555 1_555
C77_6 C78_6 1_555 1_555
H17_6 C25_6 1_555 1_555
H27_6 C44_6 1_555 1_555
H28_6 C45_6 1_555 1_555
O16_6 C57_6 1_555 1_555
H29_6 C49_6 1_555 1_555
C50_6 C49_6 1_555 1_555
H30_6 C50_6 1_555 1_555
C51_6 C50_6 1_555 1_555
H31_6 C51_6 1_555 1_555
C52_6 C51_6 1_555 1_555
H32_6 C52_6 1_555 1_555
H37_6 C61_6 1_555 1_555
H38_6 C62_6 1_555 1_555
C44_6 C45_6 1_555 1_555
C52_6 C53_6 1_555 1_555
C61_6 C62_6 1_555 1_555
O21_3 C29_6 1_555 1_555
C29_6 C30_6 1_555 1_555
O22_3 C32_6 1_555 1_555
C32_6 C33_6 1_555 1_555
H20_6 C34_6 1_555 1_555
C33_6 C34_6 1_555 1_555
H36_6 C60_6 1_555 1_555
N3_6 H3_6 1_555 1_555
O4_6 C28_6 1_555 1_555
C4_6 C3_6 1_555 1_555
H5_6 C4_6 1_555 1_555
H6_6 C5_6 1_555 1_555
O6_6 C17_6 1_555 1_555
C15_6 C14_6 1_555 1_555
H11_6 C15_6 1_555 1_555
H12_6 C16_6 1_555 1_555
H16_6 C22_6 1_555 1_555
N3_6 C3_6 1_555 1_555
C4_6 C5_6 1_555 1_555
C14_6 C17_6 1_555 1_555
C15_6 C16_6 1_555 1_555
C27_6 C28_6 1_555 1_555

#END
