
###############################################################################
#
# This file contains modified crystal structure data generated from the
# MOF subset of the Cambridge Structural Database (CSD) v543 
# hosted by the Cambridge Crystallographic Data Centre (CCDC).
#
# This work is licensed under the Creative Commons
# Attribution-NonCommercial-ShareAlike 4.0 International License.
# To view a copy of this license, visit
# http://creativecommons.org/licenses/by-nc-sa/4.0/
# or send a letter to
# Creative Commons, PO Box 1866, Mountain View, CA 94042, USA.
#
# CIF created using the CSD Python API on 29 September 2022
# The structure has been converted into the P1 space group
# The structure has a 3D framework
# The original CSD entry YOTREG is in the hexagonal crystal system
# The framework has been calculated to contain at least 10.0% void space
# The void calculation uses a probe of radius 1.32A, grid spacing 0.4
# The framework is charged, counterions have been retained in the structure
# H atom positions have been added when not included in the experimental data
#
###############################################################################

data_YOTREG
_chemical_formula_moiety         '(C768 H1116 Fe60 N60 O252 20-)n'
_symmetry_cell_setting           triclinic
_symmetry_space_group_name_H-M   'P 1'
_symmetry_Int_Tables_number      1
_space_group_name_Hall           'P 1'
loop_
_symmetry_equiv_pos_site_id
_symmetry_equiv_pos_as_xyz
1 x,y,z
_cell_length_a                   38.8452(8)
_cell_length_b                   38.8452(8)
_cell_length_c                   24.8241(7)
_cell_angle_alpha                90
_cell_angle_beta                 90
_cell_angle_gamma                120
_cell_volume                     32439.9
loop_
_atom_site_label
_atom_site_type_symbol
_atom_site_fract_x
_atom_site_fract_y
_atom_site_fract_z
O1 O 0.8026(4) 0.3195(4) 0.2962(6)
H265 H 0.828163 0.3195 0.2962
O1_2 O 0.6805(4) 0.4831(6) 0.2962(6)
H265_2 H 0.6805 0.508663 0.2962
O1_3 O 0.5169(6) 0.1974(4) 0.2962(6)
H265_3 H 0.491337 0.171837 0.2962
O1_4 O 0.1974(4) 0.6805(4) 0.2962(6)
H265_4 H 0.171837 0.6805 0.2962
O1_5 O 0.3195(4) 0.5169(6) 0.2962(6)
H265_5 H 0.3195 0.491337 0.2962
O1_6 O 0.4831(6) 0.8026(4) 0.2962(6)
H265_6 H 0.508663 0.828163 0.2962
O1_7 O 0.3195(4) 0.8026(4) 0.2038(6)
H265_7 H 0.3195 0.828163 0.2038
O1_8 O 0.4831(6) 0.6805(4) 0.2038(6)
H265_8 H 0.508663 0.6805 0.2038
O1_9 O 0.1974(4) 0.5169(6) 0.2038(6)
H265_9 H 0.171837 0.491337 0.2038
O1_10 O 0.6805(4) 0.1974(4) 0.2038(6)
H265_10 H 0.6805 0.171837 0.2038
O1_11 O 0.5169(6) 0.3195(4) 0.2038(6)
H265_11 H 0.491337 0.3195 0.2038
O1_12 O 0.8026(4) 0.4831(6) 0.2038(6)
H265_12 H 0.828163 0.508663 0.2038
O1_13 O 0.1974(4) 0.6805(4) 0.7038(6)
H265_13 H 0.171837 0.6805 0.7038
O1_14 O 0.3195(4) 0.5169(6) 0.7038(6)
H265_14 H 0.3195 0.491337 0.7038
O1_15 O 0.4831(6) 0.8026(4) 0.7038(6)
H265_15 H 0.508663 0.828163 0.7038
O1_16 O 0.8026(4) 0.3195(4) 0.7038(6)
H265_16 H 0.828163 0.3195 0.7038
O1_17 O 0.6805(4) 0.4831(6) 0.7038(6)
H265_17 H 0.6805 0.508663 0.7038
O1_18 O 0.5169(6) 0.1974(4) 0.7038(6)
H265_18 H 0.491337 0.171837 0.7038
O1_19 O 0.6805(4) 0.1974(4) 0.7962(6)
H265_19 H 0.6805 0.171837 0.7962
O1_20 O 0.5169(6) 0.3195(4) 0.7962(6)
H265_20 H 0.491337 0.3195 0.7962
O1_21 O 0.8026(4) 0.4831(6) 0.7962(6)
H265_21 H 0.828163 0.508663 0.7962
O1_22 O 0.3195(4) 0.8026(4) 0.7962(6)
H265_22 H 0.3195 0.828163 0.7962
O1_23 O 0.4831(6) 0.6805(4) 0.7962(6)
H265_23 H 0.508663 0.6805 0.7962
O1_24 O 0.1974(4) 0.5169(6) 0.7962(6)
H265_24 H 0.171837 0.491337 0.7962
O2 O 0.9147(10) 0.0853(10) 0.2500
H266 H 0.940263 0.0853 0.25
H266_2 H 0.9147 0.059737 0.25
O2_2 O 0.9147(10) 0.8294(14) 0.2500
H266_3 H 0.9147 0.854963 0.25
H266_4 H 0.940263 0.854963 0.25
O2_3 O 0.1706(14) 0.0853(10) 0.2500
H266_5 H 0.145037 0.059737 0.25
H266_6 H 0.145037 0.0853 0.25
O2_4 O 0.0853(10) 0.9147(10) 0.2500
H266_7 H 0.059737 0.9147 0.25
H266_8 H 0.0853 0.940263 0.25
O2_5 O 0.0853(10) 0.1706(14) 0.2500
H266_9 H 0.0853 0.145037 0.25
H266_10 H 0.059737 0.145037 0.25
O2_6 O 0.8294(14) 0.9147(10) 0.2500
H266_11 H 0.854963 0.940263 0.25
H266_12 H 0.854963 0.9147 0.25
O2_7 O 0.0853(10) 0.9147(10) 0.7500
H266_13 H 0.059737 0.9147 0.75
H266_14 H 0.0853 0.940263 0.75
O2_8 O 0.0853(10) 0.1706(14) 0.7500
H266_15 H 0.0853 0.145037 0.75
H266_16 H 0.059737 0.145037 0.75
O2_9 O 0.8294(14) 0.9147(10) 0.7500
H266_17 H 0.854963 0.940263 0.75
H266_18 H 0.854963 0.9147 0.75
O2_10 O 0.9147(10) 0.0853(10) 0.7500
H266_19 H 0.940263 0.0853 0.75
H266_20 H 0.9147 0.059737 0.75
O2_11 O 0.9147(10) 0.8294(14) 0.7500
H266_21 H 0.9147 0.854963 0.75
H266_22 H 0.940263 0.854963 0.75
O2_12 O 0.1706(14) 0.0853(10) 0.7500
H266_23 H 0.145037 0.059737 0.75
H266_24 H 0.145037 0.0853 0.75
Fe7 Fe 0.30548(7) 0.06601(5) 0.06611(6)
O26 O 0.3071(4) 0.0423(3) 0.0000
O27 O 0.3504(4) 0.0630(3) 0.0992(3)
O28 O 0.2665(4) 0.0159(3) 0.1018(3)
O29 O 0.2589(3) 0.0727(2) 0.0447(3)
O30 O 0.3460(3) 0.1216(2) 0.0441(3)
N9 N 0.3027(4) 0.0935(3) 0.1393(4)
C91 C 0.3647(7) 0.0404(5) 0.0898(6)
C93 C 0.2444(6) 0.0706(4) 0.0000
C94 C 0.3595(6) 0.1376(4) 0.0000
C95 C 0.3369(6) 0.1216(5) 0.1605(5)
C96 C 0.2695(6) 0.0872(3) 0.1624(5)
O31 O 0.3530(4) 0.0146(3) 0.0552(4)
C97 C 0.3995(6) 0.0478(4) 0.1265(7)
C99 C 0.2029(9) 0.0657(6) 0.0000
C100 C 0.3940(8) 0.1810(6) 0.0000
H33 H 0.3607 0.1261 0.1454
C101 C 0.3380(6) 0.1446(4) 0.2050(5)
C102 C 0.2681(6) 0.1083(4) 0.2054(5)
H34 H 0.2455 0.0671 0.1485
C104 C 0.4276(12) 0.0904(6) 0.133(2)
C105 C 0.4210(14) 0.0281(13) 0.1059(15)
C106 C 0.3835(22) 0.0302(17) 0.1807(9)
C110 C 0.1731(11) 0.0219(7) 0.0000
C111 C 0.1957(10) 0.0829(8) 0.0491(8)
C112 C 0.4326(13) 0.1815(10) 0.0000
C113 C 0.3929(9) 0.2018(5) 0.0491(8)
H35 H 0.3623 0.1634 0.2194
C114 C 0.3025(6) 0.1391(4) 0.2274(4)
H36 H 0.2436 0.1019 0.2202
N12 N 0.3027(4) 0.2092(3) 0.3607(4)
C127 C 0.3369(6) 0.2153(4) 0.3395(5)
C128 C 0.2695(6) 0.1823(5) 0.3376(5)
H41 H 0.3607 0.2346 0.3546
C129 C 0.3380(6) 0.1934(4) 0.2950(5)
C130 C 0.2681(6) 0.1598(4) 0.2946(5)
H42 H 0.2455 0.1784 0.3515
H43 H 0.3623 0.1989 0.2806
C131 C 0.3025(6) 0.1634(4) 0.2726(4)
H44 H 0.2436 0.1417 0.2798
Fe14 Fe 0.30548(7) 0.23947(5) 0.43389(6)
H125 H 0.407979 0.0352827 0.20713
H126 H 0.367664 0.0441371 0.197856
H130 H 0.217409 0.114507 0.0512024
H131 H 0.165868 0.078827 0.047602
H132 H 0.198533 0.0680026 0.0845686
H134 H 0.456966 0.21214 -5.06511e-18
H135 H 0.434525 0.166363 0.0358186
H136 H 0.412352 0.104729 0.150816
H137 H 0.451856 0.0945385 0.159224
H138 H 0.439464 0.103574 0.0937884
H142 H 0.432748 0.039554 0.0659657
H143 H 0.445406 0.0340614 0.133014
H151 H 0.177295 0.00822485 0.0358186
H152 H 0.143148 0.017559 5.06511e-18
H154 H 0.395588 0.186686 0.0844264
H155 H 0.417448 0.232343 0.0483513
H156 H 0.364852 0.201731 0.0507799
O26_2 O 0.3071(4) 0.0423(3) 1.0000
C93_2 C 0.2444(6) 0.0706(4) 1.0000
C94_2 C 0.3595(6) 0.1376(4) 1.0000
C99_2 C 0.2029(9) 0.0657(6) 1.0000
C100_2 C 0.3940(8) 0.1810(6) 1.0000
C110_2 C 0.1731(11) 0.0219(7) 1.0000
C112_2 C 0.4326(13) 0.1815(10) 1.0000
O35 O 0.2589(3) 0.0727(2) 0.9553(3)
C125 C 0.1957(10) 0.0829(8) 0.9509(8)
O36 O 0.3460(3) 0.1216(2) 0.9559(3)
C126 C 0.3929(9) 0.2018(5) 0.9509(8)
Fe12 Fe 0.30548(7) 0.06601(5) 0.93389(6)
O49 O 0.3504(4) 0.0630(3) 0.9008(3)
O50 O 0.2665(4) 0.0159(3) 0.8982(3)
C166 C 0.3647(7) 0.0404(5) 0.9102(6)
O51 O 0.3530(4) 0.0146(3) 0.9448(4)
C168 C 0.3995(6) 0.0478(4) 0.8735(7)
C170 C 0.4276(12) 0.0904(6) 0.867(2)
C171 C 0.4210(14) 0.0281(13) 0.8941(15)
C172 C 0.3835(22) 0.0302(17) 0.8193(9)
N15 N 0.3027(4) 0.0935(3) 0.8607(4)
H133 H 0.434525 0.166363 0.964181
H134_2 H 0.456966 0.21214 1
H152_2 H 0.143148 0.017559 1
H153 H 0.177295 0.00822485 0.964181
H184 H 0.198533 0.0680026 0.915431
H185 H 0.165868 0.078827 0.952398
H186 H 0.217409 0.114507 0.948798
H187 H 0.364852 0.201731 0.94922
H188 H 0.417448 0.232343 0.951649
H189 H 0.395588 0.186686 0.915574
H211 H 0.439464 0.103574 0.906212
H212 H 0.451856 0.0945385 0.840776
H213 H 0.412352 0.104729 0.849184
H235 H 0.367664 0.0441371 0.802144
H236 H 0.407979 0.0352827 0.79287
H251 H 0.445406 0.0340614 0.866986
H252 H 0.432748 0.039554 0.934034
Fe2 Fe 0.68566(7) 0.99592(7) 0.5000
C2 C 0.7235(5) 0.9806(4) 0.4059(5)
O9 O 0.6993(3) 0.9682(2) 0.4441(3)
N2 N 0.6274(4) 0.9415(4) 0.5000
C8 C 0.7222(4) 0.9487(5) 0.3684(6)
C13 C 0.6091(5) 0.9241(4) 0.4544(4)
C17 C 0.7176(16) 0.9583(11) 0.3115(6)
C18 C 0.6874(12) 0.9091(5) 0.3803(15)
C19 C 0.7604(12) 0.9488(17) 0.3722(19)
H5 H 0.6217 0.9354 0.4220
C25 C 0.5724(4) 0.8903(4) 0.4526(5)
H6 H 0.5606 0.8792 0.4197
C26 C 0.5533(6) 0.8729(6) 0.5000
C27 C 0.5148(5) 0.8358(5) 0.5000
C28 C 0.4949(5) 0.8165(4) 0.4527(5)
H7 H 0.5063 0.8270 0.4194
C29 C 0.4590(4) 0.7825(4) 0.4550(6)
N3 N 0.4409(5) 0.7657(5) 0.5000
H8 H 0.4467 0.7704 0.4227
Fe3 Fe 0.38363(7) 0.71299(7) 0.5000
O10 O 0.3333 0.6667 0.5000
O11 O 0.3705(3) 0.7413(3) 0.5576(4)
O12 O 0.3050(3) 0.7117(5) 0.5571(4)
C30 C 0.3380(5) 0.7347(4) 0.5749(6)
C31 C 0.3387(4) 0.7609(5) 0.6207(8)
C32 C 0.3244(9) 0.7876(7) 0.6007(11)
C33 C 0.3792(6) 0.7858(8) 0.6421(9)
C34 C 0.3126(8) 0.7368(7) 0.6650(8)
C42 C 0.6091(5) 0.9241(4) 0.5456(4)
H13 H 0.6217 0.9354 0.5780
C43 C 0.5724(4) 0.8903(4) 0.5474(5)
H14 H 0.5606 0.8792 0.5803
C44 C 0.4949(5) 0.8165(4) 0.5473(5)
H15 H 0.5063 0.8270 0.5806
C45 C 0.4590(4) 0.7825(4) 0.5450(6)
H16 H 0.4467 0.7704 0.5773
O15 O 0.3071(4) 0.2648(3) 0.5000
O16 O 0.3504(4) 0.2874(3) 0.4008(3)
O17 O 0.2665(4) 0.2506(3) 0.3982(3)
O18 O 0.2589(3) 0.1862(2) 0.4553(3)
O19 O 0.3460(3) 0.2244(2) 0.4559(3)
Fe5 Fe 0.31026(10) 0.31434(7) 0.5000
C46 C 0.3647(7) 0.3243(5) 0.4102(6)
C47 C 0.2571(6) 0.2765(5) 0.4059(5)
C48 C 0.2444(6) 0.1738(4) 0.5000
C49 C 0.3595(6) 0.2219(5) 0.5000
O20 O 0.3530(4) 0.3384(3) 0.4448(4)
O21 O 0.2689(4) 0.3007(3) 0.4441(3)
N6 N 0.3141(6) 0.3726(4) 0.5000
C52 C 0.3995(6) 0.3517(5) 0.3735(7)
C53 C 0.2265(6) 0.2778(4) 0.3684(6)
C54 C 0.2029(9) 0.1372(7) 0.5000
C55 C 0.3940(8) 0.2130(5) 0.5000
C58 C 0.3150(6) 0.3909(5) 0.4544(4)
C59 C 0.4276(12) 0.3372(10) 0.367(2)
C60 C 0.4210(14) 0.3929(5) 0.3941(15)
C61 C 0.3835(22) 0.3533(14) 0.3193(9)
C62 C 0.2407(19) 0.2824(16) 0.3115(6)
C63 C 0.2217(13) 0.3126(12) 0.3803(15)
C64 C 0.1884(21) 0.2396(12) 0.3722(19)
C65 C 0.1731(11) 0.1512(9) 0.5000
C66 C 0.1957(10) 0.1128(6) 0.4509(8)
C67 C 0.4326(13) 0.2511(8) 0.5000
C68 C 0.3929(9) 0.1911(8) 0.4509(8)
H21 H 0.3137 0.3783 0.4220
C70 C 0.3179(6) 0.4276(4) 0.4526(5)
H22 H 0.3186 0.4394 0.4197
C71 C 0.3196(8) 0.4467(6) 0.5000
C72 C 0.3210(7) 0.4852(5) 0.5000
C73 C 0.3216(6) 0.5051(5) 0.4527(5)
H23 H 0.3207 0.4937 0.4194
C74 C 0.3235(6) 0.5410(4) 0.4550(6)
N7 N 0.3248(7) 0.5591(5) 0.5000
H24 H 0.3237 0.5533 0.4227
Fe6 Fe 0.32936(10) 0.61637(7) 0.5000
O22 O 0.3708(4) 0.6295(3) 0.5576(4)
O23 O 0.4067(6) 0.6950(3) 0.5571(4)
C75 C 0.3967(6) 0.6620(5) 0.5749(6)
C76 C 0.4222(6) 0.6613(4) 0.6207(8)
C77 C 0.4632(11) 0.6756(9) 0.6007(11)
C78 C 0.4066(10) 0.6208(6) 0.6421(9)
C79 C 0.4242(11) 0.6874(8) 0.6650(8)
O24 O 0.2589(3) 0.1862(2) 0.5447(3)
C80 C 0.1957(10) 0.1128(6) 0.5491(8)
O25 O 0.3460(3) 0.2244(2) 0.5441(3)
C81 C 0.3929(9) 0.1911(8) 0.5491(8)
C87 C 0.3150(6) 0.3909(5) 0.5456(4)
H29 H 0.3137 0.3783 0.5780
C88 C 0.3179(6) 0.4276(4) 0.5474(5)
H30 H 0.3186 0.4394 0.5803
C89 C 0.3216(6) 0.5051(5) 0.5473(5)
H31 H 0.3207 0.4937 0.5806
C90 C 0.3235(6) 0.5410(4) 0.5450(6)
H32 H 0.3237 0.5533 0.5773
Fe8 Fe 0.00408(7) 0.68974(10) 0.5000
C92 C 0.0194(4) 0.7429(6) 0.4059(5)
O32 O 0.0318(2) 0.7311(4) 0.4441(3)
N10 N 0.0585(4) 0.6859(6) 0.5000
C98 C 0.0513(5) 0.7735(6) 0.3684(6)
C103 C 0.0759(4) 0.6850(6) 0.4544(4)
C107 C 0.0417(11) 0.7593(19) 0.3115(6)
C108 C 0.0909(5) 0.7783(13) 0.3803(15)
C109 C 0.0512(17) 0.8116(21) 0.3722(19)
H37 H 0.0646 0.6863 0.4220
C115 C 0.1097(4) 0.6821(6) 0.4526(5)
H38 H 0.1208 0.6814 0.4197
C116 C 0.1271(6) 0.6804(8) 0.5000
C117 C 0.1642(5) 0.6790(7) 0.5000
C118 C 0.1835(4) 0.6784(6) 0.4527(5)
H39 H 0.1730 0.6793 0.4194
C119 C 0.2175(4) 0.6765(6) 0.4550(6)
N11 N 0.2343(5) 0.6752(7) 0.5000
H40 H 0.2296 0.6763 0.4227
Fe9 Fe 0.28701(7) 0.67064(10) 0.5000
O33 O 0.2587(3) 0.6292(4) 0.5576(4)
O34 O 0.2883(5) 0.5933(6) 0.5571(4)
C120 C 0.2653(4) 0.6033(6) 0.5749(6)
C121 C 0.2391(5) 0.5778(6) 0.6207(8)
C122 C 0.2124(7) 0.5368(11) 0.6007(11)
C123 C 0.2142(8) 0.5934(10) 0.6421(9)
C124 C 0.2632(7) 0.5758(11) 0.6650(8)
C132 C 0.0759(4) 0.6850(6) 0.5456(4)
H45 H 0.0646 0.6863 0.5780
C133 C 0.1097(4) 0.6821(6) 0.5474(5)
H46 H 0.1208 0.6814 0.5803
C134 C 0.1835(4) 0.6784(6) 0.5473(5)
H47 H 0.1730 0.6793 0.5806
C135 C 0.2175(4) 0.6765(6) 0.5450(6)
H48 H 0.2296 0.6763 0.5773
C137 C 0.7235(5) 0.9806(4) 0.5941(5)
O40 O 0.6993(3) 0.9682(2) 0.5559(3)
C139 C 0.7222(4) 0.9487(5) 0.6316(6)
C143 C 0.7176(16) 0.9583(11) 0.6885(6)
C144 C 0.6874(12) 0.9091(5) 0.6197(15)
C145 C 0.7604(12) 0.9488(17) 0.6278(19)
O41 O 0.3705(3) 0.7413(3) 0.4424(4)
O42 O 0.3050(3) 0.7117(5) 0.4429(4)
C146 C 0.3380(5) 0.7347(4) 0.4251(6)
C147 C 0.3387(4) 0.7609(5) 0.3793(8)
C148 C 0.3244(9) 0.7876(7) 0.3993(11)
C149 C 0.3792(6) 0.7858(8) 0.3579(9)
C150 C 0.3126(8) 0.7368(7) 0.3350(8)
Fe11 Fe 0.30548(7) 0.23947(5) 0.56611(6)
O43 O 0.3504(4) 0.2874(3) 0.5992(3)
O44 O 0.2665(4) 0.2506(3) 0.6018(3)
C151 C 0.3647(7) 0.3243(5) 0.5898(6)
C152 C 0.2571(6) 0.2765(5) 0.5941(5)
O45 O 0.3530(4) 0.3384(3) 0.5552(4)
O46 O 0.2689(4) 0.3007(3) 0.5559(3)
C153 C 0.3995(6) 0.3517(5) 0.6265(7)
C154 C 0.2265(6) 0.2778(4) 0.6316(6)
C155 C 0.4276(12) 0.3372(10) 0.633(2)
C156 C 0.4210(14) 0.3929(5) 0.6059(15)
C157 C 0.3835(22) 0.3533(14) 0.6807(9)
C158 C 0.2407(19) 0.2824(16) 0.6885(6)
C159 C 0.2217(13) 0.3126(12) 0.6197(15)
C160 C 0.1884(21) 0.2396(12) 0.6278(19)
O47 O 0.3708(4) 0.6295(3) 0.4424(4)
O48 O 0.4067(6) 0.6950(3) 0.4429(4)
C161 C 0.3967(6) 0.6620(5) 0.4251(6)
C162 C 0.4222(6) 0.6613(4) 0.3793(8)
C163 C 0.4632(11) 0.6756(9) 0.3993(11)
C164 C 0.4066(10) 0.6208(6) 0.3579(9)
C165 C 0.4242(11) 0.6874(8) 0.3350(8)
C167 C 0.0194(4) 0.7429(6) 0.5941(5)
O52 O 0.0318(2) 0.7311(4) 0.5559(3)
C169 C 0.0513(5) 0.7735(6) 0.6316(6)
C173 C 0.0417(11) 0.7593(19) 0.6885(6)
C174 C 0.0909(5) 0.7783(13) 0.6197(15)
C175 C 0.0512(17) 0.8116(21) 0.6278(19)
O53 O 0.2587(3) 0.6292(4) 0.4424(4)
O54 O 0.2883(5) 0.5933(6) 0.4429(4)
C176 C 0.2653(4) 0.6033(6) 0.4251(6)
C177 C 0.2391(5) 0.5778(6) 0.3793(8)
C178 C 0.2124(7) 0.5368(11) 0.3993(11)
C179 C 0.2142(8) 0.5934(10) 0.3579(9)
C180 C 0.2632(7) 0.5758(11) 0.3350(8)
N14 N 0.3027(4) 0.2092(3) 0.6393(4)
H49 H 0.660167 0.91024 0.374895
H50 H 0.687316 0.887106 0.353015
H51 H 0.689176 0.90089 0.421724
H55 H 0.398635 0.804806 0.61017
H56 H 0.378599 0.804168 0.674816
H57 H 0.390299 0.766829 0.65713
H58 H 0.635159 0.998371 0.323441
H61 H 0.742676 0.987159 0.300666
H62 H 0.716672 0.935613 0.284788
H63 H 0.690099 0.959124 0.307578
H70 H 0.32261 0.716986 0.680235
H71 H 0.313647 0.756287 0.697278
H72 H 0.282224 0.719289 0.650278
H78 H 0.595477 0.996167 0.396461
H79 H 0.764951 0.942512 0.413514
H80 H 0.759553 0.926121 0.345548
H81 H 0.78471 0.97784 0.360325
H88 H 0.294155 0.769816 0.585629
H89 H 0.324867 0.806451 0.633492
H90 H 0.343696 0.806105 0.568318
H94 H 0.217409 0.102902 0.448798
H95 H 0.165868 0.0870414 0.452398
H96 H 0.198533 0.13053 0.415431
H97 H 0.412352 0.307623 0.349184
H98 H 0.451856 0.357317 0.340776
H99 H 0.439464 0.33589 0.406212
H100 H 0.363212 0.364841 0.323441
H101 H 0.407979 0.372697 0.29287
H102 H 0.367664 0.323527 0.302144
H103 H 0.434525 0.268162 0.535819
H104 H 0.456966 0.244826 0.5
H105 H 0.434525 0.268162 0.464181
H106 H 0.177295 0.16907 0.464181
H107 H 0.143148 0.125589 0.5
H108 H 0.177295 0.16907 0.535819
H109 H 0.17756 0.235049 0.413514
H110 H 0.166568 0.240447 0.345548
H111 H 0.19313 0.21529 0.360325
H112 H 0.432748 0.393194 0.434034
H113 H 0.445406 0.411344 0.366986
H114 H 0.40069 0.404523 0.396461
H115 H 0.244483 0.257324 0.300666
H116 H 0.21894 0.283328 0.284788
H117 H 0.269025 0.309901 0.307578
H118 H 0.250073 0.339833 0.374895
H119 H 0.19979 0.312684 0.353015
H120 H 0.211714 0.310824 0.421724
H121 H 0.395588 0.208902 0.415574
H122 H 0.417448 0.185106 0.451649
H123 H 0.364852 0.163121 0.44922
H124 H 0.00162858 0.636788 0.323441
H127 H 0.0897604 0.749927 0.374895
H128 H 0.112894 0.80021 0.353015
H129 H 0.0991101 0.788286 0.421724
H139 H 0.198533 0.13053 0.584569
H140 H 0.165868 0.0870414 0.547602
H141 H 0.217409 0.102902 0.551202
H144 H 0.00383289 0.59931 0.396461
H145 H 0.406171 0.601365 0.61017
H146 H 0.42557 0.621401 0.674816
H147 H 0.37653 0.609701 0.65713
H148 H 0.0128406 0.755517 0.300666
H149 H 0.0643872 0.78106 0.284788
H150 H 0.0408757 0.730975 0.307578
H157 H 0.0574883 0.82244 0.413514
H158 H 0.0738786 0.833432 0.345548
H159 H 0.0221598 0.80687 0.360325
H160 H 0.364852 0.163121 0.55078
H161 H 0.417448 0.185106 0.548351
H162 H 0.395588 0.208902 0.584426
H163 H 0.475661 0.705845 0.585629
H164 H 0.481584 0.675133 0.633492
H165 H 0.46241 0.656304 0.568318
H166 H 0.394376 0.67739 0.680235
H167 H 0.44264 0.686353 0.697278
H168 H 0.437065 0.717776 0.650278
H171 H 0.635159 0.998371 0.676559
H172 H 0.343696 0.806105 0.431682
H173 H 0.324867 0.806451 0.366508
H174 H 0.294155 0.769816 0.414371
H175 H 0.390299 0.766829 0.34287
H176 H 0.378599 0.804168 0.325184
H177 H 0.398635 0.804806 0.38983
H178 H 0.282224 0.719289 0.349722
H179 H 0.313647 0.756287 0.302722
H180 H 0.32261 0.716986 0.319765
H181 H 0.230184 0.524339 0.585629
H182 H 0.193549 0.518416 0.633492
H183 H 0.193895 0.53759 0.568318
H190 H 0.283014 0.605624 0.680235
H191 H 0.243713 0.55736 0.697278
H192 H 0.280711 0.562935 0.650278
H193 H 0.195194 0.593829 0.61017
H194 H 0.195832 0.57443 0.674816
H195 H 0.233171 0.62347 0.65713
H196 H 0.595477 0.996167 0.603539
H199 H 0.690099 0.959124 0.692422
H200 H 0.716672 0.935613 0.715212
H201 H 0.742676 0.987159 0.699334
H205 H 0.689176 0.90089 0.578276
H206 H 0.687316 0.887106 0.646985
H207 H 0.660167 0.91024 0.625105
H208 H 0.78471 0.97784 0.639675
H209 H 0.759553 0.926121 0.654452
H210 H 0.764951 0.942512 0.586486
H214 H 0.233171 0.62347 0.34287
H215 H 0.195832 0.57443 0.325184
H216 H 0.195194 0.593829 0.38983
H217 H 0.0408757 0.730975 0.692422
H218 H 0.0643872 0.78106 0.715212
H219 H 0.0128406 0.755517 0.699334
H220 H 0.367664 0.323527 0.697856
H221 H 0.407979 0.372697 0.70713
H222 H 0.363212 0.364841 0.676559
H223 H 0.280711 0.562935 0.349722
H224 H 0.243713 0.55736 0.302722
H225 H 0.283014 0.605624 0.319765
H226 H 0.193895 0.53759 0.431682
H227 H 0.193549 0.518416 0.366508
H228 H 0.230184 0.524339 0.414371
H229 H 0.40069 0.404523 0.603539
H230 H 0.445406 0.411344 0.633014
H231 H 0.432748 0.393194 0.565966
H232 H 0.37653 0.609701 0.34287
H233 H 0.42557 0.621401 0.325184
H234 H 0.406171 0.601365 0.38983
H237 H 0.00162858 0.636788 0.676559
H238 H 0.0991101 0.788286 0.578276
H239 H 0.112894 0.80021 0.646985
H240 H 0.0897604 0.749927 0.625105
H241 H 0.19313 0.21529 0.639675
H242 H 0.166568 0.240447 0.654452
H243 H 0.17756 0.235049 0.586486
H244 H 0.439464 0.33589 0.593788
H245 H 0.451856 0.357317 0.659224
H246 H 0.412352 0.307623 0.650816
H247 H 0.269025 0.309901 0.692422
H248 H 0.21894 0.283328 0.715212
H249 H 0.244483 0.257324 0.699334
H250 H 0.00383289 0.59931 0.603539
H253 H 0.211714 0.310824 0.578276
H254 H 0.19979 0.312684 0.646985
H255 H 0.250073 0.339833 0.625105
H256 H 0.0221598 0.80687 0.639675
H257 H 0.0738786 0.833432 0.654452
H258 H 0.0574883 0.82244 0.586486
H259 H 0.437065 0.717776 0.349722
H260 H 0.44264 0.686353 0.302722
H261 H 0.394376 0.67739 0.319765
H262 H 0.46241 0.656304 0.431682
H263 H 0.481584 0.675133 0.366508
H264 H 0.475661 0.705845 0.414371
C95_2 C 0.3369(6) 0.1216(5) 0.8395(5)
C96_2 C 0.2695(6) 0.0872(3) 0.8376(5)
H33_2 H 0.3607 0.1261 0.8546
C101_2 C 0.3380(6) 0.1446(4) 0.7950(5)
C102_2 C 0.2681(6) 0.1083(4) 0.7946(5)
H34_2 H 0.2455 0.0671 0.8515
H35_2 H 0.3623 0.1634 0.7806
C114_2 C 0.3025(6) 0.1391(4) 0.7726(4)
H36_2 H 0.2436 0.1019 0.7798
C127_2 C 0.3369(6) 0.2153(4) 0.6605(5)
C128_2 C 0.2695(6) 0.1823(5) 0.6624(5)
H41_2 H 0.3607 0.2346 0.6454
C129_2 C 0.3380(6) 0.1934(4) 0.7050(5)
C130_2 C 0.2681(6) 0.1598(4) 0.7054(5)
H42_2 H 0.2455 0.1784 0.6485
H43_2 H 0.3623 0.1989 0.7194
C131_2 C 0.3025(6) 0.1634(4) 0.7274(4)
H44_2 H 0.2436 0.1417 0.7202
Fe2_2 Fe 0.00408(7) 0.31434(7) 0.0000
C2_2 C 0.0194(4) 0.2765(5) 0.0941(5)
O9_2 O 0.0318(2) 0.3007(3) 0.0559(3)
N2_2 N 0.0585(4) 0.3726(4) 0.0000
C8_2 C 0.0513(5) 0.2778(4) 0.1316(6)
C13_2 C 0.0759(4) 0.3909(5) 0.0456(4)
C17_2 C 0.0417(11) 0.2824(16) 0.1885(6)
C18_2 C 0.0909(5) 0.3126(12) 0.1197(15)
C19_2 C 0.0512(17) 0.2396(12) 0.1278(19)
H5_2 H 0.0646 0.3783 0.0780
C25_2 C 0.1097(4) 0.4276(4) 0.0474(5)
H6_2 H 0.1208 0.4394 0.0803
C26_2 C 0.1271(6) 0.4467(6) 0.0000
C27_2 C 0.1642(5) 0.4852(5) 0.0000
C28_2 C 0.1835(4) 0.5051(5) 0.0473(5)
H7_2 H 0.1730 0.4937 0.0806
C29_2 C 0.2175(4) 0.5410(4) 0.0450(6)
N3_2 N 0.2343(5) 0.5591(5) 0.0000
H8_2 H 0.2296 0.5533 0.0773
Fe3_2 Fe 0.28701(7) 0.61637(7) 0.0000
O10_2 O 0.3333 0.6667 0.0000
Fe4 Fe 0.76053(5) 0.69452(7) 0.06611(6)
O15_2 O 0.7352(3) 0.6929(4) 0.0000
O16_2 O 0.7126(3) 0.6496(4) 0.0992(3)
O17_2 O 0.7494(3) 0.7335(4) 0.1018(3)
O18_2 O 0.8138(2) 0.7411(3) 0.0447(3)
O19_2 O 0.7756(2) 0.6540(3) 0.0441(3)
N5 N 0.7908(3) 0.6973(4) 0.1393(4)
Fe5_2 Fe 0.68566(7) 0.68974(10) 0.0000
C46_2 C 0.6757(5) 0.6353(7) 0.0898(6)
C47_2 C 0.7235(5) 0.7429(6) 0.0941(5)
C48_2 C 0.8262(4) 0.7556(6) 0.0000
C49_2 C 0.7781(5) 0.6405(6) 0.0000
C50 C 0.7847(4) 0.6631(6) 0.1605(5)
C51 C 0.8177(5) 0.7305(6) 0.1624(5)
O20_2 O 0.6616(3) 0.6470(4) 0.0552(4)
O21_2 O 0.6993(3) 0.7311(4) 0.0559(3)
N6_2 N 0.6274(4) 0.6859(6) 0.0000
C52_2 C 0.6483(5) 0.6005(6) 0.1265(7)
C53_2 C 0.7222(4) 0.7735(6) 0.1316(6)
C54_2 C 0.8628(7) 0.7971(9) 0.0000
C55_2 C 0.7870(5) 0.6060(8) 0.0000
H17 H 0.7654 0.6393 0.1454
C56 C 0.8066(4) 0.6620(6) 0.2050(5)
C57 C 0.8402(4) 0.7319(6) 0.2054(5)
H18 H 0.8216 0.7545 0.1485
C58_2 C 0.6091(5) 0.6850(6) 0.0456(4)
C59_2 C 0.6628(10) 0.5724(12) 0.133(2)
C60_2 C 0.6071(5) 0.5790(14) 0.1059(15)
C61_2 C 0.6467(14) 0.6165(22) 0.1807(9)
C62_2 C 0.7176(16) 0.7593(19) 0.1885(6)
C63_2 C 0.6874(12) 0.7783(13) 0.1197(15)
C64_2 C 0.7604(12) 0.8116(21) 0.1278(19)
C65_2 C 0.8488(9) 0.8269(11) 0.0000
C66_2 C 0.8872(6) 0.8043(10) 0.0491(8)
C67_2 C 0.7489(8) 0.5674(13) 0.0000
C68_2 C 0.8089(8) 0.6071(9) 0.0491(8)
H19 H 0.8011 0.6377 0.2194
C69 C 0.8366(4) 0.6975(6) 0.2274(4)
H20 H 0.8583 0.7564 0.2202
H21_2 H 0.6217 0.6863 0.0780
C70_2 C 0.5724(4) 0.6821(6) 0.0474(5)
H22_2 H 0.5606 0.6814 0.0803
C71_2 C 0.5533(6) 0.6804(8) 0.0000
C72_2 C 0.5148(5) 0.6790(7) 0.0000
C73_2 C 0.4949(5) 0.6784(6) 0.0473(5)
H23_2 H 0.5063 0.6793 0.0806
C74_2 C 0.4590(4) 0.6765(6) 0.0450(6)
N7_2 N 0.4409(5) 0.6752(7) 0.0000
H24_2 H 0.4467 0.6763 0.0773
Fe6_2 Fe 0.38363(7) 0.67064(10) 0.0000
N8 N 0.9065(3) 0.6973(4) 0.3607(4)
C82 C 0.8784(5) 0.6631(6) 0.3395(5)
C83 C 0.9128(3) 0.7305(6) 0.3376(5)
H25 H 0.8739 0.6393 0.3546
C84 C 0.8554(4) 0.6620(6) 0.2950(5)
C85 C 0.8917(4) 0.7319(6) 0.2946(5)
H26 H 0.9329 0.7545 0.3515
H27 H 0.8366 0.6377 0.2806
C86 C 0.8609(4) 0.6975(6) 0.2726(4)
H28 H 0.8981 0.7564 0.2798
Fe8_2 Fe 0.31026(10) 0.99592(7) 0.0000
C92_2 C 0.2571(6) 0.9806(4) 0.0941(5)
O32_2 O 0.2689(4) 0.9682(2) 0.0559(3)
N10_2 N 0.3141(6) 0.9415(4) 0.0000
C98_2 C 0.2265(6) 0.9487(5) 0.1316(6)
C103_2 C 0.3150(6) 0.9241(4) 0.0456(4)
C107_2 C 0.2407(19) 0.9583(11) 0.1885(6)
C108_2 C 0.2217(13) 0.9091(5) 0.1197(15)
C109_2 C 0.1884(21) 0.9488(17) 0.1278(19)
H37_2 H 0.3137 0.9354 0.0780
C115_2 C 0.3179(6) 0.8903(4) 0.0474(5)
H38_2 H 0.3186 0.8792 0.0803
C116_2 C 0.3196(8) 0.8729(6) 0.0000
C117_2 C 0.3210(7) 0.8358(5) 0.0000
C118_2 C 0.3216(6) 0.8165(4) 0.0473(5)
H39_2 H 0.3207 0.8270 0.0806
C119_2 C 0.3235(6) 0.7825(4) 0.0450(6)
N11_2 N 0.3248(7) 0.7657(5) 0.0000
H40_2 H 0.3237 0.7704 0.0773
Fe9_2 Fe 0.32936(10) 0.71299(7) 0.0000
O41_2 O 0.2587(3) 0.6295(3) 0.0576(4)
O42_2 O 0.2883(5) 0.6950(3) 0.0571(4)
C146_2 C 0.2653(4) 0.6620(5) 0.0749(6)
C147_2 C 0.2391(5) 0.6613(4) 0.1207(8)
C148_2 C 0.2124(7) 0.6756(9) 0.1007(11)
C149_2 C 0.2142(8) 0.6208(6) 0.1421(9)
C150_2 C 0.2632(7) 0.6874(8) 0.1650(8)
O47_2 O 0.3705(3) 0.6292(4) 0.0576(4)
O48_2 O 0.3050(3) 0.5933(6) 0.0571(4)
C161_2 C 0.3380(5) 0.6033(6) 0.0749(6)
C162_2 C 0.3387(4) 0.5778(6) 0.1207(8)
C163_2 C 0.3244(9) 0.5368(11) 0.1007(11)
C164_2 C 0.3792(6) 0.5934(10) 0.1421(9)
C165_2 C 0.3126(8) 0.5758(11) 0.1650(8)
O53_2 O 0.3708(4) 0.7413(3) 0.0576(4)
O54_2 O 0.4067(6) 0.7117(5) 0.0571(4)
C176_2 C 0.3967(6) 0.7347(4) 0.0749(6)
C177_2 C 0.4222(6) 0.7609(5) 0.1207(8)
C178_2 C 0.4632(11) 0.7876(7) 0.1007(11)
C179_2 C 0.4066(10) 0.7858(8) 0.1421(9)
C180_2 C 0.4242(11) 0.7368(7) 0.1650(8)
Fe15 Fe 0.93399(5) 0.69452(7) 0.43389(6)
H49_2 H 0.0897604 0.339833 0.125105
H50_2 H 0.112894 0.312684 0.146985
H51_2 H 0.0991101 0.310824 0.0782757
H58_2 H 0.00162858 0.364841 0.176559
H61_2 H 0.0128406 0.257324 0.199334
H62_2 H 0.0643872 0.283328 0.215212
H63_2 H 0.0408757 0.309901 0.192422
H78_2 H 0.00383289 0.404523 0.103539
H79_2 H 0.0574883 0.235049 0.0864862
H80_2 H 0.0738786 0.240447 0.154452
H81_2 H 0.0221598 0.21529 0.139675
H94_2 H 0.897098 0.782591 0.0512024
H95_2 H 0.912959 0.834132 0.047602
H96_2 H 0.86947 0.801467 0.0845686
H97_2 H 0.692377 0.587648 0.150816
H98_2 H 0.642683 0.548144 0.159224
H99_2 H 0.66411 0.560536 0.0937884
H100_2 H 0.635159 0.636788 0.176559
H101_2 H 0.627303 0.592021 0.20713
H102_2 H 0.676473 0.632336 0.197856
H104_2 H 0.755174 0.543034 -5.06511e-18
H105_2 H 0.731838 0.565475 0.0358186
H106_2 H 0.83093 0.822705 0.0358186
H107_2 H 0.874411 0.856852 5.06511e-18
H109_2 H 0.764951 0.82244 0.0864862
H110_2 H 0.759553 0.833432 0.154452
H111_2 H 0.78471 0.80687 0.139675
H112_2 H 0.606806 0.567252 0.0659657
H113_2 H 0.588656 0.554594 0.133014
H114_2 H 0.595477 0.59931 0.103539
H115_2 H 0.742676 0.755517 0.199334
H116_2 H 0.716672 0.78106 0.215212
H117_2 H 0.690099 0.730975 0.192422
H118_2 H 0.660167 0.749927 0.125105
H119_2 H 0.687316 0.80021 0.146985
H120_2 H 0.689176 0.788286 0.0782757
H121_2 H 0.791098 0.604412 0.0844264
H122_2 H 0.814894 0.582552 0.0483513
H123_2 H 0.836879 0.635148 0.0507799
H124_2 H 0.363212 0.998371 0.176559
H127_2 H 0.250073 0.91024 0.125105
H128_2 H 0.19979 0.887106 0.146985
H129_2 H 0.211714 0.90089 0.0782757
H144_2 H 0.40069 0.996167 0.103539
H148_2 H 0.244483 0.987159 0.199334
H149_2 H 0.21894 0.935613 0.215212
H150_2 H 0.269025 0.959124 0.192422
H157_2 H 0.17756 0.942512 0.0864862
H158_2 H 0.166568 0.926121 0.154452
H159_2 H 0.19313 0.97784 0.139675
H172_2 H 0.193895 0.656304 0.0683182
H173_2 H 0.193549 0.675133 0.133492
H174_2 H 0.230184 0.705845 0.0856292
H175_2 H 0.233171 0.609701 0.15713
H176_2 H 0.195832 0.621401 0.174816
H177_2 H 0.195194 0.601365 0.11017
H178_2 H 0.280711 0.717776 0.150278
H179_2 H 0.243713 0.686353 0.197278
H180_2 H 0.283014 0.67739 0.180235
H214_2 H 0.37653 0.766829 0.15713
H215_2 H 0.42557 0.804168 0.174816
H216_2 H 0.406171 0.804806 0.11017
H223_2 H 0.437065 0.719289 0.150278
H224_2 H 0.44264 0.756287 0.197278
H225_2 H 0.394376 0.716986 0.180235
H226_2 H 0.46241 0.806105 0.0683182
H227_2 H 0.481584 0.806451 0.133492
H228_2 H 0.475661 0.769816 0.0856292
H232_2 H 0.390299 0.62347 0.15713
H233_2 H 0.378599 0.57443 0.174816
H234_2 H 0.398635 0.593829 0.11017
H259_2 H 0.282224 0.562935 0.150278
H260_2 H 0.313647 0.55736 0.197278
H261_2 H 0.32261 0.605624 0.180235
H262_2 H 0.343696 0.53759 0.0683182
H263_2 H 0.324867 0.518416 0.133492
H264_2 H 0.294155 0.524339 0.0856292
Fe2_3 Fe 0.00408(7) 0.31434(7) 1.0000
N2_3 N 0.0585(4) 0.3726(4) 1.0000
C26_3 C 0.1271(6) 0.4467(6) 1.0000
C27_3 C 0.1642(5) 0.4852(5) 1.0000
N3_3 N 0.2343(5) 0.5591(5) 1.0000
Fe3_3 Fe 0.28701(7) 0.61637(7) 1.0000
O10_3 O 0.3333 0.6667 1.0000
O11_2 O 0.2587(3) 0.6295(3) 0.9424(4)
O12_2 O 0.2883(5) 0.6950(3) 0.9429(4)
C30_2 C 0.2653(4) 0.6620(5) 0.9251(6)
C31_2 C 0.2391(5) 0.6613(4) 0.8793(8)
C32_2 C 0.2124(7) 0.6756(9) 0.8993(11)
C33_2 C 0.2142(8) 0.6208(6) 0.8579(9)
C34_2 C 0.2632(7) 0.6874(8) 0.8350(8)
C42_2 C 0.0759(4) 0.3909(5) 0.9544(4)
H13_2 H 0.0646 0.3783 0.9220
C43_2 C 0.1097(4) 0.4276(4) 0.9526(5)
H14_2 H 0.1208 0.4394 0.9197
C44_2 C 0.1835(4) 0.5051(5) 0.9527(5)
H15_2 H 0.1730 0.4937 0.9194
C45_2 C 0.2175(4) 0.5410(4) 0.9550(6)
H16_2 H 0.2296 0.5533 0.9227
O15_3 O 0.7352(3) 0.6929(4) 1.0000
Fe5_3 Fe 0.68566(7) 0.68974(10) 1.0000
C48_3 C 0.8262(4) 0.7556(6) 1.0000
C49_3 C 0.7781(5) 0.6405(6) 1.0000
N6_3 N 0.6274(4) 0.6859(6) 1.0000
C54_3 C 0.8628(7) 0.7971(9) 1.0000
C55_3 C 0.7870(5) 0.6060(8) 1.0000
C65_3 C 0.8488(9) 0.8269(11) 1.0000
C67_3 C 0.7489(8) 0.5674(13) 1.0000
C71_3 C 0.5533(6) 0.6804(8) 1.0000
C72_3 C 0.5148(5) 0.6790(7) 1.0000
N7_3 N 0.4409(5) 0.6752(7) 1.0000
Fe6_3 Fe 0.38363(7) 0.67064(10) 1.0000
O22_2 O 0.3705(3) 0.6292(4) 0.9424(4)
O23_2 O 0.3050(3) 0.5933(6) 0.9429(4)
C75_2 C 0.3380(5) 0.6033(6) 0.9251(6)
C76_2 C 0.3387(4) 0.5778(6) 0.8793(8)
C77_2 C 0.3244(9) 0.5368(11) 0.8993(11)
C78_2 C 0.3792(6) 0.5934(10) 0.8579(9)
C79_2 C 0.3126(8) 0.5758(11) 0.8350(8)
O24_2 O 0.8138(2) 0.7411(3) 0.9553(3)
C80_2 C 0.8872(6) 0.8043(10) 0.9509(8)
O25_2 O 0.7756(2) 0.6540(3) 0.9559(3)
C81_2 C 0.8089(8) 0.6071(9) 0.9509(8)
C87_2 C 0.6091(5) 0.6850(6) 0.9544(4)
H29_2 H 0.6217 0.6863 0.9220
C88_2 C 0.5724(4) 0.6821(6) 0.9526(5)
H30_2 H 0.5606 0.6814 0.9197
C89_2 C 0.4949(5) 0.6784(6) 0.9527(5)
H31_2 H 0.5063 0.6793 0.9194
C90_2 C 0.4590(4) 0.6765(6) 0.9550(6)
H32_2 H 0.4467 0.6763 0.9227
Fe8_3 Fe 0.31026(10) 0.99592(7) 1.0000
N10_3 N 0.3141(6) 0.9415(4) 1.0000
C116_3 C 0.3196(8) 0.8729(6) 1.0000
C117_3 C 0.3210(7) 0.8358(5) 1.0000
N11_3 N 0.3248(7) 0.7657(5) 1.0000
Fe9_3 Fe 0.32936(10) 0.71299(7) 1.0000
O33_2 O 0.3708(4) 0.7413(3) 0.9424(4)
O34_2 O 0.4067(6) 0.7117(5) 0.9429(4)
C120_2 C 0.3967(6) 0.7347(4) 0.9251(6)
C121_2 C 0.4222(6) 0.7609(5) 0.8793(8)
C122_2 C 0.4632(11) 0.7876(7) 0.8993(11)
C123_2 C 0.4066(10) 0.7858(8) 0.8579(9)
C124_2 C 0.4242(11) 0.7368(7) 0.8350(8)
C132_2 C 0.3150(6) 0.9241(4) 0.9544(4)
H45_2 H 0.3137 0.9354 0.9220
C133_2 C 0.3179(6) 0.8903(4) 0.9526(5)
H46_2 H 0.3186 0.8792 0.9197
C134_2 C 0.3216(6) 0.8165(4) 0.9527(5)
H47_2 H 0.3207 0.8270 0.9194
C135_2 C 0.3235(6) 0.7825(4) 0.9550(6)
H48_2 H 0.3237 0.7704 0.9227
C137_2 C 0.0194(4) 0.2765(5) 0.9059(5)
O40_2 O 0.0318(2) 0.3007(3) 0.9441(3)
C139_2 C 0.0513(5) 0.2778(4) 0.8684(6)
C143_2 C 0.0417(11) 0.2824(16) 0.8115(6)
C144_2 C 0.0909(5) 0.3126(12) 0.8803(15)
C145_2 C 0.0512(17) 0.2396(12) 0.8722(19)
Fe11_2 Fe 0.76053(5) 0.69452(7) 0.93389(6)
O43_2 O 0.7126(3) 0.6496(4) 0.9008(3)
O44_2 O 0.7494(3) 0.7335(4) 0.8982(3)
C151_2 C 0.6757(5) 0.6353(7) 0.9102(6)
C152_2 C 0.7235(5) 0.7429(6) 0.9059(5)
O45_2 O 0.6616(3) 0.6470(4) 0.9448(4)
O46_2 O 0.6993(3) 0.7311(4) 0.9441(3)
C153_2 C 0.6483(5) 0.6005(6) 0.8735(7)
C154_2 C 0.7222(4) 0.7735(6) 0.8684(6)
C155_2 C 0.6628(10) 0.5724(12) 0.867(2)
C156_2 C 0.6071(5) 0.5790(14) 0.8941(15)
C157_2 C 0.6467(14) 0.6165(22) 0.8193(9)
C158_2 C 0.7176(16) 0.7593(19) 0.8115(6)
C159_2 C 0.6874(12) 0.7783(13) 0.8803(15)
C160_2 C 0.7604(12) 0.8116(21) 0.8722(19)
C167_2 C 0.2571(6) 0.9806(4) 0.9059(5)
O52_2 O 0.2689(4) 0.9682(2) 0.9441(3)
C169_2 C 0.2265(6) 0.9487(5) 0.8684(6)
C173_2 C 0.2407(19) 0.9583(11) 0.8115(6)
C174_2 C 0.2217(13) 0.9091(5) 0.8803(15)
C175_2 C 0.1884(21) 0.9488(17) 0.8722(19)
N14_2 N 0.7908(3) 0.6973(4) 0.8607(4)
H55_2 H 0.195194 0.601365 0.88983
H56_2 H 0.195832 0.621401 0.825184
H57_2 H 0.233171 0.609701 0.84287
H70_2 H 0.283014 0.67739 0.819765
H71_2 H 0.243713 0.686353 0.802722
H72_2 H 0.280711 0.717776 0.849722
H88_2 H 0.230184 0.705845 0.914371
H89_2 H 0.193549 0.675133 0.866508
H90_2 H 0.193895 0.656304 0.931682
H103_2 H 0.731838 0.565475 0.964181
H104_3 H 0.755174 0.543034 1
H107_3 H 0.874411 0.856852 1
H108_2 H 0.83093 0.822705 0.964181
H139_2 H 0.86947 0.801467 0.915431
H140_2 H 0.912959 0.834132 0.952398
H141_2 H 0.897098 0.782591 0.948798
H145_2 H 0.398635 0.593829 0.88983
H146_2 H 0.378599 0.57443 0.825184
H147_2 H 0.390299 0.62347 0.84287
H160_2 H 0.836879 0.635148 0.94922
H161_2 H 0.814894 0.582552 0.951649
H162_2 H 0.791098 0.604412 0.915574
H163_2 H 0.294155 0.524339 0.914371
H164_2 H 0.324867 0.518416 0.866508
H165_2 H 0.343696 0.53759 0.931682
H166_2 H 0.32261 0.605624 0.819765
H167_2 H 0.313647 0.55736 0.802722
H168_2 H 0.282224 0.562935 0.849722
H171_2 H 0.00162858 0.364841 0.823441
H181_2 H 0.475661 0.769816 0.914371
H182_2 H 0.481584 0.806451 0.866508
H183_2 H 0.46241 0.806105 0.931682
H190_2 H 0.394376 0.716986 0.819765
H191_2 H 0.44264 0.756287 0.802722
H192_2 H 0.437065 0.719289 0.849722
H193_2 H 0.406171 0.804806 0.88983
H194_2 H 0.42557 0.804168 0.825184
H195_2 H 0.37653 0.766829 0.84287
H196_2 H 0.00383289 0.404523 0.896461
H199_2 H 0.0408757 0.309901 0.807578
H200_2 H 0.0643872 0.283328 0.784788
H201_2 H 0.0128406 0.257324 0.800666
H205_2 H 0.0991101 0.310824 0.921724
H206_2 H 0.112894 0.312684 0.853015
H207_2 H 0.0897604 0.339833 0.874895
H208_2 H 0.0221598 0.21529 0.860325
H209_2 H 0.0738786 0.240447 0.845548
H210_2 H 0.0574883 0.235049 0.913514
H217_2 H 0.269025 0.959124 0.807578
H218_2 H 0.21894 0.935613 0.784788
H219_2 H 0.244483 0.987159 0.800666
H220_2 H 0.676473 0.632336 0.802144
H221_2 H 0.627303 0.592021 0.79287
H222_2 H 0.635159 0.636788 0.823441
H229_2 H 0.595477 0.59931 0.896461
H230_2 H 0.588656 0.554594 0.866986
H231_2 H 0.606806 0.567252 0.934034
H237_2 H 0.363212 0.998371 0.823441
H238_2 H 0.211714 0.90089 0.921724
H239_2 H 0.19979 0.887106 0.853015
H240_2 H 0.250073 0.91024 0.874895
H241_2 H 0.78471 0.80687 0.860325
H242_2 H 0.759553 0.833432 0.845548
H243_2 H 0.764951 0.82244 0.913514
H244_2 H 0.66411 0.560536 0.906212
H245_2 H 0.642683 0.548144 0.840776
H246_2 H 0.692377 0.587648 0.849184
H247_2 H 0.690099 0.730975 0.807578
H248_2 H 0.716672 0.78106 0.784788
H249_2 H 0.742676 0.755517 0.800666
H250_2 H 0.40069 0.996167 0.896461
H253_2 H 0.689176 0.788286 0.921724
H254_2 H 0.687316 0.80021 0.853015
H255_2 H 0.660167 0.749927 0.874895
H256_2 H 0.19313 0.97784 0.860325
H257_2 H 0.166568 0.926121 0.845548
H258_2 H 0.17756 0.942512 0.913514
O26_3 O 0.9577(3) 0.6929(4) 0.5000
O27_2 O 0.9370(3) 0.6496(4) 0.4008(3)
O28_2 O 0.9841(3) 0.7335(4) 0.3982(3)
O29_2 O 0.9273(2) 0.7411(3) 0.4553(3)
O30_2 O 0.8784(2) 0.6540(3) 0.4559(3)
C91_2 C 0.9596(5) 0.6353(7) 0.4102(6)
C93_3 C 0.9294(4) 0.7556(6) 0.5000
C94_3 C 0.8624(4) 0.6405(6) 0.5000
O31_2 O 0.9854(3) 0.6470(4) 0.4448(4)
C97_2 C 0.9522(4) 0.6005(6) 0.3735(7)
C99_3 C 0.9343(6) 0.7971(9) 0.5000
C100_3 C 0.8190(6) 0.6060(8) 0.5000
C104_2 C 0.9096(6) 0.5724(12) 0.367(2)
C105_2 C 0.9719(13) 0.5790(14) 0.3941(15)
C106_2 C 0.9698(17) 0.6165(22) 0.3193(9)
C110_3 C 0.9781(7) 0.8269(11) 0.5000
C111_2 C 0.9171(8) 0.8043(10) 0.4509(8)
C112_3 C 0.8185(10) 0.5674(13) 0.5000
C113_2 C 0.7982(5) 0.6071(9) 0.4509(8)
O35_2 O 0.9273(2) 0.7411(3) 0.5447(3)
C125_2 C 0.9171(8) 0.8043(10) 0.5491(8)
O36_2 O 0.8784(2) 0.6540(3) 0.5441(3)
C126_2 C 0.7982(5) 0.6071(9) 0.5491(8)
Fe12_2 Fe 0.93399(5) 0.69452(7) 0.56611(6)
O49_2 O 0.9370(3) 0.6496(4) 0.5992(3)
O50_2 O 0.9841(3) 0.7335(4) 0.6018(3)
C166_2 C 0.9596(5) 0.6353(7) 0.5898(6)
O51_2 O 0.9854(3) 0.6470(4) 0.5552(4)
C168_2 C 0.9522(4) 0.6005(6) 0.6265(7)
C170_2 C 0.9096(6) 0.5724(12) 0.633(2)
C171_2 C 0.9719(13) 0.5790(14) 0.6059(15)
C172_2 C 0.9698(17) 0.6165(22) 0.6807(9)
N15_2 N 0.9065(3) 0.6973(4) 0.6393(4)
H125_2 H 0.964717 0.592021 0.29287
H126_2 H 0.955863 0.632336 0.302144
H130_2 H 0.885493 0.782591 0.448798
H131_2 H 0.921173 0.834132 0.452398
H132_2 H 0.931997 0.801467 0.415431
H133_2 H 0.833637 0.565475 0.535819
H134_3 H 0.78786 0.543034 0.5
H135_2 H 0.833637 0.565475 0.464181
H136_2 H 0.895271 0.587648 0.349184
H137_2 H 0.905462 0.548144 0.340776
H138_2 H 0.896426 0.560536 0.406212
H142_2 H 0.960446 0.567252 0.434034
H143_2 H 0.965939 0.554594 0.366986
H151_2 H 0.991775 0.822705 0.464181
H152_3 H 0.982441 0.856852 0.5
H153_2 H 0.991775 0.822705 0.535819
H154_2 H 0.813314 0.604412 0.415574
H155_2 H 0.767657 0.582552 0.451649
H156_2 H 0.798269 0.635148 0.44922
H184_2 H 0.931997 0.801467 0.584569
H185_2 H 0.921173 0.834132 0.547602
H186_2 H 0.885493 0.782591 0.551202
H187_2 H 0.798269 0.635148 0.55078
H188_2 H 0.767657 0.582552 0.548351
H189_2 H 0.813314 0.604412 0.584426
H211_2 H 0.896426 0.560536 0.593788
H212_2 H 0.905462 0.548144 0.659224
H213_2 H 0.895271 0.587648 0.650816
H235_2 H 0.955863 0.632336 0.697856
H236_2 H 0.964717 0.592021 0.70713
H251_2 H 0.965939 0.554594 0.633014
H252_2 H 0.960446 0.567252 0.565966
C50_2 C 0.7847(4) 0.6631(6) 0.8395(5)
C51_2 C 0.8177(5) 0.7305(6) 0.8376(5)
H17_2 H 0.7654 0.6393 0.8546
C56_2 C 0.8066(4) 0.6620(6) 0.7950(5)
C57_2 C 0.8402(4) 0.7319(6) 0.7946(5)
H18_2 H 0.8216 0.7545 0.8515
H19_2 H 0.8011 0.6377 0.7806
C69_2 C 0.8366(4) 0.6975(6) 0.7726(4)
H20_2 H 0.8583 0.7564 0.7798
C82_2 C 0.8784(5) 0.6631(6) 0.6605(5)
C83_2 C 0.9128(3) 0.7305(6) 0.6624(5)
H25_2 H 0.8739 0.6393 0.6454
C84_2 C 0.8554(4) 0.6620(6) 0.7050(5)
C85_2 C 0.8917(4) 0.7319(6) 0.7054(5)
H26_2 H 0.9329 0.7545 0.6485
H27_2 H 0.8366 0.6377 0.7194
C86_2 C 0.8609(4) 0.6975(6) 0.7274(4)
H28_2 H 0.8981 0.7564 0.7202
Fe1 Fe 0.93399(5) 0.23947(5) 0.06611(6)
O3 O 0.9577(3) 0.2648(3) 0.0000
O4 O 0.9370(3) 0.2874(3) 0.0992(3)
O5 O 0.9841(3) 0.2506(3) 0.1018(3)
O6 O 0.9273(2) 0.1862(2) 0.0447(3)
O7 O 0.8784(2) 0.2244(2) 0.0441(3)
N1 N 0.9065(3) 0.2092(3) 0.1393(4)
C1 C 0.9596(5) 0.3243(5) 0.0898(6)
C3 C 0.9294(4) 0.1738(4) 0.0000
C4 C 0.8624(4) 0.2219(5) 0.0000
C5 C 0.8784(5) 0.2153(4) 0.1605(5)
C6 C 0.9128(3) 0.1823(5) 0.1624(5)
O8 O 0.9854(3) 0.3384(3) 0.0552(4)
C7 C 0.9522(4) 0.3517(5) 0.1265(7)
C9 C 0.9343(6) 0.1372(7) 0.0000
C10 C 0.8190(6) 0.2130(5) 0.0000
H1 H 0.8739 0.2346 0.1454
C11 C 0.8554(4) 0.1934(4) 0.2050(5)
C12 C 0.8917(4) 0.1598(4) 0.2054(5)
H2 H 0.9329 0.1784 0.1485
C14 C 0.9096(6) 0.3372(10) 0.133(2)
C15 C 0.9719(13) 0.3929(5) 0.1059(15)
C16 C 0.9698(17) 0.3533(14) 0.1807(9)
C20 C 0.9781(7) 0.1512(9) 0.0000
C21 C 0.9171(8) 0.1128(6) 0.0491(8)
C22 C 0.8185(10) 0.2511(8) 0.0000
C23 C 0.7982(5) 0.1911(8) 0.0491(8)
H3 H 0.8366 0.1989 0.2194
C24 C 0.8609(4) 0.1634(4) 0.2274(4)
H4 H 0.8981 0.1417 0.2202
N4 N 0.7908(3) 0.0935(3) 0.3607(4)
C37 C 0.7847(4) 0.1216(5) 0.3395(5)
C38 C 0.8177(5) 0.0872(3) 0.3376(5)
H9 H 0.7654 0.1261 0.3546
C39 C 0.8066(4) 0.1446(4) 0.2950(5)
C40 C 0.8402(4) 0.1083(4) 0.2946(5)
H10 H 0.8216 0.0671 0.3515
H11 H 0.8011 0.1634 0.2806
C41 C 0.8366(4) 0.1391(4) 0.2726(4)
H12 H 0.8583 0.1019 0.2798
Fe13 Fe 0.76053(5) 0.06601(5) 0.43389(6)
H52 H 0.885493 0.102902 0.0512024
H53 H 0.921173 0.0870414 0.047602
H54 H 0.931997 0.13053 0.0845686
H59 H 0.964717 0.372697 0.20713
H60 H 0.955863 0.323527 0.197856
H64 H 0.991775 0.16907 0.0358186
H65 H 0.982441 0.125589 5.06511e-18
H67 H 0.813314 0.208902 0.0844264
H68 H 0.767657 0.185106 0.0483513
H69 H 0.798269 0.163121 0.0507799
H76 H 0.960446 0.393194 0.0659657
H77 H 0.965939 0.411344 0.133014
H83 H 0.78786 0.244826 -5.06511e-18
H84 H 0.833637 0.268162 0.0358186
H91 H 0.895271 0.307623 0.150816
H92 H 0.905462 0.357317 0.159224
H93 H 0.896426 0.33589 0.0937884
O3_2 O 0.9577(3) 0.2648(3) 1.0000
C3_2 C 0.9294(4) 0.1738(4) 1.0000
C4_2 C 0.8624(4) 0.2219(5) 1.0000
C9_2 C 0.9343(6) 0.1372(7) 1.0000
C10_2 C 0.8190(6) 0.2130(5) 1.0000
C20_2 C 0.9781(7) 0.1512(9) 1.0000
C22_2 C 0.8185(10) 0.2511(8) 1.0000
O13 O 0.9273(2) 0.1862(2) 0.9553(3)
C35 C 0.9171(8) 0.1128(6) 0.9509(8)
O14 O 0.8784(2) 0.2244(2) 0.9559(3)
C36 C 0.7982(5) 0.1911(8) 0.9509(8)
Fe10 Fe 0.93399(5) 0.23947(5) 0.93389(6)
O37 O 0.9370(3) 0.2874(3) 0.9008(3)
O38 O 0.9841(3) 0.2506(3) 0.8982(3)
C136 C 0.9596(5) 0.3243(5) 0.9102(6)
O39 O 0.9854(3) 0.3384(3) 0.9448(4)
C138 C 0.9522(4) 0.3517(5) 0.8735(7)
C140 C 0.9096(6) 0.3372(10) 0.867(2)
C141 C 0.9719(13) 0.3929(5) 0.8941(15)
C142 C 0.9698(17) 0.3533(14) 0.8193(9)
N13 N 0.9065(3) 0.2092(3) 0.8607(4)
H65_2 H 0.982441 0.125589 1
H66 H 0.991775 0.16907 0.964181
H73 H 0.798269 0.163121 0.94922
H74 H 0.767657 0.185106 0.951649
H75 H 0.813314 0.208902 0.915574
H82 H 0.833637 0.268162 0.964181
H83_2 H 0.78786 0.244826 1
H85 H 0.931997 0.13053 0.915431
H86 H 0.921173 0.0870414 0.952398
H87 H 0.885493 0.102902 0.948798
H169 H 0.955863 0.323527 0.802144
H170 H 0.964717 0.372697 0.79287
H197 H 0.965939 0.411344 0.866986
H198 H 0.960446 0.393194 0.934034
H202 H 0.896426 0.33589 0.906212
H203 H 0.905462 0.357317 0.840776
H204 H 0.895271 0.307623 0.849184
O3_3 O 0.7352(3) 0.0423(3) 0.5000
O4_2 O 0.7126(3) 0.0630(3) 0.4008(3)
O5_2 O 0.7494(3) 0.0159(3) 0.3982(3)
O6_2 O 0.8138(2) 0.0727(2) 0.4553(3)
O7_2 O 0.7756(2) 0.1216(2) 0.4559(3)
C1_2 C 0.6757(5) 0.0404(5) 0.4102(6)
C3_3 C 0.8262(4) 0.0706(4) 0.5000
C4_3 C 0.7781(5) 0.1376(4) 0.5000
O8_2 O 0.6616(3) 0.0146(3) 0.4448(4)
C7_2 C 0.6483(5) 0.0478(4) 0.3735(7)
C9_3 C 0.8628(7) 0.0657(6) 0.5000
C10_3 C 0.7870(5) 0.1810(6) 0.5000
C14_2 C 0.6628(10) 0.0904(6) 0.367(2)
C15_2 C 0.6071(5) 0.0281(13) 0.3941(15)
C16_2 C 0.6467(14) 0.0302(17) 0.3193(9)
C20_3 C 0.8488(9) 0.0219(7) 0.5000
C21_2 C 0.8872(6) 0.0829(8) 0.4509(8)
C22_3 C 0.7489(8) 0.1815(10) 0.5000
C23_2 C 0.8089(8) 0.2018(5) 0.4509(8)
O13_2 O 0.8138(2) 0.0727(2) 0.5447(3)
C35_2 C 0.8872(6) 0.0829(8) 0.5491(8)
O14_2 O 0.7756(2) 0.1216(2) 0.5441(3)
C36_2 C 0.8089(8) 0.2018(5) 0.5491(8)
Fe10_2 Fe 0.76053(5) 0.06601(5) 0.56611(6)
O37_2 O 0.7126(3) 0.0630(3) 0.5992(3)
O38_2 O 0.7494(3) 0.0159(3) 0.6018(3)
C136_2 C 0.6757(5) 0.0404(5) 0.5898(6)
O39_2 O 0.6616(3) 0.0146(3) 0.5552(4)
C138_2 C 0.6483(5) 0.0478(4) 0.6265(7)
C140_2 C 0.6628(10) 0.0904(6) 0.633(2)
C141_2 C 0.6071(5) 0.0281(13) 0.6059(15)
C142_2 C 0.6467(14) 0.0302(17) 0.6807(9)
N13_2 N 0.7908(3) 0.0935(3) 0.6393(4)
H52_2 H 0.897098 0.114507 0.448798
H53_2 H 0.912959 0.078827 0.452398
H54_2 H 0.86947 0.0680026 0.415431
H59_2 H 0.627303 0.0352827 0.29287
H60_2 H 0.676473 0.0441371 0.302144
H64_2 H 0.83093 0.00822485 0.464181
H65_3 H 0.874411 0.017559 0.5
H66_2 H 0.83093 0.00822485 0.535819
H67_2 H 0.791098 0.186686 0.415574
H68_2 H 0.814894 0.232343 0.451649
H69_2 H 0.836879 0.201731 0.44922
H73_2 H 0.836879 0.201731 0.55078
H74_2 H 0.814894 0.232343 0.548351
H75_2 H 0.791098 0.186686 0.584426
H76_2 H 0.606806 0.039554 0.434034
H77_2 H 0.588656 0.0340614 0.366986
H82_2 H 0.731838 0.166363 0.535819
H83_3 H 0.755174 0.21214 0.5
H84_2 H 0.731838 0.166363 0.464181
H85_2 H 0.86947 0.0680026 0.584569
H86_2 H 0.912959 0.078827 0.547602
H87_2 H 0.897098 0.114507 0.551202
H91_2 H 0.692377 0.104729 0.349184
H92_2 H 0.642683 0.0945385 0.340776
H93_2 H 0.66411 0.103574 0.406212
H169_2 H 0.676473 0.0441371 0.697856
H170_2 H 0.627303 0.0352827 0.70713
H197_2 H 0.588656 0.0340614 0.633014
H198_2 H 0.606806 0.039554 0.565966
H202_2 H 0.66411 0.103574 0.593788
H203_2 H 0.642683 0.0945385 0.659224
H204_2 H 0.692377 0.104729 0.650816
C5_2 C 0.8784(5) 0.2153(4) 0.8395(5)
C6_2 C 0.9128(3) 0.1823(5) 0.8376(5)
H1_2 H 0.8739 0.2346 0.8546
C11_2 C 0.8554(4) 0.1934(4) 0.7950(5)
C12_2 C 0.8917(4) 0.1598(4) 0.7946(5)
H2_2 H 0.9329 0.1784 0.8515
H3_2 H 0.8366 0.1989 0.7806
C24_2 C 0.8609(4) 0.1634(4) 0.7726(4)
H4_2 H 0.8981 0.1417 0.7798
C37_2 C 0.7847(4) 0.1216(5) 0.6605(5)
C38_2 C 0.8177(5) 0.0872(3) 0.6624(5)
H9_2 H 0.7654 0.1261 0.6454
C39_2 C 0.8066(4) 0.1446(4) 0.7050(5)
C40_2 C 0.8402(4) 0.1083(4) 0.7054(5)
H10_2 H 0.8216 0.0671 0.6485
H11_2 H 0.8011 0.1634 0.7194
C41_2 C 0.8366(4) 0.1391(4) 0.7274(4)
H12_2 H 0.8583 0.1019 0.7202
Fe1_2 Fe 0.06601(5) 0.76053(5) 0.06611(6)
O3_4 O 0.0423(3) 0.7352(3) 0.0000
O4_3 O 0.0630(3) 0.7126(3) 0.0992(3)
O5_3 O 0.0159(3) 0.7494(3) 0.1018(3)
O6_3 O 0.0727(2) 0.8138(2) 0.0447(3)
O7_3 O 0.1216(2) 0.7756(2) 0.0441(3)
N1_2 N 0.0935(3) 0.7908(3) 0.1393(4)
C1_3 C 0.0404(5) 0.6757(5) 0.0898(6)
C3_4 C 0.0706(4) 0.8262(4) 0.0000
C4_4 C 0.1376(4) 0.7781(5) 0.0000
C5_3 C 0.1216(5) 0.7847(4) 0.1605(5)
C6_3 C 0.0872(3) 0.8177(5) 0.1624(5)
O8_3 O 0.0146(3) 0.6616(3) 0.0552(4)
C7_3 C 0.0478(4) 0.6483(5) 0.1265(7)
C9_4 C 0.0657(6) 0.8628(7) 0.0000
C10_4 C 0.1810(6) 0.7870(5) 0.0000
H1_3 H 0.1261 0.7654 0.1454
C11_3 C 0.1446(4) 0.8066(4) 0.2050(5)
C12_3 C 0.1083(4) 0.8402(4) 0.2054(5)
H2_3 H 0.0671 0.8216 0.1485
C14_3 C 0.0904(6) 0.6628(10) 0.133(2)
C15_3 C 0.0281(13) 0.6071(5) 0.1059(15)
C16_3 C 0.0302(17) 0.6467(14) 0.1807(9)
C20_4 C 0.0219(7) 0.8488(9) 0.0000
C21_3 C 0.0829(8) 0.8872(6) 0.0491(8)
C22_4 C 0.1815(10) 0.7489(8) 0.0000
C23_3 C 0.2018(5) 0.8089(8) 0.0491(8)
H3_3 H 0.1634 0.8011 0.2194
C24_3 C 0.1391(4) 0.8366(4) 0.2274(4)
H4_3 H 0.1019 0.8583 0.2202
N4_2 N 0.2092(3) 0.9065(3) 0.3607(4)
C37_3 C 0.2153(4) 0.8784(5) 0.3395(5)
C38_3 C 0.1823(5) 0.9128(3) 0.3376(5)
H9_3 H 0.2346 0.8739 0.3546
C39_3 C 0.1934(4) 0.8554(4) 0.2950(5)
C40_3 C 0.1598(4) 0.8917(4) 0.2946(5)
H10_3 H 0.1784 0.9329 0.3515
H11_3 H 0.1989 0.8366 0.2806
C41_3 C 0.1634(4) 0.8609(4) 0.2726(4)
H12_3 H 0.1417 0.8981 0.2798
Fe13_2 Fe 0.23947(5) 0.93399(5) 0.43389(6)
H52_3 H 0.114507 0.897098 0.0512024
H53_3 H 0.078827 0.912959 0.047602
H54_3 H 0.0680026 0.86947 0.0845686
H59_3 H 0.0352827 0.627303 0.20713
H60_3 H 0.0441371 0.676473 0.197856
H64_3 H 0.00822485 0.83093 0.0358186
H65_4 H 0.017559 0.874411 5.06511e-18
H67_3 H 0.186686 0.791098 0.0844264
H68_3 H 0.232343 0.814894 0.0483513
H69_3 H 0.201731 0.836879 0.0507799
H76_3 H 0.039554 0.606806 0.0659657
H77_3 H 0.0340614 0.588656 0.133014
H83_4 H 0.21214 0.755174 -5.06511e-18
H84_3 H 0.166363 0.731838 0.0358186
H91_3 H 0.104729 0.692377 0.150816
H92_3 H 0.0945385 0.642683 0.159224
H93_3 H 0.103574 0.66411 0.0937884
O3_5 O 0.0423(3) 0.7352(3) 1.0000
C3_5 C 0.0706(4) 0.8262(4) 1.0000
C4_5 C 0.1376(4) 0.7781(5) 1.0000
C9_5 C 0.0657(6) 0.8628(7) 1.0000
C10_5 C 0.1810(6) 0.7870(5) 1.0000
C20_5 C 0.0219(7) 0.8488(9) 1.0000
C22_5 C 0.1815(10) 0.7489(8) 1.0000
O13_3 O 0.0727(2) 0.8138(2) 0.9553(3)
C35_3 C 0.0829(8) 0.8872(6) 0.9509(8)
O14_3 O 0.1216(2) 0.7756(2) 0.9559(3)
C36_3 C 0.2018(5) 0.8089(8) 0.9509(8)
Fe10_3 Fe 0.06601(5) 0.76053(5) 0.93389(6)
O37_3 O 0.0630(3) 0.7126(3) 0.9008(3)
O38_3 O 0.0159(3) 0.7494(3) 0.8982(3)
C136_3 C 0.0404(5) 0.6757(5) 0.9102(6)
O39_3 O 0.0146(3) 0.6616(3) 0.9448(4)
C138_3 C 0.0478(4) 0.6483(5) 0.8735(7)
C140_3 C 0.0904(6) 0.6628(10) 0.867(2)
C141_3 C 0.0281(13) 0.6071(5) 0.8941(15)
C142_3 C 0.0302(17) 0.6467(14) 0.8193(9)
N13_3 N 0.0935(3) 0.7908(3) 0.8607(4)
H65_5 H 0.017559 0.874411 1
H66_3 H 0.00822485 0.83093 0.964181
H73_3 H 0.201731 0.836879 0.94922
H74_3 H 0.232343 0.814894 0.951649
H75_3 H 0.186686 0.791098 0.915574
H82_3 H 0.166363 0.731838 0.964181
H83_5 H 0.21214 0.755174 1
H85_3 H 0.0680026 0.86947 0.915431
H86_3 H 0.078827 0.912959 0.952398
H87_3 H 0.114507 0.897098 0.948798
H169_3 H 0.0441371 0.676473 0.802144
H170_3 H 0.0352827 0.627303 0.79287
H197_3 H 0.0340614 0.588656 0.866986
H198_3 H 0.039554 0.606806 0.934034
H202_3 H 0.103574 0.66411 0.906212
H203_3 H 0.0945385 0.642683 0.840776
H204_3 H 0.104729 0.692377 0.849184
O3_6 O 0.2648(3) 0.9577(3) 0.5000
O4_4 O 0.2874(3) 0.9370(3) 0.4008(3)
O5_4 O 0.2506(3) 0.9841(3) 0.3982(3)
O6_4 O 0.1862(2) 0.9273(2) 0.4553(3)
O7_4 O 0.2244(2) 0.8784(2) 0.4559(3)
C1_4 C 0.3243(5) 0.9596(5) 0.4102(6)
C3_6 C 0.1738(4) 0.9294(4) 0.5000
C4_6 C 0.2219(5) 0.8624(4) 0.5000
O8_4 O 0.3384(3) 0.9854(3) 0.4448(4)
C7_4 C 0.3517(5) 0.9522(4) 0.3735(7)
C9_6 C 0.1372(7) 0.9343(6) 0.5000
C10_6 C 0.2130(5) 0.8190(6) 0.5000
C14_4 C 0.3372(10) 0.9096(6) 0.367(2)
C15_4 C 0.3929(5) 0.9719(13) 0.3941(15)
C16_4 C 0.3533(14) 0.9698(17) 0.3193(9)
C20_6 C 0.1512(9) 0.9781(7) 0.5000
C21_4 C 0.1128(6) 0.9171(8) 0.4509(8)
C22_6 C 0.2511(8) 0.8185(10) 0.5000
C23_4 C 0.1911(8) 0.7982(5) 0.4509(8)
O13_4 O 0.1862(2) 0.9273(2) 0.5447(3)
C35_4 C 0.1128(6) 0.9171(8) 0.5491(8)
O14_4 O 0.2244(2) 0.8784(2) 0.5441(3)
C36_4 C 0.1911(8) 0.7982(5) 0.5491(8)
Fe10_4 Fe 0.23947(5) 0.93399(5) 0.56611(6)
O37_4 O 0.2874(3) 0.9370(3) 0.5992(3)
O38_4 O 0.2506(3) 0.9841(3) 0.6018(3)
C136_4 C 0.3243(5) 0.9596(5) 0.5898(6)
O39_4 O 0.3384(3) 0.9854(3) 0.5552(4)
C138_4 C 0.3517(5) 0.9522(4) 0.6265(7)
C140_4 C 0.3372(10) 0.9096(6) 0.633(2)
C141_4 C 0.3929(5) 0.9719(13) 0.6059(15)
C142_4 C 0.3533(14) 0.9698(17) 0.6807(9)
N13_4 N 0.2092(3) 0.9065(3) 0.6393(4)
H52_4 H 0.102902 0.885493 0.448798
H53_4 H 0.0870414 0.921173 0.452398
H54_4 H 0.13053 0.931997 0.415431
H59_4 H 0.372697 0.964717 0.29287
H60_4 H 0.323527 0.955863 0.302144
H64_4 H 0.16907 0.991775 0.464181
H65_6 H 0.125589 0.982441 0.5
H66_4 H 0.16907 0.991775 0.535819
H67_4 H 0.208902 0.813314 0.415574
H68_4 H 0.185106 0.767657 0.451649
H69_4 H 0.163121 0.798269 0.44922
H73_4 H 0.163121 0.798269 0.55078
H74_4 H 0.185106 0.767657 0.548351
H75_4 H 0.208902 0.813314 0.584426
H76_4 H 0.393194 0.960446 0.434034
H77_4 H 0.411344 0.965939 0.366986
H82_4 H 0.268162 0.833637 0.535819
H83_6 H 0.244826 0.78786 0.5
H84_4 H 0.268162 0.833637 0.464181
H85_4 H 0.13053 0.931997 0.584569
H86_4 H 0.0870414 0.921173 0.547602
H87_4 H 0.102902 0.885493 0.551202
H91_4 H 0.307623 0.895271 0.349184
H92_4 H 0.357317 0.905462 0.340776
H93_4 H 0.33589 0.896426 0.406212
H169_4 H 0.323527 0.955863 0.697856
H170_4 H 0.372697 0.964717 0.70713
H197_4 H 0.411344 0.965939 0.633014
H198_4 H 0.393194 0.960446 0.565966
H202_4 H 0.33589 0.896426 0.593788
H203_4 H 0.357317 0.905462 0.659224
H204_4 H 0.307623 0.895271 0.650816
C5_4 C 0.1216(5) 0.7847(4) 0.8395(5)
C6_4 C 0.0872(3) 0.8177(5) 0.8376(5)
H1_4 H 0.1261 0.7654 0.8546
C11_4 C 0.1446(4) 0.8066(4) 0.7950(5)
C12_4 C 0.1083(4) 0.8402(4) 0.7946(5)
H2_4 H 0.0671 0.8216 0.8515
H3_4 H 0.1634 0.8011 0.7806
C24_4 C 0.1391(4) 0.8366(4) 0.7726(4)
H4_4 H 0.1019 0.8583 0.7798
C37_4 C 0.2153(4) 0.8784(5) 0.6605(5)
C38_4 C 0.1823(5) 0.9128(3) 0.6624(5)
H9_4 H 0.2346 0.8739 0.6454
C39_4 C 0.1934(4) 0.8554(4) 0.7050(5)
C40_4 C 0.1598(4) 0.8917(4) 0.7054(5)
H10_4 H 0.1784 0.9329 0.6485
H11_4 H 0.1989 0.8366 0.7194
C41_4 C 0.1634(4) 0.8609(4) 0.7274(4)
H12_4 H 0.1417 0.8981 0.7202
Fe2_4 Fe 0.99592(7) 0.68566(7) 0.0000
C2_3 C 0.9806(4) 0.7235(5) 0.0941(5)
O9_3 O 0.9682(2) 0.6993(3) 0.0559(3)
N2_4 N 0.9415(4) 0.6274(4) 0.0000
C8_3 C 0.9487(5) 0.7222(4) 0.1316(6)
C13_3 C 0.9241(4) 0.6091(5) 0.0456(4)
C17_3 C 0.9583(11) 0.7176(16) 0.1885(6)
C18_3 C 0.9091(5) 0.6874(12) 0.1197(15)
C19_3 C 0.9488(17) 0.7604(12) 0.1278(19)
H5_3 H 0.9354 0.6217 0.0780
C25_3 C 0.8903(4) 0.5724(4) 0.0474(5)
H6_3 H 0.8792 0.5606 0.0803
C26_4 C 0.8729(6) 0.5533(6) 0.0000
C27_4 C 0.8358(5) 0.5148(5) 0.0000
C28_3 C 0.8165(4) 0.4949(5) 0.0473(5)
H7_3 H 0.8270 0.5063 0.0806
C29_3 C 0.7825(4) 0.4590(4) 0.0450(6)
N3_4 N 0.7657(5) 0.4409(5) 0.0000
H8_3 H 0.7704 0.4467 0.0773
Fe3_4 Fe 0.71299(7) 0.38363(7) 0.0000
O10_4 O 0.6667 0.3333 0.0000
Fe4_2 Fe 0.23947(5) 0.30548(7) 0.06611(6)
O15_4 O 0.2648(3) 0.3071(4) 0.0000
O16_3 O 0.2874(3) 0.3504(4) 0.0992(3)
O17_3 O 0.2506(3) 0.2665(4) 0.1018(3)
O18_3 O 0.1862(2) 0.2589(3) 0.0447(3)
O19_3 O 0.2244(2) 0.3460(3) 0.0441(3)
N5_2 N 0.2092(3) 0.3027(4) 0.1393(4)
Fe5_4 Fe 0.31434(7) 0.31026(10) 0.0000
C46_3 C 0.3243(5) 0.3647(7) 0.0898(6)
C47_3 C 0.2765(5) 0.2571(6) 0.0941(5)
C48_4 C 0.1738(4) 0.2444(6) 0.0000
C49_4 C 0.2219(5) 0.3595(6) 0.0000
C50_3 C 0.2153(4) 0.3369(6) 0.1605(5)
C51_3 C 0.1823(5) 0.2695(6) 0.1624(5)
O20_3 O 0.3384(3) 0.3530(4) 0.0552(4)
O21_3 O 0.3007(3) 0.2689(4) 0.0559(3)
N6_4 N 0.3726(4) 0.3141(6) 0.0000
C52_3 C 0.3517(5) 0.3995(6) 0.1265(7)
C53_3 C 0.2778(4) 0.2265(6) 0.1316(6)
C54_4 C 0.1372(7) 0.2029(9) 0.0000
C55_4 C 0.2130(5) 0.3940(8) 0.0000
H17_3 H 0.2346 0.3607 0.1454
C56_3 C 0.1934(4) 0.3380(6) 0.2050(5)
C57_3 C 0.1598(4) 0.2681(6) 0.2054(5)
H18_3 H 0.1784 0.2455 0.1485
C58_3 C 0.3909(5) 0.3150(6) 0.0456(4)
C59_3 C 0.3372(10) 0.4276(12) 0.133(2)
C60_3 C 0.3929(5) 0.4210(14) 0.1059(15)
C61_3 C 0.3533(14) 0.3835(22) 0.1807(9)
C62_3 C 0.2824(16) 0.2407(19) 0.1885(6)
C63_3 C 0.3126(12) 0.2217(13) 0.1197(15)
C64_3 C 0.2396(12) 0.1884(21) 0.1278(19)
C65_4 C 0.1512(9) 0.1731(11) 0.0000
C66_3 C 0.1128(6) 0.1957(10) 0.0491(8)
C67_4 C 0.2511(8) 0.4326(13) 0.0000
C68_3 C 0.1911(8) 0.3929(9) 0.0491(8)
H19_3 H 0.1989 0.3623 0.2194
C69_3 C 0.1634(4) 0.3025(6) 0.2274(4)
H20_3 H 0.1417 0.2436 0.2202
H21_3 H 0.3783 0.3137 0.0780
C70_3 C 0.4276(4) 0.3179(6) 0.0474(5)
H22_3 H 0.4394 0.3186 0.0803
C71_4 C 0.4467(6) 0.3196(8) 0.0000
C72_4 C 0.4852(5) 0.3210(7) 0.0000
C73_3 C 0.5051(5) 0.3216(6) 0.0473(5)
H23_3 H 0.4937 0.3207 0.0806
C74_3 C 0.5410(4) 0.3235(6) 0.0450(6)
N7_4 N 0.5591(5) 0.3248(7) 0.0000
H24_3 H 0.5533 0.3237 0.0773
Fe6_4 Fe 0.61637(7) 0.32936(10) 0.0000
N8_2 N 0.0935(3) 0.3027(4) 0.3607(4)
C82_3 C 0.1216(5) 0.3369(6) 0.3395(5)
C83_3 C 0.0872(3) 0.2695(6) 0.3376(5)
H25_3 H 0.1261 0.3607 0.3546
C84_3 C 0.1446(4) 0.3380(6) 0.2950(5)
C85_3 C 0.1083(4) 0.2681(6) 0.2946(5)
H26_3 H 0.0671 0.2455 0.3515
H27_3 H 0.1634 0.3623 0.2806
C86_3 C 0.1391(4) 0.3025(6) 0.2726(4)
H28_3 H 0.1019 0.2436 0.2798
Fe8_4 Fe 0.68974(10) 0.00408(7) 0.0000
C92_3 C 0.7429(6) 0.0194(4) 0.0941(5)
O32_3 O 0.7311(4) 0.0318(2) 0.0559(3)
N10_4 N 0.6859(6) 0.0585(4) 0.0000
C98_3 C 0.7735(6) 0.0513(5) 0.1316(6)
C103_3 C 0.6850(6) 0.0759(4) 0.0456(4)
C107_3 C 0.7593(19) 0.0417(11) 0.1885(6)
C108_3 C 0.7783(13) 0.0909(5) 0.1197(15)
C109_3 C 0.8116(21) 0.0512(17) 0.1278(19)
H37_3 H 0.6863 0.0646 0.0780
C115_3 C 0.6821(6) 0.1097(4) 0.0474(5)
H38_3 H 0.6814 0.1208 0.0803
C116_4 C 0.6804(8) 0.1271(6) 0.0000
C117_4 C 0.6790(7) 0.1642(5) 0.0000
C118_3 C 0.6784(6) 0.1835(4) 0.0473(5)
H39_3 H 0.6793 0.1730 0.0806
C119_3 C 0.6765(6) 0.2175(4) 0.0450(6)
N11_4 N 0.6752(7) 0.2343(5) 0.0000
H40_3 H 0.6763 0.2296 0.0773
Fe9_4 Fe 0.67064(10) 0.28701(7) 0.0000
O41_3 O 0.7413(3) 0.3705(3) 0.0576(4)
O42_3 O 0.7117(5) 0.3050(3) 0.0571(4)
C146_3 C 0.7347(4) 0.3380(5) 0.0749(6)
C147_3 C 0.7609(5) 0.3387(4) 0.1207(8)
C148_3 C 0.7876(7) 0.3244(9) 0.1007(11)
C149_3 C 0.7858(8) 0.3792(6) 0.1421(9)
C150_3 C 0.7368(7) 0.3126(8) 0.1650(8)
O47_3 O 0.6295(3) 0.3708(4) 0.0576(4)
O48_3 O 0.6950(3) 0.4067(6) 0.0571(4)
C161_3 C 0.6620(5) 0.3967(6) 0.0749(6)
C162_3 C 0.6613(4) 0.4222(6) 0.1207(8)
C163_3 C 0.6756(9) 0.4632(11) 0.1007(11)
C164_3 C 0.6208(6) 0.4066(10) 0.1421(9)
C165_3 C 0.6874(8) 0.4242(11) 0.1650(8)
O53_3 O 0.6292(4) 0.2587(3) 0.0576(4)
O54_3 O 0.5933(6) 0.2883(5) 0.0571(4)
C176_3 C 0.6033(6) 0.2653(4) 0.0749(6)
C177_3 C 0.5778(6) 0.2391(5) 0.1207(8)
C178_3 C 0.5368(11) 0.2124(7) 0.1007(11)
C179_3 C 0.5934(10) 0.2142(8) 0.1421(9)
C180_3 C 0.5758(11) 0.2632(7) 0.1650(8)
Fe15_2 Fe 0.06601(5) 0.30548(7) 0.43389(6)
H49_3 H 0.91024 0.660167 0.125105
H50_3 H 0.887106 0.687316 0.146985
H51_3 H 0.90089 0.689176 0.0782757
H58_3 H 0.998371 0.635159 0.176559
H61_3 H 0.987159 0.742676 0.199334
H62_3 H 0.935613 0.716672 0.215212
H63_3 H 0.959124 0.690099 0.192422
H78_3 H 0.996167 0.595477 0.103539
H79_3 H 0.942512 0.764951 0.0864862
H80_3 H 0.926121 0.759553 0.154452
H81_3 H 0.97784 0.78471 0.139675
H94_3 H 0.102902 0.217409 0.0512024
H95_3 H 0.0870414 0.165868 0.047602
H96_3 H 0.13053 0.198533 0.0845686
H97_3 H 0.307623 0.412352 0.150816
H98_3 H 0.357317 0.451856 0.159224
H99_3 H 0.33589 0.439464 0.0937884
H100_3 H 0.364841 0.363212 0.176559
H101_3 H 0.372697 0.407979 0.20713
H102_3 H 0.323527 0.367664 0.197856
H104_4 H 0.244826 0.456966 -5.06511e-18
H105_3 H 0.268162 0.434525 0.0358186
H106_3 H 0.16907 0.177295 0.0358186
H107_4 H 0.125589 0.143148 5.06511e-18
H109_3 H 0.235049 0.17756 0.0864862
H110_3 H 0.240447 0.166568 0.154452
H111_3 H 0.21529 0.19313 0.139675
H112_3 H 0.393194 0.432748 0.0659657
H113_3 H 0.411344 0.445406 0.133014
H114_3 H 0.404523 0.40069 0.103539
H115_3 H 0.257324 0.244483 0.199334
H116_3 H 0.283328 0.21894 0.215212
H117_3 H 0.309901 0.269025 0.192422
H118_3 H 0.339833 0.250073 0.125105
H119_3 H 0.312684 0.19979 0.146985
H120_3 H 0.310824 0.211714 0.0782757
H121_3 H 0.208902 0.395588 0.0844264
H122_3 H 0.185106 0.417448 0.0483513
H123_3 H 0.163121 0.364852 0.0507799
H124_3 H 0.636788 0.00162858 0.176559
H127_3 H 0.749927 0.0897604 0.125105
H128_3 H 0.80021 0.112894 0.146985
H129_3 H 0.788286 0.0991101 0.0782757
H144_3 H 0.59931 0.00383289 0.103539
H148_3 H 0.755517 0.0128406 0.199334
H149_3 H 0.78106 0.0643872 0.215212
H150_3 H 0.730975 0.0408757 0.192422
H157_3 H 0.82244 0.0574883 0.0864862
H158_3 H 0.833432 0.0738786 0.154452
H159_3 H 0.80687 0.0221598 0.139675
H172_3 H 0.806105 0.343696 0.0683182
H173_3 H 0.806451 0.324867 0.133492
H174_3 H 0.769816 0.294155 0.0856292
H175_3 H 0.766829 0.390299 0.15713
H176_3 H 0.804168 0.378599 0.174816
H177_3 H 0.804806 0.398635 0.11017
H178_3 H 0.719289 0.282224 0.150278
H179_3 H 0.756287 0.313647 0.197278
H180_3 H 0.716986 0.32261 0.180235
H214_3 H 0.62347 0.233171 0.15713
H215_3 H 0.57443 0.195832 0.174816
H216_3 H 0.593829 0.195194 0.11017
H223_3 H 0.562935 0.280711 0.150278
H224_3 H 0.55736 0.243713 0.197278
H225_3 H 0.605624 0.283014 0.180235
H226_3 H 0.53759 0.193895 0.0683182
H227_3 H 0.518416 0.193549 0.133492
H228_3 H 0.524339 0.230184 0.0856292
H232_3 H 0.609701 0.37653 0.15713
H233_3 H 0.621401 0.42557 0.174816
H234_3 H 0.601365 0.406171 0.11017
H259_3 H 0.717776 0.437065 0.150278
H260_3 H 0.686353 0.44264 0.197278
H261_3 H 0.67739 0.394376 0.180235
H262_3 H 0.656304 0.46241 0.0683182
H263_3 H 0.675133 0.481584 0.133492
H264_3 H 0.705845 0.475661 0.0856292
Fe2_5 Fe 0.99592(7) 0.68566(7) 1.0000
N2_5 N 0.9415(4) 0.6274(4) 1.0000
C26_5 C 0.8729(6) 0.5533(6) 1.0000
C27_5 C 0.8358(5) 0.5148(5) 1.0000
N3_5 N 0.7657(5) 0.4409(5) 1.0000
Fe3_5 Fe 0.71299(7) 0.38363(7) 1.0000
O10_5 O 0.6667 0.3333 1.0000
O11_3 O 0.7413(3) 0.3705(3) 0.9424(4)
O12_3 O 0.7117(5) 0.3050(3) 0.9429(4)
C30_3 C 0.7347(4) 0.3380(5) 0.9251(6)
C31_3 C 0.7609(5) 0.3387(4) 0.8793(8)
C32_3 C 0.7876(7) 0.3244(9) 0.8993(11)
C33_3 C 0.7858(8) 0.3792(6) 0.8579(9)
C34_3 C 0.7368(7) 0.3126(8) 0.8350(8)
C42_3 C 0.9241(4) 0.6091(5) 0.9544(4)
H13_3 H 0.9354 0.6217 0.9220
C43_3 C 0.8903(4) 0.5724(4) 0.9526(5)
H14_3 H 0.8792 0.5606 0.9197
C44_3 C 0.8165(4) 0.4949(5) 0.9527(5)
H15_3 H 0.8270 0.5063 0.9194
C45_3 C 0.7825(4) 0.4590(4) 0.9550(6)
H16_3 H 0.7704 0.4467 0.9227
O15_5 O 0.2648(3) 0.3071(4) 1.0000
Fe5_5 Fe 0.31434(7) 0.31026(10) 1.0000
C48_5 C 0.1738(4) 0.2444(6) 1.0000
C49_5 C 0.2219(5) 0.3595(6) 1.0000
N6_5 N 0.3726(4) 0.3141(6) 1.0000
C54_5 C 0.1372(7) 0.2029(9) 1.0000
C55_5 C 0.2130(5) 0.3940(8) 1.0000
C65_5 C 0.1512(9) 0.1731(11) 1.0000
C67_5 C 0.2511(8) 0.4326(13) 1.0000
C71_5 C 0.4467(6) 0.3196(8) 1.0000
C72_5 C 0.4852(5) 0.3210(7) 1.0000
N7_5 N 0.5591(5) 0.3248(7) 1.0000
Fe6_5 Fe 0.61637(7) 0.32936(10) 1.0000
O22_3 O 0.6295(3) 0.3708(4) 0.9424(4)
O23_3 O 0.6950(3) 0.4067(6) 0.9429(4)
C75_3 C 0.6620(5) 0.3967(6) 0.9251(6)
C76_3 C 0.6613(4) 0.4222(6) 0.8793(8)
C77_3 C 0.6756(9) 0.4632(11) 0.8993(11)
C78_3 C 0.6208(6) 0.4066(10) 0.8579(9)
C79_3 C 0.6874(8) 0.4242(11) 0.8350(8)
O24_3 O 0.1862(2) 0.2589(3) 0.9553(3)
C80_3 C 0.1128(6) 0.1957(10) 0.9509(8)
O25_3 O 0.2244(2) 0.3460(3) 0.9559(3)
C81_3 C 0.1911(8) 0.3929(9) 0.9509(8)
C87_3 C 0.3909(5) 0.3150(6) 0.9544(4)
H29_3 H 0.3783 0.3137 0.9220
C88_3 C 0.4276(4) 0.3179(6) 0.9526(5)
H30_3 H 0.4394 0.3186 0.9197
C89_3 C 0.5051(5) 0.3216(6) 0.9527(5)
H31_3 H 0.4937 0.3207 0.9194
C90_3 C 0.5410(4) 0.3235(6) 0.9550(6)
H32_3 H 0.5533 0.3237 0.9227
Fe8_5 Fe 0.68974(10) 0.00408(7) 1.0000
N10_5 N 0.6859(6) 0.0585(4) 1.0000
C116_5 C 0.6804(8) 0.1271(6) 1.0000
C117_5 C 0.6790(7) 0.1642(5) 1.0000
N11_5 N 0.6752(7) 0.2343(5) 1.0000
Fe9_5 Fe 0.67064(10) 0.28701(7) 1.0000
O33_3 O 0.6292(4) 0.2587(3) 0.9424(4)
O34_3 O 0.5933(6) 0.2883(5) 0.9429(4)
C120_3 C 0.6033(6) 0.2653(4) 0.9251(6)
C121_3 C 0.5778(6) 0.2391(5) 0.8793(8)
C122_3 C 0.5368(11) 0.2124(7) 0.8993(11)
C123_3 C 0.5934(10) 0.2142(8) 0.8579(9)
C124_3 C 0.5758(11) 0.2632(7) 0.8350(8)
C132_3 C 0.6850(6) 0.0759(4) 0.9544(4)
H45_3 H 0.6863 0.0646 0.9220
C133_3 C 0.6821(6) 0.1097(4) 0.9526(5)
H46_3 H 0.6814 0.1208 0.9197
C134_3 C 0.6784(6) 0.1835(4) 0.9527(5)
H47_3 H 0.6793 0.1730 0.9194
C135_3 C 0.6765(6) 0.2175(4) 0.9550(6)
H48_3 H 0.6763 0.2296 0.9227
C137_3 C 0.9806(4) 0.7235(5) 0.9059(5)
O40_3 O 0.9682(2) 0.6993(3) 0.9441(3)
C139_3 C 0.9487(5) 0.7222(4) 0.8684(6)
C143_3 C 0.9583(11) 0.7176(16) 0.8115(6)
C144_3 C 0.9091(5) 0.6874(12) 0.8803(15)
C145_3 C 0.9488(17) 0.7604(12) 0.8722(19)
Fe11_3 Fe 0.23947(5) 0.30548(7) 0.93389(6)
O43_3 O 0.2874(3) 0.3504(4) 0.9008(3)
O44_3 O 0.2506(3) 0.2665(4) 0.8982(3)
C151_3 C 0.3243(5) 0.3647(7) 0.9102(6)
C152_3 C 0.2765(5) 0.2571(6) 0.9059(5)
O45_3 O 0.3384(3) 0.3530(4) 0.9448(4)
O46_3 O 0.3007(3) 0.2689(4) 0.9441(3)
C153_3 C 0.3517(5) 0.3995(6) 0.8735(7)
C154_3 C 0.2778(4) 0.2265(6) 0.8684(6)
C155_3 C 0.3372(10) 0.4276(12) 0.867(2)
C156_3 C 0.3929(5) 0.4210(14) 0.8941(15)
C157_3 C 0.3533(14) 0.3835(22) 0.8193(9)
C158_3 C 0.2824(16) 0.2407(19) 0.8115(6)
C159_3 C 0.3126(12) 0.2217(13) 0.8803(15)
C160_3 C 0.2396(12) 0.1884(21) 0.8722(19)
C167_3 C 0.7429(6) 0.0194(4) 0.9059(5)
O52_3 O 0.7311(4) 0.0318(2) 0.9441(3)
C169_3 C 0.7735(6) 0.0513(5) 0.8684(6)
C173_3 C 0.7593(19) 0.0417(11) 0.8115(6)
C174_3 C 0.7783(13) 0.0909(5) 0.8803(15)
C175_3 C 0.8116(21) 0.0512(17) 0.8722(19)
N14_3 N 0.2092(3) 0.3027(4) 0.8607(4)
H55_3 H 0.804806 0.398635 0.88983
H56_3 H 0.804168 0.378599 0.825184
H57_3 H 0.766829 0.390299 0.84287
H70_3 H 0.716986 0.32261 0.819765
H71_3 H 0.756287 0.313647 0.802722
H72_3 H 0.719289 0.282224 0.849722
H88_3 H 0.769816 0.294155 0.914371
H89_3 H 0.806451 0.324867 0.866508
H90_3 H 0.806105 0.343696 0.931682
H103_3 H 0.268162 0.434525 0.964181
H104_5 H 0.244826 0.456966 1
H107_5 H 0.125589 0.143148 1
H108_3 H 0.16907 0.177295 0.964181
H139_3 H 0.13053 0.198533 0.915431
H140_3 H 0.0870414 0.165868 0.952398
H141_3 H 0.102902 0.217409 0.948798
H145_3 H 0.601365 0.406171 0.88983
H146_3 H 0.621401 0.42557 0.825184
H147_3 H 0.609701 0.37653 0.84287
H160_3 H 0.163121 0.364852 0.94922
H161_3 H 0.185106 0.417448 0.951649
H162_3 H 0.208902 0.395588 0.915574
H163_3 H 0.705845 0.475661 0.914371
H164_3 H 0.675133 0.481584 0.866508
H165_3 H 0.656304 0.46241 0.931682
H166_3 H 0.67739 0.394376 0.819765
H167_3 H 0.686353 0.44264 0.802722
H168_3 H 0.717776 0.437065 0.849722
H171_3 H 0.998371 0.635159 0.823441
H181_3 H 0.524339 0.230184 0.914371
H182_3 H 0.518416 0.193549 0.866508
H183_3 H 0.53759 0.193895 0.931682
H190_3 H 0.605624 0.283014 0.819765
H191_3 H 0.55736 0.243713 0.802722
H192_3 H 0.562935 0.280711 0.849722
H193_3 H 0.593829 0.195194 0.88983
H194_3 H 0.57443 0.195832 0.825184
H195_3 H 0.62347 0.233171 0.84287
H196_3 H 0.996167 0.595477 0.896461
H199_3 H 0.959124 0.690099 0.807578
H200_3 H 0.935613 0.716672 0.784788
H201_3 H 0.987159 0.742676 0.800666
H205_3 H 0.90089 0.689176 0.921724
H206_3 H 0.887106 0.687316 0.853015
H207_3 H 0.91024 0.660167 0.874895
H208_3 H 0.97784 0.78471 0.860325
H209_3 H 0.926121 0.759553 0.845548
H210_3 H 0.942512 0.764951 0.913514
H217_3 H 0.730975 0.0408757 0.807578
H218_3 H 0.78106 0.0643872 0.784788
H219_3 H 0.755517 0.0128406 0.800666
H220_3 H 0.323527 0.367664 0.802144
H221_3 H 0.372697 0.407979 0.79287
H222_3 H 0.364841 0.363212 0.823441
H229_3 H 0.404523 0.40069 0.896461
H230_3 H 0.411344 0.445406 0.866986
H231_3 H 0.393194 0.432748 0.934034
H237_3 H 0.636788 0.00162858 0.823441
H238_3 H 0.788286 0.0991101 0.921724
H239_3 H 0.80021 0.112894 0.853015
H240_3 H 0.749927 0.0897604 0.874895
H241_3 H 0.21529 0.19313 0.860325
H242_3 H 0.240447 0.166568 0.845548
H243_3 H 0.235049 0.17756 0.913514
H244_3 H 0.33589 0.439464 0.906212
H245_3 H 0.357317 0.451856 0.840776
H246_3 H 0.307623 0.412352 0.849184
H247_3 H 0.309901 0.269025 0.807578
H248_3 H 0.283328 0.21894 0.784788
H249_3 H 0.257324 0.244483 0.800666
H250_3 H 0.59931 0.00383289 0.896461
H253_3 H 0.310824 0.211714 0.921724
H254_3 H 0.312684 0.19979 0.853015
H255_3 H 0.339833 0.250073 0.874895
H256_3 H 0.80687 0.0221598 0.860325
H257_3 H 0.833432 0.0738786 0.845548
H258_3 H 0.82244 0.0574883 0.913514
O26_4 O 0.0423(3) 0.3071(4) 0.5000
O27_3 O 0.0630(3) 0.3504(4) 0.4008(3)
O28_3 O 0.0159(3) 0.2665(4) 0.3982(3)
O29_3 O 0.0727(2) 0.2589(3) 0.4553(3)
O30_3 O 0.1216(2) 0.3460(3) 0.4559(3)
C91_3 C 0.0404(5) 0.3647(7) 0.4102(6)
C93_4 C 0.0706(4) 0.2444(6) 0.5000
C94_4 C 0.1376(4) 0.3595(6) 0.5000
O31_3 O 0.0146(3) 0.3530(4) 0.4448(4)
C97_3 C 0.0478(4) 0.3995(6) 0.3735(7)
C99_4 C 0.0657(6) 0.2029(9) 0.5000
C100_4 C 0.1810(6) 0.3940(8) 0.5000
C104_3 C 0.0904(6) 0.4276(12) 0.367(2)
C105_3 C 0.0281(13) 0.4210(14) 0.3941(15)
C106_3 C 0.0302(17) 0.3835(22) 0.3193(9)
C110_4 C 0.0219(7) 0.1731(11) 0.5000
C111_3 C 0.0829(8) 0.1957(10) 0.4509(8)
C112_4 C 0.1815(10) 0.4326(13) 0.5000
C113_3 C 0.2018(5) 0.3929(9) 0.4509(8)
O35_3 O 0.0727(2) 0.2589(3) 0.5447(3)
C125_3 C 0.0829(8) 0.1957(10) 0.5491(8)
O36_3 O 0.1216(2) 0.3460(3) 0.5441(3)
C126_3 C 0.2018(5) 0.3929(9) 0.5491(8)
Fe12_3 Fe 0.06601(5) 0.30548(7) 0.56611(6)
O49_3 O 0.0630(3) 0.3504(4) 0.5992(3)
O50_3 O 0.0159(3) 0.2665(4) 0.6018(3)
C166_3 C 0.0404(5) 0.3647(7) 0.5898(6)
O51_3 O 0.0146(3) 0.3530(4) 0.5552(4)
C168_3 C 0.0478(4) 0.3995(6) 0.6265(7)
C170_3 C 0.0904(6) 0.4276(12) 0.633(2)
C171_3 C 0.0281(13) 0.4210(14) 0.6059(15)
C172_3 C 0.0302(17) 0.3835(22) 0.6807(9)
N15_3 N 0.0935(3) 0.3027(4) 0.6393(4)
H125_3 H 0.0352827 0.407979 0.29287
H126_3 H 0.0441371 0.367664 0.302144
H130_3 H 0.114507 0.217409 0.448798
H131_3 H 0.078827 0.165868 0.452398
H132_3 H 0.0680026 0.198533 0.415431
H133_3 H 0.166363 0.434525 0.535819
H134_4 H 0.21214 0.456966 0.5
H135_3 H 0.166363 0.434525 0.464181
H136_3 H 0.104729 0.412352 0.349184
H137_3 H 0.0945385 0.451856 0.340776
H138_3 H 0.103574 0.439464 0.406212
H142_3 H 0.039554 0.432748 0.434034
H143_3 H 0.0340614 0.445406 0.366986
H151_3 H 0.00822485 0.177295 0.464181
H152_4 H 0.017559 0.143148 0.5
H153_3 H 0.00822485 0.177295 0.535819
H154_3 H 0.186686 0.395588 0.415574
H155_3 H 0.232343 0.417448 0.451649
H156_3 H 0.201731 0.364852 0.44922
H184_3 H 0.0680026 0.198533 0.584569
H185_3 H 0.078827 0.165868 0.547602
H186_3 H 0.114507 0.217409 0.551202
H187_3 H 0.201731 0.364852 0.55078
H188_3 H 0.232343 0.417448 0.548351
H189_3 H 0.186686 0.395588 0.584426
H211_3 H 0.103574 0.439464 0.593788
H212_3 H 0.0945385 0.451856 0.659224
H213_3 H 0.104729 0.412352 0.650816
H235_3 H 0.0441371 0.367664 0.697856
H236_3 H 0.0352827 0.407979 0.70713
H251_3 H 0.0340614 0.445406 0.633014
H252_3 H 0.039554 0.432748 0.565966
C50_4 C 0.2153(4) 0.3369(6) 0.8395(5)
C51_4 C 0.1823(5) 0.2695(6) 0.8376(5)
H17_4 H 0.2346 0.3607 0.8546
C56_4 C 0.1934(4) 0.3380(6) 0.7950(5)
C57_4 C 0.1598(4) 0.2681(6) 0.7946(5)
H18_4 H 0.1784 0.2455 0.8515
H19_4 H 0.1989 0.3623 0.7806
C69_4 C 0.1634(4) 0.3025(6) 0.7726(4)
H20_4 H 0.1417 0.2436 0.7798
C82_4 C 0.1216(5) 0.3369(6) 0.6605(5)
C83_4 C 0.0872(3) 0.2695(6) 0.6624(5)
H25_4 H 0.1261 0.3607 0.6454
C84_4 C 0.1446(4) 0.3380(6) 0.7050(5)
C85_4 C 0.1083(4) 0.2681(6) 0.7054(5)
H26_4 H 0.0671 0.2455 0.6485
H27_4 H 0.1634 0.3623 0.7194
C86_4 C 0.1391(4) 0.3025(6) 0.7274(4)
H28_4 H 0.1019 0.2436 0.7202
Fe7_2 Fe 0.69452(7) 0.93399(5) 0.06611(6)
O26_5 O 0.6929(4) 0.9577(3) 0.0000
O27_4 O 0.6496(4) 0.9370(3) 0.0992(3)
O28_4 O 0.7335(4) 0.9841(3) 0.1018(3)
O29_4 O 0.7411(3) 0.9273(2) 0.0447(3)
O30_4 O 0.6540(3) 0.8784(2) 0.0441(3)
N9_2 N 0.6973(4) 0.9065(3) 0.1393(4)
C91_4 C 0.6353(7) 0.9596(5) 0.0898(6)
C93_5 C 0.7556(6) 0.9294(4) 0.0000
C94_5 C 0.6405(6) 0.8624(4) 0.0000
C95_3 C 0.6631(6) 0.8784(5) 0.1605(5)
C96_3 C 0.7305(6) 0.9128(3) 0.1624(5)
O31_4 O 0.6470(4) 0.9854(3) 0.0552(4)
C97_4 C 0.6005(6) 0.9522(4) 0.1265(7)
C99_5 C 0.7971(9) 0.9343(6) 0.0000
C100_5 C 0.6060(8) 0.8190(6) 0.0000
H33_3 H 0.6393 0.8739 0.1454
C101_3 C 0.6620(6) 0.8554(4) 0.2050(5)
C102_3 C 0.7319(6) 0.8917(4) 0.2054(5)
H34_3 H 0.7545 0.9329 0.1485
C104_4 C 0.5724(12) 0.9096(6) 0.133(2)
C105_4 C 0.5790(14) 0.9719(13) 0.1059(15)
C106_4 C 0.6165(22) 0.9698(17) 0.1807(9)
C110_5 C 0.8269(11) 0.9781(7) 0.0000
C111_4 C 0.8043(10) 0.9171(8) 0.0491(8)
C112_5 C 0.5674(13) 0.8185(10) 0.0000
C113_4 C 0.6071(9) 0.7982(5) 0.0491(8)
H35_3 H 0.6377 0.8366 0.2194
C114_3 C 0.6975(6) 0.8609(4) 0.2274(4)
H36_3 H 0.7564 0.8981 0.2202
N12_2 N 0.6973(4) 0.7908(3) 0.3607(4)
C127_3 C 0.6631(6) 0.7847(4) 0.3395(5)
C128_3 C 0.7305(6) 0.8177(5) 0.3376(5)
H41_3 H 0.6393 0.7654 0.3546
C129_3 C 0.6620(6) 0.8066(4) 0.2950(5)
C130_3 C 0.7319(6) 0.8402(4) 0.2946(5)
H42_3 H 0.7545 0.8216 0.3515
H43_3 H 0.6377 0.8011 0.2806
C131_3 C 0.6975(6) 0.8366(4) 0.2726(4)
H44_3 H 0.7564 0.8583 0.2798
Fe14_2 Fe 0.69452(7) 0.76053(5) 0.43389(6)
H125_4 H 0.592021 0.964717 0.20713
H126_4 H 0.632336 0.955863 0.197856
H130_4 H 0.782591 0.885493 0.0512024
H131_4 H 0.834132 0.921173 0.047602
H132_4 H 0.801467 0.931997 0.0845686
H134_5 H 0.543034 0.78786 -5.06511e-18
H135_4 H 0.565475 0.833637 0.0358186
H136_4 H 0.587648 0.895271 0.150816
H137_4 H 0.548144 0.905462 0.159224
H138_4 H 0.560536 0.896426 0.0937884
H142_4 H 0.567252 0.960446 0.0659657
H143_4 H 0.554594 0.965939 0.133014
H151_4 H 0.822705 0.991775 0.0358186
H152_5 H 0.856852 0.982441 5.06511e-18
H154_4 H 0.604412 0.813314 0.0844264
H155_4 H 0.582552 0.767657 0.0483513
H156_4 H 0.635148 0.798269 0.0507799
O26_6 O 0.6929(4) 0.9577(3) 1.0000
C93_6 C 0.7556(6) 0.9294(4) 1.0000
C94_6 C 0.6405(6) 0.8624(4) 1.0000
C99_6 C 0.7971(9) 0.9343(6) 1.0000
C100_6 C 0.6060(8) 0.8190(6) 1.0000
C110_6 C 0.8269(11) 0.9781(7) 1.0000
C112_6 C 0.5674(13) 0.8185(10) 1.0000
O35_4 O 0.7411(3) 0.9273(2) 0.9553(3)
C125_4 C 0.8043(10) 0.9171(8) 0.9509(8)
O36_4 O 0.6540(3) 0.8784(2) 0.9559(3)
C126_4 C 0.6071(9) 0.7982(5) 0.9509(8)
Fe12_4 Fe 0.69452(7) 0.93399(5) 0.93389(6)
O49_4 O 0.6496(4) 0.9370(3) 0.9008(3)
O50_4 O 0.7335(4) 0.9841(3) 0.8982(3)
C166_4 C 0.6353(7) 0.9596(5) 0.9102(6)
O51_4 O 0.6470(4) 0.9854(3) 0.9448(4)
C168_4 C 0.6005(6) 0.9522(4) 0.8735(7)
C170_4 C 0.5724(12) 0.9096(6) 0.867(2)
C171_4 C 0.5790(14) 0.9719(13) 0.8941(15)
C172_4 C 0.6165(22) 0.9698(17) 0.8193(9)
N15_4 N 0.6973(4) 0.9065(3) 0.8607(4)
H133_4 H 0.565475 0.833637 0.964181
H134_6 H 0.543034 0.78786 1
H152_6 H 0.856852 0.982441 1
H153_4 H 0.822705 0.991775 0.964181
H184_4 H 0.801467 0.931997 0.915431
H185_4 H 0.834132 0.921173 0.952398
H186_4 H 0.782591 0.885493 0.948798
H187_4 H 0.635148 0.798269 0.94922
H188_4 H 0.582552 0.767657 0.951649
H189_4 H 0.604412 0.813314 0.915574
H211_4 H 0.560536 0.896426 0.906212
H212_4 H 0.548144 0.905462 0.840776
H213_4 H 0.587648 0.895271 0.849184
H235_4 H 0.632336 0.955863 0.802144
H236_4 H 0.592021 0.964717 0.79287
H251_4 H 0.554594 0.965939 0.866986
H252_4 H 0.567252 0.960446 0.934034
Fe2_6 Fe 0.31434(7) 0.00408(7) 0.5000
C2_4 C 0.2765(5) 0.0194(4) 0.4059(5)
O9_4 O 0.3007(3) 0.0318(2) 0.4441(3)
N2_6 N 0.3726(4) 0.0585(4) 0.5000
C8_4 C 0.2778(4) 0.0513(5) 0.3684(6)
C13_4 C 0.3909(5) 0.0759(4) 0.4544(4)
C17_4 C 0.2824(16) 0.0417(11) 0.3115(6)
C18_4 C 0.3126(12) 0.0909(5) 0.3803(15)
C19_4 C 0.2396(12) 0.0512(17) 0.3722(19)
H5_4 H 0.3783 0.0646 0.4220
C25_4 C 0.4276(4) 0.1097(4) 0.4526(5)
H6_4 H 0.4394 0.1208 0.4197
C26_6 C 0.4467(6) 0.1271(6) 0.5000
C27_6 C 0.4852(5) 0.1642(5) 0.5000
C28_4 C 0.5051(5) 0.1835(4) 0.4527(5)
H7_4 H 0.4937 0.1730 0.4194
C29_4 C 0.5410(4) 0.2175(4) 0.4550(6)
N3_6 N 0.5591(5) 0.2343(5) 0.5000
H8_4 H 0.5533 0.2296 0.4227
Fe3_6 Fe 0.61637(7) 0.28701(7) 0.5000
O10_6 O 0.6667 0.3333 0.5000
O11_4 O 0.6295(3) 0.2587(3) 0.5576(4)
O12_4 O 0.6950(3) 0.2883(5) 0.5571(4)
C30_4 C 0.6620(5) 0.2653(4) 0.5749(6)
C31_4 C 0.6613(4) 0.2391(5) 0.6207(8)
C32_4 C 0.6756(9) 0.2124(7) 0.6007(11)
C33_4 C 0.6208(6) 0.2142(8) 0.6421(9)
C34_4 C 0.6874(8) 0.2632(7) 0.6650(8)
C42_4 C 0.3909(5) 0.0759(4) 0.5456(4)
H13_4 H 0.3783 0.0646 0.5780
C43_4 C 0.4276(4) 0.1097(4) 0.5474(5)
H14_4 H 0.4394 0.1208 0.5803
C44_4 C 0.5051(5) 0.1835(4) 0.5473(5)
H15_4 H 0.4937 0.1730 0.5806
C45_4 C 0.5410(4) 0.2175(4) 0.5450(6)
H16_4 H 0.5533 0.2296 0.5773
O15_6 O 0.6929(4) 0.7352(3) 0.5000
O16_4 O 0.6496(4) 0.7126(3) 0.4008(3)
O17_4 O 0.7335(4) 0.7494(3) 0.3982(3)
O18_4 O 0.7411(3) 0.8138(2) 0.4553(3)
O19_4 O 0.6540(3) 0.7756(2) 0.4559(3)
Fe5_6 Fe 0.68974(10) 0.68566(7) 0.5000
C46_4 C 0.6353(7) 0.6757(5) 0.4102(6)
C47_4 C 0.7429(6) 0.7235(5) 0.4059(5)
C48_6 C 0.7556(6) 0.8262(4) 0.5000
C49_6 C 0.6405(6) 0.7781(5) 0.5000
O20_4 O 0.6470(4) 0.6616(3) 0.4448(4)
O21_4 O 0.7311(4) 0.6993(3) 0.4441(3)
N6_6 N 0.6859(6) 0.6274(4) 0.5000
C52_4 C 0.6005(6) 0.6483(5) 0.3735(7)
C53_4 C 0.7735(6) 0.7222(4) 0.3684(6)
C54_6 C 0.7971(9) 0.8628(7) 0.5000
C55_6 C 0.6060(8) 0.7870(5) 0.5000
C58_4 C 0.6850(6) 0.6091(5) 0.4544(4)
C59_4 C 0.5724(12) 0.6628(10) 0.367(2)
C60_4 C 0.5790(14) 0.6071(5) 0.3941(15)
C61_4 C 0.6165(22) 0.6467(14) 0.3193(9)
C62_4 C 0.7593(19) 0.7176(16) 0.3115(6)
C63_4 C 0.7783(13) 0.6874(12) 0.3803(15)
C64_4 C 0.8116(21) 0.7604(12) 0.3722(19)
C65_6 C 0.8269(11) 0.8488(9) 0.5000
C66_4 C 0.8043(10) 0.8872(6) 0.4509(8)
C67_6 C 0.5674(13) 0.7489(8) 0.5000
C68_4 C 0.6071(9) 0.8089(8) 0.4509(8)
H21_4 H 0.6863 0.6217 0.4220
C70_4 C 0.6821(6) 0.5724(4) 0.4526(5)
H22_4 H 0.6814 0.5606 0.4197
C71_6 C 0.6804(8) 0.5533(6) 0.5000
C72_6 C 0.6790(7) 0.5148(5) 0.5000
C73_4 C 0.6784(6) 0.4949(5) 0.4527(5)
H23_4 H 0.6793 0.5063 0.4194
C74_4 C 0.6765(6) 0.4590(4) 0.4550(6)
N7_6 N 0.6752(7) 0.4409(5) 0.5000
H24_4 H 0.6763 0.4467 0.4227
Fe6_6 Fe 0.67064(10) 0.38363(7) 0.5000
O22_4 O 0.6292(4) 0.3705(3) 0.5576(4)
O23_4 O 0.5933(6) 0.3050(3) 0.5571(4)
C75_4 C 0.6033(6) 0.3380(5) 0.5749(6)
C76_4 C 0.5778(6) 0.3387(4) 0.6207(8)
C77_4 C 0.5368(11) 0.3244(9) 0.6007(11)
C78_4 C 0.5934(10) 0.3792(6) 0.6421(9)
C79_4 C 0.5758(11) 0.3126(8) 0.6650(8)
O24_4 O 0.7411(3) 0.8138(2) 0.5447(3)
C80_4 C 0.8043(10) 0.8872(6) 0.5491(8)
O25_4 O 0.6540(3) 0.7756(2) 0.5441(3)
C81_4 C 0.6071(9) 0.8089(8) 0.5491(8)
C87_4 C 0.6850(6) 0.6091(5) 0.5456(4)
H29_4 H 0.6863 0.6217 0.5780
C88_4 C 0.6821(6) 0.5724(4) 0.5474(5)
H30_4 H 0.6814 0.5606 0.5803
C89_4 C 0.6784(6) 0.4949(5) 0.5473(5)
H31_4 H 0.6793 0.5063 0.5806
C90_4 C 0.6765(6) 0.4590(4) 0.5450(6)
H32_4 H 0.6763 0.4467 0.5773
Fe8_6 Fe 0.99592(7) 0.31026(10) 0.5000
C92_4 C 0.9806(4) 0.2571(6) 0.4059(5)
O32_4 O 0.9682(2) 0.2689(4) 0.4441(3)
N10_6 N 0.9415(4) 0.3141(6) 0.5000
C98_4 C 0.9487(5) 0.2265(6) 0.3684(6)
C103_4 C 0.9241(4) 0.3150(6) 0.4544(4)
C107_4 C 0.9583(11) 0.2407(19) 0.3115(6)
C108_4 C 0.9091(5) 0.2217(13) 0.3803(15)
C109_4 C 0.9488(17) 0.1884(21) 0.3722(19)
H37_4 H 0.9354 0.3137 0.4220
C115_4 C 0.8903(4) 0.3179(6) 0.4526(5)
H38_4 H 0.8792 0.3186 0.4197
C116_6 C 0.8729(6) 0.3196(8) 0.5000
C117_6 C 0.8358(5) 0.3210(7) 0.5000
C118_4 C 0.8165(4) 0.3216(6) 0.4527(5)
H39_4 H 0.8270 0.3207 0.4194
C119_4 C 0.7825(4) 0.3235(6) 0.4550(6)
N11_6 N 0.7657(5) 0.3248(7) 0.5000
H40_4 H 0.7704 0.3237 0.4227
Fe9_6 Fe 0.71299(7) 0.32936(10) 0.5000
O33_4 O 0.7413(3) 0.3708(4) 0.5576(4)
O34_4 O 0.7117(5) 0.4067(6) 0.5571(4)
C120_4 C 0.7347(4) 0.3967(6) 0.5749(6)
C121_4 C 0.7609(5) 0.4222(6) 0.6207(8)
C122_4 C 0.7876(7) 0.4632(11) 0.6007(11)
C123_4 C 0.7858(8) 0.4066(10) 0.6421(9)
C124_4 C 0.7368(7) 0.4242(11) 0.6650(8)
C132_4 C 0.9241(4) 0.3150(6) 0.5456(4)
H45_4 H 0.9354 0.3137 0.5780
C133_4 C 0.8903(4) 0.3179(6) 0.5474(5)
H46_4 H 0.8792 0.3186 0.5803
C134_4 C 0.8165(4) 0.3216(6) 0.5473(5)
H47_4 H 0.8270 0.3207 0.5806
C135_4 C 0.7825(4) 0.3235(6) 0.5450(6)
H48_4 H 0.7704 0.3237 0.5773
C137_4 C 0.2765(5) 0.0194(4) 0.5941(5)
O40_4 O 0.3007(3) 0.0318(2) 0.5559(3)
C139_4 C 0.2778(4) 0.0513(5) 0.6316(6)
C143_4 C 0.2824(16) 0.0417(11) 0.6885(6)
C144_4 C 0.3126(12) 0.0909(5) 0.6197(15)
C145_4 C 0.2396(12) 0.0512(17) 0.6278(19)
O41_4 O 0.6295(3) 0.2587(3) 0.4424(4)
O42_4 O 0.6950(3) 0.2883(5) 0.4429(4)
C146_4 C 0.6620(5) 0.2653(4) 0.4251(6)
C147_4 C 0.6613(4) 0.2391(5) 0.3793(8)
C148_4 C 0.6756(9) 0.2124(7) 0.3993(11)
C149_4 C 0.6208(6) 0.2142(8) 0.3579(9)
C150_4 C 0.6874(8) 0.2632(7) 0.3350(8)
Fe11_4 Fe 0.69452(7) 0.76053(5) 0.56611(6)
O43_4 O 0.6496(4) 0.7126(3) 0.5992(3)
O44_4 O 0.7335(4) 0.7494(3) 0.6018(3)
C151_4 C 0.6353(7) 0.6757(5) 0.5898(6)
C152_4 C 0.7429(6) 0.7235(5) 0.5941(5)
O45_4 O 0.6470(4) 0.6616(3) 0.5552(4)
O46_4 O 0.7311(4) 0.6993(3) 0.5559(3)
C153_4 C 0.6005(6) 0.6483(5) 0.6265(7)
C154_4 C 0.7735(6) 0.7222(4) 0.6316(6)
C155_4 C 0.5724(12) 0.6628(10) 0.633(2)
C156_4 C 0.5790(14) 0.6071(5) 0.6059(15)
C157_4 C 0.6165(22) 0.6467(14) 0.6807(9)
C158_4 C 0.7593(19) 0.7176(16) 0.6885(6)
C159_4 C 0.7783(13) 0.6874(12) 0.6197(15)
C160_4 C 0.8116(21) 0.7604(12) 0.6278(19)
O47_4 O 0.6292(4) 0.3705(3) 0.4424(4)
O48_4 O 0.5933(6) 0.3050(3) 0.4429(4)
C161_4 C 0.6033(6) 0.3380(5) 0.4251(6)
C162_4 C 0.5778(6) 0.3387(4) 0.3793(8)
C163_4 C 0.5368(11) 0.3244(9) 0.3993(11)
C164_4 C 0.5934(10) 0.3792(6) 0.3579(9)
C165_4 C 0.5758(11) 0.3126(8) 0.3350(8)
C167_4 C 0.9806(4) 0.2571(6) 0.5941(5)
O52_4 O 0.9682(2) 0.2689(4) 0.5559(3)
C169_4 C 0.9487(5) 0.2265(6) 0.6316(6)
C173_4 C 0.9583(11) 0.2407(19) 0.6885(6)
C174_4 C 0.9091(5) 0.2217(13) 0.6197(15)
C175_4 C 0.9488(17) 0.1884(21) 0.6278(19)
O53_4 O 0.7413(3) 0.3708(4) 0.4424(4)
O54_4 O 0.7117(5) 0.4067(6) 0.4429(4)
C176_4 C 0.7347(4) 0.3967(6) 0.4251(6)
C177_4 C 0.7609(5) 0.4222(6) 0.3793(8)
C178_4 C 0.7876(7) 0.4632(11) 0.3993(11)
C179_4 C 0.7858(8) 0.4066(10) 0.3579(9)
C180_4 C 0.7368(7) 0.4242(11) 0.3350(8)
N14_4 N 0.6973(4) 0.7908(3) 0.6393(4)
H49_4 H 0.339833 0.0897604 0.374895
H50_4 H 0.312684 0.112894 0.353015
H51_4 H 0.310824 0.0991101 0.421724
H55_4 H 0.601365 0.195194 0.61017
H56_4 H 0.621401 0.195832 0.674816
H57_4 H 0.609701 0.233171 0.65713
H58_4 H 0.364841 0.00162858 0.323441
H61_4 H 0.257324 0.0128406 0.300666
H62_4 H 0.283328 0.0643872 0.284788
H63_4 H 0.309901 0.0408757 0.307578
H70_4 H 0.67739 0.283014 0.680235
H71_4 H 0.686353 0.243713 0.697278
H72_4 H 0.717776 0.280711 0.650278
H78_4 H 0.404523 0.00383289 0.396461
H79_4 H 0.235049 0.0574883 0.413514
H80_4 H 0.240447 0.0738786 0.345548
H81_4 H 0.21529 0.0221598 0.360325
H88_4 H 0.705845 0.230184 0.585629
H89_4 H 0.675133 0.193549 0.633492
H90_4 H 0.656304 0.193895 0.568318
H94_4 H 0.782591 0.897098 0.448798
H95_4 H 0.834132 0.912959 0.452398
H96_4 H 0.801467 0.86947 0.415431
H97_4 H 0.587648 0.692377 0.349184
H98_4 H 0.548144 0.642683 0.340776
H99_4 H 0.560536 0.66411 0.406212
H100_4 H 0.636788 0.635159 0.323441
H101_4 H 0.592021 0.627303 0.29287
H102_4 H 0.632336 0.676473 0.302144
H103_4 H 0.565475 0.731838 0.535819
H104_6 H 0.543034 0.755174 0.5
H105_4 H 0.565475 0.731838 0.464181
H106_4 H 0.822705 0.83093 0.464181
H107_6 H 0.856852 0.874411 0.5
H108_4 H 0.822705 0.83093 0.535819
H109_4 H 0.82244 0.764951 0.413514
H110_4 H 0.833432 0.759553 0.345548
H111_4 H 0.80687 0.78471 0.360325
H112_4 H 0.567252 0.606806 0.434034
H113_4 H 0.554594 0.588656 0.366986
H114_4 H 0.59931 0.595477 0.396461
H115_4 H 0.755517 0.742676 0.300666
H116_4 H 0.78106 0.716672 0.284788
H117_4 H 0.730975 0.690099 0.307578
H118_4 H 0.749927 0.660167 0.374895
H119_4 H 0.80021 0.687316 0.353015
H120_4 H 0.788286 0.689176 0.421724
H121_4 H 0.604412 0.791098 0.415574
H122_4 H 0.582552 0.814894 0.451649
H123_4 H 0.635148 0.836879 0.44922
H124_4 H 0.998371 0.363212 0.323441
H127_4 H 0.91024 0.250073 0.374895
H128_4 H 0.887106 0.19979 0.353015
H129_4 H 0.90089 0.211714 0.421724
H139_4 H 0.801467 0.86947 0.584569
H140_4 H 0.834132 0.912959 0.547602
H141_4 H 0.782591 0.897098 0.551202
H144_4 H 0.996167 0.40069 0.396461
H145_4 H 0.593829 0.398635 0.61017
H146_4 H 0.57443 0.378599 0.674816
H147_4 H 0.62347 0.390299 0.65713
H148_4 H 0.987159 0.244483 0.300666
H149_4 H 0.935613 0.21894 0.284788
H150_4 H 0.959124 0.269025 0.307578
H157_4 H 0.942512 0.17756 0.413514
H158_4 H 0.926121 0.166568 0.345548
H159_4 H 0.97784 0.19313 0.360325
H160_4 H 0.635148 0.836879 0.55078
H161_4 H 0.582552 0.814894 0.548351
H162_4 H 0.604412 0.791098 0.584426
H163_4 H 0.524339 0.294155 0.585629
H164_4 H 0.518416 0.324867 0.633492
H165_4 H 0.53759 0.343696 0.568318
H166_4 H 0.605624 0.32261 0.680235
H167_4 H 0.55736 0.313647 0.697278
H168_4 H 0.562935 0.282224 0.650278
H171_4 H 0.364841 0.00162858 0.676559
H172_4 H 0.656304 0.193895 0.431682
H173_4 H 0.675133 0.193549 0.366508
H174_4 H 0.705845 0.230184 0.414371
H175_4 H 0.609701 0.233171 0.34287
H176_4 H 0.621401 0.195832 0.325184
H177_4 H 0.601365 0.195194 0.38983
H178_4 H 0.717776 0.280711 0.349722
H179_4 H 0.686353 0.243713 0.302722
H180_4 H 0.67739 0.283014 0.319765
H181_4 H 0.769816 0.475661 0.585629
H182_4 H 0.806451 0.481584 0.633492
H183_4 H 0.806105 0.46241 0.568318
H190_4 H 0.716986 0.394376 0.680235
H191_4 H 0.756287 0.44264 0.697278
H192_4 H 0.719289 0.437065 0.650278
H193_4 H 0.804806 0.406171 0.61017
H194_4 H 0.804168 0.42557 0.674816
H195_4 H 0.766829 0.37653 0.65713
H196_4 H 0.404523 0.00383289 0.603539
H199_4 H 0.309901 0.0408757 0.692422
H200_4 H 0.283328 0.0643872 0.715212
H201_4 H 0.257324 0.0128406 0.699334
H205_4 H 0.310824 0.0991101 0.578276
H206_4 H 0.312684 0.112894 0.646985
H207_4 H 0.339833 0.0897604 0.625105
H208_4 H 0.21529 0.0221598 0.639675
H209_4 H 0.240447 0.0738786 0.654452
H210_4 H 0.235049 0.0574883 0.586486
H214_4 H 0.766829 0.37653 0.34287
H215_4 H 0.804168 0.42557 0.325184
H216_4 H 0.804806 0.406171 0.38983
H217_4 H 0.959124 0.269025 0.692422
H218_4 H 0.935613 0.21894 0.715212
H219_4 H 0.987159 0.244483 0.699334
H220_4 H 0.632336 0.676473 0.697856
H221_4 H 0.592021 0.627303 0.70713
H222_4 H 0.636788 0.635159 0.676559
H223_4 H 0.719289 0.437065 0.349722
H224_4 H 0.756287 0.44264 0.302722
H225_4 H 0.716986 0.394376 0.319765
H226_4 H 0.806105 0.46241 0.431682
H227_4 H 0.806451 0.481584 0.366508
H228_4 H 0.769816 0.475661 0.414371
H229_4 H 0.59931 0.595477 0.603539
H230_4 H 0.554594 0.588656 0.633014
H231_4 H 0.567252 0.606806 0.565966
H232_4 H 0.62347 0.390299 0.34287
H233_4 H 0.57443 0.378599 0.325184
H234_4 H 0.593829 0.398635 0.38983
H237_4 H 0.998371 0.363212 0.676559
H238_4 H 0.90089 0.211714 0.578276
H239_4 H 0.887106 0.19979 0.646985
H240_4 H 0.91024 0.250073 0.625105
H241_4 H 0.80687 0.78471 0.639675
H242_4 H 0.833432 0.759553 0.654452
H243_4 H 0.82244 0.764951 0.586486
H244_4 H 0.560536 0.66411 0.593788
H245_4 H 0.548144 0.642683 0.659224
H246_4 H 0.587648 0.692377 0.650816
H247_4 H 0.730975 0.690099 0.692422
H248_4 H 0.78106 0.716672 0.715212
H249_4 H 0.755517 0.742676 0.699334
H250_4 H 0.996167 0.40069 0.603539
H253_4 H 0.788286 0.689176 0.578276
H254_4 H 0.80021 0.687316 0.646985
H255_4 H 0.749927 0.660167 0.625105
H256_4 H 0.97784 0.19313 0.639675
H257_4 H 0.926121 0.166568 0.654452
H258_4 H 0.942512 0.17756 0.586486
H259_4 H 0.562935 0.282224 0.349722
H260_4 H 0.55736 0.313647 0.302722
H261_4 H 0.605624 0.32261 0.319765
H262_4 H 0.53759 0.343696 0.431682
H263_4 H 0.518416 0.324867 0.366508
H264_4 H 0.524339 0.294155 0.414371
C95_4 C 0.6631(6) 0.8784(5) 0.8395(5)
C96_4 C 0.7305(6) 0.9128(3) 0.8376(5)
H33_4 H 0.6393 0.8739 0.8546
C101_4 C 0.6620(6) 0.8554(4) 0.7950(5)
C102_4 C 0.7319(6) 0.8917(4) 0.7946(5)
H34_4 H 0.7545 0.9329 0.8515
H35_4 H 0.6377 0.8366 0.7806
C114_4 C 0.6975(6) 0.8609(4) 0.7726(4)
H36_4 H 0.7564 0.8981 0.7798
C127_4 C 0.6631(6) 0.7847(4) 0.6605(5)
C128_4 C 0.7305(6) 0.8177(5) 0.6624(5)
H41_4 H 0.6393 0.7654 0.6454
C129_4 C 0.6620(6) 0.8066(4) 0.7050(5)
C130_4 C 0.7319(6) 0.8402(4) 0.7054(5)
H42_4 H 0.7545 0.8216 0.6485
H43_4 H 0.6377 0.8011 0.7194
C131_4 C 0.6975(6) 0.8366(4) 0.7274(4)
H44_4 H 0.7564 0.8583 0.7202
loop_
_geom_bond_atom_site_label_1
_geom_bond_atom_site_label_2
_geom_bond_site_symmetry_1
_geom_bond_site_symmetry_2
O1 H265 1_555 1_555
O1_2 H265_2 1_555 1_555
O1_3 H265_3 1_555 1_555
O1_4 H265_4 1_555 1_555
O1_5 H265_5 1_555 1_555
O1_6 H265_6 1_555 1_555
O1_7 H265_7 1_555 1_555
O1_8 H265_8 1_555 1_555
O1_9 H265_9 1_555 1_555
O1_10 H265_10 1_555 1_555
O1_11 H265_11 1_555 1_555
O1_12 H265_12 1_555 1_555
O1_13 H265_13 1_555 1_555
O1_14 H265_14 1_555 1_555
O1_15 H265_15 1_555 1_555
O1_16 H265_16 1_555 1_555
O1_17 H265_17 1_555 1_555
O1_18 H265_18 1_555 1_555
O1_19 H265_19 1_555 1_555
O1_20 H265_20 1_555 1_555
O1_21 H265_21 1_555 1_555
O1_22 H265_22 1_555 1_555
O1_23 H265_23 1_555 1_555
O1_24 H265_24 1_555 1_555
O2 H266 1_555 1_555
O2 H266_2 1_555 1_555
O2_2 H266_3 1_555 1_555
O2_2 H266_4 1_555 1_555
O2_3 H266_5 1_555 1_555
O2_3 H266_6 1_555 1_555
O2_4 H266_7 1_555 1_555
O2_4 H266_8 1_555 1_555
O2_5 H266_9 1_555 1_555
O2_5 H266_10 1_555 1_555
O2_6 H266_11 1_555 1_555
O2_6 H266_12 1_555 1_555
O2_7 H266_13 1_555 1_555
O2_7 H266_14 1_555 1_555
O2_8 H266_15 1_555 1_555
O2_8 H266_16 1_555 1_555
O2_9 H266_17 1_555 1_555
O2_9 H266_18 1_555 1_555
O2_10 H266_19 1_555 1_555
O2_10 H266_20 1_555 1_555
O2_11 H266_21 1_555 1_555
O2_11 H266_22 1_555 1_555
O2_12 H266_23 1_555 1_555
O2_12 H266_24 1_555 1_555
Fe7 O26 1_555 1_555
O27 Fe7 1_555 1_555
O28 Fe7 1_555 1_555
O29 Fe7 1_555 1_555
O30 Fe7 1_555 1_555
N9 Fe7 1_555 1_555
C91 O27 1_555 1_555
C93 O29 1_555 1_555
C94 O30 1_555 1_555
C95 N9 1_555 1_555
C96 N9 1_555 1_555
O31 C91 1_555 1_555
C97 C91 1_555 1_555
C99 C93 1_555 1_555
C100 C94 1_555 1_555
H33 C95 1_555 1_555
C101 C95 1_555 1_555
C102 C96 1_555 1_555
H34 C96 1_555 1_555
C104 C97 1_555 1_555
C105 C97 1_555 1_555
C106 C97 1_555 1_555
C110 C99 1_555 1_555
C111 C99 1_555 1_555
C112 C100 1_555 1_555
C113 C100 1_555 1_555
H35 C101 1_555 1_555
C114 C101 1_555 1_555
H36 C102 1_555 1_555
N12 C127 1_555 1_555
C127 H41 1_555 1_555
C128 N12 1_555 1_555
C129 C127 1_555 1_555
C130 C128 1_555 1_555
H42 C128 1_555 1_555
H43 C129 1_555 1_555
C131 C114 1_555 1_555
H44 C130 1_555 1_555
Fe14 N12 1_555 1_555
C102 C114 1_555 1_555
C129 C131 1_555 1_555
C130 C131 1_555 1_555
C106 H125 1_555 1_555
C106 H126 1_555 1_555
C111 H130 1_555 1_555
C111 H131 1_555 1_555
C111 H132 1_555 1_555
C112 H134 1_555 1_555
C112 H135 1_555 1_555
C104 H136 1_555 1_555
C104 H137 1_555 1_555
C104 H138 1_555 1_555
C105 H142 1_555 1_555
C105 H143 1_555 1_555
C110 H151 1_555 1_555
C110 H152 1_555 1_555
C113 H154 1_555 1_555
C113 H155 1_555 1_555
C113 H156 1_555 1_555
C99_2 C93_2 1_555 1_555
C100_2 C94_2 1_555 1_555
C110_2 C99_2 1_555 1_555
C112_2 C100_2 1_555 1_555
O35 C93_2 1_555 1_555
C125 C99_2 1_555 1_555
O36 C94_2 1_555 1_555
C126 C100_2 1_555 1_555
Fe12 O26_2 1_555 1_555
O49 Fe12 1_555 1_555
O50 Fe12 1_555 1_555
C166 O49 1_555 1_555
C168 C166 1_555 1_555
C170 C168 1_555 1_555
C171 C168 1_555 1_555
C172 C168 1_555 1_555
N15 Fe12 1_555 1_555
O35 Fe12 1_555 1_555
O36 Fe12 1_555 1_555
C166 O51 1_555 1_555
C112_2 H133 1_555 1_555
C112_2 H134_2 1_555 1_555
C110_2 H152_2 1_555 1_555
C110_2 H153 1_555 1_555
C125 H184 1_555 1_555
C125 H185 1_555 1_555
C125 H186 1_555 1_555
C126 H187 1_555 1_555
C126 H188 1_555 1_555
C126 H189 1_555 1_555
C170 H211 1_555 1_555
C170 H212 1_555 1_555
C170 H213 1_555 1_555
C172 H235 1_555 1_555
C172 H236 1_555 1_555
C171 H251 1_555 1_555
C171 H252 1_555 1_555
O9 Fe2 1_555 1_555
N2 Fe2 1_555 1_555
C8 C2 1_555 1_555
C13 N2 1_555 1_555
C17 C8 1_555 1_555
C18 C8 1_555 1_555
C19 C8 1_555 1_555
H5 C13 1_555 1_555
C25 C13 1_555 1_555
H6 C25 1_555 1_555
C26 C25 1_555 1_555
C27 C26 1_555 1_555
C28 C27 1_555 1_555
H7 C28 1_555 1_555
C29 C28 1_555 1_555
N3 C29 1_555 1_555
H8 C29 1_555 1_555
Fe3 N3 1_555 1_555
O10 Fe3 1_555 1_555
O11 Fe3 1_555 1_555
O12 C30 1_555 1_555
C30 O11 1_555 1_555
C31 C30 1_555 1_555
C32 C31 1_555 1_555
C33 C31 1_555 1_555
C34 C31 1_555 1_555
C42 N2 1_555 1_555
H13 C42 1_555 1_555
C43 C26 1_555 1_555
H14 C43 1_555 1_555
C44 C27 1_555 1_555
H15 C44 1_555 1_555
C45 N3 1_555 1_555
H16 C45 1_555 1_555
Fe14 O15 1_555 1_555
O15 Fe5 1_555 1_555
O16 Fe14 1_555 1_555
O17 Fe14 1_555 1_555
O18 Fe14 1_555 1_555
O19 Fe14 1_555 1_555
Fe5 O20 1_555 1_555
C46 O16 1_555 1_555
C47 O17 1_555 1_555
C48 O18 1_555 1_555
C49 O19 1_555 1_555
O20 C46 1_555 1_555
O21 Fe5 1_555 1_555
N6 Fe5 1_555 1_555
C52 C46 1_555 1_555
C53 C47 1_555 1_555
C54 C48 1_555 1_555
C55 C49 1_555 1_555
C58 N6 1_555 1_555
C59 C52 1_555 1_555
C60 C52 1_555 1_555
C61 C52 1_555 1_555
C62 C53 1_555 1_555
C63 C53 1_555 1_555
C64 C53 1_555 1_555
C65 C54 1_555 1_555
C66 C54 1_555 1_555
C67 C55 1_555 1_555
C68 C55 1_555 1_555
H21 C58 1_555 1_555
C70 C58 1_555 1_555
H22 C70 1_555 1_555
C71 C70 1_555 1_555
C72 C71 1_555 1_555
C73 C72 1_555 1_555
H23 C73 1_555 1_555
C74 C73 1_555 1_555
N7 C74 1_555 1_555
H24 C74 1_555 1_555
Fe6 O10 1_555 1_555
O22 Fe6 1_555 1_555
O23 Fe3 1_555 1_555
C75 O22 1_555 1_555
C76 C75 1_555 1_555
C77 C76 1_555 1_555
C78 C76 1_555 1_555
C79 C76 1_555 1_555
O24 C48 1_555 1_555
C80 C54 1_555 1_555
O25 C49 1_555 1_555
C81 C55 1_555 1_555
C87 N6 1_555 1_555
H29 C87 1_555 1_555
C88 C71 1_555 1_555
H30 C88 1_555 1_555
C89 C72 1_555 1_555
H31 C89 1_555 1_555
C90 N7 1_555 1_555
H32 C90 1_555 1_555
O32 Fe8 1_555 1_555
N10 Fe8 1_555 1_555
C98 C92 1_555 1_555
C103 N10 1_555 1_555
C107 C98 1_555 1_555
C108 C98 1_555 1_555
C109 C98 1_555 1_555
H37 C103 1_555 1_555
C115 C103 1_555 1_555
H38 C115 1_555 1_555
C116 C115 1_555 1_555
C117 C116 1_555 1_555
C118 C117 1_555 1_555
H39 C118 1_555 1_555
C119 C118 1_555 1_555
N11 C119 1_555 1_555
H40 C119 1_555 1_555
Fe9 O10 1_555 1_555
O33 Fe9 1_555 1_555
O34 Fe6 1_555 1_555
C120 O33 1_555 1_555
C121 C120 1_555 1_555
C122 C121 1_555 1_555
C123 C121 1_555 1_555
C124 C121 1_555 1_555
C132 N10 1_555 1_555
H45 C132 1_555 1_555
C133 C116 1_555 1_555
H46 C133 1_555 1_555
C134 C117 1_555 1_555
H47 C134 1_555 1_555
C135 N11 1_555 1_555
H48 C135 1_555 1_555
O40 Fe2 1_555 1_555
C139 C137 1_555 1_555
C143 C139 1_555 1_555
C144 C139 1_555 1_555
C145 C139 1_555 1_555
O41 Fe3 1_555 1_555
O42 Fe9 1_555 1_555
C146 O41 1_555 1_555
C147 C146 1_555 1_555
C148 C147 1_555 1_555
C149 C147 1_555 1_555
C150 C147 1_555 1_555
Fe11 O15 1_555 1_555
O43 Fe11 1_555 1_555
O44 Fe11 1_555 1_555
C151 O43 1_555 1_555
C152 O44 1_555 1_555
O45 Fe5 1_555 1_555
O46 Fe5 1_555 1_555
C153 C151 1_555 1_555
C154 C152 1_555 1_555
C155 C153 1_555 1_555
C156 C153 1_555 1_555
C157 C153 1_555 1_555
C158 C154 1_555 1_555
C159 C154 1_555 1_555
C160 C154 1_555 1_555
O47 Fe6 1_555 1_555
O48 Fe3 1_555 1_555
C161 O47 1_555 1_555
C162 C161 1_555 1_555
C163 C162 1_555 1_555
C164 C162 1_555 1_555
C165 C162 1_555 1_555
O52 Fe8 1_555 1_555
C169 C167 1_555 1_555
C173 C169 1_555 1_555
C174 C169 1_555 1_555
C175 C169 1_555 1_555
O53 Fe9 1_555 1_555
O54 Fe6 1_555 1_555
C176 O53 1_555 1_555
C177 C176 1_555 1_555
C178 C177 1_555 1_555
C179 C177 1_555 1_555
C180 C177 1_555 1_555
N14 Fe11 1_555 1_555
C2 O9 1_555 1_555
O12 Fe9 1_555 1_555
C42 C43 1_555 1_555
C44 C45 1_555 1_555
C47 O21 1_555 1_555
N7 Fe6 1_555 1_555
O23 C75 1_555 1_555
O24 Fe11 1_555 1_555
O25 Fe11 1_555 1_555
C87 C88 1_555 1_555
C89 C90 1_555 1_555
C92 O32 1_555 1_555
N11 Fe9 1_555 1_555
O34 C120 1_555 1_555
C132 C133 1_555 1_555
C134 C135 1_555 1_555
C137 O40 1_555 1_555
O42 C146 1_555 1_555
C151 O45 1_555 1_555
C152 O46 1_555 1_555
O48 C161 1_555 1_555
C167 O52 1_555 1_555
O54 C176 1_555 1_555
C18 H49 1_555 1_555
C18 H50 1_555 1_555
C18 H51 1_555 1_555
C33 H55 1_555 1_555
C33 H56 1_555 1_555
C33 H57 1_555 1_555
C17 H61 1_555 1_555
C17 H62 1_555 1_555
C17 H63 1_555 1_555
C34 H70 1_555 1_555
C34 H71 1_555 1_555
C34 H72 1_555 1_555
C19 H79 1_555 1_555
C19 H80 1_555 1_555
C19 H81 1_555 1_555
C32 H88 1_555 1_555
C32 H89 1_555 1_555
C32 H90 1_555 1_555
C66 H94 1_555 1_555
C66 H95 1_555 1_555
C66 H96 1_555 1_555
C59 H97 1_555 1_555
C59 H98 1_555 1_555
C59 H99 1_555 1_555
C61 H100 1_555 1_555
C61 H101 1_555 1_555
C61 H102 1_555 1_555
C67 H103 1_555 1_555
C67 H104 1_555 1_555
C67 H105 1_555 1_555
C65 H106 1_555 1_555
C65 H107 1_555 1_555
C65 H108 1_555 1_555
C64 H109 1_555 1_555
C64 H110 1_555 1_555
C64 H111 1_555 1_555
C60 H112 1_555 1_555
C60 H113 1_555 1_555
C60 H114 1_555 1_555
C62 H115 1_555 1_555
C62 H116 1_555 1_555
C62 H117 1_555 1_555
C63 H118 1_555 1_555
C63 H119 1_555 1_555
C63 H120 1_555 1_555
C68 H121 1_555 1_555
C68 H122 1_555 1_555
C68 H123 1_555 1_555
C108 H127 1_555 1_555
C108 H128 1_555 1_555
C108 H129 1_555 1_555
C80 H139 1_555 1_555
C80 H140 1_555 1_555
C80 H141 1_555 1_555
C78 H145 1_555 1_555
C78 H146 1_555 1_555
C78 H147 1_555 1_555
C107 H148 1_555 1_555
C107 H149 1_555 1_555
C107 H150 1_555 1_555
C109 H157 1_555 1_555
C109 H158 1_555 1_555
C109 H159 1_555 1_555
C81 H160 1_555 1_555
C81 H161 1_555 1_555
C81 H162 1_555 1_555
C77 H163 1_555 1_555
C77 H164 1_555 1_555
C77 H165 1_555 1_555
C79 H166 1_555 1_555
C79 H167 1_555 1_555
C79 H168 1_555 1_555
C148 H172 1_555 1_555
C148 H173 1_555 1_555
C148 H174 1_555 1_555
C149 H175 1_555 1_555
C149 H176 1_555 1_555
C149 H177 1_555 1_555
C150 H178 1_555 1_555
C150 H179 1_555 1_555
C150 H180 1_555 1_555
C122 H181 1_555 1_555
C122 H182 1_555 1_555
C122 H183 1_555 1_555
C124 H190 1_555 1_555
C124 H191 1_555 1_555
C124 H192 1_555 1_555
C123 H193 1_555 1_555
C123 H194 1_555 1_555
C123 H195 1_555 1_555
C143 H199 1_555 1_555
C143 H200 1_555 1_555
C143 H201 1_555 1_555
C144 H205 1_555 1_555
C144 H206 1_555 1_555
C144 H207 1_555 1_555
C145 H208 1_555 1_555
C145 H209 1_555 1_555
C145 H210 1_555 1_555
C179 H214 1_555 1_555
C179 H215 1_555 1_555
C179 H216 1_555 1_555
C173 H217 1_555 1_555
C173 H218 1_555 1_555
C173 H219 1_555 1_555
C157 H220 1_555 1_555
C157 H221 1_555 1_555
C157 H222 1_555 1_555
C180 H223 1_555 1_555
C180 H224 1_555 1_555
C180 H225 1_555 1_555
C178 H226 1_555 1_555
C178 H227 1_555 1_555
C178 H228 1_555 1_555
C156 H229 1_555 1_555
C156 H230 1_555 1_555
C156 H231 1_555 1_555
C164 H232 1_555 1_555
C164 H233 1_555 1_555
C164 H234 1_555 1_555
C174 H238 1_555 1_555
C174 H239 1_555 1_555
C174 H240 1_555 1_555
C160 H241 1_555 1_555
C160 H242 1_555 1_555
C160 H243 1_555 1_555
C155 H244 1_555 1_555
C155 H245 1_555 1_555
C155 H246 1_555 1_555
C158 H247 1_555 1_555
C158 H248 1_555 1_555
C158 H249 1_555 1_555
C159 H253 1_555 1_555
C159 H254 1_555 1_555
C159 H255 1_555 1_555
C175 H256 1_555 1_555
C175 H257 1_555 1_555
C175 H258 1_555 1_555
C165 H259 1_555 1_555
C165 H260 1_555 1_555
C165 H261 1_555 1_555
C163 H262 1_555 1_555
C163 H263 1_555 1_555
C163 H264 1_555 1_555
C95_2 N15 1_555 1_555
C96_2 N15 1_555 1_555
H33_2 C95_2 1_555 1_555
C101_2 C95_2 1_555 1_555
C102_2 C96_2 1_555 1_555
H34_2 C96_2 1_555 1_555
H35_2 C101_2 1_555 1_555
C114_2 C101_2 1_555 1_555
H36_2 C102_2 1_555 1_555
N14 C127_2 1_555 1_555
C127_2 H41_2 1_555 1_555
C128_2 N14 1_555 1_555
C129_2 C127_2 1_555 1_555
C130_2 C128_2 1_555 1_555
H42_2 C128_2 1_555 1_555
H43_2 C129_2 1_555 1_555
C131_2 C114_2 1_555 1_555
H44_2 C130_2 1_555 1_555
C102_2 C114_2 1_555 1_555
C129_2 C131_2 1_555 1_555
C130_2 C131_2 1_555 1_555
O9_2 Fe2_2 1_555 1_555
N2_2 Fe2_2 1_555 1_555
C8_2 C2_2 1_555 1_555
C13_2 N2_2 1_555 1_555
C17_2 C8_2 1_555 1_555
C18_2 C8_2 1_555 1_555
C19_2 C8_2 1_555 1_555
H5_2 C13_2 1_555 1_555
C25_2 C13_2 1_555 1_555
H6_2 C25_2 1_555 1_555
C26_2 C25_2 1_555 1_555
C27_2 C26_2 1_555 1_555
C28_2 C27_2 1_555 1_555
H7_2 C28_2 1_555 1_555
C29_2 C28_2 1_555 1_555
N3_2 C29_2 1_555 1_555
H8_2 C29_2 1_555 1_555
Fe3_2 N3_2 1_555 1_555
O10_2 Fe3_2 1_555 1_555
Fe4 O15_2 1_555 1_555
O15_2 Fe5_2 1_555 1_555
O16_2 Fe4 1_555 1_555
O17_2 Fe4 1_555 1_555
O18_2 Fe4 1_555 1_555
O19_2 Fe4 1_555 1_555
N5 Fe4 1_555 1_555
Fe5_2 O20_2 1_555 1_555
C46_2 O16_2 1_555 1_555
C47_2 O17_2 1_555 1_555
C48_2 O18_2 1_555 1_555
C49_2 O19_2 1_555 1_555
C50 N5 1_555 1_555
C51 N5 1_555 1_555
O20_2 C46_2 1_555 1_555
O21_2 Fe5_2 1_555 1_555
N6_2 Fe5_2 1_555 1_555
C52_2 C46_2 1_555 1_555
C53_2 C47_2 1_555 1_555
C54_2 C48_2 1_555 1_555
C55_2 C49_2 1_555 1_555
H17 C50 1_555 1_555
C56 C50 1_555 1_555
C57 C51 1_555 1_555
H18 C51 1_555 1_555
C58_2 N6_2 1_555 1_555
C59_2 C52_2 1_555 1_555
C60_2 C52_2 1_555 1_555
C61_2 C52_2 1_555 1_555
C62_2 C53_2 1_555 1_555
C63_2 C53_2 1_555 1_555
C64_2 C53_2 1_555 1_555
C65_2 C54_2 1_555 1_555
C66_2 C54_2 1_555 1_555
C67_2 C55_2 1_555 1_555
C68_2 C55_2 1_555 1_555
H19 C56 1_555 1_555
C69 C56 1_555 1_555
H20 C57 1_555 1_555
H21_2 C58_2 1_555 1_555
C70_2 C58_2 1_555 1_555
H22_2 C70_2 1_555 1_555
C71_2 C70_2 1_555 1_555
C72_2 C71_2 1_555 1_555
C73_2 C72_2 1_555 1_555
H23_2 C73_2 1_555 1_555
C74_2 C73_2 1_555 1_555
N7_2 C74_2 1_555 1_555
H24_2 C74_2 1_555 1_555
Fe6_2 O10_2 1_555 1_555
N8 C82 1_555 1_555
C82 H25 1_555 1_555
C83 N8 1_555 1_555
C84 C82 1_555 1_555
C85 C83 1_555 1_555
H26 C83 1_555 1_555
H27 C84 1_555 1_555
C86 C69 1_555 1_555
H28 C85 1_555 1_555
O32_2 Fe8_2 1_555 1_555
N10_2 Fe8_2 1_555 1_555
C98_2 C92_2 1_555 1_555
C103_2 N10_2 1_555 1_555
C107_2 C98_2 1_555 1_555
C108_2 C98_2 1_555 1_555
C109_2 C98_2 1_555 1_555
H37_2 C103_2 1_555 1_555
C115_2 C103_2 1_555 1_555
H38_2 C115_2 1_555 1_555
C116_2 C115_2 1_555 1_555
C117_2 C116_2 1_555 1_555
C118_2 C117_2 1_555 1_555
H39_2 C118_2 1_555 1_555
C119_2 C118_2 1_555 1_555
N11_2 C119_2 1_555 1_555
H40_2 C119_2 1_555 1_555
Fe9_2 O10_2 1_555 1_555
O41_2 Fe3_2 1_555 1_555
O42_2 Fe9_2 1_555 1_555
C146_2 O41_2 1_555 1_555
C147_2 C146_2 1_555 1_555
C148_2 C147_2 1_555 1_555
C149_2 C147_2 1_555 1_555
C150_2 C147_2 1_555 1_555
O47_2 Fe6_2 1_555 1_555
O48_2 Fe3_2 1_555 1_555
C161_2 O47_2 1_555 1_555
C162_2 C161_2 1_555 1_555
C163_2 C162_2 1_555 1_555
C164_2 C162_2 1_555 1_555
C165_2 C162_2 1_555 1_555
O53_2 Fe9_2 1_555 1_555
O54_2 Fe6_2 1_555 1_555
C176_2 O53_2 1_555 1_555
C177_2 C176_2 1_555 1_555
C178_2 C177_2 1_555 1_555
C179_2 C177_2 1_555 1_555
C180_2 C177_2 1_555 1_555
Fe15 N8 1_555 1_555
C2_2 O9_2 1_555 1_555
C47_2 O21_2 1_555 1_555
C57 C69 1_555 1_555
N7_2 Fe6_2 1_555 1_555
C84 C86 1_555 1_555
C85 C86 1_555 1_555
C92_2 O32_2 1_555 1_555
N11_2 Fe9_2 1_555 1_555
O42_2 C146_2 1_555 1_555
O48_2 C161_2 1_555 1_555
O54_2 C176_2 1_555 1_555
C18_2 H49_2 1_555 1_555
C18_2 H50_2 1_555 1_555
C18_2 H51_2 1_555 1_555
C17_2 H61_2 1_555 1_555
C17_2 H62_2 1_555 1_555
C17_2 H63_2 1_555 1_555
C19_2 H79_2 1_555 1_555
C19_2 H80_2 1_555 1_555
C19_2 H81_2 1_555 1_555
C66_2 H94_2 1_555 1_555
C66_2 H95_2 1_555 1_555
C66_2 H96_2 1_555 1_555
C59_2 H97_2 1_555 1_555
C59_2 H98_2 1_555 1_555
C59_2 H99_2 1_555 1_555
C61_2 H100_2 1_555 1_555
C61_2 H101_2 1_555 1_555
C61_2 H102_2 1_555 1_555
C67_2 H104_2 1_555 1_555
C67_2 H105_2 1_555 1_555
C65_2 H106_2 1_555 1_555
C65_2 H107_2 1_555 1_555
C64_2 H109_2 1_555 1_555
C64_2 H110_2 1_555 1_555
C64_2 H111_2 1_555 1_555
C60_2 H112_2 1_555 1_555
C60_2 H113_2 1_555 1_555
C60_2 H114_2 1_555 1_555
C62_2 H115_2 1_555 1_555
C62_2 H116_2 1_555 1_555
C62_2 H117_2 1_555 1_555
C63_2 H118_2 1_555 1_555
C63_2 H119_2 1_555 1_555
C63_2 H120_2 1_555 1_555
C68_2 H121_2 1_555 1_555
C68_2 H122_2 1_555 1_555
C68_2 H123_2 1_555 1_555
C108_2 H127_2 1_555 1_555
C108_2 H128_2 1_555 1_555
C108_2 H129_2 1_555 1_555
C107_2 H148_2 1_555 1_555
C107_2 H149_2 1_555 1_555
C107_2 H150_2 1_555 1_555
C109_2 H157_2 1_555 1_555
C109_2 H158_2 1_555 1_555
C109_2 H159_2 1_555 1_555
C148_2 H172_2 1_555 1_555
C148_2 H173_2 1_555 1_555
C148_2 H174_2 1_555 1_555
C149_2 H175_2 1_555 1_555
C149_2 H176_2 1_555 1_555
C149_2 H177_2 1_555 1_555
C150_2 H178_2 1_555 1_555
C150_2 H179_2 1_555 1_555
C150_2 H180_2 1_555 1_555
C179_2 H214_2 1_555 1_555
C179_2 H215_2 1_555 1_555
C179_2 H216_2 1_555 1_555
C180_2 H223_2 1_555 1_555
C180_2 H224_2 1_555 1_555
C180_2 H225_2 1_555 1_555
C178_2 H226_2 1_555 1_555
C178_2 H227_2 1_555 1_555
C178_2 H228_2 1_555 1_555
C164_2 H232_2 1_555 1_555
C164_2 H233_2 1_555 1_555
C164_2 H234_2 1_555 1_555
C165_2 H259_2 1_555 1_555
C165_2 H260_2 1_555 1_555
C165_2 H261_2 1_555 1_555
C163_2 H262_2 1_555 1_555
C163_2 H263_2 1_555 1_555
C163_2 H264_2 1_555 1_555
N2_3 Fe2_3 1_555 1_555
C27_3 C26_3 1_555 1_555
Fe3_3 N3_3 1_555 1_555
O10_3 Fe3_3 1_555 1_555
O11_2 Fe3_3 1_555 1_555
O12_2 C30_2 1_555 1_555
C30_2 O11_2 1_555 1_555
C31_2 C30_2 1_555 1_555
C32_2 C31_2 1_555 1_555
C33_2 C31_2 1_555 1_555
C34_2 C31_2 1_555 1_555
C42_2 N2_3 1_555 1_555
H13_2 C42_2 1_555 1_555
C43_2 C26_3 1_555 1_555
H14_2 C43_2 1_555 1_555
C44_2 C27_3 1_555 1_555
H15_2 C44_2 1_555 1_555
C45_2 N3_3 1_555 1_555
H16_2 C45_2 1_555 1_555
O15_3 Fe5_3 1_555 1_555
N6_3 Fe5_3 1_555 1_555
C54_3 C48_3 1_555 1_555
C55_3 C49_3 1_555 1_555
C65_3 C54_3 1_555 1_555
C67_3 C55_3 1_555 1_555
C72_3 C71_3 1_555 1_555
Fe6_3 O10_3 1_555 1_555
O22_2 Fe6_3 1_555 1_555
O23_2 Fe3_3 1_555 1_555
C75_2 O22_2 1_555 1_555
C76_2 C75_2 1_555 1_555
C77_2 C76_2 1_555 1_555
C78_2 C76_2 1_555 1_555
C79_2 C76_2 1_555 1_555
O24_2 C48_3 1_555 1_555
C80_2 C54_3 1_555 1_555
O25_2 C49_3 1_555 1_555
C81_2 C55_3 1_555 1_555
C87_2 N6_3 1_555 1_555
H29_2 C87_2 1_555 1_555
C88_2 C71_3 1_555 1_555
H30_2 C88_2 1_555 1_555
C89_2 C72_3 1_555 1_555
H31_2 C89_2 1_555 1_555
C90_2 N7_3 1_555 1_555
H32_2 C90_2 1_555 1_555
N10_3 Fe8_3 1_555 1_555
C117_3 C116_3 1_555 1_555
Fe9_3 O10_3 1_555 1_555
O33_2 Fe9_3 1_555 1_555
O34_2 Fe6_3 1_555 1_555
C120_2 O33_2 1_555 1_555
C121_2 C120_2 1_555 1_555
C122_2 C121_2 1_555 1_555
C123_2 C121_2 1_555 1_555
C124_2 C121_2 1_555 1_555
C132_2 N10_3 1_555 1_555
H45_2 C132_2 1_555 1_555
C133_2 C116_3 1_555 1_555
H46_2 C133_2 1_555 1_555
C134_2 C117_3 1_555 1_555
H47_2 C134_2 1_555 1_555
C135_2 N11_3 1_555 1_555
H48_2 C135_2 1_555 1_555
O40_2 Fe2_3 1_555 1_555
C139_2 C137_2 1_555 1_555
C143_2 C139_2 1_555 1_555
C144_2 C139_2 1_555 1_555
C145_2 C139_2 1_555 1_555
Fe11_2 O15_3 1_555 1_555
O43_2 Fe11_2 1_555 1_555
O44_2 Fe11_2 1_555 1_555
C151_2 O43_2 1_555 1_555
C152_2 O44_2 1_555 1_555
O45_2 Fe5_3 1_555 1_555
O46_2 Fe5_3 1_555 1_555
C153_2 C151_2 1_555 1_555
C154_2 C152_2 1_555 1_555
C155_2 C153_2 1_555 1_555
C156_2 C153_2 1_555 1_555
C157_2 C153_2 1_555 1_555
C158_2 C154_2 1_555 1_555
C159_2 C154_2 1_555 1_555
C160_2 C154_2 1_555 1_555
O52_2 Fe8_3 1_555 1_555
C169_2 C167_2 1_555 1_555
C173_2 C169_2 1_555 1_555
C174_2 C169_2 1_555 1_555
C175_2 C169_2 1_555 1_555
N14_2 Fe11_2 1_555 1_555
O12_2 Fe9_3 1_555 1_555
C42_2 C43_2 1_555 1_555
C44_2 C45_2 1_555 1_555
N7_3 Fe6_3 1_555 1_555
O23_2 C75_2 1_555 1_555
O24_2 Fe11_2 1_555 1_555
O25_2 Fe11_2 1_555 1_555
C87_2 C88_2 1_555 1_555
C89_2 C90_2 1_555 1_555
N11_3 Fe9_3 1_555 1_555
O34_2 C120_2 1_555 1_555
C132_2 C133_2 1_555 1_555
C134_2 C135_2 1_555 1_555
C137_2 O40_2 1_555 1_555
C151_2 O45_2 1_555 1_555
C152_2 O46_2 1_555 1_555
C167_2 O52_2 1_555 1_555
C33_2 H55_2 1_555 1_555
C33_2 H56_2 1_555 1_555
C33_2 H57_2 1_555 1_555
C34_2 H70_2 1_555 1_555
C34_2 H71_2 1_555 1_555
C34_2 H72_2 1_555 1_555
C32_2 H88_2 1_555 1_555
C32_2 H89_2 1_555 1_555
C32_2 H90_2 1_555 1_555
C67_3 H103_2 1_555 1_555
C67_3 H104_3 1_555 1_555
C65_3 H107_3 1_555 1_555
C65_3 H108_2 1_555 1_555
C80_2 H139_2 1_555 1_555
C80_2 H140_2 1_555 1_555
C80_2 H141_2 1_555 1_555
C78_2 H145_2 1_555 1_555
C78_2 H146_2 1_555 1_555
C78_2 H147_2 1_555 1_555
C81_2 H160_2 1_555 1_555
C81_2 H161_2 1_555 1_555
C81_2 H162_2 1_555 1_555
C77_2 H163_2 1_555 1_555
C77_2 H164_2 1_555 1_555
C77_2 H165_2 1_555 1_555
C79_2 H166_2 1_555 1_555
C79_2 H167_2 1_555 1_555
C79_2 H168_2 1_555 1_555
C122_2 H181_2 1_555 1_555
C122_2 H182_2 1_555 1_555
C122_2 H183_2 1_555 1_555
C124_2 H190_2 1_555 1_555
C124_2 H191_2 1_555 1_555
C124_2 H192_2 1_555 1_555
C123_2 H193_2 1_555 1_555
C123_2 H194_2 1_555 1_555
C123_2 H195_2 1_555 1_555
C143_2 H199_2 1_555 1_555
C143_2 H200_2 1_555 1_555
C143_2 H201_2 1_555 1_555
C144_2 H205_2 1_555 1_555
C144_2 H206_2 1_555 1_555
C144_2 H207_2 1_555 1_555
C145_2 H208_2 1_555 1_555
C145_2 H209_2 1_555 1_555
C145_2 H210_2 1_555 1_555
C173_2 H217_2 1_555 1_555
C173_2 H218_2 1_555 1_555
C173_2 H219_2 1_555 1_555
C157_2 H220_2 1_555 1_555
C157_2 H221_2 1_555 1_555
C157_2 H222_2 1_555 1_555
C156_2 H229_2 1_555 1_555
C156_2 H230_2 1_555 1_555
C156_2 H231_2 1_555 1_555
C174_2 H238_2 1_555 1_555
C174_2 H239_2 1_555 1_555
C174_2 H240_2 1_555 1_555
C160_2 H241_2 1_555 1_555
C160_2 H242_2 1_555 1_555
C160_2 H243_2 1_555 1_555
C155_2 H244_2 1_555 1_555
C155_2 H245_2 1_555 1_555
C155_2 H246_2 1_555 1_555
C158_2 H247_2 1_555 1_555
C158_2 H248_2 1_555 1_555
C158_2 H249_2 1_555 1_555
C159_2 H253_2 1_555 1_555
C159_2 H254_2 1_555 1_555
C159_2 H255_2 1_555 1_555
C175_2 H256_2 1_555 1_555
C175_2 H257_2 1_555 1_555
C175_2 H258_2 1_555 1_555
Fe15 O26_3 1_555 1_555
O27_2 Fe15 1_555 1_555
O28_2 Fe15 1_555 1_555
O29_2 Fe15 1_555 1_555
O30_2 Fe15 1_555 1_555
C91_2 O27_2 1_555 1_555
C93_3 O29_2 1_555 1_555
C94_3 O30_2 1_555 1_555
O31_2 C91_2 1_555 1_555
C97_2 C91_2 1_555 1_555
C99_3 C93_3 1_555 1_555
C100_3 C94_3 1_555 1_555
C104_2 C97_2 1_555 1_555
C105_2 C97_2 1_555 1_555
C106_2 C97_2 1_555 1_555
C110_3 C99_3 1_555 1_555
C111_2 C99_3 1_555 1_555
C112_3 C100_3 1_555 1_555
C113_2 C100_3 1_555 1_555
O35_2 C93_3 1_555 1_555
C125_2 C99_3 1_555 1_555
O36_2 C94_3 1_555 1_555
C126_2 C100_3 1_555 1_555
Fe12_2 O26_3 1_555 1_555
O49_2 Fe12_2 1_555 1_555
O50_2 Fe12_2 1_555 1_555
C166_2 O49_2 1_555 1_555
C168_2 C166_2 1_555 1_555
C170_2 C168_2 1_555 1_555
C171_2 C168_2 1_555 1_555
C172_2 C168_2 1_555 1_555
N15_2 Fe12_2 1_555 1_555
O35_2 Fe12_2 1_555 1_555
O36_2 Fe12_2 1_555 1_555
C166_2 O51_2 1_555 1_555
C106_2 H125_2 1_555 1_555
C106_2 H126_2 1_555 1_555
C111_2 H130_2 1_555 1_555
C111_2 H131_2 1_555 1_555
C111_2 H132_2 1_555 1_555
C112_3 H133_2 1_555 1_555
C112_3 H134_3 1_555 1_555
C112_3 H135_2 1_555 1_555
C104_2 H136_2 1_555 1_555
C104_2 H137_2 1_555 1_555
C104_2 H138_2 1_555 1_555
C105_2 H142_2 1_555 1_555
C105_2 H143_2 1_555 1_555
C110_3 H151_2 1_555 1_555
C110_3 H152_3 1_555 1_555
C110_3 H153_2 1_555 1_555
C113_2 H154_2 1_555 1_555
C113_2 H155_2 1_555 1_555
C113_2 H156_2 1_555 1_555
C125_2 H184_2 1_555 1_555
C125_2 H185_2 1_555 1_555
C125_2 H186_2 1_555 1_555
C126_2 H187_2 1_555 1_555
C126_2 H188_2 1_555 1_555
C126_2 H189_2 1_555 1_555
C170_2 H211_2 1_555 1_555
C170_2 H212_2 1_555 1_555
C170_2 H213_2 1_555 1_555
C172_2 H235_2 1_555 1_555
C172_2 H236_2 1_555 1_555
C171_2 H251_2 1_555 1_555
C171_2 H252_2 1_555 1_555
C50_2 N14_2 1_555 1_555
C51_2 N14_2 1_555 1_555
H17_2 C50_2 1_555 1_555
C56_2 C50_2 1_555 1_555
C57_2 C51_2 1_555 1_555
H18_2 C51_2 1_555 1_555
H19_2 C56_2 1_555 1_555
C69_2 C56_2 1_555 1_555
H20_2 C57_2 1_555 1_555
N15_2 C82_2 1_555 1_555
C82_2 H25_2 1_555 1_555
C83_2 N15_2 1_555 1_555
C84_2 C82_2 1_555 1_555
C85_2 C83_2 1_555 1_555
H26_2 C83_2 1_555 1_555
H27_2 C84_2 1_555 1_555
C86_2 C69_2 1_555 1_555
H28_2 C85_2 1_555 1_555
C57_2 C69_2 1_555 1_555
C84_2 C86_2 1_555 1_555
C85_2 C86_2 1_555 1_555
Fe1 O3 1_555 1_555
O4 Fe1 1_555 1_555
O5 Fe1 1_555 1_555
O6 Fe1 1_555 1_555
O7 Fe1 1_555 1_555
N1 Fe1 1_555 1_555
C1 O4 1_555 1_555
C3 O6 1_555 1_555
C4 O7 1_555 1_555
C5 N1 1_555 1_555
C6 N1 1_555 1_555
O8 C1 1_555 1_555
C7 C1 1_555 1_555
C9 C3 1_555 1_555
C10 C4 1_555 1_555
H1 C5 1_555 1_555
C11 C5 1_555 1_555
C12 C6 1_555 1_555
H2 C6 1_555 1_555
C14 C7 1_555 1_555
C15 C7 1_555 1_555
C16 C7 1_555 1_555
C20 C9 1_555 1_555
C21 C9 1_555 1_555
C22 C10 1_555 1_555
C23 C10 1_555 1_555
H3 C11 1_555 1_555
C24 C11 1_555 1_555
H4 C12 1_555 1_555
N4 C37 1_555 1_555
C37 H9 1_555 1_555
C38 N4 1_555 1_555
C39 C37 1_555 1_555
C40 C38 1_555 1_555
H10 C38 1_555 1_555
H11 C39 1_555 1_555
C41 C24 1_555 1_555
H12 C40 1_555 1_555
Fe13 N4 1_555 1_555
C12 C24 1_555 1_555
C39 C41 1_555 1_555
C40 C41 1_555 1_555
C21 H52 1_555 1_555
C21 H53 1_555 1_555
C21 H54 1_555 1_555
C16 H59 1_555 1_555
C16 H60 1_555 1_555
C20 H64 1_555 1_555
C20 H65 1_555 1_555
C23 H67 1_555 1_555
C23 H68 1_555 1_555
C23 H69 1_555 1_555
C15 H76 1_555 1_555
C15 H77 1_555 1_555
C22 H83 1_555 1_555
C22 H84 1_555 1_555
C14 H91 1_555 1_555
C14 H92 1_555 1_555
C14 H93 1_555 1_555
C9_2 C3_2 1_555 1_555
C10_2 C4_2 1_555 1_555
C20_2 C9_2 1_555 1_555
C22_2 C10_2 1_555 1_555
O13 C3_2 1_555 1_555
C35 C9_2 1_555 1_555
O14 C4_2 1_555 1_555
C36 C10_2 1_555 1_555
Fe10 O3_2 1_555 1_555
O37 Fe10 1_555 1_555
O38 Fe10 1_555 1_555
C136 O37 1_555 1_555
C138 C136 1_555 1_555
C140 C138 1_555 1_555
C141 C138 1_555 1_555
C142 C138 1_555 1_555
N13 Fe10 1_555 1_555
O13 Fe10 1_555 1_555
O14 Fe10 1_555 1_555
C136 O39 1_555 1_555
C20_2 H65_2 1_555 1_555
C20_2 H66 1_555 1_555
C36 H73 1_555 1_555
C36 H74 1_555 1_555
C36 H75 1_555 1_555
C22_2 H82 1_555 1_555
C22_2 H83_2 1_555 1_555
C35 H85 1_555 1_555
C35 H86 1_555 1_555
C35 H87 1_555 1_555
C142 H169 1_555 1_555
C142 H170 1_555 1_555
C141 H197 1_555 1_555
C141 H198 1_555 1_555
C140 H202 1_555 1_555
C140 H203 1_555 1_555
C140 H204 1_555 1_555
Fe13 O3_3 1_555 1_555
O4_2 Fe13 1_555 1_555
O5_2 Fe13 1_555 1_555
O6_2 Fe13 1_555 1_555
O7_2 Fe13 1_555 1_555
C1_2 O4_2 1_555 1_555
C3_3 O6_2 1_555 1_555
C4_3 O7_2 1_555 1_555
O8_2 C1_2 1_555 1_555
C7_2 C1_2 1_555 1_555
C9_3 C3_3 1_555 1_555
C10_3 C4_3 1_555 1_555
C14_2 C7_2 1_555 1_555
C15_2 C7_2 1_555 1_555
C16_2 C7_2 1_555 1_555
C20_3 C9_3 1_555 1_555
C21_2 C9_3 1_555 1_555
C22_3 C10_3 1_555 1_555
C23_2 C10_3 1_555 1_555
O13_2 C3_3 1_555 1_555
C35_2 C9_3 1_555 1_555
O14_2 C4_3 1_555 1_555
C36_2 C10_3 1_555 1_555
Fe10_2 O3_3 1_555 1_555
O37_2 Fe10_2 1_555 1_555
O38_2 Fe10_2 1_555 1_555
C136_2 O37_2 1_555 1_555
C138_2 C136_2 1_555 1_555
C140_2 C138_2 1_555 1_555
C141_2 C138_2 1_555 1_555
C142_2 C138_2 1_555 1_555
N13_2 Fe10_2 1_555 1_555
O13_2 Fe10_2 1_555 1_555
O14_2 Fe10_2 1_555 1_555
C136_2 O39_2 1_555 1_555
C21_2 H52_2 1_555 1_555
C21_2 H53_2 1_555 1_555
C21_2 H54_2 1_555 1_555
C16_2 H59_2 1_555 1_555
C16_2 H60_2 1_555 1_555
C20_3 H64_2 1_555 1_555
C20_3 H65_3 1_555 1_555
C20_3 H66_2 1_555 1_555
C23_2 H67_2 1_555 1_555
C23_2 H68_2 1_555 1_555
C23_2 H69_2 1_555 1_555
C36_2 H73_2 1_555 1_555
C36_2 H74_2 1_555 1_555
C36_2 H75_2 1_555 1_555
C15_2 H76_2 1_555 1_555
C15_2 H77_2 1_555 1_555
C22_3 H82_2 1_555 1_555
C22_3 H83_3 1_555 1_555
C22_3 H84_2 1_555 1_555
C35_2 H85_2 1_555 1_555
C35_2 H86_2 1_555 1_555
C35_2 H87_2 1_555 1_555
C14_2 H91_2 1_555 1_555
C14_2 H92_2 1_555 1_555
C14_2 H93_2 1_555 1_555
C142_2 H169_2 1_555 1_555
C142_2 H170_2 1_555 1_555
C141_2 H197_2 1_555 1_555
C141_2 H198_2 1_555 1_555
C140_2 H202_2 1_555 1_555
C140_2 H203_2 1_555 1_555
C140_2 H204_2 1_555 1_555
C5_2 N13 1_555 1_555
C6_2 N13 1_555 1_555
H1_2 C5_2 1_555 1_555
C11_2 C5_2 1_555 1_555
C12_2 C6_2 1_555 1_555
H2_2 C6_2 1_555 1_555
H3_2 C11_2 1_555 1_555
C24_2 C11_2 1_555 1_555
H4_2 C12_2 1_555 1_555
N13_2 C37_2 1_555 1_555
C37_2 H9_2 1_555 1_555
C38_2 N13_2 1_555 1_555
C39_2 C37_2 1_555 1_555
C40_2 C38_2 1_555 1_555
H10_2 C38_2 1_555 1_555
H11_2 C39_2 1_555 1_555
C41_2 C24_2 1_555 1_555
H12_2 C40_2 1_555 1_555
C12_2 C24_2 1_555 1_555
C39_2 C41_2 1_555 1_555
C40_2 C41_2 1_555 1_555
Fe1_2 O3_4 1_555 1_555
O4_3 Fe1_2 1_555 1_555
O5_3 Fe1_2 1_555 1_555
O6_3 Fe1_2 1_555 1_555
O7_3 Fe1_2 1_555 1_555
N1_2 Fe1_2 1_555 1_555
C1_3 O4_3 1_555 1_555
C3_4 O6_3 1_555 1_555
C4_4 O7_3 1_555 1_555
C5_3 N1_2 1_555 1_555
C6_3 N1_2 1_555 1_555
O8_3 C1_3 1_555 1_555
C7_3 C1_3 1_555 1_555
C9_4 C3_4 1_555 1_555
C10_4 C4_4 1_555 1_555
H1_3 C5_3 1_555 1_555
C11_3 C5_3 1_555 1_555
C12_3 C6_3 1_555 1_555
H2_3 C6_3 1_555 1_555
C14_3 C7_3 1_555 1_555
C15_3 C7_3 1_555 1_555
C16_3 C7_3 1_555 1_555
C20_4 C9_4 1_555 1_555
C21_3 C9_4 1_555 1_555
C22_4 C10_4 1_555 1_555
C23_3 C10_4 1_555 1_555
H3_3 C11_3 1_555 1_555
C24_3 C11_3 1_555 1_555
H4_3 C12_3 1_555 1_555
N4_2 C37_3 1_555 1_555
C37_3 H9_3 1_555 1_555
C38_3 N4_2 1_555 1_555
C39_3 C37_3 1_555 1_555
C40_3 C38_3 1_555 1_555
H10_3 C38_3 1_555 1_555
H11_3 C39_3 1_555 1_555
C41_3 C24_3 1_555 1_555
H12_3 C40_3 1_555 1_555
Fe13_2 N4_2 1_555 1_555
C12_3 C24_3 1_555 1_555
C39_3 C41_3 1_555 1_555
C40_3 C41_3 1_555 1_555
C21_3 H52_3 1_555 1_555
C21_3 H53_3 1_555 1_555
C21_3 H54_3 1_555 1_555
C16_3 H59_3 1_555 1_555
C16_3 H60_3 1_555 1_555
C20_4 H64_3 1_555 1_555
C20_4 H65_4 1_555 1_555
C23_3 H67_3 1_555 1_555
C23_3 H68_3 1_555 1_555
C23_3 H69_3 1_555 1_555
C15_3 H76_3 1_555 1_555
C15_3 H77_3 1_555 1_555
C22_4 H83_4 1_555 1_555
C22_4 H84_3 1_555 1_555
C14_3 H91_3 1_555 1_555
C14_3 H92_3 1_555 1_555
C14_3 H93_3 1_555 1_555
C9_5 C3_5 1_555 1_555
C10_5 C4_5 1_555 1_555
C20_5 C9_5 1_555 1_555
C22_5 C10_5 1_555 1_555
O13_3 C3_5 1_555 1_555
C35_3 C9_5 1_555 1_555
O14_3 C4_5 1_555 1_555
C36_3 C10_5 1_555 1_555
Fe10_3 O3_5 1_555 1_555
O37_3 Fe10_3 1_555 1_555
O38_3 Fe10_3 1_555 1_555
C136_3 O37_3 1_555 1_555
C138_3 C136_3 1_555 1_555
C140_3 C138_3 1_555 1_555
C141_3 C138_3 1_555 1_555
C142_3 C138_3 1_555 1_555
N13_3 Fe10_3 1_555 1_555
O13_3 Fe10_3 1_555 1_555
O14_3 Fe10_3 1_555 1_555
C136_3 O39_3 1_555 1_555
C20_5 H65_5 1_555 1_555
C20_5 H66_3 1_555 1_555
C36_3 H73_3 1_555 1_555
C36_3 H74_3 1_555 1_555
C36_3 H75_3 1_555 1_555
C22_5 H82_3 1_555 1_555
C22_5 H83_5 1_555 1_555
C35_3 H85_3 1_555 1_555
C35_3 H86_3 1_555 1_555
C35_3 H87_3 1_555 1_555
C142_3 H169_3 1_555 1_555
C142_3 H170_3 1_555 1_555
C141_3 H197_3 1_555 1_555
C141_3 H198_3 1_555 1_555
C140_3 H202_3 1_555 1_555
C140_3 H203_3 1_555 1_555
C140_3 H204_3 1_555 1_555
Fe13_2 O3_6 1_555 1_555
O4_4 Fe13_2 1_555 1_555
O5_4 Fe13_2 1_555 1_555
O6_4 Fe13_2 1_555 1_555
O7_4 Fe13_2 1_555 1_555
C1_4 O4_4 1_555 1_555
C3_6 O6_4 1_555 1_555
C4_6 O7_4 1_555 1_555
O8_4 C1_4 1_555 1_555
C7_4 C1_4 1_555 1_555
C9_6 C3_6 1_555 1_555
C10_6 C4_6 1_555 1_555
C14_4 C7_4 1_555 1_555
C15_4 C7_4 1_555 1_555
C16_4 C7_4 1_555 1_555
C20_6 C9_6 1_555 1_555
C21_4 C9_6 1_555 1_555
C22_6 C10_6 1_555 1_555
C23_4 C10_6 1_555 1_555
O13_4 C3_6 1_555 1_555
C35_4 C9_6 1_555 1_555
O14_4 C4_6 1_555 1_555
C36_4 C10_6 1_555 1_555
Fe10_4 O3_6 1_555 1_555
O37_4 Fe10_4 1_555 1_555
O38_4 Fe10_4 1_555 1_555
C136_4 O37_4 1_555 1_555
C138_4 C136_4 1_555 1_555
C140_4 C138_4 1_555 1_555
C141_4 C138_4 1_555 1_555
C142_4 C138_4 1_555 1_555
N13_4 Fe10_4 1_555 1_555
O13_4 Fe10_4 1_555 1_555
O14_4 Fe10_4 1_555 1_555
C136_4 O39_4 1_555 1_555
C21_4 H52_4 1_555 1_555
C21_4 H53_4 1_555 1_555
C21_4 H54_4 1_555 1_555
C16_4 H59_4 1_555 1_555
C16_4 H60_4 1_555 1_555
C20_6 H64_4 1_555 1_555
C20_6 H65_6 1_555 1_555
C20_6 H66_4 1_555 1_555
C23_4 H67_4 1_555 1_555
C23_4 H68_4 1_555 1_555
C23_4 H69_4 1_555 1_555
C36_4 H73_4 1_555 1_555
C36_4 H74_4 1_555 1_555
C36_4 H75_4 1_555 1_555
C15_4 H76_4 1_555 1_555
C15_4 H77_4 1_555 1_555
C22_6 H82_4 1_555 1_555
C22_6 H83_6 1_555 1_555
C22_6 H84_4 1_555 1_555
C35_4 H85_4 1_555 1_555
C35_4 H86_4 1_555 1_555
C35_4 H87_4 1_555 1_555
C14_4 H91_4 1_555 1_555
C14_4 H92_4 1_555 1_555
C14_4 H93_4 1_555 1_555
C142_4 H169_4 1_555 1_555
C142_4 H170_4 1_555 1_555
C141_4 H197_4 1_555 1_555
C141_4 H198_4 1_555 1_555
C140_4 H202_4 1_555 1_555
C140_4 H203_4 1_555 1_555
C140_4 H204_4 1_555 1_555
C5_4 N13_3 1_555 1_555
C6_4 N13_3 1_555 1_555
H1_4 C5_4 1_555 1_555
C11_4 C5_4 1_555 1_555
C12_4 C6_4 1_555 1_555
H2_4 C6_4 1_555 1_555
H3_4 C11_4 1_555 1_555
C24_4 C11_4 1_555 1_555
H4_4 C12_4 1_555 1_555
N13_4 C37_4 1_555 1_555
C37_4 H9_4 1_555 1_555
C38_4 N13_4 1_555 1_555
C39_4 C37_4 1_555 1_555
C40_4 C38_4 1_555 1_555
H10_4 C38_4 1_555 1_555
H11_4 C39_4 1_555 1_555
C41_4 C24_4 1_555 1_555
H12_4 C40_4 1_555 1_555
C12_4 C24_4 1_555 1_555
C39_4 C41_4 1_555 1_555
C40_4 C41_4 1_555 1_555
O9_3 Fe2_4 1_555 1_555
N2_4 Fe2_4 1_555 1_555
C8_3 C2_3 1_555 1_555
C13_3 N2_4 1_555 1_555
C17_3 C8_3 1_555 1_555
C18_3 C8_3 1_555 1_555
C19_3 C8_3 1_555 1_555
H5_3 C13_3 1_555 1_555
C25_3 C13_3 1_555 1_555
H6_3 C25_3 1_555 1_555
C26_4 C25_3 1_555 1_555
C27_4 C26_4 1_555 1_555
C28_3 C27_4 1_555 1_555
H7_3 C28_3 1_555 1_555
C29_3 C28_3 1_555 1_555
N3_4 C29_3 1_555 1_555
H8_3 C29_3 1_555 1_555
Fe3_4 N3_4 1_555 1_555
O10_4 Fe3_4 1_555 1_555
Fe4_2 O15_4 1_555 1_555
O15_4 Fe5_4 1_555 1_555
O16_3 Fe4_2 1_555 1_555
O17_3 Fe4_2 1_555 1_555
O18_3 Fe4_2 1_555 1_555
O19_3 Fe4_2 1_555 1_555
N5_2 Fe4_2 1_555 1_555
Fe5_4 O20_3 1_555 1_555
C46_3 O16_3 1_555 1_555
C47_3 O17_3 1_555 1_555
C48_4 O18_3 1_555 1_555
C49_4 O19_3 1_555 1_555
C50_3 N5_2 1_555 1_555
C51_3 N5_2 1_555 1_555
O20_3 C46_3 1_555 1_555
O21_3 Fe5_4 1_555 1_555
N6_4 Fe5_4 1_555 1_555
C52_3 C46_3 1_555 1_555
C53_3 C47_3 1_555 1_555
C54_4 C48_4 1_555 1_555
C55_4 C49_4 1_555 1_555
H17_3 C50_3 1_555 1_555
C56_3 C50_3 1_555 1_555
C57_3 C51_3 1_555 1_555
H18_3 C51_3 1_555 1_555
C58_3 N6_4 1_555 1_555
C59_3 C52_3 1_555 1_555
C60_3 C52_3 1_555 1_555
C61_3 C52_3 1_555 1_555
C62_3 C53_3 1_555 1_555
C63_3 C53_3 1_555 1_555
C64_3 C53_3 1_555 1_555
C65_4 C54_4 1_555 1_555
C66_3 C54_4 1_555 1_555
C67_4 C55_4 1_555 1_555
C68_3 C55_4 1_555 1_555
H19_3 C56_3 1_555 1_555
C69_3 C56_3 1_555 1_555
H20_3 C57_3 1_555 1_555
H21_3 C58_3 1_555 1_555
C70_3 C58_3 1_555 1_555
H22_3 C70_3 1_555 1_555
C71_4 C70_3 1_555 1_555
C72_4 C71_4 1_555 1_555
C73_3 C72_4 1_555 1_555
H23_3 C73_3 1_555 1_555
C74_3 C73_3 1_555 1_555
N7_4 C74_3 1_555 1_555
H24_3 C74_3 1_555 1_555
Fe6_4 O10_4 1_555 1_555
N8_2 C82_3 1_555 1_555
C82_3 H25_3 1_555 1_555
C83_3 N8_2 1_555 1_555
C84_3 C82_3 1_555 1_555
C85_3 C83_3 1_555 1_555
H26_3 C83_3 1_555 1_555
H27_3 C84_3 1_555 1_555
C86_3 C69_3 1_555 1_555
H28_3 C85_3 1_555 1_555
O32_3 Fe8_4 1_555 1_555
N10_4 Fe8_4 1_555 1_555
C98_3 C92_3 1_555 1_555
C103_3 N10_4 1_555 1_555
C107_3 C98_3 1_555 1_555
C108_3 C98_3 1_555 1_555
C109_3 C98_3 1_555 1_555
H37_3 C103_3 1_555 1_555
C115_3 C103_3 1_555 1_555
H38_3 C115_3 1_555 1_555
C116_4 C115_3 1_555 1_555
C117_4 C116_4 1_555 1_555
C118_3 C117_4 1_555 1_555
H39_3 C118_3 1_555 1_555
C119_3 C118_3 1_555 1_555
N11_4 C119_3 1_555 1_555
H40_3 C119_3 1_555 1_555
Fe9_4 O10_4 1_555 1_555
O41_3 Fe3_4 1_555 1_555
O42_3 Fe9_4 1_555 1_555
C146_3 O41_3 1_555 1_555
C147_3 C146_3 1_555 1_555
C148_3 C147_3 1_555 1_555
C149_3 C147_3 1_555 1_555
C150_3 C147_3 1_555 1_555
O47_3 Fe6_4 1_555 1_555
O48_3 Fe3_4 1_555 1_555
C161_3 O47_3 1_555 1_555
C162_3 C161_3 1_555 1_555
C163_3 C162_3 1_555 1_555
C164_3 C162_3 1_555 1_555
C165_3 C162_3 1_555 1_555
O53_3 Fe9_4 1_555 1_555
O54_3 Fe6_4 1_555 1_555
C176_3 O53_3 1_555 1_555
C177_3 C176_3 1_555 1_555
C178_3 C177_3 1_555 1_555
C179_3 C177_3 1_555 1_555
C180_3 C177_3 1_555 1_555
Fe15_2 N8_2 1_555 1_555
C2_3 O9_3 1_555 1_555
C47_3 O21_3 1_555 1_555
C57_3 C69_3 1_555 1_555
N7_4 Fe6_4 1_555 1_555
C84_3 C86_3 1_555 1_555
C85_3 C86_3 1_555 1_555
C92_3 O32_3 1_555 1_555
N11_4 Fe9_4 1_555 1_555
O42_3 C146_3 1_555 1_555
O48_3 C161_3 1_555 1_555
O54_3 C176_3 1_555 1_555
C18_3 H49_3 1_555 1_555
C18_3 H50_3 1_555 1_555
C18_3 H51_3 1_555 1_555
C17_3 H61_3 1_555 1_555
C17_3 H62_3 1_555 1_555
C17_3 H63_3 1_555 1_555
C19_3 H79_3 1_555 1_555
C19_3 H80_3 1_555 1_555
C19_3 H81_3 1_555 1_555
C66_3 H94_3 1_555 1_555
C66_3 H95_3 1_555 1_555
C66_3 H96_3 1_555 1_555
C59_3 H97_3 1_555 1_555
C59_3 H98_3 1_555 1_555
C59_3 H99_3 1_555 1_555
C61_3 H100_3 1_555 1_555
C61_3 H101_3 1_555 1_555
C61_3 H102_3 1_555 1_555
C67_4 H104_4 1_555 1_555
C67_4 H105_3 1_555 1_555
C65_4 H106_3 1_555 1_555
C65_4 H107_4 1_555 1_555
C64_3 H109_3 1_555 1_555
C64_3 H110_3 1_555 1_555
C64_3 H111_3 1_555 1_555
C60_3 H112_3 1_555 1_555
C60_3 H113_3 1_555 1_555
C60_3 H114_3 1_555 1_555
C62_3 H115_3 1_555 1_555
C62_3 H116_3 1_555 1_555
C62_3 H117_3 1_555 1_555
C63_3 H118_3 1_555 1_555
C63_3 H119_3 1_555 1_555
C63_3 H120_3 1_555 1_555
C68_3 H121_3 1_555 1_555
C68_3 H122_3 1_555 1_555
C68_3 H123_3 1_555 1_555
C108_3 H127_3 1_555 1_555
C108_3 H128_3 1_555 1_555
C108_3 H129_3 1_555 1_555
C107_3 H148_3 1_555 1_555
C107_3 H149_3 1_555 1_555
C107_3 H150_3 1_555 1_555
C109_3 H157_3 1_555 1_555
C109_3 H158_3 1_555 1_555
C109_3 H159_3 1_555 1_555
C148_3 H172_3 1_555 1_555
C148_3 H173_3 1_555 1_555
C148_3 H174_3 1_555 1_555
C149_3 H175_3 1_555 1_555
C149_3 H176_3 1_555 1_555
C149_3 H177_3 1_555 1_555
C150_3 H178_3 1_555 1_555
C150_3 H179_3 1_555 1_555
C150_3 H180_3 1_555 1_555
C179_3 H214_3 1_555 1_555
C179_3 H215_3 1_555 1_555
C179_3 H216_3 1_555 1_555
C180_3 H223_3 1_555 1_555
C180_3 H224_3 1_555 1_555
C180_3 H225_3 1_555 1_555
C178_3 H226_3 1_555 1_555
C178_3 H227_3 1_555 1_555
C178_3 H228_3 1_555 1_555
C164_3 H232_3 1_555 1_555
C164_3 H233_3 1_555 1_555
C164_3 H234_3 1_555 1_555
C165_3 H259_3 1_555 1_555
C165_3 H260_3 1_555 1_555
C165_3 H261_3 1_555 1_555
C163_3 H262_3 1_555 1_555
C163_3 H263_3 1_555 1_555
C163_3 H264_3 1_555 1_555
N2_5 Fe2_5 1_555 1_555
C27_5 C26_5 1_555 1_555
Fe3_5 N3_5 1_555 1_555
O10_5 Fe3_5 1_555 1_555
O11_3 Fe3_5 1_555 1_555
O12_3 C30_3 1_555 1_555
C30_3 O11_3 1_555 1_555
C31_3 C30_3 1_555 1_555
C32_3 C31_3 1_555 1_555
C33_3 C31_3 1_555 1_555
C34_3 C31_3 1_555 1_555
C42_3 N2_5 1_555 1_555
H13_3 C42_3 1_555 1_555
C43_3 C26_5 1_555 1_555
H14_3 C43_3 1_555 1_555
C44_3 C27_5 1_555 1_555
H15_3 C44_3 1_555 1_555
C45_3 N3_5 1_555 1_555
H16_3 C45_3 1_555 1_555
O15_5 Fe5_5 1_555 1_555
N6_5 Fe5_5 1_555 1_555
C54_5 C48_5 1_555 1_555
C55_5 C49_5 1_555 1_555
C65_5 C54_5 1_555 1_555
C67_5 C55_5 1_555 1_555
C72_5 C71_5 1_555 1_555
Fe6_5 O10_5 1_555 1_555
O22_3 Fe6_5 1_555 1_555
O23_3 Fe3_5 1_555 1_555
C75_3 O22_3 1_555 1_555
C76_3 C75_3 1_555 1_555
C77_3 C76_3 1_555 1_555
C78_3 C76_3 1_555 1_555
C79_3 C76_3 1_555 1_555
O24_3 C48_5 1_555 1_555
C80_3 C54_5 1_555 1_555
O25_3 C49_5 1_555 1_555
C81_3 C55_5 1_555 1_555
C87_3 N6_5 1_555 1_555
H29_3 C87_3 1_555 1_555
C88_3 C71_5 1_555 1_555
H30_3 C88_3 1_555 1_555
C89_3 C72_5 1_555 1_555
H31_3 C89_3 1_555 1_555
C90_3 N7_5 1_555 1_555
H32_3 C90_3 1_555 1_555
N10_5 Fe8_5 1_555 1_555
C117_5 C116_5 1_555 1_555
Fe9_5 O10_5 1_555 1_555
O33_3 Fe9_5 1_555 1_555
O34_3 Fe6_5 1_555 1_555
C120_3 O33_3 1_555 1_555
C121_3 C120_3 1_555 1_555
C122_3 C121_3 1_555 1_555
C123_3 C121_3 1_555 1_555
C124_3 C121_3 1_555 1_555
C132_3 N10_5 1_555 1_555
H45_3 C132_3 1_555 1_555
C133_3 C116_5 1_555 1_555
H46_3 C133_3 1_555 1_555
C134_3 C117_5 1_555 1_555
H47_3 C134_3 1_555 1_555
C135_3 N11_5 1_555 1_555
H48_3 C135_3 1_555 1_555
O40_3 Fe2_5 1_555 1_555
C139_3 C137_3 1_555 1_555
C143_3 C139_3 1_555 1_555
C144_3 C139_3 1_555 1_555
C145_3 C139_3 1_555 1_555
Fe11_3 O15_5 1_555 1_555
O43_3 Fe11_3 1_555 1_555
O44_3 Fe11_3 1_555 1_555
C151_3 O43_3 1_555 1_555
C152_3 O44_3 1_555 1_555
O45_3 Fe5_5 1_555 1_555
O46_3 Fe5_5 1_555 1_555
C153_3 C151_3 1_555 1_555
C154_3 C152_3 1_555 1_555
C155_3 C153_3 1_555 1_555
C156_3 C153_3 1_555 1_555
C157_3 C153_3 1_555 1_555
C158_3 C154_3 1_555 1_555
C159_3 C154_3 1_555 1_555
C160_3 C154_3 1_555 1_555
O52_3 Fe8_5 1_555 1_555
C169_3 C167_3 1_555 1_555
C173_3 C169_3 1_555 1_555
C174_3 C169_3 1_555 1_555
C175_3 C169_3 1_555 1_555
N14_3 Fe11_3 1_555 1_555
O12_3 Fe9_5 1_555 1_555
C42_3 C43_3 1_555 1_555
C44_3 C45_3 1_555 1_555
N7_5 Fe6_5 1_555 1_555
O23_3 C75_3 1_555 1_555
O24_3 Fe11_3 1_555 1_555
O25_3 Fe11_3 1_555 1_555
C87_3 C88_3 1_555 1_555
C89_3 C90_3 1_555 1_555
N11_5 Fe9_5 1_555 1_555
O34_3 C120_3 1_555 1_555
C132_3 C133_3 1_555 1_555
C134_3 C135_3 1_555 1_555
C137_3 O40_3 1_555 1_555
C151_3 O45_3 1_555 1_555
C152_3 O46_3 1_555 1_555
C167_3 O52_3 1_555 1_555
C33_3 H55_3 1_555 1_555
C33_3 H56_3 1_555 1_555
C33_3 H57_3 1_555 1_555
C34_3 H70_3 1_555 1_555
C34_3 H71_3 1_555 1_555
C34_3 H72_3 1_555 1_555
C32_3 H88_3 1_555 1_555
C32_3 H89_3 1_555 1_555
C32_3 H90_3 1_555 1_555
C67_5 H103_3 1_555 1_555
C67_5 H104_5 1_555 1_555
C65_5 H107_5 1_555 1_555
C65_5 H108_3 1_555 1_555
C80_3 H139_3 1_555 1_555
C80_3 H140_3 1_555 1_555
C80_3 H141_3 1_555 1_555
C78_3 H145_3 1_555 1_555
C78_3 H146_3 1_555 1_555
C78_3 H147_3 1_555 1_555
C81_3 H160_3 1_555 1_555
C81_3 H161_3 1_555 1_555
C81_3 H162_3 1_555 1_555
C77_3 H163_3 1_555 1_555
C77_3 H164_3 1_555 1_555
C77_3 H165_3 1_555 1_555
C79_3 H166_3 1_555 1_555
C79_3 H167_3 1_555 1_555
C79_3 H168_3 1_555 1_555
C122_3 H181_3 1_555 1_555
C122_3 H182_3 1_555 1_555
C122_3 H183_3 1_555 1_555
C124_3 H190_3 1_555 1_555
C124_3 H191_3 1_555 1_555
C124_3 H192_3 1_555 1_555
C123_3 H193_3 1_555 1_555
C123_3 H194_3 1_555 1_555
C123_3 H195_3 1_555 1_555
C143_3 H199_3 1_555 1_555
C143_3 H200_3 1_555 1_555
C143_3 H201_3 1_555 1_555
C144_3 H205_3 1_555 1_555
C144_3 H206_3 1_555 1_555
C144_3 H207_3 1_555 1_555
C145_3 H208_3 1_555 1_555
C145_3 H209_3 1_555 1_555
C145_3 H210_3 1_555 1_555
C173_3 H217_3 1_555 1_555
C173_3 H218_3 1_555 1_555
C173_3 H219_3 1_555 1_555
C157_3 H220_3 1_555 1_555
C157_3 H221_3 1_555 1_555
C157_3 H222_3 1_555 1_555
C156_3 H229_3 1_555 1_555
C156_3 H230_3 1_555 1_555
C156_3 H231_3 1_555 1_555
C174_3 H238_3 1_555 1_555
C174_3 H239_3 1_555 1_555
C174_3 H240_3 1_555 1_555
C160_3 H241_3 1_555 1_555
C160_3 H242_3 1_555 1_555
C160_3 H243_3 1_555 1_555
C155_3 H244_3 1_555 1_555
C155_3 H245_3 1_555 1_555
C155_3 H246_3 1_555 1_555
C158_3 H247_3 1_555 1_555
C158_3 H248_3 1_555 1_555
C158_3 H249_3 1_555 1_555
C159_3 H253_3 1_555 1_555
C159_3 H254_3 1_555 1_555
C159_3 H255_3 1_555 1_555
C175_3 H256_3 1_555 1_555
C175_3 H257_3 1_555 1_555
C175_3 H258_3 1_555 1_555
Fe15_2 O26_4 1_555 1_555
O27_3 Fe15_2 1_555 1_555
O28_3 Fe15_2 1_555 1_555
O29_3 Fe15_2 1_555 1_555
O30_3 Fe15_2 1_555 1_555
C91_3 O27_3 1_555 1_555
C93_4 O29_3 1_555 1_555
C94_4 O30_3 1_555 1_555
O31_3 C91_3 1_555 1_555
C97_3 C91_3 1_555 1_555
C99_4 C93_4 1_555 1_555
C100_4 C94_4 1_555 1_555
C104_3 C97_3 1_555 1_555
C105_3 C97_3 1_555 1_555
C106_3 C97_3 1_555 1_555
C110_4 C99_4 1_555 1_555
C111_3 C99_4 1_555 1_555
C112_4 C100_4 1_555 1_555
C113_3 C100_4 1_555 1_555
O35_3 C93_4 1_555 1_555
C125_3 C99_4 1_555 1_555
O36_3 C94_4 1_555 1_555
C126_3 C100_4 1_555 1_555
Fe12_3 O26_4 1_555 1_555
O49_3 Fe12_3 1_555 1_555
O50_3 Fe12_3 1_555 1_555
C166_3 O49_3 1_555 1_555
C168_3 C166_3 1_555 1_555
C170_3 C168_3 1_555 1_555
C171_3 C168_3 1_555 1_555
C172_3 C168_3 1_555 1_555
N15_3 Fe12_3 1_555 1_555
O35_3 Fe12_3 1_555 1_555
O36_3 Fe12_3 1_555 1_555
C166_3 O51_3 1_555 1_555
C106_3 H125_3 1_555 1_555
C106_3 H126_3 1_555 1_555
C111_3 H130_3 1_555 1_555
C111_3 H131_3 1_555 1_555
C111_3 H132_3 1_555 1_555
C112_4 H133_3 1_555 1_555
C112_4 H134_4 1_555 1_555
C112_4 H135_3 1_555 1_555
C104_3 H136_3 1_555 1_555
C104_3 H137_3 1_555 1_555
C104_3 H138_3 1_555 1_555
C105_3 H142_3 1_555 1_555
C105_3 H143_3 1_555 1_555
C110_4 H151_3 1_555 1_555
C110_4 H152_4 1_555 1_555
C110_4 H153_3 1_555 1_555
C113_3 H154_3 1_555 1_555
C113_3 H155_3 1_555 1_555
C113_3 H156_3 1_555 1_555
C125_3 H184_3 1_555 1_555
C125_3 H185_3 1_555 1_555
C125_3 H186_3 1_555 1_555
C126_3 H187_3 1_555 1_555
C126_3 H188_3 1_555 1_555
C126_3 H189_3 1_555 1_555
C170_3 H211_3 1_555 1_555
C170_3 H212_3 1_555 1_555
C170_3 H213_3 1_555 1_555
C172_3 H235_3 1_555 1_555
C172_3 H236_3 1_555 1_555
C171_3 H251_3 1_555 1_555
C171_3 H252_3 1_555 1_555
C50_4 N14_3 1_555 1_555
C51_4 N14_3 1_555 1_555
H17_4 C50_4 1_555 1_555
C56_4 C50_4 1_555 1_555
C57_4 C51_4 1_555 1_555
H18_4 C51_4 1_555 1_555
H19_4 C56_4 1_555 1_555
C69_4 C56_4 1_555 1_555
H20_4 C57_4 1_555 1_555
N15_3 C82_4 1_555 1_555
C82_4 H25_4 1_555 1_555
C83_4 N15_3 1_555 1_555
C84_4 C82_4 1_555 1_555
C85_4 C83_4 1_555 1_555
H26_4 C83_4 1_555 1_555
H27_4 C84_4 1_555 1_555
C86_4 C69_4 1_555 1_555
H28_4 C85_4 1_555 1_555
C57_4 C69_4 1_555 1_555
C84_4 C86_4 1_555 1_555
C85_4 C86_4 1_555 1_555
Fe7_2 O26_5 1_555 1_555
O27_4 Fe7_2 1_555 1_555
O28_4 Fe7_2 1_555 1_555
O29_4 Fe7_2 1_555 1_555
O30_4 Fe7_2 1_555 1_555
N9_2 Fe7_2 1_555 1_555
C91_4 O27_4 1_555 1_555
C93_5 O29_4 1_555 1_555
C94_5 O30_4 1_555 1_555
C95_3 N9_2 1_555 1_555
C96_3 N9_2 1_555 1_555
O31_4 C91_4 1_555 1_555
C97_4 C91_4 1_555 1_555
C99_5 C93_5 1_555 1_555
C100_5 C94_5 1_555 1_555
H33_3 C95_3 1_555 1_555
C101_3 C95_3 1_555 1_555
C102_3 C96_3 1_555 1_555
H34_3 C96_3 1_555 1_555
C104_4 C97_4 1_555 1_555
C105_4 C97_4 1_555 1_555
C106_4 C97_4 1_555 1_555
C110_5 C99_5 1_555 1_555
C111_4 C99_5 1_555 1_555
C112_5 C100_5 1_555 1_555
C113_4 C100_5 1_555 1_555
H35_3 C101_3 1_555 1_555
C114_3 C101_3 1_555 1_555
H36_3 C102_3 1_555 1_555
N12_2 C127_3 1_555 1_555
C127_3 H41_3 1_555 1_555
C128_3 N12_2 1_555 1_555
C129_3 C127_3 1_555 1_555
C130_3 C128_3 1_555 1_555
H42_3 C128_3 1_555 1_555
H43_3 C129_3 1_555 1_555
C131_3 C114_3 1_555 1_555
H44_3 C130_3 1_555 1_555
Fe14_2 N12_2 1_555 1_555
C102_3 C114_3 1_555 1_555
C129_3 C131_3 1_555 1_555
C130_3 C131_3 1_555 1_555
C106_4 H125_4 1_555 1_555
C106_4 H126_4 1_555 1_555
C111_4 H130_4 1_555 1_555
C111_4 H131_4 1_555 1_555
C111_4 H132_4 1_555 1_555
C112_5 H134_5 1_555 1_555
C112_5 H135_4 1_555 1_555
C104_4 H136_4 1_555 1_555
C104_4 H137_4 1_555 1_555
C104_4 H138_4 1_555 1_555
C105_4 H142_4 1_555 1_555
C105_4 H143_4 1_555 1_555
C110_5 H151_4 1_555 1_555
C110_5 H152_5 1_555 1_555
C113_4 H154_4 1_555 1_555
C113_4 H155_4 1_555 1_555
C113_4 H156_4 1_555 1_555
C99_6 C93_6 1_555 1_555
C100_6 C94_6 1_555 1_555
C110_6 C99_6 1_555 1_555
C112_6 C100_6 1_555 1_555
O35_4 C93_6 1_555 1_555
C125_4 C99_6 1_555 1_555
O36_4 C94_6 1_555 1_555
C126_4 C100_6 1_555 1_555
Fe12_4 O26_6 1_555 1_555
O49_4 Fe12_4 1_555 1_555
O50_4 Fe12_4 1_555 1_555
C166_4 O49_4 1_555 1_555
C168_4 C166_4 1_555 1_555
C170_4 C168_4 1_555 1_555
C171_4 C168_4 1_555 1_555
C172_4 C168_4 1_555 1_555
N15_4 Fe12_4 1_555 1_555
O35_4 Fe12_4 1_555 1_555
O36_4 Fe12_4 1_555 1_555
C166_4 O51_4 1_555 1_555
C112_6 H133_4 1_555 1_555
C112_6 H134_6 1_555 1_555
C110_6 H152_6 1_555 1_555
C110_6 H153_4 1_555 1_555
C125_4 H184_4 1_555 1_555
C125_4 H185_4 1_555 1_555
C125_4 H186_4 1_555 1_555
C126_4 H187_4 1_555 1_555
C126_4 H188_4 1_555 1_555
C126_4 H189_4 1_555 1_555
C170_4 H211_4 1_555 1_555
C170_4 H212_4 1_555 1_555
C170_4 H213_4 1_555 1_555
C172_4 H235_4 1_555 1_555
C172_4 H236_4 1_555 1_555
C171_4 H251_4 1_555 1_555
C171_4 H252_4 1_555 1_555
O9_4 Fe2_6 1_555 1_555
N2_6 Fe2_6 1_555 1_555
C8_4 C2_4 1_555 1_555
C13_4 N2_6 1_555 1_555
C17_4 C8_4 1_555 1_555
C18_4 C8_4 1_555 1_555
C19_4 C8_4 1_555 1_555
H5_4 C13_4 1_555 1_555
C25_4 C13_4 1_555 1_555
H6_4 C25_4 1_555 1_555
C26_6 C25_4 1_555 1_555
C27_6 C26_6 1_555 1_555
C28_4 C27_6 1_555 1_555
H7_4 C28_4 1_555 1_555
C29_4 C28_4 1_555 1_555
N3_6 C29_4 1_555 1_555
H8_4 C29_4 1_555 1_555
Fe3_6 N3_6 1_555 1_555
O10_6 Fe3_6 1_555 1_555
O11_4 Fe3_6 1_555 1_555
O12_4 C30_4 1_555 1_555
C30_4 O11_4 1_555 1_555
C31_4 C30_4 1_555 1_555
C32_4 C31_4 1_555 1_555
C33_4 C31_4 1_555 1_555
C34_4 C31_4 1_555 1_555
C42_4 N2_6 1_555 1_555
H13_4 C42_4 1_555 1_555
C43_4 C26_6 1_555 1_555
H14_4 C43_4 1_555 1_555
C44_4 C27_6 1_555 1_555
H15_4 C44_4 1_555 1_555
C45_4 N3_6 1_555 1_555
H16_4 C45_4 1_555 1_555
Fe14_2 O15_6 1_555 1_555
O15_6 Fe5_6 1_555 1_555
O16_4 Fe14_2 1_555 1_555
O17_4 Fe14_2 1_555 1_555
O18_4 Fe14_2 1_555 1_555
O19_4 Fe14_2 1_555 1_555
Fe5_6 O20_4 1_555 1_555
C46_4 O16_4 1_555 1_555
C47_4 O17_4 1_555 1_555
C48_6 O18_4 1_555 1_555
C49_6 O19_4 1_555 1_555
O20_4 C46_4 1_555 1_555
O21_4 Fe5_6 1_555 1_555
N6_6 Fe5_6 1_555 1_555
C52_4 C46_4 1_555 1_555
C53_4 C47_4 1_555 1_555
C54_6 C48_6 1_555 1_555
C55_6 C49_6 1_555 1_555
C58_4 N6_6 1_555 1_555
C59_4 C52_4 1_555 1_555
C60_4 C52_4 1_555 1_555
C61_4 C52_4 1_555 1_555
C62_4 C53_4 1_555 1_555
C63_4 C53_4 1_555 1_555
C64_4 C53_4 1_555 1_555
C65_6 C54_6 1_555 1_555
C66_4 C54_6 1_555 1_555
C67_6 C55_6 1_555 1_555
C68_4 C55_6 1_555 1_555
H21_4 C58_4 1_555 1_555
C70_4 C58_4 1_555 1_555
H22_4 C70_4 1_555 1_555
C71_6 C70_4 1_555 1_555
C72_6 C71_6 1_555 1_555
C73_4 C72_6 1_555 1_555
H23_4 C73_4 1_555 1_555
C74_4 C73_4 1_555 1_555
N7_6 C74_4 1_555 1_555
H24_4 C74_4 1_555 1_555
Fe6_6 O10_6 1_555 1_555
O22_4 Fe6_6 1_555 1_555
O23_4 Fe3_6 1_555 1_555
C75_4 O22_4 1_555 1_555
C76_4 C75_4 1_555 1_555
C77_4 C76_4 1_555 1_555
C78_4 C76_4 1_555 1_555
C79_4 C76_4 1_555 1_555
O24_4 C48_6 1_555 1_555
C80_4 C54_6 1_555 1_555
O25_4 C49_6 1_555 1_555
C81_4 C55_6 1_555 1_555
C87_4 N6_6 1_555 1_555
H29_4 C87_4 1_555 1_555
C88_4 C71_6 1_555 1_555
H30_4 C88_4 1_555 1_555
C89_4 C72_6 1_555 1_555
H31_4 C89_4 1_555 1_555
C90_4 N7_6 1_555 1_555
H32_4 C90_4 1_555 1_555
O32_4 Fe8_6 1_555 1_555
N10_6 Fe8_6 1_555 1_555
C98_4 C92_4 1_555 1_555
C103_4 N10_6 1_555 1_555
C107_4 C98_4 1_555 1_555
C108_4 C98_4 1_555 1_555
C109_4 C98_4 1_555 1_555
H37_4 C103_4 1_555 1_555
C115_4 C103_4 1_555 1_555
H38_4 C115_4 1_555 1_555
C116_6 C115_4 1_555 1_555
C117_6 C116_6 1_555 1_555
C118_4 C117_6 1_555 1_555
H39_4 C118_4 1_555 1_555
C119_4 C118_4 1_555 1_555
N11_6 C119_4 1_555 1_555
H40_4 C119_4 1_555 1_555
Fe9_6 O10_6 1_555 1_555
O33_4 Fe9_6 1_555 1_555
O34_4 Fe6_6 1_555 1_555
C120_4 O33_4 1_555 1_555
C121_4 C120_4 1_555 1_555
C122_4 C121_4 1_555 1_555
C123_4 C121_4 1_555 1_555
C124_4 C121_4 1_555 1_555
C132_4 N10_6 1_555 1_555
H45_4 C132_4 1_555 1_555
C133_4 C116_6 1_555 1_555
H46_4 C133_4 1_555 1_555
C134_4 C117_6 1_555 1_555
H47_4 C134_4 1_555 1_555
C135_4 N11_6 1_555 1_555
H48_4 C135_4 1_555 1_555
O40_4 Fe2_6 1_555 1_555
C139_4 C137_4 1_555 1_555
C143_4 C139_4 1_555 1_555
C144_4 C139_4 1_555 1_555
C145_4 C139_4 1_555 1_555
O41_4 Fe3_6 1_555 1_555
O42_4 Fe9_6 1_555 1_555
C146_4 O41_4 1_555 1_555
C147_4 C146_4 1_555 1_555
C148_4 C147_4 1_555 1_555
C149_4 C147_4 1_555 1_555
C150_4 C147_4 1_555 1_555
Fe11_4 O15_6 1_555 1_555
O43_4 Fe11_4 1_555 1_555
O44_4 Fe11_4 1_555 1_555
C151_4 O43_4 1_555 1_555
C152_4 O44_4 1_555 1_555
O45_4 Fe5_6 1_555 1_555
O46_4 Fe5_6 1_555 1_555
C153_4 C151_4 1_555 1_555
C154_4 C152_4 1_555 1_555
C155_4 C153_4 1_555 1_555
C156_4 C153_4 1_555 1_555
C157_4 C153_4 1_555 1_555
C158_4 C154_4 1_555 1_555
C159_4 C154_4 1_555 1_555
C160_4 C154_4 1_555 1_555
O47_4 Fe6_6 1_555 1_555
O48_4 Fe3_6 1_555 1_555
C161_4 O47_4 1_555 1_555
C162_4 C161_4 1_555 1_555
C163_4 C162_4 1_555 1_555
C164_4 C162_4 1_555 1_555
C165_4 C162_4 1_555 1_555
O52_4 Fe8_6 1_555 1_555
C169_4 C167_4 1_555 1_555
C173_4 C169_4 1_555 1_555
C174_4 C169_4 1_555 1_555
C175_4 C169_4 1_555 1_555
O53_4 Fe9_6 1_555 1_555
O54_4 Fe6_6 1_555 1_555
C176_4 O53_4 1_555 1_555
C177_4 C176_4 1_555 1_555
C178_4 C177_4 1_555 1_555
C179_4 C177_4 1_555 1_555
C180_4 C177_4 1_555 1_555
N14_4 Fe11_4 1_555 1_555
C2_4 O9_4 1_555 1_555
O12_4 Fe9_6 1_555 1_555
C42_4 C43_4 1_555 1_555
C44_4 C45_4 1_555 1_555
C47_4 O21_4 1_555 1_555
N7_6 Fe6_6 1_555 1_555
O23_4 C75_4 1_555 1_555
O24_4 Fe11_4 1_555 1_555
O25_4 Fe11_4 1_555 1_555
C87_4 C88_4 1_555 1_555
C89_4 C90_4 1_555 1_555
C92_4 O32_4 1_555 1_555
N11_6 Fe9_6 1_555 1_555
O34_4 C120_4 1_555 1_555
C132_4 C133_4 1_555 1_555
C134_4 C135_4 1_555 1_555
C137_4 O40_4 1_555 1_555
O42_4 C146_4 1_555 1_555
C151_4 O45_4 1_555 1_555
C152_4 O46_4 1_555 1_555
O48_4 C161_4 1_555 1_555
C167_4 O52_4 1_555 1_555
O54_4 C176_4 1_555 1_555
C18_4 H49_4 1_555 1_555
C18_4 H50_4 1_555 1_555
C18_4 H51_4 1_555 1_555
C33_4 H55_4 1_555 1_555
C33_4 H56_4 1_555 1_555
C33_4 H57_4 1_555 1_555
C17_4 H61_4 1_555 1_555
C17_4 H62_4 1_555 1_555
C17_4 H63_4 1_555 1_555
C34_4 H70_4 1_555 1_555
C34_4 H71_4 1_555 1_555
C34_4 H72_4 1_555 1_555
C19_4 H79_4 1_555 1_555
C19_4 H80_4 1_555 1_555
C19_4 H81_4 1_555 1_555
C32_4 H88_4 1_555 1_555
C32_4 H89_4 1_555 1_555
C32_4 H90_4 1_555 1_555
C66_4 H94_4 1_555 1_555
C66_4 H95_4 1_555 1_555
C66_4 H96_4 1_555 1_555
C59_4 H97_4 1_555 1_555
C59_4 H98_4 1_555 1_555
C59_4 H99_4 1_555 1_555
C61_4 H100_4 1_555 1_555
C61_4 H101_4 1_555 1_555
C61_4 H102_4 1_555 1_555
C67_6 H103_4 1_555 1_555
C67_6 H104_6 1_555 1_555
C67_6 H105_4 1_555 1_555
C65_6 H106_4 1_555 1_555
C65_6 H107_6 1_555 1_555
C65_6 H108_4 1_555 1_555
C64_4 H109_4 1_555 1_555
C64_4 H110_4 1_555 1_555
C64_4 H111_4 1_555 1_555
C60_4 H112_4 1_555 1_555
C60_4 H113_4 1_555 1_555
C60_4 H114_4 1_555 1_555
C62_4 H115_4 1_555 1_555
C62_4 H116_4 1_555 1_555
C62_4 H117_4 1_555 1_555
C63_4 H118_4 1_555 1_555
C63_4 H119_4 1_555 1_555
C63_4 H120_4 1_555 1_555
C68_4 H121_4 1_555 1_555
C68_4 H122_4 1_555 1_555
C68_4 H123_4 1_555 1_555
C108_4 H127_4 1_555 1_555
C108_4 H128_4 1_555 1_555
C108_4 H129_4 1_555 1_555
C80_4 H139_4 1_555 1_555
C80_4 H140_4 1_555 1_555
C80_4 H141_4 1_555 1_555
C78_4 H145_4 1_555 1_555
C78_4 H146_4 1_555 1_555
C78_4 H147_4 1_555 1_555
C107_4 H148_4 1_555 1_555
C107_4 H149_4 1_555 1_555
C107_4 H150_4 1_555 1_555
C109_4 H157_4 1_555 1_555
C109_4 H158_4 1_555 1_555
C109_4 H159_4 1_555 1_555
C81_4 H160_4 1_555 1_555
C81_4 H161_4 1_555 1_555
C81_4 H162_4 1_555 1_555
C77_4 H163_4 1_555 1_555
C77_4 H164_4 1_555 1_555
C77_4 H165_4 1_555 1_555
C79_4 H166_4 1_555 1_555
C79_4 H167_4 1_555 1_555
C79_4 H168_4 1_555 1_555
C148_4 H172_4 1_555 1_555
C148_4 H173_4 1_555 1_555
C148_4 H174_4 1_555 1_555
C149_4 H175_4 1_555 1_555
C149_4 H176_4 1_555 1_555
C149_4 H177_4 1_555 1_555
C150_4 H178_4 1_555 1_555
C150_4 H179_4 1_555 1_555
C150_4 H180_4 1_555 1_555
C122_4 H181_4 1_555 1_555
C122_4 H182_4 1_555 1_555
C122_4 H183_4 1_555 1_555
C124_4 H190_4 1_555 1_555
C124_4 H191_4 1_555 1_555
C124_4 H192_4 1_555 1_555
C123_4 H193_4 1_555 1_555
C123_4 H194_4 1_555 1_555
C123_4 H195_4 1_555 1_555
C143_4 H199_4 1_555 1_555
C143_4 H200_4 1_555 1_555
C143_4 H201_4 1_555 1_555
C144_4 H205_4 1_555 1_555
C144_4 H206_4 1_555 1_555
C144_4 H207_4 1_555 1_555
C145_4 H208_4 1_555 1_555
C145_4 H209_4 1_555 1_555
C145_4 H210_4 1_555 1_555
C179_4 H214_4 1_555 1_555
C179_4 H215_4 1_555 1_555
C179_4 H216_4 1_555 1_555
C173_4 H217_4 1_555 1_555
C173_4 H218_4 1_555 1_555
C173_4 H219_4 1_555 1_555
C157_4 H220_4 1_555 1_555
C157_4 H221_4 1_555 1_555
C157_4 H222_4 1_555 1_555
C180_4 H223_4 1_555 1_555
C180_4 H224_4 1_555 1_555
C180_4 H225_4 1_555 1_555
C178_4 H226_4 1_555 1_555
C178_4 H227_4 1_555 1_555
C178_4 H228_4 1_555 1_555
C156_4 H229_4 1_555 1_555
C156_4 H230_4 1_555 1_555
C156_4 H231_4 1_555 1_555
C164_4 H232_4 1_555 1_555
C164_4 H233_4 1_555 1_555
C164_4 H234_4 1_555 1_555
C174_4 H238_4 1_555 1_555
C174_4 H239_4 1_555 1_555
C174_4 H240_4 1_555 1_555
C160_4 H241_4 1_555 1_555
C160_4 H242_4 1_555 1_555
C160_4 H243_4 1_555 1_555
C155_4 H244_4 1_555 1_555
C155_4 H245_4 1_555 1_555
C155_4 H246_4 1_555 1_555
C158_4 H247_4 1_555 1_555
C158_4 H248_4 1_555 1_555
C158_4 H249_4 1_555 1_555
C159_4 H253_4 1_555 1_555
C159_4 H254_4 1_555 1_555
C159_4 H255_4 1_555 1_555
C175_4 H256_4 1_555 1_555
C175_4 H257_4 1_555 1_555
C175_4 H258_4 1_555 1_555
C165_4 H259_4 1_555 1_555
C165_4 H260_4 1_555 1_555
C165_4 H261_4 1_555 1_555
C163_4 H262_4 1_555 1_555
C163_4 H263_4 1_555 1_555
C163_4 H264_4 1_555 1_555
C95_4 N15_4 1_555 1_555
C96_4 N15_4 1_555 1_555
H33_4 C95_4 1_555 1_555
C101_4 C95_4 1_555 1_555
C102_4 C96_4 1_555 1_555
H34_4 C96_4 1_555 1_555
H35_4 C101_4 1_555 1_555
C114_4 C101_4 1_555 1_555
H36_4 C102_4 1_555 1_555
N14_4 C127_4 1_555 1_555
C127_4 H41_4 1_555 1_555
C128_4 N14_4 1_555 1_555
C129_4 C127_4 1_555 1_555
C130_4 C128_4 1_555 1_555
H42_4 C128_4 1_555 1_555
H43_4 C129_4 1_555 1_555
C131_4 C114_4 1_555 1_555
H44_4 C130_4 1_555 1_555
C102_4 C114_4 1_555 1_555
C129_4 C131_4 1_555 1_555
C130_4 C131_4 1_555 1_555

#END
