
###############################################################################
#
# This file contains modified crystal structure data generated from the
# MOF subset of the Cambridge Structural Database (CSD) v543 
# hosted by the Cambridge Crystallographic Data Centre (CCDC).
#
# This work is licensed under the Creative Commons
# Attribution-NonCommercial-ShareAlike 4.0 International License.
# To view a copy of this license, visit
# http://creativecommons.org/licenses/by-nc-sa/4.0/
# or send a letter to
# Creative Commons, PO Box 1866, Mountain View, CA 94042, USA.
#
# CIF created using the CSD Python API on 29 September 2022
# The structure has been converted into the P1 space group
# The structure has a 3D framework
# The original CSD entry YOTXOW is in the monoclinic crystal system
# The framework has been calculated to contain at least 10.0% void space
# The void calculation uses a probe of radius 1.32A, grid spacing 0.4
# H atom positions have been added when not included in the experimental data
#
###############################################################################

data_YOTXOW
_chemical_formula_moiety         '(C64 H32 Al13 N8 O61)n'
_symmetry_cell_setting           triclinic
_symmetry_space_group_name_H-M   'P 1'
_symmetry_Int_Tables_number      1
_space_group_name_Hall           'P 1'
loop_
_symmetry_equiv_pos_site_id
_symmetry_equiv_pos_as_xyz
1 x,y,z
_cell_length_a                   37.1330(13)
_cell_length_b                   11.5278(4)
_cell_length_c                   6.51553(18)
_cell_angle_alpha                90
_cell_angle_beta                 109.266(3)
_cell_angle_gamma                90
_cell_volume                     2632.85
loop_
_atom_site_label
_atom_site_type_symbol
_atom_site_fract_x
_atom_site_fract_y
_atom_site_fract_z
_atom_site_U_iso_or_equiv
_atom_site_thermal_displace_type
Al1 Al 0.2209(4) 0.2837(10) 0.571(2) 0.0082 Uiso
Al2 Al 0.0000 0.0000 0.000 0.0082 Uiso
O1 O 0.1941(6) 0.3948(18) 0.354(4) 0.0082 Uiso
O2 O 0.1359(6) 0.4508(17) 0.091(4) 0.0082 Uiso
O3 O 0.2268(6) 0.1698(17) 0.810(4) 0.0082 Uiso
O4 O 0.1959(6) 0.027(2) 0.919(4) 0.0082 Uiso
O5 O 0.0348(6) 0.1247(18) 0.128(3) 0.0082 Uiso
O6 O 0.0423(6) 0.0939(19) 0.495(3) 0.0082 Uiso
O7 O 0.2295(6) 0.1784(17) 0.382(3) 0.0082 Uiso
O8 O 0.2257(6) 0.3955(16) 0.799(4) 0.0082 Uiso
N1 N 0.1666(8) 0.248(2) 0.502(5) 0.0082 Uiso
C1 C 0.1585(10) 0.401(3) 0.252(5) 0.0082 Uiso
C2 C 0.1417(10) 0.296(3) 0.326(6) 0.0082 Uiso
C3 C 0.1028(10) 0.256(3) 0.265(6) 0.0082 Uiso
C4 C 0.0928(10) 0.185(3) 0.410(6) 0.0082 Uiso
C5 C 0.1210(10) 0.128(3) 0.581(6) 0.0082 Uiso
C6 C 0.1594(10) 0.158(3) 0.621(6) 0.0082 Uiso
C7 C 0.1950(10) 0.113(3) 0.798(6) 0.0082 Uiso
C8 C 0.0527(9) 0.131(3) 0.336(6) 0.0082 Uiso
Al5 Al 0.2791(4) 0.2163(10) 0.429(2) 0.0082 Uiso
Al6 Al 0.0000 0.0000 0.500 0.0082 Uiso
O21 O 0.2705(6) 0.3216(17) 0.618(3) 0.0082 Uiso
H1 H 0.199919 0.420189 0.79614 . .
H2 H 0.239531 0.359782 0.942041 . .
H3 H 0.113166 0.0625436 0.67917 . .
H4 H 0.0818869 0.280661 0.110033 . .
Al2_2 Al 0.0000 0.0000 1.000 0.0082 Uiso
O22 O 0.0000 0.076(2) 0.750 0.0082 Uiso
Al2_3 Al -0.0000 1.0000 0.000 0.0082 Uiso
O9 O 0.0000 0.924(2) 0.250 0.0082 Uiso
Al6_2 Al 0.0000 1.0000 0.500 0.0082 Uiso
Al2_4 Al 0.0000 1.0000 1.000 0.0082 Uiso
O19 O 0.0423(6) 0.9061(19) 0.995(3) 0.0082 Uiso
Al2_5 Al 1.0000 0.0000 0.000 0.0082 Uiso
O10 O 0.8059(6) 0.3948(18) 0.146(4) 0.0082 Uiso
O11 O 0.8641(6) 0.4508(17) 0.409(4) 0.0082 Uiso
O14 O 0.9652(6) 0.1247(18) 0.372(3) 0.0082 Uiso
O15 O 0.9577(6) 0.0939(19) 0.005(3) 0.0082 Uiso
O16 O 0.7705(6) 0.1784(17) 0.118(3) 0.0082 Uiso
C9 C 0.8415(10) 0.401(3) 0.248(5) 0.0082 Uiso
C10 C 0.8583(10) 0.296(3) 0.174(6) 0.0082 Uiso
C11 C 0.8972(10) 0.256(3) 0.235(6) 0.0082 Uiso
C12 C 0.9072(10) 0.185(3) 0.090(6) 0.0082 Uiso
C16 C 0.9473(9) 0.131(3) 0.164(6) 0.0082 Uiso
Al4 Al 0.7209(4) 0.2163(10) 0.071(2) 0.0082 Uiso
Al6_3 Al 1.0000 0.0000 0.500 0.0082 Uiso
H6 H 0.918113 0.280661 0.389967 . .
Al2_6 Al 1.0000 0.0000 1.000 0.0082 Uiso
Al3 Al 0.7791(4) 0.2837(10) 0.929(2) 0.0082 Uiso
O12 O 0.7732(6) 0.1698(17) 0.690(4) 0.0082 Uiso
O13 O 0.8041(6) 0.027(2) 0.581(4) 0.0082 Uiso
O17 O 0.7743(6) 0.3955(16) 0.701(4) 0.0082 Uiso
N2 N 0.8334(8) 0.248(2) 0.998(5) 0.0082 Uiso
C13 C 0.8790(10) 0.128(3) 0.919(6) 0.0082 Uiso
C14 C 0.8406(10) 0.158(3) 0.879(6) 0.0082 Uiso
C15 C 0.8050(10) 0.113(3) 0.702(6) 0.0082 Uiso
O20 O 0.7295(6) 0.3216(17) 0.882(3) 0.0082 Uiso
O22_2 O 1.0000 0.076(2) 0.750 0.0082 Uiso
H5 H 0.886834 0.0625436 0.82083 . .
H7 H 0.800081 0.420189 0.70386 . .
H8 H 0.760469 0.359782 0.557959 . .
Al2_7 Al 1.0000 1.0000 0.000 0.0082 Uiso
O9_2 O 1.0000 0.924(2) 0.250 0.0082 Uiso
Al6_4 Al 1.0000 1.0000 0.500 0.0082 Uiso
Al2_8 Al 1.0000 1.0000 1.000 0.0082 Uiso
O18 O 0.9652(6) 0.8753(18) 0.872(3) 0.0082 Uiso
O18_2 O 0.0348(6) 0.8753(18) 0.628(3) 0.0082 Uiso
O19_2 O 0.9577(6) 0.9061(19) 0.505(3) 0.0082 Uiso
Al1_2 Al 0.7209(4) 0.7837(10) 0.571(2) 0.0082 Uiso
Al2_9 Al 0.5000 0.5000 0.000 0.0082 Uiso
O1_2 O 0.6941(6) 0.8948(18) 0.354(4) 0.0082 Uiso
O2_2 O 0.6359(6) 0.9508(17) 0.091(4) 0.0082 Uiso
O3_2 O 0.7268(6) 0.6698(17) 0.810(4) 0.0082 Uiso
O4_2 O 0.6959(6) 0.527(2) 0.919(4) 0.0082 Uiso
O5_2 O 0.5348(6) 0.6247(18) 0.128(3) 0.0082 Uiso
O6_2 O 0.5423(6) 0.5939(19) 0.495(3) 0.0082 Uiso
O7_2 O 0.7295(6) 0.6784(17) 0.382(3) 0.0082 Uiso
O8_2 O 0.7257(6) 0.8955(16) 0.799(4) 0.0082 Uiso
O9_3 O 0.5000 0.424(2) 0.250 0.0082 Uiso
N1_2 N 0.6666(8) 0.748(2) 0.502(5) 0.0082 Uiso
C1_2 C 0.6585(10) 0.901(3) 0.252(5) 0.0082 Uiso
C2_2 C 0.6417(10) 0.796(3) 0.326(6) 0.0082 Uiso
C3_2 C 0.6028(10) 0.756(3) 0.265(6) 0.0082 Uiso
C4_2 C 0.5928(10) 0.685(3) 0.410(6) 0.0082 Uiso
C5_2 C 0.6210(10) 0.628(3) 0.581(6) 0.0082 Uiso
C6_2 C 0.6594(10) 0.658(3) 0.621(6) 0.0082 Uiso
C7_2 C 0.6950(10) 0.613(3) 0.798(6) 0.0082 Uiso
C8_2 C 0.5527(9) 0.631(3) 0.336(6) 0.0082 Uiso
O10_2 O 0.3059(6) 0.8948(18) 0.146(4) 0.0082 Uiso
O11_2 O 0.3641(6) 0.9508(17) 0.409(4) 0.0082 Uiso
O14_2 O 0.4652(6) 0.6247(18) 0.372(3) 0.0082 Uiso
O15_2 O 0.4577(6) 0.5939(19) 0.005(3) 0.0082 Uiso
O16_2 O 0.2705(6) 0.6784(17) 0.118(3) 0.0082 Uiso
C9_2 C 0.3415(10) 0.901(3) 0.248(5) 0.0082 Uiso
C10_2 C 0.3583(10) 0.796(3) 0.174(6) 0.0082 Uiso
C11_2 C 0.3972(10) 0.756(3) 0.235(6) 0.0082 Uiso
C12_2 C 0.4072(10) 0.685(3) 0.090(6) 0.0082 Uiso
C16_2 C 0.4473(9) 0.631(3) 0.164(6) 0.0082 Uiso
Al4_2 Al 0.2209(4) 0.7163(10) 0.071(2) 0.0082 Uiso
Al5_2 Al 0.7791(4) 0.7163(10) 0.429(2) 0.0082 Uiso
Al6_5 Al 0.5000 0.5000 0.500 0.0082 Uiso
O21_2 O 0.7705(6) 0.8216(17) 0.618(3) 0.0082 Uiso
H1_2 H 0.699919 0.920189 0.79614 . .
H2_2 H 0.739531 0.859782 0.942041 . .
H3_2 H 0.613166 0.562544 0.67917 . .
H4_2 H 0.581887 0.780661 0.110033 . .
H6_2 H 0.418113 0.780661 0.389967 . .
Al2_10 Al 0.5000 0.5000 1.000 0.0082 Uiso
Al3_2 Al 0.2791(4) 0.7837(10) 0.929(2) 0.0082 Uiso
O12_2 O 0.2732(6) 0.6698(17) 0.690(4) 0.0082 Uiso
O13_2 O 0.3041(6) 0.527(2) 0.581(4) 0.0082 Uiso
O17_2 O 0.2743(6) 0.8955(16) 0.701(4) 0.0082 Uiso
N2_2 N 0.3334(8) 0.748(2) 0.998(5) 0.0082 Uiso
C13_2 C 0.3790(10) 0.628(3) 0.919(6) 0.0082 Uiso
C14_2 C 0.3406(10) 0.658(3) 0.879(6) 0.0082 Uiso
C15_2 C 0.3050(10) 0.613(3) 0.702(6) 0.0082 Uiso
O18_3 O 0.4652(6) 0.3753(18) 0.872(3) 0.0082 Uiso
O19_3 O 0.5423(6) 0.4061(19) 0.995(3) 0.0082 Uiso
O20_2 O 0.2295(6) 0.8216(17) 0.882(3) 0.0082 Uiso
O22_3 O 0.5000 0.576(2) 0.750 0.0082 Uiso
H5_2 H 0.386834 0.562544 0.82083 . .
H7_2 H 0.300081 0.920189 0.70386 . .
H8_2 H 0.260469 0.859782 0.557959 . .
O18_4 O 0.5348(6) 0.3753(18) 0.628(3) 0.0082 Uiso
O19_4 O 0.4577(6) 0.4061(19) 0.505(3) 0.0082 Uiso
O12_3 O 0.2268(6) 0.8302(17) 0.310(4) 0.0082 Uiso
O13_3 O 0.1959(6) 0.973(2) 0.419(4) 0.0082 Uiso
O17_3 O 0.2257(6) 0.6045(16) 0.299(4) 0.0082 Uiso
N2_3 N 0.1666(8) 0.752(2) 0.002(5) 0.0082 Uiso
C13_3 C 0.1210(10) 0.872(3) 0.081(6) 0.0082 Uiso
C14_3 C 0.1594(10) 0.842(3) 0.121(6) 0.0082 Uiso
C15_3 C 0.1950(10) 0.887(3) 0.298(6) 0.0082 Uiso
H5_3 H 0.113166 0.937456 0.17917 . .
H7_3 H 0.199919 0.579811 0.29614 . .
H8_3 H 0.239531 0.640218 0.442041 . .
O10_3 O 0.1941(6) 0.6052(18) 0.854(4) 0.0082 Uiso
O11_3 O 0.1359(6) 0.5492(17) 0.591(4) 0.0082 Uiso
C9_3 C 0.1585(10) 0.599(3) 0.752(5) 0.0082 Uiso
C10_3 C 0.1417(10) 0.704(3) 0.826(6) 0.0082 Uiso
C11_3 C 0.1028(10) 0.744(3) 0.765(6) 0.0082 Uiso
C12_3 C 0.0928(10) 0.815(3) 0.910(6) 0.0082 Uiso
C16_3 C 0.0527(9) 0.869(3) 0.836(6) 0.0082 Uiso
H6_3 H 0.0818869 0.719339 0.610033 . .
O1_3 O 0.8059(6) 0.6052(18) 0.646(4) 0.0082 Uiso
O2_3 O 0.8641(6) 0.5492(17) 0.909(4) 0.0082 Uiso
O3_3 O 0.7732(6) 0.8302(17) 0.190(4) 0.0082 Uiso
O4_3 O 0.8041(6) 0.973(2) 0.081(4) 0.0082 Uiso
O8_3 O 0.7743(6) 0.6045(16) 0.201(4) 0.0082 Uiso
N1_3 N 0.8334(8) 0.752(2) 0.498(5) 0.0082 Uiso
C1_3 C 0.8415(10) 0.599(3) 0.748(5) 0.0082 Uiso
C2_3 C 0.8583(10) 0.704(3) 0.674(6) 0.0082 Uiso
C3_3 C 0.8972(10) 0.744(3) 0.735(6) 0.0082 Uiso
C4_3 C 0.9072(10) 0.815(3) 0.590(6) 0.0082 Uiso
C5_3 C 0.8790(10) 0.872(3) 0.419(6) 0.0082 Uiso
C6_3 C 0.8406(10) 0.842(3) 0.379(6) 0.0082 Uiso
C7_3 C 0.8050(10) 0.887(3) 0.202(6) 0.0082 Uiso
C8_3 C 0.9473(9) 0.869(3) 0.664(6) 0.0082 Uiso
H1_3 H 0.800081 0.579811 0.20386 . .
H2_3 H 0.760469 0.640218 0.0579587 . .
H3_3 H 0.886834 0.937456 0.32083 . .
H4_3 H 0.918113 0.719339 0.889967 . .
O12_4 O 0.7268(6) 0.3302(17) 0.310(4) 0.0082 Uiso
O13_4 O 0.6959(6) 0.473(2) 0.419(4) 0.0082 Uiso
O17_4 O 0.7257(6) 0.1045(16) 0.299(4) 0.0082 Uiso
N2_4 N 0.6666(8) 0.252(2) 0.002(5) 0.0082 Uiso
C13_4 C 0.6210(10) 0.372(3) 0.081(6) 0.0082 Uiso
C14_4 C 0.6594(10) 0.342(3) 0.121(6) 0.0082 Uiso
C15_4 C 0.6950(10) 0.387(3) 0.298(6) 0.0082 Uiso
H5_4 H 0.613166 0.437456 0.17917 . .
H7_4 H 0.699919 0.0798114 0.29614 . .
H8_4 H 0.739531 0.140218 0.442041 . .
O1_4 O 0.3059(6) 0.1052(18) 0.646(4) 0.0082 Uiso
O2_4 O 0.3641(6) 0.0492(17) 0.909(4) 0.0082 Uiso
O3_4 O 0.2732(6) 0.3302(17) 0.190(4) 0.0082 Uiso
O4_4 O 0.3041(6) 0.473(2) 0.081(4) 0.0082 Uiso
O8_4 O 0.2743(6) 0.1045(16) 0.201(4) 0.0082 Uiso
N1_4 N 0.3334(8) 0.252(2) 0.498(5) 0.0082 Uiso
C1_4 C 0.3415(10) 0.099(3) 0.748(5) 0.0082 Uiso
C2_4 C 0.3583(10) 0.204(3) 0.674(6) 0.0082 Uiso
C3_4 C 0.3972(10) 0.244(3) 0.735(6) 0.0082 Uiso
C4_4 C 0.4072(10) 0.315(3) 0.590(6) 0.0082 Uiso
C5_4 C 0.3790(10) 0.372(3) 0.419(6) 0.0082 Uiso
C6_4 C 0.3406(10) 0.342(3) 0.379(6) 0.0082 Uiso
C7_4 C 0.3050(10) 0.387(3) 0.202(6) 0.0082 Uiso
C8_4 C 0.4473(9) 0.369(3) 0.664(6) 0.0082 Uiso
O10_4 O 0.6941(6) 0.1052(18) 0.854(4) 0.0082 Uiso
O11_4 O 0.6359(6) 0.0492(17) 0.591(4) 0.0082 Uiso
C9_4 C 0.6585(10) 0.099(3) 0.752(5) 0.0082 Uiso
C10_4 C 0.6417(10) 0.204(3) 0.826(6) 0.0082 Uiso
C11_4 C 0.6028(10) 0.244(3) 0.765(6) 0.0082 Uiso
C12_4 C 0.5928(10) 0.315(3) 0.910(6) 0.0082 Uiso
C16_4 C 0.5527(9) 0.369(3) 0.836(6) 0.0082 Uiso
H1_4 H 0.300081 0.0798114 0.20386 . .
H2_4 H 0.260469 0.140218 0.0579587 . .
H3_4 H 0.386834 0.437456 0.32083 . .
H4_4 H 0.418113 0.219339 0.889967 . .
H6_4 H 0.581887 0.219339 0.610033 . .
loop_
_geom_bond_atom_site_label_1
_geom_bond_atom_site_label_2
_geom_bond_site_symmetry_1
_geom_bond_site_symmetry_2
Al1 O1 1_555 1_555
Al2 O5 1_555 1_555
O1 C1 1_555 1_555
O2 C1 1_555 1_555
O3 Al1 1_555 1_555
O4 C7 1_555 1_555
O5 C8 1_555 1_555
O6 C8 1_555 1_555
O7 Al1 1_555 1_555
O8 Al1 1_555 1_555
N1 Al1 1_555 1_555
C1 C2 1_555 1_555
C2 N1 1_555 1_555
C3 C2 1_555 1_555
C4 C3 1_555 1_555
C5 C4 1_555 1_555
C6 N1 1_555 1_555
C7 O3 1_555 1_555
C8 C4 1_555 1_555
Al5 O7 1_555 1_555
Al6 O6 1_555 1_555
O21 Al1 1_555 1_555
C5 C6 1_555 1_555
C6 C7 1_555 1_555
Al5 O21 1_555 1_555
O8 H1 1_555 1_555
O8 H2 1_555 1_555
C5 H3 1_555 1_555
C3 H4 1_555 1_555
O22 Al2_2 1_555 1_555
O9 Al2_3 1_555 1_555
O9 Al6_2 1_555 1_555
O19 Al2_4 1_555 1_555
O10 C9 1_555 1_555
O11 C9 1_555 1_555
O14 C16 1_555 1_555
O15 Al2_5 1_555 1_555
C9 C10 1_555 1_555
C11 C10 1_555 1_555
C12 C11 1_555 1_555
C16 O15 1_555 1_555
Al4 O16 1_555 1_555
O14 Al6_3 1_555 1_555
C12 C16 1_555 1_555
C11 H6 1_555 1_555
O12 Al3 1_555 1_555
O13 C15 1_555 1_555
O17 Al3 1_555 1_555
N2 Al3 1_555 1_555
C14 N2 1_555 1_555
C15 O12 1_555 1_555
O20 Al3 1_555 1_555
O22_2 Al2_6 1_555 1_555
C13 C14 1_555 1_555
C14 C15 1_555 1_555
C13 H5 1_555 1_555
O17 H7 1_555 1_555
O17 H8 1_555 1_555
O9_2 Al2_7 1_555 1_555
O9_2 Al6_4 1_555 1_555
O18 Al2_8 1_555 1_555
O22 Al6 1_555 1_555
O18_2 Al6_2 1_555 1_555
O22_2 Al6_3 1_555 1_555
O19_2 Al6_4 1_555 1_555
Al1_2 O1_2 1_555 1_555
Al2_9 O5_2 1_555 1_555
O1_2 C1_2 1_555 1_555
O2_2 C1_2 1_555 1_555
O3_2 Al1_2 1_555 1_555
O4_2 C7_2 1_555 1_555
O5_2 C8_2 1_555 1_555
O6_2 C8_2 1_555 1_555
O7_2 Al1_2 1_555 1_555
O8_2 Al1_2 1_555 1_555
O9_3 Al2_9 1_555 1_555
N1_2 Al1_2 1_555 1_555
C1_2 C2_2 1_555 1_555
C2_2 N1_2 1_555 1_555
C3_2 C2_2 1_555 1_555
C4_2 C3_2 1_555 1_555
C5_2 C4_2 1_555 1_555
C6_2 N1_2 1_555 1_555
C7_2 O3_2 1_555 1_555
C8_2 C4_2 1_555 1_555
O10_2 C9_2 1_555 1_555
O11_2 C9_2 1_555 1_555
O14_2 C16_2 1_555 1_555
O15_2 Al2_9 1_555 1_555
C9_2 C10_2 1_555 1_555
C11_2 C10_2 1_555 1_555
C12_2 C11_2 1_555 1_555
C16_2 O15_2 1_555 1_555
Al4_2 O16_2 1_555 1_555
Al5_2 O7_2 1_555 1_555
Al6_5 O6_2 1_555 1_555
O21_2 Al1_2 1_555 1_555
O9_3 Al6_5 1_555 1_555
C5_2 C6_2 1_555 1_555
C6_2 C7_2 1_555 1_555
O14_2 Al6_5 1_555 1_555
C12_2 C16_2 1_555 1_555
Al5_2 O21_2 1_555 1_555
O8_2 H1_2 1_555 1_555
O8_2 H2_2 1_555 1_555
C5_2 H3_2 1_555 1_555
C3_2 H4_2 1_555 1_555
C11_2 H6_2 1_555 1_555
O12_2 Al3_2 1_555 1_555
O13_2 C15_2 1_555 1_555
O17_2 Al3_2 1_555 1_555
N2_2 Al3_2 1_555 1_555
C14_2 N2_2 1_555 1_555
C15_2 O12_2 1_555 1_555
O18_3 Al2_10 1_555 1_555
O19_3 Al2_10 1_555 1_555
O20_2 Al3_2 1_555 1_555
O22_3 Al2_10 1_555 1_555
C13_2 C14_2 1_555 1_555
C14_2 C15_2 1_555 1_555
C13_2 H5_2 1_555 1_555
O17_2 H7_2 1_555 1_555
O17_2 H8_2 1_555 1_555
O18_4 Al6_5 1_555 1_555
O19_4 Al6_5 1_555 1_555
O22_3 Al6_5 1_555 1_555
O12_3 Al4_2 1_555 1_555
O13_3 C15_3 1_555 1_555
O17_3 Al4_2 1_555 1_555
N2_3 Al4_2 1_555 1_555
C14_3 N2_3 1_555 1_555
C15_3 O12_3 1_555 1_555
C13_3 C14_3 1_555 1_555
C14_3 C15_3 1_555 1_555
C13_3 H5_3 1_555 1_555
O17_3 H7_3 1_555 1_555
O17_3 H8_3 1_555 1_555
O10_3 C9_3 1_555 1_555
O11_3 C9_3 1_555 1_555
O18_2 C16_3 1_555 1_555
C9_3 C10_3 1_555 1_555
C11_3 C10_3 1_555 1_555
C12_3 C11_3 1_555 1_555
C16_3 O19 1_555 1_555
C12_3 C16_3 1_555 1_555
C11_3 H6_3 1_555 1_555
Al5_2 O1_3 1_555 1_555
O1_3 C1_3 1_555 1_555
O2_3 C1_3 1_555 1_555
O3_3 Al5_2 1_555 1_555
O4_3 C7_3 1_555 1_555
O18 C8_3 1_555 1_555
O19_2 C8_3 1_555 1_555
O8_3 Al5_2 1_555 1_555
N1_3 Al5_2 1_555 1_555
C1_3 C2_3 1_555 1_555
C2_3 N1_3 1_555 1_555
C3_3 C2_3 1_555 1_555
C4_3 C3_3 1_555 1_555
C5_3 C4_3 1_555 1_555
C6_3 N1_3 1_555 1_555
C7_3 O3_3 1_555 1_555
C8_3 C4_3 1_555 1_555
C5_3 C6_3 1_555 1_555
C6_3 C7_3 1_555 1_555
O8_3 H1_3 1_555 1_555
O8_3 H2_3 1_555 1_555
C5_3 H3_3 1_555 1_555
C3_3 H4_3 1_555 1_555
O12_4 Al4 1_555 1_555
O13_4 C15_4 1_555 1_555
O17_4 Al4 1_555 1_555
N2_4 Al4 1_555 1_555
C14_4 N2_4 1_555 1_555
C15_4 O12_4 1_555 1_555
C13_4 C14_4 1_555 1_555
C14_4 C15_4 1_555 1_555
C13_4 H5_4 1_555 1_555
O17_4 H7_4 1_555 1_555
O17_4 H8_4 1_555 1_555
Al5 O1_4 1_555 1_555
O1_4 C1_4 1_555 1_555
O2_4 C1_4 1_555 1_555
O3_4 Al5 1_555 1_555
O4_4 C7_4 1_555 1_555
O18_3 C8_4 1_555 1_555
O19_4 C8_4 1_555 1_555
O8_4 Al5 1_555 1_555
N1_4 Al5 1_555 1_555
C1_4 C2_4 1_555 1_555
C2_4 N1_4 1_555 1_555
C3_4 C2_4 1_555 1_555
C4_4 C3_4 1_555 1_555
C5_4 C4_4 1_555 1_555
C6_4 N1_4 1_555 1_555
C7_4 O3_4 1_555 1_555
C8_4 C4_4 1_555 1_555
O10_4 C9_4 1_555 1_555
O11_4 C9_4 1_555 1_555
O18_4 C16_4 1_555 1_555
C9_4 C10_4 1_555 1_555
C11_4 C10_4 1_555 1_555
C12_4 C11_4 1_555 1_555
C16_4 O19_3 1_555 1_555
C5_4 C6_4 1_555 1_555
C6_4 C7_4 1_555 1_555
C12_4 C16_4 1_555 1_555
O8_4 H1_4 1_555 1_555
O8_4 H2_4 1_555 1_555
C5_4 H3_4 1_555 1_555
C3_4 H4_4 1_555 1_555
C11_4 H6_4 1_555 1_555

#END
