
###############################################################################
#
# This file contains modified crystal structure data generated from the
# MOF subset of the Cambridge Structural Database (CSD) v543 
# hosted by the Cambridge Crystallographic Data Centre (CCDC).
#
# This work is licensed under the Creative Commons
# Attribution-NonCommercial-ShareAlike 4.0 International License.
# To view a copy of this license, visit
# http://creativecommons.org/licenses/by-nc-sa/4.0/
# or send a letter to
# Creative Commons, PO Box 1866, Mountain View, CA 94042, USA.
#
# CIF created using the CSD Python API on 29 September 2022
# The structure has been converted into the P1 space group
# The structure has a 3D framework
# The original CSD entry YOVCAP is in the rhombohedral crystal system
# The framework has been calculated to contain at least 10.0% void space
# The void calculation uses a probe of radius 1.32A, grid spacing 0.4
# The framework is charged, counterions have been retained in the structure
#
###############################################################################

data_YOVCAP
_chemical_formula_moiety         '(C432 H180 O140 Zn18 36-)n'
_symmetry_cell_setting           triclinic
_symmetry_space_group_name_H-M   'P 1'
_symmetry_Int_Tables_number      1
_space_group_name_Hall           'P 1'
loop_
_symmetry_equiv_pos_site_id
_symmetry_equiv_pos_as_xyz
1 x,y,z
_cell_length_a                   28.707(7)
_cell_length_b                   28.707(7)
_cell_length_c                   24.682(11)
_cell_angle_alpha                90
_cell_angle_beta                 90
_cell_angle_gamma                120
_cell_volume                     17615.2
loop_
_atom_site_label
_atom_site_type_symbol
_atom_site_fract_x
_atom_site_fract_y
_atom_site_fract_z
C1 C 0.2993(2) 0.27678(17) 0.0105(2)
C2 C 0.29605(17) 0.22316(16) 0.00486(18)
C5 C 0.29397(16) 0.12706(16) 0.0022(2)
H2 H 0.2933 0.0944 0.0006
C6 C 0.24942(15) 0.12752(15) 0.02193(18)
C7 C 0.25127(15) 0.17667(15) 0.02274(17)
H3 H 0.2217 0.1784 0.0356
C9 C 0.20390(15) 0.07852(15) 0.04599(17)
C10 C 0.21409(15) 0.04205(15) 0.07147(17)
H4 H 0.2491 0.0482 0.0716
C13 C 0.10999(13) 0.02274(13) 0.06968(15)
C14 C 0.15057(14) 0.06750(14) 0.04493(16)
H6 H 0.1424 0.0911 0.0270
C15 C 0.05372(13) 0.01107(13) 0.06997(15)
C16 C 0.04174(13) 0.05246(13) 0.07002(15)
H7 H 0.0699 0.0879 0.0701
H8 H 0.2632 0.0171 0.1466
O1 O 0.26284(13) 0.27662(11) 0.03790(15)
O7 O 0.34270(15) 0.02086(18) 0.19091(19)
C35 C 0.00294(15) 0.17795(21) 0.09665(16)
C36 C 0.01257(14) 0.13548(20) 0.09580(16)
H15 H 0.0430 0.1389 0.1129
C41 C 0.03915(15) 0.22850(21) 0.12540(17)
C42 C 0.01963(17) 0.25856(23) 0.14875(19)
C43 C 0.05152(18) 0.30603(24) 0.1751(2)
C44 C 0.1053(2) 0.32536(28) 0.1766(2)
H19 H 0.1275 0.3578 0.1939
C45 C 0.12772(17) 0.29749(25) 0.1526(2)
C46 C 0.09487(16) 0.24985(23) 0.12705(18)
H20 H 0.1098 0.2313 0.1104
C47 C 0.1873(2) 0.3214(3) 0.1512(3)
C48 C 0.0264(2) 0.3370(3) 0.1976(2)
O13 O 0.20530(12) 0.29565(18) 0.12595(16)
O14 O 0.21569(16) 0.36369(26) 0.1742(3)
O16 O 0.05480(14) 0.37666(19) 0.22643(15)
Zn2 Zn 0.00092(2) 0.396823(28) 0.24989(3)
O25 O 0.40383(13) 0.05671(11) 0.29543(15)
O28 O 0.05248(12) 0.46007(13) 0.29080(17)
O32 O 0.46137(12) 0.03768(18) 0.20738(16)
Zn7 Zn 0.270764(19) 0.33425(2) 0.08344(3)
C3 C 0.33994(18) 0.22075(18) 0.9859(2)
H1 H 0.3700 0.2520 0.9738
C4 C 0.33983(17) 0.17285(16) 0.9846(2)
C8 C 0.3892(2) 0.1710(2) 0.9693(3)
O2 O 0.33815(18) 0.31693(15) 0.9921(2)
O3 O 0.38581(12) 0.12674(13) 0.95747(17)
O4 O 0.43266(15) 0.21418(15) 0.9694(3)
Zn5 Zn 0.33425(2) 0.063490(28) 0.91656(3)
C11 C 0.17501(14) 0.99706(15) 0.09665(16)
C12 C 0.12291(14) 0.98743(14) 0.09580(16)
H5 H 0.0959 0.9570 0.1129
C17 C 0.18935(15) 0.96085(15) 0.12540(17)
C18 C 0.23893(16) 0.98037(17) 0.14875(19)
C19 C 0.25451(16) 0.94848(18) 0.1751(2)
C20 C 0.22006(19) 0.8947(2) 0.1766(2)
H9 H 0.2303 0.8725 0.1939
C21 C 0.16977(18) 0.87228(17) 0.1526(2)
C22 C 0.15498(16) 0.90513(16) 0.12705(18)
H10 H 0.1215 0.8902 0.1104
C23 C 0.1341(2) 0.8127(2) 0.1512(3)
C24 C 0.3106(2) 0.9736(2) 0.1976(2)
O5 O 0.09035(13) 0.79470(12) 0.12595(16)
O6 O 0.1480(2) 0.78431(16) 0.1742(3)
O8 O 0.32186(13) 0.94520(14) 0.22643(15)
Zn1 Zn 0.395903(19) 0.99908(2) 0.24989(3)
C64 C 0.01072(18) 0.95826(13) 0.07002(15)
H27 H 0.0180 0.9301 0.0701
O17 O 0.01378(17) 0.73716(13) 0.03790(15)
O30 O 0.40760(18) 0.94752(12) 0.29080(17)
Zn9 Zn 0.063490(28) 0.729236(19) 0.08344(3)
C25 C 0.72322(17) 0.02252(26) 0.0105(2)
C26 C 0.77684(16) 0.07289(23) 0.00486(18)
C29 C 0.87294(16) 0.16691(23) 0.0022(2)
H12 H 0.9056 0.1989 0.0006
C30 C 0.87248(15) 0.12190(21) 0.02193(18)
C31 C 0.82333(15) 0.07460(21) 0.02274(17)
H13 H 0.8216 0.0433 0.0356
C33 C 0.92148(15) 0.12538(21) 0.04599(17)
C34 C 0.95795(15) 0.17204(21) 0.07147(17)
H14 H 0.9518 0.2009 0.0716
C37 C 0.97726(13) 0.08725(18) 0.06968(15)
C38 C 0.93250(14) 0.08307(20) 0.04493(16)
H16 H 0.9089 0.0513 0.0270
C39 C 0.98893(13) 0.04265(18) 0.06997(15)
H18 H 0.9829 0.2461 0.1466
O15 O 0.97914(18) 0.32184(23) 0.19091(19)
O26 O 0.94329(11) 0.34711(17) 0.29543(15)
O33 O 0.96232(18) 0.42368(13) 0.20738(16)
C27 C 0.77925(18) 0.11919(25) 0.9859(2)
H11 H 0.7480 0.1180 0.9738
C28 C 0.82715(16) 0.16698(23) 0.9846(2)
C32 C 0.8290(2) 0.2182(3) 0.9693(3)
O10 O 0.68307(15) 0.02122(23) 0.9921(2)
O11 O 0.87326(13) 0.25907(18) 0.95747(17)
O12 O 0.78582(15) 0.21848(21) 0.9694(3)
Zn6 Zn 0.936510(28) 0.270764(19) 0.91656(3)
C40 C 0.94754(13) 0.98928(18) 0.07002(15)
H17 H 0.9121 0.9820 0.0701
O9 O 0.72338(11) 0.98622(17) 0.03790(15)
C49 C 0.97748(26) 0.7007(2) 0.0105(2)
C50 C 0.92711(23) 0.70395(17) 0.00486(18)
C53 C 0.83309(23) 0.70603(16) 0.0022(2)
H22 H 0.8011 0.7067 0.0006
C54 C 0.87810(21) 0.75058(15) 0.02193(18)
C55 C 0.92540(21) 0.74873(15) 0.02274(17)
H23 H 0.9567 0.7783 0.0356
C57 C 0.87462(21) 0.79610(15) 0.04599(17)
C58 C 0.82796(21) 0.78591(15) 0.07147(17)
H24 H 0.7991 0.7509 0.0716
C59 C 0.82205(21) 0.82499(14) 0.09665(16)
C60 C 0.86452(20) 0.87709(14) 0.09580(16)
H25 H 0.8611 0.9041 0.1129
C61 C 0.91275(18) 0.89001(13) 0.06968(15)
C62 C 0.91693(20) 0.84943(14) 0.04493(16)
H26 H 0.9487 0.8576 0.0270
C63 C 0.95735(18) 0.94628(13) 0.06997(15)
C65 C 0.77150(21) 0.81065(15) 0.12540(17)
C66 C 0.74144(23) 0.76107(16) 0.14875(19)
H28 H 0.7539 0.7368 0.1466
C67 C 0.69397(24) 0.74549(16) 0.1751(2)
C68 C 0.67464(28) 0.77994(19) 0.1766(2)
H29 H 0.6422 0.7697 0.1939
C69 C 0.70251(25) 0.83023(18) 0.1526(2)
C70 C 0.75015(23) 0.84502(16) 0.12705(18)
H30 H 0.7687 0.8785 0.1104
C71 C 0.6786(3) 0.8659(2) 0.1512(3)
C72 C 0.6630(3) 0.6894(2) 0.1976(2)
O21 O 0.70435(18) 0.90965(13) 0.12595(16)
O22 O 0.63631(26) 0.8520(2) 0.1742(3)
O23 O 0.67816(23) 0.65730(15) 0.19091(19)
O24 O 0.62334(19) 0.67814(13) 0.22643(15)
Zn3 Zn 0.603177(28) 0.604097(19) 0.24989(3)
O27 O 0.65289(17) 0.59617(13) 0.29543(15)
O29 O 0.53993(13) 0.59240(18) 0.29080(17)
O31 O 0.57632(13) 0.53863(12) 0.20738(16)
Zn8 Zn 0.66575(2) 0.936510(28) 0.08344(3)
C51 C 0.88081(25) 0.66006(18) 0.9859(2)
H21 H 0.8820 0.6300 0.9738
C52 C 0.83302(23) 0.66017(17) 0.9846(2)
C56 C 0.7818(3) 0.6108(2) 0.9693(3)
O18 O 0.97878(23) 0.66185(18) 0.9921(2)
O19 O 0.74093(18) 0.61419(12) 0.95747(17)
O20 O 0.78152(21) 0.56734(15) 0.9694(3)
Zn4 Zn 0.729236(19) 0.66575(2) 0.91656(3)
C3_2 C 0.00661(18) 0.55408(18) 0.3192(2)
H1_2 H 0.0367 0.5853 0.3071
C4_2 C 0.00650(17) 0.50618(16) 0.3179(2)
C8_2 C 0.0559(2) 0.5043(2) 0.3026(3)
O2_2 O 0.00482(18) 0.65026(15) 0.3254(2)
O4_2 O 0.09933(15) 0.54751(15) 0.3027(3)
O7_2 O 0.00937(15) 0.35419(18) 0.52424(19)
Zn1_2 Zn 0.062570(19) 0.33241(2) 0.58322(3)
O25_2 O 0.07049(13) 0.39005(11) 0.62877(15)
O30_2 O 0.07426(18) 0.28086(12) 0.62414(17)
O32_2 O 0.12803(12) 0.37102(18) 0.54072(16)
C1_2 C 0.9660(2) 0.61011(17) 0.3438(2)
C2_2 C 0.96272(17) 0.55649(16) 0.33819(18)
C5_2 C 0.96064(16) 0.46039(16) 0.3355(2)
H2_2 H 0.9600 0.4277 0.3339
C6_2 C 0.91609(15) 0.46085(15) 0.35526(18)
C7_2 C 0.91794(15) 0.51000(15) 0.35607(17)
H3_2 H 0.8884 0.5117 0.3689
C9_2 C 0.87057(15) 0.41185(15) 0.37932(17)
C10_2 C 0.88076(15) 0.37538(15) 0.40480(17)
H4_2 H 0.9158 0.3815 0.4049
C11_2 C 0.84168(14) 0.33039(15) 0.42998(16)
C12_2 C 0.78958(14) 0.32076(14) 0.42913(16)
H5_2 H 0.7626 0.2903 0.4462
C13_2 C 0.77666(13) 0.35607(13) 0.40301(15)
C14_2 C 0.81724(14) 0.40083(14) 0.37826(16)
H6_2 H 0.8091 0.4244 0.3603
C15_2 C 0.72039(13) 0.34440(13) 0.40330(15)
C16_2 C 0.70841(13) 0.38579(13) 0.40335(15)
H7_2 H 0.7366 0.4212 0.4034
C17_2 C 0.85602(15) 0.29418(15) 0.45873(17)
C18_2 C 0.90560(16) 0.31370(17) 0.48208(19)
H8_2 H 0.9299 0.3504 0.4799
C19_2 C 0.92118(16) 0.28181(18) 0.5084(2)
C20_2 C 0.88673(19) 0.2280(2) 0.5099(2)
H9_2 H 0.8970 0.2058 0.5272
C21_2 C 0.83644(18) 0.20561(17) 0.4859(2)
C22_2 C 0.82165(16) 0.23846(16) 0.46038(18)
H10_2 H 0.7882 0.2235 0.4437
C23_2 C 0.8008(2) 0.1460(2) 0.4845(3)
C24_2 C 0.9773(2) 0.3069(2) 0.5309(2)
O1_2 O 0.92951(13) 0.60995(11) 0.37123(15)
O5_2 O 0.75702(13) 0.12803(12) 0.45928(16)
O6_2 O 0.8147(2) 0.11764(16) 0.5075(3)
O8_2 O 0.98853(13) 0.27853(14) 0.55976(15)
C25_2 C 0.38989(17) 0.35585(26) 0.3438(2)
C26_2 C 0.44351(16) 0.40622(23) 0.33819(18)
C27_2 C 0.44592(18) 0.45252(25) 0.3192(2)
H11_2 H 0.4147 0.4513 0.3071
C28_2 C 0.49382(16) 0.50031(23) 0.3179(2)
C29_2 C 0.53961(16) 0.50024(23) 0.3355(2)
H12_2 H 0.5723 0.5322 0.3339
C30_2 C 0.53915(15) 0.45523(21) 0.35526(18)
C31_2 C 0.49000(15) 0.40793(21) 0.35607(17)
H13_2 H 0.4883 0.3766 0.3689
C32_2 C 0.4957(2) 0.5515(3) 0.3026(3)
C33_2 C 0.58815(15) 0.45871(21) 0.37932(17)
C34_2 C 0.62462(15) 0.50537(21) 0.40480(17)
H14_2 H 0.6185 0.5342 0.4049
C35_2 C 0.66961(15) 0.51128(21) 0.42998(16)
C36_2 C 0.67924(14) 0.46881(20) 0.42913(16)
H15_2 H 0.7097 0.4722 0.4462
C37_2 C 0.64393(13) 0.42058(18) 0.40301(15)
C38_2 C 0.59917(14) 0.41640(20) 0.37826(16)
H16_2 H 0.5756 0.3846 0.3603
C39_2 C 0.65560(13) 0.37598(18) 0.40330(15)
C40_2 C 0.61421(13) 0.32261(18) 0.40335(15)
H17_2 H 0.5788 0.3153 0.4034
C41_2 C 0.70582(15) 0.56183(21) 0.45873(17)
C42_2 C 0.68630(17) 0.59189(23) 0.48208(19)
H18_2 H 0.6496 0.5794 0.4799
C43_2 C 0.71819(18) 0.63936(24) 0.5084(2)
C44_2 C 0.7720(2) 0.65869(28) 0.5099(2)
H19_2 H 0.7942 0.6911 0.5272
C45_2 C 0.79439(17) 0.63082(25) 0.4859(2)
C46_2 C 0.76154(16) 0.58318(23) 0.46038(18)
H20_2 H 0.7765 0.5646 0.4437
C47_2 C 0.8540(2) 0.6547(3) 0.4845(3)
C48_2 C 0.6931(2) 0.6703(3) 0.5309(2)
O9_2 O 0.39005(11) 0.31955(17) 0.37123(15)
O10_2 O 0.34974(15) 0.35455(23) 0.3254(2)
O12_2 O 0.45249(15) 0.55181(21) 0.3027(3)
O13_2 O 0.87197(12) 0.62898(18) 0.45928(16)
O14_2 O 0.88236(16) 0.69702(26) 0.5075(3)
O15_2 O 0.64581(18) 0.65517(23) 0.52424(19)
O16_2 O 0.72147(14) 0.70999(19) 0.55976(15)
C49_2 C 0.64415(26) 0.0340(2) 0.3438(2)
C50_2 C 0.59378(23) 0.03728(17) 0.33819(18)
C53_2 C 0.49976(23) 0.03936(16) 0.3355(2)
H22_2 H 0.4678 0.0400 0.3339
C54_2 C 0.54477(21) 0.08391(15) 0.35526(18)
C55_2 C 0.59207(21) 0.08206(15) 0.35607(17)
H23_2 H 0.6234 0.1116 0.3689
C57_2 C 0.54129(21) 0.12943(15) 0.37932(17)
C58_2 C 0.49463(21) 0.11924(15) 0.40480(17)
H24_2 H 0.4658 0.0842 0.4049
C59_2 C 0.48872(21) 0.15832(14) 0.42998(16)
C60_2 C 0.53119(20) 0.21042(14) 0.42913(16)
H25_2 H 0.5278 0.2374 0.4462
C61_2 C 0.57942(18) 0.22334(13) 0.40301(15)
C62_2 C 0.58360(20) 0.18276(14) 0.37826(16)
H26_2 H 0.6154 0.1909 0.3603
C63_2 C 0.62402(18) 0.27961(13) 0.40330(15)
C64_2 C 0.67739(18) 0.29159(13) 0.40335(15)
H27_2 H 0.6847 0.2634 0.4034
C65_2 C 0.43817(21) 0.14398(15) 0.45873(17)
C66_2 C 0.40811(23) 0.09440(16) 0.48208(19)
H28_2 H 0.4206 0.0701 0.4799
C67_2 C 0.36064(24) 0.07882(16) 0.5084(2)
C68_2 C 0.34131(28) 0.11327(19) 0.5099(2)
H29_2 H 0.3089 0.1030 0.5272
C69_2 C 0.36918(25) 0.16356(18) 0.4859(2)
C70_2 C 0.41682(23) 0.17835(16) 0.46038(18)
H30_2 H 0.4354 0.2118 0.4437
C71_2 C 0.3453(3) 0.1992(2) 0.4845(3)
C72_2 C 0.3297(3) 0.0227(2) 0.5309(2)
O17_2 O 0.68045(17) 0.07049(13) 0.37123(15)
O21_2 O 0.37102(18) 0.24298(13) 0.45928(16)
O22_2 O 0.30298(26) 0.1853(2) 0.5075(3)
O24_2 O 0.29001(19) 0.01147(13) 0.55976(15)
Zn2_2 Zn 0.66759(2) 0.730156(28) 0.58322(3)
O26_2 O 0.60995(11) 0.68045(17) 0.62877(15)
O28_2 O 0.71914(12) 0.79341(13) 0.62414(17)
O33_2 O 0.62898(18) 0.75702(13) 0.54072(16)
Zn7_2 Zn 0.937430(19) 0.66759(2) 0.41678(3)
Zn8_2 Zn 0.33241(2) 0.269844(28) 0.41678(3)
Zn9_2 Zn 0.730156(28) 0.062570(19) 0.41678(3)
C51_2 C 0.54748(25) 0.99339(18) 0.3192(2)
H21_2 H 0.5487 0.9633 0.3071
C52_2 C 0.49969(23) 0.99350(17) 0.3179(2)
C56_2 C 0.4485(3) 0.9441(2) 0.3026(3)
O18_2 O 0.64545(23) 0.99518(18) 0.3254(2)
O20_2 O 0.44819(21) 0.90067(15) 0.3027(3)
O23_2 O 0.34483(23) 0.99063(15) 0.52424(19)
Zn3_2 Zn 0.269844(28) 0.937430(19) 0.58322(3)
O27_2 O 0.31955(17) 0.92951(13) 0.62877(15)
O29_2 O 0.20659(13) 0.92574(18) 0.62414(17)
O31_2 O 0.24298(13) 0.87197(12) 0.54072(16)
H19_3 H 0.4608 0.0245 0.8606
C48_3 C 0.3597(2) 0.0037(3) 0.8643(2)
O14_3 O 0.54902(16) 0.03036(26) 0.8409(3)
O16_3 O 0.38813(14) 0.04333(19) 0.89310(15)
O26_3 O 0.27662(11) 0.01378(17) 0.96210(15)
O33_3 O 0.29565(18) 0.09035(13) 0.87405(16)
Zn7_3 Zn 0.604097(19) 0.00092(2) 0.75011(3)
C1_3 C 0.6326(2) 0.94345(17) 0.6772(2)
C2_3 C 0.62938(17) 0.88983(16) 0.67153(18)
C3_3 C 0.67327(18) 0.88742(18) 0.6526(2)
H1_3 H 0.7033 0.9187 0.6405
C4_3 C 0.67316(17) 0.83952(16) 0.6513(2)
C5_3 C 0.62730(16) 0.79373(16) 0.6689(2)
H2_3 H 0.6266 0.7611 0.6673
C6_3 C 0.58275(15) 0.79419(15) 0.68860(18)
C7_3 C 0.58460(15) 0.84334(15) 0.68941(17)
H3_3 H 0.5550 0.8451 0.7023
C8_3 C 0.7225(2) 0.8377(2) 0.6360(3)
C9_3 C 0.53723(15) 0.74519(15) 0.71266(17)
C10_3 C 0.54742(15) 0.70872(15) 0.73814(17)
H4_3 H 0.5824 0.7149 0.7383
C11_3 C 0.50834(14) 0.66373(15) 0.76332(16)
C12_3 C 0.45624(14) 0.65410(14) 0.76247(16)
H5_3 H 0.4292 0.6237 0.7796
C13_3 C 0.44332(13) 0.68941(13) 0.73635(15)
C14_3 C 0.48390(14) 0.73417(14) 0.71160(16)
H6_3 H 0.4757 0.7578 0.6937
C15_3 C 0.38705(13) 0.67774(13) 0.73664(15)
C16_3 C 0.37507(13) 0.71913(13) 0.73669(15)
H7_3 H 0.4032 0.7546 0.7368
C17_3 C 0.52268(15) 0.62752(15) 0.79207(17)
C18_3 C 0.57226(16) 0.64704(17) 0.81542(19)
H8_3 H 0.5965 0.6838 0.8133
C19_3 C 0.58784(16) 0.61515(18) 0.8418(2)
C20_3 C 0.55339(19) 0.5614(2) 0.8433(2)
H9_3 H 0.5636 0.5392 0.8606
C21_3 C 0.50310(18) 0.53895(17) 0.8193(2)
C22_3 C 0.48831(16) 0.57180(16) 0.79372(18)
H10_3 H 0.4548 0.5569 0.7771
C23_3 C 0.4674(2) 0.4794(2) 0.8179(3)
C24_3 C 0.6439(2) 0.6403(2) 0.8643(2)
O1_3 O 0.59617(13) 0.94329(11) 0.70457(15)
O2_3 O 0.67148(18) 0.98360(15) 0.6588(2)
O4_3 O 0.76599(15) 0.88085(15) 0.6361(3)
O5_3 O 0.42368(13) 0.46137(12) 0.79262(16)
O6_3 O 0.4813(2) 0.45098(16) 0.8409(3)
O7_3 O 0.67603(15) 0.68753(18) 0.85758(19)
O8_3 O 0.65519(13) 0.61187(14) 0.89310(15)
C25_3 C 0.05655(17) 0.68919(26) 0.6772(2)
C26_3 C 0.11017(16) 0.73956(23) 0.67153(18)
C27_3 C 0.11258(18) 0.78586(25) 0.6526(2)
H11_3 H 0.0813 0.7847 0.6405
C28_3 C 0.16048(16) 0.83365(23) 0.6513(2)
C29_3 C 0.20627(16) 0.83358(23) 0.6689(2)
H12_3 H 0.2389 0.8656 0.6673
C30_3 C 0.20581(15) 0.78857(21) 0.68860(18)
C31_3 C 0.15666(15) 0.74127(21) 0.68941(17)
H13_3 H 0.1549 0.7100 0.7023
C32_3 C 0.1623(2) 0.8849(3) 0.6360(3)
C33_3 C 0.25481(15) 0.79205(21) 0.71266(17)
C34_3 C 0.29128(15) 0.83871(21) 0.73814(17)
H14_3 H 0.2851 0.8676 0.7383
C35_3 C 0.33627(15) 0.84462(21) 0.76332(16)
C36_3 C 0.34590(14) 0.80215(20) 0.76247(16)
H15_3 H 0.3763 0.8056 0.7796
C37_3 C 0.31059(13) 0.75392(18) 0.73635(15)
C38_3 C 0.26583(14) 0.74974(20) 0.71160(16)
H16_3 H 0.2422 0.7180 0.6937
C39_3 C 0.32226(13) 0.70932(18) 0.73664(15)
C40_3 C 0.28087(13) 0.65595(18) 0.73669(15)
H17_3 H 0.2454 0.6487 0.7368
C41_3 C 0.37248(15) 0.89517(21) 0.79207(17)
C42_3 C 0.35296(17) 0.92523(23) 0.81542(19)
H18_3 H 0.3162 0.9128 0.8133
C43_3 C 0.38485(18) 0.97270(24) 0.8418(2)
C44_3 C 0.4386(2) 0.99203(28) 0.8433(2)
C45_3 C 0.46105(17) 0.96416(25) 0.8193(2)
C46_3 C 0.42820(16) 0.91652(23) 0.79372(18)
H20_3 H 0.4431 0.8980 0.7771
C47_3 C 0.5206(2) 0.9881(3) 0.8179(3)
O9_3 O 0.05671(11) 0.65289(17) 0.70457(15)
O10_3 O 0.01640(15) 0.68789(23) 0.6588(2)
O12_3 O 0.11915(15) 0.88515(21) 0.6361(3)
O13_3 O 0.53863(12) 0.96232(18) 0.79262(16)
O15_3 O 0.31247(18) 0.98851(23) 0.85758(19)
C49_3 C 0.31081(26) 0.3674(2) 0.6772(2)
C50_3 C 0.26044(23) 0.37062(17) 0.67153(18)
C51_3 C 0.21414(25) 0.32673(18) 0.6526(2)
H21_3 H 0.2153 0.2967 0.6405
C52_3 C 0.16635(23) 0.32684(17) 0.6513(2)
C53_3 C 0.16642(23) 0.37270(16) 0.6689(2)
H22_3 H 0.1344 0.3734 0.6673
C54_3 C 0.21143(21) 0.41725(15) 0.68860(18)
C55_3 C 0.25873(21) 0.41540(15) 0.68941(17)
H23_3 H 0.2900 0.4450 0.7023
C56_3 C 0.1151(3) 0.2775(2) 0.6360(3)
C57_3 C 0.20795(21) 0.46277(15) 0.71266(17)
C58_3 C 0.16129(21) 0.45258(15) 0.73814(17)
H24_3 H 0.1324 0.4176 0.7383
C59_3 C 0.15538(21) 0.49166(14) 0.76332(16)
C60_3 C 0.19785(20) 0.54376(14) 0.76247(16)
H25_3 H 0.1944 0.5708 0.7796
C61_3 C 0.24608(18) 0.55668(13) 0.73635(15)
C62_3 C 0.25026(20) 0.51610(14) 0.71160(16)
H26_3 H 0.2820 0.5243 0.6937
C63_3 C 0.29068(18) 0.61295(13) 0.73664(15)
C64_3 C 0.34405(18) 0.62493(13) 0.73669(15)
H27_3 H 0.3513 0.5968 0.7368
C65_3 C 0.10483(21) 0.47732(15) 0.79207(17)
C66_3 C 0.07477(23) 0.42774(16) 0.81542(19)
H28_3 H 0.0872 0.4035 0.8133
C67_3 C 0.02730(24) 0.41216(16) 0.8418(2)
C68_3 C 0.00797(28) 0.44661(19) 0.8433(2)
C69_3 C 0.03584(25) 0.49690(18) 0.8193(2)
C70_3 C 0.08348(23) 0.51169(16) 0.79372(18)
H30_3 H 0.1020 0.5452 0.7771
C71_3 C 0.0119(3) 0.5326(2) 0.8179(3)
O17_3 O 0.34711(17) 0.40383(13) 0.70457(15)
O18_3 O 0.31211(23) 0.32852(18) 0.6588(2)
O20_3 O 0.11485(21) 0.23401(15) 0.6361(3)
O21_3 O 0.03768(18) 0.57632(13) 0.79262(16)
O23_3 O 0.01149(23) 0.32397(15) 0.85758(19)
O25_3 O 0.73716(13) 0.72338(11) 0.96210(15)
O32_3 O 0.79470(12) 0.70435(18) 0.87405(16)
Zn9_3 Zn 0.396823(28) 0.395903(19) 0.75011(3)
H29_3 H 0.9755 0.4364 0.8606
C72_3 C 0.9963(3) 0.3561(2) 0.8643(2)
O22_3 O 0.96964(26) 0.5187(2) 0.8409(3)
O24_3 O 0.95667(19) 0.34481(13) 0.89310(15)
O27_3 O 0.98622(17) 0.26284(13) 0.96210(15)
O31_3 O 0.90965(13) 0.20530(12) 0.87405(16)
Zn8_3 Zn 0.99908(2) 0.603177(28) 0.75011(3)
C51_4 C 0.11919(25) 0.33994(18) 0.0141(2)
H21_4 H 0.1180 0.3700 0.0262
C52_4 C 0.16698(23) 0.33983(17) 0.0154(2)
C56_4 C 0.2182(3) 0.3892(2) 0.0307(3)
O18_4 O 0.02122(23) 0.33815(18) 0.0079(2)
O19_2 O 0.25907(18) 0.38581(12) 0.04253(17)
O20_4 O 0.21848(21) 0.43266(15) 0.0306(3)
C40_4 C 0.05246(13) 0.01072(18) 0.92998(15)
H17_4 H 0.0879 0.0180 0.9299
C49_4 C 0.02252(26) 0.2993(2) 0.9895(2)
C50_4 C 0.07289(23) 0.29605(17) 0.99514(18)
C53_4 C 0.16691(23) 0.29397(16) 0.9978(2)
H22_4 H 0.1989 0.2933 0.9994
C54_4 C 0.12190(21) 0.24942(15) 0.97807(18)
C55_4 C 0.07460(21) 0.25127(15) 0.97726(17)
H23_4 H 0.0433 0.2217 0.9644
C57_4 C 0.12538(21) 0.20390(15) 0.95401(17)
C58_4 C 0.17204(21) 0.21409(15) 0.92853(17)
H24_4 H 0.2009 0.2491 0.9284
C59_4 C 0.17795(21) 0.17501(14) 0.90335(16)
C60_4 C 0.13548(20) 0.12291(14) 0.90420(16)
H25_4 H 0.1389 0.0959 0.8871
C61_4 C 0.08725(18) 0.10999(13) 0.93032(15)
C62_4 C 0.08307(20) 0.15057(14) 0.95507(16)
H26_4 H 0.0513 0.1424 0.9730
C63_4 C 0.04265(18) 0.05372(13) 0.93003(15)
C65_4 C 0.22850(21) 0.18935(15) 0.87460(17)
C66_4 C 0.25856(23) 0.23893(16) 0.85125(19)
H28_4 H 0.2461 0.2632 0.8534
C67_4 C 0.30603(24) 0.25451(16) 0.8249(2)
C68_4 C 0.32536(28) 0.22006(19) 0.8234(2)
H29_4 H 0.3578 0.2303 0.8061
C69_4 C 0.29749(25) 0.16977(18) 0.8474(2)
C70_4 C 0.24985(23) 0.15498(16) 0.87295(18)
H30_4 H 0.2313 0.1215 0.8896
C71_4 C 0.3214(3) 0.1341(2) 0.8488(3)
C72_4 C 0.3370(3) 0.3106(2) 0.8024(2)
O22_4 O 0.36369(26) 0.1480(2) 0.8258(3)
O23_4 O 0.32184(23) 0.34270(15) 0.80909(19)
O24_4 O 0.37666(19) 0.32186(13) 0.77357(15)
O29_3 O 0.46007(13) 0.40760(18) 0.70920(17)
C27_4 C 0.22075(18) 0.88081(25) 0.0141(2)
H11_4 H 0.2520 0.8820 0.0262
C28_4 C 0.17285(16) 0.83302(23) 0.0154(2)
C32_4 C 0.1710(2) 0.7818(3) 0.0307(3)
O10_4 O 0.31693(15) 0.97878(23) 0.0079(2)
O11_2 O 0.12674(13) 0.74093(18) 0.04253(17)
O12_4 O 0.21418(15) 0.78152(21) 0.0306(3)
C25_4 C 0.27678(17) 0.97748(26) 0.9895(2)
C26_4 C 0.22316(16) 0.92711(23) 0.99514(18)
C29_4 C 0.12706(16) 0.83309(23) 0.9978(2)
H12_4 H 0.0944 0.8011 0.9994
C30_4 C 0.12752(15) 0.87810(21) 0.97807(18)
C31_4 C 0.17667(15) 0.92540(21) 0.97726(17)
H13_4 H 0.1784 0.9567 0.9644
C33_4 C 0.07852(15) 0.87462(21) 0.95401(17)
C34_4 C 0.04205(15) 0.82796(21) 0.92853(17)
H14_4 H 0.0482 0.7991 0.9284
C37_4 C 0.02274(13) 0.91275(18) 0.93032(15)
C38_4 C 0.06750(14) 0.91693(20) 0.95507(16)
H16_4 H 0.0911 0.9487 0.9730
C39_4 C 0.01107(13) 0.95735(18) 0.93003(15)
H18_4 H 0.0171 0.7539 0.8534
O15_4 O 0.02086(18) 0.67816(23) 0.80909(19)
C11_4 C 0.82499(14) 0.00294(15) 0.90335(16)
C12_4 C 0.87709(14) 0.01257(14) 0.90420(16)
H5_4 H 0.9041 0.0430 0.8871
C17_4 C 0.81065(15) 0.03915(15) 0.87460(17)
C18_4 C 0.76107(16) 0.01963(17) 0.85125(19)
C19_4 C 0.74549(16) 0.05152(18) 0.8249(2)
C20_4 C 0.77994(19) 0.1053(2) 0.8234(2)
H9_4 H 0.7697 0.1275 0.8061
C21_4 C 0.83023(18) 0.12772(17) 0.8474(2)
C22_4 C 0.84502(16) 0.09487(16) 0.87295(18)
H10_4 H 0.8785 0.1098 0.8896
C23_4 C 0.8659(2) 0.1873(2) 0.8488(3)
C24_4 C 0.6894(2) 0.0264(2) 0.8024(2)
O6_4 O 0.8520(2) 0.21569(16) 0.8258(3)
O8_4 O 0.67814(13) 0.05480(14) 0.77357(15)
C64_4 C 0.98928(18) 0.04174(13) 0.92998(15)
H27_4 H 0.9820 0.0699 0.9299
O30_3 O 0.59240(18) 0.05248(12) 0.70920(17)
C3_4 C 0.66006(18) 0.77925(18) 0.0141(2)
H1_4 H 0.6300 0.7480 0.0262
C4_4 C 0.66017(17) 0.82715(16) 0.0154(2)
C8_4 C 0.6108(2) 0.8290(2) 0.0307(3)
O2_4 O 0.66185(18) 0.68307(15) 0.0079(2)
O3_2 O 0.61419(12) 0.87326(13) 0.04253(17)
O4_4 O 0.56734(15) 0.78582(15) 0.0306(3)
C1_4 C 0.7007(2) 0.72322(17) 0.9895(2)
C2_4 C 0.70395(17) 0.77684(16) 0.99514(18)
C5_4 C 0.70603(16) 0.87294(16) 0.9978(2)
H2_4 H 0.7067 0.9056 0.9994
C6_4 C 0.75058(15) 0.87248(15) 0.97807(18)
C7_4 C 0.74873(15) 0.82333(15) 0.97726(17)
H3_4 H 0.7783 0.8216 0.9644
C9_4 C 0.79610(15) 0.92148(15) 0.95401(17)
C10_4 C 0.78591(15) 0.95795(15) 0.92853(17)
H4_4 H 0.7509 0.9518 0.9284
C13_4 C 0.89001(13) 0.97726(13) 0.93032(15)
C14_4 C 0.84943(14) 0.93250(14) 0.95507(16)
H6_4 H 0.8576 0.9089 0.9730
C15_4 C 0.94628(13) 0.98893(13) 0.93003(15)
C16_4 C 0.95826(13) 0.94754(13) 0.92998(15)
H7_4 H 0.9301 0.9121 0.9299
H8_4 H 0.7368 0.9829 0.8534
O7_4 O 0.65730(15) 0.97914(18) 0.80909(19)
C35_4 C 0.99706(15) 0.82205(21) 0.90335(16)
C36_4 C 0.98743(14) 0.86452(20) 0.90420(16)
H15_4 H 0.9570 0.8611 0.8871
C41_4 C 0.96085(15) 0.77150(21) 0.87460(17)
C42_4 C 0.98037(17) 0.74144(23) 0.85125(19)
C43_4 C 0.94848(18) 0.69397(24) 0.8249(2)
C44_4 C 0.8947(2) 0.67464(28) 0.8234(2)
H19_4 H 0.8725 0.6422 0.8061
C45_4 C 0.87228(17) 0.70251(25) 0.8474(2)
C46_4 C 0.90513(16) 0.75015(23) 0.87295(18)
H20_4 H 0.8902 0.7687 0.8896
C47_4 C 0.8127(2) 0.6786(3) 0.8488(3)
C48_4 C 0.9736(2) 0.6630(3) 0.8024(2)
O14_4 O 0.78431(16) 0.63631(26) 0.8258(3)
O16_4 O 0.94520(14) 0.62334(19) 0.77357(15)
O28_3 O 0.94752(12) 0.53993(13) 0.70920(17)
C51_5 C 0.45252(25) 0.00661(18) 0.6808(2)
H21_5 H 0.4513 0.0367 0.6929
C52_5 C 0.50031(23) 0.00650(17) 0.6821(2)
C56_5 C 0.5515(3) 0.0559(2) 0.6974(3)
O18_5 O 0.35455(23) 0.00482(18) 0.6746(2)
O20_5 O 0.55181(21) 0.09933(15) 0.6973(3)
O23_5 O 0.65517(23) 0.00937(15) 0.47576(19)
O29_4 O 0.79341(13) 0.07426(18) 0.37586(17)
C1_5 C 0.0340(2) 0.38989(17) 0.6562(2)
C2_5 C 0.03728(17) 0.44351(16) 0.66181(18)
C5_5 C 0.03936(16) 0.53961(16) 0.6645(2)
H2_5 H 0.0400 0.5723 0.6661
C6_5 C 0.08391(15) 0.53915(15) 0.64474(18)
C7_5 C 0.08206(15) 0.49000(15) 0.64393(17)
H3_5 H 0.1116 0.4883 0.6311
C9_5 C 0.12943(15) 0.58815(15) 0.62068(17)
C10_5 C 0.11924(15) 0.62462(15) 0.59520(17)
H4_5 H 0.0842 0.6185 0.5951
C11_5 C 0.15832(14) 0.66961(15) 0.57002(16)
C12_5 C 0.21042(14) 0.67924(14) 0.57087(16)
H5_5 H 0.2374 0.7097 0.5538
C13_5 C 0.22334(13) 0.64393(13) 0.59699(15)
C14_5 C 0.18276(14) 0.59917(14) 0.62174(16)
H6_5 H 0.1909 0.5756 0.6397
C15_5 C 0.27961(13) 0.65560(13) 0.59670(15)
C16_5 C 0.29159(13) 0.61421(13) 0.59665(15)
H7_5 H 0.2634 0.5788 0.5966
C17_5 C 0.14398(15) 0.70582(15) 0.54127(17)
C18_5 C 0.09440(16) 0.68630(17) 0.51792(19)
H8_5 H 0.0701 0.6496 0.5201
C19_5 C 0.07882(16) 0.71819(18) 0.4916(2)
C20_5 C 0.11327(19) 0.7720(2) 0.4901(2)
H9_5 H 0.1030 0.7942 0.4728
C21_5 C 0.16356(18) 0.79439(17) 0.5141(2)
C22_5 C 0.17835(16) 0.76154(16) 0.53962(18)
H10_5 H 0.2118 0.7765 0.5563
C23_5 C 0.1992(2) 0.8540(2) 0.5155(3)
C24_5 C 0.0227(2) 0.6931(2) 0.4691(2)
O6_5 O 0.1853(2) 0.88236(16) 0.4925(3)
O8_5 O 0.01147(13) 0.72147(14) 0.44024(15)
C25_5 C 0.61011(17) 0.64415(26) 0.6562(2)
C26_5 C 0.55649(16) 0.59378(23) 0.66181(18)
C27_5 C 0.55408(18) 0.54748(25) 0.6808(2)
H11_5 H 0.5853 0.5487 0.6929
C28_5 C 0.50618(16) 0.49969(23) 0.6821(2)
C29_5 C 0.46039(16) 0.49976(23) 0.6645(2)
H12_5 H 0.4277 0.4678 0.6661
C30_5 C 0.46085(15) 0.54477(21) 0.64474(18)
C31_5 C 0.51000(15) 0.59207(21) 0.64393(17)
H13_5 H 0.5117 0.6234 0.6311
C32_5 C 0.5043(2) 0.4485(3) 0.6974(3)
C33_5 C 0.41185(15) 0.54129(21) 0.62068(17)
C34_5 C 0.37538(15) 0.49463(21) 0.59520(17)
H14_5 H 0.3815 0.4658 0.5951
C35_5 C 0.33039(15) 0.48872(21) 0.57002(16)
C36_5 C 0.32076(14) 0.53119(20) 0.57087(16)
H15_5 H 0.2903 0.5278 0.5538
C37_5 C 0.35607(13) 0.57942(18) 0.59699(15)
C38_5 C 0.40083(14) 0.58360(20) 0.62174(16)
H16_5 H 0.4244 0.6154 0.6397
C39_5 C 0.34440(13) 0.62402(18) 0.59670(15)
C40_5 C 0.38579(13) 0.67739(18) 0.59665(15)
H17_5 H 0.4212 0.6847 0.5966
C41_5 C 0.29418(15) 0.43817(21) 0.54127(17)
C42_5 C 0.31370(17) 0.40811(23) 0.51792(19)
H18_5 H 0.3504 0.4206 0.5201
C43_5 C 0.28181(18) 0.36064(24) 0.4916(2)
C44_5 C 0.2280(2) 0.34131(28) 0.4901(2)
H19_5 H 0.2058 0.3089 0.4728
C45_5 C 0.20561(17) 0.36918(25) 0.5141(2)
C46_5 C 0.23846(16) 0.41682(23) 0.53962(18)
H20_5 H 0.2235 0.4354 0.5563
C47_5 C 0.1460(2) 0.3453(3) 0.5155(3)
C48_5 C 0.3069(2) 0.3297(3) 0.4691(2)
O10_5 O 0.65026(15) 0.64545(23) 0.6746(2)
O12_5 O 0.54751(15) 0.44819(21) 0.6973(3)
O14_5 O 0.11764(16) 0.30298(26) 0.4925(3)
O15_5 O 0.35419(18) 0.34483(23) 0.47576(19)
O16_5 O 0.27853(14) 0.29001(19) 0.44024(15)
C49_5 C 0.35585(26) 0.9660(2) 0.6562(2)
C50_5 C 0.40622(23) 0.96272(17) 0.66181(18)
C53_5 C 0.50024(23) 0.96064(16) 0.6645(2)
H22_5 H 0.5322 0.9600 0.6661
C54_5 C 0.45523(21) 0.91609(15) 0.64474(18)
C55_5 C 0.40793(21) 0.91794(15) 0.64393(17)
H23_5 H 0.3766 0.8884 0.6311
C57_5 C 0.45871(21) 0.87057(15) 0.62068(17)
C58_5 C 0.50537(21) 0.88076(15) 0.59520(17)
H24_5 H 0.5342 0.9158 0.5951
C59_5 C 0.51128(21) 0.84168(14) 0.57002(16)
C60_5 C 0.46881(20) 0.78958(14) 0.57087(16)
H25_5 H 0.4722 0.7626 0.5538
C61_5 C 0.42058(18) 0.77666(13) 0.59699(15)
C62_5 C 0.41640(20) 0.81724(14) 0.62174(16)
H26_5 H 0.3846 0.8091 0.6397
C63_5 C 0.37598(18) 0.72039(13) 0.59670(15)
C64_5 C 0.32261(18) 0.70841(13) 0.59665(15)
H27_5 H 0.3153 0.7366 0.5966
C65_5 C 0.56183(21) 0.85602(15) 0.54127(17)
C66_5 C 0.59189(23) 0.90560(16) 0.51792(19)
H28_5 H 0.5794 0.9299 0.5201
C67_5 C 0.63936(24) 0.92118(16) 0.4916(2)
C68_5 C 0.65869(28) 0.88673(19) 0.4901(2)
H29_5 H 0.6911 0.8970 0.4728
C69_5 C 0.63082(25) 0.83644(18) 0.5141(2)
C70_5 C 0.58318(23) 0.82165(16) 0.53962(18)
H30_5 H 0.5646 0.7882 0.5563
C71_5 C 0.6547(3) 0.8008(2) 0.5155(3)
C72_5 C 0.6703(3) 0.9773(2) 0.4691(2)
O22_5 O 0.69702(26) 0.8147(2) 0.4925(3)
O24_5 O 0.70999(19) 0.98853(13) 0.44024(15)
O28_4 O 0.28086(12) 0.20659(13) 0.37586(17)
C3_5 C 0.99339(18) 0.44592(18) 0.6808(2)
H1_5 H 0.9633 0.4147 0.6929
C4_5 C 0.99350(17) 0.49382(16) 0.6821(2)
C8_5 C 0.9441(2) 0.4957(2) 0.6974(3)
O2_5 O 0.99518(18) 0.34974(15) 0.6746(2)
O4_5 O 0.90067(15) 0.45249(15) 0.6973(3)
O7_5 O 0.99063(15) 0.64581(18) 0.47576(19)
O30_4 O 0.92574(18) 0.71914(12) 0.37586(17)
H29_6 H 0.0245 0.5636 0.1394
C72_6 C 0.0037(3) 0.6439(2) 0.1357(2)
O22_6 O 0.03036(26) 0.4813(2) 0.1591(3)
O24_6 O 0.04333(19) 0.65519(13) 0.10690(15)
C1_6 C 0.3674(2) 0.05655(17) 0.3228(2)
C2_6 C 0.37062(17) 0.11017(16) 0.32847(18)
C3_6 C 0.32673(18) 0.11258(18) 0.3474(2)
H1_6 H 0.2967 0.0813 0.3595
C4_6 C 0.32684(17) 0.16048(16) 0.3487(2)
C5_6 C 0.37270(16) 0.20627(16) 0.3311(2)
H2_6 H 0.3734 0.2389 0.3327
C6_6 C 0.41725(15) 0.20581(15) 0.31140(18)
C7_6 C 0.41540(15) 0.15666(15) 0.31059(17)
H3_6 H 0.4450 0.1549 0.2977
C8_6 C 0.2775(2) 0.1623(2) 0.3640(3)
C9_6 C 0.46277(15) 0.25481(15) 0.28734(17)
C10_6 C 0.45258(15) 0.29128(15) 0.26186(17)
H4_6 H 0.4176 0.2851 0.2617
C11_6 C 0.49166(14) 0.33627(15) 0.23668(16)
C12_6 C 0.54376(14) 0.34590(14) 0.23753(16)
H5_6 H 0.5708 0.3763 0.2204
C13_6 C 0.55668(13) 0.31059(13) 0.26365(15)
C14_6 C 0.51610(14) 0.26583(14) 0.28840(16)
H6_6 H 0.5243 0.2422 0.3063
C15_6 C 0.61295(13) 0.32226(13) 0.26336(15)
C16_6 C 0.62493(13) 0.28087(13) 0.26331(15)
H7_6 H 0.5968 0.2454 0.2632
C17_6 C 0.47732(15) 0.37248(15) 0.20793(17)
C18_6 C 0.42774(16) 0.35296(17) 0.18458(19)
H8_6 H 0.4035 0.3162 0.1867
C19_6 C 0.41216(16) 0.38485(18) 0.1582(2)
C20_6 C 0.44661(19) 0.4386(2) 0.1567(2)
H9_6 H 0.4364 0.4608 0.1394
C21_6 C 0.49690(18) 0.46105(17) 0.1807(2)
C22_6 C 0.51169(16) 0.42820(16) 0.20628(18)
H10_6 H 0.5452 0.4431 0.2229
C23_6 C 0.5326(2) 0.5206(2) 0.1821(3)
C24_6 C 0.3561(2) 0.3597(2) 0.1357(2)
O2_6 O 0.32852(18) 0.01640(15) 0.3412(2)
O4_6 O 0.23401(15) 0.11915(15) 0.3639(3)
O6_6 O 0.5187(2) 0.54902(16) 0.1591(3)
O7_6 O 0.32397(15) 0.31247(18) 0.14242(19)
O8_6 O 0.34481(13) 0.38813(14) 0.10690(15)
C25_6 C 0.94345(17) 0.31081(26) 0.3228(2)
C26_6 C 0.88983(16) 0.26044(23) 0.32847(18)
C27_6 C 0.88742(18) 0.21414(25) 0.3474(2)
H11_6 H 0.9187 0.2153 0.3595
C28_6 C 0.83952(16) 0.16635(23) 0.3487(2)
C29_6 C 0.79373(16) 0.16642(23) 0.3311(2)
H12_6 H 0.7611 0.1344 0.3327
C30_6 C 0.79419(15) 0.21143(21) 0.31140(18)
C31_6 C 0.84334(15) 0.25873(21) 0.31059(17)
H13_6 H 0.8451 0.2900 0.2977
C32_6 C 0.8377(2) 0.1151(3) 0.3640(3)
C33_6 C 0.74519(15) 0.20795(21) 0.28734(17)
C34_6 C 0.70872(15) 0.16129(21) 0.26186(17)
H14_6 H 0.7149 0.1324 0.2617
C35_6 C 0.66373(15) 0.15538(21) 0.23668(16)
C36_6 C 0.65410(14) 0.19785(20) 0.23753(16)
H15_6 H 0.6237 0.1944 0.2204
C37_6 C 0.68941(13) 0.24608(18) 0.26365(15)
C38_6 C 0.73417(14) 0.25026(20) 0.28840(16)
H16_6 H 0.7578 0.2820 0.3063
C39_6 C 0.67774(13) 0.29068(18) 0.26336(15)
C40_6 C 0.71913(13) 0.34405(18) 0.26331(15)
H17_6 H 0.7546 0.3513 0.2632
C41_6 C 0.62752(15) 0.10483(21) 0.20793(17)
C42_6 C 0.64704(17) 0.07477(23) 0.18458(19)
H18_6 H 0.6838 0.0872 0.1867
C43_6 C 0.61515(18) 0.02730(24) 0.1582(2)
C44_6 C 0.5614(2) 0.00797(28) 0.1567(2)
C45_6 C 0.53895(17) 0.03584(25) 0.1807(2)
C46_6 C 0.57180(16) 0.08348(23) 0.20628(18)
H20_6 H 0.5569 0.1020 0.2229
C47_6 C 0.4794(2) 0.0119(3) 0.1821(3)
O10_6 O 0.98360(15) 0.31211(23) 0.3412(2)
O12_6 O 0.88085(15) 0.11485(21) 0.3639(3)
O15_6 O 0.68753(18) 0.01149(23) 0.14242(19)
C49_6 C 0.68919(26) 0.6326(2) 0.3228(2)
C50_6 C 0.73956(23) 0.62938(17) 0.32847(18)
C51_6 C 0.78586(25) 0.67327(18) 0.3474(2)
H21_6 H 0.7847 0.7033 0.3595
C52_6 C 0.83365(23) 0.67316(17) 0.3487(2)
C53_6 C 0.83358(23) 0.62730(16) 0.3311(2)
H22_6 H 0.8656 0.6266 0.3327
C54_6 C 0.78857(21) 0.58275(15) 0.31140(18)
C55_6 C 0.74127(21) 0.58460(15) 0.31059(17)
H23_6 H 0.7100 0.5550 0.2977
C56_6 C 0.8849(3) 0.7225(2) 0.3640(3)
C57_6 C 0.79205(21) 0.53723(15) 0.28734(17)
C58_6 C 0.83871(21) 0.54742(15) 0.26186(17)
H24_6 H 0.8676 0.5824 0.2617
C59_6 C 0.84462(21) 0.50834(14) 0.23668(16)
C60_6 C 0.80215(20) 0.45624(14) 0.23753(16)
H25_6 H 0.8056 0.4292 0.2204
C61_6 C 0.75392(18) 0.44332(13) 0.26365(15)
C62_6 C 0.74974(20) 0.48390(14) 0.28840(16)
H26_6 H 0.7180 0.4757 0.3063
C63_6 C 0.70932(18) 0.38705(13) 0.26336(15)
C64_6 C 0.65595(18) 0.37507(13) 0.26331(15)
H27_6 H 0.6487 0.4032 0.2632
C65_6 C 0.89517(21) 0.52268(15) 0.20793(17)
C66_6 C 0.92523(23) 0.57226(16) 0.18458(19)
H28_6 H 0.9128 0.5965 0.1867
C67_6 C 0.97270(24) 0.58784(16) 0.1582(2)
C68_6 C 0.99203(28) 0.55339(19) 0.1567(2)
C69_6 C 0.96416(25) 0.50310(18) 0.1807(2)
C70_6 C 0.91652(23) 0.48831(16) 0.20628(18)
H30_6 H 0.8980 0.4548 0.2229
C71_6 C 0.9881(3) 0.4674(2) 0.1821(3)
O18_6 O 0.68789(23) 0.67148(18) 0.3412(2)
O20_6 O 0.88515(21) 0.76599(15) 0.3639(3)
O23_6 O 0.98851(23) 0.67603(15) 0.14242(19)
H19_6 H 0.5392 0.9755 0.1394
C48_6 C 0.6403(2) 0.9963(3) 0.1357(2)
O14_6 O 0.45098(16) 0.96964(26) 0.1591(3)
O16_6 O 0.61187(14) 0.95667(19) 0.10690(15)
loop_
_geom_bond_atom_site_label_1
_geom_bond_atom_site_label_2
_geom_bond_site_symmetry_1
_geom_bond_site_symmetry_2
C1 C2 1_555 1_555
H2 C5 1_555 1_555
C6 C5 1_555 1_555
C7 C2 1_555 1_555
H3 C7 1_555 1_555
C9 C6 1_555 1_555
C10 C9 1_555 1_555
H4 C10 1_555 1_555
C14 C9 1_555 1_555
H6 C14 1_555 1_555
C15 C13 1_555 1_555
C16 C15 1_555 1_555
H7 C16 1_555 1_555
O1 C1 1_555 1_555
C36 C35 1_555 1_555
H15 C36 1_555 1_555
C41 C35 1_555 1_555
C42 C41 1_555 1_555
C43 C42 1_555 1_555
C44 C43 1_555 1_555
H19 C44 1_555 1_555
C45 C44 1_555 1_555
C46 C41 1_555 1_555
H20 C46 1_555 1_555
C47 C45 1_555 1_555
C48 C43 1_555 1_555
O13 C47 1_555 1_555
O14 C47 1_555 1_555
O16 C48 1_555 1_555
O28 Zn2 1_555 1_555
Zn7 O1 1_555 1_555
C6 C7 1_555 1_555
C13 C14 1_555 1_555
C45 C46 1_555 1_555
O13 Zn7 1_555 1_555
O16 Zn2 1_555 1_555
C3 H1 1_555 1_555
C4 C3 1_555 1_555
C8 C4 1_555 1_555
O3 C8 1_555 1_555
O4 C8 1_555 1_555
Zn5 O3 1_555 1_555
C12 C11 1_555 1_555
H5 C12 1_555 1_555
C17 C11 1_555 1_555
C18 C17 1_555 1_555
C19 C18 1_555 1_555
C20 C19 1_555 1_555
H9 C20 1_555 1_555
C21 C20 1_555 1_555
C22 C17 1_555 1_555
H10 C22 1_555 1_555
C23 C21 1_555 1_555
C24 C19 1_555 1_555
O5 C23 1_555 1_555
O6 C23 1_555 1_555
O8 C24 1_555 1_555
H27 C64 1_555 1_555
O30 Zn1 1_555 1_555
Zn9 O5 1_555 1_555
C21 C22 1_555 1_555
O8 Zn1 1_555 1_555
O17 Zn9 1_555 1_555
C25 C26 1_555 1_555
H12 C29 1_555 1_555
C30 C29 1_555 1_555
C31 C26 1_555 1_555
H13 C31 1_555 1_555
C33 C30 1_555 1_555
C34 C33 1_555 1_555
H14 C34 1_555 1_555
C38 C33 1_555 1_555
H16 C38 1_555 1_555
C30 C31 1_555 1_555
C37 C38 1_555 1_555
C37 C39 1_555 1_555
C27 H11 1_555 1_555
C28 C27 1_555 1_555
C32 C28 1_555 1_555
O11 C32 1_555 1_555
O12 C32 1_555 1_555
Zn6 O11 1_555 1_555
H17 C40 1_555 1_555
C49 C50 1_555 1_555
H22 C53 1_555 1_555
C54 C53 1_555 1_555
C55 C50 1_555 1_555
H23 C55 1_555 1_555
C57 C54 1_555 1_555
C58 C57 1_555 1_555
H24 C58 1_555 1_555
C59 C58 1_555 1_555
C60 C59 1_555 1_555
H25 C60 1_555 1_555
C61 C60 1_555 1_555
C62 C57 1_555 1_555
H26 C62 1_555 1_555
C63 C40 1_555 1_555
C65 C59 1_555 1_555
C66 C65 1_555 1_555
H28 C66 1_555 1_555
C67 C66 1_555 1_555
C68 C67 1_555 1_555
H29 C68 1_555 1_555
C69 C68 1_555 1_555
C70 C65 1_555 1_555
H30 C70 1_555 1_555
C71 C69 1_555 1_555
C72 C67 1_555 1_555
O21 C71 1_555 1_555
O22 C71 1_555 1_555
O23 C72 1_555 1_555
O24 C72 1_555 1_555
Zn3 O23 1_555 1_555
O27 Zn3 1_555 1_555
O29 Zn3 1_555 1_555
O31 Zn3 1_555 1_555
Zn8 O9 1_555 1_555
C54 C55 1_555 1_555
C61 C62 1_555 1_555
C61 C63 1_555 1_555
C69 C70 1_555 1_555
O21 Zn8 1_555 1_555
O24 Zn3 1_555 1_555
C51 H21 1_555 1_555
C52 C51 1_555 1_555
C56 C52 1_555 1_555
O19 C56 1_555 1_555
O20 C56 1_555 1_555
Zn4 O19 1_555 1_555
C3_2 H1_2 1_555 1_555
C4_2 C3_2 1_555 1_555
C8_2 C4_2 1_555 1_555
O28 C8_2 1_555 1_555
O4_2 C8_2 1_555 1_555
Zn1_2 O7_2 1_555 1_555
O25_2 Zn1_2 1_555 1_555
O30_2 Zn1_2 1_555 1_555
O32_2 Zn1_2 1_555 1_555
C1_2 C2_2 1_555 1_555
H2_2 C5_2 1_555 1_555
C6_2 C5_2 1_555 1_555
C7_2 C2_2 1_555 1_555
H3_2 C7_2 1_555 1_555
C9_2 C6_2 1_555 1_555
C10_2 C9_2 1_555 1_555
H4_2 C10_2 1_555 1_555
C11_2 C10_2 1_555 1_555
C12_2 C11_2 1_555 1_555
H5_2 C12_2 1_555 1_555
C13_2 C12_2 1_555 1_555
C14_2 C9_2 1_555 1_555
H6_2 C14_2 1_555 1_555
C15_2 C13_2 1_555 1_555
C16_2 C15_2 1_555 1_555
H7_2 C16_2 1_555 1_555
C17_2 C11_2 1_555 1_555
C18_2 C17_2 1_555 1_555
H8_2 C18_2 1_555 1_555
C19_2 C18_2 1_555 1_555
C20_2 C19_2 1_555 1_555
H9_2 C20_2 1_555 1_555
C21_2 C20_2 1_555 1_555
C22_2 C17_2 1_555 1_555
H10_2 C22_2 1_555 1_555
C23_2 C21_2 1_555 1_555
C24_2 C19_2 1_555 1_555
O1_2 C1_2 1_555 1_555
O5_2 C23_2 1_555 1_555
O6_2 C23_2 1_555 1_555
O8_2 C24_2 1_555 1_555
C25_2 C26_2 1_555 1_555
C26_2 C27_2 1_555 1_555
C27_2 H11_2 1_555 1_555
C28_2 C27_2 1_555 1_555
C29_2 C28_2 1_555 1_555
H12_2 C29_2 1_555 1_555
C30_2 C29_2 1_555 1_555
C31_2 C26_2 1_555 1_555
H13_2 C31_2 1_555 1_555
C32_2 C28_2 1_555 1_555
C33_2 C30_2 1_555 1_555
C34_2 C33_2 1_555 1_555
H14_2 C34_2 1_555 1_555
C35_2 C34_2 1_555 1_555
C36_2 C35_2 1_555 1_555
H15_2 C36_2 1_555 1_555
C37_2 C36_2 1_555 1_555
C38_2 C33_2 1_555 1_555
H16_2 C38_2 1_555 1_555
C39_2 C16_2 1_555 1_555
C40_2 C39_2 1_555 1_555
H17_2 C40_2 1_555 1_555
C41_2 C35_2 1_555 1_555
C42_2 C41_2 1_555 1_555
H18_2 C42_2 1_555 1_555
C43_2 C42_2 1_555 1_555
C44_2 C43_2 1_555 1_555
H19_2 C44_2 1_555 1_555
C45_2 C44_2 1_555 1_555
C46_2 C41_2 1_555 1_555
H20_2 C46_2 1_555 1_555
C47_2 C45_2 1_555 1_555
C48_2 C43_2 1_555 1_555
O9_2 C25_2 1_555 1_555
O10_2 C25_2 1_555 1_555
O29 C32_2 1_555 1_555
O12_2 C32_2 1_555 1_555
O13_2 C47_2 1_555 1_555
O14_2 C47_2 1_555 1_555
O15_2 C48_2 1_555 1_555
O16_2 C48_2 1_555 1_555
C49_2 C50_2 1_555 1_555
H22_2 C53_2 1_555 1_555
C54_2 C53_2 1_555 1_555
C55_2 C50_2 1_555 1_555
H23_2 C55_2 1_555 1_555
C57_2 C54_2 1_555 1_555
C58_2 C57_2 1_555 1_555
H24_2 C58_2 1_555 1_555
C59_2 C58_2 1_555 1_555
C60_2 C59_2 1_555 1_555
H25_2 C60_2 1_555 1_555
C61_2 C60_2 1_555 1_555
C62_2 C57_2 1_555 1_555
H26_2 C62_2 1_555 1_555
C63_2 C40_2 1_555 1_555
C64_2 C15_2 1_555 1_555
H27_2 C64_2 1_555 1_555
C65_2 C59_2 1_555 1_555
C66_2 C65_2 1_555 1_555
H28_2 C66_2 1_555 1_555
C67_2 C66_2 1_555 1_555
C68_2 C67_2 1_555 1_555
H29_2 C68_2 1_555 1_555
C69_2 C68_2 1_555 1_555
C70_2 C65_2 1_555 1_555
H30_2 C70_2 1_555 1_555
C71_2 C69_2 1_555 1_555
C72_2 C67_2 1_555 1_555
O17_2 C49_2 1_555 1_555
O21_2 C71_2 1_555 1_555
O22_2 C71_2 1_555 1_555
O24_2 C72_2 1_555 1_555
Zn2_2 O15_2 1_555 1_555
O26_2 Zn2_2 1_555 1_555
O28_2 Zn2_2 1_555 1_555
O33_2 Zn2_2 1_555 1_555
Zn7_2 O1_2 1_555 1_555
Zn8_2 O9_2 1_555 1_555
Zn9_2 O5_2 1_555 1_555
C6_2 C7_2 1_555 1_555
C13_2 C14_2 1_555 1_555
C21_2 C22_2 1_555 1_555
C30_2 C31_2 1_555 1_555
C37_2 C38_2 1_555 1_555
C37_2 C39_2 1_555 1_555
C45_2 C46_2 1_555 1_555
O13_2 Zn7_2 1_555 1_555
O16_2 Zn2_2 1_555 1_555
C54_2 C55_2 1_555 1_555
C61_2 C62_2 1_555 1_555
C61_2 C63_2 1_555 1_555
C63_2 C64_2 1_555 1_555
C69_2 C70_2 1_555 1_555
O17_2 Zn9_2 1_555 1_555
O21_2 Zn8_2 1_555 1_555
C51_2 H21_2 1_555 1_555
C52_2 C51_2 1_555 1_555
C56_2 C52_2 1_555 1_555
O30 C56_2 1_555 1_555
O20_2 C56_2 1_555 1_555
Zn3_2 O23_2 1_555 1_555
O27_2 Zn3_2 1_555 1_555
O29_2 Zn3_2 1_555 1_555
O31_2 Zn3_2 1_555 1_555
O16_3 C48_3 1_555 1_555
O26_3 Zn5 1_555 1_555
O33_3 Zn5 1_555 1_555
O16_3 Zn5 1_555 1_555
C1_3 C2_3 1_555 1_555
C2_3 C3_3 1_555 1_555
C3_3 H1_3 1_555 1_555
C4_3 C3_3 1_555 1_555
C5_3 C4_3 1_555 1_555
H2_3 C5_3 1_555 1_555
C6_3 C5_3 1_555 1_555
C7_3 C2_3 1_555 1_555
H3_3 C7_3 1_555 1_555
C8_3 C4_3 1_555 1_555
C9_3 C6_3 1_555 1_555
C10_3 C9_3 1_555 1_555
H4_3 C10_3 1_555 1_555
C11_3 C10_3 1_555 1_555
C12_3 C11_3 1_555 1_555
H5_3 C12_3 1_555 1_555
C13_3 C12_3 1_555 1_555
C14_3 C9_3 1_555 1_555
H6_3 C14_3 1_555 1_555
C15_3 C13_3 1_555 1_555
C16_3 C15_3 1_555 1_555
H7_3 C16_3 1_555 1_555
C17_3 C11_3 1_555 1_555
C18_3 C17_3 1_555 1_555
H8_3 C18_3 1_555 1_555
C19_3 C18_3 1_555 1_555
C20_3 C19_3 1_555 1_555
H9_3 C20_3 1_555 1_555
C21_3 C20_3 1_555 1_555
C22_3 C17_3 1_555 1_555
H10_3 C22_3 1_555 1_555
C23_3 C21_3 1_555 1_555
C24_3 C19_3 1_555 1_555
O1_3 C1_3 1_555 1_555
O2_3 C1_3 1_555 1_555
O28_2 C8_3 1_555 1_555
O4_3 C8_3 1_555 1_555
O5_3 C23_3 1_555 1_555
O6_3 C23_3 1_555 1_555
O7_3 C24_3 1_555 1_555
O8_3 C24_3 1_555 1_555
Zn4 O7_3 1_555 1_555
C25_3 C26_3 1_555 1_555
C26_3 C27_3 1_555 1_555
C27_3 H11_3 1_555 1_555
C28_3 C27_3 1_555 1_555
C29_3 C28_3 1_555 1_555
H12_3 C29_3 1_555 1_555
C30_3 C29_3 1_555 1_555
C31_3 C26_3 1_555 1_555
H13_3 C31_3 1_555 1_555
C32_3 C28_3 1_555 1_555
C33_3 C30_3 1_555 1_555
C34_3 C33_3 1_555 1_555
H14_3 C34_3 1_555 1_555
C35_3 C34_3 1_555 1_555
C36_3 C35_3 1_555 1_555
H15_3 C36_3 1_555 1_555
C37_3 C36_3 1_555 1_555
C38_3 C33_3 1_555 1_555
H16_3 C38_3 1_555 1_555
C39_3 C16_3 1_555 1_555
C40_3 C39_3 1_555 1_555
H17_3 C40_3 1_555 1_555
C41_3 C35_3 1_555 1_555
C42_3 C41_3 1_555 1_555
H18_3 C42_3 1_555 1_555
C43_3 C42_3 1_555 1_555
C44_3 C43_3 1_555 1_555
C45_3 C44_3 1_555 1_555
C46_3 C41_3 1_555 1_555
H20_3 C46_3 1_555 1_555
C47_3 C45_3 1_555 1_555
O9_3 C25_3 1_555 1_555
O10_3 C25_3 1_555 1_555
O29_2 C32_3 1_555 1_555
O12_3 C32_3 1_555 1_555
O13_3 C47_3 1_555 1_555
C49_3 C50_3 1_555 1_555
C50_3 C51_3 1_555 1_555
C51_3 H21_3 1_555 1_555
C52_3 C51_3 1_555 1_555
C53_3 C52_3 1_555 1_555
H22_3 C53_3 1_555 1_555
C54_3 C53_3 1_555 1_555
C55_3 C50_3 1_555 1_555
H23_3 C55_3 1_555 1_555
C56_3 C52_3 1_555 1_555
C57_3 C54_3 1_555 1_555
C58_3 C57_3 1_555 1_555
H24_3 C58_3 1_555 1_555
C59_3 C58_3 1_555 1_555
C60_3 C59_3 1_555 1_555
H25_3 C60_3 1_555 1_555
C61_3 C60_3 1_555 1_555
C62_3 C57_3 1_555 1_555
H26_3 C62_3 1_555 1_555
C63_3 C40_3 1_555 1_555
C64_3 C15_3 1_555 1_555
H27_3 C64_3 1_555 1_555
C65_3 C59_3 1_555 1_555
C66_3 C65_3 1_555 1_555
H28_3 C66_3 1_555 1_555
C67_3 C66_3 1_555 1_555
C68_3 C67_3 1_555 1_555
C69_3 C68_3 1_555 1_555
C70_3 C65_3 1_555 1_555
H30_3 C70_3 1_555 1_555
C71_3 C69_3 1_555 1_555
O17_3 C49_3 1_555 1_555
O18_3 C49_3 1_555 1_555
O30_2 C56_3 1_555 1_555
O20_3 C56_3 1_555 1_555
O21_3 C71_3 1_555 1_555
O25_3 Zn4 1_555 1_555
O32_3 Zn4 1_555 1_555
Zn9_3 O5_3 1_555 1_555
C6_3 C7_3 1_555 1_555
C13_3 C14_3 1_555 1_555
C21_3 C22_3 1_555 1_555
O8_3 Zn4 1_555 1_555
C30_3 C31_3 1_555 1_555
C37_3 C38_3 1_555 1_555
C37_3 C39_3 1_555 1_555
C45_3 C46_3 1_555 1_555
C54_3 C55_3 1_555 1_555
C61_3 C62_3 1_555 1_555
C61_3 C63_3 1_555 1_555
C63_3 C64_3 1_555 1_555
C69_3 C70_3 1_555 1_555
O17_3 Zn9_3 1_555 1_555
O24_3 C72_3 1_555 1_555
O27_3 Zn6 1_555 1_555
O31_3 Zn6 1_555 1_555
O24_3 Zn6 1_555 1_555
C51_4 H21_4 1_555 1_555
C52_4 C51_4 1_555 1_555
C56_4 C52_4 1_555 1_555
O19_2 C56_4 1_555 1_555
O20_4 C56_4 1_555 1_555
Zn7 O19_2 1_555 1_555
H17_4 C40_4 1_555 1_555
C49_4 C50_4 1_555 1_555
H22_4 C53_4 1_555 1_555
C54_4 C53_4 1_555 1_555
C55_4 C50_4 1_555 1_555
H23_4 C55_4 1_555 1_555
C57_4 C54_4 1_555 1_555
C58_4 C57_4 1_555 1_555
H24_4 C58_4 1_555 1_555
C59_4 C58_4 1_555 1_555
C60_4 C59_4 1_555 1_555
H25_4 C60_4 1_555 1_555
C61_4 C60_4 1_555 1_555
C62_4 C57_4 1_555 1_555
H26_4 C62_4 1_555 1_555
C63_4 C40_4 1_555 1_555
C65_4 C59_4 1_555 1_555
C66_4 C65_4 1_555 1_555
H28_4 C66_4 1_555 1_555
C67_4 C66_4 1_555 1_555
C68_4 C67_4 1_555 1_555
H29_4 C68_4 1_555 1_555
C69_4 C68_4 1_555 1_555
C70_4 C65_4 1_555 1_555
H30_4 C70_4 1_555 1_555
C71_4 C69_4 1_555 1_555
C72_4 C67_4 1_555 1_555
O33_3 C71_4 1_555 1_555
O22_4 C71_4 1_555 1_555
O23_4 C72_4 1_555 1_555
O24_4 C72_4 1_555 1_555
Zn9_3 O23_4 1_555 1_555
O29_3 Zn9_3 1_555 1_555
C54_4 C55_4 1_555 1_555
C61_4 C62_4 1_555 1_555
C61_4 C63_4 1_555 1_555
C69_4 C70_4 1_555 1_555
O24_4 Zn9_3 1_555 1_555
C27_4 H11_4 1_555 1_555
C28_4 C27_4 1_555 1_555
C32_4 C28_4 1_555 1_555
O11_2 C32_4 1_555 1_555
O12_4 C32_4 1_555 1_555
Zn9 O11_2 1_555 1_555
C25_4 C26_4 1_555 1_555
H12_4 C29_4 1_555 1_555
C30_4 C29_4 1_555 1_555
C31_4 C26_4 1_555 1_555
H13_4 C31_4 1_555 1_555
C33_4 C30_4 1_555 1_555
C34_4 C33_4 1_555 1_555
H14_4 C34_4 1_555 1_555
C38_4 C33_4 1_555 1_555
H16_4 C38_4 1_555 1_555
C30_4 C31_4 1_555 1_555
C37_4 C38_4 1_555 1_555
C37_4 C39_4 1_555 1_555
C12_4 C11_4 1_555 1_555
H5_4 C12_4 1_555 1_555
C17_4 C11_4 1_555 1_555
C18_4 C17_4 1_555 1_555
C19_4 C18_4 1_555 1_555
C20_4 C19_4 1_555 1_555
H9_4 C20_4 1_555 1_555
C21_4 C20_4 1_555 1_555
C22_4 C17_4 1_555 1_555
H10_4 C22_4 1_555 1_555
C23_4 C21_4 1_555 1_555
C24_4 C19_4 1_555 1_555
O31_3 C23_4 1_555 1_555
O6_4 C23_4 1_555 1_555
O8_4 C24_4 1_555 1_555
H27_4 C64_4 1_555 1_555
O30_3 Zn7_3 1_555 1_555
C21_4 C22_4 1_555 1_555
O8_4 Zn7_3 1_555 1_555
C3_4 H1_4 1_555 1_555
C4_4 C3_4 1_555 1_555
C8_4 C4_4 1_555 1_555
O3_2 C8_4 1_555 1_555
O4_4 C8_4 1_555 1_555
Zn8 O3_2 1_555 1_555
C1_4 C2_4 1_555 1_555
H2_4 C5_4 1_555 1_555
C6_4 C5_4 1_555 1_555
C7_4 C2_4 1_555 1_555
H3_4 C7_4 1_555 1_555
C9_4 C6_4 1_555 1_555
C10_4 C9_4 1_555 1_555
H4_4 C10_4 1_555 1_555
C14_4 C9_4 1_555 1_555
H6_4 C14_4 1_555 1_555
C15_4 C13_4 1_555 1_555
C16_4 C15_4 1_555 1_555
H7_4 C16_4 1_555 1_555
O25_3 C1_4 1_555 1_555
C36_4 C35_4 1_555 1_555
H15_4 C36_4 1_555 1_555
C41_4 C35_4 1_555 1_555
C42_4 C41_4 1_555 1_555
C43_4 C42_4 1_555 1_555
C44_4 C43_4 1_555 1_555
H19_4 C44_4 1_555 1_555
C45_4 C44_4 1_555 1_555
C46_4 C41_4 1_555 1_555
H20_4 C46_4 1_555 1_555
C47_4 C45_4 1_555 1_555
C48_4 C43_4 1_555 1_555
O32_3 C47_4 1_555 1_555
O14_4 C47_4 1_555 1_555
O16_4 C48_4 1_555 1_555
O28_3 Zn8_3 1_555 1_555
C6_4 C7_4 1_555 1_555
C13_4 C14_4 1_555 1_555
C45_4 C46_4 1_555 1_555
O16_4 Zn8_3 1_555 1_555
C51_5 H21_5 1_555 1_555
C52_5 C51_5 1_555 1_555
C56_5 C52_5 1_555 1_555
O30_3 C56_5 1_555 1_555
O20_5 C56_5 1_555 1_555
Zn9_2 O23_5 1_555 1_555
O29_4 Zn9_2 1_555 1_555
C1_5 C2_5 1_555 1_555
H2_5 C5_5 1_555 1_555
C6_5 C5_5 1_555 1_555
C7_5 C2_5 1_555 1_555
H3_5 C7_5 1_555 1_555
C9_5 C6_5 1_555 1_555
C10_5 C9_5 1_555 1_555
H4_5 C10_5 1_555 1_555
C11_5 C10_5 1_555 1_555
C12_5 C11_5 1_555 1_555
H5_5 C12_5 1_555 1_555
C13_5 C12_5 1_555 1_555
C14_5 C9_5 1_555 1_555
H6_5 C14_5 1_555 1_555
C15_5 C13_5 1_555 1_555
C16_5 C15_5 1_555 1_555
H7_5 C16_5 1_555 1_555
C17_5 C11_5 1_555 1_555
C18_5 C17_5 1_555 1_555
H8_5 C18_5 1_555 1_555
C19_5 C18_5 1_555 1_555
C20_5 C19_5 1_555 1_555
H9_5 C20_5 1_555 1_555
C21_5 C20_5 1_555 1_555
C22_5 C17_5 1_555 1_555
H10_5 C22_5 1_555 1_555
C23_5 C21_5 1_555 1_555
C24_5 C19_5 1_555 1_555
O25_2 C1_5 1_555 1_555
O31_2 C23_5 1_555 1_555
O6_5 C23_5 1_555 1_555
O8_5 C24_5 1_555 1_555
C25_5 C26_5 1_555 1_555
C26_5 C27_5 1_555 1_555
C27_5 H11_5 1_555 1_555
C28_5 C27_5 1_555 1_555
C29_5 C28_5 1_555 1_555
H12_5 C29_5 1_555 1_555
C30_5 C29_5 1_555 1_555
C31_5 C26_5 1_555 1_555
H13_5 C31_5 1_555 1_555
C32_5 C28_5 1_555 1_555
C33_5 C30_5 1_555 1_555
C34_5 C33_5 1_555 1_555
H14_5 C34_5 1_555 1_555
C35_5 C34_5 1_555 1_555
C36_5 C35_5 1_555 1_555
H15_5 C36_5 1_555 1_555
C37_5 C36_5 1_555 1_555
C38_5 C33_5 1_555 1_555
H16_5 C38_5 1_555 1_555
C39_5 C16_5 1_555 1_555
C40_5 C39_5 1_555 1_555
H17_5 C40_5 1_555 1_555
C41_5 C35_5 1_555 1_555
C42_5 C41_5 1_555 1_555
H18_5 C42_5 1_555 1_555
C43_5 C42_5 1_555 1_555
C44_5 C43_5 1_555 1_555
H19_5 C44_5 1_555 1_555
C45_5 C44_5 1_555 1_555
C46_5 C41_5 1_555 1_555
H20_5 C46_5 1_555 1_555
C47_5 C45_5 1_555 1_555
C48_5 C43_5 1_555 1_555
O26_2 C25_5 1_555 1_555
O10_5 C25_5 1_555 1_555
O29_3 C32_5 1_555 1_555
O12_5 C32_5 1_555 1_555
O32_2 C47_5 1_555 1_555
O14_5 C47_5 1_555 1_555
O15_5 C48_5 1_555 1_555
O16_5 C48_5 1_555 1_555
C49_5 C50_5 1_555 1_555
H22_5 C53_5 1_555 1_555
C54_5 C53_5 1_555 1_555
C55_5 C50_5 1_555 1_555
H23_5 C55_5 1_555 1_555
C57_5 C54_5 1_555 1_555
C58_5 C57_5 1_555 1_555
H24_5 C58_5 1_555 1_555
C59_5 C58_5 1_555 1_555
C60_5 C59_5 1_555 1_555
H25_5 C60_5 1_555 1_555
C61_5 C60_5 1_555 1_555
C62_5 C57_5 1_555 1_555
H26_5 C62_5 1_555 1_555
C63_5 C40_5 1_555 1_555
C64_5 C15_5 1_555 1_555
H27_5 C64_5 1_555 1_555
C65_5 C59_5 1_555 1_555
C66_5 C65_5 1_555 1_555
H28_5 C66_5 1_555 1_555
C67_5 C66_5 1_555 1_555
C68_5 C67_5 1_555 1_555
H29_5 C68_5 1_555 1_555
C69_5 C68_5 1_555 1_555
C70_5 C65_5 1_555 1_555
H30_5 C70_5 1_555 1_555
C71_5 C69_5 1_555 1_555
C72_5 C67_5 1_555 1_555
O27_2 C49_5 1_555 1_555
O33_2 C71_5 1_555 1_555
O22_5 C71_5 1_555 1_555
O24_5 C72_5 1_555 1_555
Zn8_2 O15_5 1_555 1_555
O28_4 Zn8_2 1_555 1_555
C6_5 C7_5 1_555 1_555
C13_5 C14_5 1_555 1_555
C21_5 C22_5 1_555 1_555
C30_5 C31_5 1_555 1_555
C37_5 C38_5 1_555 1_555
C37_5 C39_5 1_555 1_555
C45_5 C46_5 1_555 1_555
O16_5 Zn8_2 1_555 1_555
C54_5 C55_5 1_555 1_555
C61_5 C62_5 1_555 1_555
C61_5 C63_5 1_555 1_555
C63_5 C64_5 1_555 1_555
C69_5 C70_5 1_555 1_555
C3_5 H1_5 1_555 1_555
C4_5 C3_5 1_555 1_555
C8_5 C4_5 1_555 1_555
O28_3 C8_5 1_555 1_555
O4_5 C8_5 1_555 1_555
Zn7_2 O7_5 1_555 1_555
O30_4 Zn7_2 1_555 1_555
O24_6 C72_6 1_555 1_555
O24_6 Zn9 1_555 1_555
C1_6 C2_6 1_555 1_555
C2_6 C3_6 1_555 1_555
C3_6 H1_6 1_555 1_555
C4_6 C3_6 1_555 1_555
C5_6 C4_6 1_555 1_555
H2_6 C5_6 1_555 1_555
C6_6 C5_6 1_555 1_555
C7_6 C2_6 1_555 1_555
H3_6 C7_6 1_555 1_555
C8_6 C4_6 1_555 1_555
C9_6 C6_6 1_555 1_555
C10_6 C9_6 1_555 1_555
H4_6 C10_6 1_555 1_555
C11_6 C10_6 1_555 1_555
C12_6 C11_6 1_555 1_555
H5_6 C12_6 1_555 1_555
C13_6 C12_6 1_555 1_555
C14_6 C9_6 1_555 1_555
H6_6 C14_6 1_555 1_555
C15_6 C13_6 1_555 1_555
C16_6 C15_6 1_555 1_555
H7_6 C16_6 1_555 1_555
C17_6 C11_6 1_555 1_555
C18_6 C17_6 1_555 1_555
H8_6 C18_6 1_555 1_555
C19_6 C18_6 1_555 1_555
C20_6 C19_6 1_555 1_555
H9_6 C20_6 1_555 1_555
C21_6 C20_6 1_555 1_555
C22_6 C17_6 1_555 1_555
H10_6 C22_6 1_555 1_555
C23_6 C21_6 1_555 1_555
C24_6 C19_6 1_555 1_555
O25 C1_6 1_555 1_555
O2_6 C1_6 1_555 1_555
O28_4 C8_6 1_555 1_555
O4_6 C8_6 1_555 1_555
O31 C23_6 1_555 1_555
O6_6 C23_6 1_555 1_555
O7_6 C24_6 1_555 1_555
O8_6 C24_6 1_555 1_555
Zn7 O7_6 1_555 1_555
C25_6 C26_6 1_555 1_555
C26_6 C27_6 1_555 1_555
C27_6 H11_6 1_555 1_555
C28_6 C27_6 1_555 1_555
C29_6 C28_6 1_555 1_555
H12_6 C29_6 1_555 1_555
C30_6 C29_6 1_555 1_555
C31_6 C26_6 1_555 1_555
H13_6 C31_6 1_555 1_555
C32_6 C28_6 1_555 1_555
C33_6 C30_6 1_555 1_555
C34_6 C33_6 1_555 1_555
H14_6 C34_6 1_555 1_555
C35_6 C34_6 1_555 1_555
C36_6 C35_6 1_555 1_555
H15_6 C36_6 1_555 1_555
C37_6 C36_6 1_555 1_555
C38_6 C33_6 1_555 1_555
H16_6 C38_6 1_555 1_555
C39_6 C16_6 1_555 1_555
C40_6 C39_6 1_555 1_555
H17_6 C40_6 1_555 1_555
C41_6 C35_6 1_555 1_555
C42_6 C41_6 1_555 1_555
H18_6 C42_6 1_555 1_555
C43_6 C42_6 1_555 1_555
C44_6 C43_6 1_555 1_555
C45_6 C44_6 1_555 1_555
C46_6 C41_6 1_555 1_555
H20_6 C46_6 1_555 1_555
C47_6 C45_6 1_555 1_555
O26 C25_6 1_555 1_555
O10_6 C25_6 1_555 1_555
O29_4 C32_6 1_555 1_555
O12_6 C32_6 1_555 1_555
O32 C47_6 1_555 1_555
C49_6 C50_6 1_555 1_555
C50_6 C51_6 1_555 1_555
C51_6 H21_6 1_555 1_555
C52_6 C51_6 1_555 1_555
C53_6 C52_6 1_555 1_555
H22_6 C53_6 1_555 1_555
C54_6 C53_6 1_555 1_555
C55_6 C50_6 1_555 1_555
H23_6 C55_6 1_555 1_555
C56_6 C52_6 1_555 1_555
C57_6 C54_6 1_555 1_555
C58_6 C57_6 1_555 1_555
H24_6 C58_6 1_555 1_555
C59_6 C58_6 1_555 1_555
C60_6 C59_6 1_555 1_555
H25_6 C60_6 1_555 1_555
C61_6 C60_6 1_555 1_555
C62_6 C57_6 1_555 1_555
H26_6 C62_6 1_555 1_555
C63_6 C40_6 1_555 1_555
C64_6 C15_6 1_555 1_555
H27_6 C64_6 1_555 1_555
C65_6 C59_6 1_555 1_555
C66_6 C65_6 1_555 1_555
H28_6 C66_6 1_555 1_555
C67_6 C66_6 1_555 1_555
C68_6 C67_6 1_555 1_555
C69_6 C68_6 1_555 1_555
C70_6 C65_6 1_555 1_555
H30_6 C70_6 1_555 1_555
C71_6 C69_6 1_555 1_555
O27 C49_6 1_555 1_555
O18_6 C49_6 1_555 1_555
O30_4 C56_6 1_555 1_555
O20_6 C56_6 1_555 1_555
O33 C71_6 1_555 1_555
C6_6 C7_6 1_555 1_555
C13_6 C14_6 1_555 1_555
C21_6 C22_6 1_555 1_555
O8_6 Zn7 1_555 1_555
C30_6 C31_6 1_555 1_555
C37_6 C38_6 1_555 1_555
C37_6 C39_6 1_555 1_555
C45_6 C46_6 1_555 1_555
C54_6 C55_6 1_555 1_555
C61_6 C62_6 1_555 1_555
C61_6 C63_6 1_555 1_555
C63_6 C64_6 1_555 1_555
C69_6 C70_6 1_555 1_555
O16_6 C48_6 1_555 1_555
O16_6 Zn8 1_555 1_555

#END
