
###############################################################################
#
# This file contains modified crystal structure data generated from the
# MOF subset of the Cambridge Structural Database (CSD) v543 
# hosted by the Cambridge Crystallographic Data Centre (CCDC).
#
# This work is licensed under the Creative Commons
# Attribution-NonCommercial-ShareAlike 4.0 International License.
# To view a copy of this license, visit
# http://creativecommons.org/licenses/by-nc-sa/4.0/
# or send a letter to
# Creative Commons, PO Box 1866, Mountain View, CA 94042, USA.
#
# CIF created using the CSD Python API on 29 September 2022
# The structure has been converted into the P1 space group
# The structure has a 3D framework
# The original CSD entry YOVPEG is in the monoclinic crystal system
# The framework has been calculated to contain at least 10.0% void space
# The void calculation uses a probe of radius 1.32A, grid spacing 0.4
#
###############################################################################

data_YOVPEG
_chemical_formula_moiety         '(C188 H128 Co4 N22 O20)n'
_symmetry_cell_setting           triclinic
_symmetry_space_group_name_H-M   'P 1'
_symmetry_Int_Tables_number      1
_space_group_name_Hall           'P 1'
loop_
_symmetry_equiv_pos_site_id
_symmetry_equiv_pos_as_xyz
1 x,y,z
_cell_length_a                   14.867(3)
_cell_length_b                   32.323(6)
_cell_length_c                   9.1792(18)
_cell_angle_alpha                90
_cell_angle_beta                 104.26(3)
_cell_angle_gamma                90
_cell_volume                     4275.12
loop_
_atom_site_label
_atom_site_type_symbol
_atom_site_fract_x
_atom_site_fract_y
_atom_site_fract_z
C19 C 0.0080(7) 0.2302(3) 0.6953(11)
H13 H 0.0171 0.2908 0.6465
C22 C 0.0785(7) 0.1802(3) 0.5512(12)
H15 H 0.0323 0.1603 0.5413
C23 C 0.1990(8) 0.2125(3) 0.5312(13)
H16 H 0.2541 0.2189 0.5057
C24 C 0.1555(7) 0.2378(3) 0.6099(13)
H17 H 0.1738 0.2641 0.6458
N3 N 0.1518(6) 0.1768(2) 0.4948(9)
N4 N 0.0793(6) 0.2165(3) 0.6255(9)
Co3 Co 0.19346(10) 0.12484(4) 0.38181(16)
C1 C 0.3241(8) 0.1675(3) 0.2090(12)
H1 H 0.3688 0.1734 0.2969
C2 C 0.1973(8) 0.1489(3) 0.0548(13)
H2 H 0.1371 0.1392 0.0173
C4 C 0.4152(8) 0.1924(3) 0.0343(12)
C8 C 0.5786(7) 0.2041(3) 0.0938(12)
H6 H 0.6376 0.1981 0.1526
C9 C 0.5035(8) 0.1821(3) 0.1177(11)
H7 H 0.5121 0.1609 0.1881
C11 C 0.6435(7) 0.3025(3) 0.0060(11)
H8 H 0.5933 0.3118 0.0408
C25 C 0.7121(8) 0.3739(3) 0.0367(10)
C26 C 0.7955(7) 0.3939(3) 0.1091(11)
H18 H 0.8513 0.3794 0.1316
C27 C 0.7936(7) 0.4355(3) 0.1464(11)
H19 H 0.8488 0.4487 0.1931
C28 C 0.7111(8) 0.4579(3) 0.1155(12)
C29 C 0.6291(8) 0.4374(3) 0.0510(12)
H20 H 0.5729 0.4515 0.0337
C30 C 0.6304(7) 0.3961(3) 0.0122(11)
C31 C 0.7735(8) 0.5290(3) 0.1387(12)
H22 H 0.8246 0.5232 0.1008
C32 C 0.6729(9) 0.5597(3) 0.2277(14)
H23 H 0.6411 0.5803 0.2652
C33 C 0.6462(9) 0.5200(3) 0.2103(15)
H24 H 0.5938 0.5083 0.2319
C34 C 0.0253(9) 0.1003(4) 0.2883(16)
N1 N 0.2414(6) 0.1527(2) 0.2054(10)
N2 N 0.3360(6) 0.1733(2) 0.0696(10)
N5 N 0.7544(6) 0.5660(2) 0.1821(10)
N6 N 0.7109(6) 0.5004(2) 0.1551(10)
O1 O 0.0688(5) 0.0871(2) 0.4171(9)
O2 O 0.0613(5) 0.1237(3) 0.2134(9)
Co4 Co 0.80654(10) 0.62484(4) 0.11819(16)
N8 N 0.2456(6) 0.0660(2) 0.3179(10)
O6 O 0.2964(6) 0.1147(2) 0.5688(9)
H26 H 0.7633 0.0856 0.9160
C41 C 0.5864(8) 0.0750(4) 0.9490(13)
C42 C 0.5950(8) 0.1148(3) 0.9093(13)
H29 H 0.6470 0.1299 0.9574
C43 C 0.5265(9) 0.1334(3) 0.7967(14)
H30 H 0.5330 0.1609 0.7713
C44 C 0.4478(9) 0.1111(4) 0.7215(14)
C45 C 0.4403(9) 0.0701(4) 0.7630(15)
H31 H 0.3888 0.0545 0.7158
C46 C 0.5114(8) 0.0519(4) 0.8777(14)
H32 H 0.5069 0.0243 0.9041
C47 C 0.3751(9) 0.1321(4) 0.5950(15)
O4 O 0.4009(7) 0.1627(3) 0.5342(10)
C31_2 C 0.2265(8) 0.0290(3) 0.3613(12)
H22_2 H 0.1754 0.0232 0.3992
C32_2 C 0.3271(9) 0.0597(3) 0.2723(14)
H23_2 H 0.3589 0.0803 0.2348
C33_2 C 0.3538(9) 0.0200(3) 0.2897(15)
H24_2 H 0.4062 0.0083 0.2681
N6_2 N 0.2891(6) 0.0004(2) 0.3449(10)
C1_2 C 0.6759(8) 0.6675(3) 0.2910(12)
H1_2 H 0.6312 0.6734 0.2031
C2_2 C 0.8027(8) 0.6489(3) 0.4452(13)
H2_2 H 0.8629 0.6392 0.4827
C3 C 0.7442(8) 0.6614(3) 0.5302(13)
H3 H 0.7564 0.6618 0.6345
C4_2 C 0.5848(8) 0.6924(3) 0.4657(12)
C5 C 0.5969(8) 0.7211(3) 0.5790(13)
H4 H 0.6558 0.7267 0.6391
C6 C 0.5203(8) 0.7415(3) 0.6021(13)
H5 H 0.5286 0.7607 0.6798
C7 C 0.4312(8) 0.7347(3) 0.5144(12)
C8_2 C 0.4214(7) 0.7041(3) 0.4062(12)
H6_2 H 0.3624 0.6981 0.3474
C9_2 C 0.4965(8) 0.6821(3) 0.3823(11)
H7_2 H 0.4879 0.6609 0.3119
C10 C 0.3512(7) 0.7609(3) 0.5324(11)
C11_2 C 0.3565(7) 0.8025(3) 0.4940(11)
H8_2 H 0.4067 0.8118 0.4592
C12 C 0.2872(7) 0.8303(3) 0.5073(11)
C13 C 0.2149(7) 0.8147(3) 0.5644(11)
H9 H 0.1684 0.8328 0.5750
C14 C 0.2086(7) 0.7732(3) 0.6066(11)
C15 C 0.2790(7) 0.7466(3) 0.5871(11)
H10 H 0.2769 0.7188 0.6117
C16 C 0.1337(7) 0.7583(3) 0.6751(11)
C17 C 0.1080(7) 0.7165(3) 0.6724(11)
H11 H 0.1401 0.6973 0.6288
C18 C 0.0362(7) 0.7025(3) 0.7325(10)
H12 H 0.0185 0.6749 0.7240
C20 C 0.0147(7) 0.7719(3) 0.8081(11)
C21 C 0.0844(7) 0.7855(3) 0.7441(11)
H14 H 0.0988 0.8135 0.7472
C25_2 C 0.2879(8) 0.8739(3) 0.4633(10)
C26_2 C 0.2045(7) 0.8939(3) 0.3909(11)
H18_2 H 0.1487 0.8794 0.3684
C27_2 C 0.2064(7) 0.9355(3) 0.3536(11)
H19_2 H 0.1512 0.9487 0.3069
C28_2 C 0.2889(8) 0.9579(3) 0.3845(12)
C29_2 C 0.3709(8) 0.9374(3) 0.4490(12)
H20_2 H 0.4271 0.9515 0.4663
C30_2 C 0.3696(7) 0.8961(3) 0.4878(11)
H21 H 0.4253 0.8829 0.5316
C34_2 C 0.9747(9) 0.6003(4) 0.2117(16)
N1_2 N 0.7586(6) 0.6527(2) 0.2946(10)
N2_2 N 0.6640(6) 0.6733(2) 0.4304(10)
O1_2 O 0.9312(5) 0.5871(2) 0.0829(9)
O2_2 O 0.9387(5) 0.6237(3) 0.2866(9)
N7 N 0.8482(6) 0.6768(2) 0.0052(9)
C3_2 C 0.2558(8) 0.1614(3) 0.9698(13)
H3_2 H 0.2436 0.1618 0.8655
C5_2 C 0.4031(8) 0.2211(3) 0.9210(13)
H4_2 H 0.3442 0.2267 0.8609
C6_2 C 0.4797(8) 0.2415(3) 0.8979(13)
H5_2 H 0.4714 0.2607 0.8202
C7_2 C 0.5688(8) 0.2347(3) 0.9856(12)
C10_2 C 0.6488(7) 0.2609(3) 0.9676(11)
C12_2 C 0.7128(7) 0.3303(3) 0.9927(11)
C13_2 C 0.7851(7) 0.3147(3) 0.9356(11)
H9_2 H 0.8316 0.3328 0.9250
C14_2 C 0.7914(7) 0.2732(3) 0.8934(11)
C15_2 C 0.7210(7) 0.2466(3) 0.9129(11)
H10_2 H 0.7231 0.2188 0.8883
C16_2 C 0.8663(7) 0.2583(3) 0.8249(11)
C17_2 C 0.8920(7) 0.2165(3) 0.8276(11)
H11_2 H 0.8599 0.1973 0.8712
C18_2 C 0.9638(7) 0.2025(3) 0.7675(10)
H12_2 H 0.9815 0.1749 0.7760
C20_2 C 0.9853(7) 0.2719(3) 0.6919(11)
C21_2 C 0.9156(7) 0.2855(3) 0.7559(11)
H14_2 H 0.9012 0.3135 0.7528
H21_2 H 0.5747 0.3829 0.9684
C35 C 0.9253(8) 0.0891(3) 0.2241(13)
C36 C 0.8830(8) 0.0936(3) 0.0730(13)
H25 H 0.9165 0.1040 0.0079
C37 C 0.7902(9) 0.0826(4) 0.0182(13)
C38 C 0.7373(8) 0.0676(4) 0.1072(14)
C39 C 0.7775(8) 0.0639(3) 0.2585(15)
H27 H 0.7416 0.0558 0.3233
C40 C 0.8734(9) 0.0724(3) 0.3167(13)
H28 H 0.9015 0.0667 0.4169
O3 O 0.6485(5) 0.0546(2) 0.0618(9)
C35_2 C 0.0747(8) 0.5891(3) 0.2759(13)
C36_2 C 0.1170(8) 0.5936(3) 0.4270(13)
H25_2 H 0.0835 0.6040 0.4921
C37_2 C 0.2098(9) 0.5826(4) 0.4818(13)
H26_2 H 0.2367 0.5856 0.5840
C38_2 C 0.2627(8) 0.5676(4) 0.3928(14)
C39_2 C 0.2225(8) 0.5639(3) 0.2415(15)
H27_2 H 0.2584 0.5558 0.1767
C40_2 C 0.1266(9) 0.5724(3) 0.1833(13)
H28_2 H 0.0985 0.5667 0.0831
C41_2 C 0.4136(8) 0.5750(4) 0.5510(13)
C42_2 C 0.4050(8) 0.6148(3) 0.5907(13)
H29_2 H 0.3530 0.6299 0.5426
C43_2 C 0.4735(9) 0.6334(3) 0.7033(14)
H30_2 H 0.4670 0.6609 0.7287
C44_2 C 0.5522(9) 0.6111(4) 0.7785(14)
C45_2 C 0.5597(9) 0.5701(4) 0.7370(15)
H31_2 H 0.6112 0.5545 0.7842
C46_2 C 0.4886(8) 0.5519(4) 0.6223(14)
H32_2 H 0.4931 0.5243 0.5959
C47_2 C 0.6249(9) 0.6321(4) 0.9050(15)
O3_2 O 0.3515(5) 0.5546(2) 0.4382(9)
O4_2 O 0.5991(7) 0.6627(3) 0.9658(10)
O5 O 0.7036(6) 0.6147(2) 0.9312(9)
C19_2 C 0.9920(7) 0.7302(3) 0.8047(11)
H13_2 H 0.9829 0.7908 0.8535
C22_2 C 0.9215(7) 0.6802(3) 0.9488(12)
H15_2 H 0.9677 0.6603 0.9587
C23_2 C 0.8010(8) 0.7125(3) 0.9688(13)
H16_2 H 0.7459 0.7189 0.9943
C24_2 C 0.8445(7) 0.7378(3) 0.8901(13)
H17_2 H 0.8262 0.7641 0.8542
N4_2 N 0.9207(6) 0.7165(3) 0.8745(9)
H26_3 H 0.2367 0.9144 0.0840
C41_3 C 0.4136(8) 0.9250(4) 0.0510(13)
C42_3 C 0.4050(8) 0.8852(3) 0.0907(13)
H29_3 H 0.3530 0.8701 0.0426
C43_3 C 0.4735(9) 0.8666(3) 0.2033(14)
H30_3 H 0.4670 0.8391 0.2287
C44_3 C 0.5522(9) 0.8889(4) 0.2785(14)
C45_3 C 0.5597(9) 0.9299(4) 0.2370(15)
H31_3 H 0.6112 0.9455 0.2842
C46_3 C 0.4886(8) 0.9481(4) 0.1223(14)
H32_3 H 0.4931 0.9757 0.0959
C47_3 C 0.6249(9) 0.8679(4) 0.4050(15)
O4_3 O 0.5991(7) 0.8373(3) 0.4658(10)
O5_2 O 0.7036(6) 0.8853(2) 0.4312(9)
Co2 Co 0.80654(10) 0.87516(4) 0.61819(16)
C1_3 C 0.6759(8) 0.8325(3) 0.7910(12)
H1_3 H 0.6312 0.8266 0.7031
C2_3 C 0.8027(8) 0.8511(3) 0.9452(13)
H2_3 H 0.8629 0.8608 0.9827
C4_3 C 0.5848(8) 0.8076(3) 0.9657(12)
C8_3 C 0.4214(7) 0.7959(3) 0.9062(12)
H6_3 H 0.3624 0.8019 0.8474
C9_3 C 0.4965(8) 0.8179(3) 0.8823(11)
H7_3 H 0.4879 0.8391 0.8119
C11_3 C 0.3565(7) 0.6975(3) 0.9940(11)
H8_3 H 0.4067 0.6882 0.9592
C25_3 C 0.2879(8) 0.6261(3) 0.9633(10)
C26_3 C 0.2045(7) 0.6061(3) 0.8909(11)
H18_3 H 0.1487 0.6206 0.8684
C27_3 C 0.2064(7) 0.5645(3) 0.8536(11)
H19_3 H 0.1512 0.5513 0.8069
C28_3 C 0.2889(8) 0.5421(3) 0.8845(12)
C29_3 C 0.3709(8) 0.5626(3) 0.9490(12)
H20_3 H 0.4271 0.5485 0.9663
C30_3 C 0.3696(7) 0.6039(3) 0.9878(11)
C31_3 C 0.2265(8) 0.4710(3) 0.8613(12)
H22_3 H 0.1754 0.4768 0.8992
C32_3 C 0.3271(9) 0.4403(3) 0.7723(14)
H23_3 H 0.3589 0.4197 0.7348
C33_3 C 0.3538(9) 0.4800(3) 0.7897(15)
H24_3 H 0.4062 0.4917 0.7681
C34_3 C 0.9747(9) 0.8997(4) 0.7117(16)
N1_3 N 0.7586(6) 0.8473(2) 0.7946(10)
N2_3 N 0.6640(6) 0.8267(2) 0.9304(10)
N5_2 N 0.2456(6) 0.4340(2) 0.8179(10)
N6_3 N 0.2891(6) 0.4996(2) 0.8449(10)
O1_3 O 0.9312(5) 0.9129(2) 0.5829(9)
O2_3 O 0.9387(5) 0.8763(3) 0.7866(9)
Co4_2 Co 0.19346(10) 0.37516(4) 0.88181(16)
N7_2 N 0.8482(6) 0.8232(2) 0.5052(9)
N8_2 N 0.7544(6) 0.9340(2) 0.6821(10)
C19_3 C 0.9920(7) 0.7698(3) 0.3047(11)
H13_3 H 0.9829 0.7092 0.3535
C22_3 C 0.9215(7) 0.8198(3) 0.4488(12)
H15_3 H 0.9677 0.8397 0.4587
C23_3 C 0.8010(8) 0.7875(3) 0.4688(13)
H16_3 H 0.7459 0.7811 0.4943
C24_3 C 0.8445(7) 0.7622(3) 0.3901(13)
H17_3 H 0.8262 0.7359 0.3542
N4_3 N 0.9207(6) 0.7835(3) 0.3745(9)
N3_2 N 0.1518(6) 0.3232(2) 0.9948(9)
C1_4 C 0.3241(8) 0.3325(3) 0.7090(12)
H1_4 H 0.3688 0.3266 0.7969
C2_4 C 0.1973(8) 0.3511(3) 0.5548(13)
H2_4 H 0.1371 0.3608 0.5173
C3_3 C 0.2558(8) 0.3386(3) 0.4698(13)
H3_3 H 0.2436 0.3382 0.3655
C4_4 C 0.4152(8) 0.3076(3) 0.5343(12)
C5_3 C 0.4031(8) 0.2789(3) 0.4210(13)
H4_3 H 0.3442 0.2733 0.3609
C6_3 C 0.4797(8) 0.2585(3) 0.3979(13)
H5_3 H 0.4714 0.2393 0.3202
C7_3 C 0.5688(8) 0.2653(3) 0.4856(12)
C8_4 C 0.5786(7) 0.2959(3) 0.5938(12)
H6_4 H 0.6376 0.3019 0.6526
C9_4 C 0.5035(8) 0.3179(3) 0.6177(11)
H7_4 H 0.5121 0.3391 0.6881
C10_3 C 0.6488(7) 0.2391(3) 0.4676(11)
C11_4 C 0.6435(7) 0.1975(3) 0.5060(11)
H8_4 H 0.5933 0.1882 0.5408
C12_3 C 0.7128(7) 0.1697(3) 0.4927(11)
C13_3 C 0.7851(7) 0.1853(3) 0.4356(11)
H9_3 H 0.8316 0.1672 0.4250
C14_3 C 0.7914(7) 0.2268(3) 0.3934(11)
C15_3 C 0.7210(7) 0.2534(3) 0.4129(11)
H10_3 H 0.7231 0.2812 0.3883
C16_3 C 0.8663(7) 0.2417(3) 0.3249(11)
C17_3 C 0.8920(7) 0.2835(3) 0.3276(11)
H11_3 H 0.8599 0.3027 0.3712
C18_3 C 0.9638(7) 0.2975(3) 0.2675(10)
H12_3 H 0.9815 0.3251 0.2760
C20_3 C 0.9853(7) 0.2281(3) 0.1919(11)
C21_3 C 0.9156(7) 0.2145(3) 0.2559(11)
H14_3 H 0.9012 0.1865 0.2528
C25_4 C 0.7121(8) 0.1261(3) 0.5367(10)
C26_4 C 0.7955(7) 0.1061(3) 0.6091(11)
H18_4 H 0.8513 0.1206 0.6316
C27_4 C 0.7936(7) 0.0645(3) 0.6464(11)
H19_4 H 0.8488 0.0513 0.6931
C28_4 C 0.7111(8) 0.0421(3) 0.6155(12)
C29_4 C 0.6291(8) 0.0626(3) 0.5510(12)
H20_4 H 0.5729 0.0485 0.5337
C30_4 C 0.6304(7) 0.1039(3) 0.5122(11)
H21_3 H 0.5747 0.1171 0.4684
C34_4 C 0.0253(9) 0.3997(4) 0.7883(16)
N1_4 N 0.2414(6) 0.3473(2) 0.7054(10)
N2_4 N 0.3360(6) 0.3267(2) 0.5696(10)
O1_4 O 0.0688(5) 0.4129(2) 0.9171(9)
O2_4 O 0.0613(5) 0.3763(3) 0.7134(9)
C31_4 C 0.7735(8) 0.9710(3) 0.6387(12)
H22_4 H 0.8246 0.9768 0.6008
C32_4 C 0.6729(9) 0.9403(3) 0.7277(14)
H23_4 H 0.6411 0.9197 0.7652
C33_4 C 0.6462(9) 0.9800(3) 0.7103(15)
H24_4 H 0.5938 0.9917 0.7319
N6_4 N 0.7109(6) 0.9996(2) 0.6551(10)
C35_3 C 0.0747(8) 0.9109(3) 0.7759(13)
C36_3 C 0.1170(8) 0.9064(3) 0.9270(13)
H25_3 H 0.0835 0.8960 0.9921
C37_3 C 0.2098(9) 0.9174(4) 0.9818(13)
C38_3 C 0.2627(8) 0.9324(4) 0.8928(14)
C39_3 C 0.2225(8) 0.9361(3) 0.7415(15)
H27_3 H 0.2584 0.9442 0.6767
C40_3 C 0.1266(9) 0.9276(3) 0.6833(13)
H28_3 H 0.0985 0.9333 0.5831
O3_3 O 0.3515(5) 0.9454(2) 0.9382(9)
C3_4 C 0.7442(8) 0.8386(3) 0.0302(13)
H3_4 H 0.7564 0.8382 0.1345
C5_4 C 0.5969(8) 0.7789(3) 0.0790(13)
H4_4 H 0.6558 0.7733 0.1391
C6_4 C 0.5203(8) 0.7585(3) 0.1021(13)
H5_4 H 0.5286 0.7393 0.1798
C7_4 C 0.4312(8) 0.7653(3) 0.0144(12)
C10_4 C 0.3512(7) 0.7391(3) 0.0324(11)
C12_4 C 0.2872(7) 0.6697(3) 0.0073(11)
C13_4 C 0.2149(7) 0.6853(3) 0.0644(11)
H9_4 H 0.1684 0.6672 0.0750
C14_4 C 0.2086(7) 0.7268(3) 0.1066(11)
C15_4 C 0.2790(7) 0.7534(3) 0.0871(11)
H10_4 H 0.2769 0.7812 0.1117
C16_4 C 0.1337(7) 0.7417(3) 0.1751(11)
C17_4 C 0.1080(7) 0.7835(3) 0.1724(11)
H11_4 H 0.1401 0.8027 0.1288
C18_4 C 0.0362(7) 0.7975(3) 0.2325(10)
H12_4 H 0.0185 0.8251 0.2240
C20_4 C 0.0147(7) 0.7281(3) 0.3081(11)
C21_4 C 0.0844(7) 0.7145(3) 0.2441(11)
H14_4 H 0.0988 0.6865 0.2472
H21_4 H 0.4253 0.6171 0.0316
C19_4 C 0.0080(7) 0.2698(3) 0.1953(11)
H13_4 H 0.0171 0.2092 0.1465
C22_4 C 0.0785(7) 0.3198(3) 0.0512(12)
H15_4 H 0.0323 0.3397 0.0413
C23_4 C 0.1990(8) 0.2875(3) 0.0312(13)
H16_4 H 0.2541 0.2811 0.0057
C24_4 C 0.1555(7) 0.2622(3) 0.1099(13)
H17_4 H 0.1738 0.2359 0.1458
N4_4 N 0.0793(6) 0.2835(3) 0.1255(9)
O6_2 O 0.2964(6) 0.3853(2) 0.0688(9)
C35_4 C 0.9253(8) 0.4109(3) 0.7241(13)
C36_4 C 0.8830(8) 0.4064(3) 0.5730(13)
H25_4 H 0.9165 0.3960 0.5079
C37_4 C 0.7902(9) 0.4174(4) 0.5182(13)
H26_4 H 0.7633 0.4144 0.4160
C38_4 C 0.7373(8) 0.4324(4) 0.6072(14)
C39_4 C 0.7775(8) 0.4361(3) 0.7585(15)
H27_4 H 0.7416 0.4442 0.8233
C40_4 C 0.8734(9) 0.4276(3) 0.8167(13)
H28_4 H 0.9015 0.4333 0.9169
C41_4 C 0.5864(8) 0.4250(4) 0.4490(13)
C42_4 C 0.5950(8) 0.3852(3) 0.4093(13)
H29_4 H 0.6470 0.3701 0.4574
C43_4 C 0.5265(9) 0.3666(3) 0.2967(14)
H30_4 H 0.5330 0.3391 0.2713
C44_4 C 0.4478(9) 0.3889(4) 0.2215(14)
C45_4 C 0.4403(9) 0.4299(4) 0.2630(15)
H31_4 H 0.3888 0.4455 0.2158
C46_4 C 0.5114(8) 0.4481(4) 0.3777(14)
H32_4 H 0.5069 0.4757 0.4041
C47_4 C 0.3751(9) 0.3679(4) 0.0950(15)
O3_4 O 0.6485(5) 0.4454(2) 0.5618(9)
O4_4 O 0.4009(7) 0.3373(3) 0.0342(10)
loop_
_geom_bond_atom_site_label_1
_geom_bond_atom_site_label_2
_geom_bond_site_symmetry_1
_geom_bond_site_symmetry_2
C22 H15 1_555 1_555
C23 H16 1_555 1_555
C24 C23 1_555 1_555
H17 C24 1_555 1_555
N3 C22 1_555 1_555
N4 C19 1_555 1_555
Co3 N3 1_555 1_555
C22 N4 1_555 1_555
C23 N3 1_555 1_555
C24 N4 1_555 1_555
Co3 N1 1_555 1_555
C1 H1 1_555 1_555
C2 H2 1_555 1_555
H6 C8 1_555 1_555
C9 C4 1_555 1_555
H7 C9 1_555 1_555
H8 C11 1_555 1_555
C26 C25 1_555 1_555
H18 C26 1_555 1_555
C27 C26 1_555 1_555
H19 C27 1_555 1_555
C28 C27 1_555 1_555
C29 C28 1_555 1_555
H20 C29 1_555 1_555
C30 C25 1_555 1_555
C31 H22 1_555 1_555
C32 H23 1_555 1_555
C33 C32 1_555 1_555
H24 C33 1_555 1_555
N1 C1 1_555 1_555
N2 C1 1_555 1_555
N5 C31 1_555 1_555
N6 C28 1_555 1_555
O1 Co3 1_555 1_555
O2 Co3 1_555 1_555
Co4 N5 1_555 1_555
N8 Co3 1_555 1_555
O6 Co3 1_555 1_555
C2 N1 1_555 1_555
C4 N2 1_555 1_555
C8 C9 1_555 1_555
C29 C30 1_555 1_555
C31 N6 1_555 1_555
C32 N5 1_555 1_555
C33 N6 1_555 1_555
C34 O1 1_555 1_555
C34 O2 1_555 1_555
C41 C42 1_555 1_555
C42 H29 1_555 1_555
C43 C42 1_555 1_555
H30 C43 1_555 1_555
C44 C43 1_555 1_555
C45 C44 1_555 1_555
H31 C45 1_555 1_555
C46 C41 1_555 1_555
H32 C46 1_555 1_555
C47 C44 1_555 1_555
O4 C47 1_555 1_555
O6 C47 1_555 1_555
C45 C46 1_555 1_555
C31_2 H22_2 1_555 1_555
C32_2 H23_2 1_555 1_555
C33_2 C32_2 1_555 1_555
H24_2 C33_2 1_555 1_555
N8 C31_2 1_555 1_555
C31_2 N6_2 1_555 1_555
C32_2 N8 1_555 1_555
C33_2 N6_2 1_555 1_555
Co4 N1_2 1_555 1_555
C1_2 H1_2 1_555 1_555
C2_2 H2_2 1_555 1_555
C3 C2_2 1_555 1_555
H3 C3 1_555 1_555
C4_2 C5 1_555 1_555
C5 H4 1_555 1_555
C6 C5 1_555 1_555
H5 C6 1_555 1_555
C7 C6 1_555 1_555
C8_2 C7 1_555 1_555
H6_2 C8_2 1_555 1_555
C9_2 C4_2 1_555 1_555
H7_2 C9_2 1_555 1_555
C10 C7 1_555 1_555
C11_2 C10 1_555 1_555
H8_2 C11_2 1_555 1_555
C12 C11_2 1_555 1_555
C13 C12 1_555 1_555
H9 C13 1_555 1_555
C14 C13 1_555 1_555
C15 C10 1_555 1_555
H10 C15 1_555 1_555
C16 C14 1_555 1_555
C17 C16 1_555 1_555
H11 C17 1_555 1_555
C18 C17 1_555 1_555
H12 C18 1_555 1_555
C21 C16 1_555 1_555
H14 C21 1_555 1_555
C25_2 C12 1_555 1_555
C26_2 C25_2 1_555 1_555
H18_2 C26_2 1_555 1_555
C27_2 C26_2 1_555 1_555
H19_2 C27_2 1_555 1_555
C28_2 C27_2 1_555 1_555
C29_2 C28_2 1_555 1_555
H20_2 C29_2 1_555 1_555
C30_2 C25_2 1_555 1_555
H21 C30_2 1_555 1_555
N1_2 C1_2 1_555 1_555
N2_2 C1_2 1_555 1_555
O1_2 Co4 1_555 1_555
O2_2 Co4 1_555 1_555
N7 Co4 1_555 1_555
C2_2 N1_2 1_555 1_555
C3 N2_2 1_555 1_555
C4_2 N2_2 1_555 1_555
C8_2 C9_2 1_555 1_555
C14 C15 1_555 1_555
C20 C21 1_555 1_555
C29_2 C30_2 1_555 1_555
C34_2 O1_2 1_555 1_555
C34_2 O2_2 1_555 1_555
H3_2 C3_2 1_555 1_555
C5_2 H4_2 1_555 1_555
C6_2 C5_2 1_555 1_555
H5_2 C6_2 1_555 1_555
C7_2 C6_2 1_555 1_555
C10_2 C7_2 1_555 1_555
C13_2 C12_2 1_555 1_555
H9_2 C13_2 1_555 1_555
C14_2 C13_2 1_555 1_555
C15_2 C10_2 1_555 1_555
H10_2 C15_2 1_555 1_555
C16_2 C14_2 1_555 1_555
C17_2 C16_2 1_555 1_555
H11_2 C17_2 1_555 1_555
C18_2 C17_2 1_555 1_555
H12_2 C18_2 1_555 1_555
C21_2 C16_2 1_555 1_555
H14_2 C21_2 1_555 1_555
C14_2 C15_2 1_555 1_555
C20_2 C21_2 1_555 1_555
C35 C36 1_555 1_555
C36 H25 1_555 1_555
C37 C36 1_555 1_555
C38 C37 1_555 1_555
C39 C38 1_555 1_555
H27 C39 1_555 1_555
C40 C35 1_555 1_555
H28 C40 1_555 1_555
O3 C38 1_555 1_555
C39 C40 1_555 1_555
C35_2 C36_2 1_555 1_555
C36_2 H25_2 1_555 1_555
C37_2 C36_2 1_555 1_555
H26_2 C37_2 1_555 1_555
C38_2 C37_2 1_555 1_555
C39_2 C38_2 1_555 1_555
H27_2 C39_2 1_555 1_555
C40_2 C35_2 1_555 1_555
H28_2 C40_2 1_555 1_555
C41_2 C42_2 1_555 1_555
C42_2 H29_2 1_555 1_555
C43_2 C42_2 1_555 1_555
H30_2 C43_2 1_555 1_555
C44_2 C43_2 1_555 1_555
C45_2 C44_2 1_555 1_555
H31_2 C45_2 1_555 1_555
C46_2 C41_2 1_555 1_555
H32_2 C46_2 1_555 1_555
C47_2 C44_2 1_555 1_555
O3_2 C38_2 1_555 1_555
O4_2 C47_2 1_555 1_555
O5 C47_2 1_555 1_555
C39_2 C40_2 1_555 1_555
C41_2 O3_2 1_555 1_555
C45_2 C46_2 1_555 1_555
C22_2 H15_2 1_555 1_555
C23_2 H16_2 1_555 1_555
C24_2 C23_2 1_555 1_555
H17_2 C24_2 1_555 1_555
N4_2 C19_2 1_555 1_555
C22_2 N4_2 1_555 1_555
C24_2 N4_2 1_555 1_555
C41_3 C42_3 1_555 1_555
C42_3 H29_3 1_555 1_555
C43_3 C42_3 1_555 1_555
H30_3 C43_3 1_555 1_555
C44_3 C43_3 1_555 1_555
C45_3 C44_3 1_555 1_555
H31_3 C45_3 1_555 1_555
C46_3 C41_3 1_555 1_555
H32_3 C46_3 1_555 1_555
C47_3 C44_3 1_555 1_555
O4_3 C47_3 1_555 1_555
O5_2 C47_3 1_555 1_555
Co2 O5_2 1_555 1_555
C45_3 C46_3 1_555 1_555
Co2 N1_3 1_555 1_555
C1_3 H1_3 1_555 1_555
C2_3 H2_3 1_555 1_555
H6_3 C8_3 1_555 1_555
C9_3 C4_3 1_555 1_555
H7_3 C9_3 1_555 1_555
H8_3 C11_3 1_555 1_555
C26_3 C25_3 1_555 1_555
H18_3 C26_3 1_555 1_555
C27_3 C26_3 1_555 1_555
H19_3 C27_3 1_555 1_555
C28_3 C27_3 1_555 1_555
C29_3 C28_3 1_555 1_555
H20_3 C29_3 1_555 1_555
C30_3 C25_3 1_555 1_555
C31_3 H22_3 1_555 1_555
C32_3 H23_3 1_555 1_555
C33_3 C32_3 1_555 1_555
H24_3 C33_3 1_555 1_555
N1_3 C1_3 1_555 1_555
N2_3 C1_3 1_555 1_555
N5_2 C31_3 1_555 1_555
N6_3 C28_3 1_555 1_555
O1_3 Co2 1_555 1_555
O2_3 Co2 1_555 1_555
Co4_2 N5_2 1_555 1_555
N7_2 Co2 1_555 1_555
N8_2 Co2 1_555 1_555
C2_3 N1_3 1_555 1_555
C4_3 N2_3 1_555 1_555
C8_3 C9_3 1_555 1_555
C29_3 C30_3 1_555 1_555
C31_3 N6_3 1_555 1_555
C32_3 N5_2 1_555 1_555
C33_3 N6_3 1_555 1_555
C34_3 O1_3 1_555 1_555
C34_3 O2_3 1_555 1_555
C22_3 H15_3 1_555 1_555
C23_3 H16_3 1_555 1_555
C24_3 C23_3 1_555 1_555
H17_3 C24_3 1_555 1_555
N7_2 C22_3 1_555 1_555
N4_3 C19_3 1_555 1_555
C22_3 N4_3 1_555 1_555
C23_3 N7_2 1_555 1_555
C24_3 N4_3 1_555 1_555
Co4_2 N3_2 1_555 1_555
Co4_2 N1_4 1_555 1_555
C1_4 H1_4 1_555 1_555
C2_4 H2_4 1_555 1_555
C3_3 C2_4 1_555 1_555
H3_3 C3_3 1_555 1_555
C4_4 C5_3 1_555 1_555
C5_3 H4_3 1_555 1_555
C6_3 C5_3 1_555 1_555
H5_3 C6_3 1_555 1_555
C7_3 C6_3 1_555 1_555
C8_4 C7_3 1_555 1_555
H6_4 C8_4 1_555 1_555
C9_4 C4_4 1_555 1_555
H7_4 C9_4 1_555 1_555
C10_3 C7_3 1_555 1_555
C11_4 C10_3 1_555 1_555
H8_4 C11_4 1_555 1_555
C12_3 C11_4 1_555 1_555
C13_3 C12_3 1_555 1_555
H9_3 C13_3 1_555 1_555
C14_3 C13_3 1_555 1_555
C15_3 C10_3 1_555 1_555
H10_3 C15_3 1_555 1_555
C16_3 C14_3 1_555 1_555
C17_3 C16_3 1_555 1_555
H11_3 C17_3 1_555 1_555
C18_3 C17_3 1_555 1_555
H12_3 C18_3 1_555 1_555
C21_3 C16_3 1_555 1_555
H14_3 C21_3 1_555 1_555
C25_4 C12_3 1_555 1_555
C26_4 C25_4 1_555 1_555
H18_4 C26_4 1_555 1_555
C27_4 C26_4 1_555 1_555
H19_4 C27_4 1_555 1_555
C28_4 C27_4 1_555 1_555
C29_4 C28_4 1_555 1_555
H20_4 C29_4 1_555 1_555
C30_4 C25_4 1_555 1_555
H21_3 C30_4 1_555 1_555
N1_4 C1_4 1_555 1_555
N2_4 C1_4 1_555 1_555
O1_4 Co4_2 1_555 1_555
O2_4 Co4_2 1_555 1_555
C2_4 N1_4 1_555 1_555
C3_3 N2_4 1_555 1_555
C4_4 N2_4 1_555 1_555
C8_4 C9_4 1_555 1_555
C14_3 C15_3 1_555 1_555
C20_3 C21_3 1_555 1_555
C29_4 C30_4 1_555 1_555
C34_4 O1_4 1_555 1_555
C34_4 O2_4 1_555 1_555
C31_4 H22_4 1_555 1_555
C32_4 H23_4 1_555 1_555
C33_4 C32_4 1_555 1_555
H24_4 C33_4 1_555 1_555
N8_2 C31_4 1_555 1_555
C31_4 N6_4 1_555 1_555
C32_4 N8_2 1_555 1_555
C33_4 N6_4 1_555 1_555
C35_3 C36_3 1_555 1_555
C36_3 H25_3 1_555 1_555
C37_3 C36_3 1_555 1_555
C38_3 C37_3 1_555 1_555
C39_3 C38_3 1_555 1_555
H27_3 C39_3 1_555 1_555
C40_3 C35_3 1_555 1_555
H28_3 C40_3 1_555 1_555
O3_3 C38_3 1_555 1_555
C39_3 C40_3 1_555 1_555
H3_4 C3_4 1_555 1_555
C5_4 H4_4 1_555 1_555
C6_4 C5_4 1_555 1_555
H5_4 C6_4 1_555 1_555
C7_4 C6_4 1_555 1_555
C10_4 C7_4 1_555 1_555
C13_4 C12_4 1_555 1_555
H9_4 C13_4 1_555 1_555
C14_4 C13_4 1_555 1_555
C15_4 C10_4 1_555 1_555
H10_4 C15_4 1_555 1_555
C16_4 C14_4 1_555 1_555
C17_4 C16_4 1_555 1_555
H11_4 C17_4 1_555 1_555
C18_4 C17_4 1_555 1_555
H12_4 C18_4 1_555 1_555
C21_4 C16_4 1_555 1_555
H14_4 C21_4 1_555 1_555
C14_4 C15_4 1_555 1_555
C20_4 C21_4 1_555 1_555
C22_4 H15_4 1_555 1_555
C23_4 H16_4 1_555 1_555
C24_4 C23_4 1_555 1_555
H17_4 C24_4 1_555 1_555
N4_4 C19_4 1_555 1_555
C22_4 N4_4 1_555 1_555
C24_4 N4_4 1_555 1_555
C35_4 C36_4 1_555 1_555
C36_4 H25_4 1_555 1_555
C37_4 C36_4 1_555 1_555
H26_4 C37_4 1_555 1_555
C38_4 C37_4 1_555 1_555
C39_4 C38_4 1_555 1_555
H27_4 C39_4 1_555 1_555
C40_4 C35_4 1_555 1_555
H28_4 C40_4 1_555 1_555
C41_4 C42_4 1_555 1_555
C42_4 H29_4 1_555 1_555
C43_4 C42_4 1_555 1_555
H30_4 C43_4 1_555 1_555
C44_4 C43_4 1_555 1_555
C45_4 C44_4 1_555 1_555
H31_4 C45_4 1_555 1_555
C46_4 C41_4 1_555 1_555
H32_4 C46_4 1_555 1_555
C47_4 C44_4 1_555 1_555
O3_4 C38_4 1_555 1_555
O4_4 C47_4 1_555 1_555
O6_2 C47_4 1_555 1_555
C39_4 C40_4 1_555 1_555
C41_4 O3_4 1_555 1_555
C45_4 C46_4 1_555 1_555

#END
