
###############################################################################
#
# This file contains modified crystal structure data generated from the
# MOF subset of the Cambridge Structural Database (CSD) v543 
# hosted by the Cambridge Crystallographic Data Centre (CCDC).
#
# This work is licensed under the Creative Commons
# Attribution-NonCommercial-ShareAlike 4.0 International License.
# To view a copy of this license, visit
# http://creativecommons.org/licenses/by-nc-sa/4.0/
# or send a letter to
# Creative Commons, PO Box 1866, Mountain View, CA 94042, USA.
#
# CIF created using the CSD Python API on 29 September 2022
# The structure has been converted into the P1 space group
# The structure has a 3D framework
# The original CSD entry YOVTOS is in the rhombohedral crystal system
# The framework has been calculated to contain at least 10.0% void space
# The void calculation uses a probe of radius 1.32A, grid spacing 0.4
#
###############################################################################

data_YOVTOS
_chemical_formula_moiety         '(C360 H216 N72 Zn11)n'
_symmetry_cell_setting           triclinic
_symmetry_space_group_name_H-M   'P 1'
_symmetry_Int_Tables_number      1
_space_group_name_Hall           'P 1'
loop_
_symmetry_equiv_pos_site_id
_symmetry_equiv_pos_as_xyz
1 x,y,z
_cell_length_a                   33.145(3)
_cell_length_b                   33.145(3)
_cell_length_c                   9.374(3)
_cell_angle_alpha                90
_cell_angle_beta                 90
_cell_angle_gamma                120
_cell_volume                     8918.5
loop_
_atom_site_label
_atom_site_type_symbol
_atom_site_fract_x
_atom_site_fract_y
_atom_site_fract_z
C18 C 0.5686(2) 0.1773(2) 0.0302(9)
N4 N 0.5692(2) 0.1623(2) 0.1628(6)
C19 C 0.5562(2) 0.1176(2) 0.1774(6)
C20 C 0.5426(2) 0.0866(2) 0.0659(5)
H10 H 0.5760 0.2067 0.0136
H11 H 0.5562 0.1042 0.2637
H12 H 0.5329 0.0540 0.0805
N1 N 0.5592(1) 0.0582(1) 0.5724(3)
C1 C 0.5810(1) 0.0262(1) 0.2915(4)
C2 C 0.6120(1) 0.0626(1) 0.3801(4)
C3 C 0.6021(1) 0.0769(1) 0.5091(4)
C4 C 0.6364(1) 0.1138(2) 0.5990(5)
C5 C 0.6134(1) 0.1163(2) 0.7154(5)
C6 C 0.5649(1) 0.0810(1) 0.6995(4)
C7 C 0.5301(1) 0.0709(1) 0.8011(4)
C10 C 0.5931(1) 0.0098(2) 0.1643(5)
C11 C 0.6624(1) 0.0873(1) 0.3362(4)
C12 C 0.6796(2) 0.1217(2) 0.2338(5)
C13 C 0.7262(2) 0.1443(2) 0.2008(5)
N3 N 0.7565(1) 0.1348(1) 0.2617(4)
C14 C 0.7401(1) 0.1016(2) 0.3590(5)
C15 C 0.6938(1) 0.0772(2) 0.3999(5)
C16 C 0.5429(1) 0.1025(1) 0.9277(4)
C17 C 0.5561(2) 0.1490(2) 0.9094(6)
Zn1 Zn 0.5000 0.0000 0.5000
H1 H 0.6683 0.1332 0.5634
H2 H 0.6263 0.1372 0.7870
H4 H 0.6217 0.0252 0.1203
H5 H 0.6611 0.1277 0.1847
H6 H 0.7373 0.1652 0.1259
H7 H 0.7635 0.0942 0.3894
H8 H 0.6835 0.0528 0.4692
H9 H 0.5548 0.1628 0.8204
C21 C 0.4837(1) 0.0341(1) 0.7913(4)
Zn2 Zn 0.8333 0.1667 0.1667
N6 N 0.4662(1) 0.0008(1) 0.6858(3)
N8 N 0.4681(1) 0.0450(1) 0.4050(4)
C26 C 0.4462(2) 0.0269(2) 0.8859(5)
H13 H 0.4500 0.0437 0.9493
N2 N 0.5338(1) 0.9992(1) 0.3142(3)
C8 C 0.5163(1) 0.9659(1) 0.2087(4)
C9 C 0.5538(2) 0.9731(2) 0.1141(5)
Zn1_2 Zn 0.5000 1.0000 0.5000
H3 H 0.5500 0.9563 0.0507
C22 C 0.4699(1) 0.9291(1) 0.1989(4)
N5 N 0.4408(1) 0.9418(1) 0.4276(3)
N7 N 0.5319(1) 0.9550(1) 0.5950(4)
C23 C 0.4351(1) 0.9190(1) 0.3005(4)
C24 C 0.4571(1) 0.8975(1) 0.0723(4)
C25 C 0.4190(1) 0.9738(1) 0.7085(4)
C27 C 0.3866(1) 0.8837(2) 0.2846(5)
C28 C 0.4439(2) 0.8510(2) 0.0906(6)
C30 C 0.3880(1) 0.9374(1) 0.6199(4)
C31 C 0.4069(1) 0.9902(2) 0.8357(5)
C32 C 0.3636(1) 0.8862(2) 0.4010(5)
H14 H 0.3737 0.8628 0.2130
H15 H 0.4452 0.8372 0.1796
C35 C 0.3979(1) 0.9231(1) 0.4909(4)
C36 C 0.3376(1) 0.9127(1) 0.6638(4)
H17 H 0.3783 0.9748 0.8797
H18 H 0.3317 0.8668 0.4366
C37 C 0.3204(2) 0.8783(2) 0.7662(5)
C38 C 0.3062(1) 0.9228(2) 0.6001(5)
C39 C 0.2738(2) 0.8557(2) 0.7992(5)
H21 H 0.3389 0.8723 0.8153
C40 C 0.2599(1) 0.8984(2) 0.6410(5)
H22 H 0.3165 0.9472 0.5308
N10 N 0.2435(1) 0.8652(1) 0.7383(4)
H23 H 0.2627 0.8348 0.8741
H24 H 0.2365 0.9058 0.6106
Zn3 Zn 0.1667 0.8333 0.8333
N2_2 N 0.0008(1) 0.5346(1) 0.3142(3)
C8_2 C 0.0341(1) 0.5504(1) 0.2087(4)
C9_2 C 0.0269(2) 0.5807(3) 0.1141(5)
Zn1_3 Zn 0.0000 0.5000 0.5000
H3_2 H 0.0437 0.5937 0.0507
C22_2 C 0.0709(1) 0.5408(1) 0.1989(4)
N5_2 N 0.0582(1) 0.4990(1) 0.4276(3)
N7_2 N 0.0450(1) 0.5768(1) 0.5950(4)
C23_2 C 0.0810(1) 0.5161(1) 0.3005(4)
C24_2 C 0.1025(1) 0.5596(1) 0.0723(4)
C25_2 C 0.0262(1) 0.4452(1) 0.7085(4)
C27_2 C 0.1163(2) 0.5029(2) 0.2846(5)
C28_2 C 0.1490(2) 0.5929(3) 0.0906(6)
C30_2 C 0.0626(1) 0.4506(1) 0.6199(4)
C31_2 C 0.0098(2) 0.4167(2) 0.8357(5)
C32_2 C 0.1138(2) 0.4774(2) 0.4010(5)
H14_2 H 0.1372 0.5109 0.2130
H15_2 H 0.1628 0.6080 0.1796
C35_2 C 0.0769(1) 0.4748(1) 0.4909(4)
C36_2 C 0.0873(1) 0.4249(1) 0.6638(4)
H17_2 H 0.0252 0.4035 0.8797
H18_2 H 0.1332 0.4649 0.4366
C37_2 C 0.1217(2) 0.4421(3) 0.7662(5)
C38_2 C 0.0772(2) 0.3834(2) 0.6001(5)
C39_2 C 0.1443(2) 0.4181(3) 0.7992(5)
H21_2 H 0.1277 0.4666 0.8153
C40_2 C 0.1016(2) 0.3615(2) 0.6410(5)
H22_2 H 0.0528 0.3693 0.5308
N10_2 N 0.1348(1) 0.3783(1) 0.7383(4)
H23_2 H 0.1652 0.4279 0.8741
H24_2 H 0.0942 0.3307 0.6106
Zn3_2 Zn 0.1667 0.3333 0.8333
N1_2 N 0.9418(1) 0.5010(1) 0.5724(3)
C1_2 C 0.9738(1) 0.5548(1) 0.2915(4)
C2_2 C 0.9374(1) 0.5494(1) 0.3801(4)
C3_2 C 0.9231(1) 0.5252(1) 0.5091(4)
C4_2 C 0.8862(2) 0.5226(2) 0.5990(5)
C5_2 C 0.8837(2) 0.4971(2) 0.7154(5)
C6_2 C 0.9190(1) 0.4839(1) 0.6995(4)
C7_2 C 0.9291(1) 0.4592(1) 0.8011(4)
C10_2 C 0.9902(2) 0.5833(2) 0.1643(5)
C11_2 C 0.9127(1) 0.5751(1) 0.3362(4)
C12_2 C 0.8783(2) 0.5579(3) 0.2338(5)
C13_2 C 0.8557(2) 0.5819(3) 0.2008(5)
N3_2 N 0.8652(1) 0.6217(1) 0.2617(4)
C14_2 C 0.8984(2) 0.6385(2) 0.3590(5)
C15_2 C 0.9228(2) 0.6166(2) 0.3999(5)
C16_2 C 0.8975(1) 0.4404(1) 0.9277(4)
C17_2 C 0.8510(2) 0.4071(3) 0.9094(6)
Zn1_4 Zn 1.0000 0.5000 0.5000
H1_2 H 0.8668 0.5351 0.5634
H2_2 H 0.8628 0.4891 0.7870
H4_2 H 0.9748 0.5965 0.1203
H5_2 H 0.8723 0.5334 0.1847
H6_2 H 0.8348 0.5721 0.1259
H7_2 H 0.9058 0.6693 0.3894
H8_2 H 0.9472 0.6307 0.4692
H9_2 H 0.8372 0.3920 0.8204
C21_2 C 0.9659(1) 0.4496(1) 0.7913(4)
Zn2_2 Zn 0.8333 0.6667 0.1667
N6_2 N 0.9992(1) 0.4654(1) 0.6858(3)
N8_2 N 0.9550(1) 0.4232(1) 0.4050(4)
C26_2 C 0.9731(2) 0.4193(3) 0.8859(5)
H13_2 H 0.9563 0.4063 0.9493
N1_3 N 0.4990(1) 0.4408(1) 0.5724(3)
N2_3 N 0.4654(1) 0.4662(1) 0.3142(3)
C1_3 C 0.4452(1) 0.4190(1) 0.2915(4)
C2_3 C 0.4506(1) 0.3880(1) 0.3801(4)
C3_3 C 0.4748(1) 0.3979(1) 0.5091(4)
C4_3 C 0.4774(2) 0.3636(1) 0.5990(5)
C5_3 C 0.5029(2) 0.3866(1) 0.7154(5)
C6_3 C 0.5161(1) 0.4351(1) 0.6995(4)
C7_3 C 0.5408(1) 0.4699(1) 0.8011(4)
C8_3 C 0.4496(1) 0.4837(1) 0.2087(4)
C9_3 C 0.4193(3) 0.4462(2) 0.1141(5)
C10_3 C 0.4167(2) 0.4069(1) 0.1643(5)
C11_3 C 0.4249(1) 0.3376(1) 0.3362(4)
C12_3 C 0.4421(3) 0.3204(2) 0.2338(5)
C13_3 C 0.4181(3) 0.2738(2) 0.2008(5)
N3_3 N 0.3783(1) 0.2435(1) 0.2617(4)
C14_3 C 0.3615(2) 0.2599(1) 0.3590(5)
C15_3 C 0.3834(2) 0.3062(1) 0.3999(5)
C16_3 C 0.5596(1) 0.4571(1) 0.9277(4)
C17_3 C 0.5929(3) 0.4439(2) 0.9094(6)
Zn1_5 Zn 0.5000 0.5000 0.5000
H1_3 H 0.4649 0.3317 0.5634
H2_3 H 0.5109 0.3737 0.7870
H3_3 H 0.4063 0.4500 0.0507
H4_3 H 0.4035 0.3783 0.1203
H5_3 H 0.4666 0.3389 0.1847
H6_3 H 0.4279 0.2627 0.1259
H7_3 H 0.3307 0.2365 0.3894
H8_3 H 0.3693 0.3165 0.4692
H9_3 H 0.6080 0.4452 0.8204
C21_3 C 0.5504(1) 0.5163(1) 0.7913(4)
C22_3 C 0.4592(1) 0.5301(1) 0.1989(4)
Zn2_3 Zn 0.3333 0.1667 0.1667
N5_3 N 0.5010(1) 0.5592(1) 0.4276(3)
N6_3 N 0.5346(1) 0.5338(1) 0.6858(3)
N7_3 N 0.4232(1) 0.4681(1) 0.5950(4)
N8_3 N 0.5768(1) 0.5319(1) 0.4050(4)
C23_3 C 0.4839(1) 0.5649(1) 0.3005(4)
C24_3 C 0.4404(1) 0.5429(1) 0.0723(4)
C25_3 C 0.5548(1) 0.5810(1) 0.7085(4)
C26_3 C 0.5807(3) 0.5538(2) 0.8859(5)
C27_3 C 0.4971(2) 0.6134(1) 0.2846(5)
C28_3 C 0.4071(3) 0.5561(2) 0.0906(6)
C30_3 C 0.5494(1) 0.6120(1) 0.6199(4)
C31_3 C 0.5833(2) 0.5931(1) 0.8357(5)
H13_3 H 0.5937 0.5500 0.9493
C32_3 C 0.5226(2) 0.6364(1) 0.4010(5)
H14_3 H 0.4891 0.6263 0.2130
H15_3 H 0.3920 0.5548 0.1796
C35_3 C 0.5252(1) 0.6021(1) 0.4909(4)
C36_3 C 0.5751(1) 0.6624(1) 0.6638(4)
H17_3 H 0.5965 0.6217 0.8797
H18_3 H 0.5351 0.6683 0.4366
C37_3 C 0.5579(3) 0.6796(2) 0.7662(5)
C38_3 C 0.6166(2) 0.6938(1) 0.6001(5)
C39_3 C 0.5819(3) 0.7262(2) 0.7992(5)
H21_3 H 0.5334 0.6611 0.8153
C40_3 C 0.6385(2) 0.7401(1) 0.6410(5)
H22_3 H 0.6307 0.6835 0.5308
N10_3 N 0.6217(1) 0.7565(1) 0.7383(4)
H23_3 H 0.5721 0.7373 0.8741
H24_3 H 0.6693 0.7635 0.6106
Zn3_3 Zn 0.6667 0.8333 0.8333
C12_4 C 0.0129(2) 0.7884(2) 0.9005(5)
C13_4 C 0.0595(2) 0.8110(2) 0.8675(5)
N3_4 N 0.0898(1) 0.8015(1) 0.9284(4)
H6_4 H 0.0706 0.8319 0.7926
N1_4 N 0.8925(1) 0.7249(1) 0.2391(3)
C2_4 C 0.9453(1) 0.7293(1) 0.0468(4)
C3_4 C 0.9354(1) 0.7436(1) 0.1758(4)
C4_4 C 0.9697(1) 0.7805(2) 0.2657(5)
C5_4 C 0.9467(1) 0.7830(2) 0.3821(5)
C6_4 C 0.8982(1) 0.7477(1) 0.3662(4)
C7_4 C 0.8634(1) 0.7376(1) 0.4678(4)
C11_4 C 0.9957(1) 0.7540(1) 0.0029(4)
C16_4 C 0.8762(1) 0.7692(1) 0.5944(4)
C17_4 C 0.8894(2) 0.8157(2) 0.5761(6)
C18_2 C 0.9019(2) 0.8440(2) 0.6969(9)
N4_2 N 0.9025(2) 0.8290(2) 0.8295(6)
C19_2 C 0.8895(2) 0.7843(2) 0.8441(6)
C20_2 C 0.8759(2) 0.7533(2) 0.7326(5)
H2_4 H 0.9596 0.8039 0.4537
H9_4 H 0.8881 0.8295 0.4871
H10_2 H 0.9093 0.8734 0.6803
H11_2 H 0.8895 0.7709 0.9304
H12_2 H 0.8662 0.7207 0.7472
C21_4 C 0.8170(1) 0.7008(1) 0.4580(4)
N5_4 N 0.7741(1) 0.6085(1) 0.0943(3)
N6_4 N 0.7995(1) 0.6675(1) 0.3525(3)
N8_4 N 0.8015(1) 0.7116(1) 0.0716(4)
C25_4 C 0.7523(1) 0.6405(1) 0.3752(4)
C26_4 C 0.7795(2) 0.6936(2) 0.5526(5)
C30_4 C 0.7213(1) 0.6041(1) 0.2866(4)
C31_4 C 0.7402(1) 0.6569(2) 0.5024(5)
H13_4 H 0.7833 0.7104 0.6160
C32_4 C 0.6969(1) 0.5529(2) 0.0677(5)
C35_4 C 0.7312(1) 0.5898(1) 0.1576(4)
C36_4 C 0.6709(1) 0.5794(1) 0.3305(4)
H17_4 H 0.7116 0.6415 0.5464
H18_4 H 0.6650 0.5335 0.1033
C37_4 C 0.6537(2) 0.5450(2) 0.4329(5)
C38_4 C 0.6395(1) 0.5895(2) 0.2668(5)
C39_4 C 0.6071(2) 0.5224(2) 0.4659(5)
H21_4 H 0.6722 0.5390 0.4820
C40_4 C 0.5932(1) 0.5651(2) 0.3077(5)
H22_4 H 0.6498 0.6139 0.1975
H23_4 H 0.5960 0.5015 0.5408
H24_4 H 0.5698 0.5725 0.2773
N1_5 N 0.2751(1) 0.1677(1) 0.2391(3)
C2_5 C 0.2707(1) 0.2161(1) 0.0468(4)
C3_5 C 0.2564(1) 0.1919(1) 0.1758(4)
C4_5 C 0.2195(2) 0.1893(2) 0.2657(5)
C5_5 C 0.2170(2) 0.1638(2) 0.3821(5)
C6_5 C 0.2523(1) 0.1506(1) 0.3662(4)
C7_5 C 0.2624(1) 0.1259(1) 0.4678(4)
C11_5 C 0.2460(1) 0.2418(1) 0.0029(4)
C14_4 C 0.2317(2) 0.3052(2) 0.0257(5)
C15_4 C 0.2561(2) 0.2833(2) 0.0666(5)
C16_5 C 0.2308(1) 0.1071(1) 0.5944(4)
C17_5 C 0.1843(2) 0.0738(3) 0.5761(6)
C18_3 C 0.1560(2) 0.0580(3) 0.6969(9)
N4_3 N 0.1710(2) 0.0736(3) 0.8295(6)
C19_3 C 0.2157(2) 0.1053(3) 0.8441(6)
C20_3 C 0.2467(2) 0.1227(3) 0.7326(5)
H1_4 H 0.2001 0.2018 0.2301
H2_5 H 0.1961 0.1558 0.4537
H7_4 H 0.2391 0.3360 0.0561
H8_4 H 0.2805 0.2974 0.1359
H9_5 H 0.1705 0.0587 0.4871
H10_3 H 0.1266 0.0360 0.6803
H11_3 H 0.2291 0.1187 0.9304
H12_3 H 0.2793 0.1456 0.7472
C21_5 C 0.2992(1) 0.1163(1) 0.4580(4)
N5_5 N 0.3915(1) 0.1657(1) 0.0943(3)
N6_5 N 0.3325(1) 0.1321(1) 0.3525(3)
N8_5 N 0.2884(1) 0.0898(1) 0.0716(4)
C25_5 C 0.3595(1) 0.1119(1) 0.3752(4)
C26_5 C 0.3064(2) 0.0860(3) 0.5526(5)
C30_5 C 0.3959(1) 0.1173(1) 0.2866(4)
C31_5 C 0.3431(2) 0.0834(2) 0.5024(5)
H13_5 H 0.2896 0.0730 0.6160
C32_5 C 0.4471(2) 0.1441(2) 0.0677(5)
C35_5 C 0.4102(1) 0.1415(1) 0.1576(4)
C36_5 C 0.4206(1) 0.0916(1) 0.3305(4)
H17_5 H 0.3585 0.0702 0.5464
H18_5 H 0.4665 0.1316 0.1033
C37_5 C 0.4550(2) 0.1088(3) 0.4329(5)
C38_5 C 0.4105(2) 0.0501(2) 0.2668(5)
C39_5 C 0.4776(2) 0.0848(3) 0.4659(5)
H21_5 H 0.4610 0.1333 0.4820
C40_5 C 0.4349(2) 0.0282(2) 0.3077(5)
H22_5 H 0.3861 0.0360 0.1975
H23_5 H 0.4985 0.0946 0.5408
N2_4 N 0.3341(1) 0.2013(1) 0.9809(3)
C1_4 C 0.3071(1) 0.2215(1) 0.9582(4)
C8_4 C 0.3674(1) 0.2171(1) 0.8754(4)
C9_4 C 0.3602(2) 0.2474(3) 0.7808(5)
C10_4 C 0.3235(2) 0.2500(2) 0.8310(5)
C12_5 C 0.2116(2) 0.2246(3) 0.9005(5)
C13_5 C 0.1890(2) 0.2486(3) 0.8675(5)
N3_5 N 0.1985(1) 0.2884(1) 0.9284(4)
H3_4 H 0.3770 0.2604 0.7174
H4_4 H 0.3081 0.2632 0.7870
H5_4 H 0.2056 0.2001 0.8514
H6_5 H 0.1681 0.2388 0.7926
C22_4 C 0.4042(1) 0.2075(1) 0.8656(4)
C23_4 C 0.4143(1) 0.1828(1) 0.9672(4)
C24_4 C 0.4358(1) 0.2263(1) 0.7390(4)
C27_4 C 0.4496(2) 0.1696(2) 0.9513(5)
C28_4 C 0.4823(2) 0.2596(3) 0.7573(6)
C29 C 0.4199(2) 0.2107(3) 0.6008(5)
H14_4 H 0.4705 0.1776 0.8797
C33 C 0.5106(2) 0.2754(3) 0.6365(9)
H15_4 H 0.4961 0.2747 0.8463
C34 C 0.4509(2) 0.2281(3) 0.4893(6)
H16 H 0.3873 0.1878 0.5862
N9 N 0.4956(2) 0.2598(3) 0.5039(6)
H19 H 0.5400 0.2974 0.6531
H20 H 0.4375 0.2147 0.4030
H24_5 H 0.4275 0.9974 0.2773
H24_6 H 0.0026 0.4302 0.2773
N1_6 N 0.8323(1) 0.1075(1) 0.2391(3)
C2_6 C 0.7839(1) 0.0547(1) 0.0468(4)
C3_6 C 0.8081(1) 0.0646(1) 0.1758(4)
C4_6 C 0.8107(2) 0.0303(1) 0.2657(5)
C5_6 C 0.8362(2) 0.0533(1) 0.3821(5)
C6_6 C 0.8494(1) 0.1018(1) 0.3662(4)
C7_6 C 0.8741(1) 0.1366(1) 0.4678(4)
C11_6 C 0.7582(1) 0.0043(1) 0.0029(4)
C16_6 C 0.8929(1) 0.1238(1) 0.5944(4)
C17_6 C 0.9262(3) 0.1106(2) 0.5761(6)
C18_4 C 0.9420(3) 0.0981(2) 0.6969(9)
N4_4 N 0.9264(3) 0.0975(2) 0.8295(6)
C19_4 C 0.8947(3) 0.1105(2) 0.8441(6)
C20_4 C 0.8773(3) 0.1241(2) 0.7326(5)
H2_6 H 0.8442 0.0404 0.4537
H9_6 H 0.9413 0.1119 0.4871
H10_4 H 0.9640 0.0907 0.6803
H11_4 H 0.8813 0.1105 0.9304
H12_4 H 0.8544 0.1338 0.7472
C21_6 C 0.8837(1) 0.1830(1) 0.4580(4)
N5_6 N 0.8343(1) 0.2259(1) 0.0943(3)
N6_6 N 0.8679(1) 0.2005(1) 0.3525(3)
N8_6 N 0.9102(1) 0.1985(1) 0.0716(4)
C25_6 C 0.8881(1) 0.2477(1) 0.3752(4)
C26_6 C 0.9140(3) 0.2205(2) 0.5526(5)
C30_6 C 0.8827(1) 0.2787(1) 0.2866(4)
C31_6 C 0.9166(2) 0.2598(1) 0.5024(5)
H13_6 H 0.9270 0.2167 0.6160
C32_6 C 0.8559(2) 0.3031(1) 0.0677(5)
C35_6 C 0.8585(1) 0.2688(1) 0.1576(4)
C36_6 C 0.9084(1) 0.3291(1) 0.3305(4)
H17_6 H 0.9298 0.2884 0.5464
H18_6 H 0.8684 0.3350 0.1033
C37_6 C 0.8912(3) 0.3463(2) 0.4329(5)
C38_6 C 0.9499(2) 0.3605(1) 0.2668(5)
C39_6 C 0.9152(3) 0.3929(2) 0.4659(5)
H21_6 H 0.8667 0.3278 0.4820
C40_6 C 0.9718(2) 0.4068(1) 0.3077(5)
H22_6 H 0.9640 0.3502 0.1975
H23_6 H 0.9054 0.4040 0.5408
C12_6 C 0.7754(3) 0.9871(2) 0.9005(5)
C13_6 C 0.7514(3) 0.9405(2) 0.8675(5)
N3_6 N 0.7116(1) 0.9102(1) 0.9284(4)
H6_6 H 0.7612 0.9294 0.7926
N1_7 N 0.2259(1) 0.3915(1) 0.9057(3)
N2_5 N 0.2005(1) 0.3325(1) 0.6475(3)
C1_5 C 0.2477(1) 0.3595(1) 0.6248(4)
C2_7 C 0.2787(1) 0.3959(1) 0.7134(4)
C3_7 C 0.2688(1) 0.4102(1) 0.8424(4)
C4_7 C 0.3031(1) 0.4471(2) 0.9323(5)
C8_5 C 0.1830(1) 0.2992(1) 0.5420(4)
C9_5 C 0.2205(2) 0.3064(2) 0.4474(5)
C10_5 C 0.2598(1) 0.3431(2) 0.4976(5)
C11_7 C 0.3291(1) 0.4206(1) 0.6695(4)
C12_7 C 0.3463(2) 0.4550(2) 0.5671(5)
C13_7 C 0.3929(2) 0.4776(2) 0.5341(5)
C14_5 C 0.4068(1) 0.4349(2) 0.6923(5)
C15_5 C 0.3605(1) 0.4105(2) 0.7332(5)
H1_5 H 0.3350 0.4665 0.8967
H3_5 H 0.2167 0.2896 0.3840
H4_5 H 0.2884 0.3585 0.4536
H5_5 H 0.3278 0.4610 0.5180
H6_7 H 0.4040 0.4985 0.4592
H7_5 H 0.4302 0.4275 0.7227
H8_5 H 0.3502 0.3861 0.8025
C22_5 C 0.1366(1) 0.2624(1) 0.5322(4)
N5_7 N 0.1075(1) 0.2751(1) 0.7609(3)
C23_5 C 0.1018(1) 0.2523(1) 0.6338(4)
C24_5 C 0.1238(1) 0.2308(1) 0.4056(4)
C27_5 C 0.0533(1) 0.2170(2) 0.6179(5)
C28_5 C 0.1106(2) 0.1843(2) 0.4239(6)
C29_2 C 0.1241(2) 0.2467(2) 0.2674(5)
C30_7 C 0.0547(1) 0.2707(1) 0.9532(4)
C32_7 C 0.0303(1) 0.2195(2) 0.7343(5)
H14_5 H 0.0404 0.1961 0.5463
C33_2 C 0.0981(2) 0.1560(2) 0.3031(9)
H15_5 H 0.1119 0.1705 0.5129
C34_2 C 0.1105(2) 0.2157(2) 0.1559(6)
H16_2 H 0.1338 0.2793 0.2528
C35_7 C 0.0646(1) 0.2564(1) 0.8242(4)
C36_7 C 0.0043(1) 0.2460(1) 0.9971(4)
N9_2 N 0.0975(2) 0.1710(2) 0.1705(6)
H19_2 H 0.0907 0.1266 0.3197
H20_2 H 0.1105 0.2291 0.0696
C37_7 C 0.9871(2) 0.2116(2) 0.0995(5)
C39_7 C 0.9405(2) 0.1890(2) 0.1325(5)
H23_7 H 0.9294 0.1681 0.2074
H7_6 H 0.5725 0.0026 0.7227
C5_7 C 0.5504(2) 0.8304(2) 0.0487(5)
C6_7 C 0.5857(1) 0.8172(1) 0.0328(4)
C7_7 C 0.5958(1) 0.7925(1) 0.1344(4)
C16_7 C 0.5642(1) 0.7737(1) 0.2610(4)
C17_7 C 0.5177(2) 0.7404(3) 0.2427(6)
C18_5 C 0.4894(2) 0.7246(3) 0.3635(9)
N4_5 N 0.5044(2) 0.7402(3) 0.4961(6)
C19_5 C 0.5491(2) 0.7719(3) 0.5107(6)
C20_5 C 0.5801(2) 0.7893(3) 0.3992(5)
H2_7 H 0.5295 0.8224 0.1203
H9_7 H 0.5039 0.7253 0.1537
H10_5 H 0.4600 0.7026 0.3469
H11_5 H 0.5625 0.7853 0.5970
H12_5 H 0.6127 0.8122 0.4138
C21_7 C 0.6326(1) 0.7829(1) 0.1246(4)
N6_7 N 0.6659(1) 0.7987(1) 0.0191(3)
C25_7 C 0.6929(1) 0.7785(1) 0.0418(4)
C26_7 C 0.6398(2) 0.7526(3) 0.2192(5)
C31_7 C 0.6765(2) 0.7500(2) 0.1690(5)
H13_7 H 0.6230 0.7396 0.2826
H17_7 H 0.6919 0.7368 0.2130
C37_8 C 0.7884(2) 0.7754(3) 0.0995(5)
C39_8 C 0.8110(2) 0.7514(3) 0.1325(5)
H21_7 H 0.7944 0.7999 0.1486
H23_8 H 0.8319 0.7612 0.2074
N1_8 N 0.6085(1) 0.8343(1) 0.9057(3)
N2_6 N 0.6675(1) 0.8679(1) 0.6475(3)
C1_6 C 0.6405(1) 0.8881(1) 0.6248(4)
C2_8 C 0.6041(1) 0.8827(1) 0.7134(4)
C3_8 C 0.5898(1) 0.8585(1) 0.8424(4)
C4_8 C 0.5529(2) 0.8559(2) 0.9323(5)
C8_6 C 0.7008(1) 0.8837(1) 0.5420(4)
C9_6 C 0.6936(2) 0.9140(3) 0.4474(5)
C10_6 C 0.6569(2) 0.9166(2) 0.4976(5)
C11_8 C 0.5794(1) 0.9084(1) 0.6695(4)
C12_8 C 0.5450(2) 0.8912(3) 0.5671(5)
C13_8 C 0.5224(2) 0.9152(3) 0.5341(5)
C14_6 C 0.5651(2) 0.9718(2) 0.6923(5)
C15_6 C 0.5895(2) 0.9499(2) 0.7332(5)
H1_6 H 0.5335 0.8684 0.8967
H3_6 H 0.7104 0.9270 0.3840
H4_6 H 0.6415 0.9298 0.4536
H5_6 H 0.5390 0.8667 0.5180
H6_8 H 0.5015 0.9054 0.4592
H8_6 H 0.6139 0.9640 0.8025
C22_6 C 0.7376(1) 0.8741(1) 0.5322(4)
N5_8 N 0.7249(1) 0.8323(1) 0.7609(3)
C23_6 C 0.7477(1) 0.8494(1) 0.6338(4)
C24_6 C 0.7692(1) 0.8929(1) 0.4056(4)
C27_6 C 0.7830(2) 0.8362(2) 0.6179(5)
C28_6 C 0.8157(2) 0.9262(3) 0.4239(6)
C29_3 C 0.7533(2) 0.8773(3) 0.2674(5)
C30_8 C 0.7293(1) 0.7839(1) 0.9532(4)
C32_8 C 0.7805(2) 0.8107(2) 0.7343(5)
H14_6 H 0.8039 0.8442 0.5463
C33_3 C 0.8440(2) 0.9420(3) 0.3031(9)
H15_6 H 0.8295 0.9413 0.5129
C34_3 C 0.7843(2) 0.8947(3) 0.1559(6)
H16_3 H 0.7207 0.8544 0.2528
C35_8 C 0.7436(1) 0.8081(1) 0.8242(4)
C36_8 C 0.7540(1) 0.7582(1) 0.9971(4)
H18_7 H 0.7999 0.7982 0.7699
N9_3 N 0.8290(2) 0.9264(3) 0.1705(6)
H19_3 H 0.8734 0.9640 0.3197
H20_3 H 0.7709 0.8813 0.0696
C38_7 C 0.7439(2) 0.7167(2) 0.9334(5)
C40_7 C 0.7683(2) 0.6948(2) 0.9743(5)
H22_7 H 0.7195 0.7026 0.8641
H24_7 H 0.7609 0.6640 0.9439
C37_9 C 0.2246(3) 0.0129(2) 0.0995(5)
C39_9 C 0.2486(3) 0.0595(2) 0.1325(5)
H23_9 H 0.2388 0.0706 0.2074
N1_9 N 0.1657(1) 0.7741(1) 0.9057(3)
N2_7 N 0.1321(1) 0.7995(1) 0.6475(3)
C1_7 C 0.1119(1) 0.7523(1) 0.6248(4)
C2_9 C 0.1173(1) 0.7213(1) 0.7134(4)
C3_9 C 0.1415(1) 0.7312(1) 0.8424(4)
C4_9 C 0.1441(2) 0.6969(1) 0.9323(5)
C8_7 C 0.1163(1) 0.8170(1) 0.5420(4)
C9_7 C 0.0860(3) 0.7795(2) 0.4474(5)
C10_7 C 0.0834(2) 0.7402(1) 0.4976(5)
C11_9 C 0.0916(1) 0.6709(1) 0.6695(4)
C12_9 C 0.1088(3) 0.6537(2) 0.5671(5)
C13_9 C 0.0848(3) 0.6071(2) 0.5341(5)
C14_7 C 0.0282(2) 0.5932(1) 0.6923(5)
C15_7 C 0.0501(2) 0.6395(1) 0.7332(5)
H1_7 H 0.1316 0.6650 0.8967
H3_7 H 0.0730 0.7833 0.3840
H4_7 H 0.0702 0.7116 0.4536
H5_7 H 0.1333 0.6722 0.5180
H6_9 H 0.0946 0.5960 0.4592
H8_7 H 0.0360 0.6498 0.8025
C22_7 C 0.1259(1) 0.8634(1) 0.5322(4)
N5_9 N 0.1677(1) 0.8925(1) 0.7609(3)
C23_7 C 0.1506(1) 0.8982(1) 0.6338(4)
C24_7 C 0.1071(1) 0.8762(1) 0.4056(4)
C27_7 C 0.1638(2) 0.9467(1) 0.6179(5)
C28_7 C 0.0738(3) 0.8894(2) 0.4239(6)
C29_4 C 0.1227(3) 0.8759(2) 0.2674(5)
C30_9 C 0.2161(1) 0.9453(1) 0.9532(4)
C32_9 C 0.1893(2) 0.9697(1) 0.7343(5)
H14_7 H 0.1558 0.9596 0.5463
C33_4 C 0.0580(3) 0.9019(2) 0.3031(9)
H15_7 H 0.0587 0.8881 0.5129
C34_4 C 0.1053(3) 0.8895(2) 0.1559(6)
H16_4 H 0.1456 0.8662 0.2528
C35_9 C 0.1919(1) 0.9354(1) 0.8242(4)
C36_9 C 0.2418(1) 0.9957(1) 0.9971(4)
N9_4 N 0.0736(3) 0.9025(2) 0.1705(6)
H19_4 H 0.0360 0.9093 0.3197
H20_4 H 0.1187 0.8895 0.0696
H7_7 H 0.9974 0.5698 0.7227
C29_5 C 0.4574(2) 0.9134(2) 0.9341(5)
C33_5 C 0.4314(2) 0.8227(2) 0.9698(9)
C34_5 C 0.4438(2) 0.8824(2) 0.8226(6)
H16_5 H 0.4671 0.9460 0.9195
N9_5 N 0.4308(2) 0.8377(2) 0.8372(6)
H19_5 H 0.4240 0.7933 0.9864
H20_5 H 0.4438 0.8958 0.7363
C29_6 C 0.0866(2) 0.5440(3) 0.9341(5)
C33_6 C 0.1773(2) 0.6087(3) 0.9698(9)
C34_6 C 0.1176(2) 0.5614(3) 0.8226(6)
H16_6 H 0.0540 0.5211 0.9195
N9_6 N 0.1623(2) 0.5931(3) 0.8372(6)
H19_6 H 0.2067 0.6307 0.9864
H20_6 H 0.1042 0.5480 0.7363
C18_6 C 0.8227(2) 0.3913(3) 0.0302(9)
N4_6 N 0.8377(2) 0.4069(3) 0.1628(6)
C19_6 C 0.8824(2) 0.4386(3) 0.1774(6)
C20_6 C 0.9134(2) 0.4560(3) 0.0659(5)
H10_6 H 0.7933 0.3693 0.0136
H11_6 H 0.8958 0.4520 0.2637
H12_6 H 0.9460 0.4789 0.0805
C18_7 C 0.6087(3) 0.4314(2) 0.0302(9)
N4_7 N 0.5931(3) 0.4308(2) 0.1628(6)
C19_7 C 0.5614(3) 0.4438(2) 0.1774(6)
C20_7 C 0.5440(3) 0.4574(2) 0.0659(5)
H10_7 H 0.6307 0.4240 0.0136
H11_7 H 0.5480 0.4438 0.2637
H12_7 H 0.5211 0.4671 0.0805
C29_7 C 0.4560(3) 0.5426(2) 0.9341(5)
C33_7 C 0.3913(3) 0.5686(2) 0.9698(9)
C34_7 C 0.4386(3) 0.5562(2) 0.8226(6)
H16_7 H 0.4789 0.5329 0.9195
N9_7 N 0.4069(3) 0.5692(2) 0.8372(6)
H19_7 H 0.3693 0.5760 0.9864
H20_7 H 0.4520 0.5562 0.7363
C14_8 C 0.0734(1) 0.7683(2) 0.0257(5)
C15_8 C 0.0271(1) 0.7439(2) 0.0666(5)
H1_8 H 0.0016 0.7999 0.2301
H7_8 H 0.0968 0.7609 0.0561
H8_8 H 0.0168 0.7195 0.1359
N2_8 N 0.8671(1) 0.6659(1) 0.9809(3)
C1_8 C 0.9143(1) 0.6929(1) 0.9582(4)
C8_8 C 0.8496(1) 0.6326(1) 0.8754(4)
C9_8 C 0.8871(2) 0.6398(2) 0.7808(5)
C10_8 C 0.9264(1) 0.6765(2) 0.8310(5)
H3_8 H 0.8833 0.6230 0.7174
H4_8 H 0.9550 0.6919 0.7870
H5_8 H 0.9944 0.7944 0.8514
C22_8 C 0.8032(1) 0.5958(1) 0.8656(4)
C23_8 C 0.7684(1) 0.5857(1) 0.9672(4)
C24_8 C 0.7904(1) 0.5642(1) 0.7390(4)
C27_8 C 0.7199(1) 0.5504(2) 0.9513(5)
C28_8 C 0.7772(2) 0.5177(2) 0.7573(6)
C29_8 C 0.7907(2) 0.5801(2) 0.6008(5)
H14_8 H 0.7070 0.5295 0.8797
C33_8 C 0.7647(2) 0.4894(2) 0.6365(9)
H15_8 H 0.7785 0.5039 0.8463
C34_8 C 0.7771(2) 0.5491(2) 0.4893(6)
H16_8 H 0.8004 0.6127 0.5862
N9_8 N 0.7641(2) 0.5044(2) 0.5039(6)
H19_8 H 0.7573 0.4600 0.6531
H20_8 H 0.7771 0.5625 0.4030
N2_9 N 0.7987(1) 0.1329(1) 0.9809(3)
C1_9 C 0.7785(1) 0.0857(1) 0.9582(4)
C8_9 C 0.7829(1) 0.1504(1) 0.8754(4)
C9_9 C 0.7526(3) 0.1129(2) 0.7808(5)
C10_9 C 0.7500(2) 0.0736(1) 0.8310(5)
H3_9 H 0.7396 0.1167 0.7174
H4_9 H 0.7368 0.0450 0.7870
H5_9 H 0.7999 0.0056 0.8514
C22_9 C 0.7925(1) 0.1968(1) 0.8656(4)
C23_9 C 0.8172(1) 0.2316(1) 0.9672(4)
C24_9 C 0.7737(1) 0.2096(1) 0.7390(4)
C27_9 C 0.8304(2) 0.2801(1) 0.9513(5)
C28_9 C 0.7404(3) 0.2228(2) 0.7573(6)
C29_9 C 0.7893(3) 0.2093(2) 0.6008(5)
H14_9 H 0.8224 0.2930 0.8797
C33_9 C 0.7246(3) 0.2353(2) 0.6365(9)
H15_9 H 0.7253 0.2215 0.8463
C34_9 C 0.7719(3) 0.2229(2) 0.4893(6)
H16_9 H 0.8122 0.1996 0.5862
N9_9 N 0.7402(3) 0.2359(2) 0.5039(6)
H19_9 H 0.7026 0.2427 0.6531
H20_9 H 0.7853 0.2229 0.4030
C14_9 C 0.6948(2) 0.9266(1) 0.0257(5)
C15_9 C 0.7167(2) 0.9729(1) 0.0666(5)
H1_9 H 0.7982 0.9984 0.2301
H7_9 H 0.6640 0.9032 0.0561
H8_9 H 0.7026 0.9832 0.1359
C5_8 C 0.2801(1) 0.4496(2) 0.0487(5)
C6_8 C 0.2316(1) 0.4143(1) 0.0328(4)
C7_8 C 0.1968(1) 0.4042(1) 0.1344(4)
C16_8 C 0.2096(1) 0.4358(1) 0.2610(4)
C17_8 C 0.2228(2) 0.4823(2) 0.2427(6)
C18_8 C 0.2353(2) 0.5106(2) 0.3635(9)
N4_8 N 0.2359(2) 0.4956(2) 0.4961(6)
C19_8 C 0.2229(2) 0.4509(2) 0.5107(6)
C20_8 C 0.2093(2) 0.4199(2) 0.3992(5)
H2_8 H 0.2930 0.4705 0.1203
H9_8 H 0.2215 0.4961 0.1537
H10_8 H 0.2427 0.5400 0.3469
H11_8 H 0.2229 0.4375 0.5970
H12_8 H 0.1996 0.3873 0.4138
C21_8 C 0.1504(1) 0.3674(1) 0.1246(4)
N6_8 N 0.1329(1) 0.3341(1) 0.0191(3)
C25_8 C 0.0857(1) 0.3071(1) 0.0418(4)
C26_8 C 0.1129(2) 0.3602(2) 0.2192(5)
C31_8 C 0.0736(1) 0.3235(2) 0.1690(5)
H13_8 H 0.1167 0.3770 0.2826
H17_8 H 0.0450 0.3081 0.2130
H21_8 H 0.0056 0.2056 0.1486
H18_8 H 0.9984 0.2001 0.7699
C38_8 C 0.9729(1) 0.2561(2) 0.9334(5)
C40_8 C 0.9266(1) 0.2317(2) 0.9743(5)
H22_8 H 0.9832 0.2805 0.8641
H24_8 H 0.9032 0.2391 0.9439
H18_9 H 0.2018 0.0016 0.7699
C38_9 C 0.2833(2) 0.0271(1) 0.9334(5)
C40_9 C 0.3052(2) 0.0734(1) 0.9743(5)
H22_9 H 0.2974 0.0168 0.8641
H24_9 H 0.3360 0.0968 0.9439
C5_9 C 0.1696(2) 0.7199(1) 0.0487(5)
C6_9 C 0.1828(1) 0.7684(1) 0.0328(4)
C7_9 C 0.2075(1) 0.8032(1) 0.1344(4)
C16_9 C 0.2263(1) 0.7904(1) 0.2610(4)
C17_9 C 0.2596(3) 0.7772(2) 0.2427(6)
C18_9 C 0.2754(3) 0.7647(2) 0.3635(9)
N4_9 N 0.2598(3) 0.7641(2) 0.4961(6)
C19_9 C 0.2281(3) 0.7771(2) 0.5107(6)
C20_9 C 0.2107(3) 0.7907(2) 0.3992(5)
H2_9 H 0.1776 0.7070 0.1203
H9_9 H 0.2747 0.7785 0.1537
H10_9 H 0.2974 0.7573 0.3469
H11_9 H 0.2147 0.7771 0.5970
H12_9 H 0.1878 0.8004 0.4138
C21_9 C 0.2171(1) 0.8496(1) 0.1246(4)
N6_9 N 0.2013(1) 0.8671(1) 0.0191(3)
C25_9 C 0.2215(1) 0.9143(1) 0.0418(4)
C26_9 C 0.2474(3) 0.8871(2) 0.2192(5)
C31_9 C 0.2500(2) 0.9264(1) 0.1690(5)
H13_9 H 0.2604 0.8833 0.2826
H17_9 H 0.2632 0.9550 0.2130
H21_9 H 0.2001 0.9944 0.1486
loop_
_geom_bond_atom_site_label_1
_geom_bond_atom_site_label_2
_geom_bond_site_symmetry_1
_geom_bond_site_symmetry_2
N4 C18 1_555 1_555
C19 N4 1_555 1_555
H10 C18 1_555 1_555
H11 C19 1_555 1_555
H12 C20 1_555 1_555
C19 C20 1_555 1_555
N1 C3 1_555 1_555
C1 C2 1_555 1_555
C2 C3 1_555 1_555
C3 C4 1_555 1_555
C4 C5 1_555 1_555
C5 C6 1_555 1_555
C6 N1 1_555 1_555
C7 C6 1_555 1_555
C10 C1 1_555 1_555
C11 C2 1_555 1_555
C12 C11 1_555 1_555
C13 C12 1_555 1_555
N3 C13 1_555 1_555
C14 N3 1_555 1_555
C15 C11 1_555 1_555
C16 C7 1_555 1_555
C17 C16 1_555 1_555
Zn1 N1 1_555 1_555
H1 C4 1_555 1_555
H2 C5 1_555 1_555
H4 C10 1_555 1_555
H5 C12 1_555 1_555
H6 C13 1_555 1_555
H7 C14 1_555 1_555
H8 C15 1_555 1_555
H9 C17 1_555 1_555
C21 C7 1_555 1_555
Zn2 N3 1_555 1_555
N6 Zn1 1_555 1_555
N8 Zn1 1_555 1_555
C26 C21 1_555 1_555
H13 C26 1_555 1_555
C14 C15 1_555 1_555
C21 N6 1_555 1_555
C8 N2 1_555 1_555
C9 C8 1_555 1_555
H3 C9 1_555 1_555
C22 C8 1_555 1_555
N5 Zn1_2 1_555 1_555
N7 Zn1_2 1_555 1_555
C23 C22 1_555 1_555
C24 C22 1_555 1_555
C27 C23 1_555 1_555
C28 C24 1_555 1_555
C30 C25 1_555 1_555
C31 C25 1_555 1_555
C32 C27 1_555 1_555
H14 C27 1_555 1_555
H15 C28 1_555 1_555
C35 N5 1_555 1_555
C36 C30 1_555 1_555
H17 C31 1_555 1_555
H18 C32 1_555 1_555
C37 C36 1_555 1_555
C38 C36 1_555 1_555
C39 C37 1_555 1_555
H21 C37 1_555 1_555
C40 C38 1_555 1_555
H22 C38 1_555 1_555
N10 C39 1_555 1_555
H23 C39 1_555 1_555
H24 C40 1_555 1_555
Zn3 N10 1_555 1_555
N2 Zn1_2 1_555 1_555
N5 C23 1_555 1_555
C30 C35 1_555 1_555
C32 C35 1_555 1_555
C40 N10 1_555 1_555
C8_2 N2_2 1_555 1_555
C9_2 C8_2 1_555 1_555
H3_2 C9_2 1_555 1_555
C22_2 C8_2 1_555 1_555
N5_2 Zn1_3 1_555 1_555
N7_2 Zn1_3 1_555 1_555
C23_2 C22_2 1_555 1_555
C24_2 C22_2 1_555 1_555
C27_2 C23_2 1_555 1_555
C28_2 C24_2 1_555 1_555
C30_2 C25_2 1_555 1_555
C31_2 C25_2 1_555 1_555
C32_2 C27_2 1_555 1_555
H14_2 C27_2 1_555 1_555
H15_2 C28_2 1_555 1_555
C35_2 N5_2 1_555 1_555
C36_2 C30_2 1_555 1_555
H17_2 C31_2 1_555 1_555
H18_2 C32_2 1_555 1_555
C37_2 C36_2 1_555 1_555
C38_2 C36_2 1_555 1_555
C39_2 C37_2 1_555 1_555
H21_2 C37_2 1_555 1_555
C40_2 C38_2 1_555 1_555
H22_2 C38_2 1_555 1_555
N10_2 C39_2 1_555 1_555
H23_2 C39_2 1_555 1_555
H24_2 C40_2 1_555 1_555
Zn3_2 N10_2 1_555 1_555
N2_2 Zn1_3 1_555 1_555
N5_2 C23_2 1_555 1_555
C30_2 C35_2 1_555 1_555
C32_2 C35_2 1_555 1_555
C40_2 N10_2 1_555 1_555
N1_2 C3_2 1_555 1_555
C1_2 C2_2 1_555 1_555
C2_2 C3_2 1_555 1_555
C3_2 C4_2 1_555 1_555
C4_2 C5_2 1_555 1_555
C5_2 C6_2 1_555 1_555
C6_2 N1_2 1_555 1_555
C7_2 C6_2 1_555 1_555
C10_2 C1_2 1_555 1_555
C11_2 C2_2 1_555 1_555
C12_2 C11_2 1_555 1_555
C13_2 C12_2 1_555 1_555
N3_2 C13_2 1_555 1_555
C14_2 N3_2 1_555 1_555
C15_2 C11_2 1_555 1_555
C16_2 C7_2 1_555 1_555
C17_2 C16_2 1_555 1_555
Zn1_4 N1_2 1_555 1_555
H1_2 C4_2 1_555 1_555
H2_2 C5_2 1_555 1_555
H4_2 C10_2 1_555 1_555
H5_2 C12_2 1_555 1_555
H6_2 C13_2 1_555 1_555
H7_2 C14_2 1_555 1_555
H8_2 C15_2 1_555 1_555
H9_2 C17_2 1_555 1_555
C21_2 C7_2 1_555 1_555
Zn2_2 N3_2 1_555 1_555
N6_2 Zn1_4 1_555 1_555
N8_2 Zn1_4 1_555 1_555
C26_2 C21_2 1_555 1_555
H13_2 C26_2 1_555 1_555
C14_2 C15_2 1_555 1_555
C21_2 N6_2 1_555 1_555
N1_3 C3_3 1_555 1_555
N2_3 C1_3 1_555 1_555
C1_3 C2_3 1_555 1_555
C2_3 C3_3 1_555 1_555
C3_3 C4_3 1_555 1_555
C4_3 C5_3 1_555 1_555
C5_3 C6_3 1_555 1_555
C6_3 N1_3 1_555 1_555
C7_3 C6_3 1_555 1_555
C8_3 N2_3 1_555 1_555
C9_3 C8_3 1_555 1_555
C10_3 C1_3 1_555 1_555
C11_3 C2_3 1_555 1_555
C12_3 C11_3 1_555 1_555
C13_3 C12_3 1_555 1_555
N3_3 C13_3 1_555 1_555
C14_3 N3_3 1_555 1_555
C15_3 C11_3 1_555 1_555
C16_3 C7_3 1_555 1_555
C17_3 C16_3 1_555 1_555
Zn1_5 N1_3 1_555 1_555
H1_3 C4_3 1_555 1_555
H2_3 C5_3 1_555 1_555
H3_3 C9_3 1_555 1_555
H4_3 C10_3 1_555 1_555
H5_3 C12_3 1_555 1_555
H6_3 C13_3 1_555 1_555
H7_3 C14_3 1_555 1_555
H8_3 C15_3 1_555 1_555
H9_3 C17_3 1_555 1_555
C21_3 C7_3 1_555 1_555
C22_3 C8_3 1_555 1_555
Zn2_3 N3_3 1_555 1_555
N5_3 Zn1_5 1_555 1_555
N6_3 Zn1_5 1_555 1_555
N7_3 Zn1_5 1_555 1_555
N8_3 Zn1_5 1_555 1_555
C23_3 C22_3 1_555 1_555
C24_3 C22_3 1_555 1_555
C25_3 N6_3 1_555 1_555
C26_3 C21_3 1_555 1_555
C27_3 C23_3 1_555 1_555
C28_3 C24_3 1_555 1_555
C30_3 C25_3 1_555 1_555
C31_3 C25_3 1_555 1_555
H13_3 C26_3 1_555 1_555
C32_3 C27_3 1_555 1_555
H14_3 C27_3 1_555 1_555
H15_3 C28_3 1_555 1_555
C35_3 N5_3 1_555 1_555
C36_3 C30_3 1_555 1_555
H17_3 C31_3 1_555 1_555
H18_3 C32_3 1_555 1_555
C37_3 C36_3 1_555 1_555
C38_3 C36_3 1_555 1_555
C39_3 C37_3 1_555 1_555
H21_3 C37_3 1_555 1_555
C40_3 C38_3 1_555 1_555
H22_3 C38_3 1_555 1_555
N10_3 C39_3 1_555 1_555
H23_3 C39_3 1_555 1_555
H24_3 C40_3 1_555 1_555
Zn3_3 N10_3 1_555 1_555
N2_3 Zn1_5 1_555 1_555
C9_3 C10_3 1_555 1_555
C14_3 C15_3 1_555 1_555
C21_3 N6_3 1_555 1_555
N5_3 C23_3 1_555 1_555
C26_3 C31_3 1_555 1_555
C30_3 C35_3 1_555 1_555
C32_3 C35_3 1_555 1_555
C40_3 N10_3 1_555 1_555
C13_4 C12_4 1_555 1_555
N3_4 C13_4 1_555 1_555
H6_4 C13_4 1_555 1_555
Zn3 N3_4 1_555 1_555
N1_4 C3_4 1_555 1_555
C2_4 C3_4 1_555 1_555
C3_4 C4_4 1_555 1_555
C4_4 C5_4 1_555 1_555
C5_4 C6_4 1_555 1_555
C6_4 N1_4 1_555 1_555
C7_4 C6_4 1_555 1_555
C11_4 C2_4 1_555 1_555
C16_4 C7_4 1_555 1_555
C17_4 C16_4 1_555 1_555
C18_2 C17_4 1_555 1_555
N4_2 C18_2 1_555 1_555
C19_2 N4_2 1_555 1_555
C20_2 C16_4 1_555 1_555
Zn2_2 N1_4 1_555 1_555
H2_4 C5_4 1_555 1_555
H9_4 C17_4 1_555 1_555
H10_2 C18_2 1_555 1_555
H11_2 C19_2 1_555 1_555
H12_2 C20_2 1_555 1_555
C21_4 C7_4 1_555 1_555
N5_4 Zn2_2 1_555 1_555
N6_4 Zn2_2 1_555 1_555
N8_4 Zn2_2 1_555 1_555
C25_4 N6_4 1_555 1_555
C26_4 C21_4 1_555 1_555
C30_4 C25_4 1_555 1_555
C31_4 C25_4 1_555 1_555
H13_4 C26_4 1_555 1_555
C35_4 N5_4 1_555 1_555
C36_4 C30_4 1_555 1_555
H17_4 C31_4 1_555 1_555
H18_4 C32_4 1_555 1_555
C37_4 C36_4 1_555 1_555
C38_4 C36_4 1_555 1_555
C39_4 C37_4 1_555 1_555
H21_4 C37_4 1_555 1_555
C40_4 C38_4 1_555 1_555
H22_4 C38_4 1_555 1_555
N8_3 C39_4 1_555 1_555
H23_4 C39_4 1_555 1_555
H24_4 C40_4 1_555 1_555
C19_2 C20_2 1_555 1_555
C21_4 N6_4 1_555 1_555
C26_4 C31_4 1_555 1_555
C30_4 C35_4 1_555 1_555
C32_4 C35_4 1_555 1_555
C40_4 N8_3 1_555 1_555
N1_5 C3_5 1_555 1_555
C2_5 C3_5 1_555 1_555
C3_5 C4_5 1_555 1_555
C4_5 C5_5 1_555 1_555
C5_5 C6_5 1_555 1_555
C6_5 N1_5 1_555 1_555
C7_5 C6_5 1_555 1_555
C11_5 C2_5 1_555 1_555
C15_4 C11_5 1_555 1_555
C16_5 C7_5 1_555 1_555
C17_5 C16_5 1_555 1_555
C18_3 C17_5 1_555 1_555
N4_3 C18_3 1_555 1_555
C19_3 N4_3 1_555 1_555
C20_3 C16_5 1_555 1_555
Zn2_3 N1_5 1_555 1_555
H1_4 C4_5 1_555 1_555
H2_5 C5_5 1_555 1_555
H7_4 C14_4 1_555 1_555
H8_4 C15_4 1_555 1_555
H9_5 C17_5 1_555 1_555
H10_3 C18_3 1_555 1_555
H11_3 C19_3 1_555 1_555
H12_3 C20_3 1_555 1_555
C21_5 C7_5 1_555 1_555
N5_5 Zn2_3 1_555 1_555
N6_5 Zn2_3 1_555 1_555
N8_5 Zn2_3 1_555 1_555
C25_5 N6_5 1_555 1_555
C26_5 C21_5 1_555 1_555
C30_5 C25_5 1_555 1_555
C31_5 C25_5 1_555 1_555
H13_5 C26_5 1_555 1_555
C35_5 N5_5 1_555 1_555
C36_5 C30_5 1_555 1_555
H17_5 C31_5 1_555 1_555
H18_5 C32_5 1_555 1_555
C37_5 C36_5 1_555 1_555
C38_5 C36_5 1_555 1_555
C39_5 C37_5 1_555 1_555
H21_5 C37_5 1_555 1_555
C40_5 C38_5 1_555 1_555
H22_5 C38_5 1_555 1_555
N8 C39_5 1_555 1_555
H23_5 C39_5 1_555 1_555
C14_4 C15_4 1_555 1_555
C19_3 C20_3 1_555 1_555
C21_5 N6_5 1_555 1_555
C26_5 C31_5 1_555 1_555
C30_5 C35_5 1_555 1_555
C32_5 C35_5 1_555 1_555
C40_5 N8 1_555 1_555
N2_4 C1_4 1_555 1_555
C8_4 N2_4 1_555 1_555
C9_4 C8_4 1_555 1_555
C10_4 C1_4 1_555 1_555
C13_5 C12_5 1_555 1_555
N3_5 C13_5 1_555 1_555
H3_4 C9_4 1_555 1_555
H4_4 C10_4 1_555 1_555
H5_4 C12_5 1_555 1_555
H6_5 C13_5 1_555 1_555
C22_4 C8_4 1_555 1_555
Zn3_2 N3_5 1_555 1_555
C23_4 C22_4 1_555 1_555
C24_4 C22_4 1_555 1_555
C27_4 C23_4 1_555 1_555
C28_4 C24_4 1_555 1_555
C29 C24_4 1_555 1_555
H14_4 C27_4 1_555 1_555
C33 C28_4 1_555 1_555
H15_4 C28_4 1_555 1_555
C34 C29 1_555 1_555
H16 C29 1_555 1_555
N9 C33 1_555 1_555
H19 C33 1_555 1_555
H20 C34 1_555 1_555
C9_4 C10_4 1_555 1_555
C34 N9 1_555 1_555
N1_6 C3_6 1_555 1_555
C2_6 C3_6 1_555 1_555
C3_6 C4_6 1_555 1_555
C4_6 C5_6 1_555 1_555
C5_6 C6_6 1_555 1_555
C6_6 N1_6 1_555 1_555
C7_6 C6_6 1_555 1_555
C11_6 C2_6 1_555 1_555
C16_6 C7_6 1_555 1_555
C17_6 C16_6 1_555 1_555
C18_4 C17_6 1_555 1_555
N4_4 C18_4 1_555 1_555
C19_4 N4_4 1_555 1_555
C20_4 C16_6 1_555 1_555
Zn2 N1_6 1_555 1_555
H2_6 C5_6 1_555 1_555
H9_6 C17_6 1_555 1_555
H10_4 C18_4 1_555 1_555
H11_4 C19_4 1_555 1_555
H12_4 C20_4 1_555 1_555
C21_6 C7_6 1_555 1_555
N5_6 Zn2 1_555 1_555
N6_6 Zn2 1_555 1_555
N8_6 Zn2 1_555 1_555
C25_6 N6_6 1_555 1_555
C26_6 C21_6 1_555 1_555
C30_6 C25_6 1_555 1_555
C31_6 C25_6 1_555 1_555
H13_6 C26_6 1_555 1_555
C35_6 N5_6 1_555 1_555
C36_6 C30_6 1_555 1_555
H17_6 C31_6 1_555 1_555
H18_6 C32_6 1_555 1_555
C37_6 C36_6 1_555 1_555
C38_6 C36_6 1_555 1_555
C39_6 C37_6 1_555 1_555
H21_6 C37_6 1_555 1_555
C40_6 C38_6 1_555 1_555
H22_6 C38_6 1_555 1_555
N8_2 C39_6 1_555 1_555
H23_6 C39_6 1_555 1_555
C19_4 C20_4 1_555 1_555
C21_6 N6_6 1_555 1_555
C26_6 C31_6 1_555 1_555
C30_6 C35_6 1_555 1_555
C32_6 C35_6 1_555 1_555
C40_6 N8_2 1_555 1_555
C13_6 C12_6 1_555 1_555
N3_6 C13_6 1_555 1_555
H6_6 C13_6 1_555 1_555
Zn3_3 N3_6 1_555 1_555
N1_7 C3_7 1_555 1_555
N2_5 C1_5 1_555 1_555
C1_5 C2_7 1_555 1_555
C2_7 C3_7 1_555 1_555
C3_7 C4_7 1_555 1_555
C8_5 N2_5 1_555 1_555
C9_5 C8_5 1_555 1_555
C10_5 C1_5 1_555 1_555
C11_7 C2_7 1_555 1_555
C12_7 C11_7 1_555 1_555
C13_7 C12_7 1_555 1_555
N7_3 C13_7 1_555 1_555
C14_5 N7_3 1_555 1_555
C15_5 C11_7 1_555 1_555
Zn3_2 N1_7 1_555 1_555
H1_5 C4_7 1_555 1_555
H3_5 C9_5 1_555 1_555
H4_5 C10_5 1_555 1_555
H5_5 C12_7 1_555 1_555
H6_7 C13_7 1_555 1_555
H7_5 C14_5 1_555 1_555
H8_5 C15_5 1_555 1_555
C22_5 C8_5 1_555 1_555
N5_7 Zn3_2 1_555 1_555
C23_5 C22_5 1_555 1_555
C24_5 C22_5 1_555 1_555
C27_5 C23_5 1_555 1_555
C28_5 C24_5 1_555 1_555
C29_2 C24_5 1_555 1_555
C32_7 C27_5 1_555 1_555
H14_5 C27_5 1_555 1_555
C33_2 C28_5 1_555 1_555
H15_5 C28_5 1_555 1_555
C34_2 C29_2 1_555 1_555
H16_2 C29_2 1_555 1_555
C35_7 N5_7 1_555 1_555
C36_7 C30_7 1_555 1_555
N9_2 C33_2 1_555 1_555
H19_2 C33_2 1_555 1_555
H20_2 C34_2 1_555 1_555
N2_5 Zn3_2 1_555 1_555
C9_5 C10_5 1_555 1_555
C14_5 C15_5 1_555 1_555
N5_7 C23_5 1_555 1_555
C30_7 C35_7 1_555 1_555
C32_7 C35_7 1_555 1_555
C34_2 N9_2 1_555 1_555
C39_7 C37_7 1_555 1_555
N8_6 C39_7 1_555 1_555
H23_7 C39_7 1_555 1_555
C5_7 C6_7 1_555 1_555
C7_7 C6_7 1_555 1_555
C16_7 C7_7 1_555 1_555
C17_7 C16_7 1_555 1_555
C18_5 C17_7 1_555 1_555
N4_5 C18_5 1_555 1_555
C19_5 N4_5 1_555 1_555
C20_5 C16_7 1_555 1_555
H2_7 C5_7 1_555 1_555
H9_7 C17_7 1_555 1_555
H10_5 C18_5 1_555 1_555
H11_5 C19_5 1_555 1_555
H12_5 C20_5 1_555 1_555
C21_7 C7_7 1_555 1_555
C25_7 N6_7 1_555 1_555
C26_7 C21_7 1_555 1_555
C31_7 C25_7 1_555 1_555
H13_7 C26_7 1_555 1_555
H17_7 C31_7 1_555 1_555
C39_8 C37_8 1_555 1_555
H21_7 C37_8 1_555 1_555
N8_4 C39_8 1_555 1_555
H23_8 C39_8 1_555 1_555
C19_5 C20_5 1_555 1_555
C21_7 N6_7 1_555 1_555
C26_7 C31_7 1_555 1_555
N1_8 C3_8 1_555 1_555
N2_6 C1_6 1_555 1_555
C1_6 C2_8 1_555 1_555
C2_8 C3_8 1_555 1_555
C3_8 C4_8 1_555 1_555
C8_6 N2_6 1_555 1_555
C9_6 C8_6 1_555 1_555
C10_6 C1_6 1_555 1_555
C11_8 C2_8 1_555 1_555
C12_8 C11_8 1_555 1_555
C13_8 C12_8 1_555 1_555
N7 C13_8 1_555 1_555
C14_6 N7 1_555 1_555
C15_6 C11_8 1_555 1_555
Zn3_3 N1_8 1_555 1_555
H1_6 C4_8 1_555 1_555
H3_6 C9_6 1_555 1_555
H4_6 C10_6 1_555 1_555
H5_6 C12_8 1_555 1_555
H6_8 C13_8 1_555 1_555
H8_6 C15_6 1_555 1_555
C22_6 C8_6 1_555 1_555
N5_8 Zn3_3 1_555 1_555
C23_6 C22_6 1_555 1_555
C24_6 C22_6 1_555 1_555
C27_6 C23_6 1_555 1_555
C28_6 C24_6 1_555 1_555
C29_3 C24_6 1_555 1_555
C32_8 C27_6 1_555 1_555
H14_6 C27_6 1_555 1_555
C33_3 C28_6 1_555 1_555
H15_6 C28_6 1_555 1_555
C34_3 C29_3 1_555 1_555
H16_3 C29_3 1_555 1_555
C35_8 N5_8 1_555 1_555
C36_8 C30_8 1_555 1_555
H18_7 C32_8 1_555 1_555
N9_3 C33_3 1_555 1_555
H19_3 C33_3 1_555 1_555
H20_3 C34_3 1_555 1_555
C38_7 C36_8 1_555 1_555
C40_7 C38_7 1_555 1_555
H22_7 C38_7 1_555 1_555
H24_7 C40_7 1_555 1_555
N2_6 Zn3_3 1_555 1_555
C9_6 C10_6 1_555 1_555
C14_6 C15_6 1_555 1_555
N5_8 C23_6 1_555 1_555
C30_8 C35_8 1_555 1_555
C32_8 C35_8 1_555 1_555
C34_3 N9_3 1_555 1_555
C39_9 C37_9 1_555 1_555
N8_5 C39_9 1_555 1_555
H23_9 C39_9 1_555 1_555
N1_9 C3_9 1_555 1_555
N2_7 C1_7 1_555 1_555
C1_7 C2_9 1_555 1_555
C2_9 C3_9 1_555 1_555
C3_9 C4_9 1_555 1_555
C8_7 N2_7 1_555 1_555
C9_7 C8_7 1_555 1_555
C10_7 C1_7 1_555 1_555
C11_9 C2_9 1_555 1_555
C12_9 C11_9 1_555 1_555
C13_9 C12_9 1_555 1_555
N7_2 C13_9 1_555 1_555
C14_7 N7_2 1_555 1_555
C15_7 C11_9 1_555 1_555
Zn3 N1_9 1_555 1_555
H1_7 C4_9 1_555 1_555
H3_7 C9_7 1_555 1_555
H4_7 C10_7 1_555 1_555
H5_7 C12_9 1_555 1_555
H6_9 C13_9 1_555 1_555
H8_7 C15_7 1_555 1_555
C22_7 C8_7 1_555 1_555
N5_9 Zn3 1_555 1_555
C23_7 C22_7 1_555 1_555
C24_7 C22_7 1_555 1_555
C27_7 C23_7 1_555 1_555
C28_7 C24_7 1_555 1_555
C29_4 C24_7 1_555 1_555
C32_9 C27_7 1_555 1_555
H14_7 C27_7 1_555 1_555
C33_4 C28_7 1_555 1_555
H15_7 C28_7 1_555 1_555
C34_4 C29_4 1_555 1_555
H16_4 C29_4 1_555 1_555
C35_9 N5_9 1_555 1_555
C36_9 C30_9 1_555 1_555
N9_4 C33_4 1_555 1_555
H19_4 C33_4 1_555 1_555
H20_4 C34_4 1_555 1_555
N2_7 Zn3 1_555 1_555
C9_7 C10_7 1_555 1_555
C14_7 C15_7 1_555 1_555
N5_9 C23_7 1_555 1_555
C30_9 C35_9 1_555 1_555
C32_9 C35_9 1_555 1_555
C34_4 N9_4 1_555 1_555
C34_5 C29_5 1_555 1_555
H16_5 C29_5 1_555 1_555
N9_5 C33_5 1_555 1_555
H19_5 C33_5 1_555 1_555
H20_5 C34_5 1_555 1_555
C34_5 N9_5 1_555 1_555
C34_6 C29_6 1_555 1_555
H16_6 C29_6 1_555 1_555
N9_6 C33_6 1_555 1_555
H19_6 C33_6 1_555 1_555
H20_6 C34_6 1_555 1_555
C34_6 N9_6 1_555 1_555
N4_6 C18_6 1_555 1_555
C19_6 N4_6 1_555 1_555
H10_6 C18_6 1_555 1_555
H11_6 C19_6 1_555 1_555
H12_6 C20_6 1_555 1_555
C19_6 C20_6 1_555 1_555
N4_7 C18_7 1_555 1_555
C19_7 N4_7 1_555 1_555
H10_7 C18_7 1_555 1_555
H11_7 C19_7 1_555 1_555
H12_7 C20_7 1_555 1_555
C19_7 C20_7 1_555 1_555
C34_7 C29_7 1_555 1_555
H16_7 C29_7 1_555 1_555
N9_7 C33_7 1_555 1_555
H19_7 C33_7 1_555 1_555
H20_7 C34_7 1_555 1_555
C34_7 N9_7 1_555 1_555
H7_8 C14_8 1_555 1_555
H8_8 C15_8 1_555 1_555
C14_8 C15_8 1_555 1_555
N2_8 C1_8 1_555 1_555
C8_8 N2_8 1_555 1_555
C9_8 C8_8 1_555 1_555
C10_8 C1_8 1_555 1_555
H3_8 C9_8 1_555 1_555
H4_8 C10_8 1_555 1_555
C22_8 C8_8 1_555 1_555
C23_8 C22_8 1_555 1_555
C24_8 C22_8 1_555 1_555
C27_8 C23_8 1_555 1_555
C28_8 C24_8 1_555 1_555
C29_8 C24_8 1_555 1_555
H14_8 C27_8 1_555 1_555
C33_8 C28_8 1_555 1_555
H15_8 C28_8 1_555 1_555
C34_8 C29_8 1_555 1_555
H16_8 C29_8 1_555 1_555
N9_8 C33_8 1_555 1_555
H19_8 C33_8 1_555 1_555
H20_8 C34_8 1_555 1_555
C9_8 C10_8 1_555 1_555
C34_8 N9_8 1_555 1_555
N2_9 C1_9 1_555 1_555
C8_9 N2_9 1_555 1_555
C9_9 C8_9 1_555 1_555
C10_9 C1_9 1_555 1_555
H3_9 C9_9 1_555 1_555
H4_9 C10_9 1_555 1_555
C22_9 C8_9 1_555 1_555
C23_9 C22_9 1_555 1_555
C24_9 C22_9 1_555 1_555
C27_9 C23_9 1_555 1_555
C28_9 C24_9 1_555 1_555
C29_9 C24_9 1_555 1_555
H14_9 C27_9 1_555 1_555
C33_9 C28_9 1_555 1_555
H15_9 C28_9 1_555 1_555
C34_9 C29_9 1_555 1_555
H16_9 C29_9 1_555 1_555
N9_9 C33_9 1_555 1_555
H19_9 C33_9 1_555 1_555
H20_9 C34_9 1_555 1_555
C9_9 C10_9 1_555 1_555
C34_9 N9_9 1_555 1_555
H7_9 C14_9 1_555 1_555
H8_9 C15_9 1_555 1_555
C14_9 C15_9 1_555 1_555
C5_8 C6_8 1_555 1_555
C7_8 C6_8 1_555 1_555
C16_8 C7_8 1_555 1_555
C17_8 C16_8 1_555 1_555
C18_8 C17_8 1_555 1_555
N4_8 C18_8 1_555 1_555
C19_8 N4_8 1_555 1_555
C20_8 C16_8 1_555 1_555
H2_8 C5_8 1_555 1_555
H9_8 C17_8 1_555 1_555
H10_8 C18_8 1_555 1_555
H11_8 C19_8 1_555 1_555
H12_8 C20_8 1_555 1_555
C21_8 C7_8 1_555 1_555
C25_8 N6_8 1_555 1_555
C26_8 C21_8 1_555 1_555
C31_8 C25_8 1_555 1_555
H13_8 C26_8 1_555 1_555
H17_8 C31_8 1_555 1_555
C19_8 C20_8 1_555 1_555
C21_8 N6_8 1_555 1_555
C26_8 C31_8 1_555 1_555
C40_8 C38_8 1_555 1_555
H22_8 C38_8 1_555 1_555
H24_8 C40_8 1_555 1_555
C40_9 C38_9 1_555 1_555
H22_9 C38_9 1_555 1_555
H24_9 C40_9 1_555 1_555
C5_9 C6_9 1_555 1_555
C7_9 C6_9 1_555 1_555
C16_9 C7_9 1_555 1_555
C17_9 C16_9 1_555 1_555
C18_9 C17_9 1_555 1_555
N4_9 C18_9 1_555 1_555
C19_9 N4_9 1_555 1_555
C20_9 C16_9 1_555 1_555
H2_9 C5_9 1_555 1_555
H9_9 C17_9 1_555 1_555
H10_9 C18_9 1_555 1_555
H11_9 C19_9 1_555 1_555
H12_9 C20_9 1_555 1_555
C21_9 C7_9 1_555 1_555
C25_9 N6_9 1_555 1_555
C26_9 C21_9 1_555 1_555
C31_9 C25_9 1_555 1_555
H13_9 C26_9 1_555 1_555
H17_9 C31_9 1_555 1_555
C19_9 C20_9 1_555 1_555
C21_9 N6_9 1_555 1_555
C26_9 C31_9 1_555 1_555

#END
