
###############################################################################
#
# This file contains modified crystal structure data generated from the
# MOF subset of the Cambridge Structural Database (CSD) v543 
# hosted by the Cambridge Crystallographic Data Centre (CCDC).
#
# This work is licensed under the Creative Commons
# Attribution-NonCommercial-ShareAlike 4.0 International License.
# To view a copy of this license, visit
# http://creativecommons.org/licenses/by-nc-sa/4.0/
# or send a letter to
# Creative Commons, PO Box 1866, Mountain View, CA 94042, USA.
#
# CIF created using the CSD Python API on 29 September 2022
# The structure has been converted into the P1 space group
# The structure has a 3D framework
# The original CSD entry YOVXEO is in the orthorhombic crystal system
# The framework has been calculated to contain at least 10.0% void space
# The void calculation uses a probe of radius 1.32A, grid spacing 0.4
#
###############################################################################

data_YOVXEO
_chemical_formula_moiety         '(C156 H114 Co4 N19 O28 P4)n'
_symmetry_cell_setting           triclinic
_symmetry_space_group_name_H-M   'P 1'
_symmetry_Int_Tables_number      1
_space_group_name_Hall           'P 1'
loop_
_symmetry_equiv_pos_site_id
_symmetry_equiv_pos_as_xyz
1 x,y,z
_cell_length_a                   23.8620(6)
_cell_length_b                   8.59300(10)
_cell_length_c                   19.0584(5)
_cell_angle_alpha                90
_cell_angle_beta                 90
_cell_angle_gamma                90
_cell_volume                     3907.85
loop_
_atom_site_label
_atom_site_type_symbol
_atom_site_fract_x
_atom_site_fract_y
_atom_site_fract_z
P1 P 0.59872(8) 0.4734(2) 0.13466(11)
C22 C 0.5765(3) 0.0545(8) 0.2817(4)
C23 C 0.5355(3) 0.1653(7) 0.2798(4)
H15 H 0.5029 0.1527 0.3079
C24 C 0.5407(3) 0.2974(8) 0.2372(4)
H16 H 0.5125 0.3753 0.2377
C25 C 0.5883(3) 0.3143(8) 0.1931(4)
C26 C 0.6279(3) 0.1965(8) 0.1955(5)
H17 H 0.6595 0.2033 0.1653
C27 C 0.6238(3) 0.0709(8) 0.2393(5)
C28 C 0.5348(3) 0.5870(9) 0.1329(4)
C29 C 0.4847(4) 0.5162(10) 0.1164(5)
H19 H 0.4846 0.4099 0.1026
C30 C 0.4349(4) 0.5961(11) 0.1193(5)
H20 H 0.4005 0.5447 0.1095
C31 C 0.4355(5) 0.7543(12) 0.1369(5)
H21 H 0.4014 0.8112 0.1387
C32 C 0.4851(4) 0.8270(11) 0.1514(5)
H22 H 0.4852 0.9348 0.1624
C33 C 0.5347(4) 0.7469(9) 0.1501(5)
H23 H 0.5688 0.7986 0.1608
C34 C 0.6554(4) 0.5896(8) 0.1705(4)
C35 C 0.6814(4) 0.6956(8) 0.1280(5)
H24 H 0.6680 0.7134 0.0818
C36 C 0.7282(4) 0.7781(9) 0.1531(5)
H25 H 0.7479 0.8480 0.1234
C37 C 0.7454(4) 0.7552(10) 0.2231(6)
H26 H 0.7762 0.8128 0.2412
C38 C 0.7184(4) 0.6515(11) 0.2649(6)
H27 H 0.7313 0.6348 0.3114
C39 C 0.6719(4) 0.5689(9) 0.2403(5)
H28 H 0.6520 0.5001 0.2703
O1 O 0.6136(2) 0.4194(6) 0.0633(3)
N4 N 0.7411(3) 0.0998(7) 0.0108(4)
H3 H 0.4633 0.0752 0.0015
H4 H 0.5334 0.2575 0.0044
C14 C 0.2638(3) 0.0400(8) 0.0251(5)
H9 H 0.2616 0.1140 0.0621
O5 O 0.7049(2) 0.1550(6) 0.0525(4)
O6 O 0.7815(3) 0.0287(8) 0.0360(5)
Co2 Co 0.65624(5) 0.30267(11) 0.98375(7)
N1 N 0.5970(2) 0.1198(6) 0.9823(4)
N3 N 0.2203(2) 0.0264(6) 0.9822(4)
N5 N 0.6221(3) 0.3889(9) 0.8563(4)
C4 C 0.5008(3) 0.0462(7) 0.9907(4)
C5 C 0.5429(3) 0.1529(7) 0.9937(5)
O2 O 0.6052(2) 0.4451(7) 0.9126(3)
O3 O 0.6575(3) 0.2749(9) 0.8636(5)
O4 O 0.6056(3) 0.4322(11) 0.7992(4)
O7 O 0.7371(3) 0.1215(9) 0.9480(4)
Co3 Co 0.15624(5) 0.19733(11) 0.98375(7)
N6 N 0.7203(2) 0.4736(6) 0.9822(4)
N1_2 N 0.0970(2) 0.3802(6) 0.9823(4)
N5_2 N 0.1221(3) 0.1111(9) 0.8563(4)
C1 C 0.1092(3) 0.5277(9) 0.9647(6)
H1 H 0.1470 0.5537 0.9545
C2 C 0.0686(3) 0.6442(8) 0.9606(5)
H2 H 0.0792 0.7484 0.9505
C3 C 0.0136(3) 0.6071(7) 0.9715(4)
C4_2 C 0.0008(3) 0.4538(7) 0.9907(4)
C5_2 C 0.0429(3) 0.3471(7) 0.9937(5)
H5 H 0.0086 0.9121 0.9305
O2_2 O 0.1052(2) 0.0549(7) 0.9126(3)
O3_2 O 0.1575(3) 0.2251(9) 0.8636(5)
O4_2 O 0.1056(3) 0.0678(11) 0.7992(4)
O7_2 O 0.2371(3) 0.3785(9) 0.9480(4)
N2 N 0.9153(2) 0.6568(5) 0.9724(3)
C6 C 0.9656(3) 0.7184(7) 0.9612(4)
C7 C 0.9722(3) 0.8703(7) 0.9371(4)
C8 C 0.9257(3) 0.9598(7) 0.9229(4)
C9 C 0.8736(3) 0.8934(8) 0.9313(4)
H6 H 0.8407 0.9496 0.9192
C10 C 0.8698(3) 0.7419(8) 0.9580(4)
C11 C 0.8156(3) 0.6612(7) 0.9686(4)
C12 C 0.7695(3) 0.6819(8) 0.9269(5)
H7 H 0.7696 0.7620 0.8925
C13 C 0.7235(3) 0.5895(8) 0.9339(5)
H8 H 0.6923 0.6069 0.9039
N2_2 N 0.5847(2) 0.1568(5) 0.4724(3)
C1_2 C 0.3908(3) 0.0277(9) 0.4647(6)
H1_2 H 0.3530 0.0537 0.4545
C2_2 C 0.4314(3) 0.1442(8) 0.4606(5)
H2_2 H 0.4208 0.2484 0.4505
C3_2 C 0.4864(3) 0.1071(7) 0.4715(4)
C6_2 C 0.5344(3) 0.2184(7) 0.4612(4)
C7_2 C 0.5278(3) 0.3703(7) 0.4371(4)
H5_2 H 0.4914 0.4121 0.4305
C8_2 C 0.5743(3) 0.4598(7) 0.4229(4)
C9_2 C 0.6264(3) 0.3934(8) 0.4313(4)
H6_2 H 0.6593 0.4496 0.4192
C10_2 C 0.6302(3) 0.2419(8) 0.4580(4)
C11_2 C 0.6844(3) 0.1612(7) 0.4686(4)
C12_2 C 0.7305(3) 0.1819(8) 0.4269(5)
H7_2 H 0.7304 0.2620 0.3925
C13_2 C 0.7765(3) 0.0895(8) 0.4339(5)
H8_2 H 0.8077 0.1069 0.4039
C15 C 0.6883(3) 0.0463(8) 0.5193(4)
H10 H 0.6577 0.0275 0.5501
C16 C 0.5715(3) 0.6217(7) 0.3934(4)
C17 C 0.5251(3) 0.6715(7) 0.3565(4)
H11 H 0.4927 0.6074 0.3538
C18 C 0.5257(3) 0.8179(7) 0.3227(4)
H12 H 0.4936 0.8523 0.2978
C19 C 0.5721(3) 0.9100(7) 0.3256(4)
C20 C 0.6174(3) 0.8635(8) 0.3647(5)
H13 H 0.6497 0.9280 0.3670
C21 C 0.6165(3) 0.7224(7) 0.4010(4)
H14 H 0.6468 0.6953 0.4310
H18 H 0.6529 0.9954 0.2408
Co1 Co 0.34376(5) 0.69733(11) 0.48375(7)
N1_3 N 0.4030(2) 0.8802(6) 0.4823(4)
N3_2 N 0.7797(2) 0.9736(6) 0.4822(4)
N4_2 N 0.2589(3) 0.9002(7) 0.5108(4)
N5_3 N 0.3779(3) 0.6111(9) 0.3563(4)
C4_3 C 0.4992(3) 0.9538(7) 0.4907(4)
H3_2 H 0.5367 0.9248 0.5015
C5_3 C 0.4571(3) 0.8471(7) 0.4937(5)
H4_2 H 0.4666 0.7425 0.5044
C14_2 C 0.7362(3) 0.9600(8) 0.5251(5)
H9_2 H 0.7384 0.8860 0.5621
O2_3 O 0.3948(2) 0.5549(7) 0.4126(3)
O3_3 O 0.3425(3) 0.7251(9) 0.3636(5)
O4_3 O 0.3944(3) 0.5678(11) 0.2992(4)
O5_2 O 0.2951(2) 0.8450(6) 0.5525(4)
O6_2 O 0.2185(3) 0.9713(8) 0.5360(5)
O7_3 O 0.2629(3) 0.8785(9) 0.4480(4)
Co3_2 Co 0.84376(5) 0.80267(11) 0.48375(7)
N6_2 N 0.2797(2) 0.5264(6) 0.4822(4)
O8 O 0.3864(2) 0.5806(6) 0.5633(3)
P1_2 P 0.40128(8) 0.5266(2) 0.63466(11)
C22_2 C 0.4235(3) 0.9455(8) 0.7817(4)
C23_2 C 0.4645(3) 0.8347(7) 0.7798(4)
H15_2 H 0.4971 0.8473 0.8079
C24_2 C 0.4593(3) 0.7026(8) 0.7372(4)
H16_2 H 0.4875 0.6247 0.7377
C25_2 C 0.4117(3) 0.6857(8) 0.6931(4)
C26_2 C 0.3721(3) 0.8035(8) 0.6955(5)
H17_2 H 0.3405 0.7967 0.6653
C27_2 C 0.3762(3) 0.9291(8) 0.7393(5)
C28_2 C 0.4652(3) 0.4130(9) 0.6329(4)
C29_2 C 0.5153(4) 0.4838(10) 0.6164(5)
H19_2 H 0.5154 0.5901 0.6026
C30_2 C 0.5651(4) 0.4039(11) 0.6193(5)
H20_2 H 0.5995 0.4553 0.6095
C31_2 C 0.5645(5) 0.2457(12) 0.6369(5)
H21_2 H 0.5986 0.1888 0.6387
C32_2 C 0.5149(4) 0.1730(11) 0.6514(5)
H22_2 H 0.5148 0.0652 0.6624
C33_2 C 0.4653(4) 0.2531(9) 0.6501(5)
H23_2 H 0.4312 0.2014 0.6608
C34_2 C 0.3446(4) 0.4104(8) 0.6705(4)
C35_2 C 0.3186(4) 0.3044(8) 0.6280(5)
H24_2 H 0.3320 0.2866 0.5818
C36_2 C 0.2718(4) 0.2219(9) 0.6531(5)
H25_2 H 0.2521 0.1520 0.6234
C37_2 C 0.2546(4) 0.2448(10) 0.7231(6)
H26_2 H 0.2238 0.1872 0.7412
C38_2 C 0.2816(4) 0.3485(11) 0.7649(6)
H27_2 H 0.2687 0.3652 0.8114
C39_2 C 0.3281(4) 0.4311(9) 0.7403(5)
H28_2 H 0.3480 0.4999 0.7703
N2_3 N 0.0847(2) 0.3432(5) 0.4724(3)
H3_3 H 0.0367 0.5752 0.5015
C6_3 C 0.0344(3) 0.2816(7) 0.4612(4)
C7_3 C 0.0278(3) 0.1297(7) 0.4371(4)
C8_3 C 0.0743(3) 0.0402(7) 0.4229(4)
C9_3 C 0.1264(3) 0.1066(8) 0.4313(4)
H6_3 H 0.1593 0.0504 0.4192
C10_3 C 0.1302(3) 0.2581(8) 0.4580(4)
C11_3 C 0.1844(3) 0.3388(7) 0.4686(4)
C12_3 C 0.2305(3) 0.3181(8) 0.4269(5)
H7_3 H 0.2304 0.2380 0.3925
C13_3 C 0.2765(3) 0.4105(8) 0.4339(5)
H8_3 H 0.3077 0.3931 0.4039
C14_3 C 0.2362(3) 0.5400(8) 0.5251(5)
H9_3 H 0.2384 0.6140 0.5621
C15_2 C 0.1883(3) 0.4537(8) 0.5193(4)
H10_2 H 0.1577 0.4725 0.5501
N1_4 N 0.9030(2) 0.6198(6) 0.4823(4)
N4_3 N 0.7589(3) 0.5998(7) 0.5108(4)
N5_4 N 0.8779(3) 0.8889(9) 0.3563(4)
C1_3 C 0.8908(3) 0.4723(9) 0.4647(6)
H1_3 H 0.8530 0.4463 0.4545
C2_3 C 0.9314(3) 0.3558(8) 0.4606(5)
H2_3 H 0.9208 0.2516 0.4505
C3_3 C 0.9864(3) 0.3929(7) 0.4715(4)
C4_4 C 0.9992(3) 0.5462(7) 0.4907(4)
C5_4 C 0.9571(3) 0.6529(7) 0.4937(5)
H4_3 H 0.9666 0.7575 0.5044
H5_3 H 0.9914 0.0879 0.4305
O2_4 O 0.8948(2) 0.9451(7) 0.4126(3)
O3_4 O 0.8425(3) 0.7749(9) 0.3636(5)
O4_4 O 0.8944(3) 0.9322(11) 0.2992(4)
O5_3 O 0.7951(2) 0.6550(6) 0.5525(4)
O6_3 O 0.7185(3) 0.5287(8) 0.5360(5)
O7_4 O 0.7629(3) 0.6215(9) 0.4480(4)
O8_2 O 0.8864(2) 0.9194(6) 0.5633(3)
P1_3 P 0.90128(8) 0.9734(2) 0.63466(11)
C16_2 C 0.9285(3) 0.1217(7) 0.8934(4)
C17_2 C 0.9749(3) 0.1715(7) 0.8565(4)
C18_2 C 0.9743(3) 0.3179(7) 0.8227(4)
C19_2 C 0.9279(3) 0.4100(7) 0.8256(4)
C20_2 C 0.8826(3) 0.3635(8) 0.8647(5)
H13_2 H 0.8503 0.4280 0.8670
C21_2 C 0.8835(3) 0.2224(7) 0.9010(4)
H14_2 H 0.8532 0.1953 0.9310
C22_3 C 0.9235(3) 0.5545(8) 0.7817(4)
C23_3 C 0.9645(3) 0.6653(7) 0.7798(4)
H15_3 H 0.9971 0.6527 0.8079
C24_3 C 0.9593(3) 0.7974(8) 0.7372(4)
H16_3 H 0.9875 0.8753 0.7377
C25_3 C 0.9117(3) 0.8143(8) 0.6931(4)
C26_3 C 0.8721(3) 0.6965(8) 0.6955(5)
H17_3 H 0.8405 0.7033 0.6653
C27_3 C 0.8762(3) 0.5709(8) 0.7393(5)
H18_2 H 0.8471 0.4954 0.7408
H28_3 H 0.8480 1.0001 0.7703
C15_3 C 0.3117(3) 0.9537(8) 0.0193(4)
H10_3 H 0.3423 0.9725 0.0501
N2_4 N 0.4153(2) 0.8432(5) 0.9724(3)
C1_4 C 0.6092(3) 0.9723(9) 0.9647(6)
H1_4 H 0.6470 0.9463 0.9545
C2_4 C 0.5686(3) 0.8558(8) 0.9606(5)
H2_4 H 0.5792 0.7516 0.9505
C3_4 C 0.5136(3) 0.8929(7) 0.9715(4)
C6_4 C 0.4656(3) 0.7816(7) 0.9612(4)
C7_4 C 0.4722(3) 0.6297(7) 0.9371(4)
H5_4 H 0.5086 0.5879 0.9305
C8_4 C 0.4257(3) 0.5402(7) 0.9229(4)
C9_4 C 0.3736(3) 0.6066(8) 0.9313(4)
H6_4 H 0.3407 0.5504 0.9192
C10_4 C 0.3698(3) 0.7581(8) 0.9580(4)
C11_4 C 0.3156(3) 0.8388(7) 0.9686(4)
C12_4 C 0.2695(3) 0.8181(8) 0.9269(5)
H7_4 H 0.2696 0.7380 0.8925
C13_4 C 0.2235(3) 0.9105(8) 0.9339(5)
H8_4 H 0.1923 0.8931 0.9039
C16_3 C 0.4285(3) 0.3783(7) 0.8934(4)
C17_3 C 0.4749(3) 0.3285(7) 0.8565(4)
H11_2 H 0.5073 0.3926 0.8538
C18_3 C 0.4743(3) 0.1821(7) 0.8227(4)
H12_2 H 0.5064 0.1477 0.7978
C19_3 C 0.4279(3) 0.0900(7) 0.8256(4)
C20_3 C 0.3826(3) 0.1365(8) 0.8647(5)
H13_3 H 0.3503 0.0720 0.8670
C21_3 C 0.3835(3) 0.2776(7) 0.9010(4)
H14_3 H 0.3532 0.3047 0.9310
H18_3 H 0.3471 0.0046 0.7408
P1_4 P 0.09872(8) 0.0266(2) 0.13466(11)
C16_4 C 0.0715(3) 0.8783(7) 0.3934(4)
C17_4 C 0.0251(3) 0.8285(7) 0.3565(4)
C18_4 C 0.0257(3) 0.6821(7) 0.3227(4)
C19_4 C 0.0721(3) 0.5900(7) 0.3256(4)
C20_4 C 0.1174(3) 0.6365(8) 0.3647(5)
H13_4 H 0.1497 0.5720 0.3670
C21_4 C 0.1165(3) 0.7776(7) 0.4010(4)
H14_4 H 0.1468 0.8047 0.4310
C22_4 C 0.0765(3) 0.4455(8) 0.2817(4)
C23_4 C 0.0355(3) 0.3347(7) 0.2798(4)
H15_4 H 0.0029 0.3473 0.3079
C24_4 C 0.0407(3) 0.2026(8) 0.2372(4)
H16_4 H 0.0125 0.1247 0.2377
C25_4 C 0.0883(3) 0.1857(8) 0.1931(4)
C26_4 C 0.1279(3) 0.3035(8) 0.1955(5)
H17_4 H 0.1595 0.2967 0.1653
C27_4 C 0.1238(3) 0.4291(8) 0.2393(5)
H18_4 H 0.1529 0.5046 0.2408
H28_4 H 0.1520 -0.0001 0.2703
O1_2 O 0.1136(2) 0.0806(6) 0.0633(3)
N4_4 N 0.2411(3) 0.4002(7) 0.0108(4)
H4_4 H 0.0334 0.2425 0.0044
O5_4 O 0.2049(2) 0.3450(6) 0.0525(4)
O6_4 O 0.2815(3) 0.4713(8) 0.0360(5)
C28_3 C 0.0348(3) 0.9130(9) 0.1329(4)
C33_3 C 0.0347(4) 0.7531(9) 0.1501(5)
H23_3 H 0.0688 0.7014 0.1608
C34_3 C 0.1554(4) 0.9104(8) 0.1705(4)
C35_3 C 0.1814(4) 0.8044(8) 0.1280(5)
H24_3 H 0.1680 0.7866 0.0818
C36_3 C 0.2282(4) 0.7219(9) 0.1531(5)
H25_3 H 0.2479 0.6520 0.1234
C37_3 C 0.2454(4) 0.7448(10) 0.2231(6)
H26_3 H 0.2762 0.6872 0.2412
C38_3 C 0.2184(4) 0.8485(11) 0.2649(6)
H27_3 H 0.2313 0.8652 0.3114
C39_3 C 0.1719(4) 0.9311(9) 0.2403(5)
H28_5 H 0.1520 0.9999 0.2703
H11_3 H 0.9927 0.8926 0.3538
H12_3 H 0.9936 0.6477 0.2978
H19_3 H 0.9846 0.0901 0.1026
C29_3 C 0.9847(4) 0.9838(10) 0.1164(5)
C30_3 C 0.9349(4) 0.9039(11) 0.1193(5)
H20_3 H 0.9005 0.9553 0.1095
C31_3 C 0.9355(5) 0.7457(12) 0.1369(5)
H21_3 H 0.9014 0.6888 0.1387
C32_3 C 0.9851(4) 0.6730(11) 0.1514(5)
H22_3 H 0.9852 0.5652 0.1624
C29_4 C 0.0153(4) 0.0162(10) 0.6164(5)
C30_4 C 0.0651(4) 0.0961(11) 0.6193(5)
H20_4 H 0.0995 0.0447 0.6095
C31_4 C 0.0645(5) 0.2543(12) 0.6369(5)
H21_4 H 0.0986 0.3112 0.6387
C32_4 C 0.0149(4) 0.3270(11) 0.6514(5)
H22_4 H 0.0148 0.4348 0.6624
H11_4 H 0.0073 0.1074 0.8538
H12_4 H 0.0064 0.3523 0.7978
H19_4 H 0.0154 0.9099 0.6026
C28_4 C 0.9652(3) 0.0870(9) 0.6329(4)
C33_4 C 0.9653(4) 0.2469(9) 0.6501(5)
H23_4 H 0.9312 0.2986 0.6608
C34_4 C 0.8446(4) 0.0896(8) 0.6705(4)
C35_4 C 0.8186(4) 0.1956(8) 0.6280(5)
H24_4 H 0.8320 0.2134 0.5818
C36_4 C 0.7718(4) 0.2781(9) 0.6531(5)
H25_4 H 0.7521 0.3480 0.6234
C37_4 C 0.7546(4) 0.2552(10) 0.7231(6)
H26_4 H 0.7238 0.3128 0.7412
C38_4 C 0.7816(4) 0.1515(11) 0.7649(6)
H27_4 H 0.7687 0.1348 0.8114
C39_4 C 0.8281(4) 0.0689(9) 0.7403(5)
H28_6 H 0.8480 0.0001 0.7703
H3_4 H 0.9633 0.4248 0.0015
C14_4 C 0.7638(3) 0.4600(8) 0.0251(5)
H9_4 H 0.7616 0.3860 0.0621
C15_4 C 0.8117(3) 0.5463(8) 0.0193(4)
H10_4 H 0.8423 0.5275 0.0501
loop_
_geom_bond_atom_site_label_1
_geom_bond_atom_site_label_2
_geom_bond_site_symmetry_1
_geom_bond_site_symmetry_2
P1 C25 1_555 1_555
C23 C22 1_555 1_555
H15 C23 1_555 1_555
C24 C23 1_555 1_555
H16 C24 1_555 1_555
C25 C24 1_555 1_555
C26 C25 1_555 1_555
H17 C26 1_555 1_555
C27 C22 1_555 1_555
C28 P1 1_555 1_555
C29 C28 1_555 1_555
H19 C29 1_555 1_555
C30 C29 1_555 1_555
H20 C30 1_555 1_555
C31 C30 1_555 1_555
H21 C31 1_555 1_555
C32 C31 1_555 1_555
H22 C32 1_555 1_555
C33 C28 1_555 1_555
H23 C33 1_555 1_555
C34 P1 1_555 1_555
C35 C34 1_555 1_555
H24 C35 1_555 1_555
C36 C35 1_555 1_555
H25 C36 1_555 1_555
C37 C36 1_555 1_555
H26 C37 1_555 1_555
C38 C37 1_555 1_555
H27 C38 1_555 1_555
C39 C34 1_555 1_555
H28 C39 1_555 1_555
O1 P1 1_555 1_555
C26 C27 1_555 1_555
C32 C33 1_555 1_555
C38 C39 1_555 1_555
N4 O5 1_555 1_555
H9 C14 1_555 1_555
O6 N4 1_555 1_555
Co2 N1 1_555 1_555
N5 O2 1_555 1_555
C5 N1 1_555 1_555
O2 Co2 1_555 1_555
O3 Co2 1_555 1_555
O4 N5 1_555 1_555
Co3 N3 1_555 1_555
N6 Co2 1_555 1_555
N5 O3 1_555 1_555
C4 C5 1_555 1_555
Co3 N1_2 1_555 1_555
N1_2 C1 1_555 1_555
N5_2 O2_2 1_555 1_555
C1 H1 1_555 1_555
C2 C1 1_555 1_555
H2 C2 1_555 1_555
C3 C2 1_555 1_555
C4_2 C3 1_555 1_555
C5_2 N1_2 1_555 1_555
O2_2 Co3 1_555 1_555
O3_2 Co3 1_555 1_555
O4_2 N5_2 1_555 1_555
N5_2 O3_2 1_555 1_555
C4_2 C5_2 1_555 1_555
N2 C6 1_555 1_555
N6 C13 1_555 1_555
C7 C6 1_555 1_555
C8 C7 1_555 1_555
C9 C8 1_555 1_555
H6 C9 1_555 1_555
C10 N2 1_555 1_555
C11 C10 1_555 1_555
C12 C11 1_555 1_555
H7 C12 1_555 1_555
C13 C12 1_555 1_555
H8 C13 1_555 1_555
C9 C10 1_555 1_555
N2_2 C6_2 1_555 1_555
C1_2 H1_2 1_555 1_555
C2_2 C1_2 1_555 1_555
H2_2 C2_2 1_555 1_555
C3_2 C2_2 1_555 1_555
C6_2 C3_2 1_555 1_555
C7_2 C6_2 1_555 1_555
H5_2 C7_2 1_555 1_555
C8_2 C7_2 1_555 1_555
C9_2 C8_2 1_555 1_555
H6_2 C9_2 1_555 1_555
C10_2 N2_2 1_555 1_555
C11_2 C10_2 1_555 1_555
C12_2 C11_2 1_555 1_555
H7_2 C12_2 1_555 1_555
C13_2 C12_2 1_555 1_555
H8_2 C13_2 1_555 1_555
C15 C11_2 1_555 1_555
H10 C15 1_555 1_555
C16 C8_2 1_555 1_555
C17 C16 1_555 1_555
H11 C17 1_555 1_555
C18 C17 1_555 1_555
H12 C18 1_555 1_555
C19 C18 1_555 1_555
C20 C19 1_555 1_555
H13 C20 1_555 1_555
C21 C16 1_555 1_555
H14 C21 1_555 1_555
C9_2 C10_2 1_555 1_555
C20 C21 1_555 1_555
Co1 N1_3 1_555 1_555
N4_2 O5_2 1_555 1_555
N5_3 O2_3 1_555 1_555
H3_2 C4_3 1_555 1_555
C5_3 N1_3 1_555 1_555
H4_2 C5_3 1_555 1_555
C14_2 N3_2 1_555 1_555
H9_2 C14_2 1_555 1_555
O2_3 Co1 1_555 1_555
O3_3 Co1 1_555 1_555
O4_3 N5_3 1_555 1_555
O5_2 Co1 1_555 1_555
O6_2 N4_2 1_555 1_555
O7_3 N4_2 1_555 1_555
Co3_2 N3_2 1_555 1_555
N6_2 Co1 1_555 1_555
O8 Co1 1_555 1_555
N5_3 O3_3 1_555 1_555
C4_3 C5_3 1_555 1_555
P1_2 C25_2 1_555 1_555
C23_2 C22_2 1_555 1_555
H15_2 C23_2 1_555 1_555
C24_2 C23_2 1_555 1_555
H16_2 C24_2 1_555 1_555
C25_2 C24_2 1_555 1_555
C26_2 C25_2 1_555 1_555
H17_2 C26_2 1_555 1_555
C27_2 C22_2 1_555 1_555
C28_2 P1_2 1_555 1_555
C29_2 C28_2 1_555 1_555
H19_2 C29_2 1_555 1_555
C30_2 C29_2 1_555 1_555
H20_2 C30_2 1_555 1_555
C31_2 C30_2 1_555 1_555
H21_2 C31_2 1_555 1_555
C32_2 C31_2 1_555 1_555
H22_2 C32_2 1_555 1_555
C33_2 C28_2 1_555 1_555
H23_2 C33_2 1_555 1_555
C34_2 P1_2 1_555 1_555
C35_2 C34_2 1_555 1_555
H24_2 C35_2 1_555 1_555
C36_2 C35_2 1_555 1_555
H25_2 C36_2 1_555 1_555
C37_2 C36_2 1_555 1_555
H26_2 C37_2 1_555 1_555
C38_2 C37_2 1_555 1_555
H27_2 C38_2 1_555 1_555
C39_2 C34_2 1_555 1_555
H28_2 C39_2 1_555 1_555
O8 P1_2 1_555 1_555
C26_2 C27_2 1_555 1_555
C32_2 C33_2 1_555 1_555
C38_2 C39_2 1_555 1_555
N2_3 C6_3 1_555 1_555
N6_2 C13_3 1_555 1_555
C7_3 C6_3 1_555 1_555
C8_3 C7_3 1_555 1_555
C9_3 C8_3 1_555 1_555
H6_3 C9_3 1_555 1_555
C10_3 N2_3 1_555 1_555
C11_3 C10_3 1_555 1_555
C12_3 C11_3 1_555 1_555
H7_3 C12_3 1_555 1_555
C13_3 C12_3 1_555 1_555
H8_3 C13_3 1_555 1_555
C14_3 N6_2 1_555 1_555
H9_3 C14_3 1_555 1_555
C15_2 C11_3 1_555 1_555
H10_2 C15_2 1_555 1_555
C9_3 C10_3 1_555 1_555
C14_3 C15_2 1_555 1_555
Co3_2 N1_4 1_555 1_555
N1_4 C1_3 1_555 1_555
N4_3 O5_3 1_555 1_555
N5_4 O2_4 1_555 1_555
C1_3 H1_3 1_555 1_555
C2_3 C1_3 1_555 1_555
H2_3 C2_3 1_555 1_555
C3_3 C2_3 1_555 1_555
C4_4 C3_3 1_555 1_555
C5_4 N1_4 1_555 1_555
H4_3 C5_4 1_555 1_555
O2_4 Co3_2 1_555 1_555
O3_4 Co3_2 1_555 1_555
O4_4 N5_4 1_555 1_555
O5_3 Co3_2 1_555 1_555
O6_3 N4_3 1_555 1_555
O7_4 N4_3 1_555 1_555
O8_2 Co3_2 1_555 1_555
N5_4 O3_4 1_555 1_555
C4_4 C5_4 1_555 1_555
P1_3 C25_3 1_555 1_555
C17_2 C16_2 1_555 1_555
C18_2 C17_2 1_555 1_555
C19_2 C18_2 1_555 1_555
C20_2 C19_2 1_555 1_555
H13_2 C20_2 1_555 1_555
C21_2 C16_2 1_555 1_555
H14_2 C21_2 1_555 1_555
C22_3 C19_2 1_555 1_555
C23_3 C22_3 1_555 1_555
H15_3 C23_3 1_555 1_555
C24_3 C23_3 1_555 1_555
H16_3 C24_3 1_555 1_555
C25_3 C24_3 1_555 1_555
C26_3 C25_3 1_555 1_555
H17_3 C26_3 1_555 1_555
C27_3 C22_3 1_555 1_555
H18_2 C27_3 1_555 1_555
O8_2 P1_3 1_555 1_555
C20_2 C21_2 1_555 1_555
C26_3 C27_3 1_555 1_555
H10_3 C15_3 1_555 1_555
N2_4 C6_4 1_555 1_555
C1_4 H1_4 1_555 1_555
C2_4 C1_4 1_555 1_555
H2_4 C2_4 1_555 1_555
C3_4 C2_4 1_555 1_555
C6_4 C3_4 1_555 1_555
C7_4 C6_4 1_555 1_555
H5_4 C7_4 1_555 1_555
C8_4 C7_4 1_555 1_555
C9_4 C8_4 1_555 1_555
H6_4 C9_4 1_555 1_555
C10_4 N2_4 1_555 1_555
C11_4 C10_4 1_555 1_555
C12_4 C11_4 1_555 1_555
H7_4 C12_4 1_555 1_555
C13_4 C12_4 1_555 1_555
H8_4 C13_4 1_555 1_555
C16_3 C8_4 1_555 1_555
C17_3 C16_3 1_555 1_555
H11_2 C17_3 1_555 1_555
C18_3 C17_3 1_555 1_555
H12_2 C18_3 1_555 1_555
C19_3 C18_3 1_555 1_555
C20_3 C19_3 1_555 1_555
H13_3 C20_3 1_555 1_555
C21_3 C16_3 1_555 1_555
H14_3 C21_3 1_555 1_555
C9_4 C10_4 1_555 1_555
C20_3 C21_3 1_555 1_555
P1_4 C25_4 1_555 1_555
C17_4 C16_4 1_555 1_555
C18_4 C17_4 1_555 1_555
C19_4 C18_4 1_555 1_555
C20_4 C19_4 1_555 1_555
H13_4 C20_4 1_555 1_555
C21_4 C16_4 1_555 1_555
H14_4 C21_4 1_555 1_555
C22_4 C19_4 1_555 1_555
C23_4 C22_4 1_555 1_555
H15_4 C23_4 1_555 1_555
C24_4 C23_4 1_555 1_555
H16_4 C24_4 1_555 1_555
C25_4 C24_4 1_555 1_555
C26_4 C25_4 1_555 1_555
H17_4 C26_4 1_555 1_555
C27_4 C22_4 1_555 1_555
H18_4 C27_4 1_555 1_555
O1_2 P1_4 1_555 1_555
C20_4 C21_4 1_555 1_555
C26_4 C27_4 1_555 1_555
N4_4 O5_4 1_555 1_555
O6_4 N4_4 1_555 1_555
C33_3 C28_3 1_555 1_555
H23_3 C33_3 1_555 1_555
C35_3 C34_3 1_555 1_555
H24_3 C35_3 1_555 1_555
C36_3 C35_3 1_555 1_555
H25_3 C36_3 1_555 1_555
C37_3 C36_3 1_555 1_555
H26_3 C37_3 1_555 1_555
C38_3 C37_3 1_555 1_555
H27_3 C38_3 1_555 1_555
C39_3 C34_3 1_555 1_555
H28_5 C39_3 1_555 1_555
C38_3 C39_3 1_555 1_555
C30_3 C29_3 1_555 1_555
H20_3 C30_3 1_555 1_555
C31_3 C30_3 1_555 1_555
H21_3 C31_3 1_555 1_555
C32_3 C31_3 1_555 1_555
H22_3 C32_3 1_555 1_555
C30_4 C29_4 1_555 1_555
H20_4 C30_4 1_555 1_555
C31_4 C30_4 1_555 1_555
H21_4 C31_4 1_555 1_555
C32_4 C31_4 1_555 1_555
H22_4 C32_4 1_555 1_555
C33_4 C28_4 1_555 1_555
H23_4 C33_4 1_555 1_555
C35_4 C34_4 1_555 1_555
H24_4 C35_4 1_555 1_555
C36_4 C35_4 1_555 1_555
H25_4 C36_4 1_555 1_555
C37_4 C36_4 1_555 1_555
H26_4 C37_4 1_555 1_555
C38_4 C37_4 1_555 1_555
H27_4 C38_4 1_555 1_555
C39_4 C34_4 1_555 1_555
H28_6 C39_4 1_555 1_555
C38_4 C39_4 1_555 1_555
H9_4 C14_4 1_555 1_555
H10_4 C15_4 1_555 1_555
C14_4 C15_4 1_555 1_555

#END
