
###############################################################################
#
# This file contains modified crystal structure data generated from the
# MOF subset of the Cambridge Structural Database (CSD) v543 
# hosted by the Cambridge Crystallographic Data Centre (CCDC).
#
# This work is licensed under the Creative Commons
# Attribution-NonCommercial-ShareAlike 4.0 International License.
# To view a copy of this license, visit
# http://creativecommons.org/licenses/by-nc-sa/4.0/
# or send a letter to
# Creative Commons, PO Box 1866, Mountain View, CA 94042, USA.
#
# CIF created using the CSD Python API on 29 September 2022
# The structure has been converted into the P1 space group
# The structure has a 3D framework
# The original CSD entry YOXGOJ is in the triclinic crystal system
# The framework has been calculated to contain at least 10.0% void space
# The void calculation uses a probe of radius 1.32A, grid spacing 0.4
# H atom positions have been added when not included in the experimental data
# Generated hydrogen atom positions removed from atoms on special positions
#
###############################################################################

data_YOXGOJ
_chemical_formula_moiety         '(C34 H34 N8 Ni2 O24 P6 U7)n'
_symmetry_cell_setting           triclinic
_symmetry_space_group_name_H-M   'P 1'
_symmetry_Int_Tables_number      1
_space_group_name_Hall           'P 1'
loop_
_symmetry_equiv_pos_site_id
_symmetry_equiv_pos_as_xyz
1 x,y,z
_cell_length_a                   9.961(3)
_cell_length_b                   11.128(3)
_cell_length_c                   14.199(4)
_cell_angle_alpha                107.204(4)
_cell_angle_beta                 90.137(4)
_cell_angle_gamma                115.826(4)
_cell_volume                     1337.46
loop_
_atom_site_label
_atom_site_type_symbol
_atom_site_fract_x
_atom_site_fract_y
_atom_site_fract_z
U9 U 0.0000 0.0000 0.0000
O27 O 0.3547(7) 0.4260(7) 0.0089(5)
P3 P 0.0903(3) 0.0797(3) 0.7720(2)
O11 O 0.1920(8) 0.0081(7) 0.7443(5)
O12 O 0.1771(7) 0.2402(7) 0.8041(5)
U3 U 0.43383(4) 0.39557(4) 0.85028(3)
Ni2 Ni 0.69035(15) 0.37498(13) 0.49886(10)
P5 P 0.4286(3) 0.1904(3) 0.6040(2)
O18 O 0.4693(7) 0.2605(7) 0.8658(5)
O19 O 0.4026(8) 0.5367(7) 0.8379(5)
O20 O 0.4103(8) 0.3125(7) 0.6777(5)
O21 O 0.4018(8) 0.0731(7) 0.6503(6)
O22 O 0.5765(7) 0.2333(7) 0.5661(5)
O26 O 0.7085(8) 0.2129(7) 0.3949(6)
C29 C 0.2783(12) 0.1114(11) 0.5000(8)
C30 C 0.1716(11) 0.1580(11) 0.4992(8)
H21 H 0.1762 0.2331 0.5550
C31 C 0.0556(11) 0.0973(10) 0.4179(8)
C34 C 0.2704(12) 0.0012(11) 0.4177(8)
U9_2 U -0.0000 0.0000 1.0000
O29 O 0.6453(7) 0.5740(7) 0.9911(5)
O30 O 0.6921(7) 0.5039(7) 0.8219(5)
N9 N 0.5089(9) 0.3522(8) 0.4103(6)
N10 N 0.6572(9) 0.5457(8) 0.5877(6)
N11 N 0.8878(10) 0.4270(8) 0.5858(6)
N12 N 0.8508(10) 0.4974(8) 0.4251(6)
H30 H 0.298 0.0359222 0.6673
U9_3 U 0.0000 1.0000 0.0000
H4 H 0.0161 0.8678 0.5820
O23 O 0.0043(7) 0.9700(7) 0.1500(5)
C32 C 0.0474(12) 0.9854(10) 0.3372(7)
C33 C 0.1577(11) 0.9396(10) 0.3362(8)
H23 H 0.1555 0.8664 0.2798
H24 H 0.3434 0.9678 0.4175
U9_4 U 0.0000 1.0000 1.0000
U9_5 U 1.0000 0.0000 0.0000
O10 O 0.9957(7) 0.0300(7) 0.8500(5)
C7 C 0.9526(12) 0.0146(10) 0.6628(7)
C8 C 0.8423(11) 0.0604(10) 0.6638(8)
H5 H 0.8445 0.1336 0.7202
H6 H 0.6566 0.0322 0.5825
H22 H 0.9839 0.1322 0.4180
U9_6 U 1.0000 0.0000 1.0000
U9_7 U 1.0000 1.0000 0.0000
U1 U 0.56617(4) 0.60443(4) 0.14972(3)
Ni1 Ni 0.30965(15) 0.62502(13) 0.50114(10)
P1 P 0.2243(3) 0.3976(3) 0.0729(2)
P2 P 0.5714(3) 0.8096(3) 0.3960(2)
O1 O 0.5307(7) 0.7395(7) 0.1342(5)
O2 O 0.5974(8) 0.4633(7) 0.1621(5)
O5 O 0.3079(7) 0.4961(7) 0.1781(5)
O6 O 0.1350(7) 0.2427(7) 0.0641(5)
O7 O 0.5897(8) 0.6875(7) 0.3223(5)
O8 O 0.5982(8) 0.9269(7) 0.3497(6)
O9 O 0.4235(7) 0.7667(7) 0.4339(5)
O13 O 0.2915(8) 0.7871(7) 0.6051(6)
N1 N 0.4911(9) 0.6478(8) 0.5897(6)
N3 N 0.1122(10) 0.5730(8) 0.4142(6)
C1 C 0.0950(11) 0.4520(10) 0.0319(7)
C3 C 0.1401(13) 0.5957(11) 0.0531(9)
H2 H 0.2374 0.6627 0.0896
C4 C 0.7217(12) 0.8886(11) 0.5000(8)
C5 C 0.8284(11) 0.8420(11) 0.5008(8)
H3 H 0.8238 0.7669 0.4450
C6 C 0.9444(11) 0.9027(10) 0.5821(8)
C9 C 0.7296(12) 0.9988(11) 0.5823(8)
C10 C 0.5408(11) 0.5519(10) 0.5490(7)
C11 C 0.7323(11) 0.6443(10) 0.6772(7)
H7 H 0.8180 0.6449 0.7072
C12 C 0.6861(11) 0.7438(10) 0.7254(8)
H8 H 0.7361 0.8105 0.7894
C13 C 0.5650(11) 0.7434(10) 0.6776(7)
H9 H 0.5339 0.8133 0.7084
C17 C 0.0926(11) 0.6000(10) 0.3314(7)
H12 H 0.1769 0.6358 0.2985
C19 C 0.0442(14) 0.6436(12) 0.0215(10)
H13 H 0.0762 0.7420 0.0372
N6 N 0.3428(9) 0.4543(8) 0.4123(6)
C21 C 0.4592(11) 0.4481(10) 0.4510(7)
C22 C 0.2677(11) 0.3557(10) 0.3228(7)
H15 H 0.1820 0.3551 0.2928
C23 C 0.3139(11) 0.2562(10) 0.2746(8)
H16 H 0.2639 0.1895 0.2106
C24 C 0.4350(11) 0.2566(10) 0.3224(7)
H17 H 0.4661 0.1867 0.2916
N8 N 0.1492(10) 0.5026(8) 0.5749(6)
C25 C 0.0103(12) 0.4817(10) 0.5441(7)
C26 C 0.1651(11) 0.4729(10) 0.6574(7)
H18 H 0.2615 0.4869 0.6819
C27 C 0.0459(11) 0.4223(10) 0.7081(8)
H19 H 0.0590 0.4038 0.7678
P6 P 0.9097(3) 0.9203(3) 0.2280(2)
O24 O 0.8080(8) 0.9919(7) 0.2557(5)
O25 O 0.8229(7) 0.7598(7) 0.1959(5)
U9_8 U 1.0000 1.0000 1.0000
H25 H 0.523877 0.88673 0.288299
O17 O 0.1707(8) 0.9875(7) 0.9875(5)
O3 O 0.8293(8) 0.0125(7) 0.0125(5)
C14 C 0.9897(12) 0.5183(10) 0.4559(7)
C15 C 0.8349(11) 0.5271(10) 0.3426(7)
H10 H 0.7385 0.5131 0.3181
C16 C 0.9541(11) 0.5777(10) 0.2919(8)
H11 H 0.9410 0.5962 0.2322
C28 C 0.9074(11) 0.4000(10) 0.6686(7)
H20 H 0.8231 0.3642 0.7015
C2 C 0.9558(14) 0.3564(12) 0.9785(10)
H1 H 0.9238 0.2580 0.9628
P4 P 0.7757(3) 0.6024(3) 0.9271(2)
O16 O 0.8650(7) 0.7573(7) 0.9359(5)
C18 C 0.9050(11) 0.5480(10) 0.9681(7)
C20 C 0.8599(13) 0.4043(11) 0.9469(9)
H14 H 0.7626 0.3373 0.9104
H25_2 H 0.476123 0.11327 0.711701
H30_2 H 0.702 0.964078 0.3327
loop_
_geom_bond_atom_site_label_1
_geom_bond_atom_site_label_2
_geom_bond_site_symmetry_1
_geom_bond_site_symmetry_2
O11 P3 1_555 1_555
O12 P3 1_555 1_555
U3 O12 1_555 1_555
Ni2 O22 1_555 1_555
P5 O20 1_555 1_555
O18 U3 1_555 1_555
O19 U3 1_555 1_555
O20 U3 1_555 1_555
O21 P5 1_555 1_555
O22 P5 1_555 1_555
O26 Ni2 1_555 1_555
C29 P5 1_555 1_555
C30 C29 1_555 1_555
H21 C30 1_555 1_555
C31 C30 1_555 1_555
C34 C29 1_555 1_555
O29 U3 1_555 1_555
O30 U3 1_555 1_555
N9 Ni2 1_555 1_555
N10 Ni2 1_555 1_555
N11 Ni2 1_555 1_555
N12 Ni2 1_555 1_555
O21 H30 1_555 1_555
O23 U9_3 1_555 1_555
C33 C32 1_555 1_555
H23 C33 1_555 1_555
O10 U9_6 1_555 1_555
C8 C7 1_555 1_555
H5 C8 1_555 1_555
U1 O1 1_555 1_555
Ni1 O9 1_555 1_555
P1 O27 1_555 1_555
P2 O7 1_555 1_555
O2 U1 1_555 1_555
O27 U1 1_555 1_555
O5 U1 1_555 1_555
O6 U9 1_555 1_555
O7 U1 1_555 1_555
O8 P2 1_555 1_555
O9 P2 1_555 1_555
O13 Ni1 1_555 1_555
N1 Ni1 1_555 1_555
N10 C10 1_555 1_555
N3 Ni1 1_555 1_555
C1 P1 1_555 1_555
C3 C1 1_555 1_555
H2 C3 1_555 1_555
C4 P2 1_555 1_555
C5 C4 1_555 1_555
H3 C5 1_555 1_555
C6 C5 1_555 1_555
C9 C4 1_555 1_555
C10 N1 1_555 1_555
C11 N10 1_555 1_555
H7 C11 1_555 1_555
C12 C11 1_555 1_555
H8 C12 1_555 1_555
C13 N1 1_555 1_555
H9 C13 1_555 1_555
C17 N3 1_555 1_555
H12 C17 1_555 1_555
C19 C3 1_555 1_555
H13 C19 1_555 1_555
N9 C21 1_555 1_555
N6 Ni1 1_555 1_555
C21 C10 1_555 1_555
C22 N6 1_555 1_555
H15 C22 1_555 1_555
C23 C22 1_555 1_555
H16 C23 1_555 1_555
C24 N9 1_555 1_555
H17 C24 1_555 1_555
N8 Ni1 1_555 1_555
C26 N8 1_555 1_555
H18 C26 1_555 1_555
C27 C26 1_555 1_555
H19 C27 1_555 1_555
O24 P6 1_555 1_555
O25 U1 1_555 1_555
P1 O5 1_555 1_555
P1 O6 1_555 1_555
C12 C13 1_555 1_555
N6 C21 1_555 1_555
C23 C24 1_555 1_555
N8 C25 1_555 1_555
P6 O25 1_555 1_555
O8 H25 1_555 1_555
O17 U9_4 1_555 1_555
U9_5 O3 1_555 1_555
N12 C14 1_555 1_555
C15 N12 1_555 1_555
H10 C15 1_555 1_555
C16 C15 1_555 1_555
H11 C16 1_555 1_555
C28 N11 1_555 1_555
H20 C28 1_555 1_555
H1 C2 1_555 1_555
P4 O29 1_555 1_555
O30 P4 1_555 1_555
O16 P4 1_555 1_555
C18 P4 1_555 1_555
C20 C2 1_555 1_555
H14 C20 1_555 1_555
U9_8 O16 1_555 1_555
C18 C20 1_555 1_555
O21 H25_2 1_555 1_555
O8 H30_2 1_555 1_555

#END
