
###############################################################################
#
# This file contains modified crystal structure data generated from the
# MOF subset of the Cambridge Structural Database (CSD) v543 
# hosted by the Cambridge Crystallographic Data Centre (CCDC).
#
# This work is licensed under the Creative Commons
# Attribution-NonCommercial-ShareAlike 4.0 International License.
# To view a copy of this license, visit
# http://creativecommons.org/licenses/by-nc-sa/4.0/
# or send a letter to
# Creative Commons, PO Box 1866, Mountain View, CA 94042, USA.
#
# CIF created using the CSD Python API on 29 September 2022
# The structure has been converted into the P1 space group
# The structure has a 3D framework
# The original CSD entry YOYBUL is in the triclinic crystal system
# The framework has been calculated to contain at least 10.0% void space
# The void calculation uses a probe of radius 1.32A, grid spacing 0.4
#
###############################################################################

data_YOYBUL
_chemical_formula_moiety         '(C68 H44 N8 O8 Zn2)n'
_symmetry_cell_setting           triclinic
_symmetry_space_group_name_H-M   'P 1'
_symmetry_Int_Tables_number      1
_space_group_name_Hall           'P 1'
loop_
_symmetry_equiv_pos_site_id
_symmetry_equiv_pos_as_xyz
1 x,y,z
_cell_length_a                   11.4424(5)
_cell_length_b                   15.1352(8)
_cell_length_c                   15.2141(9)
_cell_angle_alpha                112.002(5)
_cell_angle_beta                 96.433(4)
_cell_angle_gamma                98.574(4)
_cell_volume                     2374.78
loop_
_atom_site_label
_atom_site_type_symbol
_atom_site_fract_x
_atom_site_fract_y
_atom_site_fract_z
Zn4 Zn 0.35040(3) 0.13899(2) 0.73096(3)
O1 O 0.3155(2) 0.99482(16) 0.69685(18)
O4 O 0.2741(3) 0.98325(18) 0.5465(2)
C1 C 0.3233(4) 0.6970(3) 0.5958(3)
H1 H 0.3274 0.6652 0.6375
N1 N 0.3556(2) 0.50767(18) 0.36818(18)
C2 C 0.3679(4) 0.2822(3) 0.1671(3)
H2 H 0.3504 0.2362 0.1931
C3 C 0.4236(3) 0.4162(3) 0.0871(2)
H3 H 0.4437 0.4621 0.0614
C4 C 0.3706(3) 0.3570(2) 0.3788(2)
H4 H 0.3819 0.2937 0.3491
N3 N 0.3583(2) 0.22076(18) 0.64422(18)
C5 C 0.3143(4) 0.7939(3) 0.6311(3)
H5 H 0.3148 0.8270 0.6965
C8 C 0.3265(3) 0.6469(2) 0.4996(2)
C9 C 0.3192(4) 0.6957(3) 0.4396(3)
H7 H 0.3219 0.6635 0.3747
C10 C 0.3545(3) 0.3921(2) 0.4747(2)
C11 C 0.3845(3) 0.3813(2) 0.2253(2)
C12 C 0.3396(3) 0.5431(2) 0.4593(2)
N4 N 0.1608(2) 0.1488(2) 0.7299(2)
C15 C 0.3370(3) 0.4883(2) 0.5147(2)
H9 H 0.3239 0.5149 0.5778
C16 C 0.0032(4) 0.2192(4) 0.7997(4)
C17 C 0.3553(3) 0.3328(2) 0.5324(2)
C19 C 0.4051(3) 0.3184(2) 0.0302(2)
C20 C 0.3651(4) 0.2365(3) 0.4959(3)
H12 H 0.3712 0.2065 0.4314
C21 C 0.3078(4) 0.7922(3) 0.4744(3)
H13 H 0.3023 0.8238 0.4326
C22 C 0.3700(3) 0.4155(2) 0.3281(2)
C23 C 0.4120(3) 0.4462(3) 0.1834(2)
H14 H 0.4233 0.5126 0.2208
C24 C 0.3774(4) 0.2523(3) 0.0705(3)
H15 H 0.3648 0.1861 0.0323
C26 C 0.2961(3) 0.9476(2) 0.6056(3)
C27 C 0.3045(3) 0.8416(2) 0.5708(3)
C29 C 0.0772(4) 0.0879(4) 0.6591(3)
H18 H 0.1012 0.0431 0.6071
C31 C 0.3490(4) 0.3695(3) 0.6282(3)
H19 H 0.3437 0.4344 0.6586
C32 C 0.3660(4) 0.1841(3) 0.5516(3)
H20 H 0.3724 0.1193 0.5233
C33 C 0.3504(4) 0.3136(3) 0.6801(3)
H21 H 0.3455 0.3423 0.7450
C34 C 0.1214(4) 0.2148(4) 0.7973(4)
H22 H 0.1785 0.2625 0.8475
O6 O 0.3798(2) 0.19461(19) 0.87507(16)
N5 N 0.5400(2) 0.13771(19) 0.72718(19)
O3 O 0.4388(3) 0.3469(2) 0.89092(18)
C30 C 0.4084(3) 0.2857(3) 0.9237(2)
C6 C 0.7419(3) 0.2296(3) 0.7681(3)
H6 H 0.7938 0.2902 0.7957
C7 C 0.9154(3) 0.1480(3) 0.7296(3)
C13 C 0.7862(3) 0.1448(3) 0.7301(2)
C14 C 0.9555(4) 0.0846(4) 0.6550(3)
H8 H 0.9010 0.0392 0.6013
H10 H 0.9825 0.2701 0.8485
C18 C 0.7041(3) 0.0575(3) 0.6897(3)
C25 C 0.6199(3) 0.2220(3) 0.7641(2)
H16 H 0.5914 0.2792 0.7886
C28 C 0.5832(3) 0.0563(3) 0.6914(3)
H11 H 0.7299 0.9995 0.6615
H17 H 0.5296 0.9965 0.6667
H11_2 H 0.2701 0.0005 0.3385
H17_2 H 0.4704 0.0035 0.3333
N2 N 0.4600(2) 0.86229(19) 0.27282(19)
C6_2 C 0.2581(3) 0.7704(3) 0.2319(3)
H6_2 H 0.2062 0.7098 0.2043
C7_2 C 0.0846(3) 0.8520(3) 0.2704(3)
C13_2 C 0.2138(3) 0.8552(3) 0.2699(2)
C14_2 C 0.0445(4) 0.9154(4) 0.3450(3)
H8_2 H 0.0990 0.9608 0.3987
H10_2 H 0.0175 0.7299 0.1515
C18_2 C 0.2959(3) 0.9425(3) 0.3103(3)
C25_2 C 0.3801(3) 0.7780(3) 0.2359(2)
H16_2 H 0.4086 0.7208 0.2114
C28_2 C 0.4168(3) 0.9437(3) 0.3086(3)
Zn2 Zn 0.64960(3) 0.86101(2) 0.26904(3)
O5 O 0.6845(2) 0.00518(16) 0.30315(18)
O2 O 0.6202(2) 0.80539(19) 0.12493(16)
O3_2 O 0.5612(3) 0.6531(2) 0.10908(18)
C30_2 C 0.5916(3) 0.7143(3) 0.0763(2)
O4_2 O 0.7259(3) 0.01675(18) 0.4535(2)
C1_2 C 0.6767(4) 0.3030(3) 0.4042(3)
H1_2 H 0.6726 0.3348 0.3625
N1_2 N 0.6444(2) 0.49233(18) 0.63182(18)
C2_2 C 0.6321(4) 0.7178(3) 0.8329(3)
H2_2 H 0.6496 0.7638 0.8069
C3_2 C 0.5764(3) 0.5838(3) 0.9129(2)
H3_2 H 0.5563 0.5379 0.9386
C4_2 C 0.6294(3) 0.6430(2) 0.6212(2)
H4_2 H 0.6181 0.7063 0.6509
N3_2 N 0.6417(2) 0.77924(18) 0.35578(18)
C5_2 C 0.6857(4) 0.2061(3) 0.3689(3)
H5_2 H 0.6852 0.1730 0.3035
C8_2 C 0.6735(3) 0.3531(2) 0.5004(2)
C9_2 C 0.6808(4) 0.3043(3) 0.5604(3)
H7_2 H 0.6781 0.3365 0.6253
C10_2 C 0.6455(3) 0.6079(2) 0.5253(2)
C11_2 C 0.6155(3) 0.6187(2) 0.7747(2)
C12_2 C 0.6604(3) 0.4569(2) 0.5407(2)
N4_2 N 0.8392(2) 0.8512(2) 0.2701(2)
C15_2 C 0.6630(3) 0.5117(2) 0.4853(2)
H9_2 H 0.6761 0.4851 0.4222
C16_2 C 0.9968(4) 0.7808(4) 0.2003(4)
C17_2 C 0.6447(3) 0.6672(2) 0.4676(2)
C19_2 C 0.5949(3) 0.6816(2) 0.9698(2)
C20_2 C 0.6349(4) 0.7635(3) 0.5041(3)
H12_2 H 0.6288 0.7935 0.5686
C21_2 C 0.6922(4) 0.2078(3) 0.5256(3)
H13_2 H 0.6977 0.1762 0.5674
C22_2 C 0.6300(3) 0.5845(2) 0.6719(2)
C23_2 C 0.5880(3) 0.5538(3) 0.8166(2)
H14_2 H 0.5767 0.4874 0.7792
C24_2 C 0.6226(4) 0.7477(3) 0.9295(3)
H15_2 H 0.6352 0.8139 0.9677
C26_2 C 0.7039(3) 0.0524(2) 0.3944(3)
C27_2 C 0.6955(3) 0.1584(2) 0.4292(3)
C29_2 C 0.9228(4) 0.9121(4) 0.3409(3)
H18_2 H 0.8988 0.9569 0.3929
C31_2 C 0.6510(4) 0.6305(3) 0.3718(3)
H19_2 H 0.6563 0.5656 0.3414
C32_2 C 0.6340(4) 0.8159(3) 0.4484(3)
H20_2 H 0.6276 0.8807 0.4767
C33_2 C 0.6496(4) 0.6864(3) 0.3199(3)
H21_2 H 0.6545 0.6577 0.2550
C34_2 C 0.8786(4) 0.7852(4) 0.2027(4)
H22_2 H 0.8215 0.7375 0.1525
loop_
_geom_bond_atom_site_label_1
_geom_bond_atom_site_label_2
_geom_bond_site_symmetry_1
_geom_bond_site_symmetry_2
Zn4 N3 1_555 1_555
O1 C26 1_555 1_555
O4 C26 1_555 1_555
C1 H1 1_555 1_555
N1 C12 1_555 1_555
C2 H2 1_555 1_555
C3 H3 1_555 1_555
C4 H4 1_555 1_555
N3 C32 1_555 1_555
C5 C1 1_555 1_555
H5 C5 1_555 1_555
C8 C1 1_555 1_555
C9 C8 1_555 1_555
H7 C9 1_555 1_555
C10 C4 1_555 1_555
C11 C2 1_555 1_555
C12 C8 1_555 1_555
N4 Zn4 1_555 1_555
C15 C10 1_555 1_555
H9 C15 1_555 1_555
C17 C10 1_555 1_555
C19 C3 1_555 1_555
C20 C17 1_555 1_555
H12 C20 1_555 1_555
C21 C9 1_555 1_555
H13 C21 1_555 1_555
C22 N1 1_555 1_555
C23 C3 1_555 1_555
H14 C23 1_555 1_555
C24 C2 1_555 1_555
H15 C24 1_555 1_555
C26 C27 1_555 1_555
C27 C5 1_555 1_555
C29 N4 1_555 1_555
H18 C29 1_555 1_555
C31 C17 1_555 1_555
H19 C31 1_555 1_555
C32 C20 1_555 1_555
H20 C32 1_555 1_555
C33 N3 1_555 1_555
H21 C33 1_555 1_555
C34 N4 1_555 1_555
H22 C34 1_555 1_555
O6 Zn4 1_555 1_555
N5 Zn4 1_555 1_555
C4 C22 1_555 1_555
C11 C22 1_555 1_555
C11 C23 1_555 1_555
C12 C15 1_555 1_555
C16 C34 1_555 1_555
C19 C24 1_555 1_555
C21 C27 1_555 1_555
C31 C33 1_555 1_555
O6 C30 1_555 1_555
O3 C30 1_555 1_555
N5 C25 1_555 1_555
C6 H6 1_555 1_555
C7 C13 1_555 1_555
C13 C6 1_555 1_555
C14 C7 1_555 1_555
H8 C14 1_555 1_555
C18 C13 1_555 1_555
C25 C6 1_555 1_555
H16 C25 1_555 1_555
C28 N5 1_555 1_555
C18 C28 1_555 1_555
N2 C25_2 1_555 1_555
C6_2 H6_2 1_555 1_555
C7_2 C13_2 1_555 1_555
C13_2 C6_2 1_555 1_555
C14_2 C7_2 1_555 1_555
H8_2 C14_2 1_555 1_555
C18_2 C13_2 1_555 1_555
C25_2 C6_2 1_555 1_555
H16_2 C25_2 1_555 1_555
C28_2 N2 1_555 1_555
Zn2 N2 1_555 1_555
C18_2 C28_2 1_555 1_555
O2 C30_2 1_555 1_555
O3_2 C30_2 1_555 1_555
Zn2 O2 1_555 1_555
Zn2 N3_2 1_555 1_555
O5 C26_2 1_555 1_555
O4_2 C26_2 1_555 1_555
C1_2 H1_2 1_555 1_555
N1_2 C12_2 1_555 1_555
C2_2 H2_2 1_555 1_555
C3_2 H3_2 1_555 1_555
C4_2 H4_2 1_555 1_555
N3_2 C32_2 1_555 1_555
C5_2 C1_2 1_555 1_555
H5_2 C5_2 1_555 1_555
C8_2 C1_2 1_555 1_555
C9_2 C8_2 1_555 1_555
H7_2 C9_2 1_555 1_555
C10_2 C4_2 1_555 1_555
C11_2 C2_2 1_555 1_555
C12_2 C8_2 1_555 1_555
N4_2 Zn2 1_555 1_555
C15_2 C10_2 1_555 1_555
H9_2 C15_2 1_555 1_555
C17_2 C10_2 1_555 1_555
C19_2 C3_2 1_555 1_555
C20_2 C17_2 1_555 1_555
H12_2 C20_2 1_555 1_555
C21_2 C9_2 1_555 1_555
H13_2 C21_2 1_555 1_555
C22_2 N1_2 1_555 1_555
C23_2 C3_2 1_555 1_555
H14_2 C23_2 1_555 1_555
C24_2 C2_2 1_555 1_555
H15_2 C24_2 1_555 1_555
C26_2 C27_2 1_555 1_555
C27_2 C5_2 1_555 1_555
C29_2 N4_2 1_555 1_555
H18_2 C29_2 1_555 1_555
C31_2 C17_2 1_555 1_555
H19_2 C31_2 1_555 1_555
C32_2 C20_2 1_555 1_555
H20_2 C32_2 1_555 1_555
C33_2 N3_2 1_555 1_555
H21_2 C33_2 1_555 1_555
C34_2 N4_2 1_555 1_555
H22_2 C34_2 1_555 1_555
C4_2 C22_2 1_555 1_555
C11_2 C22_2 1_555 1_555
C11_2 C23_2 1_555 1_555
C12_2 C15_2 1_555 1_555
C16_2 C34_2 1_555 1_555
C19_2 C24_2 1_555 1_555
C21_2 C27_2 1_555 1_555
C31_2 C33_2 1_555 1_555

#END
