
###############################################################################
#
# This file contains modified crystal structure data generated from the
# MOF subset of the Cambridge Structural Database (CSD) v543 
# hosted by the Cambridge Crystallographic Data Centre (CCDC).
#
# This work is licensed under the Creative Commons
# Attribution-NonCommercial-ShareAlike 4.0 International License.
# To view a copy of this license, visit
# http://creativecommons.org/licenses/by-nc-sa/4.0/
# or send a letter to
# Creative Commons, PO Box 1866, Mountain View, CA 94042, USA.
#
# CIF created using the CSD Python API on 29 September 2022
# The structure has been converted into the P1 space group
# The structure has a 3D framework
# The original CSD entry YOYJUS is in the tetragonal crystal system
# The framework has been calculated to contain at least 10.0% void space
# The void calculation uses a probe of radius 1.32A, grid spacing 0.4
# The framework is charged, counterions have been retained in the structure
#
###############################################################################

data_YOYJUS
_chemical_formula_moiety         '(C96 H64 Ag16 N44 12+)n'
_symmetry_cell_setting           triclinic
_symmetry_space_group_name_H-M   'P 1'
_symmetry_Int_Tables_number      1
_space_group_name_Hall           'P 1'
loop_
_symmetry_equiv_pos_site_id
_symmetry_equiv_pos_as_xyz
1 x,y,z
_cell_length_a                   14.3263(10)
_cell_length_b                   14.3263(10)
_cell_length_c                   14.1669(16)
_cell_angle_alpha                90
_cell_angle_beta                 90
_cell_angle_gamma                90
_cell_volume                     2907.66
loop_
_atom_site_label
_atom_site_type_symbol
_atom_site_fract_x
_atom_site_fract_y
_atom_site_fract_z
Ag3 Ag 0.1251 0.00000(3) 0.190423(18)
Ag9 Ag -0.0000 0.30988(3) 0.07648(4)
N4 N 0.2492(3) 0.0000 0.0914(3)
N7 N 0.3788(2) 0.0485(2) 0.0170(2)
N10 N 0.0485(2) 0.1212(2) 0.2670(2)
N13 N 0.1480(2) 0.2837(2) 0.0804(3)
C9 C 0.3013(2) 0.0737(2) 0.0619(2)
C12 C 0.1789(3) 0.1956(2) 0.0717(3)
H7 H 0.1352 0.1482 0.0646
C15 C 0.2731(2) 0.1717(2) 0.0729(3)
C18 C 0.3376(3) 0.2440(3) 0.0826(3)
H10 H 0.4012 0.2311 0.0848
C21 C 0.3060(3) 0.3346(3) 0.0888(4)
H13 H 0.3484 0.3836 0.0928
C24 C 0.2122(3) 0.3524(3) 0.0891(3)
H16 H 0.1919 0.4138 0.0954
Ag2 Ag 0.19012(3) -0.0000 0.82648(4)
Ag6 Ag 0.50000(3) 0.1251 0.940423(18)
Ag7 Ag 0.80988(3) -0.0000 0.82648(4)
N14 N 0.2163(2) 0.1480(2) 0.8304(3)
N15 N 0.7837(2) 0.1480(2) 0.8304(3)
Ag3_2 Ag 0.1251 1.00000(3) 0.190423(18)
Ag8 Ag -0.0000 0.69012(3) 0.07648(4)
N4_2 N 0.2492(3) 1.0000 0.0914(3)
N6 N 0.3788(2) 0.9515(2) 0.0170(2)
N8 N 0.6212(2) 0.9515(2) 0.0170(2)
N9 N 0.0485(2) 0.8788(2) 0.2670(2)
N12 N 0.1480(2) 0.7163(2) 0.0804(3)
C8 C 0.3013(2) 0.9263(2) 0.0619(2)
C11 C 0.1789(3) 0.8044(2) 0.0717(3)
H6 H 0.1352 0.8518 0.0646
C14 C 0.2731(2) 0.8283(2) 0.0729(3)
C17 C 0.3376(3) 0.7560(3) 0.0826(3)
H9 H 0.4012 0.7689 0.0848
C20 C 0.3060(3) 0.6654(3) 0.0888(4)
H12 H 0.3484 0.6164 0.0928
C23 C 0.2122(3) 0.6476(3) 0.0891(3)
H15 H 0.1919 0.5862 0.0954
Ag1 Ag 0.50000(3) 0.8749 0.940423(18)
Ag2_2 Ag 0.19012(3) 1.0000 0.82648(4)
N1 N 0.5000 0.7508(3) 0.8414(3)
N2 N 0.4515(2) 0.6212(2) 0.7670(2)
N3 N 0.2163(2) 0.8520(2) 0.8304(3)
C1 C 0.4263(2) 0.6987(2) 0.8119(2)
C2 C 0.3044(2) 0.8211(3) 0.8217(3)
H1 H 0.3518 0.8648 0.8146
C3 C 0.3283(2) 0.7269(2) 0.8229(3)
C4 C 0.2560(3) 0.6624(3) 0.8326(3)
H2 H 0.2689 0.5988 0.8348
C5 C 0.1654(3) 0.6940(3) 0.8388(4)
H3 H 0.1164 0.6516 0.8428
C6 C 0.1476(3) 0.7878(3) 0.8391(3)
H4 H 0.0862 0.8081 0.8454
Ag4 Ag 0.3749 0.50000(3) 0.690423(18)
Ag5 Ag 0.6251 0.50000(3) 0.690423(18)
Ag7_2 Ag 0.80988(3) 1.0000 0.82648(4)
N5 N 0.5485(2) 0.6212(2) 0.7670(2)
N11 N 0.7837(2) 0.8520(2) 0.8304(3)
C7 C 0.5737(2) 0.6987(2) 0.8119(2)
C10 C 0.6956(2) 0.8211(3) 0.8217(3)
H5 H 0.6482 0.8648 0.8146
C13 C 0.6717(2) 0.7269(2) 0.8229(3)
C16 C 0.7440(3) 0.6624(3) 0.8326(3)
H8 H 0.7311 0.5988 0.8348
C19 C 0.8346(3) 0.6940(3) 0.8388(4)
H11 H 0.8836 0.6516 0.8428
C22 C 0.8524(3) 0.7878(3) 0.8391(3)
H14 H 0.9138 0.8081 0.8454
Ag9_2 Ag 1.0000 0.30988(3) 0.07648(4)
Ag8_2 Ag 1.0000 0.69012(3) 0.07648(4)
Ag1_2 Ag 0.00000(3) 0.6251 0.440423(18)
Ag2_3 Ag 0.30988(3) 0.5000 0.32648(4)
N1_2 N 0.0000 0.7492(3) 0.3414(3)
N3_2 N 0.2837(2) 0.6480(2) 0.3304(3)
C1_2 C 0.0737(2) 0.8013(2) 0.3119(2)
C2_2 C 0.1956(2) 0.6789(3) 0.3217(3)
H1_2 H 0.1482 0.6352 0.3146
C3_2 C 0.1717(2) 0.7731(2) 0.3229(3)
C4_2 C 0.2440(3) 0.8376(3) 0.3326(3)
H2_2 H 0.2311 0.9012 0.3348
C5_2 C 0.3346(3) 0.8060(3) 0.3388(4)
H3_2 H 0.3836 0.8484 0.3428
C6_2 C 0.3524(3) 0.7122(3) 0.3391(3)
H4_2 H 0.4138 0.6919 0.3454
Ag6_2 Ag 0.00000(3) 0.3749 0.440423(18)
Ag8_3 Ag 0.5000 0.80988(3) 0.57648(4)
Ag9_3 Ag 0.5000 0.19012(3) 0.57648(4)
N4_3 N 0.2508(3) 0.5000 0.5914(3)
N6_2 N 0.1212(2) 0.5485(2) 0.5170(2)
N7_2 N 0.1212(2) 0.4515(2) 0.5170(2)
N10_2 N 0.4515(2) 0.3788(2) 0.7670(2)
N12_2 N 0.3520(2) 0.7837(2) 0.5804(3)
N13_2 N 0.3520(2) 0.2163(2) 0.5804(3)
N14_2 N 0.2837(2) 0.3520(2) 0.3304(3)
C8_2 C 0.1987(2) 0.5737(2) 0.5619(2)
C9_2 C 0.1987(2) 0.4263(2) 0.5619(2)
C11_2 C 0.3211(3) 0.6956(2) 0.5717(3)
C12_2 C 0.3211(3) 0.3044(2) 0.5717(3)
H6_2 H 0.3648 0.6482 0.5646
H7_2 H 0.3648 0.3518 0.5646
C14_2 C 0.2269(2) 0.6717(2) 0.5729(3)
C15_2 C 0.2269(2) 0.3283(2) 0.5729(3)
C17_2 C 0.1624(3) 0.7440(3) 0.5826(3)
C18_2 C 0.1624(3) 0.2560(3) 0.5826(3)
H9_2 H 0.0988 0.7311 0.5848
H10_2 H 0.0988 0.2689 0.5848
C20_2 C 0.1940(3) 0.8346(3) 0.5888(4)
C21_2 C 0.1940(3) 0.1654(3) 0.5888(4)
H12_2 H 0.1516 0.8836 0.5928
H13_2 H 0.1516 0.1164 0.5928
C23_2 C 0.2878(3) 0.8524(3) 0.5891(3)
C24_2 C 0.2878(3) 0.1476(3) 0.5891(3)
H15_2 H 0.3081 0.9138 0.5954
H16_2 H 0.3081 0.0862 0.5954
Ag5_2 Ag 0.8749 -0.00000(3) 0.190423(18)
Ag1_3 Ag 1.00000(3) 0.6251 0.440423(18)
N1_3 N 1.0000 0.7492(3) 0.3414(3)
Ag5_3 Ag 0.8749 1.00000(3) 0.190423(18)
Ag6_3 Ag 1.00000(3) 0.3749 0.440423(18)
Ag7_3 Ag 0.69012(3) 0.5000 0.32648(4)
N5_2 N 0.9515(2) 0.8788(2) 0.2670(2)
N8_2 N 0.8788(2) 0.5485(2) 0.5170(2)
N11_2 N 0.7163(2) 0.6480(2) 0.3304(3)
N15_2 N 0.7163(2) 0.3520(2) 0.3304(3)
C7_2 C 0.9263(2) 0.8013(2) 0.3119(2)
C10_2 C 0.8044(2) 0.6789(3) 0.3217(3)
H5_2 H 0.8518 0.6352 0.3146
C13_2 C 0.8283(2) 0.7731(2) 0.3229(3)
C16_2 C 0.7560(3) 0.8376(3) 0.3326(3)
H8_2 H 0.7689 0.9012 0.3348
C19_2 C 0.6654(3) 0.8060(3) 0.3388(4)
H11_2 H 0.6164 0.8484 0.3428
C22_2 C 0.6476(3) 0.7122(3) 0.3391(3)
H14_2 H 0.5862 0.6919 0.3454
N15_3 N 0.8520(2) 0.2837(2) 0.0804(3)
N14_3 N 0.8520(2) 0.7163(2) 0.0804(3)
N14_4 N 0.6480(2) 0.7837(2) 0.5804(3)
N15_4 N 0.6480(2) 0.2163(2) 0.5804(3)
N8_3 N 0.6212(2) 0.0485(2) 0.0170(2)
N1_4 N 0.5000 0.2492(3) 0.8414(3)
C1_3 C 0.4263(2) 0.3013(2) 0.8119(2)
C2_3 C 0.3044(2) 0.1789(3) 0.8217(3)
H1_3 H 0.3518 0.1352 0.8146
C3_3 C 0.3283(2) 0.2731(2) 0.8229(3)
C4_3 C 0.2560(3) 0.3376(3) 0.8326(3)
H2_3 H 0.2689 0.4012 0.8348
C5_3 C 0.1654(3) 0.3060(3) 0.8388(4)
H3_3 H 0.1164 0.3484 0.8428
C6_3 C 0.1476(3) 0.2122(3) 0.8391(3)
H4_3 H 0.0862 0.1919 0.8454
N5_3 N 0.5485(2) 0.3788(2) 0.7670(2)
C7_3 C 0.5737(2) 0.3013(2) 0.8119(2)
C10_3 C 0.6956(2) 0.1789(3) 0.8217(3)
H5_3 H 0.6482 0.1352 0.8146
C13_3 C 0.6717(2) 0.2731(2) 0.8229(3)
C16_3 C 0.7440(3) 0.3376(3) 0.8326(3)
H8_3 H 0.7311 0.4012 0.8348
C19_3 C 0.8346(3) 0.3060(3) 0.8388(4)
H11_3 H 0.8836 0.3484 0.8428
C22_3 C 0.8524(3) 0.2122(3) 0.8391(3)
H14_3 H 0.9138 0.1919 0.8454
N1_5 N 0.0000 0.2508(3) 0.3414(3)
C1_4 C 0.0737(2) 0.1987(2) 0.3119(2)
C2_4 C 0.1956(2) 0.3211(3) 0.3217(3)
H1_4 H 0.1482 0.3648 0.3146
C3_4 C 0.1717(2) 0.2269(2) 0.3229(3)
C4_4 C 0.2440(3) 0.1624(3) 0.3326(3)
H2_4 H 0.2311 0.0988 0.3348
C5_4 C 0.3346(3) 0.1940(3) 0.3388(4)
H3_4 H 0.3836 0.1516 0.3428
C6_4 C 0.3524(3) 0.2878(3) 0.3391(3)
H4_4 H 0.4138 0.3081 0.3454
N1_6 N 1.0000 0.2508(3) 0.3414(3)
N5_4 N 0.9515(2) 0.1212(2) 0.2670(2)
N8_4 N 0.8788(2) 0.4515(2) 0.5170(2)
C7_4 C 0.9263(2) 0.1987(2) 0.3119(2)
C10_4 C 0.8044(2) 0.3211(3) 0.3217(3)
H5_4 H 0.8518 0.3648 0.3146
C13_4 C 0.8283(2) 0.2269(2) 0.3229(3)
C16_4 C 0.7560(3) 0.1624(3) 0.3326(3)
H8_4 H 0.7689 0.0988 0.3348
C19_4 C 0.6654(3) 0.1940(3) 0.3388(4)
H11_4 H 0.6164 0.1516 0.3428
C22_4 C 0.6476(3) 0.2878(3) 0.3391(3)
H14_4 H 0.5862 0.3081 0.3454
N4_4 N 0.7492(3) 0.5000 0.5914(3)
C8_3 C 0.8013(2) 0.4263(2) 0.5619(2)
C9_3 C 0.8013(2) 0.5737(2) 0.5619(2)
C11_3 C 0.6789(3) 0.3044(2) 0.5717(3)
C12_3 C 0.6789(3) 0.6956(2) 0.5717(3)
H6_3 H 0.6352 0.3518 0.5646
H7_3 H 0.6352 0.6482 0.5646
C14_3 C 0.7731(2) 0.3283(2) 0.5729(3)
C15_3 C 0.7731(2) 0.6717(2) 0.5729(3)
C17_3 C 0.8376(3) 0.2560(3) 0.5826(3)
C18_3 C 0.8376(3) 0.7440(3) 0.5826(3)
H9_3 H 0.9012 0.2689 0.5848
H10_3 H 0.9012 0.7311 0.5848
C20_3 C 0.8060(3) 0.1654(3) 0.5888(4)
C21_3 C 0.8060(3) 0.8346(3) 0.5888(4)
H12_3 H 0.8484 0.1164 0.5928
H13_3 H 0.8484 0.8836 0.5928
C23_3 C 0.7122(3) 0.1476(3) 0.5891(3)
C24_3 C 0.7122(3) 0.8524(3) 0.5891(3)
H15_3 H 0.6919 0.0862 0.5954
H16_3 H 0.6919 0.9138 0.5954
N4_5 N 0.7508(3) 0.0000 0.0914(3)
C8_4 C 0.6987(2) 0.0737(2) 0.0619(2)
C11_4 C 0.8211(3) 0.1956(2) 0.0717(3)
H6_4 H 0.8648 0.1482 0.0646
C14_4 C 0.7269(2) 0.1717(2) 0.0729(3)
C17_4 C 0.6624(3) 0.2440(3) 0.0826(3)
H9_4 H 0.5988 0.2311 0.0848
C20_4 C 0.6940(3) 0.3346(3) 0.0888(4)
H12_4 H 0.6516 0.3836 0.0928
C23_4 C 0.7878(3) 0.3524(3) 0.0891(3)
H15_4 H 0.8081 0.4138 0.0954
N4_6 N 0.7508(3) 1.0000 0.0914(3)
C9_4 C 0.6987(2) 0.9263(2) 0.0619(2)
C12_4 C 0.8211(3) 0.8044(2) 0.0717(3)
H7_4 H 0.8648 0.8518 0.0646
C15_4 C 0.7269(2) 0.8283(2) 0.0729(3)
C18_4 C 0.6624(3) 0.7560(3) 0.0826(3)
H10_4 H 0.5988 0.7689 0.0848
C21_4 C 0.6940(3) 0.6654(3) 0.0888(4)
H13_4 H 0.6516 0.6164 0.0928
C24_4 C 0.7878(3) 0.6476(3) 0.0891(3)
H16_4 H 0.8081 0.5862 0.0954
loop_
_geom_bond_atom_site_label_1
_geom_bond_atom_site_label_2
_geom_bond_site_symmetry_1
_geom_bond_site_symmetry_2
Ag3 N4 1_555 1_555
Ag9 N13 1_555 1_555
N10 Ag3 1_555 1_555
N13 C12 1_555 1_555
C9 N4 1_555 1_555
C12 H7 1_555 1_555
C15 C9 1_555 1_555
C18 C15 1_555 1_555
H10 C18 1_555 1_555
C21 C18 1_555 1_555
H13 C21 1_555 1_555
C24 N13 1_555 1_555
H16 C24 1_555 1_555
N7 C9 1_555 1_555
C12 C15 1_555 1_555
C21 C24 1_555 1_555
N14 Ag2 1_555 1_555
N15 Ag7 1_555 1_555
Ag3_2 N4_2 1_555 1_555
Ag8 N12 1_555 1_555
N4_2 C8 1_555 1_555
N9 Ag3_2 1_555 1_555
N12 C11 1_555 1_555
C8 N6 1_555 1_555
C11 H6 1_555 1_555
C14 C8 1_555 1_555
C17 C14 1_555 1_555
H9 C17 1_555 1_555
C20 C17 1_555 1_555
H12 C20 1_555 1_555
C23 N12 1_555 1_555
H15 C23 1_555 1_555
C11 C14 1_555 1_555
C20 C23 1_555 1_555
Ag1 N1 1_555 1_555
Ag2_2 N3 1_555 1_555
N1 C1 1_555 1_555
N2 C1 1_555 1_555
N3 C2 1_555 1_555
C1 C3 1_555 1_555
C2 H1 1_555 1_555
C3 C2 1_555 1_555
C4 C3 1_555 1_555
H2 C4 1_555 1_555
C5 C4 1_555 1_555
H3 C5 1_555 1_555
C6 N3 1_555 1_555
H4 C6 1_555 1_555
Ag4 N2 1_555 1_555
Ag5 N5 1_555 1_555
Ag7_2 N11 1_555 1_555
N5 N2 1_555 1_555
N11 C10 1_555 1_555
C7 N1 1_555 1_555
C10 H5 1_555 1_555
C13 C7 1_555 1_555
C16 C13 1_555 1_555
H8 C16 1_555 1_555
C19 C16 1_555 1_555
H11 C19 1_555 1_555
C22 N11 1_555 1_555
H14 C22 1_555 1_555
C5 C6 1_555 1_555
N5 C7 1_555 1_555
C10 C13 1_555 1_555
C19 C22 1_555 1_555
Ag1_2 N1_2 1_555 1_555
Ag2_3 N3_2 1_555 1_555
N1_2 C1_2 1_555 1_555
N9 C1_2 1_555 1_555
N3_2 C2_2 1_555 1_555
C1_2 C3_2 1_555 1_555
C2_2 H1_2 1_555 1_555
C3_2 C2_2 1_555 1_555
C4_2 C3_2 1_555 1_555
H2_2 C4_2 1_555 1_555
C5_2 C4_2 1_555 1_555
H3_2 C5_2 1_555 1_555
C6_2 N3_2 1_555 1_555
H4_2 C6_2 1_555 1_555
Ag4 N4_3 1_555 1_555
Ag6_2 N7_2 1_555 1_555
Ag8_3 N12_2 1_555 1_555
Ag9_3 N13_2 1_555 1_555
N4_3 C8_2 1_555 1_555
N6_2 Ag1_2 1_555 1_555
N7_2 N6_2 1_555 1_555
N10_2 Ag4 1_555 1_555
N12_2 C11_2 1_555 1_555
N13_2 C12_2 1_555 1_555
N14_2 Ag2_3 1_555 1_555
C8_2 N6_2 1_555 1_555
C9_2 N4_3 1_555 1_555
C11_2 H6_2 1_555 1_555
C12_2 H7_2 1_555 1_555
C14_2 C8_2 1_555 1_555
C15_2 C9_2 1_555 1_555
C17_2 C14_2 1_555 1_555
C18_2 C15_2 1_555 1_555
H9_2 C17_2 1_555 1_555
H10_2 C18_2 1_555 1_555
C20_2 C17_2 1_555 1_555
C21_2 C18_2 1_555 1_555
H12_2 C20_2 1_555 1_555
H13_2 C21_2 1_555 1_555
C23_2 N12_2 1_555 1_555
C24_2 N13_2 1_555 1_555
H15_2 C23_2 1_555 1_555
H16_2 C24_2 1_555 1_555
C5_2 C6_2 1_555 1_555
N7_2 C9_2 1_555 1_555
C11_2 C14_2 1_555 1_555
C12_2 C15_2 1_555 1_555
C20_2 C23_2 1_555 1_555
C21_2 C24_2 1_555 1_555
Ag1_3 N1_3 1_555 1_555
Ag5_3 N5_2 1_555 1_555
Ag7_3 N11_2 1_555 1_555
N8_2 Ag1_3 1_555 1_555
N11_2 C10_2 1_555 1_555
N15_2 Ag7_3 1_555 1_555
C7_2 N1_3 1_555 1_555
C10_2 H5_2 1_555 1_555
C13_2 C7_2 1_555 1_555
C16_2 C13_2 1_555 1_555
H8_2 C16_2 1_555 1_555
C19_2 C16_2 1_555 1_555
H11_2 C19_2 1_555 1_555
C22_2 N11_2 1_555 1_555
H14_2 C22_2 1_555 1_555
N5_2 C7_2 1_555 1_555
C10_2 C13_2 1_555 1_555
C19_2 C22_2 1_555 1_555
N15_3 Ag9_2 1_555 1_555
N14_3 Ag8_2 1_555 1_555
N14_4 Ag8_3 1_555 1_555
N15_4 Ag9_3 1_555 1_555
Ag6 N1_4 1_555 1_555
N1_4 C1_3 1_555 1_555
N10_2 C1_3 1_555 1_555
N14 C2_3 1_555 1_555
C1_3 C3_3 1_555 1_555
C2_3 H1_3 1_555 1_555
C3_3 C2_3 1_555 1_555
C4_3 C3_3 1_555 1_555
H2_3 C4_3 1_555 1_555
C5_3 C4_3 1_555 1_555
H3_3 C5_3 1_555 1_555
C6_3 N14 1_555 1_555
H4_3 C6_3 1_555 1_555
Ag5 N5_3 1_555 1_555
N5_3 N10_2 1_555 1_555
N15 C10_3 1_555 1_555
C7_3 N1_4 1_555 1_555
C10_3 H5_3 1_555 1_555
C13_3 C7_3 1_555 1_555
C16_3 C13_3 1_555 1_555
H8_3 C16_3 1_555 1_555
C19_3 C16_3 1_555 1_555
H11_3 C19_3 1_555 1_555
C22_3 N15 1_555 1_555
H14_3 C22_3 1_555 1_555
C5_3 C6_3 1_555 1_555
N5_3 C7_3 1_555 1_555
C10_3 C13_3 1_555 1_555
C19_3 C22_3 1_555 1_555
Ag6_2 N1_5 1_555 1_555
N1_5 C1_4 1_555 1_555
N10 C1_4 1_555 1_555
N14_2 C2_4 1_555 1_555
C1_4 C3_4 1_555 1_555
C2_4 H1_4 1_555 1_555
C3_4 C2_4 1_555 1_555
C4_4 C3_4 1_555 1_555
H2_4 C4_4 1_555 1_555
C5_4 C4_4 1_555 1_555
H3_4 C5_4 1_555 1_555
C6_4 N14_2 1_555 1_555
H4_4 C6_4 1_555 1_555
C5_4 C6_4 1_555 1_555
Ag6_3 N1_6 1_555 1_555
Ag5_2 N5_4 1_555 1_555
N8_4 Ag6_3 1_555 1_555
N15_2 C10_4 1_555 1_555
C7_4 N1_6 1_555 1_555
C10_4 H5_4 1_555 1_555
C13_4 C7_4 1_555 1_555
C16_4 C13_4 1_555 1_555
H8_4 C16_4 1_555 1_555
C19_4 C16_4 1_555 1_555
H11_4 C19_4 1_555 1_555
C22_4 N15_2 1_555 1_555
H14_4 C22_4 1_555 1_555
N5_4 C7_4 1_555 1_555
C10_4 C13_4 1_555 1_555
C19_4 C22_4 1_555 1_555
Ag5 N4_4 1_555 1_555
N4_4 C8_3 1_555 1_555
N8_2 N8_4 1_555 1_555
N15_4 C11_3 1_555 1_555
N14_4 C12_3 1_555 1_555
C8_3 N8_4 1_555 1_555
C9_3 N4_4 1_555 1_555
C11_3 H6_3 1_555 1_555
C12_3 H7_3 1_555 1_555
C14_3 C8_3 1_555 1_555
C15_3 C9_3 1_555 1_555
C17_3 C14_3 1_555 1_555
C18_3 C15_3 1_555 1_555
H9_3 C17_3 1_555 1_555
H10_3 C18_3 1_555 1_555
C20_3 C17_3 1_555 1_555
C21_3 C18_3 1_555 1_555
H12_3 C20_3 1_555 1_555
H13_3 C21_3 1_555 1_555
C23_3 N15_4 1_555 1_555
C24_3 N14_4 1_555 1_555
H15_3 C23_3 1_555 1_555
H16_3 C24_3 1_555 1_555
N8_2 C9_3 1_555 1_555
C11_3 C14_3 1_555 1_555
C12_3 C15_3 1_555 1_555
C20_3 C23_3 1_555 1_555
C21_3 C24_3 1_555 1_555
Ag5_2 N4_5 1_555 1_555
N4_5 C8_4 1_555 1_555
N15_3 C11_4 1_555 1_555
C8_4 N8_3 1_555 1_555
C11_4 H6_4 1_555 1_555
C14_4 C8_4 1_555 1_555
C17_4 C14_4 1_555 1_555
H9_4 C17_4 1_555 1_555
C20_4 C17_4 1_555 1_555
H12_4 C20_4 1_555 1_555
C23_4 N15_3 1_555 1_555
H15_4 C23_4 1_555 1_555
C11_4 C14_4 1_555 1_555
C20_4 C23_4 1_555 1_555
Ag5_3 N4_6 1_555 1_555
N14_3 C12_4 1_555 1_555
C9_4 N4_6 1_555 1_555
C12_4 H7_4 1_555 1_555
C15_4 C9_4 1_555 1_555
C18_4 C15_4 1_555 1_555
H10_4 C18_4 1_555 1_555
C21_4 C18_4 1_555 1_555
H13_4 C21_4 1_555 1_555
C24_4 N14_3 1_555 1_555
H16_4 C24_4 1_555 1_555
N8 C9_4 1_555 1_555
C12_4 C15_4 1_555 1_555
C21_4 C24_4 1_555 1_555

#END
