
###############################################################################
#
# This file contains modified crystal structure data generated from the
# MOF subset of the Cambridge Structural Database (CSD) v543 
# hosted by the Cambridge Crystallographic Data Centre (CCDC).
#
# This work is licensed under the Creative Commons
# Attribution-NonCommercial-ShareAlike 4.0 International License.
# To view a copy of this license, visit
# http://creativecommons.org/licenses/by-nc-sa/4.0/
# or send a letter to
# Creative Commons, PO Box 1866, Mountain View, CA 94042, USA.
#
# CIF created using the CSD Python API on 29 September 2022
# The structure has been converted into the P1 space group
# The structure has a 3D framework
# The original CSD entry YOYNUX is in the trigonal crystal system
# The framework has been calculated to contain at least 10.0% void space
# The void calculation uses a probe of radius 1.32A, grid spacing 0.4
# The framework is charged, counterions have been retained in the structure
#
###############################################################################

data_YOYNUX
_chemical_formula_moiety         '(C126 H78 Cl6 N24 Ni4 O36 4-)n'
_symmetry_cell_setting           triclinic
_symmetry_space_group_name_H-M   'P 1'
_symmetry_Int_Tables_number      1
_space_group_name_Hall           'P 1'
loop_
_symmetry_equiv_pos_site_id
_symmetry_equiv_pos_as_xyz
1 x,y,z
_cell_length_a                   16.802(5)
_cell_length_b                   16.802(5)
_cell_length_c                   13.960(5)
_cell_angle_alpha                90
_cell_angle_beta                 90
_cell_angle_gamma                120
_cell_volume                     3413.01
loop_
_atom_site_label
_atom_site_type_symbol
_atom_site_fract_x
_atom_site_fract_y
_atom_site_fract_z
Cl1 Cl 0.19741(13) 0.80259(13) 0.2500
O1 O 0.2394(6) 0.9022(6) 0.2689(6)
O2 O 0.2185(9) 0.7583(5) 0.3098(11)
O3 O 0.0978(6) 0.7606(6) 0.2311(6)
O4 O 0.2417(5) 0.7815(9) 0.1902(11)
Cl1_2 Cl 0.19741(13) 0.39482(18) 0.2500
O1_2 O 0.0978(6) 0.3372(8) 0.2689(6)
O2_2 O 0.2417(5) 0.4602(10) 0.3098(11)
O3_2 O 0.2394(6) 0.3372(8) 0.2311(6)
O4_2 O 0.2185(9) 0.4602(10) 0.1902(11)
Cl1_3 Cl 0.60518(18) 0.80259(13) 0.2500
O1_3 O 0.6628(8) 0.7606(6) 0.2689(6)
O2_3 O 0.5398(10) 0.7815(9) 0.3098(11)
O3_3 O 0.6628(8) 0.9022(6) 0.2311(6)
O4_3 O 0.5398(10) 0.7583(5) 0.1902(11)
Cl1_4 Cl 0.80259(13) 0.19741(13) 0.7500
O1_4 O 0.7606(6) 0.0978(6) 0.7311(6)
O2_4 O 0.7815(9) 0.2417(5) 0.6902(11)
O3_4 O 0.9022(6) 0.2394(6) 0.7689(6)
O4_4 O 0.7583(5) 0.2185(9) 0.8098(11)
Cl1_5 Cl 0.80259(13) 0.60518(18) 0.7500
O1_5 O 0.9022(6) 0.6628(8) 0.7311(6)
O2_5 O 0.7583(5) 0.5398(10) 0.6902(11)
O3_5 O 0.7606(6) 0.6628(8) 0.7689(6)
O4_5 O 0.7815(9) 0.5398(10) 0.8098(11)
Cl1_6 Cl 0.39482(18) 0.19741(13) 0.7500
O1_6 O 0.3372(8) 0.2394(6) 0.7311(6)
O2_6 O 0.4602(10) 0.2185(9) 0.6902(11)
O3_6 O 0.3372(8) 0.0978(6) 0.7689(6)
O4_6 O 0.4602(10) 0.2417(5) 0.8098(11)
N1 N 0.11230(16) 0.50644(16) 0.41281(16)
N2 N 0.22851(15) 0.56156(15) 0.51762(16)
C4 C 0.06175(19) 0.50556(19) 0.33055(19)
C5 C 0.1100(3) 0.55499(14) 0.2500
H2 H 0.1739 0.5869 0.2500
C6 C 0.19114(18) 0.57979(19) 0.44469(18)
H3 H 0.2164 0.6379 0.4172
C7 C 0.1700(2) 0.4682(2) 0.5365(2)
C8 C 0.1754(3) 0.4120(2) 0.6064(3)
H4 H 0.2233 0.4346 0.6506
C9 C 0.1067(3) 0.3213(3) 0.6072(4)
H5 H 0.1089 0.2819 0.6525
C10 C 0.0338(4) 0.2865(3) 0.5420(4)
C11 C 0.0277(3) 0.3414(2) 0.4721(3)
C12 C 0.0963(2) 0.4325(2) 0.4714(2)
N3 N 0.11230(16) 0.60586(23) 0.08719(16)
C14 C 0.06175(19) 0.55619(27) 0.16945(19)
C15 C 0.19114(18) 0.61135(26) 0.05531(18)
H9 H 0.2164 0.5785 0.0828
C20 C 0.0277(3) 0.6863(4) 0.0279(3)
C21 C 0.0963(2) 0.6638(3) 0.0286(2)
Ni8 Ni 0.3333 0.6667 0.60348(4)
N4 N 0.22851(15) 0.66695(21) 0.98238(16)
C16 C 0.1700(2) 0.7018(3) 0.9635(2)
C17 C 0.1754(3) 0.7634(4) 0.8936(3)
H10 H 0.2233 0.7887 0.8494
C18 C 0.1067(3) 0.7854(4) 0.8928(4)
H11 H 0.1089 0.8270 0.8475
C19 C 0.0338(4) 0.7473(5) 0.9580(4)
Ni5 Ni 0.3333 0.6667 0.89652(4)
Ni1 Ni 0.6667 0.3333 0.10348(4)
O5 O 0.77773(13) 0.42457(13) 0.18150(13)
C1 C 0.8155(2) 0.40777(12) 0.2500
C2 C 0.9195(3) 0.45975(13) 0.2500
C3 C 0.96669(19) 0.45860(19) 0.33121(19)
H1 H 0.9347 0.4265 0.3855
H6 H 0.9884 0.2250 0.5458
H7 H 0.9799 0.3182 0.4279
O6 O 0.77773(13) 0.35316(18) 0.31850(13)
C13 C 0.96669(19) 0.50809(27) 0.16879(19)
H8 H 0.9347 0.5082 0.1145
H13 H 0.9799 0.6617 0.0721
O7 O 0.57543(13) 0.35316(18) 0.18150(13)
N5 N 0.49356(16) 0.60586(23) 0.41281(16)
N6 N 0.43844(15) 0.66695(21) 0.51762(16)
C22 C 0.59223(12) 0.40773(23) 0.2500
C23 C 0.54025(13) 0.45975(33) 0.2500
C24 C 0.54140(19) 0.50809(27) 0.33121(19)
H14 H 0.5735 0.5082 0.3855
C25 C 0.49444(19) 0.55619(27) 0.33055(19)
C26 C 0.44501(14) 0.55501(33) 0.2500
H15 H 0.4131 0.5870 0.2500
C27 C 0.42021(19) 0.61135(26) 0.44469(18)
H16 H 0.3621 0.5785 0.4172
C28 C 0.5318(2) 0.7018(3) 0.5365(2)
C29 C 0.5880(2) 0.7634(4) 0.6064(3)
H17 H 0.5654 0.7887 0.6506
C30 C 0.6787(3) 0.7854(4) 0.6072(4)
H18 H 0.7181 0.8270 0.6525
C31 C 0.7135(3) 0.7473(5) 0.5420(4)
H19 H 0.7750 0.7634 0.5458
C32 C 0.6586(2) 0.6863(4) 0.4721(3)
H20 H 0.6818 0.6617 0.4279
C33 C 0.5675(2) 0.6638(3) 0.4714(2)
O8 O 0.64684(18) 0.42457(13) 0.31850(13)
N7 N 0.39414(23) 0.50644(16) 0.08719(16)
C34 C 0.49191(27) 0.45860(19) 0.16879(19)
H21 H 0.4918 0.4265 0.1145
C35 C 0.44381(27) 0.50556(19) 0.16945(19)
C36 C 0.38865(26) 0.57979(19) 0.05531(18)
H22 H 0.4215 0.6379 0.0828
C41 C 0.3137(4) 0.3414(2) 0.0279(3)
H26 H 0.3383 0.3182 0.0721
C42 C 0.3362(3) 0.4325(2) 0.0286(2)
O9 O 0.64684(18) 0.22227(13) 0.18150(13)
C43 C 0.59227(23) 0.1845(2) 0.2500
C44 C 0.54025(33) 0.0805(3) 0.2500
C45 C 0.49191(27) 0.03331(19) 0.33121(19)
H27 H 0.4918 0.0653 0.3855
H32 H 0.2366 0.0116 0.5458
H33 H 0.3383 0.0201 0.4279
O10 O 0.57543(13) 0.22227(13) 0.31850(13)
C55 C 0.54140(19) 0.03331(19) 0.16879(19)
H34 H 0.5735 0.0653 0.1145
H39 H 0.6818 0.0201 0.0721
Ni2 Ni 0.6667 0.3333 0.39652(4)
N13 N 0.77149(15) 0.43844(15) 0.48238(16)
N14 N 0.56156(15) 0.33305(21) 0.48238(16)
N15 N 0.66695(21) 0.22851(15) 0.48238(16)
N16 N 0.56156(15) 0.22851(15) 0.01762(16)
N17 N 0.77149(15) 0.33305(21) 0.01762(16)
N18 N 0.66695(21) 0.43844(15) 0.01762(16)
H12 H 0.9884 0.7634 0.9542
N8 N 0.33305(21) 0.56156(15) 0.98238(16)
C37 C 0.2982(3) 0.4682(2) 0.9635(2)
C38 C 0.2366(4) 0.4120(2) 0.8936(3)
H23 H 0.2113 0.4346 0.8494
C39 C 0.2146(4) 0.3213(3) 0.8928(4)
H24 H 0.1730 0.2819 0.8475
C40 C 0.2527(5) 0.2865(3) 0.9580(4)
H25 H 0.2366 0.2250 0.9542
H38 H 0.7750 0.0116 0.9542
N9 N 0.39414(23) 0.88770(16) 0.41281(16)
N10 N 0.33305(21) 0.77149(15) 0.51762(16)
C46 C 0.44381(27) 0.93825(19) 0.33055(19)
C47 C 0.44499(33) 0.8900(3) 0.2500
H28 H 0.4130 0.8261 0.2500
C48 C 0.38865(26) 0.80886(18) 0.44469(18)
H29 H 0.4215 0.7836 0.4172
C49 C 0.2982(3) 0.8300(2) 0.5365(2)
C50 C 0.2366(4) 0.8246(3) 0.6064(3)
H30 H 0.2113 0.7767 0.6506
C51 C 0.2146(4) 0.8933(3) 0.6072(4)
H31 H 0.1730 0.8911 0.6525
C52 C 0.2527(5) 0.9662(4) 0.5420(4)
C53 C 0.3137(4) 0.9723(3) 0.4721(3)
C54 C 0.3362(3) 0.9037(2) 0.4714(2)
N11 N 0.49356(16) 0.88770(16) 0.08719(16)
C56 C 0.49444(19) 0.93825(19) 0.16945(19)
C57 C 0.42021(19) 0.80886(18) 0.05531(18)
H35 H 0.3621 0.7836 0.0828
C62 C 0.6586(2) 0.9723(3) 0.0279(3)
C63 C 0.5675(2) 0.9037(2) 0.0286(2)
N12 N 0.43844(15) 0.77149(15) 0.98238(16)
C58 C 0.5318(2) 0.8300(2) 0.9635(2)
C59 C 0.5880(2) 0.8246(3) 0.8936(3)
H36 H 0.5654 0.7767 0.8494
C60 C 0.6787(3) 0.8933(3) 0.8928(4)
H37 H 0.7181 0.8911 0.8475
C61 C 0.7135(3) 0.9662(4) 0.9580(4)
C58_2 C 0.4682(2) 0.1700(2) 0.0365(2)
C59_2 C 0.4120(2) 0.1754(3) 0.1064(3)
H36_2 H 0.4346 0.2233 0.1506
C60_2 C 0.3213(3) 0.1067(3) 0.1072(4)
H37_2 H 0.2819 0.1089 0.1525
C61_2 C 0.2865(3) 0.0338(4) 0.0420(4)
N9_2 N 0.60586(23) 0.11230(16) 0.58719(16)
C46_2 C 0.55619(27) 0.06175(19) 0.66945(19)
C47_2 C 0.55501(33) 0.1100(3) 0.7500
H28_2 H 0.5870 0.1739 0.7500
C48_2 C 0.61135(26) 0.19114(18) 0.55531(18)
H29_2 H 0.5785 0.2164 0.5828
C49_2 C 0.7018(3) 0.1700(2) 0.4635(2)
C50_2 C 0.7634(4) 0.1754(3) 0.3936(3)
H30_2 H 0.7887 0.2233 0.3494
C51_2 C 0.7854(4) 0.1067(3) 0.3928(4)
H31_2 H 0.8270 0.1089 0.3475
C52_2 C 0.7473(5) 0.0338(4) 0.4580(4)
C53_2 C 0.6863(4) 0.0277(3) 0.5279(3)
C54_2 C 0.6638(3) 0.0963(2) 0.5286(2)
N11_2 N 0.50644(16) 0.11230(16) 0.91281(16)
C56_2 C 0.50556(19) 0.06175(19) 0.83055(19)
C57_2 C 0.57979(19) 0.19114(18) 0.94469(18)
H35_2 H 0.6379 0.2164 0.9172
C62_2 C 0.3414(2) 0.0277(3) 0.9721(3)
C63_2 C 0.4325(2) 0.0963(2) 0.9714(2)
H12_2 H 0.0116 0.2366 0.0458
C37_2 C 0.7018(3) 0.5318(2) 0.0365(2)
C38_2 C 0.7634(4) 0.5880(2) 0.1064(3)
H23_2 H 0.7887 0.5654 0.1506
C39_2 C 0.7854(4) 0.6787(3) 0.1072(4)
H24_2 H 0.8270 0.7181 0.1525
C40_2 C 0.7473(5) 0.7135(3) 0.0420(4)
H25_2 H 0.7634 0.7750 0.0458
H38_2 H 0.2250 0.9884 0.0458
O5_2 O 0.22227(13) 0.57543(13) 0.81850(13)
C1_2 C 0.1845(2) 0.59223(12) 0.7500
C2_2 C 0.0805(3) 0.54025(13) 0.7500
C3_2 C 0.03331(19) 0.54140(19) 0.66879(19)
H1_2 H 0.0653 0.5735 0.6145
H6_2 H 0.0116 0.7750 0.4542
H7_2 H 0.0201 0.6818 0.5721
O6_2 O 0.22227(13) 0.64684(18) 0.68150(13)
C13_2 C 0.03331(19) 0.49191(27) 0.83121(19)
H8_2 H 0.0653 0.4918 0.8855
H13_2 H 0.0201 0.3383 0.9279
O7_2 O 0.42457(13) 0.64684(18) 0.81850(13)
N5_2 N 0.50644(16) 0.39414(23) 0.58719(16)
C22_2 C 0.40777(12) 0.59227(23) 0.7500
C23_2 C 0.45975(13) 0.54025(33) 0.7500
C24_2 C 0.45860(19) 0.49191(27) 0.66879(19)
H14_2 H 0.4265 0.4918 0.6145
C25_2 C 0.50556(19) 0.44381(27) 0.66945(19)
C26_2 C 0.55499(14) 0.44499(33) 0.7500
H15_2 H 0.5869 0.4130 0.7500
C27_2 C 0.57979(19) 0.38865(26) 0.55531(18)
H16_2 H 0.6379 0.4215 0.5828
C28_2 C 0.4682(2) 0.2982(3) 0.4635(2)
C29_2 C 0.4120(2) 0.2366(4) 0.3936(3)
H17_2 H 0.4346 0.2113 0.3494
C30_2 C 0.3213(3) 0.2146(4) 0.3928(4)
H18_2 H 0.2819 0.1730 0.3475
C31_2 C 0.2865(3) 0.2527(5) 0.4580(4)
H19_2 H 0.2250 0.2366 0.4542
C32_2 C 0.3414(2) 0.3137(4) 0.5279(3)
H20_2 H 0.3182 0.3383 0.5721
C33_2 C 0.4325(2) 0.3362(3) 0.5286(2)
O8_2 O 0.35316(18) 0.57543(13) 0.68150(13)
N7_2 N 0.60586(23) 0.49356(16) 0.91281(16)
C34_2 C 0.50809(27) 0.54140(19) 0.83121(19)
H21_2 H 0.5082 0.5735 0.8855
C35_2 C 0.55619(27) 0.49444(19) 0.83055(19)
C36_2 C 0.61135(26) 0.42021(19) 0.94469(18)
H22_2 H 0.5785 0.3621 0.9172
C41_2 C 0.6863(4) 0.6586(2) 0.9721(3)
H26_2 H 0.6617 0.6818 0.9279
C42_2 C 0.6638(3) 0.5675(2) 0.9714(2)
O9_2 O 0.35316(18) 0.77773(13) 0.81850(13)
C43_2 C 0.40773(23) 0.8155(2) 0.7500
C44_2 C 0.45975(33) 0.9195(3) 0.7500
C45_2 C 0.50809(27) 0.96669(19) 0.66879(19)
H27_2 H 0.5082 0.9347 0.6145
H32_2 H 0.7634 0.9884 0.4542
H33_2 H 0.6617 0.9799 0.5721
O10_2 O 0.42457(13) 0.77773(13) 0.68150(13)
C55_2 C 0.45860(19) 0.96669(19) 0.83121(19)
H34_2 H 0.4265 0.9347 0.8855
H39_2 H 0.3182 0.9799 0.9279
C16_2 C 0.8300(2) 0.2982(3) 0.0365(2)
C17_2 C 0.8246(3) 0.2366(4) 0.1064(3)
H10_2 H 0.7767 0.2113 0.1506
C18_2 C 0.8933(3) 0.2146(4) 0.1072(4)
H11_2 H 0.8911 0.1730 0.1525
C19_2 C 0.9662(4) 0.2527(5) 0.0420(4)
N1_2 N 0.88770(16) 0.49356(16) 0.58719(16)
C4_2 C 0.93825(19) 0.49444(19) 0.66945(19)
C5_2 C 0.8900(3) 0.44501(14) 0.7500
H2_2 H 0.8261 0.4131 0.7500
C6_2 C 0.80886(18) 0.42021(19) 0.55531(18)
H3_2 H 0.7836 0.3621 0.5828
C7_2 C 0.8300(2) 0.5318(2) 0.4635(2)
C8_2 C 0.8246(3) 0.5880(2) 0.3936(3)
H4_2 H 0.7767 0.5654 0.3494
C9_2 C 0.8933(3) 0.6787(3) 0.3928(4)
H5_2 H 0.8911 0.7181 0.3475
C10_2 C 0.9662(4) 0.7135(3) 0.4580(4)
C11_2 C 0.9723(3) 0.6586(2) 0.5279(3)
C12_2 C 0.9037(2) 0.5675(2) 0.5286(2)
N3_2 N 0.88770(16) 0.39414(23) 0.91281(16)
C14_2 C 0.93825(19) 0.44381(27) 0.83055(19)
C15_2 C 0.80886(18) 0.38865(26) 0.94469(18)
H9_2 H 0.7836 0.4215 0.9172
C20_2 C 0.9723(3) 0.3137(4) 0.9721(3)
C21_2 C 0.9037(2) 0.3362(3) 0.9714(2)
loop_
_geom_bond_atom_site_label_1
_geom_bond_atom_site_label_2
_geom_bond_site_symmetry_1
_geom_bond_site_symmetry_2
Cl1 O1 1_555 1_555
O2 Cl1 1_555 1_555
O3 Cl1 1_555 1_555
O4 Cl1 1_555 1_555
Cl1_2 O1_2 1_555 1_555
O2_2 Cl1_2 1_555 1_555
O3_2 Cl1_2 1_555 1_555
O4_2 Cl1_2 1_555 1_555
Cl1_3 O1_3 1_555 1_555
O2_3 Cl1_3 1_555 1_555
O3_3 Cl1_3 1_555 1_555
O4_3 Cl1_3 1_555 1_555
Cl1_4 O1_4 1_555 1_555
O2_4 Cl1_4 1_555 1_555
O3_4 Cl1_4 1_555 1_555
O4_4 Cl1_4 1_555 1_555
Cl1_5 O1_5 1_555 1_555
O2_5 Cl1_5 1_555 1_555
O3_5 Cl1_5 1_555 1_555
O4_5 Cl1_5 1_555 1_555
Cl1_6 O1_6 1_555 1_555
O2_6 Cl1_6 1_555 1_555
O3_6 Cl1_6 1_555 1_555
O4_6 Cl1_6 1_555 1_555
N1 C4 1_555 1_555
N2 C6 1_555 1_555
C5 C4 1_555 1_555
H2 C5 1_555 1_555
C6 N1 1_555 1_555
H3 C6 1_555 1_555
C7 N2 1_555 1_555
C8 C7 1_555 1_555
H4 C8 1_555 1_555
C9 C8 1_555 1_555
H5 C9 1_555 1_555
C10 C9 1_555 1_555
C11 C10 1_555 1_555
C12 N1 1_555 1_555
N3 C14 1_555 1_555
C14 C5 1_555 1_555
C15 N3 1_555 1_555
H9 C15 1_555 1_555
C21 N3 1_555 1_555
Ni8 N2 1_555 1_555
C7 C12 1_555 1_555
C11 C12 1_555 1_555
C20 C21 1_555 1_555
C16 N4 1_555 1_555
C17 C16 1_555 1_555
H10 C17 1_555 1_555
C18 C17 1_555 1_555
H11 C18 1_555 1_555
C19 C18 1_555 1_555
Ni5 N4 1_555 1_555
Ni1 O5 1_555 1_555
O5 C1 1_555 1_555
C1 C2 1_555 1_555
C2 C3 1_555 1_555
C3 H1 1_555 1_555
O6 C1 1_555 1_555
C13 C2 1_555 1_555
H8 C13 1_555 1_555
O7 Ni1 1_555 1_555
N5 C25 1_555 1_555
N6 C27 1_555 1_555
C22 O7 1_555 1_555
C23 C22 1_555 1_555
C24 C23 1_555 1_555
H14 C24 1_555 1_555
C25 C24 1_555 1_555
C26 C25 1_555 1_555
H15 C26 1_555 1_555
C27 N5 1_555 1_555
H16 C27 1_555 1_555
C28 N6 1_555 1_555
C29 C28 1_555 1_555
H17 C29 1_555 1_555
C30 C29 1_555 1_555
H18 C30 1_555 1_555
C31 C30 1_555 1_555
H19 C31 1_555 1_555
C32 C31 1_555 1_555
H20 C32 1_555 1_555
C33 N5 1_555 1_555
O8 C22 1_555 1_555
N7 C35 1_555 1_555
C34 C23 1_555 1_555
H21 C34 1_555 1_555
C35 C26 1_555 1_555
C36 N7 1_555 1_555
H22 C36 1_555 1_555
H26 C41 1_555 1_555
C42 N7 1_555 1_555
O9 Ni1 1_555 1_555
C43 O9 1_555 1_555
C44 C43 1_555 1_555
C45 C44 1_555 1_555
H27 C45 1_555 1_555
O10 C43 1_555 1_555
C55 C44 1_555 1_555
H34 C55 1_555 1_555
Ni2 O6 1_555 1_555
Ni8 N6 1_555 1_555
N13 Ni2 1_555 1_555
N14 Ni2 1_555 1_555
N15 Ni2 1_555 1_555
N16 Ni1 1_555 1_555
N17 Ni1 1_555 1_555
N18 Ni1 1_555 1_555
C28 C33 1_555 1_555
C32 C33 1_555 1_555
O8 Ni2 1_555 1_555
C34 C35 1_555 1_555
C41 C42 1_555 1_555
O10 Ni2 1_555 1_555
C37 N8 1_555 1_555
C38 C37 1_555 1_555
H23 C38 1_555 1_555
C39 C38 1_555 1_555
H24 C39 1_555 1_555
C40 C39 1_555 1_555
H25 C40 1_555 1_555
Ni5 N8 1_555 1_555
N9 C46 1_555 1_555
N10 C48 1_555 1_555
C47 C46 1_555 1_555
H28 C47 1_555 1_555
C48 N9 1_555 1_555
H29 C48 1_555 1_555
C49 N10 1_555 1_555
C50 C49 1_555 1_555
H30 C50 1_555 1_555
C51 C50 1_555 1_555
H31 C51 1_555 1_555
C52 C51 1_555 1_555
C53 C52 1_555 1_555
C54 N9 1_555 1_555
N11 C56 1_555 1_555
C56 C47 1_555 1_555
C57 N11 1_555 1_555
H35 C57 1_555 1_555
C63 N11 1_555 1_555
Ni8 N10 1_555 1_555
C49 C54 1_555 1_555
C53 C54 1_555 1_555
C62 C63 1_555 1_555
C58 N12 1_555 1_555
C59 C58 1_555 1_555
H36 C59 1_555 1_555
C60 C59 1_555 1_555
H37 C60 1_555 1_555
C61 C60 1_555 1_555
Ni5 N12 1_555 1_555
C58_2 N16 1_555 1_555
C59_2 C58_2 1_555 1_555
H36_2 C59_2 1_555 1_555
C60_2 C59_2 1_555 1_555
H37_2 C60_2 1_555 1_555
C61_2 C60_2 1_555 1_555
N9_2 C46_2 1_555 1_555
N15 C48_2 1_555 1_555
C47_2 C46_2 1_555 1_555
H28_2 C47_2 1_555 1_555
C48_2 N9_2 1_555 1_555
H29_2 C48_2 1_555 1_555
C49_2 N15 1_555 1_555
C50_2 C49_2 1_555 1_555
H30_2 C50_2 1_555 1_555
C51_2 C50_2 1_555 1_555
H31_2 C51_2 1_555 1_555
C52_2 C51_2 1_555 1_555
C53_2 C52_2 1_555 1_555
C54_2 N9_2 1_555 1_555
N11_2 C56_2 1_555 1_555
C56_2 C47_2 1_555 1_555
C57_2 N11_2 1_555 1_555
H35_2 C57_2 1_555 1_555
C63_2 N11_2 1_555 1_555
C49_2 C54_2 1_555 1_555
C53_2 C54_2 1_555 1_555
C62_2 C63_2 1_555 1_555
C37_2 N18 1_555 1_555
C38_2 C37_2 1_555 1_555
H23_2 C38_2 1_555 1_555
C39_2 C38_2 1_555 1_555
H24_2 C39_2 1_555 1_555
C40_2 C39_2 1_555 1_555
H25_2 C40_2 1_555 1_555
Ni5 O5_2 1_555 1_555
O5_2 C1_2 1_555 1_555
C1_2 C2_2 1_555 1_555
C2_2 C3_2 1_555 1_555
C3_2 H1_2 1_555 1_555
O6_2 C1_2 1_555 1_555
C13_2 C2_2 1_555 1_555
H8_2 C13_2 1_555 1_555
O7_2 Ni5 1_555 1_555
N5_2 C25_2 1_555 1_555
N14 C27_2 1_555 1_555
C22_2 O7_2 1_555 1_555
C23_2 C22_2 1_555 1_555
C24_2 C23_2 1_555 1_555
H14_2 C24_2 1_555 1_555
C25_2 C24_2 1_555 1_555
C26_2 C25_2 1_555 1_555
H15_2 C26_2 1_555 1_555
C27_2 N5_2 1_555 1_555
H16_2 C27_2 1_555 1_555
C28_2 N14 1_555 1_555
C29_2 C28_2 1_555 1_555
H17_2 C29_2 1_555 1_555
C30_2 C29_2 1_555 1_555
H18_2 C30_2 1_555 1_555
C31_2 C30_2 1_555 1_555
H19_2 C31_2 1_555 1_555
C32_2 C31_2 1_555 1_555
H20_2 C32_2 1_555 1_555
C33_2 N5_2 1_555 1_555
O8_2 C22_2 1_555 1_555
N7_2 C35_2 1_555 1_555
C34_2 C23_2 1_555 1_555
H21_2 C34_2 1_555 1_555
C35_2 C26_2 1_555 1_555
C36_2 N7_2 1_555 1_555
H22_2 C36_2 1_555 1_555
H26_2 C41_2 1_555 1_555
C42_2 N7_2 1_555 1_555
O9_2 Ni5 1_555 1_555
C43_2 O9_2 1_555 1_555
C44_2 C43_2 1_555 1_555
C45_2 C44_2 1_555 1_555
H27_2 C45_2 1_555 1_555
O10_2 C43_2 1_555 1_555
C55_2 C44_2 1_555 1_555
H34_2 C55_2 1_555 1_555
Ni8 O6_2 1_555 1_555
C28_2 C33_2 1_555 1_555
C32_2 C33_2 1_555 1_555
O8_2 Ni8 1_555 1_555
C34_2 C35_2 1_555 1_555
C41_2 C42_2 1_555 1_555
O10_2 Ni8 1_555 1_555
C16_2 N17 1_555 1_555
C17_2 C16_2 1_555 1_555
H10_2 C17_2 1_555 1_555
C18_2 C17_2 1_555 1_555
H11_2 C18_2 1_555 1_555
C19_2 C18_2 1_555 1_555
N1_2 C4_2 1_555 1_555
N13 C6_2 1_555 1_555
C5_2 C4_2 1_555 1_555
H2_2 C5_2 1_555 1_555
C6_2 N1_2 1_555 1_555
H3_2 C6_2 1_555 1_555
C7_2 N13 1_555 1_555
C8_2 C7_2 1_555 1_555
H4_2 C8_2 1_555 1_555
C9_2 C8_2 1_555 1_555
H5_2 C9_2 1_555 1_555
C10_2 C9_2 1_555 1_555
C11_2 C10_2 1_555 1_555
C12_2 N1_2 1_555 1_555
N3_2 C14_2 1_555 1_555
C14_2 C5_2 1_555 1_555
C15_2 N3_2 1_555 1_555
H9_2 C15_2 1_555 1_555
C21_2 N3_2 1_555 1_555
C7_2 C12_2 1_555 1_555
C11_2 C12_2 1_555 1_555
C20_2 C21_2 1_555 1_555

#END
