
###############################################################################
#
# This file contains modified crystal structure data generated from the
# MOF subset of the Cambridge Structural Database (CSD) v543 
# hosted by the Cambridge Crystallographic Data Centre (CCDC).
#
# This work is licensed under the Creative Commons
# Attribution-NonCommercial-ShareAlike 4.0 International License.
# To view a copy of this license, visit
# http://creativecommons.org/licenses/by-nc-sa/4.0/
# or send a letter to
# Creative Commons, PO Box 1866, Mountain View, CA 94042, USA.
#
# CIF created using the CSD Python API on 29 September 2022
# The structure has been converted into the P1 space group
# The structure has a 3D framework
# The original CSD entry YOYPEJ is in the trigonal crystal system
# The framework has been calculated to contain at least 10.0% void space
# The void calculation uses a probe of radius 1.32A, grid spacing 0.4
# The framework is charged, counterions have been retained in the structure
#
###############################################################################

data_YOYPEJ
_chemical_formula_moiety         '(C126 H78 Cl2 N24 Ni4 O12)n'
_symmetry_cell_setting           triclinic
_symmetry_space_group_name_H-M   'P 1'
_symmetry_Int_Tables_number      1
_space_group_name_Hall           'P 1'
loop_
_symmetry_equiv_pos_site_id
_symmetry_equiv_pos_as_xyz
1 x,y,z
_cell_length_a                   16.946(5)
_cell_length_b                   16.946(5)
_cell_length_c                   13.838(5)
_cell_angle_alpha                90
_cell_angle_beta                 90
_cell_angle_gamma                120
_cell_volume                     3441.43
loop_
_atom_site_label
_atom_site_type_symbol
_atom_site_fract_x
_atom_site_fract_y
_atom_site_fract_z
Cl1 Cl 0.3333 0.6667 0.7500
Cl1_2 Cl 0.6667 0.3333 0.2500
N2 N 0.22825(11) 0.56156(11) 0.01593(12)
C7 C 0.16902(14) 0.46955(14) 0.03803(15)
C8 C 0.17459(17) 0.41404(16) 0.10852(18)
H4 H 0.2236 0.4364 0.1511
C9 C 0.1054(2) 0.32534(17) 0.1131(2)
H5 H 0.1074 0.2872 0.1601
C10 C 0.0314(2) 0.29040(18) 0.0484(2)
Ni8 Ni 0.3333 0.6667 0.10159(3)
N1 N 0.10978(12) 0.50620(12) 0.91394(12)
C4 C 0.05799(14) 0.50473(14) 0.83107(15)
C5 C 0.1064(2) 0.55321(10) 0.7500
H2 H 0.1698 0.5849 0.7500
C6 C 0.18970(14) 0.57876(14) 0.94307(14)
H3 H 0.2149 0.6357 0.9139
C11 C 0.02462(18) 0.34387(16) 0.97801(19)
C12 C 0.09435(15) 0.43375(15) 0.97421(16)
N3 N 0.10978(12) 0.60358(17) 0.58606(12)
N4 N 0.22825(11) 0.66669(16) 0.48407(12)
C14 C 0.05799(14) 0.55326(20) 0.66893(15)
C15 C 0.18970(14) 0.61094(20) 0.55693(14)
H9 H 0.2149 0.5792 0.5861
C16 C 0.16902(14) 0.69947(20) 0.46197(15)
C17 C 0.17459(17) 0.76055(23) 0.39148(18)
H10 H 0.2236 0.7872 0.3489
C18 C 0.1054(2) 0.78006(26) 0.3869(2)
H11 H 0.1074 0.8202 0.3399
C19 C 0.0314(2) 0.74100(27) 0.4516(2)
C20 C 0.02462(18) 0.68075(24) 0.52199(19)
C21 C 0.09435(15) 0.66060(21) 0.52579(16)
Ni5 Ni 0.3333 0.6667 0.39841(3)
H6 H 0.9860 0.2296 0.0534
N6 N 0.43844(11) 0.66669(16) 0.01593(12)
C28 C 0.53045(14) 0.69947(20) 0.03803(15)
C29 C 0.58596(16) 0.76055(23) 0.10852(18)
H17 H 0.5636 0.7872 0.1511
C30 C 0.67466(17) 0.78006(26) 0.1131(2)
H18 H 0.7128 0.8202 0.1601
C31 C 0.70960(18) 0.74100(27) 0.0484(2)
H19 H 0.7704 0.7564 0.0534
H32 H 0.2436 0.0140 0.0534
Ni1 Ni 0.6667 0.3333 0.60159(3)
O1 O 0.77676(9) 0.42349(9) 0.68060(10)
C1 C 0.81497(19) 0.40748(9) 0.7500
C2 C 0.91714(19) 0.45857(10) 0.7500
C3 C 0.96433(14) 0.45838(14) 0.83254(14)
H1 H 0.9329 0.4273 0.8878
H7 H 0.9758 0.3209 0.9352
O2 O 0.77676(9) 0.35327(13) 0.81940(10)
C13 C 0.96433(14) 0.50595(20) 0.66746(14)
H8 H 0.9329 0.5056 0.6122
H12 H 0.9860 0.7564 0.4466
H13 H 0.9758 0.6549 0.5648
O3 O 0.57651(9) 0.35327(13) 0.68060(10)
N5 N 0.49380(12) 0.60358(17) 0.91394(12)
C22 C 0.59252(9) 0.40749(21) 0.7500
C23 C 0.54143(10) 0.45857(21) 0.7500
C24 C 0.54162(14) 0.50595(20) 0.83254(14)
H14 H 0.5727 0.5056 0.8878
C25 C 0.49527(14) 0.55326(20) 0.83107(15)
C26 C 0.44679(10) 0.55319(22) 0.7500
H15 H 0.4151 0.5849 0.7500
C27 C 0.42124(14) 0.61094(20) 0.94307(14)
H16 H 0.3643 0.5792 0.9139
C32 C 0.65613(16) 0.68075(24) 0.97801(19)
H20 H 0.6791 0.6549 0.9352
C33 C 0.56625(15) 0.66060(21) 0.97421(16)
O4 O 0.64673(13) 0.42349(9) 0.81940(10)
N7 N 0.39642(17) 0.50620(12) 0.58606(12)
N8 N 0.33331(16) 0.56156(11) 0.48407(12)
C34 C 0.49405(20) 0.45838(14) 0.66746(14)
H21 H 0.4944 0.4273 0.6122
C35 C 0.44674(20) 0.50473(14) 0.66893(15)
C36 C 0.38906(20) 0.57876(14) 0.55693(14)
H22 H 0.4208 0.6357 0.5861
C37 C 0.30053(20) 0.46955(14) 0.46197(15)
C38 C 0.23945(23) 0.41404(16) 0.39148(18)
H23 H 0.2128 0.4364 0.3489
C39 C 0.21994(26) 0.32534(17) 0.3869(2)
H24 H 0.1798 0.2872 0.3399
C40 C 0.25900(27) 0.29040(18) 0.4516(2)
H25 H 0.2436 0.2296 0.4466
C41 C 0.31925(24) 0.34387(16) 0.52199(19)
H26 H 0.3451 0.3209 0.5648
C42 C 0.33940(21) 0.43375(15) 0.52579(16)
O5 O 0.64673(13) 0.22324(9) 0.68060(10)
C43 C 0.59251(21) 0.18503(19) 0.7500
C44 C 0.54143(21) 0.08286(19) 0.7500
C45 C 0.49405(20) 0.03567(14) 0.83254(14)
H27 H 0.4944 0.0671 0.8878
H33 H 0.3451 0.0242 0.9352
O6 O 0.57651(9) 0.22324(9) 0.81940(10)
C55 C 0.54162(14) 0.03567(14) 0.66746(14)
H34 H 0.5727 0.0671 0.6122
H38 H 0.7704 0.0140 0.4466
H39 H 0.6791 0.0242 0.5648
Ni2 Ni 0.6667 0.3333 0.89841(3)
N13 N 0.77175(11) 0.43844(11) 0.98407(12)
N14 N 0.56156(11) 0.33331(16) 0.98407(12)
N15 N 0.66669(16) 0.22825(11) 0.98407(12)
N16 N 0.56156(11) 0.22825(11) 0.51593(12)
N17 N 0.77175(11) 0.33331(16) 0.51593(12)
N18 N 0.66669(16) 0.43844(11) 0.51593(12)
N10 N 0.33331(16) 0.77175(11) 0.01593(12)
C49 C 0.30053(20) 0.83098(14) 0.03803(15)
C50 C 0.23945(23) 0.82541(17) 0.10852(18)
H30 H 0.2128 0.7764 0.1511
C51 C 0.21994(26) 0.8946(2) 0.1131(2)
H31 H 0.1798 0.8926 0.1601
C52 C 0.25900(27) 0.9686(2) 0.0484(2)
N9 N 0.39642(17) 0.89022(12) 0.91394(12)
C46 C 0.44674(20) 0.94201(14) 0.83107(15)
C47 C 0.44681(22) 0.8936(2) 0.7500
H28 H 0.4151 0.8302 0.7500
C48 C 0.38906(20) 0.81030(14) 0.94307(14)
H29 H 0.4208 0.7851 0.9139
C53 C 0.31925(24) 0.97538(18) 0.97801(19)
C54 C 0.33940(21) 0.90565(15) 0.97421(16)
N11 N 0.49380(12) 0.89022(12) 0.58606(12)
N12 N 0.43844(11) 0.77175(11) 0.48407(12)
C56 C 0.49527(14) 0.94201(14) 0.66893(15)
C57 C 0.42124(14) 0.81030(14) 0.55693(14)
H35 H 0.3643 0.7851 0.5861
C58 C 0.53045(14) 0.83098(14) 0.46197(15)
C59 C 0.58596(16) 0.82541(17) 0.39148(18)
H36 H 0.5636 0.7764 0.3489
C60 C 0.67466(17) 0.8946(2) 0.3869(2)
H37 H 0.7128 0.8926 0.3399
C61 C 0.70960(18) 0.9686(2) 0.4516(2)
C62 C 0.65613(16) 0.97538(18) 0.52199(19)
C63 C 0.56625(15) 0.90565(15) 0.52579(16)
N9_2 N 0.60358(17) 0.10978(12) 0.08606(12)
C46_2 C 0.55326(20) 0.05799(14) 0.16893(15)
C47_2 C 0.55319(22) 0.1064(2) 0.2500
H28_2 H 0.5849 0.1698 0.2500
C48_2 C 0.61094(20) 0.18970(14) 0.05693(14)
H29_2 H 0.5792 0.2149 0.0861
C53_2 C 0.68075(24) 0.02462(18) 0.02199(19)
C54_2 C 0.66060(21) 0.09435(15) 0.02579(16)
N11_2 N 0.50620(12) 0.10978(12) 0.41394(12)
C56_2 C 0.50473(14) 0.05799(14) 0.33107(15)
C57_2 C 0.57876(14) 0.18970(14) 0.44307(14)
H35_2 H 0.6357 0.2149 0.4139
C58_2 C 0.46955(14) 0.16902(14) 0.53803(15)
C59_2 C 0.41404(16) 0.17459(17) 0.60852(18)
H36_2 H 0.4364 0.2236 0.6511
C60_2 C 0.32534(17) 0.1054(2) 0.6131(2)
H37_2 H 0.2872 0.1074 0.6601
C61_2 C 0.29040(18) 0.0314(2) 0.5484(2)
C62_2 C 0.34387(16) 0.02462(18) 0.47801(19)
C63_2 C 0.43375(15) 0.09435(15) 0.47421(16)
C49_2 C 0.69947(20) 0.16902(14) 0.96197(15)
C50_2 C 0.76055(23) 0.17459(17) 0.89148(18)
H30_2 H 0.7872 0.2236 0.8489
C51_2 C 0.78006(26) 0.1054(2) 0.8869(2)
H31_2 H 0.8202 0.1074 0.8399
C52_2 C 0.74100(27) 0.0314(2) 0.9516(2)
O1_2 O 0.22324(9) 0.57651(9) 0.31940(10)
C1_2 C 0.18503(19) 0.59252(9) 0.2500
C2_2 C 0.08286(19) 0.54143(10) 0.2500
C3_2 C 0.03567(14) 0.54162(14) 0.16746(14)
H1_2 H 0.0671 0.5727 0.1122
H7_2 H 0.0242 0.6791 0.0648
O2_2 O 0.22324(9) 0.64673(13) 0.18060(10)
C13_2 C 0.03567(14) 0.49405(20) 0.33254(14)
H8_2 H 0.0671 0.4944 0.3878
H12_2 H 0.0140 0.2436 0.5534
H13_2 H 0.0242 0.3451 0.4352
O3_2 O 0.42349(9) 0.64673(13) 0.31940(10)
N5_2 N 0.50620(12) 0.39642(17) 0.08606(12)
C22_2 C 0.40748(9) 0.59251(21) 0.2500
C23_2 C 0.45857(10) 0.54143(21) 0.2500
C24_2 C 0.45838(14) 0.49405(20) 0.16746(14)
H14_2 H 0.4273 0.4944 0.1122
C25_2 C 0.50473(14) 0.44674(20) 0.16893(15)
C26_2 C 0.55321(10) 0.44681(22) 0.2500
H15_2 H 0.5849 0.4151 0.2500
C27_2 C 0.57876(14) 0.38906(20) 0.05693(14)
H16_2 H 0.6357 0.4208 0.0861
C32_2 C 0.34387(16) 0.31925(24) 0.02199(19)
H20_2 H 0.3209 0.3451 0.0648
C33_2 C 0.43375(15) 0.33940(21) 0.02579(16)
O4_2 O 0.35327(13) 0.57651(9) 0.18060(10)
N7_2 N 0.60358(17) 0.49380(12) 0.41394(12)
C34_2 C 0.50595(20) 0.54162(14) 0.33254(14)
H21_2 H 0.5056 0.5727 0.3878
C35_2 C 0.55326(20) 0.49527(14) 0.33107(15)
C36_2 C 0.61094(20) 0.42124(14) 0.44307(14)
H22_2 H 0.5792 0.3643 0.4139
C37_2 C 0.69947(20) 0.53045(14) 0.53803(15)
C38_2 C 0.76055(23) 0.58596(16) 0.60852(18)
H23_2 H 0.7872 0.5636 0.6511
C39_2 C 0.78006(26) 0.67466(17) 0.6131(2)
H24_2 H 0.8202 0.7128 0.6601
C40_2 C 0.74100(27) 0.70960(18) 0.5484(2)
H25_2 H 0.7564 0.7704 0.5534
C41_2 C 0.68075(24) 0.65613(16) 0.47801(19)
H26_2 H 0.6549 0.6791 0.4352
C42_2 C 0.66060(21) 0.56625(15) 0.47421(16)
O5_2 O 0.35327(13) 0.77676(9) 0.31940(10)
C43_2 C 0.40749(21) 0.81497(19) 0.2500
C44_2 C 0.45857(21) 0.91714(19) 0.2500
C45_2 C 0.50595(20) 0.96433(14) 0.16746(14)
H27_2 H 0.5056 0.9329 0.1122
H33_2 H 0.6549 0.9758 0.0648
O6_2 O 0.42349(9) 0.77676(9) 0.18060(10)
C55_2 C 0.45838(14) 0.96433(14) 0.33254(14)
H34_2 H 0.4273 0.9329 0.3878
H38_2 H 0.2296 0.9860 0.5534
H39_2 H 0.3209 0.9758 0.4352
H6_2 H 0.0140 0.7704 0.9466
C28_2 C 0.46955(14) 0.30053(20) 0.96197(15)
C29_2 C 0.41404(16) 0.23945(23) 0.89148(18)
H17_2 H 0.4364 0.2128 0.8489
C30_2 C 0.32534(17) 0.21994(26) 0.8869(2)
H18_2 H 0.2872 0.1798 0.8399
C31_2 C 0.29040(18) 0.25900(27) 0.9516(2)
H19_2 H 0.2296 0.2436 0.9466
H32_2 H 0.7564 0.9860 0.9466
N1_2 N 0.89022(12) 0.49380(12) 0.08606(12)
C4_2 C 0.94201(14) 0.49527(14) 0.16893(15)
C5_2 C 0.8936(2) 0.44679(10) 0.2500
H2_2 H 0.8302 0.4151 0.2500
C6_2 C 0.81030(14) 0.42124(14) 0.05693(14)
H3_2 H 0.7851 0.3643 0.0861
C11_2 C 0.97538(18) 0.65613(16) 0.02199(19)
C12_2 C 0.90565(15) 0.56625(15) 0.02579(16)
N3_2 N 0.89022(12) 0.39642(17) 0.41394(12)
C14_2 C 0.94201(14) 0.44674(20) 0.33107(15)
C15_2 C 0.81030(14) 0.38906(20) 0.44307(14)
H9_2 H 0.7851 0.4208 0.4139
C16_2 C 0.83098(14) 0.30053(20) 0.53803(15)
C17_2 C 0.82541(17) 0.23945(23) 0.60852(18)
H10_2 H 0.7764 0.2128 0.6511
C18_2 C 0.8946(2) 0.21994(26) 0.6131(2)
H11_2 H 0.8926 0.1798 0.6601
C19_2 C 0.9686(2) 0.25900(27) 0.5484(2)
C20_2 C 0.97538(18) 0.31925(24) 0.47801(19)
C21_2 C 0.90565(15) 0.33940(21) 0.47421(16)
C7_2 C 0.83098(14) 0.53045(14) 0.96197(15)
C8_2 C 0.82541(17) 0.58596(16) 0.89148(18)
H4_2 H 0.7764 0.5636 0.8489
C9_2 C 0.8946(2) 0.67466(17) 0.8869(2)
H5_2 H 0.8926 0.7128 0.8399
C10_2 C 0.9686(2) 0.70960(18) 0.9516(2)
loop_
_geom_bond_atom_site_label_1
_geom_bond_atom_site_label_2
_geom_bond_site_symmetry_1
_geom_bond_site_symmetry_2
C7 N2 1_555 1_555
C8 C7 1_555 1_555
H4 C8 1_555 1_555
C9 C8 1_555 1_555
H5 C9 1_555 1_555
C10 C9 1_555 1_555
Ni8 N2 1_555 1_555
N1 C4 1_555 1_555
C5 C4 1_555 1_555
H2 C5 1_555 1_555
C6 N1 1_555 1_555
H3 C6 1_555 1_555
C12 N1 1_555 1_555
N3 C14 1_555 1_555
N4 C15 1_555 1_555
C14 C5 1_555 1_555
C15 N3 1_555 1_555
H9 C15 1_555 1_555
C16 N4 1_555 1_555
C17 C16 1_555 1_555
H10 C17 1_555 1_555
C18 C17 1_555 1_555
H11 C18 1_555 1_555
C19 C18 1_555 1_555
C20 C19 1_555 1_555
C21 N3 1_555 1_555
Ni5 N4 1_555 1_555
C11 C12 1_555 1_555
C16 C21 1_555 1_555
C20 C21 1_555 1_555
C28 N6 1_555 1_555
C29 C28 1_555 1_555
H17 C29 1_555 1_555
C30 C29 1_555 1_555
H18 C30 1_555 1_555
C31 C30 1_555 1_555
H19 C31 1_555 1_555
Ni8 N6 1_555 1_555
Ni1 O1 1_555 1_555
O1 C1 1_555 1_555
C1 C2 1_555 1_555
C2 C3 1_555 1_555
C3 H1 1_555 1_555
O2 C1 1_555 1_555
C13 C2 1_555 1_555
H8 C13 1_555 1_555
O3 Ni1 1_555 1_555
N5 C25 1_555 1_555
C22 O3 1_555 1_555
C23 C22 1_555 1_555
C24 C23 1_555 1_555
H14 C24 1_555 1_555
C25 C24 1_555 1_555
C26 C25 1_555 1_555
H15 C26 1_555 1_555
C27 N5 1_555 1_555
H16 C27 1_555 1_555
H20 C32 1_555 1_555
C33 N5 1_555 1_555
O4 C22 1_555 1_555
N7 C35 1_555 1_555
N8 C36 1_555 1_555
C34 C23 1_555 1_555
H21 C34 1_555 1_555
C35 C26 1_555 1_555
C36 N7 1_555 1_555
H22 C36 1_555 1_555
C37 N8 1_555 1_555
C38 C37 1_555 1_555
H23 C38 1_555 1_555
C39 C38 1_555 1_555
H24 C39 1_555 1_555
C40 C39 1_555 1_555
H25 C40 1_555 1_555
C41 C40 1_555 1_555
H26 C41 1_555 1_555
C42 N7 1_555 1_555
O5 Ni1 1_555 1_555
C43 O5 1_555 1_555
C44 C43 1_555 1_555
C45 C44 1_555 1_555
H27 C45 1_555 1_555
O6 C43 1_555 1_555
C55 C44 1_555 1_555
H34 C55 1_555 1_555
Ni2 O2 1_555 1_555
Ni5 N8 1_555 1_555
N13 Ni2 1_555 1_555
N14 Ni2 1_555 1_555
N15 Ni2 1_555 1_555
N16 Ni1 1_555 1_555
N17 Ni1 1_555 1_555
N18 Ni1 1_555 1_555
C32 C33 1_555 1_555
O4 Ni2 1_555 1_555
C34 C35 1_555 1_555
C37 C42 1_555 1_555
C41 C42 1_555 1_555
O6 Ni2 1_555 1_555
C49 N10 1_555 1_555
C50 C49 1_555 1_555
H30 C50 1_555 1_555
C51 C50 1_555 1_555
H31 C51 1_555 1_555
C52 C51 1_555 1_555
Ni8 N10 1_555 1_555
N9 C46 1_555 1_555
C47 C46 1_555 1_555
H28 C47 1_555 1_555
C48 N9 1_555 1_555
H29 C48 1_555 1_555
C54 N9 1_555 1_555
N11 C56 1_555 1_555
N12 C57 1_555 1_555
C56 C47 1_555 1_555
C57 N11 1_555 1_555
H35 C57 1_555 1_555
C58 N12 1_555 1_555
C59 C58 1_555 1_555
H36 C59 1_555 1_555
C60 C59 1_555 1_555
H37 C60 1_555 1_555
C61 C60 1_555 1_555
C62 C61 1_555 1_555
C63 N11 1_555 1_555
Ni5 N12 1_555 1_555
C53 C54 1_555 1_555
C58 C63 1_555 1_555
C62 C63 1_555 1_555
N9_2 C46_2 1_555 1_555
C47_2 C46_2 1_555 1_555
H28_2 C47_2 1_555 1_555
C48_2 N9_2 1_555 1_555
H29_2 C48_2 1_555 1_555
C54_2 N9_2 1_555 1_555
N11_2 C56_2 1_555 1_555
N16 C57_2 1_555 1_555
C56_2 C47_2 1_555 1_555
C57_2 N11_2 1_555 1_555
H35_2 C57_2 1_555 1_555
C58_2 N16 1_555 1_555
C59_2 C58_2 1_555 1_555
H36_2 C59_2 1_555 1_555
C60_2 C59_2 1_555 1_555
H37_2 C60_2 1_555 1_555
C61_2 C60_2 1_555 1_555
C62_2 C61_2 1_555 1_555
C63_2 N11_2 1_555 1_555
C53_2 C54_2 1_555 1_555
C58_2 C63_2 1_555 1_555
C62_2 C63_2 1_555 1_555
C49_2 N15 1_555 1_555
C50_2 C49_2 1_555 1_555
H30_2 C50_2 1_555 1_555
C51_2 C50_2 1_555 1_555
H31_2 C51_2 1_555 1_555
C52_2 C51_2 1_555 1_555
Ni5 O1_2 1_555 1_555
O1_2 C1_2 1_555 1_555
C1_2 C2_2 1_555 1_555
C2_2 C3_2 1_555 1_555
C3_2 H1_2 1_555 1_555
O2_2 C1_2 1_555 1_555
C13_2 C2_2 1_555 1_555
H8_2 C13_2 1_555 1_555
O3_2 Ni5 1_555 1_555
N5_2 C25_2 1_555 1_555
C22_2 O3_2 1_555 1_555
C23_2 C22_2 1_555 1_555
C24_2 C23_2 1_555 1_555
H14_2 C24_2 1_555 1_555
C25_2 C24_2 1_555 1_555
C26_2 C25_2 1_555 1_555
H15_2 C26_2 1_555 1_555
C27_2 N5_2 1_555 1_555
H16_2 C27_2 1_555 1_555
H20_2 C32_2 1_555 1_555
C33_2 N5_2 1_555 1_555
O4_2 C22_2 1_555 1_555
N7_2 C35_2 1_555 1_555
N18 C36_2 1_555 1_555
C34_2 C23_2 1_555 1_555
H21_2 C34_2 1_555 1_555
C35_2 C26_2 1_555 1_555
C36_2 N7_2 1_555 1_555
H22_2 C36_2 1_555 1_555
C37_2 N18 1_555 1_555
C38_2 C37_2 1_555 1_555
H23_2 C38_2 1_555 1_555
C39_2 C38_2 1_555 1_555
H24_2 C39_2 1_555 1_555
C40_2 C39_2 1_555 1_555
H25_2 C40_2 1_555 1_555
C41_2 C40_2 1_555 1_555
H26_2 C41_2 1_555 1_555
C42_2 N7_2 1_555 1_555
O5_2 Ni5 1_555 1_555
C43_2 O5_2 1_555 1_555
C44_2 C43_2 1_555 1_555
C45_2 C44_2 1_555 1_555
H27_2 C45_2 1_555 1_555
O6_2 C43_2 1_555 1_555
C55_2 C44_2 1_555 1_555
H34_2 C55_2 1_555 1_555
Ni8 O2_2 1_555 1_555
C32_2 C33_2 1_555 1_555
O4_2 Ni8 1_555 1_555
C34_2 C35_2 1_555 1_555
C37_2 C42_2 1_555 1_555
C41_2 C42_2 1_555 1_555
O6_2 Ni8 1_555 1_555
C28_2 N14 1_555 1_555
C29_2 C28_2 1_555 1_555
H17_2 C29_2 1_555 1_555
C30_2 C29_2 1_555 1_555
H18_2 C30_2 1_555 1_555
C31_2 C30_2 1_555 1_555
H19_2 C31_2 1_555 1_555
N1_2 C4_2 1_555 1_555
C5_2 C4_2 1_555 1_555
H2_2 C5_2 1_555 1_555
C6_2 N1_2 1_555 1_555
H3_2 C6_2 1_555 1_555
C12_2 N1_2 1_555 1_555
N3_2 C14_2 1_555 1_555
N17 C15_2 1_555 1_555
C14_2 C5_2 1_555 1_555
C15_2 N3_2 1_555 1_555
H9_2 C15_2 1_555 1_555
C16_2 N17 1_555 1_555
C17_2 C16_2 1_555 1_555
H10_2 C17_2 1_555 1_555
C18_2 C17_2 1_555 1_555
H11_2 C18_2 1_555 1_555
C19_2 C18_2 1_555 1_555
C20_2 C19_2 1_555 1_555
C21_2 N3_2 1_555 1_555
C11_2 C12_2 1_555 1_555
C16_2 C21_2 1_555 1_555
C20_2 C21_2 1_555 1_555
C7_2 N13 1_555 1_555
C8_2 C7_2 1_555 1_555
H4_2 C8_2 1_555 1_555
C9_2 C8_2 1_555 1_555
H5_2 C9_2 1_555 1_555
C10_2 C9_2 1_555 1_555

#END
