
###############################################################################
#
# This file contains modified crystal structure data generated from the
# MOF subset of the Cambridge Structural Database (CSD) v543 
# hosted by the Cambridge Crystallographic Data Centre (CCDC).
#
# This work is licensed under the Creative Commons
# Attribution-NonCommercial-ShareAlike 4.0 International License.
# To view a copy of this license, visit
# http://creativecommons.org/licenses/by-nc-sa/4.0/
# or send a letter to
# Creative Commons, PO Box 1866, Mountain View, CA 94042, USA.
#
# CIF created using the CSD Python API on 29 September 2022
# The structure has been converted into the P1 space group
# The structure has a 3D framework
# The original CSD entry YOYPUZ is in the trigonal crystal system
# The framework has been calculated to contain at least 10.0% void space
# The void calculation uses a probe of radius 1.32A, grid spacing 0.4
# The framework is charged, counterions have been retained in the structure
#
###############################################################################

data_YOYPUZ
_chemical_formula_moiety         '(C126 H78 Cl2 Co4 N24 O12)n'
_symmetry_cell_setting           triclinic
_symmetry_space_group_name_H-M   'P 1'
_symmetry_Int_Tables_number      1
_space_group_name_Hall           'P 1'
loop_
_symmetry_equiv_pos_site_id
_symmetry_equiv_pos_as_xyz
1 x,y,z
_cell_length_a                   17.088(5)
_cell_length_b                   17.088(5)
_cell_length_c                   13.892(5)
_cell_angle_alpha                90
_cell_angle_beta                 90
_cell_angle_gamma                120
_cell_volume                     3513
loop_
_atom_site_label
_atom_site_type_symbol
_atom_site_fract_x
_atom_site_fract_y
_atom_site_fract_z
Cl1 Cl 0.3333 0.6667 0.2500
Cl1_2 Cl 0.6667 0.3333 0.7500
N9 N 0.10870(24) 0.60256(17) 0.41327(15)
N10 N 0.22660(22) 0.66626(15) 0.51429(15)
C46 C 0.0572(3) 0.5526(2) 0.33072(18)
C47 C 0.10516(21) 0.55258(15) 0.2500
H28 H 0.1680 0.5840 0.2500
C48 C 0.1877(3) 0.6094(2) 0.44247(18)
H29 H 0.2120 0.5769 0.4144
C49 C 0.1681(3) 0.6985(2) 0.53488(19)
C50 C 0.1750(3) 0.7611(2) 0.6037(2)
H30 H 0.2239 0.7879 0.6457
C51 C 0.1073(4) 0.7816(3) 0.6070(3)
H31 H 0.1102 0.8226 0.6529
C52 C 0.0336(4) 0.7428(3) 0.5432(3)
C53 C 0.0260(4) 0.6813(3) 0.4745(2)
C54 C 0.0939(3) 0.6600(2) 0.47197(19)
N11 N 0.10870(24) 0.50614(17) 0.08673(15)
C56 C 0.0572(3) 0.5046(2) 0.16928(18)
C57 C 0.1877(3) 0.5783(2) 0.05753(18)
H35 H 0.2120 0.6351 0.0856
C62 C 0.0260(4) 0.3447(2) 0.0255(2)
C63 C 0.0939(3) 0.4339(2) 0.02803(19)
Co8 Co 0.3333 0.6667 0.60186(4)
N12 N 0.22660(22) 0.56034(16) 0.98571(15)
C58 C 0.1681(3) 0.4696(2) 0.96512(19)
C59 C 0.1750(3) 0.4139(2) 0.8963(2)
H36 H 0.2239 0.4360 0.8543
C60 C 0.1073(4) 0.3257(3) 0.8930(3)
H37 H 0.1102 0.2876 0.8471
C61 C 0.0336(4) 0.2908(3) 0.9568(3)
Co5 Co 0.3333 0.6667 0.89814(4)
Co1 Co 0.6667 0.3333 0.10186(4)
O1 O 0.64606(13) 0.42389(13) 0.18110(12)
N1 N 0.39744(17) 0.50614(17) 0.41327(15)
N2 N 0.33374(15) 0.56034(16) 0.51429(15)
C1 C 0.59194(13) 0.40806(13) 0.2500
C2 C 0.54122(14) 0.45878(14) 0.2500
C3 C 0.4941(2) 0.4588(2) 0.33182(18)
H1 H 0.4944 0.4279 0.3868
C4 C 0.4474(2) 0.5046(2) 0.33072(18)
C5 C 0.44742(15) 0.55258(15) 0.2500
H2 H 0.4160 0.5840 0.2500
C6 C 0.3906(2) 0.5783(2) 0.44247(18)
H3 H 0.4231 0.6351 0.4144
C7 C 0.3015(2) 0.4696(2) 0.53488(19)
C8 C 0.2389(2) 0.4139(2) 0.6037(2)
H4 H 0.2121 0.4360 0.6457
C9 C 0.2184(3) 0.3257(3) 0.6070(3)
H5 H 0.1774 0.2876 0.6529
C10 C 0.2572(3) 0.2908(3) 0.5432(3)
H6 H 0.2411 0.2302 0.5474
C11 C 0.3187(3) 0.3447(2) 0.4745(2)
H7 H 0.3446 0.3221 0.4320
C12 C 0.3400(2) 0.4339(2) 0.47197(19)
O2 O 0.57611(13) 0.35394(13) 0.31890(12)
N3 N 0.49386(17) 0.60256(17) 0.08673(15)
C13 C 0.5412(2) 0.5059(2) 0.16818(18)
H8 H 0.5721 0.5056 0.1132
C14 C 0.4954(2) 0.5526(2) 0.16928(18)
C15 C 0.4217(2) 0.6094(2) 0.05753(18)
H9 H 0.3649 0.5769 0.0856
C20 C 0.6553(2) 0.6813(3) 0.0255(2)
H13 H 0.6779 0.6554 0.0680
C21 C 0.5661(2) 0.6600(2) 0.02803(19)
O3 O 0.57611(13) 0.22217(18) 0.18110(12)
C22 C 0.59194(13) 0.18388(18) 0.2500
C23 C 0.54122(14) 0.08244(20) 0.2500
C24 C 0.5412(2) 0.0353(3) 0.33182(18)
H14 H 0.5721 0.0665 0.3868
H19 H 0.7698 0.0109 0.5474
H20 H 0.6779 0.0225 0.4320
O4 O 0.64606(13) 0.22217(18) 0.31890(12)
C34 C 0.4941(2) 0.0353(3) 0.16818(18)
H21 H 0.4944 0.0665 0.1132
H26 H 0.3446 0.0225 0.0680
O5 O 0.77783(18) 0.35394(13) 0.18110(12)
C43 C 0.81612(18) 0.40806(13) 0.2500
C44 C 0.91756(20) 0.45878(14) 0.2500
C45 C 0.9647(3) 0.5059(2) 0.33182(18)
H27 H 0.9335 0.5056 0.3868
H32 H 0.9891 0.7589 0.5474
H33 H 0.9775 0.6554 0.4320
O6 O 0.77783(18) 0.42389(13) 0.31890(12)
C55 C 0.9647(3) 0.4588(2) 0.16818(18)
H34 H 0.9335 0.4279 0.1132
H39 H 0.9775 0.3221 0.0680
Co2 Co 0.6667 0.3333 0.39814(4)
N13 N 0.66626(15) 0.43966(16) 0.48571(15)
N14 N 0.56034(16) 0.22660(22) 0.48571(15)
N15 N 0.77340(22) 0.33374(15) 0.48571(15)
N16 N 0.56034(16) 0.33374(15) 0.01429(15)
N17 N 0.66626(15) 0.22660(22) 0.01429(15)
N18 N 0.77340(22) 0.43966(16) 0.01429(15)
N4 N 0.43966(16) 0.66626(15) 0.98571(15)
C16 C 0.5304(2) 0.6985(2) 0.96512(19)
C17 C 0.5861(2) 0.7611(2) 0.8963(2)
H10 H 0.5640 0.7879 0.8543
C18 C 0.6743(3) 0.7816(3) 0.8930(3)
H11 H 0.7124 0.8226 0.8471
C19 C 0.7092(3) 0.7428(3) 0.9568(3)
H12 H 0.7698 0.7589 0.9526
H25 H 0.2411 0.0109 0.9526
H38 H 0.9891 0.2302 0.9526
N5 N 0.49386(17) 0.89130(24) 0.41327(15)
N6 N 0.43966(16) 0.77340(22) 0.51429(15)
C25 C 0.4954(2) 0.9428(3) 0.33072(18)
C26 C 0.44742(15) 0.89484(21) 0.2500
H15 H 0.4160 0.8320 0.2500
C27 C 0.4217(2) 0.8123(3) 0.44247(18)
H16 H 0.3649 0.7880 0.4144
C28 C 0.5304(2) 0.8319(3) 0.53488(19)
C29 C 0.5861(2) 0.8250(3) 0.6037(2)
H17 H 0.5640 0.7761 0.6457
C30 C 0.6743(3) 0.8927(4) 0.6070(3)
H18 H 0.7124 0.8898 0.6529
C31 C 0.7092(3) 0.9664(4) 0.5432(3)
C32 C 0.6553(2) 0.9740(4) 0.4745(2)
C33 C 0.5661(2) 0.9061(3) 0.47197(19)
N7 N 0.39744(17) 0.89130(24) 0.08673(15)
C35 C 0.4474(2) 0.9428(3) 0.16928(18)
C36 C 0.3906(2) 0.8123(3) 0.05753(18)
H22 H 0.4231 0.7880 0.0856
C41 C 0.3187(3) 0.9740(4) 0.0255(2)
C42 C 0.3400(2) 0.9061(3) 0.02803(19)
N8 N 0.33374(15) 0.77340(22) 0.98571(15)
C37 C 0.3015(2) 0.8319(3) 0.96512(19)
C38 C 0.2389(2) 0.8250(3) 0.8963(2)
H23 H 0.2121 0.7761 0.8543
C39 C 0.2184(3) 0.8927(4) 0.8930(3)
H24 H 0.1774 0.8898 0.8471
C40 C 0.2572(3) 0.9664(4) 0.9568(3)
C37_2 C 0.6985(2) 0.1681(3) 0.03488(19)
C38_2 C 0.7611(2) 0.1750(3) 0.1037(2)
H23_2 H 0.7879 0.2239 0.1457
C39_2 C 0.7816(3) 0.1073(4) 0.1070(3)
H24_2 H 0.8226 0.1102 0.1529
C40_2 C 0.7428(3) 0.0336(4) 0.0432(3)
N5_2 N 0.50614(17) 0.10870(24) 0.58673(15)
C25_2 C 0.5046(2) 0.0572(3) 0.66928(18)
C26_2 C 0.55258(15) 0.10516(21) 0.7500
H15_2 H 0.5840 0.1680 0.7500
C27_2 C 0.5783(2) 0.1877(3) 0.55753(18)
H16_2 H 0.6351 0.2120 0.5856
C28_2 C 0.4696(2) 0.1681(3) 0.46512(19)
C29_2 C 0.4139(2) 0.1750(3) 0.3963(2)
H17_2 H 0.4360 0.2239 0.3543
C30_2 C 0.3257(3) 0.1073(4) 0.3930(3)
H18_2 H 0.2876 0.1102 0.3471
C31_2 C 0.2908(3) 0.0336(4) 0.4568(3)
C32_2 C 0.3447(2) 0.0260(4) 0.5255(2)
C33_2 C 0.4339(2) 0.0939(3) 0.52803(19)
N7_2 N 0.60256(17) 0.10870(24) 0.91327(15)
C35_2 C 0.5526(2) 0.0572(3) 0.83072(18)
C36_2 C 0.6094(2) 0.1877(3) 0.94247(18)
H22_2 H 0.5769 0.2120 0.9144
C41_2 C 0.6813(3) 0.0260(4) 0.9745(2)
C42_2 C 0.6600(2) 0.0939(3) 0.97197(19)
C16_2 C 0.4696(2) 0.3015(2) 0.03488(19)
C17_2 C 0.4139(2) 0.2389(2) 0.1037(2)
H10_2 H 0.4360 0.2121 0.1457
C18_2 C 0.3257(3) 0.2184(3) 0.1070(3)
H11_2 H 0.2876 0.1774 0.1529
C19_2 C 0.2908(3) 0.2572(3) 0.0432(3)
H12_2 H 0.2302 0.2411 0.0474
H25_2 H 0.7589 0.9891 0.0474
H38_2 H 0.0109 0.7698 0.0474
O1_2 O 0.35394(13) 0.57611(13) 0.81890(12)
N1_2 N 0.60256(17) 0.49386(17) 0.58673(15)
C1_2 C 0.40806(13) 0.59194(13) 0.7500
C2_2 C 0.45878(14) 0.54122(14) 0.7500
C3_2 C 0.5059(2) 0.5412(2) 0.66818(18)
H1_2 H 0.5056 0.5721 0.6132
C4_2 C 0.5526(2) 0.4954(2) 0.66928(18)
C5_2 C 0.55258(15) 0.44742(15) 0.7500
H2_2 H 0.5840 0.4160 0.7500
C6_2 C 0.6094(2) 0.4217(2) 0.55753(18)
H3_2 H 0.5769 0.3649 0.5856
C7_2 C 0.6985(2) 0.5304(2) 0.46512(19)
C8_2 C 0.7611(2) 0.5861(2) 0.3963(2)
H4_2 H 0.7879 0.5640 0.3543
C9_2 C 0.7816(3) 0.6743(3) 0.3930(3)
H5_2 H 0.8226 0.7124 0.3471
C10_2 C 0.7428(3) 0.7092(3) 0.4568(3)
H6_2 H 0.7589 0.7698 0.4526
C11_2 C 0.6813(3) 0.6553(2) 0.5255(2)
H7_2 H 0.6554 0.6779 0.5680
C12_2 C 0.6600(2) 0.5661(2) 0.52803(19)
O2_2 O 0.42389(13) 0.64606(13) 0.68110(12)
N3_2 N 0.50614(17) 0.39744(17) 0.91327(15)
C13_2 C 0.4588(2) 0.4941(2) 0.83182(18)
H8_2 H 0.4279 0.4944 0.8868
C14_2 C 0.5046(2) 0.4474(2) 0.83072(18)
C15_2 C 0.5783(2) 0.3906(2) 0.94247(18)
H9_2 H 0.6351 0.4231 0.9144
C20_2 C 0.3447(2) 0.3187(3) 0.9745(2)
H13_2 H 0.3221 0.3446 0.9320
C21_2 C 0.4339(2) 0.3400(2) 0.97197(19)
O3_2 O 0.42389(13) 0.77783(18) 0.81890(12)
C22_2 C 0.40806(13) 0.81612(18) 0.7500
C23_2 C 0.45878(14) 0.91756(20) 0.7500
C24_2 C 0.4588(2) 0.9647(3) 0.66818(18)
H14_2 H 0.4279 0.9335 0.6132
H19_2 H 0.2302 0.9891 0.4526
H20_2 H 0.3221 0.9775 0.5680
O4_2 O 0.35394(13) 0.77783(18) 0.68110(12)
C34_2 C 0.5059(2) 0.9647(3) 0.83182(18)
H21_2 H 0.5056 0.9335 0.8868
H26_2 H 0.6554 0.9775 0.9320
O5_2 O 0.22217(18) 0.64606(13) 0.81890(12)
C43_2 C 0.18388(18) 0.59194(13) 0.7500
C44_2 C 0.08244(20) 0.54122(14) 0.7500
C45_2 C 0.0353(3) 0.4941(2) 0.66818(18)
H27_2 H 0.0665 0.4944 0.6132
H32_2 H 0.0109 0.2411 0.4526
H33_2 H 0.0225 0.3446 0.5680
O6_2 O 0.22217(18) 0.57611(13) 0.68110(12)
C55_2 C 0.0353(3) 0.5412(2) 0.83182(18)
H34_2 H 0.0665 0.5721 0.8868
H39_2 H 0.0225 0.6779 0.9320
C58_2 C 0.8319(3) 0.5304(2) 0.03488(19)
C59_2 C 0.8250(3) 0.5861(2) 0.1037(2)
H36_2 H 0.7761 0.5640 0.1457
C60_2 C 0.8927(4) 0.6743(3) 0.1070(3)
H37_2 H 0.8898 0.7124 0.1529
C61_2 C 0.9664(4) 0.7092(3) 0.0432(3)
N9_2 N 0.89130(24) 0.39744(17) 0.58673(15)
C46_2 C 0.9428(3) 0.4474(2) 0.66928(18)
C47_2 C 0.89484(21) 0.44742(15) 0.7500
H28_2 H 0.8320 0.4160 0.7500
C48_2 C 0.8123(3) 0.3906(2) 0.55753(18)
H29_2 H 0.7880 0.4231 0.5856
C49_2 C 0.8319(3) 0.3015(2) 0.46512(19)
C50_2 C 0.8250(3) 0.2389(2) 0.3963(2)
H30_2 H 0.7761 0.2121 0.3543
C51_2 C 0.8927(4) 0.2184(3) 0.3930(3)
H31_2 H 0.8898 0.1774 0.3471
C52_2 C 0.9664(4) 0.2572(3) 0.4568(3)
C53_2 C 0.9740(4) 0.3187(3) 0.5255(2)
C54_2 C 0.9061(3) 0.3400(2) 0.52803(19)
N11_2 N 0.89130(24) 0.49386(17) 0.91327(15)
C56_2 C 0.9428(3) 0.4954(2) 0.83072(18)
C57_2 C 0.8123(3) 0.4217(2) 0.94247(18)
H35_2 H 0.7880 0.3649 0.9144
C62_2 C 0.9740(4) 0.6553(2) 0.9745(2)
C63_2 C 0.9061(3) 0.5661(2) 0.97197(19)
loop_
_geom_bond_atom_site_label_1
_geom_bond_atom_site_label_2
_geom_bond_site_symmetry_1
_geom_bond_site_symmetry_2
N9 C46 1_555 1_555
N10 C48 1_555 1_555
C47 C46 1_555 1_555
H28 C47 1_555 1_555
C48 N9 1_555 1_555
H29 C48 1_555 1_555
C49 N10 1_555 1_555
C50 C49 1_555 1_555
H30 C50 1_555 1_555
C51 C50 1_555 1_555
H31 C51 1_555 1_555
C52 C51 1_555 1_555
C53 C52 1_555 1_555
C54 N9 1_555 1_555
N11 C56 1_555 1_555
C56 C47 1_555 1_555
C57 N11 1_555 1_555
H35 C57 1_555 1_555
C63 N11 1_555 1_555
Co8 N10 1_555 1_555
C49 C54 1_555 1_555
C53 C54 1_555 1_555
C62 C63 1_555 1_555
C58 N12 1_555 1_555
C59 C58 1_555 1_555
H36 C59 1_555 1_555
C60 C59 1_555 1_555
H37 C60 1_555 1_555
C61 C60 1_555 1_555
Co5 N12 1_555 1_555
Co1 O1 1_555 1_555
O1 C1 1_555 1_555
N1 C4 1_555 1_555
N2 C6 1_555 1_555
C1 C2 1_555 1_555
C2 C3 1_555 1_555
C3 H1 1_555 1_555
C4 C3 1_555 1_555
C5 C4 1_555 1_555
H2 C5 1_555 1_555
C6 N1 1_555 1_555
H3 C6 1_555 1_555
C7 N2 1_555 1_555
C8 C7 1_555 1_555
H4 C8 1_555 1_555
C9 C8 1_555 1_555
H5 C9 1_555 1_555
C10 C9 1_555 1_555
H6 C10 1_555 1_555
C11 C10 1_555 1_555
H7 C11 1_555 1_555
C12 N1 1_555 1_555
O2 C1 1_555 1_555
N3 C14 1_555 1_555
C13 C2 1_555 1_555
H8 C13 1_555 1_555
C14 C5 1_555 1_555
C15 N3 1_555 1_555
H9 C15 1_555 1_555
H13 C20 1_555 1_555
C21 N3 1_555 1_555
O3 Co1 1_555 1_555
C22 O3 1_555 1_555
C23 C22 1_555 1_555
C24 C23 1_555 1_555
H14 C24 1_555 1_555
O4 C22 1_555 1_555
C34 C23 1_555 1_555
H21 C34 1_555 1_555
O5 Co1 1_555 1_555
C43 O5 1_555 1_555
C44 C43 1_555 1_555
C45 C44 1_555 1_555
H27 C45 1_555 1_555
O6 C43 1_555 1_555
C55 C44 1_555 1_555
H34 C55 1_555 1_555
Co2 O2 1_555 1_555
Co8 N2 1_555 1_555
N13 Co2 1_555 1_555
N14 Co2 1_555 1_555
N15 Co2 1_555 1_555
N16 Co1 1_555 1_555
N17 Co1 1_555 1_555
N18 Co1 1_555 1_555
C7 C12 1_555 1_555
C11 C12 1_555 1_555
C13 C14 1_555 1_555
C20 C21 1_555 1_555
O4 Co2 1_555 1_555
O6 Co2 1_555 1_555
C16 N4 1_555 1_555
C17 C16 1_555 1_555
H10 C17 1_555 1_555
C18 C17 1_555 1_555
H11 C18 1_555 1_555
C19 C18 1_555 1_555
H12 C19 1_555 1_555
Co5 N4 1_555 1_555
N5 C25 1_555 1_555
N6 C27 1_555 1_555
C26 C25 1_555 1_555
H15 C26 1_555 1_555
C27 N5 1_555 1_555
H16 C27 1_555 1_555
C28 N6 1_555 1_555
C29 C28 1_555 1_555
H17 C29 1_555 1_555
C30 C29 1_555 1_555
H18 C30 1_555 1_555
C31 C30 1_555 1_555
C32 C31 1_555 1_555
C33 N5 1_555 1_555
N7 C35 1_555 1_555
C35 C26 1_555 1_555
C36 N7 1_555 1_555
H22 C36 1_555 1_555
C42 N7 1_555 1_555
Co8 N6 1_555 1_555
C28 C33 1_555 1_555
C32 C33 1_555 1_555
C41 C42 1_555 1_555
C37 N8 1_555 1_555
C38 C37 1_555 1_555
H23 C38 1_555 1_555
C39 C38 1_555 1_555
H24 C39 1_555 1_555
C40 C39 1_555 1_555
Co5 N8 1_555 1_555
C37_2 N17 1_555 1_555
C38_2 C37_2 1_555 1_555
H23_2 C38_2 1_555 1_555
C39_2 C38_2 1_555 1_555
H24_2 C39_2 1_555 1_555
C40_2 C39_2 1_555 1_555
N5_2 C25_2 1_555 1_555
N14 C27_2 1_555 1_555
C26_2 C25_2 1_555 1_555
H15_2 C26_2 1_555 1_555
C27_2 N5_2 1_555 1_555
H16_2 C27_2 1_555 1_555
C28_2 N14 1_555 1_555
C29_2 C28_2 1_555 1_555
H17_2 C29_2 1_555 1_555
C30_2 C29_2 1_555 1_555
H18_2 C30_2 1_555 1_555
C31_2 C30_2 1_555 1_555
C32_2 C31_2 1_555 1_555
C33_2 N5_2 1_555 1_555
N7_2 C35_2 1_555 1_555
C35_2 C26_2 1_555 1_555
C36_2 N7_2 1_555 1_555
H22_2 C36_2 1_555 1_555
C42_2 N7_2 1_555 1_555
C28_2 C33_2 1_555 1_555
C32_2 C33_2 1_555 1_555
C41_2 C42_2 1_555 1_555
C16_2 N16 1_555 1_555
C17_2 C16_2 1_555 1_555
H10_2 C17_2 1_555 1_555
C18_2 C17_2 1_555 1_555
H11_2 C18_2 1_555 1_555
C19_2 C18_2 1_555 1_555
H12_2 C19_2 1_555 1_555
Co5 O1_2 1_555 1_555
O1_2 C1_2 1_555 1_555
N1_2 C4_2 1_555 1_555
N13 C6_2 1_555 1_555
C1_2 C2_2 1_555 1_555
C2_2 C3_2 1_555 1_555
C3_2 H1_2 1_555 1_555
C4_2 C3_2 1_555 1_555
C5_2 C4_2 1_555 1_555
H2_2 C5_2 1_555 1_555
C6_2 N1_2 1_555 1_555
H3_2 C6_2 1_555 1_555
C7_2 N13 1_555 1_555
C8_2 C7_2 1_555 1_555
H4_2 C8_2 1_555 1_555
C9_2 C8_2 1_555 1_555
H5_2 C9_2 1_555 1_555
C10_2 C9_2 1_555 1_555
H6_2 C10_2 1_555 1_555
C11_2 C10_2 1_555 1_555
H7_2 C11_2 1_555 1_555
C12_2 N1_2 1_555 1_555
O2_2 C1_2 1_555 1_555
N3_2 C14_2 1_555 1_555
C13_2 C2_2 1_555 1_555
H8_2 C13_2 1_555 1_555
C14_2 C5_2 1_555 1_555
C15_2 N3_2 1_555 1_555
H9_2 C15_2 1_555 1_555
H13_2 C20_2 1_555 1_555
C21_2 N3_2 1_555 1_555
O3_2 Co5 1_555 1_555
C22_2 O3_2 1_555 1_555
C23_2 C22_2 1_555 1_555
C24_2 C23_2 1_555 1_555
H14_2 C24_2 1_555 1_555
O4_2 C22_2 1_555 1_555
C34_2 C23_2 1_555 1_555
H21_2 C34_2 1_555 1_555
O5_2 Co5 1_555 1_555
C43_2 O5_2 1_555 1_555
C44_2 C43_2 1_555 1_555
C45_2 C44_2 1_555 1_555
H27_2 C45_2 1_555 1_555
O6_2 C43_2 1_555 1_555
C55_2 C44_2 1_555 1_555
H34_2 C55_2 1_555 1_555
Co8 O2_2 1_555 1_555
C7_2 C12_2 1_555 1_555
C11_2 C12_2 1_555 1_555
C13_2 C14_2 1_555 1_555
C20_2 C21_2 1_555 1_555
O4_2 Co8 1_555 1_555
O6_2 Co8 1_555 1_555
C58_2 N18 1_555 1_555
C59_2 C58_2 1_555 1_555
H36_2 C59_2 1_555 1_555
C60_2 C59_2 1_555 1_555
H37_2 C60_2 1_555 1_555
C61_2 C60_2 1_555 1_555
N9_2 C46_2 1_555 1_555
N15 C48_2 1_555 1_555
C47_2 C46_2 1_555 1_555
H28_2 C47_2 1_555 1_555
C48_2 N9_2 1_555 1_555
H29_2 C48_2 1_555 1_555
C49_2 N15 1_555 1_555
C50_2 C49_2 1_555 1_555
H30_2 C50_2 1_555 1_555
C51_2 C50_2 1_555 1_555
H31_2 C51_2 1_555 1_555
C52_2 C51_2 1_555 1_555
C53_2 C52_2 1_555 1_555
C54_2 N9_2 1_555 1_555
N11_2 C56_2 1_555 1_555
C56_2 C47_2 1_555 1_555
C57_2 N11_2 1_555 1_555
H35_2 C57_2 1_555 1_555
C63_2 N11_2 1_555 1_555
C49_2 C54_2 1_555 1_555
C53_2 C54_2 1_555 1_555
C62_2 C63_2 1_555 1_555

#END
