
###############################################################################
#
# This file contains modified crystal structure data generated from the
# MOF subset of the Cambridge Structural Database (CSD) v543 
# hosted by the Cambridge Crystallographic Data Centre (CCDC).
#
# This work is licensed under the Creative Commons
# Attribution-NonCommercial-ShareAlike 4.0 International License.
# To view a copy of this license, visit
# http://creativecommons.org/licenses/by-nc-sa/4.0/
# or send a letter to
# Creative Commons, PO Box 1866, Mountain View, CA 94042, USA.
#
# CIF created using the CSD Python API on 29 September 2022
# The structure has been converted into the P1 space group
# The structure has a 3D framework
# The original CSD entry YOYQUA is in the trigonal crystal system
# The framework has been calculated to contain at least 10.0% void space
# The void calculation uses a probe of radius 1.32A, grid spacing 0.4
# The framework is charged, counterions have been retained in the structure
#
###############################################################################

data_YOYQUA
_chemical_formula_moiety         '(C126 H78 Cl6 Mn4 N24 O36 4-)n'
_symmetry_cell_setting           triclinic
_symmetry_space_group_name_H-M   'P 1'
_symmetry_Int_Tables_number      1
_space_group_name_Hall           'P 1'
loop_
_symmetry_equiv_pos_site_id
_symmetry_equiv_pos_as_xyz
1 x,y,z
_cell_length_a                   17.107(5)
_cell_length_b                   17.107(5)
_cell_length_c                   14.133(5)
_cell_angle_alpha                90
_cell_angle_beta                 90
_cell_angle_gamma                120
_cell_volume                     3581.89
loop_
_atom_site_label
_atom_site_type_symbol
_atom_site_fract_x
_atom_site_fract_y
_atom_site_fract_z
Cl1 Cl 0.1920(5) 0.3839(9) 0.2500
O1 O 0.2381(11) 0.3544(11) 0.3195(12)
O2 O 0.2452(7) 0.4799(7) 0.2822(7)
O3 O 0.1163(16) 0.3544(11) 0.1805(12)
O4 O 0.2347(10) 0.4799(7) 0.2178(7)
Cl1_2 Cl 0.6161(9) 0.8081(10) 0.2500
O1_2 O 0.6456(11) 0.8837(16) 0.3195(12)
O2_2 O 0.5201(7) 0.7653(10) 0.2822(7)
O3_2 O 0.6456(11) 0.7619(19) 0.1805(12)
O4_2 O 0.5201(7) 0.7548(12) 0.2178(7)
Cl1_3 Cl 0.1919(10) 0.8080(5) 0.2500
O1_3 O 0.1163(16) 0.7619(11) 0.3195(12)
O2_3 O 0.2347(10) 0.7548(7) 0.2822(7)
O3_3 O 0.2381(19) 0.8837(16) 0.1805(12)
O4_3 O 0.2452(12) 0.7653(10) 0.2178(7)
Cl1_4 Cl 0.8080(5) 0.6161(9) 0.7500
O1_4 O 0.7619(11) 0.6456(11) 0.6805(12)
O2_4 O 0.7548(7) 0.5201(7) 0.7178(7)
O3_4 O 0.8837(16) 0.6456(11) 0.8195(12)
O4_4 O 0.7653(10) 0.5201(7) 0.7822(7)
Cl1_5 Cl 0.3839(9) 0.1919(10) 0.7500
O1_5 O 0.3544(11) 0.1163(16) 0.6805(12)
O2_5 O 0.4799(7) 0.2347(10) 0.7178(7)
O3_5 O 0.3544(11) 0.2381(19) 0.8195(12)
O4_5 O 0.4799(7) 0.2452(12) 0.7822(7)
Cl1_6 Cl 0.8081(10) 0.1920(5) 0.7500
O1_6 O 0.8837(16) 0.2381(11) 0.6805(12)
O2_6 O 0.7653(10) 0.2452(7) 0.7178(7)
O3_6 O 0.7619(19) 0.1163(16) 0.8195(12)
O4_6 O 0.7548(12) 0.2347(10) 0.7822(7)
N1 N 0.1125(3) 0.5031(3) 0.4080(3)
N2 N 0.2260(3) 0.5569(3) 0.5119(3)
C4 C 0.0624(3) 0.5042(3) 0.3277(3)
C5 C 0.1100(5) 0.5550(2) 0.2500
H2 H 0.1727 0.5864 0.2500
C6 C 0.1882(3) 0.5757(3) 0.4421(3)
H3 H 0.2110 0.6336 0.4179
C7 C 0.1002(3) 0.4289(3) 0.4606(3)
C8 C 0.0390(4) 0.3373(4) 0.4540(4)
C9 C 0.0505(4) 0.2815(4) 0.5150(5)
H5 H 0.0115 0.2195 0.5111
C10 C 0.1198(4) 0.3155(4) 0.5836(5)
H6 H 0.1240 0.2761 0.6258
C11 C 0.1815(4) 0.4070(4) 0.5886(4)
H7 H 0.2281 0.4294 0.6327
C12 C 0.1723(3) 0.4643(3) 0.5263(3)
N3 N 0.1125(3) 0.6094(4) 0.0920(3)
C14 C 0.0624(3) 0.5582(4) 0.1723(3)
C15 C 0.1882(3) 0.6125(4) 0.0579(3)
H9 H 0.2110 0.5774 0.0821
C16 C 0.1002(3) 0.6713(4) 0.0394(3)
C17 C 0.0390(4) 0.7017(6) 0.0460(4)
Mn8 Mn 0.3333 0.6667 0.60675(7)
N4 N 0.2260(3) 0.6691(4) 0.9881(3)
C18 C 0.0505(4) 0.7690(6) 0.9850(5)
H11 H 0.0115 0.7920 0.9889
C19 C 0.1198(4) 0.8043(6) 0.9164(5)
H12 H 0.1240 0.8479 0.8742
C20 C 0.1815(4) 0.7745(6) 0.9114(4)
H13 H 0.2281 0.7987 0.8673
C21 C 0.1723(3) 0.7080(4) 0.9737(3)
Mn5 Mn 0.3333 0.6667 0.89325(7)
Mn1 Mn 0.6667 0.3333 0.10675(7)
O5 O 0.7834(2) 0.4269(2) 0.1828(2)
C1 C 0.8212(4) 0.4106(2) 0.2500
C2 C 0.9236(4) 0.4618(2) 0.2500
C3 C 0.9696(3) 0.4579(3) 0.3292(3)
H1 H 0.9383 0.4247 0.3821
H4 H 0.9921 0.3147 0.4102
O6 O 0.7834(2) 0.3565(3) 0.3172(2)
C13 C 0.9696(3) 0.5117(4) 0.1708(3)
H8 H 0.9383 0.5136 0.1179
H10 H 0.9921 0.6774 0.0898
O7 O 0.5731(2) 0.3565(3) 0.1828(2)
N5 N 0.4969(3) 0.6094(4) 0.4080(3)
N6 N 0.4431(3) 0.6691(4) 0.5119(3)
C22 C 0.5894(2) 0.4106(4) 0.2500
C23 C 0.5382(2) 0.4618(4) 0.2500
C24 C 0.5421(3) 0.5117(4) 0.3292(3)
H14 H 0.5753 0.5136 0.3821
C25 C 0.4958(3) 0.5582(4) 0.3277(3)
C26 C 0.4450(2) 0.5550(5) 0.2500
H15 H 0.4136 0.5863 0.2500
C27 C 0.4243(3) 0.6125(4) 0.4421(3)
H16 H 0.3664 0.5774 0.4179
C28 C 0.5711(3) 0.6713(4) 0.4606(3)
C29 C 0.6627(4) 0.7017(6) 0.4540(4)
H17 H 0.6853 0.6774 0.4102
C30 C 0.7185(4) 0.7690(6) 0.5150(5)
H18 H 0.7805 0.7920 0.5111
C31 C 0.6845(4) 0.8043(6) 0.5836(5)
H19 H 0.7239 0.8479 0.6258
C32 C 0.5930(4) 0.7745(6) 0.5886(4)
H20 H 0.5706 0.7987 0.6327
C33 C 0.5357(3) 0.7080(4) 0.5263(3)
O8 O 0.6435(3) 0.4269(2) 0.3172(2)
N7 N 0.3906(4) 0.5031(3) 0.0920(3)
C34 C 0.4883(4) 0.4579(3) 0.1708(3)
H21 H 0.4864 0.4247 0.1179
C35 C 0.4418(4) 0.5042(3) 0.1723(3)
C36 C 0.3875(4) 0.5757(3) 0.0579(3)
H22 H 0.4226 0.6336 0.0821
C37 C 0.3287(4) 0.4289(3) 0.0394(3)
C38 C 0.2983(6) 0.3373(4) 0.0460(4)
H23 H 0.3226 0.3147 0.0898
O9 O 0.6435(3) 0.2166(2) 0.1828(2)
C43 C 0.5894(4) 0.1788(4) 0.2500
C44 C 0.5382(4) 0.0764(4) 0.2500
C45 C 0.4883(4) 0.0304(3) 0.3292(3)
H27 H 0.4864 0.0617 0.3821
H30 H 0.3226 0.0079 0.4102
O10 O 0.5731(2) 0.2166(2) 0.3172(2)
C55 C 0.5421(3) 0.0304(3) 0.1708(3)
H34 H 0.5753 0.0617 0.1179
H36 H 0.6853 0.0079 0.0898
Mn2 Mn 0.6667 0.3333 0.39325(7)
N13 N 0.7740(3) 0.4431(3) 0.4881(3)
N14 N 0.5569(3) 0.3309(4) 0.4881(3)
N15 N 0.6691(4) 0.2260(3) 0.4881(3)
N16 N 0.5569(3) 0.2260(3) 0.0119(3)
N17 N 0.7740(3) 0.3309(4) 0.0119(3)
N18 N 0.6691(4) 0.4431(3) 0.0119(3)
N8 N 0.3309(4) 0.5569(3) 0.9881(3)
C39 C 0.2310(6) 0.2815(4) 0.9850(5)
H24 H 0.2080 0.2195 0.9889
C40 C 0.1957(6) 0.3155(4) 0.9164(5)
H25 H 0.1521 0.2761 0.8742
C41 C 0.2255(6) 0.4070(4) 0.9114(4)
H26 H 0.2013 0.4294 0.8673
C42 C 0.2920(4) 0.4643(3) 0.9737(3)
N9 N 0.3906(4) 0.8875(3) 0.4080(3)
N10 N 0.3309(4) 0.7740(3) 0.5119(3)
C46 C 0.4418(4) 0.9376(3) 0.3277(3)
C47 C 0.4450(5) 0.8900(5) 0.2500
H28 H 0.4137 0.8273 0.2500
C48 C 0.3875(4) 0.8118(3) 0.4421(3)
H29 H 0.4226 0.7890 0.4179
C49 C 0.3287(4) 0.8998(3) 0.4606(3)
C50 C 0.2983(6) 0.9610(4) 0.4540(4)
C51 C 0.2310(6) 0.9495(4) 0.5150(5)
H31 H 0.2080 0.9885 0.5111
C52 C 0.1957(6) 0.8802(4) 0.5836(5)
H32 H 0.1521 0.8760 0.6258
C53 C 0.2255(6) 0.8185(4) 0.5886(4)
H33 H 0.2013 0.7719 0.6327
C54 C 0.2920(4) 0.8277(3) 0.5263(3)
N11 N 0.4969(3) 0.8875(3) 0.0920(3)
C56 C 0.4958(3) 0.9376(3) 0.1723(3)
C57 C 0.4243(3) 0.8118(3) 0.0579(3)
H35 H 0.3664 0.7890 0.0821
C58 C 0.5711(3) 0.8998(3) 0.0394(3)
C59 C 0.6627(4) 0.9610(4) 0.0460(4)
N12 N 0.4431(3) 0.7740(3) 0.9881(3)
C60 C 0.7185(4) 0.9495(4) 0.9850(5)
H37 H 0.7805 0.9885 0.9889
C61 C 0.6845(4) 0.8802(4) 0.9164(5)
H38 H 0.7239 0.8760 0.8742
C62 C 0.5930(4) 0.8185(4) 0.9114(4)
H39 H 0.5706 0.7719 0.8673
C63 C 0.5357(3) 0.8277(3) 0.9737(3)
C60_2 C 0.2815(4) 0.0505(4) 0.0150(5)
H37_2 H 0.2195 0.0115 0.0111
C61_2 C 0.3155(4) 0.1198(4) 0.0836(5)
H38_2 H 0.2761 0.1240 0.1258
C62_2 C 0.4070(4) 0.1815(4) 0.0886(4)
H39_2 H 0.4294 0.2281 0.1327
C63_2 C 0.4643(3) 0.1723(3) 0.0263(3)
N9_2 N 0.6094(4) 0.1125(3) 0.5920(3)
C46_2 C 0.5582(4) 0.0624(3) 0.6723(3)
C47_2 C 0.5550(5) 0.1100(5) 0.7500
H28_2 H 0.5863 0.1727 0.7500
C48_2 C 0.6125(4) 0.1882(3) 0.5579(3)
H29_2 H 0.5774 0.2110 0.5821
C49_2 C 0.6713(4) 0.1002(3) 0.5394(3)
C50_2 C 0.7017(6) 0.0390(4) 0.5460(4)
C51_2 C 0.7690(6) 0.0505(4) 0.4850(5)
H31_2 H 0.7920 0.0115 0.4889
C52_2 C 0.8043(6) 0.1198(4) 0.4164(5)
H32_2 H 0.8479 0.1240 0.3742
C53_2 C 0.7745(6) 0.1815(4) 0.4114(4)
H33_2 H 0.7987 0.2281 0.3673
C54_2 C 0.7080(4) 0.1723(3) 0.4737(3)
N11_2 N 0.5031(3) 0.1125(3) 0.9080(3)
C56_2 C 0.5042(3) 0.0624(3) 0.8277(3)
C57_2 C 0.5757(3) 0.1882(3) 0.9421(3)
H35_2 H 0.6336 0.2110 0.9179
C58_2 C 0.4289(3) 0.1002(3) 0.9606(3)
C59_2 C 0.3373(4) 0.0390(4) 0.9540(4)
C39_2 C 0.7690(6) 0.7185(4) 0.0150(5)
H24_2 H 0.7920 0.7805 0.0111
C40_2 C 0.8043(6) 0.6845(4) 0.0836(5)
H25_2 H 0.8479 0.7239 0.1258
C41_2 C 0.7745(6) 0.5930(4) 0.0886(4)
H26_2 H 0.7987 0.5706 0.1327
C42_2 C 0.7080(4) 0.5357(3) 0.0263(3)
O5_2 O 0.2166(2) 0.5731(2) 0.8172(2)
C1_2 C 0.1788(4) 0.5894(2) 0.7500
C2_2 C 0.0764(4) 0.5382(2) 0.7500
C3_2 C 0.0304(3) 0.5421(3) 0.6708(3)
H1_2 H 0.0617 0.5753 0.6179
H4_2 H 0.0079 0.6853 0.5898
O6_2 O 0.2166(2) 0.6435(3) 0.6828(2)
C13_2 C 0.0304(3) 0.4883(4) 0.8292(3)
H8_2 H 0.0617 0.4864 0.8821
H10_2 H 0.0079 0.3226 0.9102
O7_2 O 0.4269(2) 0.6435(3) 0.8172(2)
N5_2 N 0.5031(3) 0.3906(4) 0.5920(3)
C22_2 C 0.4106(2) 0.5894(4) 0.7500
C23_2 C 0.4618(2) 0.5382(4) 0.7500
C24_2 C 0.4579(3) 0.4883(4) 0.6708(3)
H14_2 H 0.4247 0.4864 0.6179
C25_2 C 0.5042(3) 0.4418(4) 0.6723(3)
C26_2 C 0.5550(2) 0.4450(5) 0.7500
H15_2 H 0.5864 0.4137 0.7500
C27_2 C 0.5757(3) 0.3875(4) 0.5579(3)
H16_2 H 0.6336 0.4226 0.5821
C28_2 C 0.4289(3) 0.3287(4) 0.5394(3)
C29_2 C 0.3373(4) 0.2983(6) 0.5460(4)
H17_2 H 0.3147 0.3226 0.5898
C30_2 C 0.2815(4) 0.2310(6) 0.4850(5)
H18_2 H 0.2195 0.2080 0.4889
C31_2 C 0.3155(4) 0.1957(6) 0.4164(5)
H19_2 H 0.2761 0.1521 0.3742
C32_2 C 0.4070(4) 0.2255(6) 0.4114(4)
H20_2 H 0.4294 0.2013 0.3673
C33_2 C 0.4643(3) 0.2920(4) 0.4737(3)
O8_2 O 0.3565(3) 0.5731(2) 0.6828(2)
N7_2 N 0.6094(4) 0.4969(3) 0.9080(3)
C34_2 C 0.5117(4) 0.5421(3) 0.8292(3)
H21_2 H 0.5136 0.5753 0.8821
C35_2 C 0.5582(4) 0.4958(3) 0.8277(3)
C36_2 C 0.6125(4) 0.4243(3) 0.9421(3)
H22_2 H 0.5774 0.3664 0.9179
C37_2 C 0.6713(4) 0.5711(3) 0.9606(3)
C38_2 C 0.7017(6) 0.6627(4) 0.9540(4)
H23_2 H 0.6774 0.6853 0.9102
O9_2 O 0.3565(3) 0.7834(2) 0.8172(2)
C43_2 C 0.4106(4) 0.8212(4) 0.7500
C44_2 C 0.4618(4) 0.9236(4) 0.7500
C45_2 C 0.5117(4) 0.9696(3) 0.6708(3)
H27_2 H 0.5136 0.9383 0.6179
H30_2 H 0.6774 0.9921 0.5898
O10_2 O 0.4269(2) 0.7834(2) 0.6828(2)
C55_2 C 0.4579(3) 0.9696(3) 0.8292(3)
H34_2 H 0.4247 0.9383 0.8821
H36_2 H 0.3147 0.9921 0.9102
C18_2 C 0.9495(4) 0.2310(6) 0.0150(5)
H11_2 H 0.9885 0.2080 0.0111
C19_2 C 0.8802(4) 0.1957(6) 0.0836(5)
H12_2 H 0.8760 0.1521 0.1258
C20_2 C 0.8185(4) 0.2255(6) 0.0886(4)
H13_2 H 0.7719 0.2013 0.1327
C21_2 C 0.8277(3) 0.2920(4) 0.0263(3)
N1_2 N 0.8875(3) 0.4969(3) 0.5920(3)
C4_2 C 0.9376(3) 0.4958(3) 0.6723(3)
C5_2 C 0.8900(5) 0.4450(2) 0.7500
H2_2 H 0.8273 0.4136 0.7500
C6_2 C 0.8118(3) 0.4243(3) 0.5579(3)
H3_2 H 0.7890 0.3664 0.5821
C7_2 C 0.8998(3) 0.5711(3) 0.5394(3)
C8_2 C 0.9610(4) 0.6627(4) 0.5460(4)
C9_2 C 0.9495(4) 0.7185(4) 0.4850(5)
H5_2 H 0.9885 0.7805 0.4889
C10_2 C 0.8802(4) 0.6845(4) 0.4164(5)
H6_2 H 0.8760 0.7239 0.3742
C11_2 C 0.8185(4) 0.5930(4) 0.4114(4)
H7_2 H 0.7719 0.5706 0.3673
C12_2 C 0.8277(3) 0.5357(3) 0.4737(3)
N3_2 N 0.8875(3) 0.3906(4) 0.9080(3)
C14_2 C 0.9376(3) 0.4418(4) 0.8277(3)
C15_2 C 0.8118(3) 0.3875(4) 0.9421(3)
H9_2 H 0.7890 0.4226 0.9179
C16_2 C 0.8998(3) 0.3287(4) 0.9606(3)
C17_2 C 0.9610(4) 0.2983(6) 0.9540(4)
loop_
_geom_bond_atom_site_label_1
_geom_bond_atom_site_label_2
_geom_bond_site_symmetry_1
_geom_bond_site_symmetry_2
Cl1 O1 1_555 1_555
O2 Cl1 1_555 1_555
O3 Cl1 1_555 1_555
O4 Cl1 1_555 1_555
Cl1_2 O1_2 1_555 1_555
O2_2 Cl1_2 1_555 1_555
O3_2 Cl1_2 1_555 1_555
O4_2 Cl1_2 1_555 1_555
Cl1_3 O1_3 1_555 1_555
O2_3 Cl1_3 1_555 1_555
O3_3 Cl1_3 1_555 1_555
O4_3 Cl1_3 1_555 1_555
Cl1_4 O1_4 1_555 1_555
O2_4 Cl1_4 1_555 1_555
O3_4 Cl1_4 1_555 1_555
O4_4 Cl1_4 1_555 1_555
Cl1_5 O1_5 1_555 1_555
O2_5 Cl1_5 1_555 1_555
O3_5 Cl1_5 1_555 1_555
O4_5 Cl1_5 1_555 1_555
Cl1_6 O1_6 1_555 1_555
O2_6 Cl1_6 1_555 1_555
O3_6 Cl1_6 1_555 1_555
O4_6 Cl1_6 1_555 1_555
N1 C4 1_555 1_555
N2 C6 1_555 1_555
C5 C4 1_555 1_555
H2 C5 1_555 1_555
C6 N1 1_555 1_555
H3 C6 1_555 1_555
C7 N1 1_555 1_555
C8 C7 1_555 1_555
C9 C8 1_555 1_555
H5 C9 1_555 1_555
C10 C9 1_555 1_555
H6 C10 1_555 1_555
C11 C10 1_555 1_555
H7 C11 1_555 1_555
C12 N2 1_555 1_555
N3 C14 1_555 1_555
C14 C5 1_555 1_555
C15 N3 1_555 1_555
H9 C15 1_555 1_555
C16 N3 1_555 1_555
C17 C16 1_555 1_555
Mn8 N2 1_555 1_555
C7 C12 1_555 1_555
C11 C12 1_555 1_555
H11 C18 1_555 1_555
C19 C18 1_555 1_555
H12 C19 1_555 1_555
C20 C19 1_555 1_555
H13 C20 1_555 1_555
C21 N4 1_555 1_555
Mn5 N4 1_555 1_555
C20 C21 1_555 1_555
Mn1 O5 1_555 1_555
O5 C1 1_555 1_555
C1 C2 1_555 1_555
C2 C3 1_555 1_555
C3 H1 1_555 1_555
O6 C1 1_555 1_555
C13 C2 1_555 1_555
H8 C13 1_555 1_555
O7 Mn1 1_555 1_555
N5 C25 1_555 1_555
N6 C27 1_555 1_555
C22 O7 1_555 1_555
C23 C22 1_555 1_555
C24 C23 1_555 1_555
H14 C24 1_555 1_555
C25 C24 1_555 1_555
C26 C25 1_555 1_555
H15 C26 1_555 1_555
C27 N5 1_555 1_555
H16 C27 1_555 1_555
C28 N5 1_555 1_555
C29 C28 1_555 1_555
H17 C29 1_555 1_555
C30 C29 1_555 1_555
H18 C30 1_555 1_555
C31 C30 1_555 1_555
H19 C31 1_555 1_555
C32 C31 1_555 1_555
H20 C32 1_555 1_555
C33 N6 1_555 1_555
O8 C22 1_555 1_555
N7 C35 1_555 1_555
C34 C23 1_555 1_555
H21 C34 1_555 1_555
C35 C26 1_555 1_555
C36 N7 1_555 1_555
H22 C36 1_555 1_555
C37 N7 1_555 1_555
C38 C37 1_555 1_555
H23 C38 1_555 1_555
O9 Mn1 1_555 1_555
C43 O9 1_555 1_555
C44 C43 1_555 1_555
C45 C44 1_555 1_555
H27 C45 1_555 1_555
O10 C43 1_555 1_555
C55 C44 1_555 1_555
H34 C55 1_555 1_555
Mn2 O6 1_555 1_555
Mn8 N6 1_555 1_555
N13 Mn2 1_555 1_555
N14 Mn2 1_555 1_555
N15 Mn2 1_555 1_555
N16 Mn1 1_555 1_555
N17 Mn1 1_555 1_555
N18 Mn1 1_555 1_555
C28 C33 1_555 1_555
C32 C33 1_555 1_555
O8 Mn2 1_555 1_555
C34 C35 1_555 1_555
O10 Mn2 1_555 1_555
H24 C39 1_555 1_555
C40 C39 1_555 1_555
H25 C40 1_555 1_555
C41 C40 1_555 1_555
H26 C41 1_555 1_555
C42 N8 1_555 1_555
Mn5 N8 1_555 1_555
C41 C42 1_555 1_555
N9 C46 1_555 1_555
N10 C48 1_555 1_555
C47 C46 1_555 1_555
H28 C47 1_555 1_555
C48 N9 1_555 1_555
H29 C48 1_555 1_555
C49 N9 1_555 1_555
C50 C49 1_555 1_555
C51 C50 1_555 1_555
H31 C51 1_555 1_555
C52 C51 1_555 1_555
H32 C52 1_555 1_555
C53 C52 1_555 1_555
H33 C53 1_555 1_555
C54 N10 1_555 1_555
N11 C56 1_555 1_555
C56 C47 1_555 1_555
C57 N11 1_555 1_555
H35 C57 1_555 1_555
C58 N11 1_555 1_555
C59 C58 1_555 1_555
Mn8 N10 1_555 1_555
C49 C54 1_555 1_555
C53 C54 1_555 1_555
H37 C60 1_555 1_555
C61 C60 1_555 1_555
H38 C61 1_555 1_555
C62 C61 1_555 1_555
H39 C62 1_555 1_555
C63 N12 1_555 1_555
Mn5 N12 1_555 1_555
C62 C63 1_555 1_555
H37_2 C60_2 1_555 1_555
C61_2 C60_2 1_555 1_555
H38_2 C61_2 1_555 1_555
C62_2 C61_2 1_555 1_555
H39_2 C62_2 1_555 1_555
C63_2 N16 1_555 1_555
C62_2 C63_2 1_555 1_555
N9_2 C46_2 1_555 1_555
N15 C48_2 1_555 1_555
C47_2 C46_2 1_555 1_555
H28_2 C47_2 1_555 1_555
C48_2 N9_2 1_555 1_555
H29_2 C48_2 1_555 1_555
C49_2 N9_2 1_555 1_555
C50_2 C49_2 1_555 1_555
C51_2 C50_2 1_555 1_555
H31_2 C51_2 1_555 1_555
C52_2 C51_2 1_555 1_555
H32_2 C52_2 1_555 1_555
C53_2 C52_2 1_555 1_555
H33_2 C53_2 1_555 1_555
C54_2 N15 1_555 1_555
N11_2 C56_2 1_555 1_555
C56_2 C47_2 1_555 1_555
C57_2 N11_2 1_555 1_555
H35_2 C57_2 1_555 1_555
C58_2 N11_2 1_555 1_555
C59_2 C58_2 1_555 1_555
C49_2 C54_2 1_555 1_555
C53_2 C54_2 1_555 1_555
H24_2 C39_2 1_555 1_555
C40_2 C39_2 1_555 1_555
H25_2 C40_2 1_555 1_555
C41_2 C40_2 1_555 1_555
H26_2 C41_2 1_555 1_555
C42_2 N18 1_555 1_555
C41_2 C42_2 1_555 1_555
Mn5 O5_2 1_555 1_555
O5_2 C1_2 1_555 1_555
C1_2 C2_2 1_555 1_555
C2_2 C3_2 1_555 1_555
C3_2 H1_2 1_555 1_555
O6_2 C1_2 1_555 1_555
C13_2 C2_2 1_555 1_555
H8_2 C13_2 1_555 1_555
O7_2 Mn5 1_555 1_555
N5_2 C25_2 1_555 1_555
N14 C27_2 1_555 1_555
C22_2 O7_2 1_555 1_555
C23_2 C22_2 1_555 1_555
C24_2 C23_2 1_555 1_555
H14_2 C24_2 1_555 1_555
C25_2 C24_2 1_555 1_555
C26_2 C25_2 1_555 1_555
H15_2 C26_2 1_555 1_555
C27_2 N5_2 1_555 1_555
H16_2 C27_2 1_555 1_555
C28_2 N5_2 1_555 1_555
C29_2 C28_2 1_555 1_555
H17_2 C29_2 1_555 1_555
C30_2 C29_2 1_555 1_555
H18_2 C30_2 1_555 1_555
C31_2 C30_2 1_555 1_555
H19_2 C31_2 1_555 1_555
C32_2 C31_2 1_555 1_555
H20_2 C32_2 1_555 1_555
C33_2 N14 1_555 1_555
O8_2 C22_2 1_555 1_555
N7_2 C35_2 1_555 1_555
C34_2 C23_2 1_555 1_555
H21_2 C34_2 1_555 1_555
C35_2 C26_2 1_555 1_555
C36_2 N7_2 1_555 1_555
H22_2 C36_2 1_555 1_555
C37_2 N7_2 1_555 1_555
C38_2 C37_2 1_555 1_555
H23_2 C38_2 1_555 1_555
O9_2 Mn5 1_555 1_555
C43_2 O9_2 1_555 1_555
C44_2 C43_2 1_555 1_555
C45_2 C44_2 1_555 1_555
H27_2 C45_2 1_555 1_555
O10_2 C43_2 1_555 1_555
C55_2 C44_2 1_555 1_555
H34_2 C55_2 1_555 1_555
Mn8 O6_2 1_555 1_555
C28_2 C33_2 1_555 1_555
C32_2 C33_2 1_555 1_555
O8_2 Mn8 1_555 1_555
C34_2 C35_2 1_555 1_555
O10_2 Mn8 1_555 1_555
H11_2 C18_2 1_555 1_555
C19_2 C18_2 1_555 1_555
H12_2 C19_2 1_555 1_555
C20_2 C19_2 1_555 1_555
H13_2 C20_2 1_555 1_555
C21_2 N17 1_555 1_555
C20_2 C21_2 1_555 1_555
N1_2 C4_2 1_555 1_555
N13 C6_2 1_555 1_555
C5_2 C4_2 1_555 1_555
H2_2 C5_2 1_555 1_555
C6_2 N1_2 1_555 1_555
H3_2 C6_2 1_555 1_555
C7_2 N1_2 1_555 1_555
C8_2 C7_2 1_555 1_555
C9_2 C8_2 1_555 1_555
H5_2 C9_2 1_555 1_555
C10_2 C9_2 1_555 1_555
H6_2 C10_2 1_555 1_555
C11_2 C10_2 1_555 1_555
H7_2 C11_2 1_555 1_555
C12_2 N13 1_555 1_555
N3_2 C14_2 1_555 1_555
C14_2 C5_2 1_555 1_555
C15_2 N3_2 1_555 1_555
H9_2 C15_2 1_555 1_555
C16_2 N3_2 1_555 1_555
C17_2 C16_2 1_555 1_555
C7_2 C12_2 1_555 1_555
C11_2 C12_2 1_555 1_555

#END
