
###############################################################################
#
# This file contains modified crystal structure data generated from the
# MOF subset of the Cambridge Structural Database (CSD) v543 
# hosted by the Cambridge Crystallographic Data Centre (CCDC).
#
# This work is licensed under the Creative Commons
# Attribution-NonCommercial-ShareAlike 4.0 International License.
# To view a copy of this license, visit
# http://creativecommons.org/licenses/by-nc-sa/4.0/
# or send a letter to
# Creative Commons, PO Box 1866, Mountain View, CA 94042, USA.
#
# CIF created using the CSD Python API on 29 September 2022
# The structure has been converted into the P1 space group
# The structure has a 3D framework
# The original CSD entry YOYQAG is in the trigonal crystal system
# The framework has been calculated to contain at least 10.0% void space
# The void calculation uses a probe of radius 1.32A, grid spacing 0.4
# The framework is charged, counterions have been retained in the structure
#
###############################################################################

data_YOYQAG
_chemical_formula_moiety         '(C126 H78 Cl2 Co4 N24 O12 2-)n'
_symmetry_cell_setting           triclinic
_symmetry_space_group_name_H-M   'P 1'
_symmetry_Int_Tables_number      1
_space_group_name_Hall           'P 1'
loop_
_symmetry_equiv_pos_site_id
_symmetry_equiv_pos_as_xyz
1 x,y,z
_cell_length_a                   17.033(5)
_cell_length_b                   17.033(5)
_cell_length_c                   13.928(5)
_cell_angle_alpha                90
_cell_angle_beta                 90
_cell_angle_gamma                120
_cell_volume                     3499.47
loop_
_atom_site_label
_atom_site_type_symbol
_atom_site_fract_x
_atom_site_fract_y
_atom_site_fract_z
Cl1 Cl 0.6667 0.3333 0.6496(5)
Cl1_2 Cl 0.3333 0.6667 0.1496(5)
Co7 Co 0.6667 0.3333 0.00328(7)
C57 C 0.7623(11) 0.1760(8) 0.0015(8)
C62 C 0.7777(13) 0.1042(10) 0.0189(10)
H33 H 0.7960 0.2297 0.0355
H38 H 0.8104 0.1039 0.0722
C32 C 0.5540(8) 0.0584(6) 0.7303(6)
C33 C 0.5062(10) 0.0591(6) 0.5699(7)
N13 N 0.6022(8) 0.1091(5) 0.8136(5)
C35 C 0.5570(9) 0.1062(3) 0.6531(8)
N14 N 0.5053(8) 0.1109(5) 0.4886(5)
C40 C 0.6058(8) 0.1882(5) 0.8434(6)
C41 C 0.6608(11) 0.0998(8) 0.8723(8)
H19 H 0.5916 0.1691 0.6534
C42 C 0.4287(11) 0.0920(8) 0.4301(7)
C43 C 0.5740(7) 0.1900(5) 0.4590(6)
N17 N 0.6695(8) 0.2297(6) 0.9150(5)
H22 H 0.5701 0.2105 0.8185
C48 C 0.6772(11) 0.0197(8) 0.8789(9)
C49 C 0.6986(9) 0.1705(6) 0.9352(5)
C50 C 0.3466(13) 0.0387(9) 0.4363(12)
C51 C 0.4665(10) 0.1676(7) 0.3658(8)
N18 N 0.5616(6) 0.2267(5) 0.3857(4)
H23 H 0.6292 0.2174 0.4911
C56 C 0.7402(16) 0.0294(12) 0.9505(12)
C58 C 0.2925(18) 0.0447(12) 0.3712(13)
C59 C 0.4156(14) 0.1767(10) 0.2933(10)
Co8 Co 0.6667 0.3333 0.29820(7)
C63 C 0.3233(14) 0.1150(10) 0.3115(11)
H35 H 0.4384 0.2165 0.2417
H39 H 0.2808 0.1242 0.2793
C55 C 0.4137(7) 0.2377(11) 0.0015(8)
C61 C 0.3265(9) 0.2223(13) 0.0189(10)
H31 H 0.4337 0.2040 0.0355
H37 H 0.2935 0.1896 0.0722
C8 C 0.0376(7) 0.4963(7) 0.5701(6)
H4 H 0.0044 0.3275 0.4850
H5 H 0.0697 0.4987 0.5151
C11 C 0.0819(3) 0.5392(7) 0.6502(8)
H7 H 0.0010 0.2331 0.3674
C13 C 0.1842(10) 0.5915(7) 0.6544(8)
C14 C 0.0320(6) 0.5404(6) 0.7336(6)
O1 O 0.2231(6) 0.5769(4) 0.5801(4)
O2 O 0.2201(6) 0.6445(4) 0.7182(4)
H8 H 0.0624 0.5719 0.7886
N4 N 0.2297(6) 0.6695(8) 0.4150(5)
Co2 Co 0.3333 0.6667 0.50328(7)
H10 H 0.0309 0.6793 0.8393
H12 H 0.0136 0.7721 0.9542
Co3 Co 0.3333 0.6667 0.79820(7)
O3 O 0.4231(4) 0.6462(7) 0.5801(4)
O4 O 0.3538(7) 0.7769(6) 0.5801(4)
N6 N 0.4398(10) 0.7703(6) 0.4150(5)
N7 N 0.3305(8) 0.5602(10) 0.4150(5)
N8 N 0.2267(5) 0.5616(6) 0.8857(4)
N9 N 0.3349(4) 0.7733(5) 0.8857(4)
O5 O 0.3555(4) 0.5756(7) 0.7182(4)
O6 O 0.4244(7) 0.7799(6) 0.7182(4)
N10 N 0.4384(6) 0.6651(4) 0.8857(4)
C22 C 0.4085(7) 0.5927(12) 0.6544(8)
C23 C 0.4073(12) 0.8158(10) 0.6544(8)
C24 C 0.4608(7) 0.5427(8) 0.6502(8)
C25 C 0.4573(8) 0.9181(3) 0.6502(8)
C26 C 0.5037(7) 0.5413(10) 0.5701(6)
C27 C 0.4596(6) 0.4916(8) 0.7336(6)
C28 C 0.5084(8) 0.9680(6) 0.7336(6)
C29 C 0.4587(10) 0.9624(7) 0.5701(6)
C30 C 0.5529(8) 0.4938(10) 0.5699(7)
H14 H 0.5013 0.5710 0.5151
C31 C 0.5044(6) 0.4460(8) 0.7303(6)
H15 H 0.4281 0.4905 0.7886
H16 H 0.5095 0.9376 0.7886
H17 H 0.4290 0.9303 0.5151
C34 C 0.5492(8) 0.4430(9) 0.6531(8)
N11 N 0.6056(6) 0.4947(8) 0.4886(5)
N12 N 0.5069(6) 0.3978(8) 0.8136(5)
H18 H 0.5775 0.4084 0.6534
C36 C 0.6633(7) 0.5713(11) 0.4301(7)
C37 C 0.6160(5) 0.4260(7) 0.4590(6)
C38 C 0.5824(6) 0.3942(8) 0.8434(6)
C39 C 0.4390(7) 0.3392(11) 0.8723(8)
C44 C 0.7011(7) 0.5335(10) 0.3658(8)
C45 C 0.6921(10) 0.6534(13) 0.4363(12)
N15 N 0.6651(4) 0.4384(6) 0.3857(4)
H20 H 0.5882 0.3708 0.4911
H21 H 0.6404 0.4299 0.8185
N16 N 0.5602(10) 0.3305(8) 0.9150(5)
C46 C 0.3425(8) 0.3228(11) 0.8789(9)
C47 C 0.4719(7) 0.3014(9) 0.9352(5)
C52 C 0.7611(10) 0.5844(14) 0.2933(10)
C53 C 0.7522(14) 0.7075(18) 0.3712(13)
H24 H 0.6725 0.6769 0.4850
C54 C 0.2892(10) 0.2598(16) 0.9505(12)
H25 H 0.3207 0.3516 0.8393
H26 H 0.6484 0.9691 0.8393
H27 H 0.3231 0.9956 0.4850
C60 C 0.7917(10) 0.6767(14) 0.3115(11)
H28 H 0.7781 0.5616 0.2417
H29 H 0.7669 0.7679 0.3674
H30 H 0.2279 0.2415 0.9542
H32 H 0.7585 0.9864 0.9542
H34 H 0.2321 0.9990 0.3674
H36 H 0.8434 0.7192 0.2793
C19 C 0.8240(8) 0.5863(7) 0.0015(8)
H11 H 0.7703 0.5663 0.0355
C21 C 0.8958(10) 0.6735(9) 0.0189(10)
H13 H 0.8961 0.7065 0.0722
N1 N 0.7733(5) 0.3349(4) 0.3857(4)
C1 C 0.8100(5) 0.3840(5) 0.4590(6)
C2 C 0.8324(7) 0.2989(7) 0.3658(8)
N2 N 0.8891(5) 0.3944(6) 0.4886(5)
H1 H 0.7826 0.4118 0.4911
C3 C 0.8233(10) 0.2389(10) 0.2933(10)
C4 C 0.9080(8) 0.3367(7) 0.4301(7)
C5 C 0.9409(6) 0.4471(8) 0.5699(7)
H2 H 0.7835 0.2219 0.2417
C6 C 0.8850(10) 0.2083(10) 0.3115(11)
C7 C 0.9613(9) 0.3079(10) 0.4363(12)
C9 C 0.8938(3) 0.4508(8) 0.6531(8)
H3 H 0.8758 0.1566 0.2793
C10 C 0.9553(12) 0.2478(14) 0.3712(13)
C12 C 0.9416(6) 0.4956(6) 0.7303(6)
H6 H 0.8309 0.4225 0.6534
N3 N 0.8909(5) 0.4931(6) 0.8136(5)
C15 C 0.8118(5) 0.4176(6) 0.8434(6)
C16 C 0.9002(8) 0.5610(7) 0.8723(8)
H9 H 0.7895 0.3596 0.8185
C17 C 0.8295(6) 0.5281(7) 0.9352(5)
C18 C 0.9803(8) 0.6575(8) 0.8789(9)
C20 C 0.9706(12) 0.7108(10) 0.9505(12)
N5 N 0.7703(6) 0.4398(10) 0.9150(5)
C32_2 C 0.0584(6) 0.5540(8) 0.2303(6)
C33_2 C 0.0591(6) 0.5062(10) 0.0699(7)
N13_2 N 0.1091(5) 0.6022(8) 0.3136(5)
C35_2 C 0.1062(3) 0.5570(9) 0.1531(8)
C40_2 C 0.1882(5) 0.6058(8) 0.3434(6)
C41_2 C 0.0998(8) 0.6608(11) 0.3723(8)
H19_2 H 0.1691 0.5916 0.1534
H22_2 H 0.2105 0.5701 0.3185
C48_2 C 0.0197(8) 0.6772(11) 0.3789(9)
C49_2 C 0.1705(6) 0.6986(9) 0.4352(5)
C56_2 C 0.0294(12) 0.7402(16) 0.4505(12)
C57_2 C 0.1760(8) 0.7623(11) 0.5015(8)
C62_2 C 0.1042(10) 0.7777(13) 0.5189(10)
H33_2 H 0.2297 0.7960 0.5355
H38_2 H 0.1039 0.8104 0.5722
N14_2 N 0.1109(5) 0.5053(8) 0.9886(5)
C42_2 C 0.0920(8) 0.4287(11) 0.9301(7)
C43_2 C 0.1900(5) 0.5740(7) 0.9590(6)
C50_2 C 0.0387(9) 0.3466(13) 0.9363(12)
C51_2 C 0.1676(7) 0.4665(10) 0.8658(8)
H23_2 H 0.2174 0.6292 0.9911
C58_2 C 0.0447(12) 0.2925(18) 0.8712(13)
C59_2 C 0.1767(10) 0.4156(14) 0.7933(10)
C63_2 C 0.1150(10) 0.3233(14) 0.8115(11)
H35_2 H 0.2165 0.4384 0.7417
H39_2 H 0.1242 0.2808 0.7793
C8_2 C 0.4963(7) 0.0376(7) 0.0701(6)
H5_2 H 0.4987 0.0697 0.0151
C11_2 C 0.5392(7) 0.0819(3) 0.1502(8)
C13_2 C 0.5915(7) 0.1842(10) 0.1544(8)
C14_2 C 0.5404(6) 0.0320(6) 0.2336(6)
O1_2 O 0.5769(4) 0.2231(6) 0.0801(4)
O2_2 O 0.6445(4) 0.2201(6) 0.2182(4)
H8_2 H 0.5719 0.0624 0.2886
H10_2 H 0.6793 0.0309 0.3393
H12_2 H 0.7721 0.0136 0.4542
O3_2 O 0.6462(7) 0.4231(4) 0.0801(4)
O4_2 O 0.7769(6) 0.3538(7) 0.0801(4)
O5_2 O 0.5756(7) 0.3555(4) 0.2182(4)
O6_2 O 0.7799(6) 0.4244(7) 0.2182(4)
C22_2 C 0.5927(12) 0.4085(7) 0.1544(8)
C23_2 C 0.8158(10) 0.4073(12) 0.1544(8)
C24_2 C 0.5427(8) 0.4608(7) 0.1502(8)
C25_2 C 0.9181(3) 0.4573(8) 0.1502(8)
C26_2 C 0.5413(10) 0.5037(7) 0.0701(6)
C27_2 C 0.4916(8) 0.4596(6) 0.2336(6)
C28_2 C 0.9680(6) 0.5084(8) 0.2336(6)
C29_2 C 0.9624(7) 0.4587(10) 0.0701(6)
C30_2 C 0.4938(10) 0.5529(8) 0.0699(7)
H14_2 H 0.5710 0.5013 0.0151
C31_2 C 0.4460(8) 0.5044(6) 0.2303(6)
H15_2 H 0.4905 0.4281 0.2886
H16_2 H 0.9376 0.5095 0.2886
H17_2 H 0.9303 0.4290 0.0151
C34_2 C 0.4430(9) 0.5492(8) 0.1531(8)
N12_2 N 0.3978(8) 0.5069(6) 0.3136(5)
H18_2 H 0.4084 0.5775 0.1534
C38_2 C 0.3942(8) 0.5824(6) 0.3434(6)
C39_2 C 0.3392(11) 0.4390(7) 0.3723(8)
H21_2 H 0.4299 0.6404 0.3185
C46_2 C 0.3228(11) 0.3425(8) 0.3789(9)
C47_2 C 0.3014(9) 0.4719(7) 0.4352(5)
C54_2 C 0.2598(16) 0.2892(10) 0.4505(12)
H25_2 H 0.3516 0.3207 0.3393
C55_2 C 0.2377(11) 0.4137(7) 0.5015(8)
H26_2 H 0.9691 0.6484 0.3393
C61_2 C 0.2223(13) 0.3265(9) 0.5189(10)
H30_2 H 0.2415 0.2279 0.4542
H31_2 H 0.2040 0.4337 0.5355
H32_2 H 0.9864 0.7585 0.4542
H37_2 H 0.1896 0.2935 0.5722
H4_2 H 0.3275 0.0044 0.9850
H7_2 H 0.2331 0.0010 0.8674
N11_2 N 0.4947(8) 0.6056(6) 0.9886(5)
C36_2 C 0.5713(11) 0.6633(7) 0.9301(7)
C37_2 C 0.4260(7) 0.6160(5) 0.9590(6)
C44_2 C 0.5335(10) 0.7011(7) 0.8658(8)
C45_2 C 0.6534(13) 0.6921(10) 0.9363(12)
H20_2 H 0.3708 0.5882 0.9911
C52_2 C 0.5844(14) 0.7611(10) 0.7933(10)
C53_2 C 0.7075(18) 0.7522(14) 0.8712(13)
H24_2 H 0.6769 0.6725 0.9850
H27_2 H 0.9956 0.3231 0.9850
C60_2 C 0.6767(14) 0.7917(10) 0.8115(11)
H28_2 H 0.5616 0.7781 0.7417
H29_2 H 0.7679 0.7669 0.8674
H34_2 H 0.9990 0.2321 0.8674
H36_2 H 0.7192 0.8434 0.7793
C5_2 C 0.4471(8) 0.9409(6) 0.0699(7)
C9_2 C 0.4508(8) 0.8938(3) 0.1531(8)
C12_2 C 0.4956(6) 0.9416(6) 0.2303(6)
H6_2 H 0.4225 0.8309 0.1534
N3_2 N 0.4931(6) 0.8909(5) 0.3136(5)
C15_2 C 0.4176(6) 0.8118(5) 0.3434(6)
C16_2 C 0.5610(7) 0.9002(8) 0.3723(8)
H9_2 H 0.3596 0.7895 0.3185
C17_2 C 0.5281(7) 0.8295(6) 0.4352(5)
C18_2 C 0.6575(8) 0.9803(8) 0.3789(9)
C19_2 C 0.5863(7) 0.8240(8) 0.5015(8)
C20_2 C 0.7108(10) 0.9706(12) 0.4505(12)
H11_2 H 0.5663 0.7703 0.5355
C21_2 C 0.6735(9) 0.8958(10) 0.5189(10)
H13_2 H 0.7065 0.8961 0.5722
C1_2 C 0.3840(5) 0.8100(5) 0.9590(6)
C2_2 C 0.2989(7) 0.8324(7) 0.8658(8)
N2_2 N 0.3944(6) 0.8891(5) 0.9886(5)
H1_2 H 0.4118 0.7826 0.9911
C3_2 C 0.2389(10) 0.8233(10) 0.7933(10)
C4_2 C 0.3367(7) 0.9080(8) 0.9301(7)
H2_2 H 0.2219 0.7835 0.7417
C6_2 C 0.2083(10) 0.8850(10) 0.8115(11)
C7_2 C 0.3079(10) 0.9613(9) 0.9363(12)
H3_2 H 0.1566 0.8758 0.7793
C10_2 C 0.2478(14) 0.9553(12) 0.8712(13)
loop_
_geom_bond_atom_site_label_1
_geom_bond_atom_site_label_2
_geom_bond_site_symmetry_1
_geom_bond_site_symmetry_2
H33 C57 1_555 1_555
H38 C62 1_555 1_555
C57 C62 1_555 1_555
N13 C32 1_555 1_555
C35 C32 1_555 1_555
N14 C33 1_555 1_555
C40 N13 1_555 1_555
C41 N13 1_555 1_555
H19 C35 1_555 1_555
C42 N14 1_555 1_555
C43 N14 1_555 1_555
N17 C40 1_555 1_555
H22 C40 1_555 1_555
C48 C41 1_555 1_555
C49 C41 1_555 1_555
C50 C42 1_555 1_555
C51 C42 1_555 1_555
N18 C43 1_555 1_555
H23 C43 1_555 1_555
C56 C48 1_555 1_555
C58 C50 1_555 1_555
C59 C51 1_555 1_555
Co8 N18 1_555 1_555
C63 C58 1_555 1_555
H35 C59 1_555 1_555
H39 C63 1_555 1_555
C33 C35 1_555 1_555
N17 C49 1_555 1_555
C51 N18 1_555 1_555
C59 C63 1_555 1_555
H31 C55 1_555 1_555
H37 C61 1_555 1_555
C55 C61 1_555 1_555
H5 C8 1_555 1_555
C11 C8 1_555 1_555
C13 C11 1_555 1_555
C14 C11 1_555 1_555
O1 C13 1_555 1_555
O2 C13 1_555 1_555
H8 C14 1_555 1_555
N4 Co2 1_555 1_555
Co2 O1 1_555 1_555
Co3 O2 1_555 1_555
O3 Co2 1_555 1_555
O4 Co2 1_555 1_555
N6 Co2 1_555 1_555
N7 Co2 1_555 1_555
N8 Co3 1_555 1_555
N9 Co3 1_555 1_555
O5 Co3 1_555 1_555
O6 Co3 1_555 1_555
N10 Co3 1_555 1_555
C22 O3 1_555 1_555
C23 O4 1_555 1_555
C24 C22 1_555 1_555
C25 C23 1_555 1_555
C26 C24 1_555 1_555
C27 C24 1_555 1_555
C28 C25 1_555 1_555
C29 C25 1_555 1_555
C30 C26 1_555 1_555
H14 C26 1_555 1_555
C31 C27 1_555 1_555
H15 C27 1_555 1_555
H16 C28 1_555 1_555
H17 C29 1_555 1_555
C34 C30 1_555 1_555
N11 C30 1_555 1_555
N12 C31 1_555 1_555
H18 C34 1_555 1_555
C36 N11 1_555 1_555
C37 N11 1_555 1_555
C38 N12 1_555 1_555
C39 N12 1_555 1_555
C44 C36 1_555 1_555
C45 C36 1_555 1_555
N15 C37 1_555 1_555
H20 C37 1_555 1_555
H21 C38 1_555 1_555
N16 C38 1_555 1_555
C46 C39 1_555 1_555
C47 C39 1_555 1_555
C52 C44 1_555 1_555
C53 C45 1_555 1_555
H24 C45 1_555 1_555
Co8 N15 1_555 1_555
C54 C46 1_555 1_555
H25 C46 1_555 1_555
C60 C52 1_555 1_555
H28 C52 1_555 1_555
H29 C53 1_555 1_555
H30 C54 1_555 1_555
H36 C60 1_555 1_555
O5 C22 1_555 1_555
O6 C23 1_555 1_555
C31 C34 1_555 1_555
C44 N15 1_555 1_555
N16 C47 1_555 1_555
C53 C60 1_555 1_555
H11 C19 1_555 1_555
C21 C19 1_555 1_555
H13 C21 1_555 1_555
Co8 N1 1_555 1_555
N1 C1 1_555 1_555
C1 N2 1_555 1_555
C2 N1 1_555 1_555
N2 C4 1_555 1_555
H1 C1 1_555 1_555
C3 C2 1_555 1_555
C4 C2 1_555 1_555
C5 N2 1_555 1_555
H2 C3 1_555 1_555
C6 C3 1_555 1_555
C7 C4 1_555 1_555
C9 C5 1_555 1_555
H3 C6 1_555 1_555
C10 C6 1_555 1_555
C12 C9 1_555 1_555
H6 C9 1_555 1_555
N3 C12 1_555 1_555
C15 N3 1_555 1_555
C16 N3 1_555 1_555
H9 C15 1_555 1_555
C17 C16 1_555 1_555
C18 C16 1_555 1_555
C20 C18 1_555 1_555
N5 C15 1_555 1_555
C7 C10 1_555 1_555
C17 N5 1_555 1_555
N13_2 C32_2 1_555 1_555
C35_2 C32_2 1_555 1_555
C40_2 N13_2 1_555 1_555
C41_2 N13_2 1_555 1_555
H19_2 C35_2 1_555 1_555
N4 C40_2 1_555 1_555
H22_2 C40_2 1_555 1_555
C48_2 C41_2 1_555 1_555
C49_2 C41_2 1_555 1_555
C56_2 C48_2 1_555 1_555
C57_2 C49_2 1_555 1_555
C62_2 C56_2 1_555 1_555
H33_2 C57_2 1_555 1_555
H38_2 C62_2 1_555 1_555
C33_2 C35_2 1_555 1_555
N4 C49_2 1_555 1_555
C57_2 C62_2 1_555 1_555
C42_2 N14_2 1_555 1_555
C43_2 N14_2 1_555 1_555
C50_2 C42_2 1_555 1_555
C51_2 C42_2 1_555 1_555
N8 C43_2 1_555 1_555
H23_2 C43_2 1_555 1_555
C58_2 C50_2 1_555 1_555
C59_2 C51_2 1_555 1_555
C63_2 C58_2 1_555 1_555
H35_2 C59_2 1_555 1_555
H39_2 C63_2 1_555 1_555
C51_2 N8 1_555 1_555
C59_2 C63_2 1_555 1_555
H5_2 C8_2 1_555 1_555
C11_2 C8_2 1_555 1_555
C13_2 C11_2 1_555 1_555
C14_2 C11_2 1_555 1_555
O1_2 C13_2 1_555 1_555
O2_2 C13_2 1_555 1_555
H8_2 C14_2 1_555 1_555
Co7 O1_2 1_555 1_555
Co8 O2_2 1_555 1_555
O3_2 Co7 1_555 1_555
O4_2 Co7 1_555 1_555
O5_2 Co8 1_555 1_555
O6_2 Co8 1_555 1_555
C22_2 O3_2 1_555 1_555
C23_2 O4_2 1_555 1_555
C24_2 C22_2 1_555 1_555
C25_2 C23_2 1_555 1_555
C26_2 C24_2 1_555 1_555
C27_2 C24_2 1_555 1_555
C28_2 C25_2 1_555 1_555
C29_2 C25_2 1_555 1_555
C30_2 C26_2 1_555 1_555
H14_2 C26_2 1_555 1_555
C31_2 C27_2 1_555 1_555
H15_2 C27_2 1_555 1_555
H16_2 C28_2 1_555 1_555
H17_2 C29_2 1_555 1_555
C34_2 C30_2 1_555 1_555
N12_2 C31_2 1_555 1_555
H18_2 C34_2 1_555 1_555
C38_2 N12_2 1_555 1_555
C39_2 N12_2 1_555 1_555
H21_2 C38_2 1_555 1_555
N7 C38_2 1_555 1_555
C46_2 C39_2 1_555 1_555
C47_2 C39_2 1_555 1_555
C54_2 C46_2 1_555 1_555
H25_2 C46_2 1_555 1_555
C55_2 C47_2 1_555 1_555
C61_2 C54_2 1_555 1_555
H30_2 C54_2 1_555 1_555
H31_2 C55_2 1_555 1_555
H37_2 C61_2 1_555 1_555
O5_2 C22_2 1_555 1_555
O6_2 C23_2 1_555 1_555
C31_2 C34_2 1_555 1_555
N7 C47_2 1_555 1_555
C55_2 C61_2 1_555 1_555
C36_2 N11_2 1_555 1_555
C37_2 N11_2 1_555 1_555
C44_2 C36_2 1_555 1_555
C45_2 C36_2 1_555 1_555
N10 C37_2 1_555 1_555
H20_2 C37_2 1_555 1_555
C52_2 C44_2 1_555 1_555
C53_2 C45_2 1_555 1_555
H24_2 C45_2 1_555 1_555
C60_2 C52_2 1_555 1_555
H28_2 C52_2 1_555 1_555
H29_2 C53_2 1_555 1_555
H36_2 C60_2 1_555 1_555
C44_2 N10 1_555 1_555
C53_2 C60_2 1_555 1_555
C9_2 C5_2 1_555 1_555
C12_2 C9_2 1_555 1_555
H6_2 C9_2 1_555 1_555
N3_2 C12_2 1_555 1_555
C15_2 N3_2 1_555 1_555
C16_2 N3_2 1_555 1_555
H9_2 C15_2 1_555 1_555
C17_2 C16_2 1_555 1_555
C18_2 C16_2 1_555 1_555
C19_2 C17_2 1_555 1_555
C20_2 C18_2 1_555 1_555
H11_2 C19_2 1_555 1_555
C21_2 C19_2 1_555 1_555
H13_2 C21_2 1_555 1_555
N6 C15_2 1_555 1_555
C17_2 N6 1_555 1_555
C20_2 C21_2 1_555 1_555
N9 C1_2 1_555 1_555
C1_2 N2_2 1_555 1_555
C2_2 N9 1_555 1_555
N2_2 C4_2 1_555 1_555
H1_2 C1_2 1_555 1_555
C3_2 C2_2 1_555 1_555
C4_2 C2_2 1_555 1_555
H2_2 C3_2 1_555 1_555
C6_2 C3_2 1_555 1_555
C7_2 C4_2 1_555 1_555
H3_2 C6_2 1_555 1_555
C10_2 C6_2 1_555 1_555
C7_2 C10_2 1_555 1_555

#END
