
###############################################################################
#
# This file contains modified crystal structure data generated from the
# MOF subset of the Cambridge Structural Database (CSD) v543 
# hosted by the Cambridge Crystallographic Data Centre (CCDC).
#
# This work is licensed under the Creative Commons
# Attribution-NonCommercial-ShareAlike 4.0 International License.
# To view a copy of this license, visit
# http://creativecommons.org/licenses/by-nc-sa/4.0/
# or send a letter to
# Creative Commons, PO Box 1866, Mountain View, CA 94042, USA.
#
# CIF created using the CSD Python API on 29 September 2022
# The structure has been converted into the P1 space group
# The structure has a 3D framework
# The original CSD entry YOYQIO is in the monoclinic crystal system
# The framework has been calculated to contain at least 10.0% void space
# The void calculation uses a probe of radius 1.32A, grid spacing 0.4
# The framework is charged, counterions have been retained in the structure
#
###############################################################################

data_YOYQIO
_chemical_formula_moiety         '(C258 H158 Cl6 Mn8 N48 O24 2-)n'
_symmetry_cell_setting           triclinic
_symmetry_space_group_name_H-M   'P 1'
_symmetry_Int_Tables_number      1
_space_group_name_Hall           'P 1'
loop_
_symmetry_equiv_pos_site_id
_symmetry_equiv_pos_as_xyz
1 x,y,z
_cell_length_a                   17.872(2)
_cell_length_b                   28.462(2)
_cell_length_c                   14.1464(14)
_cell_angle_alpha                90
_cell_angle_beta                 91.662(3)
_cell_angle_gamma                90
_cell_volume                     7192.86
loop_
_atom_site_label
_atom_site_type_symbol
_atom_site_fract_x
_atom_site_fract_y
_atom_site_fract_z
Cl1 Cl -0.0000 0.17392(5) 0.2500
Cl1_2 Cl 1.0000 0.17392(5) 0.2500
Cl1_3 Cl 0.5000 0.67392(5) 0.2500
Cl1_4 Cl 0.0000 0.82608(5) 0.7500
Cl1_5 Cl 1.0000 0.82608(5) 0.7500
Cl1_6 Cl 0.5000 0.32608(5) 0.7500
N18 N 0.45190(19) 0.26863(12) 0.0078(2)
C53 C 0.4371(3) 0.22163(17) 0.0252(4)
Mn8 Mn 0.50218(3) 0.32481(2) 0.10456(4)
C59 C 0.4709(5) 0.1912(2) 0.0896(6)
C60 C 0.3962(9) 0.1291(3) 0.0215(10)
C63 C 0.4491(8) 0.1454(3) 0.0878(10)
H35 H 0.5074 0.2017 0.1328
H36 H 0.3843 0.0973 0.0201
H39 H 0.4700 0.1245 0.1318
Mn1 Mn 0.00218(3) 0.17519(2) 0.60456(4)
O1 O 0.03466(15) 0.11471(9) 0.68520(17)
N2 N 0.10684(18) 0.17359(11) 0.5146(2)
O3 O 0.06967(15) 0.22247(9) 0.68703(17)
C1 C 0.0000 0.09460(18) 0.7500
C3 C 0.0000 0.04220(19) 0.7500
C34 C 0.1138(2) 0.21244(13) 0.7540(2)
O6 O 0.09980(15) 0.18700(10) 0.82453(18)
C35 C 0.1914(2) 0.23188(14) 0.7513(3)
C36 C 0.0229(2) 0.01820(14) 0.6711(3)
C37 C 0.2147(2) 0.25480(14) 0.6705(3)
C38 C 0.2405(2) 0.22737(14) 0.8298(3)
H21 H 0.0375 0.0345 0.6177
N8 N 0.04810(19) 0.23137(12) 0.9922(2)
N9 N 0.05020(18) 0.11692(11) 0.9897(2)
C40 C 0.2853(2) 0.27307(15) 0.6679(3)
H22 H 0.1823 0.2577 0.6183
C41 C 0.3112(2) 0.24569(14) 0.8257(3)
H23 H 0.2253 0.2121 0.8841
N11 N 0.31082(18) 0.29800(12) 0.5860(2)
C42 C 0.3351(2) 0.26969(15) 0.7457(3)
N12 N 0.3623(2) 0.24308(12) 0.9055(2)
C45 C 0.3828(2) 0.29859(14) 0.5563(3)
C46 C 0.2713(2) 0.32958(14) 0.5295(3)
H24 H 0.3826 0.2830 0.7443
C47 C 0.4067(2) 0.27901(15) 0.9366(3)
C48 C 0.3820(3) 0.20524(18) 0.9611(4)
N17 N 0.39316(18) 0.32641(11) 0.4854(2)
H26 H 0.4209 0.2807 0.5843
C51 C 0.3230(2) 0.34701(15) 0.4659(3)
C52 C 0.1973(3) 0.3451(2) 0.5286(4)
H27 H 0.4051 0.3087 0.9092
C54 C 0.3610(6) 0.1590(2) 0.9580(6)
H28 H 0.1587 0.0131 0.5743
Mn6 Mn 0.49782(3) 0.32481(2) 0.39544(4)
C57 C 0.3022(3) 0.38053(17) 0.3985(3)
C58 C 0.1782(3) 0.3792(2) 0.4626(5)
H29 H 0.1627 0.3333 0.5702
H30 H 0.3245 0.1483 0.9149
H32 H 0.2520 0.0067 0.4632
C62 C 0.2293(3) 0.3960(2) 0.3972(5)
H33 H 0.3363 0.3920 0.3559
H34 H 0.1299 0.3913 0.4615
H38 H 0.2136 0.4180 0.3522
Mn3 Mn 0.00218(3) 0.82481(2) 0.10456(4)
C11 C 0.0000 0.9445(2) 0.7500
H4 H 0.0000 0.9118 0.7500
H6 H 0.0251 0.8882 0.9116
C39 C 0.0236(2) 0.96951(14) 0.6727(3)
N10 N 0.04695(19) 0.94333(11) 0.5908(2)
C43 C 0.0162(2) 0.90182(14) 0.5608(3)
C44 C 0.1069(3) 0.95195(15) 0.5333(3)
N14 N 0.05020(18) 0.88308(11) 0.4897(2)
C49 C 0.1083(2) 0.91386(14) 0.4701(3)
C50 C 0.1599(3) 0.98801(18) 0.5323(4)
C55 C 0.1623(3) 0.91120(17) 0.4010(3)
C56 C 0.2144(4) 0.9841(2) 0.4651(5)
H31 H 0.1633 0.8865 0.3580
C61 C 0.2142(3) 0.9471(2) 0.3998(4)
H37 H 0.2505 0.9467 0.3539
C21 C 0.6770(2) 0.34701(15) 0.0341(3)
C27 C 0.6978(3) 0.38053(17) 0.1015(3)
C28 C 0.8218(3) 0.3792(2) 0.0374(5)
H13 H 0.7480 0.0067 0.0368
C32 C 0.7707(3) 0.3960(2) 0.1028(5)
H14 H 0.6637 0.3920 0.1441
H15 H 0.8701 0.3913 0.0385
H19 H 0.7864 0.4180 0.1478
N15 N 0.60684(18) 0.32641(11) 0.0146(2)
N1 N 0.95190(19) 0.23137(12) 0.5078(2)
O2 O 0.90020(15) 0.18700(10) 0.67547(18)
N3 N 0.94980(18) 0.11692(11) 0.5103(2)
C1_2 C 1.0000 0.09460(18) 0.7500
C2 C 0.8862(2) 0.21244(13) 0.7460(2)
C3_2 C 1.0000 0.04220(19) 0.7500
C4 C 0.8086(2) 0.23188(14) 0.7487(3)
C5 C 0.9771(2) 0.01820(14) 0.8289(3)
C6 C 0.7853(2) 0.25480(14) 0.8295(3)
C7 C 0.7595(2) 0.22737(14) 0.6702(3)
H1 H 0.9625 0.0345 0.8823
H2 H 0.8177 0.2577 0.8817
C9 C 0.7147(2) 0.27307(15) 0.8321(3)
H3 H 0.7747 0.2121 0.6159
C10 C 0.6888(2) 0.24569(14) 0.6743(3)
N5 N 0.68918(18) 0.29800(12) 0.9140(2)
C12 C 0.6649(2) 0.26969(15) 0.7543(3)
N6 N 0.6377(2) 0.24308(12) 0.5945(2)
C15 C 0.7287(2) 0.32958(14) 0.9705(3)
C16 C 0.6172(2) 0.29859(14) 0.9437(3)
H5 H 0.6174 0.2830 0.7557
C17 C 0.5933(2) 0.27901(15) 0.5634(3)
C18 C 0.6180(3) 0.20524(18) 0.5389(4)
C22 C 0.8027(3) 0.3451(2) 0.9714(4)
H7 H 0.5791 0.2807 0.9157
H8 H 0.5949 0.3087 0.5908
C23 C 0.5629(3) 0.22163(17) 0.4748(4)
C24 C 0.6390(6) 0.1590(2) 0.5420(6)
H9 H 0.8413 0.0131 0.9257
H10 H 0.8373 0.3333 0.9298
C29 C 0.5291(5) 0.1912(2) 0.4104(6)
H11 H 0.6755 0.1483 0.5851
C30 C 0.6038(9) 0.1291(3) 0.4785(10)
C33 C 0.5509(8) 0.1454(3) 0.4122(10)
H16 H 0.4926 0.2017 0.3672
H17 H 0.6157 0.0973 0.4799
H20 H 0.5300 0.1245 0.3682
O4 O 0.96534(15) 0.11471(9) 0.81480(17)
O5 O 0.93033(15) 0.22247(9) 0.81297(17)
Mn2 Mn 0.99782(3) 0.17519(2) 0.89544(4)
N7 N 0.89316(18) 0.17359(11) 0.9854(2)
N16 N 0.54810(19) 0.26863(12) 0.4922(2)
C19 C 0.8917(2) 0.91386(14) 0.0299(3)
C25 C 0.8377(3) 0.91120(17) 0.0990(3)
C26 C 0.7856(4) 0.9841(2) 0.0349(5)
H12 H 0.8367 0.8865 0.1420
C31 C 0.7858(3) 0.9471(2) 0.1002(4)
H18 H 0.7495 0.9467 0.1461
N13 N 0.94980(18) 0.88308(11) 0.0103(2)
C8 C 0.9764(2) 0.96951(14) 0.8273(3)
N4 N 0.95305(19) 0.94333(11) 0.9092(2)
C11_2 C 1.0000 0.9445(2) 0.7500
C13 C 0.9838(2) 0.90182(14) 0.9392(3)
C14 C 0.8931(3) 0.95195(15) 0.9667(3)
H4_2 H 1.0000 0.9118 0.7500
C20 C 0.8401(3) 0.98801(18) 0.9677(4)
H25 H 0.9749 0.8882 0.5884
Mn4 Mn 0.99782(3) 0.82481(2) 0.39544(4)
H35_2 H 0.0074 0.7017 0.1328
C19_2 C 0.3917(2) 0.41386(14) 0.0299(3)
C21_2 C 0.1770(2) 0.84701(15) 0.0341(3)
C25_2 C 0.3377(3) 0.41120(17) 0.0990(3)
C26_2 C 0.2856(4) 0.4841(2) 0.0349(5)
C27_2 C 0.1978(3) 0.88053(17) 0.1015(3)
C28_2 C 0.3218(3) 0.8792(2) 0.0374(5)
H12_2 H 0.3367 0.3865 0.1420
C31_2 C 0.2858(3) 0.4471(2) 0.1002(4)
H13_2 H 0.2480 0.5067 0.0368
C32_2 C 0.2707(3) 0.8960(2) 0.1028(5)
H14_2 H 0.1637 0.8920 0.1441
H15_2 H 0.3701 0.8913 0.0385
H18_2 H 0.2495 0.4467 0.1461
H19_2 H 0.2864 0.9180 0.1478
N13_2 N 0.44980(18) 0.38308(11) 0.0103(2)
N15_2 N 0.10684(18) 0.82641(11) 0.0146(2)
N18_2 N 0.95190(19) 0.76863(12) 0.0078(2)
C53_2 C 0.9371(3) 0.72163(17) 0.0252(4)
C59_2 C 0.9709(5) 0.6912(2) 0.0896(6)
C60_2 C 0.8962(9) 0.6291(3) 0.0215(10)
C63_2 C 0.9491(8) 0.6454(3) 0.0878(10)
H36_2 H 0.8843 0.5973 0.0201
H39_2 H 0.9700 0.6245 0.1318
Mn1_2 Mn 0.50218(3) 0.67519(2) 0.60456(4)
O1_2 O 0.53466(15) 0.61471(9) 0.68520(17)
N1_2 N 0.45190(19) 0.73137(12) 0.5078(2)
N2_2 N 0.60684(18) 0.67359(11) 0.5146(2)
O2_2 O 0.40020(15) 0.68700(10) 0.67547(18)
O3_2 O 0.56967(15) 0.72247(9) 0.68703(17)
N3_2 N 0.44980(18) 0.61692(11) 0.5103(2)
C1_3 C 0.5000 0.59460(18) 0.7500
C2_2 C 0.3862(2) 0.71244(13) 0.7460(2)
C3_3 C 0.5000 0.54220(19) 0.7500
C4_2 C 0.3086(2) 0.73188(14) 0.7487(3)
C5_2 C 0.4771(2) 0.51820(14) 0.8289(3)
C6_2 C 0.2853(2) 0.75480(14) 0.8295(3)
C7_2 C 0.2595(2) 0.72737(14) 0.6702(3)
H1_2 H 0.4625 0.5345 0.8823
C8_2 C 0.4764(2) 0.46951(14) 0.8273(3)
H2_2 H 0.3177 0.7577 0.8817
C9_2 C 0.2147(2) 0.77307(15) 0.8321(3)
H3_2 H 0.2747 0.7121 0.6159
C10_2 C 0.1888(2) 0.74569(14) 0.6743(3)
N4_2 N 0.45305(19) 0.44333(11) 0.9092(2)
C11_3 C 0.5000 0.4445(2) 0.7500
N5_2 N 0.18918(18) 0.79800(12) 0.9140(2)
C12_2 C 0.1649(2) 0.76969(15) 0.7543(3)
N6_2 N 0.1377(2) 0.74308(12) 0.5945(2)
C13_2 C 0.4838(2) 0.40182(14) 0.9392(3)
C14_2 C 0.3931(3) 0.45195(15) 0.9667(3)
H4_3 H 0.5000 0.4118 0.7500
C15_2 C 0.2287(2) 0.82958(14) 0.9705(3)
C16_2 C 0.1172(2) 0.79859(14) 0.9437(3)
H5_2 H 0.1174 0.7830 0.7557
C17_2 C 0.0933(2) 0.77901(15) 0.5634(3)
C18_2 C 0.1180(3) 0.70524(18) 0.5389(4)
H6_2 H 0.5251 0.3882 0.9116
C20_2 C 0.3401(3) 0.48801(18) 0.9677(4)
C22_2 C 0.3027(3) 0.8451(2) 0.9714(4)
H7_2 H 0.0791 0.7807 0.9157
H8_2 H 0.0949 0.8087 0.5908
C23_2 C 0.0629(3) 0.72163(17) 0.4748(4)
C24_2 C 0.1390(6) 0.6590(2) 0.5420(6)
H9_2 H 0.3413 0.5131 0.9257
H10_2 H 0.3373 0.8333 0.9298
C29_2 C 0.0291(5) 0.6912(2) 0.4104(6)
H11_2 H 0.1755 0.6483 0.5851
C30_2 C 0.1038(9) 0.6291(3) 0.4785(10)
C33_2 C 0.0509(8) 0.6454(3) 0.4122(10)
H17_2 H 0.1157 0.5973 0.4799
H20_2 H 0.0300 0.6245 0.3682
C34_2 C 0.6138(2) 0.71244(13) 0.7540(2)
O4_2 O 0.46534(15) 0.61471(9) 0.81480(17)
O5_2 O 0.43033(15) 0.72247(9) 0.81297(17)
O6_2 O 0.59980(15) 0.68700(10) 0.82453(18)
C35_2 C 0.6914(2) 0.73188(14) 0.7513(3)
C36_2 C 0.5229(2) 0.51820(14) 0.6711(3)
Mn2_2 Mn 0.49782(3) 0.67519(2) 0.89544(4)
C37_2 C 0.7147(2) 0.75480(14) 0.6705(3)
C38_2 C 0.7405(2) 0.72737(14) 0.8298(3)
H21_2 H 0.5375 0.5345 0.6177
C39_2 C 0.5236(2) 0.46951(14) 0.6727(3)
N7_2 N 0.39316(18) 0.67359(11) 0.9854(2)
N8_2 N 0.54810(19) 0.73137(12) 0.9922(2)
N9_2 N 0.55020(18) 0.61692(11) 0.9897(2)
C40_2 C 0.7853(2) 0.77307(15) 0.6679(3)
H22_2 H 0.6823 0.7577 0.6183
C41_2 C 0.8112(2) 0.74569(14) 0.8257(3)
H23_2 H 0.7253 0.7121 0.8841
N10_2 N 0.54695(19) 0.44333(11) 0.5908(2)
N11_2 N 0.81082(18) 0.79800(12) 0.5860(2)
C42_2 C 0.8351(2) 0.76969(15) 0.7457(3)
N12_2 N 0.8623(2) 0.74308(12) 0.9055(2)
C43_2 C 0.5162(2) 0.40182(14) 0.5608(3)
C44_2 C 0.6069(3) 0.45195(15) 0.5333(3)
C45_2 C 0.8828(2) 0.79859(14) 0.5563(3)
C46_2 C 0.7713(2) 0.82958(14) 0.5295(3)
H24_2 H 0.8826 0.7830 0.7443
C47_2 C 0.9067(2) 0.77901(15) 0.9366(3)
C48_2 C 0.8820(3) 0.70524(18) 0.9611(4)
N14_2 N 0.55020(18) 0.38308(11) 0.4897(2)
H25_2 H 0.4749 0.3882 0.5884
C49_2 C 0.6083(2) 0.41386(14) 0.4701(3)
C50_2 C 0.6599(3) 0.48801(18) 0.5323(4)
N16_2 N 0.04810(19) 0.76863(12) 0.4922(2)
N17_2 N 0.89316(18) 0.82641(11) 0.4854(2)
H26_2 H 0.9209 0.7807 0.5843
C51_2 C 0.8230(2) 0.84701(15) 0.4659(3)
C52_2 C 0.6973(3) 0.8451(2) 0.5286(4)
H27_2 H 0.9051 0.8087 0.9092
C54_2 C 0.8610(6) 0.6590(2) 0.9580(6)
C55_2 C 0.6623(3) 0.41120(17) 0.4010(3)
C56_2 C 0.7144(4) 0.4841(2) 0.4651(5)
H28_2 H 0.6587 0.5131 0.5743
C57_2 C 0.8022(3) 0.88053(17) 0.3985(3)
C58_2 C 0.6782(3) 0.8792(2) 0.4626(5)
H29_2 H 0.6627 0.8333 0.5702
H30_2 H 0.8245 0.6483 0.9149
H31_2 H 0.6633 0.3865 0.3580
C61_2 C 0.7142(3) 0.4471(2) 0.3998(4)
H32_2 H 0.7520 0.5067 0.4632
C62_2 C 0.7293(3) 0.8960(2) 0.3972(5)
H33_2 H 0.8363 0.8920 0.3559
H34_2 H 0.6299 0.8913 0.4615
H37_2 H 0.7505 0.4467 0.3539
H38_2 H 0.7136 0.9180 0.3522
H16_2 H 0.9926 0.7017 0.3672
C8_3 C 0.0236(2) 0.03049(14) 0.1727(3)
N4_3 N 0.04695(19) 0.05667(11) 0.0908(2)
C11_4 C 0.0000 0.0555(2) 0.2500
C13_3 C 0.0162(2) 0.09818(14) 0.0608(3)
C14_3 C 0.1069(3) 0.04805(15) 0.0333(3)
H4_4 H 0.0000 0.0882 0.2500
C20_3 C 0.1599(3) 0.01199(18) 0.0323(4)
H25_3 H 0.0251 0.1118 0.4116
C19_3 C 0.1083(2) 0.08614(14) 0.9701(3)
C25_3 C 0.1623(3) 0.08880(17) 0.9010(3)
C26_3 C 0.2144(4) 0.0159(2) 0.9651(5)
H12_3 H 0.1633 0.1135 0.8580
C31_3 C 0.2142(3) 0.0529(2) 0.8998(4)
H18_3 H 0.2505 0.0533 0.8539
O2_3 O 0.09980(15) 0.81300(10) 0.32453(18)
C1_4 C 0.0000 0.90540(18) 0.2500
C2_3 C 0.1138(2) 0.78756(13) 0.2540(2)
C3_4 C 0.0000 0.95780(19) 0.2500
C4_3 C 0.1914(2) 0.76812(14) 0.2513(3)
C5_3 C 0.0229(2) 0.98180(14) 0.1711(3)
C6_3 C 0.2147(2) 0.74520(14) 0.1705(3)
C7_3 C 0.2405(2) 0.77263(14) 0.3298(3)
H1_3 H 0.0375 0.9655 0.1177
H2_3 H 0.1823 0.7423 0.1183
C9_3 C 0.2853(2) 0.72693(15) 0.1679(3)
H3_3 H 0.2253 0.7879 0.3841
C10_3 C 0.3112(2) 0.75431(14) 0.3257(3)
N5_3 N 0.31082(18) 0.70200(12) 0.0860(2)
C12_3 C 0.3351(2) 0.73031(15) 0.2457(3)
N6_3 N 0.3623(2) 0.75692(12) 0.4055(2)
C15_3 C 0.2713(2) 0.67042(14) 0.0295(3)
C16_3 C 0.3828(2) 0.70141(14) 0.0563(3)
H5_3 H 0.3826 0.7170 0.2443
C17_3 C 0.4067(2) 0.72099(15) 0.4366(3)
C18_3 C 0.3820(3) 0.79476(18) 0.4611(4)
C22_3 C 0.1973(3) 0.6549(2) 0.0286(4)
H7_3 H 0.4209 0.7193 0.0843
H8_3 H 0.4051 0.6913 0.4092
C23_3 C 0.4371(3) 0.77837(17) 0.5252(4)
C24_3 C 0.3610(6) 0.8410(2) 0.4580(6)
H9_3 H 0.1587 0.9869 0.0743
H10_3 H 0.1627 0.6667 0.0702
C29_3 C 0.4709(5) 0.8088(2) 0.5896(6)
H11_3 H 0.3245 0.8517 0.4149
C30_3 C 0.3962(9) 0.8709(3) 0.5215(10)
C33_3 C 0.4491(8) 0.8546(3) 0.5878(10)
H16_3 H 0.5074 0.7983 0.6328
H17_3 H 0.3843 0.9027 0.5201
H20_3 H 0.4700 0.8755 0.6318
O4_3 O 0.03466(15) 0.88529(9) 0.18520(17)
O5_3 O 0.06967(15) 0.77753(9) 0.18703(17)
C21_3 C 0.3230(2) 0.65299(15) 0.9659(3)
C27_3 C 0.3022(3) 0.61947(17) 0.8985(3)
C28_3 C 0.1782(3) 0.6208(2) 0.9626(5)
H13_3 H 0.2520 0.9933 0.9632
C32_3 C 0.2293(3) 0.6040(2) 0.8972(5)
H14_3 H 0.3363 0.6080 0.8559
H15_3 H 0.1299 0.6087 0.9615
H19_3 H 0.2136 0.5820 0.8522
C11_5 C 1.0000 0.0555(2) 0.2500
H4_5 H 1.0000 0.0882 0.2500
H6_3 H 0.9749 0.1118 0.0884
C39_3 C 0.9764(2) 0.03049(14) 0.3273(3)
N10_3 N 0.95305(19) 0.05667(11) 0.4092(2)
C43_3 C 0.9838(2) 0.09818(14) 0.4392(3)
C44_3 C 0.8931(3) 0.04805(15) 0.4667(3)
C49_3 C 0.8917(2) 0.08614(14) 0.5299(3)
C50_3 C 0.8401(3) 0.01199(18) 0.4677(4)
C55_3 C 0.8377(3) 0.08880(17) 0.5990(3)
C56_3 C 0.7856(4) 0.0159(2) 0.5349(5)
H31_3 H 0.8367 0.1135 0.6420
C61_3 C 0.7858(3) 0.0529(2) 0.6002(4)
H37_3 H 0.7495 0.0533 0.6461
O1_3 O 0.96534(15) 0.88529(9) 0.31480(17)
O3_3 O 0.93033(15) 0.77753(9) 0.31297(17)
C1_5 C 1.0000 0.90540(18) 0.2500
C3_5 C 1.0000 0.95780(19) 0.2500
C34_3 C 0.8862(2) 0.78756(13) 0.2460(2)
O6_3 O 0.90020(15) 0.81300(10) 0.17547(18)
C35_3 C 0.8086(2) 0.76812(14) 0.2487(3)
C36_3 C 0.9771(2) 0.98180(14) 0.3289(3)
C37_3 C 0.7853(2) 0.74520(14) 0.3295(3)
C38_3 C 0.7595(2) 0.77263(14) 0.1702(3)
H21_3 H 0.9625 0.9655 0.3823
C40_3 C 0.7147(2) 0.72693(15) 0.3321(3)
H22_3 H 0.8177 0.7423 0.3817
C41_3 C 0.6888(2) 0.75431(14) 0.1743(3)
H23_3 H 0.7747 0.7879 0.1159
N11_3 N 0.68918(18) 0.70200(12) 0.4140(2)
C42_3 C 0.6649(2) 0.73031(15) 0.2543(3)
N12_3 N 0.6377(2) 0.75692(12) 0.0945(2)
C45_3 C 0.6172(2) 0.70141(14) 0.4437(3)
C46_3 C 0.7287(2) 0.67042(14) 0.4705(3)
H24_3 H 0.6174 0.7170 0.2557
C47_3 C 0.5933(2) 0.72099(15) 0.0634(3)
C48_3 C 0.6180(3) 0.79476(18) 0.0389(4)
H26_3 H 0.5791 0.7193 0.4157
C51_3 C 0.6770(2) 0.65299(15) 0.5341(3)
C52_3 C 0.8027(3) 0.6549(2) 0.4714(4)
H27_3 H 0.5949 0.6913 0.0908
C54_3 C 0.6390(6) 0.8410(2) 0.0420(6)
H28_3 H 0.8413 0.9869 0.4257
C57_3 C 0.6978(3) 0.61947(17) 0.6015(3)
C58_3 C 0.8218(3) 0.6208(2) 0.5374(5)
H29_3 H 0.8373 0.6667 0.4298
H30_3 H 0.6755 0.8517 0.0851
H32_3 H 0.7480 0.9933 0.5368
C62_3 C 0.7707(3) 0.6040(2) 0.6028(5)
H33_3 H 0.6637 0.6080 0.6441
H34_3 H 0.8701 0.6087 0.5385
H38_3 H 0.7864 0.5820 0.6478
C53_3 C 0.5629(3) 0.77837(17) 0.9748(4)
C59_3 C 0.5291(5) 0.8088(2) 0.9104(6)
C60_3 C 0.6038(9) 0.8709(3) 0.9785(10)
C63_3 C 0.5509(8) 0.8546(3) 0.9122(10)
H35_3 H 0.4926 0.7983 0.8672
H36_3 H 0.6157 0.9027 0.9799
H39_3 H 0.5300 0.8755 0.8682
H16_4 H 0.0074 0.2983 0.6328
O1_4 O 0.46534(15) 0.38529(9) 0.31480(17)
O2_4 O 0.59980(15) 0.31300(10) 0.32453(18)
O3_4 O 0.43033(15) 0.27753(9) 0.31297(17)
C1_6 C 0.5000 0.40540(18) 0.2500
C2_4 C 0.6138(2) 0.28756(13) 0.2540(2)
C3_6 C 0.5000 0.45780(19) 0.2500
C4_4 C 0.6914(2) 0.26812(14) 0.2513(3)
C5_4 C 0.5229(2) 0.48180(14) 0.1711(3)
C6_4 C 0.7147(2) 0.24520(14) 0.1705(3)
C7_4 C 0.7405(2) 0.27263(14) 0.3298(3)
H1_4 H 0.5375 0.4655 0.1177
C8_4 C 0.5236(2) 0.53049(14) 0.1727(3)
H2_4 H 0.6823 0.2423 0.1183
C9_4 C 0.7853(2) 0.22693(15) 0.1679(3)
H3_4 H 0.7253 0.2879 0.3841
C10_4 C 0.8112(2) 0.25431(14) 0.3257(3)
N4_4 N 0.54695(19) 0.55667(11) 0.0908(2)
C11_6 C 0.5000 0.5555(2) 0.2500
N5_4 N 0.81082(18) 0.20200(12) 0.0860(2)
C12_4 C 0.8351(2) 0.23031(15) 0.2457(3)
N6_4 N 0.8623(2) 0.25692(12) 0.4055(2)
C13_4 C 0.5162(2) 0.59818(14) 0.0608(3)
C14_4 C 0.6069(3) 0.54805(15) 0.0333(3)
H4_6 H 0.5000 0.5882 0.2500
C15_4 C 0.7713(2) 0.17042(14) 0.0295(3)
C16_4 C 0.8828(2) 0.20141(14) 0.0563(3)
H5_4 H 0.8826 0.2170 0.2443
C17_4 C 0.9067(2) 0.22099(15) 0.4366(3)
C18_4 C 0.8820(3) 0.29476(18) 0.4611(4)
H6_4 H 0.4749 0.6118 0.0884
C20_4 C 0.6599(3) 0.51199(18) 0.0323(4)
C22_4 C 0.6973(3) 0.1549(2) 0.0286(4)
H7_4 H 0.9209 0.2193 0.0843
H8_4 H 0.9051 0.1913 0.4092
C23_4 C 0.9371(3) 0.27837(17) 0.5252(4)
C24_4 C 0.8610(6) 0.3410(2) 0.4580(6)
H9_4 H 0.6587 0.4869 0.0743
H10_4 H 0.6627 0.1667 0.0702
C29_4 C 0.9709(5) 0.3088(2) 0.5896(6)
H11_4 H 0.8245 0.3517 0.4149
C30_4 C 0.8962(9) 0.3709(3) 0.5215(10)
C33_4 C 0.9491(8) 0.3546(3) 0.5878(10)
H17_4 H 0.8843 0.4027 0.5201
H20_4 H 0.9700 0.3755 0.6318
C34_4 C 0.3862(2) 0.28756(13) 0.2460(2)
O4_4 O 0.53466(15) 0.38529(9) 0.18520(17)
O5_4 O 0.56967(15) 0.27753(9) 0.18703(17)
O6_4 O 0.40020(15) 0.31300(10) 0.17547(18)
C35_4 C 0.3086(2) 0.26812(14) 0.2487(3)
C36_4 C 0.4771(2) 0.48180(14) 0.3289(3)
C37_4 C 0.2853(2) 0.24520(14) 0.3295(3)
C38_4 C 0.2595(2) 0.27263(14) 0.1702(3)
H21_4 H 0.4625 0.4655 0.3823
C39_4 C 0.4764(2) 0.53049(14) 0.3273(3)
C40_4 C 0.2147(2) 0.22693(15) 0.3321(3)
H22_4 H 0.3177 0.2423 0.3817
C41_4 C 0.1888(2) 0.25431(14) 0.1743(3)
H23_4 H 0.2747 0.2879 0.1159
N10_4 N 0.45305(19) 0.55667(11) 0.4092(2)
N11_4 N 0.18918(18) 0.20200(12) 0.4140(2)
C42_4 C 0.1649(2) 0.23031(15) 0.2543(3)
N12_4 N 0.1377(2) 0.25692(12) 0.0945(2)
C43_4 C 0.4838(2) 0.59818(14) 0.4392(3)
C44_4 C 0.3931(3) 0.54805(15) 0.4667(3)
C45_4 C 0.1172(2) 0.20141(14) 0.4437(3)
C46_4 C 0.2287(2) 0.17042(14) 0.4705(3)
H24_4 H 0.1174 0.2170 0.2557
C47_4 C 0.0933(2) 0.22099(15) 0.0634(3)
C48_4 C 0.1180(3) 0.29476(18) 0.0389(4)
H25_4 H 0.5251 0.6118 0.4116
C49_4 C 0.3917(2) 0.58614(14) 0.5299(3)
C50_4 C 0.3401(3) 0.51199(18) 0.4677(4)
H26_4 H 0.0791 0.2193 0.4157
C51_4 C 0.1770(2) 0.15299(15) 0.5341(3)
C52_4 C 0.3027(3) 0.1549(2) 0.4714(4)
H27_4 H 0.0949 0.1913 0.0908
C54_4 C 0.1390(6) 0.3410(2) 0.0420(6)
C55_4 C 0.3377(3) 0.58880(17) 0.5990(3)
C56_4 C 0.2856(4) 0.5159(2) 0.5349(5)
H28_4 H 0.3413 0.4869 0.4257
C57_4 C 0.1978(3) 0.11947(17) 0.6015(3)
C58_4 C 0.3218(3) 0.1208(2) 0.5374(5)
H29_4 H 0.3373 0.1667 0.4298
H30_4 H 0.1755 0.3517 0.0851
H31_4 H 0.3367 0.6135 0.6420
C61_4 C 0.2858(3) 0.5529(2) 0.6002(4)
H32_4 H 0.2480 0.4933 0.5368
C62_4 C 0.2707(3) 0.1040(2) 0.6028(5)
H33_4 H 0.1637 0.1080 0.6441
H34_4 H 0.3701 0.1087 0.5385
H37_4 H 0.2495 0.5533 0.6461
H38_4 H 0.2864 0.0820 0.6478
C19_4 C 0.6083(2) 0.58614(14) 0.9701(3)
C21_4 C 0.8230(2) 0.15299(15) 0.9659(3)
C25_4 C 0.6623(3) 0.58880(17) 0.9010(3)
C26_4 C 0.7144(4) 0.5159(2) 0.9651(5)
C27_4 C 0.8022(3) 0.11947(17) 0.8985(3)
C28_4 C 0.6782(3) 0.1208(2) 0.9626(5)
H12_4 H 0.6633 0.6135 0.8580
C31_4 C 0.7142(3) 0.5529(2) 0.8998(4)
H13_4 H 0.7520 0.4933 0.9632
C32_4 C 0.7293(3) 0.1040(2) 0.8972(5)
H14_4 H 0.8363 0.1080 0.8559
H15_4 H 0.6299 0.1087 0.9615
H18_4 H 0.7505 0.5533 0.8539
H19_4 H 0.7136 0.0820 0.8522
C53_4 C 0.0629(3) 0.27837(17) 0.9748(4)
C59_4 C 0.0291(5) 0.3088(2) 0.9104(6)
C60_4 C 0.1038(9) 0.3709(3) 0.9785(10)
C63_4 C 0.0509(8) 0.3546(3) 0.9122(10)
H36_4 H 0.1157 0.4027 0.9799
H39_4 H 0.0300 0.3755 0.8682
H35_4 H 0.9926 0.2983 0.8672
loop_
_geom_bond_atom_site_label_1
_geom_bond_atom_site_label_2
_geom_bond_site_symmetry_1
_geom_bond_site_symmetry_2
Mn8 N18 1_555 1_555
C59 C53 1_555 1_555
C63 C59 1_555 1_555
H35 C59 1_555 1_555
H36 C60 1_555 1_555
H39 C63 1_555 1_555
N18 C53 1_555 1_555
C60 C63 1_555 1_555
Mn1 O1 1_555 1_555
O1 C1 1_555 1_555
N2 Mn1 1_555 1_555
O3 Mn1 1_555 1_555
C1 C3 1_555 1_555
C34 O3 1_555 1_555
O6 C34 1_555 1_555
C35 C34 1_555 1_555
C36 C3 1_555 1_555
C37 C35 1_555 1_555
C38 C35 1_555 1_555
H21 C36 1_555 1_555
C40 C37 1_555 1_555
H22 C37 1_555 1_555
C41 C38 1_555 1_555
H23 C38 1_555 1_555
N11 C40 1_555 1_555
C42 C40 1_555 1_555
N12 C41 1_555 1_555
C45 N11 1_555 1_555
C46 N11 1_555 1_555
H24 C42 1_555 1_555
C47 N12 1_555 1_555
C48 N12 1_555 1_555
N17 C45 1_555 1_555
H26 C45 1_555 1_555
C51 C46 1_555 1_555
C52 C46 1_555 1_555
H27 C47 1_555 1_555
C54 C48 1_555 1_555
Mn6 N17 1_555 1_555
C57 C51 1_555 1_555
C58 C52 1_555 1_555
H29 C52 1_555 1_555
H30 C54 1_555 1_555
C62 C57 1_555 1_555
H33 C57 1_555 1_555
H34 C58 1_555 1_555
H38 C62 1_555 1_555
C41 C42 1_555 1_555
N17 C51 1_555 1_555
C58 C62 1_555 1_555
H4 C11 1_555 1_555
C39 C11 1_555 1_555
N10 C39 1_555 1_555
C43 N10 1_555 1_555
C44 N10 1_555 1_555
N14 C43 1_555 1_555
C49 C44 1_555 1_555
C50 C44 1_555 1_555
C55 C49 1_555 1_555
C56 C50 1_555 1_555
H31 C55 1_555 1_555
C61 C55 1_555 1_555
H37 C61 1_555 1_555
N14 C49 1_555 1_555
C56 C61 1_555 1_555
C27 C21 1_555 1_555
C32 C27 1_555 1_555
H14 C27 1_555 1_555
H15 C28 1_555 1_555
H19 C32 1_555 1_555
Mn8 N15 1_555 1_555
C21 N15 1_555 1_555
C28 C32 1_555 1_555
C1_2 C3_2 1_555 1_555
C2 O2 1_555 1_555
C3_2 C5 1_555 1_555
C4 C2 1_555 1_555
C5 H1 1_555 1_555
C6 C4 1_555 1_555
C7 C4 1_555 1_555
H2 C6 1_555 1_555
C9 C6 1_555 1_555
H3 C7 1_555 1_555
C10 C7 1_555 1_555
N5 C9 1_555 1_555
C12 C9 1_555 1_555
N6 C10 1_555 1_555
C15 N5 1_555 1_555
C16 N5 1_555 1_555
H5 C12 1_555 1_555
C17 N6 1_555 1_555
C18 N6 1_555 1_555
C22 C15 1_555 1_555
H7 C16 1_555 1_555
H8 C17 1_555 1_555
C23 C18 1_555 1_555
C24 C18 1_555 1_555
H10 C22 1_555 1_555
C29 C23 1_555 1_555
H11 C24 1_555 1_555
C30 C24 1_555 1_555
C33 C29 1_555 1_555
H16 C29 1_555 1_555
H17 C30 1_555 1_555
H20 C33 1_555 1_555
O4 C1_2 1_555 1_555
O5 C2 1_555 1_555
Mn2 O4 1_555 1_555
N7 Mn2 1_555 1_555
N16 C17 1_555 1_555
Mn6 N16 1_555 1_555
C10 C12 1_555 1_555
C23 N16 1_555 1_555
C30 C33 1_555 1_555
O5 Mn2 1_555 1_555
C25 C19 1_555 1_555
H12 C25 1_555 1_555
C31 C25 1_555 1_555
H18 C31 1_555 1_555
C19 N13 1_555 1_555
C26 C31 1_555 1_555
N4 C8 1_555 1_555
C11_2 C8 1_555 1_555
C13 N4 1_555 1_555
C14 N4 1_555 1_555
H4_2 C11_2 1_555 1_555
C20 C14 1_555 1_555
C25_2 C19_2 1_555 1_555
C27_2 C21_2 1_555 1_555
H12_2 C25_2 1_555 1_555
C31_2 C25_2 1_555 1_555
H13_2 C26_2 1_555 1_555
C32_2 C27_2 1_555 1_555
H14_2 C27_2 1_555 1_555
H15_2 C28_2 1_555 1_555
H18_2 C31_2 1_555 1_555
H19_2 C32_2 1_555 1_555
Mn8 N13_2 1_555 1_555
Mn3 N15_2 1_555 1_555
C59_2 C53_2 1_555 1_555
C63_2 C59_2 1_555 1_555
H36_2 C60_2 1_555 1_555
H39_2 C63_2 1_555 1_555
C19_2 N13_2 1_555 1_555
C21_2 N15_2 1_555 1_555
C26_2 C31_2 1_555 1_555
C28_2 C32_2 1_555 1_555
N18_2 C53_2 1_555 1_555
C60_2 C63_2 1_555 1_555
Mn1_2 O1_2 1_555 1_555
O1_2 C1_3 1_555 1_555
N1_2 Mn1_2 1_555 1_555
N2_2 Mn1_2 1_555 1_555
O2_2 Mn1_2 1_555 1_555
O3_2 Mn1_2 1_555 1_555
N3_2 Mn1_2 1_555 1_555
C1_3 C3_3 1_555 1_555
C2_2 O2_2 1_555 1_555
C3_3 C5_2 1_555 1_555
C4_2 C2_2 1_555 1_555
C5_2 H1_2 1_555 1_555
C6_2 C4_2 1_555 1_555
C7_2 C4_2 1_555 1_555
C8_2 C5_2 1_555 1_555
H2_2 C6_2 1_555 1_555
C9_2 C6_2 1_555 1_555
H3_2 C7_2 1_555 1_555
C10_2 C7_2 1_555 1_555
N4_2 C8_2 1_555 1_555
C11_3 C8_2 1_555 1_555
N5_2 C9_2 1_555 1_555
C12_2 C9_2 1_555 1_555
N6_2 C10_2 1_555 1_555
C13_2 N4_2 1_555 1_555
C14_2 N4_2 1_555 1_555
H4_3 C11_3 1_555 1_555
C15_2 N5_2 1_555 1_555
C16_2 N5_2 1_555 1_555
H5_2 C12_2 1_555 1_555
C17_2 N6_2 1_555 1_555
C18_2 N6_2 1_555 1_555
H6_2 C13_2 1_555 1_555
C20_2 C14_2 1_555 1_555
C22_2 C15_2 1_555 1_555
H7_2 C16_2 1_555 1_555
H8_2 C17_2 1_555 1_555
C23_2 C18_2 1_555 1_555
C24_2 C18_2 1_555 1_555
H9_2 C20_2 1_555 1_555
H10_2 C22_2 1_555 1_555
C29_2 C23_2 1_555 1_555
H11_2 C24_2 1_555 1_555
C30_2 C24_2 1_555 1_555
C33_2 C29_2 1_555 1_555
H17_2 C30_2 1_555 1_555
H20_2 C33_2 1_555 1_555
C34_2 O3_2 1_555 1_555
O4_2 C1_3 1_555 1_555
O5_2 C2_2 1_555 1_555
O6_2 C34_2 1_555 1_555
C35_2 C34_2 1_555 1_555
C36_2 C3_3 1_555 1_555
Mn2_2 O4_2 1_555 1_555
C37_2 C35_2 1_555 1_555
C38_2 C35_2 1_555 1_555
H21_2 C36_2 1_555 1_555
C39_2 C11_3 1_555 1_555
N7_2 Mn2_2 1_555 1_555
N8_2 Mn2_2 1_555 1_555
N9_2 Mn2_2 1_555 1_555
C40_2 C37_2 1_555 1_555
H22_2 C37_2 1_555 1_555
C41_2 C38_2 1_555 1_555
H23_2 C38_2 1_555 1_555
N10_2 C39_2 1_555 1_555
N11_2 C40_2 1_555 1_555
C42_2 C40_2 1_555 1_555
N12_2 C41_2 1_555 1_555
C43_2 N10_2 1_555 1_555
C44_2 N10_2 1_555 1_555
C45_2 N11_2 1_555 1_555
C46_2 N11_2 1_555 1_555
H24_2 C42_2 1_555 1_555
C47_2 N12_2 1_555 1_555
C48_2 N12_2 1_555 1_555
N14_2 C43_2 1_555 1_555
H25_2 C43_2 1_555 1_555
C49_2 C44_2 1_555 1_555
C50_2 C44_2 1_555 1_555
N16_2 C17_2 1_555 1_555
N17_2 C45_2 1_555 1_555
H26_2 C45_2 1_555 1_555
C51_2 C46_2 1_555 1_555
C52_2 C46_2 1_555 1_555
H27_2 C47_2 1_555 1_555
C54_2 C48_2 1_555 1_555
Mn6 N14_2 1_555 1_555
C55_2 C49_2 1_555 1_555
C56_2 C50_2 1_555 1_555
H28_2 C50_2 1_555 1_555
Mn4 N17_2 1_555 1_555
C57_2 C51_2 1_555 1_555
C58_2 C52_2 1_555 1_555
H29_2 C52_2 1_555 1_555
H30_2 C54_2 1_555 1_555
H31_2 C55_2 1_555 1_555
C61_2 C55_2 1_555 1_555
H32_2 C56_2 1_555 1_555
C62_2 C57_2 1_555 1_555
H33_2 C57_2 1_555 1_555
H34_2 C58_2 1_555 1_555
H37_2 C61_2 1_555 1_555
H38_2 C62_2 1_555 1_555
C10_2 C12_2 1_555 1_555
C23_2 N16_2 1_555 1_555
C30_2 C33_2 1_555 1_555
O5_2 Mn2_2 1_555 1_555
O6_2 Mn2_2 1_555 1_555
C36_2 C39_2 1_555 1_555
C41_2 C42_2 1_555 1_555
N14_2 C49_2 1_555 1_555
N17_2 C51_2 1_555 1_555
C56_2 C61_2 1_555 1_555
C58_2 C62_2 1_555 1_555
N4_3 C8_3 1_555 1_555
C11_4 C8_3 1_555 1_555
C13_3 N4_3 1_555 1_555
C14_3 N4_3 1_555 1_555
H4_4 C11_4 1_555 1_555
C20_3 C14_3 1_555 1_555
C25_3 C19_3 1_555 1_555
H12_3 C25_3 1_555 1_555
C31_3 C25_3 1_555 1_555
H18_3 C31_3 1_555 1_555
C19_3 N9 1_555 1_555
C26_3 C31_3 1_555 1_555
C1_4 C3_4 1_555 1_555
C2_3 O2_3 1_555 1_555
C3_4 C5_3 1_555 1_555
C4_3 C2_3 1_555 1_555
C5_3 H1_3 1_555 1_555
C6_3 C4_3 1_555 1_555
C7_3 C4_3 1_555 1_555
H2_3 C6_3 1_555 1_555
C9_3 C6_3 1_555 1_555
H3_3 C7_3 1_555 1_555
C10_3 C7_3 1_555 1_555
N5_3 C9_3 1_555 1_555
C12_3 C9_3 1_555 1_555
N6_3 C10_3 1_555 1_555
C15_3 N5_3 1_555 1_555
C16_3 N5_3 1_555 1_555
H5_3 C12_3 1_555 1_555
C17_3 N6_3 1_555 1_555
C18_3 N6_3 1_555 1_555
C22_3 C15_3 1_555 1_555
H7_3 C16_3 1_555 1_555
H8_3 C17_3 1_555 1_555
C23_3 C18_3 1_555 1_555
C24_3 C18_3 1_555 1_555
H10_3 C22_3 1_555 1_555
C29_3 C23_3 1_555 1_555
H11_3 C24_3 1_555 1_555
C30_3 C24_3 1_555 1_555
C33_3 C29_3 1_555 1_555
H16_3 C29_3 1_555 1_555
H17_3 C30_3 1_555 1_555
H20_3 C33_3 1_555 1_555
O4_3 C1_4 1_555 1_555
O5_3 C2_3 1_555 1_555
Mn3 O4_3 1_555 1_555
N1_2 C17_3 1_555 1_555
C10_3 C12_3 1_555 1_555
C23_3 N1_2 1_555 1_555
C30_3 C33_3 1_555 1_555
O5_3 Mn3 1_555 1_555
C27_3 C21_3 1_555 1_555
C32_3 C27_3 1_555 1_555
H14_3 C27_3 1_555 1_555
H15_3 C28_3 1_555 1_555
H19_3 C32_3 1_555 1_555
C21_3 N7_2 1_555 1_555
C28_3 C32_3 1_555 1_555
H4_5 C11_5 1_555 1_555
C39_3 C11_5 1_555 1_555
N10_3 C39_3 1_555 1_555
C43_3 N10_3 1_555 1_555
C44_3 N10_3 1_555 1_555
N3 C43_3 1_555 1_555
C49_3 C44_3 1_555 1_555
C50_3 C44_3 1_555 1_555
C55_3 C49_3 1_555 1_555
C56_3 C50_3 1_555 1_555
H31_3 C55_3 1_555 1_555
C61_3 C55_3 1_555 1_555
H37_3 C61_3 1_555 1_555
N3 C49_3 1_555 1_555
C56_3 C61_3 1_555 1_555
Mn4 O1_3 1_555 1_555
O1_3 C1_5 1_555 1_555
O3_3 Mn4 1_555 1_555
C1_5 C3_5 1_555 1_555
C34_3 O3_3 1_555 1_555
O6_3 C34_3 1_555 1_555
C35_3 C34_3 1_555 1_555
C36_3 C3_5 1_555 1_555
C37_3 C35_3 1_555 1_555
C38_3 C35_3 1_555 1_555
H21_3 C36_3 1_555 1_555
C40_3 C37_3 1_555 1_555
H22_3 C37_3 1_555 1_555
C41_3 C38_3 1_555 1_555
H23_3 C38_3 1_555 1_555
N11_3 C40_3 1_555 1_555
C42_3 C40_3 1_555 1_555
N12_3 C41_3 1_555 1_555
C45_3 N11_3 1_555 1_555
C46_3 N11_3 1_555 1_555
H24_3 C42_3 1_555 1_555
C47_3 N12_3 1_555 1_555
C48_3 N12_3 1_555 1_555
N2_2 C45_3 1_555 1_555
H26_3 C45_3 1_555 1_555
C51_3 C46_3 1_555 1_555
C52_3 C46_3 1_555 1_555
H27_3 C47_3 1_555 1_555
C54_3 C48_3 1_555 1_555
C57_3 C51_3 1_555 1_555
C58_3 C52_3 1_555 1_555
H29_3 C52_3 1_555 1_555
H30_3 C54_3 1_555 1_555
C62_3 C57_3 1_555 1_555
H33_3 C57_3 1_555 1_555
H34_3 C58_3 1_555 1_555
H38_3 C62_3 1_555 1_555
C41_3 C42_3 1_555 1_555
N2_2 C51_3 1_555 1_555
C58_3 C62_3 1_555 1_555
C59_3 C53_3 1_555 1_555
C63_3 C59_3 1_555 1_555
H35_3 C59_3 1_555 1_555
H36_3 C60_3 1_555 1_555
H39_3 C63_3 1_555 1_555
N8_2 C53_3 1_555 1_555
C60_3 C63_3 1_555 1_555
Mn6 O1_4 1_555 1_555
O1_4 C1_6 1_555 1_555
O2_4 Mn6 1_555 1_555
O3_4 Mn6 1_555 1_555
C1_6 C3_6 1_555 1_555
C2_4 O2_4 1_555 1_555
C3_6 C5_4 1_555 1_555
C4_4 C2_4 1_555 1_555
C5_4 H1_4 1_555 1_555
C6_4 C4_4 1_555 1_555
C7_4 C4_4 1_555 1_555
C8_4 C5_4 1_555 1_555
H2_4 C6_4 1_555 1_555
C9_4 C6_4 1_555 1_555
H3_4 C7_4 1_555 1_555
C10_4 C7_4 1_555 1_555
N4_4 C8_4 1_555 1_555
C11_6 C8_4 1_555 1_555
N5_4 C9_4 1_555 1_555
C12_4 C9_4 1_555 1_555
N6_4 C10_4 1_555 1_555
C13_4 N4_4 1_555 1_555
C14_4 N4_4 1_555 1_555
H4_6 C11_6 1_555 1_555
C15_4 N5_4 1_555 1_555
C16_4 N5_4 1_555 1_555
H5_4 C12_4 1_555 1_555
C17_4 N6_4 1_555 1_555
C18_4 N6_4 1_555 1_555
H6_4 C13_4 1_555 1_555
C20_4 C14_4 1_555 1_555
C22_4 C15_4 1_555 1_555
H7_4 C16_4 1_555 1_555
H8_4 C17_4 1_555 1_555
C23_4 C18_4 1_555 1_555
C24_4 C18_4 1_555 1_555
H9_4 C20_4 1_555 1_555
H10_4 C22_4 1_555 1_555
C29_4 C23_4 1_555 1_555
H11_4 C24_4 1_555 1_555
C30_4 C24_4 1_555 1_555
C33_4 C29_4 1_555 1_555
H17_4 C30_4 1_555 1_555
H20_4 C33_4 1_555 1_555
C34_4 O3_4 1_555 1_555
O4_4 C1_6 1_555 1_555
O5_4 C2_4 1_555 1_555
O6_4 C34_4 1_555 1_555
C35_4 C34_4 1_555 1_555
C36_4 C3_6 1_555 1_555
Mn8 O4_4 1_555 1_555
C37_4 C35_4 1_555 1_555
C38_4 C35_4 1_555 1_555
H21_4 C36_4 1_555 1_555
C39_4 C11_6 1_555 1_555
C40_4 C37_4 1_555 1_555
H22_4 C37_4 1_555 1_555
C41_4 C38_4 1_555 1_555
H23_4 C38_4 1_555 1_555
N10_4 C39_4 1_555 1_555
N11_4 C40_4 1_555 1_555
C42_4 C40_4 1_555 1_555
N12_4 C41_4 1_555 1_555
C43_4 N10_4 1_555 1_555
C44_4 N10_4 1_555 1_555
C45_4 N11_4 1_555 1_555
C46_4 N11_4 1_555 1_555
H24_4 C42_4 1_555 1_555
C47_4 N12_4 1_555 1_555
C48_4 N12_4 1_555 1_555
N3_2 C43_4 1_555 1_555
H25_4 C43_4 1_555 1_555
C49_4 C44_4 1_555 1_555
C50_4 C44_4 1_555 1_555
N1 C17_4 1_555 1_555
N2 C45_4 1_555 1_555
H26_4 C45_4 1_555 1_555
C51_4 C46_4 1_555 1_555
C52_4 C46_4 1_555 1_555
H27_4 C47_4 1_555 1_555
C54_4 C48_4 1_555 1_555
C55_4 C49_4 1_555 1_555
C56_4 C50_4 1_555 1_555
H28_4 C50_4 1_555 1_555
C57_4 C51_4 1_555 1_555
C58_4 C52_4 1_555 1_555
H29_4 C52_4 1_555 1_555
H30_4 C54_4 1_555 1_555
H31_4 C55_4 1_555 1_555
C61_4 C55_4 1_555 1_555
H32_4 C56_4 1_555 1_555
C62_4 C57_4 1_555 1_555
H33_4 C57_4 1_555 1_555
H34_4 C58_4 1_555 1_555
H37_4 C61_4 1_555 1_555
H38_4 C62_4 1_555 1_555
C10_4 C12_4 1_555 1_555
C23_4 N1 1_555 1_555
C30_4 C33_4 1_555 1_555
O5_4 Mn8 1_555 1_555
O6_4 Mn8 1_555 1_555
C36_4 C39_4 1_555 1_555
C41_4 C42_4 1_555 1_555
N3_2 C49_4 1_555 1_555
N2 C51_4 1_555 1_555
C56_4 C61_4 1_555 1_555
C58_4 C62_4 1_555 1_555
C25_4 C19_4 1_555 1_555
C27_4 C21_4 1_555 1_555
H12_4 C25_4 1_555 1_555
C31_4 C25_4 1_555 1_555
H13_4 C26_4 1_555 1_555
C32_4 C27_4 1_555 1_555
H14_4 C27_4 1_555 1_555
H15_4 C28_4 1_555 1_555
H18_4 C31_4 1_555 1_555
H19_4 C32_4 1_555 1_555
C59_4 C53_4 1_555 1_555
C63_4 C59_4 1_555 1_555
H36_4 C60_4 1_555 1_555
H39_4 C63_4 1_555 1_555
C19_4 N9_2 1_555 1_555
C21_4 N7 1_555 1_555
C26_4 C31_4 1_555 1_555
C28_4 C32_4 1_555 1_555
N8 C53_4 1_555 1_555
C60_4 C63_4 1_555 1_555

#END
