
###############################################################################
#
# This file contains modified crystal structure data generated from the
# MOF subset of the Cambridge Structural Database (CSD) v543 
# hosted by the Cambridge Crystallographic Data Centre (CCDC).
#
# This work is licensed under the Creative Commons
# Attribution-NonCommercial-ShareAlike 4.0 International License.
# To view a copy of this license, visit
# http://creativecommons.org/licenses/by-nc-sa/4.0/
# or send a letter to
# Creative Commons, PO Box 1866, Mountain View, CA 94042, USA.
#
# CIF created using the CSD Python API on 29 September 2022
# The structure has been converted into the P1 space group
# The structure has a 3D framework
# The original CSD entry YOYRAH is in the trigonal crystal system
# The framework has been calculated to contain at least 10.0% void space
# The void calculation uses a probe of radius 1.32A, grid spacing 0.4
# The framework is charged, counterions have been retained in the structure
#
###############################################################################

data_YOYRAH
_chemical_formula_moiety         '(C126 H78 Cl2 Mn4 N24 O12)n'
_symmetry_cell_setting           triclinic
_symmetry_space_group_name_H-M   'P 1'
_symmetry_Int_Tables_number      1
_space_group_name_Hall           'P 1'
loop_
_symmetry_equiv_pos_site_id
_symmetry_equiv_pos_as_xyz
1 x,y,z
_cell_length_a                   17.246(5)
_cell_length_b                   17.246(5)
_cell_length_c                   14.135(5)
_cell_angle_alpha                90
_cell_angle_beta                 90
_cell_angle_gamma                120
_cell_volume                     3640.85
loop_
_atom_site_label
_atom_site_type_symbol
_atom_site_fract_x
_atom_site_fract_y
_atom_site_fract_z
Cl1 Cl 0.3333 0.6667 0.2500
Cl1_2 Cl 0.6667 0.3333 0.7500
N9 N 0.1092(6) 0.5056(4) 0.0895(3)
C46 C 0.0579(7) 0.5045(5) 0.1715(4)
C47 C 0.1072(4) 0.5536(3) 0.2500
H28 H 0.1694 0.5847 0.2500
C48 C 0.1885(6) 0.5763(5) 0.0619(3)
H29 H 0.2145 0.6321 0.0910
C49 C 0.0923(7) 0.4347(5) 0.0289(4)
C50 C 0.0239(9) 0.3485(6) 0.0245(6)
N11 N 0.1092(6) 0.6036(4) 0.4105(3)
N12 N 0.2253(6) 0.6673(4) 0.5105(3)
C56 C 0.0579(7) 0.5534(5) 0.3285(4)
C57 C 0.1885(6) 0.6122(4) 0.4381(3)
H35 H 0.2145 0.5824 0.4090
C58 C 0.0923(7) 0.6576(5) 0.4711(4)
C59 C 0.0239(9) 0.6754(7) 0.4755(6)
C60 C 0.0283(12) 0.7335(10) 0.5462(8)
C61 C 0.1014(11) 0.7714(9) 0.6089(7)
H38 H 0.1036 0.8106 0.6553
C62 C 0.1679(8) 0.7530(6) 0.6040(5)
H39 H 0.2150 0.7777 0.6469
C63 C 0.1645(7) 0.6954(5) 0.5322(4)
Mn8 Mn 0.3333 0.6667 0.60400(9)
N10 N 0.2253(6) 0.5580(4) 0.9895(3)
C51 C 0.0283(12) 0.2948(7) 0.9538(8)
C52 C 0.1014(11) 0.3300(7) 0.8911(7)
H32 H 0.1036 0.2930 0.8447
C53 C 0.1679(8) 0.4149(6) 0.8960(5)
H33 H 0.2150 0.4373 0.8531
C54 C 0.1645(7) 0.4691(5) 0.9678(4)
Mn5 Mn 0.3333 0.6667 0.89600(9)
Mn1 Mn 0.6667 0.3333 0.10400(9)
O1 O 0.6427(3) 0.4247(3) 0.1827(3)
N1 N 0.4944(4) 0.6036(4) 0.0895(3)
C1 C 0.5903(3) 0.4097(3) 0.2500
C2 C 0.5403(3) 0.4597(3) 0.2500
C3 C 0.5407(4) 0.5080(4) 0.1698(3)
H1 H 0.5719 0.5088 0.1157
C4 C 0.4955(5) 0.5534(5) 0.1715(4)
C5 C 0.4464(3) 0.5536(3) 0.2500
H2 H 0.4153 0.5847 0.2500
C6 C 0.4237(5) 0.6122(4) 0.0619(3)
H3 H 0.3679 0.5824 0.0910
C7 C 0.5653(5) 0.6576(5) 0.0289(4)
C8 C 0.6515(6) 0.6754(7) 0.0245(6)
H4 H 0.6735 0.6498 0.0668
O2 O 0.5753(3) 0.3573(3) 0.3173(3)
N3 N 0.3964(4) 0.5056(4) 0.4105(3)
N4 N 0.3327(4) 0.5580(4) 0.5105(3)
C13 C 0.4920(4) 0.4593(4) 0.3302(3)
H8 H 0.4912 0.4281 0.3843
C14 C 0.4466(5) 0.5045(5) 0.3285(4)
C15 C 0.3878(4) 0.5763(5) 0.4381(3)
H9 H 0.4176 0.6321 0.4090
C16 C 0.3424(5) 0.4347(5) 0.4711(4)
C17 C 0.3246(7) 0.3485(6) 0.4755(6)
H10 H 0.3502 0.3265 0.4332
C18 C 0.2665(10) 0.2948(7) 0.5462(8)
H11 H 0.2527 0.2355 0.5521
C19 C 0.2286(9) 0.3300(7) 0.6089(7)
H12 H 0.1894 0.2930 0.6553
C20 C 0.2470(6) 0.4149(6) 0.6040(5)
H13 H 0.2223 0.4373 0.6469
C21 C 0.3046(5) 0.4691(5) 0.5322(4)
O3 O 0.5753(3) 0.2180(4) 0.1827(3)
C22 C 0.5903(3) 0.1806(4) 0.2500
C23 C 0.5403(3) 0.0806(4) 0.2500
C24 C 0.4920(4) 0.0327(6) 0.1698(3)
H14 H 0.4912 0.0631 0.1157
H17 H 0.3502 0.0237 0.0668
O4 O 0.6427(3) 0.2180(4) 0.3173(3)
C34 C 0.5407(4) 0.0327(6) 0.3302(3)
H21 H 0.5719 0.0631 0.3843
H23 H 0.6735 0.0237 0.4332
H24 H 0.7645 0.0172 0.5521
O5 O 0.7820(4) 0.3573(3) 0.1827(3)
C43 C 0.8194(4) 0.4097(3) 0.2500
C44 C 0.9194(4) 0.4597(3) 0.2500
C45 C 0.9673(6) 0.4593(4) 0.1698(3)
H27 H 0.9369 0.4281 0.1157
H30 H 0.9763 0.3265 0.0668
O6 O 0.7820(4) 0.4247(3) 0.3173(3)
C55 C 0.9673(6) 0.5080(4) 0.3302(3)
H34 H 0.9369 0.5088 0.3843
H36 H 0.9763 0.6498 0.4332
H37 H 0.9828 0.7473 0.5521
Mn2 Mn 0.6667 0.3333 0.39600(9)
N13 N 0.5580(4) 0.3327(4) 0.0105(3)
N14 N 0.6673(4) 0.2253(6) 0.0105(3)
N15 N 0.7747(6) 0.4420(4) 0.0105(3)
N16 N 0.6673(4) 0.4420(4) 0.4895(3)
N17 N 0.5580(4) 0.2253(6) 0.4895(3)
N18 N 0.7747(6) 0.3327(4) 0.4895(3)
N2 N 0.4420(4) 0.6673(4) 0.9895(3)
C9 C 0.7052(7) 0.7335(10) 0.9538(8)
H5 H 0.7645 0.7473 0.9479
C10 C 0.6700(7) 0.7714(9) 0.8911(7)
H6 H 0.7070 0.8106 0.8447
C11 C 0.5851(6) 0.7530(6) 0.8960(5)
H7 H 0.5627 0.7777 0.8531
C12 C 0.5309(5) 0.6954(5) 0.9678(4)
H18 H 0.2527 0.0172 0.9479
H31 H 0.9828 0.2355 0.9479
N5 N 0.3964(4) 0.8908(6) 0.0895(3)
C25 C 0.4466(5) 0.9421(7) 0.1715(4)
C26 C 0.4464(3) 0.8928(4) 0.2500
H15 H 0.4153 0.8306 0.2500
C27 C 0.3878(4) 0.8115(6) 0.0619(3)
H16 H 0.4176 0.7855 0.0910
C28 C 0.3424(5) 0.9077(7) 0.0289(4)
C29 C 0.3246(7) 0.9761(9) 0.0245(6)
N7 N 0.4944(4) 0.8908(6) 0.4105(3)
N8 N 0.4420(4) 0.7747(6) 0.5105(3)
C35 C 0.4955(5) 0.9421(7) 0.3285(4)
C36 C 0.4237(5) 0.8115(6) 0.4381(3)
H22 H 0.3679 0.7855 0.4090
C37 C 0.5653(5) 0.9077(7) 0.4711(4)
C38 C 0.6515(6) 0.9761(9) 0.4755(6)
C39 C 0.7052(7) 0.9717(12) 0.5462(8)
C40 C 0.6700(7) 0.8986(11) 0.6089(7)
H25 H 0.7070 0.8964 0.6553
C41 C 0.5851(6) 0.8321(8) 0.6040(5)
H26 H 0.5627 0.7850 0.6469
C42 C 0.5309(5) 0.8355(7) 0.5322(4)
N6 N 0.3327(4) 0.7747(6) 0.9895(3)
C30 C 0.2665(10) 0.9717(12) 0.9538(8)
C31 C 0.2286(9) 0.8986(11) 0.8911(7)
H19 H 0.1894 0.8964 0.8447
C32 C 0.2470(6) 0.8321(8) 0.8960(5)
H20 H 0.2223 0.7850 0.8531
C33 C 0.3046(5) 0.8355(7) 0.9678(4)
C30_2 C 0.7335(10) 0.0283(12) 0.0462(8)
C31_2 C 0.7714(9) 0.1014(11) 0.1089(7)
H19_2 H 0.8106 0.1036 0.1553
C32_2 C 0.7530(6) 0.1679(8) 0.1040(5)
H20_2 H 0.7777 0.2150 0.1469
C33_2 C 0.6954(5) 0.1645(7) 0.0322(4)
N5_2 N 0.6036(4) 0.1092(6) 0.9105(3)
C25_2 C 0.5534(5) 0.0579(7) 0.8285(4)
C26_2 C 0.5536(3) 0.1072(4) 0.7500
H15_2 H 0.5847 0.1694 0.7500
C27_2 C 0.6122(4) 0.1885(6) 0.9381(3)
H16_2 H 0.5824 0.2145 0.9090
C28_2 C 0.6576(5) 0.0923(7) 0.9711(4)
C29_2 C 0.6754(7) 0.0239(9) 0.9755(6)
N7_2 N 0.5056(4) 0.1092(6) 0.5895(3)
C35_2 C 0.5045(5) 0.0579(7) 0.6715(4)
C36_2 C 0.5763(5) 0.1885(6) 0.5619(3)
H22_2 H 0.6321 0.2145 0.5910
C37_2 C 0.4347(5) 0.0923(7) 0.5289(4)
C38_2 C 0.3485(6) 0.0239(9) 0.5245(6)
C39_2 C 0.2948(7) 0.0283(12) 0.4538(8)
C40_2 C 0.3300(7) 0.1014(11) 0.3911(7)
H25_2 H 0.2930 0.1036 0.3447
C41_2 C 0.4149(6) 0.1679(8) 0.3960(5)
H26_2 H 0.4373 0.2150 0.3531
C42_2 C 0.4691(5) 0.1645(7) 0.4678(4)
C9_2 C 0.2948(7) 0.2665(10) 0.0462(8)
H5_2 H 0.2355 0.2527 0.0521
C10_2 C 0.3300(7) 0.2286(9) 0.1089(7)
H6_2 H 0.2930 0.1894 0.1553
C11_2 C 0.4149(6) 0.2470(6) 0.1040(5)
H7_2 H 0.4373 0.2223 0.1469
C12_2 C 0.4691(5) 0.3046(5) 0.0322(4)
H18_2 H 0.7473 0.9828 0.0521
H31_2 H 0.0172 0.7645 0.0521
O1_2 O 0.3573(3) 0.5753(3) 0.8173(3)
N1_2 N 0.5056(4) 0.3964(4) 0.9105(3)
C1_2 C 0.4097(3) 0.5903(3) 0.7500
C2_2 C 0.4597(3) 0.5403(3) 0.7500
C3_2 C 0.4593(4) 0.4920(4) 0.8302(3)
H1_2 H 0.4281 0.4912 0.8843
C4_2 C 0.5045(5) 0.4466(5) 0.8285(4)
C5_2 C 0.5536(3) 0.4464(3) 0.7500
H2_2 H 0.5847 0.4153 0.7500
C6_2 C 0.5763(5) 0.3878(4) 0.9381(3)
H3_2 H 0.6321 0.4176 0.9090
C7_2 C 0.4347(5) 0.3424(5) 0.9711(4)
C8_2 C 0.3485(6) 0.3246(7) 0.9755(6)
H4_2 H 0.3265 0.3502 0.9332
O2_2 O 0.4247(3) 0.6427(3) 0.6827(3)
N3_2 N 0.6036(4) 0.4944(4) 0.5895(3)
C13_2 C 0.5080(4) 0.5407(4) 0.6698(3)
H8_2 H 0.5088 0.5719 0.6157
C14_2 C 0.5534(5) 0.4955(5) 0.6715(4)
C15_2 C 0.6122(4) 0.4237(5) 0.5619(3)
H9_2 H 0.5824 0.3679 0.5910
C16_2 C 0.6576(5) 0.5653(5) 0.5289(4)
C17_2 C 0.6754(7) 0.6515(6) 0.5245(6)
H10_2 H 0.6498 0.6735 0.5668
C18_2 C 0.7335(10) 0.7052(7) 0.4538(8)
H11_2 H 0.7473 0.7645 0.4479
C19_2 C 0.7714(9) 0.6700(7) 0.3911(7)
H12_2 H 0.8106 0.7070 0.3447
C20_2 C 0.7530(6) 0.5851(6) 0.3960(5)
H13_2 H 0.7777 0.5627 0.3531
C21_2 C 0.6954(5) 0.5309(5) 0.4678(4)
O3_2 O 0.4247(3) 0.7820(4) 0.8173(3)
C22_2 C 0.4097(3) 0.8194(4) 0.7500
C23_2 C 0.4597(3) 0.9194(4) 0.7500
C24_2 C 0.5080(4) 0.9673(6) 0.8302(3)
H14_2 H 0.5088 0.9369 0.8843
H17_2 H 0.6498 0.9763 0.9332
O4_2 O 0.3573(3) 0.7820(4) 0.6827(3)
C34_2 C 0.4593(4) 0.9673(6) 0.6698(3)
H21_2 H 0.4281 0.9369 0.6157
H23_2 H 0.3265 0.9763 0.5668
H24_2 H 0.2355 0.9828 0.4479
O5_2 O 0.2180(4) 0.6427(3) 0.8173(3)
C43_2 C 0.1806(4) 0.5903(3) 0.7500
C44_2 C 0.0806(4) 0.5403(3) 0.7500
C45_2 C 0.0327(6) 0.5407(4) 0.8302(3)
H27_2 H 0.0631 0.5719 0.8843
H30_2 H 0.0237 0.6735 0.9332
O6_2 O 0.2180(4) 0.5753(3) 0.6827(3)
C55_2 C 0.0327(6) 0.4920(4) 0.6698(3)
H34_2 H 0.0631 0.4912 0.6157
H36_2 H 0.0237 0.3502 0.5668
H37_2 H 0.0172 0.2527 0.4479
C51_2 C 0.9717(12) 0.7052(7) 0.0462(8)
C52_2 C 0.8986(11) 0.6700(7) 0.1089(7)
H32_2 H 0.8964 0.7070 0.1553
C53_2 C 0.8321(8) 0.5851(6) 0.1040(5)
H33_2 H 0.7850 0.5627 0.1469
C54_2 C 0.8355(7) 0.5309(5) 0.0322(4)
N9_2 N 0.8908(6) 0.4944(4) 0.9105(3)
C46_2 C 0.9421(7) 0.4955(5) 0.8285(4)
C47_2 C 0.8928(4) 0.4464(3) 0.7500
H28_2 H 0.8306 0.4153 0.7500
C48_2 C 0.8115(6) 0.4237(5) 0.9381(3)
H29_2 H 0.7855 0.3679 0.9090
C49_2 C 0.9077(7) 0.5653(5) 0.9711(4)
C50_2 C 0.9761(9) 0.6515(6) 0.9755(6)
N11_2 N 0.8908(6) 0.3964(4) 0.5895(3)
C56_2 C 0.9421(7) 0.4466(5) 0.6715(4)
C57_2 C 0.8115(6) 0.3878(4) 0.5619(3)
H35_2 H 0.7855 0.4176 0.5910
C58_2 C 0.9077(7) 0.3424(5) 0.5289(4)
C59_2 C 0.9761(9) 0.3246(7) 0.5245(6)
C60_2 C 0.9717(12) 0.2665(10) 0.4538(8)
C61_2 C 0.8986(11) 0.2286(9) 0.3911(7)
H38_2 H 0.8964 0.1894 0.3447
C62_2 C 0.8321(8) 0.2470(6) 0.3960(5)
H39_2 H 0.7850 0.2223 0.3531
C63_2 C 0.8355(7) 0.3046(5) 0.4678(4)
loop_
_geom_bond_atom_site_label_1
_geom_bond_atom_site_label_2
_geom_bond_site_symmetry_1
_geom_bond_site_symmetry_2
N9 C46 1_555 1_555
C47 C46 1_555 1_555
H28 C47 1_555 1_555
C48 N9 1_555 1_555
H29 C48 1_555 1_555
C49 N9 1_555 1_555
C50 C49 1_555 1_555
N11 C56 1_555 1_555
N12 C57 1_555 1_555
C56 C47 1_555 1_555
C57 N11 1_555 1_555
H35 C57 1_555 1_555
C58 N11 1_555 1_555
C59 C58 1_555 1_555
C60 C59 1_555 1_555
C61 C60 1_555 1_555
H38 C61 1_555 1_555
C62 C61 1_555 1_555
H39 C62 1_555 1_555
C63 N12 1_555 1_555
Mn8 N12 1_555 1_555
C58 C63 1_555 1_555
C62 C63 1_555 1_555
C52 C51 1_555 1_555
H32 C52 1_555 1_555
C53 C52 1_555 1_555
H33 C53 1_555 1_555
C54 N10 1_555 1_555
Mn5 N10 1_555 1_555
C53 C54 1_555 1_555
Mn1 O1 1_555 1_555
O1 C1 1_555 1_555
N1 C4 1_555 1_555
C1 C2 1_555 1_555
C2 C3 1_555 1_555
C3 H1 1_555 1_555
C4 C3 1_555 1_555
C5 C4 1_555 1_555
H2 C5 1_555 1_555
C6 N1 1_555 1_555
H3 C6 1_555 1_555
C7 N1 1_555 1_555
C8 C7 1_555 1_555
H4 C8 1_555 1_555
O2 C1 1_555 1_555
N3 C14 1_555 1_555
N4 C15 1_555 1_555
C13 C2 1_555 1_555
H8 C13 1_555 1_555
C14 C5 1_555 1_555
C15 N3 1_555 1_555
H9 C15 1_555 1_555
C16 N3 1_555 1_555
C17 C16 1_555 1_555
H10 C17 1_555 1_555
C18 C17 1_555 1_555
H11 C18 1_555 1_555
C19 C18 1_555 1_555
H12 C19 1_555 1_555
C20 C19 1_555 1_555
H13 C20 1_555 1_555
C21 N4 1_555 1_555
O3 Mn1 1_555 1_555
C22 O3 1_555 1_555
C23 C22 1_555 1_555
C24 C23 1_555 1_555
H14 C24 1_555 1_555
O4 C22 1_555 1_555
C34 C23 1_555 1_555
H21 C34 1_555 1_555
O5 Mn1 1_555 1_555
C43 O5 1_555 1_555
C44 C43 1_555 1_555
C45 C44 1_555 1_555
H27 C45 1_555 1_555
O6 C43 1_555 1_555
C55 C44 1_555 1_555
H34 C55 1_555 1_555
Mn2 O2 1_555 1_555
Mn8 N4 1_555 1_555
N13 Mn1 1_555 1_555
N14 Mn1 1_555 1_555
N15 Mn1 1_555 1_555
N16 Mn2 1_555 1_555
N17 Mn2 1_555 1_555
N18 Mn2 1_555 1_555
C13 C14 1_555 1_555
C16 C21 1_555 1_555
C20 C21 1_555 1_555
O4 Mn2 1_555 1_555
O6 Mn2 1_555 1_555
H5 C9 1_555 1_555
C10 C9 1_555 1_555
H6 C10 1_555 1_555
C11 C10 1_555 1_555
H7 C11 1_555 1_555
C12 N2 1_555 1_555
Mn5 N2 1_555 1_555
C11 C12 1_555 1_555
N5 C25 1_555 1_555
C26 C25 1_555 1_555
H15 C26 1_555 1_555
C27 N5 1_555 1_555
H16 C27 1_555 1_555
C28 N5 1_555 1_555
C29 C28 1_555 1_555
N7 C35 1_555 1_555
N8 C36 1_555 1_555
C35 C26 1_555 1_555
C36 N7 1_555 1_555
H22 C36 1_555 1_555
C37 N7 1_555 1_555
C38 C37 1_555 1_555
C39 C38 1_555 1_555
C40 C39 1_555 1_555
H25 C40 1_555 1_555
C41 C40 1_555 1_555
H26 C41 1_555 1_555
C42 N8 1_555 1_555
Mn8 N8 1_555 1_555
C37 C42 1_555 1_555
C41 C42 1_555 1_555
C31 C30 1_555 1_555
H19 C31 1_555 1_555
C32 C31 1_555 1_555
H20 C32 1_555 1_555
C33 N6 1_555 1_555
Mn5 N6 1_555 1_555
C32 C33 1_555 1_555
C31_2 C30_2 1_555 1_555
H19_2 C31_2 1_555 1_555
C32_2 C31_2 1_555 1_555
H20_2 C32_2 1_555 1_555
C33_2 N14 1_555 1_555
C32_2 C33_2 1_555 1_555
N5_2 C25_2 1_555 1_555
C26_2 C25_2 1_555 1_555
H15_2 C26_2 1_555 1_555
C27_2 N5_2 1_555 1_555
H16_2 C27_2 1_555 1_555
C28_2 N5_2 1_555 1_555
C29_2 C28_2 1_555 1_555
N7_2 C35_2 1_555 1_555
N17 C36_2 1_555 1_555
C35_2 C26_2 1_555 1_555
C36_2 N7_2 1_555 1_555
H22_2 C36_2 1_555 1_555
C37_2 N7_2 1_555 1_555
C38_2 C37_2 1_555 1_555
C39_2 C38_2 1_555 1_555
C40_2 C39_2 1_555 1_555
H25_2 C40_2 1_555 1_555
C41_2 C40_2 1_555 1_555
H26_2 C41_2 1_555 1_555
C42_2 N17 1_555 1_555
C37_2 C42_2 1_555 1_555
C41_2 C42_2 1_555 1_555
H5_2 C9_2 1_555 1_555
C10_2 C9_2 1_555 1_555
H6_2 C10_2 1_555 1_555
C11_2 C10_2 1_555 1_555
H7_2 C11_2 1_555 1_555
C12_2 N13 1_555 1_555
C11_2 C12_2 1_555 1_555
Mn5 O1_2 1_555 1_555
O1_2 C1_2 1_555 1_555
N1_2 C4_2 1_555 1_555
C1_2 C2_2 1_555 1_555
C2_2 C3_2 1_555 1_555
C3_2 H1_2 1_555 1_555
C4_2 C3_2 1_555 1_555
C5_2 C4_2 1_555 1_555
H2_2 C5_2 1_555 1_555
C6_2 N1_2 1_555 1_555
H3_2 C6_2 1_555 1_555
C7_2 N1_2 1_555 1_555
C8_2 C7_2 1_555 1_555
H4_2 C8_2 1_555 1_555
O2_2 C1_2 1_555 1_555
N3_2 C14_2 1_555 1_555
N16 C15_2 1_555 1_555
C13_2 C2_2 1_555 1_555
H8_2 C13_2 1_555 1_555
C14_2 C5_2 1_555 1_555
C15_2 N3_2 1_555 1_555
H9_2 C15_2 1_555 1_555
C16_2 N3_2 1_555 1_555
C17_2 C16_2 1_555 1_555
H10_2 C17_2 1_555 1_555
C18_2 C17_2 1_555 1_555
H11_2 C18_2 1_555 1_555
C19_2 C18_2 1_555 1_555
H12_2 C19_2 1_555 1_555
C20_2 C19_2 1_555 1_555
H13_2 C20_2 1_555 1_555
C21_2 N16 1_555 1_555
O3_2 Mn5 1_555 1_555
C22_2 O3_2 1_555 1_555
C23_2 C22_2 1_555 1_555
C24_2 C23_2 1_555 1_555
H14_2 C24_2 1_555 1_555
O4_2 C22_2 1_555 1_555
C34_2 C23_2 1_555 1_555
H21_2 C34_2 1_555 1_555
O5_2 Mn5 1_555 1_555
C43_2 O5_2 1_555 1_555
C44_2 C43_2 1_555 1_555
C45_2 C44_2 1_555 1_555
H27_2 C45_2 1_555 1_555
O6_2 C43_2 1_555 1_555
C55_2 C44_2 1_555 1_555
H34_2 C55_2 1_555 1_555
Mn8 O2_2 1_555 1_555
C13_2 C14_2 1_555 1_555
C16_2 C21_2 1_555 1_555
C20_2 C21_2 1_555 1_555
O4_2 Mn8 1_555 1_555
O6_2 Mn8 1_555 1_555
C52_2 C51_2 1_555 1_555
H32_2 C52_2 1_555 1_555
C53_2 C52_2 1_555 1_555
H33_2 C53_2 1_555 1_555
C54_2 N15 1_555 1_555
C53_2 C54_2 1_555 1_555
N9_2 C46_2 1_555 1_555
C47_2 C46_2 1_555 1_555
H28_2 C47_2 1_555 1_555
C48_2 N9_2 1_555 1_555
H29_2 C48_2 1_555 1_555
C49_2 N9_2 1_555 1_555
C50_2 C49_2 1_555 1_555
N11_2 C56_2 1_555 1_555
N18 C57_2 1_555 1_555
C56_2 C47_2 1_555 1_555
C57_2 N11_2 1_555 1_555
H35_2 C57_2 1_555 1_555
C58_2 N11_2 1_555 1_555
C59_2 C58_2 1_555 1_555
C60_2 C59_2 1_555 1_555
C61_2 C60_2 1_555 1_555
H38_2 C61_2 1_555 1_555
C62_2 C61_2 1_555 1_555
H39_2 C62_2 1_555 1_555
C63_2 N18 1_555 1_555
C58_2 C63_2 1_555 1_555
C62_2 C63_2 1_555 1_555

#END
