
###############################################################################
#
# This file contains modified crystal structure data generated from the
# MOF subset of the Cambridge Structural Database (CSD) v543 
# hosted by the Cambridge Crystallographic Data Centre (CCDC).
#
# This work is licensed under the Creative Commons
# Attribution-NonCommercial-ShareAlike 4.0 International License.
# To view a copy of this license, visit
# http://creativecommons.org/licenses/by-nc-sa/4.0/
# or send a letter to
# Creative Commons, PO Box 1866, Mountain View, CA 94042, USA.
#
# CIF created using the CSD Python API on 29 September 2022
# The structure has been converted into the P1 space group
# The structure has a 3D framework
# The original CSD entry YOYREL is in the trigonal crystal system
# The framework has been calculated to contain at least 10.0% void space
# The void calculation uses a probe of radius 1.32A, grid spacing 0.4
# The framework is charged, counterions have been retained in the structure
#
###############################################################################

data_YOYREL
_chemical_formula_moiety         '(C126 H78 Mn4 N26 O18)n'
_symmetry_cell_setting           triclinic
_symmetry_space_group_name_H-M   'P 1'
_symmetry_Int_Tables_number      1
_space_group_name_Hall           'P 1'
loop_
_symmetry_equiv_pos_site_id
_symmetry_equiv_pos_as_xyz
1 x,y,z
_cell_length_a                   17.485(5)
_cell_length_b                   17.485(5)
_cell_length_c                   14.019(5)
_cell_angle_alpha                90
_cell_angle_beta                 90
_cell_angle_gamma                120
_cell_volume                     3711.75
loop_
_atom_site_label
_atom_site_type_symbol
_atom_site_fract_x
_atom_site_fract_y
_atom_site_fract_z
O1 O 0.29217(13) 0.5843(3) 0.7500
N1 N 0.3333 0.6667 0.7500
O2 O 0.4157(3) 0.70787(33) 0.7500
O3 O 0.29213(33) 0.70783(13) 0.7500
O1_2 O 0.70783(13) 0.4157(3) 0.2500
N1_2 N 0.6667 0.3333 0.2500
O2_2 O 0.5843(3) 0.29213(33) 0.2500
O3_2 O 0.70787(33) 0.29217(13) 0.2500
N11 N 0.22292(25) 0.66332(18) 0.00725(17)
C51 C 0.0346(6) 0.7366(5) 0.0441(5)
C52 C 0.1075(6) 0.7752(5) 0.1045(4)
H32 H 0.1111 0.8153 0.1504
C53 C 0.1744(4) 0.7558(3) 0.0982(3)
H33 H 0.2233 0.7822 0.1383
C54 C 0.1657(3) 0.6949(2) 0.0293(2)
Mn8 Mn 0.3333 0.6667 0.10147(5)
N10 N 0.10456(26) 0.59846(19) 0.91160(17)
C46 C 0.0538(3) 0.5505(2) 0.8300(2)
C47 C 0.09948(23) 0.54974(16) 0.7500
H28 H 0.1608 0.5804 0.7500
C48 C 0.1827(3) 0.6070(2) 0.9378(2)
H29 H 0.2063 0.5755 0.9088
C49 C 0.0914(4) 0.6550(3) 0.9702(2)
C50 C 0.0248(5) 0.6752(4) 0.9764(3)
N12 N 0.10456(26) 0.50610(18) 0.58840(17)
N13 N 0.22292(25) 0.55960(18) 0.49275(17)
C56 C 0.0538(3) 0.5033(2) 0.6700(2)
C57 C 0.1827(3) 0.5757(2) 0.5622(2)
H35 H 0.2063 0.6308 0.5912
C58 C 0.0914(4) 0.4364(2) 0.5298(2)
C59 C 0.0248(5) 0.3496(3) 0.5236(3)
C60 C 0.0346(6) 0.2980(3) 0.4559(5)
C61 C 0.1075(6) 0.3323(3) 0.3955(4)
H38 H 0.1111 0.2958 0.3496
C62 C 0.1744(4) 0.4186(3) 0.4018(3)
H39 H 0.2233 0.4411 0.3617
C63 C 0.1657(3) 0.4708(2) 0.4707(2)
Mn5 Mn 0.3333 0.6667 0.39853(5)
N3 N 0.33668(18) 0.55960(18) 0.00725(17)
C9 C 0.2634(5) 0.2980(3) 0.0441(5)
H5 H 0.2474 0.2388 0.0496
C10 C 0.2248(5) 0.3323(3) 0.1045(4)
H6 H 0.1847 0.2958 0.1504
C11 C 0.2442(3) 0.4186(3) 0.0982(3)
H7 H 0.2178 0.4411 0.1383
C12 C 0.3051(2) 0.4708(2) 0.0293(2)
H18 H 0.7612 0.0086 0.0496
H31 H 0.9914 0.7526 0.0496
Mn1 Mn 0.6667 0.3333 0.60147(5)
O4 O 0.64231(14) 0.42297(14) 0.68097(14)
N2 N 0.40154(19) 0.50610(18) 0.91160(17)
C1 C 0.59097(15) 0.40903(15) 0.7500
C2 C 0.54143(15) 0.45857(15) 0.7500
C3 C 0.4954(2) 0.4586(2) 0.8310(2)
H1 H 0.4957 0.4284 0.8855
C4 C 0.4495(2) 0.5033(2) 0.8300(2)
C5 C 0.45026(16) 0.54974(16) 0.7500
H2 H 0.4196 0.5804 0.7500
C6 C 0.3930(2) 0.5757(2) 0.9378(2)
H3 H 0.4245 0.6308 0.9088
C7 C 0.3450(3) 0.4364(2) 0.9702(2)
C8 C 0.3248(4) 0.3496(3) 0.9764(3)
H4 H 0.3514 0.3270 0.9368
O5 O 0.57703(14) 0.35769(14) 0.81903(14)
N4 N 0.49390(18) 0.59846(19) 0.58840(17)
N5 N 0.44040(18) 0.66332(18) 0.49275(17)
C13 C 0.5414(2) 0.5046(2) 0.6690(2)
H8 H 0.5716 0.5043 0.6145
C14 C 0.4967(2) 0.5505(2) 0.6700(2)
C15 C 0.4243(2) 0.6070(2) 0.5622(2)
H9 H 0.3692 0.5755 0.5912
C16 C 0.5636(2) 0.6550(3) 0.5298(2)
C17 C 0.6504(3) 0.6752(4) 0.5236(3)
H10 H 0.6730 0.6486 0.5632
C18 C 0.7020(3) 0.7366(5) 0.4559(5)
H11 H 0.7612 0.7526 0.4504
C19 C 0.6677(3) 0.7752(5) 0.3955(4)
H12 H 0.7042 0.8153 0.3496
C20 C 0.5814(3) 0.7558(3) 0.4018(3)
H13 H 0.5589 0.7822 0.3617
C21 C 0.5292(2) 0.6949(2) 0.4707(2)
O6 O 0.57703(14) 0.21934(20) 0.68097(14)
C22 C 0.59097(15) 0.18194(21) 0.7500
C23 C 0.54143(15) 0.08286(21) 0.7500
C24 C 0.5414(2) 0.0368(3) 0.8310(2)
H14 H 0.5716 0.0673 0.8855
H17 H 0.6730 0.0244 0.9368
O7 O 0.64231(14) 0.21934(20) 0.81903(14)
C34 C 0.4954(2) 0.0368(3) 0.6690(2)
H21 H 0.4957 0.0673 0.6145
H23 H 0.3514 0.0244 0.5632
H24 H 0.2474 0.0086 0.4504
O8 O 0.78066(20) 0.35769(14) 0.68097(14)
C43 C 0.81806(21) 0.40903(15) 0.7500
C44 C 0.91714(21) 0.45857(15) 0.7500
C45 C 0.9632(3) 0.5046(2) 0.8310(2)
H27 H 0.9327 0.5043 0.8855
H30 H 0.9756 0.6486 0.9368
O9 O 0.78066(20) 0.42297(14) 0.81903(14)
C55 C 0.9632(3) 0.4586(2) 0.6690(2)
H34 H 0.9327 0.4284 0.6145
H36 H 0.9756 0.3270 0.5632
H37 H 0.9914 0.2388 0.4504
Mn2 Mn 0.6667 0.3333 0.89853(5)
N14 N 0.66332(18) 0.44040(18) 0.99275(17)
N15 N 0.55960(18) 0.22292(25) 0.99275(17)
N16 N 0.77708(25) 0.33668(18) 0.99275(17)
N17 N 0.55960(18) 0.33668(18) 0.50725(17)
N18 N 0.66332(18) 0.22292(25) 0.50725(17)
N19 N 0.77708(25) 0.44040(18) 0.50725(17)
N7 N 0.44040(18) 0.77708(25) 0.00725(17)
C30 C 0.7020(3) 0.9654(6) 0.0441(5)
C31 C 0.6677(3) 0.8925(6) 0.1045(4)
H19 H 0.7042 0.8889 0.1504
C32 C 0.5814(3) 0.8256(4) 0.0982(3)
H20 H 0.5589 0.7767 0.1383
C33 C 0.5292(2) 0.8343(3) 0.0293(2)
N6 N 0.49390(18) 0.89544(26) 0.91160(17)
C25 C 0.4967(2) 0.9462(3) 0.8300(2)
C26 C 0.45026(16) 0.90052(23) 0.7500
H15 H 0.4196 0.8392 0.7500
C27 C 0.4243(2) 0.8173(3) 0.9378(2)
H16 H 0.3692 0.7937 0.9088
C28 C 0.5636(2) 0.9086(4) 0.9702(2)
C29 C 0.6504(3) 0.9752(5) 0.9764(3)
N8 N 0.40154(19) 0.89544(26) 0.58840(17)
N9 N 0.33668(18) 0.77708(25) 0.49275(17)
C35 C 0.4495(2) 0.9462(3) 0.6700(2)
C36 C 0.3930(2) 0.8173(3) 0.5622(2)
H22 H 0.4245 0.7937 0.5912
C37 C 0.3450(3) 0.9086(4) 0.5298(2)
C38 C 0.3248(4) 0.9752(5) 0.5236(3)
C39 C 0.2634(5) 0.9654(6) 0.4559(5)
C40 C 0.2248(5) 0.8925(6) 0.3955(4)
H25 H 0.1847 0.8889 0.3496
C41 C 0.2442(3) 0.8256(4) 0.4018(3)
H26 H 0.2178 0.7767 0.3617
C42 C 0.3051(2) 0.8343(3) 0.4707(2)
N6_2 N 0.50610(18) 0.10456(26) 0.08840(17)
C25_2 C 0.5033(2) 0.0538(3) 0.1700(2)
C26_2 C 0.54974(16) 0.09948(23) 0.2500
H15_2 H 0.5804 0.1608 0.2500
C27_2 C 0.5757(2) 0.1827(3) 0.0622(2)
H16_2 H 0.6308 0.2063 0.0912
C28_2 C 0.4364(2) 0.0914(4) 0.0298(2)
C29_2 C 0.3496(3) 0.0248(5) 0.0236(3)
N8_2 N 0.59846(19) 0.10456(26) 0.41160(17)
C35_2 C 0.5505(2) 0.0538(3) 0.3300(2)
C36_2 C 0.6070(2) 0.1827(3) 0.4378(2)
H22_2 H 0.5755 0.2063 0.4088
C37_2 C 0.6550(3) 0.0914(4) 0.4702(2)
C38_2 C 0.6752(4) 0.0248(5) 0.4764(3)
C39_2 C 0.7366(5) 0.0346(6) 0.5441(5)
C40_2 C 0.7752(5) 0.1075(6) 0.6045(4)
H25_2 H 0.8153 0.1111 0.6504
C41_2 C 0.7558(3) 0.1744(4) 0.5982(3)
H26_2 H 0.7822 0.2233 0.6383
C42_2 C 0.6949(2) 0.1657(3) 0.5293(2)
C30_2 C 0.2980(3) 0.0346(6) 0.9559(5)
C31_2 C 0.3323(3) 0.1075(6) 0.8955(4)
H19_2 H 0.2958 0.1111 0.8496
C32_2 C 0.4186(3) 0.1744(4) 0.9018(3)
H20_2 H 0.4411 0.2233 0.8617
C33_2 C 0.4708(2) 0.1657(3) 0.9707(2)
O4_2 O 0.35769(14) 0.57703(14) 0.31903(14)
N2_2 N 0.59846(19) 0.49390(18) 0.08840(17)
C1_2 C 0.40903(15) 0.59097(15) 0.2500
C2_2 C 0.45857(15) 0.54143(15) 0.2500
C3_2 C 0.5046(2) 0.5414(2) 0.1690(2)
H1_2 H 0.5043 0.5716 0.1145
C4_2 C 0.5505(2) 0.4967(2) 0.1700(2)
C5_2 C 0.54974(16) 0.45026(16) 0.2500
H2_2 H 0.5804 0.4196 0.2500
C6_2 C 0.6070(2) 0.4243(2) 0.0622(2)
H3_2 H 0.5755 0.3692 0.0912
C7_2 C 0.6550(3) 0.5636(2) 0.0298(2)
C8_2 C 0.6752(4) 0.6504(3) 0.0236(3)
H4_2 H 0.6486 0.6730 0.0632
O5_2 O 0.42297(14) 0.64231(14) 0.18097(14)
N4_2 N 0.50610(18) 0.40154(19) 0.41160(17)
C13_2 C 0.4586(2) 0.4954(2) 0.3310(2)
H8_2 H 0.4284 0.4957 0.3855
C14_2 C 0.5033(2) 0.4495(2) 0.3300(2)
C15_2 C 0.5757(2) 0.3930(2) 0.4378(2)
H9_2 H 0.6308 0.4245 0.4088
C16_2 C 0.4364(2) 0.3450(3) 0.4702(2)
C17_2 C 0.3496(3) 0.3248(4) 0.4764(3)
H10_2 H 0.3270 0.3514 0.4368
C18_2 C 0.2980(3) 0.2634(5) 0.5441(5)
H11_2 H 0.2388 0.2474 0.5496
C19_2 C 0.3323(3) 0.2248(5) 0.6045(4)
H12_2 H 0.2958 0.1847 0.6504
C20_2 C 0.4186(3) 0.2442(3) 0.5982(3)
H13_2 H 0.4411 0.2178 0.6383
C21_2 C 0.4708(2) 0.3051(2) 0.5293(2)
O6_2 O 0.42297(14) 0.78066(20) 0.31903(14)
C22_2 C 0.40903(15) 0.81806(21) 0.2500
C23_2 C 0.45857(15) 0.91714(21) 0.2500
C24_2 C 0.4586(2) 0.9632(3) 0.1690(2)
H14_2 H 0.4284 0.9327 0.1145
H17_2 H 0.3270 0.9756 0.0632
O7_2 O 0.35769(14) 0.78066(20) 0.18097(14)
C34_2 C 0.5046(2) 0.9632(3) 0.3310(2)
H21_2 H 0.5043 0.9327 0.3855
H23_2 H 0.6486 0.9756 0.4368
H24_2 H 0.7526 0.9914 0.5496
O8_2 O 0.21934(20) 0.64231(14) 0.31903(14)
C43_2 C 0.18194(21) 0.59097(15) 0.2500
C44_2 C 0.08286(21) 0.54143(15) 0.2500
C45_2 C 0.0368(3) 0.4954(2) 0.1690(2)
H27_2 H 0.0673 0.4957 0.1145
H30_2 H 0.0244 0.3514 0.0632
O9_2 O 0.21934(20) 0.57703(14) 0.18097(14)
C55_2 C 0.0368(3) 0.5414(2) 0.3310(2)
H34_2 H 0.0673 0.5716 0.3855
H36_2 H 0.0244 0.6730 0.4368
H37_2 H 0.0086 0.7612 0.5496
C9_2 C 0.7366(5) 0.7020(3) 0.9559(5)
H5_2 H 0.7526 0.7612 0.9504
C10_2 C 0.7752(5) 0.6677(3) 0.8955(4)
H6_2 H 0.8153 0.7042 0.8496
C11_2 C 0.7558(3) 0.5814(3) 0.9018(3)
H7_2 H 0.7822 0.5589 0.8617
C12_2 C 0.6949(2) 0.5292(2) 0.9707(2)
H18_2 H 0.2388 0.9914 0.9504
H31_2 H 0.0086 0.2474 0.9504
N10_2 N 0.89544(26) 0.40154(19) 0.08840(17)
C46_2 C 0.9462(3) 0.4495(2) 0.1700(2)
C47_2 C 0.90052(23) 0.45026(16) 0.2500
H28_2 H 0.8392 0.4196 0.2500
C48_2 C 0.8173(3) 0.3930(2) 0.0622(2)
H29_2 H 0.7937 0.4245 0.0912
C49_2 C 0.9086(4) 0.3450(3) 0.0298(2)
C50_2 C 0.9752(5) 0.3248(4) 0.0236(3)
N12_2 N 0.89544(26) 0.49390(18) 0.41160(17)
C56_2 C 0.9462(3) 0.4967(2) 0.3300(2)
C57_2 C 0.8173(3) 0.4243(2) 0.4378(2)
H35_2 H 0.7937 0.3692 0.4088
C58_2 C 0.9086(4) 0.5636(2) 0.4702(2)
C59_2 C 0.9752(5) 0.6504(3) 0.4764(3)
C60_2 C 0.9654(6) 0.7020(3) 0.5441(5)
C61_2 C 0.8925(6) 0.6677(3) 0.6045(4)
H38_2 H 0.8889 0.7042 0.6504
C62_2 C 0.8256(4) 0.5814(3) 0.5982(3)
H39_2 H 0.7767 0.5589 0.6383
C63_2 C 0.8343(3) 0.5292(2) 0.5293(2)
C51_2 C 0.9654(6) 0.2634(5) 0.9559(5)
C52_2 C 0.8925(6) 0.2248(5) 0.8955(4)
H32_2 H 0.8889 0.1847 0.8496
C53_2 C 0.8256(4) 0.2442(3) 0.9018(3)
H33_2 H 0.7767 0.2178 0.8617
C54_2 C 0.8343(3) 0.3051(2) 0.9707(2)
loop_
_geom_bond_atom_site_label_1
_geom_bond_atom_site_label_2
_geom_bond_site_symmetry_1
_geom_bond_site_symmetry_2
O1 N1 1_555 1_555
N1 O2 1_555 1_555
O3 N1 1_555 1_555
O1_2 N1_2 1_555 1_555
N1_2 O2_2 1_555 1_555
O3_2 N1_2 1_555 1_555
C52 C51 1_555 1_555
H32 C52 1_555 1_555
C53 C52 1_555 1_555
H33 C53 1_555 1_555
C54 N11 1_555 1_555
Mn8 N11 1_555 1_555
C53 C54 1_555 1_555
N10 C46 1_555 1_555
C47 C46 1_555 1_555
H28 C47 1_555 1_555
C48 N10 1_555 1_555
H29 C48 1_555 1_555
C49 N10 1_555 1_555
C50 C49 1_555 1_555
N12 C56 1_555 1_555
N13 C57 1_555 1_555
C56 C47 1_555 1_555
C57 N12 1_555 1_555
H35 C57 1_555 1_555
C58 N12 1_555 1_555
C59 C58 1_555 1_555
C60 C59 1_555 1_555
C61 C60 1_555 1_555
H38 C61 1_555 1_555
C62 C61 1_555 1_555
H39 C62 1_555 1_555
C63 N13 1_555 1_555
Mn5 N13 1_555 1_555
C58 C63 1_555 1_555
C62 C63 1_555 1_555
H5 C9 1_555 1_555
C10 C9 1_555 1_555
H6 C10 1_555 1_555
C11 C10 1_555 1_555
H7 C11 1_555 1_555
C12 N3 1_555 1_555
Mn8 N3 1_555 1_555
C11 C12 1_555 1_555
Mn1 O4 1_555 1_555
O4 C1 1_555 1_555
N2 C4 1_555 1_555
C1 C2 1_555 1_555
C2 C3 1_555 1_555
C3 H1 1_555 1_555
C4 C3 1_555 1_555
C5 C4 1_555 1_555
H2 C5 1_555 1_555
C6 N2 1_555 1_555
H3 C6 1_555 1_555
C7 N2 1_555 1_555
C8 C7 1_555 1_555
H4 C8 1_555 1_555
O5 C1 1_555 1_555
N4 C14 1_555 1_555
N5 C15 1_555 1_555
C13 C2 1_555 1_555
H8 C13 1_555 1_555
C14 C5 1_555 1_555
C15 N4 1_555 1_555
H9 C15 1_555 1_555
C16 N4 1_555 1_555
C17 C16 1_555 1_555
H10 C17 1_555 1_555
C18 C17 1_555 1_555
H11 C18 1_555 1_555
C19 C18 1_555 1_555
H12 C19 1_555 1_555
C20 C19 1_555 1_555
H13 C20 1_555 1_555
C21 N5 1_555 1_555
O6 Mn1 1_555 1_555
C22 O6 1_555 1_555
C23 C22 1_555 1_555
C24 C23 1_555 1_555
H14 C24 1_555 1_555
O7 C22 1_555 1_555
C34 C23 1_555 1_555
H21 C34 1_555 1_555
O8 Mn1 1_555 1_555
C43 O8 1_555 1_555
C44 C43 1_555 1_555
C45 C44 1_555 1_555
H27 C45 1_555 1_555
O9 C43 1_555 1_555
C55 C44 1_555 1_555
H34 C55 1_555 1_555
Mn2 O5 1_555 1_555
Mn5 N5 1_555 1_555
N14 Mn2 1_555 1_555
N15 Mn2 1_555 1_555
N16 Mn2 1_555 1_555
N17 Mn1 1_555 1_555
N18 Mn1 1_555 1_555
N19 Mn1 1_555 1_555
C13 C14 1_555 1_555
C16 C21 1_555 1_555
C20 C21 1_555 1_555
O7 Mn2 1_555 1_555
O9 Mn2 1_555 1_555
C31 C30 1_555 1_555
H19 C31 1_555 1_555
C32 C31 1_555 1_555
H20 C32 1_555 1_555
C33 N7 1_555 1_555
Mn8 N7 1_555 1_555
C32 C33 1_555 1_555
N6 C25 1_555 1_555
C26 C25 1_555 1_555
H15 C26 1_555 1_555
C27 N6 1_555 1_555
H16 C27 1_555 1_555
C28 N6 1_555 1_555
C29 C28 1_555 1_555
N8 C35 1_555 1_555
N9 C36 1_555 1_555
C35 C26 1_555 1_555
C36 N8 1_555 1_555
H22 C36 1_555 1_555
C37 N8 1_555 1_555
C38 C37 1_555 1_555
C39 C38 1_555 1_555
C40 C39 1_555 1_555
H25 C40 1_555 1_555
C41 C40 1_555 1_555
H26 C41 1_555 1_555
C42 N9 1_555 1_555
Mn5 N9 1_555 1_555
C37 C42 1_555 1_555
C41 C42 1_555 1_555
N6_2 C25_2 1_555 1_555
C26_2 C25_2 1_555 1_555
H15_2 C26_2 1_555 1_555
C27_2 N6_2 1_555 1_555
H16_2 C27_2 1_555 1_555
C28_2 N6_2 1_555 1_555
C29_2 C28_2 1_555 1_555
N8_2 C35_2 1_555 1_555
N18 C36_2 1_555 1_555
C35_2 C26_2 1_555 1_555
C36_2 N8_2 1_555 1_555
H22_2 C36_2 1_555 1_555
C37_2 N8_2 1_555 1_555
C38_2 C37_2 1_555 1_555
C39_2 C38_2 1_555 1_555
C40_2 C39_2 1_555 1_555
H25_2 C40_2 1_555 1_555
C41_2 C40_2 1_555 1_555
H26_2 C41_2 1_555 1_555
C42_2 N18 1_555 1_555
C37_2 C42_2 1_555 1_555
C41_2 C42_2 1_555 1_555
C31_2 C30_2 1_555 1_555
H19_2 C31_2 1_555 1_555
C32_2 C31_2 1_555 1_555
H20_2 C32_2 1_555 1_555
C33_2 N15 1_555 1_555
C32_2 C33_2 1_555 1_555
Mn5 O4_2 1_555 1_555
O4_2 C1_2 1_555 1_555
N2_2 C4_2 1_555 1_555
C1_2 C2_2 1_555 1_555
C2_2 C3_2 1_555 1_555
C3_2 H1_2 1_555 1_555
C4_2 C3_2 1_555 1_555
C5_2 C4_2 1_555 1_555
H2_2 C5_2 1_555 1_555
C6_2 N2_2 1_555 1_555
H3_2 C6_2 1_555 1_555
C7_2 N2_2 1_555 1_555
C8_2 C7_2 1_555 1_555
H4_2 C8_2 1_555 1_555
O5_2 C1_2 1_555 1_555
N4_2 C14_2 1_555 1_555
N17 C15_2 1_555 1_555
C13_2 C2_2 1_555 1_555
H8_2 C13_2 1_555 1_555
C14_2 C5_2 1_555 1_555
C15_2 N4_2 1_555 1_555
H9_2 C15_2 1_555 1_555
C16_2 N4_2 1_555 1_555
C17_2 C16_2 1_555 1_555
H10_2 C17_2 1_555 1_555
C18_2 C17_2 1_555 1_555
H11_2 C18_2 1_555 1_555
C19_2 C18_2 1_555 1_555
H12_2 C19_2 1_555 1_555
C20_2 C19_2 1_555 1_555
H13_2 C20_2 1_555 1_555
C21_2 N17 1_555 1_555
O6_2 Mn5 1_555 1_555
C22_2 O6_2 1_555 1_555
C23_2 C22_2 1_555 1_555
C24_2 C23_2 1_555 1_555
H14_2 C24_2 1_555 1_555
O7_2 C22_2 1_555 1_555
C34_2 C23_2 1_555 1_555
H21_2 C34_2 1_555 1_555
O8_2 Mn5 1_555 1_555
C43_2 O8_2 1_555 1_555
C44_2 C43_2 1_555 1_555
C45_2 C44_2 1_555 1_555
H27_2 C45_2 1_555 1_555
O9_2 C43_2 1_555 1_555
C55_2 C44_2 1_555 1_555
H34_2 C55_2 1_555 1_555
Mn8 O5_2 1_555 1_555
C13_2 C14_2 1_555 1_555
C16_2 C21_2 1_555 1_555
C20_2 C21_2 1_555 1_555
O7_2 Mn8 1_555 1_555
O9_2 Mn8 1_555 1_555
H5_2 C9_2 1_555 1_555
C10_2 C9_2 1_555 1_555
H6_2 C10_2 1_555 1_555
C11_2 C10_2 1_555 1_555
H7_2 C11_2 1_555 1_555
C12_2 N14 1_555 1_555
C11_2 C12_2 1_555 1_555
N10_2 C46_2 1_555 1_555
C47_2 C46_2 1_555 1_555
H28_2 C47_2 1_555 1_555
C48_2 N10_2 1_555 1_555
H29_2 C48_2 1_555 1_555
C49_2 N10_2 1_555 1_555
C50_2 C49_2 1_555 1_555
N12_2 C56_2 1_555 1_555
N19 C57_2 1_555 1_555
C56_2 C47_2 1_555 1_555
C57_2 N12_2 1_555 1_555
H35_2 C57_2 1_555 1_555
C58_2 N12_2 1_555 1_555
C59_2 C58_2 1_555 1_555
C60_2 C59_2 1_555 1_555
C61_2 C60_2 1_555 1_555
H38_2 C61_2 1_555 1_555
C62_2 C61_2 1_555 1_555
H39_2 C62_2 1_555 1_555
C63_2 N19 1_555 1_555
C58_2 C63_2 1_555 1_555
C62_2 C63_2 1_555 1_555
C52_2 C51_2 1_555 1_555
H32_2 C52_2 1_555 1_555
C53_2 C52_2 1_555 1_555
H33_2 C53_2 1_555 1_555
C54_2 N16 1_555 1_555
C53_2 C54_2 1_555 1_555

#END
