
###############################################################################
#
# This file contains modified crystal structure data generated from the
# MOF subset of the Cambridge Structural Database (CSD) v543 
# hosted by the Cambridge Crystallographic Data Centre (CCDC).
#
# This work is licensed under the Creative Commons
# Attribution-NonCommercial-ShareAlike 4.0 International License.
# To view a copy of this license, visit
# http://creativecommons.org/licenses/by-nc-sa/4.0/
# or send a letter to
# Creative Commons, PO Box 1866, Mountain View, CA 94042, USA.
#
# CIF created using the CSD Python API on 29 September 2022
# The structure has been converted into the P1 space group
# The structure has a 3D framework
# The original CSD entry YOYRIP is in the trigonal crystal system
# The framework has been calculated to contain at least 10.0% void space
# The void calculation uses a probe of radius 1.32A, grid spacing 0.4
# The framework is charged, counterions have been retained in the structure
#
###############################################################################

data_YOYRIP
_chemical_formula_moiety         '(C126 H78 Mn4 N24 O12 2+)n'
_symmetry_cell_setting           triclinic
_symmetry_space_group_name_H-M   'P 1'
_symmetry_Int_Tables_number      1
_space_group_name_Hall           'P 1'
loop_
_symmetry_equiv_pos_site_id
_symmetry_equiv_pos_as_xyz
1 x,y,z
_cell_length_a                   17.203(5)
_cell_length_b                   17.203(5)
_cell_length_c                   14.045(5)
_cell_angle_alpha                90
_cell_angle_beta                 90
_cell_angle_gamma                120
_cell_volume                     3599.65
loop_
_atom_site_label
_atom_site_type_symbol
_atom_site_fract_x
_atom_site_fract_y
_atom_site_fract_z
N1 N 0.1114(2) 0.5026(2) 0.4081(2)
N2 N 0.2268(2) 0.5568(2) 0.5112(2)
C4 C 0.0618(3) 0.5041(3) 0.3286(3)
C5 C 0.1085(4) 0.5542(2) 0.2500
H2 H 0.1709 0.5854 0.2500
C6 C 0.1880(3) 0.5755(3) 0.4413(3)
H3 H 0.2105 0.6330 0.4167
C7 C 0.0999(3) 0.4290(3) 0.4618(3)
C8 C 0.0373(3) 0.3377(3) 0.4572(3)
C9 C 0.0487(3) 0.2825(3) 0.5203(4)
H5 H 0.0085 0.2210 0.5189
C10 C 0.1189(3) 0.3169(3) 0.5860(4)
H6 H 0.1235 0.2779 0.6285
C11 C 0.1821(3) 0.4076(3) 0.5898(3)
H7 H 0.2290 0.4299 0.6334
C12 C 0.1724(3) 0.4642(3) 0.5256(3)
N3 N 0.1114(2) 0.6088(3) 0.0919(2)
C14 C 0.0618(3) 0.5577(4) 0.1714(3)
C15 C 0.1880(3) 0.6125(4) 0.0587(3)
H9 H 0.2105 0.5775 0.0833
C16 C 0.0999(3) 0.6709(4) 0.0382(3)
C17 C 0.0373(3) 0.6996(4) 0.0428(3)
Mn8 Mn 0.3333 0.6667 0.60599(7)
N4 N 0.2268(2) 0.6700(3) 0.9888(2)
C18 C 0.0487(3) 0.7662(4) 0.9797(4)
H11 H 0.0085 0.7875 0.9811
C19 C 0.1189(3) 0.8020(4) 0.9140(4)
H12 H 0.1235 0.8456 0.8715
C20 C 0.1821(3) 0.7745(4) 0.9102(3)
H13 H 0.2290 0.7991 0.8666
C21 C 0.1724(3) 0.7082(4) 0.9744(3)
Mn5 Mn 0.3333 0.6667 0.89401(7)
Mn1 Mn 0.6667 0.3333 0.10599(7)
O1 O 0.78342(18) 0.42654(18) 0.18241(19)
C1 C 0.8209(4) 0.41044(19) 0.2500
C2 C 0.9221(4) 0.46105(19) 0.2500
C3 C 0.9690(3) 0.4577(3) 0.3295(3)
H1 H 0.9380 0.4244 0.3828
H4 H 0.9902 0.3149 0.4138
O2 O 0.78342(18) 0.35688(25) 0.31759(19)
C13 C 0.9690(3) 0.5113(4) 0.1705(3)
H8 H 0.9380 0.5136 0.1172
H10 H 0.9902 0.6753 0.0862
O3 O 0.57346(18) 0.35688(25) 0.18241(19)
N5 N 0.4974(2) 0.6088(3) 0.4081(2)
N6 N 0.4432(2) 0.6700(3) 0.5112(2)
C22 C 0.58956(19) 0.41046(44) 0.2500
C23 C 0.53895(19) 0.46105(44) 0.2500
C24 C 0.5423(3) 0.5113(4) 0.3295(3)
H14 H 0.5756 0.5136 0.3828
C25 C 0.4959(3) 0.5577(4) 0.3286(3)
C26 C 0.4458(2) 0.5543(4) 0.2500
H15 H 0.4146 0.5855 0.2500
C27 C 0.4245(3) 0.6125(4) 0.4413(3)
H16 H 0.3670 0.5775 0.4167
C28 C 0.5710(3) 0.6709(4) 0.4618(3)
C29 C 0.6623(3) 0.6996(4) 0.4572(3)
H17 H 0.6851 0.6753 0.4138
C30 C 0.7175(3) 0.7662(4) 0.5203(4)
H18 H 0.7790 0.7875 0.5189
C31 C 0.6831(3) 0.8020(4) 0.5860(4)
H19 H 0.7221 0.8456 0.6285
C32 C 0.5924(3) 0.7745(4) 0.5898(3)
H20 H 0.5701 0.7991 0.6334
C33 C 0.5358(3) 0.7082(4) 0.5256(3)
O4 O 0.64312(25) 0.42654(18) 0.31759(19)
N7 N 0.3912(3) 0.5026(2) 0.0919(2)
C34 C 0.4887(4) 0.4577(3) 0.1705(3)
H21 H 0.4864 0.4244 0.1172
C35 C 0.4423(4) 0.5041(3) 0.1714(3)
C36 C 0.3875(4) 0.5755(3) 0.0587(3)
H22 H 0.4225 0.6330 0.0833
C37 C 0.3291(4) 0.4290(3) 0.0382(3)
C38 C 0.3004(4) 0.3377(3) 0.0428(3)
H23 H 0.3247 0.3149 0.0862
O5 O 0.64312(25) 0.21658(18) 0.18241(19)
C43 C 0.58954(44) 0.1791(4) 0.2500
C44 C 0.53895(44) 0.0779(4) 0.2500
C45 C 0.4887(4) 0.0310(3) 0.3295(3)
H27 H 0.4864 0.0620 0.3828
H30 H 0.3247 0.0098 0.4138
O6 O 0.57346(18) 0.21658(18) 0.31759(19)
C55 C 0.5423(3) 0.0310(3) 0.1705(3)
H34 H 0.5756 0.0620 0.1172
H36 H 0.6851 0.0098 0.0862
Mn2 Mn 0.6667 0.3333 0.39401(7)
N13 N 0.7732(2) 0.4432(2) 0.4888(2)
N14 N 0.5568(2) 0.3300(3) 0.4888(2)
N15 N 0.6700(3) 0.2268(2) 0.4888(2)
N16 N 0.5568(2) 0.2268(2) 0.0112(2)
N17 N 0.7732(2) 0.3300(3) 0.0112(2)
N18 N 0.6700(3) 0.4432(2) 0.0112(2)
N8 N 0.3300(3) 0.5568(2) 0.9888(2)
C39 C 0.2338(4) 0.2825(3) 0.9797(4)
H24 H 0.2125 0.2210 0.9811
C40 C 0.1980(4) 0.3169(3) 0.9140(4)
H25 H 0.1544 0.2779 0.8715
C41 C 0.2255(4) 0.4076(3) 0.9102(3)
H26 H 0.2009 0.4299 0.8666
C42 C 0.2918(4) 0.4642(3) 0.9744(3)
N9 N 0.3912(3) 0.8886(2) 0.4081(2)
N10 N 0.3300(3) 0.7732(2) 0.5112(2)
C46 C 0.4423(4) 0.9382(3) 0.3286(3)
C47 C 0.4457(4) 0.8915(4) 0.2500
H28 H 0.4145 0.8291 0.2500
C48 C 0.3875(4) 0.8120(3) 0.4413(3)
H29 H 0.4225 0.7895 0.4167
C49 C 0.3291(4) 0.9001(3) 0.4618(3)
C50 C 0.3004(4) 0.9627(3) 0.4572(3)
C51 C 0.2338(4) 0.9513(3) 0.5203(4)
H31 H 0.2125 0.9915 0.5189
C52 C 0.1980(4) 0.8811(3) 0.5860(4)
H32 H 0.1544 0.8765 0.6285
C53 C 0.2255(4) 0.8179(3) 0.5898(3)
H33 H 0.2009 0.7710 0.6334
C54 C 0.2918(4) 0.8276(3) 0.5256(3)
N11 N 0.4974(2) 0.8886(2) 0.0919(2)
C56 C 0.4959(3) 0.9382(3) 0.1714(3)
C57 C 0.4245(3) 0.8120(3) 0.0587(3)
H35 H 0.3670 0.7895 0.0833
C58 C 0.5710(3) 0.9001(3) 0.0382(3)
C59 C 0.6623(3) 0.9627(3) 0.0428(3)
N12 N 0.4432(2) 0.7732(2) 0.9888(2)
C60 C 0.7175(3) 0.9513(3) 0.9797(4)
H37 H 0.7790 0.9915 0.9811
C61 C 0.6831(3) 0.8811(3) 0.9140(4)
H38 H 0.7221 0.8765 0.8715
C62 C 0.5924(3) 0.8179(3) 0.9102(3)
H39 H 0.5701 0.7710 0.8666
C63 C 0.5358(3) 0.8276(3) 0.9744(3)
C60_2 C 0.2825(3) 0.0487(3) 0.0203(4)
H37_2 H 0.2210 0.0085 0.0189
C61_2 C 0.3169(3) 0.1189(3) 0.0860(4)
H38_2 H 0.2779 0.1235 0.1285
C62_2 C 0.4076(3) 0.1821(3) 0.0898(3)
H39_2 H 0.4299 0.2290 0.1334
C63_2 C 0.4642(3) 0.1724(3) 0.0256(3)
N9_2 N 0.6088(3) 0.1114(2) 0.5919(2)
C46_2 C 0.5577(4) 0.0618(3) 0.6714(3)
C47_2 C 0.5543(4) 0.1085(4) 0.7500
H28_2 H 0.5855 0.1709 0.7500
C48_2 C 0.6125(4) 0.1880(3) 0.5587(3)
H29_2 H 0.5775 0.2105 0.5833
C49_2 C 0.6709(4) 0.0999(3) 0.5382(3)
C50_2 C 0.6996(4) 0.0373(3) 0.5428(3)
C51_2 C 0.7662(4) 0.0487(3) 0.4797(4)
H31_2 H 0.7875 0.0085 0.4811
C52_2 C 0.8020(4) 0.1189(3) 0.4140(4)
H32_2 H 0.8456 0.1235 0.3715
C53_2 C 0.7745(4) 0.1821(3) 0.4102(3)
H33_2 H 0.7991 0.2290 0.3666
C54_2 C 0.7082(4) 0.1724(3) 0.4744(3)
N11_2 N 0.5026(2) 0.1114(2) 0.9081(2)
C56_2 C 0.5041(3) 0.0618(3) 0.8286(3)
C57_2 C 0.5755(3) 0.1880(3) 0.9413(3)
H35_2 H 0.6330 0.2105 0.9167
C58_2 C 0.4290(3) 0.0999(3) 0.9618(3)
C59_2 C 0.3377(3) 0.0373(3) 0.9572(3)
C39_2 C 0.7662(4) 0.7175(3) 0.0203(4)
H24_2 H 0.7875 0.7790 0.0189
C40_2 C 0.8020(4) 0.6831(3) 0.0860(4)
H25_2 H 0.8456 0.7221 0.1285
C41_2 C 0.7745(4) 0.5924(3) 0.0898(3)
H26_2 H 0.7991 0.5701 0.1334
C42_2 C 0.7082(4) 0.5358(3) 0.0256(3)
O1_2 O 0.21658(18) 0.57346(18) 0.81759(19)
C1_2 C 0.1791(4) 0.58956(19) 0.7500
C2_2 C 0.0779(4) 0.53895(19) 0.7500
C3_2 C 0.0310(3) 0.5423(3) 0.6705(3)
H1_2 H 0.0620 0.5756 0.6172
H4_2 H 0.0098 0.6851 0.5862
O2_2 O 0.21658(18) 0.64312(25) 0.68241(19)
C13_2 C 0.0310(3) 0.4887(4) 0.8295(3)
H8_2 H 0.0620 0.4864 0.8828
H10_2 H 0.0098 0.3247 0.9138
O3_2 O 0.42654(18) 0.64312(25) 0.81759(19)
N5_2 N 0.5026(2) 0.3912(3) 0.5919(2)
C22_2 C 0.41044(19) 0.58954(44) 0.7500
C23_2 C 0.46105(19) 0.53895(44) 0.7500
C24_2 C 0.4577(3) 0.4887(4) 0.6705(3)
H14_2 H 0.4244 0.4864 0.6172
C25_2 C 0.5041(3) 0.4423(4) 0.6714(3)
C26_2 C 0.5542(2) 0.4457(4) 0.7500
H15_2 H 0.5854 0.4145 0.7500
C27_2 C 0.5755(3) 0.3875(4) 0.5587(3)
H16_2 H 0.6330 0.4225 0.5833
C28_2 C 0.4290(3) 0.3291(4) 0.5382(3)
C29_2 C 0.3377(3) 0.3004(4) 0.5428(3)
H17_2 H 0.3149 0.3247 0.5862
C30_2 C 0.2825(3) 0.2338(4) 0.4797(4)
H18_2 H 0.2210 0.2125 0.4811
C31_2 C 0.3169(3) 0.1980(4) 0.4140(4)
H19_2 H 0.2779 0.1544 0.3715
C32_2 C 0.4076(3) 0.2255(4) 0.4102(3)
H20_2 H 0.4299 0.2009 0.3666
C33_2 C 0.4642(3) 0.2918(4) 0.4744(3)
O4_2 O 0.35688(25) 0.57346(18) 0.68241(19)
N7_2 N 0.6088(3) 0.4974(2) 0.9081(2)
C34_2 C 0.5113(4) 0.5423(3) 0.8295(3)
H21_2 H 0.5136 0.5756 0.8828
C35_2 C 0.5577(4) 0.4959(3) 0.8286(3)
C36_2 C 0.6125(4) 0.4245(3) 0.9413(3)
H22_2 H 0.5775 0.3670 0.9167
C37_2 C 0.6709(4) 0.5710(3) 0.9618(3)
C38_2 C 0.6996(4) 0.6623(3) 0.9572(3)
H23_2 H 0.6753 0.6851 0.9138
O5_2 O 0.35688(25) 0.78342(18) 0.81759(19)
C43_2 C 0.41046(44) 0.8209(4) 0.7500
C44_2 C 0.46105(44) 0.9221(4) 0.7500
C45_2 C 0.5113(4) 0.9690(3) 0.6705(3)
H27_2 H 0.5136 0.9380 0.6172
H30_2 H 0.6753 0.9902 0.5862
O6_2 O 0.42654(18) 0.78342(18) 0.68241(19)
C55_2 C 0.4577(3) 0.9690(3) 0.8295(3)
H34_2 H 0.4244 0.9380 0.8828
H36_2 H 0.3149 0.9902 0.9138
C18_2 C 0.9513(3) 0.2338(4) 0.0203(4)
H11_2 H 0.9915 0.2125 0.0189
C19_2 C 0.8811(3) 0.1980(4) 0.0860(4)
H12_2 H 0.8765 0.1544 0.1285
C20_2 C 0.8179(3) 0.2255(4) 0.0898(3)
H13_2 H 0.7710 0.2009 0.1334
C21_2 C 0.8276(3) 0.2918(4) 0.0256(3)
N1_2 N 0.8886(2) 0.4974(2) 0.5919(2)
C4_2 C 0.9382(3) 0.4959(3) 0.6714(3)
C5_2 C 0.8915(4) 0.4458(2) 0.7500
H2_2 H 0.8291 0.4146 0.7500
C6_2 C 0.8120(3) 0.4245(3) 0.5587(3)
H3_2 H 0.7895 0.3670 0.5833
C7_2 C 0.9001(3) 0.5710(3) 0.5382(3)
C8_2 C 0.9627(3) 0.6623(3) 0.5428(3)
C9_2 C 0.9513(3) 0.7175(3) 0.4797(4)
H5_2 H 0.9915 0.7790 0.4811
C10_2 C 0.8811(3) 0.6831(3) 0.4140(4)
H6_2 H 0.8765 0.7221 0.3715
C11_2 C 0.8179(3) 0.5924(3) 0.4102(3)
H7_2 H 0.7710 0.5701 0.3666
C12_2 C 0.8276(3) 0.5358(3) 0.4744(3)
N3_2 N 0.8886(2) 0.3912(3) 0.9081(2)
C14_2 C 0.9382(3) 0.4423(4) 0.8286(3)
C15_2 C 0.8120(3) 0.3875(4) 0.9413(3)
H9_2 H 0.7895 0.4225 0.9167
C16_2 C 0.9001(3) 0.3291(4) 0.9618(3)
C17_2 C 0.9627(3) 0.3004(4) 0.9572(3)
loop_
_geom_bond_atom_site_label_1
_geom_bond_atom_site_label_2
_geom_bond_site_symmetry_1
_geom_bond_site_symmetry_2
N1 C4 1_555 1_555
N2 C6 1_555 1_555
C5 C4 1_555 1_555
H2 C5 1_555 1_555
C6 N1 1_555 1_555
H3 C6 1_555 1_555
C7 N1 1_555 1_555
C8 C7 1_555 1_555
C9 C8 1_555 1_555
H5 C9 1_555 1_555
C10 C9 1_555 1_555
H6 C10 1_555 1_555
C11 C10 1_555 1_555
H7 C11 1_555 1_555
C12 N2 1_555 1_555
N3 C14 1_555 1_555
C14 C5 1_555 1_555
C15 N3 1_555 1_555
H9 C15 1_555 1_555
C16 N3 1_555 1_555
C17 C16 1_555 1_555
Mn8 N2 1_555 1_555
C7 C12 1_555 1_555
C11 C12 1_555 1_555
H11 C18 1_555 1_555
C19 C18 1_555 1_555
H12 C19 1_555 1_555
C20 C19 1_555 1_555
H13 C20 1_555 1_555
C21 N4 1_555 1_555
Mn5 N4 1_555 1_555
C20 C21 1_555 1_555
Mn1 O1 1_555 1_555
O1 C1 1_555 1_555
C1 C2 1_555 1_555
C2 C3 1_555 1_555
C3 H1 1_555 1_555
O2 C1 1_555 1_555
C13 C2 1_555 1_555
H8 C13 1_555 1_555
O3 Mn1 1_555 1_555
N5 C25 1_555 1_555
N6 C27 1_555 1_555
C22 O3 1_555 1_555
C23 C22 1_555 1_555
C24 C23 1_555 1_555
H14 C24 1_555 1_555
C25 C24 1_555 1_555
C26 C25 1_555 1_555
H15 C26 1_555 1_555
C27 N5 1_555 1_555
H16 C27 1_555 1_555
C28 N5 1_555 1_555
C29 C28 1_555 1_555
H17 C29 1_555 1_555
C30 C29 1_555 1_555
H18 C30 1_555 1_555
C31 C30 1_555 1_555
H19 C31 1_555 1_555
C32 C31 1_555 1_555
H20 C32 1_555 1_555
C33 N6 1_555 1_555
O4 C22 1_555 1_555
N7 C35 1_555 1_555
C34 C23 1_555 1_555
H21 C34 1_555 1_555
C35 C26 1_555 1_555
C36 N7 1_555 1_555
H22 C36 1_555 1_555
C37 N7 1_555 1_555
C38 C37 1_555 1_555
H23 C38 1_555 1_555
O5 Mn1 1_555 1_555
C43 O5 1_555 1_555
C44 C43 1_555 1_555
C45 C44 1_555 1_555
H27 C45 1_555 1_555
O6 C43 1_555 1_555
C55 C44 1_555 1_555
H34 C55 1_555 1_555
Mn2 O2 1_555 1_555
Mn8 N6 1_555 1_555
N13 Mn2 1_555 1_555
N14 Mn2 1_555 1_555
N15 Mn2 1_555 1_555
N16 Mn1 1_555 1_555
N17 Mn1 1_555 1_555
N18 Mn1 1_555 1_555
C28 C33 1_555 1_555
C32 C33 1_555 1_555
O4 Mn2 1_555 1_555
C34 C35 1_555 1_555
O6 Mn2 1_555 1_555
H24 C39 1_555 1_555
C40 C39 1_555 1_555
H25 C40 1_555 1_555
C41 C40 1_555 1_555
H26 C41 1_555 1_555
C42 N8 1_555 1_555
Mn5 N8 1_555 1_555
C41 C42 1_555 1_555
N9 C46 1_555 1_555
N10 C48 1_555 1_555
C47 C46 1_555 1_555
H28 C47 1_555 1_555
C48 N9 1_555 1_555
H29 C48 1_555 1_555
C49 N9 1_555 1_555
C50 C49 1_555 1_555
C51 C50 1_555 1_555
H31 C51 1_555 1_555
C52 C51 1_555 1_555
H32 C52 1_555 1_555
C53 C52 1_555 1_555
H33 C53 1_555 1_555
C54 N10 1_555 1_555
N11 C56 1_555 1_555
C56 C47 1_555 1_555
C57 N11 1_555 1_555
H35 C57 1_555 1_555
C58 N11 1_555 1_555
C59 C58 1_555 1_555
Mn8 N10 1_555 1_555
C49 C54 1_555 1_555
C53 C54 1_555 1_555
H37 C60 1_555 1_555
C61 C60 1_555 1_555
H38 C61 1_555 1_555
C62 C61 1_555 1_555
H39 C62 1_555 1_555
C63 N12 1_555 1_555
Mn5 N12 1_555 1_555
C62 C63 1_555 1_555
H37_2 C60_2 1_555 1_555
C61_2 C60_2 1_555 1_555
H38_2 C61_2 1_555 1_555
C62_2 C61_2 1_555 1_555
H39_2 C62_2 1_555 1_555
C63_2 N16 1_555 1_555
C62_2 C63_2 1_555 1_555
N9_2 C46_2 1_555 1_555
N15 C48_2 1_555 1_555
C47_2 C46_2 1_555 1_555
H28_2 C47_2 1_555 1_555
C48_2 N9_2 1_555 1_555
H29_2 C48_2 1_555 1_555
C49_2 N9_2 1_555 1_555
C50_2 C49_2 1_555 1_555
C51_2 C50_2 1_555 1_555
H31_2 C51_2 1_555 1_555
C52_2 C51_2 1_555 1_555
H32_2 C52_2 1_555 1_555
C53_2 C52_2 1_555 1_555
H33_2 C53_2 1_555 1_555
C54_2 N15 1_555 1_555
N11_2 C56_2 1_555 1_555
C56_2 C47_2 1_555 1_555
C57_2 N11_2 1_555 1_555
H35_2 C57_2 1_555 1_555
C58_2 N11_2 1_555 1_555
C59_2 C58_2 1_555 1_555
C49_2 C54_2 1_555 1_555
C53_2 C54_2 1_555 1_555
H24_2 C39_2 1_555 1_555
C40_2 C39_2 1_555 1_555
H25_2 C40_2 1_555 1_555
C41_2 C40_2 1_555 1_555
H26_2 C41_2 1_555 1_555
C42_2 N18 1_555 1_555
C41_2 C42_2 1_555 1_555
Mn5 O1_2 1_555 1_555
O1_2 C1_2 1_555 1_555
C1_2 C2_2 1_555 1_555
C2_2 C3_2 1_555 1_555
C3_2 H1_2 1_555 1_555
O2_2 C1_2 1_555 1_555
C13_2 C2_2 1_555 1_555
H8_2 C13_2 1_555 1_555
O3_2 Mn5 1_555 1_555
N5_2 C25_2 1_555 1_555
N14 C27_2 1_555 1_555
C22_2 O3_2 1_555 1_555
C23_2 C22_2 1_555 1_555
C24_2 C23_2 1_555 1_555
H14_2 C24_2 1_555 1_555
C25_2 C24_2 1_555 1_555
C26_2 C25_2 1_555 1_555
H15_2 C26_2 1_555 1_555
C27_2 N5_2 1_555 1_555
H16_2 C27_2 1_555 1_555
C28_2 N5_2 1_555 1_555
C29_2 C28_2 1_555 1_555
H17_2 C29_2 1_555 1_555
C30_2 C29_2 1_555 1_555
H18_2 C30_2 1_555 1_555
C31_2 C30_2 1_555 1_555
H19_2 C31_2 1_555 1_555
C32_2 C31_2 1_555 1_555
H20_2 C32_2 1_555 1_555
C33_2 N14 1_555 1_555
O4_2 C22_2 1_555 1_555
N7_2 C35_2 1_555 1_555
C34_2 C23_2 1_555 1_555
H21_2 C34_2 1_555 1_555
C35_2 C26_2 1_555 1_555
C36_2 N7_2 1_555 1_555
H22_2 C36_2 1_555 1_555
C37_2 N7_2 1_555 1_555
C38_2 C37_2 1_555 1_555
H23_2 C38_2 1_555 1_555
O5_2 Mn5 1_555 1_555
C43_2 O5_2 1_555 1_555
C44_2 C43_2 1_555 1_555
C45_2 C44_2 1_555 1_555
H27_2 C45_2 1_555 1_555
O6_2 C43_2 1_555 1_555
C55_2 C44_2 1_555 1_555
H34_2 C55_2 1_555 1_555
Mn8 O2_2 1_555 1_555
C28_2 C33_2 1_555 1_555
C32_2 C33_2 1_555 1_555
O4_2 Mn8 1_555 1_555
C34_2 C35_2 1_555 1_555
O6_2 Mn8 1_555 1_555
H11_2 C18_2 1_555 1_555
C19_2 C18_2 1_555 1_555
H12_2 C19_2 1_555 1_555
C20_2 C19_2 1_555 1_555
H13_2 C20_2 1_555 1_555
C21_2 N17 1_555 1_555
C20_2 C21_2 1_555 1_555
N1_2 C4_2 1_555 1_555
N13 C6_2 1_555 1_555
C5_2 C4_2 1_555 1_555
H2_2 C5_2 1_555 1_555
C6_2 N1_2 1_555 1_555
H3_2 C6_2 1_555 1_555
C7_2 N1_2 1_555 1_555
C8_2 C7_2 1_555 1_555
C9_2 C8_2 1_555 1_555
H5_2 C9_2 1_555 1_555
C10_2 C9_2 1_555 1_555
H6_2 C10_2 1_555 1_555
C11_2 C10_2 1_555 1_555
H7_2 C11_2 1_555 1_555
C12_2 N13 1_555 1_555
N3_2 C14_2 1_555 1_555
C14_2 C5_2 1_555 1_555
C15_2 N3_2 1_555 1_555
H9_2 C15_2 1_555 1_555
C16_2 N3_2 1_555 1_555
C17_2 C16_2 1_555 1_555
C7_2 C12_2 1_555 1_555
C11_2 C12_2 1_555 1_555

#END
