
###############################################################################
#
# This file contains modified crystal structure data generated from the
# MOF subset of the Cambridge Structural Database (CSD) v543 
# hosted by the Cambridge Crystallographic Data Centre (CCDC).
#
# This work is licensed under the Creative Commons
# Attribution-NonCommercial-ShareAlike 4.0 International License.
# To view a copy of this license, visit
# http://creativecommons.org/licenses/by-nc-sa/4.0/
# or send a letter to
# Creative Commons, PO Box 1866, Mountain View, CA 94042, USA.
#
# CIF created using the CSD Python API on 29 September 2022
# The structure has been converted into the P1 space group
# The structure has a 3D framework
# The original CSD entry YOYTUD is in the rhombohedral crystal system
# The framework has been calculated to contain at least 10.0% void space
# The void calculation uses a probe of radius 1.32A, grid spacing 0.4
#
###############################################################################

data_YOYTUD
_chemical_formula_moiety         '(C144 H72 Ag17 Fe15 N72)n'
_symmetry_cell_setting           triclinic
_symmetry_space_group_name_H-M   'P 1'
_symmetry_Int_Tables_number      1
_space_group_name_Hall           'P 1'
loop_
_symmetry_equiv_pos_site_id
_symmetry_equiv_pos_as_xyz
1 x,y,z
_cell_length_a                   26.2003(8)
_cell_length_b                   26.2003(8)
_cell_length_c                   9.8014(3)
_cell_angle_alpha                90
_cell_angle_beta                 90
_cell_angle_gamma                120
_cell_volume                     5826.82
loop_
_atom_site_label
_atom_site_type_symbol
_atom_site_fract_x
_atom_site_fract_y
_atom_site_fract_z
Ag1 Ag 0.36940(4) 0.03606(4) 0.3333
Fe1 Fe 0.5000 0.0000 0.0000
N2 N 0.4474(2) 0.0033(3) 0.1378(6)
C5 C 0.4152(3) 0.0087(3) 0.2101(8)
N11 N 0.3366(3) 0.1141(2) 0.5289(6)
C23 C 0.3420(3) 0.0819(3) 0.4566(8)
N21 N 0.5559(4) 0.0033(3) 0.1378(6)
C45 C 0.5935(4) 0.0087(3) 0.2101(8)
Ag10 Ag 0.66666(6) 0.03606(4) 0.3333
Fe6 Fe 0.3333 0.1667 0.6667
Fe1_2 Fe 0.5000 1.0000 0.0000
N1 N 0.45628(18) 0.9126(4) 0.0095(8)
N3 N 0.3937(4) 0.6969(2) 0.0056(8)
C1 C 0.3964(3) 0.8814(3) 0.0104(7)
H1 H 0.3759 0.9019 0.0120
C2 C 0.3652(3) 0.8214(3) 0.0091(7)
H2 H 0.3242 0.8018 0.0093
C3 C 0.3947(2) 0.7894(4) 0.0073(11)
C4 C 0.3621(2) 0.7242(4) 0.0047(10)
N4 N 0.0874(4) 0.54368(44) 0.0095(8)
N5 N 0.3031(2) 0.6968(4) 0.0056(8)
C6 C 0.1186(3) 0.5150(4) 0.0104(7)
H3 H 0.0981 0.4740 0.0120
C7 C 0.1786(3) 0.5438(4) 0.0091(7)
H4 H 0.1982 0.5224 0.0093
C8 C 0.2106(4) 0.6053(4) 0.0073(11)
C9 C 0.2758(4) 0.6379(4) 0.0047(10)
N6 N 0.45632(44) 0.54372(18) 0.0095(8)
N7 N 0.3032(4) 0.6063(4) 0.0056(8)
C10 C 0.4850(4) 0.6036(3) 0.0104(7)
H5 H 0.5260 0.6241 0.0120
C11 C 0.4562(4) 0.6348(3) 0.0091(7)
H6 H 0.4776 0.6758 0.0093
C12 C 0.3947(4) 0.6053(2) 0.0073(11)
C13 C 0.3621(4) 0.6379(2) 0.0047(10)
C14 C 0.1186(3) 0.6036(3) 0.0104(7)
H7 H 0.0981 0.6241 0.0120
C15 C 0.1786(3) 0.6348(3) 0.0091(7)
H8 H 0.1982 0.6758 0.0093
C16 C 0.4850(4) 0.8814(3) 0.0104(7)
H9 H 0.5260 0.9019 0.0120
C17 C 0.4562(4) 0.8214(3) 0.0091(7)
H10 H 0.4776 0.8018 0.0093
C18 C 0.3964(3) 0.5150(4) 0.0104(7)
H11 H 0.3759 0.4740 0.0120
C19 C 0.3652(3) 0.5438(4) 0.0091(7)
H12 H 0.3242 0.5224 0.0093
Fe2 Fe 0.0000 0.5000 0.0000
Fe3 Fe 0.5000 0.5000 0.0000
N9 N 0.5559(4) 0.5526(2) 0.1378(6)
C21 C 0.5935(4) 0.5848(3) 0.2101(8)
N24 N 0.4474(2) 0.4441(4) 0.1378(6)
C48 C 0.4152(3) 0.4065(4) 0.2101(8)
Ag3 Ag 0.66666(6) 0.63060(4) 0.3333
Ag11 Ag 0.36940(4) 0.33334(6) 0.3333
C50 C 0.7398(4) 0.6580(3) 0.4566(8)
Fe2_2 Fe 1.0000 0.5000 0.0000
N8 N 0.9967(3) 0.4441(4) 0.1378(6)
C20 C 0.9913(3) 0.4065(4) 0.2101(8)
N22 N 0.9967(3) 0.5526(2) 0.1378(6)
C46 C 0.9913(3) 0.5848(3) 0.2101(8)
Ag2 Ag 0.96394(4) 0.33334(6) 0.3333
Ag9 Ag 0.96394(4) 0.63060(4) 0.3333
C51 C 0.9181(3) 0.2602(4) 0.4566(8)
N11_2 N 0.8859(2) 0.2226(4) 0.5289(6)
Fe6_2 Fe 0.8333 0.1667 0.6667
N11_3 N 0.7774(4) 0.6634(3) 0.5289(6)
Fe6_3 Fe 0.8333 0.6667 0.6667
C52 C 0.9181(3) 0.6580(3) 0.4566(8)
C53 C 0.7398(4) 0.0819(3) 0.4566(8)
C53_2 C 0.3420(5) 0.2602(4) 0.4566(8)
Ag4 Ag 0.00001(6) 0.29727(4) 1.0000
Ag5 Ag 0.29727(4) 0.29727(4) 1.0000
C52_2 C 0.3246(3) 0.2515(3) 0.8768(8)
Ag8 Ag 0.00001(6) 0.70273(4) 1.0000
Ag4_2 Ag 1.00001(6) 0.29727(4) 1.0000
Ag6 Ag 0.70273(4) -0.00001(6) 1.0000
C49 C 0.9268(4) 0.2515(3) 0.8768(8)
C53_3 C 0.7485(3) 0.0732(4) 0.8768(8)
Ag6_2 Ag 0.70273(4) 0.99999(6) 1.0000
Ag7 Ag 0.70273(4) 0.70273(4) 1.0000
Ag8_2 Ag 1.00001(6) 0.70273(4) 1.0000
Ag7_2 Ag 0.29727(4) -0.00001(6) 1.0000
Ag7_3 Ag 0.29727(4) 0.99999(6) 1.0000
C49_2 C 0.7485(3) 0.6754(5) 0.8768(8)
C53_4 C 0.9268(4) 0.6754(5) 0.8768(8)
C49_3 C 0.3246(5) 0.0732(4) 0.8768(8)
N11_4 N 0.7807(2) 0.6700(3) 0.8045(6)
N11_5 N 0.8892(4) 0.2193(2) 0.8045(6)
N11_6 N 0.3300(3) 0.1108(4) 0.8045(6)
N1_2 N 0.78961(18) 0.5793(4) 0.6762(8)
N3_2 N 0.7270(4) 0.3636(2) 0.6723(8)
C1_2 C 0.7297(3) 0.5481(3) 0.6771(7)
H1_2 H 0.7092 0.5686 0.6787
C2_2 C 0.6985(3) 0.4881(3) 0.6758(7)
H2_2 H 0.6575 0.4685 0.6760
C3_2 C 0.7280(2) 0.4561(4) 0.6740(11)
C4_2 C 0.6954(2) 0.3909(4) 0.6714(10)
N4_2 N 0.4207(4) 0.21035(44) 0.6762(8)
N5_2 N 0.6364(2) 0.3635(4) 0.6723(8)
C6_2 C 0.4519(3) 0.1817(4) 0.6771(7)
H3_2 H 0.4314 0.1407 0.6787
C7_2 C 0.5119(3) 0.2105(4) 0.6758(7)
H4_2 H 0.5315 0.1891 0.6760
C8_2 C 0.5439(4) 0.2720(4) 0.6740(11)
C9_2 C 0.6091(4) 0.3046(4) 0.6714(10)
N6_2 N 0.78965(44) 0.21039(18) 0.6762(8)
N7_2 N 0.6365(4) 0.2730(4) 0.6723(8)
C10_2 C 0.8183(4) 0.2703(3) 0.6771(7)
H5_2 H 0.8593 0.2908 0.6787
C11_2 C 0.7895(4) 0.3015(3) 0.6758(7)
H6_2 H 0.8109 0.3425 0.6760
C12_2 C 0.7280(4) 0.2720(2) 0.6740(11)
C13_2 C 0.6954(4) 0.3046(2) 0.6714(10)
C14_2 C 0.4519(3) 0.2703(3) 0.6771(7)
H7_2 H 0.4314 0.2908 0.6787
C15_2 C 0.5119(3) 0.3015(3) 0.6758(7)
H8_2 H 0.5315 0.3425 0.6760
C16_2 C 0.8183(4) 0.5481(3) 0.6771(7)
H9_2 H 0.8593 0.5686 0.6787
C17_2 C 0.7895(4) 0.4881(3) 0.6758(7)
H10_2 H 0.8109 0.4685 0.6760
C18_2 C 0.7297(3) 0.1817(4) 0.6771(7)
H11_2 H 0.7092 0.1407 0.6787
C19_2 C 0.6985(3) 0.2105(4) 0.6758(7)
H12_2 H 0.6575 0.1891 0.6760
N12 N 0.8859(2) 0.6634(3) 0.5289(6)
N13 N 0.2459(4) 0.12295(18) 0.6572(8)
N14 N 0.3366(3) 0.2226(4) 0.5289(6)
C25 C 0.2147(3) 0.1517(4) 0.6563(7)
H13 H 0.2352 0.1927 0.6547
C26 C 0.1547(3) 0.1229(4) 0.6576(7)
H14 H 0.1351 0.1443 0.6574
C27 C 0.1227(4) 0.0614(2) 0.6594(11)
C28 C 0.0575(4) 0.0288(2) 0.6620(10)
N17 N 0.0302(2) 0.0604(4) 0.6611(8)
H20 H 0.0091 0.1443 0.6574
C40 C 0.2147(3) 0.0631(3) 0.6563(7)
H21 H 0.2352 0.0426 0.6547
C41 C 0.1547(3) 0.0319(3) 0.6576(7)
N20 N 0.7774(4) 0.1141(2) 0.5289(6)
N21_2 N 0.8892(4) 0.6700(3) 0.8045(6)
N22_2 N 0.3300(3) 0.2193(2) 0.8045(6)
N24_2 N 0.7807(2) 0.1108(4) 0.8045(6)
N25 N 0.87701(44) 0.7541(4) 0.6572(8)
N26 N 0.87705(18) 0.12299(44) 0.6572(8)
N15 N 0.0301(4) 0.9698(2) 0.6611(8)
H18 H 0.0091 0.8649 0.6574
H22 H 0.1351 0.9909 0.6574
C30 C 0.8483(4) 0.0631(3) 0.6563(7)
H15 H 0.8073 0.0426 0.6547
C31 C 0.8771(4) 0.0319(3) 0.6576(7)
C32 C 0.9386(2) 0.0614(4) 0.6594(11)
C33 C 0.9712(2) 0.0288(4) 0.6620(10)
C38 C 0.9369(3) 0.1517(4) 0.6563(7)
H19 H 0.9574 0.1927 0.6547
C39 C 0.9681(3) 0.1229(4) 0.6576(7)
H16 H 0.8557 0.9909 0.6574
N19 N 0.9396(4) 0.9699(4) 0.6611(8)
C34 C 0.9369(3) 0.7853(3) 0.6563(7)
H17 H 0.9574 0.7648 0.6547
C35 C 0.9681(3) 0.8453(3) 0.6576(7)
C36 C 0.9386(4) 0.8773(4) 0.6594(11)
C37 C 0.9712(4) 0.9425(4) 0.6620(10)
C42 C 0.8483(4) 0.7853(3) 0.6563(7)
H23 H 0.8073 0.7648 0.6547
C43 C 0.8771(4) 0.8453(3) 0.6576(7)
H24 H 0.8557 0.8649 0.6574
Fe1_3 Fe 0.5000 0.0000 1.0000
N25_2 N 0.54368(44) 0.0874(4) 0.9905(8)
Fe1_4 Fe 0.5000 1.0000 1.0000
Fe2_3 Fe 0.0000 0.5000 1.0000
Fe3_2 Fe 0.5000 0.5000 1.0000
N10 N 0.4441(4) 0.9967(3) 0.8622(6)
C22 C 0.4065(4) 0.9913(3) 0.7899(8)
N12_2 N 0.5526(2) 0.9967(3) 0.8622(6)
C24 C 0.5848(3) 0.9913(3) 0.7899(8)
N14_2 N 0.0033(3) 0.5559(4) 0.8622(6)
C29 C 0.0087(3) 0.5935(4) 0.7899(8)
N20_2 N 0.4441(4) 0.4474(2) 0.8622(6)
C44 C 0.4065(4) 0.4152(3) 0.7899(8)
N23 N 0.0033(3) 0.4474(2) 0.8622(6)
C47 C 0.0087(3) 0.4152(3) 0.7899(8)
Ag4_3 Ag 0.33334(6) 0.96394(4) 0.6667
Ag5_2 Ag 0.63060(4) 0.96394(4) 0.6667
Ag6_3 Ag 0.03606(4) 0.66666(6) 0.6667
Ag7_4 Ag 0.03606(4) 0.36940(4) 0.6667
Ag8_3 Ag 0.33334(6) 0.36940(4) 0.6667
N26_2 N 0.54372(18) 0.45632(44) 0.9905(8)
N27 N 0.5526(2) 0.5559(4) 0.8622(6)
C49_4 C 0.2602(4) 0.9181(3) 0.5434(8)
C52_3 C 0.6580(3) 0.9181(3) 0.5434(8)
C53_5 C 0.0819(3) 0.7398(4) 0.5434(8)
Fe2_4 Fe 1.0000 0.5000 1.0000
N13_2 N 0.9126(4) 0.45628(18) 0.9905(8)
N15_2 N 0.6968(4) 0.3031(2) 0.9944(8)
C25_2 C 0.8814(3) 0.4850(4) 0.9896(7)
H13_2 H 0.9019 0.5260 0.9880
C26_2 C 0.8214(3) 0.4562(4) 0.9909(7)
H14_2 H 0.8018 0.4776 0.9907
C27_2 C 0.7894(4) 0.3947(2) 0.9927(11)
C28_2 C 0.7242(4) 0.3621(2) 0.9953(10)
N17_2 N 0.6969(2) 0.3937(4) 0.9944(8)
C30_2 C 0.5150(4) 0.3964(3) 0.9896(7)
H15_2 H 0.4740 0.3759 0.9880
C31_2 C 0.5438(4) 0.3652(3) 0.9909(7)
H16_2 H 0.5224 0.3242 0.9907
C32_2 C 0.6053(2) 0.3947(4) 0.9927(11)
C33_2 C 0.6379(2) 0.3621(4) 0.9953(10)
N19_2 N 0.6063(4) 0.3032(4) 0.9944(8)
C34_2 C 0.6036(3) 0.1186(3) 0.9896(7)
H17_2 H 0.6241 0.0981 0.9880
C35_2 C 0.6348(3) 0.1786(3) 0.9909(7)
H18_2 H 0.6758 0.1982 0.9907
C36_2 C 0.6053(4) 0.2106(4) 0.9927(11)
C37_2 C 0.6379(4) 0.2758(4) 0.9953(10)
C38_2 C 0.6036(3) 0.4850(4) 0.9896(7)
H19_2 H 0.6241 0.5260 0.9880
C39_2 C 0.6348(3) 0.4562(4) 0.9909(7)
H20_2 H 0.6758 0.4776 0.9907
C40_2 C 0.8814(3) 0.3964(3) 0.9896(7)
H21_2 H 0.9019 0.3759 0.9880
C41_2 C 0.8214(3) 0.3652(3) 0.9909(7)
H22_2 H 0.8018 0.3242 0.9907
C42_2 C 0.5150(4) 0.1186(3) 0.9896(7)
H23_2 H 0.4740 0.0981 0.9880
C43_2 C 0.5438(4) 0.1786(3) 0.9909(7)
H24_2 H 0.5224 0.1982 0.9907
C47_2 C 0.5848(3) 0.5935(4) 0.7899(8)
Ag7_5 Ag 0.63060(4) 0.66666(6) 0.6667
C49_5 C 0.0819(3) 0.3420(5) 0.5434(8)
C53_6 C 0.2602(4) 0.3420(5) 0.5434(8)
C49_6 C 0.6580(5) 0.7398(4) 0.5434(8)
N11_7 N 0.1141(2) 0.3366(3) 0.4711(6)
Fe6_4 Fe 0.1667 0.3333 0.3333
N11_8 N 0.2226(4) 0.8859(2) 0.4711(6)
Fe6_5 Fe 0.1667 0.8333 0.3333
N11_9 N 0.6634(3) 0.7774(4) 0.4711(6)
Fe6_6 Fe 0.6667 0.8333 0.3333
N1_3 N 0.12295(18) 0.2459(4) 0.3428(8)
N3_3 N 0.0604(4) 0.0302(2) 0.3389(8)
C1_3 C 0.0631(3) 0.2147(3) 0.3437(7)
H1_3 H 0.0426 0.2352 0.3453
C2_3 C 0.0319(3) 0.1547(3) 0.3424(7)
C3_3 C 0.0614(2) 0.1227(4) 0.3406(11)
C4_3 C 0.0288(2) 0.0575(4) 0.3380(10)
H6_3 H 0.1443 0.0091 0.3426
C16_3 C 0.1517(4) 0.2147(3) 0.3437(7)
H9_3 H 0.1927 0.2352 0.3453
C17_3 C 0.1229(4) 0.1547(3) 0.3424(7)
H10_3 H 0.1443 0.1351 0.3426
N10_2 N 0.1108(4) 0.3300(3) 0.1955(6)
C22_2 C 0.0732(4) 0.3246(3) 0.1232(8)
N12_3 N 0.2193(2) 0.3300(3) 0.1955(6)
C24_2 C 0.2515(3) 0.3246(3) 0.1232(8)
N21_3 N 0.2226(4) 0.3366(3) 0.4711(6)
Ag4_4 Ag 0.00001(6) 0.29727(4) 0.0000
Ag5_3 Ag 0.29727(4) 0.29727(4) 0.0000
N25_3 N 0.21035(44) 0.4207(4) 0.3238(8)
N6_3 N 0.12299(44) 0.87705(18) 0.3428(8)
C10_3 C 0.1517(4) 0.9369(3) 0.3437(7)
H5_3 H 0.1927 0.9574 0.3453
C11_3 C 0.1229(4) 0.9681(3) 0.3424(7)
C12_3 C 0.0614(4) 0.9386(2) 0.3406(11)
C13_3 C 0.0288(4) 0.9712(2) 0.3380(10)
C18_3 C 0.0631(3) 0.8483(4) 0.3437(7)
H11_3 H 0.0426 0.8073 0.3453
C19_3 C 0.0319(3) 0.8771(4) 0.3424(7)
N20_3 N 0.1108(4) 0.7807(2) 0.1955(6)
C44_2 C 0.0732(4) 0.7485(3) 0.1232(8)
N24_3 N 0.1141(2) 0.7774(4) 0.4711(6)
Ag8_4 Ag 0.00001(6) 0.70273(4) 0.0000
N26_3 N 0.21039(18) 0.78965(44) 0.3238(8)
N27_2 N 0.2193(2) 0.8892(4) 0.1955(6)
H2_3 H 0.9909 0.1351 0.3426
N5_3 N 0.9698(2) 0.0301(4) 0.3389(8)
H8_3 H 0.8649 0.0091 0.3426
Ag4_5 Ag 1.00001(6) 0.29727(4) 0.0000
Ag6_4 Ag 0.70273(4) -0.00001(6) 0.0000
N4_3 N 0.7541(4) 0.87701(44) 0.3428(8)
C6_3 C 0.7853(3) 0.8483(4) 0.3437(7)
H3_3 H 0.7648 0.8073 0.3453
C7_3 C 0.8453(3) 0.8771(4) 0.3424(7)
H4_3 H 0.8649 0.8557 0.3426
C8_3 C 0.8773(4) 0.9386(4) 0.3406(11)
C9_3 C 0.9425(4) 0.9712(4) 0.3380(10)
N7_3 N 0.9699(4) 0.9396(4) 0.3389(8)
C14_3 C 0.7853(3) 0.9369(3) 0.3437(7)
H7_3 H 0.7648 0.9574 0.3453
C15_3 C 0.8453(3) 0.9681(3) 0.3424(7)
H12_3 H 0.9909 0.8557 0.3426
N13_3 N 0.5793(4) 0.78961(18) 0.3238(8)
N14_3 N 0.6700(3) 0.8892(4) 0.1955(6)
N15_3 N 0.3635(4) 0.6364(2) 0.3277(8)
C25_3 C 0.5481(3) 0.8183(4) 0.3229(7)
H13_3 H 0.5686 0.8593 0.3213
C26_3 C 0.4881(3) 0.7895(4) 0.3242(7)
H14_3 H 0.4685 0.8109 0.3240
C27_3 C 0.4561(4) 0.7280(2) 0.3260(11)
C28_3 C 0.3909(4) 0.6954(2) 0.3286(10)
C29_2 C 0.6754(3) 0.9268(4) 0.1232(8)
N17_3 N 0.3636(2) 0.7270(4) 0.3277(8)
C30_3 C 0.1817(4) 0.7297(3) 0.3229(7)
H15_3 H 0.1407 0.7092 0.3213
C31_3 C 0.2105(4) 0.6985(3) 0.3242(7)
H16_3 H 0.1891 0.6575 0.3240
C32_3 C 0.2720(2) 0.7280(4) 0.3260(11)
C33_3 C 0.3046(2) 0.6954(4) 0.3286(10)
N19_3 N 0.2730(4) 0.6365(4) 0.3277(8)
C34_3 C 0.2703(3) 0.4519(3) 0.3229(7)
H17_3 H 0.2908 0.4314 0.3213
C35_3 C 0.3015(3) 0.5119(3) 0.3242(7)
H18_3 H 0.3425 0.5315 0.3240
C36_3 C 0.2720(4) 0.5439(4) 0.3260(11)
C37_3 C 0.3046(4) 0.6091(4) 0.3286(10)
C38_3 C 0.2703(3) 0.8183(4) 0.3229(7)
H19_3 H 0.2908 0.8593 0.3213
C39_3 C 0.3015(3) 0.7895(4) 0.3242(7)
H20_3 H 0.3425 0.8109 0.3240
C40_3 C 0.5481(3) 0.7297(3) 0.3229(7)
H21_3 H 0.5686 0.7092 0.3213
C41_3 C 0.4881(3) 0.6985(3) 0.3242(7)
H22_3 H 0.4685 0.6575 0.3240
C42_3 C 0.1817(4) 0.4519(3) 0.3229(7)
H23_3 H 0.1407 0.4314 0.3213
C43_3 C 0.2105(4) 0.5119(3) 0.3242(7)
H24_3 H 0.1891 0.5315 0.3240
N22_3 N 0.6634(3) 0.8859(2) 0.4711(6)
N23_2 N 0.6700(3) 0.7807(2) 0.1955(6)
C47_3 C 0.6754(3) 0.7485(3) 0.1232(8)
Ag6_5 Ag 0.70273(4) 0.99999(6) 0.0000
Ag7_6 Ag 0.70273(4) 0.70273(4) 0.0000
Ag8_5 Ag 1.00001(6) 0.70273(4) 0.0000
Ag7_7 Ag 0.29727(4) -0.00001(6) 0.0000
C47_4 C 0.2515(3) 0.9268(4) 0.1232(8)
Ag7_8 Ag 0.29727(4) 0.99999(6) 0.0000
loop_
_geom_bond_atom_site_label_1
_geom_bond_atom_site_label_2
_geom_bond_site_symmetry_1
_geom_bond_site_symmetry_2
Ag1 C5 1_555 1_555
N2 Fe1 1_555 1_555
C5 N2 1_555 1_555
N11 C23 1_555 1_555
C23 Ag1 1_555 1_555
N21 Fe1 1_555 1_555
C45 N21 1_555 1_555
Ag10 C45 1_555 1_555
Fe6 N11 1_555 1_555
Fe1_2 N1 1_555 1_555
N1 C1 1_555 1_555
N3 C4 1_555 1_555
C1 H1 1_555 1_555
C2 C1 1_555 1_555
H2 C2 1_555 1_555
C3 C2 1_555 1_555
C4 C3 1_555 1_555
N4 C6 1_555 1_555
N5 C4 1_555 1_555
C6 H3 1_555 1_555
C7 C6 1_555 1_555
H4 C7 1_555 1_555
C8 C7 1_555 1_555
C9 N5 1_555 1_555
N6 C10 1_555 1_555
N7 C9 1_555 1_555
C10 H5 1_555 1_555
C11 C10 1_555 1_555
H6 C11 1_555 1_555
C12 C11 1_555 1_555
C13 N3 1_555 1_555
C14 N4 1_555 1_555
H7 C14 1_555 1_555
C15 C8 1_555 1_555
H8 C15 1_555 1_555
C16 N1 1_555 1_555
H9 C16 1_555 1_555
C17 C3 1_555 1_555
H10 C17 1_555 1_555
C18 N6 1_555 1_555
H11 C18 1_555 1_555
C19 C12 1_555 1_555
H12 C19 1_555 1_555
Fe2 N4 1_555 1_555
Fe3 N6 1_555 1_555
N9 Fe3 1_555 1_555
C21 N9 1_555 1_555
N24 Fe3 1_555 1_555
C48 N24 1_555 1_555
Ag3 C21 1_555 1_555
Ag11 C48 1_555 1_555
C50 Ag3 1_555 1_555
C8 C9 1_555 1_555
N7 C13 1_555 1_555
C12 C13 1_555 1_555
C14 C15 1_555 1_555
C16 C17 1_555 1_555
C18 C19 1_555 1_555
N8 Fe2_2 1_555 1_555
C20 N8 1_555 1_555
N22 Fe2_2 1_555 1_555
C46 N22 1_555 1_555
Ag2 C20 1_555 1_555
Ag9 C46 1_555 1_555
C51 Ag2 1_555 1_555
N11_2 C51 1_555 1_555
Fe6_2 N11_2 1_555 1_555
N11_3 C50 1_555 1_555
Fe6_3 N11_3 1_555 1_555
C52 Ag9 1_555 1_555
C53 Ag10 1_555 1_555
C53_2 Ag11 1_555 1_555
C52_2 Ag5 1_555 1_555
C49 Ag4_2 1_555 1_555
C53_3 Ag6 1_555 1_555
C49_2 Ag7 1_555 1_555
C53_4 Ag8_2 1_555 1_555
C49_3 Ag7_2 1_555 1_555
N11_4 C49_2 1_555 1_555
Fe6_3 N11_4 1_555 1_555
N11_5 C49 1_555 1_555
Fe6_2 N11_5 1_555 1_555
N11_6 C49_3 1_555 1_555
Fe6 N11_6 1_555 1_555
Fe6_3 N1_2 1_555 1_555
N1_2 C1_2 1_555 1_555
N3_2 C4_2 1_555 1_555
C1_2 H1_2 1_555 1_555
C2_2 C1_2 1_555 1_555
H2_2 C2_2 1_555 1_555
C3_2 C2_2 1_555 1_555
C4_2 C3_2 1_555 1_555
N4_2 C6_2 1_555 1_555
N5_2 C4_2 1_555 1_555
C6_2 H3_2 1_555 1_555
C7_2 C6_2 1_555 1_555
H4_2 C7_2 1_555 1_555
C8_2 C7_2 1_555 1_555
C9_2 N5_2 1_555 1_555
N6_2 C10_2 1_555 1_555
N7_2 C9_2 1_555 1_555
C10_2 H5_2 1_555 1_555
C11_2 C10_2 1_555 1_555
H6_2 C11_2 1_555 1_555
C12_2 C11_2 1_555 1_555
C13_2 N3_2 1_555 1_555
C14_2 N4_2 1_555 1_555
H7_2 C14_2 1_555 1_555
C15_2 C8_2 1_555 1_555
H8_2 C15_2 1_555 1_555
C16_2 N1_2 1_555 1_555
H9_2 C16_2 1_555 1_555
C17_2 C3_2 1_555 1_555
H10_2 C17_2 1_555 1_555
C18_2 N6_2 1_555 1_555
H11_2 C18_2 1_555 1_555
C19_2 C12_2 1_555 1_555
H12_2 C19_2 1_555 1_555
Fe6 N4_2 1_555 1_555
Fe6_2 N6_2 1_555 1_555
N12 Fe6_3 1_555 1_555
C52 N12 1_555 1_555
N13 Fe6 1_555 1_555
N14 Fe6 1_555 1_555
C25 N13 1_555 1_555
H13 C25 1_555 1_555
C26 C25 1_555 1_555
H14 C26 1_555 1_555
C27 C26 1_555 1_555
C28 C27 1_555 1_555
C53_2 N14 1_555 1_555
N17 C28 1_555 1_555
C40 N13 1_555 1_555
H21 C40 1_555 1_555
C41 C27 1_555 1_555
N20 Fe6_2 1_555 1_555
C53 N20 1_555 1_555
N21_2 Fe6_3 1_555 1_555
C53_4 N21_2 1_555 1_555
N22_2 Fe6 1_555 1_555
C52_2 N22_2 1_555 1_555
N24_2 Fe6_2 1_555 1_555
C53_3 N24_2 1_555 1_555
N25 Fe6_3 1_555 1_555
N26 Fe6_2 1_555 1_555
C8_2 C9_2 1_555 1_555
N7_2 C13_2 1_555 1_555
C12_2 C13_2 1_555 1_555
C14_2 C15_2 1_555 1_555
C16_2 C17_2 1_555 1_555
C18_2 C19_2 1_555 1_555
C40 C41 1_555 1_555
N26 C30 1_555 1_555
C30 H15 1_555 1_555
C31 C30 1_555 1_555
C32 C31 1_555 1_555
C38 N26 1_555 1_555
H19 C38 1_555 1_555
C39 C32 1_555 1_555
C32 C33 1_555 1_555
C38 C39 1_555 1_555
N25 C34 1_555 1_555
C34 H17 1_555 1_555
C35 C34 1_555 1_555
C36 C35 1_555 1_555
C42 N25 1_555 1_555
H23 C42 1_555 1_555
C43 C36 1_555 1_555
H24 C43 1_555 1_555
N19 C37 1_555 1_555
C36 C37 1_555 1_555
C42 C43 1_555 1_555
N25_2 Fe1_3 1_555 1_555
N10 Fe1_4 1_555 1_555
C22 N10 1_555 1_555
N12_2 Fe1_4 1_555 1_555
C24 N12_2 1_555 1_555
N14_2 Fe2_3 1_555 1_555
C29 N14_2 1_555 1_555
N20_2 Fe3_2 1_555 1_555
C44 N20_2 1_555 1_555
N23 Fe2_3 1_555 1_555
C47 N23 1_555 1_555
Ag4_3 C22 1_555 1_555
Ag5_2 C24 1_555 1_555
Ag6_3 C29 1_555 1_555
Ag7_4 C47 1_555 1_555
Ag8_3 C44 1_555 1_555
N26_2 Fe3_2 1_555 1_555
N27 Fe3_2 1_555 1_555
C49_4 Ag4_3 1_555 1_555
C52_3 Ag5_2 1_555 1_555
C53_5 Ag6_3 1_555 1_555
N13_2 Fe2_4 1_555 1_555
N15_2 C28_2 1_555 1_555
C25_2 N13_2 1_555 1_555
H13_2 C25_2 1_555 1_555
C26_2 C25_2 1_555 1_555
H14_2 C26_2 1_555 1_555
C27_2 C26_2 1_555 1_555
C28_2 C27_2 1_555 1_555
N26_2 C30_2 1_555 1_555
N17_2 C28_2 1_555 1_555
C30_2 H15_2 1_555 1_555
C31_2 C30_2 1_555 1_555
H16_2 C31_2 1_555 1_555
C32_2 C31_2 1_555 1_555
C33_2 N17_2 1_555 1_555
N25_2 C34_2 1_555 1_555
N19_2 C33_2 1_555 1_555
C34_2 H17_2 1_555 1_555
C35_2 C34_2 1_555 1_555
H18_2 C35_2 1_555 1_555
C36_2 C35_2 1_555 1_555
C37_2 N15_2 1_555 1_555
C38_2 N26_2 1_555 1_555
H19_2 C38_2 1_555 1_555
C39_2 C32_2 1_555 1_555
H20_2 C39_2 1_555 1_555
C40_2 N13_2 1_555 1_555
H21_2 C40_2 1_555 1_555
C41_2 C27_2 1_555 1_555
H22_2 C41_2 1_555 1_555
C42_2 N25_2 1_555 1_555
H23_2 C42_2 1_555 1_555
C43_2 C36_2 1_555 1_555
H24_2 C43_2 1_555 1_555
C32_2 C33_2 1_555 1_555
N19_2 C37_2 1_555 1_555
C36_2 C37_2 1_555 1_555
C38_2 C39_2 1_555 1_555
C40_2 C41_2 1_555 1_555
C42_2 C43_2 1_555 1_555
C47_2 N27 1_555 1_555
Ag7_5 C47_2 1_555 1_555
C49_5 Ag7_4 1_555 1_555
C53_6 Ag8_3 1_555 1_555
C49_6 Ag7_5 1_555 1_555
N11_7 C49_5 1_555 1_555
Fe6_4 N11_7 1_555 1_555
N11_8 C49_4 1_555 1_555
Fe6_5 N11_8 1_555 1_555
N11_9 C49_6 1_555 1_555
Fe6_6 N11_9 1_555 1_555
Fe6_4 N1_3 1_555 1_555
N1_3 C1_3 1_555 1_555
N3_3 C4_3 1_555 1_555
C1_3 H1_3 1_555 1_555
C2_3 C1_3 1_555 1_555
C3_3 C2_3 1_555 1_555
C4_3 C3_3 1_555 1_555
C16_3 N1_3 1_555 1_555
H9_3 C16_3 1_555 1_555
C17_3 C3_3 1_555 1_555
H10_3 C17_3 1_555 1_555
N10_2 Fe6_4 1_555 1_555
C22_2 N10_2 1_555 1_555
N12_3 Fe6_4 1_555 1_555
C24_2 N12_3 1_555 1_555
N21_3 Fe6_4 1_555 1_555
C53_6 N21_3 1_555 1_555
Ag4_4 C22_2 1_555 1_555
Ag5_3 C24_2 1_555 1_555
N25_3 Fe6_4 1_555 1_555
C16_3 C17_3 1_555 1_555
N6_3 C10_3 1_555 1_555
C10_3 H5_3 1_555 1_555
C11_3 C10_3 1_555 1_555
C12_3 C11_3 1_555 1_555
C18_3 N6_3 1_555 1_555
H11_3 C18_3 1_555 1_555
C19_3 C12_3 1_555 1_555
Fe6_5 N6_3 1_555 1_555
N20_3 Fe6_5 1_555 1_555
C44_2 N20_3 1_555 1_555
N24_3 Fe6_5 1_555 1_555
C53_5 N24_3 1_555 1_555
Ag8_4 C44_2 1_555 1_555
N26_3 Fe6_5 1_555 1_555
N27_2 Fe6_5 1_555 1_555
C12_3 C13_3 1_555 1_555
C18_3 C19_3 1_555 1_555
N4_3 C6_3 1_555 1_555
C6_3 H3_3 1_555 1_555
C7_3 C6_3 1_555 1_555
H4_3 C7_3 1_555 1_555
C8_3 C7_3 1_555 1_555
N7_3 C9_3 1_555 1_555
C14_3 N4_3 1_555 1_555
H7_3 C14_3 1_555 1_555
C15_3 C8_3 1_555 1_555
Fe6_6 N4_3 1_555 1_555
N13_3 Fe6_6 1_555 1_555
N14_3 Fe6_6 1_555 1_555
N15_3 C28_3 1_555 1_555
C25_3 N13_3 1_555 1_555
H13_3 C25_3 1_555 1_555
C26_3 C25_3 1_555 1_555
H14_3 C26_3 1_555 1_555
C27_3 C26_3 1_555 1_555
C28_3 C27_3 1_555 1_555
C29_2 N14_3 1_555 1_555
N26_3 C30_3 1_555 1_555
N17_3 C28_3 1_555 1_555
C30_3 H15_3 1_555 1_555
C31_3 C30_3 1_555 1_555
H16_3 C31_3 1_555 1_555
C32_3 C31_3 1_555 1_555
C33_3 N17_3 1_555 1_555
N25_3 C34_3 1_555 1_555
N19_3 C33_3 1_555 1_555
C34_3 H17_3 1_555 1_555
C35_3 C34_3 1_555 1_555
H18_3 C35_3 1_555 1_555
C36_3 C35_3 1_555 1_555
C37_3 N15_3 1_555 1_555
C38_3 N26_3 1_555 1_555
H19_3 C38_3 1_555 1_555
C39_3 C32_3 1_555 1_555
H20_3 C39_3 1_555 1_555
C40_3 N13_3 1_555 1_555
H21_3 C40_3 1_555 1_555
C41_3 C27_3 1_555 1_555
H22_3 C41_3 1_555 1_555
C42_3 N25_3 1_555 1_555
H23_3 C42_3 1_555 1_555
C43_3 C36_3 1_555 1_555
H24_3 C43_3 1_555 1_555
N22_3 Fe6_6 1_555 1_555
C52_3 N22_3 1_555 1_555
N23_2 Fe6_6 1_555 1_555
C47_3 N23_2 1_555 1_555
Ag6_5 C29_2 1_555 1_555
Ag7_6 C47_3 1_555 1_555
C8_3 C9_3 1_555 1_555
C14_3 C15_3 1_555 1_555
C32_3 C33_3 1_555 1_555
N19_3 C37_3 1_555 1_555
C36_3 C37_3 1_555 1_555
C38_3 C39_3 1_555 1_555
C40_3 C41_3 1_555 1_555
C42_3 C43_3 1_555 1_555
C47_4 N27_2 1_555 1_555
Ag7_8 C47_4 1_555 1_555

#END
