
###############################################################################
#
# This file contains modified crystal structure data generated from the
# MOF subset of the Cambridge Structural Database (CSD) v543 
# hosted by the Cambridge Crystallographic Data Centre (CCDC).
#
# This work is licensed under the Creative Commons
# Attribution-NonCommercial-ShareAlike 4.0 International License.
# To view a copy of this license, visit
# http://creativecommons.org/licenses/by-nc-sa/4.0/
# or send a letter to
# Creative Commons, PO Box 1866, Mountain View, CA 94042, USA.
#
# CIF created using the CSD Python API on 29 September 2022
# The structure has been converted into the P1 space group
# The structure has a 3D framework
# The original CSD entry YOYTOX is in the rhombohedral crystal system
# The framework has been calculated to contain at least 10.0% void space
# The void calculation uses a probe of radius 1.32A, grid spacing 0.4
#
###############################################################################

data_YOYTOX
_chemical_formula_moiety         '(C141 H72 Ag17 Fe16 N72)n'
_symmetry_cell_setting           triclinic
_symmetry_space_group_name_H-M   'P 1'
_symmetry_Int_Tables_number      1
_space_group_name_Hall           'P 1'
loop_
_symmetry_equiv_pos_site_id
_symmetry_equiv_pos_as_xyz
1 x,y,z
_cell_length_a                   26.8913(12)
_cell_length_b                   26.8913(12)
_cell_length_c                   10.0069(7)
_cell_angle_alpha                90
_cell_angle_beta                 90
_cell_angle_gamma                120
_cell_volume                     6266.91
loop_
_atom_site_label
_atom_site_type_symbol
_atom_site_fract_x
_atom_site_fract_y
_atom_site_fract_z
Fe4 Fe 0.0000 0.5000 0.0000
Ag1 Ag 0.36885(4) 0.03552(4) 0.3333
Fe1 Fe 0.5000 0.0000 0.0000
C5 C 0.4118(3) 0.0081(3) 0.2124(8)
N17 N 0.3332(2) 0.1083(2) 0.5199(6)
C41 C 0.3414(3) 0.0785(3) 0.4543(8)
C45 C 0.5963(4) 0.0081(3) 0.2124(8)
Ag9 Ag 0.66667(6) 0.03552(4) 0.3333
Fe4_2 Fe 1.0000 0.5000 0.0000
Fe5 Fe 0.5000 0.5000 0.0000
Fe6 Fe 0.3333 0.1667 0.6667
Fe1_2 Fe 0.5000 1.0000 0.0000
N1 N 0.45273(12) 0.9055(2) 0.0036(7)
N2 N 0.4416(2) 0.9999(2) 0.1468(6)
N3 N 0.30397(13) 0.69603(13) 0.0026(6)
C1 C 0.4799(2) 0.8757(2) 0.0039(8)
H1 H 0.5198 0.8957 0.0045
C2 C 0.4520(2) 0.8166(2) 0.0035(8)
H2 H 0.4729 0.7976 0.0040
C3 C 0.39297(14) 0.7859(3) 0.0022(8)
C4 C 0.36136(14) 0.7227(3) 0.0017(7)
N4 N 0.0945(2) 0.54723(23) 0.0036(7)
N5 N 0.30397(13) 0.60794(18) 0.0026(6)
C6 C 0.1243(2) 0.6042(3) 0.0039(8)
H3 H 0.1043 0.6241 0.0045
C7 C 0.1834(2) 0.6354(3) 0.0035(8)
H4 H 0.2024 0.6753 0.0040
C8 C 0.2141(3) 0.60707(33) 0.0022(8)
C9 C 0.2773(3) 0.63866(33) 0.0017(7)
N6 N 0.45277(23) 0.54727(12) 0.0036(7)
N7 N 0.39206(18) 0.69603(13) 0.0026(6)
C10 C 0.3958(3) 0.5201(2) 0.0039(8)
H5 H 0.3759 0.4802 0.0045
C11 C 0.3646(3) 0.5480(2) 0.0035(8)
H6 H 0.3247 0.5271 0.0040
C12 C 0.39293(33) 0.60703(14) 0.0022(8)
C13 C 0.36134(33) 0.63864(14) 0.0017(7)
C14 C 0.3958(3) 0.8757(2) 0.0039(8)
H7 H 0.3759 0.8957 0.0045
C15 C 0.3646(3) 0.8166(2) 0.0035(8)
H8 H 0.3247 0.7976 0.0040
C16 C 0.4799(2) 0.6042(3) 0.0039(8)
H9 H 0.5198 0.6241 0.0045
C17 C 0.4520(2) 0.6354(3) 0.0035(8)
H10 H 0.4729 0.6753 0.0040
C18 C 0.1243(2) 0.5201(2) 0.0039(8)
H11 H 0.1043 0.4802 0.0045
C19 C 0.1834(2) 0.5480(2) 0.0035(8)
H12 H 0.2024 0.5271 0.0040
N8 N 0.0001(2) 0.4417(3) 0.1468(6)
N9 N 0.5583(3) 0.5584(2) 0.1468(6)
C21 C 0.5963(4) 0.5882(3) 0.2124(8)
N21 N 0.5583(3) 0.9999(2) 0.1468(6)
N22 N 0.0001(2) 0.5584(2) 0.1468(6)
N24 N 0.4416(2) 0.4417(3) 0.1468(6)
C48 C 0.4118(3) 0.4037(4) 0.2124(8)
Ag3 Ag 0.66667(6) 0.63115(4) 0.3333
Ag10 Ag 0.36885(4) 0.33333(6) 0.3333
C50 C 0.7370(4) 0.6586(3) 0.4543(8)
C20 C 0.9919(3) 0.4037(4) 0.2124(8)
C46 C 0.9919(3) 0.5882(3) 0.2124(8)
Ag2 Ag 0.96448(4) 0.33333(6) 0.3333
Ag11 Ag 0.96448(4) 0.63115(4) 0.3333
C51 C 0.9215(3) 0.2630(4) 0.4543(8)
N17_2 N 0.8917(2) 0.2250(3) 0.5199(6)
Fe6_2 Fe 0.8333 0.1667 0.6667
N17_3 N 0.7750(3) 0.6668(2) 0.5199(6)
Fe6_3 Fe 0.8333 0.6667 0.6667
C52 C 0.3414(5) 0.2630(4) 0.4543(8)
C53 C 0.7370(4) 0.0785(3) 0.4543(8)
C52_2 C 0.9215(3) 0.6586(5) 0.4543(8)
Ag4 Ag -0.00000(6) 0.29781(4) 1.0000
Ag5 Ag 0.29782(4) 0.29781(4) 1.0000
C53_2 C 0.3252(3) 0.2549(3) 0.8791(8)
Ag8 Ag -0.00000(6) 0.70218(4) 1.0000
Ag4_2 Ag 1.00000(6) 0.29781(4) 1.0000
Ag6 Ag 0.70219(4) 0.00000(6) 1.0000
C49 C 0.9296(4) 0.2549(3) 0.8791(8)
C52_3 C 0.7451(3) 0.0704(4) 0.8791(8)
Ag6_2 Ag 0.70219(4) 1.00000(6) 1.0000
Ag7 Ag 0.70219(4) 0.70218(4) 1.0000
Ag8_2 Ag 1.00000(6) 0.70218(4) 1.0000
Ag7_2 Ag 0.29782(4) 0.00000(6) 1.0000
Ag7_3 Ag 0.29782(4) 1.00000(6) 1.0000
C49_2 C 0.7451(3) 0.6748(5) 0.8791(8)
C52_4 C 0.9296(4) 0.6748(5) 0.8791(8)
C49_3 C 0.3252(5) 0.0704(4) 0.8791(8)
N17_4 N 0.8916(3) 0.2251(2) 0.8135(6)
N17_5 N 0.3334(2) 0.1084(3) 0.8135(6)
N17_6 N 0.7749(2) 0.6666(2) 0.8135(6)
N14 N 0.02936(13) 0.05873(18) 0.6641(6)
N15 N 0.2388(2) 0.11940(12) 0.6631(7)
C31 C 0.2090(2) 0.1466(2) 0.6628(8)
H17 H 0.2290 0.1865 0.6622
C32 C 0.1499(2) 0.1187(2) 0.6632(8)
H18 H 0.1309 0.1396 0.6627
C33 C 0.1192(3) 0.05964(14) 0.6645(8)
C34 C 0.0560(3) 0.02803(14) 0.6650(7)
C37 C 0.2090(2) 0.0625(3) 0.6628(8)
H21 H 0.2290 0.0426 0.6622
C38 C 0.1499(2) 0.0313(3) 0.6632(8)
H24 H 0.0086 0.1396 0.6627
H14 H 0.0086 0.8691 0.6627
N16 N 0.02936(13) 0.97064(13) 0.6641(6)
H22 H 0.1309 0.9914 0.6627
N13 N 0.88060(12) 0.11944(23) 0.6631(7)
C27 C 0.8534(2) 0.0625(3) 0.6628(8)
H15 H 0.8135 0.0426 0.6622
C28 C 0.8813(2) 0.0313(3) 0.6632(8)
C29 C 0.94036(14) 0.05960(33) 0.6645(8)
C30 C 0.97197(14) 0.02801(33) 0.6650(7)
C39 C 0.9375(3) 0.1466(2) 0.6628(8)
H23 H 0.9574 0.1865 0.6622
C40 C 0.9687(3) 0.1187(2) 0.6632(8)
N1_2 N 0.78606(12) 0.5722(2) 0.6703(7)
N3_2 N 0.63730(13) 0.36270(13) 0.6693(6)
C1_2 C 0.8132(2) 0.5424(2) 0.6706(8)
H1_2 H 0.8531 0.5624 0.6712
C2_2 C 0.7853(2) 0.4833(2) 0.6702(8)
H2_2 H 0.8062 0.4643 0.6707
C3_2 C 0.72630(14) 0.4526(3) 0.6689(8)
C4_2 C 0.69469(14) 0.3894(3) 0.6684(7)
N4_2 N 0.4278(2) 0.21390(23) 0.6703(7)
N5_2 N 0.63730(13) 0.27461(18) 0.6693(6)
C6_2 C 0.4576(2) 0.2709(3) 0.6706(8)
H3_2 H 0.4376 0.2908 0.6712
C7_2 C 0.5167(2) 0.3021(3) 0.6702(8)
H4_2 H 0.5357 0.3420 0.6707
C8_2 C 0.5474(3) 0.27374(33) 0.6689(8)
C9_2 C 0.6106(3) 0.30533(33) 0.6684(7)
N6_2 N 0.78610(23) 0.21394(12) 0.6703(7)
N7_2 N 0.72539(18) 0.36270(13) 0.6693(6)
C10_2 C 0.7291(3) 0.1868(2) 0.6706(8)
H5_2 H 0.7092 0.1469 0.6712
C11_2 C 0.6979(3) 0.2147(2) 0.6702(8)
H6_2 H 0.6580 0.1938 0.6707
C12_2 C 0.72626(33) 0.27370(14) 0.6689(8)
C13_2 C 0.69467(33) 0.30531(14) 0.6684(7)
C14_2 C 0.7291(3) 0.5424(2) 0.6706(8)
H7_2 H 0.7092 0.5624 0.6712
C15_2 C 0.6979(3) 0.4833(2) 0.6702(8)
H8_2 H 0.6580 0.4643 0.6707
C16_2 C 0.8132(2) 0.2709(3) 0.6706(8)
H9_2 H 0.8531 0.2908 0.6712
C17_2 C 0.7853(2) 0.3021(3) 0.6702(8)
H10_2 H 0.8062 0.3420 0.6707
C18_2 C 0.4576(2) 0.1868(2) 0.6706(8)
H11_2 H 0.4376 0.1469 0.6712
C19_2 C 0.5167(2) 0.2147(2) 0.6702(8)
H12_2 H 0.5357 0.1938 0.6707
N10 N 0.88056(23) 0.7612(2) 0.6631(7)
N12 N 0.94127(18) 0.97064(13) 0.6641(6)
C22 C 0.9375(3) 0.7910(2) 0.6628(8)
H13 H 0.9574 0.7710 0.6622
C23 C 0.9687(3) 0.8501(2) 0.6632(8)
C24 C 0.94040(33) 0.8808(3) 0.6645(8)
C25 C 0.97199(33) 0.9440(3) 0.6650(7)
H16 H 0.8604 0.9914 0.6627
C35 C 0.8534(2) 0.7910(2) 0.6628(8)
H19 H 0.8135 0.7710 0.6622
C36 C 0.8813(2) 0.8501(2) 0.6632(8)
H20 H 0.8604 0.8691 0.6627
N18 N 0.8917(2) 0.6668(2) 0.5199(6)
N19 N 0.3332(2) 0.2250(3) 0.5199(6)
N20 N 0.7750(3) 0.1083(2) 0.5199(6)
N21_2 N 0.8916(3) 0.6666(2) 0.8135(6)
N22_2 N 0.3334(2) 0.2251(2) 0.8135(6)
N24_2 N 0.7749(2) 0.1084(3) 0.8135(6)
Fe4_3 Fe 0.0000 0.5000 1.0000
Fe1_3 Fe 0.5000 0.0000 1.0000
N10_2 N 0.54723(23) 0.0945(2) 0.9964(7)
N11 N 0.4417(3) 0.0001(2) 0.8532(6)
N12_2 N 0.60794(18) 0.30397(13) 0.9974(6)
C22_2 C 0.6042(3) 0.1243(2) 0.9961(8)
H13_2 H 0.6241 0.1043 0.9955
C23_2 C 0.6354(3) 0.1834(2) 0.9965(8)
H14_2 H 0.6753 0.2024 0.9960
C24_2 C 0.60707(33) 0.2141(3) 0.9978(8)
C25_2 C 0.63866(33) 0.2773(3) 0.9983(7)
N13_2 N 0.54727(12) 0.45277(23) 0.9964(7)
N14_2 N 0.69603(13) 0.39206(18) 0.9974(6)
C27_2 C 0.5201(2) 0.3958(3) 0.9961(8)
H15_2 H 0.4802 0.3759 0.9955
C28_2 C 0.5480(2) 0.3646(3) 0.9965(8)
H16_2 H 0.5271 0.3247 0.9960
C29_2 C 0.60703(14) 0.39293(33) 0.9978(8)
C30_2 C 0.63864(14) 0.36134(33) 0.9983(7)
N15_2 N 0.9055(2) 0.45273(12) 0.9964(7)
N16_2 N 0.69603(13) 0.30397(13) 0.9974(6)
C31_2 C 0.8757(2) 0.4799(2) 0.9961(8)
H17_2 H 0.8957 0.5198 0.9955
C32_2 C 0.8166(2) 0.4520(2) 0.9965(8)
H18_2 H 0.7976 0.4729 0.9960
C33_2 C 0.7859(3) 0.39297(14) 0.9978(8)
C34_2 C 0.7227(3) 0.36136(14) 0.9983(7)
C35_2 C 0.5201(2) 0.1243(2) 0.9961(8)
H19_2 H 0.4802 0.1043 0.9955
C36_2 C 0.5480(2) 0.1834(2) 0.9965(8)
H20_2 H 0.5271 0.2024 0.9960
C37_2 C 0.8757(2) 0.3958(3) 0.9961(8)
H21_2 H 0.8957 0.3759 0.9955
C38_2 C 0.8166(2) 0.3646(3) 0.9965(8)
H22_2 H 0.7976 0.3247 0.9960
C39_2 C 0.6042(3) 0.4799(2) 0.9961(8)
H23_2 H 0.6241 0.5198 0.9955
C40_2 C 0.6354(3) 0.4520(2) 0.9965(8)
H24_2 H 0.6753 0.4729 0.9960
N18_2 N 0.5584(2) 0.0001(2) 0.8532(6)
Fe4_4 Fe 1.0000 0.5000 1.0000
Fe5_2 Fe 0.5000 0.5000 1.0000
Fe1_4 Fe 0.5000 1.0000 1.0000
C26 C 0.4037(4) 0.9919(3) 0.7876(8)
C42 C 0.5882(3) 0.9919(3) 0.7876(8)
C43 C 0.0081(3) 0.5963(4) 0.7876(8)
N20_2 N 0.4417(3) 0.4416(2) 0.8532(6)
C44 C 0.4037(4) 0.4118(3) 0.7876(8)
C47 C 0.0081(3) 0.4118(3) 0.7876(8)
Ag4_3 Ag 0.33333(6) 0.96448(4) 0.6667
Ag5_2 Ag 0.63115(4) 0.96448(4) 0.6667
Ag6_3 Ag 0.03552(4) 0.66667(6) 0.6667
Ag7_4 Ag 0.03552(4) 0.36885(4) 0.6667
Ag8_3 Ag 0.33333(6) 0.36885(4) 0.6667
N27 N 0.5584(2) 0.5583(3) 0.8532(6)
C49_4 C 0.2630(4) 0.9215(3) 0.5457(8)
C52_5 C 0.0785(3) 0.7370(4) 0.5457(8)
C53_3 C 0.6586(3) 0.9215(3) 0.5457(8)
N19_2 N 0.9999(2) 0.5583(3) 0.8532(6)
N23 N 0.9999(2) 0.4416(2) 0.8532(6)
C47_2 C 0.5882(3) 0.5963(4) 0.7876(8)
Ag7_5 Ag 0.63115(4) 0.66667(6) 0.6667
C49_5 C 0.0785(3) 0.3414(5) 0.5457(8)
C52_6 C 0.2630(4) 0.3414(5) 0.5457(8)
C49_6 C 0.6586(5) 0.7370(4) 0.5457(8)
N17_7 N 0.2250(3) 0.8917(2) 0.4801(6)
Fe6_4 Fe 0.1667 0.8333 0.3333
N17_8 N 0.6668(2) 0.7750(3) 0.4801(6)
Fe6_5 Fe 0.6667 0.8333 0.3333
N17_9 N 0.1083(2) 0.3332(2) 0.4801(6)
Fe6_6 Fe 0.1667 0.3333 0.3333
N1_3 N 0.11940(12) 0.2388(2) 0.3369(7)
C1_3 C 0.1466(2) 0.2090(2) 0.3372(8)
H1_3 H 0.1865 0.2290 0.3378
C2_3 C 0.1187(2) 0.1499(2) 0.3368(8)
H2_3 H 0.1396 0.1309 0.3373
C3_3 C 0.05964(14) 0.1192(3) 0.3355(8)
C4_3 C 0.02803(14) 0.0560(3) 0.3350(7)
N7_3 N 0.05873(18) 0.02936(13) 0.3359(6)
C14_3 C 0.0625(3) 0.2090(2) 0.3372(8)
H7_3 H 0.0426 0.2290 0.3378
C15_3 C 0.0313(3) 0.1499(2) 0.3368(8)
H10_3 H 0.1396 0.0086 0.3373
N10_3 N 0.21390(23) 0.4278(2) 0.3297(7)
N11_2 N 0.1084(3) 0.3334(2) 0.1865(6)
N12_3 N 0.27461(18) 0.63730(13) 0.3307(6)
C22_3 C 0.2709(3) 0.4576(2) 0.3294(8)
H13_3 H 0.2908 0.4376 0.3288
C23_3 C 0.3021(3) 0.5167(2) 0.3298(8)
H14_3 H 0.3420 0.5357 0.3293
C24_3 C 0.27374(33) 0.5474(3) 0.3311(8)
C25_3 C 0.30533(33) 0.6106(3) 0.3316(7)
C26_2 C 0.0704(4) 0.3252(3) 0.1209(8)
N13_3 N 0.21394(12) 0.78610(23) 0.3297(7)
N14_3 N 0.36270(13) 0.72539(18) 0.3307(6)
C27_3 C 0.1868(2) 0.7291(3) 0.3294(8)
H15_3 H 0.1469 0.7092 0.3288
C28_3 C 0.2147(2) 0.6979(3) 0.3298(8)
H16_3 H 0.1938 0.6580 0.3293
C29_3 C 0.27370(14) 0.72626(33) 0.3311(8)
C30_3 C 0.30531(14) 0.69467(33) 0.3316(7)
N15_3 N 0.5722(2) 0.78606(12) 0.3297(7)
N16_3 N 0.36270(13) 0.63730(13) 0.3307(6)
C31_3 C 0.5424(2) 0.8132(2) 0.3294(8)
H17_3 H 0.5624 0.8531 0.3288
C32_3 C 0.4833(2) 0.7853(2) 0.3298(8)
H18_3 H 0.4643 0.8062 0.3293
C33_3 C 0.4526(3) 0.72630(14) 0.3311(8)
C34_3 C 0.3894(3) 0.69469(14) 0.3316(7)
C35_3 C 0.1868(2) 0.4576(2) 0.3294(8)
H19_3 H 0.1469 0.4376 0.3288
C36_3 C 0.2147(2) 0.5167(2) 0.3298(8)
H20_3 H 0.1938 0.5357 0.3293
C37_3 C 0.5424(2) 0.7291(3) 0.3294(8)
H21_3 H 0.5624 0.7092 0.3288
C38_3 C 0.4833(2) 0.6979(3) 0.3298(8)
H22_3 H 0.4643 0.6580 0.3293
C39_3 C 0.2709(3) 0.8132(2) 0.3294(8)
H23_3 H 0.2908 0.8531 0.3288
C40_3 C 0.3021(3) 0.7853(2) 0.3298(8)
H24_3 H 0.3420 0.8062 0.3293
N18_3 N 0.2251(2) 0.3334(2) 0.1865(6)
C42_2 C 0.2549(3) 0.3252(3) 0.1209(8)
N21_3 N 0.2250(3) 0.3332(2) 0.4801(6)
Ag4_4 Ag -0.00000(6) 0.29781(4) 0.0000
Ag5_3 Ag 0.29782(4) 0.29781(4) 0.0000
N6_3 N 0.11944(23) 0.88060(12) 0.3369(7)
C10_3 C 0.0625(3) 0.8534(2) 0.3372(8)
H5_3 H 0.0426 0.8135 0.3378
C11_3 C 0.0313(3) 0.8813(2) 0.3368(8)
C12_3 C 0.05960(33) 0.94036(14) 0.3355(8)
C13_3 C 0.02801(33) 0.97197(14) 0.3350(7)
C16_3 C 0.1466(2) 0.9375(3) 0.3372(8)
H9_3 H 0.1865 0.9574 0.3378
C17_3 C 0.1187(2) 0.9687(3) 0.3368(8)
N20_3 N 0.1084(3) 0.7749(2) 0.1865(6)
C44_2 C 0.0704(4) 0.7451(3) 0.1209(8)
N24_3 N 0.1083(2) 0.7750(3) 0.4801(6)
Ag8_4 Ag -0.00000(6) 0.70218(4) 0.0000
N27_2 N 0.2251(2) 0.8916(3) 0.1865(6)
N3_3 N 0.97064(13) 0.02936(13) 0.3359(6)
H4_3 H 0.8691 0.0086 0.3373
H8_3 H 0.9914 0.1309 0.3373
Ag4_5 Ag 1.00000(6) 0.29781(4) 0.0000
Ag6_4 Ag 0.70219(4) 0.00000(6) 0.0000
N4_3 N 0.7612(2) 0.88056(23) 0.3369(7)
N5_3 N 0.97064(13) 0.94127(18) 0.3359(6)
C6_3 C 0.7910(2) 0.9375(3) 0.3372(8)
H3_3 H 0.7710 0.9574 0.3378
C7_3 C 0.8501(2) 0.9687(3) 0.3368(8)
C8_3 C 0.8808(3) 0.94040(33) 0.3355(8)
C9_3 C 0.9440(3) 0.97199(33) 0.3350(7)
H6_3 H 0.9914 0.8604 0.3373
C18_3 C 0.7910(2) 0.8534(2) 0.3372(8)
H11_3 H 0.7710 0.8135 0.3378
C19_3 C 0.8501(2) 0.8813(2) 0.3368(8)
H12_3 H 0.8691 0.8604 0.3373
N19_3 N 0.6666(2) 0.8916(3) 0.1865(6)
C43_2 C 0.6748(3) 0.9296(4) 0.1209(8)
N22_3 N 0.6668(2) 0.8917(2) 0.4801(6)
N23_2 N 0.6666(2) 0.7749(2) 0.1865(6)
C47_3 C 0.6748(3) 0.7451(3) 0.1209(8)
Ag6_5 Ag 0.70219(4) 1.00000(6) 0.0000
Ag7_6 Ag 0.70219(4) 0.70218(4) 0.0000
Ag8_5 Ag 1.00000(6) 0.70218(4) 0.0000
Ag7_7 Ag 0.29782(4) 0.00000(6) 0.0000
C47_4 C 0.2549(3) 0.9296(4) 0.1209(8)
Ag7_8 Ag 0.29782(4) 1.00000(6) 0.0000
loop_
_geom_bond_atom_site_label_1
_geom_bond_atom_site_label_2
_geom_bond_site_symmetry_1
_geom_bond_site_symmetry_2
Ag1 C5 1_555 1_555
N17 C41 1_555 1_555
C41 Ag1 1_555 1_555
Ag9 C45 1_555 1_555
Fe6 N17 1_555 1_555
Fe1_2 N1 1_555 1_555
N1 C1 1_555 1_555
N2 Fe1_2 1_555 1_555
N3 C4 1_555 1_555
C1 H1 1_555 1_555
C2 C1 1_555 1_555
H2 C2 1_555 1_555
C3 C2 1_555 1_555
C4 C3 1_555 1_555
N4 C6 1_555 1_555
N5 C9 1_555 1_555
C6 H3 1_555 1_555
C7 C6 1_555 1_555
H4 C7 1_555 1_555
C8 C7 1_555 1_555
C9 N3 1_555 1_555
N6 C10 1_555 1_555
N7 C4 1_555 1_555
C10 H5 1_555 1_555
C11 C10 1_555 1_555
H6 C11 1_555 1_555
C12 C11 1_555 1_555
C13 N5 1_555 1_555
C14 N1 1_555 1_555
H7 C14 1_555 1_555
C15 C3 1_555 1_555
H8 C15 1_555 1_555
C16 N6 1_555 1_555
H9 C16 1_555 1_555
C17 C12 1_555 1_555
H10 C17 1_555 1_555
C18 N4 1_555 1_555
H11 C18 1_555 1_555
C19 C8 1_555 1_555
H12 C19 1_555 1_555
Fe4 N4 1_555 1_555
N8 Fe4 1_555 1_555
Fe5 N6 1_555 1_555
N9 Fe5 1_555 1_555
C21 N9 1_555 1_555
N21 Fe1_2 1_555 1_555
N22 Fe4 1_555 1_555
N24 Fe5 1_555 1_555
C48 N24 1_555 1_555
Ag3 C21 1_555 1_555
Ag10 C48 1_555 1_555
C50 Ag3 1_555 1_555
C8 C9 1_555 1_555
N7 C13 1_555 1_555
C12 C13 1_555 1_555
C14 C15 1_555 1_555
C16 C17 1_555 1_555
C18 C19 1_555 1_555
Ag2 C20 1_555 1_555
Ag11 C46 1_555 1_555
C51 Ag2 1_555 1_555
N17_2 C51 1_555 1_555
Fe6_2 N17_2 1_555 1_555
N17_3 C50 1_555 1_555
Fe6_3 N17_3 1_555 1_555
C52 Ag10 1_555 1_555
C53 Ag9 1_555 1_555
C52_2 Ag11 1_555 1_555
C53_2 Ag5 1_555 1_555
C49 Ag4_2 1_555 1_555
C52_3 Ag6 1_555 1_555
C49_2 Ag7 1_555 1_555
C52_4 Ag8_2 1_555 1_555
C49_3 Ag7_2 1_555 1_555
N17_4 C49 1_555 1_555
Fe6_2 N17_4 1_555 1_555
N17_5 C49_3 1_555 1_555
Fe6 N17_5 1_555 1_555
N17_6 C49_2 1_555 1_555
Fe6_3 N17_6 1_555 1_555
N15 C31 1_555 1_555
C31 H17 1_555 1_555
C32 C31 1_555 1_555
H18 C32 1_555 1_555
C33 C32 1_555 1_555
C34 N14 1_555 1_555
C37 N15 1_555 1_555
H21 C37 1_555 1_555
C38 C33 1_555 1_555
Fe6 N15 1_555 1_555
C33 C34 1_555 1_555
C37 C38 1_555 1_555
N13 C27 1_555 1_555
C27 H15 1_555 1_555
C28 C27 1_555 1_555
C29 C28 1_555 1_555
C39 N13 1_555 1_555
H23 C39 1_555 1_555
C40 C29 1_555 1_555
Fe6_2 N13 1_555 1_555
C29 C30 1_555 1_555
C39 C40 1_555 1_555
Fe6_3 N1_2 1_555 1_555
N1_2 C1_2 1_555 1_555
N3_2 C4_2 1_555 1_555
C1_2 H1_2 1_555 1_555
C2_2 C1_2 1_555 1_555
H2_2 C2_2 1_555 1_555
C3_2 C2_2 1_555 1_555
C4_2 C3_2 1_555 1_555
N4_2 C6_2 1_555 1_555
N5_2 C9_2 1_555 1_555
C6_2 H3_2 1_555 1_555
C7_2 C6_2 1_555 1_555
H4_2 C7_2 1_555 1_555
C8_2 C7_2 1_555 1_555
C9_2 N3_2 1_555 1_555
N6_2 C10_2 1_555 1_555
N7_2 C4_2 1_555 1_555
C10_2 H5_2 1_555 1_555
C11_2 C10_2 1_555 1_555
H6_2 C11_2 1_555 1_555
C12_2 C11_2 1_555 1_555
C13_2 N5_2 1_555 1_555
C14_2 N1_2 1_555 1_555
H7_2 C14_2 1_555 1_555
C15_2 C3_2 1_555 1_555
H8_2 C15_2 1_555 1_555
C16_2 N6_2 1_555 1_555
H9_2 C16_2 1_555 1_555
C17_2 C12_2 1_555 1_555
H10_2 C17_2 1_555 1_555
C18_2 N4_2 1_555 1_555
H11_2 C18_2 1_555 1_555
C19_2 C8_2 1_555 1_555
H12_2 C19_2 1_555 1_555
Fe6 N4_2 1_555 1_555
Fe6_2 N6_2 1_555 1_555
N10 Fe6_3 1_555 1_555
N12 C25 1_555 1_555
C22 N10 1_555 1_555
H13 C22 1_555 1_555
C23 C22 1_555 1_555
C24 C23 1_555 1_555
C25 C24 1_555 1_555
C35 N10 1_555 1_555
H19 C35 1_555 1_555
C36 C24 1_555 1_555
H20 C36 1_555 1_555
N18 Fe6_3 1_555 1_555
C52_2 N18 1_555 1_555
N19 Fe6 1_555 1_555
C52 N19 1_555 1_555
N20 Fe6_2 1_555 1_555
C53 N20 1_555 1_555
N21_2 Fe6_3 1_555 1_555
C52_4 N21_2 1_555 1_555
N22_2 Fe6 1_555 1_555
C53_2 N22_2 1_555 1_555
N24_2 Fe6_2 1_555 1_555
C52_3 N24_2 1_555 1_555
C8_2 C9_2 1_555 1_555
N7_2 C13_2 1_555 1_555
C12_2 C13_2 1_555 1_555
C14_2 C15_2 1_555 1_555
C16_2 C17_2 1_555 1_555
C18_2 C19_2 1_555 1_555
C35 C36 1_555 1_555
N10_2 Fe1_3 1_555 1_555
N11 Fe1_3 1_555 1_555
N12_2 C25_2 1_555 1_555
C22_2 N10_2 1_555 1_555
H13_2 C22_2 1_555 1_555
C23_2 C22_2 1_555 1_555
H14_2 C23_2 1_555 1_555
C24_2 C23_2 1_555 1_555
C25_2 C24_2 1_555 1_555
N13_2 C27_2 1_555 1_555
N14_2 C30_2 1_555 1_555
C27_2 H15_2 1_555 1_555
C28_2 C27_2 1_555 1_555
H16_2 C28_2 1_555 1_555
C29_2 C28_2 1_555 1_555
C30_2 N12_2 1_555 1_555
N15_2 C31_2 1_555 1_555
N16_2 C25_2 1_555 1_555
C31_2 H17_2 1_555 1_555
C32_2 C31_2 1_555 1_555
H18_2 C32_2 1_555 1_555
C33_2 C32_2 1_555 1_555
C34_2 N14_2 1_555 1_555
C35_2 N10_2 1_555 1_555
H19_2 C35_2 1_555 1_555
C36_2 C24_2 1_555 1_555
H20_2 C36_2 1_555 1_555
C37_2 N15_2 1_555 1_555
H21_2 C37_2 1_555 1_555
C38_2 C33_2 1_555 1_555
H22_2 C38_2 1_555 1_555
C39_2 N13_2 1_555 1_555
H23_2 C39_2 1_555 1_555
C40_2 C29_2 1_555 1_555
H24_2 C40_2 1_555 1_555
N18_2 Fe1_3 1_555 1_555
Fe4_4 N15_2 1_555 1_555
Fe5_2 N13_2 1_555 1_555
C29_2 C30_2 1_555 1_555
N16_2 C34_2 1_555 1_555
C33_2 C34_2 1_555 1_555
C35_2 C36_2 1_555 1_555
C37_2 C38_2 1_555 1_555
C39_2 C40_2 1_555 1_555
N20_2 Fe5_2 1_555 1_555
C44 N20_2 1_555 1_555
Ag4_3 C26 1_555 1_555
Ag5_2 C42 1_555 1_555
Ag6_3 C43 1_555 1_555
Ag7_4 C47 1_555 1_555
Ag8_3 C44 1_555 1_555
N27 Fe5_2 1_555 1_555
C49_4 Ag4_3 1_555 1_555
C52_5 Ag6_3 1_555 1_555
C53_3 Ag5_2 1_555 1_555
N19_2 Fe4_4 1_555 1_555
N23 Fe4_4 1_555 1_555
C47_2 N27 1_555 1_555
Ag7_5 C47_2 1_555 1_555
C49_5 Ag7_4 1_555 1_555
C52_6 Ag8_3 1_555 1_555
C49_6 Ag7_5 1_555 1_555
N17_7 C49_4 1_555 1_555
Fe6_4 N17_7 1_555 1_555
N17_8 C49_6 1_555 1_555
Fe6_5 N17_8 1_555 1_555
N17_9 C49_5 1_555 1_555
Fe6_6 N17_9 1_555 1_555
Fe6_6 N1_3 1_555 1_555
N1_3 C1_3 1_555 1_555
C1_3 H1_3 1_555 1_555
C2_3 C1_3 1_555 1_555
H2_3 C2_3 1_555 1_555
C3_3 C2_3 1_555 1_555
C4_3 C3_3 1_555 1_555
N7_3 C4_3 1_555 1_555
C14_3 N1_3 1_555 1_555
H7_3 C14_3 1_555 1_555
C15_3 C3_3 1_555 1_555
N10_3 Fe6_6 1_555 1_555
N11_2 Fe6_6 1_555 1_555
N12_3 C25_3 1_555 1_555
C22_3 N10_3 1_555 1_555
H13_3 C22_3 1_555 1_555
C23_3 C22_3 1_555 1_555
H14_3 C23_3 1_555 1_555
C24_3 C23_3 1_555 1_555
C25_3 C24_3 1_555 1_555
C26_2 N11_2 1_555 1_555
N13_3 C27_3 1_555 1_555
N14_3 C30_3 1_555 1_555
C27_3 H15_3 1_555 1_555
C28_3 C27_3 1_555 1_555
H16_3 C28_3 1_555 1_555
C29_3 C28_3 1_555 1_555
C30_3 N12_3 1_555 1_555
N15_3 C31_3 1_555 1_555
N16_3 C25_3 1_555 1_555
C31_3 H17_3 1_555 1_555
C32_3 C31_3 1_555 1_555
H18_3 C32_3 1_555 1_555
C33_3 C32_3 1_555 1_555
C34_3 N14_3 1_555 1_555
C35_3 N10_3 1_555 1_555
H19_3 C35_3 1_555 1_555
C36_3 C24_3 1_555 1_555
H20_3 C36_3 1_555 1_555
C37_3 N15_3 1_555 1_555
H21_3 C37_3 1_555 1_555
C38_3 C33_3 1_555 1_555
H22_3 C38_3 1_555 1_555
C39_3 N13_3 1_555 1_555
H23_3 C39_3 1_555 1_555
C40_3 C29_3 1_555 1_555
H24_3 C40_3 1_555 1_555
N18_3 Fe6_6 1_555 1_555
C42_2 N18_3 1_555 1_555
N21_3 Fe6_6 1_555 1_555
C52_6 N21_3 1_555 1_555
Ag4_4 C26_2 1_555 1_555
Ag5_3 C42_2 1_555 1_555
Fe6_5 N15_3 1_555 1_555
Fe6_4 N13_3 1_555 1_555
C14_3 C15_3 1_555 1_555
C29_3 C30_3 1_555 1_555
N16_3 C34_3 1_555 1_555
C33_3 C34_3 1_555 1_555
C35_3 C36_3 1_555 1_555
C37_3 C38_3 1_555 1_555
C39_3 C40_3 1_555 1_555
N6_3 C10_3 1_555 1_555
C10_3 H5_3 1_555 1_555
C11_3 C10_3 1_555 1_555
C12_3 C11_3 1_555 1_555
C16_3 N6_3 1_555 1_555
H9_3 C16_3 1_555 1_555
C17_3 C12_3 1_555 1_555
Fe6_4 N6_3 1_555 1_555
N20_3 Fe6_4 1_555 1_555
C44_2 N20_3 1_555 1_555
N24_3 Fe6_4 1_555 1_555
C52_5 N24_3 1_555 1_555
Ag8_4 C44_2 1_555 1_555
N27_2 Fe6_4 1_555 1_555
C12_3 C13_3 1_555 1_555
C16_3 C17_3 1_555 1_555
N4_3 C6_3 1_555 1_555
N5_3 C9_3 1_555 1_555
C6_3 H3_3 1_555 1_555
C7_3 C6_3 1_555 1_555
C8_3 C7_3 1_555 1_555
C18_3 N4_3 1_555 1_555
H11_3 C18_3 1_555 1_555
C19_3 C8_3 1_555 1_555
H12_3 C19_3 1_555 1_555
Fe6_5 N4_3 1_555 1_555
N19_3 Fe6_5 1_555 1_555
C43_2 N19_3 1_555 1_555
N22_3 Fe6_5 1_555 1_555
C53_3 N22_3 1_555 1_555
N23_2 Fe6_5 1_555 1_555
C47_3 N23_2 1_555 1_555
Ag6_5 C43_2 1_555 1_555
Ag7_6 C47_3 1_555 1_555
C8_3 C9_3 1_555 1_555
C18_3 C19_3 1_555 1_555
C47_4 N27_2 1_555 1_555
Ag7_8 C47_4 1_555 1_555

#END
