
###############################################################################
#
# This file contains modified crystal structure data generated from the
# MOF subset of the Cambridge Structural Database (CSD) v543 
# hosted by the Cambridge Crystallographic Data Centre (CCDC).
#
# This work is licensed under the Creative Commons
# Attribution-NonCommercial-ShareAlike 4.0 International License.
# To view a copy of this license, visit
# http://creativecommons.org/licenses/by-nc-sa/4.0/
# or send a letter to
# Creative Commons, PO Box 1866, Mountain View, CA 94042, USA.
#
# CIF created using the CSD Python API on 29 September 2022
# The structure has been converted into the P1 space group
# The structure has a 3D framework
# The original CSD entry YOYTOX01 is in the rhombohedral crystal system
# The framework has been calculated to contain at least 10.0% void space
# The void calculation uses a probe of radius 1.32A, grid spacing 0.4
#
###############################################################################

data_YOYTOX01
_chemical_formula_moiety         '(C142 H72 Ag11 Fe10 N72)n'
_symmetry_cell_setting           triclinic
_symmetry_space_group_name_H-M   'P 1'
_symmetry_Int_Tables_number      1
_space_group_name_Hall           'P 1'
loop_
_symmetry_equiv_pos_site_id
_symmetry_equiv_pos_as_xyz
1 x,y,z
_cell_length_a                   26.2525(9)
_cell_length_b                   26.2525(9)
_cell_length_c                   9.6515(4)
_cell_angle_alpha                90
_cell_angle_beta                 90
_cell_angle_gamma                120
_cell_volume                     5760.59
loop_
_atom_site_label
_atom_site_type_symbol
_atom_site_fract_x
_atom_site_fract_y
_atom_site_fract_z
Ag5 Ag -0.0000 0.296748(18) 0.5000
H6 H 0.0094 0.1439 0.1614
N10 N 0.03026(20) 0.06051(18) 0.1657(4)
C23 C 0.05723(21) 0.02862(9) 0.1659(4)
C33 C 0.12282(22) 0.06142(10) 0.1637(5)
C40 C 0.15410(24) 0.12266(20) 0.1616(4)
C41 C 0.15410(24) 0.03144(14) 0.1616(4)
H15 H 0.1345 0.1439 0.1614
C48 C 0.21493(25) 0.15141(21) 0.1598(4)
C49 C 0.21493(25) 0.06352(14) 0.1598(4)
N22 N 0.24549(19) 0.12275(9) 0.1601(4)
H21 H 0.2357 0.1924 0.1583
H22 H 0.2357 0.0433 0.1583
Fe6 Fe 0.3333 0.1667 0.1667
Ag11 Ag -0.0000 0.703218(18) 0.5000
N18 N 0.03025(9) 0.96974(20) 0.1657(4)
H14 H 0.0094 0.8655 0.1614
H16 H 0.1345 0.9906 0.1614
N2 N 0.87725(9) 0.12274(17) 0.1601(4)
C2 C 0.84859(21) 0.06352(14) 0.1598(4)
C3 C 0.87734(20) 0.03144(14) 0.1616(4)
H1 H 0.8076 0.0433 0.1583
C4 C 0.93858(10) 0.0614(2) 0.1637(5)
C5 C 0.97138(9) 0.02861(19) 0.1659(4)
N4 N 0.77831(12) 0.11417(18) 0.0279(3)
Fe2 Fe 0.8333 0.1667 0.1667
N5 N 0.88583(18) 0.22169(12) 0.0279(3)
N6 N 0.78083(18) 0.11165(12) 0.3055(3)
N7 N 0.88835(12) 0.21917(18) 0.3055(3)
N8 N 0.78941(17) 0.21058(9) 0.1732(4)
C9 C 0.74899(25) 0.07389(17) 0.3782(4)
C10 C 0.92611(17) 0.25101(25) 0.3782(4)
C11 C 0.93648(14) 0.15141(21) 0.1598(4)
C12 C 0.73019(14) 0.18192(21) 0.1735(4)
C13 C 0.81808(21) 0.26981(14) 0.1735(4)
Ag4 Ag 0.703252(18) 0.0000 0.5000
Ag5_2 Ag 1.0000 0.296748(18) 0.5000
C14 C 0.96856(14) 0.12266(20) 0.1616(4)
H3 H 0.9567 0.1924 0.1583
C15 C 0.69811(14) 0.21067(20) 0.1717(4)
H4 H 0.7100 0.1409 0.1750
C16 C 0.78933(20) 0.30189(14) 0.1717(4)
H5 H 0.8591 0.2900 0.1750
H7 H 0.6573 0.1894 0.1719
C20 C 0.7281(2) 0.27191(10) 0.1696(5)
H8 H 0.8106 0.3427 0.1719
N9 N 0.33585(13) 0.11417(18) 0.0279(3)
C21 C 0.69528(19) 0.30471(9) 0.1674(4)
N11 N 0.72718(18) 0.36359(20) 0.1676(4)
N12 N 0.63642(9) 0.27282(18) 0.1676(4)
N13 N 0.33585(13) 0.22169(12) 0.0279(3)
N14 N 0.42118(19) 0.21059(17) 0.1732(4)
N15 N 0.33081(13) 0.21917(18) 0.3055(3)
N16 N 0.33081(13) 0.11165(12) 0.3055(3)
C24 C 0.69529(9) 0.39056(21) 0.1674(4)
C25 C 0.60944(21) 0.30472(19) 0.1674(4)
C27 C 0.45174(25) 0.26981(14) 0.1735(4)
C28 C 0.45174(25) 0.18192(21) 0.1735(4)
C29 C 0.32489(18) 0.25101(25) 0.3782(4)
C30 C 0.32489(18) 0.07389(17) 0.3782(4)
N19 N 0.63641(20) 0.36358(9) 0.1676(4)
C34 C 0.72809(10) 0.45615(22) 0.1696(5)
C35 C 0.54385(22) 0.2719(2) 0.1696(5)
H9 H 0.4310 0.2900 0.1750
C36 C 0.51257(24) 0.30189(14) 0.1717(4)
C37 C 0.51257(24) 0.21067(20) 0.1717(4)
H10 H 0.4310 0.1409 0.1750
Ag7 Ag 0.296782(18) 0.296748(18) 0.5000
Ag8 Ag 0.296782(18) 0.0000 0.5000
C42 C 0.69811(14) 0.48743(24) 0.1717(4)
C43 C 0.78933(20) 0.48743(24) 0.1717(4)
H11 H 0.5322 0.3427 0.1719
H12 H 0.5322 0.1894 0.1719
C50 C 0.73019(14) 0.54826(25) 0.1735(4)
H17 H 0.6573 0.4678 0.1719
C51 C 0.81808(21) 0.54826(25) 0.1735(4)
H18 H 0.8106 0.4678 0.1719
N20 N 0.88583(18) 0.66415(13) 0.0279(3)
H23 H 0.7100 0.5690 0.1750
N23 N 0.78942(9) 0.57882(19) 0.1732(4)
H24 H 0.8591 0.5690 0.1750
Fe4 Fe 0.8333 0.6667 0.1667
N24 N 0.77831(12) 0.66415(13) 0.0279(3)
N25 N 0.88835(12) 0.66919(13) 0.3055(3)
N26 N 0.78083(18) 0.66919(13) 0.3055(3)
N27 N 0.87726(17) 0.75451(19) 0.1601(4)
C53 C 0.92611(17) 0.67511(18) 0.3782(4)
Ag11_2 Ag 1.0000 0.703218(18) 0.5000
H2 H 0.8561 0.9906 0.1614
N3 N 0.93949(18) 0.96975(9) 0.1657(4)
Ag4_2 Ag 0.703252(18) 1.0000 0.5000
C19 C 0.67511(18) 0.92611(17) 0.6218(4)
C22 C 0.97139(19) 0.94277(21) 0.1659(4)
C32 C 0.9386(2) 0.87718(22) 0.1637(5)
Ag8_2 Ag 0.296782(18) 1.0000 0.5000
C38 C 0.87734(20) 0.84590(24) 0.1616(4)
C39 C 0.96856(14) 0.84590(24) 0.1616(4)
C46 C 0.84859(21) 0.78507(25) 0.1598(4)
H13 H 0.8561 0.8655 0.1614
C47 C 0.93648(14) 0.78507(25) 0.1598(4)
H19 H 0.8076 0.7643 0.1583
H20 H 0.9567 0.7643 0.1583
C19_2 C 0.07389(17) 0.74899(25) 0.6218(4)
C10_2 C 0.74899(25) 0.67511(30) 0.3782(4)
Ag5_3 Ag 0.703252(18) 0.703218(18) 0.5000
C19_3 C 0.25101(25) 0.32489(18) 0.6218(4)
C22_2 C 0.02862(28) 0.05723(21) 0.8341(4)
C32_2 C 0.06142(30) 0.12282(22) 0.8363(5)
N18_2 N 0.06051(22) 0.03026(20) 0.8343(4)
C38_2 C 0.03144(31) 0.15410(24) 0.8384(4)
C39_2 C 0.12266(28) 0.15410(24) 0.8384(4)
C46_2 C 0.06352(33) 0.21493(25) 0.8402(4)
C47_2 C 0.15141(29) 0.21493(25) 0.8402(4)
H14_2 H 0.1439 0.1345 0.8386
H16_2 H 0.1439 0.0094 0.8386
N21 N 0.12275(25) 0.24549(19) 0.8399(4)
H19_2 H 0.0433 0.2357 0.8417
H20_2 H 0.1924 0.2357 0.8417
Fe5 Fe 0.1667 0.3333 0.8333
C23_2 C 0.02861(23) 0.97138(9) 0.8341(4)
C33_2 C 0.06140(24) 0.93858(10) 0.8363(5)
C40_2 C 0.03144(31) 0.87734(20) 0.8384(4)
C41_2 C 0.12266(28) 0.96856(14) 0.8384(4)
C48_2 C 0.06352(33) 0.84859(21) 0.8402(4)
C49_2 C 0.15141(29) 0.93648(14) 0.8402(4)
N22_2 N 0.12274(21) 0.87725(9) 0.8399(4)
H21_2 H 0.0433 0.8076 0.8417
H22_2 H 0.1924 0.9567 0.8417
Fe6_2 Fe 0.1667 0.8333 0.8333
H2_2 H 0.8655 0.0094 0.8386
N3_2 N 0.96974(20) 0.03025(9) 0.8343(4)
H13_2 H 0.9906 0.1345 0.8386
N2_2 N 0.75451(19) 0.87726(17) 0.8399(4)
C2_2 C 0.78507(25) 0.93648(14) 0.8402(4)
C3_2 C 0.84590(24) 0.96856(14) 0.8384(4)
H1_2 H 0.7643 0.9567 0.8417
C4_2 C 0.87718(22) 0.9386(2) 0.8363(5)
C5_2 C 0.94277(21) 0.97139(19) 0.8341(4)
N4_2 N 0.66415(22) 0.88583(18) 0.9721(3)
Fe2_2 Fe 0.6667 0.8333 0.8333
N5_2 N 0.66415(22) 0.77831(12) 0.9721(3)
N6_2 N 0.66919(22) 0.88835(12) 0.6945(3)
N7_2 N 0.66919(22) 0.78083(18) 0.6945(3)
N8_2 N 0.57882(19) 0.78942(9) 0.8268(4)
C10_3 C 0.67511(30) 0.74899(25) 0.6218(4)
C11_2 C 0.78507(25) 0.84859(21) 0.8402(4)
C12_2 C 0.54826(25) 0.81808(21) 0.8265(4)
C13_2 C 0.54826(25) 0.73019(14) 0.8265(4)
C14_2 C 0.84590(24) 0.87734(20) 0.8384(4)
H3_2 H 0.7643 0.8076 0.8417
C15_2 C 0.48743(24) 0.78933(20) 0.8283(4)
H4_2 H 0.5690 0.8591 0.8250
C16_2 C 0.48743(24) 0.69811(14) 0.8283(4)
H5_2 H 0.5690 0.7100 0.8250
H6_2 H 0.8655 0.8561 0.8386
H7_2 H 0.4678 0.8106 0.8281
C20_2 C 0.45615(22) 0.72809(10) 0.8304(5)
H8_2 H 0.4678 0.6573 0.8281
N9_2 N 0.22169(22) 0.88583(18) 0.9721(3)
C21_2 C 0.39056(21) 0.69529(9) 0.8326(4)
N10_2 N 0.96975(27) 0.93949(18) 0.8343(4)
N11_2 N 0.36358(27) 0.63641(20) 0.8324(4)
N12_2 N 0.36359(20) 0.72718(18) 0.8324(4)
N13_2 N 0.11417(18) 0.77831(12) 0.9721(3)
N14_2 N 0.21058(25) 0.78941(17) 0.8268(4)
N15_2 N 0.11165(22) 0.78083(18) 0.6945(3)
N16_2 N 0.21917(18) 0.88835(12) 0.6945(3)
C24_2 C 0.30472(23) 0.60944(21) 0.8326(4)
C25_2 C 0.30471(28) 0.69528(19) 0.8326(4)
C27_2 C 0.18192(29) 0.73019(14) 0.8265(4)
C28_2 C 0.26981(33) 0.81808(21) 0.8265(4)
C30_2 C 0.25101(25) 0.92611(17) 0.6218(4)
N19_2 N 0.27282(22) 0.63642(9) 0.8324(4)
C34_2 C 0.27193(24) 0.54385(22) 0.8304(5)
C35_2 C 0.27191(30) 0.7281(2) 0.8304(5)
H9_2 H 0.1409 0.7100 0.8250
C36_2 C 0.21067(28) 0.69811(14) 0.8283(4)
C37_2 C 0.30189(31) 0.78933(20) 0.8283(4)
H10_2 H 0.2900 0.8591 0.8250
C42_2 C 0.21067(28) 0.51257(24) 0.8283(4)
C43_2 C 0.30189(31) 0.51257(24) 0.8283(4)
H11_2 H 0.1894 0.6573 0.8281
H12_2 H 0.3427 0.8106 0.8281
H15_2 H 0.9906 0.8561 0.8386
C50_2 C 0.18192(29) 0.45174(25) 0.8265(4)
H17_2 H 0.1894 0.5322 0.8281
C51_2 C 0.26981(33) 0.45174(25) 0.8265(4)
H18_2 H 0.3427 0.5322 0.8281
N20_2 N 0.22169(22) 0.33585(13) 0.9721(3)
H23_2 H 0.1409 0.4310 0.8250
N23_2 N 0.21059(21) 0.42118(19) 0.8268(4)
H24_2 H 0.2900 0.4310 0.8250
N24_2 N 0.11417(18) 0.33585(13) 0.9721(3)
N25_2 N 0.21917(18) 0.33081(13) 0.6945(3)
N26_2 N 0.11165(22) 0.33081(13) 0.6945(3)
C10_4 C 0.07389(17) 0.32489(30) 0.6218(4)
Ag1 Ag 0.6667 0.036585(18) 0.8333
C1 C 0.59278(17) 0.00844(18) 0.7115(4)
N1 N 0.55502(12) 0.00252(13) 0.6388(3)
Fe1 Fe 0.5000 0.0000 0.5000
C6 C 0.74055(17) 0.08233(25) 0.9552(4)
C7 C 0.41566(25) 0.00844(18) 0.7115(4)
C8 C 0.91767(25) 0.25945(17) 0.9552(4)
Ag2 Ag 0.369885(18) 0.036585(18) 0.8333
Ag3 Ag 0.963415(18) 0.3333 0.8333
C17 C 0.34177(18) 0.08233(25) 0.9552(4)
C18 C 0.99156(18) 0.40722(17) 0.7115(4)
C26 C 0.34177(18) 0.25945(17) 0.9552(4)
C31 C 0.99156(18) 0.58434(25) 0.7115(4)
Ag6 Ag 0.369885(18) 0.3333 0.8333
Ag9 Ag 0.963415(18) 0.630115(18) 0.8333
C44 C 0.41566(25) 0.40722(17) 0.7115(4)
C45 C 0.91767(25) 0.65823(18) 0.9552(4)
C52 C 0.74055(17) 0.65823(18) 0.9552(4)
Ag10 Ag 0.6667 0.630115(18) 0.8333
Fe1_2 Fe 0.5000 1.0000 0.5000
Fe1_3 Fe 0.0000 0.5000 0.5000
N1_2 N 0.99748(13) 0.55250(18) 0.6388(3)
Fe1_4 Fe 1.0000 0.5000 0.5000
C18_2 C 0.59278(17) 0.58434(25) 0.7115(4)
N1_3 N 0.44750(18) 0.44498(12) 0.6388(3)
Fe1_5 Fe 0.5000 0.5000 0.5000
Ag1_2 Ag 0.630115(18) 0.963415(18) 0.1667
C1_2 C 0.58434(25) 0.99156(18) 0.2885(4)
N1_4 N 0.55250(18) 0.99748(13) 0.3612(3)
C6_2 C 0.65823(30) 0.91767(25) 0.0448(4)
C7_2 C 0.40722(31) 0.99156(18) 0.2885(4)
C8_2 C 0.65823(30) 0.74055(17) 0.0448(4)
Ag2_2 Ag 0.333300(25) 0.963415(18) 0.1667
Ag3_2 Ag 0.630115(18) 0.6667 0.1667
C17_2 C 0.25945(31) 0.91767(25) 0.0448(4)
C18_3 C 0.58434(25) 0.59278(17) 0.2885(4)
C26_2 C 0.08233(25) 0.74055(17) 0.0448(4)
C31_2 C 0.40722(31) 0.41566(25) 0.2885(4)
Ag6_2 Ag 0.036585(18) 0.6667 0.1667
Ag9_2 Ag 0.333300(25) 0.369885(18) 0.1667
C44_2 C 0.00844(30) 0.59278(17) 0.2885(4)
C45_2 C 0.25945(31) 0.34177(18) 0.0448(4)
C52_2 C 0.08233(25) 0.34177(18) 0.0448(4)
Ag10_2 Ag 0.036585(18) 0.369885(18) 0.1667
N1_5 N 0.44498(12) 0.44750(18) 0.3612(3)
C18_4 C 0.00844(18) 0.41566(25) 0.2885(4)
N1_6 N 0.00252(13) 0.55502(12) 0.3612(3)
N26_3 N 0.44750(18) 0.00252(13) 0.6388(3)
N27_2 N 0.54393(17) 0.08784(19) 0.4934(4)
N2_3 N 0.54392(9) 0.45607(17) 0.4934(4)
C2_3 C 0.51526(21) 0.39685(14) 0.4931(4)
C3_3 C 0.54401(20) 0.36477(14) 0.4949(4)
H1_3 H 0.4743 0.3766 0.4916
C4_3 C 0.60525(10) 0.3947(2) 0.4970(5)
H2_3 H 0.5228 0.3239 0.4947
C5_3 C 0.63805(9) 0.36194(19) 0.4992(4)
N3_3 N 0.60616(18) 0.30308(9) 0.4990(4)
N5_3 N 0.55250(18) 0.55502(12) 0.3612(3)
N7_3 N 0.55502(12) 0.55250(18) 0.6388(3)
N8_3 N 0.45607(17) 0.54392(9) 0.5066(4)
C11_3 C 0.60315(14) 0.48474(21) 0.4931(4)
C12_3 C 0.39685(14) 0.51526(21) 0.5069(4)
C13_3 C 0.48474(21) 0.60315(14) 0.5069(4)
C14_3 C 0.63523(14) 0.45599(20) 0.4949(4)
H3_3 H 0.6234 0.5257 0.4916
C15_3 C 0.36477(14) 0.54401(20) 0.5051(4)
H4_3 H 0.3766 0.4743 0.5084
C16_3 C 0.45599(20) 0.63523(14) 0.5051(4)
H5_3 H 0.5257 0.6234 0.5084
H6_3 H 0.6761 0.4772 0.4947
H7_3 H 0.3239 0.5228 0.5053
C20_3 C 0.3947(2) 0.60525(10) 0.5030(5)
H8_3 H 0.4772 0.6761 0.5053
N9_3 N 0.00252(13) 0.44750(18) 0.3612(3)
C21_3 C 0.36194(19) 0.63805(9) 0.5008(4)
N10_3 N 0.69693(20) 0.39384(18) 0.4990(4)
N11_3 N 0.39384(18) 0.69693(20) 0.5010(4)
N12_3 N 0.30308(9) 0.60616(18) 0.5010(4)
N14_3 N 0.08784(19) 0.54393(17) 0.5066(4)
C22_3 C 0.63806(19) 0.27610(21) 0.4992(4)
C23_3 C 0.72390(21) 0.36195(9) 0.4992(4)
C24_3 C 0.36195(9) 0.72390(21) 0.5008(4)
C25_3 C 0.27610(21) 0.63806(19) 0.5008(4)
C27_3 C 0.11840(25) 0.60315(14) 0.5069(4)
C28_3 C 0.11840(25) 0.51526(21) 0.5069(4)
C32_3 C 0.6053(2) 0.21051(22) 0.4970(5)
N18_3 N 0.69692(9) 0.30307(20) 0.4990(4)
C33_3 C 0.78949(22) 0.39475(10) 0.4970(5)
N19_3 N 0.30307(20) 0.69692(9) 0.5010(4)
C34_3 C 0.39475(10) 0.78949(22) 0.5030(5)
C35_3 C 0.21051(22) 0.6053(2) 0.5030(5)
H9_3 H 0.0976 0.6234 0.5084
C36_3 C 0.17923(24) 0.63523(14) 0.5051(4)
C37_3 C 0.17923(24) 0.54401(20) 0.5051(4)
H10_3 H 0.0976 0.4743 0.5084
C38_3 C 0.54401(20) 0.17923(24) 0.4949(4)
C39_3 C 0.63523(14) 0.17923(24) 0.4949(4)
C40_3 C 0.82077(24) 0.45599(20) 0.4949(4)
C41_3 C 0.82077(24) 0.36477(14) 0.4949(4)
C42_3 C 0.36477(14) 0.82077(24) 0.5051(4)
C43_3 C 0.45599(20) 0.82077(24) 0.5051(4)
H11_3 H 0.1988 0.6761 0.5053
H12_3 H 0.1988 0.5228 0.5053
C46_3 C 0.51526(21) 0.11840(25) 0.4931(4)
H13_3 H 0.5228 0.1988 0.4947
C47_3 C 0.60315(14) 0.11840(25) 0.4931(4)
H14_3 H 0.6761 0.1988 0.4947
H15_3 H 0.8012 0.4772 0.4947
C48_3 C 0.88160(25) 0.48474(21) 0.4931(4)
C49_3 C 0.88160(25) 0.39685(14) 0.4931(4)
H16_3 H 0.8012 0.3239 0.4947
C50_3 C 0.39685(14) 0.88160(25) 0.5069(4)
H17_3 H 0.3239 0.8012 0.5053
C51_3 C 0.48474(21) 0.88160(25) 0.5069(4)
H18_3 H 0.4772 0.8012 0.5053
H19_3 H 0.4743 0.0976 0.4916
H20_3 H 0.6234 0.0976 0.4916
N22_3 N 0.91216(19) 0.45608(9) 0.4934(4)
H21_3 H 0.9024 0.5257 0.4916
H22_3 H 0.9024 0.3766 0.4916
H23_3 H 0.3766 0.9024 0.5084
N23_3 N 0.45608(9) 0.91216(19) 0.5066(4)
H24_3 H 0.5257 0.9024 0.5084
N24_3 N 0.44498(12) 0.99748(13) 0.3612(3)
N16_3 N 0.99748(13) 0.44498(12) 0.6388(3)
loop_
_geom_bond_atom_site_label_1
_geom_bond_atom_site_label_2
_geom_bond_site_symmetry_1
_geom_bond_site_symmetry_2
C23 N10 1_555 1_555
C33 C23 1_555 1_555
C40 C33 1_555 1_555
C41 C33 1_555 1_555
H15 C40 1_555 1_555
C48 C40 1_555 1_555
C49 C41 1_555 1_555
N22 C48 1_555 1_555
H21 C48 1_555 1_555
H22 C49 1_555 1_555
Fe6 N22 1_555 1_555
C49 N22 1_555 1_555
N2 C2 1_555 1_555
C2 C3 1_555 1_555
C3 C4 1_555 1_555
H1 C2 1_555 1_555
C4 C5 1_555 1_555
Fe2 N2 1_555 1_555
N5 Fe2 1_555 1_555
N6 Fe2 1_555 1_555
N7 Fe2 1_555 1_555
N8 Fe2 1_555 1_555
C9 N6 1_555 1_555
C10 N7 1_555 1_555
C11 N2 1_555 1_555
C12 N8 1_555 1_555
C13 N8 1_555 1_555
Ag4 C9 1_555 1_555
Ag5_2 C10 1_555 1_555
C14 C4 1_555 1_555
H3 C11 1_555 1_555
C15 C12 1_555 1_555
H4 C12 1_555 1_555
C16 C13 1_555 1_555
H5 C13 1_555 1_555
H7 C15 1_555 1_555
C20 C15 1_555 1_555
H8 C16 1_555 1_555
N9 Fe6 1_555 1_555
C21 C20 1_555 1_555
Fe6 N13 1_555 1_555
N11 C21 1_555 1_555
N12 C21 1_555 1_555
N14 Fe6 1_555 1_555
N15 Fe6 1_555 1_555
N16 Fe6 1_555 1_555
C24 N11 1_555 1_555
C25 N12 1_555 1_555
C27 N14 1_555 1_555
C28 N14 1_555 1_555
C29 N15 1_555 1_555
C30 N16 1_555 1_555
N19 C24 1_555 1_555
C34 C24 1_555 1_555
C35 C25 1_555 1_555
H9 C27 1_555 1_555
C36 C27 1_555 1_555
C37 C28 1_555 1_555
H10 C28 1_555 1_555
Ag7 C29 1_555 1_555
Ag8 C30 1_555 1_555
C42 C34 1_555 1_555
C43 C34 1_555 1_555
H11 C36 1_555 1_555
H12 C37 1_555 1_555
C50 C42 1_555 1_555
H17 C42 1_555 1_555
C51 C43 1_555 1_555
H18 C43 1_555 1_555
N20 Fe4 1_555 1_555
H23 C50 1_555 1_555
N23 C50 1_555 1_555
H24 C51 1_555 1_555
Fe4 N23 1_555 1_555
N24 Fe4 1_555 1_555
N25 Fe4 1_555 1_555
N26 Fe4 1_555 1_555
N27 Fe4 1_555 1_555
C53 N25 1_555 1_555
Ag11_2 C53 1_555 1_555
N4 Fe2 1_555 1_555
C11 C14 1_555 1_555
C16 C20 1_555 1_555
C25 N19 1_555 1_555
C35 C36 1_555 1_555
C35 C37 1_555 1_555
C51 N23 1_555 1_555
N3 C22 1_555 1_555
C19 Ag4_2 1_555 1_555
C22 C32 1_555 1_555
C32 C38 1_555 1_555
C38 C46 1_555 1_555
C39 C32 1_555 1_555
C46 N27 1_555 1_555
H13 C38 1_555 1_555
C47 C39 1_555 1_555
N27 C47 1_555 1_555
H19 C46 1_555 1_555
H20 C47 1_555 1_555
C19_2 Ag11 1_555 1_555
C10_2 N26 1_555 1_555
Ag5_3 C10_2 1_555 1_555
C19_3 Ag7 1_555 1_555
C22_2 C32_2 1_555 1_555
C32_2 C38_2 1_555 1_555
N18_2 C22_2 1_555 1_555
C38_2 C46_2 1_555 1_555
C39_2 C32_2 1_555 1_555
C46_2 N21 1_555 1_555
C47_2 C39_2 1_555 1_555
H14_2 C39_2 1_555 1_555
N21 C47_2 1_555 1_555
H19_2 C46_2 1_555 1_555
H20_2 C47_2 1_555 1_555
Fe5 N21 1_555 1_555
C33_2 C23_2 1_555 1_555
C40_2 C33_2 1_555 1_555
C41_2 C33_2 1_555 1_555
C48_2 C40_2 1_555 1_555
C49_2 C41_2 1_555 1_555
N22_2 C48_2 1_555 1_555
H21_2 C48_2 1_555 1_555
H22_2 C49_2 1_555 1_555
Fe6_2 N22_2 1_555 1_555
C49_2 N22_2 1_555 1_555
N2_2 C2_2 1_555 1_555
C2_2 C3_2 1_555 1_555
C3_2 C4_2 1_555 1_555
H1_2 C2_2 1_555 1_555
C4_2 C5_2 1_555 1_555
Fe2_2 N2_2 1_555 1_555
N5_2 Fe2_2 1_555 1_555
N6_2 Fe2_2 1_555 1_555
N7_2 Fe2_2 1_555 1_555
N8_2 Fe2_2 1_555 1_555
C19 N6_2 1_555 1_555
C10_3 N7_2 1_555 1_555
C11_2 N2_2 1_555 1_555
C12_2 N8_2 1_555 1_555
C13_2 N8_2 1_555 1_555
Ag5_3 C10_3 1_555 1_555
C14_2 C4_2 1_555 1_555
H3_2 C11_2 1_555 1_555
C15_2 C12_2 1_555 1_555
H4_2 C12_2 1_555 1_555
C16_2 C13_2 1_555 1_555
H5_2 C13_2 1_555 1_555
H6_2 C14_2 1_555 1_555
H7_2 C15_2 1_555 1_555
C20_2 C15_2 1_555 1_555
H8_2 C16_2 1_555 1_555
N9_2 Fe6_2 1_555 1_555
C21_2 C20_2 1_555 1_555
Fe6_2 N13_2 1_555 1_555
N10_2 C5_2 1_555 1_555
N11_2 C21_2 1_555 1_555
N12_2 C21_2 1_555 1_555
N14_2 Fe6_2 1_555 1_555
N15_2 Fe6_2 1_555 1_555
N16_2 Fe6_2 1_555 1_555
C24_2 N11_2 1_555 1_555
C25_2 N12_2 1_555 1_555
C27_2 N14_2 1_555 1_555
C28_2 N14_2 1_555 1_555
C19_2 N15_2 1_555 1_555
C30_2 N16_2 1_555 1_555
N19_2 C24_2 1_555 1_555
C34_2 C24_2 1_555 1_555
C35_2 C25_2 1_555 1_555
H9_2 C27_2 1_555 1_555
C36_2 C27_2 1_555 1_555
C37_2 C28_2 1_555 1_555
H10_2 C28_2 1_555 1_555
Ag8_2 C30_2 1_555 1_555
C42_2 C34_2 1_555 1_555
C43_2 C34_2 1_555 1_555
H11_2 C36_2 1_555 1_555
H12_2 C37_2 1_555 1_555
C50_2 C42_2 1_555 1_555
H17_2 C42_2 1_555 1_555
C51_2 C43_2 1_555 1_555
H18_2 C43_2 1_555 1_555
N20_2 Fe5 1_555 1_555
H23_2 C50_2 1_555 1_555
N23_2 C50_2 1_555 1_555
H24_2 C51_2 1_555 1_555
Fe5 N23_2 1_555 1_555
N24_2 Fe5 1_555 1_555
N25_2 Fe5 1_555 1_555
N26_2 Fe5 1_555 1_555
C19_3 N25_2 1_555 1_555
N4_2 Fe2_2 1_555 1_555
C11_2 C14_2 1_555 1_555
C16_2 C20_2 1_555 1_555
C25_2 N19_2 1_555 1_555
C35_2 C36_2 1_555 1_555
C35_2 C37_2 1_555 1_555
C51_2 N23_2 1_555 1_555
C10_4 N26_2 1_555 1_555
Ag5 C10_4 1_555 1_555
Ag1 C1 1_555 1_555
C1 N1 1_555 1_555
N1 Fe1 1_555 1_555
C6 Ag1 1_555 1_555
C7 Ag2 1_555 1_555
Ag2 C17 1_555 1_555
Ag3 C8 1_555 1_555
C18 Ag3 1_555 1_555
C26 Ag6 1_555 1_555
C31 Ag9 1_555 1_555
Ag6 C44 1_555 1_555
Ag9 C45 1_555 1_555
Ag10 C52 1_555 1_555
C31 N1_2 1_555 1_555
N1_2 Fe1_4 1_555 1_555
C18_2 Ag10 1_555 1_555
C44 N1_3 1_555 1_555
N1_3 Fe1_5 1_555 1_555
Ag1_2 C1_2 1_555 1_555
C1_2 N1_4 1_555 1_555
N1_4 Fe1_2 1_555 1_555
C6_2 Ag1_2 1_555 1_555
C7_2 Ag2_2 1_555 1_555
Ag2_2 C17_2 1_555 1_555
Ag3_2 C8_2 1_555 1_555
C18_3 Ag3_2 1_555 1_555
C26_2 Ag6_2 1_555 1_555
C31_2 Ag9_2 1_555 1_555
Ag6_2 C44_2 1_555 1_555
Ag9_2 C45_2 1_555 1_555
Ag10_2 C52_2 1_555 1_555
C31_2 N1_5 1_555 1_555
N1_5 Fe1_5 1_555 1_555
C18_4 Ag10_2 1_555 1_555
C44_2 N1_6 1_555 1_555
N1_6 Fe1_3 1_555 1_555
N26_3 Fe1 1_555 1_555
N27_2 Fe1 1_555 1_555
N2_3 C2_3 1_555 1_555
C2_3 C3_3 1_555 1_555
C3_3 C4_3 1_555 1_555
H1_3 C2_3 1_555 1_555
C4_3 C5_3 1_555 1_555
H2_3 C3_3 1_555 1_555
C5_3 N3_3 1_555 1_555
N3_3 C22_3 1_555 1_555
Fe1_5 N2_3 1_555 1_555
N5_3 Fe1_5 1_555 1_555
N7_3 Fe1_5 1_555 1_555
N8_3 Fe1_5 1_555 1_555
C18_3 N5_3 1_555 1_555
C18_2 N7_3 1_555 1_555
C11_3 N2_3 1_555 1_555
C12_3 N8_3 1_555 1_555
C13_3 N8_3 1_555 1_555
C14_3 C4_3 1_555 1_555
H3_3 C11_3 1_555 1_555
C15_3 C12_3 1_555 1_555
H4_3 C12_3 1_555 1_555
C16_3 C13_3 1_555 1_555
H5_3 C13_3 1_555 1_555
C18_4 N9_3 1_555 1_555
H6_3 C14_3 1_555 1_555
H7_3 C15_3 1_555 1_555
C20_3 C15_3 1_555 1_555
H8_3 C16_3 1_555 1_555
N9_3 Fe1_3 1_555 1_555
C21_3 C20_3 1_555 1_555
N10_3 C5_3 1_555 1_555
N11_3 C21_3 1_555 1_555
N12_3 C21_3 1_555 1_555
N14_3 Fe1_3 1_555 1_555
C22_3 C32_3 1_555 1_555
C23_3 N10_3 1_555 1_555
C24_3 N11_3 1_555 1_555
C25_3 N12_3 1_555 1_555
C27_3 N14_3 1_555 1_555
C28_3 N14_3 1_555 1_555
C32_3 C38_3 1_555 1_555
N18_3 C22_3 1_555 1_555
C33_3 C23_3 1_555 1_555
N19_3 C24_3 1_555 1_555
C34_3 C24_3 1_555 1_555
C35_3 C25_3 1_555 1_555
H9_3 C27_3 1_555 1_555
C36_3 C27_3 1_555 1_555
C37_3 C28_3 1_555 1_555
H10_3 C28_3 1_555 1_555
C38_3 C46_3 1_555 1_555
C39_3 C32_3 1_555 1_555
C40_3 C33_3 1_555 1_555
C41_3 C33_3 1_555 1_555
C42_3 C34_3 1_555 1_555
C43_3 C34_3 1_555 1_555
H11_3 C36_3 1_555 1_555
H12_3 C37_3 1_555 1_555
C46_3 N27_2 1_555 1_555
H13_3 C38_3 1_555 1_555
C47_3 C39_3 1_555 1_555
H14_3 C39_3 1_555 1_555
H15_3 C40_3 1_555 1_555
C48_3 C40_3 1_555 1_555
C49_3 C41_3 1_555 1_555
H16_3 C41_3 1_555 1_555
C50_3 C42_3 1_555 1_555
H17_3 C42_3 1_555 1_555
C51_3 C43_3 1_555 1_555
H18_3 C43_3 1_555 1_555
N27_2 C47_3 1_555 1_555
H19_3 C46_3 1_555 1_555
H20_3 C47_3 1_555 1_555
N22_3 C48_3 1_555 1_555
H21_3 C48_3 1_555 1_555
H22_3 C49_3 1_555 1_555
H23_3 C50_3 1_555 1_555
N23_3 C50_3 1_555 1_555
H24_3 C51_3 1_555 1_555
Fe1_2 N23_3 1_555 1_555
Fe1_4 N22_3 1_555 1_555
N24_3 Fe1_2 1_555 1_555
C7_2 N24_3 1_555 1_555
C11_3 C14_3 1_555 1_555
C16_3 C20_3 1_555 1_555
C23_3 N18_3 1_555 1_555
C25_3 N19_3 1_555 1_555
C35_3 C36_3 1_555 1_555
C35_3 C37_3 1_555 1_555
C49_3 N22_3 1_555 1_555
C51_3 N23_3 1_555 1_555
N16_3 Fe1_4 1_555 1_555
C18 N16_3 1_555 1_555
C7 N26_3 1_555 1_555

#END
