
###############################################################################
#
# This file contains modified crystal structure data generated from the
# MOF subset of the Cambridge Structural Database (CSD) v543 
# hosted by the Cambridge Crystallographic Data Centre (CCDC).
#
# This work is licensed under the Creative Commons
# Attribution-NonCommercial-ShareAlike 4.0 International License.
# To view a copy of this license, visit
# http://creativecommons.org/licenses/by-nc-sa/4.0/
# or send a letter to
# Creative Commons, PO Box 1866, Mountain View, CA 94042, USA.
#
# CIF created using the CSD Python API on 29 September 2022
# The structure has been converted into the P1 space group
# The structure has a 3D framework
# The original CSD entry YOYVOZ is in the rhombohedral crystal system
# The framework has been calculated to contain at least 10.0% void space
# The void calculation uses a probe of radius 1.32A, grid spacing 0.4
#
###############################################################################

data_YOYVOZ
_chemical_formula_moiety         '(C144 H72 Au23 Fe15 N72)n'
_symmetry_cell_setting           triclinic
_symmetry_space_group_name_H-M   'P 1'
_symmetry_Int_Tables_number      1
_space_group_name_Hall           'P 1'
loop_
_symmetry_equiv_pos_site_id
_symmetry_equiv_pos_as_xyz
1 x,y,z
_cell_length_a                   26.4013(9)
_cell_length_b                   26.4013(9)
_cell_length_c                   9.6662(7)
_cell_angle_alpha                90
_cell_angle_beta                 90
_cell_angle_gamma                120
_cell_volume                     5834.95
loop_
_atom_site_label
_atom_site_type_symbol
_atom_site_fract_x
_atom_site_fract_y
_atom_site_fract_z
C41 C 0.0580(13) 0.0289(14) 0.660(4)
N26 N 0.0303(5) 0.0605(7) 0.663(2)
C43 C 0.1223(13) 0.0611(14) 0.659(4)
C45 C 0.1536(8) 0.0320(11) 0.661(2)
C46 C 0.1536(8) 0.1215(8) 0.661(2)
C49 C 0.2132(8) 0.0639(11) 0.657(2)
C50 C 0.2132(8) 0.1492(7) 0.657(2)
H18 H 0.1344 0.1429 0.6650
H19 H 0.0086 0.1429 0.6650
N27 N 0.2443(8) 0.1221(9) 0.660(2)
H21 H 0.2335 0.0436 0.6527
H22 H 0.2335 0.1898 0.6527
Fe6 Fe 0.3333 0.1667 0.6667
Au6 Au -0.00000(4) 0.70772(3) 1.0000
Au9 Au -0.00000(4) 0.29228(3) 1.0000
H16 H 0.0086 0.8656 0.6650
N24 N 0.0303(5) 0.9697(5) 0.663(2)
H17 H 0.1344 0.9914 0.6650
C42 C 0.9711(14) 0.0290(6) 0.660(4)
C44 C 0.9389(14) 0.0611(6) 0.659(4)
C47 C 0.9680(11) 0.1215(8) 0.661(2)
C48 C 0.8785(8) 0.0320(11) 0.661(2)
C51 C 0.9361(11) 0.1492(7) 0.657(2)
C52 C 0.8508(7) 0.0639(11) 0.657(2)
H23 H 0.9564 0.1898 0.6527
N28 N 0.8779(9) 0.1221(4) 0.660(2)
H24 H 0.8102 0.0436 0.6527
Fe7 Fe 0.8333 0.1666 0.6667
Au1 Au 0.29228(3) 0.29228(3) 1.0000
C1 C 0.3229(7) 0.2512(7) 0.8842(17)
N1 N 0.3313(6) 0.2216(6) 0.8135(14)
N2 N 0.4224(8) 0.2112(4) 0.673(2)
C2 C 0.4535(8) 0.1841(7) 0.676(2)
H1 H 0.4332 0.1435 0.6806
C3 C 0.5131(8) 0.2118(8) 0.672(2)
H2 H 0.5323 0.1904 0.6683
C4 C 0.5444(13) 0.2722(6) 0.674(4)
C5 C 0.6087(13) 0.3043(6) 0.673(4)
N3 N 0.6364(5) 0.3636(5) 0.670(2)
N5 N 0.3354(6) 0.2236(8) 0.5198(14)
N6 N 0.3313(6) 0.1097(8) 0.8135(14)
N8 N 0.3354(6) 0.1117(6) 0.5198(14)
C7 C 0.4535(8) 0.2694(11) 0.676(2)
C8 C 0.3438(7) 0.2616(10) 0.4491(17)
C9 C 0.3229(7) 0.0717(10) 0.8842(17)
C10 C 0.3438(7) 0.0821(7) 0.4491(17)
H3 H 0.4332 0.2897 0.6806
C11 C 0.5131(8) 0.3013(11) 0.672(2)
Au2 Au 0.37439(3) 0.33333(4) 0.3333
Au3 Au 0.29228(3) 0.00000(4) 1.0000
Au4 Au 0.37439(3) 0.04105(3) 0.3333
H4 H 0.5323 0.3419 0.6683
N9 N 0.6364(5) 0.2728(7) 0.670(2)
C13 C 0.6956(14) 0.3913(13) 0.673(4)
C14 C 0.6957(6) 0.3044(14) 0.673(4)
N10 N 0.7272(7) 0.3636(5) 0.670(2)
C15 C 0.7278(14) 0.4556(13) 0.674(4)
C16 C 0.7278(6) 0.2722(14) 0.674(4)
C17 C 0.6987(11) 0.4869(8) 0.672(2)
C18 C 0.7882(8) 0.4869(8) 0.672(2)
C19 C 0.7882(8) 0.3013(11) 0.672(2)
C20 C 0.6987(11) 0.2118(8) 0.672(2)
Au5 Au 0.66667(4) 0.04105(3) 0.3333
C21 C 0.7306(11) 0.5465(8) 0.676(2)
H5 H 0.6581 0.4677 0.6683
C22 C 0.8159(7) 0.5465(8) 0.676(2)
H6 H 0.8096 0.4677 0.6683
C23 C 0.8159(7) 0.2694(11) 0.676(2)
H7 H 0.8096 0.3419 0.6683
C24 C 0.7306(11) 0.1841(7) 0.676(2)
H8 H 0.6581 0.1904 0.6683
C25 C 0.7384(10) 0.0821(7) 0.4491(17)
N11 N 0.7888(9) 0.5776(8) 0.673(2)
H9 H 0.7103 0.5668 0.6806
H10 H 0.8565 0.5668 0.6806
N12 N 0.7888(4) 0.2112(9) 0.673(2)
H11 H 0.8565 0.2897 0.6806
H12 H 0.7103 0.1435 0.6806
N13 N 0.7764(8) 0.6646(6) 0.5198(14)
N14 N 0.7764(8) 0.1117(6) 0.5198(14)
Fe3 Fe 0.8334 0.6667 0.6667
N15 N 0.8779(4) 0.7557(8) 0.660(2)
N16 N 0.8903(8) 0.6687(6) 0.8135(14)
N17 N 0.8883(6) 0.6646(6) 0.5198(14)
N18 N 0.7784(6) 0.6687(6) 0.8135(14)
N19 N 0.7784(6) 0.1097(8) 0.8135(14)
N20 N 0.8903(8) 0.2216(6) 0.8135(14)
N21 N 0.8883(6) 0.2236(8) 0.5198(14)
C26 C 0.8508(7) 0.7868(8) 0.657(2)
C27 C 0.9361(11) 0.7868(8) 0.657(2)
C28 C 0.9283(10) 0.6771(7) 0.8842(17)
C29 C 0.9179(7) 0.6562(7) 0.4491(17)
C30 C 0.7488(7) 0.0717(10) 0.8842(17)
C31 C 0.9283(10) 0.2512(7) 0.8842(17)
C32 C 0.9179(7) 0.2616(10) 0.4491(17)
H13 H 0.8102 0.7665 0.6527
C33 C 0.8785(8) 0.8464(8) 0.661(2)
H14 H 0.9564 0.7665 0.6527
C34 C 0.9680(11) 0.8464(8) 0.661(2)
Au6_2 Au 1.00000(4) 0.70772(3) 1.0000
Au7 Au 0.95895(3) 0.62561(3) 0.3333
Au8 Au 0.70772(3) 0.00000(4) 1.0000
Au9_2 Au 1.00000(4) 0.29228(3) 1.0000
Au10 Au 0.95895(3) 0.33333(4) 0.3333
C35 C 0.9389(6) 0.8777(13) 0.659(4)
H15 H 0.8571 0.8656 0.6650
C37 C 0.9896(7) 0.5845(7) 0.2175(17)
C39 C 0.9896(7) 0.4050(10) 0.2175(17)
C40 C 0.9710(6) 0.9420(13) 0.660(4)
N25 N 0.9395(7) 0.9697(5) 0.663(2)
H20 H 0.8571 0.9914 0.6650
Au3_2 Au 0.29228(3) 1.00000(4) 1.0000
Au8_2 Au 0.70772(3) 1.00000(4) 1.0000
C31_2 C 0.7488(7) 0.6771(12) 0.8842(17)
C32_2 C 0.7384(10) 0.6562(12) 0.4491(17)
Au9_3 Au 0.70772(3) 0.70772(5) 1.0000
Au10_2 Au 0.66667(4) 0.62561(5) 0.3333
C37_2 C 0.4155(7) 0.4050(10) 0.2175(17)
C39_2 C 0.5950(10) 0.5845(12) 0.2175(17)
C37_3 C 0.5950(10) 0.0104(7) 0.2175(17)
C39_3 C 0.4155(12) 0.0104(7) 0.2175(17)
Fe6_2 Fe -0.0000 0.5000 0.0000
Fe3_2 Fe 0.5001 0.0000 0.0000
N16_2 N 0.5570(8) 0.0020(6) 0.1468(14)
N18_2 N 0.4451(6) 0.0020(6) 0.1468(14)
Fe6_3 Fe 1.0000 0.5000 0.0000
Fe7_2 Fe 0.5000 0.4999 0.0000
N2_2 N 0.0891(8) 0.5445(4) 0.006(2)
C2_2 C 0.1202(8) 0.5174(7) 0.009(2)
H1_2 H 0.0999 0.4768 0.0139
C3_2 C 0.1798(8) 0.5451(8) 0.005(2)
H2_2 H 0.1990 0.5237 0.0016
C4_2 C 0.2111(13) 0.6055(6) 0.007(4)
C5_2 C 0.2754(13) 0.6376(6) 0.006(4)
N3_2 N 0.3031(5) 0.6969(5) 0.003(2)
C7_2 C 0.1202(8) 0.6027(11) 0.009(2)
H3_2 H 0.0999 0.6230 0.0139
C11_2 C 0.1798(8) 0.6346(11) 0.005(2)
H4_2 H 0.1990 0.6752 0.0016
N9_2 N 0.3031(5) 0.6061(7) 0.003(2)
C13_2 C 0.3623(14) 0.7246(13) 0.006(4)
C14_2 C 0.3624(6) 0.6377(14) 0.006(4)
N10_2 N 0.3939(7) 0.6969(5) 0.003(2)
C15_2 C 0.3945(14) 0.7889(13) 0.007(4)
C16_2 C 0.3945(6) 0.6055(14) 0.007(4)
C17_2 C 0.3654(11) 0.8202(8) 0.005(2)
C18_2 C 0.4549(8) 0.8202(8) 0.005(2)
C19_2 C 0.4549(8) 0.6346(11) 0.005(2)
C20_2 C 0.3654(11) 0.5451(8) 0.005(2)
C21_2 C 0.3973(11) 0.8798(8) 0.009(2)
H5_2 H 0.3248 0.8010 0.0016
C22_2 C 0.4826(7) 0.8798(8) 0.009(2)
H6_2 H 0.4763 0.8010 0.0016
C23_2 C 0.4826(7) 0.6027(11) 0.009(2)
H7_2 H 0.4763 0.6752 0.0016
C24_2 C 0.3973(11) 0.5174(7) 0.009(2)
H8_2 H 0.3248 0.5237 0.0016
N11_2 N 0.4555(9) 0.9109(8) 0.006(2)
H9_2 H 0.3770 0.9001 0.0139
H10_2 H 0.5232 0.9001 0.0139
N12_2 N 0.4555(4) 0.5445(9) 0.006(2)
H11_2 H 0.5232 0.6230 0.0139
H12_2 H 0.3770 0.4768 0.0139
Fe3_3 Fe 0.5001 1.0000 0.0000
N19_2 N 0.4451(6) 0.4430(8) 0.1468(14)
N20_2 N 0.5570(8) 0.5549(6) 0.1468(14)
N1_2 N 0.9980(6) 0.5549(6) 0.1468(14)
N6_2 N 0.9980(6) 0.4430(8) 0.1468(14)
Au6_3 Au 0.00000(4) 0.70772(3) 0.0000
Au9_4 Au 0.00000(4) 0.29228(3) 0.0000
C36 C 0.0717(10) 0.7488(7) 0.1158(17)
C38 C 0.0717(10) 0.3229(7) 0.1158(17)
N23 N 0.1097(8) 0.3313(6) 0.1865(14)
Fe5 Fe 0.1667 0.3333 0.3333
Au1_2 Au 0.29228(3) 0.29228(3) 0.0000
C6 C 0.2512(7) 0.3229(7) 0.1158(17)
N4 N 0.2216(6) 0.3313(6) 0.1865(14)
Au3_3 Au 0.29228(3) 0.00000(4) 0.0000
Au6_4 Au 1.00000(4) 0.70772(3) 0.0000
Au8_3 Au 0.70772(3) 0.00000(4) 0.0000
Au9_5 Au 1.00000(4) 0.29228(3) 0.0000
Au3_4 Au 0.29228(3) 1.00000(4) 0.0000
C12 C 0.2512(7) 0.9283(10) 0.1158(17)
Au8_4 Au 0.70772(3) 1.00000(4) 0.0000
Au9_6 Au 0.70772(3) 0.70772(5) 0.0000
C38_2 C 0.6771(7) 0.7488(12) 0.1158(17)
N23_2 N 0.6687(6) 0.7784(10) 0.1865(14)
Fe5_2 Fe 0.6667 0.8334 0.3333
C6_2 C 0.6771(7) 0.9283(10) 0.1158(17)
N4_2 N 0.6687(6) 0.8903(8) 0.1865(14)
N4_3 N 0.1097(8) 0.7784(6) 0.1865(14)
Fe2 Fe 0.1666 0.8333 0.3333
N23_3 N 0.2216(10) 0.8903(8) 0.1865(14)
N2_3 N 0.2112(9) 0.7888(4) 0.327(2)
C2_3 C 0.2694(11) 0.8159(7) 0.324(2)
H1_3 H 0.2897 0.8565 0.3194
C3_3 C 0.3013(11) 0.7882(8) 0.328(2)
H2_3 H 0.3419 0.8096 0.3317
C4_3 C 0.2722(14) 0.7278(6) 0.326(4)
C5_3 C 0.3044(14) 0.6957(6) 0.327(4)
N3_3 N 0.2728(7) 0.6364(5) 0.330(2)
N5_2 N 0.1117(10) 0.7764(8) 0.4802(14)
N7 N 0.1221(12) 0.8779(9) 0.340(2)
N8_2 N 0.2236(8) 0.8883(6) 0.4802(14)
C7_3 C 0.1841(14) 0.7306(11) 0.324(2)
C8_2 C 0.0821(12) 0.7384(10) 0.5509(17)
C10_2 C 0.2616(10) 0.9179(7) 0.5509(17)
H3_3 H 0.1435 0.7103 0.3194
C11_3 C 0.2118(14) 0.6987(11) 0.328(2)
Au2_2 Au 0.04105(5) 0.66667(4) 0.6667
Au4_2 Au 0.33333(4) 0.95895(3) 0.6667
H4_3 H 0.1904 0.6581 0.3317
N9_3 N 0.3636(9) 0.7272(7) 0.330(2)
C13_3 C 0.3043(19) 0.6087(13) 0.327(4)
C14_3 C 0.3913(15) 0.6956(14) 0.327(4)
N10_3 N 0.3636(9) 0.6364(5) 0.330(2)
C15_3 C 0.2722(19) 0.5444(13) 0.326(4)
C16_3 C 0.4556(15) 0.7278(14) 0.326(4)
C17_3 C 0.2118(14) 0.5131(8) 0.328(2)
C18_3 C 0.3013(11) 0.5131(8) 0.328(2)
C19_3 C 0.4869(14) 0.6987(11) 0.328(2)
C20_3 C 0.4869(14) 0.7882(8) 0.328(2)
Au5_2 Au 0.62561(5) 0.95895(3) 0.6667
C21_3 C 0.1841(14) 0.4535(8) 0.324(2)
H5_3 H 0.1904 0.5323 0.3317
C22_3 C 0.2694(11) 0.4535(8) 0.324(2)
H6_3 H 0.3419 0.5323 0.3317
C23_3 C 0.5465(13) 0.7306(11) 0.324(2)
H7_3 H 0.4677 0.6581 0.3317
C24_3 C 0.5465(13) 0.8159(7) 0.324(2)
H8_3 H 0.4677 0.8096 0.3317
C25_2 C 0.6562(12) 0.9179(7) 0.5509(17)
N11_3 N 0.2112(12) 0.4224(8) 0.327(2)
H9_3 H 0.1435 0.4332 0.3194
H10_3 H 0.2897 0.4332 0.3194
N12_3 N 0.5776(10) 0.7888(9) 0.327(2)
H11_3 H 0.5668 0.7103 0.3194
H12_3 H 0.5668 0.8565 0.3194
N13_2 N 0.1117(10) 0.3354(6) 0.4802(14)
N14_2 N 0.6646(10) 0.8883(6) 0.4802(14)
N15_2 N 0.1221(9) 0.2443(8) 0.340(2)
N17_2 N 0.2236(8) 0.3354(6) 0.4802(14)
N21_2 N 0.6646(10) 0.7764(8) 0.4802(14)
N22 N 0.7557(10) 0.8779(4) 0.340(2)
C26_2 C 0.0639(11) 0.2132(8) 0.343(2)
C27_2 C 0.1492(14) 0.2132(8) 0.343(2)
C29_2 C 0.2616(10) 0.3438(7) 0.5509(17)
C32_3 C 0.6562(12) 0.7384(10) 0.5509(17)
H13_2 H 0.0436 0.2335 0.3473
C33_2 C 0.0320(11) 0.1536(8) 0.339(2)
H14_2 H 0.1898 0.2335 0.3473
C34_2 C 0.1215(14) 0.1536(8) 0.339(2)
Au7_2 Au 0.33333(4) 0.37439(3) 0.6667
Au10_3 Au 0.62561(5) 0.66667(4) 0.6667
C35_2 C 0.0611(14) 0.1223(13) 0.341(4)
H16_2 H 0.1429 0.1344 0.3350
C37_4 C 0.4050(10) 0.4155(7) 0.7825(17)
C39_4 C 0.5845(12) 0.5950(10) 0.7825(17)
C40_2 C 0.0289(14) 0.0580(13) 0.340(4)
N24_2 N 0.0605(7) 0.0303(5) 0.337(2)
H17_2 H 0.1429 0.0086 0.3350
C41_2 C 0.0290(19) 0.9711(14) 0.340(4)
C43_2 C 0.0611(19) 0.9389(14) 0.341(4)
C45_2 C 0.1215(14) 0.9680(11) 0.339(2)
C46_2 C 0.0320(11) 0.8785(8) 0.339(2)
C49_2 C 0.1492(14) 0.9361(11) 0.343(2)
C50_2 C 0.0639(11) 0.8508(7) 0.343(2)
H21_2 H 0.1898 0.9564 0.3473
H22_2 H 0.0436 0.8102 0.3473
H15_2 H 0.9914 0.1344 0.3350
N25_2 N 0.9697(9) 0.0303(5) 0.337(2)
H20_2 H 0.8656 0.0086 0.3350
C42_2 C 0.9420(15) 0.9710(6) 0.340(4)
N26_2 N 0.9697(9) 0.9395(7) 0.337(2)
C44_2 C 0.8777(15) 0.9389(6) 0.341(4)
C47_2 C 0.8464(14) 0.8785(8) 0.339(2)
C48_2 C 0.8464(14) 0.9680(11) 0.339(2)
H18_2 H 0.9914 0.8571 0.3350
C51_2 C 0.7868(13) 0.8508(7) 0.343(2)
H19_2 H 0.8656 0.8571 0.3350
C52_2 C 0.7868(13) 0.9361(11) 0.343(2)
H23_2 H 0.7665 0.8102 0.3473
H24_2 H 0.7665 0.9564 0.3473
C32_4 C 0.0821(7) 0.3438(12) 0.5509(17)
Au10_4 Au 0.04105(3) 0.37439(5) 0.6667
C37_5 C 0.0104(7) 0.5950(10) 0.7825(17)
C39_5 C 0.0104(7) 0.4155(12) 0.7825(17)
C37_6 C 0.5845(7) 0.9896(7) 0.7825(17)
C39_6 C 0.4050(10) 0.9896(7) 0.7825(17)
Fe6_4 Fe -0.0000 0.5000 1.0000
Fe3_4 Fe 0.5001 0.0000 1.0000
N15_3 N 0.5445(4) 0.0891(8) 0.994(2)
C26_3 C 0.5174(7) 0.1202(8) 0.991(2)
C27_3 C 0.6027(11) 0.1202(8) 0.991(2)
H13_3 H 0.4768 0.0999 0.9861
C33_3 C 0.5451(8) 0.1798(8) 0.995(2)
H14_3 H 0.6230 0.0999 0.9861
C34_3 C 0.6346(11) 0.1798(8) 0.995(2)
C35_3 C 0.6055(6) 0.2111(13) 0.993(4)
H15_3 H 0.5237 0.1990 0.9984
H16_3 H 0.6752 0.1990 0.9984
C40_3 C 0.6376(6) 0.2754(13) 0.994(4)
N24_3 N 0.6969(5) 0.3031(5) 0.997(2)
N25_3 N 0.6061(7) 0.3031(5) 0.997(2)
C41_3 C 0.7246(13) 0.3623(14) 0.994(4)
C42_3 C 0.6377(14) 0.3624(6) 0.994(4)
N26_3 N 0.6969(5) 0.3939(7) 0.997(2)
C43_3 C 0.7889(13) 0.3945(14) 0.993(4)
C44_3 C 0.6055(14) 0.3945(6) 0.993(4)
C45_3 C 0.8202(8) 0.3654(11) 0.995(2)
C46_3 C 0.8202(8) 0.4549(8) 0.995(2)
C47_3 C 0.6346(11) 0.4549(8) 0.995(2)
C48_3 C 0.5451(8) 0.3654(11) 0.995(2)
H17_3 H 0.8010 0.3248 0.9984
C49_3 C 0.8798(8) 0.3973(11) 0.991(2)
C50_3 C 0.8798(8) 0.4826(7) 0.991(2)
H18_3 H 0.8010 0.4763 0.9984
C51_3 C 0.6027(11) 0.4826(7) 0.991(2)
H19_3 H 0.6752 0.4763 0.9984
C52_3 C 0.5174(7) 0.3973(11) 0.991(2)
H20_3 H 0.5237 0.3248 0.9984
N27_2 N 0.9109(8) 0.4555(9) 0.994(2)
H21_3 H 0.9001 0.3770 0.9861
H22_3 H 0.9001 0.5232 0.9861
H23_3 H 0.6230 0.5232 0.9861
N28_2 N 0.5445(9) 0.4555(4) 0.994(2)
H24_3 H 0.4768 0.3770 0.9861
Fe6_5 Fe 1.0000 0.5000 1.0000
Fe7_3 Fe 0.5000 0.4999 1.0000
N5_3 N 0.0020(6) 0.5570(8) 0.8532(14)
N8_3 N 0.0020(6) 0.4451(6) 0.8532(14)
N13_3 N 0.4430(8) 0.9980(6) 0.8532(14)
N14_3 N 0.4430(8) 0.4451(6) 0.8532(14)
Fe3_5 Fe 0.5001 1.0000 1.0000
N17_3 N 0.5549(6) 0.9980(6) 0.8532(14)
N21_3 N 0.5549(6) 0.5570(8) 0.8532(14)
loop_
_geom_bond_atom_site_label_1
_geom_bond_atom_site_label_2
_geom_bond_site_symmetry_1
_geom_bond_site_symmetry_2
N26 C41 1_555 1_555
C43 C41 1_555 1_555
C45 C43 1_555 1_555
C46 C43 1_555 1_555
C49 C45 1_555 1_555
C50 C46 1_555 1_555
H18 C46 1_555 1_555
N27 C49 1_555 1_555
H21 C49 1_555 1_555
H22 C50 1_555 1_555
Fe6 N27 1_555 1_555
C50 N27 1_555 1_555
C44 C42 1_555 1_555
C47 C44 1_555 1_555
C48 C44 1_555 1_555
C51 C47 1_555 1_555
C52 C48 1_555 1_555
H23 C51 1_555 1_555
N28 C51 1_555 1_555
H24 C52 1_555 1_555
Fe7 N28 1_555 1_555
C52 N28 1_555 1_555
Au1 C1 1_555 1_555
C1 N1 1_555 1_555
N1 Fe6 1_555 1_555
Fe6 N2 1_555 1_555
N2 C2 1_555 1_555
C2 H1 1_555 1_555
C3 C2 1_555 1_555
H2 C3 1_555 1_555
C4 C3 1_555 1_555
C5 C4 1_555 1_555
N3 C5 1_555 1_555
N5 Fe6 1_555 1_555
N6 Fe6 1_555 1_555
N8 Fe6 1_555 1_555
C7 N2 1_555 1_555
C8 N5 1_555 1_555
C9 N6 1_555 1_555
C10 N8 1_555 1_555
H3 C7 1_555 1_555
C11 C4 1_555 1_555
Au2 C8 1_555 1_555
Au3 C9 1_555 1_555
Au4 C10 1_555 1_555
H4 C11 1_555 1_555
N9 C5 1_555 1_555
C13 N3 1_555 1_555
C14 N9 1_555 1_555
N10 C13 1_555 1_555
C15 C13 1_555 1_555
C16 C14 1_555 1_555
C17 C15 1_555 1_555
C18 C15 1_555 1_555
C19 C16 1_555 1_555
C20 C16 1_555 1_555
Au5 C25 1_555 1_555
C21 C17 1_555 1_555
H5 C17 1_555 1_555
C22 C18 1_555 1_555
H6 C18 1_555 1_555
C23 C19 1_555 1_555
H7 C19 1_555 1_555
C24 C20 1_555 1_555
H8 C20 1_555 1_555
C25 N14 1_555 1_555
N11 C21 1_555 1_555
H9 C21 1_555 1_555
H10 C22 1_555 1_555
N12 C23 1_555 1_555
H11 C23 1_555 1_555
H12 C24 1_555 1_555
N13 Fe3 1_555 1_555
N14 Fe7 1_555 1_555
Fe3 N11 1_555 1_555
Fe7 N12 1_555 1_555
N15 Fe3 1_555 1_555
N16 Fe3 1_555 1_555
N17 Fe3 1_555 1_555
N18 Fe3 1_555 1_555
N19 Fe7 1_555 1_555
N20 Fe7 1_555 1_555
N21 Fe7 1_555 1_555
C26 N15 1_555 1_555
C27 N15 1_555 1_555
C28 N16 1_555 1_555
C29 N17 1_555 1_555
C30 N19 1_555 1_555
C31 N20 1_555 1_555
C32 N21 1_555 1_555
H13 C26 1_555 1_555
C33 C26 1_555 1_555
H14 C27 1_555 1_555
C34 C27 1_555 1_555
Au6_2 C28 1_555 1_555
Au7 C29 1_555 1_555
Au8 C30 1_555 1_555
Au9_2 C31 1_555 1_555
Au10 C32 1_555 1_555
C35 C33 1_555 1_555
H15 C33 1_555 1_555
C37 Au7 1_555 1_555
C39 Au10 1_555 1_555
C40 C35 1_555 1_555
N25 C40 1_555 1_555
C7 C11 1_555 1_555
C14 N10 1_555 1_555
C22 N11 1_555 1_555
C24 N12 1_555 1_555
C34 C35 1_555 1_555
C31_2 N18 1_555 1_555
C32_2 N13 1_555 1_555
Au9_3 C31_2 1_555 1_555
Au10_2 C32_2 1_555 1_555
C37_2 Au2 1_555 1_555
C39_2 Au10_2 1_555 1_555
C37_3 Au5 1_555 1_555
C39_3 Au4 1_555 1_555
N16_2 Fe3_2 1_555 1_555
N18_2 Fe3_2 1_555 1_555
C37_3 N16_2 1_555 1_555
Fe6_2 N2_2 1_555 1_555
N2_2 C2_2 1_555 1_555
C2_2 H1_2 1_555 1_555
C3_2 C2_2 1_555 1_555
H2_2 C3_2 1_555 1_555
C4_2 C3_2 1_555 1_555
C5_2 C4_2 1_555 1_555
N3_2 C5_2 1_555 1_555
C7_2 N2_2 1_555 1_555
H3_2 C7_2 1_555 1_555
C11_2 C4_2 1_555 1_555
H4_2 C11_2 1_555 1_555
N9_2 C5_2 1_555 1_555
C13_2 N3_2 1_555 1_555
C14_2 N9_2 1_555 1_555
N10_2 C13_2 1_555 1_555
C15_2 C13_2 1_555 1_555
C16_2 C14_2 1_555 1_555
C17_2 C15_2 1_555 1_555
C18_2 C15_2 1_555 1_555
C19_2 C16_2 1_555 1_555
C20_2 C16_2 1_555 1_555
C21_2 C17_2 1_555 1_555
H5_2 C17_2 1_555 1_555
C22_2 C18_2 1_555 1_555
H6_2 C18_2 1_555 1_555
C23_2 C19_2 1_555 1_555
H7_2 C19_2 1_555 1_555
C24_2 C20_2 1_555 1_555
H8_2 C20_2 1_555 1_555
N11_2 C21_2 1_555 1_555
H9_2 C21_2 1_555 1_555
H10_2 C22_2 1_555 1_555
N12_2 C23_2 1_555 1_555
H11_2 C23_2 1_555 1_555
H12_2 C24_2 1_555 1_555
Fe3_3 N11_2 1_555 1_555
Fe7_2 N12_2 1_555 1_555
N19_2 Fe7_2 1_555 1_555
N20_2 Fe7_2 1_555 1_555
C37_2 N19_2 1_555 1_555
C39_2 N20_2 1_555 1_555
C7_2 C11_2 1_555 1_555
C14_2 N10_2 1_555 1_555
C22_2 N11_2 1_555 1_555
C24_2 N12_2 1_555 1_555
C37 N1_2 1_555 1_555
N1_2 Fe6_3 1_555 1_555
N6_2 Fe6_3 1_555 1_555
C39 N6_2 1_555 1_555
C39_3 N18_2 1_555 1_555
C36 Au6_3 1_555 1_555
C38 Au9_4 1_555 1_555
N23 C38 1_555 1_555
Fe5 N23 1_555 1_555
C6 Au1_2 1_555 1_555
N4 C6 1_555 1_555
Fe5 N4 1_555 1_555
C12 Au3_4 1_555 1_555
C38_2 Au9_6 1_555 1_555
N23_2 C38_2 1_555 1_555
Fe5_2 N23_2 1_555 1_555
C6_2 Au8_4 1_555 1_555
N4_2 C6_2 1_555 1_555
Fe5_2 N4_2 1_555 1_555
N4_3 C36 1_555 1_555
Fe2 N4_3 1_555 1_555
N23_3 C12 1_555 1_555
Fe2 N23_3 1_555 1_555
Fe2 N2_3 1_555 1_555
N2_3 C2_3 1_555 1_555
C2_3 H1_3 1_555 1_555
C3_3 C2_3 1_555 1_555
H2_3 C3_3 1_555 1_555
C4_3 C3_3 1_555 1_555
C5_3 C4_3 1_555 1_555
N3_3 C5_3 1_555 1_555
N5_2 Fe2 1_555 1_555
N7 Fe2 1_555 1_555
N8_2 Fe2 1_555 1_555
C7_3 N2_3 1_555 1_555
C8_2 N5_2 1_555 1_555
C10_2 N8_2 1_555 1_555
H3_3 C7_3 1_555 1_555
C11_3 C4_3 1_555 1_555
Au2_2 C8_2 1_555 1_555
Au4_2 C10_2 1_555 1_555
H4_3 C11_3 1_555 1_555
N9_3 C5_3 1_555 1_555
C13_3 N3_3 1_555 1_555
C14_3 N9_3 1_555 1_555
N10_3 C13_3 1_555 1_555
C15_3 C13_3 1_555 1_555
C16_3 C14_3 1_555 1_555
C17_3 C15_3 1_555 1_555
C18_3 C15_3 1_555 1_555
C19_3 C16_3 1_555 1_555
C20_3 C16_3 1_555 1_555
Au5_2 C25_2 1_555 1_555
C21_3 C17_3 1_555 1_555
H5_3 C17_3 1_555 1_555
C22_3 C18_3 1_555 1_555
H6_3 C18_3 1_555 1_555
C23_3 C19_3 1_555 1_555
H7_3 C19_3 1_555 1_555
C24_3 C20_3 1_555 1_555
H8_3 C20_3 1_555 1_555
C25_2 N14_2 1_555 1_555
N11_3 C21_3 1_555 1_555
H9_3 C21_3 1_555 1_555
H10_3 C22_3 1_555 1_555
N12_3 C23_3 1_555 1_555
H11_3 C23_3 1_555 1_555
H12_3 C24_3 1_555 1_555
N13_2 Fe5 1_555 1_555
N14_2 Fe5_2 1_555 1_555
Fe5 N11_3 1_555 1_555
Fe5_2 N12_3 1_555 1_555
N15_2 Fe5 1_555 1_555
N17_2 Fe5 1_555 1_555
N21_2 Fe5_2 1_555 1_555
N22 Fe5_2 1_555 1_555
C26_2 N15_2 1_555 1_555
C27_2 N15_2 1_555 1_555
C29_2 N17_2 1_555 1_555
C32_3 N21_2 1_555 1_555
H13_2 C26_2 1_555 1_555
C33_2 C26_2 1_555 1_555
H14_2 C27_2 1_555 1_555
C34_2 C27_2 1_555 1_555
Au7_2 C29_2 1_555 1_555
Au10_3 C32_3 1_555 1_555
C35_2 C33_2 1_555 1_555
H16_2 C34_2 1_555 1_555
C37_4 Au7_2 1_555 1_555
C39_4 Au10_3 1_555 1_555
C40_2 C35_2 1_555 1_555
N24_2 C40_2 1_555 1_555
C7_3 C11_3 1_555 1_555
C14_3 N10_3 1_555 1_555
C22_3 N11_3 1_555 1_555
C24_3 N12_3 1_555 1_555
C34_2 C35_2 1_555 1_555
C43_2 C41_2 1_555 1_555
C45_2 C43_2 1_555 1_555
C46_2 C43_2 1_555 1_555
C49_2 C45_2 1_555 1_555
C50_2 C46_2 1_555 1_555
N7 C49_2 1_555 1_555
H21_2 C49_2 1_555 1_555
H22_2 C50_2 1_555 1_555
C50_2 N7 1_555 1_555
C44_2 C42_2 1_555 1_555
C47_2 C44_2 1_555 1_555
C48_2 C44_2 1_555 1_555
C51_2 C47_2 1_555 1_555
H19_2 C47_2 1_555 1_555
C52_2 C48_2 1_555 1_555
H23_2 C51_2 1_555 1_555
N22 C51_2 1_555 1_555
H24_2 C52_2 1_555 1_555
C42_2 N26_2 1_555 1_555
C52_2 N22 1_555 1_555
C32_4 N13_2 1_555 1_555
Au10_4 C32_4 1_555 1_555
C37_5 Au2_2 1_555 1_555
C39_5 Au10_4 1_555 1_555
C37_6 Au5_2 1_555 1_555
C39_6 Au4_2 1_555 1_555
N15_3 Fe3_4 1_555 1_555
C26_3 N15_3 1_555 1_555
C27_3 N15_3 1_555 1_555
H13_3 C26_3 1_555 1_555
C33_3 C26_3 1_555 1_555
H14_3 C27_3 1_555 1_555
C34_3 C27_3 1_555 1_555
C35_3 C33_3 1_555 1_555
H15_3 C33_3 1_555 1_555
H16_3 C34_3 1_555 1_555
C40_3 C35_3 1_555 1_555
N24_3 C40_3 1_555 1_555
N25_3 C40_3 1_555 1_555
C41_3 N24_3 1_555 1_555
C42_3 N25_3 1_555 1_555
N26_3 C41_3 1_555 1_555
C43_3 C41_3 1_555 1_555
C44_3 C42_3 1_555 1_555
C45_3 C43_3 1_555 1_555
C46_3 C43_3 1_555 1_555
C47_3 C44_3 1_555 1_555
C48_3 C44_3 1_555 1_555
H17_3 C45_3 1_555 1_555
C49_3 C45_3 1_555 1_555
C50_3 C46_3 1_555 1_555
H18_3 C46_3 1_555 1_555
C51_3 C47_3 1_555 1_555
H19_3 C47_3 1_555 1_555
C52_3 C48_3 1_555 1_555
H20_3 C48_3 1_555 1_555
N27_2 C49_3 1_555 1_555
H21_3 C49_3 1_555 1_555
H22_3 C50_3 1_555 1_555
H23_3 C51_3 1_555 1_555
N28_2 C51_3 1_555 1_555
H24_3 C52_3 1_555 1_555
Fe6_5 N27_2 1_555 1_555
Fe7_3 N28_2 1_555 1_555
C34_3 C35_3 1_555 1_555
C42_3 N26_3 1_555 1_555
C50_3 N27_2 1_555 1_555
C52_3 N28_2 1_555 1_555
N5_3 Fe6_4 1_555 1_555
N8_3 Fe6_4 1_555 1_555
C37_5 N5_3 1_555 1_555
C39_5 N8_3 1_555 1_555
C37_4 N14_3 1_555 1_555
N13_3 Fe3_5 1_555 1_555
N14_3 Fe7_3 1_555 1_555
N17_3 Fe3_5 1_555 1_555
N21_3 Fe7_3 1_555 1_555
C37_6 N17_3 1_555 1_555
C39_4 N21_3 1_555 1_555
C39_6 N13_3 1_555 1_555

#END
