
###############################################################################
#
# This file contains modified crystal structure data generated from the
# MOF subset of the Cambridge Structural Database (CSD) v543 
# hosted by the Cambridge Crystallographic Data Centre (CCDC).
#
# This work is licensed under the Creative Commons
# Attribution-NonCommercial-ShareAlike 4.0 International License.
# To view a copy of this license, visit
# http://creativecommons.org/licenses/by-nc-sa/4.0/
# or send a letter to
# Creative Commons, PO Box 1866, Mountain View, CA 94042, USA.
#
# CIF created using the CSD Python API on 29 September 2022
# The structure has been converted into the P1 space group
# The structure has a 3D framework
# The original CSD entry YOYVOZ01 is in the rhombohedral crystal system
# The framework has been calculated to contain at least 10.0% void space
# The void calculation uses a probe of radius 1.32A, grid spacing 0.4
#
###############################################################################

data_YOYVOZ01
_chemical_formula_moiety         '(C144 H72 Au22 Fe15 N72)n'
_symmetry_cell_setting           triclinic
_symmetry_space_group_name_H-M   'P 1'
_symmetry_Int_Tables_number      1
_space_group_name_Hall           'P 1'
loop_
_symmetry_equiv_pos_site_id
_symmetry_equiv_pos_as_xyz
1 x,y,z
_cell_length_a                   26.8078(12)
_cell_length_b                   26.8078(12)
_cell_length_c                   9.9406(6)
_cell_angle_alpha                90
_cell_angle_beta                 90
_cell_angle_gamma                120
_cell_volume                     6186.79
loop_
_atom_site_label
_atom_site_type_symbol
_atom_site_fract_x
_atom_site_fract_y
_atom_site_fract_z
Au1 Au 0.0000 0.29173(3) -0.0000
N10 N 0.1079(5) 0.3330(7) 0.1813(12)
C22 C 0.0703(6) 0.3226(8) 0.1159(16)
Au2 Au 0.0000 0.70827(3) -0.0000
N12 N 0.1079(5) 0.7749(5) 0.1813(12)
C24 C 0.0703(6) 0.7477(6) 0.1159(16)
Fe6 Fe 0.1667 0.3334 0.3333
Fe7 Fe 0.1667 0.8333 0.3333
Au1_2 Au 1.0000 0.29173(3) -0.0000
Au2_2 Au 1.0000 0.70827(3) -0.0000
Au3 Au 0.29173(3) 0.29173(3) -0.0000
Au4 Au 0.70827(3) 0.0000 -0.0000
Au5 Au 0.70827(3) 0.70827(3) -0.0000
Au6 Au 0.29173(3) 0.0000 -0.0000
C49 C 0.6774(8) 0.7477(6) 0.1159(16)
C51 C 0.2523(6) 0.3226(8) 0.1159(16)
Au4_2 Au 0.70827(3) 1.0000 -0.0000
Au6_2 Au 0.29173(3) 1.0000 -0.0000
C50 C 0.2523(6) 0.9297(6) 0.1159(16)
C52 C 0.6774(8) 0.9297(6) 0.1159(16)
N10_2 N 0.6670(7) 0.7749(9) 0.1813(12)
N12_2 N 0.2251(5) 0.3330(7) 0.1813(12)
Fe6_2 Fe 0.6666 0.8333 0.3333
N10_3 N 0.2251(9) 0.8921(5) 0.1813(12)
N12_3 N 0.6670(7) 0.8921(5) 0.1813(12)
N19 N 0.0606(9) 0.0303(8) 0.3367(15)
H14 H 0.1404 0.0089 0.3470
N22 N 0.1199(5) 0.2399(4) 0.3396(15)
C38 C 0.0623(10) 0.2090(8) 0.3421(15)
H17 H 0.0422 0.2290 0.3428
C39 C 0.0311(10) 0.1506(8) 0.3436(15)
C40 C 0.0600(7) 0.1201(6) 0.3401(19)
C41 C 0.0283(7) 0.0567(6) 0.3407(18)
C42 C 0.1466(10) 0.2090(8) 0.3421(15)
H19 H 0.1867 0.2290 0.3428
C43 C 0.1194(10) 0.1506(8) 0.3436(15)
H20 H 0.1404 0.1316 0.3470
N1 N 0.5732(4) 0.7866(3) 0.3271(15)
N3 N 0.3636(8) 0.7273(7) 0.3300(15)
C1 C 0.5423(8) 0.8133(6) 0.3246(15)
H1 H 0.5623 0.8534 0.3239
C2 C 0.4839(8) 0.7861(6) 0.3231(15)
H2 H 0.4649 0.8071 0.3197
C3 C 0.4534(6) 0.7267(4) 0.3266(19)
C4 C 0.3900(6) 0.6950(4) 0.3260(18)
N4 N 0.2134(5) 0.4268(4) 0.3271(15)
N5 N 0.3637(11) 0.6364(8) 0.3300(15)
C6 C 0.2710(10) 0.4577(8) 0.3246(15)
H3 H 0.2911 0.4377 0.3239
C7 C 0.3022(10) 0.5161(8) 0.3231(15)
H4 H 0.3422 0.5351 0.3197
C8 C 0.2733(7) 0.5466(6) 0.3266(19)
C9 C 0.3050(7) 0.6100(6) 0.3260(18)
N6 N 0.2134(5) 0.7866(3) 0.3271(15)
N7 N 0.2727(9) 0.6363(3) 0.3300(15)
C10 C 0.1867(10) 0.7290(6) 0.3246(15)
H5 H 0.1466 0.7089 0.3239
C11 C 0.2139(10) 0.6978(6) 0.3231(15)
H6 H 0.1929 0.6578 0.3197
C12 C 0.2733(7) 0.7267(4) 0.3266(19)
C13 C 0.3050(7) 0.6950(4) 0.3260(18)
C14 C 0.2710(10) 0.8133(6) 0.3246(15)
H7 H 0.2911 0.8534 0.3239
C15 C 0.3022(10) 0.7861(6) 0.3231(15)
H8 H 0.3422 0.8071 0.3197
C16 C 0.1867(10) 0.4577(8) 0.3246(15)
H9 H 0.1466 0.4377 0.3239
C17 C 0.2139(10) 0.5161(8) 0.3231(15)
H10 H 0.1929 0.5351 0.3197
C18 C 0.5423(8) 0.7290(6) 0.3246(15)
H11 H 0.5623 0.7089 0.3239
C19 C 0.4839(8) 0.6978(6) 0.3231(15)
H12 H 0.4649 0.6578 0.3197
N11 N 0.6663(7) 0.7746(5) 0.4854(12)
C23 C 0.6559(8) 0.7370(6) 0.5508(16)
N16 N 0.6663(7) 0.8918(5) 0.4854(12)
C28 C 0.6559(8) 0.9190(6) 0.5508(16)
N17 N 0.2254(9) 0.3337(7) 0.4854(12)
C29 C 0.2630(10) 0.3441(8) 0.5508(16)
N18 N 0.1199(5) 0.8801(3) 0.3396(15)
C30 C 0.1466(10) 0.9377(6) 0.3421(15)
H13 H 0.1867 0.9578 0.3428
C31 C 0.1194(10) 0.9689(6) 0.3436(15)
C32 C 0.0600(7) 0.9400(4) 0.3401(19)
C33 C 0.0283(7) 0.9717(4) 0.3407(18)
C46 C 0.0623(10) 0.8534(6) 0.3421(15)
H23 H 0.0422 0.8133 0.3428
C47 C 0.0311(10) 0.8806(6) 0.3436(15)
N24 N 0.1082(9) 0.3337(7) 0.4854(12)
C48 C 0.0810(10) 0.3441(8) 0.5508(16)
Au7 Au 0.04160(3) 0.37494(3) 0.6667
Au8 Au 0.62506(3) 0.6667 0.6667
Au9 Au 0.62506(3) 0.95840(3) 0.6667
Au10 Au 0.33333(4) 0.37494(3) 0.6667
N26 N 0.7601(4) 0.8801(3) 0.3396(15)
N27 N 0.2254(9) 0.8918(5) 0.4854(12)
N28 N 0.1082(9) 0.7746(5) 0.4854(12)
N23 N 0.9697(8) 0.0304(3) 0.3367(15)
H18 H 0.9911 0.1316 0.3470
H22 H 0.8684 0.0089 0.3470
N21 N 0.9696(11) 0.9394(7) 0.3367(15)
C34 C 0.7910(8) 0.8534(6) 0.3421(15)
H15 H 0.7710 0.8133 0.3428
C35 C 0.8494(8) 0.8806(6) 0.3436(15)
H16 H 0.8684 0.8596 0.3470
C36 C 0.8799(6) 0.9400(4) 0.3401(19)
C37 C 0.9433(6) 0.9717(4) 0.3407(18)
C44 C 0.7910(8) 0.9377(6) 0.3421(15)
H21 H 0.7710 0.9578 0.3428
C45 C 0.8494(8) 0.9689(6) 0.3436(15)
H24 H 0.9911 0.8596 0.3470
C29_2 C 0.0810(6) 0.7370(10) 0.5508(16)
C48_2 C 0.2630(6) 0.9190(10) 0.5508(16)
Au7_2 Au 0.3333 0.95840(3) 0.6667
Au10_2 Au 0.04160(3) 0.66667(4) 0.6667
N25 N 0.5467(3) 0.0935(4) 0.9938(15)
Fe1 Fe 0.5000 0.5000 1.0000
Fe2 Fe 0.5000 0.9999 1.0000
Fe3 Fe 0.0001 0.5000 1.0000
N11_2 N 0.5584(5) 0.5588(5) 0.8480(12)
C23_2 C 0.5856(6) 0.5964(6) 0.7826(16)
N16_2 N 0.4412(5) 0.4416(5) 0.8480(12)
C28_2 C 0.4036(6) 0.4144(6) 0.7826(16)
N17_2 N 0.5584(5) 0.9997(7) 0.8480(12)
C29_3 C 0.5856(6) 0.9893(8) 0.7826(16)
N24_2 N 0.4412(5) 0.9997(7) 0.8480(12)
C48_3 C 0.4036(6) 0.9893(8) 0.7826(16)
N26_2 N 0.5467(3) 0.4533(3) 0.9938(15)
N27_2 N 0.0003(7) 0.4416(5) 0.8480(12)
N28_2 N 0.0003(7) 0.5588(5) 0.8480(12)
N18_2 N 0.9065(4) 0.4533(3) 0.9938(15)
N19_2 N 0.6970(3) 0.3031(8) 0.9967(15)
C30_2 C 0.8756(8) 0.3957(6) 0.9913(15)
H13_2 H 0.8956 0.3756 0.9906
C31_2 C 0.8172(8) 0.3645(6) 0.9898(15)
H14_2 H 0.7982 0.3245 0.9864
C32_2 C 0.7867(6) 0.3934(4) 0.9933(19)
C33_2 C 0.7233(6) 0.3617(4) 0.9927(18)
N21_2 N 0.6969(8) 0.3940(7) 0.9967(15)
C34_2 C 0.6043(6) 0.4800(6) 0.9913(15)
H15_2 H 0.6244 0.5201 0.9906
C35_2 C 0.6355(6) 0.4528(6) 0.9898(15)
H16_2 H 0.6755 0.4738 0.9864
C36_2 C 0.6066(4) 0.3934(4) 0.9933(19)
C37_2 C 0.6383(4) 0.3617(4) 0.9927(18)
N23_2 N 0.6060(7) 0.3030(3) 0.9967(15)
C38_2 C 0.5200(6) 0.1244(8) 0.9913(15)
H17_2 H 0.4799 0.1044 0.9906
C39_2 C 0.5472(6) 0.1828(8) 0.9898(15)
H18_2 H 0.5262 0.2018 0.9864
C40_2 C 0.6066(4) 0.2133(6) 0.9933(19)
C41_2 C 0.6383(4) 0.2767(6) 0.9927(18)
C42_2 C 0.6043(6) 0.1244(8) 0.9913(15)
H19_2 H 0.6244 0.1044 0.9906
C43_2 C 0.6355(6) 0.1828(8) 0.9898(15)
H20_2 H 0.6755 0.2018 0.9864
C44_2 C 0.5200(6) 0.3957(6) 0.9913(15)
H21_2 H 0.4799 0.3756 0.9906
C45_2 C 0.5472(6) 0.3645(6) 0.9898(15)
H22_2 H 0.5262 0.3245 0.9864
C46_2 C 0.8756(8) 0.4800(6) 0.9913(15)
H23_2 H 0.8956 0.5201 0.9906
C47_2 C 0.8172(8) 0.4528(6) 0.9898(15)
H24_2 H 0.7982 0.4738 0.9864
C29_4 C 0.0107(8) 0.5964(10) 0.7826(16)
C48_4 C 0.0107(8) 0.4144(10) 0.7826(16)
Fe6_3 Fe 0.5000 0.0001 1.0000
Fe6_4 Fe 0.9999 0.5000 1.0000
Au1_3 Au 0.0000 0.29173(3) 1.0000
Au2_3 Au -0.0000 0.70827(3) 1.0000
Au1_4 Au 1.0000 0.29173(3) 1.0000
Fe1_2 Fe 0.8333 0.1667 0.6667
N1_2 N 0.7866(3) 0.2134(3) 0.6729(15)
N2 N 0.8921(5) 0.2251(5) 0.8187(12)
N3_2 N 0.6363(3) 0.2727(7) 0.6700(15)
C1_2 C 0.7290(6) 0.1867(6) 0.6754(15)
H1_2 H 0.7089 0.1466 0.6761
C2_2 C 0.6978(6) 0.2139(6) 0.6769(15)
H2_2 H 0.6578 0.1929 0.6803
C3_2 C 0.7267(4) 0.2733(4) 0.6734(19)
C4_2 C 0.6950(4) 0.3050(4) 0.6740(18)
C5 C 0.9297(6) 0.2523(6) 0.8841(16)
N4_2 N 0.7866(3) 0.5732(4) 0.6729(15)
N5_2 N 0.7273(7) 0.3636(8) 0.6700(15)
C6_2 C 0.8133(6) 0.5423(8) 0.6754(15)
H3_2 H 0.8534 0.5623 0.6761
C7_2 C 0.7861(6) 0.4839(8) 0.6769(15)
H4_2 H 0.8071 0.4649 0.6803
C8_2 C 0.7267(4) 0.4534(6) 0.6734(19)
C9_2 C 0.6950(4) 0.3900(6) 0.6740(18)
N6_2 N 0.4268(4) 0.2134(3) 0.6729(15)
N7_2 N 0.6364(8) 0.3637(3) 0.6700(15)
C10_2 C 0.4577(8) 0.2710(6) 0.6754(15)
H5_2 H 0.4377 0.2911 0.6761
C11_2 C 0.5161(8) 0.3022(6) 0.6769(15)
H6_2 H 0.5351 0.3422 0.6803
C12_2 C 0.5466(6) 0.2733(4) 0.6734(19)
C13_2 C 0.6100(6) 0.3050(4) 0.6740(18)
C14_2 C 0.4577(8) 0.1867(6) 0.6754(15)
H7_2 H 0.4377 0.1466 0.6761
C15_2 C 0.5161(8) 0.2139(6) 0.6769(15)
H8_2 H 0.5351 0.1929 0.6803
C16_2 C 0.7290(6) 0.5423(8) 0.6754(15)
H9_2 H 0.7089 0.5623 0.6761
C17_2 C 0.6978(6) 0.4839(8) 0.6769(15)
H10_2 H 0.6578 0.4649 0.6803
C18_2 C 0.8133(6) 0.2710(6) 0.6754(15)
H11_2 H 0.8534 0.2911 0.6761
C19_2 C 0.7861(6) 0.3022(6) 0.6769(15)
H12_2 H 0.8071 0.3422 0.6803
Fe2_2 Fe 0.8333 0.6666 0.6667
N8 N 0.7749(5) 0.6670(7) 0.8187(12)
C20 C 0.7477(6) 0.6774(8) 0.8841(16)
Fe3_2 Fe 0.3334 0.1667 0.6667
N9 N 0.3330(7) 0.1079(5) 0.8187(12)
C21 C 0.3226(8) 0.0703(6) 0.8841(16)
N11_3 N 0.8918(5) 0.2254(5) 0.5146(12)
C23_3 C 0.9190(6) 0.2630(6) 0.4492(16)
Au2_4 Au 1.0000 0.70827(3) 1.0000
Au3_2 Au 0.29173(3) 0.29173(3) 1.0000
N13 N 0.3330(7) 0.2251(5) 0.8187(12)
C25 C 0.3226(8) 0.2523(6) 0.8841(16)
N14 N 0.8921(5) 0.6670(7) 0.8187(12)
C26 C 0.9297(6) 0.6774(8) 0.8841(16)
Au4_3 Au 0.70827(3) 0.0000 1.0000
N15 N 0.7749(5) 0.1079(5) 0.8187(12)
C27 C 0.7477(6) 0.0703(6) 0.8841(16)
N16_3 N 0.7746(5) 0.1082(5) 0.5146(12)
C28_3 C 0.7370(6) 0.0810(6) 0.4492(16)
N17_3 N 0.8918(5) 0.6663(7) 0.5146(12)
C29_5 C 0.9190(6) 0.6559(8) 0.4492(16)
N18_3 N 0.2399(4) 0.1199(3) 0.6604(15)
C30_3 C 0.2090(8) 0.0623(6) 0.6579(15)
H13_3 H 0.2290 0.0422 0.6572
C31_3 C 0.1506(8) 0.0311(6) 0.6564(15)
C32_3 C 0.1201(6) 0.0600(4) 0.6599(19)
C33_3 C 0.0567(6) 0.0283(4) 0.6593(18)
N21_3 N 0.0303(8) 0.0606(7) 0.6633(15)
H16_3 H 0.0089 0.1404 0.6530
C46_3 C 0.2090(8) 0.1466(6) 0.6579(15)
H23_3 H 0.2290 0.1867 0.6572
C47_3 C 0.1506(8) 0.1194(6) 0.6564(15)
H24_3 H 0.1316 0.1404 0.6530
N24_3 N 0.7746(5) 0.6663(7) 0.5146(12)
C48_5 C 0.7370(6) 0.6559(8) 0.4492(16)
Au5_2 Au 0.70827(3) 0.70827(3) 1.0000
Au6_3 Au 0.29173(3) 0.0000 1.0000
Au7_3 Au 0.6667 0.62506(3) 0.3333
Au8_2 Au 0.95840(3) 0.3333 0.3333
Au9_2 Au 0.6667 0.04160(3) 0.3333
Au10_3 Au 0.95840(3) 0.62506(3) 0.3333
N25_2 N 0.8801(3) 0.7601(4) 0.6604(15)
N26_3 N 0.8801(3) 0.1199(3) 0.6604(15)
N27_3 N 0.3337(7) 0.1082(5) 0.5146(12)
N28_3 N 0.3337(7) 0.2254(5) 0.5146(12)
Au4_4 Au 0.70827(3) 1.0000 1.0000
N19_3 N 0.0304(3) 0.9697(8) 0.6633(15)
H14_3 H 0.1316 0.9911 0.6530
H20_3 H 0.0089 0.8684 0.6530
Au6_4 Au 0.29173(3) 1.0000 1.0000
C34_3 C 0.9377(6) 0.1466(6) 0.6579(15)
H15_3 H 0.9578 0.1867 0.6572
C35_3 C 0.9689(6) 0.1194(6) 0.6564(15)
C36_3 C 0.9400(4) 0.0600(4) 0.6599(19)
C37_3 C 0.9717(4) 0.0283(4) 0.6593(18)
C44_3 C 0.8534(6) 0.0623(6) 0.6579(15)
H21_3 H 0.8133 0.0422 0.6572
C45_3 C 0.8806(6) 0.0311(6) 0.6564(15)
N23_3 N 0.9394(7) 0.9696(3) 0.6633(15)
C38_3 C 0.8534(6) 0.7910(8) 0.6579(15)
H17_3 H 0.8133 0.7710 0.6572
C39_3 C 0.8806(6) 0.8494(8) 0.6564(15)
H18_3 H 0.8596 0.8684 0.6530
C40_3 C 0.9400(4) 0.8799(6) 0.6599(19)
C41_3 C 0.9717(4) 0.9433(6) 0.6593(18)
C42_3 C 0.9377(6) 0.7910(8) 0.6579(15)
H19_3 H 0.9578 0.7710 0.6572
C43_3 C 0.9689(6) 0.8494(8) 0.6564(15)
H22_3 H 0.8596 0.9911 0.6530
C29_6 C 0.3441(8) 0.2630(10) 0.4492(16)
C48_6 C 0.3441(8) 0.0810(10) 0.4492(16)
Au7_4 Au 0.37494(3) 0.04160(3) 0.3333
Au10_4 Au 0.37494(3) 0.33333(4) 0.3333
N8_2 N 0.4416(5) 0.0003(7) 0.1520(12)
C20_2 C 0.4144(6) 0.0107(8) 0.2174(16)
N14_2 N 0.5588(5) 0.0003(7) 0.1520(12)
C26_2 C 0.5964(6) 0.0107(8) 0.2174(16)
Fe1_3 Fe 0.5000 0.5000 0.0000
N1_3 N 0.4533(3) 0.5467(3) 0.0062(15)
N2_2 N 0.5588(5) 0.5584(5) 0.1520(12)
N3_3 N 0.3030(3) 0.6060(7) 0.0033(15)
C1_3 C 0.3957(6) 0.5200(6) 0.0087(15)
H1_3 H 0.3756 0.4799 0.0094
C2_3 C 0.3645(6) 0.5472(6) 0.0102(15)
H2_3 H 0.3245 0.5262 0.0136
C3_3 C 0.3934(4) 0.6066(4) 0.0067(19)
C4_3 C 0.3617(4) 0.6383(4) 0.0073(18)
C5_2 C 0.5964(6) 0.5856(6) 0.2174(16)
N4_3 N 0.4533(3) 0.9065(4) 0.0062(15)
N5_3 N 0.3940(7) 0.6969(8) 0.0033(15)
C6_3 C 0.4800(6) 0.8756(8) 0.0087(15)
H3_3 H 0.5201 0.8956 0.0094
C7_3 C 0.4528(6) 0.8172(8) 0.0102(15)
H4_3 H 0.4738 0.7982 0.0136
C8_3 C 0.3934(4) 0.7867(6) 0.0067(19)
C9_3 C 0.3617(4) 0.7233(6) 0.0073(18)
N6_3 N 0.0935(4) 0.5467(3) 0.0062(15)
N7_3 N 0.3031(8) 0.6970(3) 0.0033(15)
C10_3 C 0.1244(8) 0.6043(6) 0.0087(15)
H5_3 H 0.1044 0.6244 0.0094
C11_3 C 0.1828(8) 0.6355(6) 0.0102(15)
H6_3 H 0.2018 0.6755 0.0136
C12_3 C 0.2133(6) 0.6066(4) 0.0067(19)
C13_3 C 0.2767(6) 0.6383(4) 0.0073(18)
C14_3 C 0.1244(8) 0.5200(6) 0.0087(15)
H7_3 H 0.1044 0.4799 0.0094
C15_3 C 0.1828(8) 0.5472(6) 0.0102(15)
H8_3 H 0.2018 0.5262 0.0136
C16_3 C 0.3957(6) 0.8756(8) 0.0087(15)
H9_3 H 0.3756 0.8956 0.0094
C17_3 C 0.3645(6) 0.8172(8) 0.0102(15)
H10_3 H 0.3245 0.7982 0.0136
C18_3 C 0.4800(6) 0.6043(6) 0.0087(15)
H11_3 H 0.5201 0.6244 0.0094
C19_3 C 0.4528(6) 0.6355(6) 0.0102(15)
H12_3 H 0.4738 0.6755 0.0136
Fe2_3 Fe 0.5000 0.9999 0.0000
Fe3_3 Fe 0.0001 0.5000 0.0000
N15_2 N 0.4416(5) 0.4412(5) 0.1520(12)
C27_2 C 0.4144(6) 0.4036(6) 0.2174(16)
N9_2 N 0.9997(7) 0.4412(5) 0.1520(12)
C21_2 C 0.9893(8) 0.4036(6) 0.2174(16)
N13_2 N 0.9997(7) 0.5584(5) 0.1520(12)
C25_2 C 0.9893(8) 0.5856(6) 0.2174(16)
Fe6_5 Fe 0.5000 0.0001 -0.0000
Fe6_6 Fe 0.9999 0.5000 -0.0000
loop_
_geom_bond_atom_site_label_1
_geom_bond_atom_site_label_2
_geom_bond_site_symmetry_1
_geom_bond_site_symmetry_2
N10 C22 1_555 1_555
C22 Au1 1_555 1_555
Au2 C24 1_555 1_555
N12 C24 1_555 1_555
Fe6 N10 1_555 1_555
Fe7 N12 1_555 1_555
C49 Au5 1_555 1_555
C51 Au3 1_555 1_555
C50 Au6_2 1_555 1_555
C52 Au4_2 1_555 1_555
N10_2 C49 1_555 1_555
N12_2 C51 1_555 1_555
Fe6_2 N10_2 1_555 1_555
Fe6 N12_2 1_555 1_555
N10_3 C50 1_555 1_555
N12_3 C52 1_555 1_555
Fe7 N10_3 1_555 1_555
Fe6_2 N12_3 1_555 1_555
N22 C38 1_555 1_555
C38 H17 1_555 1_555
C39 C38 1_555 1_555
C40 C39 1_555 1_555
C41 N19 1_555 1_555
C42 N22 1_555 1_555
H19 C42 1_555 1_555
C43 C40 1_555 1_555
H20 C43 1_555 1_555
Fe6 N22 1_555 1_555
C40 C41 1_555 1_555
C42 C43 1_555 1_555
Fe6_2 N1 1_555 1_555
N1 C1 1_555 1_555
N3 C4 1_555 1_555
C1 H1 1_555 1_555
C2 C1 1_555 1_555
H2 C2 1_555 1_555
C3 C2 1_555 1_555
C4 C3 1_555 1_555
N4 C6 1_555 1_555
N5 C4 1_555 1_555
C6 H3 1_555 1_555
C7 C6 1_555 1_555
H4 C7 1_555 1_555
C8 C7 1_555 1_555
C9 N5 1_555 1_555
N6 C10 1_555 1_555
N7 C9 1_555 1_555
C10 H5 1_555 1_555
C11 C10 1_555 1_555
H6 C11 1_555 1_555
C12 C11 1_555 1_555
C13 N3 1_555 1_555
C14 N6 1_555 1_555
H7 C14 1_555 1_555
C15 C12 1_555 1_555
H8 C15 1_555 1_555
C16 N4 1_555 1_555
H9 C16 1_555 1_555
C17 C8 1_555 1_555
H10 C17 1_555 1_555
C18 N1 1_555 1_555
H11 C18 1_555 1_555
C19 C3 1_555 1_555
H12 C19 1_555 1_555
Fe6 N4 1_555 1_555
Fe7 N6 1_555 1_555
N11 Fe6_2 1_555 1_555
C23 N11 1_555 1_555
N16 Fe6_2 1_555 1_555
C28 N16 1_555 1_555
N17 Fe6 1_555 1_555
C29 N17 1_555 1_555
N18 Fe7 1_555 1_555
C30 N18 1_555 1_555
H13 C30 1_555 1_555
C31 C30 1_555 1_555
C32 C31 1_555 1_555
C33 C32 1_555 1_555
C46 N18 1_555 1_555
H23 C46 1_555 1_555
C47 C32 1_555 1_555
N24 Fe6 1_555 1_555
C48 N24 1_555 1_555
Au7 C48 1_555 1_555
Au8 C23 1_555 1_555
Au9 C28 1_555 1_555
Au10 C29 1_555 1_555
N26 Fe6_2 1_555 1_555
N27 Fe7 1_555 1_555
N28 Fe7 1_555 1_555
C8 C9 1_555 1_555
N7 C13 1_555 1_555
C12 C13 1_555 1_555
C14 C15 1_555 1_555
C16 C17 1_555 1_555
C18 C19 1_555 1_555
C46 C47 1_555 1_555
N26 C34 1_555 1_555
C34 H15 1_555 1_555
C35 C34 1_555 1_555
H16 C35 1_555 1_555
C36 C35 1_555 1_555
C37 N21 1_555 1_555
C44 N26 1_555 1_555
H21 C44 1_555 1_555
C45 C36 1_555 1_555
C36 C37 1_555 1_555
C44 C45 1_555 1_555
C29_2 N28 1_555 1_555
C48_2 N27 1_555 1_555
Au7_2 C48_2 1_555 1_555
Au10_2 C29_2 1_555 1_555
N11_2 Fe1 1_555 1_555
C23_2 N11_2 1_555 1_555
N16_2 Fe1 1_555 1_555
C28_2 N16_2 1_555 1_555
N17_2 Fe2 1_555 1_555
C29_3 N17_2 1_555 1_555
N24_2 Fe2 1_555 1_555
C48_3 N24_2 1_555 1_555
Au7_2 C48_3 1_555 1_555
Au8 C23_2 1_555 1_555
Au10 C28_2 1_555 1_555
Au9 C29_3 1_555 1_555
N26_2 Fe1 1_555 1_555
N27_2 Fe3 1_555 1_555
N28_2 Fe3 1_555 1_555
N19_2 C33_2 1_555 1_555
C30_2 N18_2 1_555 1_555
H13_2 C30_2 1_555 1_555
C31_2 C30_2 1_555 1_555
H14_2 C31_2 1_555 1_555
C32_2 C31_2 1_555 1_555
C33_2 C32_2 1_555 1_555
N26_2 C34_2 1_555 1_555
N21_2 C33_2 1_555 1_555
C34_2 H15_2 1_555 1_555
C35_2 C34_2 1_555 1_555
H16_2 C35_2 1_555 1_555
C36_2 C35_2 1_555 1_555
C37_2 N21_2 1_555 1_555
N25 C38_2 1_555 1_555
N23_2 C37_2 1_555 1_555
C38_2 H17_2 1_555 1_555
C39_2 C38_2 1_555 1_555
H18_2 C39_2 1_555 1_555
C40_2 C39_2 1_555 1_555
C41_2 N19_2 1_555 1_555
C42_2 N25 1_555 1_555
H19_2 C42_2 1_555 1_555
C43_2 C40_2 1_555 1_555
H20_2 C43_2 1_555 1_555
C44_2 N26_2 1_555 1_555
H21_2 C44_2 1_555 1_555
C45_2 C36_2 1_555 1_555
H22_2 C45_2 1_555 1_555
C46_2 N18_2 1_555 1_555
H23_2 C46_2 1_555 1_555
C47_2 C32_2 1_555 1_555
H24_2 C47_2 1_555 1_555
C36_2 C37_2 1_555 1_555
N23_2 C41_2 1_555 1_555
C40_2 C41_2 1_555 1_555
C42_2 C43_2 1_555 1_555
C44_2 C45_2 1_555 1_555
C46_2 C47_2 1_555 1_555
C29_4 N28_2 1_555 1_555
C48_4 N27_2 1_555 1_555
Au7 C48_4 1_555 1_555
Au10_2 C29_4 1_555 1_555
Fe6_4 N18_2 1_555 1_555
Fe6_3 N25 1_555 1_555
Au1_4 C5 1_555 1_555
Fe1_2 N1_2 1_555 1_555
N1_2 C1_2 1_555 1_555
N2 Fe1_2 1_555 1_555
N3_2 C4_2 1_555 1_555
C1_2 H1_2 1_555 1_555
C2_2 C1_2 1_555 1_555
H2_2 C2_2 1_555 1_555
C3_2 C2_2 1_555 1_555
C4_2 C3_2 1_555 1_555
C5 N2 1_555 1_555
N4_2 C6_2 1_555 1_555
N5_2 C4_2 1_555 1_555
C6_2 H3_2 1_555 1_555
C7_2 C6_2 1_555 1_555
H4_2 C7_2 1_555 1_555
C8_2 C7_2 1_555 1_555
C9_2 N5_2 1_555 1_555
N6_2 C10_2 1_555 1_555
N7_2 C9_2 1_555 1_555
C10_2 H5_2 1_555 1_555
C11_2 C10_2 1_555 1_555
H6_2 C11_2 1_555 1_555
C12_2 C11_2 1_555 1_555
C13_2 N3_2 1_555 1_555
C14_2 N6_2 1_555 1_555
H7_2 C14_2 1_555 1_555
C15_2 C12_2 1_555 1_555
H8_2 C15_2 1_555 1_555
C16_2 N4_2 1_555 1_555
H9_2 C16_2 1_555 1_555
C17_2 C8_2 1_555 1_555
H10_2 C17_2 1_555 1_555
C18_2 N1_2 1_555 1_555
H11_2 C18_2 1_555 1_555
C19_2 C3_2 1_555 1_555
H12_2 C19_2 1_555 1_555
Fe2_2 N4_2 1_555 1_555
N8 Fe2_2 1_555 1_555
C20 N8 1_555 1_555
Fe3_2 N6_2 1_555 1_555
N9 Fe3_2 1_555 1_555
C21 N9 1_555 1_555
N11_3 Fe1_2 1_555 1_555
C23_3 N11_3 1_555 1_555
Au3_2 C25 1_555 1_555
N13 Fe3_2 1_555 1_555
C25 N13 1_555 1_555
N14 Fe2_2 1_555 1_555
C26 Au2_4 1_555 1_555
Au4_3 C27 1_555 1_555
N15 Fe1_2 1_555 1_555
C27 N15 1_555 1_555
N16_3 Fe1_2 1_555 1_555
C28_3 N16_3 1_555 1_555
N17_3 Fe2_2 1_555 1_555
C29_5 N17_3 1_555 1_555
N18_3 Fe3_2 1_555 1_555
C30_3 N18_3 1_555 1_555
H13_3 C30_3 1_555 1_555
C31_3 C30_3 1_555 1_555
C32_3 C31_3 1_555 1_555
C33_3 C32_3 1_555 1_555
N21_3 C33_3 1_555 1_555
C46_3 N18_3 1_555 1_555
H23_3 C46_3 1_555 1_555
C47_3 C32_3 1_555 1_555
H24_3 C47_3 1_555 1_555
N24_3 Fe2_2 1_555 1_555
C48_5 N24_3 1_555 1_555
Au5_2 C20 1_555 1_555
Au6_3 C21 1_555 1_555
Au7_3 C48_5 1_555 1_555
Au8_2 C23_3 1_555 1_555
Au9_2 C28_3 1_555 1_555
Au10_3 C29_5 1_555 1_555
N25_2 Fe2_2 1_555 1_555
N26_3 Fe1_2 1_555 1_555
N27_3 Fe3_2 1_555 1_555
N28_3 Fe3_2 1_555 1_555
C8_2 C9_2 1_555 1_555
N7_2 C13_2 1_555 1_555
C12_2 C13_2 1_555 1_555
C14_2 C15_2 1_555 1_555
C16_2 C17_2 1_555 1_555
C18_2 C19_2 1_555 1_555
N14 C26 1_555 1_555
C46_3 C47_3 1_555 1_555
N26_3 C34_3 1_555 1_555
C34_3 H15_3 1_555 1_555
C35_3 C34_3 1_555 1_555
C36_3 C35_3 1_555 1_555
C44_3 N26_3 1_555 1_555
H21_3 C44_3 1_555 1_555
C45_3 C36_3 1_555 1_555
C36_3 C37_3 1_555 1_555
C44_3 C45_3 1_555 1_555
N25_2 C38_3 1_555 1_555
C38_3 H17_3 1_555 1_555
C39_3 C38_3 1_555 1_555
H18_3 C39_3 1_555 1_555
C40_3 C39_3 1_555 1_555
C42_3 N25_2 1_555 1_555
H19_3 C42_3 1_555 1_555
C43_3 C40_3 1_555 1_555
N23_3 C41_3 1_555 1_555
C40_3 C41_3 1_555 1_555
C42_3 C43_3 1_555 1_555
C29_6 N28_3 1_555 1_555
C48_6 N27_3 1_555 1_555
Au7_4 C48_6 1_555 1_555
Au10_4 C29_6 1_555 1_555
C20_2 N8_2 1_555 1_555
C26_2 Au9_2 1_555 1_555
Au7_4 C20_2 1_555 1_555
N14_2 C26_2 1_555 1_555
Au7_3 C5_2 1_555 1_555
Fe1_3 N1_3 1_555 1_555
N1_3 C1_3 1_555 1_555
N2_2 Fe1_3 1_555 1_555
N3_3 C4_3 1_555 1_555
C1_3 H1_3 1_555 1_555
C2_3 C1_3 1_555 1_555
H2_3 C2_3 1_555 1_555
C3_3 C2_3 1_555 1_555
C4_3 C3_3 1_555 1_555
C5_2 N2_2 1_555 1_555
N4_3 C6_3 1_555 1_555
N5_3 C4_3 1_555 1_555
C6_3 H3_3 1_555 1_555
C7_3 C6_3 1_555 1_555
H4_3 C7_3 1_555 1_555
C8_3 C7_3 1_555 1_555
C9_3 N5_3 1_555 1_555
N6_3 C10_3 1_555 1_555
N7_3 C9_3 1_555 1_555
C10_3 H5_3 1_555 1_555
C11_3 C10_3 1_555 1_555
H6_3 C11_3 1_555 1_555
C12_3 C11_3 1_555 1_555
C13_3 N3_3 1_555 1_555
C14_3 N6_3 1_555 1_555
H7_3 C14_3 1_555 1_555
C15_3 C12_3 1_555 1_555
H8_3 C15_3 1_555 1_555
C16_3 N4_3 1_555 1_555
H9_3 C16_3 1_555 1_555
C17_3 C8_3 1_555 1_555
H10_3 C17_3 1_555 1_555
C18_3 N1_3 1_555 1_555
H11_3 C18_3 1_555 1_555
C19_3 C3_3 1_555 1_555
H12_3 C19_3 1_555 1_555
Fe2_3 N4_3 1_555 1_555
Fe3_3 N6_3 1_555 1_555
Au10_4 C27_2 1_555 1_555
N15_2 Fe1_3 1_555 1_555
C27_2 N15_2 1_555 1_555
C8_3 C9_3 1_555 1_555
N7_3 C13_3 1_555 1_555
C12_3 C13_3 1_555 1_555
C14_3 C15_3 1_555 1_555
C16_3 C17_3 1_555 1_555
C18_3 C19_3 1_555 1_555
C21_2 N9_2 1_555 1_555
Au10_3 C25_2 1_555 1_555
C25_2 N13_2 1_555 1_555
Au8_2 C21_2 1_555 1_555
N9_2 Fe6_6 1_555 1_555
N13_2 Fe6_6 1_555 1_555
N14_2 Fe6_5 1_555 1_555
N8_2 Fe6_5 1_555 1_555

#END
