
###############################################################################
#
# This file contains modified crystal structure data generated from the
# MOF subset of the Cambridge Structural Database (CSD) v543 
# hosted by the Cambridge Crystallographic Data Centre (CCDC).
#
# This work is licensed under the Creative Commons
# Attribution-NonCommercial-ShareAlike 4.0 International License.
# To view a copy of this license, visit
# http://creativecommons.org/licenses/by-nc-sa/4.0/
# or send a letter to
# Creative Commons, PO Box 1866, Mountain View, CA 94042, USA.
#
# CIF created using the CSD Python API on 29 September 2022
# The structure has been converted into the P1 space group
# The structure has a 3D framework
# The original CSD entry YOYVEP01 is in the rhombohedral crystal system
# The framework has been calculated to contain at least 10.0% void space
# The void calculation uses a probe of radius 1.32A, grid spacing 0.4
#
###############################################################################

data_YOYVEP01
_chemical_formula_moiety         '(C144 H72 Au32 Fe12 N66)n'
_symmetry_cell_setting           triclinic
_symmetry_space_group_name_H-M   'P 1'
_symmetry_Int_Tables_number      1
_space_group_name_Hall           'P 1'
loop_
_symmetry_equiv_pos_site_id
_symmetry_equiv_pos_as_xyz
1 x,y,z
_cell_length_a                   26.9010(14)
_cell_length_b                   26.9010(14)
_cell_length_c                   9.7742(8)
_cell_angle_alpha                90
_cell_angle_beta                 90
_cell_angle_gamma                120
_cell_volume                     6125.6
loop_
_atom_site_label
_atom_site_type_symbol
_atom_site_fract_x
_atom_site_fract_y
_atom_site_fract_z
Fe2 Fe -0.0000 0.5000 0.0000
N8 N 0.0008(2) 0.5588(3) 0.1521(6)
N15 N 0.0008(2) 0.4420(2) 0.1521(6)
Au1 Au 0.6667 0.039930(15) 0.3333
Fe1 Fe 0.5000 0.0000 0.0000
N1 N 0.54715(15) 0.0943(3) 0.0002(8)
C5 C 0.5971(3) 0.0103(3) 0.2178(8)
N4 N 0.9057(3) 0.45285(34) 0.0002(8)
N6 N 0.54715(34) 0.45285(15) 0.0002(8)
Au2 Au 0.960070(15) 0.626770(15) 0.3333
Fe2_2 Fe 1.0000 0.5000 0.0000
C20 C 0.9897(3) 0.5868(4) 0.2178(8)
Au3 Au 0.373230(15) 0.3333 0.3333
Fe3 Fe 0.5000 0.5000 0.0000
N9 N 0.4412(3) 0.4420(2) 0.1521(6)
C21 C 0.4132(4) 0.4029(3) 0.2178(8)
N10 N 0.8921(3) 0.6675(2) 0.5146(6)
C22 C 0.9201(4) 0.6564(3) 0.4489(8)
N11 N 0.7753(2) 0.1079(3) 0.5146(6)
C23 C 0.7362(3) 0.0799(4) 0.4489(8)
N12 N 0.3325(2) 0.2247(2) 0.5146(6)
C24 C 0.3436(3) 0.2638(3) 0.4489(8)
Au4 Au 0.373230(15) 0.039930(15) 0.3333
C25 C 0.4132(4) 0.0103(3) 0.2178(8)
Au5 Au 0.6667 0.626770(15) 0.3333
N14 N 0.5580(2) 0.5588(3) 0.1521(6)
C26 C 0.5971(3) 0.5868(4) 0.2178(8)
Au6 Au 0.960070(15) 0.3333 0.3333
C27 C 0.9897(3) 0.4029(3) 0.2178(8)
N16 N 0.7753(2) 0.6675(2) 0.5146(6)
C28 C 0.7362(3) 0.6564(3) 0.4489(8)
N17 N 0.3325(2) 0.1079(3) 0.5146(6)
C29 C 0.3436(3) 0.0799(4) 0.4489(8)
N18 N 0.8921(3) 0.2247(2) 0.5146(6)
C30 C 0.9201(4) 0.2638(3) 0.4489(8)
Fe6 Fe 0.8333 0.6667 0.6667
Fe7 Fe 0.3333 0.1667 0.6667
Fe8 Fe 0.8333 0.1667 0.6667
Fe1_2 Fe 0.5000 1.0000 0.0000
N2 N 0.5580(2) 0.9992(2) 0.1521(6)
N13 N 0.4412(3) 0.9992(2) 0.1521(6)
N20 N 0.39218(20) 0.69609(14) 0.0004(7)
C31 C 0.4804(4) 0.8760(3) 0.0002(8)
H13 H 0.5203 0.8961 0.0003
C32 C 0.4521(4) 0.8165(3) 0.0003(8)
H14 H 0.4728 0.7973 0.0003
C33 C 0.39320(44) 0.7864(4) 0.0005(9)
C34 C 0.36140(34) 0.7228(3) 0.0015(8)
N22 N 0.30391(14) 0.60782(20) 0.0004(7)
C35 C 0.3956(3) 0.5196(4) 0.0002(8)
H15 H 0.3758 0.4797 0.0003
C36 C 0.3644(3) 0.5479(4) 0.0003(8)
H16 H 0.3245 0.5272 0.0003
C37 C 0.39320(18) 0.60680(44) 0.0005(9)
C38 C 0.36140(16) 0.63860(34) 0.0015(8)
N24 N 0.30391(14) 0.69609(14) 0.0004(7)
C39 C 0.1240(3) 0.6044(3) 0.0002(8)
H17 H 0.1039 0.6242 0.0003
C40 C 0.1835(3) 0.6356(3) 0.0003(8)
H18 H 0.2027 0.6755 0.0003
C41 C 0.2136(4) 0.60680(18) 0.0005(9)
C42 C 0.2772(3) 0.63860(16) 0.0015(8)
C43 C 0.3956(3) 0.8760(3) 0.0002(8)
H19 H 0.3758 0.8961 0.0003
C44 C 0.3644(3) 0.8165(3) 0.0003(8)
H20 H 0.3245 0.7973 0.0003
C45 C 0.1240(3) 0.5196(4) 0.0002(8)
H21 H 0.1039 0.4797 0.0003
C46 C 0.1835(3) 0.5479(4) 0.0003(8)
H22 H 0.2027 0.5272 0.0003
C47 C 0.4804(4) 0.6044(3) 0.0002(8)
H23 H 0.5203 0.6242 0.0003
C48 C 0.4521(4) 0.6356(3) 0.0003(8)
H24 H 0.4728 0.6755 0.0003
Au1_2 Au 0.293437(15) 0.293403(15) 1.0000
N11_2 N 0.3341(4) 0.2255(3) 0.8188(6)
C23_2 C 0.3230(5) 0.2535(4) 0.8845(8)
Au4_2 Au -0.000033(21) 0.293403(15) 1.0000
Au6_2 Au 0.293437(15) 0.0000 1.0000
N18_2 N 0.3341(4) 0.1087(2) 0.8188(6)
C30_2 C 0.3230(5) 0.0696(3) 0.8845(8)
Au2_2 Au -0.000033(21) 0.706563(15) 1.0000
Au6_3 Au 0.293437(15) 1.0000 1.0000
Au3_2 Au 0.706597(15) 0.0000 1.0000
N12_2 N 0.7745(3) 0.1087(2) 0.8188(6)
C24_2 C 0.7465(4) 0.0696(3) 0.8845(8)
Au4_3 Au 0.999967(21) 0.293403(15) 1.0000
N17_2 N 0.8913(4) 0.2255(3) 0.8188(6)
C29_2 C 0.9304(5) 0.2535(4) 0.8845(8)
Au2_3 Au 0.999967(21) 0.706563(15) 1.0000
Au3_3 Au 0.706597(15) 1.0000 1.0000
N10_2 N 0.8913(4) 0.6659(2) 0.8188(6)
C22_2 C 0.9304(5) 0.6770(3) 0.8845(8)
Au5_2 Au 0.706597(15) 0.706563(15) 1.0000
N16_2 N 0.7745(3) 0.6659(2) 0.8188(6)
C28_2 C 0.7465(4) 0.6770(3) 0.8845(8)
N4_2 N 0.2390(3) 0.11952(34) 0.6669(8)
N5 N 0.02942(14) 0.05885(20) 0.6663(7)
C6 C 0.2093(3) 0.1471(4) 0.6665(8)
H3 H 0.2294 0.1870 0.6664
C7 C 0.1498(3) 0.1188(4) 0.6664(8)
H4 H 0.1306 0.1395 0.6664
C8 C 0.1197(4) 0.05987(44) 0.6662(9)
C9 C 0.0561(3) 0.02807(34) 0.6652(8)
H10 H 0.0088 0.1395 0.6664
C18 C 0.2093(3) 0.0623(3) 0.6665(8)
H11 H 0.2294 0.0425 0.6664
C19 C 0.1498(3) 0.0311(3) 0.6664(8)
N26 N 0.4276(3) 0.21382(15) 0.6665(8)
N3 N 0.02942(14) 0.97058(14) 0.6663(7)
H2 H 0.0088 0.8694 0.6664
H12 H 0.1306 0.9912 0.6664
N6_2 N 0.88048(34) 0.11952(15) 0.6669(8)
C10 C 0.8529(4) 0.0623(3) 0.6665(8)
H5 H 0.8130 0.0425 0.6664
C11 C 0.8812(4) 0.0311(3) 0.6664(8)
C12 C 0.94013(44) 0.05987(18) 0.6662(9)
C13 C 0.97193(34) 0.02807(16) 0.6652(8)
C16 C 0.9377(3) 0.1471(4) 0.6665(8)
H9 H 0.9575 0.1870 0.6664
C17 C 0.9689(3) 0.1188(4) 0.6664(8)
N25 N 0.78618(15) 0.21382(34) 0.6665(8)
N1_2 N 0.88048(15) 0.7610(3) 0.6669(8)
C1 C 0.9377(3) 0.7907(3) 0.6665(8)
H1 H 0.9575 0.7706 0.6664
C2 C 0.9689(3) 0.8502(3) 0.6664(8)
C3 C 0.94013(18) 0.8803(4) 0.6662(9)
C4 C 0.97193(16) 0.9439(3) 0.6652(8)
N7 N 0.94115(20) 0.97058(14) 0.6663(7)
H6 H 0.8605 0.9912 0.6664
C14 C 0.8529(4) 0.7907(3) 0.6665(8)
H7 H 0.8130 0.7706 0.6664
C15 C 0.8812(4) 0.8502(3) 0.6664(8)
H8 H 0.8605 0.8694 0.6664
N19 N 0.78618(34) 0.5724(3) 0.6665(8)
N20_2 N 0.72551(20) 0.36276(14) 0.6671(7)
C31_2 C 0.8137(4) 0.5427(3) 0.6669(8)
H13_2 H 0.8536 0.5628 0.6670
C32_2 C 0.7854(4) 0.4832(3) 0.6670(8)
H14_2 H 0.8061 0.4640 0.6670
C33_2 C 0.72653(44) 0.4531(4) 0.6672(9)
C34_2 C 0.69473(34) 0.3895(3) 0.6682(8)
N22_2 N 0.63724(14) 0.27449(20) 0.6671(7)
C35_2 C 0.7289(3) 0.1863(4) 0.6669(8)
H15_2 H 0.7091 0.1464 0.6670
C36_2 C 0.6977(3) 0.2146(4) 0.6670(8)
H16_2 H 0.6578 0.1939 0.6670
C37_2 C 0.72653(18) 0.27347(44) 0.6672(9)
C38_2 C 0.69473(16) 0.30527(34) 0.6682(8)
N24_2 N 0.63724(14) 0.36276(14) 0.6671(7)
C39_2 C 0.4573(3) 0.2711(3) 0.6669(8)
H17_2 H 0.4372 0.2909 0.6670
C40_2 C 0.5168(3) 0.3023(3) 0.6670(8)
H18_2 H 0.5360 0.3422 0.6670
C41_2 C 0.5469(4) 0.27347(18) 0.6672(9)
C42_2 C 0.6105(3) 0.30527(16) 0.6682(8)
C43_2 C 0.7289(3) 0.5427(3) 0.6669(8)
H19_2 H 0.7091 0.5628 0.6670
C44_2 C 0.6977(3) 0.4832(3) 0.6670(8)
H20_2 H 0.6578 0.4640 0.6670
C45_2 C 0.4573(3) 0.1863(4) 0.6669(8)
H21_2 H 0.4372 0.1464 0.6670
C46_2 C 0.5168(3) 0.2146(4) 0.6670(8)
H22_2 H 0.5360 0.1939 0.6670
C47_2 C 0.8137(4) 0.2711(3) 0.6669(8)
H23_2 H 0.8536 0.2909 0.6670
C48_2 C 0.7854(4) 0.3023(3) 0.6670(8)
H24_2 H 0.8061 0.3422 0.6670
Fe2_3 Fe 0.0000 0.5000 1.0000
N26_2 N 0.0943(3) 0.54715(15) 0.9998(8)
Fe1_3 Fe 0.5000 0.0000 1.0000
N3_2 N 0.69609(14) 0.30391(14) 0.9996(7)
C1_2 C 0.6044(3) 0.1240(3) 0.9998(8)
H1_2 H 0.6242 0.1039 0.9997
C2_2 C 0.6356(3) 0.1835(3) 0.9997(8)
H2_2 H 0.6755 0.2027 0.9997
C3_2 C 0.60680(18) 0.2136(4) 0.9995(9)
C4_2 C 0.63860(16) 0.2772(3) 0.9985(8)
N5_2 N 0.69609(14) 0.39218(20) 0.9996(7)
C6_2 C 0.8760(3) 0.4804(4) 0.9998(8)
H3_2 H 0.8961 0.5203 0.9997
C7_2 C 0.8165(3) 0.4521(4) 0.9997(8)
H4_2 H 0.7973 0.4728 0.9997
C8_2 C 0.7864(4) 0.39320(44) 0.9995(9)
C9_2 C 0.7228(3) 0.36140(34) 0.9985(8)
N7_2 N 0.60782(20) 0.30391(14) 0.9996(7)
C10_2 C 0.5196(4) 0.3956(3) 0.9998(8)
H5_2 H 0.4797 0.3758 0.9997
C11_2 C 0.5479(4) 0.3644(3) 0.9997(8)
H6_2 H 0.5272 0.3245 0.9997
C12_2 C 0.60680(44) 0.39320(18) 0.9995(9)
C13_2 C 0.63860(34) 0.36140(16) 0.9985(8)
C14_2 C 0.5196(4) 0.1240(3) 0.9998(8)
H7_2 H 0.4797 0.1039 0.9997
C15_2 C 0.5479(4) 0.1835(3) 0.9997(8)
H8_2 H 0.5272 0.2027 0.9997
C16_2 C 0.6044(3) 0.4804(4) 0.9998(8)
H9_2 H 0.6242 0.5203 0.9997
C17_2 C 0.6356(3) 0.4521(4) 0.9997(8)
H10_2 H 0.6755 0.4728 0.9997
C18_2 C 0.8760(3) 0.3956(3) 0.9998(8)
H11_2 H 0.8961 0.3758 0.9997
C19_2 C 0.8165(3) 0.3644(3) 0.9997(8)
H12_2 H 0.7973 0.3245 0.9997
Fe2_4 Fe 1.0000 0.5000 1.0000
Fe3_2 Fe 0.5000 0.5000 1.0000
N25_2 N 0.45285(15) 0.54715(34) 0.9998(8)
N27 N 0.5588(3) 0.0008(2) 0.8479(6)
N28 N 0.4420(2) 0.4412(3) 0.8479(6)
N29 N 0.9992(2) 0.5580(2) 0.8479(6)
N30 N 0.4420(2) 0.0008(2) 0.8479(6)
N31 N 0.9992(2) 0.4412(3) 0.8479(6)
N32 N 0.5588(3) 0.5580(2) 0.8479(6)
Fe1_4 Fe 0.5000 1.0000 1.0000
N19_2 N 0.45285(34) 0.9057(3) 0.9998(8)
Au1_3 Au 0.626770(15) 0.960070(15) 0.6667
C5_2 C 0.5868(4) 0.9897(3) 0.7822(8)
Au2_4 Au 0.333300(21) 0.373230(15) 0.6667
C20_2 C 0.4029(5) 0.4132(4) 0.7822(8)
Au3_4 Au 0.039930(15) 0.6667 0.6667
C21_2 C 0.0103(5) 0.5971(3) 0.7822(8)
N10_3 N 0.2247(4) 0.3325(2) 0.4854(6)
C22_3 C 0.2638(5) 0.3436(3) 0.5511(8)
N11_3 N 0.6675(4) 0.8921(3) 0.4854(6)
C23_3 C 0.6564(5) 0.9201(4) 0.5511(8)
N12_3 N 0.1079(3) 0.7753(2) 0.4854(6)
C24_3 C 0.0799(4) 0.7362(3) 0.5511(8)
Au4_4 Au 0.333300(21) 0.960070(15) 0.6667
C25_2 C 0.4029(5) 0.9897(3) 0.7822(8)
Au5_3 Au 0.039930(15) 0.373230(15) 0.6667
C26_2 C 0.0103(5) 0.4132(4) 0.7822(8)
Au6_4 Au 0.626770(15) 0.6667 0.6667
C27_2 C 0.5868(4) 0.5971(3) 0.7822(8)
N16_3 N 0.1079(3) 0.3325(2) 0.4854(6)
C28_3 C 0.0799(4) 0.3436(3) 0.5511(8)
N17_3 N 0.2247(4) 0.8921(3) 0.4854(6)
C29_3 C 0.2638(5) 0.9201(4) 0.5511(8)
N18_3 N 0.6675(4) 0.7753(2) 0.4854(6)
C30_3 C 0.6564(5) 0.7362(3) 0.5511(8)
Fe6_2 Fe 0.1667 0.3333 0.3333
Fe7_2 Fe 0.1667 0.8333 0.3333
Fe8_2 Fe 0.6667 0.8333 0.3333
N1_3 N 0.21382(15) 0.4276(3) 0.3335(8)
N3_3 N 0.36276(14) 0.63724(14) 0.3329(7)
C1_3 C 0.2711(3) 0.4573(3) 0.3331(8)
H1_3 H 0.2909 0.4372 0.3330
C2_3 C 0.3023(3) 0.5168(3) 0.3330(8)
H2_3 H 0.3422 0.5360 0.3330
C3_3 C 0.27347(18) 0.5469(4) 0.3328(9)
C4_3 C 0.30527(16) 0.6105(3) 0.3318(8)
N4_3 N 0.5724(3) 0.78618(34) 0.3335(8)
N5_3 N 0.36276(14) 0.72551(20) 0.3329(7)
C6_3 C 0.5427(3) 0.8137(4) 0.3331(8)
H3_3 H 0.5628 0.8536 0.3330
C7_3 C 0.4832(3) 0.7854(4) 0.3330(8)
H4_3 H 0.4640 0.8061 0.3330
C8_3 C 0.4531(4) 0.72653(44) 0.3328(9)
C9_3 C 0.3895(3) 0.69473(34) 0.3318(8)
N6_3 N 0.21382(34) 0.78618(15) 0.3335(8)
N7_3 N 0.27449(20) 0.63724(14) 0.3329(7)
C10_3 C 0.1863(4) 0.7289(3) 0.3331(8)
H5_3 H 0.1464 0.7091 0.3330
C11_3 C 0.2146(4) 0.6977(3) 0.3330(8)
H6_3 H 0.1939 0.6578 0.3330
C12_3 C 0.27347(44) 0.72653(18) 0.3328(9)
C13_3 C 0.30527(34) 0.69473(16) 0.3318(8)
C14_3 C 0.1863(4) 0.4573(3) 0.3331(8)
H7_3 H 0.1464 0.4372 0.3330
C15_3 C 0.2146(4) 0.5168(3) 0.3330(8)
H8_3 H 0.1939 0.5360 0.3330
C16_3 C 0.2711(3) 0.8137(4) 0.3331(8)
H9_3 H 0.2909 0.8536 0.3330
C17_3 C 0.3023(3) 0.7854(4) 0.3330(8)
H10_3 H 0.3422 0.8061 0.3330
C18_3 C 0.5427(3) 0.7289(3) 0.3331(8)
H11_3 H 0.5628 0.7091 0.3330
C19_3 C 0.4832(3) 0.6977(3) 0.3330(8)
H12_3 H 0.4640 0.6578 0.3330
N19_3 N 0.11952(34) 0.2390(3) 0.3331(8)
N20_3 N 0.05885(20) 0.02942(14) 0.3337(7)
C31_3 C 0.1471(4) 0.2093(3) 0.3335(8)
H13_3 H 0.1870 0.2294 0.3336
C32_3 C 0.1188(4) 0.1498(3) 0.3336(8)
H14_3 H 0.1395 0.1306 0.3336
C33_3 C 0.05987(44) 0.1197(4) 0.3338(9)
C34_3 C 0.02807(34) 0.0561(3) 0.3348(8)
C43_3 C 0.0623(3) 0.2093(3) 0.3335(8)
H19_3 H 0.0425 0.2294 0.3336
C44_3 C 0.0311(3) 0.1498(3) 0.3336(8)
H24_3 H 0.1395 0.0088 0.3336
N25_3 N 0.11952(15) 0.88048(34) 0.3331(8)
N26_3 N 0.7610(3) 0.88048(15) 0.3331(8)
N27_2 N 0.2255(3) 0.3341(2) 0.1812(6)
N28_2 N 0.1087(2) 0.7745(3) 0.1812(6)
N29_2 N 0.6659(2) 0.8913(2) 0.1812(6)
N30_2 N 0.1087(2) 0.3341(2) 0.1812(6)
N31_2 N 0.6659(2) 0.7745(3) 0.1812(6)
N32_2 N 0.2255(3) 0.8913(2) 0.1812(6)
C35_3 C 0.0623(3) 0.8529(4) 0.3335(8)
H15_3 H 0.0425 0.8130 0.3336
C36_3 C 0.0311(3) 0.8812(4) 0.3336(8)
C37_3 C 0.05987(18) 0.94013(44) 0.3338(9)
C38_3 C 0.02807(16) 0.97193(34) 0.3348(8)
C47_3 C 0.1471(4) 0.9377(3) 0.3335(8)
H23_3 H 0.1870 0.9575 0.3336
C48_3 C 0.1188(4) 0.9689(3) 0.3336(8)
N24_3 N 0.97058(14) 0.02942(14) 0.3337(7)
H18_3 H 0.8694 0.0088 0.3336
H20_3 H 0.9912 0.1306 0.3336
N22_3 N 0.97058(14) 0.94115(20) 0.3337(7)
H16_3 H 0.9912 0.8605 0.3336
C39_3 C 0.7907(3) 0.9377(3) 0.3335(8)
H17_3 H 0.7706 0.9575 0.3336
C40_3 C 0.8502(3) 0.9689(3) 0.3336(8)
C41_3 C 0.8803(4) 0.94013(18) 0.3338(9)
C42_3 C 0.9439(3) 0.97193(16) 0.3348(8)
C45_3 C 0.7907(3) 0.8529(4) 0.3335(8)
H21_3 H 0.7706 0.8130 0.3336
C46_3 C 0.8502(3) 0.8812(4) 0.3336(8)
H22_3 H 0.8694 0.8605 0.3336
Au1_4 Au 0.293437(15) 0.293403(15) 0.0000
C5_3 C 0.2535(4) 0.3230(3) 0.1155(8)
Au4_5 Au -0.000033(21) 0.293403(15) 0.0000
C25_3 C 0.0696(5) 0.3230(3) 0.1155(8)
Au6_5 Au 0.293437(15) 0.0000 0.0000
Au2_5 Au -0.000033(21) 0.706563(15) 0.0000
C20_3 C 0.0696(5) 0.7465(4) 0.1155(8)
Au6_6 Au 0.293437(15) 1.0000 0.0000
C27_3 C 0.2535(4) 0.9304(3) 0.1155(8)
Au3_5 Au 0.706597(15) 0.0000 0.0000
Au4_6 Au 0.999967(21) 0.293403(15) 0.0000
Au2_6 Au 0.999967(21) 0.706563(15) 0.0000
Au3_6 Au 0.706597(15) 1.0000 0.0000
C21_3 C 0.6770(5) 0.9304(3) 0.1155(8)
Au5_4 Au 0.706597(15) 0.706563(15) 0.0000
C26_3 C 0.6770(5) 0.7465(4) 0.1155(8)
loop_
_geom_bond_atom_site_label_1
_geom_bond_atom_site_label_2
_geom_bond_site_symmetry_1
_geom_bond_site_symmetry_2
N8 Fe2 1_555 1_555
N15 Fe2 1_555 1_555
Au1 C5 1_555 1_555
Fe1 N1 1_555 1_555
Au2 C20 1_555 1_555
Fe2_2 N4 1_555 1_555
Au3 C21 1_555 1_555
Fe3 N6 1_555 1_555
N9 Fe3 1_555 1_555
C21 N9 1_555 1_555
N10 C22 1_555 1_555
C22 Au2 1_555 1_555
N11 C23 1_555 1_555
C23 Au1 1_555 1_555
N12 C24 1_555 1_555
C24 Au3 1_555 1_555
Au4 C25 1_555 1_555
Au5 C26 1_555 1_555
N14 Fe3 1_555 1_555
C26 N14 1_555 1_555
Au6 C27 1_555 1_555
N16 C28 1_555 1_555
C28 Au5 1_555 1_555
N17 C29 1_555 1_555
C29 Au4 1_555 1_555
N18 C30 1_555 1_555
C30 Au6 1_555 1_555
Fe6 N10 1_555 1_555
Fe7 N12 1_555 1_555
Fe8 N11 1_555 1_555
N16 Fe6 1_555 1_555
N17 Fe7 1_555 1_555
N18 Fe8 1_555 1_555
N2 Fe1_2 1_555 1_555
N13 Fe1_2 1_555 1_555
N20 C34 1_555 1_555
H13 C31 1_555 1_555
C32 C31 1_555 1_555
H14 C32 1_555 1_555
C33 C32 1_555 1_555
C34 C33 1_555 1_555
N22 C38 1_555 1_555
C35 H15 1_555 1_555
C36 C35 1_555 1_555
H16 C36 1_555 1_555
C37 C36 1_555 1_555
C38 N20 1_555 1_555
N24 C34 1_555 1_555
C39 H17 1_555 1_555
C40 C39 1_555 1_555
H18 C40 1_555 1_555
C41 C40 1_555 1_555
C42 N22 1_555 1_555
H19 C43 1_555 1_555
C44 C33 1_555 1_555
H20 C44 1_555 1_555
H21 C45 1_555 1_555
C46 C41 1_555 1_555
H22 C46 1_555 1_555
H23 C47 1_555 1_555
C48 C37 1_555 1_555
H24 C48 1_555 1_555
C37 C38 1_555 1_555
N24 C42 1_555 1_555
C41 C42 1_555 1_555
C43 C44 1_555 1_555
C45 C46 1_555 1_555
C47 C48 1_555 1_555
N11_2 C23_2 1_555 1_555
C23_2 Au1_2 1_555 1_555
N18_2 C30_2 1_555 1_555
C30_2 Au6_2 1_555 1_555
Fe7 N11_2 1_555 1_555
N18_2 Fe7 1_555 1_555
N12_2 C24_2 1_555 1_555
C24_2 Au3_2 1_555 1_555
N17_2 C29_2 1_555 1_555
C29_2 Au4_3 1_555 1_555
Fe8 N12_2 1_555 1_555
N17_2 Fe8 1_555 1_555
N10_2 C22_2 1_555 1_555
C22_2 Au2_3 1_555 1_555
N16_2 C28_2 1_555 1_555
C28_2 Au5_2 1_555 1_555
Fe6 N10_2 1_555 1_555
N16_2 Fe6 1_555 1_555
N4_2 C6 1_555 1_555
N5 C9 1_555 1_555
C6 H3 1_555 1_555
C7 C6 1_555 1_555
H4 C7 1_555 1_555
C8 C7 1_555 1_555
C18 N4_2 1_555 1_555
H11 C18 1_555 1_555
C19 C8 1_555 1_555
Fe7 N4_2 1_555 1_555
N26 Fe7 1_555 1_555
C8 C9 1_555 1_555
C18 C19 1_555 1_555
N6_2 C10 1_555 1_555
C10 H5 1_555 1_555
C11 C10 1_555 1_555
C12 C11 1_555 1_555
C16 N6_2 1_555 1_555
H9 C16 1_555 1_555
C17 C12 1_555 1_555
Fe8 N6_2 1_555 1_555
N25 Fe8 1_555 1_555
C12 C13 1_555 1_555
C16 C17 1_555 1_555
Fe6 N1_2 1_555 1_555
N1_2 C1 1_555 1_555
C1 H1 1_555 1_555
C2 C1 1_555 1_555
C3 C2 1_555 1_555
C4 C3 1_555 1_555
N7 C4 1_555 1_555
C14 N1_2 1_555 1_555
H7 C14 1_555 1_555
C15 C3 1_555 1_555
H8 C15 1_555 1_555
N19 Fe6 1_555 1_555
N20_2 C34_2 1_555 1_555
C31_2 N19 1_555 1_555
H13_2 C31_2 1_555 1_555
C32_2 C31_2 1_555 1_555
H14_2 C32_2 1_555 1_555
C33_2 C32_2 1_555 1_555
C34_2 C33_2 1_555 1_555
N25 C35_2 1_555 1_555
N22_2 C38_2 1_555 1_555
C35_2 H15_2 1_555 1_555
C36_2 C35_2 1_555 1_555
H16_2 C36_2 1_555 1_555
C37_2 C36_2 1_555 1_555
C38_2 N20_2 1_555 1_555
N26 C39_2 1_555 1_555
N24_2 C34_2 1_555 1_555
C39_2 H17_2 1_555 1_555
C40_2 C39_2 1_555 1_555
H18_2 C40_2 1_555 1_555
C41_2 C40_2 1_555 1_555
C42_2 N22_2 1_555 1_555
C43_2 N19 1_555 1_555
H19_2 C43_2 1_555 1_555
C44_2 C33_2 1_555 1_555
H20_2 C44_2 1_555 1_555
C45_2 N26 1_555 1_555
H21_2 C45_2 1_555 1_555
C46_2 C41_2 1_555 1_555
H22_2 C46_2 1_555 1_555
C47_2 N25 1_555 1_555
H23_2 C47_2 1_555 1_555
C48_2 C37_2 1_555 1_555
H24_2 C48_2 1_555 1_555
C14 C15 1_555 1_555
C37_2 C38_2 1_555 1_555
N24_2 C42_2 1_555 1_555
C41_2 C42_2 1_555 1_555
C43_2 C44_2 1_555 1_555
C45_2 C46_2 1_555 1_555
C47_2 C48_2 1_555 1_555
N26_2 Fe2_3 1_555 1_555
N3_2 C4_2 1_555 1_555
C1_2 H1_2 1_555 1_555
C2_2 C1_2 1_555 1_555
H2_2 C2_2 1_555 1_555
C3_2 C2_2 1_555 1_555
C4_2 C3_2 1_555 1_555
N5_2 C9_2 1_555 1_555
C6_2 H3_2 1_555 1_555
C7_2 C6_2 1_555 1_555
H4_2 C7_2 1_555 1_555
C8_2 C7_2 1_555 1_555
C9_2 N3_2 1_555 1_555
N7_2 C4_2 1_555 1_555
C10_2 H5_2 1_555 1_555
C11_2 C10_2 1_555 1_555
H6_2 C11_2 1_555 1_555
C12_2 C11_2 1_555 1_555
C13_2 N5_2 1_555 1_555
H7_2 C14_2 1_555 1_555
C15_2 C3_2 1_555 1_555
H8_2 C15_2 1_555 1_555
H9_2 C16_2 1_555 1_555
C17_2 C12_2 1_555 1_555
H10_2 C17_2 1_555 1_555
H11_2 C18_2 1_555 1_555
C19_2 C8_2 1_555 1_555
H12_2 C19_2 1_555 1_555
N25_2 Fe3_2 1_555 1_555
N27 Fe1_3 1_555 1_555
N28 Fe3_2 1_555 1_555
N29 Fe2_4 1_555 1_555
N30 Fe1_3 1_555 1_555
N31 Fe2_4 1_555 1_555
N32 Fe3_2 1_555 1_555
C8_2 C9_2 1_555 1_555
N7_2 C13_2 1_555 1_555
C12_2 C13_2 1_555 1_555
C14_2 C15_2 1_555 1_555
C16_2 C17_2 1_555 1_555
C18_2 C19_2 1_555 1_555
N19_2 Fe1_4 1_555 1_555
Au1_3 C5_2 1_555 1_555
Au2_4 C20_2 1_555 1_555
C20_2 N28 1_555 1_555
Au3_4 C21_2 1_555 1_555
N10_3 C22_3 1_555 1_555
C22_3 Au2_4 1_555 1_555
N11_3 C23_3 1_555 1_555
C23_3 Au1_3 1_555 1_555
N12_3 C24_3 1_555 1_555
C24_3 Au3_4 1_555 1_555
Au4_4 C25_2 1_555 1_555
Au5_3 C26_2 1_555 1_555
Au6_4 C27_2 1_555 1_555
C27_2 N32 1_555 1_555
N16_3 C28_3 1_555 1_555
C28_3 Au5_3 1_555 1_555
N17_3 C29_3 1_555 1_555
C29_3 Au4_4 1_555 1_555
N18_3 C30_3 1_555 1_555
C30_3 Au6_4 1_555 1_555
Fe6_2 N10_3 1_555 1_555
Fe7_2 N12_3 1_555 1_555
Fe8_2 N11_3 1_555 1_555
N16_3 Fe6_2 1_555 1_555
N17_3 Fe7_2 1_555 1_555
N18_3 Fe8_2 1_555 1_555
Fe6_2 N1_3 1_555 1_555
N1_3 C1_3 1_555 1_555
N3_3 C4_3 1_555 1_555
C1_3 H1_3 1_555 1_555
C2_3 C1_3 1_555 1_555
H2_3 C2_3 1_555 1_555
C3_3 C2_3 1_555 1_555
C4_3 C3_3 1_555 1_555
N4_3 C6_3 1_555 1_555
N5_3 C9_3 1_555 1_555
C6_3 H3_3 1_555 1_555
C7_3 C6_3 1_555 1_555
H4_3 C7_3 1_555 1_555
C8_3 C7_3 1_555 1_555
C9_3 N3_3 1_555 1_555
N6_3 C10_3 1_555 1_555
N7_3 C4_3 1_555 1_555
C10_3 H5_3 1_555 1_555
C11_3 C10_3 1_555 1_555
H6_3 C11_3 1_555 1_555
C12_3 C11_3 1_555 1_555
C13_3 N5_3 1_555 1_555
C14_3 N1_3 1_555 1_555
H7_3 C14_3 1_555 1_555
C15_3 C3_3 1_555 1_555
H8_3 C15_3 1_555 1_555
C16_3 N6_3 1_555 1_555
H9_3 C16_3 1_555 1_555
C17_3 C12_3 1_555 1_555
H10_3 C17_3 1_555 1_555
C18_3 N4_3 1_555 1_555
H11_3 C18_3 1_555 1_555
C19_3 C8_3 1_555 1_555
H12_3 C19_3 1_555 1_555
Fe8_2 N4_3 1_555 1_555
Fe7_2 N6_3 1_555 1_555
N19_3 Fe6_2 1_555 1_555
N20_3 C34_3 1_555 1_555
C31_3 N19_3 1_555 1_555
H13_3 C31_3 1_555 1_555
C32_3 C31_3 1_555 1_555
H14_3 C32_3 1_555 1_555
C33_3 C32_3 1_555 1_555
C34_3 C33_3 1_555 1_555
C43_3 N19_3 1_555 1_555
H19_3 C43_3 1_555 1_555
C44_3 C33_3 1_555 1_555
N25_3 Fe7_2 1_555 1_555
N26_3 Fe8_2 1_555 1_555
N27_2 Fe6_2 1_555 1_555
N28_2 Fe7_2 1_555 1_555
N29_2 Fe8_2 1_555 1_555
N30_2 Fe6_2 1_555 1_555
N31_2 Fe8_2 1_555 1_555
N32_2 Fe7_2 1_555 1_555
C8_3 C9_3 1_555 1_555
N7_3 C13_3 1_555 1_555
C12_3 C13_3 1_555 1_555
C14_3 C15_3 1_555 1_555
C16_3 C17_3 1_555 1_555
C18_3 C19_3 1_555 1_555
C43_3 C44_3 1_555 1_555
N25_3 C35_3 1_555 1_555
C35_3 H15_3 1_555 1_555
C36_3 C35_3 1_555 1_555
C37_3 C36_3 1_555 1_555
C47_3 N25_3 1_555 1_555
H23_3 C47_3 1_555 1_555
C48_3 C37_3 1_555 1_555
C37_3 C38_3 1_555 1_555
C47_3 C48_3 1_555 1_555
N26_3 C39_3 1_555 1_555
C39_3 H17_3 1_555 1_555
C40_3 C39_3 1_555 1_555
C41_3 C40_3 1_555 1_555
C42_3 N22_3 1_555 1_555
C45_3 N26_3 1_555 1_555
H21_3 C45_3 1_555 1_555
C46_3 C41_3 1_555 1_555
H22_3 C46_3 1_555 1_555
C41_3 C42_3 1_555 1_555
C45_3 C46_3 1_555 1_555
Au1_4 C5_3 1_555 1_555
C5_3 N27_2 1_555 1_555
Au4_5 C25_3 1_555 1_555
C25_3 N30_2 1_555 1_555
Au2_5 C20_3 1_555 1_555
C20_3 N28_2 1_555 1_555
Au6_6 C27_3 1_555 1_555
C27_3 N32_2 1_555 1_555
Au3_6 C21_3 1_555 1_555
C21_3 N29_2 1_555 1_555
Au5_4 C26_3 1_555 1_555
C26_3 N31_2 1_555 1_555

#END
