
###############################################################################
#
# This file contains modified crystal structure data generated from the
# MOF subset of the Cambridge Structural Database (CSD) v543 
# hosted by the Cambridge Crystallographic Data Centre (CCDC).
#
# This work is licensed under the Creative Commons
# Attribution-NonCommercial-ShareAlike 4.0 International License.
# To view a copy of this license, visit
# http://creativecommons.org/licenses/by-nc-sa/4.0/
# or send a letter to
# Creative Commons, PO Box 1866, Mountain View, CA 94042, USA.
#
# CIF created using the CSD Python API on 29 September 2022
# The structure has been converted into the P1 space group
# The structure has a 3D framework
# The original CSD entry YOYVEP is in the rhombohedral crystal system
# The framework has been calculated to contain at least 10.0% void space
# The void calculation uses a probe of radius 1.32A, grid spacing 0.4
#
###############################################################################

data_YOYVEP
_chemical_formula_moiety         '(C133 H72 Au7 Fe11 N66)n'
_symmetry_cell_setting           triclinic
_symmetry_space_group_name_H-M   'P 1'
_symmetry_Int_Tables_number      1
_space_group_name_Hall           'P 1'
loop_
_symmetry_equiv_pos_site_id
_symmetry_equiv_pos_as_xyz
1 x,y,z
_cell_length_a                   26.4590(10)
_cell_length_b                   26.4590(10)
_cell_length_c                   9.5783(5)
_cell_angle_alpha                90
_cell_angle_beta                 90
_cell_angle_gamma                120
_cell_volume                     5807.19
loop_
_atom_site_label
_atom_site_type_symbol
_atom_site_fract_x
_atom_site_fract_y
_atom_site_fract_z
Fe5 Fe 0.0000 0.5000 0.5000
Fe2 Fe 0.5000 0.0000 0.5000
N8 N 0.5562(3) 0.0011(4) 0.6464(7)
C20 C 0.5953(4) 0.0106(6) 0.7160(9)
Au3 Au 0.373651(17) 0.040351(17) 0.8333
N22 N 0.4449(3) 0.0011(4) 0.6464(7)
C46 C 0.4153(4) 0.0106(6) 0.7160(9)
Au4 Au 0.6667 0.040351(17) 0.8333
N26 N 0.5452(2) 0.0904(3) 0.4973(10)
C51 C 0.7380(4) 0.0820(4) 0.9507(9)
C53 C 0.3439(6) 0.0820(4) 0.9507(9)
Au1 Au 0.373651(17) 0.3333 0.8333
Fe1 Fe 0.5000 0.5000 0.5000
N1 N 0.4548(2) 0.5452(2) 0.5027(10)
N2 N 0.4449(3) 0.4438(3) 0.6464(7)
N3 N 0.3924(3) 0.69619(17) 0.5024(9)
C1 C 0.4833(3) 0.6040(3) 0.5027(9)
H1 H 0.5238 0.6243 0.5024
C2 C 0.4546(3) 0.6351(3) 0.5029(9)
H2 H 0.4757 0.6757 0.5039
C3 C 0.3940(2) 0.6060(2) 0.5018(13)
C4 C 0.3619(2) 0.6381(2) 0.4996(12)
C5 C 0.4153(4) 0.4047(4) 0.7160(9)
N4 N 0.4548(2) 0.9096(3) 0.5027(10)
N5 N 0.30381(17) 0.69621(34) 0.5024(9)
C6 C 0.3960(3) 0.8793(4) 0.5027(9)
H3 H 0.3757 0.8995 0.5024
C7 C 0.3649(3) 0.8195(4) 0.5029(9)
H4 H 0.3243 0.8000 0.5039
C8 C 0.3940(2) 0.7880(3) 0.5018(13)
C9 C 0.3619(2) 0.7238(3) 0.4996(12)
N6 N 0.0904(3) 0.5452(2) 0.5027(10)
N7 N 0.30379(34) 0.6076(3) 0.5024(9)
C10 C 0.1207(4) 0.5167(3) 0.5027(9)
H5 H 0.1005 0.4762 0.5024
C11 C 0.1805(4) 0.5454(3) 0.5029(9)
H6 H 0.2000 0.5243 0.5039
C12 C 0.2120(3) 0.6060(2) 0.5018(13)
C13 C 0.2762(3) 0.6381(2) 0.4996(12)
C14 C 0.1207(4) 0.6040(3) 0.5027(9)
H7 H 0.1005 0.6243 0.5024
C15 C 0.1805(4) 0.6351(3) 0.5029(9)
H8 H 0.2000 0.6757 0.5039
C16 C 0.4833(3) 0.8793(4) 0.5027(9)
H9 H 0.5238 0.8995 0.5024
C17 C 0.4546(3) 0.8195(4) 0.5029(9)
H10 H 0.4757 0.8000 0.5039
C18 C 0.3960(3) 0.5167(3) 0.5027(9)
H11 H 0.3757 0.4762 0.5024
C19 C 0.3649(3) 0.5454(3) 0.5029(9)
H12 H 0.3243 0.5243 0.5039
Fe2_2 Fe 0.5000 1.0000 0.5000
N10 N 0.5452(2) 0.4548(2) 0.4973(10)
N11 N 0.4438(3) 0.4449(3) 0.3536(7)
N12 N 0.69619(17) 0.3924(3) 0.4976(9)
C22 C 0.6040(3) 0.4833(3) 0.4973(9)
H13 H 0.6243 0.5238 0.4976
C23 C 0.6351(3) 0.4546(3) 0.4971(9)
H14 H 0.6757 0.4757 0.4961
C24 C 0.6060(2) 0.3940(2) 0.4982(13)
C25 C 0.6381(2) 0.3619(2) 0.5004(12)
C26 C 0.4047(4) 0.4153(4) 0.2840(9)
N13 N 0.9096(3) 0.4548(2) 0.4973(10)
N14 N 0.69621(34) 0.30381(17) 0.4976(9)
C27 C 0.8793(4) 0.3960(3) 0.4973(9)
H15 H 0.8995 0.3757 0.4976
C28 C 0.8195(4) 0.3649(3) 0.4971(9)
H16 H 0.8000 0.3243 0.4961
C29 C 0.7880(3) 0.3940(2) 0.4982(13)
C30 C 0.7238(3) 0.3619(2) 0.5004(12)
N16 N 0.6076(3) 0.30379(34) 0.4976(9)
C31 C 0.5167(3) 0.1207(4) 0.4973(9)
H17 H 0.4762 0.1005 0.4976
C32 C 0.5454(3) 0.1805(4) 0.4971(9)
H18 H 0.5243 0.2000 0.4961
C33 C 0.6060(2) 0.2120(3) 0.4982(13)
C34 C 0.6381(2) 0.2762(3) 0.5004(12)
C35 C 0.6040(3) 0.1207(4) 0.4973(9)
H19 H 0.6243 0.1005 0.4976
C36 C 0.6351(3) 0.1805(4) 0.4971(9)
H20 H 0.6757 0.2000 0.4961
C37 C 0.8793(4) 0.4833(3) 0.4973(9)
H21 H 0.8995 0.5238 0.4976
C38 C 0.8195(4) 0.4546(3) 0.4971(9)
H22 H 0.8000 0.4757 0.4961
C39 C 0.5167(3) 0.3960(3) 0.4973(9)
H23 H 0.4762 0.3757 0.4976
C40 C 0.5454(3) 0.3649(3) 0.4971(9)
H24 H 0.5243 0.3243 0.4961
C41 C 0.3439(6) 0.2620(4) 0.9507(9)
N18 N 0.5551(3) 0.5562(3) 0.3536(7)
C42 C 0.5847(4) 0.5953(4) 0.2840(9)
N19 N 0.4438(3) 0.9989(4) 0.3536(7)
C43 C 0.4047(4) 0.9894(6) 0.2840(9)
N20 N 0.0011(4) 0.4449(3) 0.3536(7)
C44 C 0.0106(6) 0.4153(4) 0.2840(9)
N23 N 0.5562(3) 0.5551(3) 0.6464(7)
C47 C 0.5953(4) 0.5847(4) 0.7160(9)
N24 N 0.5551(3) 0.9989(4) 0.3536(7)
C48 C 0.5847(4) 0.9894(6) 0.2840(9)
Au6 Au 0.3333 0.373651(17) 0.1667
Au7 Au 0.626349(17) 0.959649(17) 0.1667
Au8 Au 0.626349(17) 0.6667 0.1667
Au9 Au 0.3333 0.959649(17) 0.1667
Au10 Au 0.040351(17) 0.373651(17) 0.1667
Au11 Au 0.6667 0.626349(17) 0.8333
Fe5_2 Fe 1.0000 0.5000 0.5000
N27 N 0.0011(4) 0.5562(3) 0.3536(7)
C49 C 0.2620(4) 0.3439(6) 0.0493(9)
N9 N 0.9989(4) 0.5551(3) 0.6464(7)
C21 C 0.9894(6) 0.5847(4) 0.7160(9)
Au2 Au 0.959649(17) 0.3333 0.8333
N21 N 0.9989(4) 0.4438(3) 0.6464(7)
C45 C 0.9894(6) 0.4047(4) 0.7160(9)
Au5 Au 0.959649(17) 0.626349(17) 0.8333
C50 C 0.9180(4) 0.6561(6) 0.9507(9)
C52 C 0.9180(4) 0.2620(4) 0.9507(9)
C48_2 C 0.0106(6) 0.5953(7) 0.2840(9)
Au7_2 Au 0.040351(17) 0.666700(24) 0.1667
C49_2 C 0.6561(6) 0.9180(7) 0.0493(9)
C52_2 C 0.7380(4) 0.6561(6) 0.9507(9)
C49_3 C 0.0820(7) 0.7380(4) 0.0493(9)
C52_3 C 0.6561(6) 0.7380(4) 0.0493(9)
C53_2 C 0.2620(7) 0.9180(4) 0.0493(9)
C52_4 C 0.0820(4) 0.3439(6) 0.0493(9)
N17 N 0.3344(4) 0.2229(3) 0.0203(7)
Fe6 Fe 0.3333 0.1667 0.1667
N17_2 N 0.7771(3) 0.1116(5) 0.0203(7)
Fe6_2 Fe 0.8333 0.1667 0.1667
N17_3 N 0.8884(5) 0.6656(4) 0.0203(7)
Fe6_3 Fe 0.8333 0.6667 0.1667
N17_4 N 0.1116(5) 0.7771(3) 0.9797(7)
Fe6_4 Fe 0.1667 0.8333 0.8333
N17_5 N 0.6656(4) 0.8884(5) 0.9797(7)
Fe6_5 Fe 0.6667 0.8333 0.8333
N17_6 N 0.2229(3) 0.3344(4) 0.9797(7)
Fe6_6 Fe 0.1667 0.3333 0.8333
N3_2 N 0.0591(3) 0.02952(17) 0.8357(9)
H2_2 H 0.1424 0.0090 0.8372
N4_2 N 0.1215(2) 0.2429(3) 0.8360(10)
C6_2 C 0.0627(3) 0.2126(4) 0.8360(9)
H3_2 H 0.0424 0.2328 0.8357
C7_2 C 0.0316(3) 0.1528(4) 0.8362(9)
C8_2 C 0.0607(2) 0.1213(3) 0.8351(13)
C9_2 C 0.0286(2) 0.0571(3) 0.8329(12)
C16_2 C 0.1500(3) 0.2126(4) 0.8360(9)
H9_2 H 0.1905 0.2328 0.8357
C17_2 C 0.1213(3) 0.1528(4) 0.8362(9)
H10_2 H 0.1424 0.1333 0.8372
N19_2 N 0.1105(3) 0.3322(4) 0.6869(7)
C43_2 C 0.0714(4) 0.3227(6) 0.6173(9)
N22_2 N 0.1116(3) 0.3344(4) 0.9797(7)
N24_2 N 0.2218(3) 0.3322(4) 0.6869(7)
C48_3 C 0.2514(4) 0.3227(6) 0.6173(9)
Au7_3 Au 0.293016(17) 0.292982(17) 0.5000
Au8_2 Au 0.293016(17) 0.0000 0.5000
Au9_2 Au -0.0000 0.292982(17) 0.5000
N26_2 N 0.2119(2) 0.4237(3) 0.8306(10)
N1_2 N 0.1215(2) 0.8785(2) 0.8360(10)
C1_2 C 0.1500(3) 0.9373(3) 0.8360(9)
H1_2 H 0.1905 0.9576 0.8357
C2_2 C 0.1213(3) 0.9684(3) 0.8362(9)
C3_2 C 0.0607(2) 0.9393(2) 0.8351(13)
C4_2 C 0.0286(2) 0.9714(2) 0.8329(12)
C18_2 C 0.0627(3) 0.8500(3) 0.8360(9)
H11_2 H 0.0424 0.8095 0.8357
C19_2 C 0.0316(3) 0.8787(3) 0.8362(9)
N10_2 N 0.2119(2) 0.7881(2) 0.8306(10)
N11_2 N 0.1105(3) 0.7782(3) 0.6869(7)
N12_2 N 0.36286(17) 0.7257(3) 0.8309(9)
C22_2 C 0.2707(3) 0.8166(3) 0.8306(9)
H13_2 H 0.2910 0.8571 0.8309
C23_2 C 0.3018(3) 0.7879(3) 0.8304(9)
H14_2 H 0.3424 0.8090 0.8294
C24_2 C 0.2727(2) 0.7273(2) 0.8315(13)
C25_2 C 0.3048(2) 0.6952(2) 0.8337(12)
C26_2 C 0.0714(4) 0.7486(4) 0.6173(9)
N13_2 N 0.5763(3) 0.7881(2) 0.8306(10)
N14_2 N 0.36288(34) 0.63714(17) 0.8309(9)
C27_2 C 0.5460(4) 0.7293(3) 0.8306(9)
H15_2 H 0.5662 0.7090 0.8309
C28_2 C 0.4862(4) 0.6982(3) 0.8304(9)
H16_2 H 0.4667 0.6576 0.8294
C29_2 C 0.4547(3) 0.7273(2) 0.8315(13)
C30_2 C 0.3905(3) 0.6952(2) 0.8337(12)
N16_2 N 0.2743(3) 0.63712(34) 0.8309(9)
C31_2 C 0.1834(3) 0.4540(4) 0.8306(9)
H17_2 H 0.1429 0.4338 0.8309
C32_2 C 0.2121(3) 0.5138(4) 0.8304(9)
H18_2 H 0.1910 0.5333 0.8294
C33_2 C 0.2727(2) 0.5453(3) 0.8315(13)
C34_2 C 0.3048(2) 0.6095(3) 0.8337(12)
C35_2 C 0.2707(3) 0.4540(4) 0.8306(9)
H19_2 H 0.2910 0.4338 0.8309
C36_2 C 0.3018(3) 0.5138(4) 0.8304(9)
H20_2 H 0.3424 0.5333 0.8294
C37_2 C 0.5460(4) 0.8166(3) 0.8306(9)
H21_2 H 0.5662 0.8571 0.8309
C38_2 C 0.4862(4) 0.7879(3) 0.8304(9)
H22_2 H 0.4667 0.8090 0.8294
C39_2 C 0.1834(3) 0.7293(3) 0.8306(9)
H23_2 H 0.1429 0.7090 0.8309
C40_2 C 0.2121(3) 0.6982(3) 0.8304(9)
H24_2 H 0.1910 0.6576 0.8294
N18_2 N 0.2218(3) 0.8895(3) 0.6869(7)
C42_2 C 0.2514(4) 0.9286(4) 0.6173(9)
N23_2 N 0.2229(3) 0.8884(3) 0.9797(7)
Au6_2 Au -0.0000 0.706984(17) 0.5000
Au8_3 Au 0.293016(17) 1.0000 0.5000
N5_2 N 0.97048(17) 0.02954(34) 0.8357(9)
H4_2 H 0.9910 0.1333 0.8372
H8_2 H 0.8667 0.0090 0.8372
Au9_3 Au 1.0000 0.292982(17) 0.5000
N6_2 N 0.7571(3) 0.8785(2) 0.8360(10)
N7_2 N 0.97046(34) 0.9409(3) 0.8357(9)
C10_2 C 0.7874(4) 0.8500(3) 0.8360(9)
H5_2 H 0.7672 0.8095 0.8357
C11_2 C 0.8472(4) 0.8787(3) 0.8362(9)
H6_2 H 0.8667 0.8576 0.8372
C12_2 C 0.8787(3) 0.9393(2) 0.8351(13)
C13_2 C 0.9429(3) 0.9714(2) 0.8329(12)
C14_2 C 0.7874(4) 0.9373(3) 0.8360(9)
H7_2 H 0.7672 0.9576 0.8357
C15_2 C 0.8472(4) 0.9684(3) 0.8362(9)
H12_2 H 0.9910 0.8576 0.8372
N20_2 N 0.6678(4) 0.7782(3) 0.6869(7)
C44_2 C 0.6773(6) 0.7486(4) 0.6173(9)
N21_2 N 0.6656(4) 0.7771(3) 0.9797(7)
Au6_3 Au 1.0000 0.706984(17) 0.5000
Au10_2 Au 0.707018(17) 0.706984(17) 0.5000
N27_2 N 0.6678(4) 0.8895(3) 0.6869(7)
C49_4 C 0.9286(4) 0.6773(6) 0.3827(9)
C49_5 C 0.3227(6) 0.2514(7) 0.3827(9)
Au7_4 Au 0.707018(17) 0.000033(24) 0.5000
C48_4 C 0.6773(6) 0.9286(7) 0.6173(9)
Au7_5 Au 0.707018(17) 1.000033(24) 0.5000
C49_6 C 0.7486(7) 0.0714(4) 0.3827(9)
N17_7 N 0.7782(5) 0.1105(3) 0.3131(7)
C52_5 C 0.3227(6) 0.0714(4) 0.3827(9)
C53_3 C 0.9286(7) 0.2514(4) 0.3827(9)
N17_8 N 0.3322(4) 0.2218(5) 0.3131(7)
C52_6 C 0.7486(4) 0.6773(6) 0.3827(9)
N17_9 N 0.8895(3) 0.6678(4) 0.3131(7)
N12_3 N 0.02952(17) 0.0591(3) 0.1643(9)
H14_3 H 0.0090 0.1424 0.1628
N13_3 N 0.2429(3) 0.1215(2) 0.1640(10)
C27_3 C 0.2126(4) 0.0627(3) 0.1640(9)
H15_3 H 0.2328 0.0424 0.1643
C28_3 C 0.1528(4) 0.0316(3) 0.1638(9)
C29_3 C 0.1213(3) 0.0607(2) 0.1649(13)
C30_3 C 0.0571(3) 0.0286(2) 0.1671(12)
C37_3 C 0.2126(4) 0.1500(3) 0.1640(9)
H21_3 H 0.2328 0.1905 0.1643
C38_3 C 0.1528(4) 0.1213(3) 0.1638(9)
H22_3 H 0.1333 0.1424 0.1628
N14_3 N 0.02954(34) 0.97048(17) 0.1643(9)
H16_3 H 0.1333 0.9910 0.1628
H20_3 H 0.0090 0.8667 0.1628
N1_3 N 0.7881(2) 0.2119(2) 0.1694(10)
N3_3 N 0.7257(3) 0.36286(17) 0.1691(9)
C1_3 C 0.8166(3) 0.2707(3) 0.1694(9)
H1_3 H 0.8571 0.2910 0.1691
C2_3 C 0.7879(3) 0.3018(3) 0.1696(9)
H2_3 H 0.8090 0.3424 0.1706
C3_3 C 0.7273(2) 0.2727(2) 0.1685(13)
C4_3 C 0.6952(2) 0.3048(2) 0.1663(12)
N4_3 N 0.7881(2) 0.5763(3) 0.1694(10)
N5_3 N 0.63714(17) 0.36288(34) 0.1691(9)
C6_3 C 0.7293(3) 0.5460(4) 0.1694(9)
H3_3 H 0.7090 0.5662 0.1691
C7_3 C 0.6982(3) 0.4862(4) 0.1696(9)
H4_3 H 0.6576 0.4667 0.1706
C8_3 C 0.7273(2) 0.4547(3) 0.1685(13)
C9_3 C 0.6952(2) 0.3905(3) 0.1663(12)
N6_3 N 0.4237(3) 0.2119(2) 0.1694(10)
N7_3 N 0.63712(34) 0.2743(3) 0.1691(9)
C10_3 C 0.4540(4) 0.1834(3) 0.1694(9)
H5_3 H 0.4338 0.1429 0.1691
C11_3 C 0.5138(4) 0.2121(3) 0.1696(9)
H6_3 H 0.5333 0.1910 0.1706
C12_3 C 0.5453(3) 0.2727(2) 0.1685(13)
C13_3 C 0.6095(3) 0.3048(2) 0.1663(12)
C14_3 C 0.4540(4) 0.2707(3) 0.1694(9)
H7_3 H 0.4338 0.2910 0.1691
C15_3 C 0.5138(4) 0.3018(3) 0.1696(9)
H8_3 H 0.5333 0.3424 0.1706
C16_3 C 0.8166(3) 0.5460(4) 0.1694(9)
H9_3 H 0.8571 0.5662 0.1691
C17_3 C 0.7879(3) 0.4862(4) 0.1696(9)
H10_3 H 0.8090 0.4667 0.1706
C18_3 C 0.7293(3) 0.1834(3) 0.1694(9)
H11_3 H 0.7090 0.1429 0.1691
C19_3 C 0.6982(3) 0.2121(3) 0.1696(9)
H12_3 H 0.6576 0.1910 0.1706
N10_3 N 0.8785(2) 0.1215(2) 0.1640(10)
C22_3 C 0.9373(3) 0.1500(3) 0.1640(9)
H13_3 H 0.9576 0.1905 0.1643
C23_3 C 0.9684(3) 0.1213(3) 0.1638(9)
C24_3 C 0.9393(2) 0.0607(2) 0.1649(13)
C25_3 C 0.9714(2) 0.0286(2) 0.1671(12)
C39_3 C 0.8500(3) 0.0627(3) 0.1640(9)
H23_3 H 0.8095 0.0424 0.1643
C40_3 C 0.8787(3) 0.0316(3) 0.1638(9)
N18_3 N 0.8884(3) 0.2229(3) 0.0203(7)
N19_3 N 0.7771(3) 0.6656(4) 0.0203(7)
N20_3 N 0.3344(4) 0.1116(3) 0.0203(7)
N21_3 N 0.3322(4) 0.1105(3) 0.3131(7)
N22_3 N 0.7782(3) 0.6678(4) 0.3131(7)
N23_3 N 0.8895(3) 0.2218(3) 0.3131(7)
N26_3 N 0.8785(2) 0.7571(3) 0.1640(10)
N16_3 N 0.9409(3) 0.97046(34) 0.1643(9)
C31_3 C 0.8500(3) 0.7874(4) 0.1640(9)
H17_3 H 0.8095 0.7672 0.1643
C32_3 C 0.8787(3) 0.8472(4) 0.1638(9)
H18_3 H 0.8576 0.8667 0.1628
C33_3 C 0.9393(2) 0.8787(3) 0.1649(13)
C34_3 C 0.9714(2) 0.9429(3) 0.1671(12)
C35_3 C 0.9373(3) 0.7874(4) 0.1640(9)
H19_3 H 0.9576 0.7672 0.1643
C36_3 C 0.9684(3) 0.8472(4) 0.1638(9)
H24_3 H 0.8576 0.9910 0.1628
loop_
_geom_bond_atom_site_label_1
_geom_bond_atom_site_label_2
_geom_bond_site_symmetry_1
_geom_bond_site_symmetry_2
N8 Fe2 1_555 1_555
C20 N8 1_555 1_555
Au3 C46 1_555 1_555
N22 Fe2 1_555 1_555
C46 N22 1_555 1_555
Au4 C20 1_555 1_555
N26 Fe2 1_555 1_555
C51 Au4 1_555 1_555
C53 Au3 1_555 1_555
Au1 C5 1_555 1_555
Fe1 N1 1_555 1_555
N1 C1 1_555 1_555
N2 Fe1 1_555 1_555
N3 C4 1_555 1_555
C1 H1 1_555 1_555
C2 C1 1_555 1_555
H2 C2 1_555 1_555
C3 C2 1_555 1_555
C4 C3 1_555 1_555
C5 N2 1_555 1_555
N4 C6 1_555 1_555
N5 C9 1_555 1_555
C6 H3 1_555 1_555
C7 C6 1_555 1_555
H4 C7 1_555 1_555
C8 C7 1_555 1_555
C9 N3 1_555 1_555
N6 C10 1_555 1_555
N7 C4 1_555 1_555
C10 H5 1_555 1_555
C11 C10 1_555 1_555
H6 C11 1_555 1_555
C12 C11 1_555 1_555
C13 N5 1_555 1_555
C14 N6 1_555 1_555
H7 C14 1_555 1_555
C15 C12 1_555 1_555
H8 C15 1_555 1_555
C16 N4 1_555 1_555
H9 C16 1_555 1_555
C17 C8 1_555 1_555
H10 C17 1_555 1_555
C18 N1 1_555 1_555
H11 C18 1_555 1_555
C19 C3 1_555 1_555
H12 C19 1_555 1_555
Fe2_2 N4 1_555 1_555
Fe5 N6 1_555 1_555
N10 Fe1 1_555 1_555
N11 Fe1 1_555 1_555
N12 C25 1_555 1_555
C22 N10 1_555 1_555
H13 C22 1_555 1_555
C23 C22 1_555 1_555
H14 C23 1_555 1_555
C24 C23 1_555 1_555
C25 C24 1_555 1_555
C26 N11 1_555 1_555
N13 C27 1_555 1_555
N14 C30 1_555 1_555
C27 H15 1_555 1_555
C28 C27 1_555 1_555
H16 C28 1_555 1_555
C29 C28 1_555 1_555
C30 N12 1_555 1_555
N26 C31 1_555 1_555
N16 C25 1_555 1_555
C31 H17 1_555 1_555
C32 C31 1_555 1_555
H18 C32 1_555 1_555
C33 C32 1_555 1_555
C34 N14 1_555 1_555
C35 N26 1_555 1_555
H19 C35 1_555 1_555
C36 C33 1_555 1_555
H20 C36 1_555 1_555
C37 N13 1_555 1_555
H21 C37 1_555 1_555
C38 C29 1_555 1_555
H22 C38 1_555 1_555
C39 N10 1_555 1_555
H23 C39 1_555 1_555
C40 C24 1_555 1_555
H24 C40 1_555 1_555
C41 Au1 1_555 1_555
N18 Fe1 1_555 1_555
C42 N18 1_555 1_555
N19 Fe2_2 1_555 1_555
C43 N19 1_555 1_555
N20 Fe5 1_555 1_555
C44 N20 1_555 1_555
N23 Fe1 1_555 1_555
C47 N23 1_555 1_555
N24 Fe2_2 1_555 1_555
C48 N24 1_555 1_555
Au6 C26 1_555 1_555
Au7 C48 1_555 1_555
Au8 C42 1_555 1_555
Au9 C43 1_555 1_555
Au10 C44 1_555 1_555
Au11 C47 1_555 1_555
Fe5_2 N13 1_555 1_555
N27 Fe5 1_555 1_555
C49 Au6 1_555 1_555
C8 C9 1_555 1_555
N7 C13 1_555 1_555
C12 C13 1_555 1_555
C14 C15 1_555 1_555
C16 C17 1_555 1_555
C18 C19 1_555 1_555
C29 C30 1_555 1_555
N16 C34 1_555 1_555
C33 C34 1_555 1_555
C35 C36 1_555 1_555
C37 C38 1_555 1_555
C39 C40 1_555 1_555
N9 Fe5_2 1_555 1_555
C21 N9 1_555 1_555
Au2 C45 1_555 1_555
N21 Fe5_2 1_555 1_555
C45 N21 1_555 1_555
Au5 C21 1_555 1_555
C50 Au5 1_555 1_555
C52 Au2 1_555 1_555
C48_2 N27 1_555 1_555
Au7_2 C48_2 1_555 1_555
C49_2 Au7 1_555 1_555
C52_2 Au11 1_555 1_555
C49_3 Au7_2 1_555 1_555
C52_3 Au8 1_555 1_555
C53_2 Au9 1_555 1_555
C52_4 Au10 1_555 1_555
Fe6 N17 1_555 1_555
Fe6_2 N17_2 1_555 1_555
Fe6_3 N17_3 1_555 1_555
Fe6_4 N17_4 1_555 1_555
Fe6_5 N17_5 1_555 1_555
Fe6_6 N17_6 1_555 1_555
N4_2 C6_2 1_555 1_555
C6_2 H3_2 1_555 1_555
C7_2 C6_2 1_555 1_555
C8_2 C7_2 1_555 1_555
C9_2 N3_2 1_555 1_555
C16_2 N4_2 1_555 1_555
H9_2 C16_2 1_555 1_555
C17_2 C8_2 1_555 1_555
H10_2 C17_2 1_555 1_555
Fe6_6 N4_2 1_555 1_555
N19_2 Fe6_6 1_555 1_555
C43_2 N19_2 1_555 1_555
N22_2 Fe6_6 1_555 1_555
N24_2 Fe6_6 1_555 1_555
C48_3 N24_2 1_555 1_555
Au7_3 C48_3 1_555 1_555
Au9_2 C43_2 1_555 1_555
N26_2 Fe6_6 1_555 1_555
C8_2 C9_2 1_555 1_555
C16_2 C17_2 1_555 1_555
Fe6_4 N1_2 1_555 1_555
N1_2 C1_2 1_555 1_555
C1_2 H1_2 1_555 1_555
C2_2 C1_2 1_555 1_555
C3_2 C2_2 1_555 1_555
C4_2 C3_2 1_555 1_555
C18_2 N1_2 1_555 1_555
H11_2 C18_2 1_555 1_555
C19_2 C3_2 1_555 1_555
N10_2 Fe6_4 1_555 1_555
N11_2 Fe6_4 1_555 1_555
N12_2 C25_2 1_555 1_555
C22_2 N10_2 1_555 1_555
H13_2 C22_2 1_555 1_555
C23_2 C22_2 1_555 1_555
H14_2 C23_2 1_555 1_555
C24_2 C23_2 1_555 1_555
C25_2 C24_2 1_555 1_555
C26_2 N11_2 1_555 1_555
N13_2 C27_2 1_555 1_555
N14_2 C30_2 1_555 1_555
C27_2 H15_2 1_555 1_555
C28_2 C27_2 1_555 1_555
H16_2 C28_2 1_555 1_555
C29_2 C28_2 1_555 1_555
C30_2 N12_2 1_555 1_555
N26_2 C31_2 1_555 1_555
N16_2 C25_2 1_555 1_555
C31_2 H17_2 1_555 1_555
C32_2 C31_2 1_555 1_555
H18_2 C32_2 1_555 1_555
C33_2 C32_2 1_555 1_555
C34_2 N14_2 1_555 1_555
C35_2 N26_2 1_555 1_555
H19_2 C35_2 1_555 1_555
C36_2 C33_2 1_555 1_555
H20_2 C36_2 1_555 1_555
C37_2 N13_2 1_555 1_555
H21_2 C37_2 1_555 1_555
C38_2 C29_2 1_555 1_555
H22_2 C38_2 1_555 1_555
C39_2 N10_2 1_555 1_555
H23_2 C39_2 1_555 1_555
C40_2 C24_2 1_555 1_555
H24_2 C40_2 1_555 1_555
N18_2 Fe6_4 1_555 1_555
C42_2 N18_2 1_555 1_555
N23_2 Fe6_4 1_555 1_555
Au6_2 C26_2 1_555 1_555
Au8_3 C42_2 1_555 1_555
Fe6_5 N13_2 1_555 1_555
C18_2 C19_2 1_555 1_555
C29_2 C30_2 1_555 1_555
N16_2 C34_2 1_555 1_555
C33_2 C34_2 1_555 1_555
C35_2 C36_2 1_555 1_555
C37_2 C38_2 1_555 1_555
C39_2 C40_2 1_555 1_555
N6_2 C10_2 1_555 1_555
C10_2 H5_2 1_555 1_555
C11_2 C10_2 1_555 1_555
H6_2 C11_2 1_555 1_555
C12_2 C11_2 1_555 1_555
C14_2 N6_2 1_555 1_555
H7_2 C14_2 1_555 1_555
C15_2 C12_2 1_555 1_555
Fe6_5 N6_2 1_555 1_555
N20_2 Fe6_5 1_555 1_555
C44_2 N20_2 1_555 1_555
N21_2 Fe6_5 1_555 1_555
Au10_2 C44_2 1_555 1_555
N27_2 Fe6_5 1_555 1_555
C49_4 Au6_3 1_555 1_555
N7_2 C13_2 1_555 1_555
C12_2 C13_2 1_555 1_555
C14_2 C15_2 1_555 1_555
C49_5 Au7_3 1_555 1_555
C48_4 N27_2 1_555 1_555
Au7_5 C48_4 1_555 1_555
C49_6 Au7_4 1_555 1_555
N17_7 C49_6 1_555 1_555
Fe6_2 N17_7 1_555 1_555
C52_5 Au8_2 1_555 1_555
C53_3 Au9_3 1_555 1_555
N17_8 C49_5 1_555 1_555
Fe6 N17_8 1_555 1_555
C52_6 Au10_2 1_555 1_555
N17_9 C49_4 1_555 1_555
Fe6_3 N17_9 1_555 1_555
N13_3 C27_3 1_555 1_555
C27_3 H15_3 1_555 1_555
C28_3 C27_3 1_555 1_555
C29_3 C28_3 1_555 1_555
C30_3 N12_3 1_555 1_555
C37_3 N13_3 1_555 1_555
H21_3 C37_3 1_555 1_555
C38_3 C29_3 1_555 1_555
H22_3 C38_3 1_555 1_555
Fe6 N13_3 1_555 1_555
C29_3 C30_3 1_555 1_555
C37_3 C38_3 1_555 1_555
Fe6_2 N1_3 1_555 1_555
N1_3 C1_3 1_555 1_555
N3_3 C4_3 1_555 1_555
C1_3 H1_3 1_555 1_555
C2_3 C1_3 1_555 1_555
H2_3 C2_3 1_555 1_555
C3_3 C2_3 1_555 1_555
C4_3 C3_3 1_555 1_555
N4_3 C6_3 1_555 1_555
N5_3 C9_3 1_555 1_555
C6_3 H3_3 1_555 1_555
C7_3 C6_3 1_555 1_555
H4_3 C7_3 1_555 1_555
C8_3 C7_3 1_555 1_555
C9_3 N3_3 1_555 1_555
N6_3 C10_3 1_555 1_555
N7_3 C4_3 1_555 1_555
C10_3 H5_3 1_555 1_555
C11_3 C10_3 1_555 1_555
H6_3 C11_3 1_555 1_555
C12_3 C11_3 1_555 1_555
C13_3 N5_3 1_555 1_555
C14_3 N6_3 1_555 1_555
H7_3 C14_3 1_555 1_555
C15_3 C12_3 1_555 1_555
H8_3 C15_3 1_555 1_555
C16_3 N4_3 1_555 1_555
H9_3 C16_3 1_555 1_555
C17_3 C8_3 1_555 1_555
H10_3 C17_3 1_555 1_555
C18_3 N1_3 1_555 1_555
H11_3 C18_3 1_555 1_555
C19_3 C3_3 1_555 1_555
H12_3 C19_3 1_555 1_555
Fe6_3 N4_3 1_555 1_555
Fe6 N6_3 1_555 1_555
N10_3 Fe6_2 1_555 1_555
C22_3 N10_3 1_555 1_555
H13_3 C22_3 1_555 1_555
C23_3 C22_3 1_555 1_555
C24_3 C23_3 1_555 1_555
C25_3 C24_3 1_555 1_555
C39_3 N10_3 1_555 1_555
H23_3 C39_3 1_555 1_555
C40_3 C24_3 1_555 1_555
N18_3 Fe6_2 1_555 1_555
N19_3 Fe6_3 1_555 1_555
N20_3 Fe6 1_555 1_555
N21_3 Fe6 1_555 1_555
C52_5 N21_3 1_555 1_555
N22_3 Fe6_3 1_555 1_555
C52_6 N22_3 1_555 1_555
N23_3 Fe6_2 1_555 1_555
C53_3 N23_3 1_555 1_555
N26_3 Fe6_3 1_555 1_555
C8_3 C9_3 1_555 1_555
N7_3 C13_3 1_555 1_555
C12_3 C13_3 1_555 1_555
C14_3 C15_3 1_555 1_555
C16_3 C17_3 1_555 1_555
C18_3 C19_3 1_555 1_555
C39_3 C40_3 1_555 1_555
N26_3 C31_3 1_555 1_555
C31_3 H17_3 1_555 1_555
C32_3 C31_3 1_555 1_555
H18_3 C32_3 1_555 1_555
C33_3 C32_3 1_555 1_555
C35_3 N26_3 1_555 1_555
H19_3 C35_3 1_555 1_555
C36_3 C33_3 1_555 1_555
N16_3 C34_3 1_555 1_555
C33_3 C34_3 1_555 1_555
C35_3 C36_3 1_555 1_555

#END
