
###############################################################################
#
# This file contains modified crystal structure data generated from the
# MOF subset of the Cambridge Structural Database (CSD) v543 
# hosted by the Cambridge Crystallographic Data Centre (CCDC).
#
# This work is licensed under the Creative Commons
# Attribution-NonCommercial-ShareAlike 4.0 International License.
# To view a copy of this license, visit
# http://creativecommons.org/licenses/by-nc-sa/4.0/
# or send a letter to
# Creative Commons, PO Box 1866, Mountain View, CA 94042, USA.
#
# CIF created using the CSD Python API on 29 September 2022
# The structure has been converted into the P1 space group
# The structure has a 3D framework
# The original CSD entry YOYVAL is in the rhombohedral crystal system
# The framework has been calculated to contain at least 10.0% void space
# The void calculation uses a probe of radius 1.32A, grid spacing 0.4
#
###############################################################################

data_YOYVAL
_chemical_formula_moiety         '(C144 H72 Ag32 Fe13 N72)n'
_symmetry_cell_setting           triclinic
_symmetry_space_group_name_H-M   'P 1'
_symmetry_Int_Tables_number      1
_space_group_name_Hall           'P 1'
loop_
_symmetry_equiv_pos_site_id
_symmetry_equiv_pos_as_xyz
1 x,y,z
_cell_length_a                   26.8824(10)
_cell_length_b                   26.8824(10)
_cell_length_c                   10.2072(5)
_cell_angle_alpha                90
_cell_angle_beta                 90
_cell_angle_gamma                120
_cell_volume                     6388.12
loop_
_atom_site_label
_atom_site_type_symbol
_atom_site_fract_x
_atom_site_fract_y
_atom_site_fract_z
Fe4 Fe 0.0000 0.5000 0.0000
Fe1 Fe 0.5000 0.0000 0.0000
Fe4_2 Fe 1.0000 0.5000 0.0000
Fe5 Fe 0.5000 0.5000 0.0000
N27 N 0.4418(4) 0.0019(3) 0.1430(7)
N30 N 0.5601(3) 0.0019(3) 0.1430(7)
Fe1_2 Fe 0.5000 1.0000 0.0000
N1 N 0.45267(15) 0.9053(3) 0.0102(9)
N3 N 0.30402(15) 0.69598(15) 0.0058(7)
C1 C 0.3956(3) 0.8758(3) 0.0098(9)
H1 H 0.3758 0.8959 0.0097
C2 C 0.3645(3) 0.8167(2) 0.0095(8)
H2 H 0.3246 0.7979 0.0103
C3 C 0.39265(17) 0.7853(3) 0.0079(10)
C4 C 0.36153(16) 0.7231(3) 0.0076(9)
N4 N 0.0947(3) 0.54737(34) 0.0102(9)
N5 N 0.30402(15) 0.60804(21) 0.0058(7)
C6 C 0.1242(3) 0.5198(4) 0.0098(9)
H3 H 0.1041 0.4799 0.0097
C7 C 0.1833(2) 0.5478(4) 0.0095(8)
H4 H 0.2021 0.5267 0.0103
C8 C 0.2147(3) 0.60735(34) 0.0079(10)
C9 C 0.2769(3) 0.63843(34) 0.0076(9)
N6 N 0.45263(34) 0.54733(15) 0.0102(9)
N7 N 0.39196(21) 0.69598(15) 0.0058(7)
C10 C 0.4802(4) 0.6044(3) 0.0098(9)
H5 H 0.5201 0.6242 0.0097
C11 C 0.4522(4) 0.6355(3) 0.0095(8)
H6 H 0.4733 0.6754 0.0103
C12 C 0.39265(34) 0.60735(17) 0.0079(10)
C13 C 0.36157(34) 0.63847(16) 0.0076(9)
C14 C 0.4802(4) 0.8758(3) 0.0098(9)
H7 H 0.5201 0.8959 0.0097
C15 C 0.4522(4) 0.8167(2) 0.0095(8)
H8 H 0.4733 0.7979 0.0103
C16 C 0.3956(3) 0.5198(4) 0.0098(9)
H9 H 0.3758 0.4799 0.0097
C17 C 0.3645(3) 0.5478(4) 0.0095(8)
H10 H 0.3246 0.5267 0.0103
C18 C 0.1242(3) 0.6044(3) 0.0098(9)
H11 H 0.1041 0.6242 0.0097
C19 C 0.1833(2) 0.6355(3) 0.0095(8)
H12 H 0.2021 0.6754 0.0103
N28 N 0.5601(3) 0.5582(4) 0.1430(7)
N32 N 0.4418(4) 0.4399(3) 0.1430(7)
N29 N 0.9981(3) 0.4399(3) 0.1430(7)
N31 N 0.9981(3) 0.5582(4) 0.1430(7)
Ag1 Ag 0.36850(4) 0.03520(4) 0.3333
C5 C 0.4118(5) 0.0094(4) 0.2106(9)
Ag2 Ag 0.66670(6) 0.63150(4) 0.3333
C20 C 0.5976(6) 0.5882(5) 0.2106(9)
Ag3 Ag 0.96480(4) 0.3333 0.3333
C21 C 0.9906(6) 0.4024(3) 0.2106(9)
N10 N 0.7732(5) 0.6648(3) 0.5237(7)
C22 C 0.7357(6) 0.6573(4) 0.4561(9)
N11 N 0.3352(5) 0.1085(4) 0.5237(7)
C23 C 0.3427(6) 0.0785(5) 0.4561(9)
N12 N 0.8915(4) 0.2268(3) 0.5237(7)
C24 C 0.9215(5) 0.2643(3) 0.4561(9)
Ag4 Ag 0.66670(6) 0.03520(4) 0.3333
C25 C 0.5976(6) 0.0094(4) 0.2106(9)
Ag5 Ag 0.96480(4) 0.63150(4) 0.3333
C26 C 0.9906(6) 0.5882(5) 0.2106(9)
Ag6 Ag 0.36850(4) 0.3333 0.3333
C27 C 0.4118(5) 0.4024(3) 0.2106(9)
N16 N 0.8915(4) 0.6648(3) 0.5237(7)
C28 C 0.9215(5) 0.6573(4) 0.4561(9)
N17 N 0.7732(5) 0.1085(4) 0.5237(7)
C29 C 0.7357(6) 0.0785(5) 0.4561(9)
N18 N 0.3352(5) 0.2268(3) 0.5237(7)
C30 C 0.3427(6) 0.2643(3) 0.4561(9)
Fe6 Fe 0.8333 0.6667 0.6667
Fe7 Fe 0.8333 0.1667 0.6667
Fe8 Fe 0.3333 0.1667 0.6667
Ag1_2 Ag -0.0000 0.29813(4) 1.0000
Ag3_2 Ag 0.29817(4) 0.0000 1.0000
N12_2 N 0.3314(3) 0.1066(3) 0.8097(7)
C24_2 C 0.3239(4) 0.0691(3) 0.8773(9)
Ag4_2 Ag 0.29817(4) 0.29813(4) 1.0000
N17_2 N 0.3314(3) 0.2249(4) 0.8097(7)
C29_2 C 0.3239(4) 0.2549(5) 0.8773(9)
Ag3_3 Ag 0.29817(4) 1.0000 1.0000
Ag5_2 Ag -0.0000 0.70183(4) 1.0000
Ag1_3 Ag 1.0000 0.29813(4) 1.0000
N11_2 N 0.8934(3) 0.2249(4) 0.8097(7)
C23_2 C 0.9309(3) 0.2549(5) 0.8773(9)
Ag6_2 Ag 0.70187(4) 0.0000 1.0000
N18_2 N 0.7751(4) 0.1066(3) 0.8097(7)
C30_2 C 0.7451(5) 0.0691(3) 0.8773(9)
Ag2_2 Ag 0.70187(4) 0.70183(4) 1.0000
N10_2 N 0.7751(4) 0.6686(3) 0.8097(7)
C22_2 C 0.7451(5) 0.6761(4) 0.8773(9)
Ag5_3 Ag 1.0000 0.70183(4) 1.0000
Ag6_3 Ag 0.70187(4) 1.0000 1.0000
N16_2 N 0.8934(3) 0.6686(3) 0.8097(7)
C28_2 C 0.9309(3) 0.6761(4) 0.8773(9)
N22 N 0.02931(15) 0.05863(21) 0.6609(7)
H16 H 0.0087 0.1400 0.6564
N23 N 0.2386(3) 0.11934(15) 0.6565(9)
C39 C 0.2091(3) 0.0623(3) 0.6569(9)
H17 H 0.2292 0.0425 0.6570
C40 C 0.1500(2) 0.0312(3) 0.6572(8)
C41 C 0.1186(3) 0.05932(17) 0.6588(10)
C42 C 0.0564(3) 0.02820(16) 0.6591(9)
C45 C 0.2091(3) 0.1469(4) 0.6569(9)
H21 H 0.2292 0.1868 0.6570
C46 C 0.1500(2) 0.1189(4) 0.6572(8)
H22 H 0.1312 0.1400 0.6564
N24 N 0.02931(15) 0.97069(15) 0.6609(7)
H18 H 0.1312 0.9913 0.6564
H20 H 0.0087 0.8688 0.6564
N21 N 0.88066(15) 0.11930(34) 0.6565(9)
C35 C 0.9377(3) 0.1469(4) 0.6569(9)
H15 H 0.9575 0.1868 0.6570
C36 C 0.9688(3) 0.1189(4) 0.6572(8)
C37 C 0.94068(17) 0.05932(34) 0.6588(10)
C38 C 0.97180(16) 0.02824(34) 0.6591(9)
C47 C 0.8531(4) 0.0623(3) 0.6569(9)
H23 H 0.8132 0.0425 0.6570
C48 C 0.8811(4) 0.0312(3) 0.6572(8)
N1_2 N 0.78600(15) 0.5720(3) 0.6769(9)
N3_2 N 0.63735(15) 0.36265(15) 0.6725(7)
C1_2 C 0.7289(3) 0.5425(3) 0.6765(9)
H1_2 H 0.7091 0.5626 0.6764
C2_2 C 0.6978(3) 0.4834(2) 0.6762(8)
H2_2 H 0.6579 0.4646 0.6770
C3_2 C 0.72598(17) 0.4520(3) 0.6746(10)
C4_2 C 0.69486(16) 0.3898(3) 0.6743(9)
N4_2 N 0.4280(3) 0.21404(34) 0.6769(9)
N5_2 N 0.63735(15) 0.27471(21) 0.6725(7)
C6_2 C 0.4575(3) 0.1865(4) 0.6765(9)
H3_2 H 0.4374 0.1466 0.6764
C7_2 C 0.5166(2) 0.2145(4) 0.6762(8)
H4_2 H 0.5354 0.1934 0.6770
C8_2 C 0.5480(3) 0.27402(34) 0.6746(10)
C9_2 C 0.6102(3) 0.30510(34) 0.6743(9)
N6_2 N 0.78596(34) 0.21400(15) 0.6769(9)
N7_2 N 0.72529(21) 0.36265(15) 0.6725(7)
C10_2 C 0.8135(4) 0.2711(3) 0.6765(9)
H5_2 H 0.8534 0.2909 0.6764
C11_2 C 0.7855(4) 0.3022(3) 0.6762(8)
H6_2 H 0.8066 0.3421 0.6770
C12_2 C 0.72598(34) 0.27402(17) 0.6746(10)
C13_2 C 0.69490(34) 0.30514(16) 0.6743(9)
C14_2 C 0.8135(4) 0.5425(3) 0.6765(9)
H7_2 H 0.8534 0.5626 0.6764
C15_2 C 0.7855(4) 0.4834(2) 0.6762(8)
H8_2 H 0.8066 0.4646 0.6770
C16_2 C 0.7289(3) 0.1865(4) 0.6765(9)
H9_2 H 0.7091 0.1466 0.6764
C17_2 C 0.6978(3) 0.2145(4) 0.6762(8)
H10_2 H 0.6579 0.1934 0.6770
C18_2 C 0.4575(3) 0.2711(3) 0.6765(9)
H11_2 H 0.4374 0.2909 0.6764
C19_2 C 0.5166(2) 0.3022(3) 0.6762(8)
H12_2 H 0.5354 0.3421 0.6770
N19 N 0.88070(34) 0.7614(3) 0.6565(9)
N20 N 0.94137(21) 0.97069(15) 0.6609(7)
C31 C 0.8531(4) 0.7909(3) 0.6569(9)
H13 H 0.8132 0.7708 0.6570
C32 C 0.8811(4) 0.8500(2) 0.6572(8)
H14 H 0.8600 0.8688 0.6564
C33 C 0.94068(34) 0.8814(3) 0.6588(10)
C34 C 0.97176(34) 0.9436(3) 0.6591(9)
C43 C 0.9377(3) 0.7909(3) 0.6569(9)
H19 H 0.9575 0.7708 0.6570
C44 C 0.9688(3) 0.8500(2) 0.6572(8)
H24 H 0.8600 0.9913 0.6564
Fe4_3 Fe 0.0000 0.5000 1.0000
Fe1_3 Fe 0.5000 0.0000 1.0000
N19_2 N 0.54737(34) 0.0947(3) 0.9898(9)
N20_2 N 0.60804(21) 0.30402(15) 0.9942(7)
C31_2 C 0.5198(4) 0.1242(3) 0.9902(9)
H13_2 H 0.4799 0.1041 0.9903
C32_2 C 0.5478(4) 0.1833(2) 0.9905(8)
H14_2 H 0.5267 0.2021 0.9897
C33_2 C 0.60735(34) 0.2147(3) 0.9921(10)
C34_2 C 0.63843(34) 0.2769(3) 0.9924(9)
N21_2 N 0.54733(15) 0.45263(34) 0.9898(9)
N22_2 N 0.69598(15) 0.39196(21) 0.9942(7)
C35_2 C 0.6044(3) 0.4802(4) 0.9902(9)
H15_2 H 0.6242 0.5201 0.9903
C36_2 C 0.6355(3) 0.4522(4) 0.9905(8)
H16_2 H 0.6754 0.4733 0.9897
C37_2 C 0.60735(17) 0.39265(34) 0.9921(10)
C38_2 C 0.63847(16) 0.36157(34) 0.9924(9)
N23_2 N 0.9053(3) 0.45267(15) 0.9898(9)
N24_2 N 0.69598(15) 0.30402(15) 0.9942(7)
C39_2 C 0.8758(3) 0.3956(3) 0.9902(9)
H17_2 H 0.8959 0.3758 0.9903
C40_2 C 0.8167(2) 0.3645(3) 0.9905(8)
H18_2 H 0.7979 0.3246 0.9897
C41_2 C 0.7853(3) 0.39265(17) 0.9921(10)
C42_2 C 0.7231(3) 0.36153(16) 0.9924(9)
C43_2 C 0.6044(3) 0.1242(3) 0.9902(9)
H19_2 H 0.6242 0.1041 0.9903
C44_2 C 0.6355(3) 0.1833(2) 0.9905(8)
H20_2 H 0.6754 0.2021 0.9897
C45_2 C 0.8758(3) 0.4802(4) 0.9902(9)
H21_2 H 0.8959 0.5201 0.9903
C46_2 C 0.8167(2) 0.4522(4) 0.9905(8)
H22_2 H 0.7979 0.4733 0.9897
C47_2 C 0.5198(4) 0.3956(3) 0.9902(9)
H23_2 H 0.4799 0.3758 0.9903
C48_2 C 0.5478(4) 0.3645(3) 0.9905(8)
H24_2 H 0.5267 0.3246 0.9897
Fe4_4 Fe 1.0000 0.5000 1.0000
Fe5_2 Fe 0.5000 0.5000 1.0000
Ag1_4 Ag 0.3333 0.96480(4) 0.6667
Fe1_4 Fe 0.5000 1.0000 1.0000
N2 N 0.4399(3) 0.9981(3) 0.8570(7)
C5_2 C 0.4024(3) 0.9906(4) 0.7894(9)
Ag2_3 Ag 0.03520(4) 0.36850(4) 0.6667
N8 N 0.0019(3) 0.4418(4) 0.8570(7)
C20_2 C 0.0094(4) 0.4118(5) 0.7894(9)
Ag3_4 Ag 0.63150(4) 0.6667 0.6667
N9 N 0.5582(4) 0.5601(3) 0.8570(7)
C21_2 C 0.5882(5) 0.5976(3) 0.7894(9)
N10_3 N 0.1085(4) 0.3352(3) 0.4763(7)
C22_3 C 0.0785(5) 0.3427(4) 0.5439(9)
N11_3 N 0.2268(3) 0.8915(4) 0.4763(7)
C23_3 C 0.2643(3) 0.9215(5) 0.5439(9)
N12_3 N 0.6648(3) 0.7732(3) 0.4763(7)
C24_3 C 0.6573(4) 0.7357(3) 0.5439(9)
Ag4_3 Ag 0.63150(4) 0.96480(4) 0.6667
N13 N 0.5582(4) 0.9981(3) 0.8570(7)
C25_2 C 0.5882(5) 0.9906(4) 0.7894(9)
Ag5_4 Ag 0.3333 0.36850(4) 0.6667
N14 N 0.4399(3) 0.4418(4) 0.8570(7)
C26_2 C 0.4024(3) 0.4118(5) 0.7894(9)
Ag6_4 Ag 0.03520(4) 0.6667 0.6667
N15 N 0.0019(3) 0.5601(3) 0.8570(7)
C27_2 C 0.0094(4) 0.5976(3) 0.7894(9)
N16_3 N 0.2268(3) 0.3352(3) 0.4763(7)
C28_3 C 0.2643(3) 0.3427(4) 0.5439(9)
N17_3 N 0.6648(3) 0.8915(4) 0.4763(7)
C29_3 C 0.6573(4) 0.9215(5) 0.5439(9)
N18_3 N 0.1085(4) 0.7732(3) 0.4763(7)
C30_3 C 0.0785(5) 0.7357(3) 0.5439(9)
Fe6_2 Fe 0.1667 0.3333 0.3333
Fe7_2 Fe 0.6667 0.8333 0.3333
Fe8_2 Fe 0.1667 0.8333 0.3333
Ag1_5 Ag -0.0000 0.29813(4) 0.0000
N1_3 N 0.11934(15) 0.2386(3) 0.3435(9)
N2_2 N 0.1066(3) 0.3314(3) 0.1903(7)
C1_3 C 0.0623(3) 0.2091(3) 0.3431(9)
H1_3 H 0.0425 0.2292 0.3430
C2_3 C 0.0312(3) 0.1500(2) 0.3428(8)
C3_3 C 0.05932(17) 0.1186(3) 0.3412(10)
C4_3 C 0.02820(16) 0.0564(3) 0.3409(9)
C5_3 C 0.0691(3) 0.3239(4) 0.1227(9)
N7_3 N 0.05863(21) 0.02931(15) 0.3391(7)
H6_3 H 0.1400 0.0087 0.3436
C14_3 C 0.1469(4) 0.2091(3) 0.3431(9)
H7_3 H 0.1868 0.2292 0.3430
C15_3 C 0.1189(4) 0.1500(2) 0.3428(8)
H8_3 H 0.1400 0.1312 0.3436
Ag3_5 Ag 0.29817(4) 0.0000 0.0000
Ag4_4 Ag 0.29817(4) 0.29813(4) 0.0000
N13_2 N 0.2249(4) 0.3314(3) 0.1903(7)
C25_3 C 0.2549(5) 0.3239(4) 0.1227(9)
N19_3 N 0.21404(34) 0.4280(3) 0.3231(9)
N20_3 N 0.27471(21) 0.63735(15) 0.3275(7)
C31_3 C 0.1865(4) 0.4575(3) 0.3235(9)
H13_3 H 0.1466 0.4374 0.3236
C32_3 C 0.2145(4) 0.5166(2) 0.3238(8)
H14_3 H 0.1934 0.5354 0.3230
C33_3 C 0.27402(34) 0.5480(3) 0.3254(10)
C34_3 C 0.30510(34) 0.6102(3) 0.3257(9)
N21_3 N 0.21400(15) 0.78596(34) 0.3231(9)
N22_3 N 0.36265(15) 0.72529(21) 0.3275(7)
C35_3 C 0.2711(3) 0.8135(4) 0.3235(9)
H15_3 H 0.2909 0.8534 0.3236
C36_3 C 0.3022(3) 0.7855(4) 0.3238(8)
H16_3 H 0.3421 0.8066 0.3230
C37_3 C 0.27402(17) 0.72598(34) 0.3254(10)
C38_3 C 0.30514(16) 0.69490(34) 0.3257(9)
N23_3 N 0.5720(3) 0.78600(15) 0.3231(9)
N24_3 N 0.36265(15) 0.63735(15) 0.3275(7)
C39_3 C 0.5425(3) 0.7289(3) 0.3235(9)
H17_3 H 0.5626 0.7091 0.3236
C40_3 C 0.4834(2) 0.6978(3) 0.3238(8)
H18_3 H 0.4646 0.6579 0.3230
C41_3 C 0.4520(3) 0.72598(17) 0.3254(10)
C42_3 C 0.3898(3) 0.69486(16) 0.3257(9)
C43_3 C 0.2711(3) 0.4575(3) 0.3235(9)
H19_3 H 0.2909 0.4374 0.3236
C44_3 C 0.3022(3) 0.5166(2) 0.3238(8)
H20_3 H 0.3421 0.5354 0.3230
C45_3 C 0.5425(3) 0.8135(4) 0.3235(9)
H21_3 H 0.5626 0.8534 0.3236
C46_3 C 0.4834(2) 0.7855(4) 0.3238(8)
H22_3 H 0.4646 0.8066 0.3230
C47_3 C 0.1865(4) 0.7289(3) 0.3235(9)
H23_3 H 0.1466 0.7091 0.3236
C48_3 C 0.2145(4) 0.6978(3) 0.3238(8)
H24_3 H 0.1934 0.6579 0.3230
N6_3 N 0.11930(34) 0.88066(15) 0.3435(9)
C10_3 C 0.1469(4) 0.9377(3) 0.3431(9)
H5_3 H 0.1868 0.9575 0.3430
C11_3 C 0.1189(4) 0.9688(3) 0.3428(8)
C12_3 C 0.05932(34) 0.94068(17) 0.3412(10)
C13_3 C 0.02824(34) 0.97180(16) 0.3409(9)
C16_3 C 0.0623(3) 0.8531(4) 0.3431(9)
H9_3 H 0.0425 0.8132 0.3430
C17_3 C 0.0312(3) 0.8811(4) 0.3428(8)
Ag3_6 Ag 0.29817(4) 1.0000 0.0000
N9_2 N 0.2249(4) 0.8934(3) 0.1903(7)
C21_3 C 0.2549(5) 0.9309(3) 0.1227(9)
Ag5_5 Ag -0.0000 0.70183(4) 0.0000
N14_2 N 0.1066(3) 0.7751(4) 0.1903(7)
C26_3 C 0.0691(3) 0.7451(5) 0.1227(9)
Ag1_6 Ag 1.0000 0.29813(4) 0.0000
N3_3 N 0.97069(15) 0.02931(15) 0.3391(7)
H2_3 H 0.9913 0.1312 0.3436
H12_3 H 0.8688 0.0087 0.3436
Ag6_5 Ag 0.70187(4) 0.0000 0.0000
N4_3 N 0.7614(3) 0.88070(34) 0.3435(9)
N5_3 N 0.97069(15) 0.94137(21) 0.3391(7)
C6_3 C 0.7909(3) 0.8531(4) 0.3431(9)
H3_3 H 0.7708 0.8132 0.3430
C7_3 C 0.8500(2) 0.8811(4) 0.3428(8)
H4_3 H 0.8688 0.8600 0.3436
C8_3 C 0.8814(3) 0.94068(34) 0.3412(10)
C9_3 C 0.9436(3) 0.97176(34) 0.3409(9)
H10_3 H 0.9913 0.8600 0.3436
C18_3 C 0.7909(3) 0.9377(3) 0.3431(9)
H11_3 H 0.7708 0.9575 0.3430
C19_3 C 0.8500(2) 0.9688(3) 0.3428(8)
Ag2_4 Ag 0.70187(4) 0.70183(4) 0.0000
N8_2 N 0.6686(3) 0.7751(4) 0.1903(7)
C20_3 C 0.6761(4) 0.7451(5) 0.1227(9)
Ag5_6 Ag 1.0000 0.70183(4) 0.0000
Ag6_6 Ag 0.70187(4) 1.0000 0.0000
N15_2 N 0.6686(3) 0.8934(3) 0.1903(7)
C27_3 C 0.6761(4) 0.9309(3) 0.1227(9)
loop_
_geom_bond_atom_site_label_1
_geom_bond_atom_site_label_2
_geom_bond_site_symmetry_1
_geom_bond_site_symmetry_2
N27 Fe1 1_555 1_555
N30 Fe1 1_555 1_555
Fe1_2 N1 1_555 1_555
N1 C1 1_555 1_555
N3 C4 1_555 1_555
C1 H1 1_555 1_555
C2 C1 1_555 1_555
H2 C2 1_555 1_555
C3 C2 1_555 1_555
C4 C3 1_555 1_555
N4 C6 1_555 1_555
N5 C9 1_555 1_555
C6 H3 1_555 1_555
C7 C6 1_555 1_555
H4 C7 1_555 1_555
C8 C7 1_555 1_555
C9 N3 1_555 1_555
N6 C10 1_555 1_555
N7 C4 1_555 1_555
C10 H5 1_555 1_555
C11 C10 1_555 1_555
H6 C11 1_555 1_555
C12 C11 1_555 1_555
C13 N5 1_555 1_555
C14 N1 1_555 1_555
H7 C14 1_555 1_555
C15 C3 1_555 1_555
H8 C15 1_555 1_555
C16 N6 1_555 1_555
H9 C16 1_555 1_555
C17 C12 1_555 1_555
H10 C17 1_555 1_555
C18 N4 1_555 1_555
H11 C18 1_555 1_555
C19 C8 1_555 1_555
H12 C19 1_555 1_555
Fe4 N4 1_555 1_555
Fe5 N6 1_555 1_555
N28 Fe5 1_555 1_555
N32 Fe5 1_555 1_555
C8 C9 1_555 1_555
N7 C13 1_555 1_555
C12 C13 1_555 1_555
C14 C15 1_555 1_555
C16 C17 1_555 1_555
C18 C19 1_555 1_555
N29 Fe4_2 1_555 1_555
N31 Fe4_2 1_555 1_555
Ag1 C5 1_555 1_555
C5 N27 1_555 1_555
Ag2 C20 1_555 1_555
C20 N28 1_555 1_555
Ag3 C21 1_555 1_555
C21 N29 1_555 1_555
N10 C22 1_555 1_555
C22 Ag2 1_555 1_555
N11 C23 1_555 1_555
C23 Ag1 1_555 1_555
N12 C24 1_555 1_555
C24 Ag3 1_555 1_555
Ag4 C25 1_555 1_555
C25 N30 1_555 1_555
Ag5 C26 1_555 1_555
C26 N31 1_555 1_555
Ag6 C27 1_555 1_555
C27 N32 1_555 1_555
N16 C28 1_555 1_555
C28 Ag5 1_555 1_555
N17 C29 1_555 1_555
C29 Ag4 1_555 1_555
N18 C30 1_555 1_555
C30 Ag6 1_555 1_555
Fe6 N10 1_555 1_555
Fe7 N12 1_555 1_555
Fe8 N11 1_555 1_555
N16 Fe6 1_555 1_555
N17 Fe7 1_555 1_555
N18 Fe8 1_555 1_555
N12_2 C24_2 1_555 1_555
C24_2 Ag3_2 1_555 1_555
N17_2 C29_2 1_555 1_555
C29_2 Ag4_2 1_555 1_555
Fe8 N12_2 1_555 1_555
N17_2 Fe8 1_555 1_555
N11_2 C23_2 1_555 1_555
C23_2 Ag1_3 1_555 1_555
N18_2 C30_2 1_555 1_555
C30_2 Ag6_2 1_555 1_555
Fe7 N11_2 1_555 1_555
N18_2 Fe7 1_555 1_555
N10_2 C22_2 1_555 1_555
C22_2 Ag2_2 1_555 1_555
N16_2 C28_2 1_555 1_555
C28_2 Ag5_3 1_555 1_555
Fe6 N10_2 1_555 1_555
N16_2 Fe6 1_555 1_555
N23 C39 1_555 1_555
C39 H17 1_555 1_555
C40 C39 1_555 1_555
C41 C40 1_555 1_555
C42 N22 1_555 1_555
C45 N23 1_555 1_555
H21 C45 1_555 1_555
C46 C41 1_555 1_555
H22 C46 1_555 1_555
Fe8 N23 1_555 1_555
C41 C42 1_555 1_555
C45 C46 1_555 1_555
N21 C35 1_555 1_555
C35 H15 1_555 1_555
C36 C35 1_555 1_555
C37 C36 1_555 1_555
C47 N21 1_555 1_555
H23 C47 1_555 1_555
C48 C37 1_555 1_555
Fe7 N21 1_555 1_555
C37 C38 1_555 1_555
C47 C48 1_555 1_555
Fe6 N1_2 1_555 1_555
N1_2 C1_2 1_555 1_555
N3_2 C4_2 1_555 1_555
C1_2 H1_2 1_555 1_555
C2_2 C1_2 1_555 1_555
H2_2 C2_2 1_555 1_555
C3_2 C2_2 1_555 1_555
C4_2 C3_2 1_555 1_555
N4_2 C6_2 1_555 1_555
N5_2 C9_2 1_555 1_555
C6_2 H3_2 1_555 1_555
C7_2 C6_2 1_555 1_555
H4_2 C7_2 1_555 1_555
C8_2 C7_2 1_555 1_555
C9_2 N3_2 1_555 1_555
N6_2 C10_2 1_555 1_555
N7_2 C4_2 1_555 1_555
C10_2 H5_2 1_555 1_555
C11_2 C10_2 1_555 1_555
H6_2 C11_2 1_555 1_555
C12_2 C11_2 1_555 1_555
C13_2 N5_2 1_555 1_555
C14_2 N1_2 1_555 1_555
H7_2 C14_2 1_555 1_555
C15_2 C3_2 1_555 1_555
H8_2 C15_2 1_555 1_555
C16_2 N6_2 1_555 1_555
H9_2 C16_2 1_555 1_555
C17_2 C12_2 1_555 1_555
H10_2 C17_2 1_555 1_555
C18_2 N4_2 1_555 1_555
H11_2 C18_2 1_555 1_555
C19_2 C8_2 1_555 1_555
H12_2 C19_2 1_555 1_555
Fe8 N4_2 1_555 1_555
Fe7 N6_2 1_555 1_555
N19 Fe6 1_555 1_555
N20 C34 1_555 1_555
C31 N19 1_555 1_555
H13 C31 1_555 1_555
C32 C31 1_555 1_555
H14 C32 1_555 1_555
C33 C32 1_555 1_555
C34 C33 1_555 1_555
C43 N19 1_555 1_555
H19 C43 1_555 1_555
C44 C33 1_555 1_555
C8_2 C9_2 1_555 1_555
N7_2 C13_2 1_555 1_555
C12_2 C13_2 1_555 1_555
C14_2 C15_2 1_555 1_555
C16_2 C17_2 1_555 1_555
C18_2 C19_2 1_555 1_555
C43 C44 1_555 1_555
N19_2 Fe1_3 1_555 1_555
N20_2 C34_2 1_555 1_555
C31_2 N19_2 1_555 1_555
H13_2 C31_2 1_555 1_555
C32_2 C31_2 1_555 1_555
H14_2 C32_2 1_555 1_555
C33_2 C32_2 1_555 1_555
C34_2 C33_2 1_555 1_555
N21_2 C35_2 1_555 1_555
N22_2 C38_2 1_555 1_555
C35_2 H15_2 1_555 1_555
C36_2 C35_2 1_555 1_555
H16_2 C36_2 1_555 1_555
C37_2 C36_2 1_555 1_555
C38_2 N20_2 1_555 1_555
N23_2 C39_2 1_555 1_555
N24_2 C34_2 1_555 1_555
C39_2 H17_2 1_555 1_555
C40_2 C39_2 1_555 1_555
H18_2 C40_2 1_555 1_555
C41_2 C40_2 1_555 1_555
C42_2 N22_2 1_555 1_555
C43_2 N19_2 1_555 1_555
H19_2 C43_2 1_555 1_555
C44_2 C33_2 1_555 1_555
H20_2 C44_2 1_555 1_555
C45_2 N23_2 1_555 1_555
H21_2 C45_2 1_555 1_555
C46_2 C41_2 1_555 1_555
H22_2 C46_2 1_555 1_555
C47_2 N21_2 1_555 1_555
H23_2 C47_2 1_555 1_555
C48_2 C37_2 1_555 1_555
H24_2 C48_2 1_555 1_555
Fe4_4 N23_2 1_555 1_555
Fe5_2 N21_2 1_555 1_555
C37_2 C38_2 1_555 1_555
N24_2 C42_2 1_555 1_555
C41_2 C42_2 1_555 1_555
C43_2 C44_2 1_555 1_555
C45_2 C46_2 1_555 1_555
C47_2 C48_2 1_555 1_555
Ag1_4 C5_2 1_555 1_555
N2 Fe1_4 1_555 1_555
C5_2 N2 1_555 1_555
Ag2_3 C20_2 1_555 1_555
N8 Fe4_3 1_555 1_555
C20_2 N8 1_555 1_555
Ag3_4 C21_2 1_555 1_555
N9 Fe5_2 1_555 1_555
C21_2 N9 1_555 1_555
N10_3 C22_3 1_555 1_555
C22_3 Ag2_3 1_555 1_555
N11_3 C23_3 1_555 1_555
C23_3 Ag1_4 1_555 1_555
N12_3 C24_3 1_555 1_555
C24_3 Ag3_4 1_555 1_555
Ag4_3 C25_2 1_555 1_555
N13 Fe1_4 1_555 1_555
C25_2 N13 1_555 1_555
Ag5_4 C26_2 1_555 1_555
N14 Fe5_2 1_555 1_555
C26_2 N14 1_555 1_555
Ag6_4 C27_2 1_555 1_555
N15 Fe4_3 1_555 1_555
C27_2 N15 1_555 1_555
N16_3 C28_3 1_555 1_555
C28_3 Ag5_4 1_555 1_555
N17_3 C29_3 1_555 1_555
C29_3 Ag4_3 1_555 1_555
N18_3 C30_3 1_555 1_555
C30_3 Ag6_4 1_555 1_555
Fe6_2 N10_3 1_555 1_555
Fe7_2 N12_3 1_555 1_555
Fe8_2 N11_3 1_555 1_555
N16_3 Fe6_2 1_555 1_555
N17_3 Fe7_2 1_555 1_555
N18_3 Fe8_2 1_555 1_555
Ag1_5 C5_3 1_555 1_555
Fe6_2 N1_3 1_555 1_555
N1_3 C1_3 1_555 1_555
N2_2 Fe6_2 1_555 1_555
C1_3 H1_3 1_555 1_555
C2_3 C1_3 1_555 1_555
C3_3 C2_3 1_555 1_555
C4_3 C3_3 1_555 1_555
C5_3 N2_2 1_555 1_555
N7_3 C4_3 1_555 1_555
C14_3 N1_3 1_555 1_555
H7_3 C14_3 1_555 1_555
C15_3 C3_3 1_555 1_555
H8_3 C15_3 1_555 1_555
Ag4_4 C25_3 1_555 1_555
N13_2 Fe6_2 1_555 1_555
C25_3 N13_2 1_555 1_555
N19_3 Fe6_2 1_555 1_555
N20_3 C34_3 1_555 1_555
C31_3 N19_3 1_555 1_555
H13_3 C31_3 1_555 1_555
C32_3 C31_3 1_555 1_555
H14_3 C32_3 1_555 1_555
C33_3 C32_3 1_555 1_555
C34_3 C33_3 1_555 1_555
N21_3 C35_3 1_555 1_555
N22_3 C38_3 1_555 1_555
C35_3 H15_3 1_555 1_555
C36_3 C35_3 1_555 1_555
H16_3 C36_3 1_555 1_555
C37_3 C36_3 1_555 1_555
C38_3 N20_3 1_555 1_555
N23_3 C39_3 1_555 1_555
N24_3 C34_3 1_555 1_555
C39_3 H17_3 1_555 1_555
C40_3 C39_3 1_555 1_555
H18_3 C40_3 1_555 1_555
C41_3 C40_3 1_555 1_555
C42_3 N22_3 1_555 1_555
C43_3 N19_3 1_555 1_555
H19_3 C43_3 1_555 1_555
C44_3 C33_3 1_555 1_555
H20_3 C44_3 1_555 1_555
C45_3 N23_3 1_555 1_555
H21_3 C45_3 1_555 1_555
C46_3 C41_3 1_555 1_555
H22_3 C46_3 1_555 1_555
C47_3 N21_3 1_555 1_555
H23_3 C47_3 1_555 1_555
C48_3 C37_3 1_555 1_555
H24_3 C48_3 1_555 1_555
Fe7_2 N23_3 1_555 1_555
Fe8_2 N21_3 1_555 1_555
C14_3 C15_3 1_555 1_555
C37_3 C38_3 1_555 1_555
N24_3 C42_3 1_555 1_555
C41_3 C42_3 1_555 1_555
C43_3 C44_3 1_555 1_555
C45_3 C46_3 1_555 1_555
C47_3 C48_3 1_555 1_555
N6_3 C10_3 1_555 1_555
C10_3 H5_3 1_555 1_555
C11_3 C10_3 1_555 1_555
C12_3 C11_3 1_555 1_555
C16_3 N6_3 1_555 1_555
H9_3 C16_3 1_555 1_555
C17_3 C12_3 1_555 1_555
Ag3_6 C21_3 1_555 1_555
Fe8_2 N6_3 1_555 1_555
N9_2 Fe8_2 1_555 1_555
C21_3 N9_2 1_555 1_555
Ag5_5 C26_3 1_555 1_555
N14_2 Fe8_2 1_555 1_555
C26_3 N14_2 1_555 1_555
C12_3 C13_3 1_555 1_555
C16_3 C17_3 1_555 1_555
N4_3 C6_3 1_555 1_555
N5_3 C9_3 1_555 1_555
C6_3 H3_3 1_555 1_555
C7_3 C6_3 1_555 1_555
H4_3 C7_3 1_555 1_555
C8_3 C7_3 1_555 1_555
C18_3 N4_3 1_555 1_555
H11_3 C18_3 1_555 1_555
C19_3 C8_3 1_555 1_555
Ag2_4 C20_3 1_555 1_555
Fe7_2 N4_3 1_555 1_555
N8_2 Fe7_2 1_555 1_555
C20_3 N8_2 1_555 1_555
Ag6_6 C27_3 1_555 1_555
N15_2 Fe7_2 1_555 1_555
C27_3 N15_2 1_555 1_555
C8_3 C9_3 1_555 1_555
C18_3 C19_3 1_555 1_555

#END
