
###############################################################################
#
# This file contains modified crystal structure data generated from the
# MOF subset of the Cambridge Structural Database (CSD) v543 
# hosted by the Cambridge Crystallographic Data Centre (CCDC).
#
# This work is licensed under the Creative Commons
# Attribution-NonCommercial-ShareAlike 4.0 International License.
# To view a copy of this license, visit
# http://creativecommons.org/licenses/by-nc-sa/4.0/
# or send a letter to
# Creative Commons, PO Box 1866, Mountain View, CA 94042, USA.
#
# CIF created using the CSD Python API on 29 September 2022
# The structure has been converted into the P1 space group
# The structure has a 3D framework
# The original CSD entry YOYWEQ is in the rhombohedral crystal system
# The framework has been calculated to contain at least 10.0% void space
# The void calculation uses a probe of radius 1.32A, grid spacing 0.4
#
###############################################################################

data_YOYWEQ
_chemical_formula_moiety         '(C141 H72 Au17 Fe15 N72)n'
_symmetry_cell_setting           triclinic
_symmetry_space_group_name_H-M   'P 1'
_symmetry_Int_Tables_number      1
_space_group_name_Hall           'P 1'
loop_
_symmetry_equiv_pos_site_id
_symmetry_equiv_pos_as_xyz
1 x,y,z
_cell_length_a                   26.852(2)
_cell_length_b                   26.852(2)
_cell_length_c                   9.6735(13)
_cell_angle_alpha                90
_cell_angle_beta                 90
_cell_angle_gamma                120
_cell_volume                     6040.43
loop_
_atom_site_label
_atom_site_type_symbol
_atom_site_fract_x
_atom_site_fract_y
_atom_site_fract_z
Au1 Au 0.6667 0.03975(5) 0.3333
Fe1 Fe 0.5000 0.0000 0.0000
C5 C 0.5970(8) 0.0104(9) 0.220(2)
N11 N 0.7756(7) 0.1083(11) 0.5153(17)
C23 C 0.7363(8) 0.0801(12) 0.447(2)
C45 C 0.4134(12) 0.0104(9) 0.220(2)
Au9 Au 0.37305(5) 0.03975(5) 0.3333
Fe7 Fe 0.8333 0.1667 0.6667
N25 N 0.5473(10) 0.0945(9) 0.004(2)
Fe1_2 Fe 0.5000 1.0000 0.0000
N2 N 0.5577(7) 0.9993(8) 0.1514(17)
C3 C 0.3921(7) 0.7842(15) 0.005(5)
C8 C 0.2158(15) 0.6079(17) 0.005(5)
C12 C 0.3921(17) 0.6079(7) 0.005(5)
Fe2 Fe 0.0000 0.5000 0.0000
N8 N 0.0007(8) 0.5584(11) 0.1514(17)
Au3 Au 0.37305(5) 0.3333 0.3333
Fe3 Fe 0.5000 0.5000 0.0000
N9 N 0.4416(11) 0.4423(7) 0.1514(17)
C21 C 0.4134(12) 0.4030(8) 0.220(2)
N21 N 0.4416(11) 0.9993(8) 0.1514(17)
N23 N 0.0007(8) 0.4423(7) 0.1514(17)
N26 N 0.5472(4) 0.4527(10) 0.004(2)
N28 N 0.5577(7) 0.5584(11) 0.1514(17)
C50 C 0.3437(9) 0.2637(8) 0.447(2)
Au2 Au 0.96025(5) 0.62695(5) 0.3333
Fe2_2 Fe 1.0000 0.5000 0.0000
C20 C 0.9896(9) 0.5866(12) 0.220(2)
N13 N 0.9055(9) 0.4528(4) 0.004(2)
N15 N 0.6973(5) 0.3946(7) 0.003(2)
C25 C 0.8763(8) 0.3948(11) 0.006(2)
H13 H 0.8965 0.3750 0.0100
C26 C 0.8178(7) 0.3646(12) 0.001(2)
H14 H 0.7991 0.3246 0.0013
C28 C 0.7235(11) 0.3618(6) 0.004(4)
N17 N 0.6054(7) 0.3027(5) 0.003(2)
C30 C 0.6052(11) 0.4815(8) 0.006(2)
H15 H 0.6250 0.5215 0.0100
C31 C 0.6354(12) 0.4532(10) 0.001(2)
H16 H 0.6754 0.4745 0.0013
C33 C 0.6382(6) 0.3617(13) 0.004(4)
N19 N 0.6973(5) 0.3027(5) 0.003(2)
C34 C 0.5185(8) 0.1237(8) 0.006(2)
H17 H 0.4785 0.1035 0.0100
C35 C 0.5468(10) 0.1822(7) 0.001(2)
H18 H 0.5255 0.2009 0.0013
C37 C 0.6383(13) 0.2765(11) 0.004(4)
C38 C 0.8763(8) 0.4815(8) 0.006(2)
H19 H 0.8965 0.5215 0.0100
C39 C 0.8178(7) 0.4532(10) 0.001(2)
H20 H 0.7991 0.4745 0.0013
C40 C 0.6052(11) 0.1237(8) 0.006(2)
H21 H 0.6250 0.1035 0.0100
C41 C 0.6354(12) 0.1822(7) 0.001(2)
H22 H 0.6754 0.2009 0.0013
C42 C 0.5185(8) 0.3948(11) 0.006(2)
H23 H 0.4785 0.3750 0.0100
C43 C 0.5468(10) 0.3646(12) 0.001(2)
H24 H 0.5255 0.3246 0.0013
N22 N 0.8917(11) 0.6674(8) 0.5153(17)
C46 C 0.9199(12) 0.6563(9) 0.447(2)
C47 C 0.9896(9) 0.4030(8) 0.220(2)
Au10 Au 0.96025(5) 0.3333 0.3333
Fe6 Fe 0.8333 0.6667 0.6667
N22_2 N 0.3326(8) 0.2244(14) 0.5153(17)
C47_2 C 0.5970(8) 0.5866(12) 0.220(2)
Au10_2 Au 0.6667 0.62695(5) 0.3333
Fe6_2 Fe 0.3333 0.1667 0.6667
C51 C 0.7363(15) 0.6563(9) 0.447(2)
C52 C 0.3437(14) 0.0801(12) 0.447(2)
C51_2 C 0.9199(12) 0.2637(15) 0.447(2)
Au4 Au 0.29362(5) 0.29358(5) 1.0000
Au5 Au -0.0000 0.29358(5) 1.0000
Au8 Au 0.29362(5) 0.0000 1.0000
C49 C 0.3229(9) 0.2533(12) 0.887(2)
Au8_2 Au 0.29362(5) 1.0000 1.0000
Au5_2 Au 1.0000 0.29358(5) 1.0000
Au7 Au 0.70642(5) 0.0000 1.0000
C52_2 C 0.9303(8) 0.2533(12) 0.887(2)
Au6 Au 0.70642(5) 0.70638(5) 1.0000
Au7_2 Au 0.70642(5) 1.0000 1.0000
C51_3 C 0.7467(12) 0.6771(9) 0.887(2)
C51_4 C 0.3229(9) 0.0697(15) 0.887(2)
Au7_3 Au -0.0000 0.70638(5) 1.0000
C49_2 C 0.7467(12) 0.0697(15) 0.887(2)
Au7_4 Au 1.0000 0.70638(5) 1.0000
C49_3 C 0.9303(15) 0.6771(9) 0.887(2)
N11_2 N 0.3340(13) 0.2251(11) 0.8181(17)
N22_3 N 0.8910(14) 0.6660(8) 0.8181(17)
N22_4 N 0.7749(11) 0.1090(14) 0.8181(17)
N1 N 0.7861(4) 0.5722(9) 0.663(2)
N3 N 0.6360(5) 0.3640(5) 0.664(2)
C1 C 0.8148(8) 0.5430(8) 0.661(2)
H1 H 0.8548 0.5632 0.6567
C2 C 0.7865(10) 0.4845(7) 0.666(2)
H2 H 0.8078 0.4658 0.6654
C3_2 C 0.7254(7) 0.4509(15) 0.672(5)
C4 C 0.6951(6) 0.3902(11) 0.663(4)
N4 N 0.4278(9) 0.2140(10) 0.663(2)
N5 N 0.6360(5) 0.2721(7) 0.664(2)
C6 C 0.4570(8) 0.2719(11) 0.661(2)
H3 H 0.4368 0.2917 0.6567
C7 C 0.5155(7) 0.3021(12) 0.666(2)
H4 H 0.5342 0.3421 0.6654
C8_2 C 0.5491(15) 0.2746(17) 0.672(5)
C9 C 0.6098(11) 0.3050(13) 0.663(4)
N6 N 0.7860(10) 0.2139(4) 0.663(2)
N7 N 0.7279(7) 0.3640(5) 0.664(2)
C10 C 0.7281(11) 0.1852(8) 0.661(2)
H5 H 0.7083 0.1452 0.6567
C11 C 0.6979(12) 0.2135(10) 0.666(2)
H6 H 0.6579 0.1922 0.6654
C12_2 C 0.7254(17) 0.2746(7) 0.672(5)
C13 C 0.6950(13) 0.3049(6) 0.663(4)
C14 C 0.7281(11) 0.5430(8) 0.661(2)
H7 H 0.7083 0.5632 0.6567
C15 C 0.6979(12) 0.4845(7) 0.666(2)
H8 H 0.6579 0.4658 0.6654
C16 C 0.8148(8) 0.2719(11) 0.661(2)
H9 H 0.8548 0.2917 0.6567
C17 C 0.7865(10) 0.3021(12) 0.666(2)
H10 H 0.8078 0.3421 0.6654
C18 C 0.4570(8) 0.1852(8) 0.661(2)
H11 H 0.4368 0.1452 0.6567
C19 C 0.5155(7) 0.2135(10) 0.666(2)
H12 H 0.5342 0.1922 0.6654
N12 N 0.7756(7) 0.6674(8) 0.5153(17)
N13_2 N 0.2388(9) 0.1195(4) 0.671(2)
N14 N 0.3326(8) 0.1083(11) 0.5153(17)
N15_2 N 0.0306(5) 0.0613(7) 0.670(2)
C25_2 C 0.2096(8) 0.0615(11) 0.673(2)
H13_2 H 0.2298 0.0417 0.6767
C26_2 C 0.1511(7) 0.0313(12) 0.668(2)
C27 C 0.1175(15) 0.0588(7) 0.662(5)
C28_2 C 0.0568(11) 0.0285(6) 0.671(4)
H16_2 H 0.0087 0.1412 0.6680
C38_2 C 0.2096(8) 0.1482(8) 0.673(2)
H19_2 H 0.2298 0.1882 0.6767
C39_2 C 0.1511(7) 0.1199(10) 0.668(2)
H20_2 H 0.1324 0.1412 0.6680
N20 N 0.8917(11) 0.2244(7) 0.5153(17)
N21_2 N 0.7749(11) 0.6660(8) 0.8181(17)
N23_2 N 0.3340(8) 0.1090(7) 0.8181(17)
N25_2 N 0.8806(10) 0.7612(9) 0.671(2)
N26_2 N 0.8805(4) 0.1194(10) 0.671(2)
N28_2 N 0.8910(7) 0.2251(11) 0.8181(17)
H14_2 H 0.1324 0.9913 0.6680
N19_2 N 0.0306(5) 0.9694(5) 0.670(2)
H22_2 H 0.0087 0.8676 0.6680
C30_2 C 0.9385(11) 0.1482(8) 0.673(2)
H15_2 H 0.9583 0.1882 0.6767
C31_2 C 0.9687(12) 0.1199(10) 0.668(2)
C32 C 0.9412(7) 0.0588(17) 0.662(5)
C33_2 C 0.9715(6) 0.0284(13) 0.671(4)
C42_2 C 0.8518(8) 0.0615(11) 0.673(2)
H23_2 H 0.8118 0.0417 0.6767
C43_2 C 0.8801(10) 0.0313(12) 0.668(2)
N17_2 N 0.9387(7) 0.9694(5) 0.670(2)
C34_2 C 0.8518(8) 0.7904(8) 0.673(2)
H17_2 H 0.8118 0.7702 0.6767
C35_2 C 0.8801(10) 0.8489(7) 0.668(2)
H18_2 H 0.8588 0.8676 0.6680
C36 C 0.9412(17) 0.8825(15) 0.662(5)
C37_2 C 0.9716(13) 0.9432(11) 0.671(4)
C40_2 C 0.9385(11) 0.7904(8) 0.673(2)
H21_2 H 0.9583 0.7702 0.6767
C41_2 C 0.9687(12) 0.8489(7) 0.668(2)
H24_2 H 0.8588 0.9913 0.6680
Fe1_3 Fe 0.5000 0.0000 1.0000
N10 N 0.5584(11) 0.0007(8) 0.8486(17)
N12_2 N 0.4423(7) 0.0007(8) 0.8486(17)
Fe1_4 Fe 0.5000 1.0000 1.0000
N1_2 N 0.4528(4) 0.9055(9) 0.996(2)
N3_2 N 0.3027(5) 0.6973(5) 0.997(2)
C1_2 C 0.4815(8) 0.8763(8) 0.994(2)
H1_2 H 0.5215 0.8965 0.9900
C2_2 C 0.4532(10) 0.8178(7) 0.999(2)
H2_2 H 0.4745 0.7991 0.9987
C4_2 C 0.3618(6) 0.7235(11) 0.996(4)
N4_2 N 0.0945(9) 0.5473(10) 0.996(2)
N5_2 N 0.3027(5) 0.6054(7) 0.997(2)
C6_2 C 0.1237(8) 0.6052(11) 0.994(2)
H3_2 H 0.1035 0.6250 0.9900
C7_2 C 0.1822(7) 0.6354(12) 0.999(2)
H4_2 H 0.2009 0.6754 0.9987
C9_2 C 0.2765(11) 0.6383(13) 0.996(4)
N6_2 N 0.4527(10) 0.5472(4) 0.996(2)
N7_2 N 0.3946(7) 0.6973(5) 0.997(2)
C10_2 C 0.3948(11) 0.5185(8) 0.994(2)
H5_2 H 0.3750 0.4785 0.9900
C11_2 C 0.3646(12) 0.5468(10) 0.999(2)
H6_2 H 0.3246 0.5255 0.9987
C13_2 C 0.3617(13) 0.6382(6) 0.996(4)
C14_2 C 0.3948(11) 0.8763(8) 0.994(2)
H7_2 H 0.3750 0.8965 0.9900
C15_2 C 0.3646(12) 0.8178(7) 0.999(2)
H8_2 H 0.3246 0.7991 0.9987
C16_2 C 0.4815(8) 0.6052(11) 0.994(2)
H9_2 H 0.5215 0.6250 0.9900
C17_2 C 0.4532(10) 0.6354(12) 0.999(2)
H10_2 H 0.4745 0.6754 0.9987
C18_2 C 0.1237(8) 0.5185(8) 0.994(2)
H11_2 H 0.1035 0.4785 0.9900
C19_2 C 0.1822(7) 0.5468(10) 0.999(2)
H12_2 H 0.2009 0.5255 0.9987
Fe2_3 Fe 0.0000 0.5000 1.0000
Fe3_2 Fe 0.5000 0.5000 1.0000
C22 C 0.5866(12) 0.9896(9) 0.780(2)
C24 C 0.4030(8) 0.9896(9) 0.780(2)
C29 C 0.0104(9) 0.4134(12) 0.780(2)
N20_2 N 0.5584(11) 0.5577(7) 0.8486(17)
C44 C 0.5866(12) 0.5970(8) 0.780(2)
C48 C 0.0104(9) 0.5970(8) 0.780(2)
Au4_2 Au 0.62695(5) 0.96025(5) 0.6667
Au5_3 Au 0.3333 0.96025(5) 0.6667
Au6_2 Au 0.03975(5) 0.37305(5) 0.6667
Au7_5 Au 0.03975(5) 0.6667 0.6667
Au8_3 Au 0.62695(5) 0.6667 0.6667
N27 N 0.4423(7) 0.4416(11) 0.8486(17)
C49_4 C 0.6563(9) 0.9199(12) 0.553(2)
C51_5 C 0.0801(12) 0.3437(9) 0.553(2)
C52_3 C 0.2637(8) 0.9199(12) 0.553(2)
Fe2_4 Fe 1.0000 0.5000 1.0000
N14_2 N 0.9993(8) 0.4416(11) 0.8486(17)
C27_2 C 0.7842(15) 0.3921(7) 0.995(5)
C32_2 C 0.6079(7) 0.3921(17) 0.995(5)
C36_2 C 0.6079(17) 0.2158(15) 0.995(5)
N24 N 0.9993(8) 0.5577(7) 0.8486(17)
C48_2 C 0.4030(8) 0.4134(12) 0.780(2)
Au7_6 Au 0.3333 0.37305(5) 0.6667
C49_5 C 0.0801(12) 0.7363(15) 0.553(2)
C51_6 C 0.6563(9) 0.7363(15) 0.553(2)
C49_6 C 0.2637(15) 0.3437(9) 0.553(2)
N22_5 N 0.2244(14) 0.3326(8) 0.4847(17)
Fe6_3 Fe 0.1667 0.3333 0.3333
N11_3 N 0.6674(13) 0.8917(11) 0.4847(17)
Fe7_2 Fe 0.6667 0.8333 0.3333
N22_6 N 0.1083(11) 0.7756(14) 0.4847(17)
Fe6_4 Fe 0.1667 0.8333 0.3333
N1_3 N 0.1195(4) 0.2388(9) 0.329(2)
C1_3 C 0.1482(8) 0.2096(8) 0.327(2)
H1_3 H 0.1882 0.2298 0.3233
C2_3 C 0.1199(10) 0.1511(7) 0.332(2)
H2_3 H 0.1412 0.1324 0.3320
C3_3 C 0.0588(7) 0.1175(15) 0.338(5)
C4_3 C 0.0285(6) 0.0568(11) 0.329(4)
N7_3 N 0.0613(7) 0.0306(5) 0.330(2)
C14_3 C 0.0615(11) 0.2096(8) 0.327(2)
H7_3 H 0.0417 0.2298 0.3233
C15_3 C 0.0313(12) 0.1511(7) 0.332(2)
H10_3 H 0.1412 0.0087 0.3320
N10_2 N 0.2251(11) 0.3340(8) 0.1819(17)
C22_2 C 0.2533(12) 0.3229(9) 0.113(2)
N12_3 N 0.1090(7) 0.3340(8) 0.1819(17)
C24_2 C 0.0697(8) 0.3229(9) 0.113(2)
N21_3 N 0.1083(11) 0.3326(8) 0.4847(17)
Au4_3 Au 0.29362(5) 0.29358(5) 0.0000
Au5_4 Au -0.0000 0.29358(5) 0.0000
Au8_4 Au 0.29362(5) 0.0000 0.0000
N25_3 N 0.2140(10) 0.4278(9) 0.337(2)
N6_3 N 0.1194(10) 0.8805(4) 0.329(2)
C10_3 C 0.0615(11) 0.8518(8) 0.327(2)
H5_3 H 0.0417 0.8118 0.3233
C11_3 C 0.0313(12) 0.8801(10) 0.332(2)
C12_3 C 0.0588(17) 0.9412(7) 0.338(5)
C13_3 C 0.0284(13) 0.9715(6) 0.329(4)
C16_3 C 0.1482(8) 0.9385(11) 0.327(2)
H9_3 H 0.1882 0.9583 0.3233
C17_3 C 0.1199(10) 0.9687(12) 0.332(2)
N20_3 N 0.2251(11) 0.8910(7) 0.1819(17)
C44_2 C 0.2533(12) 0.9303(8) 0.113(2)
Au8_5 Au 0.29362(5) 1.0000 0.0000
N26_3 N 0.2139(4) 0.7860(10) 0.337(2)
N27_2 N 0.1090(7) 0.7749(11) 0.1819(17)
N28_3 N 0.2244(7) 0.8917(11) 0.4847(17)
N3_3 N 0.9694(5) 0.0306(5) 0.330(2)
H4_3 H 0.8676 0.0087 0.3320
H8_3 H 0.9913 0.1324 0.3320
Au5_5 Au 1.0000 0.29358(5) 0.0000
Au7_7 Au 0.70642(5) 0.0000 0.0000
N4_3 N 0.7612(9) 0.8806(10) 0.329(2)
N5_3 N 0.9694(5) 0.9387(7) 0.330(2)
C6_3 C 0.7904(8) 0.9385(11) 0.327(2)
H3_3 H 0.7702 0.9583 0.3233
C7_3 C 0.8489(7) 0.9687(12) 0.332(2)
C8_3 C 0.8825(15) 0.9412(17) 0.338(5)
C9_3 C 0.9432(11) 0.9716(13) 0.329(4)
H6_3 H 0.9913 0.8588 0.3320
C18_3 C 0.7904(8) 0.8518(8) 0.327(2)
H11_3 H 0.7702 0.8118 0.3233
C19_3 C 0.8489(7) 0.8801(10) 0.332(2)
H12_3 H 0.8676 0.8588 0.3320
N13_3 N 0.5722(9) 0.7861(4) 0.337(2)
N14_3 N 0.6660(8) 0.7749(11) 0.1819(17)
N15_3 N 0.3640(5) 0.7279(7) 0.336(2)
C25_3 C 0.5430(8) 0.7281(11) 0.339(2)
H13_3 H 0.5632 0.7083 0.3433
C26_3 C 0.4845(7) 0.6979(12) 0.334(2)
H14_3 H 0.4658 0.6579 0.3346
C27_3 C 0.4509(15) 0.7254(7) 0.328(5)
C28_3 C 0.3902(11) 0.6951(6) 0.337(4)
C29_2 C 0.6771(9) 0.7467(12) 0.113(2)
N17_3 N 0.2721(7) 0.6360(5) 0.336(2)
C30_3 C 0.2719(11) 0.8148(8) 0.339(2)
H15_3 H 0.2917 0.8548 0.3433
C31_3 C 0.3021(12) 0.7865(10) 0.334(2)
H16_3 H 0.3421 0.8078 0.3346
C32_3 C 0.2746(7) 0.7254(17) 0.328(5)
C33_3 C 0.3049(6) 0.6950(13) 0.337(4)
N19_3 N 0.3640(5) 0.6360(5) 0.336(2)
C34_3 C 0.1852(8) 0.4570(8) 0.339(2)
H17_3 H 0.1452 0.4368 0.3433
C35_3 C 0.2135(10) 0.5155(7) 0.334(2)
H18_3 H 0.1922 0.5342 0.3346
C36_3 C 0.2746(17) 0.5491(15) 0.328(5)
C37_3 C 0.3050(13) 0.6098(11) 0.337(4)
C38_3 C 0.5430(8) 0.8148(8) 0.339(2)
H19_3 H 0.5632 0.8548 0.3433
C39_3 C 0.4845(7) 0.7865(10) 0.334(2)
H20_3 H 0.4658 0.8078 0.3346
C40_3 C 0.2719(11) 0.4570(8) 0.339(2)
H21_3 H 0.2917 0.4368 0.3433
C41_3 C 0.3021(12) 0.5155(7) 0.334(2)
H22_3 H 0.3421 0.5342 0.3346
C42_3 C 0.1852(8) 0.7281(11) 0.339(2)
H23_3 H 0.1452 0.7083 0.3433
C43_3 C 0.2135(10) 0.6979(12) 0.334(2)
H24_3 H 0.1922 0.6579 0.3346
N23_3 N 0.6674(8) 0.7756(7) 0.4847(17)
N24_2 N 0.6660(8) 0.8910(7) 0.1819(17)
C48_3 C 0.6771(9) 0.9303(8) 0.113(2)
Au6_3 Au 0.70642(5) 0.70638(5) 0.0000
Au7_8 Au 0.70642(5) 1.0000 0.0000
C48_4 C 0.0697(8) 0.7467(12) 0.113(2)
Au7_9 Au -0.0000 0.70638(5) 0.0000
Au7_10 Au 1.0000 0.70638(5) 0.0000
loop_
_geom_bond_atom_site_label_1
_geom_bond_atom_site_label_2
_geom_bond_site_symmetry_1
_geom_bond_site_symmetry_2
Au1 C5 1_555 1_555
N11 C23 1_555 1_555
C23 Au1 1_555 1_555
Au9 C45 1_555 1_555
Fe7 N11 1_555 1_555
N25 Fe1 1_555 1_555
N2 Fe1_2 1_555 1_555
N8 Fe2 1_555 1_555
Au3 C21 1_555 1_555
N9 Fe3 1_555 1_555
C21 N9 1_555 1_555
N21 Fe1_2 1_555 1_555
N23 Fe2 1_555 1_555
N26 Fe3 1_555 1_555
N28 Fe3 1_555 1_555
C50 Au3 1_555 1_555
Au2 C20 1_555 1_555
N13 Fe2_2 1_555 1_555
N15 C28 1_555 1_555
C25 N13 1_555 1_555
H13 C25 1_555 1_555
C26 C25 1_555 1_555
H14 C26 1_555 1_555
N26 C30 1_555 1_555
N17 C33 1_555 1_555
C30 H15 1_555 1_555
C31 C30 1_555 1_555
H16 C31 1_555 1_555
C33 N15 1_555 1_555
N25 C34 1_555 1_555
N19 C28 1_555 1_555
C34 H17 1_555 1_555
C35 C34 1_555 1_555
H18 C35 1_555 1_555
C37 N17 1_555 1_555
C38 N13 1_555 1_555
H19 C38 1_555 1_555
H20 C39 1_555 1_555
C40 N25 1_555 1_555
H21 C40 1_555 1_555
H22 C41 1_555 1_555
C42 N26 1_555 1_555
H23 C42 1_555 1_555
H24 C43 1_555 1_555
N22 C46 1_555 1_555
C46 Au2 1_555 1_555
Au10 C47 1_555 1_555
Fe6 N22 1_555 1_555
N19 C37 1_555 1_555
C38 C39 1_555 1_555
C40 C41 1_555 1_555
C42 C43 1_555 1_555
N22_2 C50 1_555 1_555
C47_2 N28 1_555 1_555
Au10_2 C47_2 1_555 1_555
Fe6_2 N22_2 1_555 1_555
C51 Au10_2 1_555 1_555
C52 Au9 1_555 1_555
C51_2 Au10 1_555 1_555
C49 Au4 1_555 1_555
C52_2 Au5_2 1_555 1_555
C51_3 Au6 1_555 1_555
C51_4 Au8 1_555 1_555
C49_2 Au7 1_555 1_555
C49_3 Au7_4 1_555 1_555
N11_2 C49 1_555 1_555
Fe6_2 N11_2 1_555 1_555
N22_3 C49_3 1_555 1_555
Fe6 N22_3 1_555 1_555
N22_4 C49_2 1_555 1_555
Fe7 N22_4 1_555 1_555
Fe6 N1 1_555 1_555
N1 C1 1_555 1_555
N3 C4 1_555 1_555
C1 H1 1_555 1_555
C2 C1 1_555 1_555
H2 C2 1_555 1_555
C3_2 C2 1_555 1_555
C4 C3_2 1_555 1_555
N4 C6 1_555 1_555
N5 C9 1_555 1_555
C6 H3 1_555 1_555
C7 C6 1_555 1_555
H4 C7 1_555 1_555
C8_2 C7 1_555 1_555
C9 N3 1_555 1_555
N6 C10 1_555 1_555
N7 C4 1_555 1_555
C10 H5 1_555 1_555
C11 C10 1_555 1_555
H6 C11 1_555 1_555
C12_2 C11 1_555 1_555
C13 N5 1_555 1_555
C14 N1 1_555 1_555
H7 C14 1_555 1_555
C15 C3_2 1_555 1_555
H8 C15 1_555 1_555
C16 N6 1_555 1_555
H9 C16 1_555 1_555
C17 C12_2 1_555 1_555
H10 C17 1_555 1_555
C18 N4 1_555 1_555
H11 C18 1_555 1_555
C19 C8_2 1_555 1_555
H12 C19 1_555 1_555
Fe6_2 N4 1_555 1_555
Fe7 N6 1_555 1_555
N12 Fe6 1_555 1_555
C51 N12 1_555 1_555
N13_2 Fe6_2 1_555 1_555
N14 Fe6_2 1_555 1_555
N15_2 C28_2 1_555 1_555
C25_2 N13_2 1_555 1_555
H13_2 C25_2 1_555 1_555
C26_2 C25_2 1_555 1_555
C27 C26_2 1_555 1_555
C28_2 C27 1_555 1_555
C52 N14 1_555 1_555
C38_2 N13_2 1_555 1_555
H19_2 C38_2 1_555 1_555
C39_2 C27 1_555 1_555
H20_2 C39_2 1_555 1_555
N20 Fe7 1_555 1_555
C51_2 N20 1_555 1_555
N21_2 Fe6 1_555 1_555
C51_3 N21_2 1_555 1_555
N23_2 Fe6_2 1_555 1_555
C51_4 N23_2 1_555 1_555
N25_2 Fe6 1_555 1_555
N26_2 Fe7 1_555 1_555
N28_2 Fe7 1_555 1_555
C8_2 C9 1_555 1_555
N7 C13 1_555 1_555
C12_2 C13 1_555 1_555
C14 C15 1_555 1_555
C16 C17 1_555 1_555
C18 C19 1_555 1_555
C38_2 C39_2 1_555 1_555
N26_2 C30_2 1_555 1_555
C30_2 H15_2 1_555 1_555
C31_2 C30_2 1_555 1_555
C32 C31_2 1_555 1_555
C42_2 N26_2 1_555 1_555
H23_2 C42_2 1_555 1_555
C43_2 C32 1_555 1_555
C32 C33_2 1_555 1_555
C42_2 C43_2 1_555 1_555
N25_2 C34_2 1_555 1_555
C34_2 H17_2 1_555 1_555
C35_2 C34_2 1_555 1_555
H18_2 C35_2 1_555 1_555
C36 C35_2 1_555 1_555
C37_2 N17_2 1_555 1_555
C40_2 N25_2 1_555 1_555
H21_2 C40_2 1_555 1_555
C41_2 C36 1_555 1_555
C36 C37_2 1_555 1_555
C40_2 C41_2 1_555 1_555
C52_2 N28_2 1_555 1_555
N10 Fe1_3 1_555 1_555
N12_2 Fe1_3 1_555 1_555
Fe1_4 N1_2 1_555 1_555
N1_2 C1_2 1_555 1_555
N3_2 C4_2 1_555 1_555
C1_2 H1_2 1_555 1_555
C2_2 C1_2 1_555 1_555
H2_2 C2_2 1_555 1_555
N4_2 C6_2 1_555 1_555
N5_2 C9_2 1_555 1_555
C6_2 H3_2 1_555 1_555
C7_2 C6_2 1_555 1_555
H4_2 C7_2 1_555 1_555
C9_2 N3_2 1_555 1_555
N6_2 C10_2 1_555 1_555
N7_2 C4_2 1_555 1_555
C10_2 H5_2 1_555 1_555
C11_2 C10_2 1_555 1_555
H6_2 C11_2 1_555 1_555
C13_2 N5_2 1_555 1_555
C14_2 N1_2 1_555 1_555
H7_2 C14_2 1_555 1_555
H8_2 C15_2 1_555 1_555
C16_2 N6_2 1_555 1_555
H9_2 C16_2 1_555 1_555
H10_2 C17_2 1_555 1_555
C18_2 N4_2 1_555 1_555
H11_2 C18_2 1_555 1_555
H12_2 C19_2 1_555 1_555
Fe2_3 N4_2 1_555 1_555
Fe3_2 N6_2 1_555 1_555
N20_2 Fe3_2 1_555 1_555
C44 N20_2 1_555 1_555
Au4_2 C22 1_555 1_555
Au5_3 C24 1_555 1_555
Au6_2 C29 1_555 1_555
Au7_5 C48 1_555 1_555
Au8_3 C44 1_555 1_555
N27 Fe3_2 1_555 1_555
C49_4 Au4_2 1_555 1_555
C51_5 Au6_2 1_555 1_555
C52_3 Au5_3 1_555 1_555
N7_2 C13_2 1_555 1_555
C14_2 C15_2 1_555 1_555
C16_2 C17_2 1_555 1_555
C18_2 C19_2 1_555 1_555
N14_2 Fe2_4 1_555 1_555
N24 Fe2_4 1_555 1_555
C48_2 N27 1_555 1_555
Au7_6 C48_2 1_555 1_555
C49_5 Au7_5 1_555 1_555
C51_6 Au8_3 1_555 1_555
C49_6 Au7_6 1_555 1_555
N22_5 C49_6 1_555 1_555
Fe6_3 N22_5 1_555 1_555
N11_3 C49_4 1_555 1_555
Fe7_2 N11_3 1_555 1_555
N22_6 C49_5 1_555 1_555
Fe6_4 N22_6 1_555 1_555
Fe6_3 N1_3 1_555 1_555
N1_3 C1_3 1_555 1_555
C1_3 H1_3 1_555 1_555
C2_3 C1_3 1_555 1_555
H2_3 C2_3 1_555 1_555
C3_3 C2_3 1_555 1_555
C4_3 C3_3 1_555 1_555
N7_3 C4_3 1_555 1_555
C14_3 N1_3 1_555 1_555
H7_3 C14_3 1_555 1_555
C15_3 C3_3 1_555 1_555
N10_2 Fe6_3 1_555 1_555
C22_2 N10_2 1_555 1_555
N12_3 Fe6_3 1_555 1_555
C24_2 N12_3 1_555 1_555
N21_3 Fe6_3 1_555 1_555
C51_5 N21_3 1_555 1_555
Au4_3 C22_2 1_555 1_555
Au5_4 C24_2 1_555 1_555
N25_3 Fe6_3 1_555 1_555
C14_3 C15_3 1_555 1_555
N6_3 C10_3 1_555 1_555
C10_3 H5_3 1_555 1_555
C11_3 C10_3 1_555 1_555
C12_3 C11_3 1_555 1_555
C16_3 N6_3 1_555 1_555
H9_3 C16_3 1_555 1_555
C17_3 C12_3 1_555 1_555
Fe6_4 N6_3 1_555 1_555
N20_3 Fe6_4 1_555 1_555
C44_2 N20_3 1_555 1_555
Au8_5 C44_2 1_555 1_555
N26_3 Fe6_4 1_555 1_555
N27_2 Fe6_4 1_555 1_555
N28_3 Fe6_4 1_555 1_555
C12_3 C13_3 1_555 1_555
C16_3 C17_3 1_555 1_555
N4_3 C6_3 1_555 1_555
N5_3 C9_3 1_555 1_555
C6_3 H3_3 1_555 1_555
C7_3 C6_3 1_555 1_555
C8_3 C7_3 1_555 1_555
C18_3 N4_3 1_555 1_555
H11_3 C18_3 1_555 1_555
C19_3 C8_3 1_555 1_555
H12_3 C19_3 1_555 1_555
Fe7_2 N4_3 1_555 1_555
N13_3 Fe7_2 1_555 1_555
N14_3 Fe7_2 1_555 1_555
N15_3 C28_3 1_555 1_555
C25_3 N13_3 1_555 1_555
H13_3 C25_3 1_555 1_555
C26_3 C25_3 1_555 1_555
H14_3 C26_3 1_555 1_555
C27_3 C26_3 1_555 1_555
C28_3 C27_3 1_555 1_555
C29_2 N14_3 1_555 1_555
N26_3 C30_3 1_555 1_555
N17_3 C33_3 1_555 1_555
C30_3 H15_3 1_555 1_555
C31_3 C30_3 1_555 1_555
H16_3 C31_3 1_555 1_555
C32_3 C31_3 1_555 1_555
C33_3 N15_3 1_555 1_555
N25_3 C34_3 1_555 1_555
N19_3 C28_3 1_555 1_555
C34_3 H17_3 1_555 1_555
C35_3 C34_3 1_555 1_555
H18_3 C35_3 1_555 1_555
C36_3 C35_3 1_555 1_555
C37_3 N17_3 1_555 1_555
C38_3 N13_3 1_555 1_555
H19_3 C38_3 1_555 1_555
C39_3 C27_3 1_555 1_555
H20_3 C39_3 1_555 1_555
C40_3 N25_3 1_555 1_555
H21_3 C40_3 1_555 1_555
C41_3 C36_3 1_555 1_555
H22_3 C41_3 1_555 1_555
C42_3 N26_3 1_555 1_555
H23_3 C42_3 1_555 1_555
C43_3 C32_3 1_555 1_555
H24_3 C43_3 1_555 1_555
N23_3 Fe7_2 1_555 1_555
C51_6 N23_3 1_555 1_555
N24_2 Fe7_2 1_555 1_555
C48_3 N24_2 1_555 1_555
Au6_3 C29_2 1_555 1_555
Au7_8 C48_3 1_555 1_555
C8_3 C9_3 1_555 1_555
C18_3 C19_3 1_555 1_555
C32_3 C33_3 1_555 1_555
N19_3 C37_3 1_555 1_555
C36_3 C37_3 1_555 1_555
C38_3 C39_3 1_555 1_555
C40_3 C41_3 1_555 1_555
C42_3 C43_3 1_555 1_555
C52_3 N28_3 1_555 1_555
C48_4 N27_2 1_555 1_555
Au7_9 C48_4 1_555 1_555

#END
