
###############################################################################
#
# This file contains modified crystal structure data generated from the
# MOF subset of the Cambridge Structural Database (CSD) v543 
# hosted by the Cambridge Crystallographic Data Centre (CCDC).
#
# This work is licensed under the Creative Commons
# Attribution-NonCommercial-ShareAlike 4.0 International License.
# To view a copy of this license, visit
# http://creativecommons.org/licenses/by-nc-sa/4.0/
# or send a letter to
# Creative Commons, PO Box 1866, Mountain View, CA 94042, USA.
#
# CIF created using the CSD Python API on 29 September 2022
# The structure has been converted into the P1 space group
# The structure has a 3D framework
# The original CSD entry YOYWEQ01 is in the rhombohedral crystal system
# The framework has been calculated to contain at least 10.0% void space
# The void calculation uses a probe of radius 1.32A, grid spacing 0.4
#
###############################################################################

data_YOYWEQ01
_chemical_formula_moiety         '(C144 H72 Au20 Fe15 N72)n'
_symmetry_cell_setting           triclinic
_symmetry_space_group_name_H-M   'P 1'
_symmetry_Int_Tables_number      1
_space_group_name_Hall           'P 1'
loop_
_symmetry_equiv_pos_site_id
_symmetry_equiv_pos_as_xyz
1 x,y,z
_cell_length_a                   26.1934(10)
_cell_length_b                   26.1934(10)
_cell_length_c                   9.3978(8)
_cell_angle_alpha                90
_cell_angle_beta                 90
_cell_angle_gamma                120
_cell_volume                     5583.94
loop_
_atom_site_label
_atom_site_type_symbol
_atom_site_fract_x
_atom_site_fract_y
_atom_site_fract_z
Fe5 Fe 0.5001 0.0000 0.0000
Au1 Au -0.0000 0.293770(16) 1.0000
Au3 Au 0.293770(16) 0.293770(16) 1.0000
C14 C 0.3235(3) 0.2505(4) 0.8839(9)
Au6 Au 0.293770(16) 0.0000 1.0000
Fe5_2 Fe 0.5001 1.0000 0.0000
Au6_2 Au 0.293770(16) 1.0000 1.0000
Au9 Au -0.0000 0.706230(16) 1.0000
Au1_2 Au 1.0000 0.293770(16) 1.0000
C6 C 0.9270(3) 0.2505(4) 0.8839(9)
N4 N 0.8880(3) 0.2191(4) 0.8107(7)
Fe2 Fe 0.8333 0.1666 0.6667
C11 C 0.7495(4) 0.0730(3) 0.8839(9)
Au5 Au 0.706230(16) 0.0000 1.0000
Au5_2 Au 0.706230(16) 1.0000 1.0000
Au9_2 Au 1.0000 0.706230(16) 1.0000
C39 C 0.9270(3) 0.6765(3) 0.8839(9)
Fe5_3 Fe -0.0000 0.5000 0.0000
Fe5_4 Fe 1.0000 0.5000 0.0000
Au1_3 Au 0.706230(16) 0.706230(16) 1.0000
C6_2 C 0.7495(4) 0.6765(5) 0.8839(9)
N4_2 N 0.7809(4) 0.6689(5) 0.8107(7)
Fe2_2 Fe 0.8334 0.6667 0.6667
C6_3 C 0.3235(5) 0.0730(3) 0.8839(9)
N4_3 N 0.3311(5) 0.1120(3) 0.8107(7)
Fe2_3 Fe 0.3333 0.1667 0.6667
Fe5_5 Fe 0.5000 0.4999 0.0000
C16 C 0.0581(7) 0.0290(4) 0.6661(15)
N16 N 0.0303(6) 0.0605(3) 0.6675(14)
C18 C 0.1219(9) 0.0609(5) 0.6647(17)
C23 C 0.1541(7) 0.1226(4) 0.6621(10)
C24 C 0.1541(7) 0.0315(6) 0.6621(10)
C28 C 0.2153(7) 0.1515(4) 0.6603(9)
H7 H 0.1347 0.1442 0.6616
C29 C 0.2153(7) 0.0638(6) 0.6603(9)
H10 H 0.0095 0.1442 0.6616
N18 N 0.24567(38) 0.12281(34) 0.6631(10)
H11 H 0.2361 0.1926 0.6571
H12 H 0.2361 0.0435 0.6571
N19 N 0.3356(5) 0.1142(4) 0.5226(7)
N20 N 0.42100(38) 0.21048(17) 0.6702(10)
N21 N 0.3311(5) 0.2191(4) 0.8107(7)
N22 N 0.3356(5) 0.2213(3) 0.5226(7)
C30 C 0.3432(5) 0.0828(4) 0.4494(9)
C31 C 0.4514(7) 0.2695(6) 0.6730(9)
C32 C 0.4514(7) 0.1818(4) 0.6730(9)
C34 C 0.3432(5) 0.2603(3) 0.4494(9)
Au8 Au 0.372897(16) 0.039563(16) 0.3333
C35 C 0.5126(7) 0.3018(6) 0.6712(10)
H13 H 0.4306 0.2898 0.6762
C36 C 0.5126(7) 0.2107(4) 0.6712(10)
H14 H 0.4306 0.1407 0.6762
Au10 Au 0.372897(16) 0.3333 0.3333
C37 C 0.4162(4) 0.0098(3) 0.2172(9)
H15 H 0.5320 0.3428 0.6717
C38 C 0.5448(9) 0.2723(7) 0.6686(17)
H16 H 0.5320 0.1891 0.6717
N23 N 0.4476(4) 0.0022(3) 0.1440(7)
C40 C 0.6086(7) 0.3042(6) 0.6672(15)
N24 N 0.6365(5) 0.2728(3) 0.6658(14)
N25 N 0.6364(6) 0.3635(5) 0.6658(14)
C41 C 0.6958(6) 0.3043(4) 0.6672(15)
C42 C 0.6957(7) 0.3914(4) 0.6672(15)
C43 C 0.7277(7) 0.2724(5) 0.6686(17)
N26 N 0.7272(6) 0.3636(4) 0.6658(14)
C44 C 0.7276(9) 0.4552(5) 0.6686(17)
C45 C 0.7893(8) 0.3018(6) 0.6712(10)
C46 C 0.6982(6) 0.2107(4) 0.6712(10)
C47 C 0.7893(8) 0.4874(5) 0.6712(10)
C48 C 0.6982(6) 0.4874(5) 0.6712(10)
C49 C 0.8182(8) 0.2695(6) 0.6730(9)
H17 H 0.8109 0.3428 0.6717
C50 C 0.7305(6) 0.1818(4) 0.6730(9)
H18 H 0.6572 0.1891 0.6717
C51 C 0.8182(8) 0.5486(5) 0.6730(9)
H19 H 0.8109 0.4680 0.6717
C52 C 0.7305(6) 0.5486(5) 0.6730(9)
H20 H 0.6572 0.4680 0.6717
N27 N 0.78952(45) 0.21052(34) 0.6702(10)
H21 H 0.8593 0.2898 0.6762
H22 H 0.7102 0.1407 0.6762
N28 N 0.78948(34) 0.5790(3) 0.6702(10)
H23 H 0.8593 0.5694 0.6762
H24 H 0.7102 0.5694 0.6762
H2 H 0.0095 0.8653 0.6616
N3 N 0.0302(5) 0.9697(4) 0.6675(14)
H8 H 0.1347 0.9905 0.6616
N9 N 0.7809(4) 0.1120(3) 0.8107(7)
C17 C 0.9710(7) 0.0291(6) 0.6661(15)
N11 N 0.87719(34) 0.12285(17) 0.6631(10)
N12 N 0.8858(4) 0.2213(3) 0.5226(7)
N15 N 0.7787(5) 0.1142(4) 0.5226(7)
C19 C 0.9391(9) 0.0610(7) 0.6647(17)
C20 C 0.8485(8) 0.0638(6) 0.6603(9)
C21 C 0.9362(6) 0.1515(4) 0.6603(9)
C22 C 0.9172(4) 0.2603(3) 0.4494(9)
C25 C 0.8774(8) 0.0315(6) 0.6621(10)
C26 C 0.9685(6) 0.1226(4) 0.6621(10)
H5 H 0.8074 0.0435 0.6571
H6 H 0.9565 0.1926 0.6571
Au7 Au 0.960437(16) 0.3333 0.3333
C2 C 0.9362(6) 0.7847(5) 0.6603(9)
H1 H 0.9565 0.7639 0.6571
C3 C 0.9685(6) 0.8459(5) 0.6621(10)
C4 C 0.9390(7) 0.8781(5) 0.6647(17)
C5 C 0.9709(6) 0.9419(4) 0.6661(15)
N5 N 0.7787(5) 0.6644(3) 0.5226(7)
N6 N 0.8880(5) 0.6689(3) 0.8107(7)
N7 N 0.87715(45) 0.7543(3) 0.6631(10)
N8 N 0.8858(4) 0.6644(3) 0.5226(7)
C7 C 0.7397(5) 0.6568(3) 0.4494(9)
C9 C 0.8485(8) 0.7847(5) 0.6603(9)
C10 C 0.9172(4) 0.6568(3) 0.4494(9)
Au2 Au 0.666667(23) 0.627103(16) 0.3333
H3 H 0.8074 0.7639 0.6571
C12 C 0.8774(8) 0.8459(5) 0.6621(10)
Au4 Au 0.960437(16) 0.627103(16) 0.3333
C13 C 0.5937(5) 0.5838(4) 0.2172(9)
H4 H 0.8558 0.8653 0.6616
N10 N 0.9395(6) 0.9698(5) 0.6675(14)
H9 H 0.8558 0.9905 0.6616
C10_2 C 0.7397(3) 0.0828(4) 0.4494(9)
Au4_2 Au 0.6667 0.039563(16) 0.3333
C13_2 C 0.9902(3) 0.4063(5) 0.2172(9)
N23_2 N 0.5547(3) 0.5524(4) 0.1440(7)
N23_3 N 0.9978(3) 0.4453(3) 0.1440(7)
C11_2 C 0.4162(4) 0.4063(3) 0.2172(9)
C14_2 C 0.9902(3) 0.5838(4) 0.2172(9)
C39_2 C 0.5937(3) 0.0098(3) 0.2172(9)
N20_2 N 0.08767(38) 0.54381(17) 0.0035(10)
C31_2 C 0.1180(7) 0.6029(6) 0.0064(9)
C32_2 C 0.1180(7) 0.5152(4) 0.0064(9)
C35_2 C 0.1792(7) 0.6352(6) 0.0046(10)
H13_2 H 0.0972 0.6232 0.0096
C36_2 C 0.1792(7) 0.5441(4) 0.0046(10)
H14_2 H 0.0972 0.4741 0.0096
H15_2 H 0.1986 0.6762 0.0051
C38_2 C 0.2114(9) 0.6057(7) 0.0020(17)
H16_2 H 0.1986 0.5225 0.0051
C40_2 C 0.2752(7) 0.6376(6) 0.0006(15)
C41_2 C 0.3624(6) 0.6377(4) 0.0006(15)
C42_2 C 0.3623(7) 0.7248(4) 0.0006(15)
C43_2 C 0.3943(7) 0.6058(5) 0.0020(17)
C44_2 C 0.3942(9) 0.7886(5) 0.0020(17)
C45_2 C 0.4559(8) 0.6352(6) 0.0046(10)
C46_2 C 0.3648(6) 0.5441(4) 0.0046(10)
C47_2 C 0.4559(8) 0.8208(5) 0.0046(10)
C48_2 C 0.3648(6) 0.8208(5) 0.0046(10)
C49_2 C 0.4848(8) 0.6029(6) 0.0064(9)
H17_2 H 0.4775 0.6762 0.0051
C50_2 C 0.3971(6) 0.5152(4) 0.0064(9)
H18_2 H 0.3238 0.5225 0.0051
C51_2 C 0.4848(8) 0.8820(5) 0.0064(9)
H19_2 H 0.4775 0.8014 0.0051
C52_2 C 0.3971(6) 0.8820(5) 0.0064(9)
H20_2 H 0.3238 0.8014 0.0051
N27_2 N 0.45619(45) 0.54385(34) 0.0035(10)
H21_2 H 0.5259 0.6232 0.0096
H22_2 H 0.3768 0.4741 0.0096
N28_2 N 0.45615(34) 0.9123(3) 0.0035(10)
H23_2 H 0.5259 0.9028 0.0096
H24_2 H 0.3768 0.9028 0.0096
N3_2 N 0.6969(5) 0.3030(4) 0.0008(14)
N6_2 N 0.5547(5) 0.0022(3) 0.1440(7)
N9_2 N 0.4476(4) 0.4453(3) 0.1440(7)
N10_2 N 0.6062(6) 0.3031(5) 0.0008(14)
N16_2 N 0.6970(6) 0.3938(3) 0.0008(14)
N21_2 N 0.9978(5) 0.5524(4) 0.1440(7)
Au1_4 Au 0.0000 0.293770(16) 0.0000
C1 C 0.0730(3) 0.3235(3) 0.1161(9)
N1 N 0.1120(3) 0.3311(3) 0.1893(7)
Fe1 Fe 0.1667 0.3333 0.3333
N2 N 0.21048(17) 0.4210(3) 0.3298(10)
C2_2 C 0.1515(4) 0.2153(5) 0.3397(9)
H1_2 H 0.1926 0.2361 0.3429
C3_2 C 0.1226(4) 0.1541(5) 0.3379(10)
H2_2 H 0.1442 0.1347 0.3384
C4_2 C 0.0609(5) 0.1219(5) 0.3353(17)
C5_2 C 0.0290(4) 0.0581(4) 0.3339(15)
N3_3 N 0.0605(3) 0.0303(4) 0.3325(14)
N5_2 N 0.1142(4) 0.3356(3) 0.4774(7)
N6_3 N 0.2191(4) 0.3311(3) 0.1893(7)
N7_2 N 0.12281(34) 0.2457(3) 0.3369(10)
N8_2 N 0.2213(3) 0.3356(3) 0.4774(7)
C7_2 C 0.0828(4) 0.3432(3) 0.5506(9)
C8 C 0.2505(4) 0.3235(3) 0.1161(9)
C9_2 C 0.0638(6) 0.2153(5) 0.3397(9)
C10_3 C 0.2603(3) 0.3432(3) 0.5506(9)
Au2_2 Au 0.039563(16) 0.372897(16) 0.6667
Au3_2 Au 0.293770(16) 0.293770(16) 0.0000
H3_2 H 0.0435 0.2361 0.3429
C12_2 C 0.0315(6) 0.1541(5) 0.3379(10)
Au4_3 Au 0.3333 0.372897(16) 0.6667
C13_3 C 0.0098(3) 0.4162(4) 0.7828(9)
Au6_3 Au 0.293770(16) 0.0000 0.0000
H8_2 H 0.1442 0.0095 0.3384
Fe5_6 Fe 0.5001 0.0000 1.0000
C16_2 C 0.0291(6) 0.9710(4) 0.3339(15)
C18_2 C 0.0610(7) 0.9391(5) 0.3353(17)
Au6_4 Au 0.293770(16) 1.0000 0.0000
C23_2 C 0.0315(6) 0.8774(4) 0.3379(10)
C24_2 C 0.1226(4) 0.9685(6) 0.3379(10)
C27 C 0.2505(4) 0.9270(3) 0.1161(9)
C28_2 C 0.0638(6) 0.8485(4) 0.3397(9)
C29_2 C 0.1515(4) 0.9362(6) 0.3397(9)
N17 N 0.2191(4) 0.8880(3) 0.1893(7)
N18_2 N 0.12285(17) 0.87719(34) 0.3369(10)
H11_2 H 0.0435 0.8074 0.3429
H12_2 H 0.1926 0.9565 0.3429
Fe4 Fe 0.1666 0.8333 0.3333
N19_2 N 0.2213(3) 0.8858(4) 0.4774(7)
N20_3 N 0.21052(34) 0.78952(17) 0.3298(10)
N21_3 N 0.1120(3) 0.7809(4) 0.1893(7)
N22_2 N 0.1142(4) 0.7787(3) 0.4774(7)
C30_2 C 0.2603(3) 0.9172(4) 0.5506(9)
C31_3 C 0.1818(4) 0.7305(6) 0.3270(9)
C32_3 C 0.2695(6) 0.8182(4) 0.3270(9)
C33 C 0.0730(3) 0.7495(4) 0.1161(9)
C34_2 C 0.0828(4) 0.7397(3) 0.5506(9)
Au8_2 Au 0.3333 0.960437(16) 0.6667
C35_3 C 0.2107(4) 0.6982(6) 0.3288(10)
H13_3 H 0.1407 0.7102 0.3238
C36_3 C 0.3018(6) 0.7893(4) 0.3288(10)
H14_3 H 0.2898 0.8593 0.3238
Au9_3 Au -0.0000 0.706230(16) 0.0000
Au10_2 Au 0.039563(16) 0.6667 0.6667
C37_2 C 0.4063(3) 0.9902(3) 0.7828(9)
H15_3 H 0.1891 0.6572 0.3283
C38_3 C 0.2724(5) 0.7277(7) 0.3314(17)
H16_3 H 0.3428 0.8109 0.3283
N23_4 N 0.4453(3) 0.9978(3) 0.8560(7)
C40_3 C 0.3043(4) 0.6958(6) 0.3328(15)
Fe5_7 Fe 0.5001 1.0000 1.0000
N24_2 N 0.3636(4) 0.7272(3) 0.3342(14)
N25_2 N 0.2728(3) 0.6365(5) 0.3342(14)
C41_3 C 0.3914(4) 0.6957(4) 0.3328(15)
C42_3 C 0.3042(6) 0.6086(4) 0.3328(15)
C43_3 C 0.4552(5) 0.7276(5) 0.3314(17)
N26_2 N 0.3635(5) 0.6364(4) 0.3342(14)
C44_3 C 0.2723(7) 0.5448(5) 0.3314(17)
C45_3 C 0.4874(5) 0.6982(6) 0.3288(10)
C46_3 C 0.4874(5) 0.7893(4) 0.3288(10)
C47_3 C 0.3018(6) 0.5126(5) 0.3288(10)
C48_3 C 0.2107(4) 0.5126(5) 0.3288(10)
C49_3 C 0.5486(5) 0.7305(6) 0.3270(9)
H17_3 H 0.4680 0.6572 0.3283
C50_3 C 0.5486(5) 0.8182(4) 0.3270(9)
H18_3 H 0.4680 0.8109 0.3283
C51_3 C 0.2695(6) 0.4514(5) 0.3270(9)
H19_3 H 0.3428 0.5320 0.3283
C52_3 C 0.1818(4) 0.4514(5) 0.3270(9)
H20_3 H 0.1891 0.5320 0.3283
N27_3 N 0.5790(3) 0.78948(34) 0.3298(10)
H21_3 H 0.5694 0.7102 0.3238
H22_3 H 0.5694 0.8593 0.3238
H23_3 H 0.2898 0.4306 0.3238
H24_3 H 0.1407 0.4306 0.3238
Fe6 Fe 0.6667 0.8334 0.3333
Au1_5 Au 1.0000 0.293770(16) 0.0000
Au5_3 Au 0.706230(16) 0.0000 0.0000
H4_2 H 0.9905 0.1347 0.3384
N10_3 N 0.9697(4) 0.0302(5) 0.3325(14)
H9_2 H 0.8653 0.0095 0.3384
Au5_4 Au 0.706230(16) 1.0000 0.0000
C15 C 0.6765(3) 0.9270(3) 0.1161(9)
N9_3 N 0.6689(3) 0.8880(3) 0.1893(7)
C17_2 C 0.9419(4) 0.9709(6) 0.3339(15)
N11_2 N 0.7543(3) 0.87715(17) 0.3369(10)
N12_2 N 0.6644(3) 0.7787(3) 0.4774(7)
N13 N 0.6689(3) 0.7809(4) 0.1893(7)
N15_2 N 0.6644(3) 0.8858(4) 0.4774(7)
N16_3 N 0.9698(5) 0.9395(3) 0.3325(14)
C19_2 C 0.8781(5) 0.9390(7) 0.3353(17)
C20_2 C 0.7847(5) 0.9362(6) 0.3397(9)
C21_2 C 0.7847(5) 0.8485(4) 0.3397(9)
C22_2 C 0.6568(3) 0.7397(3) 0.5506(9)
C25_2 C 0.8459(5) 0.9685(6) 0.3379(10)
C26_2 C 0.8459(5) 0.8774(4) 0.3379(10)
H5_2 H 0.7639 0.9565 0.3429
H6_2 H 0.7639 0.8074 0.3429
Au7_2 Au 0.627103(16) 0.6667 0.6667
H7_2 H 0.9905 0.8558 0.3384
H10_2 H 0.8653 0.8558 0.3384
Au9_4 Au 1.0000 0.706230(16) 0.0000
N23_5 N 0.0022(3) 0.4476(4) 0.8560(7)
Fe5_8 Fe -0.0000 0.5000 1.0000
Fe5_9 Fe 1.0000 0.5000 1.0000
Au1_6 Au 0.706230(16) 0.706230(16) 0.0000
C1_2 C 0.6765(3) 0.7495(4) 0.1161(9)
C10_4 C 0.6568(3) 0.9172(4) 0.5506(9)
Au4_4 Au 0.627103(16) 0.960437(16) 0.6667
C13_4 C 0.5838(4) 0.5937(5) 0.7828(9)
N23_6 N 0.5524(4) 0.5547(3) 0.8560(7)
Fe5_10 Fe 0.5000 0.4999 1.0000
N22_3 N 0.0022(5) 0.5547(3) 0.8560(7)
C34_3 C 0.0098(5) 0.5937(3) 0.7828(9)
N24_3 N 0.3031(5) 0.6062(3) 0.9992(14)
N25_3 N 0.3030(6) 0.6969(5) 0.9992(14)
N26_3 N 0.3938(6) 0.6970(4) 0.9992(14)
C2_3 C 0.6029(6) 0.1180(5) 0.9936(9)
H1_3 H 0.6232 0.0972 0.9904
C3_3 C 0.6352(6) 0.1792(5) 0.9954(10)
H2_3 H 0.6762 0.1986 0.9949
C4_3 C 0.6057(7) 0.2114(5) 0.9980(17)
C5_3 C 0.6376(6) 0.2752(4) 0.9994(15)
N7_3 N 0.54381(45) 0.0877(3) 0.9965(10)
C9_3 C 0.5152(8) 0.1180(5) 0.9936(9)
H3_3 H 0.4741 0.0972 0.9904
C12_3 C 0.5441(8) 0.1792(5) 0.9954(10)
H4_3 H 0.5225 0.1986 0.9949
C16_3 C 0.7248(7) 0.3623(4) 0.9994(15)
C17_3 C 0.6377(7) 0.3624(6) 0.9994(15)
N11_3 N 0.54385(34) 0.45619(17) 0.9965(10)
N15_3 N 0.4453(5) 0.4476(4) 0.8560(7)
C18_3 C 0.7886(9) 0.3942(5) 0.9980(17)
C19_3 C 0.6058(9) 0.3943(7) 0.9980(17)
C20_3 C 0.5152(8) 0.3971(6) 0.9936(9)
C21_3 C 0.6029(6) 0.4848(4) 0.9936(9)
C23_3 C 0.8208(7) 0.4559(4) 0.9954(10)
C24_3 C 0.8208(7) 0.3648(6) 0.9954(10)
C25_3 C 0.5441(8) 0.3648(6) 0.9954(10)
C26_3 C 0.6352(6) 0.4559(4) 0.9954(10)
H5_3 H 0.4741 0.3768 0.9904
H6_3 H 0.6232 0.5259 0.9904
C28_3 C 0.8820(7) 0.4848(4) 0.9936(9)
H7_3 H 0.8014 0.4775 0.9949
C29_3 C 0.8820(7) 0.3971(6) 0.9936(9)
H8_3 H 0.8014 0.3238 0.9949
H9_3 H 0.5225 0.3238 0.9949
H10_3 H 0.6762 0.4775 0.9949
N18_3 N 0.91233(38) 0.45615(34) 0.9965(10)
H11_3 H 0.9028 0.5259 0.9904
H12_3 H 0.9028 0.3768 0.9904
N8_3 N 0.5524(4) 0.9978(3) 0.8560(7)
C10_5 C 0.5838(4) 0.9902(3) 0.7828(9)
C10_6 C 0.4063(3) 0.4162(4) 0.7828(9)
loop_
_geom_bond_atom_site_label_1
_geom_bond_atom_site_label_2
_geom_bond_site_symmetry_1
_geom_bond_site_symmetry_2
C14 Au3 1_555 1_555
C6 Au1_2 1_555 1_555
N4 C6 1_555 1_555
Fe2 N4 1_555 1_555
C11 Au5 1_555 1_555
C39 Au9_2 1_555 1_555
C6_2 Au1_3 1_555 1_555
N4_2 C6_2 1_555 1_555
Fe2_2 N4_2 1_555 1_555
C6_3 Au6 1_555 1_555
N4_3 C6_3 1_555 1_555
Fe2_3 N4_3 1_555 1_555
N16 C16 1_555 1_555
C18 C16 1_555 1_555
C23 C18 1_555 1_555
C24 C18 1_555 1_555
C28 C23 1_555 1_555
H7 C23 1_555 1_555
C29 C24 1_555 1_555
N18 C28 1_555 1_555
H11 C28 1_555 1_555
H12 C29 1_555 1_555
Fe2_3 N18 1_555 1_555
N19 Fe2_3 1_555 1_555
N20 Fe2_3 1_555 1_555
N21 Fe2_3 1_555 1_555
N22 Fe2_3 1_555 1_555
C30 N19 1_555 1_555
C31 N20 1_555 1_555
C32 N20 1_555 1_555
C14 N21 1_555 1_555
C34 N22 1_555 1_555
Au8 C30 1_555 1_555
C35 C31 1_555 1_555
H13 C31 1_555 1_555
C36 C32 1_555 1_555
H14 C32 1_555 1_555
Au10 C34 1_555 1_555
C37 Au8 1_555 1_555
H15 C35 1_555 1_555
C38 C35 1_555 1_555
H16 C36 1_555 1_555
N23 C37 1_555 1_555
C40 C38 1_555 1_555
Fe5 N23 1_555 1_555
N24 C40 1_555 1_555
N25 C40 1_555 1_555
C41 N24 1_555 1_555
C42 N25 1_555 1_555
C43 C41 1_555 1_555
N26 C41 1_555 1_555
C44 C42 1_555 1_555
C45 C43 1_555 1_555
C46 C43 1_555 1_555
C47 C44 1_555 1_555
C48 C44 1_555 1_555
C49 C45 1_555 1_555
H17 C45 1_555 1_555
C50 C46 1_555 1_555
H18 C46 1_555 1_555
C51 C47 1_555 1_555
H19 C47 1_555 1_555
C52 C48 1_555 1_555
H20 C48 1_555 1_555
N27 C49 1_555 1_555
H21 C49 1_555 1_555
H22 C50 1_555 1_555
N28 C51 1_555 1_555
H23 C51 1_555 1_555
H24 C52 1_555 1_555
Fe2 N27 1_555 1_555
Fe2_2 N28 1_555 1_555
C29 N18 1_555 1_555
C36 C38 1_555 1_555
C42 N26 1_555 1_555
C50 N27 1_555 1_555
C52 N28 1_555 1_555
C11 N9 1_555 1_555
N9 Fe2 1_555 1_555
Fe2 N11 1_555 1_555
N11 C20 1_555 1_555
N12 Fe2 1_555 1_555
N15 Fe2 1_555 1_555
C19 C17 1_555 1_555
C20 C25 1_555 1_555
C21 N11 1_555 1_555
C22 N12 1_555 1_555
C25 C19 1_555 1_555
C26 C19 1_555 1_555
H5 C20 1_555 1_555
H6 C21 1_555 1_555
Au7 C22 1_555 1_555
C21 C26 1_555 1_555
C2 H1 1_555 1_555
C3 C2 1_555 1_555
C4 C3 1_555 1_555
C5 C4 1_555 1_555
N5 Fe2_2 1_555 1_555
N6 Fe2_2 1_555 1_555
N7 Fe2_2 1_555 1_555
N8 Fe2_2 1_555 1_555
C7 N5 1_555 1_555
C39 N6 1_555 1_555
C9 N7 1_555 1_555
C10 N8 1_555 1_555
Au2 C7 1_555 1_555
H3 C9 1_555 1_555
C12 C4 1_555 1_555
Au4 C10 1_555 1_555
C13 Au2 1_555 1_555
H4 C12 1_555 1_555
N10 C5 1_555 1_555
C2 N7 1_555 1_555
C9 C12 1_555 1_555
C10_2 N15 1_555 1_555
Au4_2 C10_2 1_555 1_555
C13_2 Au7 1_555 1_555
N23_2 C13 1_555 1_555
Fe5_5 N23_2 1_555 1_555
N23_3 C13_2 1_555 1_555
Fe5_4 N23_3 1_555 1_555
C11_2 Au10 1_555 1_555
C14_2 Au4 1_555 1_555
C39_2 Au4_2 1_555 1_555
N20_2 Fe5_3 1_555 1_555
C31_2 N20_2 1_555 1_555
C32_2 N20_2 1_555 1_555
C35_2 C31_2 1_555 1_555
H13_2 C31_2 1_555 1_555
C36_2 C32_2 1_555 1_555
H14_2 C32_2 1_555 1_555
H15_2 C35_2 1_555 1_555
C38_2 C35_2 1_555 1_555
H16_2 C36_2 1_555 1_555
C40_2 C38_2 1_555 1_555
C43_2 C41_2 1_555 1_555
C44_2 C42_2 1_555 1_555
C45_2 C43_2 1_555 1_555
C46_2 C43_2 1_555 1_555
C47_2 C44_2 1_555 1_555
C48_2 C44_2 1_555 1_555
C49_2 C45_2 1_555 1_555
H17_2 C45_2 1_555 1_555
C50_2 C46_2 1_555 1_555
H18_2 C46_2 1_555 1_555
C51_2 C47_2 1_555 1_555
H19_2 C47_2 1_555 1_555
C52_2 C48_2 1_555 1_555
H20_2 C48_2 1_555 1_555
N27_2 C49_2 1_555 1_555
H21_2 C49_2 1_555 1_555
H22_2 C50_2 1_555 1_555
N28_2 C51_2 1_555 1_555
H23_2 C51_2 1_555 1_555
H24_2 C52_2 1_555 1_555
Fe5_5 N27_2 1_555 1_555
Fe5_2 N28_2 1_555 1_555
C36_2 C38_2 1_555 1_555
C50_2 N27_2 1_555 1_555
C52_2 N28_2 1_555 1_555
N6_2 Fe5 1_555 1_555
C39_2 N6_2 1_555 1_555
C11_2 N9_2 1_555 1_555
N9_2 Fe5_5 1_555 1_555
N21_2 Fe5_4 1_555 1_555
C14_2 N21_2 1_555 1_555
Au1_4 C1 1_555 1_555
C1 N1 1_555 1_555
N1 Fe1 1_555 1_555
Fe1 N2 1_555 1_555
C2_2 H1_2 1_555 1_555
C3_2 C2_2 1_555 1_555
H2_2 C3_2 1_555 1_555
C4_2 C3_2 1_555 1_555
C5_2 C4_2 1_555 1_555
N3_3 C5_2 1_555 1_555
N5_2 Fe1 1_555 1_555
N6_3 Fe1 1_555 1_555
N7_2 Fe1 1_555 1_555
N8_2 Fe1 1_555 1_555
C7_2 N5_2 1_555 1_555
C8 N6_3 1_555 1_555
C9_2 N7_2 1_555 1_555
C10_3 N8_2 1_555 1_555
Au2_2 C7_2 1_555 1_555
Au3_2 C8 1_555 1_555
H3_2 C9_2 1_555 1_555
C12_2 C4_2 1_555 1_555
Au4_3 C10_3 1_555 1_555
C13_3 Au2_2 1_555 1_555
C2_2 N7_2 1_555 1_555
C9_2 C12_2 1_555 1_555
C18_2 C16_2 1_555 1_555
Au6_4 C27 1_555 1_555
C23_2 C18_2 1_555 1_555
C24_2 C18_2 1_555 1_555
C27 N17 1_555 1_555
C28_2 C23_2 1_555 1_555
C29_2 C24_2 1_555 1_555
N17 Fe4 1_555 1_555
N18_2 C28_2 1_555 1_555
H11_2 C28_2 1_555 1_555
H12_2 C29_2 1_555 1_555
Fe4 N18_2 1_555 1_555
N19_2 Fe4 1_555 1_555
N20_3 Fe4 1_555 1_555
N21_3 Fe4 1_555 1_555
N22_2 Fe4 1_555 1_555
C30_2 N19_2 1_555 1_555
C31_3 N20_3 1_555 1_555
C32_3 N20_3 1_555 1_555
C33 N21_3 1_555 1_555
C34_2 N22_2 1_555 1_555
Au8_2 C30_2 1_555 1_555
C35_3 C31_3 1_555 1_555
H13_3 C31_3 1_555 1_555
C36_3 C32_3 1_555 1_555
H14_3 C32_3 1_555 1_555
Au9_3 C33 1_555 1_555
Au10_2 C34_2 1_555 1_555
C37_2 Au8_2 1_555 1_555
H15_3 C35_3 1_555 1_555
C38_3 C35_3 1_555 1_555
H16_3 C36_3 1_555 1_555
N23_4 C37_2 1_555 1_555
C40_3 C38_3 1_555 1_555
Fe5_7 N23_4 1_555 1_555
N24_2 C40_3 1_555 1_555
N25_2 C40_3 1_555 1_555
C41_3 N24_2 1_555 1_555
C42_3 N25_2 1_555 1_555
C43_3 C41_3 1_555 1_555
N26_2 C41_3 1_555 1_555
C44_3 C42_3 1_555 1_555
C45_3 C43_3 1_555 1_555
C46_3 C43_3 1_555 1_555
C47_3 C44_3 1_555 1_555
C48_3 C44_3 1_555 1_555
C49_3 C45_3 1_555 1_555
H17_3 C45_3 1_555 1_555
C50_3 C46_3 1_555 1_555
H18_3 C46_3 1_555 1_555
C51_3 C47_3 1_555 1_555
H19_3 C47_3 1_555 1_555
C52_3 C48_3 1_555 1_555
H20_3 C48_3 1_555 1_555
N27_3 C49_3 1_555 1_555
H21_3 C49_3 1_555 1_555
H22_3 C50_3 1_555 1_555
N2 C51_3 1_555 1_555
H23_3 C51_3 1_555 1_555
H24_3 C52_3 1_555 1_555
Fe6 N27_3 1_555 1_555
C29_2 N18_2 1_555 1_555
C36_3 C38_3 1_555 1_555
C42_3 N26_2 1_555 1_555
C50_3 N27_3 1_555 1_555
C52_3 N2 1_555 1_555
Au5_4 C15 1_555 1_555
C15 N9_3 1_555 1_555
N9_3 Fe6 1_555 1_555
Fe6 N11_2 1_555 1_555
N11_2 C20_2 1_555 1_555
N12_2 Fe6 1_555 1_555
N13 Fe6 1_555 1_555
N15_2 Fe6 1_555 1_555
C19_2 C17_2 1_555 1_555
C20_2 C25_2 1_555 1_555
C21_2 N11_2 1_555 1_555
C22_2 N12_2 1_555 1_555
C25_2 C19_2 1_555 1_555
C26_2 C19_2 1_555 1_555
H5_2 C20_2 1_555 1_555
H6_2 C21_2 1_555 1_555
Au7_2 C22_2 1_555 1_555
H10_2 C26_2 1_555 1_555
C17_2 N16_3 1_555 1_555
C21_2 C26_2 1_555 1_555
N23_5 C13_3 1_555 1_555
Fe5_8 N23_5 1_555 1_555
Au1_6 C1_2 1_555 1_555
C1_2 N13 1_555 1_555
C10_4 N15_2 1_555 1_555
Au4_4 C10_4 1_555 1_555
C13_4 Au7_2 1_555 1_555
N23_6 C13_4 1_555 1_555
Fe5_10 N23_6 1_555 1_555
N22_3 Fe5_8 1_555 1_555
C34_3 N22_3 1_555 1_555
Au10_2 C34_3 1_555 1_555
C2_3 H1_3 1_555 1_555
C3_3 C2_3 1_555 1_555
H2_3 C3_3 1_555 1_555
C4_3 C3_3 1_555 1_555
C5_3 C4_3 1_555 1_555
N7_3 Fe5_6 1_555 1_555
C9_3 N7_3 1_555 1_555
H3_3 C9_3 1_555 1_555
C12_3 C4_3 1_555 1_555
H4_3 C12_3 1_555 1_555
Fe5_10 N11_3 1_555 1_555
N11_3 C20_3 1_555 1_555
N15_3 Fe5_10 1_555 1_555
C18_3 C16_3 1_555 1_555
C19_3 C17_3 1_555 1_555
C20_3 C25_3 1_555 1_555
C21_3 N11_3 1_555 1_555
C23_3 C18_3 1_555 1_555
C24_3 C18_3 1_555 1_555
C25_3 C19_3 1_555 1_555
C26_3 C19_3 1_555 1_555
H5_3 C20_3 1_555 1_555
H6_3 C21_3 1_555 1_555
C28_3 C23_3 1_555 1_555
H7_3 C23_3 1_555 1_555
C29_3 C24_3 1_555 1_555
H8_3 C24_3 1_555 1_555
H9_3 C25_3 1_555 1_555
H10_3 C26_3 1_555 1_555
N18_3 C28_3 1_555 1_555
H11_3 C28_3 1_555 1_555
H12_3 C29_3 1_555 1_555
Fe5_9 N18_3 1_555 1_555
C2_3 N7_3 1_555 1_555
C9_3 C12_3 1_555 1_555
C21_3 C26_3 1_555 1_555
C29_3 N18_3 1_555 1_555
N8_3 Fe5_7 1_555 1_555
C10_5 N8_3 1_555 1_555
Au4_4 C10_5 1_555 1_555
C10_6 N15_3 1_555 1_555
Au4_3 C10_6 1_555 1_555

#END
