
###############################################################################
#
# This file contains modified crystal structure data generated from the
# MOF subset of the Cambridge Structural Database (CSD) v543 
# hosted by the Cambridge Crystallographic Data Centre (CCDC).
#
# This work is licensed under the Creative Commons
# Attribution-NonCommercial-ShareAlike 4.0 International License.
# To view a copy of this license, visit
# http://creativecommons.org/licenses/by-nc-sa/4.0/
# or send a letter to
# Creative Commons, PO Box 1866, Mountain View, CA 94042, USA.
#
# CIF created using the CSD Python API on 29 September 2022
# The structure has been converted into the P1 space group
# The structure has a 3D framework
# The original CSD entry YOYZET is in the monoclinic crystal system
# The original CSD entry YOYZET is in a Sohncke space group
# The framework has been calculated to contain at least 10.0% void space
# The void calculation uses a probe of radius 1.32A, grid spacing 0.4
# H atom positions have been added when not included in the experimental data
#
###############################################################################

data_YOYZET
_chemical_formula_moiety         '(C208 H290 B8 Co4 Cu16 N72 O64)n'
_symmetry_cell_setting           triclinic
_symmetry_space_group_name_H-M   'P 1'
_symmetry_Int_Tables_number      1
_space_group_name_Hall           'P 1'
loop_
_symmetry_equiv_pos_site_id
_symmetry_equiv_pos_as_xyz
1 x,y,z
_cell_length_a                   26.604(5)
_cell_length_b                   18.113(4)
_cell_length_c                   18.925(4)
_cell_angle_alpha                90
_cell_angle_beta                 118.24(3)
_cell_angle_gamma                90
_cell_volume                     8034.08
loop_
_atom_site_label
_atom_site_type_symbol
_atom_site_fract_x
_atom_site_fract_y
_atom_site_fract_z
C21 C 0.2949(6) 0.0180(5) 0.1369(5)
H18 H 0.3321 0.0116 0.1868
C22 C 0.2495(9) 0.0452(7) 0.1615(9)
H19 H 0.2117 0.0236 0.1257
H20 H 0.2607 0.0305 0.2174
C23 C 0.3005(6) 0.0819(7) 0.0903(6)
C24 C 0.2526(7) 0.0815(7) 0.0009(5)
C25 C 0.3610(8) 0.0838(12) 0.0925(14)
H24 H 0.3635 0.0431 0.0601
H25 H 0.3913 0.0785 0.1480
H26 H 0.3656 0.1309 0.0708
O7 O 0.3228(3) 0.2575(4) 0.0849(4)
O8 O 0.2302(3) 0.2383(4) 0.0466(4)
C32 C 0.2829(6) 0.2242(6) 0.0874(6)
C33 C 0.3005(6) 0.1524(6) 0.1387(6)
C34 C 0.3489(7) 0.1678(7) 0.2143(7)
H29 H 0.3790 0.1903 0.2056
H30 H 0.3631 0.1217 0.2445
H31 H 0.3379 0.2018 0.2448
C35 C 0.2475(8) 0.1256(7) 0.1542(8)
H32 H 0.2510 0.1484 0.2039
H33 H 0.2106 0.1411 0.1088
Cu6 Cu 0.30305(5) 0.35002(5) 0.02418(6)
N7 N 0.0299(3) 0.0883(6) 0.7005(4)
N8 N 0.0404(4) 0.0285(6) 0.6701(6)
C5 C 0.0427(6) 0.1452(10) 0.6647(7)
H6 H 0.0380 0.1954 0.6750
C6 C 0.0568(6) 0.0523(13) 0.6134(7)
H7 H 0.0634 0.0204 0.5787
N9 N 0.0620(6) 0.1256(11) 0.6146(8)
N13 N 0.0507(5) 0.1678(5) 0.8565(5)
N14 N 0.0254(4) 0.2185(4) 0.8852(5)
C9 C 0.1016(6) 0.1937(6) 0.8831(6)
H11 H 0.1299 0.1667 0.8770
C10 C 0.0642(5) 0.2725(6) 0.9228(6)
H12 H 0.0583 0.3142 0.9482
N15 N 0.1133(4) 0.2582(5) 0.9188(6)
H21 H 0.2153 0.0771 0.9990
H22 H 0.2584 0.0395 0.9729
H23 H 0.2542 0.1275 0.9749
Cu8 Cu 0.19417(5) 0.31547(6) 0.96655(6)
H62 H 0.335479 0.015721 0.709208
H63 H 0.330191 0.0116083 0.799346
H68 H 0.314939 0.00941371 0.803449
H69 H 0.322547 0.016328 0.901769
H70 H 0.222004 0.0387695 0.837346
H71 H 0.218043 0.0252961 0.741763
Cu2 Cu 0.30583(5) 0.81547(6) 0.03345(6)
O3 O 0.2308(5) 0.9360(4) 0.0459(5)
O4 O 0.3205(4) 0.9041(4) 0.0994(4)
C20 C 0.2819(7) 0.9481(6) 0.0898(6)
N20 N 0.3867(4) 0.7582(5) 0.0812(6)
O17 O 0.1984(4) 0.7976(4) 0.0673(4)
O18 O 0.2895(3) 0.7634(4) 0.1108(4)
B1 B 0.0276(5) 0.9513(8) 0.6893(7)
H1 H 0.0388 0.9126 0.6617
N1 N 0.0554(4) 0.9931(5) 0.8349(5)
N2 N 0.0613(4) 0.9428(5) 0.7819(5)
C1 C 0.0909(6) 0.9652(6) 0.9039(7)
H2 H 0.0998 0.9911 0.9521
C2 C 0.0984(5) 0.8884(7) 0.8268(7)
H3 H 0.1110 0.8488 0.8063
N3 N 0.1144(5) 0.9005(5) 0.9064(6)
Cu1 Cu 0.19695(5) 0.85002(5) 0.97582(6)
O1 O 0.2171(4) 0.8923(4) 0.8938(4)
O2 O 0.3095(4) 0.8770(4) 0.9512(4)
C13 C 0.2657(6) 0.8993(6) 0.8981(6)
C14 C 0.2631(6) 0.9416(6) 0.8274(6)
C15 C 0.2164(8) 0.9980(12) 0.7919(12)
C16 C 0.3157(12) 0.9785(16) 0.8533(16)
C17 C 0.2539(10) 0.8941(6) 0.7558(8)
C18 C 0.1822(11) 0.8685(14) 0.7066(10)
H15 H 0.1742 0.8355 0.7411
H16 H 0.1738 0.8429 0.6566
H17 H 0.1582 0.9126 0.6944
C19 C 0.2719(7) 0.8246(10) 0.7677(10)
O15 O 0.2150(3) 0.9123(4) 0.5624(4)
O16 O 0.3038(4) 0.8683(5) 0.6375(4)
C50 C 0.2593(6) 0.9053(6) 0.6261(6)
C51 C 0.2654(6) 0.9445(6) 0.7008(6)
H53 H 0.2369 0.9856 0.6833
C52 C 0.3275(8) 0.9797(11) 0.7489(12)
O19 O 0.1772(3) 0.7575(4) 0.9151(4)
O20 O 0.2698(3) 0.7383(4) 0.9534(4)
Cu9 Cu 0.20283(6) 0.86262(7) 0.46150(7)
Cu11 Cu 0.30832(6) 0.81690(7) 0.55020(6)
H61 H 0.35925 0.935816 0.771003
H64 H 0.250748 0.794243 0.795831
H65 H 0.261856 0.799166 0.710384
H66 H 0.31786 0.823384 0.806645
H67 H 0.350158 0.9382 0.874645
H72 H 0.175238 0.970893 0.77081
Co1 Co 0.99648(4) 0.08090(8) 0.77893(6)
H4 H 0.8616 -0.0000 0.6716
B2 B 0.9613(5) 0.2130(7) 0.8573(6)
H8 H 0.9491 0.2540 0.8811
N10 N 0.9362(4) 0.1654(5) 0.7187(5)
N11 N 0.9300(4) 0.2185(4) 0.7657(4)
C7 C 0.9051(5) 0.1904(6) 0.6439(7)
H9 H 0.8994 0.1633 0.5977
C8 C 0.8976(6) 0.2740(6) 0.7176(6)
H10 H 0.8873 0.3175 0.7356
N12 N 0.8822(4) 0.2581(6) 0.6405(6)
N16 N 0.9617(3) 0.0772(5) 0.8563(4)
N17 N 0.9486(4) 0.1387(5) 0.8830(4)
C11 C 0.9461(4) 0.0219(6) 0.8882(5)
C12 C 0.9244(5) 0.1199(8) 0.9308(6)
H14 H 0.9107 0.1536 0.9562
N18 N 0.9235(4) 0.0472(6) 0.9353(6)
C37 C 0.6831(6) 0.0267(6) 0.5503(8)
C38 C 0.7319(11) 0.0587(11) 0.6334(9)
H34 H 0.7319 0.0331 0.6796
H35 H 0.7700 0.0537 0.6369
C39 C 0.6279(8) 0.0101(11) 0.5467(15)
H36 H 0.5977 0.0113 0.4908
H37 H 0.6197 0.0471 0.5778
C40 C 0.6786(7) 0.0912(8) 0.4956(7)
C41 C 0.7287(9) 0.0930(8) 0.4747(9)
H39 H 0.7630 0.0722 0.5194
H40 H 0.7361 0.1442 0.4655
H41 H 0.7184 0.0639 0.4262
C42 C 0.6247(9) 0.0993(16) 0.4253(12)
H42 H 0.6224 0.1483 0.4020
H43 H 0.5940 0.0940 0.4396
H44 H 0.6207 0.0613 0.3862
O13 O 0.6711(4) 0.2760(5) 0.4878(6)
O14 O 0.7593(4) 0.2343(5) 0.5580(4)
C47 C 0.7054(6) 0.2280(7) 0.5294(6)
C48 C 0.6847(6) 0.1591(7) 0.5480(7)
H50 H 0.6454 0.1701 0.5395
C49 C 0.7168(12) 0.1325(8) 0.6309(9)
H51 H 0.7517 0.1626 0.6600
H52 H 0.6932 0.1384 0.6582
Cu10 Cu 0.70283(6) 0.36262(7) 0.46150(7)
Cu12 Cu 0.80832(6) 0.31690(7) 0.55020(6)
Cu5 Cu 0.80305(5) 0.85002(5) 0.02418(6)
N4 N 0.9422(4) 0.9942(5) 0.6988(5)
N5 N 0.9669(5) 0.9465(5) 0.6661(5)
C3 C 0.8894(7) 0.9737(6) 0.6637(7)
H4_2 H 0.8616 1.0000 0.6716
C4 C 0.9255(5) 0.9007(6) 0.6170(7)
H5 H 0.9311 0.8631 0.5865
N6 N 0.8748(4) 0.9135(5) 0.6153(6)
H13 H 0.9502 0.9711 0.8794
O5 O 0.8016(4) 0.7976(4) 0.9327(4)
O6 O 0.7105(3) 0.7634(4) 0.8892(4)
C26 C 0.7553(6) 0.7651(5) 0.8845(6)
C27 C 0.7591(7) 0.7258(5) 0.8136(6)
C28 C 0.8171(8) 0.6966(9) 0.8319(9)
H27 H 0.8240 0.6465 0.8555
H28 H 0.8482 0.7301 0.8674
C29 C 0.7327(7) 0.7782(9) 0.7361(10)
C30 C 0.7514(6) 0.8514(8) 0.7494(8)
C31 C 0.6685(9) 0.7874(11) 0.6969(15)
Cu3 Cu 0.79717(6) 0.86262(7) 0.53850(7)
Cu4 Cu 0.69168(6) 0.81690(7) 0.44980(6)
O9 O 0.7601(4) 0.9408(4) 0.5616(4)
O10 O 0.6682(3) 0.9109(4) 0.4761(4)
C36 C 0.7063(8) 0.9553(6) 0.5269(7)
H38 H 0.6293 0.9610 0.5692
O11 O 0.7890(4) 0.7999(4) 0.6192(4)
O12 O 0.6963(4) 0.7737(4) 0.5455(4)
C43 C 0.7425(6) 0.7697(5) 0.6086(7)
C44 C 0.7455(6) 0.7285(6) 0.6810(6)
C45 C 0.8081(9) 0.6963(10) 0.7420(11)
H45 H 0.8118 0.6452 0.7263
H46 H 0.8379 0.7270 0.7391
C46 C 0.7019(9) 0.6739(11) 0.6583(13)
H47 H 0.6876 0.6731 0.6975
H48 H 0.7176 0.6254 0.6567
H49 H 0.6705 0.6858 0.6051
N19 N 0.6178(4) 0.7581(6) 0.3595(6)
Cu7 Cu 0.69417(5) 0.81547(6) 0.96655(6)
O21 O 0.8289(4) 0.7760(5) 0.5122(6)
O22 O 0.7407(4) 0.7343(5) 0.4420(4)
O23 O 0.7850(3) 0.9123(4) 0.4376(4)
O24 O 0.6962(4) 0.8683(5) 0.3625(4)
H54 H 0.797494 0.852885 0.772947
H55 H 0.73091 0.881821 0.693115
H56 H 0.740378 0.876575 0.79251
H57 H 0.731098 0.677941 0.798196
H58 H 0.656763 0.811436 0.739795
H59 H 0.654495 0.823667 0.645093
H60 H 0.648104 0.733708 0.67764
Co1_2 Co 0.00352(4) 0.08090(8) 0.22107(6)
H4_3 H 0.1384 -0.0000 0.3284
B2_2 B 0.0387(5) 0.2130(7) 0.1427(6)
H8_2 H 0.0509 0.2540 0.1189
N10_2 N 0.0638(4) 0.1654(5) 0.2813(5)
N11_2 N 0.0700(4) 0.2185(4) 0.2343(4)
C7_2 C 0.0949(5) 0.1904(6) 0.3561(7)
H9_2 H 0.1006 0.1633 0.4023
C8_2 C 0.1024(6) 0.2740(6) 0.2824(6)
H10_2 H 0.1127 0.3175 0.2644
N12_2 N 0.1178(4) 0.2581(6) 0.3595(6)
N16_2 N 0.0383(3) 0.0772(5) 0.1437(4)
N17_2 N 0.0514(4) 0.1387(5) 0.1170(4)
C11_2 C 0.0539(4) 0.0219(6) 0.1118(5)
C12_2 C 0.0756(5) 0.1199(8) 0.0692(6)
H14_2 H 0.0893 0.1536 0.0438
N18_2 N 0.0765(4) 0.0472(6) 0.0647(6)
C37_2 C 0.3169(6) 0.0267(6) 0.4497(8)
C38_2 C 0.2681(11) 0.0587(11) 0.3666(9)
H34_2 H 0.2681 0.0331 0.3204
H35_2 H 0.2300 0.0537 0.3631
C39_2 C 0.3721(8) 0.0101(11) 0.4533(15)
H36_2 H 0.4023 0.0113 0.5092
H37_2 H 0.3803 0.0471 0.4222
C40_2 C 0.3214(7) 0.0912(8) 0.5044(7)
C41_2 C 0.2713(9) 0.0930(8) 0.5253(9)
H39_2 H 0.2370 0.0722 0.4806
H40_2 H 0.2639 0.1442 0.5345
H41_2 H 0.2816 0.0639 0.5738
C42_2 C 0.3753(9) 0.0993(16) 0.5747(12)
H42_2 H 0.3776 0.1483 0.5980
H43_2 H 0.4060 0.0940 0.5604
H44_2 H 0.3793 0.0613 0.6138
O13_2 O 0.3289(4) 0.2760(5) 0.5122(6)
O14_2 O 0.2407(4) 0.2343(5) 0.4420(4)
C47_2 C 0.2946(6) 0.2280(7) 0.4706(6)
C48_2 C 0.3153(6) 0.1591(7) 0.4520(7)
H50_2 H 0.3546 0.1701 0.4605
C49_2 C 0.2832(12) 0.1325(8) 0.3691(9)
H51_2 H 0.2483 0.1626 0.3400
H52_2 H 0.3068 0.1384 0.3418
Cu10_2 Cu 0.29717(6) 0.36262(7) 0.53850(7)
Cu12_2 Cu 0.19168(6) 0.31690(7) 0.44980(6)
N4_2 N 0.0578(4) 0.9942(5) 0.3012(5)
N5_2 N 0.0331(5) 0.9465(5) 0.3339(5)
C3_2 C 0.1106(7) 0.9737(6) 0.3363(7)
H4_4 H 0.1384 1.0000 0.3284
C4_2 C 0.0745(5) 0.9007(6) 0.3830(7)
H5_2 H 0.0689 0.8631 0.4135
N6_2 N 0.1252(4) 0.9135(5) 0.3847(6)
H13_2 H 0.0498 0.9711 0.1206
C26_2 C 0.2447(6) 0.7651(5) 0.1155(6)
C27_2 C 0.2409(7) 0.7258(5) 0.1864(6)
C28_2 C 0.1829(8) 0.6966(9) 0.1681(9)
H27_2 H 0.1760 0.6465 0.1445
H28_2 H 0.1518 0.7301 0.1326
C29_2 C 0.2673(7) 0.7782(9) 0.2639(10)
C30_2 C 0.2486(6) 0.8514(8) 0.2506(8)
C31_2 C 0.3315(9) 0.7874(11) 0.3031(15)
O9_2 O 0.2399(4) 0.9408(4) 0.4384(4)
O10_2 O 0.3318(3) 0.9109(4) 0.5239(4)
C36_2 C 0.2937(8) 0.9553(6) 0.4731(7)
H38_2 H 0.3707 0.9610 0.4308
O11_2 O 0.2110(4) 0.7999(4) 0.3808(4)
O12_2 O 0.3037(4) 0.7737(4) 0.4545(4)
C43_2 C 0.2575(6) 0.7697(5) 0.3914(7)
C44_2 C 0.2545(6) 0.7285(6) 0.3190(6)
C45_2 C 0.1919(9) 0.6963(10) 0.2580(11)
H45_2 H 0.1882 0.6452 0.2737
H46_2 H 0.1621 0.7270 0.2609
C46_2 C 0.2981(9) 0.6739(11) 0.3417(13)
H47_2 H 0.3124 0.6731 0.3025
H48_2 H 0.2824 0.6254 0.3433
H49_2 H 0.3295 0.6858 0.3949
N19_2 N 0.3822(4) 0.7581(6) 0.6405(6)
O21_2 O 0.1711(4) 0.7760(5) 0.4878(6)
O22_2 O 0.2593(4) 0.7343(5) 0.5580(4)
H54_2 H 0.202506 0.852885 0.227053
H55_2 H 0.26909 0.881821 0.306885
H56_2 H 0.259622 0.876575 0.20749
H57_2 H 0.268902 0.677941 0.201804
H58_2 H 0.343237 0.811436 0.260205
H59_2 H 0.345505 0.823667 0.354907
H60_2 H 0.351896 0.733708 0.32236
N7_2 N 0.9701(3) 0.0883(6) 0.2995(4)
N8_2 N 0.9596(4) 0.0285(6) 0.3299(6)
C5_2 C 0.9573(6) 0.1452(10) 0.3353(7)
H6_2 H 0.9620 0.1954 0.3250
C6_2 C 0.9432(6) 0.0523(13) 0.3866(7)
H7_2 H 0.9366 0.0204 0.4213
N9_2 N 0.9380(6) 0.1256(11) 0.3854(8)
N13_2 N 0.9493(5) 0.1678(5) 0.1435(5)
N14_2 N 0.9746(4) 0.2185(4) 0.1148(5)
C9_2 C 0.8984(6) 0.1937(6) 0.1169(6)
H11_2 H 0.8701 0.1667 0.1230
C10_2 C 0.9358(5) 0.2725(6) 0.0772(6)
H12_2 H 0.9417 0.3142 0.0518
N15_2 N 0.8867(4) 0.2582(5) 0.0812(6)
H21_2 H 0.7847 0.0771 0.0010
H22_2 H 0.7416 0.0395 0.0271
H23_2 H 0.7458 0.1275 0.0251
Cu8_2 Cu 0.80583(5) 0.31547(6) 0.03345(6)
H62_2 H 0.664521 0.015721 0.290792
H63_2 H 0.669809 0.0116083 0.200654
H68_2 H 0.685061 0.00941371 0.196551
H69_2 H 0.677453 0.016328 0.0982312
H70_2 H 0.777996 0.0387695 0.162654
H71_2 H 0.781957 0.0252961 0.258237
C21_2 C 0.7051(6) 0.0180(5) 0.8631(5)
H18_2 H 0.6679 0.0116 0.8132
C22_2 C 0.7505(9) 0.0452(7) 0.8385(9)
H19_2 H 0.7883 0.0236 0.8743
H20_2 H 0.7393 0.0305 0.7826
C23_2 C 0.6995(6) 0.0819(7) 0.9097(6)
C24_2 C 0.7474(7) 0.0815(7) 0.9991(5)
C25_2 C 0.6390(8) 0.0838(12) 0.9075(14)
H24_2 H 0.6365 0.0431 0.9399
H25_2 H 0.6087 0.0785 0.8520
H26_2 H 0.6344 0.1309 0.9292
O7_2 O 0.6772(3) 0.2575(4) 0.9151(4)
O8_2 O 0.7698(3) 0.2383(4) 0.9534(4)
C32_2 C 0.7171(6) 0.2242(6) 0.9126(6)
C33_2 C 0.6995(6) 0.1524(6) 0.8613(6)
C34_2 C 0.6511(7) 0.1678(7) 0.7857(7)
H29_2 H 0.6210 0.1903 0.7944
H30_2 H 0.6369 0.1217 0.7555
H31_2 H 0.6621 0.2018 0.7552
C35_2 C 0.7525(8) 0.1256(7) 0.8458(8)
H32_2 H 0.7490 0.1484 0.7961
H33_2 H 0.7894 0.1411 0.8912
Cu6_2 Cu 0.69695(5) 0.35002(5) 0.97582(6)
B1_2 B 0.9724(5) 0.9513(8) 0.3107(7)
H1_2 H 0.9612 0.9126 0.3383
N1_2 N 0.9446(4) 0.9931(5) 0.1651(5)
N2_2 N 0.9387(4) 0.9428(5) 0.2181(5)
C1_2 C 0.9091(6) 0.9652(6) 0.0961(7)
H2_2 H 0.9002 0.9911 0.0479
C2_2 C 0.9016(5) 0.8884(7) 0.1732(7)
H3_2 H 0.8890 0.8488 0.1937
N3_2 N 0.8856(5) 0.9005(5) 0.0936(6)
O1_2 O 0.7829(4) 0.8923(4) 0.1062(4)
O2_2 O 0.6905(4) 0.8770(4) 0.0488(4)
C13_2 C 0.7343(6) 0.8993(6) 0.1019(6)
C14_2 C 0.7369(6) 0.9416(6) 0.1726(6)
C15_2 C 0.7836(8) 0.9980(12) 0.2081(12)
C16_2 C 0.6843(12) 0.9785(16) 0.1467(16)
C17_2 C 0.7461(10) 0.8941(6) 0.2442(8)
C18_2 C 0.8178(11) 0.8685(14) 0.2934(10)
H15_2 H 0.8258 0.8355 0.2589
H16_2 H 0.8262 0.8429 0.3434
H17_2 H 0.8418 0.9126 0.3056
C19_2 C 0.7281(7) 0.8246(10) 0.2323(10)
C50_2 C 0.7407(6) 0.9053(6) 0.3739(6)
C51_2 C 0.7346(6) 0.9445(6) 0.2992(6)
H53_2 H 0.7631 0.9856 0.3167
C52_2 C 0.6725(8) 0.9797(11) 0.2511(12)
O19_2 O 0.8228(3) 0.7575(4) 0.0849(4)
O20_2 O 0.7302(3) 0.7383(4) 0.0466(4)
H61_2 H 0.64075 0.935816 0.228997
H64_2 H 0.749252 0.794243 0.204169
H65_2 H 0.738144 0.799166 0.289616
H66_2 H 0.68214 0.823384 0.193355
H67_2 H 0.649842 0.9382 0.125355
H72_2 H 0.824762 0.970893 0.22919
O3_2 O 0.7692(5) 0.9360(4) 0.9541(5)
O4_2 O 0.6795(4) 0.9041(4) 0.9006(4)
C20_2 C 0.7181(7) 0.9481(6) 0.9102(6)
N20_2 N 0.6133(4) 0.7582(5) 0.9188(6)
O3_3 O 0.7308(5) 0.4360(4) 0.0459(5)
O4_3 O 0.8205(4) 0.4041(4) 0.0994(4)
C20_3 C 0.7819(7) 0.4481(6) 0.0898(6)
C21_3 C 0.7949(6) 0.5180(5) 0.1369(5)
H18_3 H 0.8321 0.5116 0.1868
C22_3 C 0.7495(9) 0.5452(7) 0.1615(9)
H19_3 H 0.7117 0.5236 0.1257
H20_3 H 0.7607 0.5305 0.2174
C23_3 C 0.8005(6) 0.5819(7) 0.0903(6)
C24_3 C 0.7526(7) 0.5815(7) 0.0009(5)
C25_3 C 0.8610(8) 0.5838(12) 0.0925(14)
H24_3 H 0.8635 0.5431 0.0601
H25_3 H 0.8913 0.5785 0.1480
H26_3 H 0.8656 0.6309 0.0708
C32_3 C 0.7829(6) 0.7242(6) 0.0874(6)
C33_3 C 0.8005(6) 0.6524(6) 0.1387(6)
C34_3 C 0.8489(7) 0.6678(7) 0.2143(7)
H29_3 H 0.8790 0.6903 0.2056
H30_3 H 0.8631 0.6217 0.2445
H31_3 H 0.8379 0.7018 0.2448
C35_3 C 0.7475(8) 0.6256(7) 0.1542(8)
H32_3 H 0.7510 0.6484 0.2039
H33_3 H 0.7106 0.6411 0.1088
O17_2 O 0.6984(4) 0.2976(4) 0.0673(4)
O18_2 O 0.7895(3) 0.2634(4) 0.1108(4)
Co1_3 Co 0.49648(4) 0.58090(8) 0.77893(6)
B1_3 B 0.5276(5) 0.4513(8) 0.6893(7)
H1_3 H 0.5388 0.4126 0.6617
N1_3 N 0.5554(4) 0.4931(5) 0.8349(5)
N2_3 N 0.5613(4) 0.4428(5) 0.7819(5)
C1_3 C 0.5909(6) 0.4652(6) 0.9039(7)
H2_3 H 0.5998 0.4911 0.9521
C2_3 C 0.5984(5) 0.3884(7) 0.8268(7)
H3_3 H 0.6110 0.3488 0.8063
N3_3 N 0.6144(5) 0.4005(5) 0.9064(6)
N4_3 N 0.4422(4) 0.4942(5) 0.6988(5)
N5_3 N 0.4669(5) 0.4465(5) 0.6661(5)
C3_3 C 0.3894(7) 0.4737(6) 0.6637(7)
H4_5 H 0.3616 0.5000 0.6716
C4_3 C 0.4255(5) 0.4007(6) 0.6170(7)
H5_3 H 0.4311 0.3631 0.5865
N6_3 N 0.3748(4) 0.4135(5) 0.6153(6)
N7_3 N 0.5299(3) 0.5883(6) 0.7005(4)
N8_3 N 0.5404(4) 0.5285(6) 0.6701(6)
C5_3 C 0.5427(6) 0.6452(10) 0.6647(7)
H6_3 H 0.5380 0.6954 0.6750
C6_3 C 0.5568(6) 0.5523(13) 0.6134(7)
H7_3 H 0.5634 0.5204 0.5787
N9_3 N 0.5620(6) 0.6256(11) 0.6146(8)
B2_3 B 0.4613(5) 0.7130(7) 0.8573(6)
H8_3 H 0.4491 0.7540 0.8811
N10_3 N 0.4362(4) 0.6654(5) 0.7187(5)
N11_3 N 0.4300(4) 0.7185(4) 0.7657(4)
C7_3 C 0.4051(5) 0.6904(6) 0.6439(7)
H9_3 H 0.3994 0.6633 0.5977
C8_3 C 0.3976(6) 0.7740(6) 0.7176(6)
H10_3 H 0.3873 0.8175 0.7356
N13_3 N 0.5507(5) 0.6678(5) 0.8565(5)
N14_3 N 0.5254(4) 0.7185(4) 0.8852(5)
C9_3 C 0.6016(6) 0.6937(6) 0.8831(6)
H11_3 H 0.6299 0.6667 0.8770
C10_3 C 0.5642(5) 0.7725(6) 0.9228(6)
H12_3 H 0.5583 0.8142 0.9482
N16_3 N 0.4617(3) 0.5772(5) 0.8563(4)
N17_3 N 0.4486(4) 0.6387(5) 0.8830(4)
C11_3 C 0.4461(4) 0.5219(6) 0.8882(5)
H13_3 H 0.4502 0.4711 0.8794
C12_3 C 0.4244(5) 0.6199(8) 0.9308(6)
H14_3 H 0.4107 0.6536 0.9562
N18_3 N 0.4235(4) 0.5472(6) 0.9353(6)
O1_3 O 0.7171(4) 0.3923(4) 0.8938(4)
O2_3 O 0.8095(4) 0.3770(4) 0.9512(4)
C13_3 C 0.7657(6) 0.3993(6) 0.8981(6)
C14_3 C 0.7631(6) 0.4416(6) 0.8274(6)
C15_3 C 0.7164(8) 0.4980(12) 0.7919(12)
C16_3 C 0.8157(12) 0.4785(16) 0.8533(16)
C17_3 C 0.7539(10) 0.3941(6) 0.7558(8)
C18_3 C 0.6822(11) 0.3685(14) 0.7066(10)
H15_3 H 0.6742 0.3355 0.7411
H16_3 H 0.6738 0.3429 0.6566
H17_3 H 0.6582 0.4126 0.6944
C19_3 C 0.7719(7) 0.3246(10) 0.7677(10)
H21_3 H 0.7153 0.5771 0.9990
H22_3 H 0.7584 0.5395 0.9729
H23_3 H 0.7542 0.6275 0.9749
O5_2 O 0.3016(4) 0.2976(4) 0.9327(4)
O6_2 O 0.2105(3) 0.2634(4) 0.8892(4)
C26_3 C 0.2553(6) 0.2651(5) 0.8845(6)
C27_3 C 0.2591(7) 0.2258(5) 0.8136(6)
C28_3 C 0.3171(8) 0.1966(9) 0.8319(9)
H27_3 H 0.3240 0.1465 0.8555
H28_3 H 0.3482 0.2301 0.8674
C29_3 C 0.2327(7) 0.2782(9) 0.7361(10)
C30_3 C 0.2514(6) 0.3514(8) 0.7494(8)
C31_3 C 0.1685(9) 0.2874(11) 0.6969(15)
O9_3 O 0.2601(4) 0.4408(4) 0.5616(4)
O10_3 O 0.1682(3) 0.4109(4) 0.4761(4)
C36_3 C 0.2063(8) 0.4553(6) 0.5269(7)
C37_3 C 0.1831(6) 0.5267(6) 0.5503(8)
C38_3 C 0.2319(11) 0.5587(11) 0.6334(9)
H34_3 H 0.2319 0.5331 0.6796
H35_3 H 0.2700 0.5537 0.6369
C39_3 C 0.1279(8) 0.5101(11) 0.5467(15)
H36_3 H 0.0977 0.5113 0.4908
H37_3 H 0.1197 0.5471 0.5778
H38_3 H 0.1293 0.4610 0.5692
C40_3 C 0.1786(7) 0.5912(8) 0.4956(7)
C41_3 C 0.2287(9) 0.5930(8) 0.4747(9)
H39_3 H 0.2630 0.5722 0.5194
H40_3 H 0.2361 0.6442 0.4655
H41_3 H 0.2184 0.5639 0.4262
C42_3 C 0.1247(9) 0.5993(16) 0.4253(12)
H42_3 H 0.1224 0.6483 0.4020
H43_3 H 0.0940 0.5940 0.4396
H44_3 H 0.1207 0.5613 0.3862
O11_3 O 0.2890(4) 0.2999(4) 0.6192(4)
O12_3 O 0.1963(4) 0.2737(4) 0.5455(4)
C43_3 C 0.2425(6) 0.2697(5) 0.6086(7)
C44_3 C 0.2455(6) 0.2285(6) 0.6810(6)
C45_3 C 0.3081(9) 0.1963(10) 0.7420(11)
H45_3 H 0.3118 0.1452 0.7263
H46_3 H 0.3379 0.2270 0.7391
C46_3 C 0.2019(9) 0.1739(11) 0.6583(13)
H47_3 H 0.1876 0.1731 0.6975
H48_3 H 0.2176 0.1254 0.6567
H49_3 H 0.1705 0.1858 0.6051
C47_3 C 0.2054(6) 0.7280(7) 0.5294(6)
C48_3 C 0.1847(6) 0.6591(7) 0.5480(7)
H50_3 H 0.1454 0.6701 0.5395
C49_3 C 0.2168(12) 0.6325(8) 0.6309(9)
H51_3 H 0.2517 0.6626 0.6600
H52_3 H 0.1932 0.6384 0.6582
O15_2 O 0.7150(3) 0.4123(4) 0.5624(4)
O16_2 O 0.8038(4) 0.3683(5) 0.6375(4)
C50_3 C 0.7593(6) 0.4053(6) 0.6261(6)
C51_3 C 0.7654(6) 0.4445(6) 0.7008(6)
H53_3 H 0.7369 0.4856 0.6833
C52_3 C 0.8275(8) 0.4797(11) 0.7489(12)
O23_2 O 0.2850(3) 0.4123(4) 0.4376(4)
O24_2 O 0.1962(4) 0.3683(5) 0.3625(4)
H54_3 H 0.297494 0.352885 0.772947
H55_3 H 0.23091 0.381821 0.693115
H56_3 H 0.240378 0.376575 0.79251
H57_3 H 0.231098 0.177941 0.798196
H58_3 H 0.156763 0.311436 0.739795
H59_3 H 0.154495 0.323667 0.645093
H60_3 H 0.148104 0.233708 0.67764
H61_3 H 0.85925 0.435816 0.771003
H62_3 H 0.835479 0.515721 0.709208
H63_3 H 0.830191 0.511608 0.799346
H64_3 H 0.750748 0.294243 0.795831
H65_3 H 0.761856 0.299166 0.710384
H66_3 H 0.81786 0.323384 0.806645
H67_3 H 0.850158 0.4382 0.874645
H68_3 H 0.814939 0.509414 0.803449
H69_3 H 0.822547 0.516328 0.901769
H70_3 H 0.722004 0.538769 0.837346
H71_3 H 0.718043 0.525296 0.741763
H72_3 H 0.675238 0.470893 0.77081
Co1_4 Co 0.50352(4) 0.58090(8) 0.22107(6)
B1_4 B 0.4724(5) 0.4513(8) 0.3107(7)
H1_4 H 0.4612 0.4126 0.3383
N1_4 N 0.4446(4) 0.4931(5) 0.1651(5)
N2_4 N 0.4387(4) 0.4428(5) 0.2181(5)
C1_4 C 0.4091(6) 0.4652(6) 0.0961(7)
H2_4 H 0.4002 0.4911 0.0479
C2_4 C 0.4016(5) 0.3884(7) 0.1732(7)
H3_4 H 0.3890 0.3488 0.1937
N3_4 N 0.3856(5) 0.4005(5) 0.0936(6)
N4_4 N 0.5578(4) 0.4942(5) 0.3012(5)
N5_4 N 0.5331(5) 0.4465(5) 0.3339(5)
C3_4 C 0.6106(7) 0.4737(6) 0.3363(7)
H4_6 H 0.6384 0.5000 0.3284
C4_4 C 0.5745(5) 0.4007(6) 0.3830(7)
H5_4 H 0.5689 0.3631 0.4135
N6_4 N 0.6252(4) 0.4135(5) 0.3847(6)
N7_4 N 0.4701(3) 0.5883(6) 0.2995(4)
N8_4 N 0.4596(4) 0.5285(6) 0.3299(6)
C5_4 C 0.4573(6) 0.6452(10) 0.3353(7)
H6_4 H 0.4620 0.6954 0.3250
C6_4 C 0.4432(6) 0.5523(13) 0.3866(7)
H7_4 H 0.4366 0.5204 0.4213
N9_4 N 0.4380(6) 0.6256(11) 0.3854(8)
B2_4 B 0.5387(5) 0.7130(7) 0.1427(6)
H8_4 H 0.5509 0.7540 0.1189
N10_4 N 0.5638(4) 0.6654(5) 0.2813(5)
N11_4 N 0.5700(4) 0.7185(4) 0.2343(4)
C7_4 C 0.5949(5) 0.6904(6) 0.3561(7)
H9_4 H 0.6006 0.6633 0.4023
C8_4 C 0.6024(6) 0.7740(6) 0.2824(6)
H10_4 H 0.6127 0.8175 0.2644
N13_4 N 0.4493(5) 0.6678(5) 0.1435(5)
N14_4 N 0.4746(4) 0.7185(4) 0.1148(5)
C9_4 C 0.3984(6) 0.6937(6) 0.1169(6)
H11_4 H 0.3701 0.6667 0.1230
C10_4 C 0.4358(5) 0.7725(6) 0.0772(6)
H12_4 H 0.4417 0.8142 0.0518
N16_4 N 0.5383(3) 0.5772(5) 0.1437(4)
N17_4 N 0.5514(4) 0.6387(5) 0.1170(4)
C11_4 C 0.5539(4) 0.5219(6) 0.1118(5)
H13_4 H 0.5498 0.4711 0.1206
C12_4 C 0.5756(5) 0.6199(8) 0.0692(6)
H14_4 H 0.5893 0.6536 0.0438
N18_4 N 0.5765(4) 0.5472(6) 0.0647(6)
O1_4 O 0.2829(4) 0.3923(4) 0.1062(4)
O2_4 O 0.1905(4) 0.3770(4) 0.0488(4)
C13_4 C 0.2343(6) 0.3993(6) 0.1019(6)
C14_4 C 0.2369(6) 0.4416(6) 0.1726(6)
C15_4 C 0.2836(8) 0.4980(12) 0.2081(12)
C16_4 C 0.1843(12) 0.4785(16) 0.1467(16)
C17_4 C 0.2461(10) 0.3941(6) 0.2442(8)
C18_4 C 0.3178(11) 0.3685(14) 0.2934(10)
H15_4 H 0.3258 0.3355 0.2589
H16_4 H 0.3262 0.3429 0.3434
H17_4 H 0.3418 0.4126 0.3056
C19_4 C 0.2281(7) 0.3246(10) 0.2323(10)
H21_4 H 0.2847 0.5771 0.0010
H22_4 H 0.2416 0.5395 0.0271
H23_4 H 0.2458 0.6275 0.0251
C26_4 C 0.7447(6) 0.2651(5) 0.1155(6)
C27_4 C 0.7409(7) 0.2258(5) 0.1864(6)
C28_4 C 0.6829(8) 0.1966(9) 0.1681(9)
H27_4 H 0.6760 0.1465 0.1445
H28_4 H 0.6518 0.2301 0.1326
C29_4 C 0.7673(7) 0.2782(9) 0.2639(10)
C30_4 C 0.7486(6) 0.3514(8) 0.2506(8)
C31_4 C 0.8315(9) 0.2874(11) 0.3031(15)
O9_4 O 0.7399(4) 0.4408(4) 0.4384(4)
O10_4 O 0.8318(3) 0.4109(4) 0.5239(4)
C36_4 C 0.7937(8) 0.4553(6) 0.4731(7)
C37_4 C 0.8169(6) 0.5267(6) 0.4497(8)
C38_4 C 0.7681(11) 0.5587(11) 0.3666(9)
H34_4 H 0.7681 0.5331 0.3204
H35_4 H 0.7300 0.5537 0.3631
C39_4 C 0.8721(8) 0.5101(11) 0.4533(15)
H36_4 H 0.9023 0.5113 0.5092
H37_4 H 0.8803 0.5471 0.4222
H38_4 H 0.8707 0.4610 0.4308
C40_4 C 0.8214(7) 0.5912(8) 0.5044(7)
C41_4 C 0.7713(9) 0.5930(8) 0.5253(9)
H39_4 H 0.7370 0.5722 0.4806
H40_4 H 0.7639 0.6442 0.5345
H41_4 H 0.7816 0.5639 0.5738
C42_4 C 0.8753(9) 0.5993(16) 0.5747(12)
H42_4 H 0.8776 0.6483 0.5980
H43_4 H 0.9060 0.5940 0.5604
H44_4 H 0.8793 0.5613 0.6138
O11_4 O 0.7110(4) 0.2999(4) 0.3808(4)
O12_4 O 0.8037(4) 0.2737(4) 0.4545(4)
C43_4 C 0.7575(6) 0.2697(5) 0.3914(7)
C44_4 C 0.7545(6) 0.2285(6) 0.3190(6)
C45_4 C 0.6919(9) 0.1963(10) 0.2580(11)
H45_4 H 0.6882 0.1452 0.2737
H46_4 H 0.6621 0.2270 0.2609
C46_4 C 0.7981(9) 0.1739(11) 0.3417(13)
H47_4 H 0.8124 0.1731 0.3025
H48_4 H 0.7824 0.1254 0.3433
H49_4 H 0.8295 0.1858 0.3949
C47_4 C 0.7946(6) 0.7280(7) 0.4706(6)
C48_4 C 0.8153(6) 0.6591(7) 0.4520(7)
H50_4 H 0.8546 0.6701 0.4605
C49_4 C 0.7832(12) 0.6325(8) 0.3691(9)
H51_4 H 0.7483 0.6626 0.3400
H52_4 H 0.8068 0.6384 0.3418
C50_4 C 0.2407(6) 0.4053(6) 0.3739(6)
C51_4 C 0.2346(6) 0.4445(6) 0.2992(6)
H53_4 H 0.2631 0.4856 0.3167
C52_4 C 0.1725(8) 0.4797(11) 0.2511(12)
H54_4 H 0.702506 0.352885 0.227053
H55_4 H 0.76909 0.381821 0.306885
H56_4 H 0.759622 0.376575 0.20749
H57_4 H 0.768902 0.177941 0.201804
H58_4 H 0.843237 0.311436 0.260205
H59_4 H 0.845505 0.323667 0.354907
H60_4 H 0.851896 0.233708 0.32236
H61_4 H 0.14075 0.435816 0.228997
H62_4 H 0.164521 0.515721 0.290792
H63_4 H 0.169809 0.511608 0.200654
H64_4 H 0.249252 0.294243 0.204169
H65_4 H 0.238144 0.299166 0.289616
H66_4 H 0.18214 0.323384 0.193355
H67_4 H 0.149842 0.4382 0.125355
H68_4 H 0.185061 0.509414 0.196551
H69_4 H 0.177453 0.516328 0.0982312
H70_4 H 0.277996 0.538769 0.162654
H71_4 H 0.281957 0.525296 0.258237
H72_4 H 0.324762 0.470893 0.22919
O3_4 O 0.2692(5) 0.4360(4) 0.9541(5)
O4_4 O 0.1795(4) 0.4041(4) 0.9006(4)
C20_4 C 0.2181(7) 0.4481(6) 0.9102(6)
C21_4 C 0.2051(6) 0.5180(5) 0.8631(5)
H18_4 H 0.1679 0.5116 0.8132
C22_4 C 0.2505(9) 0.5452(7) 0.8385(9)
H19_4 H 0.2883 0.5236 0.8743
H20_4 H 0.2393 0.5305 0.7826
C23_4 C 0.1995(6) 0.5819(7) 0.9097(6)
C24_4 C 0.2474(7) 0.5815(7) 0.9991(5)
C25_4 C 0.1390(8) 0.5838(12) 0.9075(14)
H24_4 H 0.1365 0.5431 0.9399
H25_4 H 0.1087 0.5785 0.8520
H26_4 H 0.1344 0.6309 0.9292
C32_4 C 0.2171(6) 0.7242(6) 0.9126(6)
C33_4 C 0.1995(6) 0.6524(6) 0.8613(6)
C34_4 C 0.1511(7) 0.6678(7) 0.7857(7)
H29_4 H 0.1210 0.6903 0.7944
H30_4 H 0.1369 0.6217 0.7555
H31_4 H 0.1621 0.7018 0.7552
C35_4 C 0.2525(8) 0.6256(7) 0.8458(8)
H32_4 H 0.2490 0.6484 0.7961
H33_4 H 0.2894 0.6411 0.8912
loop_
_geom_bond_atom_site_label_1
_geom_bond_atom_site_label_2
_geom_bond_site_symmetry_1
_geom_bond_site_symmetry_2
H18 C21 1_555 1_555
C22 C21 1_555 1_555
H19 C22 1_555 1_555
H20 C22 1_555 1_555
C23 C21 1_555 1_555
C24 C23 1_555 1_555
C25 C23 1_555 1_555
H24 C25 1_555 1_555
H25 C25 1_555 1_555
H26 C25 1_555 1_555
O7 C32 1_555 1_555
O8 C32 1_555 1_555
C32 C33 1_555 1_555
C33 C23 1_555 1_555
C34 C33 1_555 1_555
H29 C34 1_555 1_555
H30 C34 1_555 1_555
H31 C34 1_555 1_555
C35 C22 1_555 1_555
H32 C35 1_555 1_555
H33 C35 1_555 1_555
Cu6 O7 1_555 1_555
C33 C35 1_555 1_555
C5 N7 1_555 1_555
H6 C5 1_555 1_555
C6 N8 1_555 1_555
H7 C6 1_555 1_555
N9 C5 1_555 1_555
C9 N13 1_555 1_555
H11 C9 1_555 1_555
C10 N14 1_555 1_555
H12 C10 1_555 1_555
N15 C9 1_555 1_555
Cu8 N15 1_555 1_555
N7 N8 1_555 1_555
C6 N9 1_555 1_555
N13 N14 1_555 1_555
C10 N15 1_555 1_555
O4 Cu2 1_555 1_555
C20 O3 1_555 1_555
N20 Cu2 1_555 1_555
O18 Cu2 1_555 1_555
O4 C20 1_555 1_555
B1 H1 1_555 1_555
N1 N2 1_555 1_555
N2 B1 1_555 1_555
C1 N1 1_555 1_555
H2 C1 1_555 1_555
C2 N2 1_555 1_555
H3 C2 1_555 1_555
N3 C1 1_555 1_555
Cu1 N3 1_555 1_555
O1 Cu1 1_555 1_555
C13 O1 1_555 1_555
C14 C13 1_555 1_555
C15 C14 1_555 1_555
C16 C14 1_555 1_555
C17 C14 1_555 1_555
C18 C17 1_555 1_555
H15 C18 1_555 1_555
H16 C18 1_555 1_555
H17 C18 1_555 1_555
C19 C17 1_555 1_555
O15 C50 1_555 1_555
O16 C50 1_555 1_555
C50 C51 1_555 1_555
C51 C17 1_555 1_555
H53 C51 1_555 1_555
C52 C51 1_555 1_555
O19 Cu1 1_555 1_555
Cu9 O15 1_555 1_555
Cu11 O16 1_555 1_555
C2 N3 1_555 1_555
O2 C13 1_555 1_555
Cu9 Cu11 1_555 1_555
C52 H61 1_555 1_555
C19 H64 1_555 1_555
C19 H65 1_555 1_555
C19 H66 1_555 1_555
C16 H67 1_555 1_555
C15 H72 1_555 1_555
B2 H8 1_555 1_555
N10 Co1 1_555 1_555
N11 B2 1_555 1_555
C7 N10 1_555 1_555
H9 C7 1_555 1_555
C8 N11 1_555 1_555
H10 C8 1_555 1_555
N12 C7 1_555 1_555
N16 Co1 1_555 1_555
N17 B2 1_555 1_555
C11 N16 1_555 1_555
C12 N17 1_555 1_555
H14 C12 1_555 1_555
N18 C11 1_555 1_555
C38 C37 1_555 1_555
H34 C38 1_555 1_555
H35 C38 1_555 1_555
C39 C37 1_555 1_555
H36 C39 1_555 1_555
H37 C39 1_555 1_555
C40 C37 1_555 1_555
C41 C40 1_555 1_555
H39 C41 1_555 1_555
H40 C41 1_555 1_555
H41 C41 1_555 1_555
C42 C40 1_555 1_555
H42 C42 1_555 1_555
H43 C42 1_555 1_555
H44 C42 1_555 1_555
O13 C47 1_555 1_555
O14 C47 1_555 1_555
C47 C48 1_555 1_555
C48 C40 1_555 1_555
H50 C48 1_555 1_555
C49 C38 1_555 1_555
H51 C49 1_555 1_555
H52 C49 1_555 1_555
Cu10 O13 1_555 1_555
Cu12 N12 1_555 1_555
N10 N11 1_555 1_555
C8 N12 1_555 1_555
N16 N17 1_555 1_555
C12 N18 1_555 1_555
O14 Cu12 1_555 1_555
C48 C49 1_555 1_555
Cu10 Cu12 1_555 1_555
C3 N4 1_555 1_555
H4_2 C3 1_555 1_555
C4 N5 1_555 1_555
H5 C4 1_555 1_555
N6 C3 1_555 1_555
O5 C26 1_555 1_555
O6 C26 1_555 1_555
C26 C27 1_555 1_555
C27 C28 1_555 1_555
C28 H27 1_555 1_555
H28 C28 1_555 1_555
C29 C27 1_555 1_555
C30 C29 1_555 1_555
C31 C29 1_555 1_555
Cu3 N6 1_555 1_555
Cu4 Cu3 1_555 1_555
O9 Cu3 1_555 1_555
O10 Cu4 1_555 1_555
C36 O9 1_555 1_555
O11 Cu3 1_555 1_555
O12 Cu4 1_555 1_555
C43 O11 1_555 1_555
C44 C29 1_555 1_555
C45 C28 1_555 1_555
H45 C45 1_555 1_555
H46 C45 1_555 1_555
C46 C44 1_555 1_555
H47 C46 1_555 1_555
H48 C46 1_555 1_555
H49 C46 1_555 1_555
N19 Cu4 1_555 1_555
Cu7 O6 1_555 1_555
O21 Cu3 1_555 1_555
O22 Cu4 1_555 1_555
O23 Cu3 1_555 1_555
O24 Cu4 1_555 1_555
N4 N5 1_555 1_555
C4 N6 1_555 1_555
O10 C36 1_555 1_555
O12 C43 1_555 1_555
C43 C44 1_555 1_555
C44 C45 1_555 1_555
C30 H54 1_555 1_555
C30 H55 1_555 1_555
C30 H56 1_555 1_555
C27 H57 1_555 1_555
C31 H58 1_555 1_555
C31 H59 1_555 1_555
C31 H60 1_555 1_555
B2_2 H8_2 1_555 1_555
N10_2 Co1_2 1_555 1_555
N11_2 B2_2 1_555 1_555
C7_2 N10_2 1_555 1_555
H9_2 C7_2 1_555 1_555
C8_2 N11_2 1_555 1_555
H10_2 C8_2 1_555 1_555
N12_2 C7_2 1_555 1_555
N16_2 Co1_2 1_555 1_555
N17_2 B2_2 1_555 1_555
C11_2 N16_2 1_555 1_555
C12_2 N17_2 1_555 1_555
H14_2 C12_2 1_555 1_555
N18_2 C11_2 1_555 1_555
C38_2 C37_2 1_555 1_555
H34_2 C38_2 1_555 1_555
H35_2 C38_2 1_555 1_555
C39_2 C37_2 1_555 1_555
H36_2 C39_2 1_555 1_555
H37_2 C39_2 1_555 1_555
C40_2 C37_2 1_555 1_555
C41_2 C40_2 1_555 1_555
H39_2 C41_2 1_555 1_555
H40_2 C41_2 1_555 1_555
H41_2 C41_2 1_555 1_555
C42_2 C40_2 1_555 1_555
H42_2 C42_2 1_555 1_555
H43_2 C42_2 1_555 1_555
H44_2 C42_2 1_555 1_555
O13_2 C47_2 1_555 1_555
O14_2 C47_2 1_555 1_555
C47_2 C48_2 1_555 1_555
C48_2 C40_2 1_555 1_555
H50_2 C48_2 1_555 1_555
C49_2 C38_2 1_555 1_555
H51_2 C49_2 1_555 1_555
H52_2 C49_2 1_555 1_555
Cu10_2 O13_2 1_555 1_555
Cu12_2 N12_2 1_555 1_555
N10_2 N11_2 1_555 1_555
C8_2 N12_2 1_555 1_555
N16_2 N17_2 1_555 1_555
C12_2 N18_2 1_555 1_555
O14_2 Cu12_2 1_555 1_555
C48_2 C49_2 1_555 1_555
Cu10_2 Cu12_2 1_555 1_555
C3_2 N4_2 1_555 1_555
H4_4 C3_2 1_555 1_555
C4_2 N5_2 1_555 1_555
H5_2 C4_2 1_555 1_555
N6_2 C3_2 1_555 1_555
O17 C26_2 1_555 1_555
O18 C26_2 1_555 1_555
C26_2 C27_2 1_555 1_555
C27_2 C28_2 1_555 1_555
C28_2 H27_2 1_555 1_555
H28_2 C28_2 1_555 1_555
C29_2 C27_2 1_555 1_555
C30_2 C29_2 1_555 1_555
C31_2 C29_2 1_555 1_555
Cu9 N6_2 1_555 1_555
O9_2 Cu9 1_555 1_555
O10_2 Cu11 1_555 1_555
C36_2 O9_2 1_555 1_555
O11_2 Cu9 1_555 1_555
O12_2 Cu11 1_555 1_555
C43_2 O11_2 1_555 1_555
C44_2 C29_2 1_555 1_555
C45_2 C28_2 1_555 1_555
H45_2 C45_2 1_555 1_555
H46_2 C45_2 1_555 1_555
C46_2 C44_2 1_555 1_555
H47_2 C46_2 1_555 1_555
H48_2 C46_2 1_555 1_555
H49_2 C46_2 1_555 1_555
N19_2 Cu11 1_555 1_555
O21_2 Cu9 1_555 1_555
O22_2 Cu11 1_555 1_555
N4_2 N5_2 1_555 1_555
C4_2 N6_2 1_555 1_555
O10_2 C36_2 1_555 1_555
O12_2 C43_2 1_555 1_555
C43_2 C44_2 1_555 1_555
C44_2 C45_2 1_555 1_555
C30_2 H54_2 1_555 1_555
C30_2 H55_2 1_555 1_555
C30_2 H56_2 1_555 1_555
C27_2 H57_2 1_555 1_555
C31_2 H58_2 1_555 1_555
C31_2 H59_2 1_555 1_555
C31_2 H60_2 1_555 1_555
C5_2 N7_2 1_555 1_555
H6_2 C5_2 1_555 1_555
C6_2 N8_2 1_555 1_555
H7_2 C6_2 1_555 1_555
N9_2 C5_2 1_555 1_555
C9_2 N13_2 1_555 1_555
H11_2 C9_2 1_555 1_555
C10_2 N14_2 1_555 1_555
H12_2 C10_2 1_555 1_555
N15_2 C9_2 1_555 1_555
Cu8_2 N15_2 1_555 1_555
N7_2 N8_2 1_555 1_555
C6_2 N9_2 1_555 1_555
N13_2 N14_2 1_555 1_555
C10_2 N15_2 1_555 1_555
H18_2 C21_2 1_555 1_555
C22_2 C21_2 1_555 1_555
H19_2 C22_2 1_555 1_555
H20_2 C22_2 1_555 1_555
C23_2 C21_2 1_555 1_555
C24_2 C23_2 1_555 1_555
C25_2 C23_2 1_555 1_555
H24_2 C25_2 1_555 1_555
H25_2 C25_2 1_555 1_555
H26_2 C25_2 1_555 1_555
O7_2 C32_2 1_555 1_555
O8_2 C32_2 1_555 1_555
C32_2 C33_2 1_555 1_555
C33_2 C23_2 1_555 1_555
C34_2 C33_2 1_555 1_555
H29_2 C34_2 1_555 1_555
H30_2 C34_2 1_555 1_555
H31_2 C34_2 1_555 1_555
C35_2 C22_2 1_555 1_555
H32_2 C35_2 1_555 1_555
H33_2 C35_2 1_555 1_555
Cu6_2 O7_2 1_555 1_555
C33_2 C35_2 1_555 1_555
B1_2 H1_2 1_555 1_555
N1_2 N2_2 1_555 1_555
N2_2 B1_2 1_555 1_555
C1_2 N1_2 1_555 1_555
H2_2 C1_2 1_555 1_555
C2_2 N2_2 1_555 1_555
H3_2 C2_2 1_555 1_555
N3_2 C1_2 1_555 1_555
Cu5 N3_2 1_555 1_555
O1_2 Cu5 1_555 1_555
C13_2 O1_2 1_555 1_555
C14_2 C13_2 1_555 1_555
C15_2 C14_2 1_555 1_555
C16_2 C14_2 1_555 1_555
C17_2 C14_2 1_555 1_555
C18_2 C17_2 1_555 1_555
H15_2 C18_2 1_555 1_555
H16_2 C18_2 1_555 1_555
H17_2 C18_2 1_555 1_555
C19_2 C17_2 1_555 1_555
O23 C50_2 1_555 1_555
O24 C50_2 1_555 1_555
C50_2 C51_2 1_555 1_555
C51_2 C17_2 1_555 1_555
H53_2 C51_2 1_555 1_555
C52_2 C51_2 1_555 1_555
O19_2 Cu5 1_555 1_555
C2_2 N3_2 1_555 1_555
O2_2 C13_2 1_555 1_555
C52_2 H61_2 1_555 1_555
C19_2 H64_2 1_555 1_555
C19_2 H65_2 1_555 1_555
C19_2 H66_2 1_555 1_555
C16_2 H67_2 1_555 1_555
C15_2 H72_2 1_555 1_555
O4_2 Cu7 1_555 1_555
C20_2 O3_2 1_555 1_555
N20_2 Cu7 1_555 1_555
O4_2 C20_2 1_555 1_555
O4_3 Cu8_2 1_555 1_555
C20_3 O3_3 1_555 1_555
C21_3 C20_3 1_555 1_555
H18_3 C21_3 1_555 1_555
C22_3 C21_3 1_555 1_555
H19_3 C22_3 1_555 1_555
H20_3 C22_3 1_555 1_555
C23_3 C21_3 1_555 1_555
C24_3 C23_3 1_555 1_555
C25_3 C23_3 1_555 1_555
H24_3 C25_3 1_555 1_555
H25_3 C25_3 1_555 1_555
H26_3 C25_3 1_555 1_555
O19_2 C32_3 1_555 1_555
O20_2 C32_3 1_555 1_555
C32_3 C33_3 1_555 1_555
C33_3 C23_3 1_555 1_555
C34_3 C33_3 1_555 1_555
H29_3 C34_3 1_555 1_555
H30_3 C34_3 1_555 1_555
H31_3 C34_3 1_555 1_555
C35_3 C22_3 1_555 1_555
H32_3 C35_3 1_555 1_555
H33_3 C35_3 1_555 1_555
O18_2 Cu8_2 1_555 1_555
O4_3 C20_3 1_555 1_555
C33_3 C35_3 1_555 1_555
Co1_3 N1_3 1_555 1_555
B1_3 H1_3 1_555 1_555
N1_3 N2_3 1_555 1_555
N2_3 B1_3 1_555 1_555
C1_3 N1_3 1_555 1_555
H2_3 C1_3 1_555 1_555
C2_3 N2_3 1_555 1_555
H3_3 C2_3 1_555 1_555
N3_3 C1_3 1_555 1_555
N4_3 Co1_3 1_555 1_555
N5_3 B1_3 1_555 1_555
C3_3 N4_3 1_555 1_555
H4_5 C3_3 1_555 1_555
C4_3 N5_3 1_555 1_555
H5_3 C4_3 1_555 1_555
N6_3 C3_3 1_555 1_555
N7_3 Co1_3 1_555 1_555
N8_3 B1_3 1_555 1_555
C5_3 N7_3 1_555 1_555
H6_3 C5_3 1_555 1_555
C6_3 N8_3 1_555 1_555
H7_3 C6_3 1_555 1_555
N9_3 C5_3 1_555 1_555
B2_3 H8_3 1_555 1_555
N10_3 Co1_3 1_555 1_555
N11_3 B2_3 1_555 1_555
C7_3 N10_3 1_555 1_555
H9_3 C7_3 1_555 1_555
C8_3 N11_3 1_555 1_555
H10_3 C8_3 1_555 1_555
N19_2 C7_3 1_555 1_555
N13_3 Co1_3 1_555 1_555
N14_3 B2_3 1_555 1_555
C9_3 N13_3 1_555 1_555
H11_3 C9_3 1_555 1_555
C10_3 N14_3 1_555 1_555
H12_3 C10_3 1_555 1_555
N20_2 C9_3 1_555 1_555
N16_3 Co1_3 1_555 1_555
N17_3 B2_3 1_555 1_555
C11_3 N16_3 1_555 1_555
H13_3 C11_3 1_555 1_555
C12_3 N17_3 1_555 1_555
H14_3 C12_3 1_555 1_555
N18_3 C11_3 1_555 1_555
Cu6_2 N3_3 1_555 1_555
O1_3 Cu6_2 1_555 1_555
C13_3 O1_3 1_555 1_555
C14_3 C13_3 1_555 1_555
C15_3 C14_3 1_555 1_555
C16_3 C14_3 1_555 1_555
C17_3 C14_3 1_555 1_555
C18_3 C17_3 1_555 1_555
H15_3 C18_3 1_555 1_555
H16_3 C18_3 1_555 1_555
H17_3 C18_3 1_555 1_555
C19_3 C17_3 1_555 1_555
O5_2 C26_3 1_555 1_555
O6_2 C26_3 1_555 1_555
C26_3 C27_3 1_555 1_555
C27_3 C28_3 1_555 1_555
C28_3 H27_3 1_555 1_555
H28_3 C28_3 1_555 1_555
C29_3 C27_3 1_555 1_555
C30_3 C29_3 1_555 1_555
C31_3 C29_3 1_555 1_555
Cu10_2 N6_3 1_555 1_555
O9_3 Cu10_2 1_555 1_555
O10_3 Cu12_2 1_555 1_555
C36_3 O9_3 1_555 1_555
C37_3 C36_3 1_555 1_555
C38_3 C37_3 1_555 1_555
H34_3 C38_3 1_555 1_555
H35_3 C38_3 1_555 1_555
C39_3 C37_3 1_555 1_555
H36_3 C39_3 1_555 1_555
H37_3 C39_3 1_555 1_555
H38_3 C39_3 1_555 1_555
C40_3 C37_3 1_555 1_555
C41_3 C40_3 1_555 1_555
H39_3 C41_3 1_555 1_555
H40_3 C41_3 1_555 1_555
H41_3 C41_3 1_555 1_555
C42_3 C40_3 1_555 1_555
H42_3 C42_3 1_555 1_555
H43_3 C42_3 1_555 1_555
H44_3 C42_3 1_555 1_555
O11_3 Cu10_2 1_555 1_555
O12_3 Cu12_2 1_555 1_555
C43_3 O11_3 1_555 1_555
C44_3 C29_3 1_555 1_555
C45_3 C28_3 1_555 1_555
H45_3 C45_3 1_555 1_555
H46_3 C45_3 1_555 1_555
C46_3 C44_3 1_555 1_555
H47_3 C46_3 1_555 1_555
H48_3 C46_3 1_555 1_555
H49_3 C46_3 1_555 1_555
O21_2 C47_3 1_555 1_555
O22_2 C47_3 1_555 1_555
C47_3 C48_3 1_555 1_555
C48_3 C40_3 1_555 1_555
H50_3 C48_3 1_555 1_555
C49_3 C38_3 1_555 1_555
H51_3 C49_3 1_555 1_555
H52_3 C49_3 1_555 1_555
O15_2 C50_3 1_555 1_555
O16_2 C50_3 1_555 1_555
C50_3 C51_3 1_555 1_555
C51_3 C17_3 1_555 1_555
H53_3 C51_3 1_555 1_555
C52_3 C51_3 1_555 1_555
Cu8 O6_2 1_555 1_555
Cu10 O15_2 1_555 1_555
Cu12 O16_2 1_555 1_555
O23_2 Cu10_2 1_555 1_555
O24_2 Cu12_2 1_555 1_555
C2_3 N3_3 1_555 1_555
N4_3 N5_3 1_555 1_555
C4_3 N6_3 1_555 1_555
N7_3 N8_3 1_555 1_555
C6_3 N9_3 1_555 1_555
N10_3 N11_3 1_555 1_555
C8_3 N19_2 1_555 1_555
N13_3 N14_3 1_555 1_555
C10_3 N20_2 1_555 1_555
N16_3 N17_3 1_555 1_555
C12_3 N18_3 1_555 1_555
O2_3 C13_3 1_555 1_555
O10_3 C36_3 1_555 1_555
O12_3 C43_3 1_555 1_555
C43_3 C44_3 1_555 1_555
C44_3 C45_3 1_555 1_555
C48_3 C49_3 1_555 1_555
C30_3 H54_3 1_555 1_555
C30_3 H55_3 1_555 1_555
C30_3 H56_3 1_555 1_555
C27_3 H57_3 1_555 1_555
C31_3 H58_3 1_555 1_555
C31_3 H59_3 1_555 1_555
C31_3 H60_3 1_555 1_555
C52_3 H61_3 1_555 1_555
C52_3 H62_3 1_555 1_555
C52_3 H63_3 1_555 1_555
C19_3 H64_3 1_555 1_555
C19_3 H65_3 1_555 1_555
C19_3 H66_3 1_555 1_555
C16_3 H67_3 1_555 1_555
C16_3 H68_3 1_555 1_555
C16_3 H69_3 1_555 1_555
C15_3 H70_3 1_555 1_555
C15_3 H71_3 1_555 1_555
C15_3 H72_3 1_555 1_555
Co1_4 N1_4 1_555 1_555
B1_4 H1_4 1_555 1_555
N1_4 N2_4 1_555 1_555
N2_4 B1_4 1_555 1_555
C1_4 N1_4 1_555 1_555
H2_4 C1_4 1_555 1_555
C2_4 N2_4 1_555 1_555
H3_4 C2_4 1_555 1_555
N3_4 C1_4 1_555 1_555
N4_4 Co1_4 1_555 1_555
N5_4 B1_4 1_555 1_555
C3_4 N4_4 1_555 1_555
H4_6 C3_4 1_555 1_555
C4_4 N5_4 1_555 1_555
H5_4 C4_4 1_555 1_555
N6_4 C3_4 1_555 1_555
N7_4 Co1_4 1_555 1_555
N8_4 B1_4 1_555 1_555
C5_4 N7_4 1_555 1_555
H6_4 C5_4 1_555 1_555
C6_4 N8_4 1_555 1_555
H7_4 C6_4 1_555 1_555
N9_4 C5_4 1_555 1_555
B2_4 H8_4 1_555 1_555
N10_4 Co1_4 1_555 1_555
N11_4 B2_4 1_555 1_555
C7_4 N10_4 1_555 1_555
H9_4 C7_4 1_555 1_555
C8_4 N11_4 1_555 1_555
H10_4 C8_4 1_555 1_555
N19 C7_4 1_555 1_555
N13_4 Co1_4 1_555 1_555
N14_4 B2_4 1_555 1_555
C9_4 N13_4 1_555 1_555
H11_4 C9_4 1_555 1_555
C10_4 N14_4 1_555 1_555
H12_4 C10_4 1_555 1_555
N20 C9_4 1_555 1_555
N16_4 Co1_4 1_555 1_555
N17_4 B2_4 1_555 1_555
C11_4 N16_4 1_555 1_555
H13_4 C11_4 1_555 1_555
C12_4 N17_4 1_555 1_555
H14_4 C12_4 1_555 1_555
N18_4 C11_4 1_555 1_555
Cu6 N3_4 1_555 1_555
O1_4 Cu6 1_555 1_555
C13_4 O1_4 1_555 1_555
C14_4 C13_4 1_555 1_555
C15_4 C14_4 1_555 1_555
C16_4 C14_4 1_555 1_555
C17_4 C14_4 1_555 1_555
C18_4 C17_4 1_555 1_555
H15_4 C18_4 1_555 1_555
H16_4 C18_4 1_555 1_555
H17_4 C18_4 1_555 1_555
C19_4 C17_4 1_555 1_555
O17_2 C26_4 1_555 1_555
O18_2 C26_4 1_555 1_555
C26_4 C27_4 1_555 1_555
C27_4 C28_4 1_555 1_555
C28_4 H27_4 1_555 1_555
H28_4 C28_4 1_555 1_555
C29_4 C27_4 1_555 1_555
C30_4 C29_4 1_555 1_555
C31_4 C29_4 1_555 1_555
Cu10 N6_4 1_555 1_555
O9_4 Cu10 1_555 1_555
O10_4 Cu12 1_555 1_555
C36_4 O9_4 1_555 1_555
C37_4 C36_4 1_555 1_555
C38_4 C37_4 1_555 1_555
H34_4 C38_4 1_555 1_555
H35_4 C38_4 1_555 1_555
C39_4 C37_4 1_555 1_555
H36_4 C39_4 1_555 1_555
H37_4 C39_4 1_555 1_555
H38_4 C39_4 1_555 1_555
C40_4 C37_4 1_555 1_555
C41_4 C40_4 1_555 1_555
H39_4 C41_4 1_555 1_555
H40_4 C41_4 1_555 1_555
H41_4 C41_4 1_555 1_555
C42_4 C40_4 1_555 1_555
H42_4 C42_4 1_555 1_555
H43_4 C42_4 1_555 1_555
H44_4 C42_4 1_555 1_555
O11_4 Cu10 1_555 1_555
O12_4 Cu12 1_555 1_555
C43_4 O11_4 1_555 1_555
C44_4 C29_4 1_555 1_555
C45_4 C28_4 1_555 1_555
H45_4 C45_4 1_555 1_555
H46_4 C45_4 1_555 1_555
C46_4 C44_4 1_555 1_555
H47_4 C46_4 1_555 1_555
H48_4 C46_4 1_555 1_555
H49_4 C46_4 1_555 1_555
O21 C47_4 1_555 1_555
O22 C47_4 1_555 1_555
C47_4 C48_4 1_555 1_555
C48_4 C40_4 1_555 1_555
H50_4 C48_4 1_555 1_555
C49_4 C38_4 1_555 1_555
H51_4 C49_4 1_555 1_555
H52_4 C49_4 1_555 1_555
O23_2 C50_4 1_555 1_555
O24_2 C50_4 1_555 1_555
C50_4 C51_4 1_555 1_555
C51_4 C17_4 1_555 1_555
H53_4 C51_4 1_555 1_555
C52_4 C51_4 1_555 1_555
C2_4 N3_4 1_555 1_555
N4_4 N5_4 1_555 1_555
C4_4 N6_4 1_555 1_555
N7_4 N8_4 1_555 1_555
C6_4 N9_4 1_555 1_555
N10_4 N11_4 1_555 1_555
C8_4 N19 1_555 1_555
N13_4 N14_4 1_555 1_555
C10_4 N20 1_555 1_555
N16_4 N17_4 1_555 1_555
C12_4 N18_4 1_555 1_555
O2_4 C13_4 1_555 1_555
O10_4 C36_4 1_555 1_555
O12_4 C43_4 1_555 1_555
C43_4 C44_4 1_555 1_555
C44_4 C45_4 1_555 1_555
C48_4 C49_4 1_555 1_555
C30_4 H54_4 1_555 1_555
C30_4 H55_4 1_555 1_555
C30_4 H56_4 1_555 1_555
C27_4 H57_4 1_555 1_555
C31_4 H58_4 1_555 1_555
C31_4 H59_4 1_555 1_555
C31_4 H60_4 1_555 1_555
C52_4 H61_4 1_555 1_555
C52_4 H62_4 1_555 1_555
C52_4 H63_4 1_555 1_555
C19_4 H64_4 1_555 1_555
C19_4 H65_4 1_555 1_555
C19_4 H66_4 1_555 1_555
C16_4 H67_4 1_555 1_555
C16_4 H68_4 1_555 1_555
C16_4 H69_4 1_555 1_555
C15_4 H70_4 1_555 1_555
C15_4 H71_4 1_555 1_555
C15_4 H72_4 1_555 1_555
O4_4 Cu8 1_555 1_555
C20_4 O3_4 1_555 1_555
C21_4 C20_4 1_555 1_555
H18_4 C21_4 1_555 1_555
C22_4 C21_4 1_555 1_555
H19_4 C22_4 1_555 1_555
H20_4 C22_4 1_555 1_555
C23_4 C21_4 1_555 1_555
C24_4 C23_4 1_555 1_555
C25_4 C23_4 1_555 1_555
H24_4 C25_4 1_555 1_555
H25_4 C25_4 1_555 1_555
H26_4 C25_4 1_555 1_555
O19 C32_4 1_555 1_555
O20 C32_4 1_555 1_555
C32_4 C33_4 1_555 1_555
C33_4 C23_4 1_555 1_555
C34_4 C33_4 1_555 1_555
H29_4 C34_4 1_555 1_555
H30_4 C34_4 1_555 1_555
H31_4 C34_4 1_555 1_555
C35_4 C22_4 1_555 1_555
H32_4 C35_4 1_555 1_555
H33_4 C35_4 1_555 1_555
O4_4 C20_4 1_555 1_555
C33_4 C35_4 1_555 1_555

#END
