
###############################################################################
#
# This file contains modified crystal structure data generated from the
# MOF subset of the Cambridge Structural Database (CSD) v543 
# hosted by the Cambridge Crystallographic Data Centre (CCDC).
#
# This work is licensed under the Creative Commons
# Attribution-NonCommercial-ShareAlike 4.0 International License.
# To view a copy of this license, visit
# http://creativecommons.org/licenses/by-nc-sa/4.0/
# or send a letter to
# Creative Commons, PO Box 1866, Mountain View, CA 94042, USA.
#
# CIF created using the CSD Python API on 29 September 2022
# The structure has been converted into the P1 space group
# The structure has a 3D framework
# The original CSD entry YOYZAP is in the monoclinic crystal system
# The original CSD entry YOYZAP is in a Sohncke space group
# The framework has been calculated to contain at least 10.0% void space
# The void calculation uses a probe of radius 1.32A, grid spacing 0.4
# H atom positions have been added when not included in the experimental data
#
###############################################################################

data_YOYZAP
_chemical_formula_moiety         '(C208 H280 B8 Co4 Cu16 N72 O64)n'
_symmetry_cell_setting           triclinic
_symmetry_space_group_name_H-M   'P 1'
_symmetry_Int_Tables_number      1
_space_group_name_Hall           'P 1'
loop_
_symmetry_equiv_pos_site_id
_symmetry_equiv_pos_as_xyz
1 x,y,z
_cell_length_a                   26.676(5)
_cell_length_b                   18.145(4)
_cell_length_c                   18.954(4)
_cell_angle_alpha                90
_cell_angle_beta                 118.54(3)
_cell_angle_gamma                90
_cell_volume                     8059.58
loop_
_atom_site_label
_atom_site_type_symbol
_atom_site_fract_x
_atom_site_fract_y
_atom_site_fract_z
N1 N 0.0504(2) 0.0393(3) 0.8558(3)
C1 C 0.1009(3) 0.0125(3) 0.8815(4)
H2 H 0.1292 0.0387 0.8750
B2 B 0.0278(3) 0.2552(5) 0.6887(4)
H8 H 0.0388 0.2941 0.6613
N10 N 0.03001(19) 0.1167(3) 0.6990(3)
N11 N 0.0409(2) 0.1772(4) 0.6680(3)
C7 C 0.0411(4) 0.0623(7) 0.6610(5)
H9 H 0.0350 0.0122 0.6690
C8 C 0.0577(4) 0.1536(7) 0.6131(4)
H10 H 0.0660 0.1854 0.5802
N12 N 0.0607(3) 0.0810(7) 0.6128(5)
N16 N 0.0565(2) 0.2143(3) 0.8332(3)
N17 N 0.0627(2) 0.2636(3) 0.7821(3)
C11 C 0.0902(3) 0.2406(4) 0.9031(4)
H13 H 0.0966 0.2153 0.9505
C12 C 0.0983(3) 0.3160(4) 0.8263(4)
H14 H 0.1100 0.3560 0.8051
N18 N 0.1162(3) 0.3055(3) 0.9066(4)
C33 C 0.3086(7) 0.0077(7) 0.7420(8)
C34 C 0.2052(6) 0.0376(9) 0.6567(10)
C51 C 0.3125(5) 0.0140(7) 0.8308(8)
Cu7 Cu 0.19689(3) 0.35671(3) 0.97520(4)
H46 H 0.229317 0.0257189 0.800215
H55 H 0.315262 0.061696 0.722789
H57 H 0.162649 0.0140155 0.623232
H58 H 0.208851 0.06622 0.709454
H59 H 0.212427 0.076402 0.618648
H61 H 0.314602 0.0711329 0.849616
Cu2 Cu 0.30311(3) 0.85671(3) 0.02480(4)
H18 H 0.2519 0.6739 0.0208
H19 H 0.2836 0.6092 0.0001
H20 H 0.2393 0.5896 0.0319
O5 O 0.1911(2) 0.8289(3) 0.0492(3)
O6 O 0.2836(2) 0.8146(2) 0.1068(2)
C21 C 0.2342(4) 0.8072(3) 0.1014(4)
C22 C 0.2360(4) 0.7650(4) 0.1716(4)
C23 C 0.2823(6) 0.7062(9) 0.2066(9)
C24 C 0.1721(6) 0.7380(9) 0.1545(9)
C25 C 0.2452(7) 0.8144(4) 0.2439(6)
C26 C 0.3196(5) 0.8350(7) 0.2962(7)
O13 O 0.1952(2) 0.8370(3) 0.3628(2)
O14 O 0.2848(2) 0.7957(2) 0.4368(2)
C37 C 0.2414(3) 0.8018(4) 0.3742(4)
C38 C 0.2352(4) 0.7634(3) 0.2990(4)
H30 H 0.2645 0.7236 0.3165
C39 C 0.1774(5) 0.7278(6) 0.2503(7)
H31 H 0.1468 0.7548 0.2549
H32 H 0.1773 0.6754 0.2648
C48 C 0.2306(4) 0.8853(6) 0.2332(6)
N20 N 0.3838(3) 0.8055(3) 0.0934(4)
Cu5 Cu 0.30593(3) 0.39142(3) 0.03379(4)
O17 O 0.2305(2) 0.9700(2) 0.0469(2)
O18 O 0.32244(19) 0.9491(2) 0.0861(2)
Cu9 Cu 0.19223(3) 0.88956(4) 0.45014(4)
Cu12 Cu 0.29786(3) 0.84408(4) 0.53912(4)
H47 H 0.160856 0.685754 0.122318
H48 H 0.140151 0.7793 0.119695
H49 H 0.32396 0.731876 0.227994
H50 H 0.280436 0.678853 0.256439
H51 H 0.275599 0.66584 0.160386
H52 H 0.33161 0.863903 0.256161
H53 H 0.328777 0.869708 0.347849
H54 H 0.343838 0.783966 0.316521
H62 H 0.185062 0.890219 0.192145
H63 H 0.240377 0.910053 0.2907
H64 H 0.254419 0.913624 0.208002
N2 N 0.0243(2) 0.9890(3) 0.8833(3)
C2 C 0.0637(3) 0.9361(4) 0.9211(3)
H3 H 0.0582 0.8950 0.9476
N3 N 0.1118(2) 0.9487(3) 0.9165(3)
Cu1 Cu 0.19407(3) 0.89142(3) 0.96621(4)
O1 O 0.2104(2) 0.9427(2) 0.8887(2)
O2 O 0.3031(2) 0.9084(3) 0.9346(2)
C13 C 0.2560(3) 0.9406(3) 0.8844(3)
C14 C 0.2586(4) 0.9795(3) 0.8142(3)
O3 O 0.1792(2) 0.8016(3) 0.9006(2)
O4 O 0.2687(2) 0.7707(2) 0.9543(3)
C15 C 0.2181(3) 0.7587(3) 0.9105(3)
C16 C 0.2026(4) 0.6876(3) 0.8619(3)
H15 H 0.1651 0.6942 0.8122
C17 C 0.2490(6) 0.6633(4) 0.8376(6)
H16 H 0.2371 0.6774 0.7814
H17 H 0.2861 0.6868 0.8732
C18 C 0.1982(4) 0.6223(4) 0.9107(4)
C19 C 0.2479(4) 0.6239(4) 0.9991(3)
C20 C 0.1389(6) 0.6227(7) 0.9067(9)
H21 H 0.1337 0.6692 0.9289
H22 H 0.1363 0.5814 0.9380
H23 H 0.1091 0.6180 0.8507
O7 O 0.2695(2) 0.4700(2) 0.9531(2)
O8 O 0.17756(19) 0.4491(2) 0.9139(2)
C27 C 0.2169(3) 0.4846(3) 0.9128(3)
C28 C 0.2004(4) 0.5541(3) 0.8619(3)
C29 C 0.1512(4) 0.5416(4) 0.7854(4)
H24 H 0.1620 0.5112 0.7520
H25 H 0.1363 0.5890 0.7587
H26 H 0.1218 0.5162 0.7931
C30 C 0.2533(4) 0.5814(4) 0.8470(5)
H27 H 0.2903 0.5675 0.8933
H28 H 0.2505 0.5581 0.7980
O9 O 0.1987(2) 0.9327(2) 0.5475(2)
O10 O 0.2906(2) 0.9058(3) 0.6199(2)
C31 C 0.2453(4) 0.9358(3) 0.6109(4)
C32 C 0.2479(4) 0.9785(4) 0.6820(4)
C49 C 0.2468(4) 0.8573(5) 0.7467(6)
C50 C 0.2316(4) 0.9322(6) 0.7360(7)
C52 C 0.1665(5) 0.9177(7) 0.6975(8)
H56 H 0.34092 0.969576 0.744439
H60 H 0.34894 0.983809 0.87618
H65 H 0.233416 0.832434 0.787305
H66 H 0.225881 0.829232 0.688929
H67 H 0.292884 0.852179 0.77216
H68 H 0.143732 0.970016 0.681618
H69 H 0.152842 0.884302 0.643666
H70 H 0.157227 0.888603 0.740191
Co1 Co 0.99652(2) 0.12597(4) 0.77782(3)
N4 N 0.9368(2) 0.0411(3) 0.7187(3)
C3 C 0.9053(3) 0.0150(4) 0.6446(4)
H4 H 0.8999 0.0413 0.5981
N7 N 0.96125(18) 0.1300(3) 0.8562(2)
N8 N 0.9482(2) 0.0686(3) 0.8817(3)
C5 C 0.9458(3) 0.1865(4) 0.8880(3)
H6 H 0.9501 0.2372 0.8796
C6 C 0.9258(3) 0.0870(4) 0.9299(4)
H7 H 0.9137 0.0529 0.9568
N9 N 0.9231(2) 0.1601(3) 0.9342(3)
N13 N 0.9411(2) 0.2129(3) 0.6975(3)
N14 N 0.9662(2) 0.2600(3) 0.6644(3)
C9 C 0.8910(4) 0.2323(4) 0.6624(4)
H11 H 0.8628 0.2051 0.6683
C10 C 0.9258(3) 0.3040(4) 0.6164(4)
H12 H 0.9313 0.3406 0.5850
N15 N 0.8764(3) 0.2931(4) 0.6150(4)
Cu14 Cu 0.79786(3) 0.34408(4) 0.53912(4)
B1 B 0.9605(3) 0.9949(4) 0.8566(4)
H1 H 0.9486 0.9542 0.8810
N5 N 0.9294(2) 0.9883(3) 0.7660(3)
C4 C 0.8981(3) 0.9343(4) 0.7214(4)
H5 H 0.8876 0.8916 0.7403
N6 N 0.8822(2) 0.9497(3) 0.6406(3)
Cu3 Cu 0.80777(3) 0.88956(4) 0.54986(4)
Cu4 Cu 0.70214(3) 0.84408(4) 0.46088(4)
O11 O 0.7407(2) 0.4715(3) 0.4414(3)
O12 O 0.8284(2) 0.4307(3) 0.5115(3)
C35 C 0.7921(3) 0.4792(3) 0.4680(3)
C36 C 0.8149(4) 0.5482(4) 0.4500(5)
H29 H 0.8544 0.5372 0.4594
O15 O 0.8324(2) 0.7950(3) 0.5248(3)
O16 O 0.7407(2) 0.7656(2) 0.4396(2)
C40 C 0.7959(4) 0.7522(4) 0.4745(4)
C41 C 0.8146(4) 0.6804(4) 0.4491(5)
C42 C 0.7653(8) 0.6477(6) 0.3662(6)
H33 H 0.7276 0.6506 0.3643
H34 H 0.7635 0.6746 0.3196
C43 C 0.7817(6) 0.5742(4) 0.3668(5)
H35 H 0.8049 0.5702 0.3390
H36 H 0.7473 0.5430 0.3378
C44 C 0.8616(7) 0.7004(7) 0.4364(12)
H37 H 0.8912 0.7246 0.4846
H38 H 0.8484 0.7343 0.3907
H39 H 0.8775 0.6560 0.4251
C45 C 0.8189(4) 0.6147(4) 0.5035(4)
C46 C 0.7700(6) 0.6139(5) 0.5232(7)
H40 H 0.7644 0.5636 0.5370
H41 H 0.7350 0.6308 0.4765
H42 H 0.7790 0.6466 0.5689
C47 C 0.8776(6) 0.6056(11) 0.5726(9)
H43 H 0.8776 0.6194 0.6226
H44 H 0.9043 0.6372 0.5647
H45 H 0.8895 0.5540 0.5759
N19 N 0.6236(3) 0.7931(4) 0.3850(4)
Cu10 Cu 0.69223(3) 0.38956(4) 0.45014(4)
O19 O 0.8013(2) 0.9327(2) 0.4525(2)
O20 O 0.7094(2) 0.9058(3) 0.3801(2)
O21 O 0.7593(2) 0.9715(3) 0.5586(3)
O22 O 0.6716(2) 0.9307(3) 0.4885(3)
O23 O 0.8048(2) 0.8370(3) 0.6372(2)
O24 O 0.7152(2) 0.7957(2) 0.5632(2)
Co1_2 Co 0.00348(2) 0.12597(4) 0.22218(3)
N4_2 N 0.0632(2) 0.0411(3) 0.2813(3)
C3_2 C 0.0947(3) 0.0150(4) 0.3554(4)
H4_2 H 0.1001 0.0413 0.4019
N7_2 N 0.03875(18) 0.1300(3) 0.1438(2)
N8_2 N 0.0518(2) 0.0686(3) 0.1183(3)
C5_2 C 0.0542(3) 0.1865(4) 0.1120(3)
H6_2 H 0.0499 0.2372 0.1204
C6_2 C 0.0742(3) 0.0870(4) 0.0701(4)
H7_2 H 0.0863 0.0529 0.0432
N9_2 N 0.0769(2) 0.1601(3) 0.0658(3)
N13_2 N 0.0589(2) 0.2129(3) 0.3025(3)
N14_2 N 0.0338(2) 0.2600(3) 0.3356(3)
C9_2 C 0.1090(4) 0.2323(4) 0.3376(4)
H11_2 H 0.1372 0.2051 0.3317
C10_2 C 0.0742(3) 0.3040(4) 0.3836(4)
H12_2 H 0.0687 0.3406 0.4150
N15_2 N 0.1236(3) 0.2931(4) 0.3850(4)
Cu14_2 Cu 0.20214(3) 0.34408(4) 0.46088(4)
B1_2 B 0.0395(3) 0.9949(4) 0.1434(4)
H1_2 H 0.0514 0.9542 0.1190
N5_2 N 0.0706(2) 0.9883(3) 0.2340(3)
C4_2 C 0.1019(3) 0.9343(4) 0.2786(4)
H5_2 H 0.1124 0.8916 0.2597
N6_2 N 0.1178(2) 0.9497(3) 0.3594(3)
O11_2 O 0.2593(2) 0.4715(3) 0.5586(3)
O12_2 O 0.1716(2) 0.4307(3) 0.4885(3)
C35_2 C 0.2079(3) 0.4792(3) 0.5320(3)
C36_2 C 0.1851(4) 0.5482(4) 0.5500(5)
H29_2 H 0.1456 0.5372 0.5406
O15_2 O 0.1676(2) 0.7950(3) 0.4752(3)
O16_2 O 0.2593(2) 0.7656(2) 0.5604(2)
C40_2 C 0.2041(4) 0.7522(4) 0.5255(4)
C41_2 C 0.1854(4) 0.6804(4) 0.5509(5)
C42_2 C 0.2347(8) 0.6477(6) 0.6338(6)
H33_2 H 0.2724 0.6506 0.6357
H34_2 H 0.2365 0.6746 0.6804
C43_2 C 0.2183(6) 0.5742(4) 0.6332(5)
H35_2 H 0.1951 0.5702 0.6610
H36_2 H 0.2527 0.5430 0.6622
C44_2 C 0.1384(7) 0.7004(7) 0.5636(12)
H37_2 H 0.1088 0.7246 0.5154
H38_2 H 0.1516 0.7343 0.6093
H39_2 H 0.1225 0.6560 0.5749
C45_2 C 0.1811(4) 0.6147(4) 0.4965(4)
C46_2 C 0.2300(6) 0.6139(5) 0.4768(7)
H40_2 H 0.2356 0.5636 0.4630
H41_2 H 0.2650 0.6308 0.5235
H42_2 H 0.2210 0.6466 0.4311
C47_2 C 0.1224(6) 0.6056(11) 0.4274(9)
H43_2 H 0.1224 0.6194 0.3774
H44_2 H 0.0957 0.6372 0.4353
H45_2 H 0.1105 0.5540 0.4241
N19_2 N 0.3764(3) 0.7931(4) 0.6150(4)
Cu10_2 Cu 0.30777(3) 0.38956(4) 0.54986(4)
O21_2 O 0.2407(2) 0.9715(3) 0.4414(3)
O22_2 O 0.3284(2) 0.9307(3) 0.5115(3)
N1_2 N 0.9496(2) 0.0393(3) 0.1442(3)
C1_2 C 0.8991(3) 0.0125(3) 0.1185(4)
H2_2 H 0.8708 0.0387 0.1250
B2_2 B 0.9722(3) 0.2552(5) 0.3113(4)
H8_2 H 0.9612 0.2941 0.3387
N10_2 N 0.96999(19) 0.1167(3) 0.3010(3)
N11_2 N 0.9591(2) 0.1772(4) 0.3320(3)
C7_2 C 0.9589(4) 0.0623(7) 0.3390(5)
H9_2 H 0.9650 0.0122 0.3310
C8_2 C 0.9423(4) 0.1536(7) 0.3869(4)
H10_2 H 0.9340 0.1854 0.4198
N12_2 N 0.9393(3) 0.0810(7) 0.3872(5)
N16_2 N 0.9435(2) 0.2143(3) 0.1668(3)
N17_2 N 0.9373(2) 0.2636(3) 0.2179(3)
C11_2 C 0.9098(3) 0.2406(4) 0.0969(4)
H13_2 H 0.9034 0.2153 0.0495
C12_2 C 0.9017(3) 0.3160(4) 0.1737(4)
H14_2 H 0.8900 0.3560 0.1949
N18_2 N 0.8838(3) 0.3055(3) 0.0934(4)
C33_2 C 0.6914(7) 0.0077(7) 0.2580(8)
C34_2 C 0.7948(6) 0.0376(9) 0.3433(10)
C51_2 C 0.6875(5) 0.0140(7) 0.1692(8)
Cu7_2 Cu 0.80311(3) 0.35671(3) 0.02480(4)
H46_2 H 0.770683 0.0257189 0.199785
H55_2 H 0.684738 0.061696 0.277211
H57_2 H 0.837351 0.0140155 0.376768
H58_2 H 0.791149 0.06622 0.290546
H59_2 H 0.787573 0.076402 0.381352
H61_2 H 0.685398 0.0711329 0.150384
N2_2 N 0.9757(2) 0.9890(3) 0.1167(3)
C2_2 C 0.9363(3) 0.9361(4) 0.0789(3)
H3_2 H 0.9418 0.8950 0.0524
N3_2 N 0.8882(2) 0.9487(3) 0.0835(3)
Cu1_2 Cu 0.80593(3) 0.89142(3) 0.03379(4)
O1_2 O 0.7896(2) 0.9427(2) 0.1113(2)
O2_2 O 0.6969(2) 0.9084(3) 0.0654(2)
C13_2 C 0.7440(3) 0.9406(3) 0.1156(3)
C14_2 C 0.7414(4) 0.9795(3) 0.1858(3)
O3_2 O 0.8208(2) 0.8016(3) 0.0994(2)
O4_2 O 0.7313(2) 0.7707(2) 0.0457(3)
C15_2 C 0.7819(3) 0.7587(3) 0.0895(3)
C16_2 C 0.7974(4) 0.6876(3) 0.1381(3)
H15_2 H 0.8349 0.6942 0.1878
C17_2 C 0.7510(6) 0.6633(4) 0.1624(6)
H16_2 H 0.7629 0.6774 0.2186
H17_2 H 0.7139 0.6868 0.1268
C18_2 C 0.8018(4) 0.6223(4) 0.0893(4)
C19_2 C 0.7521(4) 0.6239(4) 0.0009(3)
C20_2 C 0.8611(6) 0.6227(7) 0.0933(9)
H21_2 H 0.8663 0.6692 0.0711
H22_2 H 0.8637 0.5814 0.0620
H23_2 H 0.8909 0.6180 0.1493
O7_2 O 0.7305(2) 0.4700(2) 0.0469(2)
O8_2 O 0.82244(19) 0.4491(2) 0.0861(2)
C27_2 C 0.7831(3) 0.4846(3) 0.0872(3)
C28_2 C 0.7996(4) 0.5541(3) 0.1381(3)
C29_2 C 0.8488(4) 0.5416(4) 0.2146(4)
H24_2 H 0.8380 0.5112 0.2480
H25_2 H 0.8637 0.5890 0.2413
H26_2 H 0.8782 0.5162 0.2069
C30_2 C 0.7467(4) 0.5814(4) 0.1530(5)
H27_2 H 0.7097 0.5675 0.1067
H28_2 H 0.7495 0.5581 0.2020
C31_2 C 0.7547(4) 0.9358(3) 0.3891(4)
C32_2 C 0.7521(4) 0.9785(4) 0.3180(4)
C49_2 C 0.7532(4) 0.8573(5) 0.2533(6)
C50_2 C 0.7684(4) 0.9322(6) 0.2640(7)
C52_2 C 0.8335(5) 0.9177(7) 0.3025(8)
H56_2 H 0.65908 0.969576 0.255561
H60_2 H 0.65106 0.983809 0.12382
H65_2 H 0.766584 0.832434 0.212695
H66_2 H 0.774119 0.829232 0.311071
H67_2 H 0.707116 0.852179 0.22784
H68_2 H 0.856268 0.970016 0.318382
H69_2 H 0.847158 0.884302 0.356334
H70_2 H 0.842773 0.888603 0.259809
Cu2_2 Cu 0.69689(3) 0.85671(3) 0.97520(4)
H18_2 H 0.7481 0.6739 0.9792
H19_2 H 0.7164 0.6092 0.9999
H20_2 H 0.7607 0.5896 0.9681
O5_2 O 0.8089(2) 0.8289(3) 0.9508(3)
O6_2 O 0.7164(2) 0.8146(2) 0.8932(2)
C21_2 C 0.7658(4) 0.8072(3) 0.8986(4)
C22_2 C 0.7640(4) 0.7650(4) 0.8284(4)
C23_2 C 0.7177(6) 0.7062(9) 0.7934(9)
C24_2 C 0.8279(6) 0.7380(9) 0.8455(9)
C25_2 C 0.7548(7) 0.8144(4) 0.7561(6)
C26_2 C 0.6804(5) 0.8350(7) 0.7038(7)
C37_2 C 0.7586(3) 0.8018(4) 0.6258(4)
C38_2 C 0.7648(4) 0.7634(3) 0.7010(4)
H30_2 H 0.7355 0.7236 0.6835
C39_2 C 0.8226(5) 0.7278(6) 0.7497(7)
H31_2 H 0.8532 0.7548 0.7451
H32_2 H 0.8227 0.6754 0.7352
C48_2 C 0.7694(4) 0.8853(6) 0.7668(6)
N20_2 N 0.6162(3) 0.8055(3) 0.9066(4)
Cu5_2 Cu 0.69407(3) 0.39142(3) 0.96621(4)
O17_2 O 0.7695(2) 0.9700(2) 0.9531(2)
O18_2 O 0.67756(19) 0.9491(2) 0.9139(2)
H47_2 H 0.839144 0.685754 0.877682
H48_2 H 0.859849 0.7793 0.880305
H49_2 H 0.67604 0.731876 0.772006
H50_2 H 0.719564 0.678853 0.743561
H51_2 H 0.724401 0.66584 0.839614
H52_2 H 0.66839 0.863903 0.743839
H53_2 H 0.671223 0.869708 0.652151
H54_2 H 0.656162 0.783966 0.683479
H62_2 H 0.814938 0.890219 0.807855
H63_2 H 0.759623 0.910053 0.7093
H64_2 H 0.745581 0.913624 0.791998
H18_3 H 0.7519 0.1739 0.0208
H19_3 H 0.7836 0.1092 0.0001
H20_3 H 0.7393 0.0896 0.0319
O5_3 O 0.6911(2) 0.3289(3) 0.0492(3)
O6_3 O 0.7836(2) 0.3146(2) 0.1068(2)
C21_3 C 0.7342(4) 0.3072(3) 0.1014(4)
C22_3 C 0.7360(4) 0.2650(4) 0.1716(4)
C23_3 C 0.7823(6) 0.2062(9) 0.2066(9)
C24_3 C 0.6721(6) 0.2380(9) 0.1545(9)
C25_3 C 0.7452(7) 0.3144(4) 0.2439(6)
C26_3 C 0.8196(5) 0.3350(7) 0.2962(7)
O13_2 O 0.6952(2) 0.3370(3) 0.3628(2)
O14_2 O 0.7848(2) 0.2957(2) 0.4368(2)
C37_3 C 0.7414(3) 0.3018(4) 0.3742(4)
C38_3 C 0.7352(4) 0.2634(3) 0.2990(4)
H30_3 H 0.7645 0.2236 0.3165
C39_3 C 0.6774(5) 0.2278(6) 0.2503(7)
H31_3 H 0.6468 0.2548 0.2549
H32_3 H 0.6773 0.1754 0.2648
C48_3 C 0.7306(4) 0.3853(6) 0.2332(6)
H47_3 H 0.660856 0.185754 0.122318
H48_3 H 0.640151 0.2793 0.119695
H49_3 H 0.82396 0.231876 0.227994
H50_3 H 0.780436 0.178853 0.256439
H51_3 H 0.775599 0.16584 0.160386
H52_3 H 0.83161 0.363903 0.256161
H53_3 H 0.828777 0.369708 0.347849
H54_3 H 0.843838 0.283966 0.316521
H62_3 H 0.685062 0.390219 0.192145
H63_3 H 0.740377 0.410053 0.2907
H64_3 H 0.754419 0.413624 0.208002
Co1_3 Co 0.49652(2) 0.62597(4) 0.77782(3)
B1_3 B 0.4605(3) 0.4949(4) 0.8566(4)
H1_3 H 0.4486 0.4542 0.8810
N1_3 N 0.5504(2) 0.5393(3) 0.8558(3)
N2_3 N 0.5243(2) 0.4890(3) 0.8833(3)
C1_3 C 0.6009(3) 0.5125(3) 0.8815(4)
H2_3 H 0.6292 0.5387 0.8750
C2_3 C 0.5637(3) 0.4361(4) 0.9211(3)
H3_3 H 0.5582 0.3950 0.9476
N3_3 N 0.6118(2) 0.4487(3) 0.9165(3)
N4_3 N 0.4368(2) 0.5411(3) 0.7187(3)
N5_3 N 0.4294(2) 0.4883(3) 0.7660(3)
C3_3 C 0.4053(3) 0.5150(4) 0.6446(4)
H4_3 H 0.3999 0.5413 0.5981
C4_3 C 0.3981(3) 0.4343(4) 0.7214(4)
H5_3 H 0.3876 0.3916 0.7403
N6_3 N 0.3822(2) 0.4497(3) 0.6406(3)
N7_3 N 0.46125(18) 0.6300(3) 0.8562(2)
N8_3 N 0.4482(2) 0.5686(3) 0.8817(3)
C5_3 C 0.4458(3) 0.6865(4) 0.8880(3)
H6_3 H 0.4501 0.7372 0.8796
C6_3 C 0.4258(3) 0.5870(4) 0.9299(4)
H7_3 H 0.4137 0.5529 0.9568
N9_3 N 0.4231(2) 0.6601(3) 0.9342(3)
B2_3 B 0.5278(3) 0.7552(5) 0.6887(4)
H8_3 H 0.5388 0.7941 0.6613
N10_3 N 0.53001(19) 0.6167(3) 0.6990(3)
N11_3 N 0.5409(2) 0.6772(4) 0.6680(3)
C7_3 C 0.5411(4) 0.5623(7) 0.6610(5)
H9_3 H 0.5350 0.5122 0.6690
C8_3 C 0.5577(4) 0.6536(7) 0.6131(4)
H10_3 H 0.5660 0.6854 0.5802
N12_3 N 0.5607(3) 0.5810(7) 0.6128(5)
N13_3 N 0.4411(2) 0.7129(3) 0.6975(3)
N14_3 N 0.4662(2) 0.7600(3) 0.6644(3)
C9_3 C 0.3910(4) 0.7323(4) 0.6624(4)
H11_3 H 0.3628 0.7051 0.6683
C10_3 C 0.4258(3) 0.8040(4) 0.6164(4)
H12_3 H 0.4313 0.8406 0.5850
N16_3 N 0.5565(2) 0.7143(3) 0.8332(3)
N17_3 N 0.5627(2) 0.7636(3) 0.7821(3)
C11_3 C 0.5902(3) 0.7406(4) 0.9031(4)
H13_3 H 0.5966 0.7153 0.9505
C12_3 C 0.5983(3) 0.8160(4) 0.8263(4)
H14_3 H 0.6100 0.8560 0.8051
O1_3 O 0.7104(2) 0.4427(2) 0.8887(2)
O2_3 O 0.8031(2) 0.4084(3) 0.9346(2)
C13_3 C 0.7560(3) 0.4406(3) 0.8844(3)
C14_3 C 0.7586(4) 0.4795(3) 0.8142(3)
O3_3 O 0.6792(2) 0.3016(3) 0.9006(2)
O4_3 O 0.7687(2) 0.2707(2) 0.9543(3)
C15_3 C 0.7181(3) 0.2587(3) 0.9105(3)
C16_3 C 0.7026(4) 0.1876(3) 0.8619(3)
H15_3 H 0.6651 0.1942 0.8122
C17_3 C 0.7490(6) 0.1633(4) 0.8376(6)
H16_3 H 0.7371 0.1774 0.7814
H17_3 H 0.7861 0.1868 0.8732
C18_3 C 0.6982(4) 0.1223(4) 0.9107(4)
C19_3 C 0.7479(4) 0.1239(4) 0.9991(3)
C20_3 C 0.6389(6) 0.1227(7) 0.9067(9)
H21_3 H 0.6337 0.1692 0.9289
H22_3 H 0.6363 0.0814 0.9380
H23_3 H 0.6091 0.1180 0.8507
C28_3 C 0.7004(4) 0.0541(3) 0.8619(3)
C29_3 C 0.6512(4) 0.0416(4) 0.7854(4)
H24_3 H 0.6620 0.0112 0.7520
H25_3 H 0.6363 0.0890 0.7587
H26_3 H 0.6218 0.0162 0.7931
C30_3 C 0.7533(4) 0.0814(4) 0.8470(5)
H27_3 H 0.7903 0.0675 0.8933
H28_3 H 0.7505 0.0581 0.7980
O9_2 O 0.6987(2) 0.4327(2) 0.5475(2)
O10_2 O 0.7906(2) 0.4058(3) 0.6199(2)
C31_3 C 0.7453(4) 0.4358(3) 0.6109(4)
C32_3 C 0.7479(4) 0.4785(4) 0.6820(4)
C33_3 C 0.8086(7) 0.5077(7) 0.7420(8)
C34_3 C 0.7052(6) 0.5376(9) 0.6567(10)
C36_3 C 0.3149(4) 0.0482(4) 0.4500(5)
H29_3 H 0.3544 0.0372 0.4594
O15_3 O 0.3324(2) 0.2950(3) 0.5248(3)
O16_3 O 0.2407(2) 0.2656(2) 0.4396(2)
C40_3 C 0.2959(4) 0.2522(4) 0.4745(4)
C41_3 C 0.3146(4) 0.1804(4) 0.4491(5)
C42_3 C 0.2653(8) 0.1477(6) 0.3662(6)
H33_3 H 0.2276 0.1506 0.3643
H34_3 H 0.2635 0.1746 0.3196
C43_3 C 0.2817(6) 0.0742(4) 0.3668(5)
H35_3 H 0.3049 0.0702 0.3390
H36_3 H 0.2473 0.0430 0.3378
C44_3 C 0.3616(7) 0.2004(7) 0.4364(12)
H37_3 H 0.3912 0.2246 0.4846
H38_3 H 0.3484 0.2343 0.3907
H39_3 H 0.3775 0.1560 0.4251
C45_3 C 0.3189(4) 0.1147(4) 0.5035(4)
C46_3 C 0.2700(6) 0.1139(5) 0.5232(7)
H40_3 H 0.2644 0.0636 0.5370
H41_3 H 0.2350 0.1308 0.4765
H42_3 H 0.2790 0.1466 0.5689
C47_3 C 0.3776(6) 0.1056(11) 0.5726(9)
H43_3 H 0.3776 0.1194 0.6226
H44_3 H 0.4043 0.1372 0.5647
H45_3 H 0.3895 0.0540 0.5759
C49_3 C 0.7468(4) 0.3573(5) 0.7467(6)
C50_3 C 0.7316(4) 0.4322(6) 0.7360(7)
C51_3 C 0.8125(5) 0.5140(7) 0.8308(8)
C52_3 C 0.6665(5) 0.4177(7) 0.6975(8)
O19_2 O 0.3013(2) 0.4327(2) 0.4525(2)
O20_2 O 0.2094(2) 0.4058(3) 0.3801(2)
O23_2 O 0.3048(2) 0.3370(3) 0.6372(2)
O24_2 O 0.2152(2) 0.2957(2) 0.5632(2)
H46_3 H 0.729317 0.525719 0.800215
H55_3 H 0.815262 0.561696 0.722789
H56_3 H 0.84092 0.469576 0.744439
H57_3 H 0.662649 0.514016 0.623232
H58_3 H 0.708851 0.56622 0.709454
H59_3 H 0.712427 0.576402 0.618648
H60_3 H 0.84894 0.483809 0.87618
H61_3 H 0.814602 0.571133 0.849616
H65_3 H 0.733416 0.332434 0.787305
H66_3 H 0.725881 0.329232 0.688929
H67_3 H 0.792884 0.352179 0.77216
H68_3 H 0.643732 0.470016 0.681618
H69_3 H 0.652842 0.384302 0.643666
H70_3 H 0.657227 0.388603 0.740191
C27_3 C 0.7169(3) 0.9846(3) 0.9128(3)
C35_3 C 0.2921(3) 0.9792(3) 0.4680(3)
Co1_4 Co 0.50348(2) 0.62597(4) 0.22218(3)
B1_4 B 0.5395(3) 0.4949(4) 0.1434(4)
H1_4 H 0.5514 0.4542 0.1190
N1_4 N 0.4496(2) 0.5393(3) 0.1442(3)
N2_4 N 0.4757(2) 0.4890(3) 0.1167(3)
C1_4 C 0.3991(3) 0.5125(3) 0.1185(4)
H2_4 H 0.3708 0.5387 0.1250
C2_4 C 0.4363(3) 0.4361(4) 0.0789(3)
H3_4 H 0.4418 0.3950 0.0524
N3_4 N 0.3882(2) 0.4487(3) 0.0835(3)
N4_4 N 0.5632(2) 0.5411(3) 0.2813(3)
N5_4 N 0.5706(2) 0.4883(3) 0.2340(3)
C3_4 C 0.5947(3) 0.5150(4) 0.3554(4)
H4_4 H 0.6001 0.5413 0.4019
C4_4 C 0.6019(3) 0.4343(4) 0.2786(4)
H5_4 H 0.6124 0.3916 0.2597
N6_4 N 0.6178(2) 0.4497(3) 0.3594(3)
N7_4 N 0.53875(18) 0.6300(3) 0.1438(2)
N8_4 N 0.5518(2) 0.5686(3) 0.1183(3)
C5_4 C 0.5542(3) 0.6865(4) 0.1120(3)
H6_4 H 0.5499 0.7372 0.1204
C6_4 C 0.5742(3) 0.5870(4) 0.0701(4)
H7_4 H 0.5863 0.5529 0.0432
N9_4 N 0.5769(2) 0.6601(3) 0.0658(3)
B2_4 B 0.4722(3) 0.7552(5) 0.3113(4)
H8_4 H 0.4612 0.7941 0.3387
N10_4 N 0.46999(19) 0.6167(3) 0.3010(3)
N11_4 N 0.4591(2) 0.6772(4) 0.3320(3)
C7_4 C 0.4589(4) 0.5623(7) 0.3390(5)
H9_4 H 0.4650 0.5122 0.3310
C8_4 C 0.4423(4) 0.6536(7) 0.3869(4)
H10_4 H 0.4340 0.6854 0.4198
N12_4 N 0.4393(3) 0.5810(7) 0.3872(5)
N13_4 N 0.5589(2) 0.7129(3) 0.3025(3)
N14_4 N 0.5338(2) 0.7600(3) 0.3356(3)
C9_4 C 0.6090(4) 0.7323(4) 0.3376(4)
H11_4 H 0.6372 0.7051 0.3317
C10_4 C 0.5742(3) 0.8040(4) 0.3836(4)
H12_4 H 0.5687 0.8406 0.4150
N16_4 N 0.4435(2) 0.7143(3) 0.1668(3)
N17_4 N 0.4373(2) 0.7636(3) 0.2179(3)
C11_4 C 0.4098(3) 0.7406(4) 0.0969(4)
H13_4 H 0.4034 0.7153 0.0495
C12_4 C 0.4017(3) 0.8160(4) 0.1737(4)
H14_4 H 0.3900 0.8560 0.1949
O1_4 O 0.2896(2) 0.4427(2) 0.1113(2)
O2_4 O 0.1969(2) 0.4084(3) 0.0654(2)
C13_4 C 0.2440(3) 0.4406(3) 0.1156(3)
C14_4 C 0.2414(4) 0.4795(3) 0.1858(3)
O3_4 O 0.3208(2) 0.3016(3) 0.0994(2)
O4_4 O 0.2313(2) 0.2707(2) 0.0457(3)
C15_4 C 0.2819(3) 0.2587(3) 0.0895(3)
C16_4 C 0.2974(4) 0.1876(3) 0.1381(3)
H15_4 H 0.3349 0.1942 0.1878
C17_4 C 0.2510(6) 0.1633(4) 0.1624(6)
H16_4 H 0.2629 0.1774 0.2186
H17_4 H 0.2139 0.1868 0.1268
C18_4 C 0.3018(4) 0.1223(4) 0.0893(4)
C19_4 C 0.2521(4) 0.1239(4) 0.0009(3)
C20_4 C 0.3611(6) 0.1227(7) 0.0933(9)
H21_4 H 0.3663 0.1692 0.0711
H22_4 H 0.3637 0.0814 0.0620
H23_4 H 0.3909 0.1180 0.1493
C28_4 C 0.2996(4) 0.0541(3) 0.1381(3)
C29_4 C 0.3488(4) 0.0416(4) 0.2146(4)
H24_4 H 0.3380 0.0112 0.2480
H25_4 H 0.3637 0.0890 0.2413
H26_4 H 0.3782 0.0162 0.2069
C30_4 C 0.2467(4) 0.0814(4) 0.1530(5)
H27_4 H 0.2097 0.0675 0.1067
H28_4 H 0.2495 0.0581 0.2020
C31_4 C 0.2547(4) 0.4358(3) 0.3891(4)
C32_4 C 0.2521(4) 0.4785(4) 0.3180(4)
C33_4 C 0.1914(7) 0.5077(7) 0.2580(8)
C34_4 C 0.2948(6) 0.5376(9) 0.3433(10)
C36_4 C 0.6851(4) 0.0482(4) 0.5500(5)
H29_4 H 0.6456 0.0372 0.5406
O15_4 O 0.6676(2) 0.2950(3) 0.4752(3)
O16_4 O 0.7593(2) 0.2656(2) 0.5604(2)
C40_4 C 0.7041(4) 0.2522(4) 0.5255(4)
C41_4 C 0.6854(4) 0.1804(4) 0.5509(5)
C42_4 C 0.7347(8) 0.1477(6) 0.6338(6)
H33_4 H 0.7724 0.1506 0.6357
H34_4 H 0.7365 0.1746 0.6804
C43_4 C 0.7183(6) 0.0742(4) 0.6332(5)
H35_4 H 0.6951 0.0702 0.6610
H36_4 H 0.7527 0.0430 0.6622
C44_4 C 0.6384(7) 0.2004(7) 0.5636(12)
H37_4 H 0.6088 0.2246 0.5154
H38_4 H 0.6516 0.2343 0.6093
H39_4 H 0.6225 0.1560 0.5749
C45_4 C 0.6811(4) 0.1147(4) 0.4965(4)
C46_4 C 0.7300(6) 0.1139(5) 0.4768(7)
H40_4 H 0.7356 0.0636 0.4630
H41_4 H 0.7650 0.1308 0.5235
H42_4 H 0.7210 0.1466 0.4311
C47_4 C 0.6224(6) 0.1056(11) 0.4274(9)
H43_4 H 0.6224 0.1194 0.3774
H44_4 H 0.5957 0.1372 0.4353
H45_4 H 0.6105 0.0540 0.4241
C49_4 C 0.2532(4) 0.3573(5) 0.2533(6)
C50_4 C 0.2684(4) 0.4322(6) 0.2640(7)
C51_4 C 0.1875(5) 0.5140(7) 0.1692(8)
C52_4 C 0.3335(5) 0.4177(7) 0.3025(8)
H46_4 H 0.270683 0.525719 0.199785
H55_4 H 0.184738 0.561696 0.277211
H56_4 H 0.15908 0.469576 0.255561
H57_4 H 0.337351 0.514016 0.376768
H58_4 H 0.291149 0.56622 0.290546
H59_4 H 0.287573 0.576402 0.381352
H60_4 H 0.15106 0.483809 0.12382
H61_4 H 0.185398 0.571133 0.150384
H65_4 H 0.266584 0.332434 0.212695
H66_4 H 0.274119 0.329232 0.311071
H67_4 H 0.207116 0.352179 0.22784
H68_4 H 0.356268 0.470016 0.318382
H69_4 H 0.347158 0.384302 0.356334
H70_4 H 0.342773 0.388603 0.259809
H18_4 H 0.2481 0.1739 0.9792
H19_4 H 0.2164 0.1092 0.9999
H20_4 H 0.2607 0.0896 0.9681
O5_4 O 0.3089(2) 0.3289(3) 0.9508(3)
O6_4 O 0.2164(2) 0.3146(2) 0.8932(2)
C21_4 C 0.2658(4) 0.3072(3) 0.8986(4)
C22_4 C 0.2640(4) 0.2650(4) 0.8284(4)
C23_4 C 0.2177(6) 0.2062(9) 0.7934(9)
C24_4 C 0.3279(6) 0.2380(9) 0.8455(9)
C25_4 C 0.2548(7) 0.3144(4) 0.7561(6)
C26_4 C 0.1804(5) 0.3350(7) 0.7038(7)
C37_4 C 0.2586(3) 0.3018(4) 0.6258(4)
C38_4 C 0.2648(4) 0.2634(3) 0.7010(4)
H30_4 H 0.2355 0.2236 0.6835
C39_4 C 0.3226(5) 0.2278(6) 0.7497(7)
H31_4 H 0.3532 0.2548 0.7451
H32_4 H 0.3227 0.1754 0.7352
C48_4 C 0.2694(4) 0.3853(6) 0.7668(6)
H47_4 H 0.339144 0.185754 0.877682
H48_4 H 0.359849 0.2793 0.880305
H49_4 H 0.17604 0.231876 0.772006
H50_4 H 0.219564 0.178853 0.743561
H51_4 H 0.224401 0.16584 0.839614
H52_4 H 0.16839 0.363903 0.743839
H53_4 H 0.171223 0.369708 0.652151
H54_4 H 0.156162 0.283966 0.683479
H62_4 H 0.314938 0.390219 0.807855
H63_4 H 0.259623 0.410053 0.7093
H64_4 H 0.245581 0.413624 0.791998
C27_4 C 0.2831(3) 0.9846(3) 0.0872(3)
C35_4 C 0.7079(3) 0.9792(3) 0.5320(3)
loop_
_geom_bond_atom_site_label_1
_geom_bond_atom_site_label_2
_geom_bond_site_symmetry_1
_geom_bond_site_symmetry_2
C1 N1 1_555 1_555
H2 C1 1_555 1_555
B2 H8 1_555 1_555
N11 B2 1_555 1_555
C7 N10 1_555 1_555
H9 C7 1_555 1_555
C8 N11 1_555 1_555
H10 C8 1_555 1_555
N12 C7 1_555 1_555
N17 B2 1_555 1_555
C11 N16 1_555 1_555
H13 C11 1_555 1_555
C12 N17 1_555 1_555
H14 C12 1_555 1_555
N18 C11 1_555 1_555
C33 C51 1_555 1_555
Cu7 N18 1_555 1_555
N10 N11 1_555 1_555
C8 N12 1_555 1_555
N16 N17 1_555 1_555
C12 N18 1_555 1_555
C33 H55 1_555 1_555
C34 H57 1_555 1_555
C34 H58 1_555 1_555
C34 H59 1_555 1_555
C51 H61 1_555 1_555
O6 Cu2 1_555 1_555
C21 O5 1_555 1_555
C22 C21 1_555 1_555
C23 C22 1_555 1_555
C24 C22 1_555 1_555
C25 C22 1_555 1_555
C26 C25 1_555 1_555
O13 C37 1_555 1_555
O14 C37 1_555 1_555
C37 C38 1_555 1_555
C38 C25 1_555 1_555
H30 C38 1_555 1_555
C39 C24 1_555 1_555
H31 C39 1_555 1_555
H32 C39 1_555 1_555
C48 C25 1_555 1_555
N20 Cu2 1_555 1_555
O18 Cu2 1_555 1_555
Cu9 O13 1_555 1_555
Cu12 O14 1_555 1_555
O6 C21 1_555 1_555
C38 C39 1_555 1_555
Cu9 Cu12 1_555 1_555
C24 H47 1_555 1_555
C24 H48 1_555 1_555
C23 H49 1_555 1_555
C23 H50 1_555 1_555
C23 H51 1_555 1_555
C26 H52 1_555 1_555
C26 H53 1_555 1_555
C26 H54 1_555 1_555
C48 H62 1_555 1_555
C48 H63 1_555 1_555
C48 H64 1_555 1_555
C2 N2 1_555 1_555
H3 C2 1_555 1_555
Cu1 N3 1_555 1_555
O1 Cu1 1_555 1_555
C13 O1 1_555 1_555
C14 C13 1_555 1_555
O3 Cu1 1_555 1_555
C15 O3 1_555 1_555
C16 C15 1_555 1_555
H15 C16 1_555 1_555
C17 C16 1_555 1_555
H16 C17 1_555 1_555
H17 C17 1_555 1_555
C18 C16 1_555 1_555
C19 C18 1_555 1_555
C20 C18 1_555 1_555
H21 C20 1_555 1_555
H22 C20 1_555 1_555
H23 C20 1_555 1_555
O7 C27 1_555 1_555
O8 C27 1_555 1_555
C27 C28 1_555 1_555
C28 C18 1_555 1_555
C29 C28 1_555 1_555
H24 C29 1_555 1_555
H25 C29 1_555 1_555
H26 C29 1_555 1_555
C30 C17 1_555 1_555
H27 C30 1_555 1_555
H28 C30 1_555 1_555
O9 C31 1_555 1_555
O10 C31 1_555 1_555
C31 C32 1_555 1_555
C49 C50 1_555 1_555
C50 C14 1_555 1_555
C52 C50 1_555 1_555
Cu7 O8 1_555 1_555
Cu9 O9 1_555 1_555
Cu12 O10 1_555 1_555
C2 N3 1_555 1_555
O2 C13 1_555 1_555
O4 C15 1_555 1_555
C28 C30 1_555 1_555
C32 C50 1_555 1_555
C49 H65 1_555 1_555
C49 H66 1_555 1_555
C49 H67 1_555 1_555
C52 H68 1_555 1_555
C52 H69 1_555 1_555
C52 H70 1_555 1_555
N4 Co1 1_555 1_555
C3 N4 1_555 1_555
H4 C3 1_555 1_555
N7 Co1 1_555 1_555
C5 N7 1_555 1_555
H6 C5 1_555 1_555
C6 N8 1_555 1_555
H7 C6 1_555 1_555
N9 C5 1_555 1_555
N13 Co1 1_555 1_555
C9 N13 1_555 1_555
H11 C9 1_555 1_555
C10 N14 1_555 1_555
H12 C10 1_555 1_555
N15 C9 1_555 1_555
Cu14 N15 1_555 1_555
N7 N8 1_555 1_555
C6 N9 1_555 1_555
N13 N14 1_555 1_555
C10 N15 1_555 1_555
B1 H1 1_555 1_555
N5 B1 1_555 1_555
C4 N5 1_555 1_555
H5 C4 1_555 1_555
Cu3 N6 1_555 1_555
Cu4 Cu3 1_555 1_555
O11 C35 1_555 1_555
O12 C35 1_555 1_555
C35 C36 1_555 1_555
C36 H29 1_555 1_555
O15 Cu3 1_555 1_555
O16 Cu4 1_555 1_555
C40 O15 1_555 1_555
C41 C40 1_555 1_555
C42 C41 1_555 1_555
H33 C42 1_555 1_555
H34 C42 1_555 1_555
C43 C36 1_555 1_555
H35 C43 1_555 1_555
H36 C43 1_555 1_555
C44 C41 1_555 1_555
H37 C44 1_555 1_555
H38 C44 1_555 1_555
H39 C44 1_555 1_555
C45 C36 1_555 1_555
C46 C45 1_555 1_555
H40 C46 1_555 1_555
H41 C46 1_555 1_555
H42 C46 1_555 1_555
C47 C45 1_555 1_555
H43 C47 1_555 1_555
H44 C47 1_555 1_555
H45 C47 1_555 1_555
N19 Cu4 1_555 1_555
Cu10 O11 1_555 1_555
Cu14 O12 1_555 1_555
O19 Cu3 1_555 1_555
O20 Cu4 1_555 1_555
O21 Cu3 1_555 1_555
O22 Cu4 1_555 1_555
O23 Cu3 1_555 1_555
O24 Cu4 1_555 1_555
C4 N6 1_555 1_555
O16 C40 1_555 1_555
C41 C45 1_555 1_555
C42 C43 1_555 1_555
Cu10 Cu14 1_555 1_555
N4_2 Co1_2 1_555 1_555
C3_2 N4_2 1_555 1_555
H4_2 C3_2 1_555 1_555
N7_2 Co1_2 1_555 1_555
C5_2 N7_2 1_555 1_555
H6_2 C5_2 1_555 1_555
C6_2 N8_2 1_555 1_555
H7_2 C6_2 1_555 1_555
N9_2 C5_2 1_555 1_555
N13_2 Co1_2 1_555 1_555
C9_2 N13_2 1_555 1_555
H11_2 C9_2 1_555 1_555
C10_2 N14_2 1_555 1_555
H12_2 C10_2 1_555 1_555
N15_2 C9_2 1_555 1_555
Cu14_2 N15_2 1_555 1_555
N7_2 N8_2 1_555 1_555
C6_2 N9_2 1_555 1_555
N13_2 N14_2 1_555 1_555
C10_2 N15_2 1_555 1_555
B1_2 H1_2 1_555 1_555
N5_2 B1_2 1_555 1_555
C4_2 N5_2 1_555 1_555
H5_2 C4_2 1_555 1_555
Cu9 N6_2 1_555 1_555
O11_2 C35_2 1_555 1_555
O12_2 C35_2 1_555 1_555
C35_2 C36_2 1_555 1_555
C36_2 H29_2 1_555 1_555
O15_2 Cu9 1_555 1_555
O16_2 Cu12 1_555 1_555
C40_2 O15_2 1_555 1_555
C41_2 C40_2 1_555 1_555
C42_2 C41_2 1_555 1_555
H33_2 C42_2 1_555 1_555
H34_2 C42_2 1_555 1_555
C43_2 C36_2 1_555 1_555
H35_2 C43_2 1_555 1_555
H36_2 C43_2 1_555 1_555
C44_2 C41_2 1_555 1_555
H37_2 C44_2 1_555 1_555
H38_2 C44_2 1_555 1_555
H39_2 C44_2 1_555 1_555
C45_2 C36_2 1_555 1_555
C46_2 C45_2 1_555 1_555
H40_2 C46_2 1_555 1_555
H41_2 C46_2 1_555 1_555
H42_2 C46_2 1_555 1_555
C47_2 C45_2 1_555 1_555
H43_2 C47_2 1_555 1_555
H44_2 C47_2 1_555 1_555
H45_2 C47_2 1_555 1_555
N19_2 Cu12 1_555 1_555
Cu10_2 O11_2 1_555 1_555
Cu14_2 O12_2 1_555 1_555
O21_2 Cu9 1_555 1_555
O22_2 Cu12 1_555 1_555
C4_2 N6_2 1_555 1_555
O16_2 C40_2 1_555 1_555
C41_2 C45_2 1_555 1_555
C42_2 C43_2 1_555 1_555
Cu10_2 Cu14_2 1_555 1_555
C1_2 N1_2 1_555 1_555
H2_2 C1_2 1_555 1_555
B2_2 H8_2 1_555 1_555
N11_2 B2_2 1_555 1_555
C7_2 N10_2 1_555 1_555
H9_2 C7_2 1_555 1_555
C8_2 N11_2 1_555 1_555
H10_2 C8_2 1_555 1_555
N12_2 C7_2 1_555 1_555
N17_2 B2_2 1_555 1_555
C11_2 N16_2 1_555 1_555
H13_2 C11_2 1_555 1_555
C12_2 N17_2 1_555 1_555
H14_2 C12_2 1_555 1_555
N18_2 C11_2 1_555 1_555
C33_2 C51_2 1_555 1_555
Cu7_2 N18_2 1_555 1_555
N10_2 N11_2 1_555 1_555
C8_2 N12_2 1_555 1_555
N16_2 N17_2 1_555 1_555
C12_2 N18_2 1_555 1_555
C33_2 H55_2 1_555 1_555
C34_2 H57_2 1_555 1_555
C34_2 H58_2 1_555 1_555
C34_2 H59_2 1_555 1_555
C51_2 H61_2 1_555 1_555
C2_2 N2_2 1_555 1_555
H3_2 C2_2 1_555 1_555
Cu1_2 N3_2 1_555 1_555
O1_2 Cu1_2 1_555 1_555
C13_2 O1_2 1_555 1_555
C14_2 C13_2 1_555 1_555
O3_2 Cu1_2 1_555 1_555
C15_2 O3_2 1_555 1_555
C16_2 C15_2 1_555 1_555
H15_2 C16_2 1_555 1_555
C17_2 C16_2 1_555 1_555
H16_2 C17_2 1_555 1_555
H17_2 C17_2 1_555 1_555
C18_2 C16_2 1_555 1_555
C19_2 C18_2 1_555 1_555
C20_2 C18_2 1_555 1_555
H21_2 C20_2 1_555 1_555
H22_2 C20_2 1_555 1_555
H23_2 C20_2 1_555 1_555
O7_2 C27_2 1_555 1_555
O8_2 C27_2 1_555 1_555
C27_2 C28_2 1_555 1_555
C28_2 C18_2 1_555 1_555
C29_2 C28_2 1_555 1_555
H24_2 C29_2 1_555 1_555
H25_2 C29_2 1_555 1_555
H26_2 C29_2 1_555 1_555
C30_2 C17_2 1_555 1_555
H27_2 C30_2 1_555 1_555
H28_2 C30_2 1_555 1_555
O19 C31_2 1_555 1_555
O20 C31_2 1_555 1_555
C31_2 C32_2 1_555 1_555
C49_2 C50_2 1_555 1_555
C50_2 C14_2 1_555 1_555
C52_2 C50_2 1_555 1_555
Cu7_2 O8_2 1_555 1_555
C2_2 N3_2 1_555 1_555
O2_2 C13_2 1_555 1_555
O4_2 C15_2 1_555 1_555
C28_2 C30_2 1_555 1_555
C32_2 C50_2 1_555 1_555
C49_2 H65_2 1_555 1_555
C49_2 H66_2 1_555 1_555
C49_2 H67_2 1_555 1_555
C52_2 H68_2 1_555 1_555
C52_2 H69_2 1_555 1_555
C52_2 H70_2 1_555 1_555
O6_2 Cu2_2 1_555 1_555
C21_2 O5_2 1_555 1_555
C22_2 C21_2 1_555 1_555
C23_2 C22_2 1_555 1_555
C24_2 C22_2 1_555 1_555
C25_2 C22_2 1_555 1_555
C26_2 C25_2 1_555 1_555
O23 C37_2 1_555 1_555
O24 C37_2 1_555 1_555
C37_2 C38_2 1_555 1_555
C38_2 C25_2 1_555 1_555
H30_2 C38_2 1_555 1_555
C39_2 C24_2 1_555 1_555
H31_2 C39_2 1_555 1_555
H32_2 C39_2 1_555 1_555
C48_2 C25_2 1_555 1_555
N20_2 Cu2_2 1_555 1_555
O18_2 Cu2_2 1_555 1_555
O6_2 C21_2 1_555 1_555
C38_2 C39_2 1_555 1_555
C24_2 H47_2 1_555 1_555
C24_2 H48_2 1_555 1_555
C23_2 H49_2 1_555 1_555
C23_2 H50_2 1_555 1_555
C23_2 H51_2 1_555 1_555
C26_2 H52_2 1_555 1_555
C26_2 H53_2 1_555 1_555
C26_2 H54_2 1_555 1_555
C48_2 H62_2 1_555 1_555
C48_2 H63_2 1_555 1_555
C48_2 H64_2 1_555 1_555
O6_3 Cu7_2 1_555 1_555
C21_3 O5_3 1_555 1_555
C22_3 C21_3 1_555 1_555
C23_3 C22_3 1_555 1_555
C24_3 C22_3 1_555 1_555
C25_3 C22_3 1_555 1_555
C26_3 C25_3 1_555 1_555
O13_2 C37_3 1_555 1_555
O14_2 C37_3 1_555 1_555
C37_3 C38_3 1_555 1_555
C38_3 C25_3 1_555 1_555
H30_3 C38_3 1_555 1_555
C39_3 C24_3 1_555 1_555
H31_3 C39_3 1_555 1_555
H32_3 C39_3 1_555 1_555
C48_3 C25_3 1_555 1_555
Cu10 O13_2 1_555 1_555
Cu14 O14_2 1_555 1_555
O6_3 C21_3 1_555 1_555
C38_3 C39_3 1_555 1_555
C24_3 H47_3 1_555 1_555
C24_3 H48_3 1_555 1_555
C23_3 H49_3 1_555 1_555
C23_3 H50_3 1_555 1_555
C23_3 H51_3 1_555 1_555
C26_3 H52_3 1_555 1_555
C26_3 H53_3 1_555 1_555
C26_3 H54_3 1_555 1_555
C48_3 H62_3 1_555 1_555
C48_3 H63_3 1_555 1_555
C48_3 H64_3 1_555 1_555
Co1_3 N1_3 1_555 1_555
B1_3 H1_3 1_555 1_555
N1_3 N2_3 1_555 1_555
N2_3 B1_3 1_555 1_555
C1_3 N1_3 1_555 1_555
H2_3 C1_3 1_555 1_555
C2_3 N2_3 1_555 1_555
H3_3 C2_3 1_555 1_555
N3_3 C1_3 1_555 1_555
N4_3 Co1_3 1_555 1_555
N5_3 B1_3 1_555 1_555
C3_3 N4_3 1_555 1_555
H4_3 C3_3 1_555 1_555
C4_3 N5_3 1_555 1_555
H5_3 C4_3 1_555 1_555
N6_3 C3_3 1_555 1_555
N7_3 Co1_3 1_555 1_555
N8_3 B1_3 1_555 1_555
C5_3 N7_3 1_555 1_555
H6_3 C5_3 1_555 1_555
C6_3 N8_3 1_555 1_555
H7_3 C6_3 1_555 1_555
N9_3 C5_3 1_555 1_555
B2_3 H8_3 1_555 1_555
N10_3 Co1_3 1_555 1_555
N11_3 B2_3 1_555 1_555
C7_3 N10_3 1_555 1_555
H9_3 C7_3 1_555 1_555
C8_3 N11_3 1_555 1_555
H10_3 C8_3 1_555 1_555
N12_3 C7_3 1_555 1_555
N13_3 Co1_3 1_555 1_555
N14_3 B2_3 1_555 1_555
C9_3 N13_3 1_555 1_555
H11_3 C9_3 1_555 1_555
C10_3 N14_3 1_555 1_555
H12_3 C10_3 1_555 1_555
N19_2 C9_3 1_555 1_555
N16_3 Co1_3 1_555 1_555
N17_3 B2_3 1_555 1_555
C11_3 N16_3 1_555 1_555
H13_3 C11_3 1_555 1_555
C12_3 N17_3 1_555 1_555
H14_3 C12_3 1_555 1_555
N20_2 C11_3 1_555 1_555
Cu5_2 N3_3 1_555 1_555
O1_3 Cu5_2 1_555 1_555
C13_3 O1_3 1_555 1_555
C14_3 C13_3 1_555 1_555
O3_3 Cu5_2 1_555 1_555
C15_3 O3_3 1_555 1_555
C16_3 C15_3 1_555 1_555
H15_3 C16_3 1_555 1_555
C17_3 C16_3 1_555 1_555
H16_3 C17_3 1_555 1_555
H17_3 C17_3 1_555 1_555
C18_3 C16_3 1_555 1_555
C19_3 C18_3 1_555 1_555
C20_3 C18_3 1_555 1_555
H21_3 C20_3 1_555 1_555
H22_3 C20_3 1_555 1_555
H23_3 C20_3 1_555 1_555
C28_3 C18_3 1_555 1_555
C29_3 C28_3 1_555 1_555
H24_3 C29_3 1_555 1_555
H25_3 C29_3 1_555 1_555
H26_3 C29_3 1_555 1_555
C30_3 C17_3 1_555 1_555
H27_3 C30_3 1_555 1_555
H28_3 C30_3 1_555 1_555
Cu10_2 N6_3 1_555 1_555
O9_2 C31_3 1_555 1_555
O10_2 C31_3 1_555 1_555
C31_3 C32_3 1_555 1_555
C32_3 C33_3 1_555 1_555
C33_3 C51_3 1_555 1_555
C34_3 C32_3 1_555 1_555
C36_3 H29_3 1_555 1_555
O15_3 Cu10_2 1_555 1_555
O16_3 Cu14_2 1_555 1_555
C40_3 O15_3 1_555 1_555
C41_3 C40_3 1_555 1_555
C42_3 C41_3 1_555 1_555
H33_3 C42_3 1_555 1_555
H34_3 C42_3 1_555 1_555
C43_3 C36_3 1_555 1_555
H35_3 C43_3 1_555 1_555
H36_3 C43_3 1_555 1_555
C44_3 C41_3 1_555 1_555
H37_3 C44_3 1_555 1_555
H38_3 C44_3 1_555 1_555
H39_3 C44_3 1_555 1_555
C45_3 C36_3 1_555 1_555
C46_3 C45_3 1_555 1_555
H40_3 C46_3 1_555 1_555
H41_3 C46_3 1_555 1_555
H42_3 C46_3 1_555 1_555
C47_3 C45_3 1_555 1_555
H43_3 C47_3 1_555 1_555
H44_3 C47_3 1_555 1_555
H45_3 C47_3 1_555 1_555
C49_3 C50_3 1_555 1_555
C50_3 C14_3 1_555 1_555
C51_3 C14_3 1_555 1_555
C52_3 C50_3 1_555 1_555
Cu10 O9_2 1_555 1_555
Cu14 O10_2 1_555 1_555
O19_2 Cu10_2 1_555 1_555
O20_2 Cu14_2 1_555 1_555
O23_2 Cu10_2 1_555 1_555
O24_2 Cu14_2 1_555 1_555
C2_3 N3_3 1_555 1_555
N4_3 N5_3 1_555 1_555
C4_3 N6_3 1_555 1_555
N7_3 N8_3 1_555 1_555
C6_3 N9_3 1_555 1_555
N10_3 N11_3 1_555 1_555
C8_3 N12_3 1_555 1_555
N13_3 N14_3 1_555 1_555
C10_3 N19_2 1_555 1_555
N16_3 N17_3 1_555 1_555
C12_3 N20_2 1_555 1_555
O2_3 C13_3 1_555 1_555
O4_3 C15_3 1_555 1_555
C28_3 C30_3 1_555 1_555
C32_3 C50_3 1_555 1_555
O16_3 C40_3 1_555 1_555
C41_3 C45_3 1_555 1_555
C42_3 C43_3 1_555 1_555
C14_3 H46_3 1_555 1_555
C33_3 H55_3 1_555 1_555
C33_3 H56_3 1_555 1_555
C34_3 H57_3 1_555 1_555
C34_3 H58_3 1_555 1_555
C34_3 H59_3 1_555 1_555
C51_3 H60_3 1_555 1_555
C51_3 H61_3 1_555 1_555
C49_3 H65_3 1_555 1_555
C49_3 H66_3 1_555 1_555
C49_3 H67_3 1_555 1_555
C52_3 H68_3 1_555 1_555
C52_3 H69_3 1_555 1_555
C52_3 H70_3 1_555 1_555
O17_2 C27_3 1_555 1_555
O18_2 C27_3 1_555 1_555
O21_2 C35_3 1_555 1_555
O22_2 C35_3 1_555 1_555
Co1_4 N1_4 1_555 1_555
B1_4 H1_4 1_555 1_555
N1_4 N2_4 1_555 1_555
N2_4 B1_4 1_555 1_555
C1_4 N1_4 1_555 1_555
H2_4 C1_4 1_555 1_555
C2_4 N2_4 1_555 1_555
H3_4 C2_4 1_555 1_555
N3_4 C1_4 1_555 1_555
N4_4 Co1_4 1_555 1_555
N5_4 B1_4 1_555 1_555
C3_4 N4_4 1_555 1_555
H4_4 C3_4 1_555 1_555
C4_4 N5_4 1_555 1_555
H5_4 C4_4 1_555 1_555
N6_4 C3_4 1_555 1_555
N7_4 Co1_4 1_555 1_555
N8_4 B1_4 1_555 1_555
C5_4 N7_4 1_555 1_555
H6_4 C5_4 1_555 1_555
C6_4 N8_4 1_555 1_555
H7_4 C6_4 1_555 1_555
N9_4 C5_4 1_555 1_555
B2_4 H8_4 1_555 1_555
N10_4 Co1_4 1_555 1_555
N11_4 B2_4 1_555 1_555
C7_4 N10_4 1_555 1_555
H9_4 C7_4 1_555 1_555
C8_4 N11_4 1_555 1_555
H10_4 C8_4 1_555 1_555
N12_4 C7_4 1_555 1_555
N13_4 Co1_4 1_555 1_555
N14_4 B2_4 1_555 1_555
C9_4 N13_4 1_555 1_555
H11_4 C9_4 1_555 1_555
C10_4 N14_4 1_555 1_555
H12_4 C10_4 1_555 1_555
N19 C9_4 1_555 1_555
N16_4 Co1_4 1_555 1_555
N17_4 B2_4 1_555 1_555
C11_4 N16_4 1_555 1_555
H13_4 C11_4 1_555 1_555
C12_4 N17_4 1_555 1_555
H14_4 C12_4 1_555 1_555
N20 C11_4 1_555 1_555
Cu5 N3_4 1_555 1_555
O1_4 Cu5 1_555 1_555
C13_4 O1_4 1_555 1_555
C14_4 C13_4 1_555 1_555
O3_4 Cu5 1_555 1_555
C15_4 O3_4 1_555 1_555
C16_4 C15_4 1_555 1_555
H15_4 C16_4 1_555 1_555
C17_4 C16_4 1_555 1_555
H16_4 C17_4 1_555 1_555
H17_4 C17_4 1_555 1_555
C18_4 C16_4 1_555 1_555
C19_4 C18_4 1_555 1_555
C20_4 C18_4 1_555 1_555
H21_4 C20_4 1_555 1_555
H22_4 C20_4 1_555 1_555
H23_4 C20_4 1_555 1_555
C28_4 C18_4 1_555 1_555
C29_4 C28_4 1_555 1_555
H24_4 C29_4 1_555 1_555
H25_4 C29_4 1_555 1_555
H26_4 C29_4 1_555 1_555
C30_4 C17_4 1_555 1_555
H27_4 C30_4 1_555 1_555
H28_4 C30_4 1_555 1_555
Cu10 N6_4 1_555 1_555
O19_2 C31_4 1_555 1_555
O20_2 C31_4 1_555 1_555
C31_4 C32_4 1_555 1_555
C32_4 C33_4 1_555 1_555
C33_4 C51_4 1_555 1_555
C34_4 C32_4 1_555 1_555
C36_4 H29_4 1_555 1_555
O15_4 Cu10 1_555 1_555
O16_4 Cu14 1_555 1_555
C40_4 O15_4 1_555 1_555
C41_4 C40_4 1_555 1_555
C42_4 C41_4 1_555 1_555
H33_4 C42_4 1_555 1_555
H34_4 C42_4 1_555 1_555
C43_4 C36_4 1_555 1_555
H35_4 C43_4 1_555 1_555
H36_4 C43_4 1_555 1_555
C44_4 C41_4 1_555 1_555
H37_4 C44_4 1_555 1_555
H38_4 C44_4 1_555 1_555
H39_4 C44_4 1_555 1_555
C45_4 C36_4 1_555 1_555
C46_4 C45_4 1_555 1_555
H40_4 C46_4 1_555 1_555
H41_4 C46_4 1_555 1_555
H42_4 C46_4 1_555 1_555
C47_4 C45_4 1_555 1_555
H43_4 C47_4 1_555 1_555
H44_4 C47_4 1_555 1_555
H45_4 C47_4 1_555 1_555
C49_4 C50_4 1_555 1_555
C50_4 C14_4 1_555 1_555
C51_4 C14_4 1_555 1_555
C52_4 C50_4 1_555 1_555
C2_4 N3_4 1_555 1_555
N4_4 N5_4 1_555 1_555
C4_4 N6_4 1_555 1_555
N7_4 N8_4 1_555 1_555
C6_4 N9_4 1_555 1_555
N10_4 N11_4 1_555 1_555
C8_4 N12_4 1_555 1_555
N13_4 N14_4 1_555 1_555
C10_4 N19 1_555 1_555
N16_4 N17_4 1_555 1_555
C12_4 N20 1_555 1_555
O2_4 C13_4 1_555 1_555
O4_4 C15_4 1_555 1_555
C28_4 C30_4 1_555 1_555
C32_4 C50_4 1_555 1_555
O16_4 C40_4 1_555 1_555
C41_4 C45_4 1_555 1_555
C42_4 C43_4 1_555 1_555
C14_4 H46_4 1_555 1_555
C33_4 H55_4 1_555 1_555
C33_4 H56_4 1_555 1_555
C34_4 H57_4 1_555 1_555
C34_4 H58_4 1_555 1_555
C34_4 H59_4 1_555 1_555
C51_4 H60_4 1_555 1_555
C51_4 H61_4 1_555 1_555
C49_4 H65_4 1_555 1_555
C49_4 H66_4 1_555 1_555
C49_4 H67_4 1_555 1_555
C52_4 H68_4 1_555 1_555
C52_4 H69_4 1_555 1_555
C52_4 H70_4 1_555 1_555
O6_4 Cu7 1_555 1_555
C21_4 O5_4 1_555 1_555
C22_4 C21_4 1_555 1_555
C23_4 C22_4 1_555 1_555
C24_4 C22_4 1_555 1_555
C25_4 C22_4 1_555 1_555
C26_4 C25_4 1_555 1_555
O23_2 C37_4 1_555 1_555
O24_2 C37_4 1_555 1_555
C37_4 C38_4 1_555 1_555
C38_4 C25_4 1_555 1_555
H30_4 C38_4 1_555 1_555
C39_4 C24_4 1_555 1_555
H31_4 C39_4 1_555 1_555
H32_4 C39_4 1_555 1_555
C48_4 C25_4 1_555 1_555
O6_4 C21_4 1_555 1_555
C38_4 C39_4 1_555 1_555
C24_4 H47_4 1_555 1_555
C24_4 H48_4 1_555 1_555
C23_4 H49_4 1_555 1_555
C23_4 H50_4 1_555 1_555
C23_4 H51_4 1_555 1_555
C26_4 H52_4 1_555 1_555
C26_4 H53_4 1_555 1_555
C26_4 H54_4 1_555 1_555
C48_4 H62_4 1_555 1_555
C48_4 H63_4 1_555 1_555
C48_4 H64_4 1_555 1_555
O17 C27_4 1_555 1_555
O18 C27_4 1_555 1_555
O21 C35_4 1_555 1_555
O22 C35_4 1_555 1_555

#END
